data_crystal

_cell_length_a 13.60860
_cell_length_b 13.60860
_cell_length_c 15.27770
_cell_angle_alpha 90.00000
_cell_angle_beta  90.00000
_cell_angle_gamma 120.00000

_symmetry_space_group_name_	'P 1'
_symmetry_space_group_name_H-M	'P 1'

loop_
_symmetry_equiv_pos_as_xyz
  x,y,z

loop_
_atom_site_label
_atom_site_type_symbol
_atom_site_fract_x
_atom_site_fract_y
_atom_site_fract_z
_atom_site_charge
Zn	Zn	0.97196 0.21547 0.08991 1.22900
P 	P 	0.77325 0.97987 0.10648 0.60400
O 	O 	0.70530 0.61560 0.14900 -0.47700
O 	O 	0.11780 0.25670 0.13640 -0.47900
O 	O 	0.97570 0.27330 0.97190 -0.41500
O 	O 	0.90020 0.04720 0.07900 -0.64600
Zn	Zn	0.63863 0.54880 0.42324 1.23300
P 	P 	0.43992 0.31320 0.43981 0.54900
O 	O 	0.37197 0.94893 0.48233 -0.44800
O 	O 	0.78447 0.59003 0.46973 -0.43900
O 	O 	0.64237 0.60663 0.30523 -0.45300
O 	O 	0.56687 0.38053 0.41233 -0.61100
Zn	Zn	0.30529 0.88214 0.75658 1.23400
P 	P 	0.10658 0.64654 0.77315 0.54900
O 	O 	0.03863 0.28227 0.81567 -0.50500
O 	O 	0.45113 0.92337 0.80307 -0.43000
O 	O 	0.30903 0.93997 0.63857 -0.44700
O 	O 	0.23353 0.71387 0.74567 -0.60900
Zn	Zn	0.78453 0.75649 0.08991 1.22500
P 	P 	0.02013 0.79338 0.10648 0.49400
O 	O 	0.38440 0.08970 0.14900 -0.49200
O 	O 	0.74330 0.86110 0.13640 -0.45000
O 	O 	0.72670 0.70240 0.97190 -0.42300
O 	O 	0.95280 0.85300 0.07900 -0.57600
Zn	Zn	0.45120 0.08982 0.42324 1.22500
P 	P 	0.68680 0.12671 0.43981 0.54900
O 	O 	0.05107 0.42303 0.48233 -0.49400
O 	O 	0.40997 0.19443 0.46973 -0.45800
O 	O 	0.39337 0.03573 0.30523 -0.47600
O 	O 	0.61947 0.18633 0.41233 -0.61400
Zn	Zn	0.11786 0.42316 0.75658 1.23200
P 	P 	0.35346 0.46005 0.77315 0.54900
O 	O 	0.71773 0.75637 0.81567 -0.46000
O 	O 	0.07663 0.52777 0.80307 -0.45100
O 	O 	0.06003 0.36907 0.63857 -0.47100
O 	O 	0.28613 0.51967 0.74567 -0.61000
Zn	Zn	0.24351 0.02804 0.08991 1.21300
P 	P 	0.20662 0.22675 0.10648 0.54900
O 	O 	0.91030 0.29470 0.14900 -0.47400
O 	O 	0.13890 0.88220 0.13640 -0.43400
O 	O 	0.29760 0.02430 0.97190 -0.43200
O 	O 	0.14700 0.09980 0.07900 -0.64700
Zn	Zn	0.91018 0.36137 0.42324 1.23900
P 	P 	0.87329 0.56008 0.43981 0.54900
O 	O 	0.57697 0.62803 0.48233 -0.46500
O 	O 	0.80557 0.21553 0.46973 -0.44000
O 	O 	0.96427 0.35763 0.30523 -0.44200
O 	O 	0.81367 0.43313 0.41233 -0.60800
Zn	Zn	0.57684 0.69471 0.75658 1.23400
P 	P 	0.53995 0.89342 0.77315 0.54900
O 	O 	0.24363 0.96137 0.81567 -0.43900
O 	O 	0.47223 0.54887 0.80307 -0.43900
O 	O 	0.63093 0.69097 0.63857 -0.44900
O 	O 	0.48033 0.76647 0.74567 -0.60800
Zn	Zn	0.02804 0.78453 0.91009 1.23300
P 	P 	0.22675 0.02013 0.89352 0.50000
O 	O 	0.29470 0.38440 0.85100 -0.46000
O 	O 	0.88220 0.74330 0.86360 -0.41500
O 	O 	0.02430 0.72670 0.02810 -0.49100
O 	O 	0.09980 0.95280 0.92100 -0.56900
Zn	Zn	0.69471 0.11786 0.24342 1.23100
P 	P 	0.89342 0.35346 0.22685 0.54900
O 	O 	0.96137 0.71773 0.18433 -0.43600
O 	O 	0.54887 0.07663 0.19693 -0.46600
O 	O 	0.69097 0.06003 0.36143 -0.46500
O 	O 	0.76647 0.28613 0.25433 -0.61400
Zn	Zn	0.36137 0.45120 0.57676 1.23200
P 	P 	0.56008 0.68680 0.56019 0.54800
O 	O 	0.62803 0.05107 0.51767 -0.48800
O 	O 	0.21553 0.40997 0.53027 -0.45500
O 	O 	0.35763 0.39337 0.69477 -0.45900
O 	O 	0.43313 0.61947 0.58767 -0.61100
Zn	Zn	0.21547 0.24351 0.91009 1.24000
P 	P 	0.97987 0.20662 0.89352 0.61000
O 	O 	0.61560 0.91030 0.85100 -0.44900
O 	O 	0.25670 0.13890 0.86360 -0.44100
O 	O 	0.27330 0.29760 0.02810 -0.49000
O 	O 	0.04720 0.14700 0.92100 -0.63400
Zn	Zn	0.88214 0.57684 0.24342 1.23300
P 	P 	0.64654 0.53995 0.22685 0.54900
O 	O 	0.28227 0.24363 0.18433 -0.47900
O 	O 	0.92337 0.47223 0.19693 -0.44400
O 	O 	0.93997 0.63093 0.36143 -0.44100
O 	O 	0.71387 0.48033 0.25433 -0.61300
Zn	Zn	0.54880 0.91018 0.57676 1.23900
P 	P 	0.31320 0.87329 0.56019 0.54900
O 	O 	0.94893 0.57697 0.51767 -0.44400
O 	O 	0.59003 0.80557 0.53027 -0.43600
O 	O 	0.60663 0.96427 0.69477 -0.43700
O 	O 	0.38053 0.81367 0.58767 -0.60900
Zn	Zn	0.75649 0.97196 0.91009 1.24900
P 	P 	0.79338 0.77325 0.89352 0.54700
O 	O 	0.08970 0.70530 0.85100 -0.46500
O 	O 	0.86110 0.11780 0.86360 -0.45200
O 	O 	0.70240 0.97570 0.02810 -0.47500
O 	O 	0.85300 0.90020 0.92100 -0.56700
Zn	Zn	0.42316 0.30529 0.24342 1.23100
P 	P 	0.46005 0.10658 0.22685 0.54900
O 	O 	0.75637 0.03863 0.18433 -0.50300
O 	O 	0.52777 0.45113 0.19693 -0.45500
O 	O 	0.36907 0.30903 0.36143 -0.46300
O 	O 	0.51967 0.23353 0.25433 -0.61500
Zn	Zn	0.08982 0.63863 0.57676 1.22500
P 	P 	0.12671 0.43992 0.56019 0.54900
O 	O 	0.42303 0.37197 0.51767 -0.47200
O 	O 	0.19443 0.78447 0.53027 -0.45200
O 	O 	0.03573 0.64237 0.69477 -0.47000
O 	O 	0.18633 0.56687 0.58767 -0.61400
Zn	Zn	-0.00000 0.00000 -0.00000 1.16800
Zn	Zn	0.66667 0.33333 0.33333 1.21200
Zn	Zn	0.33333 0.66667 0.66667 1.21200
