data_crystal

_cell_length_a 17.57050
_cell_length_b 18.57100
_cell_length_c 13.33550
_cell_angle_alpha 90.00000
_cell_angle_beta  90.00000
_cell_angle_gamma 90.00000

_symmetry_space_group_name_	'P 1'
_symmetry_space_group_name_H-M	'P 1'

loop_
_symmetry_equiv_pos_as_xyz
  x,y,z

loop_
_atom_site_label
_atom_site_type_symbol
_atom_site_fract_x
_atom_site_fract_y
_atom_site_fract_z
_atom_site_charge
O 	O 	0.13134 0.99228 0.10883 -0.24200
O 	O 	0.01238 0.87461 0.99266 -0.28200
O 	O 	0.90849 0.98340 0.90130 -0.22200
O 	O 	0.01595 0.08692 0.19380 -0.26700
N 	N 	0.18454 0.94226 0.09220 -0.08800
N 	N 	0.96081 0.82292 0.98190 -0.07300
N 	N 	0.91070 0.96309 0.80650 -0.08300
N 	N 	0.03602 0.08558 0.28930 -0.07200
C 	C 	0.25680 0.96360 0.07620 0.13900
H 	H 	0.26880 0.01340 0.07450 -0.02600
C 	C 	0.31280 0.91340 0.06260 -0.15400
H 	H 	0.36390 0.92890 0.05350 0.09000
C 	C 	0.29660 0.84100 0.06190 0.06700
C 	C 	0.22070 0.82100 0.07860 -0.11900
H 	H 	0.20670 0.77150 0.07860 0.07100
C 	C 	0.16700 0.87270 0.09470 0.06000
H 	H 	0.11600 0.85870 0.10800 0.01900
C 	C 	0.98060 0.76170 0.93550 0.11900
H 	H 	0.03130 0.75580 0.91230 -0.01300
C 	C 	0.92900 0.70770 0.92080 -0.14100
H 	H 	0.94440 0.66440 0.88860 0.08400
C 	C 	0.35420 0.78440 0.04730 0.03900
C 	C 	0.33630 0.72140 0.99840 -0.10200
H 	H 	0.28610 0.71480 0.97350 0.06600
C 	C 	0.88910 0.83200 0.01540 0.06700
H 	H 	0.87520 0.87540 0.04850 0.01900
C 	C 	0.96670 0.91970 0.77140 0.09600
H 	H 	0.00260 0.89970 0.81680 0.00100
C 	C 	0.97210 0.90420 0.67130 -0.07900
H 	H 	0.01160 0.87350 0.64830 0.04400
C 	C 	0.92050 0.93270 0.60260 0.08000
C 	C 	0.86040 0.97340 0.64190 -0.14500
H 	H 	0.82180 0.99120 0.59840 0.09100
C 	C 	0.85650 0.98800 0.74310 0.12400
H 	H 	0.81550 0.01580 0.76870 -0.01700
C 	C 	0.00560 0.13343 0.35270 0.01600
H 	H 	0.97290 0.17010 0.32780 0.06200
C 	C 	0.02120 0.12990 0.45370 -0.17100
H 	H 	0.99940 0.16450 0.49760 0.10800
C 	C 	0.93110 0.92380 0.49300 -0.00500
C 	C 	0.89780 0.96980 0.42410 0.00400
H 	H 	0.86300 0.00550 0.44670 0.00900
C 	C 	0.08590 0.03520 0.32310 0.07200
H 	H 	0.10950 0.00320 0.27700 0.00600
O 	O 	0.86866 0.00772 0.10883 -0.27900
O 	O 	0.98762 0.12539 0.99266 -0.24900
O 	O 	0.09151 0.01660 0.90130 -0.27200
O 	O 	0.98405 0.91308 0.19380 -0.21300
N 	N 	0.81546 0.05774 0.09220 -0.05500
N 	N 	0.03919 0.17708 0.98190 -0.07000
N 	N 	0.08930 0.03691 0.80650 -0.04400
N 	N 	0.96398 0.91442 0.28930 -0.05900
C 	C 	0.74320 0.03640 0.07620 -0.03100
H 	H 	0.73120 0.98660 0.07450 0.08000
C 	C 	0.68720 0.08660 0.06260 -0.05700
H 	H 	0.63610 0.07110 0.05350 0.04100
C 	C 	0.70340 0.15900 0.06190 0.01300
C 	C 	0.77930 0.17900 0.07860 -0.07800
H 	H 	0.79330 0.22850 0.07860 0.06200
C 	C 	0.83300 0.12730 0.09470 0.02600
H 	H 	0.88400 0.14130 0.10800 0.03800
C 	C 	0.01940 0.23830 0.93550 -0.01800
H 	H 	0.96870 0.24420 0.91230 0.06800
C 	C 	0.07100 0.29230 0.92080 -0.07100
H 	H 	0.05560 0.33560 0.88860 0.04500
C 	C 	0.64580 0.21560 0.04730 0.06200
C 	C 	0.66370 0.27860 0.99840 -0.11800
H 	H 	0.71390 0.28520 0.97350 0.07300
C 	C 	0.11090 0.16800 0.01540 0.04200
H 	H 	0.12480 0.12460 0.04850 0.01000
C 	C 	0.03330 0.08030 0.77140 -0.01900
H 	H 	0.99740 0.10030 0.81680 0.06900
C 	C 	0.02790 0.09580 0.67130 -0.11000
H 	H 	0.98840 0.12650 0.64830 0.08400
C 	C 	0.07950 0.06730 0.60260 -0.00400
C 	C 	0.13960 0.02660 0.64190 -0.05100
H 	H 	0.17820 0.00880 0.59840 0.03200
C 	C 	0.14350 0.01200 0.74310 -0.04100
H 	H 	0.18450 0.98420 0.76870 0.08300
C 	C 	0.99440 0.86657 0.35270 0.07800
H 	H 	0.02710 0.82990 0.32780 0.00000
C 	C 	0.97880 0.87010 0.45370 -0.03400
H 	H 	0.00060 0.83550 0.49760 0.02200
C 	C 	0.06890 0.07620 0.49300 0.08800
C 	C 	0.10220 0.03020 0.42410 -0.19500
H 	H 	0.13700 0.99450 0.44670 0.12100
C 	C 	0.91410 0.96480 0.32310 0.00600
H 	H 	0.89050 0.99680 0.27700 0.06800
O 	O 	0.36866 0.49228 0.89117 -0.27100
O 	O 	0.48762 0.37461 0.00734 -0.27200
O 	O 	0.59151 0.48340 0.09870 -0.25000
O 	O 	0.48405 0.58692 0.80620 -0.24700
N 	N 	0.31546 0.44226 0.90780 -0.07200
N 	N 	0.53919 0.32292 0.01810 -0.07100
N 	N 	0.58930 0.46309 0.19350 -0.06400
N 	N 	0.46398 0.58558 0.71070 -0.06400
C 	C 	0.24320 0.46360 0.92380 0.05200
H 	H 	0.23120 0.51340 0.92550 0.02500
C 	C 	0.18720 0.41340 0.93740 -0.11100
H 	H 	0.13610 0.42890 0.94650 0.06200
C 	C 	0.20340 0.34100 0.93810 0.04700
C 	C 	0.27930 0.32100 0.92140 -0.10400
H 	H 	0.29330 0.27150 0.92140 0.06600
C 	C 	0.33300 0.37270 0.90530 0.04300
H 	H 	0.38400 0.35870 0.89200 0.02500
C 	C 	0.51940 0.26170 0.06450 0.05800
H 	H 	0.46870 0.25580 0.08770 0.02300
C 	C 	0.57100 0.20770 0.07920 -0.11800
H 	H 	0.55560 0.16440 0.11140 0.06600
C 	C 	0.14580 0.28440 0.95270 0.02600
C 	C 	0.16370 0.22140 0.00160 -0.09300
H 	H 	0.21390 0.21480 0.02650 0.06200
C 	C 	0.61090 0.33200 0.98460 0.05600
H 	H 	0.62480 0.37540 0.95150 0.01100
C 	C 	0.53330 0.41970 0.22860 0.04000
H 	H 	0.49740 0.39970 0.18320 0.03200
C 	C 	0.52790 0.40420 0.32870 -0.09400
H 	H 	0.48840 0.37350 0.35170 0.06200
C 	C 	0.57950 0.43270 0.39740 0.04000
C 	C 	0.63960 0.47340 0.35810 -0.09900
H 	H 	0.67820 0.49120 0.40160 0.06500
C 	C 	0.64350 0.48800 0.25690 0.04500
H 	H 	0.68450 0.51580 0.23130 0.03400
C 	C 	0.49440 0.63343 0.64730 0.04700
H 	H 	0.52710 0.67010 0.67220 0.03200
C 	C 	0.47880 0.62990 0.54630 -0.10000
H 	H 	0.50060 0.66450 0.50240 0.06400
C 	C 	0.56890 0.42380 0.50700 0.03900
C 	C 	0.60220 0.46980 0.57590 -0.09100
H 	H 	0.63700 0.50550 0.55330 0.06400
C 	C 	0.41410 0.53520 0.67690 0.03600
H 	H 	0.39050 0.50320 0.72300 0.03700
O 	O 	0.63134 0.50772 0.89117 -0.27000
O 	O 	0.51238 0.62539 0.00734 -0.27000
O 	O 	0.40849 0.51660 0.09870 -0.25200
O 	O 	0.51595 0.41308 0.80620 -0.24800
N 	N 	0.68454 0.55774 0.90780 -0.07100
N 	N 	0.46081 0.67708 0.01810 -0.06700
N 	N 	0.41070 0.53691 0.19350 -0.06400
N 	N 	0.53602 0.41442 0.71070 -0.06400
C 	C 	0.75680 0.53640 0.92380 0.05100
H 	H 	0.76880 0.48660 0.92550 0.03000
C 	C 	0.81280 0.58660 0.93740 -0.10200
H 	H 	0.86390 0.57110 0.94650 0.06800
C 	C 	0.79660 0.65900 0.93810 0.03600
C 	C 	0.72070 0.67900 0.92140 -0.09700
H 	H 	0.70670 0.72850 0.92140 0.06600
C 	C 	0.66700 0.62730 0.90530 0.04100
H 	H 	0.61600 0.64130 0.89200 0.02700
C 	C 	0.48060 0.73830 0.06450 0.05300
H 	H 	0.53130 0.74420 0.08770 0.02900
C 	C 	0.42900 0.79230 0.07920 -0.10200
H 	H 	0.44440 0.83560 0.11140 0.06700
C 	C 	0.85420 0.71560 0.95270 0.05800
C 	C 	0.83630 0.77860 0.00160 -0.10800
H 	H 	0.78610 0.78520 0.02650 0.07400
C 	C 	0.38910 0.66800 0.98460 0.04700
H 	H 	0.37520 0.62460 0.95150 0.01300
C 	C 	0.46670 0.58030 0.22860 0.04000
H 	H 	0.50260 0.60030 0.18320 0.03300
C 	C 	0.47210 0.59580 0.32870 -0.09400
H 	H 	0.51160 0.62650 0.35170 0.06400
C 	C 	0.42050 0.56730 0.39740 0.04000
C 	C 	0.36040 0.52660 0.35810 -0.10000
H 	H 	0.32180 0.50880 0.40160 0.06100
C 	C 	0.35650 0.51200 0.25690 0.04300
H 	H 	0.31550 0.48420 0.23130 0.03000
C 	C 	0.50560 0.36657 0.64730 0.04700
H 	H 	0.47290 0.32990 0.67220 0.02800
C 	C 	0.52120 0.37010 0.54630 -0.10100
H 	H 	0.49940 0.33550 0.50240 0.06100
C 	C 	0.43110 0.57620 0.50700 0.03900
C 	C 	0.39780 0.53020 0.57590 -0.09100
H 	H 	0.36300 0.49450 0.55330 0.06100
C 	C 	0.58590 0.46480 0.67690 0.03700
H 	H 	0.60950 0.49680 0.72300 0.03800
La	La	-0.00000 0.00000 0.04648 1.60700
La	La	0.50000 0.50000 0.95352 1.67900
