data_crystal

_cell_length_a 9.47700
_cell_length_b 34.80000
_cell_length_c 25.01000
_cell_angle_alpha 90.00000
_cell_angle_beta  90.00000
_cell_angle_gamma 90.00000

_symmetry_space_group_name_	'P 1'
_symmetry_space_group_name_H-M	'P 1'

loop_
_symmetry_equiv_pos_as_xyz
  x,y,z

loop_
_atom_site_label
_atom_site_type_symbol
_atom_site_fract_x
_atom_site_fract_y
_atom_site_fract_z
_atom_site_charge
N 	N 	0.15540 0.92291 0.00810 -0.30600
N 	N 	0.33350 0.92487 0.94940 -0.29100
C 	C 	0.26260 0.90390 0.98630 0.11100
H 	H 	0.28650 0.87880 0.99540 -0.04800
N 	N 	0.15710 0.95849 0.98450 -0.21900
C 	C 	0.26090 0.95790 0.95040 0.11700
H 	H 	0.28290 0.97870 0.92860 -0.01300
N 	N 	0.65540 0.42291 0.50810 -0.26600
N 	N 	0.83350 0.42487 0.44940 -0.25700
C 	C 	0.76260 0.40390 0.48630 0.09600
H 	H 	0.78650 0.37880 0.49540 -0.01300
N 	N 	0.65710 0.45849 0.48450 -0.22600
C 	C 	0.76090 0.45790 0.45040 0.12500
H 	H 	0.78290 0.47870 0.42860 0.00400
N 	N 	0.84460 0.57709 0.00810 -0.26700
N 	N 	0.66650 0.57513 0.94940 -0.28600
C 	C 	0.73740 0.59610 0.98630 0.12300
H 	H 	0.71350 0.62120 0.99540 -0.03100
N 	N 	0.84290 0.54151 0.98450 -0.18700
C 	C 	0.73910 0.54210 0.95040 0.12700
H 	H 	0.71710 0.52130 0.92860 -0.00100
N 	N 	0.34460 0.07709 0.50810 -0.27100
N 	N 	0.16650 0.07513 0.44940 -0.29300
C 	C 	0.23740 0.09610 0.48630 0.08200
H 	H 	0.21350 0.12120 0.49540 -0.04000
N 	N 	0.34290 0.04151 0.48450 -0.23200
C 	C 	0.23910 0.04210 0.45040 0.11100
H 	H 	0.21710 0.02130 0.42860 -0.02500
N 	N 	0.84460 0.42291 0.99190 -0.21800
N 	N 	0.66650 0.42487 0.05060 -0.28100
C 	C 	0.73740 0.40390 0.01370 0.06900
H 	H 	0.71350 0.37880 0.00460 -0.02400
N 	N 	0.84290 0.45849 0.01550 -0.21400
C 	C 	0.73910 0.45790 0.04960 0.12300
H 	H 	0.71710 0.47870 0.07140 -0.00600
N 	N 	0.34460 0.92291 0.49190 -0.27100
N 	N 	0.16650 0.92487 0.55060 -0.29300
C 	C 	0.23740 0.90390 0.51370 0.08300
H 	H 	0.21350 0.87880 0.50460 -0.04000
N 	N 	0.34290 0.95849 0.51550 -0.22700
C 	C 	0.23910 0.95790 0.54960 0.11400
H 	H 	0.21710 0.97870 0.57140 -0.01900
N 	N 	0.15540 0.07709 0.99190 -0.25500
N 	N 	0.33350 0.07513 0.05060 -0.28600
C 	C 	0.26260 0.09610 0.01370 0.05400
H 	H 	0.28650 0.12120 0.00460 -0.04000
N 	N 	0.15710 0.04151 0.01550 -0.25100
C 	C 	0.26090 0.04210 0.04960 0.11000
H 	H 	0.28290 0.02130 0.07140 -0.02300
N 	N 	0.65540 0.57709 0.49190 -0.26500
N 	N 	0.83350 0.57513 0.55060 -0.25600
C 	C 	0.76260 0.59610 0.51370 0.09700
H 	H 	0.78650 0.62120 0.50460 -0.01300
N 	N 	0.65710 0.54151 0.51550 -0.22600
C 	C 	0.76090 0.54210 0.54960 0.12400
H 	H 	0.78290 0.52130 0.57140 0.00400
N 	N 	0.84460 0.07709 0.99190 -0.21800
N 	N 	0.66650 0.07513 0.05060 -0.28100
C 	C 	0.73740 0.09610 0.01370 0.06800
H 	H 	0.71350 0.12120 0.00460 -0.02400
N 	N 	0.84290 0.04151 0.01550 -0.21600
C 	C 	0.73910 0.04210 0.04960 0.12100
H 	H 	0.71710 0.02130 0.07140 -0.00900
N 	N 	0.34460 0.57709 0.49190 -0.27100
N 	N 	0.16650 0.57513 0.55060 -0.29300
C 	C 	0.23740 0.59610 0.51370 0.08300
H 	H 	0.21350 0.62120 0.50460 -0.04000
N 	N 	0.34290 0.54151 0.51550 -0.23000
C 	C 	0.23910 0.54210 0.54960 0.11200
H 	H 	0.21710 0.52130 0.57140 -0.02200
N 	N 	0.15540 0.42291 0.99190 -0.25400
N 	N 	0.33350 0.42487 0.05060 -0.28500
C 	C 	0.26260 0.40390 0.01370 0.05500
H 	H 	0.28650 0.37880 0.00460 -0.04000
N 	N 	0.15710 0.45849 0.01550 -0.24900
C 	C 	0.26090 0.45790 0.04960 0.11100
H 	H 	0.28290 0.47870 0.07140 -0.02000
N 	N 	0.65540 0.92291 0.49190 -0.26500
N 	N 	0.83350 0.92487 0.55060 -0.25600
C 	C 	0.76260 0.90390 0.51370 0.09700
H 	H 	0.78650 0.87880 0.50460 -0.01300
N 	N 	0.65710 0.95849 0.51550 -0.22300
C 	C 	0.76090 0.95790 0.54960 0.12600
H 	H 	0.78290 0.97870 0.57140 0.00600
N 	N 	0.15540 0.57709 0.00810 -0.30600
N 	N 	0.33350 0.57513 0.94940 -0.29100
C 	C 	0.26260 0.59610 0.98630 0.11100
H 	H 	0.28650 0.62120 0.99540 -0.04700
N 	N 	0.15710 0.54151 0.98450 -0.22000
C 	C 	0.26090 0.54210 0.95040 0.11700
H 	H 	0.28290 0.52130 0.92860 -0.01500
N 	N 	0.65540 0.07709 0.50810 -0.26600
N 	N 	0.83350 0.07513 0.44940 -0.25700
C 	C 	0.76260 0.09610 0.48630 0.09600
H 	H 	0.78650 0.12120 0.49540 -0.01200
N 	N 	0.65710 0.04151 0.48450 -0.22800
C 	C 	0.76090 0.04210 0.45040 0.12300
H 	H 	0.78290 0.02130 0.42860 0.00100
N 	N 	0.84460 0.92291 0.00810 -0.26600
N 	N 	0.66650 0.92487 0.94940 -0.28500
C 	C 	0.73740 0.90390 0.98630 0.12400
H 	H 	0.71350 0.87880 0.99540 -0.03100
N 	N 	0.84290 0.95849 0.98450 -0.18400
C 	C 	0.73910 0.95790 0.95040 0.12900
H 	H 	0.71710 0.97870 0.92860 0.00100
N 	N 	0.34460 0.42291 0.50810 -0.27100
N 	N 	0.16650 0.42487 0.44940 -0.29300
C 	C 	0.23740 0.40390 0.48630 0.08300
H 	H 	0.21350 0.37880 0.49540 -0.04000
N 	N 	0.34290 0.45849 0.48450 -0.23000
C 	C 	0.23910 0.45790 0.45040 0.11300
H 	H 	0.21710 0.47870 0.42860 -0.02200
Zn	Zn	-0.00000 0.90543 0.05524 1.13500
Zn	Zn	0.00000 0.09144 0.40838 1.20000
O 	O 	0.00000 0.01740 0.37210 -0.36400
O 	O 	-0.00000 0.93020 0.12400 -0.58100
O 	O 	-0.00000 0.98590 0.08440 -0.54600
C 	C 	0.00000 0.02180 0.27840 -0.06900
O 	O 	0.00000 0.07450 0.33350 -0.46600
C 	C 	-0.00000 0.96620 0.12410 0.47100
O 	O 	-0.00000 0.14830 0.39980 -0.54100
C 	C 	-0.00000 0.98520 0.17560 -0.17000
C 	C 	0.00000 0.96590 0.22240 0.03600
H 	H 	0.00000 0.93920 0.22110 0.00600
C 	C 	-0.00000 0.03810 0.33230 0.31700
C 	C 	-0.00000 0.02350 0.18260 0.02700
H 	H 	0.00000 0.03910 0.15240 0.00500
C 	C 	-0.00000 0.04090 0.23190 -0.06000
H 	H 	-0.00000 0.06760 0.23310 0.05000
O 	O 	0.00000 0.15600 0.48330 -0.37300
C 	C 	0.00000 0.21100 0.42390 -0.11600
C 	C 	-0.00000 0.98330 0.27220 -0.05200
H 	H 	-0.00000 0.96780 0.30250 0.04400
C 	C 	0.00000 0.23020 0.47220 -0.03000
H 	H 	-0.00000 0.21660 0.50420 0.02900
C 	C 	0.00000 0.22960 0.37530 -0.01600
H 	H 	-0.00000 0.21590 0.34340 0.03200
C 	C 	-0.00000 0.16830 0.43450 0.42900
Zn	Zn	0.50000 0.40543 0.55524 1.15900
Zn	Zn	0.50000 0.59144 0.90838 1.21500
O 	O 	0.50000 0.51740 0.87210 -0.31600
O 	O 	0.50000 0.43020 0.62400 -0.55300
O 	O 	0.50000 0.48590 0.58440 -0.52500
C 	C 	0.50000 0.52180 0.77840 0.01100
O 	O 	0.50000 0.57450 0.83350 -0.43500
C 	C 	0.50000 0.46620 0.62410 0.49400
O 	O 	0.50000 0.64830 0.89980 -0.51900
C 	C 	0.50000 0.48520 0.67560 -0.20700
C 	C 	0.50000 0.46590 0.72240 0.10000
H 	H 	0.50000 0.43920 0.72110 0.00600
C 	C 	0.50000 0.53810 0.83230 0.29700
C 	C 	0.50000 0.52350 0.68260 0.10500
H 	H 	0.50000 0.53910 0.65240 0.00300
C 	C 	0.50000 0.54090 0.73190 -0.10900
H 	H 	0.50000 0.56760 0.73310 0.08800
O 	O 	0.50000 0.65600 0.98330 -0.33600
C 	C 	0.50000 0.71100 0.92390 -0.11300
C 	C 	0.50000 0.48330 0.77220 -0.10900
H 	H 	0.50000 0.46780 0.80250 0.08400
C 	C 	0.50000 0.73020 0.97220 0.00900
H 	H 	0.50000 0.71660 0.00420 0.00700
C 	C 	0.50000 0.72960 0.87530 -0.00700
H 	H 	0.50000 0.71590 0.84340 0.04700
C 	C 	0.50000 0.66830 0.93450 0.43200
Zn	Zn	-0.00000 0.59457 0.05524 1.13500
Zn	Zn	-0.00000 0.40856 0.40838 1.20000
O 	O 	0.00000 0.48260 0.37210 -0.35400
O 	O 	-0.00000 0.56980 0.12400 -0.58800
O 	O 	-0.00000 0.51410 0.08440 -0.56000
C 	C 	-0.00000 0.47820 0.27840 -0.01000
O 	O 	-0.00000 0.42550 0.33350 -0.46100
C 	C 	0.00000 0.53380 0.12410 0.49500
O 	O 	0.00000 0.35170 0.39980 -0.54200
C 	C 	-0.00000 0.51480 0.17560 -0.23100
C 	C 	0.00000 0.53410 0.22240 0.09300
H 	H 	0.00000 0.56080 0.22110 -0.01400
C 	C 	0.00000 0.46190 0.33230 0.29500
C 	C 	-0.00000 0.47650 0.18260 0.09800
H 	H 	0.00000 0.46090 0.15240 -0.01700
C 	C 	0.00000 0.45910 0.23190 -0.12000
H 	H 	-0.00000 0.43240 0.23310 0.07100
O 	O 	-0.00000 0.34400 0.48330 -0.37300
C 	C 	0.00000 0.28900 0.42390 -0.11600
C 	C 	0.00000 0.51670 0.27220 -0.12000
H 	H 	0.00000 0.53220 0.30250 0.06400
C 	C 	-0.00000 0.26980 0.47220 -0.02900
H 	H 	-0.00000 0.28340 0.50420 0.02900
C 	C 	-0.00000 0.27040 0.37530 -0.01600
H 	H 	-0.00000 0.28410 0.34340 0.03200
C 	C 	-0.00000 0.33170 0.43450 0.42900
Zn	Zn	0.50000 0.09457 0.55524 1.15900
Zn	Zn	0.50000 0.90856 0.90838 1.21500
O 	O 	0.50000 0.98260 0.87210 -0.30600
O 	O 	0.50000 0.06980 0.62400 -0.56000
O 	O 	0.50000 0.01410 0.58440 -0.53700
C 	C 	0.50000 0.97820 0.77840 0.07000
O 	O 	0.50000 0.92550 0.83350 -0.43000
C 	C 	0.50000 0.03380 0.62410 0.51800
O 	O 	0.50000 0.85170 0.89980 -0.52000
C 	C 	0.50000 0.01480 0.67560 -0.26800
C 	C 	0.50000 0.03410 0.72240 0.15600
H 	H 	0.50000 0.06080 0.72110 -0.01400
C 	C 	0.50000 0.96190 0.83230 0.27500
C 	C 	0.50000 0.97650 0.68260 0.17500
H 	H 	0.50000 0.96090 0.65240 -0.01900
C 	C 	0.50000 0.95910 0.73190 -0.16700
H 	H 	0.50000 0.93240 0.73310 0.10800
O 	O 	0.50000 0.84400 0.98330 -0.33600
C 	C 	0.50000 0.78900 0.92390 -0.11300
C 	C 	0.50000 0.01670 0.77220 -0.17600
H 	H 	0.50000 0.03220 0.80250 0.10400
C 	C 	0.50000 0.76980 0.97220 0.00900
H 	H 	0.50000 0.78340 0.00420 0.00700
C 	C 	0.50000 0.77040 0.87530 -0.00700
H 	H 	0.50000 0.78410 0.84340 0.04700
C 	C 	0.50000 0.83170 0.93450 0.43200
Zn	Zn	-0.00000 0.40543 0.94476 1.14200
Zn	Zn	0.00000 0.59144 0.59162 1.20000
O 	O 	-0.00000 0.51740 0.62790 -0.35400
O 	O 	0.00000 0.43020 0.87600 -0.57800
O 	O 	-0.00000 0.48590 0.91560 -0.54800
C 	C 	0.00000 0.52180 0.72160 -0.01300
O 	O 	0.00000 0.57450 0.66650 -0.46100
C 	C 	0.00000 0.46620 0.87590 0.49100
O 	O 	-0.00000 0.64830 0.60020 -0.54100
C 	C 	0.00000 0.48520 0.82440 -0.22400
C 	C 	0.00000 0.46590 0.77760 0.08800
H 	H 	-0.00000 0.43920 0.77890 -0.01000
C 	C 	-0.00000 0.53810 0.66770 0.29600
C 	C 	-0.00000 0.52350 0.81740 0.09200
H 	H 	0.00000 0.53910 0.84760 -0.01400
C 	C 	0.00000 0.54090 0.76810 -0.11500
H 	H 	0.00000 0.56760 0.76690 0.07000
O 	O 	0.00000 0.65600 0.51670 -0.37400
C 	C 	-0.00000 0.71100 0.57610 -0.11600
C 	C 	0.00000 0.48330 0.72780 -0.11500
H 	H 	0.00000 0.46780 0.69750 0.06300
C 	C 	-0.00000 0.73020 0.52780 -0.03000
H 	H 	0.00000 0.71660 0.49580 0.02800
C 	C 	0.00000 0.72960 0.62470 -0.01600
H 	H 	-0.00000 0.71590 0.65660 0.03200
C 	C 	0.00000 0.66830 0.56550 0.42900
Zn	Zn	0.50000 0.90543 0.44476 1.15900
Zn	Zn	0.50000 0.09144 0.09162 1.21400
O 	O 	0.50000 0.01740 0.12790 -0.33300
O 	O 	0.50000 0.93020 0.37600 -0.54800
O 	O 	0.50000 0.98590 0.41560 -0.51100
C 	C 	0.50000 0.02180 0.22160 -0.05200
O 	O 	0.50000 0.07450 0.16650 -0.44200
C 	C 	0.50000 0.96620 0.37590 0.46900
O 	O 	0.50000 0.14830 0.10020 -0.51700
C 	C 	0.50000 0.98520 0.32440 -0.14500
C 	C 	0.50000 0.96590 0.27760 0.04100
H 	H 	0.50000 0.93920 0.27890 0.02400
C 	C 	0.50000 0.03810 0.16770 0.32200
C 	C 	0.50000 0.02350 0.31740 0.03200
H 	H 	0.50000 0.03910 0.34760 0.02500
C 	C 	0.50000 0.04090 0.26810 -0.04600
H 	H 	0.50000 0.06760 0.26690 0.06700
O 	O 	0.50000 0.15600 0.01670 -0.35200
C 	C 	0.50000 0.21100 0.07610 -0.09100
C 	C 	0.50000 0.98330 0.22780 -0.03800
H 	H 	0.50000 0.96780 0.19750 0.05900
C 	C 	0.50000 0.23020 0.02780 -0.06000
H 	H 	0.50000 0.21660 0.99580 0.07400
C 	C 	0.50000 0.22960 0.12470 -0.01500
H 	H 	0.50000 0.21590 0.15660 0.04800
C 	C 	0.50000 0.16830 0.06550 0.42100
Zn	Zn	0.00000 0.09457 0.94476 1.14200
Zn	Zn	0.00000 0.90856 0.59162 1.20000
O 	O 	0.00000 0.98260 0.62790 -0.34400
O 	O 	0.00000 0.06980 0.87600 -0.58500
O 	O 	0.00000 0.01410 0.91560 -0.56000
C 	C 	-0.00000 0.97820 0.72160 0.04600
O 	O 	-0.00000 0.92550 0.66650 -0.45600
C 	C 	0.00000 0.03380 0.87590 0.51400
O 	O 	-0.00000 0.85170 0.60020 -0.54200
C 	C 	0.00000 0.01480 0.82440 -0.28400
C 	C 	0.00000 0.03410 0.77760 0.14300
H 	H 	0.00000 0.06080 0.77890 -0.02900
C 	C 	-0.00000 0.96190 0.66770 0.27400
C 	C 	0.00000 0.97650 0.81740 0.16200
H 	H 	0.00000 0.96090 0.84760 -0.03500
C 	C 	-0.00000 0.95910 0.76810 -0.17400
H 	H 	-0.00000 0.93240 0.76690 0.09000
O 	O 	0.00000 0.84400 0.51670 -0.37400
C 	C 	0.00000 0.78900 0.57610 -0.11600
C 	C 	-0.00000 0.01670 0.72780 -0.18300
H 	H 	0.00000 0.03220 0.69750 0.08300
C 	C 	-0.00000 0.76980 0.52780 -0.03000
H 	H 	-0.00000 0.78340 0.49580 0.02800
C 	C 	-0.00000 0.77040 0.62470 -0.01600
H 	H 	0.00000 0.78410 0.65660 0.03200
C 	C 	-0.00000 0.83170 0.56550 0.42900
Zn	Zn	0.50000 0.59457 0.44476 1.15900
Zn	Zn	0.50000 0.40856 0.09162 1.21400
O 	O 	0.50000 0.48260 0.12790 -0.32300
O 	O 	0.50000 0.56980 0.37600 -0.55500
O 	O 	0.50000 0.51410 0.41560 -0.52500
C 	C 	0.50000 0.47820 0.22160 0.00700
O 	O 	0.50000 0.42550 0.16650 -0.43600
C 	C 	0.50000 0.53380 0.37590 0.49400
O 	O 	0.50000 0.35170 0.10020 -0.51700
C 	C 	0.50000 0.51480 0.32440 -0.20600
C 	C 	0.50000 0.53410 0.27760 0.09800
H 	H 	0.50000 0.56080 0.27890 0.00500
C 	C 	0.50000 0.46190 0.16770 0.30000
C 	C 	0.50000 0.47650 0.31740 0.10300
H 	H 	0.50000 0.46090 0.34760 0.00300
C 	C 	0.50000 0.45910 0.26810 -0.10600
H 	H 	0.50000 0.43240 0.26690 0.08700
O 	O 	0.50000 0.34400 0.01670 -0.35200
C 	C 	0.50000 0.28900 0.07610 -0.09100
C 	C 	0.50000 0.51670 0.22780 -0.10600
H 	H 	0.50000 0.53220 0.19750 0.07900
C 	C 	0.50000 0.26980 0.02780 -0.06000
H 	H 	0.50000 0.28340 0.99580 0.07400
C 	C 	0.50000 0.27040 0.12470 -0.01500
H 	H 	0.50000 0.28410 0.15660 0.04800
C 	C 	0.50000 0.33170 0.06550 0.42100
Zn	Zn	-0.00000 0.00000 -0.00000 1.16600
Zn	Zn	0.50000 0.50000 0.50000 1.19600
Zn	Zn	-0.00000 0.50000 -0.00000 1.16900
Zn	Zn	0.50000 0.00000 0.50000 1.19200
