data_crystal

_cell_length_a 9.12550
_cell_length_b 11.54200
_cell_length_c 23.55600
_cell_angle_alpha 90.00000
_cell_angle_beta  97.81000
_cell_angle_gamma 90.00000

_symmetry_space_group_name_	'P 1'
_symmetry_space_group_name_H-M	'P 1'

loop_
_symmetry_equiv_pos_as_xyz
  x,y,z

loop_
_atom_site_label
_atom_site_type_symbol
_atom_site_fract_x
_atom_site_fract_y
_atom_site_fract_z
_atom_site_charge
Pb	Pb	0.40257 0.74855 0.15831 1.17500
O 	O 	0.90520 0.43570 0.11750 -0.24200
O 	O 	0.05460 0.93250 0.18100 -0.29100
O 	O 	0.52090 0.19500 0.92790 -0.43200
O 	O 	0.20100 0.86750 0.12030 -0.41700
O 	O 	0.30820 0.24310 0.87790 -0.34400
O 	O 	0.77240 0.54930 0.05480 -0.24400
O 	O 	0.75970 0.24140 0.07460 -0.21700
O 	O 	0.15980 0.18280 0.96530 -0.17000
C 	C 	0.05700 0.03330 0.09450 0.05500
C 	C 	0.09170 0.14910 0.01290 0.24100
C 	C 	0.71850 0.34840 0.04660 -0.12400
H 	H 	0.61390 0.36180 0.04750 0.07200
H 	H 	0.73400 0.34280 0.00670 0.06500
C 	C 	0.93450 0.09770 0.10210 -0.20400
H 	H 	0.88190 0.08120 0.13230 0.11100
C 	C 	0.80570 0.45130 0.07400 0.28700
C 	C 	0.30950 0.14250 0.96750 -0.18300
H 	H 	0.30990 0.05910 0.96250 0.09500
H 	H 	0.36440 0.16040 0.00470 0.09600
C 	C 	0.89020 0.18660 0.06480 0.25200
C 	C 	0.96720 0.21430 0.01970 -0.27700
H 	H 	0.93640 0.27480 0.99480 0.14300
C 	C 	0.13560 0.05740 0.04780 -0.20800
H 	H 	0.21540 0.01160 0.04110 0.11400
C 	C 	0.10970 0.93800 0.13610 0.29600
C 	C 	0.38240 0.19930 0.92140 0.35400
Pb	Pb	0.59743 0.25145 0.84169 1.17400
O 	O 	0.09480 0.56430 0.88250 -0.24300
O 	O 	0.94540 0.06750 0.81900 -0.29200
O 	O 	0.47910 0.80500 0.07210 -0.43300
O 	O 	0.79900 0.13250 0.87970 -0.41700
O 	O 	0.69180 0.75690 0.12210 -0.34400
O 	O 	0.22760 0.45070 0.94520 -0.24400
O 	O 	0.24030 0.75860 0.92540 -0.21700
O 	O 	0.84020 0.81720 0.03470 -0.17000
C 	C 	0.94300 0.96670 0.90550 0.05500
C 	C 	0.90830 0.85090 0.98710 0.24100
C 	C 	0.28150 0.65160 0.95340 -0.12400
H 	H 	0.38610 0.63820 0.95250 0.07200
H 	H 	0.26600 0.65720 0.99330 0.06500
C 	C 	0.06550 0.90230 0.89790 -0.20400
H 	H 	0.11810 0.91880 0.86770 0.11100
C 	C 	0.19430 0.54870 0.92600 0.28700
C 	C 	0.69050 0.85750 0.03250 -0.18300
H 	H 	0.69010 0.94090 0.03750 0.09500
H 	H 	0.63560 0.83960 0.99530 0.09600
C 	C 	0.10980 0.81340 0.93520 0.25200
C 	C 	0.03280 0.78570 0.98030 -0.27700
H 	H 	0.06360 0.72520 0.00520 0.14300
C 	C 	0.86440 0.94260 0.95220 -0.20800
H 	H 	0.78460 0.98840 0.95890 0.11400
C 	C 	0.89030 0.06200 0.86390 0.29600
C 	C 	0.61760 0.80070 0.07860 0.35400
Pb	Pb	0.59743 0.24855 0.34169 1.17400
O 	O 	0.09480 0.93570 0.38250 -0.24300
O 	O 	0.94540 0.43250 0.31900 -0.29100
O 	O 	0.47910 0.69500 0.57210 -0.43300
O 	O 	0.79900 0.36750 0.37970 -0.41700
O 	O 	0.69180 0.74310 0.62210 -0.34400
O 	O 	0.22760 0.04930 0.44520 -0.24500
O 	O 	0.24030 0.74140 0.42540 -0.21800
O 	O 	0.84020 0.68280 0.53470 -0.17300
C 	C 	0.94300 0.53330 0.40550 0.06100
C 	C 	0.90830 0.64910 0.48710 0.24800
C 	C 	0.28150 0.84840 0.45340 -0.12300
H 	H 	0.38610 0.86180 0.45250 0.07200
H 	H 	0.26600 0.84280 0.49330 0.06500
C 	C 	0.06550 0.59770 0.39790 -0.21100
H 	H 	0.11810 0.58120 0.36770 0.11300
C 	C 	0.19430 0.95130 0.42600 0.28800
C 	C 	0.69050 0.64250 0.53250 -0.18400
H 	H 	0.69010 0.55910 0.53750 0.09500
H 	H 	0.63560 0.66040 0.49530 0.09700
C 	C 	0.10980 0.68660 0.43520 0.25700
C 	C 	0.03280 0.71430 0.48030 -0.28600
H 	H 	0.06360 0.77480 0.50520 0.14700
C 	C 	0.86440 0.55740 0.45220 -0.21400
H 	H 	0.78460 0.51160 0.45890 0.11700
C 	C 	0.89030 0.43800 0.36390 0.29300
C 	C 	0.61760 0.69930 0.57860 0.35400
Pb	Pb	0.40257 0.75145 0.65831 1.17400
O 	O 	0.90520 0.06430 0.61750 -0.24300
O 	O 	0.05460 0.56750 0.68100 -0.29100
O 	O 	0.52090 0.30500 0.42790 -0.43300
O 	O 	0.20100 0.63250 0.62030 -0.41700
O 	O 	0.30820 0.25690 0.37790 -0.34400
O 	O 	0.77240 0.95070 0.55480 -0.24500
O 	O 	0.75970 0.25860 0.57460 -0.21800
O 	O 	0.15980 0.31720 0.46530 -0.17300
C 	C 	0.05700 0.46670 0.59450 0.06100
C 	C 	0.09170 0.35090 0.51290 0.24800
C 	C 	0.71850 0.15160 0.54660 -0.12300
H 	H 	0.61390 0.13820 0.54750 0.07200
H 	H 	0.73400 0.15720 0.50670 0.06500
C 	C 	0.93450 0.40230 0.60210 -0.21100
H 	H 	0.88190 0.41880 0.63230 0.11300
C 	C 	0.80570 0.04870 0.57400 0.28800
C 	C 	0.30950 0.35750 0.46750 -0.18400
H 	H 	0.30990 0.44090 0.46250 0.09500
H 	H 	0.36440 0.33960 0.50470 0.09700
C 	C 	0.89020 0.31340 0.56480 0.25700
C 	C 	0.96720 0.28570 0.51970 -0.28600
H 	H 	0.93640 0.22520 0.49480 0.14700
C 	C 	0.13560 0.44260 0.54780 -0.21400
H 	H 	0.21540 0.48840 0.54110 0.11700
C 	C 	0.10970 0.56200 0.63610 0.29300
C 	C 	0.38240 0.30070 0.42140 0.35400
