data_crystal

_cell_length_a 5.72660
_cell_length_b 9.94120
_cell_length_c 16.47400
_cell_angle_alpha 90.00000
_cell_angle_beta  90.00000
_cell_angle_gamma 94.29400

_symmetry_space_group_name_	'P 1'
_symmetry_space_group_name_H-M	'P 1'

loop_
_symmetry_equiv_pos_as_xyz
  x,y,z

loop_
_atom_site_label
_atom_site_type_symbol
_atom_site_fract_x
_atom_site_fract_y
_atom_site_fract_z
_atom_site_charge
Cu	Cu	0.24641 0.51161 0.56730 0.83000
Cu	Cu	0.75359 0.98839 0.06730 0.82800
Cu	Cu	0.75359 0.48839 0.43270 0.83000
Cu	Cu	0.24641 0.01161 0.93270 0.82800
H 	H 	0.56500 0.30300 0.59000 -0.05900
H 	H 	0.74200 0.18500 0.68800 0.10200
H 	H 	0.30700 0.32400 0.84700 0.07800
H 	H 	0.13100 0.43700 0.74200 -0.01500
H 	H 	0.43500 0.19700 0.09000 -0.05900
H 	H 	0.25800 0.31500 0.18800 0.10100
H 	H 	0.69300 0.17600 0.34700 0.07900
H 	H 	0.86900 0.06300 0.24200 -0.01300
H 	H 	0.43500 0.69700 0.41000 -0.05900
H 	H 	0.25800 0.81500 0.31200 0.10200
H 	H 	0.69300 0.67600 0.15300 0.07800
H 	H 	0.86900 0.56300 0.25800 -0.01500
H 	H 	0.56500 0.80300 0.91000 -0.05900
H 	H 	0.74200 0.68500 0.81200 0.10100
H 	H 	0.30700 0.82400 0.65300 0.07900
H 	H 	0.13100 0.93700 0.75800 -0.01300
C 	C 	0.51560 0.30190 0.64250 0.11500
C 	C 	0.62510 0.23220 0.70200 -0.19300
C 	C 	0.54350 0.23720 0.78100 0.07200
C 	C 	0.35740 0.31250 0.79620 -0.17200
C 	C 	0.25860 0.38030 0.73350 0.08900
C 	C 	0.66540 0.16740 0.84540 0.07000
C 	C 	0.48440 0.19810 0.14250 0.11500
C 	C 	0.37490 0.26780 0.20200 -0.19300
C 	C 	0.45650 0.26280 0.28100 0.07200
C 	C 	0.64260 0.18750 0.29620 -0.17100
C 	C 	0.74140 0.11970 0.23350 0.08900
C 	C 	0.33460 0.33260 0.34540 0.07000
C 	C 	0.48440 0.69810 0.35750 0.11500
C 	C 	0.37490 0.76780 0.29800 -0.19300
C 	C 	0.45650 0.76280 0.21900 0.07200
C 	C 	0.64260 0.68750 0.20380 -0.17200
C 	C 	0.74140 0.61970 0.26650 0.08900
C 	C 	0.33460 0.83260 0.15460 0.07000
C 	C 	0.51560 0.80190 0.85750 0.11500
C 	C 	0.62510 0.73220 0.79800 -0.19300
C 	C 	0.54350 0.73720 0.71900 0.07200
C 	C 	0.35740 0.81250 0.70380 -0.17100
C 	C 	0.25860 0.88030 0.76650 0.08900
C 	C 	0.66540 0.66740 0.65460 0.07000
N 	N 	0.33520 0.37620 0.65650 -0.24600
N 	N 	0.57350 0.12510 0.91665 -0.19400
N 	N 	0.75170 0.07130 0.95581 -0.19200
N 	N 	0.93950 0.08290 0.90830 -0.18100
N 	N 	0.88870 0.14110 0.83830 -0.10300
N 	N 	0.66480 0.12380 0.15650 -0.24600
N 	N 	0.42650 0.37490 0.41665 -0.19400
N 	N 	0.24830 0.42870 0.45581 -0.19300
N 	N 	0.06050 0.41710 0.40830 -0.18200
N 	N 	0.11130 0.35890 0.33830 -0.10400
N 	N 	0.66480 0.62380 0.34350 -0.24600
N 	N 	0.42650 0.87490 0.08335 -0.19400
N 	N 	0.24830 0.92870 0.04419 -0.19200
N 	N 	0.06050 0.91710 0.09170 -0.18100
N 	N 	0.11130 0.85890 0.16170 -0.10300
N 	N 	0.33520 0.87620 0.84350 -0.24600
N 	N 	0.57350 0.62510 0.58335 -0.19400
N 	N 	0.75170 0.57130 0.54419 -0.19300
N 	N 	0.93950 0.58290 0.59170 -0.18200
N 	N 	0.88870 0.64110 0.66170 -0.10400
