data_crystal

_cell_length_a 8.69310
_cell_length_b 14.43940
_cell_length_c 12.64920
_cell_angle_alpha 90.00000
_cell_angle_beta  96.41800
_cell_angle_gamma 90.00000

_symmetry_space_group_name_	'P 1'
_symmetry_space_group_name_H-M	'P 1'

loop_
_symmetry_equiv_pos_as_xyz
  x,y,z

loop_
_atom_site_label
_atom_site_type_symbol
_atom_site_fract_x
_atom_site_fract_y
_atom_site_fract_z
_atom_site_charge
Zn	Zn	0.14035 0.37305 0.95441 1.24900
Zn	Zn	0.61942 0.48990 0.64352 1.24300
P 	P 	0.88563 0.51266 0.84665 0.58200
P 	P 	0.10577 0.15091 0.95339 0.57000
P 	P 	0.37419 0.46126 0.80659 0.58500
O 	O 	0.80850 0.51334 0.73352 -0.41600
O 	O 	0.19060 0.08430 0.03184 -0.44400
O 	O 	0.46260 0.43170 0.71670 -0.42600
O 	O 	0.94380 0.11301 0.91492 -0.42300
O 	O 	0.94840 0.41763 0.87677 -0.42200
O 	O 	0.77750 0.54981 0.92432 -0.39500
O 	O 	0.09460 0.24755 0.99720 -0.40100
O 	O 	0.29270 0.38070 0.85030 -0.38800
O 	O 	0.02360 0.58382 0.85501 -0.50500
H 	H 	0.08630 0.56820 0.81450 0.33600
O 	O 	0.20080 0.16081 0.85532 -0.45300
H 	H 	0.21090 0.10970 0.82860 0.31000
O 	O 	0.23260 0.51890 0.74630 -0.16200
O 	O 	0.46230 0.53450 0.88220 -0.13500
O 	O 	0.29340 0.54660 0.80070 -0.19000
O 	O 	0.50920 0.45830 0.90690 -0.11500
Zn	Zn	0.35965 0.87305 0.54559 1.24900
Zn	Zn	0.88058 0.98990 0.85648 1.24000
P 	P 	0.61437 0.01266 0.65335 0.58300
P 	P 	0.39423 0.65091 0.54661 0.57400
P 	P 	0.12581 0.96126 0.69341 0.59000
O 	O 	0.69150 0.01334 0.76648 -0.41300
O 	O 	0.30940 0.58430 0.46816 -0.44200
O 	O 	0.03740 0.93170 0.78330 -0.42600
O 	O 	0.55620 0.61301 0.58508 -0.43000
O 	O 	0.55160 0.91763 0.62323 -0.42500
O 	O 	0.72250 0.04981 0.57568 -0.39300
O 	O 	0.40540 0.74755 0.50280 -0.40000
O 	O 	0.20730 0.88070 0.64970 -0.38700
O 	O 	0.47640 0.08382 0.64499 -0.50400
H 	H 	0.41370 0.06820 0.68550 0.33600
O 	O 	0.29920 0.66081 0.64468 -0.45300
H 	H 	0.28910 0.60970 0.67140 0.31000
O 	O 	0.26740 0.01890 0.75370 -0.16200
O 	O 	0.03770 0.03450 0.61780 -0.13600
O 	O 	0.20660 0.04660 0.69930 -0.19200
O 	O 	0.99080 0.95830 0.59310 -0.11800
Zn	Zn	0.85965 0.62695 0.04559 1.24800
Zn	Zn	0.38058 0.51010 0.35648 1.24200
P 	P 	0.11437 0.48734 0.15335 0.58200
P 	P 	0.89423 0.84909 0.04661 0.57000
P 	P 	0.62581 0.53874 0.19341 0.58500
O 	O 	0.19150 0.48666 0.26648 -0.41600
O 	O 	0.80940 0.91570 0.96816 -0.44400
O 	O 	0.53740 0.56830 0.28330 -0.42600
O 	O 	0.05620 0.88699 0.08508 -0.42300
O 	O 	0.05160 0.58237 0.12323 -0.42200
O 	O 	0.22250 0.45019 0.07568 -0.39500
O 	O 	0.90540 0.75245 0.00280 -0.40100
O 	O 	0.70730 0.61930 0.14970 -0.38800
O 	O 	0.97640 0.41618 0.14499 -0.50500
H 	H 	0.91370 0.43180 0.18550 0.33600
O 	O 	0.79920 0.83919 0.14468 -0.45300
H 	H 	0.78910 0.89030 0.17140 0.31000
O 	O 	0.76740 0.48110 0.25370 -0.16200
O 	O 	0.53770 0.46550 0.11780 -0.13500
O 	O 	0.70660 0.45340 0.19930 -0.19000
O 	O 	0.49080 0.54170 0.09310 -0.11500
Zn	Zn	0.64035 0.12695 0.45441 1.24900
Zn	Zn	0.11942 0.01010 0.14352 1.24000
P 	P 	0.38563 0.98734 0.34665 0.58300
P 	P 	0.60577 0.34909 0.45339 0.57400
P 	P 	0.87419 0.03874 0.30659 0.59000
O 	O 	0.30850 0.98666 0.23352 -0.41300
O 	O 	0.69060 0.41570 0.53184 -0.44200
O 	O 	0.96260 0.06830 0.21670 -0.42600
O 	O 	0.44380 0.38699 0.41492 -0.43000
O 	O 	0.44840 0.08237 0.37677 -0.42500
O 	O 	0.27750 0.95019 0.42432 -0.39300
O 	O 	0.59460 0.25245 0.49720 -0.40000
O 	O 	0.79270 0.11930 0.35030 -0.38700
O 	O 	0.52360 0.91618 0.35501 -0.50400
H 	H 	0.58630 0.93180 0.31450 0.33600
O 	O 	0.70080 0.33919 0.35532 -0.45300
H 	H 	0.71090 0.39030 0.32860 0.31000
O 	O 	0.73260 0.98110 0.24630 -0.16200
O 	O 	0.96230 0.96550 0.38220 -0.13600
O 	O 	0.79340 0.95340 0.30070 -0.19200
O 	O 	0.00920 0.04170 0.40690 -0.11800
