data_crystal

_cell_length_a 8.44400
_cell_length_b 13.50600
_cell_length_c 13.58000
_cell_angle_alpha 103.83000
_cell_angle_beta  90.00000
_cell_angle_gamma 90.00000

_symmetry_space_group_name_	'P 1'
_symmetry_space_group_name_H-M	'P 1'

loop_
_symmetry_equiv_pos_as_xyz
  x,y,z

loop_
_atom_site_label
_atom_site_type_symbol
_atom_site_fract_x
_atom_site_fract_y
_atom_site_fract_z
_atom_site_charge
Cu	Cu	0.63729 0.78128 0.15652 0.82600
Cu	Cu	0.13729 0.71872 0.34348 0.82600
Cu	Cu	0.67059 0.64925 0.77041 0.82600
Cu	Cu	0.32941 0.35075 0.22959 0.82600
Cu	Cu	0.17059 0.85075 0.72959 0.82600
Cu	Cu	0.86271 0.28128 0.65652 0.82500
Cu	Cu	0.82941 0.14925 0.27041 0.82600
Cu	Cu	0.36271 0.21872 0.84348 0.82500
C 	C 	0.70490 0.93300 0.17140 -0.17000
C 	C 	0.14910 0.79130 0.48690 -0.23600
C 	C 	0.53460 0.28590 0.24700 -0.22200
C 	C 	0.56440 0.21920 0.76750 -0.22000
C 	C 	0.81900 0.72870 0.22580 -0.19800
C 	C 	0.64910 0.70870 0.01310 -0.23600
C 	C 	0.03460 0.21410 0.25300 -0.22000
C 	C 	0.96540 0.78590 0.74700 -0.22000
C 	C 	0.64890 0.24400 0.25430 -0.18900
C 	C 	0.75590 0.01340 0.20550 -0.24800
C 	C 	0.14890 0.25600 0.24570 -0.18900
C 	C 	0.29510 0.06700 0.82860 -0.17000
C 	C 	0.68100 0.22870 0.72580 -0.19900
C 	C 	0.35090 0.29130 0.98690 -0.23600
C 	C 	0.43560 0.78080 0.23250 -0.22000
C 	C 	0.24410 0.98660 0.79450 -0.24800
C 	C 	0.85110 0.74400 0.75430 -0.18900
C 	C 	0.46540 0.71410 0.75300 -0.22200
C 	C 	0.85090 0.20870 0.51310 -0.23600
C 	C 	0.66340 0.67100 0.92860 -0.16900
C 	C 	0.79510 0.43300 0.67140 -0.17200
C 	C 	0.93560 0.71920 0.26750 -0.21900
C 	C 	0.18100 0.27130 0.77420 -0.19800
C 	C 	0.74410 0.51340 0.70550 -0.24600
C 	C 	0.83660 0.17100 0.42860 -0.17000
C 	C 	0.20490 0.56700 0.32860 -0.17200
C 	C 	0.16340 0.82900 0.57140 -0.17000
C 	C 	0.31900 0.77130 0.27420 -0.19900
C 	C 	0.35110 0.75600 0.74570 -0.18900
C 	C 	0.25590 0.48660 0.29450 -0.24600
C 	C 	0.33660 0.32900 0.07140 -0.16900
C 	C 	0.06440 0.28080 0.73250 -0.21900
