data_crystal

_cell_length_a 13.42080
_cell_length_b 13.42080
_cell_length_c 22.80270
_cell_angle_alpha 101.93900
_cell_angle_beta  101.93900
_cell_angle_gamma 107.28100

_symmetry_space_group_name_	'P 1'
_symmetry_space_group_name_H-M	'P 1'

loop_
_symmetry_equiv_pos_as_xyz
  x,y,z

loop_
_atom_site_label
_atom_site_type_symbol
_atom_site_fract_x
_atom_site_fract_y
_atom_site_fract_z
_atom_site_charge
Cu	Cu	0.53225 0.30395 0.90356 0.92200
Cu	Cu	0.37131 0.09961 0.90356 0.92200
Cu	Cu	0.62869 0.90039 0.09644 0.92200
Cu	Cu	0.90039 0.62869 0.59644 0.92200
Cu	Cu	0.46775 0.69605 0.09644 0.92200
Cu	Cu	0.62500 0.37500 0.25000 0.82400
Cu	Cu	0.37500 0.62500 0.75000 0.82400
Cu	Cu	0.69605 0.46775 0.59644 0.92200
Cu	Cu	0.09961 0.37131 0.40356 0.92200
Cu	Cu	0.30395 0.53225 0.40356 0.92200
H 	H 	0.19200 0.40680 0.91640 -0.04000
H 	H 	0.13970 0.05210 0.83700 0.00100
H 	H 	0.43780 0.14760 0.68880 -0.00100
H 	H 	0.43540 0.07000 0.33800 0.12000
H 	H 	0.06870 0.63430 0.55320 0.03700
H 	H 	0.09740 0.23200 0.66200 0.11900
H 	H 	0.62170 0.49570 0.06200 0.17400
H 	H 	0.23400 0.18940 0.25780 0.09700
H 	H 	0.50430 0.37830 0.43800 0.17400
H 	H 	0.97500 0.91520 0.79600 0.08900
H 	H 	0.02380 0.56840 0.25780 0.09600
H 	H 	0.93000 0.56460 0.16200 0.12000
H 	H 	0.05210 0.13970 0.33700 0.00200
H 	H 	0.06630 0.44030 0.56200 0.17200
H 	H 	0.76880 0.25920 0.04740 0.10800
H 	H 	0.10260 0.72400 0.87220 0.09200
H 	H 	0.27600 0.89740 0.62780 0.09100
H 	H 	0.21670 0.54670 0.62160 -0.06100
H 	H 	0.14760 0.43780 0.18880 -0.00100
H 	H 	0.74080 0.23120 0.45260 0.10800
H 	H 	0.59510 0.42510 0.37840 -0.06200
H 	H 	0.45330 0.78330 0.87840 -0.06200
H 	H 	0.54670 0.21670 0.12160 -0.06200
H 	H 	0.23200 0.09740 0.16200 0.12000
H 	H 	0.44030 0.06630 0.06200 0.17400
H 	H 	0.76960 0.64820 0.87220 0.09100
H 	H 	0.86030 0.94790 0.16300 0.00100
H 	H 	0.80800 0.59320 0.08360 -0.04000
H 	H 	0.57490 0.40490 0.12160 -0.06200
H 	H 	0.94790 0.86030 0.66300 0.00200
H 	H 	0.82100 0.38080 0.79600 0.09000
H 	H 	0.69730 0.28490 0.83700 0.00400
H 	H 	0.07000 0.43540 0.83800 0.12000
H 	H 	0.91520 0.97500 0.29600 0.08900
H 	H 	0.99040 0.27560 0.58360 -0.03700
H 	H 	0.37830 0.50430 0.93800 0.17400
H 	H 	0.40490 0.57490 0.62160 -0.06200
H 	H 	0.72400 0.10260 0.37220 0.09100
H 	H 	0.42510 0.59510 0.87840 -0.06200
H 	H 	0.85550 0.38610 0.25380 0.04300
H 	H 	0.60170 0.63230 0.74620 0.04300
H 	H 	0.04120 0.25100 0.18880 -0.00300
H 	H 	0.58110 0.51550 0.94680 0.03700
H 	H 	0.08480 0.02500 0.70400 0.08900
H 	H 	0.28820 0.27860 0.54740 0.10800
H 	H 	0.51550 0.58110 0.44680 0.03700
H 	H 	0.63230 0.60170 0.24620 0.04300
H 	H 	0.61920 0.17900 0.70400 0.09000
H 	H 	0.81060 0.76600 0.24220 0.09700
H 	H 	0.97620 0.43160 0.74220 0.09600
H 	H 	0.93130 0.36570 0.44680 0.03700
H 	H 	0.63430 0.06870 0.05320 0.03700
H 	H 	0.27860 0.28820 0.04740 0.10800
H 	H 	0.76800 0.90260 0.83800 0.12000
H 	H 	0.25100 0.04120 0.68880 -0.00300
H 	H 	0.23120 0.74080 0.95260 0.10800
H 	H 	0.85240 0.56220 0.81120 -0.00100
H 	H 	0.64820 0.76960 0.37220 0.09100
H 	H 	0.27560 0.99040 0.08360 -0.03900
H 	H 	0.36770 0.39830 0.75380 0.04300
H 	H 	0.49570 0.62170 0.56200 0.17400
H 	H 	0.36570 0.93130 0.94680 0.03700
H 	H 	0.02500 0.08480 0.20400 0.08900
H 	H 	0.39830 0.36770 0.25380 0.04300
H 	H 	0.71510 0.30270 0.66300 0.00400
H 	H 	0.78330 0.45330 0.37840 -0.06100
H 	H 	0.74900 0.95880 0.31120 -0.00300
H 	H 	0.55970 0.93370 0.93800 0.17400
H 	H 	0.89740 0.27600 0.12780 0.09200
H 	H 	0.72140 0.71180 0.95260 0.10800
H 	H 	0.72440 0.00960 0.91640 -0.03900
H 	H 	0.93370 0.55970 0.43800 0.17200
H 	H 	0.41890 0.48450 0.05320 0.03700
H 	H 	0.17900 0.61920 0.20400 0.09000
H 	H 	0.95880 0.74900 0.81120 -0.00300
H 	H 	0.61390 0.14450 0.24620 0.04300
H 	H 	0.35180 0.23040 0.62780 0.09100
H 	H 	0.18940 0.23400 0.75780 0.09700
H 	H 	0.56460 0.93000 0.66200 0.12000
H 	H 	0.30270 0.71510 0.16300 0.00400
H 	H 	0.43160 0.97620 0.24220 0.09600
H 	H 	0.38610 0.85550 0.75380 0.04300
H 	H 	0.71180 0.72140 0.45260 0.10800
H 	H 	0.76600 0.81060 0.74220 0.09700
H 	H 	0.25920 0.76880 0.54740 0.10800
H 	H 	0.59320 0.80800 0.58360 -0.04000
H 	H 	0.38080 0.82100 0.29600 0.09000
H 	H 	0.90260 0.76800 0.33800 0.11900
H 	H 	0.14450 0.61390 0.74620 0.04300
H 	H 	0.56220 0.85240 0.31120 -0.00100
H 	H 	0.23040 0.35180 0.12780 0.09100
H 	H 	0.28490 0.69730 0.33700 0.00400
H 	H 	0.40680 0.19200 0.41640 -0.04000
H 	H 	0.48450 0.41890 0.55320 0.03700
H 	H 	0.56840 0.02380 0.75780 0.09600
H 	H 	0.00960 0.72440 0.41640 -0.03700
C 	C 	0.68739 0.51439 0.89418 0.10500
C 	C 	0.87979 0.20679 0.39418 0.10600
C 	C 	0.28710 0.64050 0.15500 0.10600
C 	C 	0.97540 0.19300 0.17040 0.10700
C 	C 	0.47960 0.19040 0.12920 0.24800
C 	C 	0.56229 0.63829 0.43758 -0.02600
C 	C 	0.89060 0.20820 0.13400 -0.17200
C 	C 	0.70530 0.64650 0.25960 -0.06100
C 	C 	0.52040 0.80960 0.87080 0.24800
C 	C 	0.19500 0.47740 0.17040 0.10300
C 	C 	0.22010 0.37110 0.68760 0.15700
C 	C 	0.28218 0.37618 0.48616 0.37100
C 	C 	0.36171 0.43771 0.06242 -0.02600
C 	C 	0.62890 0.77990 0.81240 0.15800
C 	C 	0.26270 0.27710 0.76940 -0.17500
C 	C 	0.81650 0.46750 0.18760 0.15900
C 	C 	0.52260 0.80500 0.32960 0.10300
C 	C 	0.79321 0.12021 0.10582 0.10700
C 	C 	0.55430 0.11310 0.25960 -0.06200
C 	C 	0.11310 0.55430 0.75960 -0.06200
C 	C 	0.70130 0.87690 0.84600 -0.26200
C 	C 	0.67620 0.94000 0.89340 0.21600
C 	C 	0.98550 0.13210 0.34500 0.10900
C 	C 	0.70071 0.12471 0.06242 -0.02700
C 	C 	0.72290 0.73730 0.73060 -0.17500
C 	C 	0.60998 0.20398 0.98616 0.37000
C 	C 	0.70330 0.20070 0.03540 -0.18100
C 	C 	0.56120 0.35040 0.37080 0.24900
C 	C 	0.12021 0.79321 0.60582 0.10600
C 	C 	0.88690 0.44570 0.24040 -0.06200
C 	C 	0.99230 0.50670 0.26940 -0.17400
C 	C 	0.37618 0.28218 0.98616 0.37100
C 	C 	0.19040 0.47960 0.62920 0.24600
C 	C 	0.58460 0.21440 0.68040 -0.17400
C 	C 	0.57890 0.89730 0.90540 -0.34700
C 	C 	0.10270 0.42110 0.59460 -0.34300
C 	C 	0.54660 0.78280 0.60660 0.21700
C 	C 	0.50810 0.32650 0.40540 -0.34800
C 	C 	0.00770 0.49330 0.73060 -0.17400
C 	C 	0.53250 0.18350 0.31240 0.15900
C 	C 	0.03400 0.90420 0.81960 -0.17400
C 	C 	0.14470 0.46910 0.84600 -0.26300
C 	C 	0.64960 0.43880 0.12920 0.24900
C 	C 	0.02460 0.80700 0.82960 0.10700
C 	C 	0.80960 0.52040 0.37080 0.24600
C 	C 	0.43880 0.64960 0.62920 0.24900
C 	C 	0.21440 0.58460 0.18040 -0.17400
C 	C 	0.79180 0.10940 0.36600 -0.17100
C 	C 	0.80700 0.02460 0.32960 0.10600
C 	C 	0.65924 0.74084 0.17988 0.39000
C 	C 	0.66790 0.66530 0.96460 -0.18200
C 	C 	0.77990 0.62890 0.31240 0.15700
C 	C 	0.96600 0.09580 0.18040 -0.17400
C 	C 	0.29670 0.79930 0.96460 -0.18100
C 	C 	0.48561 0.31261 0.60582 0.10500
C 	C 	0.87690 0.70130 0.34600 -0.26000
C 	C 	0.94000 0.67620 0.39340 0.21200
C 	C 	0.06096 0.47936 0.32012 0.39000
C 	C 	0.20679 0.87979 0.89418 0.10700
C 	C 	0.85530 0.53090 0.15400 -0.26300
C 	C 	0.73730 0.72290 0.23060 -0.17500
C 	C 	0.71290 0.35950 0.84500 0.10600
C 	C 	0.93904 0.52064 0.67988 0.39000
C 	C 	0.42580 0.24340 0.63400 -0.16900
C 	C 	0.12310 0.29870 0.65400 -0.26000
C 	C 	0.62382 0.71782 0.01384 0.37100
C 	C 	0.52064 0.93904 0.17988 0.39000
C 	C 	0.46910 0.14470 0.34600 -0.26300
C 	C 	0.21720 0.45340 0.89340 0.21700
C 	C 	0.47740 0.19500 0.67040 0.10300
C 	C 	0.31261 0.48561 0.10582 0.10500
C 	C 	0.46750 0.81650 0.68760 0.15900
C 	C 	0.49330 0.00770 0.23060 -0.17400
C 	C 	0.49190 0.67350 0.59460 -0.34800
C 	C 	0.63829 0.56229 0.93758 -0.02600
C 	C 	0.57420 0.75660 0.36600 -0.16900
C 	C 	0.18350 0.53250 0.81240 0.15900
C 	C 	0.01450 0.86790 0.65500 0.10900
C 	C 	0.67350 0.49190 0.09460 -0.34800
C 	C 	0.87529 0.29929 0.43758 -0.02600
C 	C 	0.35040 0.56120 0.87080 0.24900
C 	C 	0.12471 0.70071 0.56242 -0.02600
C 	C 	0.51439 0.68739 0.39418 0.10500
C 	C 	0.74084 0.65924 0.67988 0.39000
C 	C 	0.42110 0.10270 0.09460 -0.34700
C 	C 	0.09580 0.96600 0.68040 -0.17300
C 	C 	0.29870 0.12310 0.15400 -0.26200
C 	C 	0.79930 0.29670 0.46460 -0.18200
C 	C 	0.43771 0.36171 0.56242 -0.02600
C 	C 	0.20820 0.89060 0.63400 -0.17100
C 	C 	0.50670 0.99230 0.76940 -0.17400
C 	C 	0.78560 0.41540 0.81960 -0.17400
C 	C 	0.44570 0.88690 0.74040 -0.06200
C 	C 	0.90420 0.03400 0.31960 -0.17300
C 	C 	0.34076 0.25916 0.82012 0.39000
C 	C 	0.33470 0.33210 0.53540 -0.18200
C 	C 	0.35350 0.29470 0.24040 -0.06100
C 	C 	0.78280 0.54660 0.10660 0.21700
C 	C 	0.32380 0.06000 0.10660 0.21600
C 	C 	0.64050 0.28710 0.65500 0.10600
C 	C 	0.39002 0.79602 0.01384 0.37000
C 	C 	0.53090 0.85530 0.65400 -0.26300
C 	C 	0.64650 0.70530 0.75960 -0.06100
C 	C 	0.37110 0.22010 0.18760 0.15800
C 	C 	0.80500 0.52260 0.82960 0.10300
C 	C 	0.20070 0.70330 0.53540 -0.18200
C 	C 	0.20398 0.60998 0.48616 0.37100
C 	C 	0.66530 0.66790 0.46460 -0.18200
C 	C 	0.35950 0.71290 0.34500 0.10600
C 	C 	0.41540 0.78560 0.31960 -0.17400
C 	C 	0.45340 0.21720 0.39340 0.21700
C 	C 	0.29929 0.87529 0.93758 -0.02700
C 	C 	0.75660 0.57420 0.86600 -0.17000
C 	C 	0.89730 0.57890 0.40540 -0.34300
C 	C 	0.27710 0.26270 0.26940 -0.17500
C 	C 	0.79602 0.39002 0.51384 0.37100
C 	C 	0.10940 0.79180 0.86600 -0.17200
C 	C 	0.29470 0.35350 0.74040 -0.06100
C 	C 	0.25916 0.34076 0.32012 0.39000
C 	C 	0.06000 0.32380 0.60660 0.21200
C 	C 	0.32650 0.50810 0.90540 -0.34800
C 	C 	0.24340 0.42580 0.13400 -0.17000
C 	C 	0.13210 0.98550 0.84500 0.11100
C 	C 	0.47936 0.06096 0.82012 0.39000
C 	C 	0.33210 0.33470 0.03540 -0.18200
C 	C 	0.86790 0.01450 0.15500 0.11100
C 	C 	0.19300 0.97540 0.67040 0.10600
C 	C 	0.71782 0.62382 0.51384 0.37100
N 	N 	0.28840 0.58080 0.82280 -0.26200
N 	N 	0.59495 0.33775 0.61930 -0.20500
N 	N 	0.02435 0.78155 0.61930 -0.20500
N 	N 	0.40505 0.66225 0.38070 -0.20500
N 	N 	0.25800 0.46560 0.67720 -0.26100
N 	N 	0.53440 0.74200 0.82280 -0.26200
N 	N 	0.58080 0.28840 0.32280 -0.26200
N 	N 	0.78155 0.02435 0.11930 -0.20500
N 	N 	0.74200 0.53440 0.32280 -0.26100
N 	N 	0.33775 0.59495 0.11930 -0.20500
N 	N 	0.41920 0.71160 0.67720 -0.26200
N 	N 	0.21845 0.97565 0.88070 -0.20500
N 	N 	0.71160 0.41920 0.17720 -0.26200
N 	N 	0.66225 0.40505 0.88070 -0.20500
N 	N 	0.46560 0.25800 0.17720 -0.26200
N 	N 	0.97565 0.21845 0.38070 -0.20500
O 	O 	0.40702 0.01002 0.84184 -0.41700
O 	O 	0.33182 0.43482 0.34184 -0.41700
O 	O 	0.33187 0.18087 0.96634 -0.41700
O 	O 	0.43482 0.33182 0.84184 -0.41700
O 	O 	0.71453 0.36553 0.53366 -0.41700
O 	O 	0.65613 0.54633 0.52966 -0.39000
O 	O 	0.18087 0.33187 0.46634 -0.41700
O 	O 	0.56518 0.66818 0.15816 -0.41700
O 	O 	0.51667 0.12647 0.97034 -0.39000
O 	O 	0.66818 0.56518 0.65816 -0.41700
O 	O 	0.17661 0.30541 0.33582 -0.40000
O 	O 	0.15921 0.53041 0.33582 -0.40000
O 	O 	0.46959 0.84079 0.16418 -0.40000
O 	O 	0.53041 0.15921 0.83582 -0.40000
O 	O 	0.59298 0.98998 0.15816 -0.41700
O 	O 	0.01002 0.40702 0.34184 -0.41700
O 	O 	0.36553 0.71453 0.03366 -0.41700
O 	O 	0.81913 0.66813 0.53366 -0.41700
O 	O 	0.48333 0.87353 0.02966 -0.39000
O 	O 	0.54633 0.65613 0.02966 -0.39000
O 	O 	0.34387 0.45367 0.47034 -0.39000
O 	O 	0.30541 0.17661 0.83582 -0.40000
O 	O 	0.87353 0.48333 0.52966 -0.39000
O 	O 	0.63447 0.28547 0.96634 -0.41700
O 	O 	0.45367 0.34387 0.97034 -0.39000
O 	O 	0.28547 0.63447 0.46634 -0.41700
O 	O 	0.66813 0.81913 0.03366 -0.41700
O 	O 	0.84079 0.46959 0.66418 -0.40000
O 	O 	0.69459 0.82339 0.16418 -0.40000
O 	O 	0.98998 0.59298 0.65816 -0.41700
O 	O 	0.12647 0.51667 0.47034 -0.39000
O 	O 	0.82339 0.69459 0.66418 -0.40000
