data_crystal

_cell_length_a 20.50600
_cell_length_b 20.50600
_cell_length_c 20.50600
_cell_angle_alpha 90.00000
_cell_angle_beta  90.00000
_cell_angle_gamma 90.00000

_symmetry_space_group_name_	'P 1'
_symmetry_space_group_name_H-M	'P 1'

loop_
_symmetry_equiv_pos_as_xyz
  x,y,z

loop_
_atom_site_label
_atom_site_type_symbol
_atom_site_fract_x
_atom_site_fract_y
_atom_site_fract_z
_atom_site_charge
Pr	Pr	0.02032 0.74228 0.14371 1.97500
Pr	Pr	0.52032 0.75772 0.85629 1.97500
Pr	Pr	0.74228 0.35629 0.52032 1.97500
Pr	Pr	0.14371 0.02032 0.74228 1.97500
Pr	Pr	0.24228 0.14371 0.47968 1.97500
Pr	Pr	0.74228 0.14371 0.02032 1.97500
Pr	Pr	0.97968 0.25772 0.85629 1.97600
Pr	Pr	0.75772 0.64371 0.02032 1.97600
Pr	Pr	0.35629 0.97968 0.24228 1.97600
Pr	Pr	0.52032 0.74228 0.35629 1.97600
Pr	Pr	0.85629 0.97968 0.25772 1.97600
Pr	Pr	0.25772 0.64371 0.47968 1.97600
Pr	Pr	0.64371 0.02032 0.75772 1.97600
Pr	Pr	0.35629 0.52032 0.74228 1.97600
Pr	Pr	0.02032 0.75772 0.64371 1.97600
Pr	Pr	0.14371 0.47968 0.24228 1.97600
Pr	Pr	0.85629 0.52032 0.75772 1.97600
Pr	Pr	0.47968 0.25772 0.64371 1.97600
Pr	Pr	0.47968 0.24228 0.14371 1.97600
Pr	Pr	0.25772 0.85629 0.97968 1.97600
Pr	Pr	0.75772 0.85629 0.52032 1.97600
Pr	Pr	0.97968 0.24228 0.35629 1.97600
Pr	Pr	0.64371 0.47968 0.25772 1.97600
Pr	Pr	0.24228 0.35629 0.97968 1.97600
H 	H 	0.21670 0.05150 0.01150 0.02300
H 	H 	0.88840 0.03900 0.86520 -0.00200
H 	H 	0.55120 0.30800 0.39440 -0.01300
H 	H 	0.38840 0.46100 0.13480 -0.00400
H 	H 	0.94880 0.80800 0.39440 -0.01300
H 	H 	0.53900 0.63480 0.11160 -0.00400
H 	H 	0.94880 0.69200 0.89440 -0.01100
H 	H 	0.48850 0.78330 0.55150 0.02500
H 	H 	0.39440 0.94880 0.80800 -0.01300
H 	H 	0.89440 0.94880 0.69200 -0.01100
H 	H 	0.28330 0.55150 0.01150 0.02500
H 	H 	0.11160 0.53900 0.63480 -0.00400
H 	H 	0.44880 0.69200 0.60560 -0.01300
H 	H 	0.05120 0.19200 0.60560 -0.01300
H 	H 	0.44850 0.51150 0.21670 0.02500
H 	H 	0.05150 0.48850 0.71670 0.02500
H 	H 	0.96100 0.13480 0.11160 -0.00200
H 	H 	0.05150 0.01150 0.21670 0.02300
H 	H 	0.53900 0.86520 0.61160 -0.00400
H 	H 	0.69200 0.89440 0.94880 -0.01100
H 	H 	0.61160 0.96100 0.36520 -0.00400
H 	H 	0.71670 0.05150 0.48850 0.02500
H 	H 	0.48850 0.71670 0.05150 0.02500
H 	H 	0.05120 0.30800 0.10560 -0.01100
H 	H 	0.19200 0.60560 0.05120 -0.01300
H 	H 	0.13480 0.11160 0.96100 -0.00200
H 	H 	0.63480 0.38840 0.03900 -0.00400
H 	H 	0.51150 0.21670 0.44850 0.02500
H 	H 	0.60560 0.05120 0.19200 -0.01300
H 	H 	0.63480 0.11160 0.53900 -0.00400
H 	H 	0.86520 0.88840 0.03900 -0.00200
H 	H 	0.21670 0.44850 0.51150 0.02500
H 	H 	0.11160 0.96100 0.13480 -0.00200
H 	H 	0.03900 0.86520 0.88840 -0.00200
H 	H 	0.44850 0.98850 0.71670 0.02500
H 	H 	0.30800 0.10560 0.05120 -0.01100
H 	H 	0.88840 0.46100 0.36520 -0.00400
H 	H 	0.30800 0.39440 0.55120 -0.01300
H 	H 	0.44880 0.80800 0.10560 -0.01400
H 	H 	0.60560 0.44880 0.69200 -0.01300
H 	H 	0.10560 0.05120 0.30800 -0.01100
H 	H 	0.94850 0.98850 0.78330 0.02300
H 	H 	0.80800 0.10560 0.44880 -0.01400
H 	H 	0.13480 0.38840 0.46100 -0.00400
H 	H 	0.71670 0.44850 0.98850 0.02500
H 	H 	0.86520 0.61160 0.53900 -0.00400
H 	H 	0.98850 0.78330 0.94850 0.02300
H 	H 	0.36520 0.88840 0.46100 -0.00400
H 	H 	0.80800 0.39440 0.94880 -0.01300
H 	H 	0.78330 0.94850 0.98850 0.02300
H 	H 	0.69200 0.60560 0.44880 -0.01300
H 	H 	0.55150 0.01150 0.28330 0.02500
H 	H 	0.36520 0.61160 0.96100 -0.00400
H 	H 	0.51150 0.28330 0.94850 0.02500
H 	H 	0.55150 0.48850 0.78330 0.02500
H 	H 	0.46100 0.36520 0.88840 -0.00400
H 	H 	0.10560 0.44880 0.80800 -0.01400
H 	H 	0.89440 0.55120 0.19200 -0.01400
H 	H 	0.94850 0.51150 0.28330 0.02500
H 	H 	0.61160 0.53900 0.86520 -0.00400
H 	H 	0.19200 0.89440 0.55120 -0.01400
H 	H 	0.01150 0.21670 0.05150 0.02300
H 	H 	0.38840 0.03900 0.63480 -0.00400
H 	H 	0.46100 0.13480 0.38840 -0.00400
H 	H 	0.01150 0.28330 0.55150 0.02500
H 	H 	0.78330 0.55150 0.48850 0.02500
H 	H 	0.98850 0.71670 0.44850 0.02500
H 	H 	0.28330 0.94850 0.51150 0.02500
H 	H 	0.03900 0.63480 0.38840 -0.00400
H 	H 	0.96100 0.36520 0.61160 -0.00400
H 	H 	0.39440 0.55120 0.30800 -0.01300
H 	H 	0.55120 0.19200 0.89440 -0.01400
C 	C 	0.83345 0.26318 0.95008 0.37200
C 	C 	0.62880 0.24226 0.56015 0.37100
C 	C 	0.80429 0.97495 0.72238 -0.10600
C 	C 	0.63230 0.97750 0.32840 0.01400
C 	C 	0.72040 0.40350 0.99250 -0.11000
C 	C 	0.00750 0.27960 0.59650 -0.11000
C 	C 	0.77762 0.19571 0.47495 -0.11100
C 	C 	0.43985 0.37120 0.75774 0.37100
C 	C 	0.13230 0.52250 0.67160 0.01500
C 	C 	0.32167 0.69880 0.97238 -0.11100
C 	C 	0.26318 0.54992 0.33345 0.37200
C 	C 	0.22040 0.09650 0.00750 -0.10200
C 	C 	0.19571 0.02505 0.27762 -0.10600
C 	C 	0.02505 0.22238 0.69571 -0.11000
C 	C 	0.69571 0.47495 0.72238 -0.11100
C 	C 	0.47750 0.17160 0.36770 0.01500
C 	C 	0.22560 0.62860 0.03130 0.01600
C 	C 	0.73682 0.04992 0.16655 0.37200
C 	C 	0.99250 0.72040 0.40350 -0.11000
C 	C 	0.52250 0.82840 0.63230 0.01500
C 	C 	0.52505 0.27762 0.30429 -0.11100
C 	C 	0.27440 0.12860 0.03130 0.01100
C 	C 	0.77762 0.30429 0.97495 -0.11000
C 	C 	0.12860 0.46870 0.77440 0.01700
C 	C 	0.09650 0.49250 0.72040 -0.11200
C 	C 	0.67833 0.30120 0.02762 -0.11100
C 	C 	0.95008 0.66655 0.76318 0.37000
C 	C 	0.45008 0.66655 0.73682 0.37200
C 	C 	0.56015 0.62880 0.24226 0.37100
C 	C 	0.97495 0.77762 0.30429 -0.11000
C 	C 	0.46870 0.77440 0.12860 0.01700
C 	C 	0.24226 0.93985 0.12880 0.36900
C 	C 	0.50750 0.22040 0.40350 -0.11100
C 	C 	0.59650 0.00750 0.27960 -0.11000
C 	C 	0.32167 0.80120 0.47238 -0.11200
C 	C 	0.69571 0.02505 0.22238 -0.11000
C 	C 	0.52762 0.67833 0.19880 -0.11200
C 	C 	0.72238 0.69571 0.47495 -0.11100
C 	C 	0.37140 0.96870 0.77440 0.01600
C 	C 	0.27762 0.30429 0.52505 -0.11100
C 	C 	0.72560 0.62860 0.46870 0.01700
C 	C 	0.25774 0.06015 0.62880 0.37000
C 	C 	0.87140 0.96870 0.72560 0.01100
C 	C 	0.72238 0.80429 0.97495 -0.10600
C 	C 	0.33345 0.23682 0.04992 0.37000
C 	C 	0.12860 0.03130 0.27440 0.01100
C 	C 	0.52762 0.82167 0.69880 -0.11200
C 	C 	0.27762 0.19571 0.02505 -0.10600
C 	C 	0.77440 0.12860 0.46870 0.01700
C 	C 	0.30429 0.52505 0.27762 -0.11100
C 	C 	0.83345 0.23682 0.45008 0.37200
C 	C 	0.99250 0.77960 0.90350 -0.10200
C 	C 	0.53130 0.27440 0.37140 0.01700
C 	C 	0.12880 0.24226 0.93985 0.36900
C 	C 	0.12880 0.25774 0.43985 0.37000
C 	C 	0.17833 0.30120 0.47238 -0.11200
C 	C 	0.90350 0.99250 0.77960 -0.10200
C 	C 	0.86770 0.47750 0.32840 0.01500
C 	C 	0.04992 0.16655 0.73682 0.37200
C 	C 	0.17160 0.36770 0.47750 0.01500
C 	C 	0.13230 0.97750 0.17160 0.00700
C 	C 	0.22040 0.40350 0.50750 -0.11100
C 	C 	0.87120 0.74226 0.56015 0.37000
C 	C 	0.40350 0.50750 0.22040 -0.11100
C 	C 	0.17160 0.13230 0.97750 0.00700
C 	C 	0.69880 0.52762 0.82167 -0.11200
C 	C 	0.30120 0.02762 0.67833 -0.11100
C 	C 	0.97238 0.32167 0.69880 -0.11100
C 	C 	0.23682 0.04992 0.33345 0.37000
C 	C 	0.62860 0.46870 0.72560 0.01700
C 	C 	0.06015 0.62880 0.25774 0.37000
C 	C 	0.97238 0.17833 0.19880 -0.10900
C 	C 	0.32840 0.63230 0.97750 0.01400
C 	C 	0.76318 0.54992 0.16655 0.37200
C 	C 	0.47238 0.32167 0.80120 -0.11200
C 	C 	0.56015 0.87120 0.74226 0.37000
C 	C 	0.37120 0.75774 0.43985 0.37100
C 	C 	0.16655 0.76318 0.54992 0.37200
C 	C 	0.77960 0.90350 0.99250 -0.10200
C 	C 	0.72560 0.87140 0.96870 0.01100
C 	C 	0.22238 0.80429 0.52505 -0.11100
C 	C 	0.24226 0.56015 0.62880 0.37100
C 	C 	0.19880 0.52762 0.67833 -0.11200
C 	C 	0.67833 0.19880 0.52762 -0.11200
C 	C 	0.97495 0.72238 0.80429 -0.10600
C 	C 	0.45008 0.83345 0.23682 0.37200
C 	C 	0.03130 0.22560 0.62860 0.01600
C 	C 	0.86770 0.02250 0.82840 0.00700
C 	C 	0.96870 0.72560 0.87140 0.01100
C 	C 	0.62880 0.25774 0.06015 0.37000
C 	C 	0.16655 0.73682 0.04992 0.37200
C 	C 	0.40350 0.99250 0.72040 -0.11000
C 	C 	0.67160 0.36770 0.02250 0.01400
C 	C 	0.37140 0.53130 0.27440 0.01700
C 	C 	0.02762 0.82167 0.80120 -0.10900
C 	C 	0.97750 0.32840 0.63230 0.01400
C 	C 	0.22238 0.69571 0.02505 -0.11000
C 	C 	0.82840 0.86770 0.02250 0.00700
C 	C 	0.49250 0.72040 0.09650 -0.11200
C 	C 	0.82167 0.69880 0.52762 -0.11200
C 	C 	0.37120 0.74226 0.93985 0.37000
C 	C 	0.95008 0.83345 0.26318 0.37200
C 	C 	0.04992 0.33345 0.23682 0.37000
C 	C 	0.54992 0.33345 0.26318 0.37200
C 	C 	0.93985 0.37120 0.74226 0.37000
C 	C 	0.36770 0.02250 0.67160 0.01400
C 	C 	0.62860 0.03130 0.22560 0.01600
C 	C 	0.23682 0.45008 0.83345 0.37200
C 	C 	0.47238 0.17833 0.30120 -0.11200
C 	C 	0.02250 0.67160 0.36770 0.01400
C 	C 	0.30120 0.47238 0.17833 -0.11200
C 	C 	0.02762 0.67833 0.30120 -0.11100
C 	C 	0.80120 0.47238 0.32167 -0.11200
C 	C 	0.27960 0.90350 0.50750 -0.11200
C 	C 	0.82840 0.63230 0.52250 0.01500
C 	C 	0.80120 0.02762 0.82167 -0.10900
C 	C 	0.66655 0.76318 0.95008 0.37000
C 	C 	0.19880 0.97238 0.17833 -0.10900
C 	C 	0.43985 0.12880 0.25774 0.37000
C 	C 	0.52505 0.22238 0.80429 -0.11100
C 	C 	0.00750 0.22040 0.09650 -0.10200
C 	C 	0.36770 0.47750 0.17160 0.01500
C 	C 	0.27960 0.59650 0.00750 -0.11000
C 	C 	0.46870 0.72560 0.62860 0.01700
C 	C 	0.80429 0.52505 0.22238 -0.11100
C 	C 	0.47750 0.32840 0.86770 0.01500
C 	C 	0.47495 0.72238 0.69571 -0.11100
C 	C 	0.33345 0.26318 0.54992 0.37200
C 	C 	0.26318 0.95008 0.83345 0.37200
C 	C 	0.75774 0.43985 0.37120 0.37100
C 	C 	0.97750 0.17160 0.13230 0.00700
C 	C 	0.72040 0.09650 0.49250 -0.11200
C 	C 	0.69880 0.97238 0.32167 -0.11100
C 	C 	0.02505 0.27762 0.19571 -0.10600
C 	C 	0.63230 0.52250 0.82840 0.01500
C 	C 	0.02250 0.82840 0.86770 0.00700
C 	C 	0.52250 0.67160 0.13230 0.01500
C 	C 	0.87140 0.53130 0.22560 0.01700
C 	C 	0.73682 0.45008 0.66655 0.37200
C 	C 	0.27440 0.37140 0.53130 0.01700
C 	C 	0.77440 0.37140 0.96870 0.01600
C 	C 	0.19571 0.47495 0.77762 -0.11100
C 	C 	0.74226 0.93985 0.37120 0.37000
C 	C 	0.93985 0.12880 0.24226 0.36900
C 	C 	0.90350 0.50750 0.27960 -0.11200
C 	C 	0.49250 0.77960 0.59650 -0.11100
C 	C 	0.30429 0.97495 0.77762 -0.11000
C 	C 	0.47495 0.77762 0.19571 -0.11100
C 	C 	0.96870 0.77440 0.37140 0.01600
C 	C 	0.06015 0.87120 0.75774 0.36900
C 	C 	0.17833 0.19880 0.97238 -0.10900
C 	C 	0.75774 0.06015 0.87120 0.36900
C 	C 	0.74226 0.56015 0.87120 0.37000
C 	C 	0.22560 0.87140 0.53130 0.01700
C 	C 	0.32840 0.86770 0.47750 0.01500
C 	C 	0.77960 0.59650 0.49250 -0.11100
C 	C 	0.76318 0.95008 0.66655 0.37000
C 	C 	0.50750 0.27960 0.90350 -0.11200
C 	C 	0.67160 0.13230 0.52250 0.01500
C 	C 	0.82167 0.80120 0.02762 -0.10900
C 	C 	0.09650 0.00750 0.22040 -0.10200
C 	C 	0.03130 0.27440 0.12860 0.01100
C 	C 	0.54992 0.16655 0.76318 0.37200
C 	C 	0.66655 0.73682 0.45008 0.37200
C 	C 	0.25774 0.43985 0.12880 0.37000
C 	C 	0.59650 0.49250 0.77960 -0.11100
C 	C 	0.53130 0.22560 0.87140 0.01700
C 	C 	0.87120 0.75774 0.06015 0.36900
N 	N 	0.23089 0.23016 0.99532 -0.21500
N 	N 	0.76911 0.76984 0.00468 -0.21500
N 	N 	0.73016 0.99532 0.26911 -0.21300
N 	N 	0.73016 0.50468 0.76911 -0.21300
N 	N 	0.23016 0.50468 0.73089 -0.21300
N 	N 	0.99532 0.26911 0.73016 -0.21300
N 	N 	0.00468 0.73089 0.26984 -0.21300
N 	N 	0.00468 0.76911 0.76984 -0.21500
N 	N 	0.73089 0.23016 0.50468 -0.21300
N 	N 	0.49532 0.26911 0.76984 -0.21300
N 	N 	0.26911 0.76984 0.49532 -0.21300
N 	N 	0.76984 0.00468 0.76911 -0.21500
N 	N 	0.50468 0.73089 0.23016 -0.21300
N 	N 	0.26984 0.00468 0.73089 -0.21300
N 	N 	0.26911 0.73016 0.99532 -0.21300
N 	N 	0.23089 0.26984 0.49532 -0.21300
N 	N 	0.73089 0.26984 0.00468 -0.21300
N 	N 	0.23016 0.99532 0.23089 -0.21500
N 	N 	0.76911 0.73016 0.50468 -0.21300
N 	N 	0.50468 0.76911 0.73016 -0.21300
N 	N 	0.99532 0.23089 0.23016 -0.21500
N 	N 	0.76984 0.49532 0.26911 -0.21300
N 	N 	0.49532 0.23089 0.26984 -0.21300
N 	N 	0.26984 0.49532 0.23089 -0.21300
O 	O 	0.58032 0.57739 0.21764 -0.53600
O 	O 	0.41968 0.42261 0.78236 -0.53600
O 	O 	0.35608 0.69787 0.43546 -0.57200
O 	O 	0.58464 0.37571 0.28916 -0.54200
O 	O 	0.42261 0.71764 0.91968 -0.53600
O 	O 	0.78236 0.41968 0.42261 -0.53600
O 	O 	0.06454 0.85608 0.69787 -0.57200
O 	O 	0.28916 0.58464 0.37571 -0.54200
O 	O 	0.83226 0.29638 0.46669 -0.56200
O 	O 	0.69787 0.43546 0.35608 -0.57200
O 	O 	0.03331 0.16774 0.79638 -0.56200
O 	O 	0.70362 0.96669 0.66774 -0.56000
O 	O 	0.12429 0.71084 0.08464 -0.54100
O 	O 	0.91968 0.07739 0.21764 -0.53600
O 	O 	0.43546 0.35608 0.69787 -0.57200
O 	O 	0.80213 0.56454 0.85608 -0.57200
O 	O 	0.28236 0.41968 0.07739 -0.53500
O 	O 	0.62429 0.71084 0.41536 -0.54200
O 	O 	0.71084 0.08464 0.12429 -0.54100
O 	O 	0.33226 0.29638 0.03331 -0.56000
O 	O 	0.78236 0.08032 0.92261 -0.53600
O 	O 	0.53331 0.33226 0.20362 -0.56200
O 	O 	0.66774 0.70362 0.96669 -0.56000
O 	O 	0.96669 0.83226 0.20362 -0.56200
O 	O 	0.28916 0.91536 0.87571 -0.54100
O 	O 	0.19787 0.43546 0.14392 -0.57200
O 	O 	0.87571 0.28916 0.91536 -0.54100
O 	O 	0.14392 0.30213 0.93546 -0.57200
O 	O 	0.71764 0.91968 0.42261 -0.53600
O 	O 	0.43546 0.14392 0.19787 -0.57200
O 	O 	0.20362 0.53331 0.33226 -0.56200
O 	O 	0.30213 0.93546 0.14392 -0.57200
O 	O 	0.85608 0.69787 0.06454 -0.57200
O 	O 	0.16774 0.70362 0.53331 -0.56200
O 	O 	0.56454 0.85608 0.80213 -0.57200
O 	O 	0.37571 0.28916 0.58464 -0.54200
O 	O 	0.41968 0.07739 0.28236 -0.53500
O 	O 	0.93546 0.35608 0.80213 -0.57200
O 	O 	0.64392 0.19787 0.06454 -0.57200
O 	O 	0.71084 0.41536 0.62429 -0.54200
O 	O 	0.28236 0.08032 0.57739 -0.53600
O 	O 	0.96669 0.66774 0.70362 -0.56000
O 	O 	0.21084 0.41536 0.87571 -0.54200
O 	O 	0.41536 0.62429 0.71084 -0.54200
O 	O 	0.56454 0.64392 0.30213 -0.57200
O 	O 	0.03331 0.33226 0.29638 -0.56000
O 	O 	0.29638 0.03331 0.33226 -0.56000
O 	O 	0.70362 0.53331 0.16774 -0.56200
O 	O 	0.21764 0.58032 0.57739 -0.53600
O 	O 	0.87571 0.21084 0.41536 -0.54200
O 	O 	0.92261 0.71764 0.58032 -0.53500
O 	O 	0.69787 0.06454 0.85608 -0.57200
O 	O 	0.20362 0.96669 0.83226 -0.56200
O 	O 	0.92261 0.78236 0.08032 -0.53600
O 	O 	0.79638 0.46669 0.66774 -0.56200
O 	O 	0.16774 0.79638 0.03331 -0.56200
O 	O 	0.08464 0.37571 0.21084 -0.54100
O 	O 	0.08032 0.57739 0.28236 -0.53600
O 	O 	0.21084 0.08464 0.37571 -0.54100
O 	O 	0.35608 0.80213 0.93546 -0.57200
O 	O 	0.06454 0.64392 0.19787 -0.57200
O 	O 	0.21764 0.91968 0.07739 -0.53600
O 	O 	0.83226 0.20362 0.96669 -0.56200
O 	O 	0.79638 0.03331 0.16774 -0.56200
O 	O 	0.46669 0.66774 0.79638 -0.56200
O 	O 	0.78916 0.58464 0.12429 -0.54200
O 	O 	0.19787 0.06454 0.64392 -0.57200
O 	O 	0.07739 0.28236 0.41968 -0.53500
O 	O 	0.53331 0.16774 0.70362 -0.56200
O 	O 	0.07739 0.21764 0.91968 -0.53600
O 	O 	0.64392 0.30213 0.56454 -0.57200
O 	O 	0.66774 0.79638 0.46669 -0.56200
O 	O 	0.80213 0.93546 0.35608 -0.57200
O 	O 	0.78916 0.91536 0.62429 -0.54100
O 	O 	0.30213 0.56454 0.64392 -0.57200
O 	O 	0.57739 0.28236 0.08032 -0.53600
O 	O 	0.29638 0.46669 0.83226 -0.56200
O 	O 	0.91968 0.42261 0.71764 -0.53600
O 	O 	0.41536 0.87571 0.21084 -0.54200
O 	O 	0.46669 0.83226 0.29638 -0.56200
O 	O 	0.57739 0.21764 0.58032 -0.53600
O 	O 	0.58464 0.12429 0.78916 -0.54200
O 	O 	0.93546 0.14392 0.30213 -0.57200
O 	O 	0.42261 0.78236 0.41968 -0.53600
O 	O 	0.91536 0.62429 0.78916 -0.54100
O 	O 	0.08464 0.12429 0.71084 -0.54100
O 	O 	0.14392 0.19787 0.43546 -0.57200
O 	O 	0.91536 0.87571 0.28916 -0.54100
O 	O 	0.71764 0.58032 0.92261 -0.53500
O 	O 	0.33226 0.20362 0.53331 -0.56200
O 	O 	0.12429 0.78916 0.58464 -0.54200
O 	O 	0.08032 0.92261 0.78236 -0.53600
O 	O 	0.58032 0.92261 0.71764 -0.53500
O 	O 	0.37571 0.21084 0.08464 -0.54100
O 	O 	0.62429 0.78916 0.91536 -0.54100
O 	O 	0.85608 0.80213 0.56454 -0.57200
