data_crystal

_cell_length_a 14.65240
_cell_length_b 15.59110
_cell_length_c 15.59110
_cell_angle_alpha 106.10400
_cell_angle_beta  94.58450
_cell_angle_gamma 85.41550

_symmetry_space_group_name_	'P 1'
_symmetry_space_group_name_H-M	'P 1'

loop_
_symmetry_equiv_pos_as_xyz
  x,y,z

loop_
_atom_site_label
_atom_site_type_symbol
_atom_site_fract_x
_atom_site_fract_y
_atom_site_fract_z
_atom_site_charge
Cu	Cu	0.47812 0.64442 0.24818 0.90700
Cu	Cu	0.02188 0.24818 0.64442 0.90700
Cu	Cu	0.75000 0.14103 0.14103 0.90700
Cu	Cu	0.52188 0.35558 0.75182 0.90700
Cu	Cu	0.97812 0.75182 0.35558 0.90700
Cu	Cu	0.25000 0.85897 0.85897 0.90700
H 	H 	0.81050 0.50710 0.44110 0.05800
H 	H 	0.63740 0.73610 0.22570 0.01800
H 	H 	0.06690 0.05890 0.67310 0.02600
H 	H 	0.43340 0.83470 0.77370 0.01100
H 	H 	0.44660 0.85680 0.28840 0.01800
H 	H 	0.08130 0.21800 0.97000 0.08000
H 	H 	0.68950 0.44110 0.50710 0.05700
H 	H 	0.82180 0.52650 0.75630 0.07800
H 	H 	0.62650 0.46170 0.27790 0.08800
H 	H 	0.78060 0.19360 0.34800 0.02800
H 	H 	0.09790 0.98130 0.78010 0.08200
H 	H 	0.05290 0.55870 0.30890 0.00500
H 	H 	0.06020 0.03570 0.35450 0.05500
H 	H 	0.36260 0.26390 0.77430 0.01700
H 	H 	0.03190 0.31000 0.27320 0.07600
H 	H 	0.17820 0.47350 0.24370 0.07800
H 	H 	0.58130 0.03000 0.78200 0.08000
H 	H 	0.87350 0.27790 0.46170 0.08800
H 	H 	0.41870 0.97000 0.21800 0.08000
H 	H 	0.61980 0.84820 0.01100 0.05800
H 	H 	0.91870 0.78200 0.03000 0.08000
H 	H 	0.93310 0.94110 0.32690 0.02500
H 	H 	0.40210 0.78010 0.98130 0.07800
H 	H 	0.67820 0.75630 0.52650 0.07800
H 	H 	0.94660 0.71160 0.14320 0.01700
H 	H 	0.96810 0.69000 0.72680 0.07600
H 	H 	0.93980 0.96430 0.64550 0.05500
H 	H 	0.46810 0.27320 0.31000 0.07700
H 	H 	0.73660 0.30490 0.80370 0.09300
H 	H 	0.21940 0.80640 0.65200 0.02800
H 	H 	0.23660 0.19630 0.69510 0.09300
H 	H 	0.94710 0.44130 0.69110 0.00500
H 	H 	0.44710 0.30890 0.55870 0.00500
H 	H 	0.55290 0.69110 0.44130 0.00500
H 	H 	0.56690 0.32690 0.94110 0.02600
H 	H 	0.43310 0.67310 0.05890 0.02600
H 	H 	0.76340 0.80370 0.30490 0.09300
H 	H 	0.71940 0.34800 0.19360 0.02800
H 	H 	0.26340 0.69510 0.19630 0.09300
H 	H 	0.53190 0.72680 0.69000 0.07700
H 	H 	0.59790 0.21990 0.01870 0.07800
H 	H 	0.28060 0.65200 0.80640 0.02800
H 	H 	0.37350 0.53830 0.72210 0.08800
H 	H 	0.31050 0.55890 0.49290 0.05700
H 	H 	0.32180 0.24370 0.47350 0.07800
H 	H 	0.06660 0.77370 0.83470 0.01100
H 	H 	0.56660 0.16530 0.22630 0.01000
H 	H 	0.93340 0.22630 0.16530 0.01100
H 	H 	0.86260 0.22570 0.73610 0.01700
H 	H 	0.18950 0.49290 0.55890 0.05700
H 	H 	0.12650 0.72210 0.53830 0.08800
H 	H 	0.55340 0.14320 0.71160 0.01800
H 	H 	0.56020 0.64550 0.96430 0.05600
H 	H 	0.05340 0.28840 0.85680 0.01700
H 	H 	0.38020 0.15180 0.98900 0.05800
H 	H 	0.90210 0.01870 0.21990 0.08200
H 	H 	0.11980 0.98900 0.15180 0.05700
H 	H 	0.88020 0.01100 0.84820 0.05700
H 	H 	0.13740 0.77430 0.26390 0.01700
H 	H 	0.43980 0.35450 0.03570 0.05600
C 	C 	0.92060 0.81643 0.09077 -0.11900
C 	C 	0.11230 0.73229 0.59891 -0.12100
C 	C 	0.01940 0.71317 0.70943 -0.12200
C 	C 	0.64410 0.46588 0.54872 -0.03800
C 	C 	0.09370 0.09130 0.88750 0.06700
C 	C 	0.57940 0.09077 0.81643 -0.11700
C 	C 	0.45180 0.48250 0.11496 -0.02600
C 	C 	0.08880 0.04462 0.79778 -0.11800
C 	C 	0.33250 0.66717 0.78203 0.07700
C 	C 	0.96510 0.30320 0.38000 0.06400
C 	C 	0.07860 0.76330 0.77350 0.07400
C 	C 	0.35590 0.53412 0.45128 -0.03800
C 	C 	0.56220 0.15898 0.77502 0.08100
C 	C 	0.40630 0.88750 0.09130 0.06400
C 	C 	0.12100 0.99738 0.09382 -0.03800
C 	C 	0.04840 0.88922 0.49598 0.29500
C 	C 	0.68750 0.47829 0.83415 0.03600
C 	C 	0.04820 0.11496 0.48250 -0.02800
C 	C 	0.92960 0.90829 0.26567 0.07400
C 	C 	0.42960 0.73433 0.09171 0.07200
C 	C 	0.95160 0.11078 0.50402 0.29500
C 	C 	0.47150 0.44977 0.35403 0.03600
C 	C 	0.36340 0.67293 0.40007 0.31300
C 	C 	0.52850 0.55023 0.64597 0.03600
C 	C 	0.40310 0.28593 0.58667 0.08400
C 	C 	0.72080 0.78081 0.33455 -0.12400
C 	C 	0.90310 0.41333 0.71407 0.08500
C 	C 	0.41060 0.40593 0.07387 -0.03200
C 	C 	0.90630 0.90870 0.11250 0.06700
C 	C 	0.98060 0.28683 0.29057 -0.12200
C 	C 	0.27920 0.21919 0.66545 -0.12400
C 	C 	0.39330 0.57888 0.40132 -0.03300
C 	C 	0.10670 0.40132 0.57888 -0.03300
C 	C 	0.61230 0.40109 0.26771 -0.12100
C 	C 	0.63660 0.32707 0.59993 0.31300
C 	C 	0.53490 0.38000 0.30320 0.06300
C 	C 	0.34910 0.02123 0.93437 -0.03200
C 	C 	0.92140 0.23670 0.22650 0.07400
C 	C 	0.45160 0.49598 0.88922 0.29300
C 	C 	0.85420 0.28774 0.74042 0.09700
C 	C 	0.03490 0.69680 0.62000 0.06400
C 	C 	0.86340 0.59993 0.32707 0.31300
C 	C 	0.73470 0.78842 0.42472 0.06900
C 	C 	0.13660 0.40007 0.67293 0.31300
C 	C 	0.65090 0.97877 0.06563 -0.03200
C 	C 	0.64580 0.74042 0.28774 0.09700
C 	C 	0.08940 0.07387 0.40593 -0.03100
C 	C 	0.38770 0.59891 0.73229 -0.12100
C 	C 	0.57860 0.22650 0.23670 0.07500
C 	C 	0.82920 0.46472 0.75328 -0.12800
C 	C 	0.59370 0.11250 0.90870 0.06400
C 	C 	0.59690 0.71407 0.41333 0.08400
C 	C 	0.89330 0.59868 0.42112 -0.03300
C 	C 	0.31250 0.52171 0.16585 0.03600
C 	C 	0.41120 0.79778 0.04462 -0.11200
C 	C 	0.23470 0.57528 0.21158 0.06900
C 	C 	0.51940 0.29057 0.28683 -0.12400
C 	C 	0.57040 0.26567 0.90829 0.07200
C 	C 	0.35420 0.25958 0.71226 0.09700
C 	C 	0.43780 0.84102 0.22498 0.08100
C 	C 	0.77920 0.33455 0.78081 -0.12400
C 	C 	0.48060 0.70943 0.71317 -0.12400
C 	C 	0.37900 0.09382 0.99738 -0.04100
C 	C 	0.17080 0.53528 0.24672 -0.12800
C 	C 	0.81250 0.83415 0.47829 0.03600
C 	C 	0.06220 0.22498 0.84102 0.08200
C 	C 	0.95180 0.88504 0.51750 -0.02800
C 	C 	0.58880 0.20222 0.95538 -0.11200
C 	C 	0.22080 0.66545 0.21919 -0.12400
C 	C 	0.16750 0.78203 0.66717 0.07700
C 	C 	0.14410 0.45128 0.53412 -0.03800
C 	C 	0.88770 0.26771 0.40109 -0.12100
C 	C 	0.62100 0.90618 0.00262 -0.04100
C 	C 	0.61260 0.04319 0.95621 0.03300
C 	C 	0.11260 0.04379 0.95681 0.03000
C 	C 	0.09690 0.58667 0.28593 0.08500
C 	C 	0.18710 0.84024 0.01656 0.29000
C 	C 	0.68710 0.98344 0.15976 0.28800
C 	C 	0.66750 0.33283 0.21797 0.07700
C 	C 	0.85590 0.54872 0.46588 -0.03800
C 	C 	0.02850 0.35403 0.44977 0.03500
C 	C 	0.84910 0.06563 0.97877 -0.03200
C 	C 	0.07940 0.18357 0.90923 -0.11900
C 	C 	0.76530 0.42472 0.78842 0.06900
C 	C 	0.58940 0.59407 0.92613 -0.03200
C 	C 	0.14580 0.71226 0.25958 0.09700
C 	C 	0.46510 0.62000 0.69680 0.06300
C 	C 	0.26530 0.21158 0.57528 0.06900
C 	C 	0.91120 0.95538 0.20222 -0.11800
C 	C 	0.87900 0.00262 0.90618 -0.03800
C 	C 	0.54840 0.50402 0.11078 0.29300
C 	C 	0.54820 0.51750 0.88504 -0.02600
C 	C 	0.42060 0.90923 0.18357 -0.11700
C 	C 	0.15090 0.93437 0.02123 -0.03200
C 	C 	0.93780 0.77502 0.15898 0.08200
C 	C 	0.88740 0.95621 0.04319 0.03000
C 	C 	0.07040 0.09171 0.73433 0.07400
C 	C 	0.42140 0.77350 0.76330 0.07500
C 	C 	0.31290 0.01656 0.84024 0.28800
C 	C 	0.18750 0.16585 0.52171 0.03600
C 	C 	0.32920 0.24672 0.53528 -0.12800
C 	C 	0.60670 0.42112 0.59868 -0.03300
C 	C 	0.67080 0.75328 0.46472 -0.12800
C 	C 	0.83250 0.21797 0.33283 0.07700
C 	C 	0.81290 0.15976 0.98344 0.29000
C 	C 	0.38740 0.95681 0.04379 0.03300
C 	C 	0.97150 0.64597 0.55023 0.03500
C 	C 	0.91060 0.92613 0.59407 -0.03100
S 	S 	0.20063 0.10003 0.41435 0.00900
S 	S 	0.91403 0.90652 0.93384 -0.00200
S 	S 	0.79937 0.89997 0.58565 0.00900
S 	S 	0.08597 0.09348 0.06616 -0.00200
S 	S 	0.40158 0.42726 0.42912 -0.00700
S 	S 	0.29937 0.41435 0.10003 0.01000
S 	S 	0.59842 0.57274 0.57088 -0.00700
S 	S 	0.90158 0.57088 0.57274 -0.00700
S 	S 	0.41403 0.06616 0.09348 -0.00100
S 	S 	0.09842 0.42912 0.42726 -0.00700
S 	S 	0.70063 0.58565 0.89997 0.01000
S 	S 	0.58597 0.93384 0.90652 -0.00100
N 	N 	0.15200 0.79794 0.75392 -0.20200
N 	N 	0.58390 0.70685 0.32531 -0.21500
N 	N 	0.14600 0.96074 0.94370 -0.16000
N 	N 	0.05727 0.18064 0.75448 -0.19100
N 	N 	0.89610 0.83251 0.45149 -0.18500
N 	N 	0.96050 0.65269 0.46909 -0.14000
N 	N 	0.64600 0.05630 0.03926 -0.16100
N 	N 	0.94273 0.81936 0.24552 -0.19100
N 	N 	0.39610 0.54851 0.16749 -0.18500
N 	N 	0.41610 0.29315 0.67469 -0.21500
N 	N 	0.91610 0.32531 0.70685 -0.21500
N 	N 	0.65200 0.24608 0.20206 -0.20200
N 	N 	0.46050 0.53091 0.34731 -0.14000
N 	N 	0.84800 0.20206 0.24608 -0.20200
N 	N 	0.10390 0.16749 0.54851 -0.18500
N 	N 	0.34800 0.75392 0.79794 -0.20200
N 	N 	0.53950 0.46909 0.65269 -0.14000
N 	N 	0.85400 0.03926 0.05630 -0.16000
N 	N 	0.08390 0.67469 0.29315 -0.21500
N 	N 	0.60390 0.45149 0.83251 -0.18500
N 	N 	0.03950 0.34731 0.53091 -0.14000
N 	N 	0.35400 0.94370 0.96074 -0.16100
N 	N 	0.55727 0.24552 0.81936 -0.19000
N 	N 	0.44273 0.75448 0.18064 -0.19000
O 	O 	0.31527 0.08243 0.81073 -0.23100
O 	O 	0.39991 0.54902 0.93974 -0.23000
O 	O 	0.06958 0.83663 0.42061 -0.35600
O 	O 	0.93042 0.16337 0.57939 -0.35600
O 	O 	0.68473 0.91757 0.18927 -0.23100
O 	O 	0.71830 0.05801 0.20449 -0.36700
O 	O 	0.10009 0.93974 0.54902 -0.23000
O 	O 	0.10610 0.34169 0.70329 -0.37400
O 	O 	0.56958 0.57939 0.16337 -0.35700
O 	O 	0.30904 0.71443 0.45543 -0.23400
O 	O 	0.60610 0.29671 0.65831 -0.37400
O 	O 	0.69096 0.28557 0.54457 -0.23400
O 	O 	0.39390 0.70329 0.34169 -0.37400
O 	O 	0.21830 0.79551 0.94199 -0.36800
O 	O 	0.18473 0.81073 0.08243 -0.23100
O 	O 	0.81527 0.18927 0.91757 -0.23100
O 	O 	0.60009 0.45098 0.06026 -0.23000
O 	O 	0.80904 0.54457 0.28557 -0.23400
O 	O 	0.19096 0.45543 0.71443 -0.23400
O 	O 	0.78170 0.20449 0.05801 -0.36800
O 	O 	0.89390 0.65831 0.29671 -0.37400
O 	O 	0.89991 0.06026 0.45098 -0.23000
O 	O 	0.28170 0.94199 0.79551 -0.36700
O 	O 	0.43042 0.42061 0.83663 -0.35700
