data_crystal

_cell_length_a 12.53100
_cell_length_b 12.53100
_cell_length_c 18.47600
_cell_angle_alpha 90.00000
_cell_angle_beta  90.00000
_cell_angle_gamma 120.00000

_symmetry_space_group_name_	'P 1'
_symmetry_space_group_name_H-M	'P 1'

loop_
_symmetry_equiv_pos_as_xyz
  x,y,z

loop_
_atom_site_label
_atom_site_type_symbol
_atom_site_fract_x
_atom_site_fract_y
_atom_site_fract_z
_atom_site_charge
Fe	Fe	0.27300 0.49250 0.25000 1.22300
Fe	Fe	0.72700 0.21950 0.75000 1.22300
Fe	Fe	0.21950 0.72700 0.25000 1.22300
Fe	Fe	0.50750 0.78050 0.25000 1.22300
Fe	Fe	0.49250 0.27300 0.75000 1.22300
Fe	Fe	0.78050 0.50750 0.75000 1.22300
H 	H 	0.72480 0.67960 0.55450 0.04600
H 	H 	0.27520 0.95480 0.05450 0.04600
H 	H 	0.36160 0.39870 0.44020 0.05100
H 	H 	0.03710 0.63840 0.44020 0.05100
H 	H 	0.67960 0.72480 0.44550 0.04600
H 	H 	0.60130 0.96290 0.05980 0.05100
H 	H 	0.39870 0.36160 0.94020 0.05100
H 	H 	0.60130 0.96290 0.44020 0.05100
H 	H 	0.67960 0.72480 0.05450 0.04700
H 	H 	0.03710 0.63840 0.05980 0.05200
H 	H 	0.27520 0.95480 0.44550 0.04700
H 	H 	0.36160 0.39870 0.05980 0.05200
H 	H 	0.95480 0.27520 0.55450 0.04700
H 	H 	0.32040 0.04520 0.94550 0.04700
H 	H 	0.96290 0.60130 0.94020 0.05200
H 	H 	0.95480 0.27520 0.94550 0.04700
H 	H 	0.96290 0.60130 0.55980 0.05200
H 	H 	0.04520 0.32040 0.05450 0.04700
H 	H 	0.39870 0.36160 0.55980 0.05200
H 	H 	0.04520 0.32040 0.44550 0.04700
H 	H 	0.32040 0.04520 0.55450 0.04700
H 	H 	0.63840 0.03710 0.55980 0.05200
H 	H 	0.63840 0.03710 0.94020 0.05200
H 	H 	0.72480 0.67960 0.94550 0.04700
C 	C 	0.43140 0.94790 0.43150 -0.07800
C 	C 	0.97600 0.54400 0.96470 -0.01700
C 	C 	0.48400 0.59500 0.14230 0.38100
C 	C 	0.48350 0.05210 0.56850 -0.07800
C 	C 	0.48350 0.05210 0.93150 -0.07800
C 	C 	0.43200 0.45600 0.46470 -0.01700
C 	C 	0.02590 0.37540 0.46750 -0.01500
C 	C 	0.97600 0.54400 0.53530 -0.01700
C 	C 	0.56800 0.02400 0.96470 -0.01700
C 	C 	0.97410 0.34950 0.96750 -0.01500
C 	C 	0.02400 0.56800 0.46470 -0.01700
C 	C 	0.51650 0.56860 0.43150 -0.07800
C 	C 	0.62460 0.65050 0.46750 -0.01500
C 	C 	0.97410 0.34950 0.53250 -0.01500
C 	C 	0.62460 0.65050 0.03250 -0.01500
C 	C 	0.51650 0.56860 0.06850 -0.07800
C 	C 	0.02400 0.56800 0.03530 -0.01700
C 	C 	0.59500 0.48400 0.64230 0.38100
C 	C 	0.02590 0.37540 0.03250 -0.01500
C 	C 	0.43200 0.45600 0.03530 -0.01700
C 	C 	0.51600 0.11100 0.64230 0.38100
C 	C 	0.94790 0.43140 0.56850 -0.07800
C 	C 	0.48400 0.59500 0.35770 0.38100
C 	C 	0.59500 0.48400 0.85770 0.38100
C 	C 	0.43140 0.94790 0.06850 -0.07800
C 	C 	0.11100 0.51600 0.35770 0.38100
C 	C 	0.34950 0.97410 0.03250 -0.01500
C 	C 	0.94790 0.43140 0.93150 -0.07800
C 	C 	0.37540 0.02590 0.96750 -0.01500
C 	C 	0.88900 0.40500 0.64230 0.38100
C 	C 	0.37540 0.02590 0.53250 -0.01500
C 	C 	0.45600 0.43200 0.53530 -0.01700
C 	C 	0.54400 0.97600 0.03530 -0.01700
C 	C 	0.56800 0.02400 0.53530 -0.01700
C 	C 	0.40500 0.88900 0.14230 0.38100
C 	C 	0.05210 0.48350 0.06850 -0.07800
C 	C 	0.05210 0.48350 0.43150 -0.07800
C 	C 	0.40500 0.88900 0.35770 0.38100
C 	C 	0.65050 0.62460 0.96750 -0.01500
C 	C 	0.54400 0.97600 0.46470 -0.01700
C 	C 	0.45600 0.43200 0.96470 -0.01700
C 	C 	0.56860 0.51650 0.93150 -0.07800
C 	C 	0.51600 0.11100 0.85770 0.38100
C 	C 	0.65050 0.62460 0.53250 -0.01500
C 	C 	0.88900 0.40500 0.85770 0.38100
C 	C 	0.34950 0.97410 0.46750 -0.01500
C 	C 	0.11100 0.51600 0.14230 0.38100
C 	C 	0.56860 0.51650 0.56850 -0.07800
O 	O 	0.30190 0.84990 0.33080 -0.43900
O 	O 	0.49470 0.88410 0.17190 -0.43400
O 	O 	0.61060 0.11590 0.67190 -0.43400
O 	O 	0.11590 0.61060 0.17190 -0.43400
O 	O 	0.15010 0.45200 0.33080 -0.43900
O 	O 	0.50530 0.38940 0.82810 -0.43400
O 	O 	0.15010 0.45200 0.16920 -0.43900
O 	O 	0.11590 0.61060 0.32810 -0.43400
O 	O 	0.45200 0.15010 0.66920 -0.43900
O 	O 	0.69810 0.54800 0.66920 -0.43900
O 	O 	0.49470 0.88410 0.32810 -0.43400
O 	O 	0.84990 0.30190 0.66920 -0.43900
O 	O 	0.30190 0.84990 0.16920 -0.43900
O 	O 	0.88410 0.49470 0.82810 -0.43400
O 	O 	0.66667 0.33334 0.75000 -0.64700
O 	O 	0.54800 0.69810 0.16920 -0.43900
O 	O 	0.38940 0.50530 0.32810 -0.43400
O 	O 	0.50530 0.38940 0.67190 -0.43400
O 	O 	0.61060 0.11590 0.82810 -0.43400
O 	O 	0.38940 0.50530 0.17190 -0.43400
O 	O 	0.69810 0.54800 0.83080 -0.43900
O 	O 	0.88410 0.49470 0.67190 -0.43400
O 	O 	0.45200 0.15010 0.83080 -0.43900
O 	O 	0.84990 0.30190 0.83080 -0.43900
O 	O 	0.54800 0.69810 0.33080 -0.43900
O 	O 	0.33333 0.66666 0.25000 -0.64700
