data_crystal

_cell_length_a 13.11980
_cell_length_b 13.11980
_cell_length_c 13.60070
_cell_angle_alpha 90.00000
_cell_angle_beta  90.00000
_cell_angle_gamma 120.00000

_symmetry_space_group_name_	'P 1'
_symmetry_space_group_name_H-M	'P 1'

loop_
_symmetry_equiv_pos_as_xyz
  x,y,z

loop_
_atom_site_label
_atom_site_type_symbol
_atom_site_fract_x
_atom_site_fract_y
_atom_site_fract_z
_atom_site_charge
Cd	Cd	0.66667 0.33334 0.89794 1.20600
Cd	Cd	0.66667 0.33334 0.60206 1.15700
Cd	Cd	0.48725 0.48725 0.50000 1.17100
Cd	Cd	0.48725 0.48725 -0.00000 1.11400
Cd	Cd	0.33333 0.66666 0.39794 1.15400
Cd	Cd	-0.00000 0.51275 0.50000 1.14400
Cd	Cd	0.33333 0.66666 0.10206 1.10400
Cd	Cd	0.00000 0.51275 -0.00000 1.08600
Cd	Cd	0.51275 0.00000 -0.00000 1.09400
Cd	Cd	0.51275 0.00000 0.50000 1.14800
H 	H 	0.42970 0.84330 0.80200 0.28400
H 	H 	0.57030 0.41360 0.19800 0.25300
H 	H 	0.26380 0.28410 0.37050 0.10700
H 	H 	0.41360 0.57030 0.69800 0.25900
H 	H 	0.84100 0.05050 0.16110 0.13400
H 	H 	0.58640 0.15670 0.19800 0.23500
H 	H 	0.58640 0.15670 0.30200 0.23700
H 	H 	0.79050 0.94950 0.66110 0.16000
H 	H 	0.84100 0.05050 0.33890 0.15100
H 	H 	0.15670 0.58640 0.69800 0.23800
H 	H 	0.26380 0.28410 0.12950 0.07600
H 	H 	0.73620 0.02030 0.62950 0.06700
H 	H 	0.79050 0.94950 0.83890 0.17600
H 	H 	0.57030 0.41360 0.30200 0.25500
H 	H 	0.42970 0.84330 0.69800 0.27800
H 	H 	0.28410 0.26380 0.87050 0.14900
H 	H 	0.71590 0.97970 0.37050 0.19000
H 	H 	0.05050 0.84100 0.83890 0.17300
H 	H 	0.20950 0.15900 0.33890 0.11000
H 	H 	0.41360 0.57030 0.80200 0.26500
H 	H 	0.15670 0.58640 0.80200 0.24400
H 	H 	0.84330 0.42970 0.30200 0.27900
H 	H 	0.94950 0.79050 0.16110 0.13300
H 	H 	0.02030 0.73620 0.12950 0.01300
H 	H 	0.73620 0.02030 0.87050 0.09800
H 	H 	0.02030 0.73620 0.37050 0.04700
H 	H 	0.94950 0.79050 0.33890 0.15100
H 	H 	0.84330 0.42970 0.19800 0.27700
H 	H 	0.05050 0.84100 0.66110 0.15600
H 	H 	0.20950 0.15900 0.16110 0.09300
H 	H 	0.28410 0.26380 0.62950 0.11400
H 	H 	0.97970 0.71590 0.62950 0.20600
H 	H 	0.15900 0.20950 0.83890 0.13700
H 	H 	0.15900 0.20950 0.66110 0.11900
H 	H 	0.71590 0.97970 0.12950 0.15700
H 	H 	0.97970 0.71590 0.87050 0.23500
C 	C 	0.20890 0.34770 0.91840 0.21800
C 	C 	0.65230 0.86120 0.91840 0.23700
C 	C 	0.86120 0.65230 0.08160 0.16100
C 	C 	0.20890 0.34770 0.58160 0.17900
C 	C 	0.65230 0.86120 0.58160 0.20000
C 	C 	0.01340 0.51700 0.75000 0.08300
C 	C 	0.86120 0.65230 0.41840 0.19700
C 	C 	0.50360 0.98660 0.75000 0.33100
C 	C 	0.49640 0.48300 0.25000 0.20700
C 	C 	0.98660 0.50360 0.25000 0.35100
C 	C 	0.13880 0.79110 0.58160 0.19900
C 	C 	0.79110 0.13880 0.08160 0.16400
C 	C 	0.13880 0.79110 0.91840 0.23700
C 	C 	0.51700 0.01340 0.25000 0.09400
C 	C 	0.34770 0.20890 0.41840 0.17800
C 	C 	0.34770 0.20890 0.08160 0.14100
C 	C 	0.48300 0.49640 0.75000 0.21400
C 	C 	0.79110 0.13880 0.41840 0.19900
N 	N 	0.26360 0.21850 0.37010 -0.31700
N 	N 	0.85670 0.56420 0.46920 -0.23000
N 	N 	0.40710 0.57160 0.29800 -0.19500
N 	N 	0.48500 0.94700 0.16930 -0.20500
N 	N 	0.42840 0.83550 0.29800 -0.19100
N 	N 	0.35890 0.11240 0.08770 -0.16200
N 	N 	0.45420 0.13840 0.46650 -0.19000
N 	N 	0.24560 0.50120 0.99910 -0.15000
N 	N 	0.13470 0.57520 0.75000 -0.50900
N 	N 	0.49880 0.74440 0.50090 -0.19500
N 	N 	0.57160 0.40710 0.70200 -0.18900
N 	N 	0.50120 0.24560 0.49910 -0.19600
N 	N 	0.51500 0.46200 0.83070 -0.20900
N 	N 	0.78150 0.04510 0.12990 -0.38400
N 	N 	0.31580 0.86160 0.53350 -0.16900
N 	N 	0.75440 0.25560 0.00090 -0.23400
N 	N 	0.75350 0.64110 0.41230 -0.12600
N 	N 	0.55950 0.42480 0.25000 -0.54300
N 	N 	0.51500 0.46200 0.66930 -0.24000
N 	N 	0.70750 0.14330 0.03080 -0.28200
N 	N 	0.25560 0.75440 0.99910 -0.14700
N 	N 	0.70750 0.14330 0.46920 -0.25600
N 	N 	0.24650 0.88760 0.91230 -0.10000
N 	N 	0.75350 0.64110 0.08770 -0.14200
N 	N 	0.94700 0.48500 0.66930 -0.17500
N 	N 	0.75440 0.25560 0.49910 -0.19300
N 	N 	0.78150 0.04510 0.37010 -0.39300
N 	N 	0.45420 0.13840 0.03350 -0.22000
N 	N 	0.50120 0.24560 0.00090 -0.23900
N 	N 	0.94700 0.48500 0.83070 -0.14600
N 	N 	0.83550 0.42840 0.79800 -0.16500
N 	N 	0.53800 0.05300 0.83070 -0.26500
N 	N 	0.53800 0.05300 0.66930 -0.29400
N 	N 	0.21850 0.26360 0.87010 -0.32900
N 	N 	0.57160 0.40710 0.79800 -0.16900
N 	N 	0.83550 0.42840 0.70200 -0.18500
N 	N 	0.56420 0.85670 0.53080 -0.23400
N 	N 	0.24560 0.50120 0.50090 -0.19800
N 	N 	0.14330 0.70750 0.96920 -0.21700
N 	N 	0.43580 0.29250 0.46920 -0.24600
N 	N 	0.42840 0.83550 0.20200 -0.20900
N 	N 	0.48500 0.94700 0.33070 -0.18500
N 	N 	0.40710 0.57160 0.20200 -0.21400
N 	N 	0.29250 0.43580 0.53080 -0.24700
N 	N 	0.73640 0.95490 0.87010 -0.27400
N 	N 	0.14330 0.70750 0.53080 -0.25900
N 	N 	0.26360 0.21850 0.12990 -0.31000
N 	N 	0.59290 0.16450 0.70200 -0.19100
N 	N 	0.31580 0.86160 0.96650 -0.12600
N 	N 	0.43580 0.29250 0.03080 -0.27400
N 	N 	0.29250 0.43580 0.96920 -0.20700
N 	N 	0.05300 0.53800 0.16930 -0.32700
N 	N 	0.16450 0.59290 0.29800 -0.19800
N 	N 	0.74440 0.49880 0.49910 -0.19300
N 	N 	0.25560 0.75440 0.50090 -0.19500
N 	N 	0.04510 0.78150 0.62990 -0.40700
N 	N 	0.56420 0.85670 0.96920 -0.19500
N 	N 	0.54580 0.68420 0.53350 -0.18000
N 	N 	0.46200 0.51500 0.33070 -0.24200
N 	N 	0.21850 0.26360 0.62990 -0.32100
N 	N 	0.44050 0.86530 0.75000 -0.58600
N 	N 	0.86160 0.31580 0.03350 -0.19400
N 	N 	0.13840 0.45420 0.53350 -0.19200
N 	N 	0.49880 0.74440 0.99910 -0.14800
N 	N 	0.73640 0.95490 0.62990 -0.26800
N 	N 	0.95490 0.73640 0.12990 -0.24100
N 	N 	0.64110 0.75350 0.91230 -0.10600
N 	N 	0.68420 0.54580 0.46650 -0.17900
N 	N 	0.86530 0.44050 0.25000 -0.58900
N 	N 	0.88760 0.24650 0.08770 -0.13300
N 	N 	0.54580 0.68420 0.96650 -0.13700
N 	N 	0.11240 0.35890 0.58770 -0.14600
N 	N 	0.13840 0.45420 0.96650 -0.14800
N 	N 	0.88760 0.24650 0.41230 -0.11800
N 	N 	0.59290 0.16450 0.79800 -0.17100
N 	N 	0.57520 0.13470 0.25000 -0.50900
N 	N 	0.68420 0.54580 0.03350 -0.21000
N 	N 	0.42480 0.55950 0.75000 -0.54900
N 	N 	0.95490 0.73640 0.37010 -0.25100
N 	N 	0.24650 0.88760 0.58770 -0.11800
N 	N 	0.86160 0.31580 0.46650 -0.16500
N 	N 	0.11240 0.35890 0.91230 -0.12700
N 	N 	0.46200 0.51500 0.16930 -0.26100
N 	N 	0.04510 0.78150 0.87010 -0.41000
N 	N 	0.35890 0.11240 0.41230 -0.14600
N 	N 	0.85670 0.56420 0.03080 -0.25600
N 	N 	0.64110 0.75350 0.58770 -0.12400
N 	N 	0.74440 0.49880 0.00090 -0.23500
N 	N 	0.16450 0.59290 0.20200 -0.21700
N 	N 	0.05300 0.53800 0.33070 -0.30700
