data_crystal

_cell_length_a 9.76510
_cell_length_b 9.76510
_cell_length_c 11.32800
_cell_angle_alpha 104.57800
_cell_angle_beta  104.57800
_cell_angle_gamma 94.34080

_symmetry_space_group_name_	'P 1'
_symmetry_space_group_name_H-M	'P 1'

loop_
_symmetry_equiv_pos_as_xyz
  x,y,z

loop_
_atom_site_label
_atom_site_type_symbol
_atom_site_fract_x
_atom_site_fract_y
_atom_site_fract_z
_atom_site_charge
Na	Na	-0.00000 0.00000 -0.00000 0.56400
Na	Na	-0.00000 0.00000 0.50000 0.56900
Zn	Zn	0.88503 0.11497 0.75000 1.22900
Zn	Zn	0.11497 0.88503 0.25000 1.23000
H 	H 	0.75300 0.50140 0.28820 0.07900
H 	H 	0.50140 0.75300 0.78820 0.10400
H 	H 	0.24700 0.49860 0.71180 0.07700
H 	H 	0.73020 0.78700 0.92300 0.03000
H 	H 	0.78740 0.30920 0.36980 0.03400
H 	H 	0.87850 0.57010 0.72170 0.06500
H 	H 	0.57010 0.87850 0.22170 0.04700
H 	H 	0.42990 0.12150 0.77830 0.05400
H 	H 	0.21260 0.69080 0.63020 0.03000
H 	H 	0.69080 0.21260 0.13020 0.05700
H 	H 	0.12150 0.42990 0.27830 0.03100
H 	H 	0.78700 0.73020 0.42300 0.05300
H 	H 	0.30920 0.78740 0.86980 0.01200
H 	H 	0.21300 0.26980 0.57700 0.02600
H 	H 	0.49860 0.24700 0.21180 0.04500
H 	H 	0.26980 0.21300 0.07700 0.05300
C 	C 	0.42030 0.83650 0.05340 -0.15500
C 	C 	0.14190 0.70570 0.39470 0.34200
C 	C 	0.51570 0.77970 0.87570 -0.15200
C 	C 	0.57970 0.16350 0.94660 -0.05000
C 	C 	0.70570 0.14190 0.89470 0.31700
C 	C 	0.22030 0.48430 0.62430 -0.12000
C 	C 	0.20060 0.34740 0.54380 0.04400
C 	C 	0.44330 0.14530 0.86570 -0.00700
C 	C 	0.13680 0.17860 0.32330 0.36700
C 	C 	0.65260 0.79940 0.95620 0.11000
C 	C 	0.79930 0.40070 0.42450 0.04300
C 	C 	0.82140 0.86320 0.17670 0.37500
C 	C 	0.20070 0.59930 0.57550 0.04200
C 	C 	0.32620 0.16220 0.91350 -0.06400
C 	C 	0.59930 0.20070 0.07550 -0.05200
C 	C 	0.29430 0.85810 0.10530 0.37300
C 	C 	0.55670 0.85470 0.13430 0.09600
C 	C 	0.17860 0.13680 0.82330 0.34200
C 	C 	0.40070 0.79930 0.92450 0.12200
C 	C 	0.14530 0.44330 0.36570 0.05500
C 	C 	0.79940 0.65260 0.45620 0.03500
C 	C 	0.77970 0.51570 0.37570 -0.08500
C 	C 	0.16220 0.32620 0.41350 -0.14000
C 	C 	0.86320 0.82140 0.67670 0.35500
C 	C 	0.83650 0.42030 0.55340 -0.09200
C 	C 	0.83780 0.67380 0.58650 -0.08600
C 	C 	0.34740 0.20060 0.04380 -0.05200
C 	C 	0.85470 0.55670 0.63430 0.04500
C 	C 	0.67380 0.83780 0.08650 -0.14500
C 	C 	0.85810 0.29430 0.60530 0.35200
C 	C 	0.48430 0.22030 0.12430 -0.03800
C 	C 	0.16350 0.57970 0.44660 -0.12400
O 	O 	0.31380 0.88640 0.22350 -0.39700
O 	O 	0.85654 0.92458 0.62550 -0.41200
O 	O 	0.17370 0.84450 0.03150 -0.39200
O 	O 	0.82630 0.15550 0.96850 -0.34700
O 	O 	0.68620 0.11360 0.77650 -0.42600
O 	O 	0.11260 0.16260 0.20840 -0.41200
O 	O 	0.11360 0.68620 0.27650 -0.43500
O 	O 	0.84450 0.17370 0.53150 -0.37800
O 	O 	0.14346 0.07542 0.37450 -0.53700
O 	O 	0.88640 0.31380 0.72350 -0.39200
O 	O 	0.16260 0.11260 0.70840 -0.39800
O 	O 	0.15550 0.82630 0.46850 -0.35900
O 	O 	0.07542 0.14346 0.87450 -0.52000
O 	O 	0.88740 0.83740 0.79160 -0.30400
O 	O 	0.83740 0.88740 0.29160 -0.31200
O 	O 	0.92458 0.85654 0.12550 -0.42100
