data_crystal

_cell_length_a 10.35030
_cell_length_b 10.35030
_cell_length_c 52.55700
_cell_angle_alpha 90.00000
_cell_angle_beta  90.00000
_cell_angle_gamma 90.00000

_symmetry_space_group_name_	'P 1'
_symmetry_space_group_name_H-M	'P 1'

loop_
_symmetry_equiv_pos_as_xyz
  x,y,z

loop_
_atom_site_label
_atom_site_type_symbol
_atom_site_fract_x
_atom_site_fract_y
_atom_site_fract_z
_atom_site_charge
Cd	Cd	0.24296 0.85466 0.42117 1.20300
Cd	Cd	0.85466 0.75704 0.17117 1.20300
Cd	Cd	0.94028 0.64156 0.77362 1.24400
Cd	Cd	0.24296 0.14534 0.07883 1.20200
Cd	Cd	0.75704 0.14534 0.92117 1.20200
Cd	Cd	0.05972 0.64156 0.22638 1.24400
Cd	Cd	0.14534 0.75704 0.82883 1.20200
Cd	Cd	0.64156 0.05972 0.52362 1.24400
Cd	Cd	0.35844 0.05972 0.47638 1.24400
Cd	Cd	0.05972 0.35844 0.27362 1.24400
Cd	Cd	0.35844 0.94028 0.02362 1.24400
Cd	Cd	0.75704 0.85466 0.57883 1.20200
Cd	Cd	0.14534 0.24296 0.67117 1.20200
Cd	Cd	0.64156 0.94028 0.97638 1.24400
Cd	Cd	0.85466 0.24296 0.32883 1.20200
Cd	Cd	0.94028 0.35844 0.72638 1.24400
H 	H 	0.39060 0.47980 0.46870 0.02400
H 	H 	0.52020 0.60940 0.78130 0.02400
H 	H 	0.11900 0.05360 0.52530 0.03800
H 	H 	0.12120 0.33570 0.16310 0.03900
H 	H 	0.05360 0.11900 0.22470 0.03800
H 	H 	0.94640 0.88100 0.72470 0.03800
H 	H 	0.87880 0.33570 0.83690 0.03900
H 	H 	0.47980 0.60940 0.21870 0.02400
H 	H 	0.05110 0.87260 0.09280 0.05000
H 	H 	0.12740 0.05110 0.34280 0.05000
H 	H 	0.11900 0.94640 0.97470 0.03800
H 	H 	0.05360 0.88100 0.27530 0.03800
H 	H 	0.87880 0.66430 0.66310 0.03900
H 	H 	0.33570 0.12120 0.58690 0.03900
H 	H 	0.88100 0.94640 0.02530 0.03800
H 	H 	0.94640 0.11900 0.77530 0.03800
H 	H 	0.66430 0.12120 0.41310 0.03900
H 	H 	0.81600 0.50000 0.25000 -0.01400
H 	H 	0.50000 0.18400 -0.00000 -0.01400
H 	H 	0.52020 0.39060 0.71870 0.02400
H 	H 	0.50000 0.81600 0.50000 -0.01400
H 	H 	0.94890 0.12740 0.59280 0.05000
H 	H 	0.05110 0.12740 0.40720 0.05000
H 	H 	0.39060 0.52020 0.03130 0.02400
H 	H 	0.33570 0.87880 0.91310 0.03900
H 	H 	0.18400 0.50000 0.75000 -0.01400
H 	H 	0.87260 0.94890 0.84280 0.05000
H 	H 	0.12120 0.66430 0.33690 0.03900
H 	H 	0.94890 0.87260 0.90720 0.05000
H 	H 	0.87260 0.05110 0.65720 0.05000
H 	H 	0.60940 0.52020 0.96870 0.02400
H 	H 	0.88100 0.05360 0.47470 0.03800
H 	H 	0.66430 0.87880 0.08690 0.03900
H 	H 	0.60940 0.47980 0.53130 0.02400
H 	H 	0.47980 0.39060 0.28130 0.02400
H 	H 	0.12740 0.94890 0.15720 0.05000
C 	C 	0.52460 0.56520 0.23131 0.10100
C 	C 	0.88780 0.74530 0.67055 0.04900
C 	C 	0.75510 0.92000 0.05395 -0.13100
C 	C 	0.97670 0.11880 0.41703 0.02800
C 	C 	0.36570 0.72960 0.46005 0.38100
C 	C 	0.88120 0.02330 0.83297 0.02800
C 	C 	0.91890 0.88150 0.79542 0.30800
C 	C 	0.56520 0.65790 0.51882 -0.16400
C 	C 	0.31110 0.50000 0.25000 0.43100
C 	C 	0.47540 0.43480 0.73131 0.10100
C 	C 	0.05190 0.36670 0.21054 0.37800
C 	C 	0.56520 0.52460 0.51869 0.10100
C 	C 	0.83410 0.84780 0.62781 0.34300
C 	C 	0.87480 0.92760 0.04255 0.05100
C 	C 	0.11880 0.02330 0.16703 0.02800
C 	C 	0.13160 0.14270 0.15572 -0.10800
C 	C 	0.08000 0.24490 0.19605 -0.13100
C 	C 	0.36670 0.94810 0.96054 0.37800
C 	C 	0.14270 0.86840 0.90572 -0.10800
C 	C 	0.27040 0.36570 0.71005 0.38100
C 	C 	0.52460 0.43480 0.26869 0.10100
C 	C 	0.50000 0.54270 -0.00000 -0.16300
C 	C 	0.11850 0.91890 0.04542 0.30800
C 	C 	0.02330 0.88120 0.91703 0.02800
C 	C 	0.92760 0.12520 0.79255 0.05100
C 	C 	0.94810 0.63330 0.71054 0.37800
C 	C 	0.91890 0.11850 0.70458 0.30800
C 	C 	0.87480 0.07240 0.45745 0.05100
C 	C 	0.27040 0.63430 0.78995 0.38100
C 	C 	0.90690 0.01250 0.80690 -0.12400
C 	C 	0.50000 0.72620 0.50000 0.10600
C 	C 	0.11220 0.74530 0.32945 0.04900
C 	C 	0.36570 0.27040 0.03995 0.38100
C 	C 	0.90690 0.98750 0.69310 -0.12400
C 	C 	0.85730 0.86840 0.09428 -0.10800
C 	C 	0.11850 0.08110 0.45458 0.30800
C 	C 	0.16590 0.15220 0.12781 0.34300
C 	C 	0.08110 0.11850 0.29542 0.30800
C 	C 	0.72620 0.50000 0.25000 0.10600
C 	C 	0.02330 0.11880 0.58297 0.02800
C 	C 	0.43480 0.52460 0.48131 0.10100
C 	C 	0.45730 0.50000 0.25000 -0.16200
C 	C 	0.01250 0.90690 0.94310 -0.12400
C 	C 	0.14270 0.13160 0.59428 -0.10800
C 	C 	0.72960 0.63430 0.21005 0.38100
C 	C 	0.92760 0.87480 0.70745 0.05100
C 	C 	0.11220 0.25470 0.17055 0.04900
C 	C 	0.15220 0.83410 0.87781 0.34300
C 	C 	0.98750 0.90690 0.05690 -0.12400
C 	C 	0.63330 0.94810 0.03946 0.37800
C 	C 	0.11880 0.97670 0.33297 0.02800
C 	C 	0.88780 0.25470 0.82945 0.04900
C 	C 	0.50000 0.68890 -0.00000 0.43100
C 	C 	0.74530 0.11220 0.42055 0.04900
C 	C 	0.92000 0.24490 0.80395 -0.13100
C 	C 	0.75510 0.08000 0.44605 -0.13100
C 	C 	0.83410 0.15220 0.87219 0.34300
C 	C 	0.56520 0.47540 0.98131 0.10100
C 	C 	0.07240 0.87480 0.29255 0.05100
C 	C 	0.92000 0.75510 0.69605 -0.13100
C 	C 	0.63430 0.27040 0.96005 0.38100
C 	C 	0.98750 0.09310 0.44310 -0.12400
C 	C 	0.65790 0.43480 0.26882 -0.16400
C 	C 	0.86840 0.14270 0.84428 -0.10800
C 	C 	0.86840 0.85730 0.65572 -0.10800
C 	C 	0.34210 0.43480 0.73118 -0.16400
C 	C 	0.88150 0.91890 0.95458 0.30800
C 	C 	0.05190 0.63330 0.28946 0.37800
C 	C 	0.97670 0.88120 0.08297 0.02800
C 	C 	0.88150 0.08110 0.54542 0.30800
C 	C 	0.43480 0.47540 0.01869 0.10100
C 	C 	0.12520 0.07240 0.54255 0.05100
C 	C 	0.09310 0.98750 0.30690 -0.12400
C 	C 	0.43480 0.65790 0.48118 -0.16400
C 	C 	0.54270 0.50000 0.75000 -0.16200
C 	C 	0.63330 0.05190 0.46054 0.37800
C 	C 	0.27380 0.50000 0.75000 0.10600
C 	C 	0.94810 0.36670 0.78946 0.37800
C 	C 	0.50000 0.27380 -0.00000 0.10600
C 	C 	0.16590 0.84780 0.37219 0.34300
C 	C 	0.24490 0.08000 0.55395 -0.13100
C 	C 	0.08000 0.75510 0.30395 -0.13100
C 	C 	0.13160 0.85730 0.34428 -0.10800
C 	C 	0.15220 0.16590 0.62219 0.34300
C 	C 	0.09310 0.01250 0.19310 -0.12400
C 	C 	0.84780 0.16590 0.37781 0.34300
C 	C 	0.63430 0.72960 0.53995 0.38100
C 	C 	0.12520 0.92760 0.95745 0.05100
C 	C 	0.50000 0.45730 0.50000 -0.16200
C 	C 	0.43480 0.34210 0.01882 -0.16400
C 	C 	0.34210 0.56520 0.76882 -0.16400
C 	C 	0.65790 0.56520 0.23118 -0.16400
C 	C 	0.56520 0.34210 0.98118 -0.16300
C 	C 	0.25470 0.88780 0.92055 0.04900
C 	C 	0.07240 0.12520 0.20745 0.05100
C 	C 	0.24490 0.92000 0.94605 -0.13100
C 	C 	0.08110 0.88150 0.20458 0.30800
C 	C 	0.72960 0.36570 0.28995 0.38100
C 	C 	0.50000 0.31110 0.50000 0.43100
C 	C 	0.01250 0.09310 0.55690 -0.12400
C 	C 	0.84780 0.83410 0.12219 0.34300
C 	C 	0.88120 0.97670 0.66703 0.02800
C 	C 	0.85730 0.13160 0.40572 -0.10800
C 	C 	0.25470 0.11220 0.57945 0.04900
C 	C 	0.47540 0.56520 0.76869 0.10100
C 	C 	0.74530 0.88780 0.07945 0.04900
C 	C 	0.36670 0.05190 0.53946 0.37800
C 	C 	0.68890 0.50000 0.75000 0.43100
O 	O 	0.64170 0.99670 0.01762 -0.45400
O 	O 	0.86790 0.91170 0.97827 -0.36000
O 	O 	0.33110 0.32950 0.05926 -0.41400
O 	O 	0.32950 0.33110 0.69074 -0.41400
O 	O 	0.59100 0.74190 0.98879 -0.44400
O 	O 	0.74090 0.81870 0.13216 -0.38600
O 	O 	0.18350 0.94810 0.38382 -0.41400
O 	O 	0.47180 0.07380 0.55038 -0.42300
O 	O 	0.05190 0.18350 0.63382 -0.41400
O 	O 	0.59100 0.25810 0.51121 -0.44500
O 	O 	0.99670 0.35830 0.76762 -0.45400
O 	O 	0.52820 0.92620 0.05038 -0.42300
O 	O 	0.66890 0.32950 0.94074 -0.41400
O 	O 	0.78440 0.93550 0.94005 -0.47200
O 	O 	0.64170 0.00330 0.48238 -0.45400
O 	O 	0.65810 0.84790 0.53699 -0.52100
O 	O 	0.25910 0.81870 0.86784 -0.38600
O 	O 	0.05190 0.81650 0.86618 -0.41400
O 	O 	0.40900 0.25810 0.48879 -0.44500
O 	O 	0.34190 0.15210 0.03699 -0.52100
O 	O 	0.65810 0.15210 0.96301 -0.52100
O 	O 	0.00330 0.64170 0.26762 -0.45400
O 	O 	0.32950 0.66890 0.80926 -0.41400
O 	O 	0.94810 0.18350 0.36618 -0.41400
O 	O 	0.78440 0.06450 0.55995 -0.47200
O 	O 	0.25910 0.18130 0.63216 -0.38600
O 	O 	0.92620 0.52820 0.69962 -0.42300
O 	O 	0.52820 0.07380 0.44962 -0.42300
O 	O 	0.13210 0.08830 0.47827 -0.36100
O 	O 	0.07380 0.47180 0.19962 -0.42300
O 	O 	0.91170 0.13210 0.72827 -0.36100
O 	O 	0.13210 0.91170 0.02173 -0.36100
O 	O 	0.06450 0.21560 0.30995 -0.47200
O 	O 	0.94810 0.81650 0.13382 -0.41400
O 	O 	0.00330 0.35830 0.23238 -0.45400
O 	O 	0.40900 0.74190 0.01121 -0.44500
O 	O 	0.25810 0.59100 0.23879 -0.44500
O 	O 	0.35830 0.00330 0.51762 -0.45400
O 	O 	0.21560 0.93550 0.05995 -0.47200
O 	O 	0.34190 0.84790 0.46301 -0.52100
O 	O 	0.92620 0.47180 0.80038 -0.42300
O 	O 	0.21560 0.06450 0.44005 -0.47200
O 	O 	0.08830 0.86790 0.22827 -0.36100
O 	O 	0.84790 0.34190 0.28699 -0.52100
O 	O 	0.66890 0.67050 0.55926 -0.41400
O 	O 	0.93550 0.78440 0.80995 -0.47200
O 	O 	0.86790 0.08830 0.52173 -0.36100
O 	O 	0.15210 0.65810 0.78699 -0.52100
O 	O 	0.06450 0.78440 0.19005 -0.47200
O 	O 	0.33110 0.67050 0.44074 -0.41400
O 	O 	0.08830 0.13210 0.27173 -0.36100
O 	O 	0.25810 0.40900 0.26121 -0.44500
O 	O 	0.18130 0.74090 0.38216 -0.38600
O 	O 	0.18130 0.25910 0.11784 -0.38600
O 	O 	0.15210 0.34190 0.71301 -0.52100
O 	O 	0.93550 0.21560 0.69005 -0.47200
O 	O 	0.67050 0.33110 0.30926 -0.41400
O 	O 	0.47180 0.92620 0.94962 -0.42300
O 	O 	0.99670 0.64170 0.73238 -0.45400
O 	O 	0.67050 0.66890 0.19074 -0.41400
O 	O 	0.74090 0.18130 0.36784 -0.38600
O 	O 	0.07380 0.52820 0.30038 -0.42300
O 	O 	0.74190 0.59100 0.76121 -0.44500
O 	O 	0.84790 0.65810 0.21301 -0.52100
O 	O 	0.35830 0.99670 0.98238 -0.45400
O 	O 	0.81650 0.94810 0.61618 -0.41400
O 	O 	0.81870 0.25910 0.88216 -0.38600
O 	O 	0.18350 0.05190 0.11618 -0.41400
O 	O 	0.81870 0.74090 0.61784 -0.38600
O 	O 	0.74190 0.40900 0.73879 -0.44500
O 	O 	0.81650 0.05190 0.88382 -0.41400
O 	O 	0.91170 0.86790 0.77173 -0.36100
