data_crystal

_cell_length_a 7.04790
_cell_length_b 15.30700
_cell_length_c 17.53700
_cell_angle_alpha 90.00000
_cell_angle_beta  90.00000
_cell_angle_gamma 90.00000

_symmetry_space_group_name_	'P 1'
_symmetry_space_group_name_H-M	'P 1'

loop_
_symmetry_equiv_pos_as_xyz
  x,y,z

loop_
_atom_site_label
_atom_site_type_symbol
_atom_site_fract_x
_atom_site_fract_y
_atom_site_fract_z
_atom_site_charge
P 	P 	0.25542 0.13521 0.40046 0.52500
O 	O 	0.29900 0.14619 0.31612 -0.53600
O 	O 	0.43380 0.10747 0.44377 -0.50100
O 	O 	0.09020 0.07294 0.41373 -0.57500
O 	O 	0.37280 0.36590 0.45750 -0.29000
O 	O 	0.31220 0.33010 0.33850 -0.53900
C 	C 	0.29800 0.31700 0.41150 0.48000
C 	C 	0.18190 0.24010 0.43720 -0.59300
H 	H 	0.05110 0.24990 0.42230 0.14700
H 	H 	0.18550 0.23770 0.49240 0.19400
P 	P 	0.24458 0.86479 0.40046 0.54300
O 	O 	0.20100 0.85381 0.31612 -0.50200
O 	O 	0.06620 0.89253 0.44377 -0.49000
O 	O 	0.40980 0.92706 0.41373 -0.41600
O 	O 	0.12720 0.63410 0.45750 -0.34000
O 	O 	0.18780 0.66990 0.33850 -0.55900
C 	C 	0.20200 0.68300 0.41150 0.50800
C 	C 	0.31810 0.75990 0.43720 -0.64600
H 	H 	0.44890 0.75010 0.42230 0.22100
H 	H 	0.31450 0.76230 0.49240 0.23000
P 	P 	0.24458 0.63521 0.09954 0.52800
O 	O 	0.20100 0.64619 0.18388 -0.52500
O 	O 	0.06620 0.60747 0.05623 -0.59600
O 	O 	0.40980 0.57294 0.08627 -0.51700
O 	O 	0.12720 0.86590 0.04250 -0.36300
O 	O 	0.18780 0.83010 0.16150 -0.54300
C 	C 	0.20200 0.81700 0.08850 0.49000
C 	C 	0.31810 0.74010 0.06280 -0.62200
H 	H 	0.44890 0.74990 0.07770 0.18900
H 	H 	0.31450 0.73770 0.00760 0.16600
P 	P 	0.25542 0.36479 0.09954 0.51500
O 	O 	0.29900 0.35381 0.18388 -0.51300
O 	O 	0.43380 0.39253 0.05623 -0.53500
O 	O 	0.09020 0.42706 0.08627 -0.56800
O 	O 	0.37280 0.13410 0.04250 -0.38500
O 	O 	0.31220 0.16990 0.16150 -0.56900
C 	C 	0.29800 0.18300 0.08850 0.46700
C 	C 	0.18190 0.25990 0.06280 -0.57600
H 	H 	0.05110 0.25010 0.07770 0.11000
H 	H 	0.18550 0.26230 0.00760 0.13000
P 	P 	0.74458 0.86479 0.59954 0.54800
O 	O 	0.70100 0.85381 0.68388 -0.47800
O 	O 	0.56620 0.89253 0.55623 -0.43800
O 	O 	0.90980 0.92706 0.58627 -0.36200
O 	O 	0.62720 0.63410 0.54250 -0.28100
O 	O 	0.68780 0.66990 0.66150 -0.53900
C 	C 	0.70200 0.68300 0.58850 0.52200
C 	C 	0.81810 0.75990 0.56280 -0.66000
H 	H 	0.94890 0.75010 0.57770 0.25700
H 	H 	0.81450 0.76230 0.50760 0.28000
P 	P 	0.75542 0.13521 0.59954 0.53000
O 	O 	0.79900 0.14619 0.68388 -0.51200
O 	O 	0.93380 0.10747 0.55623 -0.43100
O 	O 	0.59020 0.07294 0.58627 -0.53300
O 	O 	0.87280 0.36590 0.54250 -0.23000
O 	O 	0.81220 0.33010 0.66150 -0.51900
C 	C 	0.79800 0.31700 0.58850 0.49400
C 	C 	0.68190 0.24010 0.56280 -0.60900
H 	H 	0.55110 0.24990 0.57770 0.18500
H 	H 	0.68550 0.23770 0.50760 0.24600
P 	P 	0.75542 0.36479 0.90046 0.54500
O 	O 	0.79900 0.35381 0.81612 -0.49400
O 	O 	0.93380 0.39253 0.94377 -0.35400
O 	O 	0.59020 0.42706 0.91373 -0.45900
O 	O 	0.87280 0.13410 0.95750 -0.20400
O 	O 	0.81220 0.16990 0.83850 -0.53300
C 	C 	0.79800 0.18300 0.91150 0.51200
C 	C 	0.68190 0.25990 0.93720 -0.63400
H 	H 	0.55110 0.25010 0.92230 0.21600
H 	H 	0.68550 0.26230 0.99240 0.30700
P 	P 	0.74458 0.63521 0.90046 0.55700
O 	O 	0.70100 0.64619 0.81612 -0.50600
O 	O 	0.56620 0.60747 0.94377 -0.43000
O 	O 	0.90980 0.57294 0.91373 -0.39400
O 	O 	0.62720 0.86590 0.95750 -0.18500
O 	O 	0.68780 0.83010 0.83850 -0.50800
C 	C 	0.70200 0.81700 0.91150 0.53300
C 	C 	0.81810 0.74010 0.93720 -0.67700
H 	H 	0.94890 0.74990 0.92230 0.29200
H 	H 	0.81450 0.73770 0.99240 0.34000
V 	V 	0.25449 0.25000 0.25000 1.69900
V 	V 	0.24551 0.75000 0.25000 1.71000
V 	V 	0.74551 0.75000 0.75000 1.72100
V 	V 	0.75449 0.25000 0.75000 1.71000
V 	V 	0.00000 -0.00000 0.50000 1.72200
V 	V 	0.50000 -0.00000 0.50000 1.77600
V 	V 	0.50000 0.50000 -0.00000 1.75600
V 	V 	-0.00000 0.50000 -0.00000 1.70300
O 	O 	0.25000 -0.00000 0.54290 -0.87200
H 	H 	0.25000 0.00000 0.59600 0.18500
O 	O 	0.25000 0.50000 0.95710 -0.71800
H 	H 	0.25000 0.50000 0.90400 0.19800
O 	O 	0.75000 0.00000 0.45710 -0.81700
H 	H 	0.75000 0.00000 0.40400 0.24000
O 	O 	0.75000 0.50000 0.04290 -0.83200
H 	H 	0.75000 0.50000 0.09600 0.28100
