data_crystal

_cell_length_a 10.66700
_cell_length_b 11.14700
_cell_length_c 20.20700
_cell_angle_alpha 90.98300
_cell_angle_beta  92.15000
_cell_angle_gamma 108.12800

_symmetry_space_group_name_	'P 1'
_symmetry_space_group_name_H-M	'P 1'

loop_
_symmetry_equiv_pos_as_xyz
  x,y,z

loop_
_atom_site_label
_atom_site_type_symbol
_atom_site_fract_x
_atom_site_fract_y
_atom_site_fract_z
_atom_site_charge
Cu	Cu	0.35390 0.10490 0.11734 0.78100
N 	N 	0.23740 0.17360 0.16590 -0.25400
C 	C 	0.14000 0.20700 0.13510 0.10900
C 	C 	0.11500 0.18200 0.06150 -0.41600
H 	H 	0.17560 0.13830 0.04510 0.07900
H 	H 	0.12990 0.26160 0.03910 0.11600
H 	H 	0.02380 0.12810 0.05260 0.11800
C 	C 	0.06900 0.26700 0.17250 -0.03700
H 	H 	0.99680 0.28900 0.15340 0.01400
C 	C 	0.20000 0.25760 0.26680 0.22100
C 	C 	0.23300 0.29600 0.33570 -0.53800
H 	H 	0.17190 0.33890 0.35180 0.14800
H 	H 	0.32360 0.35460 0.33990 0.17200
H 	H 	0.22680 0.22200 0.36220 0.14600
C 	C 	0.26500 0.19600 0.22870 -0.09500
H 	H 	0.33270 0.16830 0.24900 -0.01400
N 	N 	0.10670 0.29360 0.23530 -0.21300
H 	H 	0.06710 0.33820 0.25800 0.07800
N 	N 	0.43900 0.04800 0.04840 -0.27600
C 	C 	0.53200 0.12200 0.01370 0.13900
C 	C 	0.57400 0.26100 0.02720 -0.43400
H 	H 	0.52240 0.28030 0.06260 0.06100
H 	H 	0.55950 0.30360 0.98690 0.13000
H 	H 	0.66800 0.29070 0.04080 0.11200
C 	C 	0.59300 0.07500 0.96520 -0.07800
H 	H 	0.65890 0.13200 0.94080 -0.00500
Cu	Cu	0.64610 0.89510 0.88266 0.78000
N 	N 	0.76260 0.82640 0.83410 -0.25500
C 	C 	0.86000 0.79300 0.86490 0.10800
C 	C 	0.88500 0.81800 0.93850 -0.41700
H 	H 	0.82440 0.86170 0.95490 0.07800
H 	H 	0.87010 0.73840 0.96090 0.11500
H 	H 	0.97620 0.87190 0.94740 0.11800
C 	C 	0.93100 0.73300 0.82750 -0.03700
H 	H 	0.00320 0.71100 0.84660 0.01400
C 	C 	0.80000 0.74240 0.73320 0.22100
C 	C 	0.76700 0.70400 0.66430 -0.53800
H 	H 	0.82810 0.66110 0.64820 0.14800
H 	H 	0.67640 0.64540 0.66010 0.17200
H 	H 	0.77320 0.77800 0.63780 0.14600
C 	C 	0.73500 0.80400 0.77130 -0.09500
H 	H 	0.66730 0.83170 0.75100 -0.01400
N 	N 	0.89330 0.70640 0.76470 -0.21300
H 	H 	0.93290 0.66180 0.74200 0.07800
N 	N 	0.56100 0.95200 0.95160 -0.27600
C 	C 	0.46800 0.87800 0.98630 0.13900
C 	C 	0.42600 0.73900 0.97280 -0.43400
H 	H 	0.47760 0.71970 0.93740 0.06100
H 	H 	0.44050 0.69640 0.01310 0.13000
H 	H 	0.33200 0.70930 0.95920 0.11200
C 	C 	0.40700 0.92500 0.03480 -0.07800
H 	H 	0.34110 0.86800 0.05920 -0.00500
W 	W 	0.60491 0.41725 0.82019 1.04000
W 	W 	0.24898 0.15572 0.58168 1.02100
W 	W 	0.37444 0.59181 0.78613 1.00400
W 	W 	0.19439 0.94277 0.70453 1.04300
W 	W 	0.22869 0.04852 0.87666 1.03600
W 	W 	0.31306 0.36301 0.91636 1.00600
W 	W 	0.06787 0.43877 0.71642 1.06100
W 	W 	0.97548 0.10490 0.67337 1.02900
W 	W 	0.51989 0.10523 0.77894 0.96500
W 	W 	0.57367 0.32077 0.65855 1.03800
W 	W 	0.00766 0.20813 0.84608 1.01000
W 	W 	0.33959 0.49120 0.62514 1.02300
P 	P 	0.28710 0.26590 0.74870 0.60000
O 	O 	0.43240 0.27250 0.75170 -0.37800
O 	O 	0.20970 0.16130 0.69930 -0.37700
O 	O 	0.27240 0.39140 0.72930 -0.38500
O 	O 	0.23570 0.23580 0.81660 -0.38300
O 	O 	0.19150 0.57090 0.76690 -0.47000
O 	O 	0.29500 0.18970 0.93630 -0.46600
O 	O 	0.66320 0.42120 0.73220 -0.47300
O 	O 	0.40030 0.61450 0.69680 -0.48000
O 	O 	0.62410 0.25430 0.82520 -0.47900
O 	O 	0.60040 0.18250 0.70100 -0.47800
O 	O 	0.06100 0.07400 0.87990 -0.46900
O 	O 	0.16820 0.49800 0.64150 -0.47800
O 	O 	0.02370 0.95740 0.68670 -0.45900
O 	O 	0.00320 0.28300 0.67440 -0.48600
O 	O 	0.12440 0.31340 0.91220 -0.46300
O 	O 	0.06540 0.12080 0.59380 -0.47100
O 	O 	0.96330 0.11480 0.76560 -0.47800
O 	O 	0.42760 0.21120 0.61150 -0.48200
O 	O 	0.02420 0.35300 0.79530 -0.47500
O 	O 	0.16790 0.96280 0.79550 -0.46900
O 	O 	0.31910 0.50030 0.86320 -0.47700
O 	O 	0.37600 0.00590 0.72440 -0.47900
O 	O 	0.49290 0.44530 0.64180 -0.48800
O 	O 	0.23790 0.99870 0.61720 -0.47000
O 	O 	0.26330 0.33070 0.58890 -0.47900
O 	O 	0.52600 0.53990 0.79420 -0.47600
O 	O 	0.39990 0.07920 0.84750 -0.48000
O 	O 	0.48090 0.37780 0.88590 -0.48900
W 	W 	0.39509 0.58275 0.17981 1.04000
W 	W 	0.75102 0.84428 0.41832 1.02100
W 	W 	0.62556 0.40819 0.21387 1.00400
W 	W 	0.80561 0.05723 0.29547 1.04300
W 	W 	0.77131 0.95148 0.12334 1.03600
W 	W 	0.68694 0.63699 0.08364 1.00600
W 	W 	0.93213 0.56123 0.28358 1.06100
W 	W 	0.02452 0.89510 0.32663 1.02900
W 	W 	0.48011 0.89477 0.22106 0.96500
W 	W 	0.42633 0.67923 0.34145 1.03800
W 	W 	0.99234 0.79187 0.15392 1.01000
W 	W 	0.66041 0.50880 0.37486 1.02300
P 	P 	0.71290 0.73410 0.25130 0.60000
O 	O 	0.56760 0.72750 0.24830 -0.37800
O 	O 	0.79030 0.83870 0.30070 -0.37700
O 	O 	0.72760 0.60860 0.27070 -0.38500
O 	O 	0.76430 0.76420 0.18340 -0.38300
O 	O 	0.80850 0.42910 0.23310 -0.47000
O 	O 	0.70500 0.81030 0.06370 -0.46600
O 	O 	0.33680 0.57880 0.26780 -0.47300
O 	O 	0.59970 0.38550 0.30320 -0.48000
O 	O 	0.37590 0.74570 0.17480 -0.47900
O 	O 	0.39960 0.81750 0.29900 -0.47800
O 	O 	0.93900 0.92600 0.12010 -0.46900
O 	O 	0.83180 0.50200 0.35850 -0.47800
O 	O 	0.97630 0.04260 0.31330 -0.45900
O 	O 	0.99680 0.71700 0.32560 -0.48600
O 	O 	0.87560 0.68660 0.08780 -0.46300
O 	O 	0.93460 0.87920 0.40620 -0.47100
O 	O 	0.03670 0.88520 0.23440 -0.47800
O 	O 	0.57240 0.78880 0.38850 -0.48200
O 	O 	0.97580 0.64700 0.20470 -0.47500
O 	O 	0.83210 0.03720 0.20450 -0.46900
O 	O 	0.68090 0.49970 0.13680 -0.47700
O 	O 	0.62400 0.99410 0.27560 -0.47900
O 	O 	0.50710 0.55470 0.35820 -0.48800
O 	O 	0.76210 0.00130 0.38280 -0.47000
O 	O 	0.73670 0.66930 0.41110 -0.47900
O 	O 	0.47400 0.46010 0.20580 -0.47600
O 	O 	0.60010 0.92080 0.15250 -0.48000
O 	O 	0.51910 0.62220 0.11410 -0.48900
