data_crystal

_cell_length_a 7.64930
_cell_length_b 21.92500
_cell_length_c 19.66910
_cell_angle_alpha 90.00000
_cell_angle_beta  90.00000
_cell_angle_gamma 90.00000

_symmetry_space_group_name_	'P 1'
_symmetry_space_group_name_H-M	'P 1'

loop_
_symmetry_equiv_pos_as_xyz
  x,y,z

loop_
_atom_site_label
_atom_site_type_symbol
_atom_site_fract_x
_atom_site_fract_y
_atom_site_fract_z
_atom_site_charge
Eu	Eu	0.57508 0.28059 0.55354 2.00500
Eu	Eu	0.42492 0.71941 0.44646 2.00500
Eu	Eu	0.07508 0.21941 0.55354 2.00400
Eu	Eu	0.92492 0.78059 0.44646 2.00400
Eu	Eu	0.92492 0.21941 0.05355 2.00000
Eu	Eu	0.57508 0.71941 0.94646 2.00200
Eu	Eu	0.07508 0.78059 0.94646 2.00000
Eu	Eu	0.42492 0.28059 0.05355 2.00300
H 	H 	0.12200 0.67270 0.78970 0.00100
H 	H 	0.84380 0.25960 0.22600 0.01300
H 	H 	0.54230 0.81660 0.09330 0.12800
H 	H 	0.69940 0.23150 0.79600 0.00200
H 	H 	0.87800 0.32730 0.21030 0.00100
H 	H 	0.96200 0.26630 0.35970 0.13800
H 	H 	0.34380 0.24040 0.22600 0.01300
H 	H 	0.38800 0.17920 0.20600 0.10600
H 	H 	0.17000 0.11510 0.28620 0.04600
H 	H 	0.66590 0.31920 0.28310 -0.02200
H 	H 	0.53800 0.76630 0.64030 0.13800
H 	H 	0.11200 0.32080 0.70600 0.10600
H 	H 	0.16210 0.81470 0.20240 0.06900
H 	H 	0.33410 0.68080 0.71690 -0.02200
H 	H 	0.64730 0.96350 0.51460 0.01500
H 	H 	0.19940 0.73150 0.70400 0.00200
H 	H 	0.03800 0.26630 0.85970 0.13800
H 	H 	0.92380 0.54290 0.89820 0.15800
H 	H 	0.63480 0.11100 0.85850 0.01900
H 	H 	0.50970 0.85960 0.69430 0.01100
H 	H 	0.50970 0.14040 0.80570 0.01100
H 	H 	0.88510 0.43770 0.08250 0.14800
H 	H 	0.65620 0.75960 0.77400 0.01300
H 	H 	0.83410 0.18080 0.78310 -0.02200
H 	H 	0.63480 0.88900 0.64150 0.01900
H 	H 	0.17000 0.88490 0.21380 0.04600
H 	H 	0.38800 0.82080 0.29400 0.10600
H 	H 	0.83410 0.81920 0.71690 -0.02200
H 	H 	0.36520 0.11100 0.35850 0.01900
H 	H 	0.46200 0.23370 0.35970 0.13800
H 	H 	0.35270 0.03650 0.48540 0.01500
H 	H 	0.33790 0.68530 0.70240 0.06900
H 	H 	0.03800 0.73370 0.64030 0.13800
H 	H 	0.04230 0.31660 0.40670 0.12800
H 	H 	0.53800 0.23370 0.85970 0.13800
H 	H 	0.66210 0.68530 0.20240 0.07000
H 	H 	0.92380 0.45710 0.60180 0.15900
H 	H 	0.16590 0.81920 0.21690 -0.02200
H 	H 	0.42380 0.95710 0.89820 0.15900
H 	H 	0.86520 0.61100 0.14150 0.01900
H 	H 	0.88800 0.32080 0.20600 0.10600
H 	H 	0.36520 0.88900 0.14150 0.01900
H 	H 	0.66210 0.31470 0.29760 0.06900
H 	H 	0.61200 0.17920 0.70600 0.10600
H 	H 	0.77380 0.62250 0.31170 0.10900
H 	H 	0.14730 0.53650 0.51460 0.01500
H 	H 	0.67000 0.61510 0.21380 0.04600
H 	H 	0.13480 0.38900 0.85850 0.01900
H 	H 	0.07620 0.45710 0.10180 0.15800
H 	H 	0.83000 0.88490 0.71380 0.04600
H 	H 	0.67000 0.38490 0.28620 0.04600
H 	H 	0.96200 0.73370 0.14030 0.13800
H 	H 	0.27380 0.87750 0.31170 0.10900
H 	H 	0.77380 0.37750 0.18830 0.10900
H 	H 	0.86520 0.38900 0.35850 0.01900
H 	H 	0.11200 0.67920 0.79400 0.10600
H 	H 	0.45540 0.94520 0.53340 0.01200
H 	H 	0.16590 0.18080 0.28310 -0.02200
H 	H 	0.16210 0.18530 0.29760 0.06900
H 	H 	0.83790 0.81470 0.70240 0.06900
H 	H 	0.65620 0.24040 0.72600 0.01300
H 	H 	0.00970 0.64040 0.69430 0.01100
H 	H 	0.30060 0.23150 0.29600 0.00200
H 	H 	0.33000 0.61510 0.71380 0.04600
H 	H 	0.95540 0.44520 0.96660 0.01300
H 	H 	0.88800 0.67920 0.29400 0.10600
H 	H 	0.72620 0.12250 0.68830 0.10900
H 	H 	0.27380 0.12250 0.18830 0.10900
H 	H 	0.22620 0.37750 0.68830 0.10900
H 	H 	0.57620 0.04290 0.10180 0.15900
H 	H 	0.88510 0.56230 0.41750 0.14900
H 	H 	0.49030 0.85960 0.19430 0.01100
H 	H 	0.54230 0.18340 0.40670 0.12800
H 	H 	0.33410 0.31920 0.78310 -0.02200
H 	H 	0.04230 0.68340 0.09330 0.12900
H 	H 	0.66590 0.68080 0.21690 -0.02200
H 	H 	0.15620 0.25960 0.72600 0.01300
H 	H 	0.15620 0.74040 0.77400 0.01300
H 	H 	0.19940 0.26850 0.79600 0.00200
H 	H 	0.45770 0.18340 0.90670 0.12800
H 	H 	0.64730 0.03650 0.98540 0.01600
H 	H 	0.95770 0.68340 0.59330 0.12800
H 	H 	0.11490 0.56230 0.91750 0.14800
H 	H 	0.34380 0.75960 0.27400 0.01300
H 	H 	0.61490 0.93770 0.91750 0.15000
H 	H 	0.37800 0.82730 0.28970 0.00100
H 	H 	0.12200 0.32730 0.71030 0.00000
H 	H 	0.83000 0.11510 0.78620 0.04600
H 	H 	0.00970 0.35960 0.80570 0.01100
H 	H 	0.85270 0.46350 0.48540 0.01500
H 	H 	0.37800 0.17270 0.21030 0.00100
H 	H 	0.80060 0.26850 0.29600 0.00200
H 	H 	0.80060 0.73150 0.20400 0.00200
H 	H 	0.04460 0.55480 0.03340 0.01300
H 	H 	0.72620 0.87750 0.81170 0.10900
H 	H 	0.46200 0.76630 0.14030 0.13800
H 	H 	0.54460 0.94520 0.03340 0.01200
H 	H 	0.35270 0.96350 0.01460 0.01600
H 	H 	0.38510 0.06230 0.08250 0.15000
H 	H 	0.69940 0.76850 0.70400 0.00200
H 	H 	0.95770 0.31660 0.90670 0.12900
H 	H 	0.30060 0.76850 0.20400 0.00200
H 	H 	0.95540 0.55480 0.53340 0.01200
H 	H 	0.61200 0.82080 0.79400 0.10600
H 	H 	0.87800 0.67270 0.28970 0.00000
H 	H 	0.85270 0.53650 0.01460 0.01600
H 	H 	0.38510 0.93770 0.41750 0.14900
H 	H 	0.62200 0.17270 0.71030 0.00100
H 	H 	0.99030 0.64040 0.19430 0.01100
H 	H 	0.62200 0.82730 0.78970 0.00100
H 	H 	0.61490 0.06230 0.58250 0.14900
H 	H 	0.84380 0.74040 0.27400 0.01300
H 	H 	0.54460 0.05480 0.46660 0.01200
H 	H 	0.45770 0.81660 0.59330 0.12800
H 	H 	0.13480 0.61100 0.64150 0.01900
H 	H 	0.83790 0.18530 0.79760 0.06900
H 	H 	0.22620 0.62250 0.81170 0.10900
H 	H 	0.49030 0.14040 0.30570 0.01100
H 	H 	0.42380 0.04290 0.60180 0.15900
H 	H 	0.11490 0.43770 0.58250 0.14900
H 	H 	0.14730 0.46350 0.98540 0.01600
H 	H 	0.99030 0.35960 0.30570 0.01100
H 	H 	0.57620 0.95710 0.39820 0.15900
H 	H 	0.33000 0.38490 0.78620 0.04600
H 	H 	0.07620 0.54290 0.39820 0.15900
H 	H 	0.33790 0.31470 0.79760 0.07000
H 	H 	0.04460 0.44520 0.46660 0.01200
H 	H 	0.45540 0.05480 0.96660 0.01200
C 	C 	0.43610 0.80380 0.11610 -0.38500
C 	C 	0.02640 0.53340 0.50020 0.02100
C 	C 	0.21000 0.70040 0.77230 -0.00400
C 	C 	0.71000 0.20040 0.72770 -0.00400
C 	C 	0.11390 0.64790 0.66740 0.02300
C 	C 	0.78800 0.30880 0.27600 0.02500
C 	C 	0.43610 0.19620 0.38390 -0.38600
C 	C 	0.23700 0.15240 0.28240 -0.05500
C 	C 	0.77100 0.33800 0.20990 -0.31800
C 	C 	0.06390 0.30380 0.88390 -0.38600
C 	C 	0.64890 0.29690 0.16700 0.43700
C 	C 	0.52640 0.03340 0.99980 0.02400
C 	C 	0.73700 0.65240 0.21760 -0.05500
C 	C 	0.11390 0.35210 0.83260 0.02400
C 	C 	0.50640 0.06440 0.06830 -0.45800
C 	C 	0.97360 0.46660 0.49980 0.02100
C 	C 	0.88610 0.64790 0.16740 0.02400
C 	C 	0.21200 0.30880 0.77600 0.02500
C 	C 	0.21200 0.69120 0.72400 0.02500
C 	C 	0.02640 0.46660 0.99980 0.01900
C 	C 	0.00640 0.43560 0.06830 -0.45200
C 	C 	0.93610 0.30380 0.38390 -0.38500
C 	C 	0.56390 0.19620 0.88390 -0.38500
C 	C 	0.29000 0.20040 0.22770 -0.00400
C 	C 	0.72900 0.16200 0.70990 -0.31800
C 	C 	0.71200 0.19120 0.77600 0.02500
C 	C 	0.00640 0.56440 0.43170 -0.45400
C 	C 	0.21000 0.29960 0.72770 -0.00400
C 	C 	0.79800 0.29020 0.43770 0.46200
C 	C 	0.29000 0.79960 0.27230 -0.00400
C 	C 	0.22900 0.66200 0.79010 -0.31800
C 	C 	0.47360 0.03340 0.49980 0.02100
C 	C 	0.71000 0.79960 0.77230 -0.00400
C 	C 	0.73700 0.34760 0.28240 -0.05400
C 	C 	0.20200 0.70980 0.56230 0.46200
C 	C 	0.38610 0.14790 0.33260 0.02400
C 	C 	0.29800 0.79020 0.06230 0.46200
C 	C 	0.38610 0.85210 0.16740 0.02300
C 	C 	0.71200 0.80880 0.72400 0.02500
C 	C 	0.20200 0.29020 0.93770 0.46200
C 	C 	0.06260 0.37040 0.06550 0.54400
C 	C 	0.85110 0.79690 0.83300 0.43800
C 	C 	0.56260 0.87040 0.43450 0.54400
C 	C 	0.97360 0.53340 0.00020 0.01900
C 	C 	0.06390 0.69620 0.61610 -0.38400
C 	C 	0.14890 0.79690 0.33300 0.43700
C 	C 	0.61390 0.14790 0.83260 0.02300
C 	C 	0.26300 0.65240 0.71760 -0.05400
C 	C 	0.27100 0.83800 0.29010 -0.31800
C 	C 	0.64890 0.70310 0.33300 0.43700
C 	C 	0.76300 0.15240 0.78240 -0.05500
C 	C 	0.49360 0.06440 0.56830 -0.45400
C 	C 	0.14890 0.20310 0.16700 0.43800
C 	C 	0.56390 0.80380 0.61610 -0.38600
C 	C 	0.26300 0.34760 0.78240 -0.05500
C 	C 	0.99360 0.43560 0.56830 -0.45400
C 	C 	0.72900 0.83800 0.79010 -0.31800
C 	C 	0.28800 0.19120 0.27600 0.02500
C 	C 	0.43740 0.12960 0.56550 0.54400
C 	C 	0.29800 0.20980 0.43770 0.46300
C 	C 	0.06260 0.62960 0.43450 0.54500
C 	C 	0.50640 0.93560 0.43170 -0.45400
C 	C 	0.56260 0.12960 0.06550 0.54500
C 	C 	0.78800 0.69120 0.22400 0.02500
C 	C 	0.79000 0.70040 0.27230 -0.00400
C 	C 	0.93740 0.37040 0.56550 0.54500
C 	C 	0.70200 0.79020 0.56230 0.46300
C 	C 	0.76300 0.84760 0.71760 -0.05500
C 	C 	0.52640 0.96660 0.50020 0.02100
C 	C 	0.49360 0.93560 0.93170 -0.45800
C 	C 	0.35110 0.29690 0.66700 0.43700
C 	C 	0.85110 0.20310 0.66700 0.43700
C 	C 	0.43740 0.87040 0.93450 0.54500
C 	C 	0.77100 0.66200 0.29010 -0.31800
C 	C 	0.70200 0.20980 0.93770 0.46200
C 	C 	0.88610 0.35210 0.33260 0.02300
C 	C 	0.79000 0.29960 0.22770 -0.00400
C 	C 	0.93740 0.62960 0.93450 0.54400
C 	C 	0.47360 0.96660 0.00020 0.02400
C 	C 	0.99360 0.56440 0.93170 -0.45200
C 	C 	0.61390 0.85210 0.66740 0.02400
C 	C 	0.93610 0.69620 0.11610 -0.38600
C 	C 	0.79800 0.70980 0.06230 0.46200
C 	C 	0.22900 0.33800 0.70990 -0.31800
C 	C 	0.35110 0.70310 0.83300 0.43700
C 	C 	0.27100 0.16200 0.20990 -0.31800
C 	C 	0.23700 0.84760 0.21760 -0.05500
C 	C 	0.28800 0.80880 0.22400 0.02500
O 	O 	0.22420 0.35940 0.07190 -0.54300
O 	O 	0.16010 0.18080 0.43900 -0.47700
O 	O 	0.99890 0.81730 0.32820 -0.45300
O 	O 	0.33990 0.31920 0.93900 -0.47700
O 	O 	0.05290 0.33040 0.55480 -0.53100
O 	O 	0.49890 0.68270 0.32820 -0.45300
O 	O 	0.33080 0.25160 0.48120 -0.62000
O 	O 	0.16920 0.24840 0.98120 -0.61800
O 	O 	0.99890 0.18270 0.17180 -0.45300
O 	O 	0.69480 0.73920 0.37940 -0.63300
O 	O 	0.30520 0.73920 0.87940 -0.63300
O 	O 	0.83990 0.81920 0.56100 -0.47700
O 	O 	0.33990 0.68080 0.56100 -0.47700
O 	O 	0.05290 0.66960 0.94520 -0.53100
O 	O 	0.50110 0.31730 0.67180 -0.45300
O 	O 	0.80520 0.23920 0.62060 -0.63300
O 	O 	0.33080 0.74840 0.01880 -0.61800
O 	O 	0.80520 0.76080 0.87940 -0.63300
O 	O 	0.49890 0.31730 0.17180 -0.45300
O 	O 	0.16010 0.81920 0.06100 -0.47600
O 	O 	0.83080 0.24840 0.48120 -0.62000
O 	O 	0.27580 0.14060 0.57190 -0.54300
O 	O 	0.44710 0.16960 0.05480 -0.53100
O 	O 	0.69480 0.26080 0.12060 -0.63300
O 	O 	0.22420 0.64060 0.42810 -0.54300
O 	O 	0.44710 0.83040 0.44520 -0.53100
O 	O 	0.83990 0.18080 0.93900 -0.47600
O 	O 	0.83080 0.75160 0.01880 -0.61800
O 	O 	0.72420 0.14060 0.07190 -0.54300
O 	O 	0.66010 0.31920 0.43900 -0.47700
O 	O 	0.66010 0.68080 0.06100 -0.47700
O 	O 	0.00110 0.81730 0.82820 -0.45300
O 	O 	0.30520 0.26080 0.62060 -0.63300
O 	O 	0.19480 0.76080 0.37940 -0.63300
O 	O 	0.94710 0.33040 0.05480 -0.53100
O 	O 	0.72420 0.85940 0.42810 -0.54300
O 	O 	0.66920 0.25160 0.98120 -0.61800
O 	O 	0.27580 0.85940 0.92810 -0.54300
O 	O 	0.77580 0.35940 0.57190 -0.54300
O 	O 	0.00110 0.18270 0.67180 -0.45300
O 	O 	0.77580 0.64060 0.92810 -0.54300
O 	O 	0.55290 0.83040 0.94520 -0.53100
O 	O 	0.50110 0.68270 0.82820 -0.45300
O 	O 	0.94710 0.66960 0.44520 -0.53100
O 	O 	0.55290 0.16960 0.55480 -0.53100
O 	O 	0.19480 0.23920 0.12060 -0.63300
O 	O 	0.66920 0.74840 0.51880 -0.62000
O 	O 	0.16920 0.75160 0.51880 -0.62000
