data_crystal

_cell_length_a 17.42590
_cell_length_b 17.42590
_cell_length_c 17.42590
_cell_angle_alpha 60.00000
_cell_angle_beta  60.00000
_cell_angle_gamma 60.00000

_symmetry_space_group_name_	'P 1'
_symmetry_space_group_name_H-M	'P 1'

loop_
_symmetry_equiv_pos_as_xyz
  x,y,z

loop_
_atom_site_label
_atom_site_type_symbol
_atom_site_fract_x
_atom_site_fract_y
_atom_site_fract_z
_atom_site_charge
Cu	Cu	0.86225 0.75000 0.13775 0.84600
Cu	Cu	0.75000 0.13775 0.75000 0.84600
Cu	Cu	0.75000 0.36225 0.13775 0.84600
Cu	Cu	0.63775 0.25000 0.36225 0.84600
Cu	Cu	0.25000 0.13775 0.36225 0.84600
Cu	Cu	0.75000 0.75000 0.36225 0.84600
Cu	Cu	0.25000 0.63775 0.86225 0.84600
Cu	Cu	0.75000 0.86225 0.63775 0.84600
Cu	Cu	0.25000 0.86225 0.25000 0.84600
Cu	Cu	0.86225 0.13775 0.25000 0.84600
Cu	Cu	0.25000 0.25000 0.13775 0.84700
Cu	Cu	0.86225 0.25000 0.75000 0.84700
Cu	Cu	0.75000 0.63775 0.75000 0.84700
Cu	Cu	0.36225 0.25000 0.75000 0.84700
Cu	Cu	0.13775 0.75000 0.25000 0.84700
Cu	Cu	0.63775 0.75000 0.25000 0.84700
Cu	Cu	0.25000 0.36225 0.25000 0.84700
Cu	Cu	0.13775 0.86225 0.75000 0.84700
Cu	Cu	0.25000 0.25000 0.63775 0.84700
Cu	Cu	0.36225 0.63775 0.25000 0.84700
Cu	Cu	0.36225 0.75000 0.63775 0.84700
Cu	Cu	0.63775 0.36225 0.75000 0.84700
Cu	Cu	0.13775 0.25000 0.86225 0.84700
Cu	Cu	0.75000 0.75000 0.86225 0.84700
H 	H 	0.26720 0.11660 0.54960 -0.04900
H 	H 	0.61660 0.06660 0.54960 -0.04900
H 	H 	0.61660 0.54960 0.76720 -0.04800
H 	H 	0.06660 0.26720 0.61660 -0.04800
H 	H 	0.56660 0.11660 0.76720 -0.04800
H 	H 	0.23280 0.43340 0.95040 -0.04800
H 	H 	0.11660 0.04960 0.56660 -0.04800
H 	H 	0.93340 0.95040 0.73280 -0.04800
H 	H 	0.11660 0.26720 0.04960 -0.04800
H 	H 	0.45040 0.43340 0.38340 -0.04800
H 	H 	0.76720 0.56660 0.04960 -0.04800
H 	H 	0.06660 0.61660 0.04960 -0.04800
H 	H 	0.04960 0.11660 0.06660 -0.04800
H 	H 	0.88340 0.43340 0.73280 -0.04800
H 	H 	0.73280 0.45040 0.93340 -0.04800
H 	H 	0.76720 0.61660 0.56660 -0.04800
H 	H 	0.73280 0.93340 0.88340 -0.04800
H 	H 	0.88340 0.73280 0.95040 -0.04800
H 	H 	0.38340 0.23280 0.93340 -0.04900
H 	H 	0.04960 0.06660 0.76720 -0.04800
H 	H 	0.56660 0.54960 0.11660 -0.04800
H 	H 	0.56660 0.76720 0.54960 -0.04800
H 	H 	0.26720 0.54960 0.06660 -0.04800
H 	H 	0.45040 0.73280 0.43340 -0.04800
H 	H 	0.43340 0.88340 0.23280 -0.04800
H 	H 	0.38340 0.93340 0.45040 -0.04900
H 	H 	0.43340 0.23280 0.45040 -0.04800
H 	H 	0.93340 0.38340 0.95040 -0.04800
H 	H 	0.76720 0.04960 0.61660 -0.04900
H 	H 	0.45040 0.38340 0.73280 -0.04800
H 	H 	0.54960 0.56660 0.61660 -0.04800
H 	H 	0.95040 0.93340 0.23280 -0.04800
H 	H 	0.23280 0.38340 0.43340 -0.04800
H 	H 	0.54960 0.61660 0.26720 -0.04800
H 	H 	0.54960 0.26720 0.56660 -0.04800
H 	H 	0.38340 0.45040 0.23280 -0.04800
H 	H 	0.73280 0.88340 0.45040 -0.04900
H 	H 	0.26720 0.06660 0.11660 -0.04800
H 	H 	0.95040 0.88340 0.93340 -0.04800
H 	H 	0.11660 0.56660 0.26720 -0.04800
H 	H 	0.88340 0.95040 0.43340 -0.04800
H 	H 	0.93340 0.73280 0.38340 -0.04800
H 	H 	0.61660 0.76720 0.06660 -0.04900
H 	H 	0.06660 0.04960 0.26720 -0.04800
H 	H 	0.23280 0.95040 0.38340 -0.04900
H 	H 	0.04960 0.76720 0.11660 -0.04800
H 	H 	0.95040 0.23280 0.88340 -0.04800
H 	H 	0.43340 0.45040 0.88340 -0.04800
C 	C 	0.50694 0.25916 0.55634 0.08700
C 	C 	0.05634 0.00694 0.25916 0.08400
C 	C 	0.44366 0.49306 0.82244 0.08700
C 	C 	0.75916 0.55634 0.00694 0.08800
C 	C 	0.50694 0.67756 0.25916 0.08700
C 	C 	0.99306 0.94366 0.24084 0.08600
C 	C 	0.74084 0.82244 0.49306 0.08700
C 	C 	0.49306 0.32244 0.74084 0.08700
C 	C 	0.94366 0.74084 0.32244 0.08700
C 	C 	0.44366 0.82244 0.24084 0.08700
C 	C 	0.05634 0.25916 0.67756 0.08700
C 	C 	0.00694 0.17756 0.05634 0.08400
C 	C 	0.17756 0.55634 0.25916 0.08700
C 	C 	0.00694 0.75916 0.17756 0.08700
C 	C 	0.67756 0.50694 0.75916 0.08700
C 	C 	0.99306 0.24084 0.82244 0.08700
C 	C 	0.82244 0.44366 0.74084 0.08700
C 	C 	0.24084 0.99306 0.32244 0.08800
C 	C 	0.32244 0.24084 0.94366 0.08800
C 	C 	0.24084 0.44366 0.99306 0.08800
C 	C 	0.94366 0.32244 0.99306 0.08600
C 	C 	0.17756 0.25916 0.00694 0.08600
C 	C 	0.25916 0.50694 0.05634 0.08700
C 	C 	0.50694 0.55634 0.67756 0.08700
C 	C 	0.05634 0.67756 0.00694 0.08600
C 	C 	0.17756 0.00694 0.55634 0.08600
C 	C 	0.74084 0.49306 0.94366 0.08700
C 	C 	0.24084 0.32244 0.44366 0.08700
C 	C 	0.49306 0.74084 0.44366 0.08700
C 	C 	0.74084 0.94366 0.82244 0.08600
C 	C 	0.94366 0.99306 0.74084 0.08400
C 	C 	0.25916 0.05634 0.17756 0.08600
C 	C 	0.25916 0.17756 0.50694 0.08700
C 	C 	0.44366 0.24084 0.49306 0.08700
C 	C 	0.00694 0.05634 0.75916 0.08600
C 	C 	0.82244 0.99306 0.44366 0.08600
C 	C 	0.49306 0.44366 0.32244 0.08700
C 	C 	0.75916 0.67756 0.55634 0.08700
C 	C 	0.32244 0.94366 0.49306 0.08800
C 	C 	0.99306 0.82244 0.94366 0.08400
C 	C 	0.67756 0.05634 0.50694 0.08800
C 	C 	0.82244 0.74084 0.99306 0.08600
C 	C 	0.67756 0.75916 0.05634 0.08800
C 	C 	0.55634 0.75916 0.50694 0.08700
C 	C 	0.55634 0.50694 0.17756 0.08700
C 	C 	0.32244 0.49306 0.24084 0.08700
C 	C 	0.55634 0.17756 0.75916 0.08700
C 	C 	0.75916 0.00694 0.67756 0.08800
N 	N 	0.75000 0.97688 0.52312 -0.25900
N 	N 	0.75000 0.02312 0.75000 -0.25800
N 	N 	0.38228 0.57626 0.79674 -0.22900
N 	N 	0.79674 0.38228 0.74472 -0.22900
N 	N 	0.11772 0.92374 0.25528 -0.22800
N 	N 	0.20326 0.25528 0.92374 -0.22900
N 	N 	0.38228 0.24472 0.57626 -0.22900
N 	N 	0.25000 0.25000 0.52312 -0.25800
N 	N 	0.42374 0.25528 0.61772 -0.22900
N 	N 	0.02312 0.97688 0.75000 -0.25700
N 	N 	0.42374 0.61772 0.70326 -0.22900
N 	N 	0.25528 0.20326 0.42374 -0.22900
N 	N 	0.02312 0.75000 0.25000 -0.25800
N 	N 	0.75528 0.70326 0.61772 -0.22900
N 	N 	0.79674 0.07626 0.38228 -0.22900
N 	N 	0.70326 0.11772 0.42374 -0.22900
N 	N 	0.24472 0.07626 0.29674 -0.23000
N 	N 	0.74472 0.88228 0.79674 -0.22900
N 	N 	0.07626 0.88228 0.24472 -0.22900
N 	N 	0.25000 0.02312 0.47688 -0.25900
N 	N 	0.42374 0.70326 0.25528 -0.22900
N 	N 	0.07626 0.24472 0.79674 -0.22900
N 	N 	0.97688 0.75000 0.02312 -0.25700
N 	N 	0.29674 0.57626 0.24472 -0.22900
N 	N 	0.29674 0.88228 0.57626 -0.22900
N 	N 	0.38228 0.79674 0.24472 -0.22900
N 	N 	0.74472 0.57626 0.88228 -0.22900
N 	N 	0.75528 0.92374 0.70326 -0.23000
N 	N 	0.25528 0.42374 0.11772 -0.22900
N 	N 	0.52312 0.47688 0.75000 -0.25800
N 	N 	0.79674 0.74472 0.07626 -0.22900
N 	N 	0.47688 0.75000 0.52312 -0.25800
N 	N 	0.47688 0.52312 0.25000 -0.25800
N 	N 	0.24472 0.29674 0.38228 -0.22900
N 	N 	0.61772 0.20326 0.75528 -0.22900
N 	N 	0.75000 0.52312 0.75000 -0.25800
N 	N 	0.75000 0.75000 0.97688 -0.25900
N 	N 	0.25000 0.25000 0.02312 -0.25900
N 	N 	0.70326 0.42374 0.75528 -0.22900
N 	N 	0.52312 0.25000 0.47688 -0.25800
N 	N 	0.92374 0.75528 0.20326 -0.22900
N 	N 	0.29674 0.24472 0.88228 -0.22900
N 	N 	0.11772 0.25528 0.70326 -0.22900
N 	N 	0.88228 0.74472 0.29674 -0.22900
N 	N 	0.25528 0.11772 0.20326 -0.22900
N 	N 	0.92374 0.11772 0.75528 -0.22900
N 	N 	0.25000 0.52312 0.97688 -0.25800
N 	N 	0.02312 0.25000 0.97688 -0.25700
N 	N 	0.47688 0.25000 0.75000 -0.25800
N 	N 	0.75000 0.75000 0.47688 -0.25800
N 	N 	0.88228 0.07626 0.74472 -0.22800
N 	N 	0.25000 0.97688 0.25000 -0.25800
N 	N 	0.92374 0.20326 0.11772 -0.22800
N 	N 	0.07626 0.79674 0.88228 -0.22800
N 	N 	0.57626 0.38228 0.29674 -0.22900
N 	N 	0.20326 0.92374 0.61772 -0.22900
N 	N 	0.20326 0.61772 0.25528 -0.22900
N 	N 	0.24472 0.38228 0.07626 -0.23000
N 	N 	0.57626 0.74472 0.38228 -0.22900
N 	N 	0.74472 0.79674 0.57626 -0.22900
N 	N 	0.57626 0.29674 0.74472 -0.22900
N 	N 	0.61772 0.42374 0.20326 -0.22900
N 	N 	0.11772 0.70326 0.92374 -0.22900
N 	N 	0.88228 0.29674 0.07626 -0.22900
N 	N 	0.97688 0.02312 0.25000 -0.25700
N 	N 	0.75000 0.47688 0.02312 -0.25800
N 	N 	0.75528 0.61772 0.92374 -0.23000
N 	N 	0.70326 0.75528 0.11772 -0.22900
N 	N 	0.52312 0.75000 0.25000 -0.25800
N 	N 	0.61772 0.75528 0.42374 -0.22900
N 	N 	0.97688 0.25000 0.75000 -0.25800
N 	N 	0.25000 0.47688 0.25000 -0.25800
O 	O 	0.25000 0.25000 0.25000 -0.62300
O 	O 	0.25000 0.75000 0.75000 -0.62300
O 	O 	0.75000 0.25000 0.25000 -0.62300
O 	O 	0.25000 0.25000 0.75000 -0.62300
O 	O 	0.25000 0.75000 0.25000 -0.62300
O 	O 	0.75000 0.75000 0.75000 -0.62300
O 	O 	0.75000 0.25000 0.75000 -0.62300
O 	O 	0.75000 0.75000 0.25000 -0.62300
