data_crystal

_cell_length_a 8.85400
_cell_length_b 9.81500
_cell_length_c 13.47400
_cell_angle_alpha 90.00000
_cell_angle_beta  90.00000
_cell_angle_gamma 98.52300

_symmetry_space_group_name_	'P 1'
_symmetry_space_group_name_H-M	'P 1'

loop_
_symmetry_equiv_pos_as_xyz
  x,y,z

loop_
_atom_site_label
_atom_site_type_symbol
_atom_site_fract_x
_atom_site_fract_y
_atom_site_fract_z
_atom_site_charge
Zn	Zn	0.36299 0.42426 0.64038 1.23700
Zn	Zn	0.63701 0.07574 0.14038 1.23600
Zn	Zn	0.36299 0.92426 0.85962 1.23600
Zn	Zn	0.63701 0.57574 0.35962 1.23700
P 	P 	0.29781 0.50345 0.41859 0.50100
P 	P 	0.70219 0.99655 0.91859 0.49200
P 	P 	0.70219 0.49655 0.58141 0.50100
P 	P 	0.29781 0.00345 0.08141 0.49200
P 	P 	0.77191 0.31714 0.28069 0.46100
P 	P 	0.22809 0.68286 0.71931 0.46100
P 	P 	0.77191 0.81714 0.21931 0.46000
P 	P 	0.22809 0.18286 0.78069 0.46000
H 	H 	0.87110 0.97230 0.79270 0.15000
H 	H 	0.96020 0.01010 0.89190 0.14300
H 	H 	0.06000 0.26060 0.37490 -0.00300
H 	H 	0.98760 0.84950 0.31650 0.15600
H 	H 	0.17990 0.29080 0.28920 -0.00300
H 	H 	0.06000 0.76060 0.12510 -0.00000
H 	H 	0.01240 0.65050 0.81650 0.15600
H 	H 	0.94000 0.73940 0.62510 -0.00300
H 	H 	0.12890 0.02770 0.20730 0.15000
H 	H 	0.03980 0.98990 0.10810 0.14300
H 	H 	0.03980 0.48990 0.39190 0.14600
H 	H 	0.71000 0.34040 0.48780 0.28200
H 	H 	0.04630 0.30400 0.71800 0.13700
H 	H 	0.98760 0.34950 0.18350 0.15600
H 	H 	0.94000 0.23940 0.87490 -0.00000
H 	H 	0.95370 0.19600 0.21800 0.13700
H 	H 	0.96020 0.51010 0.60810 0.14600
H 	H 	0.87110 0.47230 0.70730 0.15800
H 	H 	0.29000 0.65960 0.51220 0.28200
H 	H 	0.17990 0.79080 0.21080 0.00000
H 	H 	0.82010 0.20920 0.78920 0.00000
H 	H 	0.71000 0.84040 0.01220 0.28800
H 	H 	0.12890 0.52770 0.29270 0.15800
H 	H 	0.95370 0.69600 0.28200 0.13700
H 	H 	0.82010 0.70920 0.71080 -0.00300
H 	H 	0.04630 0.80400 0.78200 0.13700
H 	H 	0.01240 0.15050 0.68350 0.15600
H 	H 	0.29000 0.15960 0.98780 0.28800
C 	C 	0.87710 0.53160 0.64939 -0.37400
C 	C 	0.91210 0.18200 0.81717 0.16400
C 	C 	0.04040 0.70940 0.75960 -0.38000
C 	C 	0.95960 0.79060 0.25960 -0.37700
C 	C 	0.91210 0.68200 0.68283 0.17200
C 	C 	0.12290 0.96840 0.14939 -0.35700
C 	C 	0.95960 0.29060 0.24040 -0.38000
C 	C 	0.87710 0.03160 0.85061 -0.35700
C 	C 	0.12290 0.46840 0.35061 -0.37400
C 	C 	0.08790 0.31800 0.31717 0.17200
C 	C 	0.04040 0.20940 0.74040 -0.37700
C 	C 	0.08790 0.81800 0.18283 0.16400
O 	O 	0.71037 0.09534 0.00523 -0.46100
O 	O 	0.57383 0.00786 0.84612 -0.42300
O 	O 	0.31420 0.65700 0.45360 -0.47800
O 	O 	0.73505 0.74268 0.12103 -0.27400
O 	O 	0.33787 0.24042 0.69717 -0.41200
O 	O 	0.68580 0.84300 0.95360 -0.48400
O 	O 	0.66213 0.75958 0.30283 -0.41200
O 	O 	0.26495 0.75732 0.62103 -0.27400
O 	O 	0.33787 0.74042 0.80283 -0.41300
O 	O 	0.57383 0.50786 0.65388 -0.42900
O 	O 	0.42617 0.49214 0.34612 -0.42900
O 	O 	0.42617 0.99214 0.15388 -0.42300
O 	O 	0.26495 0.25732 0.87897 -0.27400
O 	O 	0.28963 0.90466 0.99477 -0.46100
O 	O 	0.31420 0.15700 0.04640 -0.48400
O 	O 	0.68580 0.34300 0.54640 -0.47800
O 	O 	0.77053 0.47222 0.28751 -0.43800
O 	O 	0.22947 0.02778 0.78751 -0.43600
O 	O 	0.28963 0.40466 0.50523 -0.46000
O 	O 	0.77053 0.97222 0.21249 -0.43600
O 	O 	0.66213 0.25958 0.19717 -0.41300
O 	O 	0.22947 0.52778 0.71249 -0.43800
O 	O 	0.71037 0.59534 0.49477 -0.46000
O 	O 	0.73505 0.24268 0.37897 -0.27400
