data_crystal

_cell_length_a 20.03400
_cell_length_b 20.03380
_cell_length_c 20.03380
_cell_angle_alpha 109.47100
_cell_angle_beta  109.47100
_cell_angle_gamma 109.47100

_symmetry_space_group_name_	'P 1'
_symmetry_space_group_name_H-M	'P 1'

loop_
_symmetry_equiv_pos_as_xyz
  x,y,z

loop_
_atom_site_label
_atom_site_type_symbol
_atom_site_fract_x
_atom_site_fract_y
_atom_site_fract_z
_atom_site_charge
Ni	Ni	0.00000 0.50000 -0.00000 1.09700
Ni	Ni	0.50000 0.50000 0.50000 1.13000
Ni	Ni	0.50000 0.00000 -0.00000 1.09700
Ni	Ni	0.00000 0.00000 0.50000 1.09700
H 	H 	0.08050 0.33540 0.96650 0.07900
H 	H 	0.42390 0.72130 0.61460 0.06100
H 	H 	0.06430 0.73010 0.88520 0.04300
H 	H 	0.19070 0.29740 0.57610 0.05600
H 	H 	0.66580 0.93570 0.82090 0.09900
H 	H 	0.61460 0.42390 0.72130 0.06200
H 	H 	0.88520 0.15510 0.82090 0.07400
H 	H 	0.25490 0.36890 0.33540 0.02300
H 	H 	0.80680 0.89830 0.38310 0.04500
H 	H 	0.11400 0.03350 0.36890 -0.03700
H 	H 	0.27870 0.70260 0.89330 0.07300
H 	H 	0.10670 0.80930 0.38540 0.07000
H 	H 	0.96650 0.08050 0.33540 0.08000
H 	H 	0.57610 0.19070 0.29740 0.05700
H 	H 	0.15510 0.82090 0.88520 0.07400
H 	H 	0.73010 0.88520 0.06430 0.04400
H 	H 	0.70260 0.42390 0.80930 0.07400
H 	H 	0.89830 0.09150 0.51520 0.04700
H 	H 	0.19070 0.61460 0.89330 0.06200
H 	H 	0.63110 0.66460 0.74510 0.03200
H 	H 	0.80930 0.38540 0.10670 0.07000
H 	H 	0.48480 0.10170 0.90850 0.04200
H 	H 	0.84490 0.17910 0.11480 0.05900
H 	H 	0.88520 0.06430 0.73010 0.04400
H 	H 	0.90850 0.48480 0.10170 0.04200
H 	H 	0.82090 0.66580 0.93570 0.10000
H 	H 	0.03350 0.36890 0.11400 -0.03700
H 	H 	0.27870 0.38540 0.57610 0.06900
H 	H 	0.19320 0.57630 0.09150 0.04500
H 	H 	0.66460 0.74510 0.63110 0.03200
H 	H 	0.38540 0.57610 0.27870 0.06900
H 	H 	0.66460 0.03350 0.91950 -0.02100
H 	H 	0.33420 0.06430 0.17910 0.03100
H 	H 	0.74510 0.08050 0.11400 0.02100
H 	H 	0.61690 0.19320 0.10170 0.04400
H 	H 	0.17910 0.11480 0.84490 0.05900
H 	H 	0.36890 0.11400 0.03350 -0.03700
H 	H 	0.10170 0.90850 0.48480 0.04200
H 	H 	0.63110 0.88600 0.96650 0.08800
H 	H 	0.80930 0.70260 0.42390 0.07400
H 	H 	0.51520 0.42370 0.61690 0.04500
H 	H 	0.08050 0.11400 0.74510 0.02100
H 	H 	0.66580 0.84490 0.73010 0.07000
H 	H 	0.33540 0.96650 0.08050 0.08000
H 	H 	0.26990 0.11480 0.93570 0.09100
H 	H 	0.29740 0.10670 0.72130 0.05700
H 	H 	0.70260 0.89330 0.27870 0.07300
H 	H 	0.61690 0.51520 0.42370 0.04500
H 	H 	0.96650 0.63110 0.88600 0.08800
H 	H 	0.42370 0.90850 0.80680 0.04300
H 	H 	0.09150 0.19320 0.57630 0.04500
H 	H 	0.89330 0.19070 0.61460 0.06200
H 	H 	0.09150 0.51520 0.89830 0.04700
H 	H 	0.36890 0.33540 0.25490 0.02300
H 	H 	0.19320 0.10170 0.61690 0.04400
H 	H 	0.42390 0.80930 0.70260 0.07400
H 	H 	0.88600 0.25490 0.91950 0.03400
H 	H 	0.91950 0.88600 0.25490 0.03400
H 	H 	0.84490 0.73010 0.66580 0.07000
H 	H 	0.72130 0.29740 0.10670 0.05700
H 	H 	0.29740 0.57610 0.19070 0.05700
H 	H 	0.80680 0.42370 0.90850 0.04300
H 	H 	0.33420 0.15510 0.26990 0.06300
H 	H 	0.11480 0.93570 0.26990 0.09100
H 	H 	0.26990 0.33420 0.15510 0.06300
H 	H 	0.93570 0.26990 0.11480 0.09100
H 	H 	0.93570 0.82090 0.66580 0.10000
H 	H 	0.48480 0.57630 0.38310 0.04300
H 	H 	0.17910 0.33420 0.06430 0.03100
H 	H 	0.38310 0.48480 0.57630 0.04300
H 	H 	0.38540 0.10670 0.80930 0.07000
H 	H 	0.74510 0.63110 0.66460 0.03200
H 	H 	0.38310 0.80680 0.89830 0.04500
H 	H 	0.51520 0.89830 0.09150 0.04700
H 	H 	0.72130 0.61460 0.42390 0.06200
H 	H 	0.91950 0.66460 0.03350 -0.02100
H 	H 	0.89830 0.38310 0.80680 0.04500
H 	H 	0.82090 0.88520 0.15510 0.07400
H 	H 	0.15510 0.26990 0.33420 0.06300
H 	H 	0.89330 0.27870 0.70260 0.07300
H 	H 	0.90850 0.80680 0.42370 0.04300
H 	H 	0.10670 0.72130 0.29740 0.05700
H 	H 	0.03350 0.91950 0.66460 -0.02100
H 	H 	0.57630 0.09150 0.19320 0.04500
H 	H 	0.57610 0.27870 0.38540 0.06900
H 	H 	0.57630 0.38310 0.48480 0.04300
H 	H 	0.73010 0.66580 0.84490 0.07000
H 	H 	0.42370 0.61690 0.51520 0.04500
H 	H 	0.61460 0.89330 0.19070 0.06200
H 	H 	0.33540 0.25490 0.36890 0.02300
H 	H 	0.88600 0.96650 0.63110 0.08800
H 	H 	0.11480 0.84490 0.17910 0.05900
H 	H 	0.25490 0.91950 0.88600 0.03400
H 	H 	0.10170 0.61690 0.19320 0.04400
H 	H 	0.06430 0.17910 0.33420 0.03100
H 	H 	0.11400 0.74510 0.08050 0.02100
C 	C 	0.54550 0.86120 0.74930 0.07900
C 	C 	0.98650 0.37050 0.10960 0.16000
C 	C 	0.11190 0.86120 0.31570 0.07500
C 	C 	0.26090 0.87690 0.89040 0.07400
C 	C 	0.89280 0.14580 0.61920 -0.06800
C 	C 	0.20380 0.74930 0.88810 0.06300
C 	C 	0.25070 0.11190 0.79620 0.02500
C 	C 	0.10300 0.66280 0.19060 0.01800
C 	C 	0.81630 0.88750 0.20040 -0.12100
C 	C 	0.10300 0.91240 0.44020 0.04200
C 	C 	0.10960 0.73910 0.12310 0.04800
C 	C 	0.87690 0.61600 0.98650 0.16200
C 	C 	0.72640 0.61920 0.47340 -0.08000
C 	C 	0.38410 0.07120 0.18370 -0.05100
C 	C 	0.27360 0.74700 0.89280 -0.09800
C 	C 	0.19060 0.52780 0.08760 0.01000
C 	C 	0.89700 0.08760 0.55980 0.02100
C 	C 	0.13880 0.25070 0.45450 0.00900
C 	C 	0.12310 0.38400 0.01350 -0.04700
C 	C 	0.74930 0.88810 0.20380 0.06300
C 	C 	0.07120 0.68710 0.88750 -0.05300
C 	C 	0.10720 0.72640 0.25300 -0.08100
C 	C 	0.12310 0.10960 0.73910 0.04800
C 	C 	0.61590 0.79960 0.68710 -0.10200
C 	C 	0.38080 0.10720 0.85420 -0.11300
C 	C 	0.47220 0.91240 0.80940 0.05000
C 	C 	0.19060 0.10300 0.66280 0.01800
C 	C 	0.79960 0.68710 0.61590 -0.10200
C 	C 	0.52780 0.33720 0.44020 0.03300
C 	C 	0.74930 0.54550 0.86120 0.07900
C 	C 	0.61590 0.92880 0.81630 -0.16900
C 	C 	0.74700 0.47340 0.85420 -0.11100
C 	C 	0.72640 0.25300 0.10720 -0.08100
C 	C 	0.38080 0.52660 0.27360 -0.09900
C 	C 	0.88750 0.20040 0.81630 -0.12100
C 	C 	0.47220 0.66280 0.55980 0.02700
C 	C 	0.89700 0.33720 0.80940 0.04300
C 	C 	0.38400 0.01350 0.12310 -0.04700
C 	C 	0.37050 0.10960 0.98650 0.16000
C 	C 	0.20040 0.31290 0.38410 -0.12200
C 	C 	0.18370 0.11250 0.79960 -0.10200
C 	C 	0.52660 0.27360 0.38080 -0.09900
C 	C 	0.98650 0.87690 0.61600 0.16200
C 	C 	0.81630 0.61590 0.92880 -0.16900
C 	C 	0.33720 0.80940 0.89700 0.04300
C 	C 	0.38410 0.20040 0.31290 -0.12200
C 	C 	0.45450 0.20380 0.31570 0.05700
C 	C 	0.55980 0.89700 0.08760 0.02100
C 	C 	0.66280 0.19060 0.10300 0.01800
C 	C 	0.88750 0.07120 0.68710 -0.05300
C 	C 	0.11190 0.79620 0.25070 0.02500
C 	C 	0.45450 0.13880 0.25070 0.00900
C 	C 	0.52660 0.14580 0.25300 -0.06800
C 	C 	0.89040 0.01350 0.62950 -0.03000
C 	C 	0.55980 0.47220 0.66280 0.02700
C 	C 	0.74700 0.89280 0.27360 -0.09800
C 	C 	0.88810 0.20380 0.74930 0.06300
C 	C 	0.27360 0.38080 0.52660 -0.09900
C 	C 	0.92880 0.81630 0.61590 -0.16900
C 	C 	0.11250 0.92880 0.31290 -0.17500
C 	C 	0.86120 0.74930 0.54550 0.07900
C 	C 	0.31570 0.11190 0.86120 0.07500
C 	C 	0.10720 0.85420 0.38080 -0.11300
C 	C 	0.38400 0.26090 0.37050 0.06300
C 	C 	0.44020 0.52780 0.33720 0.03300
C 	C 	0.62950 0.61600 0.73910 0.05900
C 	C 	0.79620 0.25070 0.11190 0.02500
C 	C 	0.61920 0.89280 0.14580 -0.06800
C 	C 	0.66280 0.55980 0.47220 0.02700
C 	C 	0.85420 0.74700 0.47340 -0.11100
C 	C 	0.25300 0.10720 0.72640 -0.08100
C 	C 	0.68710 0.88750 0.07120 -0.05300
C 	C 	0.80940 0.47220 0.91240 0.05000
C 	C 	0.31290 0.38410 0.20040 -0.12200
C 	C 	0.26090 0.37050 0.38400 0.06300
C 	C 	0.10960 0.98650 0.37050 0.16000
C 	C 	0.33720 0.44020 0.52780 0.03300
C 	C 	0.14580 0.61920 0.89280 -0.06800
C 	C 	0.61920 0.47340 0.72640 -0.08000
C 	C 	0.85420 0.38080 0.10720 -0.11300
C 	C 	0.87690 0.89040 0.26090 0.07400
C 	C 	0.52780 0.08760 0.19060 0.01000
C 	C 	0.25070 0.45450 0.13880 0.00900
C 	C 	0.18370 0.38410 0.07120 -0.05100
C 	C 	0.01350 0.12310 0.38400 -0.04700
C 	C 	0.61600 0.98650 0.87690 0.16200
C 	C 	0.11250 0.79960 0.18370 -0.10200
C 	C 	0.31290 0.11250 0.92880 -0.17500
C 	C 	0.08760 0.55980 0.89700 0.02100
C 	C 	0.92880 0.31290 0.11250 -0.17500
C 	C 	0.25300 0.52660 0.14580 -0.06800
C 	C 	0.73910 0.62950 0.61600 0.05900
C 	C 	0.20040 0.81630 0.88750 -0.12100
C 	C 	0.91240 0.44020 0.10300 0.04200
C 	C 	0.37050 0.38400 0.26090 0.06300
C 	C 	0.80940 0.89700 0.33720 0.04300
C 	C 	0.54550 0.79620 0.68430 0.03300
C 	C 	0.68430 0.54550 0.79620 0.03300
C 	C 	0.01350 0.62950 0.89040 -0.03000
C 	C 	0.61600 0.73910 0.62950 0.05900
C 	C 	0.68430 0.88810 0.13880 0.01700
C 	C 	0.47340 0.85420 0.74700 -0.11100
C 	C 	0.89040 0.26090 0.87690 0.07400
C 	C 	0.07120 0.18370 0.38410 -0.05100
C 	C 	0.86120 0.31570 0.11190 0.07500
C 	C 	0.79620 0.68430 0.54550 0.03300
C 	C 	0.08760 0.19060 0.52780 0.01000
C 	C 	0.68710 0.61590 0.79960 -0.10200
C 	C 	0.79960 0.18370 0.11250 -0.10200
C 	C 	0.31570 0.45450 0.20380 0.05700
C 	C 	0.44020 0.10300 0.91240 0.04200
C 	C 	0.20380 0.31570 0.45450 0.05700
C 	C 	0.47340 0.72640 0.61920 -0.08000
C 	C 	0.73910 0.12310 0.10960 0.04800
C 	C 	0.14580 0.25300 0.52660 -0.06800
C 	C 	0.89280 0.27360 0.74700 -0.09800
C 	C 	0.88810 0.13880 0.68430 0.01700
C 	C 	0.13880 0.68430 0.88810 0.01700
C 	C 	0.62950 0.89040 0.01350 -0.03000
C 	C 	0.91240 0.80940 0.47220 0.05000
N 	N 	0.12650 0.10090 0.67280 -0.06800
N 	N 	0.42810 0.10090 0.97440 -0.07500
N 	N 	0.97440 0.42810 0.10090 -0.07500
N 	N 	0.67280 0.12650 0.10090 -0.06800
N 	N 	0.89910 0.32720 0.87350 -0.07100
N 	N 	0.54630 0.97440 0.87350 -0.07400
N 	N 	0.32720 0.42810 0.45370 -0.07100
N 	N 	0.42810 0.45370 0.32720 -0.07100
N 	N 	0.89910 0.02560 0.57190 -0.06500
N 	N 	0.67280 0.57190 0.54630 -0.06700
N 	N 	0.32720 0.87350 0.89910 -0.07100
N 	N 	0.57190 0.54630 0.67280 -0.06700
N 	N 	0.02560 0.57190 0.89910 -0.06500
N 	N 	0.12650 0.45370 0.02560 -0.06500
N 	N 	0.02560 0.12650 0.45370 -0.06500
N 	N 	0.10090 0.67280 0.12650 -0.06800
N 	N 	0.57190 0.89910 0.02560 -0.06500
N 	N 	0.45370 0.02560 0.12650 -0.06500
N 	N 	0.97440 0.87350 0.54630 -0.07400
N 	N 	0.10090 0.97440 0.42810 -0.07500
N 	N 	0.87350 0.89910 0.32720 -0.07100
N 	N 	0.45370 0.32720 0.42810 -0.07100
N 	N 	0.87350 0.54630 0.97440 -0.07400
N 	N 	0.54630 0.67280 0.57190 -0.06700
O 	O 	0.61430 0.06640 0.09910 -0.27300
O 	O 	0.51520 0.90090 0.96730 -0.22000
O 	O 	0.61430 0.51520 0.54790 -0.25600
O 	O 	0.96730 0.06640 0.45210 -0.24100
O 	O 	0.51520 0.54790 0.61430 -0.25600
O 	O 	0.45210 0.96730 0.06640 -0.24100
O 	O 	0.38570 0.93360 0.90090 -0.23100
O 	O 	0.93360 0.90090 0.38570 -0.23100
O 	O 	0.93360 0.54790 0.03270 -0.26100
O 	O 	0.06640 0.45210 0.96730 -0.24100
O 	O 	0.54790 0.61430 0.51520 -0.25600
O 	O 	0.90090 0.38570 0.93360 -0.23100
O 	O 	0.90090 0.96730 0.51520 -0.22000
O 	O 	0.48480 0.09910 0.03270 -0.28500
O 	O 	0.03270 0.48480 0.09910 -0.28500
O 	O 	0.09910 0.03270 0.48480 -0.28500
O 	O 	0.06640 0.09910 0.61430 -0.27300
O 	O 	0.54790 0.03270 0.93360 -0.26100
O 	O 	0.48480 0.45210 0.38570 -0.25700
O 	O 	0.96730 0.51520 0.90090 -0.22000
O 	O 	0.45210 0.38570 0.48480 -0.25700
O 	O 	0.03270 0.93360 0.54790 -0.26100
O 	O 	0.09910 0.61430 0.06640 -0.27300
O 	O 	0.38570 0.48480 0.45210 -0.25700
