data_crystal

_cell_length_a 27.26000
_cell_length_b 27.26000
_cell_length_c 27.26000
_cell_angle_alpha 90.00000
_cell_angle_beta  90.00000
_cell_angle_gamma 90.00000

_symmetry_space_group_name_	'P 1'
_symmetry_space_group_name_H-M	'P 1'

loop_
_symmetry_equiv_pos_as_xyz
  x,y,z

loop_
_atom_site_label
_atom_site_type_symbol
_atom_site_fract_x
_atom_site_fract_y
_atom_site_fract_z
_atom_site_charge
N 	N 	0.24823 0.29470 0.38923 -0.18000
H 	H 	0.25672 0.26601 0.41323 0.09100
N 	N 	0.27777 0.34275 0.32001 -0.15800
C 	C 	0.13050 0.38806 0.43326 -0.14200
C 	C 	0.20914 0.32738 0.40316 0.12200
C 	C 	0.28113 0.30223 0.34877 0.17500
C 	C 	0.15994 0.36383 0.46803 0.05700
H 	H 	0.15306 0.36798 0.50693 0.03100
C 	C 	0.19860 0.33373 0.45307 -0.11300
H 	H 	0.22060 0.31532 0.48056 0.06000
C 	C 	0.14069 0.38129 0.38311 0.05400
H 	H 	0.11831 0.39885 0.35539 0.03000
C 	C 	0.17941 0.35094 0.36818 -0.10800
H 	H 	0.18513 0.34503 0.32937 0.06900
N 	N 	0.38733 0.24061 0.29295 -0.18100
H 	H 	0.40364 0.24162 0.25826 0.09000
N 	N 	0.31734 0.26910 0.34020 -0.15800
C 	C 	0.43153 0.12397 0.38741 -0.14200
C 	C 	0.40056 0.20118 0.32545 0.12100
C 	C 	0.34999 0.27628 0.30322 0.17400
C 	C 	0.42846 0.11714 0.33635 0.05600
H 	H 	0.43822 0.08231 0.31992 0.02900
C 	C 	0.41363 0.15554 0.30574 -0.11300
H 	H 	0.41216 0.14966 0.26648 0.06100
C 	C 	0.41894 0.17000 0.40710 0.05400
H 	H 	0.42118 0.17656 0.44622 0.02900
C 	C 	0.40356 0.20823 0.37642 -0.10800
H 	H 	0.39520 0.24358 0.39242 0.06700
N 	N 	0.30511 0.39344 0.25294 -0.18100
H 	H 	0.27970 0.41952 0.26500 0.09000
N 	N 	0.34589 0.31669 0.27432 -0.15800
C 	C 	0.39261 0.43692 0.13056 -0.14400
C 	C 	0.37238 0.47169 0.16281 0.05700
H 	H 	0.37824 0.51056 0.15710 0.02900
C 	C 	0.34439 0.45678 0.20302 -0.11300
H 	H 	0.32913 0.48434 0.22724 0.06100
C 	C 	0.33602 0.40688 0.21223 0.12100
C 	C 	0.35543 0.37193 0.17958 -0.10800
H 	H 	0.34768 0.33331 0.18403 0.06800
C 	C 	0.38390 0.38682 0.13942 0.05500
H 	H 	0.39837 0.35917 0.11485 0.02900
C 	C 	0.30963 0.34995 0.28238 0.17400
N 	N 	0.23704 0.68727 0.88898 -0.18100
H 	H 	0.22712 0.71482 0.91376 0.09000
N 	N 	0.21132 0.64219 0.81619 -0.15900
C 	C 	0.35611 0.59591 0.93393 -0.14300
C 	C 	0.27659 0.65516 0.90307 0.12000
C 	C 	0.20509 0.68035 0.84762 0.17400
C 	C 	0.32534 0.61884 0.96841 0.05600
H 	H 	0.33145 0.61418 1.00739 0.03000
C 	C 	0.28624 0.64819 0.95309 -0.11300
H 	H 	0.26322 0.66556 0.98041 0.06100
C 	C 	0.34681 0.60327 0.88368 0.05400
H 	H 	0.37023 0.58672 0.85619 0.02900
C 	C 	0.30769 0.63295 0.86837 -0.10800
H 	H 	0.30279 0.63944 0.82956 0.06800
N 	N 	0.09397 0.73724 0.79586 -0.18100
H 	H 	0.06919 0.72732 0.76832 0.09000
N 	N 	0.16676 0.71151 0.84095 -0.15900
C 	C 	0.04902 0.85630 0.88723 -0.14300
C 	C 	0.07988 0.77679 0.82798 0.12000
C 	C 	0.13533 0.70528 0.80279 0.17400
C 	C 	0.01454 0.82553 0.86430 0.05600
H 	H 	-0.02444 0.83163 0.86896 0.03000
C 	C 	0.02986 0.78643 0.83495 -0.11300
H 	H 	0.00254 0.76341 0.81758 0.06100
C 	C 	0.09926 0.84700 0.87987 0.05400
H 	H 	0.12676 0.87042 0.89642 0.02900
C 	C 	0.11458 0.80788 0.85019 -0.10800
H 	H 	0.15339 0.80298 0.84370 0.06800
N 	N 	0.18708 0.59416 0.74590 -0.18100
H 	H 	0.21463 0.56938 0.75582 0.09000
N 	N 	0.14200 0.66695 0.77163 -0.15900
C 	C 	0.09572 0.54921 0.62684 -0.14300
C 	C 	0.11865 0.51473 0.65761 0.05600
H 	H 	0.11399 0.47575 0.65150 0.03000
C 	C 	0.14800 0.53005 0.69670 -0.11300
H 	H 	0.16537 0.50273 0.71973 0.06100
C 	C 	0.15497 0.58007 0.70635 0.12000
C 	C 	0.13276 0.61477 0.67526 -0.10800
H 	H 	0.13925 0.65358 0.68016 0.06800
C 	C 	0.10308 0.59946 0.63614 0.05400
H 	H 	0.08653 0.62695 0.61272 0.02900
C 	C 	0.18016 0.63552 0.77786 0.17400
N 	N 	0.73001 0.80530 0.08970 -0.18100
H 	H 	0.71795 0.77989 0.06362 0.09000
N 	N 	0.70863 0.84608 0.16645 -0.15800
C 	C 	0.85238 0.89280 0.04622 -0.14400
C 	C 	0.77071 0.83621 0.07626 0.12100
C 	C 	0.70057 0.80982 0.13319 0.17400
C 	C 	0.82013 0.87257 0.01145 0.05700
H 	H 	0.82585 0.87844 -0.02742 0.02900
C 	C 	0.77992 0.84458 0.02636 -0.11400
H 	H 	0.75571 0.82933 -0.00119 0.06100
C 	C 	0.84352 0.88409 0.09632 0.05500
H 	H 	0.86810 0.89856 0.12397 0.02900
C 	C 	0.80337 0.85563 0.11121 -0.10800
H 	H 	0.79892 0.84788 0.14983 0.06800
N 	N 	0.59372 0.74842 0.18844 -0.18100
H 	H 	0.56972 0.75690 0.21713 0.09000
N 	N 	0.66294 0.77796 0.14039 -0.15900
C 	C 	0.54969 0.63069 0.09508 -0.14300
C 	C 	0.57979 0.70933 0.15575 0.12100
C 	C 	0.63418 0.78132 0.18091 0.17400
C 	C 	0.51492 0.66013 0.11930 0.05600
H 	H 	0.47602 0.65325 0.11516 0.03000
C 	C 	0.52988 0.69879 0.14941 -0.11400
H 	H 	0.50239 0.72079 0.16781 0.06000
C 	C 	0.59984 0.64088 0.10185 0.05400
H 	H 	0.62756 0.61850 0.08429 0.03000
C 	C 	0.61477 0.67960 0.13219 -0.10800
H 	H 	0.65358 0.68532 0.13811 0.06900
N 	N 	0.69000 0.88752 0.24253 -0.18100
H 	H 	0.72469 0.90383 0.24152 0.09000
N 	N 	0.64274 0.81753 0.21404 -0.15800
C 	C 	0.59554 0.93172 0.35917 -0.14200
C 	C 	0.57585 0.91913 0.31314 0.05400
H 	H 	0.53673 0.92137 0.30657 0.02900
C 	C 	0.60652 0.90375 0.27491 -0.10800
H 	H 	0.59052 0.89539 0.23956 0.06700
C 	C 	0.65750 0.90075 0.28196 0.12100
C 	C 	0.67721 0.91382 0.32760 -0.11300
H 	H 	0.71647 0.91235 0.33348 0.06100
C 	C 	0.64659 0.92865 0.36600 0.05600
H 	H 	0.66302 0.93841 0.40082 0.02900
C 	C 	0.67972 0.85018 0.20686 0.17400
N 	N 	0.74041 0.19019 0.59562 -0.18100
H 	H 	0.74143 0.22488 0.57931 0.09000
N 	N 	0.76891 0.14294 0.66561 -0.15800
C 	C 	0.62377 0.09573 0.55142 -0.14300
C 	C 	0.70099 0.15769 0.58238 0.12100
C 	C 	0.77608 0.17992 0.63296 0.17400
C 	C 	0.61695 0.14679 0.55449 0.05600
H 	H 	0.58212 0.16321 0.54473 0.02900
C 	C 	0.65534 0.17740 0.56933 -0.11300
H 	H 	0.64947 0.21666 0.57079 0.06100
C 	C 	0.66981 0.07604 0.56401 0.05400
H 	H 	0.67637 0.03692 0.56177 0.02900
C 	C 	0.70803 0.10672 0.57939 -0.10800
H 	H 	0.74339 0.09072 0.58774 0.06700
N 	N 	0.89325 0.23020 0.67783 -0.18100
H 	H 	0.91933 0.21814 0.70325 0.09000
N 	N 	0.81650 0.20882 0.63706 -0.15800
C 	C 	0.93673 0.35258 0.59034 -0.14400
C 	C 	0.90669 0.27090 0.64693 0.12100
C 	C 	0.84976 0.20076 0.67332 0.17400
C 	C 	0.97150 0.32033 0.61057 0.05700
H 	H 	1.01037 0.32605 0.60471 0.02900
C 	C 	0.95659 0.28012 0.63856 -0.11400
H 	H 	0.98414 0.25590 0.65382 0.06100
C 	C 	0.88663 0.34372 0.59905 0.05500
H 	H 	0.85898 0.36829 0.58457 0.02900
C 	C 	0.87174 0.30356 0.62751 -0.10800
H 	H 	0.83312 0.29911 0.63526 0.06800
N 	N 	0.79451 0.09391 0.73472 -0.18100
H 	H 	0.76582 0.06991 0.72623 0.09000
N 	N 	0.84256 0.16313 0.70518 -0.15900
C 	C 	0.88787 0.04988 0.85245 -0.14300
C 	C 	0.86364 0.01512 0.82301 0.05600
H 	H 	0.86779 -0.02379 0.82989 0.03000
C 	C 	0.83354 0.03007 0.78435 -0.11400
H 	H 	0.81514 0.00258 0.76235 0.06000
C 	C 	0.82719 0.07998 0.77381 0.12100
C 	C 	0.85075 0.11496 0.80354 -0.10800
H 	H 	0.84483 0.15377 0.79782 0.06900
C 	C 	0.88110 0.10003 0.84226 0.05400
H 	H 	0.89865 0.12775 0.86464 0.03000
C 	C 	0.80203 0.13437 0.70182 0.17400
N 	N 	0.74036 0.68678 0.59508 -0.18100
H 	H 	0.73786 0.72076 0.57748 0.08900
N 	N 	0.71480 0.64162 0.66769 -0.15800
C 	C 	0.85862 0.59505 0.54962 -0.14300
C 	C 	0.78055 0.65519 0.58200 0.12100
C 	C 	0.70597 0.67712 0.63378 0.17400
C 	C 	0.81374 0.57419 0.56438 0.05400
H 	H 	0.80839 0.53485 0.56323 0.02900
C 	C 	0.77511 0.60397 0.58054 -0.10800
H 	H 	0.74060 0.58709 0.59055 0.06800
C 	C 	0.86395 0.64631 0.55147 0.05600
H 	H 	0.89787 0.66358 0.54007 0.02900
C 	C 	0.82510 0.67602 0.56696 -0.11300
H 	H 	0.82970 0.71547 0.56724 0.06000
N 	N 	0.59053 0.72889 0.68124 -0.18000
H 	H 	0.56494 0.71734 0.70738 0.09000
N 	N 	0.66551 0.70587 0.63829 -0.15800
C 	C 	0.54667 0.85102 0.59351 -0.14300
C 	C 	0.57687 0.76944 0.65020 0.12000
C 	C 	0.63392 0.69938 0.67629 0.17400
C 	C 	0.51195 0.81907 0.61433 0.05600
H 	H 	0.47304 0.82502 0.60894 0.03000
C 	C 	0.52694 0.77892 0.64240 -0.11300
H 	H 	0.49943 0.75499 0.65816 0.06000
C 	C 	0.59681 0.84186 0.60166 0.05400
H 	H 	0.62446 0.86615 0.58672 0.02900
C 	C 	0.61178 0.80173 0.63012 -0.10800
H 	H 	0.65048 0.79698 0.63736 0.06800
N 	N 	0.69376 0.59767 0.74174 -0.18100
H 	H 	0.72930 0.58328 0.74217 0.09000
N 	N 	0.64286 0.66347 0.70965 -0.15800
C 	C 	0.59899 0.55189 0.85765 -0.14200
C 	C 	0.64970 0.55761 0.86535 0.05500
H 	H 	0.66586 0.54970 0.90077 0.03000
C 	C 	0.68036 0.57289 0.82717 -0.11300
H 	H 	0.71935 0.57650 0.83381 0.06100
C 	C 	0.66104 0.58373 0.78077 0.12100
C 	C 	0.61044 0.57792 0.77278 -0.10800
H 	H 	0.59481 0.58441 0.73688 0.06700
C 	C 	0.57971 0.56216 0.81086 0.05400
H 	H 	0.54090 0.55782 0.80359 0.02900
C 	C 	0.68303 0.63428 0.70541 0.17400
N 	N 	0.74558 0.29558 0.09447 -0.18100
H 	H 	0.74697 0.26112 0.07770 0.09000
N 	N 	0.77322 0.34275 0.16499 -0.15800
C 	C 	0.62812 0.38891 0.05012 -0.14200
C 	C 	0.70587 0.32774 0.08131 0.12100
C 	C 	0.77995 0.30486 0.13328 0.17400
C 	C 	0.67385 0.40908 0.06307 0.05400
H 	H 	0.67997 0.44828 0.06103 0.02900
C 	C 	0.71235 0.37879 0.07859 -0.10800
H 	H 	0.74748 0.39513 0.08724 0.06700
C 	C 	0.62185 0.33778 0.05297 0.05600
H 	H 	0.58727 0.32100 0.04294 0.02900
C 	C 	0.66052 0.30757 0.06790 -0.11300
H 	H 	0.65510 0.26823 0.06915 0.06100
N 	N 	0.88848 0.24577 0.18756 -0.18100
H 	H 	0.90525 0.24716 0.22202 0.09000
N 	N 	0.81796 0.27341 0.14039 -0.15800
C 	C 	0.93283 0.12831 0.09424 -0.14300
C 	C 	0.90164 0.20606 0.15540 0.12100
C 	C 	0.84967 0.28015 0.17828 0.17400
C 	C 	0.91988 0.17404 0.07406 0.05400
H 	H 	0.92191 0.18016 0.03486 0.02900
C 	C 	0.90436 0.21254 0.10435 -0.10800
H 	H 	0.89571 0.24767 0.08801 0.06700
C 	C 	0.92998 0.12204 0.14536 0.05600
H 	H 	0.94001 0.08746 0.16215 0.02900
C 	C 	0.91505 0.16071 0.17557 -0.11300
H 	H 	0.91379 0.15529 0.21491 0.06100
N 	N 	0.79539 0.38867 0.23737 -0.18100
H 	H 	0.76093 0.40544 0.23598 0.09000
N 	N 	0.84256 0.31815 0.20973 -0.15800
C 	C 	0.88871 0.43302 0.35483 -0.14200
C 	C 	0.83759 0.43016 0.36110 0.05600
H 	H 	0.82081 0.44019 0.39568 0.02900
C 	C 	0.80738 0.41524 0.32243 -0.11300
H 	H 	0.76804 0.41398 0.32786 0.06100
C 	C 	0.82755 0.40183 0.27708 0.12100
C 	C 	0.87860 0.40455 0.27060 -0.10800
H 	H 	0.89494 0.39591 0.23546 0.06700
C 	C 	0.90889 0.42007 0.30909 0.05400
H 	H 	0.94809 0.42211 0.30298 0.02900
C 	C 	0.80467 0.34986 0.20299 0.17400
N 	N 	0.24121 0.19395 0.88547 -0.18100
H 	H 	0.24078 0.22949 0.89986 0.09000
N 	N 	0.27330 0.14305 0.81967 -0.15800
C 	C 	0.12529 0.09918 0.93125 -0.14200
C 	C 	0.20218 0.16123 0.89941 0.12100
C 	C 	0.27754 0.18322 0.84886 0.17400
C 	C 	0.17208 0.07991 0.92098 0.05400
H 	H 	0.17936 0.04109 0.92532 0.02900
C 	C 	0.21016 0.11063 0.90522 -0.10800
H 	H 	0.24607 0.09500 0.89873 0.06700
C 	C 	0.11760 0.14989 0.92554 0.05500
H 	H 	0.08218 0.16605 0.93345 0.03000
C 	C 	0.15578 0.18055 0.91025 -0.11300
H 	H 	0.14914 0.21955 0.90664 0.06100
N 	N 	0.38787 0.24055 0.79636 -0.18100
H 	H 	0.40547 0.23805 0.76238 0.08900
N 	N 	0.31526 0.21499 0.84152 -0.15800
C 	C 	0.43333 0.35881 0.88809 -0.14300
C 	C 	0.40095 0.28074 0.82795 0.12100
C 	C 	0.34917 0.20616 0.80602 0.17400
C 	C 	0.41857 0.31393 0.90894 0.05400
H 	H 	0.41972 0.30858 0.94829 0.02900
C 	C 	0.40241 0.27530 0.87917 -0.10800
H 	H 	0.39241 0.24079 0.89605 0.06800
C 	C 	0.43147 0.36414 0.83682 0.05600
H 	H 	0.44287 0.39806 0.81956 0.02900
C 	C 	0.41599 0.32529 0.80712 -0.11300
H 	H 	0.41571 0.32989 0.76766 0.06000
N 	N 	0.30171 0.09072 0.75425 -0.18000
H 	H 	0.27557 0.06513 0.76580 0.09000
N 	N 	0.34466 0.16570 0.77727 -0.15800
C 	C 	0.38944 0.04685 0.63211 -0.14300
C 	C 	0.36862 0.01213 0.66407 0.05600
H 	H 	0.37401 -0.02677 0.65812 0.02900
C 	C 	0.34055 0.02713 0.70422 -0.11300
H 	H 	0.32479 -0.00038 0.72815 0.06000
C 	C 	0.33275 0.07706 0.71370 0.12000
C 	C 	0.35283 0.11197 0.68142 -0.10800
H 	H 	0.34559 0.15067 0.68617 0.06800
C 	C 	0.38129 0.09700 0.64128 0.05400
H 	H 	0.39624 0.12465 0.61699 0.02900
C 	C 	0.30666 0.13411 0.78376 0.17400
N 	N 	0.22870 0.80190 0.39242 -0.18000
H 	H 	0.21715 0.77577 0.41801 0.09000
N 	N 	0.20568 0.84485 0.31744 -0.15800
C 	C 	0.35083 0.88963 0.43628 -0.14300
C 	C 	0.26924 0.83294 0.40608 0.12000
C 	C 	0.19919 0.80685 0.34903 0.17400
C 	C 	0.31888 0.86881 0.47100 0.05600
H 	H 	0.32483 0.87420 0.50991 0.03000
C 	C 	0.27873 0.84074 0.45601 -0.11300
H 	H 	0.25480 0.82498 0.48352 0.06000
C 	C 	0.34167 0.88148 0.38614 0.05400
H 	H 	0.36596 0.89643 0.35849 0.02900
C 	C 	0.30153 0.85303 0.37116 -0.10800
H 	H 	0.29678 0.84579 0.33247 0.06800
N 	N 	0.09747 0.74140 0.28919 -0.18100
H 	H 	0.08308 0.74097 0.25365 0.09000
N 	N 	0.16328 0.77349 0.34009 -0.15800
C 	C 	0.05170 0.62549 0.38396 -0.14200
C 	C 	0.08353 0.70237 0.32191 0.12100
C 	C 	0.13409 0.77773 0.29992 0.17400
C 	C 	0.06197 0.67228 0.40324 0.05300
H 	H 	0.05762 0.67955 0.44205 0.02900
C 	C 	0.07772 0.71036 0.37252 -0.10800
H 	H 	0.08421 0.74626 0.38814 0.06700
C 	C 	0.05741 0.61779 0.33325 0.05500
H 	H 	0.04950 0.58238 0.31709 0.03000
C 	C 	0.07270 0.65598 0.30259 -0.11300
H 	H 	0.07631 0.64934 0.26360 0.06100
N 	N 	0.18659 0.88806 0.24258 -0.18100
H 	H 	0.22057 0.90565 0.24509 0.08900
N 	N 	0.14143 0.81545 0.26815 -0.15800
C 	C 	0.09486 0.93352 0.12433 -0.14200
C 	C 	0.14613 0.93167 0.11899 0.05600
H 	H 	0.16339 0.94307 0.08508 0.02900
C 	C 	0.17583 0.91618 0.15784 -0.11300
H 	H 	0.21529 0.91591 0.15325 0.06000
C 	C 	0.15500 0.90114 0.20240 0.12100
C 	C 	0.10378 0.90260 0.20784 -0.10800
H 	H 	0.08690 0.89259 0.24235 0.06800
C 	C 	0.07400 0.91876 0.16921 0.05400
H 	H 	0.03466 0.91991 0.17456 0.02900
C 	C 	0.17693 0.84936 0.27697 0.17400
Zn	Zn	0.05534 0.97440 -0.01675 1.25000
Zn	Zn	-0.01567 1.05749 -0.03000 1.25100
Zn	Zn	-0.04732 0.95460 -0.04912 1.25300
Zn	Zn	-0.02843 0.98706 0.05355 1.25100
O 	O 	-0.00893 0.99345 -0.01052 -1.02300
O 	O 	0.09404 1.02277 -0.03966 -0.52800
O 	O 	-0.05672 1.06483 -0.08130 -0.52700
O 	O 	-0.01321 0.90807 -0.08041 -0.53200
O 	O 	0.04163 1.08412 -0.04865 -0.52900
O 	O 	0.06320 0.92314 -0.05784 -0.52700
O 	O 	-0.07889 0.98821 -0.09573 -0.53200
O 	O 	-0.08025 0.94676 0.06101 -0.52700
O 	O 	-0.03885 1.09629 0.01799 -0.52800
O 	O 	-0.09415 0.92344 -0.01537 -0.53200
O 	O 	-0.04657 1.04459 0.08010 -0.52800
O 	O 	0.01921 0.96314 0.09227 -0.52900
O 	O 	0.08151 0.95540 0.04077 -0.52800
C 	C 	0.08488 1.06694 -0.05152 0.41400
C 	C 	-0.08086 1.03356 -0.10606 0.41600
C 	C 	0.03224 0.89803 -0.08203 0.41500
C 	C 	-0.10504 0.92252 0.02989 0.41700
C 	C 	-0.05004 1.08759 0.06240 0.41500
C 	C 	0.06352 0.95155 0.08363 0.41400
Zn	Zn	0.47070 -0.01682 0.42903 1.25100
Zn	Zn	0.45115 -0.04866 0.53180 1.25300
Zn	Zn	0.55392 -0.02911 0.49996 1.25100
Zn	Zn	0.48299 0.05411 0.51225 1.25100
O 	O 	0.48976 -0.01005 0.49319 -1.02300
O 	O 	0.41894 -0.05725 0.42149 -0.52700
O 	O 	0.48488 -0.09597 0.56233 -0.53200
O 	O 	0.58073 -0.04742 0.44266 -0.52900
O 	O 	0.40384 -0.07919 0.49807 -0.53200
O 	O 	0.51889 -0.04026 0.39056 -0.52800
O 	O 	0.56146 -0.08087 0.54039 -0.52700
O 	O 	0.54029 0.08092 0.53056 -0.52900
O 	O 	0.42062 -0.01493 0.57911 -0.53200
O 	O 	0.59239 0.01908 0.52340 -0.52800
O 	O 	0.44255 0.06165 0.56401 -0.52700
O 	O 	0.45955 0.09258 0.46406 -0.52800
O 	O 	0.45239 0.04048 0.40222 -0.52900
C 	C 	0.39347 -0.08073 0.45269 0.41500
C 	C 	0.53026 -0.10634 0.56387 0.41500
C 	C 	0.56330 -0.05120 0.39959 0.41500
C 	C 	0.58336 0.06349 0.53434 0.41500
C 	C 	0.41908 0.03045 0.58947 0.41600
C 	C 	0.44861 0.08355 0.41965 0.41500
Zn	Zn	0.92940 0.47176 0.49608 1.25100
Zn	Zn	1.03207 0.45287 0.52854 1.25300
Zn	Zn	1.01295 0.48453 0.42565 1.25100
Zn	Zn	0.99970 0.55553 0.50874 1.25000
O 	O 	0.99347 0.49126 0.48969 -1.02300
O 	O 	0.92194 0.41994 0.53638 -0.52700
O 	O 	1.07868 0.42130 0.49493 -0.53200
O 	O 	0.96496 0.46134 0.38685 -0.52800
O 	O 	0.99832 0.40605 0.55970 -0.53200
O 	O 	0.90285 0.45362 0.43855 -0.52800
O 	O 	1.06425 0.44347 0.41831 -0.52700
O 	O 	1.02261 0.59423 0.46037 -0.52800
O 	O 	1.06336 0.48698 0.57506 -0.53200
O 	O 	1.03160 0.54182 0.39902 -0.52900
O 	O 	1.04079 0.56339 0.56000 -0.52700
O 	O 	0.94218 0.58170 0.52774 -0.52800
O 	O 	0.89068 0.51940 0.52000 -0.52900
C 	C 	0.95306 0.39515 0.56062 0.41700
C 	C 	1.08901 0.41934 0.44958 0.41600
C 	C 	0.92055 0.45016 0.39555 0.41500
C 	C 	1.03447 0.58507 0.41620 0.41400
C 	C 	1.06498 0.53243 0.58511 0.41500
C 	C 	0.89932 0.56371 0.53159 0.41500
Zn	Zn	0.48687 0.42959 1.01138 1.25100
Zn	Zn	0.47421 0.49989 0.92761 1.25000
Zn	Zn	0.45441 0.53226 1.03027 1.25300
Zn	Zn	0.55730 0.51314 0.99861 1.25100
O 	O 	0.49326 0.49366 0.99188 -1.02300
O 	O 	0.46295 0.39087 0.96374 -0.52900
O 	O 	0.42295 0.54098 0.91975 -0.52700
O 	O 	0.42325 0.49851 1.07709 -0.53200
O 	O 	0.45521 0.44237 0.90144 -0.52800
O 	O 	0.44657 0.42213 1.06319 -0.52700
O 	O 	0.40789 0.56355 0.99616 -0.53200
O 	O 	0.56464 0.56444 1.03966 -0.52700
O 	O 	0.52258 0.52280 0.88891 -0.52800
O 	O 	0.48802 0.57887 1.06184 -0.53200
O 	O 	0.58393 0.53179 0.94132 -0.52900
O 	O 	0.59610 0.46515 1.02180 -0.52800
O 	O 	0.54440 0.40304 1.02951 -0.52800
C 	C 	0.45136 0.39951 0.91943 0.41500
C 	C 	0.39784 0.56517 0.95071 0.41500
C 	C 	0.42232 0.45325 1.08799 0.41700
C 	C 	0.53337 0.58920 1.06380 0.41600
C 	C 	0.56675 0.53466 0.89806 0.41400
C 	C 	0.58740 0.42074 1.03298 0.41500
