data_crystal

_cell_length_a 17.28680
_cell_length_b 17.28680
_cell_length_c 17.28680
_cell_angle_alpha 109.47100
_cell_angle_beta  109.47100
_cell_angle_gamma 109.47100

_symmetry_space_group_name_	'P 1'
_symmetry_space_group_name_H-M	'P 1'

loop_
_symmetry_equiv_pos_as_xyz
  x,y,z

loop_
_atom_site_label
_atom_site_type_symbol
_atom_site_fract_x
_atom_site_fract_y
_atom_site_fract_z
_atom_site_charge
Ga	Ga	0.37500 0.75000 0.12500 2.08000
Ga	Ga	0.12500 0.25000 0.37500 2.08100
Ga	Ga	0.75000 0.62500 0.87500 2.08100
Ga	Ga	0.62500 0.37500 0.25000 2.08100
Ga	Ga	0.25000 0.87500 0.62500 2.08100
Ga	Ga	0.87500 0.12500 0.75000 2.08100
H 	H 	0.04090 0.02040 0.67310 0.06200
H 	H 	0.54090 0.67310 0.02040 0.06100
H 	H 	0.95910 0.97950 0.13220 0.06000
H 	H 	0.67310 0.52040 0.04090 0.06100
H 	H 	0.45910 0.13220 0.97950 0.06000
H 	H 	0.15270 0.52050 0.47960 0.06100
H 	H 	0.84730 0.36780 0.82690 0.06100
H 	H 	0.52040 0.54090 0.17310 0.06100
H 	H 	0.47950 0.45910 0.63220 0.06100
H 	H 	0.13220 0.47950 0.95910 0.06100
H 	H 	0.34730 0.82690 0.36780 0.06100
H 	H 	0.97960 0.15270 0.02050 0.06000
H 	H 	0.17310 0.04090 0.52040 0.06200
H 	H 	0.02050 0.65270 0.97960 0.06100
H 	H 	0.65270 0.47960 0.52050 0.06100
H 	H 	0.63220 0.95910 0.47950 0.06100
H 	H 	0.97950 0.63220 0.45910 0.06100
H 	H 	0.52050 0.97960 0.65270 0.06100
H 	H 	0.36780 0.32690 0.34730 0.06100
H 	H 	0.32690 0.84730 0.86780 0.06000
H 	H 	0.86780 0.34730 0.32690 0.06100
H 	H 	0.02040 0.17310 0.54090 0.06200
H 	H 	0.82690 0.86780 0.84730 0.06000
H 	H 	0.47960 0.02050 0.15270 0.06000
C 	C 	0.87301 0.02157 0.83534 0.38400
C 	C 	0.16466 0.68623 0.53767 0.38400
C 	C 	0.63568 0.54484 0.05730 0.06200
C 	C 	0.02404 0.10265 0.61369 -0.10100
C 	C 	0.05730 0.04484 0.63568 0.06100
C 	C 	0.36432 0.90916 0.92162 0.06500
C 	C 	0.86432 0.92162 0.90916 0.06600
C 	C 	0.01104 0.42139 0.39735 -0.10500
C 	C 	0.02157 0.33534 0.37301 0.38300
C 	C 	0.18623 0.66466 0.03767 0.38200
C 	C 	0.33534 0.87301 0.52157 0.38300
C 	C 	0.83534 0.52157 0.87301 0.38400
C 	C 	0.03767 0.16466 0.18623 0.38300
C 	C 	0.64856 0.62699 0.96233 0.38300
C 	C 	0.12699 0.14856 0.46233 0.38300
C 	C 	0.97596 0.07861 0.08965 -0.10600
C 	C 	0.53767 0.18623 0.16466 0.38400
C 	C 	0.85144 0.81377 0.97843 0.38300
C 	C 	0.92139 0.51104 0.89735 -0.10500
C 	C 	0.38631 0.98896 0.91035 -0.10500
C 	C 	0.46233 0.64856 0.12699 0.38300
C 	C 	0.91035 0.48896 0.38631 -0.10500
C 	C 	0.51246 0.95516 0.59084 0.06200
C 	C 	0.14856 0.96233 0.62699 0.38200
C 	C 	0.92162 0.40916 0.36432 0.06400
C 	C 	0.37301 0.83534 0.02157 0.38300
C 	C 	0.07838 0.48754 0.94270 0.06400
C 	C 	0.31377 0.35144 0.47843 0.38300
C 	C 	0.42139 0.89735 0.51104 -0.10400
C 	C 	0.35144 0.97843 0.81377 0.38300
C 	C 	0.88631 0.91035 0.98896 -0.10700
C 	C 	0.04484 0.13568 0.55730 0.06100
C 	C 	0.97843 0.31377 0.85144 0.38200
C 	C 	0.10265 0.11369 0.52404 -0.10300
C 	C 	0.55730 0.63568 0.04484 0.06200
C 	C 	0.47843 0.85144 0.31377 0.38300
C 	C 	0.11369 0.02404 0.60265 -0.10100
C 	C 	0.54484 0.55730 0.13568 0.06200
C 	C 	0.39735 0.92139 0.01104 -0.10600
C 	C 	0.45516 0.01246 0.09084 0.06400
C 	C 	0.68623 0.03767 0.66466 0.38300
C 	C 	0.96233 0.12699 0.64856 0.38200
C 	C 	0.47596 0.08965 0.07861 -0.10500
C 	C 	0.61369 0.60265 0.02404 -0.10300
C 	C 	0.62699 0.46233 0.14856 0.38300
C 	C 	0.09084 0.51246 0.45516 0.06400
C 	C 	0.81377 0.47843 0.35144 0.38400
C 	C 	0.48754 0.44270 0.57838 0.06200
C 	C 	0.59084 0.45516 0.51246 0.06200
C 	C 	0.41035 0.38631 0.48896 -0.10300
C 	C 	0.98896 0.41035 0.88631 -0.10500
C 	C 	0.07861 0.58965 0.47596 -0.10500
C 	C 	0.57838 0.94270 0.48754 0.06200
C 	C 	0.89735 0.01104 0.92139 -0.10800
C 	C 	0.94270 0.98754 0.07838 0.06700
C 	C 	0.60265 0.52404 0.11369 -0.10300
C 	C 	0.42162 0.36432 0.40916 0.06200
C 	C 	0.01246 0.59084 0.95516 0.06400
C 	C 	0.66466 0.53767 0.68623 0.38300
C 	C 	0.08965 0.57861 0.97596 -0.10300
C 	C 	0.90916 0.42162 0.86432 0.06300
C 	C 	0.52404 0.61369 0.10265 -0.10400
C 	C 	0.52157 0.37301 0.33534 0.38300
C 	C 	0.44270 0.07838 0.98754 0.06400
C 	C 	0.95516 0.09084 0.01246 0.06600
C 	C 	0.58965 0.97596 0.57861 -0.10300
C 	C 	0.48896 0.88631 0.41035 -0.10300
C 	C 	0.40916 0.86432 0.42162 0.06200
C 	C 	0.57861 0.47596 0.58965 -0.10300
C 	C 	0.51104 0.39735 0.42139 -0.10400
C 	C 	0.98754 0.57838 0.44270 0.06400
C 	C 	0.13568 0.05730 0.54484 0.06100
O 	O 	0.90412 0.10943 0.85379 -0.60300
O 	O 	0.20531 0.94967 0.59588 -0.60200
O 	O 	0.95538 0.25622 0.32972 -0.32100
O 	O 	0.44967 0.70531 0.09588 -0.60200
O 	O 	0.24436 0.29469 0.39057 -0.60200
O 	O 	0.55033 0.25564 0.14621 -0.60200
O 	O 	0.94967 0.09588 0.70531 -0.60200
O 	O 	0.42650 0.62566 0.17028 -0.32200
O 	O 	0.39057 0.79469 0.24436 -0.60200
O 	O 	0.74378 0.57350 0.69916 -0.32100
O 	O 	0.59588 0.44967 0.20531 -0.60200
O 	O 	0.10943 0.35379 0.40412 -0.60200
O 	O 	0.40412 0.85379 0.10943 -0.60200
O 	O 	0.32972 0.75622 0.95538 -0.32000
O 	O 	0.25564 0.64621 0.05033 -0.60200
O 	O 	0.75622 0.45538 0.82972 -0.32200
O 	O 	0.60943 0.40412 0.35379 -0.60200
O 	O 	0.09588 0.20531 0.44967 -0.60200
O 	O 	0.35379 0.90412 0.60943 -0.60200
O 	O 	0.37434 0.04462 0.80084 -0.32100
O 	O 	0.80084 0.54462 0.37434 -0.32100
O 	O 	0.89057 0.24436 0.79469 -0.60200
O 	O 	0.57350 0.19916 0.24378 -0.32100
O 	O 	0.62566 0.67028 0.92650 -0.32100
O 	O 	0.25622 0.82972 0.45538 -0.32200
O 	O 	0.04462 0.30084 0.87434 -0.32000
O 	O 	0.75564 0.05033 0.64621 -0.60200
O 	O 	0.24378 0.69916 0.57350 -0.32100
O 	O 	0.79469 0.74436 0.89057 -0.60200
O 	O 	0.82972 0.95538 0.75622 -0.32100
O 	O 	0.12566 0.92650 0.67028 -0.32100
O 	O 	0.67028 0.42650 0.12566 -0.32100
O 	O 	0.85379 0.60943 0.90412 -0.60200
O 	O 	0.19916 0.74378 0.07350 -0.32200
O 	O 	0.17028 0.12566 0.42650 -0.32100
O 	O 	0.05033 0.14621 0.25564 -0.60200
O 	O 	0.30084 0.37434 0.54462 -0.32100
O 	O 	0.70531 0.59588 0.94967 -0.60200
O 	O 	0.64621 0.55033 0.75564 -0.60200
O 	O 	0.74436 0.39057 0.29469 -0.60200
O 	O 	0.87434 0.80084 0.04462 -0.32000
O 	O 	0.69916 0.07350 0.74378 -0.32100
O 	O 	0.29469 0.89057 0.74436 -0.60200
O 	O 	0.14621 0.75564 0.55033 -0.60200
O 	O 	0.45538 0.32972 0.25622 -0.32100
O 	O 	0.07350 0.24378 0.19916 -0.32200
O 	O 	0.92650 0.17028 0.62566 -0.32100
O 	O 	0.54462 0.87434 0.30084 -0.32100
