data_crystal

_cell_length_a 15.32100
_cell_length_b 15.32100
_cell_length_c 15.32100
_cell_angle_alpha 105.19700
_cell_angle_beta  105.19700
_cell_angle_gamma 105.19700

_symmetry_space_group_name_	'P 1'
_symmetry_space_group_name_H-M	'P 1'

loop_
_symmetry_equiv_pos_as_xyz
  x,y,z

loop_
_atom_site_label
_atom_site_type_symbol
_atom_site_fract_x
_atom_site_fract_y
_atom_site_fract_z
_atom_site_charge
Ni	Ni	0.20899 0.42544 0.87317 1.09000
Ni	Ni	0.07456 0.29101 0.62683 1.09000
Ni	Ni	0.87317 0.20899 0.42544 1.09000
Ni	Ni	0.79101 0.57456 0.12683 1.09000
Ni	Ni	0.92544 0.70899 0.37317 1.09000
Ni	Ni	0.57456 0.12683 0.79101 1.09000
Ni	Ni	0.12683 0.79101 0.57456 1.09000
Ni	Ni	0.70899 0.37317 0.92544 1.09000
Ni	Ni	0.29101 0.62683 0.07456 1.09000
Ni	Ni	0.37317 0.92544 0.70899 1.09000
Ni	Ni	0.42544 0.87317 0.20899 1.09000
Ni	Ni	0.62683 0.07456 0.29101 1.09000
H 	H 	0.17010 0.14020 0.54750 0.05200
H 	H 	0.04910 0.07940 0.79580 0.14500
H 	H 	0.79580 0.04910 0.07940 0.14500
H 	H 	0.87460 0.13010 0.84420 0.15300
H 	H 	0.15580 0.12540 0.86990 0.15300
H 	H 	0.57940 0.54910 0.29580 0.14500
H 	H 	0.54750 0.17010 0.14020 0.05200
H 	H 	0.36990 0.62540 0.65580 0.15300
H 	H 	0.32990 0.95250 0.35980 0.05200
H 	H 	0.62540 0.65580 0.36990 0.15300
H 	H 	0.42060 0.45090 0.70420 0.14500
H 	H 	0.04750 0.64020 0.67010 0.05200
H 	H 	0.86990 0.15580 0.12540 0.15300
H 	H 	0.85980 0.45250 0.82990 0.05200
H 	H 	0.12540 0.86990 0.15580 0.15300
H 	H 	0.35980 0.32990 0.95250 0.05200
H 	H 	0.92060 0.20420 0.95090 0.14500
H 	H 	0.37460 0.34420 0.63010 0.15300
H 	H 	0.95090 0.92060 0.20420 0.14500
H 	H 	0.54910 0.29580 0.57940 0.14500
H 	H 	0.65580 0.36990 0.62540 0.15300
H 	H 	0.29580 0.57940 0.54910 0.14500
H 	H 	0.07940 0.79580 0.04910 0.14500
H 	H 	0.63010 0.37460 0.34420 0.15300
H 	H 	0.45250 0.82990 0.85980 0.05200
H 	H 	0.45090 0.70420 0.42060 0.14500
H 	H 	0.64020 0.67010 0.04750 0.05200
H 	H 	0.34420 0.63010 0.37460 0.15300
H 	H 	0.70420 0.42060 0.45090 0.14500
H 	H 	0.13010 0.84420 0.87460 0.15300
H 	H 	0.20420 0.95090 0.92060 0.14500
H 	H 	0.82990 0.85980 0.45250 0.05200
H 	H 	0.95250 0.35980 0.32990 0.05200
H 	H 	0.84420 0.87460 0.13010 0.15300
H 	H 	0.14020 0.54750 0.17010 0.05200
H 	H 	0.67010 0.04750 0.64020 0.05200
C 	C 	0.87361 0.79357 0.21601 0.46000
C 	C 	0.95862 0.62602 0.04380 0.04700
C 	C 	0.12639 0.20643 0.78399 0.46000
C 	C 	0.10778 0.11908 0.50272 0.02300
C 	C 	0.45862 0.54380 0.12602 0.04600
C 	C 	0.38912 0.38416 0.69649 -0.36600
C 	C 	0.80351 0.11584 0.11088 -0.36600
C 	C 	0.29357 0.37361 0.71601 0.46000
C 	C 	0.11908 0.50272 0.10778 0.02300
C 	C 	0.79357 0.21601 0.87361 0.46000
C 	C 	0.11088 0.80351 0.11584 -0.36600
C 	C 	0.50272 0.10778 0.11908 0.02300
C 	C 	0.49728 0.89222 0.88092 0.02300
C 	C 	0.60778 0.00272 0.61908 0.02300
C 	C 	0.12602 0.45862 0.54380 0.04600
C 	C 	0.88092 0.49728 0.89222 0.02300
C 	C 	0.30351 0.61088 0.61584 -0.36600
C 	C 	0.89222 0.88092 0.49728 0.02300
C 	C 	0.88912 0.19649 0.88416 -0.36600
C 	C 	0.11584 0.11088 0.80351 -0.36600
C 	C 	0.00272 0.61908 0.60778 0.02300
C 	C 	0.69649 0.38912 0.38416 -0.36600
C 	C 	0.61088 0.61584 0.30351 -0.36600
C 	C 	0.61908 0.60778 0.00272 0.02300
C 	C 	0.21601 0.87361 0.79357 0.46000
C 	C 	0.62602 0.04380 0.95862 0.04700
C 	C 	0.87398 0.54138 0.45620 0.04600
C 	C 	0.62639 0.28399 0.70643 0.46000
C 	C 	0.71601 0.29357 0.37361 0.46000
C 	C 	0.54380 0.12602 0.45862 0.04600
C 	C 	0.38092 0.39222 0.99728 0.02300
C 	C 	0.45620 0.87398 0.54138 0.04600
C 	C 	0.19649 0.88416 0.88912 -0.36600
C 	C 	0.70643 0.62639 0.28399 0.46000
C 	C 	0.04380 0.95862 0.62602 0.04700
C 	C 	0.04138 0.37398 0.95620 0.04700
C 	C 	0.78399 0.12639 0.20643 0.46000
C 	C 	0.39222 0.99728 0.38092 0.02300
C 	C 	0.37398 0.95620 0.04138 0.04700
C 	C 	0.38416 0.69649 0.38912 -0.36600
C 	C 	0.37361 0.71601 0.29357 0.46000
C 	C 	0.61584 0.30351 0.61088 -0.36600
C 	C 	0.99728 0.38092 0.39222 0.02300
C 	C 	0.88416 0.88912 0.19649 -0.36600
C 	C 	0.20643 0.78399 0.12639 0.46000
C 	C 	0.54138 0.45620 0.87398 0.04600
C 	C 	0.95620 0.04138 0.37398 0.04700
C 	C 	0.28399 0.70643 0.62639 0.46000
S 	S 	0.98912 0.59180 0.94213 0.01900
S 	S 	0.15073 0.02951 0.72297 0.05600
S 	S 	0.72297 0.15073 0.02951 0.05600
S 	S 	0.52951 0.65073 0.22297 0.05600
S 	S 	0.34927 0.77703 0.47049 0.05600
S 	S 	0.09180 0.48912 0.44213 0.01900
S 	S 	0.77703 0.47049 0.34927 0.05600
S 	S 	0.51088 0.55787 0.90820 0.01900
S 	S 	0.84927 0.97049 0.27703 0.05600
S 	S 	0.40820 0.05787 0.01088 0.01900
S 	S 	0.02951 0.72297 0.15073 0.05600
S 	S 	0.90820 0.51088 0.55787 0.01900
S 	S 	0.22297 0.52951 0.65073 0.05600
S 	S 	0.55787 0.90820 0.51088 0.01900
S 	S 	0.48912 0.44213 0.09180 0.01900
S 	S 	0.44213 0.09180 0.48912 0.01900
S 	S 	0.65073 0.22297 0.52951 0.05600
S 	S 	0.05787 0.01088 0.40820 0.01900
S 	S 	0.59180 0.94213 0.98912 0.01900
S 	S 	0.47049 0.34927 0.77703 0.05600
S 	S 	0.94213 0.98912 0.59180 0.01900
S 	S 	0.27703 0.84927 0.97049 0.05600
S 	S 	0.97049 0.27703 0.84927 0.05600
S 	S 	0.01088 0.40820 0.05787 0.01900
N 	N 	0.52540 0.75770 0.02910 -0.04300
N 	N 	0.09751 0.40249 0.75000 -0.28300
N 	N 	0.70480 0.37680 0.11480 -0.03100
N 	N 	0.99297 0.33070 0.44822 -0.17700
N 	N 	0.54855 0.25000 0.95145 -0.03500
N 	N 	0.87680 0.20480 0.61480 -0.03100
N 	N 	0.87544 0.56880 0.03666 -0.18900
N 	N 	0.66930 0.55178 0.00703 -0.17700
N 	N 	0.65190 0.83220 0.16460 -0.05900
N 	N 	0.55178 0.00703 0.66930 -0.17700
N 	N 	0.37544 0.53666 0.06880 -0.18900
N 	N 	0.00703 0.66930 0.55178 -0.17700
N 	N 	0.75000 0.04855 0.45145 -0.03500
N 	N 	0.43120 0.96334 0.12456 -0.18900
N 	N 	0.29520 0.62320 0.88520 -0.03100
N 	N 	0.50703 0.05178 0.16930 -0.17700
N 	N 	0.33070 0.44822 0.99297 -0.17700
N 	N 	0.42333 0.07667 0.75000 -0.25400
N 	N 	0.33220 0.15190 0.66460 -0.05900
N 	N 	0.84810 0.33540 0.66780 -0.05900
N 	N 	0.44822 0.99297 0.33070 -0.17700
N 	N 	0.95145 0.54855 0.25000 -0.03500
N 	N 	0.16460 0.65190 0.83220 -0.05900
N 	N 	0.20480 0.61480 0.87680 -0.03100
N 	N 	0.07667 0.75000 0.42333 -0.25400
N 	N 	0.83540 0.34810 0.16780 -0.05900
N 	N 	0.59751 0.25000 0.90249 -0.28300
N 	N 	0.62456 0.46334 0.93120 -0.18900
N 	N 	0.03666 0.87544 0.56880 -0.18900
N 	N 	0.25000 0.57667 0.92333 -0.25400
N 	N 	0.12456 0.43120 0.96334 -0.18900
N 	N 	0.25000 0.90249 0.59751 -0.28300
N 	N 	0.06880 0.37544 0.53666 -0.18900
N 	N 	0.75770 0.02910 0.52540 -0.04300
N 	N 	0.83220 0.16460 0.65190 -0.05900
N 	N 	0.49297 0.94822 0.83070 -0.17700
N 	N 	0.92333 0.25000 0.57667 -0.25400
N 	N 	0.38520 0.12320 0.79520 -0.03100
N 	N 	0.88520 0.29520 0.62320 -0.03100
N 	N 	0.94822 0.83070 0.49297 -0.17700
N 	N 	0.75000 0.09751 0.40249 -0.28300
N 	N 	0.66780 0.84810 0.33540 -0.05900
N 	N 	0.97090 0.47460 0.24230 -0.04300
N 	N 	0.16780 0.83540 0.34810 -0.05900
N 	N 	0.74230 0.97460 0.47090 -0.04400
N 	N 	0.66460 0.33220 0.15190 -0.05900
N 	N 	0.12320 0.79520 0.38520 -0.03100
N 	N 	0.83070 0.49297 0.94822 -0.17700
N 	N 	0.05178 0.16930 0.50703 -0.17700
N 	N 	0.75000 0.42333 0.07667 -0.25400
N 	N 	0.53666 0.06880 0.37544 -0.18900
N 	N 	0.47460 0.24230 0.97090 -0.04300
N 	N 	0.37680 0.11480 0.70480 -0.03100
N 	N 	0.11480 0.70480 0.37680 -0.03100
N 	N 	0.02910 0.52540 0.75770 -0.04300
N 	N 	0.25000 0.95145 0.54855 -0.03500
N 	N 	0.93120 0.62456 0.46334 -0.18900
N 	N 	0.56880 0.03666 0.87544 -0.18900
N 	N 	0.45145 0.75000 0.04855 -0.03500
N 	N 	0.16930 0.50703 0.05178 -0.17700
N 	N 	0.02540 0.52910 0.25770 -0.04400
N 	N 	0.96334 0.12456 0.43120 -0.18900
N 	N 	0.79520 0.38520 0.12320 -0.03100
N 	N 	0.61480 0.87680 0.20480 -0.03100
N 	N 	0.62320 0.88520 0.29520 -0.03100
N 	N 	0.34810 0.16780 0.83540 -0.05900
N 	N 	0.04855 0.45145 0.75000 -0.03500
N 	N 	0.90249 0.59751 0.25000 -0.28300
N 	N 	0.40249 0.75000 0.09751 -0.28300
N 	N 	0.57667 0.92333 0.25000 -0.25400
N 	N 	0.47090 0.74230 0.97460 -0.04400
N 	N 	0.97460 0.47090 0.74230 -0.04400
N 	N 	0.33540 0.66780 0.84810 -0.05900
N 	N 	0.15190 0.66460 0.33220 -0.05900
N 	N 	0.46334 0.93120 0.62456 -0.18900
N 	N 	0.24230 0.97090 0.47460 -0.04300
N 	N 	0.52910 0.25770 0.02540 -0.04400
N 	N 	0.25770 0.02540 0.52910 -0.04400
O 	O 	0.85488 0.17948 0.28252 -0.45000
O 	O 	0.78252 0.67948 0.35488 -0.45000
O 	O 	0.80237 0.29977 0.91995 -0.44300
O 	O 	0.21748 0.32052 0.64512 -0.45000
O 	O 	0.20023 0.69763 0.58005 -0.44300
O 	O 	0.17948 0.28252 0.85488 -0.45000
O 	O 	0.28252 0.85488 0.17948 -0.45000
O 	O 	0.08005 0.19763 0.70023 -0.44300
O 	O 	0.82052 0.71748 0.14512 -0.45000
O 	O 	0.41995 0.79977 0.30237 -0.44300
O 	O 	0.29977 0.91995 0.80237 -0.44300
O 	O 	0.35488 0.78252 0.67948 -0.45000
O 	O 	0.30237 0.41995 0.79977 -0.44300
O 	O 	0.71748 0.14512 0.82052 -0.45000
O 	O 	0.69763 0.58005 0.20023 -0.44300
O 	O 	0.32052 0.64512 0.21748 -0.45000
O 	O 	0.58005 0.20023 0.69763 -0.44300
O 	O 	0.67948 0.35488 0.78252 -0.45000
O 	O 	0.79977 0.30237 0.41995 -0.44300
O 	O 	0.70023 0.08005 0.19763 -0.44300
O 	O 	0.14512 0.82052 0.71748 -0.45000
O 	O 	0.64512 0.21748 0.32052 -0.45000
O 	O 	0.91995 0.80237 0.29977 -0.44300
O 	O 	0.19763 0.70023 0.08005 -0.44300
