data_crystal

_cell_length_a 11.12300
_cell_length_b 13.06100
_cell_length_c 21.07300
_cell_angle_alpha 90.00000
_cell_angle_beta  90.00000
_cell_angle_gamma 90.00000

_symmetry_space_group_name_	'P 1'
_symmetry_space_group_name_H-M	'P 1'

loop_
_symmetry_equiv_pos_as_xyz
  x,y,z

loop_
_atom_site_label
_atom_site_type_symbol
_atom_site_fract_x
_atom_site_fract_y
_atom_site_fract_z
_atom_site_charge
Cu	Cu	0.50000 0.64499 0.54735 0.92400
Cu	Cu	0.50000 0.85501 0.04735 0.92300
H 	H 	0.29810 0.52910 0.60420 0.00500
H 	H 	0.50000 0.93700 0.65880 0.30700
H 	H 	0.09320 0.74350 0.98550 0.08400
H 	H 	0.70190 0.97090 0.10420 0.00400
H 	H 	0.09320 0.75650 0.48550 0.08300
H 	H 	0.50000 0.64550 0.75900 0.02300
H 	H 	0.09320 0.97300 0.10770 0.08300
H 	H 	0.90680 0.75650 0.48550 0.08300
H 	H 	0.50000 0.85450 0.25900 0.02200
H 	H 	0.50000 0.51400 0.31390 0.15600
H 	H 	0.70310 0.74460 0.98830 0.00500
H 	H 	0.90680 0.52700 0.60770 0.08300
H 	H 	0.29690 0.74460 0.98830 0.00500
H 	H 	0.50000 0.98600 0.81390 0.15600
H 	H 	0.70190 0.52910 0.60420 0.00500
H 	H 	0.09320 0.52700 0.60770 0.08300
H 	H 	0.70310 0.75540 0.48830 0.00400
H 	H 	0.29690 0.75540 0.48830 0.00400
H 	H 	0.90680 0.74350 0.98550 0.08400
H 	H 	0.50000 0.80830 0.36400 0.10800
H 	H 	0.50000 0.56300 0.15880 0.30700
H 	H 	0.50000 0.69170 0.86400 0.10800
H 	H 	0.29810 0.97090 0.10420 0.00400
H 	H 	0.90680 0.97300 0.10770 0.08300
C 	C 	0.13270 0.70930 0.51110 -0.14600
C 	C 	0.06730 0.85820 0.04700 0.06800
C 	C 	0.13230 0.92530 0.08220 -0.14500
C 	C 	0.74390 0.57700 0.58030 0.09900
C 	C 	0.74470 0.70780 0.51270 0.09700
C 	C 	0.13230 0.57470 0.58220 -0.14500
C 	C 	0.86770 0.57470 0.58220 -0.14500
C 	C 	0.50000 0.58290 0.30290 -0.25000
C 	C 	0.50000 0.91710 0.80290 -0.25000
C 	C 	0.93270 0.64180 0.54700 0.06800
C 	C 	0.74390 0.92300 0.08030 0.09900
C 	C 	0.86770 0.92530 0.08220 -0.14500
C 	C 	0.50000 0.62010 0.41770 0.31800
C 	C 	0.50000 0.65540 0.34920 0.05900
C 	C 	0.50000 0.61090 0.23890 0.34500
C 	C 	0.74470 0.79220 0.01270 0.09600
C 	C 	0.50000 0.74410 0.15390 0.39200
C 	C 	0.50000 0.75820 0.33270 -0.15100
C 	C 	0.50000 0.87990 0.91770 0.31800
C 	C 	0.93270 0.85820 0.04700 0.06800
C 	C 	0.50000 0.71460 0.76960 0.12800
C 	C 	0.86730 0.70930 0.51110 -0.14600
C 	C 	0.25530 0.70780 0.51270 0.09700
C 	C 	0.25610 0.57700 0.58030 0.09900
C 	C 	0.50000 0.88910 0.73890 0.34500
C 	C 	0.50000 0.75590 0.65390 0.39200
C 	C 	0.50000 0.78700 0.72120 -0.25600
C 	C 	0.13270 0.79070 0.01110 -0.14700
C 	C 	0.50000 0.78540 0.26960 0.12800
C 	C 	0.25530 0.79220 0.01270 0.09600
C 	C 	0.86730 0.79070 0.01110 -0.14700
C 	C 	0.50000 0.71300 0.22120 -0.25600
C 	C 	0.06730 0.64180 0.54700 0.06800
C 	C 	0.50000 0.74180 0.83270 -0.15100
C 	C 	0.50000 0.84460 0.84920 0.05900
C 	C 	0.25610 0.92300 0.08030 0.09900
N 	N 	0.68250 0.64270 0.54687 -0.22000
N 	N 	0.68250 0.85730 0.04687 -0.22000
N 	N 	0.31750 0.64270 0.54687 -0.22000
N 	N 	0.31750 0.85730 0.04687 -0.22000
O 	O 	0.50000 0.69210 0.45910 -0.38200
O 	O 	0.50000 0.67660 0.11190 -0.33900
O 	O 	0.50000 0.96330 0.69410 -0.47100
O 	O 	0.50000 0.83780 0.14100 -0.39200
O 	O 	0.50000 0.82340 0.61190 -0.33900
O 	O 	0.50000 0.96890 0.93010 -0.37200
O 	O 	0.50000 0.53110 0.43010 -0.37300
O 	O 	0.50000 0.66220 0.64100 -0.39200
O 	O 	0.50000 0.80790 0.95910 -0.38200
O 	O 	0.50000 0.53670 0.19410 -0.47100
Cu	Cu	0.50000 0.35501 0.45265 0.92300
Cu	Cu	0.50000 0.14499 0.95265 0.92200
H 	H 	0.09320 0.24350 0.51450 0.08300
H 	H 	0.50000 0.01400 0.18610 0.15600
H 	H 	0.50000 0.48600 0.68610 0.15600
H 	H 	0.70310 0.25540 0.01170 0.00500
H 	H 	0.29690 0.25540 0.01170 0.00500
H 	H 	0.50000 0.14550 0.74100 0.02200
H 	H 	0.50000 0.43700 0.84120 0.30700
H 	H 	0.50000 0.19170 0.63600 0.10800
H 	H 	0.70190 0.47090 0.39580 0.00500
H 	H 	0.50000 0.35450 0.24100 0.02300
H 	H 	0.29690 0.24460 0.51170 0.00400
H 	H 	0.29810 0.47090 0.39580 0.00500
H 	H 	0.70310 0.24460 0.51170 0.00400
H 	H 	0.09320 0.25650 0.01450 0.08400
H 	H 	0.90680 0.25650 0.01450 0.08400
H 	H 	0.90680 0.47300 0.39230 0.08300
H 	H 	0.29810 0.02910 0.89580 0.00400
H 	H 	0.09320 0.02700 0.89230 0.08300
H 	H 	0.70190 0.02910 0.89580 0.00400
H 	H 	0.90680 0.24350 0.51450 0.08300
H 	H 	0.09320 0.47300 0.39230 0.08300
H 	H 	0.50000 0.06300 0.34120 0.30700
H 	H 	0.90680 0.02700 0.89230 0.08300
H 	H 	0.50000 0.30830 0.13600 0.10800
C 	C 	0.50000 0.11090 0.26110 0.34500
C 	C 	0.74390 0.07700 0.91970 0.09900
C 	C 	0.86730 0.29070 0.48890 -0.14600
C 	C 	0.74470 0.29220 0.48730 0.09700
C 	C 	0.06730 0.14180 0.95300 0.06800
C 	C 	0.25530 0.20780 0.98730 0.09600
C 	C 	0.50000 0.38910 0.76110 0.34500
C 	C 	0.50000 0.41710 0.69710 -0.25000
C 	C 	0.13230 0.42530 0.41780 -0.14500
C 	C 	0.50000 0.21300 0.27880 -0.25600
C 	C 	0.50000 0.37990 0.58230 0.31800
C 	C 	0.50000 0.25590 0.84610 0.39200
C 	C 	0.50000 0.28700 0.77880 -0.25600
C 	C 	0.25530 0.29220 0.48730 0.09700
C 	C 	0.13270 0.20930 0.98890 -0.14700
C 	C 	0.93270 0.35820 0.45300 0.06800
C 	C 	0.50000 0.15540 0.15080 0.05900
C 	C 	0.50000 0.12010 0.08230 0.31800
C 	C 	0.86770 0.42530 0.41780 -0.14500
C 	C 	0.86730 0.20930 0.98890 -0.14700
C 	C 	0.74470 0.20780 0.98730 0.09600
C 	C 	0.25610 0.42300 0.41970 0.09900
C 	C 	0.50000 0.08290 0.19710 -0.25000
C 	C 	0.13230 0.07470 0.91780 -0.14500
C 	C 	0.93270 0.14180 0.95300 0.06800
C 	C 	0.50000 0.24180 0.66730 -0.15100
C 	C 	0.13270 0.29070 0.48890 -0.14600
C 	C 	0.74390 0.42300 0.41970 0.09900
C 	C 	0.50000 0.34460 0.65080 0.05900
C 	C 	0.06730 0.35820 0.45300 0.06800
C 	C 	0.25610 0.07700 0.91970 0.09900
C 	C 	0.50000 0.25820 0.16730 -0.15100
C 	C 	0.50000 0.24410 0.34610 0.39200
C 	C 	0.86770 0.07470 0.91780 -0.14500
C 	C 	0.50000 0.21460 0.73040 0.12800
C 	C 	0.50000 0.28540 0.23040 0.12800
N 	N 	0.68250 0.35730 0.45313 -0.22000
N 	N 	0.31750 0.14270 0.95313 -0.22000
N 	N 	0.31750 0.35730 0.45313 -0.22000
N 	N 	0.68250 0.14270 0.95313 -0.22000
O 	O 	0.50000 0.32340 0.88810 -0.33900
O 	O 	0.50000 0.46890 0.56990 -0.37300
O 	O 	0.50000 0.03110 0.06990 -0.37200
O 	O 	0.50000 0.19210 0.04090 -0.38200
O 	O 	0.50000 0.33780 0.35900 -0.39200
O 	O 	0.50000 0.17660 0.38810 -0.33900
O 	O 	0.50000 0.30790 0.54090 -0.38200
O 	O 	0.50000 0.46330 0.80590 -0.47100
O 	O 	0.50000 0.03670 0.30590 -0.47100
O 	O 	0.50000 0.16220 0.85900 -0.39200
