data_crystal

_cell_length_a 9.97290
_cell_length_b 10.27750
_cell_length_c 23.69500
_cell_angle_alpha 90.00000
_cell_angle_beta  90.00000
_cell_angle_gamma 90.00000

_symmetry_space_group_name_	'P 1'
_symmetry_space_group_name_H-M	'P 1'

loop_
_symmetry_equiv_pos_as_xyz
  x,y,z

loop_
_atom_site_label
_atom_site_type_symbol
_atom_site_fract_x
_atom_site_fract_y
_atom_site_fract_z
_atom_site_charge
Co	Co	0.98757 0.70892 0.21377 1.19300
Co	Co	0.51243 0.20892 0.71377 1.19500
Co	Co	0.01243 0.29108 0.78623 1.19300
Co	Co	0.48757 0.79108 0.28623 1.19500
Co	Co	0.51243 0.70892 0.78623 1.19500
Co	Co	0.01243 0.79108 0.71377 1.19500
Co	Co	0.98757 0.20892 0.28623 1.19400
Co	Co	0.48757 0.29108 0.21377 1.19400
H 	H 	0.02930 0.32970 0.99800 0.07000
H 	H 	0.72650 0.60030 0.16200 0.02200
H 	H 	0.38690 0.75590 0.13400 0.12800
H 	H 	0.88690 0.74410 0.36600 0.12800
H 	H 	0.53870 0.89130 0.13300 0.13000
H 	H 	0.37670 0.92000 0.57640 0.07500
H 	H 	0.57490 0.88210 0.65690 0.13700
H 	H 	0.47070 0.32970 0.00200 0.07400
H 	H 	0.33500 0.61350 0.67230 0.13500
H 	H 	0.38690 0.25590 0.36600 0.12700
H 	H 	0.97070 0.67030 0.00200 0.07000
H 	H 	0.43570 0.69060 0.91080 0.01000
H 	H 	0.22650 0.89970 0.33800 0.02200
H 	H 	0.06430 0.19060 0.41080 0.00900
H 	H 	0.16500 0.11350 0.17230 0.13400
H 	H 	0.12330 0.42000 0.07640 0.07700
H 	H 	0.37670 0.42000 0.92360 0.07400
H 	H 	0.53870 0.39130 0.36700 0.13000
H 	H 	0.56430 0.30940 0.08920 0.01000
H 	H 	0.93570 0.80940 0.58920 0.00900
H 	H 	0.03870 0.60870 0.36700 0.13200
H 	H 	0.56430 0.80940 0.41080 0.01000
H 	H 	0.27350 0.89970 0.66200 0.02200
H 	H 	0.61310 0.24410 0.86600 0.12800
H 	H 	0.22650 0.39970 0.16200 0.02200
H 	H 	0.06430 0.69060 0.08920 0.01700
H 	H 	0.66500 0.88650 0.17230 0.13400
H 	H 	0.33500 0.11350 0.82770 0.13400
H 	H 	0.42510 0.11790 0.34310 0.13700
H 	H 	0.52930 0.17030 0.50200 0.07300
H 	H 	0.02930 0.82970 0.50200 0.07400
H 	H 	0.07490 0.61790 0.84310 0.13800
H 	H 	0.03870 0.10870 0.13300 0.13000
H 	H 	0.27350 0.39970 0.83800 0.02200
H 	H 	0.43570 0.19060 0.58920 0.01000
H 	H 	0.77350 0.10030 0.66200 0.02200
H 	H 	0.83500 0.38650 0.67230 0.13600
H 	H 	0.42510 0.61790 0.15690 0.13700
H 	H 	0.11310 0.75590 0.86600 0.12800
H 	H 	0.57490 0.38210 0.84310 0.13700
H 	H 	0.77350 0.60030 0.83800 0.02200
H 	H 	0.52930 0.67030 0.99800 0.07400
H 	H 	0.88690 0.24410 0.13400 0.12800
H 	H 	0.62330 0.08000 0.42360 0.07500
H 	H 	0.47070 0.82970 0.49800 0.07300
H 	H 	0.46130 0.60870 0.63300 0.13000
H 	H 	0.61310 0.74410 0.63400 0.12700
H 	H 	0.62330 0.58000 0.07640 0.07400
H 	H 	0.66500 0.38650 0.32770 0.13500
H 	H 	0.12330 0.92000 0.42360 0.07600
H 	H 	0.92510 0.38210 0.15690 0.13800
H 	H 	0.16500 0.61350 0.32770 0.13600
H 	H 	0.11310 0.25590 0.63400 0.12800
H 	H 	0.72650 0.10030 0.33800 0.02200
H 	H 	0.96130 0.39130 0.63300 0.13200
H 	H 	0.46130 0.10870 0.86700 0.13000
H 	H 	0.87670 0.58000 0.92360 0.07700
H 	H 	0.83500 0.88650 0.82770 0.13400
H 	H 	0.87670 0.08000 0.57640 0.07600
H 	H 	0.97070 0.17030 0.49800 0.07400
H 	H 	0.96130 0.89130 0.86700 0.13000
H 	H 	0.93570 0.30940 0.91080 0.01700
H 	H 	0.92510 0.88210 0.34310 0.13700
H 	H 	0.07490 0.11790 0.65690 0.13700
C 	C 	0.98660 0.99830 0.79445 0.40800
C 	C 	0.91810 0.15740 0.46604 -0.13000
C 	C 	0.52620 0.16960 0.58648 0.06900
C 	C 	0.48660 0.00170 0.79445 0.41200
C 	C 	0.47380 0.33040 0.08648 0.07000
C 	C 	0.21440 0.20890 0.70587 0.42600
C 	C 	0.08190 0.84260 0.53396 -0.13000
C 	C 	0.51340 0.99830 0.20555 0.41200
C 	C 	0.27560 0.38310 0.12946 0.07100
C 	C 	0.51340 0.49830 0.29445 0.41300
C 	C 	0.58190 0.15740 0.53396 -0.12900
C 	C 	0.97380 0.16960 0.41352 0.07200
C 	C 	0.09310 0.70700 0.83205 -0.29300
C 	C 	0.78680 0.10380 0.57788 -0.12400
C 	C 	0.28680 0.39620 0.92212 -0.12100
C 	C 	0.91810 0.65740 0.03396 -0.12200
C 	C 	0.78680 0.60380 0.92212 -0.12700
C 	C 	0.40690 0.70700 0.16795 -0.29100
C 	C 	0.43220 0.11660 0.82809 -0.29000
C 	C 	0.01340 0.00170 0.20555 0.40800
C 	C 	0.47380 0.83040 0.41352 0.06900
C 	C 	0.93220 0.88340 0.82809 -0.28900
C 	C 	0.21710 0.37420 0.97196 0.04500
C 	C 	0.21710 0.87420 0.52804 0.05100
C 	C 	0.27560 0.88310 0.37054 0.07000
C 	C 	0.71440 0.79110 0.70587 0.42500
C 	C 	0.78560 0.29110 0.20587 0.42500
C 	C 	0.71320 0.10380 0.42212 -0.12500
C 	C 	0.56780 0.38340 0.32809 -0.29100
C 	C 	0.59310 0.29300 0.83205 -0.29100
C 	C 	0.21320 0.89620 0.42212 -0.12400
C 	C 	0.78560 0.79110 0.29413 0.42600
C 	C 	0.09310 0.20700 0.66795 -0.29700
C 	C 	0.21320 0.39620 0.07788 -0.12700
C 	C 	0.41810 0.34260 0.03396 -0.13100
C 	C 	0.28680 0.89620 0.57788 -0.12500
C 	C 	0.28560 0.20890 0.29413 0.42500
C 	C 	0.40690 0.20700 0.33205 -0.29100
C 	C 	0.22440 0.38310 0.87054 0.06700
C 	C 	0.28560 0.70890 0.20587 0.42400
C 	C 	0.06780 0.61660 0.32809 -0.29500
C 	C 	0.52620 0.66960 0.91352 0.07000
C 	C 	0.77560 0.61690 0.12946 0.06700
C 	C 	0.41810 0.84260 0.46604 -0.12900
C 	C 	0.02620 0.33040 0.91352 0.05800
C 	C 	0.06780 0.11660 0.17191 -0.28900
C 	C 	0.22440 0.88310 0.62946 0.07000
C 	C 	0.71710 0.12580 0.52804 0.04900
C 	C 	0.93220 0.38340 0.67191 -0.29500
C 	C 	0.08190 0.34260 0.96604 -0.12200
C 	C 	0.78290 0.12580 0.47196 0.05100
C 	C 	0.72440 0.11690 0.62946 0.07000
C 	C 	0.71320 0.60380 0.07788 -0.12100
C 	C 	0.97380 0.66960 0.08648 0.05800
C 	C 	0.58190 0.65740 0.96604 -0.13100
C 	C 	0.02620 0.83040 0.58648 0.07200
C 	C 	0.77560 0.11690 0.37054 0.07000
C 	C 	0.48660 0.50170 0.70555 0.41300
C 	C 	0.59310 0.79300 0.66795 -0.29100
C 	C 	0.43220 0.61660 0.67191 -0.29100
C 	C 	0.28290 0.87420 0.47196 0.04900
C 	C 	0.72440 0.61690 0.87054 0.07100
C 	C 	0.90690 0.29300 0.16795 -0.29300
C 	C 	0.98660 0.49830 0.70555 0.41900
C 	C 	0.21440 0.70890 0.79413 0.42500
C 	C 	0.71710 0.62580 0.97196 0.05300
C 	C 	0.71440 0.29110 0.79413 0.42400
C 	C 	0.90690 0.79300 0.33205 -0.29700
C 	C 	0.28290 0.37420 0.02804 0.05300
C 	C 	0.56780 0.88340 0.17191 -0.29000
C 	C 	0.01340 0.50170 0.29445 0.41900
C 	C 	0.78290 0.62580 0.02804 0.04500
N 	N 	0.40360 0.84760 0.36554 -0.21700
N 	N 	0.90360 0.15240 0.36554 -0.21700
N 	N 	0.09640 0.34760 0.86554 -0.21500
N 	N 	0.59640 0.65240 0.86554 -0.21700
N 	N 	0.09640 0.84760 0.63446 -0.21700
N 	N 	0.90360 0.65240 0.13446 -0.21500
N 	N 	0.40360 0.34760 0.13446 -0.21700
N 	N 	0.59640 0.15240 0.63446 -0.21700
O 	O 	0.19990 0.74640 0.74398 -0.43600
O 	O 	0.97240 0.02230 0.25455 -0.42900
O 	O 	0.32020 0.17040 0.68389 -0.42700
O 	O 	0.02490 0.73960 0.30644 -0.15900
O 	O 	0.98170 0.10640 0.81883 -0.41700
O 	O 	0.97510 0.26040 0.69356 -0.15900
O 	O 	0.47510 0.73960 0.69356 -0.16400
O 	O 	0.52760 0.02230 0.74545 -0.43100
O 	O 	0.97510 0.76040 0.80644 -0.16300
O 	O 	0.69990 0.25360 0.74398 -0.43500
O 	O 	0.52490 0.76040 0.19356 -0.16400
O 	O 	0.47240 0.47770 0.24545 -0.43100
O 	O 	0.02760 0.97770 0.74545 -0.42900
O 	O 	0.48170 0.39360 0.68117 -0.42300
O 	O 	0.51830 0.60640 0.31883 -0.42300
O 	O 	0.67980 0.82960 0.31611 -0.42700
O 	O 	0.02490 0.23960 0.19356 -0.16300
O 	O 	0.48170 0.89360 0.81883 -0.42300
O 	O 	0.51830 0.10640 0.18117 -0.42300
O 	O 	0.32020 0.67040 0.81611 -0.42600
O 	O 	0.69990 0.75360 0.75602 -0.43500
O 	O 	0.01830 0.39360 0.31883 -0.42400
O 	O 	0.02760 0.47770 0.75455 -0.43500
O 	O 	0.82020 0.82960 0.68389 -0.42600
O 	O 	0.67980 0.32960 0.18389 -0.42600
O 	O 	0.80010 0.75360 0.24398 -0.43700
O 	O 	0.19990 0.24640 0.75602 -0.43700
O 	O 	0.30010 0.74640 0.25602 -0.43500
O 	O 	0.98170 0.60640 0.68117 -0.42400
O 	O 	0.30010 0.24640 0.24398 -0.43500
O 	O 	0.17980 0.67040 0.18389 -0.42500
O 	O 	0.52490 0.26040 0.30644 -0.16400
O 	O 	0.97240 0.52230 0.24545 -0.43500
O 	O 	0.80010 0.25360 0.25602 -0.43600
O 	O 	0.17980 0.17040 0.31611 -0.42600
O 	O 	0.01830 0.89360 0.18117 -0.41700
O 	O 	0.47510 0.23960 0.80644 -0.16400
O 	O 	0.52760 0.52230 0.75455 -0.43100
O 	O 	0.47240 0.97770 0.25455 -0.43100
O 	O 	0.82020 0.32960 0.81611 -0.42500
