data_crystal

_cell_length_a 18.10650
_cell_length_b 18.10650
_cell_length_c 18.10650
_cell_angle_alpha 60.00000
_cell_angle_beta  60.00000
_cell_angle_gamma 60.00000

_symmetry_space_group_name_	'P 1'
_symmetry_space_group_name_H-M	'P 1'

loop_
_symmetry_equiv_pos_as_xyz
  x,y,z

loop_
_atom_site_label
_atom_site_type_symbol
_atom_site_fract_x
_atom_site_fract_y
_atom_site_fract_z
_atom_site_charge
Zn	Zn	0.79354 0.61938 0.79354 1.21600
Zn	Zn	0.61938 0.79354 0.79354 1.21600
Zn	Zn	0.20646 0.20646 0.38062 1.21600
Zn	Zn	0.79354 0.79354 0.79354 1.21600
Zn	Zn	0.20646 0.38062 0.20646 1.21600
Zn	Zn	0.20646 0.20646 0.20646 1.21500
Zn	Zn	0.38062 0.20646 0.20646 1.21500
Zn	Zn	0.79354 0.79354 0.61938 1.21500
C 	C 	0.41290 0.53690 0.02510 -0.00000
C 	C 	0.97490 0.46310 0.97490 0.00100
C 	C 	0.53690 0.02510 0.02510 0.00000
C 	C 	0.94610 0.55390 0.55390 -0.09100
C 	C 	0.41290 0.02510 0.53690 0.00000
C 	C 	0.55390 0.55390 0.94610 -0.09100
C 	C 	0.38730 0.38730 0.11270 0.36800
C 	C 	0.46310 0.58710 0.97490 0.00000
C 	C 	0.58710 0.46310 0.97490 0.00200
C 	C 	0.94610 0.94610 0.55390 -0.09100
C 	C 	0.94610 0.55390 0.94610 -0.09000
C 	C 	0.02510 0.53690 0.41290 0.00000
C 	C 	0.02510 0.41290 0.02510 -0.00100
C 	C 	0.88730 0.61270 0.88730 0.36900
C 	C 	0.61270 0.88730 0.61270 0.36800
C 	C 	0.38730 0.11270 0.11270 0.36900
C 	C 	0.61270 0.88730 0.88730 0.36800
C 	C 	0.61270 0.61270 0.88730 0.36900
C 	C 	0.53690 0.41290 0.02510 -0.00100
C 	C 	0.58710 0.97490 0.97490 -0.00000
C 	C 	0.11270 0.38730 0.11270 0.36900
C 	C 	0.46310 0.97490 0.97490 -0.00000
C 	C 	0.02510 0.41290 0.53690 -0.00100
C 	C 	0.88730 0.88730 0.61270 0.36900
C 	C 	0.46310 0.97490 0.58710 -0.00100
C 	C 	0.38730 0.11270 0.38730 0.36900
C 	C 	0.05390 0.44610 0.05390 -0.09000
C 	C 	0.41290 0.02510 0.02510 0.00000
C 	C 	0.97490 0.97490 0.46310 0.00200
C 	C 	0.88730 0.61270 0.61270 0.36900
C 	C 	0.53690 0.02510 0.41290 0.00200
C 	C 	0.97490 0.97490 0.58710 0.00200
C 	C 	0.44610 0.05390 0.44610 -0.09100
C 	C 	0.02510 0.53690 0.02510 0.00100
C 	C 	0.02510 0.02510 0.41290 -0.00200
C 	C 	0.11270 0.38730 0.38730 0.36800
C 	C 	0.02510 0.02510 0.53690 -0.00100
C 	C 	0.97490 0.46310 0.58710 0.00100
C 	C 	0.97490 0.58710 0.46310 -0.00000
C 	C 	0.55390 0.94610 0.94610 -0.09100
C 	C 	0.97490 0.58710 0.97490 0.00000
C 	C 	0.44610 0.05390 0.05390 -0.09100
C 	C 	0.05390 0.44610 0.44610 -0.09000
C 	C 	0.11270 0.11270 0.38730 0.36800
C 	C 	0.05390 0.05390 0.44610 -0.09000
C 	C 	0.55390 0.94610 0.55390 -0.09000
C 	C 	0.58710 0.97490 0.46310 -0.00200
C 	C 	0.44610 0.44610 0.05390 -0.09000
O 	O 	0.13360 0.42978 0.13360 -0.50500
O 	O 	0.13360 0.42978 0.30302 -0.50500
O 	O 	0.86640 0.57022 0.86640 -0.50500
O 	O 	0.30302 0.13360 0.42978 -0.50500
O 	O 	0.13360 0.13360 0.42978 -0.50500
O 	O 	0.86640 0.57022 0.69698 -0.50500
O 	O 	0.69698 0.86640 0.57022 -0.50500
O 	O 	0.86640 0.86640 0.57022 -0.50500
O 	O 	0.13360 0.30302 0.13360 -0.50500
O 	O 	0.42978 0.30302 0.13360 -0.50500
O 	O 	0.86640 0.69698 0.86640 -0.50500
O 	O 	0.13360 0.13360 0.30302 -0.50500
O 	O 	0.69698 0.86640 0.86640 -0.50500
O 	O 	0.57022 0.69698 0.86640 -0.50500
O 	O 	0.57022 0.86640 0.86640 -0.50500
O 	O 	0.13360 0.30302 0.42978 -0.50500
O 	O 	0.25000 0.25000 0.25000 -0.97400
O 	O 	0.30302 0.42978 0.13360 -0.50500
O 	O 	0.69698 0.57022 0.86640 -0.50500
O 	O 	0.57022 0.86640 0.69698 -0.50500
O 	O 	0.42978 0.13360 0.13360 -0.50500
O 	O 	0.86640 0.86640 0.69698 -0.50500
O 	O 	0.75000 0.75000 0.75000 -0.97400
O 	O 	0.30302 0.13360 0.13360 -0.50500
O 	O 	0.86640 0.69698 0.57022 -0.50500
O 	O 	0.42978 0.13360 0.30302 -0.50500
H 	H 	0.33611 0.56917 0.04736 0.04200
H 	H 	0.95490 0.42685 0.95490 0.04100
H 	H 	0.56917 0.04736 0.04736 0.04200
H 	H 	0.33611 0.04736 0.56917 0.04200
H 	H 	0.43083 0.66389 0.95264 0.04200
H 	H 	0.66335 0.42685 0.95490 0.04100
H 	H 	0.04736 0.56917 0.33611 0.04200
H 	H 	0.04736 0.33611 0.04736 0.04200
H 	H 	0.56917 0.33611 0.04736 0.04300
H 	H 	0.66389 0.95264 0.95264 0.04200
H 	H 	0.43083 0.95264 0.95264 0.04200
H 	H 	0.04736 0.33611 0.56917 0.04200
H 	H 	0.43083 0.95264 0.66389 0.04200
H 	H 	0.33611 0.04736 0.04736 0.04200
H 	H 	0.95490 0.95490 0.42685 0.04100
H 	H 	0.57315 0.04510 0.33665 0.04100
H 	H 	0.95490 0.95490 0.66335 0.04100
H 	H 	0.04510 0.57315 0.04510 0.04100
H 	H 	0.04736 0.04736 0.33611 0.04300
H 	H 	0.04736 0.04736 0.56917 0.04300
H 	H 	0.95490 0.42685 0.66335 0.04100
H 	H 	0.95264 0.66389 0.43083 0.04200
H 	H 	0.95490 0.66335 0.95490 0.04100
H 	H 	0.66389 0.95264 0.43083 0.04300
