data_crystal

_cell_length_a 8.19010
_cell_length_b 8.96290
_cell_length_c 20.18690
_cell_angle_alpha 90.00000
_cell_angle_beta  90.00000
_cell_angle_gamma 90.84560

_symmetry_space_group_name_	'P 1'
_symmetry_space_group_name_H-M	'P 1'

loop_
_symmetry_equiv_pos_as_xyz
  x,y,z

loop_
_atom_site_label
_atom_site_type_symbol
_atom_site_fract_x
_atom_site_fract_y
_atom_site_fract_z
_atom_site_charge
Fe	Fe	0.50000 0.50000 0.50000 1.13200
Fe	Fe	-0.00000 0.00000 -0.00000 1.06200
H 	H 	0.89590 0.64710 0.49810 0.02600
H 	H 	0.98940 0.80100 0.13450 0.05900
H 	H 	0.52830 0.67390 0.35630 0.01200
H 	H 	0.48940 0.30100 0.36550 -0.00000
H 	H 	0.03290 0.67000 0.64720 0.01500
H 	H 	0.81840 0.46040 0.99900 0.05200
H 	H 	0.02830 0.17390 0.14370 -0.05600
H 	H 	0.39590 0.14710 0.00190 -0.00600
H 	H 	0.01060 0.19900 0.86550 -0.04800
H 	H 	0.97170 0.82610 0.85630 0.06300
H 	H 	0.31840 0.96040 0.50100 0.09500
H 	H 	0.94410 0.37470 0.66590 0.03500
H 	H 	0.53290 0.17000 0.85280 0.02000
H 	H 	0.44410 0.87470 0.83410 0.03600
H 	H 	0.47170 0.32610 0.64370 0.00100
H 	H 	0.60410 0.85290 0.99810 0.04200
H 	H 	0.46710 0.83000 0.14720 0.03100
H 	H 	0.05590 0.62530 0.33410 0.01400
H 	H 	0.51060 0.69900 0.63450 0.01100
H 	H 	0.18160 0.53960 0.00100 0.01200
H 	H 	0.68160 0.03960 0.49900 -0.03400
H 	H 	0.96710 0.33000 0.35280 0.03500
H 	H 	0.10410 0.35290 0.50190 0.00300
H 	H 	0.55590 0.12530 0.16590 0.01400
C 	C 	0.16030 0.62270 0.35210 0.10500
C 	C 	0.18300 0.27930 0.50220 0.10100
C 	C 	0.81700 0.72070 0.49780 0.11400
C 	C 	0.36070 0.83730 0.13150 0.10900
C 	C 	0.63930 0.16270 0.86850 0.10400
C 	C 	0.66030 0.12270 0.14790 0.10000
C 	C 	0.19880 0.43730 0.00160 0.09000
C 	C 	0.30120 0.06270 0.50160 -0.00400
C 	C 	0.31700 0.22070 0.00220 0.09700
C 	C 	0.80120 0.56270 0.99840 0.11100
C 	C 	0.83970 0.37730 0.64790 0.10700
C 	C 	0.40140 0.67940 0.62480 0.10600
C 	C 	0.90140 0.17940 0.87520 0.18100
C 	C 	0.59860 0.32060 0.37520 0.10500
C 	C 	0.91920 0.14910 0.13640 0.18200
C 	C 	0.69880 0.93730 0.49840 0.20000
C 	C 	0.58080 0.35090 0.63640 0.10600
C 	C 	0.86070 0.33730 0.36850 0.10600
C 	C 	0.09860 0.82060 0.12480 0.03600
C 	C 	0.33970 0.87730 0.85210 0.11300
C 	C 	0.68300 0.77930 0.99780 0.11600
C 	C 	0.41920 0.64910 0.36360 0.10700
C 	C 	0.08080 0.85090 0.86360 0.04500
C 	C 	0.13930 0.66270 0.63150 0.10500
N 	N 	0.15220 0.88790 0.07220 -0.18200
N 	N 	0.19800 0.72430 0.22700 -0.04200
N 	N 	0.80200 0.27570 0.77300 -0.03200
N 	N 	0.32610 0.72480 0.25610 -0.03300
N 	N 	0.65960 0.69720 0.49660 -0.19500
N 	N 	0.91560 0.66680 0.99710 -0.07600
N 	N 	0.69370 0.07650 0.08880 -0.11500
N 	N 	0.67390 0.27520 0.74390 -0.04000
N 	N 	0.80630 0.42350 0.58880 -0.09100
N 	N 	0.41560 0.16680 0.50290 -0.09000
N 	N 	0.84040 0.80280 0.99660 -0.16500
N 	N 	0.20270 0.83340 0.82010 -0.09000
N 	N 	0.49680 0.56930 -0.00000 -0.05800
N 	N 	0.84780 0.11210 0.92780 -0.19700
N 	N 	0.17390 0.77520 0.75610 -0.04000
N 	N 	0.85980 0.09190 0.08230 -0.21200
N 	N 	0.58440 0.83320 0.49710 -0.11300
N 	N 	0.34680 0.36990 0.00120 -0.10400
N 	N 	0.84680 0.86990 0.49880 -0.09700
N 	N 	0.72670 0.28340 0.33670 -0.10300
N 	N 	0.30630 0.92350 0.91120 -0.07600
N 	N 	0.99680 0.06930 0.50000 -0.03200
N 	N 	0.29730 0.66660 0.32010 -0.10300
N 	N 	0.82610 0.22480 0.24390 -0.03300
N 	N 	0.17920 0.60000 0.57630 -0.10300
N 	N 	0.35980 0.59190 0.41770 -0.19600
N 	N 	0.70270 0.33340 0.67990 -0.10300
N 	N 	0.32080 0.90000 0.07630 -0.09100
N 	N 	0.34780 0.61210 0.57220 -0.19800
N 	N 	0.14020 0.90810 0.91770 -0.16400
N 	N 	0.50320 0.43070 -0.00000 -0.04900
N 	N 	0.15960 0.19720 0.00340 -0.21500
N 	N 	0.00320 0.93070 0.50000 -0.03900
N 	N 	0.82080 0.40000 0.42370 -0.09000
N 	N 	0.64020 0.40810 0.58230 -0.19600
N 	N 	0.65320 0.63010 0.99880 -0.08100
N 	N 	0.08440 0.33320 0.00290 -0.12500
N 	N 	0.34040 0.30280 0.50340 -0.19900
N 	N 	0.30200 0.77570 0.72700 -0.03200
N 	N 	0.19370 0.57650 0.41120 -0.10400
N 	N 	0.79730 0.16660 0.17990 -0.11800
N 	N 	0.27330 0.71660 0.66330 -0.10000
N 	N 	0.67920 0.10000 0.92370 -0.09800
N 	N 	0.22670 0.78340 0.16330 -0.09000
N 	N 	0.65220 0.38790 0.42780 -0.19800
N 	N 	0.77330 0.21660 0.83670 -0.11300
N 	N 	0.15320 0.13010 0.50120 -0.10500
N 	N 	0.69800 0.22430 0.27300 -0.04200
