data_crystal

_cell_length_a 18.08310
_cell_length_b 18.08310
_cell_length_c 18.08310
_cell_angle_alpha 61.11890
_cell_angle_beta  61.11890
_cell_angle_gamma 61.11890

_symmetry_space_group_name_	'P 1'
_symmetry_space_group_name_H-M	'P 1'

loop_
_symmetry_equiv_pos_as_xyz
  x,y,z

loop_
_atom_site_label
_atom_site_type_symbol
_atom_site_fract_x
_atom_site_fract_y
_atom_site_fract_z
_atom_site_charge
Zn	Zn	0.80614 0.80612 0.97929 1.20200
Zn	Zn	0.80612 0.97929 0.80614 1.20200
Zn	Zn	0.39056 0.39053 0.22083 1.21500
Zn	Zn	0.39053 0.22083 0.39056 1.21500
Zn	Zn	0.39496 0.39496 0.39496 1.21200
Zn	Zn	0.22083 0.39056 0.39053 1.21500
Zn	Zn	0.97929 0.80614 0.80612 1.20200
Zn	Zn	0.80520 0.80520 0.80520 1.20900
H 	H 	0.24600 0.53070 0.58520 0.03300
H 	H 	0.67530 0.15490 0.61660 0.04500
H 	H 	0.61660 0.67530 0.15490 0.04500
H 	H 	0.53110 0.03130 0.25430 0.00900
H 	H 	0.16250 0.66560 0.94930 0.07400
H 	H 	0.59790 0.15270 0.69140 0.02700
H 	H 	0.59570 0.51610 0.24200 0.04400
H 	H 	0.69140 0.59790 0.15270 0.02700
H 	H 	0.58520 0.24600 0.53070 0.03200
H 	H 	0.94800 0.66420 0.16370 0.06800
H 	H 	0.94930 0.16250 0.66560 0.07300
H 	H 	0.58290 0.03930 0.24790 0.05000
H 	H 	0.24200 0.59570 0.51610 0.04300
H 	H 	0.58460 0.24830 0.03930 0.04700
H 	H 	0.61270 0.16040 0.94370 0.02400
H 	H 	0.51610 0.24200 0.59570 0.04300
H 	H 	0.16370 0.94800 0.66420 0.06800
H 	H 	0.16040 0.94370 0.61270 0.02400
H 	H 	0.16090 0.61210 0.94320 0.02000
H 	H 	0.24830 0.03930 0.58460 0.04700
H 	H 	0.15270 0.69140 0.59790 0.02600
H 	H 	0.03930 0.58460 0.24830 0.04700
H 	H 	0.94320 0.16090 0.61210 0.02000
H 	H 	0.53070 0.58520 0.24600 0.03200
H 	H 	0.25430 0.53110 0.03130 0.00800
H 	H 	0.53050 0.25230 0.03210 0.01400
H 	H 	0.66560 0.94930 0.16250 0.07300
H 	H 	0.03210 0.53050 0.25230 0.01400
H 	H 	0.61210 0.94320 0.16090 0.02000
H 	H 	0.24790 0.58290 0.03930 0.05000
H 	H 	0.15490 0.61660 0.67530 0.04400
H 	H 	0.25230 0.03210 0.53050 0.01400
H 	H 	0.03930 0.24790 0.58290 0.05000
H 	H 	0.03130 0.25430 0.53110 0.00800
H 	H 	0.66420 0.16370 0.94800 0.06800
H 	H 	0.94370 0.61270 0.16040 0.02400
C 	C 	0.14440 0.55740 0.53140 -0.04100
C 	C 	0.98228 0.70988 0.71078 0.36500
C 	C 	0.13770 0.60690 0.00460 0.04200
C 	C 	0.04480 0.04540 0.65180 -0.01000
C 	C 	0.04540 0.65180 0.04480 -0.01000
C 	C 	0.13590 0.63810 0.01120 -0.12200
C 	C 	0.06300 0.58810 0.18750 -0.04900
C 	C 	0.53680 0.55320 0.14740 -0.00800
C 	C 	0.59720 0.12990 0.65430 0.01600
C 	C 	0.60710 0.13700 0.00510 0.02900
C 	C 	0.13700 0.00510 0.60710 0.02900
C 	C 	0.53140 0.14440 0.55740 -0.04100
C 	C 	0.63780 0.13680 0.01030 -0.10700
C 	C 	0.15210 0.54110 0.15260 -0.10300
C 	C 	0.05470 0.57140 0.57080 0.01200
C 	C 	0.01120 0.13590 0.63810 -0.12200
C 	C 	0.71078 0.98228 0.70988 0.36500
C 	C 	0.98650 0.98710 0.71380 0.23900
C 	C 	0.14740 0.53680 0.55320 -0.00800
C 	C 	0.62470 0.62440 0.00210 0.04100
C 	C 	0.00460 0.13770 0.60690 0.04200
C 	C 	0.05720 0.19170 0.55610 0.07100
C 	C 	0.71380 0.98650 0.98710 0.23900
C 	C 	0.13070 0.60840 0.64440 -0.03700
C 	C 	0.20995 0.48165 0.21015 0.39900
C 	C 	0.00210 0.62470 0.62440 0.04100
C 	C 	0.55740 0.53140 0.14440 -0.04100
C 	C 	0.60240 0.54490 0.18010 -0.03400
C 	C 	0.58740 0.06360 0.18670 -0.06500
C 	C 	0.64440 0.13070 0.60840 -0.03700
C 	C 	0.00510 0.60710 0.13700 0.02900
C 	C 	0.50220 0.47120 0.19620 0.06400
C 	C 	0.19620 0.50220 0.47120 0.06400
C 	C 	0.65430 0.59720 0.12990 0.01600
C 	C 	0.98710 0.71380 0.98650 0.23900
C 	C 	0.54490 0.18010 0.60240 -0.03400
C 	C 	0.57080 0.05470 0.57140 0.01200
C 	C 	0.47120 0.19620 0.50220 0.06400
C 	C 	0.19170 0.55610 0.05720 0.07100
C 	C 	0.49710 0.20590 0.47770 0.24100
C 	C 	0.18750 0.06300 0.58810 -0.04900
C 	C 	0.57140 0.57080 0.05470 0.01200
C 	C 	0.65180 0.04480 0.04540 -0.01000
C 	C 	0.48165 0.21015 0.20995 0.39900
C 	C 	0.21015 0.20995 0.48165 0.39900
C 	C 	0.62440 0.00210 0.62470 0.04100
C 	C 	0.20590 0.47770 0.49710 0.24100
C 	C 	0.54110 0.15260 0.15210 -0.10300
C 	C 	0.18370 0.55570 0.59400 -0.01700
C 	C 	0.15260 0.15210 0.54110 -0.10300
C 	C 	0.55570 0.59400 0.18370 -0.01700
C 	C 	0.55620 0.18980 0.05810 0.05500
C 	C 	0.70988 0.71078 0.98228 0.36500
C 	C 	0.47770 0.49710 0.20590 0.24100
C 	C 	0.59400 0.18370 0.55570 -0.01700
C 	C 	0.03890 0.65260 0.65300 -0.09600
C 	C 	0.01030 0.63780 0.13680 -0.10700
C 	C 	0.55320 0.14740 0.53680 -0.00800
C 	C 	0.60840 0.64440 0.13070 -0.03700
C 	C 	0.06360 0.18670 0.58740 -0.06500
C 	C 	0.63810 0.01120 0.13590 -0.12200
C 	C 	0.18010 0.60240 0.54490 -0.03400
C 	C 	0.18670 0.58740 0.06360 -0.06500
C 	C 	0.12990 0.65430 0.59720 0.01600
C 	C 	0.05810 0.55620 0.18980 0.05500
C 	C 	0.13680 0.01030 0.63780 -0.10700
C 	C 	0.18980 0.05810 0.55620 0.05500
C 	C 	0.65300 0.03890 0.65260 -0.09600
C 	C 	0.60690 0.00460 0.13770 0.04200
C 	C 	0.65260 0.65300 0.03890 -0.09600
C 	C 	0.58810 0.18750 0.06300 -0.04900
C 	C 	0.55610 0.05720 0.19170 0.07100
O 	O 	0.17162 0.45982 0.29272 -0.50500
O 	O 	0.45890 0.47470 0.29180 -0.31600
O 	O 	0.49930 0.42690 0.27760 -0.22700
O 	O 	0.46392 0.16272 0.46412 -0.45300
O 	O 	0.46412 0.46392 0.16272 -0.45300
O 	O 	0.27760 0.49930 0.42690 -0.22700
O 	O 	0.84940 0.84940 0.84940 -0.97500
O 	O 	0.73318 0.73338 0.02218 -0.49300
O 	O 	0.02850 0.90140 0.73290 -0.45400
O 	O 	0.90150 0.02820 0.73400 -0.45700
O 	O 	0.73400 0.90150 0.02820 -0.45700
O 	O 	0.90140 0.73290 0.02850 -0.45400
O 	O 	0.29180 0.45890 0.47470 -0.31600
O 	O 	0.29272 0.17162 0.45982 -0.50500
O 	O 	0.16272 0.46412 0.46392 -0.45300
O 	O 	0.02820 0.73400 0.90150 -0.45700
O 	O 	0.02218 0.73318 0.73338 -0.49300
O 	O 	0.34954 0.34954 0.34954 -0.95400
O 	O 	0.73338 0.02218 0.73318 -0.49300
O 	O 	0.90009 0.73139 0.73189 -0.50500
O 	O 	0.73139 0.73189 0.90009 -0.50500
O 	O 	0.73290 0.02850 0.90140 -0.45400
O 	O 	0.42690 0.27760 0.49930 -0.22700
O 	O 	0.17164 0.29284 0.45944 -0.50500
O 	O 	0.45944 0.17164 0.29284 -0.50500
O 	O 	0.29284 0.45944 0.17164 -0.50500
O 	O 	0.47470 0.29180 0.45890 -0.31600
O 	O 	0.73189 0.90009 0.73139 -0.50500
O 	O 	0.45982 0.29272 0.17162 -0.50500
Zn	Zn	0.19388 0.02071 0.19386 1.20100
Zn	Zn	0.19386 0.19388 0.02071 1.20100
Zn	Zn	0.60504 0.60504 0.60504 1.21100
Zn	Zn	0.60944 0.60947 0.77917 1.21400
Zn	Zn	0.02071 0.19386 0.19388 1.20100
Zn	Zn	0.19480 0.19480 0.19480 1.20800
Zn	Zn	0.60947 0.77917 0.60944 1.21400
Zn	Zn	0.77917 0.60944 0.60947 1.21400
H 	H 	0.41710 0.96070 0.75210 0.05000
H 	H 	0.40210 0.84730 0.30860 0.02600
H 	H 	0.48390 0.75800 0.40430 0.04300
H 	H 	0.96070 0.75210 0.41710 0.05000
H 	H 	0.38790 0.05680 0.83910 0.02000
H 	H 	0.74570 0.46890 0.96870 0.00800
H 	H 	0.40430 0.48390 0.75800 0.04300
H 	H 	0.84510 0.38340 0.32470 0.04400
H 	H 	0.46930 0.41480 0.75400 0.03200
H 	H 	0.33580 0.83630 0.05200 0.06800
H 	H 	0.96070 0.41540 0.75170 0.04700
H 	H 	0.83910 0.38790 0.05680 0.02000
H 	H 	0.96790 0.46950 0.74770 0.01400
H 	H 	0.96870 0.74570 0.46890 0.00800
H 	H 	0.05630 0.38730 0.83960 0.02400
H 	H 	0.46890 0.96870 0.74570 0.00800
H 	H 	0.75210 0.41710 0.96070 0.05000
H 	H 	0.41540 0.75170 0.96070 0.04700
H 	H 	0.05070 0.83750 0.33440 0.07300
H 	H 	0.83630 0.05200 0.33580 0.06800
H 	H 	0.46950 0.74770 0.96790 0.01400
H 	H 	0.84730 0.30860 0.40210 0.02600
H 	H 	0.38730 0.83960 0.05630 0.02400
H 	H 	0.74770 0.96790 0.46950 0.01400
H 	H 	0.83960 0.05630 0.38730 0.02400
H 	H 	0.41480 0.75400 0.46930 0.03200
H 	H 	0.33440 0.05070 0.83750 0.07300
H 	H 	0.75400 0.46930 0.41480 0.03200
H 	H 	0.05200 0.33580 0.83630 0.06800
H 	H 	0.75800 0.40430 0.48390 0.04300
H 	H 	0.75170 0.96070 0.41540 0.04700
H 	H 	0.83750 0.33440 0.05070 0.07300
H 	H 	0.32470 0.84510 0.38340 0.04400
H 	H 	0.05680 0.83910 0.38790 0.02000
H 	H 	0.38340 0.32470 0.84510 0.04400
H 	H 	0.30860 0.40210 0.84730 0.02600
C 	C 	0.39760 0.45510 0.81990 -0.03400
C 	C 	0.84790 0.45890 0.84740 -0.10300
C 	C 	0.84740 0.84790 0.45890 -0.10300
C 	C 	0.85560 0.44260 0.46860 -0.04100
C 	C 	0.44260 0.46860 0.85560 -0.04100
C 	C 	0.40600 0.81630 0.44430 -0.01700
C 	C 	0.46320 0.44680 0.85260 -0.00800
C 	C 	0.50290 0.79410 0.52230 0.24100
C 	C 	0.44430 0.40600 0.81630 -0.01700
C 	C 	0.49780 0.52880 0.80380 0.06400
C 	C 	0.99790 0.37530 0.37560 0.04100
C 	C 	0.81330 0.41260 0.93640 -0.06500
C 	C 	0.98880 0.86410 0.36190 -0.12200
C 	C 	0.01772 0.29012 0.28922 0.36500
C 	C 	0.42860 0.42920 0.94530 0.01200
C 	C 	0.81020 0.94190 0.44380 0.05500
C 	C 	0.95460 0.34820 0.95520 -0.01000
C 	C 	0.35560 0.86930 0.39160 -0.03700
C 	C 	0.39310 0.99540 0.86230 0.04200
C 	C 	0.39160 0.35560 0.86930 -0.03700
C 	C 	0.80830 0.44390 0.94280 0.07100
C 	C 	0.52230 0.50290 0.79410 0.24100
C 	C 	0.39290 0.86300 0.99490 0.02900
C 	C 	0.94280 0.80830 0.44390 0.07100
C 	C 	0.85260 0.46320 0.44680 -0.00800
C 	C 	0.46860 0.85560 0.44260 -0.04100
C 	C 	0.81630 0.44430 0.40600 -0.01700
C 	C 	0.34740 0.34700 0.96110 -0.09600
C 	C 	0.41190 0.81250 0.93700 -0.04900
C 	C 	0.86930 0.39160 0.35560 -0.03700
C 	C 	0.81990 0.39760 0.45510 -0.03400
C 	C 	0.41260 0.93640 0.81330 -0.06500
C 	C 	0.86320 0.98970 0.36220 -0.10700
C 	C 	0.37530 0.37560 0.99790 0.04100
C 	C 	0.36190 0.98880 0.86410 -0.12200
C 	C 	0.52880 0.80380 0.49780 0.06400
C 	C 	0.86410 0.36190 0.98880 -0.12200
C 	C 	0.01290 0.28620 0.01350 0.23900
C 	C 	0.78985 0.79005 0.51835 0.39900
C 	C 	0.94190 0.44380 0.81020 0.05500
C 	C 	0.98970 0.36220 0.86320 -0.10700
C 	C 	0.44390 0.94280 0.80830 0.07100
C 	C 	0.45510 0.81990 0.39760 -0.03400
C 	C 	0.96110 0.34740 0.34700 -0.09600
C 	C 	0.86230 0.39310 0.99540 0.04200
C 	C 	0.34820 0.95520 0.95460 -0.01000
C 	C 	0.44380 0.81020 0.94190 0.05500
C 	C 	0.45890 0.84740 0.84790 -0.10300
C 	C 	0.28620 0.01350 0.01290 0.23900
C 	C 	0.80380 0.49780 0.52880 0.06400
C 	C 	0.93640 0.81330 0.41260 -0.06500
C 	C 	0.29012 0.28922 0.01772 0.36500
C 	C 	0.79005 0.51835 0.78985 0.39900
C 	C 	0.87010 0.34570 0.40280 0.01600
C 	C 	0.34700 0.96110 0.34740 -0.09600
C 	C 	0.37560 0.99790 0.37530 0.04100
C 	C 	0.99490 0.39290 0.86300 0.02900
C 	C 	0.34570 0.40280 0.87010 0.01600
C 	C 	0.81250 0.93700 0.41190 -0.04900
C 	C 	0.94530 0.42860 0.42920 0.01200
C 	C 	0.93700 0.41190 0.81250 -0.04900
C 	C 	0.95520 0.95460 0.34820 -0.01000
C 	C 	0.40280 0.87010 0.34570 0.01600
C 	C 	0.99540 0.86230 0.39310 0.04200
C 	C 	0.01350 0.01290 0.28620 0.23900
C 	C 	0.42920 0.94530 0.42860 0.01200
C 	C 	0.36220 0.86320 0.98970 -0.10700
C 	C 	0.79410 0.52230 0.50290 0.24100
C 	C 	0.51835 0.78985 0.79005 0.39900
C 	C 	0.28922 0.01772 0.29012 0.36500
C 	C 	0.44680 0.85260 0.46320 -0.00800
C 	C 	0.86300 0.99490 0.39290 0.02900
O 	O 	0.09991 0.26861 0.26811 -0.50500
O 	O 	0.53608 0.83728 0.53588 -0.45300
O 	O 	0.26861 0.26811 0.09991 -0.50500
O 	O 	0.26710 0.97150 0.09860 -0.45400
O 	O 	0.83728 0.53588 0.53608 -0.45300
O 	O 	0.52530 0.70820 0.54110 -0.31600
O 	O 	0.26662 0.97782 0.26682 -0.49300
O 	O 	0.26682 0.26662 0.97782 -0.49300
O 	O 	0.26600 0.09850 0.97180 -0.45700
O 	O 	0.82836 0.70716 0.54056 -0.50500
O 	O 	0.70716 0.54056 0.82836 -0.50500
O 	O 	0.82838 0.54018 0.70728 -0.50500
O 	O 	0.97782 0.26682 0.26662 -0.49300
O 	O 	0.97180 0.26600 0.09850 -0.45700
O 	O 	0.09850 0.97180 0.26600 -0.45700
O 	O 	0.70820 0.54110 0.52530 -0.31600
O 	O 	0.50070 0.57310 0.72240 -0.22700
O 	O 	0.72240 0.50070 0.57310 -0.22700
O 	O 	0.70728 0.82838 0.54018 -0.50500
O 	O 	0.15060 0.15060 0.15060 -0.97500
O 	O 	0.65046 0.65046 0.65046 -0.95400
O 	O 	0.97150 0.09860 0.26710 -0.45400
O 	O 	0.53588 0.53608 0.83728 -0.45300
O 	O 	0.57310 0.72240 0.50070 -0.22700
O 	O 	0.09860 0.26710 0.97150 -0.45400
O 	O 	0.54018 0.70728 0.82838 -0.50500
O 	O 	0.54110 0.52530 0.70820 -0.31600
O 	O 	0.26811 0.09991 0.26861 -0.50500
O 	O 	0.54056 0.82836 0.70716 -0.50500
