data_crystal

_cell_length_a 9.08100
_cell_length_b 20.91700
_cell_length_c 17.96300
_cell_angle_alpha 92.63300
_cell_angle_beta  90.00000
_cell_angle_gamma 90.00000

_symmetry_space_group_name_	'P 1'
_symmetry_space_group_name_H-M	'P 1'

loop_
_symmetry_equiv_pos_as_xyz
  x,y,z

loop_
_atom_site_label
_atom_site_type_symbol
_atom_site_fract_x
_atom_site_fract_y
_atom_site_fract_z
_atom_site_charge
Ag	Ag	0.74213 0.17527 0.97775 0.38100
Ag	Ag	0.26765 0.44088 0.19838 0.36700
Ag	Ag	0.88257 0.67276 0.87685 0.44100
Ag	Ag	0.76861 0.66412 0.03471 0.37400
Ag	Ag	0.19274 0.93749 0.80832 0.36600
Ag	Ag	0.25787 0.82473 0.02225 0.38200
Ag	Ag	0.42529 0.33412 0.10308 0.43400
Ag	Ag	0.11743 0.32724 0.12315 0.44100
Ag	Ag	0.59821 0.16928 0.12801 0.43500
Ag	Ag	0.73235 0.55912 0.80162 0.36800
Ag	Ag	0.80726 0.06251 0.19168 0.36600
Ag	Ag	0.10299 0.81542 0.86318 0.43200
Ag	Ag	0.40179 0.83072 0.87199 0.43500
Ag	Ag	0.57471 0.66588 0.89692 0.43400
Ag	Ag	0.23139 0.33588 0.96529 0.37400
Ag	Ag	0.89701 0.18458 0.13682 0.43200
H 	H 	0.62120 0.35170 0.99320 -0.07200
H 	H 	0.89420 0.52530 0.08430 0.00000
H 	H 	0.38560 0.97510 0.08080 -0.00400
H 	H 	0.90940 0.95700 0.06100 0.01000
H 	H 	0.10580 0.47470 0.91570 0.00000
H 	H 	0.37130 0.55560 0.07180 0.00500
H 	H 	0.38980 0.07320 0.14550 -0.06400
H 	H 	0.10510 0.56910 0.85280 -0.06100
H 	H 	0.62870 0.44440 0.92820 0.00500
H 	H 	0.09060 0.04300 0.93900 0.01000
H 	H 	0.09650 0.14120 0.00310 -0.05600
H 	H 	0.90350 0.85880 0.99690 -0.05600
H 	H 	0.61440 0.02490 0.91920 -0.00400
H 	H 	0.37880 0.64830 0.00680 -0.07200
H 	H 	0.89490 0.43090 0.14720 -0.06100
H 	H 	0.61020 0.92680 0.85450 -0.06400
C 	C 	0.24060 0.50460 0.00020 -0.02700
C 	C 	0.24660 0.11840 0.07990 -0.20500
C 	C 	0.75980 0.31960 0.11350 0.30600
C 	C 	0.75940 0.49540 0.99980 -0.02700
C 	C 	0.84410 0.89190 0.98140 0.03200
C 	C 	0.24060 0.61720 0.92620 -0.19900
C 	C 	0.76270 0.06120 0.03990 0.01100
C 	C 	0.24020 0.68040 0.88650 0.30600
C 	C 	0.75340 0.88160 0.92010 -0.20500
C 	C 	0.75660 0.55330 0.96070 0.00300
C 	C 	0.74810 0.60090 0.92490 -0.46000
C 	C 	0.84130 0.43420 0.10340 0.02000
C 	C 	0.74820 0.81690 0.88200 0.31900
C 	C 	0.15870 0.56580 0.89660 0.02000
C 	C 	0.77150 0.10910 0.07760 -0.45300
C 	C 	0.23730 0.93880 0.96010 0.01100
C 	C 	0.15590 0.10810 0.01860 0.03200
C 	C 	0.33090 0.06760 0.10340 0.02200
C 	C 	0.24070 0.99940 0.00250 -0.03200
C 	C 	0.32220 0.61370 0.98940 0.02400
C 	C 	0.25190 0.39910 0.07510 -0.46000
C 	C 	0.15970 0.50970 0.93430 -0.13100
C 	C 	0.75930 0.00060 0.99750 -0.03200
C 	C 	0.25180 0.18310 0.11800 0.31900
C 	C 	0.84780 0.95080 0.02000 -0.13000
C 	C 	0.22850 0.89090 0.92240 -0.45300
C 	C 	0.68050 0.44220 0.97260 -0.13200
C 	C 	0.31950 0.55780 0.02740 -0.13200
C 	C 	0.84030 0.49030 0.06570 -0.13100
C 	C 	0.67190 0.99140 0.93530 -0.12600
C 	C 	0.24340 0.44670 0.03930 0.00300
C 	C 	0.15220 0.04920 0.98000 -0.13000
C 	C 	0.67780 0.38630 0.01060 0.02400
C 	C 	0.66910 0.93240 0.89660 0.02200
C 	C 	0.32810 0.00860 0.06470 -0.12600
C 	C 	0.75940 0.38280 0.07380 -0.19900
O 	O 	0.87690 0.30040 0.14310 -0.45200
O 	O 	0.64030 0.28860 0.11660 -0.46900
O 	O 	0.35970 0.71140 0.88340 -0.46900
O 	O 	0.62830 0.79440 0.85600 -0.45000
O 	O 	0.13450 0.21560 0.12010 -0.46300
O 	O 	0.37170 0.20560 0.14400 -0.45000
O 	O 	0.86550 0.78440 0.87990 -0.46300
O 	O 	0.12310 0.69960 0.85690 -0.45200
Ag	Ag	0.69274 0.06251 0.69168 0.36500
Ag	Ag	0.76765 0.55912 0.30162 0.36800
Ag	Ag	0.26861 0.33588 0.46529 0.37500
Ag	Ag	0.92529 0.66588 0.39692 0.43400
Ag	Ag	0.09821 0.83072 0.37199 0.43500
Ag	Ag	0.61743 0.67276 0.37685 0.44100
Ag	Ag	0.90179 0.16928 0.62801 0.43500
Ag	Ag	0.73139 0.66412 0.53471 0.37500
Ag	Ag	0.38257 0.32724 0.62315 0.44100
Ag	Ag	0.75787 0.17527 0.47775 0.38300
Ag	Ag	0.39701 0.81542 0.36318 0.43200
Ag	Ag	0.07471 0.33412 0.60308 0.43400
Ag	Ag	0.60299 0.18458 0.63682 0.43200
Ag	Ag	0.30726 0.93749 0.30832 0.36500
Ag	Ag	0.23235 0.44088 0.69838 0.36800
Ag	Ag	0.24213 0.82473 0.52225 0.38300
H 	H 	0.87130 0.44440 0.42820 0.00400
H 	H 	0.87880 0.35170 0.49320 -0.07100
H 	H 	0.60510 0.43090 0.64720 -0.06000
H 	H 	0.12120 0.64830 0.50680 -0.07100
H 	H 	0.60580 0.52530 0.58430 0.00000
H 	H 	0.88980 0.92680 0.35450 -0.06500
H 	H 	0.39420 0.47470 0.41570 0.00000
H 	H 	0.11020 0.07320 0.64550 -0.06500
H 	H 	0.59650 0.85880 0.49690 -0.05600
H 	H 	0.88560 0.02490 0.41920 -0.00000
H 	H 	0.40940 0.04300 0.43900 0.01100
H 	H 	0.11440 0.97510 0.58080 -0.00000
H 	H 	0.12870 0.55560 0.57180 0.00400
H 	H 	0.59060 0.95700 0.56100 0.01100
H 	H 	0.39490 0.56910 0.35280 -0.06000
H 	H 	0.40350 0.14120 0.50310 -0.05600
C 	C 	0.83090 0.93240 0.39660 0.02600
C 	C 	0.65590 0.89190 0.48140 0.03200
C 	C 	0.75180 0.81690 0.38200 0.32000
C 	C 	0.74060 0.38280 0.57380 -0.19800
C 	C 	0.65970 0.49030 0.56570 -0.13000
C 	C 	0.25930 0.99940 0.50250 -0.02600
C 	C 	0.34130 0.56580 0.39660 0.01900
C 	C 	0.24820 0.18310 0.61800 0.32000
C 	C 	0.65870 0.43420 0.60340 0.01900
C 	C 	0.81950 0.44220 0.47260 -0.13000
C 	C 	0.82810 0.99140 0.43530 -0.13300
C 	C 	0.25340 0.11840 0.57990 -0.20700
C 	C 	0.74070 0.00060 0.49750 -0.02600
C 	C 	0.34030 0.50970 0.43430 -0.13000
C 	C 	0.74020 0.31960 0.61350 0.30600
C 	C 	0.75190 0.60090 0.42490 -0.46000
C 	C 	0.26270 0.93880 0.46010 0.00700
C 	C 	0.74660 0.88160 0.42010 -0.20700
C 	C 	0.25940 0.61720 0.42620 -0.19800
C 	C 	0.74340 0.55330 0.46070 0.00400
C 	C 	0.34410 0.10810 0.51860 0.03200
C 	C 	0.74060 0.49540 0.49980 -0.02700
C 	C 	0.27150 0.89090 0.42240 -0.45200
C 	C 	0.24810 0.39910 0.57510 -0.46000
C 	C 	0.72850 0.10910 0.57760 -0.45200
C 	C 	0.82220 0.38630 0.51060 0.02200
C 	C 	0.34780 0.04920 0.48000 -0.13200
C 	C 	0.25980 0.68040 0.38650 0.30600
C 	C 	0.18050 0.55780 0.52740 -0.13000
C 	C 	0.17190 0.00860 0.56470 -0.13300
C 	C 	0.73730 0.06120 0.53990 0.00700
C 	C 	0.65220 0.95080 0.52000 -0.13200
C 	C 	0.25940 0.50460 0.50020 -0.02700
C 	C 	0.25660 0.44670 0.53930 0.00400
C 	C 	0.16910 0.06760 0.60340 0.02600
C 	C 	0.17780 0.61370 0.48940 0.02200
O 	O 	0.63450 0.78440 0.37990 -0.46400
O 	O 	0.87170 0.79440 0.35600 -0.44900
O 	O 	0.37690 0.69960 0.35690 -0.45200
O 	O 	0.12830 0.20560 0.64400 -0.44900
O 	O 	0.85970 0.28860 0.61660 -0.46900
O 	O 	0.14030 0.71140 0.38340 -0.46900
O 	O 	0.36550 0.21560 0.62010 -0.46400
O 	O 	0.62310 0.30040 0.64310 -0.45200
