data_crystal

_cell_length_a 13.88770
_cell_length_b 22.56630
_cell_length_c 22.56630
_cell_angle_alpha 90.00000
_cell_angle_beta  90.00000
_cell_angle_gamma 90.00000

_symmetry_space_group_name_	'P 1'
_symmetry_space_group_name_H-M	'P 1'

loop_
_symmetry_equiv_pos_as_xyz
  x,y,z

loop_
_atom_site_label
_atom_site_type_symbol
_atom_site_fract_x
_atom_site_fract_y
_atom_site_fract_z
_atom_site_charge
Cd	Cd	0.93743 0.21594 0.02000 1.20600
Cd	Cd	0.81257 0.28406 0.52000 1.20600
H 	H 	0.88290 0.13930 0.90620 -0.01700
H 	H 	0.89000 0.14920 0.14280 -0.02200
H 	H 	0.85080 0.15280 0.80630 0.07600
H 	H 	0.90370 0.31990 0.11110 0.00500
H 	H 	0.89920 0.33280 0.74100 0.08000
H 	H 	0.85080 0.16720 0.24100 0.07900
H 	H 	0.02960 0.28810 0.91300 0.00500
H 	H 	0.84630 0.18010 0.61110 0.00500
H 	H 	0.72040 0.21190 0.41300 0.00600
H 	H 	0.89920 0.34720 0.30630 0.07600
H 	H 	0.74590 0.19540 0.31290 0.07900
H 	H 	0.86000 0.35080 0.64280 -0.02300
H 	H 	0.88550 0.15750 0.70780 0.08100
H 	H 	0.00410 0.30460 0.81290 0.07800
H 	H 	0.86450 0.34250 0.20780 0.08100
H 	H 	0.86710 0.36070 0.40620 -0.01800
C 	C 	0.86130 0.19954 0.21490 -0.12600
C 	C 	0.89270 0.28832 0.13806 0.08000
C 	C 	0.88870 0.30046 0.71490 -0.12700
C 	C 	0.86500 0.31106 0.65617 0.07400
C 	C 	0.88500 0.18894 0.15617 0.07400
C 	C 	0.97690 0.27070 0.83145 -0.12000
C 	C 	0.85300 0.25660 0.23558 0.05900
C 	C 	0.99230 0.26040 0.89100 0.07500
C 	C 	0.82880 0.26915 0.29850 0.05400
C 	C 	0.77310 0.22930 0.33145 -0.12100
C 	C 	0.85730 0.21168 0.63806 0.08000
C 	C 	0.86940 0.30230 0.19558 -0.12700
C 	C 	0.90640 0.17388 0.88703 0.06900
C 	C 	0.92120 0.23085 0.79850 0.05300
C 	C 	0.88060 0.19770 0.69558 -0.12700
C 	C 	0.86270 0.31846 0.32727 -0.12500
C 	C 	0.84360 0.32612 0.38703 0.06900
C 	C 	0.75770 0.23960 0.39100 0.07400
C 	C 	0.88730 0.18154 0.82727 -0.12400
C 	C 	0.89700 0.24340 0.73558 0.06000
N 	N 	0.90100 0.23303 0.11781 -0.23900
N 	N 	0.95680 0.21333 0.91877 -0.23700
N 	N 	0.79320 0.28667 0.41877 -0.23700
N 	N 	0.84900 0.26697 0.61781 -0.23900
Cd	Cd	0.68743 0.48000 0.71594 1.20500
Cd	Cd	0.56257 0.98000 0.78406 1.20500
H 	H 	0.59630 0.88890 0.68010 0.00400
H 	H 	0.60080 0.69370 0.65280 0.07500
H 	H 	0.63550 0.79220 0.65750 0.08100
H 	H 	0.49590 0.18710 0.69540 0.07900
H 	H 	0.63290 0.59380 0.63930 -0.01800
H 	H 	0.61450 0.29220 0.84250 0.08100
H 	H 	0.64920 0.75900 0.83280 0.07800
H 	H 	0.61710 0.09380 0.86070 -0.01800
H 	H 	0.65370 0.38890 0.81990 0.00400
H 	H 	0.77960 0.58700 0.78810 0.00500
H 	H 	0.64920 0.19370 0.84720 0.07500
H 	H 	0.60080 0.25900 0.66720 0.07800
H 	H 	0.75410 0.68710 0.80460 0.07900
H 	H 	0.64000 0.35720 0.64920 -0.02300
H 	H 	0.47040 0.08700 0.71190 0.00600
H 	H 	0.61000 0.85720 0.85080 -0.02300
C 	C 	0.57880 0.20150 0.76915 0.05400
C 	C 	0.52310 0.16855 0.72930 -0.12100
C 	C 	0.61500 0.84383 0.81106 0.07400
C 	C 	0.63060 0.80442 0.69770 -0.12700
C 	C 	0.63730 0.67273 0.68154 -0.12500
C 	C 	0.59360 0.11297 0.82612 0.06900
C 	C 	0.63500 0.34383 0.68894 0.07400
C 	C 	0.50770 0.10900 0.73960 0.07400
C 	C 	0.61940 0.30442 0.80230 -0.12700
C 	C 	0.61130 0.28510 0.69954 -0.12600
C 	C 	0.65640 0.61297 0.67388 0.06900
C 	C 	0.64270 0.36194 0.78832 0.08000
C 	C 	0.72690 0.66855 0.77070 -0.12100
C 	C 	0.67120 0.70150 0.73085 0.05400
C 	C 	0.63870 0.78510 0.80046 -0.12600
C 	C 	0.60300 0.26442 0.75660 0.05900
C 	C 	0.60730 0.86194 0.71168 0.08000
C 	C 	0.74230 0.60900 0.76040 0.07400
C 	C 	0.61270 0.17273 0.81846 -0.12500
C 	C 	0.64700 0.76442 0.74340 0.05900
N 	N 	0.59900 0.88219 0.76697 -0.23900
N 	N 	0.65100 0.38219 0.73303 -0.23900
N 	N 	0.70680 0.58123 0.71333 -0.23700
N 	N 	0.54320 0.08123 0.78667 -0.23700
Cd	Cd	0.43743 0.78406 0.98000 1.20500
Cd	Cd	0.31257 0.71594 0.48000 1.20500
H 	H 	0.40370 0.68010 0.88890 0.00400
H 	H 	0.24590 0.80460 0.68710 0.07900
H 	H 	0.36000 0.64920 0.35720 -0.02300
H 	H 	0.38550 0.84250 0.29220 0.08100
H 	H 	0.36710 0.63930 0.59380 -0.01800
H 	H 	0.52960 0.71190 0.08700 0.00600
H 	H 	0.39920 0.65280 0.69370 0.07500
H 	H 	0.22040 0.78810 0.58700 0.00500
H 	H 	0.36450 0.65750 0.79220 0.08100
H 	H 	0.39000 0.85080 0.85720 -0.02300
H 	H 	0.35080 0.83280 0.75900 0.07800
H 	H 	0.35080 0.84720 0.19370 0.07500
H 	H 	0.50410 0.69540 0.18710 0.07900
H 	H 	0.38290 0.86070 0.09380 -0.01800
H 	H 	0.34630 0.81990 0.38890 0.00400
H 	H 	0.39920 0.66720 0.25900 0.07800
C 	C 	0.38500 0.81106 0.84383 0.07400
C 	C 	0.25770 0.76040 0.60900 0.07400
C 	C 	0.35300 0.74340 0.76442 0.05900
C 	C 	0.42120 0.76915 0.20150 0.05400
C 	C 	0.38730 0.81846 0.17273 -0.12500
C 	C 	0.39700 0.75660 0.26442 0.05900
C 	C 	0.39270 0.71168 0.86194 0.08000
C 	C 	0.27310 0.77070 0.66855 -0.12100
C 	C 	0.34360 0.67388 0.61297 0.06900
C 	C 	0.40640 0.82612 0.11297 0.06900
C 	C 	0.36940 0.69770 0.80442 -0.12700
C 	C 	0.47690 0.72930 0.16855 -0.12100
C 	C 	0.35730 0.78832 0.36194 0.08000
C 	C 	0.49230 0.73960 0.10900 0.07400
C 	C 	0.36270 0.68154 0.67273 -0.12500
C 	C 	0.38870 0.69954 0.28510 -0.12600
C 	C 	0.36500 0.68894 0.34383 0.07400
C 	C 	0.36130 0.80046 0.78510 -0.12600
C 	C 	0.32880 0.73085 0.70150 0.05400
C 	C 	0.38060 0.80230 0.30442 -0.12700
N 	N 	0.40100 0.76697 0.88219 -0.23900
N 	N 	0.34900 0.73303 0.38219 -0.23900
N 	N 	0.45680 0.78667 0.08123 -0.23700
N 	N 	0.29320 0.71333 0.58123 -0.23700
Cd	Cd	0.18743 0.52000 0.28406 1.20500
Cd	Cd	0.06257 0.02000 0.21594 1.20500
H 	H 	0.97040 0.91300 0.28810 0.00400
H 	H 	0.25410 0.31290 0.19540 0.07900
H 	H 	0.14920 0.80630 0.15280 0.07500
H 	H 	0.27960 0.41300 0.21190 0.00500
H 	H 	0.14920 0.24100 0.16720 0.07800
H 	H 	0.11000 0.14280 0.14920 -0.02300
H 	H 	0.13550 0.20780 0.34250 0.08100
H 	H 	0.11710 0.90620 0.13930 -0.01800
H 	H 	0.13290 0.40620 0.36070 -0.01800
H 	H 	0.15370 0.61110 0.18010 0.00400
H 	H 	0.10080 0.74100 0.33280 0.07900
H 	H 	0.10080 0.30630 0.34720 0.07500
H 	H 	0.14000 0.64280 0.35080 -0.02300
H 	H 	0.09630 0.11110 0.31990 0.00400
H 	H 	0.11450 0.70780 0.15750 0.08100
H 	H 	0.99590 0.81290 0.30460 0.07800
C 	C 	0.10300 0.73558 0.24340 0.06000
C 	C 	0.17120 0.29850 0.26915 0.05400
C 	C 	0.11500 0.15617 0.18894 0.07400
C 	C 	0.24230 0.39100 0.23960 0.07400
C 	C 	0.13060 0.19558 0.30230 -0.12700
C 	C 	0.14270 0.63806 0.21168 0.08000
C 	C 	0.11940 0.69558 0.19770 -0.12700
C 	C 	0.13730 0.32727 0.31846 -0.12500
C 	C 	0.22690 0.33145 0.22930 -0.12100
C 	C 	0.15640 0.38703 0.32612 0.06900
C 	C 	0.13870 0.21490 0.19954 -0.12600
C 	C 	0.09360 0.88703 0.17388 0.06900
C 	C 	0.11130 0.71490 0.30046 -0.12700
C 	C 	0.11270 0.82727 0.18154 -0.12400
C 	C 	0.13500 0.65617 0.31106 0.07400
C 	C 	0.02310 0.83145 0.27070 -0.12000
C 	C 	0.10730 0.13806 0.28832 0.08000
C 	C 	0.00770 0.89100 0.26040 0.07500
C 	C 	0.07880 0.79850 0.23085 0.05300
C 	C 	0.14700 0.23558 0.25660 0.05900
N 	N 	0.20680 0.41877 0.28667 -0.23700
N 	N 	0.04320 0.91877 0.21333 -0.23700
N 	N 	0.09900 0.11781 0.23303 -0.23900
N 	N 	0.15100 0.61781 0.26697 -0.23900
H 	H 	0.78650 0.44000 0.10210 0.11200
H 	H 	0.84080 0.47120 0.30370 0.00300
H 	H 	0.28990 0.20650 0.06370 0.00200
H 	H 	0.48330 0.42830 0.05760 0.02500
H 	H 	0.32420 0.41110 0.08550 0.11600
H 	H 	0.43850 0.24620 0.08960 0.12200
H 	H 	0.62830 0.46340 0.08810 0.02700
H 	H 	0.64720 0.39330 0.08480 0.04500
H 	H 	0.68800 0.44300 0.27030 0.12000
H 	H 	0.17580 0.37020 0.05940 0.00400
H 	H 	0.93920 0.46620 0.13550 0.00600
H 	H 	0.46710 0.43630 0.12760 0.04500
C 	C 	0.72330 0.43896 0.18340 0.25300
C 	C 	0.79760 0.44613 0.14325 -0.23200
C 	C 	0.73910 0.44810 0.24280 -0.22700
C 	C 	0.83010 0.46490 0.26260 0.10800
C 	C 	0.61010 0.42470 0.10530 0.01500
C 	C 	0.00400 0.49134 0.24328 0.33000
C 	C 	0.38510 0.27167 0.08300 -0.22800
C 	C 	0.50390 0.41420 0.09720 0.02000
C 	C 	0.29660 0.24822 0.06793 0.11700
C 	C 	0.88800 0.46219 0.16321 0.11600
C 	C 	0.22940 0.34477 0.06542 0.12100
C 	C 	0.39580 0.33280 0.08859 0.25700
C 	C 	0.12140 0.25856 0.04268 0.33200
C 	C 	0.90560 0.47248 0.22255 -0.15600
C 	C 	0.21710 0.28455 0.05886 -0.16500
C 	C 	0.31780 0.36948 0.08064 -0.24100
O 	O 	0.10852 0.20354 0.04445 -0.39200
O 	O 	0.07040 0.49784 0.20616 -0.36200
O 	O 	0.48620 0.35211 0.10272 -0.22900
O 	O 	0.05390 0.29327 0.02785 -0.37400
O 	O 	0.63100 0.42388 0.16747 -0.22600
O 	O 	0.01830 0.50021 0.29804 -0.38600
H 	H 	0.57420 0.12980 0.55940 0.00400
H 	H 	0.06200 0.05700 0.77030 0.12000
H 	H 	0.31150 0.25380 0.58960 0.12200
H 	H 	0.10280 0.10670 0.58480 0.04500
H 	H 	0.81080 0.03380 0.63550 0.00600
H 	H 	0.96350 0.06000 0.60210 0.11200
H 	H 	0.28290 0.06370 0.62760 0.04500
H 	H 	0.12170 0.03660 0.58810 0.02700
H 	H 	0.42580 0.08890 0.58550 0.11600
H 	H 	0.90920 0.02880 0.80370 0.00300
H 	H 	0.46010 0.29350 0.56370 0.00200
H 	H 	0.26670 0.07170 0.55760 0.02500
C 	C 	0.13990 0.07530 0.60530 0.01500
C 	C 	0.62860 0.24144 0.54268 0.33200
C 	C 	0.43220 0.13052 0.58064 -0.24100
C 	C 	0.02670 0.06104 0.68340 0.25300
C 	C 	0.01090 0.05190 0.74280 -0.22900
C 	C 	0.91990 0.03510 0.76260 0.11000
C 	C 	0.35420 0.16720 0.58859 0.25700
C 	C 	0.86200 0.03781 0.66321 0.11600
C 	C 	0.24610 0.08580 0.59720 0.02000
C 	C 	0.52060 0.15523 0.56542 0.12100
C 	C 	0.95240 0.05387 0.64325 -0.23100
C 	C 	0.74600 0.00866 0.74328 0.33200
C 	C 	0.36490 0.22833 0.58300 -0.22800
C 	C 	0.53290 0.21545 0.55886 -0.16600
C 	C 	0.45340 0.25178 0.56793 0.11700
C 	C 	0.84440 0.02752 0.72255 -0.15600
O 	O 	0.64148 0.29646 0.54445 -0.39200
O 	O 	0.11900 0.07612 0.66747 -0.22600
O 	O 	0.67960 0.00216 0.70616 -0.36200
O 	O 	0.73170 0.99979 0.79804 -0.38800
O 	O 	0.69610 0.20673 0.52785 -0.37500
O 	O 	0.26380 0.14789 0.60272 -0.22900
H 	H 	0.68920 0.36450 0.96620 0.00600
H 	H 	0.43800 0.22970 0.94300 0.11900
H 	H 	0.92580 0.44060 0.87020 0.00400
H 	H 	0.23330 0.44240 0.92830 0.02500
H 	H 	0.37830 0.41190 0.96340 0.02700
H 	H 	0.18850 0.41040 0.74620 0.12200
H 	H 	0.03990 0.43630 0.70650 0.00200
H 	H 	0.53650 0.39790 0.94000 0.11200
H 	H 	0.21710 0.37240 0.93630 0.04500
H 	H 	0.59080 0.19630 0.97120 0.00300
H 	H 	0.39720 0.41520 0.89330 0.04600
H 	H 	0.07420 0.41450 0.91110 0.11700
C 	C 	0.65560 0.27745 0.97248 -0.15600
C 	C 	0.97940 0.43458 0.84477 0.12300
C 	C 	0.47330 0.31660 0.93896 0.25300
C 	C 	0.75400 0.25672 0.99134 0.33100
C 	C 	0.96710 0.44114 0.78455 -0.16500
C 	C 	0.63800 0.33679 0.96219 0.11500
C 	C 	0.36010 0.39470 0.92470 0.01500
C 	C 	0.48910 0.25720 0.94810 -0.22700
C 	C 	0.14580 0.41141 0.83280 0.25700
C 	C 	0.54760 0.35675 0.94613 -0.23200
C 	C 	0.87140 0.45732 0.75856 0.33200
C 	C 	0.58010 0.23740 0.96490 0.10800
C 	C 	0.13510 0.41700 0.77167 -0.22800
C 	C 	0.25390 0.40280 0.91420 0.02000
C 	C 	0.06780 0.41936 0.86948 -0.24200
C 	C 	0.04660 0.43207 0.74822 0.11700
O 	O 	0.82040 0.29384 0.99784 -0.36200
O 	O 	0.76830 0.20196 0.00021 -0.38700
O 	O 	0.85852 0.45555 0.70354 -0.39200
O 	O 	0.80390 0.47215 0.79327 -0.37500
O 	O 	0.23620 0.39728 0.85211 -0.22900
O 	O 	0.38100 0.33253 0.92388 -0.22600
H 	H 	0.87170 0.91190 0.53660 0.02700
H 	H 	0.01670 0.94240 0.57170 0.02600
H 	H 	0.03290 0.87240 0.56370 0.04600
H 	H 	0.06150 0.91040 0.75380 0.12200
H 	H 	0.71350 0.89790 0.56000 0.11200
H 	H 	0.17580 0.91450 0.58890 0.11600
H 	H 	0.32420 0.94060 0.62980 0.00400
H 	H 	0.85280 0.91520 0.60670 0.04500
H 	H 	0.81200 0.72970 0.55700 0.11900
H 	H 	0.56080 0.86450 0.53380 0.00600
H 	H 	0.21010 0.93630 0.79350 0.00100
H 	H 	0.65920 0.69630 0.52880 0.00300
C 	C 	0.11490 0.91700 0.72833 -0.22800
C 	C 	0.99610 0.90280 0.58580 0.01600
C 	C 	0.37860 0.95732 0.74144 0.33200
C 	C 	0.10420 0.91141 0.66720 0.25600
C 	C 	0.27060 0.93458 0.65523 0.12100
C 	C 	0.70240 0.85675 0.55387 -0.23200
C 	C 	0.76090 0.75720 0.55190 -0.22700
C 	C 	0.77670 0.81660 0.56104 0.25300
C 	C 	0.20340 0.93207 0.75178 0.11700
C 	C 	0.88990 0.89470 0.57530 0.01700
C 	C 	0.49600 0.75672 0.50866 0.33000
C 	C 	0.28290 0.94114 0.71545 -0.16500
C 	C 	0.66990 0.73740 0.53510 0.10800
C 	C 	0.59440 0.77745 0.52752 -0.15500
C 	C 	0.61200 0.83679 0.53781 0.11500
C 	C 	0.18220 0.91936 0.63052 -0.24100
O 	O 	0.48170 0.70196 0.49979 -0.38600
O 	O 	0.86900 0.83253 0.57612 -0.22600
O 	O 	0.01380 0.89728 0.64789 -0.22800
O 	O 	0.39148 0.95555 0.79646 -0.39200
O 	O 	0.44610 0.97215 0.70673 -0.37500
O 	O 	0.42960 0.79384 0.50216 -0.36200
H 	H 	0.14720 0.60670 0.91520 0.04500
H 	H 	0.78990 0.79350 0.93630 0.00100
H 	H 	0.34080 0.52880 0.69630 0.00300
H 	H 	0.67580 0.62980 0.94060 0.00400
H 	H 	0.28650 0.56000 0.89790 0.11200
H 	H 	0.96710 0.56370 0.87240 0.04600
H 	H 	0.12830 0.53660 0.91190 0.02700
H 	H 	0.98330 0.57170 0.94240 0.02600
H 	H 	0.82420 0.58890 0.91450 0.11600
H 	H 	0.93850 0.75380 0.91040 0.12200
H 	H 	0.18800 0.55700 0.72970 0.11900
H 	H 	0.43920 0.53380 0.86450 0.00600
C 	C 	0.79660 0.75178 0.93207 0.11700
C 	C 	0.81780 0.63052 0.91936 -0.24100
C 	C 	0.23910 0.55190 0.75720 -0.22700
C 	C 	0.62140 0.74144 0.95732 0.33200
C 	C 	0.00390 0.58580 0.90280 0.01600
C 	C 	0.72940 0.65523 0.93458 0.12100
C 	C 	0.33010 0.53510 0.73740 0.10800
C 	C 	0.50400 0.50866 0.75672 0.33000
C 	C 	0.71710 0.71545 0.94114 -0.16500
C 	C 	0.11010 0.57530 0.89470 0.01700
C 	C 	0.22330 0.56104 0.81660 0.25300
C 	C 	0.38800 0.53781 0.83679 0.11500
C 	C 	0.40560 0.52752 0.77745 -0.15500
C 	C 	0.29760 0.55387 0.85675 -0.23200
C 	C 	0.89580 0.66720 0.91141 0.25600
C 	C 	0.88510 0.72833 0.91700 -0.22800
O 	O 	0.57040 0.50216 0.79384 -0.36200
O 	O 	0.60852 0.79646 0.95555 -0.39200
O 	O 	0.51830 0.49979 0.70196 -0.38600
O 	O 	0.98620 0.64789 0.89728 -0.22800
O 	O 	0.13100 0.57612 0.83253 -0.22600
O 	O 	0.55390 0.70673 0.97215 -0.37500
H 	H 	0.62170 0.96340 0.41190 0.02700
H 	H 	0.31080 0.96620 0.36450 0.00600
H 	H 	0.76670 0.92830 0.44240 0.02500
H 	H 	0.81150 0.74620 0.41040 0.12200
H 	H 	0.60280 0.89330 0.41520 0.04600
H 	H 	0.96010 0.70650 0.43630 0.00200
H 	H 	0.92580 0.91110 0.41450 0.11700
H 	H 	0.78290 0.93630 0.37240 0.04500
H 	H 	0.56200 0.94300 0.22970 0.11900
H 	H 	0.46350 0.94000 0.39790 0.11200
H 	H 	0.40920 0.97120 0.19630 0.00300
H 	H 	0.07420 0.87020 0.44060 0.00400
C 	C 	0.36200 0.96219 0.33679 0.11500
C 	C 	0.63990 0.92470 0.39470 0.01500
C 	C 	0.24600 0.99134 0.25672 0.33100
C 	C 	0.74610 0.91420 0.40280 0.02000
C 	C 	0.85420 0.83280 0.41141 0.25700
C 	C 	0.86490 0.77167 0.41700 -0.22800
C 	C 	0.02060 0.84477 0.43458 0.12300
C 	C 	0.41990 0.96490 0.23740 0.10800
C 	C 	0.51090 0.94810 0.25720 -0.22700
C 	C 	0.34440 0.97248 0.27745 -0.15600
C 	C 	0.93220 0.86948 0.41936 -0.24200
C 	C 	0.03290 0.78455 0.44114 -0.16500
C 	C 	0.45240 0.94613 0.35675 -0.23200
C 	C 	0.95340 0.74822 0.43207 0.11700
C 	C 	0.52670 0.93896 0.31660 0.25300
C 	C 	0.12860 0.75856 0.45732 0.33200
O 	O 	0.14148 0.70354 0.45555 -0.39200
O 	O 	0.76380 0.85211 0.39728 -0.22900
O 	O 	0.23170 0.00021 0.20196 -0.38700
O 	O 	0.17960 0.99784 0.29384 -0.36200
O 	O 	0.19610 0.79327 0.47215 -0.37500
O 	O 	0.61900 0.92388 0.33253 -0.22600
H 	H 	0.51670 0.05760 0.42830 0.02500
H 	H 	0.15920 0.30370 0.47120 0.00300
H 	H 	0.21350 0.10210 0.44000 0.11200
H 	H 	0.37170 0.08810 0.46340 0.02700
H 	H 	0.56150 0.08960 0.24620 0.12200
H 	H 	0.67580 0.08550 0.41110 0.11600
H 	H 	0.53290 0.12760 0.43630 0.04500
H 	H 	0.31200 0.27030 0.44300 0.12000
H 	H 	0.06080 0.13550 0.46620 0.00600
H 	H 	0.35280 0.08480 0.39330 0.04500
H 	H 	0.71010 0.06370 0.20650 0.00200
H 	H 	0.82420 0.05940 0.37020 0.00400
C 	C 	0.60420 0.08859 0.33280 0.25700
C 	C 	0.61490 0.08300 0.27167 -0.22800
C 	C 	0.99600 0.24328 0.49134 0.33000
C 	C 	0.09440 0.22255 0.47248 -0.15600
C 	C 	0.38990 0.10530 0.42470 0.01500
C 	C 	0.11200 0.16321 0.46219 0.11600
C 	C 	0.70340 0.06793 0.24822 0.11700
C 	C 	0.20240 0.14325 0.44613 -0.23200
C 	C 	0.26090 0.24280 0.44810 -0.22700
C 	C 	0.27670 0.18340 0.43896 0.25300
C 	C 	0.78290 0.05886 0.28455 -0.16500
C 	C 	0.49610 0.09720 0.41420 0.02000
C 	C 	0.77060 0.06542 0.34477 0.12100
C 	C 	0.68220 0.08064 0.36948 -0.24100
C 	C 	0.87860 0.04268 0.25856 0.33200
C 	C 	0.16990 0.26260 0.46490 0.10800
O 	O 	0.36900 0.16747 0.42388 -0.22600
O 	O 	0.51380 0.10272 0.35211 -0.22900
O 	O 	0.92960 0.20616 0.49784 -0.36200
O 	O 	0.94610 0.02785 0.29327 -0.37400
O 	O 	0.98170 0.29804 0.50021 -0.38600
O 	O 	0.89148 0.04445 0.20354 -0.39200
H 	H 	0.03650 0.60210 0.06000 0.11200
H 	H 	0.57420 0.58550 0.08890 0.11600
H 	H 	0.87830 0.58810 0.03660 0.02700
H 	H 	0.93800 0.77030 0.05700 0.12000
H 	H 	0.71710 0.62760 0.06370 0.04500
H 	H 	0.73330 0.55760 0.07170 0.02500
H 	H 	0.68850 0.58960 0.25380 0.12200
H 	H 	0.18920 0.63550 0.03380 0.00600
H 	H 	0.09080 0.80370 0.02880 0.00300
H 	H 	0.53990 0.56370 0.29350 0.00200
H 	H 	0.89720 0.58480 0.10670 0.04500
H 	H 	0.42580 0.55940 0.12980 0.00400
C 	C 	0.97330 0.68340 0.06104 0.25300
C 	C 	0.25400 0.74328 0.00866 0.33200
C 	C 	0.47940 0.56542 0.15523 0.12100
C 	C 	0.75390 0.59720 0.08580 0.02000
C 	C 	0.54660 0.56793 0.25178 0.11700
C 	C 	0.13800 0.66321 0.03781 0.11600
C 	C 	0.64580 0.58859 0.16720 0.25700
C 	C 	0.08010 0.76260 0.03510 0.11000
C 	C 	0.86010 0.60530 0.07530 0.01500
C 	C 	0.04760 0.64325 0.05387 -0.23100
C 	C 	0.56780 0.58064 0.13052 -0.24100
C 	C 	0.37140 0.54268 0.24144 0.33200
C 	C 	0.98910 0.74280 0.05190 -0.22900
C 	C 	0.15560 0.72255 0.02752 -0.15600
C 	C 	0.63510 0.58300 0.22833 -0.22800
C 	C 	0.46710 0.55886 0.21545 -0.16600
O 	O 	0.35852 0.54445 0.29646 -0.39200
O 	O 	0.73620 0.60272 0.14789 -0.22900
O 	O 	0.30390 0.52785 0.20673 -0.37500
O 	O 	0.26830 0.79804 0.99979 -0.38800
O 	O 	0.32040 0.70616 0.00216 -0.36200
O 	O 	0.88100 0.66747 0.07612 -0.22600
