data_crystal

_cell_length_a 7.26000
_cell_length_b 11.77000
_cell_length_c 13.15000
_cell_angle_alpha 74.55000
_cell_angle_beta  76.47000
_cell_angle_gamma 76.55000

_symmetry_space_group_name_	'P 1'
_symmetry_space_group_name_H-M	'P 1'

loop_
_symmetry_equiv_pos_as_xyz
  x,y,z

loop_
_atom_site_label
_atom_site_type_symbol
_atom_site_fract_x
_atom_site_fract_y
_atom_site_fract_z
_atom_site_charge
C 	C 	0.04100 0.25160 0.41240 0.00400
H 	H 	0.91000 0.27360 0.40330 0.04000
C 	C 	0.33900 0.25430 0.41090 0.08800
H 	H 	0.46060 0.27730 0.39990 -0.02200
C 	C 	0.13000 0.46210 0.34880 -0.09700
H 	H 	0.04430 0.48360 0.29540 0.04200
H 	H 	0.25240 0.49020 0.31320 0.05400
C 	C 	0.03600 0.92540 0.73790 -0.01100
H 	H 	0.90490 0.91640 0.76220 0.05700
C 	C 	0.32700 0.92820 0.73720 0.07300
H 	H 	0.44310 0.92250 0.76080 -0.00100
C 	C 	0.12500 0.87700 0.91920 -0.21800
H 	H 	0.24090 0.82330 0.94300 0.08600
H 	H 	0.01630 0.83240 0.94580 0.06600
C 	C 	0.07700 0.98820 0.96800 0.30600
H 	H 	0.16790 0.04050 0.94930 -0.14100
N 	N 	0.31000 0.15000 0.44690 -0.23100
N 	N 	0.11700 0.14910 0.44580 -0.22500
N 	N 	0.16630 0.33490 0.38830 -0.11700
N 	N 	0.30700 0.95620 0.63250 -0.19400
N 	N 	0.11800 0.95620 0.63130 -0.18900
N 	N 	0.15770 0.90960 0.80300 -0.09200
C 	C 	0.95900 0.74840 0.58760 0.20200
H 	H 	0.09000 0.72640 0.59670 -0.08500
C 	C 	0.66100 0.74570 0.58910 0.09400
H 	H 	0.53940 0.72270 0.60010 -0.01900
C 	C 	0.87000 0.53790 0.65120 -0.05100
H 	H 	0.95570 0.51640 0.70460 0.05200
H 	H 	0.74760 0.50980 0.68680 0.03900
C 	C 	0.96400 0.07460 0.26210 0.18000
H 	H 	0.09510 0.08360 0.23780 -0.09000
C 	C 	0.67300 0.07180 0.26280 0.07300
H 	H 	0.55690 0.07750 0.23920 -0.02500
C 	C 	0.87500 0.12300 0.08080 0.10700
H 	H 	0.75910 0.17670 0.05700 -0.00100
H 	H 	0.98370 0.16760 0.05420 0.02000
C 	C 	0.92300 0.01180 0.03200 -0.38600
H 	H 	0.83210 0.95950 0.05070 0.21300
N 	N 	0.69000 0.85000 0.55310 -0.19900
N 	N 	0.88300 0.85090 0.55420 -0.21500
N 	N 	0.83370 0.66510 0.61170 -0.13900
N 	N 	0.69300 0.04380 0.36750 -0.22600
N 	N 	0.88200 0.04380 0.36870 -0.22800
N 	N 	0.84230 0.09040 0.19700 -0.16800
Cu	Cu	-0.00000 0.00000 0.50000 0.77600
Cu	Cu	0.50000 0.00000 0.50000 0.79800
