data_crystal

_cell_length_a 14.10180
_cell_length_b 14.10180
_cell_length_c 14.10180
_cell_angle_alpha 107.53500
_cell_angle_beta  107.53500
_cell_angle_gamma 113.41700

_symmetry_space_group_name_	'P 1'
_symmetry_space_group_name_H-M	'P 1'

loop_
_symmetry_equiv_pos_as_xyz
  x,y,z

loop_
_atom_site_label
_atom_site_type_symbol
_atom_site_fract_x
_atom_site_fract_y
_atom_site_fract_z
_atom_site_charge
Mn	Mn	0.50000 0.50000 -0.00000 1.30700
Zn	Zn	0.90418 0.90418 -0.00000 1.23300
Zn	Zn	0.09582 0.09582 -0.00000 1.24500
H 	H 	0.20300 0.57340 0.77640 0.11000
H 	H 	0.59210 0.15250 -0.00000 0.12400
H 	H 	0.57340 0.20300 0.77640 0.10900
H 	H 	0.94390 0.30990 -0.00000 -0.02100
H 	H 	0.40790 0.84750 -0.00000 0.12000
H 	H 	0.05610 0.69010 -0.00000 -0.01600
H 	H 	0.69010 0.69010 0.63400 0.00900
H 	H 	0.79700 0.57340 0.37040 0.06500
H 	H 	0.42660 0.20300 0.62960 0.06100
H 	H 	0.69010 0.05610 -0.00000 -0.01600
H 	H 	0.15250 0.59210 -0.00000 0.12400
H 	H 	0.42660 0.79700 0.22360 0.07700
H 	H 	0.05610 0.05610 0.36600 0.00300
H 	H 	0.84750 0.84750 0.43960 0.11000
H 	H 	0.20300 0.42660 0.62960 0.06100
H 	H 	0.57340 0.79700 0.37040 0.06500
H 	H 	0.40790 0.40790 0.56040 0.12000
H 	H 	0.79700 0.42660 0.22360 0.07700
H 	H 	0.15250 0.15250 0.56040 0.12200
H 	H 	0.59210 0.59210 0.43960 0.11400
H 	H 	0.30990 0.30990 0.36600 0.00000
H 	H 	0.30990 0.94390 -0.00000 -0.02100
H 	H 	0.94390 0.94390 0.63400 0.00500
H 	H 	0.84750 0.40790 -0.00000 0.12000
C 	C 	0.12784 0.72316 -0.00000 0.17200
C 	C 	0.66386 0.18574 -0.00000 -0.28000
C 	C 	0.71280 0.71280 -0.00000 0.88800
C 	C 	0.10860 0.89140 -0.00000 0.42300
C 	C 	0.75200 0.45970 0.21170 -0.11000
C 	C 	0.10860 0.10860 0.21720 0.41600
C 	C 	0.89140 0.89140 0.78280 0.40900
C 	C 	0.87216 0.27684 -0.00000 0.17200
C 	C 	0.17230 0.17230 0.34460 -0.19400
C 	C 	0.70900 0.29100 -0.00000 0.22900
C 	C 	0.72316 0.72316 0.59532 0.13400
C 	C 	0.18574 0.66386 -0.00000 -0.28000
C 	C 	0.35450 0.64550 -0.00000 -0.27700
C 	C 	0.27684 0.27684 0.40468 0.14500
C 	C 	0.18574 0.18574 0.52188 -0.23000
C 	C 	0.29100 0.70900 -0.00000 0.22900
C 	C 	0.87216 0.87216 0.59532 0.13400
C 	C 	0.27684 0.87216 -0.00000 0.17200
C 	C 	0.12784 0.12784 0.40468 0.14500
C 	C 	0.82770 0.17230 -0.00000 -0.22800
C 	C 	0.56560 0.67090 0.23650 0.11900
C 	C 	0.66386 0.66386 0.47812 -0.22200
C 	C 	0.75200 0.54030 0.29230 -0.07600
C 	C 	0.33614 0.81426 -0.00000 -0.28100
C 	C 	0.81426 0.81426 0.47812 -0.22300
C 	C 	0.70900 0.70900 0.41800 0.18000
C 	C 	0.35450 0.35450 0.70900 -0.15400
C 	C 	0.32910 0.43440 0.76350 0.12100
C 	C 	0.33614 0.33614 0.52188 -0.23100
C 	C 	0.43440 0.32910 0.76350 0.12100
C 	C 	0.72316 0.12784 -0.00000 0.17200
C 	C 	0.17230 0.82770 -0.00000 -0.22800
C 	C 	0.54030 0.24800 0.78830 -0.13800
C 	C 	0.45970 0.75200 0.21170 -0.11000
C 	C 	0.67090 0.56560 0.23650 0.11900
C 	C 	0.54030 0.75200 0.29230 -0.07600
C 	C 	0.64550 0.64550 0.29100 -0.16600
C 	C 	0.24800 0.54030 0.78830 -0.13800
C 	C 	0.24800 0.45970 0.70770 -0.05000
C 	C 	0.82770 0.82770 0.65540 -0.17900
C 	C 	0.81426 0.33614 -0.00000 -0.28100
C 	C 	0.64550 0.35450 -0.00000 -0.27700
C 	C 	0.45970 0.24800 0.70770 -0.05000
C 	C 	0.67090 0.43440 0.10530 0.15700
C 	C 	0.56560 0.32910 0.89470 0.24200
C 	C 	0.89140 0.10860 -0.00000 0.42300
C 	C 	0.32910 0.56560 0.89470 0.24200
C 	C 	0.29100 0.29100 0.58200 0.18600
C 	C 	0.28720 0.28720 -0.00000 0.88900
C 	C 	0.43440 0.67090 0.10530 0.15700
N 	N 	0.37810 0.50000 0.87810 -0.25900
N 	N 	0.62190 0.50000 0.12190 -0.28000
N 	N 	0.50000 0.62190 0.12190 -0.28000
N 	N 	0.50000 0.37810 0.87810 -0.25900
O 	O 	0.01224 0.01224 0.16888 -0.44500
O 	O 	0.84336 0.84336 0.83112 -0.41200
O 	O 	0.15664 0.98776 -0.00000 -0.46900
O 	O 	0.98776 0.98776 0.83112 -0.42000
O 	O 	0.35870 0.35870 -0.00000 -0.70200
O 	O 	0.84336 0.01224 -0.00000 -0.46300
O 	O 	0.22100 0.22100 -0.00000 -0.76800
O 	O 	0.15664 0.15664 0.16888 -0.44900
O 	O 	0.98776 0.15664 -0.00000 -0.46900
O 	O 	0.77900 0.77900 -0.00000 -0.78000
O 	O 	0.64130 0.64130 -0.00000 -0.70600
O 	O 	0.01224 0.84336 -0.00000 -0.46300
