data_crystal

_cell_length_a 17.14710
_cell_length_b 17.14710
_cell_length_c 17.14710
_cell_angle_alpha 62.05530
_cell_angle_beta  74.59200
_cell_angle_gamma 105.40800

_symmetry_space_group_name_	'P 1'
_symmetry_space_group_name_H-M	'P 1'

loop_
_symmetry_equiv_pos_as_xyz
  x,y,z

loop_
_atom_site_label
_atom_site_type_symbol
_atom_site_fract_x
_atom_site_fract_y
_atom_site_fract_z
_atom_site_charge
Zn	Zn	0.12833 0.95184 0.42721 1.23500
Zn	Zn	0.87167 0.44446 0.17649 1.23300
Zn	Zn	0.50000 0.68290 0.49094 1.21600
Zn	Zn	0.82616 0.50906 0.99094 1.21500
Zn	Zn	0.62095 0.57279 0.55554 1.23300
Zn	Zn	0.37905 0.82351 0.04816 1.23300
Zn	Zn	0.62095 0.94446 0.92721 1.23400
Zn	Zn	0.87167 0.32351 0.05554 1.23400
Zn	Zn	0.37905 0.45184 0.67649 1.23300
Zn	Zn	0.50000 0.00906 0.81710 1.21400
Zn	Zn	0.12833 0.07279 0.54816 1.23200
Zn	Zn	0.17384 0.18290 0.31710 1.21600
H 	H 	0.39570 0.17810 0.86480 0.03700
H 	H 	0.84840 0.84130 0.46810 0.04200
H 	H 	0.69060 0.53190 0.31650 0.04000
H 	H 	0.30070 0.94760 0.73970 0.03900
H 	H 	0.95710 0.23950 0.36480 0.03300
H 	H 	0.84840 0.03190 0.65870 0.03900
H 	H 	0.30940 0.99290 0.15870 0.04700
H 	H 	0.39570 0.63520 0.32190 0.03300
H 	H 	0.69930 0.14690 0.54040 0.03700
H 	H 	0.68730 0.44760 0.85310 0.03700
H 	H 	0.60430 0.73950 0.21760 0.03300
H 	H 	0.04290 0.78240 0.82190 0.03400
H 	H 	0.68730 0.64690 0.05240 0.03800
H 	H 	0.15160 0.49290 0.81650 0.04100
H 	H 	0.31270 0.26030 0.04040 0.03700
H 	H 	0.30940 0.34130 0.50710 0.04000
H 	H 	0.95710 0.13520 0.26050 0.03500
H 	H 	0.60430 0.28240 0.76050 0.03200
H 	H 	0.31270 0.45960 0.23970 0.03700
H 	H 	0.69930 0.95960 0.35310 0.03700
H 	H 	0.69060 0.18350 0.96810 0.03800
H 	H 	0.15160 0.68350 0.00710 0.04300
H 	H 	0.04290 0.67810 0.71760 0.03300
H 	H 	0.30070 0.76030 0.55240 0.03700
C 	C 	0.67760 0.64440 0.10980 0.06800
C 	C 	0.35540 0.23130 0.94110 -0.11000
C 	C 	0.75420 0.96680 0.35560 0.06900
C 	C 	0.17240 0.87590 0.76870 -0.11000
C 	C 	0.18120 0.95950 0.67250 0.34300
C 	C 	0.62690 0.69890 0.20900 0.06900
C 	C 	0.62130 0.12300 0.87430 0.38800
C 	C 	0.64250 0.21690 0.86700 -0.13400
C 	C 	0.23920 0.82020 0.87640 -0.12100
C 	C 	0.30340 0.12360 0.11560 -0.11900
C 	C 	0.64250 0.63300 0.28310 -0.13300
C 	C 	0.99730 0.62300 0.99830 0.37700
C 	C 	0.09210 0.66410 0.70900 0.06700
C 	C 	0.82760 0.20350 0.44110 -0.11100
C 	C 	0.00270 0.12570 0.49560 0.38800
C 	C 	0.25770 0.09830 0.21860 0.39800
C 	C 	0.35750 0.07440 0.00950 -0.11200
C 	C 	0.17240 0.73130 0.62410 -0.11000
C 	C 	0.81880 0.14630 0.22170 0.33600
C 	C 	0.84310 0.89620 0.42530 0.06700
C 	C 	0.36800 0.64630 0.17250 0.33700
C 	C 	0.37870 0.00170 0.99560 0.36700
C 	C 	0.23920 0.62360 0.67980 -0.12300
C 	C 	0.84310 0.07470 0.60380 0.07000
C 	C 	0.00270 0.00440 0.37430 0.37800
C 	C 	0.18120 0.82750 0.54050 0.33600
C 	C 	0.67760 0.39020 0.85560 0.06600
C 	C 	0.35750 0.49050 0.42560 -0.13400
C 	C 	0.63200 0.77830 0.04050 0.34000
C 	C 	0.32150 0.39620 0.44690 0.07200
C 	C 	0.31690 0.59830 0.65940 0.39900
C 	C 	0.81880 0.27830 0.35370 0.33700
C 	C 	0.15690 0.55310 0.76840 0.07000
C 	C 	0.37310 0.57200 0.33590 0.06800
C 	C 	0.09210 0.79100 0.83590 0.06500
C 	C 	0.36800 0.32750 0.85370 0.33600
C 	C 	0.63200 0.45950 0.72170 0.33700
C 	C 	0.08390 0.57440 0.78310 -0.13100
C 	C 	0.37310 0.16410 0.92800 0.05300
C 	C 	0.69660 0.58100 0.17980 -0.12400
C 	C 	0.25770 0.28140 0.40170 0.40000
C 	C 	0.74230 0.52370 0.15940 0.40000
C 	C 	0.67850 0.23160 0.92530 0.07000
C 	C 	0.15690 0.73160 0.94690 0.06600
C 	C 	0.32240 0.46680 0.28740 0.06700
C 	C 	0.37870 0.50440 0.49830 0.38800
C 	C 	0.24580 0.89020 0.78740 0.06600
C 	C 	0.35540 0.55890 0.26870 -0.11100
C 	C 	0.75420 0.14440 0.53320 0.06600
C 	C 	0.90790 0.19890 0.42800 0.06800
C 	C 	0.68310 0.02370 0.71860 0.39200
C 	C 	0.30340 0.38440 0.37640 -0.12400
C 	C 	0.99730 0.50170 0.87700 0.38600
C 	C 	0.76080 0.08100 0.61560 -0.12300
C 	C 	0.90790 0.07200 0.30110 0.06100
C 	C 	0.76080 0.88440 0.41900 -0.12200
C 	C 	0.31690 0.84060 0.90170 0.39900
C 	C 	0.32150 0.05310 0.10380 0.05800
C 	C 	0.74230 0.34060 0.97630 0.39100
C 	C 	0.68310 0.78140 0.47630 0.39900
C 	C 	0.24580 0.71260 0.60980 0.06600
C 	C 	0.32240 0.21260 0.03320 0.06900
C 	C 	0.62130 0.62570 0.37700 0.38800
C 	C 	0.91610 0.99050 0.36700 -0.12300
C 	C 	0.91610 0.13300 0.50950 -0.13400
C 	C 	0.69660 0.32020 0.91900 -0.12300
C 	C 	0.08390 0.71690 0.92560 -0.12600
C 	C 	0.64460 0.37590 0.79650 -0.11100
C 	C 	0.67850 0.57470 0.26840 0.07200
C 	C 	0.64460 0.70350 0.12410 -0.11200
C 	C 	0.82760 0.05890 0.29650 -0.11100
C 	C 	0.62690 0.29100 0.80110 0.06800
O 	O 	0.40220 0.59070 0.47990 -0.46800
O 	O 	0.07060 0.18850 0.40930 -0.46800
O 	O 	0.26660 0.27790 0.32870 -0.44300
O 	O 	0.25530 0.89890 0.48000 -0.29400
O 	O 	0.50000 0.89010 0.93910 -0.65900
O 	O 	0.07060 0.09070 0.31150 -0.46600
O 	O 	0.10710 0.96350 0.67360 -0.44400
O 	O 	0.82920 0.39010 0.10990 -0.65800
O 	O 	0.63710 0.46350 0.64360 -0.44500
O 	O 	0.40220 0.02010 0.90930 -0.46600
O 	O 	0.37890 0.64360 0.10110 -0.29500
O 	O 	0.50000 0.56090 0.60990 -0.66000
O 	O 	0.63280 0.56350 0.44250 -0.46900
O 	O 	0.59780 0.68850 0.38210 -0.46800
O 	O 	0.36720 0.43070 0.57530 -0.46900
O 	O 	0.62110 0.52000 0.73530 -0.29600
O 	O 	0.92940 0.52010 0.88210 -0.46900
O 	O 	0.17080 0.06090 0.43910 -0.66200
O 	O 	0.36290 0.32640 0.78070 -0.44600
O 	O 	0.78780 0.49760 0.20500 -0.46100
O 	O 	0.63710 0.85640 0.03650 -0.44400
O 	O 	0.70260 0.99760 0.79020 -0.45500
O 	O 	0.10710 0.82640 0.53650 -0.44500
O 	O 	0.39340 0.90470 0.82870 -0.44100
O 	O 	0.25530 0.02000 0.60110 -0.30200
O 	O 	0.29740 0.50720 0.70500 -0.46200
O 	O 	0.92940 0.61790 0.97990 -0.46800
O 	O 	0.00600 0.06350 0.56930 -0.47100
O 	O 	0.39340 0.67130 0.59530 -0.44300
O 	O 	0.73340 0.51130 0.09530 -0.44100
O 	O 	0.89290 0.35640 0.28070 -0.44500
O 	O 	0.36290 0.71930 0.17360 -0.44500
O 	O 	0.74470 0.26470 0.35640 -0.29600
O 	O 	0.78780 0.29500 0.00240 -0.45400
O 	O 	0.70260 0.70980 0.50240 -0.46100
O 	O 	0.26660 0.17130 0.22210 -0.44300
O 	O 	0.59780 0.11790 0.81150 -0.47000
O 	O 	0.74470 0.14360 0.23530 -0.29600
O 	O 	0.60660 0.77790 0.48870 -0.44300
O 	O 	0.62110 0.76470 0.98000 -0.29900
O 	O 	0.37890 0.39890 0.85640 -0.29700
O 	O 	0.60660 0.01130 0.72210 -0.44400
O 	O 	0.29740 0.79500 0.99280 -0.46100
O 	O 	0.99400 0.42470 0.94250 -0.47300
O 	O 	0.36720 0.92470 0.06930 -0.45900
O 	O 	0.73340 0.40470 0.98870 -0.44300
O 	O 	0.00600 0.93070 0.43650 -0.46400
O 	O 	0.63280 0.05750 0.93650 -0.47400
O 	O 	0.99400 0.55750 0.07530 -0.46200
O 	O 	0.21220 0.20980 0.49280 -0.46200
O 	O 	0.21220 0.00720 0.29020 -0.46300
O 	O 	0.89290 0.21930 0.14360 -0.44400
