data_crystal

_cell_length_a 5.39920
_cell_length_b 11.14080
_cell_length_c 13.68110
_cell_angle_alpha 90.88500
_cell_angle_beta  94.25000
_cell_angle_gamma 91.82500

_symmetry_space_group_name_	'P 1'
_symmetry_space_group_name_H-M	'P 1'

loop_
_symmetry_equiv_pos_as_xyz
  x,y,z

loop_
_atom_site_label
_atom_site_type_symbol
_atom_site_fract_x
_atom_site_fract_y
_atom_site_fract_z
_atom_site_charge
O 	O 	0.46740 0.12653 0.43144 -0.38100
C 	C 	0.43040 0.82680 0.33040 0.03100
H 	H 	0.55440 0.83950 0.38280 0.02200
C 	C 	0.05120 0.86970 0.25620 0.03900
H 	H 	0.90440 0.91460 0.25450 0.01800
C 	C 	0.07390 0.78530 0.18190 -0.04800
H 	H 	0.94340 0.77130 0.13210 0.05500
C 	C 	0.47100 0.74270 0.25830 -0.04500
H 	H 	0.62050 0.69980 0.26120 0.05100
C 	C 	0.29050 0.72190 0.18169 -0.06400
C 	C 	0.33510 0.63300 0.09965 0.37200
C 	C 	0.68130 0.13130 0.40281 0.36300
C 	C 	0.73010 0.22260 0.32461 -0.06200
C 	C 	0.93190 0.21780 0.26760 -0.04300
H 	H 	0.05040 0.15710 0.27740 0.04500
C 	C 	0.95740 0.30330 0.19620 0.03300
H 	H 	0.09430 0.29810 0.15670 0.02000
C 	C 	0.61010 0.39750 0.23670 0.03100
H 	H 	0.49870 0.46130 0.22750 0.01900
C 	C 	0.56600 0.31490 0.30830 -0.04900
H 	H 	0.42560 0.32110 0.34580 0.05800
Li	Li	0.81520 0.51330 0.06430 0.55600
Li	Li	0.19670 0.01620 0.44250 0.55600
N 	N 	0.22420 0.89130 0.32999 -0.16500
N 	N 	0.80070 0.39270 0.17936 -0.16400
O 	O 	0.14760 0.58402 0.05404 -0.43300
O 	O 	0.55550 0.61740 0.08421 -0.38400
O 	O 	0.85730 0.06688 0.43295 -0.43100
O 	O 	0.53260 0.87347 0.56856 -0.38100
C 	C 	0.56960 0.17320 0.66960 0.03100
H 	H 	0.44560 0.16050 0.61720 0.02200
C 	C 	0.94880 0.13030 0.74380 0.03900
H 	H 	0.09560 0.08540 0.74550 0.01800
C 	C 	0.92610 0.21470 0.81810 -0.04800
H 	H 	0.05660 0.22870 0.86790 0.05500
C 	C 	0.52900 0.25730 0.74170 -0.04500
H 	H 	0.37950 0.30020 0.73880 0.05100
C 	C 	0.70950 0.27810 0.81831 -0.06400
C 	C 	0.66490 0.36700 0.90035 0.37200
C 	C 	0.31870 0.86870 0.59719 0.36300
C 	C 	0.26990 0.77740 0.67539 -0.06200
C 	C 	0.06810 0.78220 0.73240 -0.04300
H 	H 	0.94960 0.84290 0.72260 0.04500
C 	C 	0.04260 0.69670 0.80380 0.03300
H 	H 	0.90570 0.70190 0.84330 0.02000
C 	C 	0.38990 0.60250 0.76330 0.03100
H 	H 	0.50130 0.53870 0.77250 0.01900
C 	C 	0.43400 0.68510 0.69170 -0.04900
H 	H 	0.57440 0.67890 0.65420 0.05800
Li	Li	0.18480 0.48670 0.93570 0.55600
Li	Li	0.80330 0.98380 0.55750 0.55600
N 	N 	0.77580 0.10870 0.67001 -0.16500
N 	N 	0.19930 0.60730 0.82064 -0.16400
O 	O 	0.85240 0.41598 0.94596 -0.43300
O 	O 	0.44450 0.38260 0.91579 -0.38400
O 	O 	0.14270 0.93312 0.56705 -0.43100
