data_crystal

_cell_length_a 16.78900
_cell_length_b 17.15780
_cell_length_c 23.37490
_cell_angle_alpha 79.88010
_cell_angle_beta  68.95320
_cell_angle_gamma 60.70850

_symmetry_space_group_name_	'P 1'
_symmetry_space_group_name_H-M	'P 1'

loop_
_symmetry_equiv_pos_as_xyz
  x,y,z

loop_
_atom_site_label
_atom_site_type_symbol
_atom_site_fract_x
_atom_site_fract_y
_atom_site_fract_z
_atom_site_charge
Zn	Zn	0.16235 0.72518 0.18976 1.22100
Zn	Zn	0.18130 0.59114 0.10828 1.21900
Zn	Zn	0.95576 0.20696 0.92724 1.22200
Zn	Zn	0.63753 0.77482 0.68976 1.22000
Zn	Zn	0.34659 0.50000 0.50000 1.25400
Zn	Zn	0.63300 0.70696 0.57276 1.21800
Zn	Zn	0.03958 0.09114 0.39172 1.21300
Zn	Zn	0.07729 0.27482 0.81024 1.21900
Zn	Zn	0.11815 0.19274 0.44384 1.21500
Zn	Zn	0.52244 0.90886 0.60828 1.22100
Zn	Zn	0.75473 0.80726 0.55616 1.21600
Zn	Zn	0.06089 0.30726 0.94384 1.21900
Zn	Zn	0.59659 0.00000 -0.00000 1.23900
Zn	Zn	0.31199 0.69274 0.05616 1.21200
Zn	Zn	0.88072 0.40886 0.89172 1.21900
Zn	Zn	0.91272 0.29304 0.42724 1.21900
Zn	Zn	0.08996 0.79304 0.07276 1.21400
Zn	Zn	0.10211 0.22518 0.31024 1.21900
H 	H 	0.86530 0.80080 0.03040 0.07500
H 	H 	0.02120 0.51460 0.25680 0.03100
H 	H 	0.44240 0.84400 0.09660 0.03300
H 	H 	0.01170 0.04100 0.07340 0.01000
H 	H 	0.50700 0.15220 0.53140 0.04100
H 	H 	0.91040 0.73120 0.35980 0.04900
H 	H 	0.31950 0.96500 0.51300 0.06300
H 	H 	0.83510 0.54100 0.42660 0.03200
H 	H 	0.21930 0.37440 0.25140 0.03500
H 	H 	0.39160 0.76880 0.85980 0.05500
H 	H 	0.60060 0.98160 0.77580 0.06900
H 	H 	0.02800 0.01460 0.24320 0.02200
H 	H 	0.80270 0.45900 0.57340 0.03000
H 	H 	0.58250 0.46500 0.98700 0.03100
H 	H 	0.78840 0.65220 0.96860 0.07000
H 	H 	0.12610 0.95900 0.92660 0.05500
H 	H 	0.34370 0.12560 0.75140 0.03300
H 	H 	0.40920 0.34780 0.03140 0.03100
H 	H 	0.38300 0.15600 0.90340 0.04800
H 	H 	0.00140 0.26880 0.64020 0.03400
H 	H 	0.79260 0.48540 0.74320 0.03800
H 	H 	0.69650 0.19920 0.96960 0.03600
H 	H 	0.33220 0.51840 0.27580 0.03600
H 	H 	0.03640 0.65600 0.59660 0.04500
H 	H 	0.12640 0.48160 0.72420 0.04200
H 	H 	0.64570 0.30080 0.46960 0.05200
H 	H 	0.22070 0.87440 0.24860 0.04100
H 	H 	0.03450 0.53500 0.01300 0.05500
H 	H 	0.19060 0.84780 0.46860 0.06300
H 	H 	0.28580 0.98540 0.75680 0.05800
H 	H 	0.41610 0.69920 0.53040 0.05900
H 	H 	0.02020 0.23120 0.14020 0.03900
H 	H 	0.28900 0.34400 0.40340 0.03900
H 	H 	0.79750 0.03500 0.48700 0.03600
H 	H 	0.84510 0.62560 0.74860 0.04100
H 	H 	0.35800 0.01840 0.22420 0.00200
C 	C 	0.37380 0.75460 0.51900 0.03900
C 	C 	0.94450 0.32220 0.64580 0.07700
C 	C 	0.82020 0.45260 0.70740 0.06600
C 	C 	0.35020 0.97540 0.21080 0.12400
C 	C 	0.40720 0.12960 0.86540 0.06800
C 	C 	0.20100 0.54180 0.61820 0.38100
C 	C 	0.34942 0.87060 0.79776 -0.08200
C 	C 	0.31100 0.47540 0.28920 0.07700
C 	C 	0.47070 0.34300 0.01840 0.09900
C 	C 	0.01778 0.12940 0.20224 -0.11900
C 	C 	0.20140 0.01460 0.29960 0.33200
C 	C 	0.83210 0.65700 0.98160 0.00100
C 	C 	0.02560 0.16320 0.25540 0.34100
C 	C 	0.98020 0.54740 0.29260 0.07400
C 	C 	0.02740 0.67500 0.05040 0.38200
C 	C 	0.95090 0.30600 0.53880 0.40500
C 	C 	0.87840 0.74540 0.01900 -0.01700
C 	C 	0.98490 0.54280 0.74380 -0.11600
C 	C 	0.36100 0.45820 0.38180 0.38500
C 	C 	0.97980 0.58640 0.00920 0.00700
C 	C 	0.07560 0.52460 0.71080 0.06100
C 	C 	0.02280 0.04740 0.20740 0.08100
C 	C 	0.65390 0.98940 0.53100 0.40100
C 	C 	0.70780 0.58020 0.65900 0.35200
C 	C 	0.03100 0.66320 0.24460 0.34300
C 	C 	0.11680 0.08020 0.84100 0.31600
C 	C 	0.64740 0.24540 0.48100 0.05900
C 	C 	0.65250 0.33400 0.97540 -0.16000
C 	C 	0.00690 0.19400 0.03880 0.39000
C 	C 	0.91250 0.67780 0.35420 0.05900
C 	C 	0.65290 0.08080 0.51300 -0.13100
C 	C 	0.86970 0.56340 0.39380 0.07700
C 	C 	0.92810 0.51200 0.34160 -0.13500
C 	C 	0.93490 0.48940 0.96900 0.36600
C 	C 	0.24450 0.21960 0.85000 0.38700
C 	C 	0.17430 0.01060 0.46900 0.34600
C 	C 	0.54930 0.26300 0.00440 -0.16100
C 	C 	0.53770 0.17920 0.01140 0.36700
C 	C 	0.97002 0.62940 0.29776 -0.10100
C 	C 	0.27760 0.95260 0.79260 0.03400
C 	C 	0.24820 0.34820 0.32960 -0.14600
C 	C 	0.82780 0.17500 0.44960 0.40700
C 	C 	0.03800 0.91980 0.15900 0.38500
C 	C 	0.25340 0.85700 0.89980 -0.09600
C 	C 	0.73900 0.08640 0.49080 0.07900
C 	C 	0.21410 0.28040 0.35000 0.39000
C 	C 	0.44420 0.83680 0.74460 0.34100
C 	C 	0.01670 0.17780 0.14580 0.07000
C 	C 	0.01970 0.01200 0.15840 -0.17700
C 	C 	0.81670 0.73700 0.99560 -0.03100
C 	C 	0.27150 0.45720 0.25620 -0.13200
C 	C 	0.82690 0.43660 0.60620 0.08100
C 	C 	0.51560 0.98540 0.70040 0.42700
C 	C 	0.02260 0.62960 0.63460 0.06500
C 	C 	0.48370 0.41920 0.01300 -0.16300
C 	C 	0.34640 0.15180 0.82960 -0.13900
C 	C 	0.73650 0.16600 0.47540 -0.12800
C 	C 	0.23970 0.80600 0.96120 0.38600
C 	C 	0.31410 0.78040 0.15000 0.39200
C 	C 	0.18310 0.93660 0.89380 0.04300
C 	C 	0.26840 0.89000 0.22420 0.08100
C 	C 	0.40220 0.87040 0.13460 0.09200
C 	C 	0.39330 0.51060 0.03100 0.39100
C 	C 	0.90320 0.35700 0.60020 -0.13300
C 	C 	0.49280 0.95820 0.11820 0.39300
C 	C 	0.37790 0.83400 0.52460 -0.10200
C 	C 	0.72830 0.82080 0.98860 0.32600
C 	C 	0.79570 0.69400 0.46120 0.39400
C 	C 	0.29910 0.67920 0.48860 0.34200
C 	C 	0.56920 0.04180 0.88180 0.37500
C 	C 	0.01020 0.14300 0.10020 -0.14300
C 	C 	0.24260 0.39000 0.27580 0.08300
C 	C 	0.32010 0.43060 0.34340 -0.12100
C 	C 	0.96190 0.66600 0.02460 -0.07400
C 	C 	0.57540 0.41360 0.99080 0.13900
C 	C 	0.30370 0.76300 0.49560 -0.08100
C 	C 	0.19010 0.98800 0.84160 -0.07900
C 	C 	0.41350 0.93060 0.15660 -0.13700
C 	C 	0.92600 0.65180 0.67040 -0.12900
C 	C 	0.50070 0.06940 0.84340 -0.10100
C 	C 	0.78170 0.48800 0.65840 -0.13300
C 	C 	0.64280 0.25460 0.98100 0.12300
C 	C 	0.94700 0.41980 0.34100 0.36100
C 	C 	0.96600 0.48540 0.79960 0.38300
C 	C 	0.25100 0.51460 0.20040 0.38100
C 	C 	0.09410 0.56940 0.65660 -0.10900
C 	C 	0.93880 0.33680 0.75540 0.35500
C 	C 	0.75280 0.32500 0.94960 0.42100
C 	C 	0.45240 0.82500 0.55040 0.39800
C 	C 	0.23910 0.84300 0.48160 0.02800
C 	C 	0.34030 0.82220 0.85420 0.04100
C 	C 	0.01350 0.06340 0.10620 0.09900
C 	C 	0.90840 0.61000 0.72420 0.07200
C 	C 	0.32780 0.84820 0.17040 -0.14700
C 	C 	0.56370 0.15700 0.51840 0.06300
C 	C 	0.91590 0.58080 0.98700 -0.04500
C 	C 	0.31620 0.91360 0.50920 0.04200
C 	C 	0.28680 0.37040 0.36540 0.08100
C 	C 	0.27770 0.95720 0.24380 -0.11600
C 	C 	0.38260 0.11000 0.77580 0.08200
C 	C 	0.24670 0.91920 0.48700 -0.06300
C 	C 	0.46690 0.32080 0.51140 0.34900
C 	C 	0.84450 0.71960 0.65000 0.38600
C 	C 	0.86040 0.64300 0.39980 -0.12200
C 	C 	0.89718 0.37060 0.70224 -0.11200
C 	C 	0.53640 0.02460 0.78920 0.03100
C 	C 	0.56230 0.23700 0.50440 -0.10400
C 	C 	0.47870 0.04280 0.75620 -0.14200
O 	O 	0.50790 0.96800 0.06140 -0.44100
O 	O 	0.03280 0.42420 0.81240 -0.47000
O 	O 	0.31316 0.51780 0.04168 -0.46800
O 	O 	0.90632 0.10520 0.43956 -0.47200
O 	O 	0.81597 0.25400 0.44206 -0.48400
O 	O 	0.02203 0.42820 0.96474 -0.44900
O 	O 	0.20023 0.07180 0.46474 -0.46100
O 	O 	0.15191 0.83140 0.99298 -0.47500
O 	O 	0.54160 0.96360 0.14320 -0.27500
O 	O 	0.07626 0.86380 0.19728 -0.43500
O 	O 	0.25520 0.53640 0.64320 -0.27700
O 	O 	0.21810 0.49140 0.16800 -0.43100
O 	O 	0.20451 0.25580 0.80898 -0.46200
O 	O 	0.69006 0.63620 0.69728 -0.43100
O 	O 	0.87750 0.50860 0.83200 -0.42900
O 	O 	0.64840 0.03640 0.85680 -0.28000
O 	O 	0.52197 0.79700 0.75966 -0.43600
O 	O 	0.10484 0.01780 0.45832 -0.46300
O 	O 	0.73677 0.92820 0.53526 -0.45600
O 	O 	0.00949 0.90160 0.12142 -0.46700
O 	O 	0.26929 0.74420 0.19102 -0.46300
O 	O 	0.03251 0.09840 0.87858 -0.46000
O 	O 	0.19142 0.25980 0.40636 -0.47700
O 	O 	0.81997 0.24600 0.94206 -0.48400
O 	O 	0.45800 0.18740 0.01880 -0.29500
O 	O 	0.45950 0.00860 0.66800 -0.46400
O 	O 	0.85758 0.74020 0.59364 -0.47000
O 	O 	0.66420 0.81260 0.98120 -0.26000
O 	O 	0.20700 0.07580 0.31240 -0.45900
O 	O 	0.51203 0.74600 0.55794 -0.48200
O 	O 	0.76152 0.39480 0.93956 -0.46900
O 	O 	0.41497 0.57180 0.03526 -0.47100
O 	O 	0.87264 0.48220 0.95832 -0.45000
O 	O 	0.03232 0.25240 0.02836 -0.48900
O 	O 	0.89489 0.33140 0.50702 -0.49700
O 	O 	0.09588 0.60520 0.06044 -0.46800
O 	O 	0.22590 0.53200 0.56140 -0.44100
O 	O 	0.44269 0.84900 0.69082 -0.42300
O 	O 	0.31308 0.74760 0.97164 -0.45800
O 	O 	0.63995 0.79720 0.60450 -0.93800
O 	O 	0.00803 0.75400 0.05794 -0.48400
O 	O 	0.06897 0.70300 0.25966 -0.44000
O 	O 	0.58096 0.98220 0.54168 -0.45600
O 	O 	0.53730 0.03200 0.93860 -0.43500
O 	O 	0.03163 0.29700 0.74034 -0.44800
O 	O 	0.22680 0.68740 0.48120 -0.27600
O 	O 	0.61331 0.10480 0.00318 -0.44300
O 	O 	0.88351 0.34900 0.80918 -0.42900
O 	O 	0.59520 0.92420 0.68760 -0.47500
O 	O 	0.43480 0.46360 0.35680 -0.28000
O 	O 	0.31930 0.46800 0.43860 -0.44300
O 	O 	0.72129 0.89520 0.99682 -0.39100
O 	O 	0.13734 0.13620 0.80272 -0.42900
O 	O 	0.36649 0.60480 0.49682 -0.41900
O 	O 	0.88091 0.40160 0.37858 -0.46300
O 	O 	0.13610 0.99140 0.33200 -0.39500
O 	O 	0.81068 0.75240 0.47164 -0.47200
O 	O 	0.76349 0.75580 0.69102 -0.45900
O 	O 	0.04165 0.20280 0.39550 -0.94300
O 	O 	0.46811 0.39520 0.50318 -0.42100
O 	O 	0.02354 0.36380 0.30272 -0.43900
O 	O 	0.45108 0.89480 0.56044 -0.46300
O 	O 	0.04169 0.65100 0.19082 -0.42800
O 	O 	0.98251 0.15100 0.30918 -0.42300
O 	O 	0.39540 0.31260 0.51880 -0.28100
O 	O 	0.20122 0.24020 0.90636 -0.46900
O 	O 	0.18715 0.70280 0.10450 -0.94200
O 	O 	0.66109 0.59840 0.62142 -0.46200
O 	O 	0.26940 0.57580 0.18760 -0.46700
O 	O 	0.03472 0.24760 0.52836 -0.48300
O 	O 	0.34778 0.75980 0.09364 -0.47900
O 	O 	0.99445 0.29720 0.89550 -0.93200
O 	O 	0.73331 0.66860 0.49298 -0.49400
O 	O 	0.07863 0.20300 0.24034 -0.44400
O 	O 	0.21031 0.24420 0.30898 -0.46500
O 	O 	0.97629 0.16860 0.00702 -0.50400
