data_crystal

_cell_length_a 10.66420
_cell_length_b 10.66420
_cell_length_c 23.99800
_cell_angle_alpha 90.00000
_cell_angle_beta  90.00000
_cell_angle_gamma 90.00000

_symmetry_space_group_name_	'P 1'
_symmetry_space_group_name_H-M	'P 1'

loop_
_symmetry_equiv_pos_as_xyz
  x,y,z

loop_
_atom_site_label
_atom_site_type_symbol
_atom_site_fract_x
_atom_site_fract_y
_atom_site_fract_z
_atom_site_charge
Na	Na	0.63200 0.50901 0.48497 0.58700
Na	Na	0.50901 0.36800 0.73497 0.58800
Na	Na	0.49099 0.63200 0.23497 0.58800
Na	Na	0.36800 0.49099 0.98497 0.58500
Cu	Cu	0.35158 0.39091 0.85136 0.93400
Cu	Cu	0.64842 0.60909 0.35136 0.93500
Cu	Cu	0.60909 0.35158 0.60136 0.93500
Cu	Cu	0.39091 0.64842 0.10136 0.93500
H 	H 	0.95470 0.10840 0.04450 0.04300
H 	H 	0.50160 0.03880 0.08970 0.05500
H 	H 	0.03880 0.49840 0.33970 0.05300
H 	H 	0.13340 0.09940 0.86210 0.07800
H 	H 	0.90060 0.13340 0.61210 0.07900
H 	H 	0.16080 0.66820 0.87180 0.07500
H 	H 	0.23220 0.93380 0.23490 0.08000
H 	H 	0.47420 0.78200 0.74800 0.05300
H 	H 	0.21800 0.47420 0.49800 0.05400
H 	H 	0.00120 0.46410 0.49440 0.05300
H 	H 	0.74570 0.49010 0.83500 0.04100
H 	H 	0.89160 0.95470 0.79450 0.04600
H 	H 	0.09940 0.86660 0.11210 0.08000
H 	H 	0.06620 0.23220 0.98490 0.08300
H 	H 	0.93380 0.76780 0.48490 0.07900
H 	H 	0.99880 0.53590 0.99440 0.02900
H 	H 	0.10540 0.25980 0.28990 0.03900
H 	H 	0.77860 0.63300 0.72790 0.08100
H 	H 	0.49840 0.96120 0.58970 0.05300
H 	H 	0.33180 0.16080 0.62180 0.07600
H 	H 	0.74020 0.10540 0.03990 0.03000
H 	H 	0.10840 0.04530 0.29450 0.04600
H 	H 	0.25430 0.50990 0.33500 0.04300
H 	H 	0.99200 0.22830 0.41900 0.04800
H 	H 	0.36700 0.77860 0.47790 0.08100
H 	H 	0.66820 0.83920 0.12180 0.07700
H 	H 	0.89460 0.74020 0.78990 0.03800
H 	H 	0.77170 0.99200 0.16900 0.04800
H 	H 	0.01180 0.98830 0.66080 0.04500
H 	H 	0.98820 0.01170 0.16080 0.04500
H 	H 	0.83920 0.33180 0.37180 0.07600
H 	H 	0.50990 0.74570 0.58500 0.04300
H 	H 	0.04530 0.89160 0.54450 0.04700
H 	H 	0.46410 0.99880 0.74440 0.05300
H 	H 	0.49010 0.25430 0.08500 0.04700
H 	H 	0.53590 0.00120 0.24440 0.05300
H 	H 	0.00800 0.77170 0.91900 0.04200
H 	H 	0.52580 0.21800 0.24800 0.05400
H 	H 	0.96120 0.50160 0.83970 0.05400
H 	H 	0.25980 0.89460 0.53990 0.03800
H 	H 	0.63300 0.22140 0.97790 0.08900
H 	H 	0.86660 0.90060 0.36210 0.07900
H 	H 	0.76780 0.06620 0.73490 0.07900
H 	H 	0.22830 0.00800 0.66900 0.04800
H 	H 	0.01170 0.01180 0.41080 0.04500
H 	H 	0.98830 0.98820 0.91080 0.04300
H 	H 	0.78200 0.52580 0.99800 0.02700
H 	H 	0.22140 0.36700 0.22790 0.08100
C 	C 	0.84260 0.91330 0.76820 -0.03000
C 	C 	0.39040 0.87430 0.15140 0.33300
C 	C 	0.81980 0.75400 0.08590 0.04500
C 	C 	0.45050 0.08160 0.11460 -0.02000
C 	C 	0.94630 0.05330 0.39300 -0.02300
C 	C 	0.91840 0.45050 0.86460 -0.02400
C 	C 	0.21230 0.55580 0.36210 -0.00800
C 	C 	0.81650 0.93570 0.14700 -0.02100
C 	C 	0.95250 0.76330 0.08297 0.05000
C 	C 	0.06430 0.81650 0.89700 -0.02200
C 	C 	0.32410 0.02090 0.79930 -0.08400
C 	C 	0.75510 0.84380 0.11920 -0.07200
C 	C 	0.40980 0.95530 0.76780 -0.01700
C 	C 	0.86100 0.98770 0.36300 -0.07800
C 	C 	0.69540 0.91830 0.69210 0.03600
C 	C 	0.24250 0.34010 0.55500 -0.07200
C 	C 	0.30460 0.08170 0.19210 0.03700
C 	C 	0.04470 0.40980 0.51780 -0.01600
C 	C 	0.78310 0.30180 0.93930 0.06100
C 	C 	0.22460 0.27980 0.22810 -0.08900
C 	C 	0.27980 0.77540 0.47810 -0.09100
C 	C 	0.84380 0.24490 0.36920 -0.07100
C 	C 	0.82420 0.58340 0.02030 0.01400
C 	C 	0.63910 0.38490 0.31030 0.32800
C 	C 	0.75400 0.18020 0.33590 0.04000
C 	C 	0.24600 0.81980 0.83590 0.04100
C 	C 	0.62770 0.72000 0.64830 -0.09800
C 	C 	0.38490 0.36090 0.56030 0.32800
C 	C 	0.98770 0.13900 0.61300 -0.07800
C 	C 	0.61740 0.98480 0.65340 -0.08500
C 	C 	0.78440 0.15590 0.01520 0.02300
C 	C 	0.08160 0.54950 0.36460 -0.02200
C 	C 	0.75750 0.65990 0.05500 -0.08100
C 	C 	0.23670 0.95250 0.83297 0.04700
C 	C 	0.30180 0.21690 0.18930 0.05100
C 	C 	0.05370 0.94670 0.89300 -0.02700
C 	C 	0.13900 0.01230 0.86300 -0.07700
C 	C 	0.21690 0.69820 0.43930 0.05200
C 	C 	0.94670 0.94630 0.14300 -0.02300
C 	C 	0.12570 0.39040 0.90140 0.33400
C 	C 	0.77540 0.72020 0.72810 -0.09100
C 	C 	0.24490 0.15620 0.61920 -0.07000
C 	C 	0.83750 0.33630 0.54950 0.34500
C 	C 	0.67590 0.97910 0.29930 -0.08400
C 	C 	0.55580 0.78770 0.61210 -0.00800
C 	C 	0.61510 0.63910 0.06030 0.33200
C 	C 	0.95530 0.59020 0.01780 0.01100
C 	C 	0.66370 0.83750 0.29950 0.34500
C 	C 	0.02090 0.67590 0.04930 -0.08800
C 	C 	0.84410 0.78440 0.76520 -0.01200
C 	C 	0.01520 0.61740 0.40340 -0.08500
C 	C 	0.41660 0.82420 0.77030 -0.01900
C 	C 	0.23060 0.02080 0.23260 -0.08000
C 	C 	0.38260 0.01520 0.15340 -0.08600
C 	C 	0.37340 0.42110 0.14210 0.34500
C 	C 	0.21560 0.84410 0.51520 -0.01200
C 	C 	0.36090 0.61510 0.81030 0.32900
C 	C 	0.37230 0.28000 0.14830 -0.09500
C 	C 	0.87430 0.60960 0.40140 0.33300
C 	C 	0.59020 0.04470 0.26780 -0.01600
C 	C 	0.97910 0.32410 0.54930 -0.08400
C 	C 	0.69820 0.78310 0.68930 0.05200
C 	C 	0.16250 0.66370 0.04950 0.34900
C 	C 	0.33630 0.16250 0.79950 0.34500
C 	C 	0.02080 0.76940 0.48260 -0.07800
C 	C 	0.98480 0.38260 0.90340 -0.08700
C 	C 	0.72000 0.37230 0.89830 -0.10400
C 	C 	0.91830 0.30460 0.94210 0.03800
C 	C 	0.01230 0.86100 0.11300 -0.07600
C 	C 	0.18350 0.06430 0.64700 -0.02300
C 	C 	0.97920 0.23060 0.98260 -0.10700
C 	C 	0.15590 0.21560 0.26520 -0.01300
C 	C 	0.93570 0.18350 0.39700 -0.02300
C 	C 	0.08170 0.69540 0.44210 0.03600
C 	C 	0.15620 0.75510 0.86920 -0.07500
C 	C 	0.08670 0.84260 0.51820 -0.03000
C 	C 	0.54950 0.91840 0.61460 -0.02200
C 	C 	0.72020 0.22460 0.97810 -0.13200
C 	C 	0.28000 0.62770 0.39830 -0.09800
C 	C 	0.04750 0.23670 0.58297 0.04900
C 	C 	0.76330 0.04750 0.33297 0.04900
C 	C 	0.05330 0.05370 0.64300 -0.02200
C 	C 	0.76940 0.97920 0.73260 -0.07900
C 	C 	0.60960 0.12570 0.65140 0.33300
C 	C 	0.58340 0.17580 0.27030 -0.01900
C 	C 	0.57890 0.37340 0.89210 0.34900
C 	C 	0.17580 0.41660 0.52030 -0.01900
C 	C 	0.34010 0.75750 0.80500 -0.07400
C 	C 	0.15740 0.08670 0.26820 -0.02800
C 	C 	0.91330 0.15740 0.01820 -0.00800
C 	C 	0.78770 0.44420 0.86210 -0.00500
C 	C 	0.18020 0.24600 0.58590 0.04000
C 	C 	0.65990 0.24250 0.30500 -0.07200
C 	C 	0.62660 0.57890 0.64210 0.34600
C 	C 	0.42110 0.62660 0.39210 0.34600
C 	C 	0.44420 0.21230 0.11210 -0.00800
O 	O 	0.59240 0.17030 0.60281 -0.37400
O 	O 	0.40760 0.82970 0.10281 -0.37200
O 	O 	0.62920 0.44910 0.26734 -0.33300
O 	O 	0.17030 0.40760 0.85281 -0.37500
O 	O 	0.44910 0.37080 0.51734 -0.33300
O 	O 	0.32920 0.21160 0.84743 -0.38200
O 	O 	0.63340 0.42740 0.35925 -0.38800
O 	O 	0.22030 0.64620 0.00590 -0.33100
O 	O 	0.21160 0.67080 0.09743 -0.38000
O 	O 	0.82970 0.59240 0.35281 -0.37400
O 	O 	0.36660 0.57260 0.85925 -0.39200
O 	O 	0.48930 0.62480 0.43436 -0.36500
O 	O 	0.37420 0.46420 0.09254 -0.40700
O 	O 	0.77970 0.35380 0.50590 -0.34300
O 	O 	0.62580 0.53580 0.59254 -0.41100
O 	O 	0.51070 0.37520 0.93436 -0.37200
O 	O 	0.53580 0.37420 0.84254 -0.41200
O 	O 	0.37520 0.48930 0.18436 -0.36500
O 	O 	0.42740 0.36660 0.60925 -0.38800
O 	O 	0.64620 0.77970 0.25590 -0.34300
O 	O 	0.80920 0.61770 0.44390 -0.34300
O 	O 	0.38230 0.80920 0.19390 -0.34300
O 	O 	0.67080 0.78840 0.34743 -0.38100
O 	O 	0.37080 0.55090 0.76734 -0.33400
O 	O 	0.57260 0.63340 0.10925 -0.38900
O 	O 	0.35380 0.22030 0.75590 -0.34300
O 	O 	0.19080 0.38230 0.94390 -0.35000
O 	O 	0.55090 0.62920 0.01734 -0.32400
O 	O 	0.61770 0.19080 0.69390 -0.34300
O 	O 	0.78840 0.32920 0.59743 -0.38100
O 	O 	0.46420 0.62580 0.34254 -0.41100
O 	O 	0.62480 0.51070 0.68436 -0.36500
