data_crystal

_cell_length_a 7.20840
_cell_length_b 13.30510
_cell_length_c 13.30510
_cell_angle_alpha 63.18700
_cell_angle_beta  79.59580
_cell_angle_gamma 100.40400

_symmetry_space_group_name_	'P 1'
_symmetry_space_group_name_H-M	'P 1'

loop_
_symmetry_equiv_pos_as_xyz
  x,y,z

loop_
_atom_site_label
_atom_site_type_symbol
_atom_site_fract_x
_atom_site_fract_y
_atom_site_fract_z
_atom_site_charge
Ga	Ga	0.03287 0.00284 0.52893 2.06300
Ga	Ga	0.59117 0.34965 0.40085 2.13000
Ga	Ga	0.03003 0.46823 0.00284 2.06200
Ga	Ga	0.24152 0.24950 0.34965 2.12300
Ga	Ga	0.03432 0.59381 0.75210 2.11300
Ga	Ga	0.56180 0.52893 0.46823 2.11300
Ga	Ga	0.44051 0.65409 0.59381 2.13000
Ga	Ga	0.78642 0.75210 0.65409 2.13600
Ga	Ga	0.99202 0.40085 0.24950 2.14700
B 	B 	0.22840 0.83700 0.53280 2.85900
B 	B 	0.76840 0.36790 0.59370 2.78200
B 	B 	0.40050 0.03840 0.36790 2.35000
B 	B 	0.39140 0.63020 0.83700 2.87200
B 	B 	0.24770 0.63480 0.40970 2.55000
B 	B 	0.61290 0.95550 0.63480 2.94700
B 	B 	0.36210 0.59370 0.03840 2.34300
B 	B 	0.26760 0.47140 0.36360 2.79200
B 	B 	0.76120 0.53280 0.63020 2.95100
B 	B 	0.63120 0.36360 0.16500 2.84600
B 	B 	0.65740 0.40970 0.95550 2.93800
B 	B 	0.12990 0.26500 0.13430 2.31700
B 	B 	0.89660 0.71780 0.87800 2.63200
B 	B 	0.86490 0.60070 0.26500 2.37800
B 	B 	0.26420 0.13430 0.60070 2.33800
B 	B 	0.77460 0.87800 0.40420 2.62600
B 	B 	0.79620 0.16500 0.47140 2.86700
B 	B 	0.17880 0.40420 0.71780 2.80700
H 	H 	0.83800 0.85600 0.82030 0.54100
H 	H 	0.36640 0.91830 0.72840 0.60300
H 	H 	0.65830 0.82030 0.32370 0.48600
H 	H 	0.26990 0.32010 0.65710 0.65400
H 	H 	0.62819 0.05700 0.27721 0.38100
H 	H 	0.18770 0.13080 0.74060 0.44000
H 	H 	0.94980 0.02280 0.32010 0.44000
H 	H 	0.98200 0.32370 0.85600 0.69600
H 	H 	0.09480 0.72840 0.35330 0.48300
H 	H 	0.92700 0.65710 0.02280 0.41000
H 	H 	0.57119 0.66579 0.05700 0.38600
H 	H 	0.90540 0.27721 0.66579 0.51200
H 	H 	0.44810 0.35330 0.91830 0.58800
H 	H 	0.92830 0.74060 0.12860 0.47100
H 	H 	0.05690 0.12860 0.13080 0.38700
O 	O 	0.19580 0.59390 0.85560 -1.63400
O 	O 	0.90170 0.70170 0.78330 -1.45300
O 	O 	0.05140 0.85560 0.55050 -1.65800
O 	O 	0.87930 0.98130 0.38870 -1.36000
O 	O 	0.12030 0.15000 0.16690 -1.38500
O 	O 	0.73230 0.88410 0.30620 -1.32200
O 	O 	0.13280 0.70510 0.41220 -1.49500
O 	O 	0.54500 0.41220 0.88270 -1.61500
O 	O 	0.68500 0.78330 0.51500 -1.48300
O 	O 	0.51180 0.33850 0.26740 -1.61400
O 	O 	0.56400 0.10490 0.26970 -1.33200
O 	O 	0.60190 0.55050 0.59390 -1.67700
O 	O 	0.46340 0.63470 0.92310 -1.78500
O 	O 	0.63190 0.07200 0.55480 -2.09500
O 	O 	0.77080 0.90770 0.63680 -1.50400
O 	O 	0.89800 0.63000 0.98130 -1.33500
O 	O 	0.83280 0.38610 0.14850 -1.60400
O 	O 	0.81010 0.85630 0.30600 -0.05900
O 	O 	0.44670 0.46540 0.38610 -1.58500
O 	O 	0.16240 0.02380 0.63180 -1.44500
O 	O 	0.17330 0.39410 0.33850 -1.63500
O 	O 	0.26800 0.38870 0.63000 -1.73600
O 	O 	0.26020 0.08890 0.38510 -1.50700
O 	O 	0.42770 0.88270 0.70510 -1.61500
O 	O 	0.82980 0.48460 0.29020 -1.39900
O 	O 	0.77920 0.26740 0.39410 -1.60100
O 	O 	0.45910 0.62540 0.10490 -1.31900
O 	O 	0.28720 0.16690 0.68310 -1.36700
O 	O 	0.17130 0.52600 0.08890 -1.52100
O 	O 	0.03850 0.30620 0.80970 -1.72300
O 	O 	0.97030 0.68310 0.15000 -1.33300
O 	O 	0.95380 0.83770 0.85630 0.05100
O 	O 	0.79420 0.63180 0.34440 -1.30900
O 	O 	0.12000 0.29020 0.22520 -1.44800
O 	O 	0.55990 0.37320 0.07200 -2.10100
O 	O 	0.24760 0.73020 0.60770 -1.54500
O 	O 	0.82870 0.44220 0.63470 -2.01000
O 	O 	0.51740 0.66210 0.73020 -1.53300
O 	O 	0.84820 0.80970 0.88410 -1.39400
O 	O 	0.11610 0.30600 0.83770 0.04000
O 	O 	0.64530 0.38510 0.52600 -1.55800
O 	O 	0.40760 0.63680 0.45550 -1.47900
O 	O 	0.13860 0.34440 0.02380 -1.45500
O 	O 	0.85530 0.60770 0.66210 -1.52100
O 	O 	0.38650 0.92310 0.44220 -1.79700
O 	O 	0.20000 0.51500 0.70170 -1.56900
O 	O 	0.34520 0.22520 0.48460 -1.42000
O 	O 	0.86310 0.45550 0.90770 -1.49700
O 	O 	0.83370 0.26970 0.62540 -1.46200
O 	O 	0.18670 0.55480 0.37320 -1.90900
O 	O 	0.98130 0.14850 0.46540 -1.57800
