data_crystal

_cell_length_a 11.35330
_cell_length_b 11.45780
_cell_length_c 12.93200
_cell_angle_alpha 109.47100
_cell_angle_beta  101.61600
_cell_angle_gamma 112.42000

_symmetry_space_group_name_	'P 1'
_symmetry_space_group_name_H-M	'P 1'

loop_
_symmetry_equiv_pos_as_xyz
  x,y,z

loop_
_atom_site_label
_atom_site_type_symbol
_atom_site_fract_x
_atom_site_fract_y
_atom_site_fract_z
_atom_site_charge
Si	Si	0.24531 0.85184 0.22104 0.19300
Si	Si	0.83245 0.36805 0.61525 0.30200
H 	H 	0.11040 0.60170 0.48370 0.17600
H 	H 	0.13550 0.57280 0.29100 0.15500
H 	H 	0.94830 0.79950 0.72190 0.21900
H 	H 	0.52020 0.46900 0.30680 0.20500
H 	H 	0.05970 0.95530 0.33400 0.09200
H 	H 	0.57950 0.03460 0.47500 0.14500
H 	H 	0.60090 0.49880 0.22540 0.20500
H 	H 	0.80600 0.05390 0.92820 0.21700
H 	H 	0.04020 0.53210 0.16450 0.16300
H 	H 	0.48700 0.55680 0.56600 0.11200
H 	H 	0.94220 0.88910 0.84050 0.20700
H 	H 	0.62100 0.62520 0.33710 0.20400
H 	H 	0.96370 0.94980 0.74960 0.21300
H 	H 	0.07060 0.52050 0.55840 0.17000
H 	H 	0.87540 0.21950 0.98460 0.20300
H 	H 	0.62330 0.39520 0.43340 0.10100
H 	H 	0.60500 0.90570 0.45940 0.13000
H 	H 	0.84640 0.93000 0.39610 0.19100
H 	H 	0.82040 0.83890 0.46480 0.21600
H 	H 	0.70920 0.03530 0.45010 0.14400
H 	H 	0.10970 0.68080 0.60840 0.17300
H 	H 	0.90540 0.32910 0.85050 0.08600
H 	H 	0.44070 0.83760 0.56990 0.27200
H 	H 	0.41980 0.71350 0.45590 0.26000
H 	H 	0.95900 0.14330 0.94480 0.19900
H 	H 	0.95960 0.97980 0.51690 0.19500
H 	H 	0.35680 0.68030 0.54650 0.26800
H 	H 	0.97760 0.46730 0.24250 0.14300
C 	C 	0.55690 0.75260 0.60100 0.36000
C 	C 	0.60540 0.52960 0.30550 -0.68400
C 	C 	0.72950 0.07650 0.62040 0.15800
C 	C 	0.93660 0.68740 0.35990 -0.16900
C 	C 	0.91690 0.55060 0.48110 0.16900
C 	C 	0.91880 0.86540 0.75800 -0.73200
C 	C 	0.72160 0.52320 0.37930 0.23900
C 	C 	0.88850 0.89900 0.44550 -0.68200
C 	C 	0.68940 0.86170 0.66500 -0.24800
C 	C 	0.02070 0.67030 0.29540 0.22300
C 	C 	0.06530 0.59200 0.53800 -0.56500
C 	C 	0.76890 0.80110 0.69970 0.27300
C 	C 	0.74680 0.01470 0.69670 -0.07700
C 	C 	0.04570 0.55010 0.24380 -0.54500
C 	C 	0.94940 0.81860 0.38120 0.20900
C 	C 	0.82150 0.12780 0.80600 0.21700
C 	C 	0.86980 0.13700 0.92680 -0.67600
C 	C 	0.64850 0.00670 0.48940 -0.49700
C 	C 	0.43340 0.74540 0.53820 -0.90600
C 	C 	0.86350 0.59260 0.40380 -0.13000
N 	N 	0.81990 0.46170 0.50030 -0.16900
N 	N 	0.80070 0.21780 0.67970 -0.16700
N 	N 	0.03600 0.87350 0.33180 -0.19100
N 	N 	0.08180 0.78560 0.27830 -0.16600
N 	N 	0.68680 0.66410 0.66020 -0.14300
N 	N 	0.85480 0.24510 0.79290 -0.20600
N 	N 	0.70290 0.44830 0.43630 -0.21200
N 	N 	0.55890 0.63900 0.60050 -0.24200
