data_crystal

_cell_length_a 16.26800
_cell_length_b 18.58200
_cell_length_c 34.58900
_cell_angle_alpha 90.00000
_cell_angle_beta  90.00000
_cell_angle_gamma 103.81000

_symmetry_space_group_name_	'P 1'
_symmetry_space_group_name_H-M	'P 1'

loop_
_symmetry_equiv_pos_as_xyz
  x,y,z

loop_
_atom_site_label
_atom_site_type_symbol
_atom_site_fract_x
_atom_site_fract_y
_atom_site_fract_z
_atom_site_charge
La	La	0.79297 0.29500 0.76186 1.64700
La	La	0.95642 0.67939 0.24827 1.64400
La	La	0.70703 0.70500 0.26186 1.64700
La	La	0.20703 0.70500 0.23814 1.64700
La	La	0.04358 0.32061 0.75173 1.64300
La	La	0.29297 0.29500 0.73814 1.64600
La	La	0.54358 0.32061 0.74827 1.64300
La	La	0.45642 0.67939 0.25173 1.64300
H 	H 	0.23320 0.66750 0.93270 0.04600
H 	H 	0.04490 0.82020 0.33200 -0.00300
H 	H 	0.78750 0.58740 0.70430 0.13100
H 	H 	0.04310 0.24320 0.89290 -0.00600
H 	H 	0.95520 0.22180 0.34230 0.03900
H 	H 	0.54520 0.32220 0.86810 0.00200
H 	H 	0.68110 0.86390 0.54610 0.04100
H 	H 	0.00300 0.78390 0.04550 0.12100
H 	H 	0.72330 0.17330 0.67660 -0.03400
H 	H 	0.74670 0.51420 0.36140 0.00200
H 	H 	0.16170 0.52440 0.74280 -0.02800
H 	H 	0.84410 0.50090 0.73480 -0.01500
H 	H 	0.13870 0.06340 0.29170 0.13000
H 	H 	0.04630 0.93980 0.80810 0.12200
H 	H 	0.74890 0.07220 0.64290 0.14200
H 	H 	0.17400 0.96860 0.25550 0.01000
H 	H 	0.21250 0.41260 0.29570 0.13100
H 	H 	0.07180 0.42750 0.38920 0.11800
H 	H 	0.20530 0.70060 0.06720 0.13500
H 	H 	0.53760 0.71320 0.95310 0.03900
H 	H 	0.30060 0.42010 0.11190 0.13900
H 	H 	0.95690 0.75680 0.10710 -0.00600
H 	H 	0.67400 0.96860 0.24450 0.00900
H 	H 	0.83830 0.47560 0.25720 -0.02800
H 	H 	0.95830 0.95750 0.61820 0.13000
H 	H 	0.95510 0.17980 0.66800 -0.00300
H 	H 	0.45690 0.75680 0.39290 -0.00600
H 	H 	0.33570 0.31480 0.63150 -0.00100
H 	H 	0.24610 0.81590 0.84650 0.05000
H 	H 	0.45510 0.17980 0.83200 -0.00300
H 	H 	0.36060 0.10930 0.34390 0.12700
H 	H 	0.03760 0.71320 0.54690 0.03900
H 	H 	0.64210 0.16370 0.95080 0.14100
H 	H 	0.77670 0.82670 0.17660 -0.03400
H 	H 	0.95480 0.67780 0.36810 0.00200
H 	H 	0.29470 0.29940 0.56720 0.13500
H 	H 	0.10280 0.69770 0.66600 0.12700
H 	H 	0.24670 0.51420 0.13860 0.00200
H 	H 	0.54170 0.04250 0.11820 0.13000
H 	H 	0.00130 0.26130 0.50720 0.12600
H 	H 	0.54490 0.82020 0.16800 -0.00300
H 	H 	0.14210 0.16370 0.54920 0.14100
H 	H 	0.70530 0.70060 0.43280 0.13500
H 	H 	0.28750 0.58740 0.79570 0.13100
H 	H 	0.51660 0.91510 0.13090 0.11700
H 	H 	0.75110 0.92780 0.14290 0.14100
H 	H 	0.46240 0.28680 0.04690 0.03900
H 	H 	0.75390 0.18410 0.15350 0.05000
H 	H 	0.69940 0.57990 0.88810 0.13900
H 	H 	0.48340 0.08490 0.86910 0.11700
H 	H 	0.99880 0.30890 0.56850 0.11300
H 	H 	0.50130 0.26130 0.99280 0.12600
H 	H 	0.65590 0.49910 0.23480 -0.01500
H 	H 	0.61460 0.80300 0.50050 0.12600
H 	H 	0.54480 0.77820 0.84230 0.03900
H 	H 	0.18110 0.86390 0.95390 0.04100
H 	H 	0.79470 0.29940 0.93280 0.13500
H 	H 	0.01290 0.51210 0.35830 0.00100
H 	H 	0.11460 0.80300 0.99950 0.12600
H 	H 	0.85790 0.83630 0.45080 0.14100
H 	H 	0.76680 0.33250 0.06730 0.04600
H 	H 	0.24890 0.07220 0.85710 0.14100
H 	H 	0.82600 0.03140 0.74450 0.01000
H 	H 	0.00120 0.69110 0.43150 0.11300
H 	H 	0.98710 0.48790 0.64170 0.00100
H 	H 	0.54630 0.93980 0.69190 0.12200
H 	H 	0.99040 0.95700 0.21900 0.00000
H 	H 	0.45370 0.06020 0.30810 0.12200
H 	H 	0.36130 0.93660 0.79170 0.13100
H 	H 	0.49880 0.30890 0.93150 0.11300
H 	H 	0.15590 0.49910 0.26520 -0.01500
H 	H 	0.74610 0.81590 0.65350 0.05000
H 	H 	0.04480 0.77820 0.65770 0.03900
H 	H 	0.04170 0.04250 0.38180 0.13000
H 	H 	0.86060 0.10930 0.15610 0.12700
H 	H 	0.49700 0.21610 0.54550 0.12100
H 	H 	0.04520 0.32220 0.63190 0.00200
H 	H 	0.01660 0.91510 0.36910 0.11600
H 	H 	0.96240 0.28680 0.45310 0.03900
H 	H 	0.13940 0.89070 0.84390 0.12700
H 	H 	0.34410 0.50090 0.76520 -0.01500
H 	H 	0.45830 0.95750 0.88180 0.13000
H 	H 	0.48710 0.48790 0.85830 0.00100
H 	H 	0.63940 0.89070 0.65610 0.12700
H 	H 	0.66430 0.68520 0.36850 -0.00100
H 	H 	0.33830 0.47560 0.24280 -0.02800
H 	H 	0.35790 0.83630 0.04920 0.14100
H 	H 	0.89720 0.30230 0.33400 0.12700
H 	H 	0.27670 0.82670 0.32340 -0.03400
H 	H 	0.60280 0.69770 0.83400 0.12700
H 	H 	0.81890 0.13610 0.04610 0.04100
H 	H 	0.49040 0.95700 0.28100 0.00100
H 	H 	0.18260 0.17410 0.61330 -0.00100
H 	H 	0.80060 0.42010 0.38810 0.13900
H 	H 	0.26680 0.33250 0.43270 0.04600
H 	H 	0.25330 0.48580 0.63860 0.00200
H 	H 	0.45520 0.22180 0.15770 0.03900
H 	H 	0.50960 0.04300 0.71900 0.00100
H 	H 	0.39720 0.30230 0.16600 0.12700
H 	H 	0.38540 0.19700 0.49950 0.12600
H 	H 	0.49870 0.73870 0.00720 0.12600
H 	H 	0.81740 0.82590 0.38670 -0.00100
H 	H 	0.50120 0.69110 0.06850 0.11300
H 	H 	0.31890 0.13610 0.45390 0.04100
H 	H 	0.68140 0.36660 0.10400 0.12500
H 	H 	0.71250 0.41260 0.20430 0.13100
H 	H 	0.83570 0.31480 0.86850 -0.00100
H 	H 	0.63870 0.06340 0.20830 0.13100
H 	H 	0.45480 0.67780 0.13190 0.00200
H 	H 	0.88740 0.37940 0.28260 0.11200
H 	H 	0.98340 0.08490 0.63090 0.11600
H 	H 	0.51290 0.51210 0.14170 0.00100
H 	H 	0.88540 0.19700 0.00050 0.12600
H 	H 	0.31740 0.82590 0.11330 -0.00100
H 	H 	0.75330 0.48580 0.86140 0.00200
H 	H 	0.16430 0.68520 0.13150 -0.00100
H 	H 	0.99700 0.21610 0.95450 0.12100
H 	H 	0.91410 0.86720 0.57920 0.05000
H 	H 	0.25390 0.18410 0.34650 0.05000
H 	H 	0.81860 0.63340 0.60400 0.12500
H 	H 	0.41410 0.86720 0.92080 0.04900
H 	H 	0.66170 0.52440 0.75720 -0.02800
H 	H 	0.95370 0.06020 0.19190 0.12200
H 	H 	0.57180 0.42750 0.11080 0.11800
H 	H 	0.54310 0.24320 0.60710 -0.00600
H 	H 	0.68260 0.17410 0.88670 -0.00100
H 	H 	0.50300 0.78390 0.45450 0.12100
H 	H 	0.11260 0.62060 0.71740 0.11200
H 	H 	0.22330 0.17330 0.82340 -0.03400
H 	H 	0.73320 0.66750 0.56730 0.04600
H 	H 	0.86130 0.93660 0.70830 0.13000
H 	H 	0.61260 0.62060 0.78260 0.11300
H 	H 	0.99870 0.73870 0.49280 0.12600
H 	H 	0.08590 0.13280 0.42080 0.05000
H 	H 	0.38740 0.37940 0.21740 0.11300
H 	H 	0.25110 0.92780 0.35710 0.14200
H 	H 	0.19940 0.57990 0.61190 0.13900
H 	H 	0.58590 0.13280 0.07920 0.04900
H 	H 	0.92820 0.57250 0.61080 0.11800
H 	H 	0.00960 0.04300 0.78100 0.00000
H 	H 	0.31860 0.63340 0.89600 0.12500
H 	H 	0.42820 0.57250 0.88920 0.11800
H 	H 	0.18140 0.36660 0.39600 0.12500
H 	H 	0.32600 0.03140 0.75550 0.00900
C 	C 	0.02150 0.74260 0.56627 0.00600
C 	C 	0.60020 0.68190 0.88930 0.23400
C 	C 	0.04570 0.57410 0.28864 0.35600
C 	C 	0.02830 0.70840 0.16695 0.38000
C 	C 	0.97070 0.79030 0.55596 -0.07100
C 	C 	0.35460 0.74450 0.17058 0.42100
C 	C 	0.53780 0.28240 0.92290 -0.23300
C 	C 	0.61850 0.24790 0.87096 -0.20200
C 	C 	0.83100 0.46460 0.28368 0.13700
C 	C 	0.43970 0.95120 0.29500 0.14800
C 	C 	0.84790 0.39070 0.33880 0.21700
C 	C 	0.29050 0.50740 0.19308 -0.19200
C 	C 	0.56510 0.86950 0.17605 0.13200
C 	C 	0.70530 0.92840 0.61340 0.23600
C 	C 	0.40340 0.81600 0.27692 0.39800
C 	C 	0.54570 0.57410 0.21136 0.35600
C 	C 	0.73380 0.42570 0.79113 0.37600
C 	C 	0.47850 0.25740 0.06627 0.00700
C 	C 	0.64780 0.99720 0.66260 0.24500
C 	C 	0.27220 0.28600 0.42390 -0.00600
C 	C 	0.93590 0.71060 0.38473 0.13500
C 	C 	0.45300 0.07390 0.84590 -0.22900
C 	C 	0.55160 0.16530 0.08531 0.00200
C 	C 	0.75260 0.26460 0.11470 -0.05400
C 	C 	0.43260 0.76250 0.05133 0.22700
C 	C 	0.72060 0.31070 0.14410 0.22000
C 	C 	0.64120 0.95750 0.22191 0.12700
C 	C 	0.56030 0.04880 0.70500 0.14800
C 	C 	0.79970 0.23830 0.05110 -0.05300
C 	C 	0.06740 0.23750 0.55133 0.22700
C 	C 	0.89980 0.31810 0.38930 0.23300
C 	C 	0.37960 0.98600 0.80000 -0.22100
C 	C 	0.36000 0.40740 0.20147 -0.22400
C 	C 	0.47350 0.21870 0.13214 0.00500
C 	C 	0.31440 0.87340 0.32100 0.16100
C 	C 	0.74740 0.73540 0.61470 -0.05400
C 	C 	0.19540 0.83020 0.93630 0.00200
C 	C 	0.56740 0.20280 0.01730 0.25100
C 	C 	0.59660 0.18400 0.72308 0.39800
C 	C 	0.94840 0.83470 0.58531 0.00100
C 	C 	0.05650 0.72110 0.12649 -0.20000
C 	C 	0.68130 0.73340 0.51070 0.22900
C 	C 	0.53530 0.76210 0.43760 -0.25100
C 	C 	0.11550 0.11850 0.79770 -0.20400
C 	C 	0.36540 0.17490 0.76799 0.36800
C 	C 	0.63080 0.70400 0.38620 0.13700
C 	C 	0.86000 0.40740 0.29853 -0.22400
C 	C 	0.80460 0.16980 0.06370 0.00200
C 	C 	0.21130 0.85050 0.89820 -0.06100
C 	C 	0.04900 0.73670 0.60337 -0.07000
C 	C 	0.62190 0.19590 0.93440 -0.23700
C 	C 	0.32680 0.56630 0.80870 -0.23400
C 	C 	0.66900 0.53540 0.78368 0.13700
C 	C 	0.54500 0.12080 0.15470 0.23900
C 	C 	0.91880 0.48270 0.69194 -0.20600
C 	C 	0.26620 0.57430 0.20887 0.37600
C 	C 	0.34380 0.28590 0.57570 -0.22100
C 	C 	0.47070 0.79030 0.94404 -0.07200
C 	C 	0.35090 0.58740 0.84670 0.21800
C 	C 	0.50910 0.74790 0.40040 0.15600
C 	C 	0.91050 0.55750 0.63610 -0.23800
C 	C 	0.85410 0.79770 0.39589 0.14300
C 	C 	0.45500 0.87920 0.84530 0.23900
C 	C 	0.29880 0.93420 0.34100 -0.25400
C 	C 	0.38150 0.75210 0.12904 -0.20200
C 	C 	0.14540 0.25550 0.67058 0.42100
C 	C 	0.00910 0.74790 0.09960 0.15600
C 	C 	0.14590 0.20230 0.60411 0.14300
C 	C 	0.52150 0.74260 0.93373 0.00700
C 	C 	0.03780 0.28240 0.57710 -0.23200
C 	C 	0.64000 0.59260 0.79853 -0.22400
C 	C 	0.22310 0.51180 0.65430 0.13800
C 	C 	0.95100 0.26330 0.39663 -0.07000
C 	C 	0.94350 0.27890 0.87351 -0.20000
C 	C 	0.43260 0.79720 0.98270 0.25100
C 	C 	0.06030 0.04880 0.79500 0.14900
C 	C 	0.70950 0.49260 0.80692 -0.19200
C 	C 	0.84380 0.28590 0.92430 -0.22100
C 	C 	0.28870 0.14950 0.39820 -0.06100
C 	C 	0.69230 0.56910 0.86160 -0.23400
C 	C 	0.58950 0.44250 0.13610 -0.23800
C 	C 	0.95500 0.87920 0.65470 0.23900
C 	C 	0.78870 0.14950 0.10180 -0.06100
C 	C 	0.41880 0.48270 0.80806 -0.20600
C 	C 	0.85880 0.04250 0.72191 0.12400
C 	C 	0.41050 0.55750 0.86390 -0.23800
C 	C 	0.79880 0.93420 0.15900 -0.25200
C 	C 	0.77690 0.48820 0.34570 0.13800
C 	C 	0.47170 0.29160 0.66695 0.38000
C 	C 	0.26350 0.19750 0.37260 -0.00700
C 	C 	0.08950 0.44250 0.36390 -0.23800
C 	C 	0.65210 0.60930 0.83880 0.21800
C 	C 	0.86540 0.17490 0.73201 0.36700
C 	C 	0.52410 0.16860 0.12266 -0.06300
C 	C 	0.39340 0.25460 0.54950 0.22200
C 	C 	0.56740 0.23750 0.94867 0.22700
C 	C 	0.35410 0.79770 0.10411 0.14300
C 	C 	0.72780 0.71400 0.57610 -0.00600
C 	C 	0.76620 0.57430 0.29113 0.37600
C 	C 	0.14120 0.95750 0.27809 0.12400
C 	C 	0.24740 0.73540 0.88530 -0.05400
C 	C 	0.06740 0.20280 0.48270 0.25000
C 	C 	0.77940 0.68930 0.64410 0.22000
C 	C 	0.19230 0.56910 0.63840 -0.23400
C 	C 	0.72310 0.51180 0.84570 0.13800
C 	C 	0.31870 0.26660 0.48930 0.22900
C 	C 	0.20950 0.49260 0.69308 -0.19200
C 	C 	0.45430 0.42590 0.78864 0.35600
C 	C 	0.27690 0.48820 0.15430 0.13800
C 	C 	0.29470 0.07160 0.38660 0.23600
C 	C 	0.23380 0.42570 0.70887 0.37600
C 	C 	0.87810 0.80410 0.43440 -0.23600
C 	C 	0.38450 0.88150 0.29770 -0.20400
C 	C 	0.82680 0.56630 0.69130 -0.23400
C 	C 	0.15210 0.60930 0.66120 0.21700
C 	C 	0.18130 0.73340 0.98930 0.22900
C 	C 	0.54900 0.73670 0.89663 -0.07100
C 	C 	0.88150 0.75210 0.37096 -0.20200
C 	C 	0.79470 0.07160 0.11340 0.23600
C 	C 	0.86920 0.29600 0.88620 0.13700
C 	C 	0.23650 0.80250 0.87260 -0.00700
C 	C 	0.80770 0.43090 0.36160 -0.23400
C 	C 	0.58120 0.51730 0.19194 -0.20600
C 	C 	0.13080 0.70400 0.11380 0.13700
C 	C 	0.44540 0.50680 0.84577 0.13600
C 	C 	0.08120 0.51730 0.30806 -0.20600
C 	C 	0.33100 0.46460 0.21632 0.13700
C 	C 	0.60660 0.74540 0.45050 0.22200
C 	C 	0.22060 0.31070 0.35590 0.22000
C 	C 	0.95300 0.07390 0.65410 -0.22700
C 	C 	0.96220 0.71760 0.42290 -0.23200
C 	C 	0.36920 0.29600 0.61380 0.13700
C 	C 	0.57980 0.98770 0.68710 -0.24600
C 	C 	0.92650 0.00130 0.66632 0.22000
C 	C 	0.17320 0.43370 0.30870 -0.23400
C 	C 	0.88800 0.11590 0.70946 -0.18200
C 	C 	0.63460 0.82510 0.23201 0.36800
C 	C 	0.87960 0.98600 0.70000 -0.21700
C 	C 	0.10020 0.68190 0.61070 0.23300
C 	C 	0.63900 0.48520 0.20940 0.13600
C 	C 	0.20530 0.92840 0.88660 0.23600
C 	C 	0.43490 0.13050 0.82395 0.13200
C 	C 	0.14780 0.99720 0.83740 0.24500
C 	C 	0.44350 0.27890 0.62649 -0.20000
C 	C 	0.67320 0.43370 0.19130 -0.23400
C 	C 	0.56410 0.28940 0.88473 0.13500
C 	C 	0.52650 0.78130 0.86786 0.00500
C 	C 	0.65620 0.71410 0.42430 -0.22100
C 	C 	0.42020 0.01230 0.31290 -0.24600
C 	C 	0.94540 0.50680 0.65423 0.13600
C 	C 	0.61200 0.88410 0.20946 -0.18400
C 	C 	0.37810 0.80410 0.06560 -0.23700
C 	C 	0.06410 0.28940 0.61527 0.13500
C 	C 	0.04700 0.92610 0.34590 -0.22700
C 	C 	0.35220 0.00280 0.33740 0.24500
C 	C 	0.09660 0.18400 0.77692 0.39800
C 	C 	0.93490 0.13050 0.67605 0.13000
C 	C 	0.14910 0.41260 0.34670 0.21800
C 	C 	0.34790 0.39070 0.16120 0.21800
C 	C 	0.02930 0.20970 0.44404 -0.07100
C 	C 	0.92020 0.01230 0.18710 -0.24700
C 	C 	0.39980 0.31810 0.11070 0.23400
C 	C 	0.49090 0.25210 0.59960 0.15600
C 	C 	0.13460 0.82510 0.26799 0.36700
C 	C 	0.42650 0.00130 0.83368 0.22400
C 	C 	0.62040 0.01400 0.20000 -0.22100
C 	C 	0.89340 0.25460 0.95050 0.22200
C 	C 	0.27940 0.68930 0.85590 0.22000
C 	C 	0.88450 0.88150 0.20230 -0.20400
C 	C 	0.02410 0.16860 0.37734 -0.06200
C 	C 	0.15620 0.71410 0.07570 -0.22100
C 	C 	0.54700 0.92610 0.15410 -0.22900
C 	C 	0.77220 0.28600 0.07610 -0.00600
C 	C 	0.52830 0.70840 0.33305 0.38000
C 	C 	0.11850 0.24790 0.62904 -0.20200
C 	C 	0.93260 0.79720 0.51730 0.25000
C 	C 	0.61550 0.11850 0.70230 -0.20400
C 	C 	0.68560 0.12660 0.67900 0.16100
C 	C 	0.55650 0.72110 0.37351 -0.20000
C 	C 	0.47590 0.83140 0.87734 -0.06300
C 	C 	0.02650 0.78130 0.63214 0.00400
C 	C 	0.46470 0.23790 0.56240 -0.25100
C 	C 	0.95430 0.42590 0.71136 0.35600
C 	C 	0.29970 0.23830 0.44890 -0.05300
C 	C 	0.73650 0.80250 0.62740 -0.00700
C 	C 	0.12190 0.19590 0.56560 -0.23600
C 	C 	0.43590 0.71060 0.11527 0.13500
C 	C 	0.69540 0.83020 0.56370 0.00200
C 	C 	0.52930 0.20970 0.05596 -0.07200
C 	C 	0.79050 0.50740 0.30692 -0.19200
C 	C 	0.46220 0.71760 0.07710 -0.23300
C 	C 	0.30460 0.16980 0.43630 0.00200
C 	C 	0.71130 0.85050 0.60180 -0.06100
C 	C 	0.04500 0.12080 0.34530 0.23900
C 	C 	0.81440 0.87340 0.17900 0.16100
C 	C 	0.70120 0.06580 0.65900 -0.25400
C 	C 	0.06510 0.86950 0.32395 0.13000
C 	C 	0.10660 0.74540 0.04950 0.22200
C 	C 	0.85090 0.58740 0.65330 0.21800
C 	C 	0.85220 0.00280 0.16260 0.24500
C 	C 	0.36100 0.51480 0.79060 0.13600
C 	C 	0.30770 0.43090 0.13840 -0.23400
C 	C 	0.18560 0.12660 0.82100 0.16100
C 	C 	0.16900 0.53540 0.71632 0.13700
C 	C 	0.07350 0.99870 0.33368 0.22000
C 	C 	0.35880 0.04250 0.77809 0.12700
C 	C 	0.22780 0.71400 0.92390 -0.00600
C 	C 	0.97850 0.25740 0.43373 0.00600
C 	C 	0.11200 0.88410 0.29054 -0.18200
C 	C 	0.44840 0.83470 0.91469 0.00200
C 	C 	0.90340 0.81600 0.22308 0.39800
C 	C 	0.05160 0.16530 0.41469 0.00100
C 	C 	0.86100 0.51480 0.70940 0.13600
C 	C 	0.14000 0.59260 0.70147 -0.22400
C 	C 	0.93970 0.95120 0.20500 0.14900
C 	C 	0.20030 0.76170 0.94890 -0.05300
C 	C 	0.38800 0.11590 0.79054 -0.18400
C 	C 	0.64590 0.20230 0.89589 0.14300
C 	C 	0.70030 0.76170 0.55110 -0.05300
C 	C 	0.57350 0.99870 0.16632 0.22400
C 	C 	0.99090 0.25210 0.90040 0.15600
C 	C 	0.20120 0.06580 0.84100 -0.25200
C 	C 	0.93260 0.76250 0.44867 0.22700
C 	C 	0.64540 0.25550 0.82942 0.42100
C 	C 	0.12040 0.01400 0.30000 -0.21700
C 	C 	0.76350 0.19750 0.12740 -0.00700
C 	C 	0.13900 0.48520 0.29060 0.13600
C 	C 	0.97350 0.21870 0.36786 0.00400
C 	C 	0.25260 0.26460 0.38530 -0.05400
C 	C 	0.05460 0.49320 0.34577 0.13600
C 	C 	0.97170 0.29160 0.83305 0.38000
C 	C 	0.45100 0.26330 0.10337 -0.07100
C 	C 	0.81870 0.26660 0.01070 0.22900
C 	C 	0.97590 0.83140 0.62266 -0.06200
C 	C 	0.96470 0.23790 0.93760 -0.25100
C 	C 	0.03530 0.76210 0.06240 -0.25100
C 	C 	0.07980 0.98770 0.81290 -0.24700
C 	C 	0.55460 0.49320 0.15423 0.13600
C 	C 	0.85460 0.74450 0.32942 0.42100
C 	C 	0.64910 0.41260 0.15330 0.21800
N 	N 	0.86700 0.23430 0.98972 -0.24700
N 	N 	0.31580 0.63680 0.87010 -0.24200
N 	N 	0.68420 0.36320 0.12990 -0.24200
N 	N 	0.36700 0.23430 0.51028 -0.24700
N 	N 	0.88450 0.33260 0.35208 -0.24600
N 	N 	0.63300 0.76570 0.48972 -0.24700
N 	N 	0.11550 0.66740 0.64792 -0.24600
N 	N 	0.54140 0.23680 0.98756 -0.25200
N 	N 	0.95860 0.76320 0.48756 -0.25200
N 	N 	0.61550 0.66740 0.85208 -0.24600
N 	N 	0.83760 0.06590 0.14432 -0.25900
N 	N 	0.33760 0.06590 0.35568 -0.25900
N 	N 	0.45860 0.76320 0.01244 -0.25200
N 	N 	0.05240 0.05390 0.35672 -0.25100
N 	N 	0.44760 0.94610 0.85672 -0.25200
N 	N 	0.94760 0.94610 0.64328 -0.25100
N 	N 	0.13300 0.76570 0.01028 -0.24700
N 	N 	0.16240 0.93410 0.85568 -0.25900
N 	N 	0.55240 0.05390 0.14328 -0.25200
N 	N 	0.04140 0.23680 0.51244 -0.25200
N 	N 	0.18420 0.36320 0.37010 -0.24200
N 	N 	0.81580 0.63680 0.62990 -0.24200
N 	N 	0.38450 0.33260 0.14792 -0.24600
N 	N 	0.66240 0.93410 0.64432 -0.25900
O 	O 	0.40170 0.71910 0.19305 -0.44900
O 	O 	0.78580 0.31680 0.99840 -0.22400
O 	O 	0.08010 0.70220 0.19372 -0.47200
O 	O 	0.54950 0.29680 0.67417 -0.39200
O 	O 	0.26250 0.01690 0.40650 -0.23100
O 	O 	0.55460 0.14430 0.18740 -0.23200
O 	O 	0.58040 0.60300 0.24317 -0.48600
O 	O 	0.52090 0.18180 0.73279 -0.37500
O 	O 	0.45050 0.70320 0.32583 -0.39200
O 	O 	0.47910 0.81820 0.26721 -0.37500
O 	O 	0.71420 0.68320 0.49840 -0.22400
O 	O 	0.04950 0.29680 0.82583 -0.39200
O 	O 	0.59830 0.28090 0.80695 -0.44900
O 	O 	0.69910 0.39530 0.76010 -0.49800
O 	O 	0.09830 0.28090 0.69305 -0.44900
O 	O 	0.62730 0.65260 0.91642 -0.24000
O 	O 	0.98550 0.59580 0.30306 -0.38900
O 	O 	0.88360 0.83610 0.51347 -0.24000
O 	O 	0.30770 0.16210 0.74361 -0.38300
O 	O 	0.61640 0.16390 0.01347 -0.24000
O 	O 	0.21060 0.23570 0.68022 -0.40900
O 	O 	0.22980 0.30070 0.32076 -0.22400
O 	O 	0.11640 0.16390 0.48653 -0.24000
O 	O 	0.02090 0.18180 0.76721 -0.37500
O 	O 	0.41960 0.39700 0.75683 -0.48600
O 	O 	0.71110 0.59780 0.30841 -0.38700
O 	O 	0.97910 0.81820 0.23279 -0.37500
O 	O 	0.94540 0.85570 0.68740 -0.23200
O 	O 	0.08040 0.60300 0.25683 -0.48600
O 	O 	0.12730 0.65260 0.58358 -0.24000
O 	O 	0.91990 0.29780 0.80628 -0.47200
O 	O 	0.27020 0.69930 0.82076 -0.22400
O 	O 	0.48550 0.59580 0.19694 -0.38900
O 	O 	0.23750 0.98310 0.90650 -0.23100
O 	O 	0.72980 0.30070 0.17924 -0.22400
O 	O 	0.37270 0.34740 0.08358 -0.24000
O 	O 	0.80770 0.16210 0.75639 -0.38300
O 	O 	0.73750 0.98310 0.59350 -0.23100
O 	O 	0.51450 0.40420 0.80306 -0.38900
O 	O 	0.28580 0.31680 0.50160 -0.22400
O 	O 	0.84380 0.76040 0.23003 -0.51300
O 	O 	0.28940 0.76430 0.18022 -0.40900
O 	O 	0.78890 0.40220 0.80841 -0.38600
O 	O 	0.30090 0.60470 0.23990 -0.49800
O 	O 	0.19910 0.39530 0.73990 -0.49800
O 	O 	0.95050 0.70320 0.17417 -0.39200
O 	O 	0.40550 0.24370 0.77448 -0.48900
O 	O 	0.78940 0.76430 0.31978 -0.40900
O 	O 	0.01450 0.40420 0.69694 -0.38900
O 	O 	0.28890 0.40220 0.69159 -0.38700
O 	O 	0.38360 0.83610 0.98653 -0.24000
O 	O 	0.69230 0.83790 0.25639 -0.38300
O 	O 	0.71060 0.23570 0.81978 -0.40900
O 	O 	0.90550 0.24370 0.72552 -0.48900
O 	O 	0.41990 0.29780 0.69372 -0.47200
O 	O 	0.44540 0.85570 0.81260 -0.23200
O 	O 	0.58010 0.70220 0.30628 -0.47200
O 	O 	0.87270 0.34740 0.41642 -0.24000
O 	O 	0.90170 0.71910 0.30695 -0.44900
O 	O 	0.59450 0.75630 0.22552 -0.48900
O 	O 	0.80090 0.60470 0.26010 -0.49800
O 	O 	0.65620 0.23960 0.73003 -0.51300
O 	O 	0.77020 0.69930 0.67924 -0.22400
O 	O 	0.19230 0.83790 0.24361 -0.38300
O 	O 	0.09450 0.75630 0.27448 -0.48900
O 	O 	0.91960 0.39700 0.74317 -0.48600
O 	O 	0.05460 0.14430 0.31260 -0.23200
O 	O 	0.76250 0.01690 0.09350 -0.23100
O 	O 	0.21420 0.68320 0.00160 -0.22400
O 	O 	0.15620 0.23960 0.76997 -0.51300
O 	O 	0.34380 0.76040 0.26997 -0.51300
O 	O 	0.21110 0.59780 0.19159 -0.38600
