data_crystal

_cell_length_a 14.62800
_cell_length_b 16.47200
_cell_length_c 21.02900
_cell_angle_alpha 97.01000
_cell_angle_beta  90.00000
_cell_angle_gamma 90.00000

_symmetry_space_group_name_	'P 1'
_symmetry_space_group_name_H-M	'P 1'

loop_
_symmetry_equiv_pos_as_xyz
  x,y,z

loop_
_atom_site_label
_atom_site_type_symbol
_atom_site_fract_x
_atom_site_fract_y
_atom_site_fract_z
_atom_site_charge
Zn	Zn	0.00738 0.05580 0.07270 1.24000
Zn	Zn	0.99262 0.94420 0.92730 1.24000
Zn	Zn	0.35840 0.79414 0.45483 1.24300
Zn	Zn	0.54670 0.74732 0.38490 1.23500
Zn	Zn	0.14160 0.79414 0.95483 1.24300
Zn	Zn	0.49262 0.05580 0.57270 1.24400
Zn	Zn	0.04670 0.25268 0.11510 1.23200
Zn	Zn	0.45330 0.25268 0.61510 1.23500
Zn	Zn	0.50738 0.94420 0.42730 1.24500
Zn	Zn	0.95330 0.74732 0.88490 1.23300
Zn	Zn	0.85840 0.20586 0.04517 1.24400
Zn	Zn	0.64160 0.20586 0.54517 1.24400
Si	Si	0.99765 0.21343 0.86889 1.29800
Si	Si	0.49765 0.78657 0.63111 1.30100
Si	Si	0.00235 0.78657 0.13111 1.29800
Si	Si	0.50235 0.21343 0.36889 1.30100
H 	H 	0.80900 0.01290 0.79420 0.09800
H 	H 	0.56130 0.23390 0.80130 0.09500
H 	H 	0.93870 0.23390 0.30130 0.09700
H 	H 	0.30460 0.79250 0.78930 0.14100
H 	H 	0.67030 0.44000 0.49510 0.09500
H 	H 	0.29620 0.95400 0.28190 0.02300
H 	H 	0.20870 0.01040 0.03200 -0.11600
H 	H 	0.70380 0.04600 0.71810 0.02300
H 	H 	0.50990 0.47970 0.36470 0.13000
H 	H 	0.99010 0.47970 0.86470 0.12300
H 	H 	0.20380 0.95400 0.78190 0.02400
H 	H 	0.79130 0.98960 0.96800 -0.11600
H 	H 	0.19100 0.98710 0.20580 0.09800
H 	H 	0.69100 0.01290 0.29420 0.09400
H 	H 	0.63430 0.22950 0.89930 0.01800
H 	H 	0.28060 0.22150 0.22990 0.13500
H 	H 	0.78060 0.77850 0.27010 0.13400
H 	H 	0.51340 0.82910 0.48550 0.32300
H 	H 	0.70870 0.98960 0.46800 -0.11400
H 	H 	0.86570 0.22950 0.39930 0.01900
H 	H 	0.06130 0.76610 0.69870 0.09700
H 	H 	0.43870 0.76610 0.19870 0.09500
H 	H 	0.31250 0.42810 0.52990 0.01600
H 	H 	0.82970 0.44000 0.99510 0.08800
H 	H 	0.71940 0.77850 0.77010 0.13500
H 	H 	0.69540 0.20750 0.21070 0.14100
H 	H 	0.21940 0.22150 0.72990 0.13400
H 	H 	0.98660 0.82910 0.98550 0.30900
H 	H 	0.17030 0.56000 0.00490 0.08800
H 	H 	0.01340 0.17090 0.01450 0.30900
H 	H 	0.00990 0.52030 0.13530 0.12300
H 	H 	0.36570 0.77050 0.10070 0.01800
H 	H 	0.30900 0.98710 0.70580 0.09400
H 	H 	0.68750 0.57190 0.47010 0.01600
H 	H 	0.48660 0.17090 0.51450 0.32300
H 	H 	0.29130 0.01040 0.53200 -0.11400
H 	H 	0.13430 0.77050 0.60070 0.01900
H 	H 	0.18750 0.42810 0.02990 0.01100
H 	H 	0.19540 0.79250 0.28930 0.14100
H 	H 	0.81250 0.57190 0.97010 0.01100
H 	H 	0.32970 0.56000 0.50490 0.09500
H 	H 	0.79620 0.04600 0.21810 0.02400
H 	H 	0.49010 0.52030 0.63530 0.13000
H 	H 	0.80460 0.20750 0.71070 0.14100
C 	C 	0.86310 0.48352 0.01812 -0.11200
C 	C 	0.21542 0.16702 0.74025 -0.20200
C 	C 	0.14547 0.06700 0.80094 -0.24600
C 	C 	0.26920 0.02778 0.72622 -0.11800
C 	C 	0.04183 0.38806 0.91218 0.31400
C 	C 	0.64547 0.93300 0.69906 -0.24900
C 	C 	0.23611 0.78080 0.13546 -0.25100
C 	C 	0.65014 0.85287 0.71520 0.33000
C 	C 	0.68435 0.21042 0.30771 0.33300
C 	C 	0.30751 0.78302 0.57264 0.42700
C 	C 	0.03010 0.46894 0.89822 -0.18600
C 	C 	0.23080 0.02778 0.22622 -0.12600
C 	C 	0.15014 0.14713 0.78480 0.32800
C 	C 	0.36960 0.77922 0.31673 0.34200
C 	C 	0.84404 0.86858 0.83514 0.35200
C 	C 	0.42047 0.04234 0.34828 0.44700
C 	C 	0.89308 0.70931 0.01503 0.42900
C 	C 	0.85260 0.56174 0.00379 0.11500
C 	C 	0.60692 0.70931 0.51503 0.42100
C 	C 	0.78458 0.83298 0.25975 -0.20200
C 	C 	0.22977 0.78794 0.25073 -0.21500
C 	C 	0.67720 0.22011 0.74673 0.04100
C 	C 	0.66950 0.22590 0.86108 0.11600
C 	C 	0.12580 0.77230 0.69706 -0.12800
C 	C 	0.77023 0.21206 0.74927 -0.21500
C 	C 	0.82280 0.22011 0.24673 0.04300
C 	C 	0.22645 0.10807 0.21150 0.03400
C 	C 	0.83070 0.02540 0.99406 0.49900
C 	C 	0.85453 0.93300 0.19906 -0.24600
C 	C 	0.18435 0.78958 0.19229 0.33200
C 	C 	0.79400 0.99172 0.22888 0.10500
C 	C 	0.20600 0.00828 0.77112 0.10500
C 	C 	0.44290 0.62060 0.42118 0.35200
C 	C 	0.92047 0.95766 0.15172 0.44300
C 	C 	0.76389 0.21920 0.86454 -0.25100
C 	C 	0.77355 0.89193 0.78850 0.03400
C 	C 	0.15596 0.13142 0.16486 0.35200
C 	C 	0.35260 0.43826 0.49621 0.11000
C 	C 	0.73611 0.21920 0.36454 -0.25100
C 	C 	0.28458 0.16702 0.24025 -0.20500
C 	C 	0.54183 0.61194 0.58782 0.31400
C 	C 	0.27023 0.78794 0.75073 -0.21500
C 	C 	0.95817 0.61194 0.08782 0.31400
C 	C 	0.37420 0.77230 0.19706 -0.12800
C 	C 	0.34986 0.14713 0.28480 0.33000
C 	C 	0.57620 0.46756 0.56727 0.03000
C 	C 	0.57953 0.95766 0.65172 0.44700
C 	C 	0.07953 0.04234 0.84828 0.44300
C 	C 	0.70600 0.99172 0.72888 0.10900
C 	C 	0.65596 0.86858 0.33514 0.35400
C 	C 	0.72977 0.21206 0.24927 -0.21500
C 	C 	0.69249 0.21698 0.42736 0.42700
C 	C 	0.13040 0.77922 0.81673 0.34100
C 	C 	0.16930 0.97460 0.00594 0.49900
C 	C 	0.16950 0.77410 0.63892 0.11700
C 	C 	0.10045 0.37341 0.96250 -0.24300
C 	C 	0.83050 0.22590 0.36108 0.11700
C 	C 	0.62580 0.22770 0.80294 -0.12800
C 	C 	0.32280 0.77989 0.25327 0.04100
C 	C 	0.66930 0.02540 0.49406 0.50100
C 	C 	0.26389 0.78080 0.63546 -0.25100
C 	C 	0.63690 0.48352 0.51812 -0.12100
C 	C 	0.72645 0.89193 0.28850 0.03100
C 	C 	0.84986 0.85287 0.21520 0.32800
C 	C 	0.92380 0.46756 0.06727 0.02300
C 	C 	0.10692 0.29069 0.98497 0.42900
C 	C 	0.53010 0.53106 0.60178 -0.19800
C 	C 	0.17720 0.77989 0.75327 0.04300
C 	C 	0.19249 0.78302 0.07264 0.42700
C 	C 	0.60045 0.62659 0.53750 -0.24100
C 	C 	0.45817 0.38806 0.41218 0.31400
C 	C 	0.80751 0.21698 0.92736 0.42700
C 	C 	0.86960 0.22078 0.18327 0.34100
C 	C 	0.35453 0.06700 0.30094 -0.24900
C 	C 	0.39308 0.29069 0.48497 0.42100
C 	C 	0.07620 0.53244 0.93273 0.02300
C 	C 	0.81565 0.21042 0.80771 0.33200
C 	C 	0.14740 0.43826 0.99621 0.11500
C 	C 	0.34404 0.13142 0.66486 0.35400
C 	C 	0.71542 0.83298 0.75975 -0.20500
C 	C 	0.73080 0.97222 0.27378 -0.11800
C 	C 	0.63040 0.22078 0.68327 0.34200
C 	C 	0.96990 0.53106 0.10178 -0.18600
C 	C 	0.55710 0.37940 0.57882 0.35200
C 	C 	0.33050 0.77410 0.13892 0.11600
C 	C 	0.39955 0.37341 0.46250 -0.24100
C 	C 	0.31565 0.78958 0.69229 0.33300
C 	C 	0.76920 0.97222 0.77378 -0.12600
C 	C 	0.42380 0.53244 0.43273 0.03000
C 	C 	0.46990 0.46894 0.39822 -0.19800
C 	C 	0.27355 0.10807 0.71150 0.03100
C 	C 	0.94290 0.37940 0.07882 0.36400
C 	C 	0.87420 0.22770 0.30294 -0.12800
C 	C 	0.64740 0.56174 0.50379 0.11000
C 	C 	0.33070 0.97460 0.50594 0.50100
C 	C 	0.89955 0.62659 0.03750 -0.24300
C 	C 	0.13690 0.51648 0.98188 -0.11200
C 	C 	0.05710 0.62060 0.92118 0.36400
C 	C 	0.29400 0.00828 0.27112 0.10900
C 	C 	0.36310 0.51648 0.48188 -0.12100
O 	O 	0.81776 0.21550 0.13507 -0.44000
O 	O 	0.99487 0.63321 0.88330 -0.45900
O 	O 	0.35911 0.28345 0.53798 -0.40100
O 	O 	0.98828 0.16792 0.05057 -0.87600
O 	O 	0.85154 0.79350 0.84127 -0.44900
O 	O 	0.18224 0.78450 0.86493 -0.44000
O 	O 	0.10450 0.67333 0.95314 -0.45100
O 	O 	0.51172 0.16792 0.55057 -0.89300
O 	O 	0.14089 0.28345 0.03798 -0.40700
O 	O 	0.01172 0.83208 0.94943 -0.87600
O 	O 	0.98027 0.90655 0.12639 -0.45500
O 	O 	0.64089 0.71655 0.46202 -0.40100
O 	O 	0.79676 0.08630 0.02418 -0.43200
O 	O 	0.35154 0.20650 0.65873 -0.44800
O 	O 	0.68224 0.21550 0.63507 -0.44100
O 	O 	0.54520 0.22781 0.68400 -0.44300
O 	O 	0.01973 0.09345 0.87361 -0.45500
O 	O 	0.48027 0.09345 0.37361 -0.45800
O 	O 	0.92601 0.77174 0.05114 -0.44400
O 	O 	0.31776 0.78450 0.36493 -0.44100
O 	O 	0.45480 0.77219 0.31600 -0.44300
O 	O 	0.99363 0.32865 0.87788 -0.41200
O 	O 	0.76192 0.22865 0.97806 -0.41000
O 	O 	0.91682 0.02919 0.13712 -0.45200
O 	O 	0.42601 0.22826 0.44886 -0.44600
O 	O 	0.50513 0.63321 0.38330 -0.45100
O 	O 	0.00513 0.36679 0.11670 -0.45900
O 	O 	0.08318 0.97081 0.86288 -0.45200
O 	O 	0.08479 0.99327 0.00476 -0.59300
O 	O 	0.41682 0.97081 0.36288 -0.45700
O 	O 	0.09415 0.79765 0.19345 -0.41900
O 	O 	0.39311 0.79977 0.56935 -0.49000
O 	O 	0.57399 0.77174 0.55114 -0.44600
O 	O 	0.61065 0.92605 0.36423 -0.45000
O 	O 	0.49363 0.67135 0.62212 -0.40900
O 	O 	0.89311 0.20023 0.93065 -0.49000
O 	O 	0.91521 0.00673 0.99524 -0.59300
O 	O 	0.60450 0.32667 0.54686 -0.45000
O 	O 	0.23808 0.77135 0.02194 -0.41000
O 	O 	0.04520 0.77219 0.81600 -0.44000
O 	O 	0.64846 0.79350 0.34127 -0.44800
O 	O 	0.60689 0.20023 0.43065 -0.49000
O 	O 	0.41521 0.99327 0.50476 -0.59400
O 	O 	0.90463 0.79343 0.18868 -0.41600
O 	O 	0.58479 0.00673 0.49524 -0.59400
O 	O 	0.88935 0.92605 0.86423 -0.45400
O 	O 	0.38935 0.07395 0.63577 -0.45000
O 	O 	0.85911 0.71655 0.96202 -0.40700
O 	O 	0.10689 0.79977 0.06935 -0.49000
O 	O 	0.89550 0.32667 0.04686 -0.45100
O 	O 	0.49487 0.36679 0.61670 -0.45100
O 	O 	0.59415 0.20235 0.30655 -0.42000
O 	O 	0.73808 0.22865 0.47806 -0.40800
O 	O 	0.70324 0.08630 0.52418 -0.43500
O 	O 	0.95480 0.22781 0.18400 -0.44000
O 	O 	0.00637 0.67135 0.12212 -0.41200
O 	O 	0.58318 0.02919 0.63712 -0.45700
O 	O 	0.51973 0.90655 0.62639 -0.45800
O 	O 	0.20324 0.91370 0.97582 -0.43200
O 	O 	0.39550 0.67333 0.45314 -0.45000
O 	O 	0.14846 0.20650 0.15873 -0.44900
O 	O 	0.90585 0.20235 0.80655 -0.41900
O 	O 	0.11065 0.07395 0.13577 -0.45400
O 	O 	0.48828 0.83208 0.44943 -0.89300
O 	O 	0.29676 0.91370 0.47582 -0.43500
O 	O 	0.40585 0.79765 0.69345 -0.42000
O 	O 	0.59537 0.79343 0.68868 -0.41800
O 	O 	0.07399 0.22826 0.94886 -0.44400
O 	O 	0.26192 0.77135 0.52194 -0.40800
O 	O 	0.50637 0.32865 0.37788 -0.40900
O 	O 	0.09537 0.20657 0.81132 -0.41600
O 	O 	0.40463 0.20657 0.31132 -0.41800
