data_crystal

_cell_length_a 11.07500
_cell_length_b 15.43800
_cell_length_c 19.18000
_cell_angle_alpha 95.79600
_cell_angle_beta  90.00000
_cell_angle_gamma 90.00000

_symmetry_space_group_name_	'P 1'
_symmetry_space_group_name_H-M	'P 1'

loop_
_symmetry_equiv_pos_as_xyz
  x,y,z

loop_
_atom_site_label
_atom_site_type_symbol
_atom_site_fract_x
_atom_site_fract_y
_atom_site_fract_z
_atom_site_charge
Cd	Cd	0.45496 0.50000 0.25000 1.25000
Cd	Cd	0.44237 0.54395 0.92226 1.22000
Cd	Cd	0.55763 0.45605 0.07774 1.22000
Cd	Cd	0.54504 0.50000 0.75000 1.25000
Cd	Cd	0.44237 0.45605 0.57774 1.21900
Cd	Cd	0.55763 0.54395 0.42226 1.21900
H 	H 	0.76610 0.90670 0.25990 0.15700
H 	H 	0.19250 0.15760 0.44710 0.17200
H 	H 	0.07920 0.80750 0.51180 0.16700
H 	H 	0.13760 0.32750 0.21170 -0.02700
H 	H 	0.28690 0.83420 0.25390 0.16400
H 	H 	0.60420 0.70730 0.72340 -0.03700
H 	H 	0.87120 0.93240 0.87650 0.22100
H 	H 	0.02100 0.84200 0.66800 0.21400
H 	H 	0.23390 0.09330 0.74010 0.15700
H 	H 	0.77260 0.97850 0.41500 0.22500
H 	H 	0.71870 0.81540 0.34440 -0.01600
H 	H 	0.28700 0.71090 0.60960 0.15200
H 	H 	0.70410 0.71310 0.52260 -0.03400
H 	H 	0.07920 0.19250 0.98820 0.16300
H 	H 	0.97900 0.15800 0.33200 0.21400
H 	H 	0.32910 0.61890 0.69420 -0.05400
H 	H 	0.86240 0.67250 0.78830 -0.02700
H 	H 	0.19250 0.84240 0.05290 0.17200
H 	H 	0.67090 0.61890 0.19420 -0.05400
H 	H 	0.32910 0.38110 0.80580 -0.05400
H 	H 	0.86240 0.32750 0.71170 -0.02800
H 	H 	0.97900 0.84200 0.16800 0.21300
H 	H 	0.01510 0.22610 0.69010 0.15500
H 	H 	0.22740 0.02150 0.58500 0.22500
H 	H 	0.29590 0.28690 0.47740 -0.03400
H 	H 	0.71300 0.71090 0.10960 0.15100
H 	H 	0.28700 0.28910 0.89040 0.15100
H 	H 	0.92080 0.80750 0.01180 0.16300
H 	H 	0.23390 0.90670 0.75990 0.15800
H 	H 	0.22740 0.97850 0.91500 0.22400
H 	H 	0.12880 0.93240 0.37650 0.22200
H 	H 	0.71310 0.83420 0.75390 0.16500
H 	H 	0.70410 0.28690 0.97740 -0.03400
H 	H 	0.98490 0.22610 0.19010 0.15400
H 	H 	0.02100 0.15800 0.83200 0.21300
H 	H 	0.76650 0.70610 0.99000 -0.03200
H 	H 	0.92080 0.19250 0.48820 0.16700
H 	H 	0.23350 0.70610 0.49000 -0.03400
H 	H 	0.87120 0.06760 0.62350 0.22200
H 	H 	0.80750 0.84240 0.55290 0.17200
H 	H 	0.39580 0.70730 0.22340 -0.03700
H 	H 	0.28130 0.81540 0.84440 -0.01600
H 	H 	0.67090 0.38110 0.30580 -0.05400
H 	H 	0.80750 0.15760 0.94710 0.17200
H 	H 	0.28130 0.18460 0.65560 -0.01600
H 	H 	0.13760 0.67250 0.28830 -0.02800
H 	H 	0.76650 0.29390 0.51000 -0.03400
H 	H 	0.76610 0.09330 0.24010 0.15800
H 	H 	0.71300 0.28910 0.39040 0.15200
H 	H 	0.77260 0.02150 0.08500 0.22400
H 	H 	0.01510 0.77390 0.80990 0.15400
H 	H 	0.23350 0.29390 0.01000 -0.03200
H 	H 	0.71870 0.18460 0.15560 -0.01600
H 	H 	0.71310 0.16580 0.74610 0.16400
H 	H 	0.98490 0.77390 0.30990 0.15500
H 	H 	0.12880 0.06760 0.12350 0.22100
H 	H 	0.29590 0.71310 0.02260 -0.03400
H 	H 	0.60420 0.29270 0.77660 -0.03700
H 	H 	0.28690 0.16580 0.24610 0.16500
H 	H 	0.39580 0.29270 0.27660 -0.03700
C 	C 	0.25920 0.18160 0.82270 0.34400
C 	C 	0.70420 0.73770 0.56890 0.22100
C 	C 	0.35480 0.73390 0.18900 0.21600
C 	C 	0.86140 0.07520 0.37250 0.44400
C 	C 	0.28990 0.81020 0.20750 -0.32600
C 	C 	0.31370 0.29260 0.72220 -0.24300
C 	C 	0.29580 0.26230 0.43110 0.22100
C 	C 	0.87390 0.30030 0.66670 0.20100
C 	C 	0.28990 0.18980 0.29250 -0.32600
C 	C 	0.74470 0.15090 0.25330 -0.33700
C 	C 	0.68770 0.32280 0.29240 0.20800
C 	C 	0.86140 0.92480 0.12750 0.44000
C 	C 	0.77010 0.15020 0.84430 0.35300
C 	C 	0.22990 0.15020 0.34430 0.35300
C 	C 	0.93840 0.96850 0.87590 -0.48400
C 	C 	0.25530 0.15090 0.75330 -0.33700
C 	C 	0.80020 0.32100 0.61280 -0.23700
C 	C 	0.57210 0.61500 0.60260 0.46100
C 	C 	0.23260 0.81480 0.08710 -0.34600
C 	C 	0.84700 0.00400 0.10120 -0.47400
C 	C 	0.30600 0.61710 0.37110 0.40700
C 	C 	0.80020 0.67900 0.88720 -0.23400
C 	C 	0.64520 0.73390 0.68900 0.21600
C 	C 	0.13860 0.07520 0.87250 0.44000
C 	C 	0.28630 0.73180 0.65680 -0.33100
C 	C 	0.35220 0.35150 0.66940 0.39600
C 	C 	0.64100 0.69700 0.61970 -0.27200
C 	C 	0.84700 0.99600 0.39880 -0.47900
C 	C 	0.25530 0.84910 0.74670 -0.33700
C 	C 	0.13860 0.92480 0.62750 0.44400
C 	C 	0.05070 0.94330 0.90010 0.42800
C 	C 	0.57210 0.38500 0.89740 0.46100
C 	C 	0.35900 0.69700 0.11970 -0.27200
C 	C 	0.87390 0.69970 0.83330 0.19800
C 	C 	0.05070 0.05670 0.59990 0.43100
C 	C 	0.12610 0.30030 0.16670 0.19800
C 	C 	0.19980 0.32100 0.11280 -0.23400
C 	C 	0.31370 0.70740 0.77780 -0.24300
C 	C 	0.30600 0.38290 0.12890 0.40600
C 	C 	0.31230 0.67720 0.70760 0.20800
C 	C 	0.06160 0.96850 0.37590 -0.49000
C 	C 	0.93170 0.95130 0.64870 0.45800
C 	C 	0.09170 0.21920 0.03330 -0.33200
C 	C 	0.97970 0.80120 0.91290 0.34500
C 	C 	0.71370 0.26820 0.34320 -0.33100
C 	C 	0.71370 0.73180 0.15680 -0.33000
C 	C 	0.03540 0.23950 0.15400 -0.33200
C 	C 	0.96460 0.23950 0.65400 -0.33500
C 	C 	0.68630 0.29260 0.22220 -0.24300
C 	C 	0.74470 0.84910 0.24670 -0.33700
C 	C 	0.02030 0.80120 0.41290 0.34800
C 	C 	0.06830 0.04870 0.35130 0.45800
C 	C 	0.68770 0.67720 0.20760 0.20700
C 	C 	0.64520 0.26610 0.81100 0.21600
C 	C 	0.64100 0.30300 0.88030 -0.27200
C 	C 	0.42790 0.38500 0.39740 0.46100
C 	C 	0.15300 0.99600 0.89880 -0.47400
C 	C 	0.93170 0.04870 0.85130 0.45500
C 	C 	0.09170 0.78080 0.46670 -0.33900
C 	C 	0.69400 0.61710 0.87110 0.40600
C 	C 	0.28310 0.79420 0.79720 0.20000
C 	C 	0.71690 0.79420 0.29720 0.20000
C 	C 	0.12610 0.69970 0.33330 0.20100
C 	C 	0.94930 0.05670 0.09990 0.42800
C 	C 	0.81660 0.71960 0.95370 0.20200
C 	C 	0.76740 0.18520 0.91290 -0.34600
C 	C 	0.81660 0.28040 0.54630 0.20600
C 	C 	0.35900 0.30300 0.38030 -0.27200
C 	C 	0.25920 0.81840 0.67730 0.34500
C 	C 	0.15300 0.00400 0.60120 -0.47900
C 	C 	0.19980 0.67900 0.38720 -0.23700
C 	C 	0.97130 0.89610 0.15120 -0.50900
C 	C 	0.93840 0.03150 0.62410 -0.49000
C 	C 	0.70420 0.26230 0.93110 0.22100
C 	C 	0.42790 0.61500 0.10260 0.46100
C 	C 	0.77010 0.84980 0.65570 0.35300
C 	C 	0.06160 0.03150 0.12410 -0.48400
C 	C 	0.71690 0.20580 0.20280 0.20000
C 	C 	0.90830 0.21920 0.53330 -0.33900
C 	C 	0.03540 0.76050 0.34600 -0.33500
C 	C 	0.22990 0.84980 0.15570 0.35300
C 	C 	0.64780 0.35150 0.16940 0.39600
C 	C 	0.64780 0.64850 0.33060 0.39600
C 	C 	0.68630 0.70740 0.27780 -0.24300
C 	C 	0.02870 0.10390 0.84880 -0.50900
C 	C 	0.23260 0.18520 0.41290 -0.34700
C 	C 	0.74080 0.81840 0.17730 0.34400
C 	C 	0.71010 0.18980 0.79250 -0.32600
C 	C 	0.02030 0.19880 0.08710 0.34500
C 	C 	0.28630 0.26820 0.84320 -0.33000
C 	C 	0.02870 0.89610 0.65120 -0.51200
C 	C 	0.31230 0.32280 0.79240 0.20700
C 	C 	0.90830 0.78080 0.96670 -0.33200
C 	C 	0.69400 0.38290 0.62890 0.40700
C 	C 	0.35480 0.26610 0.31100 0.21600
C 	C 	0.71010 0.81020 0.70750 -0.32600
C 	C 	0.18340 0.28040 0.04630 0.20200
C 	C 	0.74080 0.18160 0.32270 0.34500
C 	C 	0.97130 0.10390 0.34880 -0.51200
C 	C 	0.96460 0.76050 0.84600 -0.33200
C 	C 	0.76740 0.81480 0.58710 -0.34700
C 	C 	0.28310 0.20580 0.70280 0.20000
C 	C 	0.06830 0.95130 0.14870 0.45500
C 	C 	0.94930 0.94330 0.40010 0.43100
C 	C 	0.29580 0.73770 0.06890 0.22100
C 	C 	0.35220 0.64850 0.83060 0.39600
C 	C 	0.97970 0.19880 0.58710 0.34800
C 	C 	0.18340 0.71960 0.45370 0.20600
O 	O 	0.32660 0.59160 0.30840 -0.44300
O 	O 	0.67340 0.59160 0.80840 -0.44300
O 	O 	0.61080 0.57280 0.30900 -0.52200
O 	O 	0.46740 0.42660 0.34870 -0.53300
O 	O 	0.53260 0.57340 0.65130 -0.53300
O 	O 	0.76020 0.87190 0.12430 -0.35400
O 	O 	0.46740 0.57340 0.15130 -0.53300
O 	O 	0.38920 0.57280 0.80900 -0.52200
O 	O 	0.93050 0.86370 0.42680 -0.35000
O 	O 	0.63190 0.40190 0.57600 -0.43700
O 	O 	0.18040 0.06980 0.32370 -0.34600
O 	O 	0.44760 0.41320 0.46020 -0.53300
O 	O 	0.34850 0.67230 0.89460 -0.40000
O 	O 	0.55240 0.58680 0.53980 -0.53300
O 	O 	0.93050 0.13630 0.07320 -0.34900
O 	O 	0.44760 0.58680 0.03980 -0.53300
O 	O 	0.36810 0.40190 0.07600 -0.43600
O 	O 	0.55240 0.41320 0.96020 -0.53300
O 	O 	0.32660 0.40840 0.19160 -0.44300
O 	O 	0.76020 0.12810 0.37570 -0.35500
O 	O 	0.34850 0.32770 0.60540 -0.40000
O 	O 	0.06950 0.13630 0.57320 -0.35000
O 	O 	0.65150 0.32770 0.10540 -0.40000
O 	O 	0.23980 0.87190 0.62430 -0.35500
O 	O 	0.18040 0.93020 0.17630 -0.34600
O 	O 	0.23980 0.12810 0.87570 -0.35400
O 	O 	0.38920 0.42720 0.69100 -0.52200
O 	O 	0.61080 0.42720 0.19100 -0.52200
O 	O 	0.81960 0.06980 0.82370 -0.34600
O 	O 	0.63190 0.59810 0.92400 -0.43600
O 	O 	0.53260 0.42660 0.84870 -0.53300
O 	O 	0.67340 0.40840 0.69160 -0.44300
O 	O 	0.36810 0.59810 0.42400 -0.43700
O 	O 	0.65150 0.67230 0.39460 -0.40000
O 	O 	0.81960 0.93020 0.67630 -0.34600
O 	O 	0.06950 0.86370 0.92680 -0.34900
