data_crystal

_cell_length_a 13.87100
_cell_length_b 15.10200
_cell_length_c 19.99400
_cell_angle_alpha 90.00000
_cell_angle_beta  90.00000
_cell_angle_gamma 94.69000

_symmetry_space_group_name_	'P 1'
_symmetry_space_group_name_H-M	'P 1'

loop_
_symmetry_equiv_pos_as_xyz
  x,y,z

loop_
_atom_site_label
_atom_site_type_symbol
_atom_site_fract_x
_atom_site_fract_y
_atom_site_fract_z
_atom_site_charge
Zn	Zn	0.06754 0.55534 0.65990 1.22600
Zn	Zn	0.55377 0.92992 0.56264 1.24300
Zn	Zn	0.93246 0.94466 0.15990 1.25300
Zn	Zn	0.93246 0.44466 0.34010 1.24900
Zn	Zn	0.44623 0.07008 0.43736 1.23200
Zn	Zn	0.06754 0.05534 0.84010 1.21900
Zn	Zn	0.00000 0.50000 0.50000 1.21800
Zn	Zn	0.55377 0.42992 0.93736 1.24300
Zn	Zn	-0.00000 0.00000 -0.00000 1.19700
Zn	Zn	0.44623 0.57008 0.06264 1.23400
H 	H 	0.93900 0.80600 0.94700 0.04600
H 	H 	0.81000 0.47300 0.75100 0.06800
H 	H 	0.54600 0.84300 0.77160 0.06600
H 	H 	0.25800 0.39300 0.11400 0.04400
H 	H 	0.71100 0.22500 0.43000 0.06000
H 	H 	0.49800 0.80000 0.98900 0.27400
H 	H 	0.28900 0.77500 0.57000 0.05900
H 	H 	0.28900 0.27500 0.93000 0.05300
H 	H 	0.19000 0.02700 0.25100 0.04400
H 	H 	0.45400 0.65700 0.27160 0.06300
H 	H 	0.50200 0.70000 0.48900 0.26300
H 	H 	0.74200 0.10700 0.61400 0.04200
H 	H 	0.71800 0.90300 0.93400 0.06500
H 	H 	0.71100 0.72500 0.07000 0.06500
H 	H 	0.54600 0.34300 0.72840 0.06300
H 	H 	0.71800 0.40300 0.56600 0.05600
H 	H 	0.49800 0.30000 0.51100 0.26300
H 	H 	0.19000 0.52700 0.24900 0.05400
H 	H 	0.93900 0.30600 0.55300 0.05400
H 	H 	0.81000 0.97300 0.74900 0.07500
H 	H 	0.45400 0.15700 0.22840 0.06000
H 	H 	0.03100 0.38800 0.20800 0.20400
H 	H 	0.25800 0.89300 0.38600 0.05300
H 	H 	0.28200 0.59700 0.43400 0.05400
H 	H 	0.28200 0.09700 0.06600 0.04500
H 	H 	0.06100 0.19400 0.05300 0.02300
H 	H 	0.03100 0.88800 0.29200 0.20900
H 	H 	0.74200 0.60700 0.88600 0.05000
H 	H 	0.96900 0.61200 0.79200 0.26000
H 	H 	0.96900 0.11200 0.70800 0.26000
H 	H 	0.06100 0.69400 0.44700 0.01600
H 	H 	0.50200 0.20000 0.01100 0.25100
C 	C 	0.25200 0.27740 0.97329 0.09500
C 	C 	0.72310 0.79360 0.43533 -0.13900
C 	C 	0.85100 0.20400 0.59065 -0.09600
C 	C 	0.16890 0.31060 0.60692 -0.16600
C 	C 	0.12260 0.39660 0.60133 0.41100
C 	C 	0.71430 0.15960 0.52114 -0.11400
C 	C 	0.34440 0.58560 0.17722 0.32900
C 	C 	0.16730 0.22520 0.98428 -0.08500
C 	C 	0.25170 0.64860 0.88259 0.14300
C 	C 	0.32690 0.09080 0.24812 -0.08900
C 	C 	0.18610 0.17290 0.66606 -0.15300
C 	C 	0.61950 0.86520 0.86273 -0.07900
C 	C 	0.83110 0.18940 0.10692 -0.15800
C 	C 	0.83760 0.88700 0.27537 0.35200
C 	C 	0.23360 0.85110 0.42028 0.06700
C 	C 	0.38050 0.63480 0.36273 -0.09000
C 	C 	0.87310 0.48150 0.62658 0.39900
C 	C 	0.28570 0.84040 0.47886 -0.11200
C 	C 	0.76500 0.21330 0.05832 0.12700
C 	C 	0.23360 0.35110 0.07972 0.06600
C 	C 	0.60290 0.36900 0.70610 0.03700
C 	C 	0.75940 0.94550 0.77861 0.05200
C 	C 	0.67310 0.40920 0.74812 -0.07600
C 	C 	0.14900 0.79600 0.40935 -0.11100
C 	C 	0.22290 0.05770 0.15316 -0.10500
C 	C 	0.32690 0.59080 0.25188 -0.08500
C 	C 	0.65030 0.81880 0.48663 0.36300
C 	C 	0.23500 0.28670 0.55832 0.13100
C 	C 	0.22290 0.55770 0.34684 -0.10900
C 	C 	0.83760 0.38700 0.22463 0.34900
C 	C 	0.12690 0.51850 0.37342 0.40600
C 	C 	0.61970 0.60550 0.99014 0.41800
C 	C 	0.65030 0.31880 0.01337 0.32600
C 	C 	0.25200 0.77740 0.52671 0.07100
C 	C 	0.61970 0.10550 0.50986 0.38900
C 	C 	0.67310 0.90920 0.75188 -0.07100
C 	C 	0.77710 0.94230 0.84684 -0.09500
C 	C 	0.16240 0.61300 0.77537 0.35300
C 	C 	0.86740 0.84230 0.06755 0.33800
C 	C 	0.16240 0.11300 0.72463 0.35100
C 	C 	0.39710 0.13100 0.20610 0.04100
C 	C 	0.77710 0.44230 0.65316 -0.09500
C 	C 	0.34970 0.68120 0.98663 0.39700
C 	C 	0.76640 0.14890 0.57972 0.06400
C 	C 	0.72310 0.29360 0.06467 -0.12900
C 	C 	0.90510 0.20170 0.65474 0.35900
C 	C 	0.39710 0.63100 0.29390 0.04300
C 	C 	0.18610 0.67290 0.83394 -0.15300
C 	C 	0.27690 0.20640 0.56467 -0.14200
C 	C 	0.11550 0.73280 0.45664 0.06400
C 	C 	0.38030 0.89450 0.49014 0.38900
C 	C 	0.71430 0.65960 0.97886 -0.08800
C 	C 	0.76640 0.64890 0.92028 0.06600
C 	C 	0.85380 0.74550 0.33870 0.16900
C 	C 	0.34440 0.08560 0.32278 0.32700
C 	C 	0.28570 0.34040 0.02114 -0.14000
C 	C 	0.27690 0.70640 0.93533 -0.15100
C 	C 	0.25170 0.14860 0.61741 0.12800
C 	C 	0.76500 0.71330 0.44168 0.14600
C 	C 	0.87310 0.98150 0.87342 0.43000
C 	C 	0.16890 0.81060 0.89308 -0.16500
C 	C 	0.34970 0.18120 0.51337 0.36100
C 	C 	0.29390 0.09860 0.11041 0.04900
C 	C 	0.11550 0.23280 0.04336 0.02100
C 	C 	0.70610 0.40140 0.61041 0.04600
C 	C 	0.90510 0.70170 0.84526 0.36100
C 	C 	0.16730 0.72520 0.51572 -0.11600
C 	C 	0.74800 0.22260 0.47329 0.06600
C 	C 	0.09490 0.29830 0.15474 0.34600
C 	C 	0.85380 0.24550 0.16130 0.16600
C 	C 	0.38030 0.39450 0.00986 0.35900
C 	C 	0.61950 0.36520 0.63727 -0.08600
C 	C 	0.87740 0.10340 0.10133 0.42300
C 	C 	0.88450 0.26720 0.54336 0.05400
C 	C 	0.13260 0.65770 0.56755 0.34600
C 	C 	0.14620 0.75450 0.83870 0.13000
C 	C 	0.12690 0.01850 0.12658 0.35500
C 	C 	0.74830 0.85140 0.38259 0.15400
C 	C 	0.09490 0.79830 0.34526 0.34900
C 	C 	0.83270 0.77480 0.01572 -0.12100
C 	C 	0.65560 0.91440 0.67722 0.32400
C 	C 	0.53960 0.81810 0.90354 0.36100
C 	C 	0.70610 0.90140 0.88959 0.04800
C 	C 	0.14900 0.29600 0.09065 -0.10800
C 	C 	0.83110 0.68940 0.39308 -0.15800
C 	C 	0.74830 0.35140 0.11741 0.14100
C 	C 	0.53960 0.31810 0.59646 0.36000
C 	C 	0.88450 0.76720 0.95664 0.09200
C 	C 	0.46040 0.18190 0.09646 0.35900
C 	C 	0.81390 0.82710 0.33394 -0.14200
C 	C 	0.14620 0.25450 0.66130 0.12300
C 	C 	0.60290 0.86900 0.79390 0.03800
C 	C 	0.24060 0.05450 0.22139 0.04700
C 	C 	0.75940 0.44550 0.72139 0.04800
C 	C 	0.65560 0.41440 0.82278 0.32300
C 	C 	0.23500 0.78670 0.94168 0.15100
C 	C 	0.74800 0.72260 0.02671 0.04300
C 	C 	0.86740 0.34230 0.43245 0.33400
C 	C 	0.85100 0.70400 0.90935 -0.10000
C 	C 	0.83270 0.27480 0.48428 -0.09400
C 	C 	0.81390 0.32710 0.16606 -0.14100
C 	C 	0.46040 0.68190 0.40354 0.36100
C 	C 	0.38050 0.13480 0.13727 -0.09500
C 	C 	0.13260 0.15770 0.93245 0.34000
C 	C 	0.87740 0.60340 0.39867 0.42100
C 	C 	0.24060 0.55450 0.27861 0.05500
C 	C 	0.29390 0.59860 0.38959 0.05300
C 	C 	0.12260 0.89660 0.89867 0.40800
O 	O 	0.89030 0.56374 0.34435 -0.43400
O 	O 	0.54960 0.82710 0.96917 -0.39200
O 	O 	0.27390 0.07398 0.36094 -0.29300
O 	O 	0.54960 0.32710 0.53083 -0.40100
O 	O 	0.56786 0.90655 0.65837 -0.40200
O 	O 	0.58223 0.61041 0.04710 -0.47600
O 	O 	0.47180 0.27710 0.62237 -0.25600
O 	O 	0.77710 0.43658 0.24490 -0.25800
O 	O 	0.39230 0.23868 0.47662 -0.31300
O 	O 	0.36120 0.59846 0.98962 -0.43100
O 	O 	0.60770 0.76132 0.52338 -0.30800
O 	O 	0.06890 0.73180 0.31414 -0.27500
O 	O 	0.58376 0.56139 0.94121 -0.46200
O 	O 	0.89294 0.46507 0.56699 -0.41800
O 	O 	0.60770 0.26132 0.97662 -0.27500
O 	O 	0.06890 0.23180 0.18586 -0.27900
O 	O 	0.63880 0.90154 0.48962 -0.42300
O 	O 	0.41624 0.93861 0.44121 -0.44400
O 	O 	0.81730 0.35340 0.38173 -0.36000
O 	O 	0.41777 0.38959 0.95290 -0.42700
O 	O 	0.18270 0.14660 0.88173 -0.37200
O 	O 	0.81730 0.85340 0.11827 -0.35700
O 	O 	0.92400 0.62040 0.82669 -0.35100
O 	O 	0.18270 0.64660 0.61827 -0.36900
O 	O 	0.07477 0.97230 0.16754 -0.43100
O 	O 	0.92137 0.38250 0.25248 -0.38700
O 	O 	0.05020 0.61481 0.56076 -0.52300
O 	O 	0.41624 0.43861 0.05879 -0.45800
O 	O 	0.77710 0.93658 0.25510 -0.24700
O 	O 	0.10040 0.92190 0.95602 -0.42600
O 	O 	0.27390 0.57398 0.13906 -0.28600
O 	O 	0.10970 0.43626 0.65565 -0.47200
O 	O 	0.89960 0.07810 0.04398 -0.42700
O 	O 	0.39230 0.73868 0.02338 -0.34400
O 	O 	0.10970 0.93626 0.84435 -0.45000
O 	O 	0.94980 0.88519 0.06076 -0.46100
O 	O 	0.93110 0.26820 0.68586 -0.22400
O 	O 	0.58376 0.06139 0.55879 -0.47500
O 	O 	0.10706 0.03493 0.06699 -0.46900
O 	O 	0.45040 0.67290 0.46917 -0.40100
O 	O 	0.07477 0.47230 0.33246 -0.47900
O 	O 	0.22290 0.56342 0.75510 -0.26600
O 	O 	0.56786 0.40655 0.84163 -0.40900
O 	O 	0.89960 0.57810 0.45602 -0.40900
O 	O 	0.47180 0.77710 0.87763 -0.25100
O 	O 	0.92400 0.12040 0.67331 -0.35900
O 	O 	0.41777 0.88959 0.54710 -0.44500
O 	O 	0.92137 0.88250 0.24752 -0.38600
O 	O 	0.43214 0.09345 0.34163 -0.42000
O 	O 	0.22290 0.06342 0.74490 -0.28000
O 	O 	0.58223 0.11041 0.45290 -0.45900
O 	O 	0.63880 0.40154 0.01038 -0.43700
O 	O 	0.36120 0.09846 0.51038 -0.44800
O 	O 	0.94980 0.38519 0.43924 -0.45900
O 	O 	0.07600 0.87960 0.32669 -0.35900
O 	O 	0.93110 0.76820 0.81414 -0.22500
O 	O 	0.52820 0.72290 0.37763 -0.25400
O 	O 	0.10040 0.42190 0.54398 -0.45900
O 	O 	0.05020 0.11481 0.93924 -0.51800
O 	O 	0.52820 0.22290 0.12237 -0.26000
O 	O 	0.07863 0.11750 0.75248 -0.46600
O 	O 	0.07863 0.61750 0.74752 -0.45900
O 	O 	0.72610 0.92602 0.63906 -0.25600
O 	O 	0.10706 0.53493 0.43301 -0.46100
O 	O 	0.45040 0.17290 0.03083 -0.41100
O 	O 	0.92523 0.52770 0.66754 -0.40700
O 	O 	0.89030 0.06374 0.15565 -0.45000
O 	O 	0.43214 0.59345 0.15837 -0.41300
O 	O 	0.07600 0.37960 0.17331 -0.37000
O 	O 	0.89294 0.96507 0.93301 -0.40400
O 	O 	0.72610 0.42602 0.86094 -0.26000
O 	O 	0.92523 0.02770 0.83246 -0.43500
