data_crystal

_cell_length_a 18.77050
_cell_length_b 18.77050
_cell_length_c 18.77050
_cell_angle_alpha 101.88400
_cell_angle_beta  101.88400
_cell_angle_gamma 101.88400

_symmetry_space_group_name_	'P 1'
_symmetry_space_group_name_H-M	'P 1'

loop_
_symmetry_equiv_pos_as_xyz
  x,y,z

loop_
_atom_site_label
_atom_site_type_symbol
_atom_site_fract_x
_atom_site_fract_y
_atom_site_fract_z
_atom_site_charge
Zn	Zn	0.90022 0.33305 0.70270 1.22900
Zn	Zn	0.29730 0.66695 0.09978 1.22900
Zn	Zn	0.80573 0.16921 0.60173 1.26000
Zn	Zn	0.19427 0.39827 0.83079 1.26000
Zn	Zn	0.83079 0.19427 0.39827 1.26000
Zn	Zn	0.60173 0.80573 0.16921 1.26000
Zn	Zn	0.70270 0.90022 0.33305 1.22900
Zn	Zn	0.39827 0.83079 0.19427 1.26000
Zn	Zn	0.09978 0.29730 0.66695 1.22900
Zn	Zn	0.16921 0.60174 0.80573 1.26000
Zn	Zn	0.66695 0.09978 0.29730 1.22900
Zn	Zn	0.33305 0.70270 0.90022 1.22900
H 	H 	0.65350 0.91260 0.98280 0.03800
H 	H 	0.40890 0.15990 0.86580 0.07200
H 	H 	0.63690 0.33700 0.09200 0.07200
H 	H 	0.56240 0.93900 0.74510 0.05700
H 	H 	0.99110 0.43340 0.88500 -0.04700
H 	H 	0.04440 0.37250 0.12840 0.08100
H 	H 	0.09150 0.57730 0.11140 0.06500
H 	H 	0.00890 0.11500 0.56660 -0.04700
H 	H 	0.24590 0.59690 0.91640 0.49100
H 	H 	0.46970 0.85560 0.98450 0.03700
H 	H 	0.82640 0.74160 0.36160 0.03700
H 	H 	0.47050 0.68410 0.46690 0.07200
H 	H 	0.00600 0.36350 0.12000 -0.00500
H 	H 	0.75850 0.67010 0.13350 0.03600
H 	H 	0.15600 0.42520 0.49240 -0.08000
H 	H 	0.13350 0.75850 0.67010 0.03600
H 	H 	0.68410 0.46690 0.47050 0.07200
H 	H 	0.98280 0.65350 0.91260 0.03700
H 	H 	0.35630 0.48100 0.93450 -0.08800
H 	H 	0.53310 0.31590 0.52950 0.07200
H 	H 	0.74160 0.36160 0.82640 0.03700
H 	H 	0.41830 0.38700 0.90560 0.12600
H 	H 	0.32990 0.24150 0.86650 0.03600
H 	H 	0.43760 0.25490 0.06100 0.05600
H 	H 	0.09440 0.61300 0.58170 0.12600
H 	H 	0.25490 0.06100 0.43760 0.05600
H 	H 	0.40310 0.75410 0.08360 0.49100
H 	H 	0.52950 0.53310 0.31590 0.07200
H 	H 	0.88000 0.63650 0.99400 -0.00500
H 	H 	0.59690 0.91640 0.24590 0.49100
H 	H 	0.95560 0.87160 0.62750 0.08100
H 	H 	0.34650 0.01720 0.08740 0.03700
H 	H 	0.58170 0.09440 0.61300 0.12600
H 	H 	0.58070 0.50000 0.41930 0.06000
H 	H 	0.08740 0.34650 0.01720 0.03700
H 	H 	0.12000 0.00600 0.36350 -0.00500
H 	H 	0.61300 0.58170 0.09440 0.12600
H 	H 	0.08360 0.40310 0.75410 0.49100
H 	H 	0.90850 0.88860 0.42270 0.06500
H 	H 	0.99400 0.88000 0.63650 -0.00500
H 	H 	0.88500 0.99110 0.43340 -0.04700
H 	H 	0.84860 0.42560 0.04070 0.05700
H 	H 	0.59110 0.13420 0.84010 0.07100
H 	H 	0.45480 0.07640 0.64900 0.05100
H 	H 	0.62750 0.95560 0.87160 0.08100
H 	H 	0.86650 0.32990 0.24150 0.03600
H 	H 	0.56660 0.00890 0.11500 -0.04700
H 	H 	0.37250 0.12840 0.04440 0.08100
H 	H 	0.85560 0.98450 0.46970 0.03700
H 	H 	0.47950 0.39210 0.12730 0.13000
H 	H 	0.38700 0.90560 0.41830 0.12600
H 	H 	0.63650 0.99400 0.88000 -0.00500
H 	H 	0.63840 0.25840 0.17360 0.03700
H 	H 	0.24150 0.86650 0.32990 0.03600
H 	H 	0.51900 0.64370 0.06550 -0.08800
H 	H 	0.15990 0.86580 0.40890 0.07100
H 	H 	0.41930 0.58070 0.50000 0.06000
H 	H 	0.57440 0.15140 0.95930 0.05700
H 	H 	0.09200 0.63690 0.33700 0.07100
H 	H 	0.84010 0.59110 0.13420 0.07100
H 	H 	0.31590 0.52950 0.53310 0.07200
H 	H 	0.50760 0.57480 0.84400 -0.08000
H 	H 	0.60790 0.52050 0.87270 0.13000
H 	H 	0.02140 0.05360 0.31610 -0.05200
H 	H 	0.76240 0.38690 0.47040 -0.00800
H 	H 	0.52050 0.87270 0.60790 0.13000
H 	H 	0.15140 0.95930 0.57440 0.05700
H 	H 	0.64370 0.06550 0.51900 -0.08800
H 	H 	0.68390 0.94640 0.97860 -0.05200
H 	H 	0.39210 0.12730 0.47950 0.13000
H 	H 	0.14440 0.53030 0.01550 0.03700
H 	H 	0.84400 0.50760 0.57480 -0.08000
H 	H 	0.92360 0.54520 0.35100 0.05100
H 	H 	0.48100 0.93450 0.35630 -0.08800
H 	H 	0.23760 0.52960 0.61310 -0.00800
H 	H 	0.54520 0.35100 0.92360 0.05100
H 	H 	0.67010 0.13350 0.75850 0.03600
H 	H 	0.07640 0.64900 0.45480 0.05100
H 	H 	0.91640 0.24590 0.59690 0.49100
H 	H 	0.06100 0.43760 0.25490 0.05600
H 	H 	0.33700 0.09200 0.63690 0.07100
H 	H 	0.42270 0.90850 0.88860 0.06500
H 	H 	0.04070 0.84860 0.42560 0.05700
H 	H 	0.74510 0.56240 0.93900 0.05600
H 	H 	0.05360 0.31610 0.02140 -0.05200
H 	H 	0.61310 0.23760 0.52960 -0.00800
H 	H 	0.41860 0.93960 0.88950 -0.01700
H 	H 	0.12730 0.47950 0.39210 0.13000
H 	H 	0.25840 0.17360 0.63840 0.03700
H 	H 	0.90560 0.41830 0.38700 0.12600
H 	H 	0.11500 0.56660 0.00890 -0.04700
H 	H 	0.95930 0.57440 0.15140 0.05700
H 	H 	0.57480 0.84400 0.50760 -0.08000
H 	H 	0.42560 0.04070 0.84860 0.05700
H 	H 	0.36350 0.12000 0.00600 -0.00500
H 	H 	0.87160 0.62750 0.95560 0.08100
H 	H 	0.75410 0.08360 0.40310 0.49100
H 	H 	0.46690 0.47050 0.68410 0.07200
H 	H 	0.58140 0.11050 0.06040 -0.01700
H 	H 	0.52960 0.61310 0.23760 -0.00800
H 	H 	0.66300 0.36310 0.90800 0.07100
H 	H 	0.01550 0.14440 0.53030 0.03700
H 	H 	0.47040 0.76240 0.38690 -0.00800
H 	H 	0.06550 0.51900 0.64370 -0.08800
H 	H 	0.01720 0.08740 0.34650 0.03700
H 	H 	0.87270 0.60790 0.52050 0.13000
H 	H 	0.12840 0.04440 0.37250 0.08100
H 	H 	0.42520 0.49240 0.15600 -0.08000
H 	H 	0.64900 0.45480 0.07640 0.05100
H 	H 	0.36160 0.82640 0.74160 0.03700
H 	H 	0.49240 0.15600 0.42520 -0.08000
H 	H 	0.11050 0.06040 0.58140 -0.01700
H 	H 	0.88860 0.42270 0.90850 0.06500
H 	H 	0.93900 0.74510 0.56240 0.05600
H 	H 	0.31610 0.02140 0.05360 -0.05200
H 	H 	0.36310 0.90800 0.66300 0.07100
H 	H 	0.43340 0.88500 0.99110 -0.04700
H 	H 	0.35100 0.92360 0.54520 0.05100
H 	H 	0.17360 0.63840 0.25840 0.03700
H 	H 	0.93960 0.88950 0.41860 -0.01700
H 	H 	0.91260 0.98280 0.65350 0.03700
H 	H 	0.90800 0.66300 0.36310 0.07100
H 	H 	0.93450 0.35630 0.48100 -0.08800
H 	H 	0.86580 0.40890 0.15990 0.07100
H 	H 	0.50000 0.41930 0.58070 0.06000
H 	H 	0.38690 0.47040 0.76240 -0.00800
H 	H 	0.53030 0.01550 0.14440 0.03700
H 	H 	0.13420 0.84010 0.59110 0.07100
H 	H 	0.97860 0.68390 0.94640 -0.05200
H 	H 	0.06040 0.58140 0.11050 -0.01700
H 	H 	0.94640 0.97860 0.68390 -0.05200
H 	H 	0.57730 0.11140 0.09150 0.06500
H 	H 	0.11140 0.09150 0.57730 0.06500
H 	H 	0.98450 0.46970 0.85560 0.03700
H 	H 	0.88950 0.41860 0.93960 -0.01700
C 	C 	0.11806 0.75050 0.38202 0.04900
C 	C 	0.63100 0.93800 0.96010 0.24600
C 	C 	0.30404 0.50000 0.69596 -0.20000
C 	C 	0.96010 0.63100 0.93800 0.24600
C 	C 	0.28912 0.17103 0.68438 0.03500
C 	C 	0.54810 0.50000 0.45190 -0.08600
C 	C 	0.44350 0.94090 0.14530 0.66700
C 	C 	0.38598 0.49533 0.04865 -0.51100
C 	C 	0.31115 0.94703 0.53471 -0.06500
C 	C 	0.68661 0.51349 0.00506 -0.03200
C 	C 	0.05580 0.41090 0.10320 -0.14200
C 	C 	0.78872 0.66837 0.18016 0.03900
C 	C 	0.19176 0.96756 0.55122 -0.08000
C 	C 	0.42248 0.46976 0.10495 0.33000
C 	C 	0.66382 0.31636 0.87748 -0.10500
C 	C 	0.45564 0.41066 0.08799 -0.29300
C 	C 	0.52995 0.97176 0.74644 -0.06000
C 	C 	0.05297 0.68885 0.46529 -0.06500
C 	C 	0.62738 0.28436 0.51746 0.05800
C 	C 	0.68364 0.33618 0.12252 -0.10500
C 	C 	0.05910 0.55650 0.85470 0.66700
C 	C 	0.42021 0.48246 0.66933 -0.12800
C 	C 	0.28436 0.51746 0.62738 0.05800
C 	C 	0.68438 0.28912 0.17103 0.03500
C 	C 	0.58934 0.54436 0.91201 -0.29300
C 	C 	0.46976 0.10495 0.42248 0.33000
C 	C 	0.41090 0.10320 0.05580 -0.14200
C 	C 	0.45375 0.37846 0.01294 0.18100
C 	C 	0.55650 0.85470 0.05910 0.66700
C 	C 	0.50000 0.54820 0.45180 0.02700
C 	C 	0.39750 0.09830 0.03390 -0.00400
C 	C 	0.64850 0.93810 0.44120 0.92500
C 	C 	0.35150 0.55880 0.06190 0.92500
C 	C 	0.46660 0.93210 0.90870 0.01800
C 	C 	0.89980 0.96900 0.47340 0.14200
C 	C 	0.60250 0.96610 0.90170 -0.00400
C 	C 	0.33163 0.21128 0.81984 0.03900
C 	C 	0.55880 0.06190 0.35150 0.92500
C 	C 	0.75338 0.23662 0.26835 0.38000
C 	C 	0.74644 0.52995 0.97176 -0.06000
C 	C 	0.14530 0.44350 0.94090 0.66700
C 	C 	0.00640 0.10820 0.45410 0.05500
C 	C 	0.03390 0.39750 0.09830 -0.00400
C 	C 	0.52660 0.03100 0.10020 0.14200
C 	C 	0.09450 0.08470 0.52450 -0.11000
C 	C 	0.57752 0.89505 0.53024 0.33000
C 	C 	0.03100 0.10020 0.52660 0.14200
C 	C 	0.93340 0.56735 0.25131 0.01500
C 	C 	0.75050 0.38202 0.11806 0.04900
C 	C 	0.31636 0.87748 0.66382 -0.10500
C 	C 	0.91530 0.90550 0.47550 -0.11000
C 	C 	0.74728 0.25272 0.50000 0.31900
C 	C 	0.91550 0.96160 0.60400 -0.14500
C 	C 	0.10340 0.41840 0.00790 -0.12800
C 	C 	0.06190 0.35150 0.55880 0.92500
C 	C 	0.47728 0.12759 0.04519 0.07800
C 	C 	0.39600 0.03840 0.08450 -0.14500
C 	C 	0.46372 0.97356 0.38270 0.30600
C 	C 	0.94420 0.13370 0.39000 0.19900
C 	C 	0.36900 0.03990 0.06200 0.24600
C 	C 	0.78394 0.71266 0.24652 -0.11800
C 	C 	0.03620 0.11520 0.49620 -0.16200
C 	C 	0.59990 0.40010 0.50000 0.05900
C 	C 	0.74869 0.43265 0.06660 0.01500
C 	C 	0.90170 0.60250 0.96610 -0.00400
C 	C 	0.53628 0.61730 0.02644 0.30600
C 	C 	0.41822 0.40676 0.95642 -0.28400
C 	C 	0.41066 0.08799 0.45564 -0.29300
C 	C 	0.21128 0.81984 0.33163 0.03900
C 	C 	0.02824 0.47005 0.25356 -0.06000
C 	C 	0.25131 0.93340 0.56735 0.01500
C 	C 	0.68885 0.46529 0.05297 -0.06500
C 	C 	0.93800 0.96010 0.63100 0.24600
C 	C 	0.65250 0.92820 0.44380 0.23900
C 	C 	0.50000 0.69596 0.30404 -0.20000
C 	C 	0.45190 0.54810 0.50000 -0.08600
C 	C 	0.51754 0.57979 0.33067 -0.12800
C 	C 	0.00506 0.68661 0.51349 -0.03200
C 	C 	0.52450 0.09450 0.08470 -0.11000
C 	C 	0.62154 0.54625 0.98706 0.18100
C 	C 	0.31339 0.99494 0.48651 -0.03200
C 	C 	0.61402 0.95135 0.50467 -0.51100
C 	C 	0.40010 0.50000 0.59990 0.05900
C 	C 	0.93810 0.44120 0.64850 0.92500
C 	C 	0.56735 0.25131 0.93340 0.01500
C 	C 	0.96756 0.55122 0.19176 -0.08000
C 	C 	0.10020 0.52660 0.03100 0.14200
C 	C 	0.71266 0.24652 0.78394 -0.11800
C 	C 	0.47550 0.91530 0.90550 -0.11000
C 	C 	0.07180 0.34750 0.55620 0.23900
C 	C 	0.24652 0.78394 0.71266 -0.11800
C 	C 	0.44380 0.65250 0.92820 0.23900
C 	C 	0.66933 0.42021 0.48246 -0.12800
C 	C 	0.99210 0.58160 0.89660 -0.12800
C 	C 	0.37893 0.16273 0.81956 -0.10600
C 	C 	0.08470 0.52450 0.09450 -0.11000
C 	C 	0.24950 0.88194 0.61798 0.04900
C 	C 	0.12759 0.04519 0.47728 0.07800
C 	C 	0.94420 0.89680 0.58910 -0.14200
C 	C 	0.95642 0.41822 0.40676 -0.28400
C 	C 	0.82897 0.71088 0.31562 0.03500
C 	C 	0.48246 0.66933 0.42021 -0.12800
C 	C 	0.89660 0.99210 0.58160 -0.12800
C 	C 	0.90550 0.47550 0.91530 -0.11000
C 	C 	0.46529 0.05297 0.68885 -0.06500
C 	C 	0.58910 0.94420 0.89680 -0.14200
C 	C 	0.58178 0.04358 0.59324 -0.28400
C 	C 	0.49620 0.03620 0.11520 -0.16200
C 	C 	0.90870 0.46660 0.93210 0.01800
C 	C 	0.51349 0.00506 0.68661 -0.03200
C 	C 	0.75348 0.28734 0.21606 -0.11800
C 	C 	0.44878 0.03244 0.80824 -0.08000
C 	C 	0.87241 0.52272 0.95481 0.07800
C 	C 	0.08450 0.39600 0.03840 -0.14500
C 	C 	0.80824 0.44878 0.03244 -0.08000
C 	C 	0.94090 0.14530 0.44350 0.66700
C 	C 	0.01294 0.45375 0.37846 0.18100
C 	C 	0.53340 0.09130 0.06790 0.01800
C 	C 	0.13370 0.39000 0.94420 0.19900
C 	C 	0.09130 0.06790 0.53340 0.01800
C 	C 	0.50380 0.88480 0.96380 -0.16200
C 	C 	0.94703 0.53471 0.31115 -0.06500
C 	C 	0.88194 0.61798 0.24950 0.04900
C 	C 	0.06660 0.74869 0.43265 0.01500
C 	C 	0.41840 0.00790 0.10340 -0.12800
C 	C 	0.08799 0.45564 0.41066 -0.29300
C 	C 	0.98706 0.62154 0.54625 0.18100
C 	C 	0.54820 0.45180 0.50000 0.02700
C 	C 	0.33618 0.12252 0.68364 -0.10500
C 	C 	0.55620 0.07180 0.34750 0.23900
C 	C 	0.89180 0.99360 0.54590 0.05500
C 	C 	0.61798 0.24950 0.88194 0.04900
C 	C 	0.18044 0.83727 0.62107 -0.10600
C 	C 	0.89680 0.58910 0.94420 -0.14200
C 	C 	0.01376 0.50103 0.19179 0.00100
C 	C 	0.44120 0.64850 0.93810 0.92500
C 	C 	0.54625 0.98706 0.62154 0.18100
C 	C 	0.45410 0.00640 0.10820 0.05500
C 	C 	0.03244 0.80824 0.44878 -0.08000
C 	C 	0.09830 0.03390 0.39750 -0.00400
C 	C 	0.10495 0.42248 0.46976 0.33000
C 	C 	0.43265 0.06660 0.74869 0.01500
C 	C 	0.45180 0.50000 0.54820 0.02700
C 	C 	0.54590 0.89180 0.99360 0.05500
C 	C 	0.97176 0.74644 0.52995 -0.06000
C 	C 	0.71088 0.31562 0.82897 0.03500
C 	C 	0.16273 0.81956 0.37893 -0.10600
C 	C 	0.10820 0.45410 0.00640 0.05500
C 	C 	0.05580 0.61000 0.86630 0.19900
C 	C 	0.04865 0.38598 0.49533 -0.51100
C 	C 	0.50103 0.19179 0.01376 0.00100
C 	C 	0.25272 0.50000 0.74728 0.31900
C 	C 	0.69596 0.30404 0.50000 -0.20000
C 	C 	0.26835 0.75338 0.23662 0.38000
C 	C 	0.89505 0.53024 0.57752 0.33000
C 	C 	0.17103 0.68438 0.28912 0.03500
C 	C 	0.28734 0.21606 0.75348 -0.11800
C 	C 	0.51746 0.62738 0.28436 0.05800
C 	C 	0.37262 0.48254 0.71564 0.05800
C 	C 	0.52272 0.95481 0.87241 0.07800
C 	C 	0.38202 0.11806 0.75050 0.04900
C 	C 	0.95481 0.87241 0.52272 0.07800
C 	C 	0.40676 0.95642 0.41822 -0.28400
C 	C 	0.83727 0.62107 0.18044 -0.10600
C 	C 	0.88480 0.96380 0.50380 -0.16200
C 	C 	0.47340 0.89980 0.96900 0.14200
C 	C 	0.47005 0.25356 0.02824 -0.06000
C 	C 	0.55122 0.19176 0.96756 -0.08000
C 	C 	0.50000 0.59990 0.40010 0.05900
C 	C 	0.61000 0.86630 0.05580 0.19900
C 	C 	0.60400 0.91550 0.96160 -0.14500
C 	C 	0.00790 0.10340 0.41840 -0.12800
C 	C 	0.92820 0.44380 0.65250 0.23900
C 	C 	0.50000 0.45190 0.54810 -0.08600
C 	C 	0.98624 0.80821 0.49897 0.00100
C 	C 	0.99494 0.48651 0.31339 -0.03200
C 	C 	0.97356 0.38270 0.46372 0.30600
C 	C 	0.54436 0.91201 0.58934 -0.29300
C 	C 	0.96610 0.90170 0.60250 -0.00400
C 	C 	0.39000 0.94420 0.13370 0.19900
C 	C 	0.81984 0.33163 0.21128 0.03900
C 	C 	0.53024 0.57752 0.89505 0.33000
C 	C 	0.34750 0.55620 0.07180 0.23900
C 	C 	0.66837 0.18016 0.78872 0.03900
C 	C 	0.03990 0.06200 0.36900 0.24600
C 	C 	0.95135 0.50467 0.61402 -0.51100
C 	C 	0.96160 0.60400 0.91550 -0.14500
C 	C 	0.06790 0.53340 0.09130 0.01800
C 	C 	0.04519 0.47728 0.12759 0.07800
C 	C 	0.81956 0.37893 0.16273 -0.10600
C 	C 	0.31562 0.82897 0.71088 0.03500
C 	C 	0.50467 0.61402 0.95135 -0.51100
C 	C 	0.19179 0.01376 0.50103 0.00100
C 	C 	0.57979 0.33067 0.51754 -0.12800
C 	C 	0.50000 0.74728 0.25272 0.31900
C 	C 	0.49897 0.98624 0.80821 0.00100
C 	C 	0.37846 0.01294 0.45375 0.18100
C 	C 	0.03840 0.08450 0.39600 -0.14500
C 	C 	0.21606 0.75348 0.28734 -0.11800
C 	C 	0.93210 0.90870 0.46660 0.01800
C 	C 	0.73165 0.76338 0.24662 0.38000
C 	C 	0.48651 0.31339 0.99494 -0.03200
C 	C 	0.12252 0.68364 0.33618 -0.10500
C 	C 	0.80821 0.49897 0.98624 0.00100
C 	C 	0.59324 0.58178 0.04358 -0.28400
C 	C 	0.61730 0.02644 0.53628 0.30600
C 	C 	0.38270 0.46372 0.97356 0.30600
C 	C 	0.25356 0.02824 0.47005 -0.06000
C 	C 	0.23662 0.26835 0.75338 0.38000
C 	C 	0.24662 0.73165 0.76338 0.38000
C 	C 	0.02644 0.53628 0.61730 0.30600
C 	C 	0.91201 0.58934 0.54436 -0.29300
C 	C 	0.85470 0.05910 0.55650 0.66700
C 	C 	0.53471 0.31115 0.94703 -0.06500
C 	C 	0.99360 0.54590 0.89180 0.05500
C 	C 	0.87748 0.66382 0.31636 -0.10500
C 	C 	0.96900 0.47340 0.89980 0.14200
C 	C 	0.10320 0.05580 0.41090 -0.14200
C 	C 	0.58160 0.89660 0.99210 -0.12800
C 	C 	0.76338 0.24662 0.73165 0.38000
C 	C 	0.18016 0.78872 0.66837 0.03900
C 	C 	0.33067 0.51754 0.57979 -0.12800
C 	C 	0.04358 0.59324 0.58178 -0.28400
C 	C 	0.96380 0.50380 0.88480 -0.16200
C 	C 	0.11520 0.49620 0.03620 -0.16200
C 	C 	0.48254 0.71564 0.37262 0.05800
C 	C 	0.71564 0.37262 0.48254 0.05800
C 	C 	0.06200 0.36900 0.03990 0.24600
C 	C 	0.86630 0.05580 0.61000 0.19900
C 	C 	0.62107 0.18044 0.83727 -0.10600
C 	C 	0.49533 0.04865 0.38598 -0.51100
O 	O 	0.14990 0.48520 0.90210 -0.34200
O 	O 	0.75634 0.09811 0.36919 -0.99200
O 	O 	0.70810 0.96830 0.43060 -0.25900
O 	O 	0.18570 0.43650 0.93000 -0.58500
O 	O 	0.07000 0.56350 0.81430 -0.58600
O 	O 	0.85010 0.09790 0.51480 -0.34200
O 	O 	0.42070 0.65650 0.87740 -2.47800
O 	O 	0.85660 0.39860 0.62920 1.79800
O 	O 	0.09811 0.36919 0.75634 -0.99200
O 	O 	0.18385 0.68973 0.76049 -0.45400
O 	O 	0.73292 0.80444 0.30908 -0.48700
O 	O 	0.99350 0.41440 0.67000 -0.44000
O 	O 	0.93000 0.18570 0.43650 -0.58500
O 	O 	0.90210 0.14990 0.48520 -0.34200
O 	O 	0.58560 0.00650 0.33000 -0.44000
O 	O 	0.19556 0.26708 0.69092 -0.48700
O 	O 	0.09109 0.67704 0.88910 -0.17100
O 	O 	0.46958 0.80070 0.26665 -0.51500
O 	O 	0.24366 0.63081 0.90189 -0.99200
O 	O 	0.29190 0.56940 0.03170 -0.25900
O 	O 	0.26708 0.69092 0.19556 -0.48700
O 	O 	0.43650 0.93000 0.18570 -0.58500
O 	O 	0.83920 0.07330 0.62200 -0.26500
O 	O 	0.41440 0.67000 0.99350 -0.44000
O 	O 	0.36919 0.75634 0.09811 -0.99200
O 	O 	0.26665 0.46958 0.80070 -0.51500
O 	O 	0.69092 0.19556 0.26708 -0.48700
O 	O 	0.53042 0.73335 0.19930 -0.51500
O 	O 	0.00650 0.33000 0.58560 -0.44000
O 	O 	0.63081 0.90189 0.24366 -0.99200
O 	O 	0.56940 0.03170 0.29190 -0.25900
O 	O 	0.43060 0.70810 0.96830 -0.25900
O 	O 	0.03170 0.29190 0.56940 -0.25900
O 	O 	0.80070 0.26665 0.46958 -0.51500
O 	O 	0.81615 0.23951 0.31027 -0.45400
O 	O 	0.39860 0.62920 0.85660 1.79800
O 	O 	0.48520 0.90210 0.14990 -0.34200
O 	O 	0.23951 0.31027 0.81615 -0.45400
O 	O 	0.88910 0.09109 0.67704 -0.17100
O 	O 	0.76049 0.18385 0.68973 -0.45400
O 	O 	0.67000 0.99350 0.41440 -0.44000
O 	O 	0.33000 0.58560 0.00650 -0.44000
O 	O 	0.37080 0.60140 0.14340 1.79800
O 	O 	0.16080 0.37800 0.92670 -0.26500
O 	O 	0.92670 0.16080 0.37800 -0.26500
O 	O 	0.14340 0.37080 0.60140 1.79800
O 	O 	0.90189 0.24366 0.63081 -0.99200
O 	O 	0.68973 0.76049 0.18385 -0.45400
O 	O 	0.37800 0.92670 0.16080 -0.26500
O 	O 	0.51480 0.85010 0.09790 -0.34200
O 	O 	0.32296 0.90891 0.11090 -0.17100
O 	O 	0.65650 0.87740 0.42070 -2.47800
O 	O 	0.19930 0.53042 0.73335 -0.51500
O 	O 	0.73335 0.19930 0.53042 -0.51500
O 	O 	0.30908 0.73292 0.80444 -0.48700
O 	O 	0.31027 0.81615 0.23951 -0.45400
O 	O 	0.80444 0.30908 0.73292 -0.48700
O 	O 	0.60140 0.14340 0.37080 1.79800
O 	O 	0.62920 0.85660 0.39860 1.79800
O 	O 	0.12260 0.34350 0.57930 -2.47800
O 	O 	0.62200 0.83920 0.07330 -0.26500
O 	O 	0.34350 0.57930 0.12260 -2.47800
O 	O 	0.57930 0.12260 0.34350 -2.47800
O 	O 	0.11090 0.32296 0.90891 -0.17100
O 	O 	0.07330 0.62200 0.83920 -0.26500
O 	O 	0.87740 0.42070 0.65650 -2.47800
O 	O 	0.90891 0.11090 0.32296 -0.17100
O 	O 	0.09790 0.51480 0.85010 -0.34200
O 	O 	0.56350 0.81430 0.07000 -0.58500
O 	O 	0.81430 0.07000 0.56350 -0.58500
O 	O 	0.67704 0.88910 0.09109 -0.17100
O 	O 	0.96830 0.43060 0.70810 -0.25900
