data_crystal

_cell_length_a 16.30800
_cell_length_b 16.56050
_cell_length_c 21.14910
_cell_angle_alpha 79.05700
_cell_angle_beta  67.32230
_cell_angle_gamma 60.50310

_symmetry_space_group_name_	'P 1'
_symmetry_space_group_name_H-M	'P 1'

loop_
_symmetry_equiv_pos_as_xyz
  x,y,z

loop_
_atom_site_label
_atom_site_type_symbol
_atom_site_fract_x
_atom_site_fract_y
_atom_site_fract_z
_atom_site_charge
Eu	Eu	0.99419 0.88196 0.19547 1.90000
Eu	Eu	0.00581 0.11804 0.80453 1.90000
Eu	Eu	0.57161 0.61805 0.30454 1.92400
Eu	Eu	0.37616 0.11804 0.69546 1.92200
Eu	Eu	0.31033 0.61805 0.19547 1.92400
Eu	Eu	0.62384 0.88196 0.30454 1.92200
Eu	Eu	0.68967 0.38195 0.80453 1.92400
Eu	Eu	0.42839 0.38195 0.69546 1.92400
H 	H 	0.49030 0.01580 0.10940 0.05400
H 	H 	0.10510 0.28980 0.75000 -0.02900
H 	H 	0.63840 0.99060 0.90720 0.05500
H 	H 	0.90590 0.95400 0.38320 0.02300
H 	H 	0.21090 0.54600 0.38320 0.02200
H 	H 	0.86240 0.53160 0.74740 0.01500
H 	H 	0.25690 0.45400 0.88320 0.02200
H 	H 	0.42150 0.50800 0.45620 0.01800
H 	H 	0.87100 0.99060 0.59280 0.06100
H 	H 	0.00610 0.98420 0.60940 0.05300
H 	H 	0.85910 0.43620 0.93000 0.03400
H 	H 	0.96380 0.49060 0.40720 0.05700
H 	H 	0.35990 0.04600 0.88320 0.02600
H 	H 	0.72530 0.06380 0.57000 0.03700
H 	H 	0.11550 0.48420 0.39060 0.05500
H 	H 	0.13760 0.46840 0.25260 0.01500
H 	H 	0.88570 0.99200 0.04380 0.02100
H 	H 	0.89020 0.96840 0.74740 -0.00100
H 	H 	0.04560 0.49060 0.09280 0.05400
H 	H 	0.78910 0.45400 0.61680 0.02200
H 	H 	0.10600 0.53160 0.75260 0.01500
H 	H 	0.50970 0.98420 0.89060 0.05500
H 	H 	0.35860 0.03160 0.24740 0.00400
H 	H 	0.03620 0.50940 0.59280 0.05700
H 	H 	0.42950 0.49200 0.95620 0.01800
H 	H 	0.27470 0.93620 0.43000 0.03700
H 	H 	0.74310 0.54600 0.11680 0.02200
H 	H 	0.37770 0.00800 0.54380 0.02100
H 	H 	0.64490 0.21020 0.75000 -0.03500
H 	H 	0.09410 0.04600 0.61680 0.02300
H 	H 	0.28910 0.93620 0.07000 0.03700
H 	H 	0.35510 0.78980 0.25000 -0.03500
H 	H 	0.62230 0.99200 0.45620 0.02100
H 	H 	0.79530 0.56380 0.43000 0.03400
H 	H 	0.57050 0.50800 0.04380 0.01800
H 	H 	0.09970 0.51580 0.89060 0.05700
H 	H 	0.12900 0.00940 0.40720 0.06100
H 	H 	0.11430 0.00800 0.95620 0.02100
H 	H 	0.71090 0.06380 0.93000 0.03700
H 	H 	0.99390 0.01580 0.39060 0.05300
H 	H 	0.64140 0.96840 0.75260 0.00400
H 	H 	0.36160 0.00940 0.09280 0.05500
H 	H 	0.10980 0.03160 0.25260 -0.00100
H 	H 	0.89400 0.46840 0.24740 0.01500
H 	H 	0.20470 0.43620 0.57000 0.03400
H 	H 	0.90030 0.48420 0.10940 0.05700
H 	H 	0.14090 0.56380 0.07000 0.03400
H 	H 	0.88450 0.51580 0.60940 0.05500
H 	H 	0.95440 0.50940 0.90720 0.05400
H 	H 	0.57850 0.49200 0.54380 0.01800
H 	H 	0.64010 0.95400 0.11680 0.02600
H 	H 	0.89490 0.71020 0.25000 -0.02800
C 	C 	0.49463 0.00968 0.06526 -0.05800
C 	C 	0.08039 0.64802 0.25104 0.49700
C 	C 	0.78501 0.92946 0.34432 0.53000
C 	C 	0.35546 0.46888 0.90906 -0.19500
C 	C 	0.44121 0.42946 0.84432 0.53300
C 	C 	0.02446 0.45108 0.25000 -0.05000
C 	C 	0.07287 0.35426 0.75000 0.12100
C 	C 	0.92390 0.65220 0.75000 0.01700
C 	C 	0.73649 0.03870 0.52992 -0.00200
C 	C 	0.19000 0.20140 0.28660 -0.01800
C 	C 	0.06957 0.49032 0.43474 -0.05900
C 	C 	0.50537 0.99032 0.93474 -0.05800
C 	C 	0.02340 0.29860 0.28660 -0.01400
C 	C 	0.97777 0.49466 0.44480 -0.06100
C 	C 	0.22554 0.04892 0.25000 -0.08000
C 	C 	0.14180 0.29720 0.28660 -0.01100
C 	C 	0.67566 0.46888 0.59094 -0.19500
C 	C 	0.17586 0.99944 0.25152 0.08100
C 	C 	0.94011 0.49032 0.06526 -0.06600
C 	C 	0.77618 0.09726 0.74864 -0.21400
C 	C 	0.80806 0.03380 0.97868 -0.10100
C 	C 	0.77440 0.79720 0.78660 -0.01500
C 	C 	0.07160 0.20280 0.28660 -0.01600
C 	C 	0.99569 0.00968 0.43474 -0.04600
C 	C 	0.82915 0.99740 0.03856 0.05700
C 	C 	0.12387 0.93456 0.07750 0.32000
C 	C 	0.29863 0.56544 0.07750 0.32400
C 	C 	0.23359 0.46130 0.52992 0.00400
C 	C 	0.47945 0.85198 0.24896 0.50500
C 	C 	0.22382 0.90274 0.25136 -0.21400
C 	C 	0.84411 0.97342 0.41826 0.02900
C 	C 	0.55879 0.57054 0.15568 0.53300
C 	C 	0.63593 0.56544 0.42250 0.32500
C 	C 	0.72481 0.03870 0.97008 -0.00500
C 	C 	0.68247 0.97342 0.08174 0.02800
C 	C 	0.62656 0.09726 0.75136 -0.21300
C 	C 	0.76452 0.96888 0.09094 -0.18700
C 	C 	0.26421 0.47342 0.91826 0.04100
C 	C 	0.87613 0.06544 0.92250 0.32000
C 	C 	0.07743 0.00534 0.44480 -0.08100
C 	C 	0.97554 0.54892 0.75000 -0.05000
C 	C 	0.89140 0.79860 0.78660 -0.01800
C 	C 	0.91675 0.00482 0.49008 0.04000
C 	C 	0.23340 0.03112 0.59094 -0.19000
C 	C 	0.32470 0.99944 0.24848 0.07400
C 	C 	0.23763 0.52658 0.41826 0.04100
C 	C 	0.12208 0.40274 0.75136 -0.19600
C 	C 	0.67946 0.53380 0.47868 -0.11700
C 	C 	0.66247 0.00662 0.02064 -0.03300
C 	C 	0.82200 0.70140 0.78660 -0.01300
C 	C 	0.87792 0.59726 0.24864 -0.19600
C 	C 	0.91165 0.49518 0.00992 0.03000
C 	C 	0.76660 0.96888 0.40906 -0.19000
C 	C 	0.78553 0.92946 0.15568 0.52800
C 	C 	0.92682 0.50056 0.24848 0.04500
C 	C 	0.70137 0.43456 0.92250 0.32400
C 	C 	0.67345 0.99740 0.46144 0.06700
C 	C 	0.57843 0.00482 0.00992 0.03200
C 	C 	0.06100 0.29720 0.21340 -0.01100
C 	C 	0.37067 0.57054 0.34432 0.53300
C 	C 	0.05989 0.50968 0.93474 -0.06600
C 	C 	0.07318 0.49944 0.75152 0.04500
C 	C 	0.33753 0.99338 0.97936 -0.03300
C 	C 	0.83143 0.14802 0.74896 0.50500
C 	C 	0.10860 0.20140 0.21340 -0.01800
C 	C 	0.31753 0.02658 0.91826 0.02800
C 	C 	0.58277 0.99466 0.94480 -0.06100
C 	C 	0.65814 0.03380 0.52132 -0.10900
C 	C 	0.09317 0.49518 0.49008 0.03500
C 	C 	0.97518 0.40274 0.74864 -0.19100
C 	C 	0.08325 0.99518 0.50992 0.04000
C 	C 	0.36407 0.43456 0.57750 0.32500
C 	C 	0.32054 0.46620 0.52132 -0.11700
C 	C 	0.26351 0.96130 0.47008 -0.00200
C 	C 	0.92840 0.79720 0.71340 -0.01600
C 	C 	0.55843 0.06544 0.57750 0.32300
C 	C 	0.18973 0.49338 0.47936 -0.04200
C 	C 	0.32655 0.00260 0.53856 0.06700
C 	C 	0.23548 0.03112 0.90906 -0.18700
C 	C 	0.77159 0.64802 0.24896 0.49900
C 	C 	0.37344 0.90274 0.24864 -0.21300
C 	C 	0.73579 0.52658 0.08174 0.04100
C 	C 	0.81689 0.49338 0.02064 -0.04500
C 	C 	0.52055 0.14802 0.75104 0.50500
C 	C 	0.97660 0.70140 0.71340 -0.01400
C 	C 	0.15589 0.02658 0.58174 0.02900
C 	C 	0.63489 0.49740 0.53856 0.07600
C 	C 	0.91961 0.35198 0.74896 0.49700
C 	C 	0.32434 0.53112 0.40906 -0.19500
C 	C 	0.93900 0.70280 0.78660 -0.01100
C 	C 	0.27519 0.96130 0.02992 -0.00500
C 	C 	0.93043 0.50968 0.56526 -0.05900
C 	C 	0.92713 0.64574 0.25000 0.12100
C 	C 	0.82414 0.00056 0.74848 0.08100
C 	C 	0.34186 0.96620 0.47868 -0.10900
C 	C 	0.08835 0.50482 0.99008 0.03000
C 	C 	0.92257 0.99466 0.55520 -0.08100
C 	C 	0.42157 0.99518 0.99008 0.03200
C 	C 	0.00431 0.99032 0.56526 -0.04600
C 	C 	0.02223 0.50534 0.55520 -0.06100
C 	C 	0.81027 0.50662 0.52064 -0.04200
C 	C 	0.07262 0.50056 0.25152 0.04600
C 	C 	0.32287 0.85426 0.25000 0.14300
C 	C 	0.19194 0.96620 0.02132 -0.10100
C 	C 	0.44157 0.93456 0.42250 0.32300
C 	C 	0.80511 0.46130 0.97008 0.00700
C 	C 	0.97243 0.50534 0.94480 -0.05000
C 	C 	0.85820 0.70280 0.71340 -0.01100
C 	C 	0.22560 0.20280 0.21340 -0.01500
C 	C 	0.77446 0.95108 0.75000 -0.08000
C 	C 	0.17800 0.29860 0.21340 -0.01300
C 	C 	0.71326 0.46620 0.97868 -0.11600
C 	C 	0.67530 0.00056 0.75152 0.07400
C 	C 	0.18311 0.50662 0.97936 -0.04500
C 	C 	0.17085 0.00260 0.96144 0.05700
C 	C 	0.36771 0.49740 0.96144 0.07300
C 	C 	0.22841 0.35198 0.75104 0.49900
C 	C 	0.76641 0.53870 0.47008 0.00400
C 	C 	0.07610 0.34780 0.25000 0.01700
C 	C 	0.16857 0.85198 0.25104 0.50500
C 	C 	0.41723 0.00534 0.05520 -0.06100
C 	C 	0.67713 0.14574 0.75000 0.14300
C 	C 	0.92738 0.49944 0.74848 0.04600
C 	C 	0.90683 0.50482 0.50992 0.03500
C 	C 	0.76237 0.47342 0.58174 0.04100
C 	C 	0.81000 0.79860 0.71340 -0.01800
C 	C 	0.16909 0.99338 0.52064 -0.03300
C 	C 	0.82610 0.84780 0.75000 0.03100
C 	C 	0.64454 0.53112 0.09094 -0.19500
C 	C 	0.21447 0.07054 0.84432 0.52800
C 	C 	0.02482 0.59726 0.25136 -0.19100
C 	C 	0.63229 0.50260 0.03856 0.07300
C 	C 	0.02757 0.49466 0.05520 -0.05000
C 	C 	0.17390 0.15220 0.25000 0.03100
C 	C 	0.62933 0.42946 0.65568 0.53300
C 	C 	0.19489 0.53870 0.02992 0.00700
C 	C 	0.21499 0.07054 0.65568 0.53000
C 	C 	0.36511 0.50260 0.46144 0.07600
C 	C 	0.83091 0.00662 0.47936 -0.03300
C 	C 	0.28674 0.53380 0.02132 -0.11600
O 	O 	0.83827 0.39766 0.73766 -0.49800
O 	O 	0.28679 0.07114 0.66310 -0.56900
O 	O 	0.57119 0.60264 0.19802 -0.53700
O 	O 	0.03360 0.96930 0.08342 -0.40900
O 	O 	0.47897 0.57114 0.16310 -0.56900
O 	O 	0.48549 0.23286 0.73892 -0.54500
O 	O 	0.21835 0.76714 0.23892 -0.54400
O 	O 	0.73593 0.60234 0.23766 -0.49900
O 	O 	0.96640 0.03070 0.91658 -0.40900
O 	O 	0.51451 0.76714 0.26108 -0.54500
O 	O 	0.53317 0.12586 0.61922 -0.44700
O 	O 	0.16173 0.60234 0.26234 -0.49800
O 	O 	0.61702 0.46930 0.91658 -0.41800
O 	O 	0.46683 0.87414 0.38078 -0.44700
O 	O 	0.50290 0.03070 0.58342 -0.41700
O 	O 	0.26921 0.10264 0.80198 -0.53600
O 	O 	0.42881 0.39736 0.80198 -0.53700
O 	O 	0.27559 0.26714 0.73892 -0.54300
O 	O 	0.07593 0.89766 0.26234 -0.49400
O 	O 	0.52641 0.89766 0.23766 -0.50000
O 	O 	0.49710 0.96930 0.41658 -0.41700
O 	O 	0.84097 0.12586 0.88078 -0.44300
O 	O 	0.47359 0.10234 0.76234 -0.50000
O 	O 	0.85793 0.92886 0.16310 -0.56800
O 	O 	0.32617 0.60264 0.30198 -0.53700
O 	O 	0.65239 0.62586 0.38078 -0.44800
O 	O 	0.38298 0.53070 0.08342 -0.41800
O 	O 	0.73079 0.89736 0.19802 -0.53600
O 	O 	0.72441 0.73286 0.26108 -0.54300
O 	O 	0.15903 0.87414 0.11922 -0.44300
O 	O 	0.77825 0.37414 0.88078 -0.44700
O 	O 	0.87185 0.89736 0.30198 -0.53600
O 	O 	0.34761 0.37414 0.61922 -0.44800
O 	O 	0.14207 0.07114 0.83690 -0.56800
O 	O 	0.41368 0.46930 0.58342 -0.41800
O 	O 	0.44989 0.57114 0.33690 -0.56900
O 	O 	0.67383 0.39736 0.69802 -0.53700
O 	O 	0.95727 0.26714 0.76108 -0.53600
O 	O 	0.52103 0.42886 0.83690 -0.56900
O 	O 	0.04273 0.73286 0.23892 -0.53600
O 	O 	0.78165 0.23286 0.76108 -0.54400
O 	O 	0.58632 0.53070 0.41658 -0.41800
O 	O 	0.12815 0.10264 0.69802 -0.53600
O 	O 	0.55011 0.42886 0.66310 -0.56900
O 	O 	0.71321 0.92886 0.33690 -0.56900
O 	O 	0.26407 0.39766 0.76234 -0.49900
O 	O 	0.92407 0.10234 0.73766 -0.49400
O 	O 	0.22175 0.62586 0.11922 -0.44700
