data_crystal

_cell_length_a 20.39490
_cell_length_b 20.39490
_cell_length_c 20.39490
_cell_angle_alpha 109.47100
_cell_angle_beta  109.47100
_cell_angle_gamma 109.47100

_symmetry_space_group_name_	'P 1'
_symmetry_space_group_name_H-M	'P 1'

loop_
_symmetry_equiv_pos_as_xyz
  x,y,z

loop_
_atom_site_label
_atom_site_type_symbol
_atom_site_fract_x
_atom_site_fract_y
_atom_site_fract_z
_atom_site_charge
Zn	Zn	0.47669 0.05619 0.94272 1.14400
Zn	Zn	0.93663 0.50000 0.43663 1.20100
Zn	Zn	0.46603 0.57950 0.52331 1.14400
Zn	Zn	0.94272 0.47669 0.05619 1.14400
Zn	Zn	0.53397 0.05728 0.11347 1.14400
Zn	Zn	0.05619 0.94272 0.47669 1.14400
Zn	Zn	0.52331 0.46603 0.57950 1.14300
Zn	Zn	0.57950 0.52331 0.46603 1.14300
Zn	Zn	0.06337 0.50000 0.56337 1.20000
Zn	Zn	0.05728 0.11347 0.53397 1.14300
Zn	Zn	0.94381 0.42050 0.88653 1.14300
Zn	Zn	0.56337 0.06337 0.50000 1.20000
Zn	Zn	0.88653 0.94381 0.42050 1.14300
Zn	Zn	0.50000 0.43663 0.93663 1.20000
Zn	Zn	0.11347 0.53397 0.05728 1.14300
Zn	Zn	0.50000 0.56337 0.06337 1.20000
Zn	Zn	0.43663 0.93663 0.50000 1.20000
Zn	Zn	0.42050 0.88653 0.94381 1.14300
H 	H 	0.31260 0.77250 0.23790 0.04100
H 	H 	0.76920 0.03410 0.29350 0.04000
H 	H 	0.23080 0.52430 0.26490 0.03900
H 	H 	0.68740 0.92530 0.45990 0.04100
H 	H 	0.51950 0.54740 0.79310 0.03600
H 	H 	0.26490 0.23080 0.52430 0.03900
H 	H 	0.03410 0.29350 0.76920 0.04000
H 	H 	0.29350 0.76920 0.03410 0.04000
H 	H 	0.76210 0.53460 0.07470 0.04100
H 	H 	0.46540 0.22750 0.54010 0.04100
H 	H 	0.70650 0.74060 0.47570 0.04000
H 	H 	0.22750 0.54010 0.46540 0.04100
H 	H 	0.54740 0.79310 0.51950 0.03600
H 	H 	0.27360 0.02790 0.48050 0.03600
H 	H 	0.73510 0.25940 0.96590 0.04000
H 	H 	0.48050 0.27360 0.02790 0.03600
H 	H 	0.72640 0.20690 0.75430 0.03600
H 	H 	0.20690 0.75430 0.72640 0.03600
H 	H 	0.47570 0.70650 0.74060 0.04000
H 	H 	0.52430 0.26490 0.23080 0.03900
H 	H 	0.92530 0.45990 0.68740 0.04100
H 	H 	0.74060 0.47570 0.70650 0.04000
H 	H 	0.54010 0.46540 0.22750 0.04100
H 	H 	0.96590 0.73510 0.25940 0.04000
H 	H 	0.25940 0.96590 0.73510 0.04000
H 	H 	0.97210 0.24570 0.45260 0.03600
H 	H 	0.45990 0.68740 0.92530 0.04100
H 	H 	0.53460 0.07470 0.76210 0.04100
H 	H 	0.79310 0.51950 0.54740 0.03600
H 	H 	0.24570 0.45260 0.97210 0.03600
H 	H 	0.07470 0.76210 0.53460 0.04100
H 	H 	0.23790 0.31260 0.77250 0.04100
H 	H 	0.77250 0.23790 0.31260 0.04100
H 	H 	0.45260 0.97210 0.24570 0.03600
H 	H 	0.02790 0.48050 0.27360 0.03600
H 	H 	0.75430 0.72640 0.20690 0.03600
C 	C 	0.79710 0.08980 0.31730 0.05800
C 	C 	0.37560 0.87470 0.13170 -0.13500
C 	C 	0.41240 0.91860 0.21680 0.06800
C 	C 	0.42690 0.92480 0.34650 0.40700
C 	C 	0.38800 0.88120 0.25540 -0.12900
C 	C 	0.86740 0.49320 0.61200 -0.12900
C 	C 	0.50680 0.37420 0.11880 -0.12900
C 	C 	0.12940 0.29180 0.75760 -0.11100
C 	C 	0.20150 0.52910 0.41280 0.05200
C 	C 	0.57830 0.08040 0.65350 0.40700
C 	C 	0.11880 0.50680 0.37420 -0.12900
C 	C 	0.44190 0.77230 0.85400 0.31800
C 	C 	0.08980 0.31730 0.79710 0.05800
C 	C 	0.09190 0.40610 0.91620 0.38100
C 	C 	0.49380 0.29820 0.08140 0.06800
C 	C 	0.62440 0.75610 0.49910 -0.13500
C 	C 	0.83760 0.46580 0.70820 -0.11100
C 	C 	0.41210 0.33040 0.55810 0.31800
C 	C 	0.51010 0.59390 0.68580 0.38100
C 	C 	0.58720 0.11630 0.78870 0.05200
C 	C 	0.50620 0.58760 0.80440 0.06800
C 	C 	0.66960 0.08170 0.22770 0.31800
C 	C 	0.19560 0.78320 0.70180 0.06800
C 	C 	0.62580 0.13260 0.74460 -0.12900
C 	C 	0.59390 0.68580 0.51010 0.38100
C 	C 	0.67240 0.88370 0.47090 0.05200
C 	C 	0.08040 0.65350 0.57830 0.40700
C 	C 	0.68270 0.77250 0.47980 0.05800
C 	C 	0.41280 0.20150 0.52910 0.05200
C 	C 	0.57310 0.91960 0.49790 0.40700
C 	C 	0.92480 0.34650 0.42690 0.40700
C 	C 	0.50210 0.42170 0.07520 0.40700
C 	C 	0.08380 0.48990 0.17570 0.38100
C 	C 	0.48990 0.17570 0.08380 0.38100
C 	C 	0.12530 0.50090 0.25700 -0.13500
C 	C 	0.49320 0.61200 0.86740 -0.12900
C 	C 	0.91960 0.49790 0.57310 0.40700
C 	C 	0.86830 0.74300 0.24390 -0.13500
C 	C 	0.70180 0.19560 0.78320 0.06800
C 	C 	0.22750 0.91020 0.70730 0.05800
C 	C 	0.08140 0.49380 0.29820 0.06800
C 	C 	0.13170 0.37560 0.87470 -0.13500
C 	C 	0.20290 0.52020 0.29270 0.05800
C 	C 	0.58760 0.80440 0.50620 0.06800
C 	C 	0.31420 0.90810 0.82430 0.38100
C 	C 	0.29270 0.20290 0.52020 0.05800
C 	C 	0.37420 0.11880 0.50680 -0.12900
C 	C 	0.21680 0.41240 0.91860 0.06800
C 	C 	0.33040 0.55810 0.41210 0.31800
C 	C 	0.42170 0.07520 0.50210 0.40700
C 	C 	0.91830 0.58790 0.14600 0.31800
C 	C 	0.85400 0.44190 0.77230 0.31800
C 	C 	0.34650 0.42690 0.92480 0.40700
C 	C 	0.53420 0.37180 0.24240 -0.11100
C 	C 	0.75760 0.12940 0.29180 -0.11100
C 	C 	0.07520 0.50210 0.42170 0.40700
C 	C 	0.87060 0.62820 0.16240 -0.11100
C 	C 	0.49790 0.57310 0.91960 0.40700
C 	C 	0.47090 0.67240 0.88370 0.05200
C 	C 	0.91620 0.09190 0.40610 0.38100
C 	C 	0.25540 0.38800 0.88120 -0.12900
C 	C 	0.77230 0.85400 0.44190 0.31800
C 	C 	0.82430 0.31420 0.90810 0.38100
C 	C 	0.77250 0.47980 0.68270 0.05800
C 	C 	0.40610 0.91620 0.09190 0.38100
C 	C 	0.91860 0.21680 0.41240 0.06800
C 	C 	0.29180 0.75760 0.12940 -0.11100
C 	C 	0.52910 0.41280 0.20150 0.05200
C 	C 	0.74460 0.62580 0.13260 -0.12900
C 	C 	0.78320 0.70180 0.19560 0.06800
C 	C 	0.11630 0.78870 0.58720 0.05200
C 	C 	0.65350 0.57830 0.08040 0.40700
C 	C 	0.21130 0.32760 0.79850 0.05200
C 	C 	0.68580 0.51010 0.59390 0.38100
C 	C 	0.74300 0.24390 0.86830 -0.13500
C 	C 	0.58790 0.14600 0.91830 0.31800
C 	C 	0.50090 0.25700 0.12530 -0.13500
C 	C 	0.91020 0.70730 0.22750 0.05800
C 	C 	0.25700 0.12530 0.50090 -0.13500
C 	C 	0.78870 0.58720 0.11630 0.05200
C 	C 	0.46580 0.70820 0.83760 -0.11100
C 	C 	0.32760 0.79850 0.21130 0.05200
C 	C 	0.22770 0.66960 0.08170 0.31800
C 	C 	0.24390 0.86830 0.74300 -0.13500
C 	C 	0.52020 0.29270 0.20290 0.05800
C 	C 	0.88120 0.25540 0.38800 -0.12900
C 	C 	0.49910 0.62440 0.75610 -0.13500
C 	C 	0.14600 0.91830 0.58790 0.31800
C 	C 	0.70820 0.83760 0.46580 -0.11100
C 	C 	0.29820 0.08140 0.49380 0.06800
C 	C 	0.13260 0.74460 0.62580 -0.12900
C 	C 	0.79850 0.21130 0.32760 0.05200
C 	C 	0.31730 0.79710 0.08980 0.05800
C 	C 	0.80440 0.50620 0.58760 0.06800
C 	C 	0.55810 0.41210 0.33040 0.31800
C 	C 	0.24240 0.53420 0.37180 -0.11100
C 	C 	0.47980 0.68270 0.77250 0.05800
C 	C 	0.16240 0.87060 0.62820 -0.11100
C 	C 	0.08170 0.22770 0.66960 0.31800
C 	C 	0.61200 0.86740 0.49320 -0.12900
C 	C 	0.75610 0.49910 0.62440 -0.13500
C 	C 	0.37180 0.24240 0.53420 -0.11100
C 	C 	0.70730 0.22750 0.91020 0.05800
C 	C 	0.87470 0.13170 0.37560 -0.13500
C 	C 	0.88370 0.47090 0.67240 0.05200
C 	C 	0.17570 0.08380 0.48990 0.38100
C 	C 	0.90810 0.82430 0.31420 0.38100
C 	C 	0.62820 0.16240 0.87060 -0.11100
O 	O 	0.98260 0.85500 0.36360 -0.50700
O 	O 	0.63460 0.00540 0.19220 -0.33400
O 	O 	0.02370 0.62090 0.51000 -0.47200
O 	O 	0.48420 0.99680 0.38260 -0.47800
O 	O 	0.81320 0.44240 0.80780 -0.33300
O 	O 	0.89840 0.51260 0.51580 -0.47800
O 	O 	0.67760 0.53590 0.54490 -0.50900
O 	O 	0.91260 0.43030 0.78970 -0.47000
O 	O 	0.51770 0.08740 0.87710 -0.47000
O 	O 	0.38100 0.87240 0.01740 -0.50700
O 	O 	0.11090 0.51370 0.49000 -0.47200
O 	O 	0.14170 0.00900 0.46410 -0.50900
O 	O 	0.55760 0.37080 0.36540 -0.33300
O 	O 	0.43030 0.78970 0.91260 -0.47000
O 	O 	0.85500 0.36360 0.98260 -0.50700
O 	O 	0.08740 0.87710 0.51770 -0.47000
O 	O 	0.38580 0.00320 0.48740 -0.47800
O 	O 	0.51260 0.51580 0.89840 -0.47800
O 	O 	0.14500 0.12760 0.50860 -0.50700
O 	O 	0.80780 0.81320 0.44240 -0.33300
O 	O 	0.49000 0.11090 0.51370 -0.47200
O 	O 	0.62920 0.18680 0.99460 -0.33300
O 	O 	0.13270 0.45510 0.99100 -0.50900
O 	O 	0.99460 0.62920 0.18680 -0.33300
O 	O 	0.10160 0.61740 0.61420 -0.47800
O 	O 	0.49140 0.61900 0.63640 -0.50700
O 	O 	0.19220 0.63460 0.00540 -0.33400
O 	O 	0.85830 0.32240 0.86730 -0.50900
O 	O 	0.78970 0.91260 0.43030 -0.47000
O 	O 	0.00540 0.19220 0.63460 -0.33400
O 	O 	0.21030 0.64060 0.12290 -0.47000
O 	O 	0.61900 0.63640 0.49140 -0.50700
O 	O 	0.54490 0.67760 0.53590 -0.50900
O 	O 	0.18680 0.99460 0.62920 -0.33300
O 	O 	0.87240 0.01740 0.38100 -0.50700
O 	O 	0.51580 0.89840 0.51260 -0.47800
O 	O 	0.45510 0.99100 0.13270 -0.50900
O 	O 	0.37080 0.36540 0.55760 -0.33300
O 	O 	0.97630 0.48630 0.59720 -0.47200
O 	O 	0.63640 0.49140 0.61900 -0.50700
O 	O 	0.99100 0.13270 0.45510 -0.50900
O 	O 	0.12290 0.21030 0.64060 -0.47000
O 	O 	0.53590 0.54490 0.67760 -0.50900
O 	O 	0.61740 0.61420 0.10160 -0.47800
O 	O 	0.38260 0.48420 0.99680 -0.47800
O 	O 	0.64060 0.12290 0.21030 -0.47000
O 	O 	0.59720 0.97630 0.48630 -0.47200
O 	O 	0.35940 0.56970 0.48230 -0.47000
O 	O 	0.56970 0.48230 0.35940 -0.47000
O 	O 	0.36540 0.55760 0.37080 -0.33300
O 	O 	0.01740 0.38100 0.87240 -0.50700
O 	O 	0.50860 0.14500 0.12760 -0.50700
O 	O 	0.88910 0.37910 0.40280 -0.47200
O 	O 	0.48630 0.59720 0.97630 -0.47200
O 	O 	0.51000 0.02370 0.62090 -0.47200
O 	O 	0.00900 0.46410 0.14170 -0.50900
O 	O 	0.61420 0.10160 0.61740 -0.47800
O 	O 	0.48230 0.35940 0.56970 -0.47000
O 	O 	0.46410 0.14170 0.00900 -0.50900
O 	O 	0.48740 0.38580 0.00320 -0.47800
O 	O 	0.87710 0.51770 0.08740 -0.47000
O 	O 	0.86730 0.85830 0.32240 -0.50900
O 	O 	0.00320 0.48740 0.38580 -0.47800
O 	O 	0.37910 0.40280 0.88910 -0.47200
O 	O 	0.51370 0.49000 0.11090 -0.47200
O 	O 	0.99680 0.38260 0.48420 -0.47800
O 	O 	0.12760 0.50860 0.14500 -0.50700
O 	O 	0.32240 0.86730 0.85830 -0.50900
O 	O 	0.62090 0.51000 0.02370 -0.47200
O 	O 	0.40280 0.88910 0.37910 -0.47200
O 	O 	0.44240 0.80780 0.81320 -0.33300
O 	O 	0.36360 0.98260 0.85500 -0.50700
