data_crystal

_cell_length_a 17.15600
_cell_length_b 20.38700
_cell_length_c 20.56200
_cell_angle_alpha 90.00000
_cell_angle_beta  90.00000
_cell_angle_gamma 90.00000

_symmetry_space_group_name_	'P 1'
_symmetry_space_group_name_H-M	'P 1'

loop_
_symmetry_equiv_pos_as_xyz
  x,y,z

loop_
_atom_site_label
_atom_site_type_symbol
_atom_site_fract_x
_atom_site_fract_y
_atom_site_fract_z
_atom_site_charge
K 	K 	0.69618 0.01743 0.91169 0.65300
K 	K 	0.21282 0.91840 0.93686 0.65500
K 	K 	0.05638 0.35876 0.19287 0.66400
K 	K 	0.56074 0.69582 0.16115 0.66000
K 	K 	0.28718 0.41840 0.93686 0.65700
K 	K 	0.94362 0.85876 0.30713 0.66500
K 	K 	0.19618 0.01743 0.58831 0.65400
K 	K 	0.71282 0.91840 0.56314 0.65700
K 	K 	0.06074 0.80418 0.83885 0.66100
K 	K 	0.30382 0.51743 0.58831 0.65300
K 	K 	0.55638 0.35876 0.30713 0.66500
K 	K 	0.05638 0.14124 0.69287 0.66500
K 	K 	0.43926 0.19582 0.33885 0.66100
K 	K 	0.30382 0.98257 0.08831 0.65400
K 	K 	0.43926 0.30418 0.83885 0.66100
K 	K 	0.78718 0.41840 0.56314 0.65700
K 	K 	0.56074 0.80418 0.66115 0.66100
K 	K 	0.44362 0.85876 0.19287 0.66500
K 	K 	0.19618 0.48257 0.08831 0.65300
K 	K 	0.28718 0.08160 0.43686 0.65700
K 	K 	0.44362 0.64124 0.69287 0.66500
K 	K 	0.80382 0.98257 0.41169 0.65400
K 	K 	0.69618 0.48257 0.41169 0.65300
K 	K 	0.55638 0.14124 0.80713 0.66500
K 	K 	0.93926 0.19582 0.16115 0.66100
K 	K 	0.06074 0.69582 0.33885 0.66100
K 	K 	0.93926 0.30418 0.66115 0.66100
K 	K 	0.71282 0.58160 0.06314 0.65700
K 	K 	0.21282 0.58160 0.43686 0.65700
K 	K 	0.78718 0.08160 0.06314 0.65600
K 	K 	0.80382 0.51743 0.91169 0.65300
K 	K 	0.94362 0.64124 0.80713 0.66500
Zr	Zr	0.13073 0.97460 0.76559 3.19900
Zr	Zr	0.36927 0.47460 0.76559 3.20000
Zr	Zr	0.63073 0.97460 0.73441 3.19900
Zr	Zr	0.36927 0.02540 0.26559 3.19900
Zr	Zr	0.86927 0.02540 0.23441 3.19900
Zr	Zr	0.86927 0.47460 0.73441 3.20000
Zr	Zr	0.63073 0.52540 0.23441 3.20000
Zr	Zr	0.13073 0.52540 0.26559 3.20000
H 	H 	0.32010 0.42710 0.40540 0.13300
H 	H 	0.09760 0.69590 0.48950 0.16700
H 	H 	0.05710 0.62700 0.65460 0.13900
H 	H 	0.98470 0.46980 0.07680 0.12500
H 	H 	0.39910 0.64380 0.54630 0.28900
H 	H 	0.52750 0.08200 0.44930 0.11600
H 	H 	0.60090 0.35620 0.45370 0.28900
H 	H 	0.95000 0.67980 0.17650 0.13700
H 	H 	0.83090 0.88130 0.86620 0.13100
H 	H 	0.17710 0.78330 0.97620 0.22500
H 	H 	0.17450 0.16900 0.57220 0.21500
H 	H 	0.05000 0.17980 0.32350 0.13800
H 	H 	0.32550 0.83100 0.07220 0.21600
H 	H 	0.40240 0.30410 0.98950 0.16800
H 	H 	0.82290 0.21670 0.02380 0.22500
H 	H 	0.98470 0.03020 0.57680 0.11300
H 	H 	0.44290 0.37300 0.15460 0.13900
H 	H 	0.45000 0.67980 0.32350 0.13700
H 	H 	0.02750 0.08200 0.05070 0.11100
H 	H 	0.33090 0.61870 0.13380 0.13100
H 	H 	0.40240 0.19590 0.48950 0.16700
H 	H 	0.67990 0.92710 0.09460 0.13500
H 	H 	0.74960 0.77370 0.67090 0.12600
H 	H 	0.55000 0.32020 0.67650 0.13700
H 	H 	0.78390 0.15390 0.81120 0.13100
H 	H 	0.66910 0.38130 0.86620 0.13100
H 	H 	0.71610 0.84610 0.31120 0.13100
H 	H 	0.52750 0.41800 0.94930 0.11700
H 	H 	0.39910 0.85620 0.04630 0.29100
H 	H 	0.97250 0.58200 0.44930 0.11700
H 	H 	0.16910 0.38130 0.63380 0.13100
H 	H 	0.48470 0.03020 0.92320 0.13300
H 	H 	0.89910 0.85620 0.45370 0.29000
H 	H 	0.83090 0.61870 0.36620 0.13100
H 	H 	0.02750 0.41800 0.55070 0.11700
H 	H 	0.33090 0.88130 0.63380 0.13100
H 	H 	0.32290 0.28330 0.97620 0.22700
H 	H 	0.60090 0.14380 0.95370 0.29100
H 	H 	0.82010 0.42710 0.09460 0.13300
H 	H 	0.94290 0.12700 0.84540 0.14500
H 	H 	0.55000 0.17980 0.17650 0.13700
H 	H 	0.09760 0.80410 0.98950 0.16500
H 	H 	0.71610 0.65390 0.81120 0.13100
H 	H 	0.75040 0.22630 0.17090 0.12600
H 	H 	0.67710 0.71670 0.02380 0.22700
H 	H 	0.55710 0.62700 0.84540 0.13900
H 	H 	0.01530 0.96980 0.42320 0.11300
H 	H 	0.67990 0.57290 0.59460 0.13300
H 	H 	0.82550 0.83100 0.42780 0.21500
H 	H 	0.82290 0.28330 0.52380 0.22600
H 	H 	0.05000 0.32020 0.82350 0.13700
H 	H 	0.21610 0.65390 0.68880 0.13100
H 	H 	0.67450 0.33100 0.42780 0.21500
H 	H 	0.67450 0.16900 0.92780 0.21600
H 	H 	0.17990 0.57290 0.90540 0.13300
H 	H 	0.45000 0.82020 0.82350 0.13700
H 	H 	0.47250 0.91800 0.55070 0.11600
H 	H 	0.17450 0.33100 0.07220 0.21400
H 	H 	0.59760 0.69590 0.01050 0.16800
H 	H 	0.24960 0.77370 0.82910 0.12600
H 	H 	0.32010 0.07290 0.90540 0.13500
H 	H 	0.01530 0.53020 0.92320 0.12500
H 	H 	0.24960 0.72630 0.32910 0.12600
H 	H 	0.32550 0.66900 0.57220 0.21500
H 	H 	0.82550 0.66900 0.92780 0.21400
H 	H 	0.66910 0.11870 0.36620 0.13100
H 	H 	0.82010 0.07290 0.59460 0.13200
H 	H 	0.74960 0.72630 0.17090 0.12600
H 	H 	0.75040 0.27370 0.67090 0.12600
H 	H 	0.17710 0.71670 0.47620 0.22600
H 	H 	0.05710 0.87300 0.15460 0.14500
H 	H 	0.90240 0.19590 0.01050 0.16500
H 	H 	0.97250 0.91800 0.94930 0.11100
H 	H 	0.95000 0.82020 0.67650 0.13800
H 	H 	0.10090 0.35620 0.04630 0.28900
H 	H 	0.17990 0.92710 0.40540 0.13200
H 	H 	0.21610 0.84610 0.18880 0.13100
H 	H 	0.89910 0.64380 0.95370 0.28900
H 	H 	0.48470 0.46980 0.42320 0.12500
H 	H 	0.90240 0.30410 0.51050 0.16700
H 	H 	0.16910 0.11870 0.13380 0.13100
H 	H 	0.32290 0.21670 0.47620 0.22600
H 	H 	0.51530 0.96980 0.07680 0.13300
H 	H 	0.44290 0.12700 0.65460 0.14000
H 	H 	0.51530 0.53020 0.57680 0.12500
H 	H 	0.59760 0.80410 0.51050 0.16700
H 	H 	0.25040 0.22630 0.32910 0.12600
H 	H 	0.47250 0.58200 0.05070 0.11700
H 	H 	0.10090 0.14380 0.54630 0.29000
H 	H 	0.78390 0.34610 0.31120 0.13100
H 	H 	0.25040 0.27370 0.82910 0.12600
H 	H 	0.28390 0.34610 0.18880 0.13100
H 	H 	0.67710 0.78330 0.52380 0.22600
H 	H 	0.28390 0.15390 0.68880 0.13100
H 	H 	0.55710 0.87300 0.34540 0.14000
H 	H 	0.94290 0.37300 0.34540 0.13900
C 	C 	0.98210 0.02910 0.35110 0.14000
C 	C 	0.75970 0.43810 0.17730 0.18400
C 	C 	0.90010 0.50240 0.44480 0.14600
C 	C 	0.20800 0.63860 0.73090 -0.23500
C 	C 	0.25970 0.06190 0.82270 0.18400
C 	C 	0.35220 0.16480 0.76920 0.14500
C 	C 	0.63630 0.63900 0.66030 0.15600
C 	C 	0.36370 0.36100 0.33970 0.15600
C 	C 	0.25500 0.90980 0.25600 0.18200
C 	C 	0.00230 0.45830 0.34510 0.18500
C 	C 	0.99770 0.95830 0.15490 0.20600
C 	C 	0.76780 0.79470 0.70800 -0.22900
C 	C 	0.81700 0.86050 0.82770 -0.26100
C 	C 	0.45360 0.63810 0.34160 -0.23900
C 	C 	0.68520 0.58820 0.63690 -0.24500
C 	C 	0.95360 0.63810 0.15840 -0.23600
C 	C 	0.45360 0.86190 0.84160 -0.23700
C 	C 	0.17050 0.23290 0.25540 0.15200
C 	C 	0.18520 0.91180 0.36310 -0.24500
C 	C 	0.18300 0.36050 0.67230 -0.26100
C 	C 	0.94560 0.08550 0.86390 -0.26400
C 	C 	0.99440 0.40590 0.81780 0.17200
C 	C 	0.86370 0.13900 0.66030 0.15600
C 	C 	0.05440 0.58550 0.63610 -0.24800
C 	C 	0.96400 0.95760 0.92790 -0.21200
C 	C 	0.23550 0.64780 0.27220 0.16300
C 	C 	0.32950 0.76710 0.75540 0.15200
C 	C 	0.23220 0.29470 0.79200 -0.22900
C 	C 	0.39150 0.43410 0.08780 0.15200
C 	C 	0.70800 0.63860 0.76910 -0.23500
C 	C 	0.09510 0.38000 0.89430 0.13900
C 	C 	0.74500 0.09020 0.74400 0.18200
C 	C 	0.75950 0.88580 0.78980 0.19000
C 	C 	0.73550 0.85220 0.72780 0.16300
C 	C 	0.52580 0.00940 0.09750 -0.27100
C 	C 	0.26450 0.35220 0.77220 0.16300
C 	C 	0.55440 0.91450 0.36390 -0.24800
C 	C 	0.31700 0.86050 0.67230 -0.26200
C 	C 	0.02580 0.00940 0.40250 -0.23300
C 	C 	0.75950 0.61420 0.28980 0.19000
C 	C 	0.03600 0.45760 0.57210 -0.22900
C 	C 	0.49440 0.09410 0.18220 0.17200
C 	C 	0.51790 0.52910 0.35110 0.16100
C 	C 	0.98210 0.47090 0.85110 0.16100
C 	C 	0.85580 0.80200 0.80800 0.17000
C 	C 	0.54640 0.36190 0.65840 -0.23900
C 	C 	0.68300 0.36050 0.82770 -0.26200
C 	C 	0.73220 0.20530 0.20800 -0.22900
C 	C 	0.31700 0.63950 0.17230 -0.26200
C 	C 	0.79200 0.13860 0.76910 -0.23500
C 	C 	0.74050 0.38580 0.78980 0.19000
C 	C 	0.26780 0.70530 0.29200 -0.22900
C 	C 	0.44560 0.41450 0.13610 -0.24700
C 	C 	0.55440 0.58550 0.86390 -0.24700
C 	C 	0.67050 0.26710 0.74460 0.15200
C 	C 	0.76780 0.70530 0.20800 -0.22900
C 	C 	0.76450 0.35220 0.72780 0.16300
C 	C 	0.00560 0.59410 0.18220 0.17200
C 	C 	0.23550 0.85220 0.77220 0.16300
C 	C 	0.90490 0.88000 0.60570 0.14200
C 	C 	0.35220 0.33520 0.26920 0.14500
C 	C 	0.08760 0.45000 0.92430 0.17500
C 	C 	0.86370 0.36100 0.16030 0.15600
C 	C 	0.59510 0.38000 0.60570 0.13900
C 	C 	0.41240 0.55000 0.42430 0.17500
C 	C 	0.25500 0.59020 0.75600 0.18200
C 	C 	0.49770 0.54170 0.84510 0.18400
C 	C 	0.25950 0.88580 0.71020 0.19000
C 	C 	0.50230 0.45830 0.15490 0.18400
C 	C 	0.29200 0.36140 0.23090 -0.23500
C 	C 	0.64420 0.19800 0.30800 0.17000
C 	C 	0.24030 0.93810 0.32270 0.18300
C 	C 	0.81480 0.41180 0.13690 -0.24500
C 	C 	0.01350 0.97790 0.87930 0.13500
C 	C 	0.85220 0.33520 0.23080 0.14500
C 	C 	0.98650 0.47790 0.62070 0.15700
C 	C 	0.25970 0.43810 0.32270 0.18400
C 	C 	0.82950 0.73290 0.24460 0.15200
C 	C 	0.14780 0.83520 0.26920 0.14500
C 	C 	0.18520 0.58820 0.86310 -0.24500
C 	C 	0.04640 0.13810 0.34160 -0.23700
C 	C 	0.70800 0.86140 0.26910 -0.23500
C 	C 	0.23220 0.20530 0.29200 -0.22900
C 	C 	0.41240 0.95000 0.92430 0.17800
C 	C 	0.68300 0.13950 0.32770 -0.26200
C 	C 	0.31480 0.41180 0.36310 -0.24500
C 	C 	0.89150 0.43410 0.41220 0.15300
C 	C 	0.90490 0.62000 0.10570 0.13900
C 	C 	0.73550 0.64780 0.22780 0.16300
C 	C 	0.48650 0.47790 0.87930 0.15800
C 	C 	0.75970 0.06190 0.67730 0.18300
C 	C 	0.24050 0.11420 0.21020 0.19000
C 	C 	0.35580 0.69800 0.19200 0.17000
C 	C 	0.35580 0.80200 0.69200 0.17000
C 	C 	0.50560 0.59410 0.31780 0.17400
C 	C 	0.59510 0.12000 0.10570 0.13700
C 	C 	0.14780 0.66480 0.76920 0.14500
C 	C 	0.01790 0.97090 0.64890 0.14000
C 	C 	0.53600 0.04240 0.42790 -0.22800
C 	C 	0.81480 0.08820 0.63690 -0.24500
C 	C 	0.09990 0.00240 0.05520 0.13800
C 	C 	0.13630 0.86100 0.33970 0.15600
C 	C 	0.48650 0.02210 0.37930 0.15600
C 	C 	0.14420 0.30200 0.69200 0.17000
C 	C 	0.00230 0.04170 0.84510 0.20600
C 	C 	0.81700 0.63950 0.32770 -0.26100
C 	C 	0.20800 0.86140 0.23090 -0.23500
C 	C 	0.51350 0.97790 0.62070 0.15600
C 	C 	0.52580 0.49060 0.59750 -0.25900
C 	C 	0.10850 0.56590 0.58780 0.15300
C 	C 	0.09510 0.12000 0.39430 0.14200
C 	C 	0.60850 0.56590 0.91220 0.15200
C 	C 	0.64780 0.66480 0.73080 0.14500
C 	C 	0.13630 0.63900 0.83970 0.15600
C 	C 	0.90010 0.99760 0.94480 0.13800
C 	C 	0.02580 0.49060 0.90250 -0.25900
C 	C 	0.50560 0.90590 0.81780 0.17200
C 	C 	0.99440 0.09410 0.31780 0.17500
C 	C 	0.49440 0.40590 0.68220 0.17400
C 	C 	0.74050 0.11420 0.28980 0.19000
C 	C 	0.44560 0.08550 0.63610 -0.24800
C 	C 	0.98650 0.02210 0.12070 0.13500
C 	C 	0.99770 0.54170 0.65490 0.18500
C 	C 	0.25950 0.61420 0.21020 0.19000
C 	C 	0.75500 0.90980 0.24400 0.18300
C 	C 	0.04640 0.36190 0.84160 -0.23600
C 	C 	0.95360 0.86190 0.65840 -0.23700
C 	C 	0.97420 0.99060 0.59750 -0.23300
C 	C 	0.59990 0.49760 0.94480 0.14700
C 	C 	0.85580 0.69800 0.30800 0.17000
C 	C 	0.24500 0.09020 0.75600 0.18300
C 	C 	0.67050 0.23290 0.24460 0.15200
C 	C 	0.89150 0.06590 0.91220 0.16200
C 	C 	0.96400 0.54240 0.42790 -0.22900
C 	C 	0.03600 0.04240 0.07210 -0.21200
C 	C 	0.74500 0.40980 0.24400 0.18200
C 	C 	0.79200 0.36140 0.26910 -0.23500
C 	C 	0.73220 0.29470 0.70800 -0.22900
C 	C 	0.00560 0.90590 0.68220 0.17500
C 	C 	0.48210 0.02910 0.14890 0.16200
C 	C 	0.40490 0.62000 0.39430 0.13900
C 	C 	0.31480 0.08820 0.86310 -0.24400
C 	C 	0.47420 0.50940 0.40250 -0.25900
C 	C 	0.46400 0.95760 0.57210 -0.22800
C 	C 	0.08760 0.05000 0.42430 0.16600
C 	C 	0.17050 0.26710 0.75540 0.15200
C 	C 	0.09990 0.49760 0.55520 0.14600
C 	C 	0.39150 0.06590 0.58780 0.15500
C 	C 	0.82950 0.76710 0.74460 0.15200
C 	C 	0.29200 0.13860 0.73090 -0.23500
C 	C 	0.64780 0.83520 0.23080 0.14500
C 	C 	0.10850 0.93410 0.08780 0.16200
C 	C 	0.54640 0.13810 0.15840 -0.23700
C 	C 	0.40010 0.99760 0.55520 0.14500
C 	C 	0.05440 0.91450 0.13610 -0.26400
C 	C 	0.32950 0.73290 0.25540 0.15200
C 	C 	0.63630 0.86100 0.16030 0.15600
C 	C 	0.26780 0.79470 0.79200 -0.22900
C 	C 	0.68520 0.91180 0.13690 -0.24400
C 	C 	0.26450 0.14780 0.27220 0.16300
C 	C 	0.53600 0.45760 0.92790 -0.23000
C 	C 	0.76450 0.14780 0.22780 0.16300
C 	C 	0.24500 0.40980 0.25600 0.18200
C 	C 	0.50230 0.04170 0.65490 0.18600
C 	C 	0.59990 0.00240 0.44480 0.14500
C 	C 	0.91240 0.95000 0.57570 0.16600
C 	C 	0.24030 0.56190 0.82270 0.18400
C 	C 	0.01790 0.52910 0.14890 0.16100
C 	C 	0.91240 0.55000 0.07570 0.17500
C 	C 	0.85220 0.16480 0.73080 0.14500
C 	C 	0.58760 0.45000 0.57570 0.17500
C 	C 	0.51350 0.52210 0.12070 0.15800
C 	C 	0.18300 0.13950 0.17230 -0.26100
C 	C 	0.64420 0.30200 0.80800 0.17000
C 	C 	0.40010 0.50240 0.05520 0.14700
C 	C 	0.75500 0.59020 0.74400 0.18200
C 	C 	0.58760 0.05000 0.07570 0.17800
C 	C 	0.49770 0.95830 0.34510 0.18600
C 	C 	0.60850 0.93410 0.41220 0.15500
C 	C 	0.01350 0.52210 0.37930 0.15700
C 	C 	0.48210 0.47090 0.64890 0.16100
C 	C 	0.51790 0.97090 0.85110 0.16200
C 	C 	0.74030 0.93810 0.17730 0.18400
C 	C 	0.40490 0.88000 0.89430 0.13700
C 	C 	0.94560 0.41450 0.36390 -0.24800
C 	C 	0.46400 0.54240 0.07210 -0.23000
C 	C 	0.14420 0.19800 0.19200 0.17000
C 	C 	0.24050 0.38580 0.71020 0.19000
C 	C 	0.74030 0.56190 0.67730 0.18400
C 	C 	0.47420 0.99060 0.90250 -0.27100
C 	C 	0.97420 0.50940 0.09750 -0.25900
C 	C 	0.36370 0.13900 0.83970 0.15600
O 	O 	0.15130 0.01760 0.01600 -0.28900
O 	O 	0.63360 0.21760 0.72800 -0.26200
O 	O 	0.34870 0.98240 0.51600 -0.29100
O 	O 	0.36840 0.63950 0.57750 -0.61800
O 	O 	0.05030 0.44899 0.29705 -0.62500
O 	O 	0.39970 0.29230 0.25100 -0.27900
O 	O 	0.65130 0.48240 0.98400 -0.29100
O 	O 	0.83370 0.40140 0.42870 -0.30200
O 	O 	0.31220 0.93634 0.22590 -0.60800
O 	O 	0.66630 0.59860 0.92870 -0.30200
O 	O 	0.07480 0.49474 0.17473 -0.64300
O 	O 	0.64610 0.15590 0.08120 -0.25900
O 	O 	0.57180 0.94403 0.64241 -0.60600
O 	O 	0.22030 0.93928 0.69880 -0.64000
O 	O 	0.42820 0.44403 0.85759 -0.60600
O 	O 	0.68780 0.43634 0.27410 -0.60800
O 	O 	0.13360 0.28240 0.27200 -0.26200
O 	O 	0.13360 0.21760 0.77200 -0.26100
O 	O 	0.60030 0.79230 0.24900 -0.27900
O 	O 	0.91700 0.33520 0.12930 -0.29900
O 	O 	0.77970 0.43928 0.80120 -0.63700
O 	O 	0.86640 0.71760 0.72800 -0.26200
O 	O 	0.13850 0.80070 0.95470 -0.52400
O 	O 	0.94970 0.55101 0.70295 -0.62500
O 	O 	0.85390 0.65590 0.08120 -0.25800
O 	O 	0.72030 0.56072 0.30120 -0.63700
O 	O 	0.44970 0.55101 0.79705 -0.62500
O 	O 	0.71490 0.01228 0.66374 -0.62200
O 	O 	0.78510 0.98772 0.16374 -0.61700
O 	O 	0.04980 0.60234 0.23305 -0.61600
O 	O 	0.36350 0.53380 0.46497 -0.32300
O 	O 	0.86150 0.19930 0.04530 -0.52400
O 	O 	0.81750 0.38428 0.69526 -0.63200
O 	O 	0.05030 0.05101 0.79705 -0.62800
O 	O 	0.58900 0.22290 0.33790 -0.31500
O 	O 	0.41100 0.77710 0.66210 -0.31500
O 	O 	0.66630 0.90140 0.42870 -0.30200
O 	O 	0.89970 0.20770 0.74900 -0.28000
O 	O 	0.08900 0.27710 0.66210 -0.31400
O 	O 	0.63360 0.28240 0.22800 -0.26200
O 	O 	0.63850 0.80070 0.54530 -0.52300
O 	O 	0.14610 0.34410 0.91880 -0.25800
O 	O 	0.41100 0.72290 0.16210 -0.31400
O 	O 	0.86350 0.96620 0.53503 -0.31900
O 	O 	0.13160 0.36050 0.07750 -0.61800
O 	O 	0.91700 0.16480 0.62930 -0.29900
O 	O 	0.95020 0.39766 0.76695 -0.61600
O 	O 	0.36640 0.78240 0.27200 -0.26200
O 	O 	0.81220 0.93634 0.27410 -0.60700
O 	O 	0.54980 0.60234 0.26695 -0.61600
O 	O 	0.14610 0.15590 0.41880 -0.25900
O 	O 	0.57480 0.49474 0.32527 -0.64400
O 	O 	0.07180 0.94403 0.85759 -0.60400
O 	O 	0.42520 0.50526 0.67473 -0.64400
O 	O 	0.13650 0.03380 0.46497 -0.31900
O 	O 	0.21490 0.01228 0.83626 -0.61700
O 	O 	0.41700 0.16480 0.87070 -0.29700
O 	O 	0.36150 0.19930 0.45470 -0.52300
O 	O 	0.28510 0.51228 0.83626 -0.62200
O 	O 	0.31220 0.56366 0.72590 -0.60800
O 	O 	0.64610 0.34410 0.58120 -0.25900
O 	O 	0.18250 0.61572 0.30474 -0.63200
O 	O 	0.15130 0.48240 0.51600 -0.29100
O 	O 	0.85390 0.84410 0.58120 -0.25900
O 	O 	0.63160 0.36050 0.42250 -0.61800
O 	O 	0.10030 0.70770 0.75100 -0.28000
O 	O 	0.91100 0.72290 0.33790 -0.31400
O 	O 	0.77970 0.06072 0.30120 -0.64000
O 	O 	0.39970 0.20770 0.75100 -0.27900
O 	O 	0.63650 0.03380 0.03503 -0.32800
O 	O 	0.92820 0.44403 0.64241 -0.60600
O 	O 	0.33370 0.09860 0.57130 -0.30200
O 	O 	0.86840 0.63950 0.92250 -0.61800
O 	O 	0.60030 0.70770 0.74900 -0.27900
O 	O 	0.13160 0.13950 0.57750 -0.61800
O 	O 	0.31750 0.38428 0.80474 -0.63200
O 	O 	0.27970 0.06072 0.19880 -0.63800
O 	O 	0.45020 0.10234 0.23305 -0.61700
O 	O 	0.68780 0.06366 0.77410 -0.60800
O 	O 	0.57180 0.55597 0.14241 -0.60600
O 	O 	0.45020 0.39766 0.73305 -0.61600
O 	O 	0.41700 0.33520 0.37070 -0.29800
O 	O 	0.65130 0.01760 0.48400 -0.29100
O 	O 	0.04980 0.89766 0.73305 -0.61900
O 	O 	0.86350 0.53380 0.03503 -0.32400
O 	O 	0.72030 0.93928 0.80120 -0.63800
O 	O 	0.33370 0.40140 0.07130 -0.30200
O 	O 	0.84870 0.51760 0.48400 -0.29100
O 	O 	0.91100 0.77710 0.83790 -0.31400
O 	O 	0.94970 0.94899 0.20295 -0.62800
O 	O 	0.07180 0.55597 0.35759 -0.60600
O 	O 	0.86640 0.78240 0.22800 -0.26100
O 	O 	0.42820 0.05597 0.35759 -0.60600
O 	O 	0.08900 0.22290 0.16210 -0.31400
O 	O 	0.35390 0.84410 0.91880 -0.25900
O 	O 	0.71490 0.48772 0.16374 -0.62200
O 	O 	0.34870 0.51760 0.01600 -0.29100
O 	O 	0.13850 0.69930 0.45470 -0.52300
O 	O 	0.13650 0.46620 0.96497 -0.32400
O 	O 	0.21490 0.48772 0.33626 -0.62200
O 	O 	0.36150 0.30070 0.95470 -0.52300
O 	O 	0.18780 0.06366 0.72590 -0.60700
O 	O 	0.58900 0.27710 0.83790 -0.31400
O 	O 	0.86150 0.30070 0.54530 -0.52300
O 	O 	0.36350 0.96620 0.96497 -0.32800
O 	O 	0.28510 0.98772 0.33626 -0.62200
O 	O 	0.44970 0.94899 0.29705 -0.62500
O 	O 	0.68250 0.61572 0.19526 -0.63200
O 	O 	0.78510 0.51228 0.66374 -0.62200
O 	O 	0.18250 0.88428 0.80474 -0.63300
O 	O 	0.63850 0.69930 0.04530 -0.52300
O 	O 	0.63650 0.46620 0.53503 -0.32300
O 	O 	0.55030 0.05101 0.70295 -0.62500
O 	O 	0.55030 0.44899 0.20295 -0.62500
O 	O 	0.54980 0.89766 0.76695 -0.61700
O 	O 	0.92820 0.05597 0.14241 -0.60400
O 	O 	0.35390 0.65590 0.41880 -0.25900
O 	O 	0.84870 0.98240 0.98400 -0.28900
O 	O 	0.83370 0.09860 0.92870 -0.30300
O 	O 	0.92520 0.99474 0.32527 -0.63200
O 	O 	0.31750 0.11572 0.30474 -0.63200
O 	O 	0.27970 0.43928 0.69880 -0.63700
O 	O 	0.89970 0.29230 0.24900 -0.28000
O 	O 	0.22030 0.56072 0.19880 -0.63700
O 	O 	0.18780 0.43634 0.22590 -0.60800
O 	O 	0.81750 0.11572 0.19526 -0.63300
O 	O 	0.68250 0.88428 0.69526 -0.63200
O 	O 	0.16630 0.90140 0.07130 -0.30300
O 	O 	0.92520 0.50526 0.82527 -0.64300
O 	O 	0.07480 0.00526 0.67473 -0.63200
O 	O 	0.63160 0.13950 0.92250 -0.61800
O 	O 	0.36640 0.71760 0.77200 -0.26200
O 	O 	0.81220 0.56366 0.77410 -0.60800
O 	O 	0.10030 0.79230 0.25100 -0.28000
O 	O 	0.58300 0.66480 0.62930 -0.29800
O 	O 	0.16630 0.59860 0.57130 -0.30200
O 	O 	0.08300 0.83520 0.37070 -0.29900
O 	O 	0.08300 0.66480 0.87070 -0.29900
O 	O 	0.86840 0.86050 0.42250 -0.61800
O 	O 	0.95020 0.10234 0.26695 -0.61900
O 	O 	0.36840 0.86050 0.07750 -0.61800
O 	O 	0.57480 0.00526 0.82527 -0.64100
O 	O 	0.58300 0.83520 0.12930 -0.29700
O 	O 	0.42520 0.99474 0.17473 -0.64100
