data_crystal

_cell_length_a 11.98130
_cell_length_b 22.62900
_cell_length_c 13.41930
_cell_angle_alpha 90.00000
_cell_angle_beta  103.46500
_cell_angle_gamma 90.00000

_symmetry_space_group_name_	'P 1'
_symmetry_space_group_name_H-M	'P 1'

loop_
_symmetry_equiv_pos_as_xyz
  x,y,z

loop_
_atom_site_label
_atom_site_type_symbol
_atom_site_fract_x
_atom_site_fract_y
_atom_site_fract_z
_atom_site_charge
C 	C 	0.51860 0.61477 0.50372 0.07000
H 	H 	0.57770 0.58680 0.52800 -0.02700
C 	C 	0.44630 0.62991 0.56701 -0.15400
H 	H 	0.45790 0.61380 0.63400 0.06600
C 	C 	0.35670 0.66906 0.53030 0.09100
C 	C 	0.34300 0.69071 0.43100 -0.14500
H 	H 	0.28030 0.71590 0.40230 0.08800
C 	C 	0.42130 0.67514 0.37490 0.06400
H 	H 	0.41300 0.69160 0.30840 -0.02000
C 	C 	0.27900 0.68735 0.59540 -0.03600
H 	H 	0.28740 0.67150 0.66230 0.04500
C 	C 	0.05570 0.77643 0.59080 -0.03900
H 	H 	0.05140 0.79000 0.52300 0.06100
C 	C 	0.97230 0.79868 0.64690 0.10100
C 	C 	0.97110 0.78049 0.74600 -0.15400
H 	H 	0.02710 0.75370 0.78200 0.09500
C 	C 	0.88980 0.83915 0.59790 -0.15900
H 	H 	0.88810 0.85210 0.53030 0.07900
C 	C 	0.80980 0.86024 0.64979 0.07500
H 	H 	0.75530 0.88880 0.61720 -0.03100
C 	C 	0.88630 0.80242 0.79055 0.07300
H 	H 	0.88430 0.78910 0.85730 -0.02400
C 	C 	0.88280 0.58416 0.47850 0.07400
H 	H 	0.88800 0.56270 0.41890 -0.03500
C 	C 	0.96650 0.57537 0.56768 -0.14800
H 	H 	0.02810 0.54870 0.56880 0.07100
C 	C 	0.95881 0.60624 0.65582 0.09200
C 	C 	0.86700 0.64501 0.65025 -0.14300
H 	H 	0.85870 0.66630 0.70910 0.07900
C 	C 	0.78818 0.65196 0.55758 0.07200
H 	H 	0.72690 0.67920 0.55370 -0.02900
C 	C 	0.04790 0.59787 0.75108 -0.03400
H 	H 	0.10260 0.56700 0.75580 0.04100
C 	C 	0.23540 0.64324 0.91261 -0.04100
H 	H 	0.24550 0.66340 0.85320 0.05000
C 	C 	0.33300 0.63770 0.00248 0.09700
C 	C 	0.43410 0.66749 0.00390 -0.15400
H 	H 	0.44220 0.68990 0.94610 0.07100
C 	C 	0.52340 0.66436 0.09050 0.07500
H 	H 	0.59130 0.68630 0.09180 -0.03000
C 	C 	0.42090 0.60083 0.16942 0.07000
H 	H 	0.41730 0.57620 0.22590 -0.03200
C 	C 	0.32640 0.60356 0.08730 -0.14700
H 	H 	0.25820 0.58250 0.08880 0.08500
Cd	Cd	0.65724 0.63166 0.32186 1.15900
N 	N 	0.50895 0.63776 0.41003 -0.25600
N 	N 	0.20040 0.72492 0.55980 -0.07700
N 	N 	0.13380 0.73923 0.63100 -0.07500
N 	N 	0.80686 0.84164 0.74389 -0.25900
N 	N 	0.79475 0.62177 0.47266 -0.26400
N 	N 	0.05130 0.63218 0.82722 -0.08100
N 	N 	0.13804 0.62133 0.91380 -0.07900
N 	N 	0.51784 0.63166 0.17237 -0.26700
C 	C 	0.51860 0.88523 0.00372 0.06900
H 	H 	0.57770 0.91320 0.02800 -0.02800
C 	C 	0.44630 0.87009 0.06701 -0.15600
H 	H 	0.45790 0.88620 0.13400 0.06600
C 	C 	0.35670 0.83094 0.03030 0.09000
C 	C 	0.34300 0.80929 0.93100 -0.14600
H 	H 	0.28030 0.78410 0.90230 0.08800
C 	C 	0.42130 0.82486 0.87490 0.06400
H 	H 	0.41300 0.80840 0.80840 -0.02000
C 	C 	0.27900 0.81265 0.09540 -0.03600
H 	H 	0.28740 0.82850 0.16230 0.04500
C 	C 	0.05570 0.72357 0.09080 -0.04000
H 	H 	0.05140 0.71000 0.02300 0.06100
C 	C 	0.97230 0.70132 0.14690 0.10100
C 	C 	0.97110 0.71951 0.24600 -0.15200
H 	H 	0.02710 0.74630 0.28200 0.09400
C 	C 	0.88980 0.66085 0.09790 -0.15900
H 	H 	0.88810 0.64790 0.03030 0.08000
C 	C 	0.80980 0.63976 0.14979 0.07500
H 	H 	0.75530 0.61120 0.11720 -0.03100
C 	C 	0.88630 0.69758 0.29055 0.07300
H 	H 	0.88430 0.71090 0.35730 -0.02400
C 	C 	0.88280 0.91584 0.97850 0.07100
H 	H 	0.88800 0.93730 0.91890 -0.03400
C 	C 	0.96650 0.92463 0.06768 -0.14400
H 	H 	0.02810 0.95130 0.06880 0.06900
C 	C 	0.95881 0.89376 0.15582 0.09200
C 	C 	0.86700 0.85499 0.15025 -0.14300
H 	H 	0.85870 0.83370 0.20910 0.07900
C 	C 	0.78818 0.84804 0.05758 0.07300
H 	H 	0.72690 0.82080 0.05370 -0.02900
C 	C 	0.04790 0.90213 0.25108 -0.03400
H 	H 	0.10260 0.93300 0.25580 0.04100
C 	C 	0.23540 0.85676 0.41261 -0.04100
H 	H 	0.24550 0.83660 0.35320 0.05000
C 	C 	0.33300 0.86230 0.50248 0.09800
C 	C 	0.43410 0.83251 0.50390 -0.15500
H 	H 	0.44220 0.81010 0.44610 0.07100
C 	C 	0.52340 0.83564 0.59050 0.07500
H 	H 	0.59130 0.81370 0.59180 -0.03000
C 	C 	0.42090 0.89917 0.66942 0.07000
H 	H 	0.41730 0.92380 0.72590 -0.03200
C 	C 	0.32640 0.89644 0.58730 -0.14800
H 	H 	0.25820 0.91750 0.58880 0.08500
Cd	Cd	0.65724 0.86834 0.82186 1.15900
N 	N 	0.50895 0.86224 0.91003 -0.25600
N 	N 	0.20040 0.77508 0.05980 -0.07700
N 	N 	0.13380 0.76077 0.13100 -0.07500
N 	N 	0.80686 0.65836 0.24389 -0.25900
N 	N 	0.79475 0.87823 0.97266 -0.26400
N 	N 	0.05130 0.86782 0.32722 -0.08100
N 	N 	0.13804 0.87867 0.41380 -0.07900
N 	N 	0.51784 0.86834 0.67237 -0.26700
C 	C 	0.48140 0.11477 0.99628 0.06900
H 	H 	0.42230 0.08680 0.97200 -0.02800
C 	C 	0.55370 0.12991 0.93299 -0.15600
H 	H 	0.54210 0.11380 0.86600 0.06600
C 	C 	0.64330 0.16906 0.96970 0.09000
C 	C 	0.65700 0.19071 0.06900 -0.14600
H 	H 	0.71970 0.21590 0.09770 0.08800
C 	C 	0.57870 0.17514 0.12510 0.06400
H 	H 	0.58700 0.19160 0.19160 -0.02000
C 	C 	0.72100 0.18735 0.90460 -0.03600
H 	H 	0.71260 0.17150 0.83770 0.04500
C 	C 	0.94430 0.27643 0.90920 -0.04000
H 	H 	0.94860 0.29000 0.97700 0.06100
C 	C 	0.02770 0.29868 0.85310 0.10100
C 	C 	0.02890 0.28049 0.75400 -0.15200
H 	H 	0.97290 0.25370 0.71800 0.09400
C 	C 	0.11020 0.33915 0.90210 -0.15900
H 	H 	0.11190 0.35210 0.96970 0.08000
C 	C 	0.19020 0.36024 0.85021 0.07500
H 	H 	0.24470 0.38880 0.88280 -0.03100
C 	C 	0.11370 0.30242 0.70945 0.07300
H 	H 	0.11570 0.28910 0.64270 -0.02400
C 	C 	0.11720 0.08416 0.02150 0.07100
H 	H 	0.11200 0.06270 0.08110 -0.03400
C 	C 	0.03350 0.07537 0.93232 -0.14400
H 	H 	0.97190 0.04870 0.93120 0.06900
C 	C 	0.04119 0.10624 0.84418 0.09200
C 	C 	0.13300 0.14501 0.84975 -0.14300
H 	H 	0.14130 0.16630 0.79090 0.07900
C 	C 	0.21182 0.15196 0.94242 0.07300
H 	H 	0.27310 0.17920 0.94630 -0.02900
C 	C 	0.95210 0.09787 0.74892 -0.03400
H 	H 	0.89740 0.06700 0.74420 0.04100
C 	C 	0.76460 0.14324 0.58739 -0.04100
H 	H 	0.75450 0.16340 0.64680 0.05000
C 	C 	0.66700 0.13770 0.49752 0.09800
C 	C 	0.56590 0.16749 0.49610 -0.15500
H 	H 	0.55780 0.18990 0.55390 0.07100
C 	C 	0.47660 0.16436 0.40950 0.07500
H 	H 	0.40870 0.18630 0.40820 -0.03000
C 	C 	0.57910 0.10083 0.33058 0.07000
H 	H 	0.58270 0.07620 0.27410 -0.03200
C 	C 	0.67360 0.10356 0.41270 -0.14800
H 	H 	0.74180 0.08250 0.41120 0.08500
Cd	Cd	0.34276 0.13166 0.17814 1.15900
N 	N 	0.49105 0.13776 0.08997 -0.25600
N 	N 	0.79960 0.22492 0.94020 -0.07700
N 	N 	0.86620 0.23923 0.86900 -0.07500
N 	N 	0.19314 0.34164 0.75611 -0.25900
N 	N 	0.20525 0.12177 0.02734 -0.26400
N 	N 	0.94870 0.13218 0.67278 -0.08100
N 	N 	0.86196 0.12133 0.58620 -0.07900
N 	N 	0.48216 0.13166 0.32763 -0.26700
C 	C 	0.48140 0.38523 0.49628 0.06900
H 	H 	0.42230 0.41320 0.47200 -0.02800
C 	C 	0.55370 0.37009 0.43299 -0.15500
H 	H 	0.54210 0.38620 0.36600 0.06500
C 	C 	0.64330 0.33094 0.46970 0.09000
C 	C 	0.65700 0.30929 0.56900 -0.14600
H 	H 	0.71970 0.28410 0.59770 0.08800
C 	C 	0.57870 0.32486 0.62510 0.06400
H 	H 	0.58700 0.30840 0.69160 -0.02000
C 	C 	0.72100 0.31265 0.40460 -0.03600
H 	H 	0.71260 0.32850 0.33770 0.04500
C 	C 	0.94430 0.22357 0.40920 -0.03900
H 	H 	0.94860 0.21000 0.47700 0.06100
C 	C 	0.02770 0.20132 0.35310 0.10100
C 	C 	0.02890 0.21951 0.25400 -0.15400
H 	H 	0.97290 0.24630 0.21800 0.09500
C 	C 	0.11020 0.16085 0.40210 -0.15900
H 	H 	0.11190 0.14790 0.46970 0.07900
C 	C 	0.19020 0.13976 0.35021 0.07500
H 	H 	0.24470 0.11120 0.38280 -0.03100
C 	C 	0.11370 0.19758 0.20945 0.07300
H 	H 	0.11570 0.21090 0.14270 -0.02400
C 	C 	0.11720 0.41584 0.52150 0.07400
H 	H 	0.11200 0.43730 0.58110 -0.03500
C 	C 	0.03350 0.42463 0.43232 -0.14800
H 	H 	0.97190 0.45130 0.43120 0.07100
C 	C 	0.04119 0.39376 0.34418 0.09200
C 	C 	0.13300 0.35499 0.34975 -0.14300
H 	H 	0.14130 0.33370 0.29090 0.07900
C 	C 	0.21182 0.34804 0.44242 0.07200
H 	H 	0.27310 0.32080 0.44630 -0.02900
C 	C 	0.95210 0.40213 0.24892 -0.03400
H 	H 	0.89740 0.43300 0.24420 0.04100
C 	C 	0.76460 0.35676 0.08739 -0.04100
H 	H 	0.75450 0.33660 0.14680 0.05000
C 	C 	0.66700 0.36230 0.99752 0.09700
C 	C 	0.56590 0.33251 0.99610 -0.15400
H 	H 	0.55780 0.31010 0.05390 0.07100
C 	C 	0.47660 0.33564 0.90950 0.07500
H 	H 	0.40870 0.31370 0.90820 -0.03000
C 	C 	0.57910 0.39917 0.83058 0.07000
H 	H 	0.58270 0.42380 0.77410 -0.03200
C 	C 	0.67360 0.39644 0.91270 -0.14700
H 	H 	0.74180 0.41750 0.91120 0.08500
Cd	Cd	0.34276 0.36834 0.67814 1.15900
N 	N 	0.49105 0.36224 0.58997 -0.25600
N 	N 	0.79960 0.27508 0.44020 -0.07700
N 	N 	0.86620 0.26077 0.36900 -0.07500
N 	N 	0.19314 0.15836 0.25611 -0.25900
N 	N 	0.20525 0.37823 0.52734 -0.26400
N 	N 	0.94870 0.36782 0.17278 -0.08100
N 	N 	0.86196 0.37867 0.08620 -0.07900
N 	N 	0.48216 0.36834 0.82763 -0.26700
