data_crystal

_cell_length_a 10.33710
_cell_length_b 31.93900
_cell_length_c 31.98800
_cell_angle_alpha 90.00000
_cell_angle_beta  90.00000
_cell_angle_gamma 91.93700

_symmetry_space_group_name_	'P 1'
_symmetry_space_group_name_H-M	'P 1'

loop_
_symmetry_equiv_pos_as_xyz
  x,y,z

loop_
_atom_site_label
_atom_site_type_symbol
_atom_site_fract_x
_atom_site_fract_y
_atom_site_fract_z
_atom_site_charge
Zn	Zn	0.46984 0.13249 0.80010 1.21800
Zn	Zn	0.66805 0.78361 0.21775 1.22000
Zn	Zn	0.37696 0.77836 0.21206 1.22300
Zn	Zn	0.02576 0.29728 0.37133 1.21800
Zn	Zn	0.97424 0.70272 0.62867 1.21700
Zn	Zn	0.53016 0.86751 0.19990 1.21700
Zn	Zn	0.87696 0.27836 0.28794 1.22300
Zn	Zn	0.52576 0.79728 0.12867 1.21700
Zn	Zn	0.83195 0.71639 0.71775 1.21900
Zn	Zn	0.47424 0.20272 0.87133 1.21700
Zn	Zn	0.33195 0.21639 0.78225 1.21900
Zn	Zn	0.16805 0.28361 0.28225 1.21900
Zn	Zn	0.03016 0.36751 0.30010 1.21700
Zn	Zn	0.12304 0.72164 0.71206 1.22300
Zn	Zn	0.62304 0.22164 0.78794 1.22200
Zn	Zn	0.96984 0.63249 0.69990 1.21700
H 	H 	0.94210 0.74470 0.98630 0.13200
H 	H 	0.98090 0.47930 0.56720 0.07400
H 	H 	0.28390 0.08850 0.24490 0.06800
H 	H 	0.44210 0.24470 0.51370 0.13300
H 	H 	0.51240 0.06870 0.02130 0.07500
H 	H 	0.53660 0.97090 0.11660 0.02600
H 	H 	0.39090 0.63810 0.20970 0.04700
H 	H 	0.01240 0.56870 0.47870 0.07400
H 	H 	0.03460 0.99020 0.74600 0.13500
H 	H 	0.99390 0.61800 0.52760 0.02500
H 	H 	0.82960 0.75340 0.04550 0.08200
H 	H 	0.76560 0.05070 0.75570 0.10800
H 	H 	0.21610 0.41150 0.74490 0.06900
H 	H 	0.76990 0.24920 0.59230 0.07100
H 	H 	0.28460 0.75070 0.54860 0.10900
H 	H 	0.53020 0.33970 0.27030 0.06600
H 	H 	0.63920 0.78610 0.35640 0.04200
H 	H 	0.34580 0.44740 0.25270 0.08300
H 	H 	0.03020 0.83970 0.22970 0.06600
H 	H 	0.49390 0.11800 0.97240 0.02400
H 	H 	0.91520 0.06660 0.27900 0.04900
H 	H 	0.96980 0.16030 0.77030 0.06600
H 	H 	0.41520 0.56660 0.22100 0.04900
H 	H 	0.05790 0.25530 0.01370 0.13200
H 	H 	0.13920 0.28610 0.14360 0.04300
H 	H 	0.76300 0.66050 0.24170 0.05400
H 	H 	0.46340 0.02910 0.88340 0.02600
H 	H 	0.23010 0.75080 0.40770 0.07100
H 	H 	0.76200 0.25890 0.16390 0.04800
H 	H 	0.73700 0.83950 0.74170 0.05400
H 	H 	0.73010 0.25080 0.09230 0.07100
H 	H 	0.84580 0.94740 0.24730 0.08300
H 	H 	0.58480 0.43340 0.77900 0.04900
H 	H 	0.36080 0.21390 0.64360 0.04200
H 	H 	0.98070 0.23360 0.84460 0.06400
H 	H 	0.00610 0.38200 0.47240 0.02500
H 	H 	0.89090 0.13810 0.29030 0.04700
H 	H 	0.67040 0.74660 0.54550 0.08200
H 	H 	0.89070 0.72240 0.92750 0.05300
H 	H 	0.60930 0.77760 0.42750 0.05200
H 	H 	0.96540 0.00980 0.25400 0.13500
H 	H 	0.51930 0.26640 0.34460 0.06400
H 	H 	0.55790 0.75530 0.48630 0.13300
H 	H 	0.71540 0.24930 0.45140 0.10900
H 	H 	0.73800 0.24110 0.66390 0.04800
H 	H 	0.98760 0.43130 0.52130 0.07400
H 	H 	0.10930 0.27760 0.07250 0.05300
H 	H 	0.26990 0.74920 0.90770 0.07100
H 	H 	0.48090 0.97930 0.93280 0.07400
H 	H 	0.26200 0.75890 0.33610 0.04800
H 	H 	0.26300 0.16050 0.25830 0.05400
H 	H 	0.71610 0.91150 0.75510 0.06800
H 	H 	0.03660 0.47090 0.38340 0.02600
H 	H 	0.32960 0.25340 0.45450 0.08200
H 	H 	0.60910 0.36190 0.79030 0.04700
H 	H 	0.23800 0.74110 0.83610 0.04800
H 	H 	0.10910 0.86190 0.70970 0.04700
H 	H 	0.01910 0.52070 0.43280 0.07400
H 	H 	0.48760 0.93130 0.97870 0.07500
H 	H 	0.01930 0.76640 0.15540 0.06400
H 	H 	0.50610 0.88200 0.02760 0.02400
H 	H 	0.21540 0.74930 0.04860 0.10800
H 	H 	0.96340 0.52910 0.61660 0.02600
H 	H 	0.39070 0.22240 0.57250 0.05200
H 	H 	0.23700 0.33950 0.75830 0.05400
H 	H 	0.65420 0.55260 0.74730 0.08300
H 	H 	0.78390 0.58850 0.25510 0.06900
H 	H 	0.73440 0.44930 0.25570 0.10800
H 	H 	0.78460 0.25070 0.95140 0.10800
H 	H 	0.26560 0.55070 0.74430 0.10800
H 	H 	0.17040 0.24660 0.95450 0.08200
H 	H 	0.51910 0.02070 0.06720 0.07400
H 	H 	0.46980 0.66030 0.72970 0.06600
H 	H 	0.08480 0.93340 0.72100 0.04900
H 	H 	0.23440 0.94930 0.24430 0.10800
H 	H 	0.46540 0.50980 0.24600 0.13400
H 	H 	0.86080 0.71390 0.85640 0.04300
H 	H 	0.48070 0.73360 0.65540 0.06400
H 	H 	0.53460 0.49020 0.75400 0.13400
H 	H 	0.15420 0.05260 0.75270 0.08300
C 	C 	0.03298 0.86863 0.23348 -0.00800
C 	C 	0.03970 0.27383 0.09068 -0.06500
C 	C 	0.94280 0.72092 0.86672 0.01900
C 	C 	0.19270 0.14187 0.26181 0.00300
C 	C 	0.13757 0.75293 0.06249 -0.09900
C 	C 	0.99210 0.58988 0.53521 0.06700
C 	C 	0.70580 0.59835 0.24544 -0.05100
C 	C 	0.08069 0.10928 0.76313 -0.05000
C 	C 	0.39470 0.42870 0.76164 -0.02300
C 	C 	0.77450 0.36960 0.27312 0.38200
C 	C 	0.68800 0.24234 0.60269 -0.06100
C 	C 	0.63757 0.25293 0.43751 -0.09900
C 	C 	0.53840 0.45536 0.25267 0.13900
C 	C 	0.50440 0.98299 0.01632 0.05000
C 	C 	0.97660 0.24841 0.95961 0.14200
C 	C 	0.86243 0.24707 0.93751 -0.09900
C 	C 	0.97070 0.61218 0.61008 0.42200
C 	C 	0.07270 0.15621 0.27426 -0.08800
C 	C 	0.40647 0.25531 0.43936 -0.09900
C 	C 	0.40320 0.26196 0.39568 -0.05500
C 	C 	0.45500 0.77404 0.33934 -0.10400
C 	C 	0.52060 0.92136 0.07672 -0.14000
C 	C 	0.33100 0.76284 0.35455 0.01900
C 	C 	0.42280 0.43343 0.25568 -0.10200
C 	C 	0.80730 0.85813 0.73819 0.00300
C 	C 	0.95500 0.27404 0.16066 -0.10300
C 	C 	0.99850 0.43934 0.49356 -0.12100
C 	C 	0.93410 0.79722 0.71878 0.38300
C 	C 	0.75942 0.26403 0.37024 0.38600
C 	C 	0.78030 0.76946 0.12722 0.38000
C 	C 	0.47940 0.07864 0.92328 -0.14000
C 	C 	0.63760 0.25970 0.39459 -0.05500
C 	C 	0.00150 0.56066 0.50644 -0.12100
C 	C 	0.74058 0.23597 0.87024 0.38600
C 	C 	0.02060 0.42136 0.42328 -0.13900
C 	C 	0.22550 0.63040 0.72688 0.38200
C 	C 	0.56590 0.70278 0.21878 0.38500
C 	C 	0.15560 0.93445 0.24277 -0.09500
C 	C 	0.50150 0.06066 0.99356 -0.12300
C 	C 	0.91780 0.26294 0.07538 -0.01500
C 	C 	0.04500 0.72596 0.83934 -0.10300
C 	C 	0.53970 0.77383 0.40932 -0.06300
C 	C 	0.49560 0.01701 0.98368 0.05000
C 	C 	0.25942 0.76403 0.12976 0.38600
C 	C 	0.02930 0.38782 0.38992 0.42200
C 	C 	0.84440 0.06555 0.75723 -0.09500
C 	C 	0.96160 0.04464 0.75267 0.13900
C 	C 	0.07720 0.06657 0.75568 -0.10100
C 	C 	0.72550 0.13040 0.77312 0.38200
C 	C 	0.15210 0.89131 0.23589 -0.05300
C 	C 	0.57270 0.65621 0.22574 -0.08600
C 	C 	0.01560 0.91452 0.72526 -0.05300
C 	C 	0.47660 0.74841 0.54039 0.14200
C 	C 	0.05720 0.27908 0.13328 0.01900
C 	C 	0.53010 0.37167 0.78125 0.00800
C 	C 	0.92730 0.84379 0.72574 -0.08800
C 	C 	0.36243 0.74707 0.56249 -0.09900
C 	C 	0.70520 0.63321 0.73238 0.36600
C 	C 	0.86240 0.24030 0.89459 -0.05600
C 	C 	0.10530 0.07130 0.26164 -0.02500
C 	C 	0.00790 0.41012 0.46479 0.06700
C 	C 	0.38610 0.75908 0.47004 0.21200
C 	C 	0.59353 0.74469 0.56064 -0.09900
C 	C 	0.65210 0.39131 0.26411 -0.05200
C 	C 	0.98440 0.08548 0.27474 -0.05300
C 	C 	0.27450 0.86960 0.22688 0.38200
C 	C 	0.24058 0.73597 0.62976 0.38600
C 	C 	0.36610 0.47431 0.75931 0.21500
C 	C 	0.55720 0.77908 0.36672 0.02000
C 	C 	0.09353 0.24469 0.93936 -0.10000
C 	C 	0.03010 0.87167 0.71875 0.01000
C 	C 	0.92280 0.93343 0.24432 -0.10100
C 	C 	0.84790 0.10869 0.76411 -0.05300
C 	C 	0.03840 0.95536 0.24733 0.13900
C 	C 	0.46030 0.22617 0.59068 -0.06300
C 	C 	0.41931 0.39072 0.26313 -0.05000
C 	C 	0.46160 0.54464 0.74733 0.13900
C 	C 	0.51710 0.99274 0.05915 -0.12000
C 	C 	0.42730 0.34379 0.77426 -0.08600
C 	C 	0.29420 0.40165 0.75456 -0.05100
C 	C 	0.44280 0.22092 0.63328 0.02000
C 	C 	0.52930 0.88782 0.11008 0.42200
C 	C 	0.51990 0.26323 0.37354 -0.00500
C 	C 	0.43410 0.29722 0.78122 0.38500
C 	C 	0.97360 0.53656 0.58862 0.06300
C 	C 	0.46702 0.63137 0.73348 -0.00800
C 	C 	0.01710 0.49274 0.44085 -0.11900
C 	C 	0.34440 0.56555 0.74277 -0.09500
C 	C 	0.69270 0.64187 0.23819 0.00300
C 	C 	0.58220 0.23706 0.57538 -0.01700
C 	C 	0.34790 0.60869 0.73589 -0.05200
C 	C 	0.63390 0.52569 0.24069 0.21500
C 	C 	0.08220 0.73706 0.92462 -0.01500
C 	C 	0.52690 0.22146 0.70710 0.41700
C 	C 	0.59680 0.73804 0.60432 -0.05500
C 	C 	0.57720 0.56657 0.74432 -0.10200
C 	C 	0.20580 0.09835 0.25456 -0.05000
C 	C 	0.41780 0.76294 0.42462 -0.01700
C 	C 	0.18800 0.74234 0.89731 -0.06200
C 	C 	0.21970 0.23054 0.87278 0.38000
C 	C 	0.20520 0.13321 0.76762 0.36600
C 	C 	0.60530 0.57130 0.23836 -0.02300
C 	C 	0.47070 0.11218 0.88992 0.42200
C 	C 	0.51560 0.41452 0.77474 -0.05500
C 	C 	0.47360 0.03656 0.91138 0.06400
C 	C 	0.02640 0.46344 0.41138 0.06300
C 	C 	0.96030 0.72617 0.90932 -0.06500
C 	C 	0.01990 0.76323 0.12646 -0.00400
C 	C 	0.83100 0.26284 0.14545 0.01900
C 	C 	0.98010 0.23677 0.87354 -0.00400
C 	C 	0.48290 0.00726 0.94085 -0.12000
C 	C 	0.49210 0.08988 0.96479 0.07000
C 	C 	0.06590 0.20278 0.28122 0.38300
C 	C 	0.47310 0.77854 0.29290 0.41700
C 	C 	0.86610 0.97431 0.74069 0.21500
C 	C 	0.91931 0.89072 0.23687 -0.05000
C 	C 	0.46990 0.62833 0.21875 0.00800
C 	C 	0.98290 0.50726 0.55915 -0.11900
C 	C 	0.48010 0.73677 0.62646 -0.00500
C 	C 	0.30730 0.35813 0.76181 0.00300
C 	C 	0.97310 0.27854 0.20710 0.42000
C 	C 	0.00440 0.48299 0.48368 0.04900
C 	C 	0.54500 0.22596 0.66066 -0.10400
C 	C 	0.52340 0.25159 0.45961 0.14200
C 	C 	0.96990 0.12833 0.28125 0.01000
C 	C 	0.52640 0.96344 0.08862 0.06400
C 	C 	0.16900 0.73716 0.85455 0.01900
C 	C 	0.02340 0.75159 0.04039 0.14200
C 	C 	0.13390 0.02569 0.25931 0.21500
C 	C 	0.79480 0.86679 0.23238 0.36600
C 	C 	0.96702 0.13137 0.76652 -0.00800
C 	C 	0.89470 0.92870 0.73836 -0.02500
C 	C 	0.99560 0.51701 0.51632 0.04900
C 	C 	0.66900 0.23716 0.64545 0.01900
C 	C 	0.79420 0.90165 0.74544 -0.05000
C 	C 	0.09680 0.23804 0.89568 -0.05500
C 	C 	0.28030 0.26946 0.37278 0.38000
C 	C 	0.81200 0.25766 0.10269 -0.06200
C 	C 	0.49850 0.93934 0.00644 -0.12300
C 	C 	0.13760 0.75970 0.10541 -0.05600
C 	C 	0.31200 0.75766 0.39731 -0.06100
C 	C 	0.48440 0.58548 0.22526 -0.05500
C 	C 	0.88610 0.25908 0.02996 0.21200
C 	C 	0.65560 0.43445 0.25723 -0.09500
C 	C 	0.90647 0.75531 0.06064 -0.10000
C 	C 	0.97940 0.57864 0.57672 -0.13900
C 	C 	0.58069 0.60928 0.73687 -0.05000
C 	C 	0.11390 0.74092 0.97004 0.21200
C 	C 	0.36240 0.74030 0.60541 -0.05500
C 	C 	0.71970 0.73054 0.62722 0.38000
C 	C 	0.29480 0.36679 0.26762 0.36600
C 	C 	0.90320 0.76196 0.10432 -0.05500
C 	C 	0.02690 0.72146 0.79290 0.42000
C 	C 	0.50790 0.91012 0.03521 0.07000
C 	C 	0.53298 0.36863 0.26652 -0.00800
C 	C 	0.61390 0.24092 0.52996 0.21200
N 	N 	0.54062 0.49916 0.24623 -0.24900
N 	N 	0.98150 0.25445 0.00302 -0.24200
N 	N 	0.04062 0.99916 0.25377 -0.24900
N 	N 	0.48150 0.75445 0.49698 -0.24300
N 	N 	0.01850 0.74555 0.99698 -0.24200
N 	N 	0.95938 0.00084 0.74623 -0.24900
N 	N 	0.45938 0.50084 0.75377 -0.24900
N 	N 	0.51850 0.24555 0.50302 -0.24300
O 	O 	0.75260 0.51517 0.24083 -0.21500
O 	O 	0.78756 0.77309 0.16525 -0.46300
O 	O 	0.82107 0.72866 0.60539 -0.47600
O 	O 	0.57614 0.79150 0.27949 -0.47000
O 	O 	0.69293 0.88730 0.22577 -0.47500
O 	O 	0.62224 0.11025 0.77282 -0.48100
O 	O 	0.24870 0.73874 0.66866 -0.47100
O 	O 	0.52480 0.85083 0.09795 -0.49900
O 	O 	0.32107 0.22866 0.89461 -0.47500
O 	O 	0.03773 0.78360 0.70575 -0.44900
O 	O 	0.47520 0.14917 0.90205 -0.49900
O 	O 	0.63842 0.22937 0.89043 -0.48300
O 	O 	0.29850 0.32775 0.26566 -0.46300
O 	O 	0.46227 0.71640 0.20575 -0.45200
O 	O 	0.67893 0.77134 0.10539 -0.47500
O 	O 	0.22532 0.73489 0.98319 -0.21900
O 	O 	0.16364 0.22343 0.27045 -0.47100
O 	O 	0.92386 0.70850 0.77949 -0.47300
O 	O 	0.75130 0.26126 0.33134 -0.47100
O 	O 	0.62393 0.23212 0.72787 -0.48100
O 	O 	0.07614 0.29150 0.22051 -0.47300
O 	O 	0.71244 0.72691 0.66525 -0.46300
O 	O 	0.02480 0.35083 0.40205 -0.49900
O 	O 	0.19293 0.38730 0.27423 -0.47500
O 	O 	0.13842 0.72937 0.60957 -0.48200
O 	O 	0.25130 0.76126 0.16866 -0.47200
O 	O 	0.73824 0.16929 0.77874 -0.45600
O 	O 	0.17893 0.27134 0.39461 -0.47600
O 	O 	0.23824 0.66929 0.72126 -0.45500
O 	O 	0.70150 0.67225 0.73434 -0.46300
O 	O 	0.74870 0.23874 0.83134 -0.47200
O 	O 	0.37607 0.76788 0.27213 -0.48100
O 	O 	0.42386 0.20850 0.72051 -0.47000
O 	O 	0.03242 0.39955 0.35279 -0.49800
O 	O 	0.96758 0.60045 0.64721 -0.49800
O 	O 	0.87776 0.38975 0.27282 -0.48000
O 	O 	0.53242 0.89955 0.14721 -0.49700
O 	O 	0.21244 0.22691 0.83475 -0.46300
O 	O 	0.86158 0.27063 0.39043 -0.48200
O 	O 	0.25260 0.01517 0.25917 -0.21600
O 	O 	0.28756 0.27309 0.33475 -0.46300
O 	O 	0.97494 0.69148 0.68739 -0.94000
O 	O 	0.79850 0.82775 0.23434 -0.46300
O 	O 	0.76176 0.33071 0.27874 -0.45500
O 	O 	0.66364 0.72343 0.22955 -0.47200
O 	O 	0.97520 0.64917 0.59795 -0.49900
O 	O 	0.26176 0.83071 0.22126 -0.45600
O 	O 	0.87607 0.26788 0.22787 -0.48100
O 	O 	0.46758 0.10045 0.85279 -0.49700
O 	O 	0.02506 0.30852 0.31261 -0.94000
O 	O 	0.30707 0.11270 0.77423 -0.47500
O 	O 	0.20150 0.17225 0.76566 -0.46300
O 	O 	0.52506 0.80852 0.18739 -0.93900
O 	O 	0.77468 0.26511 0.01681 -0.21900
O 	O 	0.37776 0.88975 0.22718 -0.48100
O 	O 	0.36158 0.77063 0.10957 -0.48300
O 	O 	0.12224 0.61025 0.72718 -0.48000
O 	O 	0.72532 0.23489 0.51681 -0.21900
O 	O 	0.12393 0.73212 0.77213 -0.48100
O 	O 	0.83636 0.77657 0.72955 -0.47100
O 	O 	0.24740 0.48483 0.75917 -0.21500
O 	O 	0.33636 0.27657 0.77045 -0.47200
O 	O 	0.74740 0.98483 0.74083 -0.21600
O 	O 	0.96227 0.21640 0.29425 -0.44900
O 	O 	0.53773 0.28360 0.79425 -0.45200
O 	O 	0.47494 0.19148 0.81261 -0.93900
O 	O 	0.80707 0.61270 0.72577 -0.47500
O 	O 	0.27468 0.76511 0.48319 -0.21900
