data_crystal

_cell_length_a 15.91390
_cell_length_b 16.03590
_cell_length_c 18.04940
_cell_angle_alpha 106.39300
_cell_angle_beta  97.74700
_cell_angle_gamma 95.35100

_symmetry_space_group_name_	'P 1'
_symmetry_space_group_name_H-M	'P 1'

loop_
_symmetry_equiv_pos_as_xyz
  x,y,z

loop_
_atom_site_label
_atom_site_type_symbol
_atom_site_fract_x
_atom_site_fract_y
_atom_site_fract_z
_atom_site_charge
C 	C 	0.38270 0.90440 0.28370 0.10000
H 	H 	0.39560 0.92600 0.24330 -0.04300
C 	C 	0.37950 0.81460 0.27320 -0.18900
H 	H 	0.38990 0.77750 0.22640 0.08700
C 	C 	0.34930 0.92680 0.40560 0.10000
H 	H 	0.33890 0.96500 0.45180 -0.04200
C 	C 	0.34480 0.83890 0.39920 -0.19100
H 	H 	0.33080 0.81880 0.44020 0.10300
C 	C 	0.36100 0.78100 0.33210 0.12400
C 	C 	0.35730 0.68620 0.32100 -0.05700
H 	H 	0.36580 0.64960 0.27330 0.05500
C 	C 	0.36060 0.53250 0.40920 -0.07200
H 	H 	0.37430 0.57160 0.45950 0.05900
C 	C 	0.36190 0.43830 0.39800 0.15400
C 	C 	0.33110 0.37580 0.33000 -0.22800
H 	H 	0.30730 0.39150 0.28680 0.12000
C 	C 	0.33470 0.28880 0.32390 0.13700
H 	H 	0.31030 0.24740 0.27650 -0.05400
C 	C 	0.39740 0.32140 0.44840 0.11100
H 	H 	0.41970 0.30360 0.49090 -0.04600
C 	C 	0.39460 0.41010 0.45920 -0.21200
H 	H 	0.41500 0.45040 0.50810 0.09400
C 	C 	0.56780 0.20600 0.38770 0.09000
H 	H 	0.53890 0.25450 0.39210 -0.03400
C 	C 	0.65570 0.21810 0.39120 -0.18500
H 	H 	0.68500 0.27360 0.39880 0.08600
C 	C 	0.69880 0.14680 0.38350 0.11800
C 	C 	0.65300 0.06500 0.37170 -0.17500
H 	H 	0.68040 0.01520 0.36490 0.09300
C 	C 	0.56590 0.05920 0.37050 0.08000
H 	H 	0.53540 0.00460 0.36400 -0.03000
C 	C 	0.79220 0.15730 0.38470 -0.05100
H 	H 	0.82410 0.21270 0.40540 0.05800
C 	C 	0.95360 0.05440 0.32950 -0.04200
H 	H 	0.92130 0.00180 0.29830 0.05700
C 	C 	0.04930 0.06850 0.33540 0.11400
C 	C 	0.08920 0.00850 0.28380 -0.17300
H 	H 	0.05760 0.96040 0.24520 0.08900
C 	C 	0.17880 0.02370 0.29280 0.08900
H 	H 	0.20610 0.98450 0.25890 -0.03300
C 	C 	0.18640 0.14880 0.39570 0.08600
H 	H 	0.21920 0.19660 0.43390 -0.03300
C 	C 	0.09820 0.13930 0.39060 -0.17100
H 	H 	0.07250 0.18050 0.42430 0.09700
Cd	Cd	0.37487 0.11089 0.36386 1.15900
N 	N 	0.52263 0.12870 0.37820 -0.27200
N 	N 	0.82930 0.09100 0.35770 -0.07500
N 	N 	0.91860 0.11560 0.36780 -0.07700
N 	N 	0.22680 0.09170 0.34750 -0.26600
N 	N 	0.36804 0.96038 0.34879 -0.27000
N 	N 	0.34310 0.65330 0.37420 -0.07700
N 	N 	0.34140 0.56140 0.35170 -0.07300
N 	N 	0.36955 0.26043 0.37954 -0.28100
C 	C 	0.61730 0.09560 0.71630 0.10100
H 	H 	0.60440 0.07400 0.75670 -0.04300
C 	C 	0.62050 0.18540 0.72680 -0.18900
H 	H 	0.61010 0.22250 0.77360 0.08700
C 	C 	0.65070 0.07320 0.59440 0.10000
H 	H 	0.66110 0.03500 0.54820 -0.04200
C 	C 	0.65520 0.16110 0.60080 -0.19100
H 	H 	0.66920 0.18120 0.55980 0.10300
C 	C 	0.63900 0.21900 0.66790 0.12400
C 	C 	0.64270 0.31380 0.67900 -0.05700
H 	H 	0.63420 0.35040 0.72670 0.05500
C 	C 	0.63940 0.46750 0.59080 -0.07200
H 	H 	0.62570 0.42840 0.54050 0.05900
C 	C 	0.63810 0.56170 0.60200 0.15400
C 	C 	0.66890 0.62420 0.67000 -0.22800
H 	H 	0.69270 0.60850 0.71320 0.12000
C 	C 	0.66530 0.71120 0.67610 0.13700
H 	H 	0.68970 0.75260 0.72350 -0.05400
C 	C 	0.60260 0.67860 0.55160 0.11100
H 	H 	0.58030 0.69640 0.50910 -0.04600
C 	C 	0.60540 0.58990 0.54080 -0.21200
H 	H 	0.58500 0.54960 0.49190 0.09400
C 	C 	0.43220 0.79400 0.61230 0.09000
H 	H 	0.46110 0.74550 0.60790 -0.03400
C 	C 	0.34430 0.78190 0.60880 -0.18500
H 	H 	0.31500 0.72640 0.60120 0.08600
C 	C 	0.30120 0.85320 0.61650 0.11800
C 	C 	0.34700 0.93500 0.62830 -0.17500
H 	H 	0.31960 0.98480 0.63510 0.09300
C 	C 	0.43410 0.94080 0.62950 0.08000
H 	H 	0.46460 0.99540 0.63600 -0.03000
C 	C 	0.20780 0.84270 0.61530 -0.05100
H 	H 	0.17590 0.78730 0.59460 0.05800
C 	C 	0.04640 0.94560 0.67050 -0.04200
H 	H 	0.07870 0.99820 0.70170 0.05700
C 	C 	0.95070 0.93150 0.66460 0.11400
C 	C 	0.91080 0.99150 0.71620 -0.17300
H 	H 	0.94240 0.03960 0.75480 0.08800
C 	C 	0.82120 0.97630 0.70720 0.08900
H 	H 	0.79390 0.01550 0.74110 -0.03300
C 	C 	0.81360 0.85120 0.60430 0.08600
H 	H 	0.78080 0.80340 0.56610 -0.03300
C 	C 	0.90180 0.86070 0.60940 -0.17100
H 	H 	0.92750 0.81950 0.57570 0.09700
Cd	Cd	0.62513 0.88910 0.63614 1.15900
N 	N 	0.47737 0.87130 0.62180 -0.27200
N 	N 	0.17070 0.90900 0.64230 -0.07500
N 	N 	0.08140 0.88440 0.63220 -0.07700
N 	N 	0.77320 0.90830 0.65250 -0.26600
N 	N 	0.63196 0.03962 0.65121 -0.27000
N 	N 	0.65690 0.34670 0.62580 -0.07700
N 	N 	0.65860 0.43860 0.64830 -0.07300
N 	N 	0.63045 0.73957 0.62046 -0.28100
C 	C 	0.39110 0.79330 0.82240 0.09200
H 	H 	0.38670 0.75370 0.77280 -0.04400
C 	C 	0.39290 0.88260 0.82940 -0.18200
H 	H 	0.39290 0.90230 0.78560 0.09800
C 	C 	0.39480 0.94130 0.90310 0.12300
C 	C 	0.40120 0.90930 0.96570 -0.19200
H 	H 	0.40500 0.94730 0.01600 0.09100
C 	C 	0.40210 0.82030 0.95450 0.10500
H 	H 	0.40760 0.80010 0.99820 -0.04200
C 	C 	0.39440 0.03610 0.91510 -0.05600
H 	H 	0.39220 0.07320 0.96460 0.05500
C 	C 	0.39230 0.18940 0.82390 -0.05700
H 	H 	0.39230 0.15180 0.77410 0.05500
C 	C 	0.39010 0.28380 0.83520 0.11900
C 	C 	0.39130 0.31570 0.77210 -0.18900
H 	H 	0.39230 0.27780 0.72270 0.08600
C 	C 	0.39090 0.40440 0.78280 0.10200
H 	H 	0.39110 0.42480 0.73950 -0.04600
C 	C 	0.38890 0.43090 0.91360 0.09100
H 	H 	0.38830 0.47030 0.96240 -0.04400
C 	C 	0.38850 0.34250 0.90790 -0.18600
H 	H 	0.38710 0.32330 0.95180 0.09300
C 	C 	0.58910 0.70900 0.90020 0.07900
H 	H 	0.56100 0.75820 0.91200 -0.02600
C 	C 	0.67710 0.72120 0.90560 -0.17700
H 	H 	0.70760 0.77740 0.92180 0.08500
C 	C 	0.71900 0.64790 0.88640 0.11600
C 	C 	0.67120 0.56510 0.86480 -0.17700
H 	H 	0.69780 0.51490 0.85260 0.09600
C 	C 	0.58430 0.55900 0.86180 0.08500
H 	H 	0.55280 0.50340 0.84730 -0.03000
C 	C 	0.81020 0.65810 0.88840 -0.05500
H 	H 	0.84230 0.71250 0.91480 0.05900
C 	C 	0.97360 0.55750 0.82640 -0.04300
H 	H 	0.94120 0.50560 0.79400 0.05800
C 	C 	0.06850 0.57080 0.83320 0.10600
C 	C 	0.11780 0.64300 0.88950 -0.14300
H 	H 	0.09170 0.68400 0.92300 0.08600
C 	C 	0.19820 0.52520 0.79390 0.08600
H 	H 	0.22540 0.48480 0.76090 -0.03200
C 	C 	0.10950 0.51130 0.78530 -0.16900
H 	H 	0.07830 0.46220 0.74740 0.08700
Cd	Cd	0.39410 0.61188 0.86639 1.15900
N 	N 	0.24620 0.59440 0.84790 -0.25900
N 	N 	0.84850 0.59500 0.85520 -0.07400
N 	N 	0.54237 0.62895 0.87870 -0.26800
N 	N 	0.39019 0.46196 0.85210 -0.26900
N 	N 	0.39420 0.15900 0.88210 -0.08000
N 	N 	0.39710 0.06720 0.85790 -0.07800
N 	N 	0.39550 0.76275 0.88422 -0.26800
C 	C 	0.20580 0.65320 0.89520 0.04200
N 	N 	0.93770 0.61930 0.86640 -0.07600
C 	C 	0.60890 0.20670 0.17760 0.09200
H 	H 	0.61330 0.24630 0.22720 -0.04400
C 	C 	0.60710 0.11740 0.17060 -0.18200
H 	H 	0.60710 0.09770 0.21440 0.09800
C 	C 	0.60520 0.05870 0.09690 0.12300
C 	C 	0.59880 0.09070 0.03430 -0.19200
H 	H 	0.59500 0.05270 0.98400 0.09100
C 	C 	0.59790 0.17970 0.04550 0.10500
H 	H 	0.59240 0.19990 0.00180 -0.04200
C 	C 	0.60560 0.96390 0.08490 -0.05600
H 	H 	0.60780 0.92680 0.03540 0.05500
C 	C 	0.60770 0.81060 0.17610 -0.05700
H 	H 	0.60770 0.84820 0.22590 0.05500
C 	C 	0.60990 0.71620 0.16480 0.11900
C 	C 	0.60870 0.68430 0.22790 -0.18900
H 	H 	0.60770 0.72220 0.27730 0.08600
C 	C 	0.60910 0.59560 0.21720 0.10200
H 	H 	0.60890 0.57520 0.26050 -0.04600
C 	C 	0.61110 0.56910 0.08640 0.09100
H 	H 	0.61170 0.52970 0.03760 -0.04400
C 	C 	0.61150 0.65750 0.09210 -0.18600
H 	H 	0.61290 0.67670 0.04820 0.09300
C 	C 	0.41090 0.29100 0.09980 0.07900
H 	H 	0.43900 0.24180 0.08800 -0.02600
C 	C 	0.32290 0.27880 0.09440 -0.17700
H 	H 	0.29240 0.22260 0.07820 0.08500
C 	C 	0.28100 0.35210 0.11360 0.11600
C 	C 	0.32880 0.43490 0.13520 -0.17700
H 	H 	0.30220 0.48510 0.14740 0.09600
C 	C 	0.41570 0.44100 0.13820 0.08500
H 	H 	0.44720 0.49660 0.15270 -0.03000
C 	C 	0.18980 0.34190 0.11160 -0.05500
H 	H 	0.15770 0.28750 0.08520 0.05900
C 	C 	0.02640 0.44250 0.17360 -0.04300
H 	H 	0.05880 0.49440 0.20600 0.05800
C 	C 	0.93150 0.42920 0.16680 0.10600
C 	C 	0.88220 0.35700 0.11050 -0.14300
H 	H 	0.90830 0.31600 0.07700 0.08600
C 	C 	0.80180 0.47480 0.20610 0.08600
H 	H 	0.77460 0.51520 0.23910 -0.03200
C 	C 	0.89050 0.48870 0.21470 -0.16900
H 	H 	0.92170 0.53780 0.25260 0.08700
Cd	Cd	0.60590 0.38812 0.13361 1.15900
N 	N 	0.75380 0.40560 0.15210 -0.25900
N 	N 	0.15150 0.40500 0.14480 -0.07400
N 	N 	0.45763 0.37105 0.12130 -0.26800
N 	N 	0.60981 0.53804 0.14790 -0.26900
N 	N 	0.60580 0.84100 0.11790 -0.08000
N 	N 	0.60290 0.93280 0.14210 -0.07800
N 	N 	0.60450 0.23725 0.11578 -0.26800
C 	C 	0.79420 0.34680 0.10480 0.04200
N 	N 	0.06230 0.38070 0.13360 -0.07600
