data_crystal

_cell_length_a 9.37270
_cell_length_b 11.98650
_cell_length_c 16.42760
_cell_angle_alpha 90.00000
_cell_angle_beta  90.00000
_cell_angle_gamma 109.61600

_symmetry_space_group_name_	'P 1'
_symmetry_space_group_name_H-M	'P 1'

loop_
_symmetry_equiv_pos_as_xyz
  x,y,z

loop_
_atom_site_label
_atom_site_type_symbol
_atom_site_fract_x
_atom_site_fract_y
_atom_site_fract_z
_atom_site_charge
Co	Co	0.87611 0.52069 0.41239 1.19400
Co	Co	0.62389 0.97931 0.91239 1.19400
Co	Co	0.37611 0.02069 0.08761 1.19400
Co	Co	0.12389 0.47931 0.58761 1.19400
H 	H 	0.73070 0.26620 0.19570 0.05300
H 	H 	0.23070 0.76620 0.30430 0.05400
H 	H 	0.01480 0.87950 0.93360 0.05200
H 	H 	0.65440 0.80490 0.23220 0.05600
H 	H 	0.15440 0.30490 0.26780 0.05600
H 	H 	0.51480 0.37950 0.56640 0.05300
H 	H 	0.76930 0.23380 0.69570 0.05400
H 	H 	0.48520 0.62050 0.43360 0.05300
H 	H 	0.34560 0.19510 0.76780 0.05600
H 	H 	0.98520 0.12050 0.06640 0.05200
H 	H 	0.84560 0.69510 0.73220 0.05600
H 	H 	0.26930 0.73380 0.80430 0.05300
C 	C 	0.76580 0.82530 0.84400 0.33800
C 	C 	0.73420 0.67470 0.34400 0.33800
C 	C 	0.70720 0.12790 0.06610 0.41600
C 	C 	0.92520 0.72560 0.76860 0.03700
C 	C 	0.90800 0.79320 0.83440 -0.09000
C 	C 	0.79280 0.37210 0.56610 0.41600
C 	C 	0.42540 0.87120 0.18590 0.31200
C 	C 	0.92540 0.37120 0.31410 0.31300
C 	C 	0.29280 0.87210 0.93390 0.41600
C 	C 	0.42520 0.22560 0.73140 0.03600
C 	C 	0.09200 0.20680 0.16560 -0.09000
C 	C 	0.43860 0.79700 0.25660 -0.08600
C 	C 	0.82090 0.25110 0.18840 0.05300
C 	C 	0.93860 0.29700 0.24340 -0.08700
C 	C 	0.16410 0.81710 0.87750 -0.12300
C 	C 	0.33590 0.68290 0.37750 -0.12200
C 	C 	0.26580 0.32530 0.65600 0.33800
C 	C 	0.57480 0.77440 0.26860 0.03600
C 	C 	0.06140 0.70300 0.75660 -0.08700
C 	C 	0.97320 0.16360 0.11140 0.05600
C 	C 	0.23420 0.17470 0.15600 0.33800
C 	C 	0.40800 0.29320 0.66560 -0.08900
C 	C 	0.66410 0.31710 0.62250 -0.12200
C 	C 	0.83590 0.18290 0.12250 -0.12300
C 	C 	0.20720 0.62790 0.43390 0.41600
C 	C 	0.17910 0.74890 0.81160 0.05300
C 	C 	0.52680 0.33640 0.61140 0.05500
C 	C 	0.07460 0.62880 0.68590 0.31300
C 	C 	0.32090 0.75110 0.31160 0.05300
C 	C 	0.57460 0.12880 0.81410 0.31200
C 	C 	0.47320 0.66360 0.38860 0.05500
C 	C 	0.02680 0.83640 0.88860 0.05600
C 	C 	0.59200 0.70680 0.33440 -0.08900
C 	C 	0.67910 0.24890 0.68840 0.05300
C 	C 	0.56140 0.20300 0.74340 -0.08600
C 	C 	0.07480 0.27440 0.23140 0.03700
O 	O 	0.00860 0.38190 0.37470 -0.32900
O 	O 	0.83210 0.70320 0.29070 -0.26000
O 	O 	0.82710 0.42360 0.31030 -0.38300
O 	O 	0.99140 0.61810 0.62530 -0.32900
O 	O 	0.26760 0.92490 0.99480 -0.45200
O 	O 	0.08040 0.63580 0.41480 -0.45300
O 	O 	0.58040 0.13580 0.08520 -0.45400
O 	O 	0.41960 0.86420 0.91480 -0.45400
O 	O 	0.67290 0.07640 0.81030 -0.38100
O 	O 	0.16790 0.29680 0.70930 -0.26000
O 	O 	0.76760 0.42490 0.50520 -0.45100
O 	O 	0.73240 0.07510 0.00520 -0.45200
O 	O 	0.26090 0.38380 0.59210 -0.39400
O 	O 	0.49140 0.11810 0.87470 -0.32700
O 	O 	0.32710 0.92360 0.18970 -0.38100
O 	O 	0.91960 0.36420 0.58520 -0.45300
O 	O 	0.66790 0.79680 0.79070 -0.26000
O 	O 	0.33210 0.20320 0.20930 -0.26000
O 	O 	0.50860 0.88190 0.12530 -0.32700
O 	O 	0.73910 0.61620 0.40790 -0.39400
O 	O 	0.23240 0.57510 0.49480 -0.45100
O 	O 	0.23910 0.11620 0.09210 -0.39400
O 	O 	0.17290 0.57640 0.68970 -0.38300
O 	O 	0.76090 0.88380 0.90790 -0.39400
