data_crystal

_cell_length_a 10.54340
_cell_length_b 20.72440
_cell_length_c 20.72440
_cell_angle_alpha 86.29000
_cell_angle_beta  75.26360
_cell_angle_gamma 75.26350

_symmetry_space_group_name_	'P 1'
_symmetry_space_group_name_H-M	'P 1'

loop_
_symmetry_equiv_pos_as_xyz
  x,y,z

loop_
_atom_site_label
_atom_site_type_symbol
_atom_site_fract_x
_atom_site_fract_y
_atom_site_fract_z
_atom_site_charge
Co	Co	0.03389 0.68985 0.22555 1.17300
Co	Co	0.74056 0.22555 0.81015 1.17400
Co	Co	0.27626 0.27445 0.68985 1.17400
Co	Co	0.44929 0.81015 0.27445 1.17400
Co	Co	0.25944 0.77445 0.18985 1.17400
Co	Co	0.55071 0.18985 0.72555 1.17400
Co	Co	0.96611 0.31015 0.77445 1.17300
Co	Co	0.72374 0.72555 0.31015 1.17400
H 	H 	0.00460 0.91850 0.20470 -0.02000
H 	H 	0.38130 0.13190 0.87190 -0.01600
H 	H 	0.42610 0.00200 0.20220 0.02400
H 	H 	0.74680 0.87190 0.36810 -0.01900
H 	H 	0.99540 0.08150 0.79530 -0.02000
H 	H 	0.92310 0.70470 0.08150 -0.01500
H 	H 	0.43790 0.16840 0.38900 0.30900
H 	H 	0.25320 0.12810 0.63190 -0.01900
H 	H 	0.51360 0.51640 0.11280 0.18500
H 	H 	0.56210 0.83160 0.61100 0.30900
H 	H 	0.09860 0.97010 0.77670 0.24600
H 	H 	0.87530 0.22330 0.47010 0.24800
H 	H 	0.50470 0.66840 0.88900 0.30900
H 	H 	0.51320 0.37190 0.86810 -0.02100
H 	H 	0.07690 0.29530 0.91850 -0.01600
H 	H 	0.82690 0.61100 0.66840 0.30900
H 	H 	0.49530 0.33160 0.11100 0.30900
H 	H 	0.62830 0.79780 0.50200 0.01900
H 	H 	0.17200 0.97300 0.10040 -0.01000
H 	H 	0.13030 0.49800 0.29780 0.01900
H 	H 	0.39370 0.11100 0.16840 0.30500
H 	H 	0.72760 0.10040 0.52700 -0.01600
H 	H 	0.61870 0.86810 0.12810 -0.01700
H 	H 	0.77750 0.43570 0.08150 0.21600
H 	H 	0.11490 0.63190 0.37190 -0.02100
H 	H 	0.64280 0.98360 0.38720 0.18300
H 	H 	0.34540 0.52990 0.72330 0.24700
H 	H 	0.57190 0.29780 0.00200 0.01900
H 	H 	0.25460 0.47300 0.60040 -0.01600
H 	H 	0.57390 0.99800 0.79780 0.02300
H 	H 	0.88510 0.36810 0.62810 -0.02100
H 	H 	0.37360 0.11280 0.98360 0.18100
H 	H 	0.20930 0.79530 0.41850 -0.02100
H 	H 	0.90140 0.02990 0.22330 0.24500
H 	H 	0.35720 0.01640 0.61280 0.18300
H 	H 	0.79470 0.06430 0.41850 0.21500
H 	H 	0.12470 0.77670 0.52990 0.24700
H 	H 	0.62780 0.58150 0.29530 -0.02100
H 	H 	0.21320 0.58150 0.56430 0.21600
H 	H 	0.37170 0.20220 0.49800 0.01900
H 	H 	0.85500 0.39960 0.97300 -0.01800
H 	H 	0.60630 0.88900 0.83160 0.30500
H 	H 	0.97000 0.38720 0.51640 0.18400
H 	H 	0.37220 0.41850 0.70470 -0.02100
H 	H 	0.85900 0.91850 0.93570 0.21100
H 	H 	0.78680 0.41850 0.43570 0.21600
H 	H 	0.74540 0.52700 0.39960 -0.01600
H 	H 	0.20530 0.93570 0.58150 0.21500
H 	H 	0.14100 0.08150 0.06430 0.21100
H 	H 	0.27240 0.89960 0.47300 -0.01600
H 	H 	0.82800 0.02700 0.89960 -0.01000
H 	H 	0.14500 0.60040 0.02700 -0.01800
H 	H 	0.03000 0.61280 0.48360 0.18400
H 	H 	0.48640 0.48360 0.88720 0.18400
H 	H 	0.62640 0.88720 0.01640 0.18100
H 	H 	0.93130 0.72330 0.97010 0.23900
H 	H 	0.17310 0.38900 0.33160 0.30900
H 	H 	0.22250 0.56430 0.91850 0.21600
H 	H 	0.79070 0.20470 0.58150 -0.02100
H 	H 	0.65460 0.47010 0.27670 0.24700
H 	H 	0.48680 0.62810 0.13190 -0.02100
H 	H 	0.42810 0.70220 0.99800 0.01900
H 	H 	0.06870 0.27670 0.02990 0.23900
H 	H 	0.86970 0.50200 0.70220 0.01900
C 	C 	0.37197 0.61216 0.89150 0.44700
C 	C 	0.09196 0.40660 0.68168 0.45300
C 	C 	0.82853 0.24088 0.56846 0.24600
C 	C 	0.06033 0.48189 0.32525 0.29000
C 	C 	0.86213 0.74088 0.06846 0.23400
C 	C 	0.70927 0.09253 0.43413 -0.36000
C 	C 	0.22636 0.68168 0.09340 0.45300
C 	C 	0.23995 0.98051 0.69359 0.40400
C 	C 	0.08951 0.21597 0.14121 0.98400
C 	C 	0.65101 0.91660 0.84578 -0.34200
C 	C 	0.50144 0.81832 0.40660 0.45200
C 	C 	0.88500 0.33853 0.59627 0.23100
C 	C 	0.48275 0.31187 0.76563 0.40700
C 	C 	0.51725 0.68813 0.23437 0.40700
C 	C 	0.14340 0.56587 0.59253 -0.36100
C 	C 	0.93496 0.35012 0.52936 -0.32400
C 	C 	0.86904 0.99834 0.25238 -0.32500
C 	C 	0.38558 0.67475 0.98189 0.29200
C 	C 	0.53568 0.52936 0.14988 -0.32400
C 	C 	0.43419 0.89911 0.71891 0.98100
C 	C 	0.60301 0.56846 0.25912 0.24600
C 	C 	0.79462 0.26563 0.68813 0.40700
C 	C 	0.71492 0.97064 0.35012 -0.32000
C 	C 	0.19820 0.06587 0.09253 -0.35000
C 	C 	0.98413 0.39150 0.38784 0.44700
C 	C 	0.49679 0.15422 0.41660 -0.35000
C 	C 	0.68024 0.09340 0.81832 0.44800
C 	C 	0.08661 0.41660 0.34578 -0.35200
C 	C 	0.86738 0.75238 0.00166 -0.31200
C 	C 	0.54924 0.61612 0.21720 -0.24500
C 	C 	0.24838 0.23437 0.81187 0.40400
C 	C 	0.49856 0.18168 0.59340 0.45200
C 	C 	0.69811 0.02403 0.84395 -0.24900
C 	C 	0.58744 0.40719 0.18293 -0.53400
C 	C 	0.93975 0.81187 0.26563 0.40800
C 	C 	0.73593 0.40747 0.06587 -0.36200
C 	C 	0.00537 0.31707 0.40719 -0.53500
C 	C 	0.43239 0.65422 0.91660 -0.35200
C 	C 	0.78305 0.99918 0.88592 0.25700
C 	C 	0.90804 0.59340 0.31832 0.45300
C 	C 	0.01587 0.60850 0.61216 0.44700
C 	C 	0.31980 0.16147 0.90373 0.22100
C 	C 	0.69452 0.35879 0.21597 0.98700
C 	C 	0.06025 0.18813 0.73437 0.40800
C 	C 	0.17147 0.75912 0.43154 0.24600
C 	C 	0.27786 0.65605 0.02403 -0.26200
C 	C 	0.30548 0.64121 0.78403 0.98700
C 	C 	0.77037 0.81707 0.90719 -0.52800
C 	C 	0.68556 0.85012 0.02936 -0.31100
C 	C 	0.31444 0.14988 0.97064 -0.31100
C 	C 	0.78223 0.38592 0.00082 0.27500
C 	C 	0.76005 0.01949 0.30641 0.40400
C 	C 	0.55221 0.60089 0.78109 0.98100
C 	C 	0.33103 0.88592 0.50082 0.27100
C 	C 	0.56761 0.34578 0.08340 -0.35200
C 	C 	0.36747 0.01811 0.17475 0.28000
C 	C 	0.26347 0.10850 0.11216 0.43800
C 	C 	0.58595 0.48051 0.19359 0.40800
C 	C 	0.94669 0.28403 0.35879 0.98700
C 	C 	0.68020 0.83853 0.09627 0.22100
C 	C 	0.85660 0.43413 0.40747 -0.36100
C 	C 	0.30189 0.97597 0.15605 -0.24900
C 	C 	0.16536 0.71720 0.38388 -0.24600
C 	C 	0.22046 0.19359 0.01949 0.39400
C 	C 	0.11500 0.66147 0.40373 0.23100
C 	C 	0.31976 0.90660 0.18168 0.44800
C 	C 	0.61976 0.50166 0.24762 -0.33000
C 	C 	0.50321 0.84578 0.58340 -0.35000
C 	C 	0.83464 0.28280 0.61612 -0.24600
C 	C 	0.75162 0.76563 0.18813 0.40400
C 	C 	0.05331 0.71597 0.64121 0.98700
C 	C 	0.06941 0.06846 0.75912 0.24400
C 	C 	0.93059 0.93154 0.24088 0.24400
C 	C 	0.83185 0.49918 0.38592 0.27200
C 	C 	0.76928 0.14121 0.28403 0.98600
C 	C 	0.46432 0.47064 0.85012 -0.32400
C 	C 	0.44779 0.39911 0.21891 0.98100
C 	C 	0.80180 0.93413 0.90747 -0.35000
C 	C 	0.41405 0.51949 0.80641 0.40800
C 	C 	0.93391 0.52403 0.34395 -0.26100
C 	C 	0.67756 0.09281 0.31707 -0.53300
C 	C 	0.21695 0.00082 0.11408 0.25700
C 	C 	0.45778 0.17475 0.48189 0.29000
C 	C 	0.51873 0.59627 0.16147 0.23000
C 	C 	0.28508 0.02936 0.64988 -0.32000
C 	C 	0.22963 0.18293 0.09281 -0.52800
C 	C 	0.88256 0.88388 0.28280 -0.24400
C 	C 	0.54206 0.15605 0.52403 -0.26100
C 	C 	0.32244 0.90719 0.68293 -0.53300
C 	C 	0.99463 0.68293 0.59281 -0.53500
C 	C 	0.62803 0.38784 0.10850 0.44700
C 	C 	0.91339 0.58340 0.65422 -0.35200
C 	C 	0.93967 0.51811 0.67475 0.29000
C 	C 	0.77647 0.90373 0.33853 0.22800
C 	C 	0.21777 0.61408 0.99918 0.27500
C 	C 	0.63253 0.98189 0.82525 0.28000
C 	C 	0.61442 0.32525 0.01811 0.29200
C 	C 	0.62437 0.11216 0.39150 0.44600
C 	C 	0.48127 0.40373 0.83853 0.23000
C 	C 	0.23356 0.21720 0.88388 -0.23700
C 	C 	0.72214 0.34395 0.97597 -0.26200
C 	C 	0.06609 0.47597 0.65605 -0.26100
C 	C 	0.56581 0.10089 0.28109 0.98100
C 	C 	0.84690 0.71891 0.60089 0.98100
C 	C 	0.45076 0.38388 0.78280 -0.24500
C 	C 	0.15310 0.28109 0.39911 0.98100
C 	C 	0.39699 0.43154 0.74088 0.24600
C 	C 	0.33330 0.21891 0.10089 0.97900
C 	C 	0.29073 0.90747 0.56587 -0.36000
C 	C 	0.26407 0.59253 0.93413 -0.36200
C 	C 	0.91049 0.78403 0.85879 0.98400
C 	C 	0.13262 0.24762 0.99834 -0.31200
C 	C 	0.22353 0.09627 0.66147 0.22800
C 	C 	0.66670 0.78109 0.89911 0.97900
C 	C 	0.13787 0.25912 0.93154 0.23400
C 	C 	0.77954 0.80641 0.98051 0.39400
C 	C 	0.73653 0.89150 0.88784 0.43800
C 	C 	0.12142 0.74762 0.49834 -0.33100
C 	C 	0.16815 0.50082 0.61408 0.27200
C 	C 	0.38024 0.49834 0.75238 -0.33000
C 	C 	0.34899 0.08340 0.15422 -0.34200
C 	C 	0.41256 0.59281 0.81707 -0.53400
C 	C 	0.06646 0.69359 0.51949 0.40800
C 	C 	0.06504 0.64988 0.47064 -0.32400
C 	C 	0.45794 0.84395 0.47597 -0.26100
C 	C 	0.20538 0.73437 0.31187 0.40700
C 	C 	0.66897 0.11408 0.49918 0.27100
C 	C 	0.23072 0.85879 0.71597 0.98600
C 	C 	0.87858 0.25238 0.50166 -0.33100
C 	C 	0.54222 0.82525 0.51811 0.29000
C 	C 	0.13096 0.00166 0.74762 -0.32500
C 	C 	0.76644 0.78280 0.11612 -0.23700
C 	C 	0.77364 0.31832 0.90660 0.45300
C 	C 	0.11744 0.11612 0.71720 -0.24400
C 	C 	0.93354 0.30641 0.48051 0.40800
C 	C 	0.37563 0.88784 0.60850 0.44600
O 	O 	0.24026 0.78886 0.29522 -0.49100
O 	O 	0.90161 0.76726 0.30412 -0.48500
O 	O 	0.79427 0.30412 0.73274 -0.48500
O 	O 	0.57443 0.16027 0.63207 -0.43900
O 	O 	0.28208 0.72375 0.10909 -0.44700
O 	O 	0.99417 0.39091 0.72375 -0.44800
O 	O 	0.02912 0.79522 0.21114 -0.49200
O 	O 	0.09839 0.23274 0.69588 -0.48500
O 	O 	0.26530 0.86793 0.16027 -0.43800
O 	O 	0.47299 0.73274 0.19588 -0.48500
O 	O 	0.13323 0.66027 0.13207 -0.44000
O 	O 	0.75974 0.21114 0.70478 -0.49100
O 	O 	0.71792 0.27625 0.89091 -0.44700
O 	O 	0.52701 0.26726 0.80412 -0.48500
O 	O 	0.00583 0.60909 0.27625 -0.44800
O 	O 	0.86677 0.33973 0.86793 -0.44000
O 	O 	0.46452 0.29522 0.71114 -0.49100
O 	O 	0.39117 0.89091 0.22375 -0.44600
O 	O 	0.42557 0.83973 0.36793 -0.43900
O 	O 	0.79350 0.63207 0.33973 -0.44000
O 	O 	0.66887 0.80412 0.23274 -0.48400
O 	O 	0.53548 0.70478 0.28886 -0.49100
O 	O 	0.97088 0.20478 0.78886 -0.49200
O 	O 	0.20650 0.36793 0.66027 -0.44000
O 	O 	0.38508 0.22375 0.60909 -0.44700
O 	O 	0.20573 0.69588 0.26726 -0.48500
O 	O 	0.82434 0.71114 0.20478 -0.49000
O 	O 	0.33113 0.19588 0.76726 -0.48400
O 	O 	0.61492 0.77625 0.39091 -0.44700
O 	O 	0.60883 0.10909 0.77625 -0.44600
O 	O 	0.17566 0.28886 0.79522 -0.49000
O 	O 	0.73470 0.13207 0.83973 -0.43800
F 	F 	0.79372 0.14196 0.21800 -0.40100
F 	F 	0.40619 0.42611 0.28031 -0.46000
F 	F 	0.33401 0.22702 0.16436 -0.38200
F 	F 	0.22539 0.27298 0.33564 -0.38300
F 	F 	0.81235 0.30150 0.37560 -0.44100
F 	F 	0.45810 0.18640 0.07000 -0.49000
F 	F 	0.06432 0.28200 0.14196 -0.40100
F 	F 	0.01055 0.80150 0.87560 -0.44000
F 	F 	0.50163 0.16436 0.27298 -0.38300
F 	F 	0.11385 0.87560 0.69850 -0.44100
F 	F 	0.28327 0.70336 0.80530 -0.36800
F 	F 	0.21450 0.31360 0.43000 -0.49000
F 	F 	0.78550 0.68640 0.57000 -0.49000
F 	F 	0.01172 0.78200 0.64196 -0.40100
F 	F 	0.81205 0.37560 0.19850 -0.44100
F 	F 	0.98945 0.19850 0.12440 -0.44000
F 	F 	0.16770 0.21969 0.42611 -0.46000
F 	F 	0.66599 0.77298 0.83564 -0.38200
F 	F 	0.83230 0.78031 0.57389 -0.46000
F 	F 	0.49837 0.83564 0.72702 -0.38300
F 	F 	0.56103 0.66436 0.77298 -0.38300
F 	F 	0.98663 0.30530 0.29664 -0.36800
F 	F 	0.59381 0.57389 0.71969 -0.46000
F 	F 	0.20628 0.85804 0.78200 -0.40100
F 	F 	0.18795 0.62440 0.80150 -0.44100
F 	F 	0.01337 0.69470 0.70336 -0.36800
F 	F 	0.29193 0.79664 0.69470 -0.36800
F 	F 	0.91143 0.80530 0.79664 -0.36800
F 	F 	0.88615 0.12440 0.30150 -0.44100
F 	F 	0.35550 0.43000 0.18640 -0.49000
F 	F 	0.43897 0.33564 0.22702 -0.38300
F 	F 	0.38739 0.92611 0.78031 -0.46000
F 	F 	0.77461 0.72702 0.66436 -0.38300
F 	F 	0.70807 0.20336 0.30530 -0.36800
F 	F 	0.68650 0.71969 0.92611 -0.46000
F 	F 	0.64450 0.57000 0.81360 -0.49000
F 	F 	0.08857 0.19470 0.20336 -0.36800
F 	F 	0.61261 0.07389 0.21969 -0.46000
F 	F 	0.98828 0.21800 0.35804 -0.40100
F 	F 	0.52810 0.93000 0.68640 -0.49000
F 	F 	0.54190 0.81360 0.93000 -0.49000
F 	F 	0.34632 0.64196 0.71800 -0.40100
F 	F 	0.65368 0.35804 0.28200 -0.40100
F 	F 	0.31350 0.28031 0.07389 -0.46000
F 	F 	0.47190 0.07000 0.31360 -0.49000
F 	F 	0.71673 0.29664 0.19470 -0.36800
F 	F 	0.18765 0.69850 0.62440 -0.44100
F 	F 	0.93568 0.71800 0.85804 -0.40100
