data_crystal

_cell_length_a 15.35520
_cell_length_b 15.35520
_cell_length_c 16.95800
_cell_angle_alpha 67.50300
_cell_angle_beta  67.50300
_cell_angle_gamma 64.43110

_symmetry_space_group_name_	'P 1'
_symmetry_space_group_name_H-M	'P 1'

loop_
_symmetry_equiv_pos_as_xyz
  x,y,z

loop_
_atom_site_label
_atom_site_type_symbol
_atom_site_fract_x
_atom_site_fract_y
_atom_site_fract_z
_atom_site_charge
Co	Co	0.45822 0.26710 0.38258 1.19500
Co	Co	0.73290 0.54178 0.11742 1.19500
Co	Co	0.34301 0.65699 0.75000 1.19400
Co	Co	0.26710 0.45822 0.88258 1.19500
Co	Co	0.65699 0.34301 0.25000 1.19400
Co	Co	0.54178 0.73290 0.61742 1.19500
H 	H 	0.96300 0.63520 0.94440 0.06600
H 	H 	0.43600 0.34240 0.61250 0.05900
H 	H 	0.68430 0.40550 0.45070 0.05600
H 	H 	0.36480 0.03700 0.55560 0.06500
H 	H 	0.89510 0.75590 0.35860 0.07800
H 	H 	0.03700 0.36480 0.05560 0.06700
H 	H 	0.04590 0.84070 0.72260 0.08000
H 	H 	0.34240 0.43600 0.11250 0.06000
H 	H 	0.56400 0.65760 0.38750 0.06000
H 	H 	0.24410 0.10490 0.14140 0.07900
H 	H 	0.31570 0.59450 0.54930 0.05600
H 	H 	0.40550 0.68430 0.95070 0.05400
H 	H 	0.84070 0.04590 0.22260 0.07400
H 	H 	0.59450 0.31570 0.04930 0.05400
H 	H 	0.63520 0.96300 0.44440 0.06500
H 	H 	0.10490 0.24410 0.64140 0.07800
H 	H 	0.95410 0.15930 0.27740 0.08000
H 	H 	0.75590 0.89510 0.85860 0.07900
H 	H 	0.49570 0.54750 0.17350 0.04000
H 	H 	0.15930 0.95410 0.77740 0.07400
H 	H 	0.45250 0.50430 0.32650 0.04100
H 	H 	0.65760 0.56400 0.88750 0.06000
H 	H 	0.54750 0.49570 0.67350 0.04100
H 	H 	0.50430 0.45250 0.82650 0.04000
C 	C 	0.61060 0.56320 0.26790 0.34500
C 	C 	0.52140 0.57900 0.34500 -0.09800
C 	C 	0.37130 0.48390 0.09870 0.04700
C 	C 	0.76590 0.73070 0.99080 0.33000
C 	C 	0.18050 0.00370 0.73110 0.01000
C 	C 	0.02150 0.72450 0.83130 -0.06400
C 	C 	0.23840 0.15300 0.58590 -0.06100
C 	C 	0.65670 0.12750 0.31710 0.37200
C 	C 	0.81950 0.99630 0.26890 0.01000
C 	C 	0.85260 0.82200 0.35160 0.00900
C 	C 	0.34330 0.87250 0.68290 0.37200
C 	C 	0.45660 0.62880 0.05900 -0.08000
C 	C 	0.17800 0.14740 0.14840 0.00300
C 	C 	0.94680 0.69680 0.90340 0.01900
C 	C 	0.56280 0.36540 0.52050 -0.09800
C 	C 	0.56320 0.61060 0.76790 0.34600
C 	C 	0.46310 0.55110 0.13540 0.03400
C 	C 	0.26930 0.23410 0.50920 0.33600
C 	C 	0.97850 0.27550 0.16870 -0.06400
C 	C 	0.14740 0.17800 0.64840 0.00900
C 	C 	0.10400 0.12020 0.22160 -0.03100
C 	C 	0.50620 0.70580 0.03060 0.30600
C 	C 	0.12750 0.65670 0.81710 0.36900
C 	C 	0.37120 0.54340 0.44100 -0.07800
C 	C 	0.56170 0.32250 0.45530 0.37300
C 	C 	0.62870 0.51610 0.90130 0.04700
C 	C 	0.30320 0.05320 0.59660 0.02700
C 	C 	0.36540 0.56280 0.02050 -0.10000
C 	C 	0.05320 0.30320 0.09660 0.01900
C 	C 	0.36720 0.59140 0.49760 0.04100
C 	C 	0.63460 0.43720 0.97950 -0.10000
C 	C 	0.29420 0.49380 0.46940 0.30300
C 	C 	0.87250 0.34330 0.18290 0.36900
C 	C 	0.51610 0.62870 0.40130 0.04600
C 	C 	0.32250 0.56170 0.95530 0.37400
C 	C 	0.89600 0.87980 0.77840 -0.03100
C 	C 	0.97640 0.86760 0.20700 0.27800
C 	C 	0.57900 0.52140 0.84500 -0.09900
C 	C 	0.70580 0.50620 0.53060 0.30300
C 	C 	0.63280 0.40860 0.50240 0.04100
C 	C 	0.67750 0.43830 0.04470 0.37400
C 	C 	0.84700 0.76160 0.91410 -0.05500
C 	C 	0.23410 0.26930 0.00920 0.33000
C 	C 	0.55110 0.46310 0.63540 0.03300
C 	C 	0.48390 0.37130 0.59870 0.04600
C 	C 	0.38940 0.43680 0.73210 0.34500
C 	C 	0.27550 0.97850 0.66870 -0.07300
C 	C 	0.13240 0.02360 0.29300 0.27100
C 	C 	0.44890 0.53690 0.36460 0.03300
C 	C 	0.00370 0.18050 0.23110 -0.00200
C 	C 	0.76160 0.84700 0.41410 -0.06100
C 	C 	0.40860 0.63280 0.00240 0.04400
C 	C 	0.59140 0.36720 0.99760 0.04400
C 	C 	0.15300 0.23840 0.08590 -0.05500
C 	C 	0.43720 0.63460 0.47950 -0.09800
C 	C 	0.87980 0.89600 0.27840 -0.03700
C 	C 	0.62880 0.45660 0.55900 -0.07800
C 	C 	0.69680 0.94680 0.40340 0.02700
C 	C 	0.86760 0.97640 0.70700 0.27100
C 	C 	0.99630 0.81950 0.76890 -0.00200
C 	C 	0.02360 0.13240 0.79300 0.27800
C 	C 	0.47860 0.42100 0.65500 -0.09800
C 	C 	0.54340 0.37120 0.94100 -0.08000
C 	C 	0.72450 0.02150 0.33130 -0.07300
C 	C 	0.43680 0.38940 0.23210 0.34600
C 	C 	0.73070 0.76590 0.49080 0.33600
C 	C 	0.12020 0.10400 0.72160 -0.03700
C 	C 	0.43830 0.67750 0.54470 0.37300
C 	C 	0.42100 0.47860 0.15500 -0.09900
C 	C 	0.49380 0.29420 0.96940 0.30600
C 	C 	0.82200 0.85260 0.85160 0.00300
C 	C 	0.53690 0.44890 0.86460 0.03400
O 	O 	0.99820 0.06080 0.85220 -0.18400
O 	O 	0.35828 0.20448 0.46070 -0.39200
O 	O 	0.69147 0.19347 0.26250 -0.40500
O 	O 	0.77700 0.02300 0.70930 -0.18200
O 	O 	0.93920 0.00180 0.64780 -0.18300
O 	O 	0.86016 0.43376 0.13590 -0.41500
O 	O 	0.37452 0.49852 0.77360 -0.51700
O 	O 	0.63203 0.32523 0.38320 -0.41000
O 	O 	0.02300 0.77700 0.20930 -0.18500
O 	O 	0.70950 0.50730 0.02670 -0.42100
O 	O 	0.29050 0.49270 0.97330 -0.42100
O 	O 	0.67873 0.78953 0.00100 -0.20700
O 	O 	0.79552 0.64172 0.03930 -0.38900
O 	O 	0.49852 0.37452 0.27360 -0.51700
O 	O 	0.80653 0.30853 0.23750 -0.40400
O 	O 	0.36797 0.67477 0.61680 -0.41000
O 	O 	0.66728 0.61288 0.24000 -0.31500
O 	O 	0.50148 0.62548 0.72640 -0.51700
O 	O 	0.13984 0.56624 0.86410 -0.41500
O 	O 	0.67477 0.36797 0.11680 -0.41000
O 	O 	0.49270 0.29050 0.47330 -0.42100
O 	O 	0.44212 0.30772 0.91570 -0.23500
O 	O 	0.43376 0.86016 0.63590 -0.41600
O 	O 	0.61288 0.66728 0.74000 -0.31500
O 	O 	0.06080 0.99820 0.35220 -0.18300
O 	O 	0.33272 0.38712 0.76000 -0.31500
O 	O 	0.56624 0.13984 0.36410 -0.41600
O 	O 	0.78953 0.67873 0.50100 -0.21100
O 	O 	0.69228 0.55788 0.58430 -0.23500
O 	O 	0.00180 0.93920 0.14780 -0.18400
O 	O 	0.19347 0.69147 0.76250 -0.40400
O 	O 	0.50260 0.22580 0.03460 -0.20500
O 	O 	0.38712 0.33272 0.26000 -0.31500
O 	O 	0.62548 0.50148 0.22640 -0.51700
O 	O 	0.77420 0.49740 0.46540 -0.20300
O 	O 	0.22300 0.97700 0.29070 -0.18200
O 	O 	0.22580 0.50260 0.53460 -0.20300
O 	O 	0.20448 0.35828 0.96070 -0.38900
O 	O 	0.49740 0.77420 0.96540 -0.20500
O 	O 	0.30772 0.44212 0.41570 -0.23500
O 	O 	0.50730 0.70950 0.52670 -0.42100
O 	O 	0.30853 0.80653 0.73750 -0.40500
O 	O 	0.55788 0.69228 0.08430 -0.23500
O 	O 	0.32523 0.63203 0.88320 -0.41000
O 	O 	0.97700 0.22300 0.79070 -0.18500
O 	O 	0.64172 0.79552 0.53930 -0.39200
O 	O 	0.32127 0.21047 0.99900 -0.20700
O 	O 	0.21047 0.32127 0.49900 -0.21100
