data_crystal

_cell_length_a 10.50270
_cell_length_b 20.82870
_cell_length_c 20.82870
_cell_angle_alpha 86.35560
_cell_angle_beta  75.39690
_cell_angle_gamma 75.39710

_symmetry_space_group_name_	'P 1'
_symmetry_space_group_name_H-M	'P 1'

loop_
_symmetry_equiv_pos_as_xyz
  x,y,z

loop_
_atom_site_label
_atom_site_type_symbol
_atom_site_fract_x
_atom_site_fract_y
_atom_site_fract_z
_atom_site_charge
Mn	Mn	0.05414 0.72348 0.18600 1.29900
Mn	Mn	0.75986 0.18600 0.77652 1.29900
Mn	Mn	0.46362 0.77652 0.31400 1.29900
Mn	Mn	0.22238 0.31400 0.72348 1.29900
Mn	Mn	0.94586 0.27652 0.81400 1.29900
Mn	Mn	0.24014 0.81400 0.22348 1.29900
Mn	Mn	0.53638 0.22348 0.68600 1.29900
Mn	Mn	0.77762 0.68600 0.27652 1.29900
H 	H 	0.88490 0.87310 0.13470 -0.03100
H 	H 	0.64910 0.02350 0.59710 -0.02000
H 	H 	0.47510 0.51560 0.38320 0.19400
H 	H 	0.88810 0.16810 0.11510 0.31200
H 	H 	0.12610 0.01560 0.88320 0.19200
H 	H 	0.98040 0.13470 0.62690 -0.03400
H 	H 	0.39270 0.62690 0.36530 -0.03300
H 	H 	0.40490 0.22230 0.02930 0.24600
H 	H 	0.05620 0.61510 0.83190 0.31600
H 	H 	0.62920 0.29610 0.49230 0.01600
H 	H 	0.84350 0.72230 0.52930 0.25000
H 	H 	0.37280 0.47070 0.22230 0.25000
H 	H 	0.99680 0.11510 0.33190 0.31400
H 	H 	0.94380 0.38490 0.16810 0.31600
H 	H 	0.24620 0.40290 0.52350 -0.02200
H 	H 	0.87410 0.70270 0.41790 -0.02900
H 	H 	0.72500 0.91500 0.56240 0.21900
H 	H 	0.67260 0.09710 0.97650 -0.01700
H 	H 	0.12150 0.50770 0.79610 0.01500
H 	H 	0.08240 0.79610 0.99230 0.01800
H 	H 	0.49470 0.79730 0.08210 -0.02600
H 	H 	0.00930 0.11680 0.51560 0.19400
H 	H 	0.52490 0.48440 0.61680 0.19400
H 	H 	0.87390 0.98440 0.11680 0.19200
H 	H 	0.14170 0.38320 0.98440 0.19200
H 	H 	0.62720 0.52930 0.77770 0.25000
H 	H 	0.32740 0.90290 0.02350 -0.01700
H 	H 	0.00320 0.88490 0.66810 0.31400
H 	H 	0.71260 0.56240 0.58500 0.21900
H 	H 	0.15650 0.27770 0.47070 0.25000
H 	H 	0.01960 0.86530 0.37310 -0.03400
H 	H 	0.42320 0.08210 0.70270 -0.02700
H 	H 	0.57680 0.91790 0.29730 -0.02700
H 	H 	0.92530 0.99230 0.70390 0.01600
H 	H 	0.28740 0.43760 0.41500 0.21900
H 	H 	0.85830 0.61680 0.01560 0.19200
H 	H 	0.35090 0.97650 0.40290 -0.02000
H 	H 	0.99070 0.88320 0.48440 0.19400
H 	H 	0.70240 0.58500 0.93760 0.22000
H 	H 	0.12590 0.29730 0.58210 -0.02900
H 	H 	0.43420 0.97070 0.72230 0.24700
H 	H 	0.60730 0.37310 0.63470 -0.03300
H 	H 	0.23030 0.52350 0.09710 -0.02200
H 	H 	0.64000 0.06240 0.08500 0.21600
H 	H 	0.29760 0.41500 0.06240 0.22000
H 	H 	0.11190 0.83190 0.88490 0.31200
H 	H 	0.75380 0.59710 0.47650 -0.02200
H 	H 	0.87850 0.49230 0.20390 0.01500
H 	H 	0.59510 0.77770 0.97070 0.24600
H 	H 	0.76970 0.47650 0.90290 -0.02200
H 	H 	0.29200 0.58210 0.20270 -0.02900
H 	H 	0.27500 0.08500 0.43760 0.21900
H 	H 	0.75800 0.63470 0.12690 -0.03200
H 	H 	0.07470 0.00770 0.29610 0.01600
H 	H 	0.37080 0.70390 0.50770 0.01600
H 	H 	0.56580 0.02930 0.27770 0.24700
H 	H 	0.50530 0.20270 0.91790 -0.02600
H 	H 	0.32870 0.66810 0.61510 0.31500
H 	H 	0.36000 0.93760 0.91500 0.21600
H 	H 	0.67130 0.33190 0.38490 0.31500
H 	H 	0.91760 0.20390 0.00770 0.01800
H 	H 	0.70800 0.41790 0.79730 -0.02900
H 	H 	0.11510 0.12690 0.86530 -0.03100
H 	H 	0.24200 0.36530 0.87310 -0.03200
C 	C 	0.66791 0.61181 0.50437 0.28500
C 	C 	0.26499 0.11658 0.78084 -0.25900
C 	C 	0.24019 0.88807 0.88815 0.45500
C 	C 	0.59245 0.67926 0.41044 0.47000
C 	C 	0.94742 0.22164 0.39872 0.97500
C 	C 	0.43871 0.52903 0.34675 -0.35400
C 	C 	0.72003 0.01837 0.19577 0.41600
C 	C 	0.82187 0.90432 0.16414 0.24600
C 	C 	0.81788 0.68618 0.90746 -0.54500
C 	C 	0.11517 0.02296 0.32490 0.30200
C 	C 	0.21266 0.43053 0.09095 -0.37500
C 	C 	0.03697 0.52296 0.82490 0.30800
C 	C 	0.36253 0.06902 0.73872 0.24800
C 	C 	0.72534 0.09254 0.18618 -0.54300
C 	C 	0.22138 0.98008 0.34576 -0.26900
C 	C 	0.56845 0.76128 0.06902 0.24800
C 	C 	0.99760 0.58738 0.84602 -0.37400
C 	C 	0.27972 0.00437 0.38819 0.28100
C 	C 	0.05258 0.77836 0.60128 0.97500
C 	C 	0.44007 0.67510 0.52296 0.30500
C 	C 	0.56129 0.47097 0.65325 -0.35400
C 	C 	0.67027 0.43098 0.76128 0.25300
C 	C 	0.12826 0.38815 0.11193 0.46100
C 	C 	0.71591 0.11181 0.00437 0.27300
C 	C 	0.98601 0.83586 0.40432 0.25100
C 	C 	0.75981 0.11193 0.11185 0.45500
C 	C 	0.96303 0.47704 0.17510 0.30800
C 	C 	0.04722 0.51992 0.15424 -0.27400
C 	C 	0.27171 0.91044 0.32074 0.46900
C 	C 	0.69639 0.09095 0.06947 -0.36600
C 	C 	0.70528 0.31213 0.73471 0.43000
C 	C 	0.78546 0.65325 0.02903 -0.34700
C 	C 	0.18212 0.31382 0.09254 -0.54500
C 	C 	0.17813 0.09568 0.83586 0.24600
C 	C 	0.56001 0.73471 0.18787 0.42800
C 	C 	0.51641 0.61193 0.61185 0.46100
C 	C 	0.06778 0.27836 0.10128 0.97400
C 	C 	0.55503 0.63939 0.71795 0.98500
C 	C 	0.56714 0.65424 0.48008 -0.27200
C 	C 	0.13813 0.82490 0.97704 0.29700
C 	C 	0.27997 0.98163 0.80423 0.41600
C 	C 	0.81785 0.17926 0.91044 0.46700
C 	C 	0.56583 0.51837 0.69577 0.42400
C 	C 	0.32973 0.56902 0.23872 0.25300
C 	C 	0.10125 0.26128 0.56902 0.25400
C 	C 	0.74788 0.81213 0.23471 0.42800
C 	C 	0.98259 0.76529 0.31213 0.43000
C 	C 	0.49594 0.59254 0.68618 -0.54700
C 	C 	0.33759 0.61658 0.28084 -0.26400
C 	C 	0.73501 0.88342 0.21916 -0.25900
C 	C 	0.62871 0.74936 0.00222 -0.33100
C 	C 	0.43417 0.48163 0.30423 0.42400
C 	C 	0.84362 0.15398 0.08738 -0.36500
C 	C 	0.95278 0.48008 0.84576 -0.27400
C 	C 	0.77862 0.01992 0.65424 -0.26900
C 	C 	0.25212 0.18787 0.76529 0.42800
C 	C 	0.26160 0.30423 0.01837 0.41700
C 	C 	0.82772 0.50437 0.88819 0.28600
C 	C 	0.79854 0.15424 0.98008 -0.26300
C 	C 	0.80558 0.78205 0.63939 0.98500
C 	C 	0.38157 0.28084 0.88342 -0.26000
C 	C 	0.27298 0.28205 0.13939 0.98500
C 	C 	0.88483 0.97704 0.67510 0.30200
C 	C 	0.23414 0.06947 0.40905 -0.37200
C 	C 	0.61843 0.71916 0.11658 -0.26000
C 	C 	0.27381 0.33586 0.90432 0.24600
C 	C 	0.08420 0.19577 0.48163 0.42400
C 	C 	0.87174 0.61185 0.88807 0.46100
C 	C 	0.88029 0.75064 0.49778 -0.34100
C 	C 	0.48359 0.38807 0.38815 0.46100
C 	C 	0.03226 0.15325 0.52903 -0.35400
C 	C 	0.11971 0.24936 0.50222 -0.34100
C 	C 	0.55993 0.32490 0.47704 0.30500
C 	C 	0.78734 0.56947 0.90905 -0.37500
C 	C 	0.20146 0.84576 0.01992 -0.26300
C 	C 	0.19442 0.21795 0.36061 0.98500
C 	C 	0.63747 0.93098 0.26128 0.24800
C 	C 	0.44497 0.36061 0.28205 0.98500
C 	C 	0.63093 0.99778 0.24936 -0.33200
C 	C 	0.89875 0.73872 0.43098 0.25400
C 	C 	0.28409 0.88819 0.99563 0.27300
C 	C 	0.86187 0.17510 0.02296 0.29700
C 	C 	0.18215 0.82074 0.08956 0.46700
C 	C 	0.04583 0.21916 0.61658 -0.26400
C 	C 	0.95417 0.78084 0.38342 -0.26400
C 	C 	0.93100 0.91262 0.65398 -0.37000
C 	C 	0.43999 0.26529 0.81213 0.42800
C 	C 	0.62193 0.49778 0.74936 -0.34100
C 	C 	0.73840 0.69577 0.98163 0.41700
C 	C 	0.35681 0.40905 0.43053 -0.37400
C 	C 	0.00240 0.41262 0.15398 -0.37400
C 	C 	0.39033 0.59568 0.33586 0.25000
C 	C 	0.34614 0.60128 0.72164 0.97500
C 	C 	0.64319 0.59095 0.56947 -0.37400
C 	C 	0.72028 0.99563 0.61181 0.28100
C 	C 	0.08848 0.18618 0.40746 -0.54600
C 	C 	0.93222 0.72164 0.89872 0.97400
C 	C 	0.43286 0.34576 0.51992 -0.27200
C 	C 	0.01399 0.16414 0.59568 0.25100
C 	C 	0.50406 0.40746 0.31382 -0.54700
C 	C 	0.00289 0.58956 0.17926 0.47000
C 	C 	0.91580 0.80423 0.51837 0.42400
C 	C 	0.91152 0.81382 0.59254 -0.54600
C 	C 	0.87166 0.88815 0.61193 0.45900
C 	C 	0.37129 0.25064 0.99778 -0.33100
C 	C 	0.58498 0.34602 0.41262 -0.37100
C 	C 	0.72702 0.71795 0.86061 0.98500
C 	C 	0.15638 0.84602 0.91262 -0.36500
C 	C 	0.72829 0.08956 0.67926 0.46900
C 	C 	0.60967 0.40432 0.66414 0.25000
C 	C 	0.16906 0.89872 0.77836 0.97400
C 	C 	0.43155 0.23872 0.93098 0.24800
C 	C 	0.65386 0.39872 0.27836 0.97500
C 	C 	0.18551 0.02903 0.84675 -0.34600
C 	C 	0.36907 0.00222 0.75064 -0.33200
C 	C 	0.66241 0.38342 0.71916 -0.26400
C 	C 	0.30361 0.90905 0.93053 -0.36600
C 	C 	0.29472 0.68787 0.26529 0.43000
C 	C 	0.81449 0.97097 0.15325 -0.34600
C 	C 	0.17228 0.49563 0.11181 0.28600
C 	C 	0.21454 0.34675 0.97097 -0.34700
C 	C 	0.99711 0.41044 0.82074 0.47000
C 	C 	0.76586 0.93053 0.59095 -0.37200
C 	C 	0.96774 0.84675 0.47097 -0.35400
C 	C 	0.27466 0.90746 0.81382 -0.54300
C 	C 	0.40755 0.32074 0.58956 0.47000
C 	C 	0.83094 0.10128 0.22164 0.97400
C 	C 	0.33209 0.38819 0.49563 0.28500
C 	C 	0.12834 0.11185 0.38807 0.45900
C 	C 	0.72619 0.66414 0.09568 0.24600
C 	C 	0.06900 0.08738 0.34602 -0.37000
C 	C 	0.41502 0.65398 0.58738 -0.37100
C 	C 	0.01741 0.23471 0.68787 0.43000
C 	C 	0.58763 0.13939 0.21795 0.98500
C 	C 	0.37807 0.50222 0.25064 -0.34100
C 	C 	0.41237 0.86061 0.78205 0.98500
O 	O 	0.23199 0.84427 0.12855 -0.46800
O 	O 	0.22081 0.89555 0.27683 -0.47500
O 	O 	0.03694 0.28828 0.70476 -0.53200
O 	O 	0.25830 0.70476 0.21172 -0.53200
O 	O 	0.96306 0.71172 0.29524 -0.53200
O 	O 	0.92374 0.37145 0.84427 -0.46900
O 	O 	0.07626 0.62855 0.15573 -0.46900
O 	O 	0.70481 0.65573 0.37145 -0.46900
O 	O 	0.50236 0.27683 0.60445 -0.47600
O 	O 	0.10681 0.39555 0.77683 -0.47600
O 	O 	0.67478 0.79524 0.28828 -0.53200
O 	O 	0.11636 0.77683 0.10445 -0.47500
O 	O 	0.39882 0.30425 0.76825 -0.51400
O 	O 	0.76801 0.15573 0.87145 -0.46800
O 	O 	0.60118 0.69575 0.23175 -0.51400
O 	O 	0.83293 0.76825 0.19575 -0.51400
O 	O 	0.32522 0.20476 0.71172 -0.53200
O 	O 	0.88364 0.22317 0.89555 -0.47500
O 	O 	0.89319 0.60445 0.22317 -0.47600
O 	O 	0.16707 0.23175 0.80425 -0.51400
O 	O 	0.02868 0.80425 0.26825 -0.51400
O 	O 	0.47002 0.78828 0.20476 -0.53200
O 	O 	0.29693 0.73175 0.30425 -0.51400
O 	O 	0.63946 0.12855 0.65573 -0.46800
O 	O 	0.97132 0.19575 0.73175 -0.51400
O 	O 	0.52998 0.21172 0.79524 -0.53200
O 	O 	0.49764 0.72317 0.39555 -0.47600
O 	O 	0.74170 0.29524 0.78828 -0.53200
O 	O 	0.29519 0.34427 0.62855 -0.46900
O 	O 	0.77919 0.10445 0.72317 -0.47500
O 	O 	0.36054 0.87145 0.34427 -0.46800
O 	O 	0.70307 0.26825 0.69575 -0.51400
F 	F 	0.48648 0.12238 0.20186 -0.44300
F 	F 	0.31166 0.20186 0.37762 -0.44300
F 	F 	0.60886 0.70186 0.87762 -0.44300
F 	F 	0.90477 0.28272 0.42634 -0.45800
F 	F 	0.78542 0.69786 0.79810 -0.36400
F 	F 	0.85429 0.18902 0.42900 -0.48900
F 	F 	0.78138 0.80214 0.70190 -0.36400
F 	F 	0.51352 0.87762 0.79814 -0.44300
F 	F 	0.17153 0.83553 0.76961 -0.38700
F 	F 	0.48548 0.35997 0.21527 -0.39300
F 	F 	0.14571 0.81098 0.57100 -0.48900
F 	F 	0.88617 0.78272 0.92634 -0.45800
F 	F 	0.41648 0.79810 0.80214 -0.36400
F 	F 	0.95669 0.07100 0.18902 -0.48900
F 	F 	0.99294 0.73039 0.83553 -0.38800
F 	F 	0.43928 0.85997 0.71527 -0.39300
F 	F 	0.58352 0.20190 0.19786 -0.36400
F 	F 	0.71671 0.42900 0.31098 -0.48900
F 	F 	0.15455 0.28473 0.35997 -0.39300
F 	F 	0.33111 0.57366 0.78272 -0.45800
F 	F 	0.21862 0.19786 0.29810 -0.36400
F 	F 	0.18749 0.92634 0.71728 -0.45700
F 	F 	0.84545 0.71527 0.64003 -0.39300
F 	F 	0.28329 0.57100 0.68902 -0.48900
F 	F 	0.51452 0.64003 0.78473 -0.39300
F 	F 	0.56072 0.14003 0.28473 -0.39300
F 	F 	0.05886 0.76961 0.66447 -0.38700
F 	F 	0.09523 0.71728 0.57366 -0.45800
F 	F 	0.04331 0.92900 0.81098 -0.48900
F 	F 	0.97231 0.31098 0.07100 -0.48900
F 	F 	0.27667 0.66447 0.73039 -0.38700
F 	F 	0.68834 0.79814 0.62238 -0.44300
F 	F 	0.66889 0.42634 0.21728 -0.45800
F 	F 	0.82847 0.16447 0.23039 -0.38700
F 	F 	0.48328 0.29810 0.30214 -0.36400
F 	F 	0.21458 0.30214 0.20190 -0.36400
F 	F 	0.00706 0.26961 0.16447 -0.38800
F 	F 	0.68928 0.62238 0.70186 -0.44300
F 	F 	0.81251 0.07366 0.28272 -0.45700
F 	F 	0.02769 0.68902 0.92900 -0.48900
F 	F 	0.29925 0.21527 0.14003 -0.39300
F 	F 	0.72333 0.33553 0.26961 -0.38700
F 	F 	0.51672 0.70190 0.69786 -0.36400
F 	F 	0.31072 0.37762 0.29814 -0.44300
F 	F 	0.94114 0.23039 0.33553 -0.38700
F 	F 	0.70075 0.78473 0.85997 -0.39300
F 	F 	0.39114 0.29814 0.12238 -0.44300
F 	F 	0.11383 0.21728 0.07366 -0.45800
