data_crystal

_cell_length_a 13.92800
_cell_length_b 16.62220
_cell_length_c 18.95700
_cell_angle_alpha 112.27000
_cell_angle_beta  90.00000
_cell_angle_gamma 114.76900

_symmetry_space_group_name_	'P 1'
_symmetry_space_group_name_H-M	'P 1'

loop_
_symmetry_equiv_pos_as_xyz
  x,y,z

loop_
_atom_site_label
_atom_site_type_symbol
_atom_site_fract_x
_atom_site_fract_y
_atom_site_fract_z
_atom_site_charge
Zn	Zn	0.88885 0.47028 0.89820 1.22700
Zn	Zn	0.62417 0.56120 0.83424 1.20800
Zn	Zn	0.93703 0.56120 0.33424 1.20700
Zn	Zn	0.41857 0.52972 0.60180 1.22700
Zn	Zn	0.11115 0.52972 0.10180 1.22700
Zn	Zn	0.58143 0.47028 0.39820 1.22700
Zn	Zn	0.37583 0.43880 0.16576 1.20900
Zn	Zn	0.06297 0.43880 0.66576 1.20800
H 	H 	0.15590 0.71200 0.34280 0.02600
H 	H 	0.32020 0.28120 0.78690 0.04100
H 	H 	0.02020 0.19160 0.91560 0.09300
H 	H 	0.34150 0.82340 0.92960 0.09000
H 	H 	0.54260 0.25820 0.49000 0.03200
H 	H 	0.86240 0.82000 0.22880 0.06000
H 	H 	0.01510 0.24640 0.78900 0.02400
H 	H 	0.41140 0.37680 0.64980 -0.00300
H 	H 	0.91840 0.90820 0.94080 0.05900
H 	H 	0.10680 0.26200 0.61120 0.00600
H 	H 	0.13760 0.18000 0.77120 0.06000
H 	H 	0.90390 0.64000 0.03630 -0.00500
H 	H 	0.55610 0.71200 0.84280 0.02600
H 	H 	0.95760 0.82000 0.72880 0.06000
H 	H 	0.98980 0.90820 0.44080 0.05500
H 	H 	0.09610 0.36000 0.96370 -0.00500
H 	H 	0.03900 0.71880 0.71310 0.04100
H 	H 	0.28440 0.74180 0.01000 0.03300
H 	H 	0.34700 0.73560 0.80030 0.02200
H 	H 	0.62140 0.87980 0.89430 0.07200
H 	H 	0.61140 0.26440 0.69970 0.02200
H 	H 	0.38860 0.73560 0.30030 0.02200
H 	H 	0.25840 0.87980 0.39430 0.07100
H 	H 	0.93700 0.04600 0.92800 0.15000
H 	H 	0.03460 0.62320 0.85020 -0.00300
H 	H 	0.65300 0.26440 0.19970 0.02200
H 	H 	0.96540 0.37680 0.14980 -0.00300
H 	H 	0.37860 0.12020 0.10570 0.07200
H 	H 	0.84410 0.28800 0.65720 0.02600
H 	H 	0.58860 0.62320 0.35020 -0.00300
H 	H 	0.89100 0.95400 0.57200 0.14900
H 	H 	0.73610 0.64000 0.53630 -0.00500
H 	H 	0.23130 0.24640 0.28900 0.02400
H 	H 	0.82860 0.80840 0.58440 0.09300
H 	H 	0.26390 0.36000 0.46370 -0.00500
H 	H 	0.06300 0.95400 0.07200 0.15000
H 	H 	0.67060 0.79220 0.39680 0.11200
H 	H 	0.17140 0.19160 0.41560 0.09300
H 	H 	0.04240 0.18000 0.27120 0.06000
H 	H 	0.45740 0.74180 0.51000 0.03200
H 	H 	0.97980 0.80840 0.08440 0.09300
H 	H 	0.12160 0.79220 0.89680 0.11200
H 	H 	0.51810 0.17660 0.57040 0.09100
H 	H 	0.65850 0.17660 0.07040 0.09000
H 	H 	0.89320 0.73800 0.38880 0.00600
H 	H 	0.67980 0.71880 0.21310 0.04100
H 	H 	0.96100 0.28120 0.28690 0.04100
H 	H 	0.98490 0.75360 0.21100 0.02400
H 	H 	0.74160 0.12020 0.60570 0.07100
H 	H 	0.48190 0.82340 0.42960 0.09100
H 	H 	0.44390 0.28800 0.15720 0.02600
H 	H 	0.84480 0.73800 0.88880 0.00400
H 	H 	0.71560 0.25820 0.99000 0.03300
H 	H 	0.01020 0.09180 0.55920 0.05500
H 	H 	0.76870 0.75360 0.71100 0.02400
H 	H 	0.08160 0.09180 0.05920 0.05900
H 	H 	0.15520 0.26200 0.11120 0.00400
H 	H 	0.87840 0.20780 0.10320 0.11200
H 	H 	0.32940 0.20780 0.60320 0.11200
H 	H 	0.10900 0.04600 0.42800 0.14900
C 	C 	0.94796 0.67152 0.00740 0.09800
C 	C 	0.21820 0.01820 0.46940 0.38100
C 	C 	0.91014 0.71288 0.20460 0.04300
C 	C 	0.95963 0.53106 0.66960 0.29900
C 	C 	0.77480 0.91120 0.92510 -0.00600
C 	C 	0.80274 0.71288 0.70460 0.04300
C 	C 	0.63634 0.66148 0.39910 0.10700
C 	C 	0.37810 0.70360 0.33390 0.06900
C 	C 	0.76160 0.92460 0.51380 -0.06300
C 	C 	0.08986 0.28712 0.79540 0.04300
C 	C 	0.15690 0.13120 0.07800 -0.07300
C 	C 	0.07629 0.76198 0.92600 -0.18100
C 	C 	0.37968 0.42596 0.32390 0.37500
C 	C 	0.77800 0.77180 0.53690 -0.18900
C 	C 	0.83758 0.75236 0.21500 -0.09700
C 	C 	0.65694 0.38968 0.56730 -0.11800
C 	C 	0.41722 0.70764 0.45850 0.05900
C 	C 	0.30759 0.60498 0.30660 -0.15100
C 	C 	0.81660 0.14740 0.60530 -0.08000
C 	C 	0.23714 0.44848 0.82680 0.05900
C 	C 	0.08522 0.24764 0.28500 -0.09700
C 	C 	0.83700 0.07540 0.98620 -0.05900
C 	C 	0.62032 0.57404 0.67610 0.37500
C 	C 	0.95372 0.57404 0.17610 0.37300
C 	C 	0.74108 0.61416 0.68510 -0.14100
C 	C 	0.33080 0.14740 0.10530 -0.08200
C 	C 	0.02570 0.86880 0.42200 -0.06400
C 	C 	0.87809 0.24738 0.63590 0.04400
C 	C 	0.91478 0.75236 0.71500 -0.09700
C 	C 	0.56640 0.24420 0.58940 -0.12000
C 	C 	0.96872 0.76724 0.39060 0.03800
C 	C 	0.76286 0.55152 0.17320 0.05900
C 	C 	0.32738 0.56516 0.48990 0.35700
C 	C 	0.70059 0.44698 0.27700 0.39400
C 	C 	0.36366 0.33852 0.60090 0.10700
C 	C 	0.42857 0.46894 0.83040 0.29900
C 	C 	0.19726 0.28712 0.29540 0.04300
C 	C 	0.74639 0.44698 0.77700 0.39400
C 	C 	0.72356 0.67152 0.50740 0.10000
C 	C 	0.78866 0.55152 0.67320 0.05900
C 	C 	0.66920 0.85260 0.89470 -0.08200
C 	C 	0.70261 0.39502 0.19340 -0.15000
C 	C 	0.67262 0.43484 0.51010 0.35700
C 	C 	0.24231 0.18222 0.50350 0.16800
C 	C 	0.76222 0.43484 0.01010 0.35500
C 	C 	0.32220 0.75580 0.91060 -0.11900
C 	C 	0.22200 0.22820 0.46310 -0.18900
C 	C 	0.43360 0.75580 0.41060 -0.12000
C 	C 	0.84310 0.86880 0.92200 -0.07300
C 	C 	0.79852 0.76724 0.89060 0.04500
C 	C 	0.04037 0.46894 0.33040 0.29900
C 	C 	0.31431 0.23802 0.57400 -0.18200
C 	C 	0.27644 0.32848 0.49260 0.10000
C 	C 	0.22520 0.08880 0.07490 -0.00600
C 	C 	0.26998 0.55636 0.85550 0.08800
C 	C 	0.71362 0.44364 0.64450 0.08800
C 	C 	0.67450 0.29640 0.16610 0.06900
C 	C 	0.18340 0.85260 0.39470 -0.08000
C 	C 	0.90092 0.59144 0.68290 -0.08600
C 	C 	0.27083 0.30806 0.79510 0.02100
C 	C 	0.73002 0.44364 0.14450 0.08800
C 	C 	0.34306 0.61032 0.43270 -0.11800
C 	C 	0.12191 0.75262 0.36410 0.04400
C 	C 	0.80000 0.01820 0.96940 0.37900
C 	C 	0.68569 0.76198 0.42600 -0.18200
C 	C 	0.78180 0.98180 0.53060 0.38100
C 	C 	0.20000 0.98180 0.03060 0.37900
C 	C 	0.87308 0.61416 0.18510 -0.14100
C 	C 	0.25892 0.38584 0.31490 -0.14100
C 	C 	0.86360 0.08880 0.57490 -0.00700
C 	C 	0.25361 0.55302 0.22300 0.39400
C 	C 	0.12692 0.38584 0.81490 -0.14100
C 	C 	0.02514 0.66148 0.89910 0.10600
C 	C 	0.29941 0.55302 0.72300 0.39400
C 	C 	0.67780 0.24420 0.08940 -0.11900
C 	C 	0.29042 0.70764 0.95850 0.05700
C 	C 	0.32550 0.70360 0.83390 0.06900
C 	C 	0.96277 0.69194 0.70490 0.02100
C 	C 	0.92371 0.23802 0.07400 -0.18100
C 	C 	0.09908 0.40856 0.31710 -0.08600
C 	C 	0.26726 0.61032 0.93270 -0.11700
C 	C 	0.05204 0.32848 0.99260 0.09800
C 	C 	0.03723 0.30806 0.29510 0.02100
C 	C 	0.36929 0.24738 0.13590 0.04500
C 	C 	0.13640 0.91120 0.42510 -0.00700
C 	C 	0.69052 0.59144 0.18290 -0.08600
C 	C 	0.58278 0.29236 0.54150 0.05900
C 	C 	0.97430 0.13120 0.57800 -0.06400
C 	C 	0.00620 0.22820 0.96310 -0.19100
C 	C 	0.75769 0.81778 0.49650 0.16800
C 	C 	0.21134 0.44848 0.32680 0.05900
C 	C 	0.69241 0.39502 0.69340 -0.15100
C 	C 	0.03128 0.23276 0.60940 0.03800
C 	C 	0.04628 0.42596 0.82390 0.37300
C 	C 	0.99380 0.77180 0.03690 -0.19100
C 	C 	0.23840 0.07540 0.48620 -0.06300
C 	C 	0.29739 0.60498 0.80660 -0.15000
C 	C 	0.70958 0.29236 0.04150 0.05700
C 	C 	0.30948 0.40856 0.81710 -0.08600
C 	C 	0.16242 0.24764 0.78500 -0.09700
C 	C 	0.16300 0.92460 0.01380 -0.05900
C 	C 	0.06009 0.81778 0.99650 0.16900
C 	C 	0.23778 0.56516 0.98990 0.35500
C 	C 	0.62190 0.29640 0.66610 0.06900
C 	C 	0.57143 0.53106 0.16960 0.29900
C 	C 	0.72917 0.69194 0.20490 0.02100
C 	C 	0.93991 0.18222 0.00350 0.16900
C 	C 	0.28638 0.55636 0.35550 0.08800
C 	C 	0.73274 0.38968 0.06730 -0.11700
C 	C 	0.20148 0.23276 0.10940 0.04500
C 	C 	0.97486 0.33852 0.10090 0.10600
C 	C 	0.63071 0.75262 0.86410 0.04500
N 	N 	0.01602 0.71084 0.36350 -0.24200
N 	N 	0.87040 0.01580 0.94110 -0.22100
N 	N 	0.14540 0.01580 0.44110 -0.22200
N 	N 	0.96297 0.61654 0.93940 -0.27300
N 	N 	0.03703 0.38346 0.06060 -0.27300
N 	N 	0.34643 0.38346 0.56060 -0.27500
N 	N 	0.90270 0.07900 0.96900 -0.12100
N 	N 	0.65357 0.61654 0.43940 -0.27500
N 	N 	0.85460 0.98420 0.55890 -0.22200
N 	N 	0.30518 0.28916 0.13650 -0.24500
N 	N 	0.17630 0.07900 0.46900 -0.12000
N 	N 	0.12960 0.98420 0.05890 -0.22100
N 	N 	0.09730 0.92100 0.03100 -0.12100
N 	N 	0.98398 0.28916 0.63650 -0.24200
N 	N 	0.82370 0.92100 0.53100 -0.12000
N 	N 	0.69482 0.71084 0.86350 -0.24500
O 	O 	0.38469 0.59578 0.70074 -0.45700
O 	O 	0.03852 0.46764 0.78288 -0.44500
O 	O 	0.93696 0.42612 0.31583 -0.38700
O 	O 	0.77816 0.52672 0.32056 -0.49700
O 	O 	0.57088 0.53236 0.71712 -0.44500
O 	O 	0.61531 0.40422 0.29926 -0.45700
O 	O 	0.42358 0.41356 0.37478 -0.45100
O 	O 	0.41391 0.58522 0.52969 -0.46100
O 	O 	0.22184 0.47328 0.67944 -0.49700
O 	O 	0.30803 0.04906 0.50270 -0.27800
O 	O 	0.96148 0.53236 0.21712 -0.44500
O 	O 	0.58609 0.41478 0.47031 -0.46100
O 	O 	0.72033 0.48566 0.00419 -0.30400
O 	O 	0.25144 0.47328 0.17944 -0.49600
O 	O 	0.17131 0.58522 0.02969 -0.46000
O 	O 	0.53191 0.44062 0.14572 -0.37500
O 	O 	0.25897 0.95094 0.99730 -0.27800
O 	O 	0.01002 0.58644 0.12522 -0.44900
O 	O 	0.48916 0.42612 0.81583 -0.38700
O 	O 	0.76533 0.48566 0.50419 -0.30400
O 	O 	0.98998 0.41356 0.87478 -0.44900
O 	O 	0.90871 0.44062 0.64572 -0.37500
O 	O 	0.74856 0.52672 0.82056 -0.49600
O 	O 	0.06304 0.57388 0.68417 -0.38700
O 	O 	0.69197 0.95094 0.49730 -0.27800
O 	O 	0.42912 0.46764 0.28288 -0.44500
O 	O 	0.57642 0.58644 0.62522 -0.45100
O 	O 	0.21109 0.59578 0.20074 -0.45600
O 	O 	0.74103 0.04906 0.00270 -0.27800
O 	O 	0.23467 0.51434 0.49581 -0.30400
O 	O 	0.09129 0.55938 0.35428 -0.37500
O 	O 	0.27967 0.51434 0.99581 -0.30400
O 	O 	0.46809 0.55938 0.85428 -0.37500
O 	O 	0.82869 0.41478 0.97031 -0.46000
O 	O 	0.78891 0.40422 0.79926 -0.45600
O 	O 	0.51084 0.57388 0.18417 -0.38700
