data_crystal

_cell_length_a 11.07490
_cell_length_b 12.20940
_cell_length_c 19.50740
_cell_angle_alpha 92.45960
_cell_angle_beta  90.00000
_cell_angle_gamma 116.97100

_symmetry_space_group_name_	'P 1'
_symmetry_space_group_name_H-M	'P 1'

loop_
_symmetry_equiv_pos_as_xyz
  x,y,z

loop_
_atom_site_label
_atom_site_type_symbol
_atom_site_fract_x
_atom_site_fract_y
_atom_site_fract_z
_atom_site_charge
Cu	Cu	0.54585 0.03826 0.43765 0.90200
Cu	Cu	0.18698 0.24372 0.85030 0.90100
Cu	Cu	0.50759 0.96174 0.56235 0.90100
Cu	Cu	0.09681 0.39584 0.80516 0.90300
Cu	Cu	0.94326 0.75628 0.14970 0.90300
Cu	Cu	0.70097 0.60416 0.19484 0.90400
H 	H 	0.00850 0.17000 0.44620 0.05400
H 	H 	0.15630 0.42320 0.47870 0.07100
H 	H 	0.68490 0.75040 0.74250 0.04400
H 	H 	0.73310 0.57680 0.52130 0.06600
H 	H 	0.49850 0.52900 0.99280 0.04400
H 	H 	0.78010 0.94260 0.65020 0.05400
H 	H 	0.49290 0.72200 0.83170 0.04000
H 	H 	0.83750 0.05740 0.34980 0.04800
H 	H 	0.90250 0.28780 0.60090 0.08300
H 	H 	0.77090 0.27800 0.16830 0.04000
H 	H 	0.89830 0.96460 0.33410 0.04500
H 	H 	0.79910 0.77360 0.79800 0.04800
H 	H 	0.07400 0.23900 0.58590 0.06700
H 	H 	0.14570 0.81060 0.34750 0.05100
H 	H 	0.69290 0.95160 0.26260 0.08000
H 	H 	0.61470 0.71220 0.39910 0.08600
H 	H 	0.93370 0.03540 0.66590 0.05200
H 	H 	0.79020 0.87600 0.97440 0.05200
H 	H 	0.83850 0.83000 0.55380 0.06500
H 	H 	0.96640 0.89880 0.73050 0.07900
H 	H 	0.33510 0.18940 0.65250 0.04600
H 	H 	0.82620 0.48720 0.38150 0.04900
H 	H 	0.74130 0.04840 0.73740 0.07900
H 	H 	0.13890 0.62840 0.51680 0.05300
H 	H 	0.06760 0.10120 0.26950 0.08600
H 	H 	0.05670 0.19140 0.32680 0.06900
H 	H 	0.84450 0.88620 0.44520 0.04700
H 	H 	0.91590 0.76120 0.52000 0.06600
H 	H 	0.02550 0.22640 0.20200 0.03200
H 	H 	0.69180 0.64020 0.58290 0.05200
H 	H 	0.83500 0.76100 0.41410 0.05800
H 	H 	0.15470 0.23880 0.48000 0.05500
H 	H 	0.91420 0.12400 0.02560 0.05300
H 	H 	0.05160 0.35980 0.41710 0.05500
H 	H 	0.95830 0.11380 0.55480 0.06100
H 	H 	0.33900 0.51280 0.61850 0.04400
H 	H 	0.51050 0.37160 0.48320 0.04800
H 	H 	0.93450 0.24960 0.25750 0.03500
H 	H 	0.96950 0.47100 0.00720 0.04600
H 	H 	0.86530 0.80860 0.67320 0.06000
C 	C 	0.90250 0.19100 0.04240 0.02600
C 	C 	0.65240 0.70220 0.99440 -0.09500
C 	C 	0.16110 0.73760 0.43720 -0.08500
C 	C 	0.46370 0.36620 0.52350 0.01900
C 	C 	0.80330 0.86600 0.21880 0.36200
C 	C 	0.93490 0.39920 0.03120 0.04500
C 	C 	0.00820 0.13200 0.28960 -0.15000
C 	C 	0.06430 0.23280 0.48030 -0.07900
C 	C 	0.95830 0.18860 0.23670 0.00800
C 	C 	0.71470 0.92980 0.85650 0.20600
C 	C 	0.90410 0.25640 0.55400 -0.07000
C 	C 	0.00440 0.20200 0.55010 -0.09500
C 	C 	0.91160 0.54880 0.39470 0.00500
C 	C 	0.47510 0.60640 0.90790 -0.10400
C 	C 	0.93730 0.13400 0.78120 0.36800
C 	C 	0.35790 0.25620 0.62520 0.03400
C 	C 	0.81110 0.02360 0.74910 -0.07500
C 	C 	0.45260 0.15880 0.53870 0.36700
C 	C 	0.86870 0.39360 0.09210 -0.10200
C 	C 	0.76970 0.81140 0.76330 -0.02700
C 	C 	0.87620 0.86800 0.71040 -0.11300
C 	C 	0.53570 0.60080 0.96880 0.04800
C 	C 	0.64770 0.74360 0.44600 -0.08700
C 	C 	0.09750 0.63380 0.47650 -0.00100
C 	C 	0.76260 0.15940 0.53160 0.36200
C 	C 	0.91250 0.65740 0.28780 0.34400
C 	C 	0.65290 0.81520 0.89630 -0.06100
C 	C 	0.71710 0.69420 0.06090 0.37400
C 	C 	0.97690 0.64900 0.35430 -0.08100
C 	C 	0.83150 0.76720 0.51970 -0.10500
C 	C 	0.10170 0.74380 0.37480 0.01400
C 	C 	0.25510 0.34260 0.71220 0.34800
C 	C 	0.87930 0.02740 0.31500 -0.03900
C 	C 	0.42350 0.26240 0.56280 -0.09700
C 	C 	0.36280 0.45120 0.60530 0.01800
C 	C 	0.06910 0.35580 0.46540 -0.05700
C 	C 	0.29380 0.84120 0.46130 0.36200
C 	C 	0.71150 0.80900 0.95760 0.02800
C 	C 	0.85050 0.49960 0.12170 0.37300
C 	C 	0.53410 0.71620 0.87200 0.02200
C 	C 	0.43390 0.46060 0.54450 -0.06700
C 	C 	0.60320 0.84060 0.46840 0.36700
C 	C 	0.83770 0.18480 0.10370 -0.06000
C 	C 	0.95020 0.29780 0.00560 -0.08800
C 	C 	0.78490 0.07020 0.14350 0.20700
C 	C 	0.90340 0.43300 0.49990 0.20200
C 	C 	0.02290 0.30580 0.93910 0.36800
C 	C 	0.35090 0.50040 0.87830 0.37400
C 	C 	0.85190 0.97260 0.68500 -0.06100
C 	C 	0.47040 0.56700 0.50010 0.20600
C 	C 	0.81790 0.28380 0.12800 0.02200
C 	C 	0.32790 0.35100 0.64570 -0.09900
C 	C 	0.80240 0.79800 0.44990 -0.05700
C 	C 	0.97330 0.53940 0.45550 -0.04900
C 	C 	0.71330 0.64420 0.53460 -0.03800
C 	C 	0.78750 0.97640 0.25090 -0.08000
N 	N 	0.96110 0.35880 0.50750 -0.11000
N 	N 	0.60230 0.64120 0.49250 -0.11400
N 	N 	0.83678 0.08056 0.20720 -0.12200
N 	N 	0.75622 0.91944 0.79280 -0.11900
O 	O 	0.84300 0.76320 0.06787 -0.39500
O 	O 	0.02088 0.37796 0.89700 -0.41400
O 	O 	0.33480 0.39560 0.89060 -0.41100
O 	O 	0.38366 0.58372 0.46960 -0.22100
O 	O 	0.73089 0.14738 0.46864 -0.40100
O 	O 	0.64292 0.62204 0.10300 -0.41200
O 	O 	0.58351 0.85262 0.53136 -0.40400
O 	O 	0.27241 0.52482 0.84284 -0.40500
O 	O 	0.27010 0.27820 0.75717 -0.40300
O 	O 	0.35728 0.91936 0.41810 -0.40600
O 	O 	0.91391 0.89042 0.19065 -0.39800
O 	O 	0.78545 0.59830 0.28185 -0.39800
O 	O 	0.18715 0.40170 0.71815 -0.40200
O 	O 	0.33192 0.84064 0.52159 -0.40700
O 	O 	0.79994 0.41628 0.53040 -0.21800
O 	O 	0.74759 0.47518 0.15716 -0.40400
O 	O 	0.70652 0.76184 0.22733 -0.40400
O 	O 	0.49128 0.15936 0.47841 -0.40700
O 	O 	0.72713 0.02786 0.88080 -0.20600
O 	O 	0.93920 0.60440 0.10940 -0.41000
O 	O 	0.59425 0.90290 0.42163 -0.41300
O 	O 	0.43792 0.08064 0.58190 -0.40700
O 	O 	0.69135 0.09710 0.57837 -0.41100
O 	O 	0.69927 0.97214 0.11920 -0.20800
O 	O 	0.07980 0.23680 0.93213 -0.39700
O 	O 	0.02349 0.10958 0.80935 -0.40600
O 	O 	0.94468 0.23816 0.77267 -0.40200
O 	O 	0.99190 0.72180 0.24283 -0.39900
