data_crystal

_cell_length_a 14.04740
_cell_length_b 14.34000
_cell_length_c 22.13870
_cell_angle_alpha 100.60000
_cell_angle_beta  90.00000
_cell_angle_gamma 90.00000

_symmetry_space_group_name_	'P 1'
_symmetry_space_group_name_H-M	'P 1'

loop_
_symmetry_equiv_pos_as_xyz
  x,y,z

loop_
_atom_site_label
_atom_site_type_symbol
_atom_site_fract_x
_atom_site_fract_y
_atom_site_fract_z
_atom_site_charge
Mn	Mn	0.87603 0.19008 0.85960 1.28200
Mn	Mn	0.37603 0.80992 0.64040 1.28200
Mn	Mn	0.75220 0.25708 0.73837 1.29800
Mn	Mn	0.62397 0.19008 0.35960 1.28200
Mn	Mn	0.74780 0.25708 0.23837 1.29800
Mn	Mn	0.25220 0.74292 0.76163 1.29800
Mn	Mn	0.12397 0.80992 0.14040 1.28200
Mn	Mn	0.24780 0.74292 0.26163 1.29800
H 	H 	0.80520 0.93140 0.20430 0.15900
H 	H 	0.63790 0.76220 0.51470 0.09300
H 	H 	0.59870 0.80000 0.34860 0.17300
H 	H 	0.82070 0.95580 0.16210 0.08600
H 	H 	0.01980 0.49140 0.75330 0.06000
H 	H 	0.39160 0.09730 0.30130 0.10600
H 	H 	0.07970 0.01400 0.87170 0.21900
H 	H 	0.99090 0.18680 0.16460 0.19000
H 	H 	0.59360 0.80720 0.51130 0.06600
H 	H 	0.21790 0.09900 0.78790 0.03900
H 	H 	0.26940 0.19470 0.95090 0.02000
H 	H 	0.51710 0.03310 0.75910 0.04000
H 	H 	0.90640 0.80720 0.01130 0.06600
H 	H 	0.99700 0.21540 0.12580 0.17000
H 	H 	0.69480 0.93140 0.70430 0.16100
H 	H 	0.93040 0.40040 0.90530 0.03500
H 	H 	0.91240 0.06840 0.59680 0.07100
H 	H 	0.00300 0.78460 0.87420 0.17000
H 	H 	0.12600 0.87890 0.57250 0.05700
H 	H 	0.50850 0.80790 0.30810 -0.04900
H 	H 	0.97110 0.72270 0.02220 0.08900
H 	H 	0.20140 0.11630 0.15290 0.09200
H 	H 	0.28270 0.11500 0.91980 0.10200
H 	H 	0.31210 0.18100 0.87380 0.05400
H 	H 	0.49700 0.78460 0.37420 0.16600
H 	H 	0.00180 0.20690 0.09770 0.03600
H 	H 	0.21570 0.09720 0.93770 0.03000
H 	H 	0.59890 0.04470 0.58890 0.21100
H 	H 	0.22320 0.01140 0.17350 0.08300
H 	H 	0.80710 0.88780 0.60000 -0.01500
H 	H 	0.19290 0.11220 0.40000 -0.01500
H 	H 	0.30520 0.06860 0.29570 0.16100
H 	H 	0.00910 0.81320 0.83540 0.19000
H 	H 	0.54460 0.06570 0.53110 0.15600
H 	H 	0.36010 0.28910 0.48030 0.10200
H 	H 	0.25480 0.01300 0.62680 0.08700
H 	H 	0.76940 0.80530 0.54910 0.02000
H 	H 	0.27680 0.01140 0.67350 0.08300
H 	H 	0.89160 0.90270 0.19870 0.10600
H 	H 	0.78210 0.90100 0.21210 0.03900
H 	H 	0.29860 0.11630 0.65290 0.09100
H 	H 	0.65500 0.90820 0.29410 0.07600
H 	H 	0.92030 0.98600 0.12830 0.21900
H 	H 	0.40110 0.95530 0.41110 0.21100
H 	H 	0.91480 0.03500 0.07070 0.28400
H 	H 	0.30710 0.11220 0.90000 -0.01500
H 	H 	0.40780 0.20270 0.63860 -0.04000
H 	H 	0.13990 0.28910 0.98030 0.10200
H 	H 	0.26940 0.22520 0.93820 0.04100
H 	H 	0.67930 0.95580 0.66210 0.08700
H 	H 	0.23060 0.22520 0.43820 0.04100
H 	H 	0.50180 0.79310 0.40230 0.03700
H 	H 	0.71790 0.90100 0.71210 0.03900
H 	H 	0.81210 0.81900 0.62620 0.05300
H 	H 	0.61530 0.09110 0.63550 0.16900
H 	H 	0.47110 0.27730 0.47780 0.08900
H 	H 	0.73020 0.82880 0.70760 0.05800
H 	H 	0.08520 0.96500 0.92930 0.28400
H 	H 	0.09360 0.19280 0.98870 0.06600
H 	H 	0.43040 0.59960 0.59470 0.03500
H 	H 	0.58520 0.03500 0.57070 0.28900
H 	H 	0.42030 0.01400 0.37170 0.22500
H 	H 	0.08760 0.93160 0.40320 0.07100
H 	H 	0.28430 0.09720 0.43770 0.03000
H 	H 	0.99820 0.79310 0.90230 0.03600
H 	H 	0.61400 0.38100 0.58100 0.06600
H 	H 	0.78270 0.88500 0.58020 0.10100
H 	H 	0.04460 0.93430 0.96890 0.15300
H 	H 	0.18790 0.18100 0.37380 0.05300
H 	H 	0.49820 0.20690 0.59770 0.03700
H 	H 	0.50910 0.18680 0.66460 0.18500
H 	H 	0.36210 0.23780 0.48530 0.09300
H 	H 	0.98290 0.03310 0.25910 0.04000
H 	H 	0.77680 0.98860 0.82650 0.08300
H 	H 	0.87880 0.85230 0.21190 0.06600
H 	H 	0.88430 0.66380 0.03280 0.05800
H 	H 	0.61570 0.66380 0.53280 0.05800
H 	H 	0.86010 0.71090 0.01970 0.10200
H 	H 	0.96780 0.73180 0.02270 0.03000
H 	H 	0.13790 0.23780 0.98530 0.09300
H 	H 	0.95540 0.06570 0.03110 0.15300
H 	H 	0.90780 0.79730 0.86140 -0.04000
H 	H 	0.60840 0.90270 0.69870 0.10600
H 	H 	0.11570 0.33620 0.96720 0.05800
H 	H 	0.38600 0.61900 0.41900 0.06600
H 	H 	0.45540 0.93430 0.46890 0.15600
H 	H 	0.74520 0.98700 0.37320 0.08700
H 	H 	0.49150 0.19210 0.69190 -0.04900
H 	H 	0.37880 0.14770 0.28810 0.06700
H 	H 	0.34500 0.09180 0.70590 0.07600
H 	H 	0.00850 0.19210 0.19190 -0.05200
H 	H 	0.62600 0.12110 0.92750 0.05700
H 	H 	0.23020 0.17120 0.79240 0.05700
H 	H 	0.38470 0.90890 0.36450 0.16900
H 	H 	0.40640 0.19280 0.48870 0.06600
H 	H 	0.62120 0.85230 0.71190 0.06700
H 	H 	0.70140 0.88370 0.34710 0.09100
H 	H 	0.76980 0.82880 0.20760 0.05700
H 	H 	0.98020 0.50860 0.24670 0.06000
H 	H 	0.23060 0.19470 0.45090 0.02000
H 	H 	0.87400 0.12110 0.42750 0.05700
H 	H 	0.09870 0.20000 0.15140 0.17600
H 	H 	0.57970 0.98600 0.62830 0.22500
H 	H 	0.97000 0.96840 0.05250 0.19500
H 	H 	0.09220 0.20270 0.13860 -0.04000
H 	H 	0.86210 0.76220 0.01470 0.09300
H 	H 	0.52890 0.72270 0.52220 0.08900
H 	H 	0.90130 0.80000 0.84860 0.17600
H 	H 	0.06960 0.59960 0.09470 0.03500
H 	H 	0.40130 0.20000 0.65140 0.17300
H 	H 	0.12120 0.14770 0.78810 0.06600
H 	H 	0.47000 0.03160 0.44750 0.20100
H 	H 	0.53220 0.73180 0.52270 0.03000
H 	H 	0.71670 0.89240 0.35030 0.05300
H 	H 	0.76940 0.77480 0.56180 0.04100
H 	H 	0.51980 0.50860 0.74670 0.06000
H 	H 	0.28210 0.09900 0.28790 0.03900
H 	H 	0.88470 0.09110 0.13550 0.16600
H 	H 	0.48020 0.49140 0.25330 0.06000
H 	H 	0.63990 0.71090 0.51970 0.10200
H 	H 	0.49090 0.81320 0.33540 0.18500
H 	H 	0.17930 0.04420 0.83790 0.08600
H 	H 	0.24520 0.01300 0.12680 0.08700
H 	H 	0.03220 0.26820 0.97730 0.03000
H 	H 	0.50300 0.21540 0.62580 0.16600
H 	H 	0.37400 0.87890 0.07250 0.05700
H 	H 	0.88600 0.38100 0.08100 0.06600
H 	H 	0.84500 0.90820 0.79410 0.07600
H 	H 	0.72320 0.98860 0.32650 0.08300
H 	H 	0.59220 0.79730 0.36140 -0.04000
H 	H 	0.21730 0.11500 0.41980 0.10100
H 	H 	0.73060 0.80530 0.04910 0.02000
H 	H 	0.48290 0.96690 0.24090 0.04000
H 	H 	0.46780 0.26820 0.47730 0.03000
H 	H 	0.79860 0.88370 0.84710 0.09200
H 	H 	0.19480 0.06860 0.79570 0.15900
H 	H 	0.26980 0.17120 0.29240 0.05800
H 	H 	0.41240 0.93160 0.90320 0.07100
H 	H 	0.69290 0.88780 0.10000 -0.01500
H 	H 	0.11530 0.90890 0.86450 0.16600
H 	H 	0.99150 0.80790 0.80810 -0.05200
H 	H 	0.15500 0.09180 0.20590 0.07600
H 	H 	0.41480 0.96500 0.42930 0.28900
H 	H 	0.38430 0.33620 0.46720 0.05800
H 	H 	0.56960 0.40040 0.40530 0.03500
H 	H 	0.78330 0.89240 0.85030 0.05300
H 	H 	0.32070 0.04420 0.33790 0.08700
H 	H 	0.53000 0.96840 0.55250 0.20100
H 	H 	0.02890 0.27730 0.97780 0.08900
H 	H 	0.03000 0.03160 0.94750 0.19500
H 	H 	0.21670 0.10760 0.14970 0.05300
H 	H 	0.09890 0.95530 0.91110 0.20400
H 	H 	0.68790 0.81900 0.12620 0.05400
H 	H 	0.01710 0.96690 0.74090 0.04000
H 	H 	0.28330 0.10760 0.64970 0.05300
H 	H 	0.71570 0.90280 0.56230 0.03000
H 	H 	0.73060 0.77480 0.06180 0.04100
H 	H 	0.75480 0.98700 0.87320 0.08700
H 	H 	0.90110 0.04470 0.08890 0.20400
H 	H 	0.58760 0.06840 0.09680 0.07100
H 	H 	0.78430 0.90280 0.06230 0.03000
H 	H 	0.71730 0.88500 0.08020 0.10200
H 	H 	0.11400 0.61900 0.91900 0.06600
H 	H 	0.10840 0.09730 0.80130 0.10600
C 	C 	0.41710 0.91600 0.09834 -0.06300
C 	C 	0.58280 0.08630 0.83924 -0.08900
C 	C 	0.54050 0.03520 0.56610 -0.53700
C 	C 	0.40400 0.27100 0.46240 -0.20600
C 	C 	0.53010 0.82350 0.37150 -0.35200
C 	C 	0.80720 0.94710 0.86490 -0.23600
C 	C 	0.01840 0.96920 0.69918 0.00800
C 	C 	0.67100 0.90100 0.68080 -0.28100
C 	C 	0.08280 0.91370 0.66076 -0.08800
C 	C 	0.02190 0.51130 0.92254 0.07300
C 	C 	0.41100 0.24560 0.46770 -0.21300
C 	C 	0.25110 0.14220 0.91960 -0.05500
C 	C 	0.51840 0.03080 0.80082 0.00600
C 	C 	0.48090 0.97340 0.07426 0.07500
C 	C 	0.97970 0.50320 0.20418 -0.00900
C 	C 	0.46410 0.56410 0.67640 -0.07400
C 	C 	0.57700 0.42730 0.60508 -0.08000
C 	C 	0.04050 0.96480 0.93390 -0.52200
C 	C 	0.96410 0.43590 0.82360 -0.07400
C 	C 	0.58900 0.75440 0.53230 -0.21300
C 	C 	0.42300 0.57270 0.39492 -0.08000
C 	C 	0.08900 0.24560 0.96770 -0.21300
C 	C 	0.92800 0.04480 0.11390 -0.59800
C 	C 	0.53390 0.44210 0.38694 -0.05300
C 	C 	0.30720 0.05290 0.63510 -0.23600
C 	C 	0.89980 0.78020 0.11380 0.19600
C 	C 	0.03390 0.55790 0.11306 -0.05200
C 	C 	0.96990 0.82350 0.87150 -0.35800
C 	C 	0.89130 0.09560 0.71733 0.36900
C 	C 	0.88600 0.97750 0.87710 0.18100
C 	C 	0.45590 0.97170 0.82464 -0.08200
C 	C 	0.32900 0.09900 0.31920 -0.28100
C 	C 	0.46990 0.17650 0.62850 -0.35200
C 	C 	0.63920 0.37080 0.69779 0.28000
C 	C 	0.07700 0.57270 0.89492 -0.08000
C 	C 	0.10310 0.63190 0.21459 0.33600
C 	C 	0.51910 0.02660 0.92574 0.07500
C 	C 	0.68150 0.93830 0.33280 -0.20000
C 	C 	0.69280 0.94710 0.36490 -0.23600
C 	C 	0.59370 0.78880 0.59910 0.07400
C 	C 	0.81970 0.86500 0.19330 -0.19100
C 	C 	0.03330 0.18030 0.15080 -0.09700
C 	C 	0.90630 0.78880 0.09910 0.07400
C 	C 	0.92300 0.42730 0.10508 -0.08000
C 	C 	0.36080 0.62920 0.30221 0.28000
C 	C 	0.15640 0.85260 0.68482 0.36900
C 	C 	0.46610 0.55790 0.61306 -0.05300
C 	C 	0.08810 0.01460 0.11650 0.04200
C 	C 	0.31970 0.13500 0.30670 -0.19200
C 	C 	0.08290 0.91600 0.59834 -0.06400
C 	C 	0.58290 0.08400 0.90166 -0.06300
C 	C 	0.40630 0.21120 0.40090 0.07400
C 	C 	0.45950 0.96480 0.43390 -0.53700
C 	C 	0.17100 0.09900 0.81920 -0.27900
C 	C 	0.54410 0.02830 0.17536 -0.08200
C 	C 	0.81850 0.93830 0.83280 -0.20000
C 	C 	0.13920 0.62920 0.80221 0.28000
C 	C 	0.38600 0.02250 0.62290 0.18100
C 	C 	0.45520 0.97010 0.88722 -0.06200
C 	C 	0.58810 0.98540 0.38350 0.04300
C 	C 	0.07200 0.95520 0.88610 -0.59800
C 	C 	0.31850 0.06170 0.66720 -0.20000
C 	C 	0.34360 0.85260 0.18482 0.36900
C 	C 	0.10020 0.21980 0.88620 0.19600
C 	C 	0.65640 0.14740 0.81518 0.36900
C 	C 	0.96610 0.44210 0.88694 -0.05200
C 	C 	0.84360 0.14740 0.31518 0.36900
C 	C 	0.41190 0.01460 0.61650 0.04300
C 	C 	0.57650 0.43550 0.66883 -0.04500
C 	C 	0.41720 0.91370 0.16076 -0.08900
C 	C 	0.52190 0.48870 0.57746 0.07400
C 	C 	0.19280 0.05290 0.13510 -0.23600
C 	C 	0.42800 0.95520 0.38610 -0.61500
C 	C 	0.97810 0.48870 0.07746 0.07300
C 	C 	0.86080 0.37080 0.19779 0.28000
C 	C 	0.52030 0.50320 0.70418 -0.00800
C 	C 	0.91190 0.98540 0.88350 0.04200
C 	C 	0.60020 0.78020 0.61380 0.19700
C 	C 	0.47970 0.49680 0.29582 -0.00800
C 	C 	0.03010 0.17650 0.12850 -0.35800
C 	C 	0.09370 0.21120 0.90090 0.07400
C 	C 	0.61400 0.97750 0.37710 0.18100
C 	C 	0.59600 0.72900 0.53760 -0.20600
C 	C 	0.53330 0.81970 0.34920 -0.09500
C 	C 	0.03590 0.56410 0.17640 -0.07400
C 	C 	0.96670 0.81970 0.84920 -0.09700
C 	C 	0.11400 0.02250 0.12290 0.18100
C 	C 	0.54480 0.02990 0.11278 -0.06200
C 	C 	0.53590 0.43590 0.32360 -0.07400
C 	C 	0.23290 0.17190 0.40480 -0.10800
C 	C 	0.02030 0.49680 0.79582 -0.00900
C 	C 	0.74890 0.85780 0.08040 -0.05500
C 	C 	0.24890 0.14220 0.41960 -0.05500
C 	C 	0.57200 0.04480 0.61390 -0.61500
C 	C 	0.09600 0.27100 0.96240 -0.20600
C 	C 	0.91100 0.75440 0.03230 -0.21300
C 	C 	0.10870 0.90440 0.28267 0.36900
C 	C 	0.89690 0.36810 0.78541 0.33600
C 	C 	0.01910 0.97340 0.57426 0.07600
C 	C 	0.73290 0.82810 0.09520 -0.10900
C 	C 	0.98160 0.03080 0.30082 0.00800
C 	C 	0.82900 0.90100 0.18080 -0.27900
C 	C 	0.42350 0.56450 0.33117 -0.04500
C 	C 	0.90400 0.72900 0.03760 -0.20600
C 	C 	0.98090 0.02660 0.42574 0.07600
C 	C 	0.91720 0.08630 0.33924 -0.08800
C 	C 	0.39980 0.21980 0.38620 0.19700
C 	C 	0.39690 0.63190 0.71459 0.33600
C 	C 	0.39130 0.90440 0.78267 0.36900
C 	C 	0.26710 0.17190 0.90480 -0.10900
C 	C 	0.07650 0.56450 0.83117 -0.04500
C 	C 	0.60310 0.36810 0.28541 0.33600
C 	C 	0.60870 0.09560 0.21733 0.36900
C 	C 	0.46670 0.18030 0.65080 -0.09500
C 	C 	0.04480 0.97010 0.38722 -0.06300
C 	C 	0.48160 0.96920 0.19918 0.00600
C 	C 	0.95950 0.03520 0.06610 -0.52200
C 	C 	0.68030 0.86500 0.69330 -0.19200
C 	C 	0.47810 0.51130 0.42254 0.07400
C 	C 	0.04410 0.97170 0.32464 -0.08200
C 	C 	0.18030 0.13500 0.80670 -0.19100
C 	C 	0.95520 0.02990 0.61278 -0.06300
C 	C 	0.76710 0.82810 0.59520 -0.10800
C 	C 	0.95590 0.02830 0.67536 -0.08200
C 	C 	0.91710 0.08400 0.40166 -0.06400
C 	C 	0.18150 0.06170 0.16720 -0.20000
C 	C 	0.75110 0.85780 0.58040 -0.05500
C 	C 	0.92350 0.43550 0.16883 -0.04500
N 	N 	0.97410 0.02910 0.49048 -0.09200
N 	N 	0.02690 0.07900 0.12530 0.25700
N 	N 	0.81950 0.81690 0.13510 0.51200
N 	N 	0.46200 0.07600 0.60510 -0.21700
N 	N 	0.32820 0.16340 0.37870 -0.61800
N 	N 	0.31950 0.18310 0.36490 0.51700
N 	N 	0.03800 0.07600 0.10510 -0.22000
N 	N 	0.68050 0.81690 0.63510 0.51700
N 	N 	0.47170 0.52460 0.48822 -0.10000
N 	N 	0.18050 0.18310 0.86490 0.51200
N 	N 	0.17180 0.16340 0.87870 -0.61300
N 	N 	0.02830 0.52460 0.98822 -0.09900
N 	N 	0.52590 0.02910 0.99048 -0.09200
N 	N 	0.02590 0.97090 0.50952 -0.09200
N 	N 	0.67180 0.83660 0.62130 -0.61800
N 	N 	0.97310 0.92100 0.87470 0.25700
N 	N 	0.53800 0.92400 0.39490 -0.21700
N 	N 	0.97170 0.47540 0.01178 -0.09900
N 	N 	0.52830 0.47540 0.51178 -0.10000
N 	N 	0.47410 0.97090 0.00952 -0.09200
N 	N 	0.47310 0.07900 0.62530 0.25700
N 	N 	0.52690 0.92100 0.37470 0.25700
N 	N 	0.82820 0.83660 0.12130 -0.61300
N 	N 	0.96200 0.92400 0.89490 -0.22000
O 	O 	0.52330 0.78720 0.62780 -0.13400
O 	O 	0.88730 0.06450 0.90100 0.12900
O 	O 	0.85135 0.30974 0.81225 -0.55600
O 	O 	0.38730 0.93550 0.59900 0.12000
O 	O 	0.64563 0.16387 0.76194 -0.45100
O 	O 	0.88222 0.37251 0.73092 -0.35000
O 	O 	0.61778 0.37251 0.23092 -0.35000
O 	O 	0.10100 0.90325 0.22618 -0.46200
O 	O 	0.14894 0.61572 0.74485 -0.36200
O 	O 	0.47230 0.22520 0.36020 -0.25800
O 	O 	0.33643 0.85374 0.80800 -0.45900
O 	O 	0.83643 0.14626 0.69200 -0.45900
O 	O 	0.52770 0.77480 0.63980 -0.25800
O 	O 	0.47670 0.21280 0.37220 -0.13400
O 	O 	0.16357 0.85374 0.30800 -0.45900
O 	O 	0.64894 0.38428 0.75515 -0.36200
O 	O 	0.60100 0.09675 0.27382 -0.46200
O 	O 	0.35437 0.83613 0.23806 -0.45100
O 	O 	0.22318 0.82260 0.64936 -0.49900
O 	O 	0.35135 0.69026 0.68775 -0.55600
O 	O 	0.77682 0.17740 0.35064 -0.49900
O 	O 	0.68133 0.30377 0.66269 -0.40300
O 	O 	0.81867 0.30377 0.16269 -0.40300
O 	O 	0.61270 0.06450 0.40100 0.12000
O 	O 	0.42370 0.92880 0.59920 -0.49900
O 	O 	0.14563 0.83613 0.73806 -0.45100
O 	O 	0.39900 0.90325 0.72618 -0.46200
O 	O 	0.64865 0.30974 0.31225 -0.55600
O 	O 	0.89900 0.09675 0.77382 -0.46200
O 	O 	0.85106 0.38428 0.25515 -0.36200
O 	O 	0.97670 0.78720 0.12780 -0.13400
O 	O 	0.85437 0.16387 0.26194 -0.45100
O 	O 	0.97230 0.77480 0.13980 -0.25800
O 	O 	0.18133 0.69623 0.83731 -0.40300
O 	O 	0.57630 0.07120 0.40080 -0.49900
O 	O 	0.38222 0.62749 0.76908 -0.35000
O 	O 	0.11270 0.93550 0.09900 0.12900
O 	O 	0.27682 0.82260 0.14936 -0.49900
O 	O 	0.72318 0.17740 0.85064 -0.49900
O 	O 	0.14865 0.69026 0.18775 -0.55600
O 	O 	0.02330 0.21280 0.87220 -0.13400
O 	O 	0.07630 0.92880 0.09920 -0.50700
O 	O 	0.31867 0.69623 0.33731 -0.40300
O 	O 	0.92370 0.07120 0.90080 -0.50700
O 	O 	0.66357 0.14626 0.19200 -0.45900
O 	O 	0.11778 0.62749 0.26908 -0.35000
O 	O 	0.35106 0.61572 0.24485 -0.36200
O 	O 	0.02770 0.22520 0.86020 -0.25800
