data_crystal

_cell_length_a 10.56660
_cell_length_b 19.79800
_cell_length_c 16.86000
_cell_angle_alpha 90.00000
_cell_angle_beta  100.17300
_cell_angle_gamma 90.00000

_symmetry_space_group_name_	'P 1'
_symmetry_space_group_name_H-M	'P 1'

loop_
_symmetry_equiv_pos_as_xyz
  x,y,z

loop_
_atom_site_label
_atom_site_type_symbol
_atom_site_fract_x
_atom_site_fract_y
_atom_site_fract_z
_atom_site_charge
C 	C 	0.40190 0.06090 0.85780 0.09900
C 	C 	0.78250 0.09060 0.60480 0.07600
C 	C 	0.45960 0.17170 0.60710 0.08400
H 	H 	0.53650 0.19530 0.62110 -0.03100
C 	C 	0.36650 0.19760 0.54610 -0.17000
H 	H 	0.38080 0.23860 0.52200 0.09200
C 	C 	0.25200 0.16290 0.52050 0.10200
C 	C 	0.23310 0.10390 0.56340 -0.16500
H 	H 	0.15630 0.08000 0.55150 0.08900
C 	C 	0.33160 0.08180 0.62430 0.08300
H 	H 	0.31900 0.04190 0.65100 -0.01300
C 	C 	0.15240 0.19000 0.45650 -0.04700
C 	C 	0.13640 0.26000 0.44160 -0.03800
H 	H 	0.18350 0.29380 0.47180 0.04400
C 	C 	0.03790 0.27130 0.37350 -0.04700
C 	C 	0.98450 0.20910 0.34630 0.02600
C 	C 	0.06300 0.15440 0.39710 0.03100
C 	C 	0.05280 0.08660 0.38550 -0.09200
H 	H 	0.11370 0.06080 0.41910 0.06400
C 	C 	0.96440 0.04970 0.33070 0.00600
H 	H 	0.97610 0.00310 0.33250 0.02400
C 	C 	0.86390 0.07200 0.27500 -0.08500
H 	H 	0.81530 0.03840 0.24540 0.05600
C 	C 	0.82350 0.13730 0.25600 0.00400
H 	H 	0.74990 0.14130 0.21690 0.02500
C 	C 	0.87760 0.19820 0.28740 -0.09100
H 	H 	0.83570 0.23700 0.26540 0.06200
C 	C 	0.99770 0.34120 0.34740 0.11300
C 	C 	0.97140 0.35810 0.26590 -0.16900
H 	H 	0.97180 0.32490 0.22690 0.08600
C 	C 	0.94410 0.42600 0.24250 0.09400
H 	H 	0.93140 0.43730 0.18810 -0.01800
C 	C 	0.95830 0.45530 0.37360 0.11000
H 	H 	0.95190 0.48880 0.41140 -0.02300
C 	C 	0.98880 0.39260 0.40180 -0.18400
H 	H 	0.00360 0.38400 0.45690 0.09800
C 	C 	0.84410 0.00570 0.82650 0.08700
H 	H 	0.84450 0.98910 0.77500 -0.01400
C 	C 	0.94160 0.98510 0.88860 -0.14000
H 	H 	0.00240 0.95370 0.87860 0.07500
C 	C 	0.94780 0.01110 0.96440 0.06000
C 	C 	0.85430 0.05450 0.97700 -0.13400
H 	H 	0.85470 0.07340 0.02760 0.07200
C 	C 	0.75540 0.07050 0.91070 0.06900
H 	H 	0.68940 0.09890 0.91960 -0.02300
N 	N 	0.47230 0.06980 0.81520 -0.28900
N 	N 	0.72360 0.08840 0.66060 -0.26800
N 	N 	0.44430 0.11480 0.64670 -0.25100
N 	N 	0.75280 0.04680 0.83680 -0.25200
N 	N 	0.93640 0.47350 0.29590 -0.25100
Co	Co	0.59812 0.07783 0.74052 1.10300
S 	S 	0.29540 0.04490 0.91730 -0.07600
S 	S 	0.86010 0.09421 0.53264 -0.06900
C 	C 	0.09810 0.56090 0.14220 0.10000
C 	C 	0.71750 0.59060 0.39520 0.07700
C 	C 	0.04040 0.67170 0.39290 0.08500
H 	H 	0.96350 0.69530 0.37890 -0.03100
C 	C 	0.13350 0.69760 0.45390 -0.17100
H 	H 	0.11920 0.73860 0.47800 0.09200
C 	C 	0.24800 0.66290 0.47950 0.10300
C 	C 	0.26690 0.60390 0.43660 -0.16500
H 	H 	0.34370 0.58000 0.44850 0.08900
C 	C 	0.16840 0.58180 0.37570 0.08300
H 	H 	0.18100 0.54190 0.34900 -0.01300
C 	C 	0.34760 0.69000 0.54350 -0.04700
C 	C 	0.36360 0.76000 0.55840 -0.03700
H 	H 	0.31650 0.79380 0.52820 0.04400
C 	C 	0.46210 0.77130 0.62650 -0.04900
C 	C 	0.51550 0.70910 0.65370 0.02800
C 	C 	0.43700 0.65440 0.60290 0.03100
C 	C 	0.44720 0.58660 0.61450 -0.09400
H 	H 	0.38630 0.56080 0.58090 0.06400
C 	C 	0.53560 0.54970 0.66930 0.00900
H 	H 	0.52390 0.50310 0.66750 0.02400
C 	C 	0.63610 0.57200 0.72500 -0.08700
H 	H 	0.68470 0.53840 0.75460 0.05700
C 	C 	0.67650 0.63730 0.74400 0.00600
H 	H 	0.75010 0.64130 0.78310 0.02500
C 	C 	0.62240 0.69820 0.71260 -0.09200
H 	H 	0.66430 0.73700 0.73460 0.06300
C 	C 	0.50230 0.84120 0.65260 0.11500
C 	C 	0.52860 0.85810 0.73410 -0.16900
H 	H 	0.52820 0.82490 0.77310 0.08700
C 	C 	0.55590 0.92600 0.75750 0.09500
H 	H 	0.56860 0.93730 0.81190 -0.01800
C 	C 	0.54170 0.95530 0.62640 0.11000
H 	H 	0.54810 0.98880 0.58860 -0.02300
C 	C 	0.51120 0.89260 0.59820 -0.18400
H 	H 	0.49640 0.88400 0.54310 0.09800
C 	C 	0.65590 0.50570 0.17350 0.09400
H 	H 	0.65550 0.48910 0.22500 -0.01700
C 	C 	0.55840 0.48510 0.11140 -0.15000
H 	H 	0.49760 0.45370 0.12140 0.08000
C 	C 	0.55220 0.51110 0.03560 0.06400
C 	C 	0.64570 0.55450 0.02300 -0.14100
H 	H 	0.64530 0.57340 0.97240 0.07600
C 	C 	0.74460 0.57050 0.08930 0.07200
H 	H 	0.81060 0.59890 0.08040 -0.02500
N 	N 	0.02770 0.56980 0.18480 -0.28900
N 	N 	0.77640 0.58840 0.33940 -0.26800
N 	N 	0.05570 0.61480 0.35330 -0.25100
N 	N 	0.74720 0.54680 0.16320 -0.25400
N 	N 	0.56360 0.97350 0.70410 -0.25100
Co	Co	0.90188 0.57783 0.25948 1.10300
S 	S 	0.20460 0.54490 0.08270 -0.07500
S 	S 	0.63990 0.59421 0.46736 -0.06800
C 	C 	0.59810 0.93910 0.14220 0.10000
C 	C 	0.21750 0.90940 0.39520 0.07700
C 	C 	0.54040 0.82830 0.39290 0.08400
H 	H 	0.46350 0.80470 0.37890 -0.03100
C 	C 	0.63350 0.80240 0.45390 -0.17000
H 	H 	0.61920 0.76140 0.47800 0.09200
C 	C 	0.74800 0.83710 0.47950 0.10200
C 	C 	0.76690 0.89610 0.43660 -0.16500
H 	H 	0.84370 0.92000 0.44850 0.08900
C 	C 	0.66840 0.91820 0.37570 0.08300
H 	H 	0.68100 0.95810 0.34900 -0.01300
C 	C 	0.84760 0.81000 0.54350 -0.04700
C 	C 	0.86360 0.74000 0.55840 -0.03800
H 	H 	0.81650 0.70620 0.52820 0.04400
C 	C 	0.96210 0.72870 0.62650 -0.04700
C 	C 	0.01550 0.79090 0.65370 0.02600
C 	C 	0.93700 0.84560 0.60290 0.03100
C 	C 	0.94720 0.91340 0.61450 -0.09200
H 	H 	0.88630 0.93920 0.58090 0.06400
C 	C 	0.03560 0.95030 0.66930 0.00600
H 	H 	0.02390 0.99690 0.66750 0.02400
C 	C 	0.13610 0.92800 0.72500 -0.08500
H 	H 	0.18470 0.96160 0.75460 0.05600
C 	C 	0.17650 0.86270 0.74400 0.00400
H 	H 	0.25010 0.85870 0.78310 0.02500
C 	C 	0.12240 0.80180 0.71260 -0.09100
H 	H 	0.16430 0.76300 0.73460 0.06200
C 	C 	0.00230 0.65880 0.65260 0.11300
C 	C 	0.02860 0.64190 0.73410 -0.16900
H 	H 	0.02820 0.67510 0.77310 0.08600
C 	C 	0.05590 0.57400 0.75750 0.09400
H 	H 	0.06860 0.56270 0.81190 -0.01800
C 	C 	0.04170 0.54470 0.62640 0.11000
H 	H 	0.04810 0.51120 0.58860 -0.02300
C 	C 	0.01120 0.60740 0.59820 -0.18400
H 	H 	0.99640 0.61600 0.54310 0.09800
C 	C 	0.15590 0.99430 0.17350 0.08700
H 	H 	0.15550 0.01090 0.22500 -0.01400
C 	C 	0.05840 0.01490 0.11140 -0.14000
H 	H 	0.99760 0.04630 0.12140 0.07500
C 	C 	0.05220 0.98890 0.03560 0.06000
C 	C 	0.14570 0.94550 0.02300 -0.13400
H 	H 	0.14530 0.92660 0.97240 0.07200
C 	C 	0.24460 0.92950 0.08930 0.06900
H 	H 	0.31060 0.90110 0.08040 -0.02300
N 	N 	0.52770 0.93020 0.18480 -0.28900
N 	N 	0.27640 0.91160 0.33940 -0.26800
N 	N 	0.55570 0.88520 0.35330 -0.25100
N 	N 	0.24720 0.95320 0.16320 -0.25200
N 	N 	0.06360 0.52650 0.70410 -0.25100
Co	Co	0.40188 0.92217 0.25948 1.10300
S 	S 	0.70460 0.95510 0.08270 -0.07600
S 	S 	0.13990 0.90579 0.46736 -0.06900
C 	C 	0.90190 0.43910 0.85780 0.10000
C 	C 	0.28250 0.40940 0.60480 0.07700
C 	C 	0.95960 0.32830 0.60710 0.08500
H 	H 	0.03650 0.30470 0.62110 -0.03100
C 	C 	0.86650 0.30240 0.54610 -0.17100
H 	H 	0.88080 0.26140 0.52200 0.09200
C 	C 	0.75200 0.33710 0.52050 0.10300
C 	C 	0.73310 0.39610 0.56340 -0.16500
H 	H 	0.65630 0.42000 0.55150 0.08900
C 	C 	0.83160 0.41820 0.62430 0.08300
H 	H 	0.81900 0.45810 0.65100 -0.01300
C 	C 	0.65240 0.31000 0.45650 -0.04700
C 	C 	0.63640 0.24000 0.44160 -0.03700
H 	H 	0.68350 0.20620 0.47180 0.04400
C 	C 	0.53790 0.22870 0.37350 -0.04900
C 	C 	0.48450 0.29090 0.34630 0.02800
C 	C 	0.56300 0.34560 0.39710 0.03100
C 	C 	0.55280 0.41340 0.38550 -0.09400
H 	H 	0.61370 0.43920 0.41910 0.06400
C 	C 	0.46440 0.45030 0.33070 0.00900
H 	H 	0.47610 0.49690 0.33250 0.02400
C 	C 	0.36390 0.42800 0.27500 -0.08700
H 	H 	0.31530 0.46160 0.24540 0.05700
C 	C 	0.32350 0.36270 0.25600 0.00600
H 	H 	0.24990 0.35870 0.21690 0.02500
C 	C 	0.37760 0.30180 0.28740 -0.09200
H 	H 	0.33570 0.26300 0.26540 0.06300
C 	C 	0.49770 0.15880 0.34740 0.11500
C 	C 	0.47140 0.14190 0.26590 -0.16900
H 	H 	0.47180 0.17510 0.22690 0.08700
C 	C 	0.44410 0.07400 0.24250 0.09500
H 	H 	0.43140 0.06270 0.18810 -0.01800
C 	C 	0.45830 0.04470 0.37360 0.11000
H 	H 	0.45190 0.01120 0.41140 -0.02300
C 	C 	0.48880 0.10740 0.40180 -0.18400
H 	H 	0.50360 0.11600 0.45690 0.09800
C 	C 	0.34410 0.49430 0.82650 0.09400
H 	H 	0.34450 0.51090 0.77500 -0.01700
C 	C 	0.44160 0.51490 0.88860 -0.15000
H 	H 	0.50240 0.54630 0.87860 0.08000
C 	C 	0.44780 0.48890 0.96440 0.06400
C 	C 	0.35430 0.44550 0.97700 -0.14100
H 	H 	0.35470 0.42660 0.02760 0.07600
C 	C 	0.25540 0.42950 0.91070 0.07200
H 	H 	0.18940 0.40110 0.91960 -0.02500
N 	N 	0.97230 0.43020 0.81520 -0.28900
N 	N 	0.22360 0.41160 0.66060 -0.26800
N 	N 	0.94430 0.38520 0.64670 -0.25100
N 	N 	0.25280 0.45320 0.83680 -0.25400
N 	N 	0.43640 0.02650 0.29590 -0.25100
Co	Co	0.09812 0.42217 0.74052 1.10300
S 	S 	0.79540 0.45510 0.91730 -0.07500
S 	S 	0.36010 0.40579 0.53264 -0.06800
