data_crystal

_cell_length_a 15.52850
_cell_length_b 15.52850
_cell_length_c 15.52850
_cell_angle_alpha 60.00000
_cell_angle_beta  60.00000
_cell_angle_gamma 60.00000

_symmetry_space_group_name_	'P 1'
_symmetry_space_group_name_H-M	'P 1'

loop_
_symmetry_equiv_pos_as_xyz
  x,y,z

loop_
_atom_site_label
_atom_site_type_symbol
_atom_site_fract_x
_atom_site_fract_y
_atom_site_fract_z
_atom_site_charge
Th	Th	0.87144 0.87144 0.12856 0.04500
Th	Th	0.12856 0.87144 0.12856 0.03100
Th	Th	0.12856 0.12856 0.87144 0.03100
Th	Th	0.12856 0.87144 0.87144 0.04500
Th	Th	0.87144 0.12856 0.12856 0.03100
Th	Th	0.87144 0.12856 0.87144 0.04500
H 	H 	0.57500 0.42500 0.12740 0.06800
H 	H 	0.57500 0.87260 0.42500 0.06300
H 	H 	0.87260 0.42500 0.57500 0.06300
H 	H 	0.12740 0.87260 0.57500 0.06000
H 	H 	0.87260 0.42500 0.12740 0.05900
H 	H 	0.87260 0.57500 0.12740 0.06000
H 	H 	0.57500 0.42500 0.87260 0.06300
H 	H 	0.57500 0.12740 0.42500 0.06800
H 	H 	0.42500 0.87260 0.12740 0.05900
H 	H 	0.42500 0.57500 0.12740 0.06800
H 	H 	0.87260 0.12740 0.42500 0.05900
H 	H 	0.42500 0.57500 0.87260 0.06300
H 	H 	0.12740 0.87260 0.42500 0.05900
H 	H 	0.87260 0.57500 0.42500 0.06300
H 	H 	0.12740 0.57500 0.42500 0.06800
H 	H 	0.12740 0.42500 0.57500 0.06800
H 	H 	0.42500 0.12740 0.57500 0.06800
H 	H 	0.87260 0.12740 0.57500 0.06000
H 	H 	0.57500 0.12740 0.87260 0.06000
H 	H 	0.57500 0.87260 0.12740 0.06000
H 	H 	0.12740 0.57500 0.87260 0.06000
H 	H 	0.42500 0.87260 0.57500 0.06300
H 	H 	0.42500 0.12740 0.87260 0.05900
H 	H 	0.12740 0.42500 0.87260 0.05900
C 	C 	-0.00000 0.00000 0.41000 -0.10200
C 	C 	0.07530 0.92470 0.54530 0.01900
C 	C 	0.07530 0.54530 0.45470 -0.02200
C 	C 	0.00000 0.00000 0.31380 0.18700
C 	C 	0.92470 0.54530 0.07530 0.01900
C 	C 	0.54530 0.45470 0.92470 0.01600
C 	C 	0.45470 0.54530 0.92470 0.01600
C 	C 	0.45470 0.07530 0.92470 0.02000
C 	C 	0.68620 0.31380 -0.00000 0.22700
C 	C 	0.07530 0.45470 0.54530 -0.02200
C 	C 	0.59000 0.41000 -0.00000 -0.06200
C 	C 	0.54530 0.07530 0.45470 -0.02200
C 	C 	0.92470 0.54530 0.45470 0.01600
C 	C 	0.92470 0.45470 0.07530 0.02000
C 	C 	0.00000 0.68620 0.31380 0.22700
C 	C 	0.31380 0.68620 -0.00000 0.22700
C 	C 	0.59000 0.00000 -0.00000 -0.10000
C 	C 	0.45470 0.92470 0.07530 0.02000
C 	C 	0.59000 0.00000 0.41000 -0.06200
C 	C 	-0.00000 0.59000 0.41000 -0.06200
C 	C 	0.45470 0.92470 0.54530 0.01600
C 	C 	0.54530 0.07530 0.92470 0.01900
C 	C 	0.41000 0.00000 -0.00000 -0.10200
C 	C 	0.00000 0.41000 0.59000 -0.06200
C 	C 	-0.00000 0.68620 -0.00000 0.18900
C 	C 	-0.00000 0.41000 -0.00000 -0.10200
C 	C 	0.07530 0.92470 0.45470 0.02000
C 	C 	0.92470 0.45470 0.54530 0.01600
C 	C 	0.31380 0.00000 0.68620 0.22700
C 	C 	0.54530 0.45470 0.07530 -0.02200
C 	C 	0.92470 0.07530 0.45470 0.02000
C 	C 	-0.00000 0.31380 0.68620 0.22700
C 	C 	0.41000 0.59000 -0.00000 -0.06200
C 	C 	0.54530 0.92470 0.07530 0.01900
C 	C 	0.07530 0.54530 0.92470 0.01900
C 	C 	-0.00000 0.00000 0.68620 0.18900
C 	C 	0.54530 0.92470 0.45470 0.01600
C 	C 	0.31380 0.00000 -0.00000 0.18700
C 	C 	-0.00000 -0.00000 0.59000 -0.10000
C 	C 	0.45470 0.54530 0.07530 -0.02200
C 	C 	-0.00000 0.31380 -0.00000 0.18700
C 	C 	0.92470 0.07530 0.54530 0.01900
C 	C 	0.68620 0.00000 -0.00000 0.18900
C 	C 	0.41000 -0.00000 0.59000 -0.06200
C 	C 	0.07530 0.45470 0.92470 0.02000
C 	C 	0.68620 0.00000 0.31380 0.22700
C 	C 	-0.00000 0.59000 -0.00000 -0.10000
C 	C 	0.45470 0.07530 0.54530 -0.02200
O 	O 	0.81460 0.06180 0.06180 -0.05900
O 	O 	0.72360 0.92720 0.07280 -0.12600
O 	O 	0.72360 0.27640 0.92720 -0.12900
O 	O 	0.93820 0.93820 0.93820 0.03600
O 	O 	0.07280 0.92720 0.72360 -0.12600
O 	O 	0.27640 0.72360 0.92720 -0.12900
O 	O 	0.27640 0.92720 0.07280 -0.12700
O 	O 	0.06180 0.81460 0.06180 -0.05900
O 	O 	0.92720 0.27640 0.07280 -0.12700
O 	O 	0.07280 0.27640 0.72360 -0.16300
O 	O 	0.18540 0.93820 0.93820 0.01800
O 	O 	0.72360 0.07280 0.92720 -0.12600
O 	O 	0.72360 0.07280 0.27640 -0.16300
O 	O 	0.06180 0.06180 0.06180 -0.08100
O 	O 	0.27640 0.07280 0.72360 -0.16300
O 	O 	0.07280 0.92720 0.27640 -0.12700
O 	O 	0.93820 0.93820 0.18540 0.01800
O 	O 	0.92720 0.72360 0.27640 -0.12900
O 	O 	0.06180 0.06180 0.81460 -0.05900
O 	O 	0.92720 0.07280 0.72360 -0.12600
O 	O 	0.72360 0.27640 0.07280 -0.16300
O 	O 	0.07280 0.27640 0.92720 -0.12700
O 	O 	0.27640 0.07280 0.92720 -0.12700
O 	O 	0.92720 0.72360 0.07280 -0.12600
O 	O 	0.92720 0.27640 0.72360 -0.12900
O 	O 	0.93820 0.18540 0.93820 0.01800
O 	O 	0.92720 0.07280 0.27640 -0.12700
O 	O 	0.27640 0.92720 0.72360 -0.12900
O 	O 	0.27640 0.72360 0.07280 -0.16300
O 	O 	0.72360 0.92720 0.27640 -0.12900
O 	O 	0.07280 0.72360 0.27640 -0.16300
O 	O 	0.07280 0.72360 0.92720 -0.12600
