data_crystal

_cell_length_a 10.29200
_cell_length_b 34.38100
_cell_length_c 36.42400
_cell_angle_alpha 90.00000
_cell_angle_beta  90.00000
_cell_angle_gamma 90.86000

_symmetry_space_group_name_	'P 1'
_symmetry_space_group_name_H-M	'P 1'

loop_
_symmetry_equiv_pos_as_xyz
  x,y,z

loop_
_atom_site_label
_atom_site_type_symbol
_atom_site_fract_x
_atom_site_fract_y
_atom_site_fract_z
_atom_site_charge
Zn	Zn	0.54835 0.35828 0.66290 1.21700
Zn	Zn	0.39647 0.27721 0.66680 1.22100
Zn	Zn	0.81039 0.21969 0.17139 1.22100
Zn	Zn	0.31039 0.71969 0.32861 1.22100
Zn	Zn	0.68961 0.28031 0.67139 1.22100
Zn	Zn	0.04609 0.80014 0.90631 1.21900
Zn	Zn	0.04835 0.85828 0.83710 1.21700
Zn	Zn	0.60353 0.72279 0.33320 1.22100
Zn	Zn	0.45165 0.64172 0.33710 1.21600
Zn	Zn	0.10353 0.22279 0.16680 1.22000
Zn	Zn	0.95165 0.14172 0.16290 1.21600
Zn	Zn	0.54609 0.30014 0.59369 1.21800
Zn	Zn	0.45391 0.69986 0.40631 1.21800
Zn	Zn	0.89647 0.77721 0.83320 1.22000
Zn	Zn	0.18961 0.78031 0.82861 1.22000
Zn	Zn	0.95391 0.19986 0.09369 1.21800
H 	H 	0.71050 0.71300 0.09420 0.05100
H 	H 	0.62350 0.29170 0.90840 0.01200
H 	H 	0.71490 0.76290 0.10190 0.01500
H 	H 	0.76150 0.74250 0.47960 0.03600
H 	H 	0.22100 0.26150 0.46330 0.05800
H 	H 	0.11750 0.34330 0.18500 0.02700
H 	H 	0.16480 0.78530 0.71120 0.03400
H 	H 	0.76250 0.46890 0.21290 0.03600
H 	H 	0.77940 0.50770 0.28880 0.04300
H 	H 	0.25110 0.07030 0.21630 0.04000
H 	H 	0.64290 0.24040 0.90070 0.05200
H 	H 	0.52380 0.45990 0.59940 0.02800
H 	H 	0.95000 0.66710 0.31670 0.04700
H 	H 	0.73520 0.40270 0.22610 0.06800
H 	H 	0.39520 0.99420 0.78730 0.03100
H 	H 	0.35710 0.75960 0.09930 0.05200
H 	H 	0.88250 0.65670 0.81500 0.02700
H 	H 	0.83820 0.22830 0.35060 0.06500
H 	H 	0.01560 0.88930 0.98750 0.02500
H 	H 	0.61050 0.96620 0.28570 0.02400
H 	H 	0.35980 0.92690 0.78070 0.03800
H 	H 	0.65020 0.24180 0.01940 0.03900
H 	H 	0.48440 0.61070 0.48750 0.02500
H 	H 	0.11860 0.40830 0.20210 0.06700
H 	H 	0.87910 0.47530 0.75350 0.05100
H 	H 	0.22060 0.49230 0.71120 0.04300
H 	H 	0.28510 0.23710 0.89810 0.01500
H 	H 	0.40760 0.78700 0.04160 0.03200
H 	H 	0.85980 0.42690 0.71930 0.03800
H 	H 	0.90760 0.28700 0.45840 0.03200
H 	H 	0.10480 0.50580 0.28730 0.03100
H 	H 	0.37990 0.71390 0.03050 0.06300
H 	H 	0.23850 0.25750 0.52040 0.03600
H 	H 	0.29760 0.28700 0.97280 0.02600
H 	H 	0.77900 0.73850 0.53670 0.05800
H 	H 	0.77720 0.76720 0.71710 0.03400
H 	H 	0.05000 0.33290 0.68330 0.04700
H 	H 	0.50920 0.51480 0.55960 0.06500
H 	H 	0.72100 0.76150 0.03670 0.05800
H 	H 	0.76860 0.16300 0.70670 0.03100
H 	H 	0.26950 0.26060 0.84630 0.06500
H 	H 	0.12010 0.78610 0.53050 0.06300
H 	H 	0.78510 0.73710 0.60190 0.01400
H 	H 	0.38250 0.15670 0.68500 0.02700
H 	H 	0.61900 0.94940 0.24350 0.04100
H 	H 	0.27940 0.00770 0.21120 0.04400
H 	H 	0.22280 0.23280 0.28290 0.03400
H 	H 	0.49080 0.48520 0.44040 0.06500
H 	H 	0.12090 0.52470 0.24650 0.05100
H 	H 	0.26150 0.24250 0.02040 0.03600
H 	H 	0.23050 0.23940 0.34630 0.06500
H 	H 	0.24890 0.42970 0.71630 0.03900
H 	H 	0.73050 0.73940 0.15370 0.06500
H 	H 	0.89520 0.49420 0.71270 0.03100
H 	H 	0.75110 0.57030 0.28370 0.03900
H 	H 	0.88950 0.53380 0.78570 0.02300
H 	H 	0.87990 0.21390 0.46950 0.06300
H 	H 	0.71750 0.05600 0.77200 0.03500
H 	H 	0.37650 0.70830 0.09160 0.01200
H 	H 	0.76480 0.09730 0.72610 0.06800
H 	H 	0.38950 0.03380 0.71430 0.02400
H 	H 	0.61860 0.90830 0.29790 0.06800
H 	H 	0.74140 0.97000 0.73990 0.04600
H 	H 	0.23520 0.90270 0.27390 0.06800
H 	H 	0.45000 0.16710 0.18330 0.04700
H 	H 	0.16180 0.77170 0.64940 0.06500
H 	H 	0.66480 0.28530 0.78880 0.03300
H 	H 	0.14020 0.57310 0.28070 0.03800
H 	H 	0.72060 0.99230 0.78880 0.04400
H 	H 	0.00920 0.01480 0.94040 0.06500
H 	H 	0.62010 0.28610 0.96950 0.06300
H 	H 	0.11050 0.46620 0.21430 0.02300
H 	H 	0.72280 0.73280 0.21710 0.03300
H 	H 	0.38140 0.09170 0.70210 0.06800
H 	H 	0.20240 0.21300 0.47280 0.02600
H 	H 	0.53880 0.76570 0.88390 0.04600
H 	H 	0.27900 0.23850 0.96330 0.05800
H 	H 	0.64020 0.07310 0.21930 0.03800
H 	H 	0.09240 0.71300 0.54160 0.03200
H 	H 	0.99410 0.05580 0.97310 0.06700
H 	H 	0.85710 0.25960 0.40070 0.05300
H 	H 	0.73140 0.33700 0.20670 0.03000
H 	H 	0.49410 0.55580 0.52690 0.06700
H 	H 	0.73850 0.75750 0.97960 0.03600
H 	H 	0.83520 0.21470 0.28880 0.03400
H 	H 	0.88140 0.59170 0.79790 0.06700
H 	H 	0.00590 0.94420 0.02690 0.06700
H 	H 	0.33520 0.71470 0.21120 0.03300
H 	H 	0.70240 0.71300 0.02720 0.02600
H 	H 	0.37910 0.97530 0.74650 0.05100
H 	H 	0.78250 0.44400 0.27200 0.03500
H 	H 	0.25860 0.03000 0.26010 0.04600
H 	H 	0.26250 0.96890 0.28710 0.03600
H 	H 	0.14290 0.74040 0.59930 0.05300
H 	H 	0.26480 0.59730 0.77390 0.06800
H 	H 	0.47620 0.54010 0.40060 0.02800
H 	H 	0.12350 0.79170 0.59160 0.01200
H 	H 	0.76950 0.76060 0.65370 0.06500
H 	H 	0.38100 0.05060 0.75650 0.04100
H 	H 	0.87650 0.20830 0.40840 0.01200
H 	H 	0.15020 0.74180 0.48060 0.03900
H 	H 	0.75860 0.53000 0.23990 0.04600
H 	H 	0.61750 0.84330 0.31500 0.02700
H 	H 	0.59240 0.21300 0.95840 0.03200
H 	H 	0.27720 0.26720 0.78290 0.03300
H 	H 	0.26860 0.66300 0.79330 0.03000
H 	H 	0.33820 0.72830 0.14940 0.06500
H 	H 	0.34980 0.75820 0.98060 0.03900
H 	H 	0.88100 0.55060 0.74350 0.04100
H 	H 	0.97620 0.04010 0.09940 0.02700
H 	H 	0.84980 0.25820 0.51940 0.03900
H 	H 	0.60480 0.00580 0.21270 0.03100
H 	H 	0.28950 0.28700 0.90580 0.05100
H 	H 	0.23750 0.53110 0.78710 0.03600
H 	H 	0.11900 0.44940 0.25650 0.04100
H 	H 	0.21750 0.55600 0.72800 0.03500
H 	H 	0.74890 0.92970 0.78370 0.04000
H 	H 	0.55000 0.83290 0.81670 0.04700
H 	H 	0.98440 0.11070 0.01250 0.02500
H 	H 	0.96120 0.73430 0.38390 0.04600
H 	H 	0.78950 0.78700 0.59420 0.05100
H 	H 	0.46120 0.23430 0.11610 0.04600
H 	H 	0.79760 0.78700 0.52720 0.02600
H 	H 	0.28250 0.94400 0.22800 0.03500
H 	H 	0.21490 0.26290 0.39810 0.01400
H 	H 	0.24140 0.47000 0.76010 0.04600
H 	H 	0.51560 0.38930 0.51250 0.02500
H 	H 	0.03880 0.26570 0.61610 0.04600
H 	H 	0.02380 0.95990 0.90060 0.02700
H 	H 	0.99080 0.98520 0.05960 0.06500
H 	H 	0.73750 0.03110 0.71290 0.03600
H 	H 	0.21050 0.21300 0.40580 0.05100
H 	H 	0.50590 0.44420 0.47310 0.06700
H 	H 	0.66180 0.27170 0.85060 0.06500
H 	H 	0.62090 0.02470 0.25350 0.05100
H 	H 	0.23140 0.83700 0.29330 0.03100
C 	C 	0.05430 0.77680 0.58050 0.04200
C 	C 	0.45700 0.03490 0.75450 -0.04900
C 	C 	0.93800 0.37709 0.69926 -0.10400
C 	C 	0.98110 0.78150 0.76250 0.38300
C 	C 	0.06100 0.74310 0.58720 -0.08500
C 	C 	0.47120 0.27680 0.77880 -0.11200
C 	C 	0.04470 0.25420 0.51422 -0.04100
C 	C 	0.05070 0.35908 0.69164 0.04100
C 	C 	0.58260 0.20700 0.68000 0.41200
C 	C 	0.43800 0.87709 0.80074 -0.10500
C 	C 	0.02880 0.22320 0.27880 -0.11100
C 	C 	0.80240 0.27087 0.59069 0.36600
C 	C 	0.50770 0.48250 0.51290 0.05500
C 	C 	0.41710 0.72810 0.16290 -0.11100
C 	C 	0.44400 0.06640 0.22097 -0.03500
C 	C 	0.41990 0.83460 0.30760 -0.13300
C 	C 	0.97050 0.08090 0.05960 -0.14300
C 	C 	0.54470 0.75420 0.98578 -0.04100
C 	C 	0.83110 0.58361 0.28815 0.00700
C 	C 	0.45700 0.00080 0.76840 -0.01600
C 	C 	0.06730 0.58960 0.78080 0.06000
C 	C 	0.64920 0.73560 0.16560 -0.11200
C 	C 	0.08450 0.77880 0.69970 0.03900
C 	C 	0.85080 0.76440 0.66560 -0.11200
C 	C 	0.95900 0.26550 0.45030 -0.00500
C 	C 	0.55070 0.85908 0.80836 0.04200
C 	C 	0.20920 0.14024 0.18396 0.37400
C 	C 	0.94570 0.22320 0.41950 0.04200
C 	C 	0.06200 0.62291 0.30074 -0.10400
C 	C 	0.53960 0.85530 0.30730 0.05300
C 	C 	0.14000 0.25540 0.45200 -0.09400
C 	C 	0.92520 0.26387 0.57082 -0.11100
C 	C 	0.43510 0.95000 0.26500 -0.01000
C 	C 	0.45530 0.24580 0.01422 -0.04100
C 	C 	0.66970 0.87963 0.80385 -0.10400
C 	C 	0.54000 0.76410 0.90996 0.04600
C 	C 	0.48110 0.28150 0.73750 0.38100
C 	C 	0.41740 0.79300 0.32000 0.41200
C 	C 	0.35530 0.26920 0.79670 0.04300
C 	C 	0.54350 0.74960 0.02530 0.05400
C 	C 	0.96000 0.73590 0.40996 0.04500
C 	C 	0.96560 0.52450 0.77350 0.00500
C 	C 	0.83030 0.62037 0.30385 -0.10400
C 	C 	0.42900 0.75866 0.96714 0.01100
C 	C 	0.91740 0.29300 0.18000 0.41000
C 	C 	0.48190 0.58530 0.47730 0.05800
C 	C 	0.56100 0.24310 0.91280 -0.08300
C 	C 	0.92900 0.25866 0.53286 0.01000
C 	C 	0.05930 0.47370 0.73690 0.04900
C 	C 	0.08290 0.77190 0.66290 -0.11300
C 	C 	0.33110 0.08361 0.21185 0.00700
C 	C 	0.03850 0.23940 0.39680 -0.00500
C 	C 	0.34820 0.99910 0.22690 -0.04500
C 	C 	0.33300 0.97600 0.27100 -0.02300
C 	C 	0.56490 0.05000 0.73500 -0.01000
C 	C 	0.14920 0.23560 0.33440 -0.11200
C 	C 	0.04300 0.49920 0.26840 -0.01500
C 	C 	0.04100 0.73450 0.54970 -0.00500
C 	C 	0.41550 0.72120 0.19970 0.04100
C 	C 	0.30240 0.77087 0.90931 0.36600
C 	C 	0.07100 0.74134 0.46714 0.01000
C 	C 	0.16890 0.41639 0.71185 0.00700
C 	C 	0.00980 0.94770 0.00100 -0.11900
C 	C 	0.43900 0.75690 0.08720 -0.08300
C 	C 	0.45900 0.76550 0.04970 -0.00500
C 	C 	0.08010 0.66540 0.80760 -0.13500
C 	C 	0.55340 0.27310 0.95550 -0.10100
C 	C 	0.94400 0.56640 0.27903 -0.03600
C 	C 	0.50980 0.44770 0.49900 -0.11900
C 	C 	0.15180 0.50090 0.72690 -0.04500
C 	C 	0.98190 0.08530 0.02270 0.05700
C 	C 	0.46280 0.98770 0.74390 -0.07200
C 	C 	0.46150 0.26060 0.89680 -0.00700
C 	C 	0.46000 0.23590 0.09004 0.04600
C 	C 	0.53440 0.97550 0.27350 0.00300
C 	C 	0.03440 0.47550 0.22650 0.00500
C 	C 	0.55600 0.93360 0.77903 -0.03500
C 	C 	0.03550 0.23510 0.35490 0.05700
C 	C 	0.51810 0.41470 0.52270 0.05800
C 	C 	0.31260 0.89040 0.28160 -0.11700
C 	C 	0.51240 0.48910 0.55000 -0.11400
C 	C 	0.86000 0.77350 0.54150 0.00400
C 	C 	0.97120 0.77680 0.72120 -0.11100
C 	C 	0.04300 0.46510 0.25450 -0.04900
C 	C 	0.95530 0.74580 0.48578 -0.04100
C 	C 	0.94930 0.64092 0.30836 0.04100
C 	C 	0.52950 0.41910 0.55960 -0.14300
C 	C 	0.06060 0.58556 0.28602 0.00700
C 	C 	0.53850 0.73940 0.10320 -0.00700
C 	C 	0.16800 0.48650 0.75660 -0.05300
C 	C 	0.84150 0.74217 0.46665 0.01200
C 	C 	0.65580 0.03790 0.76160 -0.02500
C 	C 	0.04060 0.39330 0.20440 -0.11700
C 	C 	0.31050 0.85160 0.29420 0.05400
C 	C 	0.71570 0.73459 0.40689 0.39600
C 	C 	0.96150 0.76060 0.60320 -0.00500
C 	C 	0.47780 0.54380 0.42640 0.05400
C 	C 	0.54100 0.23450 0.95030 -0.00500
C 	C 	0.15850 0.25783 0.53335 0.01200
C 	C 	0.45650 0.25040 0.97470 0.05400
C 	C 	0.84820 0.49910 0.27310 -0.04500
C 	C 	0.28430 0.26541 0.59311 0.39600
C 	C 	0.49230 0.51750 0.48710 0.05500
C 	C 	0.84420 0.46210 0.26160 -0.02500
C 	C 	0.01810 0.91470 0.97730 0.05700
C 	C 	0.54060 0.89330 0.29560 -0.11900
C 	C 	0.52880 0.72320 0.22120 -0.11200
C 	C 	0.02950 0.91910 0.94040 -0.14300
C 	C 	0.56200 0.12291 0.19926 -0.10500
C 	C 	0.93900 0.25690 0.41280 -0.08500
C 	C 	0.03960 0.35530 0.19270 0.05500
C 	C 	0.58450 0.27880 0.80030 0.04100
C 	C 	0.66010 0.76200 0.92874 -0.10900
C 	C 	0.94660 0.22690 0.45550 -0.10200
C 	C 	0.00770 0.98250 0.98710 0.05500
C 	C 	0.83300 0.47600 0.22900 -0.02300
C 	C 	0.48760 0.51090 0.45000 -0.11400
C 	C 	0.36000 0.27350 0.95850 0.00300
C 	C 	0.14470 0.23080 0.29670 0.04300
C 	C 	0.91990 0.33460 0.19240 -0.13500
C 	C 	0.56730 0.08960 0.71920 0.06200
C 	C 	0.65850 0.75783 0.96665 0.01200
C 	C 	0.57480 0.23613 0.07082 -0.11200
C 	C 	0.68740 0.10960 0.71840 -0.11700
C 	C 	0.63900 0.72470 0.08200 -0.07800
C 	C 	0.57100 0.24134 0.03286 0.01100
C 	C 	0.95940 0.60670 0.79560 -0.11700
C 	C 	0.69760 0.22913 0.09069 0.36600
C 	C 	0.06490 0.55000 0.76500 -0.01200
C 	C 	0.58290 0.27190 0.83710 -0.11100
C 	C 	0.44070 0.02630 0.23690 0.05100
C 	C 	0.66890 0.91639 0.78815 0.00700
C 	C 	0.94070 0.52630 0.26310 0.04900
C 	C 	0.91710 0.22810 0.33710 -0.11300
C 	C 	0.43270 0.91040 0.28080 0.06200
C 	C 	0.54300 0.99920 0.23160 -0.01600
C 	C 	0.54300 0.96510 0.24550 -0.04900
C 	C 	0.16010 0.26200 0.57126 -0.10900
C 	C 	0.58010 0.16540 0.69240 -0.13300
C 	C 	0.04040 0.88420 0.91500 0.45000
C 	C 	0.01240 0.98910 0.95000 -0.11400
C 	C 	0.70920 0.64024 0.31604 0.37400
C 	C 	0.13900 0.22470 0.41800 -0.07800
C 	C 	0.34420 0.96210 0.23840 -0.02500
C 	C 	0.83990 0.73800 0.42874 -0.10900
C 	C 	0.45940 0.10670 0.70440 -0.11900
C 	C 	0.14240 0.25390 0.41210 0.03100
C 	C 	0.33030 0.12037 0.19615 -0.10400
C 	C 	0.93510 0.45000 0.23500 -0.01200
C 	C 	0.78430 0.76541 0.90689 0.39600
C 	C 	0.07480 0.73613 0.42918 -0.11100
C 	C 	0.16970 0.37963 0.69615 -0.10400
C 	C 	0.01890 0.21850 0.23750 0.38300
C 	C 	0.46560 0.02450 0.72650 0.00300
C 	C 	0.33200 0.01350 0.25660 -0.05400
C 	C 	0.91550 0.22120 0.30030 0.03900
C 	C 	0.43940 0.91444 0.78602 0.00600
C 	C 	0.19000 0.64406 0.30898 0.39000
C 	C 	0.14000 0.22650 0.45850 0.00400
C 	C 	0.46040 0.14470 0.69270 0.05300
C 	C 	0.44570 0.72320 0.08050 0.04200
C 	C 	0.68950 0.14840 0.70580 0.05400
C 	C 	0.35760 0.24610 0.91210 0.03100
C 	C 	0.66800 0.98650 0.74340 -0.05400
C 	C 	0.95960 0.11580 0.08500 0.45000
C 	C 	0.56060 0.08556 0.21398 0.00600
C 	C 	0.49020 0.55230 0.50100 -0.11900
C 	C 	0.03720 0.51230 0.24390 -0.07100
C 	C 	0.31000 0.85594 0.80898 0.39100
C 	C 	0.97780 0.04380 0.07360 0.05400
C 	C 	0.64000 0.72650 0.04150 0.00300
C 	C 	0.83200 0.51350 0.24340 -0.05300
C 	C 	0.36100 0.27530 0.91800 -0.07800
C 	C 	0.04350 0.24960 0.47470 0.05500
C 	C 	0.86000 0.74460 0.54800 -0.09400
C 	C 	0.47050 0.58090 0.44040 -0.14300
C 	C 	0.98760 0.01090 0.05000 -0.11400
C 	C 	0.55930 0.97370 0.76310 0.05100
C 	C 	0.42520 0.76387 0.92918 -0.11200
C 	C 	0.21570 0.23459 0.09311 0.39600
C 	C 	0.69000 0.14406 0.19102 0.39100
C 	C 	0.93270 0.41040 0.21920 0.06000
C 	C 	0.36000 0.24460 0.95200 -0.09400
C 	C 	0.96280 0.48770 0.75610 -0.07100
C 	C 	0.64000 0.75540 0.04800 -0.09400
C 	C 	0.81050 0.35160 0.20580 0.05400
C 	C 	0.95700 0.50080 0.73160 -0.01500
C 	C 	0.65180 0.00090 0.77310 -0.04500
C 	C 	0.85530 0.76920 0.70330 0.04300
C 	C 	0.05600 0.43360 0.72097 -0.03600
C 	C 	0.55430 0.27680 0.91950 0.04200
C 	C 	0.99230 0.01750 0.01290 0.05500
C 	C 	0.46450 0.26490 0.85490 0.05500
C 	C 	0.64240 0.75390 0.08790 0.03100
C 	C 	0.35080 0.26440 0.83440 -0.11200
C 	C 	0.95700 0.53490 0.74550 -0.04900
C 	C 	0.66700 0.02400 0.72900 -0.02300
C 	C 	0.53550 0.73510 0.14510 0.05500
C 	C 	0.19760 0.72913 0.40931 0.36600
C 	C 	0.93940 0.41444 0.71398 0.00700
C 	C 	0.53720 0.01230 0.25610 -0.07200
C 	C 	0.86100 0.77530 0.58200 -0.07800
C 	C 	0.04000 0.26410 0.59004 0.04500
C 	C 	0.15580 0.53790 0.73840 -0.02500
C 	C 	0.08260 0.70700 0.82000 0.41000
C 	C 	0.95650 0.75040 0.52530 0.05500
C 	C 	0.45960 0.61580 0.41500 0.44900
C 	C 	0.51890 0.71850 0.26250 0.38100
C 	C 	0.96450 0.76490 0.64510 0.05700
C 	C 	0.18950 0.64840 0.79420 0.05400
C 	C 	0.18740 0.60960 0.78160 -0.11700
C 	C 	0.79080 0.85976 0.81604 0.37400
C 	C 	0.33990 0.23800 0.07126 -0.10900
C 	C 	0.54040 0.38420 0.58500 0.44900
C 	C 	0.81000 0.35594 0.69102 0.39000
C 	C 	0.16700 0.52400 0.77100 -0.02300
C 	C 	0.29080 0.35976 0.68396 0.37400
C 	C 	0.44930 0.14092 0.19164 0.04200
C 	C 	0.44660 0.72690 0.04450 -0.10100
C 	C 	0.05340 0.77310 0.54450 -0.10200
C 	C 	0.64470 0.73080 0.20330 0.04300
C 	C 	0.99020 0.05230 0.99900 -0.11900
C 	C 	0.96040 0.64470 0.80730 0.05500
C 	C 	0.85760 0.74610 0.58790 0.03100
C 	C 	0.02220 0.95620 0.92640 0.05400
C 	C 	0.81260 0.39040 0.21840 -0.11700
C 	C 	0.52220 0.45620 0.57360 0.05400
C 	C 	0.34150 0.24217 0.03335 0.01200
O 	O 	0.91340 0.20790 0.22514 -0.46500
O 	O 	0.21920 0.17193 0.16830 -0.46300
O 	O 	0.88430 0.77445 0.92455 -0.48500
O 	O 	0.62160 0.72685 0.27983 -0.46700
O 	O 	0.31960 0.81929 0.81230 -0.47300
O 	O 	0.45320 0.60770 0.38244 -0.50500
O 	O 	0.08660 0.79210 0.77486 -0.46500
O 	O 	0.60140 0.62170 0.31111 -0.47000
O 	O 	0.01490 0.27917 0.16606 -0.47400
O 	O 	0.96130 0.14779 0.07032 -0.51300
O 	O 	0.72410 0.74002 0.37289 -0.46700
O 	O 	0.51490 0.77917 0.33394 -0.47700
O 	O 	0.39860 0.37830 0.68889 -0.47000
O 	O 	0.98510 0.72083 0.83394 -0.47400
O 	O 	0.04680 0.89230 0.88244 -0.50600
O 	O 	0.31440 0.77387 0.31462 -0.47900
O 	O 	0.37840 0.27315 0.72017 -0.46700
O 	O 	0.61570 0.72555 0.42455 -0.48700
O 	O 	0.30060 0.72391 0.42743 -0.47800
O 	O 	0.78080 0.82807 0.83170 -0.46300
O 	O 	0.12160 0.22685 0.22017 -0.46700
O 	O 	0.11570 0.22555 0.07545 -0.48500
O 	O 	0.81440 0.27387 0.18538 -0.47800
O 	O 	0.77590 0.75998 0.87289 -0.46700
O 	O 	0.10140 0.12170 0.18889 -0.46900
O 	O 	0.18040 0.68071 0.31230 -0.47300
O 	O 	0.04570 0.80575 0.85437 -0.93600
O 	O 	0.46130 0.64779 0.42968 -0.51200
O 	O 	0.58660 0.29210 0.72514 -0.46300
O 	O 	0.69530 0.23116 0.12598 -0.44900
O 	O 	0.19530 0.73116 0.37402 -0.44800
O 	O 	0.27590 0.25998 0.62711 -0.46700
O 	O 	0.68560 0.22613 0.68538 -0.47900
O 	O 	0.95430 0.19425 0.14563 -0.93600
O 	O 	0.87840 0.77315 0.77983 -0.46700
O 	O 	0.28080 0.32807 0.66830 -0.46300
O 	O 	0.54680 0.39230 0.61756 -0.50500
O 	O 	0.70970 0.37500 0.68748 -0.49200
O 	O 	0.38430 0.27445 0.57545 -0.48700
O 	O 	0.95320 0.10770 0.11756 -0.50600
O 	O 	0.54570 0.30575 0.64563 -0.93500
O 	O 	0.48510 0.22083 0.66606 -0.47700
O 	O 	0.81960 0.31929 0.68770 -0.47300
O 	O 	0.41340 0.70790 0.27486 -0.46300
O 	O 	0.80470 0.26884 0.62598 -0.44800
O 	O 	0.68040 0.18071 0.18770 -0.47300
O 	O 	0.79030 0.12500 0.18748 -0.49200
O 	O 	0.20970 0.87500 0.81252 -0.49200
O 	O 	0.18560 0.72613 0.81462 -0.47800
O 	O 	0.89860 0.87830 0.81111 -0.46900
O 	O 	0.30470 0.76884 0.87402 -0.44900
O 	O 	0.19940 0.77609 0.92743 -0.47800
O 	O 	0.53870 0.35221 0.57032 -0.51200
O 	O 	0.80060 0.22391 0.07257 -0.47800
O 	O 	0.69940 0.27609 0.57257 -0.47800
O 	O 	0.45430 0.69425 0.35437 -0.93500
O 	O 	0.71920 0.67193 0.33170 -0.46300
O 	O 	0.03870 0.85221 0.92968 -0.51300
O 	O 	0.22410 0.24002 0.12711 -0.46700
O 	O 	0.29030 0.62500 0.31252 -0.49200
