data_crystal

_cell_length_a 10.37700
_cell_length_b 27.47400
_cell_length_c 27.70100
_cell_angle_alpha 90.00000
_cell_angle_beta  90.00000
_cell_angle_gamma 90.00000

_symmetry_space_group_name_	'P 1'
_symmetry_space_group_name_H-M	'P 1'

loop_
_symmetry_equiv_pos_as_xyz
  x,y,z

loop_
_atom_site_label
_atom_site_type_symbol
_atom_site_fract_x
_atom_site_fract_y
_atom_site_fract_z
_atom_site_charge
Zn	Zn	0.65190 0.79906 0.69605 1.21800
Zn	Zn	0.15190 0.29906 0.80395 1.21500
Zn	Zn	0.34810 0.20094 0.30395 1.21500
Zn	Zn	0.00000 0.73761 0.09917 1.21000
Zn	Zn	0.50000 0.30053 0.30589 1.21200
Zn	Zn	0.50000 0.23761 0.40083 1.21800
Zn	Zn	0.00000 0.26239 0.90083 1.21000
Zn	Zn	0.00000 0.19947 0.80589 1.20400
Zn	Zn	0.84810 0.29906 0.80395 1.22200
Zn	Zn	0.50000 0.69947 0.69411 1.21200
Zn	Zn	-0.00000 0.80053 0.19411 1.20400
Zn	Zn	0.15190 0.70094 0.19605 1.21400
Zn	Zn	0.84810 0.70094 0.19605 1.22200
Zn	Zn	0.34810 0.79906 0.69605 1.21500
Zn	Zn	0.65190 0.20094 0.30395 1.21700
Zn	Zn	0.50000 0.76239 0.59917 1.21800
H 	H 	0.18160 0.75250 0.43150 0.12000
H 	H 	0.31840 0.74750 0.93150 0.13100
H 	H 	0.50000 0.77340 0.21210 0.04100
H 	H 	-0.00000 0.92980 0.95560 0.06700
H 	H 	0.29640 0.96510 0.26020 0.07000
H 	H 	0.68870 0.22880 0.14490 -0.01600
H 	H 	0.80940 0.60460 0.74890 0.02800
H 	H 	0.30940 0.89540 0.24890 0.03700
H 	H 	0.31130 0.22880 0.14490 -0.02700
H 	H 	0.00000 0.81230 0.62210 0.04600
H 	H 	0.00000 0.07020 0.04440 0.06700
H 	H 	0.20360 0.53490 0.76020 0.07400
H 	H 	0.00000 0.06540 0.87690 0.02100
H 	H 	0.81180 0.54890 0.21820 0.02400
H 	H 	0.68820 0.04890 0.28180 0.04400
H 	H 	0.81130 0.72880 0.35510 -0.02000
H 	H 	0.68870 0.77120 0.85510 -0.01600
H 	H 	0.18870 0.72880 0.35510 -0.01500
H 	H 	0.30940 0.10460 0.75110 0.03700
H 	H 	0.68820 0.95110 0.71820 0.04400
H 	H 	0.70360 0.96510 0.26020 0.08000
H 	H 	-0.00000 0.93460 0.12310 0.02100
H 	H 	0.81840 0.75250 0.43150 0.11300
H 	H 	0.69060 0.10460 0.75110 0.04500
H 	H 	0.69680 0.71900 0.99740 0.03300
H 	H 	0.50000 0.68770 0.12210 0.04000
H 	H 	0.19680 0.78100 0.49740 0.03000
H 	H 	-0.00000 0.99340 0.92110 0.06600
H 	H 	0.79640 0.53490 0.76020 0.07100
H 	H 	0.19680 0.21900 0.50260 0.03000
H 	H 	0.50000 0.42980 0.54440 0.07100
H 	H 	0.30320 0.28100 0.00260 0.02400
H 	H 	0.80320 0.21900 0.50260 0.02400
H 	H 	0.81180 0.45110 0.78180 0.02400
H 	H 	0.50000 0.22660 0.78790 0.04100
H 	H 	0.50000 0.35770 0.50020 0.02800
H 	H 	0.18160 0.24750 0.56850 0.12000
H 	H 	0.50000 0.31230 0.87790 0.04000
H 	H 	0.18820 0.54890 0.21820 0.03200
H 	H 	0.20360 0.46510 0.23980 0.07400
H 	H 	0.18820 0.45110 0.78180 0.03200
H 	H 	0.50000 0.49340 0.57890 0.07000
H 	H 	0.31130 0.77120 0.85510 -0.02700
H 	H 	0.50000 0.56540 0.62310 0.02900
H 	H 	-0.00000 0.00660 0.07890 0.06600
H 	H 	0.70360 0.03490 0.73980 0.08000
H 	H 	0.29640 0.03490 0.73980 0.07000
H 	H 	0.31180 0.95110 0.71820 0.03300
H 	H 	0.31180 0.04890 0.28180 0.03300
H 	H 	0.68160 0.74750 0.93150 0.14000
H 	H 	0.81130 0.27120 0.64490 -0.02000
H 	H 	0.81840 0.24750 0.56850 0.11300
H 	H 	0.79640 0.46510 0.23980 0.07100
H 	H 	0.69060 0.89540 0.24890 0.04500
H 	H 	0.68160 0.25250 0.06850 0.14000
H 	H 	0.50000 0.50660 0.42110 0.07000
H 	H 	0.50000 0.43460 0.37690 0.02900
H 	H 	0.19060 0.39540 0.25110 0.03500
H 	H 	0.00000 0.18770 0.37790 0.04600
H 	H 	0.50000 0.64230 0.49980 0.02800
H 	H 	-0.00000 0.85770 0.99980 0.02000
H 	H 	0.18870 0.27120 0.64490 -0.01500
H 	H 	0.19060 0.60460 0.74890 0.03500
H 	H 	0.69680 0.28100 0.00260 0.03300
H 	H 	0.80940 0.39540 0.25110 0.02800
H 	H 	0.50000 0.57020 0.45560 0.07100
H 	H 	0.80320 0.78100 0.49740 0.02400
H 	H 	-0.00000 0.14230 0.00020 0.02000
H 	H 	0.00000 0.72660 0.71210 0.04600
H 	H 	0.30320 0.71900 0.99740 0.02400
H 	H 	0.00000 0.27340 0.28790 0.04600
H 	H 	0.31840 0.25250 0.06850 0.13100
C 	C 	0.50000 0.72240 0.99000 -0.10400
C 	C 	-0.00000 0.02350 0.93720 -0.11900
C 	C 	0.50000 0.89290 0.70170 0.32600
C 	C 	0.88680 0.62190 0.74510 0.07200
C 	C 	0.11840 0.78460 0.51410 0.03500
C 	C 	0.50000 0.05510 0.28850 -0.11000
C 	C 	-0.00000 0.77760 0.49000 -0.12600
C 	C 	-0.00000 0.40160 0.24720 -0.08500
C 	C 	0.39660 0.25170 0.08560 -0.29400
C 	C 	-0.00000 0.93350 0.08920 0.05700
C 	C 	0.89660 0.24830 0.58560 -0.20900
C 	C 	-0.00000 0.44490 0.78850 -0.16300
C 	C 	0.76050 0.30430 0.28030 0.38400
C 	C 	-0.00000 0.22240 0.51000 -0.12600
C 	C 	-0.00000 0.06650 0.91080 0.05700
C 	C 	-0.00000 0.54420 0.76620 0.03400
C 	C 	0.60830 0.23710 0.13150 0.20900
C 	C 	0.50000 0.61220 0.51590 0.06100
C 	C 	0.26050 0.19570 0.78030 0.39500
C 	C 	0.88160 0.78460 0.51410 0.07700
C 	C 	0.87530 0.48040 0.23290 -0.08100
C 	C 	0.89660 0.75170 0.41440 -0.20900
C 	C 	0.50000 0.78050 0.78900 0.43400
C 	C 	0.00000 0.59840 0.75280 -0.08500
C 	C 	-0.00000 0.06910 0.01050 -0.12100
C 	C 	0.24230 0.79940 0.59070 0.38400
C 	C 	-0.00000 0.69440 0.72350 -0.00100
C 	C 	-0.00000 0.71950 0.28900 0.38000
C 	C 	0.50000 0.94490 0.71150 -0.11000
C 	C 	0.25770 0.29940 0.90930 0.39200
C 	C 	0.10830 0.73710 0.36850 0.17900
C 	C 	0.39660 0.74830 0.91440 -0.29400
C 	C 	0.50000 0.80560 0.22350 0.05800
C 	C 	-0.00000 0.73360 0.34000 -0.26700
C 	C 	0.61320 0.12190 0.75490 0.01700
C 	C 	0.50000 0.65770 0.59790 0.50200
C 	C 	-0.00000 0.97520 0.01290 0.04900
C 	C 	0.50000 0.38920 0.43430 -0.14000
C 	C 	0.88830 0.46920 0.77960 0.10000
C 	C 	0.50000 0.19440 0.77650 0.05800
C 	C 	0.00000 0.88780 0.01590 0.06200
C 	C 	0.38080 0.82860 0.23170 -0.12500
C 	C 	0.89170 0.73710 0.36850 0.21900
C 	C 	0.25770 0.70060 0.09070 0.39200
C 	C 	0.11170 0.53080 0.22040 0.05100
C 	C 	0.11170 0.46920 0.77960 0.05100
C 	C 	0.23950 0.69570 0.71970 0.38700
C 	C 	0.61170 0.03080 0.27960 0.04000
C 	C 	0.11840 0.21540 0.48590 0.03500
C 	C 	0.00000 0.15770 0.90210 0.50500
C 	C 	-0.00000 0.97650 0.06280 -0.11900
C 	C 	0.23950 0.30430 0.28030 0.38700
C 	C 	0.10340 0.75170 0.41440 -0.25700
C 	C 	0.38830 0.96920 0.72040 0.03900
C 	C 	0.38160 0.28460 0.98590 0.04700
C 	C 	0.11790 0.20300 0.43690 -0.10800
C 	C 	0.50000 0.90160 0.25280 -0.03400
C 	C 	-0.00000 0.02480 0.98710 0.04900
C 	C 	-0.00000 0.30560 0.27650 -0.00100
C 	C 	0.88080 0.67140 0.73170 -0.08500
C 	C 	-0.00000 0.23510 0.56230 0.16100
C 	C 	0.50000 0.56650 0.58920 0.05600
C 	C 	0.39170 0.76290 0.86850 0.20800
C 	C 	0.11790 0.79700 0.56310 -0.10800
C 	C 	0.00000 0.11220 0.98410 0.06200
C 	C 	0.50000 0.34230 0.40210 0.50200
C 	C 	0.11320 0.37810 0.25490 0.02500
C 	C 	-0.00000 0.88920 0.06570 -0.14900
C 	C 	0.12470 0.51960 0.76710 -0.11600
C 	C 	-0.00000 0.76490 0.43770 0.16100
C 	C 	0.50000 0.09840 0.74720 -0.03400
C 	C 	0.50000 0.76640 0.84000 -0.25000
C 	C 	-0.00000 0.55510 0.21150 -0.16300
C 	C 	0.50000 0.43090 0.51050 -0.11600
C 	C 	0.10340 0.24830 0.58560 -0.25700
C 	C 	0.00000 0.80380 0.58920 -0.01000
C 	C 	0.88830 0.53080 0.22040 0.10000
C 	C 	0.38160 0.71540 0.01410 0.04700
C 	C 	0.12470 0.48040 0.23290 -0.11600
C 	C 	0.75770 0.79940 0.59070 0.38200
C 	C 	0.50000 0.73510 0.93770 0.24000
C 	C 	0.87530 0.51960 0.76710 -0.08100
C 	C 	0.10830 0.26290 0.63150 0.17900
C 	C 	0.76050 0.69570 0.71970 0.38400
C 	C 	0.50000 0.61080 0.56570 -0.14000
C 	C 	0.11320 0.62190 0.74510 0.02500
C 	C 	0.61790 0.29700 0.93690 -0.11500
C 	C 	0.39170 0.23710 0.13150 0.20800
C 	C 	0.89170 0.26290 0.63150 0.21900
C 	C 	0.60830 0.76290 0.86850 0.20900
C 	C 	0.73950 0.19570 0.78030 0.39000
C 	C 	0.24230 0.20060 0.40930 0.38400
C 	C 	0.74230 0.70060 0.09070 0.38900
C 	C 	0.38210 0.70300 0.06310 -0.12100
C 	C 	-0.00000 0.93090 0.98950 -0.12100
C 	C 	0.50000 0.38780 0.48410 0.06100
C 	C 	0.26050 0.80430 0.21970 0.39500
C 	C 	0.88680 0.37810 0.25490 0.07200
C 	C 	0.50000 0.30380 0.91080 0.05200
C 	C 	-0.00000 0.19620 0.41080 -0.01000
C 	C 	0.00000 0.60710 0.20170 0.29300
C 	C 	0.61170 0.96920 0.72040 0.04000
C 	C 	0.62470 0.01960 0.73290 -0.10600
C 	C 	0.50000 0.04420 0.73380 0.06400
C 	C 	0.50000 0.95580 0.26620 0.06400
C 	C 	0.60340 0.25170 0.08560 -0.29200
C 	C 	0.74230 0.29940 0.90930 0.38900
C 	C 	0.38680 0.12190 0.75490 0.01900
C 	C 	0.61920 0.17140 0.76830 -0.11900
C 	C 	0.75770 0.20060 0.40930 0.38200
C 	C 	0.00000 0.39290 0.79830 0.29300
C 	C 	0.50000 0.52480 0.51290 0.05100
C 	C 	0.88160 0.21540 0.48590 0.07700
C 	C 	0.37530 0.98040 0.26710 -0.10900
C 	C 	0.88080 0.32860 0.26830 -0.08500
C 	C 	0.00000 0.28050 0.71100 0.38000
C 	C 	0.50000 0.69620 0.08920 0.05200
C 	C 	0.50000 0.23360 0.16000 -0.25000
C 	C 	0.50000 0.21950 0.21100 0.43400
C 	C 	-0.00000 0.84230 0.09790 0.50500
C 	C 	0.37530 0.01960 0.73290 -0.10900
C 	C 	0.61840 0.28460 0.98590 0.04500
C 	C 	0.38830 0.03080 0.27960 0.03900
C 	C 	0.50000 0.27760 0.01000 -0.10400
C 	C 	0.50000 0.10710 0.29830 0.32600
C 	C 	0.50000 0.56910 0.48950 -0.11600
C 	C 	0.38680 0.87810 0.24510 0.01900
C 	C 	0.50000 0.47650 0.43720 -0.11400
C 	C 	-0.00000 0.45580 0.23380 0.03400
C 	C 	0.38210 0.29700 0.93690 -0.12100
C 	C 	0.50000 0.47520 0.48710 0.05100
C 	C 	0.11920 0.67140 0.73170 -0.11800
C 	C 	0.62470 0.98040 0.26710 -0.10600
C 	C 	0.61790 0.70300 0.06310 -0.11500
C 	C 	0.73950 0.80430 0.21970 0.39000
C 	C 	0.60340 0.74830 0.91440 -0.29200
C 	C 	0.50000 0.52350 0.56280 -0.11400
C 	C 	0.88210 0.79700 0.56310 -0.07300
C 	C 	0.61840 0.71540 0.01410 0.04500
C 	C 	0.50000 0.26490 0.06230 0.24000
C 	C 	0.38080 0.17140 0.76830 -0.12500
C 	C 	0.61920 0.82860 0.23170 -0.11900
C 	C 	-0.00000 0.11080 0.93430 -0.14900
C 	C 	0.00000 0.26640 0.66000 -0.26700
C 	C 	0.11920 0.32860 0.26830 -0.11800
C 	C 	0.88210 0.20300 0.43690 -0.07300
C 	C 	0.61320 0.87810 0.24510 0.01700
C 	C 	0.50000 0.43350 0.41080 0.05600
O 	O 	0.34310 0.67660 0.72830 -0.48100
O 	O 	0.27340 0.76100 0.20150 -0.46300
O 	O 	0.72660 0.23900 0.79850 -0.45400
O 	O 	0.77340 0.26100 0.29850 -0.44800
O 	O 	0.88770 0.37000 0.80034 -0.40200
O 	O 	0.34410 0.21384 0.43195 -0.47600
O 	O 	0.61230 0.87000 0.69966 -0.43400
O 	O 	0.50000 0.30600 0.42750 -0.51400
O 	O 	0.61230 0.13000 0.30034 -0.43400
O 	O 	0.84410 0.71384 0.06805 -0.45300
O 	O 	0.74180 0.68650 0.13302 -0.44900
O 	O 	0.15590 0.71384 0.06805 -0.48500
O 	O 	0.22660 0.73900 0.70150 -0.46500
O 	O 	0.24180 0.81350 0.63302 -0.45900
O 	O 	0.24180 0.18650 0.36698 -0.45900
O 	O 	0.50000 0.23536 0.33224 -0.92100
O 	O 	0.25820 0.31350 0.86698 -0.45900
O 	O 	0.39430 0.20970 0.23040 -0.47300
O 	O 	0.50000 0.34730 0.36090 -0.55700
O 	O 	0.34310 0.32340 0.27170 -0.48100
O 	O 	0.50000 0.69400 0.57250 -0.51400
O 	O 	0.88770 0.63000 0.19966 -0.40200
O 	O 	0.34410 0.78616 0.56805 -0.47600
O 	O 	0.27340 0.23900 0.79850 -0.46300
O 	O 	0.84310 0.82340 0.22830 -0.45700
O 	O 	0.75820 0.18650 0.36698 -0.44300
O 	O 	0.77340 0.73900 0.70150 -0.44800
O 	O 	0.50000 0.76464 0.66776 -0.92100
O 	O 	0.15590 0.28616 0.93195 -0.48500
O 	O 	0.22660 0.26100 0.29850 -0.46500
O 	O 	0.15690 0.17660 0.77170 -0.48800
O 	O 	0.50000 0.65270 0.63910 -0.55700
O 	O 	0.72660 0.76100 0.20150 -0.45400
O 	O 	0.65690 0.67660 0.72830 -0.47600
O 	O 	0.89430 0.29030 0.73040 -0.42600
O 	O 	0.38770 0.13000 0.30034 -0.44100
O 	O 	0.38770 0.87000 0.69966 -0.44100
O 	O 	-0.00000 0.26464 0.83224 -0.94100
O 	O 	0.00000 0.15270 0.86090 -0.56900
O 	O 	0.75820 0.81350 0.63302 -0.44300
O 	O 	0.84410 0.28616 0.93195 -0.45300
O 	O 	-0.00000 0.19400 0.92750 -0.52600
O 	O 	0.74180 0.31350 0.86698 -0.44900
O 	O 	0.00000 0.73536 0.16776 -0.94100
O 	O 	0.65690 0.32340 0.27170 -0.47600
O 	O 	0.65590 0.78616 0.56805 -0.47200
O 	O 	0.11230 0.37000 0.80034 -0.43800
O 	O 	0.11230 0.63000 0.19966 -0.43800
O 	O 	-0.00000 0.84730 0.13910 -0.56900
O 	O 	0.00000 0.80600 0.07250 -0.52600
O 	O 	0.65590 0.21384 0.43195 -0.47200
O 	O 	0.39430 0.79030 0.76960 -0.47300
O 	O 	0.25820 0.68650 0.13302 -0.45900
O 	O 	0.60570 0.20970 0.23040 -0.46700
O 	O 	0.15690 0.82340 0.22830 -0.48800
O 	O 	0.10570 0.70970 0.26960 -0.46400
O 	O 	0.84310 0.17660 0.77170 -0.45700
O 	O 	0.89430 0.70970 0.26960 -0.42600
O 	O 	0.60570 0.79030 0.76960 -0.46700
O 	O 	0.10570 0.29030 0.73040 -0.46400
