data_crystal

_cell_length_a 9.19480
_cell_length_b 10.72700
_cell_length_c 10.72700
_cell_angle_alpha 114.58300
_cell_angle_beta  102.92700
_cell_angle_gamma 102.92700

_symmetry_space_group_name_	'P 1'
_symmetry_space_group_name_H-M	'P 1'

loop_
_symmetry_equiv_pos_as_xyz
  x,y,z

loop_
_atom_site_label
_atom_site_type_symbol
_atom_site_fract_x
_atom_site_fract_y
_atom_site_fract_z
_atom_site_charge
Th	Th	0.25000 0.48131 0.51869 0.05700
Th	Th	0.75000 0.51869 0.48131 0.05700
H 	H 	0.52180 0.20330 0.04890 0.07400
H 	H 	0.25270 0.02350 0.48210 0.06700
H 	H 	0.78660 0.46320 0.81040 0.07700
H 	H 	0.07060 0.16630 0.01970 0.06100
H 	H 	0.02180 0.04890 0.20330 0.07500
H 	H 	0.75270 0.48210 0.02350 0.06800
H 	H 	0.97820 0.95110 0.79670 0.07500
H 	H 	0.92940 0.83370 0.98030 0.06100
H 	H 	0.71340 0.18960 0.53680 0.07800
H 	H 	0.57060 0.01970 0.16630 0.06100
H 	H 	0.47820 0.79670 0.95110 0.07400
H 	H 	0.24730 0.51790 0.97650 0.06800
H 	H 	0.74730 0.97650 0.51790 0.06700
H 	H 	0.21340 0.53680 0.18960 0.07700
H 	H 	0.28660 0.81040 0.46320 0.07800
H 	H 	0.42940 0.98030 0.83370 0.06100
C 	C 	0.86480 0.21590 0.32370 0.26100
C 	C 	0.35730 0.01640 0.87220 -0.02400
C 	C 	0.14270 0.12780 0.98360 -0.02400
C 	C 	0.13520 0.78410 0.67630 0.26100
C 	C 	0.14810 0.51100 0.98600 -0.02800
C 	C 	0.85730 0.87220 0.01640 -0.02400
C 	C 	0.87250 0.47830 0.88690 -0.03300
C 	C 	0.69480 0.80020 0.93800 -0.03000
C 	C 	0.37250 0.88690 0.47830 -0.03400
C 	C 	0.02090 0.48990 0.87250 -0.03000
C 	C 	0.08710 0.99760 0.85100 -0.03700
C 	C 	0.30520 0.19980 0.06200 -0.03000
C 	C 	0.35190 0.01400 0.48900 -0.02700
C 	C 	0.91290 0.00240 0.14900 -0.03700
C 	C 	0.97910 0.51010 0.12750 -0.03000
C 	C 	0.58710 0.85100 0.99760 -0.03400
C 	C 	0.04420 0.48060 0.73560 0.26400
C 	C 	0.36480 0.32370 0.21590 0.26200
C 	C 	0.12750 0.52170 0.11310 -0.03300
C 	C 	0.85190 0.48900 0.01400 -0.02800
C 	C 	0.95580 0.51940 0.26440 0.26400
C 	C 	0.62750 0.11310 0.52170 -0.03400
C 	C 	0.45580 0.26440 0.51940 0.26400
C 	C 	0.64270 0.98360 0.12780 -0.02400
C 	C 	0.64810 0.98600 0.51100 -0.02700
C 	C 	0.52090 0.87250 0.48990 -0.02900
C 	C 	0.19480 0.93800 0.80020 -0.02900
C 	C 	0.63520 0.67630 0.78410 0.26200
C 	C 	0.41290 0.14900 0.00240 -0.03400
C 	C 	0.54420 0.73560 0.48060 0.26400
C 	C 	0.47910 0.12750 0.51010 -0.02900
C 	C 	0.80520 0.06200 0.19980 -0.02900
O 	O 	0.32720 0.28057 0.52603 -0.16800
O 	O 	0.51100 0.40288 0.27232 -0.15800
O 	O 	0.01100 0.27232 0.40288 -0.15800
O 	O 	0.06630 0.51763 0.35697 -0.15700
O 	O 	0.48900 0.59712 0.72768 -0.15800
O 	O 	0.82720 0.52603 0.28057 -0.16800
O 	O 	0.26690 0.33833 0.28067 -0.17200
O 	O 	0.73310 0.66167 0.71933 -0.17200
O 	O 	0.17280 0.47397 0.71943 -0.16800
O 	O 	0.98900 0.72768 0.59712 -0.15800
O 	O 	0.23310 0.71933 0.66167 -0.17200
O 	O 	0.93370 0.48237 0.64303 -0.15700
O 	O 	0.43370 0.64303 0.48237 -0.15700
O 	O 	0.56630 0.35697 0.51763 -0.15700
O 	O 	0.67280 0.71943 0.47397 -0.16800
O 	O 	0.76690 0.28067 0.33833 -0.17200
