data_crystal

_cell_length_a 20.51950
_cell_length_b 20.51950
_cell_length_c 20.51950
_cell_angle_alpha 92.20630
_cell_angle_beta  92.20630
_cell_angle_gamma 92.20630

_symmetry_space_group_name_	'P 1'
_symmetry_space_group_name_H-M	'P 1'

loop_
_symmetry_equiv_pos_as_xyz
  x,y,z

loop_
_atom_site_label
_atom_site_type_symbol
_atom_site_fract_x
_atom_site_fract_y
_atom_site_fract_z
_atom_site_charge
Zn	Zn	0.66954 0.96819 0.53961 1.22100
Zn	Zn	0.53961 0.66954 0.96819 1.22100
Zn	Zn	0.03181 0.33046 0.46039 1.21800
Zn	Zn	0.66385 0.69067 0.85747 1.23600
Zn	Zn	0.33615 0.14253 0.30933 1.23600
Zn	Zn	0.85747 0.66385 0.69067 1.23600
Zn	Zn	0.30933 0.33615 0.14253 1.23700
Zn	Zn	0.96819 0.53961 0.66954 1.22200
Zn	Zn	0.14253 0.30933 0.33615 1.23700
Zn	Zn	0.33046 0.46039 0.03181 1.21900
Zn	Zn	0.46039 0.03181 0.33046 1.21900
Zn	Zn	0.69067 0.85747 0.66385 1.23700
H 	H 	0.87700 0.43490 0.05530 0.06600
H 	H 	0.54040 0.94060 0.73980 0.09400
H 	H 	0.58100 0.11160 0.05390 0.08200
H 	H 	0.05530 0.87700 0.43490 0.06600
H 	H 	0.08110 0.15070 0.54500 0.00400
H 	H 	0.45960 0.26020 0.05940 0.09200
H 	H 	0.66860 0.60860 0.10900 0.01500
H 	H 	0.07770 0.88710 0.65030 0.07300
H 	H 	0.11160 0.05390 0.58100 0.08200
H 	H 	0.92230 0.34970 0.11290 0.07000
H 	H 	0.00390 0.54380 0.30830 0.06800
H 	H 	0.39140 0.33140 0.89100 0.01900
H 	H 	0.73140 0.39300 0.17380 0.06700
H 	H 	0.49610 0.39690 0.94500 0.07800
H 	H 	0.00220 0.81200 0.68330 0.02300
H 	H 	0.81200 0.68330 0.00220 0.02300
H 	H 	0.65590 0.36990 0.84220 0.07500
H 	H 	0.18800 0.99780 0.31670 0.02800
H 	H 	0.11290 0.92230 0.34970 0.07000
H 	H 	0.18230 0.74410 0.57050 0.07300
H 	H 	0.50320 0.50630 0.92510 0.02200
H 	H 	0.94470 0.56510 0.12300 0.06600
H 	H 	0.84220 0.65590 0.36990 0.07500
H 	H 	0.15070 0.54500 0.08110 0.00400
H 	H 	0.52130 0.33680 0.17190 0.02600
H 	H 	0.88840 0.41900 0.94610 0.08600
H 	H 	0.33140 0.89100 0.39140 0.01900
H 	H 	0.63010 0.34410 0.15780 0.07300
H 	H 	0.30830 0.00390 0.54380 0.06800
H 	H 	0.82810 0.66320 0.47870 0.02500
H 	H 	0.68330 0.00220 0.81200 0.02300
H 	H 	0.36990 0.84220 0.65590 0.07500
H 	H 	0.07490 0.49370 0.49680 0.02200
H 	H 	0.41900 0.94610 0.88840 0.08600
H 	H 	0.73980 0.54040 0.94060 0.09400
H 	H 	0.05940 0.45960 0.26020 0.09200
H 	H 	0.22280 0.15310 0.41740 0.00900
H 	H 	0.66320 0.47870 0.82810 0.02500
H 	H 	0.91890 0.45500 0.84930 0.00400
H 	H 	0.92510 0.50320 0.50630 0.02200
H 	H 	0.39690 0.94500 0.49610 0.07800
H 	H 	0.69170 0.45620 0.99610 0.07700
H 	H 	0.25590 0.81770 0.42950 0.07100
H 	H 	0.15780 0.63010 0.34410 0.07300
H 	H 	0.88710 0.65030 0.07770 0.07300
H 	H 	0.47870 0.82810 0.66320 0.02500
H 	H 	0.33680 0.17190 0.52130 0.02600
H 	H 	0.50630 0.92510 0.50320 0.02200
H 	H 	0.94060 0.73980 0.54040 0.09400
H 	H 	0.94610 0.88840 0.41900 0.08600
H 	H 	0.49680 0.07490 0.49370 0.02200
H 	H 	0.42950 0.25590 0.81770 0.07100
H 	H 	0.26020 0.05940 0.45960 0.09200
H 	H 	0.05500 0.60310 0.50390 0.07600
H 	H 	0.49370 0.49680 0.07490 0.02200
H 	H 	0.43490 0.05530 0.87700 0.06600
H 	H 	0.17190 0.52130 0.33680 0.02600
H 	H 	0.74410 0.57050 0.18230 0.07300
H 	H 	0.12300 0.94470 0.56510 0.06600
H 	H 	0.94500 0.49610 0.39690 0.07800
H 	H 	0.82620 0.60700 0.26860 0.06500
H 	H 	0.15310 0.41740 0.22280 0.00900
H 	H 	0.63275 0.00000 0.36725 -0.05100
H 	H 	0.41740 0.22280 0.15310 0.00900
H 	H 	0.54380 0.30830 0.00390 0.06800
H 	H 	0.10900 0.66860 0.60860 0.01500
H 	H 	0.45500 0.84930 0.91890 0.00400
H 	H 	0.81770 0.42950 0.25590 0.07100
H 	H 	0.50390 0.05500 0.60310 0.07600
H 	H 	0.84690 0.77720 0.58260 0.00800
H 	H 	0.45620 0.99610 0.69170 0.07700
H 	H 	0.60310 0.50390 0.05500 0.07600
H 	H 	0.99780 0.31670 0.18800 0.02800
H 	H 	0.77720 0.58260 0.84690 0.00800
H 	H 	0.57050 0.18230 0.74410 0.07300
H 	H 	0.54500 0.08110 0.15070 0.00400
H 	H 	0.05390 0.58100 0.11160 0.08200
H 	H 	0.58260 0.84690 0.77720 0.00800
H 	H 	0.60860 0.10900 0.66860 0.01500
H 	H 	0.84930 0.91890 0.45500 0.00400
H 	H 	0.60700 0.26860 0.82620 0.06500
H 	H 	0.26860 0.82620 0.60700 0.06500
H 	H 	0.31670 0.18800 0.99780 0.02800
H 	H 	0.34970 0.11290 0.92230 0.07000
H 	H 	0.99610 0.69170 0.45620 0.07700
H 	H 	0.65030 0.07770 0.88710 0.07300
H 	H 	-0.00000 0.36725 0.63275 -0.05100
H 	H 	0.89100 0.39140 0.33140 0.01900
H 	H 	0.17380 0.73140 0.39300 0.06700
H 	H 	0.36725 0.63275 -0.00000 -0.05100
H 	H 	0.56510 0.12300 0.94470 0.06600
H 	H 	0.34410 0.15780 0.63010 0.07300
H 	H 	0.39300 0.17380 0.73140 0.06700
C 	C 	0.33992 0.20142 0.96212 0.05300
C 	C 	0.89738 0.57698 0.36988 0.05200
C 	C 	0.45066 0.92486 0.86526 -0.16500
C 	C 	0.88374 0.47355 0.86912 0.10000
C 	C 	0.89820 0.38560 0.28710 0.05300
C 	C 	0.34050 0.31580 0.00610 0.38200
C 	C 	0.54742 0.21363 0.98041 0.03900
C 	C 	0.41674 0.12484 0.49574 -0.13300
C 	C 	-0.00000 0.39868 0.60133 0.24100
C 	C 	0.54934 0.13474 0.07514 -0.16200
C 	C 	0.79858 0.66008 0.03788 0.06200
C 	C 	0.46177 0.85137 0.62887 0.05700
C 	C 	0.96212 0.33992 0.20142 0.05300
C 	C 	0.85137 0.62887 0.46177 0.05700
C 	C 	0.13839 0.82679 0.60909 0.05300
C 	C 	0.64406 0.04526 0.73246 -0.15100
C 	C 	0.18658 0.87569 0.59030 0.03500
C 	C 	0.85315 0.40615 0.24245 -0.11400
C 	C 	0.95474 0.35594 0.26754 -0.13600
C 	C 	0.06470 0.83310 0.43280 -0.10600
C 	C 	0.59385 0.14685 0.75755 -0.12100
C 	C 	0.80742 0.47716 0.95140 0.08700
C 	C 	0.47716 0.95140 0.80742 0.08700
C 	C 	0.04526 0.73246 0.64406 -0.15100
C 	C 	0.36988 0.89738 0.57698 0.05200
C 	C 	0.07754 0.47604 0.22304 -0.16500
C 	C 	0.86526 0.45066 0.92486 -0.16500
C 	C 	0.03788 0.79858 0.66008 0.06200
C 	C 	0.54893 0.86627 0.79891 0.10300
C 	C 	0.45107 0.20109 0.13373 0.09900
C 	C 	0.31580 0.00610 0.34050 0.38200
C 	C 	0.12242 0.22240 0.44671 0.41600
C 	C 	0.50426 0.87516 0.58326 -0.13500
C 	C 	0.01959 0.78637 0.45258 0.03900
C 	C 	0.52645 0.11626 0.13088 0.09600
C 	C 	0.92115 0.53025 0.41315 -0.12200
C 	C 	0.47604 0.22304 0.07754 -0.16500
C 	C 	0.38560 0.28710 0.89820 0.05300
C 	C 	0.47548 0.14714 0.16183 -0.17100
C 	C 	0.42085 0.41275 0.13445 0.40300
C 	C 	0.66008 0.03788 0.79858 0.06200
C 	C 	0.74605 0.40870 0.13475 -0.10800
C 	C 	0.87569 0.59030 0.18658 0.03500
C 	C 	0.20142 0.96212 0.33992 0.05300
C 	C 	0.08388 0.84308 0.64098 -0.12500
C 	C 	0.22304 0.07754 0.47604 -0.16500
C 	C 	0.59030 0.18658 0.87569 0.03500
C 	C 	0.97050 0.55232 0.27828 -0.10200
C 	C 	0.61440 0.10180 0.71290 0.06300
C 	C 	0.20109 0.13373 0.45107 0.09900
C 	C 	0.91003 0.57013 0.29943 0.03700
C 	C 	0.63012 0.42302 0.10262 0.04700
C 	C 	0.45258 0.01959 0.78637 0.03900
C 	C 	0.40870 0.13475 0.74605 -0.10800
C 	C 	0.62887 0.46177 0.85137 0.05700
C 	C 	0.12484 0.49574 0.41674 -0.13300
C 	C 	0.62541 0.39671 0.86061 -0.12700
C 	C 	0.90918 0.53458 0.47908 0.05300
C 	C 	0.39671 0.86061 0.62541 -0.12700
C 	C 	0.43280 0.06470 0.83310 -0.10600
C 	C 	0.55329 0.77760 0.87758 0.41700
C 	C 	0.35902 0.15692 0.91612 -0.11700
C 	C 	0.86061 0.62541 0.39671 -0.12700
C 	C 	0.86912 0.88374 0.47355 0.10000
C 	C 	0.35594 0.26754 0.95474 -0.13600
C 	C 	0.10262 0.63012 0.42302 0.04700
C 	C 	0.86555 0.58725 0.57915 0.40400
C 	C 	0.82679 0.60909 0.13839 0.05300
C 	C 	0.52284 0.19258 0.04860 0.08000
C 	C 	0.60329 0.37459 0.13939 -0.12400
C 	C 	0.47908 0.90918 0.53458 0.05300
C 	C 	0.92486 0.86526 0.45066 -0.16500
C 	C 	0.29943 0.91003 0.57013 0.03700
C 	C 	0.41275 0.13445 0.42085 0.40300
C 	C 	0.11626 0.13088 0.52645 0.09600
C 	C 	0.83310 0.43280 0.06470 -0.10600
C 	C 	0.02950 0.72172 0.44768 -0.11600
C 	C 	0.39868 0.60133 -0.00000 0.24100
C 	C 	0.87758 0.55329 0.77760 0.41700
C 	C 	0.60133 0.00000 0.39868 0.24100
C 	C 	0.40615 0.24245 0.85315 -0.11400
C 	C 	0.41315 0.92115 0.53025 -0.12200
C 	C 	0.60909 0.13839 0.82679 0.05300
C 	C 	0.75755 0.59385 0.14685 -0.12100
C 	C 	0.95140 0.80742 0.47716 0.08700
C 	C 	0.37459 0.13939 0.60329 -0.12400
C 	C 	0.53823 0.37113 0.14863 0.05500
C 	C 	0.98041 0.54742 0.21363 0.03900
C 	C 	0.40970 0.12431 0.81342 0.03900
C 	C 	0.12431 0.81342 0.40970 0.03900
C 	C 	0.14685 0.75755 0.59385 -0.12100
C 	C 	0.65950 0.99390 0.68420 0.39900
C 	C 	0.46542 0.09082 0.52092 0.05000
C 	C 	0.86525 0.59130 0.25395 -0.10300
C 	C 	0.19258 0.04860 0.52284 0.08000
C 	C 	0.58725 0.57915 0.86555 0.40400
C 	C 	0.52396 0.92246 0.77696 -0.16900
C 	C 	0.16183 0.47548 0.14714 -0.17100
C 	C 	0.13939 0.60329 0.37459 -0.12400
C 	C 	0.52092 0.46542 0.09082 0.05000
C 	C 	0.68420 0.65950 0.99390 0.39900
C 	C 	0.57915 0.86555 0.58725 0.40400
C 	C 	0.25395 0.86525 0.59130 -0.10300
C 	C 	0.09082 0.52092 0.46542 0.05000
C 	C 	0.13475 0.74605 0.40870 -0.10800
C 	C 	0.53458 0.47908 0.90918 0.05300
C 	C 	0.22240 0.44671 0.12242 0.41600
C 	C 	0.13474 0.07514 0.54934 -0.16200
C 	C 	0.46975 0.07885 0.58685 -0.12000
C 	C 	0.07885 0.58685 0.46975 -0.12000
C 	C 	0.77696 0.52396 0.92246 -0.16900
C 	C 	0.13088 0.52645 0.11626 0.09600
C 	C 	0.44671 0.12242 0.22240 0.41600
C 	C 	0.13445 0.42085 0.41275 0.40300
C 	C 	0.13373 0.45107 0.20109 0.09900
C 	C 	0.10180 0.71290 0.61440 0.06300
C 	C 	0.17321 0.86161 0.39091 0.04600
C 	C 	0.49574 0.41674 0.12484 -0.13300
C 	C 	0.81342 0.40970 0.12431 0.03900
C 	C 	0.28710 0.89820 0.38560 0.05300
C 	C 	0.64098 0.08388 0.84308 -0.12500
C 	C 	0.59130 0.25395 0.86525 -0.10300
C 	C 	0.79891 0.54893 0.86627 0.10300
C 	C 	0.26754 0.95474 0.35594 -0.13600
C 	C 	0.55232 0.27828 0.97050 -0.10200
C 	C 	0.92246 0.77696 0.52396 -0.16900
C 	C 	0.71290 0.61440 0.10180 0.06300
C 	C 	0.78637 0.45258 0.01959 0.03900
C 	C 	0.04860 0.52284 0.19258 0.08000
C 	C 	0.27828 0.97050 0.55232 -0.10200
C 	C 	0.70057 0.42987 0.08997 0.04400
C 	C 	0.42302 0.10262 0.63012 0.04700
C 	C 	0.53025 0.41315 0.92115 -0.12200
C 	C 	0.91612 0.35902 0.15692 -0.11700
C 	C 	0.07514 0.54934 0.13474 -0.16200
C 	C 	0.58685 0.46975 0.07885 -0.12000
C 	C 	0.57698 0.36988 0.89738 0.05200
C 	C 	0.52452 0.83817 0.85286 -0.17200
C 	C 	0.16690 0.93530 0.56720 -0.10300
C 	C 	0.00610 0.34050 0.31580 0.38200
C 	C 	0.77760 0.87758 0.55329 0.41700
C 	C 	0.86161 0.39091 0.17321 0.04600
C 	C 	0.87516 0.58326 0.50426 -0.13500
C 	C 	0.14714 0.16183 0.47548 -0.17100
C 	C 	0.37113 0.14863 0.53823 0.05500
C 	C 	0.56720 0.16690 0.93530 -0.10300
C 	C 	0.73246 0.64406 0.04526 -0.15100
C 	C 	0.85286 0.52452 0.83817 -0.17200
C 	C 	0.58326 0.50426 0.87516 -0.13500
C 	C 	0.47355 0.86912 0.88374 0.10000
C 	C 	0.83817 0.85286 0.52452 -0.17200
C 	C 	0.15692 0.91612 0.35902 -0.11700
C 	C 	0.93530 0.56720 0.16690 -0.10300
C 	C 	0.08997 0.70057 0.42987 0.04400
C 	C 	0.72172 0.44768 0.02950 -0.11600
C 	C 	0.86627 0.79891 0.54893 0.10300
C 	C 	0.57013 0.29943 0.91003 0.03700
C 	C 	0.21363 0.98041 0.54742 0.03900
C 	C 	0.39091 0.17321 0.86161 0.04600
C 	C 	0.24245 0.85315 0.40615 -0.11400
C 	C 	0.84308 0.64098 0.08388 -0.12500
C 	C 	0.14863 0.53823 0.37113 0.05500
C 	C 	0.42987 0.08997 0.70057 0.04400
C 	C 	0.44768 0.02950 0.72172 -0.11600
C 	C 	0.99390 0.68420 0.65950 0.39900
S 	S 	0.25915 0.25915 0.25915 0.62400
S 	S 	0.74085 0.74085 0.74085 0.62400
O 	O 	0.70460 0.69173 0.94622 -0.47500
O 	O 	0.30827 0.29540 0.05378 -0.47400
O 	O 	0.26705 0.19667 0.28544 -0.50900
O 	O 	0.35879 0.37426 0.99856 -0.49400
O 	O 	0.75090 0.92586 0.52574 -0.50400
O 	O 	0.47426 0.07414 0.24910 -0.50600
O 	O 	0.80333 0.73295 0.71456 -0.50700
O 	O 	0.29540 0.05378 0.30827 -0.47400
O 	O 	0.05378 0.30827 0.29540 -0.47400
O 	O 	0.75719 0.84855 0.60213 -0.50900
O 	O 	0.24910 0.47426 0.07414 -0.50600
O 	O 	0.99856 0.35879 0.37426 -0.49400
O 	O 	0.35975 0.15745 0.40183 -0.48500
O 	O 	0.00860 0.46700 0.62530 -0.41200
O 	O 	0.64025 0.59817 0.84255 -0.48400
O 	O 	0.15745 0.40183 0.35975 -0.48500
O 	O 	0.59817 0.84255 0.64025 -0.48400
O 	O 	0.28544 0.26705 0.19667 -0.50900
O 	O 	0.07414 0.24910 0.47426 -0.50600
O 	O 	0.69173 0.94622 0.70460 -0.47500
O 	O 	0.60213 0.75719 0.84855 -0.50900
O 	O 	0.40183 0.35975 0.15745 -0.48500
O 	O 	0.71456 0.80333 0.73295 -0.50700
O 	O 	0.54394 0.61280 0.88559 -0.49600
O 	O 	0.73295 0.71456 0.80333 -0.50700
O 	O 	0.11441 0.38720 0.45606 -0.49700
O 	O 	0.84255 0.64025 0.59817 -0.48400
O 	O 	0.94622 0.70460 0.69173 -0.47500
O 	O 	0.37470 0.53300 0.99140 -0.40700
O 	O 	0.64121 0.00144 0.62574 -0.50400
O 	O 	0.00144 0.62574 0.64121 -0.50400
O 	O 	0.62530 0.00860 0.46700 -0.41200
O 	O 	0.61280 0.88559 0.54394 -0.49600
O 	O 	0.19667 0.28544 0.26705 -0.50900
O 	O 	0.92586 0.52574 0.75090 -0.50400
O 	O 	0.46700 0.62530 0.00860 -0.41200
O 	O 	0.24281 0.39787 0.15145 -0.50900
O 	O 	0.15145 0.24281 0.39787 -0.50900
O 	O 	0.39787 0.15145 0.24281 -0.50900
O 	O 	0.38720 0.45606 0.11441 -0.49700
O 	O 	0.53300 0.99140 0.37470 -0.40700
O 	O 	0.37426 0.99856 0.35879 -0.49400
O 	O 	0.62574 0.64121 0.00144 -0.50400
O 	O 	0.99140 0.37470 0.53300 -0.40700
O 	O 	0.45606 0.11441 0.38720 -0.49700
O 	O 	0.52574 0.75090 0.92586 -0.50400
O 	O 	0.88559 0.54394 0.61280 -0.49600
O 	O 	0.84855 0.60213 0.75719 -0.50900
