data_crystal

_cell_length_a 18.02080
_cell_length_b 18.02080
_cell_length_c 18.36840
_cell_angle_alpha 69.51970
_cell_angle_beta  62.02870
_cell_angle_gamma 99.51400

_symmetry_space_group_name_	'P 1'
_symmetry_space_group_name_H-M	'P 1'

loop_
_symmetry_equiv_pos_as_xyz
  x,y,z

loop_
_atom_site_label
_atom_site_type_symbol
_atom_site_fract_x
_atom_site_fract_y
_atom_site_fract_z
_atom_site_charge
Zn	Zn	0.96189 0.81981 0.48808 1.20200
Zn	Zn	0.19211 0.55003 0.98808 1.20200
H 	H 	0.10420 0.66280 0.75880 0.07500
H 	H 	0.38910 0.80490 0.15180 0.19900
H 	H 	0.62990 0.53870 0.55860 0.19900
H 	H 	0.53170 0.53270 0.58640 0.19600
H 	H 	0.54330 0.45910 0.65180 0.19800
H 	H 	0.03100 0.29140 0.05220 0.12300
H 	H 	0.95710 0.66860 0.59710 0.07800
H 	H 	0.28290 0.89630 0.21380 0.05300
H 	H 	0.11320 0.32100 0.17180 0.13500
H 	H 	0.25860 0.49970 0.83270 -0.00700
H 	H 	0.28900 0.84030 0.73190 0.06300
H 	H 	0.23430 0.44580 0.09710 0.07800
H 	H 	0.40270 0.81150 0.05860 0.20000
H 	H 	0.72920 0.61800 0.54500 0.12200
H 	H 	0.04830 0.52360 0.14930 0.07700
H 	H 	0.31890 0.92450 0.57840 0.20600
H 	H 	0.10250 0.66740 0.31130 0.06400
H 	H 	0.82710 0.80240 0.64930 0.07600
H 	H 	0.38990 0.50330 0.71380 0.05200
H 	H 	0.16760 0.90870 0.33270 -0.00600
H 	H 	0.07840 0.13700 0.25880 0.07600
H 	H 	0.33700 0.72580 0.04500 0.12300
H 	H 	0.15640 0.91680 0.55220 0.12200
H 	H 	0.38090 0.88190 0.08640 0.19700
H 	H 	0.28420 0.73590 0.84830 -0.00900
H 	H 	0.38680 0.57100 0.93360 0.00100
H 	H 	0.14420 0.45170 0.16630 0.07700
H 	H 	0.99710 0.10270 0.07840 0.20600
H 	H 	0.92780 0.97910 0.23190 0.06400
H 	H 	0.24520 0.94270 0.65170 0.20700
H 	H 	0.82640 0.86880 0.56680 0.07900
H 	H 	0.70530 0.73020 0.65250 0.13900
H 	H 	0.52130 0.58620 0.81130 0.06400
H 	H 	0.98210 0.18900 0.05830 0.21000
H 	H 	0.90560 0.10310 0.15170 0.20700
H 	H 	0.00720 0.71500 0.67180 0.13500
H 	H 	0.99540 0.67960 0.43360 -0.00100
H 	H 	0.09790 0.56070 0.88300 -0.01300
H 	H 	0.88200 0.68950 0.66630 0.07700
H 	H 	0.11730 0.64220 0.15250 0.14000
H 	H 	0.25270 0.95960 0.55830 0.21100
H 	H 	0.05630 0.01910 0.38300 -0.01300
H 	H 	0.06440 0.60680 0.06680 0.08000
H 	H 	0.91580 0.86750 0.34830 -0.01000
C 	C 	0.56790 0.52010 0.61040 -0.60700
C 	C 	0.99990 0.06960 0.23810 0.04000
C 	C 	0.94780 0.92330 0.33170 0.07600
C 	C 	0.23620 0.65810 0.05110 0.29800
C 	C 	0.05480 0.83360 0.57260 0.28800
C 	C 	0.13950 0.67940 0.77890 -0.13200
C 	C 	0.56600 0.56960 0.66720 0.17600
C 	C 	0.19230 0.76200 0.73810 0.03500
C 	C 	0.24500 0.72050 0.83170 0.07400
C 	C 	0.22420 0.85270 0.25610 -0.10500
C 	C 	0.09380 0.37260 0.07260 0.28900
C 	C 	0.02990 0.01020 0.35210 0.08900
C 	C 	0.79080 0.71270 0.55110 0.29600
C 	C 	0.15420 0.85890 0.32850 0.06000
C 	C 	0.20200 0.77710 0.25010 0.00200
C 	C 	0.95420 0.98910 0.26230 -0.14500
C 	C 	0.13770 0.61800 0.85210 0.08700
C 	C 	0.97050 0.13550 0.10660 -0.64100
C 	C 	0.31260 0.51730 0.82850 0.05900
C 	C 	0.04170 0.08160 0.27890 -0.13500
C 	C 	0.47280 0.54790 0.75010 0.00100
C 	C 	0.01230 0.15380 0.15590 0.17800
C 	C 	0.26320 0.76680 0.16720 0.17600
C 	C 	0.05230 0.72530 0.38740 0.05400
C 	C 	0.38730 0.56030 0.88740 0.05000
C 	C 	0.11820 0.71730 0.31470 -0.10000
C 	C 	0.39120 0.51970 0.75610 -0.10400
C 	C 	0.25790 0.92290 0.60660 -0.64200
C 	C 	0.24860 0.78350 0.76230 -0.13900
C 	C 	0.46800 0.56710 0.81470 -0.09900
C 	C 	0.36950 0.82170 0.11040 -0.60700
C 	C 	0.19030 0.83180 0.65590 0.17800
N 	N 	0.62840 0.62080 0.65320 -0.13400
N 	N 	0.04740 0.22430 0.15170 -0.12200
N 	N 	0.27820 0.70460 0.07620 -0.20500
N 	N 	0.14380 0.62940 0.10860 -0.23100
N 	N 	0.17490 0.44440 0.11110 -0.25200
N 	N 	0.00280 0.74690 0.62790 -0.22000
N 	N 	0.30970 0.53840 0.89190 -0.24000
N 	N 	0.94450 0.71400 0.61110 -0.25300
N 	N 	0.11990 0.86330 0.58420 -0.20500
N 	N 	0.18930 0.63760 0.87850 -0.26000
N 	N 	0.98390 0.93220 0.37850 -0.26100
N 	N 	0.06970 0.79840 0.39190 -0.24000
N 	N 	0.12520 0.36930 0.12790 -0.22100
N 	N 	0.71920 0.64560 0.57620 -0.20500
N 	N 	0.09460 0.57700 0.09120 -0.26700
N 	N 	0.05250 0.29590 0.08420 -0.20500
N 	N 	0.12400 0.80090 0.65170 -0.12200
N 	N 	0.76200 0.74760 0.60860 -0.23100
N 	N 	0.22600 0.71840 0.15320 -0.13400
N 	N 	0.83180 0.81420 0.59120 -0.26700
O 	O 	0.04370 0.88340 0.51470 -0.43100
O 	O 	0.27900 0.64330 0.98730 -0.43500
O 	O 	0.10190 0.44160 0.01470 -0.43100
O 	O 	0.86940 0.73370 0.48730 -0.43300
Zn	Zn	0.80789 0.44997 0.01192 1.20300
Zn	Zn	0.03811 0.18019 0.51192 1.20300
H 	H 	0.17290 0.19760 0.35070 0.07600
H 	H 	0.94370 0.98090 0.61700 -0.01300
H 	H 	0.01790 0.81100 0.94170 0.21000
H 	H 	0.96900 0.70860 0.94780 0.12300
H 	H 	0.71710 0.10370 0.78620 0.05300
H 	H 	0.83240 0.09130 0.66730 -0.00600
H 	H 	0.59730 0.18850 0.94140 0.20000
H 	H 	0.00290 0.89730 0.92160 0.20600
H 	H 	0.85580 0.54830 0.83370 0.07700
H 	H 	0.89750 0.33260 0.68870 0.06400
H 	H 	0.07220 0.02090 0.76810 0.06400
H 	H 	0.00460 0.32040 0.56640 -0.00100
H 	H 	0.09440 0.89690 0.84830 0.20700
H 	H 	0.46830 0.46730 0.41360 0.19600
H 	H 	0.61320 0.42900 0.06640 0.00100
H 	H 	0.74730 0.04040 0.44170 0.21100
H 	H 	0.93560 0.39320 0.93320 0.08000
H 	H 	0.95170 0.47640 0.85070 0.07700
H 	H 	0.61090 0.19510 0.84820 0.19900
H 	H 	0.04290 0.33140 0.40290 0.07800
H 	H 	0.08420 0.13250 0.65170 -0.01000
H 	H 	0.84360 0.08320 0.44780 0.12200
H 	H 	0.99280 0.28500 0.32820 0.13500
H 	H 	0.88680 0.67900 0.82820 0.13500
H 	H 	0.89580 0.33720 0.24120 0.07500
H 	H 	0.74140 0.50030 0.16730 -0.00700
H 	H 	0.37010 0.46130 0.44140 0.19900
H 	H 	0.11800 0.31050 0.33370 0.07700
H 	H 	0.88270 0.35780 0.84750 0.14000
H 	H 	0.27080 0.38200 0.45500 0.12200
H 	H 	0.29470 0.26980 0.34750 0.13900
H 	H 	0.71100 0.15970 0.26810 0.06300
H 	H 	0.75480 0.05730 0.34830 0.20700
H 	H 	0.45670 0.54090 0.34820 0.19800
H 	H 	0.71580 0.26410 0.15170 -0.00900
H 	H 	0.68110 0.07550 0.42160 0.20600
H 	H 	0.76570 0.55420 0.90290 0.07800
H 	H 	0.17360 0.13120 0.43320 0.07900
H 	H 	0.47870 0.41380 0.18870 0.06400
H 	H 	0.92160 0.86300 0.74120 0.07600
H 	H 	0.90210 0.43930 0.11700 -0.01300
H 	H 	0.66300 0.27420 0.95500 0.12300
H 	H 	0.61010 0.49670 0.28620 0.05200
H 	H 	0.61910 0.11810 0.91360 0.19700
C 	C 	0.53200 0.43290 0.18530 -0.09900
C 	C 	0.60880 0.48030 0.24390 -0.10400
C 	C 	0.05220 0.07670 0.66830 0.07600
C 	C 	0.80970 0.16820 0.34410 0.17800
C 	C 	0.79800 0.22290 0.74990 0.00200
C 	C 	0.63050 0.17830 0.88960 -0.60700
C 	C 	0.76380 0.34190 0.94890 0.29800
C 	C 	0.77580 0.14730 0.74390 -0.10500
C 	C 	0.04580 0.01090 0.73770 -0.14500
C 	C 	0.90620 0.62740 0.92740 0.28900
C 	C 	0.75140 0.21650 0.23770 -0.13900
C 	C 	0.95830 0.91840 0.72110 -0.13500
C 	C 	0.97010 0.98980 0.64790 0.08900
C 	C 	0.02950 0.86450 0.89340 -0.64100
C 	C 	0.68740 0.48270 0.17150 0.05900
C 	C 	0.98770 0.84620 0.84410 0.17800
C 	C 	0.80770 0.23800 0.26190 0.03500
C 	C 	0.84580 0.14110 0.67150 0.06000
C 	C 	0.94520 0.16640 0.42740 0.28800
C 	C 	0.88180 0.28270 0.68530 -0.10000
C 	C 	0.43400 0.43040 0.33280 0.17600
C 	C 	0.52720 0.45210 0.24990 0.00100
C 	C 	0.00010 0.93040 0.76190 0.04000
C 	C 	0.86230 0.38200 0.14790 0.08700
C 	C 	0.94770 0.27470 0.61260 0.05400
C 	C 	0.75500 0.27950 0.16830 0.07400
C 	C 	0.86050 0.32060 0.22110 -0.13200
C 	C 	0.61270 0.43970 0.11260 0.05000
C 	C 	0.74210 0.07710 0.39340 -0.64200
C 	C 	0.20920 0.28730 0.44890 0.29600
C 	C 	0.43210 0.47990 0.38960 -0.60700
C 	C 	0.73680 0.23320 0.83280 0.17600
N 	N 	0.90540 0.42300 0.90880 -0.26700
N 	N 	0.69030 0.46160 0.10810 -0.24000
N 	N 	0.23800 0.25240 0.39140 -0.23100
N 	N 	0.87480 0.63070 0.87210 -0.22100
N 	N 	0.81070 0.36240 0.12150 -0.26000
N 	N 	0.72180 0.29540 0.92380 -0.20500
N 	N 	0.88010 0.13670 0.41580 -0.20500
N 	N 	0.16820 0.18580 0.40880 -0.26700
N 	N 	0.37160 0.37920 0.34680 -0.13400
N 	N 	0.93030 0.20160 0.60810 -0.24000
N 	N 	0.01610 0.06780 0.62150 -0.26100
N 	N 	0.87600 0.19910 0.34830 -0.12200
N 	N 	0.95260 0.77570 0.84830 -0.12200
N 	N 	0.28080 0.35440 0.42380 -0.20500
N 	N 	0.82510 0.55560 0.88890 -0.25200
N 	N 	0.77400 0.28160 0.84680 -0.13400
N 	N 	0.85620 0.37060 0.89140 -0.23100
N 	N 	0.94750 0.70410 0.91580 -0.20500
N 	N 	0.99720 0.25310 0.37210 -0.22000
N 	N 	0.05550 0.28600 0.38890 -0.25300
O 	O 	0.95630 0.11660 0.48530 -0.43100
O 	O 	0.72100 0.35670 0.01270 -0.43500
O 	O 	0.89810 0.55840 0.98530 -0.43100
O 	O 	0.13060 0.26630 0.51270 -0.43300
