data_crystal

_cell_length_a 19.34800
_cell_length_b 19.82210
_cell_length_c 21.11040
_cell_angle_alpha 90.00000
_cell_angle_beta  90.00000
_cell_angle_gamma 90.00000

_symmetry_space_group_name_	'P 1'
_symmetry_space_group_name_H-M	'P 1'

loop_
_symmetry_equiv_pos_as_xyz
  x,y,z

loop_
_atom_site_label
_atom_site_type_symbol
_atom_site_fract_x
_atom_site_fract_y
_atom_site_fract_z
_atom_site_charge
Cu	Cu	0.48309 0.01328 0.94089 0.89600
Cu	Cu	0.40098 0.89012 0.75000 0.83400
Cu	Cu	0.44386 0.56054 0.75000 0.90400
Cu	Cu	0.87708 0.39742 0.25000 0.84600
Cu	Cu	0.34130 0.65006 0.75000 0.89800
Cu	Cu	0.51691 0.98672 0.44089 0.89500
Cu	Cu	0.90098 0.60988 0.75000 0.83300
Cu	Cu	0.05614 0.06054 0.25000 0.90400
Cu	Cu	0.62292 0.89742 0.75000 0.84600
Cu	Cu	0.48309 0.01328 0.55911 0.89500
Cu	Cu	0.51691 0.98672 0.05911 0.89500
Cu	Cu	0.98309 0.48672 0.94089 0.89500
Cu	Cu	0.09902 0.39012 0.25000 0.83300
Cu	Cu	0.01691 0.51328 0.05911 0.89500
Cu	Cu	0.94386 0.93946 0.75000 0.90400
Cu	Cu	0.65870 0.34994 0.25000 0.89800
Cu	Cu	0.37708 0.10258 0.25000 0.84600
Cu	Cu	0.01691 0.51328 0.44089 0.89500
Cu	Cu	0.55614 0.43946 0.25000 0.90400
Cu	Cu	0.84130 0.84994 0.75000 0.89800
Cu	Cu	0.98309 0.48672 0.55911 0.89500
Cu	Cu	0.12292 0.60258 0.75000 0.84600
Cu	Cu	0.59902 0.10988 0.25000 0.83300
Cu	Cu	0.15870 0.15006 0.25000 0.89800
H 	H 	0.57030 0.78130 0.46780 0.08800
H 	H 	0.07030 0.71870 0.46780 0.08800
H 	H 	0.45650 0.37430 0.41340 0.08900
H 	H 	0.27390 0.92090 0.96770 0.08900
H 	H 	0.22610 0.42090 0.46770 0.09000
H 	H 	0.77390 0.57910 0.53230 0.09000
H 	H 	0.27390 0.92090 0.53230 0.08900
H 	H 	0.22610 0.42090 0.03230 0.09100
H 	H 	0.04350 0.87430 0.91340 0.08900
H 	H 	0.77390 0.57910 0.96770 0.09100
H 	H 	0.92970 0.28130 0.53220 0.08800
H 	H 	0.54350 0.62570 0.91340 0.08900
H 	H 	0.61770 0.55730 0.09100 0.09300
H 	H 	0.95650 0.12570 0.08660 0.08900
H 	H 	0.61770 0.55730 0.40900 0.09300
H 	H 	0.11770 0.94270 0.09100 0.09200
H 	H 	0.04350 0.87430 0.58660 0.08900
H 	H 	0.45650 0.37430 0.08660 0.08900
H 	H 	0.07030 0.71870 0.03220 0.08900
H 	H 	0.57030 0.78130 0.03220 0.08800
H 	H 	0.95650 0.12570 0.41340 0.08900
H 	H 	0.88230 0.05730 0.90900 0.09200
H 	H 	0.88230 0.05730 0.59100 0.09200
H 	H 	0.42970 0.21870 0.96780 0.08800
H 	H 	0.72610 0.07910 0.46770 0.08900
H 	H 	0.38230 0.44270 0.59100 0.09300
H 	H 	0.11770 0.94270 0.40900 0.09200
H 	H 	0.54350 0.62570 0.58660 0.08900
H 	H 	0.42970 0.21870 0.53220 0.08800
H 	H 	0.38230 0.44270 0.90900 0.09300
H 	H 	0.72610 0.07910 0.03230 0.08900
H 	H 	0.92970 0.28130 0.96780 0.08900
C 	C 	0.56460 0.69760 0.97830 0.11000
C 	C 	0.29810 0.49870 0.61320 -0.02000
C 	C 	0.99320 0.30280 0.04070 -0.03000
C 	C 	0.95050 0.82790 0.83590 0.34700
C 	C 	0.66720 0.46360 0.16550 0.33900
C 	C 	0.83280 0.96360 0.83450 0.34100
C 	C 	0.97270 0.72560 0.90630 -0.03200
C 	C 	0.43540 0.30240 0.47830 0.11100
C 	C 	0.20270 0.48050 0.95780 -0.01700
C 	C 	0.29730 0.98050 0.04220 -0.02000
C 	C 	0.31680 0.06060 0.36910 0.33100
C 	C 	0.52730 0.22560 0.09370 -0.03200
C 	C 	0.72860 0.98860 0.90390 -0.03100
C 	C 	0.29810 0.49870 0.88680 -0.02000
C 	C 	0.12800 0.49030 0.52390 0.34500
C 	C 	0.70270 0.01950 0.54220 -0.01900
C 	C 	0.55040 0.76340 0.50420 -0.08400
C 	C 	0.66250 0.54700 0.07820 -0.09300
C 	C 	0.46690 0.33030 0.07460 -0.08900
C 	C 	0.95050 0.82790 0.66410 0.34700
C 	C 	0.01390 0.20720 0.39010 -0.02800
C 	C 	0.52730 0.22560 0.40630 -0.03200
C 	C 	0.51390 0.29280 0.39010 -0.02900
C 	C 	0.66720 0.46360 0.33450 0.33900
C 	C 	0.27140 0.01140 0.09610 -0.03100
C 	C 	0.37200 0.99030 0.02390 0.34500
C 	C 	0.05040 0.73660 0.50420 -0.08400
C 	C 	0.27140 0.01140 0.40390 -0.03100
C 	C 	0.50250 0.87650 0.52590 0.36000
C 	C 	0.16250 0.95300 0.07820 -0.09200
C 	C 	0.79730 0.51950 0.45780 -0.01800
C 	C 	0.00250 0.62350 0.52590 0.36000
C 	C 	0.02730 0.27440 0.09370 -0.03200
C 	C 	0.33280 0.53640 0.83450 0.33900
C 	C 	0.54950 0.32790 0.16410 0.34700
C 	C 	0.29730 0.98050 0.45780 -0.01900
C 	C 	0.99750 0.37650 0.47410 0.36000
C 	C 	0.05040 0.73660 0.99580 -0.08600
C 	C 	0.33750 0.45300 0.92180 -0.09300
C 	C 	0.47270 0.77440 0.59370 -0.03200
C 	C 	0.83750 0.04700 0.92180 -0.09200
C 	C 	0.25660 0.93850 0.49470 -0.09400
C 	C 	0.18320 0.56060 0.63090 0.33200
C 	C 	0.44960 0.23660 0.49580 -0.08400
C 	C 	0.02730 0.27440 0.40630 -0.03200
C 	C 	0.31020 0.42290 0.52470 0.11800
C 	C 	0.00250 0.62350 0.97410 0.35800
C 	C 	0.62800 0.00970 0.52390 0.34500
C 	C 	0.98610 0.79280 0.89010 -0.02700
C 	C 	0.16720 0.03640 0.16550 0.34100
C 	C 	0.83750 0.04700 0.57820 -0.09200
C 	C 	0.70190 0.50130 0.11320 -0.02000
C 	C 	0.68980 0.57710 0.47530 0.11800
C 	C 	0.00680 0.69720 0.95930 -0.03000
C 	C 	0.45050 0.67210 0.66410 0.34700
C 	C 	0.96690 0.16970 0.07460 -0.09200
C 	C 	0.45050 0.67210 0.83590 0.34700
C 	C 	0.70190 0.50130 0.38680 -0.02000
C 	C 	0.87200 0.50970 0.47610 0.34500
C 	C 	0.37200 0.99030 0.47610 0.34500
C 	C 	0.49750 0.12350 0.02590 0.36000
C 	C 	0.75660 0.56150 0.00530 -0.09700
C 	C 	0.53310 0.66970 0.57460 -0.08900
C 	C 	0.22860 0.51140 0.90390 -0.03300
C 	C 	0.06460 0.80240 0.97830 0.11100
C 	C 	0.94960 0.26340 0.00420 -0.08600
C 	C 	0.99750 0.37650 0.02590 0.35800
C 	C 	0.79810 0.00130 0.88680 -0.02200
C 	C 	0.18320 0.56060 0.86910 0.33200
C 	C 	0.07700 0.31680 0.13290 0.33300
C 	C 	0.49320 0.19720 0.45930 -0.03000
C 	C 	0.24340 0.43850 0.99470 -0.09700
C 	C 	0.33750 0.45300 0.57820 -0.09300
C 	C 	0.48610 0.70720 0.89010 -0.02900
C 	C 	0.07700 0.31680 0.36710 0.33300
C 	C 	0.20190 0.99870 0.11320 -0.02200
C 	C 	0.12800 0.49030 0.97610 0.34300
C 	C 	0.53310 0.66970 0.92540 -0.08900
C 	C 	0.24340 0.43850 0.50530 -0.09500
C 	C 	0.31680 0.06060 0.13090 0.33100
C 	C 	0.20190 0.99870 0.38680 -0.02200
C 	C 	0.49320 0.19720 0.04070 -0.03000
C 	C 	0.49750 0.12350 0.47410 0.36000
C 	C 	0.79810 0.00130 0.61320 -0.02200
C 	C 	0.06460 0.80240 0.52170 0.11100
C 	C 	0.74340 0.06150 0.99470 -0.09400
C 	C 	0.74340 0.06150 0.50530 -0.09400
C 	C 	0.50680 0.80280 0.95930 -0.03000
C 	C 	0.75660 0.56150 0.49470 -0.09500
C 	C 	0.50680 0.80280 0.54070 -0.03000
C 	C 	0.04950 0.17210 0.16410 0.34700
C 	C 	0.77140 0.48860 0.09610 -0.03300
C 	C 	0.99320 0.30280 0.45930 -0.03100
C 	C 	0.57700 0.18320 0.13290 0.33300
C 	C 	0.77140 0.48860 0.40390 -0.03300
C 	C 	0.68980 0.57710 0.02470 0.11900
C 	C 	0.03310 0.83030 0.57460 -0.09000
C 	C 	0.00680 0.69720 0.54070 -0.03100
C 	C 	0.81020 0.07710 0.52470 0.11800
C 	C 	0.04950 0.17210 0.33590 0.34700
C 	C 	0.93540 0.19760 0.47830 0.11100
C 	C 	0.22860 0.51140 0.59610 -0.03300
C 	C 	0.31020 0.42290 0.97530 0.11900
C 	C 	0.03310 0.83030 0.92540 -0.09200
C 	C 	0.18980 0.92290 0.02470 0.11800
C 	C 	0.92300 0.68320 0.86710 0.33300
C 	C 	0.96690 0.16970 0.42540 -0.09000
C 	C 	0.81680 0.43940 0.13090 0.33200
C 	C 	0.87200 0.50970 0.02390 0.34300
C 	C 	0.42300 0.81680 0.63290 0.33300
C 	C 	0.62800 0.00970 0.97610 0.34500
C 	C 	0.98610 0.79280 0.60990 -0.02800
C 	C 	0.51390 0.29280 0.10990 -0.02900
C 	C 	0.81680 0.43940 0.36910 0.33200
C 	C 	0.43540 0.30240 0.02170 0.11000
C 	C 	0.94960 0.26340 0.49580 -0.08400
C 	C 	0.25660 0.93850 0.00530 -0.09400
C 	C 	0.50250 0.87650 0.97410 0.36000
C 	C 	0.01390 0.20720 0.10990 -0.02700
C 	C 	0.81020 0.07710 0.97530 0.11800
C 	C 	0.44960 0.23660 0.00420 -0.08400
C 	C 	0.56460 0.69760 0.52170 0.11100
C 	C 	0.54950 0.32790 0.33590 0.34700
C 	C 	0.92300 0.68320 0.63290 0.33300
C 	C 	0.46690 0.33030 0.42540 -0.08900
C 	C 	0.48610 0.70720 0.60990 -0.02900
C 	C 	0.47270 0.77440 0.90630 -0.03200
C 	C 	0.18980 0.92290 0.47530 0.11800
C 	C 	0.68320 0.93940 0.86910 0.33100
C 	C 	0.83280 0.96360 0.66550 0.34100
C 	C 	0.97270 0.72560 0.59370 -0.03200
C 	C 	0.68320 0.93940 0.63090 0.33100
C 	C 	0.16250 0.95300 0.42180 -0.09200
C 	C 	0.42300 0.81680 0.86710 0.33300
C 	C 	0.79730 0.51950 0.04220 -0.01700
C 	C 	0.20270 0.48050 0.54220 -0.01800
C 	C 	0.16720 0.03640 0.33450 0.34100
C 	C 	0.93540 0.19760 0.02170 0.11100
C 	C 	0.55040 0.76340 0.99580 -0.08400
C 	C 	0.33280 0.53640 0.66550 0.33900
C 	C 	0.70270 0.01950 0.95780 -0.02000
C 	C 	0.57700 0.18320 0.36710 0.33300
C 	C 	0.72860 0.98860 0.59610 -0.03100
C 	C 	0.66250 0.54700 0.42180 -0.09300
N 	N 	0.85090 0.12040 0.01350 -0.09000
N 	N 	0.11040 0.84130 0.48270 -0.08600
N 	N 	0.11040 0.84130 0.01730 -0.08600
N 	N 	0.88960 0.15870 0.51730 -0.08600
N 	N 	0.61040 0.65870 0.01730 -0.08600
N 	N 	0.64910 0.62040 0.98650 -0.09000
N 	N 	0.38960 0.34130 0.98270 -0.08600
N 	N 	0.14910 0.87960 0.51350 -0.09000
N 	N 	0.85090 0.12040 0.48650 -0.09000
N 	N 	0.88960 0.15870 0.98270 -0.08600
N 	N 	0.14910 0.87960 0.98650 -0.09000
N 	N 	0.35090 0.37960 0.48650 -0.09000
N 	N 	0.64910 0.62040 0.51350 -0.09000
N 	N 	0.38960 0.34130 0.51730 -0.08600
N 	N 	0.61040 0.65870 0.48270 -0.08600
N 	N 	0.35090 0.37960 0.01350 -0.09000
O 	O 	0.39429 0.69606 0.68338 -0.39900
O 	O 	0.98371 0.39279 0.96991 -0.40700
O 	O 	0.10571 0.19606 0.31662 -0.39900
O 	O 	0.39429 0.69606 0.81662 -0.39900
O 	O 	0.48733 0.91531 0.92967 -0.41900
O 	O 	0.48026 0.62040 0.81582 -0.41200
O 	O 	0.58453 0.01850 0.93175 -0.39900
O 	O 	0.33451 0.11170 0.10215 -0.27300
O 	O 	0.51629 0.89279 0.03009 -0.40800
O 	O 	0.01974 0.12040 0.31582 -0.41100
O 	O 	0.48733 0.91531 0.57033 -0.41900
O 	O 	0.61080 0.48770 0.31401 -0.39200
O 	O 	0.83439 0.45597 0.18685 -0.38400
O 	O 	0.36502 0.83100 0.88940 -0.27300
O 	O 	0.89429 0.80394 0.68338 -0.39900
O 	O 	0.98733 0.58469 0.57033 -0.41900
O 	O 	0.11397 0.50320 0.46758 -0.40300
O 	O 	0.33439 0.04403 0.31315 -0.38300
O 	O 	0.33439 0.04403 0.18685 -0.38300
O 	O 	0.19469 0.09063 0.18374 -0.40400
O 	O 	0.63498 0.16900 0.11060 -0.27300
O 	O 	0.60571 0.30394 0.18338 -0.39900
O 	O 	0.01974 0.12040 0.18418 -0.41100
O 	O 	0.88603 0.49680 0.53242 -0.40300
O 	O 	0.16549 0.61170 0.60215 -0.27400
O 	O 	0.61397 0.99680 0.46758 -0.40200
O 	O 	0.98733 0.58469 0.92967 -0.41800
O 	O 	0.05333 0.33566 0.18631 -0.41600
O 	O 	0.55333 0.16434 0.18631 -0.41600
O 	O 	0.83451 0.38830 0.39785 -0.27400
O 	O 	0.80531 0.90937 0.68374 -0.40400
O 	O 	0.30531 0.59063 0.81626 -0.40400
O 	O 	0.63498 0.16900 0.38940 -0.27300
O 	O 	0.94667 0.66434 0.68631 -0.41600
O 	O 	0.61397 0.99680 0.03242 -0.40300
O 	O 	0.44667 0.83566 0.81369 -0.41600
O 	O 	0.94667 0.66434 0.81369 -0.41600
O 	O 	0.01629 0.60721 0.03009 -0.40700
O 	O 	0.86502 0.66900 0.88940 -0.27300
O 	O 	0.69469 0.40937 0.31626 -0.40400
O 	O 	0.44667 0.83566 0.68631 -0.41600
O 	O 	0.51267 0.08469 0.42967 -0.41900
O 	O 	0.86502 0.66900 0.61060 -0.27300
O 	O 	0.30531 0.59063 0.68374 -0.40400
O 	O 	0.98026 0.87960 0.81582 -0.41100
O 	O 	0.98026 0.87960 0.68418 -0.41100
O 	O 	0.51974 0.37960 0.31582 -0.41200
O 	O 	0.38920 0.51230 0.68599 -0.39200
O 	O 	0.51267 0.08469 0.07033 -0.41900
O 	O 	0.83451 0.38830 0.10215 -0.27400
O 	O 	0.48371 0.10721 0.53009 -0.40800
O 	O 	0.08453 0.48150 0.56825 -0.39800
O 	O 	0.38603 0.00320 0.53242 -0.40200
O 	O 	0.88920 0.98770 0.68599 -0.39200
O 	O 	0.91547 0.51850 0.06825 -0.39900
O 	O 	0.16561 0.54403 0.68685 -0.38300
O 	O 	0.66561 0.95597 0.68685 -0.38300
O 	O 	0.60571 0.30394 0.31662 -0.39900
O 	O 	0.05333 0.33566 0.31369 -0.41600
O 	O 	0.38603 0.00320 0.96758 -0.40300
O 	O 	0.16561 0.54403 0.81315 -0.38400
O 	O 	0.89429 0.80394 0.81662 -0.39900
O 	O 	0.58453 0.01850 0.56825 -0.39800
O 	O 	0.41547 0.98150 0.06825 -0.39900
O 	O 	0.80531 0.90937 0.81626 -0.40400
O 	O 	0.55333 0.16434 0.31369 -0.41600
O 	O 	0.88920 0.98770 0.81401 -0.39200
O 	O 	0.36502 0.83100 0.61060 -0.27300
O 	O 	0.66561 0.95597 0.81315 -0.38300
O 	O 	0.01267 0.41531 0.42967 -0.41900
O 	O 	0.08453 0.48150 0.93175 -0.39900
O 	O 	0.91547 0.51850 0.43175 -0.39800
O 	O 	0.88603 0.49680 0.96758 -0.40200
O 	O 	0.13498 0.33100 0.38940 -0.27300
O 	O 	0.19469 0.09063 0.31626 -0.40400
O 	O 	0.10571 0.19606 0.18338 -0.39900
O 	O 	0.66549 0.88830 0.60215 -0.27300
O 	O 	0.16549 0.61170 0.89785 -0.27400
O 	O 	0.83439 0.45597 0.31315 -0.38300
O 	O 	0.13498 0.33100 0.11060 -0.27300
O 	O 	0.98371 0.39279 0.53009 -0.40800
O 	O 	0.38920 0.51230 0.81401 -0.39200
O 	O 	0.51629 0.89279 0.46991 -0.40800
O 	O 	0.48371 0.10721 0.96991 -0.40800
O 	O 	0.01267 0.41531 0.07033 -0.41800
O 	O 	0.11080 0.01230 0.31401 -0.39200
O 	O 	0.48026 0.62040 0.68418 -0.41200
O 	O 	0.33451 0.11170 0.39785 -0.27300
O 	O 	0.51974 0.37960 0.18418 -0.41200
O 	O 	0.69469 0.40937 0.18374 -0.40400
O 	O 	0.11397 0.50320 0.03242 -0.40200
O 	O 	0.41547 0.98150 0.43175 -0.39800
O 	O 	0.61080 0.48770 0.18599 -0.39200
O 	O 	0.11080 0.01230 0.18599 -0.39200
O 	O 	0.01629 0.60721 0.46991 -0.40800
O 	O 	0.66549 0.88830 0.89785 -0.27300
