data_crystal

_cell_length_a 14.66930
_cell_length_b 14.66930
_cell_length_c 14.66930
_cell_angle_alpha 109.47100
_cell_angle_beta  109.47100
_cell_angle_gamma 109.47100

_symmetry_space_group_name_	'P 1'
_symmetry_space_group_name_H-M	'P 1'

loop_
_symmetry_equiv_pos_as_xyz
  x,y,z

loop_
_atom_site_label
_atom_site_type_symbol
_atom_site_fract_x
_atom_site_fract_y
_atom_site_fract_z
_atom_site_charge
Zn	Zn	0.75000 0.50000 0.25000 1.17500
Zn	Zn	0.25000 0.50000 0.75000 1.17500
Zn	Zn	0.75000 0.25000 0.50000 1.17500
Zn	Zn	0.25000 0.75000 0.50000 1.17500
Zn	Zn	0.50000 0.25000 0.75000 1.17500
Zn	Zn	0.50000 0.75000 0.25000 1.17500
H 	H 	0.12525 0.65806 0.23926 0.00000
H 	H 	0.58120 0.46719 0.34194 -0.00200
H 	H 	-0.00000 0.36545 0.47283 0.09300
H 	H 	0.24170 0.44932 0.93075 0.07800
H 	H 	0.36545 0.47284 -0.00000 0.09200
H 	H 	0.46719 0.58120 0.34194 -0.00300
H 	H 	0.68905 0.20761 0.75830 0.08600
H 	H 	0.75830 0.68905 0.20761 0.08600
H 	H 	0.79238 0.48143 0.55068 0.08400
H 	H 	0.46719 0.34194 0.58120 -0.00300
H 	H 	0.51856 0.31094 0.06925 0.08500
H 	H 	0.88599 0.76074 0.41880 -0.00200
H 	H 	0.11401 0.53281 0.87475 -0.00800
H 	H 	0.68905 0.75830 0.20761 0.08600
H 	H 	0.48144 0.55069 0.79239 0.08400
H 	H 	0.12525 0.23926 0.65806 -0.00100
H 	H 	0.44931 0.93075 0.24169 0.07800
H 	H 	0.52717 0.89262 0.52717 0.08800
H 	H 	0.79238 0.55068 0.48143 0.08400
H 	H 	0.41880 0.88599 0.76074 -0.00200
H 	H 	0.47283 0.36544 -0.00000 0.09200
H 	H 	0.76074 0.88599 0.41880 -0.00200
H 	H 	0.93075 0.24170 0.44931 0.07800
H 	H 	0.31095 0.06925 0.51857 0.08500
H 	H 	0.88599 0.41880 0.76074 -0.00200
H 	H 	0.63455 0.10738 0.63455 0.09300
H 	H 	0.06925 0.31095 0.51856 0.08500
H 	H 	0.48144 0.79239 0.55069 0.08400
H 	H 	0.52717 0.52717 0.89262 0.08800
H 	H 	0.47283 0.00000 0.36544 0.09200
H 	H 	0.65806 0.23926 0.12525 -0.00100
H 	H 	0.55069 0.79239 0.48144 0.08400
H 	H 	0.55069 0.48144 0.79239 0.08400
H 	H 	0.23926 0.65806 0.12525 -0.00100
H 	H 	0.63455 0.63455 0.10738 0.09300
H 	H 	0.24170 0.93075 0.44932 0.07800
H 	H 	0.11401 0.87475 0.53281 -0.00800
H 	H 	0.34194 0.46719 0.58120 -0.00300
H 	H 	0.75830 0.20761 0.68905 0.08600
H 	H 	0.20762 0.68906 0.75831 0.08600
H 	H 	-0.00000 0.47283 0.36545 0.09200
H 	H 	0.53281 0.87475 0.11401 -0.00800
H 	H 	0.23926 0.12525 0.65806 -0.00100
H 	H 	0.10739 0.63456 0.63456 0.09300
H 	H 	0.36545 0.00000 0.47284 0.09200
H 	H 	0.41880 0.76074 0.88599 -0.00200
H 	H 	0.89261 0.52716 0.52716 0.08800
H 	H 	0.87475 0.11401 0.53281 -0.00800
H 	H 	0.87475 0.53281 0.11401 -0.00800
H 	H 	0.31095 0.51857 0.06925 0.08500
H 	H 	0.76074 0.41880 0.88599 -0.00200
H 	H 	0.20762 0.75831 0.68906 0.08600
H 	H 	0.58120 0.34194 0.46719 -0.00300
H 	H 	0.65806 0.12525 0.23926 -0.00100
H 	H 	0.93075 0.44931 0.24170 0.07800
H 	H 	0.44931 0.24169 0.93075 0.07800
H 	H 	0.34194 0.58120 0.46719 -0.00300
H 	H 	0.06925 0.51856 0.31095 0.08500
H 	H 	0.51856 0.06925 0.31094 0.08500
H 	H 	0.53281 0.11401 0.87475 -0.00800
C 	C 	0.05679 0.47682 0.79129 0.00200
C 	C 	0.48918 0.48918 0.80690 -0.38300
C 	C 	0.62976 0.24708 0.62976 0.16200
C 	C 	0.94321 0.42003 0.73450 -0.02500
C 	C 	0.37024 0.61732 -0.00000 0.16700
C 	C 	0.31447 0.52318 0.57997 -0.01100
C 	C 	0.57997 0.52318 0.31447 -0.01100
C 	C 	0.68228 0.19310 0.68228 -0.38700
C 	C 	0.62976 0.62976 0.24708 0.16200
C 	C 	-0.00000 0.31772 0.51082 -0.37200
C 	C 	0.37024 0.00000 0.61732 0.16700
C 	C 	0.48918 0.80690 0.48918 -0.38300
C 	C 	0.57997 0.31447 0.52318 -0.01100
C 	C 	-0.00000 0.51082 0.31772 -0.37200
C 	C 	0.68553 0.20871 0.26550 -0.01000
C 	C 	0.94321 0.73450 0.42003 -0.02500
C 	C 	0.61732 0.00000 0.37024 0.16700
C 	C 	-0.00000 0.37024 0.61732 0.16700
C 	C 	0.52318 0.31447 0.57997 -0.01100
C 	C 	0.31772 0.51082 -0.00000 -0.37200
C 	C 	0.38268 0.38268 0.75292 0.16000
C 	C 	0.68553 0.26550 0.20871 -0.01000
C 	C 	0.61732 0.37024 -0.00000 0.16700
C 	C 	0.47682 0.05679 0.79129 0.00200
C 	C 	0.47682 0.79129 0.05679 0.00200
C 	C 	0.73450 0.42003 0.94321 -0.02500
C 	C 	0.79129 0.05679 0.47682 0.00200
C 	C 	0.51082 -0.00000 0.31772 -0.37200
C 	C 	0.73450 0.94321 0.42003 -0.02500
C 	C 	0.68228 0.68228 0.19310 -0.38700
C 	C 	0.24708 0.62976 0.62976 0.16200
C 	C 	0.51082 0.31772 -0.00000 -0.37200
C 	C 	0.80690 0.48918 0.48918 -0.38300
C 	C 	0.79129 0.47682 0.05679 0.00200
C 	C 	0.26550 0.20871 0.68553 -0.01000
C 	C 	0.20871 0.26550 0.68553 -0.01000
C 	C 	0.42003 0.73450 0.94321 -0.02500
C 	C 	0.31772 0.00000 0.51082 -0.37200
C 	C 	0.26550 0.68553 0.20871 -0.01000
C 	C 	0.19310 0.68228 0.68228 -0.38700
C 	C 	0.42003 0.94321 0.73450 -0.02500
C 	C 	0.05679 0.79129 0.47682 0.00200
C 	C 	0.52318 0.57997 0.31447 -0.01100
C 	C 	0.75292 0.38268 0.38268 0.16000
C 	C 	0.38268 0.75292 0.38268 0.16000
C 	C 	0.20871 0.68553 0.26550 -0.01000
C 	C 	0.00000 0.61732 0.37024 0.16700
C 	C 	0.31447 0.57997 0.52318 -0.01100
N 	N 	0.27197 0.55523 0.64796 -0.30000
N 	N 	0.09273 0.44477 0.71674 -0.30200
N 	N 	0.72803 0.28326 0.37599 -0.30000
N 	N 	0.71674 0.44477 0.09273 -0.30200
N 	N 	0.55523 0.27197 0.64796 -0.30000
N 	N 	0.55523 0.64796 0.27197 -0.30000
N 	N 	0.35204 0.62401 0.90727 -0.30200
N 	N 	0.64796 0.55523 0.27197 -0.30000
N 	N 	0.72803 0.37599 0.28326 -0.30000
N 	N 	0.44477 0.71674 0.09273 -0.30200
N 	N 	0.62401 0.90727 0.35204 -0.30200
N 	N 	0.37599 0.28326 0.72803 -0.30000
N 	N 	0.27197 0.64796 0.55523 -0.30000
N 	N 	0.90727 0.35204 0.62401 -0.30200
N 	N 	0.28326 0.37599 0.72803 -0.30000
N 	N 	0.09273 0.71674 0.44477 -0.30200
N 	N 	0.35204 0.90727 0.62401 -0.30200
N 	N 	0.44477 0.09273 0.71674 -0.30200
N 	N 	0.71674 0.09273 0.44477 -0.30200
N 	N 	0.90727 0.62401 0.35204 -0.30200
N 	N 	0.37599 0.72803 0.28326 -0.30000
N 	N 	0.62401 0.35204 0.90727 -0.30200
N 	N 	0.28326 0.72803 0.37599 -0.30000
N 	N 	0.64796 0.27197 0.55523 -0.30000
