data_crystal

_cell_length_a 10.34900
_cell_length_b 26.08400
_cell_length_c 32.28400
_cell_angle_alpha 90.00000
_cell_angle_beta  90.00000
_cell_angle_gamma 90.00000

_symmetry_space_group_name_	'P 1'
_symmetry_space_group_name_H-M	'P 1'

loop_
_symmetry_equiv_pos_as_xyz
  x,y,z

loop_
_atom_site_label
_atom_site_type_symbol
_atom_site_fract_x
_atom_site_fract_y
_atom_site_fract_z
_atom_site_charge
Zn	Zn	0.50000 0.84636 0.12435 1.22400
Zn	Zn	0.50000 0.15364 0.87565 1.22400
Zn	Zn	0.49971 0.78979 0.03478 1.22100
Zn	Zn	-0.00000 0.34636 0.37565 1.22000
Zn	Zn	0.00000 0.65364 0.62435 1.21500
Zn	Zn	0.84710 0.75327 0.61323 1.22500
Zn	Zn	0.99971 0.28979 0.46522 1.22700
Zn	Zn	0.84609 0.24680 0.38678 1.20500
Zn	Zn	0.34609 0.74680 0.11322 1.20200
Zn	Zn	0.65391 0.25320 0.88678 1.20300
Zn	Zn	0.34710 0.25327 0.88677 1.22300
Zn	Zn	0.15391 0.75320 0.61322 1.20000
Zn	Zn	0.15290 0.24673 0.38677 1.22300
Zn	Zn	0.00029 0.71021 0.53478 1.21300
Zn	Zn	0.65290 0.74673 0.11323 1.22400
Zn	Zn	0.50029 0.21021 0.96522 1.22100
H 	H 	0.67360 0.40180 0.82040 0.01500
H 	H 	0.04270 0.69080 0.75840 0.01500
H 	H 	0.30810 0.42850 0.30590 0.07800
H 	H 	0.56980 0.25780 0.61610 0.14400
H 	H 	0.79010 0.88790 0.65990 0.02800
H 	H 	0.50140 0.76000 0.55440 0.05800
H 	H 	0.32210 0.11700 0.08590 0.05400
H 	H 	0.92420 0.98390 0.23220 0.13100
H 	H 	0.70990 0.61210 0.15990 0.03100
H 	H 	0.18850 0.48420 0.62520 0.11500
H 	H 	0.31150 0.01580 0.12520 0.03600
H 	H 	0.86540 0.03400 0.27180 0.05600
H 	H 	0.69190 0.57150 0.69410 0.08300
H 	H 	0.49860 0.24000 0.44560 0.05800
H 	H 	0.80640 0.25040 0.05390 0.06900
H 	H 	0.30540 0.25550 0.55320 0.09800
H 	H 	0.74890 0.54780 0.20850 0.08600
H 	H 	0.95730 0.30920 0.24160 0.06100
H 	H 	0.06980 0.75780 0.88390 0.14300
H 	H 	0.46350 0.79140 0.32910 0.06200
H 	H 	0.00140 0.26000 0.94560 0.05800
H 	H 	0.32640 0.59820 0.17960 0.01000
H 	H 	0.45730 0.80920 0.25840 0.04000
H 	H 	0.67790 0.88300 0.91410 0.05000
H 	H 	0.93020 0.24220 0.11610 0.14200
H 	H 	0.54270 0.19080 0.74160 0.04100
H 	H 	0.30650 0.57180 0.69490 0.10100
H 	H 	0.81930 0.81460 0.73600 0.03700
H 	H 	0.81320 0.83240 0.80670 0.07400
H 	H 	0.19350 0.92820 0.19490 0.11900
H 	H 	0.11590 0.53710 0.58680 0.00000
H 	H 	0.24890 0.04780 0.29150 0.08000
H 	H 	0.53650 0.20860 0.67090 0.06300
H 	H 	0.00040 0.82870 0.12020 0.06200
H 	H 	0.68070 0.68540 0.23600 0.04300
H 	H 	0.88410 0.46290 0.41320 0.17300
H 	H 	0.17790 0.38300 0.58590 -0.03000
H 	H 	0.80810 0.92850 0.19410 0.09500
H 	H 	0.80540 0.75550 0.94680 0.10500
H 	H 	0.69360 0.24960 0.55390 0.07800
H 	H 	0.49960 0.67130 0.62020 0.05300
H 	H 	0.31930 0.31460 0.76400 0.04100
H 	H 	0.29010 0.38790 0.84010 0.02800
H 	H 	0.99860 0.74000 0.05440 0.05800
H 	H 	0.38410 0.96290 0.08680 0.08900
H 	H 	0.10930 0.38960 0.53650 0.17500
H 	H 	0.36540 0.53400 0.22820 0.06100
H 	H 	0.43020 0.74220 0.38390 0.14100
H 	H 	0.82640 0.09820 0.32040 0.01300
H 	H 	0.99960 0.17130 0.87980 0.04300
H 	H 	0.17360 0.90180 0.67960 0.01300
H 	H 	0.96350 0.29140 0.17090 0.07900
H 	H 	0.31320 0.33240 0.69330 0.07200
H 	H 	0.25110 0.45220 0.79150 0.08100
H 	H 	0.80650 0.07180 0.80510 0.08500
H 	H 	0.07580 0.01610 0.76780 0.09700
H 	H 	0.39070 0.11040 0.03650 0.09000
H 	H 	0.57580 0.51610 0.73220 0.11600
H 	H 	0.89070 0.61040 0.46350 0.01000
H 	H 	0.63460 0.46600 0.77180 0.06400
H 	H 	0.13460 0.96600 0.72820 0.07000
H 	H 	0.81150 0.51580 0.37480 -0.03700
H 	H 	0.42420 0.48390 0.26780 0.11400
H 	H 	0.75110 0.95220 0.70850 0.08700
H 	H 	0.19190 0.07150 0.80590 0.06500
H 	H 	0.18070 0.18540 0.26400 0.04600
H 	H 	0.19460 0.24450 0.05320 0.09400
H 	H 	0.61590 0.03710 0.91320 0.08500
H 	H 	0.68680 0.66760 0.30670 0.07400
H 	H 	0.68850 0.98420 0.87480 0.04300
H 	H 	0.60930 0.88960 0.96350 0.09500
H 	H 	0.69350 0.42820 0.30510 0.10400
H 	H 	0.18680 0.16760 0.19330 0.07100
H 	H 	0.50040 0.32870 0.37980 0.05300
H 	H 	0.69460 0.74450 0.44680 0.10100
H 	H 	0.20990 0.11210 0.34010 0.03100
H 	H 	0.82210 0.61700 0.41410 0.13400
H 	H 	0.19360 0.74960 0.94610 0.08300
H 	H 	0.03650 0.70860 0.82910 0.04400
H 	H 	0.30640 0.75040 0.44610 0.07300
C 	C 	0.48560 0.38870 0.83490 -0.19100
C 	C 	0.91620 0.77660 0.86900 0.19100
C 	C 	0.49300 0.34670 0.86320 0.49700
C 	C 	0.42420 0.27220 0.67530 -0.00000
C 	C 	0.88340 0.74660 0.00310 -0.03600
C 	C 	0.50700 0.65330 0.13680 0.49700
C 	C 	0.88420 0.08680 0.81410 -0.02900
C 	C 	0.56510 0.45030 0.78560 -0.09900
C 	C 	0.49990 0.24340 0.47460 -0.00800
C 	C 	0.88160 0.86880 0.16060 -0.03100
C 	C 	0.84340 0.58160 0.41880 -0.24900
C 	C 	0.38390 0.25160 0.53890 -0.09700
C 	C 	0.83630 0.94200 0.70270 -0.10800
C 	C 	0.55890 0.76030 0.19860 0.40200
C 	C 	0.49780 0.04610 0.98230 -0.13700
C 	C 	0.11370 0.50230 0.57890 0.14500
C 	C 	0.05450 0.45590 0.52120 0.31900
C 	C 	0.88780 0.57630 0.45510 0.15500
C 	C 	0.08840 0.91200 0.68540 0.06600
C 	C 	0.43490 0.54970 0.21440 -0.10200
C 	C 	0.26310 0.34940 0.35770 0.40000
C 	C 	0.55450 0.95590 0.97880 0.09000
C 	C 	0.56840 0.74900 0.24040 -0.13600
C 	C 	0.38420 0.58680 0.68590 -0.08800
C 	C 	0.23560 0.74770 0.02880 0.35500
C 	C 	0.00060 0.85140 0.14280 -0.03600
C 	C 	0.23690 0.15060 0.85770 0.41400
C 	C 	0.50010 0.75660 0.52540 -0.00800
C 	C 	0.00220 0.45390 0.48230 -0.34300
C 	C 	0.00160 0.06670 0.80220 0.07600
C 	C 	0.43160 0.25100 0.75960 -0.13700
C 	C 	0.91160 0.08800 0.31460 0.08600
C 	C 	0.45700 0.99490 0.04030 0.06200
C 	C 	0.61370 0.00230 0.92110 -0.09200
C 	C 	0.99970 0.40080 0.46000 0.51800
C 	C 	0.36310 0.29320 0.74520 0.04100
C 	C 	0.41160 0.58800 0.18540 0.07800
C 	C 	0.11840 0.13120 0.83940 -0.11700
C 	C 	0.50160 0.56670 0.69780 0.14200
C 	C 	0.50360 0.78060 0.26810 0.03900
C 	C 	0.06840 0.24900 0.25960 -0.11500
C 	C 	0.49270 0.23000 0.68970 -0.08200
C 	C 	0.61590 0.24870 0.53880 -0.08500
C 	C 	0.26440 0.75230 0.52880 0.35500
C 	C 	0.11660 0.25340 0.99690 -0.04500
C 	C 	0.76360 0.15000 0.85920 0.39900
C 	C 	0.33630 0.44200 0.79730 -0.09600
C 	C 	0.35950 0.30380 0.70310 -0.07600
C 	C 	0.00030 0.59920 0.54000 0.32500
C 	C 	0.93490 0.04970 0.28560 -0.07500
C 	C 	0.34610 0.03120 0.10060 0.01800
C 	C 	0.99640 0.71940 0.76810 0.07900
C 	C 	0.35960 0.40370 0.82630 0.07200
C 	C 	0.25900 0.24720 0.47220 0.34900
C 	C 	0.56090 0.53470 0.22300 0.00900
C 	C 	0.94550 0.54410 0.47880 -0.15000
C 	C 	0.26360 0.65000 0.64080 0.38700
C 	C 	0.06510 0.95030 0.71440 -0.13000
C 	C 	0.38340 0.24660 0.49690 -0.04200
C 	C 	0.50030 0.09920 0.96000 0.42300
C 	C 	0.00010 0.25660 0.97460 -0.02400
C 	C 	0.50220 0.74910 0.43970 0.13500
C 	C 	0.11220 0.42370 0.54490 -0.37800
C 	C 	0.15390 0.46880 0.60060 -0.23700
C 	C 	0.75900 0.74720 0.02780 0.34700
C 	C 	0.38580 0.41300 0.31430 -0.09300
C 	C 	0.11610 0.24840 0.03890 -0.08500
C 	C 	0.99990 0.74340 0.02540 0.00700
C 	C 	0.24100 0.25280 0.97220 0.34800
C 	C 	0.59140 0.49410 0.24950 0.17500
C 	C 	0.90860 0.00590 0.74950 0.16400
C 	C 	0.73640 0.35000 0.35920 0.38500
C 	C 	0.74100 0.75280 0.52780 0.34700
C 	C 	0.50060 0.35140 0.35720 0.00900
C 	C 	0.93910 0.96530 0.72300 0.04000
C 	C 	0.61420 0.58700 0.68570 -0.09500
C 	C 	0.61730 0.36900 0.34030 -0.07200
C 	C 	0.76440 0.25230 0.97120 0.35400
C 	C 	0.07580 0.22780 0.17530 0.00500
C 	C 	0.12040 0.74530 0.00380 -0.06800
C 	C 	0.13690 0.20680 0.24520 0.02900
C 	C 	0.86310 0.79320 0.75480 0.05700
C 	C 	0.09140 0.99410 0.25050 0.18500
C 	C 	0.37960 0.75470 0.50380 -0.06200
C 	C 	0.11590 0.74870 0.96120 -0.11400
C 	C 	0.92420 0.77220 0.82470 -0.00600
C 	C 	0.88390 0.75160 0.96110 -0.11200
C 	C 	0.51440 0.61130 0.16510 -0.19300
C 	C 	0.62040 0.24530 0.49620 -0.05900
C 	C 	0.43910 0.46530 0.77700 0.00700
C 	C 	0.11730 0.86900 0.15970 -0.04500
C 	C 	0.38270 0.63100 0.65970 -0.07300
C 	C 	0.64040 0.59630 0.17370 0.07400
C 	C 	0.49940 0.64860 0.64280 0.00800
C 	C 	0.23640 0.85000 0.14080 0.37400
C 	C 	0.34340 0.08160 0.08120 -0.02000
C 	C 	0.57580 0.72780 0.32470 -0.00000
C 	C 	0.99780 0.54610 0.51770 0.06400
C 	C 	0.85950 0.80380 0.79690 -0.07900
C 	C 	0.14050 0.19620 0.20310 -0.07400
C 	C 	0.99780 0.75090 0.93970 0.17300
C 	C 	0.61220 0.92370 0.95510 -0.11800
C 	C 	0.00220 0.24910 0.06030 0.10200
C 	C 	0.84610 0.53120 0.39940 0.25500
C 	C 	0.61840 0.63120 0.66060 -0.07100
C 	C 	0.44550 0.04410 0.02120 0.07900
C 	C 	0.93160 0.75100 0.74040 -0.16400
C 	C 	0.00700 0.15330 0.36320 0.48000
C 	C 	0.40860 0.50590 0.75050 0.17600
C 	C 	0.08380 0.22340 0.13100 0.15500
C 	C 	0.11420 0.08700 0.81430 -0.04900
C 	C 	0.05890 0.26030 0.30140 0.36400
C 	C 	0.38630 0.99770 0.07890 -0.10900
C 	C 	0.88580 0.91300 0.18570 -0.13500
C 	C 	0.58380 0.72340 0.36900 0.17200
C 	C 	0.76310 0.84940 0.14230 0.38500
C 	C 	0.06090 0.03470 0.27700 -0.01900
C 	C 	0.50730 0.77000 0.31030 -0.08100
C 	C 	0.88410 0.25130 0.03880 -0.05800
C 	C 	0.73560 0.24770 0.47120 0.35500
C 	C 	0.49780 0.25090 0.56030 0.13600
C 	C 	0.04300 0.50510 0.54030 -0.16200
C 	C 	0.38780 0.07630 0.04490 -0.10500
C 	C 	0.15660 0.41840 0.58120 0.22500
C 	C 	0.98560 0.88870 0.66510 -0.18200
C 	C 	0.99940 0.14860 0.85720 0.05700
C 	C 	0.49640 0.21940 0.73190 0.04000
C 	C 	0.88630 0.49770 0.42110 -0.34500
C 	C 	0.49840 0.43330 0.30220 0.14100
C 	C 	0.94110 0.73970 0.69860 0.44900
C 	C 	0.64050 0.69620 0.29690 -0.07500
C 	C 	0.38410 0.75130 0.46120 -0.08400
C 	C 	0.61610 0.74840 0.46110 -0.09700
C 	C 	0.63690 0.70680 0.25480 0.04200
C 	C 	0.87960 0.25470 0.99620 -0.05200
C 	C 	0.00360 0.28060 0.23190 0.00800
C 	C 	0.66370 0.55800 0.20270 -0.09700
C 	C 	0.65390 0.96880 0.89940 0.00100
C 	C 	0.61660 0.75340 0.50310 -0.04000
C 	C 	0.95700 0.49490 0.45970 0.27500
C 	C 	0.01440 0.11130 0.33490 -0.20100
C 	C 	0.11580 0.91320 0.18590 -0.14000
C 	C 	0.54300 0.00510 0.95970 0.05300
C 	C 	0.00730 0.27000 0.18970 -0.09800
C 	C 	0.99840 0.93330 0.19780 0.20000
C 	C 	0.99270 0.73000 0.81030 -0.06300
C 	C 	0.14040 0.09630 0.32630 0.06800
C 	C 	0.61580 0.41320 0.31410 -0.08700
C 	C 	0.73690 0.65060 0.64230 0.39800
C 	C 	0.41620 0.27660 0.63100 0.17200
C 	C 	0.65660 0.91840 0.91880 -0.00500
C 	C 	0.58840 0.41200 0.81460 0.07700
C 	C 	0.44110 0.23970 0.80140 0.40300
C 	C 	0.50220 0.95390 0.01770 -0.14500
C 	C 	0.85960 0.90370 0.67370 0.07800
C 	C 	0.99300 0.84670 0.63680 0.51800
C 	C 	0.49970 0.90080 0.04000 0.42500
C 	C 	0.88270 0.13100 0.84030 -0.10300
C 	C 	0.16370 0.05800 0.29730 -0.08600
C 	C 	0.38160 0.36880 0.33940 -0.07400
N 	N 	0.99950 0.24490 0.10390 -0.22300
N 	N 	0.00050 0.75510 0.89610 -0.26600
N 	N 	0.50050 0.25510 0.60390 -0.24400
N 	N 	0.49950 0.74490 0.39610 -0.24300
N 	N 	0.99680 0.02840 0.77400 -0.18800
N 	N 	0.50320 0.47160 0.27400 -0.22100
N 	N 	0.49680 0.52840 0.72600 -0.22200
N 	N 	0.00320 0.97160 0.22600 -0.25200
O 	O 	0.23190 0.19050 0.87710 -0.50100
O 	O 	0.15880 0.73450 0.50930 -0.46600
O 	O 	0.00310 0.39920 0.42160 -0.53500
O 	O 	0.20830 0.97440 0.25120 -0.20700
O 	O 	0.25970 0.77040 0.56381 -0.47400
O 	O 	0.26870 0.69090 0.62190 -0.50900
O 	O 	0.26060 0.22970 0.43634 -0.46000
O 	O 	0.82060 0.80470 0.88360 -0.20600
O 	O 	0.70830 0.47440 0.24880 -0.19900
O 	O 	0.40040 0.32400 0.87270 -0.52200
O 	O 	0.65590 0.76490 0.00938 -0.47200
O 	O 	0.99980 0.36320 0.48310 -0.50800
O 	O 	0.24030 0.72960 0.06381 -0.47600
O 	O 	0.76060 0.72970 0.06366 -0.45700
O 	O 	0.99670 0.29120 0.31270 -0.45000
O 	O 	0.73940 0.77030 0.56366 -0.45600
O 	O 	0.99690 0.60080 0.57840 -0.43600
O 	O 	0.00040 0.28280 0.40671 -0.94500
O 	O 	0.34410 0.23510 0.99062 -0.47300
O 	O 	0.49690 0.10080 0.92160 -0.48800
O 	O 	0.99960 0.71720 0.59329 -0.91900
O 	O 	0.50040 0.78280 0.09329 -0.93500
O 	O 	0.84240 0.37200 0.35010 -0.45400
O 	O 	0.15620 0.37220 0.35040 -0.46600
O 	O 	0.84120 0.26550 0.49070 -0.45500
O 	O 	0.34380 0.12780 0.85040 -0.46600
O 	O 	0.34240 0.87200 0.14990 -0.45800
O 	O 	0.84260 0.76780 0.67980 -0.38700
O 	O 	0.10090 0.82690 0.62470 -0.51500
O 	O 	0.39910 0.67310 0.12470 -0.49700
O 	O 	0.76810 0.80950 0.12290 -0.48600
O 	O 	0.50020 0.13680 0.98310 -0.48900
O 	O 	0.74030 0.22960 0.43619 -0.47000
O 	O 	0.26810 0.30950 0.37710 -0.49400
O 	O 	0.65620 0.87220 0.14960 -0.45700
O 	O 	0.17940 0.19530 0.11640 -0.20100
O 	O 	0.50310 0.89920 0.07840 -0.48900
O 	O 	0.84410 0.73510 0.50938 -0.46400
O 	O 	0.34120 0.76550 0.00930 -0.46100
O 	O 	0.23940 0.27030 0.93634 -0.46000
O 	O 	0.59960 0.67600 0.12730 -0.52100
O 	O 	0.15590 0.26490 0.49062 -0.47900
O 	O 	0.23130 0.80910 0.12190 -0.50600
O 	O 	0.49960 0.21720 0.90671 -0.93500
O 	O 	0.00330 0.70880 0.68730 -0.51400
O 	O 	0.50330 0.20880 0.81270 -0.47900
O 	O 	0.90040 0.82400 0.62730 -0.52400
O 	O 	0.32060 0.30470 0.61640 -0.20300
O 	O 	0.29170 0.52560 0.75120 -0.20400
O 	O 	0.49670 0.79120 0.18730 -0.48000
O 	O 	0.00020 0.63680 0.51690 -0.47000
O 	O 	0.65740 0.73220 0.17980 -0.37900
O 	O 	0.34260 0.26780 0.82020 -0.38100
O 	O 	0.84380 0.62780 0.64960 -0.45300
O 	O 	0.79170 0.02560 0.74880 -0.19500
O 	O 	0.60090 0.32690 0.87530 -0.49400
O 	O 	0.73190 0.69050 0.62290 -0.49100
O 	O 	0.73130 0.30910 0.37810 -0.50400
O 	O 	0.67940 0.69530 0.38360 -0.20400
O 	O 	0.15760 0.62800 0.64990 -0.46400
O 	O 	0.89910 0.17310 0.37530 -0.48000
O 	O 	0.76870 0.19090 0.87810 -0.50700
O 	O 	0.65760 0.12800 0.85010 -0.46200
O 	O 	0.75970 0.27040 0.93619 -0.46800
O 	O 	0.65880 0.23450 0.99070 -0.45900
O 	O 	0.49980 0.86320 0.01690 -0.49000
O 	O 	0.15740 0.23220 0.32020 -0.37400
O 	O 	0.09960 0.17600 0.37270 -0.52000
