data_crystal

_cell_length_a 11.31270
_cell_length_b 14.68700
_cell_length_c 14.76600
_cell_angle_alpha 85.88100
_cell_angle_beta  79.81100
_cell_angle_gamma 70.30000

_symmetry_space_group_name_	'P 1'
_symmetry_space_group_name_H-M	'P 1'

loop_
_symmetry_equiv_pos_as_xyz
  x,y,z

loop_
_atom_site_label
_atom_site_type_symbol
_atom_site_fract_x
_atom_site_fract_y
_atom_site_fract_z
_atom_site_charge
Pt	Pt	0.25720 0.75276 0.50498 0.29400
Pt	Pt	0.33002 0.75755 0.00565 0.30300
Se	Se	0.08101 0.63685 0.09421 -0.01200
Se	Se	0.99917 0.37894 0.39289 -0.00500
Fe	Fe	0.54180 0.50671 0.25200 1.11800
Fe	Fe	0.10576 0.02126 0.25236 1.06100
N 	N 	0.70940 0.55390 0.19920 -0.23600
N 	N 	0.94930 0.86740 0.85950 -0.24600
N 	N 	0.37520 0.45720 0.30210 -0.23300
N 	N 	0.07140 0.17120 0.64920 -0.14800
N 	N 	0.46370 0.61560 0.35810 -0.22500
N 	N 	0.35280 0.59380 0.65420 -0.23000
N 	N 	0.04020 0.88350 0.65080 -0.24400
N 	N 	0.16680 0.91560 0.35750 -0.24500
N 	N 	0.24040 0.92290 0.15120 -0.24100
N 	N 	0.23380 0.91810 0.85790 -0.12000
N 	N 	0.39920 0.59920 0.85400 -0.22800
N 	N 	0.43740 0.60640 0.15750 -0.22600
C 	C 	0.74150 0.57080 0.10920 0.06500
H 	H 	0.68960 0.56520 0.06810 -0.01300
C 	C 	0.84940 0.59660 0.07430 -0.13600
H 	H 	0.86980 0.60730 0.01080 0.07200
C 	C 	0.92670 0.60640 0.13510 0.05900
C 	C 	0.89230 0.58950 0.22680 -0.14100
H 	H 	0.94160 0.59560 0.26960 0.07700
C 	C 	0.78370 0.56340 0.25660 0.07000
H 	H 	0.76180 0.55190 0.31980 -0.01500
C 	C 	0.02250 0.72940 0.99900 0.04800
C 	C 	0.96580 0.82510 0.01960 -0.12900
H 	H 	0.95150 0.84580 0.08050 0.06300
C 	C 	0.92950 0.89180 0.94900 0.04900
H 	H 	0.88890 0.95720 0.96440 -0.01100
C 	C 	0.00870 0.77300 0.83990 0.06500
H 	H 	0.02500 0.75390 0.77820 -0.01800
C 	C 	0.04690 0.70230 0.90700 -0.13700
H 	H 	0.08860 0.63720 0.89050 0.07100
C 	C 	0.33880 0.43690 0.39090 0.06500
H 	H 	0.38940 0.44050 0.43370 -0.01200
C 	C 	0.23140 0.41090 0.42370 -0.13800
H 	H 	0.21020 0.39770 0.48650 0.07400
C 	C 	0.15600 0.40480 0.36030 0.04900
C 	C 	0.19490 0.42340 0.26700 -0.13900
H 	H 	0.14780 0.41830 0.22220 0.06900
C 	C 	0.30140 0.44890 0.24210 0.06500
H 	H 	0.32530 0.46150 0.17950 -0.01300
C 	C 	0.03410 0.29960 0.50050 0.04100
C 	C 	0.95920 0.32230 0.58280 -0.14100
H 	H 	0.89460 0.38270 0.59140 0.07100
C 	C 	0.97820 0.25510 0.65560 0.06500
H 	H 	0.92200 0.27050 0.71160 -0.00300
C 	C 	0.14340 0.14550 0.56450 0.04800
H 	H 	0.20530 0.08370 0.55750 -0.00000
C 	C 	0.12880 0.20690 0.48840 -0.12400
H 	H 	0.17970 0.18780 0.43090 0.04800
C 	C 	0.39020 0.66780 0.41120 -0.02700
C 	C 	0.31330 0.65160 0.60150 -0.01900
C 	C 	0.11980 0.83640 0.59790 -0.02000
C 	C 	0.20130 0.85600 0.41010 -0.02000
C 	C 	0.27670 0.86100 0.09900 -0.03000
C 	C 	0.26710 0.85820 0.91150 -0.03900
C 	C 	0.37430 0.65600 0.91080 -0.02000
C 	C 	0.39690 0.66060 0.10060 -0.02800
Pt	Pt	0.74280 0.24724 0.49502 0.29500
Pt	Pt	0.66998 0.24245 0.99435 0.30400
Se	Se	0.91899 0.36315 0.90579 -0.01100
Se	Se	0.00083 0.62106 0.60711 -0.00400
Fe	Fe	0.45820 0.49329 0.74800 1.11800
Fe	Fe	0.89424 0.97874 0.74764 1.06100
N 	N 	0.29060 0.44610 0.80080 -0.23600
N 	N 	0.05070 0.13260 0.14050 -0.24600
N 	N 	0.62480 0.54280 0.69790 -0.23300
N 	N 	0.92860 0.82880 0.35080 -0.14800
N 	N 	0.53630 0.38440 0.64190 -0.22500
N 	N 	0.64720 0.40620 0.34580 -0.23000
N 	N 	0.95980 0.11650 0.34920 -0.24400
N 	N 	0.83320 0.08440 0.64250 -0.24500
N 	N 	0.75960 0.07710 0.84880 -0.24100
N 	N 	0.76620 0.08190 0.14210 -0.12000
N 	N 	0.60080 0.40080 0.14600 -0.22800
N 	N 	0.56260 0.39360 0.84250 -0.22600
C 	C 	0.25850 0.42920 0.89080 0.06500
H 	H 	0.31040 0.43480 0.93190 -0.01300
C 	C 	0.15060 0.40340 0.92570 -0.13600
H 	H 	0.13020 0.39270 0.98920 0.07200
C 	C 	0.07330 0.39360 0.86490 0.05900
C 	C 	0.10770 0.41050 0.77320 -0.14100
H 	H 	0.05840 0.40440 0.73040 0.07700
C 	C 	0.21630 0.43660 0.74340 0.07000
H 	H 	0.23820 0.44810 0.68020 -0.01500
C 	C 	0.97750 0.27060 0.00100 0.04800
C 	C 	0.03420 0.17490 0.98040 -0.12900
H 	H 	0.04850 0.15420 0.91950 0.06300
C 	C 	0.07050 0.10820 0.05100 0.04900
H 	H 	0.11110 0.04280 0.03560 -0.01100
C 	C 	0.99130 0.22700 0.16010 0.06500
H 	H 	0.97500 0.24610 0.22180 -0.01800
C 	C 	0.95310 0.29770 0.09300 -0.13700
H 	H 	0.91140 0.36280 0.10950 0.07100
C 	C 	0.66120 0.56310 0.60910 0.06500
H 	H 	0.61060 0.55950 0.56630 -0.01200
C 	C 	0.76860 0.58910 0.57630 -0.13800
H 	H 	0.78980 0.60230 0.51350 0.07400
C 	C 	0.84400 0.59520 0.63970 0.04900
C 	C 	0.80510 0.57660 0.73300 -0.13900
H 	H 	0.85220 0.58170 0.77780 0.06900
C 	C 	0.69860 0.55110 0.75790 0.06500
H 	H 	0.67470 0.53850 0.82050 -0.01300
C 	C 	0.96590 0.70040 0.49950 0.04100
C 	C 	0.04080 0.67770 0.41720 -0.14100
H 	H 	0.10540 0.61730 0.40860 0.07100
C 	C 	0.02180 0.74490 0.34440 0.06500
H 	H 	0.07800 0.72950 0.28840 -0.00300
C 	C 	0.85660 0.85450 0.43550 0.04800
H 	H 	0.79470 0.91630 0.44250 -0.00000
C 	C 	0.87120 0.79310 0.51160 -0.12400
H 	H 	0.82030 0.81220 0.56910 0.04800
C 	C 	0.60980 0.33220 0.58880 -0.02700
C 	C 	0.68670 0.34840 0.39850 -0.01900
C 	C 	0.88020 0.16360 0.40210 -0.02000
C 	C 	0.79870 0.14400 0.58990 -0.02000
C 	C 	0.72330 0.13900 0.90100 -0.03000
C 	C 	0.73290 0.14180 0.08850 -0.03900
C 	C 	0.62570 0.34400 0.08920 -0.02000
C 	C 	0.60310 0.33940 0.89940 -0.02800
