data_crystal

_cell_length_a 10.27400
_cell_length_b 34.98900
_cell_length_c 34.98900
_cell_angle_alpha 90.00000
_cell_angle_beta  90.00000
_cell_angle_gamma 90.00000

_symmetry_space_group_name_	'P 1'
_symmetry_space_group_name_H-M	'P 1'

loop_
_symmetry_equiv_pos_as_xyz
  x,y,z

loop_
_atom_site_label
_atom_site_type_symbol
_atom_site_fract_x
_atom_site_fract_y
_atom_site_fract_z
_atom_site_charge
Zn	Zn	0.50000 0.40149 0.66350 1.21100
Zn	Zn	0.00000 0.90149 0.83650 1.20300
Zn	Zn	0.14659 0.17730 0.17730 1.22800
Zn	Zn	0.35341 0.67730 0.32270 1.23100
Zn	Zn	0.00000 0.83650 0.90149 1.20300
Zn	Zn	0.50000 0.59851 0.33650 1.21100
Zn	Zn	0.35341 0.32270 0.67730 1.23100
Zn	Zn	0.50000 0.66350 0.40149 1.21100
Zn	Zn	0.14659 0.82270 0.82270 1.22900
Zn	Zn	0.85341 0.82270 0.82270 1.23800
Zn	Zn	0.00000 0.09851 0.16350 1.20400
Zn	Zn	0.64659 0.67730 0.32270 1.23300
Zn	Zn	0.00000 0.16350 0.09851 1.20400
Zn	Zn	0.64659 0.32270 0.67730 1.23300
Zn	Zn	0.85341 0.17730 0.17730 1.23800
Zn	Zn	0.50000 0.33650 0.59851 1.21200
H 	H 	0.66620 0.92130 0.28820 -0.00300
H 	H 	0.84190 0.48670 0.22860 0.05600
H 	H 	0.16620 0.21180 0.42130 -0.01900
H 	H 	0.66620 0.28820 0.92130 -0.00300
H 	H 	0.65810 0.01330 0.72860 0.06900
H 	H 	0.31810 0.86040 0.29250 0.17700
H 	H 	0.65810 0.72860 0.01330 0.06900
H 	H 	0.83380 0.21180 0.42130 -0.00100
H 	H 	0.16620 0.46750 0.28260 0.04000
H 	H 	0.50000 0.87820 0.81050 0.04100
H 	H 	0.65810 0.27140 0.98670 0.06900
H 	H 	0.18170 0.26800 0.40680 0.03300
H 	H 	0.19490 0.52770 0.28110 0.03100
H 	H 	0.30510 0.97230 0.78110 0.02500
H 	H 	0.00000 0.68950 0.37820 0.04900
H 	H 	0.33380 0.07870 0.71180 -0.00900
H 	H 	0.15810 0.77140 0.51330 0.07400
H 	H 	0.69490 0.97230 0.78110 0.03300
H 	H 	0.69490 0.21890 0.02770 0.03300
H 	H 	0.31810 0.29250 0.86040 0.17700
H 	H 	0.16620 0.53250 0.71740 0.04000
H 	H 	0.31810 0.13960 0.70750 0.17700
H 	H 	0.66620 0.07870 0.71180 -0.00300
H 	H 	0.50000 0.12180 0.18950 0.04100
H 	H 	0.33380 0.96750 0.21740 0.04900
H 	H 	0.34190 0.72860 0.01330 0.06000
H 	H 	0.68170 0.09320 0.76800 0.03100
H 	H 	0.31810 0.70750 0.13960 0.17700
H 	H 	0.31830 0.90680 0.23200 0.02000
H 	H 	0.84190 0.77140 0.51330 0.05600
H 	H 	0.34190 0.27140 0.98670 0.06000
H 	H 	0.34190 0.01330 0.72860 0.06000
H 	H 	0.69090 0.79790 0.30830 -0.10800
H 	H 	0.66620 0.78260 0.03250 0.05500
H 	H 	0.84190 0.22860 0.48670 0.05600
H 	H 	0.33380 0.03250 0.78260 0.04900
H 	H 	0.16620 0.71740 0.53250 0.04000
H 	H 	0.30510 0.02770 0.21890 0.02500
H 	H 	0.69490 0.02770 0.21890 0.03300
H 	H 	0.16620 0.42130 0.21180 -0.01900
H 	H 	0.69090 0.69170 0.20210 -0.10800
H 	H 	0.69090 0.30830 0.79790 -0.10800
H 	H 	0.16620 0.78820 0.57870 -0.01900
H 	H 	0.80510 0.71890 0.47230 0.02300
H 	H 	0.15810 0.22860 0.48670 0.07400
H 	H 	0.83380 0.53250 0.71740 0.05700
H 	H 	0.33380 0.28820 0.92130 -0.00900
H 	H 	0.31830 0.09320 0.76800 0.02000
H 	H 	0.19490 0.47230 0.71890 0.03100
H 	H 	0.33380 0.71180 0.07870 -0.00900
H 	H 	0.69090 0.20210 0.69170 -0.10800
H 	H 	0.84190 0.51330 0.77140 0.05600
H 	H 	0.33380 0.21740 0.96750 0.04900
H 	H 	0.80510 0.47230 0.71890 0.02300
H 	H 	0.68190 0.86040 0.29250 0.18500
H 	H 	0.18170 0.40680 0.26800 0.03300
H 	H 	0.68190 0.70750 0.13960 0.18500
H 	H 	0.69490 0.78110 0.97230 0.03300
H 	H 	0.66620 0.71180 0.07870 -0.00300
H 	H 	0.00000 0.62180 0.31050 0.04900
H 	H 	0.30510 0.78110 0.97230 0.02500
H 	H 	0.66620 0.21740 0.96750 0.05500
H 	H 	0.30910 0.30830 0.79790 -0.11700
H 	H 	0.81830 0.59320 0.73200 0.01300
H 	H 	0.81830 0.26800 0.40680 0.01300
H 	H 	0.19090 0.19170 0.29790 -0.11000
H 	H 	0.83380 0.28260 0.46750 0.05700
H 	H 	0.81810 0.20750 0.36040 0.16900
H 	H 	0.30910 0.20210 0.69170 -0.11700
H 	H 	0.80910 0.80830 0.70210 -0.11500
H 	H 	0.80510 0.52770 0.28110 0.02300
H 	H 	0.80910 0.19170 0.29790 -0.11500
H 	H 	0.83380 0.78820 0.57870 -0.00100
H 	H 	0.00000 0.37820 0.68950 0.04900
H 	H 	0.68190 0.29250 0.86040 0.18500
H 	H 	0.68170 0.23200 0.90680 0.03100
H 	H 	0.16620 0.57870 0.78820 -0.01900
H 	H 	0.15810 0.48670 0.22860 0.07400
H 	H 	0.68170 0.90680 0.23200 0.03100
H 	H 	0.18170 0.59320 0.73200 0.03300
H 	H 	0.30510 0.21890 0.02770 0.02500
H 	H 	0.18190 0.20750 0.36040 0.17800
H 	H 	0.68170 0.76800 0.09320 0.03100
H 	H 	0.83380 0.57870 0.78820 -0.00100
H 	H 	0.66620 0.03250 0.78260 0.05500
H 	H 	0.65810 0.98670 0.27140 0.06900
H 	H 	0.66620 0.96750 0.21740 0.05500
H 	H 	0.83380 0.42130 0.21180 -0.00100
H 	H 	0.19090 0.70210 0.80830 -0.11000
H 	H 	0.18190 0.79250 0.63960 0.17800
H 	H 	0.81810 0.36040 0.20750 0.16900
H 	H 	0.81810 0.63960 0.79250 0.16900
H 	H 	0.81830 0.73200 0.59320 0.01300
H 	H 	0.80510 0.28110 0.52770 0.02300
H 	H 	0.31830 0.23200 0.90680 0.02000
H 	H 	0.00000 0.31050 0.62180 0.04900
H 	H 	0.81830 0.40680 0.26800 0.01300
H 	H 	0.18190 0.63960 0.79250 0.17800
H 	H 	0.16620 0.28260 0.46750 0.04000
H 	H 	0.83380 0.71740 0.53250 0.05700
H 	H 	0.30910 0.79790 0.30830 -0.11700
H 	H 	0.80910 0.70210 0.80830 -0.11500
H 	H 	0.33380 0.92130 0.28820 -0.00900
H 	H 	0.83380 0.46750 0.28260 0.05700
H 	H 	0.68190 0.13960 0.70750 0.18500
H 	H 	0.15810 0.51330 0.77140 0.07400
H 	H 	0.19490 0.28110 0.52770 0.03100
H 	H 	0.33380 0.78260 0.03250 0.04900
H 	H 	0.50000 0.81050 0.87820 0.04100
H 	H 	0.31830 0.76800 0.09320 0.02000
H 	H 	0.50000 0.18950 0.12180 0.04100
H 	H 	0.19090 0.29790 0.19170 -0.11000
H 	H 	0.19490 0.71890 0.47230 0.03100
H 	H 	0.18190 0.36040 0.20750 0.17800
H 	H 	0.18170 0.73200 0.59320 0.03300
H 	H 	0.81810 0.79250 0.63960 0.16900
H 	H 	0.80910 0.29790 0.19170 -0.11500
H 	H 	0.34190 0.98670 0.27140 0.06000
H 	H 	0.19090 0.80830 0.70210 -0.11000
H 	H 	0.30910 0.69170 0.20210 -0.11700
C 	C 	0.73870 0.90114 0.80710 0.40600
C 	C 	0.50000 0.09609 0.19636 0.06500
C 	C 	0.59250 0.95660 0.23020 -0.06600
C 	C 	0.88390 0.28525 0.54006 0.06900
C 	C 	0.89600 0.65300 0.79133 -0.39100
C 	C 	0.59830 0.23820 0.91690 -0.00500
C 	C 	0.00000 0.91830 0.91830 0.46200
C 	C 	0.40350 0.92980 0.27200 0.08000
C 	C 	0.59830 0.91690 0.23820 -0.00500
C 	C 	0.50000 0.90391 0.80364 0.06500
C 	C 	0.11770 0.42260 0.70181 -0.11800
C 	C 	0.00000 0.52013 0.27890 -0.10400
C 	C 	0.73870 0.09886 0.19290 0.40600
C 	C 	0.61770 0.20181 0.07740 -0.12800
C 	C 	0.40750 0.23020 0.95660 -0.07100
C 	C 	0.40790 0.03090 0.73690 -0.10600
C 	C 	0.00000 0.72110 0.47987 -0.10400
C 	C 	0.23870 0.40114 0.69290 0.40000
C 	C 	0.61770 0.79819 0.92260 -0.12800
C 	C 	-0.00000 0.77918 0.63290 0.30600
C 	C 	0.26130 0.09886 0.19290 0.40800
C 	C 	0.88230 0.42260 0.70181 -0.08900
C 	C 	0.40170 0.08310 0.76180 0.00000
C 	C 	0.50000 0.13290 0.72082 0.34900
C 	C 	-0.00000 0.48230 0.26330 0.07400
C 	C 	0.11610 0.54006 0.28525 0.03000
C 	C 	0.09210 0.23690 0.46910 -0.14500
C 	C 	0.00000 0.40391 0.69636 0.00400
C 	C 	0.60400 0.15300 0.70867 -0.44400
C 	C 	0.59250 0.23020 0.95660 -0.06600
C 	C 	0.09250 0.26980 0.45660 -0.03700
C 	C 	0.50000 0.01770 0.76330 0.11800
C 	C 	-0.00000 0.22082 0.36710 0.30600
C 	C 	0.50000 0.30433 0.78800 -0.64900
C 	C 	0.59210 0.96910 0.26310 -0.11100
C 	C 	0.50000 0.75000 0.31533 1.05300
C 	C 	0.40790 0.73690 0.03090 -0.10600
C 	C 	-0.00000 0.18467 0.25000 0.97400
C 	C 	0.09650 0.57020 0.77200 0.11600
C 	C 	0.88390 0.45994 0.71475 0.06900
C 	C 	0.50000 0.25000 0.68467 1.05300
C 	C 	0.40750 0.76980 0.04340 -0.07100
C 	C 	0.00000 0.47987 0.72110 -0.10400
C 	C 	0.11610 0.28525 0.54006 0.03000
C 	C 	0.50000 0.86710 0.27918 0.34900
C 	C 	0.90750 0.73020 0.54340 -0.06500
C 	C 	0.26130 0.80710 0.90114 0.40800
C 	C 	0.50000 0.90660 0.26480 -0.19000
C 	C 	0.90350 0.57020 0.77200 0.08800
C 	C 	0.38900 0.69767 0.19100 0.47000
C 	C 	0.09650 0.77200 0.57020 0.11600
C 	C 	0.09830 0.41690 0.26180 -0.03500
C 	C 	0.10400 0.79133 0.65300 -0.43700
C 	C 	0.40170 0.76180 0.08310 0.00000
C 	C 	0.40350 0.27200 0.92980 0.08000
C 	C 	0.50000 0.09340 0.73520 -0.19000
C 	C 	0.11100 0.30900 0.19767 0.45700
C 	C 	0.88230 0.57740 0.29819 -0.08900
C 	C 	0.39600 0.70867 0.15300 -0.44500
C 	C 	0.23870 0.69290 0.40114 0.40000
C 	C 	0.50000 0.26480 0.90660 -0.19000
C 	C 	0.50000 0.69567 0.21200 -0.64900
C 	C 	0.00000 0.80433 0.71200 -0.66100
C 	C 	0.61100 0.30233 0.80900 0.47100
C 	C 	0.90350 0.22800 0.42980 0.08800
C 	C 	0.09210 0.76310 0.53090 -0.14500
C 	C 	0.00000 0.75000 0.81533 0.97400
C 	C 	0.00000 0.27890 0.52013 -0.10400
C 	C 	0.60400 0.29133 0.84700 -0.44400
C 	C 	0.76130 0.69290 0.40114 0.39700
C 	C 	0.59830 0.76180 0.08310 -0.00500
C 	C 	0.61610 0.78525 0.95994 0.03800
C 	C 	0.38900 0.19100 0.69767 0.47000
C 	C 	0.88900 0.30900 0.19767 0.49300
C 	C 	0.50000 0.78800 0.30433 -0.64900
C 	C 	0.50000 0.97987 0.77890 -0.07900
C 	C 	0.09250 0.45660 0.26980 -0.03700
C 	C 	0.50000 0.02013 0.22110 -0.07900
C 	C 	0.11100 0.80233 0.69100 0.45700
C 	C 	0.88900 0.69100 0.80233 0.49300
C 	C 	0.59650 0.07020 0.72800 0.08500
C 	C 	0.00000 0.40660 0.23520 -0.23400
C 	C 	0.40790 0.96910 0.26310 -0.10600
C 	C 	0.38900 0.30233 0.80900 0.47000
C 	C 	0.50000 0.72082 0.13290 0.34900
C 	C 	0.11770 0.29819 0.57740 -0.11800
C 	C 	0.90790 0.53090 0.76310 -0.05900
C 	C 	0.59250 0.04340 0.76980 -0.06600
C 	C 	0.88900 0.80233 0.69100 0.49300
C 	C 	0.00000 0.51770 0.73670 0.07400
C 	C 	0.50000 0.77890 0.97987 -0.07900
C 	C 	0.38900 0.80900 0.30233 0.47000
C 	C 	0.90170 0.41690 0.26180 0.04700
C 	C 	0.88900 0.19767 0.30900 0.49300
C 	C 	0.00000 0.59609 0.30364 0.00400
C 	C 	0.61100 0.69767 0.19100 0.47100
C 	C 	0.09830 0.73820 0.58310 -0.03500
C 	C 	0.38230 0.92260 0.79819 -0.13400
C 	C 	0.90790 0.76310 0.53090 -0.05900
C 	C 	0.26130 0.19290 0.09886 0.40800
C 	C 	0.00000 0.81533 0.75000 0.97400
C 	C 	0.40170 0.23820 0.91690 0.00000
C 	C 	0.40790 0.26310 0.96910 -0.10600
C 	C 	0.50000 0.80364 0.90391 0.06500
C 	C 	0.40170 0.91690 0.23820 0.00000
C 	C 	0.50000 0.58170 0.41830 0.47000
C 	C 	0.09210 0.53090 0.76310 -0.14500
C 	C 	0.90750 0.54340 0.73020 -0.06500
C 	C 	0.61610 0.95994 0.78525 0.03800
C 	C 	0.76130 0.40114 0.69290 0.39700
C 	C 	0.90170 0.73820 0.58310 0.04700
C 	C 	0.61610 0.04006 0.21475 0.03800
C 	C 	0.40350 0.72800 0.07020 0.08000
C 	C 	0.88390 0.71475 0.45994 0.06900
C 	C 	0.61770 0.07740 0.20181 -0.12800
C 	C 	0.00000 0.76480 0.59340 -0.23400
C 	C 	0.00000 0.59340 0.76480 -0.23400
C 	C 	0.00000 0.28800 0.19567 -0.66100
C 	C 	0.00000 0.69636 0.40391 0.00400
C 	C 	0.50000 0.23670 0.98230 0.11800
C 	C 	0.00000 0.19567 0.28800 -0.66100
C 	C 	0.38230 0.79819 0.92260 -0.13400
C 	C 	0.39600 0.29133 0.84700 -0.44500
C 	C 	0.23870 0.59886 0.30710 0.40000
C 	C 	0.89600 0.34700 0.20867 -0.39100
C 	C 	0.50000 0.21200 0.69567 -0.64900
C 	C 	0.10400 0.65300 0.79133 -0.43700
C 	C 	0.26130 0.90114 0.80710 0.40800
C 	C 	0.90170 0.26180 0.41690 0.04700
C 	C 	0.59210 0.26310 0.96910 -0.11100
C 	C 	0.38390 0.21475 0.04006 0.03900
C 	C 	0.11610 0.71475 0.45994 0.03000
C 	C 	0.50000 0.19636 0.09609 0.06500
C 	C 	0.40750 0.95660 0.23020 -0.07100
C 	C 	0.40750 0.04340 0.76980 -0.07100
C 	C 	0.00000 0.08170 0.08170 0.46200
C 	C 	0.76130 0.59886 0.30710 0.39700
C 	C 	0.76130 0.30710 0.59886 0.39700
C 	C 	0.59650 0.27200 0.92980 0.08500
C 	C 	0.90350 0.42980 0.22800 0.08800
C 	C 	0.59250 0.76980 0.04340 -0.06600
C 	C 	0.61100 0.19100 0.69767 0.47100
C 	C 	0.38230 0.20181 0.07740 -0.13400
C 	C 	0.50000 0.22110 0.02013 -0.07900
C 	C 	0.50000 0.76330 0.01770 0.11800
C 	C 	0.09650 0.42980 0.22800 0.11600
C 	C 	0.61610 0.21475 0.04006 0.03800
C 	C 	0.00000 0.71200 0.80433 -0.66100
C 	C 	0.11770 0.70181 0.42260 -0.11800
C 	C 	0.11610 0.45994 0.71475 0.03000
C 	C 	0.88230 0.70181 0.42260 -0.08900
C 	C 	0.59650 0.72800 0.07020 0.08500
C 	C 	0.59830 0.08310 0.76180 -0.00500
C 	C 	0.00000 0.36710 0.22082 0.30600
C 	C 	-0.00000 0.26330 0.48230 0.07400
C 	C 	0.89600 0.79133 0.65300 -0.39100
C 	C 	0.61770 0.92260 0.79819 -0.12800
C 	C 	0.09650 0.22800 0.42980 0.11600
C 	C 	0.38390 0.95994 0.78525 0.03900
C 	C 	0.09250 0.73020 0.54340 -0.03700
C 	C 	0.23870 0.30710 0.59886 0.40000
C 	C 	0.09250 0.54340 0.73020 -0.03700
C 	C 	0.09830 0.58310 0.73820 -0.03500
C 	C 	0.50000 0.68467 0.25000 1.05300
C 	C 	0.90790 0.23690 0.46910 -0.05900
C 	C 	0.00000 0.30364 0.59609 0.00400
C 	C 	0.50000 0.98230 0.23670 0.11800
C 	C 	0.50000 0.27918 0.86710 0.34900
C 	C 	0.88230 0.29819 0.57740 -0.08900
C 	C 	0.61100 0.80900 0.30233 0.47100
C 	C 	0.90350 0.77200 0.57020 0.08800
C 	C 	0.39600 0.15300 0.70867 -0.44500
C 	C 	0.73870 0.80710 0.90114 0.40600
C 	C 	0.10400 0.20867 0.34700 -0.43700
C 	C 	0.59210 0.03090 0.73690 -0.11100
C 	C 	0.73870 0.19290 0.09886 0.40600
C 	C 	0.10400 0.34700 0.20867 -0.43700
C 	C 	0.50000 0.31533 0.75000 1.05300
C 	C 	0.38390 0.04006 0.21475 0.03900
C 	C 	0.60400 0.84700 0.29133 -0.44400
C 	C 	0.90790 0.46910 0.23690 -0.05900
C 	C 	0.09830 0.26180 0.41690 -0.03500
C 	C 	0.90750 0.26980 0.45660 -0.06500
C 	C 	0.11770 0.57740 0.29819 -0.11800
C 	C 	0.59210 0.73690 0.03090 -0.11100
C 	C 	0.59650 0.92980 0.27200 0.08500
C 	C 	0.11100 0.69100 0.80233 0.45700
C 	C 	0.90750 0.45660 0.26980 -0.06500
C 	C 	0.60400 0.70867 0.15300 -0.44400
C 	C 	0.90170 0.58310 0.73820 0.04700
C 	C 	0.50000 0.73520 0.09340 -0.19000
C 	C 	0.88390 0.54006 0.28525 0.06900
C 	C 	0.38230 0.07740 0.20181 -0.13400
C 	C 	0.50000 0.41830 0.58170 0.47000
C 	C 	0.40350 0.07020 0.72800 0.08000
C 	C 	0.89600 0.20867 0.34700 -0.39100
C 	C 	0.00000 0.73670 0.51770 0.07400
C 	C 	0.00000 0.23520 0.40660 -0.23400
C 	C 	0.11100 0.19767 0.30900 0.45700
C 	C 	-0.00000 0.25000 0.18467 0.97400
C 	C 	0.00000 0.63290 0.77918 0.30600
C 	C 	0.38390 0.78525 0.95994 0.03900
C 	C 	0.09210 0.46910 0.23690 -0.14500
C 	C 	0.39600 0.84700 0.29133 -0.44500
O 	O 	0.15740 0.18991 0.07842 -0.48100
O 	O 	0.59260 0.32252 0.73607 -0.71200
O 	O 	0.00000 0.15179 0.15179 -0.95300
O 	O 	0.59260 0.67748 0.26393 -0.71200
O 	O 	0.23250 0.30983 0.63328 -0.47800
O 	O 	0.73250 0.80983 0.86672 -0.47000
O 	O 	0.84260 0.92158 0.81009 -0.45100
O 	O 	0.84260 0.18991 0.07842 -0.45100
O 	O 	0.23250 0.36672 0.69017 -0.47800
O 	O 	0.26750 0.86672 0.80983 -0.47900
O 	O 	0.34260 0.68991 0.42158 -0.47200
O 	O 	0.34260 0.42158 0.68991 -0.47200
O 	O 	0.15740 0.92158 0.81009 -0.48100
O 	O 	0.76750 0.30983 0.63328 -0.46400
O 	O 	0.15740 0.81009 0.92158 -0.48100
O 	O 	0.40740 0.73607 0.32252 -0.71700
O 	O 	0.90740 0.17748 0.23607 -0.65500
O 	O 	0.40740 0.32252 0.73607 -0.71700
O 	O 	0.73250 0.19017 0.13328 -0.47000
O 	O 	0.00000 0.11270 0.06961 -0.54600
O 	O 	0.23250 0.63328 0.30983 -0.47800
O 	O 	0.50000 0.65179 0.34821 -0.93300
O 	O 	0.09260 0.17748 0.23607 -0.69600
O 	O 	0.00000 0.06961 0.11270 -0.54600
O 	O 	0.50000 0.56961 0.38730 -0.53400
O 	O 	0.23250 0.69017 0.36672 -0.47800
O 	O 	0.34260 0.31009 0.57842 -0.47200
O 	O 	0.90740 0.82252 0.76393 -0.65500
O 	O 	0.65740 0.68991 0.42158 -0.46800
O 	O 	-0.00000 0.84821 0.84821 -0.95300
O 	O 	0.40740 0.26393 0.67748 -0.71700
O 	O 	0.65740 0.42158 0.68991 -0.46800
O 	O 	0.50000 0.43039 0.61270 -0.53400
O 	O 	0.65740 0.31009 0.57842 -0.46800
O 	O 	0.50000 0.61270 0.43039 -0.53400
O 	O 	0.09260 0.76393 0.82252 -0.69600
O 	O 	0.09260 0.82252 0.76393 -0.69600
O 	O 	0.90740 0.23607 0.17748 -0.65500
O 	O 	0.40740 0.67748 0.26393 -0.71700
O 	O 	0.00000 0.88730 0.93039 -0.54600
O 	O 	0.76750 0.36672 0.69017 -0.46400
O 	O 	0.73250 0.86672 0.80983 -0.47000
O 	O 	0.76750 0.63328 0.30983 -0.46400
O 	O 	0.26750 0.13328 0.19017 -0.47900
O 	O 	0.90740 0.76393 0.82252 -0.65500
O 	O 	0.65740 0.57842 0.31009 -0.46800
O 	O 	0.09260 0.23607 0.17748 -0.69600
O 	O 	0.26750 0.19017 0.13328 -0.47900
O 	O 	0.73250 0.13328 0.19017 -0.47000
O 	O 	0.76750 0.69017 0.36672 -0.46400
O 	O 	0.59260 0.26393 0.67748 -0.71200
O 	O 	0.50000 0.38730 0.56961 -0.53400
O 	O 	0.26750 0.80983 0.86672 -0.47900
O 	O 	0.50000 0.34821 0.65179 -0.93300
O 	O 	0.34260 0.57842 0.31009 -0.47200
O 	O 	0.59260 0.73607 0.32252 -0.71200
O 	O 	0.15740 0.07842 0.18991 -0.48100
O 	O 	0.84260 0.81009 0.92158 -0.45100
O 	O 	0.00000 0.93039 0.88730 -0.54600
O 	O 	0.84260 0.07842 0.18991 -0.45100
