data_crystal

_cell_length_a 18.63250
_cell_length_b 19.48100
_cell_length_c 10.40400
_cell_angle_alpha 90.00000
_cell_angle_beta  94.78700
_cell_angle_gamma 90.00000

_symmetry_space_group_name_	'P 1'
_symmetry_space_group_name_H-M	'P 1'

loop_
_symmetry_equiv_pos_as_xyz
  x,y,z

loop_
_atom_site_label
_atom_site_type_symbol
_atom_site_fract_x
_atom_site_fract_y
_atom_site_fract_z
_atom_site_charge
C 	C 	0.72810 0.42130 0.52540 0.10200
H 	H 	0.77720 0.43090 0.53230 -0.02400
C 	C 	0.70710 0.35480 0.50170 -0.18200
H 	H 	0.74130 0.32050 0.49390 0.09100
C 	C 	0.63410 0.33920 0.48930 0.12000
C 	C 	0.58700 0.39270 0.50130 -0.18100
H 	H 	0.53760 0.38480 0.49040 0.09500
C 	C 	0.61220 0.45760 0.52920 0.10300
H 	H 	0.57910 0.49230 0.54160 -0.02300
C 	C 	0.60630 0.27040 0.45370 -0.05400
C 	C 	0.63260 0.20580 0.49820 0.02600
C 	C 	0.68630 0.19440 0.59820 -0.09200
H 	H 	0.70510 0.23410 0.63760 0.06300
C 	C 	0.71570 0.13450 0.64800 0.00700
H 	H 	0.75080 0.13870 0.71660 0.02600
C 	C 	0.69840 0.06800 0.60660 -0.08800
H 	H 	0.72490 0.03340 0.64990 0.05600
C 	C 	0.64820 0.04570 0.51170 0.01300
H 	H 	0.64710 0.99850 0.49860 0.02200
C 	C 	0.59970 0.08240 0.43350 -0.09600
H 	H 	0.57010 0.05640 0.37580 0.06500
C 	C 	0.58790 0.15290 0.42750 0.03400
C 	C 	0.53500 0.18820 0.34720 -0.05500
C 	C 	0.54840 0.25830 0.36350 -0.02900
H 	H 	0.52180 0.29270 0.31950 0.04100
C 	C 	0.47670 0.16140 0.25900 0.11700
C 	C 	0.45380 0.19830 0.14790 -0.18400
H 	H 	0.47540 0.24000 0.13080 0.09800
C 	C 	0.39930 0.17300 0.06360 0.09700
H 	H 	0.38610 0.19820 0.98950 -0.03700
C 	C 	0.38560 0.08010 0.18980 0.10500
H 	H 	0.36170 0.03950 0.20620 -0.02100
C 	C 	0.44020 0.10040 0.27830 -0.18600
H 	H 	0.45270 0.07370 0.35080 0.09700
C 	C 	0.60070 0.59500 0.76440 0.09500
C 	C 	0.87140 0.56590 0.69500 0.10400
H 	H 	0.88200 0.59310 0.62560 -0.03400
C 	C 	0.92620 0.54900 0.78640 -0.19300
H 	H 	0.97250 0.56560 0.77870 0.09800
C 	C 	0.91290 0.50760 0.88930 0.13500
C 	C 	0.84310 0.48490 0.89360 -0.19700
H 	H 	0.83150 0.45610 0.96010 0.09900
C 	C 	0.79080 0.50460 0.80060 0.11000
H 	H 	0.74410 0.48890 0.80650 -0.02200
C 	C 	0.96850 0.48770 0.99160 -0.09100
H 	H 	0.95620 0.45400 0.04900 0.06100
Co	Co	0.71842 0.57769 0.55983 1.09900
N 	N 	0.68240 0.47332 0.53940 -0.25500
N 	N 	0.80380 0.54510 0.70170 -0.26200
N 	N 	0.78740 0.56340 0.41300 -0.26600
N 	N 	0.64930 0.59290 0.70390 -0.27500
N 	N 	0.36410 0.11401 0.08210 -0.26200
S 	S 	0.53189 0.59658 0.85003 -0.07400
C 	C 	0.82830 0.56110 0.34540 -0.07600
S 	S 	0.88600 0.53990 0.23820 0.00100
C 	C 	0.82570 0.52860 0.35790 0.17200
S 	S 	0.88000 0.48080 0.28930 -0.09700
C 	C 	0.27190 0.92130 0.97460 0.09300
H 	H 	0.22280 0.93090 0.96770 -0.01800
C 	C 	0.29290 0.85480 0.99830 -0.16300
H 	H 	0.25870 0.82050 0.00610 0.08400
C 	C 	0.36590 0.83920 0.01070 0.10300
C 	C 	0.41300 0.89270 0.99870 -0.16000
H 	H 	0.46240 0.88480 0.00960 0.08700
C 	C 	0.38780 0.95760 0.97080 0.09300
H 	H 	0.42090 0.99230 0.95840 -0.01700
C 	C 	0.39370 0.77040 0.04630 -0.04500
C 	C 	0.36740 0.70580 0.00180 0.02200
C 	C 	0.31370 0.69440 0.90180 -0.08500
H 	H 	0.29490 0.73410 0.86240 0.06100
C 	C 	0.28430 0.63450 0.85200 0.00200
H 	H 	0.24920 0.63870 0.78340 0.02800
C 	C 	0.30160 0.56800 0.89340 -0.08400
H 	H 	0.27510 0.53340 0.85010 0.05500
C 	C 	0.35180 0.54570 0.98830 0.00900
H 	H 	0.35290 0.49850 0.00140 0.02400
C 	C 	0.40030 0.58240 0.06650 -0.09500
H 	H 	0.42990 0.55640 0.12420 0.06400
C 	C 	0.41210 0.65290 0.07250 0.03300
C 	C 	0.46500 0.68820 0.15280 -0.05300
C 	C 	0.45160 0.75830 0.13650 -0.03400
H 	H 	0.47820 0.79270 0.18050 0.04200
C 	C 	0.52330 0.66140 0.24100 0.11500
C 	C 	0.54620 0.69830 0.35210 -0.18000
H 	H 	0.52460 0.74000 0.36920 0.09600
C 	C 	0.60070 0.67300 0.43640 0.09000
H 	H 	0.61390 0.69820 0.51050 -0.03300
C 	C 	0.61440 0.58010 0.31020 0.10400
H 	H 	0.63830 0.53950 0.29380 -0.02100
C 	C 	0.55980 0.60040 0.22170 -0.18500
H 	H 	0.54730 0.57370 0.14920 0.09600
C 	C 	0.39930 0.09500 0.73560 0.09400
C 	C 	0.12860 0.06590 0.80500 0.09900
H 	H 	0.11800 0.09310 0.87440 -0.03300
C 	C 	0.07380 0.04900 0.71360 -0.18700
H 	H 	0.02750 0.06560 0.72130 0.09400
C 	C 	0.08710 0.00760 0.61070 0.12400
C 	C 	0.15690 0.98490 0.60640 -0.18100
H 	H 	0.16850 0.95610 0.53990 0.09400
C 	C 	0.20920 0.00460 0.69940 0.09500
H 	H 	0.25590 0.98890 0.69350 -0.01500
C 	C 	0.03150 0.98770 0.50840 -0.08700
H 	H 	0.04380 0.95400 0.45100 0.06100
Co	Co	0.28158 0.07769 0.94017 1.09700
N 	N 	0.31760 0.97332 0.96060 -0.25000
N 	N 	0.19620 0.04510 0.79830 -0.26000
N 	N 	0.21260 0.06340 0.08700 -0.26500
N 	N 	0.35070 0.09290 0.79610 -0.27500
N 	N 	0.63590 0.61401 0.41790 -0.26100
S 	S 	0.46811 0.09658 0.64997 -0.07600
C 	C 	0.17170 0.06110 0.15460 -0.07100
S 	S 	0.11400 0.03990 0.26180 0.00200
C 	C 	0.17430 0.02860 0.14210 0.16800
S 	S 	0.12000 0.98080 0.21070 -0.09700
C 	C 	0.27190 0.57870 0.47460 0.10300
H 	H 	0.22280 0.56910 0.46770 -0.02300
C 	C 	0.29290 0.64520 0.49830 -0.18100
H 	H 	0.25870 0.67950 0.50610 0.09200
C 	C 	0.36590 0.66080 0.51070 0.12100
C 	C 	0.41300 0.60730 0.49870 -0.18000
H 	H 	0.46240 0.61520 0.50960 0.09600
C 	C 	0.38780 0.54240 0.47080 0.10400
H 	H 	0.42090 0.50770 0.45840 -0.02200
C 	C 	0.39370 0.72960 0.54630 -0.05300
C 	C 	0.36740 0.79420 0.50180 0.02700
C 	C 	0.31370 0.80560 0.40180 -0.09100
H 	H 	0.29490 0.76590 0.36240 0.06300
C 	C 	0.28430 0.86550 0.35200 0.00700
H 	H 	0.24920 0.86130 0.28340 0.02600
C 	C 	0.30160 0.93200 0.39340 -0.08800
H 	H 	0.27510 0.96660 0.35010 0.05600
C 	C 	0.35180 0.95430 0.48830 0.01300
H 	H 	0.35290 0.00150 0.50140 0.02200
C 	C 	0.40030 0.91760 0.56650 -0.09600
H 	H 	0.42990 0.94360 0.62420 0.06500
C 	C 	0.41210 0.84710 0.57250 0.03400
C 	C 	0.46500 0.81180 0.65280 -0.05500
C 	C 	0.45160 0.74170 0.63650 -0.02900
H 	H 	0.47820 0.70730 0.68050 0.04100
C 	C 	0.52330 0.83860 0.74100 0.11700
C 	C 	0.54620 0.80170 0.85210 -0.18400
H 	H 	0.52460 0.76000 0.86920 0.09800
C 	C 	0.60070 0.82700 0.93640 0.09700
H 	H 	0.61390 0.80180 0.01050 -0.03700
C 	C 	0.61440 0.91990 0.81020 0.10500
H 	H 	0.63830 0.96050 0.79380 -0.02100
C 	C 	0.55980 0.89960 0.72170 -0.18600
H 	H 	0.54730 0.92630 0.64920 0.09700
C 	C 	0.39930 0.40500 0.23560 0.09500
C 	C 	0.12860 0.43410 0.30500 0.10400
H 	H 	0.11800 0.40690 0.37440 -0.03400
C 	C 	0.07380 0.45100 0.21360 -0.19300
H 	H 	0.02750 0.43440 0.22130 0.09800
C 	C 	0.08710 0.49240 0.11070 0.13500
C 	C 	0.15690 0.51510 0.10640 -0.19700
H 	H 	0.16850 0.54390 0.03990 0.09900
C 	C 	0.20920 0.49540 0.19940 0.11000
H 	H 	0.25590 0.51110 0.19350 -0.02200
C 	C 	0.03150 0.51230 0.00840 -0.09100
H 	H 	0.04380 0.54600 0.95100 0.06100
Co	Co	0.28158 0.42231 0.44017 1.09900
N 	N 	0.31760 0.52668 0.46060 -0.25500
N 	N 	0.19620 0.45490 0.29830 -0.26200
N 	N 	0.21260 0.43660 0.58700 -0.26600
N 	N 	0.35070 0.40710 0.29610 -0.27500
N 	N 	0.63590 0.88599 0.91790 -0.26200
S 	S 	0.46811 0.40342 0.14997 -0.07400
C 	C 	0.17170 0.43890 0.65460 -0.07600
S 	S 	0.11400 0.46010 0.76180 0.00100
C 	C 	0.17430 0.47140 0.64210 0.17200
S 	S 	0.12000 0.51920 0.71070 -0.09700
C 	C 	0.72810 0.07870 0.02540 0.09300
H 	H 	0.77720 0.06910 0.03230 -0.01800
C 	C 	0.70710 0.14520 0.00170 -0.16300
H 	H 	0.74130 0.17950 0.99390 0.08400
C 	C 	0.63410 0.16080 0.98930 0.10300
C 	C 	0.58700 0.10730 0.00130 -0.16000
H 	H 	0.53760 0.11520 0.99040 0.08700
C 	C 	0.61220 0.04240 0.02920 0.09300
H 	H 	0.57910 0.00770 0.04160 -0.01700
C 	C 	0.60630 0.22960 0.95370 -0.04500
C 	C 	0.63260 0.29420 0.99820 0.02200
C 	C 	0.68630 0.30560 0.09820 -0.08500
H 	H 	0.70510 0.26590 0.13760 0.06100
C 	C 	0.71570 0.36550 0.14800 0.00200
H 	H 	0.75080 0.36130 0.21660 0.02800
C 	C 	0.69840 0.43200 0.10660 -0.08400
H 	H 	0.72490 0.46660 0.14990 0.05500
C 	C 	0.64820 0.45430 0.01170 0.00900
H 	H 	0.64710 0.50150 0.99860 0.02400
C 	C 	0.59970 0.41760 0.93350 -0.09500
H 	H 	0.57010 0.44360 0.87580 0.06400
C 	C 	0.58790 0.34710 0.92750 0.03300
C 	C 	0.53500 0.31180 0.84720 -0.05300
C 	C 	0.54840 0.24170 0.86350 -0.03400
H 	H 	0.52180 0.20730 0.81950 0.04200
C 	C 	0.47670 0.33860 0.75900 0.11500
C 	C 	0.45380 0.30170 0.64790 -0.18000
H 	H 	0.47540 0.26000 0.63080 0.09600
C 	C 	0.39930 0.32700 0.56360 0.09000
H 	H 	0.38610 0.30180 0.48950 -0.03300
C 	C 	0.38560 0.41990 0.68980 0.10400
H 	H 	0.36170 0.46050 0.70620 -0.02100
C 	C 	0.44020 0.39960 0.77830 -0.18500
H 	H 	0.45270 0.42630 0.85080 0.09600
C 	C 	0.60070 0.90500 0.26440 0.09400
C 	C 	0.87140 0.93410 0.19500 0.09900
H 	H 	0.88200 0.90690 0.12560 -0.03300
C 	C 	0.92620 0.95100 0.28640 -0.18700
H 	H 	0.97250 0.93440 0.27870 0.09400
C 	C 	0.91290 0.99240 0.38930 0.12400
C 	C 	0.84310 0.01510 0.39360 -0.18100
H 	H 	0.83150 0.04390 0.46010 0.09400
C 	C 	0.79080 0.99540 0.30060 0.09500
H 	H 	0.74410 0.01110 0.30650 -0.01500
C 	C 	0.96850 0.01230 0.49160 -0.08700
H 	H 	0.95620 0.04600 0.54900 0.06100
Co	Co	0.71842 0.92231 0.05983 1.09700
N 	N 	0.68240 0.02668 0.03940 -0.25000
N 	N 	0.80380 0.95490 0.20170 -0.26000
N 	N 	0.78740 0.93660 0.91300 -0.26500
N 	N 	0.64930 0.90710 0.20390 -0.27500
N 	N 	0.36410 0.38599 0.58210 -0.26100
S 	S 	0.53189 0.90342 0.35003 -0.07600
C 	C 	0.82830 0.93890 0.84540 -0.07100
S 	S 	0.88600 0.96010 0.73820 0.00200
C 	C 	0.82570 0.97140 0.85790 0.16800
S 	S 	0.88000 0.01920 0.78930 -0.09700
