data_crystal

_cell_length_a 16.85270
_cell_length_b 16.90180
_cell_length_c 26.71320
_cell_angle_alpha 102.98900
_cell_angle_beta  90.00000
_cell_angle_gamma 119.90400

_symmetry_space_group_name_	'P 1'
_symmetry_space_group_name_H-M	'P 1'

loop_
_symmetry_equiv_pos_as_xyz
  x,y,z

loop_
_atom_site_label
_atom_site_type_symbol
_atom_site_fract_x
_atom_site_fract_y
_atom_site_fract_z
_atom_site_charge
Cu	Cu	0.43272 0.75896 0.52183 0.86400
Cu	Cu	0.29912 0.40638 0.02951 0.94100
Cu	Cu	0.79323 0.94408 0.54207 0.89800
Cu	Cu	0.63694 0.00000 0.75000 0.93300
Cu	Cu	0.12803 0.72532 0.50613 0.91300
Cu	Cu	0.05938 0.78936 0.10256 0.87500
Cu	Cu	0.72998 0.78936 0.60256 0.88100
Cu	Cu	0.32624 0.75896 0.02183 0.85800
Cu	Cu	0.70088 0.59362 0.97049 0.95100
Cu	Cu	0.87197 0.27468 0.49387 0.91000
Cu	Cu	0.67376 0.24104 0.97817 0.86300
Cu	Cu	0.89274 0.59362 0.47049 0.94800
Cu	Cu	0.94062 0.21064 0.89744 0.87600
Cu	Cu	0.40271 0.27468 0.99387 0.91400
Cu	Cu	0.56728 0.24104 0.47817 0.85800
Cu	Cu	0.84915 0.05592 0.95793 0.86600
Cu	Cu	0.20677 0.05592 0.45793 0.86300
Cu	Cu	0.10726 0.40638 0.52951 0.94300
Cu	Cu	0.50000 0.50000 -0.00000 0.92800
Cu	Cu	0.27002 0.21064 0.39744 0.87300
Cu	Cu	0.15085 0.94408 0.04207 0.88900
Cu	Cu	0.59729 0.72532 0.00613 0.90700
Cu	Cu	0.36306 0.00000 0.25000 0.93300
Cu	Cu	-0.00000 0.50000 0.50000 0.92800
H 	H 	0.33990 0.49600 0.63910 0.09700
H 	H 	0.13720 0.72940 0.22980 0.08800
H 	H 	0.15610 0.49600 0.13910 0.08800
H 	H 	0.62450 0.45520 0.85620 0.09100
H 	H 	0.40150 0.73060 0.74130 0.10200
H 	H 	0.71570 0.56400 0.72000 0.10100
H 	H 	0.53560 0.42980 0.65140 0.10100
H 	H 	0.40930 0.62900 0.84840 0.09500
H 	H 	0.16930 0.54480 0.64380 0.09100
H 	H 	0.86280 0.27060 0.77020 0.08200
H 	H 	0.67090 0.26940 0.75870 0.09800
H 	H 	0.37550 0.54480 0.14380 0.09100
H 	H 	0.21970 0.62900 0.34840 0.09500
H 	H 	0.83070 0.45520 0.35620 0.09100
H 	H 	0.59850 0.26940 0.25870 0.09900
H 	H 	0.40780 0.27060 0.27020 0.08400
H 	H 	0.10580 0.57020 0.84860 0.11000
H 	H 	0.32910 0.73060 0.24130 0.10200
H 	H 	0.97530 0.57300 0.32140 0.11500
H 	H 	0.59070 0.37100 0.15160 0.09300
H 	H 	0.02470 0.42700 0.67860 0.07500
H 	H 	0.46440 0.57020 0.34860 0.10200
H 	H 	0.84830 0.56400 0.22000 0.10400
H 	H 	0.84390 0.50400 0.86090 0.10500
H 	H 	0.78030 0.37100 0.65160 0.09300
H 	H 	0.89420 0.42980 0.15140 0.09100
H 	H 	0.28430 0.43600 0.28000 0.10000
H 	H 	0.59770 0.57300 0.82140 0.09300
H 	H 	0.66010 0.50400 0.36090 0.09800
H 	H 	0.15170 0.43600 0.78000 0.09800
H 	H 	0.40230 0.42700 0.17860 0.09300
H 	H 	0.59220 0.72940 0.72980 0.08600
C 	C 	0.61520 0.22040 0.31720 -0.01100
C 	C 	0.13810 0.38920 0.42300 0.33400
C 	C 	0.70380 0.88440 0.89960 0.33300
C 	C 	0.22500 0.41120 0.34440 0.00200
C 	C 	0.41510 0.36240 0.23070 0.11700
C 	C 	0.02970 0.47360 0.15320 0.09400
C 	C 	0.86190 0.61080 0.57700 0.33200
C 	C 	0.18140 0.52480 0.38460 -0.01100
C 	C 	0.36190 0.71540 0.71190 -0.10100
C 	C 	0.39480 0.77960 0.18280 -0.00200
C 	C 	0.36410 0.45760 0.62680 -0.11200
C 	C 	0.22960 0.36540 0.55880 0.30700
C 	C 	0.86800 0.20320 0.64610 -0.03300
C 	C 	0.74890 0.61080 0.07700 0.33300
C 	C 	0.76810 0.67600 0.65690 0.30300
C 	C 	0.61920 0.39620 0.84620 -0.09500
C 	C 	0.15620 0.80480 0.30440 0.00300
C 	C 	0.49280 0.29840 0.56820 0.30600
C 	C 	0.63590 0.54240 0.37320 -0.11200
C 	C 	0.18620 0.41120 0.84440 0.00100
C 	C 	0.44390 0.47360 0.65320 0.12600
C 	C 	0.35340 0.29080 0.14010 -0.02500
C 	C 	0.80060 0.54140 0.19350 -0.11100
C 	C 	0.97750 0.36940 0.68240 -0.06100
C 	C 	0.39390 0.27560 0.23780 -0.09100
C 	C 	0.64650 0.28460 0.78810 -0.09900
C 	C 	0.38480 0.77960 0.68280 -0.00200
C 	C 	0.42490 0.56140 0.92520 0.31900
C 	C 	0.25110 0.38920 0.92300 0.33200
C 	C 	0.29620 0.11560 0.10040 0.34300
C 	C 	0.35140 0.19520 0.19560 -0.01100
C 	C 	0.90790 0.67600 0.15690 0.30100
C 	C 	0.50720 0.70160 0.43180 0.30700
C 	C 	0.60480 0.13020 0.80130 0.29300
C 	C 	0.35930 0.32880 0.56220 -0.06500
C 	C 	0.93590 0.61540 0.91770 0.03100
C 	C 	0.94730 0.36240 0.73070 0.10800
C 	C 	0.60810 0.63060 0.81760 -0.09100
C 	C 	0.93670 0.41860 0.13380 -0.07500
C 	C 	0.51810 0.58140 0.36620 -0.11200
C 	C 	0.05900 0.74580 0.98840 0.40400
C 	C 	0.27970 0.62760 0.69790 0.12100
C 	C 	0.18480 0.44320 0.38340 -0.04800
C 	C 	0.65190 0.16900 0.39210 0.33700
C 	C 	0.52540 0.13020 0.30130 0.29300
C 	C 	0.17990 0.64480 0.57680 0.35400
C 	C 	0.90690 0.34740 0.08870 -0.01800
C 	C 	0.32050 0.38460 0.58230 0.00200
C 	C 	0.22300 0.60380 0.65380 -0.09600
C 	C 	0.77040 0.63460 0.44120 0.30600
C 	C 	0.34340 0.52480 0.88460 -0.01000
C 	C 	0.34790 0.62760 0.19790 0.12200
C 	C 	0.57510 0.43860 0.07480 0.32000
C 	C 	0.65210 0.37240 0.80210 0.11800
C 	C 	0.32600 0.75640 0.63810 -0.06200
C 	C 	0.82010 0.35520 0.42320 0.35400
C 	C 	0.43040 0.75640 0.13810 -0.06200
C 	C 	0.25840 0.44320 0.88340 -0.04600
C 	C 	0.93740 0.29080 0.64010 -0.03800
C 	C 	0.35410 0.57340 0.84700 -0.10200
C 	C 	0.55610 0.52640 0.34680 0.12800
C 	C 	0.64860 0.80480 0.80440 -0.00200
C 	C 	0.74160 0.55680 0.11660 -0.04600
C 	C 	0.66550 0.69620 0.91160 0.34100
C 	C 	0.02250 0.63060 0.31760 -0.12900
C 	C 	0.71690 0.46060 0.19230 0.13500
C 	C 	0.63810 0.28460 0.28810 -0.09900
C 	C 	0.96950 0.32880 0.06220 -0.03400
C 	C 	0.05270 0.63760 0.26930 0.13100
C 	C 	0.57740 0.33180 0.87650 -0.03200
C 	C 	0.47460 0.86980 0.69870 0.28600
C 	C 	0.32880 0.10160 0.20540 0.30000
C 	C 	0.19940 0.45860 0.80650 -0.11000
C 	C 	0.81380 0.58880 0.15560 0.00700
C 	C 	0.80560 0.29840 0.06820 0.31400
C 	C 	0.56960 0.24360 0.86190 -0.06400
C 	C 	0.65660 0.47520 0.11540 -0.01100
C 	C 	0.51710 0.16900 0.89210 0.33600
C 	C 	0.44050 0.34740 0.58870 0.00300
C 	C 	0.23190 0.32400 0.34310 0.30200
C 	C 	0.09350 0.45760 0.12680 -0.08800
C 	C 	0.28310 0.53940 0.80770 0.13300
C 	C 	0.64070 0.67120 0.43780 -0.06100
C 	C 	0.60610 0.72440 0.76220 -0.09300
C 	C 	0.42260 0.66820 0.12350 -0.03100
C 	C 	0.24560 0.66820 0.62350 -0.03100
C 	C 	0.88170 0.27560 0.73780 -0.08300
C 	C 	0.39520 0.86980 0.19870 0.28700
C 	C 	0.03050 0.67120 0.93780 -0.08800
C 	C 	0.53510 0.35520 0.92320 0.35400
C 	C 	0.67400 0.24360 0.36190 -0.06400
C 	C 	0.84380 0.19520 0.69560 -0.01600
C 	C 	0.19440 0.70160 0.93180 0.30000
C 	C 	0.09310 0.65260 0.91130 0.02600
C 	C 	0.67950 0.61540 0.41770 0.00500
C 	C 	0.77500 0.58880 0.65560 0.00500
C 	C 	0.22720 0.89840 0.29460 0.29000
C 	C 	0.55950 0.65260 0.41130 0.00700
C 	C 	0.25920 0.45860 0.30650 -0.11100
C 	C 	0.39190 0.36940 0.18240 -0.09200
C 	C 	0.33450 0.30380 0.08840 0.34200
C 	C 	0.06260 0.70920 0.35990 -0.00600
C 	C 	0.74370 0.46060 0.69230 0.13400
C 	C 	0.96930 0.30380 0.58840 0.36100
C 	C 	0.78070 0.42660 0.65300 -0.10100
C 	C 	0.68680 0.74580 0.48840 0.37700
C 	C 	0.35350 0.71540 0.21190 -0.10100
C 	C 	0.09210 0.32400 0.84310 0.30300
C 	C 	0.46490 0.64480 0.07680 0.35400
C 	C 	0.94100 0.25420 0.01160 0.36100
C 	C 	0.38080 0.60380 0.15380 -0.09500
C 	C 	0.48290 0.83100 0.10790 0.33300
C 	C 	0.72030 0.37240 0.30210 0.11900
C 	C 	0.90650 0.54240 0.87320 -0.13100
C 	C 	0.34810 0.83100 0.60790 0.33300
C 	C 	0.13580 0.36540 0.05880 0.31500
C 	C 	0.81940 0.11560 0.60040 0.34000
C 	C 	0.97030 0.52640 0.84680 0.15300
C 	C 	0.66480 0.79680 0.85390 -0.03400
C 	C 	0.81520 0.55680 0.61660 -0.04500
C 	C 	0.74080 0.54140 0.69350 -0.11000
C 	C 	0.64590 0.42660 0.15300 -0.10200
C 	C 	0.60520 0.22040 0.81720 -0.01100
C 	C 	0.06330 0.58140 0.86620 -0.14200
C 	C 	0.03070 0.69620 0.41160 0.31900
C 	C 	0.81860 0.47520 0.61540 -0.01000
C 	C 	0.06410 0.38460 0.08230 -0.03000
C 	C 	0.77700 0.39620 0.34620 -0.09500
C 	C 	0.86420 0.63460 0.94120 0.29900
C 	C 	0.11830 0.72440 0.26220 -0.10300
C 	C 	0.33520 0.20320 0.14610 -0.04100
C 	C 	0.77280 0.10160 0.70540 0.30200
C 	C 	0.13650 0.56140 0.42520 0.32000
C 	C 	0.86350 0.43860 0.57480 0.31900
C 	C 	0.18060 0.88440 0.39960 0.33800
C 	C 	0.58490 0.63760 0.76930 0.11900
C 	C 	0.48190 0.41860 0.63380 -0.11300
C 	C 	0.64660 0.70920 0.85990 -0.02200
C 	C 	0.67120 0.89840 0.79460 0.29300
C 	C 	0.31320 0.25420 0.51160 0.38000
C 	C 	0.13200 0.79680 0.35390 -0.04400
C 	C 	0.75440 0.33180 0.37650 -0.03200
C 	C 	0.25630 0.53940 0.30770 0.13400
C 	C 	0.21930 0.57340 0.34700 -0.10200
N 	N 	0.68970 0.43820 0.76970 -0.08300
N 	N 	0.48540 0.55360 0.69770 -0.09100
N 	N 	0.69570 0.40340 0.22780 -0.08600
N 	N 	0.01230 0.55280 0.22850 -0.09400
N 	N 	0.06820 0.55360 0.19770 -0.08800
N 	N 	0.93180 0.44640 0.80230 -0.09400
N 	N 	0.70770 0.40340 0.72780 -0.08600
N 	N 	0.25150 0.56180 0.73030 -0.08400
N 	N 	0.51460 0.44640 0.30230 -0.09100
N 	N 	0.54050 0.55280 0.72850 -0.08700
N 	N 	0.98770 0.44720 0.77150 -0.08100
N 	N 	0.31030 0.56180 0.23030 -0.08300
N 	N 	0.74850 0.43820 0.26970 -0.08200
N 	N 	0.30430 0.59660 0.77220 -0.08400
N 	N 	0.45950 0.44720 0.27150 -0.08600
N 	N 	0.29230 0.59660 0.27220 -0.08400
O 	O 	0.23528 0.90016 0.24732 -0.34300
O 	O 	0.20780 0.06600 0.09340 -0.41600
O 	O 	0.03276 0.71852 0.02859 -0.42600
O 	O 	0.93304 0.68928 0.59173 -0.24600
O 	O 	0.33253 0.37746 0.09005 -0.39300
O 	O 	0.21567 0.43714 0.06624 -0.36900
O 	O 	0.34748 0.09656 0.07433 -0.29500
O 	O 	0.04493 0.37746 0.59005 -0.40500
O 	O 	0.46833 0.64746 0.94780 -0.35400
O 	O 	0.68746 0.96432 0.83097 -0.24300
O 	O 	0.25092 0.90344 0.42567 -0.26300
O 	O 	0.57267 0.43734 0.95005 -0.41300
O 	O 	0.60660 0.09040 0.83547 -0.28200
O 	O 	0.29320 0.11520 0.41160 -0.43600
O 	O 	0.86467 0.43734 0.45005 -0.41500
O 	O 	0.27686 0.96432 0.33097 -0.24500
O 	O 	0.91972 0.24124 0.54853 -0.41700
O 	O 	0.72314 0.03568 0.66903 -0.29200
O 	O 	0.26036 0.43412 0.96976 -0.35400
O 	O 	0.85820 0.06600 0.59340 -0.41200
O 	O 	0.93714 0.68908 0.11424 -0.36500
O 	O 	0.66488 0.90016 0.74732 -0.34000
O 	O 	0.65801 0.09922 0.36977 -0.23000
O 	O 	0.70680 0.88480 0.58840 -0.40200
O 	O 	0.39527 0.90154 0.24544 -0.31500
O 	O 	0.24860 0.70560 0.89983 -0.25100
O 	O 	0.33512 0.09984 0.25268 -0.37200
O 	O 	0.82087 0.35254 0.55220 -0.36200
O 	O 	0.31424 0.28148 0.47141 -0.40400
O 	O 	0.39340 0.90960 0.16453 -0.24900
O 	O 	0.76472 0.09984 0.75268 -0.37200
O 	O 	0.60473 0.09846 0.75456 -0.34800
O 	O 	0.94291 0.49902 0.56716 -0.34900
O 	O 	0.88563 0.71586 0.96540 -0.27100
O 	O 	0.42733 0.56266 0.04995 -0.42100
O 	O 	0.06286 0.31092 0.88576 -0.37900
O 	O 	0.06696 0.31072 0.40827 -0.26600
O 	O 	0.05130 0.27320 0.79938 -0.27200
O 	O 	0.13533 0.56266 0.54995 -0.41900
O 	O 	0.17800 0.88480 0.08840 -0.40900
O 	O 	0.82378 0.28536 0.43065 -0.38900
O 	O 	0.77853 0.56286 0.43376 -0.36200
O 	O 	0.00607 0.62194 0.50954 -0.50300
O 	O 	0.53167 0.35254 0.05220 -0.36800
O 	O 	0.66747 0.62254 0.90995 -0.38800
O 	O 	0.62930 0.18060 0.43723 -0.41200
O 	O 	0.51620 0.90960 0.66453 -0.24700
O 	O 	0.24806 0.31092 0.38576 -0.37700
O 	O 	0.78433 0.56286 0.93376 -0.35700
O 	O 	0.55130 0.18060 0.93723 -0.40900
O 	O 	0.17622 0.71464 0.56935 -0.38600
O 	O 	0.95507 0.62254 0.40995 -0.37500
O 	O 	0.48380 0.09040 0.33547 -0.28200
O 	O 	0.44870 0.81940 0.06277 -0.40200
O 	O 	0.75194 0.68908 0.61424 -0.37100
O 	O 	0.51571 0.73082 0.48074 -0.40000
O 	O 	0.37070 0.81940 0.56277 -0.39800
O 	O 	0.38413 0.37806 0.99046 -0.48700
O 	O 	0.61587 0.62194 0.00954 -0.50100
O 	O 	0.74908 0.09656 0.57433 -0.29200
O 	O 	0.16977 0.28414 0.53460 -0.29400
O 	O 	0.99393 0.37806 0.49046 -0.48800
O 	O 	0.48429 0.26918 0.51926 -0.40700
O 	O 	0.49373 0.09846 0.25456 -0.34700
O 	O 	0.05709 0.50098 0.43284 -0.36100
O 	O 	0.22147 0.43714 0.56624 -0.36300
O 	O 	0.75140 0.29440 0.10017 -0.26700
O 	O 	0.94870 0.72680 0.20062 -0.25000
O 	O 	0.22190 0.27320 0.29938 -0.26900
O 	O 	0.53842 0.71464 0.06935 -0.38600
O 	O 	0.77810 0.72680 0.70062 -0.25500
O 	O 	0.75624 0.68928 0.09173 -0.25200
O 	O 	0.72477 0.82934 0.48490 -0.40800
O 	O 	0.44389 0.50098 0.93284 -0.35200
O 	O 	0.08028 0.75876 0.45147 -0.40300
O 	O 	0.55879 0.90078 0.13023 -0.20200
O 	O 	0.17376 0.43412 0.46976 -0.36300
O 	O 	0.82200 0.11520 0.91160 -0.43400
O 	O 	0.55611 0.49902 0.06716 -0.35700
O 	O 	0.54300 0.29440 0.60017 -0.26500
O 	O 	0.17913 0.64746 0.44780 -0.36100
O 	O 	0.10457 0.82934 0.98490 -0.41000
O 	O 	0.44121 0.09922 0.86977 -0.23100
O 	O 	0.46158 0.28536 0.93065 -0.38900
O 	O 	0.83023 0.71586 0.46540 -0.27900
O 	O 	0.14180 0.93400 0.40660 -0.37300
O 	O 	0.32152 0.24124 0.04853 -0.42000
O 	O 	0.89543 0.17066 0.01510 -0.42400
O 	O 	0.24376 0.31072 0.90827 -0.26000
O 	O 	0.65252 0.90344 0.92567 -0.25700
O 	O 	0.68576 0.71852 0.52859 -0.40000
O 	O 	0.11437 0.28414 0.03460 -0.30300
O 	O 	0.78489 0.26918 0.01926 -0.41400
O 	O 	0.27523 0.17066 0.51510 -0.42800
O 	O 	0.73964 0.56588 0.03024 -0.36600
O 	O 	0.45700 0.70560 0.39983 -0.25400
O 	O 	0.31254 0.03568 0.16903 -0.29100
O 	O 	0.21511 0.73082 0.98074 -0.39000
O 	O 	0.50627 0.90154 0.74544 -0.31400
O 	O 	0.96724 0.28148 0.97141 -0.38600
O 	O 	0.79220 0.93400 0.90660 -0.36400
O 	O 	0.82624 0.56588 0.53024 -0.35900
O 	O 	0.34199 0.90078 0.63023 -0.20200
O 	O 	0.67848 0.75876 0.95147 -0.39900
