data_crystal

_cell_length_a 10.29800
_cell_length_b 31.35110
_cell_length_c 31.46900
_cell_angle_alpha 90.00000
_cell_angle_beta  90.00000
_cell_angle_gamma 91.61590

_symmetry_space_group_name_	'P 1'
_symmetry_space_group_name_H-M	'P 1'

loop_
_symmetry_equiv_pos_as_xyz
  x,y,z

loop_
_atom_site_label
_atom_site_type_symbol
_atom_site_fract_x
_atom_site_fract_y
_atom_site_fract_z
_atom_site_charge
Zn	Zn	0.47435 0.18284 0.89374 1.20900
Zn	Zn	0.03022 0.38843 0.32115 1.22100
Zn	Zn	0.02565 0.31716 0.39374 1.20900
Zn	Zn	0.62376 0.20130 0.80904 1.21400
Zn	Zn	0.66920 0.80157 0.19427 1.21500
Zn	Zn	0.53022 0.88843 0.17885 1.22200
Zn	Zn	0.97435 0.68284 0.60626 1.20900
Zn	Zn	0.83080 0.69843 0.69427 1.21500
Zn	Zn	0.52565 0.81716 0.10626 1.20900
Zn	Zn	0.33080 0.19843 0.80573 1.21500
Zn	Zn	0.46978 0.11157 0.82115 1.22200
Zn	Zn	0.37624 0.79870 0.19096 1.21400
Zn	Zn	0.16920 0.30157 0.30573 1.21600
Zn	Zn	0.12376 0.70130 0.69096 1.21500
Zn	Zn	0.87624 0.29870 0.30904 1.21500
Zn	Zn	0.96978 0.61157 0.67885 1.22200
H 	H 	0.53310 0.01950 0.89420 0.05500
H 	H 	0.34070 0.46950 0.27090 0.09500
H 	H 	0.44840 0.25000 0.53590 0.13800
H 	H 	0.18650 0.89570 0.70240 0.07800
H 	H 	0.27920 0.33490 0.76800 0.03600
H 	H 	0.81810 0.90780 0.74210 0.05700
H 	H 	0.15930 0.03050 0.77090 0.09500
H 	H 	0.31350 0.60430 0.20240 0.07700
H 	H 	0.85270 0.17650 0.30860 0.04500
H 	H 	0.67480 0.73300 0.52360 0.08000
H 	H 	0.11030 0.27740 0.09560 0.04100
H 	H 	0.84070 0.96950 0.22910 0.09500
H 	H 	0.77920 0.83490 0.73200 0.03500
H 	H 	0.96690 0.48050 0.39420 0.05500
H 	H 	0.05160 0.25000 0.03590 0.13700
H 	H 	0.43090 0.04270 0.06710 0.06300
H 	H 	0.23100 0.97000 0.23080 0.07900
H 	H 	0.81350 0.10430 0.29760 0.07800
H 	H 	0.46690 0.98050 0.10580 0.05500
H 	H 	0.35620 0.20670 0.66590 0.05800
H 	H 	0.89650 0.96670 0.76720 0.12800
H 	H 	0.14380 0.29330 0.16590 0.05800
H 	H 	0.74130 0.22640 0.68360 0.05700
H 	H 	0.72080 0.66510 0.23200 0.03600
H 	H 	0.64380 0.79330 0.33410 0.05800
H 	H 	0.24130 0.72640 0.81640 0.05700
H 	H 	0.48570 0.71900 0.63360 0.05700
H 	H 	0.18190 0.09220 0.25790 0.05700
H 	H 	0.46990 0.63910 0.70840 0.05800
H 	H 	0.39650 0.46670 0.73280 0.12800
H 	H 	0.61030 0.77740 0.40440 0.04100
H 	H 	0.98570 0.21900 0.86640 0.05700
H 	H 	0.31810 0.40780 0.75790 0.05500
H 	H 	0.53010 0.36090 0.29160 0.05800
H 	H 	0.38970 0.22260 0.59560 0.04100
H 	H 	0.56910 0.95730 0.93290 0.06300
H 	H 	0.73100 0.47000 0.26920 0.07900
H 	H 	0.14730 0.82350 0.69140 0.04500
H 	H 	0.93090 0.54270 0.43290 0.06400
H 	H 	0.77120 0.24420 0.61220 0.07000
H 	H 	0.72880 0.25580 0.11220 0.07000
H 	H 	0.76900 0.03000 0.76920 0.07900
H 	H 	0.94510 0.57980 0.49680 0.05800
H 	H 	0.94840 0.75000 0.96410 0.13700
H 	H 	0.82520 0.76700 0.02360 0.08000
H 	H 	0.75870 0.27360 0.18360 0.05700
H 	H 	0.85620 0.70670 0.83410 0.05800
H 	H 	0.68190 0.59220 0.24210 0.05500
H 	H 	0.06910 0.45730 0.56710 0.06400
H 	H 	0.51430 0.28100 0.36640 0.05700
H 	H 	0.17480 0.23300 0.97640 0.08000
H 	H 	0.44510 0.07980 0.00320 0.05800
H 	H 	0.26900 0.53000 0.73080 0.07900
H 	H 	0.22080 0.16510 0.26800 0.03500
H 	H 	0.78260 0.23660 0.97380 0.10000
H 	H 	0.05490 0.42020 0.50320 0.05800
H 	H 	0.03010 0.86090 0.20840 0.05800
H 	H 	0.10350 0.03330 0.23280 0.12800
H 	H 	0.88970 0.72260 0.90440 0.04100
H 	H 	0.55160 0.75000 0.46410 0.13800
H 	H 	0.22880 0.75580 0.38780 0.07000
H 	H 	0.03310 0.51950 0.60580 0.05500
H 	H 	0.01430 0.78100 0.13360 0.05700
H 	H 	0.71740 0.26340 0.47380 0.10100
H 	H 	0.68650 0.39570 0.79760 0.07700
H 	H 	0.65930 0.53050 0.72910 0.09500
H 	H 	0.21740 0.76340 0.02620 0.10000
H 	H 	0.32520 0.26700 0.47640 0.08000
H 	H 	0.64730 0.32350 0.80860 0.04700
H 	H 	0.27120 0.74420 0.88780 0.07000
H 	H 	0.28260 0.73660 0.52620 0.10100
H 	H 	0.35270 0.67650 0.19140 0.04700
H 	H 	0.25870 0.77360 0.31640 0.05700
H 	H 	0.55490 0.92020 0.99680 0.05800
H 	H 	0.96990 0.13910 0.79160 0.05800
H 	H 	0.60350 0.53330 0.26720 0.12800
C 	C 	0.97539 0.51879 0.49025 0.03200
C 	C 	0.04579 0.71609 0.81976 -0.07000
C 	C 	0.97876 0.23676 0.98265 0.13900
C 	C 	0.03607 0.97667 0.23205 0.13000
C 	C 	0.51556 0.94406 0.05474 -0.07400
C 	C 	0.02367 0.40887 0.41270 0.37100
C 	C 	0.49358 0.59058 0.22276 -0.01100
C 	C 	0.63590 0.27490 0.41722 -0.08700
C 	C 	0.92186 0.26426 0.09575 -0.04100
C 	C 	0.48444 0.05594 0.94526 -0.07400
C 	C 	0.41797 0.45497 0.27304 -0.08100
C 	C 	0.50642 0.40942 0.77724 -0.01100
C 	C 	0.43829 0.21409 0.65543 -0.01300
C 	C 	0.71964 0.71464 0.60473 0.39200
C 	C 	0.04010 0.17800 0.28911 -0.14000
C 	C 	0.06171 0.28591 0.15543 -0.01400
C 	C 	0.35121 0.58801 0.71923 -0.07000
C 	C 	0.59646 0.72276 0.58141 -0.06800
C 	C 	0.17086 0.72646 0.83481 -0.00300
C 	C 	0.54290 0.98180 0.94682 -0.08200
C 	C 	0.11364 0.74674 0.94967 0.25200
C 	C 	0.54822 0.71802 0.20090 0.34200
C 	C 	0.21067 0.11297 0.78915 0.42100
C 	C 	0.28036 0.28536 0.39527 0.39200
C 	C 	0.86141 0.23331 0.95995 -0.07700
C 	C 	0.40354 0.27724 0.41859 -0.06800
C 	C 	0.88636 0.25326 0.05033 0.25200
C 	C 	0.21964 0.21464 0.89527 0.39200
C 	C 	0.57814 0.23574 0.59575 -0.04300
C 	C 	0.31080 0.76320 0.37732 -0.03900
C 	C 	0.95421 0.28391 0.18024 -0.07000
C 	C 	0.09680 0.23110 0.96154 -0.09100
C 	C 	0.47876 0.73676 0.51735 0.13900
C 	C 	0.11594 0.10914 0.26804 -0.07800
C 	C 	0.97633 0.59113 0.58730 0.37100
C 	C 	0.46107 0.22397 0.61367 -0.02900
C 	C 	0.02210 0.51910 0.57648 -0.00100
C 	C 	0.86410 0.22510 0.91722 -0.08700
C 	C 	0.36141 0.73331 0.54005 -0.07700
C 	C 	0.15189 0.95529 0.22782 -0.08600
C 	C 	0.00642 0.90942 0.72276 -0.00700
C 	C 	0.24661 0.71741 0.60624 0.41800
C 	C 	0.46135 0.54435 0.23132 0.22900
C 	C 	0.52675 0.20565 0.72426 0.34300
C 	C 	0.38406 0.39086 0.76804 -0.07300
C 	C 	0.96860 0.11000 0.78556 0.01000
C 	C 	0.96393 0.02333 0.76795 0.13000
C 	C 	0.59680 0.73110 0.53846 -0.09100
C 	C 	0.25339 0.78259 0.10624 0.41800
C 	C 	0.98444 0.55594 0.55474 -0.07500
C 	C 	0.47633 0.09113 0.91270 0.37000
C 	C 	0.02461 0.48121 0.50975 0.03200
C 	C 	0.07814 0.73574 0.90425 -0.04100
C 	C 	0.76925 0.38885 0.29287 0.40800
C 	C 	0.54579 0.21609 0.68024 -0.07100
C 	C 	0.46393 0.52333 0.73205 0.13200
C 	C 	0.41855 0.65965 0.20177 0.03500
C 	C 	0.01629 0.77819 0.10414 0.01600
C 	C 	0.52367 0.90887 0.08730 0.37000
C 	C 	0.01556 0.44406 0.44526 -0.07500
C 	C 	0.97325 0.29435 0.22426 0.34500
C 	C 	0.46860 0.61000 0.71444 0.01000
C 	C 	0.45710 0.01820 0.05318 -0.08200
C 	C 	0.88406 0.89086 0.73196 -0.07800
C 	C 	0.53865 0.45565 0.76868 0.22900
C 	C 	0.96519 0.55499 0.51124 -0.04000
C 	C 	0.98371 0.22181 0.89586 0.01600
C 	C 	0.08203 0.04503 0.77304 -0.07900
C 	C 	0.26925 0.88885 0.20713 0.40800
C 	C 	0.52124 0.26324 0.48265 0.13900
C 	C 	0.63859 0.26669 0.45995 -0.07700
C 	C 	0.90354 0.77724 0.08141 -0.06800
C 	C 	0.61594 0.60914 0.23196 -0.07300
C 	C 	0.41532 0.41112 0.28145 -0.07000
C 	C 	0.68920 0.23680 0.62268 -0.03900
C 	C 	0.95710 0.51820 0.44682 -0.08200
C 	C 	0.02675 0.70565 0.77574 0.34500
C 	C 	0.13947 0.15287 0.27402 0.04300
C 	C 	0.58203 0.54503 0.72696 -0.08100
C 	C 	0.39538 0.61628 0.20808 -0.06700
C 	C 	0.95990 0.82200 0.71089 -0.14000
C 	C 	0.14879 0.91199 0.21923 -0.07000
C 	C 	0.96135 0.04435 0.26868 0.22900
C 	C 	0.82914 0.27354 0.16519 -0.00300
C 	C 	0.04822 0.21802 0.29910 0.34100
C 	C 	0.95178 0.78198 0.70090 0.34100
C 	C 	0.58468 0.58888 0.71855 -0.07000
C 	C 	0.42186 0.76426 0.40425 -0.04300
C 	C 	0.36410 0.72510 0.58278 -0.08700
C 	C 	0.10462 0.88372 0.70808 -0.07100
C 	C 	0.47790 0.98090 0.07648 -0.00200
C 	C 	0.60462 0.38372 0.79192 -0.06700
C 	C 	0.89538 0.11628 0.29192 -0.07100
C 	C 	0.28933 0.38703 0.28915 0.42100
C 	C 	0.53140 0.39000 0.28556 0.01000
C 	C 	0.93829 0.71409 0.84457 -0.01400
C 	C 	0.47325 0.79435 0.27574 0.34300
C 	C 	0.02124 0.76324 0.01735 0.13900
C 	C 	0.36053 0.34713 0.77402 0.03900
C 	C 	0.04290 0.48180 0.55318 -0.08200
C 	C 	0.03140 0.89000 0.21444 0.01000
C 	C 	0.45990 0.32200 0.78911 -0.13600
C 	C 	0.32914 0.77354 0.33481 -0.00300
C 	C 	0.53481 0.94501 0.01124 -0.04100
C 	C 	0.45178 0.28198 0.79910 0.34200
C 	C 	0.84811 0.04471 0.77218 -0.08600
C 	C 	0.64879 0.41199 0.28077 -0.07000
C 	C 	0.67086 0.22646 0.66519 -0.00300
C 	C 	0.13590 0.77490 0.08278 -0.08700
C 	C 	0.71067 0.61297 0.71085 0.42100
C 	C 	0.75339 0.28259 0.39376 0.41800
C 	C 	0.85121 0.08801 0.78077 -0.07000
C 	C 	0.08468 0.08888 0.78145 -0.07000
C 	C 	0.58145 0.34035 0.79823 0.03500
C 	C 	0.51629 0.27819 0.39586 0.01600
C 	C 	0.53607 0.47667 0.26795 0.13200
C 	C 	0.91797 0.95497 0.22696 -0.07900
C 	C 	0.48371 0.72181 0.60414 0.01600
C 	C 	0.40320 0.26890 0.46154 -0.09100
C 	C 	0.78036 0.78536 0.10473 0.39200
C 	C 	0.81080 0.26320 0.12268 -0.04000
C 	C 	0.96107 0.72397 0.88633 -0.03100
C 	C 	0.47539 0.01879 0.00975 0.03100
C 	C 	0.97790 0.48090 0.42352 -0.00100
C 	C 	0.53893 0.77603 0.38633 -0.02900
C 	C 	0.99358 0.09058 0.27724 -0.00700
C 	C 	0.38636 0.75326 0.44967 0.25300
C 	C 	0.61364 0.24674 0.55033 0.25300
C 	C 	0.54010 0.67800 0.21089 -0.13600
C 	C 	0.78933 0.88703 0.21085 0.42100
C 	C 	0.65189 0.45529 0.27218 -0.08700
C 	C 	0.91532 0.91112 0.21855 -0.07000
C 	C 	0.03865 0.95565 0.73132 0.22900
C 	C 	0.73075 0.11115 0.79287 0.40800
C 	C 	0.18920 0.73680 0.87732 -0.04000
C 	C 	0.52461 0.98121 0.99025 0.03100
C 	C 	0.86053 0.84713 0.72598 0.04300
C 	C 	0.46519 0.05499 0.98876 -0.04100
C 	C 	0.08145 0.84035 0.70177 0.04000
C 	C 	0.90320 0.76890 0.03846 -0.09100
C 	C 	0.23075 0.61115 0.70713 0.40800
C 	C 	0.34811 0.54471 0.72782 -0.08700
C 	C 	0.56171 0.78591 0.34457 -0.01300
C 	C 	0.03481 0.44501 0.48876 -0.04000
C 	C 	0.03893 0.27603 0.11367 -0.03100
C 	C 	0.91855 0.15965 0.29823 0.04000
C 	C 	0.09646 0.22276 0.91859 -0.06800
C 	C 	0.63947 0.65287 0.22598 0.03900
C 	C 	0.52210 0.01910 0.92352 -0.00200
C 	C 	0.74661 0.21741 0.89376 0.41800
C 	C 	0.13859 0.76669 0.04005 -0.07700
C 	C 	0.45421 0.78391 0.31976 -0.07100
N 	N 	0.96127 0.98086 0.75634 -0.23800
N 	N 	0.97560 0.24710 0.02475 -0.26600
N 	N 	0.47560 0.74710 0.47525 -0.26700
N 	N 	0.46127 0.48086 0.74366 -0.23800
N 	N 	0.03873 0.01914 0.24366 -0.23800
N 	N 	0.53873 0.51914 0.25634 -0.23800
N 	N 	0.02440 0.75290 0.97525 -0.26600
N 	N 	0.52440 0.25290 0.52475 -0.26700
O 	O 	0.82019 0.70904 0.58202 -0.47900
O 	O 	0.78557 0.79155 0.14285 -0.48800
O 	O 	0.17981 0.29096 0.41798 -0.47900
O 	O 	0.16707 0.24336 0.28845 -0.43000
O 	O 	0.76867 0.25128 0.04347 -0.23500
O 	O 	0.45651 0.73413 0.18432 -0.45100
O 	O 	0.98085 0.62889 0.57559 -0.48900
O 	O 	0.37258 0.78404 0.25415 -0.43600
O 	O 	0.52553 0.92127 0.12673 -0.48000
O 	O 	0.25104 0.71933 0.64519 -0.47700
O 	O 	0.47490 0.17038 0.83316 -0.95000
O 	O 	0.42166 0.18860 0.73423 -0.39700
O 	O 	0.74896 0.28067 0.35481 -0.47700
O 	O 	0.33293 0.25664 0.78845 -0.42900
O 	O 	0.02553 0.42127 0.37327 -0.48000
O 	O 	0.70655 0.65174 0.71172 -0.49200
O 	O 	0.26867 0.75128 0.45653 -0.23500
O 	O 	0.28557 0.29155 0.35715 -0.48800
O 	O 	0.26245 0.85119 0.20009 -0.49000
O 	O 	0.73755 0.14881 0.79991 -0.49000
O 	O 	0.87508 0.41049 0.29341 -0.47700
O 	O 	0.12492 0.58951 0.70659 -0.47700
O 	O 	0.47447 0.07873 0.87327 -0.48000
O 	O 	0.20655 0.15174 0.78828 -0.49100
O 	O 	0.66707 0.74336 0.21155 -0.42900
O 	O 	0.63199 0.46874 0.78503 -0.23200
O 	O 	0.69254 0.90878 0.20549 -0.49600
O 	O 	0.62492 0.08951 0.79341 -0.47700
O 	O 	0.30746 0.09122 0.79451 -0.49600
O 	O 	0.86801 0.03126 0.28503 -0.23200
O 	O 	0.97447 0.57873 0.62673 -0.48000
O 	O 	0.12742 0.71596 0.75415 -0.43600
O 	O 	0.23755 0.64881 0.70009 -0.48900
O 	O 	0.97490 0.67038 0.66684 -0.95000
O 	O 	0.79345 0.84826 0.21172 -0.49100
O 	O 	0.19254 0.40878 0.29451 -0.49600
O 	O 	0.76245 0.35119 0.29991 -0.48900
O 	O 	0.71443 0.70845 0.64285 -0.48800
O 	O 	0.32019 0.20904 0.91798 -0.47900
O 	O 	0.04349 0.76587 0.68432 -0.45000
O 	O 	0.37508 0.91049 0.20659 -0.47700
O 	O 	0.36801 0.53126 0.21497 -0.23200
O 	O 	0.83293 0.75664 0.71155 -0.43000
O 	O 	0.80746 0.59122 0.70549 -0.49600
O 	O 	0.95651 0.23413 0.31568 -0.45000
O 	O 	0.29345 0.34826 0.28828 -0.49200
O 	O 	0.62742 0.21596 0.74585 -0.43600
O 	O 	0.73133 0.24872 0.54347 -0.23500
O 	O 	0.48085 0.12889 0.92441 -0.48900
O 	O 	0.02510 0.32962 0.33316 -0.95000
O 	O 	0.67981 0.79096 0.08202 -0.47900
O 	O 	0.35524 0.78892 0.08563 -0.47500
O 	O 	0.54349 0.26587 0.81568 -0.45100
O 	O 	0.13199 0.96874 0.71497 -0.23200
O 	O 	0.51915 0.87111 0.07559 -0.48900
O 	O 	0.64476 0.21108 0.91437 -0.47500
O 	O 	0.07834 0.31140 0.23423 -0.39900
O 	O 	0.85524 0.28892 0.41437 -0.47400
O 	O 	0.57834 0.81140 0.26577 -0.39700
O 	O 	0.75104 0.21933 0.85481 -0.47800
O 	O 	0.92166 0.68860 0.76577 -0.39900
O 	O 	0.24896 0.78067 0.14519 -0.47800
O 	O 	0.87258 0.28404 0.24585 -0.43600
O 	O 	0.01915 0.37111 0.42441 -0.48900
O 	O 	0.14476 0.71108 0.58563 -0.47400
O 	O 	0.52510 0.82962 0.16684 -0.95000
O 	O 	0.21443 0.20845 0.85715 -0.48800
O 	O 	0.23133 0.74872 0.95653 -0.23500
