data_crystal

_cell_length_a 10.30600
_cell_length_b 26.23200
_cell_length_c 27.77600
_cell_angle_alpha 90.00000
_cell_angle_beta  90.00000
_cell_angle_gamma 91.84000

_symmetry_space_group_name_	'P 1'
_symmetry_space_group_name_H-M	'P 1'

loop_
_symmetry_equiv_pos_as_xyz
  x,y,z

loop_
_atom_site_label
_atom_site_type_symbol
_atom_site_fract_x
_atom_site_fract_y
_atom_site_fract_z
_atom_site_charge
Zn	Zn	0.31448 0.22739 0.16849 1.22000
Zn	Zn	0.04443 0.37254 0.66291 1.21700
Zn	Zn	0.89193 0.26662 0.66326 1.21900
Zn	Zn	0.04077 0.29993 0.56787 1.21800
Zn	Zn	0.68552 0.77261 0.83151 1.22000
Zn	Zn	0.81448 0.72739 0.33151 1.22000
Zn	Zn	0.95557 0.62746 0.33709 1.21700
Zn	Zn	0.45557 0.12746 0.16291 1.21700
Zn	Zn	0.95923 0.70007 0.43213 1.21800
Zn	Zn	0.18552 0.27261 0.66849 1.22000
Zn	Zn	0.54077 0.79993 0.93213 1.21800
Zn	Zn	0.60807 0.23338 0.16326 1.21900
Zn	Zn	0.54443 0.87254 0.83709 1.21700
Zn	Zn	0.39193 0.76662 0.83674 1.21900
Zn	Zn	0.10807 0.73338 0.33674 1.22000
Zn	Zn	0.45923 0.20007 0.06787 1.21900
H 	H 	0.20790 0.77250 0.10300 0.09000
H 	H 	0.54790 0.34190 0.68420 0.04700
H 	H 	0.86120 0.96300 0.76550 0.04200
H 	H 	0.34180 0.24540 0.47240 0.04000
H 	H 	0.29210 0.72750 0.60300 0.09000
H 	H 	0.36310 0.18960 0.32280 0.02100
H 	H 	0.63510 0.80280 0.59440 0.09000
H 	H 	0.27110 0.45130 0.27230 0.09000
H 	H 	0.25110 0.96510 0.76900 0.04500
H 	H 	0.02450 0.42170 0.46600 0.05200
H 	H 	0.36490 0.19720 0.40560 0.09000
H 	H 	0.79680 0.23580 0.81500 0.02200
H 	H 	0.90080 0.10110 0.67370 0.02200
H 	H 	0.73150 0.24400 0.47390 0.03900
H 	H 	0.72890 0.54870 0.72770 0.09000
H 	H 	0.10720 0.97950 0.29410 0.08900
H 	H 	0.51490 0.00830 0.91880 0.05200
H 	H 	0.86490 0.69720 0.09440 0.09000
H 	H 	0.47550 0.07830 0.96600 0.05200
H 	H 	0.15820 0.25460 0.97240 0.04100
H 	H 	0.73490 0.62990 0.75780 0.02300
H 	H 	0.76850 0.25600 0.97390 0.03900
H 	H 	0.13510 0.30280 0.90560 0.09000
H 	H 	0.23150 0.74400 0.02610 0.03900
H 	H 	0.52450 0.92170 0.03400 0.05200
H 	H 	0.95210 0.15810 0.18420 0.04700
H 	H 	0.04790 0.84190 0.81580 0.04700
H 	H 	0.53570 0.25470 0.59750 0.04300
H 	H 	0.09920 0.89890 0.32630 0.02200
H 	H 	0.65820 0.75460 0.52760 0.04000
H 	H 	0.29680 0.73580 0.68500 0.02200
H 	H 	0.77110 0.95130 0.22770 0.09000
H 	H 	0.98510 0.49170 0.41880 0.05200
H 	H 	0.40080 0.60110 0.82630 0.02200
H 	H 	0.97550 0.57830 0.53400 0.05200
H 	H 	0.86310 0.68960 0.17720 0.02100
H 	H 	0.63880 0.53700 0.26550 0.04200
H 	H 	0.76510 0.87010 0.25780 0.02300
H 	H 	0.75110 0.46510 0.73100 0.04500
H 	H 	0.13690 0.31040 0.82280 0.02100
H 	H 	0.84180 0.74540 0.02760 0.04100
H 	H 	0.39280 0.52050 0.79410 0.09000
H 	H 	0.59920 0.39890 0.17370 0.02200
H 	H 	0.13880 0.03700 0.23450 0.04200
H 	H 	0.63690 0.81040 0.67720 0.02100
H 	H 	0.60720 0.47950 0.20590 0.09000
H 	H 	0.20320 0.76420 0.18500 0.02200
H 	H 	0.45210 0.65810 0.31580 0.04700
H 	H 	0.96430 0.24530 0.09750 0.04300
H 	H 	0.24890 0.53490 0.26900 0.04500
H 	H 	0.22890 0.04870 0.77230 0.09000
H 	H 	0.26510 0.37010 0.24220 0.02300
H 	H 	0.48510 0.99170 0.08120 0.05200
H 	H 	0.79210 0.22750 0.89700 0.09000
H 	H 	0.89280 0.02050 0.70590 0.08900
H 	H 	0.26850 0.75600 0.52610 0.03900
H 	H 	0.70320 0.26420 0.31500 0.02200
H 	H 	0.01490 0.50830 0.58120 0.05200
H 	H 	0.46430 0.74530 0.40250 0.04300
H 	H 	0.74890 0.03490 0.23100 0.04500
H 	H 	0.70790 0.27250 0.39700 0.09000
H 	H 	0.03570 0.75470 0.90250 0.04300
H 	H 	0.23490 0.12990 0.74220 0.02300
H 	H 	0.36120 0.46300 0.73450 0.04200
C 	C 	0.29490 0.25889 0.56575 0.39200
C 	C 	0.86290 0.24410 0.88242 -0.15600
C 	C 	0.98720 0.54675 0.51961 -0.01400
C 	C 	0.15170 0.74951 0.96042 -0.11500
C 	C 	0.16570 0.10783 0.73441 0.08200
C 	C 	0.41960 0.25155 0.53892 -0.11500
C 	C 	0.53690 0.24248 0.46359 -0.05200
C 	C 	0.99300 0.49570 0.45191 -0.01300
C 	C 	0.77690 0.25418 0.56723 0.39900
C 	C 	0.08040 0.24845 0.03892 -0.11400
C 	C 	0.84830 0.25049 0.03958 -0.11500
C 	C 	0.66570 0.60783 0.76559 0.08300
C 	C 	0.33230 0.60006 0.29467 -0.10200
C 	C 	0.56140 0.55287 0.27224 0.01300
C 	C 	0.56660 0.78870 0.61233 -0.15400
C 	C 	0.57990 0.75365 0.51089 0.01800
C 	C 	0.42740 0.32205 0.18547 0.39000
C 	C 	0.46430 0.76327 0.58918 0.10600
C 	C 	0.58040 0.74845 0.46108 -0.11500
C 	C 	0.78990 0.37543 0.68888 0.37700
C 	C 	0.03170 0.72630 0.18975 -0.14700
C 	C 	0.46830 0.77370 0.68975 -0.14800
C 	C 	0.33810 0.44099 0.25250 -0.15600
C 	C 	0.20510 0.24111 0.06575 0.39200
C 	C 	0.55000 0.37461 0.69719 0.04200
C 	C 	0.83430 0.89217 0.26559 0.08200
C 	C 	0.91960 0.75155 0.96108 -0.11400
C 	C 	0.96410 0.24769 0.06407 0.05400
C 	C 	0.06880 0.12442 0.70492 -0.14200
C 	C 	0.28990 0.87543 0.81112 0.37700
C 	C 	0.97200 0.27923 0.75666 0.39400
C 	C 	0.66770 0.39994 0.70533 -0.10200
C 	C 	0.53310 0.40911 0.19390 0.07900
C 	C 	0.92010 0.74635 0.01089 0.01600
C 	C 	0.96730 0.58920 0.43992 0.39100
C 	C 	0.96320 0.04225 0.71289 -0.15200
C 	C 	0.96830 0.27370 0.81025 -0.14700
C 	C 	0.03590 0.75231 0.93593 0.05400
C 	C 	0.50700 0.00430 0.95191 -0.01400
C 	C 	0.03680 0.95775 0.28711 -0.15200
C 	C 	0.13440 0.75080 0.16685 0.08500
C 	C 	0.06120 0.02504 0.74199 0.10300
C 	C 	0.84750 0.25482 0.98999 0.01900
C 	C 	0.51520 0.95724 0.97110 -0.08300
C 	C 	0.93480 0.89815 0.79159 -0.10500
C 	C 	0.65170 0.24951 0.53958 -0.11600
C 	C 	0.42010 0.24635 0.48911 0.01800
C 	C 	0.69030 0.62979 0.30390 0.39000
C 	C 	0.36560 0.74920 0.66685 0.08500
C 	C 	0.43480 0.39815 0.70841 -0.10600
C 	C 	0.83810 0.94099 0.24750 -0.15500
C 	C 	0.96310 0.25752 0.96359 -0.05100
C 	C 	0.05680 0.97291 0.76282 -0.04600
C 	C 	0.47200 0.77923 0.74334 0.39300
C 	C 	0.57260 0.67795 0.81453 0.39000
C 	C 	0.07990 0.25365 0.98911 0.01600
C 	C 	0.93340 0.71130 0.11233 -0.15400
C 	C 	0.01280 0.45325 0.48039 -0.01400
C 	C 	0.06730 0.29340 0.83776 0.08100
C 	C 	0.16770 0.89994 0.79467 -0.10200
C 	C 	0.63710 0.25590 0.38242 -0.15600
C 	C 	0.46690 0.59089 0.80610 0.07900
C 	C 	0.33430 0.39217 0.23441 0.08300
C 	C 	0.65250 0.24518 0.48999 0.02000
C 	C 	0.22310 0.74582 0.43277 0.39900
C 	C 	0.43880 0.47496 0.24199 0.10600
C 	C 	0.56120 0.52504 0.75801 0.10600
C 	C 	0.43120 0.37558 0.20492 -0.14200
C 	C 	0.13710 0.75590 0.11758 -0.15600
C 	C 	0.06520 0.10185 0.20841 -0.10500
C 	C 	0.43270 0.20660 0.33776 0.08200
C 	C 	0.86560 0.24920 0.83315 0.08500
C 	C 	0.53270 0.91080 0.93992 0.39100
C 	C 	0.21010 0.62457 0.31112 0.37700
C 	C 	0.17140 0.94854 0.77465 0.01000
C 	C 	0.46310 0.75752 0.53641 -0.05200
C 	C 	0.93120 0.87558 0.29508 -0.14200
C 	C 	0.67140 0.44854 0.72535 0.01000
C 	C 	0.56730 0.79340 0.66224 0.08200
C 	C 	0.83230 0.10006 0.20533 -0.10200
C 	C 	0.93860 0.94713 0.77224 0.01300
C 	C 	0.06140 0.05287 0.22776 0.01300
C 	C 	0.15250 0.74518 0.01001 0.01900
C 	C 	0.56880 0.62442 0.79508 -0.14200
C 	C 	0.48720 0.04675 0.98039 -0.01500
C 	C 	0.49300 0.99570 0.04809 -0.01400
C 	C 	0.05000 0.87461 0.80281 0.04200
C 	C 	0.71010 0.12457 0.18888 0.37700
C 	C 	0.70510 0.74111 0.43425 0.39200
C 	C 	0.00700 0.50430 0.54809 -0.01300
C 	C 	0.92740 0.82205 0.31453 0.38900
C 	C 	0.30970 0.37021 0.69610 0.39000
C 	C 	0.46320 0.54225 0.78711 -0.15400
C 	C 	0.56520 0.60185 0.29159 -0.10600
C 	C 	0.53170 0.22630 0.31025 -0.14800
C 	C 	0.34750 0.75482 0.51001 0.02000
C 	C 	0.94320 0.02709 0.23718 -0.04600
C 	C 	0.55680 0.47291 0.73718 -0.04700
C 	C 	0.52800 0.22077 0.25666 0.39300
C 	C 	0.48480 0.04276 0.02890 -0.08300
C 	C 	0.02800 0.72077 0.24334 0.39400
C 	C 	0.82860 0.05146 0.22535 0.01000
C 	C 	0.93880 0.97496 0.25801 0.10300
C 	C 	0.01520 0.45724 0.52890 -0.08300
C 	C 	0.63440 0.25080 0.33315 0.08500
C 	C 	0.43860 0.44713 0.72776 0.01300
C 	C 	0.53680 0.45775 0.21289 -0.15400
C 	C 	0.36290 0.74410 0.61758 -0.15600
C 	C 	0.46730 0.08920 0.06008 0.39100
C 	C 	0.03270 0.41080 0.56008 0.39100
C 	C 	0.03690 0.74248 0.03641 -0.05100
C 	C 	0.53570 0.23673 0.41082 0.10600
C 	C 	0.96430 0.26327 0.91082 0.10600
C 	C 	0.72310 0.24582 0.06723 0.39900
C 	C 	0.06660 0.28870 0.88767 -0.15400
C 	C 	0.51280 0.95325 0.01961 -0.01500
C 	C 	0.45000 0.62539 0.30281 0.04200
C 	C 	0.43340 0.21130 0.38767 -0.15400
C 	C 	0.27690 0.75418 0.93277 0.39900
C 	C 	0.44320 0.52709 0.26282 -0.04700
C 	C 	0.34830 0.75049 0.46042 -0.11600
C 	C 	0.19030 0.12979 0.19610 0.39000
C 	C 	0.95000 0.12539 0.19719 0.04200
C 	C 	0.79490 0.75889 0.93425 0.39200
C 	C 	0.98480 0.54276 0.47110 -0.08300
C 	C 	0.46410 0.74769 0.43593 0.05400
C 	C 	0.93270 0.70660 0.16224 0.08100
C 	C 	0.66190 0.55901 0.74750 -0.15600
C 	C 	0.32860 0.55146 0.27465 0.01000
C 	C 	0.03570 0.73673 0.08918 0.10600
C 	C 	0.53590 0.25231 0.56407 0.05400
C 	C 	0.16190 0.05901 0.75250 -0.15500
C 	C 	0.03310 0.90911 0.30610 0.08000
C 	C 	0.96690 0.09089 0.69390 0.08000
C 	C 	0.80970 0.87021 0.80390 0.39000
C 	C 	0.07260 0.17795 0.68547 0.38900
O 	O 	0.62210 0.23303 0.04424 -0.48800
O 	O 	0.03590 0.36828 0.53896 -0.48400
O 	O 	0.32720 0.29500 0.19573 -0.47300
O 	O 	0.82720 0.79500 0.30427 -0.47300
O 	O 	0.62220 0.24053 0.23345 -0.46500
O 	O 	0.39610 0.89923 0.80275 -0.46600
O 	O 	0.19560 0.26968 0.54094 -0.48400
O 	O 	0.27020 0.74523 0.88852 -0.47000
O 	O 	0.22160 0.66584 0.33268 -0.46000
O 	O 	0.60390 0.10077 0.19725 -0.46600
O 	O 	0.72980 0.25477 0.11148 -0.47000
O 	O 	0.72160 0.16584 0.16732 -0.46000
O 	O 	0.12210 0.73303 0.45576 -0.48800
O 	O 	0.77020 0.24523 0.61148 -0.47000
O 	O 	0.45771 0.19544 0.13662 -0.93400
O 	O 	0.45840 0.08201 0.10414 -0.48000
O 	O 	0.93230 0.69919 0.26196 -0.46300
O 	O 	0.31580 0.32303 0.69061 -0.48200
O 	O 	0.87790 0.26697 0.54424 -0.48800
O 	O 	0.68420 0.67697 0.30939 -0.48200
O 	O 	0.79010 0.60333 0.30865 -0.47600
O 	O 	0.29010 0.10333 0.19135 -0.47500
O 	O 	0.37790 0.76697 0.95576 -0.48800
O 	O 	0.81580 0.82303 0.80939 -0.48200
O 	O 	0.02130 0.80730 0.33823 -0.45900
O 	O 	0.46410 0.13172 0.03896 -0.48400
O 	O 	0.20170 0.24570 0.11004 -0.47000
O 	O 	0.06770 0.30081 0.73804 -0.46300
O 	O 	0.53590 0.86828 0.96104 -0.48400
O 	O 	0.10390 0.60077 0.30275 -0.46600
O 	O 	0.70990 0.89667 0.80865 -0.47500
O 	O 	0.04229 0.30456 0.63662 -0.93500
O 	O 	0.54229 0.80456 0.86338 -0.93400
O 	O 	0.20990 0.39667 0.69135 -0.47600
O 	O 	0.18420 0.17697 0.19061 -0.48200
O 	O 	0.87780 0.25947 0.73345 -0.46500
O 	O 	0.95771 0.69544 0.36338 -0.93500
O 	O 	0.67280 0.70500 0.80427 -0.47300
O 	O 	0.80440 0.73032 0.45906 -0.48400
O 	O 	0.29830 0.25430 0.61004 -0.47000
O 	O 	0.69560 0.76968 0.95906 -0.48400
O 	O 	0.54160 0.91799 0.89586 -0.48000
O 	O 	0.47870 0.69270 0.83823 -0.46100
O 	O 	0.30440 0.23032 0.04094 -0.48400
O 	O 	0.52130 0.30730 0.16177 -0.46100
O 	O 	0.95840 0.58201 0.39586 -0.48000
O 	O 	0.43230 0.19919 0.23804 -0.46200
O 	O 	0.56770 0.80081 0.76196 -0.46200
O 	O 	0.77840 0.33416 0.66732 -0.46000
O 	O 	0.79830 0.75430 0.88996 -0.47000
O 	O 	0.22980 0.75477 0.38852 -0.47000
O 	O 	0.12220 0.74053 0.26655 -0.46500
O 	O 	0.37780 0.75947 0.76655 -0.46500
O 	O 	0.70170 0.74570 0.38996 -0.47000
O 	O 	0.97870 0.19270 0.66177 -0.45900
O 	O 	0.17280 0.20500 0.69573 -0.47300
O 	O 	0.96410 0.63172 0.46104 -0.48400
O 	O 	0.27840 0.83416 0.83268 -0.46000
O 	O 	0.04160 0.41799 0.60414 -0.48000
O 	O 	0.89610 0.39923 0.69725 -0.46600
