data_crystal

_cell_length_a 12.60110
_cell_length_b 13.73640
_cell_length_c 17.28740
_cell_angle_alpha 90.00000
_cell_angle_beta  90.00000
_cell_angle_gamma 90.00000

_symmetry_space_group_name_	'P 1'
_symmetry_space_group_name_H-M	'P 1'

loop_
_symmetry_equiv_pos_as_xyz
  x,y,z

loop_
_atom_site_label
_atom_site_type_symbol
_atom_site_fract_x
_atom_site_fract_y
_atom_site_fract_z
_atom_site_charge
V 	V 	0.75024 0.12483 0.75061 1.81300
V 	V 	0.24976 0.12483 0.25061 1.81200
V 	V 	0.75024 0.37517 0.75061 1.81100
V 	V 	0.75024 0.87517 0.74939 1.80600
V 	V 	0.75024 0.62483 0.74939 1.81100
V 	V 	0.24976 0.62483 0.24939 1.81100
V 	V 	0.24976 0.87517 0.24939 1.80600
V 	V 	0.24976 0.37517 0.25061 1.81100
H 	H 	0.06850 0.10370 0.45450 0.05500
H 	H 	0.55310 0.85360 0.94690 0.02200
H 	H 	0.54760 0.64480 0.55840 0.04600
H 	H 	0.55310 0.14640 0.55310 0.07400
H 	H 	0.44690 0.35360 0.05310 0.04300
H 	H 	0.96810 0.10430 0.56670 0.05300
H 	H 	0.44690 0.85360 0.44690 0.01900
H 	H 	0.03190 0.60430 0.43330 0.04900
H 	H 	0.11160 0.50000 0.25000 0.35500
H 	H 	0.44690 0.14640 0.05310 0.07100
H 	H 	0.06850 0.89630 0.04550 0.03700
H 	H 	0.06850 0.60370 0.04550 0.04500
H 	H 	0.38600 0.75000 0.26800 0.32700
H 	H 	0.55310 0.35360 0.55310 0.04600
H 	H 	0.96810 0.60430 0.93330 0.05000
H 	H 	0.06850 0.39630 0.45450 0.04800
H 	H 	0.88840 0.50000 0.75000 0.35500
H 	H 	0.54760 0.85520 0.55840 0.08100
H 	H 	0.96810 0.89570 0.93330 0.04300
H 	H 	0.93150 0.89630 0.54550 0.03800
H 	H 	0.03190 0.39570 0.06670 0.04600
H 	H 	0.45240 0.64480 0.05840 0.04300
H 	H 	0.38600 0.25000 0.23200 0.32900
H 	H 	0.61400 0.25000 0.73200 0.32800
H 	H 	0.93150 0.39630 0.95450 0.04900
H 	H 	0.45240 0.14480 0.44160 0.01600
H 	H 	0.54760 0.35520 0.94160 0.05300
H 	H 	0.44690 0.64640 0.44690 0.04700
H 	H 	0.03190 0.89570 0.43330 0.04200
H 	H 	0.93150 0.60370 0.54550 0.04600
H 	H 	0.88840 0.00000 0.75000 0.35900
H 	H 	0.96810 0.39570 0.56670 0.04700
H 	H 	0.11160 0.00000 0.25000 0.35900
H 	H 	0.61400 0.75000 0.76800 0.32600
H 	H 	0.54760 0.14480 0.94160 0.01900
H 	H 	0.45240 0.85520 0.05840 0.07700
H 	H 	0.45240 0.35520 0.44160 0.05000
H 	H 	0.93150 0.10370 0.95450 0.05500
H 	H 	0.03190 0.10430 0.06670 0.05200
H 	H 	0.55310 0.64640 0.94690 0.05000
C 	C 	0.92400 0.75000 0.55780 -0.10500
C 	C 	0.07600 0.75000 0.05780 -0.10700
C 	C 	0.46850 0.91250 0.46816 0.06700
C 	C 	0.55950 0.99931 0.93275 -0.17400
C 	C 	0.47170 0.58650 0.03500 0.00400
C 	C 	0.95250 0.83760 0.52343 -0.00500
C 	C 	0.47170 0.08650 0.46500 0.09600
C 	C 	0.44050 0.50069 0.43275 -0.09600
C 	C 	0.86350 0.75000 0.63210 0.44000
C 	C 	0.88630 0.75000 0.85330 0.43300
C 	C 	0.53150 0.91250 0.96816 0.05500
C 	C 	0.55950 0.49931 0.56725 -0.09900
C 	C 	0.53150 0.41250 0.53184 -0.00700
C 	C 	0.62530 0.50205 0.86073 0.43100
C 	C 	0.13650 0.25000 0.36790 0.43700
C 	C 	0.46850 0.41250 0.03184 0.00400
C 	C 	0.55950 0.50069 0.93275 -0.08900
C 	C 	0.53150 0.08750 0.53184 -0.08600
C 	C 	0.55950 0.00069 0.56725 -0.01400
C 	C 	0.04750 0.83760 0.02343 -0.00100
C 	C 	0.98780 0.66280 0.95620 -0.01900
C 	C 	0.11370 0.75000 0.35330 0.43400
C 	C 	0.37470 0.99795 0.36073 0.42300
C 	C 	0.13650 0.75000 0.13210 0.44100
C 	C 	0.47170 0.41350 0.46500 -0.01100
C 	C 	0.01220 0.66280 0.45620 -0.01500
C 	C 	0.95740 0.25000 0.57690 -0.09600
C 	C 	0.62530 0.99795 0.86073 0.42000
C 	C 	0.95250 0.66240 0.52343 -0.00400
C 	C 	0.52830 0.58650 0.53500 -0.00700
C 	C 	0.04750 0.16240 0.47657 -0.01100
C 	C 	0.95250 0.33760 0.97657 -0.01400
C 	C 	0.46850 0.58750 0.46816 -0.01200
C 	C 	0.37470 0.49795 0.13927 0.43800
C 	C 	0.88630 0.25000 0.64670 0.43400
C 	C 	0.01220 0.33720 0.04380 -0.00500
C 	C 	0.98780 0.33720 0.54380 -0.00700
C 	C 	0.52830 0.08650 0.96500 0.08500
C 	C 	0.98780 0.83720 0.95620 -0.02000
C 	C 	0.11370 0.25000 0.14670 0.43500
C 	C 	0.46850 0.08750 0.03184 -0.07500
C 	C 	0.07600 0.25000 0.44220 -0.09500
C 	C 	0.01220 0.83720 0.45620 -0.01600
C 	C 	0.44050 0.00069 0.06725 -0.02200
C 	C 	0.95740 0.75000 0.92310 -0.09300
C 	C 	0.62530 0.49795 0.63927 0.43500
C 	C 	0.04260 0.25000 0.07690 -0.09700
C 	C 	0.62530 0.00205 0.63927 0.44600
C 	C 	0.92400 0.25000 0.94220 -0.09400
C 	C 	0.44050 0.49931 0.06725 -0.10600
C 	C 	0.53150 0.58750 0.96816 -0.02300
C 	C 	0.37470 0.50205 0.36073 0.43400
C 	C 	0.04260 0.75000 0.42310 -0.09500
C 	C 	0.47170 0.91350 0.03500 -0.10100
C 	C 	0.52830 0.41350 0.96500 -0.02200
C 	C 	0.44050 0.99931 0.43275 -0.18100
C 	C 	0.98780 0.16280 0.54380 -0.00600
C 	C 	0.01220 0.16280 0.04380 -0.00400
C 	C 	0.86350 0.25000 0.86790 0.43700
C 	C 	0.52830 0.91350 0.53500 -0.11500
C 	C 	0.37470 0.00205 0.13927 0.44800
C 	C 	0.95250 0.16240 0.97657 -0.01300
C 	C 	0.04750 0.66240 0.02343 -0.00000
C 	C 	0.04750 0.33760 0.47657 -0.01200
O 	O 	0.15957 0.33121 0.33933 -0.52600
O 	O 	0.17810 0.50000 0.25000 -0.89800
O 	O 	0.65661 0.58341 0.83734 -0.52400
O 	O 	0.85921 0.83124 0.82689 -0.53100
O 	O 	0.14079 0.66876 0.32689 -0.52500
O 	O 	0.84043 0.83121 0.66067 -0.53400
O 	O 	0.35626 0.07822 0.32863 -0.49900
O 	O 	0.65661 0.41659 0.66266 -0.52500
O 	O 	0.34339 0.91659 0.33734 -0.52800
O 	O 	0.34339 0.41659 0.16266 -0.52500
O 	O 	0.14079 0.16876 0.17311 -0.52200
O 	O 	0.14079 0.33124 0.17311 -0.52400
O 	O 	0.34339 0.08341 0.16266 -0.52400
O 	O 	0.65661 0.08341 0.66266 -0.52400
O 	O 	0.65661 0.91659 0.83734 -0.52800
O 	O 	0.15957 0.66879 0.16067 -0.52800
O 	O 	0.35626 0.42178 0.32863 -0.52100
O 	O 	0.82190 0.50000 0.75000 -0.89800
O 	O 	0.64374 0.57822 0.67137 -0.52200
O 	O 	0.34339 0.58341 0.33734 -0.52500
O 	O 	0.14079 0.83124 0.32689 -0.53100
O 	O 	0.85921 0.66876 0.82689 -0.52500
O 	O 	0.64374 0.92178 0.67137 -0.54600
O 	O 	0.15957 0.16879 0.33933 -0.52300
O 	O 	0.64374 0.07822 0.82863 -0.49900
O 	O 	0.84043 0.33121 0.83933 -0.52600
O 	O 	0.85921 0.16876 0.67311 -0.52200
O 	O 	0.84043 0.66879 0.66067 -0.52800
O 	O 	0.35626 0.92178 0.17137 -0.54500
O 	O 	0.15957 0.83121 0.16067 -0.53400
O 	O 	0.35626 0.57822 0.17137 -0.52300
O 	O 	0.82190 0.00000 0.75000 -0.88200
O 	O 	0.67910 0.75000 0.75342 -0.86800
O 	O 	0.32090 0.25000 0.24658 -0.86700
O 	O 	0.17810 0.00000 0.25000 -0.88300
O 	O 	0.67910 0.25000 0.74658 -0.86700
O 	O 	0.32090 0.75000 0.25342 -0.86700
O 	O 	0.85921 0.33124 0.67311 -0.52400
O 	O 	0.64374 0.42178 0.82863 -0.52000
O 	O 	0.84043 0.16879 0.83933 -0.52300
