data_crystal

_cell_length_a 14.71940
_cell_length_b 14.71940
_cell_length_c 27.11390
_cell_angle_alpha 85.96690
_cell_angle_beta  85.96690
_cell_angle_gamma 60.03550

_symmetry_space_group_name_	'P 1'
_symmetry_space_group_name_H-M	'P 1'

loop_
_symmetry_equiv_pos_as_xyz
  x,y,z

loop_
_atom_site_label
_atom_site_type_symbol
_atom_site_fract_x
_atom_site_fract_y
_atom_site_fract_z
_atom_site_charge
Cu	Cu	0.63515 0.56303 0.93408 0.91700
Cu	Cu	0.69020 0.76340 0.38447 0.90600
Cu	Cu	0.76340 0.69020 0.88447 0.90600
Cu	Cu	0.81422 0.51124 0.38454 0.91800
Cu	Cu	0.51124 0.81422 0.88454 0.91800
Cu	Cu	0.56303 0.63515 0.43408 0.91700
H 	H 	0.55230 0.41770 0.45350 0.01700
H 	H 	0.29070 0.82150 0.87430 -0.00000
H 	H 	0.08000 0.29040 0.97010 0.04400
H 	H 	0.76470 0.71370 0.66640 0.09400
H 	H 	0.79750 0.64110 0.75390 -0.00300
H 	H 	0.84460 0.33020 0.93030 0.00700
H 	H 	0.82150 0.29070 0.37430 -0.00000
H 	H 	0.47740 0.97900 0.35680 0.00700
H 	H 	0.77160 0.68220 0.58290 0.03400
H 	H 	0.24680 0.09200 0.92070 0.01200
H 	H 	0.62410 0.22870 0.48250 0.10300
H 	H 	0.09770 0.65270 0.46820 0.12800
H 	H 	0.33020 0.84460 0.43030 0.00700
H 	H 	0.09750 0.25030 0.93700 -0.05600
H 	H 	0.62210 0.53350 0.10670 0.02200
H 	H 	0.68220 0.77160 0.08290 0.03400
H 	H 	0.53350 0.62210 0.60670 0.02200
H 	H 	0.22870 0.62410 0.98250 0.10300
H 	H 	0.79030 0.89890 0.89670 0.00100
H 	H 	0.41770 0.55230 0.95350 0.01700
H 	H 	0.30720 0.61360 0.32480 0.02300
H 	H 	0.09910 0.14810 0.28690 0.09200
H 	H 	0.12940 0.23680 0.47440 0.19600
H 	H 	0.29040 0.08000 0.47010 0.04400
H 	H 	0.65060 0.25760 0.97240 0.02300
H 	H 	0.97900 0.47740 0.85680 0.00700
H 	H 	0.89890 0.79030 0.39670 0.00100
H 	H 	0.04500 0.22840 0.83070 -0.05300
H 	H 	0.07310 0.61930 0.98040 0.02100
H 	H 	0.23680 0.12940 0.97440 0.19600
H 	H 	0.20640 0.07060 0.83750 -0.04600
H 	H 	0.05280 0.48220 0.38470 0.00100
H 	H 	0.25760 0.65060 0.47240 0.02300
H 	H 	0.65270 0.09770 0.96820 0.12800
H 	H 	0.64000 0.71400 0.94410 0.29400
H 	H 	0.73440 0.03740 0.33860 0.02300
H 	H 	0.19410 0.73790 0.84060 0.09900
H 	H 	0.25030 0.09750 0.43700 -0.05600
H 	H 	0.53020 0.64540 0.69110 0.09900
H 	H 	0.07060 0.20640 0.33750 -0.04600
H 	H 	0.73790 0.19410 0.34060 0.09900
H 	H 	0.64110 0.79750 0.25390 -0.00300
H 	H 	0.22840 0.04500 0.33070 -0.05300
H 	H 	0.61360 0.30720 0.82480 0.02300
H 	H 	0.14810 0.09910 0.78690 0.09200
H 	H 	0.77610 0.48690 0.25920 0.01000
H 	H 	0.61930 0.07310 0.48040 0.02100
H 	H 	0.71370 0.76470 0.16640 0.09400
H 	H 	0.61420 0.14780 0.82010 0.09700
H 	H 	0.14780 0.61420 0.32010 0.09700
H 	H 	0.03740 0.73440 0.83860 0.02300
H 	H 	0.48690 0.77610 0.75920 0.01000
H 	H 	0.25700 0.99820 0.30250 0.02200
H 	H 	0.64540 0.53020 0.19110 0.09900
H 	H 	0.09200 0.24680 0.42070 0.01200
H 	H 	0.99820 0.25700 0.80250 0.02200
H 	H 	0.71400 0.64000 0.44410 0.29400
H 	H 	0.48220 0.05280 0.88470 0.00100
C 	C 	0.26400 0.03740 0.37080 -0.11400
C 	C 	0.04970 0.22250 0.82670 0.08500
C 	C 	0.13040 0.13740 0.31780 -0.14900
C 	C 	0.67566 0.93886 0.41007 0.32300
C 	C 	0.93886 0.67566 0.91007 0.32300
C 	C 	0.63430 0.11070 0.89430 0.17200
C 	C 	0.21010 0.08230 0.85240 0.17800
C 	C 	0.18930 0.64670 0.95340 -0.17200
C 	C 	0.46370 0.92930 0.37500 0.10600
C 	C 	0.62971 0.40031 0.90050 0.32400
C 	C 	0.65530 0.63590 0.53182 0.33500
C 	C 	0.09740 0.64380 0.95200 0.08000
C 	C 	0.67560 0.72620 0.26551 0.10800
C 	C 	0.03740 0.26400 0.87080 -0.11400
C 	C 	0.26440 0.62160 0.35380 0.07700
C 	C 	0.71810 0.69430 0.65420 -0.16900
C 	C 	0.98940 0.34100 0.40760 0.30300
C 	C 	0.17030 0.62210 0.35070 -0.17400
C 	C 	0.23390 0.08970 0.90540 0.18000
C 	C 	0.40813 0.61393 0.93537 0.11200
C 	C 	0.64380 0.09740 0.45200 0.08000
C 	C 	0.68330 0.64590 0.18582 0.16100
C 	C 	0.64000 0.58120 0.11892 0.08100
C 	C 	0.64480 0.14060 0.93920 -0.18400
C 	C 	0.61393 0.40813 0.43537 0.11200
C 	C 	0.31200 0.97880 0.84250 0.30600
C 	C 	0.19790 0.15110 0.94520 -0.18400
C 	C 	0.65480 0.57800 0.16891 -0.17300
C 	C 	0.22250 0.04970 0.32670 0.08500
C 	C 	0.27110 0.04930 0.40070 -0.02700
C 	C 	0.99790 0.55290 0.38690 0.13500
C 	C 	0.24500 0.10500 0.44310 0.07300
C 	C 	0.71190 0.07630 0.36780 0.07900
C 	C 	0.62210 0.17030 0.85070 -0.17400
C 	C 	0.76036 0.33916 0.39235 0.11700
C 	C 	0.10500 0.24500 0.94310 0.07300
C 	C 	0.65220 0.65080 0.58618 -0.12400
C 	C 	0.63590 0.65530 0.03182 0.33500
C 	C 	0.40031 0.62971 0.40050 0.32400
C 	C 	0.19540 0.12620 0.89640 -0.23300
C 	C 	0.67596 0.04016 0.40956 -0.12700
C 	C 	0.58120 0.64000 0.61892 0.08100
C 	C 	0.16870 0.71470 0.86900 -0.17700
C 	C 	0.68333 0.22313 0.41170 0.16500
C 	C 	0.22313 0.68333 0.91170 0.16500
C 	C 	0.92930 0.46370 0.87500 0.10600
C 	C 	0.71470 0.16870 0.36900 -0.17700
C 	C 	0.21860 0.10840 0.40620 0.14400
C 	C 	0.11630 0.17930 0.36440 -0.12300
C 	C 	0.91440 0.72020 0.39330 0.13300
C 	C 	0.55724 0.74904 0.76826 0.11000
C 	C 	0.74904 0.55724 0.26826 0.11000
C 	C 	0.67660 0.72100 0.10470 0.07500
C 	C 	0.62160 0.26440 0.85380 0.07700
C 	C 	0.72020 0.91440 0.89330 0.13300
C 	C 	0.69430 0.71810 0.15420 -0.16900
C 	C 	0.23510 0.64370 0.44160 0.08600
C 	C 	0.85640 0.38360 0.91490 0.10100
C 	C 	0.15110 0.19790 0.44520 -0.18400
C 	C 	0.34100 0.98940 0.90760 0.30300
C 	C 	0.63251 0.29671 0.89860 -0.12700
C 	C 	0.29671 0.63251 0.39860 -0.12700
C 	C 	0.10840 0.21860 0.90620 0.14400
C 	C 	0.64370 0.23510 0.94160 0.08600
C 	C 	0.33916 0.76036 0.89235 0.11700
C 	C 	0.11070 0.63430 0.39430 0.17200
C 	C 	0.08380 0.20900 0.85980 0.13000
C 	C 	0.57800 0.65480 0.66891 -0.17300
C 	C 	0.97880 0.31200 0.34250 0.30600
C 	C 	0.17930 0.11630 0.86440 -0.12300
C 	C 	0.13740 0.13040 0.81780 -0.14900
C 	C 	0.08970 0.23390 0.40540 0.18000
C 	C 	0.64590 0.68330 0.68582 0.16100
C 	C 	0.38360 0.85640 0.41490 0.10100
C 	C 	0.14060 0.64480 0.43920 -0.18300
C 	C 	0.65080 0.65220 0.08618 -0.12400
C 	C 	0.08230 0.21010 0.35240 0.17800
C 	C 	0.04930 0.27110 0.90070 -0.02700
C 	C 	0.55290 0.99790 0.88690 0.13500
C 	C 	0.72100 0.67660 0.60470 0.07500
C 	C 	0.64670 0.18930 0.45340 -0.17200
C 	C 	0.20900 0.08380 0.35980 0.13000
C 	C 	0.04016 0.67596 0.90956 -0.12700
C 	C 	0.07630 0.71190 0.86780 0.07900
C 	C 	0.12620 0.19540 0.39640 -0.23300
C 	C 	0.72620 0.67560 0.76551 0.10800
N 	N 	0.47871 0.64251 0.92785 -0.18400
N 	N 	0.64251 0.47871 0.42785 -0.18400
N 	N 	0.31888 0.68568 0.91328 -0.16400
N 	N 	0.48377 0.78897 0.41440 -0.18700
N 	N 	0.78897 0.48377 0.91440 -0.18700
N 	N 	0.64295 0.70115 0.73720 -0.16200
N 	N 	0.63575 0.01155 0.89130 -0.16400
N 	N 	0.89846 0.58386 0.38605 -0.18700
N 	N 	0.83630 0.53430 0.88896 -0.19200
N 	N 	0.68568 0.31888 0.41328 -0.16400
N 	N 	0.73621 0.43401 0.40064 -0.19200
N 	N 	0.01155 0.63575 0.39130 -0.16400
N 	N 	0.94589 0.36729 0.88990 -0.11500
N 	N 	0.53430 0.83630 0.38896 -0.19200
N 	N 	0.69400 0.70500 0.81074 -0.17100
N 	N 	0.58511 0.75271 0.81231 -0.17300
N 	N 	0.58386 0.89846 0.88605 -0.18700
N 	N 	0.70115 0.64295 0.23720 -0.16200
N 	N 	0.75271 0.58511 0.31231 -0.17300
N 	N 	0.36729 0.94589 0.38990 -0.11500
N 	N 	0.84445 0.69105 0.38980 -0.19200
N 	N 	0.69105 0.84445 0.88980 -0.19200
N 	N 	0.70500 0.69400 0.31074 -0.17100
N 	N 	0.43401 0.73621 0.90064 -0.19200
O 	O 	0.62411 0.45211 0.86149 -0.29800
O 	O 	0.37924 0.94224 0.87169 -0.51600
O 	O 	0.62993 0.58093 0.01492 -0.35200
O 	O 	0.11190 0.29410 0.50260 -0.19900
O 	O 	0.89765 0.68725 0.86798 -0.37700
O 	O 	0.66543 0.89763 0.44962 -0.30100
O 	O 	0.96020 0.38440 0.44680 -0.28100
O 	O 	0.69516 0.63576 0.41616 -0.73300
O 	O 	0.68725 0.89765 0.36798 -0.37700
O 	O 	0.63549 0.42889 0.94300 -0.37700
O 	O 	0.42889 0.63549 0.44300 -0.37700
O 	O 	0.29410 0.11190 0.00260 -0.19900
O 	O 	0.73168 0.63268 0.50633 -0.29700
O 	O 	0.93170 0.32470 0.30390 -0.26200
O 	O 	0.63268 0.73168 0.00633 -0.29700
O 	O 	0.58093 0.62993 0.51492 -0.35200
O 	O 	0.63576 0.69516 0.91616 -0.73300
O 	O 	0.89763 0.66543 0.94962 -0.30100
O 	O 	0.94224 0.37924 0.37169 -0.51600
O 	O 	0.45211 0.62411 0.36149 -0.29800
O 	O 	0.32470 0.93170 0.80390 -0.26200
O 	O 	0.38440 0.96020 0.94680 -0.28100
Cu	Cu	0.48876 0.18578 0.11546 0.91900
Cu	Cu	0.43697 0.36485 0.56592 0.91800
Cu	Cu	0.36485 0.43697 0.06592 0.91800
Cu	Cu	0.30980 0.23660 0.61553 0.90700
Cu	Cu	0.23660 0.30980 0.11553 0.90700
Cu	Cu	0.18578 0.48876 0.61546 0.91900
H 	H 	0.37790 0.46650 0.89330 0.02200
H 	H 	0.44770 0.58230 0.54650 0.01700
H 	H 	0.79360 0.92940 0.16250 -0.04600
H 	H 	0.02100 0.52260 0.14320 0.00700
H 	H 	0.74970 0.90250 0.56300 -0.05600
H 	H 	0.76320 0.87060 0.02560 0.19600
H 	H 	0.20250 0.35890 0.24610 -0.00300
H 	H 	0.51310 0.22390 0.24080 0.01000
H 	H 	0.92940 0.79360 0.66250 -0.04600
H 	H 	0.51780 0.94720 0.11530 0.00100
H 	H 	0.28600 0.36000 0.55590 0.29400
H 	H 	0.70930 0.17850 0.12570 -0.00000
H 	H 	0.94720 0.51780 0.61530 0.00100
H 	H 	0.35460 0.46980 0.80890 0.09900
H 	H 	0.17850 0.70930 0.62570 -0.00000
H 	H 	0.58230 0.44770 0.04650 0.01700
H 	H 	0.00180 0.74300 0.19750 0.02200
H 	H 	0.38640 0.69280 0.17520 0.02300
H 	H 	0.80590 0.26210 0.15940 0.09900
H 	H 	0.77160 0.95500 0.66930 -0.05300
H 	H 	0.34730 0.90230 0.03180 0.12800
H 	H 	0.22840 0.31780 0.41710 0.03400
H 	H 	0.75320 0.90800 0.07930 0.01200
H 	H 	0.37590 0.77130 0.51750 0.10300
H 	H 	0.66980 0.15540 0.56970 0.00700
H 	H 	0.85220 0.38580 0.67990 0.09700
H 	H 	0.92000 0.70960 0.02990 0.04400
H 	H 	0.20970 0.10110 0.10330 0.00100
H 	H 	0.34940 0.74240 0.02760 0.02300
H 	H 	0.31780 0.22840 0.91710 0.03400
H 	H 	0.15540 0.66980 0.06970 0.00700
H 	H 	0.35890 0.20250 0.74610 -0.00300
H 	H 	0.10110 0.20970 0.60330 0.00100
H 	H 	0.69280 0.38640 0.67520 0.02300
H 	H 	0.26560 0.96260 0.66140 0.02300
H 	H 	0.90250 0.74970 0.06300 -0.05600
H 	H 	0.90800 0.75320 0.57930 0.01200
H 	H 	0.70960 0.92000 0.52990 0.04400
H 	H 	0.74300 0.00180 0.69750 0.02200
H 	H 	0.85190 0.90090 0.21310 0.09200
H 	H 	0.90090 0.85190 0.71310 0.09200
H 	H 	0.38070 0.92690 0.51960 0.02100
H 	H 	0.95500 0.77160 0.16930 -0.05300
H 	H 	0.28630 0.23530 0.83360 0.09400
H 	H 	0.38580 0.85220 0.17990 0.09700
H 	H 	0.22390 0.51310 0.74080 0.01000
H 	H 	0.77130 0.37590 0.01750 0.10300
H 	H 	0.26210 0.80590 0.65940 0.09900
H 	H 	0.23530 0.28630 0.33360 0.09400
H 	H 	0.96260 0.26560 0.16140 0.02300
H 	H 	0.36000 0.28600 0.05590 0.29400
H 	H 	0.90230 0.34730 0.53180 0.12800
H 	H 	0.46980 0.35460 0.30890 0.09900
H 	H 	0.52260 0.02100 0.64320 0.00700
H 	H 	0.74240 0.34940 0.52760 0.02300
H 	H 	0.92690 0.38070 0.01960 0.02100
H 	H 	0.46650 0.37790 0.39330 0.02200
H 	H 	0.87060 0.76320 0.52560 0.19600
C 	C 	0.00210 0.44710 0.61310 0.13500
C 	C 	0.91030 0.76610 0.59460 0.18000
C 	C 	0.59187 0.38607 0.06463 0.11200
C 	C 	0.28190 0.30570 0.34580 -0.16900
C 	C 	0.89160 0.78140 0.09380 0.14400
C 	C 	0.34920 0.34780 0.91382 -0.12400
C 	C 	0.77750 0.95030 0.67330 0.08500
C 	C 	0.36000 0.41880 0.88108 0.08100
C 	C 	0.77687 0.31667 0.08830 0.16500
C 	C 	0.91770 0.78990 0.64760 0.17800
C 	C 	0.36570 0.88930 0.10570 0.17200
C 	C 	0.27380 0.32440 0.23449 0.10800
C 	C 	0.70329 0.36749 0.60140 -0.12700
C 	C 	0.32434 0.06114 0.58993 0.32300
C 	C 	0.76610 0.91030 0.09460 0.18000
C 	C 	0.35330 0.81070 0.54660 -0.17200
C 	C 	0.95070 0.72890 0.09930 -0.02700
C 	C 	0.89500 0.75500 0.05690 0.07300
C 	C 	0.90260 0.35620 0.04800 0.08000
C 	C 	0.34470 0.36410 0.46818 0.33500
C 	C 	0.37840 0.73560 0.14620 0.07700
C 	C 	0.85940 0.35520 0.56080 -0.18300
C 	C 	0.73560 0.37840 0.64620 0.07700
C 	C 	0.81070 0.35330 0.04660 -0.17200
C 	C 	0.37790 0.82970 0.14930 -0.17400
C 	C 	0.32340 0.27900 0.89530 0.07500
C 	C 	0.96260 0.73600 0.12920 -0.11400
C 	C 	0.75500 0.89500 0.55690 0.07300
C 	C 	0.78990 0.91770 0.14760 0.17800
C 	C 	0.80460 0.87380 0.10360 -0.23300
C 	C 	0.95984 0.32404 0.09044 -0.12700
C 	C 	0.25096 0.44276 0.73174 0.11000
C 	C 	0.37029 0.59969 0.09950 0.32400
C 	C 	0.06114 0.32434 0.08993 0.32300
C 	C 	0.07070 0.53630 0.12500 0.10600
C 	C 	0.34520 0.42200 0.83109 -0.17300
C 	C 	0.38607 0.59187 0.56463 0.11200
C 	C 	0.83130 0.28530 0.13100 -0.17700
C 	C 	0.32404 0.95984 0.59044 -0.12700
C 	C 	0.34780 0.34920 0.41382 -0.12400
C 	C 	0.95030 0.77750 0.17330 0.08500
C 	C 	0.87380 0.80460 0.60360 -0.23300
C 	C 	0.30570 0.28190 0.84580 -0.16900
C 	C 	0.88370 0.82070 0.63560 -0.12300
C 	C 	0.23964 0.66084 0.60765 0.11700
C 	C 	0.79100 0.91620 0.64020 0.13000
C 	C 	0.59969 0.37029 0.59950 0.32400
C 	C 	0.86260 0.86960 0.18220 -0.14900
C 	C 	0.76490 0.35630 0.55840 0.08600
C 	C 	0.86960 0.86260 0.68220 -0.14900
C 	C 	0.01060 0.65900 0.59240 0.30300
C 	C 	0.65900 0.01060 0.09240 0.30300
C 	C 	0.78140 0.89160 0.59380 0.14400
C 	C 	0.35630 0.76490 0.05840 0.08600
C 	C 	0.42200 0.34520 0.33109 -0.17300
C 	C 	0.92370 0.28810 0.13220 0.07900
C 	C 	0.84890 0.80210 0.55480 -0.18400
C 	C 	0.82070 0.88370 0.13560 -0.12300
C 	C 	0.35620 0.90260 0.54800 0.08000
C 	C 	0.82970 0.37790 0.64930 -0.17400
C 	C 	0.32440 0.27380 0.73449 0.10800
C 	C 	0.91620 0.79100 0.14020 0.13000
C 	C 	0.08560 0.27980 0.60670 0.13300
C 	C 	0.02120 0.68800 0.65750 0.30600
C 	C 	0.41880 0.36000 0.38108 0.08100
C 	C 	0.36410 0.34470 0.96818 0.33500
C 	C 	0.14360 0.61640 0.08510 0.10100
C 	C 	0.28530 0.83130 0.63100 -0.17700
C 	C 	0.31667 0.77687 0.58830 0.16500
C 	C 	0.35520 0.85940 0.06080 -0.18400
C 	C 	0.68800 0.02120 0.15750 0.30600
C 	C 	0.44710 0.00210 0.11310 0.13500
C 	C 	0.31670 0.35410 0.81418 0.16100
C 	C 	0.72890 0.95070 0.59930 -0.02700
C 	C 	0.35410 0.31670 0.31418 0.16100
C 	C 	0.27980 0.08560 0.10670 0.13300
C 	C 	0.80210 0.84890 0.05480 -0.18400
C 	C 	0.53630 0.07070 0.62500 0.10600
C 	C 	0.73600 0.96260 0.62920 -0.11400
C 	C 	0.36749 0.70329 0.10140 -0.12700
C 	C 	0.44276 0.25096 0.23174 0.11000
C 	C 	0.27900 0.32340 0.39530 0.07500
C 	C 	0.61640 0.14360 0.58510 0.10100
C 	C 	0.88930 0.36570 0.60570 0.17200
C 	C 	0.28810 0.92370 0.63220 0.07900
C 	C 	0.66084 0.23964 0.10765 0.11700
N 	N 	0.30600 0.29500 0.18926 -0.17100
N 	N 	0.36425 0.98845 0.10870 -0.16400
N 	N 	0.31432 0.68112 0.58672 -0.16400
N 	N 	0.30895 0.15555 0.11020 -0.19200
N 	N 	0.10154 0.41614 0.61395 -0.18700
N 	N 	0.68112 0.31432 0.08672 -0.16400
N 	N 	0.05411 0.63271 0.11010 -0.11500
N 	N 	0.41614 0.10154 0.11395 -0.18700
N 	N 	0.52129 0.35749 0.07215 -0.18400
N 	N 	0.26379 0.56599 0.59936 -0.19200
N 	N 	0.24729 0.41489 0.68769 -0.17300
N 	N 	0.51623 0.21103 0.58560 -0.18700
N 	N 	0.46570 0.16370 0.61104 -0.19200
N 	N 	0.15555 0.30895 0.61020 -0.19200
N 	N 	0.35705 0.29885 0.26280 -0.16200
N 	N 	0.41489 0.24729 0.18769 -0.17300
N 	N 	0.98845 0.36425 0.60870 -0.16400
N 	N 	0.21103 0.51623 0.08560 -0.18700
N 	N 	0.29500 0.30600 0.68926 -0.17100
N 	N 	0.29885 0.35705 0.76280 -0.16200
N 	N 	0.63271 0.05411 0.61010 -0.11500
N 	N 	0.16370 0.46570 0.11104 -0.19200
N 	N 	0.56599 0.26379 0.09936 -0.19200
N 	N 	0.35749 0.52129 0.57215 -0.18400
O 	O 	0.57111 0.36451 0.55700 -0.37700
O 	O 	0.88810 0.70590 0.49740 -0.19900
O 	O 	0.62076 0.05776 0.12831 -0.51600
O 	O 	0.61560 0.03980 0.05320 -0.28100
O 	O 	0.26832 0.36732 0.49367 -0.29700
O 	O 	0.36732 0.26832 0.99367 -0.29700
O 	O 	0.05776 0.62076 0.62831 -0.51600
O 	O 	0.36451 0.57111 0.05700 -0.37700
O 	O 	0.06830 0.67530 0.69610 -0.26200
O 	O 	0.33457 0.10237 0.55038 -0.30100
O 	O 	0.54789 0.37589 0.63851 -0.29800
O 	O 	0.37589 0.54789 0.13851 -0.29800
O 	O 	0.67530 0.06830 0.19610 -0.26200
O 	O 	0.37007 0.41907 0.98508 -0.35200
O 	O 	0.70590 0.88810 0.99740 -0.19900
O 	O 	0.36424 0.30484 0.08384 -0.73300
O 	O 	0.10235 0.31275 0.13202 -0.37700
O 	O 	0.41907 0.37007 0.48508 -0.35200
O 	O 	0.31275 0.10235 0.63202 -0.37700
O 	O 	0.30484 0.36424 0.58384 -0.73300
O 	O 	0.03980 0.61560 0.55320 -0.28100
O 	O 	0.10237 0.33457 0.05038 -0.30100
