data_crystal

_cell_length_a 23.14390
_cell_length_b 23.14390
_cell_length_c 23.14390
_cell_angle_alpha 60.00000
_cell_angle_beta  60.00000
_cell_angle_gamma 60.00000

_symmetry_space_group_name_	'P 1'
_symmetry_space_group_name_H-M	'P 1'

loop_
_symmetry_equiv_pos_as_xyz
  x,y,z

loop_
_atom_site_label
_atom_site_type_symbol
_atom_site_fract_x
_atom_site_fract_y
_atom_site_fract_z
_atom_site_charge
Zr	Zr	0.57549 0.57549 0.42451 3.22700
Zr	Zr	0.42451 0.42451 0.57549 3.22700
Zr	Zr	0.42451 0.57549 0.57549 3.22700
Zr	Zr	0.57549 0.42451 0.42451 3.22700
Zr	Zr	0.57549 0.42451 0.57549 3.22700
Zr	Zr	0.42451 0.57549 0.42451 3.22700
O 	O 	0.53662 0.53662 0.39014 -1.53000
H 	H 	0.55173 0.55173 0.34480 0.42400
O 	O 	0.53662 0.53662 0.53662 -1.53100
H 	H 	0.55173 0.55173 0.55173 0.42400
O 	O 	0.39014 0.53662 0.53662 -1.53000
H 	H 	0.34480 0.55173 0.55173 0.42400
O 	O 	0.53662 0.39014 0.53662 -1.53000
H 	H 	0.55173 0.34480 0.55173 0.42400
O 	O 	0.46338 0.46338 0.46338 -1.53100
H 	H 	0.44827 0.44827 0.44827 0.42400
O 	O 	0.46338 0.46338 0.60986 -1.53000
H 	H 	0.44827 0.44827 0.65520 0.42400
O 	O 	0.60986 0.46338 0.46338 -1.53000
H 	H 	0.65520 0.44827 0.44827 0.42400
O 	O 	0.46338 0.60986 0.46338 -1.53000
H 	H 	0.44827 0.65520 0.44827 0.42400
O 	O 	0.66779 0.55089 0.44911 -0.64100
C 	C 	0.78480 0.55260 0.44740 0.06400
H 	H 	0.76400 0.58800 0.41200 0.02700
C 	C 	0.84530 0.55230 0.44770 -0.12900
H 	H 	0.86630 0.58770 0.41230 0.07700
O 	O 	0.55089 0.66779 0.33221 -0.64100
C 	C 	0.55260 0.78480 0.21520 0.06400
H 	H 	0.58800 0.76400 0.23600 0.02700
C 	C 	0.55230 0.84530 0.15470 -0.12900
H 	H 	0.58770 0.86630 0.13370 0.07700
O 	O 	0.44911 0.33221 0.66779 -0.64100
C 	C 	0.44740 0.21520 0.78480 0.06400
H 	H 	0.41200 0.23600 0.76400 0.02700
C 	C 	0.44770 0.15470 0.84530 -0.12900
H 	H 	0.41230 0.13370 0.86630 0.07700
O 	O 	0.33221 0.44911 0.55089 -0.64100
C 	C 	0.21520 0.44740 0.55260 0.06400
H 	H 	0.23600 0.41200 0.58800 0.02700
C 	C 	0.15470 0.44770 0.55230 -0.12900
H 	H 	0.13370 0.41230 0.58770 0.07700
O 	O 	0.44911 0.66779 0.55089 -0.64100
C 	C 	0.44740 0.78480 0.55260 0.06400
H 	H 	0.41200 0.76400 0.58800 0.02700
C 	C 	0.44770 0.84530 0.55230 -0.12900
H 	H 	0.41230 0.86630 0.58770 0.07700
O 	O 	0.33221 0.55089 0.66779 -0.64100
C 	C 	0.21520 0.55260 0.78480 0.06400
H 	H 	0.23600 0.58800 0.76400 0.02700
C 	C 	0.15470 0.55230 0.84530 -0.12900
H 	H 	0.13370 0.58770 0.86630 0.07700
O 	O 	0.66779 0.44911 0.33221 -0.64100
C 	C 	0.78480 0.44740 0.21520 0.06400
H 	H 	0.76400 0.41200 0.23600 0.02700
C 	C 	0.84530 0.44770 0.15470 -0.12900
H 	H 	0.86630 0.41230 0.13370 0.07700
O 	O 	0.55089 0.33221 0.44911 -0.64100
C 	C 	0.55260 0.21520 0.44740 0.06400
H 	H 	0.58800 0.23600 0.41200 0.02700
C 	C 	0.55230 0.15470 0.44770 -0.12900
H 	H 	0.58770 0.13370 0.41230 0.07700
O 	O 	0.55089 0.44911 0.66779 -0.64100
C 	C 	0.55260 0.44740 0.78480 0.06400
H 	H 	0.58800 0.41200 0.76400 0.02700
C 	C 	0.55230 0.44770 0.84530 -0.12900
H 	H 	0.58770 0.41230 0.86630 0.07700
O 	O 	0.66779 0.33221 0.55089 -0.64100
C 	C 	0.78480 0.21520 0.55260 0.06400
H 	H 	0.76400 0.23600 0.58800 0.02700
C 	C 	0.84530 0.15470 0.55230 -0.12900
H 	H 	0.86630 0.13370 0.58770 0.07700
O 	O 	0.33221 0.66779 0.44911 -0.64100
C 	C 	0.21520 0.78480 0.44740 0.06400
H 	H 	0.23600 0.76400 0.41200 0.02700
C 	C 	0.15470 0.84530 0.44770 -0.12900
H 	H 	0.13370 0.86630 0.41230 0.07700
O 	O 	0.44911 0.55089 0.33221 -0.64100
C 	C 	0.44740 0.55260 0.21520 0.06400
H 	H 	0.41200 0.58800 0.23600 0.02700
C 	C 	0.44770 0.55230 0.15470 -0.12900
H 	H 	0.41230 0.58770 0.13370 0.07700
O 	O 	0.33221 0.44911 0.66779 -0.64100
C 	C 	0.21520 0.44740 0.78480 0.06400
H 	H 	0.23600 0.41200 0.76400 0.02700
C 	C 	0.15470 0.44770 0.84530 -0.12900
H 	H 	0.13370 0.41230 0.86630 0.07700
O 	O 	0.44911 0.33221 0.55089 -0.64100
C 	C 	0.44740 0.21520 0.55260 0.06400
H 	H 	0.41200 0.23600 0.58800 0.02700
C 	C 	0.44770 0.15470 0.55230 -0.12900
H 	H 	0.41230 0.13370 0.58770 0.07700
O 	O 	0.55089 0.66779 0.44911 -0.64100
C 	C 	0.55260 0.78480 0.44740 0.06400
H 	H 	0.58800 0.76400 0.41200 0.02700
C 	C 	0.55230 0.84530 0.44770 -0.12900
H 	H 	0.58770 0.86630 0.41230 0.07700
O 	O 	0.66779 0.55089 0.33221 -0.64100
C 	C 	0.78480 0.55260 0.21520 0.06400
H 	H 	0.76400 0.58800 0.23600 0.02700
C 	C 	0.84530 0.55230 0.15470 -0.12900
H 	H 	0.86630 0.58770 0.13370 0.07700
O 	O 	0.55089 0.33221 0.66779 -0.64100
C 	C 	0.55260 0.21520 0.78480 0.06400
H 	H 	0.58800 0.23600 0.76400 0.02700
C 	C 	0.55230 0.15470 0.84530 -0.12900
H 	H 	0.58770 0.13370 0.86630 0.07700
O 	O 	0.66779 0.44911 0.55089 -0.64100
C 	C 	0.78480 0.44740 0.55260 0.06400
H 	H 	0.76400 0.41200 0.58800 0.02700
C 	C 	0.84530 0.44770 0.55230 -0.12900
H 	H 	0.86630 0.41230 0.58770 0.07700
O 	O 	0.33221 0.55089 0.44911 -0.64100
C 	C 	0.21520 0.55260 0.44740 0.06400
H 	H 	0.23600 0.58800 0.41200 0.02700
C 	C 	0.15470 0.55230 0.44770 -0.12900
H 	H 	0.13370 0.58770 0.41230 0.07700
O 	O 	0.44911 0.66779 0.33221 -0.64100
C 	C 	0.44740 0.78480 0.21520 0.06400
H 	H 	0.41200 0.76400 0.23600 0.02700
C 	C 	0.44770 0.84530 0.15470 -0.12900
H 	H 	0.41230 0.86630 0.13370 0.07700
O 	O 	0.44911 0.55089 0.66779 -0.64100
C 	C 	0.44740 0.55260 0.78480 0.06400
H 	H 	0.41200 0.58800 0.76400 0.02700
C 	C 	0.44770 0.55230 0.84530 -0.12900
H 	H 	0.41230 0.58770 0.86630 0.07700
O 	O 	0.33221 0.66779 0.55089 -0.64100
C 	C 	0.21520 0.78480 0.55260 0.06400
H 	H 	0.23600 0.76400 0.58800 0.02700
C 	C 	0.15470 0.84530 0.55230 -0.12900
H 	H 	0.13370 0.86630 0.58770 0.07700
O 	O 	0.66779 0.33221 0.44911 -0.64100
C 	C 	0.78480 0.21520 0.44740 0.06400
H 	H 	0.76400 0.23600 0.41200 0.02700
C 	C 	0.84530 0.15470 0.44770 -0.12900
H 	H 	0.86630 0.13370 0.41230 0.07700
O 	O 	0.55089 0.44911 0.33221 -0.64100
C 	C 	0.55260 0.44740 0.21520 0.06400
H 	H 	0.58800 0.41200 0.23600 0.02700
C 	C 	0.55230 0.44770 0.15470 -0.12900
H 	H 	0.58770 0.41230 0.13370 0.07700
C 	C 	0.69232 0.50000 0.50000 0.42400
C 	C 	0.75620 0.50000 0.50000 -0.14300
C 	C 	0.87400 0.50000 0.50000 0.08200
C 	C 	0.94200 0.50000 0.50000 -0.02100
C 	C 	0.50000 0.69232 0.30768 0.42400
C 	C 	0.50000 0.75620 0.24380 -0.14300
C 	C 	0.50000 0.87400 0.12600 0.08200
C 	C 	0.50000 0.94200 0.05800 -0.02100
C 	C 	0.50000 0.30768 0.69232 0.42400
C 	C 	0.50000 0.24380 0.75620 -0.14300
C 	C 	0.50000 0.12600 0.87400 0.08200
C 	C 	0.50000 0.05800 0.94200 -0.02100
C 	C 	0.30768 0.50000 0.50000 0.42400
C 	C 	0.24380 0.50000 0.50000 -0.14300
C 	C 	0.12600 0.50000 0.50000 0.08200
C 	C 	0.05800 0.50000 0.50000 -0.02100
C 	C 	0.50000 0.69232 0.50000 0.42400
C 	C 	0.50000 0.75620 0.50000 -0.14300
C 	C 	0.50000 0.87400 0.50000 0.08200
C 	C 	0.50000 0.94200 0.50000 -0.02100
C 	C 	0.30768 0.50000 0.69232 0.42400
C 	C 	0.24380 0.50000 0.75620 -0.14300
C 	C 	0.12600 0.50000 0.87400 0.08200
C 	C 	0.05800 0.50000 0.94200 -0.02100
C 	C 	0.69232 0.50000 0.30768 0.42400
C 	C 	0.75620 0.50000 0.24380 -0.14300
C 	C 	0.87400 0.50000 0.12600 0.08200
C 	C 	0.94200 0.50000 0.05800 -0.02100
C 	C 	0.50000 0.30768 0.50000 0.42400
C 	C 	0.50000 0.24380 0.50000 -0.14300
C 	C 	0.50000 0.12600 0.50000 0.08200
C 	C 	0.50000 0.05800 0.50000 -0.02100
C 	C 	0.50000 0.50000 0.69232 0.42400
C 	C 	0.50000 0.50000 0.75620 -0.14300
C 	C 	0.50000 0.50000 0.87400 0.08200
C 	C 	0.50000 0.50000 0.94200 -0.02100
C 	C 	0.69232 0.30768 0.50000 0.42400
C 	C 	0.75620 0.24380 0.50000 -0.14300
C 	C 	0.87400 0.12600 0.50000 0.08200
C 	C 	0.94200 0.05800 0.50000 -0.02100
C 	C 	0.30768 0.69232 0.50000 0.42400
C 	C 	0.24380 0.75620 0.50000 -0.14300
C 	C 	0.12600 0.87400 0.50000 0.08200
C 	C 	0.05800 0.94200 0.50000 -0.02100
C 	C 	0.50000 0.50000 0.30768 0.42400
C 	C 	0.50000 0.50000 0.24380 -0.14300
C 	C 	0.50000 0.50000 0.12600 0.08200
C 	C 	0.50000 0.50000 0.05800 -0.02100
C 	C 	0.00766 0.46200 0.46200 -0.01600
C 	C 	0.01030 0.42610 0.42610 0.04700
C 	C 	0.00910 0.39770 0.39770 -0.10800
H 	H 	0.00830 0.37430 0.37430 0.07000
C 	C 	0.46200 0.00766 0.06834 -0.01600
C 	C 	0.42610 0.01030 0.13750 0.04700
C 	C 	0.39770 0.00910 0.19550 -0.10800
H 	H 	0.37430 0.00830 0.24310 0.07000
C 	C 	0.46200 0.06834 0.00766 -0.01600
C 	C 	0.42610 0.13750 0.01030 0.04700
C 	C 	0.39770 0.19550 0.00910 -0.10800
H 	H 	0.37430 0.24310 0.00830 0.07000
C 	C 	0.06834 0.46200 0.46200 -0.01600
C 	C 	0.13750 0.42610 0.42610 0.04700
C 	C 	0.19550 0.39770 0.39770 -0.10800
H 	H 	0.24310 0.37430 0.37430 0.07000
C 	C 	0.46200 0.00766 0.46200 -0.01600
C 	C 	0.42610 0.01030 0.42610 0.04700
C 	C 	0.39770 0.00910 0.39770 -0.10800
H 	H 	0.37430 0.00830 0.37430 0.07000
C 	C 	0.06834 0.46200 0.00766 -0.01600
C 	C 	0.13750 0.42610 0.01030 0.04700
C 	C 	0.19550 0.39770 0.00910 -0.10800
H 	H 	0.24310 0.37430 0.00830 0.07000
C 	C 	0.00766 0.46200 0.06834 -0.01600
C 	C 	0.01030 0.42610 0.13750 0.04700
C 	C 	0.00910 0.39770 0.19550 -0.10800
H 	H 	0.00830 0.37430 0.24310 0.07000
C 	C 	0.46200 0.06834 0.46200 -0.01600
C 	C 	0.42610 0.13750 0.42610 0.04700
C 	C 	0.39770 0.19550 0.39770 -0.10800
H 	H 	0.37430 0.24310 0.37430 0.07000
C 	C 	0.46200 0.46200 0.00766 -0.01600
C 	C 	0.42610 0.42610 0.01030 0.04700
C 	C 	0.39770 0.39770 0.00910 -0.10800
H 	H 	0.37430 0.37430 0.00830 0.07000
C 	C 	0.00766 0.06834 0.46200 -0.01600
C 	C 	0.01030 0.13750 0.42610 0.04700
C 	C 	0.00910 0.19550 0.39770 -0.10800
H 	H 	0.00830 0.24310 0.37430 0.07000
C 	C 	0.06834 0.00766 0.46200 -0.01600
C 	C 	0.13750 0.01030 0.42610 0.04700
C 	C 	0.19550 0.00910 0.39770 -0.10800
H 	H 	0.24310 0.00830 0.37430 0.07000
C 	C 	0.46200 0.46200 0.06834 -0.01600
C 	C 	0.42610 0.42610 0.13750 0.04700
C 	C 	0.39770 0.39770 0.19550 -0.10800
H 	H 	0.37430 0.37430 0.24310 0.07000
C 	C 	0.99234 0.53800 0.93166 -0.01600
C 	C 	0.98970 0.57390 0.86250 0.04700
C 	C 	0.99090 0.60230 0.80450 -0.10800
H 	H 	0.99170 0.62570 0.75690 0.07000
C 	C 	0.53800 0.99234 0.53800 -0.01600
C 	C 	0.57390 0.98970 0.57390 0.04700
C 	C 	0.60230 0.99090 0.60230 -0.10800
H 	H 	0.62570 0.99170 0.62570 0.07000
C 	C 	0.53800 0.93166 0.53800 -0.01600
C 	C 	0.57390 0.86250 0.57390 0.04700
C 	C 	0.60230 0.80450 0.60230 -0.10800
H 	H 	0.62570 0.75690 0.62570 0.07000
C 	C 	0.93166 0.53800 0.99234 -0.01600
C 	C 	0.86250 0.57390 0.98970 0.04700
C 	C 	0.80450 0.60230 0.99090 -0.10800
H 	H 	0.75690 0.62570 0.99170 0.07000
C 	C 	0.53800 0.99234 0.93166 -0.01600
C 	C 	0.57390 0.98970 0.86250 0.04700
C 	C 	0.60230 0.99090 0.80450 -0.10800
H 	H 	0.62570 0.99170 0.75690 0.07000
C 	C 	0.93166 0.53800 0.53800 -0.01600
C 	C 	0.86250 0.57390 0.57390 0.04700
C 	C 	0.80450 0.60230 0.60230 -0.10800
H 	H 	0.75690 0.62570 0.62570 0.07000
C 	C 	0.99234 0.53800 0.53800 -0.01600
C 	C 	0.98970 0.57390 0.57390 0.04700
C 	C 	0.99090 0.60230 0.60230 -0.10800
H 	H 	0.99170 0.62570 0.62570 0.07000
C 	C 	0.53800 0.93166 0.99234 -0.01600
C 	C 	0.57390 0.86250 0.98970 0.04700
C 	C 	0.60230 0.80450 0.99090 -0.10800
H 	H 	0.62570 0.75690 0.99170 0.07000
C 	C 	0.53800 0.53800 0.93166 -0.01600
C 	C 	0.57390 0.57390 0.86250 0.04700
C 	C 	0.60230 0.60230 0.80450 -0.10800
H 	H 	0.62570 0.62570 0.75690 0.07000
C 	C 	0.99234 0.93166 0.53800 -0.01600
C 	C 	0.98970 0.86250 0.57390 0.04700
C 	C 	0.99090 0.80450 0.60230 -0.10800
H 	H 	0.99170 0.75690 0.62570 0.07000
C 	C 	0.93166 0.99234 0.53800 -0.01600
C 	C 	0.86250 0.98970 0.57390 0.04700
C 	C 	0.80450 0.99090 0.60230 -0.10800
H 	H 	0.75690 0.99170 0.62570 0.07000
C 	C 	0.53800 0.53800 0.99234 -0.01600
C 	C 	0.57390 0.57390 0.98970 0.04700
C 	C 	0.60230 0.60230 0.99090 -0.10800
H 	H 	0.62570 0.62570 0.99170 0.07000
