data_crystal

_cell_length_a 18.36520
_cell_length_b 18.36520
_cell_length_c 18.36520
_cell_angle_alpha 60.00000
_cell_angle_beta  60.00000
_cell_angle_gamma 60.00000

_symmetry_space_group_name_	'P 1'
_symmetry_space_group_name_H-M	'P 1'

loop_
_symmetry_equiv_pos_as_xyz
  x,y,z

loop_
_atom_site_label
_atom_site_type_symbol
_atom_site_fract_x
_atom_site_fract_y
_atom_site_fract_z
_atom_site_charge
Yb	Yb	0.25000 0.25000 0.25000 1.57800
Yb	Yb	0.75000 0.75000 0.25000 1.58300
Yb	Yb	0.25000 0.75000 0.75000 1.58300
Yb	Yb	0.75000 0.75000 0.75000 1.58600
Yb	Yb	0.25000 0.75000 0.25000 1.58000
Yb	Yb	0.25000 0.25000 0.75000 1.58000
Yb	Yb	0.75000 0.25000 0.75000 1.58300
Yb	Yb	0.75000 0.25000 0.25000 1.58000
Cd	Cd	-0.00000 0.50000 -0.00000 1.14100
Cd	Cd	0.50000 0.50000 0.50000 1.25900
Cd	Cd	0.00000 0.00000 0.50000 1.14100
Cd	Cd	-0.00000 0.00000 -0.00000 1.08200
Cd	Cd	0.00000 0.50000 0.50000 1.20000
Cd	Cd	0.50000 0.00000 -0.00000 1.14300
Cd	Cd	0.50000 0.00000 0.50000 1.20200
Cd	Cd	0.50000 0.50000 -0.00000 1.20200
H 	H 	0.42120 0.51100 0.22000 0.13800
H 	H 	0.57880 0.48900 0.78000 0.14200
H 	H 	0.42720 0.51980 0.34860 0.13700
H 	H 	0.28000 0.07880 0.48900 0.07900
H 	H 	0.98020 0.65140 0.07280 0.16800
H 	H 	0.84860 0.51980 0.70440 0.16700
H 	H 	0.20440 0.92720 0.34860 0.19300
H 	H 	0.92120 0.01100 0.34780 0.11500
H 	H 	0.01980 0.70440 0.34860 0.06500
H 	H 	0.84780 0.72000 0.42120 0.17000
H 	H 	0.70440 0.01980 0.84860 0.09300
H 	H 	0.29560 0.57280 0.98020 0.21300
H 	H 	0.51100 0.42120 0.72000 0.14600
H 	H 	0.07880 0.65220 0.28000 0.07900
H 	H 	0.48900 0.65220 0.57880 0.14200
H 	H 	0.98020 0.29560 0.65140 0.21600
H 	H 	0.22000 0.42120 0.34780 0.13700
H 	H 	0.92120 0.34780 0.72000 0.20000
H 	H 	0.34860 0.01980 0.42720 0.05900
H 	H 	0.84780 0.01100 0.72000 0.09200
H 	H 	0.34860 0.20440 0.01980 0.05700
H 	H 	0.48020 0.57280 0.15140 0.12000
H 	H 	0.34780 0.92120 0.22000 0.19300
H 	H 	0.70440 0.42720 0.01980 0.06900
H 	H 	0.34780 0.22000 0.51100 0.13700
H 	H 	0.78000 0.57880 0.65220 0.14200
H 	H 	0.15140 0.29560 0.07280 0.05500
H 	H 	0.07880 0.28000 0.98900 0.16100
H 	H 	0.34780 0.51100 0.92120 0.19300
H 	H 	0.92720 0.84860 0.01980 0.14200
H 	H 	0.15220 0.98900 0.28000 0.19300
H 	H 	0.65220 0.78000 0.48900 0.14200
H 	H 	0.65140 0.57280 0.79560 0.14400
H 	H 	0.01100 0.84780 0.22000 0.08000
H 	H 	0.57880 0.78000 0.15220 0.11900
H 	H 	0.22000 0.01100 0.42120 0.05600
H 	H 	0.48900 0.57880 0.28000 0.13400
H 	H 	0.65220 0.07880 0.78000 0.09000
H 	H 	0.29560 0.15140 0.57280 0.11300
H 	H 	0.84860 0.92720 0.51980 0.21400
H 	H 	0.20440 0.51980 0.92720 0.19400
H 	H 	0.57280 0.29560 0.48020 0.13400
H 	H 	0.51100 0.34780 0.42120 0.13800
H 	H 	0.98900 0.07880 0.15220 0.14800
H 	H 	0.48020 0.79560 0.57280 0.14300
H 	H 	0.51980 0.20440 0.42720 0.13700
H 	H 	0.07280 0.15140 0.98020 0.14200
H 	H 	0.78000 0.98900 0.57880 0.21900
H 	H 	0.79560 0.48020 0.07280 0.09000
H 	H 	0.70440 0.84860 0.42720 0.16600
H 	H 	0.15220 0.28000 0.57880 0.10900
H 	H 	0.98020 0.07280 0.29560 0.16100
H 	H 	0.57880 0.15220 0.48900 0.11700
H 	H 	0.92120 0.72000 0.01100 0.12300
H 	H 	0.28000 0.48900 0.15220 0.11000
H 	H 	0.79560 0.65140 0.48020 0.14300
H 	H 	0.42720 0.34860 0.70440 0.14300
H 	H 	0.42120 0.22000 0.84780 0.16300
H 	H 	0.28000 0.15220 0.07880 0.05300
H 	H 	0.42120 0.84780 0.51100 0.16400
H 	H 	0.34860 0.42720 0.20440 0.13500
H 	H 	0.98900 0.78000 0.07880 0.17100
H 	H 	0.51100 0.72000 0.34780 0.14500
H 	H 	0.72000 0.51100 0.84780 0.16900
H 	H 	0.65140 0.98020 0.57280 0.21800
H 	H 	0.92720 0.20440 0.84860 0.21500
H 	H 	0.01980 0.92720 0.70440 0.12300
H 	H 	0.79560 0.07280 0.65140 0.09100
H 	H 	0.92720 0.01980 0.20440 0.11800
H 	H 	0.07280 0.79560 0.15140 0.06500
H 	H 	0.78000 0.65220 0.98900 0.21900
H 	H 	0.20440 0.34860 0.51980 0.13600
H 	H 	0.48020 0.15140 0.79560 0.12200
H 	H 	0.07280 0.98020 0.79560 0.16500
H 	H 	0.15140 0.07280 0.48020 0.06200
H 	H 	0.84780 0.42120 0.01100 0.08500
H 	H 	0.72000 0.84780 0.92120 0.21800
H 	H 	0.65140 0.79560 0.98020 0.21700
H 	H 	0.84860 0.70440 0.92720 0.21700
H 	H 	0.57280 0.48020 0.65140 0.14200
H 	H 	0.01100 0.22000 0.92120 0.11100
H 	H 	0.22000 0.34780 0.01100 0.05400
H 	H 	0.51980 0.84860 0.20440 0.16000
H 	H 	0.01980 0.34860 0.92720 0.11600
H 	H 	0.15220 0.57880 0.98900 0.19900
H 	H 	0.51980 0.42720 0.84860 0.16100
H 	H 	0.98900 0.15220 0.78000 0.20100
H 	H 	0.01100 0.92120 0.84780 0.13500
H 	H 	0.42720 0.70440 0.51980 0.14500
H 	H 	0.72000 0.92120 0.51100 0.19900
H 	H 	0.15140 0.48020 0.29560 0.11200
H 	H 	0.29560 0.98020 0.15140 0.19300
H 	H 	0.65220 0.48900 0.07880 0.08900
H 	H 	0.48900 0.28000 0.65220 0.13500
H 	H 	0.07880 0.98900 0.65220 0.16800
H 	H 	0.57280 0.65140 0.29560 0.13600
C 	C 	0.57230 0.31990 0.41970 -0.31600
C 	C 	0.81190 0.58030 0.68010 -0.32100
C 	C 	0.08030 0.68010 0.31190 -0.25500
C 	C 	0.31990 0.91970 0.18810 -0.37600
C 	C 	0.31990 0.18810 0.57230 -0.31500
C 	C 	0.13800 0.36820 0.87960 0.44700
C 	C 	0.92770 0.81190 0.08030 -0.31500
C 	C 	0.81990 0.41970 0.07230 -0.25500
C 	C 	0.81990 0.07230 0.68810 -0.26000
C 	C 	0.68010 0.08030 0.81190 -0.26000
C 	C 	0.37960 0.36820 0.61420 0.45300
C 	C 	0.12040 0.13180 0.86200 0.44700
C 	C 	0.88580 0.36200 0.12040 0.41300
C 	C 	0.92770 0.08030 0.18010 -0.31800
C 	C 	0.08030 0.31190 0.92770 -0.31100
C 	C 	0.38580 0.13180 0.62040 0.45000
C 	C 	0.36200 0.62040 0.13180 0.45400
C 	C 	0.13180 0.38580 0.12040 0.41200
C 	C 	0.11420 0.63800 0.87960 0.48600
C 	C 	0.42770 0.58030 0.31190 -0.31700
C 	C 	0.86200 0.38580 0.63180 0.48800
C 	C 	0.63180 0.62040 0.88580 0.45300
C 	C 	0.57230 0.41970 0.68810 -0.32500
C 	C 	0.12040 0.86200 0.88580 0.44500
C 	C 	0.91970 0.68810 0.07230 -0.32400
C 	C 	0.61420 0.37960 0.13800 0.41900
C 	C 	0.87960 0.11420 0.86820 0.48300
C 	C 	0.07230 0.81990 0.18810 -0.25100
C 	C 	0.13180 0.12040 0.36200 0.41500
C 	C 	0.07230 0.18810 0.91970 -0.31600
C 	C 	0.42770 0.31190 0.68010 -0.32000
C 	C 	0.37960 0.63800 0.36820 0.45100
C 	C 	0.63180 0.86200 0.62040 0.48900
C 	C 	0.86200 0.63180 0.12040 0.45400
C 	C 	0.58030 0.81190 0.18010 -0.31800
C 	C 	0.38580 0.86200 0.13180 0.48300
C 	C 	0.62040 0.63180 0.38580 0.45500
C 	C 	0.68010 0.81190 0.42770 -0.32100
C 	C 	0.41970 0.81990 0.57230 -0.31600
C 	C 	0.88580 0.12040 0.63180 0.41600
C 	C 	0.86820 0.61420 0.87960 0.48300
C 	C 	0.86200 0.12040 0.38580 0.44900
C 	C 	0.61420 0.86820 0.37960 0.45200
C 	C 	0.13180 0.36200 0.38580 0.45000
C 	C 	0.87960 0.86820 0.13800 0.44800
C 	C 	0.88580 0.63180 0.36200 0.45200
C 	C 	0.18010 0.31190 0.58030 -0.31600
C 	C 	0.36200 0.88580 0.62040 0.45100
C 	C 	0.91970 0.07230 0.31990 -0.31600
C 	C 	0.87960 0.13800 0.11420 0.45000
C 	C 	0.38580 0.62040 0.86200 0.48500
C 	C 	0.36820 0.11420 0.13800 0.41200
C 	C 	0.58030 0.18010 0.42770 -0.32200
C 	C 	0.81990 0.68810 0.41970 -0.32000
C 	C 	0.11420 0.36820 0.63800 0.45000
C 	C 	0.61420 0.13800 0.86820 0.41700
C 	C 	0.18810 0.41970 0.31990 -0.31600
C 	C 	0.18010 0.92770 0.31190 -0.37600
C 	C 	0.11420 0.87960 0.36820 0.48400
C 	C 	0.31190 0.18010 0.08030 -0.25100
C 	C 	0.68810 0.81990 0.91970 -0.37500
C 	C 	0.31990 0.57230 0.91970 -0.37600
C 	C 	0.91970 0.31990 0.68810 -0.38100
C 	C 	0.08030 0.92770 0.68010 -0.31900
C 	C 	0.42770 0.68010 0.58030 -0.32500
C 	C 	0.92770 0.18010 0.81190 -0.37600
C 	C 	0.31190 0.08030 0.42770 -0.25300
C 	C 	0.68810 0.91970 0.57230 -0.38200
C 	C 	0.41970 0.18810 0.81990 -0.31600
C 	C 	0.68010 0.42770 0.08030 -0.26300
C 	C 	0.41970 0.57230 0.18810 -0.32000
C 	C 	0.36820 0.37960 0.11420 0.45000
C 	C 	0.63180 0.88580 0.86200 0.48300
C 	C 	0.62040 0.36200 0.63180 0.45700
C 	C 	0.18810 0.07230 0.41970 -0.25700
C 	C 	0.18810 0.31990 0.07230 -0.25200
C 	C 	0.86820 0.87960 0.63800 0.48200
C 	C 	0.57230 0.68810 0.31990 -0.32100
C 	C 	0.63800 0.86820 0.11420 0.45100
C 	C 	0.86820 0.63800 0.61420 0.45300
C 	C 	0.81190 0.68010 0.92770 -0.37400
C 	C 	0.63800 0.37960 0.86820 0.45100
C 	C 	0.36200 0.13180 0.88580 0.45000
C 	C 	0.62040 0.38580 0.36200 0.45200
C 	C 	0.31190 0.42770 0.18010 -0.31600
C 	C 	0.36820 0.13800 0.37960 0.41300
C 	C 	0.12040 0.88580 0.13180 0.41000
C 	C 	0.37960 0.61420 0.63800 0.45600
C 	C 	0.63800 0.11420 0.37960 0.45300
C 	C 	0.18010 0.58030 0.92770 -0.38000
C 	C 	0.13800 0.61420 0.36820 0.41600
C 	C 	0.58030 0.42770 0.81190 -0.31800
C 	C 	0.07230 0.91970 0.81990 -0.31200
C 	C 	0.81190 0.92770 0.58030 -0.37300
C 	C 	0.68810 0.57230 0.81990 -0.32000
C 	C 	0.13800 0.87960 0.61420 0.45200
O 	O 	0.62090 0.04530 0.40690 -0.49400
O 	O 	0.59310 0.37910 0.57310 -0.41400
O 	O 	0.25000 0.88060 0.25000 -0.13200
O 	O 	0.88060 0.75000 0.11940 -0.15200
O 	O 	0.37910 0.95470 0.59310 -0.31600
O 	O 	0.37360 0.14600 0.68520 -0.41600
O 	O 	0.12640 0.35400 0.70480 -0.42100
O 	O 	0.12640 0.70480 0.81480 -0.41900
O 	O 	0.35400 0.12640 0.20480 -0.42000
O 	O 	0.04530 0.42690 0.62090 -0.49300
O 	O 	0.07310 0.45470 0.09310 -0.51800
O 	O 	0.85400 0.70480 0.62640 -0.36400
O 	O 	0.68520 0.64600 0.37360 -0.39000
O 	O 	0.57310 0.87910 0.59310 -0.37500
O 	O 	0.92690 0.54530 0.90690 -0.28200
O 	O 	0.70480 0.31480 0.85400 -0.36700
O 	O 	0.81480 0.20480 0.12640 -0.41700
O 	O 	0.09310 0.95470 0.07310 -0.41600
O 	O 	0.37910 0.59310 0.07310 -0.47600
O 	O 	0.88060 0.25000 0.75000 -0.12300
O 	O 	0.40690 0.62090 0.42690 -0.41400
O 	O 	0.75000 0.38060 0.11940 -0.18700
O 	O 	0.09310 0.87910 0.95470 -0.31900
O 	O 	0.35400 0.20480 0.31480 -0.39400
O 	O 	0.62640 0.85400 0.31480 -0.36900
O 	O 	0.37360 0.79520 0.14600 -0.42200
O 	O 	0.45470 0.59310 0.87910 -0.37400
O 	O 	0.12090 0.54530 0.42690 -0.43400
O 	O 	0.37910 0.07310 0.95470 -0.37800
O 	O 	0.31480 0.70480 0.35400 -0.39500
O 	O 	0.68520 0.29520 0.64600 -0.39200
O 	O 	0.54530 0.40690 0.12090 -0.43700
O 	O 	0.04530 0.62090 0.90690 -0.43600
O 	O 	0.61940 0.38060 0.75000 -0.15300
O 	O 	0.25000 0.25000 0.61940 -0.16700
O 	O 	0.12090 0.90690 0.54530 -0.37800
O 	O 	0.79520 0.37360 0.64600 -0.39600
O 	O 	0.14600 0.37360 0.18520 -0.42300
O 	O 	0.75000 0.75000 0.88060 -0.11700
O 	O 	0.62640 0.20480 0.85400 -0.36200
O 	O 	0.07310 0.09310 0.37910 -0.52100
O 	O 	0.40690 0.42690 0.54530 -0.41700
O 	O 	0.64600 0.79520 0.68520 -0.39200
O 	O 	0.25000 0.61940 0.88060 -0.12700
O 	O 	0.87910 0.09310 0.45470 -0.41100
O 	O 	0.62640 0.31480 0.20480 -0.39500
O 	O 	0.11940 0.75000 0.25000 -0.19300
O 	O 	0.85400 0.81480 0.70480 -0.36200
O 	O 	0.42690 0.40690 0.04530 -0.49600
O 	O 	0.62090 0.92690 0.04530 -0.40900
O 	O 	0.25000 0.11940 0.38060 -0.19800
O 	O 	0.64600 0.87360 0.79520 -0.36600
O 	O 	0.95470 0.57310 0.37910 -0.31600
O 	O 	0.18520 0.87360 0.14600 -0.39000
O 	O 	0.20480 0.81480 0.62640 -0.38800
O 	O 	0.95470 0.09310 0.57310 -0.35000
O 	O 	0.14600 0.18520 0.29520 -0.42500
O 	O 	0.75000 0.11940 0.75000 -0.18200
O 	O 	0.38060 0.25000 0.75000 -0.15700
O 	O 	0.87360 0.29520 0.18520 -0.36400
O 	O 	0.31480 0.62640 0.70480 -0.39600
O 	O 	0.35400 0.31480 0.12640 -0.42700
O 	O 	0.20480 0.62640 0.35400 -0.39000
O 	O 	0.59310 0.45470 0.37910 -0.41300
O 	O 	0.87360 0.64600 0.29520 -0.36400
O 	O 	0.45470 0.07310 0.59310 -0.47300
O 	O 	0.29520 0.68520 0.14600 -0.41800
O 	O 	0.57310 0.59310 0.95470 -0.31600
O 	O 	0.70480 0.85400 0.12640 -0.39200
O 	O 	0.18520 0.79520 0.87360 -0.36600
O 	O 	0.20480 0.35400 0.81480 -0.38700
O 	O 	0.79520 0.18520 0.37360 -0.39600
O 	O 	0.12090 0.42690 0.90690 -0.37700
O 	O 	0.92690 0.62090 0.54530 -0.33100
O 	O 	0.85400 0.62640 0.81480 -0.36300
O 	O 	0.25000 0.25000 0.11940 -0.20300
O 	O 	0.70480 0.12640 0.31480 -0.42500
O 	O 	0.09310 0.07310 0.87910 -0.47600
O 	O 	0.42690 0.04530 0.12090 -0.51500
O 	O 	0.75000 0.88060 0.61940 -0.12000
O 	O 	0.04530 0.90690 0.42690 -0.43800
O 	O 	0.11940 0.88060 0.75000 -0.15400
O 	O 	0.87910 0.57310 0.09310 -0.41100
O 	O 	0.62090 0.40690 0.92690 -0.33500
O 	O 	0.40690 0.54530 0.62090 -0.41500
O 	O 	0.59310 0.57310 0.45470 -0.41200
O 	O 	0.29520 0.87360 0.68520 -0.36000
O 	O 	0.68520 0.37360 0.29520 -0.39100
O 	O 	0.90690 0.04530 0.92690 -0.35700
O 	O 	0.18520 0.14600 0.79520 -0.42400
O 	O 	0.81480 0.85400 0.20480 -0.36000
O 	O 	0.87360 0.18520 0.64600 -0.36300
O 	O 	0.64600 0.68520 0.87360 -0.36000
O 	O 	0.92690 0.90690 0.62090 -0.28300
O 	O 	0.37360 0.68520 0.79520 -0.39200
O 	O 	0.95470 0.37910 0.09310 -0.35100
O 	O 	0.25000 0.38060 0.25000 -0.16700
O 	O 	0.75000 0.75000 0.38060 -0.14800
O 	O 	0.61940 0.25000 0.38060 -0.16200
O 	O 	0.07310 0.37910 0.45470 -0.48000
O 	O 	0.75000 0.61940 0.75000 -0.14800
O 	O 	0.29520 0.14600 0.87360 -0.39000
O 	O 	0.31480 0.35400 0.62640 -0.39700
O 	O 	0.90690 0.92690 0.12090 -0.29900
O 	O 	0.14600 0.29520 0.37360 -0.42300
O 	O 	0.12640 0.81480 0.35400 -0.42000
O 	O 	0.54530 0.12090 0.92690 -0.35200
O 	O 	0.54530 0.92690 0.40690 -0.33600
O 	O 	0.38060 0.61940 0.25000 -0.16100
O 	O 	0.88060 0.11940 0.25000 -0.16200
O 	O 	0.45470 0.87910 0.07310 -0.43600
O 	O 	0.81480 0.12640 0.85400 -0.39200
O 	O 	0.61940 0.75000 0.25000 -0.15700
O 	O 	0.57310 0.95470 0.87910 -0.28600
O 	O 	0.42690 0.12090 0.40690 -0.43600
O 	O 	0.87910 0.45470 0.57310 -0.37600
O 	O 	0.38060 0.75000 0.61940 -0.15200
O 	O 	0.79520 0.64600 0.18520 -0.39700
O 	O 	0.90690 0.12090 0.04530 -0.45600
O 	O 	0.11940 0.25000 0.88060 -0.16300
