data_crystal

_cell_length_a 9.44830
_cell_length_b 29.04200
_cell_length_c 30.75000
_cell_angle_alpha 90.00000
_cell_angle_beta  90.00000
_cell_angle_gamma 90.00000

_symmetry_space_group_name_	'P 1'
_symmetry_space_group_name_H-M	'P 1'

loop_
_symmetry_equiv_pos_as_xyz
  x,y,z

loop_
_atom_site_label
_atom_site_type_symbol
_atom_site_fract_x
_atom_site_fract_y
_atom_site_fract_z
_atom_site_charge
Ni	Ni	0.83550 0.96634 0.28698 1.10500
Ni	Ni	0.16450 0.46634 0.21302 1.10500
H 	H 	0.00760 0.51280 0.16590 0.11200
H 	H 	0.96010 0.58620 0.38610 0.07500
H 	H 	0.73990 0.11070 0.09460 0.07100
H 	H 	0.25000 0.61690 0.29630 0.08200
H 	H 	0.10810 0.20650 0.12530 0.08100
H 	H 	0.19320 0.65940 0.23410 0.02900
H 	H 	0.02710 0.87370 0.22660 0.06100
H 	H 	0.97290 0.37370 0.27340 0.06100
H 	H 	0.92870 0.44280 0.24140 0.11900
H 	H 	0.74830 0.40580 0.27860 0.23700
H 	H 	0.53640 0.53620 0.49640 0.04300
H 	H 	0.23550 0.65230 0.37250 0.08100
H 	H 	0.76310 0.00290 0.19980 0.04600
H 	H 	0.31760 0.55610 0.24720 0.04300
H 	H 	0.95020 0.16970 0.97590 0.01800
H 	H 	0.67530 0.23160 0.08810 0.09000
H 	H 	0.50040 0.55620 0.42320 0.06200
H 	H 	0.40760 0.58980 0.34430 0.07600
H 	H 	0.56820 0.60770 0.34550 0.08500
H 	H 	0.48170 0.23700 0.13550 0.09800
H 	H 	0.39160 0.48650 0.19060 0.11200
H 	H 	0.32470 0.73160 0.41190 0.09000
H 	H 	0.23690 0.50290 0.30020 0.04500
H 	H 	0.50300 0.80070 0.31810 0.01600
H 	H 	0.92880 0.94490 0.19880 0.06300
H 	H 	0.00860 0.37810 0.17920 0.04200
H 	H 	0.23180 0.06720 0.99130 0.04100
H 	H 	0.07120 0.44490 0.30120 0.06300
H 	H 	0.21940 0.22110 0.05440 0.08400
H 	H 	0.26950 0.94880 0.30490 0.08100
H 	H 	0.61370 0.71350 0.44310 0.08700
H 	H 	0.80680 0.15940 0.26590 0.02800
H 	H 	0.38630 0.21350 0.05690 0.08700
H 	H 	0.65220 0.45190 0.10710 0.01100
H 	H 	0.83620 0.90130 0.18450 0.06800
H 	H 	0.50670 0.15060 0.04980 0.04000
H 	H 	0.47380 0.08910 0.98880 0.05300
H 	H 	0.14600 0.18740 0.19870 0.08300
H 	H 	0.06740 0.16850 0.09000 0.07500
H 	H 	0.93870 0.93590 0.38370 0.04900
H 	H 	0.36980 0.54830 0.15180 0.07200
H 	H 	0.65140 0.96990 0.17620 0.04600
H 	H 	0.55770 0.43750 0.14860 0.00700
H 	H 	0.43180 0.10770 0.15450 0.08400
H 	H 	0.14000 0.12540 0.03860 0.06400
H 	H 	0.78060 0.72110 0.44560 0.08400
H 	H 	0.86220 0.12170 0.03070 0.07700
H 	H 	0.51830 0.73700 0.36450 0.09700
H 	H 	0.35030 0.98250 0.18390 0.01600
H 	H 	0.16380 0.40130 0.31550 0.06800
H 	H 	0.38310 0.03280 0.35670 0.24500
H 	H 	0.61690 0.53280 0.14330 0.24500
H 	H 	0.72650 0.64550 0.48750 0.07500
H 	H 	0.60780 0.48690 0.23750 0.08700
H 	H 	0.93260 0.66850 0.41000 0.07500
H 	H 	0.43120 0.93420 0.18500 0.00600
H 	H 	0.39220 0.98690 0.26250 0.08700
H 	H 	0.60840 0.98650 0.30940 0.11100
H 	H 	0.99140 0.87810 0.32080 0.04200
H 	H 	0.46360 0.03620 0.00360 0.04200
H 	H 	0.04980 0.66970 0.52410 0.01700
H 	H 	0.53040 0.04930 0.27490 0.05100
H 	H 	0.62430 0.07920 0.04900 0.05700
H 	H 	0.29280 0.10580 0.09800 0.03400
H 	H 	0.49960 0.05620 0.07680 0.06100
H 	H 	0.89190 0.70650 0.37470 0.08000
H 	H 	0.68240 0.05610 0.25280 0.04200
H 	H 	0.27350 0.14550 0.01250 0.07500
H 	H 	0.85480 0.38200 0.20080 0.04700
H 	H 	0.76330 0.27960 0.03330 0.02200
H 	H 	0.94210 0.47380 0.10720 0.05300
H 	H 	0.85400 0.68740 0.30130 0.08300
H 	H 	0.06130 0.43590 0.11630 0.04900
H 	H 	0.59240 0.08980 0.15570 0.07500
H 	H 	0.52620 0.58910 0.51120 0.05400
H 	H 	0.76200 0.99460 0.38580 0.06200
H 	H 	0.76820 0.56720 0.50870 0.04200
H 	H 	0.34860 0.46990 0.32380 0.04600
H 	H 	0.49890 0.94450 0.25630 0.08100
H 	H 	0.85870 0.04010 0.38540 0.06400
H 	H 	0.15030 0.29630 0.07330 0.09600
H 	H 	0.23800 0.49460 0.11420 0.06200
H 	H 	0.79310 0.49090 0.16860 0.09100
H 	H 	0.73050 0.44880 0.19510 0.08100
H 	H 	0.75160 0.55100 0.45920 0.04200
H 	H 	0.56880 0.43420 0.31500 0.00600
H 	H 	0.88630 0.86740 0.25590 0.05400
H 	H 	0.64970 0.48250 0.31610 0.01600
H 	H 	0.34780 0.95190 0.39290 0.01100
H 	H 	0.24840 0.05100 0.04080 0.04200
H 	H 	0.76450 0.15230 0.12750 0.08000
H 	H 	0.50110 0.44450 0.24370 0.08100
H 	H 	0.23550 0.56500 0.17930 0.05900
H 	H 	0.46960 0.54930 0.22510 0.05100
H 	H 	0.14520 0.88200 0.29920 0.04700
H 	H 	0.13780 0.62170 0.46930 0.07700
H 	H 	0.26010 0.61070 0.40540 0.07000
H 	H 	0.33050 0.41950 0.26410 0.11900
H 	H 	0.25170 0.90580 0.22140 0.23600
H 	H 	0.03990 0.08620 0.11390 0.07400
H 	H 	0.05790 0.97380 0.39280 0.05300
H 	H 	0.38500 0.18900 0.19120 0.08700
H 	H 	0.23670 0.77960 0.46670 0.02200
H 	H 	0.37570 0.57920 0.45100 0.05600
H 	H 	0.00070 0.03590 0.17210 0.01900
H 	H 	0.83440 0.86000 0.38030 0.00900
H 	H 	0.76450 0.06500 0.32070 0.05900
H 	H 	0.11370 0.36740 0.24410 0.05400
H 	H 	0.16560 0.36000 0.11970 0.00900
H 	H 	0.49330 0.65060 0.45020 0.04000
H 	H 	0.44230 0.93750 0.35140 0.00700
H 	H 	0.66950 0.91950 0.23590 0.11900
H 	H 	0.70720 0.60580 0.40200 0.03400
H 	H 	0.63020 0.04830 0.34820 0.07200
H 	H 	0.89320 0.63700 0.24310 0.02900
H 	H 	0.84970 0.79630 0.42670 0.09600
H 	H 	0.14130 0.54010 0.11460 0.06400
H 	H 	0.07130 0.94280 0.25860 0.11800
H 	H 	0.99930 0.53590 0.32790 0.01900
H 	H 	0.86000 0.62540 0.46140 0.06400
H 	H 	0.61500 0.68900 0.30880 0.08700
H 	H 	0.10680 0.13700 0.25690 0.02900
H 	H 	0.55820 0.73150 0.24650 0.03200
H 	H 	0.99240 0.01280 0.33410 0.11100
H 	H 	0.20690 0.99090 0.33140 0.09100
H 	H 	0.44180 0.23150 0.25350 0.03200
H 	H 	0.49700 0.30070 0.18190 0.01600
H 	H 	0.75000 0.11690 0.20370 0.08100
C 	C 	0.38600 0.53280 0.23680 -0.02400
C 	C 	0.70000 0.71730 0.42530 -0.16900
C 	C 	0.94650 0.59660 0.35700 -0.15500
C 	C 	0.31250 0.64010 0.28620 -0.15200
C 	C 	0.94800 0.89010 0.24130 -0.07100
C 	C 	0.62970 0.19940 0.26550 -0.10200
C 	C 	0.46800 0.61760 0.34630 -0.15700
C 	C 	0.41750 0.26200 0.13230 -0.17700
C 	C 	0.05010 0.08170 0.22000 -0.12700
C 	C 	0.44190 0.06830 0.01230 -0.08100
C 	C 	0.06200 0.90000 0.30930 -0.03000
C 	C 	0.56220 0.14890 0.19160 0.12400
C 	C 	0.37120 0.95530 0.20230 0.11500
C 	C 	0.13500 0.72910 0.50060 -0.15700
C 	C 	0.52940 0.68300 0.29360 -0.14800
C 	C 	0.67500 0.87500 0.31640 0.35100
C 	C 	0.72120 0.16540 0.25070 0.05300
C 	C 	0.88350 0.65660 0.30670 -0.15000
C 	C 	0.66100 0.22880 0.30120 0.25800
C 	C 	0.21660 0.74750 0.46720 0.07900
C 	C 	0.15780 0.65380 0.46870 -0.17300
C 	C 	0.10560 0.68220 0.50130 0.08400
C 	C 	0.90670 0.62670 0.27210 0.05900
C 	C 	0.89440 0.18220 0.99870 0.08400
C 	C 	0.54400 0.47140 0.25840 -0.15200
C 	C 	0.13050 0.17510 0.11490 -0.15300
C 	C 	0.71800 0.03770 0.33350 -0.08300
C 	C 	0.67850 0.63130 0.42200 0.01500
C 	C 	0.32150 0.13130 0.07800 0.01500
C 	C 	0.26890 0.71910 0.43470 -0.16500
C 	C 	0.77930 0.79720 0.40470 -0.17800
C 	C 	0.86610 0.92020 0.20970 -0.09600
C 	C 	0.30000 0.21730 0.07470 -0.16900
C 	C 	0.81560 0.01600 0.36690 -0.08100
C 	C 	0.18440 0.51600 0.13310 -0.08100
C 	C 	0.43780 0.64890 0.30840 0.12400
C 	C 	0.61400 0.03280 0.26320 -0.02400
C 	C 	0.99400 0.45720 0.13040 -0.03200
C 	C 	0.76050 0.17220 0.06460 0.12800
C 	C 	0.84220 0.15380 0.03130 -0.17300
C 	C 	0.37000 0.95940 0.36230 0.13000
C 	C 	0.22070 0.29720 0.09530 -0.17800
C 	C 	0.32500 0.37500 0.18360 0.35100
C 	C 	0.05200 0.39010 0.25870 -0.07100
C 	C 	0.58250 0.76200 0.36770 -0.17700
C 	C 	0.09670 0.14150 0.15090 0.11500
C 	C 	0.93800 0.40000 0.19070 -0.03000
C 	C 	0.78340 0.24750 0.03280 0.07900
C 	C 	0.47880 0.58000 0.44530 -0.11800
C 	C 	0.86500 0.22910 0.99940 -0.15700
C 	C 	0.57340 0.79980 0.34010 0.09300
C 	C 	0.49560 0.70820 0.25660 0.05100
C 	C 	0.22980 0.33500 0.12290 0.09000
C 	C 	0.77020 0.83500 0.37710 0.09000
C 	C 	0.73110 0.21910 0.06530 -0.16500
C 	C 	0.96980 0.56660 0.32250 0.05800
C 	C 	0.71880 0.57370 0.48100 -0.06400
C 	C 	0.31450 0.26070 0.10010 0.14400
C 	C 	0.08300 0.76140 0.53140 0.37200
C 	C 	0.62880 0.45530 0.29770 0.11500
C 	C 	0.55810 0.56830 0.48770 -0.08100
C 	C 	0.27880 0.66540 0.24930 0.05300
C 	C 	0.48120 0.12800 0.07310 0.00800
C 	C 	0.51880 0.62800 0.42690 0.00800
C 	C 	0.53200 0.11760 0.15370 -0.15700
C 	C 	0.75650 0.62260 0.46560 -0.13500
C 	C 	0.68550 0.76070 0.39990 0.14400
C 	C 	0.68750 0.14010 0.21380 -0.15200
C 	C 	0.05350 0.09660 0.14300 -0.15500
C 	C 	0.28830 0.64280 0.39890 -0.15900
C 	C 	0.00600 0.95720 0.36960 -0.03200
C 	C 	0.11650 0.15660 0.19330 -0.15000
C 	C 	0.37030 0.69940 0.23450 -0.10200
C 	C 	0.03020 0.06660 0.17750 0.05800
C 	C 	0.68500 0.98080 0.20490 -0.03600
C 	C 	0.23950 0.67220 0.43540 0.12800
C 	C 	0.90330 0.64150 0.34910 0.11500
C 	C 	0.23800 0.95850 0.33420 -0.15100
C 	C 	0.63000 0.45940 0.13770 0.13100
C 	C 	0.98900 0.55140 0.24550 0.30600
C 	C 	0.01100 0.05140 0.25450 0.30600
C 	C 	0.86950 0.67510 0.38510 -0.15300
C 	C 	0.13390 0.42020 0.29030 -0.09600
C 	C 	0.52120 0.08000 0.05470 -0.11800
C 	C 	0.71170 0.14280 0.10110 -0.15900
C 	C 	0.94990 0.58170 0.28000 -0.12700
C 	C 	0.31500 0.48080 0.29510 -0.03600
C 	C 	0.91700 0.26140 0.96860 0.37200
C 	C 	0.47060 0.18300 0.20640 -0.14800
C 	C 	0.45600 0.97140 0.24160 -0.15300
C 	C 	0.24350 0.12260 0.03440 -0.13600
C 	C 	0.28120 0.07370 0.01900 -0.06300
C 	C 	0.33280 0.33630 0.15510 -0.16400
C 	C 	0.50440 0.20820 0.24340 0.05100
C 	C 	0.76200 0.45850 0.16580 -0.15200
C 	C 	0.28200 0.53770 0.16650 -0.08300
C 	C 	0.66720 0.83630 0.34490 -0.16400
C 	C 	0.42660 0.29980 0.15990 0.09300
C 	C 	0.33900 0.72880 0.19880 0.25800
C 	C 	0.09330 0.12670 0.22790 0.05900
N 	N 	0.73950 0.94110 0.23000 -0.23400
N 	N 	0.27780 0.17470 0.09930 -0.07200
N 	N 	0.43860 0.64250 0.38790 -0.07300
N 	N 	0.92690 0.99080 0.34280 -0.24300
N 	N 	0.32040 0.50520 0.20170 -0.26600
N 	N 	0.07310 0.49080 0.15720 -0.24200
N 	N 	0.10630 0.93090 0.34390 -0.09400
N 	N 	0.72220 0.67470 0.40070 -0.07200
N 	N 	0.42990 0.50420 0.27300 -0.09500
N 	N 	0.00100 0.92540 0.27200 -0.25000
N 	N 	0.67960 0.00520 0.29830 -0.26600
N 	N 	0.26050 0.44110 0.27000 -0.23400
N 	N 	0.89370 0.43090 0.15610 -0.09400
N 	N 	0.99900 0.42540 0.22800 -0.25000
N 	N 	0.57010 0.00420 0.22700 -0.09400
N 	N 	0.56140 0.14250 0.11210 -0.07300
O 	O 	0.39720 0.37120 0.21980 -0.26900
O 	O 	0.58060 0.50720 0.14200 -0.39600
O 	O 	0.76280 0.43180 0.28800 -0.38500
O 	O 	0.11270 0.79850 0.53500 -0.27400
O 	O 	0.06690 0.51740 0.25170 -0.39400
O 	O 	0.26180 0.41190 0.17710 -0.40000
O 	O 	0.60280 0.87120 0.28020 -0.26900
O 	O 	0.38520 0.76810 0.19180 -0.21200
O 	O 	0.25480 0.70680 0.16630 -0.17700
O 	O 	0.73820 0.91190 0.32290 -0.40000
O 	O 	0.98540 0.74130 0.55620 -0.22000
O 	O 	0.01460 0.24130 0.94380 -0.22000
O 	O 	0.74520 0.20680 0.33370 -0.17700
O 	O 	0.23720 0.93180 0.21200 -0.38500
O 	O 	0.09070 0.05790 0.29220 -0.24700
O 	O 	0.61480 0.26810 0.30820 -0.21200
O 	O 	0.41940 0.00720 0.35800 -0.39600
O 	O 	0.93310 0.01740 0.24830 -0.39400
O 	O 	0.88730 0.29850 0.96500 -0.27400
O 	O 	0.90930 0.55790 0.20780 -0.24700
Ni	Ni	0.16450 0.53366 0.78698 1.10400
Ni	Ni	0.83550 0.03366 0.71302 1.10400
H 	H 	0.16560 0.64000 0.88030 0.00900
H 	H 	0.49330 0.34940 0.54980 0.04000
H 	H 	0.83620 0.09870 0.81550 0.06800
H 	H 	0.04980 0.33030 0.47590 0.01700
H 	H 	0.78060 0.27890 0.55440 0.08400
H 	H 	0.56880 0.56580 0.68500 0.00600
H 	H 	0.51830 0.26300 0.63550 0.09700
H 	H 	0.92870 0.55720 0.75860 0.11800
H 	H 	0.46960 0.45070 0.77490 0.05100
H 	H 	0.39160 0.51350 0.80940 0.11100
H 	H 	0.14520 0.11800 0.70080 0.04700
H 	H 	0.61500 0.31100 0.69120 0.08700
H 	H 	0.84970 0.20370 0.57330 0.09600
H 	H 	0.65220 0.54810 0.89290 0.01100
H 	H 	0.43180 0.89230 0.84550 0.08400
H 	H 	0.39220 0.01310 0.73750 0.08700
H 	H 	0.92880 0.05510 0.80120 0.06300
H 	H 	0.25170 0.09420 0.77860 0.23600
H 	H 	0.10680 0.86300 0.74310 0.02900
H 	H 	0.07130 0.05720 0.74140 0.11800
H 	H 	0.60840 0.01350 0.69060 0.11100
H 	H 	0.13780 0.37830 0.53070 0.07700
H 	H 	0.07120 0.55510 0.69880 0.06300
H 	H 	0.83440 0.14000 0.61970 0.00900
H 	H 	0.75160 0.44900 0.54080 0.04200
H 	H 	0.27350 0.85450 0.98750 0.07500
H 	H 	0.20690 0.00910 0.66860 0.09100
H 	H 	0.85480 0.61800 0.79920 0.04700
H 	H 	0.48170 0.76300 0.86450 0.09700
H 	H 	0.85870 0.95990 0.61460 0.06400
H 	H 	0.23800 0.50540 0.88580 0.06200
H 	H 	0.38310 0.96720 0.64330 0.24500
H 	H 	0.14000 0.87460 0.96140 0.06400
H 	H 	0.99240 0.98720 0.66590 0.11100
H 	H 	0.64970 0.51750 0.68390 0.01600
H 	H 	0.31760 0.44390 0.75280 0.04200
H 	H 	0.23550 0.34770 0.62750 0.08000
H 	H 	0.23690 0.49710 0.69980 0.04500
H 	H 	0.76330 0.72040 0.96670 0.02200
H 	H 	0.59240 0.91020 0.84430 0.07500
H 	H 	0.55770 0.56250 0.85140 0.00700
H 	H 	0.53640 0.46380 0.50360 0.04200
H 	H 	0.53040 0.95070 0.72510 0.05100
H 	H 	0.50670 0.84940 0.95020 0.04000
H 	H 	0.46360 0.96380 0.99640 0.04200
H 	H 	0.55820 0.26850 0.75350 0.03200
H 	H 	0.85400 0.31260 0.69870 0.08300
H 	H 	0.79310 0.50910 0.83140 0.09100
H 	H 	0.00860 0.62190 0.82080 0.04200
H 	H 	0.23670 0.22040 0.53330 0.02200
H 	H 	0.66950 0.08050 0.76410 0.11900
H 	H 	0.38500 0.81100 0.80880 0.08700
H 	H 	0.06130 0.56410 0.88370 0.04900
H 	H 	0.19320 0.34060 0.76590 0.02800
H 	H 	0.49960 0.94380 0.92320 0.06100
H 	H 	0.73990 0.88930 0.90540 0.07000
H 	H 	0.44230 0.06250 0.64860 0.00700
H 	H 	0.99140 0.12190 0.67920 0.04200
H 	H 	0.43120 0.06580 0.81500 0.00600
H 	H 	0.94210 0.52620 0.89280 0.05300
H 	H 	0.49890 0.05550 0.74370 0.08100
H 	H 	0.62430 0.92080 0.95100 0.05700
H 	H 	0.33050 0.58050 0.73590 0.11900
H 	H 	0.29280 0.89420 0.90200 0.03400
H 	H 	0.37570 0.42080 0.54900 0.05600
H 	H 	0.44180 0.76850 0.74650 0.03200
H 	H 	0.32470 0.26840 0.58810 0.08900
H 	H 	0.76450 0.93500 0.67930 0.05900
H 	H 	0.96010 0.41380 0.61390 0.07400
H 	H 	0.34860 0.53010 0.67620 0.04600
H 	H 	0.75000 0.88310 0.79630 0.08100
H 	H 	0.35030 0.01750 0.81610 0.01600
H 	H 	0.70720 0.39420 0.59800 0.03400
H 	H 	0.60780 0.51310 0.76250 0.08700
H 	H 	0.16380 0.59870 0.68450 0.06800
H 	H 	0.47380 0.91090 0.01120 0.05300
H 	H 	0.93870 0.06410 0.61630 0.04900
H 	H 	0.14130 0.45990 0.88540 0.06400
H 	H 	0.26950 0.05120 0.69510 0.08100
H 	H 	0.34780 0.04810 0.60710 0.01100
H 	H 	0.36980 0.45170 0.84820 0.07200
H 	H 	0.49700 0.69930 0.81810 0.01600
H 	H 	0.50300 0.19930 0.68190 0.01600
H 	H 	0.50110 0.55550 0.75630 0.08100
H 	H 	0.25000 0.38310 0.70370 0.08100
H 	H 	0.21940 0.77890 0.94560 0.08400
H 	H 	0.06740 0.83150 0.91000 0.07500
H 	H 	0.80680 0.84060 0.73410 0.02800
H 	H 	0.38630 0.78650 0.94310 0.08700
H 	H 	0.61370 0.28650 0.55690 0.08700
H 	H 	0.89190 0.29350 0.62530 0.08000
H 	H 	0.24840 0.94900 0.95920 0.04200
H 	H 	0.86000 0.37460 0.53860 0.06400
H 	H 	0.61690 0.46720 0.85670 0.24500
H 	H 	0.95020 0.83030 0.02410 0.01700
H 	H 	0.00070 0.96410 0.82790 0.01900
H 	H 	0.89320 0.36300 0.75690 0.02900
H 	H 	0.52620 0.41090 0.48880 0.05400
H 	H 	0.76310 0.99710 0.80020 0.04500
H 	H 	0.50040 0.44380 0.57680 0.06100
H 	H 	0.99930 0.46410 0.67210 0.01900
H 	H 	0.76450 0.84770 0.87250 0.08000
H 	H 	0.23180 0.93280 0.00870 0.04100
H 	H 	0.93260 0.33150 0.59000 0.07500
H 	H 	0.63020 0.95170 0.65180 0.07200
H 	H 	0.65140 0.03010 0.82380 0.04600
H 	H 	0.15030 0.70370 0.92670 0.09600
H 	H 	0.03990 0.91380 0.88610 0.07400
H 	H 	0.72650 0.35450 0.51250 0.07500
H 	H 	0.10810 0.79350 0.87470 0.08000
H 	H 	0.11370 0.63260 0.75590 0.05400
H 	H 	0.73050 0.55120 0.80490 0.08100
H 	H 	0.88630 0.13260 0.74410 0.05400
H 	H 	0.26010 0.38930 0.59460 0.07000
H 	H 	0.40760 0.41020 0.65570 0.07500
H 	H 	0.86220 0.87830 0.96930 0.07700
H 	H 	0.76200 0.00540 0.61420 0.06200
H 	H 	0.76820 0.43280 0.49130 0.04200
H 	H 	0.68240 0.94390 0.74720 0.04200
H 	H 	0.23550 0.43500 0.82070 0.05900
H 	H 	0.97290 0.62630 0.72660 0.06000
H 	H 	0.74830 0.59420 0.72140 0.23600
H 	H 	0.56820 0.39230 0.65450 0.08400
H 	H 	0.14600 0.81260 0.80130 0.08300
H 	H 	0.02710 0.12630 0.77340 0.06000
H 	H 	0.67530 0.76840 0.91190 0.08900
H 	H 	0.00760 0.48720 0.83410 0.11100
H 	H 	0.05790 0.02620 0.60720 0.05300
C 	C 	0.47060 0.81700 0.79360 -0.14800
C 	C 	0.96980 0.43340 0.67750 0.05800
C 	C 	0.76200 0.54150 0.83420 -0.15200
C 	C 	0.55810 0.43170 0.51230 -0.08100
C 	C 	0.13500 0.27090 0.49940 -0.15700
C 	C 	0.76050 0.82780 0.93540 0.12800
C 	C 	0.43780 0.35110 0.69160 0.12400
C 	C 	0.67850 0.36870 0.57800 0.01500
C 	C 	0.11650 0.84340 0.80670 -0.15000
C 	C 	0.31250 0.35990 0.71380 -0.15200
C 	C 	0.94800 0.10990 0.75870 -0.07100
C 	C 	0.48120 0.87200 0.92690 0.00800
C 	C 	0.28120 0.92630 0.98100 -0.06300
C 	C 	0.71800 0.96230 0.66650 -0.08300
C 	C 	0.46800 0.38240 0.65370 -0.15700
C 	C 	0.49560 0.29180 0.74340 0.05100
C 	C 	0.72120 0.83460 0.74930 0.05300
C 	C 	0.52120 0.92000 0.94530 -0.11800
C 	C 	0.05350 0.90340 0.85700 -0.15500
C 	C 	0.98900 0.44860 0.75450 0.30600
C 	C 	0.61400 0.96720 0.73680 -0.02400
C 	C 	0.67500 0.12500 0.68360 0.35100
C 	C 	0.78340 0.75250 0.96720 0.07900
C 	C 	0.68500 0.01920 0.79510 -0.03600
C 	C 	0.44190 0.93170 0.98770 -0.08100
C 	C 	0.37030 0.30060 0.76550 -0.10200
C 	C 	0.23950 0.32780 0.56460 0.12800
C 	C 	0.77020 0.16500 0.62290 0.09000
C 	C 	0.68550 0.23930 0.60010 0.14400
C 	C 	0.62970 0.80060 0.73450 -0.10200
C 	C 	0.84220 0.84620 0.96870 -0.17300
C 	C 	0.09330 0.87330 0.77210 0.05900
C 	C 	0.81560 0.98400 0.63310 -0.08100
C 	C 	0.01100 0.94860 0.74550 0.30600
C 	C 	0.21660 0.25250 0.53280 0.07900
C 	C 	0.54400 0.52860 0.74160 -0.15200
C 	C 	0.38600 0.46720 0.76320 -0.02400
C 	C 	0.51880 0.37200 0.57310 0.00800
C 	C 	0.89440 0.81780 0.00130 0.08400
C 	C 	0.33280 0.66370 0.84490 -0.16400
C 	C 	0.30000 0.78270 0.92530 -0.16900
C 	C 	0.41750 0.73800 0.86770 -0.17700
C 	C 	0.63000 0.54060 0.86230 0.13100
C 	C 	0.42660 0.70020 0.84010 0.09300
C 	C 	0.22980 0.66500 0.87710 0.09000
C 	C 	0.18440 0.48400 0.86690 -0.08100
C 	C 	0.15780 0.34620 0.53130 -0.17300
C 	C 	0.37120 0.04470 0.79770 0.11500
C 	C 	0.66100 0.77120 0.69880 0.25800
C 	C 	0.86500 0.77090 0.00060 -0.15700
C 	C 	0.86610 0.07980 0.79030 -0.09600
C 	C 	0.77930 0.20280 0.59530 -0.17800
C 	C 	0.47880 0.42000 0.55470 -0.11800
C 	C 	0.91700 0.73860 0.03140 0.37200
C 	C 	0.86950 0.32490 0.61490 -0.15300
C 	C 	0.73110 0.78090 0.93470 -0.16500
C 	C 	0.28200 0.46230 0.83350 -0.08300
C 	C 	0.58250 0.23800 0.63230 -0.17700
C 	C 	0.94990 0.41830 0.72000 -0.12700
C 	C 	0.10560 0.31780 0.49870 0.08400
C 	C 	0.31500 0.51920 0.70490 -0.03600
C 	C 	0.99400 0.54280 0.86960 -0.03200
C 	C 	0.57340 0.20020 0.65990 0.09300
C 	C 	0.50440 0.79180 0.75660 0.05100
C 	C 	0.05010 0.91830 0.78000 -0.12700
C 	C 	0.93800 0.60000 0.80930 -0.03000
C 	C 	0.70000 0.28270 0.57470 -0.16900
C 	C 	0.52940 0.31700 0.70640 -0.14800
C 	C 	0.28830 0.35720 0.60110 -0.15900
C 	C 	0.27880 0.33460 0.75070 0.05300
C 	C 	0.32500 0.62500 0.81640 0.35100
C 	C 	0.05200 0.60990 0.74130 -0.07100
C 	C 	0.13050 0.82490 0.88510 -0.15300
C 	C 	0.62880 0.54470 0.70230 0.11500
C 	C 	0.68750 0.85990 0.78620 -0.15200
C 	C 	0.71170 0.85720 0.89890 -0.15900
C 	C 	0.32150 0.86870 0.92200 0.01500
C 	C 	0.08300 0.23860 0.46860 0.37200
C 	C 	0.88350 0.34340 0.69330 -0.15000
C 	C 	0.37000 0.04060 0.63770 0.13000
C 	C 	0.66720 0.16370 0.65510 -0.16400
C 	C 	0.90670 0.37330 0.72790 0.05900
C 	C 	0.94650 0.40340 0.64300 -0.15500
C 	C 	0.26890 0.28090 0.56530 -0.16500
C 	C 	0.56220 0.85110 0.80840 0.12400
C 	C 	0.31450 0.73930 0.89990 0.14400
C 	C 	0.90330 0.35850 0.65090 0.11500
C 	C 	0.45600 0.02860 0.75840 -0.15300
C 	C 	0.09670 0.85850 0.84910 0.11500
C 	C 	0.71880 0.42630 0.51900 -0.06400
C 	C 	0.23800 0.04150 0.66580 -0.15100
C 	C 	0.22070 0.70280 0.90470 -0.17800
C 	C 	0.13390 0.57980 0.70970 -0.09600
C 	C 	0.06200 0.10000 0.69070 -0.03000
C 	C 	0.03020 0.93340 0.82250 0.05800
C 	C 	0.00600 0.04280 0.63040 -0.03200
C 	C 	0.24350 0.87740 0.96560 -0.13600
C 	C 	0.53200 0.88240 0.84630 -0.15700
C 	C 	0.33900 0.27120 0.80120 0.25800
C 	C 	0.75650 0.37740 0.53440 -0.13500
N 	N 	0.56140 0.85750 0.88790 -0.07300
N 	N 	0.73950 0.05890 0.77000 -0.23400
N 	N 	0.57010 0.99580 0.77300 -0.09400
N 	N 	0.99900 0.57460 0.77200 -0.25000
N 	N 	0.27780 0.82530 0.90070 -0.07200
N 	N 	0.67960 0.99480 0.70170 -0.26600
N 	N 	0.00100 0.07460 0.72800 -0.25000
N 	N 	0.10630 0.06910 0.65610 -0.09400
N 	N 	0.43860 0.35750 0.61210 -0.07300
N 	N 	0.72220 0.32530 0.59930 -0.07200
N 	N 	0.32040 0.49480 0.79830 -0.26600
N 	N 	0.07310 0.50920 0.84280 -0.24200
N 	N 	0.42990 0.49580 0.72700 -0.09500
N 	N 	0.26050 0.55890 0.73000 -0.23400
N 	N 	0.89370 0.56910 0.84390 -0.09400
N 	N 	0.92690 0.00920 0.65720 -0.24300
O 	O 	0.98540 0.25870 0.44380 -0.22000
O 	O 	0.25480 0.29320 0.83370 -0.17700
O 	O 	0.11270 0.20150 0.46500 -0.27400
O 	O 	0.74520 0.79320 0.66630 -0.17700
O 	O 	0.41940 0.99280 0.64200 -0.39600
O 	O 	0.61480 0.73190 0.69180 -0.21200
O 	O 	0.90930 0.44210 0.79220 -0.24700
O 	O 	0.38520 0.23190 0.80820 -0.21200
O 	O 	0.60280 0.12880 0.71980 -0.26900
O 	O 	0.06690 0.48260 0.74830 -0.39400
O 	O 	0.39720 0.62880 0.78020 -0.26900
O 	O 	0.76280 0.56820 0.71200 -0.38500
O 	O 	0.88730 0.70150 0.03500 -0.27400
O 	O 	0.01460 0.75870 0.05620 -0.22000
O 	O 	0.09070 0.94210 0.70780 -0.24700
O 	O 	0.26180 0.58810 0.82290 -0.40000
O 	O 	0.73820 0.08810 0.67710 -0.40000
O 	O 	0.93310 0.98260 0.75170 -0.39400
O 	O 	0.23720 0.06820 0.78800 -0.38500
O 	O 	0.58060 0.49280 0.85800 -0.39600
