data_crystal

_cell_length_a 14.46930
_cell_length_b 28.88880
_cell_length_c 33.36290
_cell_angle_alpha 90.00000
_cell_angle_beta  102.52400
_cell_angle_gamma 90.00000

_symmetry_space_group_name_	'P 1'
_symmetry_space_group_name_H-M	'P 1'

loop_
_symmetry_equiv_pos_as_xyz
  x,y,z

loop_
_atom_site_label
_atom_site_type_symbol
_atom_site_fract_x
_atom_site_fract_y
_atom_site_fract_z
_atom_site_charge
Cu	Cu	0.39529 0.86702 0.79058 0.89500
Cu	Cu	0.13000 0.82993 0.26000 0.91100
Cu	Cu	0.87000 0.32993 0.74000 0.91100
Cu	Cu	0.07334 0.21316 0.14668 0.89300
Cu	Cu	0.60471 0.36702 0.20942 0.89500
Cu	Cu	0.92666 0.71316 0.85332 0.89300
Cu	Cu	0.84214 0.11867 0.68428 0.89900
Cu	Cu	0.43433 0.49024 0.86866 0.90500
Cu	Cu	0.72443 0.78930 0.44886 0.90800
Cu	Cu	0.27557 0.28930 0.55114 0.90800
Cu	Cu	0.17697 0.53758 0.35394 0.90300
Cu	Cu	0.12111 0.92110 0.24222 0.89900
Cu	Cu	0.52687 0.96172 0.05374 0.90500
Cu	Cu	0.09289 0.13270 0.18578 0.89800
Cu	Cu	0.15786 0.61867 0.31572 0.89900
Cu	Cu	0.31452 0.26012 0.62904 0.91300
Cu	Cu	0.47313 0.46172 0.94626 0.91200
Cu	Cu	0.68548 0.76012 0.37096 0.91300
Cu	Cu	0.64403 0.38520 0.28806 0.89800
Cu	Cu	0.82303 0.03758 0.64606 0.90400
Cu	Cu	0.90711 0.63270 0.81422 0.89700
Cu	Cu	0.35597 0.88520 0.71194 0.89700
Cu	Cu	0.56567 0.99024 0.13134 0.89800
Cu	Cu	0.87889 0.42110 0.75778 0.90000
H 	H 	0.02890 0.47050 0.53120 0.05700
H 	H 	0.00750 0.67500 0.70860 0.05000
H 	H 	0.67040 0.12380 0.83680 0.06000
H 	H 	0.55020 0.75130 0.60900 0.05000
H 	H 	0.89440 0.48480 0.29100 0.06400
H 	H 	0.91870 0.83390 0.33880 0.04700
H 	H 	0.98930 0.46510 0.65300 0.05000
H 	H 	0.33380 0.91390 0.16660 0.06100
H 	H 	0.48920 0.76640 0.67260 0.05200
H 	H 	0.99250 0.17500 0.29140 0.05100
H 	H 	0.40790 0.12620 0.33580 0.06500
H 	H 	0.90880 0.08790 0.53460 0.07500
H 	H 	0.33460 0.06130 0.00480 0.07900
H 	H 	0.27680 0.50090 0.10660 0.04700
H 	H 	0.29890 0.17500 0.29140 0.05100
H 	H 	0.13290 0.41800 0.57260 0.05300
H 	H 	0.38060 0.83270 0.07480 0.06500
H 	H 	0.85060 0.65290 0.96940 0.07800
H 	H 	0.57990 0.33390 0.66120 0.04900
H 	H 	0.73910 0.07640 0.78880 0.08000
H 	H 	0.69420 0.83270 0.07480 0.06500
H 	H 	0.31690 0.71510 0.13680 0.06200
H 	H 	0.35170 0.27930 0.21920 0.04600
H 	H 	0.95030 0.57640 0.21120 0.06700
H 	H 	0.86750 0.27930 0.21920 0.04600
H 	H 	0.83280 0.91390 0.16660 0.06100
H 	H 	0.43970 0.41800 0.57260 0.05300
H 	H 	0.67020 0.06130 0.00480 0.07900
H 	H 	0.32980 0.56130 0.99520 0.07800
H 	H 	0.10560 0.98480 0.70900 0.08000
H 	H 	0.11880 0.65290 0.96940 0.07800
H 	H 	0.40790 0.17040 0.50640 0.07900
H 	H 	0.92520 0.03220 0.36080 0.07300
H 	H 	0.49770 0.97050 0.46880 0.07700
H 	H 	0.51080 0.26640 0.32740 0.05300
H 	H 	0.39660 0.48480 0.29100 0.06400
H 	H 	0.42010 0.83390 0.33880 0.04700
H 	H 	0.32960 0.62380 0.16320 0.06400
H 	H 	0.41660 0.48080 0.16860 0.07300
H 	H 	0.74460 0.71740 0.98900 0.07700
H 	H 	0.77550 0.53010 0.04260 0.06600
H 	H 	0.31830 0.08380 0.12160 0.06100
H 	H 	0.93350 0.66990 0.37840 0.06300
H 	H 	0.66370 0.46510 0.65300 0.05100
H 	H 	0.48590 0.53290 0.49480 0.05600
H 	H 	0.56030 0.91800 0.42740 0.04800
H 	H 	0.92070 0.78670 0.15140 0.06400
H 	H 	0.62580 0.08790 0.53460 0.07500
H 	H 	0.00890 0.53290 0.49480 0.05600
H 	H 	0.83360 0.62380 0.16320 0.06300
H 	H 	0.90150 0.67040 0.49360 0.07900
H 	H 	0.97110 0.97050 0.46880 0.07700
H 	H 	0.23070 0.78670 0.15140 0.06400
H 	H 	0.49760 0.71910 0.54940 0.06600
H 	H 	0.64830 0.77930 0.78080 0.04500
H 	H 	0.26090 0.57640 0.21120 0.06800
H 	H 	0.86710 0.91800 0.42740 0.04800
H 	H 	0.92790 0.12620 0.33580 0.06500
H 	H 	0.88120 0.15290 0.03060 0.07900
H 	H 	0.68170 0.58380 0.87840 0.05900
H 	H 	0.05180 0.71910 0.54940 0.06600
H 	H 	0.18010 0.21510 0.86320 0.06300
H 	H 	0.26710 0.53010 0.04260 0.06600
H 	H 	0.09120 0.58790 0.46540 0.07400
H 	H 	0.94820 0.21910 0.45060 0.06700
H 	H 	0.01070 0.96510 0.34700 0.04500
H 	H 	0.73640 0.28490 0.97220 0.04500
H 	H 	0.07480 0.53220 0.63920 0.06700
H 	H 	0.13250 0.77930 0.78080 0.04500
H 	H 	0.75560 0.21740 0.01100 0.07700
H 	H 	0.75200 0.48080 0.16860 0.07300
H 	H 	0.58340 0.98080 0.83140 0.08700
H 	H 	0.61940 0.33270 0.92520 0.06600
H 	H 	0.37420 0.58790 0.46540 0.07300
H 	H 	0.25540 0.21740 0.01100 0.07700
H 	H 	0.73290 0.03010 0.95740 0.07000
H 	H 	0.04970 0.07640 0.78880 0.07900
H 	H 	0.14940 0.15290 0.03060 0.07900
H 	H 	0.68310 0.21510 0.86320 0.06300
H 	H 	0.08130 0.33390 0.66120 0.04900
H 	H 	0.24440 0.71740 0.98900 0.07700
H 	H 	0.18340 0.76640 0.67260 0.05200
H 	H 	0.60340 0.98480 0.70900 0.08100
H 	H 	0.44490 0.66990 0.37840 0.06300
H 	H 	0.99110 0.03290 0.50520 0.03900
H 	H 	0.81990 0.71510 0.13680 0.06200
H 	H 	0.56440 0.53220 0.63920 0.06700
H 	H 	0.66620 0.41390 0.83340 0.06300
H 	H 	0.82980 0.50090 0.10660 0.04700
H 	H 	0.72320 0.00090 0.89340 0.04700
H 	H 	0.26360 0.78490 0.02780 0.04400
H 	H 	0.81660 0.26640 0.32740 0.05300
H 	H 	0.44980 0.25130 0.39100 0.05000
H 	H 	0.09850 0.17040 0.50640 0.08000
H 	H 	0.43560 0.03220 0.36080 0.07300
H 	H 	0.80330 0.08380 0.12160 0.06100
H 	H 	0.22450 0.03010 0.95740 0.07000
H 	H 	0.05880 0.75130 0.60900 0.05000
H 	H 	0.76420 0.78490 0.02780 0.04400
H 	H 	0.55510 0.16990 0.62160 0.06300
H 	H 	0.07930 0.28670 0.84860 0.06400
H 	H 	0.66540 0.56130 0.99520 0.07800
H 	H 	0.19670 0.58380 0.87840 0.05900
H 	H 	0.50240 0.21910 0.45060 0.06700
H 	H 	0.76930 0.28670 0.84860 0.06400
H 	H 	0.16640 0.12380 0.83680 0.06000
H 	H 	0.59210 0.67040 0.49360 0.07900
H 	H 	0.94120 0.25130 0.39100 0.05000
H 	H 	0.70110 0.67500 0.70860 0.05000
H 	H 	0.50230 0.47050 0.53120 0.05700
H 	H 	0.59210 0.62620 0.66420 0.06500
H 	H 	0.17020 0.00090 0.89340 0.04700
H 	H 	0.16720 0.41390 0.83340 0.06300
H 	H 	0.24800 0.98080 0.83140 0.08600
H 	H 	0.06650 0.16990 0.62160 0.06300
H 	H 	0.07210 0.62620 0.66420 0.06500
H 	H 	0.30580 0.33270 0.92520 0.06600
H 	H 	0.33630 0.96510 0.34700 0.04400
H 	H 	0.23580 0.28490 0.97220 0.04500
H 	H 	0.51410 0.03290 0.50520 0.03900
C 	C 	0.93747 0.21930 0.39314 -0.04400
C 	C 	0.91287 0.67970 0.43794 -0.03800
C 	C 	0.82200 0.60520 0.13980 -0.07900
C 	C 	0.70750 0.25710 0.91000 0.01100
C 	C 	0.90410 0.21060 0.32020 -0.01500
C 	C 	0.83265 0.71070 0.42490 0.31400
C 	C 	0.80760 0.80470 0.10940 0.02300
C 	C 	0.12170 0.31080 0.85720 -0.05100
C 	C 	0.51050 0.91400 0.40480 -0.01800
C 	C 	0.36730 0.87970 0.11840 -0.05100
C 	C 	0.08713 0.17970 0.56206 -0.03700
C 	C 	0.76829 0.69930 0.78558 0.39000
C 	C 	0.28878 0.57870 0.97556 -0.08000
C 	C 	0.44230 0.27430 0.26820 -0.08900
C 	C 	0.06590 0.64150 0.88360 0.33700
C 	C 	0.19358 0.21600 0.89176 -0.07600
C 	C 	0.91540 0.55070 0.21580 -0.05900
C 	C 	0.95290 0.66060 0.40580 -0.01800
C 	C 	0.20090 0.13360 0.03980 -0.09000
C 	C 	0.32660 0.88620 0.15220 -0.00900
C 	C 	0.46498 0.16390 0.52456 -0.08700
C 	C 	0.73031 0.38880 0.69462 0.39100
C 	C 	0.23560 0.61700 0.98600 0.09800
C 	C 	0.26572 0.54680 0.28724 0.35100
C 	C 	0.72339 0.09680 0.93618 0.06700
C 	C 	0.63270 0.37970 0.88160 -0.04800
C 	C 	0.68050 0.05960 0.85740 0.00200
C 	C 	0.98132 0.89680 0.33844 -0.09500
C 	C 	0.94700 0.07620 0.41280 0.01500
C 	C 	0.64647 0.33760 0.90274 -0.05000
C 	C 	0.06910 0.64240 0.63980 -0.08200
C 	C 	0.25016 0.81220 0.73792 0.37100
C 	C 	0.17800 0.10520 0.86020 -0.06900
C 	C 	0.31322 0.07870 0.02444 -0.08100
C 	C 	0.92530 0.86260 0.35160 0.03400
C 	C 	0.29250 0.75710 0.09000 0.01000
C 	C 	0.73428 0.04680 0.71276 0.33600
C 	C 	0.17440 0.38620 0.84780 -0.01000
C 	C 	0.01691 0.44030 0.64222 -0.01400
C 	C 	0.18141 0.33260 0.60462 0.34700
C 	C 	0.97920 0.03390 0.47660 0.00500
C 	C 	0.93910 0.03390 0.38920 -0.08800
C 	C 	0.37469 0.94030 0.35778 -0.00700
C 	C 	0.72430 0.04890 0.93420 -0.09000
C 	C 	0.54990 0.53390 0.61080 -0.08600
C 	C 	0.82590 0.27430 0.26820 -0.08900
C 	C 	0.51450 0.49820 0.54560 -0.06800
C 	C 	0.61953 0.99700 0.73546 -0.08400
C 	C 	0.75110 0.87970 0.11840 -0.05000
C 	C 	0.94042 0.66390 0.47544 -0.08800
C 	C 	0.21860 0.17470 0.95960 0.10000
C 	C 	0.24890 0.37970 0.88160 -0.04800
C 	C 	0.64288 0.39680 0.66156 -0.08800
C 	C 	0.70314 0.12500 0.90088 -0.00200
C 	C 	0.23770 0.21670 0.98260 -0.10600
C 	C 	0.65540 0.02980 0.07260 0.40100
C 	C 	0.88407 0.49700 0.26454 -0.01900
C 	C 	0.97800 0.85910 0.19880 0.33000
C 	C 	0.24960 0.11700 0.01400 0.09900
C 	C 	0.62832 0.76150 0.75724 0.03700
C 	C 	0.22744 0.25650 0.95868 -0.02700
C 	C 	0.05195 0.69880 0.71370 -0.01100
C 	C 	0.20340 0.59110 0.90600 0.00000
C 	C 	0.58280 0.52980 0.92740 0.40300
C 	C 	0.50590 0.93340 0.76400 0.29800
C 	C 	0.94700 0.20000 0.42820 -0.08100
C 	C 	0.35712 0.89680 0.33844 -0.09400
C 	C 	0.19240 0.30470 0.89060 0.02400
C 	C 	0.60330 0.99480 0.80960 -0.12400
C 	C 	0.39556 0.62720 0.41832 -0.04200
C 	C 	0.76440 0.11700 0.01400 0.10000
C 	C 	0.59225 0.71070 0.42490 0.31400
C 	C 	0.74373 0.83760 0.09726 -0.04900
C 	C 	0.67340 0.38620 0.84780 -0.01000
C 	C 	0.88239 0.87030 0.38198 -0.07700
C 	C 	0.08460 0.05070 0.78420 -0.09400
C 	C 	0.93410 0.14150 0.11640 0.33600
C 	C 	0.45290 0.11700 0.39740 -0.00800
C 	C 	0.79010 0.54890 0.06580 -0.08400
C 	C 	0.56310 0.69210 0.64160 0.03300
C 	C 	0.95660 0.99360 0.41740 0.06100
C 	C 	0.81859 0.83260 0.39538 0.34900
C 	C 	0.05300 0.70000 0.57180 -0.08000
C 	C 	0.14505 0.62100 0.91610 -0.04700
C 	C 	0.25900 0.67470 0.04040 0.10100
C 	C 	0.81550 0.53230 0.10380 -0.03600
C 	C 	0.34460 0.52980 0.92740 0.40300
C 	C 	0.47950 0.14720 0.43620 0.09000
C 	C 	0.93306 0.21780 0.24792 -0.08300
C 	C 	0.22895 0.12100 0.08390 -0.04500
C 	C 	0.42630 0.86260 0.35160 0.03400
C 	C 	0.26450 0.81080 0.14280 -0.05000
C 	C 	0.48550 0.99820 0.45440 -0.13600
C 	C 	0.40692 0.61330 0.45844 -0.07700
C 	C 	0.10570 0.41400 0.59520 -0.02700
C 	C 	0.31486 0.21780 0.24792 -0.08300
C 	C 	0.74190 0.43340 0.23600 0.30700
C 	C 	0.01729 0.69930 0.78558 0.39100
C 	C 	0.04340 0.49360 0.58260 0.03900
C 	C 	0.45010 0.03390 0.38920 -0.08800
C 	C 	0.42321 0.33260 0.60462 0.34700
C 	C 	0.52507 0.67970 0.43794 -0.03900
C 	C 	0.15616 0.03110 0.81552 0.07400
C 	C 	0.80470 0.47830 0.22960 -0.01800
C 	C 	0.05550 0.61700 0.60260 -0.00300
C 	C 	0.76230 0.71670 0.01740 -0.10600
C 	C 	0.18450 0.03230 0.89620 -0.02600
C 	C 	0.27661 0.59680 0.06382 0.06300
C 	C 	0.53502 0.66390 0.47544 -0.08700
C 	C 	0.69960 0.05070 0.78420 -0.09600
C 	C 	0.51224 0.31220 0.26208 0.37000
C 	C 	0.80642 0.71600 0.10824 -0.07500
C 	C 	0.26969 0.88880 0.30538 0.39300
C 	C 	0.11593 0.99700 0.73546 -0.08100
C 	C 	0.02961 0.57770 0.54722 0.05500
C 	C 	0.94848 0.11330 0.54156 -0.07700
C 	C 	0.27490 0.84980 0.16360 -0.04100
C 	C 	0.05152 0.61330 0.45844 -0.07700
C 	C 	0.37168 0.26150 0.24276 0.03600
C 	C 	0.25627 0.33760 0.90274 -0.05000
C 	C 	0.52050 0.64720 0.56380 0.08800
C 	C 	0.28830 0.53230 0.10380 -0.03600
C 	C 	0.92150 0.19210 0.35840 0.03100
C 	C 	0.82310 0.55960 0.14260 0.01600
C 	C 	0.85495 0.12100 0.08390 -0.04500
C 	C 	0.34064 0.53110 0.18448 0.03100
C 	C 	0.43472 0.91310 0.10724 0.31200
C 	C 	0.74984 0.31220 0.26208 0.37000
C 	C 	0.07522 0.60640 0.38384 0.41900
C 	C 	0.79750 0.75710 0.09000 0.01000
C 	C 	0.17410 0.77430 0.73180 -0.09100
C 	C 	0.71122 0.07870 0.02444 -0.08100
C 	C 	0.77256 0.75650 0.04132 -0.02700
C 	C 	0.20321 0.17520 0.91262 -0.00200
C 	C 	0.79660 0.09110 0.09400 -0.00200
C 	C 	0.45567 0.21930 0.39314 -0.04400
C 	C 	0.02152 0.54680 0.28724 0.35200
C 	C 	0.20630 0.99480 0.80960 -0.12200
C 	C 	0.82560 0.88620 0.15220 -0.00900
C 	C 	0.77920 0.35910 0.80120 0.33100
C 	C 	0.16735 0.21070 0.57510 0.31400
C 	C 	0.74100 0.17470 0.95960 0.10000
C 	C 	0.47220 0.63960 0.49020 0.10000
C 	C 	0.48120 0.20000 0.42820 -0.08100
C 	C 	0.81770 0.64150 0.88360 0.33700
C 	C 	0.30862 0.60640 0.38384 0.41900
C 	C 	0.48239 0.07770 0.45278 0.03700
C 	C 	0.30180 0.80470 0.10940 0.02200
C 	C 	0.53420 0.57620 0.58720 0.00100
C 	C 	0.17690 0.05960 0.85740 0.00300
C 	C 	0.71170 0.03230 0.89620 -0.02600
C 	C 	0.93090 0.14240 0.36020 -0.07800
C 	C 	0.49740 0.03390 0.47660 0.00400
C 	C 	0.95670 0.14720 0.43620 0.09000
C 	C 	0.29686 0.62500 0.09912 0.00300
C 	C 	0.75040 0.61700 0.98600 0.09800
C 	C 	0.87108 0.26150 0.24276 0.03600
C 	C 	0.97039 0.07770 0.45278 0.03700
C 	C 	0.98309 0.94030 0.35778 -0.00800
C 	C 	0.11761 0.37030 0.61802 -0.07100
C 	C 	0.25810 0.93340 0.76400 0.29800
C 	C 	0.88870 0.84980 0.16360 -0.04000
C 	C 	0.21279 0.09680 0.93618 0.06700
C 	C 	0.04710 0.16060 0.59420 -0.01700
C 	C 	0.51880 0.70000 0.57180 -0.08000
C 	C 	0.68678 0.57870 0.97556 -0.08000
C 	C 	0.67252 0.91310 0.10724 0.31200
C 	C 	0.57370 0.36260 0.64840 0.02900
C 	C 	0.20990 0.04890 0.93420 -0.09000
C 	C 	0.69818 0.21600 0.89176 -0.07600
C 	C 	0.20250 0.25710 0.91000 0.01100
C 	C 	0.23171 0.19930 0.21442 0.39000
C 	C 	0.72568 0.06960 0.06616 -0.04700
C 	C 	0.77105 0.62100 0.91610 -0.04700
C 	C 	0.43690 0.19210 0.35840 0.03100
C 	C 	0.96431 0.38880 0.69462 0.39100
C 	C 	0.48776 0.81220 0.73792 0.37100
C 	C 	0.54433 0.71930 0.60686 -0.04700
C 	C 	0.30040 0.55070 0.21580 -0.05900
C 	C 	0.31780 0.60520 0.13980 -0.07900
C 	C 	0.55770 0.77430 0.73180 -0.09100
C 	C 	0.02200 0.35910 0.80120 0.33100
C 	C 	0.02276 0.62720 0.41832 -0.04100
C 	C 	0.30182 0.71600 0.10824 -0.07500
C 	C 	0.92478 0.10640 0.61616 0.41900
C 	C 	0.07470 0.36260 0.64840 0.02900
C 	C 	0.66175 0.69880 0.71370 -0.01100
C 	C 	0.31950 0.55960 0.14260 0.01600
C 	C 	0.50041 0.37030 0.61802 -0.07100
C 	C 	0.53684 0.75290 0.69248 -0.01500
C 	C 	0.40775 0.21070 0.57510 0.31400
C 	C 	0.06253 0.71930 0.60686 -0.04700
C 	C 	0.26876 0.75650 0.04132 -0.02700
C 	C 	0.22080 0.85910 0.19880 0.33100
C 	C 	0.41610 0.21060 0.32020 -0.01500
C 	C 	0.06090 0.53390 0.61080 -0.08600
C 	C 	0.04330 0.64720 0.56380 0.08800
C 	C 	0.52780 0.13960 0.50980 0.10100
C 	C 	0.27570 0.54890 0.06580 -0.08400
C 	C 	0.98271 0.19930 0.21442 0.39100
C 	C 	0.67451 0.02750 0.74362 0.01700
C 	C 	0.54710 0.61700 0.60260 -0.00300
C 	C 	0.19774 0.12500 0.90088 -0.00100
C 	C 	0.07850 0.69210 0.64160 0.03300
C 	C 	0.55191 0.44790 0.60722 -0.00600
C 	C 	0.60444 0.12720 0.58168 -0.04100
C 	C 	0.62531 0.44030 0.64222 -0.01500
C 	C 	0.56528 0.41310 0.89276 0.31200
C 	C 	0.73550 0.31080 0.85720 -0.05100
C 	C 	0.54710 0.16060 0.59420 -0.01600
C 	C 	0.58390 0.71060 0.67980 -0.01700
C 	C 	0.78721 0.59680 0.06382 0.06300
C 	C 	0.51761 0.57770 0.54722 0.05500
C 	C 	0.72510 0.34980 0.83640 -0.03900
C 	C 	0.74490 0.21670 0.98260 -0.10700
C 	C 	0.79679 0.67520 0.08738 -0.00400
C 	C 	0.32549 0.52750 0.25638 -0.03900
C 	C 	0.05958 0.16390 0.52456 -0.08800
C 	C 	0.65952 0.56960 0.93384 -0.05000
C 	C 	0.05531 0.44790 0.60722 -0.00700
C 	C 	0.87830 0.81080 0.14280 -0.05000
C 	C 	0.38047 0.49700 0.26454 -0.01900
C 	C 	0.73124 0.25650 0.95868 -0.02700
C 	C 	0.33825 0.19880 0.28630 -0.01200
C 	C 	0.03569 0.88880 0.30538 0.39300
C 	C 	0.18230 0.14150 0.11640 0.33600
C 	C 	0.06911 0.02750 0.74362 0.01300
C 	C 	0.05300 0.57620 0.58720 0.00100
C 	C 	0.32748 0.41310 0.89276 0.31200
C 	C 	0.50260 0.53390 0.52340 -0.05500
C 	C 	0.70941 0.17520 0.91262 -0.00200
C 	C 	0.45290 0.66060 0.40580 -0.01600
C 	C 	0.15564 0.75290 0.69248 -0.01500
C 	C 	0.57510 0.97830 0.77040 0.01100
C 	C 	0.35353 0.83760 0.09726 -0.04900
C 	C 	0.70260 0.59110 0.90600 0.00000
C 	C 	0.41720 0.02980 0.07260 0.40100
C 	C 	0.68514 0.71780 0.75208 -0.08500
C 	C 	0.01800 0.63960 0.49020 0.10200
C 	C 	0.25510 0.71670 0.01740 -0.10700
C 	C 	0.94469 0.94790 0.39278 -0.02200
C 	C 	0.46316 0.25290 0.30752 -0.01600
C 	C 	0.96890 0.99820 0.45440 -0.13700
C 	C 	0.06694 0.71780 0.75208 -0.08500
C 	C 	0.42930 0.14240 0.36020 -0.07800
C 	C 	0.11130 0.34980 0.83640 -0.03900
C 	C 	0.84436 0.25290 0.30752 -0.01600
C 	C 	0.97848 0.04680 0.71276 0.33700
C 	C 	0.42490 0.47830 0.22960 -0.01800
C 	C 	0.94450 0.11700 0.39740 -0.00800
C 	C 	0.12892 0.76150 0.75724 0.03700
C 	C 	0.94805 0.19880 0.28630 -0.01200
C 	C 	0.59308 0.11330 0.54156 -0.07600
C 	C 	0.79370 0.49480 0.19040 -0.07000
C 	C 	0.65936 0.03110 0.81552 0.07600
C 	C 	0.02080 0.53390 0.52340 -0.05500
C 	C 	0.78140 0.67470 0.04040 0.10000
C 	C 	0.34048 0.06960 0.06616 -0.04700
C 	C 	0.98200 0.13960 0.50980 0.10100
C 	C 	0.29059 0.67520 0.08738 -0.00400
C 	C 	0.09590 0.71060 0.67980 -0.01700
C 	C 	0.69138 0.10640 0.61616 0.41900
C 	C 	0.97724 0.12720 0.58168 -0.04100
C 	C 	0.27432 0.56960 0.93384 -0.05000
C 	C 	0.69820 0.30470 0.89060 0.02400
C 	C 	0.46580 0.07620 0.41280 0.01500
C 	C 	0.84384 0.53110 0.18448 0.03100
C 	C 	0.89430 0.91400 0.40480 -0.01800
C 	C 	0.47493 0.17970 0.56206 -0.03800
C 	C 	0.39670 0.49480 0.19040 -0.07000
C 	C 	0.44809 0.94790 0.39278 -0.02200
C 	C 	0.03110 0.49820 0.54560 -0.06800
C 	C 	0.93089 0.52750 0.25638 -0.04000
C 	C 	0.29740 0.09110 0.09400 -0.00100
C 	C 	0.57070 0.64240 0.63980 -0.08200
C 	C 	0.01868 0.39680 0.66156 -0.08900
C 	C 	0.68220 0.10520 0.86020 -0.06900
C 	C 	0.53920 0.49360 0.58260 0.03900
C 	C 	0.16110 0.63360 0.96020 -0.08900
C 	C 	0.79910 0.63360 0.96020 -0.08900
C 	C 	0.19530 0.97830 0.77040 0.00900
C 	C 	0.57679 0.83260 0.39538 0.34900
C 	C 	0.46080 0.99360 0.41740 0.06100
C 	C 	0.48950 0.41400 0.59520 -0.02700
C 	C 	0.80226 0.62500 0.09912 0.00300
C 	C 	0.83890 0.13360 0.03980 -0.09000
C 	C 	0.49959 0.87030 0.38198 -0.07700
C 	C 	0.49410 0.43340 0.23600 0.30700
N 	N 	0.22645 0.13310 0.97010 -0.14900
N 	N 	0.74365 0.13310 0.97010 -0.14900
N 	N 	0.77355 0.63310 0.02990 -0.14800
N 	N 	0.03092 0.62490 0.53184 -0.15200
N 	N 	0.49908 0.12490 0.46816 -0.14900
N 	N 	0.25635 0.63310 0.02990 -0.14800
N 	N 	0.50092 0.62490 0.53184 -0.15200
N 	N 	0.96908 0.12490 0.46816 -0.14900
O 	O 	0.25566 0.51920 0.31372 -0.40500
O 	O 	0.40186 0.21510 0.61232 -0.38100
O 	O 	0.02858 0.61480 0.85576 -0.39000
O 	O 	0.20448 0.16020 0.22016 -0.42800
O 	O 	0.73315 0.42900 0.27330 -0.39100
O 	O 	0.94461 0.34730 0.70102 -0.41800
O 	O 	0.34838 0.53260 0.88596 -0.39200
O 	O 	0.79951 0.40110 0.79622 -0.39600
O 	O 	0.69237 0.41530 0.20394 -0.39600
O 	O 	0.22260 0.30580 0.63280 -0.41200
O 	O 	0.21046 0.21510 0.61232 -0.38000
O 	O 	0.36929 0.23980 0.54678 -0.38100
O 	O 	0.05806 0.51920 0.31372 -0.40500
O 	O 	0.78954 0.71510 0.38768 -0.38100
O 	O 	0.04664 0.92230 0.28548 -0.43000
O 	O 	0.28586 0.56630 0.38992 -0.43000
O 	O 	0.63071 0.73980 0.45322 -0.38200
O 	O 	0.89594 0.06630 0.61008 -0.42800
O 	O 	0.37273 0.41240 0.92966 -0.37400
O 	O 	0.18938 0.33080 0.56756 -0.40900
O 	O 	0.45985 0.92900 0.72670 -0.39100
O 	O 	0.30763 0.91530 0.79606 -0.39600
O 	O 	0.91606 0.13110 0.64252 -0.45300
O 	O 	0.23784 0.58760 0.28088 -0.40400
O 	O 	0.51104 0.31890 0.22288 -0.38200
O 	O 	0.48896 0.81890 0.77712 -0.38300
O 	O 	0.98432 0.66020 0.77984 -0.43000
O 	O 	0.97142 0.11480 0.14424 -0.38800
O 	O 	0.65162 0.03260 0.11404 -0.38500
O 	O 	0.76216 0.08760 0.71912 -0.39900
O 	O 	0.01515 0.82370 0.21690 -0.39800
O 	O 	0.17282 0.11480 0.14424 -0.38800
O 	O 	0.99671 0.40110 0.79622 -0.39600
O 	O 	0.27354 0.63110 0.35748 -0.45400
O 	O 	0.14827 0.18220 0.11014 -0.38900
O 	O 	0.75641 0.34730 0.70102 -0.41800
O 	O 	0.52777 0.44230 0.86414 -0.38700
O 	O 	0.46242 0.03260 0.11404 -0.38500
O 	O 	0.51157 0.41530 0.20394 -0.39600
O 	O 	0.53758 0.53260 0.88596 -0.39200
O 	O 	0.76116 0.42230 0.71452 -0.42800
O 	O 	0.23884 0.92230 0.28548 -0.43000
O 	O 	0.62182 0.83080 0.43244 -0.41000
O 	O 	0.73972 0.33430 0.29004 -0.43000
O 	O 	0.04304 0.58760 0.28088 -0.40400
O 	O 	0.20049 0.90110 0.20378 -0.39800
O 	O 	0.61762 0.00710 0.04884 -0.48300
O 	O 	0.48843 0.91530 0.79606 -0.39600
O 	O 	0.28816 0.81890 0.77712 -0.38300
O 	O 	0.00329 0.90110 0.20378 -0.39700
O 	O 	0.26685 0.92900 0.72670 -0.39100
O 	O 	0.77740 0.80580 0.36720 -0.41300
O 	O 	0.82718 0.61480 0.85576 -0.39000
O 	O 	0.71184 0.31890 0.22288 -0.38200
O 	O 	0.72646 0.13110 0.64252 -0.45300
O 	O 	0.94194 0.01920 0.68628 -0.39700
O 	O 	0.19432 0.22660 0.18744 -0.41900
O 	O 	0.62727 0.91240 0.07034 -0.37800
O 	O 	0.26028 0.83430 0.70996 -0.43100
O 	O 	0.79825 0.32370 0.78310 -0.39800
O 	O 	0.56878 0.50710 0.95116 -0.49000
O 	O 	0.81062 0.83080 0.43244 -0.41100
O 	O 	0.55032 0.33430 0.29004 -0.43000
O 	O 	0.71414 0.06630 0.61008 -0.42800
O 	O 	0.03813 0.68220 0.88986 -0.38900
O 	O 	0.44968 0.83430 0.70996 -0.43100
O 	O 	0.00688 0.72660 0.81256 -0.42000
O 	O 	0.38238 0.50710 0.95116 -0.49000
O 	O 	0.80568 0.72660 0.81256 -0.42000
O 	O 	0.17749 0.23980 0.54678 -0.38100
O 	O 	0.24359 0.84730 0.29898 -0.41900
O 	O 	0.96187 0.18220 0.11014 -0.38900
O 	O 	0.95696 0.08760 0.71912 -0.40000
O 	O 	0.74434 0.01920 0.68628 -0.39600
O 	O 	0.08394 0.63110 0.35748 -0.45300
O 	O 	0.95336 0.42230 0.71452 -0.42800
O 	O 	0.05539 0.84730 0.29898 -0.41900
O 	O 	0.99312 0.22660 0.18744 -0.41900
O 	O 	0.82251 0.73980 0.45322 -0.38200
O 	O 	0.33637 0.44230 0.86414 -0.38700
O 	O 	0.98485 0.32370 0.78310 -0.39800
O 	O 	0.79552 0.66020 0.77984 -0.42900
O 	O 	0.43122 0.00710 0.04884 -0.48300
O 	O 	0.59814 0.71510 0.38768 -0.38100
O 	O 	0.41020 0.30580 0.63280 -0.41200
O 	O 	0.85173 0.68220 0.88986 -0.39000
O 	O 	0.55693 0.41240 0.92966 -0.37400
O 	O 	0.10406 0.56630 0.38992 -0.43000
O 	O 	0.20175 0.82370 0.21690 -0.39800
O 	O 	0.66363 0.94230 0.13586 -0.39100
O 	O 	0.47223 0.94230 0.13586 -0.39100
O 	O 	0.44307 0.91240 0.07034 -0.37800
O 	O 	0.37818 0.33080 0.56756 -0.40900
O 	O 	0.01568 0.16020 0.22016 -0.42800
O 	O 	0.54015 0.42900 0.27330 -0.39100
O 	O 	0.58980 0.80580 0.36720 -0.41300
