data_crystal

_cell_length_a 6.21000
_cell_length_b 6.99000
_cell_length_c 18.75850
_cell_angle_alpha 100.73800
_cell_angle_beta  96.89650
_cell_angle_gamma 90.00000

_symmetry_space_group_name_	'P 1'
_symmetry_space_group_name_H-M	'P 1'

loop_
_symmetry_equiv_pos_as_xyz
  x,y,z

loop_
_atom_site_label
_atom_site_type_symbol
_atom_site_fract_x
_atom_site_fract_y
_atom_site_fract_z
_atom_site_charge
Eu	Eu	0.52238 0.90913 0.44002 1.82700
Eu	Eu	0.47762 0.46911 0.55998 1.96300
Cu	Cu	-0.00000 0.68980 -0.00000 0.75800
H 	H 	0.98220 0.24150 0.17200 -0.00500
H 	H 	0.17550 0.67380 0.14760 0.00000
H 	H 	0.61660 0.83270 0.06220 -0.06600
H 	H 	0.93040 0.47650 0.73780 0.10700
H 	H 	0.36240 0.17850 0.82200 0.03400
H 	H 	0.80840 0.90400 0.72320 0.02600
H 	H 	0.82450 0.52620 0.85240 -0.03900
H 	H 	0.06960 0.73870 0.26220 0.00700
H 	H 	0.19160 0.18080 0.27680 0.10100
H 	H 	0.38340 0.77050 0.93780 -0.04600
H 	H 	0.50480 0.72100 0.82480 0.06300
H 	H 	0.49520 0.89620 0.17520 0.02500
H 	H 	0.63760 0.35650 0.17800 0.07200
H 	H 	0.50970 0.44080 0.28960 -0.02200
H 	H 	0.49030 0.15120 0.71040 0.06200
H 	H 	0.01780 0.06950 0.82800 0.03200
C 	C 	0.76740 0.81130 0.23060 -0.08300
C 	C 	0.97240 0.75315 0.22190 0.02900
C 	C 	0.68550 0.84908 0.30416 0.30600
C 	C 	0.33360 0.96785 0.57970 0.21500
C 	C 	0.23260 0.58070 0.76940 0.02200
C 	C 	0.76950 0.36036 0.35072 -0.15700
C 	C 	0.13170 0.25307 0.41394 0.38400
C 	C 	0.27610 0.11955 0.77950 -0.00300
C 	C 	0.66640 0.38815 0.42030 0.46100
C 	C 	0.96470 0.56270 0.84700 0.11000
C 	C 	0.92760 0.26840 0.21680 0.09600
C 	C 	0.86830 0.83913 0.58606 0.48800
C 	C 	0.07240 0.05160 0.78320 0.01200
C 	C 	0.23050 0.00964 0.64928 0.14500
C 	C 	0.02760 0.53125 0.77810 -0.16800
C 	C 	0.72390 0.34005 0.22050 -0.14900
C 	C 	0.29340 0.70551 0.89722 0.05200
C 	C 	0.02450 0.93218 0.65216 -0.24000
C 	C 	0.97550 0.28002 0.34784 0.03300
C 	C 	0.63290 0.84713 0.17026 -0.06600
C 	C 	0.94510 0.95395 0.72010 -0.03500
C 	C 	0.31450 0.54492 0.69584 0.26800
C 	C 	0.64680 0.38825 0.28730 0.10000
C 	C 	0.70660 0.80829 0.10278 0.00500
C 	C 	0.05490 0.23385 0.27990 -0.14000
C 	C 	0.03530 0.71570 0.15300 -0.06500
C 	C 	0.35320 0.10095 0.71270 -0.09300
C 	C 	0.36710 0.67687 0.82974 -0.13000
N 	N 	0.90330 0.73671 0.09342 -0.25200
N 	N 	0.09670 0.64329 0.90658 -0.28100
O 	O 	0.18990 0.48821 0.63802 -0.41500
O 	O 	0.51120 0.59104 0.69268 -0.41600
O 	O 	0.22300 0.09620 0.40960 -0.44200
O 	O 	0.48880 0.89836 0.30732 -0.44200
O 	O 	0.65020 0.25877 0.45474 -0.55600
O 	O 	0.34980 0.80403 0.54526 -0.53100
O 	O 	0.77700 0.68660 0.59040 -0.52600
O 	O 	0.40900 0.11873 0.55786 -0.46100
O 	O 	0.81010 0.85019 0.36198 -0.43000
O 	O 	0.83640 0.93428 0.53316 -0.50500
O 	O 	0.59100 0.56087 0.44214 -0.57600
O 	O 	0.16360 0.40112 0.46684 -0.46300
