data_crystal

_cell_length_a 26.13770
_cell_length_b 6.74640
_cell_length_c 25.02350
_cell_angle_alpha 90.00000
_cell_angle_beta  105.91600
_cell_angle_gamma 90.00000

_symmetry_space_group_name_	'P 1'
_symmetry_space_group_name_H-M	'P 1'

loop_
_symmetry_equiv_pos_as_xyz
  x,y,z

loop_
_atom_site_label
_atom_site_type_symbol
_atom_site_fract_x
_atom_site_fract_y
_atom_site_fract_z
_atom_site_charge
Zn	Zn	0.93497 0.88555 0.96576 1.22000
O 	O 	0.91944 0.05270 0.90059 -0.45600
O 	O 	0.91544 0.76770 0.85589 -0.31900
O 	O 	0.99658 0.75180 0.52194 -0.50500
O 	O 	0.92966 0.94610 0.52834 -0.48300
C 	C 	0.91441 0.06590 0.80520 -0.08600
C 	C 	0.90256 0.26490 0.80158 0.01800
H 	H 	0.89320 0.32720 0.83070 0.04500
C 	C 	0.90442 0.37330 0.75554 -0.08800
H 	H 	0.89570 0.50720 0.75380 0.07000
C 	C 	0.91904 0.28700 0.71170 0.02400
C 	C 	0.93051 0.08480 0.71530 -0.08300
H 	H 	0.94020 0.02220 0.68640 0.06300
C 	C 	0.92776 0.97640 0.76112 0.00600
H 	H 	0.93500 0.84120 0.76240 0.03800
C 	C 	0.91623 0.94960 0.85690 0.31700
C 	C 	0.92515 0.40830 0.66408 0.06500
C 	C 	0.89514 0.57870 0.64731 -0.13400
H 	H 	0.86820 0.61120 0.66350 0.07700
C 	C 	0.90502 0.70040 0.60676 0.06700
H 	H 	0.88470 0.81410 0.59600 0.02000
C 	C 	0.94488 0.65490 0.58189 -0.14800
C 	C 	0.97319 0.48040 0.59672 0.06400
H 	H 	0.99930 0.44560 0.57960 0.02000
C 	C 	0.96303 0.35860 0.63651 -0.13100
H 	H 	0.98180 0.24050 0.64530 0.08200
C 	C 	0.95826 0.79310 0.54157 0.39700
N 	N 	0.88107 0.67900 0.97240 -0.27400
C 	C 	0.84896 0.70950 0.00519 0.10100
H 	H 	0.85250 0.82670 0.02540 -0.01000
C 	C 	0.81119 0.57570 0.01018 -0.17800
H 	H 	0.78970 0.60270 0.03340 0.09300
C 	C 	0.80502 0.39980 0.98052 0.12600
C 	C 	0.83928 0.36740 0.94746 -0.18100
H 	H 	0.83710 0.25030 0.92740 0.09300
C 	C 	0.87601 0.50780 0.94460 0.10900
H 	H 	0.89850 0.48320 0.92230 -0.00700
C 	C 	0.76581 0.24720 0.98360 -0.09000
H 	H 	0.76310 0.13760 0.96050 0.05900
Zn	Zn	0.43497 0.38555 0.96576 1.22000
O 	O 	0.41944 0.55270 0.90059 -0.46200
O 	O 	0.41544 0.26770 0.85589 -0.32200
O 	O 	0.49658 0.25180 0.52194 -0.50500
O 	O 	0.42966 0.44610 0.52834 -0.48200
C 	C 	0.41441 0.56590 0.80520 -0.10900
C 	C 	0.40256 0.76490 0.80158 0.04100
H 	H 	0.39320 0.82720 0.83070 0.03700
C 	C 	0.40442 0.87330 0.75554 -0.11300
H 	H 	0.39570 0.00720 0.75380 0.08100
C 	C 	0.41904 0.78700 0.71170 0.04400
C 	C 	0.43051 0.58480 0.71530 -0.10700
H 	H 	0.44020 0.52220 0.68640 0.07100
C 	C 	0.42776 0.47640 0.76112 0.03400
H 	H 	0.43500 0.34120 0.76240 0.02900
C 	C 	0.41623 0.44960 0.85690 0.33000
C 	C 	0.42515 0.90830 0.66408 0.04900
C 	C 	0.39514 0.07870 0.64731 -0.11900
H 	H 	0.36820 0.11120 0.66350 0.07200
C 	C 	0.40502 0.20040 0.60676 0.05600
H 	H 	0.38470 0.31410 0.59600 0.02400
C 	C 	0.44488 0.15490 0.58189 -0.13800
C 	C 	0.47319 0.98040 0.59672 0.05100
H 	H 	0.49930 0.94560 0.57960 0.02400
C 	C 	0.46303 0.85860 0.63651 -0.11800
H 	H 	0.48180 0.74050 0.64530 0.07700
C 	C 	0.45826 0.29310 0.54157 0.39400
N 	N 	0.38107 0.17900 0.97240 -0.27400
C 	C 	0.34896 0.20950 0.00519 0.10100
H 	H 	0.35250 0.32670 0.02540 -0.01100
C 	C 	0.31119 0.07570 0.01018 -0.18300
H 	H 	0.28970 0.10270 0.03340 0.09300
C 	C 	0.30502 0.89980 0.98052 0.13100
C 	C 	0.33928 0.86740 0.94746 -0.18600
H 	H 	0.33710 0.75030 0.92740 0.09400
C 	C 	0.37601 0.00780 0.94460 0.11500
H 	H 	0.39850 0.98320 0.92230 -0.00900
C 	C 	0.26581 0.74720 0.98360 -0.09200
H 	H 	0.26310 0.63760 0.96050 0.05900
Zn	Zn	0.06503 0.88555 0.53424 1.22000
O 	O 	0.08056 0.05270 0.59941 -0.45700
O 	O 	0.08456 0.76770 0.64411 -0.31900
O 	O 	0.00342 0.75180 0.97806 -0.50500
O 	O 	0.07034 0.94610 0.97166 -0.48200
C 	C 	0.08559 0.06590 0.69480 -0.08600
C 	C 	0.09744 0.26490 0.69842 0.01900
H 	H 	0.10680 0.32720 0.66930 0.04500
C 	C 	0.09558 0.37330 0.74446 -0.08800
H 	H 	0.10430 0.50720 0.74620 0.07000
C 	C 	0.08096 0.28700 0.78830 0.02400
C 	C 	0.06949 0.08480 0.78470 -0.08300
H 	H 	0.05980 0.02220 0.81360 0.06300
C 	C 	0.07224 0.97640 0.73888 0.00600
H 	H 	0.06500 0.84120 0.73760 0.03800
C 	C 	0.08377 0.94960 0.64310 0.31700
C 	C 	0.07485 0.40830 0.83592 0.06600
C 	C 	0.10486 0.57870 0.85269 -0.13400
H 	H 	0.13180 0.61120 0.83650 0.07700
C 	C 	0.09498 0.70040 0.89324 0.06700
H 	H 	0.11530 0.81410 0.90400 0.02000
C 	C 	0.05512 0.65490 0.91811 -0.14800
C 	C 	0.02681 0.48040 0.90328 0.06400
H 	H 	0.00070 0.44560 0.92040 0.02100
C 	C 	0.03697 0.35860 0.86349 -0.13100
H 	H 	0.01820 0.24050 0.85470 0.08300
C 	C 	0.04174 0.79310 0.95843 0.39700
N 	N 	0.11893 0.67900 0.52760 -0.27300
C 	C 	0.15104 0.70950 0.49481 0.10000
H 	H 	0.14750 0.82670 0.47460 -0.01000
C 	C 	0.18881 0.57570 0.48982 -0.17900
H 	H 	0.21030 0.60270 0.46660 0.09300
C 	C 	0.19498 0.39980 0.51948 0.12700
C 	C 	0.16072 0.36740 0.55254 -0.18100
H 	H 	0.16290 0.25030 0.57260 0.09300
C 	C 	0.12399 0.50780 0.55540 0.10900
H 	H 	0.10150 0.48320 0.57770 -0.00700
C 	C 	0.23419 0.24720 0.51640 -0.09000
H 	H 	0.23690 0.13760 0.53950 0.05900
Zn	Zn	0.56503 0.38555 0.53424 1.22000
O 	O 	0.58056 0.55270 0.59941 -0.46200
O 	O 	0.58456 0.26770 0.64411 -0.32200
O 	O 	0.50342 0.25180 0.97806 -0.50500
O 	O 	0.57034 0.44610 0.97166 -0.48200
C 	C 	0.58559 0.56590 0.69480 -0.10900
C 	C 	0.59744 0.76490 0.69842 0.04100
H 	H 	0.60680 0.82720 0.66930 0.03700
C 	C 	0.59558 0.87330 0.74446 -0.11300
H 	H 	0.60430 0.00720 0.74620 0.08100
C 	C 	0.58096 0.78700 0.78830 0.04400
C 	C 	0.56949 0.58480 0.78470 -0.10800
H 	H 	0.55980 0.52220 0.81360 0.07100
C 	C 	0.57224 0.47640 0.73888 0.03400
H 	H 	0.56500 0.34120 0.73760 0.02900
C 	C 	0.58377 0.44960 0.64310 0.33000
C 	C 	0.57485 0.90830 0.83592 0.04800
C 	C 	0.60486 0.07870 0.85269 -0.11700
H 	H 	0.63180 0.11120 0.83650 0.07200
C 	C 	0.59498 0.20040 0.89324 0.05500
H 	H 	0.61530 0.31410 0.90400 0.02400
C 	C 	0.55512 0.15490 0.91811 -0.13700
C 	C 	0.52681 0.98040 0.90328 0.05000
H 	H 	0.50070 0.94560 0.92040 0.02500
C 	C 	0.53697 0.85860 0.86349 -0.11700
H 	H 	0.51820 0.74050 0.85470 0.07700
C 	C 	0.54174 0.29310 0.95843 0.39400
N 	N 	0.61893 0.17900 0.52760 -0.27400
C 	C 	0.65104 0.20950 0.49481 0.10100
H 	H 	0.64750 0.32670 0.47460 -0.01100
C 	C 	0.68881 0.07570 0.48982 -0.18200
H 	H 	0.71030 0.10270 0.46660 0.09300
C 	C 	0.69498 0.89980 0.51948 0.13000
C 	C 	0.66072 0.86740 0.55254 -0.18400
H 	H 	0.66290 0.75030 0.57260 0.09400
C 	C 	0.62399 0.00780 0.55540 0.11200
H 	H 	0.60150 0.98320 0.57770 -0.00800
C 	C 	0.73419 0.74720 0.51640 -0.09100
H 	H 	0.73690 0.63760 0.53950 0.05900
Zn	Zn	0.06503 0.11445 0.03424 1.21900
O 	O 	0.08056 0.94730 0.09941 -0.45700
O 	O 	0.08456 0.23230 0.14411 -0.32000
O 	O 	0.00342 0.24820 0.47806 -0.50600
O 	O 	0.07034 0.05390 0.47166 -0.48300
C 	C 	0.08559 0.93410 0.19480 -0.08600
C 	C 	0.09744 0.73510 0.19842 0.01800
H 	H 	0.10680 0.67280 0.16930 0.04500
C 	C 	0.09558 0.62670 0.24446 -0.08800
H 	H 	0.10430 0.49280 0.24620 0.07000
C 	C 	0.08096 0.71300 0.28830 0.02400
C 	C 	0.06949 0.91520 0.28470 -0.08300
H 	H 	0.05980 0.97780 0.31360 0.06300
C 	C 	0.07224 0.02360 0.23888 0.00600
H 	H 	0.06500 0.15880 0.23760 0.03800
C 	C 	0.08377 0.05040 0.14310 0.31700
C 	C 	0.07485 0.59170 0.33592 0.06500
C 	C 	0.10486 0.42130 0.35269 -0.13400
H 	H 	0.13180 0.38880 0.33650 0.07700
C 	C 	0.09498 0.29960 0.39324 0.06700
H 	H 	0.11530 0.18590 0.40400 0.02000
C 	C 	0.05512 0.34510 0.41811 -0.14800
C 	C 	0.02681 0.51960 0.40328 0.06400
H 	H 	0.00070 0.55440 0.42040 0.02000
C 	C 	0.03697 0.64140 0.36349 -0.13100
H 	H 	0.01820 0.75950 0.35470 0.08200
C 	C 	0.04174 0.20690 0.45843 0.39700
N 	N 	0.11893 0.32100 0.02760 -0.27400
C 	C 	0.15104 0.29050 0.99481 0.10100
H 	H 	0.14750 0.17330 0.97460 -0.01000
C 	C 	0.18881 0.42430 0.98982 -0.17800
H 	H 	0.21030 0.39730 0.96660 0.09300
C 	C 	0.19498 0.60020 0.01948 0.12600
C 	C 	0.16072 0.63260 0.05254 -0.18100
H 	H 	0.16290 0.74970 0.07260 0.09300
C 	C 	0.12399 0.49220 0.05540 0.10900
H 	H 	0.10150 0.51680 0.07770 -0.00700
C 	C 	0.23419 0.75280 0.01640 -0.09000
H 	H 	0.23690 0.86240 0.03950 0.05900
Zn	Zn	0.56503 0.61445 0.03424 1.22000
O 	O 	0.58056 0.44730 0.09941 -0.46200
O 	O 	0.58456 0.73230 0.14411 -0.32200
O 	O 	0.50342 0.74820 0.47806 -0.50500
O 	O 	0.57034 0.55390 0.47166 -0.48200
C 	C 	0.58559 0.43410 0.19480 -0.10900
C 	C 	0.59744 0.23510 0.19842 0.04100
H 	H 	0.60680 0.17280 0.16930 0.03700
C 	C 	0.59558 0.12670 0.24446 -0.11300
H 	H 	0.60430 0.99280 0.24620 0.08100
C 	C 	0.58096 0.21300 0.28830 0.04400
C 	C 	0.56949 0.41520 0.28470 -0.10700
H 	H 	0.55980 0.47780 0.31360 0.07100
C 	C 	0.57224 0.52360 0.23888 0.03400
H 	H 	0.56500 0.65880 0.23760 0.02900
C 	C 	0.58377 0.55040 0.14310 0.33000
C 	C 	0.57485 0.09170 0.33592 0.04900
C 	C 	0.60486 0.92130 0.35269 -0.11900
H 	H 	0.63180 0.88880 0.33650 0.07200
C 	C 	0.59498 0.79960 0.39324 0.05600
H 	H 	0.61530 0.68590 0.40400 0.02400
C 	C 	0.55512 0.84510 0.41811 -0.13800
C 	C 	0.52681 0.01960 0.40328 0.05100
H 	H 	0.50070 0.05440 0.42040 0.02400
C 	C 	0.53697 0.14140 0.36349 -0.11800
H 	H 	0.51820 0.25950 0.35470 0.07700
C 	C 	0.54174 0.70690 0.45843 0.39400
N 	N 	0.61893 0.82100 0.02760 -0.27400
C 	C 	0.65104 0.79050 0.99481 0.10100
H 	H 	0.64750 0.67330 0.97460 -0.01100
C 	C 	0.68881 0.92430 0.98982 -0.18300
H 	H 	0.71030 0.89730 0.96660 0.09300
C 	C 	0.69498 0.10020 0.01948 0.13100
C 	C 	0.66072 0.13260 0.05254 -0.18600
H 	H 	0.66290 0.24970 0.07260 0.09400
C 	C 	0.62399 0.99220 0.05540 0.11500
H 	H 	0.60150 0.01680 0.07770 -0.00900
C 	C 	0.73419 0.25280 0.01640 -0.09200
H 	H 	0.73690 0.36240 0.03950 0.05900
Zn	Zn	0.93497 0.11445 0.46576 1.22000
O 	O 	0.91944 0.94730 0.40059 -0.45700
O 	O 	0.91544 0.23230 0.35589 -0.31900
O 	O 	0.99658 0.24820 0.02194 -0.50500
O 	O 	0.92966 0.05390 0.02834 -0.48200
C 	C 	0.91441 0.93410 0.30520 -0.08600
C 	C 	0.90256 0.73510 0.30158 0.01900
H 	H 	0.89320 0.67280 0.33070 0.04500
C 	C 	0.90442 0.62670 0.25554 -0.08800
H 	H 	0.89570 0.49280 0.25380 0.07000
C 	C 	0.91904 0.71300 0.21170 0.02400
C 	C 	0.93051 0.91520 0.21530 -0.08300
H 	H 	0.94020 0.97780 0.18640 0.06300
C 	C 	0.92776 0.02360 0.26112 0.00600
H 	H 	0.93500 0.15880 0.26240 0.03800
C 	C 	0.91623 0.05040 0.35690 0.31700
C 	C 	0.92515 0.59170 0.16408 0.06600
C 	C 	0.89514 0.42130 0.14731 -0.13400
H 	H 	0.86820 0.38880 0.16350 0.07700
C 	C 	0.90502 0.29960 0.10676 0.06700
H 	H 	0.88470 0.18590 0.09600 0.02000
C 	C 	0.94488 0.34510 0.08189 -0.14800
C 	C 	0.97319 0.51960 0.09672 0.06400
H 	H 	0.99930 0.55440 0.07960 0.02100
C 	C 	0.96303 0.64140 0.13651 -0.13100
H 	H 	0.98180 0.75950 0.14530 0.08300
C 	C 	0.95826 0.20690 0.04157 0.39700
N 	N 	0.88107 0.32100 0.47240 -0.27300
C 	C 	0.84896 0.29050 0.50519 0.10000
H 	H 	0.85250 0.17330 0.52540 -0.01000
C 	C 	0.81119 0.42430 0.51018 -0.17900
H 	H 	0.78970 0.39730 0.53340 0.09300
C 	C 	0.80502 0.60020 0.48052 0.12700
C 	C 	0.83928 0.63260 0.44746 -0.18100
H 	H 	0.83710 0.74970 0.42740 0.09300
C 	C 	0.87601 0.49220 0.44460 0.10900
H 	H 	0.89850 0.51680 0.42230 -0.00700
C 	C 	0.76581 0.75280 0.48360 -0.09000
H 	H 	0.76310 0.86240 0.46050 0.05900
Zn	Zn	0.43497 0.61445 0.46576 1.22000
O 	O 	0.41944 0.44730 0.40059 -0.46200
O 	O 	0.41544 0.73230 0.35589 -0.32200
O 	O 	0.49658 0.74820 0.02194 -0.50500
O 	O 	0.42966 0.55390 0.02834 -0.48200
C 	C 	0.41441 0.43410 0.30520 -0.10900
C 	C 	0.40256 0.23510 0.30158 0.04100
H 	H 	0.39320 0.17280 0.33070 0.03700
C 	C 	0.40442 0.12670 0.25554 -0.11300
H 	H 	0.39570 0.99280 0.25380 0.08100
C 	C 	0.41904 0.21300 0.21170 0.04400
C 	C 	0.43051 0.41520 0.21530 -0.10800
H 	H 	0.44020 0.47780 0.18640 0.07100
C 	C 	0.42776 0.52360 0.26112 0.03400
H 	H 	0.43500 0.65880 0.26240 0.02900
C 	C 	0.41623 0.55040 0.35690 0.33000
C 	C 	0.42515 0.09170 0.16408 0.04800
C 	C 	0.39514 0.92130 0.14731 -0.11700
H 	H 	0.36820 0.88880 0.16350 0.07200
C 	C 	0.40502 0.79960 0.10676 0.05500
H 	H 	0.38470 0.68590 0.09600 0.02400
C 	C 	0.44488 0.84510 0.08189 -0.13700
C 	C 	0.47319 0.01960 0.09672 0.05000
H 	H 	0.49930 0.05440 0.07960 0.02500
C 	C 	0.46303 0.14140 0.13651 -0.11700
H 	H 	0.48180 0.25950 0.14530 0.07700
C 	C 	0.45826 0.70690 0.04157 0.39400
N 	N 	0.38107 0.82100 0.47240 -0.27400
C 	C 	0.34896 0.79050 0.50519 0.10100
H 	H 	0.35250 0.67330 0.52540 -0.01100
C 	C 	0.31119 0.92430 0.51018 -0.18200
H 	H 	0.28970 0.89730 0.53340 0.09300
C 	C 	0.30502 0.10020 0.48052 0.13000
C 	C 	0.33928 0.13260 0.44746 -0.18400
H 	H 	0.33710 0.24970 0.42740 0.09400
C 	C 	0.37601 0.99220 0.44460 0.11200
H 	H 	0.39850 0.01680 0.42230 -0.00800
C 	C 	0.26581 0.25280 0.48360 -0.09100
H 	H 	0.26310 0.36240 0.46050 0.05900
