data_crystal

_cell_length_a 27.63400
_cell_length_b 27.63400
_cell_length_c 27.63400
_cell_angle_alpha 90.00000
_cell_angle_beta  90.00000
_cell_angle_gamma 90.00000

_symmetry_space_group_name_	'P 1'
_symmetry_space_group_name_H-M	'P 1'

loop_
_symmetry_equiv_pos_as_xyz
  x,y,z

loop_
_atom_site_label
_atom_site_type_symbol
_atom_site_fract_x
_atom_site_fract_y
_atom_site_fract_z
_atom_site_charge
Co	Co	0.50000 0.00000 0.70150 1.13900
Co	Co	0.50000 0.00000 0.29850 1.13900
Co	Co	0.70150 0.50000 -0.00000 1.13900
Co	Co	0.29850 0.50000 -0.00000 1.14100
Co	Co	0.00000 0.70150 0.50000 1.15100
Co	Co	1.00000 0.29850 0.50000 1.15000
Co	Co	0.50000 0.00000 0.79850 1.14000
Co	Co	0.50000 0.00000 0.20150 1.13900
Co	Co	1.00000 0.20150 0.50000 1.14900
Co	Co	0.00000 0.79850 0.50000 1.15200
Co	Co	0.20150 0.50000 -0.00000 1.14000
Co	Co	0.79850 0.50000 -0.00000 1.14000
H 	H 	0.38870 0.11050 0.67790 0.02500
H 	H 	0.32970 0.16880 0.67800 0.07500
H 	H 	0.61130 0.88950 0.67790 0.03300
H 	H 	0.67030 0.83120 0.67800 0.07600
H 	H 	0.61130 0.11050 0.32210 0.02400
H 	H 	0.67030 0.16880 0.32200 0.07500
H 	H 	0.38870 0.88950 0.32210 0.03200
H 	H 	0.32970 0.83120 0.32200 0.07600
H 	H 	0.67790 0.38870 0.11050 0.02400
H 	H 	0.67800 0.32970 0.16880 0.07500
H 	H 	0.67790 0.61130 0.88950 0.03200
H 	H 	0.67800 0.67030 0.83120 0.07600
H 	H 	0.32210 0.61130 0.11050 0.02500
H 	H 	0.32200 0.67030 0.16880 0.07500
H 	H 	0.32210 0.38870 0.88950 0.03200
H 	H 	0.32200 0.32970 0.83120 0.07600
H 	H 	0.11050 0.67790 0.38870 0.02700
H 	H 	0.16880 0.67800 0.32970 0.07500
H 	H 	0.88950 0.67790 0.61130 0.02600
H 	H 	0.83120 0.67800 0.67030 0.07600
H 	H 	0.11050 0.32210 0.61130 0.02700
H 	H 	0.16880 0.32200 0.67030 0.07600
H 	H 	0.88950 0.32210 0.38870 0.02600
H 	H 	0.83120 0.32200 0.32970 0.07500
H 	H 	0.61050 0.88870 0.82210 0.03300
H 	H 	0.66880 0.82970 0.82200 0.07800
H 	H 	0.38950 0.11130 0.82210 0.02600
H 	H 	0.33120 0.17030 0.82200 0.07700
H 	H 	0.61050 0.11130 0.17790 0.02200
H 	H 	0.66880 0.17030 0.17800 0.07200
H 	H 	0.38950 0.88870 0.17790 0.02900
H 	H 	0.33120 0.82970 0.17800 0.07400
H 	H 	0.88870 0.17790 0.38950 0.02300
H 	H 	0.82970 0.17800 0.33120 0.07300
H 	H 	0.11130 0.17790 0.61050 0.02500
H 	H 	0.17030 0.17800 0.66880 0.07400
H 	H 	0.11130 0.82210 0.38950 0.02800
H 	H 	0.17030 0.82200 0.33120 0.07700
H 	H 	0.88870 0.82210 0.61050 0.02900
H 	H 	0.82970 0.82200 0.66880 0.07900
H 	H 	0.17790 0.61050 0.11130 0.02400
H 	H 	0.17800 0.66880 0.17030 0.07500
H 	H 	0.17790 0.38950 0.88870 0.03000
H 	H 	0.17800 0.33120 0.82970 0.07500
H 	H 	0.82210 0.61050 0.88870 0.03000
H 	H 	0.82200 0.66880 0.82970 0.07600
H 	H 	0.82210 0.38950 0.11130 0.02300
H 	H 	0.82200 0.33120 0.17030 0.07400
H 	H 	0.61130 0.88950 0.32210 0.03200
H 	H 	0.67030 0.83120 0.32200 0.07600
H 	H 	0.38870 0.11050 0.32210 0.02400
H 	H 	0.32970 0.16880 0.32200 0.07500
H 	H 	0.38870 0.88950 0.67790 0.03300
H 	H 	0.32970 0.83120 0.67800 0.07600
H 	H 	0.61130 0.11050 0.67790 0.02500
H 	H 	0.67030 0.16880 0.67800 0.07500
H 	H 	0.32210 0.61130 0.88950 0.03300
H 	H 	0.32200 0.67030 0.83120 0.07600
H 	H 	0.32210 0.38870 0.11050 0.02400
H 	H 	0.32200 0.32970 0.16880 0.07500
H 	H 	0.67790 0.38870 0.88950 0.03100
H 	H 	0.67800 0.32970 0.83120 0.07600
H 	H 	0.67790 0.61130 0.11050 0.02400
H 	H 	0.67800 0.67030 0.16880 0.07500
H 	H 	0.88950 0.32210 0.61130 0.02600
H 	H 	0.83120 0.32200 0.67030 0.07600
H 	H 	0.11050 0.32210 0.38870 0.02600
H 	H 	0.16880 0.32200 0.32970 0.07500
H 	H 	0.88950 0.67790 0.38870 0.02600
H 	H 	0.83120 0.67800 0.32970 0.07500
H 	H 	0.11050 0.67790 0.61130 0.02700
H 	H 	0.16880 0.67800 0.67030 0.07600
H 	H 	0.38950 0.11130 0.17790 0.02200
H 	H 	0.33120 0.17030 0.17800 0.07200
H 	H 	0.61050 0.88870 0.17790 0.02900
H 	H 	0.66880 0.82970 0.17800 0.07300
H 	H 	0.38950 0.88870 0.82210 0.03300
H 	H 	0.33120 0.82970 0.82200 0.07800
H 	H 	0.61050 0.11130 0.82210 0.02600
H 	H 	0.66880 0.17030 0.82200 0.07700
H 	H 	0.11130 0.82210 0.61050 0.02900
H 	H 	0.17030 0.82200 0.66880 0.07900
H 	H 	0.88870 0.82210 0.38950 0.02800
H 	H 	0.82970 0.82200 0.33120 0.07700
H 	H 	0.88870 0.17790 0.61050 0.02400
H 	H 	0.82970 0.17800 0.66880 0.07400
H 	H 	0.11130 0.17790 0.38950 0.02400
H 	H 	0.17030 0.17800 0.33120 0.07300
H 	H 	0.82210 0.38950 0.88870 0.03000
H 	H 	0.82200 0.33120 0.82970 0.07500
H 	H 	0.82210 0.61050 0.11130 0.02400
H 	H 	0.82200 0.66880 0.17030 0.07500
H 	H 	0.17790 0.38950 0.11130 0.02400
H 	H 	0.17800 0.33120 0.17030 0.07400
H 	H 	0.17790 0.61050 0.88870 0.03100
H 	H 	0.17800 0.66880 0.82970 0.07600
H 	H 	0.25000 0.19080 0.69080 0.06400
H 	H 	0.75000 0.80920 0.69080 0.06800
H 	H 	0.75000 0.19080 0.30920 0.06200
H 	H 	0.25000 0.80920 0.30920 0.06700
H 	H 	0.69080 0.25000 0.19080 0.06200
H 	H 	0.69080 0.75000 0.80920 0.06800
H 	H 	0.30920 0.75000 0.19080 0.06400
H 	H 	0.30920 0.25000 0.80920 0.06600
H 	H 	0.19080 0.69080 0.25000 0.06500
H 	H 	0.80920 0.69080 0.75000 0.06600
H 	H 	0.19080 0.30920 0.75000 0.06500
H 	H 	0.80920 0.30920 0.25000 0.06300
H 	H 	0.75000 0.80920 0.30920 0.06700
H 	H 	0.25000 0.19080 0.30920 0.06300
H 	H 	0.25000 0.80920 0.69080 0.06800
H 	H 	0.75000 0.19080 0.69080 0.06300
H 	H 	0.30920 0.75000 0.80920 0.06800
H 	H 	0.30920 0.25000 0.19080 0.06300
H 	H 	0.69080 0.25000 0.80920 0.06600
H 	H 	0.69080 0.75000 0.19080 0.06400
H 	H 	0.80920 0.30920 0.75000 0.06500
H 	H 	0.19080 0.30920 0.25000 0.06400
H 	H 	0.80920 0.69080 0.25000 0.06400
H 	H 	0.19080 0.69080 0.75000 0.06600
H 	H 	0.42920 0.00000 0.53780 0.08900
H 	H 	0.43250 0.00000 0.61890 -0.02400
H 	H 	0.57080 0.00000 0.53780 0.08900
H 	H 	0.56750 0.00000 0.61890 -0.02400
H 	H 	0.57080 0.00000 0.46220 0.08900
H 	H 	0.56750 0.00000 0.38110 -0.02400
H 	H 	0.42920 0.00000 0.46220 0.08900
H 	H 	0.43250 0.00000 0.38110 -0.02400
H 	H 	0.53780 0.42920 -0.00000 -0.02900
H 	H 	0.61890 0.43250 -0.00000 0.03900
H 	H 	0.53780 0.57080 -0.00000 0.03700
H 	H 	0.61890 0.56750 -0.00000 0.00900
H 	H 	0.46220 0.57080 -0.00000 0.12400
H 	H 	0.38110 0.56750 -0.00000 -0.04000
H 	H 	0.46220 0.42920 -0.00000 0.12400
H 	H 	0.38110 0.43250 -0.00000 -0.04100
H 	H 	1.00000 0.53780 0.42920 0.07300
H 	H 	1.00000 0.61890 0.43250 -0.00700
H 	H 	1.00000 0.53780 0.57080 0.07300
H 	H 	1.00000 0.61890 0.56750 -0.00700
H 	H 	1.00000 0.46220 0.57080 0.10400
H 	H 	1.00000 0.38110 0.56750 -0.02300
H 	H 	1.00000 0.46220 0.42920 0.10400
H 	H 	1.00000 0.38110 0.43250 -0.02300
H 	H 	0.50000 0.92920 0.96220 0.11700
H 	H 	0.50000 0.93250 0.88110 -0.03100
H 	H 	0.50000 0.07080 0.96220 0.11900
H 	H 	0.50000 0.06750 0.88110 -0.02500
H 	H 	0.50000 0.07080 0.03780 0.05800
H 	H 	0.50000 0.06750 0.11890 -0.00500
H 	H 	0.50000 0.92920 0.03780 0.05500
H 	H 	0.50000 0.93250 0.11890 -0.01000
H 	H 	0.92920 0.03780 0.50000 0.05600
H 	H 	0.93250 0.11890 0.50000 -0.00500
H 	H 	0.07080 0.03780 0.50000 0.05600
H 	H 	0.06750 0.11890 0.50000 -0.00500
H 	H 	0.07080 0.96220 0.50000 0.13100
H 	H 	0.06750 0.88110 0.50000 -0.03200
H 	H 	0.92920 0.96220 0.50000 0.13100
H 	H 	0.93250 0.88110 0.50000 -0.03200
H 	H 	0.03780 0.50000 0.07080 0.09100
H 	H 	0.11890 0.50000 0.06750 -0.01600
H 	H 	0.03780 0.50000 0.92920 0.08900
H 	H 	0.11890 0.50000 0.93250 -0.02200
H 	H 	0.96220 0.50000 0.92920 0.08400
H 	H 	0.88110 0.50000 0.93250 -0.02000
H 	H 	0.96220 0.50000 0.07080 0.08600
H 	H 	0.88110 0.50000 0.06750 -0.01400
C 	C 	0.37707 0.12235 0.70714 0.05900
C 	C 	0.34174 0.15742 0.70726 -0.12700
C 	C 	0.62293 0.87765 0.70714 0.05500
C 	C 	0.65826 0.84258 0.70726 -0.12000
C 	C 	0.62293 0.12235 0.29286 0.05900
C 	C 	0.65826 0.15742 0.29274 -0.12900
C 	C 	0.37707 0.87765 0.29286 0.05500
C 	C 	0.34174 0.84258 0.29274 -0.12100
C 	C 	0.70714 0.37707 0.12235 0.06000
C 	C 	0.70726 0.34174 0.15742 -0.12900
C 	C 	0.70714 0.62293 0.87765 0.05600
C 	C 	0.70726 0.65826 0.84258 -0.12100
C 	C 	0.29286 0.62293 0.12235 0.05900
C 	C 	0.29274 0.65826 0.15742 -0.12800
C 	C 	0.29286 0.37707 0.87765 0.05500
C 	C 	0.29274 0.34174 0.84258 -0.12100
C 	C 	0.12235 0.70714 0.37707 0.05900
C 	C 	0.15742 0.70726 0.34174 -0.12600
C 	C 	0.87765 0.70714 0.62293 0.05900
C 	C 	0.84258 0.70726 0.65826 -0.12500
C 	C 	0.12235 0.29286 0.62293 0.05900
C 	C 	0.15742 0.29274 0.65826 -0.12600
C 	C 	0.87765 0.29286 0.37707 0.05900
C 	C 	0.84258 0.29274 0.34174 -0.12700
C 	C 	0.62235 0.87707 0.79286 0.05600
C 	C 	0.65742 0.84174 0.79274 -0.12000
C 	C 	0.37765 0.12293 0.79286 0.06000
C 	C 	0.34258 0.15826 0.79274 -0.12700
C 	C 	0.62235 0.12293 0.20714 0.05900
C 	C 	0.65742 0.15826 0.20726 -0.12900
C 	C 	0.37765 0.87707 0.20714 0.05500
C 	C 	0.34258 0.84174 0.20726 -0.12200
C 	C 	0.87707 0.20714 0.37765 0.05900
C 	C 	0.84174 0.20726 0.34258 -0.12800
C 	C 	0.12293 0.20714 0.62235 0.05900
C 	C 	0.15826 0.20726 0.65742 -0.12600
C 	C 	0.12293 0.79286 0.37765 0.05900
C 	C 	0.15826 0.79274 0.34258 -0.12500
C 	C 	0.87707 0.79286 0.62235 0.06000
C 	C 	0.84174 0.79274 0.65742 -0.12500
C 	C 	0.20714 0.62235 0.12293 0.05900
C 	C 	0.20726 0.65742 0.15826 -0.12800
C 	C 	0.20714 0.37765 0.87707 0.05500
C 	C 	0.20726 0.34258 0.84174 -0.12100
C 	C 	0.79286 0.62235 0.87707 0.05600
C 	C 	0.79274 0.65742 0.84174 -0.12100
C 	C 	0.79286 0.37765 0.12293 0.05900
C 	C 	0.79274 0.34258 0.15826 -0.12900
C 	C 	0.62293 0.87765 0.29286 0.05500
C 	C 	0.65826 0.84258 0.29274 -0.12100
C 	C 	0.37707 0.12235 0.29286 0.05900
C 	C 	0.34174 0.15742 0.29274 -0.12900
C 	C 	0.37707 0.87765 0.70714 0.05500
C 	C 	0.34174 0.84258 0.70726 -0.12000
C 	C 	0.62293 0.12235 0.70714 0.05900
C 	C 	0.65826 0.15742 0.70726 -0.12800
C 	C 	0.29286 0.62293 0.87765 0.05500
C 	C 	0.29274 0.65826 0.84258 -0.12000
C 	C 	0.29286 0.37707 0.12235 0.05900
C 	C 	0.29274 0.34174 0.15742 -0.12800
C 	C 	0.70714 0.37707 0.87765 0.05600
C 	C 	0.70726 0.34174 0.84258 -0.12200
C 	C 	0.70714 0.62293 0.12235 0.06000
C 	C 	0.70726 0.65826 0.15742 -0.12800
C 	C 	0.87765 0.29286 0.62293 0.05900
C 	C 	0.84258 0.29274 0.65826 -0.12700
C 	C 	0.12235 0.29286 0.37707 0.05900
C 	C 	0.15742 0.29274 0.34174 -0.12700
C 	C 	0.87765 0.70714 0.37707 0.05900
C 	C 	0.84258 0.70726 0.34174 -0.12600
C 	C 	0.12235 0.70714 0.62293 0.05900
C 	C 	0.15742 0.70726 0.65826 -0.12500
C 	C 	0.37765 0.12293 0.20714 0.05900
C 	C 	0.34258 0.15826 0.20726 -0.12900
C 	C 	0.62235 0.87707 0.20714 0.05500
C 	C 	0.65742 0.84174 0.20726 -0.12200
C 	C 	0.37765 0.87707 0.79286 0.05600
C 	C 	0.34258 0.84174 0.79274 -0.12000
C 	C 	0.62235 0.12293 0.79286 0.06000
C 	C 	0.65742 0.15826 0.79274 -0.12700
C 	C 	0.12293 0.79286 0.62235 0.06000
C 	C 	0.15826 0.79274 0.65742 -0.12400
C 	C 	0.87707 0.79286 0.37765 0.06000
C 	C 	0.84174 0.79274 0.34258 -0.12600
C 	C 	0.87707 0.20714 0.62235 0.05900
C 	C 	0.84174 0.20726 0.65742 -0.12700
C 	C 	0.12293 0.20714 0.37765 0.05800
C 	C 	0.15826 0.20726 0.34258 -0.12700
C 	C 	0.79286 0.37765 0.87707 0.05600
C 	C 	0.79274 0.34258 0.84174 -0.12200
C 	C 	0.79286 0.62235 0.12293 0.06000
C 	C 	0.79274 0.65742 0.15826 -0.12800
C 	C 	0.20714 0.37765 0.12293 0.05900
C 	C 	0.20726 0.34258 0.15826 -0.12800
C 	C 	0.20714 0.62235 0.87707 0.05600
C 	C 	0.20726 0.65742 0.84174 -0.12100
C 	C 	0.50000 0.00000 0.52694 0.08600
C 	C 	0.50000 0.00000 0.47306 0.08600
C 	C 	0.52694 0.50000 -0.00000 -0.11700
C 	C 	0.47306 0.50000 -0.00000 0.20800
C 	C 	1.00000 0.52694 0.50000 0.03800
C 	C 	0.00000 0.47306 0.50000 0.13000
C 	C 	0.50000 0.00000 0.97306 0.14500
C 	C 	0.50000 0.00000 0.02694 -0.03300
C 	C 	1.00000 0.02694 0.50000 -0.02200
C 	C 	0.00000 0.97306 0.50000 0.20100
C 	C 	0.02694 0.50000 -0.00000 0.06500
C 	C 	0.97306 0.50000 -0.00000 0.05000
C 	C 	0.43397 0.06603 0.75000 0.39200
C 	C 	0.39549 0.10451 0.75000 -0.13200
C 	C 	0.32389 0.17611 0.75000 0.06000
C 	C 	0.28595 0.21405 0.75000 0.03100
C 	C 	0.56603 0.93397 0.75000 0.38800
C 	C 	0.60451 0.89549 0.75000 -0.12100
C 	C 	0.67611 0.82389 0.75000 0.05800
C 	C 	0.71405 0.78595 0.75000 0.03600
C 	C 	0.56603 0.06603 0.25000 0.39200
C 	C 	0.60451 0.10451 0.25000 -0.13400
C 	C 	0.67611 0.17611 0.25000 0.06000
C 	C 	0.71405 0.21405 0.25000 0.02800
C 	C 	0.43397 0.93397 0.25000 0.38800
C 	C 	0.39549 0.89549 0.25000 -0.12300
C 	C 	0.32389 0.82389 0.25000 0.05700
C 	C 	0.28595 0.78595 0.25000 0.03300
C 	C 	0.75000 0.43397 0.06603 0.39200
C 	C 	0.75000 0.39549 0.10451 -0.13400
C 	C 	0.75000 0.32389 0.17611 0.06000
C 	C 	0.75000 0.28595 0.21405 0.02800
C 	C 	0.75000 0.56603 0.93397 0.38900
C 	C 	0.75000 0.60451 0.89549 -0.12200
C 	C 	0.75000 0.67611 0.82389 0.05800
C 	C 	0.75000 0.71405 0.78595 0.03500
C 	C 	0.25000 0.56603 0.06603 0.39200
C 	C 	0.25000 0.60451 0.10451 -0.13200
C 	C 	0.25000 0.67611 0.17611 0.06000
C 	C 	0.25000 0.71405 0.21405 0.03100
C 	C 	0.25000 0.43397 0.93397 0.38800
C 	C 	0.25000 0.39549 0.89549 -0.12200
C 	C 	0.25000 0.32389 0.82389 0.05700
C 	C 	0.25000 0.28595 0.78595 0.03300
C 	C 	0.06603 0.75000 0.43397 0.39200
C 	C 	0.10451 0.75000 0.39549 -0.12900
C 	C 	0.17611 0.75000 0.32389 0.06000
C 	C 	0.21405 0.75000 0.28595 0.03200
C 	C 	0.93397 0.75000 0.56603 0.39300
C 	C 	0.89549 0.75000 0.60451 -0.12900
C 	C 	0.82389 0.75000 0.67611 0.06000
C 	C 	0.78595 0.75000 0.71405 0.03400
C 	C 	0.06603 0.25000 0.56603 0.39200
C 	C 	0.10451 0.25000 0.60451 -0.13000
C 	C 	0.17611 0.25000 0.67611 0.05900
C 	C 	0.21405 0.25000 0.71405 0.03200
C 	C 	0.93397 0.25000 0.43397 0.39300
C 	C 	0.89549 0.25000 0.39549 -0.13100
C 	C 	0.82389 0.25000 0.32389 0.05900
C 	C 	0.78595 0.25000 0.28595 0.02900
C 	C 	0.56603 0.93397 0.25000 0.38800
C 	C 	0.60451 0.89549 0.25000 -0.12300
C 	C 	0.67611 0.82389 0.25000 0.05700
C 	C 	0.71405 0.78595 0.25000 0.03300
C 	C 	0.43397 0.06603 0.25000 0.39200
C 	C 	0.39549 0.10451 0.25000 -0.13400
C 	C 	0.32389 0.17611 0.25000 0.06000
C 	C 	0.28595 0.21405 0.25000 0.02900
C 	C 	0.43397 0.93397 0.75000 0.38800
C 	C 	0.39549 0.89549 0.75000 -0.12100
C 	C 	0.32389 0.82389 0.75000 0.05800
C 	C 	0.28595 0.78595 0.75000 0.03600
C 	C 	0.56603 0.06603 0.75000 0.39200
C 	C 	0.60451 0.10451 0.75000 -0.13200
C 	C 	0.67611 0.17611 0.75000 0.06000
C 	C 	0.71405 0.21405 0.75000 0.03100
C 	C 	0.25000 0.56603 0.93397 0.38900
C 	C 	0.25000 0.60451 0.89549 -0.12200
C 	C 	0.25000 0.67611 0.82389 0.05700
C 	C 	0.25000 0.71405 0.78595 0.03600
C 	C 	0.25000 0.43397 0.06603 0.39200
C 	C 	0.25000 0.39549 0.10451 -0.13300
C 	C 	0.25000 0.32389 0.17611 0.06000
C 	C 	0.25000 0.28595 0.21405 0.02900
C 	C 	0.75000 0.43397 0.93397 0.38900
C 	C 	0.75000 0.39549 0.89549 -0.12300
C 	C 	0.75000 0.32389 0.82389 0.05800
C 	C 	0.75000 0.28595 0.78595 0.03300
C 	C 	0.75000 0.56603 0.06603 0.39200
C 	C 	0.75000 0.60451 0.10451 -0.13300
C 	C 	0.75000 0.67611 0.17611 0.06000
C 	C 	0.75000 0.71405 0.21405 0.03100
C 	C 	0.93397 0.25000 0.56603 0.39300
C 	C 	0.89549 0.25000 0.60451 -0.13100
C 	C 	0.82389 0.25000 0.67611 0.05900
C 	C 	0.78595 0.25000 0.71405 0.03100
C 	C 	0.06603 0.25000 0.43397 0.39200
C 	C 	0.10451 0.25000 0.39549 -0.13000
C 	C 	0.17611 0.25000 0.32389 0.05900
C 	C 	0.21405 0.25000 0.28595 0.02900
C 	C 	0.93397 0.75000 0.43397 0.39300
C 	C 	0.89549 0.75000 0.39549 -0.13000
C 	C 	0.82389 0.75000 0.32389 0.06000
C 	C 	0.78595 0.75000 0.28595 0.03200
C 	C 	0.06603 0.75000 0.56603 0.39300
C 	C 	0.10451 0.75000 0.60451 -0.12800
C 	C 	0.17611 0.75000 0.67611 0.06000
C 	C 	0.21405 0.75000 0.71405 0.03400
C 	C 	0.25000 0.21460 0.71460 -0.09900
C 	C 	0.75000 0.78540 0.71460 -0.10000
C 	C 	0.75000 0.21460 0.28540 -0.09800
C 	C 	0.25000 0.78540 0.28540 -0.10000
C 	C 	0.71460 0.25000 0.21460 -0.09800
C 	C 	0.71460 0.75000 0.78540 -0.10100
C 	C 	0.28540 0.75000 0.21460 -0.09900
C 	C 	0.28540 0.25000 0.78540 -0.09900
C 	C 	0.21460 0.71460 0.25000 -0.09900
C 	C 	0.78540 0.71460 0.75000 -0.10000
C 	C 	0.21460 0.28540 0.75000 -0.09900
C 	C 	0.78540 0.28540 0.25000 -0.09800
C 	C 	0.75000 0.78540 0.28540 -0.09900
C 	C 	0.25000 0.21460 0.28540 -0.09800
C 	C 	0.25000 0.78540 0.71460 -0.10000
C 	C 	0.75000 0.21460 0.71460 -0.09900
C 	C 	0.28540 0.75000 0.78540 -0.10100
C 	C 	0.28540 0.25000 0.21460 -0.09800
C 	C 	0.71460 0.25000 0.78540 -0.09900
C 	C 	0.71460 0.75000 0.21460 -0.09900
C 	C 	0.78540 0.28540 0.75000 -0.09900
C 	C 	0.21460 0.28540 0.25000 -0.09800
C 	C 	0.78540 0.71460 0.25000 -0.09900
C 	C 	0.21460 0.71460 0.75000 -0.10000
C 	C 	0.45910 0.00000 0.55310 -0.18700
C 	C 	0.46170 -0.00000 0.60213 0.13600
C 	C 	0.54090 0.00000 0.55310 -0.18700
C 	C 	0.53830 -0.00000 0.60213 0.13600
C 	C 	0.54090 0.00000 0.44690 -0.18700
C 	C 	0.53830 0.00000 0.39787 0.13600
C 	C 	0.45910 0.00000 0.44690 -0.18700
C 	C 	0.46170 0.00000 0.39787 0.13600
C 	C 	0.55310 0.45910 1.00000 0.11600
C 	C 	0.60213 0.46170 -0.00000 -0.05100
C 	C 	0.55310 0.54090 -0.00000 -0.03900
C 	C 	0.60213 0.53830 -0.00000 0.04200
C 	C 	0.44690 0.54090 -0.00000 -0.27600
C 	C 	0.39787 0.53830 -0.00000 0.18700
C 	C 	0.44690 0.45910 -0.00000 -0.27800
C 	C 	0.39787 0.46170 -0.00000 0.18800
C 	C 	0.00000 0.55310 0.45910 -0.13300
C 	C 	1.00000 0.60213 0.46170 0.10400
C 	C 	0.00000 0.55310 0.54090 -0.13300
C 	C 	1.00000 0.60213 0.53830 0.10400
C 	C 	1.00000 0.44690 0.54090 -0.21500
C 	C 	1.00000 0.39787 0.53830 0.15300
C 	C 	1.00000 0.44690 0.45910 -0.21500
C 	C 	1.00000 0.39787 0.46170 0.15300
C 	C 	0.50000 0.95910 0.94690 -0.20600
C 	C 	0.50000 0.96170 0.89787 0.19800
C 	C 	0.50000 0.04090 0.94690 -0.23300
C 	C 	0.50000 0.03830 0.89787 0.16300
C 	C 	0.50000 0.04090 0.05310 -0.11600
C 	C 	0.50000 0.03830 0.10213 0.08900
C 	C 	0.50000 0.95910 0.05310 -0.08900
C 	C 	0.50000 0.96170 0.10213 0.12400
C 	C 	0.95910 0.05310 0.50000 -0.11200
C 	C 	0.96170 0.10213 0.50000 0.09200
C 	C 	0.04090 0.05310 0.50000 -0.10900
C 	C 	0.03830 0.10213 0.50000 0.09600
C 	C 	0.04090 0.94690 0.50000 -0.26100
C 	C 	0.03830 0.89787 0.50000 0.18900
C 	C 	0.95910 0.94690 0.50000 -0.26200
C 	C 	0.96170 0.89787 0.50000 0.18700
C 	C 	0.05310 0.50000 0.04090 -0.18000
C 	C 	0.10213 0.50000 0.03830 0.13000
C 	C 	0.05310 0.50000 0.95910 -0.15400
C 	C 	0.10213 0.50000 0.96170 0.16300
C 	C 	0.94690 0.50000 0.95910 -0.14400
C 	C 	0.89787 0.50000 0.96170 0.15600
C 	C 	0.94690 0.50000 0.04090 -0.17000
C 	C 	0.89787 0.50000 0.03830 0.12300
N 	N 	0.50000 0.00000 0.62730 -0.26800
N 	N 	0.50000 0.00000 0.37270 -0.26800
N 	N 	0.62730 0.50000 -0.00000 -0.21000
N 	N 	0.37270 0.50000 -0.00000 -0.28900
N 	N 	0.00000 0.62730 0.50000 -0.24800
N 	N 	0.00000 0.37270 0.50000 -0.26700
N 	N 	0.50000 0.00000 0.87270 -0.29500
N 	N 	0.50000 0.00000 0.12730 -0.26600
N 	N 	1.00000 0.12730 0.50000 -0.24800
N 	N 	1.00000 0.87270 0.50000 -0.28500
N 	N 	0.12730 0.50000 -0.00000 -0.28100
N 	N 	0.87270 0.50000 -0.00000 -0.27900
O 	O 	0.44840 0.05138 0.70986 -0.45700
O 	O 	0.55160 0.94862 0.70986 -0.43500
O 	O 	0.55160 0.05138 0.29014 -0.45700
O 	O 	0.44840 0.94862 0.29014 -0.43600
O 	O 	0.70986 0.44840 0.05138 -0.45700
O 	O 	0.70986 0.55160 0.94862 -0.43700
O 	O 	0.29014 0.55160 0.05138 -0.45600
O 	O 	0.29014 0.44840 0.94862 -0.43600
O 	O 	0.05138 0.70986 0.44840 -0.45100
O 	O 	0.94862 0.70986 0.55160 -0.45300
O 	O 	0.05138 0.29014 0.55160 -0.45100
O 	O 	0.94862 0.29014 0.44840 -0.45300
O 	O 	0.55138 0.94840 0.79014 -0.43700
O 	O 	0.44862 0.05160 0.79014 -0.45600
O 	O 	0.55138 0.05160 0.20986 -0.45900
O 	O 	0.44862 0.94840 0.20986 -0.43900
O 	O 	0.94840 0.20986 0.44862 -0.45400
O 	O 	0.05160 0.20986 0.55138 -0.45200
O 	O 	0.05160 0.79014 0.44862 -0.45000
O 	O 	0.94840 0.79014 0.55138 -0.45100
O 	O 	0.20986 0.55138 0.05160 -0.45700
O 	O 	0.20986 0.44862 0.94840 -0.43900
O 	O 	0.79014 0.55138 0.94840 -0.43900
O 	O 	0.79014 0.44862 0.05160 -0.45800
O 	O 	0.55160 0.94862 0.29014 -0.43600
O 	O 	0.44840 0.05138 0.29014 -0.45700
O 	O 	0.44840 0.94862 0.70986 -0.43500
O 	O 	0.55160 0.05138 0.70986 -0.45700
O 	O 	0.29014 0.55160 0.94862 -0.43600
O 	O 	0.29014 0.44840 0.05138 -0.45600
O 	O 	0.70986 0.44840 0.94862 -0.43700
O 	O 	0.70986 0.55160 0.05138 -0.45700
O 	O 	0.94862 0.29014 0.55160 -0.45300
O 	O 	0.05138 0.29014 0.44840 -0.45100
O 	O 	0.94862 0.70986 0.44840 -0.45300
O 	O 	0.05138 0.70986 0.55160 -0.45100
O 	O 	0.44862 0.05160 0.20986 -0.45900
O 	O 	0.55138 0.94840 0.20986 -0.43900
O 	O 	0.44862 0.94840 0.79014 -0.43700
O 	O 	0.55138 0.05160 0.79014 -0.45600
O 	O 	0.05160 0.79014 0.55138 -0.45000
O 	O 	0.94840 0.79014 0.44862 -0.45200
O 	O 	0.94840 0.20986 0.55138 -0.45400
O 	O 	0.05160 0.20986 0.44862 -0.45200
O 	O 	0.79014 0.44862 0.94840 -0.43900
O 	O 	0.79014 0.55138 0.05160 -0.45700
O 	O 	0.20986 0.44862 0.05160 -0.45700
O 	O 	0.20986 0.55138 0.94840 -0.43800
