data_crystal

_cell_length_a 27.51200
_cell_length_b 27.51200
_cell_length_c 27.51200
_cell_angle_alpha 90.00000
_cell_angle_beta  90.00000
_cell_angle_gamma 90.00000

_symmetry_space_group_name_	'P 1'
_symmetry_space_group_name_H-M	'P 1'

loop_
_symmetry_equiv_pos_as_xyz
  x,y,z

loop_
_atom_site_label
_atom_site_type_symbol
_atom_site_fract_x
_atom_site_fract_y
_atom_site_fract_z
_atom_site_charge
Cu	Cu	0.50000 0.00000 0.79776 0.90700
Cu	Cu	0.50000 0.00000 0.20224 0.90700
Cu	Cu	0.79776 0.50000 -0.00000 0.91300
Cu	Cu	0.20224 0.50000 1.00000 0.92100
Cu	Cu	-0.00000 0.79776 0.50000 0.90600
Cu	Cu	-0.00000 0.20224 0.50000 0.90600
Cu	Cu	0.50000 0.00000 0.70224 0.90700
Cu	Cu	0.50000 0.00000 0.29776 0.90700
Cu	Cu	0.00000 0.29776 0.50000 0.90700
Cu	Cu	-0.00000 0.70224 0.50000 0.90700
Cu	Cu	0.29776 0.50000 -0.00000 0.91100
Cu	Cu	0.70224 0.50000 -0.00000 0.91200
H 	H 	0.60890 0.88980 0.82350 0.04200
H 	H 	0.66840 0.83030 0.82240 0.07000
H 	H 	0.39110 0.11020 0.82350 0.03600
H 	H 	0.33160 0.16970 0.82240 0.06700
H 	H 	0.39110 0.88980 0.17650 0.04000
H 	H 	0.33160 0.83030 0.17760 0.06700
H 	H 	0.60890 0.11020 0.17650 0.03500
H 	H 	0.66840 0.16970 0.17760 0.06700
H 	H 	0.82350 0.60890 0.88980 0.04100
H 	H 	0.82240 0.66840 0.83030 0.07100
H 	H 	0.82350 0.39110 0.11020 0.03800
H 	H 	0.82240 0.33160 0.16970 0.06900
H 	H 	0.17650 0.39110 0.88980 0.03600
H 	H 	0.17760 0.33160 0.83030 0.06600
H 	H 	0.17650 0.60890 0.11020 0.03500
H 	H 	0.17760 0.66840 0.16970 0.06600
H 	H 	0.88980 0.82350 0.60890 0.04300
H 	H 	0.83030 0.82240 0.66840 0.07100
H 	H 	0.11020 0.82350 0.39110 0.03700
H 	H 	0.16970 0.82240 0.33160 0.06900
H 	H 	0.88980 0.17650 0.39110 0.03900
H 	H 	0.83030 0.17760 0.33160 0.06600
H 	H 	0.11020 0.17650 0.60890 0.03400
H 	H 	0.16970 0.17760 0.66840 0.06500
H 	H 	0.38980 0.10890 0.67650 0.03600
H 	H 	0.33030 0.16840 0.67760 0.06700
H 	H 	0.61020 0.89110 0.67650 0.04200
H 	H 	0.66970 0.83160 0.67760 0.06900
H 	H 	0.38980 0.89110 0.32350 0.04200
H 	H 	0.33030 0.83160 0.32240 0.06800
H 	H 	0.61020 0.10890 0.32350 0.03600
H 	H 	0.66970 0.16840 0.32240 0.06800
H 	H 	0.10890 0.32350 0.61020 0.03600
H 	H 	0.16840 0.32240 0.66970 0.06700
H 	H 	0.89110 0.32350 0.38980 0.04200
H 	H 	0.83160 0.32240 0.33030 0.06800
H 	H 	0.89110 0.67650 0.61020 0.04200
H 	H 	0.83160 0.67760 0.66970 0.06900
H 	H 	0.10890 0.67650 0.38980 0.03600
H 	H 	0.16840 0.67760 0.33030 0.06700
H 	H 	0.32350 0.38980 0.89110 0.03900
H 	H 	0.32240 0.33030 0.83160 0.06800
H 	H 	0.32350 0.61020 0.10890 0.03600
H 	H 	0.32240 0.66970 0.16840 0.06800
H 	H 	0.67650 0.38980 0.10890 0.03700
H 	H 	0.67760 0.33030 0.16840 0.06800
H 	H 	0.67650 0.61020 0.89110 0.03900
H 	H 	0.67760 0.66970 0.83160 0.06800
H 	H 	0.39110 0.11020 0.17650 0.03400
H 	H 	0.33160 0.16970 0.17760 0.06600
H 	H 	0.60890 0.88980 0.17650 0.04000
H 	H 	0.66840 0.83030 0.17760 0.06800
H 	H 	0.60890 0.11020 0.82350 0.03600
H 	H 	0.66840 0.16970 0.82240 0.06800
H 	H 	0.39110 0.88980 0.82350 0.04100
H 	H 	0.33160 0.83030 0.82240 0.06900
H 	H 	0.17650 0.39110 0.11020 0.03400
H 	H 	0.17760 0.33160 0.16970 0.06500
H 	H 	0.17650 0.60890 0.88980 0.03700
H 	H 	0.17760 0.66840 0.83030 0.06700
H 	H 	0.82350 0.60890 0.11020 0.03900
H 	H 	0.82240 0.66840 0.16970 0.07000
H 	H 	0.82350 0.39110 0.88980 0.04000
H 	H 	0.82240 0.33160 0.83030 0.07000
H 	H 	0.11020 0.17650 0.39110 0.03300
H 	H 	0.16970 0.17760 0.33160 0.06500
H 	H 	0.88980 0.17650 0.60890 0.03900
H 	H 	0.83030 0.17760 0.66840 0.06700
H 	H 	0.11020 0.82350 0.60890 0.03700
H 	H 	0.16970 0.82240 0.66840 0.06900
H 	H 	0.88980 0.82350 0.39110 0.04200
H 	H 	0.83030 0.82240 0.33160 0.07000
H 	H 	0.61020 0.89110 0.32350 0.04200
H 	H 	0.66970 0.83160 0.32240 0.06900
H 	H 	0.38980 0.10890 0.32350 0.03600
H 	H 	0.33030 0.16840 0.32240 0.06700
H 	H 	0.61020 0.10890 0.67650 0.03600
H 	H 	0.66970 0.16840 0.67760 0.06800
H 	H 	0.38980 0.89110 0.67650 0.04200
H 	H 	0.33030 0.83160 0.67760 0.06800
H 	H 	0.89110 0.67650 0.38980 0.04200
H 	H 	0.83160 0.67760 0.33030 0.06900
H 	H 	0.10890 0.67650 0.61020 0.03600
H 	H 	0.16840 0.67760 0.66970 0.06800
H 	H 	0.10890 0.32350 0.38980 0.03600
H 	H 	0.16840 0.32240 0.33030 0.06700
H 	H 	0.89110 0.32350 0.61020 0.04200
H 	H 	0.83160 0.32240 0.66970 0.06900
H 	H 	0.67650 0.61020 0.10890 0.03700
H 	H 	0.67760 0.66970 0.16840 0.06800
H 	H 	0.67650 0.38980 0.89110 0.03900
H 	H 	0.67760 0.33030 0.83160 0.06800
H 	H 	0.32350 0.61020 0.89110 0.03800
H 	H 	0.32240 0.66970 0.83160 0.06800
H 	H 	0.32350 0.38980 0.10890 0.03600
H 	H 	0.32240 0.33030 0.16840 0.06800
H 	H 	0.68960 0.75000 0.81040 0.07000
H 	H 	0.31040 0.25000 0.81040 0.06800
H 	H 	0.31040 0.75000 0.18960 0.06800
H 	H 	0.68960 0.25000 0.18960 0.06800
H 	H 	0.81040 0.68960 0.75000 0.07100
H 	H 	0.81040 0.31040 0.25000 0.07000
H 	H 	0.18960 0.31040 0.75000 0.06700
H 	H 	0.18960 0.68960 0.25000 0.06700
H 	H 	0.75000 0.81040 0.68960 0.07100
H 	H 	0.25000 0.81040 0.31040 0.07000
H 	H 	0.75000 0.18960 0.31040 0.06800
H 	H 	0.25000 0.18960 0.68960 0.06700
H 	H 	0.31040 0.25000 0.18960 0.06700
H 	H 	0.68960 0.75000 0.18960 0.06900
H 	H 	0.68960 0.25000 0.81040 0.06900
H 	H 	0.31040 0.75000 0.81040 0.07000
H 	H 	0.18960 0.31040 0.25000 0.06700
H 	H 	0.18960 0.68960 0.75000 0.06800
H 	H 	0.81040 0.68960 0.25000 0.07100
H 	H 	0.81040 0.31040 0.75000 0.07000
H 	H 	0.25000 0.18960 0.31040 0.06700
H 	H 	0.75000 0.18960 0.68960 0.06800
H 	H 	0.25000 0.81040 0.68960 0.07000
H 	H 	0.75000 0.81040 0.31040 0.07100
H 	H 	0.50000 0.92810 0.88000 0.00900
H 	H 	0.50000 0.92840 0.96490 0.07500
H 	H 	0.50000 0.07190 0.88000 0.01200
H 	H 	0.50000 0.07160 0.96490 0.07800
H 	H 	0.50000 0.92810 0.12000 0.01500
H 	H 	0.50000 0.92840 0.03510 0.05400
H 	H 	0.50000 0.07190 0.12000 0.01900
H 	H 	0.50000 0.07160 0.03510 0.05700
H 	H 	0.88000 0.50000 0.92810 0.00500
H 	H 	0.96490 0.50000 0.92840 0.09500
H 	H 	0.88000 0.50000 0.07190 0.00600
H 	H 	0.96490 0.50000 0.07160 0.09600
H 	H 	0.12000 0.50000 0.92810 0.02600
H 	H 	0.03510 0.50000 0.92840 0.03900
H 	H 	0.12000 0.50000 0.07190 0.02800
H 	H 	0.03510 0.50000 0.07160 0.04000
H 	H 	0.92810 0.88000 0.50000 0.00400
H 	H 	0.92840 0.96490 0.50000 0.09000
H 	H 	0.07190 0.88000 0.50000 0.00800
H 	H 	0.07160 0.96490 0.50000 0.09300
H 	H 	0.92810 0.12000 0.50000 0.02000
H 	H 	0.92840 0.03510 0.50000 0.03900
H 	H 	0.07190 0.12000 0.50000 0.02300
H 	H 	0.07160 0.03510 0.50000 0.04200
H 	H 	0.42810 0.00000 0.62000 0.00900
H 	H 	0.42840 0.00000 0.53510 0.06700
H 	H 	0.57190 0.00000 0.62000 0.01000
H 	H 	0.57160 0.00000 0.53510 0.06800
H 	H 	0.42810 0.00000 0.38000 0.00900
H 	H 	0.42840 0.00000 0.46490 0.06700
H 	H 	0.57190 0.00000 0.38000 0.01000
H 	H 	0.57160 0.00000 0.46490 0.06800
H 	H 	-0.00000 0.38000 0.57190 0.00900
H 	H 	0.00000 0.46490 0.57160 0.06700
H 	H 	-0.00000 0.38000 0.42810 0.00900
H 	H 	-0.00000 0.46490 0.42840 0.06700
H 	H 	0.00000 0.62000 0.57190 0.01000
H 	H 	-0.00000 0.53510 0.57160 0.06700
H 	H 	0.00000 0.62000 0.42810 0.00900
H 	H 	-0.00000 0.53510 0.42840 0.06700
H 	H 	0.38000 0.42810 -0.00000 -0.01700
H 	H 	0.46490 0.42840 -0.00000 0.09300
H 	H 	0.38000 0.57190 1.00000 0.00200
H 	H 	0.46490 0.57160 -0.00000 0.09000
H 	H 	0.62000 0.42810 -0.00000 0.01100
H 	H 	0.53510 0.42840 -0.00000 0.06900
H 	H 	0.62000 0.57190 -0.00000 0.01100
H 	H 	0.53510 0.57160 -0.00000 0.06900
C 	C 	0.62094 0.87826 0.79410 0.02900
C 	C 	0.65661 0.84260 0.79319 -0.09900
C 	C 	0.37906 0.12174 0.79410 0.03000
C 	C 	0.34339 0.15740 0.79319 -0.10400
C 	C 	0.37906 0.87826 0.20590 0.02800
C 	C 	0.34339 0.84260 0.20681 -0.10000
C 	C 	0.62094 0.12174 0.20590 0.03000
C 	C 	0.65661 0.15740 0.20681 -0.10400
C 	C 	0.79410 0.62094 0.87826 0.03100
C 	C 	0.79319 0.65661 0.84260 -0.10000
C 	C 	0.79410 0.37906 0.12174 0.03100
C 	C 	0.79319 0.34339 0.15740 -0.10300
C 	C 	0.20590 0.37906 0.87826 0.03000
C 	C 	0.20681 0.34339 0.84260 -0.10200
C 	C 	0.20590 0.62094 0.12174 0.03100
C 	C 	0.20681 0.65661 0.15740 -0.10400
C 	C 	0.87826 0.79410 0.62094 0.02900
C 	C 	0.84260 0.79319 0.65661 -0.09800
C 	C 	0.12174 0.79410 0.37906 0.03100
C 	C 	0.15740 0.79319 0.34339 -0.10400
C 	C 	0.87826 0.20590 0.37906 0.02800
C 	C 	0.84260 0.20681 0.34339 -0.10000
C 	C 	0.12174 0.20590 0.62094 0.03000
C 	C 	0.15740 0.20681 0.65661 -0.10500
C 	C 	0.37826 0.12094 0.70590 0.03000
C 	C 	0.34260 0.15661 0.70681 -0.10400
C 	C 	0.62174 0.87906 0.70590 0.02900
C 	C 	0.65740 0.84339 0.70681 -0.09800
C 	C 	0.37826 0.87906 0.29410 0.02800
C 	C 	0.34260 0.84339 0.29319 -0.09900
C 	C 	0.62174 0.12094 0.29410 0.03000
C 	C 	0.65740 0.15661 0.29319 -0.10400
C 	C 	0.12094 0.29410 0.62174 0.03000
C 	C 	0.15661 0.29319 0.65740 -0.10400
C 	C 	0.87906 0.29410 0.37826 0.02800
C 	C 	0.84339 0.29319 0.34260 -0.09900
C 	C 	0.87906 0.70590 0.62174 0.02800
C 	C 	0.84339 0.70681 0.65740 -0.09800
C 	C 	0.12094 0.70590 0.37826 0.03000
C 	C 	0.15661 0.70681 0.34260 -0.10400
C 	C 	0.29410 0.37826 0.87906 0.03000
C 	C 	0.29319 0.34260 0.84339 -0.10200
C 	C 	0.29410 0.62174 0.12094 0.03100
C 	C 	0.29319 0.65740 0.15661 -0.10400
C 	C 	0.70590 0.37826 0.12094 0.03100
C 	C 	0.70681 0.34260 0.15661 -0.10300
C 	C 	0.70590 0.62174 0.87906 0.03000
C 	C 	0.70681 0.65740 0.84339 -0.10100
C 	C 	0.37906 0.12174 0.20590 0.03000
C 	C 	0.34339 0.15740 0.20681 -0.10500
C 	C 	0.62094 0.87826 0.20590 0.02900
C 	C 	0.65661 0.84260 0.20681 -0.09900
C 	C 	0.62094 0.12174 0.79410 0.03100
C 	C 	0.65661 0.15740 0.79319 -0.10400
C 	C 	0.37906 0.87826 0.79410 0.02900
C 	C 	0.34339 0.84260 0.79319 -0.09900
C 	C 	0.20590 0.37906 0.12174 0.03000
C 	C 	0.20681 0.34339 0.15740 -0.10400
C 	C 	0.20590 0.62094 0.87826 0.03000
C 	C 	0.20681 0.65661 0.84260 -0.10200
C 	C 	0.79410 0.62094 0.12174 0.03100
C 	C 	0.79319 0.65661 0.15740 -0.10200
C 	C 	0.79410 0.37906 0.87826 0.03000
C 	C 	0.79319 0.34339 0.84260 -0.10100
C 	C 	0.12174 0.20590 0.37906 0.03000
C 	C 	0.15740 0.20681 0.34339 -0.10500
C 	C 	0.87826 0.20590 0.62094 0.02800
C 	C 	0.84260 0.20681 0.65661 -0.10000
C 	C 	0.12174 0.79410 0.62094 0.03100
C 	C 	0.15740 0.79319 0.65661 -0.10300
C 	C 	0.87826 0.79410 0.37906 0.02900
C 	C 	0.84260 0.79319 0.34339 -0.09900
C 	C 	0.62174 0.87906 0.29410 0.02800
C 	C 	0.65740 0.84339 0.29319 -0.09900
C 	C 	0.37826 0.12094 0.29410 0.03000
C 	C 	0.34260 0.15661 0.29319 -0.10400
C 	C 	0.62174 0.12094 0.70590 0.03100
C 	C 	0.65740 0.15661 0.70681 -0.10400
C 	C 	0.37826 0.87906 0.70590 0.02800
C 	C 	0.34260 0.84339 0.70681 -0.09900
C 	C 	0.87906 0.70590 0.37826 0.02800
C 	C 	0.84339 0.70681 0.34260 -0.09800
C 	C 	0.12094 0.70590 0.62174 0.03100
C 	C 	0.15661 0.70681 0.65740 -0.10400
C 	C 	0.12094 0.29410 0.37826 0.03000
C 	C 	0.15661 0.29319 0.34260 -0.10400
C 	C 	0.87906 0.29410 0.62174 0.02800
C 	C 	0.84339 0.29319 0.65740 -0.09900
C 	C 	0.70590 0.62174 0.12094 0.03100
C 	C 	0.70681 0.65740 0.15661 -0.10300
C 	C 	0.70590 0.37826 0.87906 0.03000
C 	C 	0.70681 0.34260 0.84339 -0.10100
C 	C 	0.29410 0.62174 0.87906 0.03100
C 	C 	0.29319 0.65740 0.84339 -0.10200
C 	C 	0.29410 0.37826 0.12094 0.03100
C 	C 	0.29319 0.34260 0.15661 -0.10400
C 	C 	0.50000 0.00000 0.97510 0.06000
C 	C 	0.50000 0.00000 0.02490 -0.00600
C 	C 	0.97510 0.50000 -0.00000 0.12700
C 	C 	0.02490 0.50000 -0.00000 -0.04800
C 	C 	-0.00000 0.97510 0.50000 0.10700
C 	C 	-0.00000 0.02490 0.50000 -0.05300
C 	C 	0.50000 0.00000 0.52490 0.04900
C 	C 	0.50000 0.00000 0.47510 0.04900
C 	C 	-0.00000 0.47510 0.50000 0.04900
C 	C 	0.00000 0.52490 0.50000 0.04900
C 	C 	0.47510 0.50000 1.00000 0.11500
C 	C 	0.52490 0.50000 1.00000 0.05100
C 	C 	0.56478 0.93522 0.75000 0.35100
C 	C 	0.60335 0.89665 0.75000 -0.09100
C 	C 	0.67507 0.82493 0.75000 0.04200
C 	C 	0.71386 0.78614 0.75000 0.04400
C 	C 	0.43522 0.06478 0.75000 0.35300
C 	C 	0.39665 0.10335 0.75000 -0.10000
C 	C 	0.32493 0.17507 0.75000 0.04300
C 	C 	0.28614 0.21386 0.75000 0.03900
C 	C 	0.43522 0.93522 0.25000 0.35100
C 	C 	0.39665 0.89665 0.25000 -0.09200
C 	C 	0.32493 0.82493 0.25000 0.04200
C 	C 	0.28614 0.78614 0.25000 0.04100
C 	C 	0.56478 0.06478 0.25000 0.35300
C 	C 	0.60335 0.10335 0.25000 -0.10000
C 	C 	0.67507 0.17507 0.25000 0.04300
C 	C 	0.71386 0.21386 0.25000 0.04000
C 	C 	0.75000 0.56478 0.93522 0.35300
C 	C 	0.75000 0.60335 0.89665 -0.09400
C 	C 	0.75000 0.67507 0.82493 0.04300
C 	C 	0.75000 0.71386 0.78614 0.04300
C 	C 	0.75000 0.43522 0.06478 0.35300
C 	C 	0.75000 0.39665 0.10335 -0.09800
C 	C 	0.75000 0.32493 0.17507 0.04300
C 	C 	0.75000 0.28614 0.21386 0.04000
C 	C 	0.25000 0.43522 0.93522 0.35300
C 	C 	0.25000 0.39665 0.89665 -0.09600
C 	C 	0.25000 0.32493 0.82493 0.04300
C 	C 	0.25000 0.28614 0.78614 0.04000
C 	C 	0.25000 0.56478 0.06478 0.35500
C 	C 	0.25000 0.60335 0.10335 -0.10000
C 	C 	0.25000 0.67507 0.17507 0.04300
C 	C 	0.25000 0.71386 0.21386 0.04000
C 	C 	0.93522 0.75000 0.56478 0.35100
C 	C 	0.89665 0.75000 0.60335 -0.09100
C 	C 	0.82493 0.75000 0.67507 0.04300
C 	C 	0.78614 0.75000 0.71386 0.04400
C 	C 	0.06478 0.75000 0.43522 0.35300
C 	C 	0.10335 0.75000 0.39665 -0.09900
C 	C 	0.17507 0.75000 0.32493 0.04300
C 	C 	0.21386 0.75000 0.28614 0.04000
C 	C 	0.93522 0.25000 0.43522 0.35100
C 	C 	0.89665 0.25000 0.39665 -0.09200
C 	C 	0.82493 0.25000 0.32493 0.04200
C 	C 	0.78614 0.25000 0.28614 0.04100
C 	C 	0.06478 0.25000 0.56478 0.35300
C 	C 	0.10335 0.25000 0.60335 -0.10000
C 	C 	0.17507 0.25000 0.67507 0.04300
C 	C 	0.21386 0.25000 0.71386 0.03900
C 	C 	0.43522 0.06478 0.25000 0.35300
C 	C 	0.39665 0.10335 0.25000 -0.10000
C 	C 	0.32493 0.17507 0.25000 0.04300
C 	C 	0.28614 0.21386 0.25000 0.03800
C 	C 	0.56478 0.93522 0.25000 0.35100
C 	C 	0.60335 0.89665 0.25000 -0.09200
C 	C 	0.67507 0.82493 0.25000 0.04200
C 	C 	0.71386 0.78614 0.25000 0.04300
C 	C 	0.56478 0.06478 0.75000 0.35300
C 	C 	0.60335 0.10335 0.75000 -0.09900
C 	C 	0.67507 0.17507 0.75000 0.04300
C 	C 	0.71386 0.21386 0.75000 0.04100
C 	C 	0.43522 0.93522 0.75000 0.35100
C 	C 	0.39665 0.89665 0.75000 -0.09100
C 	C 	0.32493 0.82493 0.75000 0.04200
C 	C 	0.28614 0.78614 0.75000 0.04200
C 	C 	0.25000 0.43522 0.06478 0.35400
C 	C 	0.25000 0.39665 0.10335 -0.10000
C 	C 	0.25000 0.32493 0.17507 0.04300
C 	C 	0.25000 0.28614 0.21386 0.03800
C 	C 	0.25000 0.56478 0.93522 0.35400
C 	C 	0.25000 0.60335 0.89665 -0.09600
C 	C 	0.25000 0.67507 0.82493 0.04300
C 	C 	0.25000 0.71386 0.78614 0.04100
C 	C 	0.75000 0.56478 0.06478 0.35400
C 	C 	0.75000 0.60335 0.10335 -0.09800
C 	C 	0.75000 0.67507 0.17507 0.04400
C 	C 	0.75000 0.71386 0.21386 0.04200
C 	C 	0.75000 0.43522 0.93522 0.35300
C 	C 	0.75000 0.39665 0.89665 -0.09500
C 	C 	0.75000 0.32493 0.82493 0.04300
C 	C 	0.75000 0.28614 0.78614 0.04200
C 	C 	0.06478 0.25000 0.43522 0.35300
C 	C 	0.10335 0.25000 0.39665 -0.10000
C 	C 	0.17507 0.25000 0.32493 0.04300
C 	C 	0.21386 0.25000 0.28614 0.03800
C 	C 	0.93522 0.25000 0.56478 0.35100
C 	C 	0.89665 0.25000 0.60335 -0.09200
C 	C 	0.82493 0.25000 0.67507 0.04200
C 	C 	0.78614 0.25000 0.71386 0.04200
C 	C 	0.06478 0.75000 0.56478 0.35300
C 	C 	0.10335 0.75000 0.60335 -0.09900
C 	C 	0.17507 0.75000 0.67507 0.04400
C 	C 	0.21386 0.75000 0.71386 0.04100
C 	C 	0.93522 0.75000 0.43522 0.35100
C 	C 	0.89665 0.75000 0.39665 -0.09100
C 	C 	0.82493 0.75000 0.32493 0.04200
C 	C 	0.78614 0.75000 0.28614 0.04300
C 	C 	0.71349 0.75000 0.78651 -0.10800
C 	C 	0.28651 0.25000 0.78651 -0.10700
C 	C 	0.28651 0.75000 0.21349 -0.10700
C 	C 	0.71349 0.25000 0.21349 -0.10700
C 	C 	0.78651 0.71349 0.75000 -0.10800
C 	C 	0.78651 0.28651 0.25000 -0.10700
C 	C 	0.21349 0.28651 0.75000 -0.10700
C 	C 	0.21349 0.71349 0.25000 -0.10700
C 	C 	0.75000 0.78651 0.71349 -0.10800
C 	C 	0.25000 0.78651 0.28651 -0.10700
C 	C 	0.75000 0.21349 0.28651 -0.10700
C 	C 	0.25000 0.21349 0.71349 -0.10700
C 	C 	0.28651 0.25000 0.21349 -0.10700
C 	C 	0.71349 0.75000 0.21349 -0.10700
C 	C 	0.71349 0.25000 0.78651 -0.10700
C 	C 	0.28651 0.75000 0.78651 -0.10700
C 	C 	0.21349 0.28651 0.25000 -0.10700
C 	C 	0.21349 0.71349 0.75000 -0.10700
C 	C 	0.78651 0.71349 0.25000 -0.10700
C 	C 	0.78651 0.28651 0.75000 -0.10700
C 	C 	0.25000 0.21349 0.28651 -0.10700
C 	C 	0.75000 0.21349 0.71349 -0.10700
C 	C 	0.25000 0.78651 0.71349 -0.10700
C 	C 	0.75000 0.78651 0.28651 -0.10800
C 	C 	0.50000 0.95710 0.89730 0.09800
C 	C 	0.50000 0.95790 0.94840 -0.10500
C 	C 	0.50000 0.04290 0.89730 0.07500
C 	C 	0.50000 0.04210 0.94840 -0.13000
C 	C 	0.50000 0.95710 0.10270 0.07500
C 	C 	0.50000 0.95790 0.05160 -0.06700
C 	C 	0.50000 0.04290 0.10270 0.05200
C 	C 	0.50000 0.04210 0.05160 -0.09200
C 	C 	0.89730 0.50000 0.95710 0.10700
C 	C 	0.94840 0.50000 0.95790 -0.15300
C 	C 	0.89730 0.50000 0.04290 0.09700
C 	C 	0.94840 0.50000 0.04210 -0.16300
C 	C 	0.10270 0.50000 0.95710 0.03300
C 	C 	0.05160 0.50000 0.95790 -0.04700
C 	C 	0.10270 0.50000 0.04290 0.02400
C 	C 	0.05160 0.50000 0.04210 -0.05700
C 	C 	0.95710 0.89730 0.50000 0.11400
C 	C 	0.95790 0.94840 0.50000 -0.13200
C 	C 	0.04290 0.89730 0.50000 0.09100
C 	C 	0.04210 0.94840 0.50000 -0.15700
C 	C 	0.95710 0.10270 0.50000 0.05900
C 	C 	0.95790 0.05160 0.50000 -0.04100
C 	C 	0.04290 0.10270 0.50000 0.03600
C 	C 	0.04210 0.05160 0.50000 -0.06600
C 	C 	0.45710 0.00000 0.60270 0.06800
C 	C 	0.45790 0.00000 0.55160 -0.11800
C 	C 	0.54290 0.00000 0.60270 0.06800
C 	C 	0.54210 0.00000 0.55160 -0.11800
C 	C 	0.45710 0.00000 0.39730 0.06800
C 	C 	0.45790 0.00000 0.44840 -0.11800
C 	C 	0.54290 0.00000 0.39730 0.06800
C 	C 	0.54210 0.00000 0.44840 -0.11800
C 	C 	-0.00000 0.39730 0.54290 0.06800
C 	C 	-0.00000 0.44840 0.54210 -0.11800
C 	C 	-0.00000 0.39730 0.45710 0.06800
C 	C 	-0.00000 0.44840 0.45790 -0.11800
C 	C 	-0.00000 0.60270 0.54290 0.06700
C 	C 	-0.00000 0.55160 0.54210 -0.11800
C 	C 	-0.00000 0.60270 0.45710 0.06700
C 	C 	-0.00000 0.55160 0.45790 -0.11800
C 	C 	0.39730 0.45710 1.00000 0.13900
C 	C 	0.44840 0.45790 -0.00000 -0.19300
C 	C 	0.39730 0.54290 1.00000 0.11700
C 	C 	0.44840 0.54210 -0.00000 -0.18300
C 	C 	0.60270 0.45710 -0.00000 0.07200
C 	C 	0.55160 0.45790 -0.00000 -0.12400
C 	C 	0.60270 0.54290 -0.00000 0.07200
C 	C 	0.55160 0.54210 -0.00000 -0.12400
N 	N 	0.50000 0.00000 0.87520 -0.20500
N 	N 	0.50000 0.00000 0.12480 -0.19700
N 	N 	0.87520 0.50000 -0.00000 -0.20300
N 	N 	0.12480 0.50000 1.00000 -0.16700
N 	N 	-0.00000 0.87520 0.50000 -0.21000
N 	N 	-0.00000 0.12480 0.50000 -0.19200
N 	N 	0.50000 0.00000 0.62480 -0.19000
N 	N 	0.50000 0.00000 0.37520 -0.19000
N 	N 	0.00000 0.37520 0.50000 -0.19000
N 	N 	-0.00000 0.62480 0.50000 -0.19000
N 	N 	0.37520 0.50000 1.00000 -0.20300
N 	N 	0.62480 0.50000 -0.00000 -0.18900
O 	O 	0.55031 0.94974 0.79086 -0.38600
O 	O 	0.44969 0.05026 0.79086 -0.40200
O 	O 	0.44969 0.94974 0.20914 -0.38700
O 	O 	0.55031 0.05026 0.20914 -0.40300
O 	O 	0.79086 0.55031 0.94974 -0.39200
O 	O 	0.79086 0.44969 0.05026 -0.39900
O 	O 	0.20914 0.44969 0.94974 -0.39600
O 	O 	0.20914 0.55031 0.05026 -0.40300
O 	O 	0.94974 0.79086 0.55031 -0.38500
O 	O 	0.05026 0.79086 0.44969 -0.40200
O 	O 	0.94974 0.20914 0.44969 -0.38700
O 	O 	0.05026 0.20914 0.55031 -0.40300
O 	O 	0.44974 0.05031 0.70914 -0.40200
O 	O 	0.55026 0.94969 0.70914 -0.38400
O 	O 	0.44974 0.94969 0.29086 -0.38400
O 	O 	0.55026 0.05031 0.29086 -0.40200
O 	O 	0.05031 0.29086 0.55026 -0.40200
O 	O 	0.94969 0.29086 0.44974 -0.38400
O 	O 	0.94969 0.70914 0.55026 -0.38400
O 	O 	0.05031 0.70914 0.44974 -0.40200
O 	O 	0.29086 0.44974 0.94969 -0.39400
O 	O 	0.29086 0.55026 0.05031 -0.40200
O 	O 	0.70914 0.44974 0.05031 -0.40000
O 	O 	0.70914 0.55026 0.94969 -0.39200
O 	O 	0.44969 0.05026 0.20914 -0.40300
O 	O 	0.55031 0.94974 0.20914 -0.38600
O 	O 	0.55031 0.05026 0.79086 -0.40200
O 	O 	0.44969 0.94974 0.79086 -0.38600
O 	O 	0.20914 0.44969 0.05026 -0.40300
O 	O 	0.20914 0.55031 0.94974 -0.39600
O 	O 	0.79086 0.55031 0.05026 -0.39900
O 	O 	0.79086 0.44969 0.94974 -0.39200
O 	O 	0.05026 0.20914 0.44969 -0.40300
O 	O 	0.94974 0.20914 0.55031 -0.38700
O 	O 	0.05026 0.79086 0.55031 -0.40200
O 	O 	0.94974 0.79086 0.44969 -0.38500
O 	O 	0.55026 0.94969 0.29086 -0.38400
O 	O 	0.44974 0.05031 0.29086 -0.40200
O 	O 	0.55026 0.05031 0.70914 -0.40200
O 	O 	0.44974 0.94969 0.70914 -0.38400
O 	O 	0.94969 0.70914 0.44974 -0.38400
O 	O 	0.05031 0.70914 0.55026 -0.40200
O 	O 	0.05031 0.29086 0.44974 -0.40200
O 	O 	0.94969 0.29086 0.55026 -0.38400
O 	O 	0.70914 0.55026 0.05031 -0.39900
O 	O 	0.70914 0.44974 0.94969 -0.39200
O 	O 	0.29086 0.55026 0.94969 -0.39400
O 	O 	0.29086 0.44974 0.05031 -0.40100
