data_crystal

_cell_length_a 14.54900
_cell_length_b 14.54900
_cell_length_c 17.76700
_cell_angle_alpha 90.00000
_cell_angle_beta  90.00000
_cell_angle_gamma 120.00000

_symmetry_space_group_name_	'P 1'
_symmetry_space_group_name_H-M	'P 1'

loop_
_symmetry_equiv_pos_as_xyz
  x,y,z

loop_
_atom_site_label
_atom_site_type_symbol
_atom_site_fract_x
_atom_site_fract_y
_atom_site_fract_z
_atom_site_charge
C 	C 	0.43237 0.40312 0.96662 0.19800
O 	O 	0.65002 0.50236 0.83489 -0.70500
O 	O 	0.35710 0.30690 0.94300 -0.35400
H 	H 	0.37760 0.29090 0.90350 0.23200
C 	C 	0.59688 0.02925 0.96662 0.19800
O 	O 	0.49764 0.14766 0.83489 -0.70500
O 	O 	0.69310 0.05020 0.94300 -0.35400
H 	H 	0.70910 0.08670 0.90350 0.23200
C 	C 	0.97075 0.56763 0.96662 0.19800
O 	O 	0.85234 0.34998 0.83489 -0.70500
O 	O 	0.94980 0.64290 0.94300 -0.35400
H 	H 	0.91330 0.62240 0.90350 0.23200
C 	C 	0.56763 0.59688 0.46662 0.19900
O 	O 	0.34998 0.49764 0.33489 -0.70500
O 	O 	0.64290 0.69310 0.44300 -0.35400
H 	H 	0.62240 0.70910 0.40350 0.23200
C 	C 	0.40312 0.97075 0.46662 0.19900
O 	O 	0.50236 0.85234 0.33489 -0.70500
O 	O 	0.30690 0.94980 0.44300 -0.35400
H 	H 	0.29090 0.91330 0.40350 0.23200
C 	C 	0.02925 0.43237 0.46662 0.19900
O 	O 	0.14766 0.65002 0.33489 -0.70500
O 	O 	0.05020 0.35710 0.44300 -0.35400
H 	H 	0.08670 0.37760 0.40350 0.23200
C 	C 	0.40312 0.43237 0.03338 0.19800
O 	O 	0.50236 0.65002 0.16511 -0.70500
O 	O 	0.30690 0.35710 0.05700 -0.35400
H 	H 	0.29090 0.37760 0.09650 0.23200
C 	C 	0.02925 0.59688 0.03338 0.19800
O 	O 	0.14766 0.49764 0.16511 -0.70500
O 	O 	0.05020 0.69310 0.05700 -0.35400
H 	H 	0.08670 0.70910 0.09650 0.23200
C 	C 	0.56763 0.97075 0.03338 0.19800
O 	O 	0.34998 0.85234 0.16511 -0.70500
O 	O 	0.64290 0.94980 0.05700 -0.35400
H 	H 	0.62240 0.91330 0.09650 0.23200
C 	C 	0.59688 0.56763 0.53338 0.19900
O 	O 	0.49764 0.34998 0.66511 -0.70500
O 	O 	0.69310 0.64290 0.55700 -0.35400
H 	H 	0.70910 0.62240 0.59650 0.23200
C 	C 	0.97075 0.40312 0.53338 0.19900
O 	O 	0.85234 0.50236 0.66511 -0.70500
O 	O 	0.94980 0.30690 0.55700 -0.35400
H 	H 	0.91330 0.29090 0.59650 0.23200
C 	C 	0.43237 0.02925 0.53338 0.19900
O 	O 	0.65002 0.14766 0.66511 -0.70500
O 	O 	0.35710 0.05020 0.55700 -0.35400
H 	H 	0.37760 0.08670 0.59650 0.23200
C 	C 	0.56763 0.59688 0.03338 0.19800
O 	O 	0.34998 0.49764 0.16511 -0.70500
O 	O 	0.64290 0.69310 0.05700 -0.35400
H 	H 	0.62240 0.70910 0.09650 0.23200
C 	C 	0.40312 0.97075 0.03338 0.19800
O 	O 	0.50236 0.85234 0.16511 -0.70500
O 	O 	0.30690 0.94980 0.05700 -0.35400
H 	H 	0.29090 0.91330 0.09650 0.23200
C 	C 	0.02925 0.43237 0.03338 0.19800
O 	O 	0.14766 0.65002 0.16511 -0.70500
O 	O 	0.05020 0.35710 0.05700 -0.35400
H 	H 	0.08670 0.37760 0.09650 0.23200
C 	C 	0.43237 0.40312 0.53338 0.19900
O 	O 	0.65002 0.50236 0.66511 -0.70500
O 	O 	0.35710 0.30690 0.55700 -0.35400
H 	H 	0.37760 0.29090 0.59650 0.23200
C 	C 	0.59688 0.02925 0.53338 0.19900
O 	O 	0.49764 0.14766 0.66511 -0.70500
O 	O 	0.69310 0.05020 0.55700 -0.35400
H 	H 	0.70910 0.08670 0.59650 0.23200
C 	C 	0.97075 0.56763 0.53338 0.19900
O 	O 	0.85234 0.34998 0.66511 -0.70500
O 	O 	0.94980 0.64290 0.55700 -0.35400
H 	H 	0.91330 0.62240 0.59650 0.23200
C 	C 	0.59688 0.56763 0.96662 0.19800
O 	O 	0.49764 0.34998 0.83489 -0.70500
O 	O 	0.69310 0.64290 0.94300 -0.35400
H 	H 	0.70910 0.62240 0.90350 0.23200
C 	C 	0.97075 0.40312 0.96662 0.19800
O 	O 	0.85234 0.50236 0.83489 -0.70500
O 	O 	0.94980 0.30690 0.94300 -0.35400
H 	H 	0.91330 0.29090 0.90350 0.23200
C 	C 	0.43237 0.02925 0.96662 0.19800
O 	O 	0.65002 0.14766 0.83489 -0.70500
O 	O 	0.35710 0.05020 0.94300 -0.35400
H 	H 	0.37760 0.08670 0.90350 0.23200
C 	C 	0.40312 0.43237 0.46662 0.19900
O 	O 	0.50236 0.65002 0.33489 -0.70500
O 	O 	0.30690 0.35710 0.44300 -0.35400
H 	H 	0.29090 0.37760 0.40350 0.23200
C 	C 	0.02925 0.59688 0.46662 0.19900
O 	O 	0.14766 0.49764 0.33489 -0.70500
O 	O 	0.05020 0.69310 0.44300 -0.35400
H 	H 	0.08670 0.70910 0.40350 0.23200
C 	C 	0.56763 0.97075 0.46662 0.19900
O 	O 	0.34998 0.85234 0.33489 -0.70500
O 	O 	0.64290 0.94980 0.44300 -0.35400
H 	H 	0.62240 0.91330 0.40350 0.23200
C 	C 	0.56113 0.43887 0.86292 0.58300
C 	C 	0.52964 0.47036 0.93334 -0.28900
C 	C 	0.56113 0.12226 0.86292 0.58300
C 	C 	0.52964 0.05928 0.93334 -0.28900
C 	C 	0.87774 0.43887 0.86292 0.58300
C 	C 	0.94072 0.47036 0.93334 -0.28900
C 	C 	0.43887 0.56113 0.36292 0.58300
C 	C 	0.47036 0.52964 0.43334 -0.28900
C 	C 	0.43887 0.87774 0.36292 0.58300
C 	C 	0.47036 0.94072 0.43334 -0.28900
C 	C 	0.12226 0.56113 0.36292 0.58300
C 	C 	0.05928 0.52964 0.43334 -0.28900
C 	C 	0.43887 0.56113 0.13708 0.58300
C 	C 	0.47036 0.52964 0.06666 -0.28900
C 	C 	0.12226 0.56113 0.13708 0.58300
C 	C 	0.05928 0.52964 0.06666 -0.28900
C 	C 	0.43887 0.87774 0.13708 0.58300
C 	C 	0.47036 0.94072 0.06666 -0.28900
C 	C 	0.56113 0.43887 0.63708 0.58300
C 	C 	0.52964 0.47036 0.56666 -0.28900
C 	C 	0.87774 0.43887 0.63708 0.58300
C 	C 	0.94072 0.47036 0.56666 -0.28900
C 	C 	0.56113 0.12226 0.63708 0.58300
C 	C 	0.52964 0.05928 0.56666 -0.28900
O 	O 	0.66667 0.33333 0.75000 -1.20300
O 	O 	0.33333 0.66667 0.25000 -1.20300
Sc	Sc	0.74682 0.49365 0.75000 2.32700
Sc	Sc	0.50635 0.25318 0.75000 2.32700
Sc	Sc	0.74682 0.25318 0.75000 2.32700
Sc	Sc	0.25318 0.50635 0.25000 2.32700
Sc	Sc	0.49365 0.74682 0.25000 2.32700
Sc	Sc	0.25318 0.74682 0.25000 2.32700
