data_crystal

_cell_length_a 43.02800
_cell_length_b 13.00000
_cell_length_c 22.07700
_cell_angle_alpha 90.00000
_cell_angle_beta  114.96400
_cell_angle_gamma 90.00000

_symmetry_space_group_name_	'P 1'
_symmetry_space_group_name_H-M	'P 1'

loop_
_symmetry_equiv_pos_as_xyz
  x,y,z

loop_
_atom_site_label
_atom_site_type_symbol
_atom_site_fract_x
_atom_site_fract_y
_atom_site_fract_z
_atom_site_charge
Zn	Zn	0.12344 0.79984 0.12723 1.23700
Zn	Zn	0.10920 0.57952 0.19075 1.20900
Zn	Zn	0.15731 0.77456 0.29280 1.21900
Br	Br	0.09800 0.26180 0.92910 -0.18500
Br	Br	0.16412 0.61670 0.87120 -0.19200
Br	Br	0.98625 0.97340 0.83280 -0.12500
Br	Br	0.03640 0.85000 0.93190 -0.17000
C 	C 	0.31260 0.09320 0.24540 0.47500
Br	Br	0.18880 0.45910 0.12750 -0.16700
Br	Br	0.31830 0.60370 0.39100 -0.16700
C 	C 	0.28090 0.03860 0.23500 -0.06500
C 	C 	0.25190 0.05820 0.17640 0.09200
C 	C 	0.22130 0.00800 0.16430 0.07900
C 	C 	0.21960 0.93900 0.21070 -0.08300
C 	C 	0.24870 0.91900 0.26930 0.04200
C 	C 	0.27930 0.96900 0.28140 0.08900
Br	Br	0.20958 0.63530 0.13460 -0.17100
C 	C 	0.22210 0.55400 0.26210 -0.06600
C 	C 	0.24220 0.50800 0.32290 -0.02800
C 	C 	0.27370 0.46500 0.33350 0.02300
C 	C 	0.28510 0.46900 0.28330 -0.02800
C 	C 	0.26500 0.51500 0.22250 0.02400
C 	C 	0.23350 0.55700 0.21180 0.09500
C 	C 	0.12370 0.44900 0.89660 -0.16800
C 	C 	0.13530 0.55140 0.91060 0.12300
C 	C 	0.12610 0.39440 0.83830 0.50000
C 	C 	0.11660 0.61150 0.05680 0.44500
C 	C 	0.11970 0.55040 0.00290 -0.12500
C 	C 	0.11180 0.45910 0.99160 0.06600
C 	C 	0.11570 0.40810 0.94110 0.13900
C 	C 	0.13420 0.59380 0.96630 0.07600
C 	C 	0.06270 0.90520 0.09630 0.40600
C 	C 	0.02290 0.95070 0.97690 0.12100
C 	C 	0.03000 0.95690 0.04540 -0.11500
C 	C 	0.99240 0.99530 0.93110 0.09200
C 	C 	0.18320 0.90650 0.20480 0.48700
O 	O 	0.11711 0.73760 0.20200 -0.65000
O 	O 	0.10370 0.56890 0.09090 -0.46800
O 	O 	0.12810 0.70150 0.06530 -0.44800
O 	O 	0.10930 0.43280 0.78170 -0.48400
O 	O 	0.14380 0.31790 0.84980 -0.48600
O 	O 	0.30980 0.17630 0.21670 -0.48100
O 	O 	0.33930 0.04850 0.27860 -0.46200
O 	O 	0.17980 0.88100 0.25390 -0.50400
O 	O 	0.16440 0.88150 0.14800 -0.47100
O 	O 	0.08310 0.87980 0.07470 -0.44500
O 	O 	0.06630 0.88600 0.15320 -0.28700
Zn	Zn	0.62344 0.29984 0.12723 1.23700
Zn	Zn	0.60920 0.07952 0.19075 1.20900
Zn	Zn	0.65731 0.27456 0.29280 1.21900
Br	Br	0.59800 0.76180 0.92910 -0.18600
Br	Br	0.66412 0.11670 0.87120 -0.19100
Br	Br	0.48625 0.47340 0.83280 -0.12500
Br	Br	0.53640 0.35000 0.93190 -0.17000
C 	C 	0.81260 0.59320 0.24540 0.47500
Br	Br	0.68880 0.95910 0.12750 -0.16700
Br	Br	0.81830 0.10370 0.39100 -0.16700
C 	C 	0.78090 0.53860 0.23500 -0.06500
C 	C 	0.75190 0.55820 0.17640 0.09300
C 	C 	0.72130 0.50800 0.16430 0.07800
C 	C 	0.71960 0.43900 0.21070 -0.08300
C 	C 	0.74870 0.41900 0.26930 0.04200
C 	C 	0.77930 0.46900 0.28140 0.08900
Br	Br	0.70958 0.13530 0.13460 -0.17100
C 	C 	0.72210 0.05400 0.26210 -0.06600
C 	C 	0.74220 0.00800 0.32290 -0.02700
C 	C 	0.77370 0.96500 0.33350 0.02300
C 	C 	0.78510 0.96900 0.28330 -0.02800
C 	C 	0.76500 0.01500 0.22250 0.02400
C 	C 	0.73350 0.05700 0.21180 0.09500
C 	C 	0.62370 0.94900 0.89660 -0.16800
C 	C 	0.63530 0.05140 0.91060 0.12400
C 	C 	0.62610 0.89440 0.83830 0.50000
C 	C 	0.61660 0.11150 0.05680 0.44500
C 	C 	0.61970 0.05040 0.00290 -0.12500
C 	C 	0.61180 0.95910 0.99160 0.06600
C 	C 	0.61570 0.90810 0.94110 0.13900
C 	C 	0.63420 0.09380 0.96630 0.07600
C 	C 	0.56270 0.40520 0.09630 0.40600
C 	C 	0.52290 0.45070 0.97690 0.12100
C 	C 	0.53000 0.45690 0.04540 -0.11500
C 	C 	0.49240 0.49530 0.93110 0.09300
C 	C 	0.68320 0.40650 0.20480 0.48700
O 	O 	0.61711 0.23760 0.20200 -0.65000
O 	O 	0.60370 0.06890 0.09090 -0.46800
O 	O 	0.62810 0.20150 0.06530 -0.44800
O 	O 	0.60930 0.93280 0.78170 -0.48400
O 	O 	0.64380 0.81790 0.84980 -0.48700
O 	O 	0.80980 0.67630 0.21670 -0.48100
O 	O 	0.83930 0.54850 0.27860 -0.46200
O 	O 	0.67980 0.38100 0.25390 -0.50400
O 	O 	0.66440 0.38150 0.14800 -0.47100
O 	O 	0.58310 0.37980 0.07470 -0.44500
O 	O 	0.56630 0.38600 0.15320 -0.28700
Zn	Zn	0.87656 0.79984 0.37277 1.23700
Zn	Zn	0.89080 0.57952 0.30925 1.20900
Zn	Zn	0.84269 0.77456 0.20720 1.21900
Br	Br	0.90200 0.26180 0.57090 -0.18500
Br	Br	0.83588 0.61670 0.62880 -0.19200
Br	Br	0.01375 0.97340 0.66720 -0.12500
Br	Br	0.96360 0.85000 0.56810 -0.17000
C 	C 	0.68740 0.09320 0.25460 0.47500
Br	Br	0.81120 0.45910 0.37250 -0.16700
Br	Br	0.68170 0.60370 0.10900 -0.16700
C 	C 	0.71910 0.03860 0.26500 -0.06500
C 	C 	0.74810 0.05820 0.32360 0.09300
C 	C 	0.77870 0.00800 0.33570 0.07900
C 	C 	0.78040 0.93900 0.28930 -0.08300
C 	C 	0.75130 0.91900 0.23070 0.04200
C 	C 	0.72070 0.96900 0.21860 0.08900
Br	Br	0.79042 0.63530 0.36540 -0.17100
C 	C 	0.77790 0.55400 0.23790 -0.06600
C 	C 	0.75780 0.50800 0.17710 -0.02800
C 	C 	0.72630 0.46500 0.16650 0.02300
C 	C 	0.71490 0.46900 0.21670 -0.02800
C 	C 	0.73500 0.51500 0.27750 0.02400
C 	C 	0.76650 0.55700 0.28820 0.09500
C 	C 	0.87630 0.44900 0.60340 -0.16800
C 	C 	0.86470 0.55140 0.58940 0.12300
C 	C 	0.87390 0.39440 0.66170 0.50000
C 	C 	0.88340 0.61150 0.44320 0.44500
C 	C 	0.88030 0.55040 0.49710 -0.12500
C 	C 	0.88820 0.45910 0.50840 0.06600
C 	C 	0.88430 0.40810 0.55890 0.13900
C 	C 	0.86580 0.59380 0.53370 0.07600
C 	C 	0.93730 0.90520 0.40370 0.40600
C 	C 	0.97710 0.95070 0.52310 0.12100
C 	C 	0.97000 0.95690 0.45460 -0.11500
C 	C 	0.00760 0.99530 0.56890 0.09300
C 	C 	0.81680 0.90650 0.29520 0.48700
O 	O 	0.88289 0.73760 0.29800 -0.65000
O 	O 	0.89630 0.56890 0.40910 -0.46800
O 	O 	0.87190 0.70150 0.43470 -0.44800
O 	O 	0.89070 0.43280 0.71830 -0.48400
O 	O 	0.85620 0.31790 0.65020 -0.48600
O 	O 	0.69020 0.17630 0.28330 -0.48100
O 	O 	0.66070 0.04850 0.22140 -0.46200
O 	O 	0.82020 0.88100 0.24610 -0.50400
O 	O 	0.83560 0.88150 0.35200 -0.47100
O 	O 	0.91690 0.87980 0.42530 -0.44500
O 	O 	0.93370 0.88600 0.34680 -0.28700
Zn	Zn	0.37656 0.29984 0.37277 1.23700
Zn	Zn	0.39080 0.07952 0.30925 1.20900
Zn	Zn	0.34269 0.27456 0.20720 1.21900
Br	Br	0.40200 0.76180 0.57090 -0.18500
Br	Br	0.33588 0.11670 0.62880 -0.19100
Br	Br	0.51375 0.47340 0.66720 -0.12500
Br	Br	0.46360 0.35000 0.56810 -0.17000
C 	C 	0.18740 0.59320 0.25460 0.47500
Br	Br	0.31120 0.95910 0.37250 -0.16700
Br	Br	0.18170 0.10370 0.10900 -0.16700
C 	C 	0.21910 0.53860 0.26500 -0.06500
C 	C 	0.24810 0.55820 0.32360 0.09300
C 	C 	0.27870 0.50800 0.33570 0.07800
C 	C 	0.28040 0.43900 0.28930 -0.08300
C 	C 	0.25130 0.41900 0.23070 0.04200
C 	C 	0.22070 0.46900 0.21860 0.08900
Br	Br	0.29042 0.13530 0.36540 -0.17100
C 	C 	0.27790 0.05400 0.23790 -0.06600
C 	C 	0.25780 0.00800 0.17710 -0.02700
C 	C 	0.22630 0.96500 0.16650 0.02300
C 	C 	0.21490 0.96900 0.21670 -0.02800
C 	C 	0.23500 0.01500 0.27750 0.02400
C 	C 	0.26650 0.05700 0.28820 0.09500
C 	C 	0.37630 0.94900 0.60340 -0.16800
C 	C 	0.36470 0.05140 0.58940 0.12300
C 	C 	0.37390 0.89440 0.66170 0.50000
C 	C 	0.38340 0.11150 0.44320 0.44500
C 	C 	0.38030 0.05040 0.49710 -0.12500
C 	C 	0.38820 0.95910 0.50840 0.06600
C 	C 	0.38430 0.90810 0.55890 0.13900
C 	C 	0.36580 0.09380 0.53370 0.07600
C 	C 	0.43730 0.40520 0.40370 0.40600
C 	C 	0.47710 0.45070 0.52310 0.12100
C 	C 	0.47000 0.45690 0.45460 -0.11500
C 	C 	0.50760 0.49530 0.56890 0.09300
C 	C 	0.31680 0.40650 0.29520 0.48700
O 	O 	0.38289 0.23760 0.29800 -0.65000
O 	O 	0.39630 0.06890 0.40910 -0.46700
O 	O 	0.37190 0.20150 0.43470 -0.44800
O 	O 	0.39070 0.93280 0.71830 -0.48400
O 	O 	0.35620 0.81790 0.65020 -0.48600
O 	O 	0.19020 0.67630 0.28330 -0.48100
O 	O 	0.16070 0.54850 0.22140 -0.46200
O 	O 	0.32020 0.38100 0.24610 -0.50400
O 	O 	0.33560 0.38150 0.35200 -0.47100
O 	O 	0.41690 0.37980 0.42530 -0.44500
O 	O 	0.43370 0.38600 0.34680 -0.28700
Zn	Zn	0.87656 0.20016 0.87277 1.23700
Zn	Zn	0.89080 0.42048 0.80925 1.20900
Zn	Zn	0.84269 0.22544 0.70720 1.21900
Br	Br	0.90200 0.73820 0.07090 -0.18500
Br	Br	0.83588 0.38330 0.12880 -0.19200
Br	Br	0.01375 0.02660 0.16720 -0.12500
Br	Br	0.96360 0.15000 0.06810 -0.17000
C 	C 	0.68740 0.90680 0.75460 0.47500
Br	Br	0.81120 0.54090 0.87250 -0.16700
Br	Br	0.68170 0.39630 0.60900 -0.16700
C 	C 	0.71910 0.96140 0.76500 -0.06500
C 	C 	0.74810 0.94180 0.82360 0.09200
C 	C 	0.77870 0.99200 0.83570 0.07900
C 	C 	0.78040 0.06100 0.78930 -0.08300
C 	C 	0.75130 0.08100 0.73070 0.04200
C 	C 	0.72070 0.03100 0.71860 0.08900
Br	Br	0.79042 0.36470 0.86540 -0.17100
C 	C 	0.77790 0.44600 0.73790 -0.06600
C 	C 	0.75780 0.49200 0.67710 -0.02800
C 	C 	0.72630 0.53500 0.66650 0.02300
C 	C 	0.71490 0.53100 0.71670 -0.02800
C 	C 	0.73500 0.48500 0.77750 0.02400
C 	C 	0.76650 0.44300 0.78820 0.09500
C 	C 	0.87630 0.55100 0.10340 -0.16800
C 	C 	0.86470 0.44860 0.08940 0.12300
C 	C 	0.87390 0.60560 0.16170 0.50000
C 	C 	0.88340 0.38850 0.94320 0.44500
C 	C 	0.88030 0.44960 0.99710 -0.12500
C 	C 	0.88820 0.54090 0.00840 0.06600
C 	C 	0.88430 0.59190 0.05890 0.13900
C 	C 	0.86580 0.40620 0.03370 0.07600
C 	C 	0.93730 0.09480 0.90370 0.40600
C 	C 	0.97710 0.04930 0.02310 0.12100
C 	C 	0.97000 0.04310 0.95460 -0.11500
C 	C 	0.00760 0.00470 0.06890 0.09200
C 	C 	0.81680 0.09350 0.79520 0.48700
O 	O 	0.88289 0.26240 0.79800 -0.65000
O 	O 	0.89630 0.43110 0.90910 -0.46800
O 	O 	0.87190 0.29850 0.93470 -0.44800
O 	O 	0.89070 0.56720 0.21830 -0.48400
O 	O 	0.85620 0.68210 0.15020 -0.48600
O 	O 	0.69020 0.82370 0.78330 -0.48100
O 	O 	0.66070 0.95150 0.72140 -0.46200
O 	O 	0.82020 0.11900 0.74610 -0.50400
O 	O 	0.83560 0.11850 0.85200 -0.47100
O 	O 	0.91690 0.12020 0.92530 -0.44500
O 	O 	0.93370 0.11400 0.84680 -0.28700
Zn	Zn	0.37656 0.70016 0.87277 1.23700
Zn	Zn	0.39080 0.92048 0.80925 1.20900
Zn	Zn	0.34269 0.72544 0.70720 1.21900
Br	Br	0.40200 0.23820 0.07090 -0.18600
Br	Br	0.33588 0.88330 0.12880 -0.19100
Br	Br	0.51375 0.52660 0.16720 -0.12500
Br	Br	0.46360 0.65000 0.06810 -0.17000
C 	C 	0.18740 0.40680 0.75460 0.47500
Br	Br	0.31120 0.04090 0.87250 -0.16700
Br	Br	0.18170 0.89630 0.60900 -0.16700
C 	C 	0.21910 0.46140 0.76500 -0.06500
C 	C 	0.24810 0.44180 0.82360 0.09300
C 	C 	0.27870 0.49200 0.83570 0.07800
C 	C 	0.28040 0.56100 0.78930 -0.08300
C 	C 	0.25130 0.58100 0.73070 0.04200
C 	C 	0.22070 0.53100 0.71860 0.08900
Br	Br	0.29042 0.86470 0.86540 -0.17100
C 	C 	0.27790 0.94600 0.73790 -0.06600
C 	C 	0.25780 0.99200 0.67710 -0.02700
C 	C 	0.22630 0.03500 0.66650 0.02300
C 	C 	0.21490 0.03100 0.71670 -0.02800
C 	C 	0.23500 0.98500 0.77750 0.02400
C 	C 	0.26650 0.94300 0.78820 0.09500
C 	C 	0.37630 0.05100 0.10340 -0.16800
C 	C 	0.36470 0.94860 0.08940 0.12400
C 	C 	0.37390 0.10560 0.16170 0.50000
C 	C 	0.38340 0.88850 0.94320 0.44500
C 	C 	0.38030 0.94960 0.99710 -0.12500
C 	C 	0.38820 0.04090 0.00840 0.06600
C 	C 	0.38430 0.09190 0.05890 0.13900
C 	C 	0.36580 0.90620 0.03370 0.07600
C 	C 	0.43730 0.59480 0.90370 0.40600
C 	C 	0.47710 0.54930 0.02310 0.12100
C 	C 	0.47000 0.54310 0.95460 -0.11500
C 	C 	0.50760 0.50470 0.06890 0.09300
C 	C 	0.31680 0.59350 0.79520 0.48700
O 	O 	0.38289 0.76240 0.79800 -0.65000
O 	O 	0.39630 0.93110 0.90910 -0.46800
O 	O 	0.37190 0.79850 0.93470 -0.44800
O 	O 	0.39070 0.06720 0.21830 -0.48400
O 	O 	0.35620 0.18210 0.15020 -0.48700
O 	O 	0.19020 0.32370 0.78330 -0.48100
O 	O 	0.16070 0.45150 0.72140 -0.46200
O 	O 	0.32020 0.61900 0.74610 -0.50400
O 	O 	0.33560 0.61850 0.85200 -0.47100
O 	O 	0.41690 0.62020 0.92530 -0.44500
O 	O 	0.43370 0.61400 0.84680 -0.28700
Zn	Zn	0.12344 0.20016 0.62723 1.23700
Zn	Zn	0.10920 0.42048 0.69075 1.20900
Zn	Zn	0.15731 0.22544 0.79280 1.21900
Br	Br	0.09800 0.73820 0.42910 -0.18500
Br	Br	0.16412 0.38330 0.37120 -0.19200
Br	Br	0.98625 0.02660 0.33280 -0.12500
Br	Br	0.03640 0.15000 0.43190 -0.17000
C 	C 	0.31260 0.90680 0.74540 0.47500
Br	Br	0.18880 0.54090 0.62750 -0.16700
Br	Br	0.31830 0.39630 0.89100 -0.16700
C 	C 	0.28090 0.96140 0.73500 -0.06500
C 	C 	0.25190 0.94180 0.67640 0.09300
C 	C 	0.22130 0.99200 0.66430 0.07900
C 	C 	0.21960 0.06100 0.71070 -0.08300
C 	C 	0.24870 0.08100 0.76930 0.04200
C 	C 	0.27930 0.03100 0.78140 0.08900
Br	Br	0.20958 0.36470 0.63460 -0.17100
C 	C 	0.22210 0.44600 0.76210 -0.06600
C 	C 	0.24220 0.49200 0.82290 -0.02800
C 	C 	0.27370 0.53500 0.83350 0.02300
C 	C 	0.28510 0.53100 0.78330 -0.02800
C 	C 	0.26500 0.48500 0.72250 0.02400
C 	C 	0.23350 0.44300 0.71180 0.09500
C 	C 	0.12370 0.55100 0.39660 -0.16800
C 	C 	0.13530 0.44860 0.41060 0.12300
C 	C 	0.12610 0.60560 0.33830 0.50000
C 	C 	0.11660 0.38850 0.55680 0.44500
C 	C 	0.11970 0.44960 0.50290 -0.12500
C 	C 	0.11180 0.54090 0.49160 0.06600
C 	C 	0.11570 0.59190 0.44110 0.13900
C 	C 	0.13420 0.40620 0.46630 0.07600
C 	C 	0.06270 0.09480 0.59630 0.40600
C 	C 	0.02290 0.04930 0.47690 0.12100
C 	C 	0.03000 0.04310 0.54540 -0.11500
C 	C 	0.99240 0.00470 0.43110 0.09300
C 	C 	0.18320 0.09350 0.70480 0.48700
O 	O 	0.11711 0.26240 0.70200 -0.65000
O 	O 	0.10370 0.43110 0.59090 -0.46800
O 	O 	0.12810 0.29850 0.56530 -0.44800
O 	O 	0.10930 0.56720 0.28170 -0.48400
O 	O 	0.14380 0.68210 0.34980 -0.48600
O 	O 	0.30980 0.82370 0.71670 -0.48100
O 	O 	0.33930 0.95150 0.77860 -0.46200
O 	O 	0.17980 0.11900 0.75390 -0.50400
O 	O 	0.16440 0.11850 0.64800 -0.47100
O 	O 	0.08310 0.12020 0.57470 -0.44500
O 	O 	0.06630 0.11400 0.65320 -0.28700
Zn	Zn	0.62344 0.70016 0.62723 1.23700
Zn	Zn	0.60920 0.92048 0.69075 1.20900
Zn	Zn	0.65731 0.72544 0.79280 1.21900
Br	Br	0.59800 0.23820 0.42910 -0.18500
Br	Br	0.66412 0.88330 0.37120 -0.19100
Br	Br	0.48625 0.52660 0.33280 -0.12500
Br	Br	0.53640 0.65000 0.43190 -0.17000
C 	C 	0.81260 0.40680 0.74540 0.47500
Br	Br	0.68880 0.04090 0.62750 -0.16700
Br	Br	0.81830 0.89630 0.89100 -0.16700
C 	C 	0.78090 0.46140 0.73500 -0.06500
C 	C 	0.75190 0.44180 0.67640 0.09300
C 	C 	0.72130 0.49200 0.66430 0.07800
C 	C 	0.71960 0.56100 0.71070 -0.08300
C 	C 	0.74870 0.58100 0.76930 0.04200
C 	C 	0.77930 0.53100 0.78140 0.08900
Br	Br	0.70958 0.86470 0.63460 -0.17100
C 	C 	0.72210 0.94600 0.76210 -0.06600
C 	C 	0.74220 0.99200 0.82290 -0.02700
C 	C 	0.77370 0.03500 0.83350 0.02300
C 	C 	0.78510 0.03100 0.78330 -0.02800
C 	C 	0.76500 0.98500 0.72250 0.02400
C 	C 	0.73350 0.94300 0.71180 0.09500
C 	C 	0.62370 0.05100 0.39660 -0.16800
C 	C 	0.63530 0.94860 0.41060 0.12300
C 	C 	0.62610 0.10560 0.33830 0.50000
C 	C 	0.61660 0.88850 0.55680 0.44500
C 	C 	0.61970 0.94960 0.50290 -0.12500
C 	C 	0.61180 0.04090 0.49160 0.06600
C 	C 	0.61570 0.09190 0.44110 0.13900
C 	C 	0.63420 0.90620 0.46630 0.07600
C 	C 	0.56270 0.59480 0.59630 0.40600
C 	C 	0.52290 0.54930 0.47690 0.12100
C 	C 	0.53000 0.54310 0.54540 -0.11500
C 	C 	0.49240 0.50470 0.43110 0.09300
C 	C 	0.68320 0.59350 0.70480 0.48700
O 	O 	0.61711 0.76240 0.70200 -0.65000
O 	O 	0.60370 0.93110 0.59090 -0.46700
O 	O 	0.62810 0.79850 0.56530 -0.44800
O 	O 	0.60930 0.06720 0.28170 -0.48400
O 	O 	0.64380 0.18210 0.34980 -0.48600
O 	O 	0.80980 0.32370 0.71670 -0.48100
O 	O 	0.83930 0.45150 0.77860 -0.46200
O 	O 	0.67980 0.61900 0.75390 -0.50400
O 	O 	0.66440 0.61850 0.64800 -0.47100
O 	O 	0.58310 0.62020 0.57470 -0.44500
O 	O 	0.56630 0.61400 0.65320 -0.28700
