data_crystal

_cell_length_a 16.47970
_cell_length_b 16.47970
_cell_length_c 8.86350
_cell_angle_alpha 90.00000
_cell_angle_beta  90.00000
_cell_angle_gamma 90.00000

_symmetry_space_group_name_	'P 1'
_symmetry_space_group_name_H-M	'P 1'

loop_
_symmetry_equiv_pos_as_xyz
  x,y,z

loop_
_atom_site_label
_atom_site_type_symbol
_atom_site_fract_x
_atom_site_fract_y
_atom_site_fract_z
_atom_site_charge
Zn	Zn	0.71631 0.41268 0.91888 1.27200
P 	P 	0.66299 0.42876 0.58850 0.64800
P 	P 	0.90889 0.39651 0.92360 0.43700
O 	O 	0.95980 0.40980 0.06160 -0.33500
O 	O 	0.91190 0.46490 0.81220 -0.39800
O 	O 	0.82330 0.37320 0.96770 -0.40400
O 	O 	0.68770 0.36550 0.71600 -0.28200
O 	O 	0.65260 0.37040 0.44990 -0.29300
O 	O 	0.68350 0.48100 0.44660 -0.30400
O 	O 	0.71820 0.53410 0.21580 -0.29500
O 	O 	0.65240 0.66270 0.56370 -0.21900
O 	O 	0.71950 0.48860 0.55970 -0.23800
H 	H 	0.58960 0.45160 0.63070 -0.06600
H 	H 	0.93790 0.33240 0.85060 -0.00100
Zn	Zn	0.28369 0.58732 0.91888 1.27100
P 	P 	0.33701 0.57124 0.58850 0.64800
P 	P 	0.09111 0.60349 0.92360 0.43500
O 	O 	0.04020 0.59020 0.06160 -0.45100
O 	O 	0.08810 0.53510 0.81220 -0.48200
O 	O 	0.17670 0.62680 0.96770 -0.41300
O 	O 	0.31230 0.63450 0.71600 -0.28300
O 	O 	0.34740 0.62960 0.44990 -0.29600
O 	O 	0.31650 0.51900 0.44660 -0.30600
O 	O 	0.28180 0.46590 0.21580 -0.30200
O 	O 	0.34760 0.33730 0.56370 -0.23400
O 	O 	0.28050 0.51140 0.55970 -0.24500
H 	H 	0.41040 0.54840 0.63070 -0.06600
H 	H 	0.06210 0.66760 0.85060 -0.05300
Zn	Zn	0.58732 0.71631 0.91888 1.27200
P 	P 	0.57124 0.66299 0.58850 0.64400
P 	P 	0.60349 0.90889 0.92360 0.43700
O 	O 	0.59020 0.95980 0.06160 -0.32500
O 	O 	0.53510 0.91190 0.81220 -0.39800
O 	O 	0.62680 0.82330 0.96770 -0.39100
O 	O 	0.63450 0.68770 0.71600 -0.27300
O 	O 	0.62960 0.65260 0.44990 -0.29100
O 	O 	0.51900 0.68350 0.44660 -0.30300
O 	O 	0.46590 0.71820 0.21580 -0.29500
O 	O 	0.33730 0.65240 0.56370 -0.22700
O 	O 	0.51140 0.71950 0.55970 -0.23600
H 	H 	0.54840 0.58960 0.63070 -0.06500
H 	H 	0.66760 0.93790 0.85060 0.01800
Zn	Zn	0.41268 0.28369 0.91888 1.27000
P 	P 	0.42876 0.33701 0.58850 0.65100
P 	P 	0.39651 0.09111 0.92360 0.43400
O 	O 	0.40980 0.04020 0.06160 -0.46100
O 	O 	0.46490 0.08810 0.81220 -0.48200
O 	O 	0.37320 0.17670 0.96770 -0.42600
O 	O 	0.36550 0.31230 0.71600 -0.29100
O 	O 	0.37040 0.34740 0.44990 -0.29800
O 	O 	0.48100 0.31650 0.44660 -0.30700
O 	O 	0.53410 0.28180 0.21580 -0.30200
O 	O 	0.66270 0.34760 0.56370 -0.22600
O 	O 	0.48860 0.28050 0.55970 -0.24600
H 	H 	0.45160 0.41040 0.63070 -0.06600
H 	H 	0.33240 0.06210 0.85060 -0.07200
Zn	Zn	0.71631 0.58732 0.41888 1.27900
P 	P 	0.66299 0.57124 0.08850 0.66700
P 	P 	0.90889 0.60349 0.42360 0.47500
O 	O 	0.95980 0.59020 0.56160 -0.36500
O 	O 	0.91190 0.53510 0.31220 -0.38800
O 	O 	0.82330 0.62680 0.46770 -0.37200
O 	O 	0.68770 0.63450 0.21600 -0.27800
O 	O 	0.65260 0.62960 0.94990 -0.34400
O 	O 	0.68350 0.51900 0.94660 -0.34900
O 	O 	0.71820 0.46590 0.71580 -0.29000
O 	O 	0.65240 0.33730 0.06370 -0.17800
O 	O 	0.71950 0.51140 0.05970 -0.19300
H 	H 	0.58960 0.54840 0.13070 -0.05900
H 	H 	0.93790 0.66760 0.35060 0.02500
Zn	Zn	0.28369 0.41268 0.41888 1.27600
P 	P 	0.33701 0.42876 0.08850 0.67500
P 	P 	0.09111 0.39651 0.42360 0.47000
O 	O 	0.04020 0.40980 0.56160 -0.50100
O 	O 	0.08810 0.46490 0.31220 -0.47400
O 	O 	0.17670 0.37320 0.46770 -0.40900
O 	O 	0.31230 0.36550 0.21600 -0.29600
O 	O 	0.34740 0.37040 0.94990 -0.35000
O 	O 	0.31650 0.48100 0.94660 -0.35300
O 	O 	0.28180 0.53410 0.71580 -0.29700
O 	O 	0.34760 0.66270 0.06370 -0.17700
O 	O 	0.28050 0.48860 0.05970 -0.20300
H 	H 	0.41040 0.45160 0.13070 -0.05900
H 	H 	0.06210 0.33240 0.35060 -0.06400
Zn	Zn	0.58732 0.28369 0.41888 1.27700
P 	P 	0.57124 0.33701 0.08850 0.67200
P 	P 	0.60349 0.09111 0.42360 0.47100
O 	O 	0.59020 0.04020 0.56160 -0.49100
O 	O 	0.53510 0.08810 0.31220 -0.47300
O 	O 	0.62680 0.17670 0.46770 -0.39600
O 	O 	0.63450 0.31230 0.21600 -0.28800
O 	O 	0.62960 0.34740 0.94990 -0.34800
O 	O 	0.51900 0.31650 0.94660 -0.35100
O 	O 	0.46590 0.28180 0.71580 -0.29700
O 	O 	0.33730 0.34760 0.06370 -0.18600
O 	O 	0.51140 0.28050 0.05970 -0.20200
H 	H 	0.54840 0.41040 0.13070 -0.05900
H 	H 	0.66760 0.06210 0.35060 -0.04500
Zn	Zn	0.41268 0.71631 0.41888 1.27800
P 	P 	0.42876 0.66299 0.08850 0.67000
P 	P 	0.39651 0.90889 0.42360 0.47400
O 	O 	0.40980 0.95980 0.56160 -0.37500
O 	O 	0.46490 0.91190 0.31220 -0.38900
O 	O 	0.37320 0.82330 0.46770 -0.38600
O 	O 	0.36550 0.68770 0.21600 -0.28700
O 	O 	0.37040 0.65260 0.94990 -0.34500
O 	O 	0.48100 0.68350 0.94660 -0.35100
O 	O 	0.53410 0.71820 0.71580 -0.29000
O 	O 	0.66270 0.65240 0.06370 -0.17000
O 	O 	0.48860 0.71950 0.05970 -0.19400
H 	H 	0.45160 0.58960 0.13070 -0.05900
H 	H 	0.33240 0.93790 0.35060 0.00600
Zn	Zn	0.00000 0.50000 0.17750 1.19600
Zn	Zn	0.50000 0.00000 0.17750 1.19600
Zn	Zn	-0.00000 0.50000 0.67750 1.19200
Zn	Zn	0.50000 0.00000 0.67750 1.19200
