data_crystal

_cell_length_a 16.44100
_cell_length_b 16.53900
_cell_length_c 17.32920
_cell_angle_alpha 118.50300
_cell_angle_beta  118.31900
_cell_angle_gamma 90.00000

_symmetry_space_group_name_	'P 1'
_symmetry_space_group_name_H-M	'P 1'

loop_
_symmetry_equiv_pos_as_xyz
  x,y,z

loop_
_atom_site_label
_atom_site_type_symbol
_atom_site_fract_x
_atom_site_fract_y
_atom_site_fract_z
_atom_site_charge
Na	Na	0.37779 0.68759 0.38558 0.58700
Na	Na	0.49155 0.47465 0.38370 0.58500
Na	Na	0.59720 0.67480 0.38020 0.55800
Na	Na	0.88146 0.48676 0.37372 0.58300
Na	Na	0.00779 0.69799 0.38558 0.58700
Na	Na	0.89215 0.90905 0.38370 0.58300
Na	Na	0.78300 0.70540 0.38020 0.55700
Na	Na	0.49226 0.88696 0.37372 0.58200
Na	Na	0.62221 0.30201 0.61442 0.58600
Na	Na	0.50845 0.09095 0.61630 0.58300
Na	Na	0.40280 0.29460 0.61980 0.55700
Na	Na	0.11854 0.11304 0.62628 0.58200
Na	Na	0.99221 0.31241 0.61442 0.58600
Na	Na	0.10785 0.52535 0.61630 0.58300
Na	Na	0.21700 0.32520 0.61980 0.55700
Na	Na	0.50774 0.51324 0.62628 0.58200
Ni	Ni	0.93034 0.31543 0.24316 1.08900
Ni	Ni	0.31004 0.30493 0.24524 1.08800
Ni	Ni	0.31282 0.92773 0.24316 1.08900
Ni	Ni	0.93520 0.94031 0.24524 1.08500
Ni	Ni	0.06966 0.07227 0.75684 1.08600
Ni	Ni	0.68996 0.05969 0.75476 1.08800
Ni	Ni	0.68718 0.68457 0.75684 1.08900
Ni	Ni	0.06480 0.69507 0.75476 1.08800
H 	H 	0.11440 0.22120 0.24160 -0.03900
H 	H 	0.10000 0.17850 0.00080 -0.03000
H 	H 	0.74900 0.92970 0.86900 -0.03000
H 	H 	0.12720 0.02040 0.24160 -0.04100
H 	H 	0.90080 0.82230 0.00080 -0.03000
H 	H 	0.12000 0.93930 0.86900 -0.02900
H 	H 	0.88560 0.97960 0.75840 -0.04100
H 	H 	0.90000 0.17770 0.99920 -0.02800
H 	H 	0.25100 0.06070 0.13100 -0.03100
H 	H 	0.87280 0.77880 0.75840 -0.03900
H 	H 	0.09920 0.82150 0.99920 -0.02800
H 	H 	0.88000 0.07030 0.13100 -0.02900
C 	C 	0.17880 0.41260 0.27280 -0.03100
C 	C 	0.09560 0.41630 0.27440 -0.03000
C 	C 	0.12140 0.28180 0.25140 0.10600
C 	C 	0.24910 0.47690 0.27900 0.31100
C 	C 	0.03730 0.48420 0.28500 0.29300
C 	C 	0.25220 0.18860 0.95080 -0.01100
C 	C 	0.15620 0.18900 0.00180 0.12200
C 	C 	0.27230 0.16410 0.86740 0.29900
C 	C 	0.60990 0.77300 0.64020 -0.06100
C 	C 	0.61350 0.85640 0.64040 -0.05700
C 	C 	0.70610 0.89340 0.79700 0.12400
C 	C 	0.56200 0.66670 0.56060 0.31700
C 	C 	0.56520 0.87890 0.55760 0.30800
C 	C 	0.30630 0.23530 0.05740 -0.03200
C 	C 	0.41060 0.27530 0.13880 0.32700
C 	C 	0.09400 0.86020 0.27280 -0.03100
C 	C 	0.17880 0.85810 0.27440 -0.02900
C 	C 	0.13000 0.96960 0.25140 0.10900
C 	C 	0.02990 0.80210 0.27900 0.31600
C 	C 	0.24770 0.80080 0.28500 0.29300
C 	C 	0.69860 0.76220 0.95080 -0.00200
C 	C 	0.84560 0.81280 0.00180 0.11400
C 	C 	0.59510 0.70330 0.86740 0.29600
C 	C 	0.03030 0.86720 0.64020 -0.05500
C 	C 	0.02690 0.78400 0.64040 -0.05600
C 	C 	0.09090 0.90360 0.79700 0.12400
C 	C 	0.99860 0.89390 0.56060 0.30700
C 	C 	0.99240 0.67870 0.55760 0.30500
C 	C 	0.75110 0.82210 0.05740 -0.04100
C 	C 	0.72820 0.86350 0.13880 0.33000
C 	C 	0.82120 0.13980 0.72720 -0.03000
C 	C 	0.90440 0.14190 0.72560 -0.03100
C 	C 	0.87860 0.03040 0.74860 0.10900
C 	C 	0.75090 0.19790 0.72100 0.31100
C 	C 	0.96270 0.19920 0.71500 0.29800
C 	C 	0.74780 0.23780 0.04920 -0.00200
C 	C 	0.84380 0.18720 0.99820 0.11500
C 	C 	0.72770 0.29670 0.13260 0.29600
C 	C 	0.39010 0.13280 0.35980 -0.06100
C 	C 	0.38650 0.21600 0.35960 -0.05700
C 	C 	0.29390 0.09640 0.20300 0.12400
C 	C 	0.43800 0.10610 0.43940 0.31700
C 	C 	0.43480 0.32130 0.44240 0.30800
C 	C 	0.69370 0.17790 0.94260 -0.04000
C 	C 	0.58940 0.13650 0.86120 0.33000
C 	C 	0.90600 0.58740 0.72720 -0.03100
C 	C 	0.82120 0.58370 0.72560 -0.03000
C 	C 	0.87000 0.71820 0.74860 0.10600
C 	C 	0.97010 0.52310 0.72100 0.31100
C 	C 	0.75230 0.51580 0.71500 0.29300
C 	C 	0.30140 0.81140 0.04920 -0.00900
C 	C 	0.15440 0.81100 0.99820 0.12100
C 	C 	0.40490 0.83590 0.13260 0.29800
C 	C 	0.96970 0.22700 0.35980 -0.06000
C 	C 	0.97310 0.14360 0.35960 -0.05100
C 	C 	0.90910 0.10660 0.20300 0.12400
C 	C 	0.00140 0.33330 0.43940 0.31300
C 	C 	0.00760 0.12110 0.44240 0.29800
C 	C 	0.24890 0.76470 0.94260 -0.03300
C 	C 	0.27180 0.72470 0.86120 0.32800
N 	N 	0.19550 0.32710 0.25800 -0.23700
N 	N 	0.06030 0.33160 0.25980 -0.23800
N 	N 	0.15730 0.15820 0.91360 -0.23500
N 	N 	0.67040 0.79790 0.74160 -0.23100
N 	N 	0.67480 0.93110 0.74040 -0.23300
N 	N 	0.24220 0.23470 0.08760 -0.23000
N 	N 	0.06250 0.93090 0.25800 -0.23700
N 	N 	0.19950 0.92820 0.25980 -0.23800
N 	N 	0.75630 0.75540 0.91360 -0.23100
N 	N 	0.07120 0.94370 0.74160 -0.23000
N 	N 	0.06560 0.80930 0.74040 -0.23300
N 	N 	0.84540 0.85290 0.08760 -0.22900
N 	N 	0.80450 0.06910 0.74200 -0.23800
N 	N 	0.93970 0.07180 0.74020 -0.23700
N 	N 	0.84270 0.24460 0.08640 -0.23100
N 	N 	0.32960 0.05630 0.25840 -0.23100
N 	N 	0.32520 0.19070 0.25960 -0.23300
N 	N 	0.75780 0.14710 0.91240 -0.22800
N 	N 	0.93750 0.67290 0.74200 -0.23800
N 	N 	0.80050 0.66840 0.74020 -0.23800
N 	N 	0.24370 0.84180 0.08640 -0.23300
N 	N 	0.92880 0.20210 0.25840 -0.23100
N 	N 	0.93440 0.06890 0.25960 -0.23200
N 	N 	0.15460 0.76530 0.91240 -0.22900
O 	O 	0.31519 0.44269 0.26758 -0.42600
O 	O 	0.24100 0.55410 0.29060 -0.29500
O 	O 	0.95590 0.45300 0.26740 -0.41800
O 	O 	0.06840 0.57010 0.31400 -0.27900
O 	O 	0.20370 0.10440 0.77440 -0.41600
O 	O 	0.35350 0.19650 0.89020 -0.18800
O 	O 	0.58290 0.61310 0.59400 -0.47200
O 	O 	0.50570 0.63740 0.46580 -0.43300
O 	O 	0.42870 0.31350 0.23000 -0.41800
O 	O 	0.47140 0.27100 0.11840 -0.20700
O 	O 	0.58859 0.96759 0.59098 -0.46600
O 	O 	0.51020 0.81530 0.46380 -0.43100
O 	O 	0.59390 0.49840 0.32840 -0.27100
O 	O 	0.52160 0.73550 0.25640 -0.25100
O 	O 	0.95239 0.82489 0.26758 -0.43000
O 	O 	0.04960 0.73650 0.29060 -0.29600
O 	O 	0.31150 0.81440 0.26740 -0.41800
O 	O 	0.24560 0.74390 0.31400 -0.27900
O 	O 	0.57070 0.67000 0.77440 -0.41300
O 	O 	0.53670 0.69370 0.89020 -0.18500
O 	O 	0.01110 0.98090 0.59400 -0.46400
O 	O 	0.96010 0.82840 0.46580 -0.43200
O 	O 	0.80130 0.91650 0.23000 -0.42100
O 	O 	0.64700 0.84740 0.11840 -0.21000
O 	O 	0.00239 0.62339 0.59098 -0.46500
O 	O 	0.95360 0.64850 0.46380 -0.43100
O 	O 	0.73450 0.83000 0.32840 -0.27200
O 	O 	0.73480 0.52090 0.25640 -0.25100
O 	O 	0.68481 0.17511 0.73242 -0.42600
O 	O 	0.75900 0.26350 0.70940 -0.29500
O 	O 	0.04410 0.18560 0.73260 -0.42300
O 	O 	0.93160 0.25610 0.68600 -0.28000
O 	O 	0.79630 0.33000 0.22560 -0.41300
O 	O 	0.64650 0.30630 0.10980 -0.18500
O 	O 	0.41710 0.01910 0.40600 -0.47200
O 	O 	0.49430 0.17160 0.53420 -0.43300
O 	O 	0.57130 0.08350 0.77000 -0.42000
O 	O 	0.52860 0.15260 0.88160 -0.21000
O 	O 	0.41141 0.37661 0.40902 -0.46600
O 	O 	0.48980 0.35150 0.53620 -0.43200
O 	O 	0.40610 0.17000 0.67160 -0.27200
O 	O 	0.47840 0.47910 0.74360 -0.25100
O 	O 	0.04761 0.55731 0.73242 -0.42600
O 	O 	0.95040 0.44590 0.70940 -0.29500
O 	O 	0.68850 0.54700 0.73260 -0.41800
O 	O 	0.75440 0.42990 0.68600 -0.27900
O 	O 	0.42930 0.89560 0.22560 -0.41400
O 	O 	0.46330 0.80350 0.10980 -0.18800
O 	O 	0.98890 0.38690 0.40600 -0.47000
O 	O 	0.03990 0.36260 0.53420 -0.43300
O 	O 	0.19870 0.68650 0.77000 -0.41800
O 	O 	0.35300 0.72900 0.88160 -0.20700
O 	O 	0.99761 0.03241 0.40902 -0.45800
O 	O 	0.04640 0.18470 0.53620 -0.43000
O 	O 	0.26550 0.50160 0.67160 -0.27100
O 	O 	0.26520 0.26450 0.74360 -0.25100
