data_crystal

_cell_length_a 7.50740
_cell_length_b 9.20120
_cell_length_c 11.61390
_cell_angle_alpha 100.36800
_cell_angle_beta  104.66500
_cell_angle_gamma 94.69100

_symmetry_space_group_name_	'P 1'
_symmetry_space_group_name_H-M	'P 1'

loop_
_symmetry_equiv_pos_as_xyz
  x,y,z

loop_
_atom_site_label
_atom_site_type_symbol
_atom_site_fract_x
_atom_site_fract_y
_atom_site_fract_z
_atom_site_charge
Cu	Cu	0.83950 0.87880 0.48816 0.91100
Cu	Cu	0.35870 0.92474 0.27853 0.90700
Cu	Cu	0.16050 0.12120 0.51184 0.91100
Cu	Cu	0.64130 0.07526 0.72147 0.90700
P 	P 	0.64680 0.16390 0.47590 0.41200
P 	P 	0.96550 0.91970 0.26090 0.38600
P 	P 	0.35320 0.83610 0.52410 0.41200
P 	P 	0.03450 0.08030 0.73910 0.38600
H 	H 	0.68500 0.44190 0.65200 0.06100
H 	H 	0.76120 0.69120 0.65060 0.01500
H 	H 	0.83490 0.58710 0.32550 0.02300
H 	H 	0.76530 0.33810 0.31940 0.06400
H 	H 	0.91770 0.18380 0.16250 0.06800
H 	H 	0.79010 0.23260 0.97360 0.00300
H 	H 	0.60050 0.81290 0.84030 0.01500
H 	H 	0.72070 0.75380 0.02550 0.06500
H 	H 	0.31500 0.55810 0.34800 0.06100
H 	H 	0.23880 0.30880 0.34940 0.01500
H 	H 	0.16510 0.41290 0.67450 0.02300
H 	H 	0.23470 0.66190 0.68060 0.06400
H 	H 	0.08230 0.81620 0.83750 0.06800
H 	H 	0.20990 0.76740 0.02640 0.00300
H 	H 	0.39950 0.18710 0.15970 0.01500
H 	H 	0.27930 0.24620 0.97450 0.06500
C 	C 	0.71620 0.35900 0.48380 -0.01300
C 	C 	0.71490 0.46860 0.58490 -0.07400
C 	C 	0.75950 0.61910 0.58290 0.05000
C 	C 	0.80400 0.55750 0.39110 0.04000
C 	C 	0.76200 0.40760 0.38750 -0.07200
C 	C 	0.84040 0.96180 0.11710 -0.01000
C 	C 	0.85600 0.10570 0.09830 -0.07800
C 	C 	0.77900 0.13460 0.98390 0.05000
C 	C 	0.66700 0.88810 0.90540 0.06000
C 	C 	0.74000 0.85200 0.01700 -0.09200
C 	C 	0.28380 0.64100 0.51620 -0.01300
C 	C 	0.28510 0.53140 0.41510 -0.07400
C 	C 	0.24050 0.38090 0.41710 0.05000
C 	C 	0.19600 0.44250 0.60890 0.04000
C 	C 	0.23800 0.59240 0.61250 -0.07200
C 	C 	0.15960 0.03820 0.88290 -0.01000
C 	C 	0.14400 0.89430 0.90170 -0.07800
C 	C 	0.22100 0.86540 0.01610 0.05000
C 	C 	0.33300 0.11190 0.09460 0.06000
C 	C 	0.26000 0.14800 0.98300 -0.09200
N 	N 	0.79940 0.66250 0.48840 -0.20600
N 	N 	0.69010 0.02670 0.88780 -0.21300
N 	N 	0.20060 0.33750 0.51160 -0.20600
N 	N 	0.30990 0.97330 0.11220 -0.21300
O 	O 	0.82550 0.09090 0.49370 -0.42900
O 	O 	0.51370 0.11210 0.34930 -0.39000
O 	O 	0.54780 0.15610 0.57600 -0.42000
O 	O 	0.81920 0.84710 0.31090 -0.37300
O 	O 	0.07350 0.06890 0.33390 -0.40800
O 	O 	0.10070 0.81170 0.23120 -0.35200
O 	O 	0.17450 0.90910 0.50630 -0.42900
O 	O 	0.48630 0.88790 0.65070 -0.39000
O 	O 	0.45220 0.84390 0.42400 -0.42000
O 	O 	0.18080 0.15290 0.68910 -0.37300
O 	O 	0.92650 0.93110 0.66610 -0.40800
O 	O 	0.89930 0.18830 0.76880 -0.35200
