data_crystal

_cell_length_a 12.82700
_cell_length_b 6.53660
_cell_length_c 16.09600
_cell_angle_alpha 90.00000
_cell_angle_beta  90.34000
_cell_angle_gamma 90.00000

_symmetry_space_group_name_	'P 1'
_symmetry_space_group_name_H-M	'P 1'

loop_
_symmetry_equiv_pos_as_xyz
  x,y,z

loop_
_atom_site_label
_atom_site_type_symbol
_atom_site_fract_x
_atom_site_fract_y
_atom_site_fract_z
_atom_site_charge
O 	O 	0.08650 0.28520 0.60850 -0.37100
O 	O 	0.24450 0.99010 0.64460 -0.47100
O 	O 	0.18620 0.92180 0.51850 -0.41000
C 	C 	0.26130 0.95090 0.56890 0.35400
O 	O 	0.94390 0.91450 0.17610 -0.38600
O 	O 	0.79790 0.87070 0.10410 -0.34800
C 	C 	0.89730 0.90140 0.10770 0.30300
La	La	0.01706 0.92829 0.60585 1.52100
La	La	0.21595 0.32122 0.73133 1.64900
S 	S 	0.89299 0.91470 0.93437 0.06700
O 	O 	0.10040 0.59940 0.65910 -0.36300
O 	O 	0.09580 0.00960 0.75750 -0.36400
O 	O 	0.70390 0.93170 0.40900 -0.39500
C 	C 	0.06070 0.92080 0.02160 -0.00200
H 	H 	0.10710 0.91770 0.06620 0.04100
O 	O 	0.02750 0.55650 0.53540 -0.39400
C 	C 	0.01230 0.94690 0.79290 0.24300
C 	C 	0.00980 0.92860 0.88430 -0.08300
C 	C 	0.95470 0.91430 0.03030 -0.10600
C 	C 	0.09240 0.93270 0.93780 -0.03600
H 	H 	0.16150 0.94220 0.92110 0.04500
C 	C 	0.53070 0.93030 0.45810 -0.09300
N 	N 	0.07030 0.47940 0.59940 0.06000
O 	O 	0.93250 0.89830 0.75050 -0.38000
C 	C 	0.61030 0.91300 0.38900 0.33500
S 	S 	0.39513 0.92640 0.43427 0.03500
C 	C 	0.36780 0.93890 0.53760 -0.12300
C 	C 	0.46160 0.94160 0.58250 -0.01100
H 	H 	0.46250 0.94790 0.64020 0.03200
O 	O 	0.58070 0.88550 0.31840 -0.37400
C 	C 	0.54940 0.93490 0.53890 -0.01700
H 	H 	0.61580 0.93360 0.56250 0.03000
Cl	Cl	0.38100 0.74200 0.88700 -0.31700
O 	O 	0.91350 0.78520 0.39150 -0.40700
O 	O 	0.75550 0.49010 0.35540 -0.42500
O 	O 	0.81380 0.42180 0.48150 -0.38200
C 	C 	0.73870 0.45090 0.43110 0.36000
O 	O 	0.05610 0.41450 0.82390 -0.34900
O 	O 	0.20210 0.37070 0.89590 -0.31600
C 	C 	0.10270 0.40140 0.89230 0.30600
La	La	0.98294 0.42829 0.39415 1.59000
La	La	0.78405 0.82122 0.26867 1.58800
S 	S 	0.10701 0.41470 0.06563 0.12300
O 	O 	0.89960 0.09940 0.34090 -0.29600
O 	O 	0.90420 0.50960 0.24250 -0.46100
O 	O 	0.29610 0.43170 0.59100 -0.36100
C 	C 	0.93930 0.42080 0.97840 -0.00600
H 	H 	0.89290 0.41770 0.93380 0.07000
O 	O 	0.97250 0.05650 0.46460 -0.32500
C 	C 	0.98770 0.44690 0.20710 0.33900
C 	C 	0.99020 0.42860 0.11570 -0.10300
C 	C 	0.04530 0.41430 0.96970 -0.06800
C 	C 	0.90760 0.43270 0.06220 0.00700
H 	H 	0.83850 0.44220 0.07890 0.05700
C 	C 	0.46930 0.43030 0.54190 -0.07100
N 	N 	0.92970 0.97940 0.40060 -0.01000
O 	O 	0.06750 0.39830 0.24950 -0.37200
C 	C 	0.38970 0.41300 0.61100 0.34400
S 	S 	0.60487 0.42640 0.56573 0.08900
C 	C 	0.63220 0.43890 0.46240 -0.10500
C 	C 	0.53840 0.44160 0.41750 0.00700
H 	H 	0.53750 0.44790 0.35980 0.05100
O 	O 	0.41930 0.38550 0.68160 -0.34200
C 	C 	0.45060 0.43490 0.46110 -0.00400
H 	H 	0.38420 0.43360 0.43750 0.05300
Cl	Cl	0.61900 0.24200 0.11300 -0.25200
