data_crystal

_cell_length_a 8.75440
_cell_length_b 10.00370
_cell_length_c 11.78950
_cell_angle_alpha 74.69500
_cell_angle_beta  69.84800
_cell_angle_gamma 86.18200

_symmetry_space_group_name_	'P 1'
_symmetry_space_group_name_H-M	'P 1'

loop_
_symmetry_equiv_pos_as_xyz
  x,y,z

loop_
_atom_site_label
_atom_site_type_symbol
_atom_site_fract_x
_atom_site_fract_y
_atom_site_fract_z
_atom_site_charge
La	La	0.25466 0.52247 0.48761 1.59900
La	La	0.74534 0.47753 0.51239 1.59900
H 	H 	0.76670 0.70040 0.13640 0.13500
H 	H 	0.79380 0.54060 0.16250 0.14600
H 	H 	0.62650 0.69070 0.00520 0.03000
H 	H 	0.62710 0.52840 0.04130 0.02700
H 	H 	0.91300 0.53960 0.94030 0.02400
H 	H 	0.90460 0.70150 0.89780 0.02700
H 	H 	0.75650 0.68620 0.77480 0.12800
H 	H 	0.73680 0.52540 0.82780 0.14500
H 	H 	0.27560 0.03300 0.39950 0.12000
H 	H 	0.24020 0.01990 0.28120 0.12200
H 	H 	0.02180 0.12180 0.40170 0.03000
H 	H 	0.96460 0.97850 0.39770 0.03100
H 	H 	0.23330 0.29960 0.86360 0.13500
H 	H 	0.20620 0.45940 0.83750 0.14600
H 	H 	0.37350 0.30930 0.99480 0.03000
H 	H 	0.37290 0.47160 0.95870 0.02700
H 	H 	0.08700 0.46040 0.05970 0.02400
H 	H 	0.09540 0.29850 0.10220 0.02700
H 	H 	0.24350 0.31380 0.22520 0.12800
H 	H 	0.26320 0.47460 0.17220 0.14500
H 	H 	0.72440 0.96700 0.60050 0.12000
H 	H 	0.75980 0.98010 0.71880 0.12200
H 	H 	0.97820 0.87820 0.59830 0.03000
H 	H 	0.03540 0.02150 0.60230 0.03100
C 	C 	0.56590 0.58810 0.26100 0.41900
C 	C 	0.71730 0.61190 0.14750 -0.39500
C 	C 	0.69020 0.61120 0.02680 0.00000
C 	C 	0.84510 0.61520 0.91740 0.00300
C 	C 	0.81160 0.60350 0.80310 -0.39100
C 	C 	0.95600 0.58550 0.69450 0.40700
C 	C 	0.23610 0.83220 0.40460 0.38800
C 	C 	0.20750 0.98600 0.37140 -0.33600
C 	C 	0.03200 0.02230 0.42880 -0.01500
C 	C 	0.43410 0.41190 0.73900 0.41900
C 	C 	0.28270 0.38810 0.85250 -0.39500
C 	C 	0.30980 0.38880 0.97320 0.00000
C 	C 	0.15490 0.38480 0.08260 0.00300
C 	C 	0.18840 0.39650 0.19690 -0.39100
C 	C 	0.04400 0.41450 0.30550 0.40700
C 	C 	0.76390 0.16780 0.59540 0.38800
C 	C 	0.79250 0.01400 0.62860 -0.33600
C 	C 	0.96800 0.97770 0.57120 -0.01500
O 	O 	0.42720 0.60740 0.25050 -0.40500
O 	O 	0.57730 0.54610 0.37000 -0.53400
O 	O 	0.09860 0.61780 0.68310 -0.40100
O 	O 	0.93320 0.53570 0.61178 -0.51800
O 	O 	0.13730 0.74980 0.39950 -0.40200
O 	O 	0.35680 0.78550 0.43760 -0.38400
O 	O 	0.57280 0.39260 0.74950 -0.40500
O 	O 	0.42270 0.45390 0.63000 -0.53400
O 	O 	0.90140 0.38220 0.31690 -0.40100
O 	O 	0.06680 0.46430 0.38822 -0.51800
O 	O 	0.86270 0.25020 0.60050 -0.40200
O 	O 	0.64320 0.21450 0.56240 -0.38400
