data_crystal

_cell_length_a 7.37070
_cell_length_b 14.42200
_cell_length_c 17.23400
_cell_angle_alpha 90.00000
_cell_angle_beta  90.00000
_cell_angle_gamma 91.64600

_symmetry_space_group_name_	'P 1'
_symmetry_space_group_name_H-M	'P 1'

loop_
_symmetry_equiv_pos_as_xyz
  x,y,z

loop_
_atom_site_label
_atom_site_type_symbol
_atom_site_fract_x
_atom_site_fract_y
_atom_site_fract_z
_atom_site_charge
Mn	Mn	0.34197 0.55461 0.67030 1.20100
Mn	Mn	0.65803 0.94539 0.17030 1.20000
Mn	Mn	0.65803 0.44539 0.32970 1.20100
Mn	Mn	0.34197 0.05461 0.82970 1.20000
Mo	Mo	0.83254 0.78417 0.79227 1.00900
Mo	Mo	0.16746 0.71583 0.29227 1.01000
Mo	Mo	0.16746 0.21583 0.20773 1.00900
Mo	Mo	0.83254 0.28417 0.70773 1.01000
H 	H 	0.89290 0.99680 0.72060 -0.01400
H 	H 	0.96030 0.08290 0.61040 0.02500
H 	H 	0.97160 0.84250 0.48850 0.03200
H 	H 	0.89730 0.76290 0.60170 -0.01800
H 	H 	0.37090 0.66150 0.83010 -0.03200
H 	H 	0.45450 0.64740 0.95890 0.04100
H 	H 	0.38060 0.39050 0.79910 -0.01500
H 	H 	0.46130 0.36760 0.92750 0.04900
H 	H 	0.10710 0.50320 0.22060 -0.01400
H 	H 	0.03970 0.41710 0.11040 0.02500
H 	H 	0.02840 0.65750 0.98850 0.03600
H 	H 	0.10270 0.73710 0.10170 -0.02000
H 	H 	0.62910 0.83850 0.33010 -0.03200
H 	H 	0.54550 0.85260 0.45890 0.04000
H 	H 	0.61940 0.10950 0.29910 -0.01500
H 	H 	0.53870 0.13240 0.42750 0.04900
H 	H 	0.10710 0.00320 0.27940 -0.01400
H 	H 	0.03970 0.91710 0.38960 0.02500
H 	H 	0.02840 0.15750 0.51150 0.03200
H 	H 	0.10270 0.23710 0.39830 -0.01800
H 	H 	0.62910 0.33850 0.16990 -0.03200
H 	H 	0.54550 0.35260 0.04110 0.04100
H 	H 	0.61940 0.60950 0.20090 -0.01500
H 	H 	0.53870 0.63240 0.07250 0.04900
H 	H 	0.89290 0.49680 0.77940 -0.01400
H 	H 	0.96030 0.58290 0.88960 0.02500
H 	H 	0.97160 0.34250 0.01150 0.03600
H 	H 	0.89730 0.26290 0.89830 -0.02000
H 	H 	0.37090 0.16150 0.66990 -0.03200
H 	H 	0.45450 0.14740 0.54110 0.04000
H 	H 	0.38060 0.89050 0.70090 -0.01500
H 	H 	0.46130 0.86760 0.57250 0.04900
C 	C 	0.90850 0.96507 0.67290 0.03900
C 	C 	0.95000 0.01717 0.60705 -0.09500
C 	C 	0.97650 0.97320 0.53595 0.03400
C 	C 	0.95570 0.87593 0.53543 -0.10600
C 	C 	0.91190 0.82851 0.60364 0.04300
C 	C 	0.01560 0.69080 0.73475 -0.16700
C 	C 	0.66910 0.90233 0.82048 -0.19400
C 	C 	0.62720 0.72169 0.71642 -0.17500
C 	C 	0.06000 0.87226 0.82725 -0.18600
C 	C 	0.39250 0.60132 0.84987 0.03900
C 	C 	0.44160 0.59356 0.92734 -0.12000
C 	C 	0.39760 0.44314 0.83172 0.05200
C 	C 	0.44590 0.42879 0.90867 -0.10800
C 	C 	0.47210 0.50560 0.95872 0.03800
C 	C 	0.09150 0.53493 0.17290 0.04100
C 	C 	0.05000 0.48283 0.10705 -0.09800
C 	C 	0.02350 0.52680 0.03595 0.03600
C 	C 	0.04430 0.62407 0.03543 -0.11300
C 	C 	0.08810 0.67149 0.10364 0.04600
C 	C 	0.98440 0.80920 0.23475 -0.16800
C 	C 	0.33090 0.59767 0.32048 -0.19400
C 	C 	0.37280 0.77831 0.21642 -0.17500
C 	C 	0.94000 0.62774 0.32725 -0.18800
C 	C 	0.60750 0.89868 0.34987 0.03800
C 	C 	0.55840 0.90644 0.42734 -0.12000
C 	C 	0.60240 0.05686 0.33172 0.05400
C 	C 	0.55410 0.07121 0.40867 -0.10800
C 	C 	0.52790 0.99440 0.45872 0.03800
C 	C 	0.09150 0.03493 0.32710 0.03900
C 	C 	0.05000 0.98283 0.39295 -0.09500
C 	C 	0.02350 0.02680 0.46405 0.03400
C 	C 	0.04430 0.12407 0.46457 -0.10600
C 	C 	0.08810 0.17149 0.39636 0.04300
C 	C 	0.98440 0.30920 0.26525 -0.16700
C 	C 	0.33090 0.09767 0.17952 -0.19400
C 	C 	0.37280 0.27831 0.28358 -0.17500
C 	C 	0.94000 0.12774 0.17275 -0.18600
C 	C 	0.60750 0.39868 0.15013 0.03900
C 	C 	0.55840 0.40644 0.07266 -0.12000
C 	C 	0.60240 0.55686 0.16828 0.05200
C 	C 	0.55410 0.57121 0.09133 -0.10800
C 	C 	0.52790 0.49440 0.04128 0.03800
C 	C 	0.90850 0.46507 0.82710 0.04100
C 	C 	0.95000 0.51717 0.89295 -0.09800
C 	C 	0.97650 0.47320 0.96405 0.03600
C 	C 	0.95570 0.37593 0.96457 -0.11300
C 	C 	0.91190 0.32851 0.89636 0.04600
C 	C 	0.01560 0.19080 0.76525 -0.16800
C 	C 	0.66910 0.40233 0.67952 -0.19400
C 	C 	0.62720 0.22169 0.78358 -0.17500
C 	C 	0.06000 0.37226 0.67275 -0.18800
C 	C 	0.39250 0.10132 0.65013 0.03800
C 	C 	0.44160 0.09356 0.57266 -0.12000
C 	C 	0.39760 0.94314 0.66828 0.05400
C 	C 	0.44590 0.92879 0.59133 -0.10800
C 	C 	0.47210 0.00560 0.54128 0.03800
N 	N 	0.88910 0.87156 0.67251 -0.19900
N 	N 	0.10880 0.63934 0.70385 -0.23100
N 	N 	0.17580 0.92506 0.84273 -0.23500
N 	N 	0.58600 0.96528 0.84101 -0.23100
N 	N 	0.52380 0.67971 0.67853 -0.23200
N 	N 	0.37360 0.52857 0.80087 -0.24000
N 	N 	0.11090 0.62844 0.17251 -0.20000
N 	N 	0.89120 0.86066 0.20385 -0.23100
N 	N 	0.82420 0.57494 0.34273 -0.23600
N 	N 	0.41400 0.53472 0.34101 -0.23200
N 	N 	0.47620 0.82029 0.17853 -0.23200
N 	N 	0.62640 0.97143 0.30087 -0.24100
N 	N 	0.11090 0.12844 0.32749 -0.19900
N 	N 	0.89120 0.36066 0.29615 -0.23100
N 	N 	0.82420 0.07494 0.15727 -0.23500
N 	N 	0.41400 0.03472 0.15899 -0.23100
N 	N 	0.47620 0.32029 0.32147 -0.23200
N 	N 	0.62640 0.47143 0.19913 -0.24000
N 	N 	0.88910 0.37156 0.82749 -0.20000
N 	N 	0.10880 0.13934 0.79615 -0.23100
N 	N 	0.17580 0.42506 0.65727 -0.23600
N 	N 	0.58600 0.46528 0.65899 -0.23200
N 	N 	0.52380 0.17971 0.82147 -0.23200
N 	N 	0.37360 0.02857 0.69913 -0.24100
