data_crystal

_cell_length_a 12.29870
_cell_length_b 7.65590
_cell_length_c 14.62690
_cell_angle_alpha 90.00000
_cell_angle_beta  106.54500
_cell_angle_gamma 90.00000

_symmetry_space_group_name_	'P 1'
_symmetry_space_group_name_H-M	'P 1'

loop_
_symmetry_equiv_pos_as_xyz
  x,y,z

loop_
_atom_site_label
_atom_site_type_symbol
_atom_site_fract_x
_atom_site_fract_y
_atom_site_fract_z
_atom_site_charge
N 	N 	0.98930 0.79610 0.10510 -0.19400
N 	N 	0.91190 0.20330 0.39810 -0.17800
C 	C 	0.96230 0.69400 0.15180 -0.12100
C 	C 	0.90370 0.30530 0.33880 -0.12200
N 	N 	0.70310 0.05060 0.08990 -0.08700
C 	C 	0.53400 0.14500 0.13080 0.08200
H 	H 	0.46820 0.21230 0.11470 -0.02700
C 	C 	0.61300 0.13800 0.07300 -0.07500
H 	H 	0.59470 0.20580 0.01800 0.00600
C 	C 	0.56450 0.04570 0.20860 -0.28900
C 	C 	0.34020 0.04370 0.44700 0.32200
H 	H 	0.41310 0.05990 0.48720 -0.09600
C 	C 	0.24950 0.03810 0.48450 0.29500
H 	H 	0.26170 0.06160 0.54900 -0.10700
C 	C 	0.21360 0.96670 0.29480 -0.18500
H 	H 	0.20150 0.92630 0.23270 0.04500
C 	C 	0.12670 0.97240 0.33680 -0.08100
H 	H 	0.05280 0.95660 0.29850 0.04200
C 	C 	0.41560 0.03450 0.30820 -0.26100
C 	C 	0.48780 0.03890 0.26700 -0.57000
C 	C 	0.32370 0.02500 0.35020 0.16300
C 	C 	0.66800 0.96200 0.23040 -0.00600
H 	H 	0.69370 0.90110 0.28770 0.00800
C 	C 	0.73300 0.96640 0.16860 0.03800
H 	H 	0.80150 0.90620 0.18440 -0.01100
N 	N 	0.01070 0.79610 0.89490 -0.23600
N 	N 	0.08810 0.20330 0.60190 -0.23200
C 	C 	0.03770 0.69400 0.84820 -0.21200
C 	C 	0.09630 0.30530 0.66120 -0.21200
N 	N 	0.29690 0.05060 0.91010 -0.10000
C 	C 	0.46600 0.14500 0.86920 0.03500
H 	H 	0.53180 0.21230 0.88530 0.03600
C 	C 	0.38700 0.13800 0.92700 -0.03400
H 	H 	0.40530 0.20580 0.98200 0.05600
C 	C 	0.43550 0.04570 0.79140 -0.19000
C 	C 	0.65980 0.04370 0.55300 0.16600
H 	H 	0.58690 0.05990 0.51280 -0.03900
C 	C 	0.75050 0.03810 0.51550 0.18100
H 	H 	0.73830 0.06160 0.45100 -0.05900
C 	C 	0.78640 0.96670 0.70520 -0.11900
H 	H 	0.79850 0.92630 0.76730 0.06600
C 	C 	0.87330 0.97240 0.66320 -0.03300
H 	H 	0.94720 0.95660 0.70150 0.06700
C 	C 	0.58440 0.03450 0.69180 -0.24600
C 	C 	0.51220 0.03890 0.73300 -0.47000
C 	C 	0.67630 0.02500 0.64980 0.08900
C 	C 	0.33200 0.96200 0.76960 -0.05900
H 	H 	0.30630 0.90110 0.71230 0.02900
C 	C 	0.26700 0.96640 0.83140 0.02000
H 	H 	0.19850 0.90620 0.81560 -0.01300
N 	N 	0.01070 0.20390 0.89490 -0.24500
N 	N 	0.08810 0.79670 0.60190 -0.21900
C 	C 	0.03770 0.30600 0.84820 -0.21400
C 	C 	0.09630 0.69470 0.66120 -0.21000
N 	N 	0.29690 0.94940 0.91010 -0.10400
C 	C 	0.46600 0.85500 0.86920 -0.26400
H 	H 	0.53180 0.78770 0.88530 0.12200
C 	C 	0.38700 0.86200 0.92700 0.11400
H 	H 	0.40530 0.79420 0.98200 0.00600
C 	C 	0.43550 0.95430 0.79140 0.29500
C 	C 	0.65980 0.95630 0.55300 -0.26200
H 	H 	0.58690 0.94010 0.51280 0.11200
C 	C 	0.75050 0.96190 0.51550 -0.13700
H 	H 	0.73830 0.93840 0.45100 0.05700
C 	C 	0.78640 0.03330 0.70520 0.02900
H 	H 	0.79850 0.07370 0.76730 0.02100
C 	C 	0.87330 0.02760 0.66320 0.07200
H 	H 	0.94720 0.04340 0.70150 -0.00600
C 	C 	0.58440 0.96550 0.69180 0.22600
C 	C 	0.51220 0.96110 0.73300 0.41900
C 	C 	0.67630 0.97500 0.64980 -0.05000
C 	C 	0.33200 0.03800 0.76960 -0.11100
H 	H 	0.30630 0.09890 0.71230 0.06700
C 	C 	0.26700 0.03360 0.83140 0.09100
H 	H 	0.19850 0.09380 0.81560 -0.04000
N 	N 	0.98930 0.20390 0.10510 -0.19800
N 	N 	0.91190 0.79670 0.39810 -0.17100
C 	C 	0.96230 0.30600 0.15180 -0.12000
C 	C 	0.90370 0.69470 0.33880 -0.12300
N 	N 	0.70310 0.94940 0.08990 -0.13400
C 	C 	0.53400 0.85500 0.13080 -0.34800
H 	H 	0.46820 0.78770 0.11470 0.10100
C 	C 	0.61300 0.86200 0.07300 0.13800
H 	H 	0.59470 0.79420 0.01800 -0.06400
C 	C 	0.56450 0.95430 0.20860 0.39300
C 	C 	0.34020 0.95630 0.44700 -0.42300
H 	H 	0.41310 0.94010 0.48720 0.17100
C 	C 	0.24950 0.96190 0.48450 -0.24800
H 	H 	0.26170 0.93840 0.54900 0.09400
C 	C 	0.21360 0.03330 0.29480 0.09700
H 	H 	0.20150 0.07370 0.23270 -0.05000
C 	C 	0.12670 0.02760 0.33680 0.11700
H 	H 	0.05280 0.04340 0.29850 -0.11800
C 	C 	0.41560 0.96550 0.30820 0.23200
C 	C 	0.48780 0.96110 0.26700 0.50600
C 	C 	0.32370 0.97500 0.35020 -0.13100
C 	C 	0.66800 0.03800 0.23040 -0.16400
H 	H 	0.69370 0.09890 0.28770 0.08900
C 	C 	0.73300 0.03360 0.16860 0.07000
H 	H 	0.80150 0.09380 0.18440 -0.02400
Mo	Mo	0.90116 0.50000 0.23261 1.03200
N 	N 	0.10200 0.50000 0.32380 -0.26300
C 	C 	0.45020 0.50000 0.47810 -0.05000
C 	C 	0.24880 0.50000 0.47190 -0.17900
H 	H 	0.26790 0.50000 0.53820 0.08200
C 	C 	0.13700 0.50000 0.42020 0.08600
H 	H 	0.08240 0.50000 0.45300 -0.05900
C 	C 	0.18560 0.50000 0.28110 0.10000
H 	H 	0.16430 0.50000 0.21480 -0.07000
C 	C 	0.33360 0.50000 0.42750 0.11300
C 	C 	0.29730 0.50000 0.32660 -0.18400
H 	H 	0.35020 0.50000 0.29210 0.07900
Mo	Mo	0.09884 0.50000 0.76739 1.00500
N 	N 	0.89800 0.50000 0.67620 -0.16400
C 	C 	0.54980 0.50000 0.52190 -0.03500
C 	C 	0.75120 0.50000 0.52810 -0.14500
H 	H 	0.73210 0.50000 0.46180 0.07300
C 	C 	0.86300 0.50000 0.57980 0.07600
H 	H 	0.91760 0.50000 0.54700 0.02900
C 	C 	0.81440 0.50000 0.71890 0.09100
H 	H 	0.83570 0.50000 0.78520 0.01800
C 	C 	0.66640 0.50000 0.57250 0.09400
C 	C 	0.70270 0.50000 0.67340 -0.15100
H 	H 	0.64980 0.50000 0.70790 0.08400
Mn	Mn	-0.00000 0.00000 -0.00000 1.09700
Mn	Mn	0.00000 0.00000 0.50000 1.17700
N 	N 	0.14380 -0.00000 0.43110 -0.26600
N 	N 	0.85620 0.00000 0.56890 -0.21300
