data_crystal

_cell_length_a 15.19020
_cell_length_b 16.81680
_cell_length_c 22.68000
_cell_angle_alpha 90.00000
_cell_angle_beta  97.21400
_cell_angle_gamma 90.00000

_symmetry_space_group_name_	'P 1'
_symmetry_space_group_name_H-M	'P 1'

loop_
_symmetry_equiv_pos_as_xyz
  x,y,z

loop_
_atom_site_label
_atom_site_type_symbol
_atom_site_fract_x
_atom_site_fract_y
_atom_site_fract_z
_atom_site_charge
N 	N 	0.00114 0.00448 0.09368 -0.29400
N 	N 	0.10263 0.08674 0.00816 -0.27300
C 	C 	0.93340 0.03480 0.11869 0.04500
H 	H 	0.88590 0.05650 0.09404 -0.02700
C 	C 	0.93030 0.03540 0.17933 -0.00800
H 	H 	0.88090 0.05590 0.19452 0.01900
C 	C 	0.00070 0.00561 0.21730 -0.16400
C 	C 	0.07260 0.97680 0.19165 0.00200
H 	H 	0.12240 0.95760 0.21546 0.03100
C 	C 	0.06970 0.97680 0.13052 0.05700
H 	H 	0.11820 0.95630 0.11417 -0.02000
C 	C 	0.18350 0.07706 0.99167 0.06200
H 	H 	0.20070 0.02604 0.98216 -0.03200
C 	C 	0.24280 0.13840 0.98800 -0.04600
H 	H 	0.29780 0.12840 0.97550 0.03400
C 	C 	0.22008 0.21548 0.00305 -0.08400
C 	C 	0.13910 0.22421 0.02414 -0.07400
H 	H 	0.12220 0.27371 0.03714 0.03200
C 	C 	0.08340 0.15995 0.02597 0.02100
H 	H 	0.02940 0.16780 0.04040 -0.03400
N 	N 	0.50114 0.50448 0.09368 -0.26200
N 	N 	0.60263 0.58674 0.00816 -0.26300
C 	C 	0.43340 0.53480 0.11869 0.07900
H 	H 	0.38590 0.55650 0.09404 -0.03700
C 	C 	0.43030 0.53540 0.17933 -0.14700
H 	H 	0.38090 0.55590 0.19452 0.07200
C 	C 	0.50070 0.50561 0.21730 0.05600
C 	C 	0.57260 0.47680 0.19165 -0.14700
H 	H 	0.62240 0.45760 0.21546 0.07400
C 	C 	0.56970 0.47680 0.13052 0.07900
H 	H 	0.61820 0.45630 0.11417 -0.03800
C 	C 	0.68350 0.57706 0.99167 0.07400
H 	H 	0.70070 0.52604 0.98216 -0.01500
C 	C 	0.74280 0.63840 0.98800 -0.04300
H 	H 	0.79780 0.62840 0.97550 0.04600
C 	C 	0.72008 0.71548 0.00305 -0.07300
C 	C 	0.63910 0.72421 0.02414 -0.07100
H 	H 	0.62220 0.77371 0.03714 0.04400
C 	C 	0.58340 0.65995 0.02597 0.03000
H 	H 	0.52940 0.66780 0.04040 -0.02000
N 	N 	0.99886 0.00448 0.40632 -0.27200
N 	N 	0.89737 0.08674 0.49184 -0.25500
C 	C 	0.06660 0.03480 0.38131 0.07500
H 	H 	0.11410 0.05650 0.40596 -0.05000
C 	C 	0.06970 0.03540 0.32067 -0.26400
H 	H 	0.11910 0.05590 0.30548 0.09900
C 	C 	0.99930 0.00561 0.28270 0.18000
C 	C 	0.92740 0.97680 0.30835 -0.18100
H 	H 	0.87760 0.95760 0.28454 0.10700
C 	C 	0.93030 0.97680 0.36948 0.16500
H 	H 	0.88180 0.95630 0.38583 -0.04300
C 	C 	0.81650 0.07706 0.50833 0.07600
H 	H 	0.79930 0.02604 0.51784 -0.03900
C 	C 	0.75720 0.13840 0.51200 -0.14300
H 	H 	0.70220 0.12840 0.52450 0.06400
C 	C 	0.77992 0.21548 0.49695 0.05200
C 	C 	0.86090 0.22421 0.47586 -0.13800
H 	H 	0.87780 0.27371 0.46286 0.07300
C 	C 	0.91660 0.15995 0.47403 0.07100
H 	H 	0.97060 0.16780 0.45960 -0.02300
N 	N 	0.49886 0.50448 0.40632 -0.25900
N 	N 	0.39737 0.58674 0.49184 -0.25700
C 	C 	0.56660 0.53480 0.38131 0.08000
H 	H 	0.61410 0.55650 0.40596 -0.03000
C 	C 	0.56970 0.53540 0.32067 -0.14500
H 	H 	0.61910 0.55590 0.30548 0.07600
C 	C 	0.49930 0.50561 0.28270 0.05500
C 	C 	0.42740 0.47680 0.30835 -0.14600
H 	H 	0.37760 0.45760 0.28454 0.06900
C 	C 	0.43030 0.47680 0.36948 0.07900
H 	H 	0.38180 0.45630 0.38583 -0.03700
C 	C 	0.31650 0.57706 0.50833 0.07800
H 	H 	0.29930 0.52604 0.51784 -0.03100
C 	C 	0.25720 0.63840 0.51200 -0.14200
H 	H 	0.20220 0.62840 0.52450 0.06700
C 	C 	0.27992 0.71548 0.49695 0.05400
C 	C 	0.36090 0.72421 0.47586 -0.14000
H 	H 	0.37780 0.77371 0.46286 0.07400
C 	C 	0.41660 0.65995 0.47403 0.07300
H 	H 	0.47060 0.66780 0.45960 -0.02900
N 	N 	0.99886 0.99552 0.90632 -0.21300
N 	N 	0.89737 0.91326 0.99184 -0.22800
C 	C 	0.06660 0.96520 0.88131 0.10900
H 	H 	0.11410 0.94350 0.90596 -0.03100
C 	C 	0.06970 0.96460 0.82067 -0.25800
H 	H 	0.11910 0.94410 0.80548 0.12100
C 	C 	0.99930 0.99439 0.78270 0.23900
C 	C 	0.92740 0.02320 0.80835 -0.26700
H 	H 	0.87760 0.04240 0.78454 0.10900
C 	C 	0.93030 0.02320 0.86948 0.09800
H 	H 	0.88180 0.04370 0.88583 -0.03800
C 	C 	0.81650 0.92294 0.00833 0.09400
H 	H 	0.79930 0.97396 0.01784 -0.02100
C 	C 	0.75720 0.86160 0.01200 -0.23300
H 	H 	0.70220 0.87160 0.02450 0.10500
C 	C 	0.77992 0.78452 0.99695 0.18600
C 	C 	0.86090 0.77579 0.97586 -0.20300
H 	H 	0.87780 0.72629 0.96286 0.10600
C 	C 	0.91660 0.84005 0.97403 0.12300
H 	H 	0.97060 0.83220 0.95960 -0.02600
N 	N 	0.49886 0.49552 0.90632 -0.25100
N 	N 	0.39737 0.41326 0.99184 -0.24700
C 	C 	0.56660 0.46520 0.88131 0.08100
H 	H 	0.61410 0.44350 0.90596 -0.02700
C 	C 	0.56970 0.46460 0.82067 -0.14400
H 	H 	0.61910 0.44410 0.80548 0.07700
C 	C 	0.49930 0.49439 0.78270 0.05600
C 	C 	0.42740 0.52320 0.80835 -0.14300
H 	H 	0.37760 0.54240 0.78454 0.07400
C 	C 	0.43030 0.52320 0.86948 0.08100
H 	H 	0.38180 0.54370 0.88583 -0.02700
C 	C 	0.31650 0.42294 0.00833 0.08400
H 	H 	0.29930 0.47396 0.01784 -0.04100
C 	C 	0.25720 0.36160 0.01200 -0.24000
H 	H 	0.20220 0.37160 0.02450 0.09400
C 	C 	0.27992 0.28452 0.99695 0.18200
C 	C 	0.36090 0.27579 0.97586 -0.21000
H 	H 	0.37780 0.22629 0.96286 0.09600
C 	C 	0.41660 0.34005 0.97403 0.11500
H 	H 	0.47060 0.33220 0.95960 -0.04200
N 	N 	0.00114 0.99552 0.59368 -0.23300
N 	N 	0.10263 0.91326 0.50816 -0.24800
C 	C 	0.93340 0.96520 0.61869 0.09000
H 	H 	0.88590 0.94350 0.59404 -0.01600
C 	C 	0.93030 0.96460 0.67933 -0.05200
H 	H 	0.88090 0.94410 0.69452 0.05700
C 	C 	0.00070 0.99439 0.71730 -0.03200
C 	C 	0.07260 0.02320 0.69165 -0.13300
H 	H 	0.12240 0.04240 0.71546 0.04900
C 	C 	0.06970 0.02320 0.63052 0.00100
H 	H 	0.11820 0.04370 0.61417 -0.02300
C 	C 	0.18350 0.92294 0.49167 0.08100
H 	H 	0.20070 0.97396 0.48216 -0.01400
C 	C 	0.24280 0.86160 0.48800 -0.13700
H 	H 	0.29780 0.87160 0.47550 0.07500
C 	C 	0.22008 0.78452 0.50305 0.05300
C 	C 	0.13910 0.77579 0.52414 -0.14000
H 	H 	0.12220 0.72629 0.53714 0.06600
C 	C 	0.08340 0.84005 0.52597 0.07300
H 	H 	0.02940 0.83220 0.54040 -0.03600
N 	N 	0.50114 0.49552 0.59368 -0.25800
N 	N 	0.60263 0.41326 0.50816 -0.25700
C 	C 	0.43340 0.46520 0.61869 0.08100
H 	H 	0.38590 0.44350 0.59404 -0.03600
C 	C 	0.43030 0.46460 0.67933 -0.14700
H 	H 	0.38090 0.44410 0.69452 0.07200
C 	C 	0.50070 0.49439 0.71730 0.05700
C 	C 	0.57260 0.52320 0.69165 -0.14500
H 	H 	0.62240 0.54240 0.71546 0.07900
C 	C 	0.56970 0.52320 0.63052 0.08200
H 	H 	0.61820 0.54370 0.61417 -0.03000
C 	C 	0.68350 0.42294 0.49167 0.07900
H 	H 	0.70070 0.47396 0.48216 -0.02500
C 	C 	0.74280 0.36160 0.48800 -0.14000
H 	H 	0.79780 0.37160 0.47550 0.07300
C 	C 	0.72008 0.28452 0.50305 0.05300
C 	C 	0.63910 0.27579 0.52414 -0.14000
H 	H 	0.62220 0.22629 0.53714 0.06600
C 	C 	0.58340 0.34005 0.52597 0.07200
H 	H 	0.52940 0.33220 0.54040 -0.03500
Ni	Ni	-0.00000 0.00000 -0.00000 0.96400
Ni	Ni	0.50000 0.50000 -0.00000 0.99800
Ni	Ni	0.00000 0.00000 0.50000 0.97600
Ni	Ni	0.50000 0.50000 0.50000 1.01200
