data_crystal

_cell_length_a 17.51850
_cell_length_b 6.87500
_cell_length_c 12.16800
_cell_angle_alpha 90.00000
_cell_angle_beta  90.00000
_cell_angle_gamma 90.00000

_symmetry_space_group_name_	'P 1'
_symmetry_space_group_name_H-M	'P 1'

loop_
_symmetry_equiv_pos_as_xyz
  x,y,z

loop_
_atom_site_label
_atom_site_type_symbol
_atom_site_fract_x
_atom_site_fract_y
_atom_site_fract_z
_atom_site_charge
O 	O 	0.08936 0.91360 0.08920 -0.54500
O 	O 	0.42601 0.58800 0.38530 -0.53100
C 	C 	0.22700 0.57580 0.20150 -0.00700
H 	H 	0.20460 0.45840 0.18150 0.02100
C 	C 	0.29420 0.57650 0.25950 -0.01400
H 	H 	0.31690 0.45920 0.27920 0.03400
O 	O 	0.41064 0.08640 0.58920 -0.54700
O 	O 	0.07399 0.41200 0.88530 -0.47900
C 	C 	0.27300 0.42420 0.70150 -0.02700
H 	H 	0.29540 0.54160 0.68150 0.07600
C 	C 	0.20580 0.42350 0.75950 0.00200
H 	H 	0.18310 0.54080 0.77920 0.06500
O 	O 	0.91064 0.41360 0.91080 -0.35100
O 	O 	0.57399 0.08800 0.61470 -0.55100
C 	C 	0.77300 0.07580 0.79850 -0.16100
H 	H 	0.79540 0.95840 0.81850 0.20500
C 	C 	0.70580 0.07650 0.74050 -0.11000
H 	H 	0.68310 0.95920 0.72080 0.17700
O 	O 	0.58936 0.58640 0.41080 -0.52200
O 	O 	0.92601 0.91200 0.11470 -0.42400
C 	C 	0.72700 0.92420 0.29850 0.13600
H 	H 	0.70460 0.04160 0.31850 -0.07600
C 	C 	0.79420 0.92350 0.24050 0.11900
H 	H 	0.81690 0.04080 0.22080 -0.06900
O 	O 	0.91064 0.08640 0.91080 -0.39600
O 	O 	0.57399 0.41200 0.61470 -0.50400
C 	C 	0.77300 0.42420 0.79850 -0.03600
H 	H 	0.79540 0.54160 0.81850 0.09900
C 	C 	0.70580 0.42350 0.74050 0.02000
H 	H 	0.68310 0.54080 0.72080 0.06700
O 	O 	0.58936 0.91360 0.41080 -0.46200
O 	O 	0.92601 0.58800 0.11470 -0.48300
C 	C 	0.72700 0.57580 0.29850 0.00200
H 	H 	0.70460 0.45840 0.31850 0.03800
C 	C 	0.79420 0.57650 0.24050 -0.01500
H 	H 	0.81690 0.45920 0.22080 0.04600
O 	O 	0.08936 0.58640 0.08920 -0.60900
O 	O 	0.42601 0.91200 0.38530 -0.47200
C 	C 	0.22700 0.92420 0.20150 0.13000
H 	H 	0.20460 0.04160 0.18150 -0.09600
C 	C 	0.29420 0.92350 0.25950 0.12100
H 	H 	0.31690 0.04080 0.27920 -0.08100
O 	O 	0.41064 0.41360 0.58920 -0.49900
O 	O 	0.07399 0.08800 0.88530 -0.52500
C 	C 	0.27300 0.07580 0.70150 -0.15900
H 	H 	0.29540 0.95840 0.68150 0.18700
C 	C 	0.20580 0.07650 0.75950 -0.12500
H 	H 	0.18310 0.95920 0.77920 0.17400
V 	V 	-0.00000 0.00000 -0.00000 1.59200
V 	V 	0.50000 0.00000 0.50000 1.75600
V 	V 	0.00000 0.50000 -0.00000 1.63500
V 	V 	0.50000 0.50000 0.50000 1.79900
O 	O 	0.99320 0.75000 0.92550 -0.30700
C 	C 	0.32870 0.75000 0.28890 -0.14000
C 	C 	0.19250 0.75000 0.17280 -0.15700
C 	C 	0.39880 0.75000 0.35880 0.44500
C 	C 	0.11820 0.75000 0.11180 0.41600
O 	O 	0.50680 0.25000 0.42550 -0.64200
C 	C 	0.17130 0.25000 0.78890 -0.05700
C 	C 	0.30750 0.25000 0.67280 -0.02900
C 	C 	0.10120 0.25000 0.85880 0.42400
C 	C 	0.38180 0.25000 0.61180 0.40000
O 	O 	0.00680 0.25000 0.07450 -0.79300
C 	C 	0.67130 0.25000 0.71110 -0.05800
C 	C 	0.80750 0.25000 0.82720 0.01300
C 	C 	0.60120 0.25000 0.64120 0.42900
C 	C 	0.88180 0.25000 0.88820 0.38600
O 	O 	0.49320 0.75000 0.57450 -0.55300
C 	C 	0.82870 0.75000 0.21110 -0.11600
C 	C 	0.69250 0.75000 0.32720 -0.13300
C 	C 	0.89880 0.75000 0.14120 0.41500
C 	C 	0.61820 0.75000 0.38820 0.43200
