data_crystal

_cell_length_a 20.16580
_cell_length_b 18.55180
_cell_length_c 12.15800
_cell_angle_alpha 90.00000
_cell_angle_beta  95.33100
_cell_angle_gamma 90.00000

_symmetry_space_group_name_	'P 1'
_symmetry_space_group_name_H-M	'P 1'

loop_
_symmetry_equiv_pos_as_xyz
  x,y,z

loop_
_atom_site_label
_atom_site_type_symbol
_atom_site_fract_x
_atom_site_fract_y
_atom_site_fract_z
_atom_site_charge
O 	O 	0.03810 0.99930 0.16150 -0.96400
H 	H 	0.07880 0.99000 0.16200 0.33600
O 	O 	0.94830 0.90000 0.00790 -0.37700
O 	O 	0.92890 0.86470 0.17730 -0.41100
O 	O 	0.06710 0.86150 0.82680 -0.51500
O 	O 	0.08730 0.94440 0.96010 -0.44100
C 	C 	0.91500 0.86710 0.07300 0.40100
C 	C 	0.85480 0.82550 0.02900 -0.16700
C 	C 	0.81880 0.78690 0.09900 0.05500
H 	H 	0.83280 0.78590 0.17580 0.04300
C 	C 	0.76070 0.74830 0.05790 -0.08900
C 	C 	0.83480 0.82680 0.91350 0.14300
H 	H 	0.86070 0.85210 0.86470 0.01600
C 	C 	0.72240 0.70890 0.12710 0.01000
H 	H 	0.73610 0.70670 0.20400 0.03700
C 	C 	0.09870 0.88500 0.91350 0.32100
C 	C 	0.15720 0.84130 0.96030 0.01700
C 	C 	0.19590 0.86450 0.05800 -0.12700
H 	H 	0.18440 0.90760 0.09380 0.06600
C 	C 	0.24950 0.82490 0.10050 0.02500
H 	H 	0.27450 0.84090 0.16600 0.02800
C 	C 	0.17550 0.77940 0.91010 -0.13500
H 	H 	0.14950 0.76330 0.84560 0.07200
C 	C 	0.26830 0.76140 0.04970 -0.12600
O 	O 	0.53810 0.49930 0.16150 -0.92000
H 	H 	0.57880 0.49000 0.16200 0.31200
O 	O 	0.44830 0.40000 0.00790 -0.51000
O 	O 	0.42890 0.36470 0.17730 -0.51500
O 	O 	0.56710 0.36150 0.82680 -0.46600
O 	O 	0.58730 0.44440 0.96010 -0.43500
C 	C 	0.41500 0.36710 0.07300 0.42400
C 	C 	0.35480 0.32550 0.02900 -0.22900
C 	C 	0.31880 0.28690 0.09900 0.07200
H 	H 	0.33280 0.28590 0.17580 0.01500
C 	C 	0.26070 0.24830 0.05790 -0.12900
C 	C 	0.33480 0.32680 0.91350 0.16400
H 	H 	0.36070 0.35210 0.86470 -0.01600
C 	C 	0.22240 0.20890 0.12710 0.01000
H 	H 	0.23610 0.20670 0.20400 0.01900
C 	C 	0.59870 0.38500 0.91350 0.32900
C 	C 	0.65720 0.34130 0.96030 0.02900
C 	C 	0.69590 0.36450 0.05800 -0.12300
H 	H 	0.68440 0.40760 0.09380 0.06300
C 	C 	0.74950 0.32490 0.10050 0.02600
H 	H 	0.77450 0.34090 0.16600 0.03500
C 	C 	0.67550 0.27940 0.91010 -0.13300
H 	H 	0.64950 0.26330 0.84560 0.08800
C 	C 	0.76830 0.26140 0.04970 -0.11600
O 	O 	0.96190 0.99930 0.33850 -0.69500
H 	H 	0.92120 0.99000 0.33800 0.28900
O 	O 	0.05170 0.90000 0.49210 -0.51900
O 	O 	0.07110 0.86470 0.32270 -0.55200
O 	O 	0.93290 0.86150 0.67320 -0.36600
O 	O 	0.91270 0.94440 0.53990 -0.36000
C 	C 	0.08500 0.86710 0.42700 0.39500
C 	C 	0.14520 0.82550 0.47100 -0.12200
C 	C 	0.18120 0.78690 0.40100 -0.01600
H 	H 	0.16720 0.78590 0.32420 0.03400
C 	C 	0.23930 0.74830 0.44210 0.00600
C 	C 	0.16520 0.82680 0.58650 0.03100
H 	H 	0.13930 0.85210 0.63530 0.02000
C 	C 	0.27760 0.70890 0.37290 -0.08200
H 	H 	0.26390 0.70670 0.29600 0.05000
C 	C 	0.90130 0.88500 0.58650 0.35000
C 	C 	0.84280 0.84130 0.53970 -0.05000
C 	C 	0.80410 0.86450 0.44200 0.00600
H 	H 	0.81560 0.90760 0.40620 0.04300
C 	C 	0.75050 0.82490 0.39950 -0.06800
H 	H 	0.72550 0.84090 0.33400 0.06100
C 	C 	0.82450 0.77940 0.58990 -0.04900
H 	H 	0.85050 0.76330 0.65440 0.08500
C 	C 	0.73170 0.76140 0.45030 0.01400
O 	O 	0.46190 0.49930 0.33850 -0.91300
H 	H 	0.42120 0.49000 0.33800 0.31400
O 	O 	0.55170 0.40000 0.49210 -0.47700
O 	O 	0.57110 0.36470 0.32270 -0.50400
O 	O 	0.43290 0.36150 0.67320 -0.47700
O 	O 	0.41270 0.44440 0.53990 -0.47000
C 	C 	0.58500 0.36710 0.42700 0.39100
C 	C 	0.64520 0.32550 0.47100 -0.10900
C 	C 	0.68120 0.28690 0.40100 -0.01400
H 	H 	0.66720 0.28590 0.32420 0.04500
C 	C 	0.73930 0.24830 0.44210 0.00900
C 	C 	0.66520 0.32680 0.58650 0.03500
H 	H 	0.63930 0.35210 0.63530 0.02200
C 	C 	0.77760 0.20890 0.37290 -0.07200
H 	H 	0.76390 0.20670 0.29600 0.05100
C 	C 	0.40130 0.38500 0.58650 0.35900
C 	C 	0.34280 0.34130 0.53970 -0.09000
C 	C 	0.30410 0.36450 0.44200 0.00300
H 	H 	0.31560 0.40760 0.40620 0.01800
C 	C 	0.25050 0.32490 0.39950 -0.08300
H 	H 	0.22550 0.34090 0.33400 0.04000
C 	C 	0.32450 0.27940 0.58990 -0.04500
H 	H 	0.35050 0.26330 0.65440 0.05700
C 	C 	0.23170 0.26140 0.45030 -0.00100
O 	O 	0.96190 0.00070 0.83850 -0.76300
H 	H 	0.92120 0.01000 0.83800 0.28400
O 	O 	0.05170 0.10000 0.99210 -0.52200
O 	O 	0.07110 0.13530 0.82270 -0.54700
O 	O 	0.93290 0.13850 0.17320 -0.40300
O 	O 	0.91270 0.05560 0.03990 -0.44800
C 	C 	0.08500 0.13290 0.92700 0.35100
C 	C 	0.14520 0.17450 0.97100 -0.00500
C 	C 	0.18120 0.21310 0.90100 -0.12800
H 	H 	0.16720 0.21410 0.82420 0.07200
C 	C 	0.23930 0.25170 0.94210 0.15900
C 	C 	0.16520 0.17320 0.08650 -0.12900
H 	H 	0.13930 0.14790 0.13530 0.04300
C 	C 	0.27760 0.29110 0.87290 -0.20800
H 	H 	0.26390 0.29330 0.79600 0.09400
C 	C 	0.90130 0.11500 0.08650 0.39200
C 	C 	0.84280 0.15870 0.03970 -0.19600
C 	C 	0.80410 0.13550 0.94200 0.16000
H 	H 	0.81560 0.09240 0.90620 -0.01900
C 	C 	0.75050 0.17510 0.89950 -0.20500
H 	H 	0.72550 0.15910 0.83400 0.09400
C 	C 	0.82450 0.22060 0.08990 0.06700
H 	H 	0.85050 0.23670 0.15440 0.04200
C 	C 	0.73170 0.23860 0.95030 0.17100
O 	O 	0.46190 0.50070 0.83850 -0.90200
H 	H 	0.42120 0.51000 0.83800 0.32200
O 	O 	0.55170 0.60000 0.99210 -0.43900
O 	O 	0.57110 0.63530 0.82270 -0.48300
O 	O 	0.43290 0.63850 0.17320 -0.49100
O 	O 	0.41270 0.55560 0.03990 -0.49700
C 	C 	0.58500 0.63290 0.92700 0.35500
C 	C 	0.64520 0.67450 0.97100 0.01300
C 	C 	0.68120 0.71310 0.90100 -0.10900
H 	H 	0.66720 0.71410 0.82420 0.08700
C 	C 	0.73930 0.75170 0.94210 0.15200
C 	C 	0.66520 0.67320 0.08650 -0.10300
H 	H 	0.63930 0.64790 0.13530 0.06000
C 	C 	0.77760 0.79110 0.87290 -0.17000
H 	H 	0.76390 0.79330 0.79600 0.09800
C 	C 	0.40130 0.61500 0.08650 0.39700
C 	C 	0.34280 0.65870 0.03970 -0.21600
C 	C 	0.30410 0.63550 0.94200 0.16000
H 	H 	0.31560 0.59240 0.90620 -0.02100
C 	C 	0.25050 0.67510 0.89950 -0.21100
H 	H 	0.22550 0.65910 0.83400 0.08800
C 	C 	0.32450 0.72060 0.08990 0.07100
H 	H 	0.35050 0.73670 0.15440 0.02400
C 	C 	0.23170 0.73860 0.95030 0.16400
O 	O 	0.03810 0.00070 0.66150 -1.04100
H 	H 	0.07880 0.01000 0.66200 0.33200
O 	O 	0.94830 0.10000 0.50790 -0.38400
O 	O 	0.92890 0.13530 0.67730 -0.40500
O 	O 	0.06710 0.13850 0.32680 -0.55900
O 	O 	0.08730 0.05560 0.46010 -0.53600
C 	C 	0.91500 0.13290 0.57300 0.36400
C 	C 	0.85480 0.17450 0.52900 -0.06700
C 	C 	0.81880 0.21310 0.59900 -0.04300
H 	H 	0.83280 0.21410 0.67580 0.07600
C 	C 	0.76070 0.25170 0.55790 0.04500
C 	C 	0.83480 0.17320 0.41350 0.00600
H 	H 	0.86070 0.14790 0.36470 0.03500
C 	C 	0.72240 0.29110 0.62710 -0.10200
H 	H 	0.73610 0.29330 0.70400 0.07600
C 	C 	0.09870 0.11500 0.41350 0.36400
C 	C 	0.15720 0.15870 0.46030 -0.12900
C 	C 	0.19590 0.13550 0.55800 0.02700
H 	H 	0.18440 0.09240 0.59380 0.00300
C 	C 	0.24950 0.17510 0.60050 -0.11300
H 	H 	0.27450 0.15910 0.66600 0.06000
C 	C 	0.17550 0.22060 0.41010 -0.02000
H 	H 	0.14950 0.23670 0.34560 0.02800
C 	C 	0.26830 0.23860 0.54970 0.03000
O 	O 	0.53810 0.50070 0.66150 -0.91400
H 	H 	0.57880 0.51000 0.66200 0.32100
O 	O 	0.44830 0.60000 0.50790 -0.47400
O 	O 	0.42890 0.63530 0.67730 -0.49300
O 	O 	0.56710 0.63850 0.32680 -0.48000
O 	O 	0.58730 0.55560 0.46010 -0.46600
C 	C 	0.41500 0.63290 0.57300 0.38500
C 	C 	0.35480 0.67450 0.52900 -0.09400
C 	C 	0.31880 0.71310 0.59900 -0.03500
H 	H 	0.33280 0.71410 0.67580 0.06100
C 	C 	0.26070 0.75170 0.55790 0.03400
C 	C 	0.33480 0.67320 0.41350 0.01200
H 	H 	0.36070 0.64790 0.36470 0.02600
C 	C 	0.22240 0.79110 0.62710 -0.10400
H 	H 	0.23610 0.79330 0.70400 0.07200
C 	C 	0.59870 0.61500 0.41350 0.36800
C 	C 	0.65720 0.65870 0.46030 -0.09800
C 	C 	0.69590 0.63550 0.55800 0.03500
H 	H 	0.68440 0.59240 0.59380 0.02300
C 	C 	0.74950 0.67510 0.60050 -0.10300
H 	H 	0.77450 0.65910 0.66600 0.08300
C 	C 	0.67550 0.72060 0.41010 -0.01800
H 	H 	0.64950 0.73670 0.34560 0.05400
C 	C 	0.76830 0.73860 0.54970 0.05100
Zn	Zn	-0.00000 0.00000 -0.00000 1.12300
Zn	Zn	0.50000 0.50000 -0.00000 1.22000
Zn	Zn	0.00000 0.00000 0.50000 1.13700
Zn	Zn	0.50000 0.50000 0.50000 1.23400
Zn	Zn	0.00000 0.92123 0.25000 1.14800
Zn	Zn	0.00000 0.07785 0.25000 1.13300
Zn	Zn	0.50000 0.42123 0.25000 1.21500
Zn	Zn	0.50000 0.57785 0.25000 1.22400
Zn	Zn	0.00000 0.07877 0.75000 1.14300
Zn	Zn	0.00000 0.92215 0.75000 1.17600
Zn	Zn	0.50000 0.57877 0.75000 1.21700
Zn	Zn	0.50000 0.42215 0.75000 1.22600
