data_crystal

_cell_length_a 20.46700
_cell_length_b 20.46700
_cell_length_c 34.34400
_cell_angle_alpha 90.00000
_cell_angle_beta  90.00000
_cell_angle_gamma 90.00000

_symmetry_space_group_name_	'P 1'
_symmetry_space_group_name_H-M	'P 1'

loop_
_symmetry_equiv_pos_as_xyz
  x,y,z

loop_
_atom_site_label
_atom_site_type_symbol
_atom_site_fract_x
_atom_site_fract_y
_atom_site_fract_z
_atom_site_charge
Mn	Mn	0.31852 0.13038 0.19785 1.30900
Mn	Mn	0.11302 0.31028 0.21380 1.30800
Cu	Cu	0.31323 0.97107 0.92029 0.88300
Cu	Cu	0.45192 0.17063 0.06390 0.88400
C 	C 	0.34480 0.05130 0.03046 -0.25000
H 	H 	0.38820 0.03810 0.03160 0.12300
C 	C 	0.30140 0.02190 0.00379 0.20700
C 	C 	0.23720 0.04350 0.00110 -0.24200
H 	H 	0.20960 0.02580 0.98240 0.10300
C 	C 	0.21440 0.09110 0.02598 0.15100
H 	H 	0.17110 0.10440 0.02440 -0.02000
C 	C 	0.25560 0.11960 0.05362 -0.22200
H 	H 	0.23950 0.15080 0.07080 0.11900
C 	C 	0.32190 0.10050 0.05521 0.20000
C 	C 	0.35600 0.92360 0.99052 0.10300
C 	C 	0.37310 0.87190 0.96085 0.22500
C 	C 	0.35820 0.13630 0.11685 0.09400
C 	C 	0.41640 0.16300 0.13996 0.23600
C 	C 	0.38800 0.11850 0.95411 -0.26400
H 	H 	0.41830 0.08480 0.95220 0.12600
C 	C 	0.33200 0.11860 0.93008 0.21300
C 	C 	0.28860 0.16970 0.93377 -0.24400
H 	H 	0.25130 0.17000 0.91820 0.12200
C 	C 	0.29830 0.22000 0.95954 0.16100
H 	H 	0.26840 0.25420 0.96090 -0.03100
C 	C 	0.35410 0.21950 0.98401 -0.25300
H 	H 	0.36100 0.25270 0.00200 0.10500
C 	C 	0.39760 0.16880 0.98045 0.22000
C 	C 	0.31540 0.07350 0.86717 0.10400
C 	C 	0.30680 0.00950 0.84457 0.24100
C 	C 	0.51160 0.16630 0.99147 0.11700
C 	C 	0.56620 0.16470 0.02265 0.23900
C 	C 	0.18930 0.18980 0.21311 0.22700
C 	C 	0.24020 0.24750 0.21238 0.22500
N 	N 	0.32400 0.97320 0.97749 -0.26100
N 	N 	0.36740 0.13190 0.07976 -0.25900
N 	N 	0.32120 0.06450 0.90514 -0.26000
N 	N 	0.45240 0.16700 0.00616 -0.26500
O 	O 	0.62277 0.16160 0.01049 -0.34600
O 	O 	0.52798 0.16950 0.95693 -0.35000
O 	O 	0.54940 0.16770 0.05775 -0.33100
O 	O 	0.21230 0.13348 0.20900 -0.34900
O 	O 	0.29850 0.23326 0.20693 -0.34800
O 	O 	0.21930 0.30298 0.22000 -0.34400
O 	O 	0.13080 0.20500 0.21551 -0.35200
O 	O 	0.46530 0.18150 0.12044 -0.33600
O 	O 	0.39840 0.81979 0.97236 -0.33800
O 	O 	0.37190 0.91179 0.02624 -0.33800
O 	O 	0.31761 0.12606 0.84874 -0.33500
O 	O 	0.30160 0.01380 0.80855 -0.36000
O 	O 	0.30550 0.95690 0.86371 -0.34000
O 	O 	0.35700 0.88200 0.92567 -0.31700
O 	O 	0.41340 0.16380 0.17614 -0.34800
O 	O 	0.30757 0.11697 0.13624 -0.33700
Mn	Mn	0.68148 0.86962 0.69785 1.30800
Mn	Mn	0.88698 0.68972 0.71380 1.30700
Cu	Cu	0.68677 0.02893 0.42029 0.88200
Cu	Cu	0.54808 0.82937 0.56390 0.88300
C 	C 	0.65520 0.94870 0.53046 -0.25100
H 	H 	0.61180 0.96190 0.53160 0.12200
C 	C 	0.69860 0.97810 0.50379 0.20700
C 	C 	0.76280 0.95650 0.50110 -0.24200
H 	H 	0.79040 0.97420 0.48240 0.10300
C 	C 	0.78560 0.90890 0.52598 0.15100
H 	H 	0.82890 0.89560 0.52440 -0.02000
C 	C 	0.74440 0.88040 0.55362 -0.22200
H 	H 	0.76050 0.84920 0.57080 0.11900
C 	C 	0.67810 0.89950 0.55521 0.20000
C 	C 	0.64400 0.07640 0.49052 0.10300
C 	C 	0.62690 0.12810 0.46085 0.22500
C 	C 	0.64180 0.86370 0.61685 0.09400
C 	C 	0.58360 0.83700 0.63996 0.23600
C 	C 	0.61200 0.88150 0.45411 -0.26400
H 	H 	0.58170 0.91520 0.45220 0.12600
C 	C 	0.66800 0.88140 0.43008 0.21300
C 	C 	0.71140 0.83030 0.43377 -0.24400
H 	H 	0.74870 0.83000 0.41820 0.12200
C 	C 	0.70170 0.78000 0.45954 0.16100
H 	H 	0.73160 0.74580 0.46090 -0.03100
C 	C 	0.64590 0.78050 0.48401 -0.25300
H 	H 	0.63900 0.74730 0.50200 0.10500
C 	C 	0.60240 0.83120 0.48045 0.22000
C 	C 	0.68460 0.92650 0.36717 0.10400
C 	C 	0.69320 0.99050 0.34457 0.24100
C 	C 	0.48840 0.83370 0.49147 0.11700
C 	C 	0.43380 0.83530 0.52265 0.23900
C 	C 	0.81070 0.81020 0.71311 0.22700
C 	C 	0.75980 0.75250 0.71238 0.22500
N 	N 	0.67600 0.02680 0.47749 -0.26100
N 	N 	0.63260 0.86810 0.57976 -0.25900
N 	N 	0.67880 0.93550 0.40514 -0.26000
N 	N 	0.54760 0.83300 0.50616 -0.26500
O 	O 	0.37723 0.83840 0.51049 -0.34600
O 	O 	0.47202 0.83050 0.45693 -0.35000
O 	O 	0.45060 0.83230 0.55775 -0.33100
O 	O 	0.78770 0.86652 0.70900 -0.34900
O 	O 	0.70150 0.76674 0.70693 -0.34800
O 	O 	0.78070 0.69702 0.72000 -0.34400
O 	O 	0.86920 0.79500 0.71551 -0.35200
O 	O 	0.53470 0.81850 0.62044 -0.33600
O 	O 	0.60160 0.18021 0.47236 -0.33800
O 	O 	0.62810 0.08821 0.52624 -0.33800
O 	O 	0.68239 0.87394 0.34874 -0.33500
O 	O 	0.69840 0.98620 0.30855 -0.36000
O 	O 	0.69450 0.04310 0.36371 -0.34000
O 	O 	0.64300 0.11800 0.42567 -0.31700
O 	O 	0.58660 0.83620 0.67614 -0.34800
O 	O 	0.69243 0.88303 0.63624 -0.33700
Mn	Mn	0.36962 0.81852 0.44785 1.30800
Mn	Mn	0.18972 0.61302 0.46380 1.30700
Cu	Cu	0.52893 0.81323 0.17029 0.88200
Cu	Cu	0.32937 0.95192 0.31390 0.88300
C 	C 	0.44870 0.84480 0.28046 -0.25100
H 	H 	0.46190 0.88820 0.28160 0.12200
C 	C 	0.47810 0.80140 0.25379 0.20700
C 	C 	0.45650 0.73720 0.25110 -0.24200
H 	H 	0.47420 0.70960 0.23240 0.10300
C 	C 	0.40890 0.71440 0.27598 0.15100
H 	H 	0.39560 0.67110 0.27440 -0.02000
C 	C 	0.38040 0.75560 0.30362 -0.22200
H 	H 	0.34920 0.73950 0.32080 0.11900
C 	C 	0.39950 0.82190 0.30521 0.20000
C 	C 	0.57640 0.85600 0.24052 0.10300
C 	C 	0.62810 0.87310 0.21085 0.22500
C 	C 	0.36370 0.85820 0.36685 0.09400
C 	C 	0.33700 0.91640 0.38996 0.23600
C 	C 	0.38150 0.88800 0.20411 -0.26400
H 	H 	0.41520 0.91830 0.20220 0.12600
C 	C 	0.38140 0.83200 0.18008 0.21300
C 	C 	0.33030 0.78860 0.18377 -0.24400
H 	H 	0.33000 0.75130 0.16820 0.12200
C 	C 	0.28000 0.79830 0.20954 0.16100
H 	H 	0.24580 0.76840 0.21090 -0.03100
C 	C 	0.28050 0.85410 0.23401 -0.25300
H 	H 	0.24730 0.86100 0.25200 0.10500
C 	C 	0.33120 0.89760 0.23045 0.22000
C 	C 	0.42650 0.81540 0.11717 0.10400
C 	C 	0.49050 0.80680 0.09457 0.24100
C 	C 	0.33370 0.01160 0.24147 0.11800
C 	C 	0.33530 0.06620 0.27265 0.23900
C 	C 	0.31020 0.68930 0.46311 0.22700
C 	C 	0.25250 0.74020 0.46238 0.22500
N 	N 	0.52680 0.82400 0.22749 -0.26000
N 	N 	0.36810 0.86740 0.32976 -0.25900
N 	N 	0.43550 0.82120 0.15514 -0.26000
N 	N 	0.33300 0.95240 0.25616 -0.26600
O 	O 	0.33840 0.12277 0.26049 -0.34600
O 	O 	0.33050 0.02798 0.20693 -0.35000
O 	O 	0.33230 0.04940 0.30775 -0.33100
O 	O 	0.36652 0.71230 0.45900 -0.34900
O 	O 	0.26674 0.79850 0.45693 -0.34800
O 	O 	0.19702 0.71930 0.47000 -0.34400
O 	O 	0.29500 0.63080 0.46551 -0.35200
O 	O 	0.31850 0.96530 0.37044 -0.33600
O 	O 	0.68021 0.89840 0.22236 -0.33800
O 	O 	0.58821 0.87190 0.27624 -0.33800
O 	O 	0.37394 0.81761 0.09874 -0.33500
O 	O 	0.48620 0.80160 0.05855 -0.36000
O 	O 	0.54310 0.80550 0.11371 -0.34000
O 	O 	0.61800 0.85700 0.17567 -0.31700
O 	O 	0.33620 0.91340 0.42614 -0.34800
O 	O 	0.38303 0.80757 0.38624 -0.33700
Mn	Mn	0.63038 0.18148 0.94785 1.30800
Mn	Mn	0.81028 0.38698 0.96380 1.30600
Cu	Cu	0.47107 0.18677 0.67029 0.88200
Cu	Cu	0.67063 0.04808 0.81390 0.88300
C 	C 	0.55130 0.15520 0.78046 -0.25100
H 	H 	0.53810 0.11180 0.78160 0.12200
C 	C 	0.52190 0.19860 0.75379 0.20700
C 	C 	0.54350 0.26280 0.75110 -0.24200
H 	H 	0.52580 0.29040 0.73240 0.10300
C 	C 	0.59110 0.28560 0.77598 0.15100
H 	H 	0.60440 0.32890 0.77440 -0.02000
C 	C 	0.61960 0.24440 0.80362 -0.22200
H 	H 	0.65080 0.26050 0.82080 0.11900
C 	C 	0.60050 0.17810 0.80521 0.20000
C 	C 	0.42360 0.14400 0.74052 0.10300
C 	C 	0.37190 0.12690 0.71085 0.22500
C 	C 	0.63630 0.14180 0.86685 0.09400
C 	C 	0.66300 0.08360 0.88996 0.23600
C 	C 	0.61850 0.11200 0.70411 -0.26400
H 	H 	0.58480 0.08170 0.70220 0.12600
C 	C 	0.61860 0.16800 0.68008 0.21300
C 	C 	0.66970 0.21140 0.68377 -0.24400
H 	H 	0.67000 0.24870 0.66820 0.12200
C 	C 	0.72000 0.20170 0.70954 0.16100
H 	H 	0.75420 0.23160 0.71090 -0.03100
C 	C 	0.71950 0.14590 0.73401 -0.25300
H 	H 	0.75270 0.13900 0.75200 0.10500
C 	C 	0.66880 0.10240 0.73045 0.22000
C 	C 	0.57350 0.18460 0.61717 0.10400
C 	C 	0.50950 0.19320 0.59457 0.24100
C 	C 	0.66630 0.98840 0.74147 0.11800
C 	C 	0.66470 0.93380 0.77265 0.23900
C 	C 	0.68980 0.31070 0.96311 0.22700
C 	C 	0.74750 0.25980 0.96238 0.22500
N 	N 	0.47320 0.17600 0.72749 -0.26000
N 	N 	0.63190 0.13260 0.82976 -0.25900
N 	N 	0.56450 0.17880 0.65514 -0.26000
N 	N 	0.66700 0.04760 0.75616 -0.26500
O 	O 	0.66160 0.87723 0.76049 -0.34600
O 	O 	0.66950 0.97202 0.70693 -0.35000
O 	O 	0.66770 0.95060 0.80775 -0.33100
O 	O 	0.63348 0.28770 0.95900 -0.34900
O 	O 	0.73326 0.20150 0.95693 -0.34800
O 	O 	0.80298 0.28070 0.97000 -0.34400
O 	O 	0.70500 0.36920 0.96551 -0.35200
O 	O 	0.68150 0.03470 0.87044 -0.33600
O 	O 	0.31979 0.10160 0.72236 -0.33800
O 	O 	0.41179 0.12810 0.77624 -0.33800
O 	O 	0.62606 0.18239 0.59874 -0.33500
O 	O 	0.51380 0.19840 0.55855 -0.36000
O 	O 	0.45690 0.19450 0.61371 -0.34000
O 	O 	0.38200 0.14300 0.67567 -0.31700
O 	O 	0.66380 0.08660 0.92614 -0.34900
O 	O 	0.61697 0.19243 0.88624 -0.33700
Mn	Mn	0.18148 0.63038 0.05215 1.30800
Mn	Mn	0.38698 0.81028 0.03620 1.30600
Cu	Cu	0.18677 0.47107 0.32971 0.88200
Cu	Cu	0.04808 0.67063 0.18610 0.88300
C 	C 	0.15520 0.55130 0.21954 -0.25100
H 	H 	0.11180 0.53810 0.21840 0.12200
C 	C 	0.19860 0.52190 0.24621 0.20700
C 	C 	0.26280 0.54350 0.24890 -0.24200
H 	H 	0.29040 0.52580 0.26760 0.10300
C 	C 	0.28560 0.59110 0.22402 0.15100
H 	H 	0.32890 0.60440 0.22560 -0.02000
C 	C 	0.24440 0.61960 0.19638 -0.22200
H 	H 	0.26050 0.65080 0.17920 0.11900
C 	C 	0.17810 0.60050 0.19479 0.20000
C 	C 	0.14400 0.42360 0.25948 0.10300
C 	C 	0.12690 0.37190 0.28915 0.22500
C 	C 	0.14180 0.63630 0.13315 0.09400
C 	C 	0.08360 0.66300 0.11004 0.23600
C 	C 	0.11200 0.61850 0.29589 -0.26400
H 	H 	0.08170 0.58480 0.29780 0.12600
C 	C 	0.16800 0.61860 0.31992 0.21300
C 	C 	0.21140 0.66970 0.31623 -0.24400
H 	H 	0.24870 0.67000 0.33180 0.12200
C 	C 	0.20170 0.72000 0.29046 0.16100
H 	H 	0.23160 0.75420 0.28910 -0.03100
C 	C 	0.14590 0.71950 0.26599 -0.25300
H 	H 	0.13900 0.75270 0.24800 0.10500
C 	C 	0.10240 0.66880 0.26955 0.22000
C 	C 	0.18460 0.57350 0.38283 0.10400
C 	C 	0.19320 0.50950 0.40543 0.24100
C 	C 	0.98840 0.66630 0.25853 0.11800
C 	C 	0.93380 0.66470 0.22735 0.23900
C 	C 	0.31070 0.68980 0.03689 0.22700
C 	C 	0.25980 0.74750 0.03762 0.22500
N 	N 	0.17600 0.47320 0.27251 -0.26000
N 	N 	0.13260 0.63190 0.17024 -0.25900
N 	N 	0.17880 0.56450 0.34486 -0.26000
N 	N 	0.04760 0.66700 0.24384 -0.26500
O 	O 	0.87723 0.66160 0.23951 -0.34600
O 	O 	0.97202 0.66950 0.29307 -0.35000
O 	O 	0.95060 0.66770 0.19225 -0.33100
O 	O 	0.28770 0.63348 0.04100 -0.34900
O 	O 	0.20150 0.73326 0.04307 -0.34800
O 	O 	0.28070 0.80298 0.03000 -0.34400
O 	O 	0.36920 0.70500 0.03449 -0.35200
O 	O 	0.03470 0.68150 0.12956 -0.33600
O 	O 	0.10160 0.31979 0.27764 -0.33800
O 	O 	0.12810 0.41179 0.22376 -0.33800
O 	O 	0.18239 0.62606 0.40126 -0.33500
O 	O 	0.19840 0.51380 0.44145 -0.36000
O 	O 	0.19450 0.45690 0.38629 -0.34000
O 	O 	0.14300 0.38200 0.32433 -0.31700
O 	O 	0.08660 0.66380 0.07386 -0.34900
O 	O 	0.19243 0.61697 0.11376 -0.33700
Mn	Mn	0.81852 0.36962 0.55215 1.30800
Mn	Mn	0.61302 0.18972 0.53620 1.30700
Cu	Cu	0.81323 0.52893 0.82971 0.88200
Cu	Cu	0.95192 0.32937 0.68610 0.88300
C 	C 	0.84480 0.44870 0.71954 -0.25100
H 	H 	0.88820 0.46190 0.71840 0.12200
C 	C 	0.80140 0.47810 0.74621 0.20700
C 	C 	0.73720 0.45650 0.74890 -0.24200
H 	H 	0.70960 0.47420 0.76760 0.10300
C 	C 	0.71440 0.40890 0.72402 0.15100
H 	H 	0.67110 0.39560 0.72560 -0.02000
C 	C 	0.75560 0.38040 0.69638 -0.22200
H 	H 	0.73950 0.34920 0.67920 0.11900
C 	C 	0.82190 0.39950 0.69479 0.20000
C 	C 	0.85600 0.57640 0.75948 0.10300
C 	C 	0.87310 0.62810 0.78915 0.22500
C 	C 	0.85820 0.36370 0.63315 0.09400
C 	C 	0.91640 0.33700 0.61004 0.23600
C 	C 	0.88800 0.38150 0.79589 -0.26400
H 	H 	0.91830 0.41520 0.79780 0.12600
C 	C 	0.83200 0.38140 0.81992 0.21300
C 	C 	0.78860 0.33030 0.81623 -0.24400
H 	H 	0.75130 0.33000 0.83180 0.12200
C 	C 	0.79830 0.28000 0.79046 0.16100
H 	H 	0.76840 0.24580 0.78910 -0.03100
C 	C 	0.85410 0.28050 0.76599 -0.25300
H 	H 	0.86100 0.24730 0.74800 0.10500
C 	C 	0.89760 0.33120 0.76955 0.22000
C 	C 	0.81540 0.42650 0.88283 0.10400
C 	C 	0.80680 0.49050 0.90543 0.24100
C 	C 	0.01160 0.33370 0.75853 0.11800
C 	C 	0.06620 0.33530 0.72735 0.23900
C 	C 	0.68930 0.31020 0.53689 0.22700
C 	C 	0.74020 0.25250 0.53762 0.22500
N 	N 	0.82400 0.52680 0.77251 -0.26000
N 	N 	0.86740 0.36810 0.67024 -0.25900
N 	N 	0.82120 0.43550 0.84486 -0.26000
N 	N 	0.95240 0.33300 0.74384 -0.26600
O 	O 	0.12277 0.33840 0.73951 -0.34600
O 	O 	0.02798 0.33050 0.79307 -0.35000
O 	O 	0.04940 0.33230 0.69225 -0.33100
O 	O 	0.71230 0.36652 0.54100 -0.34900
O 	O 	0.79850 0.26674 0.54307 -0.34800
O 	O 	0.71930 0.19702 0.53000 -0.34400
O 	O 	0.63080 0.29500 0.53449 -0.35200
O 	O 	0.96530 0.31850 0.62956 -0.33600
O 	O 	0.89840 0.68021 0.77764 -0.33800
O 	O 	0.87190 0.58821 0.72376 -0.33800
O 	O 	0.81761 0.37394 0.90126 -0.33500
O 	O 	0.80160 0.48620 0.94145 -0.36000
O 	O 	0.80550 0.54310 0.88629 -0.34000
O 	O 	0.85700 0.61800 0.82433 -0.31700
O 	O 	0.91340 0.33620 0.57386 -0.34800
O 	O 	0.80757 0.38303 0.61376 -0.33700
Mn	Mn	0.13038 0.31852 0.80215 1.30800
Mn	Mn	0.31028 0.11302 0.78620 1.30700
Cu	Cu	0.97107 0.31323 0.07971 0.88200
Cu	Cu	0.17063 0.45192 0.93610 0.88300
C 	C 	0.05130 0.34480 0.96954 -0.25100
H 	H 	0.03810 0.38820 0.96840 0.12200
C 	C 	0.02190 0.30140 0.99621 0.20700
C 	C 	0.04350 0.23720 0.99890 -0.24200
H 	H 	0.02580 0.20960 0.01760 0.10300
C 	C 	0.09110 0.21440 0.97402 0.15100
H 	H 	0.10440 0.17110 0.97560 -0.02000
C 	C 	0.11960 0.25560 0.94638 -0.22200
H 	H 	0.15080 0.23950 0.92920 0.11900
C 	C 	0.10050 0.32190 0.94479 0.20000
C 	C 	0.92360 0.35600 0.00948 0.10300
C 	C 	0.87190 0.37310 0.03915 0.22500
C 	C 	0.13630 0.35820 0.88315 0.09400
C 	C 	0.16300 0.41640 0.86004 0.23600
C 	C 	0.11850 0.38800 0.04589 -0.26400
H 	H 	0.08480 0.41830 0.04780 0.12600
C 	C 	0.11860 0.33200 0.06992 0.21300
C 	C 	0.16970 0.28860 0.06623 -0.24400
H 	H 	0.17000 0.25130 0.08180 0.12200
C 	C 	0.22000 0.29830 0.04046 0.16100
H 	H 	0.25420 0.26840 0.03910 -0.03100
C 	C 	0.21950 0.35410 0.01599 -0.25300
H 	H 	0.25270 0.36100 0.99800 0.10500
C 	C 	0.16880 0.39760 0.01955 0.22000
C 	C 	0.07350 0.31540 0.13283 0.10400
C 	C 	0.00950 0.30680 0.15543 0.24100
C 	C 	0.16630 0.51160 0.00853 0.11700
C 	C 	0.16470 0.56620 0.97735 0.23900
C 	C 	0.18980 0.18930 0.78689 0.22700
C 	C 	0.24750 0.24020 0.78762 0.22500
N 	N 	0.97320 0.32400 0.02251 -0.26100
N 	N 	0.13190 0.36740 0.92024 -0.25900
N 	N 	0.06450 0.32120 0.09486 -0.26000
N 	N 	0.16700 0.45240 0.99384 -0.26500
O 	O 	0.16160 0.62277 0.98951 -0.34600
O 	O 	0.16950 0.52798 0.04307 -0.35000
O 	O 	0.16770 0.54940 0.94225 -0.33100
O 	O 	0.13348 0.21230 0.79100 -0.34900
O 	O 	0.23326 0.29850 0.79307 -0.34800
O 	O 	0.30298 0.21930 0.78000 -0.34400
O 	O 	0.20500 0.13080 0.78449 -0.35200
O 	O 	0.18150 0.46530 0.87956 -0.33600
O 	O 	0.81979 0.39840 0.02764 -0.33800
O 	O 	0.91179 0.37190 0.97376 -0.33800
O 	O 	0.12606 0.31761 0.15126 -0.33500
O 	O 	0.01380 0.30160 0.19145 -0.36000
O 	O 	0.95690 0.30550 0.13629 -0.34000
O 	O 	0.88200 0.35700 0.07433 -0.31700
O 	O 	0.16380 0.41340 0.82386 -0.34800
O 	O 	0.11697 0.30757 0.86376 -0.33700
Mn	Mn	0.86962 0.68148 0.30215 1.30800
Mn	Mn	0.68972 0.88698 0.28620 1.30700
Cu	Cu	0.02893 0.68677 0.57971 0.88200
Cu	Cu	0.82937 0.54808 0.43610 0.88300
C 	C 	0.94870 0.65520 0.46954 -0.25100
H 	H 	0.96190 0.61180 0.46840 0.12200
C 	C 	0.97810 0.69860 0.49621 0.20700
C 	C 	0.95650 0.76280 0.49890 -0.24200
H 	H 	0.97420 0.79040 0.51760 0.10300
C 	C 	0.90890 0.78560 0.47402 0.15100
H 	H 	0.89560 0.82890 0.47560 -0.02000
C 	C 	0.88040 0.74440 0.44638 -0.22200
H 	H 	0.84920 0.76050 0.42920 0.11900
C 	C 	0.89950 0.67810 0.44479 0.20000
C 	C 	0.07640 0.64400 0.50948 0.10300
C 	C 	0.12810 0.62690 0.53915 0.22500
C 	C 	0.86370 0.64180 0.38315 0.09400
C 	C 	0.83700 0.58360 0.36004 0.23600
C 	C 	0.88150 0.61200 0.54589 -0.26400
H 	H 	0.91520 0.58170 0.54780 0.12600
C 	C 	0.88140 0.66800 0.56992 0.21300
C 	C 	0.83030 0.71140 0.56623 -0.24400
H 	H 	0.83000 0.74870 0.58180 0.12200
C 	C 	0.78000 0.70170 0.54046 0.16100
H 	H 	0.74580 0.73160 0.53910 -0.03100
C 	C 	0.78050 0.64590 0.51599 -0.25300
H 	H 	0.74730 0.63900 0.49800 0.10500
C 	C 	0.83120 0.60240 0.51955 0.22000
C 	C 	0.92650 0.68460 0.63283 0.10400
C 	C 	0.99050 0.69320 0.65543 0.24100
C 	C 	0.83370 0.48840 0.50853 0.11700
C 	C 	0.83530 0.43380 0.47735 0.23900
C 	C 	0.81020 0.81070 0.28689 0.22700
C 	C 	0.75250 0.75980 0.28762 0.22500
N 	N 	0.02680 0.67600 0.52251 -0.26100
N 	N 	0.86810 0.63260 0.42024 -0.25900
N 	N 	0.93550 0.67880 0.59486 -0.26000
N 	N 	0.83300 0.54760 0.49384 -0.26500
O 	O 	0.83840 0.37723 0.48951 -0.34600
O 	O 	0.83050 0.47202 0.54307 -0.35000
O 	O 	0.83230 0.45060 0.44225 -0.33100
O 	O 	0.86652 0.78770 0.29100 -0.34900
O 	O 	0.76674 0.70150 0.29307 -0.34800
O 	O 	0.69702 0.78070 0.28000 -0.34400
O 	O 	0.79500 0.86920 0.28449 -0.35200
O 	O 	0.81850 0.53470 0.37956 -0.33600
O 	O 	0.18021 0.60160 0.52764 -0.33800
O 	O 	0.08821 0.62810 0.47376 -0.33800
O 	O 	0.87394 0.68239 0.65126 -0.33500
O 	O 	0.98620 0.69840 0.69145 -0.36000
O 	O 	0.04310 0.69450 0.63629 -0.34000
O 	O 	0.11800 0.64300 0.57433 -0.31700
O 	O 	0.83620 0.58660 0.32386 -0.34800
O 	O 	0.88303 0.69243 0.36376 -0.33700
