data_crystal

_cell_length_a 10.53850
_cell_length_b 10.77680
_cell_length_c 14.76940
_cell_angle_alpha 90.00000
_cell_angle_beta  108.72000
_cell_angle_gamma 90.00000

_symmetry_space_group_name_	'P 1'
_symmetry_space_group_name_H-M	'P 1'

loop_
_symmetry_equiv_pos_as_xyz
  x,y,z

loop_
_atom_site_label
_atom_site_type_symbol
_atom_site_fract_x
_atom_site_fract_y
_atom_site_fract_z
_atom_site_charge
Cu	Cu	0.09349 0.08595 0.01114 0.91200
Cu	Cu	0.90651 0.58595 0.48886 0.91500
Cu	Cu	0.90651 0.91405 0.98886 0.91200
Cu	Cu	0.09349 0.41405 0.51114 0.91500
H 	H 	0.05330 0.72530 0.77400 0.05900
H 	H 	0.57560 0.46990 0.93290 0.04000
H 	H 	0.39230 0.55100 0.77890 0.06500
H 	H 	0.39750 0.80100 0.98150 0.06200
H 	H 	0.93050 0.63610 0.03880 0.01900
H 	H 	0.60970 0.83900 0.93960 0.03300
H 	H 	0.80580 0.45810 0.00590 0.08000
H 	H 	0.94670 0.22530 0.72600 0.05700
H 	H 	0.42440 0.96990 0.56710 0.04300
H 	H 	0.60770 0.05100 0.72110 0.06400
H 	H 	0.60250 0.30100 0.51850 0.06100
H 	H 	0.06950 0.13610 0.46120 0.01900
H 	H 	0.39030 0.33900 0.56040 0.03400
H 	H 	0.19420 0.95810 0.49410 0.07900
H 	H 	0.94670 0.27470 0.22600 0.05900
H 	H 	0.42440 0.53010 0.06710 0.04000
H 	H 	0.60770 0.44900 0.22110 0.06500
H 	H 	0.60250 0.19900 0.01850 0.06200
H 	H 	0.06950 0.36390 0.96120 0.01900
H 	H 	0.39030 0.16100 0.06040 0.03300
H 	H 	0.19420 0.54190 0.99410 0.08000
H 	H 	0.05330 0.77470 0.27400 0.05700
H 	H 	0.57560 0.03010 0.43290 0.04300
H 	H 	0.39230 0.94900 0.27890 0.06400
H 	H 	0.39750 0.69900 0.48150 0.06100
H 	H 	0.93050 0.86390 0.53880 0.01900
H 	H 	0.60970 0.66100 0.43960 0.03400
H 	H 	0.80580 0.04190 0.50590 0.07900
C 	C 	0.13820 0.85980 0.93008 0.33600
C 	C 	0.56640 0.65810 0.93041 -0.02100
C 	C 	0.13800 0.57277 0.66616 0.33900
C 	C 	0.41820 0.67410 0.88591 0.02400
C 	C 	0.14480 0.71240 0.80217 0.00700
C 	C 	0.21290 0.77424 0.88555 -0.06300
C 	C 	0.62690 0.54180 0.94872 -0.00700
C 	C 	0.34810 0.60935 0.80428 -0.04100
C 	C 	0.35070 0.75707 0.92674 -0.04300
C 	C 	0.21170 0.63090 0.75961 -0.06400
C 	C 	0.83820 0.64190 0.01011 0.07100
C 	C 	0.64910 0.76090 0.95184 0.02600
C 	C 	0.76400 0.53490 0.99080 -0.10100
C 	C 	0.86180 0.35980 0.56992 0.33700
C 	C 	0.43360 0.15810 0.56959 -0.01800
C 	C 	0.86200 0.07277 0.83384 0.34400
C 	C 	0.58180 0.17410 0.61409 0.02200
C 	C 	0.85520 0.21240 0.69783 0.00900
C 	C 	0.78710 0.27424 0.61445 -0.06500
C 	C 	0.37310 0.04180 0.55128 -0.01200
C 	C 	0.65190 0.10935 0.69572 -0.03800
C 	C 	0.64930 0.25707 0.57326 -0.04100
C 	C 	0.78830 0.13090 0.74039 -0.06700
C 	C 	0.16180 0.14190 0.48989 0.06300
C 	C 	0.35090 0.26090 0.54816 0.02400
C 	C 	0.23600 0.03490 0.50920 -0.09600
C 	C 	0.86180 0.14020 0.06992 0.33600
C 	C 	0.43360 0.34190 0.06959 -0.02100
C 	C 	0.86200 0.42723 0.33384 0.33900
C 	C 	0.58180 0.32590 0.11409 0.02400
C 	C 	0.85520 0.28760 0.19783 0.00700
C 	C 	0.78710 0.22576 0.11445 -0.06300
C 	C 	0.37310 0.45820 0.05128 -0.00700
C 	C 	0.65190 0.39065 0.19572 -0.04100
C 	C 	0.64930 0.24293 0.07326 -0.04300
C 	C 	0.78830 0.36910 0.24039 -0.06400
C 	C 	0.16180 0.35810 0.98989 0.07100
C 	C 	0.35090 0.23910 0.04816 0.02600
C 	C 	0.23600 0.46510 0.00920 -0.10100
C 	C 	0.13820 0.64020 0.43008 0.33700
C 	C 	0.56640 0.84190 0.43041 -0.01800
C 	C 	0.13800 0.92723 0.16616 0.34400
C 	C 	0.41820 0.82590 0.38591 0.02200
C 	C 	0.14480 0.78760 0.30217 0.00900
C 	C 	0.21290 0.72576 0.38555 -0.06500
C 	C 	0.62690 0.95820 0.44872 -0.01200
C 	C 	0.34810 0.89065 0.30428 -0.03800
C 	C 	0.35070 0.74293 0.42674 -0.04100
C 	C 	0.21170 0.86910 0.25961 -0.06700
C 	C 	0.83820 0.85810 0.51011 0.06300
C 	C 	0.64910 0.73910 0.45184 0.02400
C 	C 	0.76400 0.96510 0.49080 -0.09600
N 	N 	0.78272 0.75448 0.98922 -0.17900
N 	N 	0.21728 0.25448 0.51078 -0.17600
N 	N 	0.21728 0.24552 0.01078 -0.17900
N 	N 	0.78272 0.74552 0.48922 -0.17600
O 	O 	0.19149 0.96243 0.96089 -0.38300
O 	O 	0.02568 0.82202 0.93227 -0.38700
O 	O 	0.19010 0.47991 0.63911 -0.38100
O 	O 	0.02801 0.62181 0.61923 -0.39800
O 	O 	0.80851 0.46243 0.53911 -0.38700
O 	O 	0.97432 0.32202 0.56773 -0.39000
O 	O 	0.80990 0.97991 0.86089 -0.38600
O 	O 	0.97199 0.12181 0.88077 -0.40000
O 	O 	0.80851 0.03757 0.03911 -0.38300
O 	O 	0.97432 0.17798 0.06773 -0.38700
O 	O 	0.80990 0.52009 0.36089 -0.38100
O 	O 	0.97199 0.37819 0.38077 -0.39800
O 	O 	0.19149 0.53757 0.46089 -0.38700
O 	O 	0.02568 0.67798 0.43227 -0.39000
O 	O 	0.19010 0.02009 0.13911 -0.38600
O 	O 	0.02801 0.87819 0.11923 -0.40000
