data_crystal

_cell_length_a 10.90800
_cell_length_b 12.43400
_cell_length_c 14.35400
_cell_angle_alpha 90.00000
_cell_angle_beta  107.49500
_cell_angle_gamma 90.00000

_symmetry_space_group_name_	'P 1'
_symmetry_space_group_name_H-M	'P 1'

loop_
_symmetry_equiv_pos_as_xyz
  x,y,z

loop_
_atom_site_label
_atom_site_type_symbol
_atom_site_fract_x
_atom_site_fract_y
_atom_site_fract_z
_atom_site_charge
Cu	Cu	0.90114 0.93281 0.97522 0.90600
Cu	Cu	0.09886 0.43281 0.52478 0.91200
Cu	Cu	0.09886 0.06719 0.02478 0.90500
Cu	Cu	0.90114 0.56719 0.47522 0.91100
H 	H 	0.88390 0.79910 0.44910 0.02500
H 	H 	0.52840 0.91740 0.34790 0.03900
H 	H 	0.58270 0.60020 0.40180 0.03200
H 	H 	0.36120 0.85940 0.22790 0.06800
H 	H 	0.03010 0.73750 0.25080 0.06400
H 	H 	0.36970 0.62780 0.42570 0.06700
H 	H 	0.11610 0.29910 0.05090 0.02400
H 	H 	0.47160 0.41740 0.15210 0.03900
H 	H 	0.41730 0.10020 0.09820 0.03100
H 	H 	0.63880 0.35940 0.27210 0.06700
H 	H 	0.96990 0.23750 0.24920 0.06500
H 	H 	0.63030 0.12780 0.07430 0.06700
H 	H 	0.11610 0.20090 0.55090 0.02500
H 	H 	0.47160 0.08260 0.65210 0.03900
H 	H 	0.41730 0.39980 0.59820 0.03200
H 	H 	0.63880 0.14060 0.77210 0.06800
H 	H 	0.96990 0.26250 0.74920 0.06400
H 	H 	0.63030 0.37220 0.57430 0.06700
H 	H 	0.88390 0.70090 0.94910 0.02400
H 	H 	0.52840 0.58260 0.84790 0.03900
H 	H 	0.58270 0.89980 0.90180 0.03100
H 	H 	0.36120 0.64060 0.72790 0.06700
H 	H 	0.03010 0.76250 0.75080 0.06500
H 	H 	0.36970 0.87220 0.92570 0.06700
C 	C 	0.79550 0.78820 0.42880 0.07900
C 	C 	0.58300 0.85900 0.36880 0.02600
C 	C 	0.53100 0.75600 0.36970 -0.02800
C 	C 	0.61530 0.66920 0.40070 0.03000
C 	C 	0.38760 0.74460 0.33270 0.03600
C 	C 	0.31830 0.81240 0.25770 -0.04900
C 	C 	0.18430 0.80910 0.22800 -0.05000
C 	C 	0.11940 0.73910 0.27120 0.00000
C 	C 	0.18840 0.67080 0.34550 -0.05000
C 	C 	0.32350 0.67350 0.37630 -0.04800
C 	C 	0.11380 0.88070 0.14390 0.33700
C 	C 	0.11930 0.60270 0.39990 0.32800
C 	C 	0.20450 0.28820 0.07120 0.07800
C 	C 	0.41700 0.35900 0.13120 0.02600
C 	C 	0.46900 0.25600 0.13030 -0.02800
C 	C 	0.38470 0.16920 0.09930 0.02900
C 	C 	0.61240 0.24460 0.16730 0.03600
C 	C 	0.68170 0.31240 0.24230 -0.04800
C 	C 	0.81570 0.30910 0.27200 -0.05000
C 	C 	0.88060 0.23910 0.22880 0.00000
C 	C 	0.81160 0.17080 0.15450 -0.04900
C 	C 	0.67650 0.17350 0.12370 -0.04900
C 	C 	0.88620 0.38070 0.35610 0.33800
C 	C 	0.88070 0.10270 0.10010 0.32700
C 	C 	0.20450 0.21180 0.57120 0.07900
C 	C 	0.41700 0.14100 0.63120 0.02600
C 	C 	0.46900 0.24400 0.63030 -0.02800
C 	C 	0.38470 0.33080 0.59930 0.03000
C 	C 	0.61240 0.25540 0.66730 0.03600
C 	C 	0.68170 0.18760 0.74230 -0.04900
C 	C 	0.81570 0.19090 0.77200 -0.05000
C 	C 	0.88060 0.26090 0.72880 0.00000
C 	C 	0.81160 0.32920 0.65450 -0.05000
C 	C 	0.67650 0.32650 0.62370 -0.04800
C 	C 	0.88620 0.11930 0.85610 0.33700
C 	C 	0.88070 0.39730 0.60010 0.32800
C 	C 	0.79550 0.71180 0.92880 0.07800
C 	C 	0.58300 0.64100 0.86880 0.02600
C 	C 	0.53100 0.74400 0.86970 -0.02800
C 	C 	0.61530 0.83080 0.90070 0.02900
C 	C 	0.38760 0.75540 0.83270 0.03600
C 	C 	0.31830 0.68760 0.75770 -0.04800
C 	C 	0.18430 0.69090 0.72800 -0.05000
C 	C 	0.11940 0.76090 0.77120 0.00000
C 	C 	0.18840 0.82920 0.84550 -0.04900
C 	C 	0.32350 0.82650 0.87630 -0.04900
C 	C 	0.11380 0.61930 0.64390 0.33800
C 	C 	0.11930 0.89730 0.89990 0.32700
N 	N 	0.74710 0.68580 0.42970 -0.17200
N 	N 	0.71400 0.87460 0.39830 -0.10700
N 	N 	0.25290 0.18580 0.07030 -0.17400
N 	N 	0.28600 0.37460 0.10170 -0.10700
N 	N 	0.25290 0.31420 0.57030 -0.17200
N 	N 	0.28600 0.12540 0.60170 -0.10700
N 	N 	0.74710 0.81420 0.92970 -0.17400
N 	N 	0.71400 0.62540 0.89830 -0.10700
O 	O 	0.00290 0.84980 0.09175 -0.37800
O 	O 	0.16970 0.96430 0.13242 -0.39100
O 	O 	0.00760 0.63410 0.39921 -0.38100
O 	O 	0.17500 0.51910 0.44150 -0.38400
O 	O 	0.99710 0.34980 0.40825 -0.38000
O 	O 	0.83030 0.46430 0.36758 -0.39400
O 	O 	0.99240 0.13410 0.10079 -0.37700
O 	O 	0.82500 0.01910 0.05850 -0.38100
O 	O 	0.99710 0.15020 0.90825 -0.37800
O 	O 	0.83030 0.03570 0.86758 -0.39100
O 	O 	0.99240 0.36590 0.60079 -0.38100
O 	O 	0.82500 0.48090 0.55850 -0.38400
O 	O 	0.00290 0.65020 0.59175 -0.38000
O 	O 	0.16970 0.53570 0.63242 -0.39400
O 	O 	0.00760 0.86590 0.89921 -0.37700
O 	O 	0.17500 0.98090 0.94150 -0.38100
