data_crystal

_cell_length_a 23.62510
_cell_length_b 10.25280
_cell_length_c 7.81990
_cell_angle_alpha 90.00000
_cell_angle_beta  90.00000
_cell_angle_gamma 90.00000

_symmetry_space_group_name_	'P 1'
_symmetry_space_group_name_H-M	'P 1'

loop_
_symmetry_equiv_pos_as_xyz
  x,y,z

loop_
_atom_site_label
_atom_site_type_symbol
_atom_site_fract_x
_atom_site_fract_y
_atom_site_fract_z
_atom_site_charge
O 	O 	0.04700 0.35350 0.07720 -0.28300
O 	O 	0.54700 0.85350 0.07720 -0.32800
O 	O 	0.95300 0.64650 0.57720 -0.31300
O 	O 	0.45300 0.14650 0.57720 -0.31500
O 	O 	0.95300 0.35350 0.42280 -0.30300
O 	O 	0.45300 0.85350 0.42280 -0.37100
O 	O 	0.04700 0.64650 0.92280 -0.39300
O 	O 	0.54700 0.14650 0.92280 -0.37200
O 	O 	0.95300 0.64650 0.92280 -0.36600
O 	O 	0.45300 0.14650 0.92280 -0.37200
O 	O 	0.04700 0.35350 0.42280 -0.33000
O 	O 	0.54700 0.85350 0.42280 -0.37100
O 	O 	0.04700 0.64650 0.57720 -0.34000
O 	O 	0.54700 0.14650 0.57720 -0.31500
O 	O 	0.95300 0.35350 0.07720 -0.25700
O 	O 	0.45300 0.85350 0.07720 -0.32800
Cs	Cs	0.31159 0.31699 0.25000 0.72000
Cd	Cd	0.12428 0.40048 0.25000 1.23100
Br	Br	0.16916 0.16625 0.25000 -0.49400
O 	O 	0.08290 0.61380 0.25000 -0.26700
Cs	Cs	0.81159 0.81699 0.25000 0.69600
Cd	Cd	0.62428 0.90048 0.25000 1.19400
Br	Br	0.66916 0.66625 0.25000 -0.57400
O 	O 	0.58290 0.11380 0.25000 -0.21400
Cs	Cs	0.68841 0.68301 0.75000 0.67900
Cd	Cd	0.87572 0.59952 0.75000 1.21500
Br	Br	0.83084 0.83375 0.75000 -0.69800
O 	O 	0.91710 0.38620 0.75000 -0.29700
Cs	Cs	0.18841 0.18301 0.75000 0.70200
Cd	Cd	0.37572 0.09952 0.75000 1.22600
Br	Br	0.33084 0.33375 0.75000 -0.62500
O 	O 	0.41710 0.88620 0.75000 -0.37000
Cs	Cs	0.68841 0.31699 0.25000 0.72000
Cd	Cd	0.87572 0.40048 0.25000 1.23200
Br	Br	0.83084 0.16625 0.25000 -0.48700
O 	O 	0.91710 0.61380 0.25000 -0.25400
Cs	Cs	0.18841 0.81699 0.25000 0.69400
Cd	Cd	0.37572 0.90048 0.25000 1.19400
Br	Br	0.33084 0.66625 0.25000 -0.57400
O 	O 	0.41710 0.11380 0.25000 -0.21400
Cs	Cs	0.31159 0.68301 0.75000 0.67900
Cd	Cd	0.12428 0.59952 0.75000 1.21400
Br	Br	0.16916 0.83375 0.75000 -0.70600
O 	O 	0.08290 0.38620 0.75000 -0.30900
Cs	Cs	0.81159 0.18301 0.75000 0.70300
Cd	Cd	0.62428 0.09952 0.75000 1.22600
Br	Br	0.66916 0.33375 0.75000 -0.62500
O 	O 	0.58290 0.88620 0.75000 -0.37000
Br	Br	0.19264 0.50000 -0.00000 -0.58200
Br	Br	0.69264 0.00000 -0.00000 -0.48000
Br	Br	0.80736 0.50000 0.50000 -0.68700
Br	Br	0.30736 -0.00000 0.50000 -0.59100
Br	Br	0.80736 0.50000 -0.00000 -0.58200
Br	Br	0.30736 0.00000 -0.00000 -0.48100
Br	Br	0.19264 0.50000 0.50000 -0.68800
Br	Br	0.69264 -0.00000 0.50000 -0.59000
C 	C 	0.00000 0.35380 0.15000 0.20500
C 	C 	0.50000 0.85380 0.15000 0.22500
C 	C 	0.00000 0.64620 0.65000 0.19200
C 	C 	0.50000 0.14620 0.65000 0.24300
C 	C 	0.00000 0.35380 0.35000 0.21700
C 	C 	0.50000 0.85380 0.35000 0.23700
C 	C 	0.00000 0.64620 0.85000 0.21000
C 	C 	0.50000 0.14620 0.85000 0.26200
