data_crystal

_cell_length_a 10.65800
_cell_length_b 18.46130
_cell_length_c 21.09200
_cell_angle_alpha 89.06800
_cell_angle_beta  88.11900
_cell_angle_gamma 85.21500

_symmetry_space_group_name_	'P 1'
_symmetry_space_group_name_H-M	'P 1'

loop_
_symmetry_equiv_pos_as_xyz
  x,y,z

loop_
_atom_site_label
_atom_site_type_symbol
_atom_site_fract_x
_atom_site_fract_y
_atom_site_fract_z
_atom_site_charge
Cu	Cu	0.50504 0.57171 0.87954 0.91000
Cu	Cu	0.36203 0.49523 0.99446 0.93600
Cu	Cu	0.13851 0.00690 0.49590 0.96700
O 	O 	0.49360 0.56372 0.97151 -0.55300
O 	O 	0.25870 0.03771 0.55423 -0.39500
O 	O 	0.22800 0.56199 0.96316 -0.38200
O 	O 	0.71940 0.03896 0.55174 -0.39000
O 	O 	0.77050 0.54822 0.95397 -0.38700
O 	O 	0.32430 0.59330 0.87156 -0.43200
O 	O 	0.35290 0.42740 0.91307 -0.34800
O 	O 	0.14500 0.13360 0.59740 -0.48700
C 	C 	0.76380 0.59060 0.90708 0.38400
C 	C 	0.36080 0.11890 0.61590 -0.10400
O 	O 	0.54300 0.45580 0.87667 -0.39900
C 	C 	0.35120 0.17230 0.66120 0.01500
H 	H 	0.27050 0.19080 0.67700 0.04000
O 	O 	0.80010 0.12900 0.60200 -0.49200
C 	C 	0.24550 0.09350 0.58720 0.38300
C 	C 	0.99640 0.59710 0.90953 0.05200
H 	H 	0.99810 0.56730 0.94670 0.05300
C 	C 	0.10750 0.61940 0.88230 -0.10700
C 	C 	0.88290 0.61900 0.88186 -0.11000
C 	C 	0.45890 0.19950 0.68390 -0.04100
C 	C 	0.45180 0.25730 0.73200 0.08300
C 	C 	0.71260 0.09240 0.58755 0.40300
C 	C 	0.88070 0.66420 0.82870 0.02400
H 	H 	0.80230 0.67990 0.81080 0.03400
C 	C 	0.57610 0.17160 0.65920 0.01700
H 	H 	0.65050 0.19000 0.67370 0.03900
C 	C 	0.99140 0.68690 0.80110 -0.05100
C 	C 	0.10530 0.66340 0.82890 0.02400
H 	H 	0.18210 0.67790 0.81070 0.03200
C 	C 	0.23040 0.58960 0.90780 0.38200
C 	C 	0.36150 0.25940 0.78120 -0.12000
H 	H 	0.30030 0.22480 0.78280 0.07700
C 	C 	0.47810 0.09000 0.59280 0.05000
H 	H 	0.48470 0.05180 0.56290 0.05400
C 	C 	0.44850 0.41990 0.87520 0.33400
C 	C 	0.44720 0.36320 0.82530 -0.10700
C 	C 	0.53630 0.31030 0.72890 -0.12200
H 	H 	0.59600 0.31100 0.69450 0.07800
C 	C 	0.35990 0.31110 0.82740 0.05300
H 	H 	0.29860 0.31130 0.86120 0.03700
C 	C 	0.53480 0.36210 0.77550 0.05000
H 	H 	0.59470 0.39750 0.77320 0.02600
O 	O 	0.66550 0.61300 0.87976 -0.43000
C 	C 	0.58560 0.11850 0.61480 -0.11200
O 	O 	0.95750 0.23890 0.56320 -0.85200
C 	C 	0.93080 0.26220 0.62520 -0.43900
C 	C 	0.99700 0.00370 0.62600 -0.35400
C 	C 	0.46960 0.63830 0.99400 0.20800
O 	O 	0.99300 0.02793 0.55637 -0.20000
Cu	Cu	0.97378 0.13202 0.56644 0.86200
O 	O 	0.07230 0.85390 0.53140 -0.29500
C 	C 	0.88390 0.77600 0.72600 -0.08100
H 	H 	0.81340 0.78010 0.75480 0.08000
C 	C 	0.98900 0.73120 0.74080 0.34900
C 	C 	0.88030 0.81510 0.66970 -0.01400
H 	H 	0.80600 0.84430 0.65950 0.01300
C 	C 	0.98160 0.81230 0.62850 -0.09400
C 	C 	0.97570 0.85510 0.56640 0.26800
C 	C 	0.09040 0.72860 0.69850 -0.27900
H 	H 	0.16370 0.69780 0.70760 0.12400
C 	C 	0.08780 0.76960 0.64350 0.12200
H 	H 	0.16010 0.76820 0.61580 0.01100
O 	O 	0.87320 0.88970 0.55485 -0.20700
O 	O 	0.42760 0.69700 0.01670 -0.21700
O 	O 	0.95940 0.23300 0.59310 0.71300
C 	C 	0.85600 0.28660 0.57930 0.29500
C 	C 	0.87200 0.77400 0.73300 -0.03800
H 	H 	0.80430 0.74410 0.73950 0.01500
C 	C 	0.86500 0.82900 0.68760 0.05100
H 	H 	0.79250 0.83750 0.66300 0.02700
C 	C 	0.96500 0.87260 0.67830 -0.02800
C 	C 	0.07200 0.86050 0.71440 -0.07100
H 	H 	0.14010 0.89010 0.70800 0.07600
C 	C 	0.07900 0.80500 0.75980 0.08400
H 	H 	0.15190 0.79670 0.78440 0.01100
C 	C 	0.97900 0.76160 0.76910 -0.26400
O 	O 	0.03800 0.96440 0.61990 -0.07900
C 	C 	0.95000 0.92790 0.62400 0.31200
O 	O 	0.86700 0.92660 0.59470 -0.27100
Cu	Cu	0.98380 0.07670 0.61820 0.84900
O 	O 	0.98300 0.06340 0.53130 -0.53000
O 	O 	0.03130 0.98130 0.67620 -0.12000
Cu	Cu	0.49496 0.42829 0.12046 0.90900
Cu	Cu	0.63797 0.50477 0.00554 0.93500
Cu	Cu	0.86149 0.99310 0.50410 0.96600
O 	O 	0.50640 0.43628 0.02849 -0.55400
O 	O 	0.74130 0.96229 0.44577 -0.39600
O 	O 	0.77200 0.43801 0.03684 -0.38300
O 	O 	0.28060 0.96104 0.44826 -0.39100
O 	O 	0.22950 0.45178 0.04603 -0.38800
O 	O 	0.67570 0.40670 0.12844 -0.43300
O 	O 	0.64710 0.57260 0.08693 -0.34900
O 	O 	0.85500 0.86640 0.40260 -0.48700
C 	C 	0.23620 0.40940 0.09292 0.38400
C 	C 	0.63920 0.88110 0.38410 -0.10400
O 	O 	0.45700 0.54420 0.12333 -0.39900
C 	C 	0.64880 0.82770 0.33880 0.01500
H 	H 	0.72950 0.80920 0.32300 0.04000
O 	O 	0.19990 0.87100 0.39800 -0.49200
C 	C 	0.75450 0.90650 0.41280 0.38300
C 	C 	0.00360 0.40290 0.09047 0.05200
H 	H 	0.00190 0.43270 0.05330 0.05300
C 	C 	0.89250 0.38060 0.11770 -0.10700
C 	C 	0.11710 0.38100 0.11814 -0.11000
C 	C 	0.54110 0.80050 0.31610 -0.04100
C 	C 	0.54820 0.74270 0.26800 0.08300
C 	C 	0.28740 0.90760 0.41245 0.40300
C 	C 	0.11930 0.33580 0.17130 0.02400
H 	H 	0.19770 0.32010 0.18920 0.03400
C 	C 	0.42390 0.82840 0.34080 0.01700
H 	H 	0.34950 0.81000 0.32630 0.03900
C 	C 	0.00860 0.31310 0.19890 -0.05100
C 	C 	0.89470 0.33660 0.17110 0.02400
H 	H 	0.81790 0.32210 0.18930 0.03200
C 	C 	0.76960 0.41040 0.09220 0.38200
C 	C 	0.63850 0.74060 0.21880 -0.12000
H 	H 	0.69970 0.77520 0.21720 0.07700
C 	C 	0.52190 0.91000 0.40720 0.05000
H 	H 	0.51530 0.94820 0.43710 0.05400
C 	C 	0.55150 0.58010 0.12480 0.33400
C 	C 	0.55280 0.63680 0.17470 -0.10700
C 	C 	0.46370 0.68970 0.27110 -0.12200
H 	H 	0.40400 0.68900 0.30550 0.07800
C 	C 	0.64010 0.68890 0.17260 0.05300
H 	H 	0.70140 0.68870 0.13880 0.03700
C 	C 	0.46520 0.63790 0.22450 0.05000
H 	H 	0.40530 0.60250 0.22680 0.02600
O 	O 	0.33450 0.38700 0.12024 -0.43000
C 	C 	0.41440 0.88150 0.38520 -0.11200
O 	O 	0.04250 0.76110 0.43680 -0.85200
C 	C 	0.06920 0.73780 0.37480 -0.43900
C 	C 	0.00300 0.99630 0.37400 -0.35400
C 	C 	0.53040 0.36170 0.00600 0.20800
O 	O 	0.00700 0.97207 0.44363 -0.20000
Cu	Cu	0.02622 0.86798 0.43356 0.86200
O 	O 	0.92770 0.14610 0.46860 -0.29500
C 	C 	0.11610 0.22400 0.27400 -0.08100
H 	H 	0.18660 0.21990 0.24520 0.08000
C 	C 	0.01100 0.26880 0.25920 0.34900
C 	C 	0.11970 0.18490 0.33030 -0.01400
H 	H 	0.19400 0.15570 0.34050 0.01300
C 	C 	0.01840 0.18770 0.37150 -0.09400
C 	C 	0.02430 0.14490 0.43360 0.26800
C 	C 	0.90960 0.27140 0.30150 -0.27900
H 	H 	0.83630 0.30220 0.29240 0.12400
C 	C 	0.91220 0.23040 0.35650 0.12200
H 	H 	0.83990 0.23180 0.38420 0.01100
O 	O 	0.12680 0.11030 0.44515 -0.20700
O 	O 	0.57240 0.30300 0.98330 -0.21700
O 	O 	0.04060 0.76700 0.40690 0.71300
C 	C 	0.14400 0.71340 0.42070 0.29500
C 	C 	0.12800 0.22600 0.26700 -0.03800
H 	H 	0.19570 0.25590 0.26050 0.01500
C 	C 	0.13500 0.17100 0.31240 0.05100
H 	H 	0.20750 0.16250 0.33700 0.02700
C 	C 	0.03500 0.12740 0.32170 -0.02800
C 	C 	0.92800 0.13950 0.28560 -0.07100
H 	H 	0.85990 0.10990 0.29200 0.07600
C 	C 	0.92100 0.19500 0.24020 0.08400
H 	H 	0.84810 0.20330 0.21560 0.01100
C 	C 	0.02100 0.23840 0.23090 -0.26400
O 	O 	0.96200 0.03560 0.38010 -0.07900
C 	C 	0.05000 0.07210 0.37600 0.31200
O 	O 	0.13300 0.07340 0.40530 -0.27100
Cu	Cu	0.01620 0.92330 0.38180 0.84900
O 	O 	0.01700 0.93660 0.46870 -0.53000
O 	O 	0.96870 0.01870 0.32380 -0.12000
