data_crystal

_cell_length_a 24.81400
_cell_length_b 18.45800
_cell_length_c 10.25720
_cell_angle_alpha 90.00000
_cell_angle_beta  90.00000
_cell_angle_gamma 90.00000

_symmetry_space_group_name_	'P 1'
_symmetry_space_group_name_H-M	'P 1'

loop_
_symmetry_equiv_pos_as_xyz
  x,y,z

loop_
_atom_site_label
_atom_site_type_symbol
_atom_site_fract_x
_atom_site_fract_y
_atom_site_fract_z
_atom_site_charge
Ga	Ga	0.43750 0.91578 0.11277 2.06300
Ga	Ga	0.33839 0.15286 0.92770 2.08000
Zn	Zn	0.55936 0.93034 0.37861 1.23700
Ga	Ga	0.23536 0.08295 0.60171 2.08900
Ga	Ga	0.34615 0.82721 0.59097 2.08800
Ga	Ga	0.24147 0.89312 0.89762 2.09000
Ga	Ga	0.27631 0.70236 0.91842 2.09400
Ga	Ga	0.23191 0.77191 0.42260 2.10000
P 	P 	0.23253 0.06490 0.89600 0.65000
P 	P 	0.43785 0.90392 0.41490 0.61700
P 	P 	0.43573 0.08428 0.08020 0.64000
P 	P 	0.23462 0.91030 0.60540 0.65500
P 	P 	0.36066 0.83174 0.90570 0.66500
P 	P 	0.64541 0.85511 0.57890 0.62000
P 	P 	0.30016 0.67990 0.62230 0.63400
P 	P 	0.29142 0.29451 0.87540 0.63900
F 	F 	0.24670 0.78830 0.83290 -0.84000
F 	F 	0.23740 0.18780 0.66690 -0.82100
F 	F 	0.30710 0.81230 0.41850 -0.78600
O 	O 	0.29170 0.08600 0.86810 -0.71700
O 	O 	0.20400 0.06410 0.76120 -0.56400
O 	O 	0.23200 0.99000 0.95830 -0.54600
O 	O 	0.20250 0.11770 0.98390 -0.52400
O 	O 	0.49610 0.90500 0.46530 -0.46200
O 	O 	0.41220 0.97950 0.41920 -0.52700
O 	O 	0.43630 0.87310 0.27640 -0.65300
O 	O 	0.40860 0.85410 0.50560 -0.54900
O 	O 	0.40400 0.13130 0.98660 -0.60100
O 	O 	0.42850 0.11440 0.21960 -0.49500
O 	O 	0.41330 0.00650 0.07260 -0.70500
O 	O 	0.49440 0.08990 0.03670 -0.63200
O 	O 	0.20660 0.85540 0.51950 -0.50600
O 	O 	0.29490 0.89520 0.62860 -0.68400
O 	O 	0.22810 0.98420 0.54150 -0.52500
O 	O 	0.20700 0.90860 0.74150 -0.57000
O 	O 	0.34500 0.75390 0.93020 -0.52500
O 	O 	0.40690 0.84870 0.99940 -0.56800
O 	O 	0.38050 0.84410 0.76620 -0.51500
O 	O 	0.31460 0.88590 0.93670 -0.63300
O 	O 	0.69220 0.90920 0.55860 -0.60800
O 	O 	0.66170 0.77660 0.57350 -0.51400
O 	O 	0.61950 0.87000 0.71320 -0.35800
O 	O 	0.60400 0.86750 0.47240 -0.39300
O 	O 	0.35000 0.72790 0.60980 -0.57800
O 	O 	0.25000 0.72250 0.58330 -0.59500
O 	O 	0.30830 0.61340 0.53540 -0.53800
O 	O 	0.29440 0.65260 0.76230 -0.51400
O 	O 	0.28340 0.32270 0.73770 -0.48800
O 	O 	0.34220 0.24730 0.88180 -0.61200
O 	O 	0.30050 0.36030 0.96390 -0.54400
O 	O 	0.24350 0.25010 0.91950 -0.60800
O 	O 	0.30030 0.16580 0.09620 -0.65600
Ga	Ga	0.56250 0.08422 0.11277 2.06200
Ga	Ga	0.66161 0.84714 0.92770 2.07900
Zn	Zn	0.44064 0.06966 0.37861 1.23600
Ga	Ga	0.76464 0.91705 0.60171 2.08800
Ga	Ga	0.65385 0.17279 0.59097 2.08700
Ga	Ga	0.75853 0.10688 0.89762 2.08900
Ga	Ga	0.72369 0.29764 0.91842 2.09300
Ga	Ga	0.76809 0.22809 0.42260 2.09900
P 	P 	0.76747 0.93510 0.89600 0.65000
P 	P 	0.56215 0.09608 0.41490 0.61700
P 	P 	0.56427 0.91572 0.08020 0.64000
P 	P 	0.76538 0.08970 0.60540 0.65500
P 	P 	0.63934 0.16826 0.90570 0.66500
P 	P 	0.35459 0.14489 0.57890 0.62000
P 	P 	0.69984 0.32010 0.62230 0.63400
P 	P 	0.70858 0.70549 0.87540 0.63900
F 	F 	0.75330 0.21170 0.83290 -0.84000
F 	F 	0.76260 0.81220 0.66690 -0.82100
F 	F 	0.69290 0.18770 0.41850 -0.78600
O 	O 	0.70830 0.91400 0.86810 -0.71700
O 	O 	0.79600 0.93590 0.76120 -0.56400
O 	O 	0.76800 0.01000 0.95830 -0.54600
O 	O 	0.79750 0.88230 0.98390 -0.52400
O 	O 	0.50390 0.09500 0.46530 -0.46200
O 	O 	0.58780 0.02050 0.41920 -0.52700
O 	O 	0.56370 0.12690 0.27640 -0.65300
O 	O 	0.59140 0.14590 0.50560 -0.54900
O 	O 	0.59600 0.86870 0.98660 -0.60100
O 	O 	0.57150 0.88560 0.21960 -0.49500
O 	O 	0.58670 0.99350 0.07260 -0.70500
O 	O 	0.50560 0.91010 0.03670 -0.63200
O 	O 	0.79340 0.14460 0.51950 -0.50600
O 	O 	0.70510 0.10480 0.62860 -0.68400
O 	O 	0.77190 0.01580 0.54150 -0.52500
O 	O 	0.79300 0.09140 0.74150 -0.57000
O 	O 	0.65500 0.24610 0.93020 -0.52500
O 	O 	0.59310 0.15130 0.99940 -0.56800
O 	O 	0.61950 0.15590 0.76620 -0.51500
O 	O 	0.68540 0.11410 0.93670 -0.63300
O 	O 	0.30780 0.09080 0.55860 -0.60800
O 	O 	0.33830 0.22340 0.57350 -0.51400
O 	O 	0.38050 0.13000 0.71320 -0.35800
O 	O 	0.39600 0.13250 0.47240 -0.39300
O 	O 	0.65000 0.27210 0.60980 -0.57800
O 	O 	0.75000 0.27750 0.58330 -0.59500
O 	O 	0.69170 0.38660 0.53540 -0.53800
O 	O 	0.70560 0.34740 0.76230 -0.51400
O 	O 	0.71660 0.67730 0.73770 -0.48800
O 	O 	0.65780 0.75270 0.88180 -0.61200
O 	O 	0.69950 0.63970 0.96390 -0.54400
O 	O 	0.75650 0.74990 0.91950 -0.60800
O 	O 	0.69970 0.83420 0.09620 -0.65600
Ga	Ga	0.06250 0.41578 0.88723 2.06200
Ga	Ga	0.16161 0.65286 0.07230 2.07900
Zn	Zn	0.94064 0.43034 0.62139 1.23600
Ga	Ga	0.26464 0.58295 0.39829 2.08800
Ga	Ga	0.15385 0.32721 0.40903 2.08700
Ga	Ga	0.25853 0.39312 0.10238 2.08900
Ga	Ga	0.22369 0.20236 0.08158 2.09300
Ga	Ga	0.26809 0.27191 0.57740 2.09900
P 	P 	0.26747 0.56490 0.10400 0.65000
P 	P 	0.06215 0.40392 0.58510 0.61700
P 	P 	0.06427 0.58428 0.91980 0.64000
P 	P 	0.26538 0.41030 0.39460 0.65500
P 	P 	0.13934 0.33174 0.09430 0.66500
P 	P 	0.85459 0.35511 0.42110 0.62000
P 	P 	0.19984 0.17990 0.37770 0.63400
P 	P 	0.20858 0.79451 0.12460 0.63900
F 	F 	0.25330 0.28830 0.16710 -0.84000
F 	F 	0.26260 0.68780 0.33310 -0.82100
F 	F 	0.19290 0.31230 0.58150 -0.78600
O 	O 	0.20830 0.58600 0.13190 -0.71600
O 	O 	0.29600 0.56410 0.23880 -0.56400
O 	O 	0.26800 0.49000 0.04170 -0.54700
O 	O 	0.29750 0.61770 0.01610 -0.52300
O 	O 	0.00390 0.40500 0.53470 -0.46300
O 	O 	0.08780 0.47950 0.58080 -0.52600
O 	O 	0.06370 0.37310 0.72360 -0.65300
O 	O 	0.09140 0.35410 0.49440 -0.54900
O 	O 	0.09600 0.63130 0.01340 -0.60100
O 	O 	0.07150 0.61440 0.78040 -0.49500
O 	O 	0.08670 0.50650 0.92740 -0.70400
O 	O 	0.00560 0.58990 0.96330 -0.63200
O 	O 	0.29340 0.35540 0.48050 -0.50600
O 	O 	0.20510 0.39520 0.37140 -0.68400
O 	O 	0.27190 0.48420 0.45850 -0.52500
O 	O 	0.29300 0.40860 0.25850 -0.57000
O 	O 	0.15500 0.25390 0.06980 -0.52600
O 	O 	0.09310 0.34870 0.00060 -0.56800
O 	O 	0.11950 0.34410 0.23380 -0.51500
O 	O 	0.18540 0.38590 0.06330 -0.63300
O 	O 	0.80780 0.40920 0.44140 -0.60800
O 	O 	0.83830 0.27660 0.42650 -0.51400
O 	O 	0.88050 0.37000 0.28680 -0.35800
O 	O 	0.89600 0.36750 0.52760 -0.39300
O 	O 	0.15000 0.22790 0.39020 -0.57900
O 	O 	0.25000 0.22250 0.41670 -0.59500
O 	O 	0.19170 0.11340 0.46460 -0.53900
O 	O 	0.20560 0.15260 0.23770 -0.51500
O 	O 	0.21660 0.82270 0.26230 -0.48800
O 	O 	0.15780 0.74730 0.11820 -0.61200
O 	O 	0.19950 0.86030 0.03610 -0.54400
O 	O 	0.25650 0.75010 0.08050 -0.60800
O 	O 	0.19970 0.66580 0.90380 -0.65600
Ga	Ga	0.93750 0.58422 0.88723 2.06200
Ga	Ga	0.83839 0.34714 0.07230 2.07900
Zn	Zn	0.05936 0.56966 0.62139 1.23600
Ga	Ga	0.73536 0.41705 0.39829 2.08800
Ga	Ga	0.84615 0.67279 0.40903 2.08700
Ga	Ga	0.74147 0.60688 0.10238 2.08900
Ga	Ga	0.77631 0.79764 0.08158 2.09300
Ga	Ga	0.73191 0.72809 0.57740 2.09900
P 	P 	0.73253 0.43510 0.10400 0.65000
P 	P 	0.93785 0.59608 0.58510 0.61700
P 	P 	0.93573 0.41572 0.91980 0.64000
P 	P 	0.73462 0.58970 0.39460 0.65500
P 	P 	0.86066 0.66826 0.09430 0.66500
P 	P 	0.14541 0.64489 0.42110 0.62000
P 	P 	0.80016 0.82010 0.37770 0.63400
P 	P 	0.79142 0.20549 0.12460 0.63900
F 	F 	0.74670 0.71170 0.16710 -0.84000
F 	F 	0.73740 0.31220 0.33310 -0.82100
F 	F 	0.80710 0.68770 0.58150 -0.78600
O 	O 	0.79170 0.41400 0.13190 -0.71600
O 	O 	0.70400 0.43590 0.23880 -0.56400
O 	O 	0.73200 0.51000 0.04170 -0.54700
O 	O 	0.70250 0.38230 0.01610 -0.52300
O 	O 	0.99610 0.59500 0.53470 -0.46300
O 	O 	0.91220 0.52050 0.58080 -0.52600
O 	O 	0.93630 0.62690 0.72360 -0.65300
O 	O 	0.90860 0.64590 0.49440 -0.54900
O 	O 	0.90400 0.36870 0.01340 -0.60100
O 	O 	0.92850 0.38560 0.78040 -0.49500
O 	O 	0.91330 0.49350 0.92740 -0.70400
O 	O 	0.99440 0.41010 0.96330 -0.63200
O 	O 	0.70660 0.64460 0.48050 -0.50600
O 	O 	0.79490 0.60480 0.37140 -0.68400
O 	O 	0.72810 0.51580 0.45850 -0.52500
O 	O 	0.70700 0.59140 0.25850 -0.57000
O 	O 	0.84500 0.74610 0.06980 -0.52600
O 	O 	0.90690 0.65130 0.00060 -0.56800
O 	O 	0.88050 0.65590 0.23380 -0.51500
O 	O 	0.81460 0.61410 0.06330 -0.63300
O 	O 	0.19220 0.59080 0.44140 -0.60800
O 	O 	0.16170 0.72340 0.42650 -0.51400
O 	O 	0.11950 0.63000 0.28680 -0.35800
O 	O 	0.10400 0.63250 0.52760 -0.39300
O 	O 	0.85000 0.77210 0.39020 -0.57900
O 	O 	0.75000 0.77750 0.41670 -0.59500
O 	O 	0.80830 0.88660 0.46460 -0.53900
O 	O 	0.79440 0.84740 0.23770 -0.51500
O 	O 	0.78340 0.17730 0.26230 -0.48800
O 	O 	0.84220 0.25270 0.11820 -0.61200
O 	O 	0.80050 0.13970 0.03610 -0.54400
O 	O 	0.74350 0.24990 0.08050 -0.60800
O 	O 	0.80030 0.33420 0.90380 -0.65600
