data_crystal

_cell_length_a 15.48390
_cell_length_b 16.35410
_cell_length_c 16.35410
_cell_angle_alpha 69.47610
_cell_angle_beta  71.60320
_cell_angle_gamma 108.39700

_symmetry_space_group_name_	'P 1'
_symmetry_space_group_name_H-M	'P 1'

loop_
_symmetry_equiv_pos_as_xyz
  x,y,z

loop_
_atom_site_label
_atom_site_type_symbol
_atom_site_fract_x
_atom_site_fract_y
_atom_site_fract_z
_atom_site_charge
Mn	Mn	0.59221 0.68442 0.65779 1.26000
Mn	Mn	0.25000 0.65779 0.65779 1.26000
Mn	Mn	0.90779 0.65779 0.68442 1.26000
Mn	Mn	0.40779 0.31558 0.34221 1.26000
Mn	Mn	0.75000 0.34221 0.34221 1.25900
Mn	Mn	0.09221 0.34221 0.31558 1.25900
Mn	Mn	0.75000 0.59284 0.59284 1.18500
Mn	Mn	0.34284 0.59284 0.81432 1.18500
Mn	Mn	0.15716 0.81432 0.59284 1.18400
Mn	Mn	0.25000 0.40716 0.40716 1.18500
Mn	Mn	0.65716 0.40716 0.18568 1.18500
Mn	Mn	0.84284 0.18568 0.40716 1.18400
H 	H 	0.61720 0.43930 0.97380 0.02700
H 	H 	0.59100 0.97380 0.58690 0.02700
H 	H 	0.17790 0.58690 0.43930 0.02700
H 	H 	0.90900 0.58690 0.97380 0.02600
H 	H 	0.32210 0.43930 0.58690 0.02700
H 	H 	0.88280 0.97380 0.43930 0.02700
H 	H 	0.38280 0.56070 0.02620 0.02700
H 	H 	0.40900 0.02620 0.41310 0.02700
H 	H 	0.82210 0.41310 0.56070 0.02700
H 	H 	0.09100 0.41310 0.02620 0.02600
H 	H 	0.67790 0.56070 0.41310 0.02700
H 	H 	0.11720 0.02620 0.56070 0.02700
C 	C 	0.57667 0.53798 0.90346 -0.13600
C 	C 	0.66204 0.57259 0.80325 0.39500
C 	C 	0.56895 0.46362 0.98492 -0.05500
C 	C 	0.50726 0.57658 0.91752 0.05800
C 	C 	0.48013 0.90346 0.55856 -0.13600
C 	C 	0.46529 0.80325 0.62416 0.39500
C 	C 	0.55387 0.98492 0.55146 -0.05500
C 	C 	0.42478 0.91752 0.50590 0.05800
C 	C 	0.03869 0.55856 0.53798 -0.13700
C 	C 	0.08945 0.62416 0.57259 0.39500
C 	C 	0.10533 0.55146 0.46362 -0.05500
C 	C 	0.93068 0.50590 0.57658 0.05800
C 	C 	0.01987 0.55856 0.90346 -0.13900
C 	C 	0.03471 0.62416 0.80325 0.39300
C 	C 	0.94613 0.55146 0.98492 -0.04900
C 	C 	0.07522 0.50590 0.91752 0.05500
C 	C 	0.46131 0.53798 0.55856 -0.13600
C 	C 	0.41055 0.57259 0.62416 0.39500
C 	C 	0.39467 0.46362 0.55146 -0.05500
C 	C 	0.56932 0.57658 0.50590 0.05800
C 	C 	0.92333 0.90346 0.53798 -0.13600
C 	C 	0.83796 0.80325 0.57259 0.39500
C 	C 	0.93105 0.98492 0.46362 -0.05500
C 	C 	0.99274 0.91752 0.57658 0.05800
C 	C 	0.42333 0.46202 0.09654 -0.13600
C 	C 	0.33796 0.42741 0.19675 0.39500
C 	C 	0.43105 0.53638 0.01508 -0.05500
C 	C 	0.49274 0.42342 0.08248 0.05800
C 	C 	0.51987 0.09654 0.44144 -0.13600
C 	C 	0.53471 0.19675 0.37584 0.39500
C 	C 	0.44613 0.01508 0.44854 -0.05500
C 	C 	0.57522 0.08248 0.49410 0.05800
C 	C 	0.96131 0.44144 0.46202 -0.13700
C 	C 	0.91055 0.37584 0.42741 0.39500
C 	C 	0.89467 0.44854 0.53638 -0.05500
C 	C 	0.06932 0.49410 0.42342 0.05800
C 	C 	0.98013 0.44144 0.09654 -0.13900
C 	C 	0.96529 0.37584 0.19675 0.39300
C 	C 	0.05387 0.44854 0.01508 -0.04900
C 	C 	0.92478 0.49410 0.08248 0.05500
C 	C 	0.53869 0.46202 0.44144 -0.13600
C 	C 	0.58945 0.42741 0.37584 0.39500
C 	C 	0.60533 0.53638 0.44854 -0.05500
C 	C 	0.43068 0.42342 0.49410 0.05800
C 	C 	0.07667 0.09654 0.46202 -0.13600
C 	C 	0.16204 0.19675 0.42741 0.39500
C 	C 	0.06895 0.01508 0.53638 -0.05500
C 	C 	0.00726 0.08248 0.42342 0.05800
S 	S 	0.51429 0.67601 0.82115 -0.42700
S 	S 	0.33544 0.82116 0.50284 -0.42700
S 	S 	0.83828 0.50284 0.67601 -0.42700
S 	S 	0.16456 0.50284 0.82115 -0.42700
S 	S 	0.66172 0.67601 0.50284 -0.42700
S 	S 	0.98571 0.82115 0.67601 -0.42500
S 	S 	0.48571 0.32399 0.17885 -0.42700
S 	S 	0.66456 0.17885 0.49716 -0.42700
S 	S 	0.16172 0.49716 0.32399 -0.42700
S 	S 	0.83544 0.49716 0.17885 -0.42700
S 	S 	0.33828 0.32400 0.49716 -0.42700
S 	S 	0.01428 0.17884 0.32400 -0.42500
O 	O 	0.63916 0.57340 0.73407 -0.60300
O 	O 	0.75008 0.59465 0.79522 -0.48100
O 	O 	0.37323 0.73407 0.69253 -0.60300
O 	O 	0.54530 0.79522 0.61013 -0.48100
O 	O 	0.06576 0.69253 0.57340 -0.60400
O 	O 	0.15543 0.61013 0.59465 -0.48100
O 	O 	0.12677 0.69253 0.73407 -0.60300
O 	O 	0.95470 0.61013 0.79522 -0.47900
O 	O 	0.43424 0.57340 0.69253 -0.60300
O 	O 	0.34457 0.59465 0.61013 -0.48100
O 	O 	0.86084 0.73407 0.57340 -0.60300
O 	O 	0.74992 0.79522 0.59465 -0.48100
O 	O 	0.36084 0.42660 0.26593 -0.60300
O 	O 	0.24992 0.40535 0.20478 -0.48100
O 	O 	0.62677 0.26593 0.30747 -0.60300
O 	O 	0.45470 0.20478 0.38987 -0.48100
O 	O 	0.93424 0.30747 0.42660 -0.60400
O 	O 	0.84457 0.38987 0.40535 -0.48100
O 	O 	0.87323 0.30747 0.26593 -0.60300
O 	O 	0.04530 0.38987 0.20478 -0.47900
O 	O 	0.56576 0.42660 0.30747 -0.60300
O 	O 	0.65543 0.40535 0.38987 -0.48100
O 	O 	0.13916 0.26593 0.42660 -0.60300
O 	O 	0.25008 0.20478 0.40535 -0.48100
