data_crystal

_cell_length_a 26.45730
_cell_length_b 26.45730
_cell_length_c 5.28540
_cell_angle_alpha 90.00000
_cell_angle_beta  90.00000
_cell_angle_gamma 90.00000

_symmetry_space_group_name_	'P 1'
_symmetry_space_group_name_H-M	'P 1'

loop_
_symmetry_equiv_pos_as_xyz
  x,y,z

loop_
_atom_site_label
_atom_site_type_symbol
_atom_site_fract_x
_atom_site_fract_y
_atom_site_fract_z
_atom_site_charge
Zn	Zn	0.28515 0.77380 0.08418 1.21800
H 	H 	0.39280 0.79490 0.85910 -0.00400
H 	H 	0.32080 0.68730 0.47570 0.03600
H 	H 	0.83030 0.12220 0.31350 0.04100
H 	H 	0.87890 0.06430 0.52170 0.04100
H 	H 	0.46300 0.55190 0.90390 0.03100
H 	H 	0.49910 0.59930 0.59560 0.06200
H 	H 	0.49370 0.66770 0.28010 0.08200
H 	H 	0.47030 0.83080 0.89050 0.13200
H 	H 	0.55050 0.85870 0.76480 -0.00200
H 	H 	0.59600 0.71430 0.72490 -0.02800
H 	H 	0.51510 0.68820 0.85160 0.12000
C 	C 	0.39596 0.76843 0.97400 0.11700
C 	C 	0.37810 0.71248 0.25890 0.04300
C 	C 	0.35494 0.68328 0.43880 -0.12100
C 	C 	0.38437 0.64691 0.56620 0.02800
C 	C 	0.86388 0.11769 0.26670 -0.06200
C 	C 	0.89274 0.08330 0.39070 -0.04600
C 	C 	0.44380 0.57629 0.82120 -0.01900
C 	C 	0.46530 0.60429 0.63680 -0.09800
C 	C 	0.43659 0.64149 0.50490 0.05200
C 	C 	0.45972 0.67170 0.32080 -0.14000
C 	C 	0.43037 0.70749 0.20240 0.08600
C 	C 	0.48796 0.75835 0.91680 0.22000
C 	C 	0.49630 0.80770 0.86800 -0.24700
C 	C 	0.54330 0.82450 0.78400 0.14600
C 	C 	0.58069 0.78551 0.72630 -0.23700
C 	C 	0.57110 0.73820 0.75840 0.17300
C 	C 	0.52310 0.72240 0.84410 -0.25100
C 	C 	0.63170 0.80090 0.62500 0.47000
N 	N 	0.35842 0.75120 0.10770 -0.27700
N 	N 	0.44014 0.74393 0.01930 -0.17500
O 	O 	0.25349 0.77667 0.40950 -0.66500
O 	O 	0.66521 0.77711 0.62000 -0.58100
O 	O 	0.63560 0.85270 0.59600 -0.30000
H 	H 	0.31447 0.25407 0.09050 0.14500
Zn	Zn	0.78515 0.27380 0.58418 1.22100
H 	H 	0.89280 0.29490 0.35910 -0.00000
H 	H 	0.82080 0.18730 0.97570 0.03600
H 	H 	0.33030 0.62220 0.81350 0.04800
H 	H 	0.37890 0.56430 0.02170 0.03400
H 	H 	0.96300 0.05190 0.40390 0.02700
H 	H 	0.99910 0.09930 0.09560 0.06500
H 	H 	0.99370 0.16770 0.78010 0.08200
H 	H 	0.97030 0.33080 0.39050 0.13000
H 	H 	0.05050 0.35870 0.26480 -0.00000
H 	H 	0.09600 0.21430 0.22490 -0.02600
H 	H 	0.01510 0.18820 0.35160 0.11800
C 	C 	0.89596 0.26843 0.47400 0.10300
C 	C 	0.87810 0.21248 0.75890 0.04000
C 	C 	0.85494 0.18328 0.93880 -0.10900
C 	C 	0.88437 0.14691 0.06620 0.01400
C 	C 	0.36388 0.61769 0.76670 -0.07400
C 	C 	0.39274 0.58330 0.89070 -0.03200
C 	C 	0.94380 0.07629 0.32120 -0.00900
C 	C 	0.96530 0.10429 0.13680 -0.10600
C 	C 	0.93659 0.14149 0.00490 0.05700
C 	C 	0.95972 0.17170 0.82080 -0.14200
C 	C 	0.93037 0.20749 0.70240 0.08800
C 	C 	0.98796 0.25835 0.41680 0.21400
C 	C 	0.99630 0.30770 0.36800 -0.24200
C 	C 	0.04330 0.32450 0.28400 0.14300
C 	C 	0.08069 0.28551 0.22630 -0.23300
C 	C 	0.07110 0.23820 0.25840 0.16900
C 	C 	0.02310 0.22240 0.34410 -0.24700
C 	C 	0.13170 0.30090 0.12500 0.46900
N 	N 	0.85842 0.25120 0.60770 -0.27000
N 	N 	0.94014 0.24393 0.51930 -0.17000
O 	O 	0.75349 0.27667 0.90950 -0.66000
O 	O 	0.16521 0.27711 0.12000 -0.57600
O 	O 	0.13560 0.35270 0.09600 -0.29800
H 	H 	0.81447 0.75407 0.59050 0.14300
Zn	Zn	0.71485 0.22620 0.08418 1.21900
H 	H 	0.60720 0.20510 0.85910 -0.00300
H 	H 	0.67920 0.31270 0.47570 0.03700
H 	H 	0.16970 0.87780 0.31350 0.04200
H 	H 	0.12110 0.93570 0.52170 0.04100
H 	H 	0.53700 0.44810 0.90390 0.03100
H 	H 	0.50090 0.40070 0.59560 0.06200
H 	H 	0.50630 0.33230 0.28010 0.08200
H 	H 	0.52970 0.16920 0.89050 0.13200
H 	H 	0.44950 0.14130 0.76480 -0.00200
H 	H 	0.40400 0.28570 0.72490 -0.02800
H 	H 	0.48490 0.31180 0.85160 0.12000
C 	C 	0.60404 0.23157 0.97400 0.11700
C 	C 	0.62190 0.28752 0.25890 0.04300
C 	C 	0.64506 0.31672 0.43880 -0.12100
C 	C 	0.61563 0.35309 0.56620 0.02800
C 	C 	0.13612 0.88231 0.26670 -0.06200
C 	C 	0.10726 0.91670 0.39070 -0.04600
C 	C 	0.55620 0.42371 0.82120 -0.01900
C 	C 	0.53470 0.39571 0.63680 -0.09800
C 	C 	0.56341 0.35851 0.50490 0.05200
C 	C 	0.54028 0.32830 0.32080 -0.14000
C 	C 	0.56963 0.29251 0.20240 0.08600
C 	C 	0.51204 0.24165 0.91680 0.22000
C 	C 	0.50370 0.19230 0.86800 -0.24700
C 	C 	0.45670 0.17550 0.78400 0.14600
C 	C 	0.41931 0.21449 0.72630 -0.23700
C 	C 	0.42890 0.26180 0.75840 0.17300
C 	C 	0.47690 0.27760 0.84410 -0.25100
C 	C 	0.36830 0.19910 0.62500 0.47000
N 	N 	0.64158 0.24880 0.10770 -0.27700
N 	N 	0.55986 0.25607 0.01930 -0.17500
O 	O 	0.74651 0.22333 0.40950 -0.66500
O 	O 	0.33479 0.22289 0.62000 -0.58100
O 	O 	0.36440 0.14730 0.59600 -0.30000
H 	H 	0.68553 0.74593 0.09050 0.14500
Zn	Zn	0.21485 0.72620 0.58418 1.22100
H 	H 	0.10720 0.70510 0.35910 -0.00000
H 	H 	0.17920 0.81270 0.97570 0.03600
H 	H 	0.66970 0.37780 0.81350 0.04800
H 	H 	0.62110 0.43570 0.02170 0.03400
H 	H 	0.03700 0.94810 0.40390 0.02700
H 	H 	0.00090 0.90070 0.09560 0.06500
H 	H 	0.00630 0.83230 0.78010 0.08200
H 	H 	0.02970 0.66920 0.39050 0.13000
H 	H 	0.94950 0.64130 0.26480 -0.00000
H 	H 	0.90400 0.78570 0.22490 -0.02600
H 	H 	0.98490 0.81180 0.35160 0.11800
C 	C 	0.10404 0.73157 0.47400 0.10300
C 	C 	0.12190 0.78752 0.75890 0.04000
C 	C 	0.14506 0.81672 0.93880 -0.10900
C 	C 	0.11563 0.85309 0.06620 0.01400
C 	C 	0.63612 0.38231 0.76670 -0.07400
C 	C 	0.60726 0.41670 0.89070 -0.03200
C 	C 	0.05620 0.92371 0.32120 -0.00900
C 	C 	0.03470 0.89571 0.13680 -0.10600
C 	C 	0.06341 0.85851 0.00490 0.05700
C 	C 	0.04028 0.82830 0.82080 -0.14200
C 	C 	0.06963 0.79251 0.70240 0.08800
C 	C 	0.01204 0.74165 0.41680 0.21400
C 	C 	0.00370 0.69230 0.36800 -0.24200
C 	C 	0.95670 0.67550 0.28400 0.14300
C 	C 	0.91931 0.71449 0.22630 -0.23300
C 	C 	0.92890 0.76180 0.25840 0.16900
C 	C 	0.97690 0.77760 0.34410 -0.24700
C 	C 	0.86830 0.69910 0.12500 0.46900
N 	N 	0.14158 0.74880 0.60770 -0.27000
N 	N 	0.05986 0.75607 0.51930 -0.17000
O 	O 	0.24651 0.72333 0.90950 -0.66000
O 	O 	0.83479 0.72289 0.12000 -0.57600
O 	O 	0.86440 0.64730 0.09600 -0.29800
H 	H 	0.18553 0.24593 0.59050 0.14300
Zn	Zn	0.77380 0.71485 0.91582 1.21900
H 	H 	0.79490 0.60720 0.14090 -0.00300
H 	H 	0.68730 0.67920 0.52430 0.03700
H 	H 	0.12220 0.16970 0.68650 0.04200
H 	H 	0.06430 0.12110 0.47830 0.04100
H 	H 	0.55190 0.53700 0.09610 0.03100
H 	H 	0.59930 0.50090 0.40440 0.06200
H 	H 	0.66770 0.50630 0.71990 0.08200
H 	H 	0.83080 0.52970 0.10950 0.13200
H 	H 	0.85870 0.44950 0.23520 -0.00200
H 	H 	0.71430 0.40400 0.27510 -0.02800
H 	H 	0.68820 0.48490 0.14840 0.12000
C 	C 	0.76843 0.60404 0.02600 0.11700
C 	C 	0.71248 0.62190 0.74110 0.04300
C 	C 	0.68328 0.64506 0.56120 -0.12100
C 	C 	0.64691 0.61563 0.43380 0.02800
C 	C 	0.11769 0.13612 0.73330 -0.06200
C 	C 	0.08330 0.10726 0.60930 -0.04600
C 	C 	0.57629 0.55620 0.17880 -0.01900
C 	C 	0.60429 0.53470 0.36320 -0.09800
C 	C 	0.64149 0.56341 0.49510 0.05200
C 	C 	0.67170 0.54028 0.67920 -0.14000
C 	C 	0.70749 0.56963 0.79760 0.08600
C 	C 	0.75835 0.51204 0.08320 0.22000
C 	C 	0.80770 0.50370 0.13200 -0.24700
C 	C 	0.82450 0.45670 0.21600 0.14600
C 	C 	0.78551 0.41931 0.27370 -0.23700
C 	C 	0.73820 0.42890 0.24160 0.17300
C 	C 	0.72240 0.47690 0.15590 -0.25100
C 	C 	0.80090 0.36830 0.37500 0.47000
N 	N 	0.75120 0.64158 0.89230 -0.27700
N 	N 	0.74393 0.55986 0.98070 -0.17500
O 	O 	0.77667 0.74651 0.59050 -0.66500
O 	O 	0.77711 0.33479 0.38000 -0.58100
O 	O 	0.85270 0.36440 0.40400 -0.30000
H 	H 	0.25407 0.68553 0.90950 0.14500
Zn	Zn	0.27380 0.21485 0.41582 1.22100
H 	H 	0.29490 0.10720 0.64090 -0.00000
H 	H 	0.18730 0.17920 0.02430 0.03600
H 	H 	0.62220 0.66970 0.18650 0.04800
H 	H 	0.56430 0.62110 0.97830 0.03400
H 	H 	0.05190 0.03700 0.59610 0.02700
H 	H 	0.09930 0.00090 0.90440 0.06500
H 	H 	0.16770 0.00630 0.21990 0.08200
H 	H 	0.33080 0.02970 0.60950 0.13000
H 	H 	0.35870 0.94950 0.73520 -0.00000
H 	H 	0.21430 0.90400 0.77510 -0.02600
H 	H 	0.18820 0.98490 0.64840 0.11800
C 	C 	0.26843 0.10404 0.52600 0.10300
C 	C 	0.21248 0.12190 0.24110 0.04000
C 	C 	0.18328 0.14506 0.06120 -0.10900
C 	C 	0.14691 0.11563 0.93380 0.01400
C 	C 	0.61769 0.63612 0.23330 -0.07400
C 	C 	0.58330 0.60726 0.10930 -0.03200
C 	C 	0.07629 0.05620 0.67880 -0.00900
C 	C 	0.10429 0.03470 0.86320 -0.10600
C 	C 	0.14149 0.06341 0.99510 0.05700
C 	C 	0.17170 0.04028 0.17920 -0.14200
C 	C 	0.20749 0.06963 0.29760 0.08800
C 	C 	0.25835 0.01204 0.58320 0.21400
C 	C 	0.30770 0.00370 0.63200 -0.24200
C 	C 	0.32450 0.95670 0.71600 0.14300
C 	C 	0.28551 0.91931 0.77370 -0.23300
C 	C 	0.23820 0.92890 0.74160 0.16900
C 	C 	0.22240 0.97690 0.65590 -0.24700
C 	C 	0.30090 0.86830 0.87500 0.46900
N 	N 	0.25120 0.14158 0.39230 -0.27000
N 	N 	0.24393 0.05986 0.48070 -0.17000
O 	O 	0.27667 0.24651 0.09050 -0.66000
O 	O 	0.27711 0.83479 0.88000 -0.57600
O 	O 	0.35270 0.86440 0.90400 -0.29800
H 	H 	0.75407 0.18553 0.40950 0.14300
Zn	Zn	0.22620 0.28515 0.91582 1.21900
H 	H 	0.20510 0.39280 0.14090 -0.00300
H 	H 	0.31270 0.32080 0.52430 0.03700
H 	H 	0.87780 0.83030 0.68650 0.04200
H 	H 	0.93570 0.87890 0.47830 0.04100
H 	H 	0.44810 0.46300 0.09610 0.03100
H 	H 	0.40070 0.49910 0.40440 0.06200
H 	H 	0.33230 0.49370 0.71990 0.08200
H 	H 	0.16920 0.47030 0.10950 0.13200
H 	H 	0.14130 0.55050 0.23520 -0.00200
H 	H 	0.28570 0.59600 0.27510 -0.02800
H 	H 	0.31180 0.51510 0.14840 0.12000
C 	C 	0.23157 0.39596 0.02600 0.11700
C 	C 	0.28752 0.37810 0.74110 0.04300
C 	C 	0.31672 0.35494 0.56120 -0.12100
C 	C 	0.35309 0.38437 0.43380 0.02800
C 	C 	0.88231 0.86388 0.73330 -0.06200
C 	C 	0.91670 0.89274 0.60930 -0.04600
C 	C 	0.42371 0.44380 0.17880 -0.01900
C 	C 	0.39571 0.46530 0.36320 -0.09800
C 	C 	0.35851 0.43659 0.49510 0.05200
C 	C 	0.32830 0.45972 0.67920 -0.14000
C 	C 	0.29251 0.43037 0.79760 0.08600
C 	C 	0.24165 0.48796 0.08320 0.22000
C 	C 	0.19230 0.49630 0.13200 -0.24700
C 	C 	0.17550 0.54330 0.21600 0.14600
C 	C 	0.21449 0.58069 0.27370 -0.23700
C 	C 	0.26180 0.57110 0.24160 0.17300
C 	C 	0.27760 0.52310 0.15590 -0.25100
C 	C 	0.19910 0.63170 0.37500 0.47000
N 	N 	0.24880 0.35842 0.89230 -0.27700
N 	N 	0.25607 0.44014 0.98070 -0.17500
O 	O 	0.22333 0.25349 0.59050 -0.66500
O 	O 	0.22289 0.66521 0.38000 -0.58100
O 	O 	0.14730 0.63560 0.40400 -0.30000
H 	H 	0.74593 0.31447 0.90950 0.14500
Zn	Zn	0.72620 0.78515 0.41582 1.22100
H 	H 	0.70510 0.89280 0.64090 -0.00000
H 	H 	0.81270 0.82080 0.02430 0.03600
H 	H 	0.37780 0.33030 0.18650 0.04800
H 	H 	0.43570 0.37890 0.97830 0.03400
H 	H 	0.94810 0.96300 0.59610 0.02700
H 	H 	0.90070 0.99910 0.90440 0.06500
H 	H 	0.83230 0.99370 0.21990 0.08200
H 	H 	0.66920 0.97030 0.60950 0.13000
H 	H 	0.64130 0.05050 0.73520 -0.00000
H 	H 	0.78570 0.09600 0.77510 -0.02600
H 	H 	0.81180 0.01510 0.64840 0.11800
C 	C 	0.73157 0.89596 0.52600 0.10300
C 	C 	0.78752 0.87810 0.24110 0.04000
C 	C 	0.81672 0.85494 0.06120 -0.10900
C 	C 	0.85309 0.88437 0.93380 0.01400
C 	C 	0.38231 0.36388 0.23330 -0.07400
C 	C 	0.41670 0.39274 0.10930 -0.03200
C 	C 	0.92371 0.94380 0.67880 -0.00900
C 	C 	0.89571 0.96530 0.86320 -0.10600
C 	C 	0.85851 0.93659 0.99510 0.05700
C 	C 	0.82830 0.95972 0.17920 -0.14200
C 	C 	0.79251 0.93037 0.29760 0.08800
C 	C 	0.74165 0.98796 0.58320 0.21400
C 	C 	0.69230 0.99630 0.63200 -0.24200
C 	C 	0.67550 0.04330 0.71600 0.14300
C 	C 	0.71449 0.08069 0.77370 -0.23300
C 	C 	0.76180 0.07110 0.74160 0.16900
C 	C 	0.77760 0.02310 0.65590 -0.24700
C 	C 	0.69910 0.13170 0.87500 0.46900
N 	N 	0.74880 0.85842 0.39230 -0.27000
N 	N 	0.75607 0.94014 0.48070 -0.17000
O 	O 	0.72333 0.75349 0.09050 -0.66000
O 	O 	0.72289 0.16521 0.88000 -0.57600
O 	O 	0.64730 0.13560 0.90400 -0.29800
H 	H 	0.24593 0.81447 0.40950 0.14300
