data_crystal

_cell_length_a 26.26210
_cell_length_b 26.26210
_cell_length_c 5.18560
_cell_angle_alpha 90.00000
_cell_angle_beta  90.00000
_cell_angle_gamma 90.00000

_symmetry_space_group_name_	'P 1'
_symmetry_space_group_name_H-M	'P 1'

loop_
_symmetry_equiv_pos_as_xyz
  x,y,z

loop_
_atom_site_label
_atom_site_type_symbol
_atom_site_fract_x
_atom_site_fract_y
_atom_site_fract_z
_atom_site_charge
Zn	Zn	0.27158 0.21492 0.89490 1.22300
O 	O 	0.22300 0.25980 0.05230 -0.79900
H 	H 	0.20220 0.27080 0.93990 0.29400
N 	N 	0.24610 0.14250 0.90100 -0.28400
C 	C 	0.26170 0.10620 0.05350 0.11500
H 	H 	0.28680 0.11100 0.17720 -0.02000
N 	N 	0.23800 0.06080 0.01650 -0.16300
C 	C 	0.20970 0.12200 0.75110 0.06300
O 	O 	0.27320 0.83420 0.40000 -0.49600
C 	C 	0.18080 0.14400 0.55760 -0.14700
H 	H 	0.18520 0.17790 0.51250 0.04900
O 	O 	0.31110 0.87750 0.72400 -0.23900
C 	C 	0.14500 0.11350 0.43220 0.05300
C 	C 	0.11550 0.13370 0.23670 -0.09700
H 	H 	0.11970 0.16770 0.19210 0.06000
C 	C 	0.07970 0.10480 0.10470 -0.01300
H 	H 	0.06020 0.11890 0.97320 0.02600
C 	C 	0.07380 0.05400 0.17480 -0.03700
H 	H 	0.05000 0.03390 0.08970 0.03700
C 	C 	0.10320 0.03280 0.37050 -0.08200
H 	H 	0.09880 0.99880 0.41530 0.05800
C 	C 	0.13940 0.06250 0.50100 0.03500
C 	C 	0.16830 0.04050 0.69580 -0.12200
H 	H 	0.16400 0.00650 0.74180 0.07200
C 	C 	0.20370 0.07120 0.81900 0.06400
C 	C 	0.25190 0.01290 0.13050 0.16900
C 	C 	0.28010 0.92330 0.36300 -0.13800
C 	C 	0.27170 0.01290 0.37700 0.04900
H 	H 	0.27550 0.04360 0.46420 0.01900
C 	C 	0.28590 0.96840 0.49830 -0.11500
H 	H 	0.29900 0.96860 0.66500 0.08600
C 	C 	0.26000 0.92150 0.11700 0.01300
H 	H 	0.25580 0.89070 0.03150 0.03400
C 	C 	0.24640 0.96690 0.00320 -0.06800
H 	H 	0.23330 0.96660 0.83670 0.05800
C 	C 	0.29260 0.87470 0.49400 0.39100
O 	O 	0.34420 0.86640 0.55600 -0.19000
C 	C 	0.30160 0.00620 0.20500 -0.25000
H 	H 	0.32510 0.03210 0.17650 0.12600
C 	C 	0.31730 0.96100 0.32400 0.17400
H 	H 	0.35090 0.95610 0.37500 -0.01200
C 	C 	0.22880 0.92710 0.29100 0.05000
H 	H 	0.20500 0.90130 0.31720 0.01200
C 	C 	0.21720 0.97390 0.17500 -0.13700
H 	H 	0.18360 0.97920 0.12450 0.07500
Zn	Zn	0.77158 0.71492 0.39490 1.22600
O 	O 	0.72300 0.75980 0.55230 -0.81700
H 	H 	0.70220 0.77080 0.43990 0.30900
N 	N 	0.74610 0.64250 0.40100 -0.27600
C 	C 	0.76170 0.60620 0.55350 0.10700
H 	H 	0.78680 0.61100 0.67720 -0.01900
N 	N 	0.73800 0.56080 0.51650 -0.16500
C 	C 	0.70970 0.62200 0.25110 0.05000
O 	O 	0.77320 0.33420 0.90000 -0.49500
C 	C 	0.68080 0.64400 0.05760 -0.11600
H 	H 	0.68520 0.67790 0.01250 0.04100
O 	O 	0.81110 0.37750 0.22400 -0.24500
C 	C 	0.64500 0.61350 0.93220 0.01200
C 	C 	0.61550 0.63370 0.73670 -0.06200
H 	H 	0.61970 0.66770 0.69210 0.04500
C 	C 	0.57970 0.60480 0.60470 -0.05100
H 	H 	0.56020 0.61890 0.47320 0.04200
C 	C 	0.57380 0.55400 0.67480 -0.00400
H 	H 	0.55000 0.53390 0.58970 0.02600
C 	C 	0.60320 0.53280 0.87050 -0.11600
H 	H 	0.59880 0.49880 0.91530 0.07000
C 	C 	0.63940 0.56250 0.00100 0.07100
C 	C 	0.66830 0.54050 0.19580 -0.14400
H 	H 	0.66400 0.50650 0.24180 0.08000
C 	C 	0.70370 0.57120 0.31900 0.07900
C 	C 	0.75190 0.51290 0.63050 0.16700
C 	C 	0.78010 0.42330 0.86300 -0.14000
C 	C 	0.77170 0.51290 0.87700 0.00800
H 	H 	0.77550 0.54360 0.96420 0.03100
C 	C 	0.78590 0.46840 0.99830 -0.07900
H 	H 	0.79900 0.46860 0.16500 0.07400
C 	C 	0.76000 0.42150 0.61700 0.04100
H 	H 	0.75580 0.39070 0.53150 0.02800
C 	C 	0.74640 0.46690 0.50320 -0.08900
H 	H 	0.73330 0.46660 0.33670 0.06300
C 	C 	0.79260 0.37470 0.99400 0.39900
O 	O 	0.84420 0.36640 0.05600 -0.19400
C 	C 	0.80160 0.50620 0.70500 -0.20900
H 	H 	0.82510 0.53210 0.67650 0.11200
C 	C 	0.81730 0.46100 0.82400 0.13900
H 	H 	0.85090 0.45610 0.87500 0.00000
C 	C 	0.72880 0.42710 0.79100 0.02300
H 	H 	0.70500 0.40130 0.81720 0.02300
C 	C 	0.71720 0.47390 0.67500 -0.11000
H 	H 	0.68360 0.47920 0.62450 0.06600
Zn	Zn	0.72842 0.78508 0.89490 1.22400
O 	O 	0.77700 0.74020 0.05230 -0.79800
H 	H 	0.79780 0.72920 0.93990 0.29500
N 	N 	0.75390 0.85750 0.90100 -0.28300
C 	C 	0.73830 0.89380 0.05350 0.11500
H 	H 	0.71320 0.88900 0.17720 -0.02000
N 	N 	0.76200 0.93920 0.01650 -0.16300
C 	C 	0.79030 0.87800 0.75110 0.06300
O 	O 	0.72680 0.16580 0.40000 -0.49600
C 	C 	0.81920 0.85600 0.55760 -0.14700
H 	H 	0.81480 0.82210 0.51250 0.04900
O 	O 	0.68890 0.12250 0.72400 -0.23900
C 	C 	0.85500 0.88650 0.43220 0.05300
C 	C 	0.88450 0.86630 0.23670 -0.09700
H 	H 	0.88030 0.83230 0.19210 0.06000
C 	C 	0.92030 0.89520 0.10470 -0.01300
H 	H 	0.93980 0.88110 0.97320 0.02600
C 	C 	0.92620 0.94600 0.17480 -0.03700
H 	H 	0.95000 0.96610 0.08970 0.03700
C 	C 	0.89680 0.96720 0.37050 -0.08200
H 	H 	0.90120 0.00120 0.41530 0.05800
C 	C 	0.86060 0.93750 0.50100 0.03500
C 	C 	0.83170 0.95950 0.69580 -0.12200
H 	H 	0.83600 0.99350 0.74180 0.07200
C 	C 	0.79630 0.92880 0.81900 0.06400
C 	C 	0.74810 0.98710 0.13050 0.16900
C 	C 	0.71990 0.07670 0.36300 -0.13800
C 	C 	0.72830 0.98710 0.37700 0.04900
H 	H 	0.72450 0.95640 0.46420 0.01900
C 	C 	0.71410 0.03160 0.49830 -0.11500
H 	H 	0.70100 0.03140 0.66500 0.08600
C 	C 	0.74000 0.07850 0.11700 0.01300
H 	H 	0.74420 0.10930 0.03150 0.03400
C 	C 	0.75360 0.03310 0.00320 -0.06800
H 	H 	0.76670 0.03340 0.83670 0.05800
C 	C 	0.70740 0.12530 0.49400 0.39100
O 	O 	0.65580 0.13360 0.55600 -0.19000
C 	C 	0.69840 0.99380 0.20500 -0.25000
H 	H 	0.67490 0.96790 0.17650 0.12600
C 	C 	0.68270 0.03900 0.32400 0.17400
H 	H 	0.64910 0.04390 0.37500 -0.01200
C 	C 	0.77120 0.07290 0.29100 0.05000
H 	H 	0.79500 0.09870 0.31720 0.01200
C 	C 	0.78280 0.02610 0.17500 -0.13700
H 	H 	0.81640 0.02080 0.12450 0.07500
Zn	Zn	0.22842 0.28508 0.39490 1.22600
O 	O 	0.27700 0.24020 0.55230 -0.81700
H 	H 	0.29780 0.22920 0.43990 0.30900
N 	N 	0.25390 0.35750 0.40100 -0.27600
C 	C 	0.23830 0.39380 0.55350 0.10700
H 	H 	0.21320 0.38900 0.67720 -0.01900
N 	N 	0.26200 0.43920 0.51650 -0.16500
C 	C 	0.29030 0.37800 0.25110 0.05000
O 	O 	0.22680 0.66580 0.90000 -0.49500
C 	C 	0.31920 0.35600 0.05760 -0.11600
H 	H 	0.31480 0.32210 0.01250 0.04100
O 	O 	0.18890 0.62250 0.22400 -0.24500
C 	C 	0.35500 0.38650 0.93220 0.01200
C 	C 	0.38450 0.36630 0.73670 -0.06200
H 	H 	0.38030 0.33230 0.69210 0.04500
C 	C 	0.42030 0.39520 0.60470 -0.05100
H 	H 	0.43980 0.38110 0.47320 0.04200
C 	C 	0.42620 0.44600 0.67480 -0.00400
H 	H 	0.45000 0.46610 0.58970 0.02600
C 	C 	0.39680 0.46720 0.87050 -0.11600
H 	H 	0.40120 0.50120 0.91530 0.07000
C 	C 	0.36060 0.43750 0.00100 0.07100
C 	C 	0.33170 0.45950 0.19580 -0.14400
H 	H 	0.33600 0.49350 0.24180 0.08000
C 	C 	0.29630 0.42880 0.31900 0.07900
C 	C 	0.24810 0.48710 0.63050 0.16700
C 	C 	0.21990 0.57670 0.86300 -0.14000
C 	C 	0.22830 0.48710 0.87700 0.00800
H 	H 	0.22450 0.45640 0.96420 0.03100
C 	C 	0.21410 0.53160 0.99830 -0.07900
H 	H 	0.20100 0.53140 0.16500 0.07400
C 	C 	0.24000 0.57850 0.61700 0.04100
H 	H 	0.24420 0.60930 0.53150 0.02800
C 	C 	0.25360 0.53310 0.50320 -0.08900
H 	H 	0.26670 0.53340 0.33670 0.06300
C 	C 	0.20740 0.62530 0.99400 0.39900
O 	O 	0.15580 0.63360 0.05600 -0.19400
C 	C 	0.19840 0.49380 0.70500 -0.20900
H 	H 	0.17490 0.46790 0.67650 0.11200
C 	C 	0.18270 0.53900 0.82400 0.13900
H 	H 	0.14910 0.54390 0.87500 0.00000
C 	C 	0.27120 0.57290 0.79100 0.02300
H 	H 	0.29500 0.59870 0.81720 0.02300
C 	C 	0.28280 0.52610 0.67500 -0.11000
H 	H 	0.31640 0.52080 0.62450 0.06600
Zn	Zn	0.21492 0.72842 0.10510 1.22400
O 	O 	0.25980 0.77700 0.94770 -0.79800
H 	H 	0.27080 0.79780 0.06010 0.29500
N 	N 	0.14250 0.75390 0.09900 -0.28300
C 	C 	0.10620 0.73830 0.94650 0.11500
H 	H 	0.11100 0.71320 0.82280 -0.02000
N 	N 	0.06080 0.76200 0.98350 -0.16300
C 	C 	0.12200 0.79030 0.24890 0.06300
O 	O 	0.83420 0.72680 0.60000 -0.49600
C 	C 	0.14400 0.81920 0.44240 -0.14700
H 	H 	0.17790 0.81480 0.48750 0.04900
O 	O 	0.87750 0.68890 0.27600 -0.23900
C 	C 	0.11350 0.85500 0.56780 0.05300
C 	C 	0.13370 0.88450 0.76330 -0.09700
H 	H 	0.16770 0.88030 0.80790 0.06000
C 	C 	0.10480 0.92030 0.89530 -0.01300
H 	H 	0.11890 0.93980 0.02680 0.02600
C 	C 	0.05400 0.92620 0.82520 -0.03700
H 	H 	0.03390 0.95000 0.91030 0.03700
C 	C 	0.03280 0.89680 0.62950 -0.08200
H 	H 	0.99880 0.90120 0.58470 0.05800
C 	C 	0.06250 0.86060 0.49900 0.03500
C 	C 	0.04050 0.83170 0.30420 -0.12200
H 	H 	0.00650 0.83600 0.25820 0.07200
C 	C 	0.07120 0.79630 0.18100 0.06400
C 	C 	0.01290 0.74810 0.86950 0.16900
C 	C 	0.92330 0.71990 0.63700 -0.13800
C 	C 	0.01290 0.72830 0.62300 0.04900
H 	H 	0.04360 0.72450 0.53580 0.01900
C 	C 	0.96840 0.71410 0.50170 -0.11500
H 	H 	0.96860 0.70100 0.33500 0.08600
C 	C 	0.92150 0.74000 0.88300 0.01300
H 	H 	0.89070 0.74420 0.96850 0.03400
C 	C 	0.96690 0.75360 0.99680 -0.06800
H 	H 	0.96660 0.76670 0.16330 0.05800
C 	C 	0.87470 0.70740 0.50600 0.39100
O 	O 	0.86640 0.65580 0.44400 -0.19000
C 	C 	0.00620 0.69840 0.79500 -0.25000
H 	H 	0.03210 0.67490 0.82350 0.12600
C 	C 	0.96100 0.68270 0.67600 0.17400
H 	H 	0.95610 0.64910 0.62500 -0.01200
C 	C 	0.92710 0.77120 0.70900 0.05000
H 	H 	0.90130 0.79500 0.68280 0.01200
C 	C 	0.97390 0.78280 0.82500 -0.13700
H 	H 	0.97920 0.81640 0.87550 0.07500
Zn	Zn	0.71492 0.22842 0.60510 1.22600
O 	O 	0.75980 0.27700 0.44770 -0.81700
H 	H 	0.77080 0.29780 0.56010 0.30900
N 	N 	0.64250 0.25390 0.59900 -0.27600
C 	C 	0.60620 0.23830 0.44650 0.10700
H 	H 	0.61100 0.21320 0.32280 -0.01900
N 	N 	0.56080 0.26200 0.48350 -0.16500
C 	C 	0.62200 0.29030 0.74890 0.05000
O 	O 	0.33420 0.22680 0.10000 -0.49500
C 	C 	0.64400 0.31920 0.94240 -0.11600
H 	H 	0.67790 0.31480 0.98750 0.04100
O 	O 	0.37750 0.18890 0.77600 -0.24500
C 	C 	0.61350 0.35500 0.06780 0.01200
C 	C 	0.63370 0.38450 0.26330 -0.06200
H 	H 	0.66770 0.38030 0.30790 0.04500
C 	C 	0.60480 0.42030 0.39530 -0.05100
H 	H 	0.61890 0.43980 0.52680 0.04200
C 	C 	0.55400 0.42620 0.32520 -0.00400
H 	H 	0.53390 0.45000 0.41030 0.02600
C 	C 	0.53280 0.39680 0.12950 -0.11600
H 	H 	0.49880 0.40120 0.08470 0.07000
C 	C 	0.56250 0.36060 0.99900 0.07100
C 	C 	0.54050 0.33170 0.80420 -0.14400
H 	H 	0.50650 0.33600 0.75820 0.08000
C 	C 	0.57120 0.29630 0.68100 0.07900
C 	C 	0.51290 0.24810 0.36950 0.16700
C 	C 	0.42330 0.21990 0.13700 -0.14000
C 	C 	0.51290 0.22830 0.12300 0.00800
H 	H 	0.54360 0.22450 0.03580 0.03100
C 	C 	0.46840 0.21410 0.00170 -0.07900
H 	H 	0.46860 0.20100 0.83500 0.07400
C 	C 	0.42150 0.24000 0.38300 0.04100
H 	H 	0.39070 0.24420 0.46850 0.02800
C 	C 	0.46690 0.25360 0.49680 -0.08900
H 	H 	0.46660 0.26670 0.66330 0.06300
C 	C 	0.37470 0.20740 0.00600 0.39900
O 	O 	0.36640 0.15580 0.94400 -0.19400
C 	C 	0.50620 0.19840 0.29500 -0.20900
H 	H 	0.53210 0.17490 0.32350 0.11200
C 	C 	0.46100 0.18270 0.17600 0.13900
H 	H 	0.45610 0.14910 0.12500 0.00000
C 	C 	0.42710 0.27120 0.20900 0.02300
H 	H 	0.40130 0.29500 0.18280 0.02300
C 	C 	0.47390 0.28280 0.32500 -0.11000
H 	H 	0.47920 0.31640 0.37550 0.06600
Zn	Zn	0.78508 0.27158 0.10510 1.22400
O 	O 	0.74020 0.22300 0.94770 -0.79800
H 	H 	0.72920 0.20220 0.06010 0.29500
N 	N 	0.85750 0.24610 0.09900 -0.28300
C 	C 	0.89380 0.26170 0.94650 0.11500
H 	H 	0.88900 0.28680 0.82280 -0.02000
N 	N 	0.93920 0.23800 0.98350 -0.16300
C 	C 	0.87800 0.20970 0.24890 0.06300
O 	O 	0.16580 0.27320 0.60000 -0.49600
C 	C 	0.85600 0.18080 0.44240 -0.14700
H 	H 	0.82210 0.18520 0.48750 0.04900
O 	O 	0.12250 0.31110 0.27600 -0.23900
C 	C 	0.88650 0.14500 0.56780 0.05300
C 	C 	0.86630 0.11550 0.76330 -0.09700
H 	H 	0.83230 0.11970 0.80790 0.06000
C 	C 	0.89520 0.07970 0.89530 -0.01300
H 	H 	0.88110 0.06020 0.02680 0.02600
C 	C 	0.94600 0.07380 0.82520 -0.03700
H 	H 	0.96610 0.05000 0.91030 0.03700
C 	C 	0.96720 0.10320 0.62950 -0.08200
H 	H 	0.00120 0.09880 0.58470 0.05800
C 	C 	0.93750 0.13940 0.49900 0.03500
C 	C 	0.95950 0.16830 0.30420 -0.12200
H 	H 	0.99350 0.16400 0.25820 0.07200
C 	C 	0.92880 0.20370 0.18100 0.06400
C 	C 	0.98710 0.25190 0.86950 0.16900
C 	C 	0.07670 0.28010 0.63700 -0.13800
C 	C 	0.98710 0.27170 0.62300 0.04900
H 	H 	0.95640 0.27550 0.53580 0.01900
C 	C 	0.03160 0.28590 0.50170 -0.11500
H 	H 	0.03140 0.29900 0.33500 0.08600
C 	C 	0.07850 0.26000 0.88300 0.01300
H 	H 	0.10930 0.25580 0.96850 0.03400
C 	C 	0.03310 0.24640 0.99680 -0.06800
H 	H 	0.03340 0.23330 0.16330 0.05800
C 	C 	0.12530 0.29260 0.50600 0.39100
O 	O 	0.13360 0.34420 0.44400 -0.19000
C 	C 	0.99380 0.30160 0.79500 -0.25000
H 	H 	0.96790 0.32510 0.82350 0.12600
C 	C 	0.03900 0.31730 0.67600 0.17400
H 	H 	0.04390 0.35090 0.62500 -0.01200
C 	C 	0.07290 0.22880 0.70900 0.05000
H 	H 	0.09870 0.20500 0.68280 0.01200
C 	C 	0.02610 0.21720 0.82500 -0.13700
H 	H 	0.02080 0.18360 0.87550 0.07500
Zn	Zn	0.28508 0.77158 0.60510 1.22600
O 	O 	0.24020 0.72300 0.44770 -0.81700
H 	H 	0.22920 0.70220 0.56010 0.30900
N 	N 	0.35750 0.74610 0.59900 -0.27600
C 	C 	0.39380 0.76170 0.44650 0.10700
H 	H 	0.38900 0.78680 0.32280 -0.01900
N 	N 	0.43920 0.73800 0.48350 -0.16500
C 	C 	0.37800 0.70970 0.74890 0.05000
O 	O 	0.66580 0.77320 0.10000 -0.49500
C 	C 	0.35600 0.68080 0.94240 -0.11600
H 	H 	0.32210 0.68520 0.98750 0.04100
O 	O 	0.62250 0.81110 0.77600 -0.24500
C 	C 	0.38650 0.64500 0.06780 0.01200
C 	C 	0.36630 0.61550 0.26330 -0.06200
H 	H 	0.33230 0.61970 0.30790 0.04500
C 	C 	0.39520 0.57970 0.39530 -0.05100
H 	H 	0.38110 0.56020 0.52680 0.04200
C 	C 	0.44600 0.57380 0.32520 -0.00400
H 	H 	0.46610 0.55000 0.41030 0.02600
C 	C 	0.46720 0.60320 0.12950 -0.11600
H 	H 	0.50120 0.59880 0.08470 0.07000
C 	C 	0.43750 0.63940 0.99900 0.07100
C 	C 	0.45950 0.66830 0.80420 -0.14400
H 	H 	0.49350 0.66400 0.75820 0.08000
C 	C 	0.42880 0.70370 0.68100 0.07900
C 	C 	0.48710 0.75190 0.36950 0.16700
C 	C 	0.57670 0.78010 0.13700 -0.14000
C 	C 	0.48710 0.77170 0.12300 0.00800
H 	H 	0.45640 0.77550 0.03580 0.03100
C 	C 	0.53160 0.78590 0.00170 -0.07900
H 	H 	0.53140 0.79900 0.83500 0.07400
C 	C 	0.57850 0.76000 0.38300 0.04100
H 	H 	0.60930 0.75580 0.46850 0.02800
C 	C 	0.53310 0.74640 0.49680 -0.08900
H 	H 	0.53340 0.73330 0.66330 0.06300
C 	C 	0.62530 0.79260 0.00600 0.39900
O 	O 	0.63360 0.84420 0.94400 -0.19400
C 	C 	0.49380 0.80160 0.29500 -0.20900
H 	H 	0.46790 0.82510 0.32350 0.11200
C 	C 	0.53900 0.81730 0.17600 0.13900
H 	H 	0.54390 0.85090 0.12500 0.00000
C 	C 	0.57290 0.72880 0.20900 0.02300
H 	H 	0.59870 0.70500 0.18280 0.02300
C 	C 	0.52610 0.71720 0.32500 -0.11000
H 	H 	0.52080 0.68360 0.37550 0.06600
