data_crystal

_cell_length_a 26.55800
_cell_length_b 26.55800
_cell_length_c 4.62120
_cell_angle_alpha 90.00000
_cell_angle_beta  90.00000
_cell_angle_gamma 90.00000

_symmetry_space_group_name_	'P 1'
_symmetry_space_group_name_H-M	'P 1'

loop_
_symmetry_equiv_pos_as_xyz
  x,y,z

loop_
_atom_site_label
_atom_site_type_symbol
_atom_site_fract_x
_atom_site_fract_y
_atom_site_fract_z
_atom_site_charge
Zn	Zn	0.26891 0.21573 0.92670 1.21000
O 	O 	0.22860 0.27670 0.01000 -0.75500
H 	H 	0.20690 0.28830 0.89270 0.24800
N 	N 	0.24110 0.14840 0.98000 -0.30600
C 	C 	0.25560 0.11090 0.14200 0.14300
H 	H 	0.28070 0.11420 0.28100 -0.02600
N 	N 	0.23140 0.06660 0.09380 -0.16300
C 	C 	0.20210 0.12460 0.80510 0.05100
O 	O 	0.26750 0.83840 0.48100 -0.50700
C 	C 	0.17290 0.14600 0.59070 -0.15000
H 	H 	0.17690 0.17970 0.54110 0.06900
O 	O 	0.34010 0.86820 0.43400 -0.32700
C 	C 	0.13750 0.11660 0.45110 0.07100
C 	C 	0.10760 0.13620 0.23400 -0.11500
H 	H 	0.11170 0.16990 0.18400 0.07900
C 	C 	0.07200 0.10830 0.08860 0.00800
H 	H 	0.05220 0.12280 0.94520 0.01700
C 	C 	0.06630 0.05820 0.16040 -0.04900
H 	H 	0.04290 0.03820 0.06460 0.04000
C 	C 	0.09600 0.03820 0.37600 -0.07200
H 	H 	0.09170 0.00460 0.42580 0.05400
C 	C 	0.13190 0.06610 0.52270 0.02800
C 	C 	0.16140 0.04470 0.73700 -0.11500
H 	H 	0.15730 0.01110 0.78860 0.06900
C 	C 	0.19680 0.07420 0.87200 0.05600
C 	C 	0.24530 0.01890 0.21300 0.17700
C 	C 	0.27170 0.92620 0.43100 -0.18700
C 	C 	0.26450 0.01420 0.49000 -0.11400
H 	H 	0.26860 0.04300 0.60210 0.07300
C 	C 	0.27790 0.96820 0.60400 0.04700
H 	H 	0.29070 0.96550 0.79060 0.02400
C 	C 	0.25230 0.92870 0.15400 0.03900
H 	H 	0.24800 0.89980 0.04300 0.04800
C 	C 	0.23950 0.97550 0.04800 -0.10100
H 	H 	0.22660 0.97810 0.86190 0.06700
C 	C 	0.29360 0.87530 0.50800 0.57600
O 	O 	0.28050 0.86720 0.76900 -0.29200
C 	C 	0.29400 0.01090 0.30100 -0.10600
H 	H 	0.31750 0.03670 0.28660 0.07600
C 	C 	0.30870 0.96400 0.41300 0.04400
H 	H 	0.34160 0.95820 0.47370 0.03200
C 	C 	0.22130 0.93180 0.34500 0.04400
H 	H 	0.19750 0.90620 0.35780 0.01900
C 	C 	0.21060 0.97990 0.23700 -0.10700
H 	H 	0.17780 0.98630 0.17640 0.06700
Zn	Zn	0.76891 0.71573 0.42670 1.22000
O 	O 	0.72860 0.77670 0.51000 -0.79200
H 	H 	0.70690 0.78830 0.39270 0.27500
N 	N 	0.74110 0.64840 0.48000 -0.28300
C 	C 	0.75560 0.61090 0.64200 0.11100
H 	H 	0.78070 0.61420 0.78100 -0.01700
N 	N 	0.73140 0.56660 0.59380 -0.16700
C 	C 	0.70210 0.62460 0.30510 0.02000
O 	O 	0.76750 0.33840 0.98100 -0.45300
C 	C 	0.67290 0.64600 0.09070 -0.08100
H 	H 	0.67690 0.67970 0.04110 0.04800
O 	O 	0.84010 0.36820 0.93400 -0.28600
C 	C 	0.63750 0.61660 0.95110 -0.02400
C 	C 	0.60760 0.63620 0.73400 -0.03900
H 	H 	0.61170 0.66990 0.68400 0.04500
C 	C 	0.57200 0.60830 0.58860 -0.07800
H 	H 	0.55220 0.62280 0.44520 0.05400
C 	C 	0.56630 0.55820 0.66040 0.02600
H 	H 	0.54290 0.53820 0.56460 0.01500
C 	C 	0.59600 0.53820 0.87600 -0.15000
H 	H 	0.59170 0.50460 0.92580 0.08300
C 	C 	0.63190 0.56610 0.02270 0.11000
C 	C 	0.66140 0.54470 0.23700 -0.17600
H 	H 	0.65730 0.51110 0.28860 0.08900
C 	C 	0.69680 0.57420 0.37200 0.09900
C 	C 	0.74530 0.51890 0.71300 0.15100
C 	C 	0.77170 0.42620 0.93100 -0.09700
C 	C 	0.76450 0.51420 0.99000 -0.10500
H 	H 	0.76860 0.54300 0.10210 0.07000
C 	C 	0.77790 0.46820 0.10400 -0.01400
H 	H 	0.79070 0.46550 0.29060 0.05100
C 	C 	0.75230 0.42870 0.65400 0.23300
H 	H 	0.74800 0.39980 0.54300 -0.01500
C 	C 	0.73950 0.47550 0.54800 -0.34600
H 	H 	0.72660 0.47810 0.36190 0.15500
C 	C 	0.79360 0.37530 0.00800 0.46000
O 	O 	0.78050 0.36720 0.26900 -0.27900
C 	C 	0.79400 0.51090 0.80100 -0.06300
H 	H 	0.81750 0.53670 0.78660 0.06300
C 	C 	0.80870 0.46400 0.91300 0.01700
H 	H 	0.84160 0.45820 0.97370 0.04800
C 	C 	0.72130 0.43180 0.84500 -0.20700
H 	H 	0.69750 0.40620 0.85780 0.11400
C 	C 	0.71060 0.47990 0.73700 0.15800
H 	H 	0.67780 0.48630 0.67640 -0.02700
Zn	Zn	0.73109 0.78427 0.92670 1.21000
O 	O 	0.77140 0.72330 0.01000 -0.75500
H 	H 	0.79310 0.71170 0.89270 0.24800
N 	N 	0.75890 0.85160 0.98000 -0.30600
C 	C 	0.74440 0.88910 0.14200 0.14300
H 	H 	0.71930 0.88580 0.28100 -0.02600
N 	N 	0.76860 0.93340 0.09380 -0.16300
C 	C 	0.79790 0.87540 0.80510 0.05100
O 	O 	0.73250 0.16160 0.48100 -0.50700
C 	C 	0.82710 0.85400 0.59070 -0.15000
H 	H 	0.82310 0.82030 0.54110 0.06900
O 	O 	0.65990 0.13180 0.43400 -0.32700
C 	C 	0.86250 0.88340 0.45110 0.07100
C 	C 	0.89240 0.86380 0.23400 -0.11500
H 	H 	0.88830 0.83010 0.18400 0.07900
C 	C 	0.92800 0.89170 0.08860 0.00800
H 	H 	0.94780 0.87720 0.94520 0.01700
C 	C 	0.93370 0.94180 0.16040 -0.04900
H 	H 	0.95710 0.96180 0.06460 0.04000
C 	C 	0.90400 0.96180 0.37600 -0.07200
H 	H 	0.90830 0.99540 0.42580 0.05400
C 	C 	0.86810 0.93390 0.52270 0.02800
C 	C 	0.83860 0.95530 0.73700 -0.11500
H 	H 	0.84270 0.98890 0.78860 0.06900
C 	C 	0.80320 0.92580 0.87200 0.05600
C 	C 	0.75470 0.98110 0.21300 0.17700
C 	C 	0.72830 0.07380 0.43100 -0.18700
C 	C 	0.73550 0.98580 0.49000 -0.11400
H 	H 	0.73140 0.95700 0.60210 0.07300
C 	C 	0.72210 0.03180 0.60400 0.04700
H 	H 	0.70930 0.03450 0.79060 0.02400
C 	C 	0.74770 0.07130 0.15400 0.03900
H 	H 	0.75200 0.10020 0.04300 0.04800
C 	C 	0.76050 0.02450 0.04800 -0.10100
H 	H 	0.77340 0.02190 0.86190 0.06700
C 	C 	0.70640 0.12470 0.50800 0.57600
O 	O 	0.71950 0.13280 0.76900 -0.29200
C 	C 	0.70600 0.98910 0.30100 -0.10600
H 	H 	0.68250 0.96330 0.28660 0.07600
C 	C 	0.69130 0.03600 0.41300 0.04400
H 	H 	0.65840 0.04180 0.47370 0.03200
C 	C 	0.77870 0.06820 0.34500 0.04400
H 	H 	0.80250 0.09380 0.35780 0.01900
C 	C 	0.78940 0.02010 0.23700 -0.10700
H 	H 	0.82220 0.01370 0.17640 0.06700
Zn	Zn	0.23109 0.28427 0.42670 1.22000
O 	O 	0.27140 0.22330 0.51000 -0.79200
H 	H 	0.29310 0.21170 0.39270 0.27500
N 	N 	0.25890 0.35160 0.48000 -0.28300
C 	C 	0.24440 0.38910 0.64200 0.11100
H 	H 	0.21930 0.38580 0.78100 -0.01700
N 	N 	0.26860 0.43340 0.59380 -0.16700
C 	C 	0.29790 0.37540 0.30510 0.02000
O 	O 	0.23250 0.66160 0.98100 -0.45300
C 	C 	0.32710 0.35400 0.09070 -0.08100
H 	H 	0.32310 0.32030 0.04110 0.04800
O 	O 	0.15990 0.63180 0.93400 -0.28600
C 	C 	0.36250 0.38340 0.95110 -0.02400
C 	C 	0.39240 0.36380 0.73400 -0.03900
H 	H 	0.38830 0.33010 0.68400 0.04500
C 	C 	0.42800 0.39170 0.58860 -0.07800
H 	H 	0.44780 0.37720 0.44520 0.05400
C 	C 	0.43370 0.44180 0.66040 0.02600
H 	H 	0.45710 0.46180 0.56460 0.01500
C 	C 	0.40400 0.46180 0.87600 -0.15000
H 	H 	0.40830 0.49540 0.92580 0.08300
C 	C 	0.36810 0.43390 0.02270 0.11000
C 	C 	0.33860 0.45530 0.23700 -0.17600
H 	H 	0.34270 0.48890 0.28860 0.08900
C 	C 	0.30320 0.42580 0.37200 0.09900
C 	C 	0.25470 0.48110 0.71300 0.15100
C 	C 	0.22830 0.57380 0.93100 -0.09700
C 	C 	0.23550 0.48580 0.99000 -0.10500
H 	H 	0.23140 0.45700 0.10210 0.07000
C 	C 	0.22210 0.53180 0.10400 -0.01400
H 	H 	0.20930 0.53450 0.29060 0.05100
C 	C 	0.24770 0.57130 0.65400 0.23300
H 	H 	0.25200 0.60020 0.54300 -0.01500
C 	C 	0.26050 0.52450 0.54800 -0.34600
H 	H 	0.27340 0.52190 0.36190 0.15500
C 	C 	0.20640 0.62470 0.00800 0.46000
O 	O 	0.21950 0.63280 0.26900 -0.27900
C 	C 	0.20600 0.48910 0.80100 -0.06300
H 	H 	0.18250 0.46330 0.78660 0.06300
C 	C 	0.19130 0.53600 0.91300 0.01700
H 	H 	0.15840 0.54180 0.97370 0.04800
C 	C 	0.27870 0.56820 0.84500 -0.20700
H 	H 	0.30250 0.59380 0.85780 0.11400
C 	C 	0.28940 0.52010 0.73700 0.15800
H 	H 	0.32220 0.51370 0.67640 -0.02700
Zn	Zn	0.21573 0.73109 0.07330 1.21000
O 	O 	0.27670 0.77140 0.99000 -0.75500
H 	H 	0.28830 0.79310 0.10730 0.24800
N 	N 	0.14840 0.75890 0.02000 -0.30600
C 	C 	0.11090 0.74440 0.85800 0.14300
H 	H 	0.11420 0.71930 0.71900 -0.02600
N 	N 	0.06660 0.76860 0.90620 -0.16300
C 	C 	0.12460 0.79790 0.19490 0.05100
O 	O 	0.83840 0.73250 0.51900 -0.50700
C 	C 	0.14600 0.82710 0.40930 -0.15000
H 	H 	0.17970 0.82310 0.45890 0.06900
O 	O 	0.86820 0.65990 0.56600 -0.32700
C 	C 	0.11660 0.86250 0.54890 0.07100
C 	C 	0.13620 0.89240 0.76600 -0.11500
H 	H 	0.16990 0.88830 0.81600 0.07900
C 	C 	0.10830 0.92800 0.91140 0.00800
H 	H 	0.12280 0.94780 0.05480 0.01700
C 	C 	0.05820 0.93370 0.83960 -0.04900
H 	H 	0.03820 0.95710 0.93540 0.04000
C 	C 	0.03820 0.90400 0.62400 -0.07200
H 	H 	0.00460 0.90830 0.57420 0.05400
C 	C 	0.06610 0.86810 0.47730 0.02800
C 	C 	0.04470 0.83860 0.26300 -0.11500
H 	H 	0.01110 0.84270 0.21140 0.06900
C 	C 	0.07420 0.80320 0.12800 0.05600
C 	C 	0.01890 0.75470 0.78700 0.17700
C 	C 	0.92620 0.72830 0.56900 -0.18700
C 	C 	0.01420 0.73550 0.51000 -0.11400
H 	H 	0.04300 0.73140 0.39790 0.07300
C 	C 	0.96820 0.72210 0.39600 0.04700
H 	H 	0.96550 0.70930 0.20940 0.02400
C 	C 	0.92870 0.74770 0.84600 0.03900
H 	H 	0.89980 0.75200 0.95700 0.04800
C 	C 	0.97550 0.76050 0.95200 -0.10100
H 	H 	0.97810 0.77340 0.13810 0.06700
C 	C 	0.87530 0.70640 0.49200 0.57600
O 	O 	0.86720 0.71950 0.23100 -0.29200
C 	C 	0.01090 0.70600 0.69900 -0.10600
H 	H 	0.03670 0.68250 0.71340 0.07600
C 	C 	0.96400 0.69130 0.58700 0.04400
H 	H 	0.95820 0.65840 0.52630 0.03200
C 	C 	0.93180 0.77870 0.65500 0.04400
H 	H 	0.90620 0.80250 0.64220 0.01900
C 	C 	0.97990 0.78940 0.76300 -0.10700
H 	H 	0.98630 0.82220 0.82360 0.06700
Zn	Zn	0.71573 0.23109 0.57330 1.22000
O 	O 	0.77670 0.27140 0.49000 -0.79200
H 	H 	0.78830 0.29310 0.60730 0.27500
N 	N 	0.64840 0.25890 0.52000 -0.28300
C 	C 	0.61090 0.24440 0.35800 0.11100
H 	H 	0.61420 0.21930 0.21900 -0.01700
N 	N 	0.56660 0.26860 0.40620 -0.16700
C 	C 	0.62460 0.29790 0.69490 0.02000
O 	O 	0.33840 0.23250 0.01900 -0.45300
C 	C 	0.64600 0.32710 0.90930 -0.08100
H 	H 	0.67970 0.32310 0.95890 0.04800
O 	O 	0.36820 0.15990 0.06600 -0.28600
C 	C 	0.61660 0.36250 0.04890 -0.02400
C 	C 	0.63620 0.39240 0.26600 -0.03900
H 	H 	0.66990 0.38830 0.31600 0.04500
C 	C 	0.60830 0.42800 0.41140 -0.07800
H 	H 	0.62280 0.44780 0.55480 0.05400
C 	C 	0.55820 0.43370 0.33960 0.02600
H 	H 	0.53820 0.45710 0.43540 0.01500
C 	C 	0.53820 0.40400 0.12400 -0.15000
H 	H 	0.50460 0.40830 0.07420 0.08300
C 	C 	0.56610 0.36810 0.97730 0.11000
C 	C 	0.54470 0.33860 0.76300 -0.17600
H 	H 	0.51110 0.34270 0.71140 0.08900
C 	C 	0.57420 0.30320 0.62800 0.09900
C 	C 	0.51890 0.25470 0.28700 0.15100
C 	C 	0.42620 0.22830 0.06900 -0.09700
C 	C 	0.51420 0.23550 0.01000 -0.10500
H 	H 	0.54300 0.23140 0.89790 0.07000
C 	C 	0.46820 0.22210 0.89600 -0.01400
H 	H 	0.46550 0.20930 0.70940 0.05100
C 	C 	0.42870 0.24770 0.34600 0.23300
H 	H 	0.39980 0.25200 0.45700 -0.01500
C 	C 	0.47550 0.26050 0.45200 -0.34600
H 	H 	0.47810 0.27340 0.63810 0.15500
C 	C 	0.37530 0.20640 0.99200 0.46000
O 	O 	0.36720 0.21950 0.73100 -0.27900
C 	C 	0.51090 0.20600 0.19900 -0.06300
H 	H 	0.53670 0.18250 0.21340 0.06300
C 	C 	0.46400 0.19130 0.08700 0.01700
H 	H 	0.45820 0.15840 0.02630 0.04800
C 	C 	0.43180 0.27870 0.15500 -0.20700
H 	H 	0.40620 0.30250 0.14220 0.11400
C 	C 	0.47990 0.28940 0.26300 0.15800
H 	H 	0.48630 0.32220 0.32360 -0.02700
Zn	Zn	0.78427 0.26891 0.07330 1.21000
O 	O 	0.72330 0.22860 0.99000 -0.75500
H 	H 	0.71170 0.20690 0.10730 0.24800
N 	N 	0.85160 0.24110 0.02000 -0.30600
C 	C 	0.88910 0.25560 0.85800 0.14300
H 	H 	0.88580 0.28070 0.71900 -0.02600
N 	N 	0.93340 0.23140 0.90620 -0.16300
C 	C 	0.87540 0.20210 0.19490 0.05100
O 	O 	0.16160 0.26750 0.51900 -0.50700
C 	C 	0.85400 0.17290 0.40930 -0.15000
H 	H 	0.82030 0.17690 0.45890 0.06900
O 	O 	0.13180 0.34010 0.56600 -0.32700
C 	C 	0.88340 0.13750 0.54890 0.07100
C 	C 	0.86380 0.10760 0.76600 -0.11500
H 	H 	0.83010 0.11170 0.81600 0.07900
C 	C 	0.89170 0.07200 0.91140 0.00800
H 	H 	0.87720 0.05220 0.05480 0.01700
C 	C 	0.94180 0.06630 0.83960 -0.04900
H 	H 	0.96180 0.04290 0.93540 0.04000
C 	C 	0.96180 0.09600 0.62400 -0.07200
H 	H 	0.99540 0.09170 0.57420 0.05400
C 	C 	0.93390 0.13190 0.47730 0.02800
C 	C 	0.95530 0.16140 0.26300 -0.11500
H 	H 	0.98890 0.15730 0.21140 0.06900
C 	C 	0.92580 0.19680 0.12800 0.05600
C 	C 	0.98110 0.24530 0.78700 0.17700
C 	C 	0.07380 0.27170 0.56900 -0.18700
C 	C 	0.98580 0.26450 0.51000 -0.11400
H 	H 	0.95700 0.26860 0.39790 0.07300
C 	C 	0.03180 0.27790 0.39600 0.04700
H 	H 	0.03450 0.29070 0.20940 0.02400
C 	C 	0.07130 0.25230 0.84600 0.03900
H 	H 	0.10020 0.24800 0.95700 0.04800
C 	C 	0.02450 0.23950 0.95200 -0.10100
H 	H 	0.02190 0.22660 0.13810 0.06700
C 	C 	0.12470 0.29360 0.49200 0.57600
O 	O 	0.13280 0.28050 0.23100 -0.29200
C 	C 	0.98910 0.29400 0.69900 -0.10600
H 	H 	0.96330 0.31750 0.71340 0.07600
C 	C 	0.03600 0.30870 0.58700 0.04400
H 	H 	0.04180 0.34160 0.52630 0.03200
C 	C 	0.06820 0.22130 0.65500 0.04400
H 	H 	0.09380 0.19750 0.64220 0.01900
C 	C 	0.02010 0.21060 0.76300 -0.10700
H 	H 	0.01370 0.17780 0.82360 0.06700
Zn	Zn	0.28427 0.76891 0.57330 1.22000
O 	O 	0.22330 0.72860 0.49000 -0.79200
H 	H 	0.21170 0.70690 0.60730 0.27500
N 	N 	0.35160 0.74110 0.52000 -0.28300
C 	C 	0.38910 0.75560 0.35800 0.11100
H 	H 	0.38580 0.78070 0.21900 -0.01700
N 	N 	0.43340 0.73140 0.40620 -0.16700
C 	C 	0.37540 0.70210 0.69490 0.02000
O 	O 	0.66160 0.76750 0.01900 -0.45300
C 	C 	0.35400 0.67290 0.90930 -0.08100
H 	H 	0.32030 0.67690 0.95890 0.04800
O 	O 	0.63180 0.84010 0.06600 -0.28600
C 	C 	0.38340 0.63750 0.04890 -0.02400
C 	C 	0.36380 0.60760 0.26600 -0.03900
H 	H 	0.33010 0.61170 0.31600 0.04500
C 	C 	0.39170 0.57200 0.41140 -0.07800
H 	H 	0.37720 0.55220 0.55480 0.05400
C 	C 	0.44180 0.56630 0.33960 0.02600
H 	H 	0.46180 0.54290 0.43540 0.01500
C 	C 	0.46180 0.59600 0.12400 -0.15000
H 	H 	0.49540 0.59170 0.07420 0.08300
C 	C 	0.43390 0.63190 0.97730 0.11000
C 	C 	0.45530 0.66140 0.76300 -0.17600
H 	H 	0.48890 0.65730 0.71140 0.08900
C 	C 	0.42580 0.69680 0.62800 0.09900
C 	C 	0.48110 0.74530 0.28700 0.15100
C 	C 	0.57380 0.77170 0.06900 -0.09700
C 	C 	0.48580 0.76450 0.01000 -0.10500
H 	H 	0.45700 0.76860 0.89790 0.07000
C 	C 	0.53180 0.77790 0.89600 -0.01400
H 	H 	0.53450 0.79070 0.70940 0.05100
C 	C 	0.57130 0.75230 0.34600 0.23300
H 	H 	0.60020 0.74800 0.45700 -0.01500
C 	C 	0.52450 0.73950 0.45200 -0.34600
H 	H 	0.52190 0.72660 0.63810 0.15500
C 	C 	0.62470 0.79360 0.99200 0.46000
O 	O 	0.63280 0.78050 0.73100 -0.27900
C 	C 	0.48910 0.79400 0.19900 -0.06300
H 	H 	0.46330 0.81750 0.21340 0.06300
C 	C 	0.53600 0.80870 0.08700 0.01700
H 	H 	0.54180 0.84160 0.02630 0.04800
C 	C 	0.56820 0.72130 0.15500 -0.20700
H 	H 	0.59380 0.69750 0.14220 0.11400
C 	C 	0.52010 0.71060 0.26300 0.15800
H 	H 	0.51370 0.67780 0.32360 -0.02700
