data_crystal

_cell_length_a 26.57570
_cell_length_b 26.57570
_cell_length_c 5.20770
_cell_angle_alpha 90.00000
_cell_angle_beta  90.00000
_cell_angle_gamma 90.00000

_symmetry_space_group_name_	'P 1'
_symmetry_space_group_name_H-M	'P 1'

loop_
_symmetry_equiv_pos_as_xyz
  x,y,z

loop_
_atom_site_label
_atom_site_type_symbol
_atom_site_fract_x
_atom_site_fract_y
_atom_site_fract_z
_atom_site_charge
Zn	Zn	0.27147 0.21421 0.93330 1.22400
O 	O 	0.22260 0.25450 0.10300 -0.76800
H 	H 	0.20180 0.26550 0.99090 0.27600
N 	N 	0.25120 0.14180 0.91800 -0.27200
C 	C 	0.26650 0.10410 0.05900 0.10100
H 	H 	0.29150 0.10680 0.18310 -0.01500
N 	N 	0.24190 0.06060 0.00510 -0.17200
C 	C 	0.21260 0.12170 0.75580 0.02600
O 	O 	0.27570 0.83270 0.35200 -0.49900
C 	C 	0.18310 0.14400 0.56920 -0.13700
H 	H 	0.18650 0.17800 0.53090 0.03700
O 	O 	0.31370 0.86950 0.67300 -0.23400
C 	C 	0.14820 0.11450 0.44030 0.04100
C 	C 	0.11840 0.13580 0.25200 -0.10400
H 	H 	0.12240 0.16970 0.21420 0.06400
C 	C 	0.08280 0.10840 0.11700 -0.00400
H 	H 	0.06300 0.12340 0.99130 0.03200
C 	C 	0.07760 0.05770 0.17540 -0.03700
H 	H 	0.05410 0.03830 0.08780 0.04000
C 	C 	0.10730 0.03590 0.36300 -0.07600
H 	H 	0.10330 0.00190 0.40030 0.06000
C 	C 	0.14300 0.06370 0.49880 0.04600
C 	C 	0.17250 0.04110 0.68700 -0.14000
H 	H 	0.16950 0.00700 0.72430 0.08200
C 	C 	0.20640 0.07120 0.81700 0.08500
C 	C 	0.25570 0.01220 0.11100 0.16900
C 	C 	0.28300 0.92190 0.32700 -0.17200
C 	C 	0.30490 0.00450 0.18300 1.43400
H 	H 	0.32830 0.03000 0.15770 -0.46600
C 	C 	0.32020 0.95890 0.29400 -1.36500
H 	H 	0.35340 0.95340 0.34230 0.52900
C 	C 	0.23240 0.92640 0.25800 -1.27100
H 	H 	0.20870 0.90100 0.28140 0.47600
C 	C 	0.22110 0.97340 0.15100 1.24800
H 	H 	0.18800 0.97920 0.10310 -0.40800
C 	C 	0.29670 0.87140 0.44500 0.40200
O 	O 	0.34790 0.87380 0.52000 -0.17800
C 	C 	0.27410 0.01020 0.35900 -1.68200
H 	H 	0.27730 0.03990 0.45240 0.61700
C 	C 	0.28800 0.96540 0.47200 1.46800
H 	H 	0.30030 0.96440 0.63870 -0.46800
C 	C 	0.26460 0.92210 0.07900 1.28800
H 	H 	0.26120 0.89240 0.98650 -0.37700
C 	C 	0.25140 0.96780 0.97400 -1.43700
H 	H 	0.23920 0.96880 0.80650 0.53500
Zn	Zn	0.77147 0.71421 0.43330 1.22700
O 	O 	0.72260 0.75450 0.60300 -0.80600
H 	H 	0.70180 0.76550 0.49090 0.29800
N 	N 	0.75120 0.64180 0.41800 -0.27300
C 	C 	0.76650 0.60410 0.55900 0.11200
H 	H 	0.79150 0.60680 0.68310 -0.02000
N 	N 	0.74190 0.56060 0.50510 -0.16500
C 	C 	0.71260 0.62170 0.25580 0.03000
O 	O 	0.77570 0.33270 0.85200 -0.48900
C 	C 	0.68310 0.64400 0.06920 -0.10000
H 	H 	0.68650 0.67800 0.03090 0.03500
O 	O 	0.81370 0.36950 0.17300 -0.25200
C 	C 	0.64820 0.61450 0.94030 0.01200
C 	C 	0.61840 0.63580 0.75200 -0.06700
H 	H 	0.62240 0.66970 0.71420 0.04700
C 	C 	0.58280 0.60840 0.61700 -0.04400
H 	H 	0.56300 0.62340 0.49130 0.04200
C 	C 	0.57760 0.55770 0.67540 -0.01300
H 	H 	0.55410 0.53830 0.58780 0.03000
C 	C 	0.60730 0.53590 0.86300 -0.09500
H 	H 	0.60330 0.50190 0.90030 0.06200
C 	C 	0.64300 0.56370 0.99880 0.04500
C 	C 	0.67250 0.54110 0.18700 -0.12700
H 	H 	0.66950 0.50700 0.22430 0.07500
C 	C 	0.70640 0.57120 0.31700 0.08400
C 	C 	0.75570 0.51220 0.61100 0.16600
C 	C 	0.78300 0.42190 0.82700 -0.11900
C 	C 	0.80490 0.50450 0.68300 0.03500
H 	H 	0.82830 0.53000 0.65770 0.02500
C 	C 	0.82020 0.45890 0.79400 -0.07500
H 	H 	0.85340 0.45340 0.84230 0.07000
C 	C 	0.73240 0.42640 0.75800 -0.21400
H 	H 	0.70870 0.40100 0.78140 0.10600
C 	C 	0.72110 0.47340 0.65100 0.14000
H 	H 	0.68800 0.47920 0.60310 -0.02100
C 	C 	0.79670 0.37140 0.94500 0.36800
O 	O 	0.84790 0.37380 0.02000 -0.14800
C 	C 	0.77410 0.51020 0.85900 -0.22800
H 	H 	0.77730 0.53990 0.95240 0.10500
C 	C 	0.78800 0.46540 0.97200 0.09500
H 	H 	0.80030 0.46440 0.13870 0.02400
C 	C 	0.76460 0.42210 0.57900 0.26600
H 	H 	0.76120 0.39240 0.48650 -0.04800
C 	C 	0.75140 0.46780 0.47400 -0.34500
H 	H 	0.73920 0.46880 0.30650 0.15500
Zn	Zn	0.72853 0.78579 0.93330 1.22300
O 	O 	0.77740 0.74550 0.10300 -0.76900
H 	H 	0.79820 0.73450 0.99090 0.27500
N 	N 	0.74880 0.85820 0.91800 -0.27300
C 	C 	0.73350 0.89590 0.05900 0.10100
H 	H 	0.70850 0.89320 0.18310 -0.01500
N 	N 	0.75810 0.93940 0.00510 -0.17200
C 	C 	0.78740 0.87830 0.75580 0.02600
O 	O 	0.72430 0.16730 0.35200 -0.49900
C 	C 	0.81690 0.85600 0.56920 -0.13700
H 	H 	0.81350 0.82200 0.53090 0.03700
O 	O 	0.68630 0.13050 0.67300 -0.23400
C 	C 	0.85180 0.88550 0.44030 0.04100
C 	C 	0.88160 0.86420 0.25200 -0.10400
H 	H 	0.87760 0.83030 0.21420 0.06400
C 	C 	0.91720 0.89160 0.11700 -0.00400
H 	H 	0.93700 0.87660 0.99130 0.03200
C 	C 	0.92240 0.94230 0.17540 -0.03700
H 	H 	0.94590 0.96170 0.08780 0.04000
C 	C 	0.89270 0.96410 0.36300 -0.07600
H 	H 	0.89670 0.99810 0.40030 0.06000
C 	C 	0.85700 0.93630 0.49880 0.04600
C 	C 	0.82750 0.95890 0.68700 -0.14000
H 	H 	0.83050 0.99300 0.72430 0.08200
C 	C 	0.79360 0.92880 0.81700 0.08500
C 	C 	0.74430 0.98780 0.11100 0.16900
C 	C 	0.71700 0.07810 0.32700 -0.17200
C 	C 	0.69510 0.99550 0.18300 1.43400
H 	H 	0.67170 0.97000 0.15770 -0.46600
C 	C 	0.67980 0.04110 0.29400 -1.36500
H 	H 	0.64660 0.04660 0.34230 0.52900
C 	C 	0.76760 0.07360 0.25800 -1.27100
H 	H 	0.79130 0.09900 0.28140 0.47600
C 	C 	0.77890 0.02660 0.15100 1.24800
H 	H 	0.81200 0.02080 0.10310 -0.40800
C 	C 	0.70330 0.12860 0.44500 0.40200
O 	O 	0.65210 0.12620 0.52000 -0.17800
C 	C 	0.72590 0.98980 0.35900 -1.68200
H 	H 	0.72270 0.96010 0.45240 0.61700
C 	C 	0.71200 0.03460 0.47200 1.46800
H 	H 	0.69970 0.03560 0.63870 -0.46800
C 	C 	0.73540 0.07790 0.07900 1.28800
H 	H 	0.73880 0.10760 0.98650 -0.37700
C 	C 	0.74860 0.03220 0.97400 -1.43700
H 	H 	0.76080 0.03120 0.80650 0.53500
Zn	Zn	0.22853 0.28579 0.43330 1.22700
O 	O 	0.27740 0.24550 0.60300 -0.80600
H 	H 	0.29820 0.23450 0.49090 0.29800
N 	N 	0.24880 0.35820 0.41800 -0.27300
C 	C 	0.23350 0.39590 0.55900 0.11200
H 	H 	0.20850 0.39320 0.68310 -0.02000
N 	N 	0.25810 0.43940 0.50510 -0.16500
C 	C 	0.28740 0.37830 0.25580 0.03000
O 	O 	0.22430 0.66730 0.85200 -0.48900
C 	C 	0.31690 0.35600 0.06920 -0.10000
H 	H 	0.31350 0.32200 0.03090 0.03500
O 	O 	0.18630 0.63050 0.17300 -0.25200
C 	C 	0.35180 0.38550 0.94030 0.01200
C 	C 	0.38160 0.36420 0.75200 -0.06700
H 	H 	0.37760 0.33030 0.71420 0.04700
C 	C 	0.41720 0.39160 0.61700 -0.04400
H 	H 	0.43700 0.37660 0.49130 0.04200
C 	C 	0.42240 0.44230 0.67540 -0.01300
H 	H 	0.44590 0.46170 0.58780 0.03000
C 	C 	0.39270 0.46410 0.86300 -0.09500
H 	H 	0.39670 0.49810 0.90030 0.06200
C 	C 	0.35700 0.43630 0.99880 0.04500
C 	C 	0.32750 0.45890 0.18700 -0.12700
H 	H 	0.33050 0.49300 0.22430 0.07500
C 	C 	0.29360 0.42880 0.31700 0.08400
C 	C 	0.24430 0.48780 0.61100 0.16600
C 	C 	0.21700 0.57810 0.82700 -0.11900
C 	C 	0.19510 0.49550 0.68300 0.03500
H 	H 	0.17170 0.47000 0.65770 0.02500
C 	C 	0.17980 0.54110 0.79400 -0.07500
H 	H 	0.14660 0.54660 0.84230 0.07000
C 	C 	0.26760 0.57360 0.75800 -0.21400
H 	H 	0.29130 0.59900 0.78140 0.10600
C 	C 	0.27890 0.52660 0.65100 0.14000
H 	H 	0.31200 0.52080 0.60310 -0.02100
C 	C 	0.20330 0.62860 0.94500 0.36800
O 	O 	0.15210 0.62620 0.02000 -0.14800
C 	C 	0.22590 0.48980 0.85900 -0.22800
H 	H 	0.22270 0.46010 0.95240 0.10500
C 	C 	0.21200 0.53460 0.97200 0.09500
H 	H 	0.19970 0.53560 0.13870 0.02400
C 	C 	0.23540 0.57790 0.57900 0.26600
H 	H 	0.23880 0.60760 0.48650 -0.04800
C 	C 	0.24860 0.53220 0.47400 -0.34500
H 	H 	0.26080 0.53120 0.30650 0.15500
Zn	Zn	0.21421 0.72853 0.06670 1.22300
O 	O 	0.25450 0.77740 0.89700 -0.76900
H 	H 	0.26550 0.79820 0.00910 0.27500
N 	N 	0.14180 0.74880 0.08200 -0.27300
C 	C 	0.10410 0.73350 0.94100 0.10100
H 	H 	0.10680 0.70850 0.81690 -0.01500
N 	N 	0.06060 0.75810 0.99490 -0.17200
C 	C 	0.12170 0.78740 0.24420 0.02600
O 	O 	0.83270 0.72430 0.64800 -0.49900
C 	C 	0.14400 0.81690 0.43080 -0.13700
H 	H 	0.17800 0.81350 0.46910 0.03700
O 	O 	0.86950 0.68630 0.32700 -0.23400
C 	C 	0.11450 0.85180 0.55970 0.04100
C 	C 	0.13580 0.88160 0.74800 -0.10400
H 	H 	0.16970 0.87760 0.78580 0.06400
C 	C 	0.10840 0.91720 0.88300 -0.00400
H 	H 	0.12340 0.93700 0.00870 0.03200
C 	C 	0.05770 0.92240 0.82460 -0.03700
H 	H 	0.03830 0.94590 0.91220 0.04000
C 	C 	0.03590 0.89270 0.63700 -0.07600
H 	H 	0.00190 0.89670 0.59970 0.06000
C 	C 	0.06370 0.85700 0.50120 0.04600
C 	C 	0.04110 0.82750 0.31300 -0.14000
H 	H 	0.00700 0.83050 0.27570 0.08200
C 	C 	0.07120 0.79360 0.18300 0.08500
C 	C 	0.01220 0.74430 0.88900 0.16900
C 	C 	0.92190 0.71700 0.67300 -0.17200
C 	C 	0.00450 0.69510 0.81700 1.43400
H 	H 	0.03000 0.67170 0.84230 -0.46600
C 	C 	0.95890 0.67980 0.70600 -1.36500
H 	H 	0.95340 0.64660 0.65770 0.52900
C 	C 	0.92640 0.76760 0.74200 -1.27100
H 	H 	0.90100 0.79130 0.71860 0.47600
C 	C 	0.97340 0.77890 0.84900 1.24800
H 	H 	0.97920 0.81200 0.89690 -0.40800
C 	C 	0.87140 0.70330 0.55500 0.40200
O 	O 	0.87380 0.65210 0.48000 -0.17800
C 	C 	0.01020 0.72590 0.64100 -1.68200
H 	H 	0.03990 0.72270 0.54760 0.61700
C 	C 	0.96540 0.71200 0.52800 1.46800
H 	H 	0.96440 0.69970 0.36130 -0.46800
C 	C 	0.92210 0.73540 0.92100 1.28800
H 	H 	0.89240 0.73880 0.01350 -0.37700
C 	C 	0.96780 0.74860 0.02600 -1.43700
H 	H 	0.96880 0.76080 0.19350 0.53500
Zn	Zn	0.71421 0.22853 0.56670 1.22700
O 	O 	0.75450 0.27740 0.39700 -0.80600
H 	H 	0.76550 0.29820 0.50910 0.29800
N 	N 	0.64180 0.24880 0.58200 -0.27300
C 	C 	0.60410 0.23350 0.44100 0.11200
H 	H 	0.60680 0.20850 0.31690 -0.02000
N 	N 	0.56060 0.25810 0.49490 -0.16500
C 	C 	0.62170 0.28740 0.74420 0.03000
O 	O 	0.33270 0.22430 0.14800 -0.48900
C 	C 	0.64400 0.31690 0.93080 -0.10000
H 	H 	0.67800 0.31350 0.96910 0.03500
O 	O 	0.36950 0.18630 0.82700 -0.25200
C 	C 	0.61450 0.35180 0.05970 0.01200
C 	C 	0.63580 0.38160 0.24800 -0.06700
H 	H 	0.66970 0.37760 0.28580 0.04700
C 	C 	0.60840 0.41720 0.38300 -0.04400
H 	H 	0.62340 0.43700 0.50870 0.04200
C 	C 	0.55770 0.42240 0.32460 -0.01300
H 	H 	0.53830 0.44590 0.41220 0.03000
C 	C 	0.53590 0.39270 0.13700 -0.09500
H 	H 	0.50190 0.39670 0.09970 0.06200
C 	C 	0.56370 0.35700 0.00120 0.04500
C 	C 	0.54110 0.32750 0.81300 -0.12700
H 	H 	0.50700 0.33050 0.77570 0.07500
C 	C 	0.57120 0.29360 0.68300 0.08400
C 	C 	0.51220 0.24430 0.38900 0.16600
C 	C 	0.42190 0.21700 0.17300 -0.11900
C 	C 	0.50450 0.19510 0.31700 0.03500
H 	H 	0.53000 0.17170 0.34230 0.02500
C 	C 	0.45890 0.17980 0.20600 -0.07500
H 	H 	0.45340 0.14660 0.15770 0.07000
C 	C 	0.42640 0.26760 0.24200 -0.21400
H 	H 	0.40100 0.29130 0.21860 0.10600
C 	C 	0.47340 0.27890 0.34900 0.14000
H 	H 	0.47920 0.31200 0.39690 -0.02100
C 	C 	0.37140 0.20330 0.05500 0.36800
O 	O 	0.37380 0.15210 0.98000 -0.14800
C 	C 	0.51020 0.22590 0.14100 -0.22800
H 	H 	0.53990 0.22270 0.04760 0.10500
C 	C 	0.46540 0.21200 0.02800 0.09500
H 	H 	0.46440 0.19970 0.86130 0.02400
C 	C 	0.42210 0.23540 0.42100 0.26600
H 	H 	0.39240 0.23880 0.51350 -0.04800
C 	C 	0.46780 0.24860 0.52600 -0.34500
H 	H 	0.46880 0.26080 0.69350 0.15500
Zn	Zn	0.78579 0.27147 0.06670 1.22300
O 	O 	0.74550 0.22260 0.89700 -0.76900
H 	H 	0.73450 0.20180 0.00910 0.27500
N 	N 	0.85820 0.25120 0.08200 -0.27300
C 	C 	0.89590 0.26650 0.94100 0.10100
H 	H 	0.89320 0.29150 0.81690 -0.01500
N 	N 	0.93940 0.24190 0.99490 -0.17200
C 	C 	0.87830 0.21260 0.24420 0.02600
O 	O 	0.16730 0.27570 0.64800 -0.49900
C 	C 	0.85600 0.18310 0.43080 -0.13700
H 	H 	0.82200 0.18650 0.46910 0.03700
O 	O 	0.13050 0.31370 0.32700 -0.23400
C 	C 	0.88550 0.14820 0.55970 0.04100
C 	C 	0.86420 0.11840 0.74800 -0.10400
H 	H 	0.83030 0.12240 0.78580 0.06400
C 	C 	0.89160 0.08280 0.88300 -0.00400
H 	H 	0.87660 0.06300 0.00870 0.03200
C 	C 	0.94230 0.07760 0.82460 -0.03700
H 	H 	0.96170 0.05410 0.91220 0.04000
C 	C 	0.96410 0.10730 0.63700 -0.07600
H 	H 	0.99810 0.10330 0.59970 0.06000
C 	C 	0.93630 0.14300 0.50120 0.04600
C 	C 	0.95890 0.17250 0.31300 -0.14000
H 	H 	0.99300 0.16950 0.27570 0.08200
C 	C 	0.92880 0.20640 0.18300 0.08500
C 	C 	0.98780 0.25570 0.88900 0.16900
C 	C 	0.07810 0.28300 0.67300 -0.17200
C 	C 	0.99550 0.30490 0.81700 1.43400
H 	H 	0.97000 0.32830 0.84230 -0.46600
C 	C 	0.04110 0.32020 0.70600 -1.36500
H 	H 	0.04660 0.35340 0.65770 0.52900
C 	C 	0.07360 0.23240 0.74200 -1.27100
H 	H 	0.09900 0.20870 0.71860 0.47600
C 	C 	0.02660 0.22110 0.84900 1.24800
H 	H 	0.02080 0.18800 0.89690 -0.40800
C 	C 	0.12860 0.29670 0.55500 0.40200
O 	O 	0.12620 0.34790 0.48000 -0.17800
C 	C 	0.98980 0.27410 0.64100 -1.68200
H 	H 	0.96010 0.27730 0.54760 0.61700
C 	C 	0.03460 0.28800 0.52800 1.46800
H 	H 	0.03560 0.30030 0.36130 -0.46800
C 	C 	0.07790 0.26460 0.92100 1.28800
H 	H 	0.10760 0.26120 0.01350 -0.37700
C 	C 	0.03220 0.25140 0.02600 -1.43700
H 	H 	0.03120 0.23920 0.19350 0.53500
Zn	Zn	0.28579 0.77147 0.56670 1.22700
O 	O 	0.24550 0.72260 0.39700 -0.80600
H 	H 	0.23450 0.70180 0.50910 0.29800
N 	N 	0.35820 0.75120 0.58200 -0.27300
C 	C 	0.39590 0.76650 0.44100 0.11200
H 	H 	0.39320 0.79150 0.31690 -0.02000
N 	N 	0.43940 0.74190 0.49490 -0.16500
C 	C 	0.37830 0.71260 0.74420 0.03000
O 	O 	0.66730 0.77570 0.14800 -0.48900
C 	C 	0.35600 0.68310 0.93080 -0.10000
H 	H 	0.32200 0.68650 0.96910 0.03500
O 	O 	0.63050 0.81370 0.82700 -0.25200
C 	C 	0.38550 0.64820 0.05970 0.01200
C 	C 	0.36420 0.61840 0.24800 -0.06700
H 	H 	0.33030 0.62240 0.28580 0.04700
C 	C 	0.39160 0.58280 0.38300 -0.04400
H 	H 	0.37660 0.56300 0.50870 0.04200
C 	C 	0.44230 0.57760 0.32460 -0.01300
H 	H 	0.46170 0.55410 0.41220 0.03000
C 	C 	0.46410 0.60730 0.13700 -0.09500
H 	H 	0.49810 0.60330 0.09970 0.06200
C 	C 	0.43630 0.64300 0.00120 0.04500
C 	C 	0.45890 0.67250 0.81300 -0.12700
H 	H 	0.49300 0.66950 0.77570 0.07500
C 	C 	0.42880 0.70640 0.68300 0.08400
C 	C 	0.48780 0.75570 0.38900 0.16600
C 	C 	0.57810 0.78300 0.17300 -0.11900
C 	C 	0.49550 0.80490 0.31700 0.03500
H 	H 	0.47000 0.82830 0.34230 0.02500
C 	C 	0.54110 0.82020 0.20600 -0.07500
H 	H 	0.54660 0.85340 0.15770 0.07000
C 	C 	0.57360 0.73240 0.24200 -0.21400
H 	H 	0.59900 0.70870 0.21860 0.10600
C 	C 	0.52660 0.72110 0.34900 0.14000
H 	H 	0.52080 0.68800 0.39690 -0.02100
C 	C 	0.62860 0.79670 0.05500 0.36800
O 	O 	0.62620 0.84790 0.98000 -0.14800
C 	C 	0.48980 0.77410 0.14100 -0.22800
H 	H 	0.46010 0.77730 0.04760 0.10500
C 	C 	0.53460 0.78800 0.02800 0.09500
H 	H 	0.53560 0.80030 0.86130 0.02400
C 	C 	0.57790 0.76460 0.42100 0.26600
H 	H 	0.60760 0.76120 0.51350 -0.04800
C 	C 	0.53220 0.75140 0.52600 -0.34500
H 	H 	0.53120 0.73920 0.69350 0.15500
