data_crystal

_cell_length_a 26.47010
_cell_length_b 26.47010
_cell_length_c 5.18840
_cell_angle_alpha 90.00000
_cell_angle_beta  90.00000
_cell_angle_gamma 90.00000

_symmetry_space_group_name_	'P 1'
_symmetry_space_group_name_H-M	'P 1'

loop_
_symmetry_equiv_pos_as_xyz
  x,y,z

loop_
_atom_site_label
_atom_site_type_symbol
_atom_site_fract_x
_atom_site_fract_y
_atom_site_fract_z
_atom_site_charge
Zn	Zn	0.27172 0.21431 0.92217 1.22600
O 	O 	0.22160 0.25470 0.09020 -0.79000
H 	H 	0.20080 0.26570 0.97830 0.29000
N 	N 	0.24900 0.14220 0.91500 -0.28000
C 	C 	0.26360 0.10450 0.05940 0.11800
H 	H 	0.28850 0.10770 0.18480 -0.02000
N 	N 	0.23940 0.06020 0.01140 -0.16700
C 	C 	0.21119 0.12180 0.75610 0.04200
O 	O 	0.27650 0.83370 0.37040 -0.53300
C 	C 	0.18230 0.14420 0.56590 -0.12900
H 	H 	0.18660 0.17810 0.52430 0.04200
O 	O 	0.30770 0.87160 0.69200 -0.27100
C 	C 	0.14670 0.11500 0.43830 0.04200
C 	C 	0.11760 0.13560 0.24320 -0.08800
H 	H 	0.12220 0.16940 0.20000 0.05800
C 	C 	0.08190 0.10750 0.10970 -0.02000
H 	H 	0.06240 0.12230 0.98120 0.02700
C 	C 	0.07590 0.05680 0.17210 -0.02900
H 	H 	0.05240 0.03720 0.08400 0.03400
C 	C 	0.10480 0.03560 0.36520 -0.09100
H 	H 	0.10020 0.00170 0.40660 0.06000
C 	C 	0.14080 0.06370 0.49990 0.04700
C 	C 	0.17010 0.04140 0.69050 -0.13500
H 	H 	0.16660 0.00740 0.73040 0.07700
C 	C 	0.20460 0.07120 0.81880 0.07800
C 	C 	0.25420 0.01290 0.11680 0.17400
C 	C 	0.28370 0.92180 0.32970 -0.14300
C 	C 	0.27260 0.01020 0.36580 0.10400
H 	H 	0.27500 0.03980 0.46190 -0.00000
C 	C 	0.28740 0.96550 0.47630 -0.15900
H 	H 	0.29960 0.96450 0.64440 0.10100
C 	C 	0.26540 0.92210 0.08010 -0.16200
H 	H 	0.26280 0.89240 0.98520 0.11000
C 	C 	0.25090 0.96800 0.97610 0.10900
H 	H 	0.23870 0.96900 0.80810 -0.00700
C 	C 	0.29580 0.87150 0.45500 0.45400
O 	O 	0.34460 0.87210 0.55000 -0.18800
C 	C 	0.30400 0.00610 0.18180 -0.31600
H 	H 	0.32710 0.03190 0.15420 0.14900
C 	C 	0.32020 0.96010 0.29000 0.22500
H 	H 	0.35390 0.95500 0.33400 -0.03100
C 	C 	0.23240 0.92680 0.26400 0.21300
H 	H 	0.20880 0.90120 0.28820 -0.04600
C 	C 	0.22000 0.97410 0.15900 -0.30800
H 	H 	0.18650 0.97980 0.11520 0.13500
Zn	Zn	0.77172 0.71431 0.42217 1.22800
O 	O 	0.72160 0.75470 0.59020 -0.80600
H 	H 	0.70080 0.76570 0.47830 0.30500
N 	N 	0.74900 0.64220 0.41500 -0.27500
C 	C 	0.76360 0.60450 0.55940 0.11100
H 	H 	0.78850 0.60770 0.68480 -0.02000
N 	N 	0.73940 0.56020 0.51140 -0.17100
C 	C 	0.71119 0.62180 0.25610 0.03600
O 	O 	0.77650 0.33370 0.87040 -0.53500
C 	C 	0.68230 0.64420 0.06590 -0.11400
H 	H 	0.68660 0.67810 0.02430 0.03900
O 	O 	0.80770 0.37160 0.19200 -0.27200
C 	C 	0.64670 0.61500 0.93830 0.02200
C 	C 	0.61760 0.63560 0.74320 -0.07200
H 	H 	0.62220 0.66940 0.70000 0.05000
C 	C 	0.58190 0.60750 0.60970 -0.04100
H 	H 	0.56240 0.62230 0.48120 0.03900
C 	C 	0.57590 0.55680 0.67210 -0.01400
H 	H 	0.55240 0.53720 0.58400 0.03000
C 	C 	0.60480 0.53560 0.86520 -0.10000
H 	H 	0.60020 0.50170 0.90660 0.06400
C 	C 	0.64080 0.56370 0.99990 0.05400
C 	C 	0.67010 0.54140 0.19050 -0.13800
H 	H 	0.66660 0.50740 0.23040 0.07800
C 	C 	0.70460 0.57120 0.31880 0.08200
C 	C 	0.75420 0.51290 0.61680 0.18700
C 	C 	0.78370 0.42180 0.82970 -0.17700
C 	C 	0.77260 0.51020 0.86580 -0.16800
H 	H 	0.77500 0.53980 0.96190 0.09100
C 	C 	0.78740 0.46550 0.97630 0.08800
H 	H 	0.79960 0.46450 0.14440 0.01500
C 	C 	0.76540 0.42210 0.58010 0.14100
H 	H 	0.76280 0.39240 0.48520 0.00000
C 	C 	0.75090 0.46800 0.47610 -0.19600
H 	H 	0.73870 0.46900 0.30810 0.10000
C 	C 	0.79580 0.37150 0.95500 0.47400
O 	O 	0.84460 0.37210 0.05000 -0.19600
C 	C 	0.80400 0.50610 0.68180 -0.06600
H 	H 	0.82710 0.53190 0.65420 0.06200
C 	C 	0.82020 0.46010 0.79000 0.01000
H 	H 	0.85390 0.45500 0.83400 0.04400
C 	C 	0.73240 0.42680 0.76400 -0.04900
H 	H 	0.70880 0.40120 0.78820 0.04800
C 	C 	0.72000 0.47410 0.65900 -0.02800
H 	H 	0.68650 0.47980 0.61520 0.03800
Zn	Zn	0.72828 0.78569 0.92217 1.22600
O 	O 	0.77840 0.74530 0.09020 -0.79000
H 	H 	0.79920 0.73430 0.97830 0.29000
N 	N 	0.75100 0.85780 0.91500 -0.28000
C 	C 	0.73640 0.89550 0.05940 0.11800
H 	H 	0.71150 0.89230 0.18480 -0.02000
N 	N 	0.76060 0.93980 0.01140 -0.16700
C 	C 	0.78881 0.87820 0.75610 0.04200
O 	O 	0.72350 0.16630 0.37040 -0.53300
C 	C 	0.81770 0.85580 0.56590 -0.12900
H 	H 	0.81340 0.82190 0.52430 0.04200
O 	O 	0.69230 0.12840 0.69200 -0.27100
C 	C 	0.85330 0.88500 0.43830 0.04200
C 	C 	0.88240 0.86440 0.24320 -0.08800
H 	H 	0.87780 0.83060 0.20000 0.05800
C 	C 	0.91810 0.89250 0.10970 -0.02000
H 	H 	0.93760 0.87770 0.98120 0.02700
C 	C 	0.92410 0.94320 0.17210 -0.02900
H 	H 	0.94760 0.96280 0.08400 0.03400
C 	C 	0.89520 0.96440 0.36520 -0.09100
H 	H 	0.89980 0.99830 0.40660 0.06000
C 	C 	0.85920 0.93630 0.49990 0.04700
C 	C 	0.82990 0.95860 0.69050 -0.13500
H 	H 	0.83340 0.99260 0.73040 0.07700
C 	C 	0.79540 0.92880 0.81880 0.07800
C 	C 	0.74580 0.98710 0.11680 0.17400
C 	C 	0.71630 0.07820 0.32970 -0.14300
C 	C 	0.72740 0.98980 0.36580 0.10400
H 	H 	0.72500 0.96020 0.46190 -0.00000
C 	C 	0.71260 0.03450 0.47630 -0.15900
H 	H 	0.70040 0.03550 0.64440 0.10100
C 	C 	0.73460 0.07790 0.08010 -0.16200
H 	H 	0.73720 0.10760 0.98520 0.11000
C 	C 	0.74910 0.03200 0.97610 0.10900
H 	H 	0.76130 0.03100 0.80810 -0.00700
C 	C 	0.70420 0.12850 0.45500 0.45400
O 	O 	0.65540 0.12790 0.55000 -0.18800
C 	C 	0.69600 0.99390 0.18180 -0.31600
H 	H 	0.67290 0.96810 0.15420 0.14900
C 	C 	0.67980 0.03990 0.29000 0.22500
H 	H 	0.64610 0.04500 0.33400 -0.03100
C 	C 	0.76760 0.07320 0.26400 0.21300
H 	H 	0.79120 0.09880 0.28820 -0.04600
C 	C 	0.78000 0.02590 0.15900 -0.30800
H 	H 	0.81350 0.02020 0.11520 0.13500
Zn	Zn	0.22828 0.28569 0.42217 1.22800
O 	O 	0.27840 0.24530 0.59020 -0.80600
H 	H 	0.29920 0.23430 0.47830 0.30500
N 	N 	0.25100 0.35780 0.41500 -0.27500
C 	C 	0.23640 0.39550 0.55940 0.11100
H 	H 	0.21150 0.39230 0.68480 -0.02000
N 	N 	0.26060 0.43980 0.51140 -0.17100
C 	C 	0.28881 0.37820 0.25610 0.03600
O 	O 	0.22350 0.66630 0.87040 -0.53500
C 	C 	0.31770 0.35580 0.06590 -0.11400
H 	H 	0.31340 0.32190 0.02430 0.03900
O 	O 	0.19230 0.62840 0.19200 -0.27200
C 	C 	0.35330 0.38500 0.93830 0.02200
C 	C 	0.38240 0.36440 0.74320 -0.07200
H 	H 	0.37780 0.33060 0.70000 0.05000
C 	C 	0.41810 0.39250 0.60970 -0.04100
H 	H 	0.43760 0.37770 0.48120 0.03900
C 	C 	0.42410 0.44320 0.67210 -0.01400
H 	H 	0.44760 0.46280 0.58400 0.03000
C 	C 	0.39520 0.46440 0.86520 -0.10000
H 	H 	0.39980 0.49830 0.90660 0.06400
C 	C 	0.35920 0.43630 0.99990 0.05400
C 	C 	0.32990 0.45860 0.19050 -0.13800
H 	H 	0.33340 0.49260 0.23040 0.07800
C 	C 	0.29540 0.42880 0.31880 0.08200
C 	C 	0.24580 0.48710 0.61680 0.18700
C 	C 	0.21630 0.57820 0.82970 -0.17700
C 	C 	0.22740 0.48980 0.86580 -0.16800
H 	H 	0.22500 0.46020 0.96190 0.09100
C 	C 	0.21260 0.53450 0.97630 0.08800
H 	H 	0.20040 0.53550 0.14440 0.01500
C 	C 	0.23460 0.57790 0.58010 0.14100
H 	H 	0.23720 0.60760 0.48520 0.00000
C 	C 	0.24910 0.53200 0.47610 -0.19600
H 	H 	0.26130 0.53100 0.30810 0.10000
C 	C 	0.20420 0.62850 0.95500 0.47400
O 	O 	0.15540 0.62790 0.05000 -0.19600
C 	C 	0.19600 0.49390 0.68180 -0.06600
H 	H 	0.17290 0.46810 0.65420 0.06200
C 	C 	0.17980 0.53990 0.79000 0.01000
H 	H 	0.14610 0.54500 0.83400 0.04400
C 	C 	0.26760 0.57320 0.76400 -0.04900
H 	H 	0.29120 0.59880 0.78820 0.04800
C 	C 	0.28000 0.52590 0.65900 -0.02800
H 	H 	0.31350 0.52020 0.61520 0.03800
Zn	Zn	0.21431 0.72828 0.07783 1.22600
O 	O 	0.25470 0.77840 0.90980 -0.79000
H 	H 	0.26570 0.79920 0.02170 0.29000
N 	N 	0.14220 0.75100 0.08500 -0.28000
C 	C 	0.10450 0.73640 0.94060 0.11800
H 	H 	0.10770 0.71150 0.81520 -0.02000
N 	N 	0.06020 0.76060 0.98860 -0.16700
C 	C 	0.12180 0.78881 0.24390 0.04200
O 	O 	0.83370 0.72350 0.62960 -0.53300
C 	C 	0.14420 0.81770 0.43410 -0.12900
H 	H 	0.17810 0.81340 0.47570 0.04200
O 	O 	0.87160 0.69230 0.30800 -0.27100
C 	C 	0.11500 0.85330 0.56170 0.04200
C 	C 	0.13560 0.88240 0.75680 -0.08800
H 	H 	0.16940 0.87780 0.80000 0.05800
C 	C 	0.10750 0.91810 0.89030 -0.02000
H 	H 	0.12230 0.93760 0.01880 0.02700
C 	C 	0.05680 0.92410 0.82790 -0.02900
H 	H 	0.03720 0.94760 0.91600 0.03400
C 	C 	0.03560 0.89520 0.63480 -0.09100
H 	H 	0.00170 0.89980 0.59340 0.06000
C 	C 	0.06370 0.85920 0.50010 0.04700
C 	C 	0.04140 0.82990 0.30950 -0.13500
H 	H 	0.00740 0.83340 0.26960 0.07700
C 	C 	0.07120 0.79540 0.18120 0.07800
C 	C 	0.01290 0.74580 0.88320 0.17400
C 	C 	0.92180 0.71630 0.67030 -0.14300
C 	C 	0.01020 0.72740 0.63420 0.10400
H 	H 	0.03980 0.72500 0.53810 -0.00000
C 	C 	0.96550 0.71260 0.52370 -0.15900
H 	H 	0.96450 0.70040 0.35560 0.10100
C 	C 	0.92210 0.73460 0.91990 -0.16200
H 	H 	0.89240 0.73720 0.01480 0.11000
C 	C 	0.96800 0.74910 0.02390 0.10900
H 	H 	0.96900 0.76130 0.19190 -0.00700
C 	C 	0.87150 0.70420 0.54500 0.45400
O 	O 	0.87210 0.65540 0.45000 -0.18800
C 	C 	0.00610 0.69600 0.81820 -0.31600
H 	H 	0.03190 0.67290 0.84580 0.14900
C 	C 	0.96010 0.67980 0.71000 0.22500
H 	H 	0.95500 0.64610 0.66600 -0.03100
C 	C 	0.92680 0.76760 0.73600 0.21300
H 	H 	0.90120 0.79120 0.71180 -0.04600
C 	C 	0.97410 0.78000 0.84100 -0.30800
H 	H 	0.97980 0.81350 0.88480 0.13500
Zn	Zn	0.71431 0.22828 0.57783 1.22800
O 	O 	0.75470 0.27840 0.40980 -0.80600
H 	H 	0.76570 0.29920 0.52170 0.30500
N 	N 	0.64220 0.25100 0.58500 -0.27500
C 	C 	0.60450 0.23640 0.44060 0.11100
H 	H 	0.60770 0.21150 0.31520 -0.02000
N 	N 	0.56020 0.26060 0.48860 -0.17100
C 	C 	0.62180 0.28881 0.74390 0.03600
O 	O 	0.33370 0.22350 0.12960 -0.53500
C 	C 	0.64420 0.31770 0.93410 -0.11400
H 	H 	0.67810 0.31340 0.97570 0.03900
O 	O 	0.37160 0.19230 0.80800 -0.27200
C 	C 	0.61500 0.35330 0.06170 0.02200
C 	C 	0.63560 0.38240 0.25680 -0.07200
H 	H 	0.66940 0.37780 0.30000 0.05000
C 	C 	0.60750 0.41810 0.39030 -0.04100
H 	H 	0.62230 0.43760 0.51880 0.03900
C 	C 	0.55680 0.42410 0.32790 -0.01400
H 	H 	0.53720 0.44760 0.41600 0.03000
C 	C 	0.53560 0.39520 0.13480 -0.10000
H 	H 	0.50170 0.39980 0.09340 0.06400
C 	C 	0.56370 0.35920 0.00010 0.05400
C 	C 	0.54140 0.32990 0.80950 -0.13800
H 	H 	0.50740 0.33340 0.76960 0.07800
C 	C 	0.57120 0.29540 0.68120 0.08200
C 	C 	0.51290 0.24580 0.38320 0.18700
C 	C 	0.42180 0.21630 0.17030 -0.17700
C 	C 	0.51020 0.22740 0.13420 -0.16800
H 	H 	0.53980 0.22500 0.03810 0.09100
C 	C 	0.46550 0.21260 0.02370 0.08800
H 	H 	0.46450 0.20040 0.85560 0.01500
C 	C 	0.42210 0.23460 0.41990 0.14100
H 	H 	0.39240 0.23720 0.51480 0.00000
C 	C 	0.46800 0.24910 0.52390 -0.19600
H 	H 	0.46900 0.26130 0.69190 0.10000
C 	C 	0.37150 0.20420 0.04500 0.47400
O 	O 	0.37210 0.15540 0.95000 -0.19600
C 	C 	0.50610 0.19600 0.31820 -0.06600
H 	H 	0.53190 0.17290 0.34580 0.06200
C 	C 	0.46010 0.17980 0.21000 0.01000
H 	H 	0.45500 0.14610 0.16600 0.04400
C 	C 	0.42680 0.26760 0.23600 -0.04900
H 	H 	0.40120 0.29120 0.21180 0.04800
C 	C 	0.47410 0.28000 0.34100 -0.02800
H 	H 	0.47980 0.31350 0.38480 0.03800
Zn	Zn	0.78569 0.27172 0.07783 1.22600
O 	O 	0.74530 0.22160 0.90980 -0.79000
H 	H 	0.73430 0.20080 0.02170 0.29000
N 	N 	0.85780 0.24900 0.08500 -0.28000
C 	C 	0.89550 0.26360 0.94060 0.11800
H 	H 	0.89230 0.28850 0.81520 -0.02000
N 	N 	0.93980 0.23940 0.98860 -0.16700
C 	C 	0.87820 0.21119 0.24390 0.04200
O 	O 	0.16630 0.27650 0.62960 -0.53300
C 	C 	0.85580 0.18230 0.43410 -0.12900
H 	H 	0.82190 0.18660 0.47570 0.04200
O 	O 	0.12840 0.30770 0.30800 -0.27100
C 	C 	0.88500 0.14670 0.56170 0.04200
C 	C 	0.86440 0.11760 0.75680 -0.08800
H 	H 	0.83060 0.12220 0.80000 0.05800
C 	C 	0.89250 0.08190 0.89030 -0.02000
H 	H 	0.87770 0.06240 0.01880 0.02700
C 	C 	0.94320 0.07590 0.82790 -0.02900
H 	H 	0.96280 0.05240 0.91600 0.03400
C 	C 	0.96440 0.10480 0.63480 -0.09100
H 	H 	0.99830 0.10020 0.59340 0.06000
C 	C 	0.93630 0.14080 0.50010 0.04700
C 	C 	0.95860 0.17010 0.30950 -0.13500
H 	H 	0.99260 0.16660 0.26960 0.07700
C 	C 	0.92880 0.20460 0.18120 0.07800
C 	C 	0.98710 0.25420 0.88320 0.17400
C 	C 	0.07820 0.28370 0.67030 -0.14300
C 	C 	0.98980 0.27260 0.63420 0.10400
H 	H 	0.96020 0.27500 0.53810 -0.00000
C 	C 	0.03450 0.28740 0.52370 -0.15900
H 	H 	0.03550 0.29960 0.35560 0.10100
C 	C 	0.07790 0.26540 0.91990 -0.16200
H 	H 	0.10760 0.26280 0.01480 0.11000
C 	C 	0.03200 0.25090 0.02390 0.10900
H 	H 	0.03100 0.23870 0.19190 -0.00700
C 	C 	0.12850 0.29580 0.54500 0.45400
O 	O 	0.12790 0.34460 0.45000 -0.18800
C 	C 	0.99390 0.30400 0.81820 -0.31600
H 	H 	0.96810 0.32710 0.84580 0.14900
C 	C 	0.03990 0.32020 0.71000 0.22500
H 	H 	0.04500 0.35390 0.66600 -0.03100
C 	C 	0.07320 0.23240 0.73600 0.21300
H 	H 	0.09880 0.20880 0.71180 -0.04600
C 	C 	0.02590 0.22000 0.84100 -0.30800
H 	H 	0.02020 0.18650 0.88480 0.13500
Zn	Zn	0.28569 0.77172 0.57783 1.22800
O 	O 	0.24530 0.72160 0.40980 -0.80600
H 	H 	0.23430 0.70080 0.52170 0.30500
N 	N 	0.35780 0.74900 0.58500 -0.27500
C 	C 	0.39550 0.76360 0.44060 0.11100
H 	H 	0.39230 0.78850 0.31520 -0.02000
N 	N 	0.43980 0.73940 0.48860 -0.17100
C 	C 	0.37820 0.71119 0.74390 0.03600
O 	O 	0.66630 0.77650 0.12960 -0.53500
C 	C 	0.35580 0.68230 0.93410 -0.11400
H 	H 	0.32190 0.68660 0.97570 0.03900
O 	O 	0.62840 0.80770 0.80800 -0.27200
C 	C 	0.38500 0.64670 0.06170 0.02200
C 	C 	0.36440 0.61760 0.25680 -0.07200
H 	H 	0.33060 0.62220 0.30000 0.05000
C 	C 	0.39250 0.58190 0.39030 -0.04100
H 	H 	0.37770 0.56240 0.51880 0.03900
C 	C 	0.44320 0.57590 0.32790 -0.01400
H 	H 	0.46280 0.55240 0.41600 0.03000
C 	C 	0.46440 0.60480 0.13480 -0.10000
H 	H 	0.49830 0.60020 0.09340 0.06400
C 	C 	0.43630 0.64080 0.00010 0.05400
C 	C 	0.45860 0.67010 0.80950 -0.13800
H 	H 	0.49260 0.66660 0.76960 0.07800
C 	C 	0.42880 0.70460 0.68120 0.08200
C 	C 	0.48710 0.75420 0.38320 0.18700
C 	C 	0.57820 0.78370 0.17030 -0.17700
C 	C 	0.48980 0.77260 0.13420 -0.16800
H 	H 	0.46020 0.77500 0.03810 0.09100
C 	C 	0.53450 0.78740 0.02370 0.08800
H 	H 	0.53550 0.79960 0.85560 0.01500
C 	C 	0.57790 0.76540 0.41990 0.14100
H 	H 	0.60760 0.76280 0.51480 0.00000
C 	C 	0.53200 0.75090 0.52390 -0.19600
H 	H 	0.53100 0.73870 0.69190 0.10000
C 	C 	0.62850 0.79580 0.04500 0.47400
O 	O 	0.62790 0.84460 0.95000 -0.19600
C 	C 	0.49390 0.80400 0.31820 -0.06600
H 	H 	0.46810 0.82710 0.34580 0.06200
C 	C 	0.53990 0.82020 0.21000 0.01000
H 	H 	0.54500 0.85390 0.16600 0.04400
C 	C 	0.57320 0.73240 0.23600 -0.04900
H 	H 	0.59880 0.70880 0.21180 0.04800
C 	C 	0.52590 0.72000 0.34100 -0.02800
H 	H 	0.52020 0.68650 0.38480 0.03800
