data_crystal

_cell_length_a 26.42100
_cell_length_b 26.42100
_cell_length_c 4.71170
_cell_angle_alpha 90.00000
_cell_angle_beta  90.00000
_cell_angle_gamma 90.00000

_symmetry_space_group_name_	'P 1'
_symmetry_space_group_name_H-M	'P 1'

loop_
_symmetry_equiv_pos_as_xyz
  x,y,z

loop_
_atom_site_label
_atom_site_type_symbol
_atom_site_fract_x
_atom_site_fract_y
_atom_site_fract_z
_atom_site_charge
Zn	Zn	0.26939 0.21578 0.91460 1.22000
O 	O 	0.22910 0.27370 0.00800 -0.76900
H 	H 	0.20740 0.28520 0.89120 0.26500
N 	N 	0.24220 0.14840 0.97700 -0.30200
C 	C 	0.25530 0.10990 0.13400 0.15200
H 	H 	0.28020 0.11320 0.27260 -0.02200
N 	N 	0.23160 0.06500 0.08940 -0.17300
C 	C 	0.20270 0.12590 0.79620 0.03500
O 	O 	0.27030 0.83840 0.46300 -0.54000
C 	C 	0.17370 0.14730 0.58400 -0.13000
H 	H 	0.17750 0.18120 0.53450 0.06000
O 	O 	0.34200 0.86230 0.45900 -0.29200
C 	C 	0.13850 0.11670 0.44510 0.05200
C 	C 	0.10920 0.13720 0.23100 -0.09200
H 	H 	0.11360 0.17110 0.18310 0.06600
C 	C 	0.07340 0.10870 0.08500 -0.01200
H 	H 	0.05380 0.12280 0.94160 0.02400
C 	C 	0.06840 0.05820 0.16310 -0.03300
H 	H 	0.04500 0.03800 0.06920 0.03500
C 	C 	0.09760 0.03710 0.37800 -0.08700
H 	H 	0.09320 0.00330 0.42580 0.05900
C 	C 	0.13340 0.06600 0.52380 0.04100
C 	C 	0.16280 0.04410 0.73700 -0.12500
H 	H 	0.15940 0.01020 0.78580 0.07200
C 	C 	0.19730 0.07540 0.87400 0.06500
C 	C 	0.24590 0.01790 0.19600 0.21000
C 	C 	0.27460 0.92700 0.41600 -0.22700
C 	C 	0.29540 0.01130 0.27600 -0.18300
H 	H 	0.31850 0.03770 0.25530 0.10700
C 	C 	0.31140 0.96510 0.39000 0.12000
H 	H 	0.34480 0.95980 0.44480 0.00800
C 	C 	0.22360 0.93110 0.33800 0.08500
H 	H 	0.20030 0.90500 0.35710 0.00200
C 	C 	0.21190 0.97870 0.22800 -0.16000
H 	H 	0.17860 0.98450 0.17140 0.08400
C 	C 	0.29510 0.87590 0.50600 0.59900
C 	C 	0.26490 0.01460 0.46900 -0.07000
H 	H 	0.26780 0.04390 0.57740 0.05900
C 	C 	0.27940 0.96910 0.58400 0.00900
H 	H 	0.29200 0.96690 0.76800 0.03800
C 	C 	0.25570 0.92780 0.14400 0.04100
H 	H 	0.25260 0.89840 0.03700 0.03700
C 	C 	0.24160 0.97430 0.03700 -0.08400
H 	H 	0.22880 0.97630 0.85330 0.05900
O 	O 	0.30370 0.87070 0.77100 -0.30500
Zn	Zn	0.76939 0.71578 0.41460 1.22900
O 	O 	0.72910 0.77370 0.50800 -0.80400
H 	H 	0.70740 0.78520 0.39120 0.28800
N 	N 	0.74220 0.64840 0.47700 -0.28100
C 	C 	0.75530 0.60990 0.63400 0.11800
H 	H 	0.78020 0.61320 0.77260 -0.01200
N 	N 	0.73160 0.56500 0.58940 -0.17500
C 	C 	0.70270 0.62590 0.29620 0.01100
O 	O 	0.77030 0.33840 0.96300 -0.48700
C 	C 	0.67370 0.64730 0.08400 -0.08100
H 	H 	0.67750 0.68120 0.03450 0.04300
O 	O 	0.84200 0.36230 0.95900 -0.25500
C 	C 	0.63850 0.61670 0.94510 -0.02100
C 	C 	0.60920 0.63720 0.73100 -0.04100
H 	H 	0.61360 0.67110 0.68310 0.04000
C 	C 	0.57340 0.60870 0.58500 -0.07600
H 	H 	0.55380 0.62280 0.44160 0.05500
C 	C 	0.56840 0.55820 0.66310 0.02000
H 	H 	0.54500 0.53800 0.56920 0.01800
C 	C 	0.59760 0.53710 0.87800 -0.14000
H 	H 	0.59320 0.50330 0.92580 0.08000
C 	C 	0.63340 0.56600 0.02380 0.10100
C 	C 	0.66280 0.54410 0.23700 -0.17000
H 	H 	0.65940 0.51020 0.28580 0.08700
C 	C 	0.69730 0.57540 0.37400 0.09900
C 	C 	0.74590 0.51790 0.69600 0.17800
C 	C 	0.77460 0.42700 0.91600 -0.13900
C 	C 	0.79540 0.51130 0.77600 0.03100
H 	H 	0.81850 0.53770 0.75530 0.03400
C 	C 	0.81140 0.46510 0.89000 -0.06200
H 	H 	0.84480 0.45980 0.94480 0.07800
C 	C 	0.72360 0.43110 0.83800 -0.28500
H 	H 	0.70030 0.40500 0.85710 0.13900
C 	C 	0.71190 0.47870 0.72800 0.23600
H 	H 	0.67860 0.48450 0.67140 -0.05300
C 	C 	0.79510 0.37590 0.00600 0.48300
C 	C 	0.76490 0.51460 0.96900 -0.22600
H 	H 	0.76780 0.54390 0.07740 0.11200
C 	C 	0.77940 0.46910 0.08400 0.10000
H 	H 	0.79200 0.46690 0.26800 0.01400
C 	C 	0.75570 0.42780 0.64400 0.35200
H 	H 	0.75260 0.39840 0.53700 -0.06800
C 	C 	0.74160 0.47430 0.53700 -0.45500
H 	H 	0.72880 0.47630 0.35330 0.18900
O 	O 	0.80370 0.37070 0.27100 -0.29000
Zn	Zn	0.73061 0.78422 0.91460 1.21900
O 	O 	0.77090 0.72630 0.00800 -0.77000
H 	H 	0.79260 0.71480 0.89120 0.26400
N 	N 	0.75780 0.85160 0.97700 -0.30300
C 	C 	0.74470 0.89010 0.13400 0.15100
H 	H 	0.71980 0.88680 0.27260 -0.02300
N 	N 	0.76840 0.93500 0.08940 -0.17400
C 	C 	0.79730 0.87410 0.79620 0.03400
O 	O 	0.72970 0.16160 0.46300 -0.54100
C 	C 	0.82630 0.85270 0.58400 -0.13100
H 	H 	0.82250 0.81880 0.53450 0.05900
O 	O 	0.65800 0.13770 0.45900 -0.29300
C 	C 	0.86150 0.88330 0.44510 0.05100
C 	C 	0.89080 0.86280 0.23100 -0.09300
H 	H 	0.88640 0.82890 0.18310 0.06500
C 	C 	0.92660 0.89130 0.08500 -0.01300
H 	H 	0.94620 0.87720 0.94160 0.02400
C 	C 	0.93160 0.94180 0.16310 -0.03300
H 	H 	0.95500 0.96200 0.06920 0.03500
C 	C 	0.90240 0.96290 0.37800 -0.08700
H 	H 	0.90680 0.99670 0.42580 0.05900
C 	C 	0.86660 0.93400 0.52380 0.04100
C 	C 	0.83720 0.95590 0.73700 -0.12500
H 	H 	0.84060 0.98980 0.78580 0.07200
C 	C 	0.80270 0.92460 0.87400 0.06500
C 	C 	0.75410 0.98210 0.19600 0.21000
C 	C 	0.72540 0.07300 0.41600 -0.22700
C 	C 	0.70460 0.98870 0.27600 -0.18300
H 	H 	0.68150 0.96230 0.25530 0.10700
C 	C 	0.68860 0.03490 0.39000 0.12000
H 	H 	0.65520 0.04020 0.44480 0.00800
C 	C 	0.77640 0.06890 0.33800 0.08500
H 	H 	0.79970 0.09500 0.35710 0.00200
C 	C 	0.78810 0.02130 0.22800 -0.16000
H 	H 	0.82140 0.01550 0.17140 0.08400
C 	C 	0.70490 0.12410 0.50600 0.59900
C 	C 	0.73510 0.98540 0.46900 -0.07000
H 	H 	0.73220 0.95610 0.57740 0.05900
C 	C 	0.72060 0.03090 0.58400 0.00900
H 	H 	0.70800 0.03310 0.76800 0.03800
C 	C 	0.74430 0.07220 0.14400 0.04100
H 	H 	0.74740 0.10160 0.03700 0.03700
C 	C 	0.75840 0.02570 0.03700 -0.08400
H 	H 	0.77120 0.02370 0.85330 0.05900
O 	O 	0.69630 0.12930 0.77100 -0.30500
Zn	Zn	0.23061 0.28422 0.41460 1.22900
O 	O 	0.27090 0.22630 0.50800 -0.80400
H 	H 	0.29260 0.21480 0.39120 0.28800
N 	N 	0.25780 0.35160 0.47700 -0.28100
C 	C 	0.24470 0.39010 0.63400 0.11800
H 	H 	0.21980 0.38680 0.77260 -0.01200
N 	N 	0.26840 0.43500 0.58940 -0.17500
C 	C 	0.29730 0.37410 0.29620 0.01100
O 	O 	0.22970 0.66160 0.96300 -0.48700
C 	C 	0.32630 0.35270 0.08400 -0.08100
H 	H 	0.32250 0.31880 0.03450 0.04300
O 	O 	0.15800 0.63770 0.95900 -0.25500
C 	C 	0.36150 0.38330 0.94510 -0.02100
C 	C 	0.39080 0.36280 0.73100 -0.04100
H 	H 	0.38640 0.32890 0.68310 0.04000
C 	C 	0.42660 0.39130 0.58500 -0.07600
H 	H 	0.44620 0.37720 0.44160 0.05500
C 	C 	0.43160 0.44180 0.66310 0.02000
H 	H 	0.45500 0.46200 0.56920 0.01800
C 	C 	0.40240 0.46290 0.87800 -0.14000
H 	H 	0.40680 0.49670 0.92580 0.08000
C 	C 	0.36660 0.43400 0.02380 0.10100
C 	C 	0.33720 0.45590 0.23700 -0.17000
H 	H 	0.34060 0.48980 0.28580 0.08700
C 	C 	0.30270 0.42460 0.37400 0.09900
C 	C 	0.25410 0.48210 0.69600 0.17800
C 	C 	0.22540 0.57300 0.91600 -0.13900
C 	C 	0.20460 0.48870 0.77600 0.03100
H 	H 	0.18150 0.46230 0.75530 0.03400
C 	C 	0.18860 0.53490 0.89000 -0.06200
H 	H 	0.15520 0.54020 0.94480 0.07800
C 	C 	0.27640 0.56890 0.83800 -0.28500
H 	H 	0.29970 0.59500 0.85710 0.13900
C 	C 	0.28810 0.52130 0.72800 0.23600
H 	H 	0.32140 0.51550 0.67140 -0.05300
C 	C 	0.20490 0.62410 0.00600 0.48300
C 	C 	0.23510 0.48540 0.96900 -0.22600
H 	H 	0.23220 0.45610 0.07740 0.11200
C 	C 	0.22060 0.53090 0.08400 0.10000
H 	H 	0.20800 0.53310 0.26800 0.01400
C 	C 	0.24430 0.57220 0.64400 0.35200
H 	H 	0.24740 0.60160 0.53700 -0.06800
C 	C 	0.25840 0.52570 0.53700 -0.45500
H 	H 	0.27120 0.52370 0.35330 0.18900
O 	O 	0.19630 0.62930 0.27100 -0.29000
Zn	Zn	0.21578 0.73061 0.08540 1.21900
O 	O 	0.27370 0.77090 0.99200 -0.77000
H 	H 	0.28520 0.79260 0.10880 0.26400
N 	N 	0.14840 0.75780 0.02300 -0.30300
C 	C 	0.10990 0.74470 0.86600 0.15100
H 	H 	0.11320 0.71980 0.72740 -0.02300
N 	N 	0.06500 0.76840 0.91060 -0.17400
C 	C 	0.12590 0.79730 0.20380 0.03400
O 	O 	0.83840 0.72970 0.53700 -0.54100
C 	C 	0.14730 0.82630 0.41600 -0.13100
H 	H 	0.18120 0.82250 0.46550 0.05900
O 	O 	0.86230 0.65800 0.54100 -0.29300
C 	C 	0.11670 0.86150 0.55490 0.05100
C 	C 	0.13720 0.89080 0.76900 -0.09300
H 	H 	0.17110 0.88640 0.81690 0.06500
C 	C 	0.10870 0.92660 0.91500 -0.01300
H 	H 	0.12280 0.94620 0.05840 0.02400
C 	C 	0.05820 0.93160 0.83690 -0.03300
H 	H 	0.03800 0.95500 0.93080 0.03500
C 	C 	0.03710 0.90240 0.62200 -0.08700
H 	H 	0.00330 0.90680 0.57420 0.05900
C 	C 	0.06600 0.86660 0.47620 0.04100
C 	C 	0.04410 0.83720 0.26300 -0.12500
H 	H 	0.01020 0.84060 0.21420 0.07200
C 	C 	0.07540 0.80270 0.12600 0.06500
C 	C 	0.01790 0.75410 0.80400 0.21000
C 	C 	0.92700 0.72540 0.58400 -0.22700
C 	C 	0.01130 0.70460 0.72400 -0.18300
H 	H 	0.03770 0.68150 0.74470 0.10700
C 	C 	0.96510 0.68860 0.61000 0.12000
H 	H 	0.95980 0.65520 0.55520 0.00800
C 	C 	0.93110 0.77640 0.66200 0.08500
H 	H 	0.90500 0.79970 0.64290 0.00200
C 	C 	0.97870 0.78810 0.77200 -0.16000
H 	H 	0.98450 0.82140 0.82860 0.08400
C 	C 	0.87590 0.70490 0.49400 0.59900
C 	C 	0.01460 0.73510 0.53100 -0.07000
H 	H 	0.04390 0.73220 0.42260 0.05900
C 	C 	0.96910 0.72060 0.41600 0.00900
H 	H 	0.96690 0.70800 0.23200 0.03800
C 	C 	0.92780 0.74430 0.85600 0.04100
H 	H 	0.89840 0.74740 0.96300 0.03700
C 	C 	0.97430 0.75840 0.96300 -0.08400
H 	H 	0.97630 0.77120 0.14670 0.05900
O 	O 	0.87070 0.69630 0.22900 -0.30500
Zn	Zn	0.71578 0.23061 0.58540 1.22900
O 	O 	0.77370 0.27090 0.49200 -0.80400
H 	H 	0.78520 0.29260 0.60880 0.28800
N 	N 	0.64840 0.25780 0.52300 -0.28100
C 	C 	0.60990 0.24470 0.36600 0.11800
H 	H 	0.61320 0.21980 0.22740 -0.01200
N 	N 	0.56500 0.26840 0.41060 -0.17500
C 	C 	0.62590 0.29730 0.70380 0.01100
O 	O 	0.33840 0.22970 0.03700 -0.48700
C 	C 	0.64730 0.32630 0.91600 -0.08100
H 	H 	0.68120 0.32250 0.96550 0.04300
O 	O 	0.36230 0.15800 0.04100 -0.25500
C 	C 	0.61670 0.36150 0.05490 -0.02100
C 	C 	0.63720 0.39080 0.26900 -0.04100
H 	H 	0.67110 0.38640 0.31690 0.04000
C 	C 	0.60870 0.42660 0.41500 -0.07600
H 	H 	0.62280 0.44620 0.55840 0.05500
C 	C 	0.55820 0.43160 0.33690 0.02000
H 	H 	0.53800 0.45500 0.43080 0.01800
C 	C 	0.53710 0.40240 0.12200 -0.14000
H 	H 	0.50330 0.40680 0.07420 0.08000
C 	C 	0.56600 0.36660 0.97620 0.10100
C 	C 	0.54410 0.33720 0.76300 -0.17000
H 	H 	0.51020 0.34060 0.71420 0.08700
C 	C 	0.57540 0.30270 0.62600 0.09900
C 	C 	0.51790 0.25410 0.30400 0.17800
C 	C 	0.42700 0.22540 0.08400 -0.13900
C 	C 	0.51130 0.20460 0.22400 0.03100
H 	H 	0.53770 0.18150 0.24470 0.03400
C 	C 	0.46510 0.18860 0.11000 -0.06200
H 	H 	0.45980 0.15520 0.05520 0.07800
C 	C 	0.43110 0.27640 0.16200 -0.28500
H 	H 	0.40500 0.29970 0.14290 0.13900
C 	C 	0.47870 0.28810 0.27200 0.23600
H 	H 	0.48450 0.32140 0.32860 -0.05300
C 	C 	0.37590 0.20490 0.99400 0.48300
C 	C 	0.51460 0.23510 0.03100 -0.22600
H 	H 	0.54390 0.23220 0.92260 0.11200
C 	C 	0.46910 0.22060 0.91600 0.10000
H 	H 	0.46690 0.20800 0.73200 0.01400
C 	C 	0.42780 0.24430 0.35600 0.35200
H 	H 	0.39840 0.24740 0.46300 -0.06800
C 	C 	0.47430 0.25840 0.46300 -0.45500
H 	H 	0.47630 0.27120 0.64670 0.18900
O 	O 	0.37070 0.19630 0.72900 -0.29000
Zn	Zn	0.78422 0.26939 0.08540 1.21900
O 	O 	0.72630 0.22910 0.99200 -0.77000
H 	H 	0.71480 0.20740 0.10880 0.26400
N 	N 	0.85160 0.24220 0.02300 -0.30300
C 	C 	0.89010 0.25530 0.86600 0.15100
H 	H 	0.88680 0.28020 0.72740 -0.02300
N 	N 	0.93500 0.23160 0.91060 -0.17400
C 	C 	0.87410 0.20270 0.20380 0.03400
O 	O 	0.16160 0.27030 0.53700 -0.54100
C 	C 	0.85270 0.17370 0.41600 -0.13100
H 	H 	0.81880 0.17750 0.46550 0.05900
O 	O 	0.13770 0.34200 0.54100 -0.29300
C 	C 	0.88330 0.13850 0.55490 0.05100
C 	C 	0.86280 0.10920 0.76900 -0.09300
H 	H 	0.82890 0.11360 0.81690 0.06500
C 	C 	0.89130 0.07340 0.91500 -0.01300
H 	H 	0.87720 0.05380 0.05840 0.02400
C 	C 	0.94180 0.06840 0.83690 -0.03300
H 	H 	0.96200 0.04500 0.93080 0.03500
C 	C 	0.96290 0.09760 0.62200 -0.08700
H 	H 	0.99670 0.09320 0.57420 0.05900
C 	C 	0.93400 0.13340 0.47620 0.04100
C 	C 	0.95590 0.16280 0.26300 -0.12500
H 	H 	0.98980 0.15940 0.21420 0.07200
C 	C 	0.92460 0.19730 0.12600 0.06500
C 	C 	0.98210 0.24590 0.80400 0.21000
C 	C 	0.07300 0.27460 0.58400 -0.22700
C 	C 	0.98870 0.29540 0.72400 -0.18300
H 	H 	0.96230 0.31850 0.74470 0.10700
C 	C 	0.03490 0.31140 0.61000 0.12000
H 	H 	0.04020 0.34480 0.55520 0.00800
C 	C 	0.06890 0.22360 0.66200 0.08500
H 	H 	0.09500 0.20030 0.64290 0.00200
C 	C 	0.02130 0.21190 0.77200 -0.16000
H 	H 	0.01550 0.17860 0.82860 0.08400
C 	C 	0.12410 0.29510 0.49400 0.59900
C 	C 	0.98540 0.26490 0.53100 -0.07000
H 	H 	0.95610 0.26780 0.42260 0.05900
C 	C 	0.03090 0.27940 0.41600 0.00900
H 	H 	0.03310 0.29200 0.23200 0.03800
C 	C 	0.07220 0.25570 0.85600 0.04100
H 	H 	0.10160 0.25260 0.96300 0.03700
C 	C 	0.02570 0.24160 0.96300 -0.08400
H 	H 	0.02370 0.22880 0.14670 0.05900
O 	O 	0.12930 0.30370 0.22900 -0.30500
Zn	Zn	0.28422 0.76939 0.58540 1.22900
O 	O 	0.22630 0.72910 0.49200 -0.80400
H 	H 	0.21480 0.70740 0.60880 0.28800
N 	N 	0.35160 0.74220 0.52300 -0.28100
C 	C 	0.39010 0.75530 0.36600 0.11800
H 	H 	0.38680 0.78020 0.22740 -0.01200
N 	N 	0.43500 0.73160 0.41060 -0.17500
C 	C 	0.37410 0.70270 0.70380 0.01100
O 	O 	0.66160 0.77030 0.03700 -0.48700
C 	C 	0.35270 0.67370 0.91600 -0.08100
H 	H 	0.31880 0.67750 0.96550 0.04300
O 	O 	0.63770 0.84200 0.04100 -0.25500
C 	C 	0.38330 0.63850 0.05490 -0.02100
C 	C 	0.36280 0.60920 0.26900 -0.04100
H 	H 	0.32890 0.61360 0.31690 0.04000
C 	C 	0.39130 0.57340 0.41500 -0.07600
H 	H 	0.37720 0.55380 0.55840 0.05500
C 	C 	0.44180 0.56840 0.33690 0.02000
H 	H 	0.46200 0.54500 0.43080 0.01800
C 	C 	0.46290 0.59760 0.12200 -0.14000
H 	H 	0.49670 0.59320 0.07420 0.08000
C 	C 	0.43400 0.63340 0.97620 0.10100
C 	C 	0.45590 0.66280 0.76300 -0.17000
H 	H 	0.48980 0.65940 0.71420 0.08700
C 	C 	0.42460 0.69730 0.62600 0.09900
C 	C 	0.48210 0.74590 0.30400 0.17800
C 	C 	0.57300 0.77460 0.08400 -0.13900
C 	C 	0.48870 0.79540 0.22400 0.03100
H 	H 	0.46230 0.81850 0.24470 0.03400
C 	C 	0.53490 0.81140 0.11000 -0.06200
H 	H 	0.54020 0.84480 0.05520 0.07800
C 	C 	0.56890 0.72360 0.16200 -0.28500
H 	H 	0.59500 0.70030 0.14290 0.13900
C 	C 	0.52130 0.71190 0.27200 0.23600
H 	H 	0.51550 0.67860 0.32860 -0.05300
C 	C 	0.62410 0.79510 0.99400 0.48300
C 	C 	0.48540 0.76490 0.03100 -0.22600
H 	H 	0.45610 0.76780 0.92260 0.11200
C 	C 	0.53090 0.77940 0.91600 0.10000
H 	H 	0.53310 0.79200 0.73200 0.01400
C 	C 	0.57220 0.75570 0.35600 0.35200
H 	H 	0.60160 0.75260 0.46300 -0.06800
C 	C 	0.52570 0.74160 0.46300 -0.45500
H 	H 	0.52370 0.72880 0.64670 0.18900
O 	O 	0.62930 0.80370 0.72900 -0.29000
