data_crystal

_cell_length_a 26.33880
_cell_length_b 26.33880
_cell_length_c 4.85600
_cell_angle_alpha 90.00000
_cell_angle_beta  90.00000
_cell_angle_gamma 90.00000

_symmetry_space_group_name_	'P 1'
_symmetry_space_group_name_H-M	'P 1'

loop_
_symmetry_equiv_pos_as_xyz
  x,y,z

loop_
_atom_site_label
_atom_site_type_symbol
_atom_site_fract_x
_atom_site_fract_y
_atom_site_fract_z
_atom_site_charge
Zn	Zn	0.26997 0.21596 0.89820 1.22300
O 	O 	0.22830 0.27190 0.00810 -0.77700
N 	N 	0.24190 0.14700 0.95400 -0.29500
O 	O 	0.33670 0.22920 0.05300 -0.50900
H 	H 	0.20690 0.28320 0.89250 0.28100
C 	C 	0.25750 0.11010 0.11200 0.14000
C 	C 	0.20380 0.12470 0.78370 0.04900
H 	H 	0.28250 0.11460 0.24500 -0.02300
N 	N 	0.23450 0.06470 0.06800 -0.16700
C 	C 	0.17450 0.14630 0.57880 -0.14300
C 	C 	0.19960 0.07370 0.85900 0.06000
C 	C 	0.24900 0.01760 0.18500 0.19200
H 	H 	0.17800 0.18040 0.53290 0.06200
C 	C 	0.13950 0.11550 0.44290 0.05700
C 	C 	0.16520 0.04220 0.72610 -0.12100
C 	C 	0.26880 0.01450 0.44800 -0.06800
C 	C 	0.24340 0.97310 0.03500 -0.12100
C 	C 	0.10970 0.13560 0.23580 -0.09800
C 	C 	0.13550 0.06430 0.51970 0.03500
H 	H 	0.16200 0.00810 0.77220 0.07000
H 	H 	0.27260 0.04410 0.55080 0.05900
C 	C 	0.28280 0.96880 0.56300 0.00300
C 	C 	0.25680 0.92670 0.14200 0.07800
H 	H 	0.23020 0.97480 0.85770 0.07300
H 	H 	0.11330 0.16970 0.19000 0.06600
C 	C 	0.07430 0.10630 0.09360 -0.01100
C 	C 	0.09990 0.03450 0.37800 -0.08200
C 	C 	0.27660 0.92610 0.40400 -0.20600
H 	H 	0.29590 0.96680 0.74070 0.04300
H 	H 	0.25260 0.89700 0.04110 0.03200
H 	H 	0.05430 0.12000 0.95450 0.02500
C 	C 	0.07040 0.05550 0.16970 -0.03500
H 	H 	0.09600 0.00050 0.42430 0.05800
C 	C 	0.29280 0.87460 0.51900 0.59800
H 	H 	0.04730 0.03480 0.07800 0.03600
O 	O 	0.29670 0.87240 0.78000 -0.32100
O 	O 	0.34150 0.86540 0.49700 -0.29400
C 	C 	0.29850 0.01060 0.26500 -0.16600
H 	H 	0.32180 0.03680 0.24510 0.10000
C 	C 	0.31390 0.96410 0.37800 0.10800
H 	H 	0.34730 0.95860 0.43290 0.01400
C 	C 	0.22570 0.93080 0.32400 0.02800
H 	H 	0.20200 0.90480 0.34130 0.02100
C 	C 	0.21450 0.97870 0.21600 -0.10400
H 	H 	0.18120 0.98470 0.16020 0.06600
Zn	Zn	0.76997 0.71596 0.39820 1.23000
O 	O 	0.72830 0.77190 0.50810 -0.81000
N 	N 	0.74190 0.64700 0.45400 -0.27700
O 	O 	0.83670 0.72920 0.55300 -0.55300
H 	H 	0.70690 0.78320 0.39250 0.30300
C 	C 	0.75750 0.61010 0.61200 0.11200
C 	C 	0.70380 0.62470 0.28370 0.02800
H 	H 	0.78250 0.61460 0.74500 -0.01400
N 	N 	0.73450 0.56470 0.56800 -0.16900
C 	C 	0.67450 0.64630 0.07880 -0.09600
C 	C 	0.69960 0.57370 0.35900 0.09100
C 	C 	0.74900 0.51760 0.68500 0.16600
H 	H 	0.67800 0.68040 0.03290 0.04800
C 	C 	0.63950 0.61550 0.94290 -0.00800
C 	C 	0.66520 0.54220 0.22610 -0.16000
C 	C 	0.76880 0.51450 0.94800 -0.06700
C 	C 	0.74340 0.47310 0.53500 -0.32500
C 	C 	0.60970 0.63560 0.73580 -0.05000
C 	C 	0.63550 0.56430 0.01970 0.08800
H 	H 	0.66200 0.50810 0.27220 0.08300
H 	H 	0.77260 0.54410 0.05080 0.05800
C 	C 	0.78280 0.46880 0.06300 -0.04000
C 	C 	0.75680 0.42670 0.64200 0.24200
H 	H 	0.73020 0.47480 0.35770 0.14600
H 	H 	0.61330 0.66970 0.69000 0.04300
C 	C 	0.57430 0.60630 0.59360 -0.06600
C 	C 	0.59990 0.53450 0.87800 -0.13000
C 	C 	0.77660 0.42610 0.90400 -0.13300
H 	H 	0.79590 0.46680 0.24070 0.06000
H 	H 	0.75260 0.39700 0.54110 -0.02200
H 	H 	0.55430 0.62000 0.45450 0.05000
C 	C 	0.57040 0.55550 0.66970 0.01100
H 	H 	0.59600 0.50050 0.92430 0.07600
C 	C 	0.79280 0.37460 0.01900 0.50400
H 	H 	0.54730 0.53480 0.57800 0.02200
O 	O 	0.79670 0.37240 0.28000 -0.30900
O 	O 	0.84150 0.36540 0.99700 -0.26100
C 	C 	0.79850 0.51060 0.76500 -0.12200
H 	H 	0.82180 0.53680 0.74510 0.08600
C 	C 	0.81390 0.46410 0.87800 0.07700
H 	H 	0.84730 0.45860 0.93290 0.02900
C 	C 	0.72570 0.43080 0.82400 -0.18200
H 	H 	0.70200 0.40480 0.84130 0.10000
C 	C 	0.71450 0.47870 0.71600 0.12000
H 	H 	0.68120 0.48470 0.66020 -0.01200
Zn	Zn	0.73003 0.78404 0.89820 1.22200
O 	O 	0.77170 0.72810 0.00810 -0.77800
N 	N 	0.75810 0.85300 0.95400 -0.29600
O 	O 	0.66330 0.77080 0.05300 -0.51000
H 	H 	0.79310 0.71680 0.89250 0.28100
C 	C 	0.74250 0.88990 0.11200 0.14000
C 	C 	0.79620 0.87530 0.78370 0.04900
H 	H 	0.71750 0.88540 0.24500 -0.02300
N 	N 	0.76550 0.93530 0.06800 -0.16700
C 	C 	0.82550 0.85370 0.57880 -0.14300
C 	C 	0.80040 0.92630 0.85900 0.06000
C 	C 	0.75100 0.98240 0.18500 0.19200
H 	H 	0.82200 0.81960 0.53290 0.06200
C 	C 	0.86050 0.88450 0.44290 0.05700
C 	C 	0.83480 0.95780 0.72610 -0.12100
C 	C 	0.73120 0.98550 0.44800 -0.06800
C 	C 	0.75660 0.02690 0.03500 -0.12100
C 	C 	0.89030 0.86440 0.23580 -0.09800
C 	C 	0.86450 0.93570 0.51970 0.03500
H 	H 	0.83800 0.99190 0.77220 0.07000
H 	H 	0.72740 0.95590 0.55080 0.05900
C 	C 	0.71720 0.03120 0.56300 0.00300
C 	C 	0.74320 0.07330 0.14200 0.07800
H 	H 	0.76980 0.02520 0.85770 0.07300
H 	H 	0.88670 0.83030 0.19000 0.06600
C 	C 	0.92570 0.89370 0.09360 -0.01100
C 	C 	0.90010 0.96550 0.37800 -0.08200
C 	C 	0.72340 0.07390 0.40400 -0.20600
H 	H 	0.70410 0.03320 0.74070 0.04300
H 	H 	0.74740 0.10300 0.04110 0.03200
H 	H 	0.94570 0.88000 0.95450 0.02500
C 	C 	0.92960 0.94450 0.16970 -0.03500
H 	H 	0.90400 0.99950 0.42430 0.05800
C 	C 	0.70720 0.12540 0.51900 0.59800
H 	H 	0.95270 0.96520 0.07800 0.03600
O 	O 	0.70330 0.12760 0.78000 -0.32100
O 	O 	0.65850 0.13460 0.49700 -0.29400
C 	C 	0.70150 0.98940 0.26500 -0.16600
H 	H 	0.67820 0.96320 0.24510 0.10000
C 	C 	0.68610 0.03590 0.37800 0.10800
H 	H 	0.65270 0.04140 0.43290 0.01400
C 	C 	0.77430 0.06920 0.32400 0.02800
H 	H 	0.79800 0.09520 0.34130 0.02100
C 	C 	0.78550 0.02130 0.21600 -0.10400
H 	H 	0.81880 0.01530 0.16020 0.06600
Zn	Zn	0.23003 0.28404 0.39820 1.23000
O 	O 	0.27170 0.22810 0.50810 -0.81000
N 	N 	0.25810 0.35300 0.45400 -0.27700
O 	O 	0.16330 0.27080 0.55300 -0.55300
H 	H 	0.29310 0.21680 0.39250 0.30300
C 	C 	0.24250 0.38990 0.61200 0.11200
C 	C 	0.29620 0.37530 0.28370 0.02800
H 	H 	0.21750 0.38540 0.74500 -0.01400
N 	N 	0.26550 0.43530 0.56800 -0.16900
C 	C 	0.32550 0.35370 0.07880 -0.09600
C 	C 	0.30040 0.42630 0.35900 0.09100
C 	C 	0.25100 0.48240 0.68500 0.16600
H 	H 	0.32200 0.31960 0.03290 0.04800
C 	C 	0.36050 0.38450 0.94290 -0.00800
C 	C 	0.33480 0.45780 0.22610 -0.16000
C 	C 	0.23120 0.48550 0.94800 -0.06700
C 	C 	0.25660 0.52690 0.53500 -0.32500
C 	C 	0.39030 0.36440 0.73580 -0.05000
C 	C 	0.36450 0.43570 0.01970 0.08800
H 	H 	0.33800 0.49190 0.27220 0.08300
H 	H 	0.22740 0.45590 0.05080 0.05800
C 	C 	0.21720 0.53120 0.06300 -0.04000
C 	C 	0.24320 0.57330 0.64200 0.24200
H 	H 	0.26980 0.52520 0.35770 0.14600
H 	H 	0.38670 0.33030 0.69000 0.04300
C 	C 	0.42570 0.39370 0.59360 -0.06600
C 	C 	0.40010 0.46550 0.87800 -0.13000
C 	C 	0.22340 0.57390 0.90400 -0.13300
H 	H 	0.20410 0.53320 0.24070 0.06000
H 	H 	0.24740 0.60300 0.54110 -0.02200
H 	H 	0.44570 0.38000 0.45450 0.05000
C 	C 	0.42960 0.44450 0.66970 0.01100
H 	H 	0.40400 0.49950 0.92430 0.07600
C 	C 	0.20720 0.62540 0.01900 0.50400
H 	H 	0.45270 0.46520 0.57800 0.02200
O 	O 	0.20330 0.62760 0.28000 -0.30900
O 	O 	0.15850 0.63460 0.99700 -0.26100
C 	C 	0.20150 0.48940 0.76500 -0.12200
H 	H 	0.17820 0.46320 0.74510 0.08600
C 	C 	0.18610 0.53590 0.87800 0.07700
H 	H 	0.15270 0.54140 0.93290 0.02900
C 	C 	0.27430 0.56920 0.82400 -0.18200
H 	H 	0.29800 0.59520 0.84130 0.10000
C 	C 	0.28550 0.52130 0.71600 0.12000
H 	H 	0.31880 0.51530 0.66020 -0.01200
Zn	Zn	0.21596 0.73003 0.10180 1.22200
O 	O 	0.27190 0.77170 0.99190 -0.77800
N 	N 	0.14700 0.75810 0.04600 -0.29600
O 	O 	0.22920 0.66330 0.94700 -0.51000
H 	H 	0.28320 0.79310 0.10750 0.28100
C 	C 	0.11010 0.74250 0.88800 0.14000
C 	C 	0.12470 0.79620 0.21630 0.04900
H 	H 	0.11460 0.71750 0.75500 -0.02300
N 	N 	0.06470 0.76550 0.93200 -0.16700
C 	C 	0.14630 0.82550 0.42120 -0.14300
C 	C 	0.07370 0.80040 0.14100 0.06000
C 	C 	0.01760 0.75100 0.81500 0.19200
H 	H 	0.18040 0.82200 0.46710 0.06200
C 	C 	0.11550 0.86050 0.55710 0.05700
C 	C 	0.04220 0.83480 0.27390 -0.12100
C 	C 	0.01450 0.73120 0.55200 -0.06800
C 	C 	0.97310 0.75660 0.96500 -0.12100
C 	C 	0.13560 0.89030 0.76420 -0.09800
C 	C 	0.06430 0.86450 0.48030 0.03500
H 	H 	0.00810 0.83800 0.22780 0.07000
H 	H 	0.04410 0.72740 0.44920 0.05900
C 	C 	0.96880 0.71720 0.43700 0.00300
C 	C 	0.92670 0.74320 0.85800 0.07800
H 	H 	0.97480 0.76980 0.14230 0.07300
H 	H 	0.16970 0.88670 0.81000 0.06600
C 	C 	0.10630 0.92570 0.90640 -0.01100
C 	C 	0.03450 0.90010 0.62200 -0.08200
C 	C 	0.92610 0.72340 0.59600 -0.20600
H 	H 	0.96680 0.70410 0.25930 0.04300
H 	H 	0.89700 0.74740 0.95890 0.03200
H 	H 	0.12000 0.94570 0.04550 0.02500
C 	C 	0.05550 0.92960 0.83030 -0.03500
H 	H 	0.00050 0.90400 0.57570 0.05800
C 	C 	0.87460 0.70720 0.48100 0.59800
H 	H 	0.03480 0.95270 0.92200 0.03600
O 	O 	0.87240 0.70330 0.22000 -0.32100
O 	O 	0.86540 0.65850 0.50300 -0.29400
C 	C 	0.01060 0.70150 0.73500 -0.16600
H 	H 	0.03680 0.67820 0.75490 0.10000
C 	C 	0.96410 0.68610 0.62200 0.10800
H 	H 	0.95860 0.65270 0.56710 0.01400
C 	C 	0.93080 0.77430 0.67600 0.02800
H 	H 	0.90480 0.79800 0.65870 0.02100
C 	C 	0.97870 0.78550 0.78400 -0.10400
H 	H 	0.98470 0.81880 0.83980 0.06600
Zn	Zn	0.71596 0.23003 0.60180 1.23000
O 	O 	0.77190 0.27170 0.49190 -0.81000
N 	N 	0.64700 0.25810 0.54600 -0.27700
O 	O 	0.72920 0.16330 0.44700 -0.55300
H 	H 	0.78320 0.29310 0.60750 0.30300
C 	C 	0.61010 0.24250 0.38800 0.11200
C 	C 	0.62470 0.29620 0.71630 0.02800
H 	H 	0.61460 0.21750 0.25500 -0.01400
N 	N 	0.56470 0.26550 0.43200 -0.16900
C 	C 	0.64630 0.32550 0.92120 -0.09600
C 	C 	0.57370 0.30040 0.64100 0.09100
C 	C 	0.51760 0.25100 0.31500 0.16600
H 	H 	0.68040 0.32200 0.96710 0.04800
C 	C 	0.61550 0.36050 0.05710 -0.00800
C 	C 	0.54220 0.33480 0.77390 -0.16000
C 	C 	0.51450 0.23120 0.05200 -0.06700
C 	C 	0.47310 0.25660 0.46500 -0.32500
C 	C 	0.63560 0.39030 0.26420 -0.05000
C 	C 	0.56430 0.36450 0.98030 0.08800
H 	H 	0.50810 0.33800 0.72780 0.08300
H 	H 	0.54410 0.22740 0.94920 0.05800
C 	C 	0.46880 0.21720 0.93700 -0.04000
C 	C 	0.42670 0.24320 0.35800 0.24200
H 	H 	0.47480 0.26980 0.64230 0.14600
H 	H 	0.66970 0.38670 0.31000 0.04300
C 	C 	0.60630 0.42570 0.40640 -0.06600
C 	C 	0.53450 0.40010 0.12200 -0.13000
C 	C 	0.42610 0.22340 0.09600 -0.13300
H 	H 	0.46680 0.20410 0.75930 0.06000
H 	H 	0.39700 0.24740 0.45890 -0.02200
H 	H 	0.62000 0.44570 0.54550 0.05000
C 	C 	0.55550 0.42960 0.33030 0.01100
H 	H 	0.50050 0.40400 0.07570 0.07600
C 	C 	0.37460 0.20720 0.98100 0.50400
H 	H 	0.53480 0.45270 0.42200 0.02200
O 	O 	0.37240 0.20330 0.72000 -0.30900
O 	O 	0.36540 0.15850 0.00300 -0.26100
C 	C 	0.51060 0.20150 0.23500 -0.12200
H 	H 	0.53680 0.17820 0.25490 0.08600
C 	C 	0.46410 0.18610 0.12200 0.07700
H 	H 	0.45860 0.15270 0.06710 0.02900
C 	C 	0.43080 0.27430 0.17600 -0.18200
H 	H 	0.40480 0.29800 0.15870 0.10000
C 	C 	0.47870 0.28550 0.28400 0.12000
H 	H 	0.48470 0.31880 0.33980 -0.01200
Zn	Zn	0.78404 0.26997 0.10180 1.22200
O 	O 	0.72810 0.22830 0.99190 -0.77800
N 	N 	0.85300 0.24190 0.04600 -0.29600
O 	O 	0.77080 0.33670 0.94700 -0.51000
H 	H 	0.71680 0.20690 0.10750 0.28100
C 	C 	0.88990 0.25750 0.88800 0.14000
C 	C 	0.87530 0.20380 0.21630 0.04900
H 	H 	0.88540 0.28250 0.75500 -0.02300
N 	N 	0.93530 0.23450 0.93200 -0.16700
C 	C 	0.85370 0.17450 0.42120 -0.14300
C 	C 	0.92630 0.19960 0.14100 0.06000
C 	C 	0.98240 0.24900 0.81500 0.19200
H 	H 	0.81960 0.17800 0.46710 0.06200
C 	C 	0.88450 0.13950 0.55710 0.05700
C 	C 	0.95780 0.16520 0.27390 -0.12100
C 	C 	0.98550 0.26880 0.55200 -0.06800
C 	C 	0.02690 0.24340 0.96500 -0.12100
C 	C 	0.86440 0.10970 0.76420 -0.09800
C 	C 	0.93570 0.13550 0.48030 0.03500
H 	H 	0.99190 0.16200 0.22780 0.07000
H 	H 	0.95590 0.27260 0.44920 0.05900
C 	C 	0.03120 0.28280 0.43700 0.00300
C 	C 	0.07330 0.25680 0.85800 0.07800
H 	H 	0.02520 0.23020 0.14230 0.07300
H 	H 	0.83030 0.11330 0.81000 0.06600
C 	C 	0.89370 0.07430 0.90640 -0.01100
C 	C 	0.96550 0.09990 0.62200 -0.08200
C 	C 	0.07390 0.27660 0.59600 -0.20600
H 	H 	0.03320 0.29590 0.25930 0.04300
H 	H 	0.10300 0.25260 0.95890 0.03200
H 	H 	0.88000 0.05430 0.04550 0.02500
C 	C 	0.94450 0.07040 0.83030 -0.03500
H 	H 	0.99950 0.09600 0.57570 0.05800
C 	C 	0.12540 0.29280 0.48100 0.59800
H 	H 	0.96520 0.04730 0.92200 0.03600
O 	O 	0.12760 0.29670 0.22000 -0.32100
O 	O 	0.13460 0.34150 0.50300 -0.29400
C 	C 	0.98940 0.29850 0.73500 -0.16600
H 	H 	0.96320 0.32180 0.75490 0.10000
C 	C 	0.03590 0.31390 0.62200 0.10800
H 	H 	0.04140 0.34730 0.56710 0.01400
C 	C 	0.06920 0.22570 0.67600 0.02800
H 	H 	0.09520 0.20200 0.65870 0.02100
C 	C 	0.02130 0.21450 0.78400 -0.10400
H 	H 	0.01530 0.18120 0.83980 0.06600
Zn	Zn	0.28404 0.76997 0.60180 1.23000
O 	O 	0.22810 0.72830 0.49190 -0.81000
N 	N 	0.35300 0.74190 0.54600 -0.27700
O 	O 	0.27080 0.83670 0.44700 -0.55300
H 	H 	0.21680 0.70690 0.60750 0.30300
C 	C 	0.38990 0.75750 0.38800 0.11200
C 	C 	0.37530 0.70380 0.71630 0.02800
H 	H 	0.38540 0.78250 0.25500 -0.01400
N 	N 	0.43530 0.73450 0.43200 -0.16900
C 	C 	0.35370 0.67450 0.92120 -0.09600
C 	C 	0.42630 0.69960 0.64100 0.09100
C 	C 	0.48240 0.74900 0.31500 0.16600
H 	H 	0.31960 0.67800 0.96710 0.04800
C 	C 	0.38450 0.63950 0.05710 -0.00800
C 	C 	0.45780 0.66520 0.77390 -0.16000
C 	C 	0.48550 0.76880 0.05200 -0.06700
C 	C 	0.52690 0.74340 0.46500 -0.32500
C 	C 	0.36440 0.60970 0.26420 -0.05000
C 	C 	0.43570 0.63550 0.98030 0.08800
H 	H 	0.49190 0.66200 0.72780 0.08300
H 	H 	0.45590 0.77260 0.94920 0.05800
C 	C 	0.53120 0.78280 0.93700 -0.04000
C 	C 	0.57330 0.75680 0.35800 0.24200
H 	H 	0.52520 0.73020 0.64230 0.14600
H 	H 	0.33030 0.61330 0.31000 0.04300
C 	C 	0.39370 0.57430 0.40640 -0.06600
C 	C 	0.46550 0.59990 0.12200 -0.13000
C 	C 	0.57390 0.77660 0.09600 -0.13300
H 	H 	0.53320 0.79590 0.75930 0.06000
H 	H 	0.60300 0.75260 0.45890 -0.02200
H 	H 	0.38000 0.55430 0.54550 0.05000
C 	C 	0.44450 0.57040 0.33030 0.01100
H 	H 	0.49950 0.59600 0.07570 0.07600
C 	C 	0.62540 0.79280 0.98100 0.50400
H 	H 	0.46520 0.54730 0.42200 0.02200
O 	O 	0.62760 0.79670 0.72000 -0.30900
O 	O 	0.63460 0.84150 0.00300 -0.26100
C 	C 	0.48940 0.79850 0.23500 -0.12200
H 	H 	0.46320 0.82180 0.25490 0.08600
C 	C 	0.53590 0.81390 0.12200 0.07700
H 	H 	0.54140 0.84730 0.06710 0.02900
C 	C 	0.56920 0.72570 0.17600 -0.18200
H 	H 	0.59520 0.70200 0.15870 0.10000
C 	C 	0.52130 0.71450 0.28400 0.12000
H 	H 	0.51530 0.68120 0.33980 -0.01200
