data_crystal

_cell_length_a 26.15200
_cell_length_b 26.15200
_cell_length_c 5.13560
_cell_angle_alpha 90.00000
_cell_angle_beta  90.00000
_cell_angle_gamma 90.00000

_symmetry_space_group_name_	'P 1'
_symmetry_space_group_name_H-M	'P 1'

loop_
_symmetry_equiv_pos_as_xyz
  x,y,z

loop_
_atom_site_label
_atom_site_type_symbol
_atom_site_fract_x
_atom_site_fract_y
_atom_site_fract_z
_atom_site_charge
Zn	Zn	0.27183 0.21567 0.87460 1.22500
O 	O 	0.22490 0.26420 0.01910 -0.80300
H 	H 	0.20420 0.27520 0.90720 0.30400
N 	N 	0.24450 0.14390 0.91230 -0.28600
C 	C 	0.26040 0.10780 0.06800 0.12300
H 	H 	0.28540 0.11270 0.19410 -0.02200
N 	N 	0.23650 0.06240 0.02660 -0.16600
C 	C 	0.20750 0.12260 0.75780 0.05600
O 	O 	0.27260 0.83490 0.43390 -0.52300
C 	C 	0.17850 0.14440 0.56220 -0.14600
H 	H 	0.18270 0.17860 0.51700 0.05100
O 	O 	0.30030 0.87570 0.77300 -0.27100
C 	C 	0.14280 0.11390 0.43460 0.05100
C 	C 	0.11350 0.13390 0.23520 -0.09700
H 	H 	0.11790 0.16800 0.18930 0.06100
C 	C 	0.07770 0.10480 0.10130 -0.01500
H 	H 	0.05810 0.11890 0.96840 0.02700
C 	C 	0.07220 0.05370 0.17260 -0.03400
H 	H 	0.04890 0.03330 0.08380 0.03600
C 	C 	0.10070 0.03290 0.37310 -0.08400
H 	H 	0.09560 0.99900 0.42060 0.05900
C 	C 	0.13720 0.06240 0.50610 0.03700
C 	C 	0.16650 0.04070 0.70340 -0.12500
H 	H 	0.16310 0.00630 0.74670 0.07200
C 	C 	0.20060 0.07190 0.83290 0.06500
C 	C 	0.24950 0.01550 0.14570 0.17100
C 	C 	0.27580 0.92510 0.38250 -0.13900
C 	C 	0.27040 0.01490 0.39300 0.03500
H 	H 	0.27560 0.04580 0.47860 0.02500
C 	C 	0.28370 0.97010 0.51680 -0.10400
H 	H 	0.29750 0.97020 0.68390 0.08300
C 	C 	0.25460 0.92300 0.13800 0.09800
H 	H 	0.24910 0.89190 0.05460 0.01200
C 	C 	0.24190 0.96860 0.02140 -0.14800
H 	H 	0.22790 0.96820 0.85510 0.08600
C 	C 	0.28860 0.87530 0.52100 0.43500
O 	O 	0.34510 0.87200 0.55400 -0.20800
C 	C 	0.29920 0.00860 0.22400 -0.23500
H 	H 	0.32320 0.03430 0.19640 0.12300
C 	C 	0.31400 0.96280 0.34400 0.16000
H 	H 	0.34760 0.95740 0.39690 -0.00300
C 	C 	0.22470 0.93010 0.30300 -0.03400
H 	H 	0.20040 0.90450 0.32480 0.04100
C 	C 	0.21410 0.97730 0.18700 -0.05400
H 	H 	0.18060 0.98340 0.13370 0.04800
Zn	Zn	0.77183 0.71567 0.37460 1.23100
O 	O 	0.72490 0.76420 0.51910 -0.82700
H 	H 	0.70420 0.77520 0.40720 0.32300
N 	N 	0.74450 0.64390 0.41230 -0.27300
C 	C 	0.76040 0.60780 0.56800 0.10800
H 	H 	0.78540 0.61270 0.69410 -0.01900
N 	N 	0.73650 0.56240 0.52660 -0.16700
C 	C 	0.70750 0.62260 0.25780 0.04000
O 	O 	0.77260 0.33490 0.93390 -0.50400
C 	C 	0.67850 0.64440 0.06220 -0.10600
H 	H 	0.68270 0.67860 0.01700 0.04200
O 	O 	0.80030 0.37570 0.27300 -0.26900
C 	C 	0.64280 0.61390 0.93460 0.00000
C 	C 	0.61350 0.63390 0.73520 -0.05400
H 	H 	0.61790 0.66800 0.68930 0.04300
C 	C 	0.57770 0.60480 0.60130 -0.06100
H 	H 	0.55810 0.61890 0.46840 0.04700
C 	C 	0.57220 0.55370 0.67260 0.00600
H 	H 	0.54890 0.53330 0.58380 0.02300
C 	C 	0.60070 0.53290 0.87310 -0.12600
H 	H 	0.59560 0.49900 0.92060 0.07400
C 	C 	0.63720 0.56240 0.00610 0.08100
C 	C 	0.66650 0.54070 0.20340 -0.15400
H 	H 	0.66310 0.50630 0.24670 0.08200
C 	C 	0.70060 0.57190 0.33290 0.08700
C 	C 	0.74950 0.51550 0.64570 0.16100
C 	C 	0.77580 0.42510 0.88250 -0.11300
C 	C 	0.77040 0.51490 0.89300 0.04000
H 	H 	0.77560 0.54580 0.97860 0.02200
C 	C 	0.78370 0.47010 0.01680 -0.12200
H 	H 	0.79750 0.47020 0.18390 0.09000
C 	C 	0.75460 0.42300 0.63800 0.14100
H 	H 	0.74910 0.39190 0.55460 0.00100
C 	C 	0.74190 0.46860 0.52140 -0.19600
H 	H 	0.72790 0.46820 0.35510 0.10200
C 	C 	0.78860 0.37530 0.02100 0.40600
O 	O 	0.84510 0.37200 0.05400 -0.21000
C 	C 	0.79920 0.50860 0.72400 -0.22600
H 	H 	0.82320 0.53430 0.69640 0.11900
C 	C 	0.81400 0.46280 0.84400 0.15500
H 	H 	0.84760 0.45740 0.89690 0.00100
C 	C 	0.72470 0.43010 0.80300 -0.09400
H 	H 	0.70040 0.40450 0.82480 0.06400
C 	C 	0.71410 0.47730 0.68700 0.00700
H 	H 	0.68060 0.48340 0.63370 0.02600
Zn	Zn	0.72817 0.78433 0.87460 1.22600
O 	O 	0.77510 0.73580 0.01910 -0.80200
H 	H 	0.79580 0.72480 0.90720 0.30500
N 	N 	0.75550 0.85610 0.91230 -0.28500
C 	C 	0.73960 0.89220 0.06800 0.12400
H 	H 	0.71460 0.88730 0.19410 -0.02100
N 	N 	0.76350 0.93760 0.02660 -0.16500
C 	C 	0.79250 0.87740 0.75780 0.05700
O 	O 	0.72740 0.16510 0.43390 -0.52200
C 	C 	0.82150 0.85560 0.56220 -0.14500
H 	H 	0.81730 0.82140 0.51700 0.05200
O 	O 	0.69970 0.12430 0.77300 -0.27000
C 	C 	0.85720 0.88610 0.43460 0.05200
C 	C 	0.88650 0.86610 0.23520 -0.09600
H 	H 	0.88210 0.83200 0.18930 0.06200
C 	C 	0.92230 0.89520 0.10130 -0.01400
H 	H 	0.94190 0.88110 0.96840 0.02700
C 	C 	0.92780 0.94630 0.17260 -0.03400
H 	H 	0.95110 0.96670 0.08380 0.03600
C 	C 	0.89930 0.96710 0.37310 -0.08400
H 	H 	0.90440 0.00100 0.42060 0.05900
C 	C 	0.86280 0.93760 0.50610 0.03700
C 	C 	0.83350 0.95930 0.70340 -0.12500
H 	H 	0.83690 0.99370 0.74670 0.07200
C 	C 	0.79940 0.92810 0.83290 0.06500
C 	C 	0.75050 0.98450 0.14570 0.17100
C 	C 	0.72420 0.07490 0.38250 -0.13900
C 	C 	0.72960 0.98510 0.39300 0.03500
H 	H 	0.72440 0.95420 0.47860 0.02500
C 	C 	0.71630 0.02990 0.51680 -0.10400
H 	H 	0.70250 0.02980 0.68390 0.08300
C 	C 	0.74540 0.07700 0.13800 0.09800
H 	H 	0.75090 0.10810 0.05460 0.01200
C 	C 	0.75810 0.03140 0.02140 -0.14800
H 	H 	0.77210 0.03180 0.85510 0.08600
C 	C 	0.71140 0.12470 0.52100 0.43500
O 	O 	0.65490 0.12800 0.55400 -0.20800
C 	C 	0.70080 0.99140 0.22400 -0.23500
H 	H 	0.67680 0.96570 0.19640 0.12300
C 	C 	0.68600 0.03720 0.34400 0.16000
H 	H 	0.65240 0.04260 0.39690 -0.00300
C 	C 	0.77530 0.06990 0.30300 -0.03400
H 	H 	0.79960 0.09550 0.32480 0.04100
C 	C 	0.78590 0.02270 0.18700 -0.05400
H 	H 	0.81940 0.01660 0.13370 0.04800
Zn	Zn	0.22817 0.28433 0.37460 1.23100
O 	O 	0.27510 0.23580 0.51910 -0.82700
H 	H 	0.29580 0.22480 0.40720 0.32300
N 	N 	0.25550 0.35610 0.41230 -0.27300
C 	C 	0.23960 0.39220 0.56800 0.10800
H 	H 	0.21460 0.38730 0.69410 -0.01900
N 	N 	0.26350 0.43760 0.52660 -0.16700
C 	C 	0.29250 0.37740 0.25780 0.04000
O 	O 	0.22740 0.66510 0.93390 -0.50400
C 	C 	0.32150 0.35560 0.06220 -0.10600
H 	H 	0.31730 0.32140 0.01700 0.04200
O 	O 	0.19970 0.62430 0.27300 -0.26900
C 	C 	0.35720 0.38610 0.93460 0.00000
C 	C 	0.38650 0.36610 0.73520 -0.05400
H 	H 	0.38210 0.33200 0.68930 0.04300
C 	C 	0.42230 0.39520 0.60130 -0.06100
H 	H 	0.44190 0.38110 0.46840 0.04700
C 	C 	0.42780 0.44630 0.67260 0.00600
H 	H 	0.45110 0.46670 0.58380 0.02300
C 	C 	0.39930 0.46710 0.87310 -0.12600
H 	H 	0.40440 0.50100 0.92060 0.07400
C 	C 	0.36280 0.43760 0.00610 0.08100
C 	C 	0.33350 0.45930 0.20340 -0.15400
H 	H 	0.33690 0.49370 0.24670 0.08200
C 	C 	0.29940 0.42810 0.33290 0.08700
C 	C 	0.25050 0.48450 0.64570 0.16100
C 	C 	0.22420 0.57490 0.88250 -0.11300
C 	C 	0.22960 0.48510 0.89300 0.04000
H 	H 	0.22440 0.45420 0.97860 0.02200
C 	C 	0.21630 0.52990 0.01680 -0.12200
H 	H 	0.20250 0.52980 0.18390 0.09000
C 	C 	0.24540 0.57700 0.63800 0.14100
H 	H 	0.25090 0.60810 0.55460 0.00100
C 	C 	0.25810 0.53140 0.52140 -0.19600
H 	H 	0.27210 0.53180 0.35510 0.10200
C 	C 	0.21140 0.62470 0.02100 0.40600
O 	O 	0.15490 0.62800 0.05400 -0.21000
C 	C 	0.20080 0.49140 0.72400 -0.22600
H 	H 	0.17680 0.46570 0.69640 0.11900
C 	C 	0.18600 0.53720 0.84400 0.15500
H 	H 	0.15240 0.54260 0.89690 0.00100
C 	C 	0.27530 0.56990 0.80300 -0.09400
H 	H 	0.29960 0.59550 0.82480 0.06400
C 	C 	0.28590 0.52270 0.68700 0.00700
H 	H 	0.31940 0.51660 0.63370 0.02600
Zn	Zn	0.21567 0.72817 0.12540 1.22600
O 	O 	0.26420 0.77510 0.98090 -0.80200
H 	H 	0.27520 0.79580 0.09280 0.30500
N 	N 	0.14390 0.75550 0.08770 -0.28500
C 	C 	0.10780 0.73960 0.93200 0.12400
H 	H 	0.11270 0.71460 0.80590 -0.02100
N 	N 	0.06240 0.76350 0.97340 -0.16500
C 	C 	0.12260 0.79250 0.24220 0.05700
O 	O 	0.83490 0.72740 0.56610 -0.52200
C 	C 	0.14440 0.82150 0.43780 -0.14500
H 	H 	0.17860 0.81730 0.48300 0.05200
O 	O 	0.87570 0.69970 0.22700 -0.27000
C 	C 	0.11390 0.85720 0.56540 0.05200
C 	C 	0.13390 0.88650 0.76480 -0.09600
H 	H 	0.16800 0.88210 0.81070 0.06200
C 	C 	0.10480 0.92230 0.89870 -0.01400
H 	H 	0.11890 0.94190 0.03160 0.02700
C 	C 	0.05370 0.92780 0.82740 -0.03400
H 	H 	0.03330 0.95110 0.91620 0.03600
C 	C 	0.03290 0.89930 0.62690 -0.08400
H 	H 	0.99900 0.90440 0.57940 0.05900
C 	C 	0.06240 0.86280 0.49390 0.03700
C 	C 	0.04070 0.83350 0.29660 -0.12500
H 	H 	0.00630 0.83690 0.25330 0.07200
C 	C 	0.07190 0.79940 0.16710 0.06500
C 	C 	0.01550 0.75050 0.85430 0.17100
C 	C 	0.92510 0.72420 0.61750 -0.13900
C 	C 	0.01490 0.72960 0.60700 0.03500
H 	H 	0.04580 0.72440 0.52140 0.02500
C 	C 	0.97010 0.71630 0.48320 -0.10400
H 	H 	0.97020 0.70250 0.31610 0.08300
C 	C 	0.92300 0.74540 0.86200 0.09800
H 	H 	0.89190 0.75090 0.94540 0.01200
C 	C 	0.96860 0.75810 0.97860 -0.14800
H 	H 	0.96820 0.77210 0.14490 0.08600
C 	C 	0.87530 0.71140 0.47900 0.43500
O 	O 	0.87200 0.65490 0.44600 -0.20800
C 	C 	0.00860 0.70080 0.77600 -0.23500
H 	H 	0.03430 0.67680 0.80360 0.12300
C 	C 	0.96280 0.68600 0.65600 0.16000
H 	H 	0.95740 0.65240 0.60310 -0.00300
C 	C 	0.93010 0.77530 0.69700 -0.03400
H 	H 	0.90450 0.79960 0.67520 0.04100
C 	C 	0.97730 0.78590 0.81300 -0.05400
H 	H 	0.98340 0.81940 0.86630 0.04800
Zn	Zn	0.71567 0.22817 0.62540 1.23100
O 	O 	0.76420 0.27510 0.48090 -0.82700
H 	H 	0.77520 0.29580 0.59280 0.32300
N 	N 	0.64390 0.25550 0.58770 -0.27300
C 	C 	0.60780 0.23960 0.43200 0.10800
H 	H 	0.61270 0.21460 0.30590 -0.01900
N 	N 	0.56240 0.26350 0.47340 -0.16700
C 	C 	0.62260 0.29250 0.74220 0.04000
O 	O 	0.33490 0.22740 0.06610 -0.50400
C 	C 	0.64440 0.32150 0.93780 -0.10600
H 	H 	0.67860 0.31730 0.98300 0.04200
O 	O 	0.37570 0.19970 0.72700 -0.26900
C 	C 	0.61390 0.35720 0.06540 0.00000
C 	C 	0.63390 0.38650 0.26480 -0.05400
H 	H 	0.66800 0.38210 0.31070 0.04300
C 	C 	0.60480 0.42230 0.39870 -0.06100
H 	H 	0.61890 0.44190 0.53160 0.04700
C 	C 	0.55370 0.42780 0.32740 0.00600
H 	H 	0.53330 0.45110 0.41620 0.02300
C 	C 	0.53290 0.39930 0.12690 -0.12600
H 	H 	0.49900 0.40440 0.07940 0.07400
C 	C 	0.56240 0.36280 0.99390 0.08100
C 	C 	0.54070 0.33350 0.79660 -0.15400
H 	H 	0.50630 0.33690 0.75330 0.08200
C 	C 	0.57190 0.29940 0.66710 0.08700
C 	C 	0.51550 0.25050 0.35430 0.16100
C 	C 	0.42510 0.22420 0.11750 -0.11300
C 	C 	0.51490 0.22960 0.10700 0.04000
H 	H 	0.54580 0.22440 0.02140 0.02200
C 	C 	0.47010 0.21630 0.98320 -0.12200
H 	H 	0.47020 0.20250 0.81610 0.09000
C 	C 	0.42300 0.24540 0.36200 0.14100
H 	H 	0.39190 0.25090 0.44540 0.00100
C 	C 	0.46860 0.25810 0.47860 -0.19600
H 	H 	0.46820 0.27210 0.64490 0.10200
C 	C 	0.37530 0.21140 0.97900 0.40600
O 	O 	0.37200 0.15490 0.94600 -0.21000
C 	C 	0.50860 0.20080 0.27600 -0.22600
H 	H 	0.53430 0.17680 0.30360 0.11900
C 	C 	0.46280 0.18600 0.15600 0.15500
H 	H 	0.45740 0.15240 0.10310 0.00100
C 	C 	0.43010 0.27530 0.19700 -0.09400
H 	H 	0.40450 0.29960 0.17520 0.06400
C 	C 	0.47730 0.28590 0.31300 0.00700
H 	H 	0.48340 0.31940 0.36630 0.02600
Zn	Zn	0.78433 0.27183 0.12540 1.22600
O 	O 	0.73580 0.22490 0.98090 -0.80200
H 	H 	0.72480 0.20420 0.09280 0.30500
N 	N 	0.85610 0.24450 0.08770 -0.28500
C 	C 	0.89220 0.26040 0.93200 0.12400
H 	H 	0.88730 0.28540 0.80590 -0.02100
N 	N 	0.93760 0.23650 0.97340 -0.16500
C 	C 	0.87740 0.20750 0.24220 0.05700
O 	O 	0.16510 0.27260 0.56610 -0.52200
C 	C 	0.85560 0.17850 0.43780 -0.14500
H 	H 	0.82140 0.18270 0.48300 0.05200
O 	O 	0.12430 0.30030 0.22700 -0.27000
C 	C 	0.88610 0.14280 0.56540 0.05200
C 	C 	0.86610 0.11350 0.76480 -0.09600
H 	H 	0.83200 0.11790 0.81070 0.06200
C 	C 	0.89520 0.07770 0.89870 -0.01400
H 	H 	0.88110 0.05810 0.03160 0.02700
C 	C 	0.94630 0.07220 0.82740 -0.03400
H 	H 	0.96670 0.04890 0.91620 0.03600
C 	C 	0.96710 0.10070 0.62690 -0.08400
H 	H 	0.00100 0.09560 0.57940 0.05900
C 	C 	0.93760 0.13720 0.49390 0.03700
C 	C 	0.95930 0.16650 0.29660 -0.12500
H 	H 	0.99370 0.16310 0.25330 0.07200
C 	C 	0.92810 0.20060 0.16710 0.06500
C 	C 	0.98450 0.24950 0.85430 0.17100
C 	C 	0.07490 0.27580 0.61750 -0.13900
C 	C 	0.98510 0.27040 0.60700 0.03500
H 	H 	0.95420 0.27560 0.52140 0.02500
C 	C 	0.02990 0.28370 0.48320 -0.10400
H 	H 	0.02980 0.29750 0.31610 0.08300
C 	C 	0.07700 0.25460 0.86200 0.09800
H 	H 	0.10810 0.24910 0.94540 0.01200
C 	C 	0.03140 0.24190 0.97860 -0.14800
H 	H 	0.03180 0.22790 0.14490 0.08600
C 	C 	0.12470 0.28860 0.47900 0.43500
O 	O 	0.12800 0.34510 0.44600 -0.20800
C 	C 	0.99140 0.29920 0.77600 -0.23500
H 	H 	0.96570 0.32320 0.80360 0.12300
C 	C 	0.03720 0.31400 0.65600 0.16000
H 	H 	0.04260 0.34760 0.60310 -0.00300
C 	C 	0.06990 0.22470 0.69700 -0.03400
H 	H 	0.09550 0.20040 0.67520 0.04100
C 	C 	0.02270 0.21410 0.81300 -0.05400
H 	H 	0.01660 0.18060 0.86630 0.04800
Zn	Zn	0.28433 0.77183 0.62540 1.23100
O 	O 	0.23580 0.72490 0.48090 -0.82700
H 	H 	0.22480 0.70420 0.59280 0.32300
N 	N 	0.35610 0.74450 0.58770 -0.27300
C 	C 	0.39220 0.76040 0.43200 0.10800
H 	H 	0.38730 0.78540 0.30590 -0.01900
N 	N 	0.43760 0.73650 0.47340 -0.16700
C 	C 	0.37740 0.70750 0.74220 0.04000
O 	O 	0.66510 0.77260 0.06610 -0.50400
C 	C 	0.35560 0.67850 0.93780 -0.10600
H 	H 	0.32140 0.68270 0.98300 0.04200
O 	O 	0.62430 0.80030 0.72700 -0.26900
C 	C 	0.38610 0.64280 0.06540 0.00000
C 	C 	0.36610 0.61350 0.26480 -0.05400
H 	H 	0.33200 0.61790 0.31070 0.04300
C 	C 	0.39520 0.57770 0.39870 -0.06100
H 	H 	0.38110 0.55810 0.53160 0.04700
C 	C 	0.44630 0.57220 0.32740 0.00600
H 	H 	0.46670 0.54890 0.41620 0.02300
C 	C 	0.46710 0.60070 0.12690 -0.12600
H 	H 	0.50100 0.59560 0.07940 0.07400
C 	C 	0.43760 0.63720 0.99390 0.08100
C 	C 	0.45930 0.66650 0.79660 -0.15400
H 	H 	0.49370 0.66310 0.75330 0.08200
C 	C 	0.42810 0.70060 0.66710 0.08700
C 	C 	0.48450 0.74950 0.35430 0.16100
C 	C 	0.57490 0.77580 0.11750 -0.11300
C 	C 	0.48510 0.77040 0.10700 0.04000
H 	H 	0.45420 0.77560 0.02140 0.02200
C 	C 	0.52990 0.78370 0.98320 -0.12200
H 	H 	0.52980 0.79750 0.81610 0.09000
C 	C 	0.57700 0.75460 0.36200 0.14100
H 	H 	0.60810 0.74910 0.44540 0.00100
C 	C 	0.53140 0.74190 0.47860 -0.19600
H 	H 	0.53180 0.72790 0.64490 0.10200
C 	C 	0.62470 0.78860 0.97900 0.40600
O 	O 	0.62800 0.84510 0.94600 -0.21000
C 	C 	0.49140 0.79920 0.27600 -0.22600
H 	H 	0.46570 0.82320 0.30360 0.11900
C 	C 	0.53720 0.81400 0.15600 0.15500
H 	H 	0.54260 0.84760 0.10310 0.00100
C 	C 	0.56990 0.72470 0.19700 -0.09400
H 	H 	0.59550 0.70040 0.17520 0.06400
C 	C 	0.52270 0.71410 0.31300 0.00700
H 	H 	0.51660 0.68060 0.36630 0.02600
