data_crystal

_cell_length_a 26.53300
_cell_length_b 26.53300
_cell_length_c 4.53960
_cell_angle_alpha 90.00000
_cell_angle_beta  90.00000
_cell_angle_gamma 90.00000

_symmetry_space_group_name_	'P 1'
_symmetry_space_group_name_H-M	'P 1'

loop_
_symmetry_equiv_pos_as_xyz
  x,y,z

loop_
_atom_site_label
_atom_site_type_symbol
_atom_site_fract_x
_atom_site_fract_y
_atom_site_fract_z
_atom_site_charge
Zn	Zn	0.26864 0.21554 0.94020 1.20300
O 	O 	0.22680 0.27800 0.00100 -0.73800
H 	H 	0.20500 0.28950 0.88350 0.23800
N 	N 	0.24050 0.14880 0.98600 -0.30800
C 	C 	0.25640 0.11270 0.15800 0.13900
H 	H 	0.28180 0.11670 0.29720 -0.02600
N 	N 	0.23160 0.06880 0.10900 -0.16000
C 	C 	0.20040 0.12460 0.80600 0.04800
O 	O 	0.26610 0.83730 0.48800 -0.51700
C 	C 	0.17160 0.14710 0.58900 -0.14300
H 	H 	0.17610 0.18080 0.54010 0.06900
O 	O 	0.33840 0.86690 0.44100 -0.32900
C 	C 	0.13550 0.11760 0.44600 0.06600
C 	C 	0.10580 0.13830 0.22700 -0.11000
H 	H 	0.11010 0.17200 0.17760 0.08000
C 	C 	0.06960 0.11000 0.07900 0.00100
H 	H 	0.04960 0.12390 0.93130 0.01900
C 	C 	0.06510 0.05990 0.16300 -0.04300
H 	H 	0.04140 0.03970 0.06900 0.03800
C 	C 	0.09480 0.03930 0.38300 -0.07900
H 	H 	0.09020 0.00560 0.43290 0.05600
C 	C 	0.13100 0.06700 0.53100 0.03300
C 	C 	0.16010 0.04480 0.74900 -0.11800
H 	H 	0.15600 0.01100 0.79820 0.07000
C 	C 	0.19540 0.07460 0.89000 0.05800
C 	C 	0.24490 0.02020 0.23300 0.16800
C 	C 	0.26880 0.92630 0.44200 -0.17400
C 	C 	0.26510 0.01420 0.51100 -0.09600
H 	H 	0.27060 0.04260 0.62740 0.06700
C 	C 	0.27730 0.96750 0.62100 0.03600
H 	H 	0.29080 0.96380 0.80880 0.03100
C 	C 	0.24860 0.93010 0.16300 -0.00300
H 	H 	0.24310 0.90170 0.04790 0.06200
C 	C 	0.23690 0.97770 0.06200 -0.06000
H 	H 	0.22340 0.98140 0.87410 0.05400
C 	C 	0.29140 0.87490 0.50800 0.57100
O 	O 	0.27600 0.87100 0.77300 -0.28200
C 	C 	0.29400 0.00950 0.31300 -0.11500
H 	H 	0.31860 0.03430 0.29520 0.07800
C 	C 	0.30750 0.96200 0.42100 0.04600
H 	H 	0.34040 0.95440 0.47490 0.03200
C 	C 	0.21820 0.93340 0.36700 0.07800
H 	H 	0.19360 0.90870 0.38370 0.00800
C 	C 	0.20900 0.98210 0.26200 -0.14200
H 	H 	0.17620 0.98980 0.20730 0.08000
Zn	Zn	0.76864 0.71554 0.44020 1.21500
O 	O 	0.72680 0.77800 0.50100 -0.78000
H 	H 	0.70500 0.78950 0.38350 0.27000
N 	N 	0.74050 0.64880 0.48600 -0.28400
C 	C 	0.75640 0.61270 0.65800 0.10800
H 	H 	0.78180 0.61670 0.79720 -0.01800
N 	N 	0.73160 0.56880 0.60900 -0.16500
C 	C 	0.70040 0.62460 0.30600 0.01900
O 	O 	0.76610 0.33730 0.98800 -0.46500
C 	C 	0.67160 0.64710 0.08900 -0.07600
H 	H 	0.67610 0.68080 0.04010 0.04900
O 	O 	0.83840 0.36690 0.94100 -0.28900
C 	C 	0.63550 0.61760 0.94600 -0.02600
C 	C 	0.60580 0.63830 0.72700 -0.03800
H 	H 	0.61010 0.67200 0.67760 0.04500
C 	C 	0.56960 0.61000 0.57900 -0.07800
H 	H 	0.54960 0.62390 0.43130 0.05100
C 	C 	0.56510 0.55990 0.66300 0.02500
H 	H 	0.54140 0.53970 0.56900 0.01600
C 	C 	0.59480 0.53930 0.88300 -0.15300
H 	H 	0.59020 0.50560 0.93290 0.08200
C 	C 	0.63100 0.56700 0.03100 0.11300
C 	C 	0.66010 0.54480 0.24900 -0.17400
H 	H 	0.65600 0.51100 0.29820 0.08800
C 	C 	0.69540 0.57460 0.39000 0.10000
C 	C 	0.74490 0.52020 0.73300 0.15200
C 	C 	0.76880 0.42630 0.94200 -0.09100
C 	C 	0.76510 0.51420 0.01100 -0.10900
H 	H 	0.77060 0.54260 0.12740 0.07600
C 	C 	0.77730 0.46750 0.12100 -0.01000
H 	H 	0.79080 0.46380 0.30880 0.04700
C 	C 	0.74860 0.43010 0.66300 0.03200
H 	H 	0.74310 0.40170 0.54790 0.05400
C 	C 	0.73690 0.47770 0.56200 -0.13100
H 	H 	0.72340 0.48140 0.37410 0.08000
C 	C 	0.79140 0.37490 0.00800 0.46200
O 	O 	0.77600 0.37100 0.27300 -0.27700
C 	C 	0.79400 0.50950 0.81300 -0.07700
H 	H 	0.81860 0.53430 0.79520 0.06600
C 	C 	0.80750 0.46200 0.92100 0.02700
H 	H 	0.84040 0.45440 0.97490 0.04400
C 	C 	0.71820 0.43340 0.86700 -0.01100
H 	H 	0.69360 0.40870 0.88370 0.04500
C 	C 	0.70900 0.48210 0.76200 -0.04700
H 	H 	0.67620 0.48980 0.70730 0.04400
Zn	Zn	0.73136 0.78446 0.94020 1.20400
O 	O 	0.77320 0.72200 0.00100 -0.73700
H 	H 	0.79500 0.71050 0.88350 0.23900
N 	N 	0.75950 0.85120 0.98600 -0.30700
C 	C 	0.74360 0.88730 0.15800 0.13900
H 	H 	0.71820 0.88330 0.29720 -0.02600
N 	N 	0.76840 0.93120 0.10900 -0.16000
C 	C 	0.79960 0.87540 0.80600 0.04800
O 	O 	0.73390 0.16270 0.48800 -0.51700
C 	C 	0.82840 0.85290 0.58900 -0.14300
H 	H 	0.82390 0.81920 0.54010 0.06900
O 	O 	0.66160 0.13310 0.44100 -0.32900
C 	C 	0.86450 0.88240 0.44600 0.06600
C 	C 	0.89420 0.86170 0.22700 -0.11000
H 	H 	0.88990 0.82800 0.17760 0.08000
C 	C 	0.93040 0.89000 0.07900 0.00100
H 	H 	0.95040 0.87610 0.93130 0.01900
C 	C 	0.93490 0.94010 0.16300 -0.04300
H 	H 	0.95860 0.96030 0.06900 0.03800
C 	C 	0.90520 0.96070 0.38300 -0.07900
H 	H 	0.90980 0.99440 0.43290 0.05600
C 	C 	0.86900 0.93300 0.53100 0.03300
C 	C 	0.83990 0.95520 0.74900 -0.11800
H 	H 	0.84400 0.98900 0.79820 0.07000
C 	C 	0.80460 0.92540 0.89000 0.05800
C 	C 	0.75510 0.97980 0.23300 0.16800
C 	C 	0.73120 0.07370 0.44200 -0.17400
C 	C 	0.73490 0.98580 0.51100 -0.09600
H 	H 	0.72940 0.95740 0.62740 0.06700
C 	C 	0.72270 0.03250 0.62100 0.03600
H 	H 	0.70920 0.03620 0.80880 0.03100
C 	C 	0.75140 0.06990 0.16300 -0.00300
H 	H 	0.75690 0.09830 0.04790 0.06200
C 	C 	0.76310 0.02230 0.06200 -0.06000
H 	H 	0.77660 0.01860 0.87410 0.05400
C 	C 	0.70860 0.12510 0.50800 0.57100
O 	O 	0.72400 0.12900 0.77300 -0.28200
C 	C 	0.70600 0.99050 0.31300 -0.11500
H 	H 	0.68140 0.96570 0.29520 0.07800
C 	C 	0.69250 0.03800 0.42100 0.04600
H 	H 	0.65960 0.04560 0.47490 0.03200
C 	C 	0.78180 0.06660 0.36700 0.07800
H 	H 	0.80640 0.09130 0.38370 0.00800
C 	C 	0.79100 0.01790 0.26200 -0.14200
H 	H 	0.82380 0.01020 0.20730 0.08000
Zn	Zn	0.23136 0.28446 0.44020 1.21500
O 	O 	0.27320 0.22200 0.50100 -0.78000
H 	H 	0.29500 0.21050 0.38350 0.27000
N 	N 	0.25950 0.35120 0.48600 -0.28400
C 	C 	0.24360 0.38730 0.65800 0.10800
H 	H 	0.21820 0.38330 0.79720 -0.01800
N 	N 	0.26840 0.43120 0.60900 -0.16500
C 	C 	0.29960 0.37540 0.30600 0.01900
O 	O 	0.23390 0.66270 0.98800 -0.46500
C 	C 	0.32840 0.35290 0.08900 -0.07600
H 	H 	0.32390 0.31920 0.04010 0.04900
O 	O 	0.16160 0.63310 0.94100 -0.28900
C 	C 	0.36450 0.38240 0.94600 -0.02600
C 	C 	0.39420 0.36170 0.72700 -0.03800
H 	H 	0.38990 0.32800 0.67760 0.04500
C 	C 	0.43040 0.39000 0.57900 -0.07800
H 	H 	0.45040 0.37610 0.43130 0.05100
C 	C 	0.43490 0.44010 0.66300 0.02500
H 	H 	0.45860 0.46030 0.56900 0.01600
C 	C 	0.40520 0.46070 0.88300 -0.15300
H 	H 	0.40980 0.49440 0.93290 0.08200
C 	C 	0.36900 0.43300 0.03100 0.11300
C 	C 	0.33990 0.45520 0.24900 -0.17400
H 	H 	0.34400 0.48900 0.29820 0.08800
C 	C 	0.30460 0.42540 0.39000 0.10000
C 	C 	0.25510 0.47980 0.73300 0.15200
C 	C 	0.23120 0.57370 0.94200 -0.09100
C 	C 	0.23490 0.48580 0.01100 -0.10900
H 	H 	0.22940 0.45740 0.12740 0.07600
C 	C 	0.22270 0.53250 0.12100 -0.01000
H 	H 	0.20920 0.53620 0.30880 0.04700
C 	C 	0.25140 0.56990 0.66300 0.03200
H 	H 	0.25690 0.59830 0.54790 0.05400
C 	C 	0.26310 0.52230 0.56200 -0.13100
H 	H 	0.27660 0.51860 0.37410 0.08000
C 	C 	0.20860 0.62510 0.00800 0.46200
O 	O 	0.22400 0.62900 0.27300 -0.27700
C 	C 	0.20600 0.49050 0.81300 -0.07700
H 	H 	0.18140 0.46570 0.79520 0.06600
C 	C 	0.19250 0.53800 0.92100 0.02700
H 	H 	0.15960 0.54560 0.97490 0.04400
C 	C 	0.28180 0.56660 0.86700 -0.01100
H 	H 	0.30640 0.59130 0.88370 0.04500
C 	C 	0.29100 0.51790 0.76200 -0.04700
H 	H 	0.32380 0.51020 0.70730 0.04400
Zn	Zn	0.21554 0.73136 0.05980 1.20400
O 	O 	0.27800 0.77320 0.99900 -0.73700
H 	H 	0.28950 0.79500 0.11650 0.23900
N 	N 	0.14880 0.75950 0.01400 -0.30700
C 	C 	0.11270 0.74360 0.84200 0.13900
H 	H 	0.11670 0.71820 0.70280 -0.02600
N 	N 	0.06880 0.76840 0.89100 -0.16000
C 	C 	0.12460 0.79960 0.19400 0.04800
O 	O 	0.83730 0.73390 0.51200 -0.51700
C 	C 	0.14710 0.82840 0.41100 -0.14300
H 	H 	0.18080 0.82390 0.45990 0.06900
O 	O 	0.86690 0.66160 0.55900 -0.32900
C 	C 	0.11760 0.86450 0.55400 0.06600
C 	C 	0.13830 0.89420 0.77300 -0.11000
H 	H 	0.17200 0.88990 0.82240 0.08000
C 	C 	0.11000 0.93040 0.92100 0.00100
H 	H 	0.12390 0.95040 0.06870 0.01900
C 	C 	0.05990 0.93490 0.83700 -0.04300
H 	H 	0.03970 0.95860 0.93100 0.03800
C 	C 	0.03930 0.90520 0.61700 -0.07900
H 	H 	0.00560 0.90980 0.56710 0.05600
C 	C 	0.06700 0.86900 0.46900 0.03300
C 	C 	0.04480 0.83990 0.25100 -0.11800
H 	H 	0.01100 0.84400 0.20180 0.07000
C 	C 	0.07460 0.80460 0.11000 0.05800
C 	C 	0.02020 0.75510 0.76700 0.16800
C 	C 	0.92630 0.73120 0.55800 -0.17400
C 	C 	0.01420 0.73490 0.48900 -0.09600
H 	H 	0.04260 0.72940 0.37260 0.06700
C 	C 	0.96750 0.72270 0.37900 0.03600
H 	H 	0.96380 0.70920 0.19120 0.03100
C 	C 	0.93010 0.75140 0.83700 -0.00300
H 	H 	0.90170 0.75690 0.95210 0.06200
C 	C 	0.97770 0.76310 0.93800 -0.06000
H 	H 	0.98140 0.77660 0.12590 0.05400
C 	C 	0.87490 0.70860 0.49200 0.57100
O 	O 	0.87100 0.72400 0.22700 -0.28200
C 	C 	0.00950 0.70600 0.68700 -0.11500
H 	H 	0.03430 0.68140 0.70480 0.07800
C 	C 	0.96200 0.69250 0.57900 0.04600
H 	H 	0.95440 0.65960 0.52510 0.03200
C 	C 	0.93340 0.78180 0.63300 0.07800
H 	H 	0.90870 0.80640 0.61630 0.00800
C 	C 	0.98210 0.79100 0.73800 -0.14200
H 	H 	0.98980 0.82380 0.79270 0.08000
Zn	Zn	0.71554 0.23136 0.55980 1.21500
O 	O 	0.77800 0.27320 0.49900 -0.78000
H 	H 	0.78950 0.29500 0.61650 0.27000
N 	N 	0.64880 0.25950 0.51400 -0.28400
C 	C 	0.61270 0.24360 0.34200 0.10800
H 	H 	0.61670 0.21820 0.20280 -0.01800
N 	N 	0.56880 0.26840 0.39100 -0.16500
C 	C 	0.62460 0.29960 0.69400 0.01900
O 	O 	0.33730 0.23390 0.01200 -0.46500
C 	C 	0.64710 0.32840 0.91100 -0.07600
H 	H 	0.68080 0.32390 0.95990 0.04900
O 	O 	0.36690 0.16160 0.05900 -0.28900
C 	C 	0.61760 0.36450 0.05400 -0.02600
C 	C 	0.63830 0.39420 0.27300 -0.03800
H 	H 	0.67200 0.38990 0.32240 0.04500
C 	C 	0.61000 0.43040 0.42100 -0.07800
H 	H 	0.62390 0.45040 0.56870 0.05100
C 	C 	0.55990 0.43490 0.33700 0.02500
H 	H 	0.53970 0.45860 0.43100 0.01600
C 	C 	0.53930 0.40520 0.11700 -0.15300
H 	H 	0.50560 0.40980 0.06710 0.08200
C 	C 	0.56700 0.36900 0.96900 0.11300
C 	C 	0.54480 0.33990 0.75100 -0.17400
H 	H 	0.51100 0.34400 0.70180 0.08800
C 	C 	0.57460 0.30460 0.61000 0.10000
C 	C 	0.52020 0.25510 0.26700 0.15200
C 	C 	0.42630 0.23120 0.05800 -0.09100
C 	C 	0.51420 0.23490 0.98900 -0.10900
H 	H 	0.54260 0.22940 0.87260 0.07600
C 	C 	0.46750 0.22270 0.87900 -0.01000
H 	H 	0.46380 0.20920 0.69120 0.04700
C 	C 	0.43010 0.25140 0.33700 0.03200
H 	H 	0.40170 0.25690 0.45210 0.05400
C 	C 	0.47770 0.26310 0.43800 -0.13100
H 	H 	0.48140 0.27660 0.62590 0.08000
C 	C 	0.37490 0.20860 0.99200 0.46200
O 	O 	0.37100 0.22400 0.72700 -0.27700
C 	C 	0.50950 0.20600 0.18700 -0.07700
H 	H 	0.53430 0.18140 0.20480 0.06600
C 	C 	0.46200 0.19250 0.07900 0.02700
H 	H 	0.45440 0.15960 0.02510 0.04400
C 	C 	0.43340 0.28180 0.13300 -0.01100
H 	H 	0.40870 0.30640 0.11630 0.04500
C 	C 	0.48210 0.29100 0.23800 -0.04700
H 	H 	0.48980 0.32380 0.29270 0.04400
Zn	Zn	0.78446 0.26864 0.05980 1.20400
O 	O 	0.72200 0.22680 0.99900 -0.73700
H 	H 	0.71050 0.20500 0.11650 0.23900
N 	N 	0.85120 0.24050 0.01400 -0.30700
C 	C 	0.88730 0.25640 0.84200 0.13900
H 	H 	0.88330 0.28180 0.70280 -0.02600
N 	N 	0.93120 0.23160 0.89100 -0.16000
C 	C 	0.87540 0.20040 0.19400 0.04800
O 	O 	0.16270 0.26610 0.51200 -0.51700
C 	C 	0.85290 0.17160 0.41100 -0.14300
H 	H 	0.81920 0.17610 0.45990 0.06900
O 	O 	0.13310 0.33840 0.55900 -0.32900
C 	C 	0.88240 0.13550 0.55400 0.06600
C 	C 	0.86170 0.10580 0.77300 -0.11000
H 	H 	0.82800 0.11010 0.82240 0.08000
C 	C 	0.89000 0.06960 0.92100 0.00100
H 	H 	0.87610 0.04960 0.06870 0.01900
C 	C 	0.94010 0.06510 0.83700 -0.04300
H 	H 	0.96030 0.04140 0.93100 0.03800
C 	C 	0.96070 0.09480 0.61700 -0.07900
H 	H 	0.99440 0.09020 0.56710 0.05600
C 	C 	0.93300 0.13100 0.46900 0.03300
C 	C 	0.95520 0.16010 0.25100 -0.11800
H 	H 	0.98900 0.15600 0.20180 0.07000
C 	C 	0.92540 0.19540 0.11000 0.05800
C 	C 	0.97980 0.24490 0.76700 0.16800
C 	C 	0.07370 0.26880 0.55800 -0.17400
C 	C 	0.98580 0.26510 0.48900 -0.09600
H 	H 	0.95740 0.27060 0.37260 0.06700
C 	C 	0.03250 0.27730 0.37900 0.03600
H 	H 	0.03620 0.29080 0.19120 0.03100
C 	C 	0.06990 0.24860 0.83700 -0.00300
H 	H 	0.09830 0.24310 0.95210 0.06200
C 	C 	0.02230 0.23690 0.93800 -0.06000
H 	H 	0.01860 0.22340 0.12590 0.05400
C 	C 	0.12510 0.29140 0.49200 0.57100
O 	O 	0.12900 0.27600 0.22700 -0.28200
C 	C 	0.99050 0.29400 0.68700 -0.11500
H 	H 	0.96570 0.31860 0.70480 0.07800
C 	C 	0.03800 0.30750 0.57900 0.04600
H 	H 	0.04560 0.34040 0.52510 0.03200
C 	C 	0.06660 0.21820 0.63300 0.07800
H 	H 	0.09130 0.19360 0.61630 0.00800
C 	C 	0.01790 0.20900 0.73800 -0.14200
H 	H 	0.01020 0.17620 0.79270 0.08000
Zn	Zn	0.28446 0.76864 0.55980 1.21500
O 	O 	0.22200 0.72680 0.49900 -0.78000
H 	H 	0.21050 0.70500 0.61650 0.27000
N 	N 	0.35120 0.74050 0.51400 -0.28400
C 	C 	0.38730 0.75640 0.34200 0.10800
H 	H 	0.38330 0.78180 0.20280 -0.01800
N 	N 	0.43120 0.73160 0.39100 -0.16500
C 	C 	0.37540 0.70040 0.69400 0.01900
O 	O 	0.66270 0.76610 0.01200 -0.46500
C 	C 	0.35290 0.67160 0.91100 -0.07600
H 	H 	0.31920 0.67610 0.95990 0.04900
O 	O 	0.63310 0.83840 0.05900 -0.28900
C 	C 	0.38240 0.63550 0.05400 -0.02600
C 	C 	0.36170 0.60580 0.27300 -0.03800
H 	H 	0.32800 0.61010 0.32240 0.04500
C 	C 	0.39000 0.56960 0.42100 -0.07800
H 	H 	0.37610 0.54960 0.56870 0.05100
C 	C 	0.44010 0.56510 0.33700 0.02500
H 	H 	0.46030 0.54140 0.43100 0.01600
C 	C 	0.46070 0.59480 0.11700 -0.15300
H 	H 	0.49440 0.59020 0.06710 0.08200
C 	C 	0.43300 0.63100 0.96900 0.11300
C 	C 	0.45520 0.66010 0.75100 -0.17400
H 	H 	0.48900 0.65600 0.70180 0.08800
C 	C 	0.42540 0.69540 0.61000 0.10000
C 	C 	0.47980 0.74490 0.26700 0.15200
C 	C 	0.57370 0.76880 0.05800 -0.09100
C 	C 	0.48580 0.76510 0.98900 -0.10900
H 	H 	0.45740 0.77060 0.87260 0.07600
C 	C 	0.53250 0.77730 0.87900 -0.01000
H 	H 	0.53620 0.79080 0.69120 0.04700
C 	C 	0.56990 0.74860 0.33700 0.03200
H 	H 	0.59830 0.74310 0.45210 0.05400
C 	C 	0.52230 0.73690 0.43800 -0.13100
H 	H 	0.51860 0.72340 0.62590 0.08000
C 	C 	0.62510 0.79140 0.99200 0.46200
O 	O 	0.62900 0.77600 0.72700 -0.27700
C 	C 	0.49050 0.79400 0.18700 -0.07700
H 	H 	0.46570 0.81860 0.20480 0.06600
C 	C 	0.53800 0.80750 0.07900 0.02700
H 	H 	0.54560 0.84040 0.02510 0.04400
C 	C 	0.56660 0.71820 0.13300 -0.01100
H 	H 	0.59130 0.69360 0.11630 0.04500
C 	C 	0.51790 0.70900 0.23800 -0.04700
H 	H 	0.51020 0.67620 0.29270 0.04400
