data_crystal

_cell_length_a 26.52800
_cell_length_b 26.52800
_cell_length_c 4.49800
_cell_angle_alpha 90.00000
_cell_angle_beta  90.00000
_cell_angle_gamma 90.00000

_symmetry_space_group_name_	'P 1'
_symmetry_space_group_name_H-M	'P 1'

loop_
_symmetry_equiv_pos_as_xyz
  x,y,z

loop_
_atom_site_label
_atom_site_type_symbol
_atom_site_fract_x
_atom_site_fract_y
_atom_site_fract_z
_atom_site_charge
Zn	Zn	0.26859 0.21543 0.94750 1.19800
O 	O 	0.22600 0.27830 -0.00000 -0.72100
H 	H 	0.20420 0.28990 0.88280 0.23500
N 	N 	0.24020 0.14720 0.98000 -0.31400
C 	C 	0.25670 0.11160 0.15500 0.14700
H 	H 	0.28240 0.11560 0.29440 -0.02900
N 	N 	0.23120 0.06810 0.10700 -0.14900
C 	C 	0.20060 0.12390 0.80600 0.07800
O 	O 	0.26370 0.83700 0.49300 -0.52100
C 	C 	0.17120 0.14570 0.58700 -0.19000
H 	H 	0.17560 0.17930 0.53540 0.08800
O 	O 	0.32790 0.86330 0.40900 -0.33400
C 	C 	0.13510 0.11680 0.44600 0.12500
C 	C 	0.10480 0.13710 0.22700 -0.18200
H 	H 	0.10910 0.17080 0.17610 0.10900
C 	C 	0.06840 0.10970 0.08000 0.09500
H 	H 	0.04840 0.12390 0.93200 -0.02200
C 	C 	0.06310 0.05990 0.16400 -0.11500
H 	H 	0.03900 0.03980 0.07100 0.07000
C 	C 	0.09310 0.03970 0.38300 -0.01400
H 	H 	0.08850 0.00600 0.43420 0.03500
C 	C 	0.12980 0.06700 0.53000 -0.02100
C 	C 	0.15920 0.04530 0.74800 -0.07500
H 	H 	0.15670 0.01100 0.78930 0.05400
C 	C 	0.19240 0.07530 0.90300 0.01700
C 	C 	0.24510 0.01790 0.21500 0.16500
C 	C 	0.27190 0.92680 0.43900 -0.19200
C 	C 	0.26210 0.01380 0.50400 -0.47600
H 	H 	0.26420 0.04260 0.62170 0.19500
C 	C 	0.27590 0.96810 0.62200 0.36300
H 	H 	0.28740 0.96510 0.81680 -0.08800
C 	C 	0.25530 0.92870 0.15100 0.22400
H 	H 	0.25320 0.89980 0.03420 0.04700
C 	C 	0.24190 0.97520 0.04200 -0.29300
H 	H 	0.23050 0.97800 0.84690 0.11200
C 	C 	0.28660 0.87490 0.55200 0.60200
O 	O 	0.27030 0.87200 0.81800 -0.34200
C 	C 	0.29360 0.01050 0.31100 0.25100
H 	H 	0.31670 0.03680 0.29750 -0.05100
C 	C 	0.30890 0.96420 0.42700 -0.26100
H 	H 	0.34170 0.95860 0.49260 0.13100
C 	C 	0.22180 0.93050 0.34800 -0.17300
H 	H 	0.19850 0.90430 0.35990 0.10000
C 	C 	0.21090 0.97830 0.23600 0.12700
H 	H 	0.17820 0.98420 0.16950 -0.01000
Zn	Zn	0.76859 0.71543 0.44750 1.21300
O 	O 	0.72600 0.77830 0.50000 -0.78300
H 	H 	0.70420 0.78990 0.38280 0.27700
N 	N 	0.74020 0.64720 0.48000 -0.27500
C 	C 	0.75670 0.61160 0.65500 0.10100
H 	H 	0.78240 0.61560 0.79440 -0.02000
N 	N 	0.73120 0.56810 0.60700 -0.17200
C 	C 	0.70060 0.62390 0.30600 -0.00100
O 	O 	0.76370 0.33700 0.99300 -0.50600
C 	C 	0.67120 0.64570 0.08700 -0.02300
H 	H 	0.67560 0.67930 0.03540 0.03500
O 	O 	0.82790 0.36330 0.90900 -0.32300
C 	C 	0.63510 0.61680 0.94600 -0.10600
C 	C 	0.60480 0.63710 0.72700 0.03100
H 	H 	0.60910 0.67080 0.67610 0.02100
C 	C 	0.56840 0.60970 0.58000 -0.14700
H 	H 	0.54840 0.62390 0.43200 0.08100
C 	C 	0.56310 0.55990 0.66400 0.09800
H 	H 	0.53900 0.53980 0.57100 -0.01200
C 	C 	0.59310 0.53970 0.88300 -0.23100
H 	H 	0.58850 0.50600 0.93420 0.10700
C 	C 	0.62980 0.56700 0.03000 0.19500
C 	C 	0.65920 0.54530 0.24800 -0.22500
H 	H 	0.65670 0.51100 0.28930 0.10900
C 	C 	0.69240 0.57530 0.40300 0.12400
C 	C 	0.74510 0.51790 0.71500 0.16300
C 	C 	0.77190 0.42680 0.93900 -0.16100
C 	C 	0.76210 0.51380 0.00400 -0.30400
H 	H 	0.76420 0.54260 0.12170 0.14500
C 	C 	0.77590 0.46810 0.12200 0.18500
H 	H 	0.78740 0.46510 0.31680 -0.01400
C 	C 	0.75530 0.42870 0.65100 0.19400
H 	H 	0.75320 0.39980 0.53420 0.04800
C 	C 	0.74190 0.47520 0.54200 -0.31800
H 	H 	0.73050 0.47800 0.34690 0.13800
C 	C 	0.78660 0.37490 0.05200 0.56500
O 	O 	0.77030 0.37200 0.31800 -0.33000
C 	C 	0.79360 0.51050 0.81100 0.09200
H 	H 	0.81670 0.53680 0.79750 0.00300
C 	C 	0.80890 0.46420 0.92700 -0.11900
H 	H 	0.84170 0.45860 0.99260 0.08500
C 	C 	0.72180 0.43050 0.84800 -0.15500
H 	H 	0.69850 0.40430 0.85990 0.09300
C 	C 	0.71090 0.47830 0.73600 0.11800
H 	H 	0.67820 0.48420 0.66950 -0.01500
Zn	Zn	0.73141 0.78457 0.94750 1.19700
O 	O 	0.77400 0.72170 -0.00000 -0.72200
H 	H 	0.79580 0.71010 0.88280 0.23400
N 	N 	0.75980 0.85280 0.98000 -0.31500
C 	C 	0.74330 0.88840 0.15500 0.14600
H 	H 	0.71760 0.88440 0.29440 -0.03000
N 	N 	0.76880 0.93190 0.10700 -0.14900
C 	C 	0.79940 0.87610 0.80600 0.07800
O 	O 	0.73630 0.16300 0.49300 -0.52100
C 	C 	0.82880 0.85430 0.58700 -0.19000
H 	H 	0.82440 0.82070 0.53540 0.08800
O 	O 	0.67210 0.13670 0.40900 -0.33400
C 	C 	0.86490 0.88320 0.44600 0.12500
C 	C 	0.89520 0.86290 0.22700 -0.18200
H 	H 	0.89090 0.82920 0.17610 0.10900
C 	C 	0.93160 0.89030 0.08000 0.09500
H 	H 	0.95160 0.87610 0.93200 -0.02200
C 	C 	0.93690 0.94010 0.16400 -0.11500
H 	H 	0.96100 0.96020 0.07100 0.07000
C 	C 	0.90690 0.96030 0.38300 -0.01400
H 	H 	0.91150 0.99400 0.43420 0.03500
C 	C 	0.87020 0.93300 0.53000 -0.02100
C 	C 	0.84080 0.95470 0.74800 -0.07500
H 	H 	0.84330 0.98900 0.78930 0.05400
C 	C 	0.80760 0.92470 0.90300 0.01700
C 	C 	0.75490 0.98210 0.21500 0.16500
C 	C 	0.72810 0.07320 0.43900 -0.19200
C 	C 	0.73790 0.98620 0.50400 -0.47600
H 	H 	0.73580 0.95740 0.62170 0.19500
C 	C 	0.72410 0.03190 0.62200 0.36300
H 	H 	0.71260 0.03490 0.81680 -0.08800
C 	C 	0.74470 0.07130 0.15100 0.22400
H 	H 	0.74680 0.10020 0.03420 0.04700
C 	C 	0.75810 0.02480 0.04200 -0.29300
H 	H 	0.76950 0.02200 0.84690 0.11200
C 	C 	0.71340 0.12510 0.55200 0.60200
O 	O 	0.72970 0.12800 0.81800 -0.34200
C 	C 	0.70640 0.98950 0.31100 0.25100
H 	H 	0.68330 0.96320 0.29750 -0.05100
C 	C 	0.69110 0.03580 0.42700 -0.26100
H 	H 	0.65830 0.04140 0.49260 0.13100
C 	C 	0.77820 0.06950 0.34800 -0.17300
H 	H 	0.80150 0.09570 0.35990 0.10000
C 	C 	0.78910 0.02170 0.23600 0.12700
H 	H 	0.82180 0.01580 0.16950 -0.01000
Zn	Zn	0.23141 0.28457 0.44750 1.21300
O 	O 	0.27400 0.22170 0.50000 -0.78300
H 	H 	0.29580 0.21010 0.38280 0.27700
N 	N 	0.25980 0.35280 0.48000 -0.27500
C 	C 	0.24330 0.38840 0.65500 0.10100
H 	H 	0.21760 0.38440 0.79440 -0.02000
N 	N 	0.26880 0.43190 0.60700 -0.17200
C 	C 	0.29940 0.37610 0.30600 -0.00100
O 	O 	0.23630 0.66300 0.99300 -0.50600
C 	C 	0.32880 0.35430 0.08700 -0.02300
H 	H 	0.32440 0.32070 0.03540 0.03500
O 	O 	0.17210 0.63670 0.90900 -0.32300
C 	C 	0.36490 0.38320 0.94600 -0.10600
C 	C 	0.39520 0.36290 0.72700 0.03100
H 	H 	0.39090 0.32920 0.67610 0.02100
C 	C 	0.43160 0.39030 0.58000 -0.14700
H 	H 	0.45160 0.37610 0.43200 0.08100
C 	C 	0.43690 0.44010 0.66400 0.09800
H 	H 	0.46100 0.46020 0.57100 -0.01200
C 	C 	0.40690 0.46030 0.88300 -0.23100
H 	H 	0.41150 0.49400 0.93420 0.10700
C 	C 	0.37020 0.43300 0.03000 0.19500
C 	C 	0.34080 0.45470 0.24800 -0.22500
H 	H 	0.34330 0.48900 0.28930 0.10900
C 	C 	0.30760 0.42470 0.40300 0.12400
C 	C 	0.25490 0.48210 0.71500 0.16300
C 	C 	0.22810 0.57320 0.93900 -0.16100
C 	C 	0.23790 0.48620 0.00400 -0.30400
H 	H 	0.23580 0.45740 0.12170 0.14500
C 	C 	0.22410 0.53190 0.12200 0.18500
H 	H 	0.21260 0.53490 0.31680 -0.01400
C 	C 	0.24470 0.57130 0.65100 0.19400
H 	H 	0.24680 0.60020 0.53420 0.04800
C 	C 	0.25810 0.52480 0.54200 -0.31800
H 	H 	0.26950 0.52200 0.34690 0.13800
C 	C 	0.21340 0.62510 0.05200 0.56500
O 	O 	0.22970 0.62800 0.31800 -0.33000
C 	C 	0.20640 0.48950 0.81100 0.09200
H 	H 	0.18330 0.46320 0.79750 0.00300
C 	C 	0.19110 0.53580 0.92700 -0.11900
H 	H 	0.15830 0.54140 0.99260 0.08500
C 	C 	0.27820 0.56950 0.84800 -0.15500
H 	H 	0.30150 0.59570 0.85990 0.09300
C 	C 	0.28910 0.52170 0.73600 0.11800
H 	H 	0.32180 0.51580 0.66950 -0.01500
Zn	Zn	0.21543 0.73141 0.05250 1.21200
O 	O 	0.27830 0.77400 -0.00000 -0.77700
H 	H 	0.28990 0.79580 0.11720 0.27900
N 	N 	0.14720 0.75980 0.02000 -0.28300
C 	C 	0.11160 0.74330 0.84500 0.11000
H 	H 	0.11560 0.71760 0.70560 -0.01800
N 	N 	0.06810 0.76880 0.89300 -0.16800
C 	C 	0.12390 0.79940 0.19400 0.04300
O 	O 	0.83700 0.73630 0.50700 -0.52200
C 	C 	0.14570 0.82880 0.41300 -0.12200
H 	H 	0.17930 0.82440 0.46460 0.06300
O 	O 	0.86330 0.67210 0.59100 -0.33500
C 	C 	0.11680 0.86490 0.55400 0.01900
C 	C 	0.13710 0.89520 0.77300 -0.04700
H 	H 	0.17080 0.89090 0.82390 0.05200
C 	C 	0.10970 0.93160 0.92000 -0.09700
H 	H 	0.12390 0.95160 0.06800 0.07000
C 	C 	0.05990 0.93690 0.83600 0.03100
H 	H 	0.03980 0.96100 0.92900 0.00500
C 	C 	0.03970 0.90690 0.61700 -0.13500
H 	H 	0.00600 0.91150 0.56580 0.07600
C 	C 	0.06700 0.87020 0.47000 0.08000
C 	C 	0.04530 0.84080 0.25200 -0.15200
H 	H 	0.01100 0.84330 0.21070 0.08500
C 	C 	0.07530 0.80760 0.09700 0.08700
C 	C 	0.01790 0.75490 0.78500 0.17700
C 	C 	0.92680 0.72810 0.56100 -0.18200
C 	C 	0.01380 0.73790 0.49600 -0.13400
H 	H 	0.04260 0.73580 0.37830 0.08300
C 	C 	0.96810 0.72410 0.37800 0.03500
H 	H 	0.96510 0.71260 0.18320 0.04000
C 	C 	0.92870 0.74470 0.84900 0.07700
H 	H 	0.89980 0.74680 0.96580 0.07700
C 	C 	0.97520 0.75810 0.95800 -0.21200
H 	H 	0.97800 0.76950 0.15310 0.11200
C 	C 	0.87490 0.71340 0.44800 0.59700
O 	O 	0.87200 0.72970 0.18200 -0.32700
C 	C 	0.01050 0.70640 0.68900 -0.09100
H 	H 	0.03680 0.68330 0.70250 0.06700
C 	C 	0.96420 0.69110 0.57300 0.05000
H 	H 	0.95860 0.65830 0.50740 0.02500
C 	C 	0.93050 0.77820 0.65200 -0.01600
H 	H 	0.90430 0.80150 0.64010 0.04000
C 	C 	0.97830 0.78910 0.76400 -0.01800
H 	H 	0.98420 0.82180 0.83050 0.03200
Zn	Zn	0.71543 0.23141 0.55250 1.21400
O 	O 	0.77830 0.27400 0.50000 -0.77600
H 	H 	0.78990 0.29580 0.61720 0.27600
N 	N 	0.64720 0.25980 0.52000 -0.28300
C 	C 	0.61160 0.24330 0.34500 0.10100
H 	H 	0.61560 0.21760 0.20560 -0.01200
N 	N 	0.56810 0.26880 0.39300 -0.15700
C 	C 	0.62390 0.29940 0.69400 0.06600
O 	O 	0.33700 0.23630 0.00700 -0.44900
C 	C 	0.64570 0.32880 0.91300 -0.17100
H 	H 	0.67930 0.32440 0.96460 0.08000
O 	O 	0.36330 0.17210 0.09100 -0.28200
C 	C 	0.61680 0.36490 0.05400 0.09300
C 	C 	0.63710 0.39520 0.27300 -0.13400
H 	H 	0.67080 0.39090 0.32390 0.08300
C 	C 	0.60970 0.43160 0.42000 0.01100
H 	H 	0.62390 0.45160 0.56800 0.02100
C 	C 	0.55990 0.43690 0.33600 -0.06400
H 	H 	0.53980 0.46100 0.42900 0.04800
C 	C 	0.53970 0.40690 0.11700 -0.04800
H 	H 	0.50600 0.41150 0.06580 0.05000
C 	C 	0.56700 0.37020 0.97000 0.00200
C 	C 	0.54530 0.34080 0.75200 -0.10500
H 	H 	0.51100 0.34330 0.71070 0.06500
C 	C 	0.57530 0.30760 0.59700 0.05800
C 	C 	0.51790 0.25490 0.28500 0.15700
C 	C 	0.42680 0.22810 0.06100 -0.06000
C 	C 	0.51380 0.23790 0.99600 -0.29000
H 	H 	0.54260 0.23580 0.87830 0.13200
C 	C 	0.46810 0.22410 0.87800 0.07000
H 	H 	0.46510 0.21260 0.68320 0.02200
C 	C 	0.42870 0.24470 0.34900 0.12300
H 	H 	0.39980 0.24680 0.46580 0.07000
C 	C 	0.47520 0.25810 0.45800 -0.29300
H 	H 	0.47800 0.26950 0.65310 0.13500
C 	C 	0.37490 0.21340 0.94800 0.44300
O 	O 	0.37200 0.22970 0.68200 -0.31600
C 	C 	0.51050 0.20640 0.18900 0.09500
H 	H 	0.53680 0.18330 0.20250 0.00500
C 	C 	0.46420 0.19110 0.07300 -0.08100
H 	H 	0.45860 0.15830 0.00740 0.08000
C 	C 	0.43050 0.27820 0.15200 -0.14500
H 	H 	0.40430 0.30150 0.14010 0.09700
C 	C 	0.47830 0.28910 0.26400 0.12400
H 	H 	0.48420 0.32180 0.33050 -0.01600
Zn	Zn	0.78457 0.26859 0.05250 1.21200
O 	O 	0.72170 0.22600 -0.00000 -0.77700
H 	H 	0.71010 0.20420 0.11720 0.27900
N 	N 	0.85280 0.24020 0.02000 -0.28300
C 	C 	0.88840 0.25670 0.84500 0.11000
H 	H 	0.88440 0.28240 0.70560 -0.01800
N 	N 	0.93190 0.23120 0.89300 -0.16800
C 	C 	0.87610 0.20060 0.19400 0.04300
O 	O 	0.16300 0.26370 0.50700 -0.52200
C 	C 	0.85430 0.17120 0.41300 -0.12200
H 	H 	0.82070 0.17560 0.46460 0.06300
O 	O 	0.13670 0.32790 0.59100 -0.33500
C 	C 	0.88320 0.13510 0.55400 0.01900
C 	C 	0.86290 0.10480 0.77300 -0.04700
H 	H 	0.82920 0.10910 0.82390 0.05200
C 	C 	0.89030 0.06840 0.92000 -0.09700
H 	H 	0.87610 0.04840 0.06800 0.07000
C 	C 	0.94010 0.06310 0.83600 0.03100
H 	H 	0.96020 0.03900 0.92900 0.00500
C 	C 	0.96030 0.09310 0.61700 -0.13500
H 	H 	0.99400 0.08850 0.56580 0.07600
C 	C 	0.93300 0.12980 0.47000 0.08000
C 	C 	0.95470 0.15920 0.25200 -0.15200
H 	H 	0.98900 0.15670 0.21070 0.08500
C 	C 	0.92470 0.19240 0.09700 0.08700
C 	C 	0.98210 0.24510 0.78500 0.17700
C 	C 	0.07320 0.27190 0.56100 -0.18200
C 	C 	0.98620 0.26210 0.49600 -0.13400
H 	H 	0.95740 0.26420 0.37830 0.08300
C 	C 	0.03190 0.27590 0.37800 0.03500
H 	H 	0.03490 0.28740 0.18320 0.04000
C 	C 	0.07130 0.25530 0.84900 0.07700
H 	H 	0.10020 0.25320 0.96580 0.07700
C 	C 	0.02480 0.24190 0.95800 -0.21200
H 	H 	0.02200 0.23050 0.15310 0.11200
C 	C 	0.12510 0.28660 0.44800 0.59700
O 	O 	0.12800 0.27030 0.18200 -0.32700
C 	C 	0.98950 0.29360 0.68900 -0.09100
H 	H 	0.96320 0.31670 0.70250 0.06700
C 	C 	0.03580 0.30890 0.57300 0.05000
H 	H 	0.04140 0.34170 0.50740 0.02500
C 	C 	0.06950 0.22180 0.65200 -0.01600
H 	H 	0.09570 0.19850 0.64010 0.04000
C 	C 	0.02170 0.21090 0.76400 -0.01800
H 	H 	0.01580 0.17820 0.83050 0.03200
Zn	Zn	0.28457 0.76859 0.55250 1.21400
O 	O 	0.22170 0.72600 0.50000 -0.77600
H 	H 	0.21010 0.70420 0.61720 0.27600
N 	N 	0.35280 0.74020 0.52000 -0.28300
C 	C 	0.38840 0.75670 0.34500 0.10100
H 	H 	0.38440 0.78240 0.20560 -0.01200
N 	N 	0.43190 0.73120 0.39300 -0.15700
C 	C 	0.37610 0.70060 0.69400 0.06600
O 	O 	0.66300 0.76370 0.00700 -0.44900
C 	C 	0.35430 0.67120 0.91300 -0.17100
H 	H 	0.32070 0.67560 0.96460 0.08000
O 	O 	0.63670 0.82790 0.09100 -0.28200
C 	C 	0.38320 0.63510 0.05400 0.09300
C 	C 	0.36290 0.60480 0.27300 -0.13400
H 	H 	0.32920 0.60910 0.32390 0.08300
C 	C 	0.39030 0.56840 0.42000 0.01100
H 	H 	0.37610 0.54840 0.56800 0.02100
C 	C 	0.44010 0.56310 0.33600 -0.06400
H 	H 	0.46020 0.53900 0.42900 0.04800
C 	C 	0.46030 0.59310 0.11700 -0.04800
H 	H 	0.49400 0.58850 0.06580 0.05000
C 	C 	0.43300 0.62980 0.97000 0.00200
C 	C 	0.45470 0.65920 0.75200 -0.10500
H 	H 	0.48900 0.65670 0.71070 0.06500
C 	C 	0.42470 0.69240 0.59700 0.05800
C 	C 	0.48210 0.74510 0.28500 0.15700
C 	C 	0.57320 0.77190 0.06100 -0.06000
C 	C 	0.48620 0.76210 0.99600 -0.29000
H 	H 	0.45740 0.76420 0.87830 0.13200
C 	C 	0.53190 0.77590 0.87800 0.07000
H 	H 	0.53490 0.78740 0.68320 0.02200
C 	C 	0.57130 0.75530 0.34900 0.12300
H 	H 	0.60020 0.75320 0.46580 0.07000
C 	C 	0.52480 0.74190 0.45800 -0.29300
H 	H 	0.52200 0.73050 0.65310 0.13500
C 	C 	0.62510 0.78660 0.94800 0.44300
O 	O 	0.62800 0.77030 0.68200 -0.31600
C 	C 	0.48950 0.79360 0.18900 0.09500
H 	H 	0.46320 0.81670 0.20250 0.00500
C 	C 	0.53580 0.80890 0.07300 -0.08100
H 	H 	0.54140 0.84170 0.00740 0.08000
C 	C 	0.56950 0.72180 0.15200 -0.14500
H 	H 	0.59570 0.69850 0.14010 0.09700
C 	C 	0.52170 0.71090 0.26400 0.12400
H 	H 	0.51580 0.67820 0.33050 -0.01600
