data_crystal

_cell_length_a 26.29700
_cell_length_b 26.29700
_cell_length_c 4.97660
_cell_angle_alpha 90.00000
_cell_angle_beta  90.00000
_cell_angle_gamma 90.00000

_symmetry_space_group_name_	'P 1'
_symmetry_space_group_name_H-M	'P 1'

loop_
_symmetry_equiv_pos_as_xyz
  x,y,z

loop_
_atom_site_label
_atom_site_type_symbol
_atom_site_fract_x
_atom_site_fract_y
_atom_site_fract_z
_atom_site_charge
Zn	Zn	0.27160 0.21545 0.88240 1.22300
O 	O 	0.22430 0.26760 0.01700 -0.81200
N 	N 	0.24520 0.14620 0.92500 -0.29800
O 	O 	0.33760 0.22860 0.06500 -0.51700
H 	H 	0.20360 0.27860 0.90490 0.31700
C 	C 	0.25940 0.10840 0.07700 0.13400
C 	C 	0.20690 0.12360 0.76480 0.04700
H 	H 	0.28470 0.11260 0.20550 -0.02200
N 	N 	0.23610 0.06270 0.04330 -0.16200
C 	C 	0.17760 0.14520 0.56500 -0.13800
C 	C 	0.20050 0.07340 0.84500 0.06200
C 	C 	0.25040 0.01560 0.16800 0.16000
H 	H 	0.18150 0.17920 0.51830 0.05300
C 	C 	0.14200 0.11490 0.43450 0.05200
C 	C 	0.16650 0.04240 0.71180 -0.12000
C 	C 	0.27320 0.01410 0.41800 -0.19700
C 	C 	0.24110 0.97040 0.03500 0.04700
C 	C 	0.11200 0.13490 0.23200 -0.09400
C 	C 	0.13690 0.06400 0.51030 0.03900
H 	H 	0.16340 0.00810 0.75520 0.07200
H 	H 	0.27960 0.04440 0.50800 0.10200
C 	C 	0.28680 0.96880 0.53600 0.13100
C 	C 	0.25400 0.92420 0.14600 -0.05700
H 	H 	0.22570 0.97120 0.86670 0.01400
H 	H 	0.11610 0.16890 0.18630 0.06100
C 	C 	0.07620 0.10630 0.09600 -0.01300
C 	C 	0.10080 0.03500 0.37400 -0.08400
C 	C 	0.27680 0.92490 0.39400 -0.16100
H 	H 	0.30210 0.96780 0.70460 0.00000
H 	H 	0.24750 0.89390 0.05700 0.06900
H 	H 	0.05630 0.12030 0.96030 0.02400
C 	C 	0.07110 0.05570 0.17180 -0.03500
H 	H 	0.09640 0.00100 0.42040 0.05800
C 	C 	0.29200 0.87470 0.52700 0.55100
H 	H 	0.04740 0.03540 0.08480 0.03600
O 	O 	0.29960 0.87750 0.77900 -0.30500
O 	O 	0.34180 0.87410 0.53800 -0.26700
C 	C 	0.29940 0.00860 0.25500 0.00300
H 	H 	0.32300 0.03470 0.23570 0.04200
C 	C 	0.31430 0.96260 0.37100 -0.05200
H 	H 	0.34740 0.95720 0.43040 0.07500
C 	C 	0.22620 0.92890 0.30900 0.13100
H 	H 	0.20240 0.90290 0.32600 -0.01600
C 	C 	0.21550 0.97640 0.19700 -0.22700
H 	H 	0.18250 0.98220 0.13750 0.10700
Zn	Zn	0.77160 0.71545 0.38240 1.22800
O 	O 	0.72430 0.76760 0.51700 -0.83900
N 	N 	0.74520 0.64620 0.42500 -0.28400
O 	O 	0.83760 0.72860 0.56500 -0.54900
H 	H 	0.70360 0.77860 0.40490 0.33500
C 	C 	0.75940 0.60840 0.57700 0.10900
C 	C 	0.70690 0.62360 0.26480 0.02800
H 	H 	0.78470 0.61260 0.70550 -0.01600
N 	N 	0.73610 0.56270 0.54330 -0.16300
C 	C 	0.67760 0.64520 0.06500 -0.09700
C 	C 	0.70050 0.57340 0.34500 0.08800
C 	C 	0.75040 0.51560 0.66800 0.13500
H 	H 	0.68150 0.67920 0.01830 0.04200
C 	C 	0.64200 0.61490 0.93450 0.00100
C 	C 	0.66650 0.54240 0.21180 -0.14900
C 	C 	0.77320 0.51410 0.91800 -0.41100
C 	C 	0.74110 0.47040 0.53500 0.17700
C 	C 	0.61200 0.63490 0.73200 -0.05200
C 	C 	0.63690 0.56400 0.01030 0.08300
H 	H 	0.66340 0.50810 0.25520 0.08300
H 	H 	0.77960 0.54440 0.00800 0.17100
C 	C 	0.78680 0.46880 0.03600 0.31500
C 	C 	0.75400 0.42420 0.64600 -0.19500
H 	H 	0.72570 0.47120 0.36670 -0.03400
H 	H 	0.61610 0.66890 0.68630 0.04000
C 	C 	0.57620 0.60630 0.59600 -0.05800
C 	C 	0.60080 0.53500 0.87400 -0.12500
C 	C 	0.77680 0.42490 0.89400 -0.10600
H 	H 	0.80210 0.46780 0.20460 -0.06700
H 	H 	0.74750 0.39390 0.55700 0.11800
H 	H 	0.55630 0.62030 0.46030 0.04200
C 	C 	0.57110 0.55570 0.67180 0.00300
H 	H 	0.59640 0.50100 0.92040 0.07300
C 	C 	0.79200 0.37470 0.02700 0.49200
H 	H 	0.54740 0.53540 0.58480 0.02300
O 	O 	0.79960 0.37750 0.27900 -0.29600
O 	O 	0.84180 0.37410 0.03800 -0.26500
C 	C 	0.79940 0.50860 0.75500 0.26000
H 	H 	0.82300 0.53470 0.73570 -0.04700
C 	C 	0.81430 0.46260 0.87100 -0.28300
H 	H 	0.84740 0.45720 0.93040 0.16100
C 	C 	0.72620 0.42890 0.80900 0.23300
H 	H 	0.70240 0.40290 0.82600 -0.04800
C 	C 	0.71550 0.47640 0.69700 -0.32500
H 	H 	0.68250 0.48220 0.63750 0.13900
Zn	Zn	0.72840 0.78455 0.88240 1.22200
O 	O 	0.77570 0.73240 0.01700 -0.81300
N 	N 	0.75480 0.85380 0.92500 -0.29900
O 	O 	0.66240 0.77140 0.06500 -0.51800
H 	H 	0.79640 0.72140 0.90490 0.31700
C 	C 	0.74060 0.89160 0.07700 0.13400
C 	C 	0.79310 0.87640 0.76480 0.04700
H 	H 	0.71530 0.88740 0.20550 -0.02200
N 	N 	0.76390 0.93730 0.04330 -0.16200
C 	C 	0.82240 0.85480 0.56500 -0.13800
C 	C 	0.79950 0.92660 0.84500 0.06200
C 	C 	0.74960 0.98440 0.16800 0.16000
H 	H 	0.81850 0.82080 0.51830 0.05300
C 	C 	0.85800 0.88510 0.43450 0.05200
C 	C 	0.83350 0.95760 0.71180 -0.12000
C 	C 	0.72680 0.98590 0.41800 -0.19700
C 	C 	0.75890 0.02960 0.03500 0.04700
C 	C 	0.88800 0.86510 0.23200 -0.09400
C 	C 	0.86310 0.93600 0.51030 0.03900
H 	H 	0.83660 0.99190 0.75520 0.07200
H 	H 	0.72040 0.95560 0.50800 0.10200
C 	C 	0.71320 0.03120 0.53600 0.13100
C 	C 	0.74600 0.07580 0.14600 -0.05700
H 	H 	0.77430 0.02880 0.86670 0.01400
H 	H 	0.88390 0.83110 0.18630 0.06100
C 	C 	0.92380 0.89370 0.09600 -0.01300
C 	C 	0.89920 0.96500 0.37400 -0.08400
C 	C 	0.72320 0.07510 0.39400 -0.16100
H 	H 	0.69790 0.03220 0.70460 0.00000
H 	H 	0.75250 0.10610 0.05700 0.06900
H 	H 	0.94370 0.87970 0.96030 0.02400
C 	C 	0.92890 0.94430 0.17180 -0.03500
H 	H 	0.90360 0.99900 0.42040 0.05800
C 	C 	0.70800 0.12530 0.52700 0.55100
H 	H 	0.95260 0.96460 0.08480 0.03600
O 	O 	0.70040 0.12250 0.77900 -0.30500
O 	O 	0.65820 0.12590 0.53800 -0.26700
C 	C 	0.70060 0.99140 0.25500 0.00300
H 	H 	0.67700 0.96530 0.23570 0.04200
C 	C 	0.68570 0.03740 0.37100 -0.05200
H 	H 	0.65260 0.04280 0.43040 0.07500
C 	C 	0.77380 0.07110 0.30900 0.13100
H 	H 	0.79760 0.09710 0.32600 -0.01600
C 	C 	0.78450 0.02360 0.19700 -0.22700
H 	H 	0.81750 0.01780 0.13750 0.10700
Zn	Zn	0.22840 0.28455 0.38240 1.22800
O 	O 	0.27570 0.23240 0.51700 -0.83900
N 	N 	0.25480 0.35380 0.42500 -0.28400
O 	O 	0.16240 0.27140 0.56500 -0.54900
H 	H 	0.29640 0.22140 0.40490 0.33500
C 	C 	0.24060 0.39160 0.57700 0.10900
C 	C 	0.29310 0.37640 0.26480 0.02800
H 	H 	0.21530 0.38740 0.70550 -0.01600
N 	N 	0.26390 0.43730 0.54330 -0.16300
C 	C 	0.32240 0.35480 0.06500 -0.09700
C 	C 	0.29950 0.42660 0.34500 0.08800
C 	C 	0.24960 0.48440 0.66800 0.13500
H 	H 	0.31850 0.32080 0.01830 0.04200
C 	C 	0.35800 0.38510 0.93450 0.00100
C 	C 	0.33350 0.45760 0.21180 -0.14900
C 	C 	0.22680 0.48590 0.91800 -0.41100
C 	C 	0.25890 0.52960 0.53500 0.17700
C 	C 	0.38800 0.36510 0.73200 -0.05200
C 	C 	0.36310 0.43600 0.01030 0.08300
H 	H 	0.33660 0.49190 0.25520 0.08300
H 	H 	0.22040 0.45560 0.00800 0.17100
C 	C 	0.21320 0.53120 0.03600 0.31500
C 	C 	0.24600 0.57580 0.64600 -0.19500
H 	H 	0.27430 0.52880 0.36670 -0.03400
H 	H 	0.38390 0.33110 0.68630 0.04000
C 	C 	0.42380 0.39370 0.59600 -0.05800
C 	C 	0.39920 0.46500 0.87400 -0.12500
C 	C 	0.22320 0.57510 0.89400 -0.10600
H 	H 	0.19790 0.53220 0.20460 -0.06700
H 	H 	0.25250 0.60610 0.55700 0.11800
H 	H 	0.44370 0.37970 0.46030 0.04200
C 	C 	0.42890 0.44430 0.67180 0.00300
H 	H 	0.40360 0.49900 0.92040 0.07300
C 	C 	0.20800 0.62530 0.02700 0.49200
H 	H 	0.45260 0.46460 0.58480 0.02300
O 	O 	0.20040 0.62250 0.27900 -0.29600
O 	O 	0.15820 0.62590 0.03800 -0.26500
C 	C 	0.20060 0.49140 0.75500 0.26000
H 	H 	0.17700 0.46530 0.73570 -0.04700
C 	C 	0.18570 0.53740 0.87100 -0.28300
H 	H 	0.15260 0.54280 0.93040 0.16100
C 	C 	0.27380 0.57110 0.80900 0.23300
H 	H 	0.29760 0.59710 0.82600 -0.04800
C 	C 	0.28450 0.52360 0.69700 -0.32500
H 	H 	0.31750 0.51780 0.63750 0.13900
Zn	Zn	0.21545 0.72840 0.11760 1.22200
O 	O 	0.26760 0.77570 0.98300 -0.81300
N 	N 	0.14620 0.75480 0.07500 -0.29900
O 	O 	0.22860 0.66240 0.93500 -0.51800
H 	H 	0.27860 0.79640 0.09510 0.31700
C 	C 	0.10840 0.74060 0.92300 0.13400
C 	C 	0.12360 0.79310 0.23520 0.04700
H 	H 	0.11260 0.71530 0.79450 -0.02200
N 	N 	0.06270 0.76390 0.95670 -0.16200
C 	C 	0.14520 0.82240 0.43500 -0.13800
C 	C 	0.07340 0.79950 0.15500 0.06200
C 	C 	0.01560 0.74960 0.83200 0.16000
H 	H 	0.17920 0.81850 0.48170 0.05300
C 	C 	0.11490 0.85800 0.56550 0.05200
C 	C 	0.04240 0.83350 0.28820 -0.12000
C 	C 	0.01410 0.72680 0.58200 -0.19700
C 	C 	0.97040 0.75890 0.96500 0.04700
C 	C 	0.13490 0.88800 0.76800 -0.09400
C 	C 	0.06400 0.86310 0.48970 0.03900
H 	H 	0.00810 0.83660 0.24480 0.07200
H 	H 	0.04440 0.72040 0.49200 0.10200
C 	C 	0.96880 0.71320 0.46400 0.13100
C 	C 	0.92420 0.74600 0.85400 -0.05700
H 	H 	0.97120 0.77430 0.13330 0.01400
H 	H 	0.16890 0.88390 0.81370 0.06100
C 	C 	0.10630 0.92380 0.90400 -0.01300
C 	C 	0.03500 0.89920 0.62600 -0.08400
C 	C 	0.92490 0.72320 0.60600 -0.16100
H 	H 	0.96780 0.69790 0.29540 0.00000
H 	H 	0.89390 0.75250 0.94300 0.06900
H 	H 	0.12030 0.94370 0.03970 0.02400
C 	C 	0.05570 0.92890 0.82820 -0.03500
H 	H 	0.00100 0.90360 0.57960 0.05800
C 	C 	0.87470 0.70800 0.47300 0.55100
H 	H 	0.03540 0.95260 0.91520 0.03600
O 	O 	0.87750 0.70040 0.22100 -0.30500
O 	O 	0.87410 0.65820 0.46200 -0.26700
C 	C 	0.00860 0.70060 0.74500 0.00300
H 	H 	0.03470 0.67700 0.76430 0.04200
C 	C 	0.96260 0.68570 0.62900 -0.05200
H 	H 	0.95720 0.65260 0.56960 0.07500
C 	C 	0.92890 0.77380 0.69100 0.13100
H 	H 	0.90290 0.79760 0.67400 -0.01600
C 	C 	0.97640 0.78450 0.80300 -0.22700
H 	H 	0.98220 0.81750 0.86250 0.10700
Zn	Zn	0.71545 0.22840 0.61760 1.22800
O 	O 	0.76760 0.27570 0.48300 -0.83900
N 	N 	0.64620 0.25480 0.57500 -0.28400
O 	O 	0.72860 0.16240 0.43500 -0.54900
H 	H 	0.77860 0.29640 0.59510 0.33500
C 	C 	0.60840 0.24060 0.42300 0.10900
C 	C 	0.62360 0.29310 0.73520 0.02800
H 	H 	0.61260 0.21530 0.29450 -0.01600
N 	N 	0.56270 0.26390 0.45670 -0.16300
C 	C 	0.64520 0.32240 0.93500 -0.09700
C 	C 	0.57340 0.29950 0.65500 0.08800
C 	C 	0.51560 0.24960 0.33200 0.13500
H 	H 	0.67920 0.31850 0.98170 0.04200
C 	C 	0.61490 0.35800 0.06550 0.00100
C 	C 	0.54240 0.33350 0.78820 -0.14900
C 	C 	0.51410 0.22680 0.08200 -0.41100
C 	C 	0.47040 0.25890 0.46500 0.17700
C 	C 	0.63490 0.38800 0.26800 -0.05200
C 	C 	0.56400 0.36310 0.98970 0.08300
H 	H 	0.50810 0.33660 0.74480 0.08300
H 	H 	0.54440 0.22040 0.99200 0.17100
C 	C 	0.46880 0.21320 0.96400 0.31500
C 	C 	0.42420 0.24600 0.35400 -0.19500
H 	H 	0.47120 0.27430 0.63330 -0.03400
H 	H 	0.66890 0.38390 0.31370 0.04000
C 	C 	0.60630 0.42380 0.40400 -0.05800
C 	C 	0.53500 0.39920 0.12600 -0.12500
C 	C 	0.42490 0.22320 0.10600 -0.10600
H 	H 	0.46780 0.19790 0.79540 -0.06700
H 	H 	0.39390 0.25250 0.44300 0.11800
H 	H 	0.62030 0.44370 0.53970 0.04200
C 	C 	0.55570 0.42890 0.32820 0.00300
H 	H 	0.50100 0.40360 0.07960 0.07300
C 	C 	0.37470 0.20800 0.97300 0.49200
H 	H 	0.53540 0.45260 0.41520 0.02300
O 	O 	0.37750 0.20040 0.72100 -0.29600
O 	O 	0.37410 0.15820 0.96200 -0.26500
C 	C 	0.50860 0.20060 0.24500 0.26000
H 	H 	0.53470 0.17700 0.26430 -0.04700
C 	C 	0.46260 0.18570 0.12900 -0.28300
H 	H 	0.45720 0.15260 0.06960 0.16100
C 	C 	0.42890 0.27380 0.19100 0.23300
H 	H 	0.40290 0.29760 0.17400 -0.04800
C 	C 	0.47640 0.28450 0.30300 -0.32500
H 	H 	0.48220 0.31750 0.36250 0.13900
Zn	Zn	0.78455 0.27160 0.11760 1.22200
O 	O 	0.73240 0.22430 0.98300 -0.81300
N 	N 	0.85380 0.24520 0.07500 -0.29900
O 	O 	0.77140 0.33760 0.93500 -0.51800
H 	H 	0.72140 0.20360 0.09510 0.31700
C 	C 	0.89160 0.25940 0.92300 0.13400
C 	C 	0.87640 0.20690 0.23520 0.04700
H 	H 	0.88740 0.28470 0.79450 -0.02200
N 	N 	0.93730 0.23610 0.95670 -0.16200
C 	C 	0.85480 0.17760 0.43500 -0.13800
C 	C 	0.92660 0.20050 0.15500 0.06200
C 	C 	0.98440 0.25040 0.83200 0.16000
H 	H 	0.82080 0.18150 0.48170 0.05300
C 	C 	0.88510 0.14200 0.56550 0.05200
C 	C 	0.95760 0.16650 0.28820 -0.12000
C 	C 	0.98590 0.27320 0.58200 -0.19700
C 	C 	0.02960 0.24110 0.96500 0.04700
C 	C 	0.86510 0.11200 0.76800 -0.09400
C 	C 	0.93600 0.13690 0.48970 0.03900
H 	H 	0.99190 0.16340 0.24480 0.07200
H 	H 	0.95560 0.27960 0.49200 0.10200
C 	C 	0.03120 0.28680 0.46400 0.13100
C 	C 	0.07580 0.25400 0.85400 -0.05700
H 	H 	0.02880 0.22570 0.13330 0.01400
H 	H 	0.83110 0.11610 0.81370 0.06100
C 	C 	0.89370 0.07620 0.90400 -0.01300
C 	C 	0.96500 0.10080 0.62600 -0.08400
C 	C 	0.07510 0.27680 0.60600 -0.16100
H 	H 	0.03220 0.30210 0.29540 0.00000
H 	H 	0.10610 0.24750 0.94300 0.06900
H 	H 	0.87970 0.05630 0.03970 0.02400
C 	C 	0.94430 0.07110 0.82820 -0.03500
H 	H 	0.99900 0.09640 0.57960 0.05800
C 	C 	0.12530 0.29200 0.47300 0.55100
H 	H 	0.96460 0.04740 0.91520 0.03600
O 	O 	0.12250 0.29960 0.22100 -0.30500
O 	O 	0.12590 0.34180 0.46200 -0.26700
C 	C 	0.99140 0.29940 0.74500 0.00300
H 	H 	0.96530 0.32300 0.76430 0.04200
C 	C 	0.03740 0.31430 0.62900 -0.05200
H 	H 	0.04280 0.34740 0.56960 0.07500
C 	C 	0.07110 0.22620 0.69100 0.13100
H 	H 	0.09710 0.20240 0.67400 -0.01600
C 	C 	0.02360 0.21550 0.80300 -0.22700
H 	H 	0.01780 0.18250 0.86250 0.10700
Zn	Zn	0.28455 0.77160 0.61760 1.22800
O 	O 	0.23240 0.72430 0.48300 -0.83900
N 	N 	0.35380 0.74520 0.57500 -0.28400
O 	O 	0.27140 0.83760 0.43500 -0.54900
H 	H 	0.22140 0.70360 0.59510 0.33500
C 	C 	0.39160 0.75940 0.42300 0.10900
C 	C 	0.37640 0.70690 0.73520 0.02800
H 	H 	0.38740 0.78470 0.29450 -0.01600
N 	N 	0.43730 0.73610 0.45670 -0.16300
C 	C 	0.35480 0.67760 0.93500 -0.09700
C 	C 	0.42660 0.70050 0.65500 0.08800
C 	C 	0.48440 0.75040 0.33200 0.13500
H 	H 	0.32080 0.68150 0.98170 0.04200
C 	C 	0.38510 0.64200 0.06550 0.00100
C 	C 	0.45760 0.66650 0.78820 -0.14900
C 	C 	0.48590 0.77320 0.08200 -0.41100
C 	C 	0.52960 0.74110 0.46500 0.17700
C 	C 	0.36510 0.61200 0.26800 -0.05200
C 	C 	0.43600 0.63690 0.98970 0.08300
H 	H 	0.49190 0.66340 0.74480 0.08300
H 	H 	0.45560 0.77960 0.99200 0.17100
C 	C 	0.53120 0.78680 0.96400 0.31500
C 	C 	0.57580 0.75400 0.35400 -0.19500
H 	H 	0.52880 0.72570 0.63330 -0.03400
H 	H 	0.33110 0.61610 0.31370 0.04000
C 	C 	0.39370 0.57620 0.40400 -0.05800
C 	C 	0.46500 0.60080 0.12600 -0.12500
C 	C 	0.57510 0.77680 0.10600 -0.10600
H 	H 	0.53220 0.80210 0.79540 -0.06700
H 	H 	0.60610 0.74750 0.44300 0.11800
H 	H 	0.37970 0.55630 0.53970 0.04200
C 	C 	0.44430 0.57110 0.32820 0.00300
H 	H 	0.49900 0.59640 0.07960 0.07300
C 	C 	0.62530 0.79200 0.97300 0.49200
H 	H 	0.46460 0.54740 0.41520 0.02300
O 	O 	0.62250 0.79960 0.72100 -0.29600
O 	O 	0.62590 0.84180 0.96200 -0.26500
C 	C 	0.49140 0.79940 0.24500 0.26000
H 	H 	0.46530 0.82300 0.26430 -0.04700
C 	C 	0.53740 0.81430 0.12900 -0.28300
H 	H 	0.54280 0.84740 0.06960 0.16100
C 	C 	0.57110 0.72620 0.19100 0.23300
H 	H 	0.59710 0.70240 0.17400 -0.04800
C 	C 	0.52360 0.71550 0.30300 -0.32500
H 	H 	0.51780 0.68250 0.36250 0.13900
