data_crystal

_cell_length_a 26.77200
_cell_length_b 26.77200
_cell_length_c 5.06620
_cell_angle_alpha 90.00000
_cell_angle_beta  90.00000
_cell_angle_gamma 90.00000

_symmetry_space_group_name_	'P 1'
_symmetry_space_group_name_H-M	'P 1'

loop_
_symmetry_equiv_pos_as_xyz
  x,y,z

loop_
_atom_site_label
_atom_site_type_symbol
_atom_site_fract_x
_atom_site_fract_y
_atom_site_fract_z
_atom_site_charge
Zn	Zn	0.21308 0.22922 0.70829 1.21500
H 	H 	0.10660 0.20770 0.94190 -0.01600
H 	H 	0.18010 0.31260 0.29050 0.02600
H 	H 	0.17240 0.37820 0.94370 0.04400
H 	H 	0.12420 0.43590 0.71220 0.04000
H 	H 	0.03930 0.44740 0.82430 0.03100
H 	H 	0.00240 0.40040 0.14750 0.05600
H 	H 	0.00670 0.33120 0.47910 0.07400
H 	H 	0.03770 0.22250 0.21420 0.09100
H 	H 	0.95950 0.20090 0.39430 0.03000
H 	H 	0.89240 0.23750 0.70760 0.02200
H 	H 	0.97040 0.25670 0.52380 0.08600
C 	C 	0.10368 0.23377 0.81570 0.10200
C 	C 	0.12192 0.28824 0.51460 0.04100
C 	C 	0.14553 0.31670 0.32620 -0.11700
C 	C 	0.11667 0.35218 0.18760 0.02900
C 	C 	0.13800 0.38204 0.98590 -0.06900
C 	C 	0.10957 0.41664 0.84940 -0.03500
C 	C 	0.05856 0.42310 0.91560 -0.02500
C 	C 	0.03663 0.39527 0.10700 -0.07900
C 	C 	0.06437 0.35820 0.24870 0.04400
C 	C 	0.04126 0.32786 0.43940 -0.12300
C 	C 	0.07051 0.29310 0.56640 0.07400
C 	C 	0.01195 0.24239 0.86060 0.14400
C 	C 	0.91952 0.21381 0.05060 -0.11400
C 	C 	0.86981 0.19891 0.16440 0.32200
C 	C 	0.00850 0.22530 0.10930 -0.15700
C 	C 	0.96220 0.21150 0.21590 0.04900
C 	C 	0.92200 0.23280 0.80770 0.06700
C 	C 	0.96810 0.24570 0.70170 -0.15800
N 	N 	0.14148 0.25085 0.67860 -0.27700
N 	N 	0.05991 0.25707 0.75920 -0.15700
O 	O 	0.25080 0.28115 0.88610 -0.66900
O 	O 	0.83166 0.21955 0.07390 -0.46700
O 	O 	0.86850 0.18330 0.41060 -0.30000
H 	H 	0.31850 0.75667 0.11390 0.17100
Zn	Zn	0.71308 0.72922 0.20829 1.21500
H 	H 	0.60660 0.70770 0.44190 -0.01500
H 	H 	0.68010 0.81260 0.79050 0.02500
H 	H 	0.67240 0.87820 0.44370 0.04300
H 	H 	0.62420 0.93590 0.21220 0.04200
H 	H 	0.53930 0.94740 0.32430 0.02900
H 	H 	0.50240 0.90040 0.64750 0.06000
H 	H 	0.50670 0.83120 0.97910 0.07500
H 	H 	0.53770 0.72250 0.71420 0.09500
H 	H 	0.45950 0.70090 0.89430 0.02800
H 	H 	0.39240 0.73750 0.20760 0.01900
H 	H 	0.47040 0.75670 0.02380 0.08700
C 	C 	0.60368 0.73377 0.31570 0.10200
C 	C 	0.62192 0.78824 0.01460 0.03200
C 	C 	0.64553 0.81670 0.82620 -0.10600
C 	C 	0.61667 0.85218 0.68760 0.02400
C 	C 	0.63800 0.88204 0.48590 -0.06300
C 	C 	0.60957 0.91664 0.34940 -0.04100
C 	C 	0.55856 0.92310 0.41560 -0.01500
C 	C 	0.53663 0.89527 0.60700 -0.08700
C 	C 	0.56437 0.85820 0.74870 0.04800
C 	C 	0.54126 0.82786 0.93940 -0.12000
C 	C 	0.57051 0.79310 0.06640 0.07200
C 	C 	0.51195 0.74239 0.36060 0.15100
C 	C 	0.41952 0.71381 0.55060 -0.12500
C 	C 	0.36981 0.69891 0.66440 0.32600
C 	C 	0.50850 0.72530 0.60930 -0.16600
C 	C 	0.46220 0.71150 0.71590 0.05700
C 	C 	0.42200 0.73280 0.30770 0.08100
C 	C 	0.46810 0.74570 0.20170 -0.16500
N 	N 	0.64148 0.75085 0.17860 -0.27700
N 	N 	0.55991 0.75707 0.25920 -0.15800
O 	O 	0.75080 0.78115 0.38610 -0.67200
O 	O 	0.33166 0.71955 0.57390 -0.47000
O 	O 	0.36850 0.68330 0.91060 -0.30200
H 	H 	0.81850 0.25667 0.61390 0.17000
Zn	Zn	0.78692 0.77078 0.70829 1.21600
H 	H 	0.89340 0.79230 0.94190 -0.01500
H 	H 	0.81990 0.68740 0.29050 0.02700
H 	H 	0.82760 0.62180 0.94370 0.04500
H 	H 	0.87580 0.56410 0.71220 0.04100
H 	H 	0.96070 0.55260 0.82430 0.03200
H 	H 	0.99760 0.59960 0.14750 0.05700
H 	H 	0.99330 0.66880 0.47910 0.07500
H 	H 	0.96230 0.77750 0.21420 0.09100
H 	H 	0.04050 0.79910 0.39430 0.03000
H 	H 	0.10760 0.76250 0.70760 0.02200
H 	H 	0.02960 0.74330 0.52380 0.08600
C 	C 	0.89632 0.76623 0.81570 0.10200
C 	C 	0.87808 0.71176 0.51460 0.04100
C 	C 	0.85447 0.68330 0.32620 -0.11700
C 	C 	0.88333 0.64782 0.18760 0.02900
C 	C 	0.86200 0.61796 0.98590 -0.06900
C 	C 	0.89043 0.58336 0.84940 -0.03500
C 	C 	0.94144 0.57690 0.91560 -0.02500
C 	C 	0.96337 0.60473 0.10700 -0.07900
C 	C 	0.93563 0.64180 0.24870 0.04400
C 	C 	0.95874 0.67214 0.43940 -0.12300
C 	C 	0.92949 0.70690 0.56640 0.07400
C 	C 	0.98805 0.75761 0.86060 0.14400
C 	C 	0.08048 0.78619 0.05060 -0.11400
C 	C 	0.13019 0.80109 0.16440 0.32200
C 	C 	0.99150 0.77470 0.10930 -0.15700
C 	C 	0.03780 0.78850 0.21590 0.04900
C 	C 	0.07800 0.76720 0.80770 0.06700
C 	C 	0.03190 0.75430 0.70170 -0.15800
N 	N 	0.85852 0.74915 0.67860 -0.27700
N 	N 	0.94009 0.74293 0.75920 -0.15700
O 	O 	0.74920 0.71885 0.88610 -0.66900
O 	O 	0.16834 0.78045 0.07390 -0.46700
O 	O 	0.13150 0.81670 0.41060 -0.30000
H 	H 	0.68150 0.24333 0.11390 0.17100
Zn	Zn	0.28692 0.27078 0.20829 1.21500
H 	H 	0.39340 0.29230 0.44190 -0.01500
H 	H 	0.31990 0.18740 0.79050 0.02500
H 	H 	0.32760 0.12180 0.44370 0.04300
H 	H 	0.37580 0.06410 0.21220 0.04200
H 	H 	0.46070 0.05260 0.32430 0.02900
H 	H 	0.49760 0.09960 0.64750 0.06000
H 	H 	0.49330 0.16880 0.97910 0.07500
H 	H 	0.46230 0.27750 0.71420 0.09500
H 	H 	0.54050 0.29910 0.89430 0.02800
H 	H 	0.60760 0.26250 0.20760 0.01900
H 	H 	0.52960 0.24330 0.02380 0.08700
C 	C 	0.39632 0.26623 0.31570 0.10200
C 	C 	0.37808 0.21176 0.01460 0.03200
C 	C 	0.35447 0.18330 0.82620 -0.10600
C 	C 	0.38333 0.14782 0.68760 0.02400
C 	C 	0.36200 0.11796 0.48590 -0.06300
C 	C 	0.39043 0.08336 0.34940 -0.04100
C 	C 	0.44144 0.07690 0.41560 -0.01500
C 	C 	0.46337 0.10473 0.60700 -0.08700
C 	C 	0.43563 0.14180 0.74870 0.04800
C 	C 	0.45874 0.17214 0.93940 -0.12000
C 	C 	0.42949 0.20690 0.06640 0.07200
C 	C 	0.48805 0.25761 0.36060 0.15100
C 	C 	0.58048 0.28619 0.55060 -0.12500
C 	C 	0.63019 0.30109 0.66440 0.32600
C 	C 	0.49150 0.27470 0.60930 -0.16600
C 	C 	0.53780 0.28850 0.71590 0.05700
C 	C 	0.57800 0.26720 0.30770 0.08100
C 	C 	0.53190 0.25430 0.20170 -0.16500
N 	N 	0.35852 0.24915 0.17860 -0.27700
N 	N 	0.44009 0.24293 0.25920 -0.15800
O 	O 	0.24920 0.21885 0.38610 -0.67200
O 	O 	0.66834 0.28045 0.57390 -0.47000
O 	O 	0.63150 0.31670 0.91060 -0.30200
H 	H 	0.18150 0.74333 0.61390 0.17000
Zn	Zn	0.22922 0.78692 0.29171 1.21600
H 	H 	0.20770 0.89340 0.05810 -0.01500
H 	H 	0.31260 0.81990 0.70950 0.02700
H 	H 	0.37820 0.82760 0.05630 0.04500
H 	H 	0.43590 0.87580 0.28780 0.04100
H 	H 	0.44740 0.96070 0.17570 0.03200
H 	H 	0.40040 0.99760 0.85250 0.05700
H 	H 	0.33120 0.99330 0.52090 0.07500
H 	H 	0.22250 0.96230 0.78580 0.09100
H 	H 	0.20090 0.04050 0.60570 0.03000
H 	H 	0.23750 0.10760 0.29240 0.02200
H 	H 	0.25670 0.02960 0.47620 0.08600
C 	C 	0.23377 0.89632 0.18430 0.10200
C 	C 	0.28824 0.87808 0.48540 0.04100
C 	C 	0.31670 0.85447 0.67380 -0.11700
C 	C 	0.35218 0.88333 0.81240 0.02900
C 	C 	0.38204 0.86200 0.01410 -0.06900
C 	C 	0.41664 0.89043 0.15060 -0.03500
C 	C 	0.42310 0.94144 0.08440 -0.02500
C 	C 	0.39527 0.96337 0.89300 -0.07900
C 	C 	0.35820 0.93563 0.75130 0.04400
C 	C 	0.32786 0.95874 0.56060 -0.12300
C 	C 	0.29310 0.92949 0.43360 0.07400
C 	C 	0.24239 0.98805 0.13940 0.14400
C 	C 	0.21381 0.08048 0.94940 -0.11400
C 	C 	0.19891 0.13019 0.83560 0.32200
C 	C 	0.22530 0.99150 0.89070 -0.15700
C 	C 	0.21150 0.03780 0.78410 0.04900
C 	C 	0.23280 0.07800 0.19230 0.06700
C 	C 	0.24570 0.03190 0.29830 -0.15800
N 	N 	0.25085 0.85852 0.32140 -0.27700
N 	N 	0.25707 0.94009 0.24080 -0.15700
O 	O 	0.28115 0.74920 0.11390 -0.66900
O 	O 	0.21955 0.16834 0.92610 -0.46700
O 	O 	0.18330 0.13150 0.58940 -0.30000
H 	H 	0.75667 0.68150 0.88610 0.17100
Zn	Zn	0.72922 0.28692 0.79171 1.21500
H 	H 	0.70770 0.39340 0.55810 -0.01500
H 	H 	0.81260 0.31990 0.20950 0.02500
H 	H 	0.87820 0.32760 0.55630 0.04300
H 	H 	0.93590 0.37580 0.78780 0.04200
H 	H 	0.94740 0.46070 0.67570 0.02900
H 	H 	0.90040 0.49760 0.35250 0.06000
H 	H 	0.83120 0.49330 0.02090 0.07500
H 	H 	0.72250 0.46230 0.28580 0.09500
H 	H 	0.70090 0.54050 0.10570 0.02800
H 	H 	0.73750 0.60760 0.79240 0.01900
H 	H 	0.75670 0.52960 0.97620 0.08700
C 	C 	0.73377 0.39632 0.68430 0.10200
C 	C 	0.78824 0.37808 0.98540 0.03200
C 	C 	0.81670 0.35447 0.17380 -0.10600
C 	C 	0.85218 0.38333 0.31240 0.02400
C 	C 	0.88204 0.36200 0.51410 -0.06300
C 	C 	0.91664 0.39043 0.65060 -0.04100
C 	C 	0.92310 0.44144 0.58440 -0.01500
C 	C 	0.89527 0.46337 0.39300 -0.08700
C 	C 	0.85820 0.43563 0.25130 0.04800
C 	C 	0.82786 0.45874 0.06060 -0.12000
C 	C 	0.79310 0.42949 0.93360 0.07200
C 	C 	0.74239 0.48805 0.63940 0.15100
C 	C 	0.71381 0.58048 0.44940 -0.12500
C 	C 	0.69891 0.63019 0.33560 0.32600
C 	C 	0.72530 0.49150 0.39070 -0.16600
C 	C 	0.71150 0.53780 0.28410 0.05700
C 	C 	0.73280 0.57800 0.69230 0.08100
C 	C 	0.74570 0.53190 0.79830 -0.16500
N 	N 	0.75085 0.35852 0.82140 -0.27700
N 	N 	0.75707 0.44009 0.74080 -0.15800
O 	O 	0.78115 0.24920 0.61390 -0.67200
O 	O 	0.71955 0.66834 0.42610 -0.47000
O 	O 	0.68330 0.63150 0.08940 -0.30200
H 	H 	0.25667 0.18150 0.38610 0.17000
Zn	Zn	0.77078 0.21308 0.29171 1.21600
H 	H 	0.79230 0.10660 0.05810 -0.01500
H 	H 	0.68740 0.18010 0.70950 0.02700
H 	H 	0.62180 0.17240 0.05630 0.04500
H 	H 	0.56410 0.12420 0.28780 0.04100
H 	H 	0.55260 0.03930 0.17570 0.03200
H 	H 	0.59960 0.00240 0.85250 0.05700
H 	H 	0.66880 0.00670 0.52090 0.07500
H 	H 	0.77750 0.03770 0.78580 0.09100
H 	H 	0.79910 0.95950 0.60570 0.03000
H 	H 	0.76250 0.89240 0.29240 0.02200
H 	H 	0.74330 0.97040 0.47620 0.08600
C 	C 	0.76623 0.10368 0.18430 0.10200
C 	C 	0.71176 0.12192 0.48540 0.04100
C 	C 	0.68330 0.14553 0.67380 -0.11700
C 	C 	0.64782 0.11667 0.81240 0.02900
C 	C 	0.61796 0.13800 0.01410 -0.06900
C 	C 	0.58336 0.10957 0.15060 -0.03500
C 	C 	0.57690 0.05856 0.08440 -0.02500
C 	C 	0.60473 0.03663 0.89300 -0.07900
C 	C 	0.64180 0.06437 0.75130 0.04400
C 	C 	0.67214 0.04126 0.56060 -0.12300
C 	C 	0.70690 0.07051 0.43360 0.07400
C 	C 	0.75761 0.01195 0.13940 0.14400
C 	C 	0.78619 0.91952 0.94940 -0.11400
C 	C 	0.80109 0.86981 0.83560 0.32200
C 	C 	0.77470 0.00850 0.89070 -0.15700
C 	C 	0.78850 0.96220 0.78410 0.04900
C 	C 	0.76720 0.92200 0.19230 0.06700
C 	C 	0.75430 0.96810 0.29830 -0.15800
N 	N 	0.74915 0.14148 0.32140 -0.27700
N 	N 	0.74293 0.05991 0.24080 -0.15700
O 	O 	0.71885 0.25080 0.11390 -0.66900
O 	O 	0.78045 0.83166 0.92610 -0.46700
O 	O 	0.81670 0.86850 0.58940 -0.30000
H 	H 	0.24333 0.31850 0.88610 0.17100
Zn	Zn	0.27078 0.71308 0.79171 1.21500
H 	H 	0.29230 0.60660 0.55810 -0.01500
H 	H 	0.18740 0.68010 0.20950 0.02500
H 	H 	0.12180 0.67240 0.55630 0.04300
H 	H 	0.06410 0.62420 0.78780 0.04200
H 	H 	0.05260 0.53930 0.67570 0.02900
H 	H 	0.09960 0.50240 0.35250 0.06000
H 	H 	0.16880 0.50670 0.02090 0.07500
H 	H 	0.27750 0.53770 0.28580 0.09500
H 	H 	0.29910 0.45950 0.10570 0.02800
H 	H 	0.26250 0.39240 0.79240 0.01900
H 	H 	0.24330 0.47040 0.97620 0.08700
C 	C 	0.26623 0.60368 0.68430 0.10200
C 	C 	0.21176 0.62192 0.98540 0.03200
C 	C 	0.18330 0.64553 0.17380 -0.10600
C 	C 	0.14782 0.61667 0.31240 0.02400
C 	C 	0.11796 0.63800 0.51410 -0.06300
C 	C 	0.08336 0.60957 0.65060 -0.04100
C 	C 	0.07690 0.55856 0.58440 -0.01500
C 	C 	0.10473 0.53663 0.39300 -0.08700
C 	C 	0.14180 0.56437 0.25130 0.04800
C 	C 	0.17214 0.54126 0.06060 -0.12000
C 	C 	0.20690 0.57051 0.93360 0.07200
C 	C 	0.25761 0.51195 0.63940 0.15100
C 	C 	0.28619 0.41952 0.44940 -0.12500
C 	C 	0.30109 0.36981 0.33560 0.32600
C 	C 	0.27470 0.50850 0.39070 -0.16600
C 	C 	0.28850 0.46220 0.28410 0.05700
C 	C 	0.26720 0.42200 0.69230 0.08100
C 	C 	0.25430 0.46810 0.79830 -0.16500
N 	N 	0.24915 0.64148 0.82140 -0.27700
N 	N 	0.24293 0.55991 0.74080 -0.15800
O 	O 	0.21885 0.75080 0.61390 -0.67200
O 	O 	0.28045 0.33166 0.42610 -0.47000
O 	O 	0.31670 0.36850 0.08940 -0.30200
H 	H 	0.74333 0.81850 0.38610 0.17000
