data_crystal

_cell_length_a 9.24200
_cell_length_b 12.25190
_cell_length_c 14.48350
_cell_angle_alpha 94.95300
_cell_angle_beta  103.20700
_cell_angle_gamma 97.46200

_symmetry_space_group_name_	'P 1'
_symmetry_space_group_name_H-M	'P 1'

loop_
_symmetry_equiv_pos_as_xyz
  x,y,z

loop_
_atom_site_label
_atom_site_type_symbol
_atom_site_fract_x
_atom_site_fract_y
_atom_site_fract_z
_atom_site_charge
Gd	Gd	0.75059 0.25388 0.75686 1.00800
Gd	Gd	0.24941 0.74612 0.24314 1.00800
Re	Re	0.50632 0.61380 0.77613 0.22500
Re	Re	0.35804 0.73143 0.87766 0.22200
Re	Re	0.20504 0.58568 0.72816 0.22100
Re	Re	0.36138 0.68651 0.61646 0.22300
Re	Re	0.51528 0.83215 0.76639 0.22300
Re	Re	0.21362 0.80420 0.71731 0.22800
Re	Re	0.49368 0.38620 0.22387 0.22400
Re	Re	0.64196 0.26857 0.12234 0.22100
Re	Re	0.79496 0.41432 0.27184 0.22100
Re	Re	0.63862 0.31349 0.38354 0.22300
Re	Re	0.48472 0.16785 0.23361 0.22300
Re	Re	0.78638 0.19580 0.28269 0.22800
Te	Te	0.35025 0.51276 0.88898 -0.11500
Te	Te	0.66124 0.75979 0.92720 -0.10900
Te	Te	0.05414 0.70402 0.82886 -0.10800
Te	Te	0.35160 0.46760 0.62470 -0.10700
Te	Te	0.66498 0.71430 0.66411 -0.09800
Te	Te	0.36757 0.95083 0.86895 -0.11200
Te	Te	0.05724 0.65600 0.56712 -0.10000
Te	Te	0.37412 0.90564 0.60622 -0.12900
Te	Te	0.64975 0.48724 0.11102 -0.11500
Te	Te	0.33876 0.24021 0.07280 -0.10900
Te	Te	0.94586 0.29598 0.17114 -0.10800
Te	Te	0.64840 0.53240 0.37530 -0.10700
Te	Te	0.33502 0.28570 0.33589 -0.09800
Te	Te	0.63243 0.04917 0.13105 -0.11200
Te	Te	0.94276 0.34400 0.43288 -0.10000
Te	Te	0.62588 0.09436 0.39378 -0.12900
C 	C 	0.66240 0.50690 0.80880 -0.06500
C 	C 	0.35220 0.75350 0.02170 -0.05000
C 	C 	0.04200 0.44710 0.71460 -0.05300
C 	C 	0.36100 0.67250 0.47290 -0.06600
C 	C 	0.67380 0.97400 0.78320 -0.06000
C 	C 	0.05390 0.90970 0.67710 -0.06700
C 	C 	0.33760 0.49310 0.19120 -0.06500
C 	C 	0.64780 0.24650 0.97830 -0.05000
C 	C 	0.95800 0.55290 0.28540 -0.05300
C 	C 	0.63900 0.32750 0.52710 -0.06600
C 	C 	0.32620 0.02600 0.21680 -0.06000
C 	C 	0.94610 0.09030 0.32290 -0.06700
N 	N 	0.74540 0.44390 0.82410 -0.19000
N 	N 	0.34300 0.76260 0.09830 -0.20200
N 	N 	0.95650 0.36990 0.71230 -0.19900
N 	N 	0.35640 0.67070 0.39140 -0.19800
N 	N 	0.74810 0.05870 0.79070 -0.20100
N 	N 	0.96910 0.96870 0.65380 -0.12000
N 	N 	0.25460 0.55610 0.17590 -0.19000
N 	N 	0.65700 0.23740 0.90170 -0.20200
N 	N 	0.04350 0.63010 0.28770 -0.19900
N 	N 	0.64360 0.32930 0.60860 -0.19800
N 	N 	0.25190 0.94130 0.20930 -0.20100
N 	N 	0.03090 0.03130 0.34620 -0.12000
