data_crystal

_cell_length_a 26.74200
_cell_length_b 26.74200
_cell_length_c 5.15040
_cell_angle_alpha 90.00000
_cell_angle_beta  90.00000
_cell_angle_gamma 90.00000

_symmetry_space_group_name_	'P 1'
_symmetry_space_group_name_H-M	'P 1'

loop_
_symmetry_equiv_pos_as_xyz
  x,y,z

loop_
_atom_site_label
_atom_site_type_symbol
_atom_site_fract_x
_atom_site_fract_y
_atom_site_fract_z
_atom_site_charge
Zn	Zn	0.72947 0.28654 0.79226 1.21700
O 	O 	0.78008 0.24716 0.61770 -0.56700
C 	C 	0.73597 0.39578 0.67410 0.10600
H 	H 	0.71060 0.39270 0.54600 -0.01200
O 	O 	0.72123 0.66856 0.42030 -0.48000
N 	N 	0.75236 0.35822 0.81220 -0.27200
C 	C 	0.78961 0.37759 0.97770 0.03700
N 	N 	0.75896 0.43994 0.73250 -0.16500
C 	C 	0.81692 0.35445 0.16510 -0.10900
H 	H 	0.81240 0.31990 0.20210 0.03200
C 	C 	0.85222 0.38336 0.30290 0.02800
C 	C 	0.88182 0.36224 0.50540 -0.07100
H 	H 	0.87800 0.32780 0.54700 0.05200
C 	C 	0.91559 0.39048 0.64110 -0.03400
H 	H 	0.93460 0.37590 0.77720 0.03500
C 	C 	0.92202 0.44205 0.57640 -0.02100
H 	H 	0.94570 0.46160 0.66950 0.03000
C 	C 	0.89505 0.46332 0.38550 -0.08700
H 	H 	0.90050 0.49750 0.34400 0.05700
C 	C 	0.85818 0.43561 0.24330 0.04400
C 	C 	0.82871 0.45871 0.05330 -0.12400
H 	H 	0.83230 0.49320 0.01430 0.07200
C 	C 	0.79468 0.42969 0.92670 0.07300
C 	C 	0.74518 0.48756 0.62810 0.18700
C 	C 	0.71761 0.58052 0.43500 -0.15200
C 	C 	0.70260 0.63023 0.32430 0.40700
O 	O 	0.68740 0.63020 0.07580 -0.18900
C 	C 	0.72860 0.49050 0.38120 -0.06300
H 	H 	0.72590 0.46100 0.27930 0.05800
C 	C 	0.71510 0.53710 0.27330 -0.01900
H 	H 	0.70470 0.53960 0.09750 0.04900
C 	C 	0.73470 0.57770 0.67830 -0.02400
H 	H 	0.73820 0.60740 0.77800 0.06400
C 	C 	0.74760 0.53170 0.78820 -0.05600
H 	H 	0.75770 0.52950 0.96460 0.04900
O 	O 	0.66110 0.63292 0.21450 -0.20800
C 	C 	0.69530 0.49440 0.56250 -0.16100
H 	H 	0.67170 0.46810 0.58050 0.09300
C 	C 	0.68140 0.54060 0.47040 0.09400
H 	H 	0.64730 0.54660 0.42900 0.01600
C 	C 	0.76500 0.57180 0.51080 0.10200
H 	H 	0.78860 0.59840 0.51020 -0.00300
C 	C 	0.78020 0.52410 0.59050 -0.17000
H 	H 	0.81460 0.51710 0.61820 0.08600
Zn	Zn	0.22947 0.78654 0.29226 1.21700
O 	O 	0.28008 0.74716 0.11770 -0.56400
C 	C 	0.23597 0.89578 0.17410 0.10600
H 	H 	0.21060 0.89270 0.04600 -0.01200
O 	O 	0.22123 0.16856 0.92030 -0.47700
N 	N 	0.25236 0.85822 0.31220 -0.27200
C 	C 	0.28961 0.87759 0.47770 0.04400
N 	N 	0.25896 0.93994 0.23250 -0.16500
C 	C 	0.31692 0.85445 0.66510 -0.11800
H 	H 	0.31240 0.81990 0.70210 0.03300
C 	C 	0.35222 0.88336 0.80290 0.03000
C 	C 	0.38182 0.86224 0.00540 -0.07300
H 	H 	0.37800 0.82780 0.04700 0.05300
C 	C 	0.41559 0.89048 0.14110 -0.03100
H 	H 	0.43460 0.87590 0.27720 0.03500
C 	C 	0.42202 0.94205 0.07640 -0.02500
H 	H 	0.44570 0.96160 0.16950 0.03200
C 	C 	0.39505 0.96332 0.88550 -0.08300
H 	H 	0.40050 0.99750 0.84400 0.05600
C 	C 	0.35818 0.93561 0.74330 0.04300
C 	C 	0.32871 0.95871 0.55330 -0.12800
H 	H 	0.33230 0.99320 0.51430 0.07300
C 	C 	0.29468 0.92969 0.42670 0.07500
C 	C 	0.24518 0.98756 0.12810 0.18500
C 	C 	0.21761 0.08052 0.93500 -0.14400
C 	C 	0.20260 0.13023 0.82430 0.40500
O 	O 	0.18740 0.13020 0.57580 -0.18800
C 	C 	0.22860 0.99050 0.88120 -0.05000
H 	H 	0.22590 0.96100 0.77930 0.05200
C 	C 	0.21510 0.03710 0.77330 -0.03100
H 	H 	0.20470 0.03960 0.59750 0.05300
C 	C 	0.23470 0.07770 0.17830 -0.03700
H 	H 	0.23820 0.10740 0.27800 0.06700
C 	C 	0.24760 0.03170 0.28820 -0.04800
H 	H 	0.25770 0.02950 0.46460 0.04600
O 	O 	0.16110 0.13292 0.71450 -0.20800
C 	C 	0.19530 0.99440 0.06250 -0.17300
H 	H 	0.17170 0.96810 0.08050 0.09600
C 	C 	0.18140 0.04060 0.97040 0.10300
H 	H 	0.14730 0.04660 0.92900 0.01300
C 	C 	0.26500 0.07180 0.01080 0.10600
H 	H 	0.28860 0.09840 0.01020 -0.00600
C 	C 	0.28020 0.02410 0.09050 -0.17600
H 	H 	0.31460 0.01710 0.11820 0.08800
Zn	Zn	0.27053 0.71346 0.79226 1.21600
O 	O 	0.21992 0.75284 0.61770 -0.56800
C 	C 	0.26403 0.60422 0.67410 0.10500
H 	H 	0.28940 0.60730 0.54600 -0.01300
O 	O 	0.27877 0.33144 0.42030 -0.48000
N 	N 	0.24764 0.64178 0.81220 -0.27200
C 	C 	0.21039 0.62241 0.97770 0.03700
N 	N 	0.24104 0.56006 0.73250 -0.16500
C 	C 	0.18308 0.64555 0.16510 -0.10900
H 	H 	0.18760 0.68010 0.20210 0.03200
C 	C 	0.14778 0.61664 0.30290 0.02800
C 	C 	0.11818 0.63776 0.50540 -0.07100
H 	H 	0.12200 0.67220 0.54700 0.05200
C 	C 	0.08441 0.60952 0.64110 -0.03400
H 	H 	0.06540 0.62410 0.77720 0.03500
C 	C 	0.07798 0.55795 0.57640 -0.02100
H 	H 	0.05430 0.53840 0.66950 0.03000
C 	C 	0.10495 0.53668 0.38550 -0.08700
H 	H 	0.09950 0.50250 0.34400 0.05700
C 	C 	0.14182 0.56439 0.24330 0.04400
C 	C 	0.17129 0.54129 0.05330 -0.12400
H 	H 	0.16770 0.50680 0.01430 0.07200
C 	C 	0.20532 0.57031 0.92670 0.07300
C 	C 	0.25482 0.51244 0.62810 0.18700
C 	C 	0.28239 0.41948 0.43500 -0.15200
C 	C 	0.29740 0.36977 0.32430 0.40700
O 	O 	0.31260 0.36980 0.07580 -0.18900
C 	C 	0.27140 0.50950 0.38120 -0.06300
H 	H 	0.27410 0.53900 0.27930 0.05800
C 	C 	0.28490 0.46290 0.27330 -0.01900
H 	H 	0.29530 0.46040 0.09750 0.04900
C 	C 	0.26530 0.42230 0.67830 -0.02400
H 	H 	0.26180 0.39260 0.77800 0.06400
C 	C 	0.25240 0.46830 0.78820 -0.05600
H 	H 	0.24230 0.47050 0.96460 0.04900
O 	O 	0.33890 0.36708 0.21450 -0.20800
C 	C 	0.30470 0.50560 0.56250 -0.16100
H 	H 	0.32830 0.53190 0.58050 0.09300
C 	C 	0.31860 0.45940 0.47040 0.09400
H 	H 	0.35270 0.45340 0.42900 0.01600
C 	C 	0.23500 0.42820 0.51080 0.10200
H 	H 	0.21140 0.40160 0.51020 -0.00300
C 	C 	0.21980 0.47590 0.59050 -0.17000
H 	H 	0.18540 0.48290 0.61820 0.08600
Zn	Zn	0.77053 0.21346 0.29226 1.21700
O 	O 	0.71992 0.25284 0.11770 -0.56400
C 	C 	0.76403 0.10422 0.17410 0.10600
H 	H 	0.78940 0.10730 0.04600 -0.01200
O 	O 	0.77877 0.83144 0.92030 -0.47700
N 	N 	0.74764 0.14178 0.31220 -0.27200
C 	C 	0.71039 0.12241 0.47770 0.04400
N 	N 	0.74104 0.06006 0.23250 -0.16500
C 	C 	0.68308 0.14555 0.66510 -0.11800
H 	H 	0.68760 0.18010 0.70210 0.03300
C 	C 	0.64778 0.11664 0.80290 0.03000
C 	C 	0.61818 0.13776 0.00540 -0.07300
H 	H 	0.62200 0.17220 0.04700 0.05300
C 	C 	0.58441 0.10952 0.14110 -0.03100
H 	H 	0.56540 0.12410 0.27720 0.03500
C 	C 	0.57798 0.05795 0.07640 -0.02500
H 	H 	0.55430 0.03840 0.16950 0.03200
C 	C 	0.60495 0.03668 0.88550 -0.08300
H 	H 	0.59950 0.00250 0.84400 0.05600
C 	C 	0.64182 0.06439 0.74330 0.04300
C 	C 	0.67129 0.04129 0.55330 -0.12800
H 	H 	0.66770 0.00680 0.51430 0.07300
C 	C 	0.70532 0.07031 0.42670 0.07500
C 	C 	0.75482 0.01244 0.12810 0.18500
C 	C 	0.78239 0.91948 0.93500 -0.14400
C 	C 	0.79740 0.86977 0.82430 0.40500
O 	O 	0.81260 0.86980 0.57580 -0.18800
C 	C 	0.77140 0.00950 0.88120 -0.05000
H 	H 	0.77410 0.03900 0.77930 0.05200
C 	C 	0.78490 0.96290 0.77330 -0.03100
H 	H 	0.79530 0.96040 0.59750 0.05300
C 	C 	0.76530 0.92230 0.17830 -0.03700
H 	H 	0.76180 0.89260 0.27800 0.06700
C 	C 	0.75240 0.96830 0.28820 -0.04800
H 	H 	0.74230 0.97050 0.46460 0.04600
O 	O 	0.83890 0.86708 0.71450 -0.20800
C 	C 	0.80470 0.00560 0.06250 -0.17300
H 	H 	0.82830 0.03190 0.08050 0.09600
C 	C 	0.81860 0.95940 0.97040 0.10300
H 	H 	0.85270 0.95340 0.92900 0.01300
C 	C 	0.73500 0.92820 0.01080 0.10600
H 	H 	0.71140 0.90160 0.01020 -0.00600
C 	C 	0.71980 0.97590 0.09050 -0.17600
H 	H 	0.68540 0.98290 0.11820 0.08800
Zn	Zn	0.28654 0.27053 0.20774 1.21600
O 	O 	0.24716 0.21992 0.38230 -0.56800
C 	C 	0.39578 0.26403 0.32590 0.10500
H 	H 	0.39270 0.28940 0.45400 -0.01300
O 	O 	0.66856 0.27877 0.57970 -0.48000
N 	N 	0.35822 0.24764 0.18780 -0.27200
C 	C 	0.37759 0.21039 0.02230 0.03700
N 	N 	0.43994 0.24104 0.26750 -0.16500
C 	C 	0.35445 0.18308 0.83490 -0.10900
H 	H 	0.31990 0.18760 0.79790 0.03200
C 	C 	0.38336 0.14778 0.69710 0.02800
C 	C 	0.36224 0.11818 0.49460 -0.07100
H 	H 	0.32780 0.12200 0.45300 0.05200
C 	C 	0.39048 0.08441 0.35890 -0.03400
H 	H 	0.37590 0.06540 0.22280 0.03500
C 	C 	0.44205 0.07798 0.42360 -0.02100
H 	H 	0.46160 0.05430 0.33050 0.03000
C 	C 	0.46332 0.10495 0.61450 -0.08700
H 	H 	0.49750 0.09950 0.65600 0.05700
C 	C 	0.43561 0.14182 0.75670 0.04400
C 	C 	0.45871 0.17129 0.94670 -0.12400
H 	H 	0.49320 0.16770 0.98570 0.07200
C 	C 	0.42969 0.20532 0.07330 0.07300
C 	C 	0.48756 0.25482 0.37190 0.18700
C 	C 	0.58052 0.28239 0.56500 -0.15200
C 	C 	0.63023 0.29740 0.67570 0.40700
O 	O 	0.63020 0.31260 0.92420 -0.18900
C 	C 	0.49050 0.27140 0.61880 -0.06300
H 	H 	0.46100 0.27410 0.72070 0.05800
C 	C 	0.53710 0.28490 0.72670 -0.01900
H 	H 	0.53960 0.29530 0.90250 0.04900
C 	C 	0.57770 0.26530 0.32170 -0.02400
H 	H 	0.60740 0.26180 0.22200 0.06400
C 	C 	0.53170 0.25240 0.21180 -0.05600
H 	H 	0.52950 0.24230 0.03540 0.04900
O 	O 	0.63292 0.33890 0.78550 -0.20800
C 	C 	0.49440 0.30470 0.43750 -0.16100
H 	H 	0.46810 0.32830 0.41950 0.09300
C 	C 	0.54060 0.31860 0.52960 0.09400
H 	H 	0.54660 0.35270 0.57100 0.01600
C 	C 	0.57180 0.23500 0.48920 0.10200
H 	H 	0.59840 0.21140 0.48980 -0.00300
C 	C 	0.52410 0.21980 0.40950 -0.17000
H 	H 	0.51710 0.18540 0.38180 0.08600
Zn	Zn	0.78654 0.77053 0.70774 1.21700
O 	O 	0.74716 0.71992 0.88230 -0.56400
C 	C 	0.89578 0.76403 0.82590 0.10600
H 	H 	0.89270 0.78940 0.95400 -0.01200
O 	O 	0.16856 0.77877 0.07970 -0.47700
N 	N 	0.85822 0.74764 0.68780 -0.27200
C 	C 	0.87759 0.71039 0.52230 0.04400
N 	N 	0.93994 0.74104 0.76750 -0.16500
C 	C 	0.85445 0.68308 0.33490 -0.11800
H 	H 	0.81990 0.68760 0.29790 0.03300
C 	C 	0.88336 0.64778 0.19710 0.03000
C 	C 	0.86224 0.61818 0.99460 -0.07300
H 	H 	0.82780 0.62200 0.95300 0.05300
C 	C 	0.89048 0.58441 0.85890 -0.03100
H 	H 	0.87590 0.56540 0.72280 0.03500
C 	C 	0.94205 0.57798 0.92360 -0.02500
H 	H 	0.96160 0.55430 0.83050 0.03200
C 	C 	0.96332 0.60495 0.11450 -0.08300
H 	H 	0.99750 0.59950 0.15600 0.05600
C 	C 	0.93561 0.64182 0.25670 0.04300
C 	C 	0.95871 0.67129 0.44670 -0.12800
H 	H 	0.99320 0.66770 0.48570 0.07300
C 	C 	0.92969 0.70532 0.57330 0.07500
C 	C 	0.98756 0.75482 0.87190 0.18500
C 	C 	0.08052 0.78239 0.06500 -0.14400
C 	C 	0.13023 0.79740 0.17570 0.40500
O 	O 	0.13020 0.81260 0.42420 -0.18800
C 	C 	0.99050 0.77140 0.11880 -0.05000
H 	H 	0.96100 0.77410 0.22070 0.05200
C 	C 	0.03710 0.78490 0.22670 -0.03100
H 	H 	0.03960 0.79530 0.40250 0.05300
C 	C 	0.07770 0.76530 0.82170 -0.03700
H 	H 	0.10740 0.76180 0.72200 0.06700
C 	C 	0.03170 0.75240 0.71180 -0.04800
H 	H 	0.02950 0.74230 0.53540 0.04600
O 	O 	0.13292 0.83890 0.28550 -0.20800
C 	C 	0.99440 0.80470 0.93750 -0.17300
H 	H 	0.96810 0.82830 0.91950 0.09600
C 	C 	0.04060 0.81860 0.02960 0.10300
H 	H 	0.04660 0.85270 0.07100 0.01300
C 	C 	0.07180 0.73500 0.98920 0.10600
H 	H 	0.09840 0.71140 0.98980 -0.00600
C 	C 	0.02410 0.71980 0.90950 -0.17600
H 	H 	0.01710 0.68540 0.88180 0.08800
Zn	Zn	0.71346 0.72947 0.20774 1.21600
O 	O 	0.75284 0.78008 0.38230 -0.56800
C 	C 	0.60422 0.73597 0.32590 0.10500
H 	H 	0.60730 0.71060 0.45400 -0.01300
O 	O 	0.33144 0.72123 0.57970 -0.48000
N 	N 	0.64178 0.75236 0.18780 -0.27200
C 	C 	0.62241 0.78961 0.02230 0.03700
N 	N 	0.56006 0.75896 0.26750 -0.16500
C 	C 	0.64555 0.81692 0.83490 -0.10900
H 	H 	0.68010 0.81240 0.79790 0.03200
C 	C 	0.61664 0.85222 0.69710 0.02800
C 	C 	0.63776 0.88182 0.49460 -0.07100
H 	H 	0.67220 0.87800 0.45300 0.05200
C 	C 	0.60952 0.91559 0.35890 -0.03400
H 	H 	0.62410 0.93460 0.22280 0.03500
C 	C 	0.55795 0.92202 0.42360 -0.02100
H 	H 	0.53840 0.94570 0.33050 0.03000
C 	C 	0.53668 0.89505 0.61450 -0.08700
H 	H 	0.50250 0.90050 0.65600 0.05700
C 	C 	0.56439 0.85818 0.75670 0.04400
C 	C 	0.54129 0.82871 0.94670 -0.12400
H 	H 	0.50680 0.83230 0.98570 0.07200
C 	C 	0.57031 0.79468 0.07330 0.07300
C 	C 	0.51244 0.74518 0.37190 0.18700
C 	C 	0.41948 0.71761 0.56500 -0.15200
C 	C 	0.36977 0.70260 0.67570 0.40700
O 	O 	0.36980 0.68740 0.92420 -0.18900
C 	C 	0.50950 0.72860 0.61880 -0.06300
H 	H 	0.53900 0.72590 0.72070 0.05800
C 	C 	0.46290 0.71510 0.72670 -0.01900
H 	H 	0.46040 0.70470 0.90250 0.04900
C 	C 	0.42230 0.73470 0.32170 -0.02400
H 	H 	0.39260 0.73820 0.22200 0.06400
C 	C 	0.46830 0.74760 0.21180 -0.05600
H 	H 	0.47050 0.75770 0.03540 0.04900
O 	O 	0.36708 0.66110 0.78550 -0.20800
C 	C 	0.50560 0.69530 0.43750 -0.16100
H 	H 	0.53190 0.67170 0.41950 0.09300
C 	C 	0.45940 0.68140 0.52960 0.09400
H 	H 	0.45340 0.64730 0.57100 0.01600
C 	C 	0.42820 0.76500 0.48920 0.10200
H 	H 	0.40160 0.78860 0.48980 -0.00300
C 	C 	0.47590 0.78020 0.40950 -0.17000
H 	H 	0.48290 0.81460 0.38180 0.08600
Zn	Zn	0.21346 0.22947 0.70774 1.21700
O 	O 	0.25284 0.28008 0.88230 -0.56400
C 	C 	0.10422 0.23597 0.82590 0.10600
H 	H 	0.10730 0.21060 0.95400 -0.01200
O 	O 	0.83144 0.22123 0.07970 -0.47700
N 	N 	0.14178 0.25236 0.68780 -0.27200
C 	C 	0.12241 0.28961 0.52230 0.04400
N 	N 	0.06006 0.25896 0.76750 -0.16500
C 	C 	0.14555 0.31692 0.33490 -0.11800
H 	H 	0.18010 0.31240 0.29790 0.03300
C 	C 	0.11664 0.35222 0.19710 0.03000
C 	C 	0.13776 0.38182 0.99460 -0.07300
H 	H 	0.17220 0.37800 0.95300 0.05300
C 	C 	0.10952 0.41559 0.85890 -0.03100
H 	H 	0.12410 0.43460 0.72280 0.03500
C 	C 	0.05795 0.42202 0.92360 -0.02500
H 	H 	0.03840 0.44570 0.83050 0.03200
C 	C 	0.03668 0.39505 0.11450 -0.08300
H 	H 	0.00250 0.40050 0.15600 0.05600
C 	C 	0.06439 0.35818 0.25670 0.04300
C 	C 	0.04129 0.32871 0.44670 -0.12800
H 	H 	0.00680 0.33230 0.48570 0.07300
C 	C 	0.07031 0.29468 0.57330 0.07500
C 	C 	0.01244 0.24518 0.87190 0.18500
C 	C 	0.91948 0.21761 0.06500 -0.14400
C 	C 	0.86977 0.20260 0.17570 0.40500
O 	O 	0.86980 0.18740 0.42420 -0.18800
C 	C 	0.00950 0.22860 0.11880 -0.05000
H 	H 	0.03900 0.22590 0.22070 0.05200
C 	C 	0.96290 0.21510 0.22670 -0.03100
H 	H 	0.96040 0.20470 0.40250 0.05300
C 	C 	0.92230 0.23470 0.82170 -0.03700
H 	H 	0.89260 0.23820 0.72200 0.06700
C 	C 	0.96830 0.24760 0.71180 -0.04800
H 	H 	0.97050 0.25770 0.53540 0.04600
O 	O 	0.86708 0.16110 0.28550 -0.20800
C 	C 	0.00560 0.19530 0.93750 -0.17300
H 	H 	0.03190 0.17170 0.91950 0.09600
C 	C 	0.95940 0.18140 0.02960 0.10300
H 	H 	0.95340 0.14730 0.07100 0.01300
C 	C 	0.92820 0.26500 0.98920 0.10600
H 	H 	0.90160 0.28860 0.98980 -0.00600
C 	C 	0.97590 0.28020 0.90950 -0.17600
H 	H 	0.98290 0.31460 0.88180 0.08800
