data_crystal

_cell_length_a 14.82900
_cell_length_b 16.14650
_cell_length_c 19.28200
_cell_angle_alpha 90.00000
_cell_angle_beta  91.27000
_cell_angle_gamma 90.00000

_symmetry_space_group_name_	'P 1'
_symmetry_space_group_name_H-M	'P 1'

loop_
_symmetry_equiv_pos_as_xyz
  x,y,z

loop_
_atom_site_label
_atom_site_type_symbol
_atom_site_fract_x
_atom_site_fract_y
_atom_site_fract_z
_atom_site_charge
Cd	Cd	0.77057 0.37456 0.43507 1.15100
Cd	Cd	0.72907 0.63149 0.93937 1.15300
Cd	Cd	0.22943 0.87456 0.06493 1.15100
Cd	Cd	0.27093 0.13149 0.56063 1.15400
Cd	Cd	0.22943 0.62544 0.56493 1.15200
Cd	Cd	0.27093 0.36851 0.06063 1.15400
Cd	Cd	0.77057 0.12544 0.93507 1.15100
Cd	Cd	0.72907 0.86851 0.43937 1.15400
Hg	Hg	0.63073 0.62228 0.65365 -0.03000
Hg	Hg	0.87973 0.37879 0.15394 -0.03000
Hg	Hg	0.36927 0.12228 0.84635 -0.03000
Hg	Hg	0.12027 0.87879 0.34606 -0.03200
Hg	Hg	0.36927 0.37772 0.34635 -0.03000
Hg	Hg	0.12027 0.62121 0.84606 -0.03000
Hg	Hg	0.63073 0.87772 0.15365 -0.03000
Hg	Hg	0.87973 0.12121 0.65394 -0.03200
C 	C 	0.76270 0.27370 0.59070 0.08300
C 	C 	0.64030 0.52820 0.50900 0.09500
C 	C 	0.42270 0.67500 0.65950 0.09400
C 	C 	0.79890 0.47210 0.27890 0.08900
C 	C 	0.68960 0.52390 0.79000 0.08600
C 	C 	0.90940 0.65700 0.83170 0.09200
C 	C 	0.86350 0.47910 0.01160 0.09300
C 	C 	0.76250 0.75470 0.58500 0.08500
C 	C 	0.23730 0.77370 0.90930 0.08300
C 	C 	0.35970 0.02820 0.99100 0.09600
C 	C 	0.57730 0.17500 0.84050 0.09400
C 	C 	0.20110 0.97210 0.22110 0.08700
C 	C 	0.31040 0.02390 0.71000 0.08600
C 	C 	0.09060 0.15700 0.66830 0.09200
C 	C 	0.13650 0.97910 0.48840 0.09000
C 	C 	0.23750 0.25470 0.91500 0.08500
C 	C 	0.23730 0.72630 0.40930 0.08300
C 	C 	0.35970 0.47180 0.49100 0.09500
C 	C 	0.57730 0.32500 0.34050 0.09400
C 	C 	0.20110 0.52790 0.72110 0.08900
C 	C 	0.31040 0.47610 0.21000 0.08600
C 	C 	0.09060 0.34300 0.16830 0.09200
C 	C 	0.13650 0.52090 0.98840 0.09300
C 	C 	0.23750 0.24530 0.41500 0.08500
C 	C 	0.76270 0.22630 0.09070 0.08300
C 	C 	0.64030 0.97180 0.00900 0.09600
C 	C 	0.42270 0.82500 0.15950 0.09400
C 	C 	0.79890 0.02790 0.77890 0.08700
C 	C 	0.68960 0.97610 0.29000 0.08600
C 	C 	0.90940 0.84300 0.33170 0.09200
C 	C 	0.86350 0.02090 0.51160 0.09000
C 	C 	0.76250 0.74530 0.08500 0.08500
S 	S 	0.76450 0.71750 0.66380 -0.09100
S 	S 	0.68510 0.48770 0.71045 -0.08100
S 	S 	0.50060 0.68560 0.71987 -0.10000
S 	S 	0.56630 0.59350 0.53592 -0.09600
S 	S 	0.93270 0.40310 0.03357 -0.09400
S 	S 	0.98270 0.64970 0.76905 -0.09400
S 	S 	0.80430 0.50990 0.20020 -0.08800
S 	S 	0.77070 0.23940 0.67050 -0.09400
S 	S 	0.23550 0.21750 0.83620 -0.09100
S 	S 	0.31490 0.98770 0.78955 -0.08100
S 	S 	0.49940 0.18560 0.78013 -0.10000
S 	S 	0.43370 0.09350 0.96408 -0.09600
S 	S 	0.06730 0.90310 0.46643 -0.09500
S 	S 	0.01730 0.14970 0.73095 -0.09100
S 	S 	0.19570 0.00990 0.29980 -0.08700
S 	S 	0.22930 0.73940 0.82950 -0.09300
S 	S 	0.23550 0.28250 0.33620 -0.09100
S 	S 	0.31490 0.51230 0.28955 -0.08100
S 	S 	0.49940 0.31440 0.28013 -0.10000
S 	S 	0.43370 0.40650 0.46408 -0.09600
S 	S 	0.06730 0.59690 0.96643 -0.09400
S 	S 	0.01730 0.35030 0.23095 -0.09400
S 	S 	0.19570 0.49010 0.79980 -0.08800
S 	S 	0.22930 0.76060 0.32950 -0.09400
S 	S 	0.76450 0.78250 0.16380 -0.09100
S 	S 	0.68510 0.01230 0.21045 -0.08100
S 	S 	0.50060 0.81440 0.21987 -0.10000
S 	S 	0.56630 0.90650 0.03592 -0.09600
S 	S 	0.93270 0.09690 0.53357 -0.09500
S 	S 	0.98270 0.85030 0.26905 -0.09100
S 	S 	0.80430 0.99010 0.70020 -0.08700
S 	S 	0.77070 0.26060 0.17050 -0.09300
N 	N 	0.75420 0.29500 0.53470 -0.28400
N 	N 	0.68830 0.48030 0.48730 -0.27300
N 	N 	0.36750 0.66490 0.61860 -0.26600
N 	N 	0.79340 0.44810 0.33440 -0.28600
N 	N 	0.69020 0.54960 0.84530 -0.28500
N 	N 	0.85390 0.66190 0.87260 -0.26700
N 	N 	0.81830 0.53270 0.99290 -0.27500
N 	N 	0.76130 0.78010 0.53070 -0.28800
N 	N 	0.24580 0.79500 0.96530 -0.28300
N 	N 	0.31170 0.98030 0.01270 -0.27400
N 	N 	0.63250 0.16490 0.88140 -0.26600
N 	N 	0.20660 0.94810 0.16560 -0.28600
N 	N 	0.30980 0.04960 0.65470 -0.28500
N 	N 	0.14610 0.16190 0.62740 -0.26700
N 	N 	0.18170 0.03270 0.50710 -0.27300
N 	N 	0.23870 0.28010 0.96930 -0.28800
N 	N 	0.24580 0.70500 0.46530 -0.28400
N 	N 	0.31170 0.51970 0.51270 -0.27300
N 	N 	0.63250 0.33510 0.38140 -0.26600
N 	N 	0.20660 0.55190 0.66560 -0.28600
N 	N 	0.30980 0.45040 0.15470 -0.28500
N 	N 	0.14610 0.33810 0.12740 -0.26700
N 	N 	0.18170 0.46730 0.00710 -0.27500
N 	N 	0.23870 0.21990 0.46930 -0.28800
N 	N 	0.75420 0.20500 0.03470 -0.28300
N 	N 	0.68830 0.01970 0.98730 -0.27400
N 	N 	0.36750 0.83510 0.11860 -0.26600
N 	N 	0.79340 0.05190 0.83440 -0.28600
N 	N 	0.69020 0.95040 0.34530 -0.28500
N 	N 	0.85390 0.83810 0.37260 -0.26700
N 	N 	0.81830 0.96730 0.49290 -0.27300
N 	N 	0.76130 0.71990 0.03070 -0.28800
