data_crystal

_cell_length_a 9.10340
_cell_length_b 9.10340
_cell_length_c 25.47080
_cell_angle_alpha 90.00000
_cell_angle_beta  90.00000
_cell_angle_gamma 120.00000

_symmetry_space_group_name_	'P 1'
_symmetry_space_group_name_H-M	'P 1'

loop_
_symmetry_equiv_pos_as_xyz
  x,y,z

loop_
_atom_site_label
_atom_site_type_symbol
_atom_site_fract_x
_atom_site_fract_y
_atom_site_fract_z
_atom_site_charge
Ce	Ce	0.50013 0.50013 0.33333 2.12500
Ce	Ce	-0.00000 0.49987 0.66667 2.06100
Ce	Ce	0.49987 0.00000 -0.00000 2.03400
Zr	Zr	0.99994 0.00000 0.50000 3.19200
Zr	Zr	0.00006 0.00006 0.83333 3.15600
Zr	Zr	0.00000 0.99994 0.16667 3.19100
C 	C 	0.15440 0.24100 0.40840 0.23700
C 	C 	0.30440 0.23550 0.43380 0.25800
C 	C 	0.69810 0.76760 0.43340 0.28400
C 	C 	0.84480 0.75370 0.40950 0.23800
C 	C 	0.08660 0.84560 0.74173 0.07000
C 	C 	0.93110 0.69560 0.76713 0.45800
C 	C 	0.06950 0.30190 0.76673 0.09600
C 	C 	0.90890 0.15520 0.74283 0.39200
C 	C 	0.75900 0.91340 0.07507 0.40800
C 	C 	0.76450 0.06890 0.10047 0.11600
C 	C 	0.23240 0.93050 0.10007 0.38600
C 	C 	0.24630 0.09110 0.07617 0.09500
C 	C 	0.91340 0.75900 0.59160 0.41200
C 	C 	0.06890 0.76450 0.56620 0.11700
C 	C 	0.93050 0.23240 0.56660 0.39300
C 	C 	0.09110 0.24630 0.59050 0.09300
C 	C 	0.24100 0.15440 0.25827 0.23700
C 	C 	0.23550 0.30440 0.23287 0.25800
C 	C 	0.76760 0.69810 0.23327 0.28400
C 	C 	0.75370 0.84480 0.25717 0.23800
C 	C 	0.84560 0.08660 0.92493 0.07000
C 	C 	0.69560 0.93110 0.89953 0.46200
C 	C 	0.30190 0.06950 0.89993 0.10100
C 	C 	0.15520 0.90890 0.92383 0.39200
O 	O 	0.18830 0.33630 0.36970 -0.41400
O 	O 	0.44800 0.31700 0.41550 -0.40100
O 	O 	0.01440 0.16030 0.43190 -0.67700
O 	O 	0.26430 0.13890 0.47310 -0.63000
O 	O 	0.73620 0.86070 0.47400 -0.46000
O 	O 	0.98650 0.83720 0.43230 -0.38900
O 	O 	0.55380 0.68360 0.41480 -0.37600
O 	O 	0.81280 0.66630 0.36850 -0.31500
O 	O 	0.14800 0.81170 0.70303 -0.32600
O 	O 	0.86900 0.55200 0.74883 -0.37700
O 	O 	0.14590 0.98560 0.76523 -0.44200
O 	O 	0.87460 0.73570 0.80643 -0.48400
O 	O 	0.12450 0.26380 0.80733 -0.58900
O 	O 	0.85070 0.01350 0.76563 -0.63200
O 	O 	0.12980 0.44620 0.74813 -0.38500
O 	O 	0.85350 0.18720 0.70183 -0.39100
O 	O 	0.66370 0.85200 0.03637 -0.36800
O 	O 	0.68300 0.13100 0.08217 -0.38000
O 	O 	0.83970 0.85410 0.09857 -0.48400
O 	O 	0.86110 0.12540 0.13977 -0.50800
O 	O 	0.13930 0.87550 0.14067 -0.59700
O 	O 	0.16280 0.14930 0.09897 -0.60600
O 	O 	0.31640 0.87020 0.08147 -0.39400
O 	O 	0.33370 0.14650 0.03517 -0.40700
O 	O 	0.85200 0.66370 0.63030 -0.34000
O 	O 	0.13100 0.68300 0.58450 -0.36900
O 	O 	0.85410 0.83970 0.56810 -0.47600
O 	O 	0.12540 0.86110 0.52690 -0.50600
O 	O 	0.87550 0.13930 0.52600 -0.59400
O 	O 	0.14930 0.16280 0.56770 -0.59700
O 	O 	0.87020 0.31640 0.58520 -0.38300
O 	O 	0.14650 0.33370 0.63150 -0.38000
O 	O 	0.33630 0.18830 0.29697 -0.41400
O 	O 	0.31700 0.44800 0.25117 -0.40200
O 	O 	0.16030 0.01440 0.23477 -0.67700
O 	O 	0.13890 0.26430 0.19357 -0.63200
O 	O 	0.86070 0.73620 0.19267 -0.46200
O 	O 	0.83720 0.98650 0.23437 -0.39000
O 	O 	0.68360 0.55380 0.25187 -0.37700
O 	O 	0.66630 0.81280 0.29817 -0.31500
O 	O 	0.81170 0.14800 0.96363 -0.29400
O 	O 	0.55200 0.86900 0.91783 -0.36000
O 	O 	0.98560 0.14590 0.90143 -0.43300
O 	O 	0.73570 0.87460 0.86023 -0.48400
O 	O 	0.26380 0.12450 0.85933 -0.58900
O 	O 	0.01350 0.85070 0.90103 -0.62300
O 	O 	0.44620 0.12980 0.91853 -0.36800
O 	O 	0.18720 0.85350 0.96483 -0.35700
