data_crystal

_cell_length_a 12.96530
_cell_length_b 13.90600
_cell_length_c 14.62000
_cell_angle_alpha 95.94830
_cell_angle_beta  90.00000
_cell_angle_gamma 117.78600

_symmetry_space_group_name_	'P 1'
_symmetry_space_group_name_H-M	'P 1'

loop_
_symmetry_equiv_pos_as_xyz
  x,y,z

loop_
_atom_site_label
_atom_site_type_symbol
_atom_site_fract_x
_atom_site_fract_y
_atom_site_fract_z
_atom_site_charge
Tb	Tb	0.46749 0.34548 0.46790 1.88700
Tb	Tb	0.12201 0.65452 0.03210 1.84400
Tb	Tb	0.53251 0.65452 0.53210 1.88700
Tb	Tb	0.87799 0.34548 0.96790 1.84400
H 	H 	0.33060 0.26280 0.72830 0.11200
H 	H 	0.31830 0.54360 0.79010 0.06000
H 	H 	0.13380 0.28660 0.93150 0.06900
H 	H 	0.33750 0.00120 0.89120 0.19800
H 	H 	0.04000 0.09200 0.88470 0.00000
H 	H 	0.00830 0.92620 0.93510 0.10400
H 	H 	0.52300 0.19280 0.40920 0.21300
H 	H 	0.06780 0.73720 0.77170 0.12200
H 	H 	0.77470 0.45640 0.70990 0.06100
H 	H 	0.84720 0.71340 0.56850 0.06800
H 	H 	0.33630 0.99880 0.60880 0.19600
H 	H 	0.94800 0.90800 0.61530 -0.00600
H 	H 	0.08210 0.07380 0.56490 0.10300
H 	H 	0.33020 0.80720 0.09080 0.21100
H 	H 	0.66940 0.73720 0.27170 0.11100
H 	H 	0.68170 0.45640 0.20990 0.05900
H 	H 	0.86620 0.71340 0.06850 0.06800
H 	H 	0.66250 0.99880 0.10880 0.19700
H 	H 	0.96000 0.90800 0.11530 0.00000
H 	H 	0.99170 0.07380 0.06490 0.10400
H 	H 	0.47700 0.80720 0.59080 0.21300
H 	H 	0.93220 0.26280 0.22830 0.12200
H 	H 	0.22530 0.54360 0.29010 0.06100
H 	H 	0.15280 0.28660 0.43150 0.06800
H 	H 	0.66370 0.00120 0.39120 0.19600
H 	H 	0.05200 0.09200 0.38470 -0.00600
H 	H 	0.91790 0.92620 0.43510 0.10300
H 	H 	0.66980 0.19280 0.90920 0.21100
C 	C 	0.23290 0.25680 0.83680 0.12400
C 	C 	0.30240 0.30340 0.76470 -0.06300
C 	C 	0.33080 0.40760 0.74530 -0.08100
C 	C 	0.29390 0.47140 0.80000 0.02500
C 	C 	0.21910 0.42600 0.87090 -0.08700
C 	C 	0.18670 0.31800 0.88700 -0.07600
C 	C 	0.21030 0.14780 0.86090 -0.20800
C 	C 	0.29330 0.11480 0.86080 0.46500
C 	C 	0.27650 0.01880 0.89110 -0.32100
C 	C 	0.10120 0.07480 0.88710 0.09500
C 	C 	0.40460 0.45160 0.66450 0.44500
C 	C 	0.15190 0.84680 0.96070 0.27000
C 	C 	0.17130 0.94920 0.92110 0.11300
C 	C 	0.08180 0.97460 0.91760 -0.16400
C 	C 	0.17760 0.49340 0.92890 0.40900
C 	C 	0.97610 0.74320 0.66320 0.13000
C 	C 	0.99900 0.69660 0.73530 -0.08500
C 	C 	0.92320 0.59240 0.75470 -0.06900
C 	C 	0.82250 0.52860 0.70000 0.01800
C 	C 	0.79310 0.57400 0.62910 -0.08500
C 	C 	0.86870 0.68200 0.61300 -0.08000
C 	C 	0.06250 0.85220 0.63910 -0.21100
C 	C 	0.17850 0.88520 0.63920 0.46500
C 	C 	0.25770 0.98120 0.60890 -0.31200
C 	C 	0.02640 0.92520 0.61290 0.10800
C 	C 	0.95300 0.54840 0.83550 0.42400
C 	C 	0.30510 0.15320 0.53930 0.27400
C 	C 	0.22210 0.05080 0.57890 0.10600
C 	C 	0.10720 0.02540 0.58240 -0.17300
C 	C 	0.68420 0.50660 0.57110 0.41100
C 	C 	0.76710 0.74320 0.16320 0.12400
C 	C 	0.69760 0.69660 0.23530 -0.06300
C 	C 	0.66920 0.59240 0.25470 -0.08100
C 	C 	0.70610 0.52860 0.20000 0.02500
C 	C 	0.78090 0.57400 0.12910 -0.08700
C 	C 	0.81330 0.68200 0.11300 -0.07600
C 	C 	0.78970 0.85220 0.13910 -0.20800
C 	C 	0.70670 0.88520 0.13920 0.46500
C 	C 	0.72350 0.98120 0.10890 -0.32100
C 	C 	0.89880 0.92520 0.11290 0.09500
C 	C 	0.59540 0.54840 0.33550 0.44500
C 	C 	0.84810 0.15320 0.03930 0.27000
C 	C 	0.82870 0.05080 0.07890 0.11300
C 	C 	0.91820 0.02540 0.08240 -0.16400
C 	C 	0.82240 0.50660 0.07110 0.40900
C 	C 	0.02390 0.25680 0.33680 0.13000
C 	C 	0.00100 0.30340 0.26470 -0.08500
C 	C 	0.07680 0.40760 0.24530 -0.06900
C 	C 	0.17750 0.47140 0.30000 0.01800
C 	C 	0.20690 0.42600 0.37090 -0.08500
C 	C 	0.13130 0.31800 0.38700 -0.08000
C 	C 	0.93750 0.14780 0.36090 -0.21100
C 	C 	0.82150 0.11480 0.36080 0.46500
C 	C 	0.74230 0.01880 0.39110 -0.31200
C 	C 	0.97360 0.07480 0.38710 0.10800
C 	C 	0.04700 0.45160 0.16450 0.42400
C 	C 	0.69490 0.84680 0.46070 0.27400
C 	C 	0.77790 0.94920 0.42110 0.10600
C 	C 	0.89280 0.97460 0.41760 -0.17300
C 	C 	0.31580 0.49340 0.42890 0.41100
O 	O 	0.42750 0.54540 0.64810 -0.47400
O 	O 	0.43700 0.38860 0.62100 -0.46300
O 	O 	0.24430 0.59520 0.94500 -0.39500
O 	O 	0.07820 0.44900 0.96060 -0.54900
O 	O 	0.23420 0.82280 0.96280 -0.37400
O 	O 	0.05910 0.79140 0.99420 -0.38700
O 	O 	0.56740 0.25360 0.38980 -0.43000
O 	O 	0.88210 0.45460 0.85190 -0.46800
O 	O 	0.04840 0.61140 0.87900 -0.44600
O 	O 	0.64910 0.40480 0.55500 -0.40300
O 	O 	0.62920 0.55100 0.53940 -0.56200
O 	O 	0.41140 0.17720 0.53720 -0.38400
O 	O 	0.26770 0.20860 0.50580 -0.39800
O 	O 	0.31380 0.74640 0.11020 -0.42800
O 	O 	0.57250 0.45460 0.35190 -0.47400
O 	O 	0.56300 0.61140 0.37900 -0.46300
O 	O 	0.75570 0.40480 0.05500 -0.39500
O 	O 	0.92180 0.55100 0.03940 -0.54900
O 	O 	0.76580 0.17720 0.03720 -0.37400
O 	O 	0.94090 0.20860 0.00580 -0.38700
O 	O 	0.43260 0.74640 0.61020 -0.43000
O 	O 	0.11790 0.54540 0.14810 -0.46800
O 	O 	0.95160 0.38860 0.12100 -0.44600
O 	O 	0.35090 0.59520 0.44500 -0.40300
O 	O 	0.37080 0.44900 0.46060 -0.56200
O 	O 	0.58860 0.82280 0.46280 -0.38400
O 	O 	0.73230 0.79140 0.49420 -0.39800
O 	O 	0.68620 0.25360 0.88980 -0.42800
F 	F 	0.39670 0.17580 0.82760 -0.47400
F 	F 	0.22090 0.82420 0.67240 -0.47200
F 	F 	0.60330 0.82420 0.17240 -0.47400
F 	F 	0.77910 0.17580 0.32760 -0.47200
