data_crystal

_cell_length_a 12.95540
_cell_length_b 13.93870
_cell_length_c 14.69050
_cell_angle_alpha 95.89250
_cell_angle_beta  90.00000
_cell_angle_gamma 117.69300

_symmetry_space_group_name_	'P 1'
_symmetry_space_group_name_H-M	'P 1'

loop_
_symmetry_equiv_pos_as_xyz
  x,y,z

loop_
_atom_site_label
_atom_site_type_symbol
_atom_site_fract_x
_atom_site_fract_y
_atom_site_fract_z
_atom_site_charge
Eu	Eu	0.46713 0.34528 0.96779 1.90900
Eu	Eu	0.12185 0.65472 0.53221 1.91000
Eu	Eu	0.53287 0.65472 0.03221 1.91000
Eu	Eu	0.87815 0.34528 0.46779 1.91100
H 	H 	0.13530 0.28760 0.43250 0.06800
H 	H 	0.31830 0.54340 0.29120 0.06000
H 	H 	0.33140 0.26220 0.22950 0.11400
H 	H 	0.04090 0.09280 0.38650 -0.00500
H 	H 	0.00880 0.92740 0.43300 0.10500
H 	H 	0.33660 0.99980 0.39050 0.20200
H 	H 	0.49200 0.22600 0.86300 0.05400
H 	H 	0.53200 0.24800 0.91900 0.18900
H 	H 	0.84770 0.71240 0.06750 0.06600
H 	H 	0.77490 0.45660 0.20880 0.05900
H 	H 	0.06920 0.73780 0.27050 0.11200
H 	H 	0.94810 0.90720 0.11350 -0.00800
H 	H 	0.08140 0.07260 0.06700 0.10700
H 	H 	0.33680 0.00020 0.10950 0.20700
H 	H 	0.26600 0.77400 0.63700 0.05400
H 	H 	0.28400 0.75200 0.58100 0.19000
H 	H 	0.86470 0.71240 0.56750 0.06800
H 	H 	0.68170 0.45660 0.70880 0.06000
H 	H 	0.66860 0.73780 0.77050 0.11400
H 	H 	0.95910 0.90720 0.61350 -0.00500
H 	H 	0.99120 0.07260 0.56700 0.10500
H 	H 	0.66340 0.00020 0.60950 0.20200
H 	H 	0.50800 0.77400 0.13700 0.05400
H 	H 	0.46800 0.75200 0.08100 0.18900
H 	H 	0.15230 0.28760 0.93250 0.06600
H 	H 	0.22510 0.54340 0.79120 0.05900
H 	H 	0.93080 0.26220 0.72950 0.11200
H 	H 	0.05190 0.09280 0.88650 -0.00800
H 	H 	0.91860 0.92740 0.93300 0.10700
H 	H 	0.66320 0.99980 0.89050 0.20700
H 	H 	0.73400 0.22600 0.36300 0.05400
H 	H 	0.71600 0.24800 0.41900 0.19000
C 	C 	0.20870 0.14760 0.36050 -0.20900
C 	C 	0.23340 0.25840 0.33730 0.12700
C 	C 	0.18770 0.31860 0.38780 -0.08100
C 	C 	0.22140 0.42720 0.37100 -0.08300
C 	C 	0.29400 0.47140 0.30110 0.02200
C 	C 	0.33040 0.40680 0.24570 -0.07800
C 	C 	0.30290 0.30280 0.26510 -0.06700
C 	C 	0.18000 0.49600 0.42920 0.40900
C 	C 	0.40730 0.45160 0.16620 0.45000
C 	C 	0.10210 0.07560 0.38740 0.11000
C 	C 	0.08280 0.97580 0.41650 -0.17800
C 	C 	0.17040 0.94980 0.42070 0.11000
C 	C 	0.27590 0.01780 0.39070 -0.30300
C 	C 	0.29210 0.11440 0.36040 0.45800
C 	C 	0.15170 0.84900 0.46160 0.27000
C 	C 	0.06110 0.85240 0.13950 -0.21000
C 	C 	0.97500 0.74160 0.16270 0.12200
C 	C 	0.86910 0.68140 0.11220 -0.07900
C 	C 	0.79420 0.57280 0.12900 -0.08500
C 	C 	0.82260 0.52860 0.19890 0.02400
C 	C 	0.92360 0.59320 0.25430 -0.08200
C 	C 	0.00010 0.69720 0.23490 -0.06100
C 	C 	0.68400 0.50400 0.07080 0.41000
C 	C 	0.95570 0.54840 0.33380 0.45100
C 	C 	0.02650 0.92440 0.11260 0.11300
C 	C 	0.10700 0.02420 0.08350 -0.18100
C 	C 	0.22060 0.05020 0.07930 0.11700
C 	C 	0.25810 0.98220 0.10930 -0.31400
C 	C 	0.17770 0.88560 0.13960 0.46200
C 	C 	0.30270 0.15100 0.03840 0.26700
C 	C 	0.79130 0.85240 0.63950 -0.20900
C 	C 	0.76660 0.74160 0.66270 0.12700
C 	C 	0.81230 0.68140 0.61220 -0.08100
C 	C 	0.77860 0.57280 0.62900 -0.08300
C 	C 	0.70600 0.52860 0.69890 0.02200
C 	C 	0.66960 0.59320 0.75430 -0.07800
C 	C 	0.69710 0.69720 0.73490 -0.06700
C 	C 	0.82000 0.50400 0.57080 0.40900
C 	C 	0.59270 0.54840 0.83380 0.45000
C 	C 	0.89790 0.92440 0.61260 0.11000
C 	C 	0.91720 0.02420 0.58350 -0.17800
C 	C 	0.82960 0.05020 0.57930 0.11000
C 	C 	0.72410 0.98220 0.60930 -0.30300
C 	C 	0.70790 0.88560 0.63960 0.45800
C 	C 	0.84830 0.15100 0.53840 0.27000
C 	C 	0.93890 0.14760 0.86050 -0.21000
C 	C 	0.02500 0.25840 0.83730 0.12200
C 	C 	0.13090 0.31860 0.88780 -0.07900
C 	C 	0.20580 0.42720 0.87100 -0.08500
C 	C 	0.17740 0.47140 0.80110 0.02400
C 	C 	0.07640 0.40680 0.74570 -0.08200
C 	C 	0.99990 0.30280 0.76510 -0.06100
C 	C 	0.31600 0.49600 0.92920 0.41000
C 	C 	0.04430 0.45160 0.66620 0.45100
C 	C 	0.97350 0.07560 0.88740 0.11300
C 	C 	0.89300 0.97580 0.91650 -0.18100
C 	C 	0.77940 0.94980 0.92070 0.11700
C 	C 	0.74190 0.01780 0.89070 -0.31400
C 	C 	0.82230 0.11440 0.86040 0.46200
C 	C 	0.69730 0.84900 0.96160 0.26700
O 	O 	0.24730 0.59620 0.44420 -0.40500
O 	O 	0.43780 0.38940 0.12210 -0.47300
O 	O 	0.05830 0.79220 0.49390 -0.39900
O 	O 	0.23420 0.82480 0.46340 -0.37500
O 	O 	0.08160 0.45140 0.46250 -0.56600
O 	O 	0.42950 0.54580 0.14980 -0.47900
O 	O 	0.56730 0.25260 0.88880 -0.49100
O 	O 	0.65110 0.40380 0.05580 -0.40500
O 	O 	0.04840 0.61060 0.37790 -0.47300
O 	O 	0.26610 0.20780 0.00610 -0.39700
O 	O 	0.40940 0.17520 0.03660 -0.37400
O 	O 	0.63020 0.54860 0.03750 -0.56700
O 	O 	0.88370 0.45420 0.35020 -0.48000
O 	O 	0.31470 0.74740 0.61120 -0.49100
O 	O 	0.75270 0.40380 0.55580 -0.40500
O 	O 	0.56220 0.61060 0.87790 -0.47300
O 	O 	0.94170 0.20780 0.50610 -0.39900
O 	O 	0.76580 0.17520 0.53660 -0.37500
O 	O 	0.91840 0.54860 0.53750 -0.56600
O 	O 	0.57050 0.45420 0.85020 -0.47900
O 	O 	0.43270 0.74740 0.11120 -0.49100
O 	O 	0.34890 0.59620 0.94420 -0.40500
O 	O 	0.95160 0.38940 0.62210 -0.47300
O 	O 	0.73390 0.79220 0.99390 -0.39700
O 	O 	0.59060 0.82480 0.96340 -0.37400
O 	O 	0.36980 0.45140 0.96250 -0.56700
O 	O 	0.11630 0.54580 0.64980 -0.48000
O 	O 	0.68530 0.25260 0.38880 -0.49100
F 	F 	0.39550 0.17460 0.32690 -0.46500
F 	F 	0.22090 0.82540 0.17310 -0.46500
F 	F 	0.60450 0.82540 0.67310 -0.46500
F 	F 	0.77910 0.17460 0.82690 -0.46500
