data_crystal

_cell_length_a 25.85460
_cell_length_b 12.39060
_cell_length_c 13.53820
_cell_angle_alpha 90.00000
_cell_angle_beta  116.41700
_cell_angle_gamma 90.00000

_symmetry_space_group_name_	'P 1'
_symmetry_space_group_name_H-M	'P 1'

loop_
_symmetry_equiv_pos_as_xyz
  x,y,z

loop_
_atom_site_label
_atom_site_type_symbol
_atom_site_fract_x
_atom_site_fract_y
_atom_site_fract_z
_atom_site_charge
C 	C 	0.91210 0.86040 0.49080 -0.16000
C 	C 	0.81795 0.69940 0.18940 -0.16900
C 	C 	0.91540 0.09010 0.79490 -0.14900
C 	C 	0.80600 0.90350 0.18900 -0.16300
C 	C 	0.79280 0.87130 0.36400 -0.16800
C 	C 	0.83451 0.67640 0.40590 -0.15500
C 	C 	0.92623 0.68890 0.35200 -0.16600
N 	N 	0.94191 0.88850 0.58000 -0.24100
N 	N 	0.79985 0.63610 0.11850 -0.25100
N 	N 	0.94553 0.03020 0.78160 -0.23600
N 	N 	0.77640 0.95380 0.11120 -0.24400
N 	N 	0.75798 0.90210 0.38930 -0.27100
N 	N 	0.82203 0.61060 0.45230 -0.26600
N 	N 	0.95868 0.61840 0.36590 -0.09400
Mn	Mn	0.78820 0.48351 0.04126 1.20200
Mo	Mo	0.85785 0.80568 0.32461 1.05700
C 	C 	0.41210 0.36040 0.49080 -0.17000
C 	C 	0.31795 0.19940 0.18940 -0.17200
C 	C 	0.41540 0.59010 0.79490 -0.15900
C 	C 	0.30600 0.40350 0.18900 -0.16700
C 	C 	0.29280 0.37130 0.36400 -0.17100
C 	C 	0.33451 0.17640 0.40590 -0.16000
C 	C 	0.42623 0.18890 0.35200 -0.18000
N 	N 	0.44191 0.38850 0.58000 -0.26100
N 	N 	0.29985 0.13610 0.11850 -0.25300
N 	N 	0.44553 0.53020 0.78160 -0.25600
N 	N 	0.27640 0.45380 0.11120 -0.24500
N 	N 	0.25798 0.40210 0.38930 -0.27300
N 	N 	0.32203 0.11060 0.45230 -0.26900
N 	N 	0.45868 0.11840 0.36590 -0.11200
Mn	Mn	0.28820 0.98351 0.04126 1.19800
Mo	Mo	0.35785 0.30568 0.32461 1.05700
C 	C 	0.08790 0.86040 0.00920 -0.17400
C 	C 	0.18205 0.69940 0.31060 -0.17500
C 	C 	0.08460 0.09010 0.70510 -0.17100
C 	C 	0.19400 0.90350 0.31100 -0.16900
C 	C 	0.20720 0.87130 0.13600 -0.17100
C 	C 	0.16549 0.67640 0.09410 -0.16300
C 	C 	0.07377 0.68890 0.14800 -0.19200
N 	N 	0.05809 0.88850 0.92000 -0.27700
N 	N 	0.20015 0.63610 0.38150 -0.25700
N 	N 	0.05447 0.03020 0.71840 -0.26900
N 	N 	0.22360 0.95380 0.38880 -0.24700
N 	N 	0.24202 0.90210 0.11070 -0.27200
N 	N 	0.17797 0.61060 0.04770 -0.27000
N 	N 	0.04132 0.61840 0.13410 -0.12800
Mn	Mn	0.21180 0.48351 0.45874 1.19500
Mo	Mo	0.14215 0.80568 0.17539 1.05600
C 	C 	0.58790 0.36040 0.00920 -0.16300
C 	C 	0.68205 0.19940 0.31060 -0.17100
C 	C 	0.58460 0.59010 0.70510 -0.15900
C 	C 	0.69400 0.40350 0.31100 -0.16600
C 	C 	0.70720 0.37130 0.13600 -0.16800
C 	C 	0.66549 0.17640 0.09410 -0.15800
C 	C 	0.57377 0.18890 0.14800 -0.17900
N 	N 	0.55809 0.38850 0.92000 -0.26700
N 	N 	0.70015 0.13610 0.38150 -0.25400
N 	N 	0.55447 0.53020 0.71840 -0.25600
N 	N 	0.72360 0.45380 0.38880 -0.24500
N 	N 	0.74202 0.40210 0.11070 -0.26900
N 	N 	0.67797 0.11060 0.04770 -0.26600
N 	N 	0.54132 0.11840 0.13410 -0.11100
Mn	Mn	0.71180 0.98351 0.45874 1.19800
Mo	Mo	0.64215 0.30568 0.17539 1.05600
C 	C 	0.08790 0.13960 0.50920 -0.18000
C 	C 	0.18205 0.30060 0.81060 -0.17700
C 	C 	0.08460 0.90990 0.20510 -0.16900
C 	C 	0.19400 0.09650 0.81100 -0.17000
C 	C 	0.20720 0.12870 0.63600 -0.17200
C 	C 	0.16549 0.32360 0.59410 -0.16400
C 	C 	0.07377 0.31110 0.64800 -0.19300
N 	N 	0.05809 0.11150 0.42000 -0.27200
N 	N 	0.20015 0.36390 0.88150 -0.25800
N 	N 	0.05447 0.96980 0.21840 -0.26800
N 	N 	0.22360 0.04620 0.88880 -0.24900
N 	N 	0.24202 0.09790 0.61070 -0.27300
N 	N 	0.17797 0.38940 0.54770 -0.27200
N 	N 	0.04132 0.38160 0.63410 -0.13000
Mn	Mn	0.21180 0.51649 0.95874 1.19300
Mo	Mo	0.14215 0.19432 0.67539 1.05600
C 	C 	0.58790 0.63960 0.50920 -0.17000
C 	C 	0.68205 0.80060 0.81060 -0.17200
C 	C 	0.58460 0.40990 0.20510 -0.15800
C 	C 	0.69400 0.59650 0.81100 -0.16700
C 	C 	0.70720 0.62870 0.63600 -0.16900
C 	C 	0.66549 0.82360 0.59410 -0.15900
C 	C 	0.57377 0.81110 0.64800 -0.18000
N 	N 	0.55809 0.61150 0.42000 -0.26100
N 	N 	0.70015 0.86390 0.88150 -0.25500
N 	N 	0.55447 0.46980 0.21840 -0.25500
N 	N 	0.72360 0.54620 0.88880 -0.24700
N 	N 	0.74202 0.59790 0.61070 -0.27100
N 	N 	0.67797 0.88940 0.54770 -0.26900
N 	N 	0.54132 0.88160 0.63410 -0.11300
Mn	Mn	0.71180 0.01649 0.95874 1.19500
Mo	Mo	0.64215 0.69432 0.67539 1.05700
C 	C 	0.91210 0.13960 0.99080 -0.17000
C 	C 	0.81795 0.30060 0.68940 -0.16900
C 	C 	0.91540 0.90990 0.29490 -0.14600
C 	C 	0.80600 0.09650 0.68900 -0.16400
C 	C 	0.79280 0.12870 0.86400 -0.16900
C 	C 	0.83451 0.32360 0.90590 -0.15700
C 	C 	0.92623 0.31110 0.85200 -0.16700
N 	N 	0.94191 0.11150 0.08000 -0.23300
N 	N 	0.79985 0.36390 0.61850 -0.25200
N 	N 	0.94553 0.96980 0.28160 -0.23500
N 	N 	0.77640 0.04620 0.61120 -0.24500
N 	N 	0.75798 0.09790 0.88930 -0.27300
N 	N 	0.82203 0.38940 0.95230 -0.26800
N 	N 	0.95868 0.38160 0.86590 -0.09600
Mn	Mn	0.78820 0.51649 0.54126 1.20000
Mo	Mo	0.85785 0.19432 0.82461 1.05800
C 	C 	0.41210 0.63960 0.99080 -0.17700
C 	C 	0.31795 0.80060 0.68940 -0.17300
C 	C 	0.41540 0.40990 0.29490 -0.15800
C 	C 	0.30600 0.59650 0.68900 -0.16800
C 	C 	0.29280 0.62870 0.86400 -0.17200
C 	C 	0.33451 0.82360 0.90590 -0.16100
C 	C 	0.42623 0.81110 0.85200 -0.18100
N 	N 	0.44191 0.61150 0.08000 -0.25600
N 	N 	0.29985 0.86390 0.61850 -0.25500
N 	N 	0.44553 0.46980 0.28160 -0.25500
N 	N 	0.27640 0.54620 0.61120 -0.24700
N 	N 	0.25798 0.59790 0.88930 -0.27500
N 	N 	0.32203 0.88940 0.95230 -0.27000
N 	N 	0.45868 0.88160 0.86590 -0.11400
Mn	Mn	0.28820 0.01649 0.54126 1.19700
Mo	Mo	0.35785 0.69432 0.82461 1.05700
Mn	Mn	0.00000 0.92221 0.75000 1.16600
Mn	Mn	0.50000 0.42221 0.75000 1.19100
Mn	Mn	0.00000 0.07779 0.25000 1.16700
Mn	Mn	0.50000 0.57779 0.25000 1.19100
