data_crystal

_cell_length_a 6.93620
_cell_length_b 7.45590
_cell_length_c 8.27970
_cell_angle_alpha 90.34200
_cell_angle_beta  109.84800
_cell_angle_gamma 93.16100

_symmetry_space_group_name_	'P 1'
_symmetry_space_group_name_H-M	'P 1'

loop_
_symmetry_equiv_pos_as_xyz
  x,y,z

loop_
_atom_site_label
_atom_site_type_symbol
_atom_site_fract_x
_atom_site_fract_y
_atom_site_fract_z
_atom_site_charge
Co	Co	-0.00000 0.00000 0.50000 1.03900
Co	Co	0.50000 0.50000 0.50000 1.15500
H 	H 	0.57590 0.70880 0.96010 0.09900
H 	H 	0.42410 0.29120 0.03990 -0.02000
C 	C 	0.64770 0.75890 0.28450 0.29700
C 	C 	0.58070 0.89190 0.14260 0.11300
C 	C 	0.53600 0.06770 0.16670 -0.27800
C 	C 	0.57540 0.15630 0.34040 0.40400
C 	C 	0.54510 0.82590 0.97620 -0.12300
C 	C 	0.35230 0.24110 0.71550 0.40700
C 	C 	0.41930 0.10810 0.85740 -0.28200
C 	C 	0.46400 0.93230 0.83330 0.10900
C 	C 	0.42460 0.84370 0.65960 0.31000
C 	C 	0.45490 0.17410 0.02380 0.14700
O 	O 	0.83060 0.76750 0.38810 -0.32600
O 	O 	0.51250 0.64240 0.28770 -0.40200
O 	O 	0.73550 0.12830 0.46220 -0.42800
O 	O 	0.44300 0.26200 0.35010 -0.45500
O 	O 	0.16940 0.23250 0.61190 -0.52900
O 	O 	0.48750 0.35760 0.71230 -0.42700
O 	O 	0.26450 0.87170 0.53780 -0.43200
O 	O 	0.55700 0.73800 0.64990 -0.37800
