data_crystal

_cell_length_a 6.95750
_cell_length_b 7.43830
_cell_length_c 8.25780
_cell_angle_alpha 90.36650
_cell_angle_beta  109.80300
_cell_angle_gamma 93.23980

_symmetry_space_group_name_	'P 1'
_symmetry_space_group_name_H-M	'P 1'

loop_
_symmetry_equiv_pos_as_xyz
  x,y,z

loop_
_atom_site_label
_atom_site_type_symbol
_atom_site_fract_x
_atom_site_fract_y
_atom_site_fract_z
_atom_site_charge
Co	Co	0.49749 0.50050 0.00040 1.04200
Co	Co	-0.00000 0.00000 -0.00000 0.96800
H 	H 	0.41906 0.29548 0.54038 -0.01100
H 	H 	0.57101 0.70531 0.45781 0.09600
C 	C 	0.45988 0.93370 0.33472 0.11500
C 	C 	0.44993 0.17539 0.52409 0.16100
C 	C 	0.41483 0.10799 0.35901 -0.31000
C 	C 	0.34895 0.24118 0.21653 0.39800
C 	C 	0.41952 0.84379 0.15953 0.31700
C 	C 	0.53228 0.06910 0.66758 -0.26300
C 	C 	0.57952 0.89091 0.64229 0.14200
C 	C 	0.54174 0.82571 0.47511 -0.13600
C 	C 	0.64479 0.75922 0.78577 0.28100
C 	C 	0.57194 0.15771 0.83946 0.38600
O 	O 	0.50863 0.64285 0.78782 -0.30200
O 	O 	0.48222 0.36185 0.21458 -0.47500
O 	O 	0.44084 0.26165 0.85102 -0.33000
O 	O 	0.55281 0.74135 0.14938 -0.45600
O 	O 	0.73193 0.12825 0.96428 -0.29100
O 	O 	0.82647 0.76866 0.89049 -0.23000
O 	O 	0.16518 0.23344 0.11291 -0.58200
O 	O 	0.25763 0.86865 0.03902 -0.52000
