data_crystal

_cell_length_a 6.91040
_cell_length_b 7.42530
_cell_length_c 8.25440
_cell_angle_alpha 90.39700
_cell_angle_beta  109.83500
_cell_angle_gamma 93.13700

_symmetry_space_group_name_	'P 1'
_symmetry_space_group_name_H-M	'P 1'

loop_
_symmetry_equiv_pos_as_xyz
  x,y,z

loop_
_atom_site_label
_atom_site_type_symbol
_atom_site_fract_x
_atom_site_fract_y
_atom_site_fract_z
_atom_site_charge
Co	Co	-0.00000 0.50000 -0.00000 1.01200
Co	Co	0.50000 0.00000 -0.00000 0.98200
H 	H 	0.44200 0.79500 0.54700 0.08800
H 	H 	0.55800 0.20500 0.45300 -0.00300
C 	C 	0.53560 0.56810 0.66650 -0.02800
C 	C 	0.58040 0.39210 0.64200 -0.09500
C 	C 	0.45610 0.67450 0.52420 -0.02000
C 	C 	0.64800 0.25950 0.78470 0.35400
C 	C 	0.57450 0.65700 0.83960 0.33300
C 	C 	0.46440 0.43190 0.33350 -0.14300
C 	C 	0.41960 0.60790 0.35800 -0.06300
C 	C 	0.54390 0.32550 0.47580 0.04800
C 	C 	0.35200 0.74050 0.21530 0.34800
C 	C 	0.42550 0.34300 0.16040 0.38500
O 	O 	0.44410 0.76190 0.85030 -0.26100
O 	O 	0.73700 0.62950 0.96230 -0.23700
O 	O 	0.82930 0.26820 0.88840 -0.30100
O 	O 	0.51170 0.14300 0.78770 -0.38400
O 	O 	0.55590 0.23810 0.14970 -0.51800
O 	O 	0.26300 0.37050 0.03770 -0.59800
O 	O 	0.17070 0.73180 0.11160 -0.52400
O 	O 	0.48830 0.85700 0.21230 -0.37500
