data_crystal

_cell_length_a 13.46900
_cell_length_b 13.46900
_cell_length_c 27.51000
_cell_angle_alpha 90.00000
_cell_angle_beta  90.00000
_cell_angle_gamma 120.00000

_symmetry_space_group_name_	'P 1'
_symmetry_space_group_name_H-M	'P 1'

loop_
_symmetry_equiv_pos_as_xyz
  x,y,z

loop_
_atom_site_label
_atom_site_type_symbol
_atom_site_fract_x
_atom_site_fract_y
_atom_site_fract_z
_atom_site_charge
Cr	Cr	0.48550 0.79020 0.75000 1.55500
Cr	Cr	0.30470 0.51450 0.75000 1.55500
Cr	Cr	0.20980 0.69530 0.75000 1.55500
Cr	Cr	0.30470 0.79020 0.25000 1.55400
Cr	Cr	0.20980 0.51450 0.25000 1.55500
Cr	Cr	0.48550 0.69530 0.25000 1.55400
Cu	Cu	0.77780 0.88890 -0.00000 0.89900
Cu	Cu	0.11110 0.22220 -0.00000 0.90500
Cu	Cu	0.11110 0.88890 -0.00000 0.90600
Cu	Cu	0.77780 0.88890 0.50000 0.91500
Cu	Cu	0.11110 0.22220 0.50000 0.92100
Cu	Cu	0.11110 0.88890 0.50000 0.92200
H 	H 	0.83710 0.85030 0.92060 0.12800
H 	H 	0.84660 0.77490 0.95620 0.14700
H 	H 	0.54520 0.42470 0.93950 0.05100
H 	H 	0.70160 0.58800 0.97170 0.10400
H 	H 	0.66630 0.78160 0.86880 0.08000
H 	H 	0.44930 0.43990 0.87200 0.06900
H 	H 	0.01320 0.16290 0.92060 0.14300
H 	H 	0.92830 0.15340 0.95620 0.12000
H 	H 	0.87950 0.45480 0.93950 0.00100
H 	H 	0.88640 0.29840 0.97170 0.15100
H 	H 	0.11530 0.33370 0.86880 0.11600
H 	H 	0.99060 0.55070 0.87200 0.10600
H 	H 	0.14970 0.98680 0.92060 0.14500
H 	H 	0.22510 0.07170 0.95620 0.15600
H 	H 	0.57530 0.12050 0.93950 0.03900
H 	H 	0.41200 0.11360 0.97170 0.11700
H 	H 	0.21840 0.88470 0.86880 0.09400
H 	H 	0.56010 0.00940 0.87200 0.07500
H 	H 	0.83710 0.85030 0.57940 0.12400
H 	H 	0.84660 0.77490 0.54380 0.13700
H 	H 	0.54520 0.42470 0.56050 0.04600
H 	H 	0.70160 0.58800 0.52830 0.09000
H 	H 	0.66630 0.78160 0.63120 0.07800
H 	H 	0.44930 0.43990 0.62800 0.06800
H 	H 	0.01320 0.16290 0.57940 0.14000
H 	H 	0.92830 0.15340 0.54380 0.11100
H 	H 	0.87950 0.45480 0.56050 -0.00400
H 	H 	0.88640 0.29840 0.52830 0.13700
H 	H 	0.11530 0.33370 0.63120 0.11500
H 	H 	0.99060 0.55070 0.62800 0.10400
H 	H 	0.14970 0.98680 0.57940 0.14100
H 	H 	0.22510 0.07170 0.54380 0.14600
H 	H 	0.57530 0.12050 0.56050 0.03500
H 	H 	0.41200 0.11360 0.52830 0.10300
H 	H 	0.21840 0.88470 0.63120 0.09200
H 	H 	0.56010 0.00940 0.62800 0.07300
H 	H 	0.01320 0.85030 0.42060 0.14200
H 	H 	0.92830 0.77490 0.45620 0.11700
H 	H 	0.87950 0.42470 0.43950 -0.00400
H 	H 	0.88640 0.58800 0.47170 0.13700
H 	H 	0.11530 0.78160 0.36880 0.11500
H 	H 	0.99060 0.43990 0.37200 0.10300
H 	H 	0.14970 0.16290 0.42060 0.13900
H 	H 	0.22510 0.15340 0.45620 0.15000
H 	H 	0.57530 0.45480 0.43950 0.04400
H 	H 	0.41200 0.29840 0.47170 0.09400
H 	H 	0.21840 0.33370 0.36880 0.08500
H 	H 	0.56010 0.55070 0.37200 0.06700
H 	H 	0.83710 0.98680 0.42060 0.12500
H 	H 	0.84660 0.07170 0.45620 0.12900
H 	H 	0.54520 0.12050 0.43950 0.03600
H 	H 	0.70160 0.11360 0.47170 0.09900
H 	H 	0.66630 0.88470 0.36880 0.08400
H 	H 	0.44930 0.00940 0.37200 0.07500
H 	H 	0.01320 0.85030 0.07940 0.14300
H 	H 	0.92830 0.77490 0.04380 0.11100
H 	H 	0.87950 0.42470 0.06050 -0.00800
H 	H 	0.88640 0.58800 0.02830 0.12300
H 	H 	0.11530 0.78160 0.13120 0.11400
H 	H 	0.99060 0.43990 0.12800 0.10100
H 	H 	0.14970 0.16290 0.07940 0.13900
H 	H 	0.22510 0.15340 0.04380 0.14500
H 	H 	0.57530 0.45480 0.06050 0.03900
H 	H 	0.41200 0.29840 0.02830 0.08100
H 	H 	0.21840 0.33370 0.13120 0.08400
H 	H 	0.56010 0.55070 0.12800 0.06600
H 	H 	0.83710 0.98680 0.07940 0.12500
H 	H 	0.84660 0.07170 0.04380 0.12400
H 	H 	0.54520 0.12050 0.06050 0.03200
H 	H 	0.70160 0.11360 0.02830 0.08500
H 	H 	0.66630 0.88470 0.13120 0.08300
H 	H 	0.44930 0.00940 0.12800 0.07400
C 	C 	0.56960 0.49670 0.92530 0.01000
C 	C 	0.66300 0.59420 0.94450 -0.11900
C 	C 	0.69910 0.70060 0.92340 0.11500
C 	C 	0.64190 0.70960 0.88310 -0.07700
C 	C 	0.54860 0.61230 0.86390 -0.08400
C 	C 	0.51240 0.50570 0.88500 -0.01400
C 	C 	0.49570 0.62880 0.81920 0.49800
C 	C 	0.92710 0.43040 0.92530 0.13800
C 	C 	0.93120 0.33700 0.94450 -0.27700
C 	C 	0.00150 0.30090 0.92340 0.23900
C 	C 	0.06770 0.35810 0.88310 -0.17300
C 	C 	0.06370 0.45140 0.86390 0.04800
C 	C 	0.99330 0.48760 0.88500 -0.17900
C 	C 	0.13310 0.50430 0.81920 0.45300
C 	C 	0.50330 0.07290 0.92530 0.03900
C 	C 	0.40580 0.06880 0.94450 -0.15300
C 	C 	0.29940 0.99850 0.92340 0.14700
C 	C 	0.29040 0.93230 0.88310 -0.09900
C 	C 	0.38770 0.93630 0.86390 -0.05300
C 	C 	0.49430 0.00670 0.88500 -0.05000
C 	C 	0.37120 0.86690 0.81920 0.48800
C 	C 	0.56960 0.49670 0.57470 0.00400
C 	C 	0.66300 0.59420 0.55550 -0.11800
C 	C 	0.69910 0.70060 0.57660 0.10700
C 	C 	0.64190 0.70960 0.61690 -0.07500
C 	C 	0.54860 0.61230 0.63610 -0.08700
C 	C 	0.51240 0.50570 0.61500 -0.01300
C 	C 	0.49570 0.62880 0.68080 0.49800
C 	C 	0.92710 0.43040 0.57470 0.13100
C 	C 	0.93120 0.33700 0.55550 -0.27500
C 	C 	0.00150 0.30090 0.57660 0.23100
C 	C 	0.06770 0.35810 0.61690 -0.17200
C 	C 	0.06370 0.45140 0.63610 0.04400
C 	C 	0.99330 0.48760 0.61500 -0.17800
C 	C 	0.13310 0.50430 0.68080 0.45300
C 	C 	0.50330 0.07290 0.57470 0.03100
C 	C 	0.40580 0.06880 0.55550 -0.15000
C 	C 	0.29940 0.99850 0.57660 0.13800
C 	C 	0.29040 0.93230 0.61690 -0.09700
C 	C 	0.38770 0.93630 0.63610 -0.05800
C 	C 	0.49430 0.00670 0.61500 -0.04700
C 	C 	0.37120 0.86690 0.68080 0.48900
C 	C 	0.92710 0.49670 0.42530 0.12900
C 	C 	0.93120 0.59420 0.44450 -0.27200
C 	C 	0.00150 0.70060 0.42340 0.23000
C 	C 	0.06770 0.70960 0.38310 -0.17000
C 	C 	0.06370 0.61230 0.36390 0.04300
C 	C 	0.99330 0.50570 0.38500 -0.17500
C 	C 	0.13310 0.62880 0.31920 0.45400
C 	C 	0.50330 0.43040 0.42530 0.00800
C 	C 	0.40580 0.33700 0.44450 -0.12100
C 	C 	0.29940 0.30090 0.42340 0.11500
C 	C 	0.29040 0.35810 0.38310 -0.07800
C 	C 	0.38770 0.45140 0.36390 -0.08300
C 	C 	0.49430 0.48760 0.38500 -0.01600
C 	C 	0.37120 0.50430 0.31920 0.49700
C 	C 	0.56960 0.07290 0.42530 0.02800
C 	C 	0.66300 0.06880 0.44450 -0.14900
C 	C 	0.69910 0.99850 0.42340 0.13100
C 	C 	0.64190 0.93230 0.38310 -0.09400
C 	C 	0.54860 0.93630 0.36390 -0.06200
C 	C 	0.51240 0.00670 0.38500 -0.04600
C 	C 	0.49570 0.86690 0.31920 0.49000
C 	C 	0.92710 0.49670 0.07470 0.12100
C 	C 	0.93120 0.59420 0.05550 -0.26900
C 	C 	0.00150 0.70060 0.07660 0.22200
C 	C 	0.06770 0.70960 0.11690 -0.16800
C 	C 	0.06370 0.61230 0.13610 0.03900
C 	C 	0.99330 0.50570 0.11500 -0.17300
C 	C 	0.13310 0.62880 0.18080 0.45500
C 	C 	0.50330 0.43040 0.07470 0.00200
C 	C 	0.40580 0.33700 0.05550 -0.12000
C 	C 	0.29940 0.30090 0.07660 0.10900
C 	C 	0.29040 0.35810 0.11690 -0.07700
C 	C 	0.38770 0.45140 0.13610 -0.08600
C 	C 	0.49430 0.48760 0.11500 -0.01500
C 	C 	0.37120 0.50430 0.18080 0.49800
C 	C 	0.56960 0.07290 0.07470 0.02000
C 	C 	0.66300 0.06880 0.05550 -0.14500
C 	C 	0.69910 0.99850 0.07660 0.12200
C 	C 	0.64190 0.93230 0.11690 -0.09100
C 	C 	0.54860 0.93630 0.13610 -0.06700
C 	C 	0.51240 0.00670 0.11500 -0.04200
C 	C 	0.49570 0.86690 0.18080 0.49100
N 	N 	0.79920 0.79970 0.94500 -0.32500
N 	N 	0.00050 0.20080 0.94500 -0.31400
N 	N 	0.20030 0.99950 0.94500 -0.32900
N 	N 	0.79920 0.79970 0.55500 -0.33000
N 	N 	0.00050 0.20080 0.55500 -0.31900
N 	N 	0.20030 0.99950 0.55500 -0.33400
N 	N 	0.00050 0.79970 0.44500 -0.32200
N 	N 	0.20030 0.20080 0.44500 -0.33500
N 	N 	0.79920 0.99950 0.44500 -0.32600
N 	N 	0.00050 0.79970 0.05500 -0.32300
N 	N 	0.20030 0.20080 0.05500 -0.33600
N 	N 	0.79920 0.99950 0.05500 -0.32700
Cl	Cl	0.74000 0.74140 0.05315 -0.50100
Cl	Cl	0.00140 0.26000 0.05315 -0.45500
Cl	Cl	0.25860 0.99860 0.05315 -0.48500
Cl	Cl	0.74000 0.74140 0.44685 -0.48500
Cl	Cl	0.00140 0.26000 0.44685 -0.44000
Cl	Cl	0.25860 0.99860 0.44685 -0.46900
Cl	Cl	0.00140 0.74140 0.55315 -0.43900
Cl	Cl	0.25860 0.26000 0.55315 -0.47700
Cl	Cl	0.74000 0.99860 0.55315 -0.47700
Cl	Cl	0.00140 0.74140 0.94685 -0.41400
Cl	Cl	0.25860 0.26000 0.94685 -0.45200
Cl	Cl	0.74000 0.99860 0.94685 -0.45200
Cl	Cl	-0.00000 0.00000 -0.00000 -0.61800
Cl	Cl	0.00000 0.00000 0.50000 -0.59100
O 	O 	0.53400 0.72550 0.80310 -0.54800
O 	O 	0.41710 0.54270 0.80360 -0.54200
O 	O 	0.19150 0.46600 0.80310 -0.53100
O 	O 	0.12560 0.58290 0.80360 -0.51800
O 	O 	0.27450 0.80850 0.80310 -0.53900
O 	O 	0.45730 0.87440 0.80360 -0.53800
O 	O 	0.53400 0.72550 0.69690 -0.54800
O 	O 	0.41710 0.54270 0.69640 -0.54300
O 	O 	0.19150 0.46600 0.69690 -0.53100
O 	O 	0.12560 0.58290 0.69640 -0.51900
O 	O 	0.27450 0.80850 0.69690 -0.54000
O 	O 	0.45730 0.87440 0.69640 -0.53900
O 	O 	0.19150 0.72550 0.30310 -0.53100
O 	O 	0.12560 0.54270 0.30360 -0.51900
O 	O 	0.27450 0.46600 0.30310 -0.54300
O 	O 	0.45730 0.58290 0.30360 -0.54300
O 	O 	0.53400 0.80850 0.30310 -0.54600
O 	O 	0.41710 0.87440 0.30360 -0.53800
O 	O 	0.19150 0.72550 0.19690 -0.53100
O 	O 	0.12560 0.54270 0.19640 -0.51900
O 	O 	0.27450 0.46600 0.19690 -0.54400
O 	O 	0.45730 0.58290 0.19640 -0.54400
O 	O 	0.53400 0.80850 0.19690 -0.54600
O 	O 	0.41710 0.87440 0.19640 -0.53900
O 	O 	0.33333 0.66666 0.75000 -0.82800
O 	O 	0.33333 0.66666 0.25000 -0.82800
