data_crystal

_cell_length_a 10.85110
_cell_length_b 28.88030
_cell_length_c 19.15500
_cell_angle_alpha 90.00000
_cell_angle_beta  123.90200
_cell_angle_gamma 90.00000

_symmetry_space_group_name_	'P 1'
_symmetry_space_group_name_H-M	'P 1'

loop_
_symmetry_equiv_pos_as_xyz
  x,y,z

loop_
_atom_site_label
_atom_site_type_symbol
_atom_site_fract_x
_atom_site_fract_y
_atom_site_fract_z
_atom_site_charge
Eu	Eu	0.21901 0.23008 0.28564 2.08900
O 	O 	0.10570 0.16910 0.18240 -0.50000
O 	O 	0.92010 0.21180 0.16180 -0.61500
O 	O 	0.41520 0.78660 0.76220 -0.65500
O 	O 	0.29080 0.27630 0.11310 -0.52200
O 	O 	0.16240 0.26810 0.16770 -0.57000
O 	O 	0.37590 0.63530 0.70580 -0.42600
O 	O 	0.39870 0.25550 0.42630 -0.53600
O 	O 	0.41770 0.29530 0.33900 -0.64100
O 	O 	0.87730 0.70110 0.70510 -0.50900
C 	C 	0.68470 0.10680 0.90510 0.06300
C 	C 	0.83030 0.08930 0.96660 -0.14800
H 	H 	0.86320 0.06170 0.95740 0.07900
C 	C 	0.92100 0.11440 0.03990 0.09500
H 	H 	0.01790 0.10460 0.07840 -0.00400
C 	C 	0.86910 0.15410 0.05640 -0.18800
C 	C 	0.72720 0.17060 0.99770 0.08000
H 	H 	0.69340 0.19730 0.00910 -0.00300
C 	C 	0.63690 0.14770 0.92330 -0.14800
H 	H 	0.54280 0.15930 0.88400 0.07900
C 	C 	0.59120 0.08170 0.82430 0.02600
C 	C 	0.96800 0.18030 0.13860 0.44300
C 	C 	0.63110 0.93180 0.79900 -0.19200
H 	H 	0.72000 0.94760 0.83360 0.09300
C 	C 	0.59160 0.03290 0.82410 -0.09200
H 	H 	0.65380 0.01680 0.87400 0.05800
C 	C 	0.63230 0.88460 0.79730 0.13700
H 	H 	0.72120 0.86830 0.82760 -0.01500
C 	C 	0.76420 0.31890 0.87940 0.09000
C 	C 	0.90100 0.32400 0.89100 -0.15700
H 	H 	0.90380 0.33800 0.84810 0.08700
C 	C 	0.03110 0.31020 0.96040 0.10700
H 	H 	0.12020 0.31590 0.96560 0.00400
C 	C 	0.03040 0.28750 0.02330 -0.22000
C 	C 	0.89570 0.28040 0.01490 0.12800
H 	H 	0.89200 0.26710 0.05790 0.00200
C 	C 	0.76650 0.29400 0.93930 -0.16900
H 	H 	0.67590 0.28530 0.92990 0.09500
C 	C 	0.62590 0.34180 0.80960 0.02000
C 	C 	0.16900 0.27720 0.10480 0.50600
C 	C 	0.36540 0.49080 0.71390 -0.09300
H 	H 	0.27580 0.47490 0.68890 0.06200
C 	C 	0.62640 0.38870 0.80610 -0.10000
H 	H 	0.71450 0.40450 0.84260 0.06800
C 	C 	0.36670 0.53810 0.71570 0.01000
H 	H 	0.27800 0.55410 0.69380 0.03900
C 	C 	0.75800 0.38000 0.61240 0.09400
C 	C 	0.69900 0.39130 0.52990 -0.18100
H 	H 	0.72830 0.41860 0.51730 0.09600
C 	C 	0.59490 0.36220 0.46370 0.14200
H 	H 	0.55440 0.37110 0.40830 -0.01700
C 	C 	0.55340 0.32210 0.47920 -0.21900
C 	C 	0.61100 0.31070 0.56310 0.12100
H 	H 	0.57930 0.28360 0.57470 -0.00300
C 	C 	0.71160 0.33790 0.62780 -0.17400
H 	H 	0.75040 0.32870 0.68290 0.09100
C 	C 	0.88200 0.40660 0.68270 0.01600
C 	C 	0.44660 0.28830 0.41130 0.53200
C 	C 	0.13310 0.55640 0.78310 -0.17100
H 	H 	0.22230 0.54070 0.80530 0.09100
C 	C 	0.88200 0.45520 0.68400 -0.07400
H 	H 	0.80230 0.47150 0.64010 0.05700
C 	C 	0.13240 0.60230 0.78290 0.11600
H 	H 	0.22200 0.61780 0.80510 0.00300
Eu	Eu	0.78099 0.23008 0.21436 2.09800
O 	O 	0.89430 0.16910 0.31760 -0.48300
O 	O 	0.07990 0.21180 0.33820 -0.61100
O 	O 	0.58480 0.78660 0.73780 -0.65500
O 	O 	0.70920 0.27630 0.38690 -0.52100
O 	O 	0.83760 0.26810 0.33230 -0.56700
O 	O 	0.62410 0.63530 0.79420 -0.42500
O 	O 	0.60130 0.25550 0.07370 -0.53700
O 	O 	0.58230 0.29530 0.16100 -0.64100
O 	O 	0.12270 0.70110 0.79490 -0.51600
C 	C 	0.31530 0.10680 0.59490 0.04500
C 	C 	0.16970 0.08930 0.53340 -0.11600
H 	H 	0.13680 0.06170 0.54260 0.06300
C 	C 	0.07900 0.11440 0.46010 0.03800
H 	H 	0.98210 0.10460 0.42160 0.02700
C 	C 	0.13090 0.15410 0.44360 -0.15900
C 	C 	0.27280 0.17060 0.50230 0.05600
H 	H 	0.30660 0.19730 0.49090 0.00500
C 	C 	0.36310 0.14770 0.57670 -0.12900
H 	H 	0.45720 0.15930 0.61600 0.07300
C 	C 	0.40880 0.08170 0.67570 0.03100
C 	C 	0.03200 0.18030 0.36140 0.41300
C 	C 	0.36890 0.93180 0.70100 -0.19200
H 	H 	0.28000 0.94760 0.66640 0.09100
C 	C 	0.40840 0.03290 0.67590 -0.09400
H 	H 	0.34620 0.01680 0.62600 0.05800
C 	C 	0.36770 0.88460 0.70270 0.13700
H 	H 	0.27880 0.86830 0.67240 -0.01500
C 	C 	0.23580 0.31890 0.62060 0.10500
C 	C 	0.09900 0.32400 0.60900 -0.20200
H 	H 	0.09620 0.33800 0.65190 0.09700
C 	C 	0.96890 0.31020 0.53960 0.15000
H 	H 	0.87980 0.31590 0.53440 -0.00800
C 	C 	0.96960 0.28750 0.47670 -0.21700
C 	C 	0.10430 0.28040 0.48510 0.11600
H 	H 	0.10800 0.26710 0.44210 0.00300
C 	C 	0.23350 0.29400 0.56070 -0.17600
H 	H 	0.32410 0.28530 0.57010 0.09700
C 	C 	0.37410 0.34180 0.69040 0.01300
C 	C 	0.83100 0.27720 0.39520 0.50800
C 	C 	0.63460 0.49080 0.78610 -0.09300
H 	H 	0.72420 0.47490 0.81110 0.06400
C 	C 	0.37360 0.38870 0.69390 -0.09700
H 	H 	0.28550 0.40450 0.65740 0.06500
C 	C 	0.63330 0.53810 0.78430 0.01100
H 	H 	0.72200 0.55410 0.80620 0.04100
C 	C 	0.24200 0.38000 0.88760 0.09400
C 	C 	0.30100 0.39130 0.97010 -0.18300
H 	H 	0.27170 0.41860 0.98270 0.09500
C 	C 	0.40510 0.36220 0.03630 0.14400
H 	H 	0.44560 0.37110 0.09170 -0.01800
C 	C 	0.44660 0.32210 0.02080 -0.21900
C 	C 	0.38900 0.31070 0.93690 0.12000
H 	H 	0.42070 0.28360 0.92530 -0.00400
C 	C 	0.28840 0.33790 0.87220 -0.17600
H 	H 	0.24960 0.32870 0.81710 0.08900
C 	C 	0.11800 0.40660 0.81730 0.00900
C 	C 	0.55340 0.28830 0.08870 0.53200
C 	C 	0.86690 0.55640 0.71690 -0.16200
H 	H 	0.77770 0.54070 0.69470 0.08900
C 	C 	0.11800 0.45520 0.81600 -0.08400
H 	H 	0.19770 0.47150 0.85990 0.05900
C 	C 	0.86760 0.60230 0.71710 0.12500
H 	H 	0.77800 0.61780 0.69490 0.00200
Eu	Eu	0.78099 0.76992 0.71436 2.09900
O 	O 	0.89430 0.83090 0.81760 -0.48200
O 	O 	0.07990 0.78820 0.83820 -0.61200
O 	O 	0.58480 0.21340 0.23780 -0.65500
O 	O 	0.70920 0.72370 0.88690 -0.52100
O 	O 	0.83760 0.73190 0.83230 -0.56600
O 	O 	0.62410 0.36470 0.29420 -0.42500
O 	O 	0.60130 0.74450 0.57370 -0.53700
O 	O 	0.58230 0.70470 0.66100 -0.64100
O 	O 	0.12270 0.29890 0.29490 -0.51600
C 	C 	0.31530 0.89320 0.09490 0.04500
C 	C 	0.16970 0.91070 0.03340 -0.11300
H 	H 	0.13680 0.93830 0.04260 0.06200
C 	C 	0.07900 0.88560 0.96010 0.03400
H 	H 	0.98210 0.89540 0.92160 0.02900
C 	C 	0.13090 0.84590 0.94360 -0.16000
C 	C 	0.27280 0.82940 0.00230 0.06000
H 	H 	0.30660 0.80270 0.99090 0.00300
C 	C 	0.36310 0.85230 0.07670 -0.13000
H 	H 	0.45720 0.84070 0.11600 0.07300
C 	C 	0.40880 0.91830 0.17570 0.03100
C 	C 	0.03200 0.81970 0.86140 0.41200
C 	C 	0.36890 0.06820 0.20100 -0.19200
H 	H 	0.28000 0.05240 0.16640 0.09100
C 	C 	0.40840 0.96710 0.17590 -0.09400
H 	H 	0.34620 0.98320 0.12600 0.05800
C 	C 	0.36770 0.11540 0.20270 0.13700
H 	H 	0.27880 0.13170 0.17240 -0.01500
C 	C 	0.23580 0.68110 0.12060 0.09800
C 	C 	0.09900 0.67600 0.10900 -0.19300
H 	H 	0.09620 0.66200 0.15190 0.09400
C 	C 	0.96890 0.68980 0.03960 0.14000
H 	H 	0.87980 0.68410 0.03440 -0.00500
C 	C 	0.96960 0.71250 0.97670 -0.21000
C 	C 	0.10430 0.71960 0.98510 0.10600
H 	H 	0.10800 0.73290 0.94210 0.00600
C 	C 	0.23350 0.70600 0.06070 -0.16700
H 	H 	0.32410 0.71470 0.07010 0.09400
C 	C 	0.37410 0.65820 0.19040 0.01600
C 	C 	0.83100 0.72280 0.89520 0.50600
C 	C 	0.63460 0.50920 0.28610 -0.09300
H 	H 	0.72420 0.52510 0.31110 0.06400
C 	C 	0.37360 0.61130 0.19390 -0.09800
H 	H 	0.28550 0.59550 0.15740 0.06600
C 	C 	0.63330 0.46190 0.28430 0.01100
H 	H 	0.72200 0.44590 0.30620 0.04100
C 	C 	0.24200 0.62000 0.38760 0.09400
C 	C 	0.30100 0.60870 0.47010 -0.18200
H 	H 	0.27170 0.58140 0.48270 0.09500
C 	C 	0.40510 0.63780 0.53630 0.14200
H 	H 	0.44560 0.62890 0.59170 -0.01800
C 	C 	0.44660 0.67790 0.52080 -0.22000
C 	C 	0.38900 0.68930 0.43690 0.12100
H 	H 	0.42070 0.71640 0.42530 -0.00400
C 	C 	0.28840 0.66210 0.37220 -0.17600
H 	H 	0.24960 0.67130 0.31710 0.08900
C 	C 	0.11800 0.59340 0.31730 0.00800
C 	C 	0.55340 0.71170 0.58870 0.53200
C 	C 	0.86690 0.44360 0.21690 -0.16300
H 	H 	0.77770 0.45930 0.19470 0.08900
C 	C 	0.11800 0.54480 0.31600 -0.08400
H 	H 	0.19770 0.52850 0.35990 0.05900
C 	C 	0.86760 0.39770 0.21710 0.12400
H 	H 	0.77800 0.38220 0.19490 0.00200
Eu	Eu	0.21901 0.76992 0.78564 2.08900
O 	O 	0.10570 0.83090 0.68240 -0.50000
O 	O 	0.92010 0.78820 0.66180 -0.61400
O 	O 	0.41520 0.21340 0.26220 -0.65400
O 	O 	0.29080 0.72370 0.61310 -0.52200
O 	O 	0.16240 0.73190 0.66770 -0.57100
O 	O 	0.37590 0.36470 0.20580 -0.42600
O 	O 	0.39870 0.74450 0.92630 -0.53600
O 	O 	0.41770 0.70470 0.83900 -0.64100
O 	O 	0.87730 0.29890 0.20510 -0.51000
C 	C 	0.68470 0.89320 0.40510 0.06400
C 	C 	0.83030 0.91070 0.46660 -0.15100
H 	H 	0.86320 0.93830 0.45740 0.08000
C 	C 	0.92100 0.88560 0.53990 0.10000
H 	H 	0.01790 0.89540 0.57840 -0.00700
C 	C 	0.86910 0.84590 0.55640 -0.19000
C 	C 	0.72720 0.82940 0.49770 0.08200
H 	H 	0.69340 0.80270 0.50910 -0.00400
C 	C 	0.63690 0.85230 0.42330 -0.15000
H 	H 	0.54280 0.84070 0.38400 0.07900
C 	C 	0.59120 0.91830 0.32430 0.02500
C 	C 	0.96800 0.81970 0.63860 0.44500
C 	C 	0.63110 0.06820 0.29900 -0.19200
H 	H 	0.72000 0.05240 0.33360 0.09300
C 	C 	0.59160 0.96710 0.32410 -0.09200
H 	H 	0.65380 0.98320 0.37400 0.05800
C 	C 	0.63230 0.11540 0.29730 0.13800
H 	H 	0.72120 0.13170 0.32760 -0.01500
C 	C 	0.76420 0.68110 0.37940 0.09500
C 	C 	0.90100 0.67600 0.39100 -0.16600
H 	H 	0.90380 0.66200 0.34810 0.08900
C 	C 	0.03110 0.68980 0.46040 0.11800
H 	H 	0.12020 0.68410 0.46560 0.00000
C 	C 	0.03040 0.71250 0.52330 -0.22900
C 	C 	0.89570 0.71960 0.51490 0.13600
H 	H 	0.89200 0.73290 0.55790 -0.00000
C 	C 	0.76650 0.70600 0.43930 -0.17600
H 	H 	0.67590 0.71470 0.42990 0.09700
C 	C 	0.62590 0.65820 0.30960 0.01800
C 	C 	0.16900 0.72280 0.60480 0.50900
C 	C 	0.36540 0.50920 0.21390 -0.09300
H 	H 	0.27580 0.52510 0.18890 0.06200
C 	C 	0.62640 0.61130 0.30610 -0.09900
H 	H 	0.71450 0.59550 0.34260 0.06800
C 	C 	0.36670 0.46190 0.21570 0.01000
H 	H 	0.27800 0.44590 0.19380 0.04000
C 	C 	0.75800 0.62000 0.11240 0.09400
C 	C 	0.69900 0.60870 0.02990 -0.18100
H 	H 	0.72830 0.58140 0.01730 0.09600
C 	C 	0.59490 0.63780 0.96370 0.14200
H 	H 	0.55440 0.62890 0.90830 -0.01700
C 	C 	0.55340 0.67790 0.97920 -0.22000
C 	C 	0.61100 0.68930 0.06310 0.12200
H 	H 	0.57930 0.71640 0.07470 -0.00300
C 	C 	0.71160 0.66210 0.12780 -0.17500
H 	H 	0.75040 0.67130 0.18290 0.09100
C 	C 	0.88200 0.59340 0.18270 0.01500
C 	C 	0.44660 0.71170 0.91130 0.53200
C 	C 	0.13310 0.44360 0.28310 -0.17100
H 	H 	0.22230 0.45930 0.30530 0.09100
C 	C 	0.88200 0.54480 0.18400 -0.07500
H 	H 	0.80230 0.52850 0.14010 0.05700
C 	C 	0.13240 0.39770 0.28290 0.11600
H 	H 	0.22200 0.38220 0.30510 0.00300
Eu	Eu	0.50000 0.70868 0.75000 2.16600
C 	C 	0.50000 0.10510 0.75000 -0.10100
H 	H 	0.50000 0.13730 0.75000 0.06500
C 	C 	0.50000 0.00870 0.75000 0.01200
C 	C 	0.50000 0.95700 0.75000 0.09500
C 	C 	0.50000 0.86190 0.75000 -0.27200
C 	C 	0.50000 0.81000 0.75000 0.53300
C 	C 	0.50000 0.31620 0.75000 -0.09100
H 	H 	0.50000 0.28400 0.75000 0.06000
C 	C 	0.50000 0.41400 0.75000 0.04100
C 	C 	0.50000 0.46590 0.75000 0.03000
C 	C 	0.50000 0.56320 0.75000 -0.08100
C 	C 	0.50000 0.61340 0.75000 0.28600
Eu	Eu	0.50000 0.29132 0.25000 2.16600
C 	C 	0.50000 0.89490 0.25000 -0.10100
H 	H 	0.50000 0.86270 0.25000 0.06400
C 	C 	0.50000 0.99130 0.25000 0.01200
C 	C 	0.50000 0.04300 0.25000 0.09500
C 	C 	0.50000 0.13810 0.25000 -0.27200
C 	C 	0.50000 0.19000 0.25000 0.53300
C 	C 	0.50000 0.68380 0.25000 -0.09200
H 	H 	0.50000 0.71600 0.25000 0.06000
C 	C 	0.50000 0.58600 0.25000 0.04100
C 	C 	0.50000 0.53410 0.25000 0.03000
C 	C 	0.50000 0.43680 0.25000 -0.08100
C 	C 	0.50000 0.38660 0.25000 0.28600
C 	C 	0.00000 0.38350 0.75000 -0.09800
H 	H 	0.00000 0.35130 0.75000 0.05600
C 	C 	0.00000 0.47890 0.75000 0.00400
C 	C 	0.00000 0.53090 0.75000 0.07600
C 	C 	0.00000 0.62910 0.75000 -0.20800
C 	C 	0.00000 0.68000 0.75000 0.48900
C 	C 	0.00000 0.61650 0.25000 -0.09700
H 	H 	0.00000 0.64870 0.25000 0.05600
C 	C 	0.00000 0.52110 0.25000 0.00500
C 	C 	0.00000 0.46910 0.25000 0.07700
C 	C 	0.00000 0.37090 0.25000 -0.20700
C 	C 	0.00000 0.32000 0.25000 0.49000
