data_crystal

_cell_length_a 9.97600
_cell_length_b 10.35900
_cell_length_c 12.98000
_cell_angle_alpha 90.00000
_cell_angle_beta  90.00000
_cell_angle_gamma 90.00000

_symmetry_space_group_name_	'P 1'
_symmetry_space_group_name_H-M	'P 1'

loop_
_symmetry_equiv_pos_as_xyz
  x,y,z

loop_
_atom_site_label
_atom_site_type_symbol
_atom_site_fract_x
_atom_site_fract_y
_atom_site_fract_z
_atom_site_charge
Zn	Zn	0.97150 0.20190 0.63520 1.25300
P 	P 	0.22640 0.21470 0.49650 0.50800
P 	P 	0.88950 0.43990 0.78590 0.55500
O 	O 	0.93570 0.30980 0.75190 -0.40500
O 	O 	0.12200 0.27590 0.56570 -0.39200
O 	O 	0.99900 0.52590 0.82170 -0.40300
O 	O 	0.31220 0.32110 0.44940 -0.37500
O 	O 	0.78470 0.41750 0.86980 -0.16700
O 	O 	0.81990 0.51370 0.69640 -0.19000
O 	O 	0.31070 0.11370 0.54790 -0.19900
O 	O 	0.15090 0.14210 0.40620 -0.18000
Zn	Zn	0.52850 0.79810 0.13520 1.25300
P 	P 	0.27360 0.78530 0.99650 0.50500
P 	P 	0.61050 0.56010 0.28590 0.55500
O 	O 	0.56430 0.69020 0.25190 -0.40400
O 	O 	0.37800 0.72410 0.06570 -0.39100
O 	O 	0.50100 0.47410 0.32170 -0.40500
O 	O 	0.18780 0.67890 0.94940 -0.37600
O 	O 	0.71530 0.58250 0.36980 -0.16800
O 	O 	0.68010 0.48630 0.19640 -0.19200
O 	O 	0.18930 0.88630 0.04790 -0.19700
O 	O 	0.34910 0.85790 0.90620 -0.18200
Zn	Zn	0.02850 0.70190 0.86480 1.25100
P 	P 	0.77360 0.71470 0.00350 0.50500
P 	P 	0.11050 0.93990 0.71410 0.54800
O 	O 	0.06430 0.80980 0.74810 -0.40500
O 	O 	0.87800 0.77590 0.93430 -0.38800
O 	O 	0.00100 0.02590 0.67830 -0.40100
O 	O 	0.68780 0.82110 0.05060 -0.37400
O 	O 	0.21530 0.91750 0.63020 -0.16800
O 	O 	0.18010 0.01370 0.80360 -0.18800
O 	O 	0.68930 0.61370 0.95210 -0.19700
O 	O 	0.84910 0.64210 0.09380 -0.18100
Zn	Zn	0.47150 0.29810 0.36480 1.25300
P 	P 	0.72640 0.28530 0.50350 0.50800
P 	P 	0.38950 0.06010 0.21410 0.55200
O 	O 	0.43570 0.19020 0.24810 -0.40500
O 	O 	0.62200 0.22410 0.43430 -0.39400
O 	O 	0.49900 0.97410 0.17830 -0.40400
O 	O 	0.81220 0.17890 0.55060 -0.37700
O 	O 	0.28470 0.08250 0.13020 -0.16800
O 	O 	0.31990 0.98630 0.30360 -0.19000
O 	O 	0.81070 0.38630 0.45210 -0.19900
O 	O 	0.65090 0.35790 0.59380 -0.18100
