data_crystal

_cell_length_a 14.09070
_cell_length_b 12.14340
_cell_length_c 14.63450
_cell_angle_alpha 90.00000
_cell_angle_beta  106.05300
_cell_angle_gamma 90.00000

_symmetry_space_group_name_	'P 1'
_symmetry_space_group_name_H-M	'P 1'

loop_
_symmetry_equiv_pos_as_xyz
  x,y,z

loop_
_atom_site_label
_atom_site_type_symbol
_atom_site_fract_x
_atom_site_fract_y
_atom_site_fract_z
_atom_site_charge
Zn	Zn	0.19631 0.24317 0.07426 1.20900
Zn	Zn	0.35012 0.02137 0.15646 1.22900
O 	O 	0.28840 0.23311 0.97612 -0.43800
O 	O 	0.38673 0.09203 0.04120 -0.46200
O 	O 	0.60858 0.25342 0.67239 -0.40800
O 	O 	0.67070 0.09833 0.75010 -0.42400
O 	O 	0.32297 0.28772 0.17506 -0.46400
O 	O 	0.39655 0.13683 0.25312 -0.47500
O 	O 	0.67459 0.58896 0.51545 -0.28100
O 	O 	0.71046 0.43113 0.59632 -0.54300
N 	N 	0.53813 0.09302 0.84421 -0.22200
N 	N 	0.58102 0.32033 0.46120 -0.22900
C 	C 	0.47592 0.08881 0.89872 0.08200
H 	H 	0.47280 0.02290 0.93270 0.02100
C 	C 	0.41548 0.17655 0.90803 -0.12800
C 	C 	0.41340 0.26795 0.85094 0.03300
H 	H 	0.37090 0.32810 0.85290 0.03200
C 	C 	0.47474 0.27077 0.79023 -0.05700
H 	H 	0.47310 0.33210 0.74950 0.06200
C 	C 	0.53791 0.18318 0.79021 -0.02300
C 	C 	0.35720 0.16796 0.98103 0.41400
C 	C 	0.61179 0.17848 0.73240 0.32000
C 	C 	0.51730 0.26199 0.39423 0.09500
H 	H 	0.51760 0.18400 0.39970 -0.00900
C 	C 	0.45038 0.31102 0.31667 -0.13300
C 	C 	0.44759 0.42538 0.31073 0.05000
H 	H 	0.40070 0.46120 0.26020 0.03400
C 	C 	0.51440 0.48656 0.37990 -0.07200
H 	H 	0.51450 0.56470 0.37720 0.07400
C 	C 	0.58095 0.43064 0.45286 -0.00300
C 	C 	0.38361 0.23977 0.24173 0.41100
C 	C 	0.66055 0.49132 0.52639 0.30400
Zn	Zn	0.30369 0.74317 0.42574 1.21000
Zn	Zn	0.14988 0.52137 0.34354 1.23000
O 	O 	0.21160 0.73311 0.52388 -0.43700
O 	O 	0.11327 0.59203 0.45880 -0.45500
O 	O 	0.89142 0.75342 0.82761 -0.41000
O 	O 	0.82930 0.59833 0.74990 -0.42600
O 	O 	0.17703 0.78772 0.32494 -0.46200
O 	O 	0.10345 0.63683 0.24688 -0.47500
O 	O 	0.82541 0.08896 0.98455 -0.27300
O 	O 	0.78954 0.93113 0.90368 -0.54200
N 	N 	0.96187 0.59302 0.65579 -0.22300
N 	N 	0.91898 0.82033 0.03880 -0.22900
C 	C 	0.02408 0.58881 0.60128 0.08100
H 	H 	0.02720 0.52290 0.56730 0.02000
C 	C 	0.08452 0.67655 0.59197 -0.12600
C 	C 	0.08660 0.76795 0.64906 0.03000
H 	H 	0.12910 0.82810 0.64710 0.03300
C 	C 	0.02526 0.77077 0.70977 -0.05400
H 	H 	0.02690 0.83210 0.75050 0.06100
C 	C 	0.96209 0.68318 0.70979 -0.02600
C 	C 	0.14280 0.66796 0.51897 0.40600
C 	C 	0.88821 0.67848 0.76760 0.32100
C 	C 	0.98270 0.76199 0.10577 0.09600
H 	H 	0.98240 0.68400 0.10030 -0.00800
C 	C 	0.04962 0.81102 0.18333 -0.13200
C 	C 	0.05241 0.92538 0.18927 0.04800
H 	H 	0.09930 0.96120 0.23980 0.03600
C 	C 	0.98560 0.98656 0.12010 -0.06700
H 	H 	0.98550 0.06470 0.12280 0.07000
C 	C 	0.91905 0.93064 0.04714 0.00500
C 	C 	0.11639 0.73977 0.25827 0.41100
C 	C 	0.83945 0.99132 0.97361 0.28800
Zn	Zn	0.80369 0.75683 0.92574 1.20900
Zn	Zn	0.64988 0.97863 0.84354 1.22900
O 	O 	0.71160 0.76689 0.02388 -0.43800
O 	O 	0.61327 0.90797 0.95880 -0.46200
O 	O 	0.39142 0.74658 0.32761 -0.40800
O 	O 	0.32930 0.90167 0.24990 -0.42400
O 	O 	0.67703 0.71228 0.82494 -0.46400
O 	O 	0.60345 0.86317 0.74688 -0.47500
O 	O 	0.32541 0.41104 0.48455 -0.28100
O 	O 	0.28954 0.56887 0.40368 -0.54300
N 	N 	0.46187 0.90698 0.15579 -0.22200
N 	N 	0.41898 0.67967 0.53880 -0.22900
C 	C 	0.52408 0.91119 0.10128 0.08200
H 	H 	0.52720 0.97710 0.06730 0.02100
C 	C 	0.58452 0.82345 0.09197 -0.12800
C 	C 	0.58660 0.73205 0.14906 0.03300
H 	H 	0.62910 0.67190 0.14710 0.03200
C 	C 	0.52526 0.72923 0.20977 -0.05700
H 	H 	0.52690 0.66790 0.25050 0.06200
C 	C 	0.46209 0.81682 0.20979 -0.02300
C 	C 	0.64280 0.83204 0.01897 0.41400
C 	C 	0.38821 0.82152 0.26760 0.32000
C 	C 	0.48270 0.73801 0.60577 0.09500
H 	H 	0.48240 0.81600 0.60030 -0.00900
C 	C 	0.54962 0.68898 0.68333 -0.13300
C 	C 	0.55241 0.57462 0.68927 0.05000
H 	H 	0.59930 0.53880 0.73980 0.03400
C 	C 	0.48560 0.51344 0.62010 -0.07200
H 	H 	0.48550 0.43530 0.62280 0.07400
C 	C 	0.41905 0.56936 0.54714 -0.00300
C 	C 	0.61639 0.76023 0.75827 0.41100
C 	C 	0.33945 0.50868 0.47361 0.30400
Zn	Zn	0.69631 0.25683 0.57426 1.21000
Zn	Zn	0.85012 0.47863 0.65646 1.23000
O 	O 	0.78840 0.26689 0.47612 -0.43700
O 	O 	0.88673 0.40797 0.54120 -0.45500
O 	O 	0.10858 0.24658 0.17239 -0.41000
O 	O 	0.17070 0.40167 0.25010 -0.42600
O 	O 	0.82297 0.21228 0.67506 -0.46200
O 	O 	0.89655 0.36317 0.75312 -0.47500
O 	O 	0.17459 0.91104 0.01545 -0.27300
O 	O 	0.21046 0.06887 0.09632 -0.54200
N 	N 	0.03813 0.40698 0.34421 -0.22300
N 	N 	0.08102 0.17967 0.96120 -0.22900
C 	C 	0.97592 0.41119 0.39872 0.08100
H 	H 	0.97280 0.47710 0.43270 0.02000
C 	C 	0.91548 0.32345 0.40803 -0.12600
C 	C 	0.91340 0.23205 0.35094 0.03000
H 	H 	0.87090 0.17190 0.35290 0.03300
C 	C 	0.97474 0.22923 0.29023 -0.05400
H 	H 	0.97310 0.16790 0.24950 0.06100
C 	C 	0.03791 0.31682 0.29021 -0.02600
C 	C 	0.85720 0.33204 0.48103 0.40600
C 	C 	0.11179 0.32152 0.23240 0.32100
C 	C 	0.01730 0.23801 0.89423 0.09600
H 	H 	0.01760 0.31600 0.89970 -0.00800
C 	C 	0.95038 0.18898 0.81667 -0.13200
C 	C 	0.94759 0.07462 0.81073 0.04800
H 	H 	0.90070 0.03880 0.76020 0.03600
C 	C 	0.01440 0.01344 0.87990 -0.06700
H 	H 	0.01450 0.93530 0.87720 0.07000
C 	C 	0.08095 0.06936 0.95286 0.00500
C 	C 	0.88361 0.26023 0.74173 0.41100
C 	C 	0.16055 0.00868 0.02639 0.28800
