data_crystal

_cell_length_a 25.90510
_cell_length_b 25.90510
_cell_length_c 20.46030
_cell_angle_alpha 90.00000
_cell_angle_beta  90.00000
_cell_angle_gamma 120.00000

_symmetry_space_group_name_	'P 1'
_symmetry_space_group_name_H-M	'P 1'

loop_
_symmetry_equiv_pos_as_xyz
  x,y,z

loop_
_atom_site_label
_atom_site_type_symbol
_atom_site_fract_x
_atom_site_fract_y
_atom_site_fract_z
_atom_site_charge
Cu	Cu	0.01751 0.39113 0.41815 0.77100
Cu	Cu	0.95443 0.26587 0.41165 0.77000
Cu	Cu	0.01120 0.34140 0.19442 0.76600
I 	I 	0.03851 0.33048 0.32382 -0.57900
I 	I 	0.99982 0.22443 0.49807 -0.43500
I 	I 	0.91053 0.33911 0.17750 -0.47700
I 	I 	0.90704 0.32682 0.46815 -0.56300
C 	C 	0.87310 0.21260 0.30010 -0.03100
H 	H 	0.85970 0.24050 0.30780 0.03200
H 	H 	0.91010 0.23290 0.27650 0.00300
C 	C 	0.82770 0.16390 0.25920 -0.06600
H 	H 	0.84720 0.15790 0.22250 0.03500
H 	H 	0.79930 0.17420 0.24280 0.04100
C 	C 	0.89870 0.14810 0.34710 -0.08300
H 	H 	0.93290 0.16360 0.31900 0.05400
H 	H 	0.90790 0.13500 0.38710 0.05800
C 	C 	0.84370 0.09650 0.31350 -0.05200
H 	H 	0.82640 0.06270 0.34240 0.04700
H 	H 	0.85660 0.08530 0.27460 0.04500
C 	C 	0.82960 0.16550 0.39830 -0.08700
H 	H 	0.83510 0.14540 0.43470 0.05400
H 	H 	0.82050 0.19470 0.41520 0.05700
C 	C 	0.77870 0.12110 0.35690 -0.02500
H 	H 	0.75150 0.13540 0.34930 0.03100
H 	H 	0.75770 0.08390 0.37990 -0.00300
N 	N 	0.88430 0.19520 0.36140 -0.17300
N 	N 	0.79780 0.11060 0.29570 -0.17900
Cu	Cu	0.68418 0.72446 0.75148 0.77000
Cu	Cu	0.62110 0.59920 0.74498 0.76900
Cu	Cu	0.67787 0.67473 0.52775 0.76500
I 	I 	0.70518 0.66381 0.65715 -0.58000
I 	I 	0.66649 0.55776 0.83140 -0.43700
I 	I 	0.57720 0.67244 0.51083 -0.47900
I 	I 	0.57371 0.66015 0.80148 -0.56400
C 	C 	0.53977 0.54593 0.63343 -0.03200
H 	H 	0.52637 0.57383 0.64113 0.03200
H 	H 	0.57677 0.56623 0.60983 0.00200
C 	C 	0.49437 0.49723 0.59253 -0.06600
H 	H 	0.51387 0.49123 0.55583 0.03500
H 	H 	0.46597 0.50753 0.57613 0.04100
C 	C 	0.56537 0.48143 0.68043 -0.08300
H 	H 	0.59957 0.49693 0.65233 0.05400
H 	H 	0.57457 0.46833 0.72043 0.05700
C 	C 	0.51037 0.42983 0.64683 -0.05200
H 	H 	0.49307 0.39603 0.67573 0.04700
H 	H 	0.52327 0.41863 0.60793 0.04500
C 	C 	0.49627 0.49883 0.73163 -0.08700
H 	H 	0.50177 0.47873 0.76803 0.05400
H 	H 	0.48717 0.52803 0.74853 0.05700
C 	C 	0.44537 0.45443 0.69023 -0.02500
H 	H 	0.41817 0.46873 0.68263 0.03100
H 	H 	0.42437 0.41723 0.71323 -0.00300
N 	N 	0.55097 0.52853 0.69473 -0.17300
N 	N 	0.46447 0.44393 0.62903 -0.17900
Cu	Cu	0.35084 0.05780 0.08482 0.77000
Cu	Cu	0.28776 0.93254 0.07832 0.76800
Cu	Cu	0.34453 0.00807 0.86109 0.76500
I 	I 	0.37184 0.99715 0.99049 -0.57800
I 	I 	0.33315 0.89110 0.16474 -0.43800
I 	I 	0.24386 0.00578 0.84417 -0.47900
I 	I 	0.24037 0.99349 0.13482 -0.56400
C 	C 	0.20643 0.87927 0.96677 -0.03000
H 	H 	0.19303 0.90717 0.97447 0.03200
H 	H 	0.24343 0.89957 0.94317 0.00200
C 	C 	0.16103 0.83057 0.92587 -0.06700
H 	H 	0.18053 0.82457 0.88917 0.03500
H 	H 	0.13263 0.84087 0.90947 0.04200
C 	C 	0.23203 0.81477 0.01377 -0.08900
H 	H 	0.26623 0.83027 0.98567 0.05700
H 	H 	0.24123 0.80167 0.05377 0.05900
C 	C 	0.17703 0.76317 0.98017 -0.04500
H 	H 	0.15973 0.72937 0.00907 0.04400
H 	H 	0.18993 0.75197 0.94127 0.04300
C 	C 	0.16293 0.83217 0.06497 -0.08700
H 	H 	0.16843 0.81207 0.10137 0.05400
H 	H 	0.15383 0.86137 0.08187 0.05700
C 	C 	0.11203 0.78777 0.02357 -0.02700
H 	H 	0.08483 0.80207 0.01597 0.03100
H 	H 	0.09103 0.75057 0.04657 -0.00300
N 	N 	0.21763 0.86187 0.02807 -0.17300
N 	N 	0.13113 0.77727 0.96237 -0.17900
Cu	Cu	0.60887 0.62638 0.41815 0.77000
Cu	Cu	0.73413 0.68856 0.41165 0.76900
Cu	Cu	0.65860 0.66980 0.19442 0.76500
I 	I 	0.66952 0.70803 0.32382 -0.58000
I 	I 	0.77557 0.77539 0.49807 -0.43700
I 	I 	0.66089 0.57142 0.17750 -0.47900
I 	I 	0.67318 0.58022 0.46815 -0.56400
C 	C 	0.78740 0.66050 0.30010 -0.03200
H 	H 	0.75950 0.61920 0.30780 0.03200
H 	H 	0.76710 0.67720 0.27650 0.00200
C 	C 	0.83610 0.66380 0.25920 -0.06600
H 	H 	0.84210 0.68930 0.22250 0.03500
H 	H 	0.82580 0.62510 0.24280 0.04100
C 	C 	0.85190 0.75060 0.34710 -0.08300
H 	H 	0.83640 0.76930 0.31900 0.05400
H 	H 	0.86500 0.77290 0.38710 0.05700
C 	C 	0.90350 0.74720 0.31350 -0.05200
H 	H 	0.93730 0.76370 0.34240 0.04700
H 	H 	0.91470 0.77130 0.27460 0.04500
C 	C 	0.83450 0.66410 0.39830 -0.08700
H 	H 	0.85460 0.68970 0.43470 0.05400
H 	H 	0.80530 0.62580 0.41520 0.05700
C 	C 	0.87890 0.65760 0.35690 -0.02500
H 	H 	0.86460 0.61610 0.34930 0.03100
H 	H 	0.91610 0.67380 0.37990 -0.00300
N 	N 	0.80480 0.68910 0.36140 -0.17300
N 	N 	0.88940 0.68720 0.29570 -0.17900
Cu	Cu	0.27554 0.95971 0.75148 0.77000
Cu	Cu	0.40080 0.02189 0.74498 0.76900
Cu	Cu	0.32527 0.00313 0.52775 0.76500
I 	I 	0.33619 0.04136 0.65715 -0.58000
I 	I 	0.44224 0.10872 0.83140 -0.43800
I 	I 	0.32756 0.90475 0.51083 -0.47900
I 	I 	0.33985 0.91355 0.80148 -0.56300
C 	C 	0.45407 0.99383 0.63343 -0.03000
H 	H 	0.42617 0.95253 0.64113 0.03100
H 	H 	0.43377 0.01053 0.60983 0.00200
C 	C 	0.50277 0.99713 0.59253 -0.06600
H 	H 	0.50877 0.02263 0.55583 0.03500
H 	H 	0.49247 0.95843 0.57613 0.04100
C 	C 	0.51857 0.08393 0.68043 -0.08300
H 	H 	0.50307 0.10263 0.65233 0.05400
H 	H 	0.53167 0.10623 0.72043 0.05700
C 	C 	0.57017 0.08053 0.64683 -0.05200
H 	H 	0.60397 0.09703 0.67573 0.04700
H 	H 	0.58137 0.10463 0.60793 0.04500
C 	C 	0.50117 0.99743 0.73163 -0.08600
H 	H 	0.52127 0.02303 0.76803 0.05300
H 	H 	0.47197 0.95913 0.74853 0.05700
C 	C 	0.54557 0.99093 0.69023 -0.02500
H 	H 	0.53127 0.94943 0.68263 0.03100
H 	H 	0.58277 0.00713 0.71323 -0.00300
N 	N 	0.47147 0.02243 0.69473 -0.17300
N 	N 	0.55607 0.02053 0.62903 -0.18000
Cu	Cu	0.94220 0.29305 0.08482 0.77000
Cu	Cu	0.06746 0.35523 0.07832 0.76800
Cu	Cu	0.99193 0.33647 0.86109 0.76500
I 	I 	0.00285 0.37470 0.99049 -0.57900
I 	I 	0.10890 0.44206 0.16474 -0.43800
I 	I 	0.99422 0.23809 0.84417 -0.47900
I 	I 	0.00651 0.24689 0.13482 -0.56400
C 	C 	0.12073 0.32717 0.96677 -0.03100
H 	H 	0.09283 0.28587 0.97447 0.03200
H 	H 	0.10043 0.34387 0.94317 0.00200
C 	C 	0.16943 0.33047 0.92587 -0.06700
H 	H 	0.17543 0.35597 0.88917 0.03500
H 	H 	0.15913 0.29177 0.90947 0.04100
C 	C 	0.18523 0.41727 0.01377 -0.08500
H 	H 	0.16973 0.43597 0.98567 0.05500
H 	H 	0.19833 0.43957 0.05377 0.05800
C 	C 	0.23683 0.41387 0.98017 -0.04900
H 	H 	0.27063 0.43037 0.00907 0.04600
H 	H 	0.24803 0.43797 0.94127 0.04400
C 	C 	0.16783 0.33077 0.06497 -0.08700
H 	H 	0.18793 0.35637 0.10137 0.05400
H 	H 	0.13863 0.29247 0.08187 0.05700
C 	C 	0.21223 0.32427 0.02357 -0.02600
H 	H 	0.19793 0.28277 0.01597 0.03100
H 	H 	0.24943 0.34047 0.04657 -0.00300
N 	N 	0.13813 0.35577 0.02807 -0.17300
N 	N 	0.22273 0.35387 0.96237 -0.18000
Cu	Cu	0.37362 0.98249 0.41815 0.77000
Cu	Cu	0.31144 0.04557 0.41165 0.76900
Cu	Cu	0.33020 0.98880 0.19442 0.76500
I 	I 	0.29197 0.96149 0.32382 -0.57900
I 	I 	0.22461 0.00018 0.49807 -0.43700
I 	I 	0.42858 0.08947 0.17750 -0.47900
I 	I 	0.41978 0.09296 0.46815 -0.56400
C 	C 	0.33950 0.12690 0.30010 -0.03200
H 	H 	0.38080 0.14030 0.30780 0.03200
H 	H 	0.32280 0.08990 0.27650 0.00300
C 	C 	0.33620 0.17230 0.25920 -0.06600
H 	H 	0.31070 0.15280 0.22250 0.03500
H 	H 	0.37490 0.20070 0.24280 0.04100
C 	C 	0.24940 0.10130 0.34710 -0.08300
H 	H 	0.23070 0.06710 0.31900 0.05400
H 	H 	0.22710 0.09210 0.38710 0.05700
C 	C 	0.25280 0.15630 0.31350 -0.05200
H 	H 	0.23630 0.17360 0.34240 0.04700
H 	H 	0.22870 0.14340 0.27460 0.04500
C 	C 	0.33590 0.17040 0.39830 -0.08700
H 	H 	0.31030 0.16490 0.43470 0.05400
H 	H 	0.37420 0.17950 0.41520 0.05700
C 	C 	0.34240 0.22130 0.35690 -0.02500
H 	H 	0.38390 0.24850 0.34930 0.03100
H 	H 	0.32620 0.24230 0.37990 -0.00300
N 	N 	0.31090 0.11570 0.36140 -0.17300
N 	N 	0.31280 0.20220 0.29570 -0.17900
Cu	Cu	0.04029 0.31582 0.75148 0.77000
Cu	Cu	0.97811 0.37890 0.74498 0.76900
Cu	Cu	0.99687 0.32213 0.52775 0.76500
I 	I 	0.95864 0.29482 0.65715 -0.57900
I 	I 	0.89128 0.33351 0.83140 -0.43800
I 	I 	0.09525 0.42280 0.51083 -0.47900
I 	I 	0.08645 0.42629 0.80148 -0.56400
C 	C 	0.00617 0.46023 0.63343 -0.03100
H 	H 	0.04747 0.47363 0.64113 0.03200
H 	H 	0.98947 0.42323 0.60983 0.00200
C 	C 	0.00287 0.50563 0.59253 -0.06600
H 	H 	0.97737 0.48613 0.55583 0.03500
H 	H 	0.04157 0.53403 0.57613 0.04100
C 	C 	0.91607 0.43463 0.68043 -0.08300
H 	H 	0.89737 0.40043 0.65233 0.05400
H 	H 	0.89377 0.42543 0.72043 0.05700
C 	C 	0.91947 0.48963 0.64683 -0.05200
H 	H 	0.90297 0.50693 0.67573 0.04700
H 	H 	0.89537 0.47673 0.60793 0.04500
C 	C 	0.00257 0.50373 0.73163 -0.08600
H 	H 	0.97697 0.49823 0.76803 0.05300
H 	H 	0.04087 0.51283 0.74853 0.05700
C 	C 	0.00907 0.55463 0.69023 -0.02400
H 	H 	0.05057 0.58183 0.68263 0.03100
H 	H 	0.99287 0.57563 0.71323 -0.00300
N 	N 	0.97757 0.44903 0.69473 -0.17300
N 	N 	0.97947 0.53553 0.62903 -0.18000
Cu	Cu	0.70695 0.64916 0.08482 0.77000
Cu	Cu	0.64477 0.71224 0.07832 0.76900
Cu	Cu	0.66353 0.65547 0.86109 0.76500
I 	I 	0.62530 0.62816 0.99049 -0.58000
I 	I 	0.55794 0.66685 0.16474 -0.43700
I 	I 	0.76191 0.75614 0.84417 -0.47900
I 	I 	0.75311 0.75963 0.13482 -0.56400
C 	C 	0.67283 0.79357 0.96677 -0.03100
H 	H 	0.71413 0.80697 0.97447 0.03200
H 	H 	0.65613 0.75657 0.94317 0.00200
C 	C 	0.66953 0.83897 0.92587 -0.06700
H 	H 	0.64403 0.81947 0.88917 0.03500
H 	H 	0.70823 0.86737 0.90947 0.04100
C 	C 	0.58273 0.76797 0.01377 -0.08500
H 	H 	0.56403 0.73377 0.98567 0.05500
H 	H 	0.56043 0.75877 0.05377 0.05800
C 	C 	0.58613 0.82297 0.98017 -0.04900
H 	H 	0.56963 0.84027 0.00907 0.04600
H 	H 	0.56203 0.81007 0.94127 0.04400
C 	C 	0.66923 0.83707 0.06497 -0.08700
H 	H 	0.64363 0.83157 0.10137 0.05400
H 	H 	0.70753 0.84617 0.08187 0.05700
C 	C 	0.67573 0.88797 0.02357 -0.02600
H 	H 	0.71723 0.91517 0.01597 0.03100
H 	H 	0.65953 0.90897 0.04657 -0.00300
N 	N 	0.64423 0.78237 0.02807 -0.17300
N 	N 	0.64613 0.86887 0.96237 -0.18000
Cu	Cu	0.98249 0.60887 0.58185 0.77000
Cu	Cu	0.04557 0.73413 0.58835 0.76900
Cu	Cu	0.98880 0.65860 0.80558 0.76500
I 	I 	0.96149 0.66952 0.67618 -0.58000
I 	I 	0.00018 0.77557 0.50193 -0.43600
I 	I 	0.08947 0.66089 0.82250 -0.47800
I 	I 	0.09296 0.67318 0.53185 -0.56400
C 	C 	0.12690 0.78740 0.69990 -0.03200
H 	H 	0.14030 0.75950 0.69220 0.03200
H 	H 	0.08990 0.76710 0.72350 0.00300
C 	C 	0.17230 0.83610 0.74080 -0.06600
H 	H 	0.15280 0.84210 0.77750 0.03500
H 	H 	0.20070 0.82580 0.75720 0.04100
C 	C 	0.10130 0.85190 0.65290 -0.08300
H 	H 	0.06710 0.83640 0.68100 0.05400
H 	H 	0.09210 0.86500 0.61290 0.05800
C 	C 	0.15630 0.90350 0.68650 -0.05200
H 	H 	0.17360 0.93730 0.65760 0.04700
H 	H 	0.14340 0.91470 0.72540 0.04500
C 	C 	0.17040 0.83450 0.60170 -0.08700
H 	H 	0.16490 0.85460 0.56530 0.05400
H 	H 	0.17950 0.80530 0.58480 0.05700
C 	C 	0.22130 0.87890 0.64310 -0.02500
H 	H 	0.24850 0.86460 0.65070 0.03100
H 	H 	0.24230 0.91610 0.62010 -0.00300
N 	N 	0.11570 0.80480 0.63860 -0.17300
N 	N 	0.20220 0.88940 0.70430 -0.17900
Cu	Cu	0.64916 0.94220 0.91518 0.77000
Cu	Cu	0.71224 0.06746 0.92168 0.76800
Cu	Cu	0.65547 0.99193 0.13891 0.76500
I 	I 	0.62816 0.00285 0.00951 -0.57800
I 	I 	0.66685 0.10890 0.83526 -0.43800
I 	I 	0.75614 0.99422 0.15583 -0.47900
I 	I 	0.75963 0.00651 0.86518 -0.56400
C 	C 	0.79357 0.12073 0.03323 -0.03000
H 	H 	0.80697 0.09283 0.02553 0.03200
H 	H 	0.75657 0.10043 0.05683 0.00200
C 	C 	0.83897 0.16943 0.07413 -0.06700
H 	H 	0.81947 0.17543 0.11083 0.03500
H 	H 	0.86737 0.15913 0.09053 0.04200
C 	C 	0.76797 0.18523 0.98623 -0.08900
H 	H 	0.73377 0.16973 0.01433 0.05700
H 	H 	0.75877 0.19833 0.94623 0.05900
C 	C 	0.82297 0.23683 0.01983 -0.04500
H 	H 	0.84027 0.27063 0.99093 0.04400
H 	H 	0.81007 0.24803 0.05873 0.04300
C 	C 	0.83707 0.16783 0.93503 -0.08700
H 	H 	0.83157 0.18793 0.89863 0.05400
H 	H 	0.84617 0.13863 0.91813 0.05700
C 	C 	0.88797 0.21223 0.97643 -0.02700
H 	H 	0.91517 0.19793 0.98403 0.03100
H 	H 	0.90897 0.24943 0.95343 -0.00300
N 	N 	0.78237 0.13813 0.97193 -0.17300
N 	N 	0.86887 0.22273 0.03763 -0.17900
Cu	Cu	0.31582 0.27554 0.24852 0.77000
Cu	Cu	0.37890 0.40080 0.25502 0.76900
Cu	Cu	0.32213 0.32527 0.47225 0.76500
I 	I 	0.29482 0.33619 0.34285 -0.58000
I 	I 	0.33351 0.44224 0.16860 -0.43700
I 	I 	0.42280 0.32756 0.48917 -0.47900
I 	I 	0.42629 0.33985 0.19852 -0.56400
C 	C 	0.46023 0.45407 0.36657 -0.03200
H 	H 	0.47363 0.42617 0.35887 0.03200
H 	H 	0.42323 0.43377 0.39017 0.00200
C 	C 	0.50563 0.50277 0.40747 -0.06600
H 	H 	0.48613 0.50877 0.44417 0.03500
H 	H 	0.53403 0.49247 0.42387 0.04100
C 	C 	0.43463 0.51857 0.31957 -0.08300
H 	H 	0.40043 0.50307 0.34767 0.05400
H 	H 	0.42543 0.53167 0.27957 0.05700
C 	C 	0.48963 0.57017 0.35317 -0.05200
H 	H 	0.50693 0.60397 0.32427 0.04700
H 	H 	0.47673 0.58137 0.39207 0.04500
C 	C 	0.50373 0.50117 0.26837 -0.08700
H 	H 	0.49823 0.52127 0.23197 0.05400
H 	H 	0.51283 0.47197 0.25147 0.05700
C 	C 	0.55463 0.54557 0.30977 -0.02500
H 	H 	0.58183 0.53127 0.31737 0.03100
H 	H 	0.57563 0.58277 0.28677 -0.00300
N 	N 	0.44903 0.47147 0.30527 -0.17300
N 	N 	0.53553 0.55607 0.37097 -0.17900
Cu	Cu	0.39113 0.37362 0.58185 0.77000
Cu	Cu	0.26587 0.31144 0.58835 0.76900
Cu	Cu	0.34140 0.33020 0.80558 0.76500
I 	I 	0.33048 0.29197 0.67618 -0.58000
I 	I 	0.22443 0.22461 0.50193 -0.43700
I 	I 	0.33911 0.42858 0.82250 -0.47900
I 	I 	0.32682 0.41978 0.53185 -0.56400
C 	C 	0.21260 0.33950 0.69990 -0.03200
H 	H 	0.24050 0.38080 0.69220 0.03200
H 	H 	0.23290 0.32280 0.72350 0.00200
C 	C 	0.16390 0.33620 0.74080 -0.06600
H 	H 	0.15790 0.31070 0.77750 0.03500
H 	H 	0.17420 0.37490 0.75720 0.04100
C 	C 	0.14810 0.24940 0.65290 -0.08300
H 	H 	0.16360 0.23070 0.68100 0.05400
H 	H 	0.13500 0.22710 0.61290 0.05700
C 	C 	0.09650 0.25280 0.68650 -0.05200
H 	H 	0.06270 0.23630 0.65760 0.04700
H 	H 	0.08530 0.22870 0.72540 0.04500
C 	C 	0.16550 0.33590 0.60170 -0.08700
H 	H 	0.14540 0.31030 0.56530 0.05400
H 	H 	0.19470 0.37420 0.58480 0.05700
C 	C 	0.12110 0.34240 0.64310 -0.02500
H 	H 	0.13540 0.38390 0.65070 0.03100
H 	H 	0.08390 0.32620 0.62010 -0.00300
N 	N 	0.19520 0.31090 0.63860 -0.17300
N 	N 	0.11060 0.31280 0.70430 -0.17900
Cu	Cu	0.05780 0.70695 0.91518 0.77000
Cu	Cu	0.93254 0.64477 0.92168 0.76800
Cu	Cu	0.00807 0.66353 0.13891 0.76500
I 	I 	0.99715 0.62530 0.00951 -0.57900
I 	I 	0.89110 0.55794 0.83526 -0.43800
I 	I 	0.00578 0.76191 0.15583 -0.47900
I 	I 	0.99349 0.75311 0.86518 -0.56400
C 	C 	0.87927 0.67283 0.03323 -0.03100
H 	H 	0.90717 0.71413 0.02553 0.03200
H 	H 	0.89957 0.65613 0.05683 0.00200
C 	C 	0.83057 0.66953 0.07413 -0.06700
H 	H 	0.82457 0.64403 0.11083 0.03500
H 	H 	0.84087 0.70823 0.09053 0.04100
C 	C 	0.81477 0.58273 0.98623 -0.08500
H 	H 	0.83027 0.56403 0.01433 0.05500
H 	H 	0.80167 0.56043 0.94623 0.05800
C 	C 	0.76317 0.58613 0.01983 -0.04900
H 	H 	0.72937 0.56963 0.99093 0.04600
H 	H 	0.75197 0.56203 0.05873 0.04400
C 	C 	0.83217 0.66923 0.93503 -0.08700
H 	H 	0.81207 0.64363 0.89863 0.05400
H 	H 	0.86137 0.70753 0.91813 0.05700
C 	C 	0.78777 0.67573 0.97643 -0.02600
H 	H 	0.80207 0.71723 0.98403 0.03100
H 	H 	0.75057 0.65953 0.95343 -0.00300
N 	N 	0.86187 0.64423 0.97193 -0.17300
N 	N 	0.77727 0.64613 0.03763 -0.18000
Cu	Cu	0.72446 0.04029 0.24852 0.77000
Cu	Cu	0.59920 0.97811 0.25502 0.76900
Cu	Cu	0.67473 0.99687 0.47225 0.76500
I 	I 	0.66381 0.95864 0.34285 -0.58000
I 	I 	0.55776 0.89128 0.16860 -0.43800
I 	I 	0.67244 0.09525 0.48917 -0.47900
I 	I 	0.66015 0.08645 0.19852 -0.56300
C 	C 	0.54593 0.00617 0.36657 -0.03000
H 	H 	0.57383 0.04747 0.35887 0.03100
H 	H 	0.56623 0.98947 0.39017 0.00200
C 	C 	0.49723 0.00287 0.40747 -0.06600
H 	H 	0.49123 0.97737 0.44417 0.03500
H 	H 	0.50753 0.04157 0.42387 0.04100
C 	C 	0.48143 0.91607 0.31957 -0.08300
H 	H 	0.49693 0.89737 0.34767 0.05400
H 	H 	0.46833 0.89377 0.27957 0.05700
C 	C 	0.42983 0.91947 0.35317 -0.05200
H 	H 	0.39603 0.90297 0.32427 0.04700
H 	H 	0.41863 0.89537 0.39207 0.04500
C 	C 	0.49883 0.00257 0.26837 -0.08600
H 	H 	0.47873 0.97697 0.23197 0.05300
H 	H 	0.52803 0.04087 0.25147 0.05700
C 	C 	0.45443 0.00907 0.30977 -0.02500
H 	H 	0.46873 0.05057 0.31737 0.03100
H 	H 	0.41723 0.99287 0.28677 -0.00300
N 	N 	0.52853 0.97757 0.30527 -0.17300
N 	N 	0.44393 0.97947 0.37097 -0.18000
Cu	Cu	0.62638 0.01751 0.58185 0.77000
Cu	Cu	0.68856 0.95443 0.58835 0.76900
Cu	Cu	0.66980 0.01120 0.80558 0.76500
I 	I 	0.70803 0.03851 0.67618 -0.57900
I 	I 	0.77539 0.99982 0.50193 -0.43700
I 	I 	0.57142 0.91053 0.82250 -0.47900
I 	I 	0.58022 0.90704 0.53185 -0.56400
C 	C 	0.66050 0.87310 0.69990 -0.03200
H 	H 	0.61920 0.85970 0.69220 0.03200
H 	H 	0.67720 0.91010 0.72350 0.00300
C 	C 	0.66380 0.82770 0.74080 -0.06600
H 	H 	0.68930 0.84720 0.77750 0.03500
H 	H 	0.62510 0.79930 0.75720 0.04100
C 	C 	0.75060 0.89870 0.65290 -0.08300
H 	H 	0.76930 0.93290 0.68100 0.05400
H 	H 	0.77290 0.90790 0.61290 0.05700
C 	C 	0.74720 0.84370 0.68650 -0.05200
H 	H 	0.76370 0.82640 0.65760 0.04700
H 	H 	0.77130 0.85660 0.72540 0.04500
C 	C 	0.66410 0.82960 0.60170 -0.08700
H 	H 	0.68970 0.83510 0.56530 0.05400
H 	H 	0.62580 0.82050 0.58480 0.05700
C 	C 	0.65760 0.77870 0.64310 -0.02500
H 	H 	0.61610 0.75150 0.65070 0.03100
H 	H 	0.67380 0.75770 0.62010 -0.00300
N 	N 	0.68910 0.88430 0.63860 -0.17300
N 	N 	0.68720 0.79780 0.70430 -0.17900
Cu	Cu	0.29305 0.35084 0.91518 0.77000
Cu	Cu	0.35523 0.28776 0.92168 0.76900
Cu	Cu	0.33647 0.34453 0.13891 0.76500
I 	I 	0.37470 0.37184 0.00951 -0.58000
I 	I 	0.44206 0.33315 0.83526 -0.43700
I 	I 	0.23809 0.24386 0.15583 -0.47900
I 	I 	0.24689 0.24037 0.86518 -0.56400
C 	C 	0.32717 0.20643 0.03323 -0.03100
H 	H 	0.28587 0.19303 0.02553 0.03200
H 	H 	0.34387 0.24343 0.05683 0.00200
C 	C 	0.33047 0.16103 0.07413 -0.06700
H 	H 	0.35597 0.18053 0.11083 0.03500
H 	H 	0.29177 0.13263 0.09053 0.04100
C 	C 	0.41727 0.23203 0.98623 -0.08500
H 	H 	0.43597 0.26623 0.01433 0.05500
H 	H 	0.43957 0.24123 0.94623 0.05800
C 	C 	0.41387 0.17703 0.01983 -0.04900
H 	H 	0.43037 0.15973 0.99093 0.04600
H 	H 	0.43797 0.18993 0.05873 0.04400
C 	C 	0.33077 0.16293 0.93503 -0.08700
H 	H 	0.35637 0.16843 0.89863 0.05400
H 	H 	0.29247 0.15383 0.91813 0.05700
C 	C 	0.32427 0.11203 0.97643 -0.02600
H 	H 	0.28277 0.08483 0.98403 0.03100
H 	H 	0.34047 0.09103 0.95343 -0.00300
N 	N 	0.35577 0.21763 0.97193 -0.17300
N 	N 	0.35387 0.13113 0.03763 -0.18000
Cu	Cu	0.95971 0.68418 0.24852 0.77000
Cu	Cu	0.02189 0.62110 0.25502 0.76900
Cu	Cu	0.00313 0.67787 0.47225 0.76500
I 	I 	0.04136 0.70518 0.34285 -0.57900
I 	I 	0.10872 0.66649 0.16860 -0.43800
I 	I 	0.90475 0.57720 0.48917 -0.47900
I 	I 	0.91355 0.57371 0.19852 -0.56400
C 	C 	0.99383 0.53977 0.36657 -0.03100
H 	H 	0.95253 0.52637 0.35887 0.03200
H 	H 	0.01053 0.57677 0.39017 0.00200
C 	C 	0.99713 0.49437 0.40747 -0.06600
H 	H 	0.02263 0.51387 0.44417 0.03500
H 	H 	0.95843 0.46597 0.42387 0.04100
C 	C 	0.08393 0.56537 0.31957 -0.08300
H 	H 	0.10263 0.59957 0.34767 0.05400
H 	H 	0.10623 0.57457 0.27957 0.05700
C 	C 	0.08053 0.51037 0.35317 -0.05200
H 	H 	0.09703 0.49307 0.32427 0.04700
H 	H 	0.10463 0.52327 0.39207 0.04500
C 	C 	0.99743 0.49627 0.26837 -0.08600
H 	H 	0.02303 0.50177 0.23197 0.05300
H 	H 	0.95913 0.48717 0.25147 0.05700
C 	C 	0.99093 0.44537 0.30977 -0.02400
H 	H 	0.94943 0.41817 0.31737 0.03100
H 	H 	0.00713 0.42437 0.28677 -0.00300
N 	N 	0.02243 0.55097 0.30527 -0.17300
N 	N 	0.02053 0.46447 0.37097 -0.18000
