data_crystal

_cell_length_a 22.31190
_cell_length_b 17.37740
_cell_length_c 10.18540
_cell_angle_alpha 90.00000
_cell_angle_beta  110.29500
_cell_angle_gamma 90.00000

_symmetry_space_group_name_	'P 1'
_symmetry_space_group_name_H-M	'P 1'

loop_
_symmetry_equiv_pos_as_xyz
  x,y,z

loop_
_atom_site_label
_atom_site_type_symbol
_atom_site_fract_x
_atom_site_fract_y
_atom_site_fract_z
_atom_site_charge
Sr	Sr	0.33446 0.10099 0.52804 1.52100
P 	P 	0.47608 0.15365 0.46018 0.40900
O 	O 	0.45743 0.12420 0.58030 -0.51300
C 	C 	0.56170 0.17330 0.51680 0.09700
P 	P 	0.60921 0.08607 0.57914 0.38900
O 	O 	0.45905 0.10170 0.33480 -0.41300
C 	C 	0.57850 0.23300 0.63460 -0.55300
H 	H 	0.57020 0.21190 0.71370 0.16200
H 	H 	0.55300 0.27830 0.60260 0.22000
H 	H 	0.62300 0.24610 0.66150 0.21400
P 	P 	0.19184 0.17692 0.59334 0.41800
O 	O 	0.44620 0.23510 0.41310 -0.39200
H 	H 	0.41150 0.24080 0.42890 0.25300
C 	C 	0.16560 0.11150 0.44280 0.07900
P 	P 	0.18730 0.01105 0.47960 0.43800
O 	O 	0.59940 0.06350 0.71350 -0.50500
C 	C 	0.09350 0.11830 0.36390 -0.54400
H 	H 	0.08240 0.17140 0.34270 0.17400
H 	H 	0.07080 0.09840 0.42120 0.19400
H 	H 	0.08220 0.08930 0.27850 0.20300
O 	O 	0.59294 0.02770 0.46400 -0.48000
O 	O 	0.68002 0.11160 0.60900 -0.21600
O 	O 	0.25690 0.00600 0.55840 -0.38900
O 	O 	0.16220 0.25430 0.54450 -0.39700
O 	O 	0.20270 0.13560 0.35650 -0.46900
H 	H 	0.19500 0.18080 0.33410 0.25500
O 	O 	0.16270 0.14820 0.70370 -0.40400
H 	H 	0.17420 0.10380 0.72610 0.27600
O 	O 	0.14630 0.97910 0.56240 -0.42300
H 	H 	0.15910 0.99710 0.64180 0.26800
O 	O 	0.26408 0.17570 0.64940 -0.35700
O 	O 	0.57606 0.20650 0.40160 -0.30100
H 	H 	0.56570 0.17600 0.33190 0.23000
O 	O 	0.16870 0.97870 0.33390 -0.22200
O 	O 	0.15120 0.94920 0.38280 -0.05100
Sr	Sr	0.83446 0.60099 0.52804 1.52000
P 	P 	0.97608 0.65365 0.46018 0.46300
O 	O 	0.95743 0.62420 0.58030 -0.49200
C 	C 	0.06170 0.67330 0.51680 0.02800
P 	P 	0.10921 0.58607 0.57914 0.39300
O 	O 	0.95905 0.60170 0.33480 -0.39000
C 	C 	0.07850 0.73300 0.63460 -0.47300
H 	H 	0.07020 0.71190 0.71370 0.12400
H 	H 	0.05300 0.77830 0.60260 0.17400
H 	H 	0.12300 0.74610 0.66150 0.19000
P 	P 	0.69184 0.67692 0.59334 0.41500
O 	O 	0.94620 0.73510 0.41310 -0.37100
H 	H 	0.91150 0.74080 0.42890 0.24800
C 	C 	0.66560 0.61150 0.44280 0.09500
P 	P 	0.68730 0.51105 0.47960 0.43400
O 	O 	0.09940 0.56350 0.71350 -0.51700
C 	C 	0.59350 0.61830 0.36390 -0.60200
H 	H 	0.58240 0.67140 0.34270 0.20200
H 	H 	0.57080 0.59840 0.42120 0.22900
H 	H 	0.58220 0.58930 0.27850 0.23400
O 	O 	0.09294 0.52770 0.46400 -0.49400
O 	O 	0.18002 0.61160 0.60900 -0.21500
O 	O 	0.75690 0.50600 0.55840 -0.38900
O 	O 	0.66220 0.75430 0.54450 -0.39600
O 	O 	0.70270 0.63560 0.35650 -0.47300
H 	H 	0.69500 0.68080 0.33410 0.25600
O 	O 	0.66270 0.64820 0.70370 -0.39800
H 	H 	0.67420 0.60380 0.72610 0.27600
O 	O 	0.64630 0.47910 0.56240 -0.41500
H 	H 	0.65910 0.49710 0.64180 0.26600
O 	O 	0.76408 0.67570 0.64940 -0.35800
O 	O 	0.07606 0.70650 0.40160 -0.29800
H 	H 	0.06570 0.67600 0.33190 0.21500
O 	O 	0.66870 0.47870 0.33390 -0.22200
O 	O 	0.65120 0.44920 0.38280 -0.04300
Sr	Sr	0.66554 0.10099 0.97196 1.51900
P 	P 	0.52392 0.15365 0.03982 0.41800
O 	O 	0.54257 0.12420 0.91970 -0.51900
C 	C 	0.43830 0.17330 0.98320 0.08700
P 	P 	0.39079 0.08607 0.92086 0.38500
O 	O 	0.54095 0.10170 0.16520 -0.41300
C 	C 	0.42150 0.23300 0.86540 -0.54400
H 	H 	0.42980 0.21190 0.78630 0.15900
H 	H 	0.44700 0.27830 0.89740 0.21600
H 	H 	0.37700 0.24610 0.83850 0.21100
P 	P 	0.80816 0.17692 0.90666 0.40800
O 	O 	0.55380 0.23510 0.08690 -0.39200
H 	H 	0.58850 0.24080 0.07110 0.25400
C 	C 	0.83440 0.11150 0.05720 0.11600
P 	P 	0.81270 0.01105 0.02040 0.44000
O 	O 	0.40060 0.06350 0.78650 -0.50500
C 	C 	0.90650 0.11830 0.13610 -0.66600
H 	H 	0.91760 0.17140 0.15730 0.23300
H 	H 	0.92920 0.09840 0.07880 0.26800
H 	H 	0.91780 0.08930 0.22150 0.26700
O 	O 	0.40706 0.02770 0.03600 -0.47500
O 	O 	0.31998 0.11160 0.89100 -0.21800
O 	O 	0.74310 0.00600 0.94160 -0.39500
O 	O 	0.83780 0.25430 0.95550 -0.39700
O 	O 	0.79730 0.13560 0.14350 -0.47600
H 	H 	0.80500 0.18080 0.16590 0.25800
O 	O 	0.83730 0.14820 0.79630 -0.39200
H 	H 	0.82580 0.10380 0.77390 0.27500
O 	O 	0.85370 0.97910 0.93760 -0.41300
H 	H 	0.84090 0.99710 0.85820 0.26800
O 	O 	0.73592 0.17570 0.85060 -0.35800
O 	O 	0.42394 0.20650 0.09840 -0.29400
H 	H 	0.43430 0.17600 0.16810 0.22800
O 	O 	0.83130 0.97870 0.16610 -0.22500
O 	O 	0.84880 0.94920 0.11720 -0.03400
Sr	Sr	0.16554 0.60099 0.97196 1.51900
P 	P 	0.02392 0.65365 0.03982 0.36300
O 	O 	0.04257 0.62420 0.91970 -0.53500
C 	C 	0.93830 0.67330 0.98320 0.15700
P 	P 	0.89079 0.58607 0.92086 0.38100
O 	O 	0.04095 0.60170 0.16520 -0.43200
C 	C 	0.92150 0.73300 0.86540 -0.62700
H 	H 	0.92980 0.71190 0.78630 0.19800
H 	H 	0.94700 0.77830 0.89740 0.26300
H 	H 	0.87700 0.74610 0.83850 0.23600
P 	P 	0.30816 0.67692 0.90666 0.41200
O 	O 	0.05380 0.73510 0.08690 -0.41300
H 	H 	0.08850 0.74080 0.07110 0.25800
C 	C 	0.33440 0.61150 0.05720 0.09800
P 	P 	0.31270 0.51105 0.02040 0.44100
O 	O 	0.90060 0.56350 0.78650 -0.48900
C 	C 	0.40650 0.61830 0.13610 -0.60500
H 	H 	0.41760 0.67140 0.15730 0.20300
H 	H 	0.42920 0.59840 0.07880 0.23100
H 	H 	0.41780 0.58930 0.22150 0.23400
O 	O 	0.90706 0.52770 0.03600 -0.45900
O 	O 	0.81998 0.61160 0.89100 -0.21900
O 	O 	0.24310 0.50600 0.94160 -0.39300
O 	O 	0.33780 0.75430 0.95550 -0.39700
O 	O 	0.29730 0.63560 0.14350 -0.47200
H 	H 	0.30500 0.68080 0.16590 0.25700
O 	O 	0.33730 0.64820 0.79630 -0.39800
H 	H 	0.32580 0.60380 0.77390 0.27500
O 	O 	0.35370 0.47910 0.93760 -0.42000
H 	H 	0.34090 0.49710 0.85820 0.26800
O 	O 	0.23592 0.67570 0.85060 -0.35700
O 	O 	0.92394 0.70650 0.09840 -0.29900
H 	H 	0.93430 0.67600 0.16810 0.24400
O 	O 	0.33130 0.47870 0.16610 -0.22300
O 	O 	0.34880 0.44920 0.11720 -0.04100
Sr	Sr	0.66554 0.89901 0.47196 1.52000
P 	P 	0.52392 0.84635 0.53982 0.40900
O 	O 	0.54257 0.87580 0.41970 -0.51300
C 	C 	0.43830 0.82670 0.48320 0.09700
P 	P 	0.39079 0.91393 0.42086 0.38900
O 	O 	0.54095 0.89830 0.66520 -0.41300
C 	C 	0.42150 0.76700 0.36540 -0.55500
H 	H 	0.42980 0.78810 0.28630 0.16300
H 	H 	0.44700 0.72170 0.39740 0.22000
H 	H 	0.37700 0.75390 0.33850 0.21500
P 	P 	0.80816 0.82308 0.40666 0.41200
O 	O 	0.55380 0.76490 0.58690 -0.39200
H 	H 	0.58850 0.75920 0.57110 0.25200
C 	C 	0.83440 0.88850 0.55720 0.11100
P 	P 	0.81270 0.98895 0.52040 0.43000
O 	O 	0.40060 0.93650 0.28650 -0.50500
C 	C 	0.90650 0.88170 0.63610 -0.65900
H 	H 	0.91760 0.82860 0.65730 0.22900
H 	H 	0.92920 0.90160 0.57880 0.26400
H 	H 	0.91780 0.91070 0.72150 0.26400
O 	O 	0.40706 0.97230 0.53600 -0.48000
O 	O 	0.31998 0.88840 0.39100 -0.21600
O 	O 	0.74310 0.99400 0.44160 -0.38800
O 	O 	0.83780 0.74570 0.45550 -0.39400
O 	O 	0.79730 0.86440 0.64350 -0.47700
H 	H 	0.80500 0.81920 0.66590 0.25700
O 	O 	0.83730 0.85180 0.29630 -0.39100
H 	H 	0.82580 0.89620 0.27390 0.27600
O 	O 	0.85370 0.02090 0.43760 -0.40700
H 	H 	0.84090 0.00290 0.35820 0.26700
O 	O 	0.73592 0.82430 0.35060 -0.35700
O 	O 	0.42394 0.79350 0.59840 -0.30200
H 	H 	0.43430 0.82400 0.66810 0.23000
O 	O 	0.83130 0.02130 0.66610 -0.22400
O 	O 	0.84880 0.05080 0.61720 -0.03400
Sr	Sr	0.16554 0.39901 0.47196 1.52000
P 	P 	0.02392 0.34635 0.53982 0.35400
O 	O 	0.04257 0.37580 0.41970 -0.53100
C 	C 	0.93830 0.32670 0.48320 0.16800
P 	P 	0.89079 0.41393 0.42086 0.38500
O 	O 	0.04095 0.39830 0.66520 -0.43200
C 	C 	0.92150 0.26700 0.36540 -0.63800
H 	H 	0.92980 0.28810 0.28630 0.20200
H 	H 	0.94700 0.22170 0.39740 0.26800
H 	H 	0.87700 0.25390 0.33850 0.24000
P 	P 	0.30816 0.32308 0.40666 0.41500
O 	O 	0.05380 0.26490 0.58690 -0.41400
H 	H 	0.08850 0.25920 0.57110 0.25700
C 	C 	0.33440 0.38850 0.55720 0.09500
P 	P 	0.31270 0.48895 0.52040 0.43400
O 	O 	0.90060 0.43650 0.28650 -0.48900
C 	C 	0.40650 0.38170 0.63610 -0.60100
H 	H 	0.41760 0.32860 0.65730 0.20100
H 	H 	0.42920 0.40160 0.57880 0.22800
H 	H 	0.41780 0.41070 0.72150 0.23300
O 	O 	0.90706 0.47230 0.53600 -0.46300
O 	O 	0.81998 0.38840 0.39100 -0.21700
O 	O 	0.24310 0.49400 0.44160 -0.38800
O 	O 	0.33780 0.24570 0.45550 -0.39500
O 	O 	0.29730 0.36440 0.64350 -0.47300
H 	H 	0.30500 0.31920 0.66590 0.25600
O 	O 	0.33730 0.35180 0.29630 -0.39700
H 	H 	0.32580 0.39620 0.27390 0.27600
O 	O 	0.35370 0.52090 0.43760 -0.41500
H 	H 	0.34090 0.50290 0.35820 0.26700
O 	O 	0.23592 0.32430 0.35060 -0.35600
O 	O 	0.92394 0.29350 0.59840 -0.30600
H 	H 	0.93430 0.32400 0.66810 0.24500
O 	O 	0.33130 0.52130 0.66610 -0.22200
O 	O 	0.34880 0.55080 0.61720 -0.04300
Sr	Sr	0.33446 0.89901 0.02804 1.52000
P 	P 	0.47608 0.84635 0.96018 0.40400
O 	O 	0.45743 0.87580 0.08030 -0.51100
C 	C 	0.56170 0.82670 0.01680 0.10300
P 	P 	0.60921 0.91393 0.07914 0.39100
O 	O 	0.45905 0.89830 0.83480 -0.41300
C 	C 	0.57850 0.76700 0.13460 -0.56000
H 	H 	0.57020 0.78810 0.21370 0.16400
H 	H 	0.55300 0.72170 0.10260 0.22300
H 	H 	0.62300 0.75390 0.16150 0.21700
P 	P 	0.19184 0.82308 0.09334 0.42000
O 	O 	0.44620 0.76490 0.91310 -0.39300
H 	H 	0.41150 0.75920 0.92890 0.25200
C 	C 	0.16560 0.88850 0.94280 0.07700
P 	P 	0.18730 0.98895 0.97960 0.43500
O 	O 	0.59940 0.93650 0.21350 -0.50500
C 	C 	0.09350 0.88170 0.86390 -0.54000
H 	H 	0.08240 0.82860 0.84270 0.17200
H 	H 	0.07080 0.90160 0.92120 0.19200
H 	H 	0.08220 0.91070 0.77850 0.20100
O 	O 	0.59294 0.97230 0.96400 -0.48200
O 	O 	0.68002 0.88840 0.10900 -0.21500
O 	O 	0.25690 0.99400 0.05840 -0.38600
O 	O 	0.16220 0.74570 0.04450 -0.39500
O 	O 	0.20270 0.86440 0.85650 -0.46900
H 	H 	0.19500 0.81920 0.83410 0.25500
O 	O 	0.16270 0.85180 0.20370 -0.40300
H 	H 	0.17420 0.89620 0.22610 0.27600
O 	O 	0.14630 0.02090 0.06240 -0.41700
H 	H 	0.15910 0.00290 0.14180 0.26600
O 	O 	0.26408 0.82430 0.14940 -0.35600
O 	O 	0.57606 0.79350 0.90160 -0.30600
H 	H 	0.56570 0.82400 0.83190 0.23100
O 	O 	0.16870 0.02130 0.83390 -0.22200
O 	O 	0.15120 0.05080 0.88280 -0.05400
Sr	Sr	0.83446 0.39901 0.02804 1.52000
P 	P 	0.97608 0.34635 0.96018 0.45200
O 	O 	0.95743 0.37580 0.08030 -0.48600
C 	C 	0.06170 0.32670 0.01680 0.04100
P 	P 	0.10921 0.41393 0.07914 0.39700
O 	O 	0.95905 0.39830 0.83480 -0.39000
C 	C 	0.07850 0.26700 0.13460 -0.48600
H 	H 	0.07020 0.28810 0.21370 0.12800
H 	H 	0.05300 0.22170 0.10260 0.17900
H 	H 	0.12300 0.25390 0.16150 0.19500
P 	P 	0.69184 0.32308 0.09334 0.41800
O 	O 	0.94620 0.26490 0.91310 -0.37100
H 	H 	0.91150 0.25920 0.92890 0.24700
C 	C 	0.66560 0.38850 0.94280 0.09100
P 	P 	0.68730 0.48895 0.97960 0.42600
O 	O 	0.09940 0.43650 0.21350 -0.51600
C 	C 	0.59350 0.38170 0.86390 -0.59600
H 	H 	0.58240 0.32860 0.84270 0.19900
H 	H 	0.57080 0.40160 0.92120 0.22600
H 	H 	0.58220 0.41070 0.77850 0.23100
O 	O 	0.09294 0.47230 0.96400 -0.49800
O 	O 	0.18002 0.38840 0.10900 -0.21300
O 	O 	0.75690 0.49400 0.05840 -0.38400
O 	O 	0.66220 0.24570 0.04450 -0.39300
O 	O 	0.70270 0.36440 0.85650 -0.47300
H 	H 	0.69500 0.31920 0.83410 0.25500
O 	O 	0.66270 0.35180 0.20370 -0.39800
H 	H 	0.67420 0.39620 0.22610 0.27600
O 	O 	0.64630 0.52090 0.06240 -0.40900
H 	H 	0.65910 0.50290 0.14180 0.26500
O 	O 	0.76408 0.32430 0.14940 -0.35700
O 	O 	0.07606 0.29350 0.90160 -0.30600
H 	H 	0.06570 0.32400 0.83190 0.21700
O 	O 	0.66870 0.52130 0.83390 -0.22100
O 	O 	0.65120 0.55080 0.88280 -0.04400
Sr	Sr	0.50000 0.01304 0.75000 1.53400
Sr	Sr	0.00000 0.51304 0.75000 1.51800
Sr	Sr	0.50000 0.98696 0.25000 1.53400
Sr	Sr	0.00000 0.48696 0.25000 1.51800
