data_crystal

_cell_length_a 22.28580
_cell_length_b 17.37100
_cell_length_c 10.17010
_cell_angle_alpha 90.00000
_cell_angle_beta  110.42500
_cell_angle_gamma 90.00000

_symmetry_space_group_name_	'P 1'
_symmetry_space_group_name_H-M	'P 1'

loop_
_symmetry_equiv_pos_as_xyz
  x,y,z

loop_
_atom_site_label
_atom_site_type_symbol
_atom_site_fract_x
_atom_site_fract_y
_atom_site_fract_z
_atom_site_charge
Sr	Sr	0.33399 0.09999 0.52781 1.52100
P 	P 	0.47612 0.15303 0.46067 0.41000
O 	O 	0.45770 0.12310 0.58090 -0.51200
C 	C 	0.56170 0.17320 0.51730 0.10100
P 	P 	0.60918 0.08554 0.57937 0.39200
O 	O 	0.45920 0.10050 0.33510 -0.41300
C 	C 	0.57880 0.23240 0.63600 -0.55900
H 	H 	0.57030 0.21110 0.71490 0.16300
H 	H 	0.55340 0.27790 0.60430 0.22100
H 	H 	0.62330 0.24540 0.66330 0.21600
P 	P 	0.19124 0.17668 0.59160 0.41700
O 	O 	0.44590 0.23390 0.41250 -0.39400
H 	H 	0.41120 0.23970 0.42830 0.25300
C 	C 	0.16460 0.11010 0.44260 0.08300
P 	P 	0.18634 0.00981 0.48340 0.44400
O 	O 	0.59940 0.06260 0.71320 -0.50600
C 	C 	0.09250 0.11670 0.36240 -0.54700
H 	H 	0.08130 0.16980 0.34110 0.17500
H 	H 	0.06950 0.09670 0.41900 0.19400
H 	H 	0.08140 0.08780 0.27670 0.20400
O 	O 	0.59260 0.02780 0.46290 -0.48200
O 	O 	0.68030 0.11070 0.61020 -0.21800
O 	O 	0.25650 0.00500 0.55900 -0.38900
O 	O 	0.16190 0.25390 0.54110 -0.39600
O 	O 	0.20160 0.13250 0.35570 -0.46900
H 	H 	0.19440 0.17770 0.33250 0.25400
O 	O 	0.16210 0.14890 0.70290 -0.40300
H 	H 	0.17340 0.10440 0.72580 0.27300
O 	O 	0.14630 0.97980 0.56840 -0.43100
H 	H 	0.15970 0.99840 0.64740 0.27100
O 	O 	0.26350 0.17490 0.64830 -0.35800
O 	O 	0.57610 0.20670 0.40280 -0.30400
H 	H 	0.56580 0.17620 0.33310 0.23100
O 	O 	0.16870 0.97840 0.33700 -0.21900
O 	O 	0.14990 0.94920 0.38360 -0.05700
Sr	Sr	0.83399 0.59999 0.52781 1.52000
P 	P 	0.97612 0.65303 0.46067 0.46400
O 	O 	0.95770 0.62310 0.58090 -0.49100
C 	C 	0.06170 0.67320 0.51730 0.03100
P 	P 	0.10918 0.58554 0.57937 0.39500
O 	O 	0.95920 0.60050 0.33510 -0.39000
C 	C 	0.07880 0.73240 0.63600 -0.47800
H 	H 	0.07030 0.71110 0.71490 0.12500
H 	H 	0.05340 0.77790 0.60430 0.17400
H 	H 	0.12330 0.74540 0.66330 0.19200
P 	P 	0.69124 0.67668 0.59160 0.41400
O 	O 	0.94590 0.73390 0.41250 -0.37300
H 	H 	0.91120 0.73970 0.42830 0.24900
C 	C 	0.66460 0.61010 0.44260 0.09900
P 	P 	0.68634 0.50981 0.48340 0.44000
O 	O 	0.09940 0.56260 0.71320 -0.51700
C 	C 	0.59250 0.61670 0.36240 -0.60600
H 	H 	0.58130 0.66980 0.34110 0.20300
H 	H 	0.56950 0.59670 0.41900 0.23000
H 	H 	0.58140 0.58780 0.27670 0.23500
O 	O 	0.09260 0.52780 0.46290 -0.49500
O 	O 	0.18030 0.61070 0.61020 -0.21700
O 	O 	0.75650 0.50500 0.55900 -0.38900
O 	O 	0.66190 0.75390 0.54110 -0.39500
O 	O 	0.70160 0.63250 0.35570 -0.47300
H 	H 	0.69440 0.67770 0.33250 0.25500
O 	O 	0.66210 0.64890 0.70290 -0.39700
H 	H 	0.67340 0.60440 0.72580 0.27300
O 	O 	0.64630 0.47980 0.56840 -0.42200
H 	H 	0.65970 0.49840 0.64740 0.27000
O 	O 	0.76350 0.67490 0.64830 -0.35900
O 	O 	0.07610 0.70670 0.40280 -0.30000
H 	H 	0.06580 0.67620 0.33310 0.21600
O 	O 	0.66870 0.47840 0.33700 -0.21900
O 	O 	0.64990 0.44920 0.38360 -0.04800
Sr	Sr	0.66601 0.09999 0.97219 1.51900
P 	P 	0.52388 0.15303 0.03933 0.41800
O 	O 	0.54230 0.12310 0.91910 -0.51900
C 	C 	0.43830 0.17320 0.98270 0.09000
P 	P 	0.39082 0.08554 0.92063 0.38700
O 	O 	0.54080 0.10050 0.16490 -0.41300
C 	C 	0.42120 0.23240 0.86400 -0.55000
H 	H 	0.42970 0.21110 0.78510 0.16100
H 	H 	0.44660 0.27790 0.89570 0.21700
H 	H 	0.37670 0.24540 0.83670 0.21300
P 	P 	0.80876 0.17668 0.90840 0.40700
O 	O 	0.55410 0.23390 0.08750 -0.39400
H 	H 	0.58880 0.23970 0.07170 0.25400
C 	C 	0.83540 0.11010 0.05740 0.12100
P 	P 	0.81366 0.00981 0.01660 0.44700
O 	O 	0.40060 0.06260 0.78680 -0.50500
C 	C 	0.90750 0.11670 0.13760 -0.67200
H 	H 	0.91870 0.16980 0.15890 0.23500
H 	H 	0.93050 0.09670 0.08100 0.27000
H 	H 	0.91860 0.08780 0.22330 0.26900
O 	O 	0.40740 0.02780 0.03710 -0.47600
O 	O 	0.31970 0.11070 0.88980 -0.22000
O 	O 	0.74350 0.00500 0.94100 -0.39600
O 	O 	0.83810 0.25390 0.95890 -0.39700
O 	O 	0.79840 0.13250 0.14430 -0.47600
H 	H 	0.80560 0.17770 0.16750 0.25600
O 	O 	0.83790 0.14890 0.79710 -0.39000
H 	H 	0.82660 0.10440 0.77420 0.27200
O 	O 	0.85370 0.97980 0.93160 -0.42100
H 	H 	0.84030 0.99840 0.85260 0.27200
O 	O 	0.73650 0.17490 0.85170 -0.35900
O 	O 	0.42390 0.20670 0.09720 -0.29700
H 	H 	0.43420 0.17620 0.16690 0.22900
O 	O 	0.83130 0.97840 0.16300 -0.22200
O 	O 	0.85010 0.94920 0.11640 -0.03900
Sr	Sr	0.16601 0.59999 0.97219 1.51900
P 	P 	0.02388 0.65303 0.03933 0.36300
O 	O 	0.04230 0.62310 0.91910 -0.53500
C 	C 	0.93830 0.67320 0.98270 0.16100
P 	P 	0.89082 0.58554 0.92063 0.38200
O 	O 	0.04080 0.60050 0.16490 -0.43200
C 	C 	0.92120 0.73240 0.86400 -0.63400
H 	H 	0.92970 0.71110 0.78510 0.20000
H 	H 	0.94660 0.77790 0.89570 0.26400
H 	H 	0.87670 0.74540 0.83670 0.23900
P 	P 	0.30876 0.67668 0.90840 0.41100
O 	O 	0.05410 0.73390 0.08750 -0.41500
H 	H 	0.08880 0.73970 0.07170 0.25800
C 	C 	0.33540 0.61010 0.05740 0.10200
P 	P 	0.31366 0.50981 0.01660 0.44800
O 	O 	0.90060 0.56260 0.78680 -0.49000
C 	C 	0.40750 0.61670 0.13760 -0.60900
H 	H 	0.41870 0.66980 0.15890 0.20500
H 	H 	0.43050 0.59670 0.08100 0.23200
H 	H 	0.41860 0.58780 0.22330 0.23600
O 	O 	0.90740 0.52780 0.03710 -0.46000
O 	O 	0.81970 0.61070 0.88980 -0.22100
O 	O 	0.24350 0.50500 0.94100 -0.39300
O 	O 	0.33810 0.75390 0.95890 -0.39600
O 	O 	0.29840 0.63250 0.14430 -0.47200
H 	H 	0.30560 0.67770 0.16750 0.25500
O 	O 	0.33790 0.64890 0.79710 -0.39600
H 	H 	0.32660 0.60440 0.77420 0.27300
O 	O 	0.35370 0.47980 0.93160 -0.42800
H 	H 	0.34030 0.49840 0.85260 0.27200
O 	O 	0.23650 0.67490 0.85170 -0.35700
O 	O 	0.92390 0.70670 0.09720 -0.30100
H 	H 	0.93420 0.67620 0.16690 0.24500
O 	O 	0.33130 0.47840 0.16300 -0.22100
O 	O 	0.35010 0.44920 0.11640 -0.04700
Sr	Sr	0.66601 0.90001 0.47219 1.52000
P 	P 	0.52388 0.84697 0.53933 0.40900
O 	O 	0.54230 0.87690 0.41910 -0.51300
C 	C 	0.43830 0.82680 0.48270 0.10100
P 	P 	0.39082 0.91446 0.42063 0.39100
O 	O 	0.54080 0.89950 0.66490 -0.41300
C 	C 	0.42120 0.76760 0.36400 -0.56100
H 	H 	0.42970 0.78890 0.28510 0.16400
H 	H 	0.44660 0.72210 0.39570 0.22100
H 	H 	0.37670 0.75460 0.33670 0.21700
P 	P 	0.80876 0.82332 0.40840 0.41100
O 	O 	0.55410 0.76610 0.58750 -0.39400
H 	H 	0.58880 0.76030 0.57170 0.25300
C 	C 	0.83540 0.88990 0.55740 0.11500
P 	P 	0.81366 0.99019 0.51660 0.43700
O 	O 	0.40060 0.93740 0.28680 -0.50500
C 	C 	0.90750 0.88330 0.63760 -0.66500
H 	H 	0.91870 0.83020 0.65890 0.23200
H 	H 	0.93050 0.90330 0.58100 0.26600
H 	H 	0.91860 0.91220 0.72330 0.26600
O 	O 	0.40740 0.97220 0.53710 -0.48100
O 	O 	0.31970 0.88930 0.38980 -0.21800
O 	O 	0.74350 0.99500 0.44100 -0.38800
O 	O 	0.83810 0.74610 0.45890 -0.39300
O 	O 	0.79840 0.86750 0.64430 -0.47700
H 	H 	0.80560 0.82230 0.66750 0.25500
O 	O 	0.83790 0.85110 0.29710 -0.39000
H 	H 	0.82660 0.89560 0.27420 0.27300
O 	O 	0.85370 0.02020 0.43160 -0.41500
H 	H 	0.84030 0.00160 0.35260 0.27100
O 	O 	0.73650 0.82510 0.35170 -0.35700
O 	O 	0.42390 0.79330 0.59720 -0.30400
H 	H 	0.43420 0.82380 0.66690 0.23100
O 	O 	0.83130 0.02160 0.66300 -0.22100
O 	O 	0.85010 0.05080 0.61640 -0.04000
Sr	Sr	0.16601 0.40001 0.47219 1.52000
P 	P 	0.02388 0.34697 0.53933 0.35400
O 	O 	0.04230 0.37690 0.41910 -0.53100
C 	C 	0.93830 0.32680 0.48270 0.17200
P 	P 	0.89082 0.41446 0.42063 0.38600
O 	O 	0.04080 0.39950 0.66490 -0.43300
C 	C 	0.92120 0.26760 0.36400 -0.64500
H 	H 	0.92970 0.28890 0.28510 0.20400
H 	H 	0.94660 0.22210 0.39570 0.26900
H 	H 	0.87670 0.25460 0.33670 0.24300
P 	P 	0.30876 0.32332 0.40840 0.41400
O 	O 	0.05410 0.26610 0.58750 -0.41500
H 	H 	0.08880 0.26030 0.57170 0.25700
C 	C 	0.33540 0.38990 0.55740 0.09900
P 	P 	0.31366 0.49019 0.51660 0.44000
O 	O 	0.90060 0.43740 0.28680 -0.48900
C 	C 	0.40750 0.38330 0.63760 -0.60500
H 	H 	0.41870 0.33020 0.65890 0.20300
H 	H 	0.43050 0.40330 0.58100 0.23000
H 	H 	0.41860 0.41220 0.72330 0.23400
O 	O 	0.90740 0.47220 0.53710 -0.46500
O 	O 	0.81970 0.38930 0.38980 -0.21900
O 	O 	0.24350 0.49500 0.44100 -0.38800
O 	O 	0.33810 0.24610 0.45890 -0.39400
O 	O 	0.29840 0.36750 0.64430 -0.47300
H 	H 	0.30560 0.32230 0.66750 0.25500
O 	O 	0.33790 0.35110 0.29710 -0.39500
H 	H 	0.32660 0.39560 0.27420 0.27400
O 	O 	0.35370 0.52020 0.43160 -0.42300
H 	H 	0.34030 0.50160 0.35260 0.27100
O 	O 	0.23650 0.32510 0.35170 -0.35600
O 	O 	0.92390 0.29330 0.59720 -0.30800
H 	H 	0.93420 0.32380 0.66690 0.24600
O 	O 	0.33130 0.52160 0.66300 -0.22000
O 	O 	0.35010 0.55080 0.61640 -0.04800
Sr	Sr	0.33399 0.90001 0.02781 1.52000
P 	P 	0.47612 0.84697 0.96067 0.40400
O 	O 	0.45770 0.87690 0.08090 -0.51100
C 	C 	0.56170 0.82680 0.01730 0.10700
P 	P 	0.60918 0.91446 0.07937 0.39200
O 	O 	0.45920 0.89950 0.83510 -0.41300
C 	C 	0.57880 0.76760 0.13600 -0.56700
H 	H 	0.57030 0.78890 0.21490 0.16600
H 	H 	0.55340 0.72210 0.10430 0.22400
H 	H 	0.62330 0.75460 0.16330 0.21900
P 	P 	0.19124 0.82332 0.09160 0.41900
O 	O 	0.44590 0.76610 0.91250 -0.39400
H 	H 	0.41120 0.76030 0.92830 0.25200
C 	C 	0.16460 0.88990 0.94260 0.08000
P 	P 	0.18634 0.99019 0.98340 0.44200
O 	O 	0.59940 0.93740 0.21320 -0.50500
C 	C 	0.09250 0.88330 0.86240 -0.54300
H 	H 	0.08130 0.83020 0.84110 0.17300
H 	H 	0.06950 0.90330 0.91900 0.19200
H 	H 	0.08140 0.91220 0.77670 0.20300
O 	O 	0.59260 0.97220 0.96290 -0.48300
O 	O 	0.68030 0.88930 0.11020 -0.21700
O 	O 	0.25650 0.99500 0.05900 -0.38600
O 	O 	0.16190 0.74610 0.04110 -0.39400
O 	O 	0.20160 0.86750 0.85570 -0.46900
H 	H 	0.19440 0.82230 0.83250 0.25300
O 	O 	0.16210 0.85110 0.20290 -0.40200
H 	H 	0.17340 0.89560 0.22580 0.27400
O 	O 	0.14630 0.02020 0.06840 -0.42500
H 	H 	0.15970 0.00160 0.14740 0.27000
O 	O 	0.26350 0.82510 0.14830 -0.35700
O 	O 	0.57610 0.79330 0.90280 -0.30800
H 	H 	0.56580 0.82380 0.83310 0.23200
O 	O 	0.16870 0.02160 0.83700 -0.21900
O 	O 	0.14990 0.05080 0.88360 -0.06000
Sr	Sr	0.83399 0.40001 0.02781 1.52000
P 	P 	0.97612 0.34697 0.96067 0.45300
O 	O 	0.95770 0.37690 0.08090 -0.48500
C 	C 	0.06170 0.32680 0.01730 0.04400
P 	P 	0.10918 0.41446 0.07937 0.39800
O 	O 	0.95920 0.39950 0.83510 -0.39000
C 	C 	0.07880 0.26760 0.13600 -0.49100
H 	H 	0.07030 0.28890 0.21490 0.13000
H 	H 	0.05340 0.22210 0.10430 0.18000
H 	H 	0.12330 0.25460 0.16330 0.19700
P 	P 	0.69124 0.32332 0.09160 0.41800
O 	O 	0.94590 0.26610 0.91250 -0.37400
H 	H 	0.91120 0.26030 0.92830 0.24700
C 	C 	0.66460 0.38990 0.94260 0.09500
P 	P 	0.68634 0.49019 0.98340 0.43300
O 	O 	0.09940 0.43740 0.21320 -0.51600
C 	C 	0.59250 0.38330 0.86240 -0.60000
H 	H 	0.58130 0.33020 0.84110 0.20100
H 	H 	0.56950 0.40330 0.91900 0.22700
H 	H 	0.58140 0.41220 0.77670 0.23300
O 	O 	0.09260 0.47220 0.96290 -0.49900
O 	O 	0.18030 0.38930 0.11020 -0.21500
O 	O 	0.75650 0.49500 0.05900 -0.38400
O 	O 	0.66190 0.24610 0.04110 -0.39200
O 	O 	0.70160 0.36750 0.85570 -0.47300
H 	H 	0.69440 0.32230 0.83250 0.25400
O 	O 	0.66210 0.35110 0.20290 -0.39600
H 	H 	0.67340 0.39560 0.22580 0.27400
O 	O 	0.64630 0.52020 0.06840 -0.41700
H 	H 	0.65970 0.50160 0.14740 0.26900
O 	O 	0.76350 0.32510 0.14830 -0.35800
O 	O 	0.07610 0.29330 0.90280 -0.30800
H 	H 	0.06580 0.32380 0.83310 0.21800
O 	O 	0.66870 0.52160 0.83700 -0.21800
O 	O 	0.64990 0.55080 0.88360 -0.05000
Sr	Sr	0.50000 0.01286 0.75000 1.53600
Sr	Sr	0.00000 0.51286 0.75000 1.52000
Sr	Sr	0.50000 0.98714 0.25000 1.53700
Sr	Sr	0.00000 0.48714 0.25000 1.52000
