data_crystal

_cell_length_a 10.90600
_cell_length_b 10.90600
_cell_length_c 22.45600
_cell_angle_alpha 90.00000
_cell_angle_beta  90.00000
_cell_angle_gamma 90.00000

_symmetry_space_group_name_	'P 1'
_symmetry_space_group_name_H-M	'P 1'

loop_
_symmetry_equiv_pos_as_xyz
  x,y,z

loop_
_atom_site_label
_atom_site_type_symbol
_atom_site_fract_x
_atom_site_fract_y
_atom_site_fract_z
_atom_site_charge
C 	C 	0.58330 0.06520 0.46360 0.02800
C 	C 	0.41670 0.93480 0.46360 0.02800
C 	C 	0.93480 0.58330 0.46360 0.02700
C 	C 	0.06520 0.41670 0.46360 0.02700
C 	C 	0.41670 0.06520 0.53640 0.02700
C 	C 	0.58330 0.93480 0.53640 0.02700
C 	C 	0.06520 0.58330 0.53640 0.02700
C 	C 	0.93480 0.41670 0.53640 0.02700
C 	C 	0.41670 0.93480 0.53640 0.02700
C 	C 	0.58330 0.06520 0.53640 0.02700
C 	C 	0.06520 0.41670 0.53640 0.02700
C 	C 	0.93480 0.58330 0.53640 0.02700
C 	C 	0.58330 0.93480 0.46360 0.02700
C 	C 	0.41670 0.06520 0.46360 0.02700
C 	C 	0.93480 0.41670 0.46360 0.02700
C 	C 	0.06520 0.58330 0.46360 0.02700
Zn	Zn	0.50000 0.50000 0.43384 1.21900
N 	N 	0.50000 0.50000 0.34400 -0.30200
N 	N 	0.50000 0.50000 0.15480 -0.31600
C 	C 	0.50000 0.50000 0.22070 0.40900
C 	C 	0.50000 0.50000 0.03190 0.06900
Zn	Zn	0.50000 0.50000 0.56616 1.21900
N 	N 	0.50000 0.50000 0.65600 -0.30200
N 	N 	0.50000 0.50000 0.84520 -0.31600
C 	C 	0.50000 0.50000 0.77930 0.40900
C 	C 	0.50000 0.50000 0.96810 0.06900
O 	O 	0.50000 0.31670 0.45060 -0.47100
O 	O 	0.50000 0.68330 0.45060 -0.47100
O 	O 	0.68330 0.50000 0.45060 -0.47100
O 	O 	0.31670 0.50000 0.45060 -0.47100
O 	O 	0.50000 0.31670 0.54940 -0.47100
O 	O 	0.50000 0.68330 0.54940 -0.47100
O 	O 	0.31670 0.50000 0.54940 -0.47100
O 	O 	0.68330 0.50000 0.54940 -0.47100
O 	O 	0.30300 0.50000 0.15740 -0.23000
C 	C 	0.39860 0.50000 0.31220 0.09900
C 	C 	0.39500 0.50000 0.25040 -0.21100
C 	C 	0.39770 0.50000 0.12940 0.20000
C 	C 	0.39700 0.50000 0.06220 -0.05300
C 	C 	0.28800 0.50000 0.03200 -0.02100
H 	H 	0.32310 0.50000 0.33330 0.00300
H 	H 	0.31840 0.50000 0.23030 0.15200
H 	H 	0.21210 0.50000 0.05300 0.06100
O 	O 	0.69700 0.50000 0.15740 -0.23000
C 	C 	0.60140 0.50000 0.31220 0.09900
C 	C 	0.60500 0.50000 0.25040 -0.21100
C 	C 	0.60230 0.50000 0.12940 0.20000
C 	C 	0.60300 0.50000 0.06220 -0.05300
C 	C 	0.71200 0.50000 0.03200 -0.02100
H 	H 	0.67690 0.50000 0.33330 0.00300
H 	H 	0.68160 0.50000 0.23030 0.15200
H 	H 	0.78790 0.50000 0.05300 0.06100
O 	O 	0.50000 0.30300 0.15740 -0.23000
C 	C 	0.50000 0.39860 0.31220 0.09900
C 	C 	0.50000 0.39500 0.25040 -0.21100
C 	C 	0.50000 0.39770 0.12940 0.20000
C 	C 	0.50000 0.39700 0.06220 -0.05300
C 	C 	0.50000 0.28800 0.03200 -0.02100
H 	H 	0.50000 0.32310 0.33330 0.00300
H 	H 	0.50000 0.31840 0.23030 0.15200
H 	H 	0.50000 0.21210 0.05300 0.06100
O 	O 	0.50000 0.69700 0.15740 -0.23000
C 	C 	0.50000 0.60140 0.31220 0.09900
C 	C 	0.50000 0.60500 0.25040 -0.21100
C 	C 	0.50000 0.60230 0.12940 0.20000
C 	C 	0.50000 0.60300 0.06220 -0.05300
C 	C 	0.50000 0.71200 0.03200 -0.02100
H 	H 	0.50000 0.67690 0.33330 0.00300
H 	H 	0.50000 0.68160 0.23030 0.15200
H 	H 	0.50000 0.78790 0.05300 0.06100
O 	O 	0.69700 0.50000 0.84260 -0.23000
C 	C 	0.60140 0.50000 0.68780 0.09900
C 	C 	0.60500 0.50000 0.74960 -0.21100
C 	C 	0.60230 0.50000 0.87060 0.20000
C 	C 	0.60300 0.50000 0.93780 -0.05300
C 	C 	0.71200 0.50000 0.96800 -0.02100
H 	H 	0.67690 0.50000 0.66670 0.00300
H 	H 	0.68160 0.50000 0.76970 0.15200
H 	H 	0.78790 0.50000 0.94700 0.06100
O 	O 	0.30300 0.50000 0.84260 -0.23000
C 	C 	0.39860 0.50000 0.68780 0.09900
C 	C 	0.39500 0.50000 0.74960 -0.21100
C 	C 	0.39770 0.50000 0.87060 0.20000
C 	C 	0.39700 0.50000 0.93780 -0.05300
C 	C 	0.28800 0.50000 0.96800 -0.02100
H 	H 	0.32310 0.50000 0.66670 0.00300
H 	H 	0.31840 0.50000 0.76970 0.15200
H 	H 	0.21210 0.50000 0.94700 0.06100
O 	O 	0.50000 0.30300 0.84260 -0.23000
C 	C 	0.50000 0.39860 0.68780 0.09900
C 	C 	0.50000 0.39500 0.74960 -0.21100
C 	C 	0.50000 0.39770 0.87060 0.20000
C 	C 	0.50000 0.39700 0.93780 -0.05300
C 	C 	0.50000 0.28800 0.96800 -0.02100
H 	H 	0.50000 0.32310 0.66670 0.00300
H 	H 	0.50000 0.31840 0.76970 0.15200
H 	H 	0.50000 0.21210 0.94700 0.06100
O 	O 	0.50000 0.69700 0.84260 -0.23000
C 	C 	0.50000 0.60140 0.68780 0.09900
C 	C 	0.50000 0.60500 0.74960 -0.21100
C 	C 	0.50000 0.60230 0.87060 0.20000
C 	C 	0.50000 0.60300 0.93780 -0.05300
C 	C 	0.50000 0.71200 0.96800 -0.02100
H 	H 	0.50000 0.67690 0.66670 0.00300
H 	H 	0.50000 0.68160 0.76970 0.15200
H 	H 	0.50000 0.78790 0.94700 0.06100
C 	C 	0.50000 0.26640 0.50000 0.42700
C 	C 	0.50000 0.12890 0.50000 -0.13300
C 	C 	0.50000 0.73360 0.50000 0.42700
C 	C 	0.50000 0.87110 0.50000 -0.13300
C 	C 	0.73360 0.50000 0.50000 0.42700
C 	C 	0.87110 0.50000 0.50000 -0.13300
C 	C 	0.26640 0.50000 0.50000 0.42700
C 	C 	0.12890 0.50000 0.50000 -0.13300
