data_crystal

_cell_length_a 13.08870
_cell_length_b 14.98130
_cell_length_c 17.12160
_cell_angle_alpha 69.18400
_cell_angle_beta  70.76700
_cell_angle_gamma 86.49400

_symmetry_space_group_name_	'P 1'
_symmetry_space_group_name_H-M	'P 1'

loop_
_symmetry_equiv_pos_as_xyz
  x,y,z

loop_
_atom_site_label
_atom_site_type_symbol
_atom_site_fract_x
_atom_site_fract_y
_atom_site_fract_z
_atom_site_charge
W 	W 	0.35073 0.18251 0.23006 0.99900
W 	W 	0.12325 0.33003 0.22468 0.98900
W 	W 	0.87266 0.22846 0.28804 0.99200
W 	W 	0.83475 0.97201 0.34943 0.99300
W 	W 	0.31343 0.94364 0.29592 1.23200
W 	W 	0.04809 0.83491 0.35260 0.98400
Co	Co	0.10302 0.93325 0.50212 1.18800
Co	Co	0.06750 0.06370 0.00714 0.84900
Co	Co	0.83990 0.95700 0.00610 1.02000
Na	Na	0.14670 0.17930 0.45140 0.58500
Na	Na	0.42130 0.70390 0.36840 0.57500
P 	P 	0.94720 0.88850 0.18857 0.54200
P 	P 	0.41120 0.07100 0.08029 0.52900
P 	P 	0.00970 0.33560 0.07514 0.47900
P 	P 	0.08484 0.07847 0.31347 0.54000
O 	O 	0.89360 0.85000 0.37650 -0.46700
O 	O 	0.25610 0.27280 0.18650 -0.42900
O 	O 	0.96570 0.33890 0.25240 -0.41900
O 	O 	0.05880 0.06100 0.41310 -0.53500
O 	O 	0.24880 0.93180 0.40840 -0.49900
O 	O 	0.40450 0.05510 0.25950 -0.42800
O 	O 	0.86070 0.18390 0.40190 -0.45700
O 	O 	0.83240 0.98330 0.45000 -0.53800
O 	O 	0.83860 0.10530 0.28740 -0.41700
O 	O 	0.88560 0.96660 0.22260 -0.34800
O 	O 	0.92510 0.25510 0.15090 -0.30900
O 	O 	0.87260 0.79900 0.22180 -0.27900
O 	O 	0.04290 0.86490 0.22500 -0.33600
O 	O 	0.99330 0.93240 0.08810 -0.62000
O 	O 	0.19640 0.87610 0.29130 -0.44100
O 	O 	0.11780 0.30090 0.33320 -0.42800
O 	O 	0.02310 -0.00000 0.30430 -0.33100
O 	O 	0.38430 0.16040 0.10400 -0.30900
O 	O 	0.95660 0.43310 0.06740 -0.19500
O 	O 	0.11270 0.33420 0.10130 -0.30600
O 	O 	0.20700 0.07370 0.26780 -0.34700
O 	O 	0.40940 0.85910 0.30370 -0.43500
O 	O 	0.34930 0.98180 0.15780 -0.32300
O 	O 	0.30210 0.18050 0.33780 -0.42800
O 	O 	0.52000 0.76180 0.44030 -0.23900
O 	O 	0.04910 0.17620 0.26530 -0.34400
O 	O 	0.53680 0.06130 0.06420 -0.17500
O 	O 	0.23480 0.70220 0.48040 -0.25000
O 	O 	0.04400 0.84810 0.45390 -0.51800
O 	O 	0.04040 0.32050 0.98740 -0.24200
O 	O 	0.38720 0.07810 0.99770 -0.22900
O 	O 	0.21320 0.99840 0.94520 -0.69000
O 	O 	0.09540 0.09920 0.11140 0.00200
O 	O 	0.72000 0.99300 0.12900 0.00400
O 	O 	0.86100 0.92940 0.89960 -0.39300
C 	C 	0.21320 0.61780 0.55390 0.12800
H 	H 	0.25670 0.56840 0.53750 -0.03000
H 	H 	0.23360 0.62820 0.59970 -0.01600
C 	C 	0.09550 0.58420 0.58980 -0.17100
H 	H 	0.08380 0.52700 0.64210 0.08400
H 	H 	0.05260 0.63310 0.60780 0.10500
C 	C 	0.11280 0.48450 0.49610 -0.05500
H 	H 	0.18970 0.50270 0.46750 0.03300
H 	H 	0.10370 0.42670 0.54750 0.04300
C 	C 	0.93390 0.53430 0.56850 -0.07900
H 	H 	0.92220 0.47720 0.62090 0.04800
H 	H 	0.89680 0.58530 0.58670 0.04600
C 	C 	0.41810 0.94020 0.50050 -0.07200
H 	H 	0.36400 0.93430 0.55700 0.04000
H 	H 	0.39010 0.90490 0.47330 0.07100
C 	C 	0.46460 0.73920 0.53480 0.06800
H 	H 	0.47100 0.67210 0.56620 -0.00900
H 	H 	0.38810 0.74960 0.54510 0.00500
C 	C 	0.50860 0.79670 0.56930 -0.12700
H 	H 	0.46170 0.78780 0.62900 0.05400
H 	H 	0.57920 0.77530 0.57210 0.06600
C 	C 	0.56010 0.96230 0.55490 -0.12500
H 	H 	0.62560 0.93700 0.56690 0.07500
H 	H 	0.50550 0.95760 0.61090 0.07500
N 	N 	0.51990 0.90080 0.51390 -0.07600
N 	N 	0.05550 0.56250 0.52410 -0.08000
W 	W 	0.64927 0.81749 0.76994 0.99600
W 	W 	0.87675 0.66997 0.77532 0.99000
W 	W 	0.12734 0.77154 0.71196 0.99000
W 	W 	0.16525 0.02799 0.65057 1.02500
W 	W 	0.68657 0.05636 0.70408 1.26800
W 	W 	0.95191 0.16509 0.64740 0.99300
Co	Co	0.89698 0.06675 0.49788 1.19900
Co	Co	0.93250 0.93630 0.99286 0.84200
Co	Co	0.16010 0.04300 0.99390 1.03800
Na	Na	0.85330 0.82070 0.54860 0.58500
Na	Na	0.57870 0.29610 0.63160 0.57500
P 	P 	0.05280 0.11150 0.81143 0.54100
P 	P 	0.58880 0.92900 0.91971 0.50700
P 	P 	0.99030 0.66440 0.92486 0.48100
P 	P 	0.91516 0.92153 0.68653 0.52900
O 	O 	0.10640 0.15000 0.62350 -0.47200
O 	O 	0.74390 0.72720 0.81350 -0.42900
O 	O 	0.03430 0.66110 0.74760 -0.42000
O 	O 	0.94120 0.93900 0.58690 -0.54600
O 	O 	0.75120 0.06820 0.59160 -0.49200
O 	O 	0.59550 0.94490 0.74050 -0.45000
O 	O 	0.13930 0.81610 0.59810 -0.46100
O 	O 	0.16760 0.01670 0.55000 -0.52500
O 	O 	0.16140 0.89470 0.71260 -0.43900
O 	O 	0.11440 0.03340 0.77740 -0.33900
O 	O 	0.07490 0.74490 0.84910 -0.31300
O 	O 	0.12740 0.20100 0.77820 -0.27900
O 	O 	0.95710 0.13510 0.77500 -0.33000
O 	O 	0.00670 0.06760 0.91190 -0.60900
O 	O 	0.80360 0.12390 0.70870 -0.44200
O 	O 	0.88220 0.69910 0.66680 -0.42700
O 	O 	0.97690 0.00000 0.69570 -0.32900
O 	O 	0.61570 0.83960 0.89600 -0.30800
O 	O 	0.04340 0.56690 0.93260 -0.19800
O 	O 	0.88730 0.66580 0.89870 -0.30600
O 	O 	0.79300 0.92630 0.73220 -0.36000
O 	O 	0.59060 0.14090 0.69630 -0.43600
O 	O 	0.65070 0.01820 0.84220 -0.30000
O 	O 	0.69790 0.81950 0.66220 -0.43100
O 	O 	0.48000 0.23820 0.55970 -0.23700
O 	O 	0.95090 0.82380 0.73470 -0.34300
O 	O 	0.46320 0.93870 0.93580 -0.18700
O 	O 	0.76520 0.29780 0.51960 -0.25100
O 	O 	0.95600 0.15190 0.54610 -0.51600
O 	O 	0.95960 0.67950 0.01260 -0.24100
O 	O 	0.61280 0.92190 0.00230 -0.23600
O 	O 	0.78680 0.00160 0.05480 -0.64400
O 	O 	0.90460 0.90080 0.88860 0.00400
O 	O 	0.28000 0.00700 0.87100 0.03900
O 	O 	0.13900 0.07060 0.10040 -0.37900
C 	C 	0.78680 0.38220 0.44610 0.12800
H 	H 	0.74330 0.43160 0.46250 -0.03100
H 	H 	0.76640 0.37180 0.40030 -0.01600
C 	C 	0.90450 0.41580 0.41020 -0.17100
H 	H 	0.91620 0.47300 0.35790 0.08400
H 	H 	0.94740 0.36690 0.39220 0.10500
C 	C 	0.88720 0.51550 0.50390 -0.05600
H 	H 	0.81030 0.49730 0.53250 0.03300
H 	H 	0.89630 0.57330 0.45250 0.04400
C 	C 	0.06610 0.46570 0.43150 -0.08100
H 	H 	0.07780 0.52280 0.37910 0.04800
H 	H 	0.10320 0.41470 0.41330 0.04600
C 	C 	0.58190 0.05980 0.49950 -0.00100
H 	H 	0.63600 0.06570 0.44300 0.02800
H 	H 	0.60990 0.09510 0.52670 0.05400
C 	C 	0.53540 0.26080 0.46520 0.06500
H 	H 	0.52900 0.32790 0.43380 -0.00800
H 	H 	0.61190 0.25040 0.45490 0.00600
C 	C 	0.49140 0.20330 0.43070 -0.12200
H 	H 	0.53830 0.21220 0.37100 0.05300
H 	H 	0.42080 0.22470 0.42790 0.06400
C 	C 	0.43990 0.03770 0.44510 -0.05400
H 	H 	0.37440 0.06300 0.43310 0.06000
H 	H 	0.49450 0.04240 0.38910 0.06300
N 	N 	0.48010 0.09920 0.48610 -0.08800
N 	N 	0.94450 0.43750 0.47590 -0.07900
