data_crystal

_cell_length_a 23.51800
_cell_length_b 13.29100
_cell_length_c 22.58100
_cell_angle_alpha 90.00000
_cell_angle_beta  106.66000
_cell_angle_gamma 90.00000

_symmetry_space_group_name_	'P 1'
_symmetry_space_group_name_H-M	'P 1'

loop_
_symmetry_equiv_pos_as_xyz
  x,y,z

loop_
_atom_site_label
_atom_site_type_symbol
_atom_site_fract_x
_atom_site_fract_y
_atom_site_fract_z
_atom_site_charge
Gd	Gd	0.24204 0.60648 0.29352 1.18400
N 	N 	0.27550 0.43620 0.27660 -0.22300
N 	N 	0.28100 0.28230 0.23750 -0.22400
N 	N 	0.34320 0.67240 0.31610 -0.22700
N 	N 	0.42450 0.74110 0.30060 -0.21800
N 	N 	0.14480 0.52940 0.25230 -0.22800
N 	N 	0.06130 0.44530 0.24830 -0.22500
N 	N 	0.28480 0.53130 0.39780 -0.22100
N 	N 	0.28440 0.40130 0.46120 -0.23200
N 	N 	0.24000 0.60670 0.18180 -0.21600
N 	N 	0.23600 0.65140 0.08470 -0.23100
N 	N 	0.18450 0.67600 0.36350 -0.21400
N 	N 	0.12210 0.71110 0.41240 -0.19700
H 	H 	0.09070 0.70660 0.42600 0.07000
N 	N 	0.43200 0.79250 0.14450 -0.22300
N 	N 	0.34920 0.78470 0.06460 -0.23000
C 	C 	0.24640 0.35550 0.24930 0.11200
H 	H 	0.20440 0.34980 0.23890 -0.03600
C 	C 	0.33550 0.31920 0.26070 0.00800
H 	H 	0.37110 0.28650 0.25990 0.01300
C 	C 	0.37930 0.67910 0.28100 0.12900
H 	H 	0.37310 0.64160 0.24390 -0.04000
C 	C 	0.36530 0.74160 0.36130 0.00000
H 	H 	0.34920 0.75700 0.39440 0.00600
C 	C 	0.41400 0.78490 0.35130 0.00600
H 	H 	0.43700 0.83700 0.37560 0.00900
C 	C 	0.11920 0.45380 0.27300 0.11700
H 	H 	0.14120 0.40850 0.30370 -0.04000
C 	C 	0.09930 0.57210 0.20960 -0.00700
H 	H 	0.10230 0.62740 0.18390 -0.00600
C 	C 	0.04860 0.52390 0.20890 -0.01300
H 	H 	0.00990 0.54240 0.18440 -0.04100
C 	C 	0.25490 0.46080 0.41590 0.11900
H 	H 	0.21350 0.45260 0.39720 -0.04800
C 	C 	0.33190 0.41180 0.28610 0.00600
H 	H 	0.36480 0.45210 0.30720 0.01700
C 	C 	0.33830 0.44400 0.47460 0.00100
H 	H 	0.37200 0.42150 0.50620 0.01300
C 	C 	0.26420 0.55730 0.09700 -0.01600
H 	H 	0.27700 0.51810 0.06800 0.00900
C 	C 	0.27030 0.53120 0.15680 -0.01900
H 	H 	0.29070 0.47410 0.17790 0.02400
C 	C 	0.20430 0.75520 0.40170 0.02000
H 	H 	0.24000 0.79040 0.40400 -0.00100
C 	C 	0.13230 0.65380 0.36590 0.09800
H 	H 	0.10570 0.60690 0.34050 -0.04000
C 	C 	0.33830 0.52270 0.43760 0.01300
H 	H 	0.37120 0.56530 0.43950 0.01500
C 	C 	0.49630 0.56320 0.17730 -0.08600
N 	N 	0.49690 0.60830 0.23460 -0.15000
C 	C 	0.51150 0.54020 0.28540 0.26200
C 	C 	0.52020 0.44710 0.26220 -0.03000
N 	N 	0.50960 0.46400 0.19520 -0.13400
C 	C 	0.23150 0.67750 0.14040 0.11500
H 	H 	0.22250 0.74450 0.14930 -0.03800
C 	C 	0.16920 0.77760 0.43490 -0.02700
H 	H 	0.17430 0.82690 0.46640 0.02000
C 	C 	0.38110 0.74650 0.11860 0.11800
H 	H 	0.36810 0.69020 0.13710 -0.03800
C 	C 	0.43300 0.86810 0.10290 -0.00500
H 	H 	0.46400 0.91570 0.10720 0.00500
C 	C 	0.38290 0.86390 0.05540 -0.00200
H 	H 	0.37270 0.90860 0.02110 -0.00200
C 	C 	0.22260 0.55150 0.08470 0.00900
H 	H 	0.21290 0.50860 0.04950 -0.00600
C 	C 	0.22560 0.52480 0.14100 -0.00100
H 	H 	0.21900 0.45830 0.15300 0.00800
Gd	Gd	0.74204 0.10648 0.29352 1.18500
N 	N 	0.77550 0.93620 0.27660 -0.22700
N 	N 	0.78100 0.78230 0.23750 -0.21900
N 	N 	0.84320 0.17240 0.31610 -0.22700
N 	N 	0.92450 0.24110 0.30060 -0.22400
N 	N 	0.64480 0.02940 0.25230 -0.23000
N 	N 	0.56130 0.94530 0.24830 -0.22200
N 	N 	0.78480 0.03130 0.39780 -0.22500
N 	N 	0.78440 0.90130 0.46120 -0.22900
N 	N 	0.74000 0.10670 0.18180 -0.21500
N 	N 	0.73600 0.15140 0.08470 -0.23100
N 	N 	0.68450 0.17600 0.36350 -0.21400
N 	N 	0.62210 0.21110 0.41240 -0.19700
H 	H 	0.59070 0.20660 0.42600 0.11000
N 	N 	0.93200 0.29250 0.14450 -0.12900
N 	N 	0.84920 0.28470 0.06460 -0.23000
C 	C 	0.74640 0.85550 0.24930 0.11300
H 	H 	0.70440 0.84980 0.23890 -0.03500
C 	C 	0.83550 0.81920 0.26070 -0.00100
H 	H 	0.87110 0.78650 0.25990 0.04400
C 	C 	0.87930 0.17910 0.28100 0.08400
H 	H 	0.87310 0.14160 0.24390 -0.04100
C 	C 	0.86530 0.24160 0.36130 -0.00000
H 	H 	0.84920 0.25700 0.39440 0.01100
C 	C 	0.91400 0.28490 0.35130 -0.01200
H 	H 	0.93700 0.33700 0.37560 0.04500
C 	C 	0.61920 0.95380 0.27300 0.12500
H 	H 	0.64120 0.90850 0.30370 -0.04500
C 	C 	0.59930 0.07210 0.20960 0.00400
H 	H 	0.60230 0.12740 0.18390 0.00500
C 	C 	0.54860 0.02390 0.20890 0.00300
H 	H 	0.50990 0.04240 0.18440 0.01100
C 	C 	0.75490 0.96080 0.41590 0.12100
H 	H 	0.71350 0.95260 0.39720 -0.05000
C 	C 	0.83190 0.91180 0.28610 0.03000
H 	H 	0.86480 0.95210 0.30720 -0.00400
C 	C 	0.83830 0.94400 0.47460 -0.00700
H 	H 	0.87200 0.92150 0.50620 0.05600
C 	C 	0.76420 0.05730 0.09700 -0.01800
H 	H 	0.77700 0.01810 0.06800 0.01600
C 	C 	0.77030 0.03120 0.15680 -0.01900
H 	H 	0.79070 0.97410 0.17790 0.03200
C 	C 	0.70430 0.25520 0.40170 0.02000
H 	H 	0.74000 0.29040 0.40400 0.00300
C 	C 	0.63230 0.15380 0.36590 0.12100
H 	H 	0.60570 0.10690 0.34050 -0.02500
C 	C 	0.83830 0.02270 0.43760 0.02500
H 	H 	0.87120 0.06530 0.43950 0.01600
C 	C 	0.99630 0.06320 0.17730 -2.03500
N 	N 	0.99690 0.10830 0.23460 -2.75400
C 	C 	0.01150 0.04020 0.28540 -4.46800
C 	C 	0.02020 0.94710 0.26220 1.91800
N 	N 	0.00960 0.96400 0.19520 -0.70000
C 	C 	0.73150 0.17750 0.14040 0.11900
H 	H 	0.72250 0.24450 0.14930 -0.03800
C 	C 	0.66920 0.27760 0.43490 -0.00200
H 	H 	0.67430 0.32690 0.46640 0.02500
C 	C 	0.88110 0.24650 0.11860 0.14900
H 	H 	0.86810 0.19020 0.13710 -0.01900
C 	C 	0.93300 0.36810 0.10290 0.01100
H 	H 	0.96400 0.41570 0.10720 0.06700
C 	C 	0.88290 0.36390 0.05540 0.01600
H 	H 	0.87270 0.40860 0.02110 0.00400
C 	C 	0.72260 0.05150 0.08470 0.01600
H 	H 	0.71290 0.00860 0.04950 -0.00600
C 	C 	0.72560 0.02480 0.14100 -0.00300
H 	H 	0.71900 0.95830 0.15300 0.01200
Gd	Gd	0.75796 0.60648 0.20648 1.19300
N 	N 	0.72450 0.43620 0.22340 -0.22200
N 	N 	0.71900 0.28230 0.26250 -0.22100
N 	N 	0.65680 0.67240 0.18390 -0.22700
N 	N 	0.57550 0.74110 0.19940 -0.21900
N 	N 	0.85520 0.52940 0.24770 -0.22900
N 	N 	0.93870 0.44530 0.25170 -0.16400
N 	N 	0.71520 0.53130 0.10220 -0.22800
N 	N 	0.71560 0.40130 0.03880 -0.22300
N 	N 	0.76000 0.60670 0.31820 -0.21600
N 	N 	0.76400 0.65140 0.41530 -0.23000
N 	N 	0.81550 0.67600 0.13650 -0.21400
N 	N 	0.87790 0.71110 0.08760 -0.19700
H 	H 	0.90930 0.70660 0.07400 0.14500
N 	N 	0.56800 0.79250 0.35550 -0.22200
N 	N 	0.65080 0.78470 0.43540 -0.23200
C 	C 	0.75360 0.35550 0.25070 0.11100
H 	H 	0.79560 0.34980 0.26110 -0.03000
C 	C 	0.66450 0.31920 0.23930 0.00600
H 	H 	0.62890 0.28650 0.24010 0.01300
C 	C 	0.62070 0.67910 0.21900 0.12800
H 	H 	0.62690 0.64160 0.25610 -0.04000
C 	C 	0.63470 0.74160 0.13870 -0.00000
H 	H 	0.65080 0.75700 0.10560 0.00200
C 	C 	0.58600 0.78490 0.14870 0.00400
H 	H 	0.56300 0.83700 0.12440 0.00700
C 	C 	0.88080 0.45380 0.22700 0.12500
H 	H 	0.85880 0.40850 0.19630 -0.03500
C 	C 	0.90070 0.57210 0.29040 0.02100
H 	H 	0.89770 0.62740 0.31610 0.01600
C 	C 	0.95140 0.52390 0.29110 0.01500
H 	H 	0.99010 0.54240 0.31560 0.07800
C 	C 	0.74510 0.46080 0.08410 0.11700
H 	H 	0.78650 0.45260 0.10280 -0.04900
C 	C 	0.66810 0.41180 0.21390 0.00600
H 	H 	0.63520 0.45210 0.19280 0.01600
C 	C 	0.66170 0.44400 0.02540 -0.07600
H 	H 	0.62800 0.42150 0.99380 0.06100
C 	C 	0.73580 0.55730 0.40300 -0.02000
H 	H 	0.72300 0.51810 0.43200 0.01500
C 	C 	0.72970 0.53120 0.34320 -0.03400
H 	H 	0.70930 0.47410 0.32210 0.03000
C 	C 	0.79570 0.75520 0.09830 0.01700
H 	H 	0.76000 0.79040 0.09600 0.00100
C 	C 	0.86770 0.65380 0.13410 0.14200
H 	H 	0.89430 0.60690 0.15950 -0.00700
C 	C 	0.66170 0.52270 0.06240 0.04600
H 	H 	0.62880 0.56530 0.06050 -0.00400
C 	C 	0.50370 0.56320 0.32270 -0.10700
N 	N 	0.50310 0.60830 0.26540 -0.18400
C 	C 	0.48850 0.54020 0.21460 0.20700
C 	C 	0.47980 0.44710 0.23780 -0.00200
N 	N 	0.49040 0.46400 0.30480 -0.13800
C 	C 	0.76850 0.67750 0.35960 0.12200
H 	H 	0.77750 0.74450 0.35070 -0.03700
C 	C 	0.83080 0.77760 0.06510 0.01900
H 	H 	0.82570 0.82690 0.03360 0.02100
C 	C 	0.61890 0.74650 0.38140 0.12000
H 	H 	0.63190 0.69020 0.36290 -0.03800
C 	C 	0.56700 0.86810 0.39710 -0.00300
H 	H 	0.53600 0.91570 0.39280 0.00700
C 	C 	0.61710 0.86390 0.44460 -0.00000
H 	H 	0.62730 0.90860 0.47890 0.00600
C 	C 	0.77740 0.55150 0.41530 0.01400
H 	H 	0.78710 0.50860 0.45050 0.00600
C 	C 	0.77440 0.52480 0.35900 0.02000
H 	H 	0.78100 0.45830 0.34700 0.00800
Gd	Gd	0.25796 0.10648 0.20648 1.19100
N 	N 	0.22450 0.93620 0.22340 -0.21600
N 	N 	0.21900 0.78230 0.26250 -0.22600
N 	N 	0.15680 0.17240 0.18390 -0.22300
N 	N 	0.07550 0.24110 0.19940 -0.15800
N 	N 	0.35520 0.02940 0.24770 -0.23000
N 	N 	0.43870 0.94530 0.25170 -0.22200
N 	N 	0.21520 0.03130 0.10220 -0.22400
N 	N 	0.21560 0.90130 0.03880 -0.22800
N 	N 	0.26000 0.10670 0.31820 -0.21600
N 	N 	0.26400 0.15140 0.41530 -0.23000
N 	N 	0.31550 0.17600 0.13650 -0.21500
N 	N 	0.37790 0.21110 0.08760 -0.19700
H 	H 	0.40930 0.20660 0.07400 0.10400
N 	N 	0.06800 0.29250 0.35550 -0.26100
N 	N 	0.15080 0.28470 0.43540 -0.23000
C 	C 	0.25360 0.85550 0.25070 0.11000
H 	H 	0.29560 0.84980 0.26110 -0.03400
C 	C 	0.16450 0.81920 0.23930 0.01600
H 	H 	0.12890 0.78650 0.24010 -0.01700
C 	C 	0.12070 0.17910 0.21900 0.16500
H 	H 	0.12690 0.14160 0.25610 -0.02300
C 	C 	0.13470 0.24160 0.13870 0.00500
H 	H 	0.15080 0.25700 0.10560 -0.00400
C 	C 	0.08600 0.28490 0.14870 0.01800
H 	H 	0.06300 0.33700 0.12440 -0.01500
C 	C 	0.38080 0.95380 0.22700 0.12600
H 	H 	0.35880 0.90850 0.19630 -0.04500
C 	C 	0.40070 0.07210 0.29040 0.00400
H 	H 	0.39770 0.12740 0.31610 0.00600
C 	C 	0.45140 0.02390 0.29110 0.00400
H 	H 	0.49010 0.04240 0.31560 0.01200
C 	C 	0.24510 0.96080 0.08410 0.11800
H 	H 	0.28650 0.95260 0.10280 -0.04900
C 	C 	0.16810 0.91180 0.21390 -0.01900
H 	H 	0.13520 0.95210 0.19280 0.03800
C 	C 	0.16170 0.94400 0.02540 -0.05900
H 	H 	0.12800 0.92150 0.99380 0.01600
C 	C 	0.23580 0.05730 0.40300 -0.01600
H 	H 	0.22300 0.01810 0.43200 0.00600
C 	C 	0.22970 0.03120 0.34320 -0.03500
H 	H 	0.20930 0.97410 0.32210 0.02400
C 	C 	0.29570 0.25520 0.09830 0.01800
H 	H 	0.26000 0.29040 0.09600 -0.00200
C 	C 	0.36770 0.15380 0.13410 0.11800
H 	H 	0.39430 0.10690 0.15950 -0.02500
C 	C 	0.16170 0.02270 0.06240 0.02900
H 	H 	0.12880 0.06530 0.06050 -0.00200
C 	C 	0.00370 0.06320 0.32270 1.88300
N 	N 	0.00310 0.10830 0.26540 2.45900
C 	C 	0.98850 0.04020 0.21460 4.89200
C 	C 	0.97980 0.94710 0.23780 -1.93600
N 	N 	0.99040 0.96400 0.30480 0.42900
C 	C 	0.26850 0.17750 0.35960 0.11900
H 	H 	0.27750 0.24450 0.35070 -0.03700
C 	C 	0.33080 0.27760 0.06510 -0.00700
H 	H 	0.32570 0.32690 0.03360 0.01600
C 	C 	0.11890 0.24650 0.38140 0.08100
H 	H 	0.13190 0.19020 0.36290 -0.04400
C 	C 	0.06700 0.36810 0.39710 -0.02200
H 	H 	0.03600 0.41570 0.39280 -0.04200
C 	C 	0.11710 0.36390 0.44460 -0.01600
H 	H 	0.12730 0.40860 0.47890 -0.00200
C 	C 	0.27740 0.05150 0.41530 0.00700
H 	H 	0.28710 0.00860 0.45050 0.00500
C 	C 	0.27440 0.02480 0.35900 0.01800
H 	H 	0.28100 0.95830 0.34700 0.00600
Gd	Gd	0.75796 0.39352 0.70648 1.19400
N 	N 	0.72450 0.56380 0.72340 -0.22200
N 	N 	0.71900 0.71770 0.76250 -0.22200
N 	N 	0.65680 0.32760 0.68390 -0.22600
N 	N 	0.57550 0.25890 0.69940 -0.21900
N 	N 	0.85520 0.47060 0.74770 -0.22900
N 	N 	0.93870 0.55470 0.75170 -0.16400
N 	N 	0.71520 0.46870 0.60220 -0.22100
N 	N 	0.71560 0.59870 0.53880 -0.23300
N 	N 	0.76000 0.39330 0.81820 -0.21600
N 	N 	0.76400 0.34860 0.91530 -0.21800
N 	N 	0.81550 0.32400 0.63650 -0.21400
N 	N 	0.87790 0.28890 0.58760 -0.19700
H 	H 	0.90930 0.29340 0.57400 0.15100
N 	N 	0.56800 0.20750 0.85550 -0.22200
N 	N 	0.65080 0.21530 0.93540 -0.22000
C 	C 	0.75360 0.64450 0.75070 0.11100
H 	H 	0.79560 0.65020 0.76110 -0.03000
C 	C 	0.66450 0.68080 0.73930 0.00700
H 	H 	0.62890 0.71350 0.74010 0.01400
C 	C 	0.62070 0.32090 0.71900 0.12900
H 	H 	0.62690 0.35840 0.75610 -0.03900
C 	C 	0.63470 0.25840 0.63870 0.00000
H 	H 	0.65080 0.24300 0.60560 0.00600
C 	C 	0.58600 0.21510 0.64870 0.00500
H 	H 	0.56300 0.16300 0.62440 0.00900
C 	C 	0.88080 0.54620 0.72700 0.12600
H 	H 	0.85880 0.59150 0.69630 -0.03600
C 	C 	0.90070 0.42790 0.79040 0.02100
H 	H 	0.89770 0.37260 0.81610 0.01800
C 	C 	0.95140 0.47610 0.79110 0.01600
H 	H 	0.99010 0.45760 0.81560 0.07800
C 	C 	0.74510 0.53920 0.58410 0.12000
H 	H 	0.78650 0.54740 0.60280 -0.04900
C 	C 	0.66810 0.58820 0.71390 0.00600
H 	H 	0.63520 0.54790 0.69280 0.01700
C 	C 	0.66170 0.55600 0.52540 0.00100
H 	H 	0.62800 0.57850 0.49380 0.01300
C 	C 	0.73580 0.44270 0.90300 -0.02200
H 	H 	0.72300 0.48190 0.93200 0.02300
C 	C 	0.72970 0.46880 0.84320 -0.03500
H 	H 	0.70930 0.52590 0.82210 0.03000
C 	C 	0.79570 0.24480 0.59830 0.02000
H 	H 	0.76000 0.20960 0.59600 0.00400
C 	C 	0.86770 0.34620 0.63410 0.14400
H 	H 	0.89430 0.39310 0.65950 -0.00700
C 	C 	0.66170 0.47730 0.56240 0.01300
H 	H 	0.62880 0.43470 0.56050 0.01500
C 	C 	0.50370 0.43680 0.82270 -0.10400
N 	N 	0.50310 0.39170 0.76540 -0.18600
C 	C 	0.48850 0.45980 0.71460 0.20000
C 	C 	0.47980 0.55290 0.73780 0.00100
N 	N 	0.49040 0.53600 0.80480 -0.13800
C 	C 	0.76850 0.32250 0.85960 0.12300
H 	H 	0.77750 0.25550 0.85070 -0.03400
C 	C 	0.83080 0.22240 0.56510 0.02300
H 	H 	0.82570 0.17310 0.53360 0.02900
C 	C 	0.61890 0.25350 0.88140 0.12000
H 	H 	0.63190 0.30980 0.86290 -0.03600
C 	C 	0.56700 0.13190 0.89710 -0.00000
H 	H 	0.53600 0.08430 0.89280 0.00900
C 	C 	0.61710 0.13610 0.94460 0.00100
H 	H 	0.62730 0.09140 0.97890 0.01700
C 	C 	0.77740 0.44850 0.91530 0.01400
H 	H 	0.78710 0.49140 0.95050 0.01600
C 	C 	0.77440 0.47520 0.85900 0.02400
H 	H 	0.78100 0.54170 0.84700 0.00800
Gd	Gd	0.25796 0.89352 0.70648 1.19300
N 	N 	0.22450 0.06380 0.72340 -0.21700
N 	N 	0.21900 0.21770 0.76250 -0.22600
N 	N 	0.15680 0.82760 0.68390 -0.22300
N 	N 	0.07550 0.75890 0.69940 -0.15800
N 	N 	0.35520 0.97060 0.74770 -0.22900
N 	N 	0.43870 0.05470 0.75170 -0.22300
N 	N 	0.21520 0.96870 0.60220 -0.21800
N 	N 	0.21560 0.09870 0.53880 -0.23700
N 	N 	0.26000 0.89330 0.81820 -0.21600
N 	N 	0.26400 0.84860 0.91530 -0.21900
N 	N 	0.31550 0.82400 0.63650 -0.21500
N 	N 	0.37790 0.78890 0.58760 -0.19700
H 	H 	0.40930 0.79340 0.57400 0.11000
N 	N 	0.06800 0.70750 0.85550 -0.26000
N 	N 	0.15080 0.71530 0.93540 -0.21900
C 	C 	0.25360 0.14450 0.75070 0.11100
H 	H 	0.29560 0.15020 0.76110 -0.03400
C 	C 	0.16450 0.18080 0.73930 0.01600
H 	H 	0.12890 0.21350 0.74010 -0.01700
C 	C 	0.12070 0.82090 0.71900 0.16500
H 	H 	0.12690 0.85840 0.75610 -0.02300
C 	C 	0.13470 0.75840 0.63870 0.00500
H 	H 	0.15080 0.74300 0.60560 0.00000
C 	C 	0.08600 0.71510 0.64870 0.01900
H 	H 	0.06300 0.66300 0.62440 -0.01300
C 	C 	0.38080 0.04620 0.72700 0.12500
H 	H 	0.35880 0.09150 0.69630 -0.04500
C 	C 	0.40070 0.92790 0.79040 0.00400
H 	H 	0.39770 0.87260 0.81610 0.00900
C 	C 	0.45140 0.97610 0.79110 0.00600
H 	H 	0.49010 0.95760 0.81560 0.01300
C 	C 	0.24510 0.03920 0.58410 0.11800
H 	H 	0.28650 0.04740 0.60280 -0.04900
C 	C 	0.16810 0.08820 0.71390 -0.01800
H 	H 	0.13520 0.04790 0.69280 0.03900
C 	C 	0.16170 0.05600 0.52540 0.01000
H 	H 	0.12800 0.07850 0.49380 -0.02900
C 	C 	0.23580 0.94270 0.90300 -0.01800
H 	H 	0.22300 0.98190 0.93200 0.01400
C 	C 	0.22970 0.96880 0.84320 -0.03500
H 	H 	0.20930 0.02590 0.82210 0.02400
C 	C 	0.29570 0.74480 0.59830 0.02000
H 	H 	0.26000 0.70960 0.59600 0.00000
C 	C 	0.36770 0.84620 0.63410 0.12100
H 	H 	0.39430 0.89310 0.65950 -0.02500
C 	C 	0.16170 0.97730 0.56240 0.00000
H 	H 	0.12880 0.93470 0.56050 0.01500
C 	C 	0.00370 0.93680 0.82270 1.88300
N 	N 	0.00310 0.89170 0.76540 2.45200
C 	C 	0.98850 0.95980 0.71460 4.87900
C 	C 	0.97980 0.05290 0.73780 -1.93000
N 	N 	0.99040 0.03600 0.80480 0.42700
C 	C 	0.26850 0.82250 0.85960 0.12000
H 	H 	0.27750 0.75550 0.85070 -0.03500
C 	C 	0.33080 0.72240 0.56510 -0.00300
H 	H 	0.32570 0.67310 0.53360 0.02500
C 	C 	0.11890 0.75350 0.88140 0.08100
H 	H 	0.13190 0.80980 0.86290 -0.04100
C 	C 	0.06700 0.63190 0.89710 -0.01900
H 	H 	0.03600 0.58430 0.89280 -0.04000
C 	C 	0.11710 0.63610 0.94460 -0.01400
H 	H 	0.12730 0.59140 0.97890 0.01000
C 	C 	0.27740 0.94850 0.91530 0.00700
H 	H 	0.28710 0.99140 0.95050 0.01500
C 	C 	0.27440 0.97520 0.85900 0.02300
H 	H 	0.28100 0.04170 0.84700 0.00500
Gd	Gd	0.24204 0.39352 0.79352 1.18700
N 	N 	0.27550 0.56380 0.77660 -0.22100
N 	N 	0.28100 0.71770 0.73750 -0.22300
N 	N 	0.34320 0.32760 0.81610 -0.22500
N 	N 	0.42450 0.25890 0.80060 -0.21800
N 	N 	0.14480 0.47060 0.75230 -0.22800
N 	N 	0.06130 0.55470 0.74830 -0.22500
N 	N 	0.28480 0.46870 0.89780 -0.21300
N 	N 	0.28440 0.59870 0.96120 -0.23000
N 	N 	0.24000 0.39330 0.68180 -0.21600
N 	N 	0.23600 0.34860 0.58470 -0.23100
N 	N 	0.18450 0.32400 0.86350 -0.21400
N 	N 	0.12210 0.28890 0.91240 -0.19700
H 	H 	0.09070 0.29340 0.92600 0.07700
N 	N 	0.43200 0.20750 0.64450 -0.22300
N 	N 	0.34920 0.21530 0.56460 -0.23100
C 	C 	0.24640 0.64450 0.74930 0.11200
H 	H 	0.20440 0.65020 0.73890 -0.03600
C 	C 	0.33550 0.68080 0.76070 0.00800
H 	H 	0.37110 0.71350 0.75990 0.01400
C 	C 	0.37930 0.32090 0.78100 0.13000
H 	H 	0.37310 0.35840 0.74390 -0.04000
C 	C 	0.36530 0.25840 0.86130 0.00100
H 	H 	0.34920 0.24300 0.89440 0.01000
C 	C 	0.41400 0.21510 0.85130 0.00800
H 	H 	0.43700 0.16300 0.87560 0.01200
C 	C 	0.11920 0.54620 0.77300 0.11700
H 	H 	0.14120 0.59150 0.80370 -0.03900
C 	C 	0.09930 0.42790 0.70960 -0.00700
H 	H 	0.10230 0.37260 0.68390 -0.00400
C 	C 	0.04860 0.47610 0.70890 -0.01200
H 	H 	0.00990 0.45760 0.68440 -0.04100
C 	C 	0.25490 0.53920 0.91590 0.12000
H 	H 	0.21350 0.54740 0.89720 -0.04500
C 	C 	0.33190 0.58820 0.78610 0.00600
H 	H 	0.36480 0.54790 0.80720 0.01800
C 	C 	0.33830 0.55600 0.97460 0.07600
H 	H 	0.37200 0.57850 0.00620 -0.03100
C 	C 	0.26420 0.44270 0.59700 -0.01600
H 	H 	0.27700 0.48190 0.56800 0.01400
C 	C 	0.27030 0.46880 0.65680 -0.02300
H 	H 	0.29070 0.52590 0.67790 0.02600
C 	C 	0.20430 0.24480 0.90170 0.02300
H 	H 	0.24000 0.20960 0.90400 0.00200
C 	C 	0.13230 0.34620 0.86590 0.10100
H 	H 	0.10570 0.39310 0.84050 -0.04000
C 	C 	0.33830 0.47730 0.93760 -0.01900
H 	H 	0.37120 0.43470 0.93950 0.03400
C 	C 	0.49630 0.43680 0.67730 -0.08000
N 	N 	0.49690 0.39170 0.73460 -0.14600
C 	C 	0.51150 0.45980 0.78540 0.26300
C 	C 	0.52020 0.55290 0.76220 -0.03000
N 	N 	0.50960 0.53600 0.69520 -0.13300
C 	C 	0.23150 0.32250 0.64040 0.11600
H 	H 	0.22250 0.25550 0.64930 -0.03900
C 	C 	0.16920 0.22240 0.93490 -0.02300
H 	H 	0.17430 0.17310 0.96640 0.02900
C 	C 	0.38110 0.25350 0.61860 0.12000
H 	H 	0.36810 0.30980 0.63710 -0.03800
C 	C 	0.43300 0.13190 0.60290 -0.00300
H 	H 	0.46400 0.08430 0.60720 0.00600
C 	C 	0.38290 0.13610 0.55540 -0.00100
H 	H 	0.37270 0.09140 0.52110 0.00600
C 	C 	0.22260 0.44850 0.58470 0.00800
H 	H 	0.21290 0.49140 0.54950 0.00200
C 	C 	0.22560 0.47520 0.64100 0.00500
H 	H 	0.21900 0.54170 0.65300 0.00800
Gd	Gd	0.74204 0.89352 0.79352 1.18800
N 	N 	0.77550 0.06380 0.77660 -0.22700
N 	N 	0.78100 0.21770 0.73750 -0.21900
N 	N 	0.84320 0.82760 0.81610 -0.22700
N 	N 	0.92450 0.75890 0.80060 -0.22400
N 	N 	0.64480 0.97060 0.75230 -0.22900
N 	N 	0.56130 0.05470 0.74830 -0.22300
N 	N 	0.78480 0.96870 0.89780 -0.21700
N 	N 	0.78440 0.09870 0.96120 -0.22600
N 	N 	0.74000 0.89330 0.68180 -0.21600
N 	N 	0.73600 0.84860 0.58470 -0.23100
N 	N 	0.68450 0.82400 0.86350 -0.21400
N 	N 	0.62210 0.78890 0.91240 -0.19700
H 	H 	0.59070 0.79340 0.92600 0.11700
N 	N 	0.93200 0.70750 0.64450 -0.12900
N 	N 	0.84920 0.71530 0.56460 -0.23000
C 	C 	0.74640 0.14450 0.74930 0.11300
H 	H 	0.70440 0.15020 0.73890 -0.03500
C 	C 	0.83550 0.18080 0.76070 -0.00100
H 	H 	0.87110 0.21350 0.75990 0.04400
C 	C 	0.87930 0.82090 0.78100 0.08500
H 	H 	0.87310 0.85840 0.74390 -0.04100
C 	C 	0.86530 0.75840 0.86130 -0.00000
H 	H 	0.84920 0.74300 0.89440 0.01500
C 	C 	0.91400 0.71510 0.85130 -0.01100
H 	H 	0.93700 0.66300 0.87560 0.04800
C 	C 	0.61920 0.04620 0.77300 0.12400
H 	H 	0.64120 0.09150 0.80370 -0.04500
C 	C 	0.59930 0.92790 0.70960 0.00400
H 	H 	0.60230 0.87260 0.68390 0.00700
C 	C 	0.54860 0.97610 0.70890 0.00500
H 	H 	0.50990 0.95760 0.68440 0.01200
C 	C 	0.75490 0.03920 0.91590 0.12100
H 	H 	0.71350 0.04740 0.89720 -0.04600
C 	C 	0.83190 0.08820 0.78610 0.03100
H 	H 	0.86480 0.04790 0.80720 -0.00300
C 	C 	0.83830 0.05600 0.97460 0.06600
H 	H 	0.87200 0.07850 0.00620 0.01100
C 	C 	0.76420 0.94270 0.59700 -0.01800
H 	H 	0.77700 0.98190 0.56800 0.02200
C 	C 	0.77030 0.96880 0.65680 -0.02200
H 	H 	0.79070 0.02590 0.67790 0.03200
C 	C 	0.70430 0.74480 0.90170 0.02200
H 	H 	0.74000 0.70960 0.90400 0.00500
C 	C 	0.63230 0.84620 0.86590 0.12400
H 	H 	0.60570 0.89310 0.84050 -0.02500
C 	C 	0.83830 0.97730 0.93760 -0.00600
H 	H 	0.87120 0.93470 0.93950 0.03400
C 	C 	0.99630 0.93680 0.67730 -2.02500
N 	N 	0.99690 0.89170 0.73460 -2.74700
C 	C 	0.01150 0.95980 0.78540 -4.45900
C 	C 	0.02020 0.05290 0.76220 1.91400
N 	N 	0.00960 0.03600 0.69520 -0.69900
C 	C 	0.73150 0.82250 0.64040 0.12000
H 	H 	0.72250 0.75550 0.64930 -0.03800
C 	C 	0.66920 0.72240 0.93490 0.00200
H 	H 	0.67430 0.67310 0.96640 0.03300
C 	C 	0.88110 0.75350 0.61860 0.15100
H 	H 	0.86810 0.80980 0.63710 -0.02000
C 	C 	0.93300 0.63190 0.60290 0.01300
H 	H 	0.96400 0.58430 0.60720 0.07000
C 	C 	0.88290 0.63610 0.55540 0.01900
H 	H 	0.87270 0.59140 0.52110 0.01300
C 	C 	0.72260 0.94850 0.58470 0.01500
H 	H 	0.71290 0.99140 0.54950 0.00300
C 	C 	0.72560 0.97520 0.64100 0.00600
H 	H 	0.71900 0.04170 0.65300 0.01000
Gd	Gd	0.50000 0.79527 0.25000 1.21900
Gd	Gd	0.00000 0.29527 0.25000 0.92200
Gd	Gd	0.50000 0.20473 0.75000 1.21900
Gd	Gd	0.00000 0.70473 0.75000 0.92100
Gd	Gd	0.25000 0.75000 -0.00000 1.10400
Gd	Gd	0.75000 0.75000 0.50000 1.17600
Gd	Gd	0.75000 0.25000 -0.00000 1.11600
Gd	Gd	0.25000 0.25000 0.50000 1.16000
