data_crystal

_cell_length_a 13.29300
_cell_length_b 13.78200
_cell_length_c 14.01100
_cell_angle_alpha 90.00000
_cell_angle_beta  90.00000
_cell_angle_gamma 90.00000

_symmetry_space_group_name_	'P 1'
_symmetry_space_group_name_H-M	'P 1'

loop_
_symmetry_equiv_pos_as_xyz
  x,y,z

loop_
_atom_site_label
_atom_site_type_symbol
_atom_site_fract_x
_atom_site_fract_y
_atom_site_fract_z
_atom_site_charge
Zn	Zn	0.37192 0.27703 0.24437 1.23600
Zn	Zn	0.22490 0.63123 0.38723 1.23100
Zn	Zn	0.37334 0.23963 0.49452 1.23200
Zn	Zn	0.25807 0.37417 0.84983 1.22900
Zn	Zn	0.06587 0.24041 0.36732 1.23600
P 	P 	0.24084 0.39212 0.39104 0.53700
P 	P 	0.38717 0.28159 0.01427 0.61100
P 	P 	0.25748 0.11091 0.34327 0.53700
P 	P 	0.10791 0.73793 0.22598 0.53900
P 	P 	0.56931 0.25839 0.37084 0.53800
O 	O 	0.35970 0.36490 0.94710 -0.51000
O 	O 	0.11980 0.65110 0.29460 -0.47300
O 	O 	0.22440 0.49680 0.42500 -0.40700
O 	O 	0.64130 0.34150 0.34560 -0.44600
O 	O 	0.26150 0.00530 0.30830 -0.40400
O 	O 	0.15430 0.12980 0.38840 -0.44100
O 	O 	0.26380 0.33150 0.48140 -0.45200
O 	O 	0.50300 0.29140 0.45470 -0.43400
O 	O 	0.30760 0.19990 0.00700 -0.42300
O 	O 	0.32900 0.38860 0.32060 -0.45200
O 	O 	0.49280 0.24380 0.98700 -0.48000
O 	O 	0.27260 0.17610 0.25490 -0.44700
O 	O 	0.34230 0.12660 0.41600 -0.45900
O 	O 	0.14420 0.35630 0.34330 -0.44100
O 	O 	0.62810 0.16700 0.39980 -0.44100
O 	O 	0.19770 0.80720 0.23450 -0.45300
O 	O 	0.50680 0.23600 0.28240 -0.43100
O 	O 	0.00950 0.78890 0.25170 -0.43000
O 	O 	0.10100 0.69990 0.12470 -0.38700
O 	O 	0.38860 0.32070 0.11590 -0.40900
Zn	Zn	0.62808 0.72297 0.24437 1.23700
Zn	Zn	0.77510 0.36877 0.38723 1.23200
Zn	Zn	0.62666 0.76037 0.49452 1.23300
Zn	Zn	0.74193 0.62583 0.84983 1.23000
Zn	Zn	0.93413 0.75959 0.36732 1.23700
P 	P 	0.75916 0.60788 0.39104 0.53800
P 	P 	0.61283 0.71841 0.01427 0.61100
P 	P 	0.74252 0.88909 0.34327 0.53700
P 	P 	0.89209 0.26207 0.22598 0.53900
P 	P 	0.43069 0.74161 0.37084 0.53800
O 	O 	0.64030 0.63510 0.94710 -0.51000
O 	O 	0.88020 0.34890 0.29460 -0.47300
O 	O 	0.77560 0.50320 0.42500 -0.40700
O 	O 	0.35870 0.65850 0.34560 -0.44600
O 	O 	0.73850 0.99470 0.30830 -0.40400
O 	O 	0.84570 0.87020 0.38840 -0.44100
O 	O 	0.73620 0.66850 0.48140 -0.45200
O 	O 	0.49700 0.70860 0.45470 -0.43400
O 	O 	0.69240 0.80010 0.00700 -0.42300
O 	O 	0.67100 0.61140 0.32060 -0.45200
O 	O 	0.50720 0.75620 0.98700 -0.48000
O 	O 	0.72740 0.82390 0.25490 -0.44700
O 	O 	0.65770 0.87340 0.41600 -0.45900
O 	O 	0.85580 0.64370 0.34330 -0.44100
O 	O 	0.37190 0.83300 0.39980 -0.44100
O 	O 	0.80230 0.19280 0.23450 -0.45300
O 	O 	0.49320 0.76400 0.28240 -0.43100
O 	O 	0.99050 0.21110 0.25170 -0.43000
O 	O 	0.89900 0.30010 0.12470 -0.38700
O 	O 	0.61140 0.67930 0.11590 -0.40900
Zn	Zn	0.87192 0.22297 0.74437 1.23500
Zn	Zn	0.72490 0.86877 0.88723 1.22400
Zn	Zn	0.87334 0.26037 0.99452 1.22300
Zn	Zn	0.75807 0.12583 0.34983 1.23200
Zn	Zn	0.56587 0.25959 0.86732 1.23700
P 	P 	0.74084 0.10788 0.89104 0.53900
P 	P 	0.88717 0.21841 0.51427 0.53700
P 	P 	0.75748 0.38909 0.84327 0.53700
P 	P 	0.60791 0.76207 0.72598 0.53900
P 	P 	0.06931 0.24161 0.87084 0.53800
O 	O 	0.85970 0.13510 0.44710 -0.47000
O 	O 	0.61980 0.84890 0.79460 -0.48200
O 	O 	0.72440 0.00320 0.92500 -0.42100
O 	O 	0.14130 0.15850 0.84560 -0.45600
O 	O 	0.76150 0.49470 0.80830 -0.41200
O 	O 	0.65430 0.37020 0.88840 -0.44900
O 	O 	0.76380 0.16850 0.98140 -0.46800
O 	O 	0.00300 0.20860 0.95470 -0.45000
O 	O 	0.80760 0.30010 0.50700 -0.44900
O 	O 	0.82900 0.11140 0.82060 -0.45800
O 	O 	0.99280 0.25620 0.48700 -0.43600
O 	O 	0.77260 0.32390 0.75490 -0.45400
O 	O 	0.84230 0.37340 0.91600 -0.47000
O 	O 	0.64420 0.14370 0.84330 -0.44700
O 	O 	0.12810 0.33300 0.89980 -0.45500
O 	O 	0.69770 0.69280 0.73450 -0.46500
O 	O 	0.00680 0.26400 0.78240 -0.43900
O 	O 	0.50950 0.71110 0.75170 -0.43800
O 	O 	0.60100 0.80010 0.62470 -0.41500
O 	O 	0.88860 0.17930 0.61590 -0.41600
Zn	Zn	0.12808 0.77703 0.74437 1.23500
Zn	Zn	0.27510 0.13123 0.88723 1.22400
Zn	Zn	0.12666 0.73963 0.99452 1.22300
Zn	Zn	0.24193 0.87417 0.34983 1.23200
Zn	Zn	0.43413 0.74041 0.86732 1.23700
P 	P 	0.25916 0.89212 0.89104 0.53900
P 	P 	0.11283 0.78159 0.51427 0.53700
P 	P 	0.24252 0.61091 0.84327 0.53700
P 	P 	0.39209 0.23793 0.72598 0.53900
P 	P 	0.93069 0.75839 0.87084 0.53800
O 	O 	0.14030 0.86490 0.44710 -0.47000
O 	O 	0.38020 0.15110 0.79460 -0.48200
O 	O 	0.27560 0.99680 0.92500 -0.42100
O 	O 	0.85870 0.84150 0.84560 -0.45600
O 	O 	0.23850 0.50530 0.80830 -0.41200
O 	O 	0.34570 0.62980 0.88840 -0.44900
O 	O 	0.23620 0.83150 0.98140 -0.46800
O 	O 	0.99700 0.79140 0.95470 -0.45000
O 	O 	0.19240 0.69990 0.50700 -0.44900
O 	O 	0.17100 0.88860 0.82060 -0.45800
O 	O 	0.00720 0.74380 0.48700 -0.43600
O 	O 	0.22740 0.67610 0.75490 -0.45400
O 	O 	0.15770 0.62660 0.91600 -0.47000
O 	O 	0.35580 0.85630 0.84330 -0.44700
O 	O 	0.87190 0.66700 0.89980 -0.45500
O 	O 	0.30230 0.30720 0.73450 -0.46500
O 	O 	0.99320 0.73600 0.78240 -0.43900
O 	O 	0.49050 0.28890 0.75170 -0.43800
O 	O 	0.39900 0.19990 0.62470 -0.41500
O 	O 	0.11140 0.82070 0.61590 -0.41600
