data_crystal

_cell_length_a 33.92900
_cell_length_b 13.04500
_cell_length_c 8.97130
_cell_angle_alpha 90.00000
_cell_angle_beta  104.37000
_cell_angle_gamma 90.00000

_symmetry_space_group_name_	'P 1'
_symmetry_space_group_name_H-M	'P 1'

loop_
_symmetry_equiv_pos_as_xyz
  x,y,z

loop_
_atom_site_label
_atom_site_type_symbol
_atom_site_fract_x
_atom_site_fract_y
_atom_site_fract_z
_atom_site_charge
Mn	Mn	0.14770 0.10455 0.66062 1.32600
Mn	Mn	0.22899 0.85717 0.62707 1.31800
P 	P 	0.05116 0.11897 0.56630 0.42900
H 	H 	0.04650 0.22720 0.56300 -0.02200
P 	P 	0.19505 0.94880 0.90430 0.51500
P 	P 	0.18009 0.70650 0.38430 0.44100
H 	H 	0.16110 0.61170 0.40100 -0.01300
O 	O 	0.19220 0.73740 0.54790 -0.45500
O 	O 	0.22456 0.87110 0.83280 -0.42100
O 	O 	0.21860 0.04700 0.97120 -0.51300
O 	O 	0.15683 0.97940 0.77770 -0.48500
O 	O 	0.18398 0.88780 0.03070 -0.45200
O 	O 	0.09316 0.09000 0.53880 -0.45400
O 	O 	0.01617 0.10520 0.42480 -0.47300
O 	O 	0.14620 0.77450 0.29040 -0.43400
O 	O 	0.04420 0.07030 0.71180 -0.46600
O 	O 	0.21390 0.69030 0.30750 -0.46900
Zn	Zn	0.85230 0.10455 0.83938 1.23800
Zn	Zn	0.77101 0.85717 0.87293 1.23100
Mn	Mn	0.64770 0.60455 0.66062 1.32700
Mn	Mn	0.72899 0.35717 0.62707 1.31900
P 	P 	0.55116 0.61897 0.56630 0.43000
H 	H 	0.54650 0.72720 0.56300 -0.01600
P 	P 	0.69505 0.44880 0.90430 0.52000
P 	P 	0.68009 0.20650 0.38430 0.44200
H 	H 	0.66110 0.11170 0.40100 -0.01100
O 	O 	0.69220 0.23740 0.54790 -0.45300
O 	O 	0.72456 0.37110 0.83280 -0.42000
O 	O 	0.71860 0.54700 0.97120 -0.51500
O 	O 	0.65683 0.47940 0.77770 -0.48400
O 	O 	0.68398 0.38780 0.03070 -0.45400
O 	O 	0.59316 0.59000 0.53880 -0.45200
O 	O 	0.51617 0.60520 0.42480 -0.46100
O 	O 	0.64620 0.27450 0.29040 -0.43200
O 	O 	0.54420 0.57030 0.71180 -0.46000
O 	O 	0.71390 0.19030 0.30750 -0.46900
Zn	Zn	0.35230 0.60455 0.83938 1.23700
Zn	Zn	0.27101 0.35717 0.87293 1.23200
P 	P 	0.94884 0.11897 0.93370 0.43200
H 	H 	0.95350 0.22720 0.93700 -0.00900
P 	P 	0.80495 0.94880 0.59570 0.52200
P 	P 	0.81991 0.70650 0.11570 0.44400
H 	H 	0.83890 0.61170 0.09900 -0.00800
O 	O 	0.80780 0.73740 0.95210 -0.44100
O 	O 	0.77544 0.87110 0.66720 -0.40600
O 	O 	0.78140 0.04700 0.52880 -0.52800
O 	O 	0.84317 0.97940 0.72230 -0.47100
O 	O 	0.81602 0.88780 0.46930 -0.46900
O 	O 	0.90684 0.09000 0.96120 -0.43600
O 	O 	0.98383 0.10520 0.07520 -0.44500
O 	O 	0.85380 0.77450 0.20960 -0.44200
O 	O 	0.95580 0.07030 0.78820 -0.44600
O 	O 	0.78610 0.69030 0.19250 -0.45600
P 	P 	0.44884 0.61897 0.93370 0.43100
H 	H 	0.45350 0.72720 0.93700 -0.01500
P 	P 	0.30495 0.44880 0.59570 0.52200
P 	P 	0.31991 0.20650 0.11570 0.44200
H 	H 	0.33890 0.11170 0.09900 -0.01000
O 	O 	0.30780 0.23740 0.95210 -0.43900
O 	O 	0.27544 0.37110 0.66720 -0.40600
O 	O 	0.28140 0.54700 0.52880 -0.52800
O 	O 	0.34317 0.47940 0.72230 -0.47100
O 	O 	0.31602 0.38780 0.46930 -0.47000
O 	O 	0.40684 0.59000 0.96120 -0.43900
O 	O 	0.48383 0.60520 0.07520 -0.46100
O 	O 	0.35380 0.27450 0.20960 -0.44300
O 	O 	0.45580 0.57030 0.78820 -0.45800
O 	O 	0.28610 0.19030 0.19250 -0.45700
Mn	Mn	0.85230 0.89545 0.33938 1.32700
Mn	Mn	0.77101 0.14283 0.37293 1.31900
P 	P 	0.94884 0.88103 0.43370 0.43100
H 	H 	0.95350 0.77280 0.43700 -0.01000
P 	P 	0.80495 0.05120 0.09570 0.51700
P 	P 	0.81991 0.29350 0.61570 0.44200
H 	H 	0.83890 0.38830 0.59900 -0.00900
O 	O 	0.80780 0.26260 0.45210 -0.45300
O 	O 	0.77544 0.12890 0.16720 -0.42000
O 	O 	0.78140 0.95300 0.02880 -0.51200
O 	O 	0.84317 0.02060 0.22230 -0.48300
O 	O 	0.81602 0.11220 0.96930 -0.45200
O 	O 	0.90684 0.91000 0.46120 -0.45000
O 	O 	0.98383 0.89480 0.57520 -0.44500
O 	O 	0.85380 0.22550 0.70960 -0.43100
O 	O 	0.95580 0.92970 0.28820 -0.44700
O 	O 	0.78610 0.30970 0.69250 -0.46800
Zn	Zn	0.14770 0.89545 0.16062 1.23700
Zn	Zn	0.22899 0.14283 0.12707 1.23200
Mn	Mn	0.35230 0.39545 0.33938 1.32700
Mn	Mn	0.27101 0.64283 0.37293 1.31900
P 	P 	0.44884 0.38103 0.43370 0.43000
H 	H 	0.45350 0.27280 0.43700 -0.01600
P 	P 	0.30495 0.55120 0.09570 0.52000
P 	P 	0.31991 0.79350 0.61570 0.44200
H 	H 	0.33890 0.88830 0.59900 -0.01000
O 	O 	0.30780 0.76260 0.45210 -0.45300
O 	O 	0.27544 0.62890 0.16720 -0.42000
O 	O 	0.28140 0.45300 0.02880 -0.51500
O 	O 	0.34317 0.52060 0.22230 -0.48400
O 	O 	0.31602 0.61220 0.96930 -0.45500
O 	O 	0.40684 0.41000 0.46120 -0.45200
O 	O 	0.48383 0.39480 0.57520 -0.46100
O 	O 	0.35380 0.72550 0.70960 -0.43200
O 	O 	0.45580 0.42970 0.28820 -0.46000
O 	O 	0.28610 0.80970 0.69250 -0.46900
Zn	Zn	0.64770 0.39545 0.16062 1.23700
Zn	Zn	0.72899 0.64283 0.12707 1.23200
P 	P 	0.05116 0.88103 0.06630 0.43300
H 	H 	0.04650 0.77280 0.06300 -0.01900
P 	P 	0.19505 0.05120 0.40430 0.52200
P 	P 	0.18009 0.29350 0.88430 0.44300
H 	H 	0.16110 0.38830 0.90100 -0.01200
O 	O 	0.19220 0.26260 0.04790 -0.44200
O 	O 	0.22456 0.12890 0.33280 -0.40600
O 	O 	0.21860 0.95300 0.47120 -0.52700
O 	O 	0.15683 0.02060 0.27770 -0.47200
O 	O 	0.18398 0.11220 0.53070 -0.47000
O 	O 	0.09316 0.91000 0.03880 -0.44000
O 	O 	0.01617 0.89480 0.92480 -0.47600
O 	O 	0.14620 0.22550 0.79040 -0.44500
O 	O 	0.04420 0.92970 0.21180 -0.46400
O 	O 	0.21390 0.30970 0.80750 -0.45700
P 	P 	0.55116 0.38103 0.06630 0.43100
H 	H 	0.54650 0.27280 0.06300 -0.01500
P 	P 	0.69505 0.55120 0.40430 0.52200
P 	P 	0.68009 0.79350 0.88430 0.44100
H 	H 	0.66110 0.88830 0.90100 -0.01000
O 	O 	0.69220 0.76260 0.04790 -0.43900
O 	O 	0.72456 0.62890 0.33280 -0.40600
O 	O 	0.71860 0.45300 0.47120 -0.52800
O 	O 	0.65683 0.52060 0.27770 -0.47100
O 	O 	0.68398 0.61220 0.53070 -0.47000
O 	O 	0.59316 0.41000 0.03880 -0.43900
O 	O 	0.51617 0.39480 0.92480 -0.46100
O 	O 	0.64620 0.72550 0.79040 -0.44300
O 	O 	0.54420 0.42970 0.21180 -0.45800
O 	O 	0.71390 0.80970 0.80750 -0.45700
Mn	Mn	0.00000 0.01279 0.25000 1.31200
Mn	Mn	0.50000 0.51279 0.25000 1.32300
Mn	Mn	0.00000 0.98721 0.75000 1.31200
Mn	Mn	0.50000 0.48721 0.75000 1.32300
