data_crystal

_cell_length_a 14.07200
_cell_length_b 14.52270
_cell_length_c 10.44610
_cell_angle_alpha 90.00000
_cell_angle_beta  90.00000
_cell_angle_gamma 90.00000

_symmetry_space_group_name_	'P 1'
_symmetry_space_group_name_H-M	'P 1'

loop_
_symmetry_equiv_pos_as_xyz
  x,y,z

loop_
_atom_site_label
_atom_site_type_symbol
_atom_site_fract_x
_atom_site_fract_y
_atom_site_fract_z
_atom_site_charge
Fe	Fe	0.89685 0.17004 0.71486 1.19600
Fe	Fe	0.74631 0.53934 0.68215 1.20500
Fe	Fe	0.61368 0.15153 0.65162 1.19500
P 	P 	0.61543 0.36810 0.70201 0.42600
P 	P 	0.89895 0.38537 0.65405 0.44200
P 	P 	0.77657 0.58951 0.39730 0.46400
P 	P 	0.78228 0.13863 0.45875 0.44200
O 	O 	0.85540 0.46470 0.72810 -0.42300
O 	O 	0.64690 0.45250 0.62570 -0.40200
O 	O 	0.51870 0.38550 0.76170 -0.43300
O 	O 	0.90270 0.30110 0.73660 -0.47500
O 	O 	0.69830 0.09600 0.52670 -0.44100
O 	O 	0.61840 0.28260 0.62280 -0.46500
O 	O 	0.87300 0.13570 0.53770 -0.42300
O 	O 	0.68610 0.61400 0.33620 -0.48000
O 	O 	0.99580 0.41090 0.60210 -0.42900
O 	O 	0.78050 0.61380 0.53810 -0.43100
O 	O 	0.80380 0.09390 0.33130 -0.43200
O 	O 	0.86500 0.62400 0.32950 -0.44900
H 	H 	0.68000 0.35800 0.81400 -0.04500
H 	H 	0.76200 0.23200 0.43600 -0.04400
H 	H 	0.83700 0.36700 0.55600 -0.06100
H 	H 	0.76900 0.48500 0.38300 -0.02200
Zn	Zn	0.39685 0.32996 0.71486 1.23000
Zn	Zn	0.75369 0.03934 0.18215 1.23900
Zn	Zn	0.11368 0.34847 0.65162 1.22800
Fe	Fe	0.10315 0.82996 0.21486 1.20100
Fe	Fe	0.25369 0.46066 0.18215 1.21400
Fe	Fe	0.38632 0.84847 0.15162 1.19900
P 	P 	0.38457 0.63190 0.20201 0.42700
P 	P 	0.10105 0.61463 0.15405 0.44400
P 	P 	0.22343 0.41049 0.89730 0.41000
P 	P 	0.21772 0.86137 0.95875 0.33500
O 	O 	0.14460 0.53530 0.22810 -0.40700
O 	O 	0.35310 0.54750 0.12570 -0.38200
O 	O 	0.48130 0.61450 0.26170 -0.41800
O 	O 	0.09730 0.69890 0.23660 -0.46500
O 	O 	0.30170 0.90400 0.02670 -0.38100
O 	O 	0.38160 0.71740 0.12280 -0.45000
O 	O 	0.12700 0.86430 0.03770 -0.36500
O 	O 	0.31390 0.38600 0.83620 -0.48900
O 	O 	0.00420 0.58910 0.10210 -0.41200
O 	O 	0.21950 0.38620 0.03810 -0.37300
O 	O 	0.19620 0.90610 0.83130 -0.44400
O 	O 	0.13500 0.37600 0.82950 -0.45800
H 	H 	0.32000 0.64200 0.31400 -0.03400
H 	H 	0.23800 0.76800 0.93600 -0.06400
H 	H 	0.16300 0.63300 0.05600 -0.04300
H 	H 	0.23100 0.51500 0.88300 -0.04300
Zn	Zn	0.60315 0.67004 0.21486 1.23300
Zn	Zn	0.24631 0.96066 0.68215 1.23100
Zn	Zn	0.88632 0.65153 0.15162 1.23000
P 	P 	0.11543 0.13190 0.70201 0.42900
P 	P 	0.39895 0.11463 0.65405 0.44500
P 	P 	0.27657 0.91049 0.39730 0.45500
P 	P 	0.28228 0.36137 0.45875 0.44400
O 	O 	0.35540 0.03530 0.72810 -0.43100
O 	O 	0.14690 0.04750 0.62570 -0.40900
O 	O 	0.01870 0.11450 0.76170 -0.41700
O 	O 	0.40270 0.19890 0.73660 -0.48700
O 	O 	0.19830 0.40400 0.52670 -0.45500
O 	O 	0.11840 0.21740 0.62280 -0.47700
O 	O 	0.37300 0.36430 0.53770 -0.43600
O 	O 	0.18610 0.88600 0.33620 -0.46800
O 	O 	0.49580 0.08910 0.60210 -0.41400
O 	O 	0.28050 0.88620 0.53810 -0.44600
O 	O 	0.30380 0.40610 0.33130 -0.42000
O 	O 	0.36500 0.87600 0.32950 -0.43600
H 	H 	0.18000 0.14200 0.81400 -0.04400
H 	H 	0.26200 0.26800 0.43600 -0.04300
H 	H 	0.33700 0.13300 0.55600 -0.06000
H 	H 	0.26900 0.01500 0.38300 -0.01800
P 	P 	0.88457 0.86810 0.20201 0.43000
P 	P 	0.60105 0.88537 0.15405 0.44700
P 	P 	0.72343 0.08951 0.89730 0.41000
P 	P 	0.71772 0.63863 0.95875 0.33900
O 	O 	0.64460 0.96470 0.22810 -0.42100
O 	O 	0.85310 0.95250 0.12570 -0.39400
O 	O 	0.98130 0.88550 0.26170 -0.40500
O 	O 	0.59730 0.80110 0.23660 -0.47700
O 	O 	0.80170 0.59600 0.02670 -0.39300
O 	O 	0.88160 0.78260 0.12280 -0.46200
O 	O 	0.62700 0.63570 0.03770 -0.37700
O 	O 	0.81390 0.11400 0.83620 -0.47400
O 	O 	0.50420 0.91090 0.10210 -0.39900
O 	O 	0.71950 0.11380 0.03810 -0.38700
O 	O 	0.69620 0.59390 0.83130 -0.42700
O 	O 	0.63500 0.12400 0.82950 -0.44300
H 	H 	0.82000 0.85800 0.31400 -0.03400
H 	H 	0.73800 0.73200 0.93600 -0.06400
H 	H 	0.66300 0.86700 0.05600 -0.04300
H 	H 	0.73100 0.98500 0.88300 -0.04600
