data_crystal

_cell_length_a 19.21080
_cell_length_b 19.21080
_cell_length_c 19.21080
_cell_angle_alpha 90.00000
_cell_angle_beta  90.00000
_cell_angle_gamma 90.00000

_symmetry_space_group_name_	'P 1'
_symmetry_space_group_name_H-M	'P 1'

loop_
_symmetry_equiv_pos_as_xyz
  x,y,z

loop_
_atom_site_label
_atom_site_type_symbol
_atom_site_fract_x
_atom_site_fract_y
_atom_site_fract_z
_atom_site_charge
Fe	Fe	0.85955 0.25738 0.10740 1.22300
C 	C 	0.76810 0.44310 0.82690 -0.14000
H 	H 	0.74240 0.48090 0.81090 0.08900
C 	C 	0.77060 0.42960 0.89720 0.07600
H 	H 	0.74660 0.45770 0.92850 0.01800
C 	C 	0.80970 0.37340 0.92100 -0.15000
C 	C 	0.84410 0.33080 0.87440 0.08700
H 	H 	0.87000 0.29320 0.89050 0.02600
C 	C 	0.83990 0.34410 0.80330 -0.15300
C 	C 	0.80310 0.40150 0.77980 0.07800
H 	H 	0.80190 0.41190 0.73250 0.01800
C 	C 	0.81170 0.35700 0.99710 0.39800
C 	C 	0.87100 0.29380 0.75330 0.39300
O 	O 	0.84928 0.30658 0.01617 -0.44100
O 	O 	0.77604 0.39451 0.03761 -0.44200
O 	O 	0.86700 0.30826 0.68933 -0.43800
O 	O 	0.89845 0.23927 0.77714 -0.44100
Fe	Fe	0.64045 0.74262 0.60740 1.22300
C 	C 	0.73190 0.55690 0.32690 -0.14000
H 	H 	0.75760 0.51910 0.31090 0.09000
C 	C 	0.72940 0.57040 0.39720 0.07700
H 	H 	0.75340 0.54230 0.42850 0.01800
C 	C 	0.69030 0.62660 0.42100 -0.15000
C 	C 	0.65590 0.66920 0.37440 0.08800
H 	H 	0.63000 0.70680 0.39050 0.02600
C 	C 	0.66010 0.65590 0.30330 -0.15200
C 	C 	0.69690 0.59850 0.27980 0.08000
H 	H 	0.69810 0.58810 0.23250 0.01900
C 	C 	0.68830 0.64300 0.49710 0.40200
C 	C 	0.62900 0.70620 0.25330 0.39400
O 	O 	0.65072 0.69342 0.51617 -0.44100
O 	O 	0.72396 0.60549 0.53761 -0.44200
O 	O 	0.63300 0.69174 0.18933 -0.43700
O 	O 	0.60155 0.76073 0.27714 -0.44000
Fe	Fe	0.14045 0.75738 0.39260 1.22400
C 	C 	0.23190 0.94310 0.67310 -0.13900
H 	H 	0.25760 0.98090 0.68910 0.09000
C 	C 	0.22940 0.92960 0.60280 0.07800
H 	H 	0.25340 0.95770 0.57150 0.01900
C 	C 	0.19030 0.87340 0.57900 -0.14900
C 	C 	0.15590 0.83080 0.62560 0.08800
H 	H 	0.13000 0.79320 0.60950 0.02700
C 	C 	0.16010 0.84410 0.69670 -0.15200
C 	C 	0.19690 0.90150 0.72020 0.07900
H 	H 	0.19810 0.91190 0.76750 0.01900
C 	C 	0.18830 0.85700 0.50290 0.40200
C 	C 	0.12900 0.79380 0.74670 0.39400
O 	O 	0.15072 0.80658 0.48383 -0.44100
O 	O 	0.22396 0.89451 0.46239 -0.44200
O 	O 	0.13300 0.80826 0.81067 -0.43700
O 	O 	0.10155 0.73927 0.72286 -0.44000
Fe	Fe	0.35955 0.24262 0.89260 1.22400
C 	C 	0.26810 0.05690 0.17310 -0.13800
H 	H 	0.24240 0.01910 0.18910 0.08900
C 	C 	0.27060 0.07040 0.10280 0.07500
H 	H 	0.24660 0.04230 0.07150 0.01800
C 	C 	0.30970 0.12660 0.07900 -0.14700
C 	C 	0.34410 0.16920 0.12560 0.08600
H 	H 	0.37000 0.20680 0.10950 0.02700
C 	C 	0.33990 0.15590 0.19670 -0.15100
C 	C 	0.30310 0.09850 0.22020 0.07800
H 	H 	0.30190 0.08810 0.26750 0.01900
C 	C 	0.31170 0.14300 0.00290 0.39400
C 	C 	0.37100 0.20620 0.24670 0.39300
O 	O 	0.34928 0.19342 0.98383 -0.43700
O 	O 	0.27604 0.10549 0.96239 -0.43800
O 	O 	0.36700 0.19174 0.31067 -0.43700
O 	O 	0.39845 0.26073 0.22286 -0.44000
Fe	Fe	0.10740 0.85955 0.25738 1.22400
C 	C 	0.82690 0.76810 0.44310 -0.13900
H 	H 	0.81090 0.74240 0.48090 0.09000
C 	C 	0.89720 0.77060 0.42960 0.07700
H 	H 	0.92850 0.74660 0.45770 0.01900
C 	C 	0.92100 0.80970 0.37340 -0.14900
C 	C 	0.87440 0.84410 0.33080 0.08800
H 	H 	0.89050 0.87000 0.29320 0.02700
C 	C 	0.80330 0.83990 0.34410 -0.15200
C 	C 	0.77980 0.80310 0.40150 0.07900
H 	H 	0.73250 0.80190 0.41190 0.01900
C 	C 	0.99710 0.81170 0.35700 0.39900
C 	C 	0.75330 0.87100 0.29380 0.39400
O 	O 	0.01617 0.84928 0.30658 -0.44000
O 	O 	0.03761 0.77604 0.39451 -0.44100
O 	O 	0.68933 0.86700 0.30826 -0.43700
O 	O 	0.77714 0.89845 0.23927 -0.44000
Fe	Fe	0.60740 0.64045 0.74262 1.22400
C 	C 	0.32690 0.73190 0.55690 -0.13900
H 	H 	0.31090 0.75760 0.51910 0.09100
C 	C 	0.39720 0.72940 0.57040 0.07800
H 	H 	0.42850 0.75340 0.54230 0.01900
C 	C 	0.42100 0.69030 0.62660 -0.15000
C 	C 	0.37440 0.65590 0.66920 0.08800
H 	H 	0.39050 0.63000 0.70680 0.02600
C 	C 	0.30330 0.66010 0.65590 -0.15200
C 	C 	0.27980 0.69690 0.59850 0.08000
H 	H 	0.23250 0.69810 0.58810 0.01900
C 	C 	0.49710 0.68830 0.64300 0.40200
C 	C 	0.25330 0.62900 0.70620 0.39400
O 	O 	0.51617 0.65072 0.69342 -0.44100
O 	O 	0.53761 0.72396 0.60549 -0.44200
O 	O 	0.18933 0.63300 0.69174 -0.43700
O 	O 	0.27714 0.60155 0.76073 -0.44000
Fe	Fe	0.39260 0.14045 0.75738 1.22400
C 	C 	0.67310 0.23190 0.94310 -0.13900
H 	H 	0.68910 0.25760 0.98090 0.09000
C 	C 	0.60280 0.22940 0.92960 0.07800
H 	H 	0.57150 0.25340 0.95770 0.01900
C 	C 	0.57900 0.19030 0.87340 -0.14900
C 	C 	0.62560 0.15590 0.83080 0.08800
H 	H 	0.60950 0.13000 0.79320 0.02700
C 	C 	0.69670 0.16010 0.84410 -0.15200
C 	C 	0.72020 0.19690 0.90150 0.07900
H 	H 	0.76750 0.19810 0.91190 0.01900
C 	C 	0.50290 0.18830 0.85700 0.40200
C 	C 	0.74670 0.12900 0.79380 0.39400
O 	O 	0.48383 0.15072 0.80658 -0.44100
O 	O 	0.46239 0.22396 0.89451 -0.44200
O 	O 	0.81067 0.13300 0.80826 -0.43700
O 	O 	0.72286 0.10155 0.73927 -0.44000
Fe	Fe	0.89260 0.35955 0.24262 1.22400
C 	C 	0.17310 0.26810 0.05690 -0.13800
H 	H 	0.18910 0.24240 0.01910 0.08900
C 	C 	0.10280 0.27060 0.07040 0.07500
H 	H 	0.07150 0.24660 0.04230 0.01800
C 	C 	0.07900 0.30970 0.12660 -0.14700
C 	C 	0.12560 0.34410 0.16920 0.08600
H 	H 	0.10950 0.37000 0.20680 0.02700
C 	C 	0.19670 0.33990 0.15590 -0.15100
C 	C 	0.22020 0.30310 0.09850 0.07800
H 	H 	0.26750 0.30190 0.08810 0.01900
C 	C 	0.00290 0.31170 0.14300 0.39400
C 	C 	0.24670 0.37100 0.20620 0.39300
O 	O 	0.98383 0.34928 0.19342 -0.43700
O 	O 	0.96239 0.27604 0.10549 -0.43800
O 	O 	0.31067 0.36700 0.19174 -0.43700
O 	O 	0.22286 0.39845 0.26073 -0.44000
Fe	Fe	0.25738 0.10740 0.85955 1.22400
C 	C 	0.44310 0.82690 0.76810 -0.13900
H 	H 	0.48090 0.81090 0.74240 0.09000
C 	C 	0.42960 0.89720 0.77060 0.07700
H 	H 	0.45770 0.92850 0.74660 0.01900
C 	C 	0.37340 0.92100 0.80970 -0.14900
C 	C 	0.33080 0.87440 0.84410 0.08800
H 	H 	0.29320 0.89050 0.87000 0.02700
C 	C 	0.34410 0.80330 0.83990 -0.15200
C 	C 	0.40150 0.77980 0.80310 0.07900
H 	H 	0.41190 0.73250 0.80190 0.01900
C 	C 	0.35700 0.99710 0.81170 0.39900
C 	C 	0.29380 0.75330 0.87100 0.39400
O 	O 	0.30658 0.01617 0.84928 -0.44000
O 	O 	0.39451 0.03761 0.77604 -0.44100
O 	O 	0.30826 0.68933 0.86700 -0.43700
O 	O 	0.23927 0.77714 0.89845 -0.44000
Fe	Fe	0.74262 0.60740 0.64045 1.22400
C 	C 	0.55690 0.32690 0.73190 -0.13900
H 	H 	0.51910 0.31090 0.75760 0.09100
C 	C 	0.57040 0.39720 0.72940 0.07800
H 	H 	0.54230 0.42850 0.75340 0.01900
C 	C 	0.62660 0.42100 0.69030 -0.15000
C 	C 	0.66920 0.37440 0.65590 0.08800
H 	H 	0.70680 0.39050 0.63000 0.02600
C 	C 	0.65590 0.30330 0.66010 -0.15200
C 	C 	0.59850 0.27980 0.69690 0.08000
H 	H 	0.58810 0.23250 0.69810 0.01900
C 	C 	0.64300 0.49710 0.68830 0.40200
C 	C 	0.70620 0.25330 0.62900 0.39400
O 	O 	0.69342 0.51617 0.65072 -0.44100
O 	O 	0.60549 0.53761 0.72396 -0.44200
O 	O 	0.69174 0.18933 0.63300 -0.43700
O 	O 	0.76073 0.27714 0.60155 -0.44000
Fe	Fe	0.75738 0.39260 0.14045 1.22400
C 	C 	0.94310 0.67310 0.23190 -0.13900
H 	H 	0.98090 0.68910 0.25760 0.09000
C 	C 	0.92960 0.60280 0.22940 0.07800
H 	H 	0.95770 0.57150 0.25340 0.01900
C 	C 	0.87340 0.57900 0.19030 -0.14900
C 	C 	0.83080 0.62560 0.15590 0.08800
H 	H 	0.79320 0.60950 0.13000 0.02700
C 	C 	0.84410 0.69670 0.16010 -0.15200
C 	C 	0.90150 0.72020 0.19690 0.07900
H 	H 	0.91190 0.76750 0.19810 0.01900
C 	C 	0.85700 0.50290 0.18830 0.40200
C 	C 	0.79380 0.74670 0.12900 0.39400
O 	O 	0.80658 0.48383 0.15072 -0.44100
O 	O 	0.89451 0.46239 0.22396 -0.44200
O 	O 	0.80826 0.81067 0.13300 -0.43700
O 	O 	0.73927 0.72286 0.10155 -0.44000
Fe	Fe	0.24262 0.89260 0.35955 1.22400
C 	C 	0.05690 0.17310 0.26810 -0.13800
H 	H 	0.01910 0.18910 0.24240 0.08900
C 	C 	0.07040 0.10280 0.27060 0.07500
H 	H 	0.04230 0.07150 0.24660 0.01800
C 	C 	0.12660 0.07900 0.30970 -0.14700
C 	C 	0.16920 0.12560 0.34410 0.08600
H 	H 	0.20680 0.10950 0.37000 0.02700
C 	C 	0.15590 0.19670 0.33990 -0.15100
C 	C 	0.09850 0.22020 0.30310 0.07800
H 	H 	0.08810 0.26750 0.30190 0.01900
C 	C 	0.14300 0.00290 0.31170 0.39400
C 	C 	0.20620 0.24670 0.37100 0.39300
O 	O 	0.19342 0.98383 0.34928 -0.43700
O 	O 	0.10549 0.96239 0.27604 -0.43800
O 	O 	0.19174 0.31067 0.36700 -0.43700
O 	O 	0.26073 0.22286 0.39845 -0.44000
Fe	Fe	0.14045 0.74262 0.89260 1.22400
C 	C 	0.23190 0.55690 0.17310 -0.13900
H 	H 	0.25760 0.51910 0.18910 0.09000
C 	C 	0.22940 0.57040 0.10280 0.07700
H 	H 	0.25340 0.54230 0.07150 0.01900
C 	C 	0.19030 0.62660 0.07900 -0.14900
C 	C 	0.15590 0.66920 0.12560 0.08800
H 	H 	0.13000 0.70680 0.10950 0.02700
C 	C 	0.16010 0.65590 0.19670 -0.15200
C 	C 	0.19690 0.59850 0.22020 0.07900
H 	H 	0.19810 0.58810 0.26750 0.01900
C 	C 	0.18830 0.64300 0.00290 0.39900
C 	C 	0.12900 0.70620 0.24670 0.39400
O 	O 	0.15072 0.69342 0.98383 -0.44000
O 	O 	0.22396 0.60549 0.96239 -0.44100
O 	O 	0.13300 0.69174 0.31067 -0.43700
O 	O 	0.10155 0.76073 0.22286 -0.44000
Fe	Fe	0.35955 0.25738 0.39260 1.22400
C 	C 	0.26810 0.44310 0.67310 -0.13900
H 	H 	0.24240 0.48090 0.68910 0.09100
C 	C 	0.27060 0.42960 0.60280 0.07800
H 	H 	0.24660 0.45770 0.57150 0.01900
C 	C 	0.30970 0.37340 0.57900 -0.15000
C 	C 	0.34410 0.33080 0.62560 0.08800
H 	H 	0.37000 0.29320 0.60950 0.02600
C 	C 	0.33990 0.34410 0.69670 -0.15200
C 	C 	0.30310 0.40150 0.72020 0.08000
H 	H 	0.30190 0.41190 0.76750 0.01900
C 	C 	0.31170 0.35700 0.50290 0.40200
C 	C 	0.37100 0.29380 0.74670 0.39400
O 	O 	0.34928 0.30658 0.48383 -0.44100
O 	O 	0.27604 0.39451 0.46239 -0.44200
O 	O 	0.36700 0.30826 0.81067 -0.43700
O 	O 	0.39845 0.23927 0.72286 -0.44000
Fe	Fe	0.85955 0.24262 0.60740 1.22400
C 	C 	0.76810 0.05690 0.32690 -0.13900
H 	H 	0.74240 0.01910 0.31090 0.09000
C 	C 	0.77060 0.07040 0.39720 0.07800
H 	H 	0.74660 0.04230 0.42850 0.01900
C 	C 	0.80970 0.12660 0.42100 -0.14900
C 	C 	0.84410 0.16920 0.37440 0.08800
H 	H 	0.87000 0.20680 0.39050 0.02700
C 	C 	0.83990 0.15590 0.30330 -0.15200
C 	C 	0.80310 0.09850 0.27980 0.07900
H 	H 	0.80190 0.08810 0.23250 0.01900
C 	C 	0.81170 0.14300 0.49710 0.40200
C 	C 	0.87100 0.20620 0.25330 0.39400
O 	O 	0.84928 0.19342 0.51617 -0.44100
O 	O 	0.77604 0.10549 0.53761 -0.44200
O 	O 	0.86700 0.19174 0.18933 -0.43700
O 	O 	0.89845 0.26073 0.27714 -0.44000
Fe	Fe	0.64045 0.75738 0.10740 1.22400
C 	C 	0.73190 0.94310 0.82690 -0.13800
H 	H 	0.75760 0.98090 0.81090 0.08900
C 	C 	0.72940 0.92960 0.89720 0.07500
H 	H 	0.75340 0.95770 0.92850 0.01800
C 	C 	0.69030 0.87340 0.92100 -0.14700
C 	C 	0.65590 0.83080 0.87440 0.08600
H 	H 	0.63000 0.79320 0.89050 0.02700
C 	C 	0.66010 0.84410 0.80330 -0.15100
C 	C 	0.69690 0.90150 0.77980 0.07800
H 	H 	0.69810 0.91190 0.73250 0.01900
C 	C 	0.68830 0.85700 0.99710 0.39400
C 	C 	0.62900 0.79380 0.75330 0.39300
O 	O 	0.65072 0.80658 0.01617 -0.43700
O 	O 	0.72396 0.89451 0.03761 -0.43800
O 	O 	0.63300 0.80826 0.68933 -0.43700
O 	O 	0.60155 0.73927 0.77714 -0.44000
Fe	Fe	0.89260 0.14045 0.74262 1.22400
C 	C 	0.17310 0.23190 0.55690 -0.13900
H 	H 	0.18910 0.25760 0.51910 0.09000
C 	C 	0.10280 0.22940 0.57040 0.07700
H 	H 	0.07150 0.25340 0.54230 0.01900
C 	C 	0.07900 0.19030 0.62660 -0.14900
C 	C 	0.12560 0.15590 0.66920 0.08800
H 	H 	0.10950 0.13000 0.70680 0.02700
C 	C 	0.19670 0.16010 0.65590 -0.15200
C 	C 	0.22020 0.19690 0.59850 0.07900
H 	H 	0.26750 0.19810 0.58810 0.01900
C 	C 	0.00290 0.18830 0.64300 0.39900
C 	C 	0.24670 0.12900 0.70620 0.39400
O 	O 	0.98383 0.15072 0.69342 -0.44000
O 	O 	0.96239 0.22396 0.60549 -0.44100
O 	O 	0.31067 0.13300 0.69174 -0.43700
O 	O 	0.22286 0.10155 0.76073 -0.44000
Fe	Fe	0.39260 0.35955 0.25738 1.22400
C 	C 	0.67310 0.26810 0.44310 -0.13900
H 	H 	0.68910 0.24240 0.48090 0.09100
C 	C 	0.60280 0.27060 0.42960 0.07800
H 	H 	0.57150 0.24660 0.45770 0.01900
C 	C 	0.57900 0.30970 0.37340 -0.15000
C 	C 	0.62560 0.34410 0.33080 0.08800
H 	H 	0.60950 0.37000 0.29320 0.02600
C 	C 	0.69670 0.33990 0.34410 -0.15200
C 	C 	0.72020 0.30310 0.40150 0.08000
H 	H 	0.76750 0.30190 0.41190 0.01900
C 	C 	0.50290 0.31170 0.35700 0.40200
C 	C 	0.74670 0.37100 0.29380 0.39400
O 	O 	0.48383 0.34928 0.30658 -0.44100
O 	O 	0.46239 0.27604 0.39451 -0.44200
O 	O 	0.81067 0.36700 0.30826 -0.43700
O 	O 	0.72286 0.39845 0.23927 -0.44000
Fe	Fe	0.60740 0.85955 0.24262 1.22400
C 	C 	0.32690 0.76810 0.05690 -0.13900
H 	H 	0.31090 0.74240 0.01910 0.09000
C 	C 	0.39720 0.77060 0.07040 0.07800
H 	H 	0.42850 0.74660 0.04230 0.01900
C 	C 	0.42100 0.80970 0.12660 -0.14900
C 	C 	0.37440 0.84410 0.16920 0.08800
H 	H 	0.39050 0.87000 0.20680 0.02700
C 	C 	0.30330 0.83990 0.15590 -0.15200
C 	C 	0.27980 0.80310 0.09850 0.07900
H 	H 	0.23250 0.80190 0.08810 0.01900
C 	C 	0.49710 0.81170 0.14300 0.40200
C 	C 	0.25330 0.87100 0.20620 0.39400
O 	O 	0.51617 0.84928 0.19342 -0.44100
O 	O 	0.53761 0.77604 0.10549 -0.44200
O 	O 	0.18933 0.86700 0.19174 -0.43700
O 	O 	0.27714 0.89845 0.26073 -0.44000
Fe	Fe	0.10740 0.64045 0.75738 1.22400
C 	C 	0.82690 0.73190 0.94310 -0.13800
H 	H 	0.81090 0.75760 0.98090 0.08900
C 	C 	0.89720 0.72940 0.92960 0.07500
H 	H 	0.92850 0.75340 0.95770 0.01800
C 	C 	0.92100 0.69030 0.87340 -0.14700
C 	C 	0.87440 0.65590 0.83080 0.08600
H 	H 	0.89050 0.63000 0.79320 0.02700
C 	C 	0.80330 0.66010 0.84410 -0.15100
C 	C 	0.77980 0.69690 0.90150 0.07800
H 	H 	0.73250 0.69810 0.91190 0.01900
C 	C 	0.99710 0.68830 0.85700 0.39400
C 	C 	0.75330 0.62900 0.79380 0.39300
O 	O 	0.01617 0.65072 0.80658 -0.43700
O 	O 	0.03761 0.72396 0.89451 -0.43800
O 	O 	0.68933 0.63300 0.80826 -0.43700
O 	O 	0.77714 0.60155 0.73927 -0.44000
Fe	Fe	0.74262 0.89260 0.14045 1.22400
C 	C 	0.55690 0.17310 0.23190 -0.13900
H 	H 	0.51910 0.18910 0.25760 0.09000
C 	C 	0.57040 0.10280 0.22940 0.07700
H 	H 	0.54230 0.07150 0.25340 0.01900
C 	C 	0.62660 0.07900 0.19030 -0.14900
C 	C 	0.66920 0.12560 0.15590 0.08800
H 	H 	0.70680 0.10950 0.13000 0.02700
C 	C 	0.65590 0.19670 0.16010 -0.15200
C 	C 	0.59850 0.22020 0.19690 0.07900
H 	H 	0.58810 0.26750 0.19810 0.01900
C 	C 	0.64300 0.00290 0.18830 0.39900
C 	C 	0.70620 0.24670 0.12900 0.39400
O 	O 	0.69342 0.98383 0.15072 -0.44000
O 	O 	0.60549 0.96239 0.22396 -0.44100
O 	O 	0.69174 0.31067 0.13300 -0.43700
O 	O 	0.76073 0.22286 0.10155 -0.44000
Fe	Fe	0.25738 0.39260 0.35955 1.22400
C 	C 	0.44310 0.67310 0.26810 -0.13900
H 	H 	0.48090 0.68910 0.24240 0.09100
C 	C 	0.42960 0.60280 0.27060 0.07800
H 	H 	0.45770 0.57150 0.24660 0.01900
C 	C 	0.37340 0.57900 0.30970 -0.15000
C 	C 	0.33080 0.62560 0.34410 0.08800
H 	H 	0.29320 0.60950 0.37000 0.02600
C 	C 	0.34410 0.69670 0.33990 -0.15200
C 	C 	0.40150 0.72020 0.30310 0.08000
H 	H 	0.41190 0.76750 0.30190 0.01900
C 	C 	0.35700 0.50290 0.31170 0.40200
C 	C 	0.29380 0.74670 0.37100 0.39400
O 	O 	0.30658 0.48383 0.34928 -0.44100
O 	O 	0.39451 0.46239 0.27604 -0.44200
O 	O 	0.30826 0.81067 0.36700 -0.43700
O 	O 	0.23927 0.72286 0.39845 -0.44000
Fe	Fe	0.24262 0.60740 0.85955 1.22400
C 	C 	0.05690 0.32690 0.76810 -0.13900
H 	H 	0.01910 0.31090 0.74240 0.09000
C 	C 	0.07040 0.39720 0.77060 0.07800
H 	H 	0.04230 0.42850 0.74660 0.01900
C 	C 	0.12660 0.42100 0.80970 -0.14900
C 	C 	0.16920 0.37440 0.84410 0.08800
H 	H 	0.20680 0.39050 0.87000 0.02700
C 	C 	0.15590 0.30330 0.83990 -0.15200
C 	C 	0.09850 0.27980 0.80310 0.07900
H 	H 	0.08810 0.23250 0.80190 0.01900
C 	C 	0.14300 0.49710 0.81170 0.40200
C 	C 	0.20620 0.25330 0.87100 0.39400
O 	O 	0.19342 0.51617 0.84928 -0.44100
O 	O 	0.10549 0.53761 0.77604 -0.44200
O 	O 	0.19174 0.18933 0.86700 -0.43700
O 	O 	0.26073 0.27714 0.89845 -0.44000
Fe	Fe	0.75738 0.10740 0.64045 1.22400
C 	C 	0.94310 0.82690 0.73190 -0.13800
H 	H 	0.98090 0.81090 0.75760 0.08900
C 	C 	0.92960 0.89720 0.72940 0.07500
H 	H 	0.95770 0.92850 0.75340 0.01800
C 	C 	0.87340 0.92100 0.69030 -0.14700
C 	C 	0.83080 0.87440 0.65590 0.08600
H 	H 	0.79320 0.89050 0.63000 0.02700
C 	C 	0.84410 0.80330 0.66010 -0.15100
C 	C 	0.90150 0.77980 0.69690 0.07800
H 	H 	0.91190 0.73250 0.69810 0.01900
C 	C 	0.85700 0.99710 0.68830 0.39400
C 	C 	0.79380 0.75330 0.62900 0.39300
O 	O 	0.80658 0.01617 0.65072 -0.43700
O 	O 	0.89451 0.03761 0.72396 -0.43800
O 	O 	0.80826 0.68933 0.63300 -0.43700
O 	O 	0.73927 0.77714 0.60155 -0.44000
O 	O 	0.83642 0.33642 0.16358 -0.65200
O 	O 	0.66358 0.66358 0.66358 -0.65200
O 	O 	0.16358 0.83642 0.33642 -0.65200
O 	O 	0.33642 0.16358 0.83642 -0.65200
O 	O 	0.16358 0.66358 0.83642 -0.65200
O 	O 	0.33642 0.33642 0.33642 -0.65200
O 	O 	0.83642 0.16358 0.66358 -0.65200
O 	O 	0.66358 0.83642 0.16358 -0.65200
