data_crystal

_cell_length_a 11.86200
_cell_length_b 12.01300
_cell_length_c 13.68500
_cell_angle_alpha 102.81000
_cell_angle_beta  100.06000
_cell_angle_gamma 98.87000

_symmetry_space_group_name_	'P 1'
_symmetry_space_group_name_H-M	'P 1'

loop_
_symmetry_equiv_pos_as_xyz
  x,y,z

loop_
_atom_site_label
_atom_site_type_symbol
_atom_site_fract_x
_atom_site_fract_y
_atom_site_fract_z
_atom_site_charge
Co	Co	0.25342 0.97299 0.10743 1.17600
Co	Co	0.13028 0.27979 0.18220 1.14700
O 	O 	0.38679 0.09596 0.08828 -0.38100
O 	O 	0.38818 0.08860 0.24694 -0.34600
O 	O 	0.38129 0.48739 0.25450 -0.28700
O 	O 	0.30757 0.29832 0.20359 -0.42200
N 	N 	0.14436 0.28661 0.34280 -0.24400
N 	N 	0.32615 0.82512 0.08310 -0.25200
O 	O 	0.94748 0.23491 0.13894 -0.43800
O 	O 	0.85099 0.06610 0.02981 -0.43800
O 	O 	0.12829 0.09808 0.15271 -0.46800
O 	O 	0.13646 0.93506 0.19704 -0.39600
N 	N 	0.12486 0.28565 0.02652 -0.24200
S 	S 	0.65748 0.07569 0.17563 -0.03600
C 	C 	0.42530 0.82190 0.04910 0.10500
H 	H 	0.46680 0.89080 0.04190 -0.00100
C 	C 	0.46890 0.72230 0.02440 -0.17900
H 	H 	0.53830 0.72480 0.00140 0.10600
C 	C 	0.40880 0.61760 0.03390 0.13200
C 	C 	0.30430 0.62050 0.06600 -0.17500
H 	H 	0.25940 0.55230 0.07130 0.09100
C 	C 	0.26710 0.72390 0.08990 0.10500
H 	H 	0.19720 0.72360 0.11190 -0.01500
C 	C 	0.45040 0.50780 0.01230 -0.08600
H 	H 	0.40070 0.44190 0.01650 0.06600
C 	C 	0.42660 0.13670 0.18378 0.30800
C 	C 	0.64040 0.21940 0.22590 0.06000
C 	C 	0.52740 0.24020 0.22051 -0.06500
C 	C 	0.51170 0.35520 0.24880 -0.03300
C 	C 	0.39130 0.38360 0.23570 0.33000
C 	C 	0.60890 0.44490 0.28670 -0.04800
H 	H 	0.59900 0.52130 0.30660 0.06300
C 	C 	0.72000 0.42230 0.29540 0.00200
H 	H 	0.78440 0.48300 0.32330 0.03100
C 	C 	0.73590 0.31040 0.26300 -0.09800
H 	H 	0.81100 0.29590 0.26600 0.07300
C 	C 	0.79460 0.06530 0.24720 0.07100
C 	C 	0.79740 0.03060 0.33770 -0.10500
H 	H 	0.73220 0.02820 0.36690 0.07300
C 	C 	0.89640 0.99990 0.38430 0.00000
H 	H 	0.90000 0.98190 0.44730 0.03100
C 	C 	0.99040 0.99580 0.33730 -0.05400
H 	H 	0.05380 0.96740 0.36510 0.06000
C 	C 	0.99030 0.03410 0.24878 -0.02700
C 	C 	0.89430 0.07470 0.20556 -0.12200
C 	C 	0.09078 0.02280 0.19680 0.31700
C 	C 	0.89810 0.12980 0.11670 0.40300
C 	C 	0.06670 0.32390 0.39560 0.10000
H 	H 	0.00560 0.35100 0.36220 -0.02500
C 	C 	0.07270 0.32400 0.49760 -0.17800
H 	H 	0.01610 0.35010 0.53090 0.09000
C 	C 	0.16400 0.28490 0.55002 0.12500
C 	C 	0.24400 0.24720 0.49540 -0.17800
H 	H 	0.30670 0.22070 0.52720 0.09700
C 	C 	0.23160 0.24840 0.39370 0.09600
H 	H 	0.28640 0.22150 0.35850 0.00900
C 	C 	0.17780 0.28010 0.65820 -0.09600
H 	H 	0.24040 0.25000 0.68530 0.06500
C 	C 	0.10910 0.31470 0.71950 -0.08200
H 	H 	0.04870 0.34810 0.69330 0.05400
C 	C 	0.11940 0.30530 0.82569 0.12500
C 	C 	0.05010 0.35870 0.88480 -0.17300
H 	H 	0.00040 0.40270 0.85830 0.08300
C 	C 	0.05480 0.34670 0.98320 0.10000
H 	H 	0.00680 0.38280 0.02140 -0.02600
C 	C 	0.19240 0.23340 0.96974 0.10100
H 	H 	0.24150 0.19030 0.99840 -0.00300
C 	C 	0.19220 0.24090 0.87040 -0.17100
H 	H 	0.24030 0.20330 0.83350 0.09700
Co	Co	0.74658 0.02701 0.89257 1.17500
Co	Co	0.86972 0.72021 0.81780 1.14600
O 	O 	0.61321 0.90404 0.91172 -0.38200
O 	O 	0.61182 0.91140 0.75306 -0.34700
O 	O 	0.61871 0.51261 0.74550 -0.28700
O 	O 	0.69243 0.70168 0.79641 -0.42200
N 	N 	0.85564 0.71339 0.65720 -0.24400
N 	N 	0.67385 0.17488 0.91690 -0.25200
O 	O 	0.05252 0.76509 0.86106 -0.43800
O 	O 	0.14901 0.93390 0.97019 -0.43800
O 	O 	0.87171 0.90192 0.84729 -0.46800
O 	O 	0.86354 0.06494 0.80296 -0.39600
N 	N 	0.87514 0.71435 0.97348 -0.24200
S 	S 	0.34252 0.92431 0.82437 -0.03600
C 	C 	0.57470 0.17810 0.95090 0.10500
H 	H 	0.53320 0.10920 0.95810 -0.00100
C 	C 	0.53110 0.27770 0.97560 -0.17900
H 	H 	0.46170 0.27520 0.99860 0.10600
C 	C 	0.59120 0.38240 0.96610 0.13200
C 	C 	0.69570 0.37950 0.93400 -0.17500
H 	H 	0.74060 0.44770 0.92870 0.09100
C 	C 	0.73290 0.27610 0.91010 0.10500
H 	H 	0.80280 0.27640 0.88810 -0.01500
C 	C 	0.54960 0.49220 0.98770 -0.08600
H 	H 	0.59930 0.55810 0.98350 0.06600
C 	C 	0.57340 0.86330 0.81622 0.30800
C 	C 	0.35960 0.78060 0.77410 0.06000
C 	C 	0.47260 0.75980 0.77949 -0.06500
C 	C 	0.48830 0.64480 0.75120 -0.03300
C 	C 	0.60870 0.61640 0.76430 0.33000
C 	C 	0.39110 0.55510 0.71330 -0.04800
H 	H 	0.40100 0.47870 0.69340 0.06300
C 	C 	0.28000 0.57770 0.70460 0.00200
H 	H 	0.21560 0.51700 0.67670 0.03100
C 	C 	0.26410 0.68960 0.73700 -0.09800
H 	H 	0.18900 0.70410 0.73400 0.07300
C 	C 	0.20540 0.93470 0.75280 0.07100
C 	C 	0.20260 0.96940 0.66230 -0.10500
H 	H 	0.26780 0.97180 0.63310 0.07300
C 	C 	0.10360 0.00010 0.61570 0.00000
H 	H 	0.10000 0.01810 0.55270 0.03100
C 	C 	0.00960 0.00420 0.66270 -0.05400
H 	H 	0.94620 0.03260 0.63490 0.06000
C 	C 	0.00970 0.96590 0.75122 -0.02700
C 	C 	0.10570 0.92530 0.79444 -0.12200
C 	C 	0.90922 0.97720 0.80320 0.31700
C 	C 	0.10190 0.87020 0.88330 0.40300
C 	C 	0.93330 0.67610 0.60440 0.10000
H 	H 	0.99440 0.64900 0.63780 -0.02500
C 	C 	0.92730 0.67600 0.50240 -0.17800
H 	H 	0.98390 0.64990 0.46910 0.09000
C 	C 	0.83600 0.71510 0.44998 0.12500
C 	C 	0.75600 0.75280 0.50460 -0.17800
H 	H 	0.69330 0.77930 0.47280 0.09700
C 	C 	0.76840 0.75160 0.60630 0.09600
H 	H 	0.71360 0.77850 0.64150 0.00900
C 	C 	0.82220 0.71990 0.34180 -0.09600
H 	H 	0.75960 0.75000 0.31470 0.06500
C 	C 	0.89090 0.68530 0.28050 -0.08200
H 	H 	0.95130 0.65190 0.30670 0.05400
C 	C 	0.88060 0.69470 0.17431 0.12500
C 	C 	0.94990 0.64130 0.11520 -0.17300
H 	H 	0.99960 0.59730 0.14170 0.08300
C 	C 	0.94520 0.65330 0.01680 0.10000
H 	H 	0.99320 0.61720 0.97860 -0.02600
C 	C 	0.80760 0.76660 0.03026 0.10100
H 	H 	0.75850 0.80970 0.00160 -0.00300
C 	C 	0.80780 0.75910 0.12960 -0.17100
H 	H 	0.75970 0.79670 0.16650 0.09700
