data_crystal

_cell_length_a 7.70500
_cell_length_b 11.98930
_cell_length_c 12.18280
_cell_angle_alpha 112.14300
_cell_angle_beta  89.97900
_cell_angle_gamma 99.58000

_symmetry_space_group_name_	'P 1'
_symmetry_space_group_name_H-M	'P 1'

loop_
_symmetry_equiv_pos_as_xyz
  x,y,z

loop_
_atom_site_label
_atom_site_type_symbol
_atom_site_fract_x
_atom_site_fract_y
_atom_site_fract_z
_atom_site_charge
Gd	Gd	0.99240 0.14628 0.85478 1.55100
Gd	Gd	0.49230 0.14571 0.75328 1.57900
C 	C 	0.64100 0.13700 0.01800 0.49100
C 	C 	0.77200 0.18300 0.22300 -0.20900
H 	H 	0.74280 0.21360 0.30560 0.09000
H 	H 	0.85990 0.24630 0.21350 0.09100
C 	C 	0.85200 0.07400 0.20100 0.35900
C 	C 	0.64100 0.92600 0.64600 0.44400
C 	C 	0.71900 0.81200 0.59100 -0.25500
H 	H 	0.63310 0.74840 0.53380 0.10800
H 	H 	0.74850 0.78360 0.65200 0.10900
C 	C 	0.75800 0.52900 0.13800 -0.29900
H 	H 	0.88570 0.54970 0.15030 0.12600
H 	H 	0.71570 0.48140 0.18480 0.11900
C 	C 	0.68400 0.64200 0.17900 0.41300
C 	C 	0.85600 0.85900 0.41900 0.49500
C 	C 	0.89800 0.83800 0.52400 -0.33300
H 	H 	0.97770 0.90840 0.57840 0.13600
H 	H 	0.95670 0.76760 0.50230 0.12900
C 	C 	0.70600 0.45100 0.00400 -0.19800
H 	H 	0.58290 0.41200 0.99550 0.07800
H 	H 	0.71750 0.50450 0.96070 0.09700
C 	C 	0.81600 0.35600 0.95300 0.35200
O 	O 	0.77600 0.27350 0.84620 -0.51000
O 	O 	0.95600 0.35200 0.00400 -0.38200
O 	O 	0.75900 0.97700 0.20900 -0.47800
O 	O 	0.01200 0.06600 0.17100 -0.38100
O 	O 	0.54000 0.64600 0.24100 -0.38800
O 	O 	0.72200 0.72500 0.14430 -0.53600
O 	O 	0.50900 0.14900 0.97300 -0.43000
O 	O 	0.77500 0.09900 0.97600 -0.47100
O 	O 	0.98800 0.84500 0.35100 -0.41700
O 	O 	0.72400 0.89000 0.39900 -0.48500
O 	O 	0.73300 0.01900 0.72500 -0.51400
O 	O 	0.48900 0.93000 0.62100 -0.42800
C 	C 	0.60600 0.16700 0.14500 -0.29300
H 	H 	0.51800 0.10170 0.15180 0.12400
H 	H 	0.55720 0.24160 0.17500 0.11700
Gd	Gd	0.00760 0.85372 0.14522 1.55000
Gd	Gd	0.50770 0.85429 0.24672 1.57800
C 	C 	0.35900 0.86300 0.98200 0.49100
C 	C 	0.22800 0.81700 0.77700 -0.20900
H 	H 	0.25720 0.78640 0.69440 0.09000
H 	H 	0.14010 0.75370 0.78650 0.09100
C 	C 	0.14800 0.92600 0.79900 0.35900
C 	C 	0.35900 0.07400 0.35400 0.44400
C 	C 	0.28100 0.18800 0.40900 -0.25500
H 	H 	0.36690 0.25160 0.46620 0.10800
H 	H 	0.25150 0.21640 0.34800 0.10900
C 	C 	0.24200 0.47100 0.86200 -0.29900
H 	H 	0.11430 0.45030 0.84970 0.12600
H 	H 	0.28430 0.51860 0.81520 0.11900
C 	C 	0.31600 0.35800 0.82100 0.41300
C 	C 	0.14400 0.14100 0.58100 0.49500
C 	C 	0.10200 0.16200 0.47600 -0.33300
H 	H 	0.02230 0.09160 0.42160 0.13600
H 	H 	0.04330 0.23240 0.49770 0.12900
C 	C 	0.29400 0.54900 0.99600 -0.19800
H 	H 	0.41710 0.58800 0.00450 0.07800
H 	H 	0.28250 0.49550 0.03930 0.09700
C 	C 	0.18400 0.64400 0.04700 0.35200
O 	O 	0.22400 0.72650 0.15380 -0.51000
O 	O 	0.04400 0.64800 0.99600 -0.38200
O 	O 	0.24100 0.02300 0.79100 -0.47800
O 	O 	0.98800 0.93400 0.82900 -0.38100
O 	O 	0.46000 0.35400 0.75900 -0.38800
O 	O 	0.27800 0.27500 0.85570 -0.53600
O 	O 	0.49100 0.85100 0.02700 -0.43000
O 	O 	0.22500 0.90100 0.02400 -0.47100
O 	O 	0.01200 0.15500 0.64900 -0.41700
O 	O 	0.27600 0.11000 0.60100 -0.48500
O 	O 	0.26700 0.98100 0.27500 -0.51400
O 	O 	0.51100 0.07000 0.37900 -0.42800
C 	C 	0.39400 0.83300 0.85500 -0.29300
H 	H 	0.48200 0.89830 0.84820 0.12400
H 	H 	0.44280 0.75840 0.82500 0.11700
