data_crystal

_cell_length_a 7.97900
_cell_length_b 12.09500
_cell_length_c 12.29700
_cell_angle_alpha 111.68100
_cell_angle_beta  89.93200
_cell_angle_gamma 100.15800

_symmetry_space_group_name_	'P 1'
_symmetry_space_group_name_H-M	'P 1'

loop_
_symmetry_equiv_pos_as_xyz
  x,y,z

loop_
_atom_site_label
_atom_site_type_symbol
_atom_site_fract_x
_atom_site_fract_y
_atom_site_fract_z
_atom_site_charge
C 	C 	0.64610 0.42430 0.14350 0.41700
C 	C 	0.71810 0.31100 0.08550 -0.26900
H 	H 	0.73900 0.27760 0.14370 0.11800
H 	H 	0.63440 0.25140 0.02620 0.11700
C 	C 	0.88570 0.33370 0.02770 -0.24800
H 	H 	0.96250 0.40250 0.08390 0.10300
H 	H 	0.93940 0.26360 0.00930 0.10600
C 	C 	0.86310 0.35810 0.91720 0.42300
C 	C 	0.14360 0.42350 0.30190 0.36300
C 	C 	0.21600 0.30790 0.27550 -0.07300
C 	C 	0.38410 0.33030 0.34880 -0.07600
C 	C 	0.36520 0.36060 0.47810 0.35700
C 	C 	0.32590 0.86530 0.32080 0.40200
C 	C 	0.24490 0.97410 0.36410 -0.27900
H 	H 	0.28610 0.02710 0.32290 0.12300
H 	H 	0.12220 0.94920 0.34740 0.11800
C 	C 	0.28360 0.04220 0.49350 -0.22500
H 	H 	0.40410 0.07840 0.50800 0.08600
H 	H 	0.26180 0.98520 0.53270 0.10700
C 	C 	0.18090 0.14100 0.54710 0.38000
La	La	0.99062 0.64541 0.35392 1.65100
La	La	0.49033 0.64508 0.25104 1.64700
O 	O 	0.73650 0.51570 0.21740 -0.50900
O 	O 	0.49240 0.42460 0.11910 -0.41100
O 	O 	0.23340 0.51540 0.29380 -0.48900
O 	O 	0.99190 0.42600 0.32720 -0.39700
O 	O 	0.27220 0.77960 0.35670 -0.52000
O 	O 	0.44580 0.85780 0.25690 -0.41000
O 	O 	0.73180 0.39350 0.90320 -0.45300
O 	O 	0.98520 0.34570 0.85000 -0.43000
O 	O 	0.23070 0.21960 0.64990 -0.51400
O 	O 	0.05360 0.14650 0.49380 -0.40100
O 	O 	0.48700 0.34910 0.53770 -0.39800
O 	O 	0.23170 0.39720 0.52020 -0.41900
C 	C 	0.35390 0.57570 0.85650 0.41800
C 	C 	0.28190 0.68900 0.91450 -0.26800
H 	H 	0.26100 0.72240 0.85630 0.11900
H 	H 	0.36560 0.74860 0.97380 0.11800
C 	C 	0.11430 0.66630 0.97230 -0.24700
H 	H 	0.03750 0.59750 0.91610 0.10400
H 	H 	0.06060 0.73640 0.99070 0.10600
C 	C 	0.13690 0.64190 0.08280 0.42300
C 	C 	0.85640 0.57650 0.69810 0.36300
C 	C 	0.78400 0.69210 0.72450 -0.07300
C 	C 	0.61590 0.66970 0.65120 -0.07600
C 	C 	0.63480 0.63940 0.52190 0.35700
C 	C 	0.67410 0.13470 0.67920 0.40200
C 	C 	0.75510 0.02590 0.63590 -0.27900
H 	H 	0.71390 0.97290 0.67710 0.12300
H 	H 	0.87780 0.05080 0.65260 0.11800
C 	C 	0.71640 0.95780 0.50650 -0.22500
H 	H 	0.59590 0.92160 0.49200 0.08600
H 	H 	0.73820 0.01480 0.46730 0.10700
C 	C 	0.81910 0.85900 0.45290 0.38000
La	La	0.00938 0.35459 0.64608 1.65100
La	La	0.50967 0.35492 0.74896 1.64700
O 	O 	0.26350 0.48430 0.78260 -0.50900
O 	O 	0.50760 0.57540 0.88090 -0.41100
O 	O 	0.76660 0.48460 0.70620 -0.48900
O 	O 	0.00810 0.57400 0.67280 -0.39700
O 	O 	0.72780 0.22040 0.64330 -0.52000
O 	O 	0.55420 0.14220 0.74310 -0.41000
O 	O 	0.26820 0.60650 0.09680 -0.45300
O 	O 	0.01480 0.65430 0.15000 -0.43000
O 	O 	0.76930 0.78040 0.35010 -0.51400
O 	O 	0.94640 0.85350 0.50620 -0.40100
O 	O 	0.51300 0.65090 0.46230 -0.39800
O 	O 	0.76830 0.60280 0.47980 -0.41900
