data_crystal

_cell_length_a 7.97600
_cell_length_b 12.00600
_cell_length_c 12.28400
_cell_angle_alpha 112.01000
_cell_angle_beta  90.05000
_cell_angle_gamma 100.58000

_symmetry_space_group_name_	'P 1'
_symmetry_space_group_name_H-M	'P 1'

loop_
_symmetry_equiv_pos_as_xyz
  x,y,z

loop_
_atom_site_label
_atom_site_type_symbol
_atom_site_fract_x
_atom_site_fract_y
_atom_site_fract_z
_atom_site_charge
C 	C 	0.63520 0.13980 0.02230 0.41500
C 	C 	0.61530 0.17310 0.15200 -0.25100
H 	H 	0.53450 0.10750 0.16240 0.10500
H 	H 	0.56720 0.24650 0.18170 0.10300
C 	C 	0.78540 0.19590 0.22700 -0.25500
H 	H 	0.86990 0.25640 0.21170 0.10900
H 	H 	0.76520 0.22910 0.30980 0.10400
C 	C 	0.85560 0.08180 0.20100 0.38100
C 	C 	0.64430 0.91780 0.63880 0.38600
C 	C 	0.71340 0.80210 0.58070 -0.25100
H 	H 	0.73260 0.76830 0.63890 0.10400
H 	H 	0.62900 0.74210 0.52050 0.10600
C 	C 	0.76010 0.52620 0.14660 -0.27500
H 	H 	0.88290 0.55410 0.16310 0.11500
H 	H 	0.72030 0.47450 0.18970 0.11500
C 	C 	0.67290 0.63290 0.18170 0.36400
C 	C 	0.86190 0.85690 0.41870 0.39600
C 	C 	0.87740 0.82440 0.52580 -0.23100
H 	H 	0.95700 0.89050 0.58490 0.09900
H 	H 	0.92630 0.75140 0.50330 0.09500
C 	C 	0.71580 0.45550 0.01500 -0.19400
H 	H 	0.73210 0.51330 0.97620 0.09100
H 	H 	0.59550 0.41700 0.00260 0.07500
C 	C 	0.81970 0.35690 0.95600 0.34300
La	La	0.99112 0.14308 0.85318 1.62900
La	La	0.49133 0.14293 0.75029 1.64300
O 	O 	0.77140 0.27790 0.85040 -0.50800
O 	O 	0.94900 0.35510 0.01060 -0.38200
O 	O 	0.76650 0.98720 0.20870 -0.49000
O 	O 	0.00990 0.07910 0.17550 -0.40100
O 	O 	0.54770 0.63950 0.24390 -0.39500
O 	O 	0.72720 0.72170 0.14450 -0.50100
O 	O 	0.51580 0.14980 0.96180 -0.42900
O 	O 	0.76770 0.10140 0.97980 -0.44400
O 	O 	0.98280 0.84730 0.35020 -0.41700
O 	O 	0.73100 0.89630 0.40510 -0.43900
O 	O 	0.73520 0.01380 0.71620 -0.50400
O 	O 	0.48880 0.91960 0.61620 -0.40900
C 	C 	0.36480 0.86020 0.97770 0.41400
C 	C 	0.38470 0.82690 0.84800 -0.25200
H 	H 	0.46550 0.89250 0.83760 0.10400
H 	H 	0.43280 0.75350 0.81830 0.10200
C 	C 	0.21460 0.80410 0.77300 -0.25500
H 	H 	0.13010 0.74360 0.78830 0.10900
H 	H 	0.23480 0.77090 0.69020 0.10400
C 	C 	0.14440 0.91820 0.79900 0.38100
C 	C 	0.35570 0.08220 0.36120 0.38600
C 	C 	0.28660 0.19790 0.41930 -0.25100
H 	H 	0.26740 0.23170 0.36110 0.10400
H 	H 	0.37100 0.25790 0.47950 0.10600
C 	C 	0.23990 0.47380 0.85340 -0.27500
H 	H 	0.11710 0.44590 0.83690 0.11500
H 	H 	0.27970 0.52550 0.81030 0.11500
C 	C 	0.32710 0.36710 0.81830 0.36400
C 	C 	0.13810 0.14310 0.58130 0.39600
C 	C 	0.12260 0.17560 0.47420 -0.23100
H 	H 	0.04300 0.10950 0.41510 0.09900
H 	H 	0.07370 0.24860 0.49670 0.09500
C 	C 	0.28420 0.54450 0.98500 -0.19400
H 	H 	0.26790 0.48670 0.02380 0.09100
H 	H 	0.40450 0.58300 0.99740 0.07500
C 	C 	0.18030 0.64310 0.04400 0.34300
La	La	0.00888 0.85692 0.14682 1.62900
La	La	0.50867 0.85707 0.24971 1.64300
O 	O 	0.22860 0.72210 0.14960 -0.50800
O 	O 	0.05100 0.64490 0.98940 -0.38200
O 	O 	0.23350 0.01280 0.79130 -0.49000
O 	O 	0.99010 0.92090 0.82450 -0.40100
O 	O 	0.45230 0.36050 0.75610 -0.39500
O 	O 	0.27280 0.27830 0.85550 -0.50100
O 	O 	0.48420 0.85020 0.03820 -0.42900
O 	O 	0.23230 0.89860 0.02020 -0.44400
O 	O 	0.01720 0.15270 0.64980 -0.41700
O 	O 	0.26900 0.10370 0.59490 -0.43900
O 	O 	0.26480 0.98620 0.28380 -0.50400
O 	O 	0.51120 0.08040 0.38380 -0.40900
