data_crystal

_cell_length_a 10.94130
_cell_length_b 17.59540
_cell_length_c 18.57730
_cell_angle_alpha 88.85000
_cell_angle_beta  85.81300
_cell_angle_gamma 76.54600

_symmetry_space_group_name_	'P 1'
_symmetry_space_group_name_H-M	'P 1'

loop_
_symmetry_equiv_pos_as_xyz
  x,y,z

loop_
_atom_site_label
_atom_site_type_symbol
_atom_site_fract_x
_atom_site_fract_y
_atom_site_fract_z
_atom_site_charge
Ba	Ba	0.59845 0.60756 0.50772 2.22100
Ba	Ba	0.44245 0.46567 0.24334 1.60000
Ba	Ba	0.14272 0.64815 0.03239 1.70700
Ba	Ba	0.20284 0.90452 0.01435 2.15800
Ba	Ba	0.88700 0.04048 0.73735 1.56500
Ba	Ba	0.79778 0.82288 0.54188 1.87900
Ba	Ba	0.40155 0.39244 0.49228 2.22000
Ba	Ba	0.55755 0.53433 0.75666 1.59900
Ba	Ba	0.85728 0.35185 0.96761 1.70600
Ba	Ba	0.79716 0.09548 0.98565 2.15700
Ba	Ba	0.11300 0.95952 0.26265 1.56500
Ba	Ba	0.20222 0.17712 0.45812 1.87900
Cr	Cr	0.88931 0.36475 0.63339 1.55900
Cr	Cr	0.60510 0.67782 0.17455 1.56000
Cr	Cr	0.74052 0.85518 0.87411 1.56100
Cr	Cr	0.25501 0.85378 0.67656 1.55900
Cr	Cr	0.11069 0.63525 0.36661 1.55900
Cr	Cr	0.39490 0.32218 0.82545 1.56000
Cr	Cr	0.25948 0.14482 0.12589 1.56100
Cr	Cr	0.74499 0.14622 0.32344 1.55900
H 	H 	0.21070 0.42420 0.35560 0.18300
H 	H 	0.29750 0.34270 0.33820 0.19800
H 	H 	0.63770 0.40460 0.36950 0.18600
H 	H 	0.59900 0.32970 0.34730 0.20300
H 	H 	0.37940 0.88060 0.15850 0.20900
H 	H 	0.35810 0.96940 0.14200 0.20100
H 	H 	0.05190 0.82980 0.15430 0.20700
H 	H 	0.95600 0.90630 0.13590 0.21000
H 	H 	0.78930 0.57580 0.64440 0.18300
H 	H 	0.70250 0.65730 0.66180 0.19800
H 	H 	0.36230 0.59540 0.63050 0.18600
H 	H 	0.40100 0.67030 0.65270 0.20300
H 	H 	0.62060 0.11940 0.84150 0.20900
H 	H 	0.64190 0.03060 0.85800 0.20100
H 	H 	0.94810 0.17020 0.84570 0.20700
H 	H 	0.04400 0.09370 0.86410 0.21000
C 	C 	0.70280 0.40850 0.53955 0.26600
C 	C 	0.70070 0.32366 0.56243 0.21600
C 	C 	0.89780 0.64948 0.45774 0.25900
C 	C 	0.90390 0.57695 0.41079 0.22300
C 	C 	0.19880 0.61866 0.22286 0.23700
C 	C 	0.08300 0.68840 0.22646 0.22000
C 	C 	0.54900 0.61416 0.30729 0.22200
C 	C 	0.61220 0.68169 0.32262 0.25700
C 	C 	0.37850 0.73256 0.11158 0.25600
C 	C 	0.45210 0.66123 0.06740 0.24800
C 	C 	0.85180 0.61827 0.12460 0.23300
C 	C 	0.81430 0.70336 0.09559 0.23000
C 	C 	0.96210 0.82150 0.94421 0.26300
C 	C 	0.88940 0.90345 0.96914 0.23500
C 	C 	0.53330 0.84736 0.96431 0.25300
C 	C 	0.49350 0.92157 0.91673 0.23000
C 	C 	0.75220 0.79695 0.73511 0.23300
C 	C 	0.81500 0.86738 0.72915 0.24600
C 	C 	0.26250 0.84599 0.82491 0.25900
C 	C 	0.14870 0.91354 0.81026 0.22300
C 	C 	0.48210 0.88622 0.62372 0.21700
C 	C 	0.48460 0.80240 0.59895 0.26500
C 	C 	0.08410 0.78276 0.62130 0.20400
C 	C 	0.09100 0.85322 0.57132 0.24800
C 	C 	0.29720 0.59150 0.46045 0.26600
C 	C 	0.29930 0.67634 0.43757 0.21600
C 	C 	0.10220 0.35052 0.54226 0.25900
C 	C 	0.09610 0.42305 0.58921 0.22300
C 	C 	0.80120 0.38134 0.77714 0.23700
C 	C 	0.91700 0.31160 0.77354 0.22000
C 	C 	0.45100 0.38584 0.69271 0.22200
C 	C 	0.38780 0.31831 0.67738 0.25700
C 	C 	0.62150 0.26744 0.88842 0.25600
C 	C 	0.54790 0.33877 0.93260 0.24800
C 	C 	0.14820 0.38173 0.87540 0.23300
C 	C 	0.18570 0.29664 0.90441 0.23000
C 	C 	0.03790 0.17850 0.05579 0.26300
C 	C 	0.11060 0.09655 0.03086 0.23500
C 	C 	0.46670 0.15264 0.03569 0.25300
C 	C 	0.50650 0.07843 0.08327 0.23000
C 	C 	0.24780 0.20305 0.26489 0.23300
C 	C 	0.18500 0.13262 0.27085 0.24600
C 	C 	0.73750 0.15401 0.17509 0.25900
C 	C 	0.85130 0.08646 0.18974 0.22300
C 	C 	0.51790 0.11378 0.37628 0.21700
C 	C 	0.51540 0.19760 0.40105 0.26500
C 	C 	0.91590 0.21724 0.37870 0.20400
C 	C 	0.90900 0.14678 0.42868 0.24800
O 	O 	0.78930 0.43577 0.56534 -0.51700
O 	O 	0.62260 0.44515 0.50088 -0.55600
O 	O 	0.77790 0.29645 0.61098 -0.46500
O 	O 	0.62920 0.29000 0.53590 -0.37300
O 	O 	0.98360 0.68639 0.44187 -0.51900
O 	O 	0.81270 0.66846 0.50565 -0.53200
O 	O 	0.99520 0.56373 0.36194 -0.43800
O 	O 	0.82340 0.53888 0.42198 -0.37100
O 	O 	0.22440 0.58572 0.28470 -0.56300
O 	O 	0.26090 0.59876 0.16607 -0.47400
O 	O 	0.03160 0.70482 0.29060 -0.47100
O 	O 	0.04950 0.72211 0.17053 -0.37300
O 	O 	0.52670 0.60905 0.24078 -0.55500
O 	O 	0.52380 0.57077 0.35635 -0.43500
O 	O 	0.63560 0.72101 0.26699 -0.45100
O 	O 	0.63560 0.69297 0.38471 -0.42800
O 	O 	0.43790 0.75092 0.16395 -0.46700
O 	O 	0.27310 0.76627 0.09540 -0.48300
O 	O 	0.56230 0.63112 0.08827 -0.49500
O 	O 	0.40270 0.63780 0.01821 -0.45600
O 	O 	0.76770 0.59910 0.16859 -0.46200
O 	O 	0.95460 0.57588 0.10474 -0.41200
O 	O 	0.70320 0.74097 0.11871 -0.41900
O 	O 	0.88820 0.72850 0.05440 -0.35200
O 	O 	0.90670 0.78986 0.89864 -0.47000
O 	O 	0.06510 0.79382 0.96783 -0.50600
O 	O 	0.78375 0.92904 0.94070 -0.53200
O 	O 	0.93340 0.94067 0.01112 -0.50600
O 	O 	0.64710 0.80825 0.94921 -0.43400
O 	O 	0.45880 0.83109 0.01082 -0.38900
O 	O 	0.57720 0.92966 0.86665 -0.45600
O 	O 	0.38940 0.96560 0.92914 -0.35900
O 	O 	0.82020 0.90058 0.78973 -0.55600
O 	O 	0.85510 0.88886 0.67061 -0.48000
O 	O 	0.71320 0.78277 0.80009 -0.45500
O 	O 	0.74160 0.76213 0.68067 -0.38600
O 	O 	0.32280 0.81270 0.76771 -0.46800
O 	O 	0.28900 0.82664 0.88644 -0.42300
O 	O 	0.13420 0.92758 0.74209 -0.54900
O 	O 	0.08150 0.94784 0.85997 -0.39200
O 	O 	0.37880 0.91954 0.66013 -0.45500
O 	O 	0.57340 0.91435 0.60989 -0.42000
O 	O 	0.38670 0.77798 0.62146 -0.49000
O 	O 	0.57480 0.76425 0.56205 -0.51000
O 	O 	0.14720 0.77839 0.67744 -0.44000
O 	O 	0.02240 0.73668 0.60508 -0.33400
O 	O 	0.16870 0.89299 0.58955 -0.50000
O 	O 	0.02480 0.86672 0.52003 -0.45500
O 	O 	0.29640 0.39491 0.35219 -0.66100
O 	O 	0.56730 0.38341 0.36036 -0.67200
O 	O 	0.31780 0.92668 0.14727 -0.65900
O 	O 	0.04250 0.88426 0.14401 -0.68300
O 	O 	0.21070 0.56423 0.43466 -0.51700
O 	O 	0.37740 0.55485 0.49912 -0.55600
O 	O 	0.22210 0.70355 0.38902 -0.46500
O 	O 	0.37080 0.71000 0.46410 -0.37300
O 	O 	0.01640 0.31361 0.55813 -0.51900
O 	O 	0.18730 0.33154 0.49435 -0.53200
O 	O 	0.00480 0.43627 0.63806 -0.43800
O 	O 	0.17660 0.46112 0.57802 -0.37100
O 	O 	0.77560 0.41428 0.71530 -0.56300
O 	O 	0.73910 0.40124 0.83393 -0.47400
O 	O 	0.96840 0.29518 0.70940 -0.47100
O 	O 	0.95050 0.27789 0.82947 -0.37300
O 	O 	0.47330 0.39095 0.75922 -0.55500
O 	O 	0.47620 0.42923 0.64365 -0.43500
O 	O 	0.36440 0.27899 0.73301 -0.45100
O 	O 	0.36440 0.30703 0.61529 -0.42800
O 	O 	0.56210 0.24908 0.83605 -0.46700
O 	O 	0.72690 0.23373 0.90460 -0.48300
O 	O 	0.43770 0.36888 0.91173 -0.49500
O 	O 	0.59730 0.36220 0.98179 -0.45600
O 	O 	0.23230 0.40090 0.83141 -0.46200
O 	O 	0.04540 0.42412 0.89526 -0.41200
O 	O 	0.29680 0.25903 0.88129 -0.41900
O 	O 	0.11180 0.27150 0.94560 -0.35200
O 	O 	0.09330 0.21014 0.10136 -0.47000
O 	O 	0.93490 0.20618 0.03217 -0.50600
O 	O 	0.21625 0.07096 0.05930 -0.53200
O 	O 	0.06660 0.05933 0.98888 -0.50600
O 	O 	0.35290 0.19175 0.05079 -0.43400
O 	O 	0.54120 0.16891 0.98918 -0.38900
O 	O 	0.42280 0.07034 0.13335 -0.45600
O 	O 	0.61060 0.03440 0.07086 -0.35900
O 	O 	0.17980 0.09942 0.21027 -0.55600
O 	O 	0.14490 0.11114 0.32939 -0.48000
O 	O 	0.28680 0.21723 0.19991 -0.45500
O 	O 	0.25840 0.23787 0.31933 -0.38600
O 	O 	0.67720 0.18730 0.23229 -0.46800
O 	O 	0.71100 0.17336 0.11356 -0.42300
O 	O 	0.86580 0.07242 0.25791 -0.54900
O 	O 	0.91850 0.05216 0.14003 -0.39200
O 	O 	0.62120 0.08046 0.33987 -0.45500
O 	O 	0.42660 0.08565 0.39011 -0.42000
O 	O 	0.61330 0.22202 0.37854 -0.49000
O 	O 	0.42520 0.23575 0.43795 -0.51000
O 	O 	0.85280 0.22161 0.32256 -0.44000
O 	O 	0.97760 0.26332 0.39492 -0.33400
O 	O 	0.83130 0.10701 0.41045 -0.50000
O 	O 	0.97520 0.13328 0.47997 -0.45500
O 	O 	0.70360 0.60509 0.64781 -0.66100
O 	O 	0.43270 0.61659 0.63964 -0.67200
O 	O 	0.68220 0.07332 0.85273 -0.65900
O 	O 	0.95750 0.11574 0.85599 -0.68300
