data_crystal

_cell_length_a 23.19300
_cell_length_b 23.19300
_cell_length_c 12.06900
_cell_angle_alpha 90.00000
_cell_angle_beta  90.00000
_cell_angle_gamma 90.00000

_symmetry_space_group_name_	'P 1'
_symmetry_space_group_name_H-M	'P 1'

loop_
_symmetry_equiv_pos_as_xyz
  x,y,z

loop_
_atom_site_label
_atom_site_type_symbol
_atom_site_fract_x
_atom_site_fract_y
_atom_site_fract_z
_atom_site_charge
Mg	Mg	0.62983 0.54234 0.50010 1.48300
Mg	Mg	0.72607 0.45134 0.46040 1.49500
O 	O 	0.67414 0.59824 0.60770 -0.69500
O 	O 	0.72560 0.67100 0.67200 -0.72100
O 	O 	0.70407 0.53576 0.40060 -0.70100
O 	O 	0.77790 0.55000 0.29070 -0.60600
O 	O 	0.59070 0.60300 0.40880 -0.62200
O 	O 	0.49920 0.57510 0.41310 -0.61800
O 	O 	0.56059 0.53300 0.61530 -0.73100
O 	O 	0.61610 0.52660 0.76500 -0.59800
O 	O 	0.67320 0.47930 0.57780 -1.74600
H 	H 	0.65400 0.46000 0.58200 1.01000
C 	C 	0.67970 0.65010 0.62880 0.67600
C 	C 	0.62840 0.69000 0.60870 -0.97600
H 	H 	0.61690 0.68780 0.53060 0.28300
H 	H 	0.63930 0.72970 0.62690 0.28400
H 	H 	0.59610 0.67800 0.65560 0.28100
C 	C 	0.73580 0.56780 0.34220 0.80200
C 	C 	0.72660 0.63030 0.34110 -1.13100
H 	H 	0.71880 0.64370 0.41670 0.33200
H 	H 	0.69360 0.63940 0.29350 0.33400
H 	H 	0.76120 0.64950 0.31260 0.34000
C 	C 	0.53870 0.60850 0.38460 0.66100
C 	C 	0.52230 0.66070 0.31950 -0.91400
H 	H 	0.53090 0.65420 0.24100 0.25500
H 	H 	0.54430 0.69400 0.34630 0.25500
H 	H 	0.48100 0.66810 0.32850 0.26100
C 	C 	0.56860 0.52490 0.72010 0.71600
C 	C 	0.51740 0.51430 0.78980 -1.04300
H 	H 	0.52490 0.48160 0.83910 0.30900
H 	H 	0.48430 0.50550 0.74240 0.30400
H 	H 	0.50910 0.54870 0.83410 0.29900
Mg	Mg	0.12983 0.04234 0.00010 1.47700
Mg	Mg	0.22607 0.95134 0.96040 1.49700
O 	O 	0.17414 0.09824 0.10770 -0.70900
O 	O 	0.22560 0.17100 0.17200 -0.72100
O 	O 	0.20407 0.03576 0.90060 -0.71000
O 	O 	0.27790 0.05000 0.79070 -0.61900
O 	O 	0.09070 0.10300 0.90880 -0.61200
O 	O 	0.99920 0.07510 0.91310 -0.57900
O 	O 	0.06059 0.03300 0.11530 -0.79200
O 	O 	0.11610 0.02660 0.26500 -0.64900
O 	O 	0.17320 0.97930 0.07780 -1.71600
H 	H 	0.15400 0.96000 0.08200 0.99600
C 	C 	0.17970 0.15010 0.12880 0.66600
C 	C 	0.12840 0.19000 0.10870 -0.94900
H 	H 	0.11690 0.18780 0.03060 0.26100
H 	H 	0.13930 0.22970 0.12690 0.27200
H 	H 	0.09610 0.17800 0.15560 0.26300
C 	C 	0.23580 0.06780 0.84220 0.81500
C 	C 	0.22660 0.13030 0.84110 -1.15700
H 	H 	0.21880 0.14370 0.91670 0.35300
H 	H 	0.19360 0.13940 0.79350 0.34400
H 	H 	0.26120 0.14950 0.81260 0.35200
C 	C 	0.03870 0.10850 0.88460 0.64800
C 	C 	0.02230 0.16070 0.81950 -1.02200
H 	H 	0.03090 0.15420 0.74100 0.27800
H 	H 	0.04430 0.19400 0.84630 0.28600
H 	H 	0.98100 0.16810 0.82850 0.32100
C 	C 	0.06860 0.02490 0.22010 0.80700
C 	C 	0.01740 0.01430 0.28980 -1.35600
H 	H 	0.02490 0.98160 0.33910 0.41100
H 	H 	0.98430 0.00550 0.24240 0.40900
H 	H 	0.00910 0.04870 0.33410 0.36500
Mg	Mg	0.87017 0.45766 0.00010 1.48000
Mg	Mg	0.77393 0.54866 0.96040 1.49700
O 	O 	0.82586 0.40176 0.10770 -0.70200
O 	O 	0.77440 0.32900 0.17200 -0.72200
O 	O 	0.79593 0.46424 0.90060 -0.69400
O 	O 	0.72210 0.45000 0.79070 -0.60600
O 	O 	0.90930 0.39700 0.90880 -0.61300
O 	O 	0.00080 0.42490 0.91310 -0.64100
O 	O 	0.93941 0.46700 0.11530 -0.71200
O 	O 	0.88390 0.47340 0.26500 -0.58700
O 	O 	0.82680 0.52070 0.07780 -1.75500
H 	H 	0.84600 0.54000 0.08200 1.01100
C 	C 	0.82030 0.34990 0.12880 0.67300
C 	C 	0.87160 0.31000 0.10870 -0.97200
H 	H 	0.88310 0.31220 0.03060 0.27600
H 	H 	0.86070 0.27030 0.12690 0.28200
H 	H 	0.90390 0.32200 0.15560 0.28400
C 	C 	0.76420 0.43220 0.84220 0.81000
C 	C 	0.77340 0.36970 0.84110 -1.15000
H 	H 	0.78120 0.35630 0.91670 0.35000
H 	H 	0.80640 0.36060 0.79350 0.34400
H 	H 	0.73880 0.35050 0.81260 0.35000
C 	C 	0.96130 0.39150 0.88460 0.68300
C 	C 	0.97770 0.33930 0.81950 -0.82800
H 	H 	0.96910 0.34580 0.74100 0.24200
H 	H 	0.95570 0.30600 0.84630 0.24300
H 	H 	0.01900 0.33190 0.82850 0.21900
C 	C 	0.93140 0.47510 0.22010 0.67000
C 	C 	0.98260 0.48570 0.28980 -0.88500
H 	H 	0.97510 0.51840 0.33910 0.26900
H 	H 	0.01570 0.49450 0.24240 0.23100
H 	H 	0.99090 0.45130 0.33410 0.26500
Mg	Mg	0.37017 0.95766 0.50010 1.48400
Mg	Mg	0.27393 0.04866 0.46040 1.49300
O 	O 	0.32586 0.90176 0.60770 -0.69100
O 	O 	0.27440 0.82900 0.67200 -0.72200
O 	O 	0.29593 0.96424 0.40060 -0.68000
O 	O 	0.22210 0.95000 0.29070 -0.59000
O 	O 	0.40930 0.89700 0.40880 -0.61600
O 	O 	0.50080 0.92490 0.41310 -0.60600
O 	O 	0.43941 0.96700 0.61530 -0.70800
O 	O 	0.38390 0.97340 0.76500 -0.57500
O 	O 	0.32680 0.02070 0.57780 -1.77700
H 	H 	0.34600 0.04000 0.58200 1.02200
C 	C 	0.32030 0.84990 0.62880 0.67400
C 	C 	0.37160 0.81000 0.60870 -0.97400
H 	H 	0.38310 0.81220 0.53060 0.28200
H 	H 	0.36070 0.77030 0.62690 0.28300
H 	H 	0.40390 0.82200 0.65560 0.28100
C 	C 	0.26420 0.93220 0.34220 0.79600
C 	C 	0.27340 0.86970 0.34110 -1.12200
H 	H 	0.28120 0.85630 0.41670 0.33000
H 	H 	0.30640 0.86060 0.29350 0.33300
H 	H 	0.23880 0.85050 0.31260 0.33700
C 	C 	0.46130 0.89150 0.38460 0.66000
C 	C 	0.47770 0.83930 0.31950 -0.91200
H 	H 	0.46910 0.84580 0.24100 0.25600
H 	H 	0.45570 0.80600 0.34630 0.25400
H 	H 	0.51900 0.83190 0.32850 0.26200
C 	C 	0.43140 0.97510 0.72010 0.68100
C 	C 	0.48260 0.98570 0.78980 -0.92100
H 	H 	0.47510 0.01840 0.83910 0.25300
H 	H 	0.51570 0.99450 0.74240 0.27800
H 	H 	0.49090 0.95130 0.83410 0.26700
Mg	Mg	0.20766 0.87983 0.75010 1.48200
Mg	Mg	0.29866 0.97607 0.71040 1.49700
O 	O 	0.15176 0.92414 0.85770 -0.68500
O 	O 	0.07900 0.97560 0.92200 -0.69900
O 	O 	0.21424 0.95407 0.65060 -0.69500
O 	O 	0.20000 0.02790 0.54070 -0.63300
O 	O 	0.14700 0.84070 0.65880 -0.61900
O 	O 	0.17490 0.74920 0.66310 -0.61700
O 	O 	0.21700 0.81059 0.86530 -0.75300
O 	O 	0.22340 0.86610 0.01500 -0.64500
O 	O 	0.27070 0.92320 0.82780 -1.72900
H 	H 	0.29000 0.90400 0.83200 1.00400
C 	C 	0.09990 0.92970 0.87880 0.66900
C 	C 	0.06000 0.87840 0.85870 -0.95400
H 	H 	0.06220 0.86690 0.78060 0.27300
H 	H 	0.02030 0.88930 0.87690 0.27000
H 	H 	0.07200 0.84610 0.90560 0.27500
C 	C 	0.18220 0.98580 0.59220 0.81200
C 	C 	0.11970 0.97660 0.59110 -1.02200
H 	H 	0.10630 0.96880 0.66670 0.30500
H 	H 	0.11060 0.94360 0.54350 0.30600
H 	H 	0.10050 0.01120 0.56260 0.28100
C 	C 	0.14150 0.78870 0.63460 0.65500
C 	C 	0.08930 0.77230 0.56950 -0.89800
H 	H 	0.09580 0.78090 0.49100 0.24800
H 	H 	0.05600 0.79430 0.59630 0.24300
H 	H 	0.08190 0.73100 0.57850 0.25100
C 	C 	0.22510 0.81860 0.97010 0.80900
C 	C 	0.23570 0.76740 0.03980 -1.21500
H 	H 	0.26840 0.77490 0.08910 0.34800
H 	H 	0.24450 0.73430 0.99240 0.36700
H 	H 	0.20130 0.75910 0.08410 0.33800
Mg	Mg	0.70766 0.37983 0.25010 1.48200
Mg	Mg	0.79866 0.47607 0.21040 1.49400
O 	O 	0.65176 0.42414 0.35770 -0.69600
O 	O 	0.57900 0.47560 0.42200 -0.72300
O 	O 	0.71424 0.45407 0.15060 -0.70300
O 	O 	0.70000 0.52790 0.04070 -0.61500
O 	O 	0.64700 0.34070 0.15880 -0.63500
O 	O 	0.67490 0.24920 0.16310 -0.63100
O 	O 	0.71700 0.31059 0.36530 -0.73000
O 	O 	0.72340 0.36610 0.51500 -0.60100
O 	O 	0.77070 0.42320 0.32780 -1.74600
H 	H 	0.79000 0.40400 0.33200 1.01100
C 	C 	0.59990 0.42970 0.37880 0.67500
C 	C 	0.56000 0.37840 0.35870 -0.97300
H 	H 	0.56220 0.36690 0.28060 0.28100
H 	H 	0.52030 0.38930 0.37690 0.28200
H 	H 	0.57200 0.34610 0.40560 0.27900
C 	C 	0.68220 0.48580 0.09220 0.79600
C 	C 	0.61970 0.47660 0.09110 -1.12100
H 	H 	0.60630 0.46880 0.16670 0.32800
H 	H 	0.61060 0.44360 0.04350 0.32600
H 	H 	0.60050 0.51120 0.06260 0.33200
C 	C 	0.64150 0.28870 0.13460 0.69600
C 	C 	0.58930 0.27230 0.06950 -1.03400
H 	H 	0.59580 0.28090 0.99100 0.31400
H 	H 	0.55600 0.29430 0.09630 0.28300
H 	H 	0.58190 0.23100 0.07850 0.28900
C 	C 	0.72510 0.31860 0.47010 0.71300
C 	C 	0.73570 0.26740 0.53980 -1.03700
H 	H 	0.76840 0.27490 0.58910 0.30300
H 	H 	0.74450 0.23430 0.49240 0.30200
H 	H 	0.70130 0.25910 0.58410 0.29400
Mg	Mg	0.29234 0.12017 0.25010 1.48200
Mg	Mg	0.20134 0.02393 0.21040 1.49100
O 	O 	0.34824 0.07586 0.35770 -0.70300
O 	O 	0.42100 0.02440 0.42200 -0.74200
O 	O 	0.28576 0.04593 0.15060 -0.71100
O 	O 	0.30000 0.97210 0.04070 -0.58100
O 	O 	0.35300 0.15930 0.15880 -0.63700
O 	O 	0.32510 0.25080 0.16310 -0.63100
O 	O 	0.28300 0.18941 0.36530 -0.73000
O 	O 	0.27660 0.13390 0.51500 -0.60200
O 	O 	0.22930 0.07680 0.32780 -1.75900
H 	H 	0.21000 0.09600 0.33200 1.01700
C 	C 	0.40010 0.07030 0.37880 0.67700
C 	C 	0.44000 0.12160 0.35870 -0.97800
H 	H 	0.43780 0.13310 0.28060 0.28000
H 	H 	0.47970 0.11070 0.37690 0.28400
H 	H 	0.42800 0.15390 0.40560 0.28100
C 	C 	0.31780 0.01420 0.09220 0.77700
C 	C 	0.38030 0.02340 0.09110 -1.24200
H 	H 	0.39370 0.03120 0.16670 0.35500
H 	H 	0.38940 0.05640 0.04350 0.35300
H 	H 	0.39950 0.98880 0.06260 0.39500
C 	C 	0.35850 0.21130 0.13460 0.69800
C 	C 	0.41070 0.22770 0.06950 -1.04200
H 	H 	0.40420 0.21910 0.99100 0.31700
H 	H 	0.44400 0.20570 0.09630 0.28400
H 	H 	0.41810 0.26900 0.07850 0.29200
C 	C 	0.27490 0.18140 0.47010 0.71200
C 	C 	0.26430 0.23260 0.53980 -1.03600
H 	H 	0.23160 0.22510 0.58910 0.30200
H 	H 	0.25550 0.26570 0.49240 0.30100
H 	H 	0.29870 0.24090 0.58410 0.29400
Mg	Mg	0.79234 0.62017 0.75010 1.48300
Mg	Mg	0.70134 0.52393 0.71040 1.49400
O 	O 	0.84824 0.57586 0.85770 -0.69300
O 	O 	0.92100 0.52440 0.92200 -0.71100
O 	O 	0.78576 0.54593 0.65060 -0.70300
O 	O 	0.80000 0.47210 0.54070 -0.60800
O 	O 	0.85300 0.65930 0.65880 -0.62300
O 	O 	0.82510 0.75080 0.66310 -0.61900
O 	O 	0.78300 0.68941 0.86530 -0.75200
O 	O 	0.77660 0.63390 0.01500 -0.64600
O 	O 	0.72930 0.57680 0.82780 -1.73900
H 	H 	0.71000 0.59600 0.83200 1.01000
C 	C 	0.90010 0.57030 0.87880 0.68400
C 	C 	0.94000 0.62160 0.85870 -1.00000
H 	H 	0.93780 0.63310 0.78060 0.29500
H 	H 	0.97970 0.61070 0.87690 0.30600
H 	H 	0.92800 0.65390 0.90560 0.29600
C 	C 	0.81780 0.51420 0.59220 0.80700
C 	C 	0.88030 0.52340 0.59110 -1.14500
H 	H 	0.89370 0.53120 0.66670 0.33800
H 	H 	0.88940 0.55640 0.54350 0.34400
H 	H 	0.89950 0.48880 0.56260 0.34900
C 	C 	0.85850 0.71130 0.63460 0.67100
C 	C 	0.91070 0.72770 0.56950 -0.93900
H 	H 	0.90420 0.71910 0.49100 0.26900
H 	H 	0.94400 0.70570 0.59630 0.27100
H 	H 	0.91810 0.76900 0.57850 0.27600
C 	C 	0.77490 0.68140 0.97010 0.80700
C 	C 	0.76430 0.73260 0.03980 -1.20600
H 	H 	0.73160 0.72510 0.08910 0.34600
H 	H 	0.75550 0.76570 0.99240 0.36300
H 	H 	0.79870 0.74090 0.08410 0.33700
Mg	Mg	0.37017 0.45766 0.49990 1.48200
Mg	Mg	0.27393 0.54866 0.53960 1.49400
O 	O 	0.32586 0.40176 0.39230 -0.69700
O 	O 	0.27440 0.32900 0.32800 -0.72400
O 	O 	0.29593 0.46424 0.59940 -0.70300
O 	O 	0.22210 0.45000 0.70930 -0.60800
O 	O 	0.40930 0.39700 0.59120 -0.62200
O 	O 	0.50080 0.42490 0.58690 -0.61900
O 	O 	0.43941 0.46700 0.38470 -0.72900
O 	O 	0.38390 0.47340 0.23500 -0.60500
O 	O 	0.32680 0.52070 0.42220 -1.74500
H 	H 	0.34600 0.54000 0.41800 1.00900
C 	C 	0.32030 0.34990 0.37120 0.67500
C 	C 	0.37160 0.31000 0.39130 -0.97400
H 	H 	0.38310 0.31220 0.46940 0.28200
H 	H 	0.36070 0.27030 0.37310 0.28300
H 	H 	0.40390 0.32200 0.34440 0.27900
C 	C 	0.26420 0.43220 0.65780 0.80400
C 	C 	0.27340 0.36970 0.65890 -1.13800
H 	H 	0.28120 0.35630 0.58330 0.33400
H 	H 	0.30640 0.36060 0.70650 0.34000
H 	H 	0.23880 0.35050 0.68740 0.34400
C 	C 	0.46130 0.39150 0.61540 0.66500
C 	C 	0.47770 0.33930 0.68050 -0.92400
H 	H 	0.46910 0.34580 0.75900 0.26300
H 	H 	0.45570 0.30600 0.65370 0.25900
H 	H 	0.51900 0.33190 0.67150 0.26600
C 	C 	0.43140 0.47510 0.27990 0.70800
C 	C 	0.48260 0.48570 0.21020 -1.02400
H 	H 	0.47510 0.51840 0.16090 0.29300
H 	H 	0.51570 0.49450 0.25760 0.29700
H 	H 	0.49090 0.45130 0.16590 0.28500
Mg	Mg	0.87017 0.95766 0.99990 1.48600
Mg	Mg	0.77393 0.04866 0.03960 1.49000
O 	O 	0.82586 0.90176 0.89230 -0.68900
O 	O 	0.77440 0.82900 0.82800 -0.72500
O 	O 	0.79593 0.96424 0.09940 -0.68700
O 	O 	0.72210 0.95000 0.20930 -0.59200
O 	O 	0.90930 0.89700 0.09120 -0.62300
O 	O 	0.00080 0.92490 0.08690 -0.64700
O 	O 	0.93941 0.96700 0.88470 -0.67900
O 	O 	0.88390 0.97340 0.73500 -0.56400
O 	O 	0.82680 0.02070 0.92220 -1.76300
H 	H 	0.84600 0.04000 0.91800 1.02200
C 	C 	0.82030 0.84990 0.87120 0.68200
C 	C 	0.87160 0.81000 0.89130 -0.99400
H 	H 	0.88310 0.81220 0.96940 0.29700
H 	H 	0.86070 0.77030 0.87310 0.29200
H 	H 	0.90390 0.82200 0.84440 0.29300
C 	C 	0.76420 0.93220 0.15780 0.79300
C 	C 	0.77340 0.86970 0.15890 -1.11700
H 	H 	0.78120 0.85630 0.08330 0.32100
H 	H 	0.80640 0.86060 0.20650 0.33200
H 	H 	0.73880 0.85050 0.18740 0.33400
C 	C 	0.96130 0.89150 0.11540 0.67700
C 	C 	0.97770 0.83930 0.18050 -0.81000
H 	H 	0.96910 0.84580 0.25900 0.23800
H 	H 	0.95570 0.80600 0.15370 0.22800
H 	H 	0.01900 0.83190 0.17150 0.20600
C 	C 	0.93140 0.97510 0.77990 0.63400
C 	C 	0.98260 0.98570 0.71020 -0.77100
H 	H 	0.97510 0.01840 0.66090 0.21400
H 	H 	0.01570 0.99450 0.75760 0.21100
H 	H 	0.99090 0.95130 0.66590 0.23500
Mg	Mg	0.12983 0.54234 0.99990 1.48500
Mg	Mg	0.22607 0.45134 0.03960 1.49100
O 	O 	0.17414 0.59824 0.89230 -0.69100
O 	O 	0.22560 0.67100 0.82800 -0.72400
O 	O 	0.20407 0.53576 0.09940 -0.71200
O 	O 	0.27790 0.55000 0.20930 -0.61000
O 	O 	0.09070 0.60300 0.09120 -0.62900
O 	O 	0.99920 0.57510 0.08690 -0.58900
O 	O 	0.06059 0.53300 0.88470 -0.74300
O 	O 	0.11610 0.52660 0.73500 -0.61400
O 	O 	0.17320 0.47930 0.92220 -1.73500
H 	H 	0.15400 0.46000 0.91800 1.01000
C 	C 	0.17970 0.65010 0.87120 0.67700
C 	C 	0.12840 0.69000 0.89130 -0.97800
H 	H 	0.11690 0.68780 0.96940 0.28900
H 	H 	0.13930 0.72970 0.87310 0.28500
H 	H 	0.09610 0.67800 0.84440 0.27700
C 	C 	0.23580 0.56780 0.15780 0.79700
C 	C 	0.22660 0.63030 0.15890 -1.12100
H 	H 	0.21880 0.64370 0.08330 0.31900
H 	H 	0.19360 0.63940 0.20650 0.33100
H 	H 	0.26120 0.64950 0.18740 0.33400
C 	C 	0.03870 0.60850 0.11540 0.64000
C 	C 	0.02230 0.66070 0.18050 -1.01600
H 	H 	0.03090 0.65420 0.25900 0.27600
H 	H 	0.04430 0.69400 0.15370 0.27300
H 	H 	0.98100 0.66810 0.17150 0.31300
C 	C 	0.06860 0.52490 0.77990 0.75000
C 	C 	0.01740 0.51430 0.71020 -1.17000
H 	H 	0.02490 0.48160 0.66090 0.33000
H 	H 	0.98430 0.50550 0.75760 0.36500
H 	H 	0.00910 0.54870 0.66590 0.31700
Mg	Mg	0.62983 0.04234 0.49990 1.48000
Mg	Mg	0.72607 0.95134 0.53960 1.49500
O 	O 	0.67414 0.09824 0.39230 -0.70200
O 	O 	0.72560 0.17100 0.32800 -0.72500
O 	O 	0.70407 0.03576 0.59940 -0.72200
O 	O 	0.77790 0.05000 0.70930 -0.62100
O 	O 	0.59070 0.10300 0.59120 -0.62700
O 	O 	0.49920 0.07510 0.58690 -0.62800
O 	O 	0.56059 0.03300 0.38470 -0.75500
O 	O 	0.61610 0.02660 0.23500 -0.63600
O 	O 	0.67320 0.97930 0.42220 -1.71200
H 	H 	0.65400 0.96000 0.41800 0.99700
C 	C 	0.67970 0.15010 0.37120 0.67700
C 	C 	0.62840 0.19000 0.39130 -0.97600
H 	H 	0.61690 0.18780 0.46940 0.28300
H 	H 	0.63930 0.22970 0.37310 0.28400
H 	H 	0.59610 0.17800 0.34440 0.27900
C 	C 	0.73580 0.06780 0.65780 0.81000
C 	C 	0.72660 0.13030 0.65890 -1.14600
H 	H 	0.71880 0.14370 0.58330 0.33600
H 	H 	0.69360 0.13940 0.70650 0.34100
H 	H 	0.76120 0.14950 0.68740 0.34600
C 	C 	0.53870 0.10850 0.61540 0.66600
C 	C 	0.52230 0.16070 0.68050 -0.92500
H 	H 	0.53090 0.15420 0.75900 0.26200
H 	H 	0.54430 0.19400 0.65370 0.25900
H 	H 	0.48100 0.16810 0.67150 0.26600
C 	C 	0.56860 0.02490 0.27990 0.75800
C 	C 	0.51740 0.01430 0.21020 -1.19600
H 	H 	0.52490 0.98160 0.16090 0.37200
H 	H 	0.48430 0.00550 0.25760 0.33500
H 	H 	0.50910 0.04870 0.16590 0.32800
Mg	Mg	0.79234 0.12017 0.24990 1.48200
Mg	Mg	0.70134 0.02393 0.28960 1.49100
O 	O 	0.84824 0.07586 0.14230 -0.71100
O 	O 	0.92100 0.02440 0.07800 -0.74900
O 	O 	0.78576 0.04593 0.34940 -0.71100
O 	O 	0.80000 0.97210 0.45930 -0.58200
O 	O 	0.85300 0.15930 0.34120 -0.62500
O 	O 	0.82510 0.25080 0.33690 -0.62100
O 	O 	0.78300 0.18941 0.13470 -0.69700
O 	O 	0.77660 0.13390 0.98500 -0.53600
O 	O 	0.72930 0.07680 0.17220 -1.76900
H 	H 	0.71000 0.09600 0.16800 1.01700
C 	C 	0.90010 0.07030 0.12120 0.68000
C 	C 	0.94000 0.12160 0.14130 -0.99700
H 	H 	0.93780 0.13310 0.21940 0.29300
H 	H 	0.97970 0.11070 0.12310 0.29800
H 	H 	0.92800 0.15390 0.09440 0.28500
C 	C 	0.81780 0.01420 0.40780 0.79300
C 	C 	0.88030 0.02340 0.40890 -1.24500
H 	H 	0.89370 0.03120 0.33330 0.35900
H 	H 	0.88940 0.05640 0.45650 0.36800
H 	H 	0.89950 0.98880 0.43740 0.40100
C 	C 	0.85850 0.21130 0.36540 0.67100
C 	C 	0.91070 0.22770 0.43050 -0.93900
H 	H 	0.90420 0.21910 0.50900 0.26900
H 	H 	0.94400 0.20570 0.40370 0.27000
H 	H 	0.91810 0.26900 0.42150 0.27600
C 	C 	0.77490 0.18140 0.02990 0.57200
C 	C 	0.76430 0.23260 0.96020 -0.78000
H 	H 	0.73160 0.22510 0.91090 0.23500
H 	H 	0.75550 0.26570 0.00760 0.20900
H 	H 	0.79870 0.24090 0.91590 0.22800
Mg	Mg	0.29234 0.62017 0.74990 1.48200
Mg	Mg	0.20134 0.52393 0.78960 1.49400
O 	O 	0.34824 0.57586 0.64230 -0.69700
O 	O 	0.42100 0.52440 0.57800 -0.72400
O 	O 	0.28576 0.54593 0.84940 -0.70200
O 	O 	0.30000 0.47210 0.95930 -0.59900
O 	O 	0.35300 0.65930 0.84120 -0.61200
O 	O 	0.32510 0.75080 0.83690 -0.61000
O 	O 	0.28300 0.68941 0.63470 -0.73000
O 	O 	0.27660 0.63390 0.48500 -0.60200
O 	O 	0.22930 0.57680 0.67220 -1.74500
H 	H 	0.21000 0.59600 0.66800 1.00900
C 	C 	0.40010 0.57030 0.62120 0.67600
C 	C 	0.44000 0.62160 0.64130 -0.97700
H 	H 	0.43780 0.63310 0.71940 0.28400
H 	H 	0.47970 0.61070 0.62310 0.28500
H 	H 	0.42800 0.65390 0.59440 0.28100
C 	C 	0.31780 0.51420 0.90780 0.80900
C 	C 	0.38030 0.52340 0.90890 -1.14600
H 	H 	0.39370 0.53120 0.83330 0.33700
H 	H 	0.38940 0.55640 0.95650 0.34700
H 	H 	0.39950 0.48880 0.93740 0.35100
C 	C 	0.35850 0.71130 0.86540 0.63900
C 	C 	0.41070 0.72770 0.93050 -0.83200
H 	H 	0.40420 0.71910 0.00900 0.21800
H 	H 	0.44400 0.70570 0.90370 0.23700
H 	H 	0.41810 0.76900 0.92150 0.24500
C 	C 	0.27490 0.68140 0.52990 0.71100
C 	C 	0.26430 0.73260 0.46020 -1.03100
H 	H 	0.23160 0.72510 0.41090 0.29900
H 	H 	0.25550 0.76570 0.50760 0.30000
H 	H 	0.29870 0.74090 0.41590 0.29100
Mg	Mg	0.70766 0.87983 0.74990 1.48200
Mg	Mg	0.79866 0.97607 0.78960 1.49600
O 	O 	0.65176 0.92414 0.64230 -0.69100
O 	O 	0.57900 0.97560 0.57800 -0.70500
O 	O 	0.71424 0.95407 0.84940 -0.69700
O 	O 	0.70000 0.02790 0.95930 -0.61800
O 	O 	0.64700 0.84070 0.84120 -0.61300
O 	O 	0.67490 0.74920 0.83690 -0.61100
O 	O 	0.71700 0.81059 0.63470 -0.73000
O 	O 	0.72340 0.86610 0.48500 -0.60000
O 	O 	0.77070 0.92320 0.67220 -1.73500
H 	H 	0.79000 0.90400 0.66800 1.00500
C 	C 	0.59990 0.92970 0.62120 0.67300
C 	C 	0.56000 0.87840 0.64130 -0.97200
H 	H 	0.56220 0.86690 0.71940 0.28300
H 	H 	0.52030 0.88930 0.62310 0.28300
H 	H 	0.57200 0.84610 0.59440 0.27900
C 	C 	0.68220 0.98580 0.90780 0.81700
C 	C 	0.61970 0.97660 0.90890 -1.06800
H 	H 	0.60630 0.96880 0.83330 0.32100
H 	H 	0.61060 0.94360 0.95650 0.32700
H 	H 	0.60050 0.01120 0.93740 0.31100
C 	C 	0.64150 0.78870 0.86540 0.64100
C 	C 	0.58930 0.77230 0.93050 -0.84200
H 	H 	0.59580 0.78090 0.00900 0.22200
H 	H 	0.55600 0.79430 0.90370 0.24000
H 	H 	0.58190 0.73100 0.92150 0.24700
C 	C 	0.72510 0.81860 0.52990 0.71200
C 	C 	0.73570 0.76740 0.46020 -1.03300
H 	H 	0.76840 0.77490 0.41090 0.30100
H 	H 	0.74450 0.73430 0.50760 0.30000
H 	H 	0.70130 0.75910 0.41590 0.29200
Mg	Mg	0.20766 0.37983 0.24990 1.48200
Mg	Mg	0.29866 0.47607 0.28960 1.49400
O 	O 	0.15176 0.42414 0.14230 -0.70000
O 	O 	0.07900 0.47560 0.07800 -0.73500
O 	O 	0.21424 0.45407 0.34940 -0.70100
O 	O 	0.20000 0.52790 0.45930 -0.60700
O 	O 	0.14700 0.34070 0.34120 -0.62100
O 	O 	0.17490 0.24920 0.33690 -0.61800
O 	O 	0.21700 0.31059 0.13470 -0.69600
O 	O 	0.22340 0.36610 0.98500 -0.53400
O 	O 	0.27070 0.42320 0.17220 -1.75300
H 	H 	0.29000 0.40400 0.16800 1.01000
C 	C 	0.09990 0.42970 0.12120 0.66400
C 	C 	0.06000 0.37840 0.14130 -0.94600
H 	H 	0.06220 0.36690 0.21940 0.26800
H 	H 	0.02030 0.38930 0.12310 0.25800
H 	H 	0.07200 0.34610 0.09440 0.26100
C 	C 	0.18220 0.48580 0.40780 0.79900
C 	C 	0.11970 0.47660 0.40890 -1.12200
H 	H 	0.10630 0.46880 0.33330 0.32700
H 	H 	0.11060 0.44360 0.45650 0.33000
H 	H 	0.10050 0.51120 0.43740 0.33300
C 	C 	0.14150 0.28870 0.36540 0.65400
C 	C 	0.08930 0.27230 0.43050 -0.89600
H 	H 	0.09580 0.28090 0.50900 0.24800
H 	H 	0.05600 0.29430 0.40370 0.24100
H 	H 	0.08190 0.23100 0.42150 0.25000
C 	C 	0.22510 0.31860 0.02990 0.56800
C 	C 	0.23570 0.26740 0.96020 -0.76500
H 	H 	0.26840 0.27490 0.91090 0.23100
H 	H 	0.24450 0.23430 0.00760 0.20300
H 	H 	0.20130 0.25910 0.91590 0.22400
Mg	Mg	0.50000 0.50000 0.50000 1.47600
Mg	Mg	-0.00000 0.00000 -0.00000 1.46600
Mg	Mg	-0.00000 0.50000 -0.00000 1.47000
Mg	Mg	0.50000 0.00000 0.50000 1.47300
Mg	Mg	0.25000 0.75000 0.75000 1.47600
Mg	Mg	0.25000 0.25000 0.25000 1.47600
Mg	Mg	0.75000 0.25000 0.25000 1.47600
Mg	Mg	0.75000 0.75000 0.75000 1.47600
