data_crystal

_cell_length_a 9.63670
_cell_length_b 10.17600
_cell_length_c 12.61640
_cell_angle_alpha 86.30200
_cell_angle_beta  68.88000
_cell_angle_gamma 61.80000

_symmetry_space_group_name_	'P 1'
_symmetry_space_group_name_H-M	'P 1'

loop_
_symmetry_equiv_pos_as_xyz
  x,y,z

loop_
_atom_site_label
_atom_site_type_symbol
_atom_site_fract_x
_atom_site_fract_y
_atom_site_fract_z
_atom_site_charge
Fe	Fe	0.09655 0.15034 0.33713 1.26000
Fe	Fe	0.86291 0.92271 0.16702 1.25500
Fe	Fe	0.26192 0.23158 0.57679 1.20000
P 	P 	0.47679 0.02234 0.32227 0.53500
P 	P 	0.89140 0.96335 0.41685 0.54200
P 	P 	0.00401 0.16191 0.11181 0.53600
O 	O 	0.61580 0.02560 0.21480 -0.33800
O 	O 	0.34040 0.02890 0.28150 -0.34900
O 	O 	0.40880 0.15650 0.40890 -0.39100
O 	O 	0.53920 0.87330 0.37260 -0.41200
O 	O 	0.04190 0.98630 0.35090 -0.35000
O 	O 	0.92580 0.84910 0.50050 -0.42700
O 	O 	0.83710 0.90690 0.33660 -0.49800
O 	O 	0.73910 0.12090 0.48100 -0.37600
H 	H 	0.63580 0.13480 0.52560 0.25100
O 	O 	0.11430 0.07890 0.99220 -0.37400
O 	O 	0.87640 0.10770 0.17600 -0.34500
O 	O 	0.11870 0.14980 0.17380 -0.34400
O 	O 	0.88900 0.33410 0.10870 -0.31000
H 	H 	0.93520 0.40170 0.10530 0.23100
O 	O 	0.13350 0.33760 0.32690 -0.31700
O 	O 	0.98650 0.58800 0.37080 -0.33900
O 	O 	0.84920 0.32450 0.38680 -0.28700
O 	O 	0.69680 0.57210 0.44100 -0.28400
O 	O 	0.87310 0.71490 0.16660 -0.36400
O 	O 	0.06150 0.47120 0.10790 -0.21400
O 	O 	0.11640 0.78190 0.12910 -0.30200
O 	O 	0.30790 0.54040 0.10190 -0.12800
C 	C 	0.99960 0.46030 0.36420 0.23900
C 	C 	0.83220 0.45310 0.40200 0.22000
C 	C 	0.02080 0.60310 0.13100 0.25300
C 	C 	0.16330 0.64270 0.11840 0.22700
Fe	Fe	0.90345 0.84966 0.66287 1.26000
Fe	Fe	0.13709 0.07729 0.83298 1.25500
Fe	Fe	0.73808 0.76842 0.42321 1.20000
P 	P 	0.52321 0.97766 0.67773 0.53500
P 	P 	0.10860 0.03665 0.58315 0.54200
P 	P 	0.99599 0.83809 0.88819 0.53600
O 	O 	0.38420 0.97440 0.78520 -0.33800
O 	O 	0.65960 0.97110 0.71850 -0.34900
O 	O 	0.59120 0.84350 0.59110 -0.39100
O 	O 	0.46080 0.12670 0.62740 -0.41200
O 	O 	0.95810 0.01370 0.64910 -0.35000
O 	O 	0.07420 0.15090 0.49950 -0.42700
O 	O 	0.16290 0.09310 0.66340 -0.49800
O 	O 	0.26090 0.87910 0.51900 -0.37600
H 	H 	0.36420 0.86520 0.47440 0.25100
O 	O 	0.88570 0.92110 0.00780 -0.37400
O 	O 	0.12360 0.89230 0.82400 -0.34500
O 	O 	0.88130 0.85020 0.82620 -0.34400
O 	O 	0.11100 0.66590 0.89130 -0.31000
H 	H 	0.06480 0.59830 0.89470 0.23100
O 	O 	0.86650 0.66240 0.67310 -0.31700
O 	O 	0.01350 0.41200 0.62920 -0.33900
O 	O 	0.15080 0.67550 0.61320 -0.28700
O 	O 	0.30320 0.42790 0.55900 -0.28400
O 	O 	0.12690 0.28510 0.83340 -0.36400
O 	O 	0.93850 0.52880 0.89210 -0.21400
O 	O 	0.88360 0.21810 0.87090 -0.30200
O 	O 	0.69210 0.45960 0.89810 -0.12800
C 	C 	0.00040 0.53970 0.63580 0.23900
C 	C 	0.16780 0.54690 0.59800 0.22000
C 	C 	0.97920 0.39690 0.86900 0.25300
C 	C 	0.83670 0.35730 0.88160 0.22700
