data_crystal

_cell_length_a 14.34900
_cell_length_b 12.08800
_cell_length_c 26.62000
_cell_angle_alpha 90.00000
_cell_angle_beta  97.25500
_cell_angle_gamma 90.00000

_symmetry_space_group_name_	'P 1'
_symmetry_space_group_name_H-M	'P 1'

loop_
_symmetry_equiv_pos_as_xyz
  x,y,z

loop_
_atom_site_label
_atom_site_type_symbol
_atom_site_fract_x
_atom_site_fract_y
_atom_site_fract_z
_atom_site_charge
Co	Co	0.15946 0.21171 0.30730 1.16800
Co	Co	0.64194 0.83762 0.78506 1.17100
C 	C 	0.08580 0.02860 0.23080 0.10900
H 	H 	0.11930 0.98270 0.25460 -0.01400
C 	C 	0.04560 0.98180 0.18610 -0.18500
H 	H 	0.05200 0.90670 0.17980 0.11300
C 	C 	0.99530 0.05060 0.15060 0.12400
C 	C 	0.98380 0.16300 0.16300 -0.17000
H 	H 	0.94830 0.21010 0.14060 0.09600
C 	C 	0.02620 0.20090 0.20860 0.09100
H 	H 	0.01780 0.27460 0.21710 -0.00600
C 	C 	0.95700 0.00590 0.10000 -0.04700
H 	H 	0.95550 0.92970 0.09510 0.06600
C 	C 	0.85800 0.06550 0.98300 -0.04700
H 	H 	0.85960 0.14220 0.98570 0.05800
C 	C 	0.81640 0.01220 0.93650 0.12800
C 	C 	0.81030 0.89980 0.93000 -0.16900
H 	H 	0.83740 0.85330 0.95560 0.10200
C 	C 	0.76480 0.85470 0.88630 0.09900
H 	H 	0.76210 0.77810 0.88310 -0.00300
C 	C 	0.73150 0.02670 0.85250 0.10100
H 	H 	0.70600 0.07100 0.82570 -0.00200
C 	C 	0.77640 0.07710 0.89590 -0.16700
H 	H 	0.77990 0.15380 0.89790 0.08500
C 	C 	0.24620 0.40060 0.37680 0.09300
H 	H 	0.21990 0.44480 0.35010 -0.00000
C 	C 	0.29140 0.45150 0.41890 -0.15900
H 	H 	0.29370 0.52830 0.42080 0.09500
C 	C 	0.33360 0.38830 0.45840 0.11200
C 	C 	0.32620 0.27210 0.45380 -0.16000
H 	H 	0.35320 0.22640 0.47980 0.08500
C 	C 	0.27850 0.22740 0.41050 0.08900
H 	H 	0.27430 0.15080 0.40760 -0.00100
C 	C 	0.38310 0.43680 0.50530 -0.03200
H 	H 	0.41240 0.38960 0.53000 0.05800
C 	C 	0.42810 0.65950 0.57440 -0.04700
H 	H 	0.39420 0.70920 0.55250 0.05400
C 	C 	0.47090 0.69790 0.62520 0.12300
C 	C 	0.52320 0.62470 0.65750 -0.17500
H 	H 	0.52900 0.55100 0.64840 0.11300
C 	C 	0.56660 0.66340 0.70350 0.10000
H 	H 	0.60380 0.61480 0.72440 -0.01000
C 	C 	0.50280 0.83480 0.68930 0.10400
H 	H 	0.49350 0.90650 0.70030 -0.00800
C 	C 	0.45890 0.80340 0.64220 -0.18400
H 	H 	0.42150 0.85350 0.62220 0.08900
C 	C 	0.30230 0.01660 0.29580 0.40900
C 	C 	0.31390 0.90930 0.32650 -0.16900
H 	H 	0.25850 0.90110 0.34420 0.09100
C 	C 	0.40120 0.91910 0.36700 -0.04600
H 	H 	0.45640 0.93330 0.35040 0.05800
H 	H 	0.39290 0.98120 0.38910 0.04300
C 	C 	0.41640 0.81390 0.39860 -0.09200
H 	H 	0.47480 0.82070 0.42120 0.06000
H 	H 	0.36580 0.80660 0.41930 0.05600
C 	C 	0.42040 0.70980 0.36680 -0.08700
H 	H 	0.41960 0.64620 0.38960 0.06000
C 	C 	0.33180 0.70300 0.32790 -0.11300
H 	H 	0.27700 0.69460 0.34550 0.06200
H 	H 	0.33580 0.63860 0.30660 0.06800
C 	C 	0.32130 0.80740 0.29500 -0.02600
H 	H 	0.37510 0.81410 0.27650 0.05300
H 	H 	0.26540 0.80090 0.27050 0.03300
C 	C 	0.50970 0.69860 0.33860 0.31200
C 	C 	0.21010 0.35680 0.22710 0.37900
C 	C 	0.19520 0.45860 0.19260 -0.14500
H 	H 	0.25400 0.47280 0.17850 0.08200
C 	C 	0.11720 0.43440 0.14740 -0.06800
H 	H 	0.13330 0.36800 0.12990 0.05200
H 	H 	0.05790 0.42140 0.16040 0.06400
C 	C 	0.10660 0.53080 0.11050 -0.07000
H 	H 	0.05510 0.51530 0.08420 0.05600
H 	H 	0.16350 0.53680 0.09440 0.04800
C 	C 	0.08830 0.64190 0.13520 -0.11600
H 	H 	0.09790 0.70010 0.11080 0.06500
C 	C 	0.16080 0.66060 0.18230 -0.08400
H 	H 	0.22190 0.67450 0.17150 0.05100
H 	H 	0.14320 0.72580 0.20010 0.05700
C 	C 	0.16840 0.56310 0.21810 -0.05200
H 	H 	0.21510 0.57900 0.24680 0.04300
H 	H 	0.10850 0.55210 0.23080 0.06200
C 	C 	0.98960 0.65250 0.14750 0.31000
N 	N 	0.07980 0.13540 0.24202 -0.23700
N 	N 	0.92670 0.06880 0.06362 -0.07400
N 	N 	0.89290 0.00370 0.02061 -0.07000
N 	N 	0.72380 0.91770 0.84792 -0.22900
N 	N 	0.23760 0.29000 0.37183 -0.22900
N 	N 	0.38690 0.53890 0.51308 -0.07500
N 	N 	0.43660 0.56140 0.56050 -0.07200
N 	N 	0.55740 0.76770 0.71934 -0.23700
O 	O 	0.25850 0.09320 0.31421 -0.47800
O 	O 	0.34090 0.02300 0.25662 -0.45000
O 	O 	0.57460 0.76760 0.34540 -0.35100
O 	O 	0.51450 0.61870 0.31018 -0.40000
O 	O 	0.25860 0.27890 0.21225 -0.47300
O 	O 	0.16990 0.35380 0.26677 -0.43600
O 	O 	0.96820 0.74530 0.16760 -0.39900
O 	O 	0.93000 0.57880 0.14190 -0.33000
Co	Co	0.84054 0.71171 0.19270 1.16700
Co	Co	0.35806 0.33762 0.71494 1.17000
C 	C 	0.91420 0.52860 0.26920 0.10900
H 	H 	0.88070 0.48270 0.24540 -0.01600
C 	C 	0.95440 0.48180 0.31390 -0.18700
H 	H 	0.94800 0.40670 0.32020 0.11300
C 	C 	0.00470 0.55060 0.34940 0.12300
C 	C 	0.01620 0.66300 0.33700 -0.17200
H 	H 	0.05170 0.71010 0.35940 0.09600
C 	C 	0.97380 0.70090 0.29140 0.09200
H 	H 	0.98220 0.77460 0.28290 -0.00600
C 	C 	0.04300 0.50590 0.40000 -0.04700
H 	H 	0.04450 0.42970 0.40490 0.06700
C 	C 	0.14200 0.56550 0.51700 -0.04700
H 	H 	0.14040 0.64220 0.51430 0.05800
C 	C 	0.18360 0.51220 0.56350 0.12700
C 	C 	0.18970 0.39980 0.57000 -0.16800
H 	H 	0.16260 0.35330 0.54440 0.10200
C 	C 	0.23520 0.35470 0.61370 0.09800
H 	H 	0.23790 0.27810 0.61690 -0.00300
C 	C 	0.26850 0.52670 0.64750 0.10100
H 	H 	0.29400 0.57100 0.67430 -0.00200
C 	C 	0.22360 0.57710 0.60410 -0.16700
H 	H 	0.22010 0.65380 0.60210 0.08500
C 	C 	0.75380 0.90060 0.12320 0.09300
H 	H 	0.78010 0.94480 0.14990 -0.00000
C 	C 	0.70860 0.95150 0.08110 -0.15900
H 	H 	0.70630 0.02830 0.07920 0.09600
C 	C 	0.66640 0.88830 0.04160 0.11300
C 	C 	0.67380 0.77210 0.04620 -0.16000
H 	H 	0.64680 0.72640 0.02020 0.08500
C 	C 	0.72150 0.72740 0.08950 0.08900
H 	H 	0.72570 0.65080 0.09240 -0.00100
C 	C 	0.61690 0.93680 0.99470 -0.03200
H 	H 	0.58760 0.88960 0.97000 0.05800
C 	C 	0.57190 0.15950 0.92560 -0.04700
H 	H 	0.60580 0.20920 0.94750 0.05400
C 	C 	0.52910 0.19790 0.87480 0.12300
C 	C 	0.47680 0.12470 0.84250 -0.17500
H 	H 	0.47100 0.05100 0.85160 0.11300
C 	C 	0.43340 0.16340 0.79650 0.10000
H 	H 	0.39620 0.11480 0.77560 -0.01000
C 	C 	0.49720 0.33480 0.81070 0.10400
H 	H 	0.50650 0.40650 0.79970 -0.00800
C 	C 	0.54110 0.30340 0.85780 -0.18400
H 	H 	0.57850 0.35350 0.87780 0.08900
C 	C 	0.69770 0.51660 0.20420 0.40900
C 	C 	0.68610 0.40930 0.17350 -0.16900
H 	H 	0.74150 0.40110 0.15580 0.09100
C 	C 	0.59880 0.41910 0.13300 -0.04600
H 	H 	0.54360 0.43330 0.14960 0.05800
H 	H 	0.60710 0.48120 0.11090 0.04300
C 	C 	0.58360 0.31390 0.10140 -0.09200
H 	H 	0.52520 0.32070 0.07880 0.06000
H 	H 	0.63420 0.30660 0.08070 0.05600
C 	C 	0.57960 0.20980 0.13320 -0.08700
H 	H 	0.58040 0.14620 0.11040 0.06000
C 	C 	0.66820 0.20300 0.17210 -0.11300
H 	H 	0.72300 0.19460 0.15450 0.06200
H 	H 	0.66420 0.13860 0.19340 0.06800
C 	C 	0.67870 0.30740 0.20500 -0.02600
H 	H 	0.62490 0.31410 0.22350 0.05300
H 	H 	0.73460 0.30090 0.22950 0.03300
C 	C 	0.49030 0.19860 0.16140 0.31200
C 	C 	0.78990 0.85680 0.27290 0.37900
C 	C 	0.80480 0.95860 0.30740 -0.14500
H 	H 	0.74600 0.97280 0.32150 0.08200
C 	C 	0.88280 0.93440 0.35260 -0.06800
H 	H 	0.86670 0.86800 0.37010 0.05200
H 	H 	0.94210 0.92140 0.33960 0.06400
C 	C 	0.89340 0.03080 0.38950 -0.07000
H 	H 	0.94490 0.01530 0.41580 0.05600
H 	H 	0.83650 0.03680 0.40560 0.04800
C 	C 	0.91170 0.14190 0.36480 -0.11600
H 	H 	0.90210 0.20010 0.38920 0.06500
C 	C 	0.83920 0.16060 0.31770 -0.08500
H 	H 	0.77810 0.17450 0.32850 0.05100
H 	H 	0.85680 0.22580 0.29990 0.05700
C 	C 	0.83160 0.06310 0.28190 -0.05200
H 	H 	0.78490 0.07900 0.25320 0.04300
H 	H 	0.89150 0.05210 0.26920 0.06200
C 	C 	0.01040 0.15250 0.35250 0.30900
N 	N 	0.92020 0.63540 0.25798 -0.23700
N 	N 	0.07330 0.56880 0.43638 -0.07400
N 	N 	0.10710 0.50370 0.47939 -0.07000
N 	N 	0.27620 0.41770 0.65208 -0.22900
N 	N 	0.76240 0.79000 0.12817 -0.22900
N 	N 	0.61310 0.03890 0.98692 -0.07500
N 	N 	0.56340 0.06140 0.93950 -0.07200
N 	N 	0.44260 0.26770 0.78066 -0.23700
O 	O 	0.74150 0.59320 0.18579 -0.47800
O 	O 	0.65910 0.52300 0.24338 -0.45000
O 	O 	0.42540 0.26760 0.15460 -0.35100
O 	O 	0.48550 0.11870 0.18982 -0.40000
O 	O 	0.74140 0.77890 0.28775 -0.47300
O 	O 	0.83010 0.85380 0.23323 -0.43600
O 	O 	0.03180 0.24530 0.33240 -0.39900
O 	O 	0.07000 0.07880 0.35810 -0.33000
Co	Co	0.84054 0.78829 0.69270 1.16700
Co	Co	0.35806 0.16238 0.21494 1.17000
C 	C 	0.91420 0.97140 0.76920 0.10800
H 	H 	0.88070 0.01730 0.74540 -0.01500
C 	C 	0.95440 0.01820 0.81390 -0.18600
H 	H 	0.94800 0.09330 0.82020 0.11200
C 	C 	0.00470 0.94940 0.84940 0.12300
C 	C 	0.01620 0.83700 0.83700 -0.17100
H 	H 	0.05170 0.78990 0.85940 0.09600
C 	C 	0.97380 0.79910 0.79140 0.09100
H 	H 	0.98220 0.72540 0.78290 -0.00600
C 	C 	0.04300 0.99410 0.90000 -0.04700
H 	H 	0.04450 0.07030 0.90490 0.06600
C 	C 	0.14200 0.93450 0.01700 -0.04700
H 	H 	0.14040 0.85780 0.01430 0.05800
C 	C 	0.18360 0.98780 0.06350 0.12800
C 	C 	0.18970 0.10020 0.07000 -0.16900
H 	H 	0.16260 0.14670 0.04440 0.10200
C 	C 	0.23520 0.14530 0.11370 0.09900
H 	H 	0.23790 0.22190 0.11690 -0.00300
C 	C 	0.26850 0.97330 0.14750 0.10100
H 	H 	0.29400 0.92900 0.17430 -0.00200
C 	C 	0.22360 0.92290 0.10410 -0.16700
H 	H 	0.22010 0.84620 0.10210 0.08500
C 	C 	0.75380 0.59940 0.62320 0.09300
H 	H 	0.78010 0.55520 0.64990 -0.00000
C 	C 	0.70860 0.54850 0.58110 -0.15900
H 	H 	0.70630 0.47170 0.57920 0.09500
C 	C 	0.66640 0.61170 0.54160 0.11200
C 	C 	0.67380 0.72790 0.54620 -0.16000
H 	H 	0.64680 0.77360 0.52020 0.08500
C 	C 	0.72150 0.77260 0.58950 0.08900
H 	H 	0.72570 0.84920 0.59240 -0.00100
C 	C 	0.61690 0.56320 0.49470 -0.03200
H 	H 	0.58760 0.61040 0.47000 0.05800
C 	C 	0.57190 0.34050 0.42560 -0.04700
H 	H 	0.60580 0.29080 0.44750 0.05400
C 	C 	0.52910 0.30210 0.37480 0.12300
C 	C 	0.47680 0.37530 0.34250 -0.17500
H 	H 	0.47100 0.44900 0.35160 0.11300
C 	C 	0.43340 0.33660 0.29650 0.10000
H 	H 	0.39620 0.38520 0.27560 -0.01000
C 	C 	0.49720 0.16520 0.31070 0.10400
H 	H 	0.50650 0.09350 0.29970 -0.00800
C 	C 	0.54110 0.19660 0.35780 -0.18400
H 	H 	0.57850 0.14650 0.37780 0.08900
C 	C 	0.69770 0.98340 0.70420 0.40900
C 	C 	0.68610 0.09070 0.67350 -0.16900
H 	H 	0.74150 0.09890 0.65580 0.09100
C 	C 	0.59880 0.08090 0.63300 -0.04600
H 	H 	0.54360 0.06670 0.64960 0.05800
H 	H 	0.60710 0.01880 0.61090 0.04300
C 	C 	0.58360 0.18610 0.60140 -0.09200
H 	H 	0.52520 0.17930 0.57880 0.06000
H 	H 	0.63420 0.19340 0.58070 0.05600
C 	C 	0.57960 0.29020 0.63320 -0.08700
H 	H 	0.58040 0.35380 0.61040 0.06000
C 	C 	0.66820 0.29700 0.67210 -0.11300
H 	H 	0.72300 0.30540 0.65450 0.06200
H 	H 	0.66420 0.36140 0.69340 0.06800
C 	C 	0.67870 0.19260 0.70500 -0.02600
H 	H 	0.62490 0.18590 0.72350 0.05300
H 	H 	0.73460 0.19910 0.72950 0.03300
C 	C 	0.49030 0.30140 0.66140 0.31200
C 	C 	0.78990 0.64320 0.77290 0.37900
C 	C 	0.80480 0.54140 0.80740 -0.14500
H 	H 	0.74600 0.52720 0.82150 0.08200
C 	C 	0.88280 0.56560 0.85260 -0.06800
H 	H 	0.86670 0.63200 0.87010 0.05200
H 	H 	0.94210 0.57860 0.83960 0.06400
C 	C 	0.89340 0.46920 0.88950 -0.07000
H 	H 	0.94490 0.48470 0.91580 0.05600
H 	H 	0.83650 0.46320 0.90560 0.04800
C 	C 	0.91170 0.35810 0.86480 -0.11600
H 	H 	0.90210 0.29990 0.88920 0.06500
C 	C 	0.83920 0.33940 0.81770 -0.08400
H 	H 	0.77810 0.32550 0.82850 0.05100
H 	H 	0.85680 0.27420 0.79990 0.05700
C 	C 	0.83160 0.43690 0.78190 -0.05200
H 	H 	0.78490 0.42100 0.75320 0.04300
H 	H 	0.89150 0.44790 0.76920 0.06200
C 	C 	0.01040 0.34750 0.85250 0.31000
N 	N 	0.92020 0.86460 0.75798 -0.23700
N 	N 	0.07330 0.93120 0.93638 -0.07400
N 	N 	0.10710 0.99630 0.97939 -0.07000
N 	N 	0.27620 0.08230 0.15208 -0.22900
N 	N 	0.76240 0.71000 0.62817 -0.22900
N 	N 	0.61310 0.46110 0.48692 -0.07500
N 	N 	0.56340 0.43860 0.43950 -0.07200
N 	N 	0.44260 0.23230 0.28066 -0.23700
O 	O 	0.74150 0.90680 0.68579 -0.47800
O 	O 	0.65910 0.97700 0.74338 -0.45000
O 	O 	0.42540 0.23240 0.65460 -0.35100
O 	O 	0.48550 0.38130 0.68982 -0.40000
O 	O 	0.74140 0.72110 0.78775 -0.47300
O 	O 	0.83010 0.64620 0.73323 -0.43600
O 	O 	0.03180 0.25470 0.83240 -0.39900
O 	O 	0.07000 0.42120 0.85810 -0.33000
Co	Co	0.15946 0.28829 0.80730 1.16700
Co	Co	0.64194 0.66238 0.28506 1.17000
C 	C 	0.08580 0.47140 0.73080 0.10900
H 	H 	0.11930 0.51730 0.75460 -0.01600
C 	C 	0.04560 0.51820 0.68610 -0.18700
H 	H 	0.05200 0.59330 0.67980 0.11300
C 	C 	0.99530 0.44940 0.65060 0.12300
C 	C 	0.98380 0.33700 0.66300 -0.17200
H 	H 	0.94830 0.28990 0.64060 0.09600
C 	C 	0.02620 0.29910 0.70860 0.09200
H 	H 	0.01780 0.22540 0.71710 -0.00600
C 	C 	0.95700 0.49410 0.60000 -0.04700
H 	H 	0.95550 0.57030 0.59510 0.06700
C 	C 	0.85800 0.43450 0.48300 -0.04700
H 	H 	0.85960 0.35780 0.48570 0.05800
C 	C 	0.81640 0.48780 0.43650 0.12700
C 	C 	0.81030 0.60020 0.43000 -0.16800
H 	H 	0.83740 0.64670 0.45560 0.10200
C 	C 	0.76480 0.64530 0.38630 0.09800
H 	H 	0.76210 0.72190 0.38310 -0.00300
C 	C 	0.73150 0.47330 0.35250 0.10100
H 	H 	0.70600 0.42900 0.32570 -0.00200
C 	C 	0.77640 0.42290 0.39590 -0.16700
H 	H 	0.77990 0.34620 0.39790 0.08500
C 	C 	0.24620 0.09940 0.87680 0.09300
H 	H 	0.21990 0.05520 0.85010 -0.00000
C 	C 	0.29140 0.04850 0.91890 -0.15900
H 	H 	0.29370 0.97170 0.92080 0.09600
C 	C 	0.33360 0.11170 0.95840 0.11300
C 	C 	0.32620 0.22790 0.95380 -0.16000
H 	H 	0.35320 0.27360 0.97980 0.08500
C 	C 	0.27850 0.27260 0.91050 0.08900
H 	H 	0.27430 0.34920 0.90760 -0.00100
C 	C 	0.38310 0.06320 0.00530 -0.03200
H 	H 	0.41240 0.11040 0.03000 0.05800
C 	C 	0.42810 0.84050 0.07440 -0.04700
H 	H 	0.39420 0.79080 0.05250 0.05400
C 	C 	0.47090 0.80210 0.12520 0.12300
C 	C 	0.52320 0.87530 0.15750 -0.17500
H 	H 	0.52900 0.94900 0.14840 0.11300
C 	C 	0.56660 0.83660 0.20350 0.10000
H 	H 	0.60380 0.88520 0.22440 -0.01000
C 	C 	0.50280 0.66520 0.18930 0.10400
H 	H 	0.49350 0.59350 0.20030 -0.00800
C 	C 	0.45890 0.69660 0.14220 -0.18400
H 	H 	0.42150 0.64650 0.12220 0.08900
C 	C 	0.30230 0.48340 0.79580 0.40900
C 	C 	0.31390 0.59070 0.82650 -0.16900
H 	H 	0.25850 0.59890 0.84420 0.09100
C 	C 	0.40120 0.58090 0.86700 -0.04600
H 	H 	0.45640 0.56670 0.85040 0.05800
H 	H 	0.39290 0.51880 0.88910 0.04300
C 	C 	0.41640 0.68610 0.89860 -0.09200
H 	H 	0.47480 0.67930 0.92120 0.06000
H 	H 	0.36580 0.69340 0.91930 0.05600
C 	C 	0.42040 0.79020 0.86680 -0.08700
H 	H 	0.41960 0.85380 0.88960 0.06000
C 	C 	0.33180 0.79700 0.82790 -0.11300
H 	H 	0.27700 0.80540 0.84550 0.06200
H 	H 	0.33580 0.86140 0.80660 0.06800
C 	C 	0.32130 0.69260 0.79500 -0.02600
H 	H 	0.37510 0.68590 0.77650 0.05300
H 	H 	0.26540 0.69910 0.77050 0.03300
C 	C 	0.50970 0.80140 0.83860 0.31200
C 	C 	0.21010 0.14320 0.72710 0.37900
C 	C 	0.19520 0.04140 0.69260 -0.14500
H 	H 	0.25400 0.02720 0.67850 0.08200
C 	C 	0.11720 0.06560 0.64740 -0.06800
H 	H 	0.13330 0.13200 0.62990 0.05200
H 	H 	0.05790 0.07860 0.66040 0.06400
C 	C 	0.10660 0.96920 0.61050 -0.07000
H 	H 	0.05510 0.98470 0.58420 0.05600
H 	H 	0.16350 0.96320 0.59440 0.04800
C 	C 	0.08830 0.85810 0.63520 -0.11600
H 	H 	0.09790 0.79990 0.61080 0.06500
C 	C 	0.16080 0.83940 0.68230 -0.08500
H 	H 	0.22190 0.82550 0.67150 0.05100
H 	H 	0.14320 0.77420 0.70010 0.05700
C 	C 	0.16840 0.93690 0.71810 -0.05200
H 	H 	0.21510 0.92100 0.74680 0.04300
H 	H 	0.10850 0.94790 0.73080 0.06200
C 	C 	0.98960 0.84750 0.64750 0.30900
N 	N 	0.07980 0.36460 0.74202 -0.23700
N 	N 	0.92670 0.43120 0.56362 -0.07400
N 	N 	0.89290 0.49630 0.52061 -0.07000
N 	N 	0.72380 0.58230 0.34792 -0.22900
N 	N 	0.23760 0.21000 0.87183 -0.22900
N 	N 	0.38690 0.96110 0.01308 -0.07500
N 	N 	0.43660 0.93860 0.06050 -0.07200
N 	N 	0.55740 0.73230 0.21934 -0.23700
O 	O 	0.25850 0.40680 0.81421 -0.47800
O 	O 	0.34090 0.47700 0.75662 -0.45000
O 	O 	0.57460 0.73240 0.84540 -0.35100
O 	O 	0.51450 0.88130 0.81018 -0.40000
O 	O 	0.25860 0.22110 0.71225 -0.47300
O 	O 	0.16990 0.14620 0.76677 -0.43600
O 	O 	0.96820 0.75470 0.66760 -0.39900
O 	O 	0.93000 0.92120 0.64190 -0.33000
