data_crystal

_cell_length_a 18.60600
_cell_length_b 18.60600
_cell_length_c 38.65300
_cell_angle_alpha 90.00000
_cell_angle_beta  90.00000
_cell_angle_gamma 120.00000

_symmetry_space_group_name_	'P 1'
_symmetry_space_group_name_H-M	'P 1'

loop_
_symmetry_equiv_pos_as_xyz
  x,y,z

loop_
_atom_site_label
_atom_site_type_symbol
_atom_site_fract_x
_atom_site_fract_y
_atom_site_fract_z
_atom_site_charge
C 	C 	0.72720 0.82070 0.32230 -0.09600
H 	H 	0.76920 0.81090 0.31510 0.06600
C 	C 	0.62930 0.77100 0.30940 0.08200
C 	C 	0.78670 0.02720 0.19367 0.36300
C 	C 	0.73570 0.93190 0.24462 -0.02700
H 	H 	0.72490 0.96990 0.25560 0.05100
C 	C 	0.76640 0.94740 0.21088 -0.08900
N 	N 	0.57480 0.69520 0.28760 -0.29200
H 	H 	0.58180 0.69650 0.26560 0.14500
H 	H 	0.53680 0.65070 0.29730 0.13800
O 	O 	0.81459 0.03764 0.16351 -0.41200
O 	O 	0.77538 0.07788 0.21085 -0.41500
C 	C 	0.39387 0.15403 0.65563 -0.09700
H 	H 	0.43587 0.14423 0.64843 0.06500
C 	C 	0.29597 0.10433 0.64273 0.08100
C 	C 	0.45337 0.36053 0.52700 0.36300
C 	C 	0.40237 0.26523 0.57795 -0.02700
H 	H 	0.39157 0.30323 0.58893 0.05100
C 	C 	0.43307 0.28073 0.54421 -0.09000
N 	N 	0.24147 0.02853 0.62093 -0.29200
H 	H 	0.24847 0.02983 0.59893 0.14500
H 	H 	0.20347 0.98403 0.63063 0.13700
O 	O 	0.48126 0.37097 0.49684 -0.41100
O 	O 	0.44205 0.41121 0.54418 -0.41500
C 	C 	0.06053 0.48737 0.98897 -0.09700
H 	H 	0.10253 0.47757 0.98177 0.06500
C 	C 	0.96263 0.43767 0.97607 0.08100
C 	C 	0.12003 0.69387 0.86034 0.36300
C 	C 	0.06903 0.59857 0.91129 -0.02700
H 	H 	0.05823 0.63657 0.92227 0.05100
C 	C 	0.09973 0.61407 0.87755 -0.09000
N 	N 	0.90813 0.36187 0.95427 -0.29200
H 	H 	0.91513 0.36317 0.93227 0.14500
H 	H 	0.87013 0.31737 0.96397 0.13800
O 	O 	0.14792 0.70431 0.83018 -0.41200
O 	O 	0.10871 0.74455 0.87752 -0.41500
C 	C 	0.17930 0.90650 0.32230 -0.09700
H 	H 	0.18910 0.95830 0.31510 0.06500
C 	C 	0.22900 0.85830 0.30940 0.08100
C 	C 	0.97280 0.75950 0.19367 0.36200
C 	C 	0.06810 0.80380 0.24462 -0.02700
H 	H 	0.03010 0.75500 0.25560 0.05100
C 	C 	0.05260 0.81900 0.21088 -0.08900
N 	N 	0.30480 0.87960 0.28760 -0.29200
H 	H 	0.30350 0.88530 0.26560 0.14500
H 	H 	0.34930 0.88610 0.29730 0.13800
O 	O 	0.96236 0.77695 0.16351 -0.41100
O 	O 	0.92212 0.69750 0.21085 -0.41500
C 	C 	0.84597 0.23983 0.65563 -0.09700
H 	H 	0.85577 0.29163 0.64843 0.06500
C 	C 	0.89567 0.19163 0.64273 0.08100
C 	C 	0.63947 0.09283 0.52700 0.36300
C 	C 	0.73477 0.13713 0.57795 -0.02700
H 	H 	0.69677 0.08833 0.58893 0.05100
C 	C 	0.71927 0.15233 0.54421 -0.09000
N 	N 	0.97147 0.21293 0.62093 -0.29200
H 	H 	0.97017 0.21863 0.59893 0.14500
H 	H 	0.01597 0.21943 0.63063 0.13700
O 	O 	0.62903 0.11028 0.49684 -0.41200
O 	O 	0.58879 0.03083 0.54418 -0.41500
C 	C 	0.51263 0.57317 0.98897 -0.09700
H 	H 	0.52243 0.62497 0.98177 0.06500
C 	C 	0.56233 0.52497 0.97607 0.08100
C 	C 	0.30613 0.42617 0.86034 0.36300
C 	C 	0.40143 0.47047 0.91129 -0.02700
H 	H 	0.36343 0.42167 0.92227 0.05100
C 	C 	0.38593 0.48567 0.87755 -0.09000
N 	N 	0.63813 0.54627 0.95427 -0.29200
H 	H 	0.63683 0.55197 0.93227 0.14500
H 	H 	0.68263 0.55277 0.96397 0.13800
O 	O 	0.29569 0.44362 0.83018 -0.41100
O 	O 	0.25545 0.36417 0.87752 -0.41500
C 	C 	0.09350 0.27280 0.32230 -0.09700
H 	H 	0.04170 0.23080 0.31510 0.06500
C 	C 	0.14170 0.37070 0.30940 0.08100
C 	C 	0.24050 0.21330 0.19367 0.36300
C 	C 	0.19620 0.26430 0.24462 -0.02700
H 	H 	0.24500 0.27510 0.25560 0.05100
C 	C 	0.18100 0.23360 0.21088 -0.08900
N 	N 	0.12040 0.42520 0.28760 -0.29200
H 	H 	0.11470 0.41820 0.26560 0.14500
H 	H 	0.11390 0.46320 0.29730 0.13800
O 	O 	0.22305 0.18541 0.16351 -0.41100
O 	O 	0.30250 0.22462 0.21085 -0.41500
C 	C 	0.76017 0.60613 0.65563 -0.09700
H 	H 	0.70837 0.56413 0.64843 0.06500
C 	C 	0.80837 0.70403 0.64273 0.08100
C 	C 	0.90717 0.54663 0.52700 0.36300
C 	C 	0.86287 0.59763 0.57795 -0.02700
H 	H 	0.91167 0.60843 0.58893 0.05100
C 	C 	0.84767 0.56693 0.54421 -0.09000
N 	N 	0.78707 0.75853 0.62093 -0.29200
H 	H 	0.78137 0.75153 0.59893 0.14500
H 	H 	0.78057 0.79653 0.63063 0.13800
O 	O 	0.88972 0.51874 0.49684 -0.41200
O 	O 	0.96917 0.55795 0.54418 -0.41500
C 	C 	0.42683 0.93947 0.98897 -0.09700
H 	H 	0.37503 0.89747 0.98177 0.06500
C 	C 	0.47503 0.03737 0.97607 0.08100
C 	C 	0.57383 0.87997 0.86034 0.36300
C 	C 	0.52953 0.93097 0.91129 -0.02700
H 	H 	0.57833 0.94177 0.92227 0.05100
C 	C 	0.51433 0.90027 0.87755 -0.09000
N 	N 	0.45373 0.09187 0.95427 -0.29200
H 	H 	0.44803 0.08487 0.93227 0.14500
H 	H 	0.44723 0.12987 0.96397 0.13800
O 	O 	0.55638 0.85208 0.83018 -0.41100
O 	O 	0.63583 0.89129 0.87752 -0.41500
C 	C 	0.82070 0.72720 0.67770 -0.09700
H 	H 	0.81090 0.76920 0.68490 0.06500
C 	C 	0.77100 0.62930 0.69060 0.08100
C 	C 	0.02720 0.78670 0.80633 0.36200
C 	C 	0.93190 0.73570 0.75538 -0.02700
H 	H 	0.96990 0.72490 0.74440 0.05100
C 	C 	0.94740 0.76640 0.78912 -0.08900
N 	N 	0.69520 0.57480 0.71240 -0.29200
H 	H 	0.69650 0.58180 0.73440 0.14500
H 	H 	0.65070 0.53680 0.70270 0.13800
O 	O 	0.03764 0.81459 0.83649 -0.41200
O 	O 	0.07788 0.77538 0.78915 -0.41500
C 	C 	0.48737 0.06053 0.01103 -0.09700
H 	H 	0.47757 0.10253 0.01823 0.06500
C 	C 	0.43767 0.96263 0.02393 0.08100
C 	C 	0.69387 0.12003 0.13966 0.36300
C 	C 	0.59857 0.06903 0.08871 -0.02700
H 	H 	0.63657 0.05823 0.07773 0.05100
C 	C 	0.61407 0.09973 0.12245 -0.09000
N 	N 	0.36187 0.90813 0.04573 -0.29200
H 	H 	0.36317 0.91513 0.06773 0.14500
H 	H 	0.31737 0.87013 0.03603 0.13800
O 	O 	0.70431 0.14792 0.16982 -0.41200
O 	O 	0.74455 0.10871 0.12248 -0.41500
C 	C 	0.15403 0.39387 0.34437 -0.09700
H 	H 	0.14423 0.43587 0.35157 0.06500
C 	C 	0.10433 0.29597 0.35727 0.08100
C 	C 	0.36053 0.45337 0.47300 0.36300
C 	C 	0.26523 0.40237 0.42205 -0.02700
H 	H 	0.30323 0.39157 0.41107 0.05100
C 	C 	0.28073 0.43307 0.45579 -0.09000
N 	N 	0.02853 0.24147 0.37907 -0.29200
H 	H 	0.02983 0.24847 0.40107 0.14500
H 	H 	0.98403 0.20347 0.36937 0.13700
O 	O 	0.37097 0.48126 0.50316 -0.41100
O 	O 	0.41121 0.44205 0.45582 -0.41500
C 	C 	0.90650 0.17930 0.67770 -0.09700
H 	H 	0.95830 0.18910 0.68490 0.06500
C 	C 	0.85830 0.22900 0.69060 0.08100
C 	C 	0.75950 0.97280 0.80633 0.36200
C 	C 	0.80380 0.06810 0.75538 -0.02700
H 	H 	0.75500 0.03010 0.74440 0.05100
C 	C 	0.81900 0.05260 0.78912 -0.08900
N 	N 	0.87960 0.30480 0.71240 -0.29200
H 	H 	0.88530 0.30350 0.73440 0.14500
H 	H 	0.88610 0.34930 0.70270 0.13800
O 	O 	0.77695 0.96236 0.83649 -0.41100
O 	O 	0.69750 0.92212 0.78915 -0.41500
C 	C 	0.57317 0.51263 0.01103 -0.09700
H 	H 	0.62497 0.52243 0.01823 0.06500
C 	C 	0.52497 0.56233 0.02393 0.08100
C 	C 	0.42617 0.30613 0.13966 0.36300
C 	C 	0.47047 0.40143 0.08871 -0.02700
H 	H 	0.42167 0.36343 0.07773 0.05100
C 	C 	0.48567 0.38593 0.12245 -0.09000
N 	N 	0.54627 0.63813 0.04573 -0.29200
H 	H 	0.55197 0.63683 0.06773 0.14500
H 	H 	0.55277 0.68263 0.03603 0.13800
O 	O 	0.44362 0.29569 0.16982 -0.41100
O 	O 	0.36417 0.25545 0.12248 -0.41500
C 	C 	0.23983 0.84597 0.34437 -0.09700
H 	H 	0.29163 0.85577 0.35157 0.06500
C 	C 	0.19163 0.89567 0.35727 0.08100
C 	C 	0.09283 0.63947 0.47300 0.36300
C 	C 	0.13713 0.73477 0.42205 -0.02700
H 	H 	0.08833 0.69677 0.41107 0.05100
C 	C 	0.15233 0.71927 0.45579 -0.09000
N 	N 	0.21293 0.97147 0.37907 -0.29200
H 	H 	0.21863 0.97017 0.40107 0.14500
H 	H 	0.21943 0.01597 0.36937 0.13700
O 	O 	0.11028 0.62903 0.50316 -0.41200
O 	O 	0.03083 0.58879 0.45582 -0.41500
C 	C 	0.27280 0.09350 0.67770 -0.09700
H 	H 	0.23080 0.04170 0.68490 0.06500
C 	C 	0.37070 0.14170 0.69060 0.08100
C 	C 	0.21330 0.24050 0.80633 0.36300
C 	C 	0.26430 0.19620 0.75538 -0.02700
H 	H 	0.27510 0.24500 0.74440 0.05100
C 	C 	0.23360 0.18100 0.78912 -0.08900
N 	N 	0.42520 0.12040 0.71240 -0.29200
H 	H 	0.41820 0.11470 0.73440 0.14500
H 	H 	0.46320 0.11390 0.70270 0.13800
O 	O 	0.18541 0.22305 0.83649 -0.41100
O 	O 	0.22462 0.30250 0.78915 -0.41500
C 	C 	0.93947 0.42683 0.01103 -0.09700
H 	H 	0.89747 0.37503 0.01823 0.06500
C 	C 	0.03737 0.47503 0.02393 0.08100
C 	C 	0.87997 0.57383 0.13966 0.36300
C 	C 	0.93097 0.52953 0.08871 -0.02700
H 	H 	0.94177 0.57833 0.07773 0.05100
C 	C 	0.90027 0.51433 0.12245 -0.09000
N 	N 	0.09187 0.45373 0.04573 -0.29200
H 	H 	0.08487 0.44803 0.06773 0.14500
H 	H 	0.12987 0.44723 0.03603 0.13800
O 	O 	0.85208 0.55638 0.16982 -0.41100
O 	O 	0.89129 0.63583 0.12248 -0.41500
C 	C 	0.60613 0.76017 0.34437 -0.09700
H 	H 	0.56413 0.70837 0.35157 0.06500
C 	C 	0.70403 0.80837 0.35727 0.08100
C 	C 	0.54663 0.90717 0.47300 0.36300
C 	C 	0.59763 0.86287 0.42205 -0.02700
H 	H 	0.60843 0.91167 0.41107 0.05100
C 	C 	0.56693 0.84767 0.45579 -0.09000
N 	N 	0.75853 0.78707 0.37907 -0.29200
H 	H 	0.75153 0.78137 0.40107 0.14500
H 	H 	0.79653 0.78057 0.36937 0.13800
O 	O 	0.51874 0.88972 0.50316 -0.41200
O 	O 	0.55795 0.96917 0.45582 -0.41500
C 	C 	0.27280 0.17930 0.67770 -0.09700
H 	H 	0.23080 0.18910 0.68490 0.06500
C 	C 	0.37070 0.22900 0.69060 0.08100
C 	C 	0.21330 0.97280 0.80633 0.36200
C 	C 	0.26430 0.06810 0.75538 -0.02700
H 	H 	0.27510 0.03010 0.74440 0.05100
C 	C 	0.23360 0.05260 0.78912 -0.08900
N 	N 	0.42520 0.30480 0.71240 -0.29200
H 	H 	0.41820 0.30350 0.73440 0.14500
H 	H 	0.46320 0.34930 0.70270 0.13800
O 	O 	0.18541 0.96236 0.83649 -0.41200
O 	O 	0.22462 0.92212 0.78915 -0.41500
C 	C 	0.93947 0.51263 0.01103 -0.09700
H 	H 	0.89747 0.52243 0.01823 0.06500
C 	C 	0.03737 0.56233 0.02393 0.08100
C 	C 	0.87997 0.30613 0.13966 0.36300
C 	C 	0.93097 0.40143 0.08871 -0.02700
H 	H 	0.94177 0.36343 0.07773 0.05100
C 	C 	0.90027 0.38593 0.12245 -0.09000
N 	N 	0.09187 0.63813 0.04573 -0.29200
H 	H 	0.08487 0.63683 0.06773 0.14500
H 	H 	0.12987 0.68263 0.03603 0.13800
O 	O 	0.85208 0.29569 0.16982 -0.41200
O 	O 	0.89129 0.25545 0.12248 -0.41500
C 	C 	0.60613 0.84597 0.34437 -0.09700
H 	H 	0.56413 0.85577 0.35157 0.06500
C 	C 	0.70403 0.89567 0.35727 0.08100
C 	C 	0.54663 0.63947 0.47300 0.36300
C 	C 	0.59763 0.73477 0.42205 -0.02700
H 	H 	0.60843 0.69677 0.41107 0.05100
C 	C 	0.56693 0.71927 0.45579 -0.09000
N 	N 	0.75853 0.97147 0.37907 -0.29200
H 	H 	0.75153 0.97017 0.40107 0.14500
H 	H 	0.79653 0.01597 0.36937 0.13700
O 	O 	0.51874 0.62903 0.50316 -0.41100
O 	O 	0.55795 0.58879 0.45582 -0.41500
C 	C 	0.82070 0.09350 0.67770 -0.09700
H 	H 	0.81090 0.04170 0.68490 0.06500
C 	C 	0.77100 0.14170 0.69060 0.08100
C 	C 	0.02720 0.24050 0.80633 0.36200
C 	C 	0.93190 0.19620 0.75538 -0.02700
H 	H 	0.96990 0.24500 0.74440 0.05100
C 	C 	0.94740 0.18100 0.78912 -0.08900
N 	N 	0.69520 0.12040 0.71240 -0.29200
H 	H 	0.69650 0.11470 0.73440 0.14500
H 	H 	0.65070 0.11390 0.70270 0.13800
O 	O 	0.03764 0.22305 0.83649 -0.41100
O 	O 	0.07788 0.30250 0.78915 -0.41500
C 	C 	0.48737 0.42683 0.01103 -0.09700
H 	H 	0.47757 0.37503 0.01823 0.06500
C 	C 	0.43767 0.47503 0.02393 0.08100
C 	C 	0.69387 0.57383 0.13966 0.36300
C 	C 	0.59857 0.52953 0.08871 -0.02700
H 	H 	0.63657 0.57833 0.07773 0.05100
C 	C 	0.61407 0.51433 0.12245 -0.09000
N 	N 	0.36187 0.45373 0.04573 -0.29200
H 	H 	0.36317 0.44803 0.06773 0.14500
H 	H 	0.31737 0.44723 0.03603 0.13800
O 	O 	0.70431 0.55638 0.16982 -0.41100
O 	O 	0.74455 0.63583 0.12248 -0.41500
C 	C 	0.15403 0.76017 0.34437 -0.09700
H 	H 	0.14423 0.70837 0.35157 0.06500
C 	C 	0.10433 0.80837 0.35727 0.08100
C 	C 	0.36053 0.90717 0.47300 0.36300
C 	C 	0.26523 0.86287 0.42205 -0.02700
H 	H 	0.30323 0.91167 0.41107 0.05100
C 	C 	0.28073 0.84767 0.45579 -0.09000
N 	N 	0.02853 0.78707 0.37907 -0.29200
H 	H 	0.02983 0.78137 0.40107 0.14500
H 	H 	0.98403 0.78057 0.36937 0.13700
O 	O 	0.37097 0.88972 0.50316 -0.41200
O 	O 	0.41121 0.96917 0.45582 -0.41500
C 	C 	0.90650 0.72720 0.67770 -0.09700
H 	H 	0.95830 0.76920 0.68490 0.06500
C 	C 	0.85830 0.62930 0.69060 0.08100
C 	C 	0.75950 0.78670 0.80633 0.36300
C 	C 	0.80380 0.73570 0.75538 -0.02700
H 	H 	0.75500 0.72490 0.74440 0.05100
C 	C 	0.81900 0.76640 0.78912 -0.08900
N 	N 	0.87960 0.57480 0.71240 -0.29200
H 	H 	0.88530 0.58180 0.73440 0.14500
H 	H 	0.88610 0.53680 0.70270 0.13800
O 	O 	0.77695 0.81459 0.83649 -0.41100
O 	O 	0.69750 0.77538 0.78915 -0.41500
C 	C 	0.57317 0.06053 0.01103 -0.09700
H 	H 	0.62497 0.10253 0.01823 0.06500
C 	C 	0.52497 0.96263 0.02393 0.08100
C 	C 	0.42617 0.12003 0.13966 0.36300
C 	C 	0.47047 0.06903 0.08871 -0.02700
H 	H 	0.42167 0.05823 0.07773 0.05100
C 	C 	0.48567 0.09973 0.12245 -0.09000
N 	N 	0.54627 0.90813 0.04573 -0.29200
H 	H 	0.55197 0.91513 0.06773 0.14500
H 	H 	0.55277 0.87013 0.03603 0.13800
O 	O 	0.44362 0.14792 0.16982 -0.41100
O 	O 	0.36417 0.10871 0.12248 -0.41500
C 	C 	0.23983 0.39387 0.34437 -0.09700
H 	H 	0.29163 0.43587 0.35157 0.06500
C 	C 	0.19163 0.29597 0.35727 0.08100
C 	C 	0.09283 0.45337 0.47300 0.36300
C 	C 	0.13713 0.40237 0.42205 -0.02700
H 	H 	0.08833 0.39157 0.41107 0.05100
C 	C 	0.15233 0.43307 0.45579 -0.09000
N 	N 	0.21293 0.24147 0.37907 -0.29200
H 	H 	0.21863 0.24847 0.40107 0.14500
H 	H 	0.21943 0.20347 0.36937 0.13800
O 	O 	0.11028 0.48126 0.50316 -0.41200
O 	O 	0.03083 0.44205 0.45582 -0.41500
C 	C 	0.17930 0.27280 0.32230 -0.09700
H 	H 	0.18910 0.23080 0.31510 0.06500
C 	C 	0.22900 0.37070 0.30940 0.08100
C 	C 	0.97280 0.21330 0.19367 0.36200
C 	C 	0.06810 0.26430 0.24462 -0.02700
H 	H 	0.03010 0.27510 0.25560 0.05100
C 	C 	0.05260 0.23360 0.21088 -0.08900
N 	N 	0.30480 0.42520 0.28760 -0.29200
H 	H 	0.30350 0.41820 0.26560 0.14500
H 	H 	0.34930 0.46320 0.29730 0.13800
O 	O 	0.96236 0.18541 0.16351 -0.41200
O 	O 	0.92212 0.22462 0.21085 -0.41500
C 	C 	0.84597 0.60613 0.65563 -0.09700
H 	H 	0.85577 0.56413 0.64843 0.06500
C 	C 	0.89567 0.70403 0.64273 0.08100
C 	C 	0.63947 0.54663 0.52700 0.36300
C 	C 	0.73477 0.59763 0.57795 -0.02700
H 	H 	0.69677 0.60843 0.58893 0.05100
C 	C 	0.71927 0.56693 0.54421 -0.09000
N 	N 	0.97147 0.75853 0.62093 -0.29200
H 	H 	0.97017 0.75153 0.59893 0.14500
H 	H 	0.01597 0.79653 0.63063 0.13700
O 	O 	0.62903 0.51874 0.49684 -0.41100
O 	O 	0.58879 0.55795 0.54418 -0.41500
C 	C 	0.51263 0.93947 0.98897 -0.09700
H 	H 	0.52243 0.89747 0.98177 0.06500
C 	C 	0.56233 0.03737 0.97607 0.08100
C 	C 	0.30613 0.87997 0.86034 0.36300
C 	C 	0.40143 0.93097 0.91129 -0.02700
H 	H 	0.36343 0.94177 0.92227 0.05100
C 	C 	0.38593 0.90027 0.87755 -0.09000
N 	N 	0.63813 0.09187 0.95427 -0.29200
H 	H 	0.63683 0.08487 0.93227 0.14500
H 	H 	0.68263 0.12987 0.96397 0.13800
O 	O 	0.29569 0.85208 0.83018 -0.41200
O 	O 	0.25545 0.89129 0.87752 -0.41500
C 	C 	0.09350 0.82070 0.32230 -0.09700
H 	H 	0.04170 0.81090 0.31510 0.06500
C 	C 	0.14170 0.77100 0.30940 0.08100
C 	C 	0.24050 0.02720 0.19367 0.36200
C 	C 	0.19620 0.93190 0.24462 -0.02700
H 	H 	0.24500 0.96990 0.25560 0.05100
C 	C 	0.18100 0.94740 0.21088 -0.08900
N 	N 	0.12040 0.69520 0.28760 -0.29200
H 	H 	0.11470 0.69650 0.26560 0.14500
H 	H 	0.11390 0.65070 0.29730 0.13800
O 	O 	0.22305 0.03764 0.16351 -0.41100
O 	O 	0.30250 0.07788 0.21085 -0.41500
C 	C 	0.76017 0.15403 0.65563 -0.09700
H 	H 	0.70837 0.14423 0.64843 0.06500
C 	C 	0.80837 0.10433 0.64273 0.08100
C 	C 	0.90717 0.36053 0.52700 0.36300
C 	C 	0.86287 0.26523 0.57795 -0.02700
H 	H 	0.91167 0.30323 0.58893 0.05100
C 	C 	0.84767 0.28073 0.54421 -0.09000
N 	N 	0.78707 0.02853 0.62093 -0.29200
H 	H 	0.78137 0.02983 0.59893 0.14500
H 	H 	0.78057 0.98403 0.63063 0.13700
O 	O 	0.88972 0.37097 0.49684 -0.41200
O 	O 	0.96917 0.41121 0.54418 -0.41500
C 	C 	0.42683 0.48737 0.98897 -0.09700
H 	H 	0.37503 0.47757 0.98177 0.06500
C 	C 	0.47503 0.43767 0.97607 0.08100
C 	C 	0.57383 0.69387 0.86034 0.36300
C 	C 	0.52953 0.59857 0.91129 -0.02700
H 	H 	0.57833 0.63657 0.92227 0.05100
C 	C 	0.51433 0.61407 0.87755 -0.09000
N 	N 	0.45373 0.36187 0.95427 -0.29200
H 	H 	0.44803 0.36317 0.93227 0.14500
H 	H 	0.44723 0.31737 0.96397 0.13800
O 	O 	0.55638 0.70431 0.83018 -0.41100
O 	O 	0.63583 0.74455 0.87752 -0.41500
C 	C 	0.72720 0.90650 0.32230 -0.09700
H 	H 	0.76920 0.95830 0.31510 0.06500
C 	C 	0.62930 0.85830 0.30940 0.08100
C 	C 	0.78670 0.75950 0.19367 0.36300
C 	C 	0.73570 0.80380 0.24462 -0.02700
H 	H 	0.72490 0.75500 0.25560 0.05100
C 	C 	0.76640 0.81900 0.21088 -0.08900
N 	N 	0.57480 0.87960 0.28760 -0.29200
H 	H 	0.58180 0.88530 0.26560 0.14500
H 	H 	0.53680 0.88610 0.29730 0.13800
O 	O 	0.81459 0.77695 0.16351 -0.41100
O 	O 	0.77538 0.69750 0.21085 -0.41500
C 	C 	0.39387 0.23983 0.65563 -0.09700
H 	H 	0.43587 0.29163 0.64843 0.06500
C 	C 	0.29597 0.19163 0.64273 0.08100
C 	C 	0.45337 0.09283 0.52700 0.36300
C 	C 	0.40237 0.13713 0.57795 -0.02700
H 	H 	0.39157 0.08833 0.58893 0.05100
C 	C 	0.43307 0.15233 0.54421 -0.09000
N 	N 	0.24147 0.21293 0.62093 -0.29200
H 	H 	0.24847 0.21863 0.59893 0.14500
H 	H 	0.20347 0.21943 0.63063 0.13800
O 	O 	0.48126 0.11028 0.49684 -0.41200
O 	O 	0.44205 0.03083 0.54418 -0.41500
C 	C 	0.06053 0.57317 0.98897 -0.09700
H 	H 	0.10253 0.62497 0.98177 0.06500
C 	C 	0.96263 0.52497 0.97607 0.08100
C 	C 	0.12003 0.42617 0.86034 0.36300
C 	C 	0.06903 0.47047 0.91129 -0.02700
H 	H 	0.05823 0.42167 0.92227 0.05100
C 	C 	0.09973 0.48567 0.87755 -0.09000
N 	N 	0.90813 0.54627 0.95427 -0.29200
H 	H 	0.91513 0.55197 0.93227 0.14500
H 	H 	0.87013 0.55277 0.96397 0.13800
O 	O 	0.14792 0.44362 0.83018 -0.41100
O 	O 	0.10871 0.36417 0.87752 -0.41500
C 	C 	0.72090 0.86045 0.26201 0.00200
C 	C 	0.78000 0.89000 0.19440 0.03000
H 	H 	0.79870 0.89935 0.17160 0.04900
C 	C 	0.69170 0.84585 0.29874 -0.00500
C 	C 	0.38757 0.19378 0.59534 0.00200
C 	C 	0.44667 0.22333 0.52773 0.03000
H 	H 	0.46537 0.23268 0.50493 0.04900
C 	C 	0.35837 0.17918 0.63207 -0.00500
C 	C 	0.05423 0.52712 0.92868 0.00200
C 	C 	0.11333 0.55667 0.86107 0.03000
H 	H 	0.13203 0.56602 0.83827 0.04900
C 	C 	0.02503 0.51252 0.96541 -0.00500
C 	C 	0.13955 0.86045 0.26201 0.00200
C 	C 	0.11000 0.89000 0.19440 0.02900
H 	H 	0.10065 0.89935 0.17160 0.04900
C 	C 	0.15415 0.84585 0.29874 -0.00500
C 	C 	0.80622 0.19378 0.59534 0.00200
C 	C 	0.77667 0.22333 0.52773 0.03000
H 	H 	0.76732 0.23268 0.50493 0.04900
C 	C 	0.82082 0.17918 0.63207 -0.00500
C 	C 	0.47288 0.52712 0.92868 0.00200
C 	C 	0.44333 0.55667 0.86107 0.03000
H 	H 	0.43398 0.56602 0.83827 0.04900
C 	C 	0.48748 0.51252 0.96541 -0.00500
C 	C 	0.13955 0.27910 0.26201 0.00200
C 	C 	0.11000 0.22000 0.19440 0.03000
H 	H 	0.10065 0.20130 0.17160 0.04900
C 	C 	0.15415 0.30830 0.29874 -0.00500
C 	C 	0.80622 0.61243 0.59534 0.00200
C 	C 	0.77667 0.55333 0.52773 0.03000
H 	H 	0.76732 0.53463 0.50493 0.04900
C 	C 	0.82082 0.64163 0.63207 -0.00500
C 	C 	0.47288 0.94577 0.92868 0.00200
C 	C 	0.44333 0.88667 0.86107 0.03000
H 	H 	0.43398 0.86797 0.83827 0.04900
C 	C 	0.48748 0.97497 0.96541 -0.00500
C 	C 	0.86045 0.72090 0.73799 0.00200
C 	C 	0.89000 0.78000 0.80560 0.03000
H 	H 	0.89935 0.79870 0.82840 0.04900
C 	C 	0.84585 0.69170 0.70126 -0.00500
C 	C 	0.52712 0.05423 0.07132 0.00200
C 	C 	0.55667 0.11333 0.13893 0.03000
H 	H 	0.56602 0.13203 0.16173 0.04900
C 	C 	0.51252 0.02503 0.03459 -0.00500
C 	C 	0.19378 0.38757 0.40466 0.00200
C 	C 	0.22333 0.44667 0.47227 0.03000
H 	H 	0.23268 0.46537 0.49507 0.04900
C 	C 	0.17918 0.35837 0.36793 -0.00500
C 	C 	0.86045 0.13955 0.73799 0.00200
C 	C 	0.89000 0.11000 0.80560 0.02900
H 	H 	0.89935 0.10065 0.82840 0.04900
C 	C 	0.84585 0.15415 0.70126 -0.00500
C 	C 	0.52712 0.47288 0.07132 0.00200
C 	C 	0.55667 0.44333 0.13893 0.03000
H 	H 	0.56602 0.43398 0.16173 0.04900
C 	C 	0.51252 0.48748 0.03459 -0.00500
C 	C 	0.19378 0.80622 0.40466 0.00200
C 	C 	0.22333 0.77667 0.47227 0.03000
H 	H 	0.23268 0.76732 0.49507 0.04900
C 	C 	0.17918 0.82082 0.36793 -0.00500
C 	C 	0.27910 0.13955 0.73799 0.00200
C 	C 	0.22000 0.11000 0.80560 0.03000
H 	H 	0.20130 0.10065 0.82840 0.04900
C 	C 	0.30830 0.15415 0.70126 -0.00500
C 	C 	0.94577 0.47288 0.07132 0.00200
C 	C 	0.88667 0.44333 0.13893 0.03000
H 	H 	0.86797 0.43398 0.16173 0.04900
C 	C 	0.97497 0.48748 0.03459 -0.00500
C 	C 	0.61243 0.80622 0.40466 0.00200
C 	C 	0.55333 0.77667 0.47227 0.03000
H 	H 	0.53463 0.76732 0.49507 0.04900
C 	C 	0.64163 0.82082 0.36793 -0.00500
Cu	Cu	0.85667 0.14333 0.13883 0.90300
Cu	Cu	0.52333 0.47667 0.47217 0.90300
Cu	Cu	0.19000 0.81000 0.80550 0.90300
Cu	Cu	0.85667 0.71333 0.13883 0.90300
Cu	Cu	0.52333 0.04667 0.47217 0.90300
Cu	Cu	0.19000 0.38000 0.80550 0.90300
Cu	Cu	0.28667 0.14333 0.13883 0.90300
Cu	Cu	0.95333 0.47667 0.47217 0.90300
Cu	Cu	0.62000 0.81000 0.80550 0.90300
Cu	Cu	0.14333 0.85667 0.86117 0.90300
Cu	Cu	0.81000 0.19000 0.19450 0.90300
Cu	Cu	0.47667 0.52333 0.52783 0.90300
Cu	Cu	0.71333 0.85667 0.86117 0.90300
Cu	Cu	0.38000 0.19000 0.19450 0.90300
Cu	Cu	0.04667 0.52333 0.52783 0.90300
Cu	Cu	0.14333 0.28667 0.86117 0.90300
Cu	Cu	0.81000 0.62000 0.19450 0.90300
Cu	Cu	0.47667 0.95333 0.52783 0.90300
