data_crystal

_cell_length_a 8.65140
_cell_length_b 10.15310
_cell_length_c 11.17030
_cell_angle_alpha 65.43700
_cell_angle_beta  71.66600
_cell_angle_gamma 78.42100

_symmetry_space_group_name_	'P 1'
_symmetry_space_group_name_H-M	'P 1'

loop_
_symmetry_equiv_pos_as_xyz
  x,y,z

loop_
_atom_site_label
_atom_site_type_symbol
_atom_site_fract_x
_atom_site_fract_y
_atom_site_fract_z
_atom_site_charge
Tm	Tm	0.13213 0.44028 0.65276 1.46300
Tm	Tm	0.86787 0.55972 0.34724 1.46300
H 	H 	0.63470 0.11250 0.77080 0.04500
H 	H 	0.22800 0.07210 0.08180 0.05800
H 	H 	0.54430 0.35310 0.87560 0.05000
H 	H 	0.71530 0.61880 0.98520 0.05700
H 	H 	0.92500 0.78040 0.68190 0.04300
H 	H 	0.01990 0.02730 0.27770 0.05000
H 	H 	0.36530 0.88750 0.22920 0.04500
H 	H 	0.77200 0.92790 0.91820 0.05800
H 	H 	0.45570 0.64690 0.12440 0.05000
H 	H 	0.28470 0.38120 0.01480 0.05700
H 	H 	0.07500 0.21960 0.31810 0.04300
H 	H 	0.98010 0.97270 0.72230 0.05000
C 	C 	0.32660 0.23160 0.82040 0.29800
C 	C 	0.41830 0.11200 0.91060 -0.06100
C 	C 	0.57930 0.06730 0.86400 -0.01400
C 	C 	0.33900 0.04300 0.04820 -0.02300
C 	C 	0.82030 0.46160 0.83120 0.30100
C 	C 	0.65400 0.48280 0.91740 -0.06100
C 	C 	0.52610 0.41280 0.92630 -0.02600
C 	C 	0.62800 0.57060 0.99130 -0.02900
C 	C 	0.93020 0.76680 0.44730 0.33100
C 	C 	0.96670 0.88560 0.47590 -0.09200
C 	C 	0.95520 0.86920 0.60800 -0.03100
C 	C 	0.01170 0.01620 0.36810 -0.01300
C 	C 	0.67340 0.76840 0.17960 0.29800
C 	C 	0.58170 0.88800 0.08940 -0.06100
C 	C 	0.42070 0.93270 0.13600 -0.01400
C 	C 	0.66100 0.95700 0.95180 -0.02300
C 	C 	0.17970 0.53840 0.16880 0.30100
C 	C 	0.34600 0.51720 0.08260 -0.06100
C 	C 	0.47390 0.58720 0.07370 -0.02600
C 	C 	0.37200 0.42940 0.00870 -0.02900
C 	C 	0.06980 0.23320 0.55270 0.33100
C 	C 	0.03330 0.11440 0.52410 -0.09200
C 	C 	0.04480 0.13080 0.39200 -0.03100
C 	C 	0.98830 0.98380 0.63190 -0.01300
O 	O 	0.39830 0.29890 0.69600 -0.39200
O 	O 	0.17880 0.26550 0.86880 -0.36300
O 	O 	0.84320 0.38130 0.76360 -0.36300
O 	O 	0.93530 0.52390 0.82500 -0.37300
O 	O 	0.96210 0.63430 0.51870 -0.48500
O 	O 	0.86840 0.79950 0.34980 -0.37000
O 	O 	0.60170 0.70110 0.30400 -0.39200
O 	O 	0.82120 0.73450 0.13120 -0.36300
O 	O 	0.15680 0.61870 0.23640 -0.36300
O 	O 	0.06470 0.47610 0.17500 -0.37300
O 	O 	0.03790 0.36570 0.48130 -0.48500
O 	O 	0.13160 0.20050 0.65020 -0.37000
