data_crystal

_cell_length_a 10.06910
_cell_length_b 10.94910
_cell_length_c 13.22110
_cell_angle_alpha 99.75500
_cell_angle_beta  110.24500
_cell_angle_gamma 107.79300

_symmetry_space_group_name_	'P 1'
_symmetry_space_group_name_H-M	'P 1'

loop_
_symmetry_equiv_pos_as_xyz
  x,y,z

loop_
_atom_site_label
_atom_site_type_symbol
_atom_site_fract_x
_atom_site_fract_y
_atom_site_fract_z
_atom_site_charge
Er	Er	0.15495 0.70649 0.19582 1.74600
Er	Er	0.84505 0.29351 0.80418 1.74600
H 	H 	0.72390 0.61950 0.16260 0.04200
H 	H 	0.50400 0.36620 0.84630 0.04100
H 	H 	0.83750 0.91560 0.31110 0.04900
H 	H 	0.22630 0.96890 0.56430 0.05200
H 	H 	0.23340 0.40970 0.42540 0.05300
H 	H 	0.62620 0.66890 0.44120 0.05500
H 	H 	0.96390 0.64190 0.91360 -0.00400
H 	H 	0.90200 0.73490 0.77090 0.07700
H 	H 	0.02170 0.96610 0.80980 0.05600
H 	H 	0.20420 0.19030 0.95600 0.05900
H 	H 	0.38550 0.31190 0.13650 0.05400
H 	H 	0.54290 0.31560 0.33530 0.04600
H 	H 	0.60140 0.19470 0.45840 0.08400
H 	H 	0.46520 0.96460 0.40030 0.00500
H 	H 	0.27610 0.38050 0.83740 0.04200
H 	H 	0.49600 0.63380 0.15370 0.04100
H 	H 	0.16250 0.08440 0.68890 0.04900
H 	H 	0.77370 0.03110 0.43570 0.05200
H 	H 	0.76660 0.59030 0.57460 0.05300
H 	H 	0.37380 0.33110 0.55880 0.05500
H 	H 	0.03610 0.35810 0.08640 -0.00400
H 	H 	0.09800 0.26510 0.22910 0.07700
H 	H 	0.97830 0.03390 0.19020 0.05600
H 	H 	0.79580 0.80970 0.04400 0.05900
H 	H 	0.61450 0.68810 0.86350 0.05400
H 	H 	0.45710 0.68440 0.66470 0.04600
H 	H 	0.39860 0.80530 0.54160 0.08400
H 	H 	0.53480 0.03540 0.59970 0.00500
C 	C 	0.78660 0.48570 0.00990 0.48700
C 	C 	0.63720 0.49200 0.00480 -0.13000
C 	C 	0.63360 0.57140 0.09680 -0.00500
C 	C 	0.50310 0.42030 0.90830 -0.00400
C 	C 	0.07710 0.85150 0.34330 0.29800
C 	C 	0.03830 0.92940 0.42430 -0.06000
C 	C 	0.90400 0.94960 0.38780 -0.02400
C 	C 	0.13430 0.98100 0.53760 -0.02500
C 	C 	0.32610 0.60100 0.33620 0.29700
C 	C 	0.41590 0.54750 0.42090 -0.05400
C 	C 	0.34040 0.44610 0.45540 -0.02900
C 	C 	0.57560 0.60130 0.46490 -0.03000
C 	C 	0.01110 0.73490 0.93100 0.08900
C 	C 	0.97360 0.78950 0.84370 -0.09900
C 	C 	0.04410 0.92600 0.86680 -0.03300
C 	C 	0.15070 0.00400 0.97780 0.00900
C 	C 	0.22770 0.14590 0.00960 -0.05500
C 	C 	0.33610 0.21900 0.11780 -0.05400
C 	C 	0.37380 0.15420 0.20170 0.00300
C 	C 	0.49000 0.22260 0.31230 -0.02300
C 	C 	0.52410 0.15120 0.38520 -0.10100
C 	C 	0.44150 0.01180 0.34900 0.07900
C 	C 	0.29580 0.01310 0.17210 0.03500
C 	C 	0.17880 0.93810 0.05800 0.03700
C 	C 	0.21340 0.51430 0.99010 0.48700
C 	C 	0.36280 0.50800 0.99520 -0.13000
C 	C 	0.36640 0.42860 0.90320 -0.00500
C 	C 	0.49690 0.57970 0.09170 -0.00400
C 	C 	0.92290 0.14850 0.65670 0.29800
C 	C 	0.96170 0.07060 0.57570 -0.06000
C 	C 	0.09600 0.05040 0.61220 -0.02400
C 	C 	0.86570 0.01900 0.46240 -0.02500
C 	C 	0.67390 0.39900 0.66380 0.29700
C 	C 	0.58410 0.45250 0.57910 -0.05400
C 	C 	0.65960 0.55390 0.54460 -0.02900
C 	C 	0.42440 0.39870 0.53510 -0.03000
C 	C 	0.98890 0.26510 0.06900 0.08900
C 	C 	0.02640 0.21050 0.15630 -0.09900
C 	C 	0.95590 0.07400 0.13320 -0.03300
C 	C 	0.84930 0.99600 0.02220 0.00900
C 	C 	0.77230 0.85410 0.99040 -0.05500
C 	C 	0.66390 0.78100 0.88220 -0.05400
C 	C 	0.62620 0.84580 0.79830 0.00300
C 	C 	0.51000 0.77740 0.68770 -0.02300
C 	C 	0.47590 0.84880 0.61480 -0.10100
C 	C 	0.55850 0.98820 0.65100 0.07900
C 	C 	0.70420 0.98690 0.82790 0.03500
C 	C 	0.82120 0.06190 0.94200 0.03700
N 	N 	0.10850 0.80400 0.03710 -0.22200
N 	N 	0.33170 0.94320 0.24580 -0.22100
N 	N 	0.89150 0.19600 0.96290 -0.22200
N 	N 	0.66830 0.05680 0.75420 -0.22100
O 	O 	0.90880 0.55960 0.09590 -0.50500
O 	O 	0.78050 0.40700 0.92590 -0.50400
O 	O 	0.01170 0.83370 0.23820 -0.39500
O 	O 	0.17620 0.80170 0.38040 -0.39400
O 	O 	0.18080 0.53760 0.28240 -0.39000
O 	O 	0.39400 0.70900 0.32060 -0.39200
O 	O 	0.09120 0.44040 0.90410 -0.50500
O 	O 	0.21950 0.59300 0.07410 -0.50400
O 	O 	0.98830 0.16630 0.76180 -0.39500
O 	O 	0.82380 0.19830 0.61960 -0.39400
O 	O 	0.81920 0.46240 0.71760 -0.39000
O 	O 	0.60600 0.29100 0.67940 -0.39200
