data_crystal

_cell_length_a 10.39100
_cell_length_b 15.05600
_cell_length_c 10.12100
_cell_angle_alpha 101.36300
_cell_angle_beta  101.11500
_cell_angle_gamma 105.73700

_symmetry_space_group_name_	'P 1'
_symmetry_space_group_name_H-M	'P 1'

loop_
_symmetry_equiv_pos_as_xyz
  x,y,z

loop_
_atom_site_label
_atom_site_type_symbol
_atom_site_fract_x
_atom_site_fract_y
_atom_site_fract_z
_atom_site_charge
Pr	Pr	0.03242 0.19445 0.78012 2.05400
Pr	Pr	0.00639 0.22275 0.28923 2.03400
O 	O 	0.19890 0.32360 0.22780 -0.54800
O 	O 	0.18120 0.25960 0.00750 -0.55700
O 	O 	0.84070 0.64350 0.23840 -0.45300
O 	O 	0.84500 0.53770 0.05070 -0.28000
O 	O 	0.84220 0.10320 0.85670 -0.53100
O 	O 	0.83580 0.15640 0.07270 -0.56000
O 	O 	0.10930 0.94190 0.68930 -0.45400
O 	O 	0.12180 0.06560 0.85760 -0.44700
O 	O 	0.88070 0.21840 0.59320 -0.57700
O 	O 	0.82190 0.24530 0.38750 -0.52500
O 	O 	0.22380 0.18290 0.68120 -0.50100
O 	O 	0.15900 0.19530 0.46940 -0.58600
N 	N 	0.39270 0.49650 0.34720 -0.11100
N 	N 	0.65900 0.37100 0.96900 -0.10800
N 	N 	0.60110 0.99140 0.66710 -0.11900
N 	N 	0.35800 0.13100 0.05800 -0.11600
N 	N 	0.59950 0.29300 0.31870 -0.10700
N 	N 	0.49700 0.24410 0.79700 -0.10800
C 	C 	0.24620 0.31830 0.12320 0.47700
C 	C 	0.38660 0.38290 0.13610 -0.14700
C 	C 	0.45490 0.35670 0.03470 -0.03200
H 	H 	0.40950 0.30130 0.96260 0.06700
C 	C 	0.58860 0.41120 0.03930 0.11200
C 	C 	0.64970 0.49680 0.14530 -0.08100
C 	C 	0.58460 0.52380 0.24270 -0.07300
H 	H 	0.62830 0.58120 0.31130 0.07100
C 	C 	0.45270 0.46670 0.24220 0.13900
C 	C 	0.78880 0.56380 0.14420 0.32400
C 	C 	0.77820 0.11720 0.94680 0.46200
C 	C 	0.62260 0.08620 0.90180 -0.13600
C 	C 	0.55410 0.12130 0.99630 -0.05700
H 	H 	0.60640 0.16040 0.08410 0.07700
C 	C 	0.41150 0.09980 0.96390 0.12600
C 	C 	0.33350 0.03780 0.83300 -0.10100
C 	C 	0.39820 0.00110 0.73900 -0.07500
H 	H 	0.34480 0.95910 0.65350 0.07600
C 	C 	0.54460 0.02630 0.77010 0.12700
C 	C 	0.17870 0.01410 0.79220 0.34300
C 	C 	0.79750 0.23410 0.50120 0.46500
C 	C 	0.66090 0.23720 0.52380 -0.14900
C 	C 	0.62670 0.21860 0.64360 -0.03000
H 	H 	0.69260 0.21000 0.71190 0.03200
C 	C 	0.49660 0.21230 0.66470 0.13100
C 	C 	0.39710 0.22160 0.56060 -0.15300
C 	C 	0.43100 0.24410 0.44340 -0.02900
H 	H 	0.36380 0.25080 0.37440 0.03900
C 	C 	0.56440 0.25690 0.42660 0.12400
C 	C 	0.25070 0.19920 0.57180 0.47000
Pr	Pr	0.96758 0.80555 0.21988 2.05500
Pr	Pr	0.99361 0.77725 0.71077 2.03500
O 	O 	0.80110 0.67640 0.77220 -0.54800
O 	O 	0.81880 0.74040 0.99250 -0.55700
O 	O 	0.15930 0.35650 0.76160 -0.45300
O 	O 	0.15500 0.46230 0.94930 -0.28000
O 	O 	0.15780 0.89680 0.14330 -0.53100
O 	O 	0.16420 0.84360 0.92730 -0.56000
O 	O 	0.89070 0.05810 0.31070 -0.45400
O 	O 	0.87820 0.93440 0.14240 -0.44700
O 	O 	0.11930 0.78160 0.40680 -0.57700
O 	O 	0.17810 0.75470 0.61250 -0.52500
O 	O 	0.77620 0.81710 0.31880 -0.50100
O 	O 	0.84100 0.80470 0.53060 -0.58600
N 	N 	0.60730 0.50350 0.65280 -0.11100
N 	N 	0.34100 0.62900 0.03100 -0.10800
N 	N 	0.39890 0.00860 0.33290 -0.11900
N 	N 	0.64200 0.86900 0.94200 -0.11600
N 	N 	0.40050 0.70700 0.68130 -0.10700
N 	N 	0.50300 0.75590 0.20300 -0.10800
C 	C 	0.75380 0.68170 0.87680 0.47700
C 	C 	0.61340 0.61710 0.86390 -0.14700
C 	C 	0.54510 0.64330 0.96530 -0.03200
H 	H 	0.59050 0.69870 0.03740 0.06700
C 	C 	0.41140 0.58880 0.96070 0.11200
C 	C 	0.35030 0.50320 0.85470 -0.08100
C 	C 	0.41540 0.47620 0.75730 -0.07300
H 	H 	0.37170 0.41880 0.68870 0.07100
C 	C 	0.54730 0.53330 0.75780 0.13900
C 	C 	0.21120 0.43620 0.85580 0.32400
C 	C 	0.22180 0.88280 0.05320 0.46200
C 	C 	0.37740 0.91380 0.09820 -0.13600
C 	C 	0.44590 0.87870 0.00370 -0.05700
H 	H 	0.39360 0.83960 0.91590 0.07700
C 	C 	0.58850 0.90020 0.03610 0.12600
C 	C 	0.66650 0.96220 0.16700 -0.10100
C 	C 	0.60180 0.99890 0.26100 -0.07500
H 	H 	0.65520 0.04090 0.34650 0.07600
C 	C 	0.45540 0.97370 0.22990 0.12700
C 	C 	0.82130 0.98590 0.20780 0.34300
C 	C 	0.20250 0.76590 0.49880 0.46500
C 	C 	0.33910 0.76280 0.47620 -0.14900
C 	C 	0.37330 0.78140 0.35640 -0.03000
H 	H 	0.30740 0.79000 0.28810 0.03200
C 	C 	0.50340 0.78770 0.33530 0.13100
C 	C 	0.60290 0.77840 0.43940 -0.15300
C 	C 	0.56900 0.75590 0.55660 -0.02900
H 	H 	0.63620 0.74920 0.62560 0.03900
C 	C 	0.43560 0.74310 0.57340 0.12400
C 	C 	0.74930 0.80080 0.42820 0.47000
