data_crystal

_cell_length_a 17.55900
_cell_length_b 11.42600
_cell_length_c 21.73600
_cell_angle_alpha 90.00000
_cell_angle_beta  114.58800
_cell_angle_gamma 90.00000

_symmetry_space_group_name_	'P 1'
_symmetry_space_group_name_H-M	'P 1'

loop_
_symmetry_equiv_pos_as_xyz
  x,y,z

loop_
_atom_site_label
_atom_site_type_symbol
_atom_site_fract_x
_atom_site_fract_y
_atom_site_fract_z
_atom_site_charge
C 	C 	0.33520 0.60240 0.64950 -0.00100
H 	H 	0.35570 0.56710 0.62090 0.02800
C 	C 	0.25430 0.60770 0.63820 0.00600
H 	H 	0.20930 0.57630 0.60160 0.02700
C 	C 	0.33060 0.70000 0.73460 0.08600
H 	H 	0.34550 0.74350 0.77400 0.00100
C 	C 	0.17810 0.68880 0.70510 0.11300
C 	C 	0.10830 0.61850 0.67100 -0.11200
H 	H 	0.10750 0.56500 0.63850 0.07100
C 	C 	0.03940 0.63090 0.68710 -0.01800
H 	H 	0.99210 0.58520 0.66460 0.03500
C 	C 	0.04000 0.70960 0.73580 -0.00200
C 	C 	0.10980 0.78130 0.76720 -0.01600
H 	H 	0.11030 0.83610 0.79900 0.03500
C 	C 	0.17890 0.77180 0.75150 -0.11600
H 	H 	0.22500 0.82080 0.77200 0.07500
C 	C 	0.89440 0.65160 0.71800 -0.01300
H 	H 	0.89130 0.60730 0.68110 0.03300
C 	C 	0.82640 0.65180 0.73630 -0.12200
H 	H 	0.77880 0.60760 0.71200 0.07400
C 	C 	0.83120 0.71770 0.79030 0.11600
C 	C 	0.90240 0.78140 0.82780 -0.11800
H 	H 	0.90530 0.82460 0.86500 0.07200
C 	C 	0.96950 0.78060 0.81000 -0.01300
H 	H 	0.01750 0.82330 0.83540 0.03200
C 	C 	0.68460 0.67740 0.77070 0.09000
H 	H 	0.67090 0.63460 0.73110 -0.00700
C 	C 	0.67710 0.76500 0.85690 -0.00200
H 	H 	0.65680 0.79310 0.88730 0.02600
C 	C 	0.75640 0.77780 0.86230 0.01000
H 	H 	0.79980 0.81720 0.89650 0.02400
Cu	Cu	0.50813 0.67511 0.75536 0.87700
N 	N 	0.38410 0.65740 0.71043 -0.21700
N 	N 	0.25100 0.66930 0.69187 -0.13700
C 	C 	0.96590 0.71610 0.75390 -0.00700
N 	N 	0.76080 0.72270 0.80851 -0.14100
N 	N 	0.63170 0.70330 0.79869 -0.21900
N 	N 	0.50300 0.42380 0.73594 0.00100
O 	O 	0.52510 0.51990 0.72052 -0.27900
O 	O 	0.51027 0.32920 0.71042 -0.27900
C 	C 	0.66480 0.10240 0.85050 -0.00200
H 	H 	0.64430 0.06710 0.87910 0.02700
C 	C 	0.74570 0.10770 0.86180 0.00500
H 	H 	0.79070 0.07630 0.89840 0.02600
C 	C 	0.66940 0.20000 0.76540 0.08500
H 	H 	0.65450 0.24350 0.72600 0.00000
C 	C 	0.82190 0.18880 0.79490 0.11200
C 	C 	0.89170 0.11850 0.82900 -0.11300
H 	H 	0.89250 0.06500 0.86150 0.07000
C 	C 	0.96060 0.13090 0.81290 -0.01900
H 	H 	0.00790 0.08520 0.83540 0.03400
C 	C 	0.96000 0.20960 0.76420 -0.00300
C 	C 	0.89020 0.28130 0.73280 -0.01700
H 	H 	0.88970 0.33610 0.70100 0.03400
C 	C 	0.82110 0.27180 0.74850 -0.11700
H 	H 	0.77500 0.32080 0.72800 0.07400
C 	C 	0.10560 0.15160 0.78200 -0.01400
H 	H 	0.10870 0.10730 0.81890 0.03200
C 	C 	0.17360 0.15180 0.76370 -0.12200
H 	H 	0.22120 0.10760 0.78800 0.07400
C 	C 	0.16880 0.21770 0.70970 0.11600
C 	C 	0.09760 0.28140 0.67220 -0.11800
H 	H 	0.09470 0.32460 0.63500 0.07200
C 	C 	0.03050 0.28060 0.69000 -0.01300
H 	H 	0.98250 0.32330 0.66460 0.03300
C 	C 	0.31540 0.17740 0.72930 0.09000
H 	H 	0.32910 0.13460 0.76890 -0.00700
C 	C 	0.32290 0.26500 0.64310 -0.00200
H 	H 	0.34320 0.29310 0.61270 0.02600
C 	C 	0.24360 0.27780 0.63770 0.01000
H 	H 	0.20020 0.31720 0.60350 0.02400
Cu	Cu	0.49187 0.17511 0.74464 0.87700
N 	N 	0.61590 0.15740 0.78957 -0.21700
N 	N 	0.74900 0.16930 0.80813 -0.13700
C 	C 	0.03410 0.21610 0.74610 -0.00700
N 	N 	0.23920 0.22270 0.69149 -0.14100
N 	N 	0.36830 0.20330 0.70131 -0.21900
N 	N 	0.49700 0.92380 0.76406 0.00100
O 	O 	0.47490 0.01990 0.77948 -0.27900
O 	O 	0.48973 0.82920 0.78958 -0.27900
C 	C 	0.66480 0.39760 0.35050 -0.00200
H 	H 	0.64430 0.43290 0.37910 0.02700
C 	C 	0.74570 0.39230 0.36180 0.00500
H 	H 	0.79070 0.42370 0.39840 0.02600
C 	C 	0.66940 0.30000 0.26540 0.08500
H 	H 	0.65450 0.25650 0.22600 0.00000
C 	C 	0.82190 0.31120 0.29490 0.11200
C 	C 	0.89170 0.38150 0.32900 -0.11300
H 	H 	0.89250 0.43500 0.36150 0.07000
C 	C 	0.96060 0.36910 0.31290 -0.01900
H 	H 	0.00790 0.41480 0.33540 0.03400
C 	C 	0.96000 0.29040 0.26420 -0.00300
C 	C 	0.89020 0.21870 0.23280 -0.01700
H 	H 	0.88970 0.16390 0.20100 0.03400
C 	C 	0.82110 0.22820 0.24850 -0.11700
H 	H 	0.77500 0.17920 0.22800 0.07400
C 	C 	0.10560 0.34840 0.28200 -0.01400
H 	H 	0.10870 0.39270 0.31890 0.03200
C 	C 	0.17360 0.34820 0.26370 -0.12200
H 	H 	0.22120 0.39240 0.28800 0.07400
C 	C 	0.16880 0.28230 0.20970 0.11600
C 	C 	0.09760 0.21860 0.17220 -0.11800
H 	H 	0.09470 0.17540 0.13500 0.07200
C 	C 	0.03050 0.21940 0.19000 -0.01300
H 	H 	0.98250 0.17670 0.16460 0.03200
C 	C 	0.31540 0.32260 0.22930 0.09000
H 	H 	0.32910 0.36540 0.26890 -0.00700
C 	C 	0.32290 0.23500 0.14310 -0.00200
H 	H 	0.34320 0.20690 0.11270 0.02600
C 	C 	0.24360 0.22220 0.13770 0.01000
H 	H 	0.20020 0.18280 0.10350 0.02400
Cu	Cu	0.49187 0.32489 0.24464 0.87700
N 	N 	0.61590 0.34260 0.28957 -0.21700
N 	N 	0.74900 0.33070 0.30813 -0.13700
C 	C 	0.03410 0.28390 0.24610 -0.00700
N 	N 	0.23920 0.27730 0.19149 -0.14100
N 	N 	0.36830 0.29670 0.20131 -0.21900
N 	N 	0.49700 0.57620 0.26406 0.00100
O 	O 	0.47490 0.48010 0.27948 -0.27900
O 	O 	0.48973 0.67080 0.28958 -0.27900
C 	C 	0.33520 0.89760 0.14950 -0.00200
H 	H 	0.35570 0.93290 0.12090 0.02700
C 	C 	0.25430 0.89230 0.13820 0.00500
H 	H 	0.20930 0.92370 0.10160 0.02600
C 	C 	0.33060 0.80000 0.23460 0.08500
H 	H 	0.34550 0.75650 0.27400 0.00000
C 	C 	0.17810 0.81120 0.20510 0.11200
C 	C 	0.10830 0.88150 0.17100 -0.11300
H 	H 	0.10750 0.93500 0.13850 0.07000
C 	C 	0.03940 0.86910 0.18710 -0.01900
H 	H 	0.99210 0.91480 0.16460 0.03400
C 	C 	0.04000 0.79040 0.23580 -0.00300
C 	C 	0.10980 0.71870 0.26720 -0.01700
H 	H 	0.11030 0.66390 0.29900 0.03400
C 	C 	0.17890 0.72820 0.25150 -0.11700
H 	H 	0.22500 0.67920 0.27200 0.07400
C 	C 	0.89440 0.84840 0.21800 -0.01400
H 	H 	0.89130 0.89270 0.18110 0.03200
C 	C 	0.82640 0.84820 0.23630 -0.12200
H 	H 	0.77880 0.89240 0.21200 0.07400
C 	C 	0.83120 0.78230 0.29030 0.11600
C 	C 	0.90240 0.71860 0.32780 -0.11800
H 	H 	0.90530 0.67540 0.36500 0.07200
C 	C 	0.96950 0.71940 0.31000 -0.01300
H 	H 	0.01750 0.67670 0.33540 0.03300
C 	C 	0.68460 0.82260 0.27070 0.09000
H 	H 	0.67090 0.86540 0.23110 -0.00700
C 	C 	0.67710 0.73500 0.35690 -0.00200
H 	H 	0.65680 0.70690 0.38730 0.02600
C 	C 	0.75640 0.72220 0.36230 0.01000
H 	H 	0.79980 0.68280 0.39650 0.02400
Cu	Cu	0.50813 0.82489 0.25536 0.87700
N 	N 	0.38410 0.84260 0.21043 -0.21700
N 	N 	0.25100 0.83070 0.19187 -0.13700
C 	C 	0.96590 0.78390 0.25390 -0.00700
N 	N 	0.76080 0.77730 0.30851 -0.14100
N 	N 	0.63170 0.79670 0.29869 -0.21900
N 	N 	0.50300 0.07620 0.23594 0.00100
O 	O 	0.52510 0.98010 0.22052 -0.27900
O 	O 	0.51027 0.17080 0.21042 -0.27900
