data_crystal

_cell_length_a 19.75240
_cell_length_b 19.75240
_cell_length_c 15.34600
_cell_angle_alpha 90.00000
_cell_angle_beta  90.00000
_cell_angle_gamma 120.00000

_symmetry_space_group_name_	'P 1'
_symmetry_space_group_name_H-M	'P 1'

loop_
_symmetry_equiv_pos_as_xyz
  x,y,z

loop_
_atom_site_label
_atom_site_type_symbol
_atom_site_fract_x
_atom_site_fract_y
_atom_site_fract_z
_atom_site_charge
C 	C 	0.14530 0.60780 0.91340 0.47100
C 	C 	0.06950 0.55090 0.95980 -0.13900
C 	C 	0.02950 0.58150 0.00710 0.00500
C 	C 	0.04160 0.47160 0.95360 0.01600
C 	C 	0.15360 0.42890 0.97740 -0.33500
H 	H 	0.11880 0.39110 0.02080 0.12200
H 	H 	0.18740 0.41080 0.95250 0.10800
H 	H 	0.18570 0.47980 0.00520 0.09600
C 	C 	0.12380 0.70390 0.10990 -0.37300
H 	H 	0.16310 0.68780 0.10340 0.12500
H 	H 	0.14980 0.76000 0.12230 0.13500
H 	H 	0.08850 0.67480 0.15810 0.11500
C 	C 	0.81460 0.49530 0.41450 0.44300
O 	O 	0.09500 0.63970 0.65970 -0.73400
H 	H 	0.05800 0.64600 0.67600 -0.01800
H 	H 	0.07500 0.59600 0.63400 0.30500
O 	O 	0.05100 0.71490 0.72760 -0.14800
C 	C 	0.86820 0.54270 0.48560 -0.02100
C 	C 	0.92610 0.62000 0.47280 0.02000
C 	C 	0.98110 0.65960 0.53770 0.18300
C 	C 	0.97820 0.62200 0.61530 -0.22100
C 	C 	0.92020 0.54470 0.62810 0.03400
C 	C 	0.86520 0.50500 0.56320 -0.10500
C 	C 	0.04710 0.66170 0.67680 0.49900
C 	C 	0.99680 0.66370 0.31270 0.49800
H 	H 	0.04260 0.67820 0.34940 -0.25200
H 	H 	0.01170 0.70000 0.26340 -0.14400
H 	H 	0.97640 0.61040 0.29080 -0.55600
C 	C 	0.01560 0.81280 0.55650 0.56800
H 	H 	0.98950 0.82170 0.50720 -0.06300
H 	H 	0.05620 0.86310 0.57970 -0.11100
H 	H 	0.97720 0.78390 0.60220 -0.08600
C 	C 	0.92410 0.55380 0.81080 -0.06200
H 	H 	0.91500 0.52530 0.86580 -0.02000
H 	H 	0.88570 0.57110 0.80460 0.09900
H 	H 	0.97690 0.59940 0.81080 0.04900
C 	C 	0.84770 0.35920 0.55940 0.05800
H 	H 	0.87260 0.37190 0.50180 -0.01200
H 	H 	0.81410 0.30240 0.56460 -0.01200
H 	H 	0.88810 0.37800 0.60460 -0.02100
S 	S 	0.92320 0.66850 0.37530 -0.15500
S 	S 	0.05930 0.75727 0.52070 -0.42700
S 	S 	0.91460 0.49330 0.72540 0.08800
S 	S 	0.79000 0.40540 0.57230 -0.19200
O 	O 	0.94160 0.74970 0.75020 -0.40400
H 	H 	0.97890 0.79050 0.77130 0.24100
O 	O 	0.03300 0.69800 0.74300 -0.18900
C 	C 	0.86420 0.54830 0.49390 -0.06500
C 	C 	0.91690 0.62670 0.47800 -0.02200
C 	C 	0.95110 0.67820 0.54730 -0.00300
C 	C 	0.93260 0.65110 0.63250 0.00200
C 	C 	0.87990 0.57270 0.64840 -0.01400
C 	C 	0.84560 0.52130 0.57910 0.08800
C 	C 	0.96920 0.70900 0.70970 0.23500
C 	C 	0.99430 0.61900 0.32600 -0.17200
H 	H 	0.04930 0.65970 0.33240 0.17600
H 	H 	0.98290 0.60480 0.26440 0.48100
H 	H 	0.98410 0.57310 0.36000 0.08300
C 	C 	0.09880 0.77480 0.48520 0.64200
H 	H 	0.08420 0.71960 0.48040 -0.07900
H 	H 	0.14460 0.80200 0.52310 -0.10300
H 	H 	0.11140 0.79880 0.42720 -0.13800
C 	C 	0.91600 0.50600 0.77600 -0.34200
H 	H 	0.88510 0.44880 0.77310 0.08300
H 	H 	0.94070 0.52150 0.83390 0.15200
H 	H 	0.95640 0.52560 0.73120 0.07200
C 	C 	0.83100 0.37100 0.59100 -0.30800
H 	H 	0.82150 0.33810 0.64280 0.09700
H 	H 	0.88640 0.40920 0.58650 0.11000
H 	H 	0.81400 0.33750 0.53890 0.10200
S 	S 	0.93510 0.65480 0.36340 0.07300
S 	S 	0.02060 0.78170 0.52950 -0.34400
S 	S 	0.85550 0.54480 0.76090 -0.09200
S 	S 	0.77630 0.41950 0.59970 0.20500
Eu	Eu	0.21750 0.66067 0.71111 2.00300
O 	O 	0.13780 0.62170 0.83650 -0.54600
O 	O 	0.20720 0.63270 0.95670 -0.56400
O 	O 	0.75270 0.49670 0.40320 -0.52200
O 	O 	0.83840 0.45790 0.37050 -0.53700
O 	O 	0.41730 0.67420 0.79950 -0.81300
H 	H 	0.46630 0.67720 0.82180 0.17000
S 	S 	0.09589 0.43790 0.89213 -0.04400
S 	S 	0.06904 0.68372 0.01185 0.02900
C 	C 	0.39220 0.53750 0.91340 0.47200
C 	C 	0.44910 0.51860 0.95980 -0.13900
C 	C 	0.41850 0.44800 0.00710 0.00800
C 	C 	0.52840 0.57000 0.95360 0.01600
C 	C 	0.57110 0.72470 0.97740 -0.33600
H 	H 	0.60890 0.72770 0.02080 0.12400
H 	H 	0.58920 0.77660 0.95250 0.11000
H 	H 	0.52020 0.70590 0.00520 0.09800
C 	C 	0.29610 0.41990 0.10990 -0.37300
H 	H 	0.31220 0.47530 0.10340 0.12600
H 	H 	0.24000 0.38980 0.12230 0.13500
H 	H 	0.32520 0.41370 0.15810 0.11500
C 	C 	0.50470 0.31930 0.41450 0.44300
O 	O 	0.36030 0.45530 0.65970 -0.73400
H 	H 	0.35400 0.41200 0.67600 -0.01900
H 	H 	0.40400 0.47900 0.63400 0.30500
O 	O 	0.28510 0.33610 0.72760 -0.14900
C 	C 	0.45730 0.32550 0.48560 -0.02100
C 	C 	0.38000 0.30610 0.47280 0.02000
C 	C 	0.34040 0.32150 0.53770 0.18300
C 	C 	0.37800 0.35620 0.61530 -0.22000
C 	C 	0.45530 0.37550 0.62810 0.03400
C 	C 	0.49500 0.36020 0.56320 -0.10500
C 	C 	0.33830 0.38540 0.67680 0.49900
C 	C 	0.33630 0.33310 0.31270 0.50300
H 	H 	0.32180 0.36440 0.34940 -0.25500
H 	H 	0.30000 0.31170 0.26340 -0.14600
H 	H 	0.38960 0.36600 0.29080 -0.56100
C 	C 	0.18720 0.20280 0.55650 0.56800
H 	H 	0.17830 0.16780 0.50720 -0.06300
H 	H 	0.13690 0.19310 0.57970 -0.11200
H 	H 	0.21610 0.19330 0.60220 -0.08600
C 	C 	0.44620 0.37030 0.81080 -0.06200
H 	H 	0.47470 0.38970 0.86580 -0.02000
H 	H 	0.42890 0.31460 0.80460 0.09900
H 	H 	0.40060 0.37750 0.81080 0.04900
C 	C 	0.64080 0.48850 0.55940 0.05800
H 	H 	0.62810 0.50070 0.50180 -0.01200
H 	H 	0.69760 0.51170 0.56460 -0.01200
H 	H 	0.62200 0.51010 0.60460 -0.02100
S 	S 	0.33150 0.25470 0.37530 -0.15600
S 	S 	0.24273 0.30203 0.52070 -0.42700
S 	S 	0.50670 0.42130 0.72540 0.08700
S 	S 	0.59460 0.38460 0.57230 -0.19200
O 	O 	0.25030 0.19190 0.75020 -0.40400
H 	H 	0.20950 0.18840 0.77130 0.24100
O 	O 	0.30200 0.33500 0.74300 -0.18900
C 	C 	0.45170 0.31590 0.49390 -0.06500
C 	C 	0.37330 0.29020 0.47800 -0.02200
C 	C 	0.32180 0.27290 0.54730 -0.00300
C 	C 	0.34890 0.28150 0.63250 0.00200
C 	C 	0.42730 0.30720 0.64840 -0.01400
C 	C 	0.47870 0.32430 0.57910 0.08800
C 	C 	0.29100 0.26020 0.70970 0.23500
C 	C 	0.38100 0.37530 0.32600 -0.17500
H 	H 	0.34030 0.38960 0.33240 0.17900
H 	H 	0.39520 0.37810 0.26440 0.48500
H 	H 	0.42690 0.41100 0.36000 0.08400
C 	C 	0.22520 0.32400 0.48520 0.64300
H 	H 	0.28040 0.36460 0.48040 -0.07900
H 	H 	0.19800 0.34260 0.52310 -0.10300
H 	H 	0.20120 0.31260 0.42720 -0.13800
C 	C 	0.49400 0.41000 0.77600 -0.34200
H 	H 	0.55120 0.43630 0.77310 0.08300
H 	H 	0.47850 0.41920 0.83390 0.15200
H 	H 	0.47440 0.43080 0.73120 0.07200
C 	C 	0.62900 0.46000 0.59100 -0.30700
H 	H 	0.66190 0.48340 0.64280 0.09700
H 	H 	0.59080 0.47720 0.58650 0.11000
H 	H 	0.66250 0.47650 0.53890 0.10200
S 	S 	0.34520 0.28030 0.36340 0.07300
S 	S 	0.21830 0.23890 0.52950 -0.34400
S 	S 	0.45520 0.31070 0.76090 -0.09200
S 	S 	0.58050 0.35680 0.59970 0.20500
Eu	Eu	0.33933 0.55683 0.71111 2.00300
O 	O 	0.37830 0.51610 0.83650 -0.54600
O 	O 	0.36730 0.57450 0.95670 -0.56400
O 	O 	0.50330 0.25600 0.40320 -0.52200
O 	O 	0.54210 0.38050 0.37050 -0.53700
O 	O 	0.32580 0.74310 0.79950 -0.81300
H 	H 	0.32280 0.78910 0.82180 0.17000
S 	S 	0.56210 0.65799 0.89213 -0.04400
S 	S 	0.31628 0.38532 0.01185 0.03000
C 	C 	0.46250 0.85470 0.91340 0.47200
C 	C 	0.48140 0.93050 0.95980 -0.13800
C 	C 	0.55200 0.97050 0.00710 0.00600
C 	C 	0.43000 0.95840 0.95360 0.01700
C 	C 	0.27530 0.84640 0.97740 -0.33000
H 	H 	0.27230 0.88120 0.02080 0.12100
H 	H 	0.22340 0.81260 0.95250 0.10800
H 	H 	0.29410 0.81430 0.00520 0.09600
C 	C 	0.58010 0.87620 0.10990 -0.37300
H 	H 	0.52470 0.83690 0.10340 0.12600
H 	H 	0.61020 0.85020 0.12230 0.13500
H 	H 	0.58630 0.91150 0.15810 0.11500
C 	C 	0.68070 0.18540 0.41450 0.44300
O 	O 	0.54470 0.90500 0.65970 -0.73500
H 	H 	0.58800 0.94200 0.67600 -0.01800
H 	H 	0.52100 0.92500 0.63400 0.30500
O 	O 	0.66390 0.94900 0.72760 -0.14800
C 	C 	0.67450 0.13180 0.48560 -0.02100
C 	C 	0.69390 0.07390 0.47280 0.02000
C 	C 	0.67850 0.01890 0.53770 0.18300
C 	C 	0.64380 0.02180 0.61530 -0.22100
C 	C 	0.62450 0.07980 0.62810 0.03400
C 	C 	0.63980 0.13480 0.56320 -0.10500
C 	C 	0.61460 0.95290 0.67680 0.49900
C 	C 	0.66690 0.00320 0.31270 0.49900
H 	H 	0.63560 0.95740 0.34940 -0.25300
H 	H 	0.68830 0.98830 0.26340 -0.14400
H 	H 	0.63400 0.02360 0.29080 -0.55700
C 	C 	0.79720 0.98440 0.55650 0.56800
H 	H 	0.83220 0.01050 0.50720 -0.06400
H 	H 	0.80690 0.94380 0.57970 -0.11100
H 	H 	0.80670 0.02280 0.60220 -0.08600
C 	C 	0.62970 0.07590 0.81080 -0.06200
H 	H 	0.61030 0.08500 0.86580 -0.02000
H 	H 	0.68540 0.11430 0.80460 0.09900
H 	H 	0.62250 0.02310 0.81080 0.04900
C 	C 	0.51150 0.15230 0.55940 0.05800
H 	H 	0.49930 0.12740 0.50180 -0.01200
H 	H 	0.48830 0.18590 0.56460 -0.01200
H 	H 	0.48990 0.11190 0.60460 -0.02100
S 	S 	0.74530 0.07680 0.37530 -0.15500
S 	S 	0.69797 0.94070 0.52070 -0.42700
S 	S 	0.57870 0.08540 0.72540 0.08800
S 	S 	0.61540 0.21000 0.57230 -0.19200
O 	O 	0.80810 0.05840 0.75020 -0.40400
H 	H 	0.81160 0.02110 0.77130 0.24000
O 	O 	0.66500 0.96700 0.74300 -0.18900
C 	C 	0.68410 0.13580 0.49390 -0.06500
C 	C 	0.70980 0.08310 0.47800 -0.02200
C 	C 	0.72710 0.04890 0.54730 -0.00300
C 	C 	0.71850 0.06740 0.63250 0.00200
C 	C 	0.69280 0.12010 0.64840 -0.01400
C 	C 	0.67570 0.15440 0.57910 0.08800
C 	C 	0.73980 0.03080 0.70970 0.23500
C 	C 	0.62470 0.00570 0.32600 -0.17300
H 	H 	0.61040 0.95070 0.33240 0.17700
H 	H 	0.62190 0.01710 0.26440 0.48200
H 	H 	0.58900 0.01590 0.36000 0.08300
C 	C 	0.67600 0.90120 0.48520 0.64100
H 	H 	0.63540 0.91580 0.48040 -0.07900
H 	H 	0.65740 0.85540 0.52310 -0.10300
H 	H 	0.68740 0.88860 0.42720 -0.13800
C 	C 	0.59000 0.08400 0.77600 -0.34200
H 	H 	0.56370 0.11490 0.77310 0.08300
H 	H 	0.58080 0.05930 0.83390 0.15200
H 	H 	0.56920 0.04360 0.73120 0.07200
C 	C 	0.54000 0.16900 0.59100 -0.30800
H 	H 	0.51660 0.17850 0.64280 0.09700
H 	H 	0.52280 0.11360 0.58650 0.11000
H 	H 	0.52350 0.18600 0.53890 0.10200
S 	S 	0.71970 0.06490 0.36340 0.07300
S 	S 	0.76110 0.97940 0.52950 -0.34300
S 	S 	0.68930 0.14450 0.76090 -0.09200
S 	S 	0.64320 0.22370 0.59970 0.20500
Eu	Eu	0.44317 0.78250 0.71111 2.00300
O 	O 	0.48390 0.86220 0.83650 -0.54600
O 	O 	0.42550 0.79280 0.95670 -0.56400
O 	O 	0.74400 0.24730 0.40320 -0.52200
O 	O 	0.61950 0.16160 0.37050 -0.53700
O 	O 	0.25690 0.58270 0.79950 -0.81300
H 	H 	0.21090 0.53370 0.82180 0.17000
S 	S 	0.34201 0.90411 0.89213 -0.04500
S 	S 	0.61468 0.93096 0.01185 0.03000
C 	C 	0.85470 0.39220 0.08660 0.47200
C 	C 	0.93050 0.44910 0.04020 -0.13800
C 	C 	0.97050 0.41850 0.99290 0.00600
C 	C 	0.95840 0.52840 0.04640 0.01700
C 	C 	0.84640 0.57110 0.02260 -0.33400
H 	H 	0.88120 0.60890 0.97920 0.12300
H 	H 	0.81260 0.58920 0.04750 0.10900
H 	H 	0.81430 0.52020 0.99480 0.09700
C 	C 	0.87620 0.29610 0.89010 -0.37300
H 	H 	0.83690 0.31220 0.89660 0.12500
H 	H 	0.85020 0.24000 0.87770 0.13500
H 	H 	0.91150 0.32520 0.84190 0.11500
C 	C 	0.18540 0.50470 0.58550 0.44300
O 	O 	0.90500 0.36030 0.34030 -0.73400
H 	H 	0.94200 0.35400 0.32400 -0.01800
H 	H 	0.92500 0.40400 0.36600 0.30500
O 	O 	0.94900 0.28510 0.27240 -0.14800
C 	C 	0.13180 0.45730 0.51440 -0.02100
C 	C 	0.07390 0.38000 0.52720 0.02000
C 	C 	0.01890 0.34040 0.46230 0.18300
C 	C 	0.02180 0.37800 0.38470 -0.22100
C 	C 	0.07980 0.45530 0.37190 0.03400
C 	C 	0.13480 0.49500 0.43680 -0.10500
C 	C 	0.95290 0.33830 0.32320 0.49900
C 	C 	0.00320 0.33630 0.68730 0.49800
H 	H 	0.95740 0.32180 0.65060 -0.25200
H 	H 	0.98830 0.30000 0.73660 -0.14400
H 	H 	0.02360 0.38960 0.70920 -0.55600
C 	C 	0.98440 0.18720 0.44350 0.56800
H 	H 	0.01050 0.17830 0.49280 -0.06300
H 	H 	0.94380 0.13690 0.42030 -0.11100
H 	H 	0.02280 0.21610 0.39780 -0.08600
C 	C 	0.07590 0.44620 0.18920 -0.06200
H 	H 	0.08500 0.47470 0.13420 -0.02000
H 	H 	0.11430 0.42890 0.19540 0.09900
H 	H 	0.02310 0.40060 0.18920 0.04900
C 	C 	0.15230 0.64080 0.44060 0.05800
H 	H 	0.12740 0.62810 0.49820 -0.01200
H 	H 	0.18590 0.69760 0.43540 -0.01200
H 	H 	0.11190 0.62200 0.39540 -0.02100
S 	S 	0.07680 0.33150 0.62470 -0.15500
S 	S 	0.94070 0.24273 0.47930 -0.42700
S 	S 	0.08540 0.50670 0.27460 0.08800
S 	S 	0.21000 0.59460 0.42770 -0.19200
O 	O 	0.05840 0.25030 0.24980 -0.40400
H 	H 	0.02110 0.20950 0.22870 0.24100
O 	O 	0.96700 0.30200 0.25700 -0.18900
C 	C 	0.13580 0.45170 0.50610 -0.06500
C 	C 	0.08310 0.37330 0.52200 -0.02200
C 	C 	0.04890 0.32180 0.45270 -0.00300
C 	C 	0.06740 0.34890 0.36750 0.00200
C 	C 	0.12010 0.42730 0.35160 -0.01400
C 	C 	0.15440 0.47870 0.42090 0.08800
C 	C 	0.03080 0.29100 0.29030 0.23500
C 	C 	0.00570 0.38100 0.67400 -0.17200
H 	H 	0.95070 0.34030 0.66760 0.17600
H 	H 	0.01710 0.39520 0.73560 0.48100
H 	H 	0.01590 0.42690 0.64000 0.08300
C 	C 	0.90120 0.22520 0.51480 0.64200
H 	H 	0.91580 0.28040 0.51960 -0.07900
H 	H 	0.85540 0.19800 0.47690 -0.10300
H 	H 	0.88860 0.20120 0.57280 -0.13800
C 	C 	0.08400 0.49400 0.22400 -0.34200
H 	H 	0.11490 0.55120 0.22690 0.08300
H 	H 	0.05930 0.47850 0.16610 0.15200
H 	H 	0.04360 0.47440 0.26880 0.07200
C 	C 	0.16900 0.62900 0.40900 -0.30800
H 	H 	0.17850 0.66190 0.35720 0.09700
H 	H 	0.11360 0.59080 0.41350 0.11000
H 	H 	0.18600 0.66250 0.46110 0.10200
S 	S 	0.06490 0.34520 0.63660 0.07300
S 	S 	0.97940 0.21830 0.47050 -0.34400
S 	S 	0.14450 0.45520 0.23910 -0.09200
S 	S 	0.22370 0.58050 0.40030 0.20500
Eu	Eu	0.78250 0.33933 0.28889 2.00300
O 	O 	0.86220 0.37830 0.16350 -0.54600
O 	O 	0.79280 0.36730 0.04330 -0.56400
O 	O 	0.24730 0.50330 0.59680 -0.52200
O 	O 	0.16160 0.54210 0.62950 -0.53700
O 	O 	0.58270 0.32580 0.20050 -0.81300
H 	H 	0.53370 0.32280 0.17820 0.17000
S 	S 	0.90411 0.56210 0.10787 -0.04400
S 	S 	0.93096 0.31628 0.98815 0.02900
C 	C 	0.60780 0.46250 0.08660 0.47200
C 	C 	0.55090 0.48140 0.04020 -0.13900
C 	C 	0.58150 0.55200 0.99290 0.00800
C 	C 	0.47160 0.43000 0.04640 0.01600
C 	C 	0.42890 0.27530 0.02260 -0.33600
H 	H 	0.39110 0.27230 0.97920 0.12400
H 	H 	0.41080 0.22340 0.04750 0.11000
H 	H 	0.47980 0.29410 0.99480 0.09800
C 	C 	0.70390 0.58010 0.89010 -0.37300
H 	H 	0.68780 0.52470 0.89660 0.12600
H 	H 	0.76000 0.61020 0.87770 0.13500
H 	H 	0.67480 0.58630 0.84190 0.11500
C 	C 	0.49530 0.68070 0.58550 0.44300
O 	O 	0.63970 0.54470 0.34030 -0.73400
H 	H 	0.64600 0.58800 0.32400 -0.01900
H 	H 	0.59600 0.52100 0.36600 0.30500
O 	O 	0.71490 0.66390 0.27240 -0.14900
C 	C 	0.54270 0.67450 0.51440 -0.02100
C 	C 	0.62000 0.69390 0.52720 0.02000
C 	C 	0.65960 0.67850 0.46230 0.18300
C 	C 	0.62200 0.64380 0.38470 -0.22000
C 	C 	0.54470 0.62450 0.37190 0.03400
C 	C 	0.50500 0.63980 0.43680 -0.10500
C 	C 	0.66170 0.61460 0.32320 0.49900
C 	C 	0.66370 0.66690 0.68730 0.50300
H 	H 	0.67820 0.63560 0.65060 -0.25500
H 	H 	0.70000 0.68830 0.73660 -0.14600
H 	H 	0.61040 0.63400 0.70920 -0.56100
C 	C 	0.81280 0.79720 0.44350 0.56800
H 	H 	0.82170 0.83220 0.49280 -0.06300
H 	H 	0.86310 0.80690 0.42030 -0.11200
H 	H 	0.78390 0.80670 0.39780 -0.08600
C 	C 	0.55380 0.62970 0.18920 -0.06200
H 	H 	0.52530 0.61030 0.13420 -0.02000
H 	H 	0.57110 0.68540 0.19540 0.09900
H 	H 	0.59940 0.62250 0.18920 0.04900
C 	C 	0.35920 0.51150 0.44060 0.05800
H 	H 	0.37190 0.49930 0.49820 -0.01200
H 	H 	0.30240 0.48830 0.43540 -0.01200
H 	H 	0.37800 0.48990 0.39540 -0.02100
S 	S 	0.66850 0.74530 0.62470 -0.15600
S 	S 	0.75727 0.69797 0.47930 -0.42700
S 	S 	0.49330 0.57870 0.27460 0.08700
S 	S 	0.40540 0.61540 0.42770 -0.19200
O 	O 	0.74970 0.80810 0.24980 -0.40400
H 	H 	0.79050 0.81160 0.22870 0.24100
O 	O 	0.69800 0.66500 0.25700 -0.18900
C 	C 	0.54830 0.68410 0.50610 -0.06500
C 	C 	0.62670 0.70980 0.52200 -0.02200
C 	C 	0.67820 0.72710 0.45270 -0.00300
C 	C 	0.65110 0.71850 0.36750 0.00200
C 	C 	0.57270 0.69280 0.35160 -0.01400
C 	C 	0.52130 0.67570 0.42090 0.08800
C 	C 	0.70900 0.73980 0.29030 0.23500
C 	C 	0.61900 0.62470 0.67400 -0.17500
H 	H 	0.65970 0.61040 0.66760 0.17900
H 	H 	0.60480 0.62190 0.73560 0.48500
H 	H 	0.57310 0.58900 0.64000 0.08400
C 	C 	0.77480 0.67600 0.51480 0.64300
H 	H 	0.71960 0.63540 0.51960 -0.07900
H 	H 	0.80200 0.65740 0.47690 -0.10300
H 	H 	0.79880 0.68740 0.57280 -0.13800
C 	C 	0.50600 0.59000 0.22400 -0.34200
H 	H 	0.44880 0.56370 0.22690 0.08300
H 	H 	0.52150 0.58080 0.16610 0.15200
H 	H 	0.52560 0.56920 0.26880 0.07200
C 	C 	0.37100 0.54000 0.40900 -0.30700
H 	H 	0.33810 0.51660 0.35720 0.09700
H 	H 	0.40920 0.52280 0.41350 0.11000
H 	H 	0.33750 0.52350 0.46110 0.10200
S 	S 	0.65480 0.71970 0.63660 0.07300
S 	S 	0.78170 0.76110 0.47050 -0.34400
S 	S 	0.54480 0.68930 0.23910 -0.09200
S 	S 	0.41950 0.64320 0.40030 0.20500
Eu	Eu	0.66067 0.44317 0.28889 2.00300
O 	O 	0.62170 0.48390 0.16350 -0.54600
O 	O 	0.63270 0.42550 0.04330 -0.56400
O 	O 	0.49670 0.74400 0.59680 -0.52200
O 	O 	0.45790 0.61950 0.62950 -0.53700
O 	O 	0.67420 0.25690 0.20050 -0.81300
H 	H 	0.67720 0.21090 0.17820 0.17000
S 	S 	0.43790 0.34201 0.10787 -0.04400
S 	S 	0.68372 0.61468 0.98815 0.03000
C 	C 	0.53750 0.14530 0.08660 0.47200
C 	C 	0.51860 0.06950 0.04020 -0.13800
C 	C 	0.44800 0.02950 0.99290 0.00600
C 	C 	0.57000 0.04160 0.04640 0.01700
C 	C 	0.72470 0.15360 0.02260 -0.33000
H 	H 	0.72770 0.11880 0.97920 0.12100
H 	H 	0.77660 0.18740 0.04750 0.10800
H 	H 	0.70590 0.18570 0.99480 0.09600
C 	C 	0.41990 0.12380 0.89010 -0.37300
H 	H 	0.47530 0.16310 0.89660 0.12600
H 	H 	0.38980 0.14980 0.87770 0.13500
H 	H 	0.41370 0.08850 0.84190 0.11500
C 	C 	0.31930 0.81460 0.58550 0.44300
O 	O 	0.45530 0.09500 0.34030 -0.73500
H 	H 	0.41200 0.05800 0.32400 -0.01800
H 	H 	0.47900 0.07500 0.36600 0.30500
O 	O 	0.33610 0.05100 0.27240 -0.14800
C 	C 	0.32550 0.86820 0.51440 -0.02100
C 	C 	0.30610 0.92610 0.52720 0.02000
C 	C 	0.32150 0.98110 0.46230 0.18300
C 	C 	0.35620 0.97820 0.38470 -0.22100
C 	C 	0.37550 0.92020 0.37190 0.03400
C 	C 	0.36020 0.86520 0.43680 -0.10500
C 	C 	0.38540 0.04710 0.32320 0.49900
C 	C 	0.33310 0.99680 0.68730 0.49900
H 	H 	0.36440 0.04260 0.65060 -0.25300
H 	H 	0.31170 0.01170 0.73660 -0.14400
H 	H 	0.36600 0.97640 0.70920 -0.55700
C 	C 	0.20280 0.01560 0.44350 0.56800
H 	H 	0.16780 0.98950 0.49280 -0.06400
H 	H 	0.19310 0.05620 0.42030 -0.11100
H 	H 	0.19330 0.97720 0.39780 -0.08600
C 	C 	0.37030 0.92410 0.18920 -0.06200
H 	H 	0.38970 0.91500 0.13420 -0.02000
H 	H 	0.31460 0.88570 0.19540 0.09900
H 	H 	0.37750 0.97690 0.18920 0.04900
C 	C 	0.48850 0.84770 0.44060 0.05800
H 	H 	0.50070 0.87260 0.49820 -0.01200
H 	H 	0.51170 0.81410 0.43540 -0.01200
H 	H 	0.51010 0.88810 0.39540 -0.02100
S 	S 	0.25470 0.92320 0.62470 -0.15500
S 	S 	0.30203 0.05930 0.47930 -0.42700
S 	S 	0.42130 0.91460 0.27460 0.08800
S 	S 	0.38460 0.79000 0.42770 -0.19200
O 	O 	0.19190 0.94160 0.24980 -0.40400
H 	H 	0.18840 0.97890 0.22870 0.24000
O 	O 	0.33500 0.03300 0.25700 -0.18900
C 	C 	0.31590 0.86420 0.50610 -0.06500
C 	C 	0.29020 0.91690 0.52200 -0.02200
C 	C 	0.27290 0.95110 0.45270 -0.00300
C 	C 	0.28150 0.93260 0.36750 0.00200
C 	C 	0.30720 0.87990 0.35160 -0.01400
C 	C 	0.32430 0.84560 0.42090 0.08800
C 	C 	0.26020 0.96920 0.29030 0.23500
C 	C 	0.37530 0.99430 0.67400 -0.17300
H 	H 	0.38960 0.04930 0.66760 0.17700
H 	H 	0.37810 0.98290 0.73560 0.48200
H 	H 	0.41100 0.98410 0.64000 0.08300
C 	C 	0.32400 0.09880 0.51480 0.64100
H 	H 	0.36460 0.08420 0.51960 -0.07900
H 	H 	0.34260 0.14460 0.47690 -0.10300
H 	H 	0.31260 0.11140 0.57280 -0.13800
C 	C 	0.41000 0.91600 0.22400 -0.34200
H 	H 	0.43630 0.88510 0.22690 0.08300
H 	H 	0.41920 0.94070 0.16610 0.15200
H 	H 	0.43080 0.95640 0.26880 0.07200
C 	C 	0.46000 0.83100 0.40900 -0.30800
H 	H 	0.48340 0.82150 0.35720 0.09700
H 	H 	0.47720 0.88640 0.41350 0.11000
H 	H 	0.47650 0.81400 0.46110 0.10200
S 	S 	0.28030 0.93510 0.63660 0.07300
S 	S 	0.23890 0.02060 0.47050 -0.34300
S 	S 	0.31070 0.85550 0.23910 -0.09200
S 	S 	0.35680 0.77630 0.40030 0.20500
Eu	Eu	0.55683 0.21750 0.28889 2.00300
O 	O 	0.51610 0.13780 0.16350 -0.54600
O 	O 	0.57450 0.20720 0.04330 -0.56400
O 	O 	0.25600 0.75270 0.59680 -0.52200
O 	O 	0.38050 0.83840 0.62950 -0.53700
O 	O 	0.74310 0.41730 0.20050 -0.81300
H 	H 	0.78910 0.46630 0.17820 0.17000
S 	S 	0.65799 0.09589 0.10787 -0.04500
S 	S 	0.38532 0.06904 0.98815 0.03000
Eu	Eu	0.33333 0.66667 0.91368 1.86400
O 	O 	0.33333 0.66667 0.64980 -0.78900
H 	H 	0.33333 0.66667 0.58460 0.18700
Eu	Eu	0.66667 0.33333 0.08632 1.86400
O 	O 	0.66667 0.33333 0.35020 -0.78900
H 	H 	0.66667 0.33333 0.41540 0.18700
