data_crystal

_cell_length_a 19.58560
_cell_length_b 19.58560
_cell_length_c 15.78430
_cell_angle_alpha 90.00000
_cell_angle_beta  90.00000
_cell_angle_gamma 120.00000

_symmetry_space_group_name_	'P 1'
_symmetry_space_group_name_H-M	'P 1'

loop_
_symmetry_equiv_pos_as_xyz
  x,y,z

loop_
_atom_site_label
_atom_site_type_symbol
_atom_site_fract_x
_atom_site_fract_y
_atom_site_fract_z
_atom_site_charge
Ag	Ag	0.39810 0.76914 0.77635 0.51500
Cl	Cl	0.28526 0.75629 0.69964 -0.54600
C 	C 	0.46450 0.60730 0.40970 0.45600
C 	C 	0.42700 0.47210 0.46050 0.01700
C 	C 	0.48330 0.55200 0.45820 -0.14500
C 	C 	0.55690 0.58080 0.49660 0.00800
C 	C 	0.27500 0.43960 0.49300 -0.33700
H 	H 	0.22310 0.42700 0.47130 0.10600
H 	H 	0.30030 0.49180 0.51960 0.11100
H 	H 	0.26870 0.40000 0.53500 0.11800
C 	C 	0.62930 0.71890 0.58810 -0.40900
H 	H 	0.65490 0.77650 0.58620 0.14100
H 	H 	0.65850 0.70330 0.62640 0.12200
H 	H 	0.57510 0.69700 0.60850 0.17000
C 	C 	0.49480 0.81720 0.09550 0.38000
C 	C 	0.54290 0.87360 0.02530 -0.01500
C 	C 	0.62130 0.93040 0.03940 -0.35000
C 	C 	0.66310 0.98600 0.97520 0.13700
C 	C 	0.62610 0.98340 0.89910 -0.12100
C 	C 	0.54790 0.92410 0.88380 -0.06900
C 	C 	0.50670 0.86910 0.94760 0.00300
C 	C 	0.66830 0.05080 0.83610 0.39000
S 	S 	0.66835 0.92378 0.13022 0.96600
S 	S 	0.76050 0.06020 0.98620 -0.21500
S 	S 	0.49060 0.92351 0.79326 0.19100
C 	C 	0.66290 0.99680 0.19110 -1.55300
H 	H 	0.69040 0.04740 0.16130 0.43300
H 	H 	0.68780 0.00170 0.24630 0.46300
H 	H 	0.60750 0.98170 0.19920 0.43800
C 	C 	0.81620 0.02030 0.93760 0.09200
H 	H 	0.79340 0.99800 0.88220 -0.10700
H 	H 	0.81450 0.97880 0.97380 0.08400
H 	H 	0.87110 0.06240 0.93020 -0.04400
C 	C 	0.55190 0.93980 0.70250 -0.71400
H 	H 	0.58820 0.99650 0.69560 0.25100
H 	H 	0.51880 0.91910 0.65190 0.23300
H 	H 	0.58220 0.91290 0.71050 0.22600
O 	O 	0.33140 0.23040 0.16580 -0.66500
H 	H 	0.32400 0.21200 0.11600 0.27500
H 	H 	0.31700 0.26500 0.16400 0.27700
C 	C 	0.35530 0.84700 0.95150 -0.35100
H 	H 	0.36630 0.87050 0.00820 0.13900
H 	H 	0.29850 0.81130 0.94520 0.11900
H 	H 	0.37340 0.88870 0.90870 0.10400
Eu	Eu	0.44483 0.66309 0.21598 2.00500
O 	O 	0.48433 0.61834 0.33317 -0.55400
O 	O 	0.42926 0.63680 0.44930 -0.55300
O 	O 	0.32680 0.58262 0.30034 -0.83400
H 	H 	0.32470 0.53370 0.32230 0.16900
O 	O 	0.49741 0.75518 0.10397 -0.53400
O 	O 	0.45589 0.83895 0.14030 -0.53200
O 	O 	0.71920 0.05190 0.78740 -0.32900
O 	O 	0.64498 0.09990 0.83958 -0.49700
S 	S 	0.33562 0.43953 0.40645 -0.06900
S 	S 	0.62806 0.68260 0.48596 0.01900
S 	S 	0.40672 0.79220 0.93756 -0.10300
C 	C 	0.19400 0.27120 0.14780 -1.97800
C 	C 	0.21100 0.19300 0.98200 -0.66900
C 	C 	0.50340 0.52720 0.77320 -0.68500
H 	H 	0.16550 0.29170 0.11540 0.49800
H 	H 	0.17170 0.25690 0.20500 0.58200
H 	H 	0.18920 0.22450 0.11940 0.57200
H 	H 	0.19030 0.22500 0.00610 0.12600
H 	H 	0.18200 0.13950 0.00420 0.16000
H 	H 	0.20570 0.19180 0.91990 0.23300
H 	H 	0.52260 0.51000 0.82150 0.20700
H 	H 	0.52470 0.58430 0.77660 0.18300
H 	H 	0.52080 0.51450 0.72030 0.21900
S 	S 	0.29560 0.34510 0.15470 0.25100
S 	S 	0.31330 0.23610 0.00870 0.17300
S 	S 	0.39330 0.47550 0.77560 0.14100
Ag	Ag	0.23086 0.62896 0.77635 0.51600
Cl	Cl	0.24371 0.52897 0.69964 -0.54500
C 	C 	0.39270 0.85720 0.40970 0.45700
C 	C 	0.52790 0.95490 0.46050 0.01800
C 	C 	0.44800 0.93130 0.45820 -0.14400
C 	C 	0.41920 0.97610 0.49660 0.00900
C 	C 	0.56040 0.83540 0.49300 -0.33600
H 	H 	0.57300 0.79610 0.47130 0.10700
H 	H 	0.50820 0.80850 0.51960 0.11200
H 	H 	0.60000 0.86870 0.53500 0.11900
C 	C 	0.28110 0.91040 0.58810 -0.40800
H 	H 	0.22350 0.87840 0.58620 0.14200
H 	H 	0.29670 0.95520 0.62640 0.12300
H 	H 	0.30300 0.87810 0.60850 0.17100
C 	C 	0.18280 0.67760 0.09550 0.38000
C 	C 	0.12640 0.66930 0.02530 -0.01600
C 	C 	0.06960 0.69090 0.03940 -0.34400
C 	C 	0.01400 0.67710 0.97520 0.12800
C 	C 	0.01660 0.64270 0.89910 -0.11700
C 	C 	0.07590 0.62380 0.88380 -0.07000
C 	C 	0.13090 0.63760 0.94760 0.00300
C 	C 	0.94920 0.61750 0.83610 0.38800
S 	S 	0.07622 0.74457 0.13022 0.96300
S 	S 	0.93980 0.70030 0.98620 -0.20900
S 	S 	0.07649 0.56709 0.79326 0.19100
C 	C 	0.00320 0.66610 0.19110 -1.54800
H 	H 	0.95260 0.64300 0.16130 0.43200
H 	H 	0.99830 0.68610 0.24630 0.46100
H 	H 	0.01830 0.62580 0.19920 0.43700
C 	C 	0.97970 0.79590 0.93760 0.09200
H 	H 	0.00200 0.79540 0.88220 -0.13600
H 	H 	0.02120 0.83570 0.97380 0.10000
H 	H 	0.93760 0.80870 0.93020 -0.04900
C 	C 	0.06020 0.61210 0.70250 -0.71500
H 	H 	0.00350 0.59170 0.69560 0.25100
H 	H 	0.08090 0.59970 0.65190 0.23300
H 	H 	0.08710 0.66930 0.71050 0.22700
O 	O 	0.76960 0.10100 0.16580 -0.66400
H 	H 	0.78800 0.11200 0.11600 0.27500
H 	H 	0.73500 0.05200 0.16400 0.27600
C 	C 	0.15300 0.50830 0.95150 -0.34600
H 	H 	0.12950 0.49580 0.00820 0.13700
H 	H 	0.18870 0.48720 0.94520 0.11800
H 	H 	0.11130 0.48470 0.90870 0.10200
Eu	Eu	0.33691 0.78174 0.21598 2.00600
O 	O 	0.38166 0.86599 0.33317 -0.55400
O 	O 	0.36320 0.79246 0.44930 -0.55300
O 	O 	0.41738 0.74418 0.30034 -0.83400
H 	H 	0.46630 0.79100 0.32230 0.16900
O 	O 	0.24482 0.74223 0.10397 -0.53300
O 	O 	0.16105 0.61694 0.14030 -0.53200
O 	O 	0.94810 0.66730 0.78740 -0.32800
O 	O 	0.90010 0.54508 0.83958 -0.49700
S 	S 	0.56047 0.89609 0.40645 -0.06900
S 	S 	0.31740 0.94546 0.48596 0.01900
S 	S 	0.20780 0.61452 0.93756 -0.10400
C 	C 	0.72880 0.92280 0.14780 -1.95000
C 	C 	0.80700 0.01800 0.98200 -0.55700
C 	C 	0.47280 0.97620 0.77320 -0.69900
H 	H 	0.70830 0.87380 0.11540 0.49300
H 	H 	0.74310 0.91480 0.20500 0.57400
H 	H 	0.77550 0.96470 0.11940 0.56600
H 	H 	0.77500 0.96530 0.00610 0.10400
H 	H 	0.86050 0.04250 0.00420 0.12300
H 	H 	0.80820 0.01390 0.91990 0.18700
H 	H 	0.49000 0.01260 0.82150 0.21300
H 	H 	0.41570 0.94040 0.77660 0.18700
H 	H 	0.48550 0.00630 0.72030 0.22500
S 	S 	0.65490 0.95050 0.15470 0.25200
S 	S 	0.76390 0.07720 0.00870 0.16100
S 	S 	0.52450 0.91780 0.77560 0.15000
Ag	Ag	0.37104 0.60190 0.77635 0.51600
Cl	Cl	0.47103 0.71474 0.69964 -0.54500
C 	C 	0.14280 0.53550 0.40970 0.45700
C 	C 	0.04510 0.57300 0.46050 0.01800
C 	C 	0.06870 0.51670 0.45820 -0.14400
C 	C 	0.02390 0.44310 0.49660 0.00900
C 	C 	0.16460 0.72500 0.49300 -0.33600
H 	H 	0.20390 0.77690 0.47130 0.10700
H 	H 	0.19150 0.69970 0.51960 0.11200
H 	H 	0.13130 0.73130 0.53500 0.11900
C 	C 	0.08960 0.37070 0.58810 -0.40900
H 	H 	0.12160 0.34510 0.58620 0.14200
H 	H 	0.04480 0.34150 0.62640 0.12300
H 	H 	0.12190 0.42490 0.60850 0.17100
C 	C 	0.32240 0.50520 0.09550 0.37900
C 	C 	0.33070 0.45710 0.02530 -0.01500
C 	C 	0.30910 0.37870 0.03940 -0.35700
C 	C 	0.32290 0.33690 0.97520 0.13700
C 	C 	0.35730 0.37390 0.89910 -0.11700
C 	C 	0.37620 0.45210 0.88380 -0.06700
C 	C 	0.36240 0.49330 0.94760 0.00500
C 	C 	0.38250 0.33170 0.83610 0.38600
S 	S 	0.25543 0.33165 0.13022 0.98600
S 	S 	0.29970 0.23950 0.98620 -0.20100
S 	S 	0.43291 0.50940 0.79326 0.19300
C 	C 	0.33390 0.33710 0.19110 -1.57900
H 	H 	0.35700 0.30960 0.16130 0.44200
H 	H 	0.31390 0.31220 0.24630 0.47200
H 	H 	0.37420 0.39250 0.19920 0.44500
C 	C 	0.20410 0.18380 0.93760 0.09000
H 	H 	0.20460 0.20660 0.88220 -0.13000
H 	H 	0.16430 0.18550 0.97380 0.10800
H 	H 	0.19130 0.12890 0.93020 -0.04700
C 	C 	0.38790 0.44810 0.70250 -0.70500
H 	H 	0.40830 0.41180 0.69560 0.24900
H 	H 	0.40030 0.48120 0.65190 0.23000
H 	H 	0.33070 0.41780 0.71050 0.22500
O 	O 	0.89900 0.66860 0.16580 -0.66300
H 	H 	0.88800 0.67600 0.11600 0.27300
H 	H 	0.94800 0.68300 0.16400 0.27600
C 	C 	0.49170 0.64470 0.95150 -0.34000
H 	H 	0.50420 0.63370 0.00820 0.13300
H 	H 	0.51280 0.70150 0.94520 0.11600
H 	H 	0.51530 0.62660 0.90870 0.10100
Eu	Eu	0.21826 0.55517 0.21598 2.00500
O 	O 	0.13401 0.51567 0.33317 -0.55400
O 	O 	0.20754 0.57074 0.44930 -0.55300
O 	O 	0.25582 0.67320 0.30034 -0.83400
H 	H 	0.20900 0.67530 0.32230 0.16900
O 	O 	0.25777 0.50259 0.10397 -0.53400
O 	O 	0.38306 0.54411 0.14030 -0.53200
O 	O 	0.33270 0.28080 0.78740 -0.32800
O 	O 	0.45492 0.35502 0.83958 -0.49600
S 	S 	0.10391 0.66438 0.40645 -0.06800
S 	S 	0.05454 0.37194 0.48596 0.01900
S 	S 	0.38548 0.59328 0.93756 -0.10400
C 	C 	0.07720 0.80600 0.14780 -1.94500
C 	C 	0.98200 0.78900 0.98200 -0.66900
C 	C 	0.02380 0.49660 0.77320 -0.70000
H 	H 	0.12620 0.83450 0.11540 0.49200
H 	H 	0.08520 0.82830 0.20500 0.57300
H 	H 	0.03530 0.81080 0.11940 0.56400
H 	H 	0.03470 0.80970 0.00610 0.13400
H 	H 	0.95750 0.81800 0.00420 0.15900
H 	H 	0.98610 0.79430 0.91990 0.24000
H 	H 	0.98740 0.47740 0.82150 0.21300
H 	H 	0.05960 0.47530 0.77660 0.18800
H 	H 	0.99370 0.47920 0.72030 0.22500
S 	S 	0.04950 0.70440 0.15470 0.25000
S 	S 	0.92280 0.68670 0.00870 0.18100
S 	S 	0.08220 0.60670 0.77560 0.15000
Ag	Ag	0.60190 0.23086 0.22365 0.51600
Cl	Cl	0.71474 0.24371 0.30036 -0.54500
C 	C 	0.53550 0.39270 0.59030 0.45700
C 	C 	0.57300 0.52790 0.53950 0.01800
C 	C 	0.51670 0.44800 0.54180 -0.14400
C 	C 	0.44310 0.41920 0.50340 0.00900
C 	C 	0.72500 0.56040 0.50700 -0.33600
H 	H 	0.77690 0.57300 0.52870 0.10700
H 	H 	0.69970 0.50820 0.48040 0.11200
H 	H 	0.73130 0.60000 0.46500 0.11900
C 	C 	0.37070 0.28110 0.41190 -0.40800
H 	H 	0.34510 0.22350 0.41380 0.14200
H 	H 	0.34150 0.29670 0.37360 0.12300
H 	H 	0.42490 0.30300 0.39150 0.17100
C 	C 	0.50520 0.18280 0.90450 0.38000
C 	C 	0.45710 0.12640 0.97470 -0.01500
C 	C 	0.37870 0.06960 0.96060 -0.35000
C 	C 	0.33690 0.01400 0.02480 0.13700
C 	C 	0.37390 0.01660 0.10090 -0.12100
C 	C 	0.45210 0.07590 0.11620 -0.06900
C 	C 	0.49330 0.13090 0.05240 0.00300
C 	C 	0.33170 0.94920 0.16390 0.39000
S 	S 	0.33165 0.07622 0.86978 0.96600
S 	S 	0.23950 0.93980 0.01380 -0.21500
S 	S 	0.50940 0.07649 0.20674 0.19100
C 	C 	0.33710 0.00320 0.80890 -1.55300
H 	H 	0.30960 0.95260 0.83870 0.43300
H 	H 	0.31220 0.99830 0.75370 0.46300
H 	H 	0.39250 0.01830 0.80080 0.43800
C 	C 	0.18380 0.97970 0.06240 0.09200
H 	H 	0.20660 0.00200 0.11780 -0.10700
H 	H 	0.18550 0.02120 0.02620 0.08400
H 	H 	0.12890 0.93760 0.06980 -0.04400
C 	C 	0.44810 0.06020 0.29750 -0.71400
H 	H 	0.41180 0.00350 0.30440 0.25100
H 	H 	0.48120 0.08090 0.34810 0.23300
H 	H 	0.41780 0.08710 0.28950 0.22600
O 	O 	0.66860 0.76960 0.83420 -0.66500
H 	H 	0.67600 0.78800 0.88400 0.27500
H 	H 	0.68300 0.73500 0.83600 0.27700
C 	C 	0.64470 0.15300 0.04850 -0.35100
H 	H 	0.63370 0.12950 0.99180 0.13900
H 	H 	0.70150 0.18870 0.05480 0.11900
H 	H 	0.62660 0.11130 0.09130 0.10400
Eu	Eu	0.55517 0.33691 0.78402 2.00500
O 	O 	0.51567 0.38166 0.66683 -0.55400
O 	O 	0.57074 0.36320 0.55070 -0.55300
O 	O 	0.67320 0.41738 0.69966 -0.83400
H 	H 	0.67530 0.46630 0.67770 0.16900
O 	O 	0.50259 0.24482 0.89603 -0.53400
O 	O 	0.54411 0.16105 0.85970 -0.53200
O 	O 	0.28080 0.94810 0.21260 -0.32900
O 	O 	0.35502 0.90010 0.16042 -0.49700
S 	S 	0.66438 0.56047 0.59355 -0.06900
S 	S 	0.37194 0.31740 0.51404 0.01900
S 	S 	0.59328 0.20780 0.06244 -0.10300
C 	C 	0.80600 0.72880 0.85220 -1.97800
C 	C 	0.78900 0.80700 0.01800 -0.66900
C 	C 	0.49660 0.47280 0.22680 -0.68500
H 	H 	0.83450 0.70830 0.88460 0.49800
H 	H 	0.82830 0.74310 0.79500 0.58200
H 	H 	0.81080 0.77550 0.88060 0.57200
H 	H 	0.80970 0.77500 0.99390 0.12600
H 	H 	0.81800 0.86050 0.99580 0.16000
H 	H 	0.79430 0.80820 0.08010 0.23300
H 	H 	0.47740 0.49000 0.17850 0.20700
H 	H 	0.47530 0.41570 0.22340 0.18300
H 	H 	0.47920 0.48550 0.27970 0.21900
S 	S 	0.70440 0.65490 0.84530 0.25100
S 	S 	0.68670 0.76390 0.99130 0.17300
S 	S 	0.60670 0.52450 0.22440 0.14100
Ag	Ag	0.76914 0.37104 0.22365 0.51600
Cl	Cl	0.75629 0.47103 0.30036 -0.54500
C 	C 	0.60730 0.14280 0.59030 0.45700
C 	C 	0.47210 0.04510 0.53950 0.01800
C 	C 	0.55200 0.06870 0.54180 -0.14400
C 	C 	0.58080 0.02390 0.50340 0.00900
C 	C 	0.43960 0.16460 0.50700 -0.33600
H 	H 	0.42700 0.20390 0.52870 0.10700
H 	H 	0.49180 0.19150 0.48040 0.11200
H 	H 	0.40000 0.13130 0.46500 0.11900
C 	C 	0.71890 0.08960 0.41190 -0.40800
H 	H 	0.77650 0.12160 0.41380 0.14200
H 	H 	0.70330 0.04480 0.37360 0.12300
H 	H 	0.69700 0.12190 0.39150 0.17100
C 	C 	0.81720 0.32240 0.90450 0.38000
C 	C 	0.87360 0.33070 0.97470 -0.01600
C 	C 	0.93040 0.30910 0.96060 -0.34400
C 	C 	0.98600 0.32290 0.02480 0.12800
C 	C 	0.98340 0.35730 0.10090 -0.11700
C 	C 	0.92410 0.37620 0.11620 -0.07000
C 	C 	0.86910 0.36240 0.05240 0.00300
C 	C 	0.05080 0.38250 0.16390 0.38800
S 	S 	0.92378 0.25543 0.86978 0.96300
S 	S 	0.06020 0.29970 0.01380 -0.20900
S 	S 	0.92351 0.43291 0.20674 0.19100
C 	C 	0.99680 0.33390 0.80890 -1.54800
H 	H 	0.04740 0.35700 0.83870 0.43200
H 	H 	0.00170 0.31390 0.75370 0.46100
H 	H 	0.98170 0.37420 0.80080 0.43700
C 	C 	0.02030 0.20410 0.06240 0.09200
H 	H 	0.99800 0.20460 0.11780 -0.13600
H 	H 	0.97880 0.16430 0.02620 0.10000
H 	H 	0.06240 0.19130 0.06980 -0.04900
C 	C 	0.93980 0.38790 0.29750 -0.71500
H 	H 	0.99650 0.40830 0.30440 0.25100
H 	H 	0.91910 0.40030 0.34810 0.23300
H 	H 	0.91290 0.33070 0.28950 0.22700
O 	O 	0.23040 0.89900 0.83420 -0.66400
H 	H 	0.21200 0.88800 0.88400 0.27500
H 	H 	0.26500 0.94800 0.83600 0.27600
C 	C 	0.84700 0.49170 0.04850 -0.34600
H 	H 	0.87050 0.50420 0.99180 0.13700
H 	H 	0.81130 0.51280 0.05480 0.11800
H 	H 	0.88870 0.51530 0.09130 0.10200
Eu	Eu	0.66309 0.21826 0.78402 2.00600
O 	O 	0.61834 0.13401 0.66683 -0.55400
O 	O 	0.63680 0.20754 0.55070 -0.55300
O 	O 	0.58262 0.25582 0.69966 -0.83400
H 	H 	0.53370 0.20900 0.67770 0.16900
O 	O 	0.75518 0.25777 0.89603 -0.53300
O 	O 	0.83895 0.38306 0.85970 -0.53200
O 	O 	0.05190 0.33270 0.21260 -0.32800
O 	O 	0.09990 0.45492 0.16042 -0.49700
S 	S 	0.43953 0.10391 0.59355 -0.06900
S 	S 	0.68260 0.05454 0.51404 0.01900
S 	S 	0.79220 0.38548 0.06244 -0.10400
C 	C 	0.27120 0.07720 0.85220 -1.95000
C 	C 	0.19300 0.98200 0.01800 -0.55700
C 	C 	0.52720 0.02380 0.22680 -0.69900
H 	H 	0.29170 0.12620 0.88460 0.49300
H 	H 	0.25690 0.08520 0.79500 0.57400
H 	H 	0.22450 0.03530 0.88060 0.56600
H 	H 	0.22500 0.03470 0.99390 0.10400
H 	H 	0.13950 0.95750 0.99580 0.12300
H 	H 	0.19180 0.98610 0.08010 0.18700
H 	H 	0.51000 0.98740 0.17850 0.21300
H 	H 	0.58430 0.05960 0.22340 0.18700
H 	H 	0.51450 0.99370 0.27970 0.22500
S 	S 	0.34510 0.04950 0.84530 0.25200
S 	S 	0.23610 0.92280 0.99130 0.16100
S 	S 	0.47550 0.08220 0.22440 0.15000
Ag	Ag	0.62896 0.39810 0.22365 0.51600
Cl	Cl	0.52897 0.28526 0.30036 -0.54500
C 	C 	0.85720 0.46450 0.59030 0.45700
C 	C 	0.95490 0.42700 0.53950 0.01800
C 	C 	0.93130 0.48330 0.54180 -0.14400
C 	C 	0.97610 0.55690 0.50340 0.00900
C 	C 	0.83540 0.27500 0.50700 -0.33600
H 	H 	0.79610 0.22310 0.52870 0.10700
H 	H 	0.80850 0.30030 0.48040 0.11200
H 	H 	0.86870 0.26870 0.46500 0.11900
C 	C 	0.91040 0.62930 0.41190 -0.40900
H 	H 	0.87840 0.65490 0.41380 0.14200
H 	H 	0.95520 0.65850 0.37360 0.12300
H 	H 	0.87810 0.57510 0.39150 0.17100
C 	C 	0.67760 0.49480 0.90450 0.37900
C 	C 	0.66930 0.54290 0.97470 -0.01500
C 	C 	0.69090 0.62130 0.96060 -0.35700
C 	C 	0.67710 0.66310 0.02480 0.13700
C 	C 	0.64270 0.62610 0.10090 -0.11700
C 	C 	0.62380 0.54790 0.11620 -0.06700
C 	C 	0.63760 0.50670 0.05240 0.00500
C 	C 	0.61750 0.66830 0.16390 0.38600
S 	S 	0.74457 0.66835 0.86978 0.98600
S 	S 	0.70030 0.76050 0.01380 -0.20100
S 	S 	0.56709 0.49060 0.20674 0.19300
C 	C 	0.66610 0.66290 0.80890 -1.57900
H 	H 	0.64300 0.69040 0.83870 0.44200
H 	H 	0.68610 0.68780 0.75370 0.47200
H 	H 	0.62580 0.60750 0.80080 0.44500
C 	C 	0.79590 0.81620 0.06240 0.09000
H 	H 	0.79540 0.79340 0.11780 -0.13000
H 	H 	0.83570 0.81450 0.02620 0.10800
H 	H 	0.80870 0.87110 0.06980 -0.04700
C 	C 	0.61210 0.55190 0.29750 -0.70500
H 	H 	0.59170 0.58820 0.30440 0.24900
H 	H 	0.59970 0.51880 0.34810 0.23000
H 	H 	0.66930 0.58220 0.28950 0.22500
O 	O 	0.10100 0.33140 0.83420 -0.66300
H 	H 	0.11200 0.32400 0.88400 0.27300
H 	H 	0.05200 0.31700 0.83600 0.27600
C 	C 	0.50830 0.35530 0.04850 -0.34000
H 	H 	0.49580 0.36630 0.99180 0.13300
H 	H 	0.48720 0.29850 0.05480 0.11600
H 	H 	0.48470 0.37340 0.09130 0.10100
Eu	Eu	0.78174 0.44483 0.78402 2.00500
O 	O 	0.86599 0.48433 0.66683 -0.55400
O 	O 	0.79246 0.42926 0.55070 -0.55300
O 	O 	0.74418 0.32680 0.69966 -0.83400
H 	H 	0.79100 0.32470 0.67770 0.16900
O 	O 	0.74223 0.49741 0.89603 -0.53400
O 	O 	0.61694 0.45589 0.85970 -0.53200
O 	O 	0.66730 0.71920 0.21260 -0.32800
O 	O 	0.54508 0.64498 0.16042 -0.49600
S 	S 	0.89609 0.33562 0.59355 -0.06800
S 	S 	0.94546 0.62806 0.51404 0.01900
S 	S 	0.61452 0.40672 0.06244 -0.10400
C 	C 	0.92280 0.19400 0.85220 -1.94500
C 	C 	0.01800 0.21100 0.01800 -0.66900
C 	C 	0.97620 0.50340 0.22680 -0.70000
H 	H 	0.87380 0.16550 0.88460 0.49200
H 	H 	0.91480 0.17170 0.79500 0.57300
H 	H 	0.96470 0.18920 0.88060 0.56400
H 	H 	0.96530 0.19030 0.99390 0.13400
H 	H 	0.04250 0.18200 0.99580 0.15900
H 	H 	0.01390 0.20570 0.08010 0.24000
H 	H 	0.01260 0.52260 0.17850 0.21300
H 	H 	0.94040 0.52470 0.22340 0.18800
H 	H 	0.00630 0.52080 0.27970 0.22500
S 	S 	0.95050 0.29560 0.84530 0.25000
S 	S 	0.07720 0.31330 0.99130 0.18100
S 	S 	0.91780 0.39330 0.22440 0.15000
Eu	Eu	0.33333 0.66667 0.40918 1.92100
O 	O 	0.33333 0.66667 0.15790 -0.79600
H 	H 	0.33333 0.66667 0.09450 0.19300
Eu	Eu	0.66667 0.33333 0.59082 1.92100
O 	O 	0.66667 0.33333 0.84210 -0.79600
H 	H 	0.66667 0.33333 0.90550 0.19300
