data_crystal

_cell_length_a 12.96770
_cell_length_b 12.96770
_cell_length_c 13.54500
_cell_angle_alpha 90.00000
_cell_angle_beta  90.00000
_cell_angle_gamma 90.00000

_symmetry_space_group_name_	'P 1'
_symmetry_space_group_name_H-M	'P 1'

loop_
_symmetry_equiv_pos_as_xyz
  x,y,z

loop_
_atom_site_label
_atom_site_type_symbol
_atom_site_fract_x
_atom_site_fract_y
_atom_site_fract_z
_atom_site_charge
Ag	Ag	0.83191 0.33163 0.74740 0.53000
Ag	Ag	0.66809 0.16837 0.74740 0.53000
Ag	Ag	0.66837 0.33191 0.24740 0.53100
Ag	Ag	0.83163 0.16809 0.24740 0.53100
Ag	Ag	0.16809 0.66837 0.25260 0.53100
Ag	Ag	0.33191 0.83163 0.25260 0.53100
Ag	Ag	0.33163 0.66809 0.75260 0.53100
Ag	Ag	0.16837 0.83191 0.75260 0.53100
H 	H 	0.07580 0.31450 0.78220 0.11700
H 	H 	0.10630 0.36920 0.68030 0.12100
H 	H 	0.15610 0.40830 0.78180 0.13300
H 	H 	0.02890 0.78880 0.99120 0.13800
H 	H 	0.10180 0.85570 0.06190 0.11900
H 	H 	0.00760 0.79190 0.10760 0.11300
H 	H 	0.42420 0.18550 0.78220 0.11700
H 	H 	0.39370 0.13080 0.68030 0.12100
H 	H 	0.34390 0.09170 0.78180 0.13300
H 	H 	0.47110 0.71120 0.99120 0.13900
H 	H 	0.39820 0.64430 0.06190 0.11900
H 	H 	0.49240 0.70810 0.10760 0.11300
H 	H 	0.68550 0.57580 0.28220 0.11700
H 	H 	0.63080 0.60630 0.18030 0.12000
H 	H 	0.59170 0.65610 0.28180 0.13300
H 	H 	0.21120 0.52890 0.49120 0.13900
H 	H 	0.14430 0.60180 0.56190 0.11900
H 	H 	0.20810 0.50760 0.60760 0.11300
H 	H 	0.81450 0.92420 0.28220 0.11600
H 	H 	0.86920 0.89370 0.18030 0.12000
H 	H 	0.90830 0.84390 0.28180 0.13300
H 	H 	0.28880 0.97110 0.49120 0.13900
H 	H 	0.35570 0.89820 0.56190 0.11900
H 	H 	0.29190 0.99240 0.60760 0.11300
H 	H 	0.92420 0.68550 0.21780 0.11700
H 	H 	0.89370 0.63080 0.31970 0.12100
H 	H 	0.84390 0.59170 0.21820 0.13300
H 	H 	0.97110 0.21120 0.00880 0.13800
H 	H 	0.89820 0.14430 0.93810 0.11900
H 	H 	0.99240 0.20810 0.89240 0.11300
H 	H 	0.57580 0.81450 0.21780 0.11700
H 	H 	0.60630 0.86920 0.31970 0.12100
H 	H 	0.65610 0.90830 0.21820 0.13300
H 	H 	0.52890 0.28880 0.00880 0.13900
H 	H 	0.60180 0.35570 0.93810 0.11900
H 	H 	0.50760 0.29190 0.89240 0.11300
H 	H 	0.31450 0.42420 0.71780 0.11700
H 	H 	0.36920 0.39370 0.81970 0.12000
H 	H 	0.40830 0.34390 0.71820 0.13300
H 	H 	0.78880 0.47110 0.50880 0.13900
H 	H 	0.85570 0.39820 0.43810 0.11900
H 	H 	0.79190 0.49240 0.39240 0.11300
H 	H 	0.18550 0.07580 0.71780 0.11600
H 	H 	0.13080 0.10630 0.81970 0.12000
H 	H 	0.09170 0.15610 0.71820 0.13300
H 	H 	0.71120 0.02890 0.50880 0.13900
H 	H 	0.64430 0.10180 0.43810 0.11900
H 	H 	0.70810 0.00760 0.39240 0.11300
C 	C 	0.12300 0.62240 0.86390 0.34200
C 	C 	0.05740 0.55910 0.93430 -0.08900
C 	C 	0.99660 0.48230 0.89770 0.00800
C 	C 	0.05830 0.58120 0.03710 0.01600
C 	C 	0.09370 0.38030 0.75090 -0.36500
C 	C 	0.06120 0.79220 0.05660 -0.35100
C 	C 	0.37700 0.87760 0.86390 0.34200
C 	C 	0.44260 0.94090 0.93430 -0.08800
C 	C 	0.50340 0.01770 0.89770 0.00800
C 	C 	0.44170 0.91880 0.03710 0.01500
C 	C 	0.40630 0.11970 0.75090 -0.36500
C 	C 	0.43880 0.70780 0.05660 -0.35300
C 	C 	0.37760 0.62300 0.36390 0.34100
C 	C 	0.44090 0.55740 0.43430 -0.08700
C 	C 	0.51770 0.49660 0.39770 0.00700
C 	C 	0.41880 0.55830 0.53710 0.01500
C 	C 	0.61970 0.59370 0.25090 -0.36500
C 	C 	0.20780 0.56120 0.55660 -0.35400
C 	C 	0.12240 0.87700 0.36390 0.34100
C 	C 	0.05910 0.94260 0.43430 -0.08700
C 	C 	0.98230 0.00340 0.39770 0.00700
C 	C 	0.08120 0.94170 0.53710 0.01500
C 	C 	0.88030 0.90630 0.25090 -0.36400
C 	C 	0.29220 0.93880 0.55660 -0.35400
C 	C 	0.87700 0.37760 0.13610 0.34200
C 	C 	0.94260 0.44090 0.06570 -0.08900
C 	C 	0.00340 0.51770 0.10230 0.00800
C 	C 	0.94170 0.41880 0.96290 0.01600
C 	C 	0.90630 0.61970 0.24910 -0.36500
C 	C 	0.93880 0.20780 0.94340 -0.35100
C 	C 	0.62300 0.12240 0.13610 0.34200
C 	C 	0.55740 0.05910 0.06570 -0.08800
C 	C 	0.49660 0.98230 0.10230 0.00800
C 	C 	0.55830 0.08120 0.96290 0.01500
C 	C 	0.59370 0.88030 0.24910 -0.36500
C 	C 	0.56120 0.29220 0.94340 -0.35300
C 	C 	0.62240 0.37700 0.63610 0.34100
C 	C 	0.55910 0.44260 0.56570 -0.08700
C 	C 	0.48230 0.50340 0.60230 0.00700
C 	C 	0.58120 0.44170 0.46290 0.01500
C 	C 	0.38030 0.40630 0.74910 -0.36500
C 	C 	0.79220 0.43880 0.44340 -0.35400
C 	C 	0.87760 0.12300 0.63610 0.34100
C 	C 	0.94090 0.05740 0.56570 -0.08700
C 	C 	0.01770 0.99660 0.60230 0.00700
C 	C 	0.91880 0.05830 0.46290 0.01500
C 	C 	0.11970 0.09370 0.74910 -0.36400
C 	C 	0.70780 0.06120 0.44340 -0.35400
S 	S 	0.98860 0.47040 0.76640 -0.03400
S 	S 	0.14580 0.68070 0.07350 -0.08300
S 	S 	0.51140 0.02960 0.76640 -0.03400
S 	S 	0.35420 0.81930 0.07350 -0.08300
S 	S 	0.52960 0.48860 0.26640 -0.03400
S 	S 	0.31930 0.64580 0.57350 -0.08300
S 	S 	0.97040 0.01140 0.26640 -0.03500
S 	S 	0.18070 0.85420 0.57350 -0.08300
S 	S 	0.01140 0.52960 0.23360 -0.03400
S 	S 	0.85420 0.31930 0.92650 -0.08300
S 	S 	0.48860 0.97040 0.23360 -0.03400
S 	S 	0.64580 0.18070 0.92650 -0.08300
S 	S 	0.47040 0.51140 0.73360 -0.03400
S 	S 	0.68070 0.35420 0.42650 -0.08300
S 	S 	0.02960 0.98860 0.73360 -0.03500
S 	S 	0.81930 0.14580 0.42650 -0.08300
O 	O 	0.08590 0.70530 0.83690 -0.35800
O 	O 	0.20960 0.58530 0.84140 -0.35500
O 	O 	0.41410 0.79470 0.83690 -0.35800
O 	O 	0.29040 0.91470 0.84140 -0.35600
O 	O 	0.29470 0.58590 0.33690 -0.35800
O 	O 	0.41470 0.70960 0.34140 -0.35500
O 	O 	0.20530 0.91410 0.33690 -0.35800
O 	O 	0.08530 0.79040 0.34140 -0.35500
O 	O 	0.91410 0.29470 0.16310 -0.35800
O 	O 	0.79040 0.41470 0.15860 -0.35500
O 	O 	0.58590 0.20530 0.16310 -0.35800
O 	O 	0.70960 0.08530 0.15860 -0.35600
O 	O 	0.70530 0.41410 0.66310 -0.35800
O 	O 	0.58530 0.29040 0.65860 -0.35500
O 	O 	0.79470 0.08590 0.66310 -0.35800
O 	O 	0.91470 0.20960 0.65860 -0.35500
