data_crystal

_cell_length_a 10.14300
_cell_length_b 16.12700
_cell_length_c 22.93700
_cell_angle_alpha 79.01500
_cell_angle_beta  84.96300
_cell_angle_gamma 77.48400

_symmetry_space_group_name_	'P 1'
_symmetry_space_group_name_H-M	'P 1'

loop_
_symmetry_equiv_pos_as_xyz
  x,y,z

loop_
_atom_site_label
_atom_site_type_symbol
_atom_site_fract_x
_atom_site_fract_y
_atom_site_fract_z
_atom_site_charge
Cd	Cd	0.20449 0.97191 0.21140 1.25100
Cd	Cd	0.13597 0.44438 0.19551 1.21600
Cd	Cd	0.42404 0.03628 0.30690 1.20500
Cd	Cd	0.49880 0.68616 0.23099 1.20200
Cd	Cd	0.32378 0.52314 0.28797 1.23400
C 	C 	0.93420 0.02900 0.17910 0.24700
C 	C 	0.80230 0.06440 0.15040 0.00100
C 	C 	0.79480 0.12620 0.09900 -0.08500
H 	H 	0.87040 0.14930 0.08510 0.08300
C 	C 	0.67730 0.15440 0.06780 0.04800
C 	C 	0.56480 0.12350 0.09040 -0.07800
H 	H 	0.48590 0.14190 0.06970 0.07100
C 	C 	0.56520 0.06470 0.14400 -0.03500
C 	C 	0.68510 0.03410 0.17300 -0.10600
H 	H 	0.68790 0.99320 0.20770 0.10600
C 	C 	0.44050 0.03200 0.16720 0.25500
C 	C 	0.43210 0.41640 0.17380 0.36800
C 	C 	0.56230 0.39800 0.13850 -0.09400
C 	C 	0.57330 0.35610 0.09040 -0.02400
H 	H 	0.49840 0.33790 0.08060 0.05600
C 	C 	0.69410 0.34060 0.05640 0.01100
C 	C 	0.80790 0.36630 0.07290 -0.03800
H 	H 	0.88970 0.35530 0.05120 0.06500
C 	C 	0.79830 0.40830 0.12200 -0.06600
C 	C 	0.67450 0.42610 0.15410 0.00900
H 	H 	0.66640 0.45620 0.18540 0.03900
C 	C 	0.92010 0.42760 0.14250 0.29200
C 	C 	0.70190 0.29860 0.00370 -0.00400
C 	C 	0.72250 0.34560 0.94670 -0.01900
H 	H 	0.73630 0.40150 0.94350 0.04600
C 	C 	0.72340 0.31350 0.89550 -0.09700
C 	C 	0.70250 0.22690 0.90050 -0.08000
C 	C 	0.68570 0.17980 0.95840 -0.02300
H 	H 	0.67560 0.12300 0.96230 0.04500
C 	C 	0.68360 0.21400 0.00890 -0.01700
C 	C 	0.74650 0.36900 0.83760 0.41600
C 	C 	0.71340 0.17860 0.84910 0.39300
C 	C 	0.28390 0.86910 0.34430 0.38200
C 	C 	0.24430 0.81210 0.40050 -0.06400
C 	C 	0.24430 0.72610 0.40310 -0.03200
C 	C 	0.20840 0.67760 0.45620 -0.05100
H 	H 	0.20700 0.61980 0.45750 0.06700
C 	C 	0.17360 0.71330 0.50860 0.00300
C 	C 	0.16910 0.80100 0.50430 -0.00700
C 	C 	0.20210 0.84890 0.45060 -0.03700
H 	H 	0.19580 0.90790 0.44790 0.03400
C 	C 	0.29410 0.67980 0.35020 0.36200
C 	C 	0.14340 0.84540 0.55670 -0.01200
C 	C 	0.01950 0.85440 0.59050 -0.02400
H 	H 	0.95010 0.83050 0.58120 0.04600
C 	C 	0.00200 0.89890 0.63770 -0.09700
C 	C 	0.10570 0.93200 0.65410 0.03300
H 	H 	0.09350 0.95970 0.68680 0.05200
C 	C 	0.23070 0.92320 0.62050 -0.12000
C 	C 	0.24880 0.88190 0.57340 -0.00300
H 	H 	0.33080 0.87710 0.55140 -0.01900
C 	C 	0.35070 0.95240 0.63710 0.33900
C 	C 	0.86520 0.91340 0.66930 0.33800
C 	C 	0.15790 0.65230 0.56580 0.00200
C 	C 	0.03330 0.63630 0.58940 -0.02600
H 	H 	0.95570 0.66600 0.56990 0.05200
C 	C 	0.02100 0.57690 0.64140 -0.10200
C 	C 	0.13530 0.53400 0.67030 0.02900
H 	H 	0.12760 0.49610 0.70590 0.03600
C 	C 	0.26190 0.54600 0.64770 -0.09500
C 	C 	0.27250 0.60690 0.59530 -0.02000
H 	H 	0.35710 0.61660 0.58030 0.05600
C 	C 	0.38730 0.49690 0.67890 0.38200
C 	C 	0.88530 0.55780 0.66350 0.32600
O 	O 	0.94540 0.96720 0.22210 -0.26000
O 	O 	0.03350 0.06250 0.15950 -0.35500
O 	O 	0.43650 0.98820 0.22000 -0.46600
O 	O 	0.34090 0.04820 0.13570 -0.35200
O 	O 	0.33150 0.40670 0.14940 -0.44300
O 	O 	0.42990 0.43420 0.22420 -0.47100
O 	O 	0.91140 0.46430 0.18640 -0.39600
O 	O 	0.03380 0.40290 0.11620 -0.35300
O 	O 	0.83240 0.41310 0.83600 -0.43500
O 	O 	0.68130 0.36890 0.79390 -0.55900
O 	O 	0.61720 0.18830 0.81770 -0.48500
O 	O 	0.81730 0.12820 0.84340 -0.40600
O 	O 	0.21170 0.88260 0.30070 -0.40600
O 	O 	0.38060 0.90380 0.34720 -0.43700
O 	O 	0.38830 0.70530 0.31840 -0.44100
O 	O 	0.23410 0.62170 0.34470 -0.40800
O 	O 	0.45280 0.94930 0.60280 -0.52500
O 	O 	0.34400 0.97840 0.68600 -0.38700
O 	O 	0.85010 0.92500 0.72210 -0.43000
O 	O 	0.76210 0.91450 0.63910 -0.43000
O 	O 	0.49550 0.51970 0.65960 -0.43200
O 	O 	0.37650 0.43770 0.72240 -0.47200
O 	O 	0.87980 0.51130 0.71490 -0.52900
O 	O 	0.78880 0.57970 0.63110 -0.34600
Cd	Cd	0.79551 0.02809 0.78860 1.23800
Cd	Cd	0.86403 0.55562 0.80449 1.21800
Cd	Cd	0.57596 0.96372 0.69310 1.21900
Cd	Cd	0.50120 0.31384 0.76901 1.20100
Cd	Cd	0.67622 0.47686 0.71203 1.23400
C 	C 	0.06580 0.97100 0.82090 0.34400
C 	C 	0.19770 0.93560 0.84960 -0.09300
C 	C 	0.20520 0.87380 0.90100 -0.01300
H 	H 	0.12960 0.85070 0.91490 0.06100
C 	C 	0.32270 0.84560 0.93220 -0.00500
C 	C 	0.43520 0.87650 0.90960 -0.00500
H 	H 	0.51410 0.85810 0.93030 0.05100
C 	C 	0.43480 0.93530 0.85600 -0.13000
C 	C 	0.31490 0.96590 0.82700 0.08100
H 	H 	0.31210 0.00680 0.79230 -0.00000
C 	C 	0.55950 0.96800 0.83280 0.35500
C 	C 	0.56790 0.58360 0.82620 0.36700
C 	C 	0.43770 0.60200 0.86150 -0.09100
C 	C 	0.42670 0.64390 0.90960 -0.02900
H 	H 	0.50160 0.66210 0.91940 0.05900
C 	C 	0.30590 0.65940 0.94360 0.01800
C 	C 	0.19210 0.63370 0.92710 -0.04400
H 	H 	0.11030 0.64470 0.94880 0.06700
C 	C 	0.20170 0.59170 0.87800 -0.06200
C 	C 	0.32550 0.57390 0.84590 0.00500
H 	H 	0.33360 0.54380 0.81460 0.04000
C 	C 	0.07990 0.57240 0.85750 0.28400
C 	C 	0.29810 0.70140 0.99630 -0.01700
C 	C 	0.27750 0.65440 0.05330 -0.00800
H 	H 	0.26370 0.59850 0.05650 0.04200
C 	C 	0.27660 0.68650 0.10450 -0.10400
C 	C 	0.29750 0.77310 0.09950 -0.06700
C 	C 	0.31430 0.82020 0.04160 -0.04000
H 	H 	0.32440 0.87700 0.03770 0.06100
C 	C 	0.31640 0.78600 0.99110 0.01100
C 	C 	0.25350 0.63100 0.16240 0.41900
C 	C 	0.28660 0.82140 0.15090 0.38800
C 	C 	0.71610 0.13090 0.65570 0.38500
C 	C 	0.75570 0.18790 0.59950 -0.07300
C 	C 	0.75570 0.27390 0.59690 -0.03000
C 	C 	0.79160 0.32240 0.54380 -0.05500
H 	H 	0.79300 0.38020 0.54250 0.06800
C 	C 	0.82640 0.28670 0.49140 0.00600
C 	C 	0.83090 0.19900 0.49570 -0.01000
C 	C 	0.79790 0.15110 0.54940 -0.03500
H 	H 	0.80420 0.09210 0.55210 0.02000
C 	C 	0.70590 0.32020 0.64980 0.36100
C 	C 	0.85660 0.15460 0.44330 -0.02300
C 	C 	0.98050 0.14560 0.40950 -0.01100
H 	H 	0.04990 0.16950 0.41880 0.03400
C 	C 	0.99800 0.10110 0.36230 -0.10900
C 	C 	0.89430 0.06800 0.34590 0.04000
H 	H 	0.90650 0.04030 0.31320 0.03700
C 	C 	0.76930 0.07680 0.37950 -0.13800
C 	C 	0.75120 0.11810 0.42660 0.00400
H 	H 	0.66920 0.12290 0.44860 -0.02700
C 	C 	0.64930 0.04760 0.36290 0.34500
C 	C 	0.13480 0.08660 0.33070 0.33500
C 	C 	0.84210 0.34770 0.43420 -0.00200
C 	C 	0.96670 0.36370 0.41060 -0.01400
H 	H 	0.04430 0.33400 0.43010 0.04400
C 	C 	0.97900 0.42310 0.35860 -0.10100
C 	C 	0.86470 0.46600 0.32970 0.03000
H 	H 	0.87240 0.50390 0.29410 0.03800
C 	C 	0.73810 0.45400 0.35230 -0.09600
C 	C 	0.72750 0.39310 0.40470 -0.01700
H 	H 	0.64290 0.38340 0.41970 0.05500
C 	C 	0.61270 0.50310 0.32110 0.38200
C 	C 	0.11470 0.44220 0.33650 0.32300
O 	O 	0.05460 0.03280 0.77790 -0.33100
O 	O 	0.96650 0.93750 0.84050 -0.35700
O 	O 	0.56350 0.01180 0.78000 -0.53700
O 	O 	0.65910 0.95180 0.86430 -0.35500
O 	O 	0.66850 0.59330 0.85060 -0.44200
O 	O 	0.57010 0.56580 0.77580 -0.47000
O 	O 	0.08860 0.53570 0.81360 -0.39700
O 	O 	0.96620 0.59710 0.88380 -0.34600
O 	O 	0.16760 0.58690 0.16400 -0.43600
O 	O 	0.31870 0.63110 0.20610 -0.55900
O 	O 	0.38280 0.81170 0.18230 -0.47700
O 	O 	0.18270 0.87180 0.15660 -0.39300
O 	O 	0.78830 0.11740 0.69930 -0.41700
O 	O 	0.61940 0.09620 0.65280 -0.45800
O 	O 	0.61170 0.29470 0.68160 -0.44200
O 	O 	0.76590 0.37830 0.65530 -0.40800
O 	O 	0.54720 0.05070 0.39720 -0.54300
O 	O 	0.65600 0.02160 0.31400 -0.41400
O 	O 	0.14990 0.07500 0.27790 -0.44900
O 	O 	0.23790 0.08550 0.36090 -0.44500
O 	O 	0.50450 0.48030 0.34040 -0.43200
O 	O 	0.62350 0.56230 0.27760 -0.47100
O 	O 	0.12020 0.48870 0.28510 -0.52900
O 	O 	0.21120 0.42030 0.36890 -0.34700
Cd	Cd	0.50000 0.00000 0.50000 1.13500
