data_crystal

_cell_length_a 16.37900
_cell_length_b 16.36100
_cell_length_c 28.99900
_cell_angle_alpha 90.00000
_cell_angle_beta  90.00000
_cell_angle_gamma 90.00000

_symmetry_space_group_name_	'P 1'
_symmetry_space_group_name_H-M	'P 1'

loop_
_symmetry_equiv_pos_as_xyz
  x,y,z

loop_
_atom_site_label
_atom_site_type_symbol
_atom_site_fract_x
_atom_site_fract_y
_atom_site_fract_z
_atom_site_charge
O 	O 	0.41471 0.71506 0.72163 -0.46500
C 	C 	0.44061 0.64204 0.72849 0.35200
C 	C 	0.39975 0.59785 0.76793 -0.10700
C 	C 	0.29652 0.59312 0.82711 -0.10100
C 	C 	0.42830 0.52215 0.78220 0.06000
H 	H 	0.47250 0.49840 0.76710 0.04400
C 	C 	0.32515 0.51764 0.84116 0.05600
H 	H 	0.30010 0.49080 0.86560 0.04300
C 	C 	0.39151 0.48150 0.81880 -0.12800
C 	C 	0.42168 0.39983 0.83397 0.40100
O 	O 	0.48483 0.37227 0.81348 -0.48300
O 	O 	0.38343 0.36317 0.86509 -0.48700
O 	O 	0.17972 0.59221 0.87606 -0.32000
Zn	Zn	0.54027 0.15991 0.92001 1.23400
Zn	Zn	0.54947 0.27750 0.83072 1.22600
Zn	Zn	0.37289 0.24667 0.88234 1.23300
O 	O 	0.35022 0.24145 0.94835 -0.48100
O 	O 	0.21953 0.71053 0.84632 -0.43600
O 	O 	0.48011 0.19942 0.86589 -0.97100
O 	O 	0.42905 0.95061 0.07404 -0.46400
C 	C 	0.23347 0.16516 0.07123 -0.14700
O 	O 	0.46100 0.17183 0.97040 -0.48300
C 	C 	0.26333 0.09348 0.09137 0.07700
H 	H 	0.23630 0.07060 0.11640 0.03500
C 	C 	0.34413 0.16251 0.01659 -0.14700
C 	C 	0.27319 0.19836 0.03324 0.09000
H 	H 	0.25220 0.24470 0.01890 0.03100
C 	C 	0.37360 0.09270 0.03740 0.08000
H 	H 	0.42170 0.06940 0.02660 0.03900
C 	C 	0.38813 0.19515 0.97512 0.41700
C 	C 	0.33329 0.05636 0.07406 -0.12600
O 	O 	0.49426 0.60692 0.70655 -0.33800
C 	C 	0.33400 0.63245 0.79061 0.05100
H 	H 	0.31460 0.68320 0.78110 0.05000
O 	O 	0.32675 0.94001 0.12317 -0.31000
C 	C 	0.22637 0.63272 0.85205 0.32600
C 	C 	0.36361 0.97582 0.09318 0.37000
C 	C 	0.15954 0.20638 0.09106 0.42000
O 	O 	0.12666 0.26130 0.06701 -0.49700
O 	O 	0.13613 0.18309 0.13019 -0.50400
H 	H 	0.48100 0.16530 0.84470 0.34800
O 	O 	0.08529 0.28494 0.22163 -0.46500
C 	C 	0.05939 0.35796 0.22849 0.35300
C 	C 	0.10025 0.40215 0.26793 -0.10600
C 	C 	0.20348 0.40688 0.32711 -0.10000
C 	C 	0.07170 0.47785 0.28220 0.06100
H 	H 	0.02750 0.50160 0.26710 0.04500
C 	C 	0.17485 0.48236 0.34116 0.05700
H 	H 	0.19990 0.50920 0.36560 0.04300
C 	C 	0.10849 0.51850 0.31880 -0.12800
C 	C 	0.07832 0.60017 0.33397 0.40100
O 	O 	0.01517 0.62773 0.31348 -0.48200
O 	O 	0.11657 0.63683 0.36509 -0.48600
O 	O 	0.32028 0.40779 0.37606 -0.32000
Zn	Zn	0.95973 0.84009 0.42001 1.23300
Zn	Zn	0.95052 0.72250 0.33072 1.22600
Zn	Zn	0.12711 0.75333 0.38234 1.23300
O 	O 	0.14978 0.75855 0.44835 -0.48100
O 	O 	0.28047 0.28947 0.34632 -0.43700
O 	O 	0.01989 0.80058 0.36589 -0.97000
O 	O 	0.07095 0.04939 0.57404 -0.46500
C 	C 	0.26653 0.83484 0.57123 -0.14300
O 	O 	0.03900 0.82817 0.47040 -0.48100
C 	C 	0.23667 0.90652 0.59137 0.07300
H 	H 	0.26370 0.92940 0.61640 0.03800
C 	C 	0.15587 0.83749 0.51659 -0.14300
C 	C 	0.22681 0.80164 0.53324 0.08700
H 	H 	0.24780 0.75530 0.51890 0.03200
C 	C 	0.12640 0.90730 0.53740 0.07600
H 	H 	0.07830 0.93060 0.52660 0.04200
C 	C 	0.11187 0.80485 0.47512 0.41500
C 	C 	0.16671 0.94364 0.57406 -0.11900
O 	O 	0.00574 0.39308 0.20655 -0.33900
C 	C 	0.16600 0.36755 0.29061 0.05100
H 	H 	0.18540 0.31680 0.28110 0.05000
O 	O 	0.17325 0.05999 0.62317 -0.31000
C 	C 	0.27363 0.36728 0.35205 0.32600
C 	C 	0.13639 0.02418 0.59318 0.36400
C 	C 	0.34046 0.79362 0.59106 0.41900
O 	O 	0.37334 0.73870 0.56701 -0.49600
O 	O 	0.36387 0.81691 0.63019 -0.50200
H 	H 	0.01900 0.83470 0.34470 0.34900
O 	O 	0.58529 0.21506 0.77837 -0.46400
C 	C 	0.55939 0.14204 0.77151 0.35500
C 	C 	0.60025 0.09785 0.73207 -0.10900
C 	C 	0.70348 0.09312 0.67289 -0.10400
C 	C 	0.57170 0.02215 0.71780 0.06700
H 	H 	0.52750 0.99840 0.73290 0.04300
C 	C 	0.67485 0.01764 0.65884 0.06700
H 	H 	0.69990 0.99080 0.63440 0.03800
C 	C 	0.60849 0.98150 0.68120 -0.13500
C 	C 	0.57832 0.89983 0.66603 0.40400
O 	O 	0.51517 0.87227 0.68652 -0.48300
O 	O 	0.61657 0.86317 0.63491 -0.48700
O 	O 	0.82028 0.09221 0.62394 -0.32000
Zn	Zn	0.45973 0.65991 0.57999 1.23400
Zn	Zn	0.45052 0.77750 0.66928 1.22600
Zn	Zn	0.62711 0.74667 0.61766 1.23300
O 	O 	0.64978 0.74145 0.55165 -0.48100
O 	O 	0.78047 0.21053 0.65368 -0.43700
O 	O 	0.51989 0.69942 0.63411 -0.97100
O 	O 	0.57095 0.45061 0.42596 -0.46400
C 	C 	0.76653 0.66516 0.42877 -0.14500
O 	O 	0.53900 0.67183 0.52960 -0.48300
C 	C 	0.73667 0.59348 0.40863 0.07600
H 	H 	0.76370 0.57060 0.38360 0.03700
C 	C 	0.65587 0.66251 0.48341 -0.14500
C 	C 	0.72681 0.69836 0.46676 0.08900
H 	H 	0.74780 0.74470 0.48110 0.03100
C 	C 	0.62640 0.59270 0.46260 0.07900
H 	H 	0.57830 0.56940 0.47340 0.04000
C 	C 	0.61187 0.69515 0.52488 0.41600
C 	C 	0.66671 0.55636 0.42594 -0.12400
O 	O 	0.50574 0.10692 0.79345 -0.33900
C 	C 	0.66600 0.13245 0.70939 0.05500
H 	H 	0.68540 0.18320 0.71890 0.04900
O 	O 	0.67325 0.44001 0.37683 -0.31000
C 	C 	0.77363 0.13272 0.64795 0.32800
C 	C 	0.63639 0.47582 0.40682 0.36800
C 	C 	0.84046 0.70638 0.40894 0.42000
O 	O 	0.87334 0.76130 0.43299 -0.49700
O 	O 	0.86387 0.68309 0.36981 -0.50300
H 	H 	0.51900 0.66530 0.65530 0.34800
O 	O 	0.91471 0.78494 0.27837 -0.46300
C 	C 	0.94061 0.85796 0.27151 0.34800
C 	C 	0.89975 0.90215 0.23207 -0.09200
C 	C 	0.79652 0.90688 0.17289 -0.08700
C 	C 	0.92830 0.97785 0.21780 0.03400
H 	H 	0.97250 0.00160 0.23290 0.05700
C 	C 	0.82515 0.98236 0.15884 0.03300
H 	H 	0.80010 0.00920 0.13440 0.05300
C 	C 	0.89151 0.01850 0.18120 -0.10500
C 	C 	0.92168 0.10017 0.16603 0.39300
O 	O 	0.98483 0.12773 0.18652 -0.47900
O 	O 	0.88343 0.13683 0.13491 -0.48400
O 	O 	0.67972 0.90779 0.12394 -0.32000
Zn	Zn	0.04027 0.34009 0.07999 1.23300
Zn	Zn	0.04947 0.22250 0.16928 1.22500
Zn	Zn	0.87289 0.25333 0.11766 1.23300
O 	O 	0.85022 0.25855 0.05165 -0.48100
O 	O 	0.71953 0.78947 0.15368 -0.43600
O 	O 	0.98011 0.30058 0.13411 -0.96900
O 	O 	0.92905 0.54939 0.92596 -0.46400
C 	C 	0.73347 0.33484 0.92877 -0.14500
O 	O 	0.96100 0.32817 0.02960 -0.48200
C 	C 	0.76333 0.40652 0.90863 0.07600
H 	H 	0.73630 0.42940 0.88360 0.03700
C 	C 	0.84413 0.33749 0.98341 -0.14600
C 	C 	0.77319 0.30164 0.96676 0.09000
H 	H 	0.75220 0.25530 0.98110 0.03200
C 	C 	0.87360 0.40730 0.96260 0.07900
H 	H 	0.92170 0.43060 0.97340 0.04000
C 	C 	0.88813 0.30485 0.02488 0.41700
C 	C 	0.83329 0.44364 0.92594 -0.12400
O 	O 	0.99426 0.89308 0.29345 -0.33900
C 	C 	0.83400 0.86755 0.20939 0.03900
H 	H 	0.81460 0.81680 0.21890 0.05400
O 	O 	0.82675 0.55999 0.87683 -0.31000
C 	C 	0.72637 0.86728 0.14795 0.32100
C 	C 	0.86361 0.52418 0.90682 0.36800
C 	C 	0.65954 0.29362 0.90894 0.42000
O 	O 	0.62666 0.23870 0.93299 -0.49600
O 	O 	0.63613 0.31691 0.86981 -0.50200
H 	H 	0.98100 0.33470 0.15530 0.34800
O 	O 	0.58529 0.28494 0.27837 -0.46400
C 	C 	0.55939 0.35796 0.27151 0.35300
C 	C 	0.60025 0.40215 0.23207 -0.10600
C 	C 	0.70348 0.40688 0.17289 -0.10000
C 	C 	0.57170 0.47785 0.21780 0.06100
H 	H 	0.52750 0.50160 0.23290 0.04500
C 	C 	0.67485 0.48236 0.15884 0.05700
H 	H 	0.69990 0.50920 0.13440 0.04300
C 	C 	0.60849 0.51850 0.18120 -0.12800
C 	C 	0.57832 0.60017 0.16603 0.40100
O 	O 	0.51517 0.62773 0.18652 -0.48300
O 	O 	0.61657 0.63683 0.13491 -0.48700
O 	O 	0.82028 0.40779 0.12394 -0.32000
Zn	Zn	0.45973 0.84009 0.07999 1.23400
Zn	Zn	0.45052 0.72250 0.16928 1.22600
Zn	Zn	0.62711 0.75333 0.11766 1.23300
O 	O 	0.64978 0.75855 0.05165 -0.48100
O 	O 	0.78047 0.28947 0.15368 -0.43600
O 	O 	0.51989 0.80058 0.13411 -0.97100
O 	O 	0.57095 0.04939 0.92596 -0.46400
C 	C 	0.76653 0.83484 0.92877 -0.14700
O 	O 	0.53900 0.82817 0.02960 -0.48300
C 	C 	0.73667 0.90652 0.90863 0.07700
H 	H 	0.76370 0.92940 0.88360 0.03500
C 	C 	0.65587 0.83749 0.98341 -0.14700
C 	C 	0.72681 0.80164 0.96676 0.09000
H 	H 	0.74780 0.75530 0.98110 0.03100
C 	C 	0.62640 0.90730 0.96260 0.08000
H 	H 	0.57830 0.93060 0.97340 0.03900
C 	C 	0.61187 0.80485 0.02488 0.41700
C 	C 	0.66671 0.94364 0.92594 -0.12600
O 	O 	0.50574 0.39308 0.29345 -0.33800
C 	C 	0.66600 0.36755 0.20939 0.05100
H 	H 	0.68540 0.31680 0.21890 0.05000
O 	O 	0.67325 0.05999 0.87683 -0.31000
C 	C 	0.77363 0.36728 0.14795 0.32600
C 	C 	0.63639 0.02418 0.90682 0.37000
C 	C 	0.84046 0.79362 0.90894 0.42000
O 	O 	0.87334 0.73870 0.93299 -0.49700
O 	O 	0.86387 0.81691 0.86981 -0.50400
H 	H 	0.51900 0.83470 0.15530 0.34800
O 	O 	0.91471 0.71506 0.77837 -0.46500
C 	C 	0.94061 0.64204 0.77151 0.35300
C 	C 	0.89975 0.59785 0.73207 -0.10600
C 	C 	0.79652 0.59312 0.67289 -0.10000
C 	C 	0.92830 0.52215 0.71780 0.06100
H 	H 	0.97250 0.49840 0.73290 0.04500
C 	C 	0.82515 0.51764 0.65884 0.05700
H 	H 	0.80010 0.49080 0.63440 0.04300
C 	C 	0.89151 0.48150 0.68120 -0.12800
C 	C 	0.92168 0.39983 0.66603 0.40100
O 	O 	0.98483 0.37227 0.68652 -0.48200
O 	O 	0.88343 0.36317 0.63491 -0.48600
O 	O 	0.67972 0.59221 0.62394 -0.32000
Zn	Zn	0.04027 0.15991 0.57999 1.23300
Zn	Zn	0.04947 0.27750 0.66928 1.22600
Zn	Zn	0.87289 0.24667 0.61766 1.23300
O 	O 	0.85022 0.24145 0.55165 -0.48100
O 	O 	0.71953 0.71053 0.65368 -0.43700
O 	O 	0.98011 0.19942 0.63411 -0.97000
O 	O 	0.92905 0.95061 0.42596 -0.46500
C 	C 	0.73347 0.16516 0.42877 -0.14300
O 	O 	0.96100 0.17183 0.52960 -0.48100
C 	C 	0.76333 0.09348 0.40863 0.07300
H 	H 	0.73630 0.07060 0.38360 0.03800
C 	C 	0.84413 0.16251 0.48341 -0.14300
C 	C 	0.77319 0.19836 0.46676 0.08700
H 	H 	0.75220 0.24470 0.48110 0.03200
C 	C 	0.87360 0.09270 0.46260 0.07600
H 	H 	0.92170 0.06940 0.47340 0.04200
C 	C 	0.88813 0.19515 0.52488 0.41500
C 	C 	0.83329 0.05636 0.42594 -0.11900
O 	O 	0.99426 0.60692 0.79345 -0.33900
C 	C 	0.83400 0.63245 0.70939 0.05100
H 	H 	0.81460 0.68320 0.71890 0.05000
O 	O 	0.82675 0.94001 0.37683 -0.31000
C 	C 	0.72637 0.63272 0.64795 0.32600
C 	C 	0.86361 0.97582 0.40682 0.36400
C 	C 	0.65954 0.20638 0.40894 0.41900
O 	O 	0.62666 0.26130 0.43299 -0.49600
O 	O 	0.63613 0.18309 0.36981 -0.50200
H 	H 	0.98100 0.16530 0.65530 0.34900
O 	O 	0.41471 0.78494 0.22163 -0.46400
C 	C 	0.44061 0.85796 0.22849 0.35500
C 	C 	0.39975 0.90215 0.26793 -0.10900
C 	C 	0.29652 0.90688 0.32711 -0.10400
C 	C 	0.42830 0.97785 0.28220 0.06700
H 	H 	0.47250 0.00160 0.26710 0.04300
C 	C 	0.32515 0.98236 0.34116 0.06700
H 	H 	0.30010 0.00920 0.36560 0.03800
C 	C 	0.39151 0.01850 0.31880 -0.13500
C 	C 	0.42168 0.10017 0.33397 0.40400
O 	O 	0.48483 0.12773 0.31348 -0.48300
O 	O 	0.38343 0.13683 0.36509 -0.48700
O 	O 	0.17972 0.90779 0.37606 -0.32000
Zn	Zn	0.54027 0.34009 0.42001 1.23400
Zn	Zn	0.54947 0.22250 0.33072 1.22600
Zn	Zn	0.37289 0.25333 0.38234 1.23300
O 	O 	0.35022 0.25855 0.44835 -0.48100
O 	O 	0.21953 0.78947 0.34632 -0.43700
O 	O 	0.48011 0.30058 0.36589 -0.97100
O 	O 	0.42905 0.54939 0.57404 -0.46400
C 	C 	0.23347 0.33484 0.57123 -0.14500
O 	O 	0.46100 0.32817 0.47040 -0.48300
C 	C 	0.26333 0.40652 0.59137 0.07600
H 	H 	0.23630 0.42940 0.61640 0.03700
C 	C 	0.34413 0.33749 0.51659 -0.14500
C 	C 	0.27319 0.30164 0.53324 0.08900
H 	H 	0.25220 0.25530 0.51890 0.03100
C 	C 	0.37360 0.40730 0.53740 0.07900
H 	H 	0.42170 0.43060 0.52660 0.04000
C 	C 	0.38813 0.30485 0.47512 0.41600
C 	C 	0.33329 0.44364 0.57406 -0.12400
O 	O 	0.49426 0.89308 0.20655 -0.33900
C 	C 	0.33400 0.86755 0.29061 0.05500
H 	H 	0.31460 0.81680 0.28110 0.04900
O 	O 	0.32675 0.55999 0.62317 -0.31000
C 	C 	0.22637 0.86728 0.35205 0.32800
C 	C 	0.36361 0.52418 0.59318 0.36800
C 	C 	0.15954 0.29362 0.59106 0.42000
O 	O 	0.12666 0.23870 0.56701 -0.49700
O 	O 	0.13613 0.31691 0.63019 -0.50300
H 	H 	0.48100 0.33470 0.34470 0.34800
O 	O 	0.08529 0.21506 0.72163 -0.46300
C 	C 	0.05939 0.14204 0.72849 0.34800
C 	C 	0.10025 0.09785 0.76793 -0.09200
C 	C 	0.20348 0.09312 0.82711 -0.08700
C 	C 	0.07170 0.02215 0.78220 0.03400
H 	H 	0.02750 0.99840 0.76710 0.05700
C 	C 	0.17485 0.01764 0.84116 0.03300
H 	H 	0.19990 0.99080 0.86560 0.05300
C 	C 	0.10849 0.98150 0.81880 -0.10500
C 	C 	0.07832 0.89983 0.83397 0.39300
O 	O 	0.01517 0.87227 0.81348 -0.47900
O 	O 	0.11657 0.86317 0.86509 -0.48400
O 	O 	0.32028 0.09221 0.87606 -0.32000
Zn	Zn	0.95973 0.65991 0.92001 1.23300
Zn	Zn	0.95052 0.77750 0.83072 1.22500
Zn	Zn	0.12711 0.74667 0.88234 1.23300
O 	O 	0.14978 0.74145 0.94835 -0.48100
O 	O 	0.28047 0.21053 0.84632 -0.43600
O 	O 	0.01989 0.69942 0.86589 -0.96900
O 	O 	0.07095 0.45061 0.07404 -0.46400
C 	C 	0.26653 0.66516 0.07123 -0.14600
O 	O 	0.03900 0.67183 0.97040 -0.48200
C 	C 	0.23667 0.59348 0.09137 0.07600
H 	H 	0.26370 0.57060 0.11640 0.03700
C 	C 	0.15587 0.66251 0.01659 -0.14600
C 	C 	0.22681 0.69836 0.03324 0.09000
H 	H 	0.24780 0.74470 0.01890 0.03200
C 	C 	0.12640 0.59270 0.03740 0.07900
H 	H 	0.07830 0.56940 0.02660 0.04000
C 	C 	0.11187 0.69515 0.97512 0.41700
C 	C 	0.16671 0.55636 0.07406 -0.12400
O 	O 	0.00574 0.10692 0.70655 -0.33900
C 	C 	0.16600 0.13245 0.79061 0.03900
H 	H 	0.18540 0.18320 0.78110 0.05400
O 	O 	0.17325 0.44001 0.12317 -0.31000
C 	C 	0.27363 0.13272 0.85205 0.32100
C 	C 	0.13639 0.47582 0.09318 0.36800
C 	C 	0.34046 0.70638 0.09106 0.42000
O 	O 	0.37334 0.76130 0.06701 -0.49600
O 	O 	0.36387 0.68309 0.13019 -0.50200
H 	H 	0.01900 0.66530 0.84470 0.34800
