data_crystal

_cell_length_a 16.29500
_cell_length_b 16.29500
_cell_length_c 28.94600
_cell_angle_alpha 90.00000
_cell_angle_beta  90.00000
_cell_angle_gamma 90.00000

_symmetry_space_group_name_	'P 1'
_symmetry_space_group_name_H-M	'P 1'

loop_
_symmetry_equiv_pos_as_xyz
  x,y,z

loop_
_atom_site_label
_atom_site_type_symbol
_atom_site_fract_x
_atom_site_fract_y
_atom_site_fract_z
_atom_site_charge
C 	C 	0.76518 0.33240 0.57153 -0.15900
C 	C 	0.72626 0.29980 0.53324 0.10700
H 	H 	0.74750 0.25340 0.51880 0.02800
C 	C 	0.65577 0.33640 0.51636 -0.16100
C 	C 	0.62623 0.40650 0.53724 0.09700
H 	H 	0.57830 0.43050 0.52620 0.03600
C 	C 	0.66650 0.44180 0.57412 -0.14100
C 	C 	0.73540 0.40380 0.59158 0.09600
H 	H 	0.76210 0.42620 0.61700 0.03200
C 	C 	0.83920 0.29000 0.59169 0.43700
C 	C 	0.61160 0.30570 0.47464 0.43300
C 	C 	0.63550 0.52180 0.59296 0.38100
C 	C 	0.90040 0.09570 0.76805 -0.11300
C 	C 	0.92903 0.02060 0.78223 0.05200
H 	H 	0.97370 0.99710 0.76720 0.05200
C 	C 	0.89223 0.97960 0.81857 -0.12000
C 	C 	0.82612 0.01570 0.84119 0.05100
H 	H 	0.80120 0.98870 0.86580 0.04800
C 	C 	0.79740 0.09120 0.82739 -0.10800
C 	C 	0.83441 0.13050 0.79074 0.05900
H 	H 	0.81460 0.18130 0.78110 0.04800
C 	C 	0.94090 0.13960 0.72901 0.36400
C 	C 	0.92250 0.89730 0.83342 0.41000
C 	C 	0.72680 0.13040 0.85213 0.34600
O 	O 	0.87184 0.23552 0.56768 -0.50600
O 	O 	0.86264 0.31397 0.63058 -0.51000
O 	O 	0.64976 0.25944 0.44788 -0.48800
O 	O 	0.53918 0.32934 0.46956 -0.49300
O 	O 	0.57056 0.54736 0.57447 -0.47100
O 	O 	0.67374 0.55794 0.62306 -0.31000
O 	O 	0.91524 0.21258 0.72211 -0.46700
O 	O 	0.99505 0.10514 0.70684 -0.33700
O 	O 	0.98565 0.87005 0.81338 -0.49000
O 	O 	0.88317 0.86107 0.86430 -0.49300
O 	O 	0.71941 0.20737 0.84644 -0.44700
O 	O 	0.68018 0.09061 0.87645 -0.32700
O 	O 	0.02002 0.19730 0.63449 -0.87300
H 	H 	0.02460 0.16070 0.65880 0.25600
Zn	Zn	0.95951 0.15787 0.58058 1.23400
Zn	Zn	0.95001 0.27515 0.66967 1.22700
Zn	Zn	0.62713 0.25505 0.38191 1.23200
C 	C 	0.73482 0.66760 0.07153 -0.16000
C 	C 	0.77374 0.70020 0.03324 0.10700
H 	H 	0.75250 0.74660 0.01880 0.02700
C 	C 	0.84423 0.66360 0.01636 -0.16300
C 	C 	0.87377 0.59350 0.03724 0.09600
H 	H 	0.92170 0.56950 0.02620 0.03500
C 	C 	0.83350 0.55820 0.07412 -0.14200
C 	C 	0.76460 0.59620 0.09158 0.09500
H 	H 	0.73790 0.57380 0.11700 0.03100
C 	C 	0.66080 0.71000 0.09169 0.43600
C 	C 	0.88840 0.69430 0.97464 0.43400
C 	C 	0.86450 0.47820 0.09296 0.38200
C 	C 	0.59960 0.90430 0.26805 -0.13200
C 	C 	0.57097 0.97940 0.28223 0.08900
H 	H 	0.52630 0.00290 0.26720 0.03600
C 	C 	0.60777 0.02040 0.31857 -0.15300
C 	C 	0.67388 0.98430 0.34119 0.08700
H 	H 	0.69880 0.01130 0.36580 0.03200
C 	C 	0.70260 0.90880 0.32739 -0.12700
C 	C 	0.66559 0.86950 0.29074 0.07700
H 	H 	0.68540 0.81870 0.28110 0.04200
C 	C 	0.55910 0.86040 0.22901 0.37100
C 	C 	0.57750 0.10270 0.33342 0.42200
C 	C 	0.77320 0.86960 0.35213 0.35300
O 	O 	0.62816 0.76448 0.06768 -0.50500
O 	O 	0.63736 0.68603 0.13058 -0.50900
O 	O 	0.85024 0.74056 0.94788 -0.48700
O 	O 	0.96082 0.67066 0.96956 -0.49200
O 	O 	0.92944 0.45264 0.07447 -0.47200
O 	O 	0.82626 0.44206 0.12306 -0.31000
O 	O 	0.58476 0.78742 0.22211 -0.46800
O 	O 	0.50495 0.89486 0.20684 -0.33700
O 	O 	0.51435 0.12995 0.31338 -0.49500
O 	O 	0.61683 0.13893 0.36430 -0.49700
O 	O 	0.78059 0.79263 0.34644 -0.44900
O 	O 	0.81982 0.90939 0.37645 -0.32800
O 	O 	0.47998 0.80270 0.13449 -0.87400
H 	H 	0.47540 0.83930 0.15880 0.25400
Zn	Zn	0.54049 0.84213 0.08058 1.23500
Zn	Zn	0.54999 0.72485 0.16967 1.22700
Zn	Zn	0.87287 0.74495 0.88191 1.23200
C 	C 	0.23482 0.83240 0.92847 -0.16100
C 	C 	0.27374 0.79980 0.96676 0.10700
H 	H 	0.25250 0.75340 0.98120 0.02600
C 	C 	0.34423 0.83640 0.98364 -0.16300
C 	C 	0.37377 0.90650 0.96276 0.09700
H 	H 	0.42170 0.93050 0.97380 0.03500
C 	C 	0.33350 0.94180 0.92588 -0.14500
C 	C 	0.26460 0.90380 0.90842 0.09600
H 	H 	0.23790 0.92620 0.88300 0.03000
C 	C 	0.16080 0.79000 0.90831 0.43600
C 	C 	0.38840 0.80570 0.02536 0.43400
C 	C 	0.36450 0.02180 0.90704 0.38300
C 	C 	0.09960 0.59570 0.73195 -0.12800
C 	C 	0.07097 0.52060 0.71777 0.08200
H 	H 	0.02630 0.49710 0.73280 0.03800
C 	C 	0.10777 0.47960 0.68143 -0.14600
C 	C 	0.17388 0.51570 0.65881 0.07800
H 	H 	0.19880 0.48870 0.63420 0.03700
C 	C 	0.20260 0.59120 0.67261 -0.12200
C 	C 	0.16559 0.63050 0.70926 0.07300
H 	H 	0.18540 0.68130 0.71890 0.04300
C 	C 	0.05910 0.63960 0.77099 0.37000
C 	C 	0.07750 0.39730 0.66658 0.41900
C 	C 	0.27320 0.63040 0.64787 0.35100
O 	O 	0.12816 0.73552 0.93232 -0.50600
O 	O 	0.13736 0.81397 0.86942 -0.51100
O 	O 	0.35024 0.75944 0.05212 -0.48700
O 	O 	0.46082 0.82934 0.03044 -0.49300
O 	O 	0.42944 0.04736 0.92553 -0.47200
O 	O 	0.32626 0.05794 0.87694 -0.31000
O 	O 	0.08476 0.71258 0.77789 -0.46900
O 	O 	0.00495 0.60514 0.79316 -0.33800
O 	O 	0.01435 0.37005 0.68662 -0.49300
O 	O 	0.11683 0.36107 0.63570 -0.49500
O 	O 	0.28059 0.70737 0.65356 -0.44900
O 	O 	0.31982 0.59061 0.62355 -0.32800
O 	O 	0.97998 0.69730 0.86551 -0.87200
H 	H 	0.97540 0.66070 0.84120 0.25500
Zn	Zn	0.04049 0.65787 0.91942 1.23400
Zn	Zn	0.04999 0.77515 0.83033 1.22600
Zn	Zn	0.37287 0.75505 0.11809 1.23200
C 	C 	0.26518 0.16760 0.42847 -0.15800
C 	C 	0.22626 0.20020 0.46676 0.10400
H 	H 	0.24750 0.24660 0.48120 0.02800
C 	C 	0.15577 0.16360 0.48364 -0.16000
C 	C 	0.12623 0.09350 0.46276 0.09200
H 	H 	0.07830 0.06950 0.47380 0.03800
C 	C 	0.16650 0.05820 0.42588 -0.13600
C 	C 	0.23540 0.09620 0.40842 0.09100
H 	H 	0.26210 0.07380 0.38300 0.03300
C 	C 	0.33920 0.21000 0.40831 0.43500
C 	C 	0.11160 0.19430 0.52536 0.43200
C 	C 	0.13550 0.97820 0.40704 0.37700
C 	C 	0.40040 0.40430 0.23195 -0.12800
C 	C 	0.42903 0.47940 0.21777 0.08200
H 	H 	0.47370 0.50290 0.23280 0.03800
C 	C 	0.39223 0.52040 0.18143 -0.14600
C 	C 	0.32612 0.48430 0.15881 0.07800
H 	H 	0.30120 0.51130 0.13420 0.03700
C 	C 	0.29740 0.40880 0.17261 -0.12200
C 	C 	0.33441 0.36950 0.20926 0.07300
H 	H 	0.31460 0.31870 0.21890 0.04300
C 	C 	0.44090 0.36040 0.27099 0.37000
C 	C 	0.42250 0.60270 0.16658 0.41900
C 	C 	0.22680 0.36960 0.14787 0.35100
O 	O 	0.37184 0.26448 0.43232 -0.50500
O 	O 	0.36264 0.18603 0.36942 -0.50900
O 	O 	0.14976 0.24056 0.55212 -0.48700
O 	O 	0.03918 0.17066 0.53044 -0.49100
O 	O 	0.07056 0.95264 0.42553 -0.47300
O 	O 	0.17374 0.94206 0.37694 -0.31000
O 	O 	0.41524 0.28742 0.27789 -0.46800
O 	O 	0.49505 0.39486 0.29316 -0.33700
O 	O 	0.48565 0.62995 0.18662 -0.49400
O 	O 	0.38317 0.63893 0.13570 -0.49600
O 	O 	0.21941 0.29263 0.15356 -0.44800
O 	O 	0.18018 0.40939 0.12355 -0.32800
O 	O 	0.52002 0.30270 0.36551 -0.87400
H 	H 	0.52460 0.33930 0.34120 0.25400
Zn	Zn	0.45951 0.34213 0.41942 1.23500
Zn	Zn	0.45001 0.22485 0.33033 1.22700
Zn	Zn	0.12713 0.24495 0.61809 1.23200
C 	C 	0.23482 0.66760 0.42847 -0.16000
C 	C 	0.27374 0.70020 0.46676 0.10600
H 	H 	0.25250 0.74660 0.48120 0.02700
C 	C 	0.34423 0.66360 0.48364 -0.16200
C 	C 	0.37377 0.59350 0.46276 0.09600
H 	H 	0.42170 0.56950 0.47380 0.03500
C 	C 	0.33350 0.55820 0.42588 -0.14200
C 	C 	0.26460 0.59620 0.40842 0.09500
H 	H 	0.23790 0.57380 0.38300 0.03100
C 	C 	0.16080 0.71000 0.40831 0.43600
C 	C 	0.38840 0.69430 0.52536 0.43300
C 	C 	0.36450 0.47820 0.40704 0.38100
C 	C 	0.09960 0.90430 0.23195 -0.11300
C 	C 	0.07097 0.97940 0.21777 0.05200
H 	H 	0.02630 0.00290 0.23280 0.05200
C 	C 	0.10777 0.02040 0.18143 -0.12000
C 	C 	0.17388 0.98430 0.15881 0.05100
H 	H 	0.19880 0.01130 0.13420 0.04800
C 	C 	0.20260 0.90880 0.17261 -0.10800
C 	C 	0.16559 0.86950 0.20926 0.05900
H 	H 	0.18540 0.81870 0.21890 0.04800
C 	C 	0.05910 0.86040 0.27099 0.36400
C 	C 	0.07750 0.10270 0.16658 0.41000
C 	C 	0.27320 0.86960 0.14787 0.34600
O 	O 	0.12816 0.76448 0.43232 -0.50600
O 	O 	0.13736 0.68603 0.36942 -0.51000
O 	O 	0.35024 0.74056 0.55212 -0.48800
O 	O 	0.46082 0.67066 0.53044 -0.49300
O 	O 	0.42944 0.45264 0.42553 -0.47100
O 	O 	0.32626 0.44206 0.37694 -0.31000
O 	O 	0.08476 0.78742 0.27789 -0.46700
O 	O 	0.00495 0.89486 0.29316 -0.33700
O 	O 	0.01435 0.12995 0.18662 -0.49000
O 	O 	0.11683 0.13893 0.13570 -0.49300
O 	O 	0.28059 0.79263 0.15356 -0.44700
O 	O 	0.31982 0.90939 0.12355 -0.32700
O 	O 	0.97998 0.80270 0.36551 -0.87300
H 	H 	0.97540 0.83930 0.34120 0.25600
Zn	Zn	0.04049 0.84213 0.41942 1.23400
Zn	Zn	0.04999 0.72485 0.33033 1.22700
Zn	Zn	0.37287 0.74495 0.61809 1.23200
C 	C 	0.26518 0.33240 0.92847 -0.16000
C 	C 	0.22626 0.29980 0.96676 0.10700
H 	H 	0.24750 0.25340 0.98120 0.02700
C 	C 	0.15577 0.33640 0.98364 -0.16300
C 	C 	0.12623 0.40650 0.96276 0.09600
H 	H 	0.07830 0.43050 0.97380 0.03500
C 	C 	0.16650 0.44180 0.92588 -0.14200
C 	C 	0.23540 0.40380 0.90842 0.09500
H 	H 	0.26210 0.42620 0.88300 0.03100
C 	C 	0.33920 0.29000 0.90831 0.43600
C 	C 	0.11160 0.30570 0.02536 0.43400
C 	C 	0.13550 0.52180 0.90704 0.38200
C 	C 	0.40040 0.09570 0.73195 -0.13200
C 	C 	0.42903 0.02060 0.71777 0.08900
H 	H 	0.47370 0.99710 0.73280 0.03600
C 	C 	0.39223 0.97960 0.68143 -0.15300
C 	C 	0.32612 0.01570 0.65881 0.08700
H 	H 	0.30120 0.98870 0.63420 0.03200
C 	C 	0.29740 0.09120 0.67261 -0.12700
C 	C 	0.33441 0.13050 0.70926 0.07700
H 	H 	0.31460 0.18130 0.71890 0.04200
C 	C 	0.44090 0.13960 0.77099 0.37100
C 	C 	0.42250 0.89730 0.66658 0.42200
C 	C 	0.22680 0.13040 0.64787 0.35300
O 	O 	0.37184 0.23552 0.93232 -0.50500
O 	O 	0.36264 0.31397 0.86942 -0.50900
O 	O 	0.14976 0.25944 0.05212 -0.48700
O 	O 	0.03918 0.32934 0.03044 -0.49200
O 	O 	0.07056 0.54736 0.92553 -0.47200
O 	O 	0.17374 0.55794 0.87694 -0.31000
O 	O 	0.41524 0.21258 0.77789 -0.46800
O 	O 	0.49505 0.10514 0.79316 -0.33700
O 	O 	0.48565 0.87005 0.68662 -0.49500
O 	O 	0.38317 0.86107 0.63570 -0.49700
O 	O 	0.21941 0.20737 0.65356 -0.44900
O 	O 	0.18018 0.09061 0.62355 -0.32800
O 	O 	0.52002 0.19730 0.86551 -0.87400
H 	H 	0.52460 0.16070 0.84120 0.25400
Zn	Zn	0.45951 0.15787 0.91942 1.23500
Zn	Zn	0.45001 0.27515 0.83033 1.22700
Zn	Zn	0.12713 0.25505 0.11809 1.23200
C 	C 	0.76518 0.16760 0.07153 -0.16100
C 	C 	0.72626 0.20020 0.03324 0.10700
H 	H 	0.74750 0.24660 0.01880 0.02600
C 	C 	0.65577 0.16360 0.01636 -0.16300
C 	C 	0.62623 0.09350 0.03724 0.09700
H 	H 	0.57830 0.06950 0.02620 0.03500
C 	C 	0.66650 0.05820 0.07412 -0.14500
C 	C 	0.73540 0.09620 0.09158 0.09600
H 	H 	0.76210 0.07380 0.11700 0.03000
C 	C 	0.83920 0.21000 0.09169 0.43600
C 	C 	0.61160 0.19430 0.97464 0.43400
C 	C 	0.63550 0.97820 0.09296 0.38300
C 	C 	0.90040 0.40430 0.26805 -0.12800
C 	C 	0.92903 0.47940 0.28223 0.08200
H 	H 	0.97370 0.50290 0.26720 0.03800
C 	C 	0.89223 0.52040 0.31857 -0.14600
C 	C 	0.82612 0.48430 0.34119 0.07800
H 	H 	0.80120 0.51130 0.36580 0.03700
C 	C 	0.79740 0.40880 0.32739 -0.12200
C 	C 	0.83441 0.36950 0.29074 0.07300
H 	H 	0.81460 0.31870 0.28110 0.04300
C 	C 	0.94090 0.36040 0.22901 0.37000
C 	C 	0.92250 0.60270 0.33342 0.41900
C 	C 	0.72680 0.36960 0.35213 0.35100
O 	O 	0.87184 0.26448 0.06768 -0.50600
O 	O 	0.86264 0.18603 0.13058 -0.51100
O 	O 	0.64976 0.24056 0.94788 -0.48700
O 	O 	0.53918 0.17066 0.96956 -0.49300
O 	O 	0.57056 0.95264 0.07447 -0.47200
O 	O 	0.67374 0.94206 0.12306 -0.31000
O 	O 	0.91524 0.28742 0.22211 -0.46900
O 	O 	0.99505 0.39486 0.20684 -0.33800
O 	O 	0.98565 0.62995 0.31338 -0.49300
O 	O 	0.88317 0.63893 0.36430 -0.49500
O 	O 	0.71941 0.29263 0.34644 -0.44900
O 	O 	0.68018 0.40939 0.37645 -0.32800
O 	O 	0.02002 0.30270 0.13449 -0.87200
H 	H 	0.02460 0.33930 0.15880 0.25500
Zn	Zn	0.95951 0.34213 0.08058 1.23400
Zn	Zn	0.95001 0.22485 0.16967 1.22600
Zn	Zn	0.62713 0.24495 0.88191 1.23200
C 	C 	0.73482 0.83240 0.57153 -0.15800
C 	C 	0.77374 0.79980 0.53324 0.10400
H 	H 	0.75250 0.75340 0.51880 0.02800
C 	C 	0.84423 0.83640 0.51636 -0.16000
C 	C 	0.87377 0.90650 0.53724 0.09200
H 	H 	0.92170 0.93050 0.52620 0.03800
C 	C 	0.83350 0.94180 0.57412 -0.13600
C 	C 	0.76460 0.90380 0.59158 0.09100
H 	H 	0.73790 0.92620 0.61700 0.03300
C 	C 	0.66080 0.79000 0.59169 0.43500
C 	C 	0.88840 0.80570 0.47464 0.43200
C 	C 	0.86450 0.02180 0.59296 0.37700
C 	C 	0.59960 0.59570 0.76805 -0.12800
C 	C 	0.57097 0.52060 0.78223 0.08200
H 	H 	0.52630 0.49710 0.76720 0.03800
C 	C 	0.60777 0.47960 0.81857 -0.14600
C 	C 	0.67388 0.51570 0.84119 0.07800
H 	H 	0.69880 0.48870 0.86580 0.03700
C 	C 	0.70260 0.59120 0.82739 -0.12200
C 	C 	0.66559 0.63050 0.79074 0.07300
H 	H 	0.68540 0.68130 0.78110 0.04300
C 	C 	0.55910 0.63960 0.72901 0.37000
C 	C 	0.57750 0.39730 0.83342 0.41900
C 	C 	0.77320 0.63040 0.85213 0.35100
O 	O 	0.62816 0.73552 0.56768 -0.50500
O 	O 	0.63736 0.81397 0.63058 -0.50900
O 	O 	0.85024 0.75944 0.44788 -0.48700
O 	O 	0.96082 0.82934 0.46956 -0.49100
O 	O 	0.92944 0.04736 0.57447 -0.47300
O 	O 	0.82626 0.05794 0.62306 -0.31000
O 	O 	0.58476 0.71258 0.72211 -0.46800
O 	O 	0.50495 0.60514 0.70684 -0.33700
O 	O 	0.51435 0.37005 0.81338 -0.49400
O 	O 	0.61683 0.36107 0.86430 -0.49600
O 	O 	0.78059 0.70737 0.84644 -0.44800
O 	O 	0.81982 0.59061 0.87645 -0.32800
O 	O 	0.47998 0.69730 0.63449 -0.87400
H 	H 	0.47540 0.66070 0.65880 0.25400
Zn	Zn	0.54049 0.65787 0.58058 1.23500
Zn	Zn	0.54999 0.77515 0.66967 1.22700
Zn	Zn	0.87287 0.75505 0.38191 1.23200
