data_crystal

_cell_length_a 17.18100
_cell_length_b 9.59780
_cell_length_c 24.67700
_cell_angle_alpha 90.00000
_cell_angle_beta  130.28800
_cell_angle_gamma 90.00000

_symmetry_space_group_name_	'P 1'
_symmetry_space_group_name_H-M	'P 1'

loop_
_symmetry_equiv_pos_as_xyz
  x,y,z

loop_
_atom_site_label
_atom_site_type_symbol
_atom_site_fract_x
_atom_site_fract_y
_atom_site_fract_z
_atom_site_charge
O 	O 	0.09560 0.85550 0.99420 -0.42400
Zn	Zn	0.45750 0.30619 0.32971 1.18500
C 	C 	0.90380 0.99100 0.84790 0.23500
H 	H 	0.92010 0.89710 0.85850 -0.03000
C 	C 	0.84350 0.03170 0.77750 -0.32400
H 	H 	0.81840 0.96740 0.74140 0.17700
C 	C 	0.82220 0.17260 0.76330 0.24200
C 	C 	0.86380 0.26560 0.81790 -0.23400
H 	H 	0.85280 0.36090 0.80910 0.13700
C 	C 	0.92290 0.21400 0.88710 0.14800
H 	H 	0.95160 0.27620 0.92460 -0.00100
C 	C 	0.64500 0.19160 0.57580 0.21600
C 	C 	0.62770 0.33030 0.55670 -0.21900
H 	H 	0.65190 0.40040 0.59020 0.12400
C 	C 	0.57270 0.36090 0.48560 0.12800
H 	H 	0.56070 0.45400 0.47180 -0.02200
C 	C 	0.55150 0.13190 0.45460 0.14600
H 	H 	0.52530 0.06440 0.41960 -0.03500
C 	C 	0.60500 0.08940 0.52430 -0.27600
H 	H 	0.61380 0.99540 0.53610 0.15900
C 	C 	0.41820 0.56990 0.28240 0.32100
C 	C 	0.37770 0.69030 0.23110 -0.09300
C 	C 	0.30960 0.66200 0.15820 0.04200
H 	H 	0.29340 0.57080 0.14160 0.03500
C 	C 	0.26680 0.77290 0.11140 -0.11100
C 	C 	0.28990 0.90820 0.13500 0.03700
H 	H 	0.26190 0.98120 0.10260 0.02000
C 	C 	0.35560 0.93580 0.20760 -0.07600
C 	C 	0.39920 0.82660 0.25550 0.03300
H 	H 	0.44290 0.84460 0.30410 0.05800
C 	C 	0.36910 0.08480 0.23010 0.31100
N 	N 	0.53630 0.26420 0.43600 -0.30000
N 	N 	0.70260 0.14050 0.64720 -0.10900
N 	N 	0.76110 0.22970 0.69290 -0.10200
N 	N 	0.93940 0.07800 0.90100 -0.28800
O 	O 	0.40610 0.44850 0.25680 -0.46700
O 	O 	0.45870 0.59030 0.34540 -0.32500
O 	O 	0.44170 0.11300 0.29530 -0.46400
O 	O 	0.30700 0.17130 0.18460 -0.32800
O 	O 	0.12710 0.60810 0.01070 -0.29100
O 	O 	0.21680 0.75330 0.98720 -0.24800
S 	S 	0.16933 0.74490 0.01807 0.49600
O 	O 	0.90440 0.14450 0.00580 -0.41100
Zn	Zn	0.54250 0.69381 0.67029 1.18700
C 	C 	0.09620 0.00900 0.15210 -0.02700
H 	H 	0.07990 0.10290 0.14150 -0.00000
C 	C 	0.15650 0.96830 0.22250 -0.04200
H 	H 	0.18160 0.03260 0.25860 0.02600
C 	C 	0.17780 0.82740 0.23670 0.11400
C 	C 	0.13620 0.73440 0.18210 -0.15800
H 	H 	0.14720 0.63910 0.19090 0.08600
C 	C 	0.07710 0.78600 0.11290 0.07900
H 	H 	0.04840 0.72380 0.07540 -0.02600
C 	C 	0.35500 0.80840 0.42420 0.15100
C 	C 	0.37230 0.66970 0.44330 -0.18000
H 	H 	0.34810 0.59960 0.40980 0.10100
C 	C 	0.42730 0.63910 0.51440 0.09900
H 	H 	0.43930 0.54600 0.52820 -0.01600
C 	C 	0.44850 0.86810 0.54540 0.07000
H 	H 	0.47470 0.93560 0.58040 0.00700
C 	C 	0.39500 0.91060 0.47570 -0.12500
H 	H 	0.38620 0.00460 0.46390 0.06500
C 	C 	0.58180 0.43010 0.71760 0.33100
C 	C 	0.62230 0.30970 0.76890 -0.11600
C 	C 	0.69040 0.33800 0.84180 0.06700
H 	H 	0.70660 0.42920 0.85840 0.03800
C 	C 	0.73320 0.22710 0.88860 -0.13900
C 	C 	0.71010 0.09180 0.86500 0.07800
H 	H 	0.73810 0.01880 0.89740 0.00600
C 	C 	0.64440 0.06420 0.79240 -0.15300
C 	C 	0.60080 0.17340 0.74450 0.07500
H 	H 	0.55710 0.15540 0.69590 0.03100
C 	C 	0.63090 0.91520 0.76990 0.37100
N 	N 	0.46370 0.73580 0.56400 -0.27900
N 	N 	0.29740 0.85950 0.35280 -0.09200
N 	N 	0.23890 0.77030 0.30710 -0.09300
N 	N 	0.06060 0.92200 0.09900 -0.25100
O 	O 	0.59390 0.55150 0.74320 -0.46100
O 	O 	0.54130 0.40970 0.65460 -0.32900
O 	O 	0.55830 0.88700 0.70470 -0.46200
O 	O 	0.69300 0.82870 0.81540 -0.30900
O 	O 	0.87290 0.39190 0.98930 -0.23700
O 	O 	0.78320 0.24670 0.01280 -0.26700
S 	S 	0.83067 0.25510 0.98193 0.57600
Zn	Zn	-0.00000 0.00000 -0.00000 1.13200
O 	O 	0.90440 0.85550 0.50580 -0.37800
Zn	Zn	0.54250 0.30619 0.17029 1.18500
C 	C 	0.09620 0.99100 0.65210 0.25100
H 	H 	0.07990 0.89710 0.64150 -0.08300
C 	C 	0.15650 0.03170 0.72250 -0.37100
H 	H 	0.18160 0.96740 0.75860 0.17700
C 	C 	0.17780 0.17260 0.73670 0.24100
C 	C 	0.13620 0.26560 0.68210 -0.25800
H 	H 	0.14720 0.36090 0.69090 0.12100
C 	C 	0.07710 0.21400 0.61290 0.14000
H 	H 	0.04840 0.27620 0.57540 -0.04600
C 	C 	0.35500 0.19160 0.92420 0.17400
C 	C 	0.37230 0.33030 0.94330 -0.16600
H 	H 	0.34810 0.40040 0.90980 0.09800
C 	C 	0.42730 0.36090 0.01440 0.07400
H 	H 	0.43930 0.45400 0.02820 -0.01300
C 	C 	0.44850 0.13190 0.04540 0.09300
H 	H 	0.47470 0.06440 0.08040 -0.02200
C 	C 	0.39500 0.08940 0.97570 -0.22200
H 	H 	0.38620 0.99540 0.96390 0.13800
C 	C 	0.58180 0.56990 0.21760 0.32200
C 	C 	0.62230 0.69030 0.26890 -0.09000
C 	C 	0.69040 0.66200 0.34180 0.03900
H 	H 	0.70660 0.57080 0.35840 0.04500
C 	C 	0.73320 0.77290 0.38860 -0.10500
C 	C 	0.71010 0.90820 0.36500 0.03200
H 	H 	0.73810 0.98120 0.39740 0.03600
C 	C 	0.64440 0.93580 0.29240 -0.07200
C 	C 	0.60080 0.82660 0.24450 0.03000
H 	H 	0.55710 0.84460 0.19590 0.05600
C 	C 	0.63090 0.08480 0.26990 0.30900
N 	N 	0.46370 0.26420 0.06400 -0.28500
N 	N 	0.29740 0.14050 0.85280 -0.10800
N 	N 	0.23890 0.22970 0.80710 -0.11600
N 	N 	0.06060 0.07800 0.59900 -0.33800
O 	O 	0.59390 0.44850 0.24320 -0.46200
O 	O 	0.54130 0.59030 0.15460 -0.32800
O 	O 	0.55830 0.11300 0.20470 -0.46400
O 	O 	0.69300 0.17130 0.31540 -0.30800
O 	O 	0.87290 0.60810 0.48930 -0.23300
O 	O 	0.78320 0.75330 0.51280 -0.23800
S 	S 	0.83067 0.74490 0.48193 0.52800
O 	O 	0.09560 0.14450 0.49420 -0.46800
Zn	Zn	0.45750 0.69381 0.82971 1.18700
C 	C 	0.90380 0.00900 0.34790 0.01500
H 	H 	0.92010 0.10290 0.35850 0.03800
C 	C 	0.84350 0.96830 0.27750 -0.06000
H 	H 	0.81840 0.03260 0.24140 0.05500
C 	C 	0.82220 0.82740 0.26330 0.14100
C 	C 	0.86380 0.73440 0.31790 -0.15300
H 	H 	0.85280 0.63910 0.30910 0.11000
C 	C 	0.92290 0.78600 0.38710 0.10000
H 	H 	0.95160 0.72380 0.42460 0.01500
C 	C 	0.64500 0.80840 0.07580 0.18800
C 	C 	0.62770 0.66970 0.05670 -0.22600
H 	H 	0.65190 0.59960 0.09020 0.12400
C 	C 	0.57270 0.63910 0.98560 0.14400
H 	H 	0.56070 0.54600 0.97180 -0.02400
C 	C 	0.55150 0.86810 0.95460 0.11400
H 	H 	0.52530 0.93560 0.91960 -0.00400
C 	C 	0.60500 0.91060 0.02430 -0.17200
H 	H 	0.61380 0.00460 0.03610 0.08500
C 	C 	0.41820 0.43010 0.78240 0.33100
C 	C 	0.37770 0.30970 0.73110 -0.12300
C 	C 	0.30960 0.33800 0.65820 0.07400
H 	H 	0.29340 0.42920 0.64160 0.02700
C 	C 	0.26680 0.22710 0.61140 -0.14900
C 	C 	0.28990 0.09180 0.63500 0.08800
H 	H 	0.26190 0.01880 0.60260 -0.01300
C 	C 	0.35560 0.06420 0.70760 -0.16400
C 	C 	0.39920 0.17340 0.75550 0.08200
H 	H 	0.44290 0.15540 0.80410 0.03100
C 	C 	0.36910 0.91520 0.73010 0.37900
N 	N 	0.53630 0.73580 0.93600 -0.29200
N 	N 	0.70260 0.85950 0.14720 -0.09300
N 	N 	0.76110 0.77030 0.19290 -0.08400
N 	N 	0.93940 0.92200 0.40100 -0.22000
O 	O 	0.40610 0.55150 0.75680 -0.46700
O 	O 	0.45870 0.40970 0.84540 -0.32700
O 	O 	0.44170 0.88700 0.79530 -0.46400
O 	O 	0.30700 0.82870 0.68460 -0.32700
O 	O 	0.12710 0.39190 0.51070 -0.29400
O 	O 	0.21680 0.24670 0.48720 -0.28300
S 	S 	0.16933 0.25510 0.51807 0.55700
Zn	Zn	0.00000 0.00000 0.50000 1.13900
