data_crystal

_cell_length_a 14.49390
_cell_length_b 10.25950
_cell_length_c 18.67820
_cell_angle_alpha 90.00000
_cell_angle_beta  98.99100
_cell_angle_gamma 90.00000

_symmetry_space_group_name_	'P 1'
_symmetry_space_group_name_H-M	'P 1'

loop_
_symmetry_equiv_pos_as_xyz
  x,y,z

loop_
_atom_site_label
_atom_site_type_symbol
_atom_site_fract_x
_atom_site_fract_y
_atom_site_fract_z
_atom_site_charge
V 	V 	0.15490 0.88400 0.08720 1.80300
V 	V 	0.73700 0.55430 0.78060 1.70400
P 	P 	0.21740 0.87640 0.92400 0.48900
P 	P 	0.83520 0.83340 0.83160 0.44100
K 	K 	0.34380 0.30590 0.04250 0.61800
O 	O 	0.20860 0.92390 0.00010 -0.55700
O 	O 	0.75790 0.73100 0.82530 -0.58100
O 	O 	0.82050 0.92900 0.89200 -0.56900
O 	O 	0.21480 0.99770 0.87660 -0.58500
O 	O 	0.83830 0.90360 0.75990 -0.54600
O 	O 	0.30780 0.80010 0.92350 -0.52000
O 	O 	0.04450 0.87230 0.06740 -0.65400
O 	O 	0.18990 0.85100 0.19080 -0.71400
C 	C 	0.12040 0.77170 0.89140 -0.17400
C 	C 	0.94530 0.75270 0.85640 -0.17800
C 	C 	0.02840 0.84550 0.87530 0.02500
V 	V 	0.65490 0.38400 0.08720 1.80500
V 	V 	0.23700 0.05430 0.78060 1.70300
P 	P 	0.71740 0.37640 0.92400 0.48600
P 	P 	0.33520 0.33340 0.83160 0.44200
K 	K 	0.84380 0.80590 0.04250 0.61600
O 	O 	0.70860 0.42390 0.00010 -0.55000
O 	O 	0.25790 0.23100 0.82530 -0.58300
O 	O 	0.32050 0.42900 0.89200 -0.57400
O 	O 	0.71480 0.49770 0.87660 -0.58900
O 	O 	0.33830 0.40360 0.75990 -0.54800
O 	O 	0.80780 0.30010 0.92350 -0.52100
O 	O 	0.54450 0.37230 0.06740 -0.65100
O 	O 	0.68990 0.35100 0.19080 -0.71200
C 	C 	0.62040 0.27170 0.89140 -0.17500
C 	C 	0.44530 0.25270 0.85640 -0.18100
C 	C 	0.52840 0.34550 0.87530 0.02400
V 	V 	0.84510 0.88400 0.41280 1.80500
V 	V 	0.26300 0.55430 0.71940 1.70500
P 	P 	0.78260 0.87640 0.57600 0.48600
P 	P 	0.16480 0.83340 0.66840 0.44300
K 	K 	0.65620 0.30590 0.45750 0.61800
O 	O 	0.79140 0.92390 0.49990 -0.55000
O 	O 	0.24210 0.73100 0.67470 -0.58100
O 	O 	0.17950 0.92900 0.60800 -0.57200
O 	O 	0.78520 0.99770 0.62340 -0.58700
O 	O 	0.16170 0.90360 0.74010 -0.54600
O 	O 	0.69220 0.80010 0.57650 -0.52100
O 	O 	0.95550 0.87230 0.43260 -0.65300
O 	O 	0.81010 0.85100 0.30920 -0.71400
C 	C 	0.87960 0.77170 0.60860 -0.17400
C 	C 	0.05470 0.75270 0.64360 -0.18000
C 	C 	0.97160 0.84550 0.62470 0.02500
V 	V 	0.34510 0.38400 0.41280 1.80500
V 	V 	0.76300 0.05430 0.71940 1.70400
P 	P 	0.28260 0.37640 0.57600 0.48600
P 	P 	0.66480 0.33340 0.66840 0.44200
K 	K 	0.15620 0.80590 0.45750 0.61800
O 	O 	0.29140 0.42390 0.49990 -0.55000
O 	O 	0.74210 0.23100 0.67470 -0.58200
O 	O 	0.67950 0.42900 0.60800 -0.57300
O 	O 	0.28520 0.49770 0.62340 -0.58900
O 	O 	0.66170 0.40360 0.74010 -0.54800
O 	O 	0.19220 0.30010 0.57650 -0.52100
O 	O 	0.45550 0.37230 0.43260 -0.65200
O 	O 	0.31010 0.35100 0.30920 -0.71200
C 	C 	0.37960 0.27170 0.60860 -0.17400
C 	C 	0.55470 0.25270 0.64360 -0.17900
C 	C 	0.47160 0.34550 0.62470 0.02400
V 	V 	0.84510 0.11600 0.91280 1.80400
V 	V 	0.26300 0.44570 0.21940 1.70500
P 	P 	0.78260 0.12360 0.07600 0.49000
P 	P 	0.16480 0.16660 0.16840 0.44200
K 	K 	0.65620 0.69410 0.95750 0.61900
O 	O 	0.79140 0.07610 0.99990 -0.55600
O 	O 	0.24210 0.26900 0.17470 -0.58100
O 	O 	0.17950 0.07100 0.10800 -0.56900
O 	O 	0.78520 0.00230 0.12340 -0.58500
O 	O 	0.16170 0.09640 0.24010 -0.54600
O 	O 	0.69220 0.19990 0.07650 -0.52000
O 	O 	0.95550 0.12770 0.93260 -0.65400
O 	O 	0.81010 0.14900 0.80920 -0.71400
C 	C 	0.87960 0.22830 0.10860 -0.17400
C 	C 	0.05470 0.24730 0.14360 -0.17800
C 	C 	0.97160 0.15450 0.12470 0.02500
V 	V 	0.34510 0.61600 0.91280 1.80500
V 	V 	0.76300 0.94570 0.21940 1.70300
P 	P 	0.28260 0.62360 0.07600 0.48600
P 	P 	0.66480 0.66660 0.16840 0.44200
K 	K 	0.15620 0.19410 0.95750 0.61600
O 	O 	0.29140 0.57610 0.99990 -0.55000
O 	O 	0.74210 0.76900 0.17470 -0.58300
O 	O 	0.67950 0.57100 0.10800 -0.57400
O 	O 	0.28520 0.50230 0.12340 -0.58900
O 	O 	0.66170 0.59640 0.24010 -0.54800
O 	O 	0.19220 0.69990 0.07650 -0.52100
O 	O 	0.45550 0.62770 0.93260 -0.65100
O 	O 	0.31010 0.64900 0.80920 -0.71200
C 	C 	0.37960 0.72830 0.10860 -0.17500
C 	C 	0.55470 0.74730 0.14360 -0.18100
C 	C 	0.47160 0.65450 0.12470 0.02400
V 	V 	0.15490 0.11600 0.58720 1.80500
V 	V 	0.73700 0.44570 0.28060 1.70500
P 	P 	0.21740 0.12360 0.42400 0.48600
P 	P 	0.83520 0.16660 0.33160 0.44300
K 	K 	0.34380 0.69410 0.54250 0.61800
O 	O 	0.20860 0.07610 0.50010 -0.55000
O 	O 	0.75790 0.26900 0.32530 -0.58100
O 	O 	0.82050 0.07100 0.39200 -0.57200
O 	O 	0.21480 0.00230 0.37660 -0.58700
O 	O 	0.83830 0.09640 0.25990 -0.54600
O 	O 	0.30780 0.19990 0.42350 -0.52100
O 	O 	0.04450 0.12770 0.56740 -0.65300
O 	O 	0.18990 0.14900 0.69080 -0.71400
C 	C 	0.12040 0.22830 0.39140 -0.17400
C 	C 	0.94530 0.24730 0.35640 -0.18000
C 	C 	0.02840 0.15450 0.37530 0.02500
V 	V 	0.65490 0.61600 0.58720 1.80500
V 	V 	0.23700 0.94570 0.28060 1.70400
P 	P 	0.71740 0.62360 0.42400 0.48600
P 	P 	0.33520 0.66660 0.33160 0.44200
K 	K 	0.84380 0.19410 0.54250 0.61800
O 	O 	0.70860 0.57610 0.50010 -0.55000
O 	O 	0.25790 0.76900 0.32530 -0.58200
O 	O 	0.32050 0.57100 0.39200 -0.57300
O 	O 	0.71480 0.50230 0.37660 -0.58900
O 	O 	0.33830 0.59640 0.25990 -0.54800
O 	O 	0.80780 0.69990 0.42350 -0.52100
O 	O 	0.54450 0.62770 0.56740 -0.65200
O 	O 	0.68990 0.64900 0.69080 -0.71200
C 	C 	0.62040 0.72830 0.39140 -0.17400
C 	C 	0.44530 0.74730 0.35640 -0.17900
C 	C 	0.52840 0.65450 0.37530 0.02400
