data_crystal

_cell_length_a 13.03600
_cell_length_b 12.29480
_cell_length_c 18.70550
_cell_angle_alpha 90.00000
_cell_angle_beta  123.01900
_cell_angle_gamma 90.00000

_symmetry_space_group_name_	'P 1'
_symmetry_space_group_name_H-M	'P 1'

loop_
_symmetry_equiv_pos_as_xyz
  x,y,z

loop_
_atom_site_label
_atom_site_type_symbol
_atom_site_fract_x
_atom_site_fract_y
_atom_site_fract_z
_atom_site_charge
Zn	Zn	0.59993 0.69252 0.12625 1.22200
C 	C 	0.61130 0.58760 0.98300 -0.00400
H 	H 	0.63740 0.52050 0.01020 0.03000
C 	C 	0.59270 0.61240 0.90670 0.01000
H 	H 	0.60180 0.56610 0.87120 0.04300
C 	C 	0.55260 0.75670 0.95800 0.11300
H 	H 	0.52940 0.82660 0.96250 0.00400
C 	C 	0.52930 0.78410 0.81820 0.20500
C 	C 	0.53360 0.89520 0.82300 -0.23600
H 	H 	0.55840 0.93080 0.87380 0.13400
C 	C 	0.82310 0.18570 0.25670 0.28200
C 	C 	0.00850 0.29160 0.34670 0.29100
C 	C 	0.01890 0.09360 0.35160 0.29100
C 	C 	0.81630 0.38210 0.24580 0.18800
H 	H 	0.75450 0.36840 0.18620 0.00700
H 	H 	0.87050 0.43810 0.24820 0.01000
C 	C 	0.75500 0.42290 0.28920 -0.50700
H 	H 	0.81700 0.44060 0.34800 0.19900
H 	H 	0.70410 0.36560 0.28950 0.20600
C 	C 	0.67730 0.52200 0.24610 0.52200
C 	C 	0.20500 0.19840 0.43280 0.14300
H 	H 	0.23440 0.26180 0.41820 0.01000
H 	H 	0.23910 0.13460 0.42270 0.02300
C 	C 	0.25260 0.20350 0.52760 -0.44600
H 	H 	0.21920 0.26620 0.53960 0.18500
H 	H 	0.23000 0.13830 0.54510 0.18000
C 	C 	0.38980 0.21250 0.57380 0.43200
C 	C 	0.83490 0.98670 0.25680 0.15200
H 	H 	0.89180 0.93610 0.25670 0.02300
H 	H 	0.76720 0.99680 0.19830 0.02000
C 	C 	0.78660 0.93740 0.30750 -0.45900
H 	H 	0.85470 0.91510 0.36320 0.17900
H 	H 	0.73990 0.99160 0.31580 0.18400
C 	C 	0.70620 0.84010 0.26130 0.47900
O 	O 	0.62620 0.56720 0.27830 -0.50000
O 	O 	0.67050 0.55210 0.17930 -0.50900
O 	O 	0.44820 0.14470 0.56360 -0.36600
O 	O 	0.44140 0.30180 0.61860 -0.57800
O 	O 	0.62970 0.81010 0.27920 -0.47600
O 	O 	0.72090 0.79460 0.20690 -0.49500
O 	O 	0.71500 0.18080 0.20620 -0.25300
O 	O 	0.05800 0.37840 0.37190 -0.25400
O 	O 	0.07730 0.01110 0.38150 -0.25200
N 	N 	0.58480 0.68000 0.01500 -0.25900
N 	N 	0.55750 0.72060 0.89160 -0.14500
N 	N 	0.88660 0.28280 0.28410 -0.21800
N 	N 	0.07210 0.19430 0.37620 -0.21300
N 	N 	0.89620 0.09070 0.29080 -0.20800
Zn	Zn	0.40007 0.69252 0.37375 1.22300
C 	C 	0.38870 0.58760 0.51700 -0.00300
H 	H 	0.36260 0.52050 0.48980 0.03100
C 	C 	0.40730 0.61240 0.59330 0.01100
H 	H 	0.39820 0.56610 0.62880 0.04400
C 	C 	0.44740 0.75670 0.54200 0.11400
H 	H 	0.47060 0.82660 0.53750 0.00500
C 	C 	0.47070 0.78410 0.68180 0.20600
C 	C 	0.46640 0.89520 0.67700 -0.23500
H 	H 	0.44160 0.93080 0.62620 0.13500
C 	C 	0.17690 0.18570 0.24330 0.28200
C 	C 	0.99150 0.29160 0.15330 0.29100
C 	C 	0.98110 0.09360 0.14840 0.29100
C 	C 	0.18370 0.38210 0.25420 0.18800
H 	H 	0.24550 0.36840 0.31380 0.00700
H 	H 	0.12950 0.43810 0.25180 0.01000
C 	C 	0.24500 0.42290 0.21080 -0.50700
H 	H 	0.18300 0.44060 0.15200 0.19900
H 	H 	0.29590 0.36560 0.21050 0.20600
C 	C 	0.32270 0.52200 0.25390 0.52200
C 	C 	0.79500 0.19840 0.06720 0.14400
H 	H 	0.76560 0.26180 0.08180 0.01000
H 	H 	0.76090 0.13460 0.07730 0.02300
C 	C 	0.74740 0.20350 0.97240 -0.44700
H 	H 	0.78080 0.26620 0.96040 0.18500
H 	H 	0.77000 0.13830 0.95490 0.18000
C 	C 	0.61020 0.21250 0.92620 0.43200
C 	C 	0.16510 0.98670 0.24320 0.15200
H 	H 	0.10820 0.93610 0.24330 0.02300
H 	H 	0.23280 0.99680 0.30170 0.02000
C 	C 	0.21340 0.93740 0.19250 -0.45800
H 	H 	0.14530 0.91510 0.13680 0.17900
H 	H 	0.26010 0.99160 0.18420 0.18400
C 	C 	0.29380 0.84010 0.23870 0.47900
O 	O 	0.37380 0.56720 0.22170 -0.50000
O 	O 	0.32950 0.55210 0.32070 -0.50900
O 	O 	0.55180 0.14470 0.93640 -0.36600
O 	O 	0.55860 0.30180 0.88140 -0.57800
O 	O 	0.37030 0.81010 0.22080 -0.47600
O 	O 	0.27910 0.79460 0.29310 -0.49500
O 	O 	0.28500 0.18080 0.29380 -0.25300
O 	O 	0.94200 0.37840 0.12810 -0.25400
O 	O 	0.92270 0.01110 0.11850 -0.25200
N 	N 	0.41520 0.68000 0.48500 -0.25800
N 	N 	0.44250 0.72060 0.60840 -0.14500
N 	N 	0.11340 0.28280 0.21590 -0.21800
N 	N 	0.92790 0.19430 0.12380 -0.21300
N 	N 	0.10380 0.09070 0.20920 -0.20900
Zn	Zn	0.40007 0.30748 0.87375 1.22300
C 	C 	0.38870 0.41240 0.01700 -0.00300
H 	H 	0.36260 0.47950 0.98980 0.03100
C 	C 	0.40730 0.38760 0.09330 0.01100
H 	H 	0.39820 0.43390 0.12880 0.04400
C 	C 	0.44740 0.24330 0.04200 0.11400
H 	H 	0.47060 0.17340 0.03750 0.00500
C 	C 	0.47070 0.21590 0.18180 0.20600
C 	C 	0.46640 0.10480 0.17700 -0.23500
H 	H 	0.44160 0.06920 0.12620 0.13500
C 	C 	0.17690 0.81430 0.74330 0.28200
C 	C 	0.99150 0.70840 0.65330 0.29100
C 	C 	0.98110 0.90640 0.64840 0.29100
C 	C 	0.18370 0.61790 0.75420 0.18800
H 	H 	0.24550 0.63160 0.81380 0.00700
H 	H 	0.12950 0.56190 0.75180 0.01000
C 	C 	0.24500 0.57710 0.71080 -0.50700
H 	H 	0.18300 0.55940 0.65200 0.19900
H 	H 	0.29590 0.63440 0.71050 0.20600
C 	C 	0.32270 0.47800 0.75390 0.52200
C 	C 	0.79500 0.80160 0.56720 0.14300
H 	H 	0.76560 0.73820 0.58180 0.01000
H 	H 	0.76090 0.86540 0.57730 0.02300
C 	C 	0.74740 0.79650 0.47240 -0.44600
H 	H 	0.78080 0.73380 0.46040 0.18500
H 	H 	0.77000 0.86170 0.45490 0.18000
C 	C 	0.61020 0.78750 0.42620 0.43200
C 	C 	0.16510 0.01330 0.74320 0.15200
H 	H 	0.10820 0.06390 0.74330 0.02300
H 	H 	0.23280 0.00320 0.80170 0.02000
C 	C 	0.21340 0.06260 0.69250 -0.45900
H 	H 	0.14530 0.08490 0.63680 0.17900
H 	H 	0.26010 0.00840 0.68420 0.18400
C 	C 	0.29380 0.15990 0.73870 0.47900
O 	O 	0.37380 0.43280 0.72170 -0.50000
O 	O 	0.32950 0.44790 0.82070 -0.50900
O 	O 	0.55180 0.85530 0.43640 -0.36600
O 	O 	0.55860 0.69820 0.38140 -0.57800
O 	O 	0.37030 0.18990 0.72080 -0.47600
O 	O 	0.27910 0.20540 0.79310 -0.49500
O 	O 	0.28500 0.81920 0.79380 -0.25300
O 	O 	0.94200 0.62160 0.62810 -0.25400
O 	O 	0.92270 0.98890 0.61850 -0.25200
N 	N 	0.41520 0.32000 0.98500 -0.25900
N 	N 	0.44250 0.27940 0.10840 -0.14500
N 	N 	0.11340 0.71720 0.71590 -0.21800
N 	N 	0.92790 0.80570 0.62380 -0.21300
N 	N 	0.10380 0.90930 0.70920 -0.20800
Zn	Zn	0.59993 0.30748 0.62625 1.22300
C 	C 	0.61130 0.41240 0.48300 -0.00300
H 	H 	0.63740 0.47950 0.51020 0.03100
C 	C 	0.59270 0.38760 0.40670 0.01100
H 	H 	0.60180 0.43390 0.37120 0.04400
C 	C 	0.55260 0.24330 0.45800 0.11400
H 	H 	0.52940 0.17340 0.46250 0.00500
C 	C 	0.52930 0.21590 0.31820 0.20600
C 	C 	0.53360 0.10480 0.32300 -0.23500
H 	H 	0.55840 0.06920 0.37380 0.13500
C 	C 	0.82310 0.81430 0.75670 0.28200
C 	C 	0.00850 0.70840 0.84670 0.29100
C 	C 	0.01890 0.90640 0.85160 0.29100
C 	C 	0.81630 0.61790 0.74580 0.18800
H 	H 	0.75450 0.63160 0.68620 0.00700
H 	H 	0.87050 0.56190 0.74820 0.01000
C 	C 	0.75500 0.57710 0.78920 -0.50700
H 	H 	0.81700 0.55940 0.84800 0.19900
H 	H 	0.70410 0.63440 0.78950 0.20600
C 	C 	0.67730 0.47800 0.74610 0.52200
C 	C 	0.20500 0.80160 0.93280 0.14400
H 	H 	0.23440 0.73820 0.91820 0.01000
H 	H 	0.23910 0.86540 0.92270 0.02300
C 	C 	0.25260 0.79650 0.02760 -0.44700
H 	H 	0.21920 0.73380 0.03960 0.18500
H 	H 	0.23000 0.86170 0.04510 0.18000
C 	C 	0.38980 0.78750 0.07380 0.43200
C 	C 	0.83490 0.01330 0.75680 0.15200
H 	H 	0.89180 0.06390 0.75670 0.02300
H 	H 	0.76720 0.00320 0.69830 0.02000
C 	C 	0.78660 0.06260 0.80750 -0.45800
H 	H 	0.85470 0.08490 0.86320 0.17900
H 	H 	0.73990 0.00840 0.81580 0.18400
C 	C 	0.70620 0.15990 0.76130 0.47900
O 	O 	0.62620 0.43280 0.77830 -0.50000
O 	O 	0.67050 0.44790 0.67930 -0.50900
O 	O 	0.44820 0.85530 0.06360 -0.36600
O 	O 	0.44140 0.69820 0.11860 -0.57800
O 	O 	0.62970 0.18990 0.77920 -0.47600
O 	O 	0.72090 0.20540 0.70690 -0.49500
O 	O 	0.71500 0.81920 0.70620 -0.25300
O 	O 	0.05800 0.62160 0.87190 -0.25400
O 	O 	0.07730 0.98890 0.88150 -0.25200
N 	N 	0.58480 0.32000 0.51500 -0.25800
N 	N 	0.55750 0.27940 0.39160 -0.14500
N 	N 	0.88660 0.71720 0.78410 -0.21800
N 	N 	0.07210 0.80570 0.87620 -0.21300
N 	N 	0.89620 0.90930 0.79080 -0.20900
Zn	Zn	0.50000 0.68697 0.25000 1.24100
Zn	Zn	0.50000 0.31303 0.75000 1.24100
C 	C 	0.50000 0.95280 0.75000 0.14800
H 	H 	0.50000 0.02850 0.75000 -0.00300
N 	N 	0.50000 0.72870 0.75000 -0.18000
C 	C 	0.50000 0.04720 0.25000 0.14800
H 	H 	0.50000 0.97150 0.25000 -0.00300
N 	N 	0.50000 0.27130 0.25000 -0.18000
