data_crystal

_cell_length_a 24.04310
_cell_length_b 9.05160
_cell_length_c 18.75940
_cell_angle_alpha 90.00000
_cell_angle_beta  114.50600
_cell_angle_gamma 90.00000

_symmetry_space_group_name_	'P 1'
_symmetry_space_group_name_H-M	'P 1'

loop_
_symmetry_equiv_pos_as_xyz
  x,y,z

loop_
_atom_site_label
_atom_site_type_symbol
_atom_site_fract_x
_atom_site_fract_y
_atom_site_fract_z
_atom_site_charge
Er	Er	0.45715 0.69334 0.50415 1.66300
Co	Co	0.28823 0.50929 0.16219 1.15900
O 	O 	0.42150 0.62740 0.37680 -0.45900
O 	O 	0.37680 0.53880 0.25800 -0.42400
O 	O 	0.39120 0.87430 0.44500 -0.47300
O 	O 	0.30290 0.97930 0.42560 -0.42700
O 	O 	0.53960 0.80440 0.48160 -0.44500
O 	O 	0.54680 0.56770 0.49610 -0.55100
O 	O 	0.61640 0.35350 0.45920 -0.51300
O 	O 	0.66830 0.36810 0.38730 -0.43700
N 	N 	0.26980 0.66220 0.23050 -0.28100
N 	N 	0.24150 0.83450 0.29370 -0.27200
N 	N 	0.64120 0.82300 0.44850 -0.25900
H 	H 	0.63240 0.90810 0.46130 0.15800
N 	N 	0.68400 0.65470 0.40450 -0.26400
C 	C 	0.37590 0.61890 0.31130 0.35800
C 	C 	0.31890 0.69820 0.29660 -0.07100
C 	C 	0.30170 0.80170 0.33640 -0.07400
C 	C 	0.33390 0.89060 0.40650 0.36700
C 	C 	0.22480 0.74700 0.23110 0.32300
C 	C 	0.16190 0.74670 0.16840 -0.87000
H 	H 	0.14530 0.64860 0.16220 0.27200
H 	H 	0.16280 0.77830 0.12010 0.27200
H 	H 	0.13680 0.81290 0.18230 0.27000
C 	C 	0.56550 0.68620 0.47980 0.35900
C 	C 	0.61700 0.69070 0.45680 -0.02100
C 	C 	0.64460 0.58800 0.43000 -0.09700
C 	C 	0.64190 0.42570 0.42450 0.41600
C 	C 	0.68100 0.79710 0.41720 0.35100
C 	C 	0.71660 0.91640 0.40020 -0.89800
H 	H 	0.75830 0.88510 0.41660 0.28100
H 	H 	0.71540 0.00430 0.42810 0.30300
H 	H 	0.69910 0.93630 0.34500 0.28400
Er	Er	0.95715 0.19334 0.50415 1.66500
Co	Co	0.78823 0.00929 0.16219 1.15900
O 	O 	0.92150 0.12740 0.37680 -0.46000
O 	O 	0.87680 0.03880 0.25800 -0.42500
O 	O 	0.89120 0.37430 0.44500 -0.47300
O 	O 	0.80290 0.47930 0.42560 -0.42700
O 	O 	0.03960 0.30440 0.48160 -0.44400
O 	O 	0.04680 0.06770 0.49610 -0.55000
O 	O 	0.11640 0.85350 0.45920 -0.51300
O 	O 	0.16830 0.86810 0.38730 -0.43600
N 	N 	0.76980 0.16220 0.23050 -0.28100
N 	N 	0.74150 0.33450 0.29370 -0.27200
N 	N 	0.14120 0.32300 0.44850 -0.25900
H 	H 	0.13240 0.40810 0.46130 0.15900
N 	N 	0.18400 0.15470 0.40450 -0.26400
C 	C 	0.87590 0.11890 0.31130 0.35800
C 	C 	0.81890 0.19820 0.29660 -0.07200
C 	C 	0.80170 0.30170 0.33640 -0.07400
C 	C 	0.83390 0.39060 0.40650 0.36700
C 	C 	0.72480 0.24700 0.23110 0.32100
C 	C 	0.66190 0.24670 0.16840 -0.86400
H 	H 	0.64530 0.14860 0.16220 0.26900
H 	H 	0.66280 0.27830 0.12010 0.26800
H 	H 	0.63680 0.31290 0.18230 0.26700
C 	C 	0.06550 0.18620 0.47980 0.35900
C 	C 	0.11700 0.19070 0.45680 -0.02000
C 	C 	0.14460 0.08800 0.43000 -0.09700
C 	C 	0.14190 0.92570 0.42450 0.41600
C 	C 	0.18100 0.29710 0.41720 0.35200
C 	C 	0.21660 0.41640 0.40020 -0.90100
H 	H 	0.25830 0.38510 0.41660 0.28200
H 	H 	0.21540 0.50430 0.42810 0.30400
H 	H 	0.19910 0.43630 0.34500 0.28500
Er	Er	0.54285 0.69334 0.99585 1.66200
Co	Co	0.71177 0.50929 0.33781 1.16000
O 	O 	0.57850 0.62740 0.12320 -0.45900
O 	O 	0.62320 0.53880 0.24200 -0.42400
O 	O 	0.60880 0.87430 0.05500 -0.47200
O 	O 	0.69710 0.97930 0.07440 -0.42600
O 	O 	0.46040 0.80440 0.01840 -0.44300
O 	O 	0.45320 0.56770 0.00390 -0.55000
O 	O 	0.38360 0.35350 0.04080 -0.51200
O 	O 	0.33170 0.36810 0.11270 -0.43700
N 	N 	0.73020 0.66220 0.26950 -0.28100
N 	N 	0.75850 0.83450 0.20630 -0.27200
N 	N 	0.35880 0.82300 0.05150 -0.25900
H 	H 	0.36760 0.90810 0.03870 0.15900
N 	N 	0.31600 0.65470 0.09550 -0.26400
C 	C 	0.62410 0.61890 0.18870 0.35800
C 	C 	0.68110 0.69820 0.20340 -0.07100
C 	C 	0.69830 0.80170 0.16360 -0.07400
C 	C 	0.66610 0.89060 0.09350 0.36700
C 	C 	0.77520 0.74700 0.26890 0.32200
C 	C 	0.83810 0.74670 0.33160 -0.86700
H 	H 	0.85470 0.64860 0.33780 0.27000
H 	H 	0.83720 0.77830 0.37990 0.27000
H 	H 	0.86320 0.81290 0.31770 0.26900
C 	C 	0.43450 0.68620 0.02020 0.35900
C 	C 	0.38300 0.69070 0.04320 -0.02000
C 	C 	0.35540 0.58800 0.07000 -0.09700
C 	C 	0.35810 0.42570 0.07550 0.41600
C 	C 	0.31900 0.79710 0.08280 0.35000
C 	C 	0.28340 0.91640 0.09980 -0.89200
H 	H 	0.24170 0.88510 0.08340 0.28000
H 	H 	0.28460 0.00430 0.07190 0.30000
H 	H 	0.30090 0.93630 0.15500 0.28200
Er	Er	0.04285 0.19334 0.99585 1.66600
Co	Co	0.21177 0.00929 0.33781 1.16000
O 	O 	0.07850 0.12740 0.12320 -0.45800
O 	O 	0.12320 0.03880 0.24200 -0.42400
O 	O 	0.10880 0.37430 0.05500 -0.47200
O 	O 	0.19710 0.47930 0.07440 -0.42600
O 	O 	0.96040 0.30440 0.01840 -0.44600
O 	O 	0.95320 0.06770 0.00390 -0.55300
O 	O 	0.88360 0.85350 0.04080 -0.51300
O 	O 	0.83170 0.86810 0.11270 -0.43700
N 	N 	0.23020 0.16220 0.26950 -0.28100
N 	N 	0.25850 0.33450 0.20630 -0.27200
N 	N 	0.85880 0.32300 0.05150 -0.25900
H 	H 	0.86760 0.40810 0.03870 0.15800
N 	N 	0.81600 0.15470 0.09550 -0.26400
C 	C 	0.12410 0.11890 0.18870 0.35800
C 	C 	0.18110 0.19820 0.20340 -0.07200
C 	C 	0.19830 0.30170 0.16360 -0.07400
C 	C 	0.16610 0.39060 0.09350 0.36700
C 	C 	0.27520 0.24700 0.26890 0.32100
C 	C 	0.33810 0.24670 0.33160 -0.86600
H 	H 	0.35470 0.14860 0.33780 0.26900
H 	H 	0.33720 0.27830 0.37990 0.26900
H 	H 	0.36320 0.31290 0.31770 0.26800
C 	C 	0.93450 0.18620 0.02020 0.35900
C 	C 	0.88300 0.19070 0.04320 -0.02100
C 	C 	0.85540 0.08800 0.07000 -0.09900
C 	C 	0.85810 0.92570 0.07550 0.41800
C 	C 	0.81900 0.29710 0.08280 0.35100
C 	C 	0.78340 0.41640 0.09980 -0.90000
H 	H 	0.74170 0.38510 0.08340 0.28100
H 	H 	0.78460 0.50430 0.07190 0.30400
H 	H 	0.80090 0.43630 0.15500 0.28400
Er	Er	0.54285 0.30666 0.49585 1.66400
Co	Co	0.71177 0.49071 0.83781 1.16000
O 	O 	0.57850 0.37260 0.62320 -0.45900
O 	O 	0.62320 0.46120 0.74200 -0.42400
O 	O 	0.60880 0.12570 0.55500 -0.47300
O 	O 	0.69710 0.02070 0.57440 -0.42700
O 	O 	0.46040 0.19560 0.51840 -0.44500
O 	O 	0.45320 0.43230 0.50390 -0.55100
O 	O 	0.38360 0.64650 0.54080 -0.51300
O 	O 	0.33170 0.63190 0.61270 -0.43700
N 	N 	0.73020 0.33780 0.76950 -0.28100
N 	N 	0.75850 0.16550 0.70630 -0.27200
N 	N 	0.35880 0.17700 0.55150 -0.25900
H 	H 	0.36760 0.09190 0.53870 0.15800
N 	N 	0.31600 0.34530 0.59550 -0.26400
C 	C 	0.62410 0.38110 0.68870 0.35800
C 	C 	0.68110 0.30180 0.70340 -0.07100
C 	C 	0.69830 0.19830 0.66360 -0.07400
C 	C 	0.66610 0.10940 0.59350 0.36700
C 	C 	0.77520 0.25300 0.76890 0.32300
C 	C 	0.83810 0.25330 0.83160 -0.87000
H 	H 	0.85470 0.35140 0.83780 0.27200
H 	H 	0.83720 0.22170 0.87990 0.27200
H 	H 	0.86320 0.18710 0.81770 0.27000
C 	C 	0.43450 0.31380 0.52020 0.35900
C 	C 	0.38300 0.30930 0.54320 -0.02100
C 	C 	0.35540 0.41200 0.57000 -0.09700
C 	C 	0.35810 0.57430 0.57550 0.41600
C 	C 	0.31900 0.20290 0.58280 0.35100
C 	C 	0.28340 0.08360 0.59980 -0.89800
H 	H 	0.24170 0.11490 0.58340 0.28100
H 	H 	0.28460 0.99570 0.57190 0.30300
H 	H 	0.30090 0.06370 0.65500 0.28400
Er	Er	0.04285 0.80666 0.49585 1.66500
Co	Co	0.21177 0.99071 0.83781 1.15900
O 	O 	0.07850 0.87260 0.62320 -0.46000
O 	O 	0.12320 0.96120 0.74200 -0.42500
O 	O 	0.10880 0.62570 0.55500 -0.47300
O 	O 	0.19710 0.52070 0.57440 -0.42700
O 	O 	0.96040 0.69560 0.51840 -0.44400
O 	O 	0.95320 0.93230 0.50390 -0.55000
O 	O 	0.88360 0.14650 0.54080 -0.51300
O 	O 	0.83170 0.13190 0.61270 -0.43600
N 	N 	0.23020 0.83780 0.76950 -0.28100
N 	N 	0.25850 0.66550 0.70630 -0.27200
N 	N 	0.85880 0.67700 0.55150 -0.25900
H 	H 	0.86760 0.59190 0.53870 0.15900
N 	N 	0.81600 0.84530 0.59550 -0.26400
C 	C 	0.12410 0.88110 0.68870 0.35800
C 	C 	0.18110 0.80180 0.70340 -0.07200
C 	C 	0.19830 0.69830 0.66360 -0.07400
C 	C 	0.16610 0.60940 0.59350 0.36700
C 	C 	0.27520 0.75300 0.76890 0.32100
C 	C 	0.33810 0.75330 0.83160 -0.86400
H 	H 	0.35470 0.85140 0.83780 0.26900
H 	H 	0.33720 0.72170 0.87990 0.26800
H 	H 	0.36320 0.68710 0.81770 0.26700
C 	C 	0.93450 0.81380 0.52020 0.35900
C 	C 	0.88300 0.80930 0.54320 -0.02000
C 	C 	0.85540 0.91200 0.57000 -0.09700
C 	C 	0.85810 0.07430 0.57550 0.41600
C 	C 	0.81900 0.70290 0.58280 0.35200
C 	C 	0.78340 0.58360 0.59980 -0.90100
H 	H 	0.74170 0.61490 0.58340 0.28200
H 	H 	0.78460 0.49570 0.57190 0.30400
H 	H 	0.80090 0.56370 0.65500 0.28500
Er	Er	0.45715 0.30666 0.00415 1.66200
Co	Co	0.28823 0.49071 0.66219 1.16000
O 	O 	0.42150 0.37260 0.87680 -0.45900
O 	O 	0.37680 0.46120 0.75800 -0.42400
O 	O 	0.39120 0.12570 0.94500 -0.47200
O 	O 	0.30290 0.02070 0.92560 -0.42600
O 	O 	0.53960 0.19560 0.98160 -0.44300
O 	O 	0.54680 0.43230 0.99610 -0.55000
O 	O 	0.61640 0.64650 0.95920 -0.51200
O 	O 	0.66830 0.63190 0.88730 -0.43700
N 	N 	0.26980 0.33780 0.73050 -0.28100
N 	N 	0.24150 0.16550 0.79370 -0.27200
N 	N 	0.64120 0.17700 0.94850 -0.25900
H 	H 	0.63240 0.09190 0.96130 0.15900
N 	N 	0.68400 0.34530 0.90450 -0.26400
C 	C 	0.37590 0.38110 0.81130 0.35800
C 	C 	0.31890 0.30180 0.79660 -0.07100
C 	C 	0.30170 0.19830 0.83640 -0.07400
C 	C 	0.33390 0.10940 0.90650 0.36700
C 	C 	0.22480 0.25300 0.73110 0.32200
C 	C 	0.16190 0.25330 0.66840 -0.86700
H 	H 	0.14530 0.35140 0.66220 0.27000
H 	H 	0.16280 0.22170 0.62010 0.27000
H 	H 	0.13680 0.18710 0.68230 0.26900
C 	C 	0.56550 0.31380 0.97980 0.35900
C 	C 	0.61700 0.30930 0.95680 -0.02000
C 	C 	0.64460 0.41200 0.93000 -0.09700
C 	C 	0.64190 0.57430 0.92450 0.41600
C 	C 	0.68100 0.20290 0.91720 0.35000
C 	C 	0.71660 0.08360 0.90020 -0.89200
H 	H 	0.75830 0.11490 0.91660 0.28000
H 	H 	0.71540 0.99570 0.92810 0.30000
H 	H 	0.69910 0.06370 0.84500 0.28200
Er	Er	0.95715 0.80666 0.00415 1.66600
Co	Co	0.78823 0.99071 0.66219 1.16000
O 	O 	0.92150 0.87260 0.87680 -0.45800
O 	O 	0.87680 0.96120 0.75800 -0.42400
O 	O 	0.89120 0.62570 0.94500 -0.47200
O 	O 	0.80290 0.52070 0.92560 -0.42600
O 	O 	0.03960 0.69560 0.98160 -0.44600
O 	O 	0.04680 0.93230 0.99610 -0.55300
O 	O 	0.11640 0.14650 0.95920 -0.51300
O 	O 	0.16830 0.13190 0.88730 -0.43700
N 	N 	0.76980 0.83780 0.73050 -0.28100
N 	N 	0.74150 0.66550 0.79370 -0.27200
N 	N 	0.14120 0.67700 0.94850 -0.25900
H 	H 	0.13240 0.59190 0.96130 0.15800
N 	N 	0.18400 0.84530 0.90450 -0.26400
C 	C 	0.87590 0.88110 0.81130 0.35800
C 	C 	0.81890 0.80180 0.79660 -0.07200
C 	C 	0.80170 0.69830 0.83640 -0.07400
C 	C 	0.83390 0.60940 0.90650 0.36700
C 	C 	0.72480 0.75300 0.73110 0.32100
C 	C 	0.66190 0.75330 0.66840 -0.86600
H 	H 	0.64530 0.85140 0.66220 0.26900
H 	H 	0.66280 0.72170 0.62010 0.26900
H 	H 	0.63680 0.68710 0.68230 0.26800
C 	C 	0.06550 0.81380 0.97980 0.35900
C 	C 	0.11700 0.80930 0.95680 -0.02100
C 	C 	0.14460 0.91200 0.93000 -0.09900
C 	C 	0.14190 0.07430 0.92450 0.41800
C 	C 	0.18100 0.70290 0.91720 0.35100
C 	C 	0.21660 0.58360 0.90020 -0.90000
H 	H 	0.25830 0.61490 0.91660 0.28100
H 	H 	0.21540 0.49570 0.92810 0.30400
H 	H 	0.19910 0.56370 0.84500 0.28400
