data_crystal

_cell_length_a 13.84250
_cell_length_b 13.84250
_cell_length_c 20.20420
_cell_angle_alpha 90.00000
_cell_angle_beta  90.00000
_cell_angle_gamma 120.00000

_symmetry_space_group_name_	'P 1'
_symmetry_space_group_name_H-M	'P 1'

loop_
_symmetry_equiv_pos_as_xyz
  x,y,z

loop_
_atom_site_label
_atom_site_type_symbol
_atom_site_fract_x
_atom_site_fract_y
_atom_site_fract_z
_atom_site_charge
Al	Al	0.89367 0.33146 0.82478 2.39100
Al	Al	0.99468 0.22580 0.57371 2.39100
P 	P 	0.89452 0.33349 0.66873 0.85200
P 	P 	0.76950 0.99571 0.58162 0.82700
O 	O 	0.92610 0.32700 0.73920 -0.82400
O 	O 	0.75550 0.22530 0.84490 -0.84100
O 	O 	0.88980 0.08780 0.59030 -0.85200
O 	O 	0.97120 0.31670 0.62330 -0.77800
O 	O 	0.90830 0.46170 0.84500 -0.80600
O 	O 	0.12470 0.24050 0.59860 -0.77800
O 	O 	0.99630 0.26400 0.48890 -0.82000
O 	O 	0.98650 0.30640 0.87190 -0.77200
Al	Al	0.66854 0.56221 0.82478 2.39200
Al	Al	0.77420 0.76888 0.57371 2.39200
P 	P 	0.66651 0.56103 0.66873 0.85300
P 	P 	0.00429 0.77379 0.58162 0.82900
O 	O 	0.67300 0.59910 0.73920 -0.82200
O 	O 	0.77470 0.53020 0.84490 -0.84000
O 	O 	0.91220 0.80200 0.59030 -0.85200
O 	O 	0.68330 0.65450 0.62330 -0.77800
O 	O 	0.53830 0.44660 0.84500 -0.80600
O 	O 	0.75950 0.88420 0.59860 -0.77800
O 	O 	0.73600 0.73230 0.48890 -0.82000
O 	O 	0.69360 0.68010 0.87190 -0.76800
Al	Al	0.43779 0.10633 0.82478 2.39200
Al	Al	0.23112 0.00532 0.57371 2.39200
P 	P 	0.43897 0.10548 0.66873 0.85300
P 	P 	0.22621 0.23050 0.58162 0.82700
O 	O 	0.40090 0.07390 0.73920 -0.82300
O 	O 	0.46980 0.24450 0.84490 -0.84000
O 	O 	0.19800 0.11020 0.59030 -0.85100
O 	O 	0.34550 0.02880 0.62330 -0.77800
O 	O 	0.55340 0.09170 0.84500 -0.80700
O 	O 	0.11580 0.87530 0.59860 -0.77700
O 	O 	0.26770 0.00370 0.48890 -0.82000
O 	O 	0.31990 0.01350 0.87190 -0.77200
Al	Al	0.66854 0.10633 0.67522 2.39200
Al	Al	0.77420 0.00532 0.92629 2.39100
P 	P 	0.66651 0.10548 0.83127 0.85300
P 	P 	0.00429 0.23050 0.91838 0.83400
O 	O 	0.67300 0.07390 0.76080 -0.82300
O 	O 	0.77470 0.24450 0.65510 -0.83900
O 	O 	0.91220 0.11020 0.90970 -0.85800
O 	O 	0.68330 0.02880 0.87670 -0.78100
O 	O 	0.53830 0.09170 0.65500 -0.80600
O 	O 	0.75950 0.87530 0.90140 -0.77700
O 	O 	0.73600 0.00370 0.01110 -0.81500
O 	O 	0.69360 0.01350 0.62810 -0.76900
Al	Al	0.43779 0.33146 0.67522 2.39200
Al	Al	0.23112 0.22580 0.92629 2.39200
P 	P 	0.43897 0.33349 0.83127 0.85300
P 	P 	0.22621 0.99571 0.91838 0.83500
O 	O 	0.40090 0.32700 0.76080 -0.82200
O 	O 	0.46980 0.22530 0.65510 -0.83900
O 	O 	0.19800 0.08780 0.90970 -0.85500
O 	O 	0.34550 0.31670 0.87670 -0.77800
O 	O 	0.55340 0.46170 0.65500 -0.80500
O 	O 	0.11580 0.24050 0.90140 -0.77800
O 	O 	0.26770 0.26400 0.01110 -0.82100
O 	O 	0.31990 0.30640 0.62810 -0.76800
Al	Al	0.89367 0.56221 0.67522 2.39200
Al	Al	0.99468 0.76888 0.92629 2.39200
P 	P 	0.89452 0.56103 0.83127 0.85300
P 	P 	0.76950 0.77379 0.91838 0.82700
O 	O 	0.92610 0.59910 0.76080 -0.82300
O 	O 	0.75550 0.53020 0.65510 -0.83900
O 	O 	0.88980 0.80200 0.90970 -0.85200
O 	O 	0.97120 0.65450 0.87670 -0.78000
O 	O 	0.90830 0.44660 0.65500 -0.80600
O 	O 	0.12470 0.88420 0.90140 -0.77500
O 	O 	0.99630 0.73230 0.01110 -0.81900
O 	O 	0.98650 0.68010 0.62810 -0.76900
Al	Al	0.10633 0.66854 0.17522 2.39200
Al	Al	0.00532 0.77420 0.42629 2.39200
P 	P 	0.10548 0.66651 0.33127 0.85300
P 	P 	0.23050 0.00429 0.41838 0.82800
O 	O 	0.07390 0.67300 0.26080 -0.82300
O 	O 	0.24450 0.77470 0.15510 -0.84000
O 	O 	0.11020 0.91220 0.40970 -0.85200
O 	O 	0.02880 0.68330 0.37670 -0.77800
O 	O 	0.09170 0.53830 0.15500 -0.80600
O 	O 	0.87530 0.75950 0.40140 -0.77800
O 	O 	0.00370 0.73600 0.51110 -0.82000
O 	O 	0.01350 0.69360 0.12810 -0.77200
Al	Al	0.33146 0.43779 0.17522 2.39200
Al	Al	0.22580 0.23112 0.42629 2.39200
P 	P 	0.33349 0.43897 0.33127 0.85300
P 	P 	0.99571 0.22621 0.41838 0.82900
O 	O 	0.32700 0.40090 0.26080 -0.82200
O 	O 	0.22530 0.46980 0.15510 -0.84000
O 	O 	0.08780 0.19800 0.40970 -0.85200
O 	O 	0.31670 0.34550 0.37670 -0.77800
O 	O 	0.46170 0.55340 0.15500 -0.80600
O 	O 	0.24050 0.11580 0.40140 -0.77800
O 	O 	0.26400 0.26770 0.51110 -0.82000
O 	O 	0.30640 0.31990 0.12810 -0.76800
Al	Al	0.56221 0.89367 0.17522 2.39200
Al	Al	0.76888 0.99468 0.42629 2.39200
P 	P 	0.56103 0.89452 0.33127 0.85300
P 	P 	0.77379 0.76950 0.41838 0.82700
O 	O 	0.59910 0.92610 0.26080 -0.82300
O 	O 	0.53020 0.75550 0.15510 -0.84000
O 	O 	0.80200 0.88980 0.40970 -0.85100
O 	O 	0.65450 0.97120 0.37670 -0.77800
O 	O 	0.44660 0.90830 0.15500 -0.80700
O 	O 	0.88420 0.12470 0.40140 -0.77700
O 	O 	0.73230 0.99630 0.51110 -0.82000
O 	O 	0.68010 0.98650 0.12810 -0.77200
Al	Al	0.33146 0.89367 0.32478 2.39200
Al	Al	0.22580 0.99468 0.07371 2.39100
P 	P 	0.33349 0.89452 0.16873 0.85300
P 	P 	0.99571 0.76950 0.08162 0.83400
O 	O 	0.32700 0.92610 0.23920 -0.82300
O 	O 	0.22530 0.75550 0.34490 -0.83900
O 	O 	0.08780 0.88980 0.09030 -0.85800
O 	O 	0.31670 0.97120 0.12330 -0.78100
O 	O 	0.46170 0.90830 0.34500 -0.80600
O 	O 	0.24050 0.12470 0.09860 -0.77700
O 	O 	0.26400 0.99630 0.98890 -0.81500
O 	O 	0.30640 0.98650 0.37190 -0.76900
Al	Al	0.56221 0.66854 0.32478 2.39200
Al	Al	0.76888 0.77420 0.07371 2.39200
P 	P 	0.56103 0.66651 0.16873 0.85300
P 	P 	0.77379 0.00429 0.08162 0.83500
O 	O 	0.59910 0.67300 0.23920 -0.82200
O 	O 	0.53020 0.77470 0.34490 -0.83900
O 	O 	0.80200 0.91220 0.09030 -0.85500
O 	O 	0.65450 0.68330 0.12330 -0.77800
O 	O 	0.44660 0.53830 0.34500 -0.80500
O 	O 	0.88420 0.75950 0.09860 -0.77800
O 	O 	0.73230 0.73600 0.98890 -0.82100
O 	O 	0.68010 0.69360 0.37190 -0.76800
Al	Al	0.10633 0.43779 0.32478 2.39200
Al	Al	0.00532 0.23112 0.07371 2.39200
P 	P 	0.10548 0.43897 0.16873 0.85300
P 	P 	0.23050 0.22621 0.08162 0.82700
O 	O 	0.07390 0.40090 0.23920 -0.82300
O 	O 	0.24450 0.46980 0.34490 -0.83900
O 	O 	0.11020 0.19800 0.09030 -0.85200
O 	O 	0.02880 0.34550 0.12330 -0.78000
O 	O 	0.09170 0.55340 0.34500 -0.80600
O 	O 	0.87530 0.11580 0.09860 -0.77500
O 	O 	0.00370 0.26770 0.98890 -0.81900
O 	O 	0.01350 0.31990 0.37190 -0.76900
