data_crystal

_cell_length_a 11.59890
_cell_length_b 20.97900
_cell_length_c 20.81000
_cell_angle_alpha 110.39100
_cell_angle_beta  90.00000
_cell_angle_gamma 90.00000

_symmetry_space_group_name_	'P 1'
_symmetry_space_group_name_H-M	'P 1'

loop_
_symmetry_equiv_pos_as_xyz
  x,y,z

loop_
_atom_site_label
_atom_site_type_symbol
_atom_site_fract_x
_atom_site_fract_y
_atom_site_fract_z
_atom_site_charge
Eu	Eu	0.57826 0.94623 0.55417 1.95200
Eu	Eu	0.17926 0.59908 0.53601 1.77000
Eu	Eu	0.07826 0.05377 0.94583 1.92900
Eu	Eu	0.67926 0.40091 0.96399 1.77000
Eu	Eu	0.42174 0.05377 0.44583 1.95100
Eu	Eu	0.82074 0.40091 0.46399 1.76900
Eu	Eu	0.92174 0.94623 0.05417 1.92800
Eu	Eu	0.32074 0.59908 0.03601 1.77000
H 	H 	0.87000 0.69240 0.57000 -0.01900
H 	H 	0.70490 0.75310 0.61500 0.11200
H 	H 	0.52630 0.70460 0.58230 -0.00600
H 	H 	0.67650 0.53460 0.45750 -0.04400
H 	H 	0.52800 0.83630 0.72970 0.01900
H 	H 	0.56530 0.81590 0.83020 0.08400
H 	H 	0.70540 0.87850 0.90460 -0.00000
H 	H 	0.77360 0.97980 0.77820 0.02600
H 	H 	0.14400 0.67370 0.28320 0.01000
H 	H 	0.16050 0.76690 0.25060 0.08300
H 	H 	0.25280 0.86380 0.32010 0.01100
H 	H 	0.31090 0.77340 0.45800 0.01000
H 	H 	0.51450 0.78090 0.44580 0.00400
H 	H 	0.58790 0.67530 0.38260 0.06900
H 	H 	0.78220 0.65600 0.38260 0.04600
H 	H 	0.97920 0.69850 0.43120 0.06400
H 	H 	0.09060 0.78360 0.49730 0.05100
H 	H 	0.11340 0.90790 0.56850 0.03800
H 	H 	0.02910 0.01240 0.62090 0.07400
H 	H 	0.83200 0.02360 0.61360 0.00600
H 	H 	0.96560 0.55630 0.62980 -0.01000
H 	H 	0.82230 0.59530 0.70970 0.07200
H 	H 	0.80510 0.71030 0.76800 0.04000
H 	H 	0.88490 0.82890 0.79190 0.05100
H 	H 	0.01500 0.89780 0.76940 0.06500
H 	H 	0.19630 0.91140 0.70730 0.06200
H 	H 	0.33710 0.86250 0.62800 0.07300
H 	H 	0.33050 0.74720 0.56810 0.00600
H 	H 	0.37000 0.30760 0.93000 -0.02200
H 	H 	0.20490 0.24690 0.88500 0.11500
H 	H 	0.02630 0.29540 0.91770 -0.01100
H 	H 	0.17650 0.46540 0.04250 -0.04800
H 	H 	0.02800 0.16370 0.77030 0.01700
H 	H 	0.06530 0.18410 0.66980 0.08400
H 	H 	0.20540 0.12150 0.59540 -0.00200
H 	H 	0.27360 0.02020 0.72180 0.02400
H 	H 	0.64400 0.32630 0.21680 0.01000
H 	H 	0.66050 0.23310 0.24940 0.08200
H 	H 	0.75280 0.13620 0.17990 0.01200
H 	H 	0.81090 0.22660 0.04200 0.01100
H 	H 	0.01450 0.21910 0.05420 0.00300
H 	H 	0.08790 0.32470 0.11740 0.07000
H 	H 	0.28220 0.34400 0.11740 0.04400
H 	H 	0.47920 0.30150 0.06880 0.06000
H 	H 	0.59060 0.21640 0.00270 0.05600
H 	H 	0.61340 0.09210 0.93150 0.04200
H 	H 	0.52910 0.98760 0.87910 0.07700
H 	H 	0.33200 0.97640 0.88640 0.01100
H 	H 	0.46560 0.44370 0.87020 -0.01000
H 	H 	0.32230 0.40470 0.79030 0.07200
H 	H 	0.30510 0.28970 0.73200 0.03900
H 	H 	0.38490 0.17110 0.70810 0.05000
H 	H 	0.51500 0.10220 0.73060 0.06400
H 	H 	0.69630 0.08860 0.79270 0.06000
H 	H 	0.83710 0.13750 0.87200 0.07400
H 	H 	0.83050 0.25280 0.93190 0.00700
H 	H 	0.13000 0.30760 0.43000 -0.01900
H 	H 	0.29510 0.24690 0.38500 0.11200
H 	H 	0.47370 0.29540 0.41770 -0.00600
H 	H 	0.32350 0.46540 0.54250 -0.04400
H 	H 	0.47200 0.16370 0.27030 0.01900
H 	H 	0.43470 0.18410 0.16980 0.08400
H 	H 	0.29460 0.12150 0.09540 -0.00000
H 	H 	0.22640 0.02020 0.22180 0.02600
H 	H 	0.85600 0.32630 0.71680 0.01000
H 	H 	0.83950 0.23310 0.74940 0.08300
H 	H 	0.74720 0.13620 0.67990 0.01100
H 	H 	0.68910 0.22660 0.54200 0.01000
H 	H 	0.48550 0.21910 0.55420 0.00400
H 	H 	0.41210 0.32470 0.61740 0.06900
H 	H 	0.21780 0.34400 0.61740 0.04600
H 	H 	0.02080 0.30150 0.56880 0.06400
H 	H 	0.90940 0.21640 0.50270 0.05100
H 	H 	0.88660 0.09210 0.43150 0.03800
H 	H 	0.97090 0.98760 0.37910 0.07400
H 	H 	0.16800 0.97640 0.38640 0.00600
H 	H 	0.03440 0.44370 0.37020 -0.01000
H 	H 	0.17770 0.40470 0.29030 0.07200
H 	H 	0.19490 0.28970 0.23200 0.04000
H 	H 	0.11510 0.17110 0.20810 0.05100
H 	H 	0.98500 0.10220 0.23060 0.06500
H 	H 	0.80370 0.08860 0.29270 0.06200
H 	H 	0.66290 0.13750 0.37200 0.07300
H 	H 	0.66950 0.25280 0.43190 0.00600
H 	H 	0.63000 0.69240 0.07000 -0.02200
H 	H 	0.79510 0.75310 0.11500 0.11500
H 	H 	0.97370 0.70460 0.08230 -0.01100
H 	H 	0.82350 0.53460 0.95750 -0.04800
H 	H 	0.97200 0.83630 0.22970 0.01700
H 	H 	0.93470 0.81590 0.33020 0.08400
H 	H 	0.79460 0.87850 0.40460 -0.00200
H 	H 	0.72640 0.97980 0.27820 0.02400
H 	H 	0.35600 0.67370 0.78320 0.01000
H 	H 	0.33950 0.76690 0.75060 0.08200
H 	H 	0.24720 0.86380 0.82010 0.01200
H 	H 	0.18910 0.77340 0.95800 0.01100
H 	H 	0.98550 0.78090 0.94580 0.00300
H 	H 	0.91210 0.67530 0.88260 0.07000
H 	H 	0.71780 0.65600 0.88260 0.04400
H 	H 	0.52080 0.69850 0.93120 0.06000
H 	H 	0.40940 0.78360 0.99730 0.05600
H 	H 	0.38660 0.90790 0.06850 0.04200
H 	H 	0.47090 0.01240 0.12090 0.07700
H 	H 	0.66800 0.02360 0.11360 0.01100
H 	H 	0.53440 0.55630 0.12980 -0.01000
H 	H 	0.67770 0.59530 0.20970 0.07200
H 	H 	0.69490 0.71030 0.26800 0.03900
H 	H 	0.61510 0.82890 0.29190 0.05000
H 	H 	0.48500 0.89780 0.26940 0.06400
H 	H 	0.30370 0.91140 0.20730 0.06000
H 	H 	0.16290 0.86250 0.12800 0.07400
H 	H 	0.16950 0.74720 0.06810 0.00700
C 	C 	0.89720 0.56560 0.48220 0.48700
C 	C 	0.79050 0.60690 0.50950 -0.25000
C 	C 	0.79800 0.67270 0.55650 0.15100
C 	C 	0.69930 0.70910 0.58350 -0.20800
C 	C 	0.59250 0.68010 0.56350 0.13300
C 	C 	0.58260 0.61480 0.51570 -0.20200
C 	C 	0.68220 0.57850 0.48920 0.15700
C 	C 	0.46630 0.58350 0.49250 0.42000
C 	C 	0.62110 0.92450 0.67880 0.32900
C 	C 	0.64650 0.91020 0.74360 -0.12500
C 	C 	0.58470 0.86120 0.75950 0.05800
C 	C 	0.60700 0.84880 0.81960 -0.14900
C 	C 	0.69170 0.88590 0.86370 0.08600
C 	C 	0.75580 0.93340 0.84775 -0.17900
C 	C 	0.73210 0.94650 0.78829 0.07600
C 	C 	0.85560 0.96880 0.89320 0.44900
C 	C 	0.20350 0.65380 0.39790 0.37600
C 	C 	0.22380 0.71430 0.37530 -0.15200
C 	C 	0.18040 0.71270 0.31210 0.07400
C 	C 	0.19120 0.76820 0.29240 -0.15800
C 	C 	0.24710 0.82620 0.33380 0.09600
C 	C 	0.29490 0.82850 0.39570 -0.19000
C 	C 	0.28100 0.77200 0.41610 0.10000
C 	C 	0.36260 0.88980 0.43760 0.47900
C 	C 	0.59360 0.77390 0.44660 0.07200
C 	C 	0.63730 0.70970 0.40820 -0.09400
C 	C 	0.75190 0.69810 0.40870 -0.03100
C 	C 	0.82390 0.74970 0.44850 0.01000
C 	C 	0.94610 0.74070 0.45460 -0.06900
C 	C 	0.01250 0.79150 0.49300 -0.03400
C 	C 	0.96680 0.85780 0.52780 -0.01600
C 	C 	0.03430 0.91310 0.56510 -0.00600
C 	C 	0.98440 0.97500 0.59650 -0.11000
C 	C 	0.86550 0.98130 0.59160 0.07800
C 	C 	0.84690 0.86800 0.52460 0.03900
C 	C 	0.77400 0.81340 0.48580 0.02600
C 	C 	0.96020 0.60290 0.65320 0.08300
C 	C 	0.87330 0.62570 0.70140 -0.11200
C 	C 	0.86420 0.69350 0.73630 -0.02000
C 	C 	0.94440 0.73830 0.72430 -0.00300
C 	C 	0.94170 0.81020 0.75920 -0.05100
C 	C 	0.01910 0.85120 0.74590 -0.05800
C 	C 	0.10800 0.82470 0.69610 0.01400
C 	C 	0.19530 0.86480 0.68330 -0.04100
C 	C 	0.27850 0.83620 0.63630 -0.08900
C 	C 	0.27390 0.76640 0.60070 0.06700
C 	C 	0.11230 0.75410 0.65910 0.02300
C 	C 	0.02990 0.71000 0.67370 0.03200
C 	C 	0.39720 0.43440 0.01780 0.49200
C 	C 	0.29050 0.39310 0.99050 -0.26100
C 	C 	0.29800 0.32730 0.94350 0.16000
C 	C 	0.19930 0.29090 0.91650 -0.21800
C 	C 	0.09250 0.31990 0.93650 0.14100
C 	C 	0.08260 0.38520 0.98430 -0.21400
C 	C 	0.18220 0.42150 0.01080 0.17200
C 	C 	0.96630 0.41650 0.00750 0.42400
C 	C 	0.12110 0.07550 0.82120 0.33000
C 	C 	0.14650 0.08980 0.75640 -0.12700
C 	C 	0.08470 0.13880 0.74050 0.05900
C 	C 	0.10700 0.15120 0.68040 -0.15200
C 	C 	0.19170 0.11410 0.63630 0.08700
C 	C 	0.25580 0.06660 0.65225 -0.18100
C 	C 	0.23210 0.05350 0.71171 0.07800
C 	C 	0.35560 0.03120 0.60680 0.44900
C 	C 	0.70350 0.34620 0.10210 0.37500
C 	C 	0.72380 0.28570 0.12470 -0.15100
C 	C 	0.68040 0.28730 0.18790 0.07300
C 	C 	0.69120 0.23180 0.20760 -0.15600
C 	C 	0.74710 0.17380 0.16620 0.09400
C 	C 	0.79490 0.17150 0.10430 -0.18800
C 	C 	0.78100 0.22800 0.08390 0.09800
C 	C 	0.86260 0.11020 0.06240 0.47500
C 	C 	0.09360 0.22610 0.05340 0.07400
C 	C 	0.13730 0.29030 0.09180 -0.09800
C 	C 	0.25190 0.30190 0.09130 -0.02500
C 	C 	0.32390 0.25030 0.05150 0.00200
C 	C 	0.44610 0.25930 0.04540 -0.05500
C 	C 	0.51250 0.20850 0.00700 -0.04800
C 	C 	0.46680 0.14220 0.97220 -0.00200
C 	C 	0.53430 0.08690 0.93490 -0.02200
C 	C 	0.48440 0.02500 0.90350 -0.10400
C 	C 	0.36550 0.01870 0.90840 0.06800
C 	C 	0.34690 0.13200 0.97540 0.02900
C 	C 	0.27400 0.18660 0.01420 0.03600
C 	C 	0.46020 0.39710 0.84680 0.08400
C 	C 	0.37330 0.37430 0.79860 -0.11200
C 	C 	0.36420 0.30650 0.76370 -0.02000
C 	C 	0.44440 0.26170 0.77570 -0.00300
C 	C 	0.44170 0.18980 0.74080 -0.04800
C 	C 	0.51910 0.14880 0.75410 -0.06100
C 	C 	0.60800 0.17530 0.80390 0.01400
C 	C 	0.69530 0.13520 0.81670 -0.04100
C 	C 	0.77850 0.16380 0.86370 -0.09000
C 	C 	0.77390 0.23360 0.89930 0.06700
C 	C 	0.61230 0.24590 0.84090 0.02200
C 	C 	0.52990 0.29000 0.82630 0.03200
C 	C 	0.10280 0.43440 0.51780 0.48700
C 	C 	0.20950 0.39310 0.49050 -0.25000
C 	C 	0.20200 0.32730 0.44350 0.15200
C 	C 	0.30070 0.29090 0.41650 -0.20800
C 	C 	0.40750 0.31990 0.43650 0.13300
C 	C 	0.41740 0.38520 0.48430 -0.20200
C 	C 	0.31780 0.42150 0.51080 0.15700
C 	C 	0.53370 0.41650 0.50750 0.42000
C 	C 	0.37890 0.07550 0.32120 0.32900
C 	C 	0.35350 0.08980 0.25640 -0.12500
C 	C 	0.41530 0.13880 0.24050 0.05800
C 	C 	0.39300 0.15120 0.18040 -0.14900
C 	C 	0.30830 0.11410 0.13630 0.08600
C 	C 	0.24420 0.06660 0.15225 -0.17900
C 	C 	0.26790 0.05350 0.21171 0.07600
C 	C 	0.14440 0.03120 0.10680 0.44900
C 	C 	0.79650 0.34620 0.60210 0.37600
C 	C 	0.77620 0.28570 0.62470 -0.15200
C 	C 	0.81960 0.28730 0.68790 0.07400
C 	C 	0.80880 0.23180 0.70760 -0.15800
C 	C 	0.75290 0.17380 0.66620 0.09600
C 	C 	0.70510 0.17150 0.60430 -0.19000
C 	C 	0.71900 0.22800 0.58390 0.10000
C 	C 	0.63740 0.11020 0.56240 0.47900
C 	C 	0.40640 0.22610 0.55340 0.07200
C 	C 	0.36270 0.29030 0.59180 -0.09400
C 	C 	0.24810 0.30190 0.59130 -0.03100
C 	C 	0.17610 0.25030 0.55150 0.01000
C 	C 	0.05390 0.25930 0.54540 -0.06900
C 	C 	0.98750 0.20850 0.50700 -0.03400
C 	C 	0.03320 0.14220 0.47220 -0.01600
C 	C 	0.96570 0.08690 0.43490 -0.00600
C 	C 	0.01560 0.02500 0.40350 -0.11000
C 	C 	0.13450 0.01870 0.40840 0.07800
C 	C 	0.15310 0.13200 0.47540 0.03900
C 	C 	0.22600 0.18660 0.51420 0.02600
C 	C 	0.03980 0.39710 0.34680 0.08300
C 	C 	0.12670 0.37430 0.29860 -0.11200
C 	C 	0.13580 0.30650 0.26370 -0.02000
C 	C 	0.05560 0.26170 0.27570 -0.00300
C 	C 	0.05830 0.18980 0.24080 -0.05100
C 	C 	0.98090 0.14880 0.25410 -0.05800
C 	C 	0.89200 0.17530 0.30390 0.01400
C 	C 	0.80470 0.13520 0.31670 -0.04100
C 	C 	0.72150 0.16380 0.36370 -0.08900
C 	C 	0.72610 0.23360 0.39930 0.06700
C 	C 	0.88770 0.24590 0.34090 0.02300
C 	C 	0.97010 0.29000 0.32630 0.03200
C 	C 	0.60280 0.56560 0.98220 0.49200
C 	C 	0.70950 0.60690 0.00950 -0.26100
C 	C 	0.70200 0.67270 0.05650 0.16000
C 	C 	0.80070 0.70910 0.08350 -0.21800
C 	C 	0.90750 0.68010 0.06350 0.14100
C 	C 	0.91740 0.61480 0.01570 -0.21400
C 	C 	0.81780 0.57850 0.98920 0.17200
C 	C 	0.03370 0.58350 0.99250 0.42400
C 	C 	0.87890 0.92450 0.17880 0.33000
C 	C 	0.85350 0.91020 0.24360 -0.12700
C 	C 	0.91530 0.86120 0.25950 0.05900
C 	C 	0.89300 0.84880 0.31960 -0.15200
C 	C 	0.80830 0.88590 0.36370 0.08700
C 	C 	0.74420 0.93340 0.34775 -0.18100
C 	C 	0.76790 0.94650 0.28829 0.07800
C 	C 	0.64440 0.96880 0.39320 0.44900
C 	C 	0.29650 0.65380 0.89790 0.37500
C 	C 	0.27620 0.71430 0.87530 -0.15100
C 	C 	0.31960 0.71270 0.81210 0.07300
C 	C 	0.30880 0.76820 0.79240 -0.15600
C 	C 	0.25290 0.82620 0.83380 0.09400
C 	C 	0.20510 0.82850 0.89570 -0.18800
C 	C 	0.21900 0.77200 0.91610 0.09800
C 	C 	0.13740 0.88980 0.93760 0.47500
C 	C 	0.90640 0.77390 0.94660 0.07400
C 	C 	0.86270 0.70970 0.90820 -0.09800
C 	C 	0.74810 0.69810 0.90870 -0.02500
C 	C 	0.67610 0.74970 0.94850 0.00200
C 	C 	0.55390 0.74070 0.95460 -0.05500
C 	C 	0.48750 0.79150 0.99300 -0.04800
C 	C 	0.53320 0.85780 0.02780 -0.00200
C 	C 	0.46570 0.91310 0.06510 -0.02200
C 	C 	0.51560 0.97500 0.09650 -0.10400
C 	C 	0.63450 0.98130 0.09160 0.06800
C 	C 	0.65310 0.86800 0.02460 0.02900
C 	C 	0.72600 0.81340 0.98580 0.03600
C 	C 	0.53980 0.60290 0.15320 0.08400
C 	C 	0.62670 0.62570 0.20140 -0.11200
C 	C 	0.63580 0.69350 0.23630 -0.02000
C 	C 	0.55560 0.73830 0.22430 -0.00300
C 	C 	0.55830 0.81020 0.25920 -0.04800
C 	C 	0.48090 0.85120 0.24590 -0.06100
C 	C 	0.39200 0.82470 0.19610 0.01400
C 	C 	0.30470 0.86480 0.18330 -0.04100
C 	C 	0.22150 0.83620 0.13630 -0.09000
C 	C 	0.22610 0.76640 0.10070 0.06700
C 	C 	0.38770 0.75410 0.15910 0.02200
C 	C 	0.47010 0.71000 0.17370 0.03200
N 	N 	0.65870 0.82501 0.48395 -0.21300
N 	N 	0.79780 0.93000 0.55690 -0.22500
N 	N 	0.19400 0.72574 0.61061 -0.22100
N 	N 	0.03520 0.64208 0.63818 -0.22400
N 	N 	0.15870 0.17499 0.01605 -0.21300
N 	N 	0.29780 0.07000 0.94310 -0.22100
N 	N 	0.69400 0.27426 0.88939 -0.22100
N 	N 	0.53520 0.35792 0.86182 -0.22400
N 	N 	0.34130 0.17499 0.51605 -0.21300
N 	N 	0.20220 0.07000 0.44310 -0.22500
N 	N 	0.80600 0.27426 0.38939 -0.22100
N 	N 	0.96480 0.35792 0.36182 -0.22400
N 	N 	0.84130 0.82501 0.98395 -0.21300
N 	N 	0.70220 0.93000 0.05690 -0.22100
N 	N 	0.30600 0.72574 0.11061 -0.22100
N 	N 	0.46480 0.64208 0.13818 -0.22400
O 	O 	0.99310 0.59646 0.48950 -0.49300
O 	O 	0.88660 0.50222 0.45350 -0.52900
O 	O 	0.45840 0.53423 0.43799 -0.30800
O 	O 	0.38130 0.60927 0.53076 -0.48500
O 	O 	0.57260 0.87904 0.62946 -0.42100
O 	O 	0.64880 0.98108 0.67544 -0.39500
O 	O 	0.91470 0.00944 0.87402 -0.46600
O 	O 	0.87880 0.95550 0.94608 -0.54300
O 	O 	0.20900 0.66492 0.46178 -0.43400
O 	O 	0.18200 0.59748 0.35337 -0.29100
O 	O 	0.41830 0.88647 0.48870 -0.50500
O 	O 	0.36080 0.94034 0.41863 -0.51600
O 	O 	0.49310 0.40354 0.01050 -0.49200
O 	O 	0.38660 0.49778 0.04650 -0.53000
O 	O 	0.95840 0.46577 0.06201 -0.30900
O 	O 	0.88130 0.39073 0.96924 -0.48500
O 	O 	0.07260 0.12096 0.87054 -0.42200
O 	O 	0.14880 0.01892 0.82456 -0.39800
O 	O 	0.41470 0.99056 0.62598 -0.46800
O 	O 	0.37880 0.04450 0.55392 -0.54800
O 	O 	0.70900 0.33508 0.03822 -0.43400
O 	O 	0.68200 0.40252 0.14663 -0.29100
O 	O 	0.91830 0.11353 0.01130 -0.49900
O 	O 	0.86080 0.05966 0.08137 -0.51000
O 	O 	0.00690 0.40354 0.51050 -0.49300
O 	O 	0.11340 0.49778 0.54650 -0.52900
O 	O 	0.54160 0.46577 0.56201 -0.30800
O 	O 	0.61870 0.39073 0.46924 -0.48500
O 	O 	0.42740 0.12096 0.37054 -0.42100
O 	O 	0.35120 0.01892 0.32456 -0.39500
O 	O 	0.08530 0.99056 0.12598 -0.46600
O 	O 	0.12120 0.04450 0.05392 -0.54300
O 	O 	0.79100 0.33508 0.53822 -0.43400
O 	O 	0.81800 0.40252 0.64663 -0.29100
O 	O 	0.58170 0.11353 0.51130 -0.50500
O 	O 	0.63920 0.05966 0.58137 -0.51600
O 	O 	0.50690 0.59646 0.98950 -0.49200
O 	O 	0.61340 0.50222 0.95350 -0.53000
O 	O 	0.04160 0.53423 0.93799 -0.30900
O 	O 	0.11870 0.60927 0.03076 -0.48500
O 	O 	0.92740 0.87904 0.12946 -0.42200
O 	O 	0.85120 0.98108 0.17544 -0.39800
O 	O 	0.58530 0.00944 0.37402 -0.46800
O 	O 	0.62120 0.95550 0.44608 -0.54800
O 	O 	0.29100 0.66492 0.96178 -0.43400
O 	O 	0.31800 0.59748 0.85337 -0.29100
O 	O 	0.08170 0.88647 0.98870 -0.49900
O 	O 	0.13920 0.94034 0.91863 -0.51000
