data_crystal

_cell_length_a 8.42210
_cell_length_b 8.42210
_cell_length_c 12.04900
_cell_angle_alpha 90.00000
_cell_angle_beta  90.00000
_cell_angle_gamma 90.00000

_symmetry_space_group_name_	'P 1'
_symmetry_space_group_name_H-M	'P 1'

loop_
_symmetry_equiv_pos_as_xyz
  x,y,z

loop_
_atom_site_label
_atom_site_type_symbol
_atom_site_fract_x
_atom_site_fract_y
_atom_site_fract_z
_atom_site_charge
Cu	Cu	0.09745 0.69409 0.89107 0.92200
Cu	Cu	0.90255 0.30591 0.39107 0.92300
Cu	Cu	0.30591 0.09745 0.14107 0.92500
Cu	Cu	0.69409 0.90255 0.64107 0.92400
H 	H 	0.56140 0.82300 0.89000 0.23200
H 	H 	0.47150 0.66920 0.92640 0.23700
H 	H 	0.43860 0.17700 0.39000 0.23900
H 	H 	0.52850 0.33080 0.42640 0.24300
H 	H 	0.17700 0.56140 0.14000 0.24600
H 	H 	0.33080 0.47150 0.17640 0.24800
H 	H 	0.82300 0.43860 0.64000 0.23900
H 	H 	0.66920 0.52850 0.67640 0.24300
C 	C 	0.38810 0.75890 0.77960 0.51600
C 	C 	0.45710 0.77490 0.89600 -0.69500
C 	C 	0.36040 0.87120 0.97780 0.50400
C 	C 	0.61190 0.24110 0.27960 0.52100
C 	C 	0.54290 0.22510 0.39600 -0.70900
C 	C 	0.63960 0.12880 0.47780 0.52800
C 	C 	0.24110 0.38810 0.02960 0.53900
C 	C 	0.22510 0.45710 0.14600 -0.72000
C 	C 	0.12880 0.36040 0.22780 0.53200
C 	C 	0.75890 0.61190 0.52960 0.52000
C 	C 	0.77490 0.54290 0.64600 -0.70900
C 	C 	0.87120 0.63960 0.72780 0.52700
O 	O 	0.24060 0.73240 0.76956 -0.41400
O 	O 	0.21070 0.85180 0.98214 -0.48300
O 	O 	0.47910 0.76710 0.69825 -0.40200
O 	O 	0.43290 0.96450 0.04024 -0.42500
O 	O 	0.75940 0.26760 0.26956 -0.41400
O 	O 	0.78930 0.14820 0.48214 -0.48300
O 	O 	0.52090 0.23290 0.19825 -0.40300
O 	O 	0.56710 0.03550 0.54024 -0.44400
O 	O 	0.26760 0.24060 0.01956 -0.41600
O 	O 	0.14820 0.21070 0.23214 -0.48300
O 	O 	0.23290 0.47910 0.94825 -0.41700
O 	O 	0.03550 0.43290 0.29024 -0.44400
O 	O 	0.73240 0.75940 0.51956 -0.41500
O 	O 	0.85180 0.78930 0.73214 -0.48400
O 	O 	0.76710 0.52090 0.44825 -0.40300
O 	O 	0.96450 0.56710 0.79024 -0.44500
