data_crystal

_cell_length_a 18.62380
_cell_length_b 18.62380
_cell_length_c 18.62380
_cell_angle_alpha 60.00000
_cell_angle_beta  60.00000
_cell_angle_gamma 60.00000

_symmetry_space_group_name_	'P 1'
_symmetry_space_group_name_H-M	'P 1'

loop_
_symmetry_equiv_pos_as_xyz
  x,y,z

loop_
_atom_site_label
_atom_site_type_symbol
_atom_site_fract_x
_atom_site_fract_y
_atom_site_fract_z
_atom_site_charge
Cu	Cu	0.50000 0.07021 0.50000 0.90600
Cu	Cu	0.07021 0.50000 0.92979 0.90500
Cu	Cu	0.50000 0.92979 0.50000 0.90500
Cu	Cu	0.92979 0.50000 0.07021 0.90400
Cu	Cu	0.50000 0.50000 0.92979 0.90500
Cu	Cu	0.07021 0.92979 0.50000 0.90400
Cu	Cu	0.50000 0.50000 0.07021 0.90500
Cu	Cu	0.92979 0.07021 0.50000 0.90400
Cu	Cu	0.50000 0.92979 0.07021 0.90400
Cu	Cu	0.07021 0.50000 0.50000 0.90500
Cu	Cu	0.50000 0.07021 0.92979 0.90400
Cu	Cu	0.92979 0.50000 0.50000 0.90500
C 	C 	0.53370 0.19950 0.19950 0.06700
C 	C 	0.19950 0.53370 0.06730 0.06200
C 	C 	0.19950 0.06730 0.53370 0.06200
C 	C 	0.06730 0.19950 0.19950 0.05000
C 	C 	0.53370 0.19950 0.06730 0.06200
C 	C 	0.19950 0.06730 0.19950 0.05000
C 	C 	0.19950 0.53370 0.19950 0.06700
C 	C 	0.06730 0.19950 0.53370 0.06200
C 	C 	0.53370 0.06730 0.19950 0.06200
C 	C 	0.19950 0.19950 0.53370 0.06700
C 	C 	0.19950 0.19950 0.06730 0.05000
C 	C 	0.06730 0.53370 0.19950 0.06200
C 	C 	0.80050 0.46630 0.80050 0.06700
C 	C 	0.46630 0.80050 0.93270 0.06200
C 	C 	0.93270 0.80050 0.46630 0.06200
C 	C 	0.80050 0.93270 0.80050 0.05000
C 	C 	0.80050 0.46630 0.93270 0.06200
C 	C 	0.93270 0.80050 0.80050 0.05000
C 	C 	0.46630 0.80050 0.80050 0.06700
C 	C 	0.80050 0.93270 0.46630 0.06200
C 	C 	0.93270 0.46630 0.80050 0.06200
C 	C 	0.80050 0.80050 0.46630 0.06700
C 	C 	0.80050 0.80050 0.93270 0.05000
C 	C 	0.46630 0.93270 0.80050 0.06200
C 	C 	0.52490 0.06890 0.33730 0.36100
C 	C 	0.53300 0.11240 0.24220 -0.11700
C 	C 	0.06890 0.52490 0.06890 0.35000
C 	C 	0.11240 0.53300 0.11240 -0.11400
C 	C 	0.33730 0.06890 0.52490 0.36100
C 	C 	0.24220 0.11240 0.53300 -0.11700
C 	C 	0.06890 0.33730 0.06890 0.34100
C 	C 	0.11240 0.24220 0.11240 -0.10600
C 	C 	0.52490 0.33730 0.06890 0.36100
C 	C 	0.53300 0.24220 0.11240 -0.11700
C 	C 	0.06890 0.06890 0.33730 0.34100
C 	C 	0.11240 0.11240 0.24220 -0.10600
C 	C 	0.33730 0.52490 0.06890 0.36100
C 	C 	0.24220 0.53300 0.11240 -0.11700
C 	C 	0.06890 0.06890 0.52490 0.35000
C 	C 	0.11240 0.11240 0.53300 -0.11400
C 	C 	0.52490 0.06890 0.06890 0.35000
C 	C 	0.53300 0.11240 0.11240 -0.11300
C 	C 	0.06890 0.33730 0.52490 0.36100
C 	C 	0.11240 0.24220 0.53300 -0.11600
C 	C 	0.33730 0.06890 0.06890 0.34100
C 	C 	0.24220 0.11240 0.11240 -0.10600
C 	C 	0.06890 0.52490 0.33730 0.36100
C 	C 	0.11240 0.53300 0.24220 -0.11600
C 	C 	0.93110 0.47510 0.66270 0.36100
C 	C 	0.88760 0.46700 0.75780 -0.11700
C 	C 	0.47510 0.93110 0.93110 0.35000
C 	C 	0.46700 0.88760 0.88760 -0.11400
C 	C 	0.93110 0.66270 0.47510 0.36100
C 	C 	0.88760 0.75780 0.46700 -0.11700
C 	C 	0.66270 0.93110 0.93110 0.34100
C 	C 	0.75780 0.88760 0.88760 -0.10600
C 	C 	0.66270 0.47510 0.93110 0.36100
C 	C 	0.75780 0.46700 0.88760 -0.11700
C 	C 	0.93110 0.93110 0.66270 0.34100
C 	C 	0.88760 0.88760 0.75780 -0.10600
C 	C 	0.47510 0.66270 0.93110 0.36100
C 	C 	0.46700 0.75780 0.88760 -0.11700
C 	C 	0.93110 0.93110 0.47510 0.35000
C 	C 	0.88760 0.88760 0.46700 -0.11400
C 	C 	0.93110 0.47510 0.93110 0.35000
C 	C 	0.88760 0.46700 0.88760 -0.11300
C 	C 	0.66270 0.93110 0.47510 0.36100
C 	C 	0.75780 0.88760 0.46700 -0.11600
C 	C 	0.93110 0.66270 0.93110 0.34100
C 	C 	0.88760 0.75780 0.88760 -0.10600
C 	C 	0.47510 0.93110 0.66270 0.36100
C 	C 	0.46700 0.88760 0.75780 -0.11600
O 	O 	0.52120 0.11280 0.37400 -0.40500
O 	O 	0.11280 0.52120 0.99200 -0.39900
O 	O 	0.37400 0.99200 0.52120 -0.40400
O 	O 	0.99200 0.37400 0.11280 -0.39600
O 	O 	0.52120 0.37400 0.99200 -0.40400
O 	O 	0.11280 0.99200 0.37400 -0.39600
O 	O 	0.37400 0.52120 0.11280 -0.40500
O 	O 	0.99200 0.11280 0.52120 -0.39900
O 	O 	0.52120 0.99200 0.11280 -0.39900
O 	O 	0.11280 0.37400 0.52120 -0.40500
O 	O 	0.37400 0.11280 0.99200 -0.39500
O 	O 	0.99200 0.52120 0.37400 -0.40400
O 	O 	0.88720 0.47880 0.62600 -0.40500
O 	O 	0.47880 0.88720 0.00800 -0.39900
O 	O 	0.00800 0.62600 0.47880 -0.40400
O 	O 	0.62600 0.00800 0.88720 -0.39600
O 	O 	0.62600 0.47880 0.00800 -0.40400
O 	O 	0.00800 0.88720 0.62600 -0.39600
O 	O 	0.47880 0.62600 0.88720 -0.40500
O 	O 	0.88720 0.00800 0.47880 -0.39900
O 	O 	0.00800 0.47880 0.88720 -0.39900
O 	O 	0.62600 0.88720 0.47880 -0.40500
O 	O 	0.88720 0.62600 0.00800 -0.39500
O 	O 	0.47880 0.00800 0.62600 -0.40400
O 	O 	0.47880 0.88720 0.62600 -0.40500
O 	O 	0.88720 0.47880 0.00800 -0.39900
O 	O 	0.62600 0.00800 0.47880 -0.40400
O 	O 	0.00800 0.62600 0.88720 -0.39500
O 	O 	0.47880 0.62600 0.00800 -0.40400
O 	O 	0.88720 0.00800 0.62600 -0.39600
O 	O 	0.62600 0.47880 0.88720 -0.40500
O 	O 	0.00800 0.88720 0.47880 -0.39900
O 	O 	0.47880 0.00800 0.88720 -0.39900
O 	O 	0.88720 0.62600 0.47880 -0.40500
O 	O 	0.62600 0.88720 0.00800 -0.39600
O 	O 	0.00800 0.47880 0.62600 -0.40400
O 	O 	0.11280 0.52120 0.37400 -0.40500
O 	O 	0.52120 0.11280 0.99200 -0.39900
O 	O 	0.99200 0.37400 0.52120 -0.40400
O 	O 	0.37400 0.99200 0.11280 -0.39500
O 	O 	0.37400 0.52120 0.99200 -0.40400
O 	O 	0.99200 0.11280 0.37400 -0.39600
O 	O 	0.52120 0.37400 0.11280 -0.40500
O 	O 	0.11280 0.99200 0.52120 -0.39900
O 	O 	0.99200 0.52120 0.11280 -0.39900
O 	O 	0.37400 0.11280 0.52120 -0.40500
O 	O 	0.11280 0.37400 0.99200 -0.39600
O 	O 	0.52120 0.99200 0.37400 -0.40400
H 	H 	0.53480 0.23349 0.23544 0.04600
H 	H 	0.23349 0.53480 0.99627 0.04900
H 	H 	0.23544 0.99627 0.53480 0.04900
H 	H 	0.99627 0.23544 0.23349 0.05300
H 	H 	0.53480 0.23544 0.99627 0.04900
H 	H 	0.23349 0.99627 0.23544 0.05300
H 	H 	0.23544 0.53480 0.23349 0.04600
H 	H 	0.99627 0.23349 0.53480 0.04900
H 	H 	0.53480 0.99627 0.23544 0.04900
H 	H 	0.23544 0.23349 0.53480 0.04600
H 	H 	0.23349 0.23544 0.99627 0.05300
H 	H 	0.99627 0.53480 0.23349 0.04900
H 	H 	0.76651 0.46520 0.76456 0.04600
H 	H 	0.46520 0.76651 0.00373 0.04900
H 	H 	0.00373 0.76456 0.46520 0.04900
H 	H 	0.76456 0.00373 0.76651 0.05300
H 	H 	0.76456 0.46520 0.00373 0.04900
H 	H 	0.00373 0.76651 0.76456 0.05300
H 	H 	0.46520 0.76456 0.76651 0.04600
H 	H 	0.76651 0.00373 0.46520 0.04900
H 	H 	0.00373 0.46520 0.76456 0.04900
H 	H 	0.76651 0.76456 0.46520 0.04600
H 	H 	0.76456 0.76651 0.00373 0.05300
H 	H 	0.46520 0.00373 0.76651 0.04900
