data_crystal

_cell_length_a 26.35300
_cell_length_b 26.35300
_cell_length_c 26.35300
_cell_angle_alpha 90.00000
_cell_angle_beta  90.00000
_cell_angle_gamma 90.00000

_symmetry_space_group_name_	'P 1'
_symmetry_space_group_name_H-M	'P 1'

loop_
_symmetry_equiv_pos_as_xyz
  x,y,z

loop_
_atom_site_label
_atom_site_type_symbol
_atom_site_fract_x
_atom_site_fract_y
_atom_site_fract_z
_atom_site_charge
O 	O 	0.24350 0.05130 0.18340 -0.42600
O 	O 	0.24350 0.55130 0.68340 -0.40500
O 	O 	0.74350 0.05130 0.68340 -0.41800
O 	O 	0.74350 0.55130 0.18340 -0.40700
O 	O 	0.75650 0.94870 0.18340 -0.37600
O 	O 	0.75650 0.44870 0.68340 -0.40300
O 	O 	0.25650 0.94870 0.68340 -0.37400
O 	O 	0.25650 0.44870 0.18340 -0.41100
O 	O 	0.75650 0.05130 0.81660 -0.41500
O 	O 	0.75650 0.55130 0.31660 -0.40300
O 	O 	0.25650 0.05130 0.31660 -0.42300
O 	O 	0.25650 0.55130 0.81660 -0.40100
O 	O 	0.24350 0.94870 0.81660 -0.36800
O 	O 	0.24350 0.44870 0.31660 -0.40500
O 	O 	0.74350 0.94870 0.31660 -0.37000
O 	O 	0.74350 0.44870 0.81660 -0.39700
O 	O 	0.18340 0.24350 0.05130 -0.42600
O 	O 	0.18340 0.74350 0.55130 -0.40700
O 	O 	0.68340 0.24350 0.55130 -0.40500
O 	O 	0.68340 0.74350 0.05130 -0.41800
O 	O 	0.18340 0.75650 0.94870 -0.37600
O 	O 	0.18340 0.25650 0.44870 -0.41100
O 	O 	0.68340 0.75650 0.44870 -0.40300
O 	O 	0.68340 0.25650 0.94870 -0.37400
O 	O 	0.81660 0.75650 0.05130 -0.41400
O 	O 	0.81660 0.25650 0.55130 -0.40000
O 	O 	0.31660 0.75650 0.55130 -0.40200
O 	O 	0.31660 0.25650 0.05130 -0.42200
O 	O 	0.81660 0.24350 0.94870 -0.36700
O 	O 	0.81660 0.74350 0.44870 -0.39600
O 	O 	0.31660 0.24350 0.44870 -0.40400
O 	O 	0.31660 0.74350 0.94870 -0.36900
O 	O 	0.05130 0.18340 0.24350 -0.42500
O 	O 	0.05130 0.68340 0.74350 -0.41700
O 	O 	0.55130 0.18340 0.74350 -0.40600
O 	O 	0.55130 0.68340 0.24350 -0.40400
O 	O 	0.94870 0.18340 0.75650 -0.37500
O 	O 	0.94870 0.68340 0.25650 -0.37300
O 	O 	0.44870 0.18340 0.25650 -0.41000
O 	O 	0.44870 0.68340 0.75650 -0.40200
O 	O 	0.05130 0.81660 0.75650 -0.41400
O 	O 	0.05130 0.31660 0.25650 -0.42200
O 	O 	0.55130 0.81660 0.25650 -0.40000
O 	O 	0.55130 0.31660 0.75650 -0.40200
O 	O 	0.94870 0.81660 0.24350 -0.36700
O 	O 	0.94870 0.31660 0.74350 -0.36900
O 	O 	0.44870 0.81660 0.74350 -0.39600
O 	O 	0.44870 0.31660 0.24350 -0.40400
O 	O 	0.05130 0.24350 0.81660 -0.41500
O 	O 	0.05130 0.74350 0.31660 -0.41800
O 	O 	0.55130 0.24350 0.31660 -0.40400
O 	O 	0.55130 0.74350 0.81660 -0.39600
O 	O 	0.94870 0.75650 0.81660 -0.36500
O 	O 	0.94870 0.25650 0.31660 -0.37400
O 	O 	0.44870 0.75650 0.31660 -0.40200
O 	O 	0.44870 0.25650 0.81660 -0.40000
O 	O 	0.05130 0.75650 0.18340 -0.42400
O 	O 	0.05130 0.25650 0.68340 -0.42200
O 	O 	0.55130 0.75650 0.68340 -0.40200
O 	O 	0.55130 0.25650 0.18340 -0.41000
O 	O 	0.94870 0.24350 0.18340 -0.37700
O 	O 	0.94870 0.74350 0.68340 -0.36900
O 	O 	0.44870 0.24350 0.68340 -0.40400
O 	O 	0.44870 0.74350 0.18340 -0.40600
O 	O 	0.24350 0.18340 0.94870 -0.37700
O 	O 	0.24350 0.68340 0.44870 -0.40400
O 	O 	0.74350 0.18340 0.44870 -0.40600
O 	O 	0.74350 0.68340 0.94870 -0.36900
O 	O 	0.75650 0.18340 0.05130 -0.42400
O 	O 	0.75650 0.68340 0.55130 -0.40200
O 	O 	0.25650 0.18340 0.55130 -0.41000
O 	O 	0.25650 0.68340 0.05130 -0.42200
O 	O 	0.75650 0.81660 0.94870 -0.36500
O 	O 	0.75650 0.31660 0.44870 -0.40200
O 	O 	0.25650 0.81660 0.44870 -0.40000
O 	O 	0.25650 0.31660 0.94870 -0.37400
O 	O 	0.24350 0.81660 0.05130 -0.41500
O 	O 	0.24350 0.31660 0.55130 -0.40400
O 	O 	0.74350 0.81660 0.55130 -0.39600
O 	O 	0.74350 0.31660 0.05130 -0.41800
O 	O 	0.18340 0.05130 0.75650 -0.42400
O 	O 	0.18340 0.55130 0.25650 -0.41000
O 	O 	0.68340 0.05130 0.25650 -0.42200
O 	O 	0.68340 0.55130 0.75650 -0.40200
O 	O 	0.18340 0.94870 0.24350 -0.37700
O 	O 	0.18340 0.44870 0.74350 -0.40600
O 	O 	0.68340 0.94870 0.74350 -0.36900
O 	O 	0.68340 0.44870 0.24350 -0.40400
O 	O 	0.81660 0.05130 0.24350 -0.41500
O 	O 	0.81660 0.55130 0.74350 -0.39600
O 	O 	0.31660 0.05130 0.74350 -0.41800
O 	O 	0.31660 0.55130 0.24350 -0.40400
O 	O 	0.81660 0.94870 0.75650 -0.36500
O 	O 	0.81660 0.44870 0.25650 -0.40000
O 	O 	0.31660 0.94870 0.25650 -0.37400
O 	O 	0.31660 0.44870 0.75650 -0.40200
O 	O 	0.75650 0.94870 0.81660 -0.36500
O 	O 	0.75650 0.44870 0.31660 -0.40200
O 	O 	0.25650 0.94870 0.31660 -0.37400
O 	O 	0.25650 0.44870 0.81660 -0.40000
O 	O 	0.24350 0.05130 0.81660 -0.41500
O 	O 	0.24350 0.55130 0.31660 -0.40400
O 	O 	0.74350 0.05130 0.31660 -0.41800
O 	O 	0.74350 0.55130 0.81660 -0.39600
O 	O 	0.24350 0.94870 0.18340 -0.37700
O 	O 	0.24350 0.44870 0.68340 -0.40400
O 	O 	0.74350 0.94870 0.68340 -0.36900
O 	O 	0.74350 0.44870 0.18340 -0.40600
O 	O 	0.75650 0.05130 0.18340 -0.42400
O 	O 	0.75650 0.55130 0.68340 -0.40200
O 	O 	0.25650 0.05130 0.68340 -0.42200
O 	O 	0.25650 0.55130 0.18340 -0.41000
O 	O 	0.81660 0.75650 0.94870 -0.36500
O 	O 	0.81660 0.25650 0.44870 -0.40000
O 	O 	0.31660 0.75650 0.44870 -0.40200
O 	O 	0.31660 0.25650 0.94870 -0.37400
O 	O 	0.81660 0.24350 0.05130 -0.41500
O 	O 	0.81660 0.74350 0.55130 -0.39600
O 	O 	0.31660 0.24350 0.55130 -0.40400
O 	O 	0.31660 0.74350 0.05130 -0.41800
O 	O 	0.18340 0.24350 0.94870 -0.37700
O 	O 	0.18340 0.74350 0.44870 -0.40600
O 	O 	0.68340 0.24350 0.44870 -0.40400
O 	O 	0.68340 0.74350 0.94870 -0.36900
O 	O 	0.18340 0.75650 0.05130 -0.42400
O 	O 	0.18340 0.25650 0.55130 -0.41000
O 	O 	0.68340 0.75650 0.55130 -0.40200
O 	O 	0.68340 0.25650 0.05130 -0.42200
O 	O 	0.94870 0.81660 0.75650 -0.36500
O 	O 	0.94870 0.31660 0.25650 -0.37400
O 	O 	0.44870 0.81660 0.25650 -0.40000
O 	O 	0.44870 0.31660 0.75650 -0.40200
O 	O 	0.05130 0.81660 0.24350 -0.41500
O 	O 	0.05130 0.31660 0.74350 -0.41800
O 	O 	0.55130 0.81660 0.74350 -0.39600
O 	O 	0.55130 0.31660 0.24350 -0.40400
O 	O 	0.94870 0.18340 0.24350 -0.37700
O 	O 	0.94870 0.68340 0.74350 -0.36900
O 	O 	0.44870 0.18340 0.74350 -0.40600
O 	O 	0.44870 0.68340 0.24350 -0.40400
O 	O 	0.05130 0.18340 0.75650 -0.42400
O 	O 	0.05130 0.68340 0.25650 -0.42200
O 	O 	0.55130 0.18340 0.25650 -0.41000
O 	O 	0.55130 0.68340 0.75650 -0.40200
O 	O 	0.94870 0.75650 0.18340 -0.37500
O 	O 	0.94870 0.25650 0.68340 -0.37300
O 	O 	0.44870 0.75650 0.68340 -0.40200
O 	O 	0.44870 0.25650 0.18340 -0.41000
O 	O 	0.05130 0.24350 0.18340 -0.42500
O 	O 	0.05130 0.74350 0.68340 -0.41700
O 	O 	0.55130 0.24350 0.68340 -0.40400
O 	O 	0.55130 0.74350 0.18340 -0.40600
O 	O 	0.94870 0.24350 0.81660 -0.36700
O 	O 	0.94870 0.74350 0.31660 -0.36900
O 	O 	0.44870 0.24350 0.31660 -0.40400
O 	O 	0.44870 0.74350 0.81660 -0.39600
O 	O 	0.05130 0.75650 0.81660 -0.41400
O 	O 	0.05130 0.25650 0.31660 -0.42200
O 	O 	0.55130 0.75650 0.31660 -0.40200
O 	O 	0.55130 0.25650 0.81660 -0.40000
O 	O 	0.75650 0.81660 0.05130 -0.41400
O 	O 	0.75650 0.31660 0.55130 -0.40200
O 	O 	0.25650 0.81660 0.55130 -0.40000
O 	O 	0.25650 0.31660 0.05130 -0.42200
O 	O 	0.24350 0.81660 0.94870 -0.36700
O 	O 	0.24350 0.31660 0.44870 -0.40400
O 	O 	0.74350 0.81660 0.44870 -0.39600
O 	O 	0.74350 0.31660 0.94870 -0.36900
O 	O 	0.24350 0.18340 0.05130 -0.42500
O 	O 	0.24350 0.68340 0.55130 -0.40400
O 	O 	0.74350 0.18340 0.55130 -0.40600
O 	O 	0.74350 0.68340 0.05130 -0.41700
O 	O 	0.75650 0.18340 0.94870 -0.37500
O 	O 	0.75650 0.68340 0.44870 -0.40200
O 	O 	0.25650 0.18340 0.44870 -0.41000
O 	O 	0.25650 0.68340 0.94870 -0.37300
O 	O 	0.81660 0.94870 0.24350 -0.36700
O 	O 	0.81660 0.44870 0.74350 -0.39600
O 	O 	0.31660 0.94870 0.74350 -0.36900
O 	O 	0.31660 0.44870 0.24350 -0.40400
O 	O 	0.81660 0.05130 0.75650 -0.41400
O 	O 	0.81660 0.55130 0.25650 -0.40000
O 	O 	0.31660 0.05130 0.25650 -0.42200
O 	O 	0.31660 0.55130 0.75650 -0.40200
O 	O 	0.18340 0.94870 0.75650 -0.37500
O 	O 	0.18340 0.44870 0.25650 -0.41000
O 	O 	0.68340 0.94870 0.25650 -0.37300
O 	O 	0.68340 0.44870 0.75650 -0.40200
O 	O 	0.18340 0.05130 0.24350 -0.42500
O 	O 	0.18340 0.55130 0.74350 -0.40600
O 	O 	0.68340 0.05130 0.74350 -0.41700
O 	O 	0.68340 0.55130 0.24350 -0.40400
Cu	Cu	0.28500 0.00000 0.21500 0.88300
Cu	Cu	0.28500 0.50000 0.71500 0.91400
Cu	Cu	0.71500 0.00000 0.21500 0.88300
Cu	Cu	0.71500 0.50000 0.71500 0.91400
Cu	Cu	0.21500 0.50000 0.21500 0.91100
Cu	Cu	0.71500 -0.00000 0.78500 0.88600
Cu	Cu	0.71500 0.50000 0.28500 0.91400
Cu	Cu	0.21500 0.00000 0.28500 0.88300
Cu	Cu	0.28500 -0.00000 0.78500 0.88600
Cu	Cu	0.28500 0.50000 0.28500 0.91400
Cu	Cu	0.21500 0.28500 -0.00000 0.88300
Cu	Cu	0.21500 0.78500 0.50000 0.91400
Cu	Cu	0.21500 0.71500 -0.00000 0.88300
Cu	Cu	0.21500 0.21500 0.50000 0.91100
Cu	Cu	0.78500 0.71500 -0.00000 0.88600
Cu	Cu	0.78500 0.21500 0.50000 0.91400
Cu	Cu	0.28500 0.21500 -0.00000 0.88300
Cu	Cu	0.78500 0.28500 -0.00000 0.88600
Cu	Cu	0.78500 0.78500 0.50000 0.91800
Cu	Cu	0.28500 0.28500 0.50000 0.91400
Cu	Cu	0.00000 0.21500 0.28500 0.88300
Cu	Cu	0.50000 0.21500 0.78500 0.91400
Cu	Cu	0.00000 0.21500 0.71500 0.88300
Cu	Cu	0.50000 0.21500 0.21500 0.91100
Cu	Cu	-0.00000 0.78500 0.71500 0.88600
Cu	Cu	0.00000 0.28500 0.21500 0.88300
Cu	Cu	0.50000 0.78500 0.21500 0.91400
Cu	Cu	-0.00000 0.78500 0.28500 0.88600
Cu	Cu	0.50000 0.78500 0.78500 0.91800
Cu	Cu	0.50000 0.28500 0.28500 0.91400
Cu	Cu	-0.00000 0.28500 0.78500 0.88600
Cu	Cu	-0.00000 0.71500 0.78500 0.88600
Cu	Cu	0.50000 0.71500 0.28500 0.91400
Cu	Cu	0.00000 0.71500 0.21500 0.88300
Cu	Cu	0.50000 0.71500 0.71500 0.91400
Cu	Cu	0.50000 0.28500 0.71500 0.91400
Cu	Cu	0.28500 0.71500 0.50000 0.91400
Cu	Cu	0.71500 0.21500 -0.00000 0.88300
Cu	Cu	0.71500 0.71500 0.50000 0.91400
Cu	Cu	0.71500 0.78500 -0.00000 0.88600
Cu	Cu	0.71500 0.28500 0.50000 0.91400
Cu	Cu	0.28500 0.78500 -0.00000 0.88600
Cu	Cu	0.21500 0.00000 0.71500 0.88300
Cu	Cu	0.21500 0.50000 0.78500 0.91400
Cu	Cu	0.78500 0.00000 0.28500 0.88600
Cu	Cu	0.78500 0.50000 0.78500 0.91800
Cu	Cu	0.78500 0.00000 0.71500 0.88600
Cu	Cu	0.78500 0.50000 0.21500 0.91400
C 	C 	0.19880 0.13290 0.13290 0.10500
C 	C 	0.19880 0.63290 0.63290 0.12000
C 	C 	0.69880 0.13290 0.63290 0.11700
C 	C 	0.69880 0.63290 0.13290 0.11700
C 	C 	0.80120 0.86710 0.13290 0.12500
C 	C 	0.80120 0.36710 0.63290 0.12500
C 	C 	0.30120 0.86710 0.63290 0.12900
C 	C 	0.30120 0.36710 0.13290 0.11300
C 	C 	0.80120 0.13290 0.86710 0.12500
C 	C 	0.80120 0.63290 0.36710 0.12500
C 	C 	0.30120 0.13290 0.36710 0.11300
C 	C 	0.30120 0.63290 0.86710 0.12900
C 	C 	0.19880 0.86710 0.86710 0.13500
C 	C 	0.19880 0.36710 0.36710 0.12000
C 	C 	0.69880 0.86710 0.36710 0.13200
C 	C 	0.69880 0.36710 0.86710 0.13200
C 	C 	0.13290 0.19880 0.13290 0.10500
C 	C 	0.13290 0.69880 0.63290 0.11700
C 	C 	0.63290 0.19880 0.63290 0.12000
C 	C 	0.63290 0.69880 0.13290 0.11700
C 	C 	0.13290 0.80120 0.86710 0.12500
C 	C 	0.13290 0.30120 0.36710 0.11300
C 	C 	0.63290 0.80120 0.36710 0.12500
C 	C 	0.63290 0.30120 0.86710 0.12900
C 	C 	0.86710 0.80120 0.13290 0.12500
C 	C 	0.86710 0.30120 0.63290 0.12900
C 	C 	0.36710 0.80120 0.63290 0.12500
C 	C 	0.36710 0.30120 0.13290 0.11300
C 	C 	0.86710 0.19880 0.86710 0.13500
C 	C 	0.86710 0.69880 0.36710 0.13200
C 	C 	0.36710 0.19880 0.36710 0.12000
C 	C 	0.36710 0.69880 0.86710 0.13200
C 	C 	0.13290 0.13290 0.19880 0.10500
C 	C 	0.13290 0.63290 0.69880 0.11700
C 	C 	0.63290 0.13290 0.69880 0.11700
C 	C 	0.63290 0.63290 0.19880 0.12000
C 	C 	0.86710 0.13290 0.80120 0.12500
C 	C 	0.86710 0.63290 0.30120 0.12900
C 	C 	0.36710 0.13290 0.30120 0.11300
C 	C 	0.36710 0.63290 0.80120 0.12500
C 	C 	0.13290 0.86710 0.80120 0.12500
C 	C 	0.13290 0.36710 0.30120 0.11300
C 	C 	0.63290 0.86710 0.30120 0.12900
C 	C 	0.63290 0.36710 0.80120 0.12500
C 	C 	0.86710 0.86710 0.19880 0.13500
C 	C 	0.86710 0.36710 0.69880 0.13200
C 	C 	0.36710 0.86710 0.69880 0.13200
C 	C 	0.36710 0.36710 0.19880 0.12000
C 	C 	0.13290 0.19880 0.86710 0.12000
C 	C 	0.13290 0.69880 0.36710 0.11700
C 	C 	0.63290 0.19880 0.36710 0.12000
C 	C 	0.63290 0.69880 0.86710 0.13200
C 	C 	0.86710 0.80120 0.86710 0.14100
C 	C 	0.86710 0.30120 0.36710 0.12900
C 	C 	0.36710 0.80120 0.36710 0.12500
C 	C 	0.36710 0.30120 0.86710 0.12900
C 	C 	0.13290 0.80120 0.13290 0.11000
C 	C 	0.13290 0.30120 0.63290 0.11300
C 	C 	0.63290 0.80120 0.63290 0.12600
C 	C 	0.63290 0.30120 0.13290 0.11300
C 	C 	0.86710 0.19880 0.13290 0.12000
C 	C 	0.86710 0.69880 0.63290 0.13200
C 	C 	0.36710 0.19880 0.63290 0.12000
C 	C 	0.36710 0.69880 0.13290 0.11700
C 	C 	0.19880 0.13290 0.86710 0.12000
C 	C 	0.19880 0.63290 0.36710 0.12000
C 	C 	0.69880 0.13290 0.36710 0.11700
C 	C 	0.69880 0.63290 0.86710 0.13200
C 	C 	0.80120 0.13290 0.13290 0.11000
C 	C 	0.80120 0.63290 0.63290 0.12600
C 	C 	0.30120 0.13290 0.63290 0.11300
C 	C 	0.30120 0.63290 0.13290 0.11300
C 	C 	0.80120 0.86710 0.86710 0.14100
C 	C 	0.80120 0.36710 0.36710 0.12500
C 	C 	0.30120 0.86710 0.36710 0.12900
C 	C 	0.30120 0.36710 0.86710 0.12900
C 	C 	0.19880 0.86710 0.13290 0.12000
C 	C 	0.19880 0.36710 0.63290 0.12000
C 	C 	0.69880 0.86710 0.63290 0.13200
C 	C 	0.69880 0.36710 0.13290 0.11700
C 	C 	0.13290 0.13290 0.80120 0.11000
C 	C 	0.13290 0.63290 0.30120 0.11300
C 	C 	0.63290 0.13290 0.30120 0.11300
C 	C 	0.63290 0.63290 0.80120 0.12600
C 	C 	0.13290 0.86710 0.19880 0.12000
C 	C 	0.13290 0.36710 0.69880 0.11700
C 	C 	0.63290 0.86710 0.69880 0.13200
C 	C 	0.63290 0.36710 0.19880 0.12000
C 	C 	0.86710 0.13290 0.19880 0.12000
C 	C 	0.86710 0.63290 0.69880 0.13200
C 	C 	0.36710 0.13290 0.69880 0.11700
C 	C 	0.36710 0.63290 0.19880 0.12000
C 	C 	0.86710 0.86710 0.80120 0.14100
C 	C 	0.86710 0.36710 0.30120 0.12900
C 	C 	0.36710 0.86710 0.30120 0.12900
C 	C 	0.36710 0.36710 0.80120 0.12500
C 	C 	0.20270 0.06770 0.20270 0.36800
C 	C 	0.17590 0.11190 0.17590 -0.15000
C 	C 	0.20270 0.56770 0.70270 0.37100
C 	C 	0.17590 0.61190 0.67590 -0.14600
C 	C 	0.70270 0.06770 0.70270 0.36900
C 	C 	0.67590 0.11190 0.67590 -0.14800
C 	C 	0.70270 0.56770 0.20270 0.37100
C 	C 	0.67590 0.61190 0.17590 -0.14600
C 	C 	0.79730 0.93230 0.20270 0.36900
C 	C 	0.82410 0.88810 0.17590 -0.14000
C 	C 	0.79730 0.43230 0.70270 0.37300
C 	C 	0.82410 0.38810 0.67590 -0.14400
C 	C 	0.29730 0.93230 0.70270 0.36900
C 	C 	0.32410 0.88810 0.67590 -0.14000
C 	C 	0.29730 0.43230 0.20270 0.37100
C 	C 	0.32410 0.38810 0.17590 -0.14600
C 	C 	0.79730 0.06770 0.79730 0.37200
C 	C 	0.82410 0.11190 0.82410 -0.14700
C 	C 	0.79730 0.56770 0.29730 0.37400
C 	C 	0.82410 0.61190 0.32410 -0.14400
C 	C 	0.29730 0.06770 0.29730 0.37100
C 	C 	0.32410 0.11190 0.32410 -0.14900
C 	C 	0.29730 0.56770 0.79730 0.37400
C 	C 	0.32410 0.61190 0.82410 -0.14400
C 	C 	0.20270 0.93230 0.79730 0.36900
C 	C 	0.17590 0.88810 0.82410 -0.14000
C 	C 	0.20270 0.43230 0.29730 0.37100
C 	C 	0.17590 0.38810 0.32410 -0.14600
C 	C 	0.70270 0.93230 0.29730 0.36900
C 	C 	0.67590 0.88810 0.32410 -0.14000
C 	C 	0.70270 0.43230 0.79730 0.37300
C 	C 	0.67590 0.38810 0.82410 -0.14400
C 	C 	0.20270 0.20270 0.06770 0.36800
C 	C 	0.17590 0.17590 0.11190 -0.15000
C 	C 	0.20270 0.70270 0.56770 0.37100
C 	C 	0.17590 0.67590 0.61190 -0.14600
C 	C 	0.70270 0.20270 0.56770 0.37100
C 	C 	0.67590 0.17590 0.61190 -0.14600
C 	C 	0.70270 0.70270 0.06770 0.36900
C 	C 	0.67590 0.67590 0.11190 -0.14800
C 	C 	0.20270 0.79730 0.93230 0.36900
C 	C 	0.17590 0.82410 0.88810 -0.14000
C 	C 	0.20270 0.29730 0.43230 0.37100
C 	C 	0.17590 0.32410 0.38810 -0.14600
C 	C 	0.70270 0.79730 0.43230 0.37300
C 	C 	0.67590 0.82410 0.38810 -0.14400
C 	C 	0.70270 0.29730 0.93230 0.36900
C 	C 	0.67590 0.32410 0.88810 -0.14000
C 	C 	0.79730 0.79730 0.06770 0.37200
C 	C 	0.82410 0.82410 0.11190 -0.14700
C 	C 	0.79730 0.29730 0.56770 0.37400
C 	C 	0.82410 0.32410 0.61190 -0.14400
C 	C 	0.29730 0.79730 0.56770 0.37400
C 	C 	0.32410 0.82410 0.61190 -0.14400
C 	C 	0.29730 0.29730 0.06770 0.37100
C 	C 	0.32410 0.32410 0.11190 -0.14900
C 	C 	0.79730 0.20270 0.93230 0.36900
C 	C 	0.82410 0.17590 0.88810 -0.14000
C 	C 	0.79730 0.70270 0.43230 0.37300
C 	C 	0.82410 0.67590 0.38810 -0.14400
C 	C 	0.29730 0.20270 0.43230 0.37100
C 	C 	0.32410 0.17590 0.38810 -0.14600
C 	C 	0.29730 0.70270 0.93230 0.36900
C 	C 	0.32410 0.67590 0.88810 -0.14000
C 	C 	0.06770 0.20270 0.20270 0.36800
C 	C 	0.11190 0.17590 0.17590 -0.15000
C 	C 	0.06770 0.70270 0.70270 0.36900
C 	C 	0.11190 0.67590 0.67590 -0.14800
C 	C 	0.56770 0.20270 0.70270 0.37100
C 	C 	0.61190 0.17590 0.67590 -0.14600
C 	C 	0.56770 0.70270 0.20270 0.37100
C 	C 	0.61190 0.67590 0.17590 -0.14600
C 	C 	0.93230 0.20270 0.79730 0.36900
C 	C 	0.88810 0.17590 0.82410 -0.14000
C 	C 	0.93230 0.70270 0.29730 0.36900
C 	C 	0.88810 0.67590 0.32410 -0.14000
C 	C 	0.43230 0.20270 0.29730 0.37100
C 	C 	0.38810 0.17590 0.32410 -0.14600
C 	C 	0.43230 0.70270 0.79730 0.37300
C 	C 	0.38810 0.67590 0.82410 -0.14400
C 	C 	0.06770 0.79730 0.79730 0.37200
C 	C 	0.11190 0.82410 0.82410 -0.14700
C 	C 	0.06770 0.29730 0.29730 0.37100
C 	C 	0.11190 0.32410 0.32410 -0.14900
C 	C 	0.56770 0.79730 0.29730 0.37400
C 	C 	0.61190 0.82410 0.32410 -0.14400
C 	C 	0.56770 0.29730 0.79730 0.37400
C 	C 	0.61190 0.32410 0.82410 -0.14400
C 	C 	0.93230 0.79730 0.20270 0.36900
C 	C 	0.88810 0.82410 0.17590 -0.14000
C 	C 	0.93230 0.29730 0.70270 0.36900
C 	C 	0.88810 0.32410 0.67590 -0.14000
C 	C 	0.43230 0.79730 0.70270 0.37300
C 	C 	0.38810 0.82410 0.67590 -0.14400
C 	C 	0.43230 0.29730 0.20270 0.37100
C 	C 	0.38810 0.32410 0.17590 -0.14600
C 	C 	0.06770 0.20270 0.79730 0.37000
C 	C 	0.11190 0.17590 0.82410 -0.14800
C 	C 	0.06770 0.70270 0.29730 0.37000
C 	C 	0.11190 0.67590 0.32410 -0.14900
C 	C 	0.56770 0.20270 0.29730 0.37100
C 	C 	0.61190 0.17590 0.32410 -0.14600
C 	C 	0.56770 0.70270 0.79730 0.37300
C 	C 	0.61190 0.67590 0.82410 -0.14400
C 	C 	0.93230 0.79730 0.79730 0.37100
C 	C 	0.88810 0.82410 0.82410 -0.13800
C 	C 	0.93230 0.29730 0.29730 0.37000
C 	C 	0.88810 0.32410 0.32410 -0.14000
C 	C 	0.43230 0.79730 0.29730 0.37400
C 	C 	0.38810 0.82410 0.32410 -0.14400
C 	C 	0.43230 0.29730 0.79730 0.37400
C 	C 	0.38810 0.32410 0.82410 -0.14400
C 	C 	0.06770 0.79730 0.20270 0.37000
C 	C 	0.11190 0.82410 0.17590 -0.14800
C 	C 	0.06770 0.29730 0.70270 0.37000
C 	C 	0.11190 0.32410 0.67590 -0.14900
C 	C 	0.56770 0.79730 0.70270 0.37300
C 	C 	0.61190 0.82410 0.67590 -0.14400
C 	C 	0.56770 0.29730 0.20270 0.37100
C 	C 	0.61190 0.32410 0.17590 -0.14600
C 	C 	0.93230 0.20270 0.20270 0.36700
C 	C 	0.88810 0.17590 0.17590 -0.14200
C 	C 	0.93230 0.70270 0.70270 0.36900
C 	C 	0.88810 0.67590 0.67590 -0.14000
C 	C 	0.43230 0.20270 0.70270 0.37100
C 	C 	0.38810 0.17590 0.67590 -0.14600
C 	C 	0.43230 0.70270 0.20270 0.37100
C 	C 	0.38810 0.67590 0.17590 -0.14600
C 	C 	0.20270 0.20270 0.93230 0.36700
C 	C 	0.17590 0.17590 0.88810 -0.14200
C 	C 	0.20270 0.70270 0.43230 0.37100
C 	C 	0.17590 0.67590 0.38810 -0.14600
C 	C 	0.70270 0.20270 0.43230 0.37100
C 	C 	0.67590 0.17590 0.38810 -0.14600
C 	C 	0.70270 0.70270 0.93230 0.36900
C 	C 	0.67590 0.67590 0.88810 -0.14000
C 	C 	0.79730 0.20270 0.06770 0.37000
C 	C 	0.82410 0.17590 0.11190 -0.14800
C 	C 	0.79730 0.70270 0.56770 0.37300
C 	C 	0.82410 0.67590 0.61190 -0.14400
C 	C 	0.29730 0.20270 0.56770 0.37100
C 	C 	0.32410 0.17590 0.61190 -0.14600
C 	C 	0.29730 0.70270 0.06770 0.37000
C 	C 	0.32410 0.67590 0.11190 -0.14900
C 	C 	0.79730 0.79730 0.93230 0.37100
C 	C 	0.82410 0.82410 0.88810 -0.13800
C 	C 	0.79730 0.29730 0.43230 0.37400
C 	C 	0.82410 0.32410 0.38810 -0.14400
C 	C 	0.29730 0.79730 0.43230 0.37400
C 	C 	0.32410 0.82410 0.38810 -0.14400
C 	C 	0.29730 0.29730 0.93230 0.37000
C 	C 	0.32410 0.32410 0.88810 -0.14000
C 	C 	0.20270 0.79730 0.06770 0.37000
C 	C 	0.17590 0.82410 0.11190 -0.14800
C 	C 	0.20270 0.29730 0.56770 0.37100
C 	C 	0.17590 0.32410 0.61190 -0.14600
C 	C 	0.70270 0.79730 0.56770 0.37300
C 	C 	0.67590 0.82410 0.61190 -0.14400
C 	C 	0.70270 0.29730 0.06770 0.37000
C 	C 	0.67590 0.32410 0.11190 -0.14900
C 	C 	0.20270 0.06770 0.79730 0.37000
C 	C 	0.17590 0.11190 0.82410 -0.14800
C 	C 	0.20270 0.56770 0.29730 0.37100
C 	C 	0.17590 0.61190 0.32410 -0.14600
C 	C 	0.70270 0.06770 0.29730 0.37000
C 	C 	0.67590 0.11190 0.32410 -0.14900
C 	C 	0.70270 0.56770 0.79730 0.37300
C 	C 	0.67590 0.61190 0.82410 -0.14400
C 	C 	0.20270 0.93230 0.20270 0.36700
C 	C 	0.17590 0.88810 0.17590 -0.14200
C 	C 	0.20270 0.43230 0.70270 0.37100
C 	C 	0.17590 0.38810 0.67590 -0.14600
C 	C 	0.70270 0.93230 0.70270 0.36900
C 	C 	0.67590 0.88810 0.67590 -0.14000
C 	C 	0.70270 0.43230 0.20270 0.37100
C 	C 	0.67590 0.38810 0.17590 -0.14600
C 	C 	0.79730 0.06770 0.20270 0.37000
C 	C 	0.82410 0.11190 0.17590 -0.14800
C 	C 	0.79730 0.56770 0.70270 0.37300
C 	C 	0.82410 0.61190 0.67590 -0.14400
C 	C 	0.29730 0.06770 0.70270 0.37000
C 	C 	0.32410 0.11190 0.67590 -0.14900
C 	C 	0.29730 0.56770 0.20270 0.37100
C 	C 	0.32410 0.61190 0.17590 -0.14600
C 	C 	0.79730 0.93230 0.79730 0.37100
C 	C 	0.82410 0.88810 0.82410 -0.13800
C 	C 	0.79730 0.43230 0.29730 0.37400
C 	C 	0.82410 0.38810 0.32410 -0.14400
C 	C 	0.29730 0.93230 0.29730 0.37000
C 	C 	0.32410 0.88810 0.32410 -0.14000
C 	C 	0.29730 0.43230 0.79730 0.37400
C 	C 	0.32410 0.38810 0.82410 -0.14400
