data_crystal

_cell_length_a 26.30820
_cell_length_b 26.30820
_cell_length_c 26.30820
_cell_angle_alpha 90.00000
_cell_angle_beta  90.00000
_cell_angle_gamma 90.00000

_symmetry_space_group_name_	'P 1'
_symmetry_space_group_name_H-M	'P 1'

loop_
_symmetry_equiv_pos_as_xyz
  x,y,z

loop_
_atom_site_label
_atom_site_type_symbol
_atom_site_fract_x
_atom_site_fract_y
_atom_site_fract_z
_atom_site_charge
O 	O 	0.24380 0.05190 0.18370 -0.43600
O 	O 	0.24380 0.55190 0.68370 -0.41400
O 	O 	0.74380 0.05190 0.68370 -0.42800
O 	O 	0.74380 0.55190 0.18370 -0.41600
O 	O 	0.75620 0.94810 0.18370 -0.38500
O 	O 	0.75620 0.44810 0.68370 -0.41200
O 	O 	0.25620 0.94810 0.68370 -0.38300
O 	O 	0.25620 0.44810 0.18370 -0.42000
O 	O 	0.75620 0.05190 0.81630 -0.42400
O 	O 	0.75620 0.55190 0.31630 -0.41200
O 	O 	0.25620 0.05190 0.31630 -0.43200
O 	O 	0.25620 0.55190 0.81630 -0.41000
O 	O 	0.24380 0.94810 0.81630 -0.37600
O 	O 	0.24380 0.44810 0.31630 -0.41400
O 	O 	0.74380 0.94810 0.31630 -0.37700
O 	O 	0.74380 0.44810 0.81630 -0.40400
O 	O 	0.18370 0.24380 0.05190 -0.43500
O 	O 	0.18370 0.74380 0.55190 -0.41500
O 	O 	0.68370 0.24380 0.55190 -0.41300
O 	O 	0.68370 0.74380 0.05190 -0.42700
O 	O 	0.18370 0.75620 0.94810 -0.38400
O 	O 	0.18370 0.25620 0.44810 -0.41900
O 	O 	0.68370 0.75620 0.44810 -0.41100
O 	O 	0.68370 0.25620 0.94810 -0.38200
O 	O 	0.81630 0.75620 0.05190 -0.42300
O 	O 	0.81630 0.25620 0.55190 -0.40900
O 	O 	0.31630 0.75620 0.55190 -0.41100
O 	O 	0.31630 0.25620 0.05190 -0.43100
O 	O 	0.81630 0.24380 0.94810 -0.37600
O 	O 	0.81630 0.74380 0.44810 -0.40400
O 	O 	0.31630 0.24380 0.44810 -0.41400
O 	O 	0.31630 0.74380 0.94810 -0.37700
O 	O 	0.05190 0.18370 0.24380 -0.43500
O 	O 	0.05190 0.68370 0.74380 -0.42700
O 	O 	0.55190 0.18370 0.74380 -0.41500
O 	O 	0.55190 0.68370 0.24380 -0.41300
O 	O 	0.94810 0.18370 0.75620 -0.38400
O 	O 	0.94810 0.68370 0.25620 -0.38200
O 	O 	0.44810 0.18370 0.25620 -0.41900
O 	O 	0.44810 0.68370 0.75620 -0.41100
O 	O 	0.05190 0.81630 0.75620 -0.42300
O 	O 	0.05190 0.31630 0.25620 -0.43100
O 	O 	0.55190 0.81630 0.25620 -0.40900
O 	O 	0.55190 0.31630 0.75620 -0.41100
O 	O 	0.94810 0.81630 0.24380 -0.37600
O 	O 	0.94810 0.31630 0.74380 -0.37700
O 	O 	0.44810 0.81630 0.74380 -0.40400
O 	O 	0.44810 0.31630 0.24380 -0.41400
O 	O 	0.05190 0.24380 0.81630 -0.42500
O 	O 	0.05190 0.74380 0.31630 -0.42700
O 	O 	0.55190 0.24380 0.31630 -0.41400
O 	O 	0.55190 0.74380 0.81630 -0.40400
O 	O 	0.94810 0.75620 0.81630 -0.37300
O 	O 	0.94810 0.25620 0.31630 -0.38200
O 	O 	0.44810 0.75620 0.31630 -0.41100
O 	O 	0.44810 0.25620 0.81630 -0.40900
O 	O 	0.05190 0.75620 0.18370 -0.43300
O 	O 	0.05190 0.25620 0.68370 -0.43100
O 	O 	0.55190 0.75620 0.68370 -0.41100
O 	O 	0.55190 0.25620 0.18370 -0.41900
O 	O 	0.94810 0.24380 0.18370 -0.38600
O 	O 	0.94810 0.74380 0.68370 -0.37700
O 	O 	0.44810 0.24380 0.68370 -0.41300
O 	O 	0.44810 0.74380 0.18370 -0.41500
O 	O 	0.24380 0.18370 0.94810 -0.38600
O 	O 	0.24380 0.68370 0.44810 -0.41300
O 	O 	0.74380 0.18370 0.44810 -0.41500
O 	O 	0.74380 0.68370 0.94810 -0.37700
O 	O 	0.75620 0.18370 0.05190 -0.43300
O 	O 	0.75620 0.68370 0.55190 -0.41100
O 	O 	0.25620 0.18370 0.55190 -0.41900
O 	O 	0.25620 0.68370 0.05190 -0.43100
O 	O 	0.75620 0.81630 0.94810 -0.37300
O 	O 	0.75620 0.31630 0.44810 -0.41100
O 	O 	0.25620 0.81630 0.44810 -0.40900
O 	O 	0.25620 0.31630 0.94810 -0.38200
O 	O 	0.24380 0.81630 0.05190 -0.42500
O 	O 	0.24380 0.31630 0.55190 -0.41400
O 	O 	0.74380 0.81630 0.55190 -0.40400
O 	O 	0.74380 0.31630 0.05190 -0.42700
O 	O 	0.18370 0.05190 0.75620 -0.43300
O 	O 	0.18370 0.55190 0.25620 -0.41900
O 	O 	0.68370 0.05190 0.25620 -0.43100
O 	O 	0.68370 0.55190 0.75620 -0.41100
O 	O 	0.18370 0.94810 0.24380 -0.38600
O 	O 	0.18370 0.44810 0.74380 -0.41500
O 	O 	0.68370 0.94810 0.74380 -0.37700
O 	O 	0.68370 0.44810 0.24380 -0.41300
O 	O 	0.81630 0.05190 0.24380 -0.42500
O 	O 	0.81630 0.55190 0.74380 -0.40400
O 	O 	0.31630 0.05190 0.74380 -0.42700
O 	O 	0.31630 0.55190 0.24380 -0.41400
O 	O 	0.81630 0.94810 0.75620 -0.37300
O 	O 	0.81630 0.44810 0.25620 -0.40900
O 	O 	0.31630 0.94810 0.25620 -0.38200
O 	O 	0.31630 0.44810 0.75620 -0.41100
O 	O 	0.75620 0.94810 0.81630 -0.37300
O 	O 	0.75620 0.44810 0.31630 -0.41100
O 	O 	0.25620 0.94810 0.31630 -0.38200
O 	O 	0.25620 0.44810 0.81630 -0.40900
O 	O 	0.24380 0.05190 0.81630 -0.42500
O 	O 	0.24380 0.55190 0.31630 -0.41400
O 	O 	0.74380 0.05190 0.31630 -0.42700
O 	O 	0.74380 0.55190 0.81630 -0.40400
O 	O 	0.24380 0.94810 0.18370 -0.38600
O 	O 	0.24380 0.44810 0.68370 -0.41300
O 	O 	0.74380 0.94810 0.68370 -0.37700
O 	O 	0.74380 0.44810 0.18370 -0.41500
O 	O 	0.75620 0.05190 0.18370 -0.43300
O 	O 	0.75620 0.55190 0.68370 -0.41100
O 	O 	0.25620 0.05190 0.68370 -0.43100
O 	O 	0.25620 0.55190 0.18370 -0.41900
O 	O 	0.81630 0.75620 0.94810 -0.37300
O 	O 	0.81630 0.25620 0.44810 -0.40900
O 	O 	0.31630 0.75620 0.44810 -0.41100
O 	O 	0.31630 0.25620 0.94810 -0.38200
O 	O 	0.81630 0.24380 0.05190 -0.42500
O 	O 	0.81630 0.74380 0.55190 -0.40400
O 	O 	0.31630 0.24380 0.55190 -0.41400
O 	O 	0.31630 0.74380 0.05190 -0.42700
O 	O 	0.18370 0.24380 0.94810 -0.38600
O 	O 	0.18370 0.74380 0.44810 -0.41500
O 	O 	0.68370 0.24380 0.44810 -0.41300
O 	O 	0.68370 0.74380 0.94810 -0.37700
O 	O 	0.18370 0.75620 0.05190 -0.43300
O 	O 	0.18370 0.25620 0.55190 -0.41900
O 	O 	0.68370 0.75620 0.55190 -0.41100
O 	O 	0.68370 0.25620 0.05190 -0.43100
O 	O 	0.94810 0.81630 0.75620 -0.37300
O 	O 	0.94810 0.31630 0.25620 -0.38200
O 	O 	0.44810 0.81630 0.25620 -0.40900
O 	O 	0.44810 0.31630 0.75620 -0.41100
O 	O 	0.05190 0.81630 0.24380 -0.42500
O 	O 	0.05190 0.31630 0.74380 -0.42700
O 	O 	0.55190 0.81630 0.74380 -0.40400
O 	O 	0.55190 0.31630 0.24380 -0.41400
O 	O 	0.94810 0.18370 0.24380 -0.38600
O 	O 	0.94810 0.68370 0.74380 -0.37700
O 	O 	0.44810 0.18370 0.74380 -0.41500
O 	O 	0.44810 0.68370 0.24380 -0.41300
O 	O 	0.05190 0.18370 0.75620 -0.43300
O 	O 	0.05190 0.68370 0.25620 -0.43100
O 	O 	0.55190 0.18370 0.25620 -0.41900
O 	O 	0.55190 0.68370 0.75620 -0.41100
O 	O 	0.94810 0.75620 0.18370 -0.38400
O 	O 	0.94810 0.25620 0.68370 -0.38200
O 	O 	0.44810 0.75620 0.68370 -0.41100
O 	O 	0.44810 0.25620 0.18370 -0.41900
O 	O 	0.05190 0.24380 0.18370 -0.43500
O 	O 	0.05190 0.74380 0.68370 -0.42700
O 	O 	0.55190 0.24380 0.68370 -0.41300
O 	O 	0.55190 0.74380 0.18370 -0.41500
O 	O 	0.94810 0.24380 0.81630 -0.37600
O 	O 	0.94810 0.74380 0.31630 -0.37700
O 	O 	0.44810 0.24380 0.31630 -0.41400
O 	O 	0.44810 0.74380 0.81630 -0.40400
O 	O 	0.05190 0.75620 0.81630 -0.42300
O 	O 	0.05190 0.25620 0.31630 -0.43100
O 	O 	0.55190 0.75620 0.31630 -0.41100
O 	O 	0.55190 0.25620 0.81630 -0.40900
O 	O 	0.75620 0.81630 0.05190 -0.42300
O 	O 	0.75620 0.31630 0.55190 -0.41100
O 	O 	0.25620 0.81630 0.55190 -0.40900
O 	O 	0.25620 0.31630 0.05190 -0.43100
O 	O 	0.24380 0.81630 0.94810 -0.37600
O 	O 	0.24380 0.31630 0.44810 -0.41400
O 	O 	0.74380 0.81630 0.44810 -0.40400
O 	O 	0.74380 0.31630 0.94810 -0.37700
O 	O 	0.24380 0.18370 0.05190 -0.43500
O 	O 	0.24380 0.68370 0.55190 -0.41300
O 	O 	0.74380 0.18370 0.55190 -0.41500
O 	O 	0.74380 0.68370 0.05190 -0.42700
O 	O 	0.75620 0.18370 0.94810 -0.38400
O 	O 	0.75620 0.68370 0.44810 -0.41100
O 	O 	0.25620 0.18370 0.44810 -0.41900
O 	O 	0.25620 0.68370 0.94810 -0.38200
O 	O 	0.81630 0.94810 0.24380 -0.37600
O 	O 	0.81630 0.44810 0.74380 -0.40400
O 	O 	0.31630 0.94810 0.74380 -0.37700
O 	O 	0.31630 0.44810 0.24380 -0.41400
O 	O 	0.81630 0.05190 0.75620 -0.42300
O 	O 	0.81630 0.55190 0.25620 -0.40900
O 	O 	0.31630 0.05190 0.25620 -0.43100
O 	O 	0.31630 0.55190 0.75620 -0.41100
O 	O 	0.18370 0.94810 0.75620 -0.38400
O 	O 	0.18370 0.44810 0.25620 -0.41900
O 	O 	0.68370 0.94810 0.25620 -0.38200
O 	O 	0.68370 0.44810 0.75620 -0.41100
O 	O 	0.18370 0.05190 0.24380 -0.43500
O 	O 	0.18370 0.55190 0.74380 -0.41500
O 	O 	0.68370 0.05190 0.74380 -0.42700
O 	O 	0.68370 0.55190 0.24380 -0.41300
Cu	Cu	0.28520 0.00000 0.21480 0.88400
Cu	Cu	0.28520 0.50000 0.71480 0.91500
Cu	Cu	0.71480 0.00000 0.21480 0.88400
Cu	Cu	0.71480 0.50000 0.71480 0.91500
Cu	Cu	0.21480 0.50000 0.21480 0.91200
Cu	Cu	0.71480 0.00000 0.78521 0.88700
Cu	Cu	0.71480 0.50000 0.28520 0.91500
Cu	Cu	0.21480 0.00000 0.28520 0.88400
Cu	Cu	0.28520 0.00000 0.78521 0.88700
Cu	Cu	0.28520 0.50000 0.28520 0.91500
Cu	Cu	0.21480 0.28520 -0.00000 0.88400
Cu	Cu	0.21480 0.78521 0.50000 0.91500
Cu	Cu	0.21480 0.71480 -0.00000 0.88400
Cu	Cu	0.21480 0.21480 0.50000 0.91200
Cu	Cu	0.78521 0.71480 -0.00000 0.88700
Cu	Cu	0.78521 0.21480 0.50000 0.91500
Cu	Cu	0.28520 0.21480 -0.00000 0.88400
Cu	Cu	0.78521 0.28520 -0.00000 0.88700
Cu	Cu	0.78521 0.78521 0.50000 0.91900
Cu	Cu	0.28520 0.28520 0.50000 0.91500
Cu	Cu	0.00000 0.21480 0.28520 0.88400
Cu	Cu	0.50000 0.21480 0.78521 0.91500
Cu	Cu	0.00000 0.21480 0.71480 0.88400
Cu	Cu	0.50000 0.21480 0.21480 0.91200
Cu	Cu	0.00000 0.78521 0.71480 0.88700
Cu	Cu	0.00000 0.28520 0.21480 0.88400
Cu	Cu	0.50000 0.78521 0.21480 0.91500
Cu	Cu	0.00000 0.78521 0.28520 0.88700
Cu	Cu	0.50000 0.78521 0.78521 0.91900
Cu	Cu	0.50000 0.28520 0.28520 0.91500
Cu	Cu	0.00000 0.28520 0.78521 0.88700
Cu	Cu	0.00000 0.71480 0.78521 0.88700
Cu	Cu	0.50000 0.71480 0.28520 0.91500
Cu	Cu	0.00000 0.71480 0.21480 0.88400
Cu	Cu	0.50000 0.71480 0.71480 0.91500
Cu	Cu	0.50000 0.28520 0.71480 0.91500
Cu	Cu	0.28520 0.71480 0.50000 0.91500
Cu	Cu	0.71480 0.21480 -0.00000 0.88400
Cu	Cu	0.71480 0.71480 0.50000 0.91500
Cu	Cu	0.71480 0.78521 -0.00000 0.88700
Cu	Cu	0.71480 0.28520 0.50000 0.91500
Cu	Cu	0.28520 0.78521 -0.00000 0.88700
Cu	Cu	0.21480 0.00000 0.71480 0.88400
Cu	Cu	0.21480 0.50000 0.78521 0.91500
Cu	Cu	0.78521 0.00000 0.28520 0.88700
Cu	Cu	0.78521 0.50000 0.78521 0.91900
Cu	Cu	0.78521 0.00000 0.71480 0.88700
Cu	Cu	0.78521 0.50000 0.21480 0.91500
C 	C 	0.19860 0.13380 0.13380 0.11500
C 	C 	0.19860 0.63380 0.63380 0.12900
C 	C 	0.69860 0.13380 0.63380 0.12600
C 	C 	0.69860 0.63380 0.13380 0.12600
C 	C 	0.80140 0.86620 0.13380 0.13400
C 	C 	0.80140 0.36620 0.63380 0.13400
C 	C 	0.30140 0.86620 0.63380 0.13700
C 	C 	0.30140 0.36620 0.13380 0.12300
C 	C 	0.80140 0.13380 0.86620 0.13400
C 	C 	0.80140 0.63380 0.36620 0.13400
C 	C 	0.30140 0.13380 0.36620 0.12300
C 	C 	0.30140 0.63380 0.86620 0.13700
C 	C 	0.19860 0.86620 0.86620 0.14300
C 	C 	0.19860 0.36620 0.36620 0.12900
C 	C 	0.69860 0.86620 0.36620 0.14000
C 	C 	0.69860 0.36620 0.86620 0.14000
C 	C 	0.13380 0.19860 0.13380 0.11500
C 	C 	0.13380 0.69860 0.63380 0.12600
C 	C 	0.63380 0.19860 0.63380 0.12900
C 	C 	0.63380 0.69860 0.13380 0.12600
C 	C 	0.13380 0.80140 0.86620 0.13400
C 	C 	0.13380 0.30140 0.36620 0.12300
C 	C 	0.63380 0.80140 0.36620 0.13400
C 	C 	0.63380 0.30140 0.86620 0.13700
C 	C 	0.86620 0.80140 0.13380 0.13400
C 	C 	0.86620 0.30140 0.63380 0.13700
C 	C 	0.36620 0.80140 0.63380 0.13400
C 	C 	0.36620 0.30140 0.13380 0.12300
C 	C 	0.86620 0.19860 0.86620 0.14300
C 	C 	0.86620 0.69860 0.36620 0.14000
C 	C 	0.36620 0.19860 0.36620 0.12900
C 	C 	0.36620 0.69860 0.86620 0.14000
C 	C 	0.13380 0.13380 0.19860 0.11500
C 	C 	0.13380 0.63380 0.69860 0.12600
C 	C 	0.63380 0.13380 0.69860 0.12600
C 	C 	0.63380 0.63380 0.19860 0.12900
C 	C 	0.86620 0.13380 0.80140 0.13400
C 	C 	0.86620 0.63380 0.30140 0.13700
C 	C 	0.36620 0.13380 0.30140 0.12300
C 	C 	0.36620 0.63380 0.80140 0.13400
C 	C 	0.13380 0.86620 0.80140 0.13400
C 	C 	0.13380 0.36620 0.30140 0.12300
C 	C 	0.63380 0.86620 0.30140 0.13700
C 	C 	0.63380 0.36620 0.80140 0.13400
C 	C 	0.86620 0.86620 0.19860 0.14300
C 	C 	0.86620 0.36620 0.69860 0.14000
C 	C 	0.36620 0.86620 0.69860 0.14000
C 	C 	0.36620 0.36620 0.19860 0.12900
C 	C 	0.13380 0.19860 0.86620 0.12900
C 	C 	0.13380 0.69860 0.36620 0.12600
C 	C 	0.63380 0.19860 0.36620 0.12900
C 	C 	0.63380 0.69860 0.86620 0.14000
C 	C 	0.86620 0.80140 0.86620 0.14700
C 	C 	0.86620 0.30140 0.36620 0.13700
C 	C 	0.36620 0.80140 0.36620 0.13400
C 	C 	0.36620 0.30140 0.86620 0.13700
C 	C 	0.13380 0.80140 0.13380 0.12000
C 	C 	0.13380 0.30140 0.63380 0.12300
C 	C 	0.63380 0.80140 0.63380 0.13400
C 	C 	0.63380 0.30140 0.13380 0.12300
C 	C 	0.86620 0.19860 0.13380 0.12900
C 	C 	0.86620 0.69860 0.63380 0.14000
C 	C 	0.36620 0.19860 0.63380 0.12900
C 	C 	0.36620 0.69860 0.13380 0.12600
C 	C 	0.19860 0.13380 0.86620 0.12900
C 	C 	0.19860 0.63380 0.36620 0.12900
C 	C 	0.69860 0.13380 0.36620 0.12600
C 	C 	0.69860 0.63380 0.86620 0.14000
C 	C 	0.80140 0.13380 0.13380 0.12000
C 	C 	0.80140 0.63380 0.63380 0.13400
C 	C 	0.30140 0.13380 0.63380 0.12300
C 	C 	0.30140 0.63380 0.13380 0.12300
C 	C 	0.80140 0.86620 0.86620 0.14700
C 	C 	0.80140 0.36620 0.36620 0.13400
C 	C 	0.30140 0.86620 0.36620 0.13700
C 	C 	0.30140 0.36620 0.86620 0.13700
C 	C 	0.19860 0.86620 0.13380 0.12900
C 	C 	0.19860 0.36620 0.63380 0.12900
C 	C 	0.69860 0.86620 0.63380 0.14000
C 	C 	0.69860 0.36620 0.13380 0.12600
C 	C 	0.13380 0.13380 0.80140 0.12000
C 	C 	0.13380 0.63380 0.30140 0.12300
C 	C 	0.63380 0.13380 0.30140 0.12300
C 	C 	0.63380 0.63380 0.80140 0.13400
C 	C 	0.13380 0.86620 0.19860 0.12900
C 	C 	0.13380 0.36620 0.69860 0.12600
C 	C 	0.63380 0.86620 0.69860 0.14000
C 	C 	0.63380 0.36620 0.19860 0.12900
C 	C 	0.86620 0.13380 0.19860 0.12900
C 	C 	0.86620 0.63380 0.69860 0.14000
C 	C 	0.36620 0.13380 0.69860 0.12600
C 	C 	0.36620 0.63380 0.19860 0.12900
C 	C 	0.86620 0.86620 0.80140 0.14700
C 	C 	0.86620 0.36620 0.30140 0.13700
C 	C 	0.36620 0.86620 0.30140 0.13700
C 	C 	0.36620 0.36620 0.80140 0.13400
C 	C 	0.20380 0.06800 0.20380 0.39200
C 	C 	0.17680 0.11090 0.17680 -0.16600
C 	C 	0.20380 0.56800 0.70380 0.39300
C 	C 	0.17680 0.61090 0.67680 -0.16000
C 	C 	0.70380 0.06800 0.70380 0.39200
C 	C 	0.67680 0.11090 0.67680 -0.16300
C 	C 	0.70380 0.56800 0.20380 0.39300
C 	C 	0.67680 0.61090 0.17680 -0.16000
C 	C 	0.79620 0.93200 0.20380 0.39000
C 	C 	0.82320 0.88910 0.17680 -0.15200
C 	C 	0.79620 0.43200 0.70380 0.39500
C 	C 	0.82320 0.38910 0.67680 -0.15700
C 	C 	0.29620 0.93200 0.70380 0.39000
C 	C 	0.32320 0.88910 0.67680 -0.15300
C 	C 	0.29620 0.43200 0.20380 0.39400
C 	C 	0.32320 0.38910 0.17680 -0.16000
C 	C 	0.79620 0.06800 0.79620 0.39500
C 	C 	0.82320 0.11090 0.82320 -0.16000
C 	C 	0.79620 0.56800 0.29620 0.39500
C 	C 	0.82320 0.61090 0.32320 -0.15700
C 	C 	0.29620 0.06800 0.29620 0.39400
C 	C 	0.32320 0.11090 0.32320 -0.16300
C 	C 	0.29620 0.56800 0.79620 0.39500
C 	C 	0.32320 0.61090 0.82320 -0.15700
C 	C 	0.20380 0.93200 0.79620 0.39000
C 	C 	0.17680 0.88910 0.82320 -0.15200
C 	C 	0.20380 0.43200 0.29620 0.39400
C 	C 	0.17680 0.38910 0.32320 -0.16000
C 	C 	0.70380 0.93200 0.29620 0.39000
C 	C 	0.67680 0.88910 0.32320 -0.15300
C 	C 	0.70380 0.43200 0.79620 0.39500
C 	C 	0.67680 0.38910 0.82320 -0.15700
C 	C 	0.20380 0.20380 0.06800 0.39200
C 	C 	0.17680 0.17680 0.11090 -0.16600
C 	C 	0.20380 0.70380 0.56800 0.39300
C 	C 	0.17680 0.67680 0.61090 -0.16000
C 	C 	0.70380 0.20380 0.56800 0.39300
C 	C 	0.67680 0.17680 0.61090 -0.16000
C 	C 	0.70380 0.70380 0.06800 0.39200
C 	C 	0.67680 0.67680 0.11090 -0.16300
C 	C 	0.20380 0.79620 0.93200 0.39000
C 	C 	0.17680 0.82320 0.88910 -0.15200
C 	C 	0.20380 0.29620 0.43200 0.39400
C 	C 	0.17680 0.32320 0.38910 -0.16000
C 	C 	0.70380 0.79620 0.43200 0.39500
C 	C 	0.67680 0.82320 0.38910 -0.15700
C 	C 	0.70380 0.29620 0.93200 0.39000
C 	C 	0.67680 0.32320 0.88910 -0.15300
C 	C 	0.79620 0.79620 0.06800 0.39500
C 	C 	0.82320 0.82320 0.11090 -0.16000
C 	C 	0.79620 0.29620 0.56800 0.39500
C 	C 	0.82320 0.32320 0.61090 -0.15700
C 	C 	0.29620 0.79620 0.56800 0.39500
C 	C 	0.32320 0.82320 0.61090 -0.15700
C 	C 	0.29620 0.29620 0.06800 0.39400
C 	C 	0.32320 0.32320 0.11090 -0.16300
C 	C 	0.79620 0.20380 0.93200 0.39000
C 	C 	0.82320 0.17680 0.88910 -0.15200
C 	C 	0.79620 0.70380 0.43200 0.39500
C 	C 	0.82320 0.67680 0.38910 -0.15700
C 	C 	0.29620 0.20380 0.43200 0.39400
C 	C 	0.32320 0.17680 0.38910 -0.16000
C 	C 	0.29620 0.70380 0.93200 0.39000
C 	C 	0.32320 0.67680 0.88910 -0.15300
C 	C 	0.06800 0.20380 0.20380 0.39200
C 	C 	0.11090 0.17680 0.17680 -0.16600
C 	C 	0.06800 0.70380 0.70380 0.39200
C 	C 	0.11090 0.67680 0.67680 -0.16300
C 	C 	0.56800 0.20380 0.70380 0.39300
C 	C 	0.61090 0.17680 0.67680 -0.16000
C 	C 	0.56800 0.70380 0.20380 0.39300
C 	C 	0.61090 0.67680 0.17680 -0.16000
C 	C 	0.93200 0.20380 0.79620 0.39000
C 	C 	0.88910 0.17680 0.82320 -0.15200
C 	C 	0.93200 0.70380 0.29620 0.39000
C 	C 	0.88910 0.67680 0.32320 -0.15300
C 	C 	0.43200 0.20380 0.29620 0.39400
C 	C 	0.38910 0.17680 0.32320 -0.16000
C 	C 	0.43200 0.70380 0.79620 0.39500
C 	C 	0.38910 0.67680 0.82320 -0.15700
C 	C 	0.06800 0.79620 0.79620 0.39500
C 	C 	0.11090 0.82320 0.82320 -0.16000
C 	C 	0.06800 0.29620 0.29620 0.39400
C 	C 	0.11090 0.32320 0.32320 -0.16300
C 	C 	0.56800 0.79620 0.29620 0.39500
C 	C 	0.61090 0.82320 0.32320 -0.15700
C 	C 	0.56800 0.29620 0.79620 0.39500
C 	C 	0.61090 0.32320 0.82320 -0.15700
C 	C 	0.93200 0.79620 0.20380 0.39000
C 	C 	0.88910 0.82320 0.17680 -0.15200
C 	C 	0.93200 0.29620 0.70380 0.39000
C 	C 	0.88910 0.32320 0.67680 -0.15300
C 	C 	0.43200 0.79620 0.70380 0.39500
C 	C 	0.38910 0.82320 0.67680 -0.15700
C 	C 	0.43200 0.29620 0.20380 0.39400
C 	C 	0.38910 0.32320 0.17680 -0.16000
C 	C 	0.06800 0.20380 0.79620 0.39300
C 	C 	0.11090 0.17680 0.82320 -0.16300
C 	C 	0.06800 0.70380 0.29620 0.39300
C 	C 	0.11090 0.67680 0.32320 -0.16300
C 	C 	0.56800 0.20380 0.29620 0.39400
C 	C 	0.61090 0.17680 0.32320 -0.16000
C 	C 	0.56800 0.70380 0.79620 0.39500
C 	C 	0.61090 0.67680 0.82320 -0.15700
C 	C 	0.93200 0.79620 0.79620 0.39100
C 	C 	0.88910 0.82320 0.82320 -0.14900
C 	C 	0.93200 0.29620 0.29620 0.39100
C 	C 	0.88910 0.32320 0.32320 -0.15300
C 	C 	0.43200 0.79620 0.29620 0.39500
C 	C 	0.38910 0.82320 0.32320 -0.15700
C 	C 	0.43200 0.29620 0.79620 0.39500
C 	C 	0.38910 0.32320 0.82320 -0.15700
C 	C 	0.06800 0.79620 0.20380 0.39300
C 	C 	0.11090 0.82320 0.17680 -0.16300
C 	C 	0.06800 0.29620 0.70380 0.39300
C 	C 	0.11090 0.32320 0.67680 -0.16300
C 	C 	0.56800 0.79620 0.70380 0.39500
C 	C 	0.61090 0.82320 0.67680 -0.15700
C 	C 	0.56800 0.29620 0.20380 0.39400
C 	C 	0.61090 0.32320 0.17680 -0.16000
C 	C 	0.93200 0.20380 0.20380 0.38900
C 	C 	0.88910 0.17680 0.17680 -0.15500
C 	C 	0.93200 0.70380 0.70380 0.38900
C 	C 	0.88910 0.67680 0.67680 -0.15200
C 	C 	0.43200 0.20380 0.70380 0.39300
C 	C 	0.38910 0.17680 0.67680 -0.16000
C 	C 	0.43200 0.70380 0.20380 0.39300
C 	C 	0.38910 0.67680 0.17680 -0.16000
C 	C 	0.20380 0.20380 0.93200 0.38900
C 	C 	0.17680 0.17680 0.88910 -0.15500
C 	C 	0.20380 0.70380 0.43200 0.39300
C 	C 	0.17680 0.67680 0.38910 -0.16000
C 	C 	0.70380 0.20380 0.43200 0.39300
C 	C 	0.67680 0.17680 0.38910 -0.16000
C 	C 	0.70380 0.70380 0.93200 0.38900
C 	C 	0.67680 0.67680 0.88910 -0.15200
C 	C 	0.79620 0.20380 0.06800 0.39300
C 	C 	0.82320 0.17680 0.11090 -0.16300
C 	C 	0.79620 0.70380 0.56800 0.39500
C 	C 	0.82320 0.67680 0.61090 -0.15700
C 	C 	0.29620 0.20380 0.56800 0.39400
C 	C 	0.32320 0.17680 0.61090 -0.16000
C 	C 	0.29620 0.70380 0.06800 0.39300
C 	C 	0.32320 0.67680 0.11090 -0.16300
C 	C 	0.79620 0.79620 0.93200 0.39100
C 	C 	0.82320 0.82320 0.88910 -0.14900
C 	C 	0.79620 0.29620 0.43200 0.39500
C 	C 	0.82320 0.32320 0.38910 -0.15700
C 	C 	0.29620 0.79620 0.43200 0.39500
C 	C 	0.32320 0.82320 0.38910 -0.15700
C 	C 	0.29620 0.29620 0.93200 0.39100
C 	C 	0.32320 0.32320 0.88910 -0.15300
C 	C 	0.20380 0.79620 0.06800 0.39300
C 	C 	0.17680 0.82320 0.11090 -0.16300
C 	C 	0.20380 0.29620 0.56800 0.39400
C 	C 	0.17680 0.32320 0.61090 -0.16000
C 	C 	0.70380 0.79620 0.56800 0.39500
C 	C 	0.67680 0.82320 0.61090 -0.15700
C 	C 	0.70380 0.29620 0.06800 0.39300
C 	C 	0.67680 0.32320 0.11090 -0.16300
C 	C 	0.20380 0.06800 0.79620 0.39300
C 	C 	0.17680 0.11090 0.82320 -0.16300
C 	C 	0.20380 0.56800 0.29620 0.39400
C 	C 	0.17680 0.61090 0.32320 -0.16000
C 	C 	0.70380 0.06800 0.29620 0.39300
C 	C 	0.67680 0.11090 0.32320 -0.16300
C 	C 	0.70380 0.56800 0.79620 0.39500
C 	C 	0.67680 0.61090 0.82320 -0.15700
C 	C 	0.20380 0.93200 0.20380 0.38900
C 	C 	0.17680 0.88910 0.17680 -0.15500
C 	C 	0.20380 0.43200 0.70380 0.39300
C 	C 	0.17680 0.38910 0.67680 -0.16000
C 	C 	0.70380 0.93200 0.70380 0.38900
C 	C 	0.67680 0.88910 0.67680 -0.15200
C 	C 	0.70380 0.43200 0.20380 0.39300
C 	C 	0.67680 0.38910 0.17680 -0.16000
C 	C 	0.79620 0.06800 0.20380 0.39300
C 	C 	0.82320 0.11090 0.17680 -0.16300
C 	C 	0.79620 0.56800 0.70380 0.39500
C 	C 	0.82320 0.61090 0.67680 -0.15700
C 	C 	0.29620 0.06800 0.70380 0.39300
C 	C 	0.32320 0.11090 0.67680 -0.16300
C 	C 	0.29620 0.56800 0.20380 0.39400
C 	C 	0.32320 0.61090 0.17680 -0.16000
C 	C 	0.79620 0.93200 0.79620 0.39100
C 	C 	0.82320 0.88910 0.82320 -0.14900
C 	C 	0.79620 0.43200 0.29620 0.39500
C 	C 	0.82320 0.38910 0.32320 -0.15700
C 	C 	0.29620 0.93200 0.29620 0.39100
C 	C 	0.32320 0.88910 0.32320 -0.15300
C 	C 	0.29620 0.43200 0.79620 0.39500
C 	C 	0.32320 0.38910 0.82320 -0.15700
