data_crystal

_cell_length_a 6.07800
_cell_length_b 9.95000
_cell_length_c 13.33700
_cell_angle_alpha 68.82300
_cell_angle_beta  81.14200
_cell_angle_gamma 76.81300

_symmetry_space_group_name_	'P 1'
_symmetry_space_group_name_H-M	'P 1'

loop_
_symmetry_equiv_pos_as_xyz
  x,y,z

loop_
_atom_site_label
_atom_site_type_symbol
_atom_site_fract_x
_atom_site_fract_y
_atom_site_fract_z
_atom_site_charge
Tb	Tb	0.83363 0.61393 0.19546 1.68300
Tb	Tb	0.16637 0.38607 0.80454 1.68300
H 	H 	0.32510 0.04630 0.02790 0.01400
H 	H 	0.70870 0.32510 0.62940 0.00800
H 	H 	0.67490 0.95370 0.97210 0.01400
H 	H 	0.29130 0.67490 0.37060 0.00800
C 	C 	0.28900 0.76490 0.14080 0.40400
C 	C 	0.13480 0.89280 0.06970 -0.09500
C 	C 	0.18900 0.02960 0.01500 0.08700
C 	C 	0.95000 0.38400 0.43950 0.33600
C 	C 	0.71300 0.44260 0.47350 -0.06500
C 	C 	0.62100 0.39680 0.57700 0.07100
C 	C 	0.08900 0.44050 0.03330 0.24900
C 	C 	0.71100 0.23510 0.85920 0.40400
C 	C 	0.86520 0.10720 0.93030 -0.09500
C 	C 	0.81100 0.97040 0.98500 0.08700
C 	C 	0.05000 0.61600 0.56050 0.33600
C 	C 	0.28700 0.55740 0.52650 -0.06500
C 	C 	0.37900 0.60320 0.42300 0.07100
C 	C 	0.91100 0.55950 0.96670 0.24900
N 	N 	0.93780 0.86240 0.05410 -0.17900
N 	N 	0.59540 0.54810 0.39320 -0.17800
N 	N 	0.06220 0.13760 0.94590 -0.17900
N 	N 	0.40460 0.45190 0.60680 -0.17800
O 	O 	0.21520 0.64750 0.18350 -0.45200
O 	O 	0.47970 0.78210 0.15270 -0.45700
O 	O 	0.01560 0.43210 0.34100 -0.41500
O 	O 	0.07020 0.28820 0.51050 -0.25900
O 	O 	0.08280 0.43020 0.13010 -0.36700
O 	O 	0.22370 0.36200 0.98730 -0.38500
O 	O 	0.78480 0.35250 0.81650 -0.45200
O 	O 	0.52030 0.21790 0.84730 -0.45700
O 	O 	0.98440 0.56790 0.65900 -0.41500
O 	O 	0.92980 0.71180 0.48950 -0.25900
O 	O 	0.91720 0.56980 0.86990 -0.36700
O 	O 	0.77630 0.63800 0.01270 -0.38500
