data_crystal

_cell_length_a 10.40730
_cell_length_b 17.81740
_cell_length_c 7.52780
_cell_angle_alpha 90.00000
_cell_angle_beta  108.47400
_cell_angle_gamma 90.00000

_symmetry_space_group_name_	'P 1'
_symmetry_space_group_name_H-M	'P 1'

loop_
_symmetry_equiv_pos_as_xyz
  x,y,z

loop_
_atom_site_label
_atom_site_type_symbol
_atom_site_fract_x
_atom_site_fract_y
_atom_site_fract_z
_atom_site_charge
Zn	Zn	0.15965 0.72269 0.15033 1.23200
O 	O 	0.19000 0.63450 0.01010 -0.40900
O 	O 	0.19820 0.70000 0.76190 -0.53600
O 	O 	0.33970 0.65320 0.47030 -0.39400
O 	O 	0.11760 0.66970 0.35330 -0.49200
C 	C 	0.18200 0.56790 0.73710 -0.05900
C 	C 	0.19870 0.56780 0.56010 -0.06300
C 	C 	0.18920 0.63910 0.84380 0.27600
C 	C 	0.22330 0.63670 0.45970 0.34900
Zn	Zn	0.65965 0.22269 0.15033 1.23300
O 	O 	0.69000 0.13450 0.01010 -0.40600
O 	O 	0.69820 0.20000 0.76190 -0.53200
O 	O 	0.83970 0.15320 0.47030 -0.38600
O 	O 	0.61760 0.16970 0.35330 -0.48500
C 	C 	0.68200 0.06790 0.73710 -0.05400
C 	C 	0.69870 0.06780 0.56010 -0.05400
C 	C 	0.68920 0.13910 0.84380 0.28000
C 	C 	0.72330 0.13670 0.45970 0.34500
Zn	Zn	0.84035 0.72269 0.84967 1.21700
O 	O 	0.81000 0.63450 0.98990 -0.57000
O 	O 	0.80180 0.70000 0.23810 -0.55100
O 	O 	0.66030 0.65320 0.52970 -0.39100
O 	O 	0.88240 0.66970 0.64670 -0.48600
C 	C 	0.81800 0.56790 0.26290 -0.11000
C 	C 	0.80130 0.56780 0.43990 -0.02500
C 	C 	0.81080 0.63910 0.15620 0.46900
C 	C 	0.77670 0.63670 0.54030 0.33800
Zn	Zn	0.34035 0.22269 0.84967 1.21400
O 	O 	0.31000 0.13450 0.98990 -0.57600
O 	O 	0.30180 0.20000 0.23810 -0.55600
O 	O 	0.16030 0.15320 0.52970 -0.39800
O 	O 	0.38240 0.16970 0.64670 -0.49700
C 	C 	0.31800 0.06790 0.26290 -0.11000
C 	C 	0.30130 0.06780 0.43990 -0.02800
C 	C 	0.31080 0.13910 0.15620 0.46600
C 	C 	0.27670 0.13670 0.54030 0.33900
Zn	Zn	0.84035 0.27731 0.84967 1.21700
O 	O 	0.81000 0.36550 0.98990 -0.57000
O 	O 	0.80180 0.30000 0.23810 -0.55200
O 	O 	0.66030 0.34680 0.52970 -0.39100
O 	O 	0.88240 0.33030 0.64670 -0.48700
C 	C 	0.81800 0.43210 0.26290 -0.11000
C 	C 	0.80130 0.43220 0.43990 -0.02500
C 	C 	0.81080 0.36090 0.15620 0.46900
C 	C 	0.77670 0.36330 0.54030 0.33800
Zn	Zn	0.34035 0.77731 0.84967 1.21400
O 	O 	0.31000 0.86550 0.98990 -0.57200
O 	O 	0.30180 0.80000 0.23810 -0.55600
O 	O 	0.16030 0.84680 0.52970 -0.39500
O 	O 	0.38240 0.83030 0.64670 -0.49500
C 	C 	0.31800 0.93210 0.26290 -0.10000
C 	C 	0.30130 0.93220 0.43990 -0.01900
C 	C 	0.31080 0.86090 0.15620 0.46400
C 	C 	0.27670 0.86330 0.54030 0.33800
Zn	Zn	0.15965 0.27731 0.15033 1.23200
O 	O 	0.19000 0.36550 0.01010 -0.40900
O 	O 	0.19820 0.30000 0.76190 -0.53600
O 	O 	0.33970 0.34680 0.47030 -0.39400
O 	O 	0.11760 0.33030 0.35330 -0.49200
C 	C 	0.18200 0.43210 0.73710 -0.05900
C 	C 	0.19870 0.43220 0.56010 -0.06300
C 	C 	0.18920 0.36090 0.84380 0.27600
C 	C 	0.22330 0.36330 0.45970 0.34900
Zn	Zn	0.65965 0.77731 0.15033 1.23300
O 	O 	0.69000 0.86550 0.01010 -0.40200
O 	O 	0.69820 0.80000 0.76190 -0.53100
O 	O 	0.83970 0.84680 0.47030 -0.38300
O 	O 	0.61760 0.83030 0.35330 -0.48300
C 	C 	0.68200 0.93210 0.73710 -0.04500
C 	C 	0.69870 0.93220 0.56010 -0.04400
C 	C 	0.68920 0.86090 0.84380 0.27800
C 	C 	0.72330 0.86330 0.45970 0.34400
Na	Na	-0.00000 0.75322 0.50000 0.58500
Na	Na	0.50000 0.25322 0.50000 0.58700
Na	Na	-0.00000 0.24678 0.50000 0.58500
Na	Na	0.50000 0.74678 0.50000 0.58700
O 	O 	-0.00000 0.77030 -0.00000 -0.80900
H 	H 	0.00000 0.81760 -0.00000 0.30400
O 	O 	0.50000 0.27030 -0.00000 -0.79900
H 	H 	0.50000 0.31760 -0.00000 0.30600
O 	O 	-0.00000 0.22970 -0.00000 -0.80900
H 	H 	-0.00000 0.18240 -0.00000 0.30200
O 	O 	0.50000 0.72970 -0.00000 -0.79900
H 	H 	0.50000 0.68240 -0.00000 0.30600
C 	C 	0.17070 0.50000 0.82070 -0.01200
C 	C 	0.20440 0.50000 0.47380 0.00700
H 	H 	0.16100 0.50000 0.93900 0.03200
H 	H 	0.21600 0.50000 0.35600 0.05000
C 	C 	0.67070 -0.00000 0.82070 -0.02500
C 	C 	0.70440 0.00000 0.47380 -0.01100
H 	H 	0.66100 0.00000 0.93900 0.03700
H 	H 	0.71600 0.00000 0.35600 0.05600
C 	C 	0.82930 0.50000 0.17930 0.06400
C 	C 	0.79560 0.50000 0.52620 -0.01500
H 	H 	0.83900 0.50000 0.06100 0.06900
H 	H 	0.78400 0.50000 0.64400 0.04700
C 	C 	0.32930 0.00000 0.17930 0.04300
C 	C 	0.29560 0.00000 0.52620 -0.03200
H 	H 	0.33900 0.00000 0.06100 0.06900
H 	H 	0.28400 0.00000 0.64400 0.04600
