data_crystal

_cell_length_a 9.22760
_cell_length_b 9.28610
_cell_length_c 9.37890
_cell_angle_alpha 85.21280
_cell_angle_beta  77.31190
_cell_angle_gamma 89.34720

_symmetry_space_group_name_	'P 1'
_symmetry_space_group_name_H-M	'P 1'

loop_
_symmetry_equiv_pos_as_xyz
  x,y,z

loop_
_atom_site_label
_atom_site_type_symbol
_atom_site_fract_x
_atom_site_fract_y
_atom_site_fract_z
_atom_site_charge
Al	Al	0.86640 0.06530 0.08410 2.40300
P 	P 	0.17000 0.13943 0.13700 0.72800
P 	P 	0.37550 0.12060 0.67611 0.81800
P 	P 	0.62090 0.31593 0.09528 0.75400
Al	Al	0.62320 0.65829 0.08560 2.39900
Al	Al	0.39560 0.11930 0.33950 2.39700
O 	O 	0.77280 0.23360 0.06680 -0.63800
O 	O 	0.52710 0.05100 0.66900 -0.81100
O 	O 	0.25400 0.01260 0.74600 -0.67800
O 	O 	0.99990 0.14470 0.18550 -0.56000
O 	O 	0.54020 0.31230 0.96190 -0.80800
O 	O 	0.23290 0.02360 0.03670 -0.68000
O 	O 	0.36110 0.16780 0.51720 -0.74300
O 	O 	0.64930 0.47510 0.12420 -0.72300
O 	O 	0.22780 0.11940 0.28030 -0.70300
O 	O 	0.23150 0.28630 0.05970 -0.74000
O 	O 	0.36820 0.25520 0.75660 -0.73100
O 	O 	0.51170 0.25460 0.23330 -0.78000
F 	F 	0.01540 0.10500 0.91940 -0.90400
Al	Al	0.13360 0.93470 0.91590 2.40300
P 	P 	0.83000 0.86057 0.86300 0.72800
P 	P 	0.62450 0.87940 0.32389 0.81800
P 	P 	0.37910 0.68407 0.90472 0.75400
Al	Al	0.37680 0.34171 0.91440 2.39900
Al	Al	0.60440 0.88070 0.66050 2.39700
O 	O 	0.22720 0.76640 0.93320 -0.63800
O 	O 	0.47290 0.94900 0.33100 -0.81100
O 	O 	0.74600 0.98740 0.25400 -0.67800
O 	O 	0.00010 0.85530 0.81450 -0.56000
O 	O 	0.45980 0.68770 0.03810 -0.80800
O 	O 	0.76710 0.97640 0.96330 -0.68000
O 	O 	0.63890 0.83220 0.48280 -0.74300
O 	O 	0.35070 0.52490 0.87580 -0.72300
O 	O 	0.77220 0.88060 0.71970 -0.70300
O 	O 	0.76850 0.71370 0.94030 -0.74000
O 	O 	0.63180 0.74480 0.24340 -0.73100
O 	O 	0.48830 0.74540 0.76670 -0.78000
F 	F 	0.98460 0.89500 0.08060 -0.90400
