data_crystal

_cell_length_a 12.42900
_cell_length_b 12.71200
_cell_length_c 15.82100
_cell_angle_alpha 98.15900
_cell_angle_beta  92.87300
_cell_angle_gamma 93.26700

_symmetry_space_group_name_	'P 1'
_symmetry_space_group_name_H-M	'P 1'

loop_
_symmetry_equiv_pos_as_xyz
  x,y,z

loop_
_atom_site_label
_atom_site_type_symbol
_atom_site_fract_x
_atom_site_fract_y
_atom_site_fract_z
_atom_site_charge
Cu	Cu	0.92623 0.07248 0.50629 0.90100
Cu	Cu	0.84902 0.35586 0.07176 0.94100
Cu	Cu	0.06662 0.50910 0.07950 0.92900
Cu	Cu	0.46409 0.41177 0.06711 0.91200
O 	O 	0.01650 0.12380 0.42080 -0.40000
O 	O 	0.14770 0.00740 0.41180 -0.38300
O 	O 	0.96020 0.31440 0.15820 -0.39900
O 	O 	0.11460 0.40150 0.14400 -0.40700
O 	O 	0.74260 0.28730 0.13600 -0.34400
O 	O 	0.61170 0.39100 0.10710 -0.37000
O 	O 	0.43710 0.35790 0.30890 -0.20100
O 	O 	0.42250 0.41820 0.18320 -0.35100
O 	O 	0.80560 0.52370 0.09460 -0.37000
O 	O 	0.95680 0.58070 0.17360 -0.34500
O 	O 	0.96670 0.86700 0.40180 -0.40000
O 	O 	0.83720 0.98600 0.41280 -0.39100
O 	O 	0.19510 0.59960 0.13250 -0.38400
O 	O 	0.25170 0.69560 0.03210 -0.37000
O 	O 	0.48790 0.59510 0.05080 -0.43800
O 	O 	0.52750 0.76580 0.04230 -0.30800
O 	O 	0.96470 0.40080 0.00680 -0.63200
H 	H 	0.00330 0.33950 0.98260 0.17000
C 	C 	0.09880 0.08550 0.38780 0.34300
C 	C 	0.14310 0.13270 0.31700 -0.08500
C 	C 	0.24540 0.11220 0.28910 -0.00400
H 	H 	0.28480 0.06220 0.31260 0.05300
C 	C 	0.29070 0.16640 0.22530 -0.01500
C 	C 	0.22770 0.23380 0.18760 0.00300
H 	H 	0.25570 0.26890 0.14500 0.03700
C 	C 	0.12130 0.25170 0.21160 -0.09000
C 	C 	0.08080 0.20560 0.27910 0.03400
H 	H 	0.01390 0.22240 0.29910 0.05400
C 	C 	0.05760 0.32850 0.16660 0.39200
C 	C 	0.39730 0.14500 0.19180 0.05800
C 	C 	0.46920 0.23240 0.18440 -0.08400
C 	C 	0.56720 0.21710 0.14580 -0.05700
C 	C 	0.59030 0.11250 0.11330 -0.01600
H 	H 	0.65250 0.09920 0.08420 0.05500
C 	C 	0.51770 0.02910 0.12590 -0.02100
H 	H 	0.53460 0.95940 0.10770 0.06200
C 	C 	0.42160 0.04610 0.16430 -0.08300
H 	H 	0.37440 0.98880 0.17080 0.06900
C 	C 	0.44270 0.34220 0.22880 0.28400
C 	C 	0.64170 0.30280 0.12600 0.32000
C 	C 	0.85750 0.58430 0.15360 0.31400
C 	C 	0.80170 0.67480 0.20250 -0.06300
C 	C 	0.68880 0.67950 0.19480 -0.02600
H 	H 	0.64730 0.62640 0.15900 0.06000
C 	C 	0.63870 0.76290 0.24030 0.00200
C 	C 	0.70000 0.83760 0.29610 -0.02500
H 	H 	0.66670 0.89460 0.32510 0.05800
C 	C 	0.81220 0.83100 0.31090 -0.06400
C 	C 	0.86010 0.74910 0.26240 0.00900
H 	H 	0.93410 0.74380 0.27030 0.06100
C 	C 	0.87690 0.90330 0.38060 0.34400
C 	C 	0.51770 0.76810 0.23860 0.05700
C 	C 	0.44720 0.72710 0.16680 -0.08100
C 	C 	0.33350 0.72500 0.17770 -0.01600
C 	C 	0.29220 0.77120 0.24960 -0.05000
H 	H 	0.21790 0.77410 0.25280 0.06200
C 	C 	0.36000 0.81370 0.31770 0.00600
H 	H 	0.33160 0.84260 0.36850 0.03600
C 	C 	0.47100 0.81410 0.31210 -0.08800
H 	H 	0.51570 0.84600 0.35880 0.07200
C 	C 	0.25240 0.66710 0.10770 0.33400
C 	C 	0.49080 0.69520 0.08100 0.32900
Cu	Cu	0.07377 0.92752 0.49371 0.90100
Cu	Cu	0.15098 0.64414 0.92824 0.94100
Cu	Cu	0.93338 0.49090 0.92050 0.92900
Cu	Cu	0.53591 0.58823 0.93289 0.91200
O 	O 	0.98350 0.87620 0.57920 -0.40000
O 	O 	0.85230 0.99260 0.58820 -0.38300
O 	O 	0.03980 0.68560 0.84180 -0.39900
O 	O 	0.88540 0.59850 0.85600 -0.40700
O 	O 	0.25740 0.71270 0.86400 -0.34400
O 	O 	0.38830 0.60900 0.89290 -0.37000
O 	O 	0.56290 0.64210 0.69110 -0.20100
O 	O 	0.57750 0.58180 0.81680 -0.35100
O 	O 	0.19440 0.47630 0.90540 -0.37000
O 	O 	0.04320 0.41930 0.82640 -0.34500
O 	O 	0.03330 0.13300 0.59820 -0.40000
O 	O 	0.16280 0.01400 0.58720 -0.39100
O 	O 	0.80490 0.40040 0.86750 -0.38400
O 	O 	0.74830 0.30440 0.96790 -0.37000
O 	O 	0.51210 0.40490 0.94920 -0.43800
O 	O 	0.47250 0.23420 0.95770 -0.30800
O 	O 	0.03530 0.59920 0.99320 -0.63200
H 	H 	0.99670 0.66050 0.01740 0.17000
C 	C 	0.90120 0.91450 0.61220 0.34300
C 	C 	0.85690 0.86730 0.68300 -0.08500
C 	C 	0.75460 0.88780 0.71090 -0.00400
H 	H 	0.71520 0.93780 0.68740 0.05300
C 	C 	0.70930 0.83360 0.77470 -0.01500
C 	C 	0.77230 0.76620 0.81240 0.00300
H 	H 	0.74430 0.73110 0.85500 0.03700
C 	C 	0.87870 0.74830 0.78840 -0.09000
C 	C 	0.91920 0.79440 0.72090 0.03400
H 	H 	0.98610 0.77760 0.70090 0.05400
C 	C 	0.94240 0.67150 0.83340 0.39200
C 	C 	0.60270 0.85500 0.80820 0.05800
C 	C 	0.53080 0.76760 0.81560 -0.08400
C 	C 	0.43280 0.78290 0.85420 -0.05700
C 	C 	0.40970 0.88750 0.88670 -0.01600
H 	H 	0.34750 0.90080 0.91580 0.05500
C 	C 	0.48230 0.97090 0.87410 -0.02100
H 	H 	0.46540 0.04060 0.89230 0.06200
C 	C 	0.57840 0.95390 0.83570 -0.08300
H 	H 	0.62560 0.01120 0.82920 0.06900
C 	C 	0.55730 0.65780 0.77120 0.28400
C 	C 	0.35830 0.69720 0.87400 0.32000
C 	C 	0.14250 0.41570 0.84640 0.31400
C 	C 	0.19830 0.32520 0.79750 -0.06300
C 	C 	0.31120 0.32050 0.80520 -0.02600
H 	H 	0.35270 0.37360 0.84100 0.06000
C 	C 	0.36130 0.23710 0.75970 0.00200
C 	C 	0.30000 0.16240 0.70390 -0.02500
H 	H 	0.33330 0.10540 0.67490 0.05800
C 	C 	0.18780 0.16900 0.68910 -0.06400
C 	C 	0.13990 0.25090 0.73760 0.00900
H 	H 	0.06590 0.25620 0.72970 0.06100
C 	C 	0.12310 0.09670 0.61940 0.34400
C 	C 	0.48230 0.23190 0.76140 0.05700
C 	C 	0.55280 0.27290 0.83320 -0.08100
C 	C 	0.66650 0.27500 0.82230 -0.01600
C 	C 	0.70780 0.22880 0.75040 -0.05000
H 	H 	0.78210 0.22590 0.74720 0.06200
C 	C 	0.64000 0.18630 0.68230 0.00600
H 	H 	0.66840 0.15740 0.63150 0.03600
C 	C 	0.52900 0.18590 0.68790 -0.08800
H 	H 	0.48430 0.15400 0.64120 0.07200
C 	C 	0.74760 0.33290 0.89230 0.33400
C 	C 	0.50920 0.30480 0.91900 0.32900
