data_crystal

_cell_length_a 27.31400
_cell_length_b 13.12600
_cell_length_c 14.00000
_cell_angle_alpha 90.00000
_cell_angle_beta  96.14300
_cell_angle_gamma 90.00000

_symmetry_space_group_name_	'P 1'
_symmetry_space_group_name_H-M	'P 1'

loop_
_symmetry_equiv_pos_as_xyz
  x,y,z

loop_
_atom_site_label
_atom_site_type_symbol
_atom_site_fract_x
_atom_site_fract_y
_atom_site_fract_z
_atom_site_charge
Cu	Cu	0.21095 0.69040 0.49679 0.90700
O 	O 	0.18906 0.79560 0.58390 -0.38300
O 	O 	0.25507 0.89860 0.59020 -0.38200
O 	O 	0.25147 0.12320 0.89300 -0.39800
O 	O 	0.18609 0.22540 0.88680 -0.38600
O 	O 	0.09480 0.24410 0.56360 -0.22700
O 	O 	0.05720 0.31200 0.67820 -0.35300
O 	O 	0.96050 0.32300 0.63250 -0.32900
O 	O 	0.92870 0.25510 0.48990 -0.20700
C 	C 	0.21190 0.87810 0.60540 0.34600
C 	C 	0.18600 0.95540 0.65930 -0.07200
C 	C 	0.21080 0.01700 0.72860 0.03000
H 	H 	0.24450 0.00950 0.74440 0.06000
C 	C 	0.18430 0.09220 0.77570 -0.08100
C 	C 	0.13410 0.10410 0.74700 0.00900
H 	H 	0.11700 0.15530 0.77530 0.05400
C 	C 	0.10840 0.04190 0.67720 -0.03600
C 	C 	0.13450 0.96650 0.63710 -0.00200
H 	H 	0.11770 0.92130 0.59410 0.05700
C 	C 	0.21020 0.14970 0.85690 0.35700
C 	C 	0.05470 0.05350 0.64810 0.12900
C 	C 	0.02560 0.96610 0.64120 -0.20900
H 	H 	0.04010 0.90260 0.65320 0.11800
C 	C 	0.97490 0.97260 0.61650 0.13100
H 	H 	0.95560 0.91460 0.61880 0.00900
C 	C 	0.95420 0.06030 0.58990 -0.14100
H 	H 	0.92120 0.06190 0.56500 0.09400
C 	C 	0.98130 0.15100 0.59900 0.03800
C 	C 	0.03220 0.14550 0.62590 -0.18300
C 	C 	0.06260 0.23790 0.61840 0.33200
C 	C 	0.95400 0.24600 0.56900 0.24900
Cu	Cu	0.71095 0.19040 0.49679 0.90800
O 	O 	0.68906 0.29560 0.58390 -0.38100
O 	O 	0.75507 0.39860 0.59020 -0.37900
O 	O 	0.75147 0.62320 0.89300 -0.39600
O 	O 	0.68609 0.72540 0.88680 -0.38400
O 	O 	0.59480 0.74410 0.56360 -0.21700
O 	O 	0.55720 0.81200 0.67820 -0.34200
O 	O 	0.46050 0.82300 0.63250 -0.34600
O 	O 	0.42870 0.75510 0.48990 -0.21800
C 	C 	0.71190 0.37810 0.60540 0.34200
C 	C 	0.68600 0.45540 0.65930 -0.06300
C 	C 	0.71080 0.51700 0.72860 0.02200
H 	H 	0.74450 0.50950 0.74440 0.06400
C 	C 	0.68430 0.59220 0.77570 -0.07100
C 	C 	0.63410 0.60410 0.74700 -0.00800
H 	H 	0.61700 0.65530 0.77530 0.06000
C 	C 	0.60840 0.54190 0.67720 -0.00700
C 	C 	0.63450 0.46650 0.63710 -0.01900
H 	H 	0.61770 0.42130 0.59410 0.06300
C 	C 	0.71020 0.64970 0.85690 0.35400
C 	C 	0.55470 0.55350 0.64810 0.06900
C 	C 	0.52560 0.46610 0.64120 -0.10300
H 	H 	0.54010 0.40260 0.65320 0.08600
C 	C 	0.47490 0.47260 0.61650 0.00900
H 	H 	0.45560 0.41460 0.61880 0.04600
C 	C 	0.45420 0.56030 0.58990 -0.05200
H 	H 	0.42120 0.56190 0.56500 0.06300
C 	C 	0.48130 0.65100 0.59900 -0.04000
C 	C 	0.53220 0.64550 0.62590 -0.11500
C 	C 	0.56260 0.73790 0.61840 0.31300
C 	C 	0.45400 0.74600 0.56900 0.27200
Cu	Cu	0.78905 0.69040 0.00321 0.90900
O 	O 	0.81094 0.79560 0.91610 -0.38000
O 	O 	0.74493 0.89860 0.90980 -0.37900
O 	O 	0.74853 0.12320 0.60700 -0.39500
O 	O 	0.81391 0.22540 0.61320 -0.38300
O 	O 	0.90520 0.24410 0.93640 -0.20700
O 	O 	0.94280 0.31200 0.82180 -0.32600
O 	O 	0.03950 0.32300 0.86750 -0.35700
O 	O 	0.07130 0.25510 0.01010 -0.22700
C 	C 	0.78810 0.87810 0.89460 0.33900
C 	C 	0.81400 0.95540 0.84070 -0.05400
C 	C 	0.78920 0.01700 0.77140 0.01400
H 	H 	0.75550 0.00950 0.75560 0.06600
C 	C 	0.81570 0.09220 0.72430 -0.06300
C 	C 	0.86590 0.10410 0.75300 -0.02500
H 	H 	0.88300 0.15530 0.72470 0.06600
C 	C 	0.89160 0.04190 0.82280 0.02100
C 	C 	0.86550 0.96650 0.86290 -0.03600
H 	H 	0.88230 0.92130 0.90590 0.06900
C 	C 	0.78980 0.14970 0.64310 0.35000
C 	C 	0.94530 0.05350 0.85190 0.01000
C 	C 	0.97440 0.96610 0.85880 0.00400
H 	H 	0.95990 0.90260 0.84680 0.05400
C 	C 	0.02510 0.97260 0.88350 -0.11300
H 	H 	0.04440 0.91460 0.88120 0.08400
C 	C 	0.04580 0.06030 0.91010 0.03700
H 	H 	0.07880 0.06190 0.93500 0.03100
C 	C 	0.01870 0.15100 0.90100 -0.11600
C 	C 	0.96780 0.14550 0.87410 -0.04500
C 	C 	0.93740 0.23790 0.88160 0.29300
C 	C 	0.04600 0.24600 0.93100 0.29200
Cu	Cu	0.28905 0.19040 0.00321 0.90900
O 	O 	0.31094 0.29560 0.91610 -0.38100
O 	O 	0.24493 0.39860 0.90980 -0.38000
O 	O 	0.24853 0.62320 0.60700 -0.39700
O 	O 	0.31391 0.72540 0.61320 -0.38400
O 	O 	0.40520 0.74410 0.93640 -0.21700
O 	O 	0.44280 0.81200 0.82180 -0.34200
O 	O 	0.53950 0.82300 0.86750 -0.34600
O 	O 	0.57130 0.75510 0.01010 -0.21700
C 	C 	0.28810 0.37810 0.89460 0.34300
C 	C 	0.31400 0.45540 0.84070 -0.06300
C 	C 	0.28920 0.51700 0.77140 0.02200
H 	H 	0.25550 0.50950 0.75560 0.06300
C 	C 	0.31570 0.59220 0.72430 -0.07200
C 	C 	0.36590 0.60410 0.75300 -0.00800
H 	H 	0.38300 0.65530 0.72470 0.06000
C 	C 	0.39160 0.54190 0.82280 -0.00800
C 	C 	0.36550 0.46650 0.86290 -0.01800
H 	H 	0.38230 0.42130 0.90590 0.06300
C 	C 	0.28980 0.64970 0.64310 0.35400
C 	C 	0.44530 0.55350 0.85190 0.07000
C 	C 	0.47440 0.46610 0.85880 -0.10300
H 	H 	0.45990 0.40260 0.84680 0.08600
C 	C 	0.52510 0.47260 0.88350 0.01000
H 	H 	0.54440 0.41460 0.88120 0.04600
C 	C 	0.54580 0.56030 0.91010 -0.05200
H 	H 	0.57880 0.56190 0.93500 0.06300
C 	C 	0.51870 0.65100 0.90100 -0.03900
C 	C 	0.46780 0.64550 0.87410 -0.11500
C 	C 	0.43740 0.73790 0.88160 0.31300
C 	C 	0.54600 0.74600 0.93100 0.27100
Cu	Cu	0.78905 0.30960 0.50321 0.90900
O 	O 	0.81094 0.20440 0.41610 -0.38000
O 	O 	0.74493 0.10140 0.40980 -0.37900
O 	O 	0.74853 0.87680 0.10700 -0.39500
O 	O 	0.81391 0.77460 0.11320 -0.38300
O 	O 	0.90520 0.75590 0.43640 -0.20700
O 	O 	0.94280 0.68800 0.32180 -0.32700
O 	O 	0.03950 0.67700 0.36750 -0.35700
O 	O 	0.07130 0.74490 0.51010 -0.22900
C 	C 	0.78810 0.12190 0.39460 0.33900
C 	C 	0.81400 0.04460 0.34070 -0.05400
C 	C 	0.78920 0.98300 0.27140 0.01400
H 	H 	0.75550 0.99050 0.25560 0.06600
C 	C 	0.81570 0.90780 0.22430 -0.06300
C 	C 	0.86590 0.89590 0.25300 -0.02500
H 	H 	0.88300 0.84470 0.22470 0.06600
C 	C 	0.89160 0.95810 0.32280 0.02100
C 	C 	0.86550 0.03350 0.36290 -0.03500
H 	H 	0.88230 0.07870 0.40590 0.06900
C 	C 	0.78980 0.85030 0.14310 0.35000
C 	C 	0.94530 0.94650 0.35190 0.01000
C 	C 	0.97440 0.03390 0.35880 0.00300
H 	H 	0.95990 0.09740 0.34680 0.05400
C 	C 	0.02510 0.02740 0.38350 -0.11100
H 	H 	0.04440 0.08540 0.38120 0.08300
C 	C 	0.04580 0.93970 0.41010 0.03600
H 	H 	0.07880 0.93810 0.43500 0.03200
C 	C 	0.01870 0.84900 0.40100 -0.11500
C 	C 	0.96780 0.85450 0.37410 -0.04600
C 	C 	0.93740 0.76210 0.38160 0.29300
C 	C 	0.04600 0.75400 0.43100 0.29300
Cu	Cu	0.28905 0.80960 0.50321 0.90900
O 	O 	0.31094 0.70440 0.41610 -0.38100
O 	O 	0.24493 0.60140 0.40980 -0.38000
O 	O 	0.24853 0.37680 0.10700 -0.39600
O 	O 	0.31391 0.27460 0.11320 -0.38400
O 	O 	0.40520 0.25590 0.43640 -0.21700
O 	O 	0.44280 0.18800 0.32180 -0.34100
O 	O 	0.53950 0.17700 0.36750 -0.34600
O 	O 	0.57130 0.24490 0.51010 -0.21800
C 	C 	0.28810 0.62190 0.39460 0.34300
C 	C 	0.31400 0.54460 0.34070 -0.06300
C 	C 	0.28920 0.48300 0.27140 0.02200
H 	H 	0.25550 0.49050 0.25560 0.06300
C 	C 	0.31570 0.40780 0.22430 -0.07200
C 	C 	0.36590 0.39590 0.25300 -0.00800
H 	H 	0.38300 0.34470 0.22470 0.06000
C 	C 	0.39160 0.45810 0.32280 -0.00800
C 	C 	0.36550 0.53350 0.36290 -0.01800
H 	H 	0.38230 0.57870 0.40590 0.06300
C 	C 	0.28980 0.35030 0.14310 0.35400
C 	C 	0.44530 0.44650 0.35190 0.07000
C 	C 	0.47440 0.53390 0.35880 -0.10300
H 	H 	0.45990 0.59740 0.34680 0.08600
C 	C 	0.52510 0.52740 0.38350 0.00900
H 	H 	0.54440 0.58540 0.38120 0.04600
C 	C 	0.54580 0.43970 0.41010 -0.05200
H 	H 	0.57880 0.43810 0.43500 0.06300
C 	C 	0.51870 0.34900 0.40100 -0.04000
C 	C 	0.46780 0.35450 0.37410 -0.11500
C 	C 	0.43740 0.26210 0.38160 0.31300
C 	C 	0.54600 0.25400 0.43100 0.27200
Cu	Cu	0.21095 0.30960 0.99679 0.90800
O 	O 	0.18906 0.20440 0.08390 -0.38200
O 	O 	0.25507 0.10140 0.09020 -0.38000
O 	O 	0.25147 0.87680 0.39300 -0.39700
O 	O 	0.18609 0.77460 0.38680 -0.38500
O 	O 	0.09480 0.75590 0.06360 -0.22500
O 	O 	0.05720 0.68800 0.17820 -0.35100
O 	O 	0.96050 0.67700 0.13250 -0.32900
O 	O 	0.92870 0.74490 0.98990 -0.20800
C 	C 	0.21190 0.12190 0.10540 0.34600
C 	C 	0.18600 0.04460 0.15930 -0.07100
C 	C 	0.21080 0.98300 0.22860 0.03000
H 	H 	0.24450 0.99050 0.24440 0.06100
C 	C 	0.18430 0.90780 0.27570 -0.08000
C 	C 	0.13410 0.89590 0.24700 0.00800
H 	H 	0.11700 0.84470 0.27530 0.05400
C 	C 	0.10840 0.95810 0.17720 -0.03400
C 	C 	0.13450 0.03350 0.13710 -0.00200
H 	H 	0.11770 0.07870 0.09410 0.05800
C 	C 	0.21020 0.85030 0.35690 0.35700
C 	C 	0.05470 0.94650 0.14810 0.12700
C 	C 	0.02560 0.03390 0.14120 -0.20500
H 	H 	0.04010 0.09740 0.15320 0.11700
C 	C 	0.97490 0.02740 0.11650 0.12700
H 	H 	0.95560 0.08540 0.11880 0.01000
C 	C 	0.95420 0.93970 0.08990 -0.13800
H 	H 	0.92120 0.93810 0.06500 0.09300
C 	C 	0.98130 0.84900 0.09900 0.03500
C 	C 	0.03220 0.85450 0.12590 -0.18100
C 	C 	0.06260 0.76210 0.11840 0.33100
C 	C 	0.95400 0.75400 0.06900 0.25100
Cu	Cu	0.71095 0.80960 0.99679 0.90800
O 	O 	0.68906 0.70440 0.08390 -0.38100
O 	O 	0.75507 0.60140 0.09020 -0.37900
O 	O 	0.75147 0.37680 0.39300 -0.39600
O 	O 	0.68609 0.27460 0.38680 -0.38400
O 	O 	0.59480 0.25590 0.06360 -0.21700
O 	O 	0.55720 0.18800 0.17820 -0.34100
O 	O 	0.46050 0.17700 0.13250 -0.34600
O 	O 	0.42870 0.24490 0.98990 -0.21900
C 	C 	0.71190 0.62190 0.10540 0.34200
C 	C 	0.68600 0.54460 0.15930 -0.06200
C 	C 	0.71080 0.48300 0.22860 0.02100
H 	H 	0.74450 0.49050 0.24440 0.06400
C 	C 	0.68430 0.40780 0.27570 -0.07100
C 	C 	0.63410 0.39590 0.24700 -0.00800
H 	H 	0.61700 0.34470 0.27530 0.06000
C 	C 	0.60840 0.45810 0.17720 -0.00700
C 	C 	0.63450 0.53350 0.13710 -0.01900
H 	H 	0.61770 0.57870 0.09410 0.06400
C 	C 	0.71020 0.35030 0.35690 0.35400
C 	C 	0.55470 0.44650 0.14810 0.06900
C 	C 	0.52560 0.53390 0.14120 -0.10200
H 	H 	0.54010 0.59740 0.15320 0.08600
C 	C 	0.47490 0.52740 0.11650 0.00900
H 	H 	0.45560 0.58540 0.11880 0.04600
C 	C 	0.45420 0.43970 0.08990 -0.05200
H 	H 	0.42120 0.43810 0.06500 0.06300
C 	C 	0.48130 0.34900 0.09900 -0.04000
C 	C 	0.53220 0.35450 0.12590 -0.11400
C 	C 	0.56260 0.26210 0.11840 0.31300
C 	C 	0.45400 0.25400 0.06900 0.27300
Cu	Cu	0.00000 0.32316 0.75000 0.92700
Cu	Cu	0.50000 0.82316 0.75000 0.93900
Cu	Cu	0.00000 0.67684 0.25000 0.92800
Cu	Cu	0.50000 0.17684 0.25000 0.93900
