data_crystal

_cell_length_a 16.80480
_cell_length_b 16.80480
_cell_length_c 16.80480
_cell_angle_alpha 90.00000
_cell_angle_beta  90.00000
_cell_angle_gamma 90.00000

_symmetry_space_group_name_	'P 1'
_symmetry_space_group_name_H-M	'P 1'

loop_
_symmetry_equiv_pos_as_xyz
  x,y,z

loop_
_atom_site_label
_atom_site_type_symbol
_atom_site_fract_x
_atom_site_fract_y
_atom_site_fract_z
_atom_site_charge
N 	N 	0.39940 0.32850 0.56330 -0.29100
N 	N 	0.18610 0.92100 0.65200 -0.28300
C 	C 	0.42770 0.39360 0.51310 0.26700
C 	C 	0.36150 0.44570 0.48000 -0.47500
C 	C 	0.23520 0.85580 0.67970 0.20300
C 	C 	0.26930 0.80270 0.61240 -0.34700
H 	H 	0.96890 0.36800 0.70590 0.07600
H 	H 	0.89500 0.36610 0.65060 0.07400
H 	H 	0.95340 0.46140 0.57210 -0.08200
H 	H 	0.08560 0.44940 0.67130 0.18100
H 	H 	0.03110 0.52370 0.66680 0.15200
H 	H 	0.10020 0.88150 0.14670 0.07600
H 	H 	0.04450 0.87950 0.22030 0.06600
H 	H 	0.21340 0.70430 0.32390 -0.05400
H 	H 	0.19710 0.83500 0.42290 0.10700
H 	H 	0.27260 0.78200 0.41960 0.10100
N 	N 	0.89940 0.82850 0.06330 -0.27400
N 	N 	0.68610 0.42100 0.15200 -0.28400
C 	C 	0.92770 0.89360 0.01310 0.16000
C 	C 	0.86150 0.94570 0.98000 -0.32200
C 	C 	0.73520 0.35580 0.17970 0.19800
C 	C 	0.76930 0.30270 0.11240 -0.34100
H 	H 	0.46890 0.86800 0.20590 0.07000
H 	H 	0.39500 0.86610 0.15060 0.07100
H 	H 	0.45340 0.96140 0.07210 -0.06000
H 	H 	0.58560 0.94940 0.17130 0.14400
H 	H 	0.53110 0.02370 0.16680 0.10600
H 	H 	0.60020 0.38150 0.64670 0.07800
H 	H 	0.54450 0.37950 0.72030 0.06800
H 	H 	0.71340 0.20430 0.82390 -0.05500
H 	H 	0.69710 0.33500 0.92290 0.11200
H 	H 	0.77260 0.28200 0.91960 0.10700
N 	N 	0.10060 0.67150 0.06330 -0.28900
N 	N 	0.31390 0.07900 0.15200 -0.28200
C 	C 	0.07230 0.60640 0.01310 0.23400
C 	C 	0.13850 0.55430 0.98000 -0.40500
C 	C 	0.26480 0.14420 0.17970 0.18700
C 	C 	0.23070 0.19730 0.11240 -0.32900
H 	H 	0.53110 0.63200 0.20590 0.07100
H 	H 	0.60500 0.63390 0.15060 0.07100
H 	H 	0.54660 0.53860 0.07210 -0.07900
H 	H 	0.41440 0.55060 0.17130 0.17700
H 	H 	0.46890 0.47630 0.16680 0.15000
H 	H 	0.39980 0.11850 0.64670 0.07500
H 	H 	0.45550 0.12050 0.72030 0.06600
H 	H 	0.28660 0.29570 0.82390 -0.05500
H 	H 	0.30290 0.16500 0.92290 0.11100
H 	H 	0.22740 0.21800 0.91960 0.10500
N 	N 	0.60060 0.17150 0.56330 -0.29700
N 	N 	0.81390 0.57900 0.65200 -0.28500
C 	C 	0.57230 0.10640 0.51310 0.29800
C 	C 	0.63850 0.05430 0.48000 -0.53800
C 	C 	0.76480 0.64420 0.67970 0.19800
C 	C 	0.73070 0.69730 0.61240 -0.34300
H 	H 	0.03110 0.13200 0.70590 0.06600
H 	H 	0.10500 0.13390 0.65060 0.06900
H 	H 	0.04660 0.03860 0.57210 -0.06700
H 	H 	0.91440 0.05060 0.67130 0.17300
H 	H 	0.96890 0.97630 0.66680 0.16100
H 	H 	0.89980 0.61850 0.14670 0.07800
H 	H 	0.95550 0.62050 0.22030 0.07200
H 	H 	0.78660 0.79570 0.32390 -0.05400
H 	H 	0.80290 0.66500 0.42290 0.10900
H 	H 	0.72740 0.71800 0.41960 0.10100
N 	N 	0.60060 0.82850 0.93670 -0.29600
N 	N 	0.81390 0.42100 0.84800 -0.28600
C 	C 	0.57230 0.89360 0.98690 0.29400
C 	C 	0.63850 0.94570 0.02000 -0.50200
C 	C 	0.76480 0.35580 0.82030 0.20300
C 	C 	0.73070 0.30270 0.88760 -0.35000
H 	H 	0.03110 0.86800 0.79410 0.06600
H 	H 	0.10500 0.86610 0.84940 0.07100
H 	H 	0.04660 0.96140 0.92790 -0.03400
H 	H 	0.91440 0.94940 0.82870 0.12000
H 	H 	0.96890 0.02370 0.83320 0.09000
H 	H 	0.89980 0.38150 0.35330 0.08000
H 	H 	0.95550 0.37950 0.27970 0.07200
H 	H 	0.78660 0.20430 0.17610 -0.05500
H 	H 	0.80290 0.33500 0.07710 0.10400
H 	H 	0.72740 0.28200 0.08040 0.09600
N 	N 	0.10060 0.32850 0.43670 -0.30000
N 	N 	0.31390 0.92100 0.34800 -0.28400
C 	C 	0.07230 0.39360 0.48690 0.30900
C 	C 	0.13850 0.44570 0.52000 -0.51700
C 	C 	0.26480 0.85580 0.32030 0.20200
C 	C 	0.23070 0.80270 0.38760 -0.34500
H 	H 	0.53110 0.36800 0.29410 0.07000
H 	H 	0.60500 0.36610 0.34940 0.07100
H 	H 	0.54660 0.46140 0.42790 -0.06700
H 	H 	0.41440 0.44940 0.32870 0.16300
H 	H 	0.46890 0.52370 0.33320 0.13800
H 	H 	0.39980 0.88150 0.85330 0.08200
H 	H 	0.45550 0.87950 0.77970 0.07100
H 	H 	0.28660 0.70430 0.67610 -0.05500
H 	H 	0.30290 0.83500 0.57710 0.10900
H 	H 	0.22740 0.78200 0.58040 0.10100
N 	N 	0.89940 0.17150 0.43670 -0.28700
N 	N 	0.68610 0.57900 0.34800 -0.28500
C 	C 	0.92770 0.10640 0.48690 0.25000
C 	C 	0.86150 0.05430 0.52000 -0.48800
C 	C 	0.73520 0.64420 0.32030 0.20100
C 	C 	0.76930 0.69730 0.38760 -0.34700
H 	H 	0.46890 0.13200 0.29410 0.07000
H 	H 	0.39500 0.13390 0.34940 0.07100
H 	H 	0.45340 0.03860 0.42790 -0.08400
H 	H 	0.58560 0.05060 0.32870 0.19400
H 	H 	0.53110 0.97630 0.33320 0.18000
H 	H 	0.60020 0.61850 0.85330 0.08000
H 	H 	0.54450 0.62050 0.77970 0.06800
H 	H 	0.71340 0.79570 0.67610 -0.05200
H 	H 	0.69710 0.66500 0.57710 0.10700
H 	H 	0.77260 0.71800 0.58040 0.10100
N 	N 	0.39940 0.67150 0.93670 -0.30200
N 	N 	0.18610 0.07900 0.84800 -0.28500
C 	C 	0.42770 0.60640 0.98690 0.33400
C 	C 	0.36150 0.55430 0.02000 -0.57900
C 	C 	0.23520 0.14420 0.82030 0.19900
C 	C 	0.26930 0.19730 0.88760 -0.34800
H 	H 	0.96890 0.63200 0.79410 0.07600
H 	H 	0.89500 0.63390 0.84940 0.07500
H 	H 	0.95340 0.53860 0.92790 -0.06900
H 	H 	0.08560 0.55060 0.82870 0.16600
H 	H 	0.03110 0.47630 0.83320 0.13800
H 	H 	0.10020 0.11850 0.35330 0.07300
H 	H 	0.04450 0.12050 0.27970 0.06100
H 	H 	0.21340 0.29570 0.17610 -0.05100
H 	H 	0.19710 0.16500 0.07710 0.09700
H 	H 	0.27260 0.21800 0.08040 0.09200
N 	N 	0.56330 0.39940 0.32850 -0.29200
N 	N 	0.65200 0.18610 0.92100 -0.28400
C 	C 	0.51310 0.42770 0.39360 0.26600
C 	C 	0.48000 0.36150 0.44570 -0.47500
C 	C 	0.67970 0.23520 0.85580 0.20300
C 	C 	0.61240 0.26930 0.80270 -0.34700
H 	H 	0.70590 0.96890 0.36800 0.07600
H 	H 	0.65060 0.89500 0.36610 0.07400
H 	H 	0.57210 0.95340 0.46140 -0.08200
H 	H 	0.67130 0.08560 0.44940 0.18100
H 	H 	0.66680 0.03110 0.52370 0.15200
H 	H 	0.14670 0.10020 0.88150 0.07600
H 	H 	0.22030 0.04450 0.87950 0.06600
H 	H 	0.32390 0.21340 0.70430 -0.05400
H 	H 	0.42290 0.19710 0.83500 0.10700
H 	H 	0.41960 0.27260 0.78200 0.10100
N 	N 	0.06330 0.89940 0.82850 -0.27400
N 	N 	0.15200 0.68610 0.42100 -0.28400
C 	C 	0.01310 0.92770 0.89360 0.16000
C 	C 	0.98000 0.86150 0.94570 -0.32200
C 	C 	0.17970 0.73520 0.35580 0.19800
C 	C 	0.11240 0.76930 0.30270 -0.34100
H 	H 	0.20590 0.46890 0.86800 0.07000
H 	H 	0.15060 0.39500 0.86610 0.07100
H 	H 	0.07210 0.45340 0.96140 -0.06000
H 	H 	0.17130 0.58560 0.94940 0.14400
H 	H 	0.16680 0.53110 0.02370 0.10600
H 	H 	0.64670 0.60020 0.38150 0.07800
H 	H 	0.72030 0.54450 0.37950 0.06800
H 	H 	0.82390 0.71340 0.20430 -0.05500
H 	H 	0.92290 0.69710 0.33500 0.11200
H 	H 	0.91960 0.77260 0.28200 0.10700
N 	N 	0.06330 0.10060 0.67150 -0.28900
N 	N 	0.15200 0.31390 0.07900 -0.28200
C 	C 	0.01310 0.07230 0.60640 0.23400
C 	C 	0.98000 0.13850 0.55430 -0.40500
C 	C 	0.17970 0.26480 0.14420 0.18700
C 	C 	0.11240 0.23070 0.19730 -0.32900
H 	H 	0.20590 0.53110 0.63200 0.07100
H 	H 	0.15060 0.60500 0.63390 0.07100
H 	H 	0.07210 0.54660 0.53860 -0.07900
H 	H 	0.17130 0.41440 0.55060 0.17700
H 	H 	0.16680 0.46890 0.47630 0.15000
H 	H 	0.64670 0.39980 0.11850 0.07500
H 	H 	0.72030 0.45550 0.12050 0.06600
H 	H 	0.82390 0.28660 0.29570 -0.05500
H 	H 	0.92290 0.30290 0.16500 0.11100
H 	H 	0.91960 0.22740 0.21800 0.10500
N 	N 	0.56330 0.60060 0.17150 -0.29700
N 	N 	0.65200 0.81390 0.57900 -0.28500
C 	C 	0.51310 0.57230 0.10640 0.29800
C 	C 	0.48000 0.63850 0.05430 -0.53800
C 	C 	0.67970 0.76480 0.64420 0.19800
C 	C 	0.61240 0.73070 0.69730 -0.34300
H 	H 	0.70590 0.03110 0.13200 0.06600
H 	H 	0.65060 0.10500 0.13390 0.06900
H 	H 	0.57210 0.04660 0.03860 -0.06700
H 	H 	0.67130 0.91440 0.05060 0.17300
H 	H 	0.66680 0.96890 0.97630 0.16100
H 	H 	0.14670 0.89980 0.61850 0.07800
H 	H 	0.22030 0.95550 0.62050 0.07200
H 	H 	0.32390 0.78660 0.79570 -0.05400
H 	H 	0.42290 0.80290 0.66500 0.10900
H 	H 	0.41960 0.72740 0.71800 0.10100
N 	N 	0.93670 0.60060 0.82850 -0.29600
N 	N 	0.84800 0.81390 0.42100 -0.28600
C 	C 	0.98690 0.57230 0.89360 0.29400
C 	C 	0.02000 0.63850 0.94570 -0.50200
C 	C 	0.82030 0.76480 0.35580 0.20300
C 	C 	0.88760 0.73070 0.30270 -0.35000
H 	H 	0.79410 0.03110 0.86800 0.06600
H 	H 	0.84940 0.10500 0.86610 0.07100
H 	H 	0.92790 0.04660 0.96140 -0.03400
H 	H 	0.82870 0.91440 0.94940 0.12000
H 	H 	0.83320 0.96890 0.02370 0.09000
H 	H 	0.35330 0.89980 0.38150 0.08000
H 	H 	0.27970 0.95550 0.37950 0.07200
H 	H 	0.17610 0.78660 0.20430 -0.05500
H 	H 	0.07710 0.80290 0.33500 0.10400
H 	H 	0.08040 0.72740 0.28200 0.09600
N 	N 	0.43670 0.10060 0.32850 -0.30000
N 	N 	0.34800 0.31390 0.92100 -0.28400
C 	C 	0.48690 0.07230 0.39360 0.30900
C 	C 	0.52000 0.13850 0.44570 -0.51700
C 	C 	0.32030 0.26480 0.85580 0.20200
C 	C 	0.38760 0.23070 0.80270 -0.34500
H 	H 	0.29410 0.53110 0.36800 0.07000
H 	H 	0.34940 0.60500 0.36610 0.07100
H 	H 	0.42790 0.54660 0.46140 -0.06700
H 	H 	0.32870 0.41440 0.44940 0.16300
H 	H 	0.33320 0.46890 0.52370 0.13800
H 	H 	0.85330 0.39980 0.88150 0.08200
H 	H 	0.77970 0.45550 0.87950 0.07100
H 	H 	0.67610 0.28660 0.70430 -0.05500
H 	H 	0.57710 0.30290 0.83500 0.10900
H 	H 	0.58040 0.22740 0.78200 0.10100
N 	N 	0.43670 0.89940 0.17150 -0.28700
N 	N 	0.34800 0.68610 0.57900 -0.28500
C 	C 	0.48690 0.92770 0.10640 0.25000
C 	C 	0.52000 0.86150 0.05430 -0.48800
C 	C 	0.32030 0.73520 0.64420 0.20100
C 	C 	0.38760 0.76930 0.69730 -0.34700
H 	H 	0.29410 0.46890 0.13200 0.07000
H 	H 	0.34940 0.39500 0.13390 0.07100
H 	H 	0.42790 0.45340 0.03860 -0.08400
H 	H 	0.32870 0.58560 0.05060 0.19400
H 	H 	0.33320 0.53110 0.97630 0.18000
H 	H 	0.85330 0.60020 0.61850 0.08000
H 	H 	0.77970 0.54450 0.62050 0.06800
H 	H 	0.67610 0.71340 0.79570 -0.05200
H 	H 	0.57710 0.69710 0.66500 0.10700
H 	H 	0.58040 0.77260 0.71800 0.10100
N 	N 	0.93670 0.39940 0.67150 -0.30200
N 	N 	0.84800 0.18610 0.07900 -0.28500
C 	C 	0.98690 0.42770 0.60640 0.33400
C 	C 	0.02000 0.36150 0.55430 -0.57900
C 	C 	0.82030 0.23520 0.14420 0.19900
C 	C 	0.88760 0.26930 0.19730 -0.34800
H 	H 	0.79410 0.96890 0.63200 0.07600
H 	H 	0.84940 0.89500 0.63390 0.07500
H 	H 	0.92790 0.95340 0.53860 -0.06900
H 	H 	0.82870 0.08560 0.55060 0.16600
H 	H 	0.83320 0.03110 0.47630 0.13800
H 	H 	0.35330 0.10020 0.11850 0.07300
H 	H 	0.27970 0.04450 0.12050 0.06100
H 	H 	0.17610 0.21340 0.29570 -0.05100
H 	H 	0.07710 0.19710 0.16500 0.09700
H 	H 	0.08040 0.27260 0.21800 0.09200
N 	N 	0.32850 0.56330 0.39940 -0.29200
N 	N 	0.92100 0.65200 0.18610 -0.28400
C 	C 	0.39360 0.51310 0.42770 0.26600
C 	C 	0.44570 0.48000 0.36150 -0.47500
C 	C 	0.85580 0.67970 0.23520 0.20300
C 	C 	0.80270 0.61240 0.26930 -0.34700
H 	H 	0.36800 0.70590 0.96890 0.07600
H 	H 	0.36610 0.65060 0.89500 0.07400
H 	H 	0.46140 0.57210 0.95340 -0.08200
H 	H 	0.44940 0.67130 0.08560 0.18100
H 	H 	0.52370 0.66680 0.03110 0.15200
H 	H 	0.88150 0.14670 0.10020 0.07600
H 	H 	0.87950 0.22030 0.04450 0.06600
H 	H 	0.70430 0.32390 0.21340 -0.05400
H 	H 	0.83500 0.42290 0.19710 0.10700
H 	H 	0.78200 0.41960 0.27260 0.10100
N 	N 	0.82850 0.06330 0.89940 -0.27400
N 	N 	0.42100 0.15200 0.68610 -0.28400
C 	C 	0.89360 0.01310 0.92770 0.16000
C 	C 	0.94570 0.98000 0.86150 -0.32200
C 	C 	0.35580 0.17970 0.73520 0.19800
C 	C 	0.30270 0.11240 0.76930 -0.34100
H 	H 	0.86800 0.20590 0.46890 0.07000
H 	H 	0.86610 0.15060 0.39500 0.07100
H 	H 	0.96140 0.07210 0.45340 -0.06000
H 	H 	0.94940 0.17130 0.58560 0.14400
H 	H 	0.02370 0.16680 0.53110 0.10600
H 	H 	0.38150 0.64670 0.60020 0.07800
H 	H 	0.37950 0.72030 0.54450 0.06800
H 	H 	0.20430 0.82390 0.71340 -0.05500
H 	H 	0.33500 0.92290 0.69710 0.11200
H 	H 	0.28200 0.91960 0.77260 0.10700
N 	N 	0.67150 0.06330 0.10060 -0.28900
N 	N 	0.07900 0.15200 0.31390 -0.28200
C 	C 	0.60640 0.01310 0.07230 0.23400
C 	C 	0.55430 0.98000 0.13850 -0.40500
C 	C 	0.14420 0.17970 0.26480 0.18700
C 	C 	0.19730 0.11240 0.23070 -0.32900
H 	H 	0.63200 0.20590 0.53110 0.07100
H 	H 	0.63390 0.15060 0.60500 0.07100
H 	H 	0.53860 0.07210 0.54660 -0.07900
H 	H 	0.55060 0.17130 0.41440 0.17700
H 	H 	0.47630 0.16680 0.46890 0.15000
H 	H 	0.11850 0.64670 0.39980 0.07500
H 	H 	0.12050 0.72030 0.45550 0.06600
H 	H 	0.29570 0.82390 0.28660 -0.05500
H 	H 	0.16500 0.92290 0.30290 0.11100
H 	H 	0.21800 0.91960 0.22740 0.10500
N 	N 	0.17150 0.56330 0.60060 -0.29700
N 	N 	0.57900 0.65200 0.81390 -0.28500
C 	C 	0.10640 0.51310 0.57230 0.29800
C 	C 	0.05430 0.48000 0.63850 -0.53800
C 	C 	0.64420 0.67970 0.76480 0.19800
C 	C 	0.69730 0.61240 0.73070 -0.34300
H 	H 	0.13200 0.70590 0.03110 0.06600
H 	H 	0.13390 0.65060 0.10500 0.06900
H 	H 	0.03860 0.57210 0.04660 -0.06700
H 	H 	0.05060 0.67130 0.91440 0.17300
H 	H 	0.97630 0.66680 0.96890 0.16100
H 	H 	0.61850 0.14670 0.89980 0.07800
H 	H 	0.62050 0.22030 0.95550 0.07200
H 	H 	0.79570 0.32390 0.78660 -0.05400
H 	H 	0.66500 0.42290 0.80290 0.10900
H 	H 	0.71800 0.41960 0.72740 0.10100
N 	N 	0.82850 0.93670 0.60060 -0.29600
N 	N 	0.42100 0.84800 0.81390 -0.28600
C 	C 	0.89360 0.98690 0.57230 0.29400
C 	C 	0.94570 0.02000 0.63850 -0.50200
C 	C 	0.35580 0.82030 0.76480 0.20300
C 	C 	0.30270 0.88760 0.73070 -0.35000
H 	H 	0.86800 0.79410 0.03110 0.06600
H 	H 	0.86610 0.84940 0.10500 0.07100
H 	H 	0.96140 0.92790 0.04660 -0.03400
H 	H 	0.94940 0.82870 0.91440 0.12000
H 	H 	0.02370 0.83320 0.96890 0.09000
H 	H 	0.38150 0.35330 0.89980 0.08000
H 	H 	0.37950 0.27970 0.95550 0.07200
H 	H 	0.20430 0.17610 0.78660 -0.05500
H 	H 	0.33500 0.07710 0.80290 0.10400
H 	H 	0.28200 0.08040 0.72740 0.09600
N 	N 	0.32850 0.43670 0.10060 -0.30000
N 	N 	0.92100 0.34800 0.31390 -0.28400
C 	C 	0.39360 0.48690 0.07230 0.30900
C 	C 	0.44570 0.52000 0.13850 -0.51700
C 	C 	0.85580 0.32030 0.26480 0.20200
C 	C 	0.80270 0.38760 0.23070 -0.34500
H 	H 	0.36800 0.29410 0.53110 0.07000
H 	H 	0.36610 0.34940 0.60500 0.07100
H 	H 	0.46140 0.42790 0.54660 -0.06700
H 	H 	0.44940 0.32870 0.41440 0.16300
H 	H 	0.52370 0.33320 0.46890 0.13800
H 	H 	0.88150 0.85330 0.39980 0.08200
H 	H 	0.87950 0.77970 0.45550 0.07100
H 	H 	0.70430 0.67610 0.28660 -0.05500
H 	H 	0.83500 0.57710 0.30290 0.10900
H 	H 	0.78200 0.58040 0.22740 0.10100
N 	N 	0.17150 0.43670 0.89940 -0.28700
N 	N 	0.57900 0.34800 0.68610 -0.28500
C 	C 	0.10640 0.48690 0.92770 0.25000
C 	C 	0.05430 0.52000 0.86150 -0.48800
C 	C 	0.64420 0.32030 0.73520 0.20100
C 	C 	0.69730 0.38760 0.76930 -0.34700
H 	H 	0.13200 0.29410 0.46890 0.07000
H 	H 	0.13390 0.34940 0.39500 0.07100
H 	H 	0.03860 0.42790 0.45340 -0.08400
H 	H 	0.05060 0.32870 0.58560 0.19400
H 	H 	0.97630 0.33320 0.53110 0.18000
H 	H 	0.61850 0.85330 0.60020 0.08000
H 	H 	0.62050 0.77970 0.54450 0.06800
H 	H 	0.79570 0.67610 0.71340 -0.05200
H 	H 	0.66500 0.57710 0.69710 0.10700
H 	H 	0.71800 0.58040 0.77260 0.10100
N 	N 	0.67150 0.93670 0.39940 -0.30200
N 	N 	0.07900 0.84800 0.18610 -0.28500
C 	C 	0.60640 0.98690 0.42770 0.33400
C 	C 	0.55430 0.02000 0.36150 -0.57900
C 	C 	0.14420 0.82030 0.23520 0.19900
C 	C 	0.19730 0.88760 0.26930 -0.34800
H 	H 	0.63200 0.79410 0.96890 0.07600
H 	H 	0.63390 0.84940 0.89500 0.07500
H 	H 	0.53860 0.92790 0.95340 -0.06900
H 	H 	0.55060 0.82870 0.08560 0.16600
H 	H 	0.47630 0.83320 0.03110 0.13800
H 	H 	0.11850 0.35330 0.10020 0.07300
H 	H 	0.12050 0.27970 0.04450 0.06100
H 	H 	0.29570 0.17610 0.21340 -0.05100
H 	H 	0.16500 0.07710 0.19710 0.09700
H 	H 	0.21800 0.08040 0.27260 0.09200
Ag	Ag	0.25000 0.62490 0.50000 0.51000
Ag	Ag	0.25000 0.37510 -0.00000 0.50200
Ag	Ag	0.75000 0.87510 0.50000 0.51300
Ag	Ag	0.75000 0.12490 -0.00000 0.50200
Ag	Ag	0.50000 0.25000 0.62490 0.51000
Ag	Ag	0.00000 0.25000 0.37510 0.50200
Ag	Ag	0.50000 0.75000 0.87510 0.51300
Ag	Ag	0.00000 0.75000 0.12490 0.50200
Ag	Ag	0.62490 0.50000 0.25000 0.51000
Ag	Ag	0.37510 0.00000 0.25000 0.50200
Ag	Ag	0.87510 0.50000 0.75000 0.51300
Ag	Ag	0.12490 0.00000 0.75000 0.50200
