data_crystal

_cell_length_a 13.44950
_cell_length_b 13.44950
_cell_length_c 25.41300
_cell_angle_alpha 90.00000
_cell_angle_beta  90.00000
_cell_angle_gamma 90.00000

_symmetry_space_group_name_	'P 1'
_symmetry_space_group_name_H-M	'P 1'

loop_
_symmetry_equiv_pos_as_xyz
  x,y,z

loop_
_atom_site_label
_atom_site_type_symbol
_atom_site_fract_x
_atom_site_fract_y
_atom_site_fract_z
_atom_site_charge
C 	C 	0.16010 0.72570 0.83160 0.03200
H 	H 	0.09820 0.70470 0.85630 0.06100
H 	H 	0.13870 0.78960 0.80850 0.06300
C 	C 	0.11100 0.62100 0.76870 0.03000
O 	O 	0.02780 0.63610 0.76950 -0.08800
C 	C 	0.12710 0.61100 0.75760 0.21700
O 	O 	0.05790 0.67310 0.74610 -0.13700
C 	C 	0.15340 0.52800 0.73150 -0.03400
C 	C 	0.08780 0.48860 0.69420 -0.03000
H 	H 	0.01530 0.52140 0.68840 0.07500
C 	C 	0.11690 0.40770 0.66530 0.02900
H 	H 	0.06560 0.37790 0.63670 0.04600
C 	C 	0.26910 0.40230 0.70650 0.03200
H 	H 	0.34140 0.36850 0.71100 0.03700
C 	C 	0.24600 0.48280 0.73750 -0.02700
H 	H 	0.29860 0.51050 0.76610 0.06300
N 	N 	0.20630 0.36340 0.67078 -0.20600
N 	N 	0.64270 0.70850 0.05300 -0.20500
O 	O 	0.18770 0.64390 0.79740 -0.21100
O 	O 	0.35280 0.68170 0.93536 -0.24200
O 	O 	0.45710 0.57520 0.89659 -0.25000
Cl	Cl	0.08274 0.18162 0.61463 -0.46800
C 	C 	0.27410 0.65860 0.89910 0.03500
H 	H 	0.20850 0.63620 0.92060 0.06800
H 	H 	0.29630 0.59750 0.87410 0.06900
C 	C 	0.43750 0.63230 0.93160 0.28600
C 	C 	0.50740 0.65840 0.97510 -0.03500
C 	C 	0.60310 0.62020 0.97490 -0.03200
H 	H 	0.62690 0.57060 0.94390 0.06200
C 	C 	0.66720 0.64620 0.01450 0.04000
H 	H 	0.74100 0.61450 0.01450 0.03400
C 	C 	0.54920 0.74480 0.05320 0.03700
H 	H 	0.52770 0.79460 0.08460 0.03800
C 	C 	0.48070 0.72150 0.01570 -0.02900
H 	H 	0.40650 0.75190 0.01760 0.06400
C 	C 	0.33990 0.77430 0.83160 0.03300
H 	H 	0.40180 0.79530 0.85630 0.06100
H 	H 	0.36130 0.71040 0.80850 0.06400
C 	C 	0.38900 0.87900 0.76870 0.03200
O 	O 	0.47220 0.86390 0.76950 -0.08800
C 	C 	0.37290 0.88900 0.75760 0.21700
O 	O 	0.44210 0.82690 0.74610 -0.13700
C 	C 	0.34660 0.97200 0.73150 -0.03500
C 	C 	0.41220 0.01140 0.69420 -0.02900
H 	H 	0.48470 0.97860 0.68840 0.07500
C 	C 	0.38310 0.09230 0.66530 0.02900
H 	H 	0.43440 0.12210 0.63670 0.04600
C 	C 	0.23090 0.09770 0.70650 0.03100
H 	H 	0.15860 0.13150 0.71100 0.03700
C 	C 	0.25400 0.01720 0.73750 -0.02600
H 	H 	0.20140 0.98950 0.76610 0.06300
N 	N 	0.29370 0.13660 0.67078 -0.20600
N 	N 	0.85730 0.79150 0.05300 -0.20500
O 	O 	0.31230 0.85610 0.79740 -0.21100
O 	O 	0.14720 0.81830 0.93536 -0.24200
O 	O 	0.04290 0.92480 0.89659 -0.25000
Cl	Cl	0.41726 0.31838 0.61463 -0.46800
C 	C 	0.22590 0.84140 0.89910 0.03500
H 	H 	0.29150 0.86380 0.92060 0.06800
H 	H 	0.20370 0.90250 0.87410 0.06900
C 	C 	0.06250 0.86770 0.93160 0.28600
C 	C 	0.99260 0.84160 0.97510 -0.03400
C 	C 	0.89690 0.87980 0.97490 -0.03200
H 	H 	0.87310 0.92940 0.94390 0.06200
C 	C 	0.83280 0.85380 0.01450 0.04000
H 	H 	0.75900 0.88550 0.01450 0.03400
C 	C 	0.95080 0.75520 0.05320 0.03800
H 	H 	0.97230 0.70540 0.08460 0.03800
C 	C 	0.01930 0.77850 0.01570 -0.03000
H 	H 	0.09350 0.74810 0.01760 0.06400
C 	C 	0.27430 0.66010 0.33160 0.03300
H 	H 	0.29530 0.59820 0.35630 0.06200
H 	H 	0.21040 0.63870 0.30850 0.06400
C 	C 	0.37900 0.61100 0.26870 0.03100
O 	O 	0.36390 0.52780 0.26950 -0.08800
C 	C 	0.38900 0.62710 0.25760 0.21700
O 	O 	0.32690 0.55790 0.24610 -0.13700
C 	C 	0.47200 0.65340 0.23150 -0.03400
C 	C 	0.51140 0.58780 0.19420 -0.03000
H 	H 	0.47860 0.51530 0.18840 0.07500
C 	C 	0.59230 0.61690 0.16530 0.02900
H 	H 	0.62210 0.56560 0.13670 0.04600
C 	C 	0.59770 0.76910 0.20650 0.03200
H 	H 	0.63150 0.84140 0.21100 0.03700
C 	C 	0.51720 0.74600 0.23750 -0.02700
H 	H 	0.48950 0.79860 0.26610 0.06300
N 	N 	0.63660 0.70630 0.17078 -0.20600
N 	N 	0.29150 0.14270 0.55300 -0.20500
O 	O 	0.35610 0.68770 0.29740 -0.21100
O 	O 	0.31830 0.85280 0.43536 -0.24200
O 	O 	0.42480 0.95710 0.39659 -0.25000
Cl	Cl	0.81838 0.58274 0.11463 -0.46800
C 	C 	0.34140 0.77410 0.39910 0.03500
H 	H 	0.36380 0.70850 0.42060 0.06800
H 	H 	0.40250 0.79630 0.37410 0.06900
C 	C 	0.36770 0.93750 0.43160 0.28600
C 	C 	0.34160 0.00740 0.47510 -0.03500
C 	C 	0.37980 0.10310 0.47490 -0.03200
H 	H 	0.42940 0.12690 0.44390 0.06200
C 	C 	0.35380 0.16720 0.51450 0.04000
H 	H 	0.38550 0.24100 0.51450 0.03400
C 	C 	0.25520 0.04920 0.55320 0.03800
H 	H 	0.20540 0.02770 0.58460 0.03800
C 	C 	0.27850 0.98070 0.51570 -0.03000
H 	H 	0.24810 0.90650 0.51760 0.06400
C 	C 	0.22570 0.83990 0.33160 0.03300
H 	H 	0.20470 0.90180 0.35630 0.06100
H 	H 	0.28960 0.86130 0.30850 0.06400
C 	C 	0.12100 0.88900 0.26870 0.03200
O 	O 	0.13610 0.97220 0.26950 -0.08800
C 	C 	0.11100 0.87290 0.25760 0.21700
O 	O 	0.17310 0.94210 0.24610 -0.13700
C 	C 	0.02800 0.84660 0.23150 -0.03600
C 	C 	0.98860 0.91220 0.19420 -0.02700
H 	H 	0.02140 0.98470 0.18840 0.07400
C 	C 	0.90770 0.88310 0.16530 0.02900
H 	H 	0.87790 0.93440 0.13670 0.04600
C 	C 	0.90230 0.73090 0.20650 0.03100
H 	H 	0.86850 0.65860 0.21100 0.03700
C 	C 	0.98280 0.75400 0.23750 -0.02500
H 	H 	0.01050 0.70140 0.26610 0.06300
N 	N 	0.86340 0.79370 0.17078 -0.20600
N 	N 	0.20850 0.35730 0.55300 -0.20500
O 	O 	0.14390 0.81230 0.29740 -0.21100
O 	O 	0.18170 0.64720 0.43536 -0.24200
O 	O 	0.07520 0.54290 0.39659 -0.25000
Cl	Cl	0.68162 0.91726 0.11463 -0.46800
C 	C 	0.15860 0.72590 0.39910 0.03500
H 	H 	0.13620 0.79150 0.42060 0.06800
H 	H 	0.09750 0.70370 0.37410 0.06900
C 	C 	0.13230 0.56250 0.43160 0.28600
C 	C 	0.15840 0.49260 0.47510 -0.03500
C 	C 	0.12020 0.39690 0.47490 -0.03200
H 	H 	0.07060 0.37310 0.44390 0.06200
C 	C 	0.14620 0.33280 0.51450 0.03900
H 	H 	0.11450 0.25900 0.51450 0.03400
C 	C 	0.24480 0.45080 0.55320 0.03700
H 	H 	0.29460 0.47230 0.58460 0.03800
C 	C 	0.22150 0.51930 0.51570 -0.02900
H 	H 	0.25190 0.59350 0.51760 0.06400
C 	C 	0.25000 0.75000 0.86510 -0.00200
C 	C 	0.25000 0.75000 0.36510 -0.00300
Co	Co	0.25000 0.25000 0.61390 1.14700
Co	Co	0.75000 0.75000 0.11390 1.14700
C 	C 	0.83990 0.27430 0.16840 0.03300
H 	H 	0.90180 0.29530 0.14370 0.06200
H 	H 	0.86130 0.21040 0.19150 0.06400
C 	C 	0.88900 0.37900 0.23130 0.03100
O 	O 	0.97220 0.36390 0.23050 -0.08800
C 	C 	0.87290 0.38900 0.24240 0.21700
O 	O 	0.94210 0.32690 0.25390 -0.13700
C 	C 	0.84660 0.47200 0.26850 -0.03400
C 	C 	0.91220 0.51140 0.30580 -0.03000
H 	H 	0.98470 0.47860 0.31160 0.07500
C 	C 	0.88310 0.59230 0.33470 0.02900
H 	H 	0.93440 0.62210 0.36330 0.04600
C 	C 	0.73090 0.59770 0.29350 0.03200
H 	H 	0.65860 0.63150 0.28900 0.03700
C 	C 	0.75400 0.51720 0.26250 -0.02700
H 	H 	0.70140 0.48950 0.23390 0.06300
N 	N 	0.79370 0.63660 0.32922 -0.20600
N 	N 	0.35730 0.29150 0.94700 -0.20500
O 	O 	0.81230 0.35610 0.20260 -0.21100
O 	O 	0.64720 0.31830 0.06464 -0.24200
O 	O 	0.54290 0.42480 0.10341 -0.25000
Cl	Cl	0.91726 0.81838 0.38537 -0.46800
C 	C 	0.72590 0.34140 0.10090 0.03500
H 	H 	0.79150 0.36380 0.07940 0.06800
H 	H 	0.70370 0.40250 0.12590 0.06900
C 	C 	0.56250 0.36770 0.06840 0.28600
C 	C 	0.49260 0.34160 0.02490 -0.03500
C 	C 	0.39690 0.37980 0.02510 -0.03200
H 	H 	0.37310 0.42940 0.05610 0.06200
C 	C 	0.33280 0.35380 0.98550 0.04000
H 	H 	0.25900 0.38550 0.98550 0.03400
C 	C 	0.45080 0.25520 0.94680 0.03700
H 	H 	0.47230 0.20540 0.91540 0.03800
C 	C 	0.51930 0.27850 0.98430 -0.02900
H 	H 	0.59350 0.24810 0.98240 0.06400
C 	C 	0.66010 0.22570 0.16840 0.03300
H 	H 	0.59820 0.20470 0.14370 0.06100
H 	H 	0.63870 0.28960 0.19150 0.06400
C 	C 	0.61100 0.12100 0.23130 0.03200
O 	O 	0.52780 0.13610 0.23050 -0.08800
C 	C 	0.62710 0.11100 0.24240 0.21700
O 	O 	0.55790 0.17310 0.25390 -0.13700
C 	C 	0.65340 0.02800 0.26850 -0.03500
C 	C 	0.58780 0.98860 0.30580 -0.02900
H 	H 	0.51530 0.02140 0.31160 0.07500
C 	C 	0.61690 0.90770 0.33470 0.02900
H 	H 	0.56560 0.87790 0.36330 0.04600
C 	C 	0.76910 0.90230 0.29350 0.03100
H 	H 	0.84140 0.86850 0.28900 0.03700
C 	C 	0.74600 0.98280 0.26250 -0.02600
H 	H 	0.79860 0.01050 0.23390 0.06300
N 	N 	0.70630 0.86340 0.32922 -0.20600
N 	N 	0.14270 0.20850 0.94700 -0.20500
O 	O 	0.68770 0.14390 0.20260 -0.21100
O 	O 	0.85280 0.18170 0.06464 -0.24200
O 	O 	0.95710 0.07520 0.10341 -0.25000
Cl	Cl	0.58274 0.68162 0.38537 -0.46800
C 	C 	0.77410 0.15860 0.10090 0.03500
H 	H 	0.70850 0.13620 0.07940 0.06800
H 	H 	0.79630 0.09750 0.12590 0.06900
C 	C 	0.93750 0.13230 0.06840 0.28600
C 	C 	0.00740 0.15840 0.02490 -0.03400
C 	C 	0.10310 0.12020 0.02510 -0.03200
H 	H 	0.12690 0.07060 0.05610 0.06200
C 	C 	0.16720 0.14620 0.98550 0.04000
H 	H 	0.24100 0.11450 0.98550 0.03400
C 	C 	0.04920 0.24480 0.94680 0.03800
H 	H 	0.02770 0.29460 0.91540 0.03800
C 	C 	0.98070 0.22150 0.98430 -0.03000
H 	H 	0.90650 0.25190 0.98240 0.06400
C 	C 	0.72570 0.33990 0.66840 0.03300
H 	H 	0.70470 0.40180 0.64370 0.06200
H 	H 	0.78960 0.36130 0.69150 0.06400
C 	C 	0.62100 0.38900 0.73130 0.03100
O 	O 	0.63610 0.47220 0.73050 -0.08800
C 	C 	0.61100 0.37290 0.74240 0.21700
O 	O 	0.67310 0.44210 0.75390 -0.13700
C 	C 	0.52800 0.34660 0.76850 -0.03400
C 	C 	0.48860 0.41220 0.80580 -0.03000
H 	H 	0.52140 0.48470 0.81160 0.07500
C 	C 	0.40770 0.38310 0.83470 0.02900
H 	H 	0.37790 0.43440 0.86330 0.04600
C 	C 	0.40230 0.23090 0.79350 0.03200
H 	H 	0.36850 0.15860 0.78900 0.03700
C 	C 	0.48280 0.25400 0.76250 -0.02700
H 	H 	0.51050 0.20140 0.73390 0.06300
N 	N 	0.36340 0.29370 0.82922 -0.20600
N 	N 	0.70850 0.85730 0.44700 -0.20500
O 	O 	0.64390 0.31230 0.70260 -0.21100
O 	O 	0.68170 0.14720 0.56464 -0.24200
O 	O 	0.57520 0.04290 0.60341 -0.25000
Cl	Cl	0.18162 0.41726 0.88537 -0.46800
C 	C 	0.65860 0.22590 0.60090 0.03500
H 	H 	0.63620 0.29150 0.57940 0.06800
H 	H 	0.59750 0.20370 0.62590 0.06900
C 	C 	0.63230 0.06250 0.56840 0.28600
C 	C 	0.65840 0.99260 0.52490 -0.03500
C 	C 	0.62020 0.89690 0.52510 -0.03200
H 	H 	0.57060 0.87310 0.55610 0.06200
C 	C 	0.64620 0.83280 0.48550 0.04000
H 	H 	0.61450 0.75900 0.48550 0.03400
C 	C 	0.74480 0.95080 0.44680 0.03800
H 	H 	0.79460 0.97230 0.41540 0.03800
C 	C 	0.72150 0.01930 0.48430 -0.03000
H 	H 	0.75190 0.09350 0.48240 0.06400
C 	C 	0.77430 0.16010 0.66840 0.03300
H 	H 	0.79530 0.09820 0.64370 0.06100
H 	H 	0.71040 0.13870 0.69150 0.06400
C 	C 	0.87900 0.11100 0.73130 0.03200
O 	O 	0.86390 0.02780 0.73050 -0.08800
C 	C 	0.88900 0.12710 0.74240 0.21700
O 	O 	0.82690 0.05790 0.75390 -0.13700
C 	C 	0.97200 0.15340 0.76850 -0.03600
C 	C 	0.01140 0.08780 0.80580 -0.02700
H 	H 	0.97860 0.01530 0.81160 0.07400
C 	C 	0.09230 0.11690 0.83470 0.02900
H 	H 	0.12210 0.06560 0.86330 0.04600
C 	C 	0.09770 0.26910 0.79350 0.03100
H 	H 	0.13150 0.34140 0.78900 0.03700
C 	C 	0.01720 0.24600 0.76250 -0.02500
H 	H 	0.98950 0.29860 0.73390 0.06300
N 	N 	0.13660 0.20630 0.82922 -0.20600
N 	N 	0.79150 0.64270 0.44700 -0.20500
O 	O 	0.85610 0.18770 0.70260 -0.21100
O 	O 	0.81830 0.35280 0.56464 -0.24200
O 	O 	0.92480 0.45710 0.60341 -0.25000
Cl	Cl	0.31838 0.08274 0.88537 -0.46800
C 	C 	0.84140 0.27410 0.60090 0.03500
H 	H 	0.86380 0.20850 0.57940 0.06800
H 	H 	0.90250 0.29630 0.62590 0.06900
C 	C 	0.86770 0.43750 0.56840 0.28600
C 	C 	0.84160 0.50740 0.52490 -0.03500
C 	C 	0.87980 0.60310 0.52510 -0.03200
H 	H 	0.92940 0.62690 0.55610 0.06200
C 	C 	0.85380 0.66720 0.48550 0.03900
H 	H 	0.88550 0.74100 0.48550 0.03400
C 	C 	0.75520 0.54920 0.44680 0.03700
H 	H 	0.70540 0.52770 0.41540 0.03800
C 	C 	0.77850 0.48070 0.48430 -0.02900
H 	H 	0.74810 0.40650 0.48240 0.06400
C 	C 	0.75000 0.25000 0.13490 -0.00200
C 	C 	0.75000 0.25000 0.63490 -0.00300
Co	Co	0.75000 0.75000 0.38610 1.14700
Co	Co	0.25000 0.25000 0.88610 1.14700
