data_crystal

_cell_length_a 10.04250
_cell_length_b 10.78190
_cell_length_c 15.12150
_cell_angle_alpha 74.98000
_cell_angle_beta  77.16300
_cell_angle_gamma 64.87300

_symmetry_space_group_name_	'P 1'
_symmetry_space_group_name_H-M	'P 1'

loop_
_symmetry_equiv_pos_as_xyz
  x,y,z

loop_
_atom_site_label
_atom_site_type_symbol
_atom_site_fract_x
_atom_site_fract_y
_atom_site_fract_z
_atom_site_charge
Cd	Cd	0.99172 0.20663 0.99366 1.12000
Cd	Cd	0.97968 0.56498 0.04482 1.16600
N 	N 	0.97480 0.12120 0.15220 -0.29000
N 	N 	0.95900 0.48020 0.19710 -0.30800
C 	C 	0.07280 0.42000 0.24080 0.15900
H 	H 	0.16580 0.39700 0.20580 -0.04400
C 	C 	0.84280 0.16210 0.20810 0.10100
H 	H 	0.75530 0.20730 0.18130 -0.02100
C 	C 	0.09860 0.05950 0.19130 0.13700
H 	H 	0.19020 0.03170 0.15500 -0.05200
C 	C 	0.83490 0.13900 0.30200 -0.22100
H 	H 	0.74210 0.16550 0.33710 0.09800
C 	C 	0.80930 0.48170 0.34430 -0.16700
H 	H 	0.71530 0.50730 0.37810 0.07900
C 	C 	0.06850 0.38620 0.33670 -0.13500
H 	H 	0.15570 0.34350 0.36370 0.08000
C 	C 	0.50060 0.59590 0.94710 0.02300
H 	H 	0.56120 0.63210 0.89700 0.00400
H 	H 	0.49380 0.51790 0.93040 0.01000
C 	C 	0.09080 0.03570 0.28930 -0.16500
H 	H 	0.17770 0.98980 0.31650 0.09700
N 	N 	0.99960 0.28170 0.83420 -0.33000
C 	C 	0.82440 0.50780 0.24930 0.07700
H 	H 	0.73980 0.54550 0.21990 -0.03500
C 	C 	0.12710 0.25890 0.78140 0.18900
H 	H 	0.21360 0.22300 0.80860 -0.09200
N 	N 	0.00220 0.60870 0.88900 -0.26800
C 	C 	0.95480 0.08030 0.34460 0.15200
N 	N 	0.35510 0.83320 0.97810 -0.22400
H 	H 	0.43920 0.83480 0.98050 0.08300
H 	H 	0.27460 0.90470 0.98660 0.05800
O 	O 	0.84160 0.43040 0.02700 -0.56100
C 	C 	0.95400 0.06040 0.44390 -0.24800
H 	H 	0.85860 0.09320 0.47520 0.10100
O 	O 	0.21860 0.56010 0.03090 -0.40300
C 	C 	0.24500 0.66140 0.03970 0.38000
C 	C 	0.34910 0.70690 0.95950 -0.17500
H 	H 	0.30490 0.73300 0.90240 0.06900
O 	O 	0.71990 0.31260 0.00940 -0.39200
C 	C 	0.93490 0.41680 0.38970 0.08300
C 	C 	0.02990 0.35280 0.54160 -0.05300
H 	H 	0.12400 0.33950 0.50970 0.05000
C 	C 	0.91900 0.38890 0.49280 -0.13900
H 	H 	0.82610 0.39720 0.52500 0.06400
C 	C 	0.04770 0.01170 0.49450 0.06300
H 	H 	0.14580 0.97760 0.46750 0.01700
N 	N 	0.01030 0.98050 0.78700 -0.14100
C 	C 	0.02080 0.00050 0.59820 0.11500
C 	C 	0.15410 0.95710 0.63630 -0.15900
H 	H 	0.24660 0.93760 0.60090 0.07800
C 	C 	0.13340 0.94650 0.73070 0.10600
H 	H 	0.21970 0.90970 0.75820 -0.01600
C 	C 	0.88970 0.03250 0.65530 -0.21500
H 	H 	0.79920 0.06340 0.63350 0.08600
C 	C 	0.89990 0.01630 0.74710 0.05800
H 	H 	0.81020 0.03500 0.78560 -0.01900
C 	C 	0.87500 0.33470 0.79270 0.13400
H 	H 	0.78390 0.35300 0.82980 -0.04900
C 	C 	0.87690 0.36250 0.69920 -0.28700
H 	H 	0.78840 0.40080 0.67380 0.11500
C 	C 	0.01170 0.33320 0.64180 0.21400
C 	C 	0.13610 0.28740 0.68440 -0.24900
H 	H 	0.22750 0.27520 0.64870 0.10500
C 	C 	0.72220 0.42240 0.02330 0.42300
C 	C 	0.57520 0.54460 0.03580 -0.33100
H 	H 	0.59170 0.61980 0.04930 0.12400
H 	H 	0.51080 0.51620 0.08740 0.14600
O 	O 	0.19900 0.72140 0.10550 -0.29100
C 	C 	0.88840 0.68670 0.75280 -0.25100
H 	H 	0.80050 0.72650 0.72680 0.10300
C 	C 	0.02360 0.64680 0.69750 0.16600
C 	C 	0.88530 0.66740 0.84440 0.08100
H 	H 	0.79270 0.69810 0.87940 -0.05900
C 	C 	0.15100 0.58510 0.74470 -0.19300
H 	H 	0.24550 0.55460 0.71200 0.08600
C 	C 	0.13340 0.57120 0.83760 0.10500
H 	H 	0.21790 0.53330 0.86700 -0.04600
C 	C 	0.93650 0.71330 0.54540 -0.17800
H 	H 	0.84060 0.73510 0.57620 0.07800
C 	C 	0.95220 0.73150 0.44590 0.10100
C 	C 	0.09280 0.68670 0.39590 -0.11300
H 	H 	0.17550 0.64510 0.42730 0.07100
N 	N 	0.99050 0.75740 0.25770 -0.17100
C 	C 	0.04310 0.66960 0.59690 -0.00900
H 	H 	0.13900 0.65150 0.56680 0.03400
C 	C 	0.84010 0.77930 0.39690 -0.18300
H 	H 	0.74490 0.80620 0.42910 0.08500
C 	C 	0.11370 0.70280 0.29810 0.12200
H 	H 	0.20760 0.67690 0.26430 0.01000
C 	C 	0.85190 0.79240 0.30400 0.09400
H 	H 	0.76900 0.82370 0.27380 -0.01700
