data_crystal

_cell_length_a 8.76270
_cell_length_b 13.81170
_cell_length_c 16.61870
_cell_angle_alpha 90.00000
_cell_angle_beta  92.68000
_cell_angle_gamma 90.00000

_symmetry_space_group_name_	'P 1'
_symmetry_space_group_name_H-M	'P 1'

loop_
_symmetry_equiv_pos_as_xyz
  x,y,z

loop_
_atom_site_label
_atom_site_type_symbol
_atom_site_fract_x
_atom_site_fract_y
_atom_site_fract_z
_atom_site_charge
Zn	Zn	0.43729 0.39910 0.07522 1.23000
Zn	Zn	0.54837 0.10993 0.07748 1.22900
Zn	Zn	0.52121 0.24936 0.74927 1.23400
P 	P 	0.51500 0.38328 0.89473 0.42800
H 	H 	0.61140 0.31460 0.91890 -0.06900
P 	P 	0.50980 0.10673 0.88955 0.42700
H 	H 	0.40160 0.17040 0.90300 -0.06200
P 	P 	0.75520 0.28658 0.12036 0.44900
H 	H 	0.82710 0.26980 0.05370 -0.05200
P 	P 	0.23480 0.22513 0.11389 0.43200
H 	H 	0.12080 0.24140 0.06090 -0.04500
O 	O 	0.40190 0.39630 0.96010 -0.46200
O 	O 	0.43200 0.34790 0.81780 -0.40300
O 	O 	0.60870 0.47390 0.87930 -0.41900
O 	O 	0.60330 0.14720 0.82160 -0.40000
O 	O 	0.60750 0.09730 0.96670 -0.45800
O 	O 	0.43050 0.01210 0.86430 -0.41500
O 	O 	0.68210 0.19180 0.14370 -0.45800
O 	O 	0.64680 0.37060 0.10220 -0.44500
O 	O 	0.87550 0.32040 0.18310 -0.41900
O 	O 	0.29980 0.32320 0.13710 -0.45700
O 	O 	0.16440 0.17750 0.18720 -0.41400
O 	O 	0.34280 0.15580 0.07380 -0.46000
Zn	Zn	0.06271 0.89910 0.42478 1.23200
Zn	Zn	0.95163 0.60993 0.42252 1.23100
Zn	Zn	0.97879 0.74936 0.75073 1.23400
P 	P 	0.98500 0.88328 0.60527 0.42700
H 	H 	0.88860 0.81460 0.58110 -0.06800
P 	P 	0.99020 0.60673 0.61045 0.42700
H 	H 	0.09840 0.67040 0.59700 -0.06100
P 	P 	0.74480 0.78658 0.37964 0.45000
H 	H 	0.67290 0.76980 0.44630 -0.05100
P 	P 	0.26520 0.72513 0.38611 0.43300
H 	H 	0.37920 0.74140 0.43910 -0.04300
O 	O 	0.09810 0.89630 0.53990 -0.46200
O 	O 	0.06800 0.84790 0.68220 -0.40200
O 	O 	0.89130 0.97390 0.62070 -0.42000
O 	O 	0.89670 0.64720 0.67840 -0.40000
O 	O 	0.89250 0.59730 0.53330 -0.45900
O 	O 	0.06950 0.51210 0.63570 -0.41500
O 	O 	0.81790 0.69180 0.35630 -0.45700
O 	O 	0.85320 0.87060 0.39780 -0.44500
O 	O 	0.62450 0.82040 0.31690 -0.42000
O 	O 	0.20020 0.82320 0.36290 -0.45600
O 	O 	0.33560 0.67750 0.31280 -0.41300
O 	O 	0.15720 0.65580 0.42620 -0.45800
Zn	Zn	0.56271 0.60090 0.92478 1.23100
Zn	Zn	0.45163 0.89007 0.92252 1.23000
Zn	Zn	0.47879 0.75064 0.25073 1.23500
P 	P 	0.48500 0.61672 0.10527 0.42900
H 	H 	0.38860 0.68540 0.08110 -0.06800
P 	P 	0.49020 0.89327 0.11045 0.42800
H 	H 	0.59840 0.82960 0.09700 -0.06100
P 	P 	0.24480 0.71342 0.87964 0.45000
H 	H 	0.17290 0.73020 0.94630 -0.05100
P 	P 	0.76520 0.77487 0.88611 0.43300
H 	H 	0.87920 0.75860 0.93910 -0.04500
O 	O 	0.59810 0.60370 0.03990 -0.46200
O 	O 	0.56800 0.65210 0.18220 -0.40300
O 	O 	0.39130 0.52610 0.12070 -0.41900
O 	O 	0.39670 0.85280 0.17840 -0.40000
O 	O 	0.39250 0.90270 0.03330 -0.45800
O 	O 	0.56950 0.98790 0.13570 -0.41500
O 	O 	0.31790 0.80820 0.85630 -0.45800
O 	O 	0.35320 0.62940 0.89780 -0.44500
O 	O 	0.12450 0.67960 0.81690 -0.41900
O 	O 	0.70020 0.67680 0.86290 -0.45700
O 	O 	0.83560 0.82250 0.81280 -0.41400
O 	O 	0.65720 0.84420 0.92620 -0.46000
Zn	Zn	0.93729 0.10090 0.57522 1.23200
Zn	Zn	0.04837 0.39007 0.57748 1.23100
Zn	Zn	0.02121 0.25064 0.24927 1.23400
P 	P 	0.01500 0.11672 0.39473 0.42700
H 	H 	0.11140 0.18540 0.41890 -0.06800
P 	P 	0.00980 0.39327 0.38955 0.42700
H 	H 	0.90160 0.32960 0.40300 -0.06100
P 	P 	0.25520 0.21342 0.62036 0.45000
H 	H 	0.32710 0.23020 0.55370 -0.05100
P 	P 	0.73480 0.27487 0.61389 0.43300
H 	H 	0.62080 0.25860 0.56090 -0.04300
O 	O 	0.90190 0.10370 0.46010 -0.46200
O 	O 	0.93200 0.15210 0.31780 -0.40200
O 	O 	0.10870 0.02610 0.37930 -0.42000
O 	O 	0.10330 0.35280 0.32160 -0.40000
O 	O 	0.10750 0.40270 0.46670 -0.45900
O 	O 	0.93050 0.48790 0.36430 -0.41500
O 	O 	0.18210 0.30820 0.64370 -0.45700
O 	O 	0.14680 0.12940 0.60220 -0.44500
O 	O 	0.37550 0.17960 0.68310 -0.42000
O 	O 	0.79980 0.17680 0.63710 -0.45600
O 	O 	0.66440 0.32250 0.68720 -0.41300
O 	O 	0.84280 0.34420 0.57380 -0.45800
