data_crystal

_cell_length_a 8.87540
_cell_length_b 16.66700
_cell_length_c 13.86400
_cell_angle_alpha 90.00000
_cell_angle_beta  90.00000
_cell_angle_gamma 90.00000

_symmetry_space_group_name_	'P 1'
_symmetry_space_group_name_H-M	'P 1'

loop_
_symmetry_equiv_pos_as_xyz
  x,y,z

loop_
_atom_site_label
_atom_site_type_symbol
_atom_site_fract_x
_atom_site_fract_y
_atom_site_fract_z
_atom_site_charge
Zn	Zn	0.44689 0.92309 0.10618 1.23100
P 	P 	0.50544 0.10828 0.11139 0.43100
P 	P 	0.74170 0.38158 0.22009 0.45700
O 	O 	0.40320 0.03636 0.10220 -0.47300
O 	O 	0.81160 0.35976 0.31549 -0.44200
O 	O 	0.58810 0.12842 0.01851 -0.41200
O 	O 	0.84790 0.40900 0.14380 -0.42700
O 	O 	0.41770 0.18083 0.14900 -0.41000
O 	O 	0.64590 0.31410 0.18073 -0.41700
H 	H 	0.61500 0.09010 0.17400 -0.05500
H 	H 	0.64700 0.44800 0.23900 -0.03800
Zn	Zn	0.05311 0.57691 0.60618 1.21500
P 	P 	0.99456 0.39172 0.61139 0.55500
P 	P 	0.75830 0.11842 0.72009 0.45900
O 	O 	0.09680 0.46364 0.60220 -0.53500
O 	O 	0.68840 0.14024 0.81549 -0.45300
O 	O 	0.91190 0.37158 0.51851 -0.41100
O 	O 	0.65210 0.09100 0.64380 -0.45600
O 	O 	0.08230 0.31917 0.64900 -0.47400
O 	O 	0.85410 0.18590 0.68073 -0.39000
H 	H 	0.88500 0.40990 0.67400 -0.06300
H 	H 	0.85300 0.05200 0.73900 -0.01700
Zn	Zn	0.55311 0.92309 0.39382 1.23300
P 	P 	0.49456 0.10828 0.38861 0.43100
P 	P 	0.25830 0.38158 0.27991 0.45800
O 	O 	0.59680 0.03636 0.39780 -0.45900
O 	O 	0.18840 0.35976 0.18451 -0.48000
O 	O 	0.41190 0.12842 0.48149 -0.42600
O 	O 	0.15210 0.40900 0.35620 -0.49500
O 	O 	0.58230 0.18083 0.35100 -0.39800
O 	O 	0.35410 0.31410 0.31927 -0.43100
H 	H 	0.38500 0.09010 0.32600 -0.06800
H 	H 	0.35300 0.44800 0.26100 -0.04000
Zn	Zn	0.94689 0.57691 0.89382 1.24900
P 	P 	0.00544 0.39172 0.88861 0.31100
P 	P 	0.24170 0.11842 0.77991 0.45500
O 	O 	0.90320 0.46364 0.89780 -0.40100
O 	O 	0.31160 0.14024 0.68451 -0.46800
O 	O 	0.08810 0.37158 0.98149 -0.42500
O 	O 	0.34790 0.09100 0.85620 -0.46800
O 	O 	0.91770 0.31917 0.85100 -0.32600
O 	O 	0.14590 0.18590 0.81927 -0.44700
H 	H 	0.11500 0.40990 0.82600 -0.06100
H 	H 	0.14700 0.05200 0.76100 -0.06000
Zn	Zn	0.55311 0.07691 0.89382 1.23200
P 	P 	0.49456 0.89172 0.88861 0.43100
P 	P 	0.25830 0.61842 0.77991 0.45700
O 	O 	0.59680 0.96364 0.89780 -0.45700
O 	O 	0.18840 0.64024 0.68451 -0.47900
O 	O 	0.41190 0.87158 0.98149 -0.42300
O 	O 	0.15210 0.59100 0.85620 -0.49300
O 	O 	0.58230 0.81917 0.85100 -0.39800
O 	O 	0.35410 0.68590 0.81927 -0.43000
H 	H 	0.38500 0.90990 0.82600 -0.06800
H 	H 	0.35300 0.55200 0.76100 -0.04000
Zn	Zn	0.94689 0.42309 0.39382 1.25000
P 	P 	0.00544 0.60828 0.38861 0.30600
P 	P 	0.24170 0.88158 0.27991 0.45500
O 	O 	0.90320 0.53636 0.39780 -0.39800
O 	O 	0.31160 0.85976 0.18451 -0.47000
O 	O 	0.08810 0.62842 0.48149 -0.42600
O 	O 	0.34790 0.90900 0.35620 -0.46700
O 	O 	0.91770 0.68083 0.35100 -0.32300
O 	O 	0.14590 0.81410 0.31927 -0.44700
H 	H 	0.11500 0.59010 0.32600 -0.06000
H 	H 	0.14700 0.94800 0.26100 -0.06100
Zn	Zn	0.44689 0.07691 0.60618 1.23100
P 	P 	0.50544 0.89172 0.61139 0.43100
P 	P 	0.74170 0.61842 0.72009 0.45700
O 	O 	0.40320 0.96364 0.60220 -0.47400
O 	O 	0.81160 0.64024 0.81549 -0.44200
O 	O 	0.58810 0.87158 0.51851 -0.41200
O 	O 	0.84790 0.59100 0.64380 -0.42700
O 	O 	0.41770 0.81917 0.64900 -0.41000
O 	O 	0.64590 0.68590 0.68073 -0.41700
H 	H 	0.61500 0.90990 0.67400 -0.05600
H 	H 	0.64700 0.55200 0.73900 -0.03700
Zn	Zn	0.05311 0.42309 0.10618 1.21400
P 	P 	0.99456 0.60828 0.11139 0.55800
P 	P 	0.75830 0.88158 0.22009 0.45900
O 	O 	0.09680 0.53636 0.10220 -0.53700
O 	O 	0.68840 0.85976 0.31549 -0.45200
O 	O 	0.91190 0.62842 0.01851 -0.41400
O 	O 	0.65210 0.90900 0.14380 -0.45800
O 	O 	0.08230 0.68083 0.14900 -0.47700
O 	O 	0.85410 0.81410 0.18073 -0.39000
H 	H 	0.88500 0.59010 0.17400 -0.06300
H 	H 	0.85300 0.94800 0.23900 -0.01700
Zn	Zn	0.50000 0.25069 0.25000 1.23400
Zn	Zn	-0.00000 0.24931 0.75000 1.20800
Zn	Zn	0.50000 0.74931 0.75000 1.23400
Zn	Zn	0.00000 0.75069 0.25000 1.20700
