data_crystal

_cell_length_a 11.13450
_cell_length_b 11.16590
_cell_length_c 12.69160
_cell_angle_alpha 88.06700
_cell_angle_beta  88.90700
_cell_angle_gamma 65.22600

_symmetry_space_group_name_	'P 1'
_symmetry_space_group_name_H-M	'P 1'

loop_
_symmetry_equiv_pos_as_xyz
  x,y,z

loop_
_atom_site_label
_atom_site_type_symbol
_atom_site_fract_x
_atom_site_fract_y
_atom_site_fract_z
_atom_site_charge
Cd	Cd	0.29268 0.76106 0.82459 1.20200
O 	O 	0.08170 0.76310 0.88260 -0.36400
O 	O 	0.24550 0.57160 0.84440 -0.38000
N 	N 	0.22860 0.79850 0.64860 -0.22700
N 	N 	0.13310 0.81940 0.49420 -0.09400
N 	N 	0.30610 0.73400 0.17390 -0.08900
N 	N 	0.93410 0.81300 0.21150 -0.04000
N 	N 	0.31310 0.46820 0.30070 -0.08900
N 	N 	0.49340 0.31920 0.22890 -0.24400
N 	N 	0.78950 0.01230 0.16230 -0.22900
N 	N 	0.34600 0.72590 0.00230 -0.22600
C 	C 	0.15850 0.75600 0.58970 0.07400
H 	H 	0.13050 0.69130 0.61090 -0.00500
C 	C 	0.24820 0.89390 0.58810 -0.00200
H 	H 	0.29530 0.94070 0.60920 0.00900
C 	C 	0.18890 0.90910 0.49400 -0.02100
H 	H 	0.18600 0.96820 0.43960 0.03500
C 	C 	0.06000 0.79700 0.40750 -0.22500
H 	H 	0.00160 0.88190 0.37680 0.11000
H 	H 	0.00530 0.75530 0.43620 0.09600
C 	C 	0.14900 0.71000 0.31840 0.26300
C 	C 	0.23030 0.57380 0.37140 -0.22300
H 	H 	0.28730 0.58440 0.42370 0.10100
H 	H 	0.16960 0.54520 0.40850 0.09100
C 	C 	0.27320 0.39860 0.23220 -0.02700
H 	H 	0.18670 0.41120 0.21910 0.03600
C 	C 	0.05720 0.69500 0.23520 -0.60700
H 	H 	0.10700 0.66700 0.17010 0.23200
H 	H 	0.03300 0.64500 0.25900 0.31700
C 	C 	0.81050 0.81360 0.22010 -0.04900
H 	H 	0.79100 0.74360 0.24290 0.04500
C 	C 	0.23650 0.77900 0.27490 -0.21100
H 	H 	0.18070 0.87270 0.26710 0.10100
H 	H 	0.30220 0.76840 0.32770 0.10000
C 	C 	0.25490 0.77220 0.07670 0.06800
H 	H 	0.16610 0.82500 0.06360 0.00400
C 	C 	0.46280 0.65620 0.05540 0.00500
H 	H 	0.54510 0.61220 0.02380 0.02000
C 	C 	0.43920 0.66160 0.16050 -0.01700
H 	H 	0.50140 0.62340 0.21350 0.03800
C 	C 	0.91620 0.93520 0.17750 0.05100
H 	H 	0.98430 0.96170 0.16630 0.01000
C 	C 	0.72300 0.93540 0.18920 0.01500
H 	H 	0.63180 0.96330 0.18630 0.00500
C 	C 	0.38490 0.30800 0.18760 0.01300
H 	H 	0.38780 0.24800 0.13740 0.00800
C 	C 	0.44640 0.41500 0.29700 0.07500
H 	H 	0.49860 0.44240 0.33730 -0.01500
C 	C 	0.13440 0.63800 0.88490 0.28200
C 	C 	0.06370 0.56570 0.94290 -0.05700
C 	C 	0.93610 0.63480 0.98290 -0.03600
H 	H 	0.89330 0.72570 0.97180 0.05500
C 	C 	0.12700 0.43050 0.96120 -0.03100
H 	H 	0.21240 0.38360 0.93570 0.04900
Cd	Cd	0.70732 0.23894 0.17541 1.20100
O 	O 	0.91830 0.23690 0.11740 -0.36500
O 	O 	0.75450 0.42840 0.15560 -0.38100
N 	N 	0.77140 0.20150 0.35140 -0.22800
N 	N 	0.86690 0.18060 0.50580 -0.09400
N 	N 	0.69390 0.26600 0.82610 -0.08900
N 	N 	0.06590 0.18700 0.78850 -0.04000
N 	N 	0.68690 0.53180 0.69930 -0.08900
N 	N 	0.50660 0.68080 0.77110 -0.24400
N 	N 	0.21050 0.98770 0.83770 -0.22900
N 	N 	0.65400 0.27410 0.99770 -0.22600
C 	C 	0.84150 0.24400 0.41030 0.07400
H 	H 	0.86950 0.30870 0.38910 -0.00500
C 	C 	0.75180 0.10610 0.41190 -0.00200
H 	H 	0.70470 0.05930 0.39080 0.00900
C 	C 	0.81110 0.09090 0.50600 -0.02100
H 	H 	0.81400 0.03180 0.56040 0.03500
C 	C 	0.94000 0.20300 0.59250 -0.22500
H 	H 	0.99840 0.11810 0.62320 0.11000
H 	H 	0.99470 0.24470 0.56380 0.09600
C 	C 	0.85100 0.29000 0.68160 0.26300
C 	C 	0.76970 0.42620 0.62860 -0.22300
H 	H 	0.71270 0.41560 0.57630 0.10100
H 	H 	0.83040 0.45480 0.59150 0.09100
C 	C 	0.72680 0.60140 0.76780 -0.02700
H 	H 	0.81330 0.58880 0.78090 0.03600
C 	C 	0.94280 0.30500 0.76480 -0.60700
H 	H 	0.89300 0.33300 0.82990 0.23200
H 	H 	0.96700 0.35500 0.74100 0.31700
C 	C 	0.18950 0.18640 0.77990 -0.04900
H 	H 	0.20900 0.25640 0.75710 0.04500
C 	C 	0.76350 0.22100 0.72510 -0.21100
H 	H 	0.81930 0.12730 0.73290 0.10100
H 	H 	0.69780 0.23160 0.67230 0.10000
C 	C 	0.74510 0.22780 0.92330 0.06800
H 	H 	0.83390 0.17500 0.93640 0.00400
C 	C 	0.53720 0.34380 0.94460 0.00500
H 	H 	0.45490 0.38780 0.97620 0.02000
C 	C 	0.56080 0.33840 0.83950 -0.01700
H 	H 	0.49860 0.37660 0.78650 0.03800
C 	C 	0.08380 0.06480 0.82250 0.05100
H 	H 	0.01570 0.03830 0.83370 0.01000
C 	C 	0.27700 0.06460 0.81080 0.01500
H 	H 	0.36820 0.03670 0.81370 0.00500
C 	C 	0.61510 0.69200 0.81240 0.01300
H 	H 	0.61220 0.75200 0.86260 0.00800
C 	C 	0.55360 0.58500 0.70300 0.07500
H 	H 	0.50140 0.55760 0.66270 -0.01500
C 	C 	0.86560 0.36200 0.11510 0.28200
C 	C 	0.93630 0.43430 0.05710 -0.05700
C 	C 	0.06390 0.36520 0.01710 -0.03600
H 	H 	0.10670 0.27430 0.02820 0.05500
C 	C 	0.87300 0.56950 0.03880 -0.03100
H 	H 	0.78760 0.61640 0.06430 0.04900
