data_crystal

_cell_length_a 10.58510
_cell_length_b 10.78830
_cell_length_c 12.87270
_cell_angle_alpha 73.87800
_cell_angle_beta  67.67700
_cell_angle_gamma 81.16000

_symmetry_space_group_name_	'P 1'
_symmetry_space_group_name_H-M	'P 1'

loop_
_symmetry_equiv_pos_as_xyz
  x,y,z

loop_
_atom_site_label
_atom_site_type_symbol
_atom_site_fract_x
_atom_site_fract_y
_atom_site_fract_z
_atom_site_charge
Dy	Dy	0.06145 0.03411 0.31558 1.71400
C 	C 	0.96730 0.24210 0.49130 0.47200
C 	C 	0.03700 0.25630 0.15220 0.30200
C 	C 	0.75010 0.97980 0.54520 0.45600
C 	C 	0.98470 0.37620 0.49290 -0.16000
C 	C 	0.01900 0.38250 0.07420 -0.11500
C 	C 	0.61980 0.98990 0.52390 -0.16300
C 	C 	0.06890 0.46200 0.39600 0.14900
C 	C 	0.12820 0.46460 0.01190 0.12900
C 	C 	0.49590 0.95490 0.61460 0.15000
C 	C 	0.91680 0.41620 0.59540 -0.06900
H 	H 	0.86050 0.35970 0.65940 0.04200
C 	C 	0.89180 0.41860 0.06170 -0.07600
H 	H 	0.81990 0.36410 0.10300 0.06000
C 	C 	0.62200 0.03480 0.41060 -0.06300
H 	H 	0.70420 0.05840 0.35080 0.04700
N 	N 	0.13860 0.43090 0.29271 -0.32700
H 	H 	0.18940 0.48620 0.23560 0.14500
H 	H 	0.13190 0.35600 0.28450 0.18600
N 	N 	0.25400 0.43510 0.01890 -0.32300
H 	H 	0.31820 0.48770 0.97870 0.13800
H 	H 	0.26990 0.36370 0.06360 0.16600
N 	N 	0.48590 0.91000 0.72661 -0.32200
H 	H 	0.40800 0.88890 0.77950 0.13600
H 	H 	0.55740 0.90260 0.74480 0.16600
O 	O 	0.02040 0.21249 0.39423 -0.47100
O 	O 	0.15340 0.22296 0.16249 -0.42800
O 	O 	0.86011 0.00018 0.46072 -0.51800
O 	O 	0.90070 0.16798 0.58451 -0.51700
O 	O 	0.93780 0.18387 0.20915 -0.41900
O 	O 	0.74330 0.95087 0.65014 -0.48800
Dy	Dy	0.93855 0.96589 0.68442 1.71500
C 	C 	0.03270 0.75790 0.50870 0.47300
C 	C 	0.96300 0.74370 0.84780 0.30200
C 	C 	0.24990 0.02020 0.45480 0.45600
C 	C 	0.01530 0.62380 0.50710 -0.16000
C 	C 	0.98100 0.61750 0.92580 -0.11500
C 	C 	0.38020 0.01010 0.47610 -0.16300
C 	C 	0.93110 0.53800 0.60400 0.14900
C 	C 	0.87180 0.53540 0.98810 0.12900
C 	C 	0.50410 0.04510 0.38540 0.15000
C 	C 	0.08320 0.58380 0.40460 -0.06900
H 	H 	0.13950 0.64030 0.34060 0.04200
C 	C 	0.10820 0.58140 0.93830 -0.07600
H 	H 	0.18010 0.63590 0.89700 0.06000
C 	C 	0.37800 0.96520 0.58940 -0.06300
H 	H 	0.29580 0.94160 0.64920 0.04700
N 	N 	0.86140 0.56910 0.70729 -0.32700
H 	H 	0.81060 0.51380 0.76440 0.14500
H 	H 	0.86810 0.64400 0.71550 0.18600
N 	N 	0.74600 0.56490 0.98110 -0.32300
H 	H 	0.68180 0.51230 0.02130 0.13800
H 	H 	0.73010 0.63630 0.93640 0.16600
N 	N 	0.51410 0.09000 0.27339 -0.32200
H 	H 	0.59200 0.11110 0.22050 0.13600
H 	H 	0.44260 0.09740 0.25520 0.16600
O 	O 	0.97960 0.78751 0.60577 -0.47100
O 	O 	0.84660 0.77704 0.83751 -0.42800
O 	O 	0.13989 0.99982 0.53928 -0.51800
O 	O 	0.09930 0.83202 0.41549 -0.51700
O 	O 	0.06220 0.81613 0.79085 -0.41900
O 	O 	0.25670 0.04913 0.34986 -0.48800
