data_crystal

_cell_length_a 24.59070
_cell_length_b 17.88110
_cell_length_c 25.07650
_cell_angle_alpha 90.00000
_cell_angle_beta  104.33500
_cell_angle_gamma 90.00000

_symmetry_space_group_name_	'P 1'
_symmetry_space_group_name_H-M	'P 1'

loop_
_symmetry_equiv_pos_as_xyz
  x,y,z

loop_
_atom_site_label
_atom_site_type_symbol
_atom_site_fract_x
_atom_site_fract_y
_atom_site_fract_z
_atom_site_charge
Dy	Dy	0.40838 0.42356 0.74179 1.72900
Dy	Dy	0.71556 0.80903 0.05628 1.69700
C 	C 	0.52257 0.59365 0.86347 -0.17400
C 	C 	0.51004 0.26961 0.86917 -0.15000
C 	C 	0.74955 0.56417 0.08744 -0.13300
C 	C 	0.57725 0.61812 0.88431 0.10700
H 	H 	0.60620 0.59590 0.87210 -0.00700
C 	C 	0.45774 0.26022 0.88029 0.04900
H 	H 	0.42820 0.29180 0.86420 0.03800
C 	C 	0.71212 0.57898 0.11952 0.04000
H 	H 	0.69410 0.62510 0.11700 0.02900
C 	C 	0.58990 0.67590 0.92358 -0.17400
C 	C 	0.44973 0.20332 0.91568 -0.08500
C 	C 	0.70165 0.52458 0.15549 -0.08700
C 	C 	0.54562 0.70859 0.94094 0.05400
H 	H 	0.55290 0.74690 0.96680 0.03400
C 	C 	0.49347 0.15587 0.93972 -0.00300
H 	H 	0.48780 0.11720 0.96260 0.05200
C 	C 	0.72757 0.45543 0.15861 -0.00500
H 	H 	0.72080 0.41930 0.18290 0.04100
C 	C 	0.49068 0.68427 0.91972 -0.07000
C 	C 	0.54585 0.16654 0.92935 -0.03800
C 	C 	0.76373 0.44014 0.12532 -0.03800
C 	C 	0.47884 0.62580 0.88176 0.05100
H 	H 	0.44230 0.60850 0.86880 0.03200
C 	C 	0.55441 0.22456 0.89444 0.02800
H 	H 	0.58980 0.23250 0.88840 0.03800
C 	C 	0.77504 0.49489 0.08993 0.01200
H 	H 	0.79970 0.48480 0.06800 0.05200
C 	C 	0.50964 0.53066 0.82195 0.48200
C 	C 	0.51672 0.32673 0.82717 0.48600
C 	C 	0.76127 0.62203 0.04791 0.43600
C 	C 	0.64897 0.70109 0.94730 0.47700
C 	C 	0.39206 0.19212 0.92528 0.30600
C 	C 	0.66035 0.53976 0.18969 0.30700
C 	C 	0.44473 0.71960 0.93709 0.10000
C 	C 	0.59190 0.11786 0.95337 0.09300
C 	C 	0.78817 0.36642 0.12612 0.08100
N 	N 	0.40804 0.74580 0.94993 -0.12500
N 	N 	0.62860 0.07839 0.97152 -0.12100
N 	N 	0.80734 0.30793 0.12586 -0.13300
O 	O 	0.46009 0.50797 0.80864 -0.45200
O 	O 	0.47219 0.34834 0.79458 -0.52200
O 	O 	0.74535 0.68832 0.05169 -0.51600
O 	O 	0.54977 0.50711 0.80409 -0.51600
O 	O 	0.56502 0.34629 0.82569 -0.48900
O 	O 	0.78588 0.60037 0.01216 -0.45200
O 	O 	0.68730 0.66780 0.93224 -0.50200
O 	O 	0.35412 0.23873 0.90356 -0.42700
O 	O 	0.62665 0.59302 0.17561 -0.38900
O 	O 	0.65447 0.75451 0.98026 -0.46700
O 	O 	0.38353 0.13822 0.95436 -0.36000
O 	O 	0.66177 0.49957 0.23152 -0.42300
Dy	Dy	0.90838 0.92356 0.74179 1.72800
Dy	Dy	0.21556 0.30903 0.05628 1.69500
C 	C 	0.02257 0.09365 0.86347 -0.17200
C 	C 	0.01004 0.76961 0.86917 -0.14900
C 	C 	0.24955 0.06417 0.08744 -0.13600
C 	C 	0.07725 0.11812 0.88431 0.10800
H 	H 	0.10620 0.09590 0.87210 -0.00600
C 	C 	0.95774 0.76022 0.88029 0.05000
H 	H 	0.92820 0.79180 0.86420 0.03900
C 	C 	0.21212 0.07898 0.11952 0.04400
H 	H 	0.19410 0.12510 0.11700 0.02800
C 	C 	0.08990 0.17590 0.92358 -0.17400
C 	C 	0.94973 0.70332 0.91568 -0.08500
C 	C 	0.20165 0.02458 0.15549 -0.09100
C 	C 	0.04562 0.20859 0.94094 0.05400
H 	H 	0.05290 0.24690 0.96680 0.03400
C 	C 	0.99347 0.65587 0.93972 -0.00300
H 	H 	0.98780 0.61720 0.96260 0.05200
C 	C 	0.22757 0.95543 0.15861 -0.00100
H 	H 	0.22080 0.91930 0.18290 0.04000
C 	C 	0.99068 0.18427 0.91972 -0.07000
C 	C 	0.04585 0.66654 0.92935 -0.03800
C 	C 	0.26373 0.94014 0.12532 -0.04000
C 	C 	0.97884 0.12580 0.88176 0.05100
H 	H 	0.94230 0.10850 0.86880 0.03200
C 	C 	0.05441 0.72456 0.89444 0.02800
H 	H 	0.08980 0.73250 0.88840 0.03800
C 	C 	0.27504 0.99489 0.08993 0.01700
H 	H 	0.29970 0.98480 0.06800 0.05100
C 	C 	0.00964 0.03066 0.82195 0.48200
C 	C 	0.01672 0.82673 0.82717 0.48600
C 	C 	0.26127 0.12203 0.04791 0.43700
C 	C 	0.14897 0.20109 0.94730 0.47700
C 	C 	0.89206 0.69212 0.92528 0.30600
C 	C 	0.16035 0.03976 0.18969 0.30700
C 	C 	0.94473 0.21960 0.93709 0.10000
C 	C 	0.09190 0.61786 0.95337 0.09300
C 	C 	0.28817 0.86642 0.12612 0.08200
N 	N 	0.90804 0.24580 0.94993 -0.12500
N 	N 	0.12860 0.57839 0.97152 -0.12100
N 	N 	0.30734 0.80793 0.12586 -0.13300
O 	O 	0.96009 0.00797 0.80864 -0.45200
O 	O 	0.97219 0.84834 0.79458 -0.52200
O 	O 	0.24535 0.18832 0.05169 -0.51700
O 	O 	0.04977 0.00711 0.80409 -0.51500
O 	O 	0.06502 0.84629 0.82569 -0.48900
O 	O 	0.28588 0.10037 0.01216 -0.45400
O 	O 	0.18730 0.16780 0.93224 -0.50200
O 	O 	0.85412 0.73873 0.90356 -0.42700
O 	O 	0.12665 0.09302 0.17561 -0.38900
O 	O 	0.15447 0.25451 0.98026 -0.46600
O 	O 	0.88353 0.63822 0.95436 -0.36000
O 	O 	0.16177 0.99957 0.23152 -0.42200
Dy	Dy	0.59162 0.42356 0.75821 1.73000
Dy	Dy	0.28444 0.80903 0.44372 1.69600
C 	C 	0.47743 0.59365 0.63653 -0.17200
C 	C 	0.48996 0.26961 0.63083 -0.14900
C 	C 	0.25045 0.56417 0.41256 -0.13200
C 	C 	0.42275 0.61812 0.61569 0.10800
H 	H 	0.39380 0.59590 0.62790 -0.00600
C 	C 	0.54226 0.26022 0.61971 0.05000
H 	H 	0.57180 0.29180 0.63580 0.03900
C 	C 	0.28788 0.57898 0.38048 0.04100
H 	H 	0.30590 0.62510 0.38300 0.02900
C 	C 	0.41010 0.67590 0.57642 -0.17400
C 	C 	0.55027 0.20332 0.58432 -0.08500
C 	C 	0.29835 0.52458 0.34451 -0.08700
C 	C 	0.45438 0.70859 0.55906 0.05400
H 	H 	0.44710 0.74690 0.53320 0.03400
C 	C 	0.50653 0.15587 0.56028 -0.00300
H 	H 	0.51220 0.11720 0.53740 0.05200
C 	C 	0.27243 0.45543 0.34139 -0.00500
H 	H 	0.27920 0.41930 0.31710 0.04100
C 	C 	0.50932 0.68427 0.58028 -0.07000
C 	C 	0.45415 0.16654 0.57065 -0.03800
C 	C 	0.23627 0.44014 0.37468 -0.03800
C 	C 	0.52116 0.62580 0.61824 0.05100
H 	H 	0.55770 0.60850 0.63120 0.03200
C 	C 	0.44559 0.22456 0.60556 0.02800
H 	H 	0.41020 0.23250 0.61160 0.03800
C 	C 	0.22496 0.49489 0.41007 0.01200
H 	H 	0.20030 0.48480 0.43200 0.05200
C 	C 	0.49036 0.53066 0.67805 0.48200
C 	C 	0.48328 0.32673 0.67283 0.48600
C 	C 	0.23873 0.62203 0.45209 0.43600
C 	C 	0.35103 0.70109 0.55270 0.47700
C 	C 	0.60794 0.19212 0.57472 0.30600
C 	C 	0.33965 0.53976 0.31031 0.30700
C 	C 	0.55527 0.71960 0.56291 0.10000
C 	C 	0.40810 0.11786 0.54663 0.09300
C 	C 	0.21183 0.36642 0.37388 0.08100
N 	N 	0.59196 0.74580 0.55007 -0.12500
N 	N 	0.37140 0.07839 0.52848 -0.12100
N 	N 	0.19266 0.30793 0.37414 -0.13300
O 	O 	0.53991 0.50797 0.69136 -0.45200
O 	O 	0.52781 0.34834 0.70542 -0.52200
O 	O 	0.25465 0.68832 0.44831 -0.51600
O 	O 	0.45023 0.50711 0.69591 -0.51600
O 	O 	0.43498 0.34629 0.67431 -0.48900
O 	O 	0.21412 0.60037 0.48784 -0.45200
O 	O 	0.31270 0.66780 0.56776 -0.50200
O 	O 	0.64588 0.23873 0.59644 -0.42700
O 	O 	0.37335 0.59302 0.32439 -0.38900
O 	O 	0.34553 0.75451 0.51974 -0.46600
O 	O 	0.61647 0.13822 0.54564 -0.36000
O 	O 	0.33823 0.49957 0.26848 -0.42300
Dy	Dy	0.09162 0.92356 0.75821 1.72700
Dy	Dy	0.78444 0.30903 0.44372 1.69600
C 	C 	0.97743 0.09365 0.63653 -0.17200
C 	C 	0.98996 0.76961 0.63083 -0.14900
C 	C 	0.75045 0.06417 0.41256 -0.13300
C 	C 	0.92275 0.11812 0.61569 0.10800
H 	H 	0.89380 0.09590 0.62790 -0.00600
C 	C 	0.04226 0.76022 0.61971 0.05000
H 	H 	0.07180 0.79180 0.63580 0.03900
C 	C 	0.78788 0.07898 0.38048 0.04200
H 	H 	0.80590 0.12510 0.38300 0.02800
C 	C 	0.91010 0.17590 0.57642 -0.17400
C 	C 	0.05027 0.70332 0.58432 -0.08500
C 	C 	0.79835 0.02458 0.34451 -0.08900
C 	C 	0.95438 0.20859 0.55906 0.05400
H 	H 	0.94710 0.24690 0.53320 0.03400
C 	C 	0.00653 0.65587 0.56028 -0.00300
H 	H 	0.01220 0.61720 0.53740 0.05200
C 	C 	0.77243 0.95543 0.34139 -0.00300
H 	H 	0.77920 0.91930 0.31710 0.04100
C 	C 	0.00932 0.18427 0.58028 -0.07000
C 	C 	0.95415 0.66654 0.57065 -0.03800
C 	C 	0.73627 0.94014 0.37468 -0.03900
C 	C 	0.02116 0.12580 0.61824 0.05100
H 	H 	0.05770 0.10850 0.63120 0.03200
C 	C 	0.94559 0.72456 0.60556 0.02800
H 	H 	0.91020 0.73250 0.61160 0.03800
C 	C 	0.72496 0.99489 0.41007 0.01300
H 	H 	0.70030 0.98480 0.43200 0.05200
C 	C 	0.99036 0.03066 0.67805 0.48200
C 	C 	0.98328 0.82673 0.67283 0.48600
C 	C 	0.73873 0.12203 0.45209 0.43600
C 	C 	0.85103 0.20109 0.55270 0.47700
C 	C 	0.10794 0.69212 0.57472 0.30600
C 	C 	0.83965 0.03976 0.31031 0.30600
C 	C 	0.05527 0.21960 0.56291 0.10000
C 	C 	0.90810 0.61786 0.54663 0.09300
C 	C 	0.71183 0.86642 0.37388 0.08100
N 	N 	0.09196 0.24580 0.55007 -0.12500
N 	N 	0.87140 0.57839 0.52848 -0.12100
N 	N 	0.69266 0.80793 0.37414 -0.13300
O 	O 	0.03991 0.00797 0.69136 -0.45100
O 	O 	0.02781 0.84834 0.70542 -0.52200
O 	O 	0.75465 0.18832 0.44831 -0.51600
O 	O 	0.95023 0.00711 0.69591 -0.51600
O 	O 	0.93498 0.84629 0.67431 -0.48900
O 	O 	0.71412 0.10037 0.48784 -0.45300
O 	O 	0.81270 0.16780 0.56776 -0.50200
O 	O 	0.14588 0.73873 0.59644 -0.42700
O 	O 	0.87335 0.09302 0.32439 -0.38900
O 	O 	0.84553 0.25451 0.51974 -0.46600
O 	O 	0.11647 0.63822 0.54564 -0.36000
O 	O 	0.83823 0.99957 0.26848 -0.42200
Dy	Dy	0.59162 0.57644 0.25821 1.73000
Dy	Dy	0.28444 0.19097 0.94372 1.69800
C 	C 	0.47743 0.40635 0.13653 -0.17300
C 	C 	0.48996 0.73039 0.13083 -0.14900
C 	C 	0.25045 0.43583 0.91256 -0.13200
C 	C 	0.42275 0.38188 0.11569 0.10800
H 	H 	0.39380 0.40410 0.12790 -0.00600
C 	C 	0.54226 0.73978 0.11971 0.05000
H 	H 	0.57180 0.70820 0.13580 0.03900
C 	C 	0.28788 0.42102 0.88048 0.04100
H 	H 	0.30590 0.37490 0.88300 0.02900
C 	C 	0.41010 0.32410 0.07642 -0.17400
C 	C 	0.55027 0.79668 0.08432 -0.08500
C 	C 	0.29835 0.47542 0.84451 -0.08700
C 	C 	0.45438 0.29141 0.05906 0.05400
H 	H 	0.44710 0.25310 0.03320 0.03400
C 	C 	0.50653 0.84413 0.06028 -0.00300
H 	H 	0.51220 0.88280 0.03740 0.05200
C 	C 	0.27243 0.54457 0.84139 -0.00500
H 	H 	0.27920 0.58070 0.81710 0.04100
C 	C 	0.50932 0.31573 0.08028 -0.07000
C 	C 	0.45415 0.83346 0.07065 -0.03800
C 	C 	0.23627 0.55986 0.87468 -0.03800
C 	C 	0.52116 0.37420 0.11824 0.05100
H 	H 	0.55770 0.39150 0.13120 0.03200
C 	C 	0.44559 0.77544 0.10556 0.02800
H 	H 	0.41020 0.76750 0.11160 0.03800
C 	C 	0.22496 0.50511 0.91007 0.01200
H 	H 	0.20030 0.51520 0.93200 0.05200
C 	C 	0.49036 0.46934 0.17805 0.48200
C 	C 	0.48328 0.67327 0.17283 0.48600
C 	C 	0.23873 0.37797 0.95209 0.43600
C 	C 	0.35103 0.29891 0.05270 0.47700
C 	C 	0.60794 0.80788 0.07472 0.30600
C 	C 	0.33965 0.46024 0.81031 0.30700
C 	C 	0.55527 0.28040 0.06291 0.10000
C 	C 	0.40810 0.88214 0.04663 0.09300
C 	C 	0.21183 0.63358 0.87388 0.08100
N 	N 	0.59196 0.25420 0.05007 -0.12500
N 	N 	0.37140 0.92161 0.02848 -0.12100
N 	N 	0.19266 0.69207 0.87414 -0.13300
O 	O 	0.53991 0.49203 0.19136 -0.45200
O 	O 	0.52781 0.65166 0.20542 -0.52200
O 	O 	0.25465 0.31168 0.94831 -0.51600
O 	O 	0.45023 0.49289 0.19591 -0.51600
O 	O 	0.43498 0.65371 0.17431 -0.48900
O 	O 	0.21412 0.39963 0.98784 -0.45200
O 	O 	0.31270 0.33220 0.06776 -0.50200
O 	O 	0.64588 0.76127 0.09644 -0.42700
O 	O 	0.37335 0.40698 0.82439 -0.38900
O 	O 	0.34553 0.24549 0.01974 -0.46700
O 	O 	0.61647 0.86178 0.04564 -0.36000
O 	O 	0.33823 0.50043 0.76848 -0.42300
Dy	Dy	0.09162 0.07644 0.25821 1.72800
Dy	Dy	0.78444 0.69097 0.94372 1.69500
C 	C 	0.97743 0.90635 0.13653 -0.17200
C 	C 	0.98996 0.23039 0.13083 -0.14900
C 	C 	0.75045 0.93583 0.91256 -0.13600
C 	C 	0.92275 0.88188 0.11569 0.10800
H 	H 	0.89380 0.90410 0.12790 -0.00600
C 	C 	0.04226 0.23978 0.11971 0.05000
H 	H 	0.07180 0.20820 0.13580 0.03900
C 	C 	0.78788 0.92102 0.88048 0.04400
H 	H 	0.80590 0.87490 0.88300 0.02800
C 	C 	0.91010 0.82410 0.07642 -0.17400
C 	C 	0.05027 0.29668 0.08432 -0.08500
C 	C 	0.79835 0.97542 0.84451 -0.09100
C 	C 	0.95438 0.79141 0.05906 0.05400
H 	H 	0.94710 0.75310 0.03320 0.03400
C 	C 	0.00653 0.34413 0.06028 -0.00300
H 	H 	0.01220 0.38280 0.03740 0.05200
C 	C 	0.77243 0.04457 0.84139 -0.00100
H 	H 	0.77920 0.08070 0.81710 0.04000
C 	C 	0.00932 0.81573 0.08028 -0.07000
C 	C 	0.95415 0.33346 0.07065 -0.03800
C 	C 	0.73627 0.05986 0.87468 -0.04000
C 	C 	0.02116 0.87420 0.11824 0.05100
H 	H 	0.05770 0.89150 0.13120 0.03200
C 	C 	0.94559 0.27544 0.10556 0.02800
H 	H 	0.91020 0.26750 0.11160 0.03800
C 	C 	0.72496 0.00511 0.91007 0.01700
H 	H 	0.70030 0.01520 0.93200 0.05100
C 	C 	0.99036 0.96934 0.17805 0.48200
C 	C 	0.98328 0.17327 0.17283 0.48600
C 	C 	0.73873 0.87797 0.95209 0.43700
C 	C 	0.85103 0.79891 0.05270 0.47700
C 	C 	0.10794 0.30788 0.07472 0.30600
C 	C 	0.83965 0.96024 0.81031 0.30700
C 	C 	0.05527 0.78040 0.06291 0.10000
C 	C 	0.90810 0.38214 0.04663 0.09300
C 	C 	0.71183 0.13358 0.87388 0.08200
N 	N 	0.09196 0.75420 0.05007 -0.12500
N 	N 	0.87140 0.42161 0.02848 -0.12100
N 	N 	0.69266 0.19207 0.87414 -0.13300
O 	O 	0.03991 0.99203 0.19136 -0.45200
O 	O 	0.02781 0.15166 0.20542 -0.52200
O 	O 	0.75465 0.81168 0.94831 -0.51700
O 	O 	0.95023 0.99289 0.19591 -0.51500
O 	O 	0.93498 0.15371 0.17431 -0.48900
O 	O 	0.71412 0.89963 0.98784 -0.45400
O 	O 	0.81270 0.83220 0.06776 -0.50200
O 	O 	0.14588 0.26127 0.09644 -0.42700
O 	O 	0.87335 0.90698 0.82439 -0.38900
O 	O 	0.84553 0.74549 0.01974 -0.46600
O 	O 	0.11647 0.36178 0.04564 -0.36000
O 	O 	0.83823 0.00043 0.76848 -0.42200
Dy	Dy	0.40838 0.57644 0.24179 1.73000
Dy	Dy	0.71556 0.19097 0.55628 1.69600
C 	C 	0.52257 0.40635 0.36347 -0.17200
C 	C 	0.51004 0.73039 0.36917 -0.14900
C 	C 	0.74955 0.43583 0.58744 -0.13200
C 	C 	0.57725 0.38188 0.38431 0.10800
H 	H 	0.60620 0.40410 0.37210 -0.00600
C 	C 	0.45774 0.73978 0.38029 0.05000
H 	H 	0.42820 0.70820 0.36420 0.03900
C 	C 	0.71212 0.42102 0.61952 0.04100
H 	H 	0.69410 0.37490 0.61700 0.02900
C 	C 	0.58990 0.32410 0.42358 -0.17400
C 	C 	0.44973 0.79668 0.41568 -0.08500
C 	C 	0.70165 0.47542 0.65549 -0.08700
C 	C 	0.54562 0.29141 0.44094 0.05400
H 	H 	0.55290 0.25310 0.46680 0.03400
C 	C 	0.49347 0.84413 0.43972 -0.00300
H 	H 	0.48780 0.88280 0.46260 0.05200
C 	C 	0.72757 0.54457 0.65861 -0.00500
H 	H 	0.72080 0.58070 0.68290 0.04100
C 	C 	0.49068 0.31573 0.41972 -0.07000
C 	C 	0.54585 0.83346 0.42935 -0.03800
C 	C 	0.76373 0.55986 0.62532 -0.03800
C 	C 	0.47884 0.37420 0.38176 0.05100
H 	H 	0.44230 0.39150 0.36880 0.03200
C 	C 	0.55441 0.77544 0.39444 0.02800
H 	H 	0.58980 0.76750 0.38840 0.03800
C 	C 	0.77504 0.50511 0.58993 0.01200
H 	H 	0.79970 0.51520 0.56800 0.05200
C 	C 	0.50964 0.46934 0.32195 0.48200
C 	C 	0.51672 0.67327 0.32717 0.48600
C 	C 	0.76127 0.37797 0.54791 0.43600
C 	C 	0.64897 0.29891 0.44730 0.47700
C 	C 	0.39206 0.80788 0.42528 0.30600
C 	C 	0.66035 0.46024 0.68969 0.30700
C 	C 	0.44473 0.28040 0.43709 0.10000
C 	C 	0.59190 0.88214 0.45337 0.09300
C 	C 	0.78817 0.63358 0.62612 0.08100
N 	N 	0.40804 0.25420 0.44993 -0.12500
N 	N 	0.62860 0.92161 0.47152 -0.12100
N 	N 	0.80734 0.69207 0.62586 -0.13300
O 	O 	0.46009 0.49203 0.30864 -0.45200
O 	O 	0.47219 0.65166 0.29458 -0.52200
O 	O 	0.74535 0.31168 0.55169 -0.51600
O 	O 	0.54977 0.49289 0.30409 -0.51600
O 	O 	0.56502 0.65371 0.32569 -0.48900
O 	O 	0.78588 0.39963 0.51216 -0.45200
O 	O 	0.68730 0.33220 0.43224 -0.50200
O 	O 	0.35412 0.76127 0.40356 -0.42700
O 	O 	0.62665 0.40698 0.67561 -0.38900
O 	O 	0.65447 0.24549 0.48026 -0.46600
O 	O 	0.38353 0.86178 0.45436 -0.36000
O 	O 	0.66177 0.50043 0.73152 -0.42300
Dy	Dy	0.90838 0.07644 0.24179 1.72700
Dy	Dy	0.21556 0.69097 0.55628 1.69600
C 	C 	0.02257 0.90635 0.36347 -0.17200
C 	C 	0.01004 0.23039 0.36917 -0.14900
C 	C 	0.24955 0.93583 0.58744 -0.13300
C 	C 	0.07725 0.88188 0.38431 0.10800
H 	H 	0.10620 0.90410 0.37210 -0.00600
C 	C 	0.95774 0.23978 0.38029 0.05000
H 	H 	0.92820 0.20820 0.36420 0.03900
C 	C 	0.21212 0.92102 0.61952 0.04200
H 	H 	0.19410 0.87490 0.61700 0.02800
C 	C 	0.08990 0.82410 0.42358 -0.17400
C 	C 	0.94973 0.29668 0.41568 -0.08500
C 	C 	0.20165 0.97542 0.65549 -0.08900
C 	C 	0.04562 0.79141 0.44094 0.05400
H 	H 	0.05290 0.75310 0.46680 0.03400
C 	C 	0.99347 0.34413 0.43972 -0.00300
H 	H 	0.98780 0.38280 0.46260 0.05200
C 	C 	0.22757 0.04457 0.65861 -0.00300
H 	H 	0.22080 0.08070 0.68290 0.04100
C 	C 	0.99068 0.81573 0.41972 -0.07000
C 	C 	0.04585 0.33346 0.42935 -0.03800
C 	C 	0.26373 0.05986 0.62532 -0.03900
C 	C 	0.97884 0.87420 0.38176 0.05100
H 	H 	0.94230 0.89150 0.36880 0.03200
C 	C 	0.05441 0.27544 0.39444 0.02800
H 	H 	0.08980 0.26750 0.38840 0.03800
C 	C 	0.27504 0.00511 0.58993 0.01300
H 	H 	0.29970 0.01520 0.56800 0.05200
C 	C 	0.00964 0.96934 0.32195 0.48200
C 	C 	0.01672 0.17327 0.32717 0.48600
C 	C 	0.26127 0.87797 0.54791 0.43600
C 	C 	0.14897 0.79891 0.44730 0.47700
C 	C 	0.89206 0.30788 0.42528 0.30600
C 	C 	0.16035 0.96024 0.68969 0.30600
C 	C 	0.94473 0.78040 0.43709 0.10000
C 	C 	0.09190 0.38214 0.45337 0.09300
C 	C 	0.28817 0.13358 0.62612 0.08100
N 	N 	0.90804 0.75420 0.44993 -0.12500
N 	N 	0.12860 0.42161 0.47152 -0.12100
N 	N 	0.30734 0.19207 0.62586 -0.13300
O 	O 	0.96009 0.99203 0.30864 -0.45100
O 	O 	0.97219 0.15166 0.29458 -0.52200
O 	O 	0.24535 0.81168 0.55169 -0.51600
O 	O 	0.04977 0.99289 0.30409 -0.51600
O 	O 	0.06502 0.15371 0.32569 -0.48900
O 	O 	0.28588 0.89963 0.51216 -0.45300
O 	O 	0.18730 0.83220 0.43224 -0.50200
O 	O 	0.85412 0.26127 0.40356 -0.42700
O 	O 	0.12665 0.90698 0.67561 -0.38900
O 	O 	0.15447 0.74549 0.48026 -0.46600
O 	O 	0.88353 0.36178 0.45436 -0.36000
O 	O 	0.16177 0.00043 0.73152 -0.42200
