data_crystal

_cell_length_a 10.76730
_cell_length_b 11.02090
_cell_length_c 13.09180
_cell_angle_alpha 105.06400
_cell_angle_beta  94.85400
_cell_angle_gamma 93.84700

_symmetry_space_group_name_	'P 1'
_symmetry_space_group_name_H-M	'P 1'

loop_
_symmetry_equiv_pos_as_xyz
  x,y,z

loop_
_atom_site_label
_atom_site_type_symbol
_atom_site_fract_x
_atom_site_fract_y
_atom_site_fract_z
_atom_site_charge
Dy	Dy	0.03020 0.55128 0.17541 1.75400
C 	C 	0.99540 0.73880 0.00920 0.50900
C 	C 	0.01180 0.76710 0.33520 0.33700
C 	C 	0.23280 0.51920 0.98570 0.52600
C 	C 	0.99830 0.87500 0.00710 -0.17400
C 	C 	0.00420 0.88760 0.42020 -0.10800
C 	C 	0.37150 0.51000 0.99110 -0.17600
C 	C 	0.10800 0.93490 0.98520 0.05800
C 	C 	0.05090 0.00070 0.40520 0.04600
C 	C 	0.42540 0.43460 0.90730 0.13900
C 	C 	0.22110 0.87700 0.97500 -0.09500
H 	H 	0.22410 0.79630 0.98410 0.06500
C 	C 	0.09920 0.00760 0.30540 -0.07300
H 	H 	0.09920 0.93470 0.25030 0.07500
C 	C 	0.44760 0.57400 0.08120 -0.05500
H 	H 	0.41160 0.62530 0.13700 0.04800
C 	C 	0.32430 0.93560 0.95250 -0.02300
H 	H 	0.39660 0.89390 0.94420 0.03400
C 	C 	0.14470 0.12200 0.29310 -0.03400
H 	H 	0.17590 0.12540 0.22970 0.04100
C 	C 	0.32510 0.05880 0.94140 -0.02900
H 	H 	0.39780 0.09910 0.92730 0.03700
C 	C 	0.14490 0.23450 0.37500 -0.02900
H 	H 	0.17840 0.31080 0.36630 0.01000
C 	C 	0.21980 0.11830 0.95150 -0.08800
H 	H 	0.22030 0.19880 0.94130 0.06400
C 	C 	0.09520 0.23070 0.46750 -0.08000
H 	H 	0.09180 0.30570 0.51960 0.04400
C 	C 	0.89270 0.93800 0.02270 0.06000
C 	C 	0.95140 0.88550 0.51410 0.04100
N 	N 	0.35100 0.36000 0.81380 -0.32100
H 	H 	0.38540 0.31000 0.76470 0.15300
H 	H 	0.27140 0.36540 0.80660 0.18300
O 	O 	0.00920 0.71730 0.09650 -0.48500
O 	O 	0.91140 0.70720 0.28790 -0.41000
O 	O 	0.18870 0.55810 0.07210 -0.53400
O 	O 	0.97750 0.65870 0.92200 -0.53000
O 	O 	0.11620 0.72880 0.31720 -0.44000
O 	O 	0.17240 0.49250 0.89840 -0.54100
Dy	Dy	0.96980 0.44872 0.82459 1.75500
C 	C 	0.00460 0.26120 0.99080 0.51000
C 	C 	0.98820 0.23290 0.66480 0.33700
C 	C 	0.76720 0.48080 0.01430 0.52600
C 	C 	0.00170 0.12500 0.99290 -0.17400
C 	C 	0.99580 0.11240 0.57980 -0.10800
C 	C 	0.62850 0.49000 0.00890 -0.17600
C 	C 	0.89200 0.06510 0.01480 0.05800
C 	C 	0.94910 0.99930 0.59480 0.04600
C 	C 	0.57460 0.56540 0.09270 0.13900
C 	C 	0.77890 0.12300 0.02500 -0.09500
H 	H 	0.77590 0.20370 0.01590 0.06500
C 	C 	0.90080 0.99240 0.69460 -0.07300
H 	H 	0.90080 0.06530 0.74970 0.07500
C 	C 	0.55240 0.42600 0.91880 -0.05500
H 	H 	0.58840 0.37470 0.86300 0.04800
C 	C 	0.67570 0.06440 0.04750 -0.02300
H 	H 	0.60340 0.10610 0.05580 0.03400
C 	C 	0.85530 0.87800 0.70690 -0.03400
H 	H 	0.82410 0.87460 0.77030 0.04100
C 	C 	0.67490 0.94120 0.05860 -0.02900
H 	H 	0.60220 0.90090 0.07270 0.03700
C 	C 	0.85510 0.76550 0.62500 -0.02900
H 	H 	0.82160 0.68920 0.63370 0.01000
C 	C 	0.78020 0.88170 0.04850 -0.08800
H 	H 	0.77970 0.80120 0.05870 0.06400
C 	C 	0.90480 0.76930 0.53250 -0.08000
H 	H 	0.90820 0.69430 0.48040 0.04400
C 	C 	0.10730 0.06200 0.97730 0.06000
C 	C 	0.04860 0.11450 0.48590 0.04100
N 	N 	0.64900 0.64000 0.18620 -0.32100
H 	H 	0.61460 0.69000 0.23530 0.15300
H 	H 	0.72860 0.63460 0.19340 0.18300
O 	O 	0.99080 0.28270 0.90350 -0.48500
O 	O 	0.08860 0.29280 0.71210 -0.41000
O 	O 	0.81130 0.44190 0.92790 -0.53400
O 	O 	0.02250 0.34130 0.07800 -0.53000
O 	O 	0.88380 0.27120 0.68280 -0.44000
O 	O 	0.82760 0.50750 0.10160 -0.54100
