data_crystal

_cell_length_a 10.95390
_cell_length_b 11.41710
_cell_length_c 12.33770
_cell_angle_alpha 85.65400
_cell_angle_beta  72.96300
_cell_angle_gamma 69.62400

_symmetry_space_group_name_	'P 1'
_symmetry_space_group_name_H-M	'P 1'

loop_
_symmetry_equiv_pos_as_xyz
  x,y,z

loop_
_atom_site_label
_atom_site_type_symbol
_atom_site_fract_x
_atom_site_fract_y
_atom_site_fract_z
_atom_site_charge
Cu	Cu	0.53616 0.41729 0.78402 0.78900
Cu	Cu	0.66442 0.00277 0.48298 0.77700
C 	C 	0.67670 0.14490 0.77200 0.08200
H 	H 	0.69320 0.14050 0.84230 -0.02100
C 	C 	0.60710 0.21160 0.63230 0.09400
H 	H 	0.56500 0.26650 0.58390 -0.09300
C 	C 	0.80580 0.91700 0.70400 0.02200
H 	H 	0.75130 0.86520 0.70630 -0.01800
H 	H 	0.88150 0.89390 0.63560 -0.02400
C 	C 	0.86070 0.89040 0.80660 -0.20600
C 	C 	0.78790 0.84800 0.90500 0.29100
C 	C 	0.85020 0.80400 0.99220 -0.24000
C 	C 	0.97520 0.81170 0.98560 0.28700
C 	C 	0.04210 0.86400 0.88990 -0.19000
C 	C 	0.98810 0.90020 0.79830 0.20000
C 	C 	0.06060 0.95030 0.68930 -0.54500
H 	H 	0.03020 0.93570 0.62770 0.16000
H 	H 	0.04000 0.03840 0.69890 0.14600
H 	H 	0.15690 0.90820 0.67290 0.13200
C 	C 	0.17160 0.88380 0.89000 -0.00500
H 	H 	0.15380 0.93390 0.95660 0.03600
H 	H 	0.19900 0.93020 0.82370 0.02600
C 	C 	0.64650 0.84960 0.91550 -0.78500
H 	H 	0.65140 0.78810 0.86400 0.24400
H 	H 	0.60540 0.83090 0.99180 0.25800
H 	H 	0.59280 0.93090 0.89750 0.26700
C 	C 	0.32170 0.65910 0.83300 0.06500
H 	H 	0.27860 0.64440 0.78340 -0.04200
C 	C 	0.45500 0.64140 0.93260 0.05300
H 	H 	0.52670 0.60750 0.96430 -0.06100
C 	C 	0.77700 0.74790 0.09460 0.05400
H 	H 	0.84220 0.67630 0.11810 -0.01100
H 	H 	0.71280 0.71900 0.07450 -0.02100
C 	C 	0.73060 0.83740 0.28770 0.06500
H 	H 	0.79390 0.77140 0.31220 -0.05800
C 	C 	0.03980 0.76990 0.07940 -0.75600
H 	H 	0.09810 0.68420 0.06570 0.23300
H 	H 	0.09240 0.82090 0.08260 0.25000
H 	H 	0.97060 0.77790 0.15010 0.23800
C 	C 	0.57440 0.00800 0.27730 0.05700
H 	H 	0.50580 0.08530 0.29660 -0.05700
N 	N 	0.60500 0.24650 0.73120 -0.29100
N 	N 	0.67430 0.09090 0.60630 -0.24900
N 	N 	0.72250 0.04930 0.69870 -0.11500
N 	N 	0.28490 0.76530 0.88950 -0.10600
N 	N 	0.36900 0.75530 0.95510 -0.12200
N 	N 	0.42910 0.57670 0.85760 -0.28600
N 	N 	0.70440 0.84000 0.18900 -0.11500
N 	N 	0.60900 0.94610 0.17860 -0.10300
N 	N 	0.65220 0.94390 0.34670 -0.30300
Cu	Cu	0.46384 0.58271 0.21598 0.78800
Cu	Cu	0.33558 0.99723 0.51702 0.77600
C 	C 	0.32330 0.85510 0.22800 0.08100
H 	H 	0.30680 0.85950 0.15770 -0.02200
C 	C 	0.39290 0.78840 0.36770 0.09300
H 	H 	0.43500 0.73350 0.41610 -0.09400
C 	C 	0.19420 0.08300 0.29600 0.02200
H 	H 	0.24870 0.13480 0.29370 -0.01800
H 	H 	0.11850 0.10610 0.36440 -0.02400
C 	C 	0.13930 0.10960 0.19340 -0.20600
C 	C 	0.21210 0.15200 0.09500 0.29100
C 	C 	0.14980 0.19600 0.00780 -0.24000
C 	C 	0.02480 0.18830 0.01440 0.28700
C 	C 	0.95790 0.13600 0.11010 -0.19000
C 	C 	0.01190 0.09980 0.20170 0.20000
C 	C 	0.93940 0.04970 0.31070 -0.54500
H 	H 	0.96980 0.06430 0.37230 0.16000
H 	H 	0.96000 0.96160 0.30110 0.14600
H 	H 	0.84310 0.09180 0.32710 0.13200
C 	C 	0.82840 0.11620 0.11000 -0.00500
H 	H 	0.84620 0.06610 0.04340 0.03600
H 	H 	0.80100 0.06980 0.17630 0.02600
C 	C 	0.35350 0.15040 0.08450 -0.78500
H 	H 	0.34860 0.21190 0.13600 0.24400
H 	H 	0.39460 0.16910 0.00820 0.25800
H 	H 	0.40720 0.06910 0.10250 0.26700
C 	C 	0.67830 0.34090 0.16700 0.06500
H 	H 	0.72140 0.35560 0.21660 -0.04200
C 	C 	0.54500 0.35860 0.06740 0.05300
H 	H 	0.47330 0.39250 0.03570 -0.06100
C 	C 	0.22300 0.25210 0.90540 0.05400
H 	H 	0.15780 0.32370 0.88190 -0.01100
H 	H 	0.28720 0.28100 0.92550 -0.02100
C 	C 	0.26940 0.16260 0.71230 0.06500
H 	H 	0.20610 0.22860 0.68780 -0.05800
C 	C 	0.96020 0.23010 0.92060 -0.75600
H 	H 	0.90190 0.31580 0.93430 0.23300
H 	H 	0.90760 0.17910 0.91740 0.25000
H 	H 	0.02940 0.22210 0.84990 0.23800
C 	C 	0.42560 0.99200 0.72270 0.05700
H 	H 	0.49420 0.91470 0.70340 -0.05700
N 	N 	0.39500 0.75350 0.26880 -0.29100
N 	N 	0.32570 0.90910 0.39370 -0.24900
N 	N 	0.27750 0.95070 0.30130 -0.11500
N 	N 	0.71510 0.23470 0.11050 -0.10600
N 	N 	0.63100 0.24470 0.04490 -0.12200
N 	N 	0.57090 0.42330 0.14240 -0.28600
N 	N 	0.29560 0.16000 0.81100 -0.11500
N 	N 	0.39100 0.05390 0.82140 -0.10300
N 	N 	0.34780 0.05610 0.65330 -0.30300
