data_crystal

_cell_length_a 11.45400
_cell_length_b 11.45400
_cell_length_c 11.45400
_cell_angle_alpha 90.00000
_cell_angle_beta  90.00000
_cell_angle_gamma 90.00000

_symmetry_space_group_name_	'P 1'
_symmetry_space_group_name_H-M	'P 1'

loop_
_symmetry_equiv_pos_as_xyz
  x,y,z

loop_
_atom_site_label
_atom_site_type_symbol
_atom_site_fract_x
_atom_site_fract_y
_atom_site_fract_z
_atom_site_charge
Co	Co	-0.00000 0.50000 0.50000 1.16500
Co	Co	-0.00000 0.00000 -0.00000 1.13300
Co	Co	0.50000 -0.00000 0.50000 1.16600
Co	Co	0.50000 0.50000 -0.00000 1.16600
K 	K 	0.50000 0.50000 0.50000 0.65300
K 	K 	0.50000 0.00000 -0.00000 0.62700
K 	K 	-0.00000 0.50000 -0.00000 0.62700
K 	K 	-0.00000 -0.00000 0.50000 0.62700
C 	C 	0.16290 0.50000 0.50000 -0.19200
N 	N 	0.25920 0.50000 0.50000 -0.08800
C 	C 	0.16290 0.00000 -0.00000 -0.26200
N 	N 	0.25920 0.00000 -0.00000 -0.11600
C 	C 	0.66290 0.50000 -0.00000 -0.21500
N 	N 	0.75920 0.50000 -0.00000 -0.07300
C 	C 	0.66290 -0.00000 0.50000 -0.21500
N 	N 	0.75920 -0.00000 0.50000 -0.07300
C 	C 	0.83710 0.50000 0.50000 -0.10100
N 	N 	0.74080 0.50000 0.50000 -0.09400
C 	C 	0.83710 0.00000 -0.00000 -0.16700
N 	N 	0.74080 0.00000 -0.00000 -0.12200
C 	C 	0.33710 0.50000 -0.00000 -0.23000
N 	N 	0.24080 0.50000 -0.00000 -0.10500
C 	C 	0.33710 -0.00000 0.50000 -0.23000
N 	N 	0.24080 -0.00000 0.50000 -0.10500
C 	C 	0.50000 0.16290 0.50000 -0.19200
N 	N 	0.50000 0.25920 0.50000 -0.08800
C 	C 	0.50000 0.66290 -0.00000 -0.21500
N 	N 	0.50000 0.75920 -0.00000 -0.07300
C 	C 	-0.00000 0.16290 -0.00000 -0.26200
N 	N 	-0.00000 0.25920 -0.00000 -0.11600
C 	C 	-0.00000 0.66290 0.50000 -0.21500
N 	N 	-0.00000 0.75920 0.50000 -0.07300
C 	C 	0.50000 0.83710 0.50000 -0.10100
N 	N 	0.50000 0.74080 0.50000 -0.09400
C 	C 	0.50000 0.33710 -0.00000 -0.23000
N 	N 	0.50000 0.24080 -0.00000 -0.10500
C 	C 	-0.00000 0.83710 -0.00000 -0.16700
N 	N 	-0.00000 0.74080 -0.00000 -0.12200
C 	C 	-0.00000 0.33710 0.50000 -0.23000
N 	N 	-0.00000 0.24080 0.50000 -0.10500
C 	C 	0.50000 0.50000 0.16290 -0.19200
N 	N 	0.50000 0.50000 0.25920 -0.08800
C 	C 	0.50000 -0.00000 0.66290 -0.21500
N 	N 	0.50000 -0.00000 0.75920 -0.07300
C 	C 	-0.00000 0.50000 0.66290 -0.21500
N 	N 	-0.00000 0.50000 0.75920 -0.07300
C 	C 	-0.00000 0.00000 0.16290 -0.26200
N 	N 	-0.00000 0.00000 0.25920 -0.11600
C 	C 	0.50000 0.50000 0.83710 -0.10100
N 	N 	0.50000 0.50000 0.74080 -0.09400
C 	C 	0.50000 -0.00000 0.33710 -0.23000
N 	N 	0.50000 -0.00000 0.24080 -0.10500
C 	C 	-0.00000 0.50000 0.33710 -0.23000
N 	N 	-0.00000 0.50000 0.24080 -0.10500
C 	C 	0.00000 0.00000 0.83710 -0.16700
N 	N 	-0.00000 0.00000 0.74080 -0.12200
