data_crystal

_cell_length_a 13.88480
_cell_length_b 7.90260
_cell_length_c 13.83140
_cell_angle_alpha 90.00000
_cell_angle_beta  108.21000
_cell_angle_gamma 90.00000

_symmetry_space_group_name_	'P 1'
_symmetry_space_group_name_H-M	'P 1'

loop_
_symmetry_equiv_pos_as_xyz
  x,y,z

loop_
_atom_site_label
_atom_site_type_symbol
_atom_site_fract_x
_atom_site_fract_y
_atom_site_fract_z
_atom_site_charge
N 	N 	0.43660 0.17700 0.43630 -0.09500
N 	N 	0.65600 0.94060 0.30180 -0.10200
N 	N 	0.66100 0.41490 0.40300 -0.09600
C 	C 	0.63340 0.20580 0.04010 -0.27700
C 	C 	0.80750 0.04190 0.06140 -0.25000
C 	C 	0.69000 0.13160 0.87610 -0.13300
N 	N 	0.93660 0.67700 0.43630 -0.06700
N 	N 	0.15600 0.44060 0.30180 -0.11300
N 	N 	0.16100 0.91490 0.40300 -0.11400
C 	C 	0.13340 0.70580 0.04010 -0.29200
C 	C 	0.30750 0.54190 0.06140 -0.27100
C 	C 	0.19000 0.63160 0.87610 -0.15000
N 	N 	0.56340 0.17700 0.06370 -0.11200
N 	N 	0.34400 0.94060 0.19820 -0.09800
N 	N 	0.33900 0.41490 0.09700 -0.11100
C 	C 	0.36660 0.20580 0.45990 -0.21500
C 	C 	0.19250 0.04190 0.43860 -0.21500
C 	C 	0.31000 0.13160 0.62390 -0.21500
N 	N 	0.06340 0.67700 0.06370 -0.13600
N 	N 	0.84400 0.44060 0.19820 -0.08000
N 	N 	0.83900 0.91490 0.09700 -0.09700
C 	C 	0.86660 0.70580 0.45990 -0.19800
C 	C 	0.69250 0.54190 0.43860 -0.20400
C 	C 	0.81000 0.63160 0.62390 -0.19900
N 	N 	0.56340 0.82300 0.56370 -0.09300
N 	N 	0.34400 0.05940 0.69820 -0.08900
N 	N 	0.33900 0.58510 0.59700 -0.09600
C 	C 	0.36660 0.79420 0.95990 -0.12100
C 	C 	0.19250 0.95810 0.93860 -0.13500
C 	C 	0.31000 0.86840 0.12390 -0.26900
N 	N 	0.06340 0.32300 0.56370 -0.11600
N 	N 	0.84400 0.55940 0.69820 -0.07200
N 	N 	0.83900 0.08510 0.59700 -0.07400
C 	C 	0.86660 0.29420 0.95990 -0.10300
C 	C 	0.69250 0.45810 0.93860 -0.11100
C 	C 	0.81000 0.36840 0.12390 -0.25200
N 	N 	0.43660 0.82300 0.93630 -0.08200
N 	N 	0.65600 0.05940 0.80180 -0.09800
N 	N 	0.66100 0.58510 0.90300 -0.08800
C 	C 	0.63340 0.79420 0.54010 -0.21200
C 	C 	0.80750 0.95810 0.56140 -0.19600
C 	C 	0.69000 0.86840 0.37610 -0.21700
N 	N 	0.93660 0.32300 0.93630 -0.05300
N 	N 	0.15600 0.55940 0.80180 -0.11300
N 	N 	0.16100 0.08510 0.90300 -0.09700
C 	C 	0.13340 0.29420 0.54010 -0.22600
C 	C 	0.30750 0.45810 0.56140 -0.20700
C 	C 	0.19000 0.36840 0.37610 -0.23100
Rb	Rb	0.50000 0.21132 0.25000 0.66600
Rb	Rb	0.00000 0.71132 0.25000 0.64200
Rb	Rb	0.50000 0.78868 0.75000 0.67800
Rb	Rb	-0.00000 0.28868 0.75000 0.65500
Co	Co	0.75000 0.25000 -0.00000 1.10500
Co	Co	0.25000 0.25000 0.50000 1.16900
Co	Co	0.25000 0.75000 -0.00000 1.10600
Co	Co	0.75000 0.75000 0.50000 1.17000
