data_crystal

_cell_length_a 20.43800
_cell_length_b 9.50200
_cell_length_c 22.80800
_cell_angle_alpha 90.00000
_cell_angle_beta  90.13600
_cell_angle_gamma 90.00000

_symmetry_space_group_name_	'P 1'
_symmetry_space_group_name_H-M	'P 1'

loop_
_symmetry_equiv_pos_as_xyz
  x,y,z

loop_
_atom_site_label
_atom_site_type_symbol
_atom_site_fract_x
_atom_site_fract_y
_atom_site_fract_z
_atom_site_charge
Zn	Zn	0.10462 0.96359 0.02827 1.23000
Zn	Zn	0.15585 0.25422 0.87771 1.23000
Zn	Zn	0.21988 0.72571 0.82414 1.23500
P 	P 	0.02682 0.14430 0.93023 0.39100
P 	P 	0.12984 0.93010 0.89689 0.42800
P 	P 	0.23256 0.03430 0.10403 0.43100
P 	P 	0.29115 0.08010 0.22647 0.40300
O 	O 	0.04990 0.11470 0.99310 -0.44800
O 	O 	0.95340 0.16320 0.92760 -0.40900
O 	O 	0.06260 0.26970 0.90260 -0.38900
O 	O 	0.00230 0.87500 0.89850 -0.34300
H 	H 	0.98820 0.88430 0.93190 0.19700
O 	O 	0.17450 0.05700 0.89150 -0.45400
O 	O 	0.14230 0.82100 0.85090 -0.43100
O 	O 	0.13240 0.86530 0.95800 -0.41500
O 	O 	0.17280 0.06560 0.06750 -0.42400
O 	O 	0.29210 0.10810 0.07720 -0.39800
O 	O 	0.24260 0.87770 0.11240 -0.45400
O 	O 	0.35070 0.14570 0.19710 -0.42400
O 	O 	0.27870 0.14700 0.28630 -0.43300
O 	O 	0.29840 0.92090 0.23400 -0.43700
O 	O 	0.22340 0.26470 0.16390 -0.42600
H 	H 	0.21700 0.30910 0.19420 0.25500
C 	C 	0.04530 0.98930 0.88520 0.03700
C 	C 	0.03410 0.02740 0.81980 -0.48400
H 	H 	0.04360 0.94710 0.79580 0.18300
H 	H 	0.06230 0.10390 0.80910 0.14700
H 	H 	0.98930 0.05490 0.81410 0.17600
C 	C 	0.22210 0.11750 0.17630 0.02900
C 	C 	0.15580 0.07160 0.20320 -0.49500
H 	H 	0.15060 0.11470 0.24100 0.15300
H 	H 	0.15500 0.97110 0.20740 0.15300
H 	H 	0.12070 0.10070 0.17790 0.19000
Zn	Zn	0.60462 0.46359 0.02827 1.23000
Zn	Zn	0.65585 0.75422 0.87771 1.22900
Zn	Zn	0.71988 0.22571 0.82414 1.23400
P 	P 	0.52682 0.64430 0.93023 0.38800
P 	P 	0.62984 0.43010 0.89689 0.42700
P 	P 	0.73256 0.53430 0.10403 0.43000
P 	P 	0.79115 0.58010 0.22647 0.40300
O 	O 	0.54990 0.61470 0.99310 -0.44900
O 	O 	0.45340 0.66320 0.92760 -0.40700
O 	O 	0.56260 0.76970 0.90260 -0.38900
O 	O 	0.50230 0.37500 0.89850 -0.34700
H 	H 	0.48820 0.38430 0.93190 0.20000
O 	O 	0.67450 0.55700 0.89150 -0.45500
O 	O 	0.64230 0.32100 0.85090 -0.43100
O 	O 	0.63240 0.36530 0.95800 -0.41600
O 	O 	0.67280 0.56560 0.06750 -0.42300
O 	O 	0.79210 0.60810 0.07720 -0.39700
O 	O 	0.74260 0.37770 0.11240 -0.45300
O 	O 	0.85070 0.64570 0.19710 -0.42400
O 	O 	0.77870 0.64700 0.28630 -0.43300
O 	O 	0.79840 0.42090 0.23400 -0.43700
O 	O 	0.72340 0.76470 0.16390 -0.42600
H 	H 	0.71700 0.80910 0.19420 0.25500
C 	C 	0.54530 0.48930 0.88520 0.03900
C 	C 	0.53410 0.52740 0.81980 -0.49200
H 	H 	0.54360 0.44710 0.79580 0.18500
H 	H 	0.56230 0.60390 0.80910 0.15000
H 	H 	0.48930 0.55490 0.81410 0.18000
C 	C 	0.72210 0.61750 0.17630 0.02900
C 	C 	0.65580 0.57160 0.20320 -0.49500
H 	H 	0.65060 0.61470 0.24100 0.15300
H 	H 	0.65500 0.47110 0.20740 0.15200
H 	H 	0.62070 0.60070 0.17790 0.19000
Zn	Zn	0.89538 0.96359 0.47173 1.23000
Zn	Zn	0.84415 0.25422 0.62229 1.22900
Zn	Zn	0.78012 0.72571 0.67586 1.23400
P 	P 	0.97318 0.14430 0.56977 0.38800
P 	P 	0.87016 0.93010 0.60311 0.42600
P 	P 	0.76744 0.03430 0.39597 0.43000
P 	P 	0.70885 0.08010 0.27353 0.40300
O 	O 	0.95010 0.11470 0.50690 -0.44900
O 	O 	0.04660 0.16320 0.57240 -0.40700
O 	O 	0.93740 0.26970 0.59740 -0.38900
O 	O 	0.99770 0.87500 0.60150 -0.34800
H 	H 	0.01180 0.88430 0.56810 0.20100
O 	O 	0.82550 0.05700 0.60850 -0.45400
O 	O 	0.85770 0.82100 0.64910 -0.43100
O 	O 	0.86760 0.86530 0.54200 -0.41600
O 	O 	0.82720 0.06560 0.43250 -0.42400
O 	O 	0.70790 0.10810 0.42280 -0.39700
O 	O 	0.75740 0.87770 0.38760 -0.45300
O 	O 	0.64930 0.14570 0.30290 -0.42400
O 	O 	0.72130 0.14700 0.21370 -0.43300
O 	O 	0.70160 0.92090 0.26600 -0.43700
O 	O 	0.77660 0.26470 0.33610 -0.42600
H 	H 	0.78300 0.30910 0.30580 0.25500
C 	C 	0.95470 0.98930 0.61480 0.03900
C 	C 	0.96590 0.02740 0.68020 -0.49300
H 	H 	0.95640 0.94710 0.70420 0.18500
H 	H 	0.93770 0.10390 0.69090 0.15000
H 	H 	0.01070 0.05490 0.68590 0.18100
C 	C 	0.77790 0.11750 0.32370 0.02900
C 	C 	0.84420 0.07160 0.29680 -0.49600
H 	H 	0.84940 0.11470 0.25900 0.15300
H 	H 	0.84500 0.97110 0.29260 0.15300
H 	H 	0.87930 0.10070 0.32210 0.19000
Zn	Zn	0.39538 0.46359 0.47173 1.23000
Zn	Zn	0.34415 0.75422 0.62229 1.22900
Zn	Zn	0.28012 0.22571 0.67586 1.23400
P 	P 	0.47318 0.64430 0.56977 0.38800
P 	P 	0.37016 0.43010 0.60311 0.42700
P 	P 	0.26744 0.53430 0.39597 0.43000
P 	P 	0.20885 0.58010 0.27353 0.40300
O 	O 	0.45010 0.61470 0.50690 -0.44900
O 	O 	0.54660 0.66320 0.57240 -0.40700
O 	O 	0.43740 0.76970 0.59740 -0.38900
O 	O 	0.49770 0.37500 0.60150 -0.34700
H 	H 	0.51180 0.38430 0.56810 0.20000
O 	O 	0.32550 0.55700 0.60850 -0.45400
O 	O 	0.35770 0.32100 0.64910 -0.43100
O 	O 	0.36760 0.36530 0.54200 -0.41600
O 	O 	0.32720 0.56560 0.43250 -0.42400
O 	O 	0.20790 0.60810 0.42280 -0.39700
O 	O 	0.25740 0.37770 0.38760 -0.45300
O 	O 	0.14930 0.64570 0.30290 -0.42400
O 	O 	0.22130 0.64700 0.21370 -0.43300
O 	O 	0.20160 0.42090 0.26600 -0.43700
O 	O 	0.27660 0.76470 0.33610 -0.42600
H 	H 	0.28300 0.80910 0.30580 0.25500
C 	C 	0.45470 0.48930 0.61480 0.03900
C 	C 	0.46590 0.52740 0.68020 -0.49200
H 	H 	0.45640 0.44710 0.70420 0.18500
H 	H 	0.43770 0.60390 0.69090 0.15000
H 	H 	0.51070 0.55490 0.68590 0.18000
C 	C 	0.27790 0.61750 0.32370 0.02900
C 	C 	0.34420 0.57160 0.29680 -0.49500
H 	H 	0.34940 0.61470 0.25900 0.15300
H 	H 	0.34500 0.47110 0.29260 0.15200
H 	H 	0.37930 0.60070 0.32210 0.19000
Zn	Zn	0.89538 0.03641 0.97173 1.22900
Zn	Zn	0.84415 0.74578 0.12229 1.22900
Zn	Zn	0.78012 0.27429 0.17586 1.23400
P 	P 	0.97318 0.85570 0.06977 0.39000
P 	P 	0.87016 0.06990 0.10311 0.42700
P 	P 	0.76744 0.96570 0.89597 0.43000
P 	P 	0.70885 0.91990 0.77353 0.40300
O 	O 	0.95010 0.88530 0.00690 -0.44800
O 	O 	0.04660 0.83680 0.07240 -0.40900
O 	O 	0.93740 0.73030 0.09740 -0.38900
O 	O 	0.99770 0.12500 0.10150 -0.34300
H 	H 	0.01180 0.11570 0.06810 0.19700
O 	O 	0.82550 0.94300 0.10850 -0.45400
O 	O 	0.85770 0.17900 0.14910 -0.43100
O 	O 	0.86760 0.13470 0.04200 -0.41500
O 	O 	0.82720 0.93440 0.93250 -0.42400
O 	O 	0.70790 0.89190 0.92280 -0.39800
O 	O 	0.75740 0.12230 0.88760 -0.45400
O 	O 	0.64930 0.85430 0.80290 -0.42400
O 	O 	0.72130 0.85300 0.71370 -0.43300
O 	O 	0.70160 0.07910 0.76600 -0.43700
O 	O 	0.77660 0.73530 0.83610 -0.42600
H 	H 	0.78300 0.69090 0.80580 0.25500
C 	C 	0.95470 0.01070 0.11480 0.03700
C 	C 	0.96590 0.97260 0.18020 -0.48400
H 	H 	0.95640 0.05290 0.20420 0.18300
H 	H 	0.93770 0.89610 0.19090 0.14700
H 	H 	0.01070 0.94510 0.18590 0.17600
C 	C 	0.77790 0.88250 0.82370 0.02900
C 	C 	0.84420 0.92840 0.79680 -0.49500
H 	H 	0.84940 0.88530 0.75900 0.15300
H 	H 	0.84500 0.02890 0.79260 0.15300
H 	H 	0.87930 0.89930 0.82210 0.19000
Zn	Zn	0.39538 0.53641 0.97173 1.23000
Zn	Zn	0.34415 0.24578 0.12229 1.22900
Zn	Zn	0.28012 0.77429 0.17586 1.23400
P 	P 	0.47318 0.35570 0.06977 0.38800
P 	P 	0.37016 0.56990 0.10311 0.42700
P 	P 	0.26744 0.46570 0.89597 0.43000
P 	P 	0.20885 0.41990 0.77353 0.40300
O 	O 	0.45010 0.38530 0.00690 -0.44900
O 	O 	0.54660 0.33680 0.07240 -0.40700
O 	O 	0.43740 0.23030 0.09740 -0.38900
O 	O 	0.49770 0.62500 0.10150 -0.34700
H 	H 	0.51180 0.61570 0.06810 0.20000
O 	O 	0.32550 0.44300 0.10850 -0.45500
O 	O 	0.35770 0.67900 0.14910 -0.43100
O 	O 	0.36760 0.63470 0.04200 -0.41600
O 	O 	0.32720 0.43440 0.93250 -0.42300
O 	O 	0.20790 0.39190 0.92280 -0.39700
O 	O 	0.25740 0.62230 0.88760 -0.45300
O 	O 	0.14930 0.35430 0.80290 -0.42400
O 	O 	0.22130 0.35300 0.71370 -0.43300
O 	O 	0.20160 0.57910 0.76600 -0.43700
O 	O 	0.27660 0.23530 0.83610 -0.42600
H 	H 	0.28300 0.19090 0.80580 0.25500
C 	C 	0.45470 0.51070 0.11480 0.03900
C 	C 	0.46590 0.47260 0.18020 -0.49200
H 	H 	0.45640 0.55290 0.20420 0.18500
H 	H 	0.43770 0.39610 0.19090 0.15000
H 	H 	0.51070 0.44510 0.18590 0.18000
C 	C 	0.27790 0.38250 0.82370 0.02900
C 	C 	0.34420 0.42840 0.79680 -0.49500
H 	H 	0.34940 0.38530 0.75900 0.15300
H 	H 	0.34500 0.52890 0.79260 0.15200
H 	H 	0.37930 0.39930 0.82210 0.19000
Zn	Zn	0.10462 0.03641 0.52827 1.23000
Zn	Zn	0.15585 0.74578 0.37771 1.22900
Zn	Zn	0.21988 0.27429 0.32414 1.23400
P 	P 	0.02682 0.85570 0.43023 0.38800
P 	P 	0.12984 0.06990 0.39689 0.42600
P 	P 	0.23256 0.96570 0.60403 0.43000
P 	P 	0.29115 0.91990 0.72647 0.40300
O 	O 	0.04990 0.88530 0.49310 -0.44900
O 	O 	0.95340 0.83680 0.42760 -0.40700
O 	O 	0.06260 0.73030 0.40260 -0.38900
O 	O 	0.00230 0.12500 0.39850 -0.34800
H 	H 	0.98820 0.11570 0.43190 0.20100
O 	O 	0.17450 0.94300 0.39150 -0.45400
O 	O 	0.14230 0.17900 0.35090 -0.43100
O 	O 	0.13240 0.13470 0.45800 -0.41600
O 	O 	0.17280 0.93440 0.56750 -0.42400
O 	O 	0.29210 0.89190 0.57720 -0.39700
O 	O 	0.24260 0.12230 0.61240 -0.45300
O 	O 	0.35070 0.85430 0.69710 -0.42400
O 	O 	0.27870 0.85300 0.78630 -0.43300
O 	O 	0.29840 0.07910 0.73400 -0.43700
O 	O 	0.22340 0.73530 0.66390 -0.42600
H 	H 	0.21700 0.69090 0.69420 0.25500
C 	C 	0.04530 0.01070 0.38520 0.03900
C 	C 	0.03410 0.97260 0.31980 -0.49300
H 	H 	0.04360 0.05290 0.29580 0.18500
H 	H 	0.06230 0.89610 0.30910 0.15000
H 	H 	0.98930 0.94510 0.31410 0.18100
C 	C 	0.22210 0.88250 0.67630 0.02900
C 	C 	0.15580 0.92840 0.70320 -0.49600
H 	H 	0.15060 0.88530 0.74100 0.15300
H 	H 	0.15500 0.02890 0.70740 0.15300
H 	H 	0.12070 0.89930 0.67790 0.19000
Zn	Zn	0.60462 0.53641 0.52827 1.23000
Zn	Zn	0.65585 0.24578 0.37771 1.22900
Zn	Zn	0.71988 0.77429 0.32414 1.23400
P 	P 	0.52682 0.35570 0.43023 0.38800
P 	P 	0.62984 0.56990 0.39689 0.42700
P 	P 	0.73256 0.46570 0.60403 0.43000
P 	P 	0.79115 0.41990 0.72647 0.40300
O 	O 	0.54990 0.38530 0.49310 -0.44900
O 	O 	0.45340 0.33680 0.42760 -0.40700
O 	O 	0.56260 0.23030 0.40260 -0.38900
O 	O 	0.50230 0.62500 0.39850 -0.34700
H 	H 	0.48820 0.61570 0.43190 0.20000
O 	O 	0.67450 0.44300 0.39150 -0.45400
O 	O 	0.64230 0.67900 0.35090 -0.43100
O 	O 	0.63240 0.63470 0.45800 -0.41600
O 	O 	0.67280 0.43440 0.56750 -0.42400
O 	O 	0.79210 0.39190 0.57720 -0.39700
O 	O 	0.74260 0.62230 0.61240 -0.45300
O 	O 	0.85070 0.35430 0.69710 -0.42400
O 	O 	0.77870 0.35300 0.78630 -0.43300
O 	O 	0.79840 0.57910 0.73400 -0.43700
O 	O 	0.72340 0.23530 0.66390 -0.42600
H 	H 	0.71700 0.19090 0.69420 0.25500
C 	C 	0.54530 0.51070 0.38520 0.03900
C 	C 	0.53410 0.47260 0.31980 -0.49200
H 	H 	0.54360 0.55290 0.29580 0.18500
H 	H 	0.56230 0.39610 0.30910 0.15000
H 	H 	0.48930 0.44510 0.31410 0.18000
C 	C 	0.72210 0.38250 0.67630 0.02900
C 	C 	0.65580 0.42840 0.70320 -0.49500
H 	H 	0.65060 0.38530 0.74100 0.15300
H 	H 	0.65500 0.52890 0.70740 0.15200
H 	H 	0.62070 0.39930 0.67790 0.19000
