data_crystal

_cell_length_a 19.56900
_cell_length_b 9.70340
_cell_length_c 14.92700
_cell_angle_alpha 90.00000
_cell_angle_beta  119.09100
_cell_angle_gamma 90.00000

_symmetry_space_group_name_	'P 1'
_symmetry_space_group_name_H-M	'P 1'

loop_
_symmetry_equiv_pos_as_xyz
  x,y,z

loop_
_atom_site_label
_atom_site_type_symbol
_atom_site_fract_x
_atom_site_fract_y
_atom_site_fract_z
_atom_site_charge
P 	P 	0.42252 0.26009 0.57430 0.62700
P 	P 	0.62654 0.70039 0.96368 0.71600
O 	O 	0.70970 0.64790 0.02780 -0.51600
O 	O 	0.62830 0.85900 0.96630 -0.21900
O 	O 	0.58960 0.65360 0.85270 -0.46300
O 	O 	0.43700 0.33910 0.66830 -0.49300
O 	O 	0.57860 0.65530 0.01430 -0.50600
O 	O 	0.41780 0.35030 0.48940 -0.51800
O 	O 	0.48220 0.14700 0.59780 -0.58100
O 	O 	0.34200 0.19200 0.53210 -0.54300
H 	H 	0.31040 0.24860 0.53100 0.30500
P 	P 	0.92252 0.76009 0.57430 0.62300
P 	P 	0.12654 0.20039 0.96368 0.70200
O 	O 	0.20970 0.14790 0.02780 -0.60900
O 	O 	0.12830 0.35900 0.96630 -0.42700
O 	O 	0.08960 0.15360 0.85270 -0.61100
O 	O 	0.93700 0.83910 0.66830 -0.24400
O 	O 	0.07860 0.15530 0.01430 -0.65500
O 	O 	0.91780 0.85030 0.48940 -0.27500
O 	O 	0.98220 0.64700 0.59780 -0.34400
O 	O 	0.84200 0.69200 0.53210 -0.43200
H 	H 	0.81040 0.74860 0.53100 0.33800
P 	P 	0.57748 0.26009 0.42570 0.62700
P 	P 	0.37346 0.70039 0.03632 0.49500
O 	O 	0.29030 0.64790 0.97220 -0.38700
O 	O 	0.37170 0.85900 0.03370 -0.24600
O 	O 	0.41040 0.65360 0.14730 -0.45900
O 	O 	0.56300 0.33910 0.33170 -0.49700
O 	O 	0.42140 0.65530 0.98570 -0.35400
O 	O 	0.58220 0.35030 0.51060 -0.51200
O 	O 	0.51780 0.14700 0.40220 -0.58400
O 	O 	0.65800 0.19200 0.46790 -0.54000
H 	H 	0.68960 0.24860 0.46900 0.31000
P 	P 	0.07748 0.76009 0.42570 0.61700
P 	P 	0.87346 0.20039 0.03632 0.47600
O 	O 	0.79030 0.14790 0.97220 -0.46700
O 	O 	0.87170 0.35900 0.03370 -0.37400
O 	O 	0.91040 0.15360 0.14730 -0.47200
O 	O 	0.06300 0.83910 0.33170 -0.40400
O 	O 	0.92140 0.15530 0.98570 -0.35000
O 	O 	0.08220 0.85030 0.51060 -0.39700
O 	O 	0.01780 0.64700 0.40220 -0.56200
O 	O 	0.15800 0.69200 0.46790 -0.46300
H 	H 	0.18960 0.74860 0.46900 0.34200
P 	P 	0.57748 0.73991 0.42570 0.61300
P 	P 	0.37346 0.29961 0.03632 0.50100
O 	O 	0.29030 0.35210 0.97220 -0.42200
O 	O 	0.37170 0.14100 0.03370 -0.50800
O 	O 	0.41040 0.34640 0.14730 -0.50900
O 	O 	0.56300 0.66090 0.33170 -0.44500
O 	O 	0.42140 0.34470 0.98570 -0.41100
O 	O 	0.58220 0.64970 0.51060 -0.47700
O 	O 	0.51780 0.85300 0.40220 -0.34200
O 	O 	0.65800 0.80800 0.46790 -0.34200
H 	H 	0.68960 0.75140 0.46900 0.29100
P 	P 	0.07748 0.23991 0.42570 0.61200
P 	P 	0.87346 0.79961 0.03632 0.48900
O 	O 	0.79030 0.85210 0.97220 -0.25700
O 	O 	0.87170 0.64100 0.03370 -0.36800
O 	O 	0.91040 0.84640 0.14730 -0.27300
O 	O 	0.06300 0.16090 0.33170 -0.61100
O 	O 	0.92140 0.84470 0.98570 -0.15900
O 	O 	0.08220 0.14970 0.51060 -0.62500
O 	O 	0.01780 0.35300 0.40220 -0.58500
O 	O 	0.15800 0.30800 0.46790 -0.46100
H 	H 	0.18960 0.25140 0.46900 0.26300
P 	P 	0.42252 0.73991 0.57430 0.61200
P 	P 	0.62654 0.29961 0.96368 0.72700
O 	O 	0.70970 0.35210 0.02780 -0.55400
O 	O 	0.62830 0.14100 0.96630 -0.47500
O 	O 	0.58960 0.34640 0.85270 -0.51300
O 	O 	0.43700 0.66090 0.66830 -0.44100
O 	O 	0.57860 0.34470 0.01430 -0.56800
O 	O 	0.41780 0.64970 0.48940 -0.48300
O 	O 	0.48220 0.85300 0.59780 -0.34000
O 	O 	0.34200 0.80800 0.53210 -0.34300
H 	H 	0.31040 0.75140 0.53100 0.28600
P 	P 	0.92252 0.23991 0.57430 0.61700
P 	P 	0.12654 0.79961 0.96368 0.70200
O 	O 	0.20970 0.85210 0.02780 -0.38700
O 	O 	0.12830 0.64100 0.96630 -0.42000
O 	O 	0.08960 0.84640 0.85270 -0.40600
O 	O 	0.93700 0.16090 0.66830 -0.44200
O 	O 	0.07860 0.84470 0.01430 -0.44900
O 	O 	0.91780 0.14970 0.48940 -0.49600
O 	O 	0.98220 0.35300 0.59780 -0.36400
O 	O 	0.84200 0.30800 0.53210 -0.43000
H 	H 	0.81040 0.25140 0.53100 0.26000
In	In	0.78206 0.50000 0.01392 2.03600
In	In	0.51224 0.50000 0.76073 2.04000
F 	F 	0.73430 0.50000 0.85670 -0.51300
F 	F 	0.83670 0.50000 0.17950 -0.47700
F 	F 	0.44680 0.50000 0.83810 -0.75000
F 	F 	0.56190 0.50000 0.66210 -0.75100
In	In	0.28206 0.00000 0.01392 1.97100
In	In	0.01224 0.00000 0.76073 1.91800
F 	F 	0.23430 0.00000 0.85670 -0.67600
F 	F 	0.33670 0.00000 0.17950 -0.68100
F 	F 	0.94680 0.00000 0.83810 -0.79600
F 	F 	0.06190 0.00000 0.66210 -0.97100
In	In	0.21794 0.50000 0.98608 2.05400
In	In	0.48776 0.50000 0.23927 2.03500
F 	F 	0.26570 0.50000 0.14330 -0.58100
F 	F 	0.16330 0.50000 0.82050 -0.55200
F 	F 	0.55320 0.50000 0.16190 -0.77400
F 	F 	0.43810 0.50000 0.33790 -0.75800
In	In	0.71794 0.00000 0.98608 1.99200
In	In	0.98776 0.00000 0.23927 2.03100
F 	F 	0.76570 0.00000 0.14330 -0.71700
F 	F 	0.66330 0.00000 0.82050 -0.67200
F 	F 	0.05320 0.00000 0.16190 -1.00400
F 	F 	0.93810 0.00000 0.33790 -0.80400
In	In	0.50000 0.50000 -0.00000 2.01700
In	In	-0.00000 0.00000 -0.00000 1.89600
In	In	0.50000 0.50000 0.50000 2.03300
In	In	0.00000 0.00000 0.50000 1.90900
In	In	0.50000 0.00000 0.50000 1.88900
In	In	0.00000 0.50000 0.50000 1.91500
