data_crystal

_cell_length_a 10.70450
_cell_length_b 34.73850
_cell_length_c 17.98600
_cell_angle_alpha 90.00000
_cell_angle_beta  101.06900
_cell_angle_gamma 90.00000

_symmetry_space_group_name_	'P 1'
_symmetry_space_group_name_H-M	'P 1'

loop_
_symmetry_equiv_pos_as_xyz
  x,y,z

loop_
_atom_site_label
_atom_site_type_symbol
_atom_site_fract_x
_atom_site_fract_y
_atom_site_fract_z
_atom_site_charge
Ba	Ba	0.03389 0.22930 0.15133 2.02300
Ba	Ba	0.70628 0.27886 0.99206 2.00700
Ba	Ba	0.23274 0.26738 0.37111 1.74100
O 	O 	0.02400 0.31897 0.35651 -0.57500
O 	O 	0.99300 0.27735 0.26170 -0.58800
O 	O 	0.54610 0.28454 0.08976 -0.61500
O 	O 	0.41300 0.32165 0.13510 -0.46400
O 	O 	0.82140 0.69068 0.36920 -0.44800
O 	O 	0.65020 0.69839 0.28150 -0.57800
O 	O 	0.91640 0.29859 0.08591 -0.62400
O 	O 	0.12520 0.29695 0.09494 -0.64900
O 	O 	0.68940 0.66499 0.09220 -0.39400
O 	O 	0.78900 0.72092 0.10610 -0.56200
O 	O 	0.26470 0.72018 0.09018 -0.59900
O 	O 	0.36550 0.66970 0.14590 -0.46300
H 	H 	0.92610 0.18600 0.99740 0.15700
O 	O 	0.47010 0.74450 0.55830 -0.18100
C 	C 	0.52420 0.62400 0.43750 -0.08200
H 	H 	0.54090 0.61050 0.39440 0.05400
C 	C 	0.52400 0.66380 0.43810 0.03300
H 	H 	0.54060 0.67740 0.39520 -0.00700
O 	O 	0.26200 0.31946 0.49410 -0.53400
O 	O 	0.17420 0.37506 0.52080 -0.39100
O 	O 	0.30630 0.26562 0.23330 -0.49100
H 	H 	0.32260 0.29150 0.21410 0.13600
C 	C 	0.96100 0.30651 0.29490 0.45500
C 	C 	0.84160 0.32767 0.26110 -0.21900
C 	C 	0.83010 0.36670 0.27830 0.05400
H 	H 	0.89740 0.37880 0.31250 0.00900
C 	C 	0.72450 0.38825 0.24720 -0.07800
C 	C 	0.62340 0.36875 0.20120 0.04300
H 	H 	0.54670 0.38220 0.18210 0.00500
C 	C 	0.63360 0.33013 0.18330 -0.21100
C 	C 	0.74420 0.30995 0.21020 0.12400
H 	H 	0.75360 0.28420 0.19420 -0.05800
C 	C 	0.52250 0.31099 0.13210 0.39800
C 	C 	0.71930 0.43015 0.25950 0.06200
C 	C 	0.79000 0.44793 0.32310 -0.09800
H 	H 	0.83930 0.43250 0.36150 0.06900
C 	C 	0.79040 0.48799 0.33190 -0.01200
H 	H 	0.84080 0.49920 0.37580 0.03100
C 	C 	0.71850 0.51150 0.27760 -0.04100
C 	C 	0.64530 0.49396 0.21430 -0.01300
H 	H 	0.59420 0.50940 0.17670 0.03100
C 	C 	0.64590 0.45415 0.20530 -0.09600
H 	H 	0.59540 0.44300 0.16140 0.05300
C 	C 	0.72260 0.55398 0.28620 0.09200
C 	C 	0.82500 0.57218 0.33170 -0.15800
H 	H 	0.89360 0.55700 0.35750 0.08200
C 	C 	0.83060 0.61180 0.34070 0.08900
H 	H 	0.90250 0.62340 0.37180 0.00500
C 	C 	0.73110 0.63432 0.30450 -0.19500
C 	C 	0.62970 0.61750 0.25790 0.10300
H 	H 	0.56240 0.63300 0.23140 -0.01700
C 	C 	0.62550 0.57770 0.24930 -0.16200
H 	H 	0.55410 0.56640 0.21720 0.08400
C 	C 	0.73590 0.67696 0.31860 0.42100
C 	C 	0.02350 0.31472 0.09400 0.45600
C 	C 	0.03000 0.35796 0.10440 -0.26300
C 	C 	0.91840 0.37913 0.10510 0.15600
H 	H 	0.83900 0.36630 0.10100 -0.05500
C 	C 	0.92510 0.41835 0.11190 -0.18100
H 	H 	0.84970 0.43250 0.11360 0.09000
C 	C 	0.03920 0.43796 0.11630 0.10800
C 	C 	0.15000 0.41645 0.11760 -0.19400
H 	H 	0.22970 0.42920 0.12290 0.08700
C 	C 	0.14480 0.37702 0.11150 0.13100
H 	H 	0.22080 0.36280 0.11220 -0.04300
C 	C 	0.04170 0.48046 0.11910 -0.06600
C 	C 	0.95990 0.50121 0.15640 0.01300
H 	H 	0.90550 0.48770 0.18330 0.03200
C 	C 	0.95640 0.54106 0.15490 -0.08400
H 	H 	0.89900 0.55440 0.18000 0.06500
C 	C 	0.03520 0.56159 0.11730 0.05100
C 	C 	0.11800 0.54136 0.08040 -0.09600
H 	H 	0.17270 0.55500 0.05400 0.06800
C 	C 	0.12100 0.50145 0.08200 0.00300
H 	H 	0.17880 0.48820 0.05710 0.02900
C 	C 	0.78910 0.68450 0.10060 0.37400
C 	C 	0.91430 0.66470 0.10500 -0.15100
C 	C 	0.91780 0.62480 0.10940 0.04500
H 	H 	0.84140 0.61100 0.10960 0.03000
C 	C 	0.03260 0.60457 0.11340 -0.06800
C 	C 	0.14330 0.62586 0.11650 0.03700
H 	H 	0.22240 0.61270 0.12300 0.02900
C 	C 	0.14250 0.66556 0.11040 -0.16800
C 	C 	0.26680 0.68656 0.11520 0.41800
C 	C 	0.02630 0.68501 0.10460 0.07700
H 	H 	0.02400 0.71230 0.10040 -0.04200
C 	C 	0.38890 0.37664 0.50500 -0.16200
C 	C 	0.26760 0.35545 0.50680 0.34400
C 	C 	0.39070 0.41601 0.50650 0.02300
H 	H 	0.31560 0.42940 0.51220 0.03100
C 	C 	0.56870 0.50012 0.45500 -0.09100
H 	H 	0.61650 0.48680 0.42370 0.06400
C 	C 	0.56810 0.53995 0.45530 -0.01400
H 	H 	0.61560 0.55340 0.42410 0.03300
O 	O 	0.41760 0.74420 0.53000 -0.41800
C 	C 	0.59080 0.62400 0.47120 -0.06600
H 	H 	0.65410 0.61050 0.45120 0.04900
C 	C 	0.59060 0.66380 0.47130 0.04100
H 	H 	0.65380 0.67740 0.45130 -0.01100
Ba	Ba	0.53389 0.72930 0.15133 2.05900
Ba	Ba	0.20628 0.77886 0.99206 2.00000
Ba	Ba	0.73274 0.76738 0.37111 1.75600
O 	O 	0.52400 0.81897 0.35651 -0.56000
O 	O 	0.49300 0.77735 0.26170 -0.59700
O 	O 	0.04610 0.78454 0.08976 -0.61700
O 	O 	0.91300 0.82165 0.13510 -0.45100
O 	O 	0.32140 0.19068 0.36920 -0.44900
O 	O 	0.15020 0.19839 0.28150 -0.57600
O 	O 	0.41640 0.79859 0.08591 -0.64300
O 	O 	0.62520 0.79695 0.09494 -0.65500
O 	O 	0.18940 0.16499 0.09220 -0.39600
O 	O 	0.28900 0.22092 0.10610 -0.56300
O 	O 	0.76470 0.22018 0.09018 -0.59300
O 	O 	0.86550 0.16970 0.14590 -0.45200
H 	H 	0.42610 0.68600 0.99740 0.14500
O 	O 	0.97010 0.24450 0.55830 -0.17200
C 	C 	0.02420 0.12400 0.43750 -0.08200
H 	H 	0.04090 0.11050 0.39440 0.05300
C 	C 	0.02400 0.16380 0.43810 0.03200
H 	H 	0.04060 0.17740 0.39520 -0.00700
O 	O 	0.76200 0.81946 0.49410 -0.53200
O 	O 	0.67420 0.87506 0.52080 -0.38700
O 	O 	0.80630 0.76562 0.23330 -0.49100
H 	H 	0.82260 0.79150 0.21410 0.13800
C 	C 	0.46100 0.80651 0.29490 0.43600
C 	C 	0.34160 0.82767 0.26110 -0.21500
C 	C 	0.33010 0.86670 0.27830 0.04800
H 	H 	0.39740 0.87880 0.31250 0.00700
C 	C 	0.22450 0.88825 0.24720 -0.07400
C 	C 	0.12340 0.86875 0.20120 0.03700
H 	H 	0.04670 0.88220 0.18210 0.00400
C 	C 	0.13360 0.83013 0.18330 -0.20600
C 	C 	0.24420 0.80995 0.21020 0.11800
H 	H 	0.25360 0.78420 0.19420 -0.05800
C 	C 	0.02250 0.81099 0.13210 0.37900
C 	C 	0.21930 0.93015 0.25950 0.05500
C 	C 	0.29000 0.94793 0.32310 -0.09200
H 	H 	0.33930 0.93250 0.36150 0.06500
C 	C 	0.29040 0.98799 0.33190 -0.02000
H 	H 	0.34080 0.99920 0.37580 0.03200
C 	C 	0.21850 0.01150 0.27760 -0.03200
C 	C 	0.14530 0.99396 0.21430 -0.02600
H 	H 	0.09420 0.00940 0.17670 0.03300
C 	C 	0.14590 0.95415 0.20530 -0.08900
H 	H 	0.09540 0.94300 0.16140 0.04700
C 	C 	0.22260 0.05398 0.28620 0.08700
C 	C 	0.32500 0.07218 0.33170 -0.15500
H 	H 	0.39360 0.05700 0.35750 0.07900
C 	C 	0.33060 0.11180 0.34070 0.08600
H 	H 	0.40250 0.12340 0.37180 0.00400
C 	C 	0.23110 0.13432 0.30450 -0.19400
C 	C 	0.12970 0.11750 0.25790 0.10100
H 	H 	0.06240 0.13300 0.23140 -0.01900
C 	C 	0.12550 0.07770 0.24930 -0.16000
H 	H 	0.05410 0.06640 0.21720 0.08000
C 	C 	0.23590 0.17696 0.31860 0.42000
C 	C 	0.52350 0.81472 0.09400 0.47700
C 	C 	0.53000 0.85796 0.10440 -0.25100
C 	C 	0.41840 0.87913 0.10510 0.14500
H 	H 	0.33900 0.86630 0.10100 -0.05300
C 	C 	0.42510 0.91835 0.11190 -0.20300
H 	H 	0.34970 0.93250 0.11360 0.09500
C 	C 	0.53920 0.93796 0.11630 0.13100
C 	C 	0.65000 0.91645 0.11760 -0.20000
H 	H 	0.72970 0.92920 0.12290 0.09200
C 	C 	0.64480 0.87702 0.11150 0.13600
H 	H 	0.72080 0.86280 0.11220 -0.04300
C 	C 	0.54170 0.98046 0.11910 -0.06400
C 	C 	0.45990 0.00121 0.15640 0.01200
H 	H 	0.40550 0.98770 0.18330 0.02800
C 	C 	0.45640 0.04106 0.15490 -0.10900
H 	H 	0.39900 0.05440 0.18000 0.07100
C 	C 	0.53520 0.06159 0.11730 0.07400
C 	C 	0.61800 0.04136 0.08040 -0.10500
H 	H 	0.67270 0.05500 0.05400 0.07500
C 	C 	0.62100 0.00145 0.08200 0.01800
H 	H 	0.67880 0.98820 0.05710 0.02600
C 	C 	0.28910 0.18450 0.10060 0.37800
C 	C 	0.41430 0.16470 0.10500 -0.16600
C 	C 	0.41780 0.12480 0.10940 0.03300
H 	H 	0.34140 0.11100 0.10960 0.03100
C 	C 	0.53260 0.10457 0.11340 -0.05700
C 	C 	0.64330 0.12586 0.11650 0.03900
H 	H 	0.72240 0.11270 0.12300 0.03000
C 	C 	0.64250 0.16556 0.11040 -0.17000
C 	C 	0.76680 0.18656 0.11520 0.41900
C 	C 	0.52630 0.18501 0.10460 0.09900
H 	H 	0.52400 0.21230 0.10040 -0.04400
C 	C 	0.88890 0.87664 0.50500 -0.14800
C 	C 	0.76760 0.85545 0.50680 0.34100
C 	C 	0.89070 0.91601 0.50650 0.02900
H 	H 	0.81560 0.92940 0.51220 0.03200
C 	C 	0.06870 0.00012 0.45500 -0.07800
H 	H 	0.11650 0.98680 0.42370 0.05800
C 	C 	0.06810 0.03995 0.45530 -0.02200
H 	H 	0.11560 0.05340 0.42410 0.03500
O 	O 	0.91760 0.24420 0.53000 -0.41100
C 	C 	0.09080 0.12400 0.47120 -0.06400
H 	H 	0.15410 0.11050 0.45120 0.04800
C 	C 	0.09060 0.16380 0.47130 0.04200
H 	H 	0.15380 0.17740 0.45130 -0.01200
Ba	Ba	0.96611 0.22930 0.84867 2.07400
Ba	Ba	0.29372 0.27886 0.00794 2.13500
Ba	Ba	0.76726 0.26738 0.62889 1.75600
O 	O 	0.97600 0.31897 0.64349 -0.54200
O 	O 	0.00700 0.27735 0.73830 -0.60300
O 	O 	0.45390 0.28454 0.91024 -0.63200
O 	O 	0.58700 0.32165 0.86490 -0.46200
O 	O 	0.17860 0.69068 0.63080 -0.45300
O 	O 	0.34980 0.69839 0.71850 -0.57500
O 	O 	0.08360 0.29859 0.91409 -0.68100
O 	O 	0.87480 0.29695 0.90506 -0.65400
O 	O 	0.31060 0.66499 0.90780 -0.40100
O 	O 	0.21100 0.72092 0.89390 -0.55900
O 	O 	0.73530 0.72018 0.90982 -0.62700
O 	O 	0.63450 0.66970 0.85410 -0.47000
H 	H 	0.07390 0.18600 0.00260 0.17000
O 	O 	0.52990 0.74450 0.44170 -0.18500
C 	C 	0.47580 0.62400 0.56250 -0.07800
H 	H 	0.45910 0.61050 0.60560 0.05300
C 	C 	0.47600 0.66380 0.56190 0.03700
H 	H 	0.45940 0.67740 0.60480 -0.00700
O 	O 	0.73800 0.31946 0.50590 -0.53200
O 	O 	0.82580 0.37506 0.47920 -0.38300
O 	O 	0.69370 0.26562 0.76670 -0.49200
H 	H 	0.67740 0.29150 0.78590 0.13900
C 	C 	0.03900 0.30651 0.70510 0.41900
C 	C 	0.15840 0.32767 0.73890 -0.21500
C 	C 	0.16990 0.36670 0.72170 0.05000
H 	H 	0.10260 0.37880 0.68750 0.00300
C 	C 	0.27550 0.38825 0.75280 -0.07900
C 	C 	0.37660 0.36875 0.79880 0.04200
H 	H 	0.45330 0.38220 0.81790 0.00300
C 	C 	0.36640 0.33013 0.81670 -0.21800
C 	C 	0.25580 0.30995 0.78980 0.12200
H 	H 	0.24640 0.28420 0.80580 -0.06300
C 	C 	0.47750 0.31099 0.86790 0.40100
C 	C 	0.28070 0.43015 0.74050 0.06000
C 	C 	0.21000 0.44793 0.67690 -0.09800
H 	H 	0.16070 0.43250 0.63850 0.06500
C 	C 	0.20960 0.48799 0.66810 -0.01300
H 	H 	0.15920 0.49920 0.62420 0.02800
C 	C 	0.28150 0.51150 0.72240 -0.04200
C 	C 	0.35470 0.49396 0.78570 -0.01500
H 	H 	0.40580 0.50940 0.82330 0.02700
C 	C 	0.35410 0.45415 0.79470 -0.09600
H 	H 	0.40460 0.44300 0.83860 0.04700
C 	C 	0.27740 0.55398 0.71380 0.09100
C 	C 	0.17500 0.57218 0.66830 -0.15900
H 	H 	0.10640 0.55700 0.64250 0.07700
C 	C 	0.16940 0.61180 0.65930 0.08700
H 	H 	0.09750 0.62340 0.62820 -0.00000
C 	C 	0.26890 0.63432 0.69550 -0.19500
C 	C 	0.37030 0.61750 0.74210 0.10200
H 	H 	0.43760 0.63300 0.76860 -0.01700
C 	C 	0.37450 0.57770 0.75070 -0.16200
H 	H 	0.44590 0.56640 0.78280 0.08200
C 	C 	0.26410 0.67696 0.68140 0.42100
C 	C 	0.97650 0.31472 0.90600 0.48800
C 	C 	0.97000 0.35796 0.89560 -0.24400
C 	C 	0.08160 0.37913 0.89490 0.12900
H 	H 	0.16100 0.36630 0.89900 -0.05800
C 	C 	0.07490 0.41835 0.88810 -0.21800
H 	H 	0.15030 0.43250 0.88640 0.09200
C 	C 	0.96080 0.43796 0.88370 0.13400
C 	C 	0.85000 0.41645 0.88240 -0.20100
H 	H 	0.77030 0.42920 0.87710 0.08600
C 	C 	0.85520 0.37702 0.88850 0.12700
H 	H 	0.77920 0.36280 0.88780 -0.04300
C 	C 	0.95830 0.48046 0.88090 -0.04700
C 	C 	0.04010 0.50121 0.84360 -0.01500
H 	H 	0.09450 0.48770 0.81670 0.03400
C 	C 	0.04360 0.54106 0.84510 -0.11700
H 	H 	0.10100 0.55440 0.82000 0.07000
C 	C 	0.96480 0.56159 0.88270 0.07700
C 	C 	0.88200 0.54136 0.91960 -0.10400
H 	H 	0.82730 0.55500 0.94600 0.06100
C 	C 	0.87900 0.50145 0.91800 0.00100
H 	H 	0.82120 0.48820 0.94290 0.02100
C 	C 	0.21090 0.68450 0.89940 0.37500
C 	C 	0.08570 0.66470 0.89500 -0.18200
C 	C 	0.08220 0.62480 0.89060 0.02100
H 	H 	0.15860 0.61100 0.89040 0.02800
C 	C 	0.96740 0.60457 0.88660 -0.05500
C 	C 	0.85670 0.62586 0.88350 0.04100
H 	H 	0.77760 0.61270 0.87700 0.02400
C 	C 	0.85750 0.66556 0.88960 -0.18700
C 	C 	0.73320 0.68656 0.88480 0.42700
C 	C 	0.97370 0.68501 0.89540 0.11400
H 	H 	0.97600 0.71230 0.89960 -0.05100
C 	C 	0.61110 0.37664 0.49500 -0.16100
C 	C 	0.73240 0.35545 0.49320 0.34300
C 	C 	0.60930 0.41601 0.49350 0.02200
H 	H 	0.68440 0.42940 0.48780 0.03300
C 	C 	0.43130 0.50012 0.54500 -0.09100
H 	H 	0.38350 0.48680 0.57630 0.06300
C 	C 	0.43190 0.53995 0.54470 -0.01500
H 	H 	0.38440 0.55340 0.57590 0.03300
O 	O 	0.58240 0.74420 0.47000 -0.41500
C 	C 	0.40920 0.62400 0.52880 -0.07000
H 	H 	0.34590 0.61050 0.54880 0.04900
C 	C 	0.40940 0.66380 0.52870 0.03700
H 	H 	0.34620 0.67740 0.54870 -0.01100
Ba	Ba	0.46611 0.72930 0.84867 2.03600
Ba	Ba	0.79372 0.77886 0.00794 2.15500
Ba	Ba	0.26726 0.76738 0.62889 1.74200
O 	O 	0.47600 0.81897 0.64349 -0.55900
O 	O 	0.50700 0.77735 0.73830 -0.59500
O 	O 	0.95390 0.78454 0.91024 -0.63300
O 	O 	0.08700 0.82165 0.86490 -0.47200
O 	O 	0.67860 0.19068 0.63080 -0.45100
O 	O 	0.84980 0.19839 0.71850 -0.57600
O 	O 	0.58360 0.79859 0.91409 -0.66900
O 	O 	0.37480 0.79695 0.90506 -0.65000
O 	O 	0.81060 0.16499 0.90780 -0.40100
O 	O 	0.71100 0.22092 0.89390 -0.55800
O 	O 	0.23530 0.22018 0.90982 -0.62900
O 	O 	0.13450 0.16970 0.85410 -0.47800
H 	H 	0.57390 0.68600 0.00260 0.17000
O 	O 	0.02990 0.24450 0.44170 -0.18800
C 	C 	0.97580 0.12400 0.56250 -0.07100
H 	H 	0.95910 0.11050 0.60560 0.05300
C 	C 	0.97600 0.16380 0.56190 0.04300
H 	H 	0.95940 0.17740 0.60480 -0.00700
O 	O 	0.23800 0.81946 0.50590 -0.53500
O 	O 	0.32580 0.87506 0.47920 -0.38800
O 	O 	0.19370 0.76562 0.76670 -0.49100
H 	H 	0.17740 0.79150 0.78590 0.13700
C 	C 	0.53900 0.80651 0.70510 0.43700
C 	C 	0.65840 0.82767 0.73890 -0.21900
C 	C 	0.66990 0.86670 0.72170 0.05300
H 	H 	0.60260 0.87880 0.68750 0.00500
C 	C 	0.77550 0.88825 0.75280 -0.07800
C 	C 	0.87660 0.86875 0.79880 0.04500
H 	H 	0.95330 0.88220 0.81790 0.00400
C 	C 	0.86640 0.83013 0.81670 -0.22100
C 	C 	0.75580 0.80995 0.78980 0.12700
H 	H 	0.74640 0.78420 0.80580 -0.06300
C 	C 	0.97750 0.81099 0.86790 0.41500
C 	C 	0.78070 0.93015 0.74050 0.05800
C 	C 	0.71000 0.94793 0.67690 -0.09300
H 	H 	0.66070 0.93250 0.63850 0.06500
C 	C 	0.70960 0.98799 0.66810 -0.01900
H 	H 	0.65920 0.99920 0.62420 0.03100
C 	C 	0.78150 0.01150 0.72240 -0.03200
C 	C 	0.85470 0.99396 0.78570 -0.02400
H 	H 	0.90580 0.00940 0.82330 0.03300
C 	C 	0.85410 0.95415 0.79470 -0.09000
H 	H 	0.90460 0.94300 0.83860 0.04700
C 	C 	0.77740 0.05398 0.71380 0.08700
C 	C 	0.67500 0.07218 0.66830 -0.15500
H 	H 	0.60640 0.05700 0.64250 0.07800
C 	C 	0.66940 0.11180 0.65930 0.08600
H 	H 	0.59750 0.12340 0.62820 0.00300
C 	C 	0.76890 0.13432 0.69550 -0.19300
C 	C 	0.87030 0.11750 0.74210 0.10100
H 	H 	0.93760 0.13300 0.76860 -0.01500
C 	C 	0.87450 0.07770 0.75070 -0.15900
H 	H 	0.94590 0.06640 0.78280 0.08300
C 	C 	0.76410 0.17696 0.68140 0.42100
C 	C 	0.47650 0.81472 0.90600 0.47500
C 	C 	0.47000 0.85796 0.89560 -0.25800
C 	C 	0.58160 0.87913 0.89490 0.14300
H 	H 	0.66100 0.86630 0.89900 -0.06200
C 	C 	0.57490 0.91835 0.88810 -0.20900
H 	H 	0.65030 0.93250 0.88640 0.09100
C 	C 	0.46080 0.93796 0.88370 0.12600
C 	C 	0.35000 0.91645 0.88240 -0.20300
H 	H 	0.27030 0.92920 0.87710 0.08500
C 	C 	0.35520 0.87702 0.88850 0.13000
H 	H 	0.27920 0.86280 0.88780 -0.04500
C 	C 	0.45830 0.98046 0.88090 -0.06900
C 	C 	0.54010 0.00121 0.84360 0.00900
H 	H 	0.59450 0.98770 0.81670 0.02700
C 	C 	0.54360 0.04106 0.84510 -0.11300
H 	H 	0.60100 0.05440 0.82000 0.07000
C 	C 	0.46480 0.06159 0.88270 0.07000
C 	C 	0.38200 0.04136 0.91960 -0.11200
H 	H 	0.32730 0.05500 0.94600 0.06200
C 	C 	0.37900 0.00145 0.91800 0.01200
H 	H 	0.32120 0.98820 0.94290 0.01400
C 	C 	0.71090 0.18450 0.89940 0.37200
C 	C 	0.58570 0.16470 0.89500 -0.17200
C 	C 	0.58220 0.12480 0.89060 0.03200
H 	H 	0.65860 0.11100 0.89040 0.02600
C 	C 	0.46740 0.10457 0.88660 -0.06700
C 	C 	0.35670 0.12586 0.88350 0.04200
H 	H 	0.27760 0.11270 0.87700 0.02100
C 	C 	0.35750 0.16556 0.88960 -0.18600
C 	C 	0.23320 0.18656 0.88480 0.42600
C 	C 	0.47370 0.18501 0.89540 0.09900
H 	H 	0.47600 0.21230 0.89960 -0.04900
C 	C 	0.11110 0.87664 0.49500 -0.15700
C 	C 	0.23240 0.85545 0.49320 0.34100
C 	C 	0.10930 0.91601 0.49350 0.01800
H 	H 	0.18440 0.92940 0.48780 0.03300
C 	C 	0.93130 0.00012 0.54500 -0.06700
H 	H 	0.88350 0.98680 0.57630 0.05700
C 	C 	0.93190 0.03995 0.54470 -0.01000
H 	H 	0.88440 0.05340 0.57590 0.03400
O 	O 	0.08240 0.24420 0.47000 -0.41000
C 	C 	0.90920 0.12400 0.52880 -0.06200
H 	H 	0.84590 0.11050 0.54880 0.04900
C 	C 	0.90940 0.16380 0.52870 0.04500
H 	H 	0.84620 0.17740 0.54870 -0.01200
La	La	0.00000 0.31756 0.50000 1.47600
La	La	0.50000 0.81756 0.50000 1.49200
O 	O 	-0.00000 0.20349 -0.00000 -0.68700
O 	O 	0.50000 0.70349 -0.00000 -0.66900
C 	C 	0.50000 0.68391 0.50000 -0.20300
C 	C 	0.50000 0.72760 0.50000 0.45500
C 	C 	0.50000 0.35636 0.50000 0.07000
H 	H 	0.50000 0.32900 0.50000 -0.06400
C 	C 	0.50000 0.43760 0.50000 -0.05400
C 	C 	0.50000 0.47925 0.50000 0.05600
C 	C 	0.50000 0.56070 0.50000 -0.03400
C 	C 	0.50000 0.60343 0.50000 0.07400
C 	C 	0.00000 0.18391 0.50000 -0.21600
C 	C 	0.00000 0.22760 0.50000 0.44000
C 	C 	0.00000 0.85636 0.50000 0.05200
H 	H 	0.00000 0.82900 0.50000 -0.06200
C 	C 	0.00000 0.93760 0.50000 -0.05800
C 	C 	0.00000 0.97925 0.50000 0.03400
C 	C 	0.00000 0.06070 0.50000 -0.03900
C 	C 	0.00000 0.10343 0.50000 0.05900
