data_crystal

_cell_length_a 8.97090
_cell_length_b 10.34260
_cell_length_c 10.34260
_cell_angle_alpha 120.00000
_cell_angle_beta  90.00000
_cell_angle_gamma 90.00000

_symmetry_space_group_name_	'P 1'
_symmetry_space_group_name_H-M	'P 1'

loop_
_symmetry_equiv_pos_as_xyz
  x,y,z

loop_
_atom_site_label
_atom_site_type_symbol
_atom_site_fract_x
_atom_site_fract_y
_atom_site_fract_z
_atom_site_charge
La	La	0.95064 0.33333 0.66666 1.74000
La	La	0.04936 0.66667 0.33334 1.74000
H 	H 	0.56330 0.47920 0.36500 0.06100
H 	H 	0.71990 0.62850 0.56980 0.09400
H 	H 	0.56330 0.88580 0.52080 0.06100
H 	H 	0.71990 0.94130 0.37150 0.09400
H 	H 	0.56330 0.63500 0.11420 0.06200
H 	H 	0.71990 0.43020 0.05870 0.09500
H 	H 	0.43670 0.52080 0.63500 0.06200
H 	H 	0.28010 0.37150 0.43020 0.09500
H 	H 	0.43670 0.11420 0.47920 0.06200
H 	H 	0.28010 0.05870 0.62850 0.09500
H 	H 	0.43670 0.36500 0.88580 0.06200
H 	H 	0.28010 0.56980 0.94130 0.09500
C 	C 	0.56720 0.46170 0.44970 0.06300
C 	C 	0.84270 0.44520 0.42010 0.36600
C 	C 	0.71490 0.52040 0.52960 -0.08300
C 	C 	0.56720 0.98800 0.53830 0.06300
C 	C 	0.84270 0.97490 0.55480 0.36700
C 	C 	0.71490 0.00920 0.47960 -0.08400
C 	C 	0.56720 0.55030 0.01200 0.06300
C 	C 	0.84270 0.57990 0.02510 0.36600
C 	C 	0.71490 0.47040 0.99080 -0.08400
C 	C 	0.43280 0.53830 0.55030 0.06300
C 	C 	0.15730 0.55480 0.57990 0.36600
C 	C 	0.28510 0.47960 0.47040 -0.08300
C 	C 	0.43280 0.01200 0.46170 0.06300
C 	C 	0.15730 0.02510 0.44520 0.36700
C 	C 	0.28510 0.99080 0.52040 -0.08400
C 	C 	0.43280 0.44970 0.98800 0.06300
C 	C 	0.15730 0.42010 0.97490 0.36600
C 	C 	0.28510 0.52960 0.00920 -0.08400
O 	O 	0.55870 0.30380 0.39320 -0.12900
O 	O 	0.92050 0.35140 0.43360 -0.36300
O 	O 	0.86160 0.48040 0.32170 -0.37400
O 	O 	0.73400 0.48870 0.64890 -0.21500
O 	O 	0.55870 0.08940 0.69620 -0.13000
O 	O 	0.92050 0.08220 0.64860 -0.36400
O 	O 	0.86160 0.84130 0.51960 -0.37400
O 	O 	0.73400 0.16020 0.51130 -0.21500
O 	O 	0.55870 0.60680 0.91060 -0.12900
O 	O 	0.92050 0.56640 0.91780 -0.36400
O 	O 	0.86160 0.67830 0.15870 -0.37400
O 	O 	0.73400 0.35110 0.83980 -0.21500
O 	O 	0.44130 0.69620 0.60680 -0.12900
O 	O 	0.07950 0.64860 0.56640 -0.36300
O 	O 	0.13840 0.51960 0.67830 -0.37400
O 	O 	0.26600 0.51130 0.35110 -0.21500
O 	O 	0.44130 0.91060 0.30380 -0.13000
O 	O 	0.07950 0.91780 0.35140 -0.36400
O 	O 	0.13840 0.15870 0.48040 -0.37400
O 	O 	0.26600 0.83980 0.48870 -0.21500
O 	O 	0.44130 0.39320 0.08940 -0.12900
O 	O 	0.07950 0.43360 0.08220 -0.36400
O 	O 	0.13840 0.32170 0.84130 -0.37400
O 	O 	0.26600 0.64890 0.16020 -0.21500
