data_crystal

_cell_length_a 8.94270
_cell_length_b 10.28800
_cell_length_c 10.28800
_cell_angle_alpha 120.00000
_cell_angle_beta  90.00000
_cell_angle_gamma 90.00000

_symmetry_space_group_name_	'P 1'
_symmetry_space_group_name_H-M	'P 1'

loop_
_symmetry_equiv_pos_as_xyz
  x,y,z

loop_
_atom_site_label
_atom_site_type_symbol
_atom_site_fract_x
_atom_site_fract_y
_atom_site_fract_z
_atom_site_charge
Ce	Ce	0.95012 0.33333 0.66666 2.17200
Ce	Ce	0.04988 0.66667 0.33334 2.17200
H 	H 	0.56240 0.47990 0.11510 0.06300
H 	H 	0.72070 0.62980 0.05890 0.09800
H 	H 	0.56240 0.63520 0.52010 0.06400
H 	H 	0.72070 0.42910 0.37020 0.09800
H 	H 	0.56240 0.88490 0.36480 0.06400
H 	H 	0.72070 0.94110 0.57090 0.09900
H 	H 	0.43760 0.52010 0.88490 0.06400
H 	H 	0.27930 0.37020 0.94110 0.09900
H 	H 	0.43760 0.36480 0.47990 0.06400
H 	H 	0.27930 0.57090 0.62980 0.09800
H 	H 	0.43760 0.11510 0.63520 0.06400
H 	H 	0.27930 0.05890 0.42910 0.09900
C 	C 	0.84380 0.44550 0.02530 0.38300
C 	C 	0.56660 0.46190 0.01220 0.06700
C 	C 	0.71560 0.52100 0.99110 -0.08900
C 	C 	0.84380 0.57980 0.55450 0.38100
C 	C 	0.56660 0.55030 0.53810 0.06600
C 	C 	0.71560 0.47010 0.47900 -0.08700
C 	C 	0.84380 0.97470 0.42020 0.38300
C 	C 	0.56660 0.98780 0.44970 0.06700
C 	C 	0.71560 0.00890 0.52990 -0.08900
C 	C 	0.15620 0.55450 0.97470 0.38300
C 	C 	0.43340 0.53810 0.98780 0.06700
C 	C 	0.28440 0.47900 0.00890 -0.08900
C 	C 	0.15620 0.42020 0.44550 0.38100
C 	C 	0.43340 0.44970 0.46190 0.06600
C 	C 	0.28440 0.52990 0.52100 -0.08700
C 	C 	0.15620 0.02530 0.57980 0.38300
C 	C 	0.43340 0.01220 0.55030 0.06700
C 	C 	0.28440 0.99110 0.47010 -0.08900
O 	O 	0.55910 0.30350 0.91110 -0.12700
O 	O 	0.92180 0.35090 0.91720 -0.42300
O 	O 	0.86290 0.48130 0.15950 -0.43300
O 	O 	0.73460 0.48800 0.83900 -0.26500
O 	O 	0.55910 0.60760 0.69650 -0.12700
O 	O 	0.92180 0.56630 0.64910 -0.42100
O 	O 	0.86290 0.67820 0.51870 -0.43300
O 	O 	0.73460 0.35100 0.51200 -0.26500
O 	O 	0.55910 0.08890 0.39240 -0.12700
O 	O 	0.92180 0.08280 0.43370 -0.42200
O 	O 	0.86290 0.84050 0.32180 -0.43300
O 	O 	0.73460 0.16100 0.64900 -0.26500
O 	O 	0.44090 0.69650 0.08890 -0.12700
O 	O 	0.07820 0.64910 0.08280 -0.42300
O 	O 	0.13710 0.51870 0.84050 -0.43300
O 	O 	0.26540 0.51200 0.16100 -0.26500
O 	O 	0.44090 0.39240 0.30350 -0.12700
O 	O 	0.07820 0.43370 0.35090 -0.42100
O 	O 	0.13710 0.32180 0.48130 -0.43300
O 	O 	0.26540 0.64900 0.48800 -0.26500
O 	O 	0.44090 0.91110 0.60760 -0.12700
O 	O 	0.07820 0.91720 0.56630 -0.42200
O 	O 	0.13710 0.15950 0.67820 -0.43300
O 	O 	0.26540 0.83900 0.35100 -0.26500
