data_crystal

_cell_length_a 8.90840
_cell_length_b 10.21820
_cell_length_c 10.21820
_cell_angle_alpha 120.00000
_cell_angle_beta  90.00000
_cell_angle_gamma 90.00000

_symmetry_space_group_name_	'P 1'
_symmetry_space_group_name_H-M	'P 1'

loop_
_symmetry_equiv_pos_as_xyz
  x,y,z

loop_
_atom_site_label
_atom_site_type_symbol
_atom_site_fract_x
_atom_site_fract_y
_atom_site_fract_z
_atom_site_charge
Pr	Pr	0.94804 0.33333 0.66666 2.10200
Pr	Pr	0.05196 0.66667 0.33334 2.10200
H 	H 	0.56300 0.48210 0.36480 0.06400
H 	H 	0.72200 0.63180 0.57270 0.10100
H 	H 	0.56300 0.88270 0.51790 0.06400
H 	H 	0.72200 0.94090 0.36820 0.10100
H 	H 	0.56300 0.63520 0.11730 0.06400
H 	H 	0.72200 0.42730 0.05910 0.10100
H 	H 	0.43700 0.51790 0.63520 0.06400
H 	H 	0.27800 0.36820 0.42730 0.10100
H 	H 	0.43700 0.11730 0.48210 0.06400
H 	H 	0.27800 0.05910 0.63180 0.10100
H 	H 	0.43700 0.36480 0.88270 0.06400
H 	H 	0.27800 0.57270 0.94090 0.10100
C 	C 	0.56730 0.46270 0.44940 0.06600
C 	C 	0.84490 0.44580 0.42080 0.38400
C 	C 	0.71660 0.52230 0.53130 -0.08800
C 	C 	0.56730 0.98670 0.53730 0.06600
C 	C 	0.84490 0.97500 0.55420 0.38600
C 	C 	0.71660 0.00900 0.47770 -0.09000
C 	C 	0.56730 0.55060 0.01330 0.06600
C 	C 	0.84490 0.57920 0.02500 0.38500
C 	C 	0.71660 0.46870 0.99100 -0.09000
C 	C 	0.43270 0.53730 0.55060 0.06600
C 	C 	0.15510 0.55420 0.57920 0.38400
C 	C 	0.28340 0.47770 0.46870 -0.08800
C 	C 	0.43270 0.01330 0.46270 0.06600
C 	C 	0.15510 0.02500 0.44580 0.38600
C 	C 	0.28340 0.99100 0.52230 -0.09000
C 	C 	0.43270 0.44940 0.98670 0.06600
C 	C 	0.15510 0.42080 0.97500 0.38500
C 	C 	0.28340 0.53130 0.00900 -0.09000
O 	O 	0.56050 0.30240 0.38990 -0.12500
O 	O 	0.92260 0.34990 0.43410 -0.41300
O 	O 	0.86710 0.48220 0.32250 -0.42700
O 	O 	0.73530 0.48830 0.65080 -0.26100
O 	O 	0.56050 0.08750 0.69760 -0.12500
O 	O 	0.92260 0.08420 0.65010 -0.41400
O 	O 	0.86710 0.84030 0.51780 -0.42800
O 	O 	0.73530 0.16250 0.51170 -0.26100
O 	O 	0.56050 0.61010 0.91250 -0.12500
O 	O 	0.92260 0.56590 0.91580 -0.41400
O 	O 	0.86710 0.67750 0.15970 -0.42800
O 	O 	0.73530 0.34920 0.83750 -0.26100
O 	O 	0.43950 0.69760 0.61010 -0.12500
O 	O 	0.07740 0.65010 0.56590 -0.41300
O 	O 	0.13290 0.51780 0.67750 -0.42700
O 	O 	0.26470 0.51170 0.34920 -0.26100
O 	O 	0.43950 0.91250 0.30240 -0.12500
O 	O 	0.07740 0.91580 0.34990 -0.41400
O 	O 	0.13290 0.15970 0.48220 -0.42800
O 	O 	0.26470 0.83750 0.48830 -0.26100
O 	O 	0.43950 0.38990 0.08750 -0.12500
O 	O 	0.07740 0.43410 0.08420 -0.41400
O 	O 	0.13290 0.32250 0.84030 -0.42800
O 	O 	0.26470 0.65080 0.16250 -0.26100
