data_crystal

_cell_length_a 8.90210
_cell_length_b 10.21510
_cell_length_c 10.21510
_cell_angle_alpha 120.00000
_cell_angle_beta  90.00000
_cell_angle_gamma 90.00000

_symmetry_space_group_name_	'P 1'
_symmetry_space_group_name_H-M	'P 1'

loop_
_symmetry_equiv_pos_as_xyz
  x,y,z

loop_
_atom_site_label
_atom_site_type_symbol
_atom_site_fract_x
_atom_site_fract_y
_atom_site_fract_z
_atom_site_charge
Nd	Nd	0.94886 0.33333 0.66666 2.48100
Nd	Nd	0.05114 0.66667 0.33334 2.48100
H 	H 	0.56290 0.48130 0.11680 0.05500
H 	H 	0.72200 0.63140 0.06020 0.08200
H 	H 	0.56290 0.63550 0.51870 0.05700
H 	H 	0.72200 0.42880 0.36860 0.08100
H 	H 	0.56290 0.88320 0.36450 0.05600
H 	H 	0.72200 0.93980 0.57120 0.08300
H 	H 	0.43710 0.51870 0.88320 0.05600
H 	H 	0.27800 0.36860 0.93980 0.08300
H 	H 	0.43710 0.36450 0.48130 0.05700
H 	H 	0.27800 0.57120 0.63140 0.08100
H 	H 	0.43710 0.11680 0.63550 0.05600
H 	H 	0.27800 0.06020 0.42880 0.08300
C 	C 	0.84500 0.44570 0.02530 0.43400
C 	C 	0.56740 0.46240 0.01290 0.06500
C 	C 	0.71680 0.52180 0.99160 -0.07300
C 	C 	0.84500 0.57960 0.55430 0.43100
C 	C 	0.56740 0.55050 0.53760 0.06400
C 	C 	0.71680 0.46980 0.47820 -0.06900
C 	C 	0.84500 0.97470 0.42040 0.43300
C 	C 	0.56740 0.98710 0.44950 0.06500
C 	C 	0.71680 0.00840 0.53020 -0.07300
C 	C 	0.15500 0.55430 0.97470 0.43400
C 	C 	0.43260 0.53760 0.98710 0.06500
C 	C 	0.28320 0.47820 0.00840 -0.07300
C 	C 	0.15500 0.42040 0.44570 0.43100
C 	C 	0.43260 0.44950 0.46240 0.06400
C 	C 	0.28320 0.53020 0.52180 -0.06900
C 	C 	0.15500 0.02530 0.57960 0.43300
C 	C 	0.43260 0.01290 0.55050 0.06500
C 	C 	0.28320 0.99160 0.46980 -0.07300
O 	O 	0.55920 0.30260 0.91220 -0.13500
O 	O 	0.92360 0.35000 0.91600 -0.47300
O 	O 	0.86460 0.48250 0.16090 -0.48400
O 	O 	0.73670 0.48880 0.83840 -0.30000
O 	O 	0.55920 0.60960 0.69740 -0.13500
O 	O 	0.92360 0.56600 0.65000 -0.47000
O 	O 	0.86460 0.67840 0.51750 -0.48400
O 	O 	0.73670 0.34960 0.51120 -0.30100
O 	O 	0.55920 0.08780 0.39040 -0.13500
O 	O 	0.92360 0.08400 0.43400 -0.47200
O 	O 	0.86460 0.83910 0.32160 -0.48400
O 	O 	0.73670 0.16160 0.65040 -0.30000
O 	O 	0.44080 0.69740 0.08780 -0.13500
O 	O 	0.07640 0.65000 0.08400 -0.47300
O 	O 	0.13540 0.51750 0.83910 -0.48400
O 	O 	0.26330 0.51120 0.16160 -0.30000
O 	O 	0.44080 0.39040 0.30260 -0.13500
O 	O 	0.07640 0.43400 0.35000 -0.47000
O 	O 	0.13540 0.32160 0.48250 -0.48400
O 	O 	0.26330 0.65040 0.48880 -0.30100
O 	O 	0.44080 0.91220 0.60960 -0.13500
O 	O 	0.07640 0.91600 0.56600 -0.47200
O 	O 	0.13540 0.16090 0.67840 -0.48400
O 	O 	0.26330 0.83840 0.34960 -0.30000
