data_crystal

_cell_length_a 27.73710
_cell_length_b 27.73710
_cell_length_c 9.62250
_cell_angle_alpha 90.00000
_cell_angle_beta  90.00000
_cell_angle_gamma 120.00000

_symmetry_space_group_name_	'P 1'
_symmetry_space_group_name_H-M	'P 1'

loop_
_symmetry_equiv_pos_as_xyz
  x,y,z

loop_
_atom_site_label
_atom_site_type_symbol
_atom_site_fract_x
_atom_site_fract_y
_atom_site_fract_z
_atom_site_charge
N 	N 	0.79150 0.72070 0.89000 -0.09200
N 	N 	0.80280 0.68070 0.84320 -0.21000
N 	N 	0.76590 0.65340 0.05600 -0.12800
N 	N 	0.81890 0.59660 0.79490 -0.24500
N 	N 	0.71010 0.79250 0.24520 -0.23800
C 	C 	0.83090 0.55620 0.76830 0.13000
H 	H 	0.84580 0.55550 0.68220 -0.02000
C 	C 	0.82180 0.51580 0.86440 -0.23000
H 	H 	0.83030 0.48830 0.84250 0.11500
C 	C 	0.80040 0.51600 0.99120 0.19500
H 	H 	0.79440 0.48890 0.05680 -0.04900
C 	C 	0.78780 0.55680 0.02090 -0.24200
H 	H 	0.77320 0.55790 0.10710 0.11600
C 	C 	0.79710 0.59590 0.92160 0.10800
C 	C 	0.78750 0.64290 0.94200 0.07100
C 	C 	0.76930 0.70180 0.01530 0.05800
C 	C 	0.74180 0.81340 0.13260 0.11300
H 	H 	0.75080 0.84890 0.10390 -0.01800
C 	C 	0.76160 0.78590 0.05780 -0.19800
H 	H 	0.78280 0.80220 0.97850 0.11500
C 	C 	0.75040 0.73350 0.09910 0.09400
C 	C 	0.71890 0.71200 0.21630 -0.16100
H 	H 	0.71100 0.67730 0.24910 0.09800
C 	C 	0.69900 0.74190 0.28560 0.09300
H 	H 	0.67690 0.72610 0.36380 -0.00400
N 	N 	0.45817 0.05403 0.22333 -0.10200
N 	N 	0.46947 0.01403 0.17653 -0.22300
N 	N 	0.43257 0.98673 0.38933 -0.11900
N 	N 	0.48557 0.92993 0.12823 -0.22600
N 	N 	0.37677 0.12583 0.57853 -0.23100
C 	C 	0.49757 0.88953 0.10163 0.08100
H 	H 	0.51247 0.88883 0.01553 -0.00800
C 	C 	0.48847 0.84913 0.19773 -0.14400
H 	H 	0.49697 0.82163 0.17583 0.08000
C 	C 	0.46707 0.84933 0.32453 0.05900
H 	H 	0.46107 0.82223 0.39013 0.00800
C 	C 	0.45447 0.89013 0.35423 -0.12300
H 	H 	0.43987 0.89123 0.44043 0.07900
C 	C 	0.46377 0.92923 0.25493 0.05300
C 	C 	0.45417 0.97623 0.27533 0.08700
C 	C 	0.43597 0.03513 0.34863 0.06700
C 	C 	0.40847 0.14673 0.46593 0.08700
H 	H 	0.41747 0.18223 0.43723 -0.00800
C 	C 	0.42827 0.11923 0.39113 -0.14900
H 	H 	0.44947 0.13553 0.31183 0.08500
C 	C 	0.41707 0.06683 0.43243 0.07200
C 	C 	0.38557 0.04533 0.54963 -0.14500
H 	H 	0.37767 0.01063 0.58243 0.08800
C 	C 	0.36567 0.07523 0.61893 0.08200
H 	H 	0.34357 0.05943 0.69713 -0.00200
N 	N 	0.12483 0.38737 0.55667 -0.10000
N 	N 	0.13613 0.34737 0.50987 -0.21200
N 	N 	0.09923 0.32007 0.72267 -0.12500
N 	N 	0.15223 0.26327 0.46157 -0.22800
N 	N 	0.04343 0.45917 0.91187 -0.23700
C 	C 	0.16423 0.22287 0.43497 0.08100
H 	H 	0.17913 0.22217 0.34887 -0.00500
C 	C 	0.15513 0.18247 0.53107 -0.14600
H 	H 	0.16363 0.15497 0.50917 0.08100
C 	C 	0.13373 0.18267 0.65787 0.06100
H 	H 	0.12773 0.15557 0.72347 0.00700
C 	C 	0.12113 0.22347 0.68757 -0.12700
H 	H 	0.10653 0.22457 0.77377 0.08000
C 	C 	0.13043 0.26257 0.58827 0.05600
C 	C 	0.12083 0.30957 0.60867 0.07300
C 	C 	0.10263 0.36847 0.68197 0.07500
C 	C 	0.07513 0.48007 0.79927 0.09400
H 	H 	0.08413 0.51557 0.77057 -0.00800
C 	C 	0.09493 0.45257 0.72447 -0.15800
H 	H 	0.11613 0.46887 0.64517 0.09000
C 	C 	0.08373 0.40017 0.76577 0.08300
C 	C 	0.05223 0.37867 0.88297 -0.17000
H 	H 	0.04433 0.34397 0.91577 0.10400
C 	C 	0.03233 0.40857 0.95227 0.12500
H 	H 	0.01023 0.39277 0.03047 -0.03100
N 	N 	0.27930 0.07080 0.89000 -0.09300
N 	N 	0.31930 0.12210 0.84320 -0.21000
N 	N 	0.34660 0.11250 0.05600 -0.12900
N 	N 	0.40340 0.22230 0.79490 -0.24500
N 	N 	0.20750 0.91760 0.24520 -0.23900
C 	C 	0.44380 0.27470 0.76830 0.13200
H 	H 	0.44450 0.29030 0.68220 -0.02100
C 	C 	0.48420 0.30600 0.86440 -0.23400
H 	H 	0.51170 0.34200 0.84250 0.11600
C 	C 	0.48400 0.28440 0.99120 0.20100
H 	H 	0.51110 0.30550 0.05680 -0.05100
C 	C 	0.44320 0.23100 0.02090 -0.24600
H 	H 	0.44210 0.21530 0.10710 0.11800
C 	C 	0.40410 0.20120 0.92160 0.11000
C 	C 	0.35710 0.14460 0.94200 0.07100
C 	C 	0.29820 0.06750 0.01530 0.05700
C 	C 	0.18660 0.92840 0.13260 0.10700
H 	H 	0.15110 0.90190 0.10390 -0.01700
C 	C 	0.21410 0.97570 0.05780 -0.17900
H 	H 	0.19780 0.98060 0.97850 0.11200
C 	C 	0.26650 0.01690 0.09910 0.08200
C 	C 	0.28800 0.00690 0.21630 -0.18100
H 	H 	0.32270 0.03370 0.24910 0.10300
C 	C 	0.25810 0.95710 0.28560 0.11400
H 	H 	0.27390 0.95080 0.36380 -0.00800
N 	N 	0.94597 0.40413 0.22333 -0.10300
N 	N 	0.98597 0.45543 0.17653 -0.20300
N 	N 	0.01327 0.44583 0.38933 -0.13300
N 	N 	0.07007 0.55563 0.12823 -0.23200
N 	N 	0.87417 0.25093 0.57853 -0.23000
C 	C 	0.11047 0.60803 0.10163 0.08100
H 	H 	0.11117 0.62363 0.01553 -0.01000
C 	C 	0.15087 0.63933 0.19773 -0.14800
H 	H 	0.17837 0.67533 0.17583 0.08100
C 	C 	0.15067 0.61773 0.32453 0.06300
H 	H 	0.17777 0.63883 0.39013 0.00700
C 	C 	0.10987 0.56433 0.35423 -0.12900
H 	H 	0.10877 0.54863 0.44043 0.08000
C 	C 	0.07077 0.53453 0.25493 0.05800
C 	C 	0.02377 0.47793 0.27533 0.05900
C 	C 	0.96487 0.40083 0.34863 0.09300
C 	C 	0.85327 0.26173 0.46593 0.08500
H 	H 	0.81777 0.23523 0.43723 -0.00700
C 	C 	0.88077 0.30903 0.39113 -0.14400
H 	H 	0.86447 0.31393 0.31183 0.08300
C 	C 	0.93317 0.35023 0.43243 0.06600
C 	C 	0.95467 0.34023 0.54963 -0.13900
H 	H 	0.98937 0.36703 0.58243 0.09600
C 	C 	0.92477 0.29043 0.61893 0.08200
H 	H 	0.94057 0.28413 0.69713 0.00300
N 	N 	0.61263 0.73747 0.55667 -0.10000
N 	N 	0.65263 0.78877 0.50987 -0.21200
N 	N 	0.67993 0.77917 0.72267 -0.12500
N 	N 	0.73673 0.88897 0.46157 -0.22000
N 	N 	0.54083 0.58427 0.91187 -0.23500
C 	C 	0.77713 0.94137 0.43497 0.05400
H 	H 	0.77783 0.95697 0.34887 0.00900
C 	C 	0.81753 0.97267 0.53107 -0.08700
H 	H 	0.84503 0.00867 0.50917 0.05300
C 	C 	0.81733 0.95107 0.65787 0.02400
H 	H 	0.84443 0.97217 0.72347 0.02800
C 	C 	0.77653 0.89767 0.68757 -0.10200
H 	H 	0.77543 0.88197 0.77377 0.07400
C 	C 	0.73743 0.86787 0.58827 0.04600
C 	C 	0.69043 0.81127 0.60867 0.07700
C 	C 	0.63153 0.73417 0.68197 0.07600
C 	C 	0.51993 0.59507 0.79927 0.09500
H 	H 	0.48443 0.56857 0.77057 -0.00800
C 	C 	0.54743 0.64237 0.72447 -0.15700
H 	H 	0.53113 0.64727 0.64517 0.09000
C 	C 	0.59983 0.68357 0.76577 0.08400
C 	C 	0.62133 0.67357 0.88297 -0.16700
H 	H 	0.65603 0.70037 0.91577 0.10600
C 	C 	0.59143 0.62377 0.95227 0.12400
H 	H 	0.60723 0.61747 0.03047 -0.02500
N 	N 	0.92920 0.20850 0.89000 -0.08900
N 	N 	0.87790 0.19720 0.84320 -0.21000
N 	N 	0.88750 0.23410 0.05600 -0.12800
N 	N 	0.77770 0.18110 0.79490 -0.24500
N 	N 	0.08240 0.28990 0.24520 -0.23700
C 	C 	0.72530 0.16910 0.76830 0.13100
H 	H 	0.70970 0.15420 0.68220 -0.02100
C 	C 	0.69400 0.17820 0.86440 -0.23200
H 	H 	0.65800 0.16970 0.84250 0.11600
C 	C 	0.71560 0.19960 0.99120 0.19800
H 	H 	0.69450 0.20560 0.05680 -0.05000
C 	C 	0.76900 0.21220 0.02090 -0.24400
H 	H 	0.78470 0.22680 0.10710 0.11700
C 	C 	0.79880 0.20290 0.92160 0.10900
C 	C 	0.85540 0.21250 0.94200 0.07100
C 	C 	0.93250 0.23070 0.01530 0.05600
C 	C 	0.07160 0.25820 0.13260 0.12000
H 	H 	0.09810 0.24920 0.10390 -0.02300
C 	C 	0.02430 0.23840 0.05780 -0.22300
H 	H 	0.01940 0.21720 0.97850 0.11800
C 	C 	0.98310 0.24960 0.09910 0.10700
C 	C 	0.99310 0.28110 0.21630 -0.14200
H 	H 	0.96630 0.28900 0.24910 0.09400
C 	C 	0.04290 0.30100 0.28560 0.07200
H 	H 	0.04920 0.32310 0.36380 -0.00000
N 	N 	0.59587 0.54183 0.22333 -0.10200
N 	N 	0.54457 0.53053 0.17653 -0.21300
N 	N 	0.55417 0.56743 0.38933 -0.12600
N 	N 	0.44437 0.51443 0.12823 -0.22900
N 	N 	0.74907 0.62323 0.57853 -0.23100
C 	C 	0.39197 0.50243 0.10163 0.08100
H 	H 	0.37637 0.48753 0.01553 -0.00900
C 	C 	0.36067 0.51153 0.19773 -0.14600
H 	H 	0.32467 0.50303 0.17583 0.08000
C 	C 	0.38227 0.53293 0.32453 0.06100
H 	H 	0.36117 0.53893 0.39013 0.00800
C 	C 	0.43567 0.54553 0.35423 -0.12600
H 	H 	0.45137 0.56013 0.44043 0.08000
C 	C 	0.46547 0.53623 0.25493 0.05500
C 	C 	0.52207 0.54583 0.27533 0.07300
C 	C 	0.59917 0.56403 0.34863 0.08000
C 	C 	0.73827 0.59153 0.46593 0.08600
H 	H 	0.76477 0.58253 0.43723 -0.00800
C 	C 	0.69097 0.57173 0.39113 -0.14700
H 	H 	0.68607 0.55053 0.31183 0.08400
C 	C 	0.64977 0.58293 0.43243 0.06900
C 	C 	0.65977 0.61443 0.54963 -0.14200
H 	H 	0.63297 0.62233 0.58243 0.09200
C 	C 	0.70957 0.63433 0.61893 0.08200
H 	H 	0.71587 0.65643 0.69713 0.00100
N 	N 	0.26253 0.87517 0.55667 -0.09900
N 	N 	0.21123 0.86387 0.50987 -0.21100
N 	N 	0.22083 0.90077 0.72267 -0.12300
N 	N 	0.11103 0.84777 0.46157 -0.23400
N 	N 	0.41573 0.95657 0.91187 -0.23200
C 	C 	0.05863 0.83577 0.43497 0.10800
H 	H 	0.04303 0.82087 0.34887 -0.01600
C 	C 	0.02733 0.84487 0.53107 -0.20000
H 	H 	0.99133 0.83637 0.50917 0.11100
C 	C 	0.04893 0.86627 0.65787 0.09800
H 	H 	0.02783 0.87227 0.72347 -0.00700
C 	C 	0.10233 0.87887 0.68757 -0.14900
H 	H 	0.11803 0.89347 0.77377 0.09000
C 	C 	0.13213 0.86957 0.58827 0.06600
C 	C 	0.18873 0.87917 0.60867 0.07200
C 	C 	0.26583 0.89737 0.68197 0.07800
C 	C 	0.40493 0.92487 0.79927 0.09600
H 	H 	0.43143 0.91587 0.77057 -0.00700
C 	C 	0.35763 0.90507 0.72447 -0.15600
H 	H 	0.35273 0.88387 0.64517 0.09000
C 	C 	0.31643 0.91627 0.76577 0.08500
C 	C 	0.32643 0.94777 0.88297 -0.16500
H 	H 	0.29963 0.95567 0.91577 0.10800
C 	C 	0.37623 0.96767 0.95227 0.12500
H 	H 	0.38253 0.98977 0.03047 -0.02000
N 	N 	0.20850 0.27930 0.11000 -0.11000
N 	N 	0.19720 0.31930 0.15680 -0.21300
N 	N 	0.23410 0.34660 0.94400 -0.12300
N 	N 	0.18110 0.40340 0.20510 -0.20900
N 	N 	0.28990 0.20750 0.75480 -0.22400
C 	C 	0.16910 0.44380 0.23170 0.02900
H 	H 	0.15420 0.44450 0.31780 0.01400
C 	C 	0.17820 0.48420 0.13560 -0.05200
H 	H 	0.16970 0.51170 0.15750 0.04600
C 	C 	0.19960 0.48400 0.00880 -0.08500
H 	H 	0.20560 0.51110 0.94320 0.06900
C 	C 	0.21220 0.44320 0.97910 -0.00100
H 	H 	0.22680 0.44210 0.89290 0.04000
C 	C 	0.20290 0.40410 0.07840 -0.00200
C 	C 	0.21250 0.35710 0.05800 0.07600
C 	C 	0.23070 0.29820 0.98470 0.10400
C 	C 	0.25820 0.18660 0.86740 0.06000
H 	H 	0.24920 0.15110 0.89610 0.00500
C 	C 	0.23840 0.21410 0.94220 -0.09300
H 	H 	0.21720 0.19780 0.02150 0.05600
C 	C 	0.24960 0.26650 0.90090 0.04500
C 	C 	0.28110 0.28800 0.78370 -0.12500
H 	H 	0.28900 0.32270 0.75090 0.08700
C 	C 	0.30100 0.25810 0.71440 0.07300
H 	H 	0.32310 0.27390 0.63620 0.00300
N 	N 	0.87517 0.61263 0.44333 -0.10000
N 	N 	0.86387 0.65263 0.49013 -0.21200
N 	N 	0.90077 0.67993 0.27733 -0.12700
N 	N 	0.84777 0.73673 0.53843 -0.22700
N 	N 	0.95657 0.54083 0.08813 -0.22300
C 	C 	0.83577 0.77713 0.56503 0.08200
H 	H 	0.82087 0.77783 0.65113 -0.00300
C 	C 	0.84487 0.81753 0.46893 -0.14400
H 	H 	0.83637 0.84503 0.49083 0.08300
C 	C 	0.86627 0.81733 0.34213 0.06100
H 	H 	0.87227 0.84443 0.27653 0.00900
C 	C 	0.87887 0.77653 0.31243 -0.12500
H 	H 	0.89347 0.77543 0.22623 0.07900
C 	C 	0.86957 0.73743 0.41173 0.05600
C 	C 	0.87917 0.69043 0.39133 0.07400
C 	C 	0.89737 0.63153 0.31803 0.08400
C 	C 	0.92487 0.51993 0.20073 0.08200
H 	H 	0.91587 0.48443 0.22943 -0.00500
C 	C 	0.90507 0.54743 0.27553 -0.13700
H 	H 	0.88387 0.53113 0.35483 0.08400
C 	C 	0.91627 0.59983 0.23423 0.05900
C 	C 	0.94777 0.62133 0.11703 -0.11900
H 	H 	0.95567 0.65603 0.08423 0.08200
C 	C 	0.96767 0.59143 0.04773 0.04500
H 	H 	0.98977 0.60723 0.96953 0.02800
N 	N 	0.54183 0.94597 0.77667 -0.09900
N 	N 	0.53053 0.98597 0.82347 -0.19800
N 	N 	0.56743 0.01327 0.61067 -0.13300
N 	N 	0.51443 0.07007 0.87177 -0.22600
N 	N 	0.62323 0.87417 0.42147 -0.23100
C 	C 	0.50243 0.11047 0.89837 0.08200
H 	H 	0.48753 0.11117 0.98447 0.00100
C 	C 	0.51153 0.15087 0.80227 -0.14500
H 	H 	0.50303 0.17837 0.82417 0.08400
C 	C 	0.53293 0.15067 0.67547 0.06200
H 	H 	0.53893 0.17777 0.60987 0.00700
C 	C 	0.54553 0.10987 0.64577 -0.12900
H 	H 	0.56013 0.10877 0.55957 0.08000
C 	C 	0.53623 0.07077 0.74507 0.05900
C 	C 	0.54583 0.02377 0.72467 0.06100
C 	C 	0.56403 0.96487 0.65137 0.09200
C 	C 	0.59153 0.85327 0.53407 0.08800
H 	H 	0.58253 0.81777 0.56277 -0.00600
C 	C 	0.57173 0.88077 0.60887 -0.14600
H 	H 	0.55053 0.86447 0.68817 0.08800
C 	C 	0.58293 0.93317 0.56757 0.06900
C 	C 	0.61443 0.95467 0.45037 -0.14200
H 	H 	0.62233 0.98937 0.41757 0.09700
C 	C 	0.63433 0.92477 0.38107 0.08400
H 	H 	0.65643 0.94057 0.30287 0.00100
N 	N 	0.72070 0.92920 0.11000 -0.10700
N 	N 	0.68070 0.87790 0.15680 -0.21300
N 	N 	0.65340 0.88750 0.94400 -0.12300
N 	N 	0.59660 0.77770 0.20510 -0.20900
N 	N 	0.79250 0.08240 0.75480 -0.22300
C 	C 	0.55620 0.72530 0.23170 0.03000
H 	H 	0.55550 0.70970 0.31780 0.01400
C 	C 	0.51580 0.69400 0.13560 -0.05400
H 	H 	0.48830 0.65800 0.15750 0.04700
C 	C 	0.51600 0.71560 0.00880 -0.08000
H 	H 	0.48890 0.69450 0.94320 0.06700
C 	C 	0.55680 0.76900 0.97910 -0.00500
H 	H 	0.55790 0.78470 0.89290 0.04100
C 	C 	0.59590 0.79880 0.07840 0.00000
C 	C 	0.64290 0.85540 0.05800 0.07700
C 	C 	0.70180 0.93250 0.98470 0.10200
C 	C 	0.81340 0.07160 0.86740 0.06700
H 	H 	0.84890 0.09810 0.89610 0.00300
C 	C 	0.78590 0.02430 0.94220 -0.11500
H 	H 	0.80220 0.01940 0.02150 0.06100
C 	C 	0.73350 0.98310 0.90090 0.05800
C 	C 	0.71200 0.99310 0.78370 -0.10600
H 	H 	0.67730 0.96630 0.75090 0.08300
C 	C 	0.74190 0.04290 0.71440 0.05300
H 	H 	0.72610 0.04920 0.63620 0.00700
N 	N 	0.38737 0.26253 0.44333 -0.10100
N 	N 	0.34737 0.21123 0.49013 -0.21100
N 	N 	0.32007 0.22083 0.27733 -0.12800
N 	N 	0.26327 0.11103 0.53843 -0.23400
N 	N 	0.45917 0.41573 0.08813 -0.22600
C 	C 	0.22287 0.05863 0.56503 0.10800
H 	H 	0.22217 0.04303 0.65113 -0.01700
C 	C 	0.18247 0.02733 0.46893 -0.20200
H 	H 	0.15497 0.99133 0.49083 0.11100
C 	C 	0.18267 0.04893 0.34213 0.09800
H 	H 	0.15557 0.02783 0.27653 -0.01300
C 	C 	0.22347 0.10233 0.31243 -0.15000
H 	H 	0.22457 0.11803 0.22623 0.08500
C 	C 	0.26257 0.13213 0.41173 0.06500
C 	C 	0.30957 0.18873 0.39133 0.07000
C 	C 	0.36847 0.26583 0.31803 0.08300
C 	C 	0.48007 0.40493 0.20073 0.08000
H 	H 	0.51557 0.43143 0.22943 -0.00600
C 	C 	0.45257 0.35763 0.27553 -0.13800
H 	H 	0.46887 0.35273 0.35483 0.08300
C 	C 	0.40017 0.31643 0.23423 0.05700
C 	C 	0.37867 0.32643 0.11703 -0.11900
H 	H 	0.34397 0.29963 0.08423 0.07900
C 	C 	0.40857 0.37623 0.04773 0.04100
H 	H 	0.39277 0.38253 0.96953 0.02500
N 	N 	0.05403 0.59587 0.77667 -0.09700
N 	N 	0.01403 0.54457 0.82347 -0.21700
N 	N 	0.98673 0.55417 0.61067 -0.11900
N 	N 	0.92993 0.44437 0.87177 -0.22100
N 	N 	0.12583 0.74907 0.42147 -0.23200
C 	C 	0.88953 0.39197 0.89837 0.08100
H 	H 	0.88883 0.37637 0.98447 0.00300
C 	C 	0.84913 0.36067 0.80227 -0.14200
H 	H 	0.82163 0.32467 0.82417 0.08300
C 	C 	0.84933 0.38227 0.67547 0.05900
H 	H 	0.82223 0.36117 0.60987 0.00800
C 	C 	0.89013 0.43567 0.64577 -0.12300
H 	H 	0.89123 0.45137 0.55957 0.07900
C 	C 	0.92923 0.46547 0.74507 0.05400
C 	C 	0.97623 0.52207 0.72467 0.08700
C 	C 	0.03513 0.59917 0.65137 0.06700
C 	C 	0.14673 0.73827 0.53407 0.09000
H 	H 	0.18223 0.76477 0.56277 -0.00700
C 	C 	0.11923 0.69097 0.60887 -0.15100
H 	H 	0.13553 0.68607 0.68817 0.09000
C 	C 	0.06683 0.64977 0.56757 0.07500
C 	C 	0.04533 0.65977 0.45037 -0.14800
H 	H 	0.01063 0.63297 0.41757 0.08900
C 	C 	0.07523 0.70957 0.38107 0.08400
H 	H 	0.05943 0.71587 0.30287 -0.00400
N 	N 	0.07080 0.79150 0.11000 -0.11200
N 	N 	0.12210 0.80280 0.15680 -0.21300
N 	N 	0.11250 0.76590 0.94400 -0.12400
N 	N 	0.22230 0.81890 0.20510 -0.20900
N 	N 	0.91760 0.71010 0.75480 -0.22600
C 	C 	0.27470 0.83090 0.23170 0.03000
H 	H 	0.29030 0.84580 0.31780 0.01400
C 	C 	0.30600 0.82180 0.13560 -0.05300
H 	H 	0.34200 0.83030 0.15750 0.04700
C 	C 	0.28440 0.80040 0.00880 -0.08200
H 	H 	0.30550 0.79440 0.94320 0.06800
C 	C 	0.23100 0.78780 0.97910 -0.00300
H 	H 	0.21530 0.77320 0.89290 0.04000
C 	C 	0.20120 0.79710 0.07840 -0.00000
C 	C 	0.14460 0.78750 0.05800 0.07600
C 	C 	0.06750 0.76930 0.98470 0.10300
C 	C 	0.92840 0.74180 0.86740 0.05800
H 	H 	0.90190 0.75080 0.89610 0.00800
C 	C 	0.97570 0.76160 0.94220 -0.07900
H 	H 	0.98060 0.78280 0.02150 0.05800
C 	C 	0.01690 0.75040 0.90090 0.03700
C 	C 	0.00690 0.71890 0.78370 -0.14600
H 	H 	0.03370 0.71100 0.75090 0.09200
C 	C 	0.95710 0.69900 0.71440 0.09500
H 	H 	0.95080 0.67690 0.63620 -0.00100
N 	N 	0.73747 0.12483 0.44333 -0.10100
N 	N 	0.78877 0.13613 0.49013 -0.21200
N 	N 	0.77917 0.09923 0.27733 -0.12900
N 	N 	0.88897 0.15223 0.53843 -0.22100
N 	N 	0.58427 0.04343 0.08813 -0.22800
C 	C 	0.94137 0.16423 0.56503 0.05400
H 	H 	0.95697 0.17913 0.65113 0.00900
C 	C 	0.97267 0.15513 0.46893 -0.08900
H 	H 	0.00867 0.16363 0.49083 0.05200
C 	C 	0.95107 0.13373 0.34213 0.02400
H 	H 	0.97217 0.12773 0.27653 0.02200
C 	C 	0.89767 0.12113 0.31243 -0.10300
H 	H 	0.88197 0.10653 0.22623 0.06900
C 	C 	0.86787 0.13043 0.41173 0.04500
C 	C 	0.81127 0.12083 0.39133 0.07500
C 	C 	0.73417 0.10263 0.31803 0.08100
C 	C 	0.59507 0.07513 0.20073 0.07800
H 	H 	0.56857 0.08413 0.22943 -0.00600
C 	C 	0.64237 0.09493 0.27553 -0.13900
H 	H 	0.64727 0.11613 0.35483 0.08300
C 	C 	0.68357 0.08373 0.23423 0.05500
C 	C 	0.67357 0.05223 0.11703 -0.12100
H 	H 	0.70037 0.04433 0.08423 0.07600
C 	C 	0.62377 0.03233 0.04773 0.04000
H 	H 	0.61747 0.01023 0.96953 0.02000
N 	N 	0.40413 0.45817 0.77667 -0.09800
N 	N 	0.45543 0.46947 0.82347 -0.20800
N 	N 	0.44583 0.43257 0.61067 -0.12600
N 	N 	0.55563 0.48557 0.87177 -0.22400
N 	N 	0.25093 0.37677 0.42147 -0.23100
C 	C 	0.60803 0.49757 0.89837 0.08100
H 	H 	0.62363 0.51247 0.98447 0.00200
C 	C 	0.63933 0.48847 0.80227 -0.14300
H 	H 	0.67533 0.49697 0.82417 0.08300
C 	C 	0.61773 0.46707 0.67547 0.06100
H 	H 	0.63883 0.46107 0.60987 0.00800
C 	C 	0.56433 0.45447 0.64577 -0.12600
H 	H 	0.54863 0.43987 0.55957 0.08000
C 	C 	0.53453 0.46377 0.74507 0.05600
C 	C 	0.47793 0.45417 0.72467 0.07400
C 	C 	0.40083 0.43597 0.65137 0.08000
C 	C 	0.26173 0.40847 0.53407 0.08900
H 	H 	0.23523 0.41747 0.56277 -0.00600
C 	C 	0.30903 0.42827 0.60887 -0.14900
H 	H 	0.31393 0.44947 0.68817 0.08900
C 	C 	0.35023 0.41707 0.56757 0.07200
C 	C 	0.34023 0.38557 0.45037 -0.14500
H 	H 	0.36703 0.37767 0.41757 0.09300
C 	C 	0.29043 0.36567 0.38107 0.08400
H 	H 	0.28413 0.34357 0.30287 -0.00200
Ni	Ni	0.83333 0.66667 0.66667 1.05900
Ni	Ni	0.50000 0.00000 -0.00000 1.04600
Ni	Ni	0.33333 0.16667 0.66667 1.05800
Ni	Ni	-0.00000 0.50000 -0.00000 1.04600
Ni	Ni	0.83333 0.16667 0.66667 1.05800
Ni	Ni	0.50000 0.50000 -0.00000 1.05200
Ni	Ni	0.16667 0.33333 0.33333 1.05900
Ni	Ni	0.66667 0.83333 0.33333 1.05900
Ni	Ni	0.16667 0.83333 0.33333 1.05900
