data_crystal

_cell_length_a 14.99760
_cell_length_b 14.29130
_cell_length_c 16.50160
_cell_angle_alpha 90.00000
_cell_angle_beta  108.70100
_cell_angle_gamma 90.00000

_symmetry_space_group_name_	'P 1'
_symmetry_space_group_name_H-M	'P 1'

loop_
_symmetry_equiv_pos_as_xyz
  x,y,z

loop_
_atom_site_label
_atom_site_type_symbol
_atom_site_fract_x
_atom_site_fract_y
_atom_site_fract_z
_atom_site_charge
Re	Re	0.12510 0.98027 0.05810 0.32100
Re	Re	0.00440 0.11039 0.05812 0.27000
Re	Re	0.96812 0.93702 0.08406 0.40100
S 	S 	0.08990 0.02623 0.18538 -0.29200
S 	S 	0.08274 0.82143 0.07792 -0.33800
S 	S 	0.85858 0.06192 0.07817 -0.21300
S 	S 	0.14952 0.14178 0.02965 -0.24800
C 	C 	0.26840 0.95630 0.12750 -0.01700
N 	N 	0.34470 0.94340 0.16760 -0.25400
C 	C 	0.01170 0.23770 0.12550 -0.03700
N 	N 	0.01780 0.30660 0.16130 -0.25700
Re	Re	0.62510 0.48027 0.05810 0.34200
Re	Re	0.50440 0.61039 0.05812 0.34300
Re	Re	0.46812 0.43702 0.08406 0.32500
S 	S 	0.58990 0.52623 0.18538 -0.25500
S 	S 	0.58274 0.32143 0.07792 -0.25900
S 	S 	0.35858 0.56192 0.07817 -0.25200
S 	S 	0.64952 0.64178 0.02965 -0.25300
C 	C 	0.76840 0.45630 0.12750 -0.01300
N 	N 	0.84470 0.44340 0.16760 -0.23500
C 	C 	0.51170 0.73770 0.12550 -0.01400
N 	N 	0.51780 0.80660 0.16130 -0.24300
Re	Re	0.87490 0.98027 0.44190 0.34700
Re	Re	0.99560 0.11039 0.44188 0.42000
Re	Re	0.03188 0.93702 0.41594 0.23400
S 	S 	0.91010 0.02623 0.31462 -0.21900
S 	S 	0.91726 0.82143 0.42208 -0.19100
S 	S 	0.14142 0.06192 0.42183 -0.28000
S 	S 	0.85048 0.14178 0.47035 -0.26800
C 	C 	0.73160 0.95630 0.37250 -0.02500
N 	N 	0.65530 0.94340 0.33240 -0.25200
C 	C 	0.98830 0.23770 0.37450 0.00900
N 	N 	0.98220 0.30660 0.33870 -0.22100
Re	Re	0.37490 0.48027 0.44190 0.33500
Re	Re	0.49560 0.61039 0.44188 0.33900
Re	Re	0.53188 0.43702 0.41594 0.31900
S 	S 	0.41010 0.52623 0.31462 -0.26000
S 	S 	0.41726 0.32143 0.42208 -0.27000
S 	S 	0.64142 0.56192 0.42183 -0.24400
S 	S 	0.35048 0.64178 0.47035 -0.27000
C 	C 	0.23160 0.45630 0.37250 -0.02700
N 	N 	0.15530 0.44340 0.33240 -0.26300
C 	C 	0.48830 0.73770 0.37450 -0.01500
N 	N 	0.48220 0.80660 0.33870 -0.24300
Re	Re	0.87490 0.01973 0.94190 0.33900
Re	Re	0.99560 0.88961 0.94188 0.41700
Re	Re	0.03188 0.06298 0.91594 0.22300
S 	S 	0.91010 0.97377 0.81462 -0.21600
S 	S 	0.91726 0.17857 0.92208 -0.19800
S 	S 	0.14142 0.93808 0.92183 -0.28100
S 	S 	0.85048 0.85822 0.97035 -0.27200
C 	C 	0.73160 0.04370 0.87250 -0.02600
N 	N 	0.65530 0.05660 0.83240 -0.25300
C 	C 	0.98830 0.76230 0.87450 0.00800
N 	N 	0.98220 0.69340 0.83870 -0.22200
Re	Re	0.37490 0.51973 0.94190 0.33000
Re	Re	0.49560 0.38961 0.94188 0.33300
Re	Re	0.53188 0.56298 0.91594 0.31400
S 	S 	0.41010 0.47377 0.81462 -0.25800
S 	S 	0.41726 0.67857 0.92208 -0.27400
S 	S 	0.64142 0.43808 0.92183 -0.25000
S 	S 	0.35048 0.35822 0.97035 -0.27800
C 	C 	0.23160 0.54370 0.87250 -0.02800
N 	N 	0.15530 0.55660 0.83240 -0.26400
C 	C 	0.48830 0.26230 0.87450 -0.01700
N 	N 	0.48220 0.19340 0.83870 -0.24400
Re	Re	0.12510 0.01973 0.55810 0.32000
Re	Re	0.00440 0.88961 0.55812 0.26200
Re	Re	0.96812 0.06298 0.58406 0.40400
S 	S 	0.08990 0.97377 0.68538 -0.29100
S 	S 	0.08274 0.17857 0.57792 -0.34400
S 	S 	0.85858 0.93808 0.57817 -0.22200
S 	S 	0.14952 0.85822 0.52965 -0.25700
C 	C 	0.26840 0.04370 0.62750 -0.01800
N 	N 	0.34470 0.05660 0.66760 -0.25400
C 	C 	0.01170 0.76230 0.62550 -0.03800
N 	N 	0.01780 0.69340 0.66130 -0.25800
Re	Re	0.62510 0.51973 0.55810 0.33700
Re	Re	0.50440 0.38961 0.55812 0.33900
Re	Re	0.46812 0.56298 0.58406 0.31800
S 	S 	0.58990 0.47377 0.68538 -0.25400
S 	S 	0.58274 0.67857 0.57792 -0.26600
S 	S 	0.35858 0.43808 0.57817 -0.25700
S 	S 	0.64952 0.35822 0.52965 -0.25700
C 	C 	0.76840 0.54370 0.62750 -0.01400
N 	N 	0.84470 0.55660 0.66760 -0.23600
C 	C 	0.51170 0.26230 0.62550 -0.01500
N 	N 	0.51780 0.19340 0.66130 -0.24300
Cd	Cd	0.00000 0.42387 0.25000 1.13600
Cd	Cd	0.50000 0.92387 0.25000 1.15700
Cd	Cd	-0.00000 0.57613 0.75000 1.13500
Cd	Cd	0.50000 0.07613 0.75000 1.15600
