data_crystal

_cell_length_a 9.75000
_cell_length_b 9.88000
_cell_length_c 9.88000
_cell_angle_alpha 90.36000
_cell_angle_beta  92.73000
_cell_angle_gamma 117.33000

_symmetry_space_group_name_	'P 1'
_symmetry_space_group_name_H-M	'P 1'

loop_
_symmetry_equiv_pos_as_xyz
  x,y,z

loop_
_atom_site_label
_atom_site_type_symbol
_atom_site_fract_x
_atom_site_fract_y
_atom_site_fract_z
_atom_site_charge
Cd	Cd	0.44337 0.27475 0.97813 1.21000
O 	O 	0.41760 0.22150 0.75140 -0.38800
O 	O 	0.56440 0.13660 0.85790 -0.37700
O 	O 	0.63970 0.52390 0.92090 -0.45500
O 	O 	0.78980 0.72300 0.05190 -0.40500
N 	N 	0.59210 0.32350 0.17540 -0.25100
C 	C 	0.49490 0.14930 0.75230 0.29700
C 	C 	0.50160 0.07470 0.62100 -0.06500
C 	C 	0.40210 0.06470 0.51180 -0.01400
C 	C 	0.59890 0.00920 0.60820 -0.02500
C 	C 	0.76530 0.60280 0.98810 0.32000
C 	C 	0.88900 0.55170 0.99310 -0.08200
C 	C 	0.88030 0.44150 0.90110 -0.01900
C 	C 	0.99000 0.38920 0.90750 -0.02200
C 	C 	0.60590 0.42840 0.26910 0.07800
C 	C 	0.70920 0.46750 0.38180 -0.15100
C 	C 	0.80170 0.39690 0.40050 0.12600
C 	C 	0.78680 0.28830 0.30480 -0.16800
C 	C 	0.68210 0.25470 0.19420 0.09000
C 	C 	0.91930 0.44000 0.51960 -0.14400
H 	H 	0.32770 0.11230 0.51780 0.04200
H 	H 	0.66230 0.01270 0.68720 0.03500
H 	H 	0.79310 0.40000 0.82970 0.03900
H 	H 	0.99690 0.32640 0.83960 0.04900
H 	H 	0.54290 0.47810 0.25790 -0.00700
H 	H 	0.70200 0.54270 0.44330 0.08100
H 	H 	0.84480 0.23350 0.30670 0.08600
H 	H 	0.67370 0.17980 0.12920 -0.02000
H 	H 	0.93460 0.34150 0.54270 0.06400
H 	H 	0.89400 0.49140 0.59250 0.07500
Cd	Cd	0.55663 0.72525 0.02187 1.21100
O 	O 	0.58240 0.77850 0.24860 -0.38700
O 	O 	0.43560 0.86340 0.14210 -0.37700
O 	O 	0.36030 0.47610 0.07910 -0.45500
O 	O 	0.21020 0.27700 0.94810 -0.40500
N 	N 	0.40790 0.67650 0.82460 -0.25100
C 	C 	0.50510 0.85070 0.24770 0.29700
C 	C 	0.49840 0.92530 0.37900 -0.06500
C 	C 	0.59790 0.93530 0.48820 -0.01400
C 	C 	0.40110 0.99080 0.39180 -0.02500
C 	C 	0.23470 0.39720 0.01190 0.32000
C 	C 	0.11100 0.44830 0.00690 -0.08200
C 	C 	0.11970 0.55850 0.09890 -0.01900
C 	C 	0.01000 0.61080 0.09250 -0.02200
C 	C 	0.39410 0.57160 0.73090 0.07800
C 	C 	0.29080 0.53250 0.61820 -0.15100
C 	C 	0.19830 0.60310 0.59950 0.12600
C 	C 	0.21320 0.71170 0.69520 -0.16800
C 	C 	0.31790 0.74530 0.80580 0.09000
C 	C 	0.08070 0.56000 0.48040 -0.14400
H 	H 	0.67230 0.88770 0.48220 0.04200
H 	H 	0.33770 0.98730 0.31280 0.03500
H 	H 	0.20690 0.60000 0.17030 0.03900
H 	H 	0.00310 0.67360 0.16040 0.04900
H 	H 	0.45710 0.52190 0.74210 -0.00700
H 	H 	0.29800 0.45730 0.55670 0.08100
H 	H 	0.15520 0.76650 0.69330 0.08600
H 	H 	0.32630 0.82020 0.87080 -0.02000
H 	H 	0.06540 0.65850 0.45730 0.06400
H 	H 	0.10600 0.50860 0.40750 0.07500
