data_crystal

_cell_length_a 23.59730
_cell_length_b 23.60530
_cell_length_c 28.05150
_cell_angle_alpha 90.00000
_cell_angle_beta  90.00000
_cell_angle_gamma 90.00000

_symmetry_space_group_name_	'P 1'
_symmetry_space_group_name_H-M	'P 1'

loop_
_symmetry_equiv_pos_as_xyz
  x,y,z

loop_
_atom_site_label
_atom_site_type_symbol
_atom_site_fract_x
_atom_site_fract_y
_atom_site_fract_z
_atom_site_charge
O 	O 	0.58452 0.46470 0.21067 -0.49500
C 	C 	0.76079 0.46533 0.20877 -0.25800
H 	H 	0.78020 0.46580 0.17990 0.11000
C 	C 	0.70240 0.46529 0.20832 0.16200
H 	H 	0.68330 0.46560 0.17930 -0.02300
C 	C 	0.53530 0.44231 0.40602 0.20900
C 	C 	0.53450 0.45355 0.45610 -0.18300
H 	H 	0.55770 0.43290 0.47650 0.08100
C 	C 	0.46930 0.52470 0.44235 -0.09100
H 	H 	0.44730 0.55480 0.45290 0.04700
C 	C 	0.47084 0.51110 0.39412 0.02500
H 	H 	0.44910 0.53290 0.37350 0.01100
C 	C 	0.57260 0.39260 0.38643 -0.70800
H 	H 	0.56790 0.38980 0.35250 0.23300
H 	H 	0.56110 0.35770 0.40110 0.22800
H 	H 	0.61170 0.39980 0.39370 0.23300
O 	O 	0.08452 0.96470 0.21067 -0.49400
C 	C 	0.26079 0.96533 0.20877 -0.25800
H 	H 	0.28020 0.96580 0.17990 0.10900
C 	C 	0.20240 0.96529 0.20832 0.16200
H 	H 	0.18330 0.96560 0.17930 -0.02300
C 	C 	0.03530 0.94231 0.40602 0.19600
C 	C 	0.03450 0.95355 0.45610 -0.18100
H 	H 	0.05770 0.93290 0.47650 0.07800
C 	C 	0.96930 0.02470 0.44235 -0.05300
H 	H 	0.94730 0.05480 0.45290 0.04500
C 	C 	0.97084 0.01110 0.39412 0.06400
H 	H 	0.94910 0.03290 0.37350 0.01000
C 	C 	0.07260 0.89260 0.38643 -0.69200
H 	H 	0.06790 0.88980 0.35250 0.22800
H 	H 	0.06110 0.85770 0.40110 0.21800
H 	H 	0.11170 0.89980 0.39370 0.22900
O 	O 	0.41548 0.53530 0.71067 -0.49400
C 	C 	0.23921 0.53467 0.70877 -0.25600
H 	H 	0.21980 0.53420 0.67990 0.10700
C 	C 	0.29760 0.53471 0.70832 0.16100
H 	H 	0.31670 0.53440 0.67930 -0.02300
C 	C 	0.46470 0.55769 0.90602 0.20600
C 	C 	0.46550 0.54645 0.95610 -0.17900
H 	H 	0.44230 0.56710 0.97650 0.08000
C 	C 	0.53070 0.47530 0.94235 -0.08500
H 	H 	0.55270 0.44520 0.95290 0.04700
C 	C 	0.52916 0.48890 0.89412 0.02100
H 	H 	0.55090 0.46710 0.87350 0.01400
C 	C 	0.42740 0.60740 0.88643 -0.70000
H 	H 	0.43210 0.61020 0.85250 0.23200
H 	H 	0.43890 0.64230 0.90110 0.22600
H 	H 	0.38830 0.60020 0.89370 0.23100
O 	O 	0.91548 0.03530 0.71067 -0.47700
C 	C 	0.73921 0.03467 0.70877 -0.25600
H 	H 	0.71980 0.03420 0.67990 0.10900
C 	C 	0.79760 0.03471 0.70832 0.16200
H 	H 	0.81670 0.03440 0.67930 -0.02100
C 	C 	0.96470 0.05769 0.90602 0.22800
C 	C 	0.96550 0.04645 0.95610 -0.14000
H 	H 	0.94230 0.06710 0.97650 0.07400
C 	C 	0.03070 0.97530 0.94235 -0.08500
H 	H 	0.05270 0.94520 0.95290 0.04300
C 	C 	0.02916 0.98890 0.89412 -0.01000
H 	H 	0.05090 0.96710 0.87350 0.02200
C 	C 	0.92740 0.10740 0.88643 -0.73100
H 	H 	0.93210 0.11020 0.85250 0.25200
H 	H 	0.93890 0.14230 0.90110 0.24600
H 	H 	0.88830 0.10020 0.89370 0.24200
O 	O 	0.41548 0.46470 0.28933 -0.49400
C 	C 	0.23921 0.46533 0.29123 -0.25600
H 	H 	0.21980 0.46580 0.32010 0.10700
C 	C 	0.29760 0.46529 0.29168 0.16100
H 	H 	0.31670 0.46560 0.32070 -0.02300
C 	C 	0.46470 0.44231 0.09398 0.20600
C 	C 	0.46550 0.45355 0.04390 -0.17900
H 	H 	0.44230 0.43290 0.02350 0.08000
C 	C 	0.53070 0.52470 0.05765 -0.08500
H 	H 	0.55270 0.55480 0.04710 0.04700
C 	C 	0.52916 0.51110 0.10588 0.02100
H 	H 	0.55090 0.53290 0.12650 0.01400
C 	C 	0.42740 0.39260 0.11357 -0.70000
H 	H 	0.43210 0.38980 0.14750 0.23200
H 	H 	0.43890 0.35770 0.09890 0.22600
H 	H 	0.38830 0.39980 0.10630 0.23100
O 	O 	0.91548 0.96470 0.28933 -0.47700
C 	C 	0.73921 0.96533 0.29123 -0.25600
H 	H 	0.71980 0.96580 0.32010 0.10900
C 	C 	0.79760 0.96529 0.29168 0.16200
H 	H 	0.81670 0.96560 0.32070 -0.02100
C 	C 	0.96470 0.94231 0.09398 0.22800
C 	C 	0.96550 0.95355 0.04390 -0.14000
H 	H 	0.94230 0.93290 0.02350 0.07400
C 	C 	0.03070 0.02470 0.05765 -0.08500
H 	H 	0.05270 0.05480 0.04710 0.04300
C 	C 	0.02916 0.01110 0.10588 -0.01000
H 	H 	0.05090 0.03290 0.12650 0.02200
C 	C 	0.92740 0.89260 0.11357 -0.73100
H 	H 	0.93210 0.88980 0.14750 0.25200
H 	H 	0.93890 0.85770 0.09890 0.24600
H 	H 	0.88830 0.89980 0.10630 0.24200
O 	O 	0.58452 0.53530 0.78933 -0.49400
C 	C 	0.76079 0.53467 0.79123 -0.25700
H 	H 	0.78020 0.53420 0.82010 0.11100
C 	C 	0.70240 0.53471 0.79168 0.16300
H 	H 	0.68330 0.53440 0.82070 -0.02200
C 	C 	0.53530 0.55769 0.59398 0.21000
C 	C 	0.53450 0.54645 0.54390 -0.18200
H 	H 	0.55770 0.56710 0.52350 0.08200
C 	C 	0.46930 0.47530 0.55765 -0.09000
H 	H 	0.44730 0.44520 0.54710 0.04800
C 	C 	0.47084 0.48890 0.60588 0.02600
H 	H 	0.44910 0.46710 0.62650 0.01200
C 	C 	0.57260 0.60740 0.61357 -0.70700
H 	H 	0.56790 0.61020 0.64750 0.23400
H 	H 	0.56110 0.64230 0.59890 0.22900
H 	H 	0.61170 0.60020 0.60630 0.23400
O 	O 	0.08452 0.03530 0.78933 -0.49400
C 	C 	0.26079 0.03467 0.79123 -0.25800
H 	H 	0.28020 0.03420 0.82010 0.10900
C 	C 	0.20240 0.03471 0.79168 0.16200
H 	H 	0.18330 0.03440 0.82070 -0.02300
C 	C 	0.03530 0.05769 0.59398 0.19600
C 	C 	0.03450 0.04645 0.54390 -0.18100
H 	H 	0.05770 0.06710 0.52350 0.07800
C 	C 	0.96930 0.97530 0.55765 -0.05300
H 	H 	0.94730 0.94520 0.54710 0.04500
C 	C 	0.97084 0.98890 0.60588 0.06400
H 	H 	0.94910 0.96710 0.62650 0.01000
C 	C 	0.07260 0.10740 0.61357 -0.69200
H 	H 	0.06790 0.11020 0.64750 0.22800
H 	H 	0.06110 0.14230 0.59890 0.21800
H 	H 	0.11170 0.10020 0.60630 0.22900
O 	O 	0.41548 0.53530 0.78933 -0.49400
C 	C 	0.23921 0.53467 0.79123 -0.25600
H 	H 	0.21980 0.53420 0.82010 0.10700
C 	C 	0.29760 0.53471 0.79168 0.16100
H 	H 	0.31670 0.53440 0.82070 -0.02300
C 	C 	0.46470 0.55769 0.59398 0.20600
C 	C 	0.46550 0.54645 0.54390 -0.17900
H 	H 	0.44230 0.56710 0.52350 0.08000
C 	C 	0.53070 0.47530 0.55765 -0.08500
H 	H 	0.55270 0.44520 0.54710 0.04700
C 	C 	0.52916 0.48890 0.60588 0.02100
H 	H 	0.55090 0.46710 0.62650 0.01400
C 	C 	0.42740 0.60740 0.61357 -0.70000
H 	H 	0.43210 0.61020 0.64750 0.23100
H 	H 	0.43890 0.64230 0.59890 0.22600
H 	H 	0.38830 0.60020 0.60630 0.23100
O 	O 	0.91548 0.03530 0.78933 -0.47700
C 	C 	0.73921 0.03467 0.79123 -0.25600
H 	H 	0.71980 0.03420 0.82010 0.10900
C 	C 	0.79760 0.03471 0.79168 0.16200
H 	H 	0.81670 0.03440 0.82070 -0.02100
C 	C 	0.96470 0.05769 0.59398 0.22800
C 	C 	0.96550 0.04645 0.54390 -0.14000
H 	H 	0.94230 0.06710 0.52350 0.07400
C 	C 	0.03070 0.97530 0.55765 -0.08600
H 	H 	0.05270 0.94520 0.54710 0.04300
C 	C 	0.02916 0.98890 0.60588 -0.01000
H 	H 	0.05090 0.96710 0.62650 0.02200
C 	C 	0.92740 0.10740 0.61357 -0.73100
H 	H 	0.93210 0.11020 0.64750 0.25200
H 	H 	0.93890 0.14230 0.59890 0.24700
H 	H 	0.88830 0.10020 0.60630 0.24200
O 	O 	0.58452 0.46470 0.28933 -0.49400
C 	C 	0.76079 0.46533 0.29123 -0.25700
H 	H 	0.78020 0.46580 0.32010 0.11100
C 	C 	0.70240 0.46529 0.29168 0.16300
H 	H 	0.68330 0.46560 0.32070 -0.02200
C 	C 	0.53530 0.44231 0.09398 0.21000
C 	C 	0.53450 0.45355 0.04390 -0.18200
H 	H 	0.55770 0.43290 0.02350 0.08200
C 	C 	0.46930 0.52470 0.05765 -0.09000
H 	H 	0.44730 0.55480 0.04710 0.04800
C 	C 	0.47084 0.51110 0.10588 0.02600
H 	H 	0.44910 0.53290 0.12650 0.01200
C 	C 	0.57260 0.39260 0.11357 -0.70700
H 	H 	0.56790 0.38980 0.14750 0.23400
H 	H 	0.56110 0.35770 0.09890 0.22900
H 	H 	0.61170 0.39980 0.10630 0.23400
O 	O 	0.08452 0.96470 0.28933 -0.49400
C 	C 	0.26079 0.96533 0.29123 -0.25800
H 	H 	0.28020 0.96580 0.32010 0.10900
C 	C 	0.20240 0.96529 0.29168 0.16200
H 	H 	0.18330 0.96560 0.32070 -0.02300
C 	C 	0.03530 0.94231 0.09398 0.19600
C 	C 	0.03450 0.95355 0.04390 -0.18100
H 	H 	0.05770 0.93290 0.02350 0.07800
C 	C 	0.96930 0.02470 0.05765 -0.05300
H 	H 	0.94730 0.05480 0.04710 0.04500
C 	C 	0.97084 0.01110 0.10588 0.06400
H 	H 	0.94910 0.03290 0.12650 0.01000
C 	C 	0.07260 0.89260 0.11357 -0.69200
H 	H 	0.06790 0.88980 0.14750 0.22800
H 	H 	0.06110 0.85770 0.09890 0.21800
H 	H 	0.11170 0.89980 0.10630 0.22900
O 	O 	0.58452 0.53530 0.71067 -0.49400
C 	C 	0.76079 0.53467 0.70877 -0.25700
H 	H 	0.78020 0.53420 0.67990 0.11100
C 	C 	0.70240 0.53471 0.70832 0.16300
H 	H 	0.68330 0.53440 0.67930 -0.02200
C 	C 	0.53530 0.55769 0.90602 0.21000
C 	C 	0.53450 0.54645 0.95610 -0.18200
H 	H 	0.55770 0.56710 0.97650 0.08200
C 	C 	0.46930 0.47530 0.94235 -0.09000
H 	H 	0.44730 0.44520 0.95290 0.04800
C 	C 	0.47084 0.48890 0.89412 0.02600
H 	H 	0.44910 0.46710 0.87350 0.01200
C 	C 	0.57260 0.60740 0.88643 -0.70700
H 	H 	0.56790 0.61020 0.85250 0.23400
H 	H 	0.56110 0.64230 0.90110 0.22900
H 	H 	0.61170 0.60020 0.89370 0.23400
O 	O 	0.08452 0.03530 0.71067 -0.49400
C 	C 	0.26079 0.03467 0.70877 -0.25800
H 	H 	0.28020 0.03420 0.67990 0.10900
C 	C 	0.20240 0.03471 0.70832 0.16200
H 	H 	0.18330 0.03440 0.67930 -0.02300
C 	C 	0.03530 0.05769 0.90602 0.19600
C 	C 	0.03450 0.04645 0.95610 -0.18100
H 	H 	0.05770 0.06710 0.97650 0.07800
C 	C 	0.96930 0.97530 0.94235 -0.05300
H 	H 	0.94730 0.94520 0.95290 0.04500
C 	C 	0.97084 0.98890 0.89412 0.06400
H 	H 	0.94910 0.96710 0.87350 0.01000
C 	C 	0.07260 0.10740 0.88643 -0.69200
H 	H 	0.06790 0.11020 0.85250 0.22800
H 	H 	0.06110 0.14230 0.90110 0.21800
H 	H 	0.11170 0.10020 0.89370 0.22900
O 	O 	0.41548 0.46470 0.21067 -0.49400
C 	C 	0.23921 0.46533 0.20877 -0.25600
H 	H 	0.21980 0.46580 0.17990 0.10700
C 	C 	0.29760 0.46529 0.20832 0.16100
H 	H 	0.31670 0.46560 0.17930 -0.02300
C 	C 	0.46470 0.44231 0.40602 0.20600
C 	C 	0.46550 0.45355 0.45610 -0.17900
H 	H 	0.44230 0.43290 0.47650 0.08000
C 	C 	0.53070 0.52470 0.44235 -0.08500
H 	H 	0.55270 0.55480 0.45290 0.04700
C 	C 	0.52916 0.51110 0.39412 0.02100
H 	H 	0.55090 0.53290 0.37350 0.01400
C 	C 	0.42740 0.39260 0.38643 -0.70000
H 	H 	0.43210 0.38980 0.35250 0.23100
H 	H 	0.43890 0.35770 0.40110 0.22600
H 	H 	0.38830 0.39980 0.39370 0.23100
O 	O 	0.91548 0.96470 0.21067 -0.47700
C 	C 	0.73921 0.96533 0.20877 -0.25600
H 	H 	0.71980 0.96580 0.17990 0.10900
C 	C 	0.79760 0.96529 0.20832 0.16200
H 	H 	0.81670 0.96560 0.17930 -0.02100
C 	C 	0.96470 0.94231 0.40602 0.22800
C 	C 	0.96550 0.95355 0.45610 -0.14000
H 	H 	0.94230 0.93290 0.47650 0.07400
C 	C 	0.03070 0.02470 0.44235 -0.08600
H 	H 	0.05270 0.05480 0.45290 0.04300
C 	C 	0.02916 0.01110 0.39412 -0.01000
H 	H 	0.05090 0.03290 0.37350 0.02200
C 	C 	0.92740 0.89260 0.38643 -0.73100
H 	H 	0.93210 0.88980 0.35250 0.25200
H 	H 	0.93890 0.85770 0.40110 0.24700
H 	H 	0.88830 0.89980 0.39370 0.24200
Zn	Zn	-0.00000 0.46475 0.23716 0.77900
O 	O 	0.00000 0.04919 0.28937 -0.48900
O 	O 	0.00000 0.87999 0.28913 -0.52900
C 	C 	0.00000 0.22554 0.29155 -0.25200
H 	H 	-0.00000 0.24510 0.32030 0.10100
C 	C 	-0.00000 0.16660 0.29195 0.14600
H 	H 	-0.00000 0.14730 0.32090 -0.01900
C 	C 	0.00000 0.70370 0.29108 -0.29400
H 	H 	-0.00000 0.68420 0.31990 0.11200
C 	C 	-0.00000 0.76228 0.29197 0.18800
H 	H 	-0.00000 0.78150 0.32090 -0.04600
Zn	Zn	0.50000 0.96475 0.23716 0.78600
O 	O 	0.50000 0.54919 0.28937 -0.47700
O 	O 	0.50000 0.37999 0.28913 -0.51600
C 	C 	0.50000 0.72554 0.29155 -0.22900
H 	H 	0.50000 0.74510 0.32030 0.10100
C 	C 	0.50000 0.66660 0.29195 0.13300
H 	H 	0.50000 0.64730 0.32090 -0.00700
C 	C 	0.50000 0.20370 0.29108 -0.26800
H 	H 	0.50000 0.18420 0.31990 0.11100
C 	C 	0.50000 0.26228 0.29197 0.17200
H 	H 	0.50000 0.28150 0.32090 -0.03400
Zn	Zn	-0.00000 0.53525 0.73716 0.77900
O 	O 	-0.00000 0.95081 0.78937 -0.48900
O 	O 	-0.00000 0.12001 0.78913 -0.52900
C 	C 	0.00000 0.77446 0.79155 -0.25200
H 	H 	-0.00000 0.75490 0.82030 0.10100
C 	C 	0.00000 0.83340 0.79195 0.14600
H 	H 	-0.00000 0.85270 0.82090 -0.01800
C 	C 	-0.00000 0.29630 0.79108 -0.29400
H 	H 	0.00000 0.31580 0.81990 0.11200
C 	C 	-0.00000 0.23772 0.79197 0.18800
H 	H 	-0.00000 0.21850 0.82090 -0.04600
Zn	Zn	0.50000 0.03525 0.73716 0.78600
O 	O 	0.50000 0.45081 0.78937 -0.47700
O 	O 	0.50000 0.62001 0.78913 -0.51600
C 	C 	0.50000 0.27446 0.79155 -0.22900
H 	H 	0.50000 0.25490 0.82030 0.10100
C 	C 	0.50000 0.33340 0.79195 0.13300
H 	H 	0.50000 0.35270 0.82090 -0.00700
C 	C 	0.50000 0.79630 0.79108 -0.26800
H 	H 	0.50000 0.81580 0.81990 0.11100
C 	C 	0.50000 0.73772 0.79197 0.17200
H 	H 	0.50000 0.71850 0.82090 -0.03400
Zn	Zn	-0.00000 0.46475 0.26284 0.77900
O 	O 	0.00000 0.04919 0.21063 -0.48900
O 	O 	0.00000 0.87999 0.21087 -0.52900
C 	C 	-0.00000 0.22554 0.20845 -0.25200
H 	H 	-0.00000 0.24510 0.17970 0.10100
C 	C 	0.00000 0.16660 0.20805 0.14600
H 	H 	0.00000 0.14730 0.17910 -0.01800
C 	C 	-0.00000 0.70370 0.20892 -0.29400
H 	H 	-0.00000 0.68420 0.18010 0.11200
C 	C 	-0.00000 0.76228 0.20803 0.18800
H 	H 	-0.00000 0.78150 0.17910 -0.04600
Zn	Zn	0.50000 0.96475 0.26284 0.78600
O 	O 	0.50000 0.54919 0.21063 -0.47700
O 	O 	0.50000 0.37999 0.21087 -0.51600
C 	C 	0.50000 0.72554 0.20845 -0.22900
H 	H 	0.50000 0.74510 0.17970 0.10100
C 	C 	0.50000 0.66660 0.20805 0.13300
H 	H 	0.50000 0.64730 0.17910 -0.00700
C 	C 	0.50000 0.20370 0.20892 -0.26800
H 	H 	0.50000 0.18420 0.18010 0.11100
C 	C 	0.50000 0.26228 0.20803 0.17200
H 	H 	0.50000 0.28150 0.17910 -0.03400
Zn	Zn	-0.00000 0.53525 0.76284 0.77900
O 	O 	0.00000 0.95081 0.71063 -0.48900
O 	O 	-0.00000 0.12001 0.71087 -0.52900
C 	C 	-0.00000 0.77446 0.70845 -0.25200
H 	H 	-0.00000 0.75490 0.67970 0.10100
C 	C 	0.00000 0.83340 0.70805 0.14600
H 	H 	-0.00000 0.85270 0.67910 -0.01900
C 	C 	-0.00000 0.29630 0.70892 -0.29400
H 	H 	-0.00000 0.31580 0.68010 0.11200
C 	C 	-0.00000 0.23772 0.70803 0.18800
H 	H 	-0.00000 0.21850 0.67910 -0.04600
Zn	Zn	0.50000 0.03525 0.76284 0.78600
O 	O 	0.50000 0.45081 0.71063 -0.47700
O 	O 	0.50000 0.62001 0.71087 -0.51600
C 	C 	0.50000 0.27446 0.70845 -0.22900
H 	H 	0.50000 0.25490 0.67970 0.10100
C 	C 	0.50000 0.33340 0.70805 0.13300
H 	H 	0.50000 0.35270 0.67910 -0.00700
C 	C 	0.50000 0.79630 0.70892 -0.26800
H 	H 	0.50000 0.81580 0.68010 0.11100
C 	C 	0.50000 0.73772 0.70803 0.17200
H 	H 	0.50000 0.71850 0.67910 -0.03400
Zn	Zn	0.50000 0.46414 0.30335 1.21900
N 	N 	0.50000 0.47072 0.37609 -0.30200
C 	C 	0.50000 0.49411 0.47399 0.11900
Zn	Zn	0.00000 0.96414 0.30335 1.21300
N 	N 	-0.00000 0.97072 0.37609 -0.32400
C 	C 	0.00000 0.99411 0.47399 0.07100
Zn	Zn	0.50000 0.53586 0.80335 1.21900
N 	N 	0.50000 0.52928 0.87609 -0.30200
C 	C 	0.50000 0.50589 0.97399 0.11900
Zn	Zn	0.00000 0.03586 0.80335 1.21300
N 	N 	0.00000 0.02928 0.87609 -0.32400
C 	C 	-0.00000 0.00589 0.97399 0.07000
Zn	Zn	0.50000 0.46414 0.19665 1.21900
N 	N 	0.50000 0.47072 0.12391 -0.30200
C 	C 	0.50000 0.49411 0.02601 0.11900
Zn	Zn	-0.00000 0.96414 0.19665 1.21300
N 	N 	-0.00000 0.97072 0.12391 -0.32400
C 	C 	0.00000 0.99411 0.02601 0.07000
Zn	Zn	0.50000 0.53586 0.69665 1.21900
N 	N 	0.50000 0.52928 0.62391 -0.30200
C 	C 	0.50000 0.50589 0.52601 0.11900
Zn	Zn	-0.00000 0.03586 0.69665 1.21300
N 	N 	-0.00000 0.02928 0.62391 -0.32400
C 	C 	-0.00000 0.00589 0.52601 0.07100
N 	N 	0.93883 0.40368 0.25000 -0.34600
N 	N 	0.93891 0.52560 0.25000 -0.34800
C 	C 	0.94738 0.34578 0.25000 0.15100
C 	C 	0.89334 0.31793 0.25000 -0.11400
H 	H 	0.88730 0.27900 0.25000 0.07800
C 	C 	0.85328 0.35799 0.25000 -0.07400
H 	H 	0.81430 0.35210 0.25000 0.05400
C 	C 	0.88180 0.41197 0.25000 0.09600
C 	C 	0.85438 0.46467 0.25000 -0.19200
C 	C 	0.88129 0.51716 0.25000 0.09400
C 	C 	0.85286 0.57135 0.25000 -0.07400
H 	H 	0.81390 0.57750 0.25000 0.05600
C 	C 	0.89369 0.61142 0.25000 -0.11600
H 	H 	0.88810 0.65040 0.25000 0.07800
C 	C 	0.94742 0.58274 0.25000 0.15500
C 	C 	0.79084 0.46477 0.25000 0.20300
C 	C 	0.67222 0.46475 0.25000 -0.22900
C 	C 	0.60867 0.46494 0.25000 0.45700
N 	N 	0.43883 0.90368 0.25000 -0.35000
N 	N 	0.43891 0.02560 0.25000 -0.35200
C 	C 	0.44738 0.84578 0.25000 0.09100
C 	C 	0.39334 0.81793 0.25000 -0.08800
H 	H 	0.38730 0.77900 0.25000 0.05800
C 	C 	0.35328 0.85799 0.25000 -0.09300
H 	H 	0.31430 0.85210 0.25000 0.05800
C 	C 	0.38180 0.91197 0.25000 0.09800
C 	C 	0.35438 0.96467 0.25000 -0.20000
C 	C 	0.38129 0.01716 0.25000 0.09700
C 	C 	0.35286 0.07135 0.25000 -0.09100
H 	H 	0.31390 0.07750 0.25000 0.05900
C 	C 	0.39369 0.11142 0.25000 -0.09300
H 	H 	0.38810 0.15040 0.25000 0.05800
C 	C 	0.44742 0.08274 0.25000 0.09700
C 	C 	0.29084 0.96477 0.25000 0.20400
C 	C 	0.17222 0.96475 0.25000 -0.23000
C 	C 	0.10867 0.96494 0.25000 0.45600
N 	N 	0.06117 0.59632 0.75000 -0.35700
N 	N 	0.06109 0.47440 0.75000 -0.35900
C 	C 	0.05262 0.65422 0.75000 0.10700
C 	C 	0.10666 0.68207 0.75000 -0.10100
H 	H 	0.11270 0.72100 0.75000 0.06200
C 	C 	0.14672 0.64201 0.75000 -0.08800
H 	H 	0.18570 0.64790 0.75000 0.05600
C 	C 	0.11820 0.58803 0.75000 0.09400
C 	C 	0.14562 0.53533 0.75000 -0.19900
C 	C 	0.11871 0.48284 0.75000 0.09200
C 	C 	0.14714 0.42865 0.75000 -0.08600
H 	H 	0.18610 0.42250 0.75000 0.05700
C 	C 	0.10631 0.38858 0.75000 -0.10400
H 	H 	0.11190 0.34960 0.75000 0.06200
C 	C 	0.05258 0.41726 0.75000 0.11100
C 	C 	0.20916 0.53523 0.75000 0.20200
C 	C 	0.32778 0.53525 0.75000 -0.22900
C 	C 	0.39133 0.53506 0.75000 0.45600
N 	N 	0.56117 0.09632 0.75000 -0.35000
N 	N 	0.56109 0.97440 0.75000 -0.35200
C 	C 	0.55262 0.15422 0.75000 0.09100
C 	C 	0.60666 0.18207 0.75000 -0.08700
H 	H 	0.61270 0.22100 0.75000 0.05900
C 	C 	0.64672 0.14201 0.75000 -0.09300
H 	H 	0.68570 0.14790 0.75000 0.06000
C 	C 	0.61820 0.08803 0.75000 0.09800
C 	C 	0.64562 0.03533 0.75000 -0.19900
C 	C 	0.61871 0.98284 0.75000 0.09700
C 	C 	0.64714 0.92865 0.75000 -0.09100
H 	H 	0.68610 0.92250 0.75000 0.06100
C 	C 	0.60631 0.88858 0.75000 -0.09200
H 	H 	0.61190 0.84960 0.75000 0.05900
C 	C 	0.55258 0.91726 0.75000 0.09700
C 	C 	0.70916 0.03523 0.75000 0.20400
C 	C 	0.82778 0.03525 0.75000 -0.22500
C 	C 	0.89133 0.03506 0.75000 0.45500
N 	N 	0.06117 0.40368 0.25000 -0.35700
N 	N 	0.06109 0.52560 0.25000 -0.35900
C 	C 	0.05262 0.34578 0.25000 0.10700
C 	C 	0.10666 0.31793 0.25000 -0.10100
H 	H 	0.11270 0.27900 0.25000 0.06200
C 	C 	0.14672 0.35799 0.25000 -0.08800
H 	H 	0.18570 0.35210 0.25000 0.05600
C 	C 	0.11820 0.41197 0.25000 0.09400
C 	C 	0.14562 0.46467 0.25000 -0.19900
C 	C 	0.11871 0.51716 0.25000 0.09200
C 	C 	0.14714 0.57135 0.25000 -0.08600
H 	H 	0.18610 0.57750 0.25000 0.05700
C 	C 	0.10631 0.61142 0.25000 -0.10400
H 	H 	0.11190 0.65040 0.25000 0.06200
C 	C 	0.05258 0.58274 0.25000 0.11100
C 	C 	0.20916 0.46477 0.25000 0.20200
C 	C 	0.32778 0.46475 0.25000 -0.22900
C 	C 	0.39133 0.46494 0.25000 0.45600
N 	N 	0.56117 0.90368 0.25000 -0.35000
N 	N 	0.56109 0.02560 0.25000 -0.35200
C 	C 	0.55262 0.84578 0.25000 0.09100
C 	C 	0.60666 0.81793 0.25000 -0.08700
H 	H 	0.61270 0.77900 0.25000 0.05900
C 	C 	0.64672 0.85799 0.25000 -0.09300
H 	H 	0.68570 0.85210 0.25000 0.06000
C 	C 	0.61820 0.91197 0.25000 0.09800
C 	C 	0.64562 0.96467 0.25000 -0.19900
C 	C 	0.61871 0.01716 0.25000 0.09700
C 	C 	0.64714 0.07135 0.25000 -0.09100
H 	H 	0.68610 0.07750 0.25000 0.06100
C 	C 	0.60631 0.11142 0.25000 -0.09200
H 	H 	0.61190 0.15040 0.25000 0.05900
C 	C 	0.55258 0.08274 0.25000 0.09700
C 	C 	0.70916 0.96477 0.25000 0.20400
C 	C 	0.82778 0.96475 0.25000 -0.22500
C 	C 	0.89133 0.96494 0.25000 0.45500
N 	N 	0.93883 0.59632 0.75000 -0.34600
N 	N 	0.93891 0.47440 0.75000 -0.34800
C 	C 	0.94738 0.65422 0.75000 0.15100
C 	C 	0.89334 0.68207 0.75000 -0.11400
H 	H 	0.88730 0.72100 0.75000 0.07800
C 	C 	0.85328 0.64201 0.75000 -0.07400
H 	H 	0.81430 0.64790 0.75000 0.05400
C 	C 	0.88180 0.58803 0.75000 0.09600
C 	C 	0.85438 0.53533 0.75000 -0.19200
C 	C 	0.88129 0.48284 0.75000 0.09400
C 	C 	0.85286 0.42865 0.75000 -0.07400
H 	H 	0.81390 0.42250 0.75000 0.05600
C 	C 	0.89369 0.38858 0.75000 -0.11600
H 	H 	0.88810 0.34960 0.75000 0.07800
C 	C 	0.94742 0.41726 0.75000 0.15500
C 	C 	0.79084 0.53523 0.75000 0.20300
C 	C 	0.67222 0.53525 0.75000 -0.22900
C 	C 	0.60867 0.53506 0.75000 0.45700
N 	N 	0.43883 0.09632 0.75000 -0.35000
N 	N 	0.43891 0.97440 0.75000 -0.35200
C 	C 	0.44738 0.15422 0.75000 0.09100
C 	C 	0.39334 0.18207 0.75000 -0.08800
H 	H 	0.38730 0.22100 0.75000 0.05800
C 	C 	0.35328 0.14201 0.75000 -0.09300
H 	H 	0.31430 0.14790 0.75000 0.05800
C 	C 	0.38180 0.08803 0.75000 0.09800
C 	C 	0.35438 0.03533 0.75000 -0.20000
C 	C 	0.38129 0.98284 0.75000 0.09700
C 	C 	0.35286 0.92865 0.75000 -0.09100
H 	H 	0.31390 0.92250 0.75000 0.05900
C 	C 	0.39369 0.88858 0.75000 -0.09300
H 	H 	0.38810 0.84960 0.75000 0.05800
C 	C 	0.44742 0.91726 0.75000 0.09700
C 	C 	0.29084 0.03523 0.75000 0.20400
C 	C 	0.17222 0.03525 0.75000 -0.23000
C 	C 	0.10867 0.03506 0.75000 0.45600
C 	C 	-0.00000 0.31942 0.25000 -0.24400
C 	C 	-0.00000 0.25509 0.25000 0.19800
C 	C 	-0.00000 0.13671 0.25000 -0.21800
C 	C 	-0.00000 0.07319 0.25000 0.44700
C 	C 	-0.00000 0.61081 0.25000 -0.25900
C 	C 	0.00000 0.67349 0.25000 0.23600
C 	C 	-0.00000 0.79186 0.25000 -0.26500
C 	C 	-0.00000 0.85562 0.25000 0.47500
C 	C 	0.50000 0.81942 0.25000 -0.18700
C 	C 	0.50000 0.75509 0.25000 0.18000
C 	C 	0.50000 0.63671 0.25000 -0.20100
C 	C 	0.50000 0.57319 0.25000 0.44300
C 	C 	0.50000 0.11081 0.25000 -0.20300
C 	C 	0.50000 0.17349 0.25000 0.21400
C 	C 	0.50000 0.29186 0.25000 -0.24500
C 	C 	0.50000 0.35562 0.25000 0.47000
C 	C 	0.00000 0.68058 0.75000 -0.24400
C 	C 	0.00000 0.74491 0.75000 0.19800
C 	C 	0.00000 0.86329 0.75000 -0.21800
C 	C 	-0.00000 0.92681 0.75000 0.44700
C 	C 	0.00000 0.38919 0.75000 -0.25900
C 	C 	0.00000 0.32651 0.75000 0.23600
C 	C 	-0.00000 0.20814 0.75000 -0.26500
C 	C 	0.00000 0.14438 0.75000 0.47500
C 	C 	0.50000 0.18058 0.75000 -0.18700
C 	C 	0.50000 0.24491 0.75000 0.18000
C 	C 	0.50000 0.36329 0.75000 -0.20100
C 	C 	0.50000 0.42681 0.75000 0.44300
C 	C 	0.50000 0.88919 0.75000 -0.20300
C 	C 	0.50000 0.82651 0.75000 0.21400
C 	C 	0.50000 0.70814 0.75000 -0.24500
C 	C 	0.50000 0.64438 0.75000 0.47000
