data_crystal

_cell_length_a 13.29400
_cell_length_b 25.17100
_cell_length_c 13.62600
_cell_angle_alpha 90.00000
_cell_angle_beta  104.60000
_cell_angle_gamma 90.00000

_symmetry_space_group_name_	'P 1'
_symmetry_space_group_name_H-M	'P 1'

loop_
_symmetry_equiv_pos_as_xyz
  x,y,z

loop_
_atom_site_label
_atom_site_type_symbol
_atom_site_fract_x
_atom_site_fract_y
_atom_site_fract_z
_atom_site_charge
Cu	Cu	0.54175 0.24566 0.71701 0.84000
Cu	Cu	0.56941 0.20819 0.97696 0.83700
S 	S 	0.46090 0.38839 0.71080 -0.06700
S 	S 	0.46170 0.56345 0.53150 -0.06600
S 	S 	0.80760 0.24020 0.86980 -0.06400
S 	S 	0.13470 0.23600 0.94250 -0.04300
N 	N 	0.52330 0.29930 0.82310 -0.21100
N 	N 	0.55540 0.28590 0.92270 -0.16500
N 	N 	0.54950 0.32750 0.97960 -0.07400
N 	N 	0.51060 0.36720 0.91330 -0.05300
N 	N 	0.45520 0.65550 0.63650 -0.21800
N 	N 	0.47200 0.67060 0.73490 -0.17300
N 	N 	0.49540 0.62990 0.79360 -0.07100
N 	N 	0.49500 0.58770 0.73270 -0.05300
N 	N 	0.67490 0.26530 0.68510 -0.22100
N 	N 	0.68560 0.29080 0.60060 -0.17600
N 	N 	0.77870 0.30690 0.60850 -0.07200
N 	N 	0.83250 0.29100 0.70160 -0.05600
N 	N 	0.33570 0.21100 0.94930 -0.11200
N 	N 	0.42880 0.21680 0.01450 -0.16100
N 	N 	0.41890 0.24370 0.09420 -0.16800
N 	N 	0.31640 0.25220 0.08040 -0.05700
C 	C 	0.49780 0.34950 0.81900 0.09700
C 	C 	0.32130 0.38600 0.68700 -0.14200
H 	H 	0.30240 0.37340 0.74720 0.06700
H 	H 	0.29360 0.36120 0.63240 0.07300
C 	C 	0.27530 0.43930 0.65930 -0.03400
H 	H 	0.20020 0.43570 0.64000 0.02800
H 	H 	0.29310 0.46180 0.71910 0.03000
C 	C 	0.30930 0.46810 0.57210 -0.15000
H 	H 	0.38460 0.46850 0.58760 0.08200
H 	H 	0.28420 0.44800 0.51000 0.07100
C 	C 	0.26880 0.52620 0.55390 -0.04900
H 	H 	0.28180 0.54470 0.61830 0.04200
H 	H 	0.19440 0.52580 0.52460 0.03300
C 	C 	0.32080 0.55540 0.48450 -0.12900
H 	H 	0.30680 0.53660 0.42040 0.06300
H 	H 	0.28950 0.59030 0.47150 0.05200
C 	C 	0.46780 0.60360 0.63590 0.09000
C 	C 	0.49560 0.41880 0.95300 -0.34500
H 	H 	0.43790 0.43620 0.90770 0.12500
H 	H 	0.48170 0.41490 0.01840 0.13700
H 	H 	0.55730 0.43980 0.95930 0.12600
C 	C 	0.51730 0.53570 0.77570 -0.35100
H 	H 	0.53710 0.51280 0.72750 0.13500
H 	H 	0.57310 0.53790 0.83600 0.12900
H 	H 	0.45650 0.52170 0.79240 0.13000
C 	C 	0.76930 0.26580 0.74700 0.09100
C 	C 	0.79130 0.16850 0.84100 -0.21900
H 	H 	0.74980 0.15290 0.88250 0.07700
H 	H 	0.75310 0.16430 0.77040 0.08200
C 	C 	0.87860 0.14230 0.85500 0.08400
H 	H 	0.91100 0.15270 0.80210 0.00400
H 	H 	0.86080 0.10500 0.84480 -0.00600
C 	C 	0.96120 0.14620 0.95450 -0.22000
H 	H 	0.94500 0.12180 0.00340 0.08800
H 	H 	0.96200 0.18190 0.98140 0.10200
C 	C 	0.07640 0.13190 0.93700 -0.00500
H 	H 	0.12580 0.12850 0.00260 0.02500
H 	H 	0.07260 0.09780 0.90280 0.02000
C 	C 	0.11300 0.17100 0.87870 -0.15500
H 	H 	0.06270 0.17500 0.81380 0.07200
H 	H 	0.17770 0.15880 0.86580 0.07300
C 	C 	0.26810 0.23200 0.99080 0.09800
C 	C 	0.94680 0.30180 0.73540 -0.36000
H 	H 	0.97040 0.29640 0.80720 0.14000
H 	H 	0.96020 0.33780 0.71940 0.13500
H 	H 	0.98310 0.27810 0.70100 0.13600
C 	C 	0.27710 0.28150 0.15430 -0.35800
H 	H 	0.21120 0.26710 0.15760 0.13300
H 	H 	0.32540 0.27870 0.21960 0.11800
H 	H 	0.26870 0.31820 0.13460 0.13600
Cu	Cu	0.45825 0.74566 0.78299 0.84000
Cu	Cu	0.43059 0.70819 0.52304 0.83700
S 	S 	0.53910 0.88839 0.78920 -0.06700
S 	S 	0.53830 0.06345 0.96850 -0.06700
S 	S 	0.19240 0.74020 0.63020 -0.06400
S 	S 	0.86530 0.73600 0.55750 -0.04300
N 	N 	0.47670 0.79930 0.67690 -0.21100
N 	N 	0.44460 0.78590 0.57730 -0.16500
N 	N 	0.45050 0.82750 0.52040 -0.07400
N 	N 	0.48940 0.86720 0.58670 -0.05300
N 	N 	0.54480 0.15550 0.86350 -0.21900
N 	N 	0.52800 0.17060 0.76510 -0.17300
N 	N 	0.50460 0.12990 0.70640 -0.07100
N 	N 	0.50500 0.08770 0.76730 -0.05300
N 	N 	0.32510 0.76530 0.81490 -0.22100
N 	N 	0.31440 0.79080 0.89940 -0.17600
N 	N 	0.22130 0.80690 0.89150 -0.07200
N 	N 	0.16750 0.79100 0.79840 -0.05600
N 	N 	0.66430 0.71100 0.55070 -0.11200
N 	N 	0.57120 0.71680 0.48550 -0.16100
N 	N 	0.58110 0.74370 0.40580 -0.16800
N 	N 	0.68360 0.75220 0.41960 -0.05700
C 	C 	0.50220 0.84950 0.68100 0.09700
C 	C 	0.67870 0.88600 0.81300 -0.14200
H 	H 	0.69760 0.87340 0.75280 0.06700
H 	H 	0.70640 0.86120 0.86760 0.07300
C 	C 	0.72470 0.93930 0.84070 -0.03500
H 	H 	0.79980 0.93570 0.86000 0.02900
H 	H 	0.70690 0.96180 0.78090 0.03100
C 	C 	0.69070 0.96810 0.92790 -0.14800
H 	H 	0.61540 0.96850 0.91240 0.08100
H 	H 	0.71580 0.94800 0.99000 0.07100
C 	C 	0.73120 0.02620 0.94610 -0.05100
H 	H 	0.71820 0.04470 0.88170 0.04300
H 	H 	0.80560 0.02580 0.97540 0.03400
C 	C 	0.67920 0.05540 0.01550 -0.12600
H 	H 	0.69320 0.03660 0.07960 0.06200
H 	H 	0.71050 0.09030 0.02850 0.05200
C 	C 	0.53220 0.10360 0.86410 0.09000
C 	C 	0.50440 0.91880 0.54700 -0.34400
H 	H 	0.56210 0.93620 0.59230 0.12500
H 	H 	0.51830 0.91490 0.48160 0.13700
H 	H 	0.44270 0.93980 0.54070 0.12600
C 	C 	0.48270 0.03570 0.72430 -0.35000
H 	H 	0.46290 0.01280 0.77250 0.13500
H 	H 	0.42690 0.03790 0.66400 0.12900
H 	H 	0.54350 0.02170 0.70760 0.13000
C 	C 	0.23070 0.76580 0.75300 0.09100
C 	C 	0.20870 0.66850 0.65900 -0.21800
H 	H 	0.25020 0.65290 0.61750 0.07700
H 	H 	0.24690 0.66430 0.72960 0.08200
C 	C 	0.12140 0.64230 0.64500 0.08300
H 	H 	0.08900 0.65270 0.69790 0.00500
H 	H 	0.13920 0.60500 0.65520 -0.00600
C 	C 	0.03880 0.64620 0.54550 -0.21900
H 	H 	0.05500 0.62180 0.49660 0.08700
H 	H 	0.03800 0.68190 0.51860 0.10200
C 	C 	0.92360 0.63190 0.56300 -0.00400
H 	H 	0.87420 0.62850 0.49740 0.02400
H 	H 	0.92740 0.59780 0.59720 0.02000
C 	C 	0.88700 0.67100 0.62130 -0.15600
H 	H 	0.93730 0.67500 0.68620 0.07200
H 	H 	0.82230 0.65880 0.63420 0.07300
C 	C 	0.73190 0.73200 0.50920 0.09900
C 	C 	0.05320 0.80180 0.76460 -0.36000
H 	H 	0.02960 0.79640 0.69280 0.14000
H 	H 	0.03980 0.83780 0.78060 0.13600
H 	H 	0.01690 0.77810 0.79900 0.13600
C 	C 	0.72290 0.78150 0.34570 -0.35800
H 	H 	0.78880 0.76710 0.34240 0.13300
H 	H 	0.67460 0.77870 0.28040 0.11800
H 	H 	0.73130 0.81820 0.36540 0.13600
Cu	Cu	0.45825 0.75434 0.28299 0.84000
Cu	Cu	0.43059 0.79181 0.02304 0.83700
S 	S 	0.53910 0.61161 0.28920 -0.06700
S 	S 	0.53830 0.43655 0.46850 -0.06600
S 	S 	0.19240 0.75980 0.13020 -0.06400
S 	S 	0.86530 0.76400 0.05750 -0.04300
N 	N 	0.47670 0.70070 0.17690 -0.21100
N 	N 	0.44460 0.71410 0.07730 -0.16500
N 	N 	0.45050 0.67250 0.02040 -0.07400
N 	N 	0.48940 0.63280 0.08670 -0.05300
N 	N 	0.54480 0.34450 0.36350 -0.21800
N 	N 	0.52800 0.32940 0.26510 -0.17300
N 	N 	0.50460 0.37010 0.20640 -0.07100
N 	N 	0.50500 0.41230 0.26730 -0.05300
N 	N 	0.32510 0.73470 0.31490 -0.22100
N 	N 	0.31440 0.70920 0.39940 -0.17600
N 	N 	0.22130 0.69310 0.39150 -0.07200
N 	N 	0.16750 0.70900 0.29840 -0.05600
N 	N 	0.66430 0.78900 0.05070 -0.11200
N 	N 	0.57120 0.78320 0.98550 -0.16100
N 	N 	0.58110 0.75630 0.90580 -0.16800
N 	N 	0.68360 0.74780 0.91960 -0.05700
C 	C 	0.50220 0.65050 0.18100 0.09700
C 	C 	0.67870 0.61400 0.31300 -0.14200
H 	H 	0.69760 0.62660 0.25280 0.06700
H 	H 	0.70640 0.63880 0.36760 0.07300
C 	C 	0.72470 0.56070 0.34070 -0.03400
H 	H 	0.79980 0.56430 0.36000 0.02800
H 	H 	0.70690 0.53820 0.28090 0.03000
C 	C 	0.69070 0.53190 0.42790 -0.15000
H 	H 	0.61540 0.53150 0.41240 0.08200
H 	H 	0.71580 0.55200 0.49000 0.07100
C 	C 	0.73120 0.47380 0.44610 -0.04900
H 	H 	0.71820 0.45530 0.38170 0.04200
H 	H 	0.80560 0.47420 0.47540 0.03300
C 	C 	0.67920 0.44460 0.51550 -0.12900
H 	H 	0.69320 0.46340 0.57960 0.06300
H 	H 	0.71050 0.40970 0.52850 0.05200
C 	C 	0.53220 0.39640 0.36410 0.09000
C 	C 	0.50440 0.58120 0.04700 -0.34500
H 	H 	0.56210 0.56380 0.09230 0.12500
H 	H 	0.51830 0.58510 0.98160 0.13700
H 	H 	0.44270 0.56020 0.04070 0.12600
C 	C 	0.48270 0.46430 0.22430 -0.35100
H 	H 	0.46290 0.48720 0.27250 0.13500
H 	H 	0.42690 0.46210 0.16400 0.12900
H 	H 	0.54350 0.47830 0.20760 0.13000
C 	C 	0.23070 0.73420 0.25300 0.09100
C 	C 	0.20870 0.83150 0.15900 -0.21900
H 	H 	0.25020 0.84710 0.11750 0.07700
H 	H 	0.24690 0.83570 0.22960 0.08200
C 	C 	0.12140 0.85770 0.14500 0.08400
H 	H 	0.08900 0.84730 0.19790 0.00400
H 	H 	0.13920 0.89500 0.15520 -0.00600
C 	C 	0.03880 0.85380 0.04550 -0.22000
H 	H 	0.05500 0.87820 0.99660 0.08800
H 	H 	0.03800 0.81810 0.01860 0.10200
C 	C 	0.92360 0.86810 0.06300 -0.00500
H 	H 	0.87420 0.87150 0.99740 0.02500
H 	H 	0.92740 0.90220 0.09720 0.02000
C 	C 	0.88700 0.82900 0.12130 -0.15500
H 	H 	0.93730 0.82500 0.18620 0.07200
H 	H 	0.82230 0.84120 0.13420 0.07300
C 	C 	0.73190 0.76800 0.00920 0.09800
C 	C 	0.05320 0.69820 0.26460 -0.36000
H 	H 	0.02960 0.70360 0.19280 0.14000
H 	H 	0.03980 0.66220 0.28060 0.13500
H 	H 	0.01690 0.72190 0.29900 0.13600
C 	C 	0.72290 0.71850 0.84570 -0.35800
H 	H 	0.78880 0.73290 0.84240 0.13300
H 	H 	0.67460 0.72130 0.78040 0.11800
H 	H 	0.73130 0.68180 0.86540 0.13600
Cu	Cu	0.54175 0.25434 0.21701 0.84000
Cu	Cu	0.56941 0.29181 0.47696 0.83700
S 	S 	0.46090 0.11161 0.21080 -0.06700
S 	S 	0.46170 0.93655 0.03150 -0.06700
S 	S 	0.80760 0.25980 0.36980 -0.06400
S 	S 	0.13470 0.26400 0.44250 -0.04300
N 	N 	0.52330 0.20070 0.32310 -0.21100
N 	N 	0.55540 0.21410 0.42270 -0.16500
N 	N 	0.54950 0.17250 0.47960 -0.07400
N 	N 	0.51060 0.13280 0.41330 -0.05300
N 	N 	0.45520 0.84450 0.13650 -0.21900
N 	N 	0.47200 0.82940 0.23490 -0.17300
N 	N 	0.49540 0.87010 0.29360 -0.07100
N 	N 	0.49500 0.91230 0.23270 -0.05300
N 	N 	0.67490 0.23470 0.18510 -0.22100
N 	N 	0.68560 0.20920 0.10060 -0.17600
N 	N 	0.77870 0.19310 0.10850 -0.07200
N 	N 	0.83250 0.20900 0.20160 -0.05600
N 	N 	0.33570 0.28900 0.44930 -0.11200
N 	N 	0.42880 0.28320 0.51450 -0.16100
N 	N 	0.41890 0.25630 0.59420 -0.16800
N 	N 	0.31640 0.24780 0.58040 -0.05700
C 	C 	0.49780 0.15050 0.31900 0.09700
C 	C 	0.32130 0.11400 0.18700 -0.14200
H 	H 	0.30240 0.12660 0.24720 0.06700
H 	H 	0.29360 0.13880 0.13240 0.07300
C 	C 	0.27530 0.06070 0.15930 -0.03500
H 	H 	0.20020 0.06430 0.14000 0.02900
H 	H 	0.29310 0.03820 0.21910 0.03100
C 	C 	0.30930 0.03190 0.07210 -0.14800
H 	H 	0.38460 0.03150 0.08760 0.08100
H 	H 	0.28420 0.05200 0.01000 0.07100
C 	C 	0.26880 0.97380 0.05390 -0.05100
H 	H 	0.28180 0.95530 0.11830 0.04300
H 	H 	0.19440 0.97420 0.02460 0.03400
C 	C 	0.32080 0.94460 0.98450 -0.12600
H 	H 	0.30680 0.96340 0.92040 0.06200
H 	H 	0.28950 0.90970 0.97150 0.05200
C 	C 	0.46780 0.89640 0.13590 0.09000
C 	C 	0.49560 0.08120 0.45300 -0.34400
H 	H 	0.43790 0.06380 0.40770 0.12500
H 	H 	0.48170 0.08510 0.51840 0.13700
H 	H 	0.55730 0.06020 0.45930 0.12600
C 	C 	0.51730 0.96430 0.27570 -0.35000
H 	H 	0.53710 0.98720 0.22750 0.13500
H 	H 	0.57310 0.96210 0.33600 0.12900
H 	H 	0.45650 0.97830 0.29240 0.13000
C 	C 	0.76930 0.23420 0.24700 0.09100
C 	C 	0.79130 0.33150 0.34100 -0.21800
H 	H 	0.74980 0.34710 0.38250 0.07700
H 	H 	0.75310 0.33570 0.27040 0.08200
C 	C 	0.87860 0.35770 0.35500 0.08300
H 	H 	0.91100 0.34730 0.30210 0.00500
H 	H 	0.86080 0.39500 0.34480 -0.00600
C 	C 	0.96120 0.35380 0.45450 -0.21900
H 	H 	0.94500 0.37820 0.50340 0.08700
H 	H 	0.96200 0.31810 0.48140 0.10200
C 	C 	0.07640 0.36810 0.43700 -0.00400
H 	H 	0.12580 0.37150 0.50260 0.02400
H 	H 	0.07260 0.40220 0.40280 0.02000
C 	C 	0.11300 0.32900 0.37870 -0.15600
H 	H 	0.06270 0.32500 0.31380 0.07200
H 	H 	0.17770 0.34120 0.36580 0.07300
C 	C 	0.26810 0.26800 0.49080 0.09900
C 	C 	0.94680 0.19820 0.23540 -0.36000
H 	H 	0.97040 0.20360 0.30720 0.14000
H 	H 	0.96020 0.16220 0.21940 0.13600
H 	H 	0.98310 0.22190 0.20100 0.13600
C 	C 	0.27710 0.21850 0.65430 -0.35800
H 	H 	0.21120 0.23290 0.65760 0.13300
H 	H 	0.32540 0.22130 0.71960 0.11800
H 	H 	0.26870 0.18180 0.63460 0.13600
