data_crystal

_cell_length_a 10.53050
_cell_length_b 13.84200
_cell_length_c 14.13610
_cell_angle_alpha 60.68590
_cell_angle_beta  82.60520
_cell_angle_gamma 74.75890

_symmetry_space_group_name_	'P 1'
_symmetry_space_group_name_H-M	'P 1'

loop_
_symmetry_equiv_pos_as_xyz
  x,y,z

loop_
_atom_site_label
_atom_site_type_symbol
_atom_site_fract_x
_atom_site_fract_y
_atom_site_fract_z
_atom_site_charge
Co	Co	0.25000 0.58283 0.83434 1.15100
Co	Co	0.75000 0.41717 0.16566 1.14000
Co	Co	0.50000 0.50000 -0.00000 1.14200
Co	Co	1.00000 0.50000 -0.00000 1.13000
H 	H 	0.26520 0.70010 0.14000 0.03100
H 	H 	0.15090 0.82340 0.20620 0.08200
H 	H 	0.70190 0.73420 0.75300 -0.01300
H 	H 	0.42010 0.81930 0.54400 -0.01500
H 	H 	0.83180 0.88280 0.04140 0.06900
H 	H 	0.94440 0.75690 0.97940 0.12600
H 	H 	0.82440 0.84370 0.61420 0.13900
H 	H 	0.54220 0.92800 0.40200 0.14700
H 	H 	0.88840 0.09430 0.27260 0.10300
H 	H 	0.81890 0.12290 0.16740 0.09800
H 	H 	0.98510 0.90710 0.29400 0.00500
H 	H 	0.03460 0.00360 0.18920 0.00000
H 	H 	0.71370 0.96460 0.28540 0.02400
H 	H 	0.66050 0.07680 0.29540 0.00200
H 	H 	0.23480 0.15990 0.14000 0.00500
H 	H 	0.34910 0.97040 0.20620 0.11900
H 	H 	0.79810 0.51280 0.75300 -0.01400
H 	H 	0.07990 0.63670 0.54400 0.00600
H 	H 	0.66820 0.07580 0.04140 0.09400
H 	H 	0.55560 0.26370 0.97940 0.08900
H 	H 	0.67560 0.54210 0.61420 0.14100
H 	H 	0.95780 0.67000 0.40200 0.13500
H 	H 	0.61160 0.63310 0.27260 0.12200
H 	H 	0.68110 0.70970 0.16740 0.11400
H 	H 	0.51490 0.79890 0.29400 -0.00900
H 	H 	0.46540 0.80720 0.18920 -0.02900
H 	H 	0.78630 0.75000 0.28540 0.00400
H 	H 	0.83950 0.62780 0.29540 -0.01500
H 	H 	0.73480 0.29990 0.86000 -0.07000
H 	H 	0.84910 0.17660 0.79380 0.18000
H 	H 	0.29810 0.26580 0.24700 -0.01600
H 	H 	0.57990 0.18070 0.45600 -0.02200
H 	H 	0.16820 0.11720 0.95860 0.22800
H 	H 	0.05560 0.24310 0.02060 -0.13500
H 	H 	0.17560 0.15630 0.38580 0.14900
H 	H 	0.45780 0.07200 0.59800 0.14800
H 	H 	0.11160 0.90570 0.72740 0.14700
H 	H 	0.18110 0.87710 0.83260 0.15600
H 	H 	0.01490 0.09290 0.70600 -0.02700
H 	H 	0.96540 0.99640 0.81080 -0.03900
H 	H 	0.28630 0.03540 0.71460 -0.01400
H 	H 	0.33950 0.92320 0.70460 -0.02500
H 	H 	0.76520 0.84010 0.86000 -0.05900
H 	H 	0.65090 0.02960 0.79380 0.15800
H 	H 	0.20190 0.48720 0.24700 -0.01200
H 	H 	0.92010 0.36330 0.45600 -0.04400
H 	H 	0.33180 0.92420 0.95860 0.22200
H 	H 	0.44440 0.73630 0.02060 -0.13700
H 	H 	0.32440 0.45790 0.38580 0.14400
H 	H 	0.04220 0.33000 0.59800 0.15800
H 	H 	0.38840 0.36690 0.72740 0.13800
H 	H 	0.31890 0.29030 0.83260 0.14900
H 	H 	0.48510 0.20110 0.70600 -0.02500
H 	H 	0.53460 0.19280 0.81080 -0.03100
H 	H 	0.21370 0.25000 0.71460 -0.00000
H 	H 	0.16050 0.37220 0.70460 -0.01400
C 	C 	0.11850 0.71784 0.05112 -0.05000
C 	C 	0.98020 0.86690 0.12720 0.16000
C 	C 	0.47410 0.68869 0.75282 0.43100
C 	C 	0.17800 0.73724 0.11972 0.01900
C 	C 	0.11020 0.81148 0.15944 -0.14100
C 	C 	0.69560 0.89563 0.49234 0.30200
C 	C 	0.54810 0.76513 0.66274 -0.23000
C 	C 	0.66990 0.77329 0.68242 0.17800
C 	C 	0.19310 0.64579 0.00302 0.29000
C 	C 	0.50190 0.82360 0.55780 0.19000
C 	C 	0.91920 0.84628 0.06104 -0.10000
C 	C 	0.98690 0.77138 0.02324 -0.13900
C 	C 	0.74380 0.83793 0.59974 -0.27900
C 	C 	0.57490 0.88894 0.47232 -0.29800
C 	C 	0.85120 0.06194 0.23832 -0.25000
C 	C 	0.95840 0.97291 0.22418 0.11800
C 	C 	0.73680 0.01527 0.30586 0.11500
C 	C 	0.38150 0.23104 0.05112 -0.13200
C 	C 	0.51980 0.00590 0.12720 0.23800
C 	C 	0.02590 0.55849 0.75282 0.45800
C 	C 	0.32200 0.14304 0.11972 0.09700
C 	C 	0.38980 0.02908 0.15944 -0.24700
C 	C 	0.80440 0.61203 0.49234 0.29800
C 	C 	0.95190 0.57213 0.66274 -0.23800
C 	C 	0.83010 0.54429 0.68242 0.17900
C 	C 	0.30690 0.35119 0.00302 0.31300
C 	C 	0.99810 0.61860 0.55780 0.15400
C 	C 	0.58080 0.09268 0.06104 -0.18000
C 	C 	0.51310 0.20538 0.02324 -0.03200
C 	C 	0.75620 0.56233 0.59974 -0.27900
C 	C 	0.92510 0.63874 0.47232 -0.28400
C 	C 	0.64880 0.69974 0.23832 -0.29300
C 	C 	0.54160 0.80291 0.22418 0.17700
C 	C 	0.76320 0.67887 0.30586 0.16600
C 	C 	0.88150 0.28216 0.94888 -0.38400
C 	C 	0.01980 0.13310 0.87280 0.44400
C 	C 	0.52590 0.31131 0.24718 0.43900
C 	C 	0.82200 0.26276 0.88028 0.31900
C 	C 	0.88980 0.18852 0.84056 -0.43000
C 	C 	0.30440 0.10437 0.50766 0.31700
C 	C 	0.45190 0.23487 0.33726 -0.24200
C 	C 	0.33010 0.22671 0.31758 0.18900
C 	C 	0.80690 0.35421 0.99698 0.54500
C 	C 	0.49810 0.17640 0.44220 0.20000
C 	C 	0.08080 0.15372 0.93896 -0.46300
C 	C 	0.01310 0.22862 0.97676 0.42900
C 	C 	0.25620 0.16207 0.40026 -0.29200
C 	C 	0.42510 0.11106 0.52768 -0.31200
C 	C 	0.14880 0.93806 0.76168 -0.35000
C 	C 	0.04160 0.02709 0.77582 0.24200
C 	C 	0.26320 0.98473 0.69414 0.21900
C 	C 	0.61850 0.76896 0.94888 -0.35400
C 	C 	0.48020 0.99410 0.87280 0.41100
C 	C 	0.97410 0.44151 0.24718 0.39000
C 	C 	0.67800 0.85696 0.88028 0.28500
C 	C 	0.61020 0.97092 0.84056 -0.37200
C 	C 	0.19560 0.38797 0.50766 0.31900
C 	C 	0.04810 0.42787 0.33726 -0.21900
C 	C 	0.16990 0.45571 0.31758 0.17900
C 	C 	0.69310 0.64881 0.99698 0.53100
C 	C 	0.00190 0.38140 0.44220 0.23300
C 	C 	0.41920 0.90732 0.93896 -0.43900
C 	C 	0.48690 0.79462 0.97676 0.40500
C 	C 	0.24380 0.43767 0.40026 -0.28600
C 	C 	0.07490 0.36126 0.52768 -0.32300
C 	C 	0.35120 0.30026 0.76168 -0.33100
C 	C 	0.45840 0.19709 0.77582 0.22200
C 	C 	0.23680 0.32113 0.69414 0.18800
O 	O 	0.52730 0.62413 0.84354 -0.44500
O 	O 	0.13010 0.62900 0.94188 -0.46300
O 	O 	0.31440 0.60827 0.01810 -0.42800
O 	O 	0.36010 0.69137 0.73206 -0.46300
O 	O 	0.90450 0.94225 0.15870 -0.24500
O 	O 	0.77900 0.95452 0.41636 -0.26400
O 	O 	0.97270 0.53233 0.84354 -0.46100
O 	O 	0.36990 0.42912 0.94188 -0.47200
O 	O 	0.18560 0.37363 0.01810 -0.42700
O 	O 	0.13990 0.57657 0.73206 -0.46800
O 	O 	0.59550 0.89905 0.15870 -0.27000
O 	O 	0.72100 0.62912 0.41636 -0.27600
O 	O 	0.47270 0.37587 0.15646 -0.47000
O 	O 	0.86990 0.37100 0.05812 -0.61300
O 	O 	0.68560 0.39173 0.98190 -0.45400
O 	O 	0.63990 0.30863 0.26794 -0.47300
O 	O 	0.09550 0.05775 0.84130 -0.31900
O 	O 	0.22100 0.04548 0.58364 -0.29100
O 	O 	0.02730 0.46767 0.15646 -0.43600
O 	O 	0.63010 0.57088 0.05812 -0.60300
O 	O 	0.81440 0.62637 0.98190 -0.45200
O 	O 	0.86010 0.42343 0.26794 -0.46300
O 	O 	0.40450 0.10095 0.84130 -0.31100
O 	O 	0.27900 0.37088 0.58364 -0.28300
