data_crystal

_cell_length_a 18.50400
_cell_length_b 19.80200
_cell_length_c 8.65700
_cell_angle_alpha 90.00000
_cell_angle_beta  99.74000
_cell_angle_gamma 90.00000

_symmetry_space_group_name_	'P 1'
_symmetry_space_group_name_H-M	'P 1'

loop_
_symmetry_equiv_pos_as_xyz
  x,y,z

loop_
_atom_site_label
_atom_site_type_symbol
_atom_site_fract_x
_atom_site_fract_y
_atom_site_fract_z
_atom_site_charge
C 	C 	0.24530 0.45090 0.66790 -0.13200
H 	H 	0.19860 0.47240 0.62960 0.05400
H 	H 	0.25460 0.41860 0.58940 0.06100
N 	N 	0.07885 0.25620 0.77580 -0.26500
C 	C 	0.30560 0.50470 0.68660 0.12900
N 	N 	0.41440 0.60380 0.71600 -0.24600
C 	C 	0.18270 0.35980 0.79450 0.16300
C 	C 	0.12960 0.26510 0.90300 0.12100
H 	H 	0.13000 0.23600 0.98740 -0.03500
C 	C 	0.23990 0.41610 0.80610 -0.19300
H 	H 	0.22930 0.44860 0.88290 0.08000
H 	H 	0.28750 0.39660 0.84610 0.08600
C 	C 	0.12850 0.35220 0.66410 -0.21800
H 	H 	0.12590 0.38190 0.58020 0.09400
C 	C 	0.35260 0.61370 0.77220 0.09600
H 	H 	0.34660 0.65400 0.82400 -0.02100
C 	C 	0.36980 0.49540 0.62980 -0.19600
H 	H 	0.37820 0.45490 0.58140 0.10100
C 	C 	0.07860 0.30010 0.65930 0.11400
H 	H 	0.04300 0.29540 0.57020 -0.04000
C 	C 	0.42180 0.54540 0.64390 0.11200
H 	H 	0.46400 0.53820 0.60130 -0.01900
C 	C 	0.18200 0.31590 0.91510 -0.23700
H 	H 	0.21670 0.32000 0.00580 0.11000
N 	N 	0.00017 0.17220 0.51040 -0.34100
C 	C 	0.99980 0.15730 0.38300 0.29800
N 	N 	0.02110 0.13300 0.26230 -0.19800
C 	C 	0.29620 0.56580 0.75610 -0.19200
H 	H 	0.25280 0.57520 0.79230 0.08500
C 	C 	0.74530 0.95090 0.66790 -0.13600
H 	H 	0.69860 0.97240 0.62960 0.06000
H 	H 	0.75460 0.91860 0.58940 0.06400
N 	N 	0.57885 0.75620 0.77580 -0.25800
C 	C 	0.80560 0.00470 0.68660 0.13200
N 	N 	0.91440 0.10380 0.71600 -0.23400
C 	C 	0.68270 0.85980 0.79450 0.16300
C 	C 	0.62960 0.76510 0.90300 0.12500
H 	H 	0.63000 0.73600 0.98740 -0.03100
C 	C 	0.73990 0.91610 0.80610 -0.18900
H 	H 	0.72930 0.94860 0.88290 0.08100
H 	H 	0.78750 0.89660 0.84610 0.08600
C 	C 	0.62850 0.85220 0.66410 -0.21300
H 	H 	0.62590 0.88190 0.58020 0.09800
C 	C 	0.85260 0.11370 0.77220 0.09800
H 	H 	0.84660 0.15400 0.82400 -0.01900
C 	C 	0.86980 0.99540 0.62980 -0.19500
H 	H 	0.87820 0.95490 0.58140 0.10600
C 	C 	0.57860 0.80010 0.65930 0.11700
H 	H 	0.54300 0.79540 0.57020 -0.02700
C 	C 	0.92180 0.04540 0.64390 0.11500
H 	H 	0.96400 0.03820 0.60130 -0.00200
C 	C 	0.68200 0.81590 0.91510 -0.23300
H 	H 	0.71670 0.82000 0.00580 0.11000
N 	N 	0.50017 0.67220 0.51040 -0.28300
C 	C 	0.49980 0.65730 0.38300 0.20100
N 	N 	0.52110 0.63300 0.26230 -0.12300
C 	C 	0.79620 0.06580 0.75610 -0.19300
H 	H 	0.75280 0.07520 0.79230 0.08700
C 	C 	0.75470 0.45090 0.83210 -0.14500
H 	H 	0.80140 0.47240 0.87040 0.06500
H 	H 	0.74540 0.41860 0.91060 0.06500
N 	N 	0.92115 0.25620 0.72420 -0.24400
C 	C 	0.69440 0.50470 0.81340 0.13700
N 	N 	0.58560 0.60380 0.78400 -0.24700
C 	C 	0.81730 0.35980 0.70550 0.15600
C 	C 	0.87040 0.26510 0.59700 0.12100
H 	H 	0.87000 0.23600 0.51260 -0.02100
C 	C 	0.76010 0.41610 0.69390 -0.18000
H 	H 	0.77070 0.44860 0.61710 0.08100
H 	H 	0.71250 0.39660 0.65390 0.08300
C 	C 	0.87150 0.35220 0.83590 -0.20300
H 	H 	0.87410 0.38190 0.91980 0.09900
C 	C 	0.64740 0.61370 0.72780 0.09900
H 	H 	0.65340 0.65400 0.67600 -0.02100
C 	C 	0.63020 0.49540 0.87020 -0.20200
H 	H 	0.62180 0.45490 0.91860 0.10200
C 	C 	0.92140 0.30010 0.84070 0.11600
H 	H 	0.95700 0.29540 0.92980 -0.01400
C 	C 	0.57820 0.54540 0.85610 0.11500
H 	H 	0.53600 0.53820 0.89870 -0.02100
C 	C 	0.81800 0.31590 0.58490 -0.21500
H 	H 	0.78330 0.32000 0.49420 0.10200
N 	N 	0.99983 0.17220 0.98960 -0.22400
C 	C 	0.00020 0.15730 0.11700 0.11100
N 	N 	0.97890 0.13300 0.23770 -0.04900
C 	C 	0.70380 0.56580 0.74390 -0.19800
H 	H 	0.74720 0.57520 0.70770 0.09100
C 	C 	0.25470 0.95090 0.83210 -0.13800
H 	H 	0.30140 0.97240 0.87040 0.05900
H 	H 	0.24540 0.91860 0.91060 0.06200
N 	N 	0.42115 0.75620 0.72420 -0.25600
C 	C 	0.19440 0.00470 0.81340 0.13200
N 	N 	0.08560 0.10380 0.78400 -0.25300
C 	C 	0.31730 0.85980 0.70550 0.15600
C 	C 	0.37040 0.76510 0.59700 0.11800
H 	H 	0.37000 0.73600 0.51260 -0.02600
C 	C 	0.26010 0.91610 0.69390 -0.18500
H 	H 	0.27070 0.94860 0.61710 0.08100
H 	H 	0.21250 0.89660 0.65390 0.08400
C 	C 	0.37150 0.85220 0.83590 -0.20900
H 	H 	0.37410 0.88190 0.91980 0.09500
C 	C 	0.14740 0.11370 0.72780 0.09600
H 	H 	0.15340 0.15400 0.67600 -0.02200
C 	C 	0.13020 0.99540 0.87020 -0.20100
H 	H 	0.12180 0.95490 0.91860 0.09700
C 	C 	0.42140 0.80010 0.84070 0.11400
H 	H 	0.45700 0.79540 0.92980 -0.02700
C 	C 	0.07820 0.04540 0.85610 0.11000
H 	H 	0.03600 0.03820 0.89870 -0.03600
C 	C 	0.31800 0.81590 0.58490 -0.21800
H 	H 	0.28330 0.82000 0.49420 0.10200
N 	N 	0.49983 0.67220 0.98960 -0.28700
C 	C 	0.50020 0.65730 0.11700 0.20700
N 	N 	0.47890 0.63300 0.23770 -0.12400
C 	C 	0.20380 0.06580 0.74390 -0.19600
H 	H 	0.24720 0.07520 0.70770 0.08800
Ni	Ni	0.00000 0.17885 0.75000 1.04300
Ni	Ni	0.50000 0.67885 0.75000 1.06400
C 	C 	0.75470 0.54910 0.33210 -0.15200
H 	H 	0.80140 0.52760 0.37040 0.06800
H 	H 	0.74540 0.58140 0.41060 0.06900
N 	N 	0.92115 0.74380 0.22420 -0.24200
C 	C 	0.69440 0.49530 0.31340 0.14200
N 	N 	0.58560 0.39620 0.28400 -0.24700
C 	C 	0.81730 0.64020 0.20550 0.14800
C 	C 	0.87040 0.73490 0.09700 0.11400
H 	H 	0.87000 0.76400 0.01260 -0.01700
C 	C 	0.76010 0.58390 0.19390 -0.17200
H 	H 	0.77070 0.55140 0.11710 0.08100
H 	H 	0.71250 0.60340 0.15390 0.08200
C 	C 	0.87150 0.64780 0.33590 -0.19700
H 	H 	0.87410 0.61810 0.41980 0.09800
C 	C 	0.64740 0.38630 0.22780 0.10200
H 	H 	0.65340 0.34600 0.17600 -0.02100
C 	C 	0.63020 0.50460 0.37020 -0.20400
H 	H 	0.62180 0.54510 0.41860 0.10400
C 	C 	0.92140 0.69990 0.34070 0.11400
H 	H 	0.95700 0.70460 0.42980 -0.01200
C 	C 	0.57820 0.45460 0.35610 0.11700
H 	H 	0.53600 0.46180 0.39870 -0.02100
C 	C 	0.81800 0.68410 0.08490 -0.19900
H 	H 	0.78330 0.68000 0.99420 0.09300
N 	N 	0.99983 0.82780 0.48960 -0.21800
C 	C 	0.00020 0.84270 0.61700 0.10200
N 	N 	0.97890 0.86700 0.73770 -0.04700
C 	C 	0.70380 0.43420 0.24390 -0.20000
H 	H 	0.74720 0.42480 0.20770 0.09400
C 	C 	0.25470 0.04910 0.33210 -0.14500
H 	H 	0.30140 0.02760 0.37040 0.06300
H 	H 	0.24540 0.08140 0.41060 0.06600
N 	N 	0.42115 0.24380 0.22420 -0.25400
C 	C 	0.19440 0.99530 0.31340 0.13600
N 	N 	0.08560 0.89620 0.28400 -0.25300
C 	C 	0.31730 0.14020 0.20550 0.14800
C 	C 	0.37040 0.23490 0.09700 0.10900
H 	H 	0.37000 0.26400 0.01260 -0.02200
C 	C 	0.26010 0.08390 0.19390 -0.17800
H 	H 	0.27070 0.05140 0.11710 0.08000
H 	H 	0.21250 0.10340 0.15390 0.08400
C 	C 	0.37150 0.14780 0.33590 -0.20300
H 	H 	0.37410 0.11810 0.41980 0.09400
C 	C 	0.14740 0.88630 0.22780 0.09900
H 	H 	0.15340 0.84600 0.17600 -0.02200
C 	C 	0.13020 0.00460 0.37020 -0.20200
H 	H 	0.12180 0.04510 0.41860 0.09900
C 	C 	0.42140 0.19990 0.34070 0.11100
H 	H 	0.45700 0.20460 0.42980 -0.02600
C 	C 	0.07820 0.95460 0.35610 0.11200
H 	H 	0.03600 0.96180 0.39870 -0.03600
C 	C 	0.31800 0.18410 0.08490 -0.20000
H 	H 	0.28330 0.18000 0.99420 0.09200
N 	N 	0.49983 0.32780 0.48960 -0.28200
C 	C 	0.50020 0.34270 0.61700 0.19900
N 	N 	0.47890 0.36700 0.73770 -0.12200
C 	C 	0.20380 0.93420 0.24390 -0.19700
H 	H 	0.24720 0.92480 0.20770 0.09000
C 	C 	0.24530 0.54910 0.16790 -0.13900
H 	H 	0.19860 0.52760 0.12960 0.05800
H 	H 	0.25460 0.58140 0.08940 0.06500
N 	N 	0.07885 0.74380 0.27580 -0.26300
C 	C 	0.30560 0.49530 0.18660 0.13400
N 	N 	0.41440 0.39620 0.21600 -0.24600
C 	C 	0.18270 0.64020 0.29450 0.15500
C 	C 	0.12960 0.73490 0.40300 0.11300
H 	H 	0.13000 0.76400 0.48740 -0.03100
C 	C 	0.23990 0.58390 0.30610 -0.18500
H 	H 	0.22930 0.55140 0.38290 0.07900
H 	H 	0.28750 0.60340 0.34610 0.08500
C 	C 	0.12850 0.64780 0.16410 -0.21200
H 	H 	0.12590 0.61810 0.08020 0.09300
C 	C 	0.35260 0.38630 0.27220 0.09800
H 	H 	0.34660 0.34600 0.32400 -0.02100
C 	C 	0.36980 0.50460 0.12980 -0.19800
H 	H 	0.37820 0.54510 0.08140 0.10400
C 	C 	0.07860 0.69990 0.15930 0.11100
H 	H 	0.04300 0.70460 0.07020 -0.03700
C 	C 	0.42180 0.45460 0.14390 0.11400
H 	H 	0.46400 0.46180 0.10130 -0.01800
C 	C 	0.18200 0.68410 0.41510 -0.21900
H 	H 	0.21670 0.68000 0.50580 0.10000
N 	N 	0.00017 0.82780 0.01040 -0.33600
C 	C 	0.99980 0.84270 0.88300 0.28900
N 	N 	0.02110 0.86700 0.76230 -0.19600
C 	C 	0.29620 0.43420 0.25610 -0.19500
H 	H 	0.25280 0.42480 0.29230 0.08700
C 	C 	0.74530 0.04910 0.16790 -0.14000
H 	H 	0.69860 0.02760 0.12960 0.06200
H 	H 	0.75460 0.08140 0.08940 0.06600
N 	N 	0.57885 0.24380 0.27580 -0.25600
C 	C 	0.80560 0.99530 0.18660 0.13300
N 	N 	0.91440 0.89620 0.21600 -0.23400
C 	C 	0.68270 0.14020 0.29450 0.15700
C 	C 	0.62960 0.23490 0.40300 0.11800
H 	H 	0.63000 0.26400 0.48740 -0.02700
C 	C 	0.73990 0.08390 0.30610 -0.18500
H 	H 	0.72930 0.05140 0.38290 0.08100
H 	H 	0.78750 0.10340 0.34610 0.08600
C 	C 	0.62850 0.14780 0.16410 -0.20800
H 	H 	0.62590 0.11810 0.08020 0.09700
C 	C 	0.85260 0.88630 0.27220 0.09900
H 	H 	0.84660 0.84600 0.32400 -0.01800
C 	C 	0.86980 0.00460 0.12980 -0.19400
H 	H 	0.87820 0.04510 0.08140 0.10700
C 	C 	0.57860 0.19990 0.15930 0.11500
H 	H 	0.54300 0.20460 0.07020 -0.02600
C 	C 	0.92180 0.95460 0.14390 0.11500
H 	H 	0.96400 0.96180 0.10130 -0.00100
C 	C 	0.68200 0.18410 0.41510 -0.21800
H 	H 	0.71670 0.18000 0.50580 0.10100
N 	N 	0.50017 0.32780 0.01040 -0.27800
C 	C 	0.49980 0.34270 0.88300 0.19300
N 	N 	0.52110 0.36700 0.76230 -0.12200
C 	C 	0.79620 0.93420 0.25610 -0.19300
H 	H 	0.75280 0.92480 0.29230 0.08800
Ni	Ni	0.00000 0.82115 0.25000 1.04300
Ni	Ni	0.50000 0.32115 0.25000 1.06400
