data_crystal

_cell_length_a 15.28800
_cell_length_b 15.28800
_cell_length_c 15.57100
_cell_angle_alpha 90.00000
_cell_angle_beta  90.00000
_cell_angle_gamma 120.00000

_symmetry_space_group_name_	'P 1'
_symmetry_space_group_name_H-M	'P 1'

loop_
_symmetry_equiv_pos_as_xyz
  x,y,z

loop_
_atom_site_label
_atom_site_type_symbol
_atom_site_fract_x
_atom_site_fract_y
_atom_site_fract_z
_atom_site_charge
Tb	Tb	0.33333 0.66666 0.75000 1.83400
Tb	Tb	0.66667 0.33334 0.75000 1.81400
Tb	Tb	0.66667 0.33334 0.25000 1.79600
Tb	Tb	0.33333 0.66666 0.25000 1.81600
Co	Co	0.50000 0.50000 0.50000 1.16100
Co	Co	1.00000 0.50000 0.50000 1.11600
Co	Co	0.50000 0.00000 0.50000 1.11600
Co	Co	1.00000 0.50000 -0.00000 1.05000
Co	Co	0.50000 0.50000 -0.00000 1.09500
Co	Co	0.50000 0.00000 -0.00000 1.05000
H 	H 	0.23280 0.28700 0.65490 0.06000
H 	H 	0.05420 0.76720 0.65490 0.08800
H 	H 	0.71300 0.94580 0.65490 0.07800
H 	H 	0.76720 0.71300 0.65490 0.05200
H 	H 	0.94580 0.23280 0.65490 0.02300
H 	H 	0.28700 0.05420 0.65490 0.03300
H 	H 	0.94580 0.71300 0.84510 0.05400
H 	H 	0.28700 0.23280 0.84510 0.07200
H 	H 	0.76720 0.05420 0.84510 0.04400
H 	H 	0.05420 0.28700 0.84510 0.09800
H 	H 	0.71300 0.76720 0.84510 0.08000
H 	H 	0.23280 0.94580 0.84510 0.10700
H 	H 	0.76720 0.71300 0.34510 0.04900
H 	H 	0.94580 0.23280 0.34510 0.02000
H 	H 	0.28700 0.05420 0.34510 0.03000
H 	H 	0.23280 0.28700 0.34510 0.05700
H 	H 	0.05420 0.76720 0.34510 0.08700
H 	H 	0.71300 0.94580 0.34510 0.07600
H 	H 	0.05420 0.28700 0.15490 0.05800
H 	H 	0.71300 0.76720 0.15490 0.03900
H 	H 	0.23280 0.94580 0.15490 0.06900
H 	H 	0.94580 0.71300 0.15490 0.01200
H 	H 	0.28700 0.23280 0.15490 0.03000
H 	H 	0.76720 0.05420 0.15490 0.00200
H 	H 	0.09935 0.19870 0.75000 0.04600
H 	H 	0.09935 0.90065 0.75000 0.07600
H 	H 	0.80130 0.90065 0.75000 0.04600
H 	H 	0.90065 0.80130 0.75000 0.03100
H 	H 	0.90065 0.09935 0.75000 -0.00000
H 	H 	0.19870 0.09935 0.75000 0.03100
H 	H 	0.90065 0.80130 0.25000 0.02500
H 	H 	0.90065 0.09935 0.25000 -0.00700
H 	H 	0.19870 0.09935 0.25000 0.02500
H 	H 	0.09935 0.19870 0.25000 0.04000
H 	H 	0.09935 0.90065 0.25000 0.07200
H 	H 	0.80130 0.90065 0.25000 0.04000
C 	C 	0.35410 0.49120 0.63870 0.34100
C 	C 	0.26510 0.42610 0.69620 -0.00900
C 	C 	0.21400 0.32110 0.69350 -0.04300
C 	C 	0.13710 0.64590 0.63870 0.33800
C 	C 	0.16100 0.73490 0.69620 0.00700
C 	C 	0.10710 0.78600 0.69350 -0.03700
C 	C 	0.50880 0.86290 0.63870 0.33600
C 	C 	0.57390 0.83900 0.69620 -0.00000
C 	C 	0.67890 0.89290 0.69350 -0.04400
C 	C 	0.64590 0.50880 0.63870 0.33900
C 	C 	0.73490 0.57390 0.69620 -0.02300
C 	C 	0.78600 0.67890 0.69350 -0.04300
C 	C 	0.86290 0.35410 0.63870 0.33900
C 	C 	0.83900 0.26510 0.69620 -0.03700
C 	C 	0.89290 0.21400 0.69350 -0.05100
C 	C 	0.49120 0.13710 0.63870 0.34000
C 	C 	0.42610 0.16100 0.69620 -0.03100
C 	C 	0.32110 0.10710 0.69350 -0.04400
C 	C 	0.86290 0.50880 0.86130 0.33600
C 	C 	0.83900 0.57390 0.80380 -0.01700
C 	C 	0.89290 0.67890 0.80650 -0.04500
C 	C 	0.49120 0.35410 0.86130 0.33500
C 	C 	0.42610 0.26510 0.80380 -0.00900
C 	C 	0.32110 0.21400 0.80650 -0.04400
C 	C 	0.64590 0.13710 0.86130 0.33500
C 	C 	0.73490 0.16100 0.80380 -0.02300
C 	C 	0.78600 0.10710 0.80650 -0.05200
C 	C 	0.13710 0.49120 0.86130 0.33200
C 	C 	0.16100 0.42610 0.80380 0.01300
C 	C 	0.10710 0.32110 0.80650 -0.04400
C 	C 	0.50880 0.64590 0.86130 0.33700
C 	C 	0.57390 0.73490 0.80380 0.00400
C 	C 	0.67890 0.78600 0.80650 -0.04500
C 	C 	0.35410 0.86290 0.86130 0.33300
C 	C 	0.26510 0.83900 0.80380 0.02000
C 	C 	0.21400 0.89290 0.80650 -0.03800
C 	C 	0.64590 0.50880 0.36130 0.34000
C 	C 	0.73490 0.57390 0.30380 -0.03000
C 	C 	0.78600 0.67890 0.30650 -0.03600
C 	C 	0.86290 0.35410 0.36130 0.34000
C 	C 	0.83900 0.26510 0.30380 -0.04400
C 	C 	0.89290 0.21400 0.30650 -0.04400
C 	C 	0.49120 0.13710 0.36130 0.34100
C 	C 	0.42610 0.16100 0.30380 -0.03800
C 	C 	0.32110 0.10710 0.30650 -0.03700
C 	C 	0.35410 0.49120 0.36130 0.34200
C 	C 	0.26510 0.42610 0.30380 -0.01600
C 	C 	0.21400 0.32110 0.30650 -0.03600
C 	C 	0.13710 0.64590 0.36130 0.33900
C 	C 	0.16100 0.73490 0.30380 0.00100
C 	C 	0.10710 0.78600 0.30650 -0.02900
C 	C 	0.50880 0.86290 0.36130 0.33700
C 	C 	0.57390 0.83900 0.30380 -0.00700
C 	C 	0.67890 0.89290 0.30650 -0.03600
C 	C 	0.13710 0.49120 0.13870 0.33600
C 	C 	0.16100 0.42610 0.19620 -0.01700
C 	C 	0.10710 0.32110 0.19350 -0.03600
C 	C 	0.50880 0.64590 0.13870 0.34100
C 	C 	0.57390 0.73490 0.19620 -0.02700
C 	C 	0.67890 0.78600 0.19350 -0.03600
C 	C 	0.35410 0.86290 0.13870 0.33800
C 	C 	0.26510 0.83900 0.19620 -0.01000
C 	C 	0.21400 0.89290 0.19350 -0.02900
C 	C 	0.86290 0.50880 0.13870 0.34000
C 	C 	0.83900 0.57390 0.19620 -0.04900
C 	C 	0.89290 0.67890 0.19350 -0.03700
C 	C 	0.49120 0.35410 0.13870 0.33900
C 	C 	0.42610 0.26510 0.19620 -0.04100
C 	C 	0.32110 0.21400 0.19350 -0.03600
C 	C 	0.64590 0.13710 0.13870 0.33900
C 	C 	0.73490 0.16100 0.19620 -0.05500
C 	C 	0.78600 0.10710 0.19350 -0.04400
C 	C 	0.13445 0.26890 0.75000 -0.00300
C 	C 	0.13445 0.86555 0.75000 0.00900
C 	C 	0.73110 0.86555 0.75000 -0.00300
C 	C 	0.86555 0.73110 0.75000 -0.03600
C 	C 	0.86555 0.13445 0.75000 -0.04800
C 	C 	0.26890 0.13445 0.75000 -0.03600
C 	C 	0.86555 0.73110 0.25000 -0.05700
C 	C 	0.86555 0.13445 0.25000 -0.06900
C 	C 	0.26890 0.13445 0.25000 -0.05700
C 	C 	0.13445 0.26890 0.25000 -0.02300
C 	C 	0.13445 0.86555 0.25000 -0.01000
C 	C 	0.73110 0.86555 0.25000 -0.02300
N 	N 	0.23881 0.47762 0.75000 -0.18800
N 	N 	0.23881 0.76119 0.75000 -0.18700
N 	N 	0.52238 0.76119 0.75000 -0.18800
N 	N 	0.76119 0.52238 0.75000 -0.18600
N 	N 	0.76119 0.23881 0.75000 -0.18600
N 	N 	0.47762 0.23881 0.75000 -0.18500
N 	N 	0.76119 0.52238 0.25000 -0.18200
N 	N 	0.76119 0.23881 0.25000 -0.18200
N 	N 	0.47762 0.23881 0.25000 -0.18200
N 	N 	0.23881 0.47762 0.25000 -0.18400
N 	N 	0.23881 0.76119 0.25000 -0.18400
N 	N 	0.52238 0.76119 0.25000 -0.18400
O 	O 	0.38880 0.58710 0.64337 -0.42200
O 	O 	0.38660 0.44710 0.59240 -0.41400
O 	O 	0.19830 0.61120 0.64337 -0.40700
O 	O 	0.06050 0.61340 0.59240 -0.36400
O 	O 	0.41290 0.80170 0.64337 -0.40800
O 	O 	0.55290 0.93950 0.59240 -0.36800
O 	O 	0.61120 0.41290 0.64337 -0.42300
O 	O 	0.61340 0.55290 0.59240 -0.41700
O 	O 	0.80170 0.38880 0.64337 -0.43400
O 	O 	0.93950 0.38660 0.59240 -0.45000
O 	O 	0.58710 0.19830 0.64337 -0.43300
O 	O 	0.44710 0.06050 0.59240 -0.44600
O 	O 	0.80170 0.41290 0.85663 -0.40300
O 	O 	0.93950 0.55290 0.90760 -0.38300
O 	O 	0.58710 0.38880 0.85663 -0.39300
O 	O 	0.44710 0.38660 0.90760 -0.35400
O 	O 	0.61120 0.19830 0.85663 -0.40300
O 	O 	0.61340 0.06050 0.90760 -0.38600
O 	O 	0.19830 0.58710 0.85663 -0.37900
O 	O 	0.06050 0.44710 0.90760 -0.30700
O 	O 	0.41290 0.61120 0.85663 -0.39300
O 	O 	0.55290 0.61340 0.90760 -0.35100
O 	O 	0.38880 0.80170 0.85663 -0.37800
O 	O 	0.38660 0.93950 0.90760 -0.30400
O 	O 	0.61120 0.41290 0.35663 -0.42100
O 	O 	0.61340 0.55290 0.40760 -0.41800
O 	O 	0.80170 0.38880 0.35663 -0.43200
O 	O 	0.93950 0.38660 0.40760 -0.45000
O 	O 	0.58710 0.19830 0.35663 -0.43100
O 	O 	0.44710 0.06050 0.40760 -0.44700
O 	O 	0.38880 0.58710 0.35663 -0.42100
O 	O 	0.38660 0.44710 0.40760 -0.41400
O 	O 	0.19830 0.61120 0.35663 -0.40500
O 	O 	0.06050 0.61340 0.40760 -0.36400
O 	O 	0.41290 0.80170 0.35663 -0.40600
O 	O 	0.55290 0.93950 0.40760 -0.36700
O 	O 	0.19830 0.58710 0.14337 -0.42800
O 	O 	0.06050 0.44710 0.09240 -0.40300
O 	O 	0.41290 0.61120 0.14337 -0.44300
O 	O 	0.55290 0.61340 0.09240 -0.45100
O 	O 	0.38880 0.80170 0.14337 -0.42700
O 	O 	0.38660 0.93950 0.09240 -0.39900
O 	O 	0.80170 0.41290 0.14337 -0.45400
O 	O 	0.93950 0.55290 0.09240 -0.48400
O 	O 	0.58710 0.38880 0.14337 -0.44400
O 	O 	0.44710 0.38660 0.09240 -0.45500
O 	O 	0.61120 0.19830 0.14337 -0.45500
O 	O 	0.61340 0.06050 0.09240 -0.48700
