data_crystal

_cell_length_a 15.28060
_cell_length_b 15.28060
_cell_length_c 15.39300
_cell_angle_alpha 90.00000
_cell_angle_beta  90.00000
_cell_angle_gamma 120.00000

_symmetry_space_group_name_	'P 1'
_symmetry_space_group_name_H-M	'P 1'

loop_
_symmetry_equiv_pos_as_xyz
  x,y,z

loop_
_atom_site_label
_atom_site_type_symbol
_atom_site_fract_x
_atom_site_fract_y
_atom_site_fract_z
_atom_site_charge
Eu	Eu	0.66667 0.33334 0.75000 1.95300
Eu	Eu	0.33333 0.66666 0.75000 1.95300
Eu	Eu	0.33333 0.66666 0.25000 1.93300
Eu	Eu	0.66667 0.33334 0.25000 1.93300
Co	Co	0.50000 0.50000 -0.00000 1.09700
Co	Co	0.00000 0.50000 -0.00000 1.06100
Co	Co	0.50000 0.00000 -0.00000 1.06100
Co	Co	0.00000 0.50000 0.50000 1.12700
Co	Co	0.50000 0.50000 0.50000 1.16400
Co	Co	0.50000 0.00000 0.50000 1.12700
H 	H 	0.76620 0.71230 0.84540 0.08200
H 	H 	0.94610 0.23380 0.84540 0.08900
H 	H 	0.28770 0.05390 0.84540 0.05100
H 	H 	0.23380 0.28770 0.84540 0.06600
H 	H 	0.05390 0.76620 0.84540 0.05800
H 	H 	0.71230 0.94610 0.84540 0.09700
H 	H 	0.05390 0.28770 0.65460 0.02900
H 	H 	0.71230 0.76620 0.65460 0.06200
H 	H 	0.23380 0.94610 0.65460 0.06900
H 	H 	0.94610 0.71230 0.65460 0.07700
H 	H 	0.28770 0.23380 0.65460 0.04500
H 	H 	0.76620 0.05390 0.65460 0.03800
H 	H 	0.23380 0.28770 0.15460 0.02200
H 	H 	0.05390 0.76620 0.15460 0.01600
H 	H 	0.71230 0.94610 0.15460 0.05600
H 	H 	0.76620 0.71230 0.15460 0.03900
H 	H 	0.94610 0.23380 0.15460 0.04800
H 	H 	0.28770 0.05390 0.15460 0.00700
H 	H 	0.94610 0.71230 0.34540 0.07400
H 	H 	0.28770 0.23380 0.34540 0.04100
H 	H 	0.76620 0.05390 0.34540 0.03500
H 	H 	0.05390 0.28770 0.34540 0.02600
H 	H 	0.71230 0.76620 0.34540 0.05800
H 	H 	0.23380 0.94610 0.34540 0.06600
H 	H 	0.90040 0.80080 0.75000 0.06600
H 	H 	0.90040 0.09960 0.75000 0.04000
H 	H 	0.19920 0.09960 0.75000 0.01500
H 	H 	0.09960 0.19920 0.75000 0.01500
H 	H 	0.09960 0.90040 0.75000 0.04000
H 	H 	0.80080 0.90040 0.75000 0.06600
H 	H 	0.09960 0.19920 0.25000 0.00800
H 	H 	0.09960 0.90040 0.25000 0.03500
H 	H 	0.80080 0.90040 0.25000 0.06100
H 	H 	0.90040 0.80080 0.25000 0.06100
H 	H 	0.90040 0.09960 0.25000 0.03500
H 	H 	0.19920 0.09960 0.25000 0.00800
C 	C 	0.64610 0.50960 0.86150 0.35300
C 	C 	0.73510 0.57470 0.80400 -0.00500
C 	C 	0.78530 0.67820 0.80660 -0.03300
C 	C 	0.86350 0.35390 0.86150 0.34700
C 	C 	0.83960 0.26490 0.80400 -0.00200
C 	C 	0.89290 0.21470 0.80660 -0.03800
C 	C 	0.49040 0.13650 0.86150 0.35200
C 	C 	0.42530 0.16040 0.80400 -0.02300
C 	C 	0.32180 0.10710 0.80660 -0.04400
C 	C 	0.35390 0.49040 0.86150 0.35100
C 	C 	0.26490 0.42530 0.80400 -0.01600
C 	C 	0.21470 0.32180 0.80660 -0.04300
C 	C 	0.13650 0.64610 0.86150 0.35300
C 	C 	0.16040 0.73510 0.80400 -0.01700
C 	C 	0.10710 0.78530 0.80660 -0.03900
C 	C 	0.50960 0.86350 0.86150 0.34800
C 	C 	0.57470 0.83960 0.80400 0.00300
C 	C 	0.67820 0.89290 0.80660 -0.03300
C 	C 	0.13650 0.49040 0.63850 0.35800
C 	C 	0.16040 0.42530 0.69600 -0.03700
C 	C 	0.10710 0.32180 0.69340 -0.04200
C 	C 	0.50960 0.64610 0.63850 0.35900
C 	C 	0.57470 0.73510 0.69600 -0.01900
C 	C 	0.67820 0.78530 0.69340 -0.03100
C 	C 	0.35390 0.86350 0.63850 0.35300
C 	C 	0.26490 0.83960 0.69600 -0.01700
C 	C 	0.21470 0.89290 0.69340 -0.03700
C 	C 	0.86350 0.50960 0.63850 0.35400
C 	C 	0.83960 0.57470 0.69600 -0.01100
C 	C 	0.89290 0.67820 0.69340 -0.03100
C 	C 	0.49040 0.35390 0.63850 0.35700
C 	C 	0.42530 0.26490 0.69600 -0.03100
C 	C 	0.32180 0.21470 0.69340 -0.04100
C 	C 	0.64610 0.13650 0.63850 0.35900
C 	C 	0.73510 0.16040 0.69600 -0.03100
C 	C 	0.78530 0.10710 0.69340 -0.03700
C 	C 	0.35390 0.49040 0.13850 0.35800
C 	C 	0.26490 0.42530 0.19600 -0.05000
C 	C 	0.21470 0.32180 0.19340 -0.03200
C 	C 	0.13650 0.64610 0.13850 0.36000
C 	C 	0.16040 0.73510 0.19600 -0.05000
C 	C 	0.10710 0.78530 0.19340 -0.02800
C 	C 	0.50960 0.86350 0.13850 0.35500
C 	C 	0.57470 0.83960 0.19600 -0.03000
C 	C 	0.67820 0.89290 0.19340 -0.02200
C 	C 	0.64610 0.50960 0.13850 0.36000
C 	C 	0.73510 0.57470 0.19600 -0.03800
C 	C 	0.78530 0.67820 0.19340 -0.02200
C 	C 	0.86350 0.35390 0.13850 0.35400
C 	C 	0.83960 0.26490 0.19600 -0.03500
C 	C 	0.89290 0.21470 0.19340 -0.02700
C 	C 	0.49040 0.13650 0.13850 0.35900
C 	C 	0.42530 0.16040 0.19600 -0.05700
C 	C 	0.32180 0.10710 0.19340 -0.03300
C 	C 	0.86350 0.50960 0.36150 0.35500
C 	C 	0.83960 0.57470 0.30400 -0.01900
C 	C 	0.89290 0.67820 0.30660 -0.02200
C 	C 	0.49040 0.35390 0.36150 0.35800
C 	C 	0.42530 0.26490 0.30400 -0.03800
C 	C 	0.32180 0.21470 0.30660 -0.03300
C 	C 	0.64610 0.13650 0.36150 0.36000
C 	C 	0.73510 0.16040 0.30400 -0.03900
C 	C 	0.78530 0.10710 0.30660 -0.02800
C 	C 	0.13650 0.49040 0.36150 0.35900
C 	C 	0.16040 0.42530 0.30400 -0.04500
C 	C 	0.10710 0.32180 0.30660 -0.03300
C 	C 	0.50960 0.64610 0.36150 0.36000
C 	C 	0.57470 0.73510 0.30400 -0.02700
C 	C 	0.67820 0.78530 0.30660 -0.02200
C 	C 	0.35390 0.86350 0.36150 0.35400
C 	C 	0.26490 0.83960 0.30400 -0.02400
C 	C 	0.21470 0.89290 0.30660 -0.02800
C 	C 	0.86520 0.73040 0.75000 -0.01500
C 	C 	0.86520 0.13480 0.75000 -0.02500
C 	C 	0.26960 0.13480 0.75000 -0.03600
C 	C 	0.13480 0.26960 0.75000 -0.03600
C 	C 	0.13480 0.86520 0.75000 -0.02500
C 	C 	0.73040 0.86520 0.75000 -0.01500
C 	C 	0.13480 0.26960 0.25000 -0.05900
C 	C 	0.13480 0.86520 0.25000 -0.04700
C 	C 	0.73040 0.86520 0.25000 -0.03700
C 	C 	0.86520 0.73040 0.25000 -0.03700
C 	C 	0.86520 0.13480 0.25000 -0.04700
C 	C 	0.26960 0.13480 0.25000 -0.05900
N 	N 	0.76168 0.52336 0.75000 -0.19100
N 	N 	0.76168 0.23832 0.75000 -0.19200
N 	N 	0.47664 0.23832 0.75000 -0.19200
N 	N 	0.23832 0.47664 0.75000 -0.19200
N 	N 	0.23832 0.76168 0.75000 -0.19200
N 	N 	0.52336 0.76168 0.75000 -0.19100
N 	N 	0.23832 0.47664 0.25000 -0.18700
N 	N 	0.23832 0.76168 0.25000 -0.18700
N 	N 	0.52336 0.76168 0.25000 -0.18700
N 	N 	0.76168 0.52336 0.25000 -0.18700
N 	N 	0.76168 0.23832 0.25000 -0.18700
N 	N 	0.47664 0.23832 0.25000 -0.18800
O 	O 	0.61180 0.41420 0.85735 -0.41300
O 	O 	0.61330 0.55330 0.90720 -0.35700
O 	O 	0.80240 0.38820 0.85735 -0.40200
O 	O 	0.94000 0.38670 0.90720 -0.32400
O 	O 	0.58580 0.19760 0.85735 -0.42300
O 	O 	0.44670 0.06000 0.90720 -0.38700
O 	O 	0.38820 0.58580 0.85735 -0.41400
O 	O 	0.38670 0.44670 0.90720 -0.36300
O 	O 	0.19760 0.61180 0.85735 -0.42200
O 	O 	0.06000 0.61330 0.90720 -0.38500
O 	O 	0.41420 0.80240 0.85735 -0.40100
O 	O 	0.55330 0.94000 0.90720 -0.32100
O 	O 	0.19760 0.58580 0.64265 -0.45400
O 	O 	0.06000 0.44670 0.59280 -0.45200
O 	O 	0.41420 0.61180 0.64265 -0.44400
O 	O 	0.55330 0.61330 0.59280 -0.42100
O 	O 	0.38820 0.80240 0.64265 -0.43300
O 	O 	0.38670 0.94000 0.59280 -0.38600
O 	O 	0.80240 0.41420 0.64265 -0.43200
O 	O 	0.94000 0.55330 0.59280 -0.38300
O 	O 	0.58580 0.38820 0.64265 -0.44600
O 	O 	0.44670 0.38670 0.59280 -0.42800
O 	O 	0.61180 0.19760 0.64265 -0.45300
O 	O 	0.61330 0.06000 0.59280 -0.44900
O 	O 	0.38820 0.58580 0.14265 -0.46700
O 	O 	0.38670 0.44670 0.09280 -0.46600
O 	O 	0.19760 0.61180 0.14265 -0.47500
O 	O 	0.06000 0.61330 0.09280 -0.48600
O 	O 	0.41420 0.80240 0.14265 -0.45300
O 	O 	0.55330 0.94000 0.09280 -0.42000
O 	O 	0.61180 0.41420 0.14265 -0.46600
O 	O 	0.61330 0.55330 0.09280 -0.45900
O 	O 	0.80240 0.38820 0.14265 -0.45400
O 	O 	0.94000 0.38670 0.09280 -0.42300
O 	O 	0.58580 0.19760 0.14265 -0.47600
O 	O 	0.44670 0.06000 0.09280 -0.49000
O 	O 	0.80240 0.41420 0.35735 -0.43000
O 	O 	0.94000 0.55330 0.40720 -0.38300
O 	O 	0.58580 0.38820 0.35735 -0.44400
O 	O 	0.44670 0.38670 0.40720 -0.42800
O 	O 	0.61180 0.19760 0.35735 -0.45100
O 	O 	0.61330 0.06000 0.40720 -0.44900
O 	O 	0.19760 0.58580 0.35735 -0.45200
O 	O 	0.06000 0.44670 0.40720 -0.45200
O 	O 	0.41420 0.61180 0.35735 -0.44200
O 	O 	0.55330 0.61330 0.40720 -0.42200
O 	O 	0.38820 0.80240 0.35735 -0.43100
O 	O 	0.38670 0.94000 0.40720 -0.38600
