data_crystal

_cell_length_a 15.21960
_cell_length_b 15.21960
_cell_length_c 15.47370
_cell_angle_alpha 90.00000
_cell_angle_beta  90.00000
_cell_angle_gamma 120.00000

_symmetry_space_group_name_	'P 1'
_symmetry_space_group_name_H-M	'P 1'

loop_
_symmetry_equiv_pos_as_xyz
  x,y,z

loop_
_atom_site_label
_atom_site_type_symbol
_atom_site_fract_x
_atom_site_fract_y
_atom_site_fract_z
_atom_site_charge
Dy	Dy	0.66667 0.33334 0.75000 1.79500
Dy	Dy	0.33333 0.66666 0.75000 1.79500
Dy	Dy	0.33333 0.66666 0.25000 1.77800
Dy	Dy	0.66667 0.33334 0.25000 1.77700
Co	Co	0.50000 0.00000 0.50000 1.12800
Co	Co	0.50000 0.50000 0.50000 1.16600
Co	Co	-0.00000 0.50000 0.50000 1.12800
Co	Co	0.50000 0.00000 -0.00000 1.06200
Co	Co	-0.00000 0.50000 -0.00000 1.06200
Co	Co	0.50000 0.50000 -0.00000 1.09800
H 	H 	0.76610 0.05450 0.65510 0.03800
H 	H 	0.28840 0.23390 0.65510 0.04500
H 	H 	0.94550 0.71160 0.65510 0.07700
H 	H 	0.23390 0.94550 0.65510 0.06900
H 	H 	0.71160 0.76610 0.65510 0.06200
H 	H 	0.05450 0.28840 0.65510 0.02900
H 	H 	0.71160 0.94550 0.84490 0.09700
H 	H 	0.05450 0.76610 0.84490 0.05800
H 	H 	0.23390 0.28840 0.84490 0.06600
H 	H 	0.28840 0.05450 0.84490 0.05100
H 	H 	0.94550 0.23390 0.84490 0.08900
H 	H 	0.76610 0.71160 0.84490 0.08200
H 	H 	0.23390 0.94550 0.34490 0.06600
H 	H 	0.71160 0.76610 0.34490 0.05900
H 	H 	0.05450 0.28840 0.34490 0.02600
H 	H 	0.76610 0.05450 0.34490 0.03500
H 	H 	0.28840 0.23390 0.34490 0.04100
H 	H 	0.94550 0.71160 0.34490 0.07400
H 	H 	0.28840 0.05450 0.15510 0.00700
H 	H 	0.94550 0.23390 0.15510 0.04800
H 	H 	0.76610 0.71160 0.15510 0.04000
H 	H 	0.71160 0.94550 0.15510 0.05600
H 	H 	0.05450 0.76610 0.15510 0.01600
H 	H 	0.23390 0.28840 0.15510 0.02200
H 	H 	0.90050 0.09950 0.75000 0.04100
H 	H 	0.19900 0.09950 0.75000 0.01500
H 	H 	0.90050 0.80100 0.75000 0.06700
H 	H 	0.09950 0.90050 0.75000 0.04100
H 	H 	0.80100 0.90050 0.75000 0.06700
H 	H 	0.09950 0.19900 0.75000 0.01500
H 	H 	0.09950 0.90050 0.25000 0.03500
H 	H 	0.80100 0.90050 0.25000 0.06200
H 	H 	0.09950 0.19900 0.25000 0.00900
H 	H 	0.90050 0.09950 0.25000 0.03500
H 	H 	0.19900 0.09950 0.25000 0.00900
H 	H 	0.90050 0.80100 0.25000 0.06200
C 	C 	0.64530 0.13800 0.63920 0.35800
C 	C 	0.73390 0.16130 0.69640 -0.03000
C 	C 	0.78520 0.10780 0.69380 -0.03600
C 	C 	0.49270 0.35470 0.63920 0.35600
C 	C 	0.42740 0.26610 0.69640 -0.02900
C 	C 	0.32260 0.21480 0.69380 -0.04000
C 	C 	0.86200 0.50730 0.63920 0.35300
C 	C 	0.83870 0.57260 0.69640 -0.01000
C 	C 	0.89220 0.67740 0.69380 -0.03000
C 	C 	0.35470 0.86200 0.63920 0.35200
C 	C 	0.26610 0.83870 0.69640 -0.01500
C 	C 	0.21480 0.89220 0.69380 -0.03600
C 	C 	0.50730 0.64530 0.63920 0.35800
C 	C 	0.57260 0.73390 0.69640 -0.01800
C 	C 	0.67740 0.78520 0.69380 -0.03000
C 	C 	0.13800 0.49270 0.63920 0.35700
C 	C 	0.16130 0.42740 0.69640 -0.03600
C 	C 	0.10780 0.32260 0.69380 -0.04100
C 	C 	0.50730 0.86200 0.86080 0.34700
C 	C 	0.57260 0.83870 0.80360 0.00400
C 	C 	0.67740 0.89220 0.80620 -0.03100
C 	C 	0.13800 0.64530 0.86080 0.35200
C 	C 	0.16130 0.73390 0.80360 -0.01600
C 	C 	0.10780 0.78520 0.80620 -0.03800
C 	C 	0.35470 0.49270 0.86080 0.35000
C 	C 	0.26610 0.42740 0.80360 -0.01400
C 	C 	0.21480 0.32260 0.80620 -0.04200
C 	C 	0.49270 0.13800 0.86080 0.35100
C 	C 	0.42740 0.16130 0.80360 -0.02100
C 	C 	0.32260 0.10780 0.80620 -0.04300
C 	C 	0.86200 0.35470 0.86080 0.34600
C 	C 	0.83870 0.26610 0.80360 -0.00100
C 	C 	0.89220 0.21480 0.80620 -0.03700
C 	C 	0.64530 0.50730 0.86080 0.35200
C 	C 	0.73390 0.57260 0.80360 -0.00400
C 	C 	0.78520 0.67740 0.80620 -0.03200
C 	C 	0.35470 0.86200 0.36080 0.35400
C 	C 	0.26610 0.83870 0.30360 -0.02200
C 	C 	0.21480 0.89220 0.30620 -0.02700
C 	C 	0.50730 0.64530 0.36080 0.35900
C 	C 	0.57260 0.73390 0.30360 -0.02500
C 	C 	0.67740 0.78520 0.30620 -0.02200
C 	C 	0.13800 0.49270 0.36080 0.35800
C 	C 	0.16130 0.42740 0.30360 -0.04400
C 	C 	0.10780 0.32260 0.30620 -0.03300
C 	C 	0.64530 0.13800 0.36080 0.36000
C 	C 	0.73390 0.16130 0.30360 -0.03800
C 	C 	0.78520 0.10780 0.30620 -0.02800
C 	C 	0.49270 0.35470 0.36080 0.35700
C 	C 	0.42740 0.26610 0.30360 -0.03700
C 	C 	0.32260 0.21480 0.30620 -0.03200
C 	C 	0.86200 0.50730 0.36080 0.35400
C 	C 	0.83870 0.57260 0.30360 -0.01700
C 	C 	0.89220 0.67740 0.30620 -0.02200
C 	C 	0.49270 0.13800 0.13920 0.35900
C 	C 	0.42740 0.16130 0.19640 -0.05500
C 	C 	0.32260 0.10780 0.19380 -0.03200
C 	C 	0.86200 0.35470 0.13920 0.35400
C 	C 	0.83870 0.26610 0.19640 -0.03400
C 	C 	0.89220 0.21480 0.19380 -0.02700
C 	C 	0.64530 0.50730 0.13920 0.35900
C 	C 	0.73390 0.57260 0.19640 -0.03700
C 	C 	0.78520 0.67740 0.19380 -0.02100
C 	C 	0.50730 0.86200 0.13920 0.35400
C 	C 	0.57260 0.83870 0.19640 -0.02800
C 	C 	0.67740 0.89220 0.19380 -0.02100
C 	C 	0.13800 0.64530 0.13920 0.36000
C 	C 	0.16130 0.73390 0.19640 -0.04900
C 	C 	0.10780 0.78520 0.19380 -0.02700
C 	C 	0.35470 0.49270 0.13920 0.35700
C 	C 	0.26610 0.42740 0.19640 -0.04800
C 	C 	0.21480 0.32260 0.19380 -0.03200
C 	C 	0.86525 0.13475 0.75000 -0.02600
C 	C 	0.26950 0.13475 0.75000 -0.03700
C 	C 	0.86525 0.73050 0.75000 -0.01600
C 	C 	0.13475 0.86525 0.75000 -0.02600
C 	C 	0.73050 0.86525 0.75000 -0.01600
C 	C 	0.13475 0.26950 0.75000 -0.03700
C 	C 	0.13475 0.86525 0.25000 -0.04800
C 	C 	0.73050 0.86525 0.25000 -0.03800
C 	C 	0.13475 0.26950 0.25000 -0.06000
C 	C 	0.86525 0.13475 0.25000 -0.04800
C 	C 	0.26950 0.13475 0.25000 -0.06000
C 	C 	0.86525 0.73050 0.25000 -0.03800
N 	N 	0.76060 0.23940 0.75000 -0.18300
N 	N 	0.47880 0.23940 0.75000 -0.18300
N 	N 	0.76060 0.52120 0.75000 -0.18300
N 	N 	0.23940 0.76060 0.75000 -0.18300
N 	N 	0.52120 0.76060 0.75000 -0.18300
N 	N 	0.23940 0.47880 0.75000 -0.18300
N 	N 	0.23940 0.76060 0.25000 -0.17900
N 	N 	0.52120 0.76060 0.25000 -0.17900
N 	N 	0.23940 0.47880 0.25000 -0.17900
N 	N 	0.76060 0.23940 0.25000 -0.17900
N 	N 	0.47880 0.23940 0.25000 -0.17900
N 	N 	0.76060 0.52120 0.25000 -0.17900
O 	O 	0.61290 0.06160 0.59250 -0.44600
O 	O 	0.61120 0.19900 0.64338 -0.43500
O 	O 	0.44870 0.38710 0.59250 -0.42500
O 	O 	0.58780 0.38880 0.64338 -0.42800
O 	O 	0.93840 0.55130 0.59250 -0.38100
O 	O 	0.80100 0.41220 0.64338 -0.41400
O 	O 	0.38710 0.93840 0.59250 -0.38400
O 	O 	0.38880 0.80100 0.64338 -0.41500
O 	O 	0.55130 0.61290 0.59250 -0.41900
O 	O 	0.41220 0.61120 0.64338 -0.42600
O 	O 	0.06160 0.44870 0.59250 -0.44900
O 	O 	0.19900 0.58780 0.64338 -0.43600
O 	O 	0.55130 0.93840 0.90750 -0.31800
O 	O 	0.41220 0.80100 0.85662 -0.38400
O 	O 	0.06160 0.61290 0.90750 -0.38200
O 	O 	0.19900 0.61120 0.85662 -0.40400
O 	O 	0.38710 0.44870 0.90750 -0.36000
O 	O 	0.38880 0.58780 0.85662 -0.39700
O 	O 	0.44870 0.06160 0.90750 -0.38400
O 	O 	0.58780 0.19900 0.85662 -0.40500
O 	O 	0.93840 0.38710 0.90750 -0.32100
O 	O 	0.80100 0.38880 0.85662 -0.38400
O 	O 	0.61290 0.55130 0.90750 -0.35400
O 	O 	0.61120 0.41220 0.85662 -0.39500
O 	O 	0.38710 0.93840 0.40750 -0.38400
O 	O 	0.38880 0.80100 0.35662 -0.41300
O 	O 	0.55130 0.61290 0.40750 -0.41900
O 	O 	0.41220 0.61120 0.35662 -0.42400
O 	O 	0.06160 0.44870 0.40750 -0.45000
O 	O 	0.19900 0.58780 0.35662 -0.43500
O 	O 	0.61290 0.06160 0.40750 -0.44700
O 	O 	0.61120 0.19900 0.35662 -0.43400
O 	O 	0.44870 0.38710 0.40750 -0.42600
O 	O 	0.58780 0.38880 0.35662 -0.42600
O 	O 	0.93840 0.55130 0.40750 -0.38100
O 	O 	0.80100 0.41220 0.35662 -0.41200
O 	O 	0.44870 0.06160 0.09250 -0.48700
O 	O 	0.58780 0.19900 0.14338 -0.45800
O 	O 	0.93840 0.38710 0.09250 -0.42100
O 	O 	0.80100 0.38880 0.14338 -0.43600
O 	O 	0.61290 0.55130 0.09250 -0.45700
O 	O 	0.61120 0.41220 0.14338 -0.44800
O 	O 	0.55130 0.93840 0.09250 -0.41800
O 	O 	0.41220 0.80100 0.14338 -0.43500
O 	O 	0.06160 0.61290 0.09250 -0.48400
O 	O 	0.19900 0.61120 0.14338 -0.45700
O 	O 	0.38710 0.44870 0.09250 -0.46400
O 	O 	0.38880 0.58780 0.14338 -0.44900
