data_crystal

_cell_length_a 15.16500
_cell_length_b 15.16500
_cell_length_c 15.71300
_cell_angle_alpha 90.00000
_cell_angle_beta  90.00000
_cell_angle_gamma 120.00000

_symmetry_space_group_name_	'P 1'
_symmetry_space_group_name_H-M	'P 1'

loop_
_symmetry_equiv_pos_as_xyz
  x,y,z

loop_
_atom_site_label
_atom_site_type_symbol
_atom_site_fract_x
_atom_site_fract_y
_atom_site_fract_z
_atom_site_charge
Er	Er	0.66667 0.33334 0.75000 1.67500
Er	Er	0.33333 0.66666 0.75000 1.69300
Er	Er	0.33333 0.66666 0.25000 1.68000
Er	Er	0.66667 0.33334 0.25000 1.66100
Fe	Fe	0.50000 0.00000 -0.00000 1.04300
Fe	Fe	0.50000 0.50000 -0.00000 1.09700
Fe	Fe	1.00000 0.50000 -0.00000 1.04400
Fe	Fe	0.50000 -0.00000 0.50000 1.12100
Fe	Fe	1.00000 0.50000 0.50000 1.12100
Fe	Fe	0.50000 0.50000 0.50000 1.17400
H 	H 	0.28850 0.05650 0.84560 0.05400
H 	H 	0.76800 0.71150 0.84560 0.07200
H 	H 	0.94350 0.23200 0.84560 0.04400
H 	H 	0.71150 0.94350 0.84560 0.09900
H 	H 	0.23200 0.28850 0.84560 0.08100
H 	H 	0.05650 0.76800 0.84560 0.10900
H 	H 	0.23200 0.94350 0.65440 0.08900
H 	H 	0.05650 0.28850 0.65440 0.07900
H 	H 	0.71150 0.76800 0.65440 0.06000
H 	H 	0.76800 0.05650 0.65440 0.02300
H 	H 	0.94350 0.71150 0.65440 0.03300
H 	H 	0.28850 0.23200 0.65440 0.05100
H 	H 	0.71150 0.94350 0.15440 0.05800
H 	H 	0.23200 0.28850 0.15440 0.03800
H 	H 	0.05650 0.76800 0.15440 0.06900
H 	H 	0.28850 0.05650 0.15440 0.01100
H 	H 	0.76800 0.71150 0.15440 0.02900
H 	H 	0.94350 0.23200 0.15440 0.00100
H 	H 	0.76800 0.05650 0.34560 0.01900
H 	H 	0.94350 0.71150 0.34560 0.02900
H 	H 	0.28850 0.23200 0.34560 0.04800
H 	H 	0.23200 0.94350 0.34560 0.08700
H 	H 	0.05650 0.28850 0.34560 0.07600
H 	H 	0.71150 0.76800 0.34560 0.05700
H 	H 	0.19990 0.09995 0.75000 0.03000
H 	H 	0.90005 0.80010 0.75000 0.03000
H 	H 	0.90005 0.09995 0.75000 -0.00100
H 	H 	0.80010 0.90005 0.75000 0.04500
H 	H 	0.09995 0.19990 0.75000 0.04500
H 	H 	0.09995 0.90005 0.75000 0.07500
H 	H 	0.80010 0.90005 0.25000 0.04000
H 	H 	0.09995 0.19990 0.25000 0.04000
H 	H 	0.09995 0.90005 0.25000 0.07200
H 	H 	0.19990 0.09995 0.25000 0.02500
H 	H 	0.90005 0.80010 0.25000 0.02500
H 	H 	0.90005 0.09995 0.25000 -0.00700
C 	C 	0.32290 0.10890 0.80660 -0.04600
C 	C 	0.42730 0.16240 0.80360 -0.01700
C 	C 	0.49340 0.14000 0.86070 0.33900
C 	C 	0.78600 0.67710 0.80660 -0.04500
C 	C 	0.73510 0.57270 0.80360 -0.00900
C 	C 	0.64660 0.50660 0.86070 0.33800
C 	C 	0.89110 0.21400 0.80660 -0.05300
C 	C 	0.83760 0.26490 0.80360 -0.02300
C 	C 	0.86000 0.35340 0.86070 0.33800
C 	C 	0.67710 0.89110 0.80660 -0.04700
C 	C 	0.57270 0.83760 0.80360 0.01500
C 	C 	0.50660 0.86000 0.86070 0.33500
C 	C 	0.21400 0.32290 0.80660 -0.04700
C 	C 	0.26490 0.42730 0.80360 0.00500
C 	C 	0.35340 0.49340 0.86070 0.34000
C 	C 	0.10890 0.78600 0.80660 -0.04100
C 	C 	0.16240 0.73510 0.80360 0.02200
C 	C 	0.14000 0.64660 0.86070 0.33600
C 	C 	0.21400 0.89110 0.69340 -0.03900
C 	C 	0.26490 0.83760 0.69640 0.00800
C 	C 	0.35340 0.86000 0.63930 0.34200
C 	C 	0.10890 0.32290 0.69340 -0.04600
C 	C 	0.16240 0.42730 0.69640 0.00100
C 	C 	0.14000 0.49340 0.63930 0.34100
C 	C 	0.67710 0.78600 0.69340 -0.04500
C 	C 	0.57270 0.73510 0.69640 -0.00900
C 	C 	0.50660 0.64660 0.63930 0.34700
C 	C 	0.78600 0.10890 0.69340 -0.05100
C 	C 	0.73510 0.16240 0.69640 -0.03800
C 	C 	0.64660 0.14000 0.63930 0.34500
C 	C 	0.89110 0.67710 0.69340 -0.04400
C 	C 	0.83760 0.57270 0.69640 -0.03100
C 	C 	0.86000 0.50660 0.63930 0.34600
C 	C 	0.32290 0.21400 0.69340 -0.04300
C 	C 	0.42730 0.26490 0.69640 -0.02300
C 	C 	0.49340 0.35340 0.63930 0.34500
C 	C 	0.67710 0.89110 0.19340 -0.03500
C 	C 	0.57270 0.83760 0.19640 -0.01700
C 	C 	0.50660 0.86000 0.13930 0.34200
C 	C 	0.21400 0.32290 0.19340 -0.03500
C 	C 	0.26490 0.42730 0.19640 -0.02700
C 	C 	0.35340 0.49340 0.13930 0.34800
C 	C 	0.10890 0.78600 0.19340 -0.02900
C 	C 	0.16240 0.73510 0.19640 -0.00900
C 	C 	0.14000 0.64660 0.13930 0.34400
C 	C 	0.32290 0.10890 0.19340 -0.03400
C 	C 	0.42730 0.16240 0.19640 -0.05000
C 	C 	0.49340 0.14000 0.13930 0.34700
C 	C 	0.78600 0.67710 0.19340 -0.03300
C 	C 	0.73510 0.57270 0.19640 -0.04200
C 	C 	0.64660 0.50660 0.13930 0.34600
C 	C 	0.89110 0.21400 0.19340 -0.04100
C 	C 	0.83760 0.26490 0.19640 -0.05600
C 	C 	0.86000 0.35340 0.13930 0.34600
C 	C 	0.78600 0.10890 0.30660 -0.04200
C 	C 	0.73510 0.16240 0.30360 -0.04600
C 	C 	0.64660 0.14000 0.36070 0.34600
C 	C 	0.89110 0.67710 0.30660 -0.03500
C 	C 	0.83760 0.57270 0.30360 -0.03900
C 	C 	0.86000 0.50660 0.36070 0.34700
C 	C 	0.32290 0.21400 0.30660 -0.03400
C 	C 	0.42730 0.26490 0.30360 -0.03100
C 	C 	0.49340 0.35340 0.36070 0.34600
C 	C 	0.21400 0.89110 0.30660 -0.03000
C 	C 	0.26490 0.83760 0.30360 0.00100
C 	C 	0.35340 0.86000 0.36070 0.34400
C 	C 	0.10890 0.32290 0.30660 -0.03600
C 	C 	0.16240 0.42730 0.30360 -0.00700
C 	C 	0.14000 0.49340 0.36070 0.34200
C 	C 	0.67710 0.78600 0.30660 -0.03600
C 	C 	0.57270 0.73510 0.30360 -0.01600
C 	C 	0.50660 0.64660 0.36070 0.34800
C 	C 	0.27070 0.13535 0.75000 -0.03500
C 	C 	0.86465 0.72930 0.75000 -0.03500
C 	C 	0.86465 0.13535 0.75000 -0.04700
C 	C 	0.72930 0.86465 0.75000 -0.00000
C 	C 	0.13535 0.27070 0.75000 -0.00000
C 	C 	0.13535 0.86465 0.75000 0.01300
C 	C 	0.72930 0.86465 0.25000 -0.02200
C 	C 	0.13535 0.27070 0.25000 -0.02200
C 	C 	0.13535 0.86465 0.25000 -0.00800
C 	C 	0.27070 0.13535 0.25000 -0.05800
C 	C 	0.86465 0.72930 0.25000 -0.05800
C 	C 	0.86465 0.13535 0.25000 -0.07000
N 	N 	0.47910 0.23955 0.75000 -0.17900
N 	N 	0.76045 0.52090 0.75000 -0.17900
N 	N 	0.76045 0.23955 0.75000 -0.17900
N 	N 	0.52090 0.76045 0.75000 -0.18100
N 	N 	0.23955 0.47910 0.75000 -0.18100
N 	N 	0.23955 0.76045 0.75000 -0.18100
N 	N 	0.52090 0.76045 0.25000 -0.17700
N 	N 	0.23955 0.47910 0.25000 -0.17700
N 	N 	0.23955 0.76045 0.25000 -0.17700
N 	N 	0.47910 0.23955 0.25000 -0.17400
N 	N 	0.76045 0.52090 0.25000 -0.17400
N 	N 	0.76045 0.23955 0.25000 -0.17500
O 	O 	0.58930 0.19970 0.85550 -0.39100
O 	O 	0.44920 0.06490 0.90880 -0.37700
O 	O 	0.61040 0.41070 0.85550 -0.38100
O 	O 	0.61570 0.55080 0.90880 -0.35100
O 	O 	0.80030 0.38960 0.85550 -0.39200
O 	O 	0.93510 0.38430 0.90880 -0.38100
O 	O 	0.41070 0.80030 0.85550 -0.36700
O 	O 	0.55080 0.93510 0.90880 -0.30300
O 	O 	0.38960 0.58930 0.85550 -0.38200
O 	O 	0.38430 0.44920 0.90880 -0.34700
O 	O 	0.19970 0.61040 0.85550 -0.36600
O 	O 	0.06490 0.61570 0.90880 -0.30000
O 	O 	0.38960 0.80030 0.64450 -0.39600
O 	O 	0.38430 0.93510 0.59120 -0.36300
O 	O 	0.19970 0.58930 0.64450 -0.39700
O 	O 	0.06490 0.44920 0.59120 -0.36700
O 	O 	0.41070 0.61040 0.64450 -0.41100
O 	O 	0.55080 0.61570 0.59120 -0.41300
O 	O 	0.61040 0.19970 0.64450 -0.42300
O 	O 	0.61570 0.06490 0.59120 -0.44800
O 	O 	0.80030 0.41070 0.64450 -0.42200
O 	O 	0.93510 0.55080 0.59120 -0.44400
O 	O 	0.58930 0.38960 0.64450 -0.41200
O 	O 	0.44920 0.38430 0.59120 -0.41700
O 	O 	0.41070 0.80030 0.14450 -0.41600
O 	O 	0.55080 0.93510 0.09120 -0.40100
O 	O 	0.38960 0.58930 0.14450 -0.43100
O 	O 	0.38430 0.44920 0.09120 -0.44900
O 	O 	0.19970 0.61040 0.14450 -0.41500
O 	O 	0.06490 0.61570 0.09120 -0.39700
O 	O 	0.58930 0.19970 0.14450 -0.44200
O 	O 	0.44920 0.06490 0.09120 -0.48000
O 	O 	0.61040 0.41070 0.14450 -0.43200
O 	O 	0.61570 0.55080 0.09120 -0.45400
O 	O 	0.80030 0.38960 0.14450 -0.44300
O 	O 	0.93510 0.38430 0.09120 -0.48400
O 	O 	0.61040 0.19970 0.35550 -0.42100
O 	O 	0.61570 0.06490 0.40880 -0.44900
O 	O 	0.80030 0.41070 0.35550 -0.42100
O 	O 	0.93510 0.55080 0.40880 -0.44500
O 	O 	0.58930 0.38960 0.35550 -0.41000
O 	O 	0.44920 0.38430 0.40880 -0.41800
O 	O 	0.38960 0.80030 0.35550 -0.39400
O 	O 	0.38430 0.93510 0.40880 -0.36200
O 	O 	0.19970 0.58930 0.35550 -0.39500
O 	O 	0.06490 0.44920 0.40880 -0.36700
O 	O 	0.41070 0.61040 0.35550 -0.41000
O 	O 	0.55080 0.61570 0.40880 -0.41400
