data_crystal

_cell_length_a 15.01440
_cell_length_b 15.01440
_cell_length_c 15.61650
_cell_angle_alpha 90.00000
_cell_angle_beta  90.00000
_cell_angle_gamma 120.00000

_symmetry_space_group_name_	'P 1'
_symmetry_space_group_name_H-M	'P 1'

loop_
_symmetry_equiv_pos_as_xyz
  x,y,z

loop_
_atom_site_label
_atom_site_type_symbol
_atom_site_fract_x
_atom_site_fract_y
_atom_site_fract_z
_atom_site_charge
Yb	Yb	0.66667 0.33334 0.25000 1.53500
Yb	Yb	0.33333 0.66666 0.25000 1.53800
Yb	Yb	0.33333 0.66666 0.75000 1.54000
Yb	Yb	0.66667 0.33334 0.75000 1.53700
Co	Co	0.50000 0.00000 0.50000 1.12300
Co	Co	0.50000 0.50000 0.50000 1.16900
Co	Co	1.00000 0.50000 0.50000 1.12300
Co	Co	0.50000 0.00000 -0.00000 1.05600
Co	Co	1.00000 0.50000 -0.00000 1.05700
Co	Co	0.50000 0.50000 -0.00000 1.10200
H 	H 	0.76780 0.05500 0.34680 0.01900
H 	H 	0.28720 0.23220 0.34680 0.04800
H 	H 	0.94500 0.71280 0.34680 0.02900
H 	H 	0.23220 0.94500 0.34680 0.08700
H 	H 	0.71280 0.76780 0.34680 0.05700
H 	H 	0.05500 0.28720 0.34680 0.07600
H 	H 	0.71280 0.94500 0.15320 0.05700
H 	H 	0.05500 0.76780 0.15320 0.06900
H 	H 	0.23220 0.28720 0.15320 0.03700
H 	H 	0.28720 0.05500 0.15320 0.01000
H 	H 	0.94500 0.23220 0.15320 -0.00000
H 	H 	0.76780 0.71280 0.15320 0.02800
H 	H 	0.23220 0.94500 0.65320 0.08900
H 	H 	0.71280 0.76780 0.65320 0.06000
H 	H 	0.05500 0.28720 0.65320 0.07900
H 	H 	0.76780 0.05500 0.65320 0.02200
H 	H 	0.28720 0.23220 0.65320 0.05100
H 	H 	0.94500 0.71280 0.65320 0.03300
H 	H 	0.28720 0.05500 0.84680 0.05400
H 	H 	0.94500 0.23220 0.84680 0.04400
H 	H 	0.76780 0.71280 0.84680 0.07200
H 	H 	0.71280 0.94500 0.84680 0.09900
H 	H 	0.05500 0.76780 0.84680 0.10900
H 	H 	0.23220 0.28720 0.84680 0.08100
H 	H 	0.90160 0.09840 0.25000 -0.00600
H 	H 	0.19680 0.09840 0.25000 0.02700
H 	H 	0.90160 0.80320 0.25000 0.02700
H 	H 	0.09840 0.90160 0.25000 0.07600
H 	H 	0.80320 0.90160 0.25000 0.04300
H 	H 	0.09840 0.19680 0.25000 0.04300
H 	H 	0.09840 0.90160 0.75000 0.07900
H 	H 	0.80320 0.90160 0.75000 0.04800
H 	H 	0.09840 0.19680 0.75000 0.04800
H 	H 	0.90160 0.09840 0.75000 0.00000
H 	H 	0.19680 0.09840 0.75000 0.03300
H 	H 	0.90160 0.80320 0.75000 0.03300
C 	C 	0.78580 0.10760 0.30730 -0.03200
C 	C 	0.73400 0.16160 0.30390 -0.05100
C 	C 	0.64440 0.13850 0.36130 0.34400
C 	C 	0.32180 0.21420 0.30730 -0.02500
C 	C 	0.42760 0.26600 0.30390 -0.03600
C 	C 	0.49410 0.35560 0.36130 0.34300
C 	C 	0.89240 0.67820 0.30730 -0.02600
C 	C 	0.83840 0.57240 0.30390 -0.04500
C 	C 	0.86150 0.50590 0.36130 0.34500
C 	C 	0.21420 0.89240 0.30730 -0.01900
C 	C 	0.26600 0.83840 0.30390 -0.00400
C 	C 	0.35560 0.86150 0.36130 0.34000
C 	C 	0.67820 0.78580 0.30730 -0.02500
C 	C 	0.57240 0.73400 0.30390 -0.02100
C 	C 	0.50590 0.64440 0.36130 0.34500
C 	C 	0.10760 0.32180 0.30730 -0.02500
C 	C 	0.16160 0.42760 0.30390 -0.01100
C 	C 	0.13850 0.49410 0.36130 0.33900
C 	C 	0.67820 0.89240 0.19270 -0.02500
C 	C 	0.57240 0.83840 0.19610 -0.02200
C 	C 	0.50590 0.86150 0.13870 0.33900
C 	C 	0.10760 0.78580 0.19270 -0.01900
C 	C 	0.16160 0.73400 0.19610 -0.01500
C 	C 	0.13850 0.64440 0.13870 0.34000
C 	C 	0.21420 0.32180 0.19270 -0.02400
C 	C 	0.26600 0.42760 0.19610 -0.03300
C 	C 	0.35560 0.49410 0.13870 0.34500
C 	C 	0.32180 0.10760 0.19270 -0.02500
C 	C 	0.42760 0.16160 0.19610 -0.05600
C 	C 	0.49410 0.13850 0.13870 0.34500
C 	C 	0.89240 0.21420 0.19270 -0.03200
C 	C 	0.83840 0.26600 0.19610 -0.06200
C 	C 	0.86150 0.35560 0.13870 0.34400
C 	C 	0.78580 0.67820 0.19270 -0.02400
C 	C 	0.73400 0.57240 0.19610 -0.04800
C 	C 	0.64440 0.50590 0.13870 0.34400
C 	C 	0.21420 0.89240 0.69270 -0.02800
C 	C 	0.26600 0.83840 0.69610 0.00300
C 	C 	0.35560 0.86150 0.63870 0.33800
C 	C 	0.67820 0.78580 0.69270 -0.03400
C 	C 	0.57240 0.73400 0.69610 -0.01400
C 	C 	0.50590 0.64440 0.63870 0.34300
C 	C 	0.10760 0.32180 0.69270 -0.03500
C 	C 	0.16160 0.42760 0.69610 -0.00400
C 	C 	0.13850 0.49410 0.63870 0.33700
C 	C 	0.78580 0.10760 0.69270 -0.04100
C 	C 	0.73400 0.16160 0.69610 -0.04300
C 	C 	0.64440 0.13850 0.63870 0.34200
C 	C 	0.32180 0.21420 0.69270 -0.03400
C 	C 	0.42760 0.26600 0.69610 -0.02800
C 	C 	0.49410 0.35560 0.63870 0.34200
C 	C 	0.89240 0.67820 0.69270 -0.03400
C 	C 	0.83840 0.57240 0.69610 -0.03700
C 	C 	0.86150 0.50590 0.63870 0.34300
C 	C 	0.32180 0.10760 0.80730 -0.03600
C 	C 	0.42760 0.16160 0.80390 -0.02200
C 	C 	0.49410 0.13850 0.86130 0.33600
C 	C 	0.89240 0.21420 0.80730 -0.04300
C 	C 	0.83840 0.26600 0.80390 -0.02800
C 	C 	0.86150 0.35560 0.86130 0.33500
C 	C 	0.78580 0.67820 0.80730 -0.03600
C 	C 	0.73400 0.57240 0.80390 -0.01400
C 	C 	0.64440 0.50590 0.86130 0.33500
C 	C 	0.67820 0.89240 0.80730 -0.03600
C 	C 	0.57240 0.83840 0.80390 0.01000
C 	C 	0.50590 0.86150 0.86130 0.33100
C 	C 	0.10760 0.78580 0.80730 -0.03000
C 	C 	0.16160 0.73400 0.80390 0.01700
C 	C 	0.13850 0.64440 0.86130 0.33200
C 	C 	0.21420 0.32180 0.80730 -0.03600
C 	C 	0.26600 0.42760 0.80390 0.00100
C 	C 	0.35560 0.49410 0.86130 0.33600
C 	C 	0.86580 0.13420 0.25000 -0.07600
C 	C 	0.26840 0.13420 0.25000 -0.06300
C 	C 	0.86580 0.73160 0.25000 -0.06300
C 	C 	0.13420 0.86580 0.25000 -0.01300
C 	C 	0.73160 0.86580 0.25000 -0.02700
C 	C 	0.13420 0.26840 0.25000 -0.02700
C 	C 	0.13420 0.86580 0.75000 0.00800
C 	C 	0.73160 0.86580 0.75000 -0.00600
C 	C 	0.13420 0.26840 0.75000 -0.00500
C 	C 	0.86580 0.13420 0.75000 -0.05300
C 	C 	0.26840 0.13420 0.75000 -0.04100
C 	C 	0.86580 0.73160 0.75000 -0.04100
N 	N 	0.76000 0.24000 0.25000 -0.16800
N 	N 	0.48000 0.24000 0.25000 -0.16700
N 	N 	0.76000 0.52000 0.25000 -0.16700
N 	N 	0.24000 0.76000 0.25000 -0.16900
N 	N 	0.52000 0.76000 0.25000 -0.16900
N 	N 	0.24000 0.48000 0.25000 -0.16900
N 	N 	0.24000 0.76000 0.75000 -0.17300
N 	N 	0.52000 0.76000 0.75000 -0.17300
N 	N 	0.24000 0.48000 0.75000 -0.17300
N 	N 	0.76000 0.24000 0.75000 -0.17100
N 	N 	0.48000 0.24000 0.75000 -0.17100
N 	N 	0.76000 0.52000 0.75000 -0.17100
O 	O 	0.60920 0.19960 0.35540 -0.40400
O 	O 	0.61300 0.06250 0.40840 -0.45100
O 	O 	0.59040 0.39080 0.35540 -0.39200
O 	O 	0.44950 0.38700 0.40840 -0.41800
O 	O 	0.80040 0.40960 0.35540 -0.40300
O 	O 	0.93750 0.55050 0.40840 -0.44700
O 	O 	0.39080 0.80040 0.35540 -0.37400
O 	O 	0.38700 0.93750 0.40840 -0.36200
O 	O 	0.40960 0.60920 0.35540 -0.39000
O 	O 	0.55050 0.61300 0.40840 -0.41300
O 	O 	0.19960 0.59040 0.35540 -0.37500
O 	O 	0.06250 0.44950 0.40840 -0.36600
O 	O 	0.40960 0.80040 0.14460 -0.39700
O 	O 	0.55050 0.93750 0.09160 -0.40300
O 	O 	0.19960 0.60920 0.14460 -0.39600
O 	O 	0.06250 0.61300 0.09160 -0.39800
O 	O 	0.39080 0.59040 0.14460 -0.41300
O 	O 	0.38700 0.44950 0.09160 -0.45100
O 	O 	0.59040 0.19960 0.14460 -0.42600
O 	O 	0.44950 0.06250 0.09160 -0.48500
O 	O 	0.80040 0.39080 0.14460 -0.42700
O 	O 	0.93750 0.38700 0.09160 -0.48900
O 	O 	0.60920 0.40960 0.14460 -0.41500
O 	O 	0.61300 0.55050 0.09160 -0.45600
O 	O 	0.39080 0.80040 0.64460 -0.37500
O 	O 	0.38700 0.93750 0.59160 -0.36200
O 	O 	0.40960 0.60920 0.64460 -0.39000
O 	O 	0.55050 0.61300 0.59160 -0.41300
O 	O 	0.19960 0.59040 0.64460 -0.37500
O 	O 	0.06250 0.44950 0.59160 -0.36600
O 	O 	0.60920 0.19960 0.64460 -0.40400
O 	O 	0.61300 0.06250 0.59160 -0.45000
O 	O 	0.59040 0.39080 0.64460 -0.39300
O 	O 	0.44950 0.38700 0.59160 -0.41700
O 	O 	0.80040 0.40960 0.64460 -0.40300
O 	O 	0.93750 0.55050 0.59160 -0.44600
O 	O 	0.59040 0.19960 0.85540 -0.37300
O 	O 	0.44950 0.06250 0.90840 -0.38000
O 	O 	0.80040 0.39080 0.85540 -0.37300
O 	O 	0.93750 0.38700 0.90840 -0.38400
O 	O 	0.60920 0.40960 0.85540 -0.36200
O 	O 	0.61300 0.55050 0.90840 -0.35100
O 	O 	0.40960 0.80040 0.85540 -0.34600
O 	O 	0.55050 0.93750 0.90840 -0.30300
O 	O 	0.19960 0.60920 0.85540 -0.34500
O 	O 	0.06250 0.61300 0.90840 -0.30000
O 	O 	0.39080 0.59040 0.85540 -0.36000
O 	O 	0.38700 0.44950 0.90840 -0.34700
