data_crystal

_cell_length_a 15.18700
_cell_length_b 15.18700
_cell_length_c 15.61600
_cell_angle_alpha 90.00000
_cell_angle_beta  90.00000
_cell_angle_gamma 120.00000

_symmetry_space_group_name_	'P 1'
_symmetry_space_group_name_H-M	'P 1'

loop_
_symmetry_equiv_pos_as_xyz
  x,y,z

loop_
_atom_site_label
_atom_site_type_symbol
_atom_site_fract_x
_atom_site_fract_y
_atom_site_fract_z
_atom_site_charge
Ho	Ho	0.66667 0.33334 0.25000 1.73600
Ho	Ho	0.33333 0.66666 0.25000 1.75600
Ho	Ho	0.33333 0.66666 0.75000 1.76000
Ho	Ho	0.66667 0.33334 0.75000 1.74100
Fe	Fe	0.50000 0.50000 0.50000 1.17800
Fe	Fe	1.00000 0.50000 0.50000 1.12300
Fe	Fe	0.50000 0.00000 0.50000 1.12300
Fe	Fe	1.00000 0.50000 -0.00000 1.09900
Fe	Fe	0.50000 0.50000 1.00000 1.20200
Fe	Fe	0.50000 0.00000 -0.00000 1.09900
H 	H 	0.28930 0.23370 0.34470 0.04400
H 	H 	0.94440 0.71070 0.34470 0.02400
H 	H 	0.76630 0.05560 0.34470 0.01400
H 	H 	0.71070 0.76630 0.34470 0.05300
H 	H 	0.05560 0.28930 0.34470 0.07300
H 	H 	0.23370 0.94440 0.34470 0.08400
H 	H 	0.05560 0.76630 0.15530 0.07900
H 	H 	0.23370 0.28930 0.15530 0.04700
H 	H 	0.71070 0.94440 0.15530 0.06800
H 	H 	0.94440 0.23370 0.15530 0.00800
H 	H 	0.76630 0.71070 0.15530 0.03800
H 	H 	0.28930 0.05560 0.15530 0.01900
H 	H 	0.71070 0.76630 0.65530 0.05400
H 	H 	0.05560 0.28930 0.65530 0.07300
H 	H 	0.23370 0.94440 0.65530 0.08400
H 	H 	0.28930 0.23370 0.65530 0.04500
H 	H 	0.94440 0.71070 0.65530 0.02600
H 	H 	0.76630 0.05560 0.65530 0.01600
H 	H 	0.94440 0.23370 0.84470 0.02300
H 	H 	0.76630 0.71070 0.84470 0.05100
H 	H 	0.28930 0.05560 0.84470 0.03300
H 	H 	0.05560 0.76630 0.84470 0.08900
H 	H 	0.23370 0.28930 0.84470 0.06000
H 	H 	0.71070 0.94440 0.84470 0.07900
H 	H 	0.19920 0.09960 0.25000 0.03200
H 	H 	0.90040 0.80080 0.25000 0.03200
H 	H 	0.90040 0.09960 0.25000 -0.00100
H 	H 	0.80080 0.90040 0.25000 0.04700
H 	H 	0.09960 0.19920 0.25000 0.04700
H 	H 	0.09960 0.90040 0.25000 0.08000
H 	H 	0.80080 0.90040 0.75000 0.04900
H 	H 	0.09960 0.19920 0.75000 0.04900
H 	H 	0.09960 0.90040 0.75000 0.08000
H 	H 	0.19920 0.09960 0.75000 0.03400
H 	H 	0.90040 0.80080 0.75000 0.03400
H 	H 	0.90040 0.09960 0.75000 0.00200
C 	C 	0.49370 0.35410 0.36100 0.36800
C 	C 	0.42770 0.26620 0.30390 -0.04300
C 	C 	0.32360 0.21500 0.30610 -0.02200
C 	C 	0.86040 0.50630 0.36100 0.36900
C 	C 	0.83850 0.57230 0.30390 -0.05200
C 	C 	0.89140 0.67640 0.30610 -0.02200
C 	C 	0.64590 0.13960 0.36100 0.36800
C 	C 	0.73380 0.16150 0.30390 -0.05800
C 	C 	0.78500 0.10860 0.30610 -0.02900
C 	C 	0.50630 0.64590 0.36100 0.36900
C 	C 	0.57230 0.73380 0.30390 -0.02800
C 	C 	0.67640 0.78500 0.30610 -0.02400
C 	C 	0.13960 0.49370 0.36100 0.36300
C 	C 	0.16150 0.42770 0.30390 -0.01700
C 	C 	0.10860 0.32360 0.30610 -0.02400
C 	C 	0.35410 0.86040 0.36100 0.36400
C 	C 	0.26620 0.83850 0.30390 -0.00900
C 	C 	0.21500 0.89140 0.30610 -0.01900
C 	C 	0.13960 0.64590 0.13900 0.36400
C 	C 	0.16150 0.73380 0.19610 -0.01200
C 	C 	0.10860 0.78500 0.19390 -0.01800
C 	C 	0.35410 0.49370 0.13900 0.37200
C 	C 	0.26620 0.42770 0.19610 -0.03200
C 	C 	0.21500 0.32360 0.19390 -0.02300
C 	C 	0.50630 0.86040 0.13900 0.36300
C 	C 	0.57230 0.83850 0.19610 -0.02100
C 	C 	0.67640 0.89140 0.19390 -0.02400
C 	C 	0.86040 0.35410 0.13900 0.36800
C 	C 	0.83850 0.26620 0.19610 -0.06200
C 	C 	0.89140 0.21500 0.19390 -0.02800
C 	C 	0.64590 0.50630 0.13900 0.37000
C 	C 	0.73380 0.57230 0.19610 -0.04700
C 	C 	0.78500 0.67640 0.19390 -0.02100
C 	C 	0.49370 0.13960 0.13900 0.36900
C 	C 	0.42770 0.16150 0.19610 -0.05500
C 	C 	0.32360 0.10860 0.19390 -0.02200
C 	C 	0.50630 0.64590 0.63900 0.36900
C 	C 	0.57230 0.73380 0.69610 -0.02600
C 	C 	0.67640 0.78500 0.69390 -0.02600
C 	C 	0.13960 0.49370 0.63900 0.36200
C 	C 	0.16150 0.42770 0.69610 -0.01500
C 	C 	0.10860 0.32360 0.69390 -0.02700
C 	C 	0.35410 0.86040 0.63900 0.36300
C 	C 	0.26620 0.83850 0.69610 -0.00800
C 	C 	0.21500 0.89140 0.69390 -0.02100
C 	C 	0.49370 0.35410 0.63900 0.36700
C 	C 	0.42770 0.26620 0.69610 -0.04100
C 	C 	0.32360 0.21500 0.69390 -0.02500
C 	C 	0.86040 0.50630 0.63900 0.36900
C 	C 	0.83850 0.57230 0.69610 -0.04900
C 	C 	0.89140 0.67640 0.69390 -0.02400
C 	C 	0.64590 0.13960 0.63900 0.36800
C 	C 	0.73380 0.16150 0.69610 -0.05500
C 	C 	0.78500 0.10860 0.69390 -0.03100
C 	C 	0.86040 0.35410 0.86100 0.36500
C 	C 	0.83850 0.26620 0.80390 -0.05000
C 	C 	0.89140 0.21500 0.80610 -0.03200
C 	C 	0.64590 0.50630 0.86100 0.36800
C 	C 	0.73380 0.57230 0.80390 -0.03700
C 	C 	0.78500 0.67640 0.80610 -0.02400
C 	C 	0.49370 0.13960 0.86100 0.36600
C 	C 	0.42770 0.16150 0.80390 -0.04400
C 	C 	0.32360 0.10860 0.80610 -0.02600
C 	C 	0.13960 0.64590 0.86100 0.36100
C 	C 	0.16150 0.73380 0.80390 -0.00400
C 	C 	0.10860 0.78500 0.80610 -0.02200
C 	C 	0.35410 0.49370 0.86100 0.36900
C 	C 	0.26620 0.42770 0.80390 -0.02200
C 	C 	0.21500 0.32360 0.80610 -0.02600
C 	C 	0.50630 0.86040 0.86100 0.36000
C 	C 	0.57230 0.83850 0.80390 -0.01100
C 	C 	0.67640 0.89140 0.80610 -0.02800
C 	C 	0.26980 0.13490 0.25000 -0.06700
C 	C 	0.86510 0.73020 0.25000 -0.06800
C 	C 	0.86510 0.13490 0.25000 -0.08100
C 	C 	0.73020 0.86510 0.25000 -0.02900
C 	C 	0.13490 0.26980 0.25000 -0.03000
C 	C 	0.13490 0.86510 0.25000 -0.01400
C 	C 	0.73020 0.86510 0.75000 -0.02300
C 	C 	0.13490 0.26980 0.75000 -0.02400
C 	C 	0.13490 0.86510 0.75000 -0.00900
C 	C 	0.26980 0.13490 0.75000 -0.06000
C 	C 	0.86510 0.73020 0.75000 -0.06100
C 	C 	0.86510 0.13490 0.75000 -0.07300
N 	N 	0.47938 0.23969 0.25000 -0.17500
N 	N 	0.76031 0.52062 0.25000 -0.17400
N 	N 	0.76031 0.23969 0.25000 -0.17500
N 	N 	0.52062 0.76031 0.25000 -0.17700
N 	N 	0.23969 0.47938 0.25000 -0.17700
N 	N 	0.23969 0.76031 0.25000 -0.17700
N 	N 	0.52062 0.76031 0.75000 -0.17800
N 	N 	0.23969 0.47938 0.75000 -0.17800
N 	N 	0.23969 0.76031 0.75000 -0.17900
N 	N 	0.47938 0.23969 0.75000 -0.17600
N 	N 	0.76031 0.52062 0.75000 -0.17600
N 	N 	0.76031 0.23969 0.75000 -0.17600
O 	O 	0.58810 0.38830 0.35573 -0.42800
O 	O 	0.44950 0.38510 0.40840 -0.42700
O 	O 	0.80020 0.41190 0.35573 -0.43900
O 	O 	0.93560 0.55050 0.40840 -0.45500
O 	O 	0.61170 0.19980 0.35573 -0.43900
O 	O 	0.61490 0.06440 0.40840 -0.45900
O 	O 	0.41190 0.61170 0.35573 -0.42800
O 	O 	0.55050 0.61490 0.40840 -0.42300
O 	O 	0.19980 0.58810 0.35573 -0.41200
O 	O 	0.06440 0.44950 0.40840 -0.37400
O 	O 	0.38830 0.80020 0.35573 -0.41100
O 	O 	0.38510 0.93560 0.40840 -0.37000
O 	O 	0.19980 0.61170 0.14427 -0.41700
O 	O 	0.06440 0.61490 0.09160 -0.38000
O 	O 	0.38830 0.58810 0.14427 -0.43700
O 	O 	0.38510 0.44950 0.09160 -0.44300
O 	O 	0.41190 0.80020 0.14427 -0.41900
O 	O 	0.55050 0.93560 0.09160 -0.38400
O 	O 	0.80020 0.38830 0.14427 -0.44600
O 	O 	0.93560 0.38510 0.09160 -0.47000
O 	O 	0.61170 0.41190 0.14427 -0.43700
O 	O 	0.61490 0.55050 0.09160 -0.44700
O 	O 	0.58810 0.19980 0.14427 -0.44500
O 	O 	0.44950 0.06440 0.09160 -0.46600
O 	O 	0.41190 0.61170 0.64427 -0.42800
O 	O 	0.55050 0.61490 0.59160 -0.42300
O 	O 	0.19980 0.58810 0.64427 -0.41300
O 	O 	0.06440 0.44950 0.59160 -0.37500
O 	O 	0.38830 0.80020 0.64427 -0.41200
O 	O 	0.38510 0.93560 0.59160 -0.37000
O 	O 	0.58810 0.38830 0.64427 -0.42900
O 	O 	0.44950 0.38510 0.59160 -0.42700
O 	O 	0.80020 0.41190 0.64427 -0.43900
O 	O 	0.93560 0.55050 0.59160 -0.45400
O 	O 	0.61170 0.19980 0.64427 -0.44000
O 	O 	0.61490 0.06440 0.59160 -0.45900
O 	O 	0.80020 0.38830 0.85573 -0.43000
O 	O 	0.93560 0.38510 0.90840 -0.43600
O 	O 	0.61170 0.41190 0.85573 -0.42100
O 	O 	0.61490 0.55050 0.90840 -0.41500
O 	O 	0.58810 0.19980 0.85573 -0.42900
O 	O 	0.44950 0.06440 0.90840 -0.43300
O 	O 	0.19980 0.61170 0.85573 -0.40300
O 	O 	0.06440 0.61490 0.90840 -0.35200
O 	O 	0.38830 0.58810 0.85573 -0.42100
O 	O 	0.38510 0.44950 0.90840 -0.41200
O 	O 	0.41190 0.80020 0.85573 -0.40400
O 	O 	0.55050 0.93560 0.90840 -0.35600
