data_crystal

_cell_length_a 15.23480
_cell_length_b 15.49970
_cell_length_c 15.49970
_cell_angle_alpha 120.00000
_cell_angle_beta  90.00000
_cell_angle_gamma 90.00000

_symmetry_space_group_name_	'P 1'
_symmetry_space_group_name_H-M	'P 1'

loop_
_symmetry_equiv_pos_as_xyz
  x,y,z

loop_
_atom_site_label
_atom_site_type_symbol
_atom_site_fract_x
_atom_site_fract_y
_atom_site_fract_z
_atom_site_charge
Pr	Pr	0.25000 0.33333 0.66666 2.06800
Pr	Pr	0.25000 0.66667 0.33334 2.06700
Pr	Pr	0.75000 0.66667 0.33334 2.07000
Pr	Pr	0.75000 0.33333 0.66666 2.07000
Co	Co	0.50000 0.00000 0.50000 1.12600
Co	Co	0.50000 0.50000 -0.00000 1.12600
Co	Co	0.50000 0.50000 0.50000 1.16300
Co	Co	-0.00000 0.50000 0.50000 1.09700
Co	Co	-0.00000 0.50000 -0.00000 1.06100
Co	Co	-0.00000 0.00000 0.50000 1.06100
H 	H 	0.34430 0.05350 0.76650 0.03100
H 	H 	0.34430 0.71300 0.94650 0.07100
H 	H 	0.34430 0.23350 0.28700 0.03800
H 	H 	0.34430 0.94650 0.23350 0.06300
H 	H 	0.34430 0.28700 0.05350 0.02300
H 	H 	0.34430 0.76650 0.71300 0.05500
H 	H 	0.15570 0.28700 0.23350 0.01900
H 	H 	0.15570 0.76650 0.05350 0.01300
H 	H 	0.15570 0.94650 0.71300 0.05200
H 	H 	0.15570 0.71300 0.76650 0.03600
H 	H 	0.15570 0.23350 0.94650 0.04500
H 	H 	0.15570 0.05350 0.28700 0.00400
H 	H 	0.65570 0.94650 0.23350 0.06600
H 	H 	0.65570 0.28700 0.05350 0.02700
H 	H 	0.65570 0.76650 0.71300 0.05800
H 	H 	0.65570 0.05350 0.76650 0.03500
H 	H 	0.65570 0.71300 0.94650 0.07400
H 	H 	0.65570 0.23350 0.28700 0.04200
H 	H 	0.84430 0.71300 0.76650 0.07900
H 	H 	0.84430 0.23350 0.94650 0.08600
H 	H 	0.84430 0.05350 0.28700 0.04800
H 	H 	0.84430 0.28700 0.23350 0.06300
H 	H 	0.84430 0.76650 0.05350 0.05500
H 	H 	0.84430 0.94650 0.71300 0.09400
H 	H 	0.25000 0.10040 0.89960 0.03900
H 	H 	0.25000 0.79920 0.89960 0.06500
H 	H 	0.25000 0.10040 0.20080 0.01300
H 	H 	0.25000 0.89960 0.10040 0.03900
H 	H 	0.25000 0.20080 0.10040 0.01300
H 	H 	0.25000 0.89960 0.79920 0.06500
H 	H 	0.75000 0.89960 0.10040 0.04400
H 	H 	0.75000 0.20080 0.10040 0.02000
H 	H 	0.75000 0.89960 0.79920 0.07000
H 	H 	0.75000 0.10040 0.89960 0.04500
H 	H 	0.75000 0.79920 0.89960 0.07000
H 	H 	0.75000 0.10040 0.20080 0.02000
C 	C 	0.36120 0.13450 0.64680 0.34900
C 	C 	0.30370 0.15920 0.73560 -0.05200
C 	C 	0.30590 0.10670 0.78570 -0.01300
C 	C 	0.36120 0.51230 0.86550 0.34400
C 	C 	0.30370 0.57640 0.84080 -0.03200
C 	C 	0.30590 0.67900 0.89330 -0.00700
C 	C 	0.36120 0.35320 0.48770 0.34700
C 	C 	0.30370 0.26440 0.42360 -0.05100
C 	C 	0.30590 0.21430 0.32100 -0.01700
C 	C 	0.36120 0.86550 0.35320 0.34300
C 	C 	0.30370 0.84080 0.26440 -0.03700
C 	C 	0.30590 0.89330 0.21430 -0.01300
C 	C 	0.36120 0.48770 0.13450 0.34800
C 	C 	0.30370 0.42360 0.15920 -0.05800
C 	C 	0.30590 0.32100 0.10670 -0.01800
C 	C 	0.36120 0.64680 0.51230 0.34900
C 	C 	0.30370 0.73560 0.57640 -0.04000
C 	C 	0.30590 0.78570 0.67900 -0.00700
C 	C 	0.13880 0.48770 0.35320 0.34700
C 	C 	0.19630 0.42360 0.26440 -0.06300
C 	C 	0.19410 0.32100 0.21430 -0.01700
C 	C 	0.13880 0.64680 0.13450 0.34900
C 	C 	0.19630 0.73560 0.15920 -0.06400
C 	C 	0.19410 0.78570 0.10670 -0.01200
C 	C 	0.13880 0.86550 0.51230 0.34300
C 	C 	0.19630 0.84080 0.57640 -0.04300
C 	C 	0.19410 0.89330 0.67900 -0.00700
C 	C 	0.13880 0.51230 0.64680 0.34900
C 	C 	0.19630 0.57640 0.73560 -0.05200
C 	C 	0.19410 0.67900 0.78570 -0.00700
C 	C 	0.13880 0.35320 0.86550 0.34200
C 	C 	0.19630 0.26440 0.84080 -0.04800
C 	C 	0.19410 0.21430 0.89330 -0.01200
C 	C 	0.13880 0.13450 0.48770 0.34800
C 	C 	0.19630 0.15920 0.42360 -0.07000
C 	C 	0.19410 0.10670 0.32100 -0.01700
C 	C 	0.63880 0.86550 0.35320 0.34100
C 	C 	0.69630 0.84080 0.26440 -0.02900
C 	C 	0.69410 0.89330 0.21430 -0.02200
C 	C 	0.63880 0.48770 0.13450 0.34700
C 	C 	0.69630 0.42360 0.15920 -0.05000
C 	C 	0.69410 0.32100 0.10670 -0.02700
C 	C 	0.63880 0.64680 0.51230 0.34700
C 	C 	0.69630 0.73560 0.57640 -0.03200
C 	C 	0.69410 0.78570 0.67900 -0.01600
C 	C 	0.63880 0.13450 0.64680 0.34800
C 	C 	0.69630 0.15920 0.73560 -0.04400
C 	C 	0.69410 0.10670 0.78570 -0.02200
C 	C 	0.63880 0.51230 0.86550 0.34200
C 	C 	0.69630 0.57640 0.84080 -0.02400
C 	C 	0.69410 0.67900 0.89330 -0.01700
C 	C 	0.63880 0.35320 0.48770 0.34500
C 	C 	0.69630 0.26440 0.42360 -0.04300
C 	C 	0.69410 0.21430 0.32100 -0.02600
C 	C 	0.86120 0.51230 0.64680 0.34100
C 	C 	0.80370 0.57640 0.73560 -0.01700
C 	C 	0.80590 0.67900 0.78570 -0.01800
C 	C 	0.86120 0.35320 0.86550 0.33600
C 	C 	0.80370 0.26440 0.84080 -0.01400
C 	C 	0.80590 0.21430 0.89330 -0.02300
C 	C 	0.86120 0.13450 0.48770 0.34100
C 	C 	0.80370 0.15920 0.42360 -0.03500
C 	C 	0.80590 0.10670 0.32100 -0.02800
C 	C 	0.86120 0.48770 0.35320 0.33900
C 	C 	0.80370 0.42360 0.26440 -0.02800
C 	C 	0.80590 0.32100 0.21430 -0.02800
C 	C 	0.86120 0.64680 0.13450 0.34200
C 	C 	0.80370 0.73560 0.15920 -0.02900
C 	C 	0.80590 0.78570 0.10670 -0.02400
C 	C 	0.86120 0.86550 0.51230 0.33700
C 	C 	0.80370 0.84080 0.57640 -0.00900
C 	C 	0.80590 0.89330 0.67900 -0.01800
C 	C 	0.25000 0.13505 0.86495 -0.05800
C 	C 	0.25000 0.72990 0.86495 -0.04800
C 	C 	0.25000 0.13505 0.27010 -0.06900
C 	C 	0.25000 0.86495 0.13505 -0.05800
C 	C 	0.25000 0.27010 0.13505 -0.06900
C 	C 	0.25000 0.86495 0.72990 -0.04800
C 	C 	0.75000 0.86495 0.13505 -0.03500
C 	C 	0.75000 0.27010 0.13505 -0.04500
C 	C 	0.75000 0.86495 0.72990 -0.02500
C 	C 	0.75000 0.13505 0.86495 -0.03500
C 	C 	0.75000 0.72990 0.86495 -0.02500
C 	C 	0.75000 0.13505 0.27010 -0.04600
N 	N 	0.25000 0.23710 0.76290 -0.19600
N 	N 	0.25000 0.52580 0.76290 -0.19500
N 	N 	0.25000 0.23710 0.47420 -0.19600
N 	N 	0.25000 0.76290 0.23710 -0.19600
N 	N 	0.25000 0.47420 0.23710 -0.19600
N 	N 	0.25000 0.76290 0.52580 -0.19500
N 	N 	0.75000 0.76290 0.23710 -0.19800
N 	N 	0.75000 0.47420 0.23710 -0.19900
N 	N 	0.75000 0.76290 0.52580 -0.19800
N 	N 	0.75000 0.23710 0.76290 -0.19800
N 	N 	0.75000 0.52580 0.76290 -0.19800
N 	N 	0.75000 0.23710 0.47420 -0.19900
O 	O 	0.35917 0.19530 0.61401 -0.46600
O 	O 	0.40580 0.05760 0.61260 -0.43800
O 	O 	0.35917 0.41871 0.80470 -0.44500
O 	O 	0.40580 0.55500 0.94240 -0.37100
O 	O 	0.35917 0.38599 0.58129 -0.45900
O 	O 	0.40580 0.38740 0.44500 -0.41600
O 	O 	0.35917 0.80470 0.38599 -0.44600
O 	O 	0.40580 0.94240 0.38740 -0.37400
O 	O 	0.35917 0.58129 0.19530 -0.46700
O 	O 	0.40580 0.44500 0.05760 -0.44100
O 	O 	0.35917 0.61401 0.41871 -0.45700
O 	O 	0.40580 0.61260 0.55500 -0.41000
O 	O 	0.14083 0.58129 0.38599 -0.48300
O 	O 	0.09420 0.44500 0.38740 -0.45300
O 	O 	0.14083 0.61401 0.19530 -0.49100
O 	O 	0.09420 0.61260 0.05760 -0.47500
O 	O 	0.14083 0.80470 0.41871 -0.46900
O 	O 	0.09420 0.94240 0.55500 -0.40700
O 	O 	0.14083 0.41871 0.61401 -0.48100
O 	O 	0.09420 0.55500 0.61260 -0.44700
O 	O 	0.14083 0.38599 0.80470 -0.47000
O 	O 	0.09420 0.38740 0.94240 -0.41000
O 	O 	0.14083 0.19530 0.58129 -0.49200
O 	O 	0.09420 0.05760 0.44500 -0.47800
O 	O 	0.64083 0.80470 0.38599 -0.44600
O 	O 	0.59420 0.94240 0.38740 -0.37400
O 	O 	0.64083 0.58129 0.19530 -0.46700
O 	O 	0.59420 0.44500 0.05760 -0.44000
O 	O 	0.64083 0.61401 0.41871 -0.45700
O 	O 	0.59420 0.61260 0.55500 -0.41000
O 	O 	0.64083 0.19530 0.61401 -0.46600
O 	O 	0.59420 0.05760 0.61260 -0.43700
O 	O 	0.64083 0.41871 0.80470 -0.44500
O 	O 	0.59420 0.55500 0.94240 -0.37100
O 	O 	0.64083 0.38599 0.58129 -0.45800
O 	O 	0.59420 0.38740 0.44500 -0.41500
O 	O 	0.85917 0.41871 0.61401 -0.42400
O 	O 	0.90580 0.55500 0.61260 -0.34700
O 	O 	0.85917 0.38599 0.80470 -0.41400
O 	O 	0.90580 0.38740 0.94240 -0.31300
O 	O 	0.85917 0.19530 0.58129 -0.43400
O 	O 	0.90580 0.05760 0.44500 -0.37600
O 	O 	0.85917 0.58129 0.38599 -0.42600
O 	O 	0.90580 0.44500 0.38740 -0.35200
O 	O 	0.85917 0.61401 0.19530 -0.43300
O 	O 	0.90580 0.61260 0.05760 -0.37400
O 	O 	0.85917 0.80470 0.41871 -0.41300
O 	O 	0.90580 0.94240 0.55500 -0.31000
