data_crystal

_cell_length_a 15.40500
_cell_length_b 15.40500
_cell_length_c 15.45600
_cell_angle_alpha 90.00000
_cell_angle_beta  90.00000
_cell_angle_gamma 120.00000

_symmetry_space_group_name_	'P 1'
_symmetry_space_group_name_H-M	'P 1'

loop_
_symmetry_equiv_pos_as_xyz
  x,y,z

loop_
_atom_site_label
_atom_site_type_symbol
_atom_site_fract_x
_atom_site_fract_y
_atom_site_fract_z
_atom_site_charge
Sm	Sm	0.33333 0.66666 0.75000 2.01900
Sm	Sm	0.66667 0.33334 0.75000 2.01900
Sm	Sm	0.66667 0.33334 0.25000 1.99700
Sm	Sm	0.33333 0.66666 0.25000 1.99600
Fe	Fe	0.50000 0.00000 -0.00000 1.05500
Fe	Fe	0.50000 0.50000 -0.00000 1.09800
Fe	Fe	-0.00000 0.50000 -0.00000 1.05500
Fe	Fe	0.50000 -0.00000 0.50000 1.13100
Fe	Fe	-0.00000 0.50000 0.50000 1.13100
Fe	Fe	0.50000 0.50000 0.50000 1.17500
H 	H 	0.71280 0.94630 0.84450 0.09600
H 	H 	0.23350 0.28720 0.84450 0.06500
H 	H 	0.05370 0.76650 0.84450 0.05700
H 	H 	0.28720 0.05370 0.84450 0.05000
H 	H 	0.76650 0.71280 0.84450 0.08100
H 	H 	0.94630 0.23350 0.84450 0.08800
H 	H 	0.76650 0.05370 0.65550 0.03700
H 	H 	0.94630 0.71280 0.65550 0.07600
H 	H 	0.28720 0.23350 0.65550 0.04400
H 	H 	0.23350 0.94630 0.65550 0.06800
H 	H 	0.05370 0.28720 0.65550 0.02900
H 	H 	0.71280 0.76650 0.65550 0.06100
H 	H 	0.28720 0.05370 0.15550 0.00800
H 	H 	0.76650 0.71280 0.15550 0.04000
H 	H 	0.94630 0.23350 0.15550 0.04800
H 	H 	0.71280 0.94630 0.15550 0.05600
H 	H 	0.23350 0.28720 0.15550 0.02300
H 	H 	0.05370 0.76650 0.15550 0.01600
H 	H 	0.23350 0.94630 0.34450 0.06600
H 	H 	0.05370 0.28720 0.34450 0.02600
H 	H 	0.71280 0.76650 0.34450 0.05800
H 	H 	0.76650 0.05370 0.34450 0.03400
H 	H 	0.94630 0.71280 0.34450 0.07400
H 	H 	0.28720 0.23350 0.34450 0.04100
H 	H 	0.80010 0.90005 0.75000 0.06600
H 	H 	0.09995 0.19990 0.75000 0.01500
H 	H 	0.09995 0.90005 0.75000 0.04000
H 	H 	0.19990 0.09995 0.75000 0.01500
H 	H 	0.90005 0.80010 0.75000 0.06500
H 	H 	0.90005 0.09995 0.75000 0.04000
H 	H 	0.19990 0.09995 0.25000 0.00800
H 	H 	0.90005 0.80010 0.25000 0.06000
H 	H 	0.90005 0.09995 0.25000 0.03400
H 	H 	0.80010 0.90005 0.25000 0.06000
H 	H 	0.09995 0.19990 0.25000 0.00800
H 	H 	0.09995 0.90005 0.25000 0.03400
C 	C 	0.51000 0.86400 0.86160 0.34600
C 	C 	0.57530 0.84010 0.80350 0.00400
C 	C 	0.67880 0.89320 0.80620 -0.03400
C 	C 	0.35400 0.49000 0.86160 0.34800
C 	C 	0.26480 0.42470 0.80350 -0.01500
C 	C 	0.21440 0.32120 0.80620 -0.04500
C 	C 	0.13600 0.64600 0.86160 0.35000
C 	C 	0.15990 0.73520 0.80350 -0.01600
C 	C 	0.10680 0.78560 0.80620 -0.04000
C 	C 	0.49000 0.13600 0.86160 0.34900
C 	C 	0.42470 0.15990 0.80350 -0.02100
C 	C 	0.32120 0.10680 0.80620 -0.04500
C 	C 	0.64600 0.51000 0.86160 0.35000
C 	C 	0.73520 0.57530 0.80350 -0.00400
C 	C 	0.78560 0.67880 0.80620 -0.03400
C 	C 	0.86400 0.35400 0.86160 0.34400
C 	C 	0.84010 0.26480 0.80350 -0.00100
C 	C 	0.89320 0.21440 0.80620 -0.04000
C 	C 	0.64600 0.13600 0.63840 0.35500
C 	C 	0.73520 0.15990 0.69650 -0.03000
C 	C 	0.78560 0.10680 0.69380 -0.03900
C 	C 	0.86400 0.51000 0.63840 0.35000
C 	C 	0.84010 0.57530 0.69650 -0.01000
C 	C 	0.89320 0.67880 0.69380 -0.03300
C 	C 	0.49000 0.35400 0.63840 0.35300
C 	C 	0.42470 0.26480 0.69650 -0.02900
C 	C 	0.32120 0.21440 0.69380 -0.04400
C 	C 	0.35400 0.86400 0.63840 0.34900
C 	C 	0.26480 0.84010 0.69650 -0.01500
C 	C 	0.21440 0.89320 0.69380 -0.03900
C 	C 	0.13600 0.49000 0.63840 0.35400
C 	C 	0.15990 0.42470 0.69650 -0.03600
C 	C 	0.10680 0.32120 0.69380 -0.04400
C 	C 	0.51000 0.64600 0.63840 0.35500
C 	C 	0.57530 0.73520 0.69650 -0.01800
C 	C 	0.67880 0.78560 0.69380 -0.03300
C 	C 	0.49000 0.13600 0.13840 0.35300
C 	C 	0.42470 0.15990 0.19650 -0.05400
C 	C 	0.32120 0.10680 0.19380 -0.03700
C 	C 	0.64600 0.51000 0.13840 0.35500
C 	C 	0.73520 0.57530 0.19650 -0.03600
C 	C 	0.78560 0.67880 0.19380 -0.02500
C 	C 	0.86400 0.35400 0.13840 0.34800
C 	C 	0.84010 0.26480 0.19650 -0.03200
C 	C 	0.89320 0.21440 0.19380 -0.03100
C 	C 	0.51000 0.86400 0.13840 0.35000
C 	C 	0.57530 0.84010 0.19650 -0.02700
C 	C 	0.67880 0.89320 0.19380 -0.02600
C 	C 	0.35400 0.49000 0.13840 0.35200
C 	C 	0.26480 0.42470 0.19650 -0.04700
C 	C 	0.21440 0.32120 0.19380 -0.03600
C 	C 	0.13600 0.64600 0.13840 0.35500
C 	C 	0.15990 0.73520 0.19650 -0.04700
C 	C 	0.10680 0.78560 0.19380 -0.03200
C 	C 	0.35400 0.86400 0.36160 0.35000
C 	C 	0.26480 0.84010 0.30350 -0.02200
C 	C 	0.21440 0.89320 0.30620 -0.03100
C 	C 	0.13600 0.49000 0.36160 0.35500
C 	C 	0.15990 0.42470 0.30350 -0.04300
C 	C 	0.10680 0.32120 0.30620 -0.03700
C 	C 	0.51000 0.64600 0.36160 0.35600
C 	C 	0.57530 0.73520 0.30350 -0.02500
C 	C 	0.67880 0.78560 0.30620 -0.02600
C 	C 	0.64600 0.13600 0.36160 0.35600
C 	C 	0.73520 0.15990 0.30350 -0.03700
C 	C 	0.78560 0.10680 0.30620 -0.03200
C 	C 	0.86400 0.51000 0.36160 0.35100
C 	C 	0.84010 0.57530 0.30350 -0.01700
C 	C 	0.89320 0.67880 0.30620 -0.02600
C 	C 	0.49000 0.35400 0.36160 0.35400
C 	C 	0.42470 0.26480 0.30350 -0.03600
C 	C 	0.32120 0.21440 0.30620 -0.03600
C 	C 	0.73040 0.86520 0.75000 -0.01500
C 	C 	0.13480 0.26960 0.75000 -0.03500
C 	C 	0.13480 0.86520 0.75000 -0.02500
C 	C 	0.26960 0.13480 0.75000 -0.03500
C 	C 	0.86520 0.73040 0.75000 -0.01500
C 	C 	0.86520 0.13480 0.75000 -0.02500
C 	C 	0.26960 0.13480 0.25000 -0.05600
C 	C 	0.86520 0.73040 0.25000 -0.03500
C 	C 	0.86520 0.13480 0.25000 -0.04500
C 	C 	0.73040 0.86520 0.25000 -0.03500
C 	C 	0.13480 0.26960 0.25000 -0.05600
C 	C 	0.13480 0.86520 0.25000 -0.04500
N 	N 	0.52430 0.76215 0.75000 -0.19400
N 	N 	0.23785 0.47570 0.75000 -0.19500
N 	N 	0.23785 0.76215 0.75000 -0.19500
N 	N 	0.47570 0.23785 0.75000 -0.19500
N 	N 	0.76215 0.52430 0.75000 -0.19400
N 	N 	0.76215 0.23785 0.75000 -0.19500
N 	N 	0.47570 0.23785 0.25000 -0.19100
N 	N 	0.76215 0.52430 0.25000 -0.19100
N 	N 	0.76215 0.23785 0.25000 -0.19100
N 	N 	0.52430 0.76215 0.25000 -0.19100
N 	N 	0.23785 0.47570 0.25000 -0.19100
N 	N 	0.23785 0.76215 0.25000 -0.19100
O 	O 	0.55340 0.94060 0.90660 -0.31900
O 	O 	0.41540 0.80330 0.85710 -0.40900
O 	O 	0.38720 0.44660 0.90660 -0.36100
O 	O 	0.38790 0.58460 0.85710 -0.42200
O 	O 	0.05940 0.61280 0.90660 -0.38200
O 	O 	0.19670 0.61210 0.85710 -0.42900
O 	O 	0.44660 0.05940 0.90660 -0.38400
O 	O 	0.58460 0.19670 0.85710 -0.43000
O 	O 	0.61280 0.55340 0.90660 -0.35600
O 	O 	0.61210 0.41540 0.85710 -0.42100
O 	O 	0.94060 0.38720 0.90660 -0.32100
O 	O 	0.80330 0.38790 0.85710 -0.41000
O 	O 	0.61280 0.05940 0.59340 -0.44600
O 	O 	0.61210 0.19670 0.64290 -0.46100
O 	O 	0.94060 0.55340 0.59340 -0.38100
O 	O 	0.80330 0.41540 0.64290 -0.44000
O 	O 	0.44660 0.38720 0.59340 -0.42600
O 	O 	0.58460 0.38790 0.64290 -0.45400
O 	O 	0.38720 0.94060 0.59340 -0.38400
O 	O 	0.38790 0.80330 0.64290 -0.44000
O 	O 	0.05940 0.44660 0.59340 -0.44900
O 	O 	0.19670 0.58460 0.64290 -0.46200
O 	O 	0.55340 0.61280 0.59340 -0.42000
O 	O 	0.41540 0.61210 0.64290 -0.45200
O 	O 	0.44660 0.05940 0.09340 -0.48400
O 	O 	0.58460 0.19670 0.14290 -0.48200
O 	O 	0.61280 0.55340 0.09340 -0.45500
O 	O 	0.61210 0.41540 0.14290 -0.47200
O 	O 	0.94060 0.38720 0.09340 -0.41800
O 	O 	0.80330 0.38790 0.14290 -0.46000
O 	O 	0.55340 0.94060 0.09340 -0.41500
O 	O 	0.41540 0.80330 0.14290 -0.46000
O 	O 	0.38720 0.44660 0.09340 -0.46100
O 	O 	0.38790 0.58460 0.14290 -0.47400
O 	O 	0.05940 0.61280 0.09340 -0.48100
O 	O 	0.19670 0.61210 0.14290 -0.48100
O 	O 	0.38720 0.94060 0.40660 -0.38400
O 	O 	0.38790 0.80330 0.35710 -0.43800
O 	O 	0.05940 0.44660 0.40660 -0.45000
O 	O 	0.19670 0.58460 0.35710 -0.46000
O 	O 	0.55340 0.61280 0.40660 -0.42000
O 	O 	0.41540 0.61210 0.35710 -0.45000
O 	O 	0.61280 0.05940 0.40660 -0.44700
O 	O 	0.61210 0.19670 0.35710 -0.45900
O 	O 	0.94060 0.55340 0.40660 -0.38100
O 	O 	0.80330 0.41540 0.35710 -0.43700
O 	O 	0.44660 0.38720 0.40660 -0.42700
O 	O 	0.58460 0.38790 0.35710 -0.45100
