data_crystal

_cell_length_a 15.35400
_cell_length_b 15.51400
_cell_length_c 15.51400
_cell_angle_alpha 120.00000
_cell_angle_beta  90.00000
_cell_angle_gamma 90.00000

_symmetry_space_group_name_	'P 1'
_symmetry_space_group_name_H-M	'P 1'

loop_
_symmetry_equiv_pos_as_xyz
  x,y,z

loop_
_atom_site_label
_atom_site_type_symbol
_atom_site_fract_x
_atom_site_fract_y
_atom_site_fract_z
_atom_site_charge
Pr	Pr	0.75000 0.66667 0.33334 2.06800
Pr	Pr	0.75000 0.33333 0.66666 2.06800
Pr	Pr	0.25000 0.33333 0.66666 2.06600
Pr	Pr	0.25000 0.66667 0.33334 2.06500
Fe	Fe	-0.00000 0.50000 0.50000 1.09900
Fe	Fe	-0.00000 0.00000 0.50000 1.05600
Fe	Fe	0.00000 0.50000 -0.00000 1.05600
Fe	Fe	0.50000 0.00000 0.50000 1.13200
Fe	Fe	0.50000 0.50000 0.50000 1.17500
Fe	Fe	0.50000 0.50000 -0.00000 1.13200
H 	H 	0.84440 0.76630 0.71280 0.07900
H 	H 	0.84440 0.94650 0.23370 0.08600
H 	H 	0.84440 0.28720 0.05350 0.04800
H 	H 	0.84440 0.23370 0.28720 0.06300
H 	H 	0.84440 0.05350 0.76630 0.05600
H 	H 	0.84440 0.71280 0.94650 0.09400
H 	H 	0.65560 0.05350 0.28720 0.02700
H 	H 	0.65560 0.71280 0.76630 0.05900
H 	H 	0.65560 0.23370 0.94650 0.06600
H 	H 	0.65560 0.94650 0.71280 0.07400
H 	H 	0.65560 0.28720 0.23370 0.04200
H 	H 	0.65560 0.76630 0.05350 0.03500
H 	H 	0.15560 0.23370 0.28720 0.02100
H 	H 	0.15560 0.05350 0.76630 0.01400
H 	H 	0.15560 0.71280 0.94650 0.05300
H 	H 	0.15560 0.76630 0.71280 0.03700
H 	H 	0.15560 0.94650 0.23370 0.04600
H 	H 	0.15560 0.28720 0.05350 0.00600
H 	H 	0.34440 0.94650 0.71280 0.07100
H 	H 	0.34440 0.28720 0.23370 0.03900
H 	H 	0.34440 0.76630 0.05350 0.03200
H 	H 	0.34440 0.05350 0.28720 0.02400
H 	H 	0.34440 0.71280 0.76630 0.05600
H 	H 	0.34440 0.23370 0.94650 0.06400
H 	H 	0.75000 0.89990 0.79980 0.06900
H 	H 	0.75000 0.89990 0.10010 0.04400
H 	H 	0.75000 0.20020 0.10010 0.01900
H 	H 	0.75000 0.10010 0.20020 0.01900
H 	H 	0.75000 0.10010 0.89990 0.04400
H 	H 	0.75000 0.79980 0.89990 0.07000
H 	H 	0.25000 0.10010 0.20020 0.01200
H 	H 	0.25000 0.10010 0.89990 0.03800
H 	H 	0.25000 0.79980 0.89990 0.06400
H 	H 	0.25000 0.89990 0.79980 0.06400
H 	H 	0.25000 0.89990 0.10010 0.03800
H 	H 	0.25000 0.20020 0.10010 0.01200
C 	C 	0.80360 0.73570 0.57650 -0.01600
C 	C 	0.80610 0.78560 0.67910 -0.02000
C 	C 	0.86100 0.64700 0.51240 0.33400
C 	C 	0.80360 0.84080 0.26430 -0.01300
C 	C 	0.80610 0.89350 0.21440 -0.02500
C 	C 	0.86100 0.86540 0.35300 0.32800
C 	C 	0.80360 0.42350 0.15920 -0.03300
C 	C 	0.80610 0.32090 0.10650 -0.03100
C 	C 	0.86100 0.48760 0.13460 0.33300
C 	C 	0.80360 0.26430 0.42350 -0.02600
C 	C 	0.80610 0.21440 0.32090 -0.03100
C 	C 	0.86100 0.35300 0.48760 0.33200
C 	C 	0.80360 0.15920 0.73570 -0.02800
C 	C 	0.80610 0.10650 0.78560 -0.02600
C 	C 	0.86100 0.13460 0.64700 0.33400
C 	C 	0.80360 0.57650 0.84080 -0.00800
C 	C 	0.80610 0.67910 0.89350 -0.02000
C 	C 	0.86100 0.51240 0.86540 0.32900
C 	C 	0.69640 0.15920 0.42350 -0.04800
C 	C 	0.69390 0.10650 0.32090 -0.03000
C 	C 	0.63900 0.13460 0.48760 0.33900
C 	C 	0.69640 0.57650 0.73570 -0.03000
C 	C 	0.69390 0.67910 0.78560 -0.01800
C 	C 	0.63900 0.51240 0.64700 0.34000
C 	C 	0.69640 0.26430 0.84080 -0.02700
C 	C 	0.69390 0.21440 0.89350 -0.02400
C 	C 	0.63900 0.35300 0.86540 0.33400
C 	C 	0.69640 0.84080 0.57650 -0.02200
C 	C 	0.69390 0.89350 0.67910 -0.01900
C 	C 	0.63900 0.86540 0.51240 0.33500
C 	C 	0.69640 0.42350 0.26430 -0.04100
C 	C 	0.69390 0.32090 0.21440 -0.02900
C 	C 	0.63900 0.48760 0.35300 0.33700
C 	C 	0.69640 0.73570 0.15920 -0.04200
C 	C 	0.69390 0.78560 0.10650 -0.02400
C 	C 	0.63900 0.64700 0.13460 0.34000
C 	C 	0.19640 0.26430 0.42350 -0.06000
C 	C 	0.19390 0.21440 0.32090 -0.02100
C 	C 	0.13900 0.35300 0.48760 0.33800
C 	C 	0.19640 0.15920 0.73570 -0.06100
C 	C 	0.19390 0.10650 0.78560 -0.01700
C 	C 	0.13900 0.13460 0.64700 0.34000
C 	C 	0.19640 0.57650 0.84080 -0.04100
C 	C 	0.19390 0.67910 0.89350 -0.01100
C 	C 	0.13900 0.51240 0.86540 0.33500
C 	C 	0.19640 0.73570 0.57650 -0.04900
C 	C 	0.19390 0.78560 0.67910 -0.01000
C 	C 	0.13900 0.64700 0.51240 0.34000
C 	C 	0.19640 0.84080 0.26430 -0.04600
C 	C 	0.19390 0.89350 0.21440 -0.01600
C 	C 	0.13900 0.86540 0.35300 0.33400
C 	C 	0.19640 0.42350 0.15920 -0.06700
C 	C 	0.19390 0.32090 0.10650 -0.02200
C 	C 	0.13900 0.48760 0.13460 0.33900
C 	C 	0.30360 0.84080 0.57650 -0.03000
C 	C 	0.30610 0.89350 0.67910 -0.01100
C 	C 	0.36100 0.86540 0.51240 0.33600
C 	C 	0.30360 0.42350 0.26430 -0.04900
C 	C 	0.30610 0.32090 0.21440 -0.02100
C 	C 	0.36100 0.48760 0.35300 0.33900
C 	C 	0.30360 0.73570 0.15920 -0.05000
C 	C 	0.30610 0.78560 0.10650 -0.01700
C 	C 	0.36100 0.64700 0.13460 0.34100
C 	C 	0.30360 0.15920 0.42350 -0.05600
C 	C 	0.30610 0.10650 0.32090 -0.02200
C 	C 	0.36100 0.13460 0.48760 0.34000
C 	C 	0.30360 0.57650 0.73570 -0.03800
C 	C 	0.30610 0.67910 0.78560 -0.01100
C 	C 	0.36100 0.51240 0.64700 0.34100
C 	C 	0.30360 0.26430 0.84080 -0.03500
C 	C 	0.30610 0.21440 0.89350 -0.01700
C 	C 	0.36100 0.35300 0.86540 0.33500
C 	C 	0.75000 0.86530 0.73060 -0.02400
C 	C 	0.75000 0.86530 0.13470 -0.03400
C 	C 	0.75000 0.26940 0.13470 -0.04400
C 	C 	0.75000 0.13470 0.26940 -0.04400
C 	C 	0.75000 0.13470 0.86530 -0.03300
C 	C 	0.75000 0.73060 0.86530 -0.02400
C 	C 	0.25000 0.13470 0.26940 -0.06600
C 	C 	0.25000 0.13470 0.86530 -0.05500
C 	C 	0.25000 0.73060 0.86530 -0.04500
C 	C 	0.25000 0.86530 0.73060 -0.04500
C 	C 	0.25000 0.86530 0.13470 -0.05500
C 	C 	0.25000 0.26940 0.13470 -0.06600
N 	N 	0.75000 0.76291 0.52582 -0.19900
N 	N 	0.75000 0.76291 0.23709 -0.20000
N 	N 	0.75000 0.47418 0.23709 -0.20000
N 	N 	0.75000 0.23709 0.47418 -0.20000
N 	N 	0.75000 0.23709 0.76291 -0.20000
N 	N 	0.75000 0.52582 0.76291 -0.19900
N 	N 	0.25000 0.23709 0.47418 -0.19700
N 	N 	0.25000 0.23709 0.76291 -0.19700
N 	N 	0.25000 0.52582 0.76291 -0.19700
N 	N 	0.25000 0.76291 0.52582 -0.19700
N 	N 	0.25000 0.76291 0.23709 -0.19700
N 	N 	0.25000 0.47418 0.23709 -0.19700
O 	O 	0.85898 0.61400 0.41860 -0.42100
O 	O 	0.90570 0.61260 0.55500 -0.34200
O 	O 	0.85898 0.80460 0.38600 -0.41100
O 	O 	0.90570 0.94240 0.38740 -0.30800
O 	O 	0.85898 0.58140 0.19540 -0.43100
O 	O 	0.90570 0.44500 0.05760 -0.37100
O 	O 	0.85898 0.38600 0.58140 -0.42300
O 	O 	0.90570 0.38740 0.44500 -0.34700
O 	O 	0.85898 0.19540 0.61400 -0.43000
O 	O 	0.90570 0.05760 0.61260 -0.36800
O 	O 	0.85898 0.41860 0.80460 -0.41000
O 	O 	0.90570 0.55500 0.94240 -0.30500
O 	O 	0.64102 0.19540 0.58140 -0.46400
O 	O 	0.59430 0.05760 0.44500 -0.43500
O 	O 	0.64102 0.41860 0.61400 -0.45400
O 	O 	0.59430 0.55500 0.61260 -0.40600
O 	O 	0.64102 0.38600 0.80460 -0.44300
O 	O 	0.59430 0.38740 0.94240 -0.37000
O 	O 	0.64102 0.80460 0.41860 -0.44200
O 	O 	0.59430 0.94240 0.55500 -0.36700
O 	O 	0.64102 0.58140 0.38600 -0.45600
O 	O 	0.59430 0.44500 0.38740 -0.41200
O 	O 	0.64102 0.61400 0.19540 -0.46300
O 	O 	0.59430 0.61260 0.05760 -0.43300
O 	O 	0.14102 0.38600 0.58140 -0.48000
O 	O 	0.09430 0.38740 0.44500 -0.44700
O 	O 	0.14102 0.19540 0.61400 -0.48600
O 	O 	0.09430 0.05760 0.61260 -0.46700
O 	O 	0.14102 0.41860 0.80460 -0.46500
O 	O 	0.09430 0.55500 0.94240 -0.40100
O 	O 	0.14102 0.61400 0.41860 -0.47800
O 	O 	0.09430 0.61260 0.55500 -0.44100
O 	O 	0.14102 0.80460 0.38600 -0.46600
O 	O 	0.09430 0.94240 0.38740 -0.40300
O 	O 	0.14102 0.58140 0.19540 -0.48700
O 	O 	0.09430 0.44500 0.05760 -0.47000
O 	O 	0.35898 0.80460 0.41860 -0.44200
O 	O 	0.40570 0.94240 0.55500 -0.36700
O 	O 	0.35898 0.58140 0.38600 -0.45600
O 	O 	0.40570 0.44500 0.38740 -0.41300
O 	O 	0.35898 0.61400 0.19540 -0.46300
O 	O 	0.40570 0.61260 0.05760 -0.43300
O 	O 	0.35898 0.19540 0.58140 -0.46400
O 	O 	0.40570 0.05760 0.44500 -0.43600
O 	O 	0.35898 0.41860 0.61400 -0.45400
O 	O 	0.40570 0.55500 0.61260 -0.40700
O 	O 	0.35898 0.38600 0.80460 -0.44300
O 	O 	0.40570 0.38740 0.94240 -0.37000
