data_crystal

_cell_length_a 8.35600
_cell_length_b 14.16400
_cell_length_c 8.42400
_cell_angle_alpha 90.00000
_cell_angle_beta  90.00000
_cell_angle_gamma 90.00000

_symmetry_space_group_name_	'P 1'
_symmetry_space_group_name_H-M	'P 1'

loop_
_symmetry_equiv_pos_as_xyz
  x,y,z

loop_
_atom_site_label
_atom_site_type_symbol
_atom_site_fract_x
_atom_site_fract_y
_atom_site_fract_z
_atom_site_charge
C 	C 	0.44210 0.98930 0.27110 0.32600
C 	C 	0.58190 0.92180 0.30180 -0.12300
C 	C 	0.73690 0.85140 0.52510 -0.14400
C 	C 	0.65830 0.76570 0.57430 0.38300
Nd	Nd	0.34460 0.91450 0.63420 1.76400
N 	N 	0.62110 0.92960 0.47870 -0.19400
O 	O 	0.33590 0.00020 0.37200 -0.57400
O 	O 	0.42890 0.01520 0.12450 -0.46600
O 	O 	0.72260 0.68440 0.56130 -0.48900
O 	O 	0.51390 0.77140 0.62710 -0.48900
C 	C 	0.05790 0.01070 0.77110 0.32300
C 	C 	0.91810 0.07820 0.80180 -0.12000
C 	C 	0.76310 0.14860 0.02510 -0.13600
C 	C 	0.84170 0.23430 0.07430 0.38200
Nd	Nd	0.15540 0.08550 0.13420 1.75700
N 	N 	0.87890 0.07040 0.97870 -0.19400
O 	O 	0.16410 0.99980 0.87200 -0.57100
O 	O 	0.07110 0.98480 0.62450 -0.46400
O 	O 	0.77740 0.31560 0.06130 -0.48600
O 	O 	0.98610 0.22860 0.12710 -0.48400
C 	C 	0.55790 0.48930 0.22890 0.32900
C 	C 	0.41810 0.42180 0.19820 -0.12200
C 	C 	0.26310 0.35140 0.97490 -0.14000
C 	C 	0.34170 0.26570 0.92570 0.38200
Nd	Nd	0.65540 0.41450 0.86580 1.76100
N 	N 	0.37890 0.42960 0.02130 -0.19200
O 	O 	0.66410 0.50020 0.12800 -0.57400
O 	O 	0.57110 0.51520 0.37550 -0.46800
O 	O 	0.27740 0.18440 0.93870 -0.48700
O 	O 	0.48610 0.27140 0.87290 -0.48900
C 	C 	0.94210 0.51070 0.72890 0.32500
C 	C 	0.08190 0.57820 0.69820 -0.11800
C 	C 	0.23690 0.64860 0.47490 -0.14100
C 	C 	0.15830 0.73430 0.42570 0.38300
Nd	Nd	0.84460 0.58550 0.36580 1.76300
N 	N 	0.12110 0.57040 0.52130 -0.19300
O 	O 	0.83590 0.49980 0.62800 -0.57500
O 	O 	0.92890 0.48480 0.87550 -0.47100
O 	O 	0.22260 0.81560 0.43870 -0.48700
O 	O 	0.01390 0.72860 0.37290 -0.48700
