data_crystal

_cell_length_a 9.43400
_cell_length_b 16.59900
_cell_length_c 18.56200
_cell_angle_alpha 90.00000
_cell_angle_beta  97.73100
_cell_angle_gamma 90.00000

_symmetry_space_group_name_	'P 1'
_symmetry_space_group_name_H-M	'P 1'

loop_
_symmetry_equiv_pos_as_xyz
  x,y,z

loop_
_atom_site_label
_atom_site_type_symbol
_atom_site_fract_x
_atom_site_fract_y
_atom_site_fract_z
_atom_site_charge
Zn	Zn	0.33820 0.03687 0.98321 1.13000
C 	C 	0.45960 0.10640 0.12490 -0.11800
H 	H 	0.55320 0.08180 0.12620 0.04300
H 	H 	0.44870 0.12390 0.17370 0.06000
C 	C 	0.44740 0.17780 0.07410 -0.06300
H 	H 	0.35540 0.20360 0.07480 0.02500
H 	H 	0.52140 0.21660 0.09080 0.05100
C 	C 	0.42360 0.22010 0.94700 -0.18200
H 	H 	0.32560 0.23620 0.94950 0.03700
H 	H 	0.42860 0.20030 0.89820 0.05400
C 	C 	0.52030 0.29400 0.96060 0.17000
C 	C 	0.47980 0.36290 0.99050 -0.27500
H 	H 	0.39010 0.36620 0.00580 0.12700
C 	C 	0.57090 0.42930 0.99860 0.07100
H 	H 	0.53880 0.47630 0.01850 -0.02200
C 	C 	0.65590 0.29340 0.93940 -0.23100
H 	H 	0.68970 0.24760 0.91840 0.09200
C 	C 	0.73960 0.36120 0.94980 0.12200
H 	H 	0.83000 0.35940 0.93510 -0.06100
C 	C 	0.36880 0.96950 0.13860 -0.19200
H 	H 	0.46130 0.94810 0.13090 0.05500
H 	H 	0.29650 0.93180 0.11740 0.06300
C 	C 	0.36320 0.97350 0.21950 0.17100
C 	C 	0.47690 0.94780 0.26790 -0.23300
H 	H 	0.56020 0.93000 0.25130 0.09600
C 	C 	0.46680 0.94860 0.34110 0.11800
H 	H 	0.54610 0.93220 0.37300 -0.05800
C 	C 	0.24480 0.99830 0.24790 -0.23300
H 	H 	0.16590 0.01740 0.21710 0.09500
C 	C 	0.24080 0.99540 0.32180 0.11600
H 	H 	0.15720 0.01100 0.33940 -0.05200
N 	N 	0.34680 0.04660 0.09931 -0.24400
H 	H 	0.26170 0.06710 0.10860 0.06700
N 	N 	0.46170 0.15344 0.99941 -0.25900
H 	H 	0.55550 0.14150 0.99820 0.06200
N 	N 	0.35050 0.97140 0.36880 -0.30300
N 	N 	0.70110 0.42870 0.97926 -0.29100
Zn	Zn	0.83820 0.53687 0.98321 1.13200
C 	C 	0.95960 0.60640 0.12490 -0.08500
H 	H 	0.05320 0.58180 0.12620 0.01300
H 	H 	0.94870 0.62390 0.17370 0.05500
C 	C 	0.94740 0.67780 0.07410 -0.03100
H 	H 	0.85540 0.70360 0.07480 0.02000
H 	H 	0.02140 0.71660 0.09080 0.02400
C 	C 	0.92360 0.72010 0.94700 -0.10700
H 	H 	0.82560 0.73620 0.94950 0.02100
H 	H 	0.92860 0.70030 0.89820 0.04000
C 	C 	0.02030 0.79400 0.96060 0.05900
C 	C 	0.97980 0.86290 0.99050 -0.13800
H 	H 	0.89010 0.86620 0.00580 0.08700
C 	C 	0.07090 0.92930 0.99860 -0.00800
H 	H 	0.03880 0.97630 0.01850 -0.00300
C 	C 	0.15590 0.79340 0.93940 -0.16500
H 	H 	0.18970 0.74760 0.91840 0.06400
C 	C 	0.23960 0.86120 0.94980 0.07900
H 	H 	0.33000 0.85940 0.93510 -0.05000
C 	C 	0.86880 0.46950 0.13860 -0.17900
H 	H 	0.96130 0.44810 0.13090 0.05800
H 	H 	0.79650 0.43180 0.11740 0.06300
C 	C 	0.86320 0.47350 0.21950 0.15700
C 	C 	0.97690 0.44780 0.26790 -0.19300
H 	H 	0.06020 0.43000 0.25130 0.06500
C 	C 	0.96680 0.44860 0.34110 0.14300
H 	H 	0.04610 0.43220 0.37300 -0.08400
C 	C 	0.74480 0.49830 0.24790 -0.22100
H 	H 	0.66590 0.51740 0.21710 0.09300
C 	C 	0.74080 0.49540 0.32180 0.11500
H 	H 	0.65720 0.51100 0.33940 -0.04900
N 	N 	0.84680 0.54660 0.09931 -0.25000
H 	H 	0.76170 0.56710 0.10860 0.07000
N 	N 	0.96170 0.65344 0.99941 -0.25400
H 	H 	0.05550 0.64150 0.99820 0.04500
N 	N 	0.85050 0.47140 0.36880 -0.30400
N 	N 	0.20110 0.92870 0.97926 -0.27000
Zn	Zn	0.33820 0.96313 0.48321 1.13700
C 	C 	0.45960 0.89360 0.62490 -0.10600
H 	H 	0.55320 0.91820 0.62620 0.03300
H 	H 	0.44870 0.87610 0.67370 0.05400
C 	C 	0.44740 0.82220 0.57410 -0.09800
H 	H 	0.35540 0.79640 0.57480 0.02600
H 	H 	0.52140 0.78340 0.59080 0.05200
C 	C 	0.42360 0.77990 0.44700 -0.16900
H 	H 	0.32560 0.76380 0.44950 0.04200
H 	H 	0.42860 0.79970 0.39820 0.05100
C 	C 	0.52030 0.70600 0.46060 0.15300
C 	C 	0.47980 0.63710 0.49050 -0.22000
H 	H 	0.39010 0.63380 0.50580 0.08200
C 	C 	0.57090 0.57070 0.49860 0.11000
H 	H 	0.53880 0.52370 0.51850 -0.05900
C 	C 	0.65590 0.70660 0.43940 -0.21900
H 	H 	0.68970 0.75240 0.41840 0.09100
C 	C 	0.73960 0.63880 0.44980 0.11900
H 	H 	0.83000 0.64060 0.43510 -0.05400
C 	C 	0.36880 0.03050 0.63860 -0.18000
H 	H 	0.46130 0.05190 0.63090 0.04600
H 	H 	0.29650 0.06820 0.61740 0.05200
C 	C 	0.36320 0.02650 0.71950 0.16300
C 	C 	0.47690 0.05220 0.76790 -0.22800
H 	H 	0.56020 0.07000 0.75130 0.09300
C 	C 	0.46680 0.05140 0.84110 0.11400
H 	H 	0.54610 0.06780 0.87300 -0.06000
C 	C 	0.24480 0.00170 0.74790 -0.22500
H 	H 	0.16590 0.98260 0.71710 0.08800
C 	C 	0.24080 0.00460 0.82180 0.11200
H 	H 	0.15720 0.98900 0.83940 -0.05300
N 	N 	0.34680 0.95340 0.59931 -0.25500
H 	H 	0.26170 0.93290 0.60860 0.06400
N 	N 	0.46170 0.84656 0.49941 -0.24400
H 	H 	0.55550 0.85850 0.49820 0.07000
N 	N 	0.35050 0.02860 0.86880 -0.30400
N 	N 	0.70110 0.57130 0.47926 -0.28900
Zn	Zn	0.83820 0.46313 0.48321 1.13900
C 	C 	0.95960 0.39360 0.62490 -0.07400
H 	H 	0.05320 0.41820 0.62620 0.00400
H 	H 	0.94870 0.37610 0.67370 0.05000
C 	C 	0.94740 0.32220 0.57410 -0.06400
H 	H 	0.85540 0.29640 0.57480 0.02100
H 	H 	0.02140 0.28340 0.59080 0.02600
C 	C 	0.92360 0.27990 0.44700 -0.09400
H 	H 	0.82560 0.26380 0.44950 0.02500
H 	H 	0.92860 0.29970 0.39820 0.03800
C 	C 	0.02030 0.20600 0.46060 0.04100
C 	C 	0.97980 0.13710 0.49050 -0.08200
H 	H 	0.89010 0.13380 0.50580 0.04400
C 	C 	0.07090 0.07070 0.49860 0.02400
H 	H 	0.03880 0.02370 0.51850 -0.03600
C 	C 	0.15590 0.20660 0.43940 -0.15200
H 	H 	0.18970 0.25240 0.41840 0.06300
C 	C 	0.23960 0.13880 0.44980 0.07600
H 	H 	0.33000 0.14060 0.43510 -0.04300
C 	C 	0.86880 0.53050 0.63860 -0.17100
H 	H 	0.96130 0.55190 0.63090 0.05000
H 	H 	0.79650 0.56820 0.61740 0.05200
C 	C 	0.86320 0.52650 0.71950 0.15000
C 	C 	0.97690 0.55220 0.76790 -0.19100
H 	H 	0.06020 0.57000 0.75130 0.06200
C 	C 	0.96680 0.55140 0.84110 0.14000
H 	H 	0.04610 0.56780 0.87300 -0.08600
C 	C 	0.74480 0.50170 0.74790 -0.21700
H 	H 	0.66590 0.48260 0.71710 0.08900
C 	C 	0.74080 0.50460 0.82180 0.11100
H 	H 	0.65720 0.48900 0.83940 -0.05000
N 	N 	0.84680 0.45340 0.59931 -0.25900
H 	H 	0.76170 0.43290 0.60860 0.06600
N 	N 	0.96170 0.34656 0.49941 -0.24000
H 	H 	0.05550 0.35850 0.49820 0.05200
N 	N 	0.85050 0.52860 0.86880 -0.30500
N 	N 	0.20110 0.07130 0.47926 -0.26800
