data_crystal

_cell_length_a 18.99000
_cell_length_b 18.99000
_cell_length_c 19.97300
_cell_angle_alpha 90.00000
_cell_angle_beta  90.00000
_cell_angle_gamma 90.00000

_symmetry_space_group_name_	'P 1'
_symmetry_space_group_name_H-M	'P 1'

loop_
_symmetry_equiv_pos_as_xyz
  x,y,z

loop_
_atom_site_label
_atom_site_type_symbol
_atom_site_fract_x
_atom_site_fract_y
_atom_site_fract_z
_atom_site_charge
N 	N 	0.36270 0.95820 0.44047 -0.09300
N 	N 	0.42540 0.99260 0.42942 -0.17300
C 	C 	0.41740 0.02570 0.37190 0.03100
H 	H 	0.45210 0.05490 0.35180 0.00700
C 	C 	0.35020 0.01210 0.34440 -0.12300
C 	C 	0.31780 0.96940 0.38970 0.09200
H 	H 	0.27150 0.95090 0.38610 0.00700
C 	C 	0.32340 0.03720 0.27950 0.15600
C 	C 	0.27170 0.00110 0.24570 -0.25300
H 	H 	0.25410 0.95830 0.26360 0.13200
C 	C 	0.24490 0.02650 0.18550 0.12200
H 	H 	0.20790 0.00190 0.16360 -0.01100
C 	C 	0.27190 0.08730 0.15760 -0.17500
C 	C 	0.32450 0.12200 0.19090 0.10700
H 	H 	0.34360 0.16370 0.17190 0.00700
C 	C 	0.35060 0.09810 0.25120 -0.19300
H 	H 	0.38700 0.12330 0.27330 0.09500
C 	C 	0.24170 0.11640 0.09390 0.37200
O 	O 	0.18760 0.08650 0.07032 -0.42500
O 	O 	0.27135 0.17040 0.07030 -0.42500
C 	C 	0.05120 0.00560 0.05930 0.26800
H 	H 	0.97080 0.10860 0.95990 0.71400
H 	H 	0.04520 0.03590 0.09920 -0.04900
H 	H 	0.09810 0.98300 0.06230 -0.43900
N 	N 	0.63730 0.04180 0.44047 -0.07900
N 	N 	0.57460 0.00740 0.42942 -0.20900
C 	C 	0.58260 0.97430 0.37190 0.05200
H 	H 	0.54790 0.94510 0.35180 0.01100
C 	C 	0.64980 0.98790 0.34440 -0.00500
C 	C 	0.68220 0.03060 0.38970 -0.02100
H 	H 	0.72850 0.04910 0.38610 0.03600
C 	C 	0.67660 0.96280 0.27950 0.04300
C 	C 	0.72830 0.99890 0.24570 -0.04400
H 	H 	0.74590 0.04170 0.26360 0.02600
C 	C 	0.75510 0.97350 0.18550 0.00400
H 	H 	0.79210 0.99810 0.16360 0.04900
C 	C 	0.72810 0.91270 0.15760 -0.09600
C 	C 	0.67550 0.87800 0.19090 0.03200
H 	H 	0.65640 0.83630 0.17190 0.03300
C 	C 	0.64940 0.90190 0.25120 -0.10000
H 	H 	0.61300 0.87670 0.27330 0.06600
C 	C 	0.75830 0.88360 0.09390 0.34700
O 	O 	0.81240 0.91350 0.07032 -0.40600
O 	O 	0.72865 0.82960 0.07030 -0.41800
C 	C 	0.94880 0.99440 0.05930 0.21400
H 	H 	0.02920 0.89140 0.95990 0.46200
H 	H 	0.95480 0.96410 0.09920 -0.02400
H 	H 	0.90190 0.01700 0.06230 -0.29700
N 	N 	0.95820 0.36270 0.55953 -0.09300
N 	N 	0.99260 0.42540 0.57058 -0.17400
C 	C 	0.02570 0.41740 0.62810 0.02800
H 	H 	0.05490 0.45210 0.64820 0.00600
C 	C 	0.01210 0.35020 0.65560 -0.12000
C 	C 	0.96940 0.31780 0.61030 0.08900
H 	H 	0.95090 0.27150 0.61390 0.00700
C 	C 	0.03720 0.32340 0.72050 0.14900
C 	C 	0.00110 0.27170 0.75430 -0.24300
H 	H 	0.95830 0.25410 0.73640 0.12900
C 	C 	0.02650 0.24490 0.81450 0.11300
H 	H 	0.00190 0.20790 0.83640 -0.00100
C 	C 	0.08730 0.27190 0.84240 -0.16000
C 	C 	0.12200 0.32450 0.80910 0.09900
H 	H 	0.16370 0.34360 0.82810 0.01300
C 	C 	0.09810 0.35060 0.74880 -0.18500
H 	H 	0.12330 0.38700 0.72670 0.09300
C 	C 	0.11640 0.24170 0.90610 0.36600
O 	O 	0.08650 0.18760 0.92968 -0.38900
O 	O 	0.17040 0.27135 0.92970 -0.38800
C 	C 	0.00560 0.05120 0.94070 0.32800
H 	H 	0.10860 0.97080 0.04010 0.60300
H 	H 	0.03590 0.04520 0.90080 -0.05800
H 	H 	0.98300 0.09810 0.93770 -0.52900
N 	N 	0.04180 0.63730 0.55953 -0.07900
N 	N 	0.00740 0.57460 0.57058 -0.20800
C 	C 	0.97430 0.58260 0.62810 0.05100
H 	H 	0.94510 0.54790 0.64820 0.01200
C 	C 	0.98790 0.64980 0.65560 -0.00500
C 	C 	0.03060 0.68220 0.61030 -0.02100
H 	H 	0.04910 0.72850 0.61390 0.03600
C 	C 	0.96280 0.67660 0.72050 0.04100
C 	C 	0.99890 0.72830 0.75430 -0.04100
H 	H 	0.04170 0.74590 0.73640 0.02800
C 	C 	0.97350 0.75510 0.81450 0.00200
H 	H 	0.99810 0.79210 0.83640 0.05600
C 	C 	0.91270 0.72810 0.84240 -0.08500
C 	C 	0.87800 0.67550 0.80910 0.02700
H 	H 	0.83630 0.65640 0.82810 0.03800
C 	C 	0.90190 0.64940 0.74880 -0.09500
H 	H 	0.87670 0.61300 0.72670 0.06500
C 	C 	0.88360 0.75830 0.90610 0.34200
O 	O 	0.91350 0.81240 0.92968 -0.37300
O 	O 	0.82960 0.72865 0.92970 -0.38200
C 	C 	0.99440 0.94880 0.94070 0.25500
H 	H 	0.89140 0.02920 0.04010 0.36300
H 	H 	0.96410 0.95480 0.90080 -0.03000
H 	H 	0.01700 0.90190 0.93770 -0.37100
N 	N 	0.63730 0.04180 0.55953 -0.07900
N 	N 	0.57460 0.00740 0.57058 -0.20800
C 	C 	0.58260 0.97430 0.62810 0.05100
H 	H 	0.54790 0.94510 0.64820 0.01200
C 	C 	0.64980 0.98790 0.65560 -0.00500
C 	C 	0.68220 0.03060 0.61030 -0.02100
H 	H 	0.72850 0.04910 0.61390 0.03600
C 	C 	0.67660 0.96280 0.72050 0.04100
C 	C 	0.72830 0.99890 0.75430 -0.04100
H 	H 	0.74590 0.04170 0.73640 0.02800
C 	C 	0.75510 0.97350 0.81450 0.00200
H 	H 	0.79210 0.99810 0.83640 0.05600
C 	C 	0.72810 0.91270 0.84240 -0.08500
C 	C 	0.67550 0.87800 0.80910 0.02700
H 	H 	0.65640 0.83630 0.82810 0.03800
C 	C 	0.64940 0.90190 0.74880 -0.09500
H 	H 	0.61300 0.87670 0.72670 0.06500
C 	C 	0.75830 0.88360 0.90610 0.34200
O 	O 	0.81240 0.91350 0.92968 -0.37300
O 	O 	0.72865 0.82960 0.92970 -0.38200
C 	C 	0.94880 0.99440 0.94070 0.25500
H 	H 	0.02920 0.89140 0.04010 0.36300
H 	H 	0.95480 0.96410 0.90080 -0.03000
H 	H 	0.90190 0.01700 0.93770 -0.37100
N 	N 	0.36270 0.95820 0.55953 -0.09300
N 	N 	0.42540 0.99260 0.57058 -0.17400
C 	C 	0.41740 0.02570 0.62810 0.02800
H 	H 	0.45210 0.05490 0.64820 0.00600
C 	C 	0.35020 0.01210 0.65560 -0.12000
C 	C 	0.31780 0.96940 0.61030 0.08900
H 	H 	0.27150 0.95090 0.61390 0.00700
C 	C 	0.32340 0.03720 0.72050 0.14900
C 	C 	0.27170 0.00110 0.75430 -0.24300
H 	H 	0.25410 0.95830 0.73640 0.12900
C 	C 	0.24490 0.02650 0.81450 0.11300
H 	H 	0.20790 0.00190 0.83640 -0.00100
C 	C 	0.27190 0.08730 0.84240 -0.16000
C 	C 	0.32450 0.12200 0.80910 0.09900
H 	H 	0.34360 0.16370 0.82810 0.01300
C 	C 	0.35060 0.09810 0.74880 -0.18500
H 	H 	0.38700 0.12330 0.72670 0.09300
C 	C 	0.24170 0.11640 0.90610 0.36600
O 	O 	0.18760 0.08650 0.92968 -0.38900
O 	O 	0.27135 0.17040 0.92970 -0.38800
C 	C 	0.05120 0.00560 0.94070 0.32800
H 	H 	0.97080 0.10860 0.04010 0.60300
H 	H 	0.04520 0.03590 0.90080 -0.05800
H 	H 	0.09810 0.98300 0.93770 -0.52900
N 	N 	0.04180 0.63730 0.44047 -0.07900
N 	N 	0.00740 0.57460 0.42942 -0.20900
C 	C 	0.97430 0.58260 0.37190 0.05200
H 	H 	0.94510 0.54790 0.35180 0.01100
C 	C 	0.98790 0.64980 0.34440 -0.00500
C 	C 	0.03060 0.68220 0.38970 -0.02100
H 	H 	0.04910 0.72850 0.38610 0.03600
C 	C 	0.96280 0.67660 0.27950 0.04300
C 	C 	0.99890 0.72830 0.24570 -0.04400
H 	H 	0.04170 0.74590 0.26360 0.02600
C 	C 	0.97350 0.75510 0.18550 0.00400
H 	H 	0.99810 0.79210 0.16360 0.04900
C 	C 	0.91270 0.72810 0.15760 -0.09600
C 	C 	0.87800 0.67550 0.19090 0.03200
H 	H 	0.83630 0.65640 0.17190 0.03300
C 	C 	0.90190 0.64940 0.25120 -0.10000
H 	H 	0.87670 0.61300 0.27330 0.06600
C 	C 	0.88360 0.75830 0.09390 0.34700
O 	O 	0.91350 0.81240 0.07032 -0.40600
O 	O 	0.82960 0.72865 0.07030 -0.41800
C 	C 	0.99440 0.94880 0.05930 0.21400
H 	H 	0.89140 0.02920 0.95990 0.46200
H 	H 	0.96410 0.95480 0.09920 -0.02400
H 	H 	0.01700 0.90190 0.06230 -0.29700
N 	N 	0.95820 0.36270 0.44047 -0.09400
N 	N 	0.99260 0.42540 0.42942 -0.17400
C 	C 	0.02570 0.41740 0.37190 0.03000
H 	H 	0.05490 0.45210 0.35180 0.00600
C 	C 	0.01210 0.35020 0.34440 -0.12400
C 	C 	0.96940 0.31780 0.38970 0.09100
H 	H 	0.95090 0.27150 0.38610 0.00600
C 	C 	0.03720 0.32340 0.27950 0.15500
C 	C 	0.00110 0.27170 0.24570 -0.25400
H 	H 	0.95830 0.25410 0.26360 0.13100
C 	C 	0.02650 0.24490 0.18550 0.12100
H 	H 	0.00190 0.20790 0.16360 -0.01200
C 	C 	0.08730 0.27190 0.15760 -0.17500
C 	C 	0.12200 0.32450 0.19090 0.10700
H 	H 	0.16370 0.34360 0.17190 0.00700
C 	C 	0.09810 0.35060 0.25120 -0.19300
H 	H 	0.12330 0.38700 0.27330 0.09500
C 	C 	0.11640 0.24170 0.09390 0.37200
O 	O 	0.08650 0.18760 0.07032 -0.42500
O 	O 	0.17040 0.27135 0.07030 -0.42500
C 	C 	0.00560 0.05120 0.05930 0.26800
H 	H 	0.10860 0.97080 0.95990 0.71400
H 	H 	0.03590 0.04520 0.09920 -0.04900
H 	H 	0.98300 0.09810 0.06230 -0.43900
Cu	Cu	0.12883 0.12883 -0.00000 0.89200
Cu	Cu	0.22742 0.22742 -0.00000 0.87800
N 	N 	0.04840 0.04840 -0.00000 -0.16200
Cu	Cu	0.87117 0.87117 -0.00000 0.89400
Cu	Cu	0.77258 0.77258 -0.00000 0.87800
N 	N 	0.95160 0.95160 -0.00000 -0.18400
C 	C 	0.35500 0.91490 0.50000 -0.02800
H 	H 	0.30800 0.89230 0.50000 0.04800
H 	H 	0.39110 0.87740 0.50000 0.04500
C 	C 	0.64500 0.08510 0.50000 -0.04500
H 	H 	0.69200 0.10770 0.50000 0.05300
H 	H 	0.60890 0.12260 0.50000 0.04700
C 	C 	0.91490 0.35500 0.50000 -0.02800
H 	H 	0.89230 0.30800 0.50000 0.04800
H 	H 	0.87740 0.39110 0.50000 0.04500
C 	C 	0.08510 0.64500 0.50000 -0.04500
H 	H 	0.10770 0.69200 0.50000 0.05300
H 	H 	0.12260 0.60890 0.50000 0.04700
Cu	Cu	0.50000 0.00000 0.50000 0.84900
Cu	Cu	0.00000 0.50000 0.50000 0.84900
C 	C 	0.97670 0.07850 -0.00000 -0.80400
C 	C 	0.02330 0.92150 -0.00000 -0.44400
C 	C 	0.07850 0.97670 -0.00000 -0.80400
C 	C 	0.92150 0.02330 -0.00000 -0.44400
N 	N 	0.54180 0.86270 0.94047 -0.05800
N 	N 	0.50740 0.92540 0.92942 -0.17000
C 	C 	0.47430 0.91740 0.87190 0.04300
H 	H 	0.44510 0.95210 0.85180 0.02100
C 	C 	0.48790 0.85020 0.84440 -0.05700
C 	C 	0.53060 0.81780 0.88970 0.03400
H 	H 	0.54910 0.77150 0.88610 0.03100
C 	C 	0.46280 0.82340 0.77950 0.10000
C 	C 	0.49890 0.77170 0.74570 -0.14400
H 	H 	0.54170 0.75410 0.76360 0.07900
C 	C 	0.47350 0.74490 0.68550 0.06400
H 	H 	0.49810 0.70790 0.66360 0.02100
C 	C 	0.41270 0.77190 0.65760 -0.13300
C 	C 	0.37800 0.82450 0.69090 0.07200
H 	H 	0.33630 0.84360 0.67190 0.02200
C 	C 	0.40190 0.85060 0.75120 -0.14400
H 	H 	0.37670 0.88700 0.77330 0.08700
C 	C 	0.38360 0.74170 0.59390 0.36100
O 	O 	0.41350 0.68760 0.57032 -0.40600
O 	O 	0.32960 0.77135 0.57030 -0.41300
C 	C 	0.49440 0.55120 0.55930 -0.01300
H 	H 	0.39140 0.47080 0.45990 0.03600
H 	H 	0.46410 0.54520 0.59920 0.01800
H 	H 	0.51700 0.59810 0.56230 0.01600
N 	N 	0.45820 0.13730 0.94047 -0.05800
N 	N 	0.49260 0.07460 0.92942 -0.18200
C 	C 	0.52570 0.08260 0.87190 0.04000
H 	H 	0.55490 0.04790 0.85180 0.00400
C 	C 	0.51210 0.14980 0.84440 -0.05800
C 	C 	0.46940 0.18220 0.88970 0.03300
H 	H 	0.45090 0.22850 0.88610 0.03200
C 	C 	0.53720 0.17660 0.77950 0.09500
C 	C 	0.50110 0.22830 0.74570 -0.14200
H 	H 	0.45830 0.24590 0.76360 0.07800
C 	C 	0.52650 0.25510 0.68550 0.06000
H 	H 	0.50190 0.29210 0.66360 0.02100
C 	C 	0.58730 0.22810 0.65760 -0.13100
C 	C 	0.62200 0.17550 0.69090 0.06400
H 	H 	0.66370 0.15640 0.67190 0.02200
C 	C 	0.59810 0.14940 0.75120 -0.14100
H 	H 	0.62330 0.11300 0.77330 0.07600
C 	C 	0.61640 0.25830 0.59390 0.36000
O 	O 	0.58650 0.31240 0.57032 -0.40600
O 	O 	0.67040 0.22865 0.57030 -0.41300
C 	C 	0.50560 0.44880 0.55930 -0.01100
H 	H 	0.60860 0.52920 0.45990 0.03500
H 	H 	0.53590 0.45480 0.59920 0.01900
H 	H 	0.48300 0.40190 0.56230 0.01400
N 	N 	0.13730 0.45820 0.05953 -0.08700
N 	N 	0.07460 0.49260 0.07058 -0.20400
C 	C 	0.08260 0.52570 0.12810 0.03500
H 	H 	0.04790 0.55490 0.14820 -0.00200
C 	C 	0.14980 0.51210 0.15560 -0.06400
C 	C 	0.18220 0.46940 0.11030 0.02700
H 	H 	0.22850 0.45090 0.11390 0.01800
C 	C 	0.17660 0.53720 0.22050 0.09000
C 	C 	0.22830 0.50110 0.25430 -0.14300
H 	H 	0.24590 0.45830 0.23640 0.07400
C 	C 	0.25510 0.52650 0.31450 0.05700
H 	H 	0.29210 0.50190 0.33640 0.02000
C 	C 	0.22810 0.58730 0.34240 -0.13100
C 	C 	0.17550 0.62200 0.30910 0.06200
H 	H 	0.15640 0.66370 0.32810 0.02200
C 	C 	0.14940 0.59810 0.24880 -0.14200
H 	H 	0.11300 0.62330 0.22670 0.07100
C 	C 	0.25830 0.61640 0.40610 0.35900
O 	O 	0.31240 0.58650 0.42968 -0.40700
O 	O 	0.22865 0.67040 0.42970 -0.41300
C 	C 	0.44880 0.50560 0.44070 -0.01100
H 	H 	0.52920 0.60860 0.54010 0.03400
H 	H 	0.45480 0.53590 0.40080 0.01800
H 	H 	0.40190 0.48300 0.43770 0.01200
N 	N 	0.86270 0.54180 0.05953 -0.08600
N 	N 	0.92540 0.50740 0.07058 -0.19200
C 	C 	0.91740 0.47430 0.12810 0.03900
H 	H 	0.95210 0.44510 0.14820 0.01600
C 	C 	0.85020 0.48790 0.15560 -0.06200
C 	C 	0.81780 0.53060 0.11030 0.02700
H 	H 	0.77150 0.54910 0.11390 0.01700
C 	C 	0.82340 0.46280 0.22050 0.09600
C 	C 	0.77170 0.49890 0.25430 -0.14400
H 	H 	0.75410 0.54170 0.23640 0.07500
C 	C 	0.74490 0.47350 0.31450 0.06100
H 	H 	0.70790 0.49810 0.33640 0.02000
C 	C 	0.77190 0.41270 0.34240 -0.13300
C 	C 	0.82450 0.37800 0.30910 0.06900
H 	H 	0.84360 0.33630 0.32810 0.02100
C 	C 	0.85060 0.40190 0.24880 -0.14500
H 	H 	0.88700 0.37670 0.22670 0.08300
C 	C 	0.74170 0.38360 0.40610 0.36100
O 	O 	0.68760 0.41350 0.42968 -0.40700
O 	O 	0.77135 0.32960 0.42970 -0.41300
C 	C 	0.55120 0.49440 0.44070 -0.01300
H 	H 	0.47080 0.39140 0.54010 0.03500
H 	H 	0.54520 0.46410 0.40080 0.01700
H 	H 	0.59810 0.51700 0.43770 0.01400
N 	N 	0.45820 0.13730 0.05953 -0.08700
N 	N 	0.49260 0.07460 0.07058 -0.20400
C 	C 	0.52570 0.08260 0.12810 0.03500
H 	H 	0.55490 0.04790 0.14820 -0.00200
C 	C 	0.51210 0.14980 0.15560 -0.06400
C 	C 	0.46940 0.18220 0.11030 0.02700
H 	H 	0.45090 0.22850 0.11390 0.01800
C 	C 	0.53720 0.17660 0.22050 0.09000
C 	C 	0.50110 0.22830 0.25430 -0.14300
H 	H 	0.45830 0.24590 0.23640 0.07400
C 	C 	0.52650 0.25510 0.31450 0.05700
H 	H 	0.50190 0.29210 0.33640 0.02000
C 	C 	0.58730 0.22810 0.34240 -0.13100
C 	C 	0.62200 0.17550 0.30910 0.06200
H 	H 	0.66370 0.15640 0.32810 0.02200
C 	C 	0.59810 0.14940 0.24880 -0.14200
H 	H 	0.62330 0.11300 0.22670 0.07100
C 	C 	0.61640 0.25830 0.40610 0.35900
O 	O 	0.58650 0.31240 0.42968 -0.40700
O 	O 	0.67040 0.22865 0.42970 -0.41300
C 	C 	0.50560 0.44880 0.44070 -0.01100
H 	H 	0.60860 0.52920 0.54010 0.03400
H 	H 	0.53590 0.45480 0.40080 0.01800
H 	H 	0.48300 0.40190 0.43770 0.01200
N 	N 	0.54180 0.86270 0.05953 -0.08600
N 	N 	0.50740 0.92540 0.07058 -0.19200
C 	C 	0.47430 0.91740 0.12810 0.03900
H 	H 	0.44510 0.95210 0.14820 0.01600
C 	C 	0.48790 0.85020 0.15560 -0.06200
C 	C 	0.53060 0.81780 0.11030 0.02700
H 	H 	0.54910 0.77150 0.11390 0.01700
C 	C 	0.46280 0.82340 0.22050 0.09600
C 	C 	0.49890 0.77170 0.25430 -0.14400
H 	H 	0.54170 0.75410 0.23640 0.07500
C 	C 	0.47350 0.74490 0.31450 0.06100
H 	H 	0.49810 0.70790 0.33640 0.02000
C 	C 	0.41270 0.77190 0.34240 -0.13300
C 	C 	0.37800 0.82450 0.30910 0.06900
H 	H 	0.33630 0.84360 0.32810 0.02100
C 	C 	0.40190 0.85060 0.24880 -0.14500
H 	H 	0.37670 0.88700 0.22670 0.08300
C 	C 	0.38360 0.74170 0.40610 0.36100
O 	O 	0.41350 0.68760 0.42968 -0.40700
O 	O 	0.32960 0.77135 0.42970 -0.41300
C 	C 	0.49440 0.55120 0.44070 -0.01300
H 	H 	0.39140 0.47080 0.54010 0.03500
H 	H 	0.46410 0.54520 0.40080 0.01700
H 	H 	0.51700 0.59810 0.43770 0.01400
N 	N 	0.86270 0.54180 0.94047 -0.05800
N 	N 	0.92540 0.50740 0.92942 -0.17000
C 	C 	0.91740 0.47430 0.87190 0.04300
H 	H 	0.95210 0.44510 0.85180 0.02100
C 	C 	0.85020 0.48790 0.84440 -0.05700
C 	C 	0.81780 0.53060 0.88970 0.03400
H 	H 	0.77150 0.54910 0.88610 0.03100
C 	C 	0.82340 0.46280 0.77950 0.10000
C 	C 	0.77170 0.49890 0.74570 -0.14400
H 	H 	0.75410 0.54170 0.76360 0.07900
C 	C 	0.74490 0.47350 0.68550 0.06400
H 	H 	0.70790 0.49810 0.66360 0.02100
C 	C 	0.77190 0.41270 0.65760 -0.13300
C 	C 	0.82450 0.37800 0.69090 0.07200
H 	H 	0.84360 0.33630 0.67190 0.02200
C 	C 	0.85060 0.40190 0.75120 -0.14400
H 	H 	0.88700 0.37670 0.77330 0.08700
C 	C 	0.74170 0.38360 0.59390 0.36100
O 	O 	0.68760 0.41350 0.57032 -0.40600
O 	O 	0.77135 0.32960 0.57030 -0.41300
C 	C 	0.55120 0.49440 0.55930 -0.01300
H 	H 	0.47080 0.39140 0.45990 0.03600
H 	H 	0.54520 0.46410 0.59920 0.01800
H 	H 	0.59810 0.51700 0.56230 0.01600
N 	N 	0.13730 0.45820 0.94047 -0.05800
N 	N 	0.07460 0.49260 0.92942 -0.18200
C 	C 	0.08260 0.52570 0.87190 0.04000
H 	H 	0.04790 0.55490 0.85180 0.00400
C 	C 	0.14980 0.51210 0.84440 -0.05800
C 	C 	0.18220 0.46940 0.88970 0.03300
H 	H 	0.22850 0.45090 0.88610 0.03200
C 	C 	0.17660 0.53720 0.77950 0.09500
C 	C 	0.22830 0.50110 0.74570 -0.14200
H 	H 	0.24590 0.45830 0.76360 0.07800
C 	C 	0.25510 0.52650 0.68550 0.06000
H 	H 	0.29210 0.50190 0.66360 0.02100
C 	C 	0.22810 0.58730 0.65760 -0.13100
C 	C 	0.17550 0.62200 0.69090 0.06400
H 	H 	0.15640 0.66370 0.67190 0.02200
C 	C 	0.14940 0.59810 0.75120 -0.14100
H 	H 	0.11300 0.62330 0.77330 0.07600
C 	C 	0.25830 0.61640 0.59390 0.36000
O 	O 	0.31240 0.58650 0.57032 -0.40600
O 	O 	0.22865 0.67040 0.57030 -0.41300
C 	C 	0.44880 0.50560 0.55930 -0.01100
H 	H 	0.52920 0.60860 0.45990 0.03500
H 	H 	0.45480 0.53590 0.59920 0.01900
H 	H 	0.40190 0.48300 0.56230 0.01400
Cu	Cu	0.37117 0.62883 0.50000 0.91400
Cu	Cu	0.27258 0.72742 0.50000 0.90100
N 	N 	0.45160 0.54840 0.50000 -0.15000
Cu	Cu	0.62883 0.37117 0.50000 0.91400
Cu	Cu	0.72742 0.27258 0.50000 0.90100
N 	N 	0.54840 0.45160 0.50000 -0.15000
C 	C 	0.58510 0.85500 -0.00000 -0.08000
H 	H 	0.60770 0.80800 -0.00000 0.04600
H 	H 	0.62260 0.89110 -0.00000 0.04400
C 	C 	0.41490 0.14500 -0.00000 -0.08200
H 	H 	0.39230 0.19200 -0.00000 0.04600
H 	H 	0.37740 0.10890 -0.00000 0.03800
C 	C 	0.14500 0.41490 -0.00000 -0.08200
H 	H 	0.19200 0.39230 -0.00000 0.04600
H 	H 	0.10890 0.37740 -0.00000 0.03800
C 	C 	0.85500 0.58510 -0.00000 -0.08000
H 	H 	0.80800 0.60770 -0.00000 0.04600
H 	H 	0.89110 0.62260 -0.00000 0.04400
Cu	Cu	0.50000 0.00000 -0.00000 0.82700
Cu	Cu	-0.00000 0.50000 -0.00000 0.82700
C 	C 	0.42150 0.47670 0.50000 -0.04200
C 	C 	0.57850 0.52330 0.50000 -0.04000
C 	C 	0.52330 0.57850 0.50000 -0.04000
C 	C 	0.47670 0.42150 0.50000 -0.04200
