data_crystal

_cell_length_a 19.11100
_cell_length_b 19.11100
_cell_length_c 19.91500
_cell_angle_alpha 90.00000
_cell_angle_beta  90.00000
_cell_angle_gamma 90.00000

_symmetry_space_group_name_	'P 1'
_symmetry_space_group_name_H-M	'P 1'

loop_
_symmetry_equiv_pos_as_xyz
  x,y,z

loop_
_atom_site_label
_atom_site_type_symbol
_atom_site_fract_x
_atom_site_fract_y
_atom_site_fract_z
_atom_site_charge
N 	N 	0.45800 0.86390 0.94051 -0.02900
N 	N 	0.49200 0.92530 0.92965 -0.15700
C 	C 	0.52560 0.91760 0.87190 0.04200
H 	H 	0.55490 0.95200 0.85200 0.02200
C 	C 	0.51180 0.85180 0.84440 -0.04600
C 	C 	0.46910 0.81910 0.88980 0.03300
H 	H 	0.45070 0.77310 0.88600 0.04400
C 	C 	0.53730 0.82470 0.77910 0.09200
C 	C 	0.49980 0.77400 0.74400 -0.13300
H 	H 	0.45690 0.75700 0.76160 0.07800
C 	C 	0.52470 0.74830 0.68370 0.05800
H 	H 	0.49850 0.71400 0.66000 0.02400
C 	C 	0.58740 0.77220 0.65760 -0.12300
C 	C 	0.62450 0.82320 0.69160 0.05900
H 	H 	0.66710 0.84050 0.67360 0.02600
C 	C 	0.59930 0.84900 0.75210 -0.13000
H 	H 	0.62510 0.88400 0.77530 0.08200
C 	C 	0.61750 0.74250 0.59420 0.35500
O 	O 	0.58776 0.68798 0.57055 -0.39900
O 	O 	0.67092 0.77154 0.57040 -0.41300
C 	C 	0.55220 0.49730 0.45720 -0.00100
H 	H 	0.58940 0.49410 0.42570 0.03500
N 	N 	0.54200 0.13610 0.94051 -0.03100
N 	N 	0.50800 0.07470 0.92965 -0.16400
C 	C 	0.47440 0.08240 0.87190 0.03900
H 	H 	0.44510 0.04800 0.85200 0.01300
C 	C 	0.48820 0.14820 0.84440 -0.04800
C 	C 	0.53090 0.18090 0.88980 0.03100
H 	H 	0.54930 0.22690 0.88600 0.04300
C 	C 	0.46270 0.17530 0.77910 0.09000
C 	C 	0.50020 0.22600 0.74400 -0.13400
H 	H 	0.54310 0.24300 0.76160 0.07700
C 	C 	0.47530 0.25170 0.68370 0.05700
H 	H 	0.50150 0.28600 0.66000 0.02400
C 	C 	0.41260 0.22780 0.65760 -0.12300
C 	C 	0.37550 0.17680 0.69160 0.05700
H 	H 	0.33290 0.15950 0.67360 0.02400
C 	C 	0.40070 0.15100 0.75210 -0.13200
H 	H 	0.37490 0.11600 0.77530 0.07900
C 	C 	0.38250 0.25750 0.59420 0.35500
O 	O 	0.41224 0.31202 0.57055 -0.39900
O 	O 	0.32908 0.22846 0.57040 -0.41400
C 	C 	0.44780 0.50270 0.45720 -0.00100
H 	H 	0.41060 0.50590 0.42570 0.03500
N 	N 	0.86390 0.45800 0.05949 -0.08300
N 	N 	0.92530 0.49200 0.07035 -0.19900
C 	C 	0.91760 0.52560 0.12810 0.03100
H 	H 	0.95200 0.55490 0.14800 0.01200
C 	C 	0.85180 0.51180 0.15560 -0.05600
C 	C 	0.81910 0.46910 0.11020 0.01900
H 	H 	0.77310 0.45070 0.11400 0.01600
C 	C 	0.82470 0.53730 0.22090 0.08300
C 	C 	0.77400 0.49980 0.25600 -0.13500
H 	H 	0.75700 0.45690 0.23840 0.07100
C 	C 	0.74830 0.52470 0.31630 0.05300
H 	H 	0.71400 0.49850 0.34000 0.02200
C 	C 	0.77220 0.58740 0.34240 -0.12300
C 	C 	0.82320 0.62450 0.30840 0.05400
H 	H 	0.84050 0.66710 0.32640 0.02500
C 	C 	0.84900 0.59930 0.24790 -0.13100
H 	H 	0.88400 0.62510 0.22470 0.07400
C 	C 	0.74250 0.61750 0.40580 0.35300
O 	O 	0.68798 0.58776 0.42945 -0.40000
O 	O 	0.77154 0.67092 0.42960 -0.41400
C 	C 	0.49730 0.55220 0.54280 -0.00000
H 	H 	0.49410 0.58940 0.57430 0.03700
N 	N 	0.13610 0.54200 0.05949 -0.08400
N 	N 	0.07470 0.50800 0.07035 -0.20600
C 	C 	0.08240 0.47440 0.12810 0.02800
H 	H 	0.04800 0.44510 0.14800 0.00300
C 	C 	0.14820 0.48820 0.15560 -0.05800
C 	C 	0.18090 0.53090 0.11020 0.01800
H 	H 	0.22690 0.54930 0.11400 0.01600
C 	C 	0.17530 0.46270 0.22090 0.08100
C 	C 	0.22600 0.50020 0.25600 -0.13500
H 	H 	0.24300 0.54310 0.23840 0.07000
C 	C 	0.25170 0.47530 0.31630 0.05200
H 	H 	0.28600 0.50150 0.34000 0.02300
C 	C 	0.22780 0.41260 0.34240 -0.12400
C 	C 	0.17680 0.37550 0.30840 0.05200
H 	H 	0.15950 0.33290 0.32640 0.02300
C 	C 	0.15100 0.40070 0.24790 -0.13300
H 	H 	0.11600 0.37490 0.22470 0.07000
C 	C 	0.25750 0.38250 0.40580 0.35300
O 	O 	0.31202 0.41224 0.42945 -0.40100
O 	O 	0.22846 0.32908 0.42960 -0.41500
C 	C 	0.50270 0.44780 0.54280 -0.00000
H 	H 	0.50590 0.41060 0.57430 0.03700
N 	N 	0.54200 0.13610 0.05949 -0.08400
N 	N 	0.50800 0.07470 0.07035 -0.20600
C 	C 	0.47440 0.08240 0.12810 0.02800
H 	H 	0.44510 0.04800 0.14800 0.00300
C 	C 	0.48820 0.14820 0.15560 -0.05800
C 	C 	0.53090 0.18090 0.11020 0.01800
H 	H 	0.54930 0.22690 0.11400 0.01600
C 	C 	0.46270 0.17530 0.22090 0.08100
C 	C 	0.50020 0.22600 0.25600 -0.13500
H 	H 	0.54310 0.24300 0.23840 0.07000
C 	C 	0.47530 0.25170 0.31630 0.05200
H 	H 	0.50150 0.28600 0.34000 0.02300
C 	C 	0.41260 0.22780 0.34240 -0.12400
C 	C 	0.37550 0.17680 0.30840 0.05200
H 	H 	0.33290 0.15950 0.32640 0.02300
C 	C 	0.40070 0.15100 0.24790 -0.13300
H 	H 	0.37490 0.11600 0.22470 0.07000
C 	C 	0.38250 0.25750 0.40580 0.35300
O 	O 	0.41224 0.31202 0.42945 -0.40100
O 	O 	0.32908 0.22846 0.42960 -0.41500
C 	C 	0.44780 0.50270 0.54280 -0.00000
H 	H 	0.41060 0.50590 0.57430 0.03700
N 	N 	0.45800 0.86390 0.05949 -0.08300
N 	N 	0.49200 0.92530 0.07035 -0.19900
C 	C 	0.52560 0.91760 0.12810 0.03100
H 	H 	0.55490 0.95200 0.14800 0.01200
C 	C 	0.51180 0.85180 0.15560 -0.05600
C 	C 	0.46910 0.81910 0.11020 0.01900
H 	H 	0.45070 0.77310 0.11400 0.01600
C 	C 	0.53730 0.82470 0.22090 0.08300
C 	C 	0.49980 0.77400 0.25600 -0.13500
H 	H 	0.45690 0.75700 0.23840 0.07100
C 	C 	0.52470 0.74830 0.31630 0.05300
H 	H 	0.49850 0.71400 0.34000 0.02200
C 	C 	0.58740 0.77220 0.34240 -0.12300
C 	C 	0.62450 0.82320 0.30840 0.05400
H 	H 	0.66710 0.84050 0.32640 0.02500
C 	C 	0.59930 0.84900 0.24790 -0.13100
H 	H 	0.62510 0.88400 0.22470 0.07400
C 	C 	0.61750 0.74250 0.40580 0.35300
O 	O 	0.58776 0.68798 0.42945 -0.40000
O 	O 	0.67092 0.77154 0.42960 -0.41400
C 	C 	0.55220 0.49730 0.54280 -0.00000
H 	H 	0.58940 0.49410 0.57430 0.03700
N 	N 	0.13610 0.54200 0.94051 -0.03100
N 	N 	0.07470 0.50800 0.92965 -0.16400
C 	C 	0.08240 0.47440 0.87190 0.03900
H 	H 	0.04800 0.44510 0.85200 0.01300
C 	C 	0.14820 0.48820 0.84440 -0.04800
C 	C 	0.18090 0.53090 0.88980 0.03100
H 	H 	0.22690 0.54930 0.88600 0.04300
C 	C 	0.17530 0.46270 0.77910 0.09000
C 	C 	0.22600 0.50020 0.74400 -0.13400
H 	H 	0.24300 0.54310 0.76160 0.07700
C 	C 	0.25170 0.47530 0.68370 0.05700
H 	H 	0.28600 0.50150 0.66000 0.02400
C 	C 	0.22780 0.41260 0.65760 -0.12300
C 	C 	0.17680 0.37550 0.69160 0.05700
H 	H 	0.15950 0.33290 0.67360 0.02400
C 	C 	0.15100 0.40070 0.75210 -0.13200
H 	H 	0.11600 0.37490 0.77530 0.07900
C 	C 	0.25750 0.38250 0.59420 0.35500
O 	O 	0.31202 0.41224 0.57055 -0.39900
O 	O 	0.22846 0.32908 0.57040 -0.41400
C 	C 	0.50270 0.44780 0.45720 -0.00100
H 	H 	0.50590 0.41060 0.42570 0.03500
N 	N 	0.86390 0.45800 0.94051 -0.03000
N 	N 	0.92530 0.49200 0.92965 -0.15800
C 	C 	0.91760 0.52560 0.87190 0.04100
H 	H 	0.95200 0.55490 0.85200 0.02100
C 	C 	0.85180 0.51180 0.84440 -0.04700
C 	C 	0.81910 0.46910 0.88980 0.03200
H 	H 	0.77310 0.45070 0.88600 0.04300
C 	C 	0.82470 0.53730 0.77910 0.09100
C 	C 	0.77400 0.49980 0.74400 -0.13400
H 	H 	0.75700 0.45690 0.76160 0.07800
C 	C 	0.74830 0.52470 0.68370 0.05800
H 	H 	0.71400 0.49850 0.66000 0.02400
C 	C 	0.77220 0.58740 0.65760 -0.12300
C 	C 	0.82320 0.62450 0.69160 0.05900
H 	H 	0.84050 0.66710 0.67360 0.02600
C 	C 	0.84900 0.59930 0.75210 -0.13000
H 	H 	0.88400 0.62510 0.77530 0.08200
C 	C 	0.74250 0.61750 0.59420 0.35500
O 	O 	0.68798 0.58776 0.57055 -0.39900
O 	O 	0.77154 0.67092 0.57040 -0.41300
C 	C 	0.49730 0.55220 0.45720 -0.00100
H 	H 	0.49410 0.58940 0.42570 0.03500
Cu	Cu	0.63126 0.63126 0.50000 0.91400
Cu	Cu	0.72847 0.72847 0.50000 0.89900
N 	N 	0.55110 0.55110 0.50000 -0.16900
Cu	Cu	0.36874 0.36874 0.50000 0.91400
Cu	Cu	0.27153 0.27153 0.50000 0.89800
N 	N 	0.44890 0.44890 0.50000 -0.16900
C 	C 	0.41540 0.85420 -0.00000 -0.12200
H 	H 	0.37650 0.88840 -0.00000 0.04300
H 	H 	0.39510 0.80650 -0.00000 0.04200
C 	C 	0.58460 0.14580 -0.00000 -0.12400
H 	H 	0.62350 0.11160 -0.00000 0.03900
H 	H 	0.60490 0.19350 -0.00000 0.04100
C 	C 	0.85420 0.41540 -0.00000 -0.12200
H 	H 	0.88840 0.37650 -0.00000 0.04300
H 	H 	0.80650 0.39510 -0.00000 0.04200
C 	C 	0.14580 0.58460 -0.00000 -0.12400
H 	H 	0.11160 0.62350 -0.00000 0.03900
H 	H 	0.19350 0.60490 -0.00000 0.04100
Cu	Cu	0.50000 0.00000 -0.00000 0.81400
Cu	Cu	0.00000 0.50000 -0.00000 0.81400
N 	N 	0.63610 0.95800 0.44051 -0.08500
N 	N 	0.57470 0.99200 0.42965 -0.17900
C 	C 	0.58240 0.02560 0.37190 0.01300
H 	H 	0.54800 0.05490 0.35200 0.01500
C 	C 	0.64820 0.01180 0.34440 -0.04900
C 	C 	0.68090 0.96910 0.38980 0.04000
H 	H 	0.72690 0.95070 0.38600 0.02300
C 	C 	0.67530 0.03730 0.27910 0.03000
C 	C 	0.72600 0.99980 0.24400 -0.04100
H 	H 	0.74300 0.95690 0.26160 0.04400
C 	C 	0.75170 0.02470 0.18370 -0.04500
H 	H 	0.78600 0.99850 0.16000 0.06100
C 	C 	0.72780 0.08740 0.15760 -0.08100
C 	C 	0.67680 0.12450 0.19160 0.01300
H 	H 	0.65950 0.16710 0.17360 0.03700
C 	C 	0.65100 0.09930 0.25210 -0.09000
H 	H 	0.61600 0.12510 0.27530 0.06100
C 	C 	0.75750 0.11750 0.09420 0.33500
O 	O 	0.81202 0.08776 0.07055 -0.41800
O 	O 	0.72846 0.17092 0.07040 -0.42600
C 	C 	0.00270 0.05220 0.95720 0.04800
H 	H 	0.00590 0.08940 0.92570 0.03100
N 	N 	0.36390 0.04200 0.44051 -0.08500
N 	N 	0.42530 0.00800 0.42965 -0.20300
C 	C 	0.41760 0.97440 0.37190 0.06000
H 	H 	0.45200 0.94510 0.35200 0.00500
C 	C 	0.35180 0.98820 0.34440 -0.06400
C 	C 	0.31910 0.03090 0.38980 0.02000
H 	H 	0.27310 0.04930 0.38600 0.02000
C 	C 	0.32470 0.96270 0.27910 0.15000
C 	C 	0.27400 0.00020 0.24400 -0.24000
H 	H 	0.25700 0.04310 0.26160 0.10200
C 	C 	0.24830 0.97530 0.18370 0.16200
H 	H 	0.21400 0.00150 0.16000 -0.03000
C 	C 	0.27220 0.91260 0.15760 -0.18100
C 	C 	0.32320 0.87550 0.19160 0.10700
H 	H 	0.34050 0.83290 0.17360 0.00700
C 	C 	0.34900 0.90070 0.25210 -0.18200
H 	H 	0.38400 0.87490 0.27530 0.09300
C 	C 	0.24250 0.88250 0.09420 0.37300
O 	O 	0.18798 0.91224 0.07055 -0.41900
O 	O 	0.27154 0.82908 0.07040 -0.43400
C 	C 	0.99730 0.94780 0.95720 0.07800
H 	H 	0.99410 0.91060 0.92570 0.03100
N 	N 	0.04200 0.36390 0.55949 -0.08500
N 	N 	0.00800 0.42530 0.57035 -0.20200
C 	C 	0.97440 0.41760 0.62810 0.05700
H 	H 	0.94510 0.45200 0.64800 0.00500
C 	C 	0.98820 0.35180 0.65560 -0.06000
C 	C 	0.03090 0.31910 0.61020 0.01800
H 	H 	0.04930 0.27310 0.61400 0.02200
C 	C 	0.96270 0.32470 0.72090 0.13900
C 	C 	0.00020 0.27400 0.75600 -0.22100
H 	H 	0.04310 0.25700 0.73840 0.10100
C 	C 	0.97530 0.24830 0.81630 0.14500
H 	H 	0.00150 0.21400 0.84000 -0.00900
C 	C 	0.91260 0.27220 0.84240 -0.15300
C 	C 	0.87550 0.32320 0.80840 0.09100
H 	H 	0.83290 0.34050 0.82640 0.01900
C 	C 	0.90070 0.34900 0.74790 -0.16800
H 	H 	0.87490 0.38400 0.72470 0.08800
C 	C 	0.88250 0.24250 0.90580 0.36200
O 	O 	0.91224 0.18798 0.92945 -0.35400
O 	O 	0.82908 0.27154 0.92960 -0.36400
C 	C 	0.94780 0.99730 0.04280 -0.00500
H 	H 	0.91060 0.99410 0.07430 0.03300
N 	N 	0.95800 0.63610 0.55949 -0.08500
N 	N 	0.99200 0.57470 0.57035 -0.17900
C 	C 	0.02560 0.58240 0.62810 0.01200
H 	H 	0.05490 0.54800 0.64800 0.01500
C 	C 	0.01180 0.64820 0.65560 -0.04700
C 	C 	0.96910 0.68090 0.61020 0.03800
H 	H 	0.95070 0.72690 0.61400 0.02400
C 	C 	0.03730 0.67530 0.72090 0.02700
C 	C 	0.99980 0.72600 0.75600 -0.03600
H 	H 	0.95690 0.74300 0.73840 0.04700
C 	C 	0.02470 0.75170 0.81630 -0.04600
H 	H 	0.99850 0.78600 0.84000 0.07500
C 	C 	0.08740 0.72780 0.84240 -0.06000
C 	C 	0.12450 0.67680 0.80840 0.00500
H 	H 	0.16710 0.65950 0.82640 0.04700
C 	C 	0.09930 0.65100 0.74790 -0.08300
H 	H 	0.12510 0.61600 0.72470 0.05900
C 	C 	0.11750 0.75750 0.90580 0.32700
O 	O 	0.08776 0.81202 0.92945 -0.35300
O 	O 	0.17092 0.72846 0.92960 -0.35600
C 	C 	0.05220 0.00270 0.04280 -0.04500
H 	H 	0.08940 0.00590 0.07430 0.03500
N 	N 	0.36390 0.04200 0.55949 -0.08500
N 	N 	0.42530 0.00800 0.57035 -0.20200
C 	C 	0.41760 0.97440 0.62810 0.05700
H 	H 	0.45200 0.94510 0.64800 0.00500
C 	C 	0.35180 0.98820 0.65560 -0.06000
C 	C 	0.31910 0.03090 0.61020 0.01800
H 	H 	0.27310 0.04930 0.61400 0.02200
C 	C 	0.32470 0.96270 0.72090 0.13900
C 	C 	0.27400 0.00020 0.75600 -0.22100
H 	H 	0.25700 0.04310 0.73840 0.10100
C 	C 	0.24830 0.97530 0.81630 0.14500
H 	H 	0.21400 0.00150 0.84000 -0.00900
C 	C 	0.27220 0.91260 0.84240 -0.15300
C 	C 	0.32320 0.87550 0.80840 0.09100
H 	H 	0.34050 0.83290 0.82640 0.01900
C 	C 	0.34900 0.90070 0.74790 -0.16800
H 	H 	0.38400 0.87490 0.72470 0.08800
C 	C 	0.24250 0.88250 0.90580 0.36200
O 	O 	0.18798 0.91224 0.92945 -0.35400
O 	O 	0.27154 0.82908 0.92960 -0.36400
C 	C 	0.99730 0.94780 0.04280 -0.00500
H 	H 	0.99410 0.91060 0.07430 0.03300
N 	N 	0.63610 0.95800 0.55949 -0.08500
N 	N 	0.57470 0.99200 0.57035 -0.17900
C 	C 	0.58240 0.02560 0.62810 0.01200
H 	H 	0.54800 0.05490 0.64800 0.01500
C 	C 	0.64820 0.01180 0.65560 -0.04700
C 	C 	0.68090 0.96910 0.61020 0.03800
H 	H 	0.72690 0.95070 0.61400 0.02400
C 	C 	0.67530 0.03730 0.72090 0.02700
C 	C 	0.72600 0.99980 0.75600 -0.03600
H 	H 	0.74300 0.95690 0.73840 0.04700
C 	C 	0.75170 0.02470 0.81630 -0.04600
H 	H 	0.78600 0.99850 0.84000 0.07500
C 	C 	0.72780 0.08740 0.84240 -0.06000
C 	C 	0.67680 0.12450 0.80840 0.00500
H 	H 	0.65950 0.16710 0.82640 0.04700
C 	C 	0.65100 0.09930 0.74790 -0.08300
H 	H 	0.61600 0.12510 0.72470 0.05900
C 	C 	0.75750 0.11750 0.90580 0.32700
O 	O 	0.81202 0.08776 0.92945 -0.35300
O 	O 	0.72846 0.17092 0.92960 -0.35600
C 	C 	0.00270 0.05220 0.04280 -0.04500
H 	H 	0.00590 0.08940 0.07430 0.03500
N 	N 	0.95800 0.63610 0.44051 -0.08500
N 	N 	0.99200 0.57470 0.42965 -0.17900
C 	C 	0.02560 0.58240 0.37190 0.01300
H 	H 	0.05490 0.54800 0.35200 0.01500
C 	C 	0.01180 0.64820 0.34440 -0.04900
C 	C 	0.96910 0.68090 0.38980 0.04000
H 	H 	0.95070 0.72690 0.38600 0.02300
C 	C 	0.03730 0.67530 0.27910 0.03000
C 	C 	0.99980 0.72600 0.24400 -0.04100
H 	H 	0.95690 0.74300 0.26160 0.04400
C 	C 	0.02470 0.75170 0.18370 -0.04500
H 	H 	0.99850 0.78600 0.16000 0.06100
C 	C 	0.08740 0.72780 0.15760 -0.08100
C 	C 	0.12450 0.67680 0.19160 0.01300
H 	H 	0.16710 0.65950 0.17360 0.03700
C 	C 	0.09930 0.65100 0.25210 -0.09000
H 	H 	0.12510 0.61600 0.27530 0.06100
C 	C 	0.11750 0.75750 0.09420 0.33500
O 	O 	0.08776 0.81202 0.07055 -0.41800
O 	O 	0.17092 0.72846 0.07040 -0.42600
C 	C 	0.05220 0.00270 0.95720 0.04800
H 	H 	0.08940 0.00590 0.92570 0.03100
N 	N 	0.04200 0.36390 0.44051 -0.08500
N 	N 	0.00800 0.42530 0.42965 -0.20300
C 	C 	0.97440 0.41760 0.37190 0.06000
H 	H 	0.94510 0.45200 0.35200 0.00500
C 	C 	0.98820 0.35180 0.34440 -0.06400
C 	C 	0.03090 0.31910 0.38980 0.02000
H 	H 	0.04930 0.27310 0.38600 0.02000
C 	C 	0.96270 0.32470 0.27910 0.15000
C 	C 	0.00020 0.27400 0.24400 -0.24000
H 	H 	0.04310 0.25700 0.26160 0.10200
C 	C 	0.97530 0.24830 0.18370 0.16200
H 	H 	0.00150 0.21400 0.16000 -0.03000
C 	C 	0.91260 0.27220 0.15760 -0.18100
C 	C 	0.87550 0.32320 0.19160 0.10700
H 	H 	0.83290 0.34050 0.17360 0.00700
C 	C 	0.90070 0.34900 0.25210 -0.18200
H 	H 	0.87490 0.38400 0.27530 0.09300
C 	C 	0.88250 0.24250 0.09420 0.37300
O 	O 	0.91224 0.18798 0.07055 -0.41900
O 	O 	0.82908 0.27154 0.07040 -0.43400
C 	C 	0.94780 0.99730 0.95720 0.07800
H 	H 	0.91060 0.99410 0.92570 0.03100
Cu	Cu	0.86874 0.13126 -0.00000 0.87400
Cu	Cu	0.77153 0.22847 -0.00000 0.85600
N 	N 	0.94890 0.05110 -0.00000 -0.23800
Cu	Cu	0.13126 0.86874 -0.00000 0.87400
Cu	Cu	0.22847 0.77153 -0.00000 0.85600
N 	N 	0.05110 0.94890 -0.00000 -0.23800
C 	C 	0.64580 0.91540 0.50000 -0.03600
H 	H 	0.61160 0.87650 0.50000 0.04800
H 	H 	0.69350 0.89510 0.50000 0.05000
C 	C 	0.35420 0.08460 0.50000 -0.04000
H 	H 	0.38840 0.12350 0.50000 0.04800
H 	H 	0.30650 0.10490 0.50000 0.04900
C 	C 	0.08460 0.35420 0.50000 -0.04000
H 	H 	0.12350 0.38840 0.50000 0.04800
H 	H 	0.10490 0.30650 0.50000 0.04900
C 	C 	0.91540 0.64580 0.50000 -0.03600
H 	H 	0.87650 0.61160 0.50000 0.04800
H 	H 	0.89510 0.69350 0.50000 0.05000
Cu	Cu	0.50000 0.00000 0.50000 0.85400
Cu	Cu	0.00000 0.50000 0.50000 0.85400
