data_crystal

_cell_length_a 11.71520
_cell_length_b 13.59220
_cell_length_c 20.65320
_cell_angle_alpha 89.21800
_cell_angle_beta  76.35800
_cell_angle_gamma 67.39300

_symmetry_space_group_name_	'P 1'
_symmetry_space_group_name_H-M	'P 1'

loop_
_symmetry_equiv_pos_as_xyz
  x,y,z

loop_
_atom_site_label
_atom_site_type_symbol
_atom_site_fract_x
_atom_site_fract_y
_atom_site_fract_z
_atom_site_charge
W 	W 	0.79562 0.96724 0.91006 1.57700
W 	W 	0.00212 0.74245 0.97159 1.16700
W 	W 	0.73715 0.94049 0.08301 1.16600
W 	W 	0.25645 0.80819 0.88267 1.19500
W 	W 	0.78163 0.22624 0.94485 1.25600
W 	W 	0.04830 0.04132 0.82793 0.85000
Cu	Cu	0.68360 0.93920 0.76340 0.88500
Cu	Cu	0.29290 0.85110 0.60890 0.83000
Cu	Cu	0.50990 0.31620 0.71960 0.84700
Cu	Cu	0.87050 0.52060 0.84510 0.85200
Cu	Cu	0.52430 0.19160 0.87180 0.82900
Cl	Cl	0.61610 0.14180 0.76860 -0.80200
N 	N 	0.54100 0.91900 0.74010 -0.23500
N 	N 	0.38900 0.88000 0.67150 -0.25100
N 	N 	0.37300 0.80300 0.51480 -0.22300
N 	N 	0.44600 0.73600 0.38030 -0.23800
N 	N 	0.61900 0.37900 0.75230 -0.22200
N 	N 	0.77000 0.45800 0.80740 -0.22800
N 	N 	0.25100 0.38600 0.07620 -0.25700
N 	N 	0.42200 0.26900 0.95280 -0.21700
N 	N 	0.86400 0.89300 0.71600 -0.27400
N 	N 	0.12100 0.85800 0.64880 -0.19300
N 	N 	0.32300 0.37700 0.76880 -0.24500
N 	N 	0.06000 0.46000 0.82090 -0.25700
O 	O 	0.91300 0.92500 0.99300 -0.60700
O 	O 	0.93500 0.04200 0.94500 -0.86700
O 	O 	0.09800 0.87300 0.98300 -0.67100
O 	O 	0.90000 0.02000 0.07200 -0.80500
O 	O 	0.85500 0.79900 0.04440 -0.48500
O 	O 	0.11200 0.71000 0.02610 -0.55000
O 	O 	0.69900 0.94800 0.86750 -0.57700
O 	O 	0.70100 0.96900 0.99950 -0.41800
O 	O 	0.89900 0.82200 0.91480 -0.45300
O 	O 	0.72400 0.11700 0.92400 -0.56900
O 	O 	0.91800 0.98300 0.83950 -0.38300
O 	O 	0.16200 0.89800 0.82700 -0.41200
O 	O 	0.14900 0.73400 0.89880 -0.46900
O 	O 	0.67600 0.08600 0.10790 -0.53200
O 	O 	0.70300 0.23700 0.03630 -0.54300
O 	O 	0.83700 0.91000 0.14560 -0.46900
O 	O 	0.91100 0.17900 0.86340 -0.38800
C 	C 	0.53900 0.82300 0.73900 0.00100
H 	H 	0.58410 0.77180 0.76400 -0.01800
C 	C 	0.46400 0.79400 0.69800 -0.02500
H 	H 	0.46860 0.72510 0.69150 -0.01200
C 	C 	0.38400 0.97300 0.68300 0.15700
H 	H 	0.32360 0.03000 0.66890 -0.14700
C 	C 	0.46100 0.99700 0.71500 0.06900
H 	H 	0.45710 0.06660 0.71930 -0.07700
C 	C 	0.43900 0.69900 0.48700 -0.05700
H 	H 	0.45600 0.64350 0.51490 0.01000
C 	C 	0.47900 0.67500 0.41900 0.07700
H 	H 	0.53530 0.60520 0.40340 -0.04200
C 	C 	0.39400 0.83700 0.39700 0.02100
H 	H 	0.38310 0.88500 0.36410 0.01900
C 	C 	0.34900 0.88000 0.47000 -0.03000
H 	H 	0.30920 0.95290 0.48390 0.01200
C 	C 	0.74600 0.32700 0.74300 -0.02100
H 	H 	0.78800 0.26280 0.71620 0.02400
C 	C 	0.81400 0.36600 0.77300 0.01000
H 	H 	0.89940 0.32310 0.76850 0.01600
C 	C 	0.57200 0.47800 0.78300 -0.00200
H 	H 	0.48860 0.52300 0.78330 -0.01600
C 	C 	0.63800 0.51400 0.81200 -0.03400
H 	H 	0.59580 0.57920 0.83770 0.00400
C 	C 	0.32200 0.29000 0.07000 0.08400
H 	H 	0.31320 0.25670 0.10990 -0.04900
C 	C 	0.41300 0.22200 0.01700 -0.16700
H 	H 	0.46450 0.15190 0.02110 0.02700
C 	C 	0.35100 0.37600 0.95700 0.10100
H 	H 	0.36220 0.41350 0.91940 -0.04100
C 	C 	0.25000 0.43600 0.02200 -0.14100
H 	H 	0.19070 0.50540 0.02270 -0.02200
C 	C 	0.95800 0.83300 0.73400 0.19900
H 	H 	0.94380 0.79730 0.77220 -0.04000
C 	C 	0.89300 0.93800 0.66000 0.14800
H 	H 	0.82630 0.98630 0.64410 -0.00500
C 	C 	0.02300 0.91600 0.62300 -0.15500
H 	H 	0.03870 0.94210 0.58110 0.03500
C 	C 	0.09100 0.81300 0.70000 -0.14900
H 	H 	0.15620 0.76470 0.71610 0.03300
C 	C 	0.26600 0.32100 0.80000 0.02600
H 	H 	0.31570 0.25080 0.80460 -0.05100
C 	C 	0.25300 0.47900 0.76200 0.02000
H 	H 	0.29360 0.51960 0.73840 -0.02800
C 	C 	0.12900 0.52300 0.78700 -0.06700
H 	H 	0.08500 0.59500 0.78230 -0.01200
C 	C 	0.13000 0.36000 0.82800 -0.04100
H 	H 	0.09260 0.31590 0.85070 -0.00600
W 	W 	0.20438 0.03276 0.08994 1.45600
W 	W 	0.99788 0.25755 0.02841 1.23500
W 	W 	0.26285 0.05951 0.91699 1.15300
W 	W 	0.74355 0.19181 0.11733 1.24000
W 	W 	0.21837 0.77376 0.05515 1.06700
W 	W 	0.95170 0.95868 0.17207 1.46200
Cu	Cu	0.31640 0.06080 0.23660 0.84000
Cu	Cu	0.70710 0.14890 0.39110 0.81800
Cu	Cu	0.49010 0.68380 0.28040 0.84700
Cu	Cu	0.12950 0.47940 0.15490 0.79100
Cu	Cu	0.47570 0.80840 0.12820 0.83300
Cl	Cl	0.38390 0.85820 0.23140 -0.73200
N 	N 	0.45900 0.08100 0.25990 -0.22400
N 	N 	0.61100 0.12000 0.32850 -0.22300
N 	N 	0.62700 0.19700 0.48520 -0.22700
N 	N 	0.55400 0.26400 0.61970 -0.24000
N 	N 	0.38100 0.62100 0.24770 -0.22200
N 	N 	0.23000 0.54200 0.19260 -0.24800
N 	N 	0.74900 0.61400 0.92380 -0.26600
N 	N 	0.57800 0.73100 0.04720 -0.27300
N 	N 	0.13600 0.10700 0.28400 -0.17200
N 	N 	0.87900 0.14200 0.35120 -0.31000
N 	N 	0.67700 0.62300 0.23120 -0.24600
N 	N 	0.94000 0.54000 0.17910 -0.19600
O 	O 	0.08700 0.07500 0.00700 -0.84300
O 	O 	0.06500 0.95800 0.05500 -0.91100
O 	O 	0.90200 0.12700 0.01700 -0.74200
O 	O 	0.10000 0.98000 0.92800 -0.68100
O 	O 	0.14500 0.20100 0.95560 -0.44500
O 	O 	0.88800 0.29000 0.97390 -0.41300
O 	O 	0.30100 0.05200 0.13250 -0.62300
O 	O 	0.29900 0.03100 0.00050 -0.58700
O 	O 	0.10100 0.17800 0.08520 -0.54700
O 	O 	0.27600 0.88300 0.07600 -0.50000
O 	O 	0.08200 0.01700 0.16050 -0.60700
O 	O 	0.83800 0.10200 0.17300 -0.50400
O 	O 	0.85100 0.26600 0.10120 -0.46500
O 	O 	0.32400 0.91400 0.89210 -0.41900
O 	O 	0.29700 0.76300 0.96370 -0.40100
O 	O 	0.16300 0.09000 0.85440 -0.47700
O 	O 	0.08900 0.82100 0.13660 -0.50800
C 	C 	0.46100 0.17700 0.26100 -0.00700
H 	H 	0.41590 0.22820 0.23600 -0.02900
C 	C 	0.53600 0.20600 0.30200 -0.03900
H 	H 	0.53140 0.27490 0.30850 -0.01300
C 	C 	0.61600 0.02700 0.31700 -0.07500
H 	H 	0.67640 0.97000 0.33110 0.05900
C 	C 	0.53900 0.00300 0.28500 -0.14200
H 	H 	0.54290 0.93340 0.28070 0.09100
C 	C 	0.56100 0.30100 0.51300 -0.06200
H 	H 	0.54400 0.35650 0.48510 0.00900
C 	C 	0.52100 0.32500 0.58100 0.07500
H 	H 	0.46470 0.39480 0.59660 -0.04900
C 	C 	0.60600 0.16300 0.60300 0.01500
H 	H 	0.61690 0.11500 0.63590 -0.00900
C 	C 	0.65100 0.12000 0.53000 -0.04200
H 	H 	0.69080 0.04710 0.51610 -0.01700
C 	C 	0.25400 0.67300 0.25700 -0.03900
H 	H 	0.21200 0.73720 0.28380 0.01700
C 	C 	0.18600 0.63400 0.22700 0.01500
H 	H 	0.10060 0.67690 0.23150 -0.03600
C 	C 	0.42800 0.52200 0.21700 -0.01300
H 	H 	0.51140 0.47700 0.21670 -0.01800
C 	C 	0.36200 0.48600 0.18800 -0.03900
H 	H 	0.40420 0.42080 0.16230 -0.00800
C 	C 	0.67800 0.71000 0.93000 0.07900
H 	H 	0.68680 0.74330 0.89010 -0.02700
C 	C 	0.58700 0.77800 0.98300 0.01500
H 	H 	0.53550 0.84810 0.97890 0.05300
C 	C 	0.64900 0.62400 0.04300 -0.15500
H 	H 	0.63780 0.58650 0.08060 0.01800
C 	C 	0.75000 0.56400 0.97800 0.12400
H 	H 	0.80930 0.49460 0.97730 -0.03600
C 	C 	0.04200 0.16700 0.26600 -0.17700
H 	H 	0.05620 0.20270 0.22780 0.03000
C 	C 	0.10700 0.06200 0.34000 -0.22000
H 	H 	0.17370 0.01370 0.35590 0.02800
C 	C 	0.97700 0.08400 0.37700 0.17700
H 	H 	0.96130 0.05790 0.41890 -0.05800
C 	C 	0.90900 0.18700 0.30000 0.20400
H 	H 	0.84380 0.23530 0.28390 -0.06700
C 	C 	0.73400 0.67900 0.20000 0.03800
H 	H 	0.68430 0.74920 0.19540 -0.04600
C 	C 	0.74700 0.52100 0.23800 0.03100
H 	H 	0.70640 0.48040 0.26160 -0.02400
C 	C 	0.87100 0.47700 0.21300 -0.05900
H 	H 	0.91500 0.40500 0.21770 0.03800
C 	C 	0.87000 0.64000 0.17200 -0.03600
H 	H 	0.90740 0.68410 0.14930 0.04100
Si	Si	-0.00000 0.00000 -0.00000 3.64300
