data_crystal

_cell_length_a 20.01350
_cell_length_b 20.01350
_cell_length_c 20.01350
_cell_angle_alpha 109.47100
_cell_angle_beta  109.47100
_cell_angle_gamma 109.47100

_symmetry_space_group_name_	'P 1'
_symmetry_space_group_name_H-M	'P 1'

loop_
_symmetry_equiv_pos_as_xyz
  x,y,z

loop_
_atom_site_label
_atom_site_type_symbol
_atom_site_fract_x
_atom_site_fract_y
_atom_site_fract_z
_atom_site_charge
Cu	Cu	0.20800 0.87696 0.24810 0.72800
Cu	Cu	0.12886 0.95990 0.25190 0.72700
Cu	Cu	0.37114 0.62304 0.83104 0.72900
Cu	Cu	0.29200 0.54010 0.66896 0.72900
Cu	Cu	0.33104 0.37114 0.12304 0.72800
Cu	Cu	0.16896 0.29200 0.04010 0.72800
Cu	Cu	0.74810 0.20800 0.37696 0.72900
Cu	Cu	0.75190 0.12886 0.45990 0.72800
Cu	Cu	0.95990 0.75190 0.62886 0.72900
Cu	Cu	0.87696 0.74810 0.70800 0.72900
Cu	Cu	0.54010 0.16896 0.79200 0.72900
Cu	Cu	0.62304 0.33104 0.87114 0.72800
Cu	Cu	0.45990 0.62886 0.75190 0.72900
Cu	Cu	0.37696 0.70800 0.74810 0.73000
Cu	Cu	0.04010 0.79200 0.16896 0.72800
Cu	Cu	0.12304 0.87114 0.33104 0.72900
Cu	Cu	0.70800 0.24810 0.87696 0.72900
Cu	Cu	0.62886 0.25190 0.95990 0.72900
Cu	Cu	0.87114 0.83104 0.62304 0.73000
Cu	Cu	0.79200 0.66896 0.54010 0.73000
Cu	Cu	0.83104 0.12304 0.37114 0.72900
Cu	Cu	0.66896 0.04010 0.29200 0.72900
Cu	Cu	0.24810 0.37696 0.20800 0.73000
Cu	Cu	0.25190 0.45990 0.12886 0.72900
H 	H 	0.29550 0.97760 0.19690 -0.01100
H 	H 	0.44600 0.85260 0.22580 0.10900
H 	H 	0.54720 0.01800 0.13320 0.10000
H 	H 	0.45150 0.97730 0.07200 0.11300
H 	H 	0.49260 0.04660 0.16500 0.11600
H 	H 	0.28070 0.09860 0.30310 -0.01100
H 	H 	0.12680 0.22020 0.27420 0.10800
H 	H 	0.38480 0.41400 0.36680 0.10000
H 	H 	0.40530 0.37950 0.42800 0.11400
H 	H 	0.38160 0.32760 0.33500 0.11600
H 	H 	0.21930 0.52240 0.81790 -0.01100
H 	H 	0.37320 0.64740 0.09340 0.11000
H 	H 	0.11520 0.48200 0.02920 0.09600
H 	H 	0.09470 0.52270 0.97420 0.11200
H 	H 	0.11840 0.45340 0.94600 0.11400
H 	H 	0.20450 0.40140 0.68210 -0.01100
H 	H 	0.05400 0.27980 0.40660 0.10900
H 	H 	0.95280 0.08600 0.47080 0.09700
H 	H 	0.04850 0.12050 0.52580 0.11300
H 	H 	0.00740 0.17240 0.55400 0.11500
H 	H 	0.31790 0.21930 0.02240 -0.01100
H 	H 	0.59340 0.37320 0.14740 0.10900
H 	H 	0.52920 0.11520 0.98200 0.09900
H 	H 	0.47420 0.09470 0.02270 0.11300
H 	H 	0.44600 0.11840 0.95340 0.11500
H 	H 	0.18210 0.20450 0.90140 -0.01100
H 	H 	0.90660 0.05400 0.77980 0.11300
H 	H 	0.97080 0.95280 0.58600 0.09800
H 	H 	0.02580 0.04850 0.62050 0.11200
H 	H 	0.05400 0.00740 0.67240 0.11400
H 	H 	0.69690 0.29550 0.47760 -0.01100
H 	H 	0.72580 0.44600 0.35260 0.10900
H 	H 	0.63320 0.54720 0.51800 0.10000
H 	H 	0.57200 0.45150 0.47730 0.11400
H 	H 	0.66500 0.49260 0.54660 0.11600
H 	H 	0.80310 0.28070 0.59860 -0.01100
H 	H 	0.77420 0.12680 0.72020 0.10800
H 	H 	0.86680 0.38480 0.91400 0.09900
H 	H 	0.92800 0.40530 0.87950 0.11300
H 	H 	0.83500 0.38160 0.82760 0.11500
H 	H 	0.09860 0.80310 0.78070 -0.01100
H 	H 	0.22020 0.77420 0.62680 0.10900
H 	H 	0.41400 0.86680 0.88480 0.10000
H 	H 	0.37950 0.92800 0.90530 0.11400
H 	H 	0.32760 0.83500 0.88160 0.11600
H 	H 	0.97760 0.69690 0.79550 -0.01100
H 	H 	0.85260 0.72580 0.94600 0.10800
H 	H 	0.01800 0.63320 0.04720 0.10000
H 	H 	0.97730 0.57200 0.95150 0.11500
H 	H 	0.04660 0.66500 0.99260 0.12000
H 	H 	0.40140 0.18210 0.70450 -0.01100
H 	H 	0.27980 0.90660 0.55400 0.10900
H 	H 	0.08600 0.97080 0.45280 0.09600
H 	H 	0.12050 0.02580 0.54850 0.11200
H 	H 	0.17240 0.05400 0.50740 0.11300
H 	H 	0.52240 0.31790 0.71930 -0.01100
H 	H 	0.64740 0.59340 0.87320 0.10800
H 	H 	0.48200 0.52920 0.61520 0.10000
H 	H 	0.52270 0.47420 0.59470 0.11400
H 	H 	0.45340 0.44600 0.61840 0.11600
H 	H 	0.59860 0.78070 0.80310 -0.01100
H 	H 	0.72020 0.62680 0.77420 0.10900
H 	H 	0.91400 0.88480 0.86680 0.10000
H 	H 	0.87950 0.90530 0.92800 0.11300
H 	H 	0.82760 0.88160 0.83500 0.11600
H 	H 	0.47760 0.79550 0.69690 -0.01100
H 	H 	0.35260 0.94600 0.72580 0.10900
H 	H 	0.51800 0.04720 0.63320 0.09900
H 	H 	0.47730 0.95150 0.57200 0.11300
H 	H 	0.54660 0.99260 0.66500 0.11600
H 	H 	0.90140 0.70450 0.18210 -0.01000
H 	H 	0.77980 0.55400 0.90660 0.11100
H 	H 	0.58600 0.45280 0.97080 0.09800
H 	H 	0.62050 0.54850 0.02580 0.11200
H 	H 	0.67240 0.50740 0.05400 0.11400
H 	H 	0.02240 0.71930 0.31790 -0.01100
H 	H 	0.14740 0.87320 0.59340 0.10800
H 	H 	0.98200 0.61520 0.52920 0.10200
H 	H 	0.02270 0.59470 0.47420 0.11500
H 	H 	0.95340 0.61840 0.44600 0.11800
H 	H 	0.79550 0.19690 0.97760 -0.01100
H 	H 	0.94600 0.22580 0.85260 0.10800
H 	H 	0.04720 0.13320 0.01800 0.10500
H 	H 	0.95150 0.07200 0.97730 0.11700
H 	H 	0.99260 0.16500 0.04660 0.12300
H 	H 	0.78070 0.30310 0.09860 -0.01000
H 	H 	0.62680 0.27420 0.22020 0.10900
H 	H 	0.88480 0.36680 0.41400 0.10000
H 	H 	0.90530 0.42800 0.37950 0.11400
H 	H 	0.88160 0.33500 0.32760 0.11600
H 	H 	0.71930 0.81790 0.52240 -0.01100
H 	H 	0.87320 0.09340 0.64740 0.11000
H 	H 	0.61520 0.02920 0.48200 0.09800
H 	H 	0.59470 0.97420 0.52270 0.11300
H 	H 	0.61840 0.94600 0.45340 0.11500
H 	H 	0.70450 0.68210 0.40140 -0.01100
H 	H 	0.55400 0.40660 0.27980 0.10900
H 	H 	0.45280 0.47080 0.08600 0.09900
H 	H 	0.54850 0.52580 0.12050 0.11400
H 	H 	0.50740 0.55400 0.17240 0.11600
H 	H 	0.81790 0.02240 0.21930 -0.01100
H 	H 	0.09340 0.14740 0.37320 0.10800
H 	H 	0.02920 0.98200 0.11520 0.09600
H 	H 	0.97420 0.02270 0.09470 0.11300
H 	H 	0.94600 0.95340 0.11840 0.11700
H 	H 	0.68210 0.90140 0.20450 -0.01000
H 	H 	0.40660 0.77980 0.05400 0.10800
H 	H 	0.47080 0.58600 0.95280 0.10000
H 	H 	0.52580 0.62050 0.04850 0.11400
H 	H 	0.55400 0.67240 0.00740 0.11600
H 	H 	0.19690 0.47760 0.29550 -0.01100
H 	H 	0.22580 0.35260 0.44600 0.10900
H 	H 	0.13320 0.51800 0.54720 0.10000
H 	H 	0.07200 0.47730 0.45150 0.11300
H 	H 	0.16500 0.54660 0.49260 0.11600
H 	H 	0.30310 0.59860 0.28070 -0.01100
H 	H 	0.27420 0.72020 0.12680 0.10800
H 	H 	0.36680 0.91400 0.38480 0.10000
H 	H 	0.42800 0.87950 0.40530 0.11400
H 	H 	0.33500 0.82760 0.38160 0.11600
C 	C 	0.32720 0.95160 0.20320 0.10100
C 	C 	0.41960 0.92600 0.18360 0.17700
C 	C 	0.41280 0.87710 0.21870 -0.22600
C 	C 	0.35460 0.86580 0.24280 0.16900
C 	C 	0.49310 0.99990 0.12860 -0.26900
C 	C 	0.24840 0.12400 0.29680 0.10200
C 	C 	0.24240 0.23600 0.31640 0.17700
C 	C 	0.15840 0.19410 0.28130 -0.22600
C 	C 	0.12300 0.11180 0.25720 0.16900
C 	C 	0.37130 0.36450 0.37140 -0.26900
C 	C 	0.25160 0.54840 0.87560 0.10200
C 	C 	0.25760 0.57400 0.99360 0.18000
C 	C 	0.34160 0.62290 0.03570 -0.23000
C 	C 	0.37700 0.63420 0.98880 0.17100
C 	C 	0.12870 0.50010 0.99320 -0.26000
C 	C 	0.17280 0.37600 0.62440 0.10200
C 	C 	0.08040 0.26400 0.50640 0.17700
C 	C 	0.08720 0.30590 0.46430 -0.22600
C 	C 	0.14540 0.38820 0.51120 0.16900
C 	C 	0.00690 0.13550 0.50680 -0.26500
C 	C 	0.37560 0.25160 0.04840 0.10100
C 	C 	0.49360 0.25760 0.07400 0.17700
C 	C 	0.53570 0.34160 0.12290 -0.22600
C 	C 	0.48880 0.37700 0.13420 0.16900
C 	C 	0.49320 0.12870 0.00010 -0.26700
C 	C 	0.12440 0.17280 0.87600 0.10300
C 	C 	0.00640 0.08040 0.76400 0.18600
C 	C 	0.96430 0.08720 0.80590 -0.24000
C 	C 	0.01120 0.14540 0.88820 0.17900
C 	C 	0.00680 0.00690 0.63550 -0.26300
C 	C 	0.70320 0.32720 0.45160 0.10100
C 	C 	0.68360 0.41960 0.42600 0.17700
C 	C 	0.71870 0.41280 0.37710 -0.22600
C 	C 	0.74280 0.35460 0.36580 0.16900
C 	C 	0.62860 0.49310 0.49990 -0.26900
C 	C 	0.79680 0.24840 0.62400 0.10100
C 	C 	0.81640 0.24240 0.73600 0.17700
C 	C 	0.78130 0.15840 0.69410 -0.22600
C 	C 	0.75720 0.12300 0.61180 0.16900
C 	C 	0.87140 0.37130 0.86450 -0.26800
C 	C 	0.12400 0.79680 0.74840 0.10100
C 	C 	0.23600 0.81640 0.74240 0.17700
C 	C 	0.19410 0.78130 0.65840 -0.22500
C 	C 	0.11180 0.75720 0.62300 0.16800
C 	C 	0.36450 0.87140 0.87130 -0.26900
C 	C 	0.95160 0.70320 0.82720 0.10100
C 	C 	0.92600 0.68360 0.91960 0.17600
C 	C 	0.87710 0.71870 0.91280 -0.22600
C 	C 	0.86580 0.74280 0.85460 0.16800
C 	C 	0.99990 0.62860 0.99310 -0.27600
C 	C 	0.37600 0.12440 0.67280 0.10200
C 	C 	0.26400 0.00640 0.58040 0.17900
C 	C 	0.30590 0.96430 0.58720 -0.22800
C 	C 	0.38820 0.01120 0.64540 0.17000
C 	C 	0.13550 0.00680 0.50690 -0.26100
C 	C 	0.54840 0.37560 0.75160 0.10100
C 	C 	0.57400 0.49360 0.75760 0.17700
C 	C 	0.62290 0.53570 0.84160 -0.22600
C 	C 	0.63420 0.48880 0.87700 0.16900
C 	C 	0.50010 0.49320 0.62870 -0.26900
C 	C 	0.62400 0.74840 0.79680 0.10100
C 	C 	0.73600 0.74240 0.81640 0.17700
C 	C 	0.69410 0.65840 0.78130 -0.22600
C 	C 	0.61180 0.62300 0.75720 0.16900
C 	C 	0.86450 0.87130 0.87140 -0.26900
C 	C 	0.45160 0.82720 0.70320 0.10200
C 	C 	0.42600 0.91960 0.68360 0.17700
C 	C 	0.37710 0.91280 0.71870 -0.22600
C 	C 	0.36580 0.85460 0.74280 0.16900
C 	C 	0.49990 0.99310 0.62860 -0.26800
C 	C 	0.87600 0.67280 0.12440 0.10200
C 	C 	0.76400 0.58040 0.00640 0.18200
C 	C 	0.80590 0.58720 0.96430 -0.23500
C 	C 	0.88820 0.64540 0.01120 0.17600
C 	C 	0.63550 0.50690 0.00680 -0.26400
C 	C 	0.04840 0.75160 0.37560 0.10100
C 	C 	0.07400 0.75760 0.49360 0.17600
C 	C 	0.12290 0.84160 0.53570 -0.22600
C 	C 	0.13420 0.87700 0.48880 0.16900
C 	C 	0.00010 0.62870 0.49320 -0.27500
C 	C 	0.82720 0.20320 0.95160 0.10100
C 	C 	0.91960 0.18360 0.92600 0.17600
C 	C 	0.91280 0.21870 0.87710 -0.22600
C 	C 	0.85460 0.24280 0.86580 0.16800
C 	C 	0.99310 0.12860 0.99990 -0.28700
C 	C 	0.74840 0.29680 0.12400 0.10200
C 	C 	0.74240 0.31640 0.23600 0.17700
C 	C 	0.65840 0.28130 0.19410 -0.22600
C 	C 	0.62300 0.25720 0.11180 0.16900
C 	C 	0.87130 0.37140 0.36450 -0.26900
C 	C 	0.75160 0.87560 0.54840 0.10200
C 	C 	0.75760 0.99360 0.57400 0.18100
C 	C 	0.84160 0.03570 0.62290 -0.23300
C 	C 	0.87700 0.98880 0.63420 0.17400
C 	C 	0.62870 0.99320 0.50010 -0.26500
C 	C 	0.67280 0.62440 0.37600 0.10200
C 	C 	0.58040 0.50640 0.26400 0.17700
C 	C 	0.58720 0.46430 0.30590 -0.22600
C 	C 	0.64540 0.51120 0.38820 0.16900
C 	C 	0.50690 0.50680 0.13550 -0.26900
C 	C 	0.87560 0.04840 0.25160 0.10100
C 	C 	0.99360 0.07400 0.25760 0.17600
C 	C 	0.03570 0.12290 0.34160 -0.22400
C 	C 	0.98880 0.13420 0.37700 0.16700
C 	C 	0.99320 0.00010 0.12870 -0.26700
C 	C 	0.62440 0.87600 0.17280 0.10200
C 	C 	0.50640 0.76400 0.08040 0.17700
C 	C 	0.46430 0.80590 0.08720 -0.22600
C 	C 	0.51120 0.88820 0.14540 0.16900
C 	C 	0.50680 0.63550 0.00690 -0.26900
C 	C 	0.20320 0.45160 0.32720 0.10100
C 	C 	0.18360 0.42600 0.41960 0.17700
C 	C 	0.21870 0.37710 0.41280 -0.22600
C 	C 	0.24280 0.36580 0.35460 0.16900
C 	C 	0.12860 0.49990 0.49310 -0.26900
C 	C 	0.29680 0.62400 0.24840 0.10100
C 	C 	0.31640 0.73600 0.24240 0.17700
C 	C 	0.28130 0.69410 0.15840 -0.22600
C 	C 	0.25720 0.61180 0.12300 0.16900
C 	C 	0.37140 0.86450 0.37130 -0.26900
I 	I 	0.13210 0.73864 0.24028 -0.57500
I 	I 	0.99836 0.89182 0.25972 -0.56900
I 	I 	0.50164 0.76136 0.89346 -0.57400
I 	I 	0.36790 0.60818 0.60654 -0.57400
I 	I 	0.39346 0.50164 0.26136 -0.57400
I 	I 	0.10654 0.36790 0.10818 -0.57500
I 	I 	0.74028 0.13210 0.23864 -0.57400
I 	I 	0.75972 0.99836 0.39182 -0.57200
I 	I 	0.89182 0.75972 0.49836 -0.57300
I 	I 	0.73864 0.74028 0.63210 -0.57400
I 	I 	0.60818 0.10654 0.86790 -0.57500
I 	I 	0.76136 0.39346 0.00164 -0.57200
I 	I 	0.39182 0.49836 0.75972 -0.57400
I 	I 	0.23864 0.63210 0.74028 -0.57400
I 	I 	0.10818 0.86790 0.10654 -0.57700
I 	I 	0.26136 0.00164 0.39346 -0.57300
I 	I 	0.63210 0.24028 0.73864 -0.57400
I 	I 	0.49836 0.25972 0.89182 -0.57400
I 	I 	0.00164 0.89346 0.76136 -0.57500
I 	I 	0.86790 0.60654 0.60818 -0.57400
I 	I 	0.89346 0.26136 0.50164 -0.57500
I 	I 	0.60654 0.10818 0.36790 -0.57400
I 	I 	0.24028 0.23864 0.13210 -0.57500
I 	I 	0.25972 0.39182 0.99836 -0.57300
N 	N 	0.38060 0.96630 0.17670 -0.14600
N 	N 	0.31200 0.90500 0.23760 -0.25100
N 	N 	0.47530 0.93700 0.15190 -0.13700
N 	N 	0.28960 0.20390 0.32330 -0.14600
N 	N 	0.16740 0.07440 0.26240 -0.25100
N 	N 	0.28510 0.32340 0.34810 -0.13700
N 	N 	0.21040 0.53370 0.91430 -0.14700
N 	N 	0.33260 0.59500 0.90700 -0.25100
N 	N 	0.21490 0.56300 0.03830 -0.14000
N 	N 	0.11940 0.29610 0.58570 -0.14600
N 	N 	0.18800 0.42560 0.59300 -0.25100
N 	N 	0.02470 0.17660 0.46170 -0.13700
N 	N 	0.41430 0.21040 0.03370 -0.14600
N 	N 	0.40700 0.33260 0.09500 -0.25100
N 	N 	0.53830 0.21490 0.06300 -0.13700
N 	N 	0.08570 0.11940 0.79610 -0.14800
N 	N 	0.09300 0.18800 0.92560 -0.25200
N 	N 	0.96170 0.02470 0.67660 -0.14300
N 	N 	0.67670 0.38060 0.46630 -0.14600
N 	N 	0.73760 0.31200 0.40500 -0.25100
N 	N 	0.65190 0.47530 0.43700 -0.13700
N 	N 	0.82330 0.28960 0.70390 -0.14600
N 	N 	0.76240 0.16740 0.57440 -0.25100
N 	N 	0.84810 0.28510 0.82340 -0.13700
N 	N 	0.20390 0.82330 0.78960 -0.14600
N 	N 	0.07440 0.76240 0.66740 -0.25100
N 	N 	0.32340 0.84810 0.78510 -0.13700
N 	N 	0.96630 0.67670 0.88060 -0.14600
N 	N 	0.90500 0.73760 0.81200 -0.25100
N 	N 	0.93700 0.65190 0.97530 -0.13800
N 	N 	0.29610 0.08570 0.61940 -0.14600
N 	N 	0.42560 0.09300 0.68800 -0.25100
N 	N 	0.17660 0.96170 0.52470 -0.13900
N 	N 	0.53370 0.41430 0.71040 -0.14600
N 	N 	0.59500 0.40700 0.83260 -0.25100
N 	N 	0.56300 0.53830 0.71490 -0.13700
N 	N 	0.70390 0.78960 0.82330 -0.14600
N 	N 	0.57440 0.66740 0.76240 -0.25100
N 	N 	0.82340 0.78510 0.84810 -0.13700
N 	N 	0.46630 0.88060 0.67670 -0.14600
N 	N 	0.40500 0.81200 0.73760 -0.25100
N 	N 	0.43700 0.97530 0.65190 -0.13700
N 	N 	0.79610 0.61940 0.08570 -0.14700
N 	N 	0.92560 0.68800 0.09300 -0.25100
N 	N 	0.67660 0.52470 0.96170 -0.13900
N 	N 	0.03370 0.71040 0.41430 -0.14600
N 	N 	0.09500 0.83260 0.40700 -0.25100
N 	N 	0.06300 0.71490 0.53830 -0.13600
N 	N 	0.88060 0.17670 0.96630 -0.14700
N 	N 	0.81200 0.23760 0.90500 -0.25100
N 	N 	0.97530 0.15190 0.93700 -0.13800
N 	N 	0.78960 0.32330 0.20390 -0.14600
N 	N 	0.66740 0.26240 0.07440 -0.25100
N 	N 	0.78510 0.34810 0.32340 -0.13700
N 	N 	0.71040 0.91430 0.53370 -0.14700
N 	N 	0.83260 0.90700 0.59500 -0.25200
N 	N 	0.71490 0.03830 0.56300 -0.13900
N 	N 	0.61940 0.58570 0.29610 -0.14600
N 	N 	0.68800 0.59300 0.42560 -0.25100
N 	N 	0.52470 0.46170 0.17660 -0.13700
N 	N 	0.91430 0.03370 0.21040 -0.14600
N 	N 	0.90700 0.09500 0.33260 -0.25100
N 	N 	0.03830 0.06300 0.21490 -0.13700
N 	N 	0.58570 0.79610 0.11940 -0.14600
N 	N 	0.59300 0.92560 0.18800 -0.25100
N 	N 	0.46170 0.67660 0.02470 -0.13800
N 	N 	0.17670 0.46630 0.38060 -0.14600
N 	N 	0.23760 0.40500 0.31200 -0.25100
N 	N 	0.15190 0.43700 0.47530 -0.13700
N 	N 	0.32330 0.70390 0.28960 -0.14600
N 	N 	0.26240 0.57440 0.16740 -0.25100
N 	N 	0.34810 0.82340 0.28510 -0.13700
