data_crystal

_cell_length_a 19.57580
_cell_length_b 19.38870
_cell_length_c 27.34610
_cell_angle_alpha 90.00000
_cell_angle_beta  108.49000
_cell_angle_gamma 90.00000

_symmetry_space_group_name_	'P 1'
_symmetry_space_group_name_H-M	'P 1'

loop_
_symmetry_equiv_pos_as_xyz
  x,y,z

loop_
_atom_site_label
_atom_site_type_symbol
_atom_site_fract_x
_atom_site_fract_y
_atom_site_fract_z
_atom_site_charge
Co	Co	0.84814 0.97994 0.08221 1.11900
S 	S 	0.02630 0.15370 0.13330 -0.11100
S 	S 	0.71070 0.77740 0.06150 -0.03600
S 	S 	0.64260 0.83710 0.06630 -0.06100
N 	N 	0.77410 0.06800 0.07852 -0.22500
N 	N 	0.42200 0.39270 0.08598 -0.27000
N 	N 	0.85110 0.03420 0.66321 -0.39300
N 	N 	0.84250 0.00270 0.00266 -0.11200
N 	N 	0.93520 0.04290 0.10540 -0.27500
N 	N 	0.76260 0.91250 0.05730 -0.26200
C 	C 	0.78880 0.13220 0.07050 0.04100
H 	H 	0.83410 0.14020 0.06740 -0.00900
C 	C 	0.74610 0.18810 0.06620 -0.06700
H 	H 	0.76200 0.23160 0.06040 0.02400
C 	C 	0.67810 0.17910 0.07060 -0.09400
C 	C 	0.66010 0.11140 0.07780 -0.05500
H 	H 	0.61480 0.10150 0.08020 0.03900
C 	C 	0.70850 0.05910 0.08160 0.03000
H 	H 	0.69440 0.01460 0.08660 0.00200
C 	C 	0.62530 0.23790 0.06270 0.33600
C 	C 	0.62900 0.29210 0.02540 -0.87900
H 	H 	0.60060 0.33110 0.02880 0.28900
H 	H 	0.61060 0.27420 0.99100 0.28300
H 	H 	0.67820 0.30610 0.03220 0.27600
C 	C 	0.47950 0.38310 0.12720 0.15800
H 	H 	0.48500 0.41150 0.15560 -0.04200
C 	C 	0.53150 0.33380 0.13050 -0.29500
H 	H 	0.56990 0.32840 0.16070 0.12900
C 	C 	0.52540 0.29230 0.08790 0.27900
C 	C 	0.46700 0.30440 0.04500 -0.31200
H 	H 	0.46100 0.27780 0.01560 0.14000
C 	C 	0.41870 0.35350 0.04430 0.16900
H 	H 	0.38120 0.36110 0.01390 -0.03800
C 	C 	0.58140 0.23950 0.09080 -0.40500
H 	H 	0.58620 0.20430 0.11470 0.16100
C 	C 	0.89910 0.00560 0.98730 -0.26100
H 	H 	0.94420 0.99900 0.01150 0.09900
C 	C 	0.89490 0.01800 0.93630 0.49000
H 	H 	0.93690 0.01830 0.92730 -0.17000
C 	C 	0.83030 0.02980 0.89930 -0.93800
C 	C 	0.77280 0.02570 0.91530 0.50800
H 	H 	0.72720 0.03080 0.89140 -0.18500
C 	C 	0.77870 0.01410 0.96620 -0.27900
H 	H 	0.73710 0.01410 0.97570 0.10600
C 	C 	0.81720 0.05320 0.84540 1.77800
C 	C 	0.76460 0.11670 0.81900 -1.64200
H 	H 	0.77860 0.13470 0.79090 0.52600
H 	H 	0.76830 0.15230 0.84410 0.49100
H 	H 	0.71580 0.10060 0.80630 0.50400
C 	C 	0.88350 0.98970 0.69960 0.49600
H 	H 	0.91100 0.95460 0.69210 -0.15900
C 	C 	0.87760 0.99360 0.74930 -0.93500
H 	H 	0.90160 0.96060 0.77330 0.34400
C 	C 	0.84050 0.04080 0.76410 1.19400
C 	C 	0.81440 0.08300 0.67630 0.45800
H 	H 	0.79070 0.11570 0.65190 -0.14500
C 	C 	0.80970 0.08740 0.72660 -0.86200
H 	H 	0.78420 0.12390 0.73450 0.28900
C 	C 	0.83690 0.03790 0.81780 -2.06300
H 	H 	0.87070 0.00450 0.83380 0.62500
C 	C 	0.97300 0.08880 0.11630 0.09500
C 	C 	0.71900 0.87040 0.05810 0.09700
Co	Co	0.34814 0.47994 0.08221 1.12100
S 	S 	0.52630 0.65370 0.13330 -0.11200
S 	S 	0.21070 0.27740 0.06150 -0.03300
S 	S 	0.14260 0.33710 0.06630 -0.05900
N 	N 	0.27410 0.56800 0.07852 -0.22500
N 	N 	0.92200 0.89270 0.08598 -0.26900
N 	N 	0.35110 0.53420 0.66321 -0.39300
N 	N 	0.34250 0.50270 0.00266 -0.11200
N 	N 	0.43520 0.54290 0.10540 -0.27600
N 	N 	0.26260 0.41250 0.05730 -0.26100
C 	C 	0.28880 0.63220 0.07050 0.04000
H 	H 	0.33410 0.64020 0.06740 -0.00900
C 	C 	0.24610 0.68810 0.06620 -0.06600
H 	H 	0.26200 0.73160 0.06040 0.02300
C 	C 	0.17810 0.67910 0.07060 -0.09500
C 	C 	0.16010 0.61140 0.07780 -0.05400
H 	H 	0.11480 0.60150 0.08020 0.03800
C 	C 	0.20850 0.55910 0.08160 0.03000
H 	H 	0.19440 0.51460 0.08660 0.00100
C 	C 	0.12530 0.73790 0.06270 0.33900
C 	C 	0.12900 0.79210 0.02540 -0.88800
H 	H 	0.10060 0.83110 0.02880 0.29100
H 	H 	0.11060 0.77420 0.99100 0.28700
H 	H 	0.17820 0.80610 0.03220 0.27800
C 	C 	0.97950 0.88310 0.12720 0.15800
H 	H 	0.98500 0.91150 0.15560 -0.04200
C 	C 	0.03150 0.83380 0.13050 -0.29500
H 	H 	0.06990 0.82840 0.16070 0.12900
C 	C 	0.02540 0.79230 0.08790 0.28000
C 	C 	0.96700 0.80440 0.04500 -0.31400
H 	H 	0.96100 0.77780 0.01560 0.13900
C 	C 	0.91870 0.85350 0.04430 0.17000
H 	H 	0.88120 0.86110 0.01390 -0.03900
C 	C 	0.08140 0.73950 0.09080 -0.40800
H 	H 	0.08620 0.70430 0.11470 0.16200
C 	C 	0.39910 0.50560 0.98730 -0.26200
H 	H 	0.44420 0.49900 0.01150 0.10000
C 	C 	0.39490 0.51800 0.93630 0.49200
H 	H 	0.43690 0.51830 0.92730 -0.17100
C 	C 	0.33030 0.52980 0.89930 -0.94100
C 	C 	0.27280 0.52570 0.91530 0.51000
H 	H 	0.22720 0.53080 0.89140 -0.18600
C 	C 	0.27870 0.51410 0.96620 -0.27800
H 	H 	0.23710 0.51410 0.97570 0.10600
C 	C 	0.31720 0.55320 0.84540 1.78400
C 	C 	0.26460 0.61670 0.81900 -1.64600
H 	H 	0.27860 0.63470 0.79090 0.52700
H 	H 	0.26830 0.65230 0.84410 0.49200
H 	H 	0.21580 0.60060 0.80630 0.50500
C 	C 	0.38350 0.48970 0.69960 0.49700
H 	H 	0.41100 0.45460 0.69210 -0.15900
C 	C 	0.37760 0.49360 0.74930 -0.94000
H 	H 	0.40160 0.46060 0.77330 0.34500
C 	C 	0.34050 0.54080 0.76410 1.19900
C 	C 	0.31440 0.58300 0.67630 0.46000
H 	H 	0.29070 0.61570 0.65190 -0.14600
C 	C 	0.30970 0.58740 0.72660 -0.86500
H 	H 	0.28420 0.62390 0.73450 0.29000
C 	C 	0.33690 0.53790 0.81780 -2.07000
H 	H 	0.37070 0.50450 0.83380 0.62800
C 	C 	0.47300 0.58880 0.11630 0.09500
C 	C 	0.21900 0.37040 0.05810 0.09700
Co	Co	0.84814 0.02006 0.58221 1.12100
S 	S 	0.02630 0.84630 0.63330 -0.11100
S 	S 	0.71070 0.22260 0.56150 -0.03400
S 	S 	0.64260 0.16290 0.56630 -0.05900
N 	N 	0.77410 0.93200 0.57852 -0.22500
N 	N 	0.42200 0.60730 0.58598 -0.26900
N 	N 	0.85110 0.96580 0.16321 -0.39300
N 	N 	0.84250 0.99730 0.50266 -0.11300
N 	N 	0.93520 0.95710 0.60540 -0.27600
N 	N 	0.76260 0.08750 0.55730 -0.26100
C 	C 	0.78880 0.86780 0.57050 0.04000
H 	H 	0.83410 0.85980 0.56740 -0.00900
C 	C 	0.74610 0.81190 0.56620 -0.06600
H 	H 	0.76200 0.76840 0.56040 0.02400
C 	C 	0.67810 0.82090 0.57060 -0.09500
C 	C 	0.66010 0.88860 0.57780 -0.05500
H 	H 	0.61480 0.89850 0.58020 0.03800
C 	C 	0.70850 0.94090 0.58160 0.03000
H 	H 	0.69440 0.98540 0.58660 0.00100
C 	C 	0.62530 0.76210 0.56270 0.33800
C 	C 	0.62900 0.70790 0.52540 -0.88400
H 	H 	0.60060 0.66890 0.52880 0.29000
H 	H 	0.61060 0.72580 0.49100 0.28500
H 	H 	0.67820 0.69390 0.53220 0.27700
C 	C 	0.47950 0.61690 0.62720 0.15800
H 	H 	0.48500 0.58850 0.65560 -0.04200
C 	C 	0.53150 0.66620 0.63050 -0.29500
H 	H 	0.56990 0.67160 0.66070 0.13000
C 	C 	0.52540 0.70770 0.58790 0.27900
C 	C 	0.46700 0.69560 0.54500 -0.31200
H 	H 	0.46100 0.72220 0.51560 0.13900
C 	C 	0.41870 0.64650 0.54430 0.16900
H 	H 	0.38120 0.63890 0.51390 -0.03900
C 	C 	0.58140 0.76050 0.59080 -0.40700
H 	H 	0.58620 0.79570 0.61470 0.16100
C 	C 	0.89910 0.99440 0.48730 -0.26000
H 	H 	0.94420 0.00100 0.51150 0.10000
C 	C 	0.89490 0.98200 0.43630 0.48900
H 	H 	0.93690 0.98170 0.42730 -0.17000
C 	C 	0.83030 0.97020 0.39930 -0.93700
C 	C 	0.77280 0.97430 0.41530 0.50700
H 	H 	0.72720 0.96920 0.39140 -0.18400
C 	C 	0.77870 0.98590 0.46620 -0.27600
H 	H 	0.73710 0.98590 0.47570 0.10600
C 	C 	0.81720 0.94680 0.34540 1.77600
C 	C 	0.76460 0.88330 0.31900 -1.64000
H 	H 	0.77860 0.86530 0.29090 0.52600
H 	H 	0.76830 0.84770 0.34410 0.49000
H 	H 	0.71580 0.89940 0.30630 0.50300
C 	C 	0.88350 0.01030 0.19960 0.49700
H 	H 	0.91100 0.04540 0.19210 -0.15900
C 	C 	0.87760 0.00640 0.24930 -0.93400
H 	H 	0.90160 0.03940 0.27330 0.34300
C 	C 	0.84050 0.95920 0.26410 1.19200
C 	C 	0.81440 0.91700 0.17630 0.45800
H 	H 	0.79070 0.88430 0.15190 -0.14500
C 	C 	0.80970 0.91260 0.22660 -0.86100
H 	H 	0.78420 0.87610 0.23450 0.28800
C 	C 	0.83690 0.96210 0.31780 -2.06100
H 	H 	0.87070 0.99550 0.33380 0.62500
C 	C 	0.97300 0.91120 0.61630 0.09600
C 	C 	0.71900 0.12960 0.55810 0.09700
Co	Co	0.34814 0.52006 0.58221 1.12100
S 	S 	0.52630 0.34630 0.63330 -0.11100
S 	S 	0.21070 0.72260 0.56150 -0.03400
S 	S 	0.14260 0.66290 0.56630 -0.05900
N 	N 	0.27410 0.43200 0.57852 -0.22500
N 	N 	0.92200 0.10730 0.58598 -0.26900
N 	N 	0.35110 0.46580 0.16321 -0.39300
N 	N 	0.34250 0.49730 0.50266 -0.11200
N 	N 	0.43520 0.45710 0.60540 -0.27600
N 	N 	0.26260 0.58750 0.55730 -0.26100
C 	C 	0.28880 0.36780 0.57050 0.04000
H 	H 	0.33410 0.35980 0.56740 -0.00900
C 	C 	0.24610 0.31190 0.56620 -0.06600
H 	H 	0.26200 0.26840 0.56040 0.02400
C 	C 	0.17810 0.32090 0.57060 -0.09400
C 	C 	0.16010 0.38860 0.57780 -0.05500
H 	H 	0.11480 0.39850 0.58020 0.03800
C 	C 	0.20850 0.44090 0.58160 0.03000
H 	H 	0.19440 0.48540 0.58660 0.00100
C 	C 	0.12530 0.26210 0.56270 0.33800
C 	C 	0.12900 0.20790 0.52540 -0.88400
H 	H 	0.10060 0.16890 0.52880 0.29000
H 	H 	0.11060 0.22580 0.49100 0.28500
H 	H 	0.17820 0.19390 0.53220 0.27700
C 	C 	0.97950 0.11690 0.62720 0.15900
H 	H 	0.98500 0.08850 0.65560 -0.04200
C 	C 	0.03150 0.16620 0.63050 -0.29600
H 	H 	0.06990 0.17160 0.66070 0.13000
C 	C 	0.02540 0.20770 0.58790 0.27900
C 	C 	0.96700 0.19560 0.54500 -0.31200
H 	H 	0.96100 0.22220 0.51560 0.13900
C 	C 	0.91870 0.14650 0.54430 0.16900
H 	H 	0.88120 0.13890 0.51390 -0.03900
C 	C 	0.08140 0.26050 0.59080 -0.40600
H 	H 	0.08620 0.29570 0.61470 0.16100
C 	C 	0.39910 0.49440 0.48730 -0.26100
H 	H 	0.44420 0.50100 0.51150 0.10000
C 	C 	0.39490 0.48200 0.43630 0.49100
H 	H 	0.43690 0.48170 0.42730 -0.17100
C 	C 	0.33030 0.47020 0.39930 -0.94100
C 	C 	0.27280 0.47430 0.41530 0.50900
H 	H 	0.22720 0.46920 0.39140 -0.18500
C 	C 	0.27870 0.48590 0.46620 -0.27800
H 	H 	0.23710 0.48590 0.47570 0.10600
C 	C 	0.31720 0.44680 0.34540 1.78300
C 	C 	0.26460 0.38330 0.31900 -1.64500
H 	H 	0.27860 0.36530 0.29090 0.52700
H 	H 	0.26830 0.34770 0.34410 0.49200
H 	H 	0.21580 0.39940 0.30630 0.50500
C 	C 	0.38350 0.51030 0.19960 0.49700
H 	H 	0.41100 0.54540 0.19210 -0.15900
C 	C 	0.37760 0.50640 0.24930 -0.93900
H 	H 	0.40160 0.53940 0.27330 0.34500
C 	C 	0.34050 0.45920 0.26410 1.19800
C 	C 	0.31440 0.41700 0.17630 0.46000
H 	H 	0.29070 0.38430 0.15190 -0.14600
C 	C 	0.30970 0.41260 0.22660 -0.86500
H 	H 	0.28420 0.37610 0.23450 0.29000
C 	C 	0.33690 0.46210 0.31780 -2.06900
H 	H 	0.37070 0.49550 0.33380 0.62700
C 	C 	0.47300 0.41120 0.61630 0.09500
C 	C 	0.21900 0.62960 0.55810 0.09700
Co	Co	0.15186 0.97994 0.41779 1.12100
S 	S 	0.97370 0.15370 0.36670 -0.11100
S 	S 	0.28930 0.77740 0.43850 -0.03400
S 	S 	0.35740 0.83710 0.43370 -0.05900
N 	N 	0.22590 0.06800 0.42148 -0.22500
N 	N 	0.57800 0.39270 0.41402 -0.26900
N 	N 	0.14890 0.03420 0.83679 -0.39300
N 	N 	0.15750 0.00270 0.49734 -0.11300
N 	N 	0.06480 0.04290 0.39460 -0.27600
N 	N 	0.23740 0.91250 0.44270 -0.26100
C 	C 	0.21120 0.13220 0.42950 0.04000
H 	H 	0.16590 0.14020 0.43260 -0.00900
C 	C 	0.25390 0.18810 0.43380 -0.06600
H 	H 	0.23800 0.23160 0.43960 0.02400
C 	C 	0.32190 0.17910 0.42940 -0.09500
C 	C 	0.33990 0.11140 0.42220 -0.05500
H 	H 	0.38520 0.10150 0.41980 0.03800
C 	C 	0.29150 0.05910 0.41840 0.03000
H 	H 	0.30560 0.01460 0.41340 0.00100
C 	C 	0.37470 0.23790 0.43730 0.33800
C 	C 	0.37100 0.29210 0.47460 -0.88400
H 	H 	0.39940 0.33110 0.47120 0.29000
H 	H 	0.38940 0.27420 0.50900 0.28500
H 	H 	0.32180 0.30610 0.46780 0.27700
C 	C 	0.52050 0.38310 0.37280 0.15800
H 	H 	0.51500 0.41150 0.34440 -0.04200
C 	C 	0.46850 0.33380 0.36950 -0.29500
H 	H 	0.43010 0.32840 0.33930 0.13000
C 	C 	0.47460 0.29230 0.41210 0.27900
C 	C 	0.53300 0.30440 0.45500 -0.31200
H 	H 	0.53900 0.27780 0.48440 0.13900
C 	C 	0.58130 0.35350 0.45570 0.16900
H 	H 	0.61880 0.36110 0.48610 -0.03900
C 	C 	0.41860 0.23950 0.40920 -0.40700
H 	H 	0.41380 0.20430 0.38530 0.16100
C 	C 	0.10090 0.00560 0.51270 -0.26000
H 	H 	0.05580 0.99900 0.48850 0.10000
C 	C 	0.10510 0.01800 0.56370 0.48900
H 	H 	0.06310 0.01830 0.57270 -0.17000
C 	C 	0.16970 0.02980 0.60070 -0.93700
C 	C 	0.22720 0.02570 0.58470 0.50700
H 	H 	0.27280 0.03080 0.60860 -0.18400
C 	C 	0.22130 0.01410 0.53380 -0.27600
H 	H 	0.26290 0.01410 0.52430 0.10600
C 	C 	0.18280 0.05320 0.65460 1.77600
C 	C 	0.23540 0.11670 0.68100 -1.64000
H 	H 	0.22140 0.13470 0.70910 0.52600
H 	H 	0.23170 0.15230 0.65590 0.49000
H 	H 	0.28420 0.10060 0.69370 0.50300
C 	C 	0.11650 0.98970 0.80040 0.49700
H 	H 	0.08900 0.95460 0.80790 -0.15900
C 	C 	0.12240 0.99360 0.75070 -0.93400
H 	H 	0.09840 0.96060 0.72670 0.34300
C 	C 	0.15950 0.04080 0.73590 1.19200
C 	C 	0.18560 0.08300 0.82370 0.45800
H 	H 	0.20930 0.11570 0.84810 -0.14500
C 	C 	0.19030 0.08740 0.77340 -0.86100
H 	H 	0.21580 0.12390 0.76550 0.28800
C 	C 	0.16310 0.03790 0.68220 -2.06100
H 	H 	0.12930 0.00450 0.66620 0.62500
C 	C 	0.02700 0.08880 0.38370 0.09600
C 	C 	0.28100 0.87040 0.44190 0.09700
Co	Co	0.65186 0.47994 0.41779 1.12100
S 	S 	0.47370 0.65370 0.36670 -0.11100
S 	S 	0.78930 0.27740 0.43850 -0.03400
S 	S 	0.85740 0.33710 0.43370 -0.05900
N 	N 	0.72590 0.56800 0.42148 -0.22500
N 	N 	0.07800 0.89270 0.41402 -0.26900
N 	N 	0.64890 0.53420 0.83679 -0.39300
N 	N 	0.65750 0.50270 0.49734 -0.11200
N 	N 	0.56480 0.54290 0.39460 -0.27600
N 	N 	0.73740 0.41250 0.44270 -0.26100
C 	C 	0.71120 0.63220 0.42950 0.04000
H 	H 	0.66590 0.64020 0.43260 -0.00900
C 	C 	0.75390 0.68810 0.43380 -0.06600
H 	H 	0.73800 0.73160 0.43960 0.02400
C 	C 	0.82190 0.67910 0.42940 -0.09400
C 	C 	0.83990 0.61140 0.42220 -0.05500
H 	H 	0.88520 0.60150 0.41980 0.03800
C 	C 	0.79150 0.55910 0.41840 0.03000
H 	H 	0.80560 0.51460 0.41340 0.00100
C 	C 	0.87470 0.73790 0.43730 0.33800
C 	C 	0.87100 0.79210 0.47460 -0.88400
H 	H 	0.89940 0.83110 0.47120 0.29000
H 	H 	0.88940 0.77420 0.50900 0.28500
H 	H 	0.82180 0.80610 0.46780 0.27700
C 	C 	0.02050 0.88310 0.37280 0.15900
H 	H 	0.01500 0.91150 0.34440 -0.04200
C 	C 	0.96850 0.83380 0.36950 -0.29600
H 	H 	0.93010 0.82840 0.33930 0.13000
C 	C 	0.97460 0.79230 0.41210 0.27900
C 	C 	0.03300 0.80440 0.45500 -0.31200
H 	H 	0.03900 0.77780 0.48440 0.13900
C 	C 	0.08130 0.85350 0.45570 0.16900
H 	H 	0.11880 0.86110 0.48610 -0.03900
C 	C 	0.91860 0.73950 0.40920 -0.40600
H 	H 	0.91380 0.70430 0.38530 0.16100
C 	C 	0.60090 0.50560 0.51270 -0.26100
H 	H 	0.55580 0.49900 0.48850 0.10000
C 	C 	0.60510 0.51800 0.56370 0.49100
H 	H 	0.56310 0.51830 0.57270 -0.17100
C 	C 	0.66970 0.52980 0.60070 -0.94100
C 	C 	0.72720 0.52570 0.58470 0.50900
H 	H 	0.77280 0.53080 0.60860 -0.18500
C 	C 	0.72130 0.51410 0.53380 -0.27800
H 	H 	0.76290 0.51410 0.52430 0.10600
C 	C 	0.68280 0.55320 0.65460 1.78300
C 	C 	0.73540 0.61670 0.68100 -1.64500
H 	H 	0.72140 0.63470 0.70910 0.52700
H 	H 	0.73170 0.65230 0.65590 0.49200
H 	H 	0.78420 0.60060 0.69370 0.50500
C 	C 	0.61650 0.48970 0.80040 0.49700
H 	H 	0.58900 0.45460 0.80790 -0.15900
C 	C 	0.62240 0.49360 0.75070 -0.93900
H 	H 	0.59840 0.46060 0.72670 0.34500
C 	C 	0.65950 0.54080 0.73590 1.19800
C 	C 	0.68560 0.58300 0.82370 0.46000
H 	H 	0.70930 0.61570 0.84810 -0.14600
C 	C 	0.69030 0.58740 0.77340 -0.86500
H 	H 	0.71580 0.62390 0.76550 0.29000
C 	C 	0.66310 0.53790 0.68220 -2.06900
H 	H 	0.62930 0.50450 0.66620 0.62700
C 	C 	0.52700 0.58880 0.38370 0.09500
C 	C 	0.78100 0.37040 0.44190 0.09700
Co	Co	0.15186 0.02006 0.91779 1.12000
S 	S 	0.97370 0.84630 0.86670 -0.11000
S 	S 	0.28930 0.22260 0.93850 -0.03500
S 	S 	0.35740 0.16290 0.93370 -0.06000
N 	N 	0.22590 0.93200 0.92148 -0.22400
N 	N 	0.57800 0.60730 0.91402 -0.26900
N 	N 	0.14890 0.96580 0.33679 -0.39200
N 	N 	0.15750 0.99730 0.99734 -0.11100
N 	N 	0.06480 0.95710 0.89460 -0.27500
N 	N 	0.23740 0.08750 0.94270 -0.26200
C 	C 	0.21120 0.86780 0.92950 0.04100
H 	H 	0.16590 0.85980 0.93260 -0.00900
C 	C 	0.25390 0.81190 0.93380 -0.06700
H 	H 	0.23800 0.76840 0.93960 0.02400
C 	C 	0.32190 0.82090 0.92940 -0.09400
C 	C 	0.33990 0.88860 0.92220 -0.05500
H 	H 	0.38520 0.89850 0.91980 0.03900
C 	C 	0.29150 0.94090 0.91840 0.03000
H 	H 	0.30560 0.98540 0.91340 0.00200
C 	C 	0.37470 0.76210 0.93730 0.33600
C 	C 	0.37100 0.70790 0.97460 -0.87900
H 	H 	0.39940 0.66890 0.97120 0.28900
H 	H 	0.38940 0.72580 0.00900 0.28300
H 	H 	0.32180 0.69390 0.96780 0.27600
C 	C 	0.52050 0.61690 0.87280 0.15800
H 	H 	0.51500 0.58850 0.84440 -0.04200
C 	C 	0.46850 0.66620 0.86950 -0.29500
H 	H 	0.43010 0.67160 0.83930 0.12900
C 	C 	0.47460 0.70770 0.91210 0.27900
C 	C 	0.53300 0.69560 0.95500 -0.31200
H 	H 	0.53900 0.72220 0.98440 0.14000
C 	C 	0.58130 0.64650 0.95570 0.16900
H 	H 	0.61880 0.63890 0.98610 -0.03800
C 	C 	0.41860 0.76050 0.90920 -0.40500
H 	H 	0.41380 0.79570 0.88530 0.16100
C 	C 	0.10090 0.99440 0.01270 -0.26100
H 	H 	0.05580 0.00100 0.98850 0.09900
C 	C 	0.10510 0.98200 0.06370 0.49000
H 	H 	0.06310 0.98170 0.07270 -0.17000
C 	C 	0.16970 0.97020 0.10070 -0.93800
C 	C 	0.22720 0.97430 0.08470 0.50800
H 	H 	0.27280 0.96920 0.10860 -0.18500
C 	C 	0.22130 0.98590 0.03380 -0.27900
H 	H 	0.26290 0.98590 0.02430 0.10600
C 	C 	0.18280 0.94680 0.15460 1.77800
C 	C 	0.23540 0.88330 0.18100 -1.64200
H 	H 	0.22140 0.86530 0.20910 0.52600
H 	H 	0.23170 0.84770 0.15590 0.49100
H 	H 	0.28420 0.89940 0.19370 0.50400
C 	C 	0.11650 0.01030 0.30040 0.49600
H 	H 	0.08900 0.04540 0.30790 -0.15900
C 	C 	0.12240 0.00640 0.25070 -0.93500
H 	H 	0.09840 0.03940 0.22670 0.34400
C 	C 	0.15950 0.95920 0.23590 1.19400
C 	C 	0.18560 0.91700 0.32370 0.45800
H 	H 	0.20930 0.88430 0.34810 -0.14500
C 	C 	0.19030 0.91260 0.27340 -0.86200
H 	H 	0.21580 0.87610 0.26550 0.28900
C 	C 	0.16310 0.96210 0.18220 -2.06300
H 	H 	0.12930 0.99550 0.16620 0.62500
C 	C 	0.02700 0.91120 0.88370 0.09500
C 	C 	0.28100 0.12960 0.94190 0.09700
Co	Co	0.65186 0.52006 0.91779 1.12100
S 	S 	0.47370 0.34630 0.86670 -0.11200
S 	S 	0.78930 0.72260 0.93850 -0.03300
S 	S 	0.85740 0.66290 0.93370 -0.05900
N 	N 	0.72590 0.43200 0.92148 -0.22500
N 	N 	0.07800 0.10730 0.91402 -0.26900
N 	N 	0.64890 0.46580 0.33679 -0.39300
N 	N 	0.65750 0.49730 0.99734 -0.11200
N 	N 	0.56480 0.45710 0.89460 -0.27600
N 	N 	0.73740 0.58750 0.94270 -0.26100
C 	C 	0.71120 0.36780 0.92950 0.04000
H 	H 	0.66590 0.35980 0.93260 -0.00900
C 	C 	0.75390 0.31190 0.93380 -0.06600
H 	H 	0.73800 0.26840 0.93960 0.02300
C 	C 	0.82190 0.32090 0.92940 -0.09500
C 	C 	0.83990 0.38860 0.92220 -0.05400
H 	H 	0.88520 0.39850 0.91980 0.03800
C 	C 	0.79150 0.44090 0.91840 0.03000
H 	H 	0.80560 0.48540 0.91340 0.00100
C 	C 	0.87470 0.26210 0.93730 0.33900
C 	C 	0.87100 0.20790 0.97460 -0.88800
H 	H 	0.89940 0.16890 0.97120 0.29100
H 	H 	0.88940 0.22580 0.00900 0.28700
H 	H 	0.82180 0.19390 0.96780 0.27800
C 	C 	0.02050 0.11690 0.87280 0.15800
H 	H 	0.01500 0.08850 0.84440 -0.04200
C 	C 	0.96850 0.16620 0.86950 -0.29500
H 	H 	0.93010 0.17160 0.83930 0.12900
C 	C 	0.97460 0.20770 0.91210 0.28000
C 	C 	0.03300 0.19560 0.95500 -0.31400
H 	H 	0.03900 0.22220 0.98440 0.13900
C 	C 	0.08130 0.14650 0.95570 0.17000
H 	H 	0.11880 0.13890 0.98610 -0.03900
C 	C 	0.91860 0.26050 0.90920 -0.40800
H 	H 	0.91380 0.29570 0.88530 0.16200
C 	C 	0.60090 0.49440 0.01270 -0.26200
H 	H 	0.55580 0.50100 0.98850 0.10000
C 	C 	0.60510 0.48200 0.06370 0.49200
H 	H 	0.56310 0.48170 0.07270 -0.17100
C 	C 	0.66970 0.47020 0.10070 -0.94100
C 	C 	0.72720 0.47430 0.08470 0.51000
H 	H 	0.77280 0.46920 0.10860 -0.18600
C 	C 	0.72130 0.48590 0.03380 -0.27800
H 	H 	0.76290 0.48590 0.02430 0.10600
C 	C 	0.68280 0.44680 0.15460 1.78400
C 	C 	0.73540 0.38330 0.18100 -1.64600
H 	H 	0.72140 0.36530 0.20910 0.52700
H 	H 	0.73170 0.34770 0.15590 0.49200
H 	H 	0.78420 0.39940 0.19370 0.50500
C 	C 	0.61650 0.51030 0.30040 0.49700
H 	H 	0.58900 0.54540 0.30790 -0.15900
C 	C 	0.62240 0.50640 0.25070 -0.94000
H 	H 	0.59840 0.53940 0.22670 0.34500
C 	C 	0.65950 0.45920 0.23590 1.19900
C 	C 	0.68560 0.41700 0.32370 0.46000
H 	H 	0.70930 0.38430 0.34810 -0.14600
C 	C 	0.69030 0.41260 0.27340 -0.86500
H 	H 	0.71580 0.37610 0.26550 0.29000
C 	C 	0.66310 0.46210 0.18220 -2.07000
H 	H 	0.62930 0.49550 0.16620 0.62800
C 	C 	0.52700 0.41120 0.88370 0.09500
C 	C 	0.78100 0.62960 0.94190 0.09700
