data_crystal

_cell_length_a 11.36050
_cell_length_b 18.31200
_cell_length_c 12.44630
_cell_angle_alpha 90.00000
_cell_angle_beta  108.49100
_cell_angle_gamma 90.00000

_symmetry_space_group_name_	'P 1'
_symmetry_space_group_name_H-M	'P 1'

loop_
_symmetry_equiv_pos_as_xyz
  x,y,z

loop_
_atom_site_label
_atom_site_type_symbol
_atom_site_fract_x
_atom_site_fract_y
_atom_site_fract_z
_atom_site_charge
Zn	Zn	0.26629 0.47820 0.90906 1.21300
Zn	Zn	0.08276 0.32757 0.44064 1.16200
O 	O 	0.36830 0.47684 0.81030 -0.43500
O 	O 	0.45400 0.37340 0.89310 -0.27900
O 	O 	0.64110 0.48703 0.93990 -0.44800
O 	O 	0.81640 0.47229 0.89720 -0.45400
O 	O 	0.77520 0.45960 0.49730 -0.15000
O 	O 	0.61970 0.40700 0.38250 -0.12300
O 	O 	0.25040 0.36466 0.48560 -0.47400
O 	O 	0.27360 0.33830 0.66480 -0.33900
N 	N 	0.87050 0.45379 0.17370 -0.25900
N 	N 	0.97530 0.44576 0.14260 -0.18500
N 	N 	0.00030 0.38353 0.30110 -0.33600
N 	N 	0.06540 0.39828 0.95230 -0.20800
N 	N 	0.17260 0.38938 0.92480 -0.24800
N 	N 	0.09210 0.28058 0.92770 -0.28900
N 	N 	0.67400 0.43090 0.47460 -0.00800
C 	C 	0.88930 0.41650 0.26780 0.16700
H 	H 	0.83200 0.41330 0.30690 -0.03800
C 	C 	0.05030 0.40390 0.22060 0.02700
H 	H 	0.12890 0.38990 0.22040 -0.01400
C 	C 	0.02070 0.33250 0.95320 -0.02000
H 	H 	0.94790 0.32260 0.96960 0.05100
C 	C 	0.18560 0.31890 0.91060 0.10700
H 	H 	0.25090 0.29830 0.89130 -0.01400
C 	C 	0.31220 0.36370 0.59150 0.33000
C 	C 	0.44110 0.39510 0.62200 -0.02200
C 	C 	0.49750 0.39940 0.53730 -0.08000
H 	H 	0.45530 0.38440 0.46370 0.09400
C 	C 	0.61660 0.42610 0.56460 0.10500
C 	C 	0.68330 0.44780 0.67180 -0.08100
H 	H 	0.76440 0.46440 0.68820 0.08500
C 	C 	0.62580 0.44420 0.75640 -0.03300
C 	C 	0.50400 0.41960 0.73140 -0.02000
C 	C 	0.43720 0.42180 0.82000 0.33900
C 	C 	0.70230 0.47010 0.87450 0.37300
Zn	Zn	0.73371 0.97820 0.59094 1.22300
Zn	Zn	0.91724 0.82757 0.05936 1.17400
O 	O 	0.63170 0.97684 0.68970 -0.41200
O 	O 	0.54600 0.87340 0.60690 -0.28300
O 	O 	0.35890 0.98703 0.56010 -0.44500
O 	O 	0.18360 0.97229 0.60280 -0.47600
O 	O 	0.22480 0.95960 0.00270 -0.17200
O 	O 	0.38030 0.90700 0.11750 -0.11800
O 	O 	0.74960 0.86466 0.01440 -0.49700
O 	O 	0.72640 0.83830 0.83520 -0.33200
N 	N 	0.12950 0.95379 0.32630 -0.22800
N 	N 	0.02470 0.94576 0.35740 -0.25600
N 	N 	0.99970 0.88353 0.19890 -0.27700
N 	N 	0.93460 0.89828 0.54770 -0.22100
N 	N 	0.82740 0.88938 0.57520 -0.24000
N 	N 	0.90790 0.78058 0.57230 -0.31300
N 	N 	0.32600 0.93090 0.02540 -0.01600
C 	C 	0.11070 0.91650 0.23220 0.03800
H 	H 	0.16800 0.91330 0.19310 -0.00400
C 	C 	0.94970 0.90390 0.27940 0.17700
H 	H 	0.87110 0.88990 0.27960 -0.04000
C 	C 	0.97930 0.83250 0.54680 0.21500
H 	H 	0.05210 0.82260 0.53040 -0.12100
C 	C 	0.81440 0.81890 0.58940 0.11000
H 	H 	0.74910 0.79830 0.60870 -0.01100
C 	C 	0.68780 0.86370 0.90850 0.38900
C 	C 	0.55890 0.89510 0.87800 -0.05500
C 	C 	0.50250 0.89940 0.96270 0.01200
H 	H 	0.54470 0.88440 0.03630 0.04800
C 	C 	0.38340 0.92610 0.93540 0.10500
C 	C 	0.31670 0.94780 0.82820 -0.06500
H 	H 	0.23560 0.96440 0.81180 0.08200
C 	C 	0.37420 0.94420 0.74360 -0.04500
C 	C 	0.49600 0.91960 0.76860 0.00200
C 	C 	0.56280 0.92180 0.68000 0.33200
C 	C 	0.29770 0.97010 0.62550 0.38300
Zn	Zn	0.73371 0.52180 0.09094 1.20100
Zn	Zn	0.91724 0.67243 0.55936 1.17700
O 	O 	0.63170 0.52316 0.18970 -0.44400
O 	O 	0.54600 0.62660 0.10690 -0.30100
O 	O 	0.35890 0.51297 0.06010 -0.49000
O 	O 	0.18360 0.52771 0.10280 -0.51200
O 	O 	0.22480 0.54040 0.50270 -0.17600
O 	O 	0.38030 0.59300 0.61750 -0.12600
O 	O 	0.74960 0.63534 0.51440 -0.46400
O 	O 	0.72640 0.66170 0.33520 -0.32800
N 	N 	0.12950 0.54621 0.82630 -0.23800
N 	N 	0.02470 0.55424 0.85740 -0.26500
N 	N 	0.99970 0.61647 0.69890 -0.27400
N 	N 	0.93460 0.60172 0.04770 -0.23800
N 	N 	0.82740 0.61062 0.07520 -0.25300
N 	N 	0.90790 0.71942 0.07230 -0.31800
N 	N 	0.32600 0.56910 0.52540 -0.00600
C 	C 	0.11070 0.58350 0.73220 0.02900
H 	H 	0.16800 0.58670 0.69310 -0.00600
C 	C 	0.94970 0.59610 0.77940 0.18300
H 	H 	0.87110 0.61010 0.77960 -0.04400
C 	C 	0.97930 0.66750 0.04680 0.21000
H 	H 	0.05210 0.67740 0.03040 -0.13000
C 	C 	0.81440 0.68110 0.08940 0.10200
H 	H 	0.74910 0.70170 0.10870 -0.01500
C 	C 	0.68780 0.63630 0.40850 0.32900
C 	C 	0.55890 0.60490 0.37800 -0.02300
C 	C 	0.50250 0.60060 0.46270 -0.07700
H 	H 	0.54470 0.61560 0.53630 0.09500
C 	C 	0.38340 0.57390 0.43540 0.09400
C 	C 	0.31670 0.55220 0.32820 -0.07300
H 	H 	0.23560 0.53560 0.31180 0.06700
C 	C 	0.37420 0.55580 0.24360 -0.05000
C 	C 	0.49600 0.58040 0.26860 -0.01900
C 	C 	0.56280 0.57820 0.18000 0.34200
C 	C 	0.29770 0.52990 0.12550 0.38600
Zn	Zn	0.26629 0.02180 0.40906 1.18800
Zn	Zn	0.08276 0.17243 0.94064 1.16300
O 	O 	0.36830 0.02316 0.31030 -0.47100
O 	O 	0.45400 0.12660 0.39310 -0.29900
O 	O 	0.64110 0.01297 0.43990 -0.49000
O 	O 	0.81640 0.02771 0.39720 -0.48300
O 	O 	0.77520 0.04040 0.99730 -0.15200
O 	O 	0.61970 0.09300 0.88250 -0.13000
O 	O 	0.25040 0.13534 0.98560 -0.44400
O 	O 	0.27360 0.16170 0.16480 -0.33600
N 	N 	0.87050 0.04621 0.67370 -0.26700
N 	N 	0.97530 0.05424 0.64260 -0.18200
N 	N 	0.00030 0.11647 0.80110 -0.33700
N 	N 	0.06540 0.10172 0.45230 -0.22500
N 	N 	0.17260 0.11062 0.42480 -0.26200
N 	N 	0.09210 0.21942 0.42770 -0.29300
N 	N 	0.67400 0.06910 0.97460 0.00200
C 	C 	0.88930 0.08350 0.76780 0.17000
H 	H 	0.83200 0.08670 0.80690 -0.04200
C 	C 	0.05030 0.09610 0.72060 0.01700
H 	H 	0.12890 0.11010 0.72040 -0.01400
C 	C 	0.02070 0.16750 0.45320 -0.03000
H 	H 	0.94790 0.17740 0.46960 0.04600
C 	C 	0.18560 0.18110 0.41060 0.09900
H 	H 	0.25090 0.20170 0.39130 -0.01800
C 	C 	0.31220 0.13630 0.09150 0.27100
C 	C 	0.44110 0.10490 0.12200 0.00900
C 	C 	0.49750 0.10060 0.03730 -0.16800
H 	H 	0.45530 0.11560 0.96370 0.14000
C 	C 	0.61660 0.07390 0.06460 0.09400
C 	C 	0.68330 0.05220 0.17180 -0.08900
H 	H 	0.76440 0.03560 0.18820 0.07100
C 	C 	0.62580 0.05580 0.25640 -0.03600
C 	C 	0.50400 0.08040 0.23140 -0.04300
C 	C 	0.43720 0.07820 0.32000 0.35000
C 	C 	0.70230 0.02990 0.37450 0.37400
Zn	Zn	-0.00000 0.50000 -0.00000 1.16100
Zn	Zn	0.00000 -0.00000 0.50000 1.15200
