data_crystal

_cell_length_a 18.52830
_cell_length_b 14.22190
_cell_length_c 21.91460
_cell_angle_alpha 90.00000
_cell_angle_beta  93.89700
_cell_angle_gamma 90.00000

_symmetry_space_group_name_	'P 1'
_symmetry_space_group_name_H-M	'P 1'

loop_
_symmetry_equiv_pos_as_xyz
  x,y,z

loop_
_atom_site_label
_atom_site_type_symbol
_atom_site_fract_x
_atom_site_fract_y
_atom_site_fract_z
_atom_site_charge
C 	C 	0.36020 0.42870 0.50039 0.40000
C 	C 	0.40550 0.51160 0.52148 -0.07800
C 	C 	0.40510 0.59250 0.48576 -0.05400
H 	H 	0.37770 0.59520 0.44750 0.07400
C 	C 	0.44560 0.66960 0.50733 0.09300
C 	C 	0.49030 0.66430 0.56001 -0.06500
H 	H 	0.51830 0.71730 0.57340 0.07700
C 	C 	0.49440 0.58290 0.59306 -0.06000
C 	C 	0.45000 0.50750 0.57473 0.01400
H 	H 	0.45020 0.45230 0.59920 0.05900
C 	C 	0.54490 0.57230 0.64890 0.32700
C 	C 	0.43890 0.90920 0.46260 0.08400
C 	C 	0.48250 0.91640 0.41370 -0.05200
H 	H 	0.51030 0.86400 0.40230 0.07800
C 	C 	0.48530 0.99980 0.38170 -0.06400
C 	C 	0.44250 0.07490 0.39650 0.02200
H 	H 	0.44290 0.13110 0.37320 0.04700
C 	C 	0.39890 0.06830 0.44550 -0.09700
C 	C 	0.39800 0.98540 0.47940 -0.04200
H 	H 	0.36960 0.98110 0.51380 0.06800
C 	C 	0.35620 0.15100 0.46260 0.40000
C 	C 	0.53970 0.01120 0.33190 0.37700
C 	C 	0.26490 0.53270 0.31080 0.36600
C 	C 	0.21910 0.61160 0.33210 -0.06600
C 	C 	0.22050 0.70000 0.30340 0.00400
H 	H 	0.25000 0.71050 0.27030 0.06600
C 	C 	0.17760 0.77180 0.32440 -0.05800
C 	C 	0.13390 0.75680 0.37120 -0.05800
H 	H 	0.10560 0.80700 0.38550 0.07100
C 	C 	0.13050 0.67010 0.39760 0.07200
C 	C 	0.17420 0.59700 0.37900 -0.05000
H 	H 	0.17300 0.53750 0.39850 0.07100
C 	C 	0.17710 0.86700 0.29480 0.33600
C 	C 	0.02850 0.61120 0.52140 0.07500
C 	C 	0.05060 0.57550 0.57780 -0.04600
H 	H 	0.09810 0.55120 0.58510 0.06800
C 	C 	0.00390 0.57520 0.62340 -0.07800
C 	C 	0.93370 0.60910 0.61290 0.02400
H 	H 	0.90170 0.60930 0.64500 0.04400
C 	C 	0.91070 0.64200 0.55600 -0.10300
C 	C 	0.95820 0.64380 0.50960 -0.03800
H 	H 	0.94280 0.66700 0.47020 0.06400
C 	C 	0.83380 0.67420 0.54410 0.41300
C 	C 	0.02750 0.53990 0.68580 0.35900
N 	N 	0.30950 0.32430 0.21880 -0.26500
C 	C 	0.30230 0.31210 0.15810 -0.07800
H 	H 	0.32590 0.35650 0.13400 -0.03300
N 	N 	0.26540 0.24410 0.12810 -0.40800
C 	C 	0.22680 0.17950 0.15910 0.00300
C 	C 	0.23210 0.18550 0.22260 -0.13800
C 	C 	0.27480 0.25790 0.25080 0.09900
N 	N 	0.27320 0.24840 0.31160 0.18600
C 	C 	0.23260 0.17330 0.31970 0.11500
H 	H 	0.22250 0.15110 0.35910 0.14300
N 	N 	0.20640 0.13080 0.26740 0.05800
N 	N 	0.18120 0.11830 0.12920 -0.22600
H 	H 	0.17580 0.11940 0.08900 0.08100
H 	H 	0.15690 0.07740 0.14990 0.15200
N 	N 	0.44230 0.75190 0.46918 -0.08300
N 	N 	0.43670 0.82570 0.49956 -0.08100
N 	N 	0.06970 0.66750 0.44540 -0.07900
N 	N 	0.08440 0.60750 0.47690 -0.07800
O 	O 	0.33446 0.42962 0.44686 -0.46600
O 	O 	0.35250 0.36520 0.53976 -0.47400
O 	O 	0.54140 0.50140 0.68131 -0.37300
O 	O 	0.59207 0.63560 0.66186 -0.50000
O 	O 	0.32740 0.14820 0.51292 -0.49700
O 	O 	0.35100 0.21870 0.42645 -0.49200
O 	O 	0.55530 0.08960 0.31610 -0.29500
O 	O 	0.56450 0.93870 0.31330 -0.46200
O 	O 	0.30910 0.55330 0.27010 -0.43700
O 	O 	0.25750 0.45380 0.33213 -0.45800
O 	O 	0.21030 0.87940 0.24890 -0.30400
O 	O 	0.14380 0.93140 0.32120 -0.48500
O 	O 	0.81190 0.68400 0.48897 -0.50800
O 	O 	0.79828 0.69040 0.58813 -0.48800
O 	O 	0.99300 0.55800 0.72810 -0.33600
O 	O 	0.08520 0.48970 0.68940 -0.48200
Zn	Zn	0.30438 0.33512 0.38042 1.22400
Zn	Zn	0.28090 0.26241 0.53712 1.22000
Zn	Zn	0.37288 0.44588 0.25451 1.22700
Zn	Zn	0.12409 0.03962 0.27130 1.18900
N 	N 	0.27290 0.26080 0.29170 -0.49700
C 	C 	0.23020 0.18440 0.29610 0.07400
H 	H 	0.21960 0.16510 0.33600 -0.27500
N 	N 	0.20080 0.13250 0.24810 -0.32900
C 	C 	0.21850 0.15120 0.19150 0.21700
C 	C 	0.26100 0.23030 0.18240 0.02400
C 	C 	0.28790 0.28160 0.23220 0.29200
N 	N 	0.32520 0.35750 0.21350 -0.11400
C 	C 	0.32080 0.34550 0.15120 0.05300
H 	H 	0.34290 0.38820 0.12480 0.03200
N 	N 	0.28340 0.26970 0.12940 0.19100
N 	N 	0.20090 0.09360 0.13990 -0.11400
H 	H 	0.17650 0.04110 0.14410 0.01000
H 	H 	0.21430 0.11020 0.10370 0.11300
C 	C 	0.63980 0.92870 0.99961 0.39700
C 	C 	0.59450 0.01160 0.97852 -0.07300
C 	C 	0.59490 0.09250 0.01424 -0.05700
H 	H 	0.62230 0.09520 0.05250 0.07700
C 	C 	0.55440 0.16960 0.99267 0.09700
C 	C 	0.50970 0.16430 0.93999 -0.06500
H 	H 	0.48170 0.21730 0.92660 0.07900
C 	C 	0.50560 0.08290 0.90694 -0.05800
C 	C 	0.55000 0.00750 0.92527 0.01400
H 	H 	0.54980 0.95230 0.90080 0.06000
C 	C 	0.45510 0.07230 0.85110 0.32700
C 	C 	0.56110 0.40920 0.03740 0.08400
C 	C 	0.51750 0.41640 0.08630 -0.05100
H 	H 	0.48970 0.36400 0.09770 0.07700
C 	C 	0.51470 0.49980 0.11830 -0.06500
C 	C 	0.55750 0.57490 0.10350 0.02400
H 	H 	0.55710 0.63110 0.12680 0.04600
C 	C 	0.60110 0.56830 0.05450 -0.09700
C 	C 	0.60200 0.48540 0.02060 -0.04200
H 	H 	0.63040 0.48110 0.98620 0.06800
C 	C 	0.64380 0.65100 0.03740 0.40100
C 	C 	0.46030 0.51120 0.16810 0.37900
C 	C 	0.73510 0.03270 0.18920 0.36500
C 	C 	0.78090 0.11160 0.16790 -0.06600
C 	C 	0.77950 0.20000 0.19660 0.00400
H 	H 	0.75000 0.21050 0.22970 0.06500
C 	C 	0.82240 0.27180 0.17560 -0.05800
C 	C 	0.86610 0.25680 0.12880 -0.05800
H 	H 	0.89440 0.30700 0.11450 0.07000
C 	C 	0.86950 0.17010 0.10240 0.07200
C 	C 	0.82580 0.09700 0.12100 -0.05000
H 	H 	0.82700 0.03750 0.10150 0.07000
C 	C 	0.82290 0.36700 0.20520 0.33600
C 	C 	0.97150 0.11120 0.97860 0.07400
C 	C 	0.94940 0.07550 0.92220 -0.04500
H 	H 	0.90190 0.05120 0.91490 0.06800
C 	C 	0.99610 0.07520 0.87660 -0.07900
C 	C 	0.06630 0.10910 0.88710 0.02600
H 	H 	0.09830 0.10930 0.85500 0.04400
C 	C 	0.08930 0.14200 0.94400 -0.10400
C 	C 	0.04180 0.14380 0.99040 -0.03500
H 	H 	0.05720 0.16700 0.02980 0.06200
C 	C 	0.16620 0.17420 0.95590 0.41500
C 	C 	0.97250 0.03990 0.81420 0.36000
N 	N 	0.69050 0.82430 0.28120 -0.26500
C 	C 	0.69770 0.81210 0.34190 -0.07800
H 	H 	0.67410 0.85650 0.36600 -0.03300
N 	N 	0.73460 0.74410 0.37190 -0.40800
C 	C 	0.77320 0.67950 0.34090 0.00300
C 	C 	0.76790 0.68550 0.27740 -0.13800
C 	C 	0.72520 0.75790 0.24920 0.09900
N 	N 	0.72680 0.74840 0.18840 0.18600
C 	C 	0.76740 0.67330 0.18030 0.11500
H 	H 	0.77750 0.65110 0.14090 0.14400
N 	N 	0.79360 0.63080 0.23260 0.05900
N 	N 	0.81880 0.61830 0.37080 -0.22600
H 	H 	0.82420 0.61940 0.41100 0.08100
H 	H 	0.84310 0.57740 0.35010 0.15200
N 	N 	0.55770 0.25190 0.03082 -0.08400
N 	N 	0.56330 0.32570 0.00044 -0.08100
N 	N 	0.93030 0.16750 0.05460 -0.07900
N 	N 	0.91560 0.10750 0.02310 -0.07800
O 	O 	0.66554 0.92962 0.05314 -0.46400
O 	O 	0.64750 0.86520 0.96024 -0.47400
O 	O 	0.45860 0.00140 0.81869 -0.37300
O 	O 	0.40793 0.13560 0.83814 -0.50000
O 	O 	0.67260 0.64820 0.98708 -0.49700
O 	O 	0.64900 0.71870 0.07355 -0.49200
O 	O 	0.44470 0.58960 0.18390 -0.29600
O 	O 	0.43550 0.43870 0.18670 -0.46300
O 	O 	0.69090 0.05330 0.22990 -0.43800
O 	O 	0.74250 0.95380 0.16787 -0.45700
O 	O 	0.78970 0.37940 0.25110 -0.30500
O 	O 	0.85620 0.43140 0.17880 -0.48500
O 	O 	0.18810 0.18400 0.01103 -0.51000
O 	O 	0.20172 0.19040 0.91187 -0.48800
O 	O 	0.00700 0.05800 0.77190 -0.33700
O 	O 	0.91480 0.98970 0.81060 -0.48300
Zn	Zn	0.69562 0.83512 0.11958 1.22400
Zn	Zn	0.71910 0.76241 0.96288 1.21900
Zn	Zn	0.62712 0.94588 0.24549 1.22700
Zn	Zn	0.87591 0.53962 0.22870 1.18900
N 	N 	0.72710 0.76080 0.20830 -0.49700
C 	C 	0.76980 0.68440 0.20390 0.07400
H 	H 	0.78040 0.66510 0.16400 -0.27500
N 	N 	0.79920 0.63250 0.25190 -0.32900
C 	C 	0.78150 0.65120 0.30850 0.21700
C 	C 	0.73900 0.73030 0.31760 0.02400
C 	C 	0.71210 0.78160 0.26780 0.29200
N 	N 	0.67480 0.85750 0.28650 -0.11400
C 	C 	0.67920 0.84550 0.34880 0.05300
H 	H 	0.65710 0.88820 0.37520 0.03200
N 	N 	0.71660 0.76970 0.37060 0.19200
N 	N 	0.79910 0.59360 0.36010 -0.11400
H 	H 	0.82350 0.54110 0.35590 0.01100
H 	H 	0.78570 0.61020 0.39630 0.11300
C 	C 	0.63980 0.57130 0.49961 0.40100
C 	C 	0.59450 0.48840 0.47852 -0.07700
C 	C 	0.59490 0.40750 0.51424 -0.05300
H 	H 	0.62230 0.40480 0.55250 0.07500
C 	C 	0.55440 0.33040 0.49267 0.09400
C 	C 	0.50970 0.33570 0.43999 -0.06400
H 	H 	0.48170 0.28270 0.42660 0.07800
C 	C 	0.50560 0.41710 0.40694 -0.05900
C 	C 	0.55000 0.49250 0.42527 0.01500
H 	H 	0.54980 0.54770 0.40080 0.06000
C 	C 	0.45510 0.42770 0.35110 0.32700
C 	C 	0.56110 0.09080 0.53740 0.08400
C 	C 	0.51750 0.08360 0.58630 -0.05200
H 	H 	0.48970 0.13600 0.59770 0.07800
C 	C 	0.51470 0.00020 0.61830 -0.06400
C 	C 	0.55750 0.92510 0.60350 0.02200
H 	H 	0.55710 0.86890 0.62680 0.04700
C 	C 	0.60110 0.93170 0.55450 -0.09700
C 	C 	0.60200 0.01460 0.52060 -0.04200
H 	H 	0.63040 0.01890 0.48620 0.06800
C 	C 	0.64380 0.84900 0.53740 0.40000
C 	C 	0.46030 0.98880 0.66810 0.37700
C 	C 	0.73510 0.46730 0.68920 0.36600
C 	C 	0.78090 0.38840 0.66790 -0.06600
C 	C 	0.77950 0.30000 0.69660 0.00400
H 	H 	0.75000 0.28950 0.72970 0.06600
C 	C 	0.82240 0.22820 0.67560 -0.05800
C 	C 	0.86610 0.24320 0.62880 -0.05800
H 	H 	0.89440 0.19300 0.61450 0.07100
C 	C 	0.86950 0.32990 0.60240 0.07200
C 	C 	0.82580 0.40300 0.62100 -0.05000
H 	H 	0.82700 0.46250 0.60150 0.07100
C 	C 	0.82290 0.13300 0.70520 0.33600
C 	C 	0.97150 0.38880 0.47860 0.07500
C 	C 	0.94940 0.42450 0.42220 -0.04600
H 	H 	0.90190 0.44880 0.41490 0.06800
C 	C 	0.99610 0.42480 0.37660 -0.07800
C 	C 	0.06630 0.39090 0.38710 0.02400
H 	H 	0.09830 0.39070 0.35500 0.04400
C 	C 	0.08930 0.35800 0.44400 -0.10300
C 	C 	0.04180 0.35620 0.49040 -0.03800
H 	H 	0.05720 0.33300 0.52980 0.06400
C 	C 	0.16620 0.32580 0.45590 0.41300
C 	C 	0.97250 0.46010 0.31420 0.35900
N 	N 	0.69050 0.67570 0.78120 -0.26500
C 	C 	0.69770 0.68790 0.84190 -0.07800
H 	H 	0.67410 0.64350 0.86600 -0.03300
N 	N 	0.73460 0.75590 0.87190 -0.40800
C 	C 	0.77320 0.82050 0.84090 0.00300
C 	C 	0.76790 0.81450 0.77740 -0.13800
C 	C 	0.72520 0.74210 0.74920 0.09900
N 	N 	0.72680 0.75160 0.68840 0.18600
C 	C 	0.76740 0.82670 0.68030 0.11500
H 	H 	0.77750 0.84890 0.64090 0.14300
N 	N 	0.79360 0.86920 0.73260 0.05800
N 	N 	0.81880 0.88170 0.87080 -0.22600
H 	H 	0.82420 0.88060 0.91100 0.08100
H 	H 	0.84310 0.92260 0.85010 0.15200
N 	N 	0.55770 0.24810 0.53082 -0.08300
N 	N 	0.56330 0.17430 0.50044 -0.08100
N 	N 	0.93030 0.33250 0.55460 -0.07900
N 	N 	0.91560 0.39250 0.52310 -0.07800
O 	O 	0.66554 0.57038 0.55314 -0.46600
O 	O 	0.64750 0.63480 0.46024 -0.47400
O 	O 	0.45860 0.49860 0.31869 -0.37300
O 	O 	0.40793 0.36440 0.33814 -0.50000
O 	O 	0.67260 0.85180 0.48708 -0.49700
O 	O 	0.64900 0.78130 0.57355 -0.49200
O 	O 	0.44470 0.91040 0.68390 -0.29500
O 	O 	0.43550 0.06130 0.68670 -0.46200
O 	O 	0.69090 0.44670 0.72990 -0.43700
O 	O 	0.74250 0.54620 0.66787 -0.45800
O 	O 	0.78970 0.12060 0.75110 -0.30400
O 	O 	0.85620 0.06860 0.67880 -0.48500
O 	O 	0.18810 0.31600 0.51103 -0.50800
O 	O 	0.20172 0.30960 0.41187 -0.48800
O 	O 	0.00700 0.44200 0.27190 -0.33600
O 	O 	0.91480 0.51030 0.31060 -0.48200
Zn	Zn	0.69562 0.66488 0.61958 1.22400
Zn	Zn	0.71910 0.73759 0.46288 1.22000
Zn	Zn	0.62712 0.55412 0.74549 1.22700
Zn	Zn	0.87591 0.96038 0.72870 1.18900
N 	N 	0.72710 0.73920 0.70830 -0.49700
C 	C 	0.76980 0.81560 0.70390 0.07400
H 	H 	0.78040 0.83490 0.66400 -0.27500
N 	N 	0.79920 0.86750 0.75190 -0.32900
C 	C 	0.78150 0.84880 0.80850 0.21700
C 	C 	0.73900 0.76970 0.81760 0.02400
C 	C 	0.71210 0.71840 0.76780 0.29200
N 	N 	0.67480 0.64250 0.78650 -0.11400
C 	C 	0.67920 0.65450 0.84880 0.05300
H 	H 	0.65710 0.61180 0.87520 0.03200
N 	N 	0.71660 0.73030 0.87060 0.19100
N 	N 	0.79910 0.90640 0.86010 -0.11400
H 	H 	0.82350 0.95890 0.85590 0.01000
H 	H 	0.78570 0.88980 0.89630 0.11300
C 	C 	0.36020 0.07130 0.00039 0.39700
C 	C 	0.40550 0.98840 0.02148 -0.07300
C 	C 	0.40510 0.90750 0.98576 -0.05700
H 	H 	0.37770 0.90480 0.94750 0.07700
C 	C 	0.44560 0.83040 0.00733 0.09700
C 	C 	0.49030 0.83570 0.06001 -0.06500
H 	H 	0.51830 0.78270 0.07340 0.07900
C 	C 	0.49440 0.91710 0.09306 -0.05800
C 	C 	0.45000 0.99250 0.07473 0.01400
H 	H 	0.45020 0.04770 0.09920 0.06000
C 	C 	0.54490 0.92770 0.14890 0.32700
C 	C 	0.43890 0.59080 0.96260 0.08400
C 	C 	0.48250 0.58360 0.91370 -0.05100
H 	H 	0.51030 0.63600 0.90230 0.07700
C 	C 	0.48530 0.50020 0.88170 -0.06500
C 	C 	0.44250 0.42510 0.89650 0.02400
H 	H 	0.44290 0.36890 0.87320 0.04600
C 	C 	0.39890 0.43170 0.94550 -0.09700
C 	C 	0.39800 0.51460 0.97940 -0.04200
H 	H 	0.36960 0.51890 0.01380 0.06800
C 	C 	0.35620 0.34900 0.96260 0.40100
C 	C 	0.53970 0.48880 0.83190 0.37900
C 	C 	0.26490 0.96730 0.81080 0.36500
C 	C 	0.21910 0.88840 0.83210 -0.06600
C 	C 	0.22050 0.80000 0.80340 0.00400
H 	H 	0.25000 0.78950 0.77030 0.06500
C 	C 	0.17760 0.72820 0.82440 -0.05800
C 	C 	0.13390 0.74320 0.87120 -0.05800
H 	H 	0.10560 0.69300 0.88550 0.07000
C 	C 	0.13050 0.82990 0.89760 0.07200
C 	C 	0.17420 0.90300 0.87900 -0.05000
H 	H 	0.17300 0.96250 0.89850 0.07000
C 	C 	0.17710 0.63300 0.79480 0.33600
C 	C 	0.02850 0.88880 0.02140 0.07400
C 	C 	0.05060 0.92450 0.07780 -0.04500
H 	H 	0.09810 0.94880 0.08510 0.06800
C 	C 	0.00390 0.92480 0.12340 -0.07900
C 	C 	0.93370 0.89090 0.11290 0.02600
H 	H 	0.90170 0.89070 0.14500 0.04400
C 	C 	0.91070 0.85800 0.05600 -0.10400
C 	C 	0.95820 0.85620 0.00960 -0.03500
H 	H 	0.94280 0.83300 0.97020 0.06200
C 	C 	0.83380 0.82580 0.04410 0.41500
C 	C 	0.02750 0.96010 0.18580 0.36000
N 	N 	0.30950 0.17570 0.71880 -0.26500
C 	C 	0.30230 0.18790 0.65810 -0.07800
H 	H 	0.32590 0.14350 0.63400 -0.03300
N 	N 	0.26540 0.25590 0.62810 -0.40800
C 	C 	0.22680 0.32050 0.65910 0.00300
C 	C 	0.23210 0.31450 0.72260 -0.13800
C 	C 	0.27480 0.24210 0.75080 0.09900
N 	N 	0.27320 0.25160 0.81160 0.18600
C 	C 	0.23260 0.32670 0.81970 0.11500
H 	H 	0.22250 0.34890 0.85910 0.14400
N 	N 	0.20640 0.36920 0.76740 0.05900
N 	N 	0.18120 0.38170 0.62920 -0.22600
H 	H 	0.17580 0.38060 0.58900 0.08100
H 	H 	0.15690 0.42260 0.64990 0.15200
N 	N 	0.44230 0.74810 0.96918 -0.08400
N 	N 	0.43670 0.67430 0.99956 -0.08100
N 	N 	0.06970 0.83250 0.94540 -0.07900
N 	N 	0.08440 0.89250 0.97690 -0.07800
O 	O 	0.33446 0.07038 0.94686 -0.46400
O 	O 	0.35250 0.13480 0.03976 -0.47400
O 	O 	0.54140 0.99860 0.18131 -0.37300
O 	O 	0.59207 0.86440 0.16186 -0.50000
O 	O 	0.32740 0.35180 0.01292 -0.49700
O 	O 	0.35100 0.28130 0.92645 -0.49200
O 	O 	0.55530 0.41040 0.81610 -0.29600
O 	O 	0.56450 0.56130 0.81330 -0.46300
O 	O 	0.30910 0.94670 0.77010 -0.43800
O 	O 	0.25750 0.04620 0.83213 -0.45700
O 	O 	0.21030 0.62060 0.74890 -0.30500
O 	O 	0.14380 0.56860 0.82120 -0.48500
O 	O 	0.81190 0.81600 0.98897 -0.51000
O 	O 	0.79828 0.80960 0.08813 -0.48800
O 	O 	0.99300 0.94200 0.22810 -0.33700
O 	O 	0.08520 0.01030 0.18940 -0.48300
Zn	Zn	0.30438 0.16488 0.88042 1.22400
Zn	Zn	0.28090 0.23759 0.03712 1.21900
Zn	Zn	0.37288 0.05412 0.75451 1.22700
Zn	Zn	0.12409 0.46038 0.77130 1.18900
N 	N 	0.27290 0.23920 0.79170 -0.49700
C 	C 	0.23020 0.31560 0.79610 0.07400
H 	H 	0.21960 0.33490 0.83600 -0.27500
N 	N 	0.20080 0.36750 0.74810 -0.32900
C 	C 	0.21850 0.34880 0.69150 0.21700
C 	C 	0.26100 0.26970 0.68240 0.02400
C 	C 	0.28790 0.21840 0.73220 0.29200
N 	N 	0.32520 0.14250 0.71350 -0.11400
C 	C 	0.32080 0.15450 0.65120 0.05300
H 	H 	0.34290 0.11180 0.62480 0.03200
N 	N 	0.28340 0.23030 0.62940 0.19200
N 	N 	0.20090 0.40640 0.63990 -0.11400
H 	H 	0.17650 0.45890 0.64410 0.01100
H 	H 	0.21430 0.38980 0.60370 0.11300
