data_crystal

_cell_length_a 20.67120
_cell_length_b 21.03860
_cell_length_c 21.62810
_cell_angle_alpha 62.47700
_cell_angle_beta  79.55800
_cell_angle_gamma 67.08600

_symmetry_space_group_name_	'P 1'
_symmetry_space_group_name_H-M	'P 1'

loop_
_symmetry_equiv_pos_as_xyz
  x,y,z

loop_
_atom_site_label
_atom_site_type_symbol
_atom_site_fract_x
_atom_site_fract_y
_atom_site_fract_z
_atom_site_charge
O 	O 	0.66217 0.46465 0.76776 -0.42300
O 	O 	0.74807 0.40560 0.84336 -0.46200
N 	N 	0.89820 0.48820 0.47950 -0.18700
H 	H 	0.89790 0.50970 0.50610 0.11000
N 	N 	0.02700 0.38430 0.59920 -0.18700
H 	H 	0.00080 0.43090 0.59410 0.11100
C 	C 	0.88660 0.52630 0.40900 0.00300
C 	C 	0.89310 0.47240 0.38700 -0.04000
H 	H 	0.88900 0.48170 0.34030 0.02400
C 	C 	0.90670 0.40090 0.44580 -0.09000
H 	H 	0.91220 0.35390 0.44590 0.04500
C 	C 	0.91070 0.41140 0.50280 0.07000
C 	C 	0.92790 0.35390 0.57810 0.00200
C 	C 	0.00300 0.33450 0.59430 0.07100
C 	C 	0.05980 0.26920 0.60480 -0.09200
H 	H 	0.05930 0.22440 0.60440 0.04800
C 	C 	0.12000 0.27960 0.61640 -0.04000
H 	H 	0.16650 0.24360 0.62480 0.02300
C 	C 	0.09790 0.35140 0.61310 0.00100
C 	C 	0.13850 0.38730 0.62920 0.18100
C 	C 	0.91860 0.27970 0.58890 -0.36900
H 	H 	0.86880 0.28970 0.58460 0.12700
H 	H 	0.93540 0.23940 0.63540 0.12600
H 	H 	0.94580 0.26320 0.55350 0.12300
C 	C 	0.21700 0.35570 0.60870 -0.50000
H 	H 	0.23740 0.30100 0.63940 0.15500
H 	H 	0.24330 0.38310 0.61360 0.15900
H 	H 	0.21970 0.36310 0.56020 0.16300
C 	C 	0.13370 0.36310 0.70860 -0.50200
H 	H 	0.08650 0.39050 0.72050 0.16000
H 	H 	0.16840 0.37550 0.72220 0.15500
H 	H 	0.14330 0.30780 0.73350 0.15500
C 	C 	0.87620 0.38010 0.63020 0.04800
C 	C 	0.80510 0.42080 0.61330 -0.11200
H 	H 	0.78960 0.43820 0.56760 0.06400
C 	C 	0.75710 0.43590 0.66300 0.02600
H 	H 	0.70880 0.46330 0.65100 0.03100
C 	C 	0.77840 0.41170 0.72930 -0.10100
C 	C 	0.84850 0.37240 0.74640 0.02400
H 	H 	0.86360 0.35590 0.79200 0.02500
C 	C 	0.89750 0.35680 0.69690 -0.10900
H 	H 	0.94580 0.32990 0.70900 0.05500
C 	C 	0.72570 0.42810 0.78330 0.31400
O 	O 	0.33099 0.64613 0.99643 -0.58700
O 	O 	0.36090 0.73160 0.89899 -0.45800
C 	C 	0.90770 0.90050 0.94370 -0.09200
H 	H 	0.88480 0.90760 0.90550 0.04500
N 	N 	0.04780 0.02300 0.89110 -0.19100
H 	H 	0.06840 0.99340 0.93210 0.11400
C 	C 	0.88040 0.88760 0.01070 -0.03200
H 	H 	0.83580 0.88280 0.02610 0.02900
C 	C 	0.92810 0.88300 0.05120 0.00200
N 	N 	0.98500 0.89120 0.01020 -0.18300
H 	H 	0.02320 0.89050 0.02340 0.10900
C 	C 	0.97420 0.90090 0.94370 0.06600
C 	C 	0.02560 0.91780 0.88530 -0.00800
C 	C 	0.02210 0.00010 0.85740 0.08600
C 	C 	0.99190 0.06470 0.79500 -0.09900
H 	H 	0.96840 0.06580 0.76050 0.04700
C 	C 	0.00330 0.12580 0.79410 -0.02700
H 	H 	0.98920 0.17650 0.75800 0.02400
C 	C 	0.03810 0.10140 0.85310 -0.00000
C 	C 	0.07140 0.14050 0.87330 0.18000
C 	C 	0.10180 0.86310 0.90330 0.06300
C 	C 	0.15680 0.88590 0.86300 -0.13600
H 	H 	0.14670 0.93600 0.82610 0.07000
C 	C 	0.22500 0.83670 0.87650 0.06000
H 	H 	0.26160 0.85240 0.84770 0.01800
C 	C 	0.24120 0.76440 0.93140 -0.15400
C 	C 	0.18700 0.74120 0.97440 0.05900
H 	H 	0.19800 0.69200 0.01260 0.00100
C 	C 	0.11790 0.79000 0.96100 -0.13300
H 	H 	0.08130 0.77450 0.99020 0.06900
C 	C 	0.31510 0.71240 0.94340 0.37400
C 	C 	0.00470 0.90690 0.82660 -0.34500
H 	H 	0.99250 0.86050 0.84710 0.11400
H 	H 	0.04410 0.90190 0.79430 0.11700
H 	H 	0.96400 0.95130 0.80140 0.11300
C 	C 	0.14900 0.12300 0.84180 -0.49300
H 	H 	0.17220 0.15190 0.84870 0.15400
H 	H 	0.14660 0.13820 0.79180 0.15900
H 	H 	0.17580 0.06810 0.86550 0.16500
C 	C 	0.03260 0.22790 0.83550 -0.51100
H 	H 	0.98670 0.24180 0.85750 0.17000
H 	H 	0.02600 0.24250 0.78640 0.16800
H 	H 	0.06050 0.25470 0.83870 0.16100
O 	O 	0.50569 0.52833 0.85161 -0.59200
O 	O 	0.43740 0.64826 0.79554 -0.42700
N 	N 	0.48790 0.40920 0.60699 -0.18600
H 	H 	0.50650 0.44510 0.59100 0.11300
N 	N 	0.39410 0.59310 0.50763 -0.18600
H 	H 	0.43530 0.58640 0.52020 0.11100
C 	C 	0.52420 0.33480 0.61730 -0.00600
C 	C 	0.47670 0.29750 0.64160 -0.03500
H 	H 	0.48670 0.24520 0.65310 0.02600
C 	C 	0.40970 0.35110 0.64640 -0.09200
H 	H 	0.36720 0.34110 0.66160 0.04000
C 	C 	0.41820 0.41990 0.62520 0.07200
C 	C 	0.36710 0.49450 0.62450 -0.00700
C 	C 	0.34930 0.55590 0.55060 0.07400
C 	C 	0.29050 0.58230 0.51200 -0.09600
H 	H 	0.25050 0.56720 0.52780 0.05300
C 	C 	0.30080 0.63590 0.44430 -0.03100
H 	H 	0.26860 0.66310 0.40660 0.02700
C 	C 	0.36500 0.64200 0.44240 -0.00600
C 	C 	0.39710 0.69730 0.38490 0.21200
C 	C 	0.29830 0.48190 0.66120 -0.35200
H 	H 	0.27830 0.46510 0.63610 0.11400
H 	H 	0.26450 0.52990 0.66130 0.11800
H 	H 	0.30870 0.44260 0.70930 0.11300
C 	C 	0.36980 0.71590 0.31370 -0.54100
H 	H 	0.39240 0.74880 0.27560 0.17500
H 	H 	0.31880 0.74250 0.31120 0.17300
H 	H 	0.38100 0.66820 0.30970 0.18500
C 	C 	0.37280 0.77120 0.39300 -0.54300
H 	H 	0.38660 0.75990 0.43910 0.17800
H 	H 	0.32160 0.79490 0.38840 0.17000
H 	H 	0.39470 0.80630 0.35680 0.17100
C 	C 	0.39580 0.51860 0.66770 0.06200
C 	C 	0.37010 0.59390 0.65890 -0.13200
H 	H 	0.33670 0.63200 0.62340 0.06700
C 	C 	0.39280 0.61410 0.70150 0.05500
H 	H 	0.37410 0.66580 0.69510 0.01800
C 	C 	0.44280 0.55990 0.75380 -0.14400
C 	C 	0.46780 0.48480 0.76280 0.05600
H 	H 	0.50160 0.44690 0.79800 0.01800
C 	C 	0.44450 0.46390 0.72150 -0.13100
H 	H 	0.46160 0.41170 0.72960 0.07400
C 	C 	0.46320 0.58130 0.80110 0.36300
O 	O 	0.53850 0.66454 0.86750 -0.49900
O 	O 	0.61710 0.59341 0.81700 -0.51900
N 	N 	0.61120 0.91150 0.51180 -0.18800
H 	H 	0.57300 0.90150 0.53160 0.11300
N 	N 	0.51410 0.01330 0.59810 -0.18700
H 	H 	0.49870 0.98090 0.59590 0.11300
C 	C 	0.63670 0.91440 0.44690 0.00400
C 	C 	0.69490 0.93330 0.43540 -0.03600
H 	H 	0.72340 0.94010 0.39480 0.02800
C 	C 	0.70670 0.94150 0.49450 -0.09400
H 	H 	0.74370 0.95460 0.50000 0.04900
C 	C 	0.65440 0.92670 0.54070 0.07700
C 	C 	0.64020 0.92810 0.61170 -0.01100
C 	C 	0.58260 0.99920 0.60750 0.07400
C 	C 	0.58400 0.06500 0.60810 -0.09600
H 	H 	0.62430 0.07270 0.61380 0.04300
C 	C 	0.51640 0.11610 0.59880 -0.03100
H 	H 	0.50220 0.16570 0.59690 0.02500
C 	C 	0.47230 0.08450 0.59250 -0.00300
C 	C 	0.39580 0.11070 0.59190 0.18800
C 	C 	0.70850 0.92380 0.63630 -0.35200
H 	H 	0.72220 0.96710 0.60200 0.11600
H 	H 	0.74610 0.87580 0.64080 0.12000
H 	H 	0.70020 0.92590 0.68150 0.11400
C 	C 	0.36460 0.19960 0.55810 -0.52000
H 	H 	0.37480 0.21840 0.58780 0.16600
H 	H 	0.31370 0.21660 0.55320 0.16800
H 	H 	0.38570 0.21980 0.51200 0.17400
C 	C 	0.36790 0.08100 0.66910 -0.51200
H 	H 	0.38810 0.02500 0.69220 0.17200
H 	H 	0.31660 0.09720 0.66880 0.16300
H 	H 	0.38170 0.10230 0.69430 0.16600
C 	C 	0.62420 0.85670 0.66700 0.06900
C 	C 	0.58140 0.85900 0.72380 -0.13700
H 	H 	0.56000 0.90580 0.72790 0.06800
C 	C 	0.56950 0.79370 0.77480 0.06000
H 	H 	0.54060 0.79600 0.81380 0.01600
C 	C 	0.60010 0.72480 0.76900 -0.15300
C 	C 	0.64400 0.72170 0.71340 0.06200
H 	H 	0.66670 0.67450 0.71010 0.01500
C 	C 	0.65530 0.78750 0.66240 -0.13700
H 	H 	0.68470 0.78500 0.62370 0.07100
C 	C 	0.58390 0.65560 0.82180 0.41600
O 	O 	0.59530 0.36004 0.89434 -0.47900
O 	O 	0.52350 0.37416 0.98122 -0.53500
N 	N 	0.40010 0.09040 0.02068 -0.18600
H 	H 	0.44420 0.08250 0.02620 0.11100
N 	N 	0.50760 0.08490 0.88620 -0.18700
H 	H 	0.52640 0.07880 0.92280 0.11200
C 	C 	0.35900 0.05400 0.07110 -0.00000
C 	C 	0.29450 0.08100 0.04320 -0.04200
H 	H 	0.25570 0.06570 0.06610 0.02900
C 	C 	0.29600 0.13670 0.97280 -0.08500
H 	H 	0.25810 0.16540 0.94070 0.04200
C 	C 	0.36170 0.14160 0.95990 0.06900
C 	C 	0.39400 0.18760 0.89370 -0.00300
C 	C 	0.44190 0.13470 0.86090 0.07300
C 	C 	0.43220 0.12710 0.80400 -0.08900
H 	H 	0.39150 0.15460 0.77550 0.04000
C 	C 	0.49410 0.07050 0.79540 -0.04100
H 	H 	0.50190 0.05320 0.76020 0.03000
C 	C 	0.54020 0.04550 0.84630 0.00000
C 	C 	0.61700 0.99670 0.85430 0.19900
C 	C 	0.33370 0.25010 0.84250 -0.35400
H 	H 	0.30910 0.22580 0.83030 0.11200
H 	H 	0.35300 0.28210 0.80010 0.11900
H 	H 	0.30070 0.28180 0.86450 0.11500
C 	C 	0.63180 0.94540 0.81670 -0.53900
H 	H 	0.68170 0.91350 0.82130 0.17100
H 	H 	0.61990 0.97760 0.76730 0.17300
H 	H 	0.60340 0.91260 0.83780 0.17900
C 	C 	0.65990 0.05040 0.81880 -0.52000
H 	H 	0.65150 0.08240 0.84310 0.17000
H 	H 	0.64530 0.08320 0.77000 0.16200
H 	H 	0.71000 0.01980 0.82080 0.16400
C 	C 	0.43370 0.22840 0.90670 0.06100
C 	C 	0.48770 0.24720 0.86170 -0.12800
H 	H 	0.50000 0.23350 0.82380 0.06600
C 	C 	0.52380 0.28590 0.87110 0.05000
H 	H 	0.56090 0.29750 0.84040 0.01800
C 	C 	0.50540 0.30760 0.92590 -0.14300
C 	C 	0.45080 0.29020 0.97000 0.05100
H 	H 	0.43740 0.30540 0.00690 0.01600
C 	C 	0.41510 0.25060 0.96060 -0.13000
H 	H 	0.37800 0.23890 0.99140 0.06700
C 	C 	0.54400 0.34970 0.93470 0.40100
O 	O 	0.56503 0.50504 0.97291 -0.73500
Pr	Pr	0.63163 0.45980 0.88764 2.05600
Pr	Pr	0.45233 0.60465 0.92593 2.07100
O 	O 	0.35390 0.56590 0.90890 -0.23800
N 	N 	0.27140 0.55030 0.86810 -0.00300
C 	C 	0.33700 0.53080 0.88850 0.10500
C 	C 	0.21640 0.62050 0.87160 0.27300
H 	H 	0.17150 0.62820 0.85550 -0.06200
H 	H 	0.21160 0.61430 0.91980 -0.08200
H 	H 	0.23030 0.66510 0.84180 0.06000
C 	C 	0.26070 0.49850 0.84410 -0.53900
H 	H 	0.21160 0.51770 0.83060 0.13100
H 	H 	0.29120 0.49740 0.80400 0.18200
H 	H 	0.27250 0.44670 0.88210 0.14100
O 	O 	0.35600 0.57940 0.89880 -0.13800
N 	N 	0.25780 0.60460 0.84770 -0.19900
C 	C 	0.30890 0.62250 0.85850 0.11000
C 	C 	0.26030 0.52460 0.88950 -0.12100
H 	H 	0.22130 0.51680 0.87750 0.14300
H 	H 	0.30490 0.48710 0.88440 0.11200
H 	H 	0.25510 0.51810 0.93780 0.03100
C 	C 	0.20740 0.67160 0.79430 -0.49000
H 	H 	0.17180 0.65420 0.78950 0.16300
H 	H 	0.18450 0.71620 0.80440 0.13900
H 	H 	0.23410 0.68560 0.75070 0.17100
O 	O 	0.33783 0.53535 0.23224 -0.42200
O 	O 	0.25193 0.59440 0.15664 -0.46100
N 	N 	0.10180 0.51180 0.52050 -0.18700
H 	H 	0.10210 0.49030 0.49390 0.11000
N 	N 	0.97300 0.61570 0.40080 -0.18700
H 	H 	0.99920 0.56910 0.40590 0.11100
C 	C 	0.11340 0.47370 0.59100 0.00300
C 	C 	0.10690 0.52760 0.61300 -0.04000
H 	H 	0.11100 0.51830 0.65970 0.02400
C 	C 	0.09330 0.59910 0.55420 -0.09000
H 	H 	0.08780 0.64610 0.55410 0.04500
C 	C 	0.08930 0.58860 0.49720 0.07000
C 	C 	0.07210 0.64610 0.42190 0.00200
C 	C 	0.99700 0.66550 0.40570 0.07100
C 	C 	0.94020 0.73080 0.39520 -0.09200
H 	H 	0.94070 0.77560 0.39560 0.04800
C 	C 	0.88000 0.72040 0.38360 -0.04000
H 	H 	0.83350 0.75640 0.37520 0.02300
C 	C 	0.90210 0.64860 0.38690 0.00100
C 	C 	0.86150 0.61270 0.37080 0.18100
C 	C 	0.08140 0.72030 0.41110 -0.36900
H 	H 	0.13120 0.71030 0.41540 0.12700
H 	H 	0.06460 0.76060 0.36460 0.12600
H 	H 	0.05420 0.73680 0.44650 0.12300
C 	C 	0.78300 0.64430 0.39130 -0.50000
H 	H 	0.76260 0.69900 0.36060 0.15500
H 	H 	0.75670 0.61690 0.38640 0.15900
H 	H 	0.78030 0.63690 0.43980 0.16300
C 	C 	0.86630 0.63690 0.29140 -0.50200
H 	H 	0.91350 0.60950 0.27950 0.16000
H 	H 	0.83160 0.62450 0.27780 0.15500
H 	H 	0.85670 0.69220 0.26650 0.15500
C 	C 	0.12380 0.61990 0.36980 0.04800
C 	C 	0.19490 0.57920 0.38670 -0.11200
H 	H 	0.21040 0.56180 0.43240 0.06400
C 	C 	0.24290 0.56410 0.33700 0.02600
H 	H 	0.29120 0.53670 0.34900 0.03100
C 	C 	0.22160 0.58830 0.27070 -0.10100
C 	C 	0.15150 0.62760 0.25360 0.02400
H 	H 	0.13640 0.64410 0.20800 0.02500
C 	C 	0.10250 0.64320 0.30310 -0.10900
H 	H 	0.05420 0.67010 0.29100 0.05500
C 	C 	0.27430 0.57190 0.21670 0.31400
O 	O 	0.66901 0.35387 0.00357 -0.58700
O 	O 	0.63910 0.26840 0.10101 -0.45800
C 	C 	0.09230 0.09950 0.05630 -0.09200
H 	H 	0.11520 0.09240 0.09450 0.04500
N 	N 	0.95220 0.97700 0.10890 -0.19100
H 	H 	0.93160 0.00660 0.06790 0.11400
C 	C 	0.11960 0.11240 0.98930 -0.03200
H 	H 	0.16420 0.11720 0.97390 0.02900
C 	C 	0.07190 0.11700 0.94880 0.00200
N 	N 	0.01500 0.10880 0.98980 -0.18300
H 	H 	0.97680 0.10950 0.97660 0.10900
C 	C 	0.02580 0.09910 0.05630 0.06600
C 	C 	0.97440 0.08220 0.11470 -0.00800
C 	C 	0.97790 0.99990 0.14260 0.08600
C 	C 	0.00810 0.93530 0.20500 -0.09900
H 	H 	0.03160 0.93420 0.23950 0.04700
C 	C 	0.99670 0.87420 0.20590 -0.02700
H 	H 	0.01080 0.82350 0.24200 0.02400
C 	C 	0.96190 0.89860 0.14690 -0.00000
C 	C 	0.92860 0.85950 0.12670 0.18000
C 	C 	0.89820 0.13690 0.09670 0.06300
C 	C 	0.84320 0.11410 0.13700 -0.13600
H 	H 	0.85330 0.06400 0.17390 0.07000
C 	C 	0.77500 0.16330 0.12350 0.06000
H 	H 	0.73840 0.14760 0.15230 0.01800
C 	C 	0.75880 0.23560 0.06860 -0.15400
C 	C 	0.81300 0.25880 0.02560 0.05900
H 	H 	0.80200 0.30800 0.98740 0.00100
C 	C 	0.88210 0.21000 0.03900 -0.13300
H 	H 	0.91870 0.22550 0.00980 0.06900
C 	C 	0.68490 0.28760 0.05660 0.37400
C 	C 	0.99530 0.09310 0.17340 -0.34500
H 	H 	0.00750 0.13950 0.15290 0.11400
H 	H 	0.95590 0.09810 0.20570 0.11700
H 	H 	0.03600 0.04870 0.19860 0.11300
C 	C 	0.85100 0.87700 0.15820 -0.49300
H 	H 	0.82780 0.84810 0.15130 0.15400
H 	H 	0.85340 0.86180 0.20820 0.15900
H 	H 	0.82420 0.93190 0.13450 0.16500
C 	C 	0.96740 0.77210 0.16450 -0.51100
H 	H 	0.01330 0.75820 0.14250 0.17000
H 	H 	0.97400 0.75750 0.21360 0.16800
H 	H 	0.93950 0.74530 0.16130 0.16100
O 	O 	0.49431 0.47167 0.14839 -0.59200
O 	O 	0.56260 0.35174 0.20446 -0.42700
N 	N 	0.51210 0.59080 0.39301 -0.18600
H 	H 	0.49350 0.55490 0.40900 0.11300
N 	N 	0.60590 0.40690 0.49237 -0.18600
H 	H 	0.56470 0.41360 0.47980 0.11100
C 	C 	0.47580 0.66520 0.38270 -0.00600
C 	C 	0.52330 0.70250 0.35840 -0.03500
H 	H 	0.51330 0.75480 0.34690 0.02600
C 	C 	0.59030 0.64890 0.35360 -0.09200
H 	H 	0.63280 0.65890 0.33840 0.04000
C 	C 	0.58180 0.58010 0.37480 0.07200
C 	C 	0.63290 0.50550 0.37550 -0.00700
C 	C 	0.65070 0.44410 0.44940 0.07400
C 	C 	0.70950 0.41770 0.48800 -0.09600
H 	H 	0.74950 0.43280 0.47220 0.05300
C 	C 	0.69920 0.36410 0.55570 -0.03100
H 	H 	0.73140 0.33690 0.59340 0.02700
C 	C 	0.63500 0.35800 0.55760 -0.00600
C 	C 	0.60290 0.30270 0.61510 0.21200
C 	C 	0.70170 0.51810 0.33880 -0.35200
H 	H 	0.72170 0.53490 0.36390 0.11400
H 	H 	0.73550 0.47010 0.33870 0.11800
H 	H 	0.69130 0.55740 0.29070 0.11300
C 	C 	0.63020 0.28410 0.68630 -0.54100
H 	H 	0.60760 0.25120 0.72440 0.17500
H 	H 	0.68120 0.25750 0.68880 0.17300
H 	H 	0.61900 0.33180 0.69030 0.18500
C 	C 	0.62720 0.22880 0.60700 -0.54300
H 	H 	0.61340 0.24010 0.56090 0.17800
H 	H 	0.67840 0.20510 0.61160 0.17000
H 	H 	0.60530 0.19370 0.64320 0.17100
C 	C 	0.60420 0.48140 0.33230 0.06200
C 	C 	0.62990 0.40610 0.34110 -0.13200
H 	H 	0.66330 0.36800 0.37660 0.06700
C 	C 	0.60720 0.38590 0.29850 0.05500
H 	H 	0.62590 0.33420 0.30490 0.01800
C 	C 	0.55720 0.44010 0.24620 -0.14400
C 	C 	0.53220 0.51520 0.23720 0.05600
H 	H 	0.49840 0.55310 0.20200 0.01800
C 	C 	0.55550 0.53610 0.27850 -0.13100
H 	H 	0.53840 0.58830 0.27040 0.07400
C 	C 	0.53680 0.41870 0.19890 0.36300
O 	O 	0.46150 0.33546 0.13250 -0.49900
O 	O 	0.38290 0.40659 0.18300 -0.51900
N 	N 	0.38880 0.08850 0.48820 -0.18800
H 	H 	0.42700 0.09850 0.46840 0.11300
N 	N 	0.48590 0.98670 0.40190 -0.18700
H 	H 	0.50130 0.01910 0.40410 0.11300
C 	C 	0.36330 0.08560 0.55310 0.00400
C 	C 	0.30510 0.06670 0.56460 -0.03600
H 	H 	0.27660 0.05990 0.60520 0.02800
C 	C 	0.29330 0.05850 0.50550 -0.09400
H 	H 	0.25630 0.04540 0.50000 0.04900
C 	C 	0.34560 0.07330 0.45930 0.07700
C 	C 	0.35980 0.07190 0.38830 -0.01100
C 	C 	0.41740 0.00080 0.39250 0.07400
C 	C 	0.41600 0.93500 0.39190 -0.09600
H 	H 	0.37570 0.92730 0.38620 0.04300
C 	C 	0.48360 0.88390 0.40120 -0.03100
H 	H 	0.49780 0.83430 0.40310 0.02500
C 	C 	0.52770 0.91550 0.40750 -0.00300
C 	C 	0.60420 0.88930 0.40810 0.18800
C 	C 	0.29150 0.07620 0.36370 -0.35200
H 	H 	0.27780 0.03290 0.39800 0.11600
H 	H 	0.25390 0.12420 0.35920 0.12000
H 	H 	0.29980 0.07410 0.31850 0.11400
C 	C 	0.63540 0.80040 0.44190 -0.52000
H 	H 	0.62520 0.78160 0.41220 0.16600
H 	H 	0.68630 0.78340 0.44680 0.16800
H 	H 	0.61430 0.78020 0.48800 0.17400
C 	C 	0.63210 0.91900 0.33090 -0.51200
H 	H 	0.61190 0.97500 0.30780 0.17200
H 	H 	0.68340 0.90280 0.33120 0.16300
H 	H 	0.61830 0.89770 0.30570 0.16600
C 	C 	0.37580 0.14330 0.33300 0.06900
C 	C 	0.41860 0.14100 0.27620 -0.13700
H 	H 	0.44000 0.09420 0.27210 0.06800
C 	C 	0.43050 0.20630 0.22520 0.06000
H 	H 	0.45940 0.20400 0.18620 0.01600
C 	C 	0.39990 0.27520 0.23100 -0.15300
C 	C 	0.35600 0.27830 0.28660 0.06200
H 	H 	0.33330 0.32550 0.28990 0.01500
C 	C 	0.34470 0.21250 0.33760 -0.13700
H 	H 	0.31530 0.21500 0.37630 0.07100
C 	C 	0.41610 0.34440 0.17820 0.41600
O 	O 	0.40470 0.63996 0.10566 -0.47900
O 	O 	0.47650 0.62584 0.01878 -0.53500
N 	N 	0.59990 0.90960 0.97932 -0.18600
H 	H 	0.55580 0.91750 0.97380 0.11100
N 	N 	0.49240 0.91510 0.11380 -0.18700
H 	H 	0.47360 0.92120 0.07720 0.11200
C 	C 	0.64100 0.94600 0.92890 -0.00000
C 	C 	0.70550 0.91900 0.95680 -0.04200
H 	H 	0.74430 0.93430 0.93390 0.02900
C 	C 	0.70400 0.86330 0.02720 -0.08500
H 	H 	0.74190 0.83460 0.05930 0.04200
C 	C 	0.63830 0.85840 0.04010 0.06900
C 	C 	0.60600 0.81240 0.10630 -0.00300
C 	C 	0.55810 0.86530 0.13910 0.07300
C 	C 	0.56780 0.87290 0.19600 -0.08900
H 	H 	0.60850 0.84540 0.22450 0.04000
C 	C 	0.50590 0.92950 0.20460 -0.04100
H 	H 	0.49810 0.94680 0.23980 0.03000
C 	C 	0.45980 0.95450 0.15370 0.00000
C 	C 	0.38300 0.00330 0.14570 0.19900
C 	C 	0.66630 0.74990 0.15750 -0.35400
H 	H 	0.69090 0.77420 0.16970 0.11200
H 	H 	0.64700 0.71790 0.19990 0.11900
H 	H 	0.69930 0.71820 0.13550 0.11500
C 	C 	0.36820 0.05460 0.18330 -0.53900
H 	H 	0.31830 0.08650 0.17870 0.17100
H 	H 	0.38010 0.02240 0.23270 0.17300
H 	H 	0.39660 0.08740 0.16220 0.17900
C 	C 	0.34010 0.94960 0.18120 -0.52000
H 	H 	0.34850 0.91760 0.15690 0.17000
H 	H 	0.35470 0.91680 0.23000 0.16200
H 	H 	0.29000 0.98020 0.17920 0.16400
C 	C 	0.56630 0.77160 0.09330 0.06100
C 	C 	0.51230 0.75280 0.13830 -0.12800
H 	H 	0.50000 0.76650 0.17620 0.06600
C 	C 	0.47620 0.71410 0.12890 0.05000
H 	H 	0.43910 0.70250 0.15960 0.01800
C 	C 	0.49460 0.69240 0.07410 -0.14300
C 	C 	0.54920 0.70980 0.03000 0.05100
H 	H 	0.56260 0.69460 0.99310 0.01600
C 	C 	0.58490 0.74940 0.03940 -0.13000
H 	H 	0.62200 0.76110 0.00860 0.06700
C 	C 	0.45600 0.65030 0.06530 0.40100
O 	O 	0.43497 0.49496 0.02709 -0.73500
Pr	Pr	0.36837 0.54020 0.11236 2.05600
Pr	Pr	0.54767 0.39535 0.07407 2.07100
O 	O 	0.64610 0.43410 0.09110 -0.23800
N 	N 	0.72860 0.44970 0.13190 -0.00300
C 	C 	0.66300 0.46920 0.11150 0.10500
C 	C 	0.78360 0.37950 0.12840 0.27300
H 	H 	0.82850 0.37180 0.14450 -0.06200
H 	H 	0.78840 0.38570 0.08020 -0.08200
H 	H 	0.76970 0.33490 0.15820 0.06000
C 	C 	0.73930 0.50150 0.15590 -0.53900
H 	H 	0.78840 0.48230 0.16940 0.13100
H 	H 	0.70880 0.50260 0.19600 0.18200
H 	H 	0.72750 0.55330 0.11790 0.14100
O 	O 	0.64400 0.42060 0.10120 -0.13800
N 	N 	0.74220 0.39540 0.15230 -0.19900
C 	C 	0.69110 0.37750 0.14150 0.11000
C 	C 	0.73970 0.47540 0.11050 -0.12100
H 	H 	0.77870 0.48320 0.12250 0.14300
H 	H 	0.69510 0.51290 0.11560 0.11200
H 	H 	0.74490 0.48190 0.06220 0.03100
C 	C 	0.79260 0.32840 0.20570 -0.49000
H 	H 	0.82820 0.34580 0.21050 0.16300
H 	H 	0.81550 0.28380 0.19560 0.13900
H 	H 	0.76590 0.31440 0.24930 0.17100
