data_crystal

_cell_length_a 10.22930
_cell_length_b 34.48030
_cell_length_c 10.73550
_cell_angle_alpha 90.00000
_cell_angle_beta  109.98500
_cell_angle_gamma 90.00000

_symmetry_space_group_name_	'P 1'
_symmetry_space_group_name_H-M	'P 1'

loop_
_symmetry_equiv_pos_as_xyz
  x,y,z

loop_
_atom_site_label
_atom_site_type_symbol
_atom_site_fract_x
_atom_site_fract_y
_atom_site_fract_z
_atom_site_charge
O 	O 	0.24710 0.04104 0.83690 -0.44500
C 	C 	0.35870 0.03120 0.81730 0.13000
H 	H 	0.41110 0.04890 0.78560 -0.03600
C 	C 	0.32770 0.96260 0.89980 1.33800
H 	H 	0.24670 0.97480 0.91270 -0.47500
H 	H 	0.39070 0.95290 0.98490 -0.24000
H 	H 	0.29680 0.94100 0.83740 -1.69900
C 	C 	0.52960 0.97840 0.82770 -0.49700
H 	H 	0.57230 0.00040 0.79840 0.17800
H 	H 	0.50830 0.95790 0.76040 0.12700
H 	H 	0.59420 0.96840 0.91160 0.20800
N 	N 	0.40040 0.99120 0.84660 0.32000
C 	C 	0.57050 0.11748 0.52460 0.19100
C 	C 	0.04460 0.13250 0.44720 0.18400
C 	C 	0.02150 0.17776 0.84530 0.37800
C 	C 	0.04210 0.21492 0.92220 -0.08200
C 	C 	0.10950 0.21496 0.06020 -0.01000
C 	C 	0.13250 0.17782 0.13830 0.29500
C 	C 	0.90330 0.06999 0.84260 0.34600
C 	C 	0.96060 0.03481 0.92790 -0.04600
C 	C 	0.89000 0.00008 0.88230 0.03900
H 	H 	0.81450 0.00010 0.80070 0.01900
C 	C 	0.92640 0.96543 0.95230 -0.07900
C 	C 	0.84160 0.93005 0.89250 0.39300
N 	N 	0.69860 0.11731 0.51840 -0.27200
N 	N 	0.67940 0.11653 0.38660 -0.07600
N 	N 	0.54790 0.11611 0.31910 -0.07700
N 	N 	0.47450 0.11689 0.40410 -0.25800
N 	N 	0.54600 0.12172 0.64020 -0.28800
H 	H 	0.62110 0.11290 0.70790 0.13000
H 	H 	0.46990 0.10740 0.63590 0.11200
N 	N 	0.03030 0.12419 0.56480 -0.25400
N 	N 	0.15620 0.11135 0.64320 -0.17400
N 	N 	0.24260 0.11134 0.57900 -0.08200
N 	N 	0.17630 0.12455 0.45430 -0.24900
N 	N 	0.94370 0.14633 0.34070 -0.29300
H 	H 	0.86620 0.13150 0.32520 0.13900
H 	H 	0.97240 0.14520 0.26940 0.14600
O 	O 	0.12350 0.15594 0.86700 -0.45700
O 	O 	0.90160 0.17244 0.75760 -0.46500
O 	O 	0.03170 0.15520 0.12020 -0.29200
O 	O 	0.25410 0.17227 0.22340 -0.43900
O 	O 	0.97640 0.08396 0.77720 -0.57100
O 	O 	0.78560 0.08145 0.83110 -0.29900
O 	O 	0.81190 0.92641 0.76880 -0.48800
O 	O 	0.80070 0.90712 0.96070 -0.48000
Zn	Zn	0.88207 0.12613 0.64898 1.20500
Zn	Zn	0.19428 0.09794 0.84884 1.20800
Zn	Zn	0.26865 0.12279 0.31482 1.21000
O 	O 	0.94900 0.99830 0.50600 0.23100
C 	C 	0.15560 0.02080 0.75020 0.29000
H 	H 	0.07800 0.03250 0.68490 -0.05900
C 	C 	0.29710 0.96020 0.85190 1.77400
H 	H 	0.36890 0.97960 0.89290 -1.25100
H 	H 	0.33410 0.94070 0.80620 0.60200
H 	H 	0.26910 0.94750 0.92060 -0.32700
C 	C 	0.07500 0.95390 0.65990 0.05800
H 	H 	0.05640 0.93110 0.70570 0.00200
H 	H 	0.11300 0.94560 0.59190 0.16300
H 	H 	0.98820 0.96820 0.61800 0.86200
N 	N 	0.17620 0.97920 0.75630 -0.32400
O 	O 	0.01500 0.97180 0.57600 -1.23600
O 	O 	0.75290 0.54104 0.16310 -0.44700
C 	C 	0.64130 0.53120 0.18270 0.13000
H 	H 	0.58890 0.54890 0.21440 -0.03700
C 	C 	0.67230 0.46260 0.10020 1.33600
H 	H 	0.75330 0.47480 0.08730 -0.47500
H 	H 	0.60930 0.45290 0.01510 -0.24000
H 	H 	0.70320 0.44100 0.16260 -1.69800
C 	C 	0.47040 0.47840 0.17230 -0.49700
H 	H 	0.42770 0.50040 0.20160 0.17900
H 	H 	0.49170 0.45790 0.23960 0.12700
H 	H 	0.40580 0.46840 0.08840 0.20800
N 	N 	0.59960 0.49120 0.15340 0.31900
C 	C 	0.42950 0.61748 0.47540 0.19100
C 	C 	0.95540 0.63250 0.55280 0.18500
C 	C 	0.97850 0.67776 0.15470 0.37800
C 	C 	0.95790 0.71492 0.07780 -0.08200
C 	C 	0.89050 0.71496 0.93980 -0.01000
C 	C 	0.86750 0.67782 0.86170 0.29500
C 	C 	0.09670 0.56999 0.15740 0.34600
C 	C 	0.03940 0.53481 0.07210 -0.04600
C 	C 	0.11000 0.50008 0.11770 0.03800
H 	H 	0.18550 0.50010 0.19930 0.01900
C 	C 	0.07360 0.46543 0.04770 -0.07900
C 	C 	0.15840 0.43005 0.10750 0.39300
N 	N 	0.30140 0.61731 0.48160 -0.27200
N 	N 	0.32060 0.61653 0.61340 -0.07700
N 	N 	0.45210 0.61611 0.68090 -0.07800
N 	N 	0.52550 0.61689 0.59590 -0.25800
N 	N 	0.45400 0.62172 0.35980 -0.28800
H 	H 	0.37890 0.61290 0.29210 0.13000
H 	H 	0.53010 0.60740 0.36410 0.11200
N 	N 	0.96970 0.62419 0.43520 -0.25400
N 	N 	0.84380 0.61135 0.35680 -0.17400
N 	N 	0.75740 0.61134 0.42100 -0.08200
N 	N 	0.82370 0.62455 0.54570 -0.24900
N 	N 	0.05630 0.64633 0.65930 -0.29300
H 	H 	0.13380 0.63150 0.67480 0.13900
H 	H 	0.02760 0.64520 0.73060 0.14600
O 	O 	0.87650 0.65594 0.13300 -0.45700
O 	O 	0.09840 0.67244 0.24240 -0.46500
O 	O 	0.96830 0.65520 0.87980 -0.29200
O 	O 	0.74590 0.67227 0.77660 -0.43900
O 	O 	0.02360 0.58396 0.22280 -0.57100
O 	O 	0.21440 0.58145 0.16890 -0.29900
O 	O 	0.18810 0.42641 0.23120 -0.48800
O 	O 	0.19930 0.40712 0.03930 -0.48000
Zn	Zn	0.11793 0.62613 0.35102 1.20500
Zn	Zn	0.80572 0.59794 0.15116 1.20800
Zn	Zn	0.73135 0.62279 0.68518 1.21000
O 	O 	0.05100 0.49830 0.49400 0.23400
C 	C 	0.84440 0.52080 0.24980 0.29100
H 	H 	0.92200 0.53250 0.31510 -0.05900
C 	C 	0.70290 0.46020 0.14810 1.77300
H 	H 	0.63110 0.47960 0.10710 -1.25000
H 	H 	0.66590 0.44070 0.19380 0.60100
H 	H 	0.73090 0.44750 0.07940 -0.32700
C 	C 	0.92500 0.45390 0.34010 0.05700
H 	H 	0.94360 0.43110 0.29430 0.00100
H 	H 	0.88700 0.44560 0.40810 0.16400
H 	H 	0.01180 0.46820 0.38200 0.87000
N 	N 	0.82380 0.47920 0.24370 -0.32400
O 	O 	0.98500 0.47180 0.42400 -1.24600
O 	O 	0.75290 0.95896 0.16310 -0.44600
C 	C 	0.64130 0.96880 0.18270 0.12900
H 	H 	0.58890 0.95110 0.21440 -0.03700
C 	C 	0.67230 0.03740 0.10020 1.33700
H 	H 	0.75330 0.02520 0.08730 -0.47500
H 	H 	0.60930 0.04710 0.01510 -0.24000
H 	H 	0.70320 0.05900 0.16260 -1.69900
C 	C 	0.47040 0.02160 0.17230 -0.49700
H 	H 	0.42770 0.99960 0.20160 0.17800
H 	H 	0.49170 0.04210 0.23960 0.12700
H 	H 	0.40580 0.03160 0.08840 0.20800
N 	N 	0.59960 0.00880 0.15340 0.32000
C 	C 	0.42950 0.88252 0.47540 0.19100
C 	C 	0.95540 0.86750 0.55280 0.18400
C 	C 	0.97850 0.82224 0.15470 0.37800
C 	C 	0.95790 0.78508 0.07780 -0.08200
C 	C 	0.89050 0.78504 0.93980 -0.01000
C 	C 	0.86750 0.82218 0.86170 0.29500
C 	C 	0.09670 0.93001 0.15740 0.34600
C 	C 	0.03940 0.96519 0.07210 -0.04600
C 	C 	0.11000 0.99992 0.11770 0.03900
H 	H 	0.18550 0.99990 0.19930 0.01900
C 	C 	0.07360 0.03457 0.04770 -0.07900
C 	C 	0.15840 0.06995 0.10750 0.39300
N 	N 	0.30140 0.88269 0.48160 -0.27200
N 	N 	0.32060 0.88347 0.61340 -0.07600
N 	N 	0.45210 0.88389 0.68090 -0.07700
N 	N 	0.52550 0.88311 0.59590 -0.25800
N 	N 	0.45400 0.87828 0.35980 -0.28800
H 	H 	0.37890 0.88710 0.29210 0.13000
H 	H 	0.53010 0.89260 0.36410 0.11200
N 	N 	0.96970 0.87581 0.43520 -0.25400
N 	N 	0.84380 0.88865 0.35680 -0.17400
N 	N 	0.75740 0.88866 0.42100 -0.08200
N 	N 	0.82370 0.87545 0.54570 -0.24900
N 	N 	0.05630 0.85367 0.65930 -0.29300
H 	H 	0.13380 0.86850 0.67480 0.13900
H 	H 	0.02760 0.85480 0.73060 0.14600
O 	O 	0.87650 0.84406 0.13300 -0.45700
O 	O 	0.09840 0.82756 0.24240 -0.46500
O 	O 	0.96830 0.84480 0.87980 -0.29200
O 	O 	0.74590 0.82773 0.77660 -0.43900
O 	O 	0.02360 0.91604 0.22280 -0.57100
O 	O 	0.21440 0.91855 0.16890 -0.29900
O 	O 	0.18810 0.07359 0.23120 -0.48800
O 	O 	0.19930 0.09288 0.03930 -0.48000
Zn	Zn	0.11793 0.87387 0.35102 1.20500
Zn	Zn	0.80572 0.90206 0.15116 1.20800
Zn	Zn	0.73135 0.87721 0.68518 1.21000
O 	O 	0.05100 0.00170 0.49400 0.23100
C 	C 	0.84440 0.97920 0.24980 0.29000
H 	H 	0.92200 0.96750 0.31510 -0.05900
C 	C 	0.70290 0.03980 0.14810 1.77400
H 	H 	0.63110 0.02040 0.10710 -1.25100
H 	H 	0.66590 0.05930 0.19380 0.60200
H 	H 	0.73090 0.05250 0.07940 -0.32700
C 	C 	0.92500 0.04610 0.34010 0.05800
H 	H 	0.94360 0.06890 0.29430 0.00200
H 	H 	0.88700 0.05440 0.40810 0.16300
H 	H 	0.01180 0.03180 0.38200 0.86200
N 	N 	0.82380 0.02080 0.24370 -0.32400
O 	O 	0.98500 0.02820 0.42400 -1.23600
O 	O 	0.24710 0.45896 0.83690 -0.44700
C 	C 	0.35870 0.46880 0.81730 0.13000
H 	H 	0.41110 0.45110 0.78560 -0.03700
C 	C 	0.32770 0.53740 0.89980 1.33600
H 	H 	0.24670 0.52520 0.91270 -0.47500
H 	H 	0.39070 0.54710 0.98490 -0.24000
H 	H 	0.29680 0.55900 0.83740 -1.69800
C 	C 	0.52960 0.52160 0.82770 -0.49700
H 	H 	0.57230 0.49960 0.79840 0.17900
H 	H 	0.50830 0.54210 0.76040 0.12700
H 	H 	0.59420 0.53160 0.91160 0.20800
N 	N 	0.40040 0.50880 0.84660 0.31900
C 	C 	0.57050 0.38252 0.52460 0.19100
C 	C 	0.04460 0.36750 0.44720 0.18500
C 	C 	0.02150 0.32224 0.84530 0.37800
C 	C 	0.04210 0.28508 0.92220 -0.08200
C 	C 	0.10950 0.28504 0.06020 -0.01000
C 	C 	0.13250 0.32218 0.13830 0.29500
C 	C 	0.90330 0.43001 0.84260 0.34600
C 	C 	0.96060 0.46519 0.92790 -0.04600
C 	C 	0.89000 0.49992 0.88230 0.03800
H 	H 	0.81450 0.49990 0.80070 0.01900
C 	C 	0.92640 0.53457 0.95230 -0.07900
C 	C 	0.84160 0.56995 0.89250 0.39300
N 	N 	0.69860 0.38269 0.51840 -0.27200
N 	N 	0.67940 0.38347 0.38660 -0.07700
N 	N 	0.54790 0.38389 0.31910 -0.07800
N 	N 	0.47450 0.38311 0.40410 -0.25800
N 	N 	0.54600 0.37828 0.64020 -0.28800
H 	H 	0.62110 0.38710 0.70790 0.13000
H 	H 	0.46990 0.39260 0.63590 0.11200
N 	N 	0.03030 0.37581 0.56480 -0.25400
N 	N 	0.15620 0.38865 0.64320 -0.17400
N 	N 	0.24260 0.38866 0.57900 -0.08200
N 	N 	0.17630 0.37545 0.45430 -0.24900
N 	N 	0.94370 0.35367 0.34070 -0.29300
H 	H 	0.86620 0.36850 0.32520 0.13900
H 	H 	0.97240 0.35480 0.26940 0.14600
O 	O 	0.12350 0.34406 0.86700 -0.45700
O 	O 	0.90160 0.32756 0.75760 -0.46500
O 	O 	0.03170 0.34480 0.12020 -0.29200
O 	O 	0.25410 0.32773 0.22340 -0.43900
O 	O 	0.97640 0.41604 0.77720 -0.57100
O 	O 	0.78560 0.41855 0.83110 -0.29900
O 	O 	0.81190 0.57359 0.76880 -0.48800
O 	O 	0.80070 0.59288 0.96070 -0.48000
Zn	Zn	0.88207 0.37387 0.64898 1.20500
Zn	Zn	0.19428 0.40206 0.84884 1.20800
Zn	Zn	0.26865 0.37721 0.31482 1.21000
O 	O 	0.94900 0.50170 0.50600 0.23400
C 	C 	0.15560 0.47920 0.75020 0.29100
H 	H 	0.07800 0.46750 0.68490 -0.05900
C 	C 	0.29710 0.53980 0.85190 1.77300
H 	H 	0.36890 0.52040 0.89290 -1.25000
H 	H 	0.33410 0.55930 0.80620 0.60100
H 	H 	0.26910 0.55250 0.92060 -0.32700
C 	C 	0.07500 0.54610 0.65990 0.05700
H 	H 	0.05640 0.56890 0.70570 0.00100
H 	H 	0.11300 0.55440 0.59190 0.16400
H 	H 	0.98820 0.53180 0.61800 0.87000
N 	N 	0.17620 0.52080 0.75630 -0.32400
O 	O 	0.01500 0.52820 0.57600 -1.24600
C 	C 	0.00710 0.25000 0.85490 0.02000
H 	H 	0.95880 0.25000 0.76200 0.04300
C 	C 	0.14330 0.25000 0.12820 -0.02800
H 	H 	0.18980 0.25000 0.22150 0.05700
C 	C 	0.99290 0.75000 0.14510 0.02000
H 	H 	0.04120 0.75000 0.23800 0.04300
C 	C 	0.85670 0.75000 0.87180 -0.02800
H 	H 	0.81020 0.75000 0.77850 0.05700
