data_crystal

_cell_length_a 10.72800
_cell_length_b 13.79000
_cell_length_c 19.57600
_cell_angle_alpha 90.00000
_cell_angle_beta  90.00000
_cell_angle_gamma 104.49000

_symmetry_space_group_name_	'P 1'
_symmetry_space_group_name_H-M	'P 1'

loop_
_symmetry_equiv_pos_as_xyz
  x,y,z

loop_
_atom_site_label
_atom_site_type_symbol
_atom_site_fract_x
_atom_site_fract_y
_atom_site_fract_z
_atom_site_charge
Ni	Ni	0.75409 0.20476 0.97439 1.11400
Ni	Ni	0.59494 0.36062 0.88175 1.11300
Ni	Ni	0.24591 0.29524 0.47439 1.11400
Ni	Ni	0.40506 0.13938 0.38175 1.11300
Ni	Ni	0.24591 0.79524 0.02561 1.11400
Ni	Ni	0.40506 0.63938 0.11825 1.11300
Ni	Ni	0.75409 0.70476 0.52561 1.11400
Ni	Ni	0.59494 0.86062 0.61825 1.11300
H 	H 	0.68200 0.90460 0.91030 0.02300
H 	H 	0.59430 0.74850 0.86320 0.09300
H 	H 	0.56090 0.73320 0.74770 0.01400
H 	H 	0.69240 0.02050 0.72340 0.01800
H 	H 	0.13020 0.94830 0.80600 0.09400
H 	H 	0.11240 0.82850 0.88810 -0.00100
H 	H 	0.40080 0.99390 0.98750 0.01700
H 	H 	0.28850 0.09820 0.81540 0.01600
H 	H 	0.84040 0.46180 0.11960 0.03200
H 	H 	0.84800 0.60470 0.18370 0.09400
H 	H 	0.67390 0.67200 0.18720 0.00400
H 	H 	0.48820 0.47170 0.05900 0.01900
H 	H 	0.30200 0.33860 0.03280 0.02700
H 	H 	0.22070 0.19310 0.97070 0.08900
H 	H 	0.00630 0.14510 0.94470 0.01000
H 	H 	0.94820 0.38120 0.03520 0.02600
H 	H 	0.31800 0.59540 0.41030 0.02200
H 	H 	0.40570 0.75150 0.36320 0.09300
H 	H 	0.43910 0.76680 0.24770 0.01400
H 	H 	0.30760 0.47950 0.22340 0.01800
H 	H 	0.86980 0.55170 0.30600 0.09400
H 	H 	0.88760 0.67150 0.38810 -0.00100
H 	H 	0.59920 0.50610 0.48750 0.01700
H 	H 	0.71150 0.40180 0.31540 0.01600
H 	H 	0.15960 0.03820 0.61960 0.03200
H 	H 	0.15200 0.89530 0.68370 0.09400
H 	H 	0.32610 0.82800 0.68720 0.00400
H 	H 	0.51180 0.02830 0.55900 0.01900
H 	H 	0.69800 0.16140 0.53280 0.02800
H 	H 	0.77930 0.30690 0.47070 0.08800
H 	H 	0.99370 0.35490 0.44470 0.01100
H 	H 	0.05180 0.11880 0.53520 0.02700
H 	H 	0.31800 0.09540 0.08970 0.02300
H 	H 	0.40570 0.25150 0.13680 0.09300
H 	H 	0.43910 0.26680 0.25230 0.01400
H 	H 	0.30760 0.97950 0.27660 0.01800
H 	H 	0.86980 0.05170 0.19400 0.09400
H 	H 	0.88760 0.17150 0.11190 -0.00100
H 	H 	0.59920 0.00610 0.01250 0.01700
H 	H 	0.71150 0.90180 0.18460 0.01600
H 	H 	0.15960 0.53820 0.88040 0.03200
H 	H 	0.15200 0.39530 0.81630 0.09400
H 	H 	0.32610 0.32800 0.81280 0.00400
H 	H 	0.51180 0.52830 0.94100 0.01900
H 	H 	0.69800 0.66140 0.96720 0.02700
H 	H 	0.77930 0.80690 0.02930 0.08900
H 	H 	0.99370 0.85490 0.05530 0.01000
H 	H 	0.05180 0.61880 0.96480 0.02600
H 	H 	0.68200 0.40460 0.58970 0.02200
H 	H 	0.59430 0.24850 0.63680 0.09300
H 	H 	0.56090 0.23320 0.75230 0.01400
H 	H 	0.69240 0.52050 0.77660 0.01800
H 	H 	0.13020 0.44830 0.69400 0.09400
H 	H 	0.11240 0.32850 0.61190 -0.00100
H 	H 	0.40080 0.49390 0.51250 0.01700
H 	H 	0.28850 0.59820 0.68460 0.01600
H 	H 	0.84040 0.96180 0.38040 0.03200
H 	H 	0.84800 0.10470 0.31630 0.09400
H 	H 	0.67390 0.17200 0.31280 0.00400
H 	H 	0.48820 0.97170 0.44100 0.01900
H 	H 	0.30200 0.83860 0.46720 0.02800
H 	H 	0.22070 0.69310 0.52930 0.08800
H 	H 	0.00630 0.64510 0.55530 0.01100
H 	H 	0.94820 0.88120 0.46480 0.02700
C 	C 	0.75220 0.08400 0.84849 0.34700
C 	C 	0.69870 0.98010 0.82079 -0.12700
C 	C 	0.66750 0.89760 0.86350 0.07500
C 	C 	0.61650 0.80490 0.83550 -0.14200
C 	C 	0.59660 0.79630 0.76610 0.09700
C 	C 	0.67420 0.96490 0.75202 0.08900
C 	C 	0.18650 0.95920 0.84290 -0.15900
C 	C 	0.17780 0.88710 0.89180 0.10100
C 	C 	0.34720 0.98400 0.94944 0.10300
C 	C 	0.28270 0.04750 0.84750 0.09000
C 	C 	0.36730 0.05950 0.90164 -0.15900
C 	C 	0.47770 0.15010 0.90965 0.40100
C 	C 	0.64980 0.36460 0.03313 0.38600
C 	C 	0.66020 0.44990 0.08224 -0.14300
C 	C 	0.77070 0.49060 0.12020 0.07900
C 	C 	0.77460 0.57510 0.15880 -0.14300
C 	C 	0.67000 0.61560 0.16040 0.09100
C 	C 	0.56080 0.49700 0.08562 0.09300
C 	C 	0.17440 0.47120 0.08120 0.35200
C 	C 	0.13130 0.37460 0.04186 -0.12600
C 	C 	0.21500 0.31870 0.02170 0.07100
C 	C 	0.16650 0.23220 0.98490 -0.13800
C 	C 	0.03730 0.20350 0.96960 0.08500
C 	C 	0.00370 0.34200 0.02296 0.08900
C 	C 	0.24780 0.41600 0.34849 0.34800
C 	C 	0.30130 0.51990 0.32079 -0.12800
C 	C 	0.33250 0.60240 0.36350 0.07600
C 	C 	0.38350 0.69510 0.33550 -0.14200
C 	C 	0.40340 0.70370 0.26610 0.09700
C 	C 	0.32580 0.53510 0.25202 0.08800
C 	C 	0.81350 0.54080 0.34290 -0.15900
C 	C 	0.82220 0.61290 0.39180 0.10100
C 	C 	0.65280 0.51600 0.44944 0.10200
C 	C 	0.71730 0.45250 0.34750 0.09000
C 	C 	0.63270 0.44050 0.40164 -0.15800
C 	C 	0.52230 0.34990 0.40965 0.40100
C 	C 	0.35020 0.13540 0.53313 0.38500
C 	C 	0.33980 0.05010 0.58224 -0.14300
C 	C 	0.22930 0.00940 0.62020 0.07900
C 	C 	0.22540 0.92490 0.65880 -0.14300
C 	C 	0.33000 0.88440 0.66040 0.09100
C 	C 	0.43920 0.00300 0.58562 0.09200
C 	C 	0.82560 0.02880 0.58120 0.35000
C 	C 	0.86870 0.12540 0.54186 -0.12500
C 	C 	0.78500 0.18130 0.52170 0.06900
C 	C 	0.83350 0.26780 0.48490 -0.13700
C 	C 	0.96270 0.29650 0.46960 0.08400
C 	C 	0.99630 0.15800 0.52296 0.08700
C 	C 	0.24780 0.91600 0.15151 0.34700
C 	C 	0.30130 0.01990 0.17921 -0.12700
C 	C 	0.33250 0.10240 0.13650 0.07500
C 	C 	0.38350 0.19510 0.16450 -0.14200
C 	C 	0.40340 0.20370 0.23390 0.09700
C 	C 	0.32580 0.03510 0.24798 0.08900
C 	C 	0.81350 0.04080 0.15710 -0.15900
C 	C 	0.82220 0.11290 0.10820 0.10100
C 	C 	0.65280 0.01600 0.05056 0.10300
C 	C 	0.71730 0.95250 0.15250 0.09000
C 	C 	0.63270 0.94050 0.09836 -0.15900
C 	C 	0.52230 0.84990 0.09035 0.40100
C 	C 	0.35020 0.63540 0.96687 0.38600
C 	C 	0.33980 0.55010 0.91776 -0.14300
C 	C 	0.22930 0.50940 0.87980 0.07900
C 	C 	0.22540 0.42490 0.84120 -0.14300
C 	C 	0.33000 0.38440 0.83960 0.09100
C 	C 	0.43920 0.50300 0.91438 0.09300
C 	C 	0.82560 0.52880 0.91880 0.35200
C 	C 	0.86870 0.62540 0.95814 -0.12600
C 	C 	0.78500 0.68130 0.97830 0.07100
C 	C 	0.83350 0.76780 0.01510 -0.13800
C 	C 	0.96270 0.79650 0.03040 0.08500
C 	C 	0.99630 0.65800 0.97704 0.08900
C 	C 	0.75220 0.58400 0.65151 0.34800
C 	C 	0.69870 0.48010 0.67921 -0.12800
C 	C 	0.66750 0.39760 0.63650 0.07600
C 	C 	0.61650 0.30490 0.66450 -0.14200
C 	C 	0.59660 0.29630 0.73390 0.09700
C 	C 	0.67420 0.46490 0.74798 0.08800
C 	C 	0.18650 0.45920 0.65710 -0.15900
C 	C 	0.17780 0.38710 0.60820 0.10100
C 	C 	0.34720 0.48400 0.55056 0.10200
C 	C 	0.28270 0.54750 0.65250 0.09000
C 	C 	0.36730 0.55950 0.59836 -0.15800
C 	C 	0.47770 0.65010 0.59035 0.40100
C 	C 	0.64980 0.86460 0.46687 0.38500
C 	C 	0.66020 0.94990 0.41776 -0.14300
C 	C 	0.77070 0.99060 0.37980 0.07900
C 	C 	0.77460 0.07510 0.34120 -0.14300
C 	C 	0.67000 0.11560 0.33960 0.09100
C 	C 	0.56080 0.99700 0.41438 0.09200
C 	C 	0.17440 0.97120 0.41880 0.35000
C 	C 	0.13130 0.87460 0.45814 -0.12500
C 	C 	0.21500 0.81870 0.47830 0.06900
C 	C 	0.16650 0.73220 0.51510 -0.13700
C 	C 	0.03730 0.70350 0.53040 0.08400
C 	C 	0.00370 0.84200 0.47704 0.08700
N 	N 	0.62560 0.87474 0.72418 -0.22200
N 	N 	0.25740 0.89774 0.94535 -0.22600
N 	N 	0.56230 0.57693 0.12455 -0.22400
N 	N 	0.95500 0.25729 0.98851 -0.21900
N 	N 	0.37440 0.62526 0.22418 -0.22200
N 	N 	0.74260 0.60226 0.44535 -0.22600
N 	N 	0.43770 0.92307 0.62455 -0.22400
N 	N 	0.04500 0.24271 0.48851 -0.21800
N 	N 	0.37440 0.12526 0.27582 -0.22200
N 	N 	0.74260 0.10226 0.05465 -0.22600
N 	N 	0.43770 0.42307 0.87545 -0.22400
N 	N 	0.04500 0.74271 0.01149 -0.21900
N 	N 	0.62560 0.37474 0.77582 -0.22200
N 	N 	0.25740 0.39774 0.55465 -0.22600
N 	N 	0.56230 0.07693 0.37545 -0.22400
N 	N 	0.95500 0.75729 0.51149 -0.21800
O 	O 	0.77610 0.09038 0.91126 -0.38900
O 	O 	0.76470 0.15574 0.80756 -0.25400
O 	O 	0.55790 0.14521 0.95500 -0.41600
O 	O 	0.47890 0.22185 0.86981 -0.42500
O 	O 	0.56510 0.35536 0.98762 -0.40900
O 	O 	0.72890 0.31223 0.04025 -0.42000
O 	O 	0.09270 0.51883 0.09440 -0.26000
O 	O 	0.29120 0.49699 0.09774 -0.39000
O 	O 	0.76000 0.30215 0.89052 -0.35900
O 	O 	0.22390 0.40962 0.41126 -0.38800
O 	O 	0.23530 0.34426 0.30756 -0.25400
O 	O 	0.44210 0.35479 0.45500 -0.41500
O 	O 	0.52110 0.27815 0.36981 -0.42500
O 	O 	0.43490 0.14464 0.48762 -0.40900
O 	O 	0.27110 0.18777 0.54025 -0.42000
O 	O 	0.90730 0.98117 0.59440 -0.25900
O 	O 	0.70880 0.00301 0.59774 -0.39000
O 	O 	0.24000 0.19785 0.39052 -0.35900
O 	O 	0.22390 0.90962 0.08874 -0.38900
O 	O 	0.23530 0.84426 0.19244 -0.25400
O 	O 	0.44210 0.85479 0.04500 -0.41600
O 	O 	0.52110 0.77815 0.13019 -0.42500
O 	O 	0.43490 0.64464 0.01238 -0.40900
O 	O 	0.27110 0.68777 0.95975 -0.42000
O 	O 	0.90730 0.48117 0.90560 -0.26000
O 	O 	0.70880 0.50301 0.90226 -0.39000
O 	O 	0.24000 0.69785 0.10948 -0.35900
O 	O 	0.77610 0.59038 0.58874 -0.38800
O 	O 	0.76470 0.65574 0.69244 -0.25400
O 	O 	0.55790 0.64521 0.54500 -0.41500
O 	O 	0.47890 0.72185 0.63019 -0.42500
O 	O 	0.56510 0.85536 0.51238 -0.40900
O 	O 	0.72890 0.81223 0.45975 -0.42000
O 	O 	0.09270 0.01883 0.40560 -0.25900
O 	O 	0.29120 0.99699 0.40226 -0.39000
O 	O 	0.76000 0.80215 0.60948 -0.35900
