data_crystal

_cell_length_a 10.23000
_cell_length_b 9.46800
_cell_length_c 28.00600
_cell_angle_alpha 90.00000
_cell_angle_beta  98.04800
_cell_angle_gamma 90.00000

_symmetry_space_group_name_	'P 1'
_symmetry_space_group_name_H-M	'P 1'

loop_
_symmetry_equiv_pos_as_xyz
  x,y,z

loop_
_atom_site_label
_atom_site_type_symbol
_atom_site_fract_x
_atom_site_fract_y
_atom_site_fract_z
_atom_site_charge
Co	Co	0.77973 0.38336 0.69352 1.18400
Co	Co	0.55644 0.43970 0.59720 1.15900
O 	O 	0.53270 0.24630 0.62640 -0.42700
O 	O 	0.70990 0.18690 0.67780 -0.42400
O 	O 	0.78250 0.65270 0.70590 -0.31500
O 	O 	0.63260 0.51830 0.66600 -0.54300
O 	O 	0.28770 0.87800 0.73500 -0.34100
O 	O 	0.08120 0.84860 0.74520 -0.35700
O 	O 	0.58970 0.62590 0.46420 -0.37700
O 	O 	0.65210 0.53880 0.39920 -0.38400
O 	O 	0.10060 0.60780 0.35900 -0.41800
O 	O 	0.26260 0.61080 0.42190 -0.46700
C 	C 	0.60300 0.15900 0.65200 0.37800
C 	C 	0.55180 0.01010 0.65330 -0.07500
C 	C 	0.63570 0.89880 0.66780 0.02500
H 	H 	0.72550 0.91440 0.67700 0.05000
C 	C 	0.58370 0.76290 0.66870 -0.09900
C 	C 	0.44910 0.74170 0.65790 -0.02400
H 	H 	0.41490 0.65130 0.66010 0.05700
C 	C 	0.36390 0.85370 0.64370 0.00200
C 	C 	0.41570 0.98460 0.64030 -0.02400
H 	H 	0.36030 0.05910 0.62930 0.06700
C 	C 	0.67390 0.63950 0.68110 0.34100
C 	C 	0.21900 0.82460 0.63140 0.07600
C 	C 	0.13070 0.82520 0.66490 -0.09000
C 	C 	0.99820 0.79150 0.64870 0.02500
H 	H 	0.93890 0.79260 0.67100 0.05800
C 	C 	0.95030 0.75630 0.60080 -0.10400
H 	H 	0.86200 0.73310 0.59160 0.06200
C 	C 	0.03920 0.75720 0.56740 0.07400
C 	C 	0.16920 0.79280 0.58380 -0.13000
H 	H 	0.22780 0.79560 0.56120 0.07900
C 	C 	0.17120 0.85280 0.71800 0.30500
C 	C 	0.99480 0.71300 0.51660 -0.02600
C 	C 	0.86230 0.68190 0.50050 -0.00500
H 	H 	0.80000 0.69650 0.52120 0.03800
C 	C 	0.82210 0.63080 0.45530 -0.07700
C 	C 	0.91250 0.60870 0.42320 0.02600
H 	H 	0.88430 0.57260 0.39260 0.05900
C 	C 	0.04440 0.64050 0.43700 -0.09400
C 	C 	0.08490 0.68900 0.48440 -0.00200
H 	H 	0.17410 0.70550 0.49440 0.04200
C 	C 	0.14660 0.61590 0.40420 0.37900
C 	C 	0.67910 0.59510 0.43790 0.31700
Co	Co	0.22027 0.88336 0.80648 1.18200
Co	Co	0.44356 0.93970 0.90280 1.15800
O 	O 	0.46730 0.74630 0.87360 -0.42900
O 	O 	0.29010 0.68690 0.82220 -0.42700
O 	O 	0.21750 0.15270 0.79410 -0.31500
O 	O 	0.36740 0.01830 0.83400 -0.54200
O 	O 	0.71230 0.37800 0.76500 -0.34000
O 	O 	0.91880 0.34860 0.75480 -0.35600
O 	O 	0.41030 0.12590 0.03580 -0.37800
O 	O 	0.34790 0.03880 0.10080 -0.38500
O 	O 	0.89940 0.10780 0.14100 -0.41900
O 	O 	0.73740 0.11080 0.07810 -0.46800
C 	C 	0.39700 0.65900 0.84800 0.38300
C 	C 	0.44820 0.51010 0.84670 -0.08900
C 	C 	0.36430 0.39880 0.83220 0.03600
H 	H 	0.27450 0.41440 0.82300 0.04700
C 	C 	0.41630 0.26290 0.83130 -0.10400
C 	C 	0.55090 0.24170 0.84210 -0.01700
H 	H 	0.58510 0.15130 0.83990 0.05600
C 	C 	0.63610 0.35370 0.85630 -0.00600
C 	C 	0.58430 0.48460 0.85970 -0.00600
H 	H 	0.63970 0.55910 0.87070 0.05900
C 	C 	0.32610 0.13950 0.81890 0.34300
C 	C 	0.78100 0.32460 0.86860 0.08000
C 	C 	0.86930 0.32520 0.83510 -0.09100
C 	C 	0.00180 0.29150 0.85130 0.02600
H 	H 	0.06110 0.29260 0.82900 0.05800
C 	C 	0.04970 0.25630 0.89920 -0.10400
H 	H 	0.13800 0.23310 0.90840 0.06300
C 	C 	0.96080 0.25720 0.93260 0.07500
C 	C 	0.83080 0.29280 0.91620 -0.13200
H 	H 	0.77220 0.29560 0.93880 0.08000
C 	C 	0.82880 0.35280 0.78200 0.30600
C 	C 	0.00520 0.21300 0.98340 -0.02600
C 	C 	0.13770 0.18190 0.99950 -0.00300
H 	H 	0.20000 0.19650 0.97880 0.03800
C 	C 	0.17790 0.13080 0.04470 -0.07900
C 	C 	0.08750 0.10870 0.07680 0.02800
H 	H 	0.11570 0.07260 0.10740 0.05900
C 	C 	0.95560 0.14050 0.06300 -0.09500
C 	C 	0.91510 0.18900 0.01560 -0.00200
H 	H 	0.82590 0.20550 0.00560 0.04200
C 	C 	0.85340 0.11590 0.09580 0.37900
C 	C 	0.32090 0.09510 0.06210 0.31800
Co	Co	0.22027 0.61664 0.30648 1.18300
Co	Co	0.44356 0.56030 0.40280 1.15800
O 	O 	0.46730 0.75370 0.37360 -0.42800
O 	O 	0.29010 0.81310 0.32220 -0.42500
O 	O 	0.21750 0.34730 0.29410 -0.31600
O 	O 	0.36740 0.48170 0.33400 -0.54400
O 	O 	0.71230 0.12200 0.26500 -0.34100
O 	O 	0.91880 0.15140 0.25480 -0.35700
O 	O 	0.41030 0.37410 0.53580 -0.37700
O 	O 	0.34790 0.46120 0.60080 -0.38400
O 	O 	0.89940 0.39220 0.64100 -0.41800
O 	O 	0.73740 0.38920 0.57810 -0.46700
C 	C 	0.39700 0.84100 0.34800 0.37800
C 	C 	0.44820 0.98990 0.34670 -0.07500
C 	C 	0.36430 0.10120 0.33220 0.02500
H 	H 	0.27450 0.08560 0.32300 0.05000
C 	C 	0.41630 0.23710 0.33130 -0.09900
C 	C 	0.55090 0.25830 0.34210 -0.02400
H 	H 	0.58510 0.34870 0.33990 0.05700
C 	C 	0.63610 0.14630 0.35630 0.00200
C 	C 	0.58430 0.01540 0.35970 -0.02400
H 	H 	0.63970 0.94090 0.37070 0.06700
C 	C 	0.32610 0.36050 0.31890 0.34100
C 	C 	0.78100 0.17540 0.36860 0.07600
C 	C 	0.86930 0.17480 0.33510 -0.09000
C 	C 	0.00180 0.20850 0.35130 0.02500
H 	H 	0.06110 0.20740 0.32900 0.05800
C 	C 	0.04970 0.24370 0.39920 -0.10400
H 	H 	0.13800 0.26690 0.40840 0.06200
C 	C 	0.96080 0.24280 0.43260 0.07400
C 	C 	0.83080 0.20720 0.41620 -0.13000
H 	H 	0.77220 0.20440 0.43880 0.07900
C 	C 	0.82880 0.14720 0.28200 0.30500
C 	C 	0.00520 0.28700 0.48340 -0.02600
C 	C 	0.13770 0.31810 0.49950 -0.00500
H 	H 	0.20000 0.30350 0.47880 0.03800
C 	C 	0.17790 0.36920 0.54470 -0.07700
C 	C 	0.08750 0.39130 0.57680 0.02600
H 	H 	0.11570 0.42740 0.60740 0.05900
C 	C 	0.95560 0.35950 0.56300 -0.09400
C 	C 	0.91510 0.31100 0.51560 -0.00200
H 	H 	0.82590 0.29450 0.50560 0.04200
C 	C 	0.85340 0.38410 0.59580 0.37900
C 	C 	0.32090 0.40490 0.56210 0.31700
Co	Co	0.77973 0.11664 0.19352 1.18200
Co	Co	0.55644 0.06030 0.09720 1.15800
O 	O 	0.53270 0.25370 0.12640 -0.42900
O 	O 	0.70990 0.31310 0.17780 -0.42700
O 	O 	0.78250 0.84730 0.20590 -0.31500
O 	O 	0.63260 0.98170 0.16600 -0.54200
O 	O 	0.28770 0.62200 0.23500 -0.34000
O 	O 	0.08120 0.65140 0.24520 -0.35600
O 	O 	0.58970 0.87410 0.96420 -0.37800
O 	O 	0.65210 0.96120 0.89920 -0.38500
O 	O 	0.10060 0.89220 0.85900 -0.41900
O 	O 	0.26260 0.88920 0.92190 -0.46800
C 	C 	0.60300 0.34100 0.15200 0.38300
C 	C 	0.55180 0.48990 0.15330 -0.08900
C 	C 	0.63570 0.60120 0.16780 0.03600
H 	H 	0.72550 0.58560 0.17700 0.04700
C 	C 	0.58370 0.73710 0.16870 -0.10400
C 	C 	0.44910 0.75830 0.15790 -0.01700
H 	H 	0.41490 0.84870 0.16010 0.05600
C 	C 	0.36390 0.64630 0.14370 -0.00600
C 	C 	0.41570 0.51540 0.14030 -0.00600
H 	H 	0.36030 0.44090 0.12930 0.05900
C 	C 	0.67390 0.86050 0.18110 0.34300
C 	C 	0.21900 0.67540 0.13140 0.08000
C 	C 	0.13070 0.67480 0.16490 -0.09100
C 	C 	0.99820 0.70850 0.14870 0.02600
H 	H 	0.93890 0.70740 0.17100 0.05800
C 	C 	0.95030 0.74370 0.10080 -0.10400
H 	H 	0.86200 0.76690 0.09160 0.06300
C 	C 	0.03920 0.74280 0.06740 0.07500
C 	C 	0.16920 0.70720 0.08380 -0.13200
H 	H 	0.22780 0.70440 0.06120 0.08000
C 	C 	0.17120 0.64720 0.21800 0.30600
C 	C 	0.99480 0.78700 0.01660 -0.02600
C 	C 	0.86230 0.81810 0.00050 -0.00300
H 	H 	0.80000 0.80350 0.02120 0.03800
C 	C 	0.82210 0.86920 0.95530 -0.07900
C 	C 	0.91250 0.89130 0.92320 0.02800
H 	H 	0.88430 0.92740 0.89260 0.05900
C 	C 	0.04440 0.85950 0.93700 -0.09500
C 	C 	0.08490 0.81100 0.98440 -0.00200
H 	H 	0.17410 0.79450 0.99440 0.04200
C 	C 	0.14660 0.88410 0.90420 0.37900
C 	C 	0.67910 0.90490 0.93790 0.31800
