data_crystal

_cell_length_a 10.16200
_cell_length_b 15.98600
_cell_length_c 23.97100
_cell_angle_alpha 90.00000
_cell_angle_beta  99.58200
_cell_angle_gamma 90.00000

_symmetry_space_group_name_	'P 1'
_symmetry_space_group_name_H-M	'P 1'

loop_
_symmetry_equiv_pos_as_xyz
  x,y,z

loop_
_atom_site_label
_atom_site_type_symbol
_atom_site_fract_x
_atom_site_fract_y
_atom_site_fract_z
_atom_site_charge
Co	Co	0.16900 0.49825 0.66578 1.19100
Co	Co	0.98648 0.61151 0.75450 1.20200
O 	O 	0.99510 0.44422 0.63900 -0.44300
O 	O 	0.90490 0.52730 0.69528 -0.47200
O 	O 	0.40640 0.52590 0.68027 -0.33500
O 	O 	0.29370 0.42929 0.62922 -0.39700
O 	O 	0.48660 0.17974 0.66629 -0.37100
O 	O 	0.64640 0.08930 0.68479 -0.38400
O 	O 	0.61340 0.97558 0.30258 -0.43400
O 	O 	0.70680 0.04886 0.24208 -0.47100
O 	O 	0.86140 0.33199 0.28078 -0.44300
O 	O 	0.85330 0.38731 0.36527 -0.44100
O 	O 	0.83420 0.68650 0.71040 -0.33100
N 	N 	0.69220 0.78880 0.68660 -0.11000
C 	C 	0.89870 0.46970 0.66071 0.39900
C 	C 	0.76710 0.42630 0.64447 -0.11700
C 	C 	0.76230 0.34960 0.61688 -0.00200
H 	H 	0.84050 0.32570 0.60890 0.04900
C 	C 	0.64130 0.30840 0.60116 -0.03300
C 	C 	0.52490 0.34590 0.61233 -0.01500
H 	H 	0.44340 0.31900 0.60170 0.06600
C 	C 	0.52900 0.42290 0.63904 -0.09100
C 	C 	0.65100 0.46200 0.65624 0.03000
H 	H 	0.65460 0.51250 0.67580 0.04000
C 	C 	0.40320 0.46280 0.65085 0.31800
C 	C 	0.63880 0.22730 0.56948 0.10400
C 	C 	0.67210 0.22940 0.51589 -0.17000
H 	H 	0.69030 0.28090 0.50090 0.09500
C 	C 	0.67970 0.15860 0.48350 0.10700
C 	C 	0.65720 0.08210 0.50787 -0.15900
H 	H 	0.66410 0.03300 0.48770 0.08900
C 	C 	0.62490 0.07790 0.56150 0.07800
H 	H 	0.60980 0.02610 0.57680 0.00600
C 	C 	0.61450 0.14960 0.59282 -0.13500
C 	C 	0.57970 0.13930 0.65217 0.33900
C 	C 	0.71090 0.16490 0.42457 -0.05900
C 	C 	0.76410 0.23840 0.40593 0.01700
H 	H 	0.78180 0.28310 0.43080 0.03900
C 	C 	0.79120 0.24650 0.35113 -0.12400
C 	C 	0.76500 0.17890 0.31413 0.05100
H 	H 	0.78400 0.18310 0.27760 0.02500
C 	C 	0.71100 0.10577 0.33121 -0.13300
C 	C 	0.68360 0.09890 0.38597 0.01300
H 	H 	0.64660 0.04970 0.39710 0.03400
C 	C 	0.83980 0.32720 0.33056 0.37000
C 	C 	0.67390 0.03680 0.28881 0.41600
C 	C 	0.79740 0.75850 0.71040 0.63600
C 	C 	0.59680 0.72750 0.66250 -0.43000
H 	H 	0.63360 0.67250 0.67010 0.29900
H 	H 	0.57550 0.73590 0.62230 0.15600
H 	H 	0.51720 0.73290 0.67890 0.13900
C 	C 	0.91410 0.82260 0.73140 -0.93500
H 	H 	0.93120 0.82360 0.77200 0.33000
H 	H 	0.88840 0.87740 0.71740 0.31100
H 	H 	0.99340 0.80550 0.71760 0.60500
C 	C 	0.65480 0.88020 0.69300 -0.72200
H 	H 	0.56870 0.89080 0.67090 0.09400
H 	H 	0.65210 0.89180 0.73210 0.14800
H 	H 	0.72000 0.91550 0.68010 0.18600
O 	O 	0.90540 0.72410 0.72060 -0.25200
N 	N 	0.77510 0.83550 0.70350 -0.08900
C 	C 	0.66810 0.71200 0.71780 -0.27500
H 	H 	0.64610 0.67170 0.68790 -0.07700
H 	H 	0.59650 0.75150 0.71640 0.15300
H 	H 	0.68140 0.68380 0.75360 0.12500
C 	C 	0.91480 0.87520 0.70540 0.14400
H 	H 	0.98130 0.83200 0.70980 -0.28900
H 	H 	0.93250 0.91330 0.73670 -0.07500
H 	H 	0.91720 0.90500 0.67080 -0.03300
H 	H 	0.67340 0.93870 0.69000 0.11000
H 	H 	0.60250 0.86100 0.65830 0.20600
H 	H 	0.60610 0.87140 0.72350 0.12700
Co	Co	0.33100 0.99825 0.83422 1.18900
Co	Co	0.51352 0.11151 0.74550 1.20100
O 	O 	0.50490 0.94422 0.86100 -0.44300
O 	O 	0.59510 0.02730 0.80472 -0.47000
O 	O 	0.09360 0.02590 0.81973 -0.33100
O 	O 	0.20630 0.92929 0.87078 -0.39600
O 	O 	0.01340 0.67974 0.83371 -0.37000
O 	O 	0.85360 0.58930 0.81521 -0.38500
O 	O 	0.88660 0.47558 0.19742 -0.43500
O 	O 	0.79320 0.54886 0.25792 -0.47100
O 	O 	0.63860 0.83199 0.21922 -0.44300
O 	O 	0.64670 0.88731 0.13473 -0.44000
O 	O 	0.66580 0.18650 0.78960 -0.33100
N 	N 	0.80780 0.28880 0.81340 -0.11000
C 	C 	0.60130 0.96970 0.83929 0.39600
C 	C 	0.73290 0.92630 0.85553 -0.11400
C 	C 	0.73770 0.84960 0.88312 -0.00300
H 	H 	0.65950 0.82570 0.89110 0.04900
C 	C 	0.85870 0.80840 0.89884 -0.03200
C 	C 	0.97510 0.84590 0.88767 -0.01700
H 	H 	0.05660 0.81900 0.89830 0.06700
C 	C 	0.97100 0.92290 0.86096 -0.08800
C 	C 	0.84900 0.96200 0.84376 0.02600
H 	H 	0.84540 0.01250 0.82420 0.04200
C 	C 	0.09680 0.96280 0.84915 0.31400
C 	C 	0.86120 0.72730 0.93052 0.10600
C 	C 	0.82790 0.72940 0.98411 -0.17600
H 	H 	0.80970 0.78090 0.99910 0.09600
C 	C 	0.82030 0.65860 0.01650 0.11400
C 	C 	0.84280 0.58210 0.99213 -0.16700
H 	H 	0.83590 0.53300 0.01230 0.09300
C 	C 	0.87510 0.57790 0.93850 0.08300
H 	H 	0.89020 0.52610 0.92320 0.00400
C 	C 	0.88550 0.64960 0.90718 -0.13800
C 	C 	0.92030 0.63930 0.84783 0.33900
C 	C 	0.78910 0.66490 0.07543 -0.06200
C 	C 	0.73590 0.73840 0.09407 0.01900
H 	H 	0.71820 0.78310 0.06920 0.03900
C 	C 	0.70880 0.74650 0.14887 -0.12500
C 	C 	0.73500 0.67890 0.18587 0.05200
H 	H 	0.71600 0.68310 0.22240 0.02500
C 	C 	0.78900 0.60577 0.16879 -0.13400
C 	C 	0.81640 0.59890 0.11403 0.01600
H 	H 	0.85340 0.54970 0.10290 0.03400
C 	C 	0.66020 0.82720 0.16944 0.37000
C 	C 	0.82610 0.53680 0.21119 0.41800
C 	C 	0.70260 0.25850 0.78960 0.63600
C 	C 	0.90320 0.22750 0.83750 -0.42900
H 	H 	0.86640 0.17250 0.82990 0.29800
H 	H 	0.92450 0.23590 0.87770 0.15600
H 	H 	0.98280 0.23290 0.82110 0.13800
C 	C 	0.58590 0.32260 0.76860 -0.93500
H 	H 	0.56880 0.32360 0.72800 0.33000
H 	H 	0.61160 0.37740 0.78260 0.31100
H 	H 	0.50660 0.30550 0.78240 0.60600
C 	C 	0.84520 0.38020 0.80700 -0.72100
H 	H 	0.93130 0.39080 0.82910 0.09400
H 	H 	0.84790 0.39180 0.76790 0.14800
H 	H 	0.78000 0.41550 0.81990 0.18600
O 	O 	0.59460 0.22410 0.77940 -0.25200
N 	N 	0.72490 0.33550 0.79650 -0.08900
C 	C 	0.83190 0.21200 0.78220 -0.27500
H 	H 	0.85390 0.17170 0.81210 -0.07700
H 	H 	0.90350 0.25150 0.78360 0.15300
H 	H 	0.81860 0.18380 0.74640 0.12500
C 	C 	0.58520 0.37520 0.79460 0.14400
H 	H 	0.51870 0.33200 0.79020 -0.29000
H 	H 	0.56750 0.41330 0.76330 -0.07500
H 	H 	0.58280 0.40500 0.82920 -0.03300
H 	H 	0.82660 0.43870 0.81000 0.11000
H 	H 	0.89750 0.36100 0.84170 0.20600
H 	H 	0.89390 0.37140 0.77650 0.12600
Co	Co	0.83100 0.50175 0.33422 1.19000
Co	Co	0.01352 0.38849 0.24550 1.20100
O 	O 	0.00490 0.55578 0.36100 -0.44400
O 	O 	0.09510 0.47270 0.30472 -0.47300
O 	O 	0.59360 0.47410 0.31973 -0.33500
O 	O 	0.70630 0.57071 0.37078 -0.39700
O 	O 	0.51340 0.82026 0.33371 -0.37100
O 	O 	0.35360 0.91070 0.31521 -0.38400
O 	O 	0.38660 0.02442 0.69742 -0.43400
O 	O 	0.29320 0.95114 0.75792 -0.47100
O 	O 	0.13860 0.66801 0.71922 -0.44300
O 	O 	0.14670 0.61269 0.63473 -0.44100
O 	O 	0.16580 0.31350 0.28960 -0.33100
N 	N 	0.30780 0.21120 0.31340 -0.11000
C 	C 	0.10130 0.53030 0.33929 0.39900
C 	C 	0.23290 0.57370 0.35553 -0.11700
C 	C 	0.23770 0.65040 0.38312 -0.00200
H 	H 	0.15950 0.67430 0.39110 0.04900
C 	C 	0.35870 0.69160 0.39884 -0.03300
C 	C 	0.47510 0.65410 0.38767 -0.01500
H 	H 	0.55660 0.68100 0.39830 0.06600
C 	C 	0.47100 0.57710 0.36096 -0.09100
C 	C 	0.34900 0.53800 0.34376 0.03000
H 	H 	0.34540 0.48750 0.32420 0.04000
C 	C 	0.59680 0.53720 0.34915 0.31800
C 	C 	0.36120 0.77270 0.43052 0.10400
C 	C 	0.32790 0.77060 0.48411 -0.17000
H 	H 	0.30970 0.71910 0.49910 0.09500
C 	C 	0.32030 0.84140 0.51650 0.10700
C 	C 	0.34280 0.91790 0.49213 -0.15900
H 	H 	0.33590 0.96700 0.51230 0.08900
C 	C 	0.37510 0.92210 0.43850 0.07800
H 	H 	0.39020 0.97390 0.42320 0.00600
C 	C 	0.38550 0.85040 0.40718 -0.13500
C 	C 	0.42030 0.86070 0.34783 0.33900
C 	C 	0.28910 0.83510 0.57543 -0.05900
C 	C 	0.23590 0.76160 0.59407 0.01700
H 	H 	0.21820 0.71690 0.56920 0.03900
C 	C 	0.20880 0.75350 0.64887 -0.12400
C 	C 	0.23500 0.82110 0.68587 0.05100
H 	H 	0.21600 0.81690 0.72240 0.02500
C 	C 	0.28900 0.89423 0.66879 -0.13300
C 	C 	0.31640 0.90110 0.61403 0.01300
H 	H 	0.35340 0.95030 0.60290 0.03400
C 	C 	0.16020 0.67280 0.66944 0.37000
C 	C 	0.32610 0.96320 0.71119 0.41600
C 	C 	0.20260 0.24150 0.28960 0.63600
C 	C 	0.40320 0.27250 0.33750 -0.43000
H 	H 	0.36640 0.32750 0.32990 0.29900
H 	H 	0.42450 0.26410 0.37770 0.15600
H 	H 	0.48280 0.26710 0.32110 0.13900
C 	C 	0.08590 0.17740 0.26860 -0.93500
H 	H 	0.06880 0.17640 0.22800 0.33000
H 	H 	0.11160 0.12260 0.28260 0.31100
H 	H 	0.00660 0.19450 0.28240 0.60500
C 	C 	0.34520 0.11980 0.30700 -0.72200
H 	H 	0.43130 0.10920 0.32910 0.09400
H 	H 	0.34790 0.10820 0.26790 0.14800
H 	H 	0.28000 0.08450 0.31990 0.18600
O 	O 	0.09460 0.27590 0.27940 -0.25200
N 	N 	0.22490 0.16450 0.29650 -0.08900
C 	C 	0.33190 0.28800 0.28220 -0.27500
H 	H 	0.35390 0.32830 0.31210 -0.07700
H 	H 	0.40350 0.24850 0.28360 0.15300
H 	H 	0.31860 0.31620 0.24640 0.12500
C 	C 	0.08520 0.12480 0.29460 0.14400
H 	H 	0.01870 0.16800 0.29020 -0.28900
H 	H 	0.06750 0.08670 0.26330 -0.07500
H 	H 	0.08280 0.09500 0.32920 -0.03300
H 	H 	0.32660 0.06130 0.31000 0.11000
H 	H 	0.39750 0.13900 0.34170 0.20600
H 	H 	0.39390 0.12860 0.27650 0.12700
Co	Co	0.66900 0.00175 0.16578 1.18900
Co	Co	0.48648 0.88849 0.25450 1.20100
O 	O 	0.49510 0.05578 0.13900 -0.44300
O 	O 	0.40490 0.97270 0.19528 -0.47000
O 	O 	0.90640 0.97410 0.18027 -0.33100
O 	O 	0.79370 0.07071 0.12922 -0.39600
O 	O 	0.98660 0.32026 0.16629 -0.37000
O 	O 	0.14640 0.41070 0.18479 -0.38500
O 	O 	0.11340 0.52442 0.80258 -0.43500
O 	O 	0.20680 0.45114 0.74208 -0.47100
O 	O 	0.36140 0.16801 0.78078 -0.44300
O 	O 	0.35330 0.11269 0.86527 -0.44000
O 	O 	0.33420 0.81350 0.21040 -0.33100
N 	N 	0.19220 0.71120 0.18660 -0.11000
C 	C 	0.39870 0.03030 0.16071 0.39600
C 	C 	0.26710 0.07370 0.14447 -0.11400
C 	C 	0.26230 0.15040 0.11688 -0.00300
H 	H 	0.34050 0.17430 0.10890 0.04900
C 	C 	0.14130 0.19160 0.10116 -0.03200
C 	C 	0.02490 0.15410 0.11233 -0.01700
H 	H 	0.94340 0.18100 0.10170 0.06700
C 	C 	0.02900 0.07710 0.13904 -0.08800
C 	C 	0.15100 0.03800 0.15624 0.02600
H 	H 	0.15460 0.98750 0.17580 0.04200
C 	C 	0.90320 0.03720 0.15085 0.31400
C 	C 	0.13880 0.27270 0.06948 0.10600
C 	C 	0.17210 0.27060 0.01589 -0.17600
H 	H 	0.19030 0.21910 0.00090 0.09600
C 	C 	0.17970 0.34140 0.98350 0.11400
C 	C 	0.15720 0.41790 0.00787 -0.16700
H 	H 	0.16410 0.46700 0.98770 0.09300
C 	C 	0.12490 0.42210 0.06150 0.08300
H 	H 	0.10980 0.47390 0.07680 0.00400
C 	C 	0.11450 0.35040 0.09282 -0.13800
C 	C 	0.07970 0.36070 0.15217 0.33900
C 	C 	0.21090 0.33510 0.92457 -0.06200
C 	C 	0.26410 0.26160 0.90593 0.01900
H 	H 	0.28180 0.21690 0.93080 0.03900
C 	C 	0.29120 0.25350 0.85113 -0.12500
C 	C 	0.26500 0.32110 0.81413 0.05200
H 	H 	0.28400 0.31690 0.77760 0.02500
C 	C 	0.21100 0.39423 0.83121 -0.13400
C 	C 	0.18360 0.40110 0.88597 0.01600
H 	H 	0.14660 0.45030 0.89710 0.03400
C 	C 	0.33980 0.17280 0.83056 0.37000
C 	C 	0.17390 0.46320 0.78881 0.41800
C 	C 	0.29740 0.74150 0.21040 0.63600
C 	C 	0.09680 0.77250 0.16250 -0.42900
H 	H 	0.13360 0.82750 0.17010 0.29800
H 	H 	0.07550 0.76410 0.12230 0.15600
H 	H 	0.01720 0.76710 0.17890 0.13800
C 	C 	0.41410 0.67740 0.23140 -0.93500
H 	H 	0.43120 0.67640 0.27200 0.33000
H 	H 	0.38840 0.62260 0.21740 0.31100
H 	H 	0.49340 0.69450 0.21760 0.60600
C 	C 	0.15480 0.61980 0.19300 -0.72100
H 	H 	0.06870 0.60920 0.17090 0.09400
H 	H 	0.15210 0.60820 0.23210 0.14800
H 	H 	0.22000 0.58450 0.18010 0.18600
O 	O 	0.40540 0.77590 0.22060 -0.25200
N 	N 	0.27510 0.66450 0.20350 -0.08900
C 	C 	0.16810 0.78800 0.21780 -0.27500
H 	H 	0.14610 0.82830 0.18790 -0.07700
H 	H 	0.09650 0.74850 0.21640 0.15300
H 	H 	0.18140 0.81620 0.25360 0.12500
C 	C 	0.41480 0.62480 0.20540 0.14400
H 	H 	0.48130 0.66800 0.20980 -0.29000
H 	H 	0.43250 0.58670 0.23670 -0.07500
H 	H 	0.41720 0.59500 0.17080 -0.03300
H 	H 	0.17340 0.56130 0.19000 0.11000
H 	H 	0.10250 0.63900 0.15830 0.20600
H 	H 	0.10610 0.62860 0.22350 0.12600
