data_crystal

_cell_length_a 16.02060
_cell_length_b 10.10700
_cell_length_c 18.53300
_cell_angle_alpha 90.00000
_cell_angle_beta  90.00000
_cell_angle_gamma 90.00000

_symmetry_space_group_name_	'P 1'
_symmetry_space_group_name_H-M	'P 1'

loop_
_symmetry_equiv_pos_as_xyz
  x,y,z

loop_
_atom_site_label
_atom_site_type_symbol
_atom_site_fract_x
_atom_site_fract_y
_atom_site_fract_z
_atom_site_charge
Ga	Ga	0.03840 0.68168 0.28205 2.10000
Ga	Ga	0.84971 0.83323 0.32400 2.08900
Ga	Ga	0.00914 0.65238 0.09228 2.08700
P 	P 	0.06094 0.37850 0.31604 0.61300
P 	P 	0.18386 0.64830 0.16842 0.67600
P 	P 	0.01195 0.85790 0.42263 0.64800
F 	F 	0.00310 0.58850 0.19520 -0.84700
F 	F 	0.91990 0.66920 0.31050 -0.78300
O 	O 	0.05910 0.52400 0.33930 -0.47100
O 	O 	0.14370 0.35050 0.27630 -0.56000
O 	O 	0.98660 0.34610 0.26810 -0.57000
O 	O 	0.05990 0.29580 0.38570 -0.53100
O 	O 	0.15120 0.68960 0.24260 -0.54200
O 	O 	0.20780 0.50160 0.16740 -0.53800
O 	O 	0.12180 0.67970 0.10740 -0.59500
O 	O 	0.26160 0.72860 0.14960 -0.54600
O 	O 	0.06520 0.78440 0.36680 -0.50300
O 	O 	0.92020 0.87170 0.40030 -0.64200
O 	O 	0.01770 0.78370 0.49420 -0.51000
O 	O 	0.04790 0.99840 0.43200 -0.58000
Ga	Ga	0.46160 0.31832 0.78205 2.10100
Ga	Ga	0.65029 0.16677 0.82400 2.09000
Ga	Ga	0.49086 0.34762 0.59228 2.08900
P 	P 	0.43906 0.62150 0.81604 0.61400
P 	P 	0.31614 0.35170 0.66842 0.67700
P 	P 	0.48805 0.14210 0.92263 0.65100
F 	F 	0.49690 0.41150 0.69520 -0.84600
F 	F 	0.58010 0.33080 0.81050 -0.78600
O 	O 	0.44090 0.47600 0.83930 -0.47100
O 	O 	0.35630 0.64950 0.77630 -0.56000
O 	O 	0.51340 0.65390 0.76810 -0.57300
O 	O 	0.44010 0.70420 0.88570 -0.53200
O 	O 	0.34880 0.31040 0.74260 -0.54100
O 	O 	0.29220 0.49840 0.66740 -0.53700
O 	O 	0.37820 0.32030 0.60740 -0.59300
O 	O 	0.23840 0.27140 0.64960 -0.54500
O 	O 	0.43480 0.21560 0.86680 -0.50200
O 	O 	0.57980 0.12830 0.90030 -0.64800
O 	O 	0.48230 0.21630 0.99420 -0.51200
O 	O 	0.45210 0.00160 0.93200 -0.57800
Ga	Ga	0.96160 0.18168 0.21795 2.10100
Ga	Ga	0.15029 0.33323 0.17600 2.09000
Ga	Ga	0.99086 0.15238 0.40772 2.08900
P 	P 	0.93906 0.87850 0.18396 0.62200
P 	P 	0.81614 0.14830 0.33158 0.67700
P 	P 	0.98805 0.35790 0.07737 0.65500
F 	F 	0.99690 0.08850 0.30480 -0.84600
F 	F 	0.08010 0.16920 0.18950 -0.78500
O 	O 	0.94090 0.02400 0.16070 -0.47400
O 	O 	0.85630 0.85050 0.22370 -0.56000
O 	O 	0.01340 0.84610 0.23190 -0.57800
O 	O 	0.94010 0.79580 0.11430 -0.53000
O 	O 	0.84880 0.18960 0.25740 -0.54200
O 	O 	0.79220 0.00160 0.33260 -0.54000
O 	O 	0.87820 0.17970 0.39260 -0.59300
O 	O 	0.73840 0.22860 0.35040 -0.54500
O 	O 	0.93480 0.28440 0.13320 -0.50200
O 	O 	0.07980 0.37170 0.09970 -0.64900
O 	O 	0.98230 0.28370 0.00580 -0.50900
O 	O 	0.95210 0.49840 0.06800 -0.57500
Ga	Ga	0.53840 0.81832 0.71795 2.10100
Ga	Ga	0.34971 0.66677 0.67600 2.09000
Ga	Ga	0.50914 0.84762 0.90772 2.08900
P 	P 	0.56094 0.12150 0.68396 0.61400
P 	P 	0.68386 0.85170 0.83158 0.67700
P 	P 	0.51195 0.64210 0.57737 0.65100
F 	F 	0.50310 0.91150 0.80480 -0.84600
F 	F 	0.41990 0.83080 0.68950 -0.78600
O 	O 	0.55910 0.97600 0.66070 -0.47100
O 	O 	0.64370 0.14950 0.72370 -0.56100
O 	O 	0.48660 0.15390 0.73190 -0.57300
O 	O 	0.55990 0.20420 0.61430 -0.53300
O 	O 	0.65120 0.81040 0.75740 -0.54100
O 	O 	0.70780 0.99840 0.83260 -0.53700
O 	O 	0.62180 0.82030 0.89260 -0.59300
O 	O 	0.76160 0.77140 0.85040 -0.54600
O 	O 	0.56520 0.71560 0.63320 -0.50200
O 	O 	0.42020 0.62830 0.59970 -0.64700
O 	O 	0.51770 0.71630 0.50580 -0.51100
O 	O 	0.54790 0.50160 0.56800 -0.57700
Ga	Ga	0.96160 0.31832 0.71795 2.10100
Ga	Ga	0.15029 0.16677 0.67600 2.09000
Ga	Ga	0.99086 0.34762 0.90772 2.08800
P 	P 	0.93906 0.62150 0.68396 0.61400
P 	P 	0.81614 0.35170 0.83158 0.67700
P 	P 	0.98805 0.14210 0.57737 0.64900
F 	F 	0.99690 0.41150 0.80480 -0.84700
F 	F 	0.08010 0.33080 0.68950 -0.78300
O 	O 	0.94090 0.47600 0.66070 -0.47100
O 	O 	0.85630 0.64950 0.72370 -0.56000
O 	O 	0.01340 0.65390 0.73190 -0.57000
O 	O 	0.94010 0.70420 0.61430 -0.53100
O 	O 	0.84880 0.31040 0.75740 -0.54200
O 	O 	0.79220 0.49840 0.83260 -0.53800
O 	O 	0.87820 0.32030 0.89260 -0.59500
O 	O 	0.73840 0.27140 0.85040 -0.54600
O 	O 	0.93480 0.21560 0.63320 -0.50300
O 	O 	0.07980 0.12830 0.59970 -0.64200
O 	O 	0.98230 0.21630 0.50580 -0.51000
O 	O 	0.95210 0.00160 0.56800 -0.58000
Ga	Ga	0.53840 0.68168 0.21795 2.10100
Ga	Ga	0.34971 0.83323 0.17600 2.09000
Ga	Ga	0.50914 0.65238 0.40772 2.08900
P 	P 	0.56094 0.37850 0.18396 0.61400
P 	P 	0.68386 0.64830 0.33158 0.67700
P 	P 	0.51195 0.85790 0.07737 0.65100
F 	F 	0.50310 0.58850 0.30480 -0.84600
F 	F 	0.41990 0.66920 0.18950 -0.78600
O 	O 	0.55910 0.52400 0.16070 -0.47100
O 	O 	0.64370 0.35050 0.22370 -0.56000
O 	O 	0.48660 0.34610 0.23190 -0.57300
O 	O 	0.55990 0.29580 0.11430 -0.53200
O 	O 	0.65120 0.68960 0.25740 -0.54100
O 	O 	0.70780 0.50160 0.33260 -0.53700
O 	O 	0.62180 0.67970 0.39260 -0.59300
O 	O 	0.76160 0.72860 0.35040 -0.54500
O 	O 	0.56520 0.78440 0.13320 -0.50200
O 	O 	0.42020 0.87170 0.09970 -0.64800
O 	O 	0.51770 0.78370 0.00580 -0.51200
O 	O 	0.54790 0.99840 0.06800 -0.57800
Ga	Ga	0.03840 0.81832 0.78205 2.10100
Ga	Ga	0.84971 0.66677 0.82400 2.09000
Ga	Ga	0.00914 0.84762 0.59228 2.08900
P 	P 	0.06094 0.12150 0.81604 0.62200
P 	P 	0.18386 0.85170 0.66842 0.67700
P 	P 	0.01195 0.64210 0.92263 0.65500
F 	F 	0.00310 0.91150 0.69520 -0.84600
F 	F 	0.91990 0.83080 0.81050 -0.78500
O 	O 	0.05910 0.97600 0.83930 -0.47400
O 	O 	0.14370 0.14950 0.77630 -0.56000
O 	O 	0.98660 0.15390 0.76810 -0.57800
O 	O 	0.05990 0.20420 0.88570 -0.53000
O 	O 	0.15120 0.81040 0.74260 -0.54200
O 	O 	0.20780 0.99840 0.66740 -0.54000
O 	O 	0.12180 0.82030 0.60740 -0.59300
O 	O 	0.26160 0.77140 0.64960 -0.54500
O 	O 	0.06520 0.71560 0.86680 -0.50200
O 	O 	0.92020 0.62830 0.90030 -0.64900
O 	O 	0.01770 0.71630 0.99420 -0.50900
O 	O 	0.04790 0.50160 0.93200 -0.57500
Ga	Ga	0.46160 0.18168 0.28205 2.10100
Ga	Ga	0.65029 0.33323 0.32400 2.09000
Ga	Ga	0.49086 0.15238 0.09228 2.08900
P 	P 	0.43906 0.87850 0.31604 0.61400
P 	P 	0.31614 0.14830 0.16842 0.67700
P 	P 	0.48805 0.35790 0.42263 0.65100
F 	F 	0.49690 0.08850 0.19520 -0.84600
F 	F 	0.58010 0.16920 0.31050 -0.78600
O 	O 	0.44090 0.02400 0.33930 -0.47100
O 	O 	0.35630 0.85050 0.27630 -0.56100
O 	O 	0.51340 0.84610 0.26810 -0.57300
O 	O 	0.44010 0.79580 0.38570 -0.53300
O 	O 	0.34880 0.18960 0.24260 -0.54100
O 	O 	0.29220 0.00160 0.16740 -0.53700
O 	O 	0.37820 0.17970 0.10740 -0.59300
O 	O 	0.23840 0.22860 0.14960 -0.54600
O 	O 	0.43480 0.28440 0.36680 -0.50200
O 	O 	0.57980 0.37170 0.40030 -0.64700
O 	O 	0.48230 0.28370 0.49420 -0.51100
O 	O 	0.45210 0.49840 0.43200 -0.57700
