data_crystal

_cell_length_a 8.98640
_cell_length_b 27.78850
_cell_length_c 10.95300
_cell_angle_alpha 90.00000
_cell_angle_beta  99.19600
_cell_angle_gamma 90.00000

_symmetry_space_group_name_	'P 1'
_symmetry_space_group_name_H-M	'P 1'

loop_
_symmetry_equiv_pos_as_xyz
  x,y,z

loop_
_atom_site_label
_atom_site_type_symbol
_atom_site_fract_x
_atom_site_fract_y
_atom_site_fract_z
_atom_site_charge
Mo	Mo	0.58569 0.64903 0.87405 1.05800
O 	O 	0.66937 0.18396 0.41340 -0.41200
O 	O 	0.43090 0.61583 0.90657 -0.54100
N 	N 	0.37160 0.57232 0.13399 -0.23400
C 	C 	0.33800 0.52701 0.16040 0.07000
H 	H 	0.25140 0.51330 0.11620 -0.01500
C 	C 	0.42470 0.49932 0.24960 -0.12500
H 	H 	0.39770 0.46760 0.26210 0.05000
C 	C 	0.55240 0.51900 0.32070 0.05300
C 	C 	0.58580 0.56648 0.29510 -0.13600
H 	H 	0.66910 0.58160 0.34060 0.04800
C 	C 	0.49530 0.59108 0.20240 0.06200
H 	H 	0.52140 0.62260 0.18620 -0.03900
C 	C 	0.65370 0.49093 0.41620 0.05900
C 	C 	0.65020 0.44084 0.41420 -0.10000
H 	H 	0.58140 0.42470 0.35580 0.03600
C 	C 	0.72120 0.33597 0.38930 -0.12800
H 	H 	0.70470 0.35250 0.31460 0.03700
C 	C 	0.71670 0.28610 0.38940 -0.00100
H 	H 	0.69140 0.26950 0.31520 -0.00200
Mo	Mo	0.08569 0.14903 0.37405 1.04300
O 	O 	0.16937 0.68396 0.91340 -0.38300
O 	O 	0.93090 0.11583 0.40657 -0.55400
N 	N 	0.87160 0.07232 0.63399 -0.23500
C 	C 	0.83800 0.02701 0.66040 0.07600
H 	H 	0.75140 0.01330 0.61620 -0.01200
C 	C 	0.92470 0.99932 0.74960 -0.12700
H 	H 	0.89770 0.96760 0.76210 0.05300
C 	C 	0.05240 0.01900 0.82070 0.06100
C 	C 	0.08580 0.06648 0.79510 -0.15400
H 	H 	0.16910 0.08160 0.84060 0.06100
C 	C 	0.99530 0.09108 0.70240 0.09200
H 	H 	0.02140 0.12260 0.68620 -0.04900
C 	C 	0.15370 0.99093 0.91620 0.07100
C 	C 	0.15020 0.94084 0.91420 -0.06500
H 	H 	0.08140 0.92470 0.85580 0.03000
C 	C 	0.22120 0.83597 0.88930 -0.10400
H 	H 	0.20470 0.85250 0.81460 0.03300
C 	C 	0.21670 0.78610 0.88940 0.02800
H 	H 	0.19140 0.76950 0.81520 -0.00700
Mo	Mo	0.91431 0.64903 0.12595 1.04000
O 	O 	0.83063 0.18396 0.58660 -0.40900
O 	O 	0.06910 0.61583 0.09343 -0.56000
N 	N 	0.12840 0.57232 0.86601 -0.22700
C 	C 	0.16200 0.52701 0.83960 0.07500
H 	H 	0.24860 0.51330 0.88380 -0.00400
C 	C 	0.07530 0.49932 0.75040 -0.12500
H 	H 	0.10230 0.46760 0.73790 0.05200
C 	C 	0.94760 0.51900 0.67930 0.05800
C 	C 	0.91420 0.56648 0.70490 -0.14700
H 	H 	0.83090 0.58160 0.65940 0.05300
C 	C 	0.00470 0.59108 0.79760 0.08300
H 	H 	0.97860 0.62260 0.81380 -0.04100
C 	C 	0.84630 0.49093 0.58380 0.05800
C 	C 	0.84980 0.44084 0.58580 -0.09900
H 	H 	0.91860 0.42470 0.64420 0.03800
C 	C 	0.77880 0.33597 0.61070 -0.12700
H 	H 	0.79530 0.35250 0.68540 0.03800
C 	C 	0.78330 0.28610 0.61060 -0.00100
H 	H 	0.80860 0.26950 0.68480 0.00200
Mo	Mo	0.41431 0.14903 0.62595 1.04800
O 	O 	0.33063 0.68396 0.08660 -0.41100
O 	O 	0.56910 0.11583 0.59343 -0.55600
N 	N 	0.62840 0.07232 0.36601 -0.23100
C 	C 	0.66200 0.02701 0.33960 0.07200
H 	H 	0.74860 0.01330 0.38380 -0.01000
C 	C 	0.57530 0.99932 0.25040 -0.12500
H 	H 	0.60230 0.96760 0.23790 0.05000
C 	C 	0.44760 0.01900 0.17930 0.05200
C 	C 	0.41420 0.06648 0.20490 -0.13600
H 	H 	0.33090 0.08160 0.15940 0.04500
C 	C 	0.50470 0.09108 0.29760 0.06300
H 	H 	0.47860 0.12260 0.31380 -0.03700
C 	C 	0.34630 0.99093 0.08380 0.05100
C 	C 	0.34980 0.94084 0.08580 -0.09200
H 	H 	0.41860 0.92470 0.14420 0.03200
C 	C 	0.27880 0.83597 0.11070 -0.12900
H 	H 	0.29530 0.85250 0.18540 0.03700
C 	C 	0.28330 0.78610 0.11060 0.00300
H 	H 	0.30860 0.76950 0.18480 -0.00300
Ni	Ni	0.25000 0.61722 -0.00000 1.08600
Ni	Ni	0.75000 0.11722 0.50000 1.09800
O 	O 	0.75000 0.63799 -0.00000 -0.64100
O 	O 	0.25000 0.13799 0.50000 -0.62300
N 	N 	0.75000 0.51590 0.50000 -0.13200
C 	C 	0.75000 0.41499 0.50000 0.03100
C 	C 	0.75000 0.36161 0.50000 0.02600
C 	C 	0.75000 0.26070 0.50000 -0.12500
C 	C 	0.75000 0.20669 0.50000 0.26000
N 	N 	0.25000 0.01590 -0.00000 -0.14700
C 	C 	0.25000 0.91499 -0.00000 0.00200
C 	C 	0.25000 0.86161 -0.00000 0.00600
C 	C 	0.25000 0.76070 -0.00000 -0.15100
C 	C 	0.25000 0.70669 -0.00000 0.23300
Mo	Mo	0.41431 0.35097 0.12595 1.04300
O 	O 	0.33063 0.81604 0.58660 -0.41100
O 	O 	0.56910 0.38417 0.09343 -0.56400
N 	N 	0.62840 0.42768 0.86601 -0.22300
C 	C 	0.66200 0.47299 0.83960 0.07200
H 	H 	0.74860 0.48670 0.88380 -0.00200
C 	C 	0.57530 0.50068 0.75040 -0.12000
H 	H 	0.60230 0.53240 0.73790 0.05200
C 	C 	0.44760 0.48100 0.67930 0.05200
C 	C 	0.41420 0.43352 0.70490 -0.13300
H 	H 	0.33090 0.41840 0.65940 0.04800
C 	C 	0.50470 0.40892 0.79760 0.06500
H 	H 	0.47860 0.37740 0.81380 -0.03200
C 	C 	0.34630 0.50907 0.58380 0.06000
C 	C 	0.34980 0.55916 0.58580 -0.10000
H 	H 	0.41860 0.57530 0.64420 0.03700
C 	C 	0.27880 0.66403 0.61070 -0.12700
H 	H 	0.29530 0.64750 0.68540 0.03800
C 	C 	0.28330 0.71390 0.61060 -0.00100
H 	H 	0.30860 0.73050 0.68480 0.00100
Mo	Mo	0.91431 0.85097 0.62595 1.04500
O 	O 	0.83063 0.31604 0.08660 -0.40900
O 	O 	0.06910 0.88417 0.59343 -0.55300
N 	N 	0.12840 0.92768 0.36601 -0.23500
C 	C 	0.16200 0.97299 0.33960 0.07500
H 	H 	0.24860 0.98670 0.38380 -0.01100
C 	C 	0.07530 0.00068 0.25040 -0.12900
H 	H 	0.10230 0.03240 0.23790 0.05100
C 	C 	0.94760 0.98100 0.17930 0.05800
C 	C 	0.91420 0.93352 0.20490 -0.15700
H 	H 	0.83090 0.91840 0.15940 0.05200
C 	C 	0.00470 0.90892 0.29760 0.09000
H 	H 	0.97860 0.87740 0.31380 -0.05100
C 	C 	0.84630 0.00907 0.08380 0.04900
C 	C 	0.84980 0.05916 0.08580 -0.09100
H 	H 	0.91860 0.07530 0.14420 0.03300
C 	C 	0.77880 0.16403 0.11070 -0.12900
H 	H 	0.79530 0.14750 0.18540 0.03700
C 	C 	0.78330 0.21390 0.11060 0.00300
H 	H 	0.80860 0.23050 0.18480 -0.00200
Mo	Mo	0.08569 0.35097 0.87405 1.05300
O 	O 	0.16937 0.81604 0.41340 -0.41100
O 	O 	0.93090 0.38417 0.90657 -0.53900
N 	N 	0.87160 0.42768 0.13399 -0.23800
C 	C 	0.83800 0.47299 0.16040 0.07200
H 	H 	0.75140 0.48670 0.11620 -0.01700
C 	C 	0.92470 0.50068 0.24960 -0.13000
H 	H 	0.89770 0.53240 0.26210 0.05100
C 	C 	0.05240 0.48100 0.32070 0.05900
C 	C 	0.08580 0.43352 0.29510 -0.14900
H 	H 	0.16910 0.41840 0.34060 0.05300
C 	C 	0.99530 0.40892 0.20240 0.07900
H 	H 	0.02140 0.37740 0.18620 -0.04700
C 	C 	0.15370 0.50907 0.41620 0.05700
C 	C 	0.15020 0.55916 0.41420 -0.09900
H 	H 	0.08140 0.57530 0.35580 0.03700
C 	C 	0.22120 0.66403 0.38930 -0.12700
H 	H 	0.20470 0.64750 0.31460 0.03700
C 	C 	0.21670 0.71390 0.38940 -0.00100
H 	H 	0.19140 0.73050 0.31520 -0.00100
Mo	Mo	0.58569 0.85097 0.37405 1.04500
O 	O 	0.66937 0.31604 0.91340 -0.38300
O 	O 	0.43090 0.88417 0.40657 -0.55700
N 	N 	0.37160 0.92768 0.63399 -0.23000
C 	C 	0.33800 0.97299 0.66040 0.07200
H 	H 	0.25140 0.98670 0.61620 -0.01000
C 	C 	0.42470 0.00068 0.74960 -0.12300
H 	H 	0.39770 0.03240 0.76210 0.05300
C 	C 	0.55240 0.98100 0.82070 0.05500
C 	C 	0.58580 0.93352 0.79510 -0.13300
H 	H 	0.66910 0.91840 0.84060 0.05400
C 	C 	0.49530 0.90892 0.70240 0.06500
H 	H 	0.52140 0.87740 0.68620 -0.03500
C 	C 	0.65370 0.00907 0.91620 0.07300
C 	C 	0.65020 0.05916 0.91420 -0.06400
H 	H 	0.58140 0.07530 0.85580 0.02900
C 	C 	0.72120 0.16403 0.88930 -0.10300
H 	H 	0.70470 0.14750 0.81460 0.03300
C 	C 	0.71670 0.21390 0.88940 0.02900
H 	H 	0.69140 0.23050 0.81520 -0.00800
Ni	Ni	0.75000 0.38278 -0.00000 1.08600
Ni	Ni	0.25000 0.88278 0.50000 1.09800
O 	O 	0.25000 0.36201 -0.00000 -0.63900
O 	O 	0.75000 0.86201 0.50000 -0.62300
N 	N 	0.25000 0.48410 0.50000 -0.13200
C 	C 	0.25000 0.58501 0.50000 0.03100
C 	C 	0.25000 0.63839 0.50000 0.02600
C 	C 	0.25000 0.73930 0.50000 -0.12500
C 	C 	0.25000 0.79331 0.50000 0.26000
N 	N 	0.75000 0.98410 -0.00000 -0.14800
C 	C 	0.75000 0.08501 -0.00000 0.00000
C 	C 	0.75000 0.13839 -0.00000 0.00500
C 	C 	0.75000 0.23930 -0.00000 -0.15300
C 	C 	0.75000 0.29331 -0.00000 0.23100
