data_crystal

_cell_length_a 14.02160
_cell_length_b 14.02160
_cell_length_c 16.68100
_cell_angle_alpha 80.93100
_cell_angle_beta  80.93100
_cell_angle_gamma 61.52740

_symmetry_space_group_name_	'P 1'
_symmetry_space_group_name_H-M	'P 1'

loop_
_symmetry_equiv_pos_as_xyz
  x,y,z

loop_
_atom_site_label
_atom_site_type_symbol
_atom_site_fract_x
_atom_site_fract_y
_atom_site_fract_z
_atom_site_charge
Fe	Fe	0.83852 0.78084 0.41854 1.17600
Fe	Fe	0.21916 0.16148 0.08146 1.17700
Fe	Fe	0.16148 0.21916 0.58146 1.17600
Fe	Fe	0.78084 0.83852 0.91854 1.17700
Ni	Ni	0.95421 0.59069 0.69327 1.05900
Ni	Ni	0.40931 0.04579 0.80673 1.05800
Ni	Ni	0.04579 0.40931 0.30673 1.05900
Ni	Ni	0.59069 0.95421 0.19327 1.05800
Ni	Ni	0.10595 0.89405 0.25000 1.03700
Ni	Ni	0.89405 0.10595 0.75000 1.03700
H 	H 	0.07630 0.66950 0.71790 0.08900
H 	H 	0.13470 0.59430 0.64800 0.10200
H 	H 	0.21970 0.54570 0.77360 -0.14900
H 	H 	0.22500 0.45340 0.72980 -0.17600
H 	H 	0.19520 0.42980 0.86060 0.34500
H 	H 	0.09070 0.54130 0.85960 0.30400
H 	H 	0.05550 0.40570 0.89580 -0.11100
H 	H 	0.10920 0.35940 0.81260 -0.09000
H 	H 	0.92260 0.52160 0.85770 0.04000
H 	H 	0.89590 0.43330 0.88250 -0.30800
H 	H 	0.94690 0.37030 0.80550 -0.38400
H 	H 	0.75850 0.52810 0.83890 0.84600
H 	H 	0.79330 0.41550 0.80960 0.66900
H 	H 	0.68400 0.57940 0.72970 -0.38300
H 	H 	0.77120 0.47840 0.68680 -0.35400
H 	H 	0.75370 0.67430 0.67550 0.11200
H 	H 	0.81650 0.58470 0.61590 0.11900
H 	H 	0.22180 0.93100 0.32970 0.10400
H 	H 	0.17500 0.86220 0.38770 0.08200
H 	H 	0.14060 0.04440 0.39490 -0.23200
H 	H 	0.08470 0.97970 0.44700 -0.21300
H 	H 	0.00780 0.15620 0.36980 0.39000
H 	H 	0.95160 0.09420 0.42560 0.43500
H 	H 	0.86360 0.11620 0.34100 -0.17000
H 	H 	0.91750 0.18090 0.28610 -0.22700
H 	H 	0.33050 0.92370 0.78210 0.08900
H 	H 	0.40570 0.86530 0.85200 0.10300
H 	H 	0.45430 0.78030 0.72640 -0.14900
H 	H 	0.54660 0.77500 0.77020 -0.17700
H 	H 	0.57020 0.80480 0.63940 0.34600
H 	H 	0.45870 0.90930 0.64040 0.30500
H 	H 	0.59430 0.94450 0.60420 -0.11200
H 	H 	0.64060 0.89080 0.68740 -0.09000
H 	H 	0.47840 0.07740 0.64230 0.04000
H 	H 	0.56670 0.10410 0.61750 -0.30800
H 	H 	0.62970 0.05310 0.69450 -0.38500
H 	H 	0.47190 0.24150 0.66110 0.84700
H 	H 	0.58450 0.20670 0.69040 0.67000
H 	H 	0.42060 0.31600 0.77030 -0.38400
H 	H 	0.52160 0.22880 0.81320 -0.35500
H 	H 	0.32570 0.24630 0.82450 0.11200
H 	H 	0.41530 0.18350 0.88410 0.11800
H 	H 	0.06900 0.77820 0.17030 0.10200
H 	H 	0.13780 0.82500 0.11230 0.07900
H 	H 	0.95560 0.85940 0.10510 -0.21400
H 	H 	0.02030 0.91530 0.05300 -0.19800
H 	H 	0.84380 0.99220 0.13020 0.36500
H 	H 	0.90580 0.04840 0.07440 0.41100
H 	H 	0.88380 0.13640 0.15900 -0.15800
H 	H 	0.81910 0.08250 0.21390 -0.21200
H 	H 	0.92370 0.33050 0.28210 0.08900
H 	H 	0.86530 0.40570 0.35200 0.10200
H 	H 	0.78030 0.45430 0.22640 -0.14900
H 	H 	0.77500 0.54660 0.27020 -0.17600
H 	H 	0.80480 0.57020 0.13940 0.34500
H 	H 	0.90930 0.45870 0.14040 0.30400
H 	H 	0.94450 0.59430 0.10420 -0.11100
H 	H 	0.89080 0.64060 0.18740 -0.09000
H 	H 	0.07740 0.47840 0.14230 0.04000
H 	H 	0.10410 0.56670 0.11750 -0.30800
H 	H 	0.05310 0.62970 0.19450 -0.38400
H 	H 	0.24150 0.47190 0.16110 0.84600
H 	H 	0.20670 0.58450 0.19040 0.66900
H 	H 	0.31600 0.42060 0.27030 -0.38300
H 	H 	0.22880 0.52160 0.31320 -0.35400
H 	H 	0.24630 0.32570 0.32450 0.11200
H 	H 	0.18350 0.41530 0.38410 0.11900
H 	H 	0.77820 0.06900 0.67030 0.10400
H 	H 	0.82500 0.13780 0.61230 0.08200
H 	H 	0.85940 0.95560 0.60510 -0.23200
H 	H 	0.91530 0.02030 0.55300 -0.21300
H 	H 	0.99220 0.84380 0.63020 0.39000
H 	H 	0.04840 0.90580 0.57440 0.43500
H 	H 	0.13640 0.88380 0.65900 -0.17000
H 	H 	0.08250 0.81910 0.71390 -0.22700
H 	H 	0.66950 0.07630 0.21790 0.08900
H 	H 	0.59430 0.13470 0.14800 0.10300
H 	H 	0.54570 0.21970 0.27360 -0.14900
H 	H 	0.45340 0.22500 0.22980 -0.17700
H 	H 	0.42980 0.19520 0.36060 0.34600
H 	H 	0.54130 0.09070 0.35960 0.30500
H 	H 	0.40570 0.05550 0.39580 -0.11200
H 	H 	0.35940 0.10920 0.31260 -0.09000
H 	H 	0.52160 0.92260 0.35770 0.04000
H 	H 	0.43330 0.89590 0.38250 -0.30800
H 	H 	0.37030 0.94690 0.30550 -0.38500
H 	H 	0.52810 0.75850 0.33890 0.84700
H 	H 	0.41550 0.79330 0.30960 0.67000
H 	H 	0.57940 0.68400 0.22970 -0.38400
H 	H 	0.47840 0.77120 0.18680 -0.35500
H 	H 	0.67430 0.75370 0.17550 0.11200
H 	H 	0.58470 0.81650 0.11590 0.11800
H 	H 	0.93100 0.22180 0.82970 0.10200
H 	H 	0.86220 0.17500 0.88770 0.07900
H 	H 	0.04440 0.14060 0.89490 -0.21400
H 	H 	0.97970 0.08470 0.94700 -0.19800
H 	H 	0.15620 0.00780 0.86980 0.36500
H 	H 	0.09420 0.95160 0.92560 0.41100
H 	H 	0.11620 0.86360 0.84100 -0.15800
H 	H 	0.18090 0.91750 0.78610 -0.21200
C 	C 	0.90140 0.72880 0.52120 -0.20900
C 	C 	0.95850 0.80230 0.36560 -0.21700
C 	C 	0.91480 0.63440 0.38720 -0.19400
C 	C 	0.76520 0.93040 0.44550 -0.22400
C 	C 	0.71660 0.75500 0.46510 -0.23100
C 	C 	0.77150 0.83290 0.31830 -0.20600
C 	C 	0.17500 0.51500 0.75800 0.65200
C 	C 	0.14100 0.48100 0.82700 -1.00000
C 	C 	0.07200 0.43200 0.83900 0.45900
C 	C 	0.89530 0.44330 0.81800 1.24500
C 	C 	0.79400 0.48600 0.79900 -2.32700
C 	C 	0.76160 0.53560 0.72200 1.33100
C 	C 	0.08860 0.01860 0.39100 0.79700
C 	C 	0.99270 0.09470 0.37430 -1.32000
C 	C 	0.93630 0.10870 0.31010 0.79500
C 	C 	0.27120 0.09860 0.97880 -0.21200
C 	C 	0.19770 0.04150 0.13440 -0.21400
C 	C 	0.36560 0.08520 0.11280 -0.19300
C 	C 	0.06960 0.23480 0.05450 -0.22500
C 	C 	0.24500 0.28340 0.03490 -0.23100
C 	C 	0.16710 0.22850 0.18170 -0.20600
C 	C 	0.48500 0.82500 0.74200 0.65400
C 	C 	0.51900 0.85900 0.67300 -1.00300
C 	C 	0.56800 0.92800 0.66100 0.46000
C 	C 	0.55670 0.10470 0.68200 1.24700
C 	C 	0.51400 0.20600 0.70100 -2.33100
C 	C 	0.46440 0.23840 0.77800 1.33300
C 	C 	0.98140 0.91140 0.10900 0.73900
C 	C 	0.90530 0.00730 0.12570 -1.23800
C 	C 	0.89130 0.06370 0.18990 0.74800
C 	C 	0.09860 0.27120 0.47880 -0.20900
C 	C 	0.04150 0.19770 0.63440 -0.21700
C 	C 	0.08520 0.36560 0.61280 -0.19400
C 	C 	0.23480 0.06960 0.55450 -0.22400
C 	C 	0.28340 0.24500 0.53490 -0.23100
C 	C 	0.22850 0.16710 0.68170 -0.20600
C 	C 	0.82500 0.48500 0.24200 0.65200
C 	C 	0.85900 0.51900 0.17300 -1.00000
C 	C 	0.92800 0.56800 0.16100 0.45900
C 	C 	0.10470 0.55670 0.18200 1.24500
C 	C 	0.20600 0.51400 0.20100 -2.32700
C 	C 	0.23840 0.46440 0.27800 1.33100
C 	C 	0.91140 0.98140 0.60900 0.79700
C 	C 	0.00730 0.90530 0.62570 -1.32000
C 	C 	0.06370 0.89130 0.68990 0.79500
C 	C 	0.72880 0.90140 0.02120 -0.21200
C 	C 	0.80230 0.95850 0.86560 -0.21400
C 	C 	0.63440 0.91480 0.88720 -0.19300
C 	C 	0.93040 0.76520 0.94550 -0.22500
C 	C 	0.75500 0.71660 0.96510 -0.23100
C 	C 	0.83290 0.77150 0.81830 -0.20600
C 	C 	0.51500 0.17500 0.25800 0.65400
C 	C 	0.48100 0.14100 0.32700 -1.00300
C 	C 	0.43200 0.07200 0.33900 0.46000
C 	C 	0.44330 0.89530 0.31800 1.24700
C 	C 	0.48600 0.79400 0.29900 -2.33100
C 	C 	0.53560 0.76160 0.22200 1.33300
C 	C 	0.01860 0.08860 0.89100 0.73900
C 	C 	0.09470 0.99270 0.87430 -1.23800
C 	C 	0.10870 0.93630 0.81010 0.74800
N 	N 	0.93620 0.69160 0.58280 -0.18700
N 	N 	0.02770 0.81890 0.32900 -0.18700
N 	N 	0.96100 0.54780 0.36660 -0.18700
N 	N 	0.72370 0.02090 0.45750 -0.05300
N 	N 	0.64690 0.73350 0.49000 -0.08600
N 	N 	0.72460 0.86700 0.26060 -0.18800
N 	N 	0.09840 0.59660 0.70030 -0.39900
N 	N 	0.96910 0.48830 0.80480 -0.46200
N 	N 	0.80750 0.59850 0.67240 -0.52200
N 	N 	0.15600 0.92740 0.34940 -0.44100
N 	N 	0.30840 0.06380 0.91720 -0.18700
N 	N 	0.18110 0.97230 0.17100 -0.18900
N 	N 	0.45220 0.03900 0.13340 -0.18700
N 	N 	0.97910 0.27630 0.04250 -0.05300
N 	N 	0.26650 0.35310 0.01000 -0.08700
N 	N 	0.13300 0.27540 0.23940 -0.18800
N 	N 	0.40340 0.90160 0.79970 -0.39900
N 	N 	0.51170 0.03090 0.69520 -0.46300
N 	N 	0.40150 0.19250 0.82760 -0.52200
N 	N 	0.07260 0.84400 0.15060 -0.43000
N 	N 	0.06380 0.30840 0.41720 -0.18700
N 	N 	0.97230 0.18110 0.67100 -0.18700
N 	N 	0.03900 0.45220 0.63340 -0.18700
N 	N 	0.27630 0.97910 0.54250 -0.05300
N 	N 	0.35310 0.26650 0.51000 -0.08600
N 	N 	0.27540 0.13300 0.73940 -0.18800
N 	N 	0.90160 0.40340 0.29970 -0.39900
N 	N 	0.03090 0.51170 0.19520 -0.46200
N 	N 	0.19250 0.40150 0.32760 -0.52200
N 	N 	0.84400 0.07260 0.65060 -0.44100
N 	N 	0.69160 0.93620 0.08280 -0.18700
N 	N 	0.81890 0.02770 0.82900 -0.18900
N 	N 	0.54780 0.96100 0.86660 -0.18700
N 	N 	0.02090 0.72370 0.95750 -0.05300
N 	N 	0.73350 0.64690 0.99000 -0.08700
N 	N 	0.86700 0.72460 0.76060 -0.18800
N 	N 	0.59660 0.09840 0.20030 -0.39900
N 	N 	0.48830 0.96910 0.30480 -0.46300
N 	N 	0.59850 0.80750 0.17240 -0.52200
N 	N 	0.92740 0.15600 0.84940 -0.43000
N 	N 	0.95840 0.04160 0.25000 -0.45400
N 	N 	0.04160 0.95840 0.75000 -0.45400
