data_crystal

_cell_length_a 13.93370
_cell_length_b 13.93370
_cell_length_c 16.59900
_cell_angle_alpha 80.80410
_cell_angle_beta  80.80410
_cell_angle_gamma 61.25400

_symmetry_space_group_name_	'P 1'
_symmetry_space_group_name_H-M	'P 1'

loop_
_symmetry_equiv_pos_as_xyz
  x,y,z

loop_
_atom_site_label
_atom_site_type_symbol
_atom_site_fract_x
_atom_site_fract_y
_atom_site_fract_z
_atom_site_charge
Co	Co	0.83751 0.78155 0.41769 1.16800
Co	Co	0.21845 0.16249 0.08231 1.16800
Co	Co	0.16249 0.21845 0.58231 1.16800
Co	Co	0.78155 0.83751 0.91769 1.16800
Ni	Ni	0.95573 0.59163 0.69169 1.05500
Ni	Ni	0.40837 0.04427 0.80831 1.05400
Ni	Ni	0.04427 0.40837 0.30831 1.05500
Ni	Ni	0.59163 0.95573 0.19169 1.05400
Ni	Ni	0.10820 0.89180 0.25000 1.04100
Ni	Ni	0.89180 0.10820 0.75000 1.04100
H 	H 	0.13660 0.59180 0.64580 0.09600
H 	H 	0.07760 0.66960 0.71490 0.09000
H 	H 	0.22840 0.45380 0.72840 -0.05800
H 	H 	0.22170 0.54910 0.77020 -0.05200
H 	H 	0.19560 0.43300 0.86150 0.21400
H 	H 	0.09050 0.54590 0.85890 0.18800
H 	H 	0.10920 0.36400 0.80900 -0.05700
H 	H 	0.05650 0.40650 0.89420 -0.04800
H 	H 	0.93120 0.54820 0.84290 0.07300
H 	H 	0.94520 0.37300 0.79850 -0.01100
H 	H 	0.90130 0.42350 0.88180 -0.00100
H 	H 	0.75480 0.54180 0.83790 0.13600
H 	H 	0.77760 0.42680 0.81890 0.09800
H 	H 	0.68330 0.57490 0.72350 -0.00900
H 	H 	0.78070 0.47190 0.68710 -0.01600
H 	H 	0.81530 0.58710 0.61650 0.08900
H 	H 	0.75310 0.67370 0.67940 0.09100
H 	H 	0.17440 0.86000 0.38920 0.08800
H 	H 	0.22540 0.92580 0.33100 0.09700
H 	H 	0.08420 0.98340 0.44690 -0.13700
H 	H 	0.13880 0.04760 0.39100 -0.14800
H 	H 	0.94760 0.09520 0.42370 0.29600
H 	H 	0.00230 0.15930 0.36760 0.25600
H 	H 	0.86280 0.11280 0.33860 -0.11100
H 	H 	0.91520 0.17960 0.28330 -0.15800
H 	H 	0.40820 0.86340 0.85420 0.09600
H 	H 	0.33040 0.92240 0.78510 0.09000
H 	H 	0.54620 0.77160 0.77160 -0.05800
H 	H 	0.45090 0.77830 0.72980 -0.05200
H 	H 	0.56700 0.80440 0.63850 0.21400
H 	H 	0.45410 0.90950 0.64110 0.18800
H 	H 	0.63600 0.89080 0.69100 -0.05700
H 	H 	0.59350 0.94350 0.60580 -0.04800
H 	H 	0.45180 0.06880 0.65710 0.07300
H 	H 	0.62700 0.05480 0.70150 -0.01100
H 	H 	0.57650 0.09870 0.61820 -0.00000
H 	H 	0.45820 0.24520 0.66210 0.13600
H 	H 	0.57320 0.22240 0.68110 0.09800
H 	H 	0.42510 0.31670 0.77650 -0.00900
H 	H 	0.52810 0.21930 0.81290 -0.01600
H 	H 	0.41290 0.18470 0.88350 0.08900
H 	H 	0.32630 0.24690 0.82060 0.09100
H 	H 	0.14000 0.82560 0.11080 0.08600
H 	H 	0.07420 0.77460 0.16900 0.09600
H 	H 	0.01660 0.91580 0.05310 -0.13300
H 	H 	0.95240 0.86120 0.10900 -0.14200
H 	H 	0.90480 0.05240 0.07630 0.28800
H 	H 	0.84070 0.99770 0.13240 0.24700
H 	H 	0.88720 0.13720 0.16140 -0.10600
H 	H 	0.82040 0.08480 0.21670 -0.15200
H 	H 	0.86340 0.40820 0.35420 0.09600
H 	H 	0.92240 0.33040 0.28510 0.09000
H 	H 	0.77160 0.54620 0.27160 -0.05800
H 	H 	0.77830 0.45090 0.22980 -0.05200
H 	H 	0.80440 0.56700 0.13850 0.21400
H 	H 	0.90950 0.45410 0.14110 0.18800
H 	H 	0.89080 0.63600 0.19100 -0.05700
H 	H 	0.94350 0.59350 0.10580 -0.04800
H 	H 	0.06880 0.45180 0.15710 0.07300
H 	H 	0.05480 0.62700 0.20150 -0.01100
H 	H 	0.09870 0.57650 0.11820 -0.00100
H 	H 	0.24520 0.45820 0.16210 0.13600
H 	H 	0.22240 0.57320 0.18110 0.09800
H 	H 	0.31670 0.42510 0.27650 -0.00900
H 	H 	0.21930 0.52810 0.31290 -0.01600
H 	H 	0.18470 0.41290 0.38350 0.08900
H 	H 	0.24690 0.32630 0.32060 0.09100
H 	H 	0.82560 0.14000 0.61080 0.08800
H 	H 	0.77460 0.07420 0.66900 0.09700
H 	H 	0.91580 0.01660 0.55310 -0.13700
H 	H 	0.86120 0.95240 0.60900 -0.14800
H 	H 	0.05240 0.90480 0.57630 0.29600
H 	H 	0.99770 0.84070 0.63240 0.25600
H 	H 	0.13720 0.88720 0.66140 -0.11100
H 	H 	0.08480 0.82040 0.71670 -0.15800
H 	H 	0.59180 0.13660 0.14580 0.09600
H 	H 	0.66960 0.07760 0.21490 0.09000
H 	H 	0.45380 0.22840 0.22840 -0.05800
H 	H 	0.54910 0.22170 0.27020 -0.05200
H 	H 	0.43300 0.19560 0.36150 0.21400
H 	H 	0.54590 0.09050 0.35890 0.18800
H 	H 	0.36400 0.10920 0.30900 -0.05700
H 	H 	0.40650 0.05650 0.39420 -0.04800
H 	H 	0.54820 0.93120 0.34290 0.07300
H 	H 	0.37300 0.94520 0.29850 -0.01100
H 	H 	0.42350 0.90130 0.38180 -0.00000
H 	H 	0.54180 0.75480 0.33790 0.13600
H 	H 	0.42680 0.77760 0.31890 0.09800
H 	H 	0.57490 0.68330 0.22350 -0.00900
H 	H 	0.47190 0.78070 0.18710 -0.01600
H 	H 	0.58710 0.81530 0.11650 0.08900
H 	H 	0.67370 0.75310 0.17940 0.09100
H 	H 	0.86000 0.17440 0.88920 0.08600
H 	H 	0.92580 0.22540 0.83100 0.09600
H 	H 	0.98340 0.08420 0.94690 -0.13300
H 	H 	0.04760 0.13880 0.89100 -0.14200
H 	H 	0.09520 0.94760 0.92370 0.28800
H 	H 	0.15930 0.00230 0.86760 0.24700
H 	H 	0.11280 0.86280 0.83860 -0.10600
H 	H 	0.17960 0.91520 0.78330 -0.15200
C 	C 	0.89890 0.73090 0.51910 -0.21100
C 	C 	0.95750 0.80130 0.36640 -0.21800
C 	C 	0.91190 0.63610 0.38780 -0.19800
C 	C 	0.76470 0.93070 0.44450 -0.22000
C 	C 	0.71620 0.75680 0.46380 -0.22500
C 	C 	0.77250 0.83290 0.31800 -0.20600
C 	C 	0.18300 0.51500 0.75600 0.23500
C 	C 	0.13800 0.48000 0.83100 -0.55400
C 	C 	0.07400 0.42600 0.83700 0.24300
C 	C 	0.90000 0.44000 0.82200 0.09100
C 	C 	0.79100 0.49100 0.80100 -0.32500
C 	C 	0.75560 0.53560 0.71200 0.08300
C 	C 	0.09500 0.01300 0.39100 0.51400
C 	C 	0.99300 0.09300 0.37400 -0.85600
C 	C 	0.93290 0.11090 0.30900 0.52200
C 	C 	0.26910 0.10110 0.98090 -0.21300
C 	C 	0.19870 0.04250 0.13360 -0.21600
C 	C 	0.36390 0.08810 0.11220 -0.19700
C 	C 	0.06930 0.23530 0.05550 -0.22100
C 	C 	0.24320 0.28380 0.03620 -0.22500
C 	C 	0.16710 0.22750 0.18200 -0.20600
C 	C 	0.48500 0.81700 0.74400 0.23500
C 	C 	0.52000 0.86200 0.66900 -0.55400
C 	C 	0.57400 0.92600 0.66300 0.24300
C 	C 	0.56000 0.10000 0.67800 0.09100
C 	C 	0.50900 0.20900 0.69900 -0.32600
C 	C 	0.46440 0.24440 0.78800 0.08300
C 	C 	0.98700 0.90500 0.10900 0.49600
C 	C 	0.90700 0.00700 0.12600 -0.82800
C 	C 	0.88910 0.06710 0.19100 0.50500
C 	C 	0.10110 0.26910 0.48090 -0.21100
C 	C 	0.04250 0.19870 0.63360 -0.21800
C 	C 	0.08810 0.36390 0.61220 -0.19800
C 	C 	0.23530 0.06930 0.55550 -0.22000
C 	C 	0.28380 0.24320 0.53620 -0.22500
C 	C 	0.22750 0.16710 0.68200 -0.20600
C 	C 	0.81700 0.48500 0.24400 0.23500
C 	C 	0.86200 0.52000 0.16900 -0.55400
C 	C 	0.92600 0.57400 0.16300 0.24300
C 	C 	0.10000 0.56000 0.17800 0.09100
C 	C 	0.20900 0.50900 0.19900 -0.32500
C 	C 	0.24440 0.46440 0.28800 0.08300
C 	C 	0.90500 0.98700 0.60900 0.51400
C 	C 	0.00700 0.90700 0.62600 -0.85600
C 	C 	0.06710 0.88910 0.69100 0.52200
C 	C 	0.73090 0.89890 0.01910 -0.21300
C 	C 	0.80130 0.95750 0.86640 -0.21600
C 	C 	0.63610 0.91190 0.88780 -0.19700
C 	C 	0.93070 0.76470 0.94450 -0.22100
C 	C 	0.75680 0.71620 0.96380 -0.22500
C 	C 	0.83290 0.77250 0.81800 -0.20600
C 	C 	0.51500 0.18300 0.25600 0.23500
C 	C 	0.48000 0.13800 0.33100 -0.55400
C 	C 	0.42600 0.07400 0.33700 0.24300
C 	C 	0.44000 0.90000 0.32200 0.09100
C 	C 	0.49100 0.79100 0.30100 -0.32600
C 	C 	0.53560 0.75560 0.21200 0.08300
C 	C 	0.01300 0.09500 0.89100 0.49600
C 	C 	0.09300 0.99300 0.87400 -0.82800
C 	C 	0.11090 0.93290 0.80900 0.50500
N 	N 	0.93440 0.69440 0.58050 -0.18300
N 	N 	0.02860 0.81740 0.32950 -0.18900
N 	N 	0.95730 0.55050 0.36700 -0.18200
N 	N 	0.72180 0.02200 0.45690 -0.06000
N 	N 	0.64390 0.73510 0.48940 -0.07400
N 	N 	0.72670 0.86810 0.25990 -0.18500
N 	N 	0.10070 0.59870 0.69770 -0.34600
N 	N 	0.96770 0.49170 0.80440 -0.29100
N 	N 	0.80620 0.60080 0.67160 -0.32200
N 	N 	0.15970 0.92170 0.34950 -0.40800
N 	N 	0.30560 0.06560 0.91950 -0.18300
N 	N 	0.18260 0.97140 0.17050 -0.19000
N 	N 	0.44950 0.04270 0.13300 -0.18100
N 	N 	0.97800 0.27820 0.04310 -0.05800
N 	N 	0.26490 0.35610 0.01060 -0.07500
N 	N 	0.13190 0.27330 0.24010 -0.18500
N 	N 	0.40130 0.89930 0.80230 -0.34600
N 	N 	0.50830 0.03230 0.69560 -0.29100
N 	N 	0.39920 0.19380 0.82840 -0.32200
N 	N 	0.07830 0.84030 0.15050 -0.40400
N 	N 	0.06560 0.30560 0.41950 -0.18300
N 	N 	0.97140 0.18260 0.67050 -0.18900
N 	N 	0.04270 0.44950 0.63300 -0.18200
N 	N 	0.27820 0.97800 0.54310 -0.06000
N 	N 	0.35610 0.26490 0.51060 -0.07400
N 	N 	0.27330 0.13190 0.74010 -0.18500
N 	N 	0.89930 0.40130 0.30230 -0.34600
N 	N 	0.03230 0.50830 0.19560 -0.29100
N 	N 	0.19380 0.39920 0.32840 -0.32200
N 	N 	0.84030 0.07830 0.65050 -0.40800
N 	N 	0.69440 0.93440 0.08050 -0.18300
N 	N 	0.81740 0.02860 0.82950 -0.19000
N 	N 	0.55050 0.95730 0.86700 -0.18100
N 	N 	0.02200 0.72180 0.95690 -0.05800
N 	N 	0.73510 0.64390 0.98940 -0.07500
N 	N 	0.86810 0.72670 0.75990 -0.18500
N 	N 	0.59870 0.10070 0.19770 -0.34600
N 	N 	0.49170 0.96770 0.30440 -0.29100
N 	N 	0.60080 0.80620 0.17160 -0.32200
N 	N 	0.92170 0.15970 0.84950 -0.40400
N 	N 	0.95870 0.04130 0.25000 -0.36700
N 	N 	0.04130 0.95870 0.75000 -0.36700
