data_crystal

_cell_length_a 9.00080
_cell_length_b 27.89440
_cell_length_c 10.97980
_cell_angle_alpha 90.00000
_cell_angle_beta  98.69400
_cell_angle_gamma 90.00000

_symmetry_space_group_name_	'P 1'
_symmetry_space_group_name_H-M	'P 1'

loop_
_symmetry_equiv_pos_as_xyz
  x,y,z

loop_
_atom_site_label
_atom_site_type_symbol
_atom_site_fract_x
_atom_site_fract_y
_atom_site_fract_z
_atom_site_charge
Mo	Mo	0.41250 0.35110 0.62619 1.04700
C 	C 	0.65830 0.47334 0.33740 0.07100
H 	H 	0.74350 0.48705 0.38260 -0.01400
C 	C 	0.57240 0.50131 0.24910 -0.12500
H 	H 	0.59870 0.53307 0.23770 0.05000
C 	C 	0.44630 0.48144 0.17760 0.05300
C 	C 	0.41470 0.43385 0.20120 -0.13800
H 	H 	0.33250 0.41876 0.15540 0.04600
C 	C 	0.50490 0.40911 0.29220 0.06400
H 	H 	0.48020 0.37744 0.30660 -0.03900
C 	C 	0.34570 0.50964 0.08330 0.04900
C 	C 	0.34950 0.55956 0.08520 -0.09200
H 	H 	0.41800 0.57559 0.14300 0.03200
C 	C 	0.27900 0.66388 0.11090 -0.12600
H 	H 	0.29550 0.64732 0.18520 0.03500
C 	C 	0.28320 0.71342 0.11060 0.00200
H 	H 	0.30830 0.72996 0.18440 -0.00300
N 	N 	0.62640 0.42797 0.36160 -0.23500
O 	O 	0.16790 0.81507 0.91501 -0.38600
O 	O 	0.56680 0.38462 0.59370 -0.56600
Mo	Mo	0.91250 0.85110 0.12619 1.03900
C 	C 	0.15830 0.97334 0.83740 0.07700
H 	H 	0.24350 0.98705 0.88260 -0.00700
C 	C 	0.07240 0.00131 0.74910 -0.12800
H 	H 	0.09870 0.03307 0.73770 0.05200
C 	C 	0.94630 0.98144 0.67760 0.06000
C 	C 	0.91470 0.93385 0.70120 -0.15100
H 	H 	0.83250 0.91876 0.65540 0.05500
C 	C 	0.00490 0.90911 0.79220 0.08600
H 	H 	0.98020 0.87744 0.80660 -0.04400
C 	C 	0.84570 0.00964 0.58330 0.05800
C 	C 	0.84950 0.05956 0.58520 -0.10000
H 	H 	0.91800 0.07559 0.64300 0.03900
C 	C 	0.77900 0.16388 0.61090 -0.12400
H 	H 	0.79550 0.14732 0.68520 0.03600
C 	C 	0.78320 0.21342 0.61060 -0.00200
H 	H 	0.80830 0.22996 0.68440 0.00300
N 	N 	0.12640 0.92797 0.86160 -0.23200
O 	O 	0.66790 0.31507 0.41501 -0.42000
O 	O 	0.06680 0.88462 0.09370 -0.57100
Mo	Mo	0.08750 0.35110 0.37381 1.04200
C 	C 	0.84170 0.47334 0.66260 0.07400
H 	H 	0.75650 0.48705 0.61740 -0.01500
C 	C 	0.92760 0.50131 0.75090 -0.12600
H 	H 	0.90130 0.53307 0.76230 0.05300
C 	C 	0.05370 0.48144 0.82240 0.06200
C 	C 	0.08530 0.43385 0.79880 -0.15500
H 	H 	0.16750 0.41876 0.84460 0.06200
C 	C 	0.99510 0.40911 0.70780 0.09100
H 	H 	0.01980 0.37744 0.69340 -0.05000
C 	C 	0.15430 0.50964 0.91670 0.07100
C 	C 	0.15050 0.55956 0.91480 -0.06100
H 	H 	0.08200 0.57559 0.85700 0.02900
C 	C 	0.22100 0.66388 0.88910 -0.09900
H 	H 	0.20450 0.64732 0.81480 0.03100
C 	C 	0.21680 0.71342 0.88940 0.02900
H 	H 	0.19170 0.72996 0.81560 -0.00600
N 	N 	0.87360 0.42797 0.63840 -0.23900
O 	O 	0.33210 0.81507 0.08499 -0.41800
O 	O 	0.93320 0.38462 0.40630 -0.56500
Mo	Mo	0.58750 0.85110 0.87381 1.05700
C 	C 	0.34170 0.97334 0.16260 0.06900
H 	H 	0.25650 0.98705 0.11740 -0.02000
C 	C 	0.42760 0.00131 0.25090 -0.12600
H 	H 	0.40130 0.03307 0.26230 0.05000
C 	C 	0.55370 0.98144 0.32240 0.05300
C 	C 	0.58530 0.93385 0.29880 -0.13800
H 	H 	0.66750 0.91876 0.34460 0.04900
C 	C 	0.49510 0.90911 0.20780 0.06300
H 	H 	0.51980 0.87744 0.19340 -0.04100
C 	C 	0.65430 0.00964 0.41670 0.05900
C 	C 	0.65050 0.05956 0.41480 -0.10100
H 	H 	0.58200 0.07559 0.35700 0.03700
C 	C 	0.72100 0.16388 0.38910 -0.12500
H 	H 	0.70450 0.14732 0.31480 0.03500
C 	C 	0.71680 0.21342 0.38940 -0.00200
H 	H 	0.69170 0.22996 0.31560 -0.00100
N 	N 	0.37360 0.92797 0.13840 -0.24000
O 	O 	0.83210 0.31507 0.58499 -0.41600
O 	O 	0.43320 0.88462 0.90630 -0.55100
Co	Co	0.75000 0.38332 0.50000 1.15800
Co	Co	0.25000 0.88332 -0.00000 1.14400
C 	C 	0.25000 0.58532 -0.00000 -0.00100
C 	C 	0.25000 0.63855 -0.00000 0.00100
C 	C 	0.25000 0.73880 -0.00000 -0.15200
C 	C 	0.25000 0.79274 -0.00000 0.23400
N 	N 	0.25000 0.48461 -0.00000 -0.14800
C 	C 	0.75000 0.08532 0.50000 0.03200
C 	C 	0.75000 0.13855 0.50000 0.02400
C 	C 	0.75000 0.23880 0.50000 -0.12400
C 	C 	0.75000 0.29274 0.50000 0.26400
N 	N 	0.75000 0.98461 0.50000 -0.13300
O 	O 	0.25000 0.36112 0.50000 -0.62500
O 	O 	0.75000 0.86112 -0.00000 -0.64500
Mo	Mo	0.58750 0.64890 0.37381 1.04500
C 	C 	0.34170 0.52666 0.66260 0.07200
H 	H 	0.25650 0.51295 0.61740 -0.01400
C 	C 	0.42760 0.49869 0.75090 -0.12300
H 	H 	0.40130 0.46693 0.76230 0.05200
C 	C 	0.55370 0.51856 0.82240 0.05600
C 	C 	0.58530 0.56615 0.79880 -0.13500
H 	H 	0.66750 0.58124 0.84460 0.05600
C 	C 	0.49510 0.59089 0.70780 0.06600
H 	H 	0.51980 0.62256 0.69340 -0.03700
C 	C 	0.65430 0.49036 0.91670 0.07400
C 	C 	0.65050 0.44044 0.91480 -0.06000
H 	H 	0.58200 0.42441 0.85700 0.02800
C 	C 	0.72100 0.33612 0.88910 -0.09800
H 	H 	0.70450 0.35268 0.81480 0.03000
C 	C 	0.71680 0.28658 0.88940 0.03100
H 	H 	0.69170 0.27004 0.81560 -0.00800
N 	N 	0.37360 0.57203 0.63840 -0.23500
O 	O 	0.83210 0.18493 0.08499 -0.41600
O 	O 	0.43320 0.61538 0.40630 -0.56700
Mo	Mo	0.08750 0.14890 0.87381 1.05300
C 	C 	0.84170 0.02666 0.16260 0.07400
H 	H 	0.75650 0.01295 0.11740 -0.02200
C 	C 	0.92760 0.99869 0.25090 -0.13300
H 	H 	0.90130 0.96693 0.26230 0.05100
C 	C 	0.05370 0.01856 0.32240 0.06100
C 	C 	0.08530 0.06615 0.29880 -0.15400
H 	H 	0.16750 0.08124 0.34460 0.05500
C 	C 	0.99510 0.09089 0.20780 0.08200
H 	H 	0.01980 0.12256 0.19340 -0.05100
C 	C 	0.15430 0.99036 0.41670 0.05700
C 	C 	0.15050 0.94044 0.41480 -0.09900
H 	H 	0.08200 0.92441 0.35700 0.03800
C 	C 	0.22100 0.83612 0.38910 -0.12500
H 	H 	0.20450 0.85268 0.31480 0.03500
C 	C 	0.21680 0.78658 0.38940 -0.00200
H 	H 	0.19170 0.77004 0.31560 -0.00000
N 	N 	0.87360 0.07203 0.13840 -0.24400
O 	O 	0.33210 0.68493 0.58499 -0.41800
O 	O 	0.93320 0.11538 0.90630 -0.54800
Mo	Mo	0.91250 0.64890 0.62619 1.04500
C 	C 	0.15830 0.52666 0.33740 0.07400
H 	H 	0.24350 0.51295 0.38260 -0.01500
C 	C 	0.07240 0.49869 0.24910 -0.12800
H 	H 	0.09870 0.46693 0.23770 0.05000
C 	C 	0.94630 0.51856 0.17760 0.05900
C 	C 	0.91470 0.56615 0.20120 -0.15800
H 	H 	0.83250 0.58124 0.15540 0.05200
C 	C 	0.00490 0.59089 0.29220 0.08900
H 	H 	0.98020 0.62256 0.30660 -0.05200
C 	C 	0.84570 0.49036 0.08330 0.04700
C 	C 	0.84950 0.44044 0.08520 -0.09000
H 	H 	0.91800 0.42441 0.14300 0.03300
C 	C 	0.77900 0.33612 0.11090 -0.12600
H 	H 	0.79550 0.35268 0.18520 0.03500
C 	C 	0.78320 0.28658 0.11060 0.00200
H 	H 	0.80830 0.27004 0.18440 -0.00200
N 	N 	0.12640 0.57203 0.36160 -0.24000
O 	O 	0.66790 0.18493 0.91501 -0.38600
O 	O 	0.06680 0.61538 0.59370 -0.56400
Mo	Mo	0.41250 0.14890 0.12619 1.04200
C 	C 	0.65830 0.02666 0.83740 0.07200
H 	H 	0.74350 0.01295 0.88260 -0.00500
C 	C 	0.57240 0.99869 0.74910 -0.12100
H 	H 	0.59870 0.96693 0.73770 0.05100
C 	C 	0.44630 0.01856 0.67760 0.05300
C 	C 	0.41470 0.06615 0.70120 -0.13500
H 	H 	0.33250 0.08124 0.65540 0.04900
C 	C 	0.50490 0.09089 0.79220 0.06600
H 	H 	0.48020 0.12256 0.80660 -0.03400
C 	C 	0.34570 0.99036 0.58330 0.06000
C 	C 	0.34950 0.94044 0.58520 -0.10100
H 	H 	0.41800 0.92441 0.64300 0.03800
C 	C 	0.27900 0.83612 0.61090 -0.12400
H 	H 	0.29550 0.85268 0.68520 0.03600
C 	C 	0.28320 0.78658 0.61060 -0.00200
H 	H 	0.30830 0.77004 0.68440 0.00200
N 	N 	0.62640 0.07203 0.86160 -0.22800
O 	O 	0.16790 0.68493 0.41501 -0.41800
O 	O 	0.56680 0.11538 0.09370 -0.57600
Co	Co	0.25000 0.61668 0.50000 1.15800
Co	Co	0.75000 0.11668 -0.00000 1.14300
C 	C 	0.75000 0.41468 -0.00000 -0.00300
C 	C 	0.75000 0.36145 -0.00000 0.00000
C 	C 	0.75000 0.26120 -0.00000 -0.15400
C 	C 	0.75000 0.20726 -0.00000 0.23200
N 	N 	0.75000 0.51539 -0.00000 -0.14900
C 	C 	0.25000 0.91468 0.50000 0.03200
C 	C 	0.25000 0.86145 0.50000 0.02400
C 	C 	0.25000 0.76120 0.50000 -0.12400
C 	C 	0.25000 0.70726 0.50000 0.26400
N 	N 	0.25000 0.01539 0.50000 -0.13300
O 	O 	0.75000 0.63888 0.50000 -0.62500
O 	O 	0.25000 0.13888 -0.00000 -0.64300
