data_crystal

_cell_length_a 18.85420
_cell_length_b 18.07340
_cell_length_c 19.54090
_cell_angle_alpha 90.00000
_cell_angle_beta  94.77100
_cell_angle_gamma 90.00000

_symmetry_space_group_name_	'P 1'
_symmetry_space_group_name_H-M	'P 1'

loop_
_symmetry_equiv_pos_as_xyz
  x,y,z

loop_
_atom_site_label
_atom_site_type_symbol
_atom_site_fract_x
_atom_site_fract_y
_atom_site_fract_z
_atom_site_charge
Dy	Dy	0.30556 0.52372 0.00854 2.03300
Dy	Dy	0.39641 0.38966 0.12688 2.02200
Dy	Dy	0.40438 0.63460 0.88592 1.87100
Dy	Dy	0.11117 0.56335 0.00349 1.73800
Dy	Dy	0.44947 0.32002 0.85343 1.57700
Ge	Ge	0.62253 0.41668 0.83004 1.44900
Ge	Ge	0.60540 0.29891 0.94967 1.41100
Ge	Ge	0.45877 0.25828 0.01642 1.39600
Ge	Ge	0.31281 0.34321 0.95261 1.42900
Ge	Ge	0.33553 0.46441 0.83306 1.44400
Ge	Ge	0.48004 0.50451 0.76936 1.44200
Ge	Ge	0.18994 0.43101 0.12406 1.51800
N 	N 	0.11540 0.69680 0.95790 -0.27100
H 	H 	0.09370 0.73350 0.97490 0.10900
O 	O 	0.58170 0.33550 0.86200 -0.83200
O 	O 	0.51600 0.26110 0.94630 -0.81800
O 	O 	0.38500 0.27430 0.95520 -0.78500
O 	O 	0.33950 0.37120 0.86830 -0.84000
O 	O 	0.41510 0.43970 0.78970 -0.83600
O 	O 	0.55260 0.44150 0.76620 -0.76700
O 	O 	0.62620 0.48910 0.89030 -0.93100
O 	O 	0.61480 0.37870 0.00180 -0.86200
O 	O 	0.48320 0.33120 0.07090 -0.90200
O 	O 	0.34060 0.40240 0.02120 -0.91300
O 	O 	0.36020 0.51670 0.90590 -0.86900
O 	O 	0.49160 0.56760 0.83630 -0.90400
O 	O 	0.72300 0.37480 0.91500 -0.58400
O 	O 	0.83730 0.35980 0.90510 -0.51500
O 	O 	0.60690 0.24650 0.06100 -0.58100
O 	O 	0.65040 0.14830 0.11540 -0.35800
O 	O 	0.36400 0.26620 0.11990 -0.57400
O 	O 	0.26400 0.20100 0.11000 -0.18500
O 	O 	0.23200 0.43790 0.93200 -0.56900
O 	O 	0.11500 0.44730 0.94100 -0.45700
O 	O 	0.34880 0.57870 0.78150 -0.58600
O 	O 	0.28710 0.65790 0.71190 -0.33300
O 	O 	0.57880 0.70410 0.67850 -0.53100
O 	O 	0.59400 0.61990 0.75150 -0.54000
O 	O 	0.05230 0.48260 0.06940 -0.57500
O 	O 	0.95810 0.42600 0.10330 -0.49300
O 	O 	0.16080 0.34570 0.08910 -0.72400
H 	H 	0.12350 0.35170 0.06500 0.30100
O 	O 	0.27660 0.40330 0.16370 -0.78200
H 	H 	0.27470 0.39120 0.20980 0.22900
O 	O 	0.20480 0.49190 0.06050 -0.85600
O 	O 	0.21510 0.59430 0.94710 -0.61800
O 	O 	0.27930 0.66460 0.88110 -0.49300
C 	C 	0.70020 0.39860 0.77570 -0.70300
H 	H 	0.68090 0.37940 0.73170 0.22300
H 	H 	0.72230 0.44580 0.76710 0.17100
C 	C 	0.75880 0.34570 0.80410 -0.08900
H 	H 	0.80110 0.35260 0.77980 0.03000
H 	H 	0.74300 0.29490 0.79790 0.04300
C 	C 	0.77550 0.36210 0.88060 0.42400
C 	C 	0.67140 0.21910 0.94530 -0.68000
H 	H 	0.66840 0.20000 0.89870 0.20800
H 	H 	0.71920 0.23790 0.95590 0.20300
C 	C 	0.65840 0.15550 0.99440 -0.07200
H 	H 	0.70140 0.12610 0.00200 0.04000
H 	H 	0.62090 0.12390 0.97390 0.02300
C 	C 	0.63700 0.18460 0.06350 0.39200
C 	C 	0.44750 0.16070 0.05660 -0.62300
H 	H 	0.46310 0.12330 0.02550 0.17800
H 	H 	0.47750 0.15720 0.09930 0.16200
C 	C 	0.37020 0.14520 0.07100 -0.11200
H 	H 	0.34290 0.13540 0.02740 0.04000
H 	H 	0.36900 0.10070 0.09840 0.04200
C 	C 	0.33380 0.20750 0.10740 0.40500
C 	C 	0.22740 0.28360 0.94490 -0.68800
H 	H 	0.23480 0.24080 0.91640 0.20400
H 	H 	0.21760 0.26610 0.99010 0.21500
C 	C 	0.16350 0.32770 0.91350 -0.06500
H 	H 	0.15990 0.32160 0.86400 0.02400
H 	H 	0.12030 0.30810 0.93030 0.02900
C 	C 	0.16950 0.41000 0.93080 0.37400
C 	C 	0.24770 0.47170 0.77480 -0.68500
H 	H 	0.23730 0.42390 0.75390 0.21100
H 	H 	0.20940 0.48350 0.80320 0.20200
C 	C 	0.24900 0.52980 0.71820 -0.04900
H 	H 	0.20090 0.54800 0.70700 0.03500
H 	H 	0.26470 0.50680 0.67730 0.02600
C 	C 	0.29770 0.59500 0.73890 0.35400
C 	C 	0.46470 0.54350 0.67630 -0.66200
H 	H 	0.44830 0.50450 0.64480 0.19300
H 	H 	0.42910 0.58230 0.67440 0.17800
C 	C 	0.53580 0.57400 0.65700 -0.10700
H 	H 	0.53160 0.58660 0.60830 0.03600
H 	H 	0.57210 0.53640 0.66410 0.04200
C 	C 	0.55900 0.64330 0.69800 0.41300
C 	C 	0.13220 0.46360 0.19540 -0.71200
H 	H 	0.15340 0.44650 0.23950 0.19200
H 	H 	0.13130 0.51720 0.19630 0.19100
C 	C 	0.05590 0.43430 0.18400 -0.08800
H 	H 	0.05690 0.38110 0.19110 0.03500
H 	H 	0.02820 0.45570 0.21860 0.04300
C 	C 	0.01800 0.45010 0.11340 0.42200
C 	C 	0.17500 0.77400 0.86200 -0.49500
H 	H 	0.13430 0.80570 0.85970 0.16500
H 	H 	0.18600 0.76160 0.81590 0.17100
H 	H 	0.21490 0.79830 0.88540 0.17800
C 	C 	0.15870 0.70290 0.90000 0.01000
H 	H 	0.12770 0.67790 0.86450 0.02100
C 	C 	0.22210 0.65050 0.90470 0.39200
O 	O 	0.28900 0.17900 0.15100 -0.19000
Dy	Dy	0.69444 0.02372 0.49146 2.03300
Dy	Dy	0.60359 0.88966 0.37312 2.02200
Dy	Dy	0.59562 0.13460 0.61408 1.87100
Dy	Dy	0.88883 0.06335 0.49651 1.74300
Dy	Dy	0.55053 0.82002 0.64657 1.57700
Ge	Ge	0.37747 0.91668 0.66996 1.44900
Ge	Ge	0.39460 0.79891 0.55033 1.41600
Ge	Ge	0.54123 0.75828 0.48358 1.39400
Ge	Ge	0.68719 0.84321 0.54739 1.42600
Ge	Ge	0.66447 0.96441 0.66694 1.44600
Ge	Ge	0.51996 0.00451 0.73064 1.44100
Ge	Ge	0.81006 0.93101 0.37594 1.51600
N 	N 	0.88460 0.19680 0.54210 -0.27200
H 	H 	0.90630 0.23350 0.52510 0.10600
O 	O 	0.41830 0.83550 0.63800 -0.83200
O 	O 	0.48400 0.76110 0.55370 -0.81900
O 	O 	0.61500 0.77430 0.54480 -0.78400
O 	O 	0.66050 0.87120 0.63170 -0.84000
O 	O 	0.58490 0.93970 0.71030 -0.83500
O 	O 	0.44740 0.94150 0.73380 -0.76600
O 	O 	0.37380 0.98910 0.60970 -0.93200
O 	O 	0.38520 0.87870 0.49820 -0.86500
O 	O 	0.51680 0.83120 0.42910 -0.90200
O 	O 	0.65940 0.90240 0.47880 -0.91200
O 	O 	0.63980 0.01670 0.59410 -0.87100
O 	O 	0.50840 0.06760 0.66370 -0.90300
O 	O 	0.27700 0.87480 0.58500 -0.58400
O 	O 	0.16270 0.85980 0.59490 -0.51500
O 	O 	0.39310 0.74650 0.43900 -0.58000
O 	O 	0.34960 0.64830 0.38460 -0.35600
O 	O 	0.63600 0.76620 0.38010 -0.57400
O 	O 	0.73600 0.70100 0.39000 -0.18500
O 	O 	0.76800 0.93790 0.56800 -0.56900
O 	O 	0.88500 0.94730 0.55900 -0.45900
O 	O 	0.65120 0.07870 0.71850 -0.58600
O 	O 	0.71290 0.15790 0.78810 -0.33400
O 	O 	0.42120 0.20410 0.82150 -0.53100
O 	O 	0.40600 0.11990 0.74850 -0.54000
O 	O 	0.94770 0.98260 0.43060 -0.57700
O 	O 	0.04190 0.92600 0.39670 -0.50700
O 	O 	0.83920 0.84570 0.41090 -0.72400
H 	H 	0.87650 0.85170 0.43500 0.30200
O 	O 	0.72340 0.90330 0.33630 -0.78100
H 	H 	0.72530 0.89120 0.29020 0.23000
O 	O 	0.79520 0.99190 0.43950 -0.85400
O 	O 	0.78490 0.09430 0.55290 -0.62200
O 	O 	0.72070 0.16460 0.61890 -0.49400
C 	C 	0.29980 0.89860 0.72430 -0.70300
H 	H 	0.31910 0.87940 0.76830 0.22300
H 	H 	0.27770 0.94580 0.73290 0.17100
C 	C 	0.24120 0.84570 0.69590 -0.08900
H 	H 	0.19890 0.85260 0.72020 0.03100
H 	H 	0.25700 0.79490 0.70210 0.04400
C 	C 	0.22450 0.86210 0.61940 0.42400
C 	C 	0.32860 0.71910 0.55470 -0.68800
H 	H 	0.33160 0.70000 0.60130 0.21100
H 	H 	0.28080 0.73790 0.54410 0.20700
C 	C 	0.34160 0.65550 0.50560 -0.05600
H 	H 	0.29860 0.62610 0.49800 0.03300
H 	H 	0.37910 0.62390 0.52610 0.01900
C 	C 	0.36300 0.68460 0.43650 0.38500
C 	C 	0.55250 0.66070 0.44340 -0.62200
H 	H 	0.53690 0.62330 0.47450 0.17700
H 	H 	0.52250 0.65720 0.40070 0.16200
C 	C 	0.62980 0.64520 0.42900 -0.11200
H 	H 	0.65710 0.63540 0.47260 0.04000
H 	H 	0.63100 0.60070 0.40160 0.04200
C 	C 	0.66620 0.70750 0.39260 0.40500
C 	C 	0.77260 0.78360 0.55510 -0.68600
H 	H 	0.76520 0.74080 0.58360 0.20300
H 	H 	0.78240 0.76610 0.50990 0.21300
C 	C 	0.83650 0.82770 0.58650 -0.06600
H 	H 	0.84010 0.82160 0.63600 0.02400
H 	H 	0.87970 0.80810 0.56970 0.02700
C 	C 	0.83050 0.91000 0.56920 0.37400
C 	C 	0.75230 0.97170 0.72520 -0.68200
H 	H 	0.76270 0.92390 0.74610 0.21100
H 	H 	0.79060 0.98350 0.69680 0.20200
C 	C 	0.75100 0.02980 0.78180 -0.05200
H 	H 	0.79910 0.04800 0.79300 0.03400
H 	H 	0.73530 0.00680 0.82270 0.02600
C 	C 	0.70230 0.09500 0.76110 0.35400
C 	C 	0.53530 0.04350 0.82370 -0.66100
H 	H 	0.55170 0.00450 0.85520 0.19200
H 	H 	0.57090 0.08230 0.82560 0.17700
C 	C 	0.46420 0.07400 0.84300 -0.10700
H 	H 	0.46840 0.08660 0.89170 0.03600
H 	H 	0.42790 0.03640 0.83590 0.04200
C 	C 	0.44100 0.14330 0.80200 0.41300
C 	C 	0.86780 0.96360 0.30460 -0.70000
H 	H 	0.84660 0.94650 0.26050 0.18900
H 	H 	0.86870 0.01720 0.30370 0.18600
C 	C 	0.94410 0.93430 0.31600 -0.10100
H 	H 	0.94310 0.88110 0.30890 0.04000
H 	H 	0.97180 0.95570 0.28140 0.05000
C 	C 	0.98200 0.95010 0.38660 0.43900
C 	C 	0.82500 0.27400 0.63800 -0.49300
H 	H 	0.86570 0.30570 0.64030 0.16400
H 	H 	0.81400 0.26160 0.68410 0.17000
H 	H 	0.78510 0.29830 0.61460 0.17600
C 	C 	0.84130 0.20290 0.60000 0.00800
H 	H 	0.87230 0.17790 0.63550 0.02100
C 	C 	0.77790 0.15050 0.59530 0.39300
O 	O 	0.71100 0.67900 0.34900 -0.19100
Dy	Dy	0.69444 0.47628 0.99146 2.03200
Dy	Dy	0.60359 0.61034 0.87312 2.02100
Dy	Dy	0.59562 0.36540 0.11408 1.87100
Dy	Dy	0.88883 0.43665 0.99651 1.73800
Dy	Dy	0.55053 0.67998 0.14657 1.57700
Ge	Ge	0.37747 0.58332 0.16996 1.44900
Ge	Ge	0.39460 0.70109 0.05033 1.41100
Ge	Ge	0.54123 0.74172 0.98358 1.39600
Ge	Ge	0.68719 0.65679 0.04739 1.42900
Ge	Ge	0.66447 0.53559 0.16694 1.44400
Ge	Ge	0.51996 0.49549 0.23064 1.44200
Ge	Ge	0.81006 0.56899 0.87594 1.51800
N 	N 	0.88460 0.30320 0.04210 -0.27100
H 	H 	0.90630 0.26650 0.02510 0.10900
O 	O 	0.41830 0.66450 0.13800 -0.83200
O 	O 	0.48400 0.73890 0.05370 -0.81800
O 	O 	0.61500 0.72570 0.04480 -0.78500
O 	O 	0.66050 0.62880 0.13170 -0.84000
O 	O 	0.58490 0.56030 0.21030 -0.83600
O 	O 	0.44740 0.55850 0.23380 -0.76700
O 	O 	0.37380 0.51090 0.10970 -0.93100
O 	O 	0.38520 0.62130 0.99820 -0.86200
O 	O 	0.51680 0.66880 0.92910 -0.90200
O 	O 	0.65940 0.59760 0.97880 -0.91300
O 	O 	0.63980 0.48330 0.09410 -0.86900
O 	O 	0.50840 0.43240 0.16370 -0.90400
O 	O 	0.27700 0.62520 0.08500 -0.58400
O 	O 	0.16270 0.64020 0.09490 -0.51500
O 	O 	0.39310 0.75350 0.93900 -0.58100
O 	O 	0.34960 0.85170 0.88460 -0.35800
O 	O 	0.63600 0.73380 0.88010 -0.57400
O 	O 	0.73600 0.79900 0.89000 -0.18500
O 	O 	0.76800 0.56210 0.06800 -0.56900
O 	O 	0.88500 0.55270 0.05900 -0.45700
O 	O 	0.65120 0.42130 0.21850 -0.58600
O 	O 	0.71290 0.34210 0.28810 -0.33300
O 	O 	0.42120 0.29590 0.32150 -0.53100
O 	O 	0.40600 0.38010 0.24850 -0.54000
O 	O 	0.94770 0.51740 0.93060 -0.57500
O 	O 	0.04190 0.57400 0.89670 -0.49300
O 	O 	0.83920 0.65430 0.91090 -0.72400
H 	H 	0.87650 0.64830 0.93500 0.30100
O 	O 	0.72340 0.59670 0.83630 -0.78200
H 	H 	0.72530 0.60880 0.79020 0.22900
O 	O 	0.79520 0.50810 0.93950 -0.85600
O 	O 	0.78490 0.40570 0.05290 -0.61800
O 	O 	0.72070 0.33540 0.11890 -0.49300
C 	C 	0.29980 0.60140 0.22430 -0.70300
H 	H 	0.31910 0.62060 0.26830 0.22300
H 	H 	0.27770 0.55420 0.23290 0.17100
C 	C 	0.24120 0.65430 0.19590 -0.08900
H 	H 	0.19890 0.64740 0.22020 0.03000
H 	H 	0.25700 0.70510 0.20210 0.04300
C 	C 	0.22450 0.63790 0.11940 0.42400
C 	C 	0.32860 0.78090 0.05470 -0.68000
H 	H 	0.33160 0.80000 0.10130 0.20800
H 	H 	0.28080 0.76210 0.04410 0.20300
C 	C 	0.34160 0.84450 0.00560 -0.07200
H 	H 	0.29860 0.87390 0.99800 0.04000
H 	H 	0.37910 0.87610 0.02610 0.02300
C 	C 	0.36300 0.81540 0.93650 0.39200
C 	C 	0.55250 0.83930 0.94340 -0.62300
H 	H 	0.53690 0.87670 0.97450 0.17800
H 	H 	0.52250 0.84280 0.90070 0.16200
C 	C 	0.62980 0.85480 0.92900 -0.11200
H 	H 	0.65710 0.86460 0.97260 0.04000
H 	H 	0.63100 0.89930 0.90160 0.04200
C 	C 	0.66620 0.79250 0.89260 0.40500
C 	C 	0.77260 0.71640 0.05510 -0.68800
H 	H 	0.76520 0.75920 0.08360 0.20400
H 	H 	0.78240 0.73390 0.00990 0.21500
C 	C 	0.83650 0.67230 0.08650 -0.06500
H 	H 	0.84010 0.67840 0.13600 0.02400
H 	H 	0.87970 0.69190 0.06970 0.02900
C 	C 	0.83050 0.59000 0.06920 0.37400
C 	C 	0.75230 0.52830 0.22520 -0.68500
H 	H 	0.76270 0.57610 0.24610 0.21100
H 	H 	0.79060 0.51650 0.19680 0.20200
C 	C 	0.75100 0.47020 0.28180 -0.04900
H 	H 	0.79910 0.45200 0.29300 0.03500
H 	H 	0.73530 0.49320 0.32270 0.02600
C 	C 	0.70230 0.40500 0.26110 0.35400
C 	C 	0.53530 0.45650 0.32370 -0.66200
H 	H 	0.55170 0.49550 0.35520 0.19300
H 	H 	0.57090 0.41770 0.32560 0.17800
C 	C 	0.46420 0.42600 0.34300 -0.10700
H 	H 	0.46840 0.41340 0.39170 0.03600
H 	H 	0.42790 0.46360 0.33590 0.04200
C 	C 	0.44100 0.35670 0.30200 0.41300
C 	C 	0.86780 0.53640 0.80460 -0.71200
H 	H 	0.84660 0.55350 0.76050 0.19200
H 	H 	0.86870 0.48280 0.80370 0.19100
C 	C 	0.94410 0.56570 0.81600 -0.08800
H 	H 	0.94310 0.61890 0.80890 0.03500
H 	H 	0.97180 0.54430 0.78140 0.04300
C 	C 	0.98200 0.54990 0.88660 0.42200
C 	C 	0.82500 0.22600 0.13800 -0.49500
H 	H 	0.86570 0.19430 0.14030 0.16500
H 	H 	0.81400 0.23840 0.18410 0.17100
H 	H 	0.78510 0.20170 0.11460 0.17800
C 	C 	0.84130 0.29710 0.10000 0.01000
H 	H 	0.87230 0.32210 0.13550 0.02100
C 	C 	0.77790 0.34950 0.09530 0.39200
O 	O 	0.71100 0.82100 0.84900 -0.19000
Dy	Dy	0.30556 0.97628 0.50854 2.03300
Dy	Dy	0.39641 0.11034 0.62688 2.02200
Dy	Dy	0.40438 0.86540 0.38592 1.87100
Dy	Dy	0.11117 0.93665 0.50349 1.74300
Dy	Dy	0.44947 0.17998 0.35343 1.57700
Ge	Ge	0.62253 0.08332 0.33004 1.44900
Ge	Ge	0.60540 0.20109 0.44967 1.41600
Ge	Ge	0.45877 0.24172 0.51642 1.39400
Ge	Ge	0.31281 0.15679 0.45261 1.42600
Ge	Ge	0.33553 0.03559 0.33306 1.44600
Ge	Ge	0.48004 0.99549 0.26936 1.44100
Ge	Ge	0.18994 0.06899 0.62406 1.51600
N 	N 	0.11540 0.80320 0.45790 -0.27200
H 	H 	0.09370 0.76650 0.47490 0.10600
O 	O 	0.58170 0.16450 0.36200 -0.83200
O 	O 	0.51600 0.23890 0.44630 -0.81900
O 	O 	0.38500 0.22570 0.45520 -0.78400
O 	O 	0.33950 0.12880 0.36830 -0.84000
O 	O 	0.41510 0.06030 0.28970 -0.83500
O 	O 	0.55260 0.05850 0.26620 -0.76600
O 	O 	0.62620 0.01090 0.39030 -0.93200
O 	O 	0.61480 0.12130 0.50180 -0.86500
O 	O 	0.48320 0.16880 0.57090 -0.90200
O 	O 	0.34060 0.09760 0.52120 -0.91200
O 	O 	0.36020 0.98330 0.40590 -0.87100
O 	O 	0.49160 0.93240 0.33630 -0.90300
O 	O 	0.72300 0.12520 0.41500 -0.58400
O 	O 	0.83730 0.14020 0.40510 -0.51500
O 	O 	0.60690 0.25350 0.56100 -0.58000
O 	O 	0.65040 0.35170 0.61540 -0.35600
O 	O 	0.36400 0.23380 0.61990 -0.57400
O 	O 	0.26400 0.29900 0.61000 -0.18500
O 	O 	0.23200 0.06210 0.43200 -0.56900
O 	O 	0.11500 0.05270 0.44100 -0.45900
O 	O 	0.34880 0.92130 0.28150 -0.58600
O 	O 	0.28710 0.84210 0.21190 -0.33400
O 	O 	0.57880 0.79590 0.17850 -0.53100
O 	O 	0.59400 0.88010 0.25150 -0.54000
O 	O 	0.05230 0.01740 0.56940 -0.57700
O 	O 	0.95810 0.07400 0.60330 -0.50700
O 	O 	0.16080 0.15430 0.58910 -0.72400
H 	H 	0.12350 0.14830 0.56500 0.30200
O 	O 	0.27660 0.09670 0.66370 -0.78100
H 	H 	0.27470 0.10880 0.70980 0.23000
O 	O 	0.20480 0.00810 0.56050 -0.85400
O 	O 	0.21510 0.90570 0.44710 -0.62200
O 	O 	0.27930 0.83540 0.38110 -0.49400
C 	C 	0.70020 0.10140 0.27570 -0.70300
H 	H 	0.68090 0.12060 0.23170 0.22300
H 	H 	0.72230 0.05420 0.26710 0.17100
C 	C 	0.75880 0.15430 0.30410 -0.08900
H 	H 	0.80110 0.14740 0.27980 0.03100
H 	H 	0.74300 0.20510 0.29790 0.04400
C 	C 	0.77550 0.13790 0.38060 0.42400
C 	C 	0.67140 0.28090 0.44530 -0.68800
H 	H 	0.66840 0.30000 0.39870 0.21100
H 	H 	0.71920 0.26210 0.45590 0.20700
C 	C 	0.65840 0.34450 0.49440 -0.05600
H 	H 	0.70140 0.37390 0.50200 0.03300
H 	H 	0.62090 0.37610 0.47390 0.01900
C 	C 	0.63700 0.31540 0.56350 0.38500
C 	C 	0.44750 0.33930 0.55660 -0.62200
H 	H 	0.46310 0.37670 0.52550 0.17700
H 	H 	0.47750 0.34280 0.59930 0.16200
C 	C 	0.37020 0.35480 0.57100 -0.11200
H 	H 	0.34290 0.36460 0.52740 0.04000
H 	H 	0.36900 0.39930 0.59840 0.04200
C 	C 	0.33380 0.29250 0.60740 0.40500
C 	C 	0.22740 0.21640 0.44490 -0.68600
H 	H 	0.23480 0.25920 0.41640 0.20300
H 	H 	0.21760 0.23390 0.49010 0.21300
C 	C 	0.16350 0.17230 0.41350 -0.06600
H 	H 	0.15990 0.17840 0.36400 0.02400
H 	H 	0.12030 0.19190 0.43030 0.02700
C 	C 	0.16950 0.09000 0.43080 0.37400
C 	C 	0.24770 0.02830 0.27480 -0.68200
H 	H 	0.23730 0.07610 0.25390 0.21100
H 	H 	0.20940 0.01650 0.30320 0.20200
C 	C 	0.24900 0.97020 0.21820 -0.05200
H 	H 	0.20090 0.95200 0.20700 0.03400
H 	H 	0.26470 0.99320 0.17730 0.02600
C 	C 	0.29770 0.90500 0.23890 0.35400
C 	C 	0.46470 0.95650 0.17630 -0.66100
H 	H 	0.44830 0.99550 0.14480 0.19200
H 	H 	0.42910 0.91770 0.17440 0.17700
C 	C 	0.53580 0.92600 0.15700 -0.10700
H 	H 	0.53160 0.91340 0.10830 0.03600
H 	H 	0.57210 0.96360 0.16410 0.04200
C 	C 	0.55900 0.85670 0.19800 0.41300
C 	C 	0.13220 0.03640 0.69540 -0.70000
H 	H 	0.15340 0.05350 0.73950 0.18900
H 	H 	0.13130 0.98280 0.69630 0.18600
C 	C 	0.05590 0.06570 0.68400 -0.10100
H 	H 	0.05690 0.11890 0.69110 0.04000
H 	H 	0.02820 0.04430 0.71860 0.05000
C 	C 	0.01800 0.04990 0.61340 0.43900
C 	C 	0.17500 0.72600 0.36200 -0.49300
H 	H 	0.13430 0.69430 0.35970 0.16400
H 	H 	0.18600 0.73840 0.31590 0.17000
H 	H 	0.21490 0.70170 0.38540 0.17600
C 	C 	0.15870 0.79710 0.40000 0.00800
H 	H 	0.12770 0.82210 0.36450 0.02100
C 	C 	0.22210 0.84950 0.40470 0.39300
O 	O 	0.28900 0.32100 0.65100 -0.19100
