data_crystal

_cell_length_a 14.22870
_cell_length_b 14.22870
_cell_length_c 16.47500
_cell_angle_alpha 81.37980
_cell_angle_beta  81.37980
_cell_angle_gamma 61.42480

_symmetry_space_group_name_	'P 1'
_symmetry_space_group_name_H-M	'P 1'

loop_
_symmetry_equiv_pos_as_xyz
  x,y,z

loop_
_atom_site_label
_atom_site_type_symbol
_atom_site_fract_x
_atom_site_fract_y
_atom_site_fract_z
_atom_site_charge
Co	Co	0.85088 0.77198 0.41366 1.16900
Co	Co	0.22802 0.14912 0.08634 1.17000
Co	Co	0.14912 0.22802 0.58634 1.16900
Co	Co	0.77198 0.85088 0.91366 1.17000
Ni	Ni	0.94429 0.59563 0.69541 1.05400
Ni	Ni	0.40437 0.05571 0.80459 1.05200
Ni	Ni	0.05571 0.40437 0.30459 1.05400
Ni	Ni	0.59563 0.94429 0.19541 1.05200
Ni	Ni	0.10930 0.89070 0.25000 1.01800
Ni	Ni	0.89070 0.10930 0.75000 1.01800
H 	H 	0.06100 0.66520 0.73530 0.09700
H 	H 	0.12340 0.59240 0.66430 0.12300
H 	H 	0.19280 0.44940 0.74820 -0.49300
H 	H 	0.20320 0.53660 0.78690 -0.34400
H 	H 	0.06610 0.55350 0.87370 0.55000
H 	H 	0.16740 0.44260 0.88170 0.66000
H 	H 	0.02980 0.40900 0.89990 -0.17400
H 	H 	0.08450 0.37570 0.81280 -0.15600
H 	H 	0.90790 0.55830 0.84810 0.06700
H 	H 	0.87580 0.43280 0.87710 -0.08500
H 	H 	0.91840 0.39400 0.78960 -0.10200
H 	H 	0.73570 0.57170 0.82540 0.49700
H 	H 	0.74290 0.46170 0.81530 0.31900
H 	H 	0.67160 0.58820 0.70790 -0.15700
H 	H 	0.77070 0.48430 0.67980 -0.20200
H 	H 	0.81180 0.59820 0.61030 0.10400
H 	H 	0.74940 0.68320 0.67340 0.10500
H 	H 	0.22690 0.92010 0.33090 -0.09900
H 	H 	0.17010 0.86370 0.39040 -0.05800
H 	H 	0.10210 0.98090 0.44320 1.37600
H 	H 	0.14970 0.04110 0.37800 0.85300
H 	H 	0.96900 0.07900 0.42750 -1.03700
H 	H 	0.01800 0.14780 0.37510 -1.23000
H 	H 	0.88170 0.11110 0.34290 1.14500
H 	H 	0.94170 0.16650 0.28620 0.71500
H 	H 	0.33480 0.93900 0.76470 0.10000
H 	H 	0.40760 0.87660 0.83570 0.12300
H 	H 	0.55060 0.80720 0.75180 -0.48500
H 	H 	0.46340 0.79680 0.71310 -0.33800
H 	H 	0.44650 0.93390 0.62630 0.54000
H 	H 	0.55740 0.83260 0.61830 0.64900
H 	H 	0.59100 0.97020 0.60010 -0.17500
H 	H 	0.62430 0.91550 0.68720 -0.15600
H 	H 	0.44170 0.09210 0.65190 0.06900
H 	H 	0.56720 0.12420 0.62290 -0.08300
H 	H 	0.60600 0.08160 0.71040 -0.10200
H 	H 	0.42830 0.26430 0.67460 0.49800
H 	H 	0.53830 0.25710 0.68470 0.32000
H 	H 	0.41180 0.32840 0.79210 -0.15700
H 	H 	0.51570 0.22930 0.82020 -0.20300
H 	H 	0.40180 0.18820 0.88970 0.10300
H 	H 	0.31680 0.25060 0.82660 0.10600
H 	H 	0.07990 0.77310 0.16910 -0.04300
H 	H 	0.13630 0.82990 0.10960 -0.01700
H 	H 	0.01910 0.89790 0.05680 0.90700
H 	H 	0.95890 0.85030 0.12200 0.57500
H 	H 	0.92100 0.03100 0.07250 -0.67800
H 	H 	0.85220 0.98200 0.12490 -0.81600
H 	H 	0.88890 0.11830 0.15710 0.86100
H 	H 	0.83350 0.05830 0.21380 0.54200
H 	H 	0.93900 0.33480 0.26470 0.09700
H 	H 	0.87660 0.40760 0.33570 0.12300
H 	H 	0.80720 0.55060 0.25180 -0.49300
H 	H 	0.79680 0.46340 0.21310 -0.34400
H 	H 	0.93390 0.44650 0.12630 0.55000
H 	H 	0.83260 0.55740 0.11830 0.66000
H 	H 	0.97020 0.59100 0.10010 -0.17400
H 	H 	0.91550 0.62430 0.18720 -0.15600
H 	H 	0.09210 0.44170 0.15190 0.06700
H 	H 	0.12420 0.56720 0.12290 -0.08500
H 	H 	0.08160 0.60600 0.21040 -0.10200
H 	H 	0.26430 0.42830 0.17460 0.49700
H 	H 	0.25710 0.53830 0.18470 0.31900
H 	H 	0.32840 0.41180 0.29210 -0.15700
H 	H 	0.22930 0.51570 0.32020 -0.20200
H 	H 	0.18820 0.40180 0.38970 0.10400
H 	H 	0.25060 0.31680 0.32660 0.10500
H 	H 	0.77310 0.07990 0.66910 -0.09900
H 	H 	0.82990 0.13630 0.60960 -0.05800
H 	H 	0.89790 0.01910 0.55680 1.37600
H 	H 	0.85030 0.95890 0.62200 0.85300
H 	H 	0.03100 0.92100 0.57250 -1.03700
H 	H 	0.98200 0.85220 0.62490 -1.23000
H 	H 	0.11830 0.88890 0.65710 1.14500
H 	H 	0.05830 0.83350 0.71380 0.71500
H 	H 	0.66520 0.06100 0.23530 0.10000
H 	H 	0.59240 0.12340 0.16430 0.12300
H 	H 	0.44940 0.19280 0.24820 -0.48500
H 	H 	0.53660 0.20320 0.28690 -0.33800
H 	H 	0.55350 0.06610 0.37370 0.54000
H 	H 	0.44260 0.16740 0.38170 0.64900
H 	H 	0.40900 0.02980 0.39990 -0.17500
H 	H 	0.37570 0.08450 0.31280 -0.15600
H 	H 	0.55830 0.90790 0.34810 0.06900
H 	H 	0.43280 0.87580 0.37710 -0.08300
H 	H 	0.39400 0.91840 0.28960 -0.10200
H 	H 	0.57170 0.73570 0.32540 0.49800
H 	H 	0.46170 0.74290 0.31530 0.32000
H 	H 	0.58820 0.67160 0.20790 -0.15700
H 	H 	0.48430 0.77070 0.17980 -0.20300
H 	H 	0.59820 0.81180 0.11030 0.10300
H 	H 	0.68320 0.74940 0.17340 0.10600
H 	H 	0.92010 0.22690 0.83090 -0.04300
H 	H 	0.86370 0.17010 0.89040 -0.01700
H 	H 	0.98090 0.10210 0.94320 0.90700
H 	H 	0.04110 0.14970 0.87800 0.57500
H 	H 	0.07900 0.96900 0.92750 -0.67800
H 	H 	0.14780 0.01800 0.87510 -0.81600
H 	H 	0.11110 0.88170 0.84290 0.86100
H 	H 	0.16650 0.94170 0.78620 0.54200
C 	C 	0.90970 0.72230 0.51600 -0.20500
C 	C 	0.96630 0.79690 0.36330 -0.19100
C 	C 	0.92370 0.63070 0.38250 -0.19500
C 	C 	0.77770 0.91690 0.44180 -0.24000
C 	C 	0.73260 0.75040 0.45980 -0.24200
C 	C 	0.78500 0.82120 0.31420 -0.21800
C 	C 	0.15400 0.50800 0.77400 1.41600
C 	C 	0.11800 0.49000 0.84700 -1.78500
C 	C 	0.04200 0.43600 0.84500 0.60700
C 	C 	0.86030 0.45630 0.81400 0.34200
C 	C 	0.75270 0.52670 0.79200 -1.15600
C 	C 	0.74920 0.54720 0.70800 0.68700
C 	C 	0.10000 0.00400 0.39200 -3.32900
C 	C 	0.00800 0.08800 0.37500 3.59900
C 	C 	0.93800 0.09800 0.31200 -2.83300
C 	C 	0.27770 0.09030 0.98400 -0.20900
C 	C 	0.20310 0.03370 0.13670 -0.19300
C 	C 	0.36930 0.07630 0.11750 -0.19500
C 	C 	0.08310 0.22230 0.05820 -0.24900
C 	C 	0.24960 0.26740 0.04020 -0.24100
C 	C 	0.17880 0.21500 0.18580 -0.22100
C 	C 	0.49200 0.84600 0.72600 1.39400
C 	C 	0.51000 0.88200 0.65300 -1.75900
C 	C 	0.56400 0.95800 0.65500 0.59500
C 	C 	0.54370 0.13970 0.68600 0.34200
C 	C 	0.47330 0.24730 0.70800 -1.15800
C 	C 	0.45280 0.25080 0.79200 0.68900
C 	C 	0.99600 0.90000 0.10800 -2.20200
C 	C 	0.91200 0.99200 0.12500 2.39100
C 	C 	0.90200 0.06200 0.18800 -2.09300
C 	C 	0.09030 0.27770 0.48400 -0.20500
C 	C 	0.03370 0.20310 0.63670 -0.19100
C 	C 	0.07630 0.36930 0.61750 -0.19500
C 	C 	0.22230 0.08310 0.55820 -0.24000
C 	C 	0.26740 0.24960 0.54020 -0.24200
C 	C 	0.21500 0.17880 0.68580 -0.21800
C 	C 	0.84600 0.49200 0.22600 1.41600
C 	C 	0.88200 0.51000 0.15300 -1.78500
C 	C 	0.95800 0.56400 0.15500 0.60700
C 	C 	0.13970 0.54370 0.18600 0.34200
C 	C 	0.24730 0.47330 0.20800 -1.15600
C 	C 	0.25080 0.45280 0.29200 0.68700
C 	C 	0.90000 0.99600 0.60800 -3.32900
C 	C 	0.99200 0.91200 0.62500 3.59900
C 	C 	0.06200 0.90200 0.68800 -2.83300
C 	C 	0.72230 0.90970 0.01600 -0.20900
C 	C 	0.79690 0.96630 0.86330 -0.19300
C 	C 	0.63070 0.92370 0.88250 -0.19500
C 	C 	0.91690 0.77770 0.94180 -0.24900
C 	C 	0.75040 0.73260 0.95980 -0.24100
C 	C 	0.82120 0.78500 0.81420 -0.22100
C 	C 	0.50800 0.15400 0.27400 1.39400
C 	C 	0.49000 0.11800 0.34700 -1.75900
C 	C 	0.43600 0.04200 0.34500 0.59500
C 	C 	0.45630 0.86030 0.31400 0.34200
C 	C 	0.52670 0.75270 0.29200 -1.15800
C 	C 	0.54720 0.74920 0.20800 0.68900
C 	C 	0.00400 0.10000 0.89200 -2.20200
C 	C 	0.08800 0.00800 0.87500 2.39100
C 	C 	0.09800 0.93800 0.81200 -2.09300
N 	N 	0.94110 0.68690 0.58040 -0.16100
N 	N 	0.03120 0.81620 0.32890 -0.18600
N 	N 	0.96920 0.54680 0.36100 -0.18000
N 	N 	0.73500 0.00360 0.45620 -0.09600
N 	N 	0.66120 0.73400 0.48490 -0.09000
N 	N 	0.73610 0.85450 0.25750 -0.18000
N 	N 	0.08380 0.59760 0.71570 -0.51200
N 	N 	0.94150 0.50270 0.81070 -0.37200
N 	N 	0.80040 0.60960 0.66660 -0.41900
N 	N 	0.15960 0.92100 0.34970 0.39400
N 	N 	0.31310 0.05890 0.91960 -0.16700
N 	N 	0.18380 0.96880 0.17110 -0.19200
N 	N 	0.45320 0.03080 0.13900 -0.17900
N 	N 	0.99640 0.26500 0.04380 -0.07900
N 	N 	0.26600 0.33880 0.01510 -0.09100
N 	N 	0.14550 0.26390 0.24250 -0.18000
N 	N 	0.40240 0.91620 0.78430 -0.51000
N 	N 	0.49730 0.05850 0.68930 -0.36900
N 	N 	0.39040 0.19960 0.83340 -0.41900
N 	N 	0.07900 0.84040 0.15030 0.15100
N 	N 	0.05890 0.31310 0.41960 -0.16100
N 	N 	0.96880 0.18380 0.67110 -0.18600
N 	N 	0.03080 0.45320 0.63900 -0.18000
N 	N 	0.26500 0.99640 0.54380 -0.09600
N 	N 	0.33880 0.26600 0.51510 -0.09000
N 	N 	0.26390 0.14550 0.74250 -0.18000
N 	N 	0.91620 0.40240 0.28430 -0.51200
N 	N 	0.05850 0.49730 0.18930 -0.37200
N 	N 	0.19960 0.39040 0.33340 -0.41900
N 	N 	0.84040 0.07900 0.65030 0.39400
N 	N 	0.68690 0.94110 0.08040 -0.16700
N 	N 	0.81620 0.03120 0.82890 -0.19200
N 	N 	0.54680 0.96920 0.86100 -0.17900
N 	N 	0.00360 0.73500 0.95620 -0.07900
N 	N 	0.73400 0.66120 0.98490 -0.09100
N 	N 	0.85450 0.73610 0.75750 -0.18000
N 	N 	0.59760 0.08380 0.21570 -0.51000
N 	N 	0.50270 0.94150 0.31070 -0.36900
N 	N 	0.60960 0.80040 0.16660 -0.41900
N 	N 	0.92100 0.15960 0.84970 0.15100
N 	N 	0.96600 0.03400 0.25000 0.61200
N 	N 	0.03400 0.96600 0.75000 0.61200
