data_crystal

_cell_length_a 9.44620
_cell_length_b 9.44620
_cell_length_c 15.75900
_cell_angle_alpha 90.00000
_cell_angle_beta  90.00000
_cell_angle_gamma 120.00000

_symmetry_space_group_name_	'P 1'
_symmetry_space_group_name_H-M	'P 1'

loop_
_symmetry_equiv_pos_as_xyz
  x,y,z

loop_
_atom_site_label
_atom_site_type_symbol
_atom_site_fract_x
_atom_site_fract_y
_atom_site_fract_z
_atom_site_charge
P 	P 	0.16996 0.38704 0.91915 0.75600
O 	O 	0.02190 0.21190 0.93447 -0.76000
O 	O 	0.18020 0.41550 0.82087 -0.77600
O 	O 	0.13990 0.51450 0.95844 -0.49100
O 	O 	0.31830 0.38390 0.95154 -0.48800
P 	P 	0.61296 0.78292 0.25248 0.75700
O 	O 	0.78810 0.81000 0.26780 -0.76400
O 	O 	0.58450 0.76470 0.15420 -0.77600
O 	O 	0.48550 0.62540 0.29177 -0.49300
O 	O 	0.61610 0.93440 0.28487 -0.48900
P 	P 	0.21708 0.83004 0.58582 0.75700
O 	O 	0.19000 0.97810 0.60114 -0.76200
O 	O 	0.23530 0.81980 0.48754 -0.77600
O 	O 	0.37460 0.86010 0.62511 -0.49200
O 	O 	0.06560 0.68170 0.61821 -0.48800
P 	P 	0.83004 0.61296 0.41915 0.75800
O 	O 	0.97810 0.78810 0.43447 -0.76200
O 	O 	0.81980 0.58450 0.32087 -0.77700
O 	O 	0.86010 0.48550 0.45844 -0.49200
O 	O 	0.68170 0.61610 0.45154 -0.48800
P 	P 	0.38704 0.21708 0.75248 0.75800
O 	O 	0.21190 0.19000 0.76780 -0.76300
O 	O 	0.41550 0.23530 0.65420 -0.77600
O 	O 	0.51450 0.37460 0.79177 -0.49300
O 	O 	0.38390 0.06560 0.78487 -0.48900
P 	P 	0.78292 0.16996 0.08582 0.75900
O 	O 	0.81000 0.02190 0.10114 -0.76000
O 	O 	0.76470 0.18020 0.98754 -0.77700
O 	O 	0.62540 0.13990 0.12511 -0.49200
O 	O 	0.93440 0.31830 0.11821 -0.48700
P 	P 	0.38704 0.16996 0.41418 0.75700
O 	O 	0.21190 0.02190 0.39886 -0.76200
O 	O 	0.41550 0.18020 0.51246 -0.77600
O 	O 	0.51450 0.13990 0.37489 -0.49200
O 	O 	0.38390 0.31830 0.38179 -0.48800
P 	P 	0.78292 0.61296 0.08085 0.75800
O 	O 	0.81000 0.78810 0.06553 -0.76200
O 	O 	0.76470 0.58450 0.17913 -0.77700
O 	O 	0.62540 0.48550 0.04156 -0.49300
O 	O 	0.93440 0.61610 0.04846 -0.48700
P 	P 	0.83004 0.21708 0.74752 0.75700
O 	O 	0.97810 0.19000 0.73220 -0.76600
O 	O 	0.81980 0.23530 0.84580 -0.77500
O 	O 	0.86010 0.37460 0.70823 -0.49300
O 	O 	0.68170 0.06560 0.71513 -0.48900
P 	P 	0.61296 0.83004 0.91418 0.75800
O 	O 	0.78810 0.97810 0.89886 -0.76000
O 	O 	0.58450 0.81980 0.01246 -0.77700
O 	O 	0.48550 0.86010 0.87489 -0.49100
O 	O 	0.61610 0.68170 0.88179 -0.48900
P 	P 	0.21708 0.38704 0.58085 0.75800
O 	O 	0.19000 0.21190 0.56553 -0.76300
O 	O 	0.23530 0.41550 0.67913 -0.77700
O 	O 	0.37460 0.51450 0.54156 -0.49300
O 	O 	0.06560 0.38390 0.54846 -0.48800
P 	P 	0.16996 0.78292 0.24752 0.75800
O 	O 	0.02190 0.81000 0.23220 -0.76700
O 	O 	0.18020 0.76470 0.34580 -0.77600
O 	O 	0.13990 0.62540 0.20823 -0.49400
O 	O 	0.31830 0.93440 0.21513 -0.49000
Mg	Mg	0.55164 0.44836 0.91667 1.46800
Mg	Mg	0.55164 0.10329 0.25000 1.46800
Mg	Mg	0.89671 0.44836 0.58333 1.46800
Mg	Mg	0.44836 0.55164 0.41667 1.46800
Mg	Mg	0.44836 0.89671 0.75000 1.46800
Mg	Mg	0.10329 0.55164 0.08333 1.46700
B 	B 	0.15100 0.30200 0.75000 2.06100
B 	B 	0.69800 0.84900 0.08333 2.05500
B 	B 	0.15100 0.84900 0.41667 2.05500
B 	B 	0.84900 0.69800 0.25000 2.06200
B 	B 	0.30200 0.15100 0.58333 2.05700
B 	B 	0.84900 0.15100 0.91667 2.04800
