data_crystal

_cell_length_a 12.14790
_cell_length_b 13.03210
_cell_length_c 13.12810
_cell_angle_alpha 64.68900
_cell_angle_beta  89.71100
_cell_angle_gamma 64.50900

_symmetry_space_group_name_	'P 1'
_symmetry_space_group_name_H-M	'P 1'

loop_
_symmetry_equiv_pos_as_xyz
  x,y,z

loop_
_atom_site_label
_atom_site_type_symbol
_atom_site_fract_x
_atom_site_fract_y
_atom_site_fract_z
_atom_site_charge
Cu	Cu	0.79560 0.51870 0.71180 0.92600
Cu	Cu	0.93470 0.37310 0.39000 0.90200
N 	N 	0.66700 0.63900 0.75300 -0.25700
N 	N 	0.62700 0.38200 0.95600 -0.18100
N 	N 	0.79100 0.51800 0.39100 -0.26800
N 	N 	0.99800 0.33400 0.54200 -0.04900
N 	N 	0.80900 0.20200 0.19000 -0.29000
H 	H 	0.87780 0.20500 0.18080 0.08500
H 	H 	0.73860 0.27050 0.15190 0.16000
N 	N 	0.68200 0.27200 0.48500 0.01500
O 	O 	0.88600 0.61700 0.67800 -0.49000
O 	O 	0.91400 0.78200 0.61100 -0.41900
O 	O 	0.52900 0.63300 0.87680 -0.32600
O 	O 	0.75000 0.39300 0.82000 -0.32900
O 	O 	0.84800 0.38300 0.26200 -0.45400
O 	O 	0.69200 0.45300 0.13000 -0.35900
O 	O 	0.71600 0.58300 0.52800 -0.32600
O 	O 	0.93000 0.39000 0.68300 -0.30700
O 	O 	0.87000 0.10800 0.49500 -0.30500
C 	C 	0.71400 0.82000 0.65300 -0.25400
C 	C 	0.67700 0.94700 0.60500 0.16900
H 	H 	0.73380 0.97630 0.57540 -0.01700
C 	C 	0.55800 0.03600 0.60000 -0.24500
H 	H 	0.53380 0.12410 0.56380 0.11400
C 	C 	0.47800 0.99200 0.64800 0.17800
H 	H 	0.39920 0.05020 0.64770 -0.03100
C 	C 	0.51200 0.86400 0.69800 -0.24800
H 	H 	0.45510 0.83690 0.72990 0.13400
C 	C 	0.63000 0.77300 0.70200 0.20500
C 	C 	0.61600 0.58300 0.83100 0.12900
C 	C 	0.66900 0.44000 0.87100 0.12400
C 	C 	0.69400 0.24100 0.01300 -0.16600
H 	H 	0.70240 0.21140 0.95580 0.12100
H 	H 	0.64700 0.20700 0.06510 0.06800
C 	C 	0.82400 0.19100 0.08200 -0.04400
H 	H 	0.87670 0.10140 0.10050 0.05400
H 	H 	0.86300 0.24090 0.03620 0.03200
C 	C 	0.84300 0.73200 0.65000 0.39900
C 	C 	0.67400 0.59900 0.20000 -0.23800
C 	C 	0.58300 0.70400 0.10000 0.13500
H 	H 	0.56910 0.69030 0.03810 -0.02000
C 	C 	0.51500 0.82100 0.09000 -0.20800
H 	H 	0.45630 0.88820 0.02300 0.09500
C 	C 	0.53500 0.84200 0.18500 0.11600
H 	H 	0.49080 0.92340 0.17940 -0.01300
C 	C 	0.62000 0.74200 0.28400 -0.22600
H 	H 	0.62880 0.75490 0.34680 0.11600
C 	C 	0.69500 0.62000 0.29200 0.17800
C 	C 	0.79300 0.51400 0.49400 0.14300
C 	C 	0.91700 0.40300 0.58000 0.07700
C 	C 	0.11700 0.23300 0.61900 -1.36400
H 	H 	0.13200 0.25290 0.67900 0.49800
H 	H 	0.18260 0.23120 0.57600 0.44300
N 	N 	0.22800 0.02700 0.76200 1.41500
H 	H 	0.22700 0.96920 0.82580 -0.09800
H 	H 	0.29260 0.03800 0.75370 -0.42800
C 	C 	0.12500 0.10400 0.67300 2.48600
H 	H 	0.04730 0.10990 0.69670 -0.75300
H 	H 	0.13490 0.07430 0.61570 -0.44100
C 	C 	0.74400 0.47000 0.19800 0.39800
C 	C 	0.75400 0.20900 0.42700 0.04300
H 	H 	0.76600 0.27110 0.35990 0.01000
H 	H 	0.70920 0.17640 0.40050 0.02600
C 	C 	0.56600 0.38700 0.40500 -0.44100
H 	H 	0.51670 0.42890 0.44630 0.16200
H 	H 	0.51840 0.36020 0.37260 0.15600
H 	H 	0.58580 0.44520 0.34380 0.16400
C 	C 	0.70900 0.24900 0.58500 -0.45400
H 	H 	0.78570 0.16980 0.62450 0.16700
H 	H 	0.64330 0.23990 0.62350 0.16600
H 	H 	0.71800 0.31780 0.58620 0.16800
Na	Na	0.98100 0.10700 0.34410 0.57600
H 	H 	0.17110 0.06010 0.63090 -0.34500
H 	H 	0.17670 0.05730 0.75040 -1.80300
H 	H 	0.02150 0.02640 0.75020 0.07100
H 	H 	0.95500 0.12980 0.62990 0.00800
N 	N 	0.02000 0.08500 0.68500 0.11800
Cu	Cu	0.20440 0.48130 0.28820 0.92200
Cu	Cu	0.06530 0.62690 0.61000 0.90200
N 	N 	0.33300 0.36100 0.24700 -0.25800
N 	N 	0.37300 0.61800 0.04400 -0.25300
N 	N 	0.20900 0.48200 0.60900 -0.26800
N 	N 	0.00200 0.66600 0.45800 -0.05300
N 	N 	0.19100 0.79800 0.81000 -0.27900
H 	H 	0.12220 0.79500 0.81920 0.09300
H 	H 	0.26140 0.72950 0.84810 0.16400
N 	N 	0.31800 0.72800 0.51500 0.01300
O 	O 	0.11400 0.38300 0.32200 -0.49400
O 	O 	0.08600 0.21800 0.38900 -0.42000
O 	O 	0.47100 0.36700 0.12320 -0.34800
O 	O 	0.25000 0.60700 0.18000 -0.34500
O 	O 	0.15200 0.61700 0.73800 -0.44800
O 	O 	0.30800 0.54700 0.87000 -0.34100
O 	O 	0.28400 0.41700 0.47200 -0.32600
O 	O 	0.07000 0.61000 0.31700 -0.31400
O 	O 	0.13000 0.89200 0.50500 -0.30400
C 	C 	0.28600 0.18000 0.34700 -0.24600
C 	C 	0.32300 0.05300 0.39500 0.14700
H 	H 	0.26620 0.02370 0.42460 -0.01100
C 	C 	0.44200 0.96400 0.40000 -0.21800
H 	H 	0.46620 0.87590 0.43620 0.10300
C 	C 	0.52200 0.00800 0.35200 0.14400
H 	H 	0.60080 0.94980 0.35230 -0.01900
C 	C 	0.48800 0.13600 0.30200 -0.23200
H 	H 	0.54490 0.16310 0.27010 0.12400
C 	C 	0.37000 0.22700 0.29800 0.19000
C 	C 	0.38400 0.41700 0.16900 0.12200
C 	C 	0.33100 0.56000 0.12900 0.12200
C 	C 	0.30600 0.75900 0.98700 0.10700
H 	H 	0.29760 0.78860 0.04420 -0.00700
H 	H 	0.35300 0.79300 0.93490 0.00800
C 	C 	0.17600 0.80900 0.91800 -0.17100
H 	H 	0.12330 0.89860 0.89950 0.10600
H 	H 	0.13700 0.75910 0.96380 0.09200
C 	C 	0.15700 0.26800 0.35000 0.39300
C 	C 	0.32600 0.40100 0.80000 -0.22800
C 	C 	0.41700 0.29600 0.90000 0.13100
H 	H 	0.43090 0.30970 0.96190 0.00300
C 	C 	0.48500 0.17900 0.91000 -0.19800
H 	H 	0.54370 0.11180 0.97700 0.11400
C 	C 	0.46500 0.15800 0.81500 0.11800
H 	H 	0.50920 0.07660 0.82060 -0.00300
C 	C 	0.38000 0.25800 0.71600 -0.22100
H 	H 	0.37120 0.24510 0.65320 0.11500
C 	C 	0.30500 0.38000 0.70800 0.17700
C 	C 	0.20700 0.48600 0.50600 0.14300
C 	C 	0.08300 0.59700 0.42000 0.07900
C 	C 	0.88300 0.76700 0.38100 -1.34800
H 	H 	0.86800 0.74710 0.32100 0.48900
H 	H 	0.81740 0.76880 0.42400 0.43800
N 	N 	0.77200 0.97300 0.23800 1.41800
H 	H 	0.77300 0.03080 0.17420 -0.11200
H 	H 	0.70740 0.96200 0.24630 -0.43500
C 	C 	0.87500 0.89600 0.32700 2.45900
H 	H 	0.95270 0.89010 0.30330 -0.73900
H 	H 	0.86510 0.92570 0.38430 -0.43800
C 	C 	0.25600 0.53000 0.80200 0.39600
C 	C 	0.24600 0.79100 0.57300 0.04400
H 	H 	0.23400 0.72890 0.64010 0.00900
H 	H 	0.29080 0.82360 0.59950 0.02600
C 	C 	0.43400 0.61300 0.59500 -0.43800
H 	H 	0.48330 0.57110 0.55370 0.16100
H 	H 	0.48160 0.63980 0.62740 0.15500
H 	H 	0.41420 0.55480 0.65620 0.16300
C 	C 	0.29100 0.75100 0.41500 -0.44800
H 	H 	0.21430 0.83020 0.37550 0.16400
H 	H 	0.35670 0.76010 0.37650 0.16400
H 	H 	0.28200 0.68220 0.41380 0.16600
Na	Na	0.01900 0.89300 0.65590 0.57600
H 	H 	0.82890 0.93990 0.36910 -0.33800
H 	H 	0.82330 0.94270 0.24960 -1.79600
H 	H 	0.97850 0.97360 0.24980 0.07200
H 	H 	0.04500 0.87020 0.37010 0.01000
N 	N 	0.98000 0.91500 0.31500 0.10600
Cu	Cu	0.50000 0.50000 -0.00000 0.89600
