data_crystal

_cell_length_a 6.55620
_cell_length_b 10.64240
_cell_length_c 18.29510
_cell_angle_alpha 90.00000
_cell_angle_beta  98.07000
_cell_angle_gamma 90.00000

_symmetry_space_group_name_	'P 1'
_symmetry_space_group_name_H-M	'P 1'

loop_
_symmetry_equiv_pos_as_xyz
  x,y,z

loop_
_atom_site_label
_atom_site_type_symbol
_atom_site_fract_x
_atom_site_fract_y
_atom_site_fract_z
_atom_site_charge
Ca	Ca	0.24775 0.59634 0.52252 1.49200
S 	S 	0.11555 0.79901 0.20973 -0.00600
O 	O 	0.09730 0.89788 0.05628 -0.59500
O 	O 	0.42830 0.94056 0.06111 -0.64400
O 	O 	0.32020 0.68166 0.40910 -0.46300
O 	O 	0.99940 0.71150 0.35000 -0.32600
C 	C 	0.27610 0.90140 0.09060 0.43900
C 	C 	0.19090 0.71680 0.35471 0.33200
C 	C 	0.47290 0.81420 0.28634 -0.05000
H 	H 	0.58300 0.80820 0.32590 0.04600
C 	C 	0.31310 0.86150 0.16868 -0.17000
C 	C 	0.27710 0.77410 0.29075 -0.07400
C 	C 	0.49390 0.86570 0.21642 0.03200
H 	H 	0.61890 0.89930 0.20400 -0.01300
Ca	Ca	0.25225 0.09634 0.97748 1.49100
S 	S 	0.38445 0.29901 0.29027 -0.00800
O 	O 	0.40270 0.39788 0.44372 -0.59600
O 	O 	0.07170 0.44056 0.43889 -0.64400
O 	O 	0.17980 0.18166 0.09090 -0.46000
O 	O 	0.50060 0.21150 0.15000 -0.32200
C 	C 	0.22390 0.40140 0.40940 0.43900
C 	C 	0.30910 0.21680 0.14529 0.32900
C 	C 	0.02710 0.31420 0.21366 -0.04800
H 	H 	0.91700 0.30820 0.17410 0.04500
C 	C 	0.18690 0.36150 0.33132 -0.17100
C 	C 	0.22290 0.27410 0.20925 -0.07400
C 	C 	0.00610 0.36570 0.28358 0.03300
H 	H 	0.88110 0.39930 0.29600 -0.01400
Ca	Ca	0.75225 0.40366 0.47748 1.49200
S 	S 	0.88445 0.20099 0.79027 -0.00600
O 	O 	0.90270 0.10212 0.94372 -0.59500
O 	O 	0.57170 0.05944 0.93889 -0.64400
O 	O 	0.67980 0.31834 0.59090 -0.46300
O 	O 	0.00060 0.28850 0.65000 -0.32600
C 	C 	0.72390 0.09860 0.90940 0.43900
C 	C 	0.80910 0.28320 0.64529 0.33200
C 	C 	0.52710 0.18580 0.71366 -0.05000
H 	H 	0.41700 0.19180 0.67410 0.04600
C 	C 	0.68690 0.13850 0.83132 -0.17000
C 	C 	0.72290 0.22590 0.70925 -0.07400
C 	C 	0.50610 0.13430 0.78358 0.03200
H 	H 	0.38110 0.10070 0.79600 -0.01300
Ca	Ca	0.74775 0.90366 0.02252 1.49100
S 	S 	0.61555 0.70099 0.70973 -0.00800
O 	O 	0.59730 0.60212 0.55628 -0.59600
O 	O 	0.92830 0.55944 0.56111 -0.64400
O 	O 	0.82020 0.81834 0.90910 -0.46000
O 	O 	0.49940 0.78850 0.85000 -0.32200
C 	C 	0.77610 0.59860 0.59060 0.43900
C 	C 	0.69090 0.78320 0.85471 0.32900
C 	C 	0.97290 0.68580 0.78634 -0.04800
H 	H 	0.08300 0.69180 0.82590 0.04500
C 	C 	0.81310 0.63850 0.66868 -0.17100
C 	C 	0.77710 0.72590 0.79075 -0.07400
C 	C 	0.99390 0.63430 0.71642 0.03300
H 	H 	0.11890 0.60070 0.70400 -0.01400
