data_crystal

_cell_length_a 22.65050
_cell_length_b 11.23520
_cell_length_c 12.79610
_cell_angle_alpha 90.00000
_cell_angle_beta  90.00000
_cell_angle_gamma 90.00000

_symmetry_space_group_name_	'P 1'
_symmetry_space_group_name_H-M	'P 1'

loop_
_symmetry_equiv_pos_as_xyz
  x,y,z

loop_
_atom_site_label
_atom_site_type_symbol
_atom_site_fract_x
_atom_site_fract_y
_atom_site_fract_z
_atom_site_charge
Ca	Ca	0.43405 0.62210 0.07690 1.49100
Ca	Ca	0.50857 0.49376 0.31274 1.52000
S 	S 	0.50879 0.03255 0.22685 0.01200
S 	S 	0.27489 0.48743 0.40768 0.05100
C 	C 	0.28300 0.49970 0.20790 -0.02700
H 	H 	0.29850 0.50280 0.13890 0.00600
C 	C 	0.22239 0.50950 0.23170 -0.00500
H 	H 	0.19250 0.51790 0.18010 0.01400
O 	O 	0.48510 0.44930 0.99200 -0.52100
O 	O 	0.41051 0.49610 0.21700 -0.56800
C 	C 	0.49555 0.78620 0.23570 0.35700
C 	C 	0.38205 0.47350 0.29950 0.35700
O 	O 	0.50929 0.29070 0.25280 -0.43200
O 	O 	0.49504 0.78990 0.13690 -0.45300
O 	O 	0.48640 0.69480 0.28930 -0.49400
O 	O 	0.53030 0.52320 0.12960 -0.58900
C 	C 	0.31680 0.48510 0.29530 -0.12100
O 	O 	0.40658 0.44330 0.38320 -0.38500
O 	O 	0.52925 0.29870 0.42280 -0.53000
O 	O 	0.10931 0.49480 0.32660 -0.46500
O 	O 	0.14891 0.54850 0.48030 -0.46400
C 	C 	0.50683 0.89930 0.29300 -0.10400
C 	C 	0.21089 0.50590 0.33670 -0.11800
C 	C 	0.52090 0.10960 0.34130 -0.10600
C 	C 	0.15150 0.51740 0.38610 0.40400
C 	C 	0.52340 0.03490 0.42610 -0.01100
H 	H 	0.53010 0.06120 0.49570 0.03800
C 	C 	0.52070 0.24150 0.33810 0.36600
C 	C 	0.51480 0.91450 0.39850 -0.01400
H 	H 	0.51460 0.85100 0.44750 0.04000
C 	C 	0.52744 0.44740 0.05660 0.57100
C 	C 	0.57420 0.35290 0.04650 -1.20400
H 	H 	0.61270 0.38640 0.06560 0.35600
H 	H 	0.57550 0.32440 0.97410 0.43100
H 	H 	0.56480 0.28640 0.09310 0.36600
Ca	Ca	0.56595 0.37790 0.57690 1.50400
Ca	Ca	0.49143 0.50624 0.81274 1.52000
S 	S 	0.49121 0.96745 0.72685 0.05600
S 	S 	0.72511 0.51257 0.90768 0.10300
C 	C 	0.71700 0.50030 0.70790 -0.02500
H 	H 	0.70150 0.49720 0.63890 0.03700
C 	C 	0.77761 0.49050 0.73170 0.00700
H 	H 	0.80750 0.48210 0.68010 0.02900
O 	O 	0.51490 0.55070 0.49200 -0.59900
O 	O 	0.58949 0.50390 0.71700 -0.54500
C 	C 	0.50445 0.21380 0.73570 0.35800
C 	C 	0.61795 0.52650 0.79950 0.35400
O 	O 	0.49071 0.70930 0.75280 -0.41700
O 	O 	0.50496 0.21010 0.63690 -0.41100
O 	O 	0.51360 0.30520 0.78930 -0.48500
O 	O 	0.46970 0.47680 0.62960 -0.57800
C 	C 	0.68320 0.51490 0.79530 -0.11200
O 	O 	0.59342 0.55670 0.88320 -0.35700
O 	O 	0.47075 0.70130 0.92280 -0.50000
O 	O 	0.89069 0.50520 0.82660 -0.45600
O 	O 	0.85109 0.45150 0.98030 -0.42200
C 	C 	0.49317 0.10070 0.79300 -0.09900
C 	C 	0.78911 0.49410 0.83670 -0.11500
C 	C 	0.47910 0.89040 0.84130 -0.09700
C 	C 	0.84850 0.48260 0.88610 0.40500
C 	C 	0.47660 0.96510 0.92610 -0.00700
H 	H 	0.46990 0.93880 0.99570 0.06900
C 	C 	0.47930 0.75850 0.83810 0.36500
C 	C 	0.48520 0.08550 0.89850 -0.00300
H 	H 	0.48540 0.14900 0.94750 0.05700
C 	C 	0.47256 0.55260 0.55660 0.62400
C 	C 	0.42580 0.64710 0.54650 -0.96200
H 	H 	0.38730 0.61360 0.56560 0.31300
H 	H 	0.42450 0.67560 0.47410 0.30400
H 	H 	0.43520 0.71360 0.59310 0.31900
Ca	Ca	0.93405 0.37790 0.07690 1.48900
Ca	Ca	0.00857 0.50624 0.31274 1.52000
S 	S 	0.00879 0.96745 0.22685 0.01400
S 	S 	0.77489 0.51257 0.40768 0.05000
C 	C 	0.78300 0.50030 0.20790 -0.02700
H 	H 	0.79850 0.49720 0.13890 0.00600
C 	C 	0.72239 0.49050 0.23170 -0.00600
H 	H 	0.69250 0.48210 0.18010 0.01400
O 	O 	0.98510 0.55070 0.99200 -0.52800
O 	O 	0.91051 0.50390 0.21700 -0.57000
C 	C 	0.99555 0.21380 0.23570 0.35000
C 	C 	0.88205 0.52650 0.29950 0.35700
O 	O 	0.00929 0.70930 0.25280 -0.43000
O 	O 	0.99504 0.21010 0.13690 -0.45300
O 	O 	0.98640 0.30520 0.28930 -0.49600
O 	O 	0.03030 0.47680 0.12960 -0.58800
C 	C 	0.81680 0.51490 0.29530 -0.12200
O 	O 	0.90658 0.55670 0.38320 -0.38700
O 	O 	0.02925 0.70130 0.42280 -0.52900
O 	O 	0.60931 0.50520 0.32660 -0.46600
O 	O 	0.64891 0.45150 0.48030 -0.46400
C 	C 	0.00683 0.10070 0.29300 -0.09600
C 	C 	0.71089 0.49410 0.33670 -0.11800
C 	C 	0.02090 0.89040 0.34130 -0.10600
C 	C 	0.65150 0.48260 0.38610 0.40400
C 	C 	0.02340 0.96510 0.42610 -0.01000
H 	H 	0.03010 0.93880 0.49570 0.03900
C 	C 	0.02070 0.75850 0.33810 0.36600
C 	C 	0.01480 0.08550 0.39850 -0.01500
H 	H 	0.01460 0.14900 0.44750 0.04300
C 	C 	0.02744 0.55260 0.05660 0.58000
C 	C 	0.07420 0.64710 0.04650 -1.20600
H 	H 	0.11270 0.61360 0.06560 0.35700
H 	H 	0.07550 0.67560 0.97410 0.43100
H 	H 	0.06480 0.71360 0.09310 0.36800
Ca	Ca	0.06595 0.62210 0.57690 1.50400
Ca	Ca	0.99143 0.49376 0.81274 1.51900
S 	S 	0.99121 0.03255 0.72685 0.05400
S 	S 	0.22511 0.48743 0.90768 0.10300
C 	C 	0.21700 0.49970 0.70790 -0.02500
H 	H 	0.20150 0.50280 0.63890 0.03700
C 	C 	0.27761 0.50950 0.73170 0.00700
H 	H 	0.30750 0.51790 0.68010 0.03000
O 	O 	0.01490 0.44930 0.49200 -0.59200
O 	O 	0.08949 0.49610 0.71700 -0.54300
C 	C 	0.00445 0.78620 0.73570 0.36300
C 	C 	0.11795 0.47350 0.79950 0.35400
O 	O 	0.99071 0.29070 0.75280 -0.41900
O 	O 	0.00496 0.78990 0.63690 -0.41000
O 	O 	0.01360 0.69480 0.78930 -0.48400
O 	O 	0.96970 0.52320 0.62960 -0.57900
C 	C 	0.18320 0.48510 0.79530 -0.11200
O 	O 	0.09342 0.44330 0.88320 -0.35500
O 	O 	0.97075 0.29870 0.92280 -0.50200
O 	O 	0.39069 0.49480 0.82660 -0.45600
O 	O 	0.35109 0.54850 0.98030 -0.42200
C 	C 	0.99317 0.89930 0.79300 -0.10500
C 	C 	0.28911 0.50590 0.83670 -0.11500
C 	C 	0.97910 0.10960 0.84130 -0.09700
C 	C 	0.34850 0.51740 0.88610 0.40500
C 	C 	0.97660 0.03490 0.92610 -0.00900
H 	H 	0.96990 0.06120 0.99570 0.06800
C 	C 	0.97930 0.24150 0.83810 0.36500
C 	C 	0.98520 0.91450 0.89850 -0.00100
H 	H 	0.98540 0.85100 0.94750 0.05500
C 	C 	0.97256 0.44740 0.55660 0.61500
C 	C 	0.92580 0.35290 0.54650 -0.95400
H 	H 	0.88730 0.38640 0.56560 0.31000
H 	H 	0.92450 0.32440 0.47410 0.30100
H 	H 	0.93520 0.28640 0.59310 0.31600
