data_crystal

_cell_length_a 12.39860
_cell_length_b 16.93640
_cell_length_c 17.55280
_cell_angle_alpha 90.00000
_cell_angle_beta  105.20600
_cell_angle_gamma 90.00000

_symmetry_space_group_name_	'P 1'
_symmetry_space_group_name_H-M	'P 1'

loop_
_symmetry_equiv_pos_as_xyz
  x,y,z

loop_
_atom_site_label
_atom_site_type_symbol
_atom_site_fract_x
_atom_site_fract_y
_atom_site_fract_z
_atom_site_charge
Cd	Cd	0.16814 0.51875 0.29594 1.16000
N 	N 	0.08020 0.61650 0.21410 -0.27900
N 	N 	0.97820 0.71950 0.18270 -0.10400
N 	N 	0.06230 0.72960 0.14620 -0.10400
N 	N 	0.62380 0.96500 0.11260 -0.09400
N 	N 	0.60910 0.03470 0.07620 -0.10200
N 	N 	0.47940 0.01070 0.14340 -0.25600
N 	N 	0.12870 0.40470 0.22600 -0.27000
N 	N 	0.13770 0.27730 0.19370 -0.11400
N 	N 	0.08190 0.31880 0.13070 -0.09600
N 	N 	0.89510 0.08630 0.00940 -0.09800
N 	N 	0.97160 0.08730 0.96580 -0.09600
N 	N 	0.79800 0.04500 0.89480 -0.26200
C 	C 	0.11950 0.66580 0.16750 0.09000
H 	H 	0.18380 0.65470 0.15160 -0.03200
C 	C 	0.99120 0.65240 0.22200 0.08300
H 	H 	0.94380 0.63360 0.25110 -0.02200
C 	C 	0.89310 0.78020 0.17880 -0.01500
H 	H 	0.93010 0.82920 0.19900 0.03300
H 	H 	0.84690 0.76480 0.21310 0.03000
C 	C 	0.82090 0.79440 0.09980 -0.14100
H 	H 	0.86340 0.82180 0.06870 0.07400
H 	H 	0.79740 0.74410 0.07460 0.06700
C 	C 	0.70920 0.84700 0.10010 -0.08500
H 	H 	0.67410 0.82660 0.13930 0.05200
H 	H 	0.65560 0.84430 0.04880 0.04800
C 	C 	0.74170 0.92160 0.11700 -0.06100
H 	H 	0.79250 0.92590 0.16930 0.04500
H 	H 	0.77720 0.94310 0.07850 0.05000
C 	C 	0.54880 0.94980 0.15230 0.08000
H 	H 	0.54540 0.90430 0.18130 -0.01900
C 	C 	0.51950 0.05990 0.09630 0.09600
H 	H 	0.48610 0.10810 0.07920 -0.02300
C 	C 	0.16330 0.33090 0.24880 0.08500
H 	H 	0.20270 0.31900 0.30030 -0.01600
C 	C 	0.07670 0.39370 0.15090 0.07900
H 	H 	0.04120 0.43330 0.11670 -0.02500
C 	C 	0.03370 0.28030 0.05440 -0.05900
H 	H 	0.03930 0.31590 0.01230 0.04600
H 	H 	0.07690 0.23340 0.05060 0.05000
C 	C 	0.91480 0.25760 0.04300 -0.07400
H 	H 	0.87290 0.30490 0.04750 0.04500
H 	H 	0.88680 0.23810 0.98950 0.06100
C 	C 	0.88950 0.19650 0.09830 -0.12300
H 	H 	0.80920 0.19530 0.09100 0.06100
H 	H 	0.92280 0.21400 0.15200 0.06500
C 	C 	0.92530 0.11890 0.09130 -0.00900
H 	H 	0.00600 0.11710 0.11160 0.02000
H 	H 	0.89370 0.08480 0.12430 0.02600
C 	C 	0.91010 0.06080 0.89660 0.07600
H 	H 	0.93870 0.05340 0.85320 -0.02200
C 	C 	0.79250 0.06770 0.96570 0.08300
H 	H 	0.72750 0.07030 0.98270 -0.00700
Cd	Cd	0.33186 0.01875 0.20406 1.16100
N 	N 	0.41980 0.11650 0.28590 -0.27800
N 	N 	0.52180 0.21950 0.31730 -0.10400
N 	N 	0.43770 0.22960 0.35380 -0.10500
N 	N 	0.87620 0.46500 0.38740 -0.09400
N 	N 	0.89090 0.53470 0.42380 -0.10200
N 	N 	0.02060 0.51070 0.35660 -0.25600
N 	N 	0.37130 0.90470 0.27400 -0.27000
N 	N 	0.36230 0.77730 0.30630 -0.11400
N 	N 	0.41810 0.81880 0.36930 -0.09600
N 	N 	0.60490 0.58630 0.49060 -0.09600
N 	N 	0.52840 0.58730 0.53420 -0.09700
N 	N 	0.70200 0.54500 0.60520 -0.26300
C 	C 	0.38050 0.16580 0.33250 0.09000
H 	H 	0.31620 0.15470 0.34840 -0.03200
C 	C 	0.50880 0.15240 0.27800 0.08400
H 	H 	0.55620 0.13360 0.24890 -0.02200
C 	C 	0.60690 0.28020 0.32120 -0.01500
H 	H 	0.56990 0.32920 0.30100 0.03400
H 	H 	0.65310 0.26480 0.28690 0.03000
C 	C 	0.67910 0.29440 0.40020 -0.14100
H 	H 	0.63660 0.32180 0.43130 0.07400
H 	H 	0.70260 0.24410 0.42540 0.06800
C 	C 	0.79080 0.34700 0.39990 -0.08500
H 	H 	0.82590 0.32660 0.36070 0.05200
H 	H 	0.84440 0.34430 0.45120 0.04800
C 	C 	0.75830 0.42160 0.38300 -0.06100
H 	H 	0.70750 0.42590 0.33070 0.04600
H 	H 	0.72280 0.44310 0.42150 0.05000
C 	C 	0.95120 0.44980 0.34770 0.07800
H 	H 	0.95460 0.40430 0.31870 -0.01900
C 	C 	0.98050 0.55990 0.40370 0.09600
H 	H 	0.01390 0.60810 0.42080 -0.02200
C 	C 	0.33670 0.83090 0.25120 0.08600
H 	H 	0.29730 0.81900 0.19970 -0.01600
C 	C 	0.42330 0.89370 0.34910 0.08000
H 	H 	0.45880 0.93330 0.38330 -0.02500
C 	C 	0.46630 0.78030 0.44560 -0.05400
H 	H 	0.46070 0.81590 0.48770 0.04500
H 	H 	0.42310 0.73340 0.44940 0.04900
C 	C 	0.58520 0.75760 0.45700 -0.08100
H 	H 	0.62710 0.80490 0.45250 0.04700
H 	H 	0.61320 0.73810 0.51050 0.06300
C 	C 	0.61050 0.69650 0.40170 -0.11400
H 	H 	0.69080 0.69530 0.40900 0.05900
H 	H 	0.57720 0.71400 0.34800 0.06200
C 	C 	0.57470 0.61890 0.40870 -0.01800
H 	H 	0.49400 0.61710 0.38840 0.02500
H 	H 	0.60630 0.58480 0.37570 0.02900
C 	C 	0.58990 0.56080 0.60340 0.07500
H 	H 	0.56130 0.55340 0.64680 -0.02300
C 	C 	0.70750 0.56770 0.53430 0.08100
H 	H 	0.77250 0.57030 0.51730 -0.00700
Cd	Cd	0.83186 0.48125 0.70406 1.16100
N 	N 	0.91980 0.38350 0.78590 -0.27800
N 	N 	0.02180 0.28050 0.81730 -0.10400
N 	N 	0.93770 0.27040 0.85380 -0.10400
N 	N 	0.37620 0.03500 0.88740 -0.09400
N 	N 	0.39090 0.96530 0.92380 -0.10200
N 	N 	0.52060 0.98930 0.85660 -0.25600
N 	N 	0.87130 0.59530 0.77400 -0.27000
N 	N 	0.86230 0.72270 0.80630 -0.11400
N 	N 	0.91810 0.68120 0.86930 -0.09600
N 	N 	0.10490 0.91370 0.99060 -0.09800
N 	N 	0.02840 0.91270 0.03420 -0.09600
N 	N 	0.20200 0.95500 0.10520 -0.26200
C 	C 	0.88050 0.33420 0.83250 0.09000
H 	H 	0.81620 0.34530 0.84840 -0.03200
C 	C 	0.00880 0.34760 0.77800 0.08300
H 	H 	0.05620 0.36640 0.74890 -0.02200
C 	C 	0.10690 0.21980 0.82120 -0.01500
H 	H 	0.06990 0.17080 0.80100 0.03300
H 	H 	0.15310 0.23520 0.78690 0.03000
C 	C 	0.17910 0.20560 0.90020 -0.14100
H 	H 	0.13660 0.17820 0.93130 0.07400
H 	H 	0.20260 0.25590 0.92540 0.06700
C 	C 	0.29080 0.15300 0.89990 -0.08500
H 	H 	0.32590 0.17340 0.86070 0.05200
H 	H 	0.34440 0.15570 0.95120 0.04800
C 	C 	0.25830 0.07840 0.88300 -0.06100
H 	H 	0.20750 0.07410 0.83070 0.04500
H 	H 	0.22280 0.05690 0.92150 0.05000
C 	C 	0.45120 0.05020 0.84770 0.08000
H 	H 	0.45460 0.09570 0.81870 -0.01900
C 	C 	0.48050 0.94010 0.90370 0.09600
H 	H 	0.51390 0.89190 0.92080 -0.02300
C 	C 	0.83670 0.66910 0.75120 0.08500
H 	H 	0.79730 0.68100 0.69970 -0.01600
C 	C 	0.92330 0.60630 0.84910 0.07900
H 	H 	0.95880 0.56670 0.88330 -0.02500
C 	C 	0.96630 0.71970 0.94560 -0.05900
H 	H 	0.96070 0.68410 0.98770 0.04600
H 	H 	0.92310 0.76660 0.94940 0.05000
C 	C 	0.08520 0.74240 0.95700 -0.07400
H 	H 	0.12710 0.69510 0.95250 0.04500
H 	H 	0.11320 0.76190 0.01050 0.06100
C 	C 	0.11050 0.80350 0.90170 -0.12300
H 	H 	0.19080 0.80470 0.90900 0.06100
H 	H 	0.07720 0.78600 0.84800 0.06500
C 	C 	0.07470 0.88110 0.90870 -0.00900
H 	H 	0.99400 0.88290 0.88840 0.02000
H 	H 	0.10630 0.91520 0.87570 0.02600
C 	C 	0.08990 0.93920 0.10340 0.07600
H 	H 	0.06130 0.94660 0.14680 -0.02200
C 	C 	0.20750 0.93230 0.03430 0.08300
H 	H 	0.27250 0.92970 0.01730 -0.00700
Cd	Cd	0.66814 0.98125 0.79594 1.16100
N 	N 	0.58020 0.88350 0.71410 -0.27800
N 	N 	0.47820 0.78050 0.68270 -0.10400
N 	N 	0.56230 0.77040 0.64620 -0.10500
N 	N 	0.12380 0.53500 0.61260 -0.09400
N 	N 	0.10910 0.46530 0.57620 -0.10200
N 	N 	0.97940 0.48930 0.64340 -0.25600
N 	N 	0.62870 0.09530 0.72600 -0.27000
N 	N 	0.63770 0.22270 0.69370 -0.11400
N 	N 	0.58190 0.18120 0.63070 -0.09600
N 	N 	0.39510 0.41370 0.50940 -0.09600
N 	N 	0.47160 0.41270 0.46580 -0.09700
N 	N 	0.29800 0.45500 0.39480 -0.26300
C 	C 	0.61950 0.83420 0.66750 0.09000
H 	H 	0.68380 0.84530 0.65160 -0.03200
C 	C 	0.49120 0.84760 0.72200 0.08400
H 	H 	0.44380 0.86640 0.75110 -0.02200
C 	C 	0.39310 0.71980 0.67880 -0.01500
H 	H 	0.43010 0.67080 0.69900 0.03400
H 	H 	0.34690 0.73520 0.71310 0.03000
C 	C 	0.32090 0.70560 0.59980 -0.14100
H 	H 	0.36340 0.67820 0.56870 0.07400
H 	H 	0.29740 0.75590 0.57460 0.06800
C 	C 	0.20920 0.65300 0.60010 -0.08500
H 	H 	0.17410 0.67340 0.63930 0.05200
H 	H 	0.15560 0.65570 0.54880 0.04800
C 	C 	0.24170 0.57840 0.61700 -0.06100
H 	H 	0.29250 0.57410 0.66930 0.04600
H 	H 	0.27720 0.55690 0.57850 0.05000
C 	C 	0.04880 0.55020 0.65230 0.07800
H 	H 	0.04540 0.59570 0.68130 -0.01900
C 	C 	0.01950 0.44010 0.59630 0.09600
H 	H 	0.98610 0.39190 0.57920 -0.02200
C 	C 	0.66330 0.16910 0.74880 0.08600
H 	H 	0.70270 0.18100 0.80030 -0.01600
C 	C 	0.57670 0.10630 0.65090 0.08000
H 	H 	0.54120 0.06670 0.61670 -0.02500
C 	C 	0.53370 0.21970 0.55440 -0.05400
H 	H 	0.53930 0.18410 0.51230 0.04500
H 	H 	0.57690 0.26660 0.55060 0.04900
C 	C 	0.41480 0.24240 0.54300 -0.08100
H 	H 	0.37290 0.19510 0.54750 0.04700
H 	H 	0.38680 0.26190 0.48950 0.06300
C 	C 	0.38950 0.30350 0.59830 -0.11400
H 	H 	0.30920 0.30470 0.59100 0.05900
H 	H 	0.42280 0.28600 0.65200 0.06200
C 	C 	0.42530 0.38110 0.59130 -0.01800
H 	H 	0.50600 0.38290 0.61160 0.02500
H 	H 	0.39370 0.41520 0.62430 0.02900
C 	C 	0.41010 0.43920 0.39660 0.07500
H 	H 	0.43870 0.44660 0.35320 -0.02300
C 	C 	0.29250 0.43230 0.46570 0.08100
H 	H 	0.22750 0.42970 0.48270 -0.00700
