data_crystal

_cell_length_a 26.71760
_cell_length_b 26.71760
_cell_length_c 7.19420
_cell_angle_alpha 90.00000
_cell_angle_beta  90.00000
_cell_angle_gamma 90.00000

_symmetry_space_group_name_	'P 1'
_symmetry_space_group_name_H-M	'P 1'

loop_
_symmetry_equiv_pos_as_xyz
  x,y,z

loop_
_atom_site_label
_atom_site_type_symbol
_atom_site_fract_x
_atom_site_fract_y
_atom_site_fract_z
_atom_site_charge
I 	I 	0.69666 0.74214 0.62630 -0.45600
Cu	Cu	0.75493 0.69946 0.36550 0.84400
Cu	Cu	0.74986 0.79527 0.86630 0.84600
I 	I 	0.80722 0.75361 0.12700 -0.46200
N 	N 	0.70720 0.65930 0.21400 -0.25200
N 	N 	0.80730 0.66220 0.51660 -0.24200
N 	N 	0.79560 0.84060 0.72000 -0.24700
N 	N 	0.69950 0.83240 0.01000 -0.24200
C 	C 	0.71610 0.64780 0.04000 0.08500
C 	C 	0.66370 0.64340 0.27800 0.07300
C 	C 	0.79970 0.61530 0.55900 0.02100
C 	C 	0.84950 0.67970 0.58200 0.04400
C 	C 	0.84050 0.85600 0.77400 0.08700
C 	C 	0.78800 0.84600 0.54100 0.07200
H 	H 	0.74710 0.65810 0.99090 -0.02600
C 	C 	0.68410 0.62190 0.91900 -0.16000
C 	C 	0.62840 0.61220 0.17300 -0.15600
H 	H 	0.65470 0.65280 0.39990 -0.00500
H 	H 	0.77000 0.60000 0.51890 -0.00500
C 	C 	0.83350 0.58710 0.66100 -0.08000
C 	C 	0.87690 0.65940 0.73900 -0.11000
H 	H 	0.86320 0.70780 0.52240 0.00400
H 	H 	0.85220 0.84520 0.89070 -0.01000
C 	C 	0.87110 0.88700 0.67100 -0.16200
C 	C 	0.81950 0.87380 0.41100 -0.15100
H 	H 	0.75940 0.83050 0.49180 -0.02400
H 	H 	0.69210 0.61720 0.79300 0.08200
C 	C 	0.63960 0.60340 0.99500 0.10300
H 	H 	0.59940 0.59900 0.22860 0.08300
C 	C 	0.87170 0.60970 0.75700 0.09300
H 	H 	0.83020 0.55210 0.66440 0.05200
H 	H 	0.89640 0.67910 0.81900 0.06400
H 	H 	0.89880 0.90230 0.72780 0.08400
C 	C 	0.86150 0.89590 0.48300 0.10300
H 	H 	0.81140 0.87630 0.28400 0.07900
C 	C 	0.60640 0.57450 0.87200 -0.04400
C 	C 	0.90310 0.58230 0.88600 -0.05000
C 	C 	0.89430 0.92410 0.37400 -0.05200
C 	C 	0.62410 0.54340 0.72900 -0.00500
C 	C 	0.55520 0.58010 0.89300 -0.01100
C 	C 	0.90930 0.52990 0.87900 -0.00700
C 	C 	0.92810 0.60730 0.02800 -0.00800
C 	C 	0.94660 0.91910 0.39600 -0.00600
C 	C 	0.87690 0.95390 0.22800 -0.00300
H 	H 	0.65870 0.53840 0.71460 0.02800
C 	C 	0.59080 0.51990 0.60600 -0.11300
C 	C 	0.52200 0.55510 0.77020 -0.10100
H 	H 	0.54240 0.60060 0.98780 0.03500
H 	H 	0.89310 0.51100 0.78680 0.03000
C 	C 	0.93990 0.50640 0.01100 -0.10400
C 	C 	0.95990 0.58360 0.15600 -0.10900
H 	H 	0.92330 0.64210 0.03850 0.02600
H 	H 	0.95960 0.89860 0.49050 0.03300
C 	C 	0.97910 0.94490 0.27700 -0.10500
C 	C 	0.90910 0.98140 0.11600 -0.10800
H 	H 	0.84230 0.95540 0.20470 0.02700
H 	H 	0.60370 0.50000 0.50960 0.07000
C 	C 	0.54030 0.52510 0.62200 0.07100
H 	H 	0.48730 0.55850 0.78720 0.06700
H 	H 	0.94230 0.47130 0.00810 0.06600
C 	C 	0.96660 0.53200 0.14500 0.06200
H 	H 	0.97650 0.60230 0.24730 0.06600
H 	H 	0.01370 0.94350 0.29860 0.07000
C 	C 	0.96140 0.97260 0.12600 0.06100
H 	H 	0.89630 0.00570 0.03340 0.06900
C 	C 	0.97010 0.46290 0.38600 0.04400
C 	C 	0.91810 0.45500 0.35900 -0.03800
C 	C 	0.99320 0.44350 0.53900 -0.04600
C 	C 	0.89330 0.41930 0.47700 -0.01000
H 	H 	0.90040 0.47260 0.26730 0.03300
C 	C 	0.96870 0.41200 0.66500 -0.01600
H 	H 	0.02700 0.45160 0.56120 0.04200
C 	C 	0.91690 0.40270 0.63800 -0.02600
H 	H 	0.86140 0.40720 0.44540 0.02000
H 	H 	0.98600 0.39740 0.76520 0.02700
C 	C 	0.88920 0.36740 0.76500 0.07000
C 	C 	0.84430 0.34940 0.71000 -0.06600
C 	C 	0.90380 0.35690 0.94900 -0.04200
C 	C 	0.81450 0.31720 0.83100 0.02900
H 	H 	0.83210 0.35770 0.59100 0.04600
C 	C 	0.87310 0.32330 0.04800 -0.00500
H 	H 	0.93240 0.37140 0.00280 0.03800
H 	H 	0.78190 0.30840 0.79520 -0.02300
H 	H 	0.88290 0.31640 0.17080 0.01000
C 	C 	0.56440 0.89090 0.48000 -0.02800
H 	H 	0.56440 0.85570 0.48430 0.02500
C 	C 	0.53140 0.91930 0.59200 -0.04200
H 	H 	0.50490 0.90300 0.65240 0.03200
C 	C 	0.56900 0.99620 0.49400 -0.03300
H 	H 	0.57120 0.03130 0.49910 0.02500
C 	C 	0.59900 0.96930 0.36500 -0.01300
H 	H 	0.61980 0.98660 0.28150 0.01200
C 	C 	0.62800 0.83890 0.22800 -0.05600
H 	H 	0.60970 0.81990 0.31440 0.04400
C 	C 	0.65550 0.81750 0.06800 0.02700
H 	H 	0.64010 0.79110 0.00280 0.01200
C 	C 	0.70630 0.88180 0.03400 0.08400
H 	H 	0.73210 0.89780 0.96790 -0.02400
C 	C 	0.67570 0.91060 0.15400 -0.12600
H 	H 	0.68410 0.94400 0.17960 0.06800
C 	C 	0.34470 0.85420 0.18800 -0.04300
H 	H 	0.33130 0.85990 0.06880 0.04100
C 	C 	0.31870 0.82580 0.33200 0.02100
H 	H 	0.28430 0.82030 0.31330 -0.02200
C 	C 	0.37940 0.82810 0.53900 0.04700
H 	H 	0.39290 0.81970 0.65570 -0.00800
C 	C 	0.40380 0.86300 0.42700 -0.08300
H 	H 	0.43080 0.88060 0.47790 0.05300
I 	I 	0.30334 0.25786 0.62630 -0.45700
Cu	Cu	0.24507 0.30054 0.36550 0.84400
Cu	Cu	0.25014 0.20473 0.86630 0.84600
I 	I 	0.19278 0.24639 0.12700 -0.46200
N 	N 	0.29280 0.34070 0.21400 -0.25200
N 	N 	0.19270 0.33780 0.51660 -0.24200
N 	N 	0.20440 0.15940 0.72000 -0.24700
N 	N 	0.30050 0.16760 0.01000 -0.24100
C 	C 	0.28390 0.35220 0.04000 0.08500
C 	C 	0.33630 0.35660 0.27800 0.07300
C 	C 	0.20030 0.38470 0.55900 0.02000
C 	C 	0.15050 0.32030 0.58200 0.04500
C 	C 	0.15950 0.14400 0.77400 0.08600
C 	C 	0.21200 0.15400 0.54100 0.07100
H 	H 	0.25290 0.34190 0.99090 -0.02600
C 	C 	0.31590 0.37810 0.91900 -0.16000
C 	C 	0.37160 0.38780 0.17300 -0.15600
H 	H 	0.34530 0.34720 0.39990 -0.00500
H 	H 	0.23000 0.40000 0.51890 -0.00500
C 	C 	0.16650 0.41290 0.66100 -0.07900
C 	C 	0.12310 0.34060 0.73900 -0.11100
H 	H 	0.13680 0.29220 0.52240 0.00400
H 	H 	0.14780 0.15480 0.89070 -0.00900
C 	C 	0.12890 0.11300 0.67100 -0.15900
C 	C 	0.18050 0.12620 0.41100 -0.14900
H 	H 	0.24060 0.16950 0.49180 -0.02300
H 	H 	0.30790 0.38280 0.79300 0.08200
C 	C 	0.36040 0.39660 0.99500 0.10300
H 	H 	0.40060 0.40100 0.22860 0.08300
C 	C 	0.12830 0.39030 0.75700 0.09400
H 	H 	0.16980 0.44790 0.66440 0.05200
H 	H 	0.10360 0.32090 0.81900 0.06500
H 	H 	0.10120 0.09770 0.72780 0.08400
C 	C 	0.13850 0.10410 0.48300 0.10000
H 	H 	0.18860 0.12370 0.28400 0.07900
C 	C 	0.39360 0.42550 0.87200 -0.04400
C 	C 	0.09690 0.41770 0.88600 -0.05000
C 	C 	0.10570 0.07590 0.37400 -0.04500
C 	C 	0.37590 0.45660 0.72900 -0.00500
C 	C 	0.44480 0.41990 0.89300 -0.01100
C 	C 	0.09070 0.47010 0.87900 -0.00600
C 	C 	0.07190 0.39270 0.02800 -0.00600
C 	C 	0.05340 0.08090 0.39600 -0.01500
C 	C 	0.12310 0.04610 0.22800 -0.01100
H 	H 	0.34130 0.46160 0.71460 0.02800
C 	C 	0.40920 0.48010 0.60600 -0.11300
C 	C 	0.47800 0.44490 0.77020 -0.10100
H 	H 	0.45760 0.39940 0.98780 0.03500
H 	H 	0.10690 0.48900 0.78680 0.03000
C 	C 	0.06010 0.49360 0.01100 -0.10500
C 	C 	0.04010 0.41640 0.15600 -0.11000
H 	H 	0.07670 0.35790 0.03850 0.02600
H 	H 	0.04040 0.10140 0.49050 0.03700
C 	C 	0.02090 0.05510 0.27700 -0.09200
C 	C 	0.09090 0.01860 0.11600 -0.09600
H 	H 	0.15770 0.04460 0.20470 0.03100
H 	H 	0.39630 0.50000 0.50960 0.07000
C 	C 	0.45970 0.47490 0.62200 0.07100
H 	H 	0.51270 0.44150 0.78720 0.06700
H 	H 	0.05770 0.52870 0.00810 0.06700
C 	C 	0.03340 0.46800 0.14500 0.06500
H 	H 	0.02350 0.39770 0.24730 0.06800
H 	H 	0.98630 0.05650 0.29860 0.06400
C 	C 	0.03860 0.02740 0.12600 0.05700
H 	H 	0.10370 0.99430 0.03340 0.06200
C 	C 	0.02990 0.53710 0.38600 0.04400
C 	C 	0.08190 0.54500 0.35900 -0.03800
C 	C 	0.00680 0.55650 0.53900 -0.04200
C 	C 	0.10670 0.58070 0.47700 -0.01100
H 	H 	0.09960 0.52740 0.26730 0.03300
C 	C 	0.03130 0.58800 0.66500 -0.01700
H 	H 	0.97300 0.54840 0.56120 0.03900
C 	C 	0.08310 0.59730 0.63800 -0.02500
H 	H 	0.13860 0.59280 0.44540 0.02000
H 	H 	0.01400 0.60260 0.76520 0.02800
C 	C 	0.11080 0.63260 0.76500 0.07000
C 	C 	0.15570 0.65060 0.71000 -0.06700
C 	C 	0.09620 0.64310 0.94900 -0.04000
C 	C 	0.18550 0.68280 0.83100 0.02900
H 	H 	0.16790 0.64230 0.59100 0.04700
C 	C 	0.12690 0.67670 0.04800 -0.00700
H 	H 	0.06760 0.62860 0.00280 0.03800
H 	H 	0.21810 0.69160 0.79520 -0.02300
H 	H 	0.11710 0.68360 0.17080 0.01100
C 	C 	0.43560 0.10910 0.48000 -0.02800
H 	H 	0.43560 0.14430 0.48430 0.02500
C 	C 	0.46860 0.08070 0.59200 -0.04100
H 	H 	0.49510 0.09700 0.65240 0.03200
C 	C 	0.43100 0.00380 0.49400 -0.03000
H 	H 	0.42880 0.96870 0.49910 0.02200
C 	C 	0.40100 0.03070 0.36500 -0.01400
H 	H 	0.38020 0.01340 0.28150 0.01400
C 	C 	0.37200 0.16110 0.22800 -0.05600
H 	H 	0.39030 0.18010 0.31440 0.04400
C 	C 	0.34450 0.18250 0.06800 0.02700
H 	H 	0.35990 0.20890 0.00280 0.01200
C 	C 	0.29370 0.11820 0.03400 0.08300
H 	H 	0.26790 0.10220 0.96790 -0.02300
C 	C 	0.32430 0.08940 0.15400 -0.12500
H 	H 	0.31590 0.05600 0.17960 0.06800
C 	C 	0.65530 0.14580 0.18800 -0.04300
H 	H 	0.66870 0.14010 0.06880 0.04100
C 	C 	0.68130 0.17420 0.33200 0.02000
H 	H 	0.71570 0.17970 0.31330 -0.02100
C 	C 	0.62060 0.17190 0.53900 0.04800
H 	H 	0.60710 0.18030 0.65570 -0.00800
C 	C 	0.59620 0.13700 0.42700 -0.08400
H 	H 	0.56920 0.11940 0.47790 0.05300
I 	I 	0.74214 0.30334 0.37370 -0.45700
Cu	Cu	0.69946 0.24507 0.63450 0.84400
Cu	Cu	0.79527 0.25014 0.13370 0.84600
I 	I 	0.75361 0.19278 0.87300 -0.46100
N 	N 	0.65930 0.29280 0.78600 -0.25200
N 	N 	0.66220 0.19270 0.48340 -0.24200
N 	N 	0.84060 0.20440 0.28000 -0.24700
N 	N 	0.83240 0.30050 0.99000 -0.24100
C 	C 	0.64780 0.28390 0.96000 0.08900
C 	C 	0.64340 0.33630 0.72200 0.07200
C 	C 	0.61530 0.20030 0.44100 0.02000
C 	C 	0.67970 0.15050 0.41800 0.04500
C 	C 	0.85600 0.15950 0.22600 0.08600
C 	C 	0.84600 0.21200 0.45900 0.07200
H 	H 	0.65810 0.25290 0.00910 -0.02800
C 	C 	0.62190 0.31590 0.08100 -0.16200
C 	C 	0.61220 0.37160 0.82700 -0.15500
H 	H 	0.65280 0.34530 0.60010 -0.00500
H 	H 	0.60000 0.23000 0.48110 -0.00500
C 	C 	0.58710 0.16650 0.33900 -0.07900
C 	C 	0.65940 0.12310 0.26100 -0.11000
H 	H 	0.70780 0.13680 0.47760 0.00400
H 	H 	0.84520 0.14780 0.10930 -0.01000
C 	C 	0.88700 0.12890 0.32900 -0.16100
C 	C 	0.87380 0.18050 0.58900 -0.15000
H 	H 	0.83050 0.24060 0.50820 -0.02400
H 	H 	0.61720 0.30790 0.20700 0.08300
C 	C 	0.60340 0.36040 0.00500 0.10200
H 	H 	0.59900 0.40060 0.77140 0.08300
C 	C 	0.60970 0.12830 0.24300 0.09400
H 	H 	0.55210 0.16980 0.33560 0.05200
H 	H 	0.67910 0.10360 0.18100 0.06500
H 	H 	0.90230 0.10120 0.27220 0.08400
C 	C 	0.89590 0.13850 0.51700 0.10200
H 	H 	0.87630 0.18860 0.71600 0.07900
C 	C 	0.57450 0.39360 0.12800 -0.04500
C 	C 	0.58230 0.09690 0.11400 -0.05100
C 	C 	0.92410 0.10570 0.62600 -0.04900
C 	C 	0.54340 0.37590 0.27100 -0.00500
C 	C 	0.58010 0.44480 0.10700 -0.01100
C 	C 	0.52990 0.09070 0.12100 -0.00700
C 	C 	0.60730 0.07190 0.97200 -0.00500
C 	C 	0.91910 0.05340 0.60400 -0.01200
C 	C 	0.95390 0.12310 0.77200 -0.00500
H 	H 	0.53840 0.34130 0.28540 0.02800
C 	C 	0.51990 0.40920 0.39400 -0.11300
C 	C 	0.55510 0.47800 0.22980 -0.10100
H 	H 	0.60060 0.45760 0.01220 0.03500
H 	H 	0.51100 0.10690 0.21320 0.03000
C 	C 	0.50640 0.06010 0.98900 -0.10400
C 	C 	0.58360 0.04010 0.84400 -0.11000
H 	H 	0.64210 0.07670 0.96150 0.02600
H 	H 	0.89860 0.04040 0.50950 0.03600
C 	C 	0.94490 0.02090 0.72300 -0.09500
C 	C 	0.98140 0.09090 0.88400 -0.10600
H 	H 	0.95540 0.15770 0.79530 0.02800
H 	H 	0.50000 0.39630 0.49040 0.07000
C 	C 	0.52510 0.45970 0.37800 0.07000
H 	H 	0.55850 0.51270 0.21280 0.06700
H 	H 	0.47130 0.05770 0.99190 0.06700
C 	C 	0.53200 0.03340 0.85500 0.06500
H 	H 	0.60230 0.02350 0.75270 0.06800
H 	H 	0.94350 0.98630 0.70140 0.06400
C 	C 	0.97260 0.03860 0.87400 0.05900
H 	H 	0.00570 0.10370 0.96660 0.06900
C 	C 	0.46290 0.02990 0.61400 0.04400
C 	C 	0.45500 0.08190 0.64100 -0.03800
C 	C 	0.44350 0.00680 0.46100 -0.04200
C 	C 	0.41930 0.10670 0.52300 -0.01100
H 	H 	0.47260 0.09960 0.73270 0.03300
C 	C 	0.41200 0.03130 0.33500 -0.01700
H 	H 	0.45160 0.97300 0.43880 0.03900
C 	C 	0.40270 0.08310 0.36200 -0.02600
H 	H 	0.40720 0.13860 0.55460 0.02000
H 	H 	0.39740 0.01400 0.23480 0.02700
C 	C 	0.36740 0.11080 0.23500 0.07100
C 	C 	0.34940 0.15570 0.29000 -0.07500
C 	C 	0.35690 0.09620 0.05100 -0.02400
C 	C 	0.31720 0.18550 0.16900 0.03000
H 	H 	0.35770 0.16790 0.40900 0.05000
C 	C 	0.32330 0.12690 0.95200 -0.02900
H 	H 	0.37140 0.06760 0.99720 0.03300
H 	H 	0.30840 0.21810 0.20480 -0.02400
H 	H 	0.31640 0.11710 0.82920 0.01800
C 	C 	0.89090 0.43560 0.52000 -0.02900
H 	H 	0.85570 0.43560 0.51570 0.02500
C 	C 	0.91930 0.46860 0.40800 -0.04200
H 	H 	0.90300 0.49510 0.34760 0.03200
C 	C 	0.99620 0.43100 0.50600 -0.03300
H 	H 	0.03130 0.42880 0.50090 0.02500
C 	C 	0.96930 0.40100 0.63500 -0.01300
H 	H 	0.98660 0.38020 0.71850 0.01200
C 	C 	0.83890 0.37200 0.77200 -0.06500
H 	H 	0.81990 0.39030 0.68560 0.04700
C 	C 	0.81750 0.34450 0.93200 0.02600
H 	H 	0.79110 0.35990 0.99720 0.01200
C 	C 	0.88180 0.29370 0.96600 0.05700
H 	H 	0.89780 0.26790 0.03210 -0.01600
C 	C 	0.91060 0.32430 0.84600 -0.10500
H 	H 	0.94400 0.31590 0.82040 0.06100
C 	C 	0.85420 0.65530 0.81200 -0.04300
H 	H 	0.85990 0.66870 0.93120 0.04100
C 	C 	0.82580 0.68130 0.66800 0.02100
H 	H 	0.82030 0.71570 0.68670 -0.02100
C 	C 	0.82810 0.62060 0.46100 0.04700
H 	H 	0.81970 0.60710 0.34430 -0.00800
C 	C 	0.86300 0.59620 0.57300 -0.08300
H 	H 	0.88060 0.56920 0.52210 0.05300
I 	I 	0.25786 0.69666 0.37370 -0.45700
Cu	Cu	0.30054 0.75493 0.63450 0.84400
Cu	Cu	0.20473 0.74986 0.13370 0.84600
I 	I 	0.24639 0.80722 0.87300 -0.46100
N 	N 	0.34070 0.70720 0.78600 -0.25200
N 	N 	0.33780 0.80730 0.48340 -0.24200
N 	N 	0.15940 0.79560 0.28000 -0.24700
N 	N 	0.16760 0.69950 0.99000 -0.24100
C 	C 	0.35220 0.71610 0.96000 0.08800
C 	C 	0.35660 0.66370 0.72200 0.07200
C 	C 	0.38470 0.79970 0.44100 0.02100
C 	C 	0.32030 0.84950 0.41800 0.04400
C 	C 	0.14400 0.84050 0.22600 0.08600
C 	C 	0.15400 0.78800 0.45900 0.07200
H 	H 	0.34190 0.74710 0.00910 -0.02800
C 	C 	0.37810 0.68410 0.08100 -0.16200
C 	C 	0.38780 0.62840 0.82700 -0.15500
H 	H 	0.34720 0.65470 0.60010 -0.00500
H 	H 	0.40000 0.77000 0.48110 -0.00500
C 	C 	0.41290 0.83350 0.33900 -0.08000
C 	C 	0.34060 0.87690 0.26100 -0.11000
H 	H 	0.29220 0.86320 0.47760 0.00400
H 	H 	0.15480 0.85220 0.10930 -0.01000
C 	C 	0.11300 0.87110 0.32900 -0.16100
C 	C 	0.12620 0.81950 0.58900 -0.15000
H 	H 	0.16950 0.75940 0.50820 -0.02300
H 	H 	0.38280 0.69210 0.20700 0.08300
C 	C 	0.39660 0.63960 0.00500 0.10200
H 	H 	0.40100 0.59940 0.77140 0.08300
C 	C 	0.39030 0.87170 0.24300 0.09300
H 	H 	0.44790 0.83020 0.33560 0.05200
H 	H 	0.32090 0.89640 0.18100 0.06400
H 	H 	0.09770 0.89880 0.27220 0.08400
C 	C 	0.10410 0.86150 0.51700 0.10200
H 	H 	0.12370 0.81140 0.71600 0.07900
C 	C 	0.42550 0.60640 0.12800 -0.04500
C 	C 	0.41770 0.90310 0.11400 -0.05000
C 	C 	0.07590 0.89430 0.62600 -0.04800
C 	C 	0.45660 0.62410 0.27100 -0.00500
C 	C 	0.41990 0.55520 0.10700 -0.01100
C 	C 	0.47010 0.90930 0.12100 -0.00900
C 	C 	0.39270 0.92810 0.97200 -0.00700
C 	C 	0.08090 0.94660 0.60400 -0.00800
C 	C 	0.04610 0.87690 0.77200 -0.00800
H 	H 	0.46160 0.65870 0.28540 0.02800
C 	C 	0.48010 0.59080 0.39400 -0.11300
C 	C 	0.44490 0.52200 0.22980 -0.10100
H 	H 	0.39940 0.54240 0.01220 0.03500
H 	H 	0.48900 0.89310 0.21320 0.03000
C 	C 	0.49360 0.93990 0.98900 -0.10200
C 	C 	0.41640 0.95990 0.84400 -0.10900
H 	H 	0.35790 0.92330 0.96150 0.02600
H 	H 	0.10140 0.95960 0.50950 0.03400
C 	C 	0.05510 0.97910 0.72300 -0.10300
C 	C 	0.01860 0.90910 0.88400 -0.09800
H 	H 	0.04460 0.84230 0.79530 0.03000
H 	H 	0.50000 0.60370 0.49040 0.07000
C 	C 	0.47490 0.54030 0.37800 0.07000
H 	H 	0.44150 0.48730 0.21280 0.06700
H 	H 	0.52870 0.94230 0.99190 0.06600
C 	C 	0.46800 0.96660 0.85500 0.06200
H 	H 	0.39770 0.97650 0.75270 0.06600
H 	H 	0.05650 0.01370 0.70140 0.07000
C 	C 	0.02740 0.96140 0.87400 0.05900
H 	H 	0.99430 0.89630 0.96660 0.06300
C 	C 	0.53710 0.97010 0.61400 0.04400
C 	C 	0.54500 0.91810 0.64100 -0.03800
C 	C 	0.55650 0.99320 0.46100 -0.04600
C 	C 	0.58070 0.89330 0.52300 -0.01100
H 	H 	0.52740 0.90040 0.73270 0.03300
C 	C 	0.58800 0.96870 0.33500 -0.01600
H 	H 	0.54840 0.02700 0.43880 0.04200
C 	C 	0.59730 0.91690 0.36200 -0.02700
H 	H 	0.59280 0.86140 0.55460 0.02000
H 	H 	0.60260 0.98600 0.23480 0.02600
C 	C 	0.63260 0.88920 0.23500 0.07100
C 	C 	0.65060 0.84430 0.29000 -0.07600
C 	C 	0.64310 0.90380 0.05100 -0.02300
C 	C 	0.68280 0.81450 0.16900 0.03000
H 	H 	0.64230 0.83210 0.40900 0.05000
C 	C 	0.67670 0.87310 0.95200 -0.03000
H 	H 	0.62860 0.93240 0.99720 0.03200
H 	H 	0.69160 0.78190 0.20480 -0.02300
H 	H 	0.68360 0.88290 0.82920 0.01800
C 	C 	0.10910 0.56440 0.52000 -0.02900
H 	H 	0.14430 0.56440 0.51570 0.02500
C 	C 	0.08070 0.53140 0.40800 -0.04100
H 	H 	0.09700 0.50490 0.34760 0.03200
C 	C 	0.00380 0.56900 0.50600 -0.03000
H 	H 	0.96870 0.57120 0.50090 0.02200
C 	C 	0.03070 0.59900 0.63500 -0.01400
H 	H 	0.01340 0.61980 0.71850 0.01400
C 	C 	0.16110 0.62800 0.77200 -0.06400
H 	H 	0.18010 0.60970 0.68560 0.04600
C 	C 	0.18250 0.65550 0.93200 0.02600
H 	H 	0.20890 0.64010 0.99720 0.01200
C 	C 	0.11820 0.70630 0.96600 0.06000
H 	H 	0.10220 0.73210 0.03210 -0.01600
C 	C 	0.08940 0.67570 0.84600 -0.10700
H 	H 	0.05600 0.68410 0.82040 0.06200
C 	C 	0.14580 0.34470 0.81200 -0.04300
H 	H 	0.14010 0.33130 0.93120 0.04100
C 	C 	0.17420 0.31870 0.66800 0.02000
H 	H 	0.17970 0.28430 0.68670 -0.02100
C 	C 	0.17190 0.37940 0.46100 0.04700
H 	H 	0.18030 0.39290 0.34430 -0.00800
C 	C 	0.13700 0.40380 0.57300 -0.08400
H 	H 	0.11940 0.43080 0.52210 0.05300
C 	C 	0.50000 0.50000 0.50000 -0.09600
C 	C 	0.00000 0.50000 0.27900 -0.08000
C 	C 	0.50000 0.00000 0.72100 -0.08000
C 	C 	-0.00000 0.00000 -0.00000 -0.07800
