data_crystal

_cell_length_a 9.60830
_cell_length_b 16.03600
_cell_length_c 14.08400
_cell_angle_alpha 90.00000
_cell_angle_beta  90.00000
_cell_angle_gamma 90.00000

_symmetry_space_group_name_	'P 1'
_symmetry_space_group_name_H-M	'P 1'

loop_
_symmetry_equiv_pos_as_xyz
  x,y,z

loop_
_atom_site_label
_atom_site_type_symbol
_atom_site_fract_x
_atom_site_fract_y
_atom_site_fract_z
_atom_site_charge
Zn	Zn	0.04010 0.42021 0.89320 1.21100
O 	O 	0.84880 0.39780 0.86170 -0.41600
O 	O 	0.64840 0.32350 0.80390 -0.43200
O 	O 	0.83540 0.35687 0.68770 -0.43300
O 	O 	0.07990 0.53810 0.88780 -0.54200
O 	O 	0.91290 0.62660 0.98350 -0.42000
O 	O 	0.05950 0.69019 0.85470 -0.48600
P 	P 	0.75858 0.38431 0.77600 0.47400
H 	H 	0.72000 0.46300 0.75800 -0.05300
P 	P 	0.98286 0.61216 0.88788 0.56600
H 	H 	0.87600 0.60200 0.82800 -0.06000
Zn	Zn	0.45990 0.07979 0.39320 1.22900
O 	O 	0.65120 0.10220 0.36170 -0.44400
O 	O 	0.85160 0.17650 0.30390 -0.40300
O 	O 	0.66460 0.14313 0.18770 -0.45000
O 	O 	0.42010 0.96190 0.38780 -0.47500
O 	O 	0.58710 0.87340 0.48350 -0.42000
O 	O 	0.44050 0.80981 0.35470 -0.41300
P 	P 	0.74142 0.11569 0.27600 0.47600
H 	H 	0.78000 0.03700 0.25800 -0.04300
P 	P 	0.51714 0.88784 0.38788 0.43700
H 	H 	0.62400 0.89800 0.32800 -0.05100
Zn	Zn	0.95990 0.42021 0.60680 1.24800
O 	O 	0.15120 0.39780 0.63830 -0.48400
O 	O 	0.35160 0.32350 0.69610 -0.44300
O 	O 	0.16460 0.35687 0.81230 -0.47600
O 	O 	0.92010 0.53810 0.61220 -0.39800
O 	O 	0.08710 0.62660 0.51650 -0.43400
O 	O 	0.94050 0.69019 0.64530 -0.32300
P 	P 	0.24142 0.38431 0.72400 0.47600
H 	H 	0.28000 0.46300 0.74200 -0.05900
P 	P 	0.01714 0.61216 0.61212 0.30900
H 	H 	0.12400 0.60200 0.67200 -0.05400
Zn	Zn	0.54010 0.07979 0.10680 1.22900
O 	O 	0.34880 0.10220 0.13830 -0.45700
O 	O 	0.14840 0.17650 0.19610 -0.46100
O 	O 	0.33540 0.14313 0.31230 -0.46000
O 	O 	0.57990 0.96190 0.11220 -0.46200
O 	O 	0.41290 0.87340 0.01650 -0.42900
O 	O 	0.55950 0.80981 0.14530 -0.40400
P 	P 	0.25858 0.11569 0.22400 0.47300
H 	H 	0.22000 0.03700 0.24200 -0.07000
P 	P 	0.48286 0.88784 0.11212 0.43600
H 	H 	0.37600 0.89800 0.17200 -0.06300
Zn	Zn	0.95990 0.57979 0.10680 1.24800
O 	O 	0.15120 0.60220 0.13830 -0.48200
O 	O 	0.35160 0.67650 0.19610 -0.44200
O 	O 	0.16460 0.64313 0.31230 -0.47500
O 	O 	0.92010 0.46190 0.11220 -0.40100
O 	O 	0.08710 0.37340 0.01650 -0.43300
O 	O 	0.94050 0.30981 0.14530 -0.32700
P 	P 	0.24142 0.61569 0.22400 0.47600
H 	H 	0.28000 0.53700 0.24200 -0.05900
P 	P 	0.01714 0.38784 0.11212 0.31400
H 	H 	0.12400 0.39800 0.17200 -0.05400
Zn	Zn	0.54010 0.92021 0.60680 1.23000
O 	O 	0.34880 0.89780 0.63830 -0.45600
O 	O 	0.14840 0.82350 0.69610 -0.46100
O 	O 	0.33540 0.85687 0.81230 -0.46200
O 	O 	0.57990 0.03810 0.61220 -0.46300
O 	O 	0.41290 0.12660 0.51650 -0.43200
O 	O 	0.55950 0.19019 0.64530 -0.40500
P 	P 	0.25858 0.88431 0.72400 0.47300
H 	H 	0.22000 0.96300 0.74200 -0.07000
P 	P 	0.48286 0.11216 0.61212 0.43600
H 	H 	0.37600 0.10200 0.67200 -0.06300
Zn	Zn	0.04010 0.57979 0.39320 1.21200
O 	O 	0.84880 0.60220 0.36170 -0.41600
O 	O 	0.64840 0.67650 0.30390 -0.43200
O 	O 	0.83540 0.64313 0.18770 -0.43400
O 	O 	0.07990 0.46190 0.38780 -0.53900
O 	O 	0.91290 0.37340 0.48350 -0.41800
O 	O 	0.05950 0.30981 0.35470 -0.48300
P 	P 	0.75858 0.61569 0.27600 0.47400
H 	H 	0.72000 0.53700 0.25800 -0.05300
P 	P 	0.98286 0.38784 0.38788 0.56300
H 	H 	0.87600 0.39800 0.32800 -0.06000
Zn	Zn	0.45990 0.92021 0.89320 1.22700
O 	O 	0.65120 0.89780 0.86170 -0.44600
O 	O 	0.85160 0.82350 0.80390 -0.40300
O 	O 	0.66460 0.85687 0.68770 -0.44900
O 	O 	0.42010 0.03810 0.88780 -0.47400
O 	O 	0.58710 0.12660 0.98350 -0.41900
O 	O 	0.44050 0.19019 0.85470 -0.41300
P 	P 	0.74142 0.88431 0.77600 0.47600
H 	H 	0.78000 0.96300 0.75800 -0.04200
P 	P 	0.51714 0.11216 0.88788 0.43700
H 	H 	0.62400 0.10200 0.82800 -0.05100
Zn	Zn	0.00000 0.76115 0.75000 1.21200
Zn	Zn	0.50000 0.73885 0.25000 1.24000
Zn	Zn	0.00000 0.23885 0.25000 1.21300
Zn	Zn	0.50000 0.26115 0.75000 1.24000
