data_crystal

_cell_length_a 11.16140
_cell_length_b 12.56750
_cell_length_c 31.05770
_cell_angle_alpha 90.00000
_cell_angle_beta  90.00000
_cell_angle_gamma 90.00000

_symmetry_space_group_name_	'P 1'
_symmetry_space_group_name_H-M	'P 1'

loop_
_symmetry_equiv_pos_as_xyz
  x,y,z

loop_
_atom_site_label
_atom_site_type_symbol
_atom_site_fract_x
_atom_site_fract_y
_atom_site_fract_z
_atom_site_charge
Ag	Ag	0.67633 0.62168 0.73436 0.50600
Ag	Ag	0.81784 0.44155 0.91380 0.54300
Ag	Ag	0.32367 0.87832 0.23436 0.50600
Ag	Ag	0.18216 0.05845 0.41380 0.54300
Ag	Ag	0.17633 0.37832 0.76564 0.50600
Ag	Ag	0.31784 0.55845 0.58620 0.54300
Ag	Ag	0.82367 0.12168 0.26564 0.50600
Ag	Ag	0.68216 0.94155 0.08620 0.54300
Ag	Ag	0.32367 0.37832 0.26564 0.50600
Ag	Ag	0.18216 0.55845 0.08620 0.54300
Ag	Ag	0.67633 0.12168 0.76564 0.50600
Ag	Ag	0.81784 0.94155 0.58620 0.54300
Ag	Ag	0.82367 0.62168 0.23436 0.50600
Ag	Ag	0.68216 0.44155 0.41380 0.54300
Ag	Ag	0.17633 0.87832 0.73436 0.50600
Ag	Ag	0.31784 0.05845 0.91380 0.54300
H 	H 	0.70080 0.07910 0.00310 0.00600
H 	H 	0.41000 0.25400 0.97830 0.03000
H 	H 	0.32110 0.18160 0.03920 0.08200
H 	H 	0.42590 0.06200 0.08040 -0.00200
H 	H 	0.48840 0.52700 0.66480 0.01000
H 	H 	0.49150 0.65000 0.65620 0.03200
H 	H 	0.41260 0.73000 0.76000 0.00200
H 	H 	0.44500 0.77370 0.71410 0.00900
H 	H 	0.41110 0.53840 0.77270 0.00400
H 	H 	0.44020 0.46010 0.73480 0.00200
H 	H 	0.30660 0.75110 0.65520 0.03200
H 	H 	0.18360 0.69330 0.66250 0.02700
H 	H 	0.22430 0.63940 0.77200 -0.00000
H 	H 	0.13320 0.62460 0.73390 0.00200
H 	H 	0.29760 0.43770 0.67590 -0.00300
H 	H 	0.17840 0.50390 0.67550 0.00300
H 	H 	0.29920 0.42090 0.50310 0.00500
H 	H 	0.59000 0.24600 0.47830 0.02900
H 	H 	0.67890 0.31840 0.53920 0.08100
H 	H 	0.57410 0.43800 0.58040 -0.00400
H 	H 	0.51160 0.97300 0.16480 0.00900
H 	H 	0.50850 0.85000 0.15620 0.03100
H 	H 	0.58740 0.77000 0.26000 0.00100
H 	H 	0.55500 0.72630 0.21410 0.00800
H 	H 	0.58890 0.96160 0.27270 0.00300
H 	H 	0.55980 0.03990 0.23480 0.00100
H 	H 	0.69340 0.74890 0.15520 0.03200
H 	H 	0.81640 0.80670 0.16250 0.02700
H 	H 	0.77570 0.86060 0.27200 -0.00000
H 	H 	0.86680 0.87540 0.23390 0.00200
H 	H 	0.70240 0.06230 0.17590 -0.00300
H 	H 	0.82160 0.99610 0.17550 0.00300
H 	H 	0.20080 0.92090 0.49690 0.00500
H 	H 	0.91000 0.74600 0.52170 0.02900
H 	H 	0.82110 0.81840 0.46080 0.08000
H 	H 	0.92590 0.93800 0.41960 -0.00400
H 	H 	0.98840 0.47300 0.83520 0.00900
H 	H 	0.99150 0.35000 0.84380 0.03100
H 	H 	0.91260 0.27000 0.74000 0.00200
H 	H 	0.94500 0.22630 0.78590 0.00800
H 	H 	0.91110 0.46160 0.72730 0.00300
H 	H 	0.94020 0.53990 0.76520 0.00100
H 	H 	0.80660 0.24890 0.84480 0.03200
H 	H 	0.68360 0.30670 0.83750 0.02700
H 	H 	0.72430 0.36060 0.72800 0.00000
H 	H 	0.63320 0.37540 0.76610 0.00200
H 	H 	0.79760 0.56230 0.82410 -0.00300
H 	H 	0.67840 0.49610 0.82450 0.00300
H 	H 	0.79920 0.57910 0.99690 0.00500
H 	H 	0.09000 0.75400 0.02170 0.02900
H 	H 	0.17890 0.68160 0.96080 0.08000
H 	H 	0.07410 0.56200 0.91960 -0.00400
H 	H 	0.01160 0.02700 0.33520 0.00900
H 	H 	0.00850 0.15000 0.34380 0.03100
H 	H 	0.08740 0.23000 0.24000 0.00200
H 	H 	0.05500 0.27370 0.28590 0.00800
H 	H 	0.08890 0.03840 0.22730 0.00300
H 	H 	0.05980 0.96010 0.26520 0.00100
H 	H 	0.19340 0.25110 0.34480 0.03200
H 	H 	0.31640 0.19330 0.33750 0.02700
H 	H 	0.27570 0.13940 0.22800 0.00000
H 	H 	0.36680 0.12460 0.26610 0.00200
H 	H 	0.20240 0.93770 0.32410 -0.00300
H 	H 	0.32160 0.00390 0.32450 0.00300
H 	H 	0.29920 0.92090 0.99690 0.00500
H 	H 	0.59000 0.74600 0.02170 0.02900
H 	H 	0.67890 0.81840 0.96080 0.08100
H 	H 	0.57410 0.93800 0.91960 -0.00300
H 	H 	0.51160 0.47300 0.33520 0.00900
H 	H 	0.50850 0.35000 0.34380 0.03100
H 	H 	0.58740 0.27000 0.24000 0.00100
H 	H 	0.55500 0.22630 0.28590 0.00800
H 	H 	0.58890 0.46160 0.22730 0.00300
H 	H 	0.55980 0.53990 0.26520 0.00100
H 	H 	0.69340 0.24890 0.34480 0.03200
H 	H 	0.81640 0.30670 0.33750 0.02700
H 	H 	0.77570 0.36060 0.22800 -0.00000
H 	H 	0.86680 0.37540 0.26610 0.00200
H 	H 	0.70240 0.56230 0.32410 -0.00300
H 	H 	0.82160 0.49610 0.32450 0.00300
H 	H 	0.70080 0.57910 0.49690 0.00500
H 	H 	0.41000 0.75400 0.52170 0.02900
H 	H 	0.32110 0.68160 0.46080 0.08100
H 	H 	0.42590 0.56200 0.41960 -0.00400
H 	H 	0.48840 0.02700 0.83520 0.00900
H 	H 	0.49150 0.15000 0.84380 0.03100
H 	H 	0.41260 0.23000 0.74000 0.00100
H 	H 	0.44500 0.27370 0.78590 0.00800
H 	H 	0.41110 0.03840 0.72730 0.00300
H 	H 	0.44020 0.96010 0.76520 0.00100
H 	H 	0.30660 0.25110 0.84480 0.03200
H 	H 	0.18360 0.19330 0.83750 0.02700
H 	H 	0.22430 0.13940 0.72800 -0.00000
H 	H 	0.13320 0.12460 0.76610 0.00200
H 	H 	0.29760 0.93770 0.82410 -0.00300
H 	H 	0.17840 0.00390 0.82450 0.00300
H 	H 	0.79920 0.07910 0.50310 0.00500
H 	H 	0.09000 0.25400 0.47830 0.02900
H 	H 	0.17890 0.18160 0.53920 0.08000
H 	H 	0.07410 0.06200 0.58040 -0.00400
H 	H 	0.01160 0.52700 0.16480 0.00900
H 	H 	0.00850 0.65000 0.15620 0.03100
H 	H 	0.08740 0.73000 0.26000 0.00200
H 	H 	0.05500 0.77370 0.21410 0.00800
H 	H 	0.08890 0.53840 0.27270 0.00300
H 	H 	0.05980 0.46010 0.23480 0.00100
H 	H 	0.19340 0.75110 0.15520 0.03200
H 	H 	0.31640 0.69330 0.16250 0.02700
H 	H 	0.27570 0.63940 0.27200 0.00000
H 	H 	0.36680 0.62460 0.23390 0.00200
H 	H 	0.20240 0.43770 0.17590 -0.00300
H 	H 	0.32160 0.50390 0.17550 0.00300
H 	H 	0.20080 0.42090 0.00310 0.00500
H 	H 	0.91000 0.24600 0.97830 0.02900
H 	H 	0.82110 0.31840 0.03920 0.08000
H 	H 	0.92590 0.43800 0.08040 -0.00400
H 	H 	0.98840 0.97300 0.66480 0.00900
H 	H 	0.99150 0.85000 0.65620 0.03100
H 	H 	0.91260 0.77000 0.76000 0.00200
H 	H 	0.94500 0.72630 0.71410 0.00800
H 	H 	0.91110 0.96160 0.77270 0.00300
H 	H 	0.94020 0.03990 0.73480 0.00100
H 	H 	0.80660 0.74890 0.65520 0.03200
H 	H 	0.68360 0.80670 0.66250 0.02700
H 	H 	0.72430 0.86060 0.77200 0.00000
H 	H 	0.63320 0.87540 0.73390 0.00200
H 	H 	0.79760 0.06230 0.67590 -0.00300
H 	H 	0.67840 0.99610 0.67550 0.00300
C 	C 	0.62350 0.09990 0.01045 0.07800
C 	C 	0.56500 0.17230 0.98440 -0.13300
C 	C 	0.45070 0.20460 0.99517 0.05100
C 	C 	0.39840 0.16200 0.03134 -0.13900
C 	C 	0.46200 0.08990 0.05588 0.07600
C 	C 	0.45080 0.59420 0.67212 -0.01300
C 	C 	0.40520 0.71640 0.72937 0.00100
C 	C 	0.40280 0.52740 0.74191 0.00400
C 	C 	0.26740 0.69410 0.67088 -0.01300
C 	C 	0.21770 0.62660 0.74126 0.00200
C 	C 	0.26250 0.50570 0.68343 0.00100
C 	C 	0.37650 0.40010 0.51045 0.07800
C 	C 	0.43500 0.32770 0.48440 -0.13300
C 	C 	0.54930 0.29540 0.49517 0.05100
C 	C 	0.60160 0.33800 0.53134 -0.13900
C 	C 	0.53800 0.41010 0.55588 0.07600
C 	C 	0.54920 0.90580 0.17212 -0.01300
C 	C 	0.59480 0.78360 0.22937 0.00100
C 	C 	0.59720 0.97260 0.24191 0.00400
C 	C 	0.73260 0.80590 0.17088 -0.01300
C 	C 	0.78230 0.87340 0.24126 0.00200
C 	C 	0.73750 0.99430 0.18343 0.00100
C 	C 	0.12350 0.90010 0.48955 0.07800
C 	C 	0.06500 0.82770 0.51560 -0.13300
C 	C 	0.95070 0.79540 0.50483 0.05100
C 	C 	0.89840 0.83800 0.46866 -0.13900
C 	C 	0.96200 0.91010 0.44412 0.07500
C 	C 	0.95080 0.40580 0.82788 -0.01300
C 	C 	0.90520 0.28360 0.77063 0.00100
C 	C 	0.90280 0.47260 0.75809 0.00400
C 	C 	0.76740 0.30590 0.82912 -0.01300
C 	C 	0.71770 0.37340 0.75874 0.00200
C 	C 	0.76250 0.49430 0.81657 0.00100
C 	C 	0.87650 0.59990 0.98955 0.07800
C 	C 	0.93500 0.67230 0.01560 -0.13300
C 	C 	0.04930 0.70460 0.00483 0.05100
C 	C 	0.10160 0.66200 0.96866 -0.13800
C 	C 	0.03800 0.58990 0.94412 0.07500
C 	C 	0.04920 0.09420 0.32788 -0.01300
C 	C 	0.09480 0.21640 0.27063 0.00100
C 	C 	0.09720 0.02740 0.25809 0.00400
C 	C 	0.23260 0.19410 0.32912 -0.01300
C 	C 	0.28230 0.12660 0.25874 0.00200
C 	C 	0.23750 0.00570 0.31657 0.00100
C 	C 	0.37650 0.90010 0.98955 0.07800
C 	C 	0.43500 0.82770 0.01560 -0.13300
C 	C 	0.54930 0.79540 0.00483 0.05100
C 	C 	0.60160 0.83800 0.96866 -0.13900
C 	C 	0.53800 0.91010 0.94412 0.07600
C 	C 	0.54920 0.40580 0.32788 -0.01300
C 	C 	0.59480 0.28360 0.27063 0.00100
C 	C 	0.59720 0.47260 0.25809 0.00400
C 	C 	0.73260 0.30590 0.32912 -0.01300
C 	C 	0.78230 0.37340 0.25874 0.00200
C 	C 	0.73750 0.49430 0.31657 0.00100
C 	C 	0.62350 0.59990 0.48955 0.07800
C 	C 	0.56500 0.67230 0.51560 -0.13300
C 	C 	0.45070 0.70460 0.50483 0.05100
C 	C 	0.39840 0.66200 0.46866 -0.13900
C 	C 	0.46200 0.58990 0.44412 0.07600
C 	C 	0.45080 0.09420 0.82788 -0.01300
C 	C 	0.40520 0.21640 0.77063 0.00100
C 	C 	0.40280 0.02740 0.75809 0.00400
C 	C 	0.26740 0.19410 0.82912 -0.01300
C 	C 	0.21770 0.12660 0.75874 0.00200
C 	C 	0.26250 0.00570 0.81657 0.00100
C 	C 	0.87650 0.09990 0.51045 0.07800
C 	C 	0.93500 0.17230 0.48440 -0.13300
C 	C 	0.04930 0.20460 0.49517 0.05100
C 	C 	0.10160 0.16200 0.53134 -0.13900
C 	C 	0.03800 0.08990 0.55588 0.07500
C 	C 	0.04920 0.59420 0.17212 -0.01300
C 	C 	0.09480 0.71640 0.22937 0.00100
C 	C 	0.09720 0.52740 0.24191 0.00400
C 	C 	0.23260 0.69410 0.17088 -0.01300
C 	C 	0.28230 0.62660 0.24126 0.00200
C 	C 	0.23750 0.50570 0.18343 0.00100
C 	C 	0.12350 0.40010 0.01045 0.07800
C 	C 	0.06500 0.32770 0.98440 -0.13300
C 	C 	0.95070 0.29540 0.99517 0.05100
C 	C 	0.89840 0.33800 0.03134 -0.13800
C 	C 	0.96200 0.41010 0.05588 0.07500
C 	C 	0.95080 0.90580 0.67212 -0.01300
C 	C 	0.90520 0.78360 0.72937 0.00100
C 	C 	0.90280 0.97260 0.74191 0.00400
C 	C 	0.76740 0.80590 0.67088 -0.01300
C 	C 	0.71770 0.87340 0.74126 0.00200
C 	C 	0.76250 0.99430 0.68343 0.00100
S 	S 	0.63604 0.22116 0.93752 0.50800
S 	S 	0.36396 0.27884 0.43752 0.50800
S 	S 	0.13604 0.77884 0.56248 0.50800
S 	S 	0.86396 0.72116 0.06248 0.50800
S 	S 	0.36396 0.77884 0.06248 0.50800
S 	S 	0.63604 0.72116 0.56248 0.50800
S 	S 	0.86396 0.22116 0.43752 0.50800
S 	S 	0.13604 0.27884 0.93752 0.50800
N 	N 	0.57270 0.05820 0.04605 -0.18900
N 	N 	0.46450 0.61395 0.71877 -0.15100
N 	N 	0.32330 0.59120 0.65912 -0.14700
N 	N 	0.27340 0.52270 0.73067 -0.15500
N 	N 	0.27650 0.71495 0.71740 -0.15100
N 	N 	0.42730 0.44180 0.54605 -0.18900
N 	N 	0.53550 0.88605 0.21877 -0.15100
N 	N 	0.67670 0.90880 0.15912 -0.14700
N 	N 	0.72660 0.97730 0.23067 -0.15500
N 	N 	0.72350 0.78505 0.21740 -0.15100
N 	N 	0.07270 0.94180 0.45395 -0.18900
N 	N 	0.96450 0.38605 0.78123 -0.15000
N 	N 	0.82330 0.40880 0.84088 -0.14700
N 	N 	0.77340 0.47730 0.76933 -0.15500
N 	N 	0.77650 0.28505 0.78260 -0.15100
N 	N 	0.92730 0.55820 0.95395 -0.18900
N 	N 	0.03550 0.11395 0.28123 -0.15000
N 	N 	0.17670 0.09120 0.34088 -0.14700
N 	N 	0.22660 0.02270 0.26933 -0.15500
N 	N 	0.22350 0.21495 0.28260 -0.15100
N 	N 	0.42730 0.94180 0.95395 -0.18900
N 	N 	0.53550 0.38605 0.28123 -0.15100
N 	N 	0.67670 0.40880 0.34088 -0.14700
N 	N 	0.72660 0.47730 0.26933 -0.15500
N 	N 	0.72350 0.28505 0.28260 -0.15100
N 	N 	0.57270 0.55820 0.45395 -0.18900
N 	N 	0.46450 0.11395 0.78123 -0.15100
N 	N 	0.32330 0.09120 0.84088 -0.14700
N 	N 	0.27340 0.02270 0.76933 -0.15500
N 	N 	0.27650 0.21495 0.78260 -0.15100
N 	N 	0.92730 0.05820 0.54605 -0.18900
N 	N 	0.03550 0.61395 0.21877 -0.15000
N 	N 	0.17670 0.59120 0.15912 -0.14700
N 	N 	0.22660 0.52270 0.23067 -0.15500
N 	N 	0.22350 0.71495 0.21740 -0.15100
N 	N 	0.07270 0.44180 0.04605 -0.18900
N 	N 	0.96450 0.88605 0.71877 -0.15000
N 	N 	0.82330 0.90880 0.65912 -0.14700
N 	N 	0.77340 0.97730 0.73067 -0.15500
N 	N 	0.77650 0.78505 0.71740 -0.15100
O 	O 	0.71020 0.13500 0.92187 -0.28000
O 	O 	0.54050 0.25120 0.90856 -0.29500
O 	O 	0.70560 0.31080 0.95252 -0.33000
O 	O 	0.28980 0.36500 0.42187 -0.28000
O 	O 	0.45950 0.24880 0.40856 -0.29500
O 	O 	0.29440 0.18920 0.45252 -0.33000
O 	O 	0.21020 0.86500 0.57813 -0.28000
O 	O 	0.04050 0.74880 0.59144 -0.29600
O 	O 	0.20560 0.68920 0.54748 -0.33000
O 	O 	0.78980 0.63500 0.07813 -0.28100
O 	O 	0.95950 0.75120 0.09144 -0.29600
O 	O 	0.79440 0.81080 0.04748 -0.33000
O 	O 	0.28980 0.86500 0.07813 -0.28000
O 	O 	0.45950 0.74880 0.09144 -0.29500
O 	O 	0.29440 0.68920 0.04748 -0.33000
O 	O 	0.71020 0.63500 0.57813 -0.28000
O 	O 	0.54050 0.75120 0.59144 -0.29500
O 	O 	0.70560 0.81080 0.54748 -0.33000
O 	O 	0.78980 0.13500 0.42187 -0.28000
O 	O 	0.95950 0.25120 0.40856 -0.29600
O 	O 	0.79440 0.31080 0.45252 -0.33000
O 	O 	0.21020 0.36500 0.92187 -0.28100
O 	O 	0.04050 0.24880 0.90856 -0.29600
O 	O 	0.20560 0.18920 0.95252 -0.33000
