data_crystal

_cell_length_a 11.34600
_cell_length_b 11.75900
_cell_length_c 11.96300
_cell_angle_alpha 119.43700
_cell_angle_beta  90.00000
_cell_angle_gamma 90.00000

_symmetry_space_group_name_	'P 1'
_symmetry_space_group_name_H-M	'P 1'

loop_
_symmetry_equiv_pos_as_xyz
  x,y,z

loop_
_atom_site_label
_atom_site_type_symbol
_atom_site_fract_x
_atom_site_fract_y
_atom_site_fract_z
_atom_site_charge
Ag	Ag	0.52492 0.14113 0.49262 0.49500
Ag	Ag	0.02492 0.85887 0.50738 0.47600
Ag	Ag	0.02492 0.35149 0.49262 0.47600
Ag	Ag	0.52492 0.64851 0.50738 0.49500
Ag	Ag	0.70176 0.17392 -0.00000 0.48000
Ag	Ag	0.20176 0.82608 1.00000 0.47200
H 	H 	0.81880 0.08680 0.57140 0.00800
H 	H 	0.77510 0.95780 0.45180 0.00200
H 	H 	0.58120 0.87090 0.45720 -0.01800
H 	H 	0.50250 0.94510 0.58020 -0.01300
H 	H 	0.57120 0.14210 0.76020 -0.02100
H 	H 	0.69560 0.19850 0.75660 -0.01500
H 	H 	0.66640 0.87120 0.78100 -0.00700
H 	H 	0.55350 0.94520 0.77480 -0.01000
H 	H 	0.86200 0.95780 0.77500 0.00300
H 	H 	0.87260 0.08640 0.76660 -0.00300
H 	H 	0.79250 0.75930 0.59280 0.00800
H 	H 	0.75840 0.75820 0.46520 -0.00600
H 	H 	0.31880 0.91320 0.42860 -0.00600
H 	H 	0.27510 0.04220 0.54820 -0.01100
H 	H 	0.08120 0.12910 0.54280 -0.03200
H 	H 	0.00250 0.05490 0.41980 -0.03100
H 	H 	0.07120 0.85790 0.23980 -0.03300
H 	H 	0.19560 0.80150 0.24340 -0.02400
H 	H 	0.16640 0.12880 0.21900 -0.01900
H 	H 	0.05350 0.05480 0.22520 -0.02500
H 	H 	0.36200 0.04220 0.22500 -0.01500
H 	H 	0.37260 0.91360 0.23340 -0.01900
H 	H 	0.29250 0.24070 0.40720 -0.00500
H 	H 	0.25840 0.24180 0.53480 -0.01600
H 	H 	0.31880 0.48460 0.57140 -0.00600
H 	H 	0.27510 0.49400 0.45180 -0.01100
H 	H 	0.08120 0.58630 0.45720 -0.03200
H 	H 	0.00250 0.63510 0.58020 -0.03200
H 	H 	0.07120 0.61810 0.76020 -0.03300
H 	H 	0.19560 0.55810 0.75660 -0.02400
H 	H 	0.16640 0.90980 0.78100 -0.02000
H 	H 	0.05350 0.82960 0.77480 -0.02600
H 	H 	0.36200 0.81720 0.77500 -0.01300
H 	H 	0.37260 0.68020 0.76660 -0.01800
H 	H 	0.29250 0.83350 0.59280 -0.00500
H 	H 	0.25840 0.70700 0.46520 -0.01600
H 	H 	0.81880 0.51540 0.42860 0.00800
H 	H 	0.77510 0.50600 0.54820 0.00200
H 	H 	0.58120 0.41370 0.54280 -0.01800
H 	H 	0.50250 0.36490 0.41980 -0.01300
H 	H 	0.57120 0.38190 0.23980 -0.02200
H 	H 	0.69560 0.44190 0.24340 -0.01600
H 	H 	0.66640 0.09020 0.21900 -0.00900
H 	H 	0.55350 0.17040 0.22520 -0.01100
H 	H 	0.86200 0.18280 0.22500 0.00300
H 	H 	0.87260 0.31980 0.23340 -0.00400
H 	H 	0.79250 0.16650 0.40720 0.00700
H 	H 	0.75840 0.29300 0.53480 -0.00600
C 	C 	0.77360 0.00760 0.54480 0.00600
C 	C 	0.58300 0.92231 0.55022 0.01000
C 	C 	0.65140 0.11854 0.72948 0.01400
C 	C 	0.63390 0.92197 0.74434 0.01100
C 	C 	0.82640 0.00768 0.73896 0.01000
C 	C 	0.75760 0.81058 0.55796 0.00300
C 	C 	0.27360 0.99240 0.45520 0.01600
C 	C 	0.08300 0.07769 0.44978 0.02200
C 	C 	0.15140 0.88146 0.27052 0.02200
C 	C 	0.13390 0.07803 0.25566 0.02000
C 	C 	0.32640 0.99232 0.26104 0.02300
C 	C 	0.25760 0.18942 0.44204 0.01100
C 	C 	0.27360 0.53720 0.54480 0.01700
C 	C 	0.08300 0.62791 0.55022 0.02200
C 	C 	0.15140 0.61094 0.72948 0.02200
C 	C 	0.13390 0.82237 0.74434 0.02100
C 	C 	0.32640 0.73128 0.73896 0.02000
C 	C 	0.25760 0.74738 0.55796 0.01100
C 	C 	0.77360 0.46280 0.45520 0.00800
C 	C 	0.58300 0.37209 0.44978 0.01100
C 	C 	0.65140 0.38906 0.27052 0.01500
C 	C 	0.63390 0.17763 0.25566 0.01200
C 	C 	0.82640 0.26872 0.26104 0.01000
C 	C 	0.75760 0.25262 0.44204 0.00400
N 	N 	0.65090 0.04232 0.58844 -0.15700
N 	N 	0.70510 0.04338 0.78760 -0.17100
N 	N 	0.63420 0.84260 0.60300 -0.16000
N 	N 	0.82920 0.92975 0.59750 -0.14700
N 	N 	0.15090 0.95768 0.41156 -0.16400
N 	N 	0.20510 0.95662 0.21240 -0.17700
N 	N 	0.13420 0.15740 0.39700 -0.16700
N 	N 	0.32920 0.07025 0.40250 -0.16200
N 	N 	0.15090 0.54612 0.58844 -0.16400
N 	N 	0.20510 0.74422 0.78760 -0.17800
N 	N 	0.13420 0.76040 0.60300 -0.16800
N 	N 	0.32920 0.66775 0.59750 -0.16100
N 	N 	0.65090 0.45388 0.41156 -0.15700
N 	N 	0.70510 0.25578 0.21240 -0.17200
N 	N 	0.63420 0.23960 0.39700 -0.16000
N 	N 	0.82920 0.33225 0.40250 -0.14700
