data_crystal

_cell_length_a 27.10800
_cell_length_b 10.67300
_cell_length_c 16.64100
_cell_angle_alpha 90.00000
_cell_angle_beta  104.24100
_cell_angle_gamma 90.00000

_symmetry_space_group_name_	'P 1'
_symmetry_space_group_name_H-M	'P 1'

loop_
_symmetry_equiv_pos_as_xyz
  x,y,z

loop_
_atom_site_label
_atom_site_type_symbol
_atom_site_fract_x
_atom_site_fract_y
_atom_site_fract_z
_atom_site_charge
Cd	Cd	0.28708 0.79005 0.16713 1.20500
O 	O 	0.22950 0.41360 0.45750 -0.39800
O 	O 	0.21830 0.50920 0.33810 -0.37700
O 	O 	0.27070 0.79000 0.29430 -0.39900
O 	O 	0.31860 0.62830 0.35180 -0.27800
N 	N 	0.12270 0.71680 0.06070 -0.09000
N 	N 	0.12970 0.63820 0.12750 -0.09500
N 	N 	0.20190 0.74010 0.12730 -0.24100
N 	N 	0.93420 0.69380 0.83900 -0.07900
N 	N 	0.94720 0.78790 0.79460 -0.08800
N 	N 	0.87230 0.71090 0.72890 -0.24800
C 	C 	0.06140 0.60770 0.94830 0.02200
C 	C 	0.01110 0.57700 0.90990 0.04300
C 	C 	0.00170 0.46720 0.86540 -0.08500
H 	H 	0.96820 0.44510 0.84080 0.07400
C 	C 	0.04050 0.38860 0.85610 -0.01600
H 	H 	0.03310 0.31490 0.82570 0.03700
C 	C 	0.09010 0.42040 0.89220 -0.04000
H 	H 	0.11660 0.36910 0.88590 0.05000
C 	C 	0.10020 0.52990 0.93830 -0.06800
H 	H 	0.13380 0.55140 0.96290 0.06000
C 	C 	0.07360 0.72220 0.00170 -0.10100
H 	H 	0.07290 0.79470 0.96630 0.06400
H 	H 	0.04750 0.73350 0.03160 0.07000
C 	C 	0.96700 0.65720 0.92020 -0.11300
H 	H 	0.94700 0.61110 0.95120 0.07700
H 	H 	0.98010 0.73190 0.95150 0.07400
C 	C 	0.17810 0.65810 0.16410 0.09200
H 	H 	0.19440 0.61710 0.21270 0.01100
C 	C 	0.16580 0.77350 0.06280 0.10300
H 	H 	0.17030 0.83080 0.02310 -0.01800
C 	C 	0.90860 0.79520 0.72800 0.10200
H 	H 	0.90700 0.85260 0.68540 -0.01400
C 	C 	0.88980 0.65000 0.79970 0.09400
H 	H 	0.87280 0.58510 0.81880 0.00200
C 	C 	0.24150 0.63420 0.45900 -0.05500
C 	C 	0.26640 0.73050 0.42750 -0.04500
C 	C 	0.27360 0.84280 0.46860 -0.00700
H 	H 	0.28950 0.90710 0.44680 0.04400
C 	C 	0.22910 0.51260 0.41510 0.30600
C 	C 	0.28670 0.71140 0.35190 0.32600
Cd	Cd	0.78708 0.29005 0.16713 1.20500
O 	O 	0.72950 0.91360 0.45750 -0.39800
O 	O 	0.71830 0.00920 0.33810 -0.37700
O 	O 	0.77070 0.29000 0.29430 -0.39900
O 	O 	0.81860 0.12830 0.35180 -0.27800
N 	N 	0.62270 0.21680 0.06070 -0.09000
N 	N 	0.62970 0.13820 0.12750 -0.09500
N 	N 	0.70190 0.24010 0.12730 -0.24100
N 	N 	0.43420 0.19380 0.83900 -0.07900
N 	N 	0.44720 0.28790 0.79460 -0.08800
N 	N 	0.37230 0.21090 0.72890 -0.24800
C 	C 	0.56140 0.10770 0.94830 0.02300
C 	C 	0.51110 0.07700 0.90990 0.04200
C 	C 	0.50170 0.96720 0.86540 -0.08300
H 	H 	0.46820 0.94510 0.84080 0.07300
C 	C 	0.54050 0.88860 0.85610 -0.01800
H 	H 	0.53310 0.81490 0.82570 0.03800
C 	C 	0.59010 0.92040 0.89220 -0.03900
H 	H 	0.61660 0.86910 0.88590 0.05000
C 	C 	0.60020 0.02990 0.93830 -0.06900
H 	H 	0.63380 0.05140 0.96290 0.06100
C 	C 	0.57360 0.22220 0.00170 -0.10100
H 	H 	0.57290 0.29470 0.96630 0.06400
H 	H 	0.54750 0.23350 0.03160 0.07000
C 	C 	0.46700 0.15720 0.92020 -0.11300
H 	H 	0.44700 0.11110 0.95120 0.07600
H 	H 	0.48010 0.23190 0.95150 0.07400
C 	C 	0.67810 0.15810 0.16410 0.09200
H 	H 	0.69440 0.11710 0.21270 0.01100
C 	C 	0.66580 0.27350 0.06280 0.10400
H 	H 	0.67030 0.33080 0.02310 -0.01800
C 	C 	0.40860 0.29520 0.72800 0.10200
H 	H 	0.40700 0.35260 0.68540 -0.01400
C 	C 	0.38980 0.15000 0.79970 0.09400
H 	H 	0.37280 0.08510 0.81880 0.00200
C 	C 	0.74150 0.13420 0.45900 -0.05500
C 	C 	0.76640 0.23050 0.42750 -0.04500
C 	C 	0.77360 0.34280 0.46860 -0.00700
H 	H 	0.78950 0.40710 0.44680 0.04400
C 	C 	0.72910 0.01260 0.41510 0.30600
C 	C 	0.78670 0.21140 0.35190 0.32600
Cd	Cd	0.71292 0.79005 0.33287 1.20500
O 	O 	0.77050 0.41360 0.04250 -0.39800
O 	O 	0.78170 0.50920 0.16190 -0.37700
O 	O 	0.72930 0.79000 0.20570 -0.39900
O 	O 	0.68140 0.62830 0.14820 -0.27800
N 	N 	0.87730 0.71680 0.43930 -0.09000
N 	N 	0.87030 0.63820 0.37250 -0.09500
N 	N 	0.79810 0.74010 0.37270 -0.24100
N 	N 	0.06580 0.69380 0.66100 -0.07900
N 	N 	0.05280 0.78790 0.70540 -0.08800
N 	N 	0.12770 0.71090 0.77110 -0.24800
C 	C 	0.93860 0.60770 0.55170 0.02200
C 	C 	0.98890 0.57700 0.59010 0.04300
C 	C 	0.99830 0.46720 0.63460 -0.08500
H 	H 	0.03180 0.44510 0.65920 0.07300
C 	C 	0.95950 0.38860 0.64390 -0.01700
H 	H 	0.96690 0.31490 0.67430 0.03800
C 	C 	0.90990 0.42040 0.60780 -0.04000
H 	H 	0.88340 0.36910 0.61410 0.05000
C 	C 	0.89980 0.52990 0.56170 -0.06800
H 	H 	0.86620 0.55140 0.53710 0.06000
C 	C 	0.92640 0.72220 0.49830 -0.10100
H 	H 	0.92710 0.79470 0.53370 0.06400
H 	H 	0.95250 0.73350 0.46840 0.07000
C 	C 	0.03300 0.65720 0.57980 -0.11300
H 	H 	0.05300 0.61110 0.54880 0.07700
H 	H 	0.01990 0.73190 0.54850 0.07400
C 	C 	0.82190 0.65810 0.33590 0.09200
H 	H 	0.80560 0.61710 0.28730 0.01100
C 	C 	0.83420 0.77350 0.43720 0.10300
H 	H 	0.82970 0.83080 0.47690 -0.01800
C 	C 	0.09140 0.79520 0.77200 0.10200
H 	H 	0.09300 0.85260 0.81460 -0.01400
C 	C 	0.11020 0.65000 0.70030 0.09400
H 	H 	0.12720 0.58510 0.68120 0.00200
C 	C 	0.75850 0.63420 0.04100 -0.05600
C 	C 	0.73360 0.73050 0.07250 -0.04500
C 	C 	0.72640 0.84280 0.03140 -0.00800
H 	H 	0.71050 0.90710 0.05320 0.04400
C 	C 	0.77090 0.51260 0.08490 0.30600
C 	C 	0.71330 0.71140 0.14810 0.32500
Cd	Cd	0.21292 0.29005 0.33287 1.20500
O 	O 	0.27050 0.91360 0.04250 -0.39900
O 	O 	0.28170 0.00920 0.16190 -0.37700
O 	O 	0.22930 0.29000 0.20570 -0.39900
O 	O 	0.18140 0.12830 0.14820 -0.27800
N 	N 	0.37730 0.21680 0.43930 -0.09000
N 	N 	0.37030 0.13820 0.37250 -0.09500
N 	N 	0.29810 0.24010 0.37270 -0.24100
N 	N 	0.56580 0.19380 0.66100 -0.07900
N 	N 	0.55280 0.28790 0.70540 -0.08800
N 	N 	0.62770 0.21090 0.77110 -0.24800
C 	C 	0.43860 0.10770 0.55170 0.02200
C 	C 	0.48890 0.07700 0.59010 0.04300
C 	C 	0.49830 0.96720 0.63460 -0.08400
H 	H 	0.53180 0.94510 0.65920 0.07300
C 	C 	0.45950 0.88860 0.64390 -0.01700
H 	H 	0.46690 0.81490 0.67430 0.03800
C 	C 	0.40990 0.92040 0.60780 -0.04000
H 	H 	0.38340 0.86910 0.61410 0.05000
C 	C 	0.39980 0.02990 0.56170 -0.06800
H 	H 	0.36620 0.05140 0.53710 0.06000
C 	C 	0.42640 0.22220 0.49830 -0.10100
H 	H 	0.42710 0.29470 0.53370 0.06400
H 	H 	0.45250 0.23350 0.46840 0.07000
C 	C 	0.53300 0.15720 0.57980 -0.11300
H 	H 	0.55300 0.11110 0.54880 0.07700
H 	H 	0.51990 0.23190 0.54850 0.07400
C 	C 	0.32190 0.15810 0.33590 0.09200
H 	H 	0.30560 0.11710 0.28730 0.01100
C 	C 	0.33420 0.27350 0.43720 0.10300
H 	H 	0.32970 0.33080 0.47690 -0.01800
C 	C 	0.59140 0.29520 0.77200 0.10200
H 	H 	0.59300 0.35260 0.81460 -0.01400
C 	C 	0.61020 0.15000 0.70030 0.09400
H 	H 	0.62720 0.08510 0.68120 0.00200
C 	C 	0.25850 0.13420 0.04100 -0.05500
C 	C 	0.23360 0.23050 0.07250 -0.04600
C 	C 	0.22640 0.34280 0.03140 -0.00600
H 	H 	0.21050 0.40710 0.05320 0.04400
C 	C 	0.27090 0.01260 0.08490 0.30600
C 	C 	0.21330 0.21140 0.14810 0.32600
Cd	Cd	0.71292 0.20995 0.83287 1.20500
O 	O 	0.77050 0.58640 0.54250 -0.39800
O 	O 	0.78170 0.49080 0.66190 -0.37700
O 	O 	0.72930 0.21000 0.70570 -0.39900
O 	O 	0.68140 0.37170 0.64820 -0.27800
N 	N 	0.87730 0.28320 0.93930 -0.09000
N 	N 	0.87030 0.36180 0.87250 -0.09500
N 	N 	0.79810 0.25990 0.87270 -0.24100
N 	N 	0.06580 0.30620 0.16100 -0.07900
N 	N 	0.05280 0.21210 0.20540 -0.08800
N 	N 	0.12770 0.28910 0.27110 -0.24800
C 	C 	0.93860 0.39230 0.05170 0.02200
C 	C 	0.98890 0.42300 0.09010 0.04300
C 	C 	0.99830 0.53280 0.13460 -0.08500
H 	H 	0.03180 0.55490 0.15920 0.07400
C 	C 	0.95950 0.61140 0.14390 -0.01600
H 	H 	0.96690 0.68510 0.17430 0.03700
C 	C 	0.90990 0.57960 0.10780 -0.04000
H 	H 	0.88340 0.63090 0.11410 0.05000
C 	C 	0.89980 0.47010 0.06170 -0.06800
H 	H 	0.86620 0.44860 0.03710 0.06000
C 	C 	0.92640 0.27780 0.99830 -0.10100
H 	H 	0.92710 0.20530 0.03370 0.06400
H 	H 	0.95250 0.26650 0.96840 0.07000
C 	C 	0.03300 0.34280 0.07980 -0.11300
H 	H 	0.05300 0.38890 0.04880 0.07700
H 	H 	0.01990 0.26810 0.04850 0.07400
C 	C 	0.82190 0.34190 0.83590 0.09200
H 	H 	0.80560 0.38290 0.78730 0.01100
C 	C 	0.83420 0.22650 0.93720 0.10300
H 	H 	0.82970 0.16920 0.97690 -0.01800
C 	C 	0.09140 0.20480 0.27200 0.10200
H 	H 	0.09300 0.14740 0.31460 -0.01400
C 	C 	0.11020 0.35000 0.20030 0.09400
H 	H 	0.12720 0.41490 0.18120 0.00200
C 	C 	0.75850 0.36580 0.54100 -0.05500
C 	C 	0.73360 0.26950 0.57250 -0.04500
C 	C 	0.72640 0.15720 0.53140 -0.00700
H 	H 	0.71050 0.09290 0.55320 0.04400
C 	C 	0.77090 0.48740 0.58490 0.30600
C 	C 	0.71330 0.28860 0.64810 0.32600
Cd	Cd	0.21292 0.70995 0.83287 1.20500
O 	O 	0.27050 0.08640 0.54250 -0.39800
O 	O 	0.28170 0.99080 0.66190 -0.37700
O 	O 	0.22930 0.71000 0.70570 -0.39900
O 	O 	0.18140 0.87170 0.64820 -0.27800
N 	N 	0.37730 0.78320 0.93930 -0.09000
N 	N 	0.37030 0.86180 0.87250 -0.09500
N 	N 	0.29810 0.75990 0.87270 -0.24100
N 	N 	0.56580 0.80620 0.16100 -0.07900
N 	N 	0.55280 0.71210 0.20540 -0.08800
N 	N 	0.62770 0.78910 0.27110 -0.24800
C 	C 	0.43860 0.89230 0.05170 0.02300
C 	C 	0.48890 0.92300 0.09010 0.04200
C 	C 	0.49830 0.03280 0.13460 -0.08300
H 	H 	0.53180 0.05490 0.15920 0.07300
C 	C 	0.45950 0.11140 0.14390 -0.01800
H 	H 	0.46690 0.18510 0.17430 0.03800
C 	C 	0.40990 0.07960 0.10780 -0.03900
H 	H 	0.38340 0.13090 0.11410 0.05000
C 	C 	0.39980 0.97010 0.06170 -0.06900
H 	H 	0.36620 0.94860 0.03710 0.06100
C 	C 	0.42640 0.77780 0.99830 -0.10100
H 	H 	0.42710 0.70530 0.03370 0.06400
H 	H 	0.45250 0.76650 0.96840 0.07000
C 	C 	0.53300 0.84280 0.07980 -0.11300
H 	H 	0.55300 0.88890 0.04880 0.07600
H 	H 	0.51990 0.76810 0.04850 0.07400
C 	C 	0.32190 0.84190 0.83590 0.09200
H 	H 	0.30560 0.88290 0.78730 0.01100
C 	C 	0.33420 0.72650 0.93720 0.10400
H 	H 	0.32970 0.66920 0.97690 -0.01800
C 	C 	0.59140 0.70480 0.27200 0.10200
H 	H 	0.59300 0.64740 0.31460 -0.01400
C 	C 	0.61020 0.85000 0.20030 0.09400
H 	H 	0.62720 0.91490 0.18120 0.00200
C 	C 	0.25850 0.86580 0.54100 -0.05500
C 	C 	0.23360 0.76950 0.57250 -0.04500
C 	C 	0.22640 0.65720 0.53140 -0.00700
H 	H 	0.21050 0.59290 0.55320 0.04400
C 	C 	0.27090 0.98740 0.58490 0.30600
C 	C 	0.21330 0.78860 0.64810 0.32600
Cd	Cd	0.28708 0.20995 0.66713 1.20500
O 	O 	0.22950 0.58640 0.95750 -0.39800
O 	O 	0.21830 0.49080 0.83810 -0.37700
O 	O 	0.27070 0.21000 0.79430 -0.39900
O 	O 	0.31860 0.37170 0.85180 -0.27800
N 	N 	0.12270 0.28320 0.56070 -0.09000
N 	N 	0.12970 0.36180 0.62750 -0.09500
N 	N 	0.20190 0.25990 0.62730 -0.24100
N 	N 	0.93420 0.30620 0.33900 -0.07900
N 	N 	0.94720 0.21210 0.29460 -0.08800
N 	N 	0.87230 0.28910 0.22890 -0.24800
C 	C 	0.06140 0.39230 0.44830 0.02200
C 	C 	0.01110 0.42300 0.40990 0.04300
C 	C 	0.00170 0.53280 0.36540 -0.08500
H 	H 	0.96820 0.55490 0.34080 0.07300
C 	C 	0.04050 0.61140 0.35610 -0.01700
H 	H 	0.03310 0.68510 0.32570 0.03800
C 	C 	0.09010 0.57960 0.39220 -0.04000
H 	H 	0.11660 0.63090 0.38590 0.05000
C 	C 	0.10020 0.47010 0.43830 -0.06800
H 	H 	0.13380 0.44860 0.46290 0.06000
C 	C 	0.07360 0.27780 0.50170 -0.10100
H 	H 	0.07290 0.20530 0.46630 0.06400
H 	H 	0.04750 0.26650 0.53160 0.07000
C 	C 	0.96700 0.34280 0.42020 -0.11300
H 	H 	0.94700 0.38890 0.45120 0.07700
H 	H 	0.98010 0.26810 0.45150 0.07400
C 	C 	0.17810 0.34190 0.66410 0.09200
H 	H 	0.19440 0.38290 0.71270 0.01100
C 	C 	0.16580 0.22650 0.56280 0.10300
H 	H 	0.17030 0.16920 0.52310 -0.01800
C 	C 	0.90860 0.20480 0.22800 0.10200
H 	H 	0.90700 0.14740 0.18540 -0.01400
C 	C 	0.88980 0.35000 0.29970 0.09400
H 	H 	0.87280 0.41490 0.31880 0.00200
C 	C 	0.24150 0.36580 0.95900 -0.05600
C 	C 	0.26640 0.26950 0.92750 -0.04500
C 	C 	0.27360 0.15720 0.96860 -0.00800
H 	H 	0.28950 0.09290 0.94680 0.04400
C 	C 	0.22910 0.48740 0.91510 0.30600
C 	C 	0.28670 0.28860 0.85190 0.32500
Cd	Cd	0.78708 0.70995 0.66713 1.20500
O 	O 	0.72950 0.08640 0.95750 -0.39900
O 	O 	0.71830 0.99080 0.83810 -0.37700
O 	O 	0.77070 0.71000 0.79430 -0.39900
O 	O 	0.81860 0.87170 0.85180 -0.27800
N 	N 	0.62270 0.78320 0.56070 -0.09000
N 	N 	0.62970 0.86180 0.62750 -0.09500
N 	N 	0.70190 0.75990 0.62730 -0.24100
N 	N 	0.43420 0.80620 0.33900 -0.07900
N 	N 	0.44720 0.71210 0.29460 -0.08800
N 	N 	0.37230 0.78910 0.22890 -0.24800
C 	C 	0.56140 0.89230 0.44830 0.02200
C 	C 	0.51110 0.92300 0.40990 0.04300
C 	C 	0.50170 0.03280 0.36540 -0.08400
H 	H 	0.46820 0.05490 0.34080 0.07300
C 	C 	0.54050 0.11140 0.35610 -0.01700
H 	H 	0.53310 0.18510 0.32570 0.03800
C 	C 	0.59010 0.07960 0.39220 -0.04000
H 	H 	0.61660 0.13090 0.38590 0.05000
C 	C 	0.60020 0.97010 0.43830 -0.06800
H 	H 	0.63380 0.94860 0.46290 0.06000
C 	C 	0.57360 0.77780 0.50170 -0.10100
H 	H 	0.57290 0.70530 0.46630 0.06400
H 	H 	0.54750 0.76650 0.53160 0.07000
C 	C 	0.46700 0.84280 0.42020 -0.11300
H 	H 	0.44700 0.88890 0.45120 0.07700
H 	H 	0.48010 0.76810 0.45150 0.07400
C 	C 	0.67810 0.84190 0.66410 0.09200
H 	H 	0.69440 0.88290 0.71270 0.01100
C 	C 	0.66580 0.72650 0.56280 0.10300
H 	H 	0.67030 0.66920 0.52310 -0.01800
C 	C 	0.40860 0.70480 0.22800 0.10200
H 	H 	0.40700 0.64740 0.18540 -0.01400
C 	C 	0.38980 0.85000 0.29970 0.09400
H 	H 	0.37280 0.91490 0.31880 0.00200
C 	C 	0.74150 0.86580 0.95900 -0.05500
C 	C 	0.76640 0.76950 0.92750 -0.04600
C 	C 	0.77360 0.65720 0.96860 -0.00600
H 	H 	0.78950 0.59290 0.94680 0.04400
C 	C 	0.72910 0.98740 0.91510 0.30600
C 	C 	0.78670 0.78860 0.85190 0.32600
