data_crystal

_cell_length_a 18.58000
_cell_length_b 9.96200
_cell_length_c 32.73200
_cell_angle_alpha 90.00000
_cell_angle_beta  90.00000
_cell_angle_gamma 90.00000

_symmetry_space_group_name_	'P 1'
_symmetry_space_group_name_H-M	'P 1'

loop_
_symmetry_equiv_pos_as_xyz
  x,y,z

loop_
_atom_site_label
_atom_site_type_symbol
_atom_site_fract_x
_atom_site_fract_y
_atom_site_fract_z
_atom_site_charge
Zn	Zn	0.08070 0.27461 0.05860 1.17900
Zn	Zn	0.06430 0.02828 0.21891 1.19600
O 	O 	0.15914 0.00156 0.24001 -0.48300
O 	O 	0.17325 0.82400 0.20044 -0.32800
O 	O 	0.93818 0.61195 0.02699 -0.33900
O 	O 	0.95547 0.79946 0.99288 -0.48300
N 	N 	0.14542 0.40300 0.09246 -0.27800
N 	N 	0.19015 0.22250 0.03979 -0.23800
N 	N 	0.05760 0.12564 0.09857 -0.23400
N 	N 	0.07054 0.14159 0.13808 -0.09000
N 	N 	0.05257 0.03129 0.15851 -0.24300
N 	N 	0.44534 0.72338 0.23467 -0.22800
N 	N 	0.50436 0.78284 0.24718 -0.08200
N 	N 	0.49020 0.90833 0.25846 -0.24900
C 	C 	0.20860 0.12890 0.01243 0.09000
H 	H 	0.17250 0.08070 0.99930 -0.00500
C 	C 	0.27930 0.10150 0.00306 -0.15700
H 	H 	0.29070 0.03570 0.98400 0.08600
C 	C 	0.33180 0.17180 0.02205 0.06700
H 	H 	0.38000 0.15540 0.01600 -0.00100
C 	C 	0.31360 0.26670 0.05004 -0.12900
H 	H 	0.34930 0.31530 0.06340 0.07600
C 	C 	0.24212 0.29100 0.05865 0.05000
C 	C 	0.21660 0.39130 0.08866 0.07500
C 	C 	0.26300 0.46840 0.11187 -0.15900
H 	H 	0.31260 0.45820 0.10930 0.08800
C 	C 	0.23530 0.55920 0.13847 0.11000
H 	H 	0.26600 0.61360 0.15360 -0.00700
C 	C 	0.16340 0.57080 0.14301 -0.18400
H 	H 	0.14390 0.63140 0.16160 0.11300
C 	C 	0.11940 0.49010 0.11933 0.10900
H 	H 	0.06980 0.49730 0.12240 -0.04200
C 	C 	0.02949 0.99990 0.09312 0.03800
C 	C 	0.00680 0.93320 0.05807 -0.06800
H 	H 	0.00850 0.97430 0.03260 0.06600
C 	C 	0.98187 0.80470 0.06252 -0.08600
C 	C 	0.95691 0.73020 0.02500 0.35000
C 	C 	0.97957 0.74360 0.10121 0.03200
H 	H 	0.96260 0.65610 0.10330 0.01800
C 	C 	0.00147 0.80830 0.13587 -0.14200
H 	H 	0.99960 0.76700 0.16130 0.06700
C 	C 	0.02683 0.93980 0.13121 0.07700
C 	C 	0.19630 0.90870 0.22382 0.34300
C 	C 	0.27520 0.91200 0.23485 -0.07100
C 	C 	0.30405 0.02990 0.25218 0.02800
H 	H 	0.27340 0.10110 0.25800 0.03800
C 	C 	0.37572 0.04250 0.26062 -0.13800
H 	H 	0.39500 0.12170 0.27100 0.06200
C 	C 	0.41850 0.93030 0.25292 0.07000
C 	C 	0.38985 0.81260 0.23717 0.04100
C 	C 	0.31716 0.80390 0.22659 -0.06500
H 	H 	0.29830 0.72730 0.21440 0.05800
Zn	Zn	0.41930 0.72539 0.55860 1.18000
Zn	Zn	0.43570 0.97172 0.71891 1.19700
O 	O 	0.34086 0.99844 0.74001 -0.48100
O 	O 	0.32675 0.17600 0.70044 -0.32700
O 	O 	0.56182 0.38805 0.52699 -0.33900
O 	O 	0.54453 0.20054 0.49288 -0.48300
N 	N 	0.35458 0.59700 0.59246 -0.27800
N 	N 	0.30985 0.77750 0.53979 -0.23800
N 	N 	0.44240 0.87436 0.59857 -0.23400
N 	N 	0.42946 0.85841 0.63808 -0.09000
N 	N 	0.44743 0.96871 0.65851 -0.24300
N 	N 	0.05466 0.27662 0.73467 -0.22800
N 	N 	0.99564 0.21716 0.74718 -0.08200
N 	N 	0.00980 0.09167 0.75846 -0.24900
C 	C 	0.29140 0.87110 0.51243 0.09000
H 	H 	0.32750 0.91930 0.49930 -0.00500
C 	C 	0.22070 0.89850 0.50306 -0.15700
H 	H 	0.20930 0.96430 0.48400 0.08600
C 	C 	0.16820 0.82820 0.52205 0.06800
H 	H 	0.12000 0.84460 0.51600 -0.00100
C 	C 	0.18640 0.73330 0.55004 -0.12900
H 	H 	0.15070 0.68470 0.56340 0.07600
C 	C 	0.25788 0.70900 0.55865 0.05000
C 	C 	0.28340 0.60870 0.58866 0.07500
C 	C 	0.23700 0.53160 0.61187 -0.15900
H 	H 	0.18740 0.54180 0.60930 0.08800
C 	C 	0.26470 0.44080 0.63847 0.11000
H 	H 	0.23400 0.38640 0.65360 -0.00700
C 	C 	0.33660 0.42920 0.64301 -0.18400
H 	H 	0.35610 0.36860 0.66160 0.11300
C 	C 	0.38060 0.50990 0.61933 0.10900
H 	H 	0.43020 0.50270 0.62240 -0.04200
C 	C 	0.47051 0.00010 0.59312 0.03700
C 	C 	0.49320 0.06680 0.55807 -0.06800
H 	H 	0.49150 0.02570 0.53260 0.06600
C 	C 	0.51813 0.19530 0.56252 -0.08600
C 	C 	0.54309 0.26980 0.52500 0.35100
C 	C 	0.52043 0.25640 0.60121 0.03400
H 	H 	0.53740 0.34390 0.60330 0.01700
C 	C 	0.49853 0.19170 0.63587 -0.14400
H 	H 	0.50040 0.23300 0.66130 0.06800
C 	C 	0.47317 0.06020 0.63121 0.07700
C 	C 	0.30370 0.09130 0.72382 0.34300
C 	C 	0.22480 0.08800 0.73485 -0.07200
C 	C 	0.19595 0.97010 0.75218 0.02800
H 	H 	0.22660 0.89890 0.75800 0.03700
C 	C 	0.12428 0.95750 0.76062 -0.13700
H 	H 	0.10500 0.87830 0.77100 0.06200
C 	C 	0.08150 0.06970 0.75292 0.06900
C 	C 	0.11015 0.18740 0.73717 0.04100
C 	C 	0.18284 0.19610 0.72659 -0.06500
H 	H 	0.20170 0.27270 0.71440 0.05800
Zn	Zn	0.91930 0.77461 0.44140 1.18000
Zn	Zn	0.93570 0.52828 0.28109 1.19700
O 	O 	0.84086 0.50156 0.25999 -0.48000
O 	O 	0.82675 0.32400 0.29956 -0.32700
O 	O 	0.06182 0.11195 0.47301 -0.33900
O 	O 	0.04453 0.29946 0.50712 -0.48300
N 	N 	0.85458 0.90300 0.40754 -0.27800
N 	N 	0.80985 0.72250 0.46021 -0.23800
N 	N 	0.94240 0.62564 0.40143 -0.23400
N 	N 	0.92946 0.64159 0.36192 -0.09000
N 	N 	0.94743 0.53129 0.34149 -0.24200
N 	N 	0.55466 0.22338 0.26533 -0.22800
N 	N 	0.49564 0.28284 0.25282 -0.08200
N 	N 	0.50980 0.40833 0.24154 -0.24900
C 	C 	0.79140 0.62890 0.48757 0.09000
H 	H 	0.82750 0.58070 0.50070 -0.00500
C 	C 	0.72070 0.60150 0.49694 -0.15700
H 	H 	0.70930 0.53570 0.51600 0.08600
C 	C 	0.66820 0.67180 0.47795 0.06800
H 	H 	0.62000 0.65540 0.48400 -0.00100
C 	C 	0.68640 0.76670 0.44996 -0.13000
H 	H 	0.65070 0.81530 0.43660 0.07600
C 	C 	0.75788 0.79100 0.44135 0.05000
C 	C 	0.78340 0.89130 0.41134 0.07400
C 	C 	0.73700 0.96840 0.38813 -0.15800
H 	H 	0.68740 0.95820 0.39070 0.08700
C 	C 	0.76470 0.05920 0.36153 0.10900
H 	H 	0.73400 0.11360 0.34640 -0.00700
C 	C 	0.83660 0.07080 0.35699 -0.18400
H 	H 	0.85610 0.13140 0.33840 0.11300
C 	C 	0.88060 0.99010 0.38067 0.11000
H 	H 	0.93020 0.99730 0.37760 -0.04200
C 	C 	0.97051 0.49990 0.40688 0.03700
C 	C 	0.99320 0.43320 0.44193 -0.06800
H 	H 	0.99150 0.47430 0.46740 0.06600
C 	C 	0.01813 0.30470 0.43748 -0.08600
C 	C 	0.04309 0.23020 0.47500 0.35000
C 	C 	0.02043 0.24360 0.39879 0.03200
H 	H 	0.03740 0.15610 0.39670 0.01800
C 	C 	0.99853 0.30830 0.36413 -0.14200
H 	H 	0.00040 0.26700 0.33870 0.06700
C 	C 	0.97317 0.43980 0.36879 0.07600
C 	C 	0.80370 0.40870 0.27618 0.34100
C 	C 	0.72480 0.41200 0.26515 -0.07200
C 	C 	0.69595 0.52990 0.24782 0.02900
H 	H 	0.72660 0.60110 0.24200 0.03700
C 	C 	0.62428 0.54250 0.23938 -0.13600
H 	H 	0.60500 0.62170 0.22900 0.06100
C 	C 	0.58150 0.43030 0.24708 0.06800
C 	C 	0.61015 0.31260 0.26283 0.04100
C 	C 	0.68284 0.30390 0.27341 -0.06500
H 	H 	0.70170 0.22730 0.28560 0.05800
Zn	Zn	0.58070 0.22539 0.94140 1.18000
Zn	Zn	0.56430 0.47172 0.78109 1.19700
O 	O 	0.65914 0.49844 0.75999 -0.48000
O 	O 	0.67325 0.67600 0.79956 -0.32700
O 	O 	0.43818 0.88805 0.97301 -0.33900
O 	O 	0.45547 0.70054 0.00712 -0.48300
N 	N 	0.64542 0.09700 0.90754 -0.27800
N 	N 	0.69015 0.27750 0.96021 -0.23800
N 	N 	0.55760 0.37436 0.90143 -0.23400
N 	N 	0.57054 0.35841 0.86192 -0.09000
N 	N 	0.55257 0.46871 0.84149 -0.24200
N 	N 	0.94534 0.77662 0.76533 -0.22800
N 	N 	0.00436 0.71716 0.75282 -0.08200
N 	N 	0.99020 0.59167 0.74154 -0.24900
C 	C 	0.70860 0.37110 0.98757 0.09000
H 	H 	0.67250 0.41930 0.00070 -0.00500
C 	C 	0.77930 0.39850 0.99694 -0.15700
H 	H 	0.79070 0.46430 0.01600 0.08600
C 	C 	0.83180 0.32820 0.97795 0.06800
H 	H 	0.88000 0.34460 0.98400 -0.00100
C 	C 	0.81360 0.23330 0.94996 -0.13000
H 	H 	0.84930 0.18470 0.93660 0.07600
C 	C 	0.74212 0.20900 0.94135 0.05100
C 	C 	0.71660 0.10870 0.91134 0.07400
C 	C 	0.76300 0.03160 0.88813 -0.15600
H 	H 	0.81260 0.04180 0.89070 0.08700
C 	C 	0.73530 0.94080 0.86153 0.10800
H 	H 	0.76600 0.88640 0.84640 -0.00700
C 	C 	0.66340 0.92920 0.85699 -0.18500
H 	H 	0.64390 0.86860 0.83840 0.11300
C 	C 	0.61940 0.00990 0.88067 0.11100
H 	H 	0.56980 0.00270 0.87760 -0.04200
C 	C 	0.52949 0.50010 0.90688 0.03700
C 	C 	0.50680 0.56680 0.94193 -0.06800
H 	H 	0.50850 0.52570 0.96740 0.06600
C 	C 	0.48187 0.69530 0.93748 -0.08600
C 	C 	0.45691 0.76980 0.97500 0.35100
C 	C 	0.47957 0.75640 0.89879 0.03300
H 	H 	0.46260 0.84390 0.89670 0.01700
C 	C 	0.50147 0.69170 0.86413 -0.14400
H 	H 	0.49960 0.73300 0.83870 0.06800
C 	C 	0.52683 0.56020 0.86879 0.07600
C 	C 	0.69630 0.59130 0.77618 0.34100
C 	C 	0.77520 0.58800 0.76515 -0.07200
C 	C 	0.80405 0.47010 0.74782 0.02900
H 	H 	0.77340 0.39890 0.74200 0.03700
C 	C 	0.87572 0.45750 0.73938 -0.13600
H 	H 	0.89500 0.37830 0.72900 0.06100
C 	C 	0.91850 0.56970 0.74708 0.06800
C 	C 	0.88985 0.68740 0.76283 0.04100
C 	C 	0.81716 0.69610 0.77341 -0.06500
H 	H 	0.79830 0.77270 0.78560 0.05800
Zn	Zn	0.91930 0.72539 0.94140 1.18000
Zn	Zn	0.93570 0.97172 0.78109 1.19700
O 	O 	0.84086 0.99844 0.75999 -0.48200
O 	O 	0.82675 0.17600 0.79956 -0.32700
O 	O 	0.06182 0.38805 0.97301 -0.33900
O 	O 	0.04453 0.20054 0.00712 -0.48300
N 	N 	0.85458 0.59700 0.90754 -0.27800
N 	N 	0.80985 0.77750 0.96021 -0.23800
N 	N 	0.94240 0.87436 0.90143 -0.23400
N 	N 	0.92946 0.85841 0.86192 -0.09000
N 	N 	0.94743 0.96871 0.84149 -0.24300
N 	N 	0.55466 0.27662 0.76533 -0.22800
N 	N 	0.49564 0.21716 0.75282 -0.08200
N 	N 	0.50980 0.09167 0.74154 -0.24900
C 	C 	0.79140 0.87110 0.98757 0.09000
H 	H 	0.82750 0.91930 0.00070 -0.00500
C 	C 	0.72070 0.89850 0.99694 -0.15700
H 	H 	0.70930 0.96430 0.01600 0.08600
C 	C 	0.66820 0.82820 0.97795 0.06700
H 	H 	0.62000 0.84460 0.98400 -0.00100
C 	C 	0.68640 0.73330 0.94996 -0.12900
H 	H 	0.65070 0.68470 0.93660 0.07600
C 	C 	0.75788 0.70900 0.94135 0.05000
C 	C 	0.78340 0.60870 0.91134 0.07500
C 	C 	0.73700 0.53160 0.88813 -0.15900
H 	H 	0.68740 0.54180 0.89070 0.08800
C 	C 	0.76470 0.44080 0.86153 0.11000
H 	H 	0.73400 0.38640 0.84640 -0.00700
C 	C 	0.83660 0.42920 0.85699 -0.18400
H 	H 	0.85610 0.36860 0.83840 0.11300
C 	C 	0.88060 0.50990 0.88067 0.10900
H 	H 	0.93020 0.50270 0.87760 -0.04200
C 	C 	0.97051 0.00010 0.90688 0.03800
C 	C 	0.99320 0.06680 0.94193 -0.06800
H 	H 	0.99150 0.02570 0.96740 0.06600
C 	C 	0.01813 0.19530 0.93748 -0.08600
C 	C 	0.04309 0.26980 0.97500 0.35000
C 	C 	0.02043 0.25640 0.89879 0.03200
H 	H 	0.03740 0.34390 0.89670 0.01800
C 	C 	0.99853 0.19170 0.86413 -0.14200
H 	H 	0.00040 0.23300 0.83870 0.06700
C 	C 	0.97317 0.06020 0.86879 0.07700
C 	C 	0.80370 0.09130 0.77618 0.34300
C 	C 	0.72480 0.08800 0.76515 -0.07100
C 	C 	0.69595 0.97010 0.74782 0.02800
H 	H 	0.72660 0.89890 0.74200 0.03800
C 	C 	0.62428 0.95750 0.73938 -0.13800
H 	H 	0.60500 0.87830 0.72900 0.06200
C 	C 	0.58150 0.06970 0.74708 0.07000
C 	C 	0.61015 0.18740 0.76283 0.04100
C 	C 	0.68284 0.19610 0.77341 -0.06500
H 	H 	0.70170 0.27270 0.78560 0.05800
Zn	Zn	0.58070 0.27461 0.44140 1.18000
Zn	Zn	0.56430 0.02828 0.28109 1.19700
O 	O 	0.65914 0.00156 0.25999 -0.48100
O 	O 	0.67325 0.82400 0.29956 -0.32700
O 	O 	0.43818 0.61195 0.47301 -0.33900
O 	O 	0.45547 0.79946 0.50712 -0.48300
N 	N 	0.64542 0.40300 0.40754 -0.27800
N 	N 	0.69015 0.22250 0.46021 -0.23800
N 	N 	0.55760 0.12564 0.40143 -0.23400
N 	N 	0.57054 0.14159 0.36192 -0.09000
N 	N 	0.55257 0.03129 0.34149 -0.24300
N 	N 	0.94534 0.72338 0.26533 -0.22800
N 	N 	0.00436 0.78284 0.25282 -0.08200
N 	N 	0.99020 0.90833 0.24154 -0.24900
C 	C 	0.70860 0.12890 0.48757 0.09000
H 	H 	0.67250 0.08070 0.50070 -0.00500
C 	C 	0.77930 0.10150 0.49694 -0.15700
H 	H 	0.79070 0.03570 0.51600 0.08600
C 	C 	0.83180 0.17180 0.47795 0.06800
H 	H 	0.88000 0.15540 0.48400 -0.00100
C 	C 	0.81360 0.26670 0.44996 -0.12900
H 	H 	0.84930 0.31530 0.43660 0.07600
C 	C 	0.74212 0.29100 0.44135 0.05000
C 	C 	0.71660 0.39130 0.41134 0.07500
C 	C 	0.76300 0.46840 0.38813 -0.15900
H 	H 	0.81260 0.45820 0.39070 0.08800
C 	C 	0.73530 0.55920 0.36153 0.11000
H 	H 	0.76600 0.61360 0.34640 -0.00700
C 	C 	0.66340 0.57080 0.35699 -0.18400
H 	H 	0.64390 0.63140 0.33840 0.11300
C 	C 	0.61940 0.49010 0.38067 0.10900
H 	H 	0.56980 0.49730 0.37760 -0.04200
C 	C 	0.52949 0.99990 0.40688 0.03700
C 	C 	0.50680 0.93320 0.44193 -0.06800
H 	H 	0.50850 0.97430 0.46740 0.06600
C 	C 	0.48187 0.80470 0.43748 -0.08600
C 	C 	0.45691 0.73020 0.47500 0.35100
C 	C 	0.47957 0.74360 0.39879 0.03400
H 	H 	0.46260 0.65610 0.39670 0.01700
C 	C 	0.50147 0.80830 0.36413 -0.14400
H 	H 	0.49960 0.76700 0.33870 0.06800
C 	C 	0.52683 0.93980 0.36879 0.07700
C 	C 	0.69630 0.90870 0.27618 0.34300
C 	C 	0.77520 0.91200 0.26515 -0.07200
C 	C 	0.80405 0.02990 0.24782 0.02800
H 	H 	0.77340 0.10110 0.24200 0.03700
C 	C 	0.87572 0.04250 0.23938 -0.13700
H 	H 	0.89500 0.12170 0.22900 0.06200
C 	C 	0.91850 0.93030 0.24708 0.06900
C 	C 	0.88985 0.81260 0.26283 0.04100
C 	C 	0.81716 0.80390 0.27341 -0.06500
H 	H 	0.79830 0.72730 0.28560 0.05800
Zn	Zn	0.08070 0.22539 0.55860 1.18000
Zn	Zn	0.06430 0.47172 0.71891 1.19700
O 	O 	0.15914 0.49844 0.74001 -0.48000
O 	O 	0.17325 0.67600 0.70044 -0.32700
O 	O 	0.93818 0.88805 0.52699 -0.33900
O 	O 	0.95547 0.70054 0.49288 -0.48300
N 	N 	0.14542 0.09700 0.59246 -0.27800
N 	N 	0.19015 0.27750 0.53979 -0.23800
N 	N 	0.05760 0.37436 0.59857 -0.23400
N 	N 	0.07054 0.35841 0.63808 -0.09000
N 	N 	0.05257 0.46871 0.65851 -0.24200
N 	N 	0.44534 0.77662 0.73467 -0.22800
N 	N 	0.50436 0.71716 0.74718 -0.08200
N 	N 	0.49020 0.59167 0.75846 -0.24900
C 	C 	0.20860 0.37110 0.51243 0.09000
H 	H 	0.17250 0.41930 0.49930 -0.00500
C 	C 	0.27930 0.39850 0.50306 -0.15700
H 	H 	0.29070 0.46430 0.48400 0.08600
C 	C 	0.33180 0.32820 0.52205 0.06800
H 	H 	0.38000 0.34460 0.51600 -0.00100
C 	C 	0.31360 0.23330 0.55004 -0.13000
H 	H 	0.34930 0.18470 0.56340 0.07600
C 	C 	0.24212 0.20900 0.55865 0.05000
C 	C 	0.21660 0.10870 0.58866 0.07400
C 	C 	0.26300 0.03160 0.61187 -0.15800
H 	H 	0.31260 0.04180 0.60930 0.08700
C 	C 	0.23530 0.94080 0.63847 0.10900
H 	H 	0.26600 0.88640 0.65360 -0.00700
C 	C 	0.16340 0.92920 0.64301 -0.18400
H 	H 	0.14390 0.86860 0.66160 0.11300
C 	C 	0.11940 0.00990 0.61933 0.11000
H 	H 	0.06980 0.00270 0.62240 -0.04200
C 	C 	0.02949 0.50010 0.59312 0.03700
C 	C 	0.00680 0.56680 0.55807 -0.06800
H 	H 	0.00850 0.52570 0.53260 0.06600
C 	C 	0.98187 0.69530 0.56252 -0.08600
C 	C 	0.95691 0.76980 0.52500 0.35000
C 	C 	0.97957 0.75640 0.60121 0.03200
H 	H 	0.96260 0.84390 0.60330 0.01800
C 	C 	0.00147 0.69170 0.63587 -0.14200
H 	H 	0.99960 0.73300 0.66130 0.06700
C 	C 	0.02683 0.56020 0.63121 0.07600
C 	C 	0.19630 0.59130 0.72382 0.34100
C 	C 	0.27520 0.58800 0.73485 -0.07200
C 	C 	0.30405 0.47010 0.75218 0.02900
H 	H 	0.27340 0.39890 0.75800 0.03700
C 	C 	0.37572 0.45750 0.76062 -0.13600
H 	H 	0.39500 0.37830 0.77100 0.06100
C 	C 	0.41850 0.56970 0.75292 0.06800
C 	C 	0.38985 0.68740 0.73717 0.04100
C 	C 	0.31716 0.69610 0.72659 -0.06500
H 	H 	0.29830 0.77270 0.71440 0.05800
Zn	Zn	0.41930 0.77461 0.05860 1.18000
Zn	Zn	0.43570 0.52828 0.21891 1.19700
O 	O 	0.34086 0.50156 0.24001 -0.48000
O 	O 	0.32675 0.32400 0.20044 -0.32700
O 	O 	0.56182 0.11195 0.02699 -0.33900
O 	O 	0.54453 0.29946 0.99288 -0.48300
N 	N 	0.35458 0.90300 0.09246 -0.27800
N 	N 	0.30985 0.72250 0.03979 -0.23800
N 	N 	0.44240 0.62564 0.09857 -0.23400
N 	N 	0.42946 0.64159 0.13808 -0.09000
N 	N 	0.44743 0.53129 0.15851 -0.24200
N 	N 	0.05466 0.22338 0.23467 -0.22800
N 	N 	0.99564 0.28284 0.24718 -0.08200
N 	N 	0.00980 0.40833 0.25846 -0.24900
C 	C 	0.29140 0.62890 0.01243 0.09000
H 	H 	0.32750 0.58070 0.99930 -0.00500
C 	C 	0.22070 0.60150 0.00306 -0.15700
H 	H 	0.20930 0.53570 0.98400 0.08600
C 	C 	0.16820 0.67180 0.02205 0.06800
H 	H 	0.12000 0.65540 0.01600 -0.00100
C 	C 	0.18640 0.76670 0.05004 -0.13000
H 	H 	0.15070 0.81530 0.06340 0.07600
C 	C 	0.25788 0.79100 0.05865 0.05100
C 	C 	0.28340 0.89130 0.08866 0.07400
C 	C 	0.23700 0.96840 0.11187 -0.15600
H 	H 	0.18740 0.95820 0.10930 0.08700
C 	C 	0.26470 0.05920 0.13847 0.10800
H 	H 	0.23400 0.11360 0.15360 -0.00700
C 	C 	0.33660 0.07080 0.14301 -0.18500
H 	H 	0.35610 0.13140 0.16160 0.11300
C 	C 	0.38060 0.99010 0.11933 0.11100
H 	H 	0.43020 0.99730 0.12240 -0.04200
C 	C 	0.47051 0.49990 0.09312 0.03700
C 	C 	0.49320 0.43320 0.05807 -0.06800
H 	H 	0.49150 0.47430 0.03260 0.06600
C 	C 	0.51813 0.30470 0.06252 -0.08600
C 	C 	0.54309 0.23020 0.02500 0.35100
C 	C 	0.52043 0.24360 0.10121 0.03300
H 	H 	0.53740 0.15610 0.10330 0.01700
C 	C 	0.49853 0.30830 0.13587 -0.14400
H 	H 	0.50040 0.26700 0.16130 0.06800
C 	C 	0.47317 0.43980 0.13121 0.07600
C 	C 	0.30370 0.40870 0.22382 0.34100
C 	C 	0.22480 0.41200 0.23485 -0.07200
C 	C 	0.19595 0.52990 0.25218 0.02900
H 	H 	0.22660 0.60110 0.25800 0.03700
C 	C 	0.12428 0.54250 0.26062 -0.13600
H 	H 	0.10500 0.62170 0.27100 0.06100
C 	C 	0.08150 0.43030 0.25292 0.06800
C 	C 	0.11015 0.31260 0.23717 0.04100
C 	C 	0.18284 0.30390 0.22659 -0.06500
H 	H 	0.20170 0.22730 0.21440 0.05800
