data_crystal

_cell_length_a 10.40050
_cell_length_b 10.64860
_cell_length_c 13.63210
_cell_angle_alpha 105.30700
_cell_angle_beta  93.83500
_cell_angle_gamma 108.93500

_symmetry_space_group_name_	'P 1'
_symmetry_space_group_name_H-M	'P 1'

loop_
_symmetry_equiv_pos_as_xyz
  x,y,z

loop_
_atom_site_label
_atom_site_type_symbol
_atom_site_fract_x
_atom_site_fract_y
_atom_site_fract_z
_atom_site_charge
Er	Er	0.47639 0.41994 0.81192 1.40900
Er	Er	0.01863 0.05028 0.18658 1.64100
Er	Er	0.52361 0.58006 0.18808 1.40900
Er	Er	0.98137 0.94972 0.81342 1.64100
H 	H 	0.68710 0.17690 0.11030 0.03700
H 	H 	0.79810 0.31460 0.91840 0.02100
H 	H 	0.09960 0.23760 0.57120 0.03000
H 	H 	0.31290 0.82310 0.88970 0.03700
H 	H 	0.20190 0.68540 0.08160 0.02100
H 	H 	0.90040 0.76240 0.42880 0.03000
C 	C 	0.52020 0.89120 0.92730 -0.04800
C 	C 	0.63320 0.99880 0.99440 -0.11500
C 	C 	0.61190 0.10550 0.06580 0.02100
C 	C 	0.53060 0.76600 0.84920 0.33600
C 	C 	0.77690 0.00040 0.99040 0.47400
C 	C 	0.99430 0.62720 0.05820 -0.03500
C 	C 	0.87220 0.51330 0.00890 -0.10200
C 	C 	0.87910 0.38890 0.95130 -0.00300
C 	C 	0.99030 0.76840 0.10960 0.30500
C 	C 	0.73290 0.52170 0.02620 0.45700
C 	C 	0.09380 0.05660 0.59250 -0.12300
C 	C 	0.05900 0.14150 0.54240 0.01200
C 	C 	0.03450 0.91130 0.54960 -0.07700
C 	C 	0.19780 0.12610 0.68960 0.42000
C 	C 	0.06620 0.80770 0.59480 0.35800
C 	C 	0.47980 0.10880 0.07270 -0.04800
C 	C 	0.36680 0.00120 0.00560 -0.11500
C 	C 	0.38810 0.89450 0.93420 0.02100
C 	C 	0.46940 0.23400 0.15080 0.33600
C 	C 	0.22310 0.99960 0.00960 0.47400
C 	C 	0.00570 0.37280 0.94180 -0.03500
C 	C 	0.12780 0.48670 0.99110 -0.10200
C 	C 	0.12090 0.61110 0.04870 -0.00300
C 	C 	0.00970 0.23160 0.89040 0.30500
C 	C 	0.26710 0.47830 0.97380 0.45700
C 	C 	0.90620 0.94340 0.40750 -0.12300
C 	C 	0.94100 0.85850 0.45760 0.01200
C 	C 	0.96550 0.08870 0.45040 -0.07700
C 	C 	0.80220 0.87390 0.31040 0.42000
C 	C 	0.93380 0.19230 0.40520 0.35800
O 	O 	0.86100 0.06160 0.07360 -0.48400
O 	O 	0.80470 0.94450 0.90640 -0.50300
O 	O 	0.53900 0.66910 0.88300 -0.40200
O 	O 	0.51950 0.76330 0.75680 -0.30000
O 	O 	0.64400 0.49010 0.94870 -0.50600
O 	O 	0.71440 0.55450 0.11720 -0.44600
O 	O 	0.92210 0.81680 0.05960 -0.37000
O 	O 	0.06110 0.84090 0.19710 -0.38800
O 	O 	0.17990 0.07630 0.76360 -0.44800
O 	O 	0.29800 0.23260 0.69230 -0.46300
O 	O 	0.03240 0.79890 0.68000 -0.44700
O 	O 	0.11660 0.73010 0.53930 -0.26100
O 	O 	0.13900 0.93840 0.92640 -0.48400
O 	O 	0.19530 0.05550 0.09360 -0.50300
O 	O 	0.46100 0.33090 0.11700 -0.40200
O 	O 	0.48050 0.23670 0.24320 -0.30000
O 	O 	0.35600 0.50990 0.05130 -0.50600
O 	O 	0.28560 0.44550 0.88280 -0.44600
O 	O 	0.07790 0.18320 0.94040 -0.37000
O 	O 	0.93890 0.15910 0.80290 -0.38800
O 	O 	0.82010 0.92370 0.23640 -0.44800
O 	O 	0.70200 0.76740 0.30770 -0.46300
O 	O 	0.96760 0.20110 0.32000 -0.44700
O 	O 	0.88340 0.26990 0.46070 -0.26100
