data_crystal

_cell_length_a 27.65700
_cell_length_b 19.77500
_cell_length_c 9.50800
_cell_angle_alpha 90.00000
_cell_angle_beta  90.00000
_cell_angle_gamma 90.00000

_symmetry_space_group_name_	'P 1'
_symmetry_space_group_name_H-M	'P 1'

loop_
_symmetry_equiv_pos_as_xyz
  x,y,z

loop_
_atom_site_label
_atom_site_type_symbol
_atom_site_fract_x
_atom_site_fract_y
_atom_site_fract_z
_atom_site_charge
La	La	0.13260 0.36204 0.74817 1.77200
S 	S 	0.12997 0.25521 0.48922 0.69300
O 	O 	0.21722 0.41869 0.66160 -0.31300
O 	O 	0.21821 0.33567 0.84000 -0.33400
O 	O 	0.17151 0.28833 0.55770 -0.35600
O 	O 	0.04296 0.34980 0.77640 -0.47600
O 	O 	0.13234 0.26320 0.33560 -0.35700
O 	O 	0.08711 0.28870 0.54800 -0.40100
O 	O 	0.13648 0.46150 0.90180 -0.37800
O 	O 	0.12893 0.18237 0.51510 -0.35100
O 	O 	0.07591 0.45246 0.07990 -0.44600
O 	O 	0.88232 0.44830 0.56470 -0.44500
O 	O 	0.94279 0.46910 0.39330 -0.42000
O 	O 	0.05551 0.33130 0.22800 -0.26800
La	La	0.63260 0.86204 0.74817 1.77400
S 	S 	0.62997 0.75521 0.48922 0.69200
O 	O 	0.71722 0.91869 0.66160 -0.29100
O 	O 	0.71821 0.83567 0.84000 -0.32900
O 	O 	0.67151 0.78833 0.55770 -0.35100
O 	O 	0.54296 0.84980 0.77640 -0.48600
O 	O 	0.63234 0.76320 0.33560 -0.35300
O 	O 	0.58711 0.78870 0.54800 -0.39300
O 	O 	0.63648 0.96150 0.90180 -0.26900
O 	O 	0.62893 0.68237 0.51510 -0.34800
O 	O 	0.57591 0.95246 0.07990 -0.34200
O 	O 	0.38232 0.94830 0.56470 -0.34500
O 	O 	0.44279 0.96910 0.39330 -0.36300
O 	O 	0.55551 0.83130 0.22800 -0.26100
La	La	0.86740 0.13796 0.24817 1.74900
S 	S 	0.87003 0.24479 0.98922 0.86600
O 	O 	0.78278 0.08131 0.16160 -0.35100
O 	O 	0.78179 0.16433 0.34000 -0.35000
O 	O 	0.82849 0.21167 0.05770 -0.42000
O 	O 	0.95704 0.15020 0.27640 -0.39400
O 	O 	0.86766 0.23680 0.83560 -0.37800
O 	O 	0.91289 0.21130 0.04800 -0.43400
O 	O 	0.86352 0.03850 0.40180 -0.40800
O 	O 	0.87107 0.31763 0.01510 -0.41700
O 	O 	0.92409 0.04754 0.57990 -0.38200
O 	O 	0.11768 0.05170 0.06470 -0.41700
O 	O 	0.05721 0.03090 0.89330 -0.41500
O 	O 	0.94449 0.16870 0.72800 -0.18600
La	La	0.36740 0.63796 0.24817 1.76000
S 	S 	0.37003 0.74479 0.98922 0.86400
O 	O 	0.28278 0.58131 0.16160 -0.32400
O 	O 	0.28179 0.66433 0.34000 -0.34300
O 	O 	0.32849 0.71167 0.05770 -0.41400
O 	O 	0.45704 0.65020 0.27640 -0.50300
O 	O 	0.36766 0.73680 0.83560 -0.37800
O 	O 	0.41289 0.71130 0.04800 -0.46000
O 	O 	0.36352 0.53850 0.40180 -0.43300
O 	O 	0.37107 0.81763 0.01510 -0.41800
O 	O 	0.42409 0.54754 0.57990 -0.46200
O 	O 	0.61768 0.55170 0.06470 -0.44600
O 	O 	0.55721 0.53090 0.89330 -0.43300
O 	O 	0.44449 0.66870 0.72800 -0.24800
La	La	0.86740 0.86204 0.75183 1.76800
S 	S 	0.87003 0.75521 0.01078 0.51100
O 	O 	0.78278 0.91869 0.83840 -0.28300
O 	O 	0.78179 0.83567 0.66000 -0.34100
O 	O 	0.82849 0.78833 0.94230 -0.29000
O 	O 	0.95704 0.84980 0.72360 -0.37400
O 	O 	0.86766 0.76320 0.16440 -0.32200
O 	O 	0.91289 0.78870 0.95200 -0.30000
O 	O 	0.86352 0.96150 0.59820 -0.31300
O 	O 	0.87107 0.68237 0.98490 -0.27100
O 	O 	0.92409 0.95246 0.42010 -0.30200
O 	O 	0.11768 0.94830 0.93530 -0.29000
O 	O 	0.05721 0.96910 0.10670 -0.35600
O 	O 	0.94449 0.83130 0.27200 -0.19800
La	La	0.36740 0.36204 0.75183 1.76300
S 	S 	0.37003 0.25521 0.01078 0.51100
O 	O 	0.28278 0.41869 0.83840 -0.30400
O 	O 	0.28179 0.33567 0.66000 -0.34500
O 	O 	0.32849 0.28833 0.94230 -0.29100
O 	O 	0.45704 0.34980 0.72360 -0.49700
O 	O 	0.36766 0.26320 0.16440 -0.32800
O 	O 	0.41289 0.28870 0.95200 -0.32600
O 	O 	0.36352 0.46150 0.59820 -0.43100
O 	O 	0.37107 0.18237 0.98490 -0.27900
O 	O 	0.42409 0.45246 0.42010 -0.46400
O 	O 	0.61768 0.44830 0.93530 -0.40100
O 	O 	0.55721 0.46910 0.10670 -0.47100
O 	O 	0.44449 0.33130 0.27200 -0.25800
La	La	0.13260 0.63796 0.25183 1.74700
S 	S 	0.12997 0.74479 0.51078 0.69000
O 	O 	0.21722 0.58131 0.33840 -0.31500
O 	O 	0.21821 0.66433 0.16000 -0.35500
O 	O 	0.17151 0.71167 0.44230 -0.35100
O 	O 	0.04296 0.65020 0.22360 -0.48700
O 	O 	0.13234 0.73680 0.66440 -0.35300
O 	O 	0.08711 0.71130 0.45200 -0.40000
O 	O 	0.13648 0.53850 0.09820 -0.42200
O 	O 	0.12893 0.81763 0.48490 -0.34800
O 	O 	0.07591 0.54754 0.92010 -0.40300
O 	O 	0.88232 0.55170 0.43530 -0.44400
O 	O 	0.94279 0.53090 0.60670 -0.42100
O 	O 	0.05551 0.66870 0.77200 -0.25600
La	La	0.63260 0.13796 0.25183 1.73200
S 	S 	0.62997 0.24479 0.51078 0.69000
O 	O 	0.71722 0.08131 0.33840 -0.34200
O 	O 	0.71821 0.16433 0.16000 -0.36200
O 	O 	0.67151 0.21167 0.44230 -0.35600
O 	O 	0.54296 0.15020 0.22360 -0.51000
O 	O 	0.63234 0.23680 0.66440 -0.35500
O 	O 	0.58711 0.21130 0.45200 -0.39400
O 	O 	0.63648 0.03850 0.09820 -0.40600
O 	O 	0.62893 0.31763 0.48490 -0.35200
O 	O 	0.57591 0.04754 0.92010 -0.38100
O 	O 	0.38232 0.05170 0.43530 -0.42700
O 	O 	0.44279 0.03090 0.60670 -0.46200
O 	O 	0.55551 0.16870 0.77200 -0.24800
La	La	0.86740 0.63796 0.25183 1.75400
S 	S 	0.87003 0.74479 0.51078 0.68500
O 	O 	0.78278 0.58131 0.33840 -0.31600
O 	O 	0.78179 0.66433 0.16000 -0.35700
O 	O 	0.82849 0.71167 0.44230 -0.35200
O 	O 	0.95704 0.65020 0.22360 -0.39100
O 	O 	0.86766 0.73680 0.66440 -0.34800
O 	O 	0.91289 0.71130 0.45200 -0.36600
O 	O 	0.86352 0.53850 0.09820 -0.41700
O 	O 	0.87107 0.81763 0.48490 -0.34100
O 	O 	0.92409 0.54754 0.92010 -0.35800
O 	O 	0.11768 0.55170 0.43530 -0.45400
O 	O 	0.05721 0.53090 0.60670 -0.49200
O 	O 	0.94449 0.66870 0.77200 -0.18500
La	La	0.36740 0.13796 0.25183 1.73200
S 	S 	0.37003 0.24479 0.51078 0.69000
O 	O 	0.28278 0.08131 0.33840 -0.34100
O 	O 	0.28179 0.16433 0.16000 -0.36200
O 	O 	0.32849 0.21167 0.44230 -0.35600
O 	O 	0.45704 0.15020 0.22360 -0.51000
O 	O 	0.36766 0.23680 0.66440 -0.35500
O 	O 	0.41289 0.21130 0.45200 -0.39400
O 	O 	0.36352 0.03850 0.09820 -0.40600
O 	O 	0.37107 0.31763 0.48490 -0.35200
O 	O 	0.42409 0.04754 0.92010 -0.38100
O 	O 	0.61768 0.05170 0.43530 -0.42700
O 	O 	0.55721 0.03090 0.60670 -0.46300
O 	O 	0.44449 0.16870 0.77200 -0.24800
La	La	0.13260 0.86204 0.75183 1.76100
S 	S 	0.12997 0.75521 0.01078 0.51700
O 	O 	0.21722 0.91869 0.83840 -0.28200
O 	O 	0.21821 0.83567 0.66000 -0.33900
O 	O 	0.17151 0.78833 0.94230 -0.28900
O 	O 	0.04296 0.84980 0.72360 -0.47000
O 	O 	0.13234 0.76320 0.16440 -0.32800
O 	O 	0.08711 0.78870 0.95200 -0.33400
O 	O 	0.13648 0.96150 0.59820 -0.31700
O 	O 	0.12893 0.68237 0.98490 -0.27800
O 	O 	0.07591 0.95246 0.42010 -0.34700
O 	O 	0.88232 0.94830 0.93530 -0.28000
O 	O 	0.94279 0.96910 0.10670 -0.28700
O 	O 	0.05551 0.83130 0.27200 -0.26900
La	La	0.63260 0.36204 0.75183 1.76300
S 	S 	0.62997 0.25521 0.01078 0.51100
O 	O 	0.71722 0.41869 0.83840 -0.30400
O 	O 	0.71821 0.33567 0.66000 -0.34600
O 	O 	0.67151 0.28833 0.94230 -0.29100
O 	O 	0.54296 0.34980 0.72360 -0.49700
O 	O 	0.63234 0.26320 0.16440 -0.32800
O 	O 	0.58711 0.28870 0.95200 -0.32600
O 	O 	0.63648 0.46150 0.59820 -0.43200
O 	O 	0.62893 0.18237 0.98490 -0.27900
O 	O 	0.57591 0.45246 0.42010 -0.46400
O 	O 	0.38232 0.44830 0.93530 -0.40000
O 	O 	0.44279 0.46910 0.10670 -0.47100
O 	O 	0.55551 0.33130 0.27200 -0.25800
La	La	0.13260 0.13796 0.24817 1.74200
S 	S 	0.12997 0.24479 0.98922 0.87100
O 	O 	0.21722 0.08131 0.16160 -0.34900
O 	O 	0.21821 0.16433 0.34000 -0.34900
O 	O 	0.17151 0.21167 0.05770 -0.41900
O 	O 	0.04296 0.15020 0.27640 -0.48900
O 	O 	0.13234 0.23680 0.83560 -0.38300
O 	O 	0.08711 0.21130 0.04800 -0.46700
O 	O 	0.13648 0.03850 0.40180 -0.41200
O 	O 	0.12893 0.31763 0.01510 -0.42400
O 	O 	0.07591 0.04754 0.57990 -0.42700
O 	O 	0.88232 0.05170 0.06470 -0.40600
O 	O 	0.94279 0.03090 0.89330 -0.34600
O 	O 	0.05551 0.16870 0.72800 -0.25700
La	La	0.63260 0.63796 0.24817 1.76000
S 	S 	0.62997 0.74479 0.98922 0.86400
O 	O 	0.71722 0.58131 0.16160 -0.32500
O 	O 	0.71821 0.66433 0.34000 -0.34400
O 	O 	0.67151 0.71167 0.05770 -0.41400
O 	O 	0.54296 0.65020 0.27640 -0.50300
O 	O 	0.63234 0.73680 0.83560 -0.37800
O 	O 	0.58711 0.71130 0.04800 -0.46000
O 	O 	0.63648 0.53850 0.40180 -0.43300
O 	O 	0.62893 0.81763 0.01510 -0.41800
O 	O 	0.57591 0.54754 0.57990 -0.46200
O 	O 	0.38232 0.55170 0.06470 -0.44600
O 	O 	0.44279 0.53090 0.89330 -0.43300
O 	O 	0.55551 0.66870 0.72800 -0.24800
La	La	0.86740 0.36204 0.74817 1.78100
S 	S 	0.87003 0.25521 0.48922 0.68900
O 	O 	0.78278 0.41869 0.66160 -0.31300
O 	O 	0.78179 0.33567 0.84000 -0.33400
O 	O 	0.82849 0.28833 0.55770 -0.35500
O 	O 	0.95704 0.34980 0.77640 -0.37900
O 	O 	0.86766 0.26320 0.33560 -0.35100
O 	O 	0.91289 0.28870 0.54800 -0.36600
O 	O 	0.86352 0.46150 0.90180 -0.37300
O 	O 	0.87107 0.18237 0.51510 -0.34400
O 	O 	0.92409 0.45246 0.07990 -0.40000
O 	O 	0.11768 0.44830 0.56470 -0.45600
O 	O 	0.05721 0.46910 0.39330 -0.49000
O 	O 	0.94449 0.33130 0.22800 -0.19600
La	La	0.36740 0.86204 0.74817 1.77400
S 	S 	0.37003 0.75521 0.48922 0.69200
O 	O 	0.28278 0.91869 0.66160 -0.29000
O 	O 	0.28179 0.83567 0.84000 -0.32800
O 	O 	0.32849 0.78833 0.55770 -0.35100
O 	O 	0.45704 0.84980 0.77640 -0.48600
O 	O 	0.36766 0.76320 0.33560 -0.35300
O 	O 	0.41289 0.78870 0.54800 -0.39300
O 	O 	0.36352 0.96150 0.90180 -0.26900
O 	O 	0.37107 0.68237 0.51510 -0.34800
O 	O 	0.42409 0.95246 0.07990 -0.34200
O 	O 	0.61768 0.94830 0.56470 -0.34500
O 	O 	0.55721 0.96910 0.39330 -0.36300
O 	O 	0.44449 0.83130 0.22800 -0.26100
La	La	0.00000 0.43257 0.21345 1.69100
S 	S 	0.00000 0.37545 0.84880 0.73900
Na	Na	0.00000 0.24225 0.11850 0.57900
O 	O 	0.00000 0.35240 0.99520 -0.46200
O 	O 	0.00000 0.44820 0.84650 -0.52800
O 	O 	0.00000 0.36110 0.47000 -0.28500
La	La	0.50000 0.93257 0.21345 1.81300
S 	S 	0.50000 0.87545 0.84880 0.88200
Na	Na	0.50000 0.74225 0.11850 0.59200
O 	O 	0.50000 0.85240 0.99520 -0.45300
O 	O 	0.50000 0.94820 0.84650 -0.47500
O 	O 	0.50000 0.86110 0.47000 -0.22400
La	La	0.00000 0.06743 0.71345 1.64900
S 	S 	0.00000 0.12455 0.34880 0.75000
Na	Na	0.00000 0.25775 0.61850 0.58300
O 	O 	0.00000 0.14760 0.49520 -0.49600
O 	O 	-0.00000 0.05180 0.34650 -0.58600
O 	O 	-0.00000 0.13890 0.97000 -0.25900
La	La	0.50000 0.56743 0.71345 1.80600
S 	S 	0.50000 0.62455 0.34880 0.89600
Na	Na	0.50000 0.75775 0.61850 0.59500
O 	O 	0.50000 0.64760 0.49520 -0.48500
O 	O 	0.50000 0.55180 0.34650 -0.53900
O 	O 	0.50000 0.63890 0.97000 -0.20000
La	La	0.00000 0.93257 0.28655 1.72300
S 	S 	0.00000 0.87545 0.65120 0.73100
Na	Na	0.00000 0.74225 0.38150 0.58200
O 	O 	-0.00000 0.85240 0.50480 -0.49300
O 	O 	0.00000 0.94820 0.65350 -0.48600
O 	O 	-0.00000 0.86110 0.03000 -0.30900
La	La	0.50000 0.43257 0.28655 1.80100
S 	S 	0.50000 0.37545 0.65120 0.89900
Na	Na	0.50000 0.24225 0.38150 0.59500
O 	O 	0.50000 0.35240 0.50480 -0.48500
O 	O 	0.50000 0.44820 0.65350 -0.53600
O 	O 	0.50000 0.36110 0.03000 -0.25800
La	La	0.00000 0.56743 0.78655 1.71800
S 	S 	0.00000 0.62455 0.15120 0.74300
Na	Na	0.00000 0.75775 0.88150 0.58600
O 	O 	0.00000 0.64760 0.00480 -0.52700
O 	O 	0.00000 0.55180 0.15350 -0.54800
O 	O 	0.00000 0.63890 0.53000 -0.28600
La	La	0.50000 0.06743 0.78655 1.76000
S 	S 	0.50000 0.12455 0.15120 0.90800
Na	Na	0.50000 0.25775 0.88150 0.59900
O 	O 	0.50000 0.14760 0.00480 -0.52000
O 	O 	0.50000 0.05180 0.15350 -0.59300
O 	O 	0.50000 0.13890 0.53000 -0.23200
S 	S 	0.10522 0.50000 -0.00000 0.73100
S 	S 	0.60522 0.00000 -0.00000 0.48200
S 	S 	0.89478 -0.00000 0.50000 0.58700
S 	S 	0.39478 0.50000 0.50000 0.85300
S 	S 	0.89478 0.50000 -0.00000 0.72200
S 	S 	0.39478 0.00000 -0.00000 0.48300
S 	S 	0.10522 -0.00000 0.50000 0.59700
S 	S 	0.60522 0.50000 0.50000 0.85300
S 	S 	0.25000 0.37681 0.75000 0.64200
S 	S 	0.75000 0.12319 0.25000 0.65200
S 	S 	0.75000 0.87681 0.75000 0.63900
S 	S 	0.25000 0.62319 0.25000 0.64800
S 	S 	0.75000 0.62319 0.25000 0.64800
S 	S 	0.25000 0.12319 0.25000 0.65200
S 	S 	0.25000 0.87681 0.75000 0.63900
S 	S 	0.75000 0.37681 0.75000 0.64200
S 	S 	0.91273 0.50000 0.50000 0.92300
S 	S 	0.41273 -0.00000 0.50000 0.67800
S 	S 	0.08727 0.00000 -0.00000 0.55500
S 	S 	0.58727 0.50000 -0.00000 0.82000
S 	S 	0.08727 0.50000 0.50000 0.94000
S 	S 	0.58727 -0.00000 0.50000 0.67700
S 	S 	0.91273 0.00000 -0.00000 0.53500
S 	S 	0.41273 0.50000 -0.00000 0.82000
