data_crystal

_cell_length_a 18.65000
_cell_length_b 18.65000
_cell_length_c 6.83290
_cell_angle_alpha 90.00000
_cell_angle_beta  90.00000
_cell_angle_gamma 120.00000

_symmetry_space_group_name_	'P 1'
_symmetry_space_group_name_H-M	'P 1'

loop_
_symmetry_equiv_pos_as_xyz
  x,y,z

loop_
_atom_site_label
_atom_site_type_symbol
_atom_site_fract_x
_atom_site_fract_y
_atom_site_fract_z
_atom_site_charge
O 	O 	0.28420 0.08240 0.25330 -0.22000
O 	O 	0.48060 0.37120 0.48230 -0.40500
O 	O 	0.44200 0.41100 0.75000 -0.40500
C 	C 	0.37810 0.25350 0.91480 0.02700
H 	H 	0.36400 0.28950 0.97500 0.05400
C 	C 	0.42270 0.27620 0.73930 -0.10900
C 	C 	0.45030 0.35900 0.65070 0.37000
C 	C 	0.23710 0.04980 0.42800 -0.16100
H 	H 	0.99580 0.22940 0.54670 0.07700
H 	H 	0.04590 0.18410 0.58700 0.07700
H 	H 	0.08580 0.26600 0.46410 0.08600
O 	O 	0.91760 0.20180 0.25330 -0.21900
O 	O 	0.62880 0.10940 0.48230 -0.40400
O 	O 	0.58900 0.03100 0.75000 -0.40400
C 	C 	0.74650 0.12460 0.91480 0.02700
H 	H 	0.71050 0.07450 0.97500 0.05600
C 	C 	0.72380 0.14650 0.73930 -0.10800
C 	C 	0.64100 0.09130 0.65070 0.37000
C 	C 	0.95020 0.18730 0.42800 -0.16000
H 	H 	0.77060 0.76640 0.54670 0.07600
H 	H 	0.81590 0.86180 0.58700 0.07700
H 	H 	0.73400 0.81980 0.46410 0.08600
O 	O 	0.79820 0.71580 0.25330 -0.21900
O 	O 	0.89060 0.51940 0.48230 -0.40400
O 	O 	0.96900 0.55800 0.75000 -0.40400
C 	C 	0.87540 0.62190 0.91480 0.02800
H 	H 	0.92550 0.63600 0.97500 0.05600
C 	C 	0.85350 0.57730 0.73930 -0.10800
C 	C 	0.90870 0.54970 0.65070 0.37100
C 	C 	0.81270 0.76290 0.42800 -0.15900
H 	H 	0.23360 0.00420 0.54670 0.07600
H 	H 	0.13820 0.95410 0.58700 0.07700
H 	H 	0.18020 0.91420 0.46410 0.08600
O 	O 	0.08240 0.28420 0.74670 -0.21900
O 	O 	0.37120 0.48060 0.51770 -0.40400
O 	O 	0.41100 0.44200 0.25000 -0.40400
C 	C 	0.25350 0.37810 0.08520 0.02800
H 	H 	0.28950 0.36400 0.02500 0.05500
C 	C 	0.27620 0.42270 0.26070 -0.10800
C 	C 	0.35900 0.45030 0.34930 0.37100
C 	C 	0.04980 0.23710 0.57200 -0.16000
H 	H 	0.22940 0.99580 0.45330 0.07700
H 	H 	0.18410 0.04590 0.41300 0.07700
H 	H 	0.26600 0.08580 0.53590 0.08600
O 	O 	0.20180 0.91760 0.74670 -0.21900
O 	O 	0.10940 0.62880 0.51770 -0.40400
O 	O 	0.03100 0.58900 0.25000 -0.40400
C 	C 	0.12460 0.74650 0.08520 0.02700
H 	H 	0.07450 0.71050 0.02500 0.05600
C 	C 	0.14650 0.72380 0.26070 -0.10800
C 	C 	0.09130 0.64100 0.34930 0.37000
C 	C 	0.18730 0.95020 0.57200 -0.16000
H 	H 	0.76640 0.77060 0.45330 0.07600
H 	H 	0.86180 0.81590 0.41300 0.07700
H 	H 	0.81980 0.73400 0.53590 0.08600
O 	O 	0.71580 0.79820 0.74670 -0.21900
O 	O 	0.51940 0.89060 0.51770 -0.40400
O 	O 	0.55800 0.96900 0.25000 -0.40400
C 	C 	0.62190 0.87540 0.08520 0.02800
H 	H 	0.63600 0.92550 0.02500 0.05600
C 	C 	0.57730 0.85350 0.26070 -0.10800
C 	C 	0.54970 0.90870 0.34930 0.37100
C 	C 	0.76290 0.81270 0.57200 -0.15900
H 	H 	0.00420 0.23360 0.45330 0.07600
H 	H 	0.95410 0.13820 0.41300 0.07700
H 	H 	0.91420 0.18020 0.53590 0.08600
O 	O 	0.71580 0.91760 0.74670 -0.21900
O 	O 	0.51940 0.62880 0.51770 -0.40400
O 	O 	0.55800 0.58900 0.25000 -0.40400
C 	C 	0.62190 0.74650 0.08520 0.02800
H 	H 	0.63600 0.71050 0.02500 0.05500
C 	C 	0.57730 0.72380 0.26070 -0.10800
C 	C 	0.54970 0.64100 0.34930 0.37100
C 	C 	0.76290 0.95020 0.57200 -0.16000
H 	H 	0.00420 0.77060 0.45330 0.07700
H 	H 	0.95410 0.81590 0.41300 0.07700
H 	H 	0.91420 0.73400 0.53590 0.08600
O 	O 	0.08240 0.79820 0.74670 -0.21900
O 	O 	0.37120 0.89060 0.51770 -0.40400
O 	O 	0.41100 0.96900 0.25000 -0.40400
C 	C 	0.25350 0.87540 0.08520 0.02700
H 	H 	0.28950 0.92550 0.02500 0.05600
C 	C 	0.27620 0.85350 0.26070 -0.10800
C 	C 	0.35900 0.90870 0.34930 0.37000
C 	C 	0.04980 0.81270 0.57200 -0.16000
H 	H 	0.22940 0.23360 0.45330 0.07600
H 	H 	0.18410 0.13820 0.41300 0.07700
H 	H 	0.26600 0.18020 0.53590 0.08600
O 	O 	0.20180 0.28420 0.74670 -0.21900
O 	O 	0.10940 0.48060 0.51770 -0.40400
O 	O 	0.03100 0.44200 0.25000 -0.40400
C 	C 	0.12460 0.37810 0.08520 0.02800
H 	H 	0.07450 0.36400 0.02500 0.05600
C 	C 	0.14650 0.42270 0.26070 -0.10800
C 	C 	0.09130 0.45030 0.34930 0.37100
C 	C 	0.18730 0.23710 0.57200 -0.15900
H 	H 	0.76640 0.99580 0.45330 0.07600
H 	H 	0.86180 0.04590 0.41300 0.07700
H 	H 	0.81980 0.08580 0.53590 0.08600
O 	O 	0.91760 0.71580 0.25330 -0.21900
O 	O 	0.62880 0.51940 0.48230 -0.40400
O 	O 	0.58900 0.55800 0.75000 -0.40400
C 	C 	0.74650 0.62190 0.91480 0.02800
H 	H 	0.71050 0.63600 0.97500 0.05500
C 	C 	0.72380 0.57730 0.73930 -0.10800
C 	C 	0.64100 0.54970 0.65070 0.37100
C 	C 	0.95020 0.76290 0.42800 -0.16000
H 	H 	0.77060 0.00420 0.54670 0.07700
H 	H 	0.81590 0.95410 0.58700 0.07700
H 	H 	0.73400 0.91420 0.46410 0.08600
O 	O 	0.79820 0.08240 0.25330 -0.21900
O 	O 	0.89060 0.37120 0.48230 -0.40400
O 	O 	0.96900 0.41100 0.75000 -0.40400
C 	C 	0.87540 0.25350 0.91480 0.02700
H 	H 	0.92550 0.28950 0.97500 0.05600
C 	C 	0.85350 0.27620 0.73930 -0.10800
C 	C 	0.90870 0.35900 0.65070 0.37000
C 	C 	0.81270 0.04980 0.42800 -0.16000
H 	H 	0.23360 0.22940 0.54670 0.07600
H 	H 	0.13820 0.18410 0.58700 0.07700
H 	H 	0.18020 0.26600 0.46410 0.08600
O 	O 	0.28420 0.20180 0.25330 -0.21900
O 	O 	0.48060 0.10940 0.48230 -0.40400
O 	O 	0.44200 0.03100 0.75000 -0.40400
C 	C 	0.37810 0.12460 0.91480 0.02800
H 	H 	0.36400 0.07450 0.97500 0.05600
C 	C 	0.42270 0.14650 0.73930 -0.10800
C 	C 	0.45030 0.09130 0.65070 0.37100
C 	C 	0.23710 0.18730 0.42800 -0.15900
H 	H 	0.99580 0.76640 0.54670 0.07600
H 	H 	0.04590 0.86180 0.58700 0.07700
H 	H 	0.08580 0.81980 0.46410 0.08600
C 	C 	0.30380 0.15190 0.18390 0.27600
C 	C 	0.35500 0.17750 0.99890 -0.07500
C 	C 	0.44390 0.22195 0.65170 0.04700
H 	H 	0.47250 0.23625 0.53360 0.04900
C 	C 	0.84810 0.15190 0.18390 0.27400
C 	C 	0.82250 0.17750 0.99890 -0.07300
C 	C 	0.77805 0.22195 0.65170 0.04600
H 	H 	0.76375 0.23625 0.53360 0.05000
C 	C 	0.84810 0.69620 0.18390 0.27600
C 	C 	0.82250 0.64500 0.99890 -0.07500
C 	C 	0.77805 0.55610 0.65170 0.04700
H 	H 	0.76375 0.52750 0.53360 0.04900
C 	C 	0.15190 0.30380 0.81610 0.27600
C 	C 	0.17750 0.35500 0.00110 -0.07500
C 	C 	0.22195 0.44390 0.34830 0.04700
H 	H 	0.23625 0.47250 0.46640 0.04900
C 	C 	0.15190 0.84810 0.81610 0.27400
C 	C 	0.17750 0.82250 0.00110 -0.07300
C 	C 	0.22195 0.77805 0.34830 0.04600
H 	H 	0.23625 0.76375 0.46640 0.05000
C 	C 	0.69620 0.84810 0.81610 0.27600
C 	C 	0.64500 0.82250 0.00110 -0.07500
C 	C 	0.55610 0.77805 0.34830 0.04700
H 	H 	0.52750 0.76375 0.46640 0.04900
Cu	Cu	0.52330 0.47670 0.34331 0.90700
Cu	Cu	0.52330 0.04660 0.34331 0.90700
Cu	Cu	0.95340 0.47670 0.34331 0.90700
Cu	Cu	0.47670 0.52330 0.65669 0.90700
Cu	Cu	0.04660 0.52330 0.65669 0.90700
Cu	Cu	0.47670 0.95340 0.65669 0.90700
