data_crystal

_cell_length_a 18.20600
_cell_length_b 18.32000
_cell_length_c 14.76500
_cell_angle_alpha 90.00000
_cell_angle_beta  92.16100
_cell_angle_gamma 90.00000

_symmetry_space_group_name_	'P 1'
_symmetry_space_group_name_H-M	'P 1'

loop_
_symmetry_equiv_pos_as_xyz
  x,y,z

loop_
_atom_site_label
_atom_site_type_symbol
_atom_site_fract_x
_atom_site_fract_y
_atom_site_fract_z
_atom_site_charge
Zn	Zn	0.32735 0.26152 0.77448 1.18100
C 	C 	0.15410 0.30140 0.80240 0.10600
C 	C 	0.14980 0.28320 0.89800 -0.00800
C 	C 	0.17030 0.21520 0.93080 -0.10300
H 	H 	0.18190 0.17740 0.88970 0.05000
C 	C 	0.13110 0.33450 0.96250 -0.10200
H 	H 	0.11460 0.38130 0.94320 0.06000
C 	C 	0.17380 0.20190 0.02210 0.06100
H 	H 	0.18770 0.15460 0.04300 0.00700
C 	C 	0.13600 0.31910 0.05180 0.05600
H 	H 	0.12320 0.35570 0.09390 -0.02200
C 	C 	0.19930 0.31190 0.67070 -0.05500
C 	C 	0.13040 0.34040 0.66620 -0.04600
C 	C 	0.08530 0.37310 0.59100 0.30200
C 	C 	0.25550 0.30760 0.60270 0.36200
C 	C 	0.41090 0.39720 0.76550 0.27600
C 	C 	0.46200 0.33840 0.75540 -0.01800
C 	C 	0.47570 0.03330 0.67720 0.05600
H 	H 	0.45920 0.00740 0.62450 0.01600
C 	C 	0.47340 0.10860 0.67460 -0.11300
H 	H 	0.45400 0.13350 0.62250 0.08800
N 	N 	0.15820 0.25350 0.08320 -0.25600
N 	N 	0.21530 0.28670 0.75570 -0.23600
N 	N 	0.10080 0.33470 0.75100 -0.25600
N 	N 	0.43960 0.26810 0.75660 -0.24100
O 	O 	0.11390 0.38170 0.51630 -0.28200
O 	O 	0.02000 0.38830 0.60850 -0.42800
O 	O 	0.24190 0.33410 0.52280 -0.43300
H 	H 	0.20090 0.35530 0.52160 0.28700
O 	O 	0.31600 0.27930 0.62450 -0.37200
O 	O 	0.34520 0.38070 0.77990 -0.36100
O 	O 	0.43330 0.46350 0.76010 -0.18700
Zn	Zn	0.82735 0.76152 0.77448 1.18300
C 	C 	0.65410 0.80140 0.80240 0.11100
C 	C 	0.64980 0.78320 0.89800 -0.00500
C 	C 	0.67030 0.71520 0.93080 -0.09600
H 	H 	0.68190 0.67740 0.88970 0.05400
C 	C 	0.63110 0.83450 0.96250 -0.09300
H 	H 	0.61460 0.88130 0.94320 0.06800
C 	C 	0.67380 0.70190 0.02210 0.06000
H 	H 	0.68770 0.65460 0.04300 0.00900
C 	C 	0.63600 0.81910 0.05180 0.05700
H 	H 	0.62320 0.85570 0.09390 -0.01500
C 	C 	0.69930 0.81190 0.67070 -0.05400
C 	C 	0.63040 0.84040 0.66620 -0.04100
C 	C 	0.58530 0.87310 0.59100 0.30000
C 	C 	0.75550 0.80760 0.60270 0.36200
C 	C 	0.91090 0.89720 0.76550 0.25700
C 	C 	0.96200 0.83840 0.75540 0.04900
C 	C 	0.97570 0.53330 0.67720 0.08900
H 	H 	0.95920 0.50740 0.62450 0.02000
C 	C 	0.97340 0.60860 0.67460 -0.04900
H 	H 	0.95400 0.63350 0.62250 0.08000
N 	N 	0.65820 0.75350 0.08320 -0.25400
N 	N 	0.71530 0.78670 0.75570 -0.23500
N 	N 	0.60080 0.83470 0.75100 -0.25100
N 	N 	0.93960 0.76810 0.75660 -0.22500
O 	O 	0.61390 0.88170 0.51630 -0.27500
O 	O 	0.52000 0.88830 0.60850 -0.40300
O 	O 	0.74190 0.83410 0.52280 -0.42900
H 	H 	0.70090 0.85530 0.52160 0.28700
O 	O 	0.81600 0.77930 0.62450 -0.36700
O 	O 	0.84520 0.88070 0.77990 -0.35300
O 	O 	0.93330 0.96350 0.76010 -0.16100
Zn	Zn	0.67265 0.26152 0.72552 1.18200
C 	C 	0.84590 0.30140 0.69760 0.11400
C 	C 	0.85020 0.28320 0.60200 0.00300
C 	C 	0.82970 0.21520 0.56920 -0.09700
H 	H 	0.81810 0.17740 0.61030 0.05700
C 	C 	0.86890 0.33450 0.53750 -0.09200
H 	H 	0.88540 0.38130 0.55680 0.07700
C 	C 	0.82620 0.20190 0.47790 0.06600
H 	H 	0.81230 0.15460 0.45700 0.01000
C 	C 	0.86400 0.31910 0.44820 0.06400
H 	H 	0.87680 0.35570 0.40610 -0.00800
C 	C 	0.80070 0.31190 0.82930 -0.05500
C 	C 	0.86960 0.34040 0.83380 -0.03300
C 	C 	0.91470 0.37310 0.90900 0.29800
C 	C 	0.74450 0.30760 0.89730 0.36500
C 	C 	0.58910 0.39720 0.73450 0.27600
C 	C 	0.53800 0.33840 0.74460 -0.01800
C 	C 	0.52430 0.03330 0.82280 0.05600
H 	H 	0.54080 0.00740 0.87550 0.01600
C 	C 	0.52660 0.10860 0.82540 -0.11300
H 	H 	0.54600 0.13350 0.87750 0.08800
N 	N 	0.84180 0.25350 0.41680 -0.25200
N 	N 	0.78470 0.28670 0.74430 -0.23500
N 	N 	0.89920 0.33470 0.74900 -0.24100
N 	N 	0.56040 0.26810 0.74340 -0.24100
O 	O 	0.88610 0.38170 0.98370 -0.26800
O 	O 	0.98000 0.38830 0.89150 -0.37100
O 	O 	0.75810 0.33410 0.97720 -0.43300
H 	H 	0.79910 0.35530 0.97840 0.28800
O 	O 	0.68400 0.27930 0.87550 -0.37200
O 	O 	0.65480 0.38070 0.72010 -0.36100
O 	O 	0.56670 0.46350 0.73990 -0.18700
Zn	Zn	0.17265 0.76152 0.72552 1.18200
C 	C 	0.34590 0.80140 0.69760 0.11000
C 	C 	0.35020 0.78320 0.60200 -0.00400
C 	C 	0.32970 0.71520 0.56920 -0.09700
H 	H 	0.31810 0.67740 0.61030 0.05300
C 	C 	0.36890 0.83450 0.53750 -0.09400
H 	H 	0.38540 0.88130 0.55680 0.06700
C 	C 	0.32620 0.70190 0.47790 0.06200
H 	H 	0.31230 0.65460 0.45700 0.00900
C 	C 	0.36400 0.81910 0.44820 0.05800
H 	H 	0.37680 0.85570 0.40610 -0.01600
C 	C 	0.30070 0.81190 0.82930 -0.05500
C 	C 	0.36960 0.84040 0.83380 -0.04100
C 	C 	0.41470 0.87310 0.90900 0.30000
C 	C 	0.24450 0.80760 0.89730 0.36400
C 	C 	0.08910 0.89720 0.73450 0.29500
C 	C 	0.03800 0.83840 0.74460 -0.08300
C 	C 	0.02430 0.53330 0.82280 0.03600
H 	H 	0.04080 0.50740 0.87550 0.01200
C 	C 	0.02660 0.60860 0.82540 -0.09800
H 	H 	0.04600 0.63350 0.87750 0.07700
N 	N 	0.34180 0.75350 0.41680 -0.25400
N 	N 	0.28470 0.78670 0.74430 -0.23500
N 	N 	0.39920 0.83470 0.74900 -0.25100
N 	N 	0.06040 0.76810 0.74340 -0.23100
O 	O 	0.38610 0.88170 0.98370 -0.27700
O 	O 	0.48000 0.88830 0.89150 -0.40300
O 	O 	0.25810 0.83410 0.97720 -0.43600
H 	H 	0.29910 0.85530 0.97840 0.28700
O 	O 	0.18400 0.77930 0.87550 -0.37500
O 	O 	0.15480 0.88070 0.72010 -0.36900
O 	O 	0.06670 0.96350 0.73990 -0.21200
Zn	Zn	0.67265 0.73848 0.22552 1.18200
C 	C 	0.84590 0.69860 0.19760 0.11300
C 	C 	0.85020 0.71680 0.10200 0.00400
C 	C 	0.82970 0.78480 0.06920 -0.09800
H 	H 	0.81810 0.82260 0.11030 0.05700
C 	C 	0.86890 0.66550 0.03750 -0.09400
H 	H 	0.88540 0.61870 0.05680 0.07700
C 	C 	0.82620 0.79810 0.97790 0.06700
H 	H 	0.81230 0.84540 0.95700 0.01000
C 	C 	0.86400 0.68090 0.94820 0.06500
H 	H 	0.87680 0.64430 0.90610 -0.00800
C 	C 	0.80070 0.68810 0.32930 -0.05500
C 	C 	0.86960 0.65960 0.33380 -0.03300
C 	C 	0.91470 0.62690 0.40900 0.29700
C 	C 	0.74450 0.69240 0.39730 0.36500
C 	C 	0.58910 0.60280 0.23450 0.27600
C 	C 	0.53800 0.66160 0.24460 -0.01800
C 	C 	0.52430 0.96670 0.32280 0.05700
H 	H 	0.54080 0.99260 0.37550 0.01600
C 	C 	0.52660 0.89140 0.32540 -0.11300
H 	H 	0.54600 0.86650 0.37750 0.08800
N 	N 	0.84180 0.74650 0.91680 -0.25300
N 	N 	0.78470 0.71330 0.24430 -0.23500
N 	N 	0.89920 0.66530 0.24900 -0.24100
N 	N 	0.56040 0.73190 0.24340 -0.24100
O 	O 	0.88610 0.61830 0.48370 -0.26800
O 	O 	0.98000 0.61170 0.39150 -0.37000
O 	O 	0.75810 0.66590 0.47720 -0.43200
H 	H 	0.79910 0.64470 0.47840 0.28800
O 	O 	0.68400 0.72070 0.37550 -0.37200
O 	O 	0.65480 0.61930 0.22010 -0.36100
O 	O 	0.56670 0.53650 0.23990 -0.18600
Zn	Zn	0.17265 0.23848 0.22552 1.18200
C 	C 	0.34590 0.19860 0.19760 0.11100
C 	C 	0.35020 0.21680 0.10200 -0.00600
C 	C 	0.32970 0.28480 0.06920 -0.09300
H 	H 	0.31810 0.32260 0.11030 0.05200
C 	C 	0.36890 0.16550 0.03750 -0.09100
H 	H 	0.38540 0.11870 0.05680 0.06600
C 	C 	0.32620 0.29810 0.97790 0.05900
H 	H 	0.31230 0.34540 0.95700 0.00900
C 	C 	0.36400 0.18090 0.94820 0.05400
H 	H 	0.37680 0.14430 0.90610 -0.01500
C 	C 	0.30070 0.18810 0.32930 -0.05500
C 	C 	0.36960 0.15960 0.33380 -0.04100
C 	C 	0.41470 0.12690 0.40900 0.30000
C 	C 	0.24450 0.19240 0.39730 0.36400
C 	C 	0.08910 0.10280 0.23450 0.29500
C 	C 	0.03800 0.16160 0.24460 -0.08200
C 	C 	0.02430 0.46670 0.32280 0.03600
H 	H 	0.04080 0.49260 0.37550 0.01200
C 	C 	0.02660 0.39140 0.32540 -0.09800
H 	H 	0.04600 0.36650 0.37750 0.07700
N 	N 	0.34180 0.24650 0.91680 -0.25300
N 	N 	0.28470 0.21330 0.24430 -0.23500
N 	N 	0.39920 0.16530 0.24900 -0.25100
N 	N 	0.06040 0.23190 0.24340 -0.23100
O 	O 	0.38610 0.11830 0.48370 -0.27700
O 	O 	0.48000 0.11170 0.39150 -0.40300
O 	O 	0.25810 0.16590 0.47720 -0.43600
H 	H 	0.29910 0.14470 0.47840 0.28700
O 	O 	0.18400 0.22070 0.37550 -0.37500
O 	O 	0.15480 0.11930 0.22010 -0.36900
O 	O 	0.06670 0.03650 0.23990 -0.21200
Zn	Zn	0.32735 0.73848 0.27448 1.18200
C 	C 	0.15410 0.69860 0.30240 0.10800
C 	C 	0.14980 0.71680 0.39800 -0.01000
C 	C 	0.17030 0.78480 0.43080 -0.09800
H 	H 	0.18190 0.82260 0.38970 0.05000
C 	C 	0.13110 0.66550 0.46250 -0.09700
H 	H 	0.11460 0.61870 0.44320 0.06000
C 	C 	0.17380 0.79810 0.52210 0.05700
H 	H 	0.18770 0.84540 0.54300 0.00700
C 	C 	0.13600 0.68090 0.55180 0.05300
H 	H 	0.12320 0.64430 0.59390 -0.02100
C 	C 	0.19930 0.68810 0.17070 -0.05500
C 	C 	0.13040 0.65960 0.16620 -0.04600
C 	C 	0.08530 0.62690 0.09100 0.30200
C 	C 	0.25550 0.69240 0.10270 0.36200
C 	C 	0.41090 0.60280 0.26550 0.27600
C 	C 	0.46200 0.66160 0.25540 -0.01800
C 	C 	0.47570 0.96670 0.17720 0.05600
H 	H 	0.45920 0.99260 0.12450 0.01600
C 	C 	0.47340 0.89140 0.17460 -0.11300
H 	H 	0.45400 0.86650 0.12250 0.08800
N 	N 	0.15820 0.74650 0.58320 -0.25500
N 	N 	0.21530 0.71330 0.25570 -0.23600
N 	N 	0.10080 0.66530 0.25100 -0.25600
N 	N 	0.43960 0.73190 0.25660 -0.24100
O 	O 	0.11390 0.61830 0.01630 -0.28200
O 	O 	0.02000 0.61170 0.10850 -0.42700
O 	O 	0.24190 0.66590 0.02280 -0.43300
H 	H 	0.20090 0.64470 0.02160 0.28700
O 	O 	0.31600 0.72070 0.12450 -0.37300
O 	O 	0.34520 0.61930 0.27990 -0.36100
O 	O 	0.43330 0.53650 0.26010 -0.18700
Zn	Zn	0.82735 0.23848 0.27448 1.18300
C 	C 	0.65410 0.19860 0.30240 0.11100
C 	C 	0.64980 0.21680 0.39800 -0.00400
C 	C 	0.67030 0.28480 0.43080 -0.09700
H 	H 	0.68190 0.32260 0.38970 0.05400
C 	C 	0.63110 0.16550 0.46250 -0.09400
H 	H 	0.61460 0.11870 0.44320 0.06800
C 	C 	0.67380 0.29810 0.52210 0.06100
H 	H 	0.68770 0.34540 0.54300 0.00900
C 	C 	0.63600 0.18090 0.55180 0.05800
H 	H 	0.62320 0.14430 0.59390 -0.01500
C 	C 	0.69930 0.18810 0.17070 -0.05400
C 	C 	0.63040 0.15960 0.16620 -0.04100
C 	C 	0.58530 0.12690 0.09100 0.30000
C 	C 	0.75550 0.19240 0.10270 0.36200
C 	C 	0.91090 0.10280 0.26550 0.25700
C 	C 	0.96200 0.16160 0.25540 0.04900
C 	C 	0.97570 0.46670 0.17720 0.08800
H 	H 	0.95920 0.49260 0.12450 0.02000
C 	C 	0.97340 0.39140 0.17460 -0.05000
H 	H 	0.95400 0.36650 0.12250 0.08000
N 	N 	0.65820 0.24650 0.58320 -0.25400
N 	N 	0.71530 0.21330 0.25570 -0.23500
N 	N 	0.60080 0.16530 0.25100 -0.25100
N 	N 	0.93960 0.23190 0.25660 -0.22500
O 	O 	0.61390 0.11830 0.01630 -0.27500
O 	O 	0.52000 0.11170 0.10850 -0.40300
O 	O 	0.74190 0.16590 0.02280 -0.42900
H 	H 	0.70090 0.14470 0.02160 0.28700
O 	O 	0.81600 0.22070 0.12450 -0.36700
O 	O 	0.84520 0.11930 0.27990 -0.35300
O 	O 	0.93330 0.03650 0.26010 -0.16100
Zn	Zn	0.00000 0.38173 0.75000 1.18300
Zn	Zn	0.50000 0.88173 0.75000 1.19600
Zn	Zn	0.00000 0.61827 0.25000 1.18300
Zn	Zn	0.50000 0.11827 0.25000 1.19600
C 	C 	0.50000 0.22740 0.75000 0.11500
C 	C 	0.50000 0.14720 0.75000 -0.01100
N 	N 	0.50000 0.99410 0.75000 -0.25300
C 	C 	0.00000 0.72740 0.75000 0.08300
C 	C 	0.00000 0.64720 0.75000 -0.07000
N 	N 	0.00000 0.49410 0.75000 -0.28000
C 	C 	0.50000 0.77260 0.25000 0.11500
C 	C 	0.50000 0.85280 0.25000 -0.01100
N 	N 	0.50000 0.00590 0.25000 -0.25300
C 	C 	-0.00000 0.27260 0.25000 0.08400
C 	C 	-0.00000 0.35280 0.25000 -0.06900
N 	N 	-0.00000 0.50590 0.25000 -0.28000
