data_crystal

_cell_length_a 18.08700
_cell_length_b 24.86700
_cell_length_c 17.61100
_cell_angle_alpha 90.00000
_cell_angle_beta  90.00000
_cell_angle_gamma 90.00000

_symmetry_space_group_name_	'P 1'
_symmetry_space_group_name_H-M	'P 1'

loop_
_symmetry_equiv_pos_as_xyz
  x,y,z

loop_
_atom_site_label
_atom_site_type_symbol
_atom_site_fract_x
_atom_site_fract_y
_atom_site_fract_z
_atom_site_charge
Zn	Zn	0.03642 0.56437 0.18593 1.17800
Zn	Zn	0.93714 0.31804 0.24036 1.17800
C 	C 	0.02470 0.51710 0.34190 0.35700
C 	C 	0.83530 0.18390 0.26830 0.02000
C 	C 	0.98500 0.43840 0.17860 0.11200
C 	C 	0.03800 0.44100 0.97230 0.04300
H 	H 	0.08100 0.44730 0.94260 0.02100
C 	C 	0.91560 0.41770 0.97890 0.05800
H 	H 	0.87040 0.40830 0.95480 -0.02500
C 	C 	0.09390 0.13260 0.30050 0.29100
C 	C 	0.96670 0.39020 0.36750 0.27300
C 	C 	0.02960 0.16830 0.29090 -0.01600
C 	C 	0.97820 0.42230 0.29850 -0.01200
C 	C 	0.02390 0.22280 0.27600 -0.04500
C 	C 	0.00410 0.47410 0.28840 -0.05700
C 	C 	0.91310 0.18920 0.27680 0.08800
C 	C 	0.98150 0.43250 0.09440 -0.01500
C 	C 	0.04370 0.44340 0.04970 -0.08900
H 	H 	0.08940 0.45250 0.07290 0.04600
C 	C 	0.91740 0.41800 0.05770 -0.10300
H 	H 	0.87470 0.40820 0.08600 0.04700
C 	C 	0.71170 0.17750 0.31380 0.10000
H 	H 	0.68120 0.17550 0.35760 -0.01000
C 	C 	0.08020 0.26440 0.26590 0.34200
C 	C 	0.79980 0.18390 0.20300 -0.13000
H 	H 	0.82890 0.18480 0.15810 0.06700
C 	C 	0.72140 0.18280 0.19350 0.09200
H 	H 	0.70020 0.18630 0.14440 -0.04300
C 	C 	0.78620 0.18040 0.32390 -0.14000
H 	H 	0.80430 0.18000 0.37460 0.06400
N 	N 	0.96510 0.40000 0.22820 -0.24100
N 	N 	0.00930 0.48420 0.21180 -0.23800
N 	N 	0.95960 0.14820 0.29240 -0.23400
N 	N 	0.95180 0.23640 0.26620 -0.23800
N 	N 	0.68120 0.17720 0.25010 -0.27900
N 	N 	0.97220 0.42960 0.93550 -0.25100
O 	O 	0.94690 0.34220 0.35960 -0.36900
O 	O 	0.97780 0.41260 0.43200 -0.19700
O 	O 	0.04500 0.56090 0.31690 -0.38300
O 	O 	0.01760 0.50740 0.41340 -0.41800
H 	H 	0.97260 0.50340 0.42390 0.27200
O 	O 	0.08060 0.08450 0.30850 -0.38400
O 	O 	0.15860 0.15350 0.30090 -0.19400
O 	O 	0.06320 0.31010 0.24620 -0.38200
O 	O 	0.14870 0.25100 0.27810 -0.39900
H 	H 	0.17090 0.24800 0.23640 0.25500
Zn	Zn	0.46358 0.93563 0.18593 1.17700
Zn	Zn	0.56286 0.18196 0.24036 1.17700
C 	C 	0.47530 0.98290 0.34190 0.35600
C 	C 	0.66470 0.31610 0.26830 0.02000
C 	C 	0.51500 0.06160 0.17860 0.11100
C 	C 	0.46200 0.05900 0.97230 0.03900
H 	H 	0.41900 0.05270 0.94260 0.02100
C 	C 	0.58440 0.08230 0.97890 0.05700
H 	H 	0.62960 0.09170 0.95480 -0.02600
C 	C 	0.40610 0.36740 0.30050 0.29000
C 	C 	0.53330 0.10980 0.36750 0.27200
C 	C 	0.47040 0.33170 0.29090 -0.01700
C 	C 	0.52180 0.07770 0.29850 -0.01400
C 	C 	0.47610 0.27720 0.27600 -0.04600
C 	C 	0.49590 0.02590 0.28840 -0.05700
C 	C 	0.58690 0.31080 0.27680 0.08800
C 	C 	0.51850 0.06750 0.09440 -0.01600
C 	C 	0.45630 0.05660 0.04970 -0.08600
H 	H 	0.41060 0.04750 0.07290 0.04600
C 	C 	0.58260 0.08200 0.05770 -0.10300
H 	H 	0.62530 0.09180 0.08600 0.04700
C 	C 	0.78830 0.32250 0.31380 0.10000
H 	H 	0.81880 0.32450 0.35760 -0.01000
C 	C 	0.41980 0.23560 0.26590 0.34200
C 	C 	0.70020 0.31610 0.20300 -0.13000
H 	H 	0.67110 0.31520 0.15810 0.06700
C 	C 	0.77860 0.31720 0.19350 0.09200
H 	H 	0.79980 0.31370 0.14440 -0.04300
C 	C 	0.71380 0.31960 0.32390 -0.14000
H 	H 	0.69570 0.32000 0.37460 0.06400
N 	N 	0.53490 0.10000 0.22820 -0.24100
N 	N 	0.49070 0.01580 0.21180 -0.23800
N 	N 	0.54040 0.35180 0.29240 -0.23300
N 	N 	0.54820 0.26360 0.26620 -0.23800
N 	N 	0.81880 0.32280 0.25010 -0.27900
N 	N 	0.52780 0.07040 0.93550 -0.25000
O 	O 	0.55310 0.15780 0.35960 -0.36900
O 	O 	0.52220 0.08740 0.43200 -0.19700
O 	O 	0.45500 0.93910 0.31690 -0.38300
O 	O 	0.48240 0.99260 0.41340 -0.41800
H 	H 	0.52740 0.99660 0.42390 0.27200
O 	O 	0.41940 0.41550 0.30850 -0.38500
O 	O 	0.34140 0.34650 0.30090 -0.19400
O 	O 	0.43680 0.18990 0.24620 -0.38200
O 	O 	0.35130 0.24900 0.27810 -0.39900
H 	H 	0.32910 0.25200 0.23640 0.25500
Zn	Zn	0.96358 0.06437 0.31407 1.17700
Zn	Zn	0.06286 0.81804 0.25964 1.17700
C 	C 	0.97530 0.01710 0.15810 0.35300
C 	C 	0.16470 0.68390 0.23170 0.01900
C 	C 	0.01500 0.93840 0.32140 0.10900
C 	C 	0.96200 0.94100 0.52770 0.04000
H 	H 	0.91900 0.94730 0.55740 0.02100
C 	C 	0.08440 0.91770 0.52110 0.05700
H 	H 	0.12960 0.90830 0.54520 -0.02600
C 	C 	0.90610 0.63260 0.19950 0.29000
C 	C 	0.03330 0.89020 0.13250 0.27300
C 	C 	0.97040 0.66830 0.20910 -0.01700
C 	C 	0.02180 0.92230 0.20150 -0.01700
C 	C 	0.97610 0.72280 0.22400 -0.04500
C 	C 	0.99590 0.97410 0.21160 -0.05200
C 	C 	0.08690 0.68920 0.22320 0.08800
C 	C 	0.01850 0.93250 0.40560 -0.01800
C 	C 	0.95630 0.94340 0.45030 -0.08400
H 	H 	0.91060 0.95250 0.42710 0.04500
C 	C 	0.08260 0.91800 0.44230 -0.10200
H 	H 	0.12530 0.90820 0.41400 0.04600
C 	C 	0.28830 0.67750 0.18620 0.10000
H 	H 	0.31880 0.67550 0.14240 -0.01000
C 	C 	0.91980 0.76440 0.23410 0.34100
C 	C 	0.20020 0.68390 0.29700 -0.13000
H 	H 	0.17110 0.68480 0.34190 0.06700
C 	C 	0.27860 0.68280 0.30650 0.09200
H 	H 	0.29980 0.68630 0.35560 -0.04300
C 	C 	0.21380 0.68040 0.17610 -0.14000
H 	H 	0.19570 0.68000 0.12540 0.06400
N 	N 	0.03490 0.90000 0.27180 -0.24100
N 	N 	0.99070 0.98420 0.28820 -0.23700
N 	N 	0.04040 0.64820 0.20760 -0.23400
N 	N 	0.04820 0.73640 0.23380 -0.23800
N 	N 	0.31880 0.67720 0.24990 -0.27900
N 	N 	0.02780 0.92960 0.56450 -0.25100
O 	O 	0.05310 0.84220 0.14040 -0.36900
O 	O 	0.02220 0.91260 0.06800 -0.19900
O 	O 	0.95500 0.06090 0.18310 -0.38300
O 	O 	0.98240 0.00740 0.08660 -0.41900
H 	H 	0.02740 0.00340 0.07610 0.27400
O 	O 	0.91940 0.58450 0.19150 -0.38400
O 	O 	0.84140 0.65350 0.19910 -0.19400
O 	O 	0.93680 0.81010 0.25380 -0.38100
O 	O 	0.85130 0.75100 0.22190 -0.39900
H 	H 	0.82910 0.74800 0.26360 0.25500
Zn	Zn	0.53642 0.43563 0.31407 1.17700
Zn	Zn	0.43714 0.68196 0.25964 1.17700
C 	C 	0.52470 0.48290 0.15810 0.35600
C 	C 	0.33530 0.81610 0.23170 0.02000
C 	C 	0.48500 0.56160 0.32140 0.11100
C 	C 	0.53800 0.55900 0.52770 0.03900
H 	H 	0.58100 0.55270 0.55740 0.02100
C 	C 	0.41560 0.58230 0.52110 0.05800
H 	H 	0.37040 0.59170 0.54520 -0.02600
C 	C 	0.59390 0.86740 0.19950 0.29000
C 	C 	0.46670 0.60980 0.13250 0.27200
C 	C 	0.52960 0.83170 0.20910 -0.01700
C 	C 	0.47820 0.57770 0.20150 -0.01400
C 	C 	0.52390 0.77720 0.22400 -0.04600
C 	C 	0.50410 0.52590 0.21160 -0.05700
C 	C 	0.41310 0.81080 0.22320 0.08800
C 	C 	0.48150 0.56750 0.40560 -0.01600
C 	C 	0.54370 0.55660 0.45030 -0.08600
H 	H 	0.58940 0.54750 0.42710 0.04600
C 	C 	0.41740 0.58200 0.44230 -0.10300
H 	H 	0.37470 0.59180 0.41400 0.04700
C 	C 	0.21170 0.82250 0.18620 0.10000
H 	H 	0.18120 0.82450 0.14240 -0.01000
C 	C 	0.58020 0.73560 0.23410 0.34200
C 	C 	0.29980 0.81610 0.29700 -0.13000
H 	H 	0.32890 0.81520 0.34190 0.06700
C 	C 	0.22140 0.81720 0.30650 0.09200
H 	H 	0.20020 0.81370 0.35560 -0.04300
C 	C 	0.28620 0.81960 0.17610 -0.14000
H 	H 	0.30430 0.82000 0.12540 0.06400
N 	N 	0.46510 0.60000 0.27180 -0.24100
N 	N 	0.50930 0.51580 0.28820 -0.23800
N 	N 	0.45960 0.85180 0.20760 -0.23300
N 	N 	0.45180 0.76360 0.23380 -0.23800
N 	N 	0.18120 0.82280 0.24990 -0.27900
N 	N 	0.47220 0.57040 0.56450 -0.25000
O 	O 	0.44690 0.65780 0.14040 -0.36900
O 	O 	0.47780 0.58740 0.06800 -0.19800
O 	O 	0.54500 0.43910 0.18310 -0.38300
O 	O 	0.51760 0.49260 0.08660 -0.41800
H 	H 	0.47260 0.49660 0.07610 0.27200
O 	O 	0.58060 0.91550 0.19150 -0.38400
O 	O 	0.65860 0.84650 0.19910 -0.19400
O 	O 	0.56320 0.68990 0.25380 -0.38200
O 	O 	0.64870 0.74900 0.22190 -0.40000
H 	H 	0.67090 0.75200 0.26360 0.25600
Zn	Zn	0.96358 0.43563 0.81407 1.17700
Zn	Zn	0.06286 0.68196 0.75964 1.17700
C 	C 	0.97530 0.48290 0.65810 0.35600
C 	C 	0.16470 0.81610 0.73170 0.01900
C 	C 	0.01500 0.56160 0.82140 0.11100
C 	C 	0.96200 0.55900 0.02770 0.04200
H 	H 	0.91900 0.55270 0.05740 0.02000
C 	C 	0.08440 0.58230 0.02110 0.05700
H 	H 	0.12960 0.59170 0.04520 -0.02600
C 	C 	0.90610 0.86740 0.69950 0.29000
C 	C 	0.03330 0.60980 0.63250 0.27200
C 	C 	0.97040 0.83170 0.70910 -0.01700
C 	C 	0.02180 0.57770 0.70150 -0.01300
C 	C 	0.97610 0.77720 0.72400 -0.04600
C 	C 	0.99590 0.52590 0.71160 -0.05700
C 	C 	0.08690 0.81080 0.72320 0.08800
C 	C 	0.01850 0.56750 0.90560 -0.01500
C 	C 	0.95630 0.55660 0.95030 -0.08900
H 	H 	0.91060 0.54750 0.92710 0.04600
C 	C 	0.08260 0.58200 0.94230 -0.10300
H 	H 	0.12530 0.59180 0.91400 0.04700
C 	C 	0.28830 0.82250 0.68620 0.10000
H 	H 	0.31880 0.82450 0.64240 -0.01000
C 	C 	0.91980 0.73560 0.73410 0.34200
C 	C 	0.20020 0.81610 0.79700 -0.13000
H 	H 	0.17110 0.81520 0.84190 0.06700
C 	C 	0.27860 0.81720 0.80650 0.09200
H 	H 	0.29980 0.81370 0.85560 -0.04300
C 	C 	0.21380 0.81960 0.67610 -0.14000
H 	H 	0.19570 0.82000 0.62540 0.06400
N 	N 	0.03490 0.60000 0.77180 -0.24100
N 	N 	0.99070 0.51580 0.78820 -0.23800
N 	N 	0.04040 0.85180 0.70760 -0.23400
N 	N 	0.04820 0.76360 0.73380 -0.23800
N 	N 	0.31880 0.82280 0.74990 -0.27900
N 	N 	0.02780 0.57040 0.06450 -0.25100
O 	O 	0.05310 0.65780 0.64040 -0.36900
O 	O 	0.02220 0.58740 0.56800 -0.19700
O 	O 	0.95500 0.43910 0.68310 -0.38300
O 	O 	0.98240 0.49260 0.58660 -0.41800
H 	H 	0.02740 0.49660 0.57610 0.27200
O 	O 	0.91940 0.91550 0.69150 -0.38400
O 	O 	0.84140 0.84650 0.69910 -0.19400
O 	O 	0.93680 0.68990 0.75380 -0.38200
O 	O 	0.85130 0.74900 0.72190 -0.39900
H 	H 	0.82910 0.75200 0.76360 0.25500
Zn	Zn	0.53642 0.06437 0.81407 1.17700
Zn	Zn	0.43714 0.81804 0.75964 1.17700
C 	C 	0.52470 0.01710 0.65810 0.35600
C 	C 	0.33530 0.68390 0.73170 0.02000
C 	C 	0.48500 0.93840 0.82140 0.11100
C 	C 	0.53800 0.94100 0.02770 0.03900
H 	H 	0.58100 0.94730 0.05740 0.02100
C 	C 	0.41560 0.91770 0.02110 0.05700
H 	H 	0.37040 0.90830 0.04520 -0.02600
C 	C 	0.59390 0.63260 0.69950 0.29000
C 	C 	0.46670 0.89020 0.63250 0.27200
C 	C 	0.52960 0.66830 0.70910 -0.01700
C 	C 	0.47820 0.92230 0.70150 -0.01400
C 	C 	0.52390 0.72280 0.72400 -0.04600
C 	C 	0.50410 0.97410 0.71160 -0.05700
C 	C 	0.41310 0.68920 0.72320 0.08800
C 	C 	0.48150 0.93250 0.90560 -0.01600
C 	C 	0.54370 0.94340 0.95030 -0.08600
H 	H 	0.58940 0.95250 0.92710 0.04600
C 	C 	0.41740 0.91800 0.94230 -0.10300
H 	H 	0.37470 0.90820 0.91400 0.04700
C 	C 	0.21170 0.67750 0.68620 0.10000
H 	H 	0.18120 0.67550 0.64240 -0.01000
C 	C 	0.58020 0.76440 0.73410 0.34200
C 	C 	0.29980 0.68390 0.79700 -0.13000
H 	H 	0.32890 0.68480 0.84190 0.06700
C 	C 	0.22140 0.68280 0.80650 0.09200
H 	H 	0.20020 0.68630 0.85560 -0.04300
C 	C 	0.28620 0.68040 0.67610 -0.14000
H 	H 	0.30430 0.68000 0.62540 0.06400
N 	N 	0.46510 0.90000 0.77180 -0.24100
N 	N 	0.50930 0.98420 0.78820 -0.23800
N 	N 	0.45960 0.64820 0.70760 -0.23300
N 	N 	0.45180 0.73640 0.73380 -0.23800
N 	N 	0.18120 0.67720 0.74990 -0.27900
N 	N 	0.47220 0.92960 0.06450 -0.25000
O 	O 	0.44690 0.84220 0.64040 -0.36900
O 	O 	0.47780 0.91260 0.56800 -0.19700
O 	O 	0.54500 0.06090 0.68310 -0.38300
O 	O 	0.51760 0.00740 0.58660 -0.41800
H 	H 	0.47260 0.00340 0.57610 0.27200
O 	O 	0.58060 0.58450 0.69150 -0.38500
O 	O 	0.65860 0.65350 0.69910 -0.19400
O 	O 	0.56320 0.81010 0.75380 -0.38200
O 	O 	0.64870 0.75100 0.72190 -0.39900
H 	H 	0.67090 0.74800 0.76360 0.25500
Zn	Zn	0.03642 0.93563 0.68593 1.17700
Zn	Zn	0.93714 0.18196 0.74036 1.17700
C 	C 	0.02470 0.98290 0.84190 0.35300
C 	C 	0.83530 0.31610 0.76830 0.01900
C 	C 	0.98500 0.06160 0.67860 0.10900
C 	C 	0.03800 0.05900 0.47230 0.04000
H 	H 	0.08100 0.05270 0.44260 0.02100
C 	C 	0.91560 0.08230 0.47890 0.05700
H 	H 	0.87040 0.09170 0.45480 -0.02600
C 	C 	0.09390 0.36740 0.80050 0.29000
C 	C 	0.96670 0.10980 0.86750 0.27300
C 	C 	0.02960 0.33170 0.79090 -0.01700
C 	C 	0.97820 0.07770 0.79850 -0.01700
C 	C 	0.02390 0.27720 0.77600 -0.04500
C 	C 	0.00410 0.02590 0.78840 -0.05200
C 	C 	0.91310 0.31080 0.77680 0.08800
C 	C 	0.98150 0.06750 0.59440 -0.01800
C 	C 	0.04370 0.05660 0.54970 -0.08400
H 	H 	0.08940 0.04750 0.57290 0.04500
C 	C 	0.91740 0.08200 0.55770 -0.10200
H 	H 	0.87470 0.09180 0.58600 0.04600
C 	C 	0.71170 0.32250 0.81380 0.10000
H 	H 	0.68120 0.32450 0.85760 -0.01000
C 	C 	0.08020 0.23560 0.76590 0.34100
C 	C 	0.79980 0.31610 0.70300 -0.13000
H 	H 	0.82890 0.31520 0.65810 0.06700
C 	C 	0.72140 0.31720 0.69350 0.09200
H 	H 	0.70020 0.31370 0.64440 -0.04300
C 	C 	0.78620 0.31960 0.82390 -0.14000
H 	H 	0.80430 0.32000 0.87460 0.06400
N 	N 	0.96510 0.10000 0.72820 -0.24100
N 	N 	0.00930 0.01580 0.71180 -0.23700
N 	N 	0.95960 0.35180 0.79240 -0.23400
N 	N 	0.95180 0.26360 0.76620 -0.23800
N 	N 	0.68120 0.32280 0.75010 -0.27900
N 	N 	0.97220 0.07040 0.43550 -0.25100
O 	O 	0.94690 0.15780 0.85960 -0.36900
O 	O 	0.97780 0.08740 0.93200 -0.19900
O 	O 	0.04500 0.93910 0.81690 -0.38300
O 	O 	0.01760 0.99260 0.91340 -0.41900
H 	H 	0.97260 0.99660 0.92390 0.27400
O 	O 	0.08060 0.41550 0.80850 -0.38400
O 	O 	0.15860 0.34650 0.80090 -0.19400
O 	O 	0.06320 0.18990 0.74620 -0.38100
O 	O 	0.14870 0.24900 0.77810 -0.39900
H 	H 	0.17090 0.25200 0.73640 0.25500
Zn	Zn	0.46358 0.56437 0.68593 1.17700
Zn	Zn	0.56286 0.31804 0.74036 1.17700
C 	C 	0.47530 0.51710 0.84190 0.35600
C 	C 	0.66470 0.18390 0.76830 0.02000
C 	C 	0.51500 0.43840 0.67860 0.11100
C 	C 	0.46200 0.44100 0.47230 0.03900
H 	H 	0.41900 0.44730 0.44260 0.02100
C 	C 	0.58440 0.41770 0.47890 0.05800
H 	H 	0.62960 0.40830 0.45480 -0.02600
C 	C 	0.40610 0.13260 0.80050 0.29000
C 	C 	0.53330 0.39020 0.86750 0.27200
C 	C 	0.47040 0.16830 0.79090 -0.01700
C 	C 	0.52180 0.42230 0.79850 -0.01400
C 	C 	0.47610 0.22280 0.77600 -0.04600
C 	C 	0.49590 0.47410 0.78840 -0.05700
C 	C 	0.58690 0.18920 0.77680 0.08800
C 	C 	0.51850 0.43250 0.59440 -0.01600
C 	C 	0.45630 0.44340 0.54970 -0.08600
H 	H 	0.41060 0.45250 0.57290 0.04600
C 	C 	0.58260 0.41800 0.55770 -0.10300
H 	H 	0.62530 0.40820 0.58600 0.04700
C 	C 	0.78830 0.17750 0.81380 0.10000
H 	H 	0.81880 0.17550 0.85760 -0.01000
C 	C 	0.41980 0.26440 0.76590 0.34200
C 	C 	0.70020 0.18390 0.70300 -0.13000
H 	H 	0.67110 0.18480 0.65810 0.06700
C 	C 	0.77860 0.18280 0.69350 0.09200
H 	H 	0.79980 0.18630 0.64440 -0.04300
C 	C 	0.71380 0.18040 0.82390 -0.14000
H 	H 	0.69570 0.18000 0.87460 0.06400
N 	N 	0.53490 0.40000 0.72820 -0.24100
N 	N 	0.49070 0.48420 0.71180 -0.23800
N 	N 	0.54040 0.14820 0.79240 -0.23300
N 	N 	0.54820 0.23640 0.76620 -0.23800
N 	N 	0.81880 0.17720 0.75010 -0.27900
N 	N 	0.52780 0.42960 0.43550 -0.25000
O 	O 	0.55310 0.34220 0.85960 -0.36900
O 	O 	0.52220 0.41260 0.93200 -0.19800
O 	O 	0.45500 0.56090 0.81690 -0.38300
O 	O 	0.48240 0.50740 0.91340 -0.41800
H 	H 	0.52740 0.50340 0.92390 0.27200
O 	O 	0.41940 0.08450 0.80850 -0.38400
O 	O 	0.34140 0.15350 0.80090 -0.19400
O 	O 	0.43680 0.31010 0.74620 -0.38200
O 	O 	0.35130 0.25100 0.77810 -0.40000
H 	H 	0.32910 0.24800 0.73640 0.25600
