data_crystal

_cell_length_a 9.99700
_cell_length_b 13.14420
_cell_length_c 16.45800
_cell_angle_alpha 101.09600
_cell_angle_beta  92.79600
_cell_angle_gamma 96.03000

_symmetry_space_group_name_	'P 1'
_symmetry_space_group_name_H-M	'P 1'

loop_
_symmetry_equiv_pos_as_xyz
  x,y,z

loop_
_atom_site_label
_atom_site_type_symbol
_atom_site_fract_x
_atom_site_fract_y
_atom_site_fract_z
_atom_site_charge
Mn	Mn	0.11703 0.25982 0.73811 1.25900
Mn	Mn	0.08360 0.86758 0.76176 1.26400
Mn	Mn	0.46014 0.22298 0.25879 1.26000
Mn	Mn	0.62323 0.36986 0.75757 1.26900
Mn	Mn	0.88297 0.74018 0.26189 1.26000
Mn	Mn	0.91640 0.13242 0.23824 1.26500
Mn	Mn	0.53986 0.77702 0.74121 1.26100
Mn	Mn	0.37677 0.63014 0.24243 1.27000
H 	H 	0.40540 0.39900 0.00660 0.03900
H 	H 	0.13750 0.09350 0.99550 0.04800
H 	H 	0.94470 0.66440 0.49280 0.01500
H 	H 	0.45460 0.84880 0.54630 0.00400
H 	H 	0.68740 0.38270 0.95440 0.09900
H 	H 	0.66910 0.44330 0.09860 0.00400
H 	H 	0.85190 0.45780 0.18260 0.14900
H 	H 	0.04440 0.40770 0.13740 0.00600
H 	H 	0.06450 0.35000 0.99870 0.10900
H 	H 	0.11380 0.86730 0.96120 0.06900
H 	H 	0.11090 0.92790 0.10740 0.00800
H 	H 	0.29990 0.93910 0.19200 0.15100
H 	H 	0.49700 0.92000 0.14750 0.02300
H 	H 	0.51650 0.86840 0.99990 0.08000
H 	H 	0.59460 0.60100 0.99340 0.03900
H 	H 	0.86250 0.90650 0.00450 0.04800
H 	H 	0.05530 0.33560 0.50720 0.01500
H 	H 	0.54540 0.15120 0.45370 0.00400
H 	H 	0.31260 0.61730 0.04560 0.09900
H 	H 	0.33090 0.55670 0.90140 0.00400
H 	H 	0.14810 0.54220 0.81740 0.14900
H 	H 	0.95560 0.59230 0.86260 0.00600
H 	H 	0.93550 0.65000 0.00130 0.10900
H 	H 	0.88620 0.13270 0.03880 0.06900
H 	H 	0.88910 0.07210 0.89260 0.00800
H 	H 	0.70010 0.06090 0.80800 0.15100
H 	H 	0.50300 0.08000 0.85250 0.02300
H 	H 	0.48350 0.13160 0.00010 0.08000
C 	C 	0.23500 0.18050 0.92540 -0.07900
C 	C 	0.31700 0.27390 0.92780 -0.06700
C 	C 	0.35560 0.33810 0.00520 0.01300
C 	C 	0.31770 0.31110 0.07950 -0.08600
C 	C 	0.23660 0.21700 0.07620 -0.07500
C 	C 	0.19520 0.15470 0.99930 0.01600
C 	C 	0.18880 0.10460 0.84600 0.34900
C 	C 	0.37100 0.31450 0.85370 0.35400
C 	C 	0.36070 0.39120 0.15790 0.39700
C 	C 	0.18080 0.17860 0.15020 0.37800
C 	C 	0.00180 0.57500 0.57320 -0.07200
C 	C 	0.03600 0.47520 0.57610 -0.07100
C 	C 	0.96650 0.59900 0.49690 0.00100
C 	C 	0.98880 0.65340 0.65190 0.34900
C 	C 	0.07920 0.44950 0.65850 0.34200
C 	C 	0.44000 0.91050 0.44330 -0.06100
C 	C 	0.46660 0.00600 0.41830 -0.07800
C 	C 	0.47460 0.90620 0.52550 -0.00900
C 	C 	0.37770 0.81250 0.38500 0.32500
C 	C 	0.42440 0.01640 0.33130 0.33000
C 	C 	0.87890 0.36270 0.96060 0.00500
C 	C 	0.75750 0.38930 0.98980 -0.12800
C 	C 	0.74970 0.42350 0.07410 0.10900
C 	C 	0.97530 0.40450 0.10080 0.11500
C 	C 	0.98860 0.37050 0.01750 -0.13400
C 	C 	0.89370 0.32410 0.86720 0.38100
C 	C 	0.32320 0.86640 0.96860 -0.04400
C 	C 	0.19830 0.88170 0.99920 -0.06500
C 	C 	0.19040 0.91090 0.08380 0.07900
C 	C 	0.42190 0.90890 0.10760 0.08000
C 	C 	0.43600 0.88110 0.02340 -0.06800
C 	C 	0.33860 0.83200 0.87620 0.38000
C 	C 	0.76500 0.81950 0.07460 -0.07900
C 	C 	0.68300 0.72610 0.07220 -0.06700
C 	C 	0.64440 0.66190 0.99480 0.01300
C 	C 	0.68230 0.68890 0.92050 -0.08600
C 	C 	0.76340 0.78300 0.92380 -0.07500
C 	C 	0.80480 0.84530 0.00070 0.01600
C 	C 	0.81120 0.89540 0.15400 0.34900
C 	C 	0.62900 0.68550 0.14630 0.35400
C 	C 	0.63930 0.60880 0.84210 0.39700
C 	C 	0.81920 0.82140 0.84980 0.37800
C 	C 	0.99820 0.42500 0.42680 -0.07200
C 	C 	0.96400 0.52480 0.42390 -0.07100
C 	C 	0.03350 0.40100 0.50310 0.00100
C 	C 	0.01120 0.34660 0.34810 0.34900
C 	C 	0.92080 0.55050 0.34150 0.34200
C 	C 	0.56000 0.08950 0.55670 -0.06100
C 	C 	0.53340 0.99400 0.58170 -0.07800
C 	C 	0.52540 0.09380 0.47450 -0.00900
C 	C 	0.62230 0.18750 0.61500 0.32500
C 	C 	0.57560 0.98360 0.66870 0.33000
C 	C 	0.12110 0.63730 0.03940 0.00500
C 	C 	0.24250 0.61070 0.01020 -0.12800
C 	C 	0.25030 0.57650 0.92590 0.10900
C 	C 	0.02470 0.59550 0.89920 0.11500
C 	C 	0.01140 0.62950 0.98250 -0.13400
C 	C 	0.10630 0.67590 0.13280 0.38100
C 	C 	0.67680 0.13360 0.03140 -0.04400
C 	C 	0.80170 0.11830 0.00080 -0.06500
C 	C 	0.80960 0.08910 0.91620 0.07900
C 	C 	0.57810 0.09110 0.89240 0.08000
C 	C 	0.56400 0.11890 0.97660 -0.06800
C 	C 	0.66140 0.16800 0.12380 0.38000
N 	N 	0.85710 0.43030 0.12680 -0.20800
N 	N 	0.30080 0.92340 0.13510 -0.19800
N 	N 	0.14290 0.56970 0.87320 -0.20800
N 	N 	0.69920 0.07660 0.86490 -0.19800
O 	O 	0.21380 0.13180 0.77808 -0.46600
O 	O 	0.13050 0.01730 0.85144 -0.43200
O 	O 	0.29190 0.35300 0.80861 -0.44500
O 	O 	0.49420 0.31350 0.84647 -0.41500
O 	O 	0.33930 0.48200 0.15476 -0.44600
O 	O 	0.41650 0.36540 0.21916 -0.48700
O 	O 	0.05510 0.16470 0.14853 -0.42800
O 	O 	0.25900 0.15750 0.20498 -0.45300
O 	O 	0.07270 0.73420 0.66590 -0.46700
O 	O 	0.89420 0.63490 0.69538 -0.31400
O 	O 	0.15080 0.51800 0.70976 -0.31000
O 	O 	0.03820 0.35970 0.66877 -0.46900
O 	O 	0.45160 0.76960 0.33160 -0.44000
O 	O 	0.25990 0.77800 0.39486 -0.31700
O 	O 	0.32100 0.96110 0.29672 -0.30400
O 	O 	0.49770 0.08070 0.29883 -0.45000
O 	O 	0.79300 0.31830 0.81923 -0.44400
O 	O 	0.00770 0.30090 0.84944 -0.43600
O 	O 	0.23470 0.80510 0.82881 -0.45200
O 	O 	0.45660 0.83010 0.85595 -0.44300
O 	O 	0.78620 0.86820 0.22192 -0.46600
O 	O 	0.86950 0.98270 0.14856 -0.43200
O 	O 	0.70810 0.64700 0.19139 -0.44500
O 	O 	0.50580 0.68650 0.15353 -0.41500
O 	O 	0.66070 0.51800 0.84524 -0.44600
O 	O 	0.58350 0.63460 0.78084 -0.48700
O 	O 	0.94490 0.83530 0.85147 -0.42800
O 	O 	0.74100 0.84250 0.79502 -0.45300
O 	O 	0.92730 0.26580 0.33410 -0.46700
O 	O 	0.10580 0.36510 0.30462 -0.31400
O 	O 	0.84920 0.48200 0.29024 -0.31000
O 	O 	0.96180 0.64030 0.33123 -0.46900
O 	O 	0.54840 0.23040 0.66840 -0.44000
O 	O 	0.74010 0.22200 0.60514 -0.31700
O 	O 	0.67900 0.03890 0.70328 -0.30400
O 	O 	0.50230 0.91930 0.70117 -0.45000
O 	O 	0.20700 0.68170 0.18077 -0.44400
O 	O 	0.99230 0.69910 0.15056 -0.43600
O 	O 	0.76530 0.19490 0.17119 -0.45200
O 	O 	0.54340 0.16990 0.14405 -0.44300
