data_crystal

_cell_length_a 11.28670
_cell_length_b 13.83570
_cell_length_c 14.86080
_cell_angle_alpha 85.20900
_cell_angle_beta  69.74200
_cell_angle_gamma 73.90900

_symmetry_space_group_name_	'P 1'
_symmetry_space_group_name_H-M	'P 1'

loop_
_symmetry_equiv_pos_as_xyz
  x,y,z

loop_
_atom_site_label
_atom_site_type_symbol
_atom_site_fract_x
_atom_site_fract_y
_atom_site_fract_z
_atom_site_charge
C 	C 	0.47900 0.33530 0.15015 0.36200
C 	C 	0.53510 0.27370 0.22208 -0.16100
C 	C 	0.47430 0.20440 0.27940 0.09500
H 	H 	0.39660 0.19760 0.27550 0.00200
C 	C 	0.52990 0.14540 0.34240 -0.20400
H 	H 	0.48860 0.09980 0.38120 0.09500
C 	C 	0.64640 0.15430 0.34740 0.16500
C 	C 	0.70630 0.22410 0.29190 -0.20200
H 	H 	0.78400 0.23080 0.29610 0.10000
C 	C 	0.65000 0.28430 0.22980 0.09600
H 	H 	0.68950 0.33200 0.19320 -0.00300
C 	C 	0.49680 0.10500 0.81511 0.34200
C 	C 	0.54820 0.10130 0.70819 -0.14300
C 	C 	0.49250 0.17370 0.65340 0.08900
H 	H 	0.41950 0.22540 0.68390 0.01200
C 	C 	0.54380 0.17010 0.55420 -0.20100
H 	H 	0.50500 0.21910 0.51870 0.10500
C 	C 	0.65420 0.09260 0.50680 0.18300
C 	C 	0.70940 0.01910 0.56210 -0.25300
H 	H 	0.78170 0.96670 0.53200 0.14900
C 	C 	0.65710 0.02410 0.66070 0.04600
H 	H 	0.69530 0.97500 0.69640 0.05000
C 	C 	0.23170 0.59170 0.15640 0.09400
H 	H 	0.22230 0.52710 0.15530 -0.02500
C 	C 	0.12540 0.66490 0.21190 -0.18700
H 	H 	0.04690 0.64960 0.24630 0.09300
C 	C 	0.13820 0.76160 0.21550 0.13200
C 	C 	0.25960 0.77790 0.16560 -0.19400
H 	H 	0.27400 0.84040 0.16880 0.10400
C 	C 	0.35890 0.70110 0.11100 0.10300
H 	H 	0.43890 0.71430 0.07680 -0.04000
C 	C 	0.02610 0.84500 0.26890 -0.09100
C 	C 	0.89970 0.85030 0.27330 0.03200
H 	H 	0.88430 0.79930 0.24560 0.02100
C 	C 	0.79580 0.93130 0.31880 -0.11000
H 	H 	0.71130 0.93420 0.32160 0.08700
C 	C 	0.81820 0.00720 0.35990 0.10800
C 	C 	0.94340 0.00270 0.35730 -0.21700
H 	H 	0.95830 0.05360 0.38570 0.09900
C 	C 	0.04660 0.92170 0.31200 0.09600
H 	H 	0.13070 0.91850 0.31040 0.00700
C 	C 	0.20900 0.02300 0.07780 -0.04200
H 	H 	0.21900 0.04480 0.13160 0.01600
C 	C 	0.08510 0.02850 0.07970 -0.05800
H 	H 	0.01340 0.05380 0.13390 0.03200
C 	C 	0.06640 0.99640 0.00100 -0.15300
C 	C 	0.17820 0.95830 0.92340 0.05700
H 	H 	0.17140 0.93530 0.86890 0.02600
C 	C 	0.29910 0.95480 0.92740 0.10400
H 	H 	0.37280 0.92810 0.87490 0.00800
N 	N 	0.71010 0.08977 0.40751 -0.18900
N 	N 	0.34710 0.60890 0.10415 -0.26000
N 	N 	0.31610 0.98766 0.00245 -0.24300
O 	O 	0.38740 0.31170 0.13453 -0.32500
O 	O 	0.52880 0.40474 0.11071 -0.46400
O 	O 	0.40470 0.17878 0.85768 -0.26700
O 	O 	0.55050 0.03242 0.85725 -0.42900
C 	C 	0.52100 0.66470 0.84985 0.35500
C 	C 	0.46490 0.72630 0.77792 -0.14200
C 	C 	0.52570 0.79560 0.72060 0.09400
H 	H 	0.60340 0.80240 0.72450 0.01400
C 	C 	0.47010 0.85460 0.65760 -0.20000
H 	H 	0.51140 0.90020 0.61880 0.11500
C 	C 	0.35360 0.84570 0.65260 0.17300
C 	C 	0.29370 0.77590 0.70810 -0.19400
H 	H 	0.21600 0.76920 0.70390 0.10500
C 	C 	0.35000 0.71570 0.77020 0.09200
H 	H 	0.31050 0.66800 0.80680 0.01900
C 	C 	0.50320 0.89500 0.18489 0.37000
C 	C 	0.45180 0.89870 0.29181 -0.18000
C 	C 	0.50750 0.82630 0.34660 0.11000
H 	H 	0.58050 0.77460 0.31610 0.00200
C 	C 	0.45620 0.82990 0.44580 -0.20200
H 	H 	0.49500 0.78090 0.48130 0.10600
C 	C 	0.34580 0.90740 0.49320 0.16700
C 	C 	0.29060 0.98090 0.43790 -0.15800
H 	H 	0.21830 0.03330 0.46800 0.05900
C 	C 	0.34290 0.97590 0.33930 0.16200
H 	H 	0.30470 0.02500 0.30360 -0.04700
C 	C 	0.76830 0.40830 0.84360 0.09900
H 	H 	0.77770 0.47290 0.84470 -0.00200
C 	C 	0.87460 0.33510 0.78810 -0.16000
H 	H 	0.95310 0.35040 0.75370 0.09400
C 	C 	0.86180 0.23840 0.78450 0.11100
C 	C 	0.74040 0.22210 0.83440 -0.15900
H 	H 	0.72600 0.15960 0.83120 0.09100
C 	C 	0.64110 0.29890 0.88900 0.10400
H 	H 	0.56110 0.28570 0.92320 0.00400
C 	C 	0.97390 0.15500 0.73110 -0.05000
C 	C 	0.10030 0.14970 0.72670 0.02900
H 	H 	0.11570 0.20070 0.75440 0.02800
C 	C 	0.20420 0.06870 0.68120 -0.20400
H 	H 	0.28870 0.06580 0.67840 0.09800
C 	C 	0.18180 0.99280 0.64010 0.17100
C 	C 	0.05660 0.99730 0.64270 -0.10800
H 	H 	0.04170 0.94640 0.61430 0.07700
C 	C 	0.95340 0.07830 0.68800 -0.03200
H 	H 	0.86930 0.08150 0.68960 0.03600
C 	C 	0.79100 0.97700 0.92220 0.19400
H 	H 	0.78100 0.95520 0.86840 -0.02800
C 	C 	0.91490 0.97150 0.92030 -0.23300
H 	H 	0.98660 0.94620 0.86610 0.12900
C 	C 	0.93360 0.00360 0.99900 0.29800
C 	C 	0.82180 0.04170 0.07660 -0.35000
H 	H 	0.82860 0.06470 0.13110 0.14300
C 	C 	0.70090 0.04520 0.07260 0.06700
H 	H 	0.62720 0.07190 0.12510 -0.01900
N 	N 	0.28990 0.91023 0.59249 -0.18600
N 	N 	0.65290 0.39110 0.89585 -0.22400
N 	N 	0.68390 0.01234 0.99755 -0.22200
O 	O 	0.61260 0.68830 0.86547 -0.27000
O 	O 	0.47120 0.59526 0.88929 -0.40300
O 	O 	0.59530 0.82122 0.14232 -0.30900
O 	O 	0.44950 0.96758 0.14275 -0.43000
Co	Co	0.50000 0.00000 -0.00000 1.06900
Co	Co	0.50000 0.50000 -0.00000 1.07800
