data_crystal

_cell_length_a 14.22320
_cell_length_b 26.53950
_cell_length_c 19.46700
_cell_angle_alpha 90.00000
_cell_angle_beta  107.70100
_cell_angle_gamma 90.00000

_symmetry_space_group_name_	'P 1'
_symmetry_space_group_name_H-M	'P 1'

loop_
_symmetry_equiv_pos_as_xyz
  x,y,z

loop_
_atom_site_label
_atom_site_type_symbol
_atom_site_fract_x
_atom_site_fract_y
_atom_site_fract_z
_atom_site_charge
C 	C 	0.80870 0.42480 0.12443 0.33700
C 	C 	0.71650 0.39537 0.10770 -0.17100
C 	C 	0.69080 0.36024 0.05300 0.12400
H 	H 	0.73340 0.35460 0.02570 -0.00100
C 	C 	0.60500 0.33357 0.03750 -0.22100
H 	H 	0.58990 0.31040 0.99980 0.11400
C 	C 	0.54000 0.34058 0.07737 0.19000
C 	C 	0.56540 0.37527 0.13330 -0.21600
H 	H 	0.52350 0.38050 0.16120 0.11100
C 	C 	0.65190 0.40189 0.14772 0.11800
H 	H 	0.66770 0.42500 0.18540 0.00500
C 	C 	0.13150 0.39362 0.14823 0.35600
C 	C 	0.21580 0.37300 0.12551 -0.16400
C 	C 	0.25340 0.32598 0.14870 0.10600
H 	H 	0.22660 0.30710 0.17840 0.00400
C 	C 	0.33180 0.30652 0.12760 -0.21600
H 	H 	0.35780 0.27500 0.14390 0.10800
C 	C 	0.37030 0.33393 0.08290 0.19000
C 	C 	0.33350 0.38083 0.06100 -0.22400
H 	H 	0.36030 0.39980 0.03130 0.11400
C 	C 	0.25680 0.40033 0.08240 0.11900
H 	H 	0.23280 0.43240 0.06730 0.00500
C 	C 	0.41660 0.03448 0.92369 0.10900
H 	H 	0.42860 0.00510 0.95100 -0.00900
C 	C 	0.42520 0.07954 0.95929 -0.18100
H 	H 	0.44360 0.08030 0.00940 0.10700
C 	C 	0.40630 0.12404 0.92016 0.13700
C 	C 	0.37910 0.11966 0.84634 -0.19300
H 	H 	0.36430 0.14830 0.81760 0.10200
C 	C 	0.37380 0.07275 0.81490 0.11900
H 	H 	0.35630 0.07100 0.76490 -0.02500
C 	C 	0.41640 0.17321 0.95726 -0.08100
C 	C 	0.49470 0.18196 0.01912 0.04000
H 	H 	0.53980 0.15630 0.03770 0.03200
C 	C 	0.50690 0.22797 0.05350 -0.16300
H 	H 	0.56070 0.23330 0.09430 0.09700
C 	C 	0.43930 0.26628 0.02750 0.15300
C 	C 	0.35980 0.25712 0.96830 -0.16800
H 	H 	0.31300 0.28230 0.95130 0.09200
C 	C 	0.34800 0.21165 0.93340 0.04500
H 	H 	0.29330 0.20640 0.89320 0.01600
C 	C 	0.91690 0.56593 0.12600 0.11400
H 	H 	0.87670 0.55750 0.15400 -0.02100
C 	C 	0.91350 0.61445 0.10130 -0.19100
H 	H 	0.87160 0.63770 0.11260 0.09700
C 	C 	0.97242 0.62907 0.05926 0.14100
C 	C 	0.03290 0.59147 0.04571 -0.19400
H 	H 	0.07420 0.59880 0.01800 0.10600
C 	C 	0.03210 0.54438 0.07251 0.10700
H 	H 	0.07390 0.52040 0.06270 -0.01600
C 	C 	0.96920 0.68041 0.02876 -0.09100
C 	C 	0.91950 0.72004 0.05035 0.06300
H 	H 	0.89040 0.71450 0.08640 0.00600
C 	C 	0.91290 0.76673 0.01950 -0.18500
H 	H 	0.87970 0.79230 0.03520 0.10200
C 	C 	0.95460 0.77643 0.96581 0.16700
C 	C 	0.00390 0.73811 0.94352 -0.18000
H 	H 	0.03220 0.74390 0.90710 0.10300
C 	C 	0.01130 0.69093 0.97513 0.05700
H 	H 	0.04560 0.66570 0.95980 0.02100
C 	C 	0.56300 0.91440 0.84800 0.47200
C 	C 	0.66490 0.89265 0.87072 -0.27400
C 	C 	0.67610 0.84295 0.86430 0.21800
H 	H 	0.62020 0.82310 0.84560 -0.03100
C 	C 	0.76650 0.82033 0.88400 -0.30200
H 	H 	0.77110 0.78570 0.87860 0.14000
C 	C 	0.85030 0.84806 0.91158 0.24600
C 	C 	0.84180 0.89869 0.91958 -0.29100
H 	H 	0.89760 0.91860 0.93840 0.14300
C 	C 	0.74790 0.92004 0.89890 0.20500
H 	H 	0.74210 0.95460 0.90480 -0.02300
C 	C 	0.27170 0.91306 0.86570 0.33400
C 	C 	0.18535 0.88828 0.88156 -0.15200
C 	C 	0.09120 0.89200 0.83362 0.11000
H 	H 	0.08140 0.90870 0.79000 0.00300
C 	C 	0.01140 0.87112 0.84986 -0.21400
H 	H 	0.94840 0.87400 0.81730 0.11000
C 	C 	0.02479 0.84600 0.91434 0.18300
C 	C 	0.11940 0.84193 0.96182 -0.20900
H 	H 	0.12960 0.82450 0.00490 0.10900
C 	C 	0.19870 0.86346 0.94579 0.10300
H 	H 	0.26150 0.86110 0.97870 0.00800
C 	C 	0.99100 0.47727 0.30834 0.10500
H 	H 	0.92310 0.48190 0.29600 -0.00300
C 	C 	0.14550 0.47173 0.37130 -0.00700
H 	H 	0.20390 0.47110 0.40930 0.04000
C 	C 	0.13540 0.46489 0.30160 0.02000
H 	H 	0.18730 0.45920 0.28280 0.00800
C 	C 	0.08520 0.52090 0.49138 -0.08300
H 	H 	0.14210 0.53480 0.48520 0.07100
C 	C 	0.02540 0.49005 0.43921 0.08700
C 	C 	0.94030 0.46914 0.44730 -0.08000
H 	H 	0.90060 0.44850 0.41150 0.06500
C 	C 	0.29050 0.95247 0.64988 0.00200
H 	H 	0.23320 0.93960 0.65680 0.02800
C 	C 	0.30670 0.95758 0.58603 0.00500
H 	H 	0.26310 0.94950 0.54110 0.03700
C 	C 	0.43490 0.98342 0.67114 0.11000
H 	H 	0.49710 0.99650 0.69470 -0.01600
C 	C 	0.39920 0.00618 0.48131 -0.07500
H 	H 	0.33110 0.01030 0.46880 0.06300
C 	C 	0.45070 0.98815 0.54877 0.08900
C 	C 	0.55160 0.98196 0.56733 -0.07700
H 	H 	0.58640 0.96980 0.61270 0.06500
N 	N 	0.39214 0.03012 0.85194 -0.27100
N 	N 	0.45054 0.31405 0.06189 -0.19500
N 	N 	0.97417 0.53037 0.11248 -0.27400
N 	N 	0.94460 0.82431 0.93259 -0.20400
N 	N 	0.03844 0.46744 0.26165 -0.26500
N 	N 	0.05183 0.47986 0.37550 -0.13600
N 	N 	0.37178 0.96928 0.70375 -0.25700
N 	N 	0.39952 0.97684 0.59948 -0.14000
O 	O 	0.87097 0.41555 0.09295 -0.43800
O 	O 	0.82360 0.46004 0.17101 -0.36000
O 	O 	0.09969 0.43694 0.12433 -0.45800
O 	O 	0.09607 0.36861 0.18796 -0.31900
O 	O 	0.26378 0.92456 0.80080 -0.43800
O 	O 	0.34826 0.92226 0.91596 -0.34500
O 	O 	0.55030 0.95740 0.85936 -0.46000
O 	O 	0.49080 0.89054 0.81700 -0.42900
Zn	Zn	0.39333 0.95818 0.81070 1.21200
Zn	Zn	0.98604 0.45856 0.15439 1.20900
C 	C 	0.19130 0.57520 0.87557 0.33800
C 	C 	0.28350 0.60463 0.89230 -0.17000
C 	C 	0.30920 0.63976 0.94700 0.12500
H 	H 	0.26660 0.64540 0.97430 0.00000
C 	C 	0.39500 0.66643 0.96250 -0.22100
H 	H 	0.41010 0.68960 0.00020 0.11400
C 	C 	0.46000 0.65942 0.92263 0.19000
C 	C 	0.43460 0.62473 0.86670 -0.21600
H 	H 	0.47650 0.61950 0.83880 0.11100
C 	C 	0.34810 0.59811 0.85228 0.11800
H 	H 	0.33230 0.57500 0.81460 0.00500
C 	C 	0.86850 0.60638 0.85177 0.35600
C 	C 	0.78420 0.62700 0.87449 -0.16400
C 	C 	0.74660 0.67402 0.85130 0.10600
H 	H 	0.77340 0.69290 0.82160 0.00400
C 	C 	0.66820 0.69348 0.87240 -0.21600
H 	H 	0.64220 0.72500 0.85610 0.10800
C 	C 	0.62970 0.66607 0.91710 0.19000
C 	C 	0.66650 0.61917 0.93900 -0.22400
H 	H 	0.63970 0.60020 0.96870 0.11400
C 	C 	0.74320 0.59967 0.91760 0.11900
H 	H 	0.76720 0.56760 0.93270 0.00500
C 	C 	0.58340 0.96552 0.07631 0.10900
H 	H 	0.57140 0.99490 0.04900 -0.00900
C 	C 	0.57480 0.92046 0.04071 -0.18100
H 	H 	0.55640 0.91970 0.99060 0.10700
C 	C 	0.59370 0.87596 0.07984 0.13700
C 	C 	0.62090 0.88034 0.15366 -0.19300
H 	H 	0.63570 0.85170 0.18240 0.10200
C 	C 	0.62620 0.92725 0.18510 0.11900
H 	H 	0.64370 0.92900 0.23510 -0.02500
C 	C 	0.58360 0.82679 0.04274 -0.08100
C 	C 	0.50530 0.81804 0.98088 0.04000
H 	H 	0.46020 0.84370 0.96230 0.03200
C 	C 	0.49310 0.77203 0.94650 -0.16300
H 	H 	0.43930 0.76670 0.90570 0.09700
C 	C 	0.56070 0.73372 0.97250 0.15300
C 	C 	0.64020 0.74288 0.03170 -0.16800
H 	H 	0.68700 0.71770 0.04870 0.09200
C 	C 	0.65200 0.78835 0.06660 0.04500
H 	H 	0.70670 0.79360 0.10680 0.01600
C 	C 	0.08310 0.43407 0.87400 0.11400
H 	H 	0.12330 0.44250 0.84600 -0.02100
C 	C 	0.08650 0.38555 0.89870 -0.19100
H 	H 	0.12840 0.36230 0.88740 0.09700
C 	C 	0.02758 0.37093 0.94074 0.14100
C 	C 	0.96710 0.40853 0.95429 -0.19400
H 	H 	0.92580 0.40120 0.98200 0.10600
C 	C 	0.96790 0.45562 0.92749 0.10700
H 	H 	0.92610 0.47960 0.93730 -0.01600
C 	C 	0.03080 0.31959 0.97124 -0.09100
C 	C 	0.08050 0.27996 0.94965 0.06300
H 	H 	0.10960 0.28550 0.91360 0.00600
C 	C 	0.08710 0.23327 0.98050 -0.18500
H 	H 	0.12030 0.20770 0.96480 0.10200
C 	C 	0.04540 0.22357 0.03419 0.16700
C 	C 	0.99610 0.26189 0.05648 -0.18000
H 	H 	0.96780 0.25610 0.09290 0.10300
C 	C 	0.98870 0.30907 0.02487 0.05700
H 	H 	0.95440 0.33430 0.04020 0.02100
C 	C 	0.43700 0.08560 0.15200 0.47200
C 	C 	0.33510 0.10735 0.12928 -0.27400
C 	C 	0.32390 0.15705 0.13570 0.21800
H 	H 	0.37980 0.17690 0.15440 -0.03100
C 	C 	0.23350 0.17967 0.11600 -0.30200
H 	H 	0.22890 0.21430 0.12140 0.14000
C 	C 	0.14970 0.15194 0.08842 0.24600
C 	C 	0.15820 0.10131 0.08042 -0.29100
H 	H 	0.10240 0.08140 0.06160 0.14300
C 	C 	0.25210 0.07996 0.10110 0.20500
H 	H 	0.25790 0.04540 0.09520 -0.02300
C 	C 	0.72830 0.08694 0.13430 0.33400
C 	C 	0.81465 0.11172 0.11844 -0.15200
C 	C 	0.90880 0.10800 0.16638 0.11000
H 	H 	0.91860 0.09130 0.21000 0.00300
C 	C 	0.98860 0.12888 0.15014 -0.21400
H 	H 	0.05160 0.12600 0.18270 0.11000
C 	C 	0.97521 0.15400 0.08566 0.18300
C 	C 	0.88060 0.15807 0.03818 -0.20900
H 	H 	0.87040 0.17550 0.99510 0.10900
C 	C 	0.80130 0.13654 0.05421 0.10300
H 	H 	0.73850 0.13890 0.02130 0.00800
C 	C 	0.00900 0.52273 0.69166 0.10500
H 	H 	0.07690 0.51810 0.70400 -0.00300
C 	C 	0.85450 0.52827 0.62870 -0.00700
H 	H 	0.79610 0.52890 0.59070 0.04000
C 	C 	0.86460 0.53511 0.69840 0.02000
H 	H 	0.81270 0.54080 0.71720 0.00800
C 	C 	0.91480 0.47910 0.50862 -0.08300
H 	H 	0.85790 0.46520 0.51480 0.07100
C 	C 	0.97460 0.50995 0.56079 0.08700
C 	C 	0.05970 0.53086 0.55270 -0.08000
H 	H 	0.09940 0.55150 0.58850 0.06500
C 	C 	0.70950 0.04753 0.35012 0.00200
H 	H 	0.76680 0.06040 0.34320 0.02800
C 	C 	0.69330 0.04242 0.41397 0.00500
H 	H 	0.73690 0.05050 0.45890 0.03700
C 	C 	0.56510 0.01658 0.32886 0.11000
H 	H 	0.50290 0.00350 0.30530 -0.01600
C 	C 	0.60080 0.99382 0.51869 -0.07500
H 	H 	0.66890 0.98970 0.53120 0.06300
C 	C 	0.54930 0.01185 0.45123 0.08900
C 	C 	0.44840 0.01804 0.43267 -0.07700
H 	H 	0.41360 0.03020 0.38730 0.06500
N 	N 	0.60786 0.96988 0.14806 -0.27100
N 	N 	0.54946 0.68595 0.93811 -0.19500
N 	N 	0.02583 0.46963 0.88752 -0.27400
N 	N 	0.05540 0.17569 0.06741 -0.20400
N 	N 	0.96156 0.53256 0.73835 -0.26500
N 	N 	0.94817 0.52014 0.62450 -0.13600
N 	N 	0.62822 0.03072 0.29625 -0.25700
N 	N 	0.60048 0.02316 0.40052 -0.14000
O 	O 	0.12903 0.58445 0.90705 -0.43800
O 	O 	0.17640 0.53996 0.82899 -0.36000
O 	O 	0.90031 0.56306 0.87567 -0.45800
O 	O 	0.90393 0.63139 0.81204 -0.31900
O 	O 	0.73622 0.07544 0.19920 -0.43800
O 	O 	0.65174 0.07774 0.08404 -0.34500
O 	O 	0.44970 0.04260 0.14064 -0.46000
O 	O 	0.50920 0.10946 0.18300 -0.42900
Zn	Zn	0.60667 0.04182 0.18930 1.21200
Zn	Zn	0.01396 0.54144 0.84561 1.20900
C 	C 	0.19130 0.92480 0.37557 0.33800
C 	C 	0.28350 0.89537 0.39230 -0.17000
C 	C 	0.30920 0.86024 0.44700 0.12400
H 	H 	0.26660 0.85460 0.47430 0.00100
C 	C 	0.39500 0.83357 0.46250 -0.22100
H 	H 	0.41010 0.81040 0.50020 0.11300
C 	C 	0.46000 0.84058 0.42263 0.19000
C 	C 	0.43460 0.87527 0.36670 -0.21600
H 	H 	0.47650 0.88050 0.33880 0.11100
C 	C 	0.34810 0.90189 0.35228 0.11800
H 	H 	0.33230 0.92500 0.31460 0.00500
C 	C 	0.86850 0.89362 0.35177 0.35600
C 	C 	0.78420 0.87300 0.37449 -0.16400
C 	C 	0.74660 0.82598 0.35130 0.10600
H 	H 	0.77340 0.80710 0.32160 0.00400
C 	C 	0.66820 0.80652 0.37240 -0.21600
H 	H 	0.64220 0.77500 0.35610 0.10800
C 	C 	0.62970 0.83393 0.41710 0.19000
C 	C 	0.66650 0.88083 0.43900 -0.22400
H 	H 	0.63970 0.89980 0.46870 0.11400
C 	C 	0.74320 0.90033 0.41760 0.11900
H 	H 	0.76720 0.93240 0.43270 0.00600
C 	C 	0.58340 0.53448 0.57631 0.11000
H 	H 	0.57140 0.50510 0.54900 -0.00900
C 	C 	0.57480 0.57954 0.54071 -0.18300
H 	H 	0.55640 0.58030 0.49060 0.10800
C 	C 	0.59370 0.62404 0.57984 0.13900
C 	C 	0.62090 0.61966 0.65366 -0.19400
H 	H 	0.63570 0.64830 0.68240 0.10300
C 	C 	0.62620 0.57275 0.68510 0.12000
H 	H 	0.64370 0.57100 0.73510 -0.02600
C 	C 	0.58360 0.67321 0.54274 -0.08300
C 	C 	0.50530 0.68196 0.48088 0.04200
H 	H 	0.46020 0.65630 0.46230 0.03200
C 	C 	0.49310 0.72797 0.44650 -0.16500
H 	H 	0.43930 0.73330 0.40570 0.09700
C 	C 	0.56070 0.76628 0.47250 0.15400
C 	C 	0.64020 0.75712 0.53170 -0.17000
H 	H 	0.68700 0.78230 0.54870 0.09200
C 	C 	0.65200 0.71165 0.56660 0.04600
H 	H 	0.70670 0.70640 0.60680 0.01600
C 	C 	0.08310 0.06593 0.37400 0.11500
H 	H 	0.12330 0.05750 0.34600 -0.02100
C 	C 	0.08650 0.11445 0.39870 -0.19100
H 	H 	0.12840 0.13770 0.38740 0.09700
C 	C 	0.02758 0.12907 0.44074 0.14200
C 	C 	0.96710 0.09147 0.45429 -0.19500
H 	H 	0.92580 0.09880 0.48200 0.10600
C 	C 	0.96790 0.04438 0.42749 0.10500
H 	H 	0.92610 0.02040 0.43730 -0.01600
C 	C 	0.03080 0.18041 0.47124 -0.09100
C 	C 	0.08050 0.22004 0.44965 0.06300
H 	H 	0.10960 0.21450 0.41360 0.00600
C 	C 	0.08710 0.26673 0.48050 -0.18600
H 	H 	0.12030 0.29230 0.46480 0.10200
C 	C 	0.04540 0.27643 0.53419 0.16800
C 	C 	0.99610 0.23811 0.55648 -0.17900
H 	H 	0.96780 0.24390 0.59290 0.10300
C 	C 	0.98870 0.19093 0.52487 0.05700
H 	H 	0.95440 0.16570 0.54020 0.02100
C 	C 	0.43700 0.41440 0.65200 0.47200
C 	C 	0.33510 0.39265 0.62928 -0.27400
C 	C 	0.32390 0.34295 0.63570 0.21800
H 	H 	0.37980 0.32310 0.65440 -0.03100
C 	C 	0.23350 0.32033 0.61600 -0.30200
H 	H 	0.22890 0.28570 0.62140 0.14000
C 	C 	0.14970 0.34806 0.58842 0.24600
C 	C 	0.15820 0.39869 0.58042 -0.29100
H 	H 	0.10240 0.41860 0.56160 0.14200
C 	C 	0.25210 0.42004 0.60110 0.20500
H 	H 	0.25790 0.45460 0.59520 -0.02300
C 	C 	0.72830 0.41306 0.63430 0.33300
C 	C 	0.81465 0.38828 0.61844 -0.15100
C 	C 	0.90880 0.39200 0.66638 0.10700
H 	H 	0.91860 0.40870 0.71000 0.00400
C 	C 	0.98860 0.37112 0.65014 -0.21000
H 	H 	0.05160 0.37400 0.68270 0.10800
C 	C 	0.97521 0.34600 0.58566 0.18100
C 	C 	0.88060 0.34193 0.53818 -0.20600
H 	H 	0.87040 0.32450 0.49510 0.10800
C 	C 	0.80130 0.36346 0.55421 0.10100
H 	H 	0.73850 0.36110 0.52130 0.00900
C 	C 	0.00900 0.97727 0.19166 0.10100
H 	H 	0.07690 0.98190 0.20400 -0.00200
C 	C 	0.85450 0.97173 0.12870 -0.00600
H 	H 	0.79610 0.97110 0.09070 0.04000
C 	C 	0.86460 0.96489 0.19840 0.02000
H 	H 	0.81270 0.95920 0.21720 0.00800
C 	C 	0.91480 0.02090 0.00862 -0.08700
H 	H 	0.85790 0.03480 0.01480 0.07200
C 	C 	0.97460 0.99005 0.06079 0.09200
C 	C 	0.05970 0.96914 0.05270 -0.08200
H 	H 	0.09940 0.94850 0.08850 0.06500
C 	C 	0.70950 0.45247 0.85012 0.00200
H 	H 	0.76680 0.43960 0.84320 0.02800
C 	C 	0.69330 0.45758 0.91397 0.00500
H 	H 	0.73690 0.44950 0.95890 0.03700
C 	C 	0.56510 0.48342 0.82886 0.11000
H 	H 	0.50290 0.49650 0.80530 -0.01600
C 	C 	0.60080 0.50618 0.01869 -0.07600
H 	H 	0.66890 0.51030 0.03120 0.06200
C 	C 	0.54930 0.48815 0.95123 0.09000
C 	C 	0.44840 0.48196 0.93267 -0.07700
H 	H 	0.41360 0.46980 0.88730 0.06500
N 	N 	0.60786 0.53012 0.64806 -0.27200
N 	N 	0.54946 0.81405 0.43811 -0.19500
N 	N 	0.02583 0.03037 0.38752 -0.27300
N 	N 	0.05540 0.32431 0.56741 -0.20400
N 	N 	0.96156 0.96744 0.23835 -0.26300
N 	N 	0.94817 0.97986 0.12450 -0.13500
N 	N 	0.62822 0.46928 0.79625 -0.25700
N 	N 	0.60048 0.47684 0.90052 -0.14000
O 	O 	0.12903 0.91555 0.40705 -0.43800
O 	O 	0.17640 0.96004 0.32899 -0.36000
O 	O 	0.90031 0.93694 0.37567 -0.45700
O 	O 	0.90393 0.86861 0.31204 -0.31800
O 	O 	0.73622 0.42456 0.69920 -0.43800
O 	O 	0.65174 0.42226 0.58404 -0.34400
O 	O 	0.44970 0.45740 0.64064 -0.46000
O 	O 	0.50920 0.39054 0.68300 -0.42900
Zn	Zn	0.60667 0.45818 0.68930 1.21200
Zn	Zn	0.01396 0.95856 0.34561 1.20800
C 	C 	0.80870 0.07520 0.62443 0.33800
C 	C 	0.71650 0.10463 0.60770 -0.17000
C 	C 	0.69080 0.13976 0.55300 0.12400
H 	H 	0.73340 0.14540 0.52570 0.00100
C 	C 	0.60500 0.16643 0.53750 -0.22100
H 	H 	0.58990 0.18960 0.49980 0.11300
C 	C 	0.54000 0.15942 0.57737 0.19000
C 	C 	0.56540 0.12473 0.63330 -0.21600
H 	H 	0.52350 0.11950 0.66120 0.11100
C 	C 	0.65190 0.09811 0.64772 0.11800
H 	H 	0.66770 0.07500 0.68540 0.00500
C 	C 	0.13150 0.10638 0.64823 0.35600
C 	C 	0.21580 0.12700 0.62551 -0.16400
C 	C 	0.25340 0.17402 0.64870 0.10600
H 	H 	0.22660 0.19290 0.67840 0.00400
C 	C 	0.33180 0.19348 0.62760 -0.21600
H 	H 	0.35780 0.22500 0.64390 0.10800
C 	C 	0.37030 0.16607 0.58290 0.19000
C 	C 	0.33350 0.11917 0.56100 -0.22400
H 	H 	0.36030 0.10020 0.53130 0.11400
C 	C 	0.25680 0.09967 0.58240 0.11900
H 	H 	0.23280 0.06760 0.56730 0.00600
C 	C 	0.41660 0.46552 0.42369 0.11000
H 	H 	0.42860 0.49490 0.45100 -0.00900
C 	C 	0.42520 0.42046 0.45929 -0.18300
H 	H 	0.44360 0.41970 0.50940 0.10800
C 	C 	0.40630 0.37596 0.42016 0.13900
C 	C 	0.37910 0.38034 0.34634 -0.19400
H 	H 	0.36430 0.35170 0.31760 0.10300
C 	C 	0.37380 0.42725 0.31490 0.12000
H 	H 	0.35630 0.42900 0.26490 -0.02600
C 	C 	0.41640 0.32679 0.45726 -0.08300
C 	C 	0.49470 0.31804 0.51912 0.04200
H 	H 	0.53980 0.34370 0.53770 0.03200
C 	C 	0.50690 0.27203 0.55350 -0.16500
H 	H 	0.56070 0.26670 0.59430 0.09700
C 	C 	0.43930 0.23372 0.52750 0.15400
C 	C 	0.35980 0.24288 0.46830 -0.17000
H 	H 	0.31300 0.21770 0.45130 0.09200
C 	C 	0.34800 0.28835 0.43340 0.04600
H 	H 	0.29330 0.29360 0.39320 0.01600
C 	C 	0.91690 0.93407 0.62600 0.11500
H 	H 	0.87670 0.94250 0.65400 -0.02100
C 	C 	0.91350 0.88555 0.60130 -0.19100
H 	H 	0.87160 0.86230 0.61260 0.09700
C 	C 	0.97242 0.87093 0.55926 0.14200
C 	C 	0.03290 0.90853 0.54571 -0.19500
H 	H 	0.07420 0.90120 0.51800 0.10600
C 	C 	0.03210 0.95562 0.57251 0.10500
H 	H 	0.07390 0.97960 0.56270 -0.01600
C 	C 	0.96920 0.81959 0.52876 -0.09100
C 	C 	0.91950 0.77996 0.55035 0.06300
H 	H 	0.89040 0.78550 0.58640 0.00600
C 	C 	0.91290 0.73327 0.51950 -0.18600
H 	H 	0.87970 0.70770 0.53520 0.10200
C 	C 	0.95460 0.72357 0.46581 0.16800
C 	C 	0.00390 0.76189 0.44352 -0.17900
H 	H 	0.03220 0.75610 0.40710 0.10300
C 	C 	0.01130 0.80907 0.47513 0.05700
H 	H 	0.04560 0.83430 0.45980 0.02100
C 	C 	0.56300 0.58560 0.34800 0.47200
C 	C 	0.66490 0.60735 0.37072 -0.27400
C 	C 	0.67610 0.65705 0.36430 0.21800
H 	H 	0.62020 0.67690 0.34560 -0.03100
C 	C 	0.76650 0.67967 0.38400 -0.30200
H 	H 	0.77110 0.71430 0.37860 0.14000
C 	C 	0.85030 0.65194 0.41158 0.24600
C 	C 	0.84180 0.60131 0.41958 -0.29100
H 	H 	0.89760 0.58140 0.43840 0.14200
C 	C 	0.74790 0.57996 0.39890 0.20500
H 	H 	0.74210 0.54540 0.40480 -0.02300
C 	C 	0.27170 0.58694 0.36570 0.33300
C 	C 	0.18535 0.61172 0.38156 -0.15100
C 	C 	0.09120 0.60800 0.33362 0.10700
H 	H 	0.08140 0.59130 0.29000 0.00400
C 	C 	0.01140 0.62888 0.34986 -0.21000
H 	H 	0.94840 0.62600 0.31730 0.10800
C 	C 	0.02479 0.65400 0.41434 0.18100
C 	C 	0.11940 0.65807 0.46182 -0.20600
H 	H 	0.12960 0.67550 0.50490 0.10800
C 	C 	0.19870 0.63654 0.44579 0.10100
H 	H 	0.26150 0.63890 0.47870 0.00900
C 	C 	0.99100 0.02273 0.80834 0.10100
H 	H 	0.92310 0.01810 0.79600 -0.00200
C 	C 	0.14550 0.02827 0.87130 -0.00600
H 	H 	0.20390 0.02890 0.90930 0.04000
C 	C 	0.13540 0.03511 0.80160 0.02000
H 	H 	0.18730 0.04080 0.78280 0.00800
C 	C 	0.08520 0.97910 0.99138 -0.08700
H 	H 	0.14210 0.96520 0.98520 0.07200
C 	C 	0.02540 0.00995 0.93921 0.09200
C 	C 	0.94030 0.03086 0.94730 -0.08200
H 	H 	0.90060 0.05150 0.91150 0.06500
C 	C 	0.29050 0.54753 0.14988 0.00200
H 	H 	0.23320 0.56040 0.15680 0.02800
C 	C 	0.30670 0.54242 0.08603 0.00500
H 	H 	0.26310 0.55050 0.04110 0.03700
C 	C 	0.43490 0.51658 0.17114 0.11000
H 	H 	0.49710 0.50350 0.19470 -0.01600
C 	C 	0.39920 0.49382 0.98131 -0.07600
H 	H 	0.33110 0.48970 0.96880 0.06200
C 	C 	0.45070 0.51185 0.04877 0.09000
C 	C 	0.55160 0.51804 0.06733 -0.07700
H 	H 	0.58640 0.53020 0.11270 0.06500
N 	N 	0.39214 0.46988 0.35194 -0.27200
N 	N 	0.45054 0.18595 0.56189 -0.19500
N 	N 	0.97417 0.96963 0.61248 -0.27300
N 	N 	0.94460 0.67569 0.43259 -0.20400
N 	N 	0.03844 0.03256 0.76165 -0.26300
N 	N 	0.05183 0.02014 0.87550 -0.13500
N 	N 	0.37178 0.53072 0.20375 -0.25700
N 	N 	0.39952 0.52316 0.09948 -0.14000
O 	O 	0.87097 0.08445 0.59295 -0.43800
O 	O 	0.82360 0.03996 0.67101 -0.36000
O 	O 	0.09969 0.06306 0.62433 -0.45700
O 	O 	0.09607 0.13139 0.68796 -0.31800
O 	O 	0.26378 0.57544 0.30080 -0.43800
O 	O 	0.34826 0.57774 0.41596 -0.34400
O 	O 	0.55030 0.54260 0.35936 -0.46000
O 	O 	0.49080 0.60946 0.31700 -0.42900
Zn	Zn	0.39333 0.54182 0.31070 1.21200
Zn	Zn	0.98604 0.04144 0.65439 1.20800
