data_crystal

_cell_length_a 16.35830
_cell_length_b 18.13360
_cell_length_c 22.59150
_cell_angle_alpha 90.00000
_cell_angle_beta  114.10500
_cell_angle_gamma 90.00000

_symmetry_space_group_name_	'P 1'
_symmetry_space_group_name_H-M	'P 1'

loop_
_symmetry_equiv_pos_as_xyz
  x,y,z

loop_
_atom_site_label
_atom_site_type_symbol
_atom_site_fract_x
_atom_site_fract_y
_atom_site_fract_z
_atom_site_charge
Zn	Zn	0.27845 0.44797 0.72021 1.21400
Zn	Zn	0.11957 0.54263 0.65947 1.21700
C 	C 	0.12620 0.38705 0.61382 0.40400
C 	C 	0.08020 0.32714 0.56632 -0.17600
C 	C 	0.99820 0.34104 0.51499 0.11800
H 	H 	0.96910 0.38560 0.51320 0.00500
C 	C 	0.95940 0.28919 0.46669 -0.22300
H 	H 	0.90520 0.29920 0.43210 0.11800
C 	C 	0.00210 0.22213 0.47025 0.18600
C 	C 	0.08200 0.20615 0.52284 -0.21900
H 	H 	0.10900 0.16030 0.52610 0.10900
C 	C 	0.12080 0.25903 0.57020 0.11800
H 	H 	0.17480 0.24880 0.60500 0.00300
C 	C 	0.15720 0.06250 0.27721 0.40700
C 	C 	0.11110 0.08846 0.31818 -0.18100
C 	C 	0.14240 0.14872 0.35916 0.12600
H 	H 	0.19600 0.17100 0.36410 -0.00100
C 	C 	0.09490 0.17587 0.39256 -0.22300
H 	H 	0.11640 0.21670 0.41940 0.11500
C 	C 	0.01470 0.14279 0.38662 0.19100
C 	C 	0.98530 0.08001 0.34768 -0.22300
H 	H 	0.93400 0.05550 0.34510 0.11200
C 	C 	0.03190 0.05427 0.31306 0.12700
H 	H 	0.01040 0.01370 0.28600 0.00100
C 	C 	0.44250 0.12530 0.31452 0.09800
H 	H 	0.40840 0.13160 0.33850 -0.00700
C 	C 	0.53170 0.14490 0.34218 -0.17300
H 	H 	0.55640 0.16390 0.38410 0.09200
C 	C 	0.58480 0.13653 0.30790 0.12200
C 	C 	0.54150 0.11260 0.24397 -0.17100
H 	H 	0.57290 0.10930 0.21780 0.09100
C 	C 	0.45190 0.09380 0.21943 0.09500
H 	H 	0.42440 0.07770 0.17670 -0.00300
C 	C 	0.68250 0.14968 0.33683 -0.08000
C 	C 	0.72720 0.17010 0.29868 0.04500
H 	H 	0.69470 0.17880 0.25460 0.01700
C 	C 	0.81910 0.17790 0.32515 -0.16800
H 	H 	0.84790 0.19180 0.29890 0.09700
C 	C 	0.86890 0.16509 0.39053 0.15200
C 	C 	0.82490 0.14740 0.42933 -0.16700
H 	H 	0.85740 0.14060 0.47360 0.09400
C 	C 	0.73260 0.13970 0.40277 0.04200
H 	H 	0.70390 0.12760 0.42950 0.01400
C 	C 	0.25570 0.55377 0.60991 0.40400
C 	C 	0.30300 0.59180 0.57422 -0.18000
C 	C 	0.28400 0.66488 0.55498 0.12300
H 	H 	0.24000 0.68980 0.56320 0.00200
C 	C 	0.32930 0.70103 0.52384 -0.22000
H 	H 	0.31580 0.75000 0.51140 0.10900
C 	C 	0.39470 0.66500 0.51103 0.18300
C 	C 	0.41470 0.59190 0.53065 -0.21500
H 	H 	0.45870 0.56710 0.52240 0.10900
C 	C 	0.36990 0.55620 0.56208 0.12100
H 	H 	0.38450 0.50760 0.57540 -0.00100
C 	C 	0.26200 0.89567 0.26728 0.41000
C 	C 	0.30990 0.84356 0.32191 -0.17800
C 	C 	0.39790 0.85690 0.36469 0.11900
H 	H 	0.42760 0.89790 0.35850 0.00400
C 	C 	0.44210 0.81000 0.41646 -0.21600
H 	H 	0.50110 0.81970 0.44460 0.11100
C 	C 	0.39840 0.74864 0.42633 0.18500
C 	C 	0.31080 0.73526 0.38380 -0.22000
H 	H 	0.28100 0.69430 0.38990 0.11200
C 	C 	0.26680 0.78247 0.33201 0.12000
H 	H 	0.20780 0.77280 0.30390 0.00200
C 	C 	0.93050 0.55647 0.56433 0.10400
H 	H 	0.94910 0.52520 0.53970 0.00000
C 	C 	0.84240 0.57890 0.53927 -0.17400
H 	H 	0.80320 0.56310 0.49830 0.10200
C 	C 	0.81210 0.62500 0.57509 0.12000
C 	C 	0.87480 0.64570 0.63658 -0.17700
H 	H 	0.85770 0.67590 0.66280 0.09500
C 	C 	0.96170 0.62133 0.65807 0.10300
H 	H 	0.00240 0.63570 0.69900 -0.01000
C 	C 	0.71800 0.65012 0.55000 -0.07400
C 	C 	0.66530 0.65363 0.48352 0.03300
H 	H 	0.69090 0.64350 0.45450 0.02300
C 	C 	0.57530 0.67190 0.45999 -0.16000
H 	H 	0.54110 0.67360 0.41550 0.08900
C 	C 	0.53640 0.68770 0.50252 0.14300
C 	C 	0.58980 0.68990 0.56901 -0.15700
H 	H 	0.56500 0.70430 0.59760 0.09100
C 	C 	0.67920 0.67080 0.59252 0.03500
H 	H 	0.71400 0.67160 0.63690 0.01900
N 	N 	0.96376 0.17104 0.41848 -0.19500
N 	N 	0.40294 0.09757 0.25444 -0.25800
N 	N 	0.44310 0.70208 0.48015 -0.19200
N 	N 	0.99052 0.57779 0.62268 -0.26000
O 	O 	0.09126 0.45020 0.60125 -0.46200
O 	O 	0.19695 0.37024 0.66212 -0.46200
O 	O 	0.23702 0.08259 0.29105 -0.44300
O 	O 	0.11141 0.02288 0.22944 -0.48600
O 	O 	0.28870 0.49389 0.63851 -0.45900
O 	O 	0.18708 0.58475 0.61018 -0.46800
O 	O 	0.30623 0.94952 0.26087 -0.48100
O 	O 	0.18144 0.88213 0.23143 -0.45200
Zn	Zn	0.27845 0.05203 0.22021 1.21500
Zn	Zn	0.11957 0.95737 0.15947 1.21700
C 	C 	0.12620 0.11295 0.11382 0.40300
C 	C 	0.08020 0.17286 0.06632 -0.16700
C 	C 	0.99820 0.15896 0.01499 0.11000
H 	H 	0.96910 0.11440 0.01320 0.00900
C 	C 	0.95940 0.21081 0.96669 -0.21200
H 	H 	0.90520 0.20080 0.93210 0.11600
C 	C 	0.00210 0.27787 0.97025 0.17800
C 	C 	0.08200 0.29385 0.02284 -0.20800
H 	H 	0.10900 0.33970 0.02610 0.10800
C 	C 	0.12080 0.24097 0.07020 0.11200
H 	H 	0.17480 0.25120 0.10500 0.00600
C 	C 	0.15720 0.43750 0.77721 0.40600
C 	C 	0.11110 0.41154 0.81818 -0.17600
C 	C 	0.14240 0.35128 0.85916 0.12100
H 	H 	0.19600 0.32900 0.86410 0.00200
C 	C 	0.09490 0.32413 0.89256 -0.21600
H 	H 	0.11640 0.28330 0.91940 0.11300
C 	C 	0.01470 0.35721 0.88662 0.18300
C 	C 	0.98530 0.41999 0.84768 -0.21100
H 	H 	0.93400 0.44450 0.84510 0.10900
C 	C 	0.03190 0.44573 0.81306 0.11700
H 	H 	0.01040 0.48630 0.78600 0.00300
C 	C 	0.44250 0.37470 0.81452 0.09800
H 	H 	0.40840 0.36840 0.83850 -0.00700
C 	C 	0.53170 0.35510 0.84218 -0.17300
H 	H 	0.55640 0.33610 0.88410 0.09200
C 	C 	0.58480 0.36347 0.80790 0.12100
C 	C 	0.54150 0.38740 0.74397 -0.17100
H 	H 	0.57290 0.39070 0.71780 0.09100
C 	C 	0.45190 0.40620 0.71943 0.09500
H 	H 	0.42440 0.42230 0.67670 -0.00400
C 	C 	0.68250 0.35032 0.83683 -0.07900
C 	C 	0.72720 0.32990 0.79868 0.04500
H 	H 	0.69470 0.32120 0.75460 0.01700
C 	C 	0.81910 0.32210 0.82515 -0.16700
H 	H 	0.84790 0.30820 0.79890 0.09700
C 	C 	0.86890 0.33491 0.89053 0.15200
C 	C 	0.82490 0.35260 0.92933 -0.16600
H 	H 	0.85740 0.35940 0.97360 0.09400
C 	C 	0.73260 0.36030 0.90277 0.04200
H 	H 	0.70390 0.37240 0.92950 0.01400
C 	C 	0.25570 0.94623 0.10991 0.40200
C 	C 	0.30300 0.90820 0.07422 -0.17900
C 	C 	0.28400 0.83512 0.05498 0.12200
H 	H 	0.24000 0.81020 0.06320 0.00300
C 	C 	0.32930 0.79897 0.02384 -0.21900
H 	H 	0.31580 0.75000 0.01140 0.10900
C 	C 	0.39470 0.83500 0.01103 0.18200
C 	C 	0.41470 0.90810 0.03065 -0.21400
H 	H 	0.45870 0.93290 0.02240 0.10800
C 	C 	0.36990 0.94380 0.06208 0.12000
H 	H 	0.38450 0.99240 0.07540 -0.00100
C 	C 	0.26200 0.60433 0.76728 0.41000
C 	C 	0.30990 0.65644 0.82191 -0.17800
C 	C 	0.39790 0.64310 0.86469 0.11900
H 	H 	0.42760 0.60210 0.85850 0.00400
C 	C 	0.44210 0.69000 0.91646 -0.21600
H 	H 	0.50110 0.68030 0.94460 0.11100
C 	C 	0.39840 0.75136 0.92633 0.18500
C 	C 	0.31080 0.76474 0.88380 -0.22000
H 	H 	0.28100 0.80570 0.88990 0.11200
C 	C 	0.26680 0.71753 0.83201 0.12000
H 	H 	0.20780 0.72720 0.80390 0.00200
C 	C 	0.93050 0.94353 0.06433 0.10700
H 	H 	0.94910 0.97480 0.03970 -0.00200
C 	C 	0.84240 0.92110 0.03927 -0.18100
H 	H 	0.80320 0.93690 0.99830 0.10600
C 	C 	0.81210 0.87500 0.07509 0.12300
C 	C 	0.87480 0.85430 0.13658 -0.17900
H 	H 	0.85770 0.82410 0.16280 0.09500
C 	C 	0.96170 0.87867 0.15807 0.10400
H 	H 	0.00240 0.86430 0.19900 -0.01000
C 	C 	0.71800 0.84988 0.05000 -0.07800
C 	C 	0.66530 0.84637 0.98352 0.03700
H 	H 	0.69090 0.85650 0.95450 0.02200
C 	C 	0.57530 0.82810 0.95999 -0.16000
H 	H 	0.54110 0.82640 0.91550 0.09000
C 	C 	0.53640 0.81230 0.00252 0.14100
C 	C 	0.58980 0.81010 0.06901 -0.15800
H 	H 	0.56500 0.79570 0.09760 0.09100
C 	C 	0.67920 0.82920 0.09252 0.03600
H 	H 	0.71400 0.82840 0.13690 0.01800
N 	N 	0.96376 0.32896 0.91848 -0.19100
N 	N 	0.40294 0.40243 0.75444 -0.25800
N 	N 	0.44310 0.79792 0.98015 -0.19100
N 	N 	0.99052 0.92221 0.12268 -0.26100
O 	O 	0.09126 0.04980 0.10125 -0.45900
O 	O 	0.19695 0.12976 0.16212 -0.46100
O 	O 	0.23702 0.41741 0.79105 -0.44300
O 	O 	0.11141 0.47712 0.72944 -0.48700
O 	O 	0.28870 0.00611 0.13851 -0.45700
O 	O 	0.18708 0.91525 0.11018 -0.46800
O 	O 	0.30623 0.55048 0.76087 -0.48000
O 	O 	0.18144 0.61787 0.73143 -0.45200
Zn	Zn	0.72155 0.94797 0.77979 1.21500
Zn	Zn	0.88043 0.04263 0.84053 1.21700
C 	C 	0.87380 0.88705 0.88618 0.40300
C 	C 	0.91980 0.82714 0.93368 -0.16700
C 	C 	0.00180 0.84104 0.98501 0.11000
H 	H 	0.03090 0.88560 0.98680 0.00900
C 	C 	0.04060 0.78919 0.03331 -0.21200
H 	H 	0.09480 0.79920 0.06790 0.11600
C 	C 	0.99790 0.72213 0.02975 0.17800
C 	C 	0.91800 0.70615 0.97716 -0.20800
H 	H 	0.89100 0.66030 0.97390 0.10800
C 	C 	0.87920 0.75903 0.92980 0.11200
H 	H 	0.82520 0.74880 0.89500 0.00600
C 	C 	0.84280 0.56250 0.22279 0.40600
C 	C 	0.88890 0.58846 0.18182 -0.17600
C 	C 	0.85760 0.64872 0.14084 0.12100
H 	H 	0.80400 0.67100 0.13590 0.00200
C 	C 	0.90510 0.67587 0.10744 -0.21600
H 	H 	0.88360 0.71670 0.08060 0.11300
C 	C 	0.98530 0.64279 0.11338 0.18300
C 	C 	0.01470 0.58001 0.15232 -0.21100
H 	H 	0.06600 0.55550 0.15490 0.10900
C 	C 	0.96810 0.55427 0.18694 0.11700
H 	H 	0.98960 0.51370 0.21400 0.00300
C 	C 	0.55750 0.62530 0.18548 0.09800
H 	H 	0.59160 0.63160 0.16150 -0.00700
C 	C 	0.46830 0.64490 0.15782 -0.17300
H 	H 	0.44360 0.66390 0.11590 0.09200
C 	C 	0.41520 0.63653 0.19210 0.12100
C 	C 	0.45850 0.61260 0.25603 -0.17100
H 	H 	0.42710 0.60930 0.28220 0.09100
C 	C 	0.54810 0.59380 0.28057 0.09500
H 	H 	0.57560 0.57770 0.32330 -0.00400
C 	C 	0.31750 0.64968 0.16317 -0.07900
C 	C 	0.27280 0.67010 0.20132 0.04500
H 	H 	0.30530 0.67880 0.24540 0.01700
C 	C 	0.18090 0.67790 0.17485 -0.16700
H 	H 	0.15210 0.69180 0.20110 0.09700
C 	C 	0.13110 0.66509 0.10947 0.15200
C 	C 	0.17510 0.64740 0.07067 -0.16600
H 	H 	0.14260 0.64060 0.02640 0.09400
C 	C 	0.26740 0.63970 0.09723 0.04200
H 	H 	0.29610 0.62760 0.07050 0.01400
C 	C 	0.74430 0.05377 0.89009 0.40200
C 	C 	0.69700 0.09180 0.92578 -0.17900
C 	C 	0.71600 0.16488 0.94502 0.12200
H 	H 	0.76000 0.18980 0.93680 0.00300
C 	C 	0.67070 0.20103 0.97616 -0.21900
H 	H 	0.68420 0.25000 0.98860 0.10900
C 	C 	0.60530 0.16500 0.98897 0.18200
C 	C 	0.58530 0.09190 0.96935 -0.21400
H 	H 	0.54130 0.06710 0.97760 0.10800
C 	C 	0.63010 0.05620 0.93792 0.12000
H 	H 	0.61550 0.00760 0.92460 -0.00100
C 	C 	0.73800 0.39567 0.23272 0.41000
C 	C 	0.69010 0.34356 0.17809 -0.17800
C 	C 	0.60210 0.35690 0.13531 0.11900
H 	H 	0.57240 0.39790 0.14150 0.00400
C 	C 	0.55790 0.31000 0.08354 -0.21600
H 	H 	0.49890 0.31970 0.05540 0.11100
C 	C 	0.60160 0.24864 0.07367 0.18500
C 	C 	0.68920 0.23526 0.11620 -0.22000
H 	H 	0.71900 0.19430 0.11010 0.11200
C 	C 	0.73320 0.28247 0.16799 0.12000
H 	H 	0.79220 0.27280 0.19610 0.00200
C 	C 	0.06950 0.05647 0.93567 0.10700
H 	H 	0.05090 0.02520 0.96030 -0.00200
C 	C 	0.15760 0.07890 0.96073 -0.18100
H 	H 	0.19680 0.06310 0.00170 0.10600
C 	C 	0.18790 0.12500 0.92491 0.12300
C 	C 	0.12520 0.14570 0.86342 -0.17900
H 	H 	0.14230 0.17590 0.83720 0.09500
C 	C 	0.03830 0.12133 0.84193 0.10400
H 	H 	0.99760 0.13570 0.80100 -0.01000
C 	C 	0.28200 0.15012 0.95000 -0.07800
C 	C 	0.33470 0.15363 0.01648 0.03700
H 	H 	0.30910 0.14350 0.04550 0.02200
C 	C 	0.42470 0.17190 0.04001 -0.16000
H 	H 	0.45890 0.17360 0.08450 0.09000
C 	C 	0.46360 0.18770 0.99748 0.14100
C 	C 	0.41020 0.18990 0.93099 -0.15800
H 	H 	0.43500 0.20430 0.90240 0.09100
C 	C 	0.32080 0.17080 0.90748 0.03600
H 	H 	0.28600 0.17160 0.86310 0.01800
N 	N 	0.03624 0.67104 0.08152 -0.19100
N 	N 	0.59706 0.59757 0.24556 -0.25800
N 	N 	0.55690 0.20208 0.01985 -0.19100
N 	N 	0.00948 0.07779 0.87732 -0.26100
O 	O 	0.90874 0.95020 0.89875 -0.45900
O 	O 	0.80305 0.87024 0.83788 -0.46100
O 	O 	0.76298 0.58259 0.20895 -0.44300
O 	O 	0.88859 0.52288 0.27056 -0.48700
O 	O 	0.71130 0.99389 0.86149 -0.45700
O 	O 	0.81292 0.08475 0.88982 -0.46800
O 	O 	0.69377 0.44952 0.23913 -0.48000
O 	O 	0.81856 0.38213 0.26857 -0.45200
Zn	Zn	0.72155 0.55203 0.27979 1.21500
Zn	Zn	0.88043 0.45737 0.34053 1.21800
C 	C 	0.87380 0.61295 0.38618 0.40500
C 	C 	0.91980 0.67286 0.43368 -0.17500
C 	C 	0.00180 0.65896 0.48501 0.11900
H 	H 	0.03090 0.61440 0.48680 0.00600
C 	C 	0.04060 0.71081 0.53331 -0.22200
H 	H 	0.09480 0.70080 0.56790 0.11900
C 	C 	0.99790 0.77787 0.52975 0.18700
C 	C 	0.91800 0.79385 0.47716 -0.21800
H 	H 	0.89100 0.83970 0.47390 0.11000
C 	C 	0.87920 0.74097 0.42980 0.11900
H 	H 	0.82520 0.75120 0.39500 0.00400
C 	C 	0.84280 0.93750 0.72279 0.40800
C 	C 	0.88890 0.91154 0.68182 -0.18000
C 	C 	0.85760 0.85128 0.64084 0.12700
H 	H 	0.80400 0.82900 0.63590 -0.00000
C 	C 	0.90510 0.82413 0.60744 -0.22200
H 	H 	0.88360 0.78330 0.58060 0.11500
C 	C 	0.98530 0.85721 0.61338 0.19100
C 	C 	0.01470 0.91999 0.65232 -0.22300
H 	H 	0.06600 0.94450 0.65490 0.11200
C 	C 	0.96810 0.94573 0.68694 0.12700
H 	H 	0.98960 0.98630 0.71400 0.00100
C 	C 	0.55750 0.87470 0.68548 0.09800
H 	H 	0.59160 0.86840 0.66150 -0.00700
C 	C 	0.46830 0.85510 0.65782 -0.17300
H 	H 	0.44360 0.83610 0.61590 0.09200
C 	C 	0.41520 0.86347 0.69210 0.12200
C 	C 	0.45850 0.88740 0.75603 -0.17100
H 	H 	0.42710 0.89070 0.78220 0.09100
C 	C 	0.54810 0.90620 0.78057 0.09500
H 	H 	0.57560 0.92230 0.82330 -0.00300
C 	C 	0.31750 0.85032 0.66317 -0.08000
C 	C 	0.27280 0.82990 0.70132 0.04500
H 	H 	0.30530 0.82120 0.74540 0.01700
C 	C 	0.18090 0.82210 0.67485 -0.16800
H 	H 	0.15210 0.80820 0.70110 0.09700
C 	C 	0.13110 0.83491 0.60947 0.15200
C 	C 	0.17510 0.85260 0.57067 -0.16700
H 	H 	0.14260 0.85940 0.52640 0.09400
C 	C 	0.26740 0.86030 0.59723 0.04200
H 	H 	0.29610 0.87240 0.57050 0.01400
C 	C 	0.74430 0.44623 0.39009 0.40400
C 	C 	0.69700 0.40820 0.42578 -0.18000
C 	C 	0.71600 0.33512 0.44502 0.12300
H 	H 	0.76000 0.31020 0.43680 0.00200
C 	C 	0.67070 0.29897 0.47616 -0.22000
H 	H 	0.68420 0.25000 0.48860 0.10900
C 	C 	0.60530 0.33500 0.48897 0.18300
C 	C 	0.58530 0.40810 0.46935 -0.21500
H 	H 	0.54130 0.43290 0.47760 0.10900
C 	C 	0.63010 0.44380 0.43792 0.12100
H 	H 	0.61550 0.49240 0.42460 -0.00100
C 	C 	0.73800 0.10433 0.73272 0.41000
C 	C 	0.69010 0.15644 0.67809 -0.17800
C 	C 	0.60210 0.14310 0.63531 0.11900
H 	H 	0.57240 0.10210 0.64150 0.00400
C 	C 	0.55790 0.19000 0.58354 -0.21600
H 	H 	0.49890 0.18030 0.55540 0.11100
C 	C 	0.60160 0.25136 0.57367 0.18500
C 	C 	0.68920 0.26474 0.61620 -0.22000
H 	H 	0.71900 0.30570 0.61010 0.11200
C 	C 	0.73320 0.21753 0.66799 0.12000
H 	H 	0.79220 0.22720 0.69610 0.00200
C 	C 	0.06950 0.44353 0.43567 0.10400
H 	H 	0.05090 0.47480 0.46030 0.00000
C 	C 	0.15760 0.42110 0.46073 -0.17400
H 	H 	0.19680 0.43690 0.50170 0.10200
C 	C 	0.18790 0.37500 0.42491 0.12000
C 	C 	0.12520 0.35430 0.36342 -0.17700
H 	H 	0.14230 0.32410 0.33720 0.09500
C 	C 	0.03830 0.37867 0.34193 0.10300
H 	H 	0.99760 0.36430 0.30100 -0.01000
C 	C 	0.28200 0.34988 0.45000 -0.07400
C 	C 	0.33470 0.34637 0.51648 0.03300
H 	H 	0.30910 0.35650 0.54550 0.02300
C 	C 	0.42470 0.32810 0.54001 -0.16000
H 	H 	0.45890 0.32640 0.58450 0.08900
C 	C 	0.46360 0.31230 0.49748 0.14300
C 	C 	0.41020 0.31010 0.43099 -0.15700
H 	H 	0.43500 0.29570 0.40240 0.09100
C 	C 	0.32080 0.32920 0.40748 0.03500
H 	H 	0.28600 0.32840 0.36310 0.01900
N 	N 	0.03624 0.82896 0.58152 -0.19500
N 	N 	0.59706 0.90243 0.74556 -0.25800
N 	N 	0.55690 0.29792 0.51985 -0.19200
N 	N 	0.00948 0.42221 0.37732 -0.26000
O 	O 	0.90874 0.54980 0.39875 -0.46200
O 	O 	0.80305 0.62976 0.33788 -0.46200
O 	O 	0.76298 0.91741 0.70895 -0.44300
O 	O 	0.88859 0.97712 0.77056 -0.48600
O 	O 	0.71130 0.50611 0.36149 -0.45900
O 	O 	0.81292 0.41525 0.38982 -0.46800
O 	O 	0.69377 0.05048 0.73913 -0.48100
O 	O 	0.81856 0.11787 0.76857 -0.45200
