data_crystal

_cell_length_a 13.73000
_cell_length_b 14.03000
_cell_length_c 14.10000
_cell_angle_alpha 115.65500
_cell_angle_beta  111.02700
_cell_angle_gamma 100.39700

_symmetry_space_group_name_	'P 1'
_symmetry_space_group_name_H-M	'P 1'

loop_
_symmetry_equiv_pos_as_xyz
  x,y,z

loop_
_atom_site_label
_atom_site_type_symbol
_atom_site_fract_x
_atom_site_fract_y
_atom_site_fract_z
_atom_site_charge
Mn	Mn	0.79480 0.61810 0.62120 1.30300
Si	Si	0.52080 0.84940 0.11710 0.71500
O 	O 	0.78330 0.77440 0.76930 -0.34400
O 	O 	0.66510 0.59350 0.67480 -0.50500
O 	O 	0.97900 0.70500 0.69490 -0.36200
O 	O 	0.93280 0.63710 0.79700 -0.32600
O 	O 	0.55990 0.62900 0.46790 -0.44200
O 	O 	0.73350 0.65980 0.48970 -0.45200
O 	O 	0.59200 0.41150 0.42900 -0.45900
O 	O 	0.77310 0.44840 0.51950 -0.42700
C 	C 	0.70400 0.69970 0.75800 0.28000
C 	C 	0.66430 0.73790 0.84990 -0.01600
C 	C 	0.70720 0.85370 0.94010 -0.08800
H 	H 	0.76320 0.90960 0.94530 0.07900
C 	C 	0.66820 0.88770 0.02280 0.07400
H 	H 	0.69750 0.96690 0.08450 -0.00500
C 	C 	0.58630 0.80600 0.01520 -0.24800
C 	C 	0.54340 0.69020 0.92490 0.07800
H 	H 	0.48740 0.63430 0.91970 -0.00600
C 	C 	0.58240 0.65610 0.84230 -0.08800
H 	H 	0.55310 0.57700 0.78060 0.06800
C 	C 	0.00510 0.68500 0.77900 0.24900
C 	C 	0.13030 0.72480 0.86130 0.01600
C 	C 	0.16500 0.71390 0.96030 -0.10600
H 	H 	0.11000 0.68300 0.97660 0.08400
C 	C 	0.28010 0.74820 0.03550 0.08600
H 	H 	0.30370 0.74070 0.10310 -0.00600
C 	C 	0.36050 0.79340 0.01160 -0.24500
C 	C 	0.32580 0.80430 0.91260 0.08000
H 	H 	0.38080 0.83520 0.89640 -0.00500
C 	C 	0.21080 0.77000 0.83750 -0.10300
H 	H 	0.18710 0.77740 0.76980 0.08200
C 	C 	0.64000 0.66100 0.44800 0.37200
C 	C 	0.60560 0.70050 0.36150 -0.04300
C 	C 	0.65050 0.68400 0.28430 -0.06900
H 	H 	0.69990 0.64450 0.28320 0.06400
C 	C 	0.62310 0.72520 0.20890 0.06100
H 	H 	0.65380 0.71390 0.15610 0.00200
C 	C 	0.55080 0.78290 0.21060 -0.23900
C 	C 	0.50590 0.79940 0.28770 0.06300
H 	H 	0.45640 0.83890 0.28890 -0.00200
C 	C 	0.53330 0.75820 0.36320 -0.06800
H 	H 	0.50260 0.76950 0.41590 0.06600
C 	C 	0.67090 0.37490 0.44700 0.34400
C 	C 	0.64030 0.24700 0.37240 -0.04000
C 	C 	0.52540 0.17690 0.29220 -0.07100
H 	H 	0.47050 0.20980 0.28860 0.06600
C 	C 	0.49080 0.05860 0.21710 0.06100
H 	H 	0.41220 0.01070 0.16230 0.00400
C 	C 	0.57110 0.01050 0.22230 -0.24200
C 	C 	0.68610 0.08060 0.30260 0.06500
H 	H 	0.74100 0.04770 0.30610 -0.00100
C 	C 	0.72070 0.19880 0.37760 -0.07500
H 	H 	0.79920 0.24680 0.43240 0.07000
Mn	Mn	0.20520 0.38190 0.37880 1.30200
Si	Si	0.47920 0.15060 0.88290 0.71400
O 	O 	0.21670 0.22560 0.23070 -0.34500
O 	O 	0.33490 0.40650 0.32520 -0.50600
O 	O 	0.02100 0.29500 0.30510 -0.36300
O 	O 	0.06720 0.36290 0.20300 -0.32600
O 	O 	0.44010 0.37100 0.53210 -0.44200
O 	O 	0.26650 0.34020 0.51030 -0.45200
O 	O 	0.40800 0.58850 0.57100 -0.45900
O 	O 	0.22690 0.55160 0.48050 -0.42700
C 	C 	0.29600 0.30030 0.24200 0.28000
C 	C 	0.33570 0.26210 0.15010 -0.01600
C 	C 	0.29280 0.14630 0.05990 -0.08800
H 	H 	0.23680 0.09040 0.05470 0.07900
C 	C 	0.33180 0.11230 0.97720 0.07400
H 	H 	0.30250 0.03310 0.91550 -0.00500
C 	C 	0.41370 0.19400 0.98480 -0.24800
C 	C 	0.45660 0.30980 0.07510 0.07800
H 	H 	0.51260 0.36570 0.08030 -0.00600
C 	C 	0.41760 0.34390 0.15770 -0.08800
H 	H 	0.44690 0.42300 0.21940 0.06800
C 	C 	0.99490 0.31500 0.22100 0.24900
C 	C 	0.86970 0.27520 0.13870 0.01600
C 	C 	0.83500 0.28610 0.03970 -0.10600
H 	H 	0.89000 0.31700 0.02340 0.08400
C 	C 	0.71990 0.25180 0.96450 0.08600
H 	H 	0.69630 0.25930 0.89690 -0.00600
C 	C 	0.63950 0.20660 0.98840 -0.24500
C 	C 	0.67420 0.19570 0.08740 0.08000
H 	H 	0.61920 0.16480 0.10360 -0.00500
C 	C 	0.78920 0.23000 0.16250 -0.10300
H 	H 	0.81290 0.22260 0.23020 0.08200
C 	C 	0.36000 0.33900 0.55200 0.37200
C 	C 	0.39440 0.29950 0.63850 -0.04300
C 	C 	0.34950 0.31600 0.71570 -0.06900
H 	H 	0.30010 0.35550 0.71680 0.06400
C 	C 	0.37690 0.27480 0.79110 0.06100
H 	H 	0.34620 0.28610 0.84390 0.00200
C 	C 	0.44920 0.21710 0.78940 -0.23900
C 	C 	0.49410 0.20060 0.71230 0.06300
H 	H 	0.54360 0.16110 0.71110 -0.00200
C 	C 	0.46670 0.24180 0.63680 -0.06800
H 	H 	0.49740 0.23050 0.58410 0.06600
C 	C 	0.32910 0.62510 0.55300 0.34400
C 	C 	0.35970 0.75300 0.62760 -0.04000
C 	C 	0.47460 0.82310 0.70780 -0.07100
H 	H 	0.52950 0.79020 0.71140 0.06600
C 	C 	0.50920 0.94140 0.78290 0.06100
H 	H 	0.58780 0.98930 0.83770 0.00400
C 	C 	0.42890 0.98950 0.77770 -0.24200
C 	C 	0.31390 0.91940 0.69740 0.06500
H 	H 	0.25900 0.95230 0.69390 -0.00100
C 	C 	0.27930 0.80120 0.62240 -0.07500
H 	H 	0.20080 0.75320 0.56760 0.07000
Mn	Mn	0.50000 0.50000 0.50000 1.30700
