data_crystal

_cell_length_a 13.73600
_cell_length_b 22.64000
_cell_length_c 23.01000
_cell_angle_alpha 65.02600
_cell_angle_beta  75.11800
_cell_angle_gamma 87.59100

_symmetry_space_group_name_	'P 1'
_symmetry_space_group_name_H-M	'P 1'

loop_
_symmetry_equiv_pos_as_xyz
  x,y,z

loop_
_atom_site_label
_atom_site_type_symbol
_atom_site_fract_x
_atom_site_fract_y
_atom_site_fract_z
_atom_site_charge
Mn	Mn	0.04356 0.75145 0.34270 1.30800
O 	O 	0.00680 0.76600 0.42640 -0.47400
O 	O 	0.08960 0.84450 0.27420 -0.45800
O 	O 	0.90180 0.73490 0.33120 -0.56800
O 	O 	0.95160 0.64610 0.39640 -0.36400
O 	O 	0.17070 0.70570 0.35990 -0.42800
C 	C 	0.95090 0.80920 0.43200 0.38400
C 	C 	0.03070 0.88160 0.24470 0.33100
Mn	Mn	0.82175 0.82402 0.33290 1.31900
O 	O 	0.89760 0.84080 0.39370 -0.45800
C 	C 	0.95300 0.82730 0.48790 -0.04000
O 	O 	0.94000 0.87310 0.24970 -0.44200
C 	C 	0.08300 0.95010 0.19460 -0.00500
O 	O 	0.71080 0.76350 0.41400 -0.48100
O 	O 	0.73900 0.91470 0.32760 -0.53700
O 	O 	0.73120 0.82280 0.27070 -0.46500
C 	C 	0.90760 0.88260 0.49020 -0.07800
C 	C 	0.99220 0.78600 0.53970 -0.05900
C 	C 	0.04080 0.98440 0.14200 -0.12900
C 	C 	0.16360 0.97890 0.20200 -0.09300
C 	C 	0.62190 0.75110 0.43510 0.38300
Mn	Mn	0.58951 0.88790 0.33595 1.30900
H 	H 	0.88080 0.91080 0.45480 0.07400
C 	C 	0.90140 0.89650 0.54430 0.07900
C 	C 	0.98600 0.80000 0.59380 0.09500
H 	H 	0.02330 0.74820 0.53820 0.05700
H 	H 	0.98580 0.96470 0.13700 0.09700
C 	C 	0.07910 0.04760 0.09690 0.08200
C 	C 	0.20180 0.04220 0.15690 0.07100
H 	H 	0.19240 0.95550 0.23790 0.07500
O 	O 	0.55620 0.79610 0.41260 -0.43300
C 	C 	0.57250 0.69030 0.48820 -0.06800
O 	O 	0.43430 0.90740 0.35900 -0.39600
O 	O 	0.53320 0.99640 0.28590 -0.32300
O 	O 	0.61810 0.89070 0.24410 -0.44300
H 	H 	0.87030 0.93430 0.54580 -0.00500
C 	C 	0.94060 0.85520 0.59610 -0.26500
H 	H 	0.01280 0.77170 0.62920 -0.02100
H 	H 	0.05020 0.07110 0.06100 -0.01800
C 	C 	0.15960 0.07650 0.10430 -0.24300
H 	H 	0.25690 0.06190 0.16190 -0.00000
C 	C 	0.63450 0.63950 0.50850 -0.05400
C 	C 	0.46870 0.67970 0.51630 -0.05500
C 	C 	0.44790 0.96500 0.32300 0.27700
Si	Si	0.92440 0.87244 0.67140 0.77800
Si	Si	0.20900 0.16210 0.03870 0.66000
H 	H 	0.70540 0.64670 0.48930 0.06400
C 	C 	0.59260 0.57810 0.55690 0.05200
C 	C 	0.42690 0.61830 0.56470 0.05900
H 	H 	0.42640 0.71440 0.50250 0.06600
C 	C 	0.35770 0.00680 0.31900 0.01300
C 	C 	0.81100 0.92100 0.67940 -0.27900
C 	C 	0.03670 0.92280 0.66390 -0.26500
C 	C 	0.90470 0.79130 0.74490 -0.27100
C 	C 	0.10950 0.22210 0.03710 -0.17200
C 	C 	0.24140 0.15500 0.95620 -0.18900
C 	C 	0.32570 0.18940 0.05170 -0.24200
H 	H 	0.63500 0.54340 0.57080 0.00700
C 	C 	0.48880 0.56760 0.58500 -0.23900
H 	H 	0.35600 0.61110 0.58390 -0.00100
C 	C 	0.26280 0.97550 0.35660 -0.10800
C 	C 	0.36830 0.07420 0.28220 -0.10900
C 	C 	0.82160 0.98840 0.64260 0.09800
C 	C 	0.71600 0.88970 0.71700 0.10300
C 	C 	0.02680 0.95340 0.70620 0.05000
C 	C 	0.12490 0.93430 0.61350 0.07600
C 	C 	0.82840 0.74640 0.75570 0.07500
C 	C 	0.97190 0.77320 0.78440 0.09100
C 	C 	0.14380 0.28780 0.00330 -0.05800
C 	C 	0.00650 0.20420 0.06050 -0.04700
C 	C 	0.19530 0.19450 0.90740 0.02100
C 	C 	0.30900 0.11130 0.94450 0.03000
C 	C 	0.32010 0.20150 0.10690 0.07700
C 	C 	0.41770 0.19910 0.00480 0.05400
Si	Si	0.43920 0.48496 0.65610 0.73100
H 	H 	0.25550 0.92940 0.38170 0.08400
H 	H 	0.43320 0.09570 0.25650 0.08900
H 	H 	0.88640 0.00980 0.61690 -0.00800
H 	H 	0.70880 0.84360 0.74210 -0.01600
C 	C 	0.10520 0.99550 0.69790 -0.06500
H 	H 	0.96650 0.94550 0.74060 0.01100
H 	H 	0.13170 0.91350 0.58470 -0.00700
C 	C 	0.20330 0.97640 0.60530 -0.07900
C 	C 	0.81930 0.68360 0.80600 -0.07500
H 	H 	0.78250 0.75880 0.72870 -0.00700
H 	H 	0.02410 0.80380 0.77700 -0.01600
C 	C 	0.96280 0.71030 0.83470 -0.05900
C 	C 	0.07490 0.33550 0.99300 0.01500
H 	H 	0.21420 0.30010 0.98730 0.05000
H 	H 	0.98310 0.15930 0.08350 0.05000
C 	C 	0.93760 0.25190 0.05020 0.00700
C 	C 	0.21670 0.19030 0.84690 -0.02800
H 	H 	0.14910 0.22430 0.91550 0.01900
H 	H 	0.34060 0.08430 0.97790 0.01800
C 	C 	0.33050 0.10720 0.88400 -0.03400
C 	C 	0.40650 0.22330 0.11510 -0.10300
H 	H 	0.25720 0.19480 0.13890 -0.00800
H 	H 	0.42150 0.19080 0.96710 0.01400
C 	C 	0.50410 0.22090 0.01310 -0.12200
C 	C 	0.37920 0.49380 0.73380 -0.25700
C 	C 	0.34510 0.43880 0.63960 -0.24600
C 	C 	0.55270 0.43420 0.66580 -0.24900
C 	C 	0.19350 0.00700 0.64750 -0.04000
H 	H 	0.09850 0.01630 0.72680 0.06000
H 	H 	0.26360 0.98430 0.57080 0.07500
C 	C 	0.88660 0.66550 0.84560 -0.05000
H 	H 	0.76720 0.65290 0.81340 0.05700
H 	H 	0.00880 0.69800 0.86170 0.06000
C 	C 	0.97180 0.31760 0.01640 -0.08300
H 	H 	0.09830 0.38040 0.97000 0.03400
H 	H 	0.86710 0.23960 0.06620 0.05700
C 	C 	0.28440 0.14670 0.83520 -0.09000
H 	H 	0.18520 0.21730 0.81360 0.05000
H 	H 	0.37670 0.07730 0.87600 0.05900
C 	C 	0.49850 0.23300 0.06820 0.00800
H 	H 	0.40260 0.23150 0.15280 0.07400
H 	H 	0.56690 0.22760 0.98100 0.09700
C 	C 	0.42560 0.53360 0.75270 0.06800
C 	C 	0.28570 0.46090 0.77260 0.06400
C 	C 	0.33490 0.37110 0.67430 0.06700
C 	C 	0.27800 0.47060 0.60230 0.06700
C 	C 	0.59270 0.41170 0.61770 0.07300
C 	C 	0.59380 0.41790 0.71940 0.07800
C 	C 	0.27750 0.05380 0.63760 0.34800
C 	C 	0.87560 0.59620 0.89920 0.38200
C 	C 	0.89390 0.36960 0.00370 0.33400
C 	C 	0.31320 0.14400 0.77210 0.38100
C 	C 	0.59420 0.25680 0.07540 0.25600
C 	C 	0.37870 0.54050 0.81050 -0.07000
H 	H 	0.48950 0.55620 0.72620 -0.00600
H 	H 	0.25390 0.43370 0.75970 -0.00200
C 	C 	0.23870 0.46770 0.83040 -0.06900
C 	C 	0.25770 0.33530 0.67180 -0.07900
H 	H 	0.38080 0.34940 0.69980 -0.00100
H 	H 	0.28500 0.51680 0.57850 -0.00500
C 	C 	0.20080 0.43470 0.59980 -0.07400
C 	C 	0.67400 0.37280 0.62310 -0.08300
H 	H 	0.56460 0.42280 0.58110 -0.00600
H 	H 	0.56650 0.43330 0.75230 -0.00900
C 	C 	0.67510 0.37900 0.72490 -0.09100
O 	O 	0.35750 0.06010 0.59730 -0.34800
O 	O 	0.95870 0.57890 0.91910 -0.41400
O 	O 	0.80390 0.56010 0.91360 -0.50600
O 	O 	0.92750 0.42820 0.98080 -0.51900
O 	O 	0.80520 0.35180 0.01850 -0.39200
O 	O 	0.66850 0.27650 0.02280 -0.23300
O 	O 	0.58950 0.26250 0.12700 -0.22900
C 	C 	0.28520 0.50750 0.84930 -0.05500
H 	H 	0.41040 0.56760 0.82350 0.06200
H 	H 	0.17480 0.44520 0.85690 0.05900
C 	C 	0.19060 0.36710 0.63450 -0.04200
H 	H 	0.25070 0.28900 0.69560 0.06700
H 	H 	0.15500 0.45650 0.57430 0.07000
C 	C 	0.71510 0.35640 0.67670 -0.01600
H 	H 	0.70130 0.35730 0.59020 0.07800
H 	H 	0.70320 0.36780 0.76150 0.07100
Mn	Mn	0.77215 0.45925 0.96885 1.25400
C 	C 	0.22710 0.51530 0.91090 0.39100
C 	C 	0.10530 0.32310 0.63710 0.37800
C 	C 	0.80360 0.31390 0.68430 0.33700
O 	O 	0.72190 0.46010 0.06240 -0.45900
O 	O 	0.86000 0.50280 0.06490 -0.47100
O 	O 	0.84560 0.30180 0.72690 -0.34500
Mn	Mn	0.95644 0.24855 0.65730 1.31800
O 	O 	0.99320 0.23400 0.57360 -0.43700
O 	O 	0.91040 0.15550 0.72580 -0.46200
O 	O 	0.09820 0.26510 0.66880 -0.57700
O 	O 	0.04840 0.35390 0.60360 -0.37900
O 	O 	0.82930 0.29430 0.64010 -0.42200
C 	C 	0.04910 0.19080 0.56800 0.33900
C 	C 	0.96930 0.11840 0.75530 0.38400
Mn	Mn	0.17825 0.17598 0.66710 1.31800
O 	O 	0.10240 0.15920 0.60630 -0.45200
C 	C 	0.04700 0.17270 0.51210 -0.02200
O 	O 	0.06000 0.12690 0.75030 -0.47300
C 	C 	0.91700 0.04990 0.80540 -0.03600
O 	O 	0.28920 0.23650 0.58600 -0.48200
O 	O 	0.26100 0.08530 0.67240 -0.53900
O 	O 	0.26880 0.17720 0.72930 -0.46700
C 	C 	0.09240 0.11740 0.50980 -0.08700
C 	C 	0.00780 0.21400 0.46030 -0.10300
C 	C 	0.95920 0.01560 0.85800 -0.05000
C 	C 	0.83640 0.02110 0.79800 -0.07400
C 	C 	0.37810 0.24890 0.56490 0.38300
Mn	Mn	0.41049 0.11210 0.66405 1.31000
H 	H 	0.11920 0.08920 0.54520 0.07500
C 	C 	0.09860 0.10350 0.45570 0.07200
C 	C 	0.01400 0.20000 0.40620 0.05300
H 	H 	0.97670 0.25180 0.46180 0.09100
H 	H 	0.01420 0.03530 0.86300 0.05500
C 	C 	0.92090 0.95240 0.90310 0.06200
C 	C 	0.79820 0.95780 0.84310 0.07100
H 	H 	0.80760 0.04450 0.76210 0.07100
O 	O 	0.44380 0.20390 0.58740 -0.43200
C 	C 	0.42750 0.30970 0.51180 -0.06900
O 	O 	0.56570 0.09260 0.64100 -0.39400
O 	O 	0.46680 0.00360 0.71410 -0.32200
O 	O 	0.38190 0.10930 0.75590 -0.44400
H 	H 	0.12970 0.06570 0.45420 -0.00500
C 	C 	0.05940 0.14480 0.40390 -0.24800
H 	H 	0.98720 0.22830 0.37080 0.01600
H 	H 	0.94980 0.92890 0.93900 0.00500
C 	C 	0.84040 0.92350 0.89570 -0.25200
H 	H 	0.74310 0.93810 0.83810 -0.00000
C 	C 	0.36550 0.36050 0.49150 -0.05400
C 	C 	0.53130 0.32030 0.48370 -0.05500
C 	C 	0.55210 0.03500 0.67700 0.27500
Si	Si	0.07560 0.12756 0.32860 0.72600
Si	Si	0.79100 0.83790 0.96130 0.78700
H 	H 	0.29460 0.35330 0.51070 0.06200
C 	C 	0.40740 0.42190 0.44310 0.05100
C 	C 	0.57310 0.38170 0.43530 0.05900
H 	H 	0.57360 0.28560 0.49750 0.06700
C 	C 	0.64230 0.99320 0.68100 0.01900
C 	C 	0.18900 0.07900 0.32060 -0.26400
C 	C 	0.96330 0.07720 0.33610 -0.25300
C 	C 	0.09530 0.20870 0.25510 -0.24800
C 	C 	0.89050 0.77790 0.96290 -0.32300
C 	C 	0.75860 0.84500 0.04380 -0.25900
C 	C 	0.67430 0.81060 0.94830 -0.28600
H 	H 	0.36500 0.45660 0.42920 0.00500
C 	C 	0.51120 0.43240 0.41500 -0.23900
H 	H 	0.64400 0.38890 0.41610 0.00000
C 	C 	0.73720 0.02450 0.64340 -0.11500
C 	C 	0.63170 0.92580 0.71780 -0.11600
C 	C 	0.17840 0.01160 0.35740 0.08700
C 	C 	0.28400 0.11030 0.28300 0.09400
C 	C 	0.97320 0.04660 0.29380 0.11000
C 	C 	0.87510 0.06570 0.38650 0.07800
C 	C 	0.17160 0.25360 0.24430 0.06100
C 	C 	0.02810 0.22680 0.21560 0.04300
C 	C 	0.85620 0.71220 0.99670 0.17500
C 	C 	0.99350 0.79580 0.93950 0.17800
C 	C 	0.80470 0.80550 0.09260 0.06200
C 	C 	0.69100 0.88870 0.05550 0.07100
C 	C 	0.67990 0.79850 0.89310 0.10400
C 	C 	0.58230 0.80090 0.99520 0.11800
Si	Si	0.56080 0.51504 0.34390 0.73100
H 	H 	0.74450 0.07060 0.61830 0.08900
H 	H 	0.56680 0.90430 0.74350 0.09200
H 	H 	0.11360 0.99020 0.38310 -0.01200
H 	H 	0.29120 0.15640 0.25790 -0.01200
C 	C 	0.89480 0.00450 0.30210 -0.09500
H 	H 	0.03350 0.05450 0.25940 -0.02600
H 	H 	0.86830 0.08650 0.41530 -0.00100
C 	C 	0.79670 0.02360 0.39470 -0.08600
C 	C 	0.18070 0.31640 0.19400 -0.07100
H 	H 	0.21750 0.24120 0.27130 -0.00300
H 	H 	0.97590 0.19620 0.22300 0.02000
C 	C 	0.03720 0.28970 0.16530 -0.08900
C 	C 	0.92510 0.66450 0.00700 -0.17000
H 	H 	0.78580 0.69990 0.01270 -0.05200
H 	H 	0.01690 0.84070 0.91650 -0.04500
C 	C 	0.06240 0.74810 0.94980 -0.16800
C 	C 	0.78330 0.80970 0.15310 -0.05800
H 	H 	0.85090 0.77570 0.08450 -0.00200
H 	H 	0.65940 0.91570 0.02210 -0.00700
C 	C 	0.66950 0.89280 0.11600 -0.06500
C 	C 	0.59350 0.77670 0.88490 -0.11400
H 	H 	0.74280 0.80520 0.86110 -0.01700
H 	H 	0.57850 0.80920 0.03290 -0.02800
C 	C 	0.49590 0.77910 0.98690 -0.09400
C 	C 	0.62080 0.50620 0.26620 -0.25700
C 	C 	0.65490 0.56120 0.36040 -0.24600
C 	C 	0.44730 0.56580 0.33420 -0.24900
C 	C 	0.80650 0.99300 0.35250 -0.02600
H 	H 	0.90150 0.98370 0.27320 0.07700
H 	H 	0.73640 0.01570 0.42920 0.07700
C 	C 	0.11340 0.33450 0.15440 -0.04900
H 	H 	0.23280 0.34710 0.18660 0.05300
H 	H 	0.99120 0.30200 0.13830 0.09000
C 	C 	0.02820 0.68240 0.98360 0.02800
H 	H 	0.90170 0.61960 0.03000 0.09300
H 	H 	0.13290 0.76040 0.93380 0.11400
C 	C 	0.71560 0.85330 0.16480 -0.06900
H 	H 	0.81480 0.78270 0.18640 0.06000
H 	H 	0.62330 0.92270 0.12400 0.06700
C 	C 	0.50150 0.76700 0.93180 0.00800
H 	H 	0.59740 0.76850 0.84720 0.07800
H 	H 	0.43310 0.77240 0.01900 0.06200
C 	C 	0.57440 0.46640 0.24730 0.06700
C 	C 	0.71430 0.53910 0.22740 0.06400
C 	C 	0.66510 0.62890 0.32570 0.06800
C 	C 	0.72200 0.52940 0.39770 0.07000
C 	C 	0.40730 0.58830 0.38230 0.07100
C 	C 	0.40620 0.58210 0.28060 0.07500
C 	C 	0.72250 0.94620 0.36240 0.34300
C 	C 	0.12440 0.40380 0.10080 0.37900
C 	C 	0.10610 0.63040 0.99630 0.33400
C 	C 	0.68680 0.85600 0.22790 0.37200
C 	C 	0.40580 0.74320 0.92460 0.25900
C 	C 	0.62130 0.45950 0.18950 -0.06900
H 	H 	0.51050 0.44380 0.27380 -0.00600
H 	H 	0.74610 0.56630 0.24030 -0.00000
C 	C 	0.76130 0.53230 0.16960 -0.06800
C 	C 	0.74230 0.66470 0.32820 -0.08100
H 	H 	0.61920 0.65060 0.30020 -0.00200
H 	H 	0.71500 0.48320 0.42150 -0.00400
C 	C 	0.79920 0.56530 0.40020 -0.07600
C 	C 	0.32600 0.62720 0.37690 -0.08200
H 	H 	0.43540 0.57720 0.41890 -0.00500
H 	H 	0.43350 0.56670 0.24770 -0.01100
C 	C 	0.32490 0.62100 0.27510 -0.08900
O 	O 	0.64250 0.93990 0.40270 -0.34600
O 	O 	0.04130 0.42110 0.08090 -0.43700
O 	O 	0.19610 0.43990 0.08640 -0.51600
O 	O 	0.07250 0.57180 0.01920 -0.55600
O 	O 	0.19480 0.64820 0.98150 -0.38500
O 	O 	0.33150 0.72350 0.97720 -0.22500
O 	O 	0.41050 0.73750 0.87300 -0.22900
C 	C 	0.71480 0.49250 0.15070 -0.05700
H 	H 	0.58960 0.43240 0.17650 0.06000
H 	H 	0.82520 0.55480 0.14310 0.05900
C 	C 	0.80940 0.63290 0.36550 -0.03800
H 	H 	0.74930 0.71100 0.30440 0.06700
H 	H 	0.84500 0.54350 0.42570 0.07500
C 	C 	0.28490 0.64360 0.32330 -0.02100
H 	H 	0.29870 0.64270 0.40980 0.07600
H 	H 	0.29680 0.63220 0.23850 0.06500
Mn	Mn	0.22785 0.54075 0.03115 1.24200
C 	C 	0.77290 0.48470 0.08910 0.39100
C 	C 	0.89470 0.67690 0.36290 0.37600
C 	C 	0.19640 0.68610 0.31570 0.33800
O 	O 	0.27810 0.53990 0.93760 -0.44700
O 	O 	0.14000 0.49720 0.93510 -0.46600
O 	O 	0.15440 0.69820 0.27310 -0.35600
Mn	Mn	-0.00000 0.50000 -0.00000 1.30800
