data_crystal

_cell_length_a 9.26300
_cell_length_b 10.35370
_cell_length_c 13.02010
_cell_angle_alpha 80.84410
_cell_angle_beta  69.16270
_cell_angle_gamma 63.42760

_symmetry_space_group_name_	'P 1'
_symmetry_space_group_name_H-M	'P 1'

loop_
_symmetry_equiv_pos_as_xyz
  x,y,z

loop_
_atom_site_label
_atom_site_type_symbol
_atom_site_fract_x
_atom_site_fract_y
_atom_site_fract_z
_atom_site_charge
Co	Co	0.89665 0.08794 0.36996 1.11200
Co	Co	0.35455 0.91206 0.63004 1.10400
Co	Co	0.01661 0.58794 0.13004 1.07700
Co	Co	0.73459 0.41206 0.86996 1.10600
H 	H 	0.73890 0.12580 0.64540 -0.01300
H 	H 	0.60510 0.99960 0.43900 -0.05700
H 	H 	0.06690 0.77620 0.26860 -0.10500
H 	H 	0.73660 0.91460 0.10740 -0.00200
H 	H 	0.70020 0.12340 0.19880 0.01200
H 	H 	0.51010 0.87420 0.35460 -0.01800
H 	H 	0.04370 0.00040 0.56100 -0.08900
H 	H 	0.11170 0.22380 0.73140 -0.04300
H 	H 	0.75860 0.08540 0.89260 -0.01800
H 	H 	0.02240 0.87660 0.80120 0.01200
H 	H 	0.13430 0.62580 0.85460 0.00000
H 	H 	0.79410 0.49960 0.06100 -0.06800
H 	H 	0.08550 0.27620 0.23140 -0.10100
H 	H 	0.59400 0.41460 0.39260 -0.00100
H 	H 	0.64900 0.62340 0.30120 0.00300
H 	H 	0.61470 0.37420 0.14540 -0.01900
H 	H 	0.35470 0.50040 0.93900 -0.07000
H 	H 	0.59310 0.72380 0.76860 -0.04200
H 	H 	0.40120 0.58540 0.60740 -0.00200
H 	H 	0.57360 0.37660 0.69880 0.00200
C 	C 	0.68020 0.09300 0.61540 0.07200
C 	C 	0.61210 0.02220 0.50520 0.11600
C 	C 	0.51300 0.00580 0.60200 -0.29000
C 	C 	0.97880 0.83880 0.23800 0.16900
C 	C 	0.80090 0.91120 0.15240 0.02600
C 	C 	0.78150 0.02560 0.20220 -0.04400
C 	C 	0.38860 0.90700 0.38460 0.06900
C 	C 	0.13950 0.97780 0.49480 0.14800
C 	C 	0.12080 0.99420 0.39800 -0.31900
C 	C 	0.05560 0.16120 0.76200 0.03400
C 	C 	0.86450 0.08880 0.84760 0.06100
C 	C 	0.00930 0.97440 0.79780 -0.07300
C 	C 	0.04560 0.59300 0.88460 -0.01400
C 	C 	0.86730 0.52220 0.99480 0.13800
C 	C 	0.86500 0.50580 0.89800 -0.28100
C 	C 	0.96680 0.33880 0.26200 0.15800
C 	C 	0.70330 0.41120 0.34760 -0.00300
C 	C 	0.73370 0.52560 0.29780 -0.00900
C 	C 	0.52320 0.40700 0.11540 0.06900
C 	C 	0.38430 0.47780 0.00520 0.13000
C 	C 	0.26880 0.49420 0.10200 -0.30200
C 	C 	0.56760 0.66120 0.73800 0.08000
C 	C 	0.46210 0.58880 0.65240 -0.00400
C 	C 	0.55710 0.47440 0.70220 -0.00700
N 	N 	0.71740 0.06920 0.50700 -0.28800
N 	N 	0.55060 0.05620 0.67660 -0.10500
N 	N 	0.89210 0.98060 0.25960 -0.27000
N 	N 	0.92840 0.79140 0.17360 -0.28100
N 	N 	0.29360 0.93080 0.49300 -0.29800
N 	N 	0.28340 0.94380 0.32340 -0.10300
N 	N 	0.13230 0.01940 0.74040 -0.26500
N 	N 	0.89340 0.20860 0.82640 -0.26200
N 	N 	0.97440 0.56920 0.99300 -0.25500
N 	N 	0.97720 0.55620 0.82340 -0.06700
N 	N 	0.90170 0.48060 0.24040 -0.27500
N 	N 	0.85200 0.29140 0.32640 -0.28500
N 	N 	0.53660 0.43080 0.00700 -0.29400
N 	N 	0.35680 0.44380 0.17660 -0.10700
N 	N 	0.62270 0.51940 0.75960 -0.27300
N 	N 	0.46980 0.70860 0.67360 -0.27600
