data_crystal

_cell_length_a 10.71700
_cell_length_b 23.11400
_cell_length_c 10.07000
_cell_angle_alpha 90.00000
_cell_angle_beta  104.78000
_cell_angle_gamma 90.00000

_symmetry_space_group_name_	'P 1'
_symmetry_space_group_name_H-M	'P 1'

loop_
_symmetry_equiv_pos_as_xyz
  x,y,z

loop_
_atom_site_label
_atom_site_type_symbol
_atom_site_fract_x
_atom_site_fract_y
_atom_site_fract_z
_atom_site_charge
O 	O 	0.66037 0.29437 0.85179 -0.54400
H 	H 	0.68980 0.26840 0.81340 0.34300
O 	O 	0.53768 0.22272 0.89666 -0.51300
O 	O 	0.28116 0.26207 0.22534 -0.31800
O 	O 	0.18511 0.34815 0.21614 -0.53700
C 	C 	0.57446 0.27385 0.90520 0.48200
C 	C 	0.51144 0.31618 0.97960 -0.10800
C 	C 	0.53437 0.37478 0.97050 0.02200
H 	H 	0.59370 0.38740 0.92350 0.05400
C 	C 	0.46927 0.41508 0.03100 -0.01500
C 	C 	0.36087 0.33673 0.11449 -0.11400
C 	C 	0.42568 0.29741 0.05260 0.04500
H 	H 	0.41150 0.25800 0.06010 0.04200
C 	C 	0.38155 0.39562 0.10280 -0.00600
H 	H 	0.33700 0.42220 0.14280 0.03000
C 	C 	0.26716 0.31539 0.19150 0.39500
C 	C 	0.49003 0.47529 0.01180 -0.05100
O 	O 	0.16037 0.79437 0.85179 -0.57100
H 	H 	0.18980 0.76840 0.81340 0.34200
O 	O 	0.03768 0.72272 0.89666 -0.56100
O 	O 	0.78116 0.76207 0.22534 -0.30300
O 	O 	0.68511 0.84815 0.21614 -0.51600
C 	C 	0.07446 0.77385 0.90520 0.50800
C 	C 	0.01144 0.81618 0.97960 -0.21900
C 	C 	0.03437 0.87478 0.97050 -0.01300
H 	H 	0.09370 0.88740 0.92350 0.04300
C 	C 	0.96927 0.91508 0.03100 -0.00200
C 	C 	0.86087 0.83673 0.11449 -0.14800
C 	C 	0.92568 0.79741 0.05260 0.18800
H 	H 	0.91150 0.75800 0.06010 0.01800
C 	C 	0.88155 0.89562 0.10280 0.03800
H 	H 	0.83700 0.92220 0.14280 0.03100
C 	C 	0.76716 0.81539 0.19150 0.41400
C 	C 	0.99003 0.97529 0.01180 0.10500
O 	O 	0.33963 0.29437 0.64821 -0.56000
H 	H 	0.31020 0.26840 0.68660 0.34200
O 	O 	0.46232 0.22272 0.60334 -0.52100
O 	O 	0.71884 0.26207 0.27466 -0.30300
O 	O 	0.81489 0.34815 0.28386 -0.48900
C 	C 	0.42554 0.27385 0.59480 0.49000
C 	C 	0.48856 0.31618 0.52040 -0.13300
C 	C 	0.46563 0.37478 0.52950 0.01600
H 	H 	0.40630 0.38740 0.57650 0.04400
C 	C 	0.53073 0.41508 0.46900 -0.00900
C 	C 	0.63913 0.33673 0.38551 -0.11000
C 	C 	0.57432 0.29741 0.44740 0.07600
H 	H 	0.58850 0.25800 0.43990 0.03900
C 	C 	0.61845 0.39562 0.39720 0.00300
H 	H 	0.66300 0.42220 0.35720 0.04100
C 	C 	0.73284 0.31539 0.30850 0.39700
C 	C 	0.50997 0.47529 0.48820 -0.01700
O 	O 	0.83963 0.79437 0.64821 -0.53400
H 	H 	0.81020 0.76840 0.68660 0.34200
O 	O 	0.96232 0.72272 0.60334 -0.46900
O 	O 	0.21884 0.76207 0.27466 -0.31800
O 	O 	0.31489 0.84815 0.28386 -0.51300
C 	C 	0.92554 0.77385 0.59480 0.46200
C 	C 	0.98856 0.81618 0.52040 -0.02000
C 	C 	0.96563 0.87478 0.52950 0.05400
H 	H 	0.90630 0.88740 0.57650 0.05400
C 	C 	0.03073 0.91508 0.46900 -0.02700
C 	C 	0.13913 0.83673 0.38551 -0.07700
C 	C 	0.07432 0.79741 0.44740 -0.06800
H 	H 	0.08850 0.75800 0.43990 0.06400
C 	C 	0.11845 0.89562 0.39720 -0.04000
H 	H 	0.16300 0.92220 0.35720 0.03900
C 	C 	0.23284 0.81539 0.30850 0.37900
C 	C 	0.00997 0.97529 0.48820 -0.16500
O 	O 	0.33963 0.70563 0.14821 -0.56600
H 	H 	0.31020 0.73160 0.18660 0.34100
O 	O 	0.46232 0.77728 0.10334 -0.52800
O 	O 	0.71884 0.73793 0.77466 -0.29900
O 	O 	0.81489 0.65185 0.78386 -0.48600
C 	C 	0.42554 0.72615 0.09480 0.49500
C 	C 	0.48856 0.68382 0.02040 -0.15700
C 	C 	0.46563 0.62522 0.02950 0.00700
H 	H 	0.40630 0.61260 0.07650 0.04200
C 	C 	0.53073 0.58492 0.96900 -0.00600
C 	C 	0.63913 0.66327 0.88551 -0.11800
C 	C 	0.57432 0.70259 0.94740 0.10600
H 	H 	0.58850 0.74200 0.93990 0.03500
C 	C 	0.61845 0.60438 0.89720 0.01000
H 	H 	0.66300 0.57780 0.85720 0.04100
C 	C 	0.73284 0.68461 0.80850 0.40100
C 	C 	0.50997 0.52471 0.98820 0.01500
O 	O 	0.83963 0.20563 0.14821 -0.54000
H 	H 	0.81020 0.23160 0.18660 0.34200
O 	O 	0.96232 0.27728 0.10334 -0.47600
O 	O 	0.21884 0.23793 0.77466 -0.31300
O 	O 	0.31489 0.15185 0.78386 -0.51000
C 	C 	0.92554 0.22615 0.09480 0.46700
C 	C 	0.98856 0.18382 0.02040 -0.04300
C 	C 	0.96563 0.12522 0.02950 0.04200
H 	H 	0.90630 0.11260 0.07650 0.05300
C 	C 	0.03073 0.08492 0.96900 -0.01900
C 	C 	0.13913 0.16327 0.88551 -0.08400
C 	C 	0.07432 0.20259 0.94740 -0.03800
H 	H 	0.08850 0.24200 0.93990 0.06000
C 	C 	0.11845 0.10438 0.89720 -0.03400
H 	H 	0.16300 0.07780 0.85720 0.03900
C 	C 	0.23284 0.18461 0.80850 0.38300
C 	C 	0.00997 0.02471 0.98820 -0.14000
O 	O 	0.66037 0.70563 0.35179 -0.55100
H 	H 	0.68980 0.73160 0.31340 0.34200
O 	O 	0.53768 0.77728 0.39666 -0.51900
O 	O 	0.28116 0.73793 0.72534 -0.31300
O 	O 	0.18511 0.65185 0.71614 -0.53300
C 	C 	0.57446 0.72615 0.40520 0.48700
C 	C 	0.51144 0.68382 0.47960 -0.13100
C 	C 	0.53437 0.62522 0.47050 0.01300
H 	H 	0.59370 0.61260 0.42350 0.05200
C 	C 	0.46927 0.58492 0.53100 -0.01200
C 	C 	0.36087 0.66327 0.61449 -0.12100
C 	C 	0.42568 0.70259 0.55260 0.07500
H 	H 	0.41150 0.74200 0.56010 0.03900
C 	C 	0.38155 0.60438 0.60280 0.00100
H 	H 	0.33700 0.57780 0.64280 0.03000
C 	C 	0.26716 0.68461 0.69150 0.40000
C 	C 	0.49003 0.52471 0.51180 -0.01900
O 	O 	0.16037 0.20563 0.35179 -0.57700
H 	H 	0.18980 0.23160 0.31340 0.34100
O 	O 	0.03768 0.27728 0.39666 -0.56800
O 	O 	0.78116 0.23793 0.72534 -0.29900
O 	O 	0.68511 0.15185 0.71614 -0.51300
C 	C 	0.07446 0.22615 0.40520 0.51400
C 	C 	0.01144 0.18382 0.47960 -0.24300
C 	C 	0.03437 0.12522 0.47050 -0.02600
H 	H 	0.09370 0.11260 0.42350 0.04200
C 	C 	0.96927 0.08492 0.53100 0.00600
C 	C 	0.86087 0.16327 0.61449 -0.15500
C 	C 	0.92568 0.20259 0.55260 0.21900
H 	H 	0.91150 0.24200 0.56010 0.01500
C 	C 	0.88155 0.10438 0.60280 0.04300
H 	H 	0.83700 0.07780 0.64280 0.03100
C 	C 	0.76716 0.18461 0.69150 0.41800
C 	C 	0.99003 0.02471 0.51180 0.12900
Mg	Mg	0.50000 0.15786 0.75000 1.46200
Mg	Mg	0.00000 0.65786 0.75000 1.45400
Mg	Mg	0.50000 0.84214 0.25000 1.46100
Mg	Mg	0.00000 0.34214 0.25000 1.45400
