data_crystal

_cell_length_a 8.92060
_cell_length_b 9.25820
_cell_length_c 9.25820
_cell_angle_alpha 76.57920
_cell_angle_beta  61.19900
_cell_angle_gamma 61.19900

_symmetry_space_group_name_	'P 1'
_symmetry_space_group_name_H-M	'P 1'

loop_
_symmetry_equiv_pos_as_xyz
  x,y,z

loop_
_atom_site_label
_atom_site_type_symbol
_atom_site_fract_x
_atom_site_fract_y
_atom_site_fract_z
_atom_site_charge
K 	K 	0.62500 0.75000 0.75000 0.65100
K 	K 	0.37500 0.25000 0.25000 0.65100
Y 	Y 	0.12500 0.75000 0.75000 2.38900
Y 	Y 	0.87500 0.25000 0.25000 2.38900
C 	C 	0.55630 0.52150 0.52570 0.23700
C 	C 	0.10350 0.97850 0.97430 0.21700
C 	C 	0.08200 0.47430 0.02150 0.24800
C 	C 	0.07780 0.02570 0.47850 0.24800
C 	C 	0.44370 0.47850 0.47430 0.23700
C 	C 	0.89650 0.02150 0.02570 0.21700
C 	C 	0.91800 0.52570 0.97850 0.24800
C 	C 	0.92220 0.97430 0.52150 0.24800
O 	O 	0.46300 0.62710 0.63650 -0.50100
O 	O 	0.18040 0.95150 0.55510 -0.51000
O 	O 	0.22660 0.87290 0.86350 -0.49900
O 	O 	0.18700 0.54850 0.94490 -0.51000
O 	O 	0.09950 0.36350 0.12710 -0.49800
O 	O 	0.73550 0.44490 0.45150 -0.50000
O 	O 	0.09010 0.13650 0.37290 -0.49800
O 	O 	0.13190 0.05510 0.04850 -0.47400
O 	O 	0.53700 0.37290 0.36350 -0.50100
O 	O 	0.81960 0.04850 0.44490 -0.51000
O 	O 	0.77340 0.12710 0.13650 -0.49900
O 	O 	0.81300 0.45150 0.05510 -0.51000
O 	O 	0.90050 0.63650 0.87290 -0.49800
O 	O 	0.26450 0.55510 0.54850 -0.50000
O 	O 	0.90990 0.86350 0.62710 -0.49800
O 	O 	0.86810 0.94490 0.95150 -0.47400
