data_crystal

_cell_length_a 35.95600
_cell_length_b 7.86900
_cell_length_c 8.16400
_cell_angle_alpha 90.00000
_cell_angle_beta  101.80700
_cell_angle_gamma 90.00000

_symmetry_space_group_name_	'P 1'
_symmetry_space_group_name_H-M	'P 1'

loop_
_symmetry_equiv_pos_as_xyz
  x,y,z

loop_
_atom_site_label
_atom_site_type_symbol
_atom_site_fract_x
_atom_site_fract_y
_atom_site_fract_z
_atom_site_charge
O 	O 	0.92832 0.19940 0.09720 -0.33600
O 	O 	0.95352 0.12950 0.88140 -0.41100
C 	C 	0.88715 0.16430 0.83310 0.10400
C 	C 	0.87163 0.30170 0.73220 -0.18300
C 	C 	0.92600 0.16960 0.94790 0.35700
O 	O 	0.87650 0.58040 0.63950 -0.50000
H 	H 	0.89230 0.65080 0.62440 0.33600
C 	C 	0.83166 0.99870 0.72360 0.39500
O 	O 	0.81385 0.84590 0.73110 -0.28800
O 	O 	0.03645 0.18590 0.94020 -0.45400
H 	H 	0.04270 0.16070 0.85220 0.26100
C 	C 	0.86730 0.01430 0.82860 -0.33700
H 	H 	0.87760 0.92340 0.89550 0.21000
C 	C 	0.81598 0.13160 0.62200 -0.36500
H 	H 	0.79230 0.12020 0.55170 0.16600
C 	C 	0.83596 0.28080 0.62640 0.20900
H 	H 	0.82560 0.37020 0.55750 -0.00900
C 	C 	0.89317 0.46210 0.73910 0.44000
O 	O 	0.92334 0.48410 0.83350 -0.23900
C 	C 	0.78154 0.80330 0.61010 0.20000
C 	C 	0.78572 0.71470 0.47320 -0.13000
H 	H 	0.80990 0.69250 0.45450 0.11200
C 	C 	0.74573 0.84250 0.63850 -0.11600
H 	H 	0.74310 0.90630 0.73130 0.09500
O 	O 	0.42832 0.69940 0.09720 -0.33500
O 	O 	0.45352 0.62950 0.88140 -0.41700
C 	C 	0.38715 0.66430 0.83310 0.03900
C 	C 	0.37163 0.80170 0.73220 -0.13500
C 	C 	0.42600 0.66960 0.94790 0.38000
O 	O 	0.37650 0.08040 0.63950 -0.50900
H 	H 	0.39230 0.15080 0.62440 0.33600
C 	C 	0.33166 0.49870 0.72360 0.27000
O 	O 	0.31385 0.34590 0.73110 -0.26100
O 	O 	0.53645 0.68590 0.94020 -0.44400
H 	H 	0.54270 0.66070 0.85220 0.26300
C 	C 	0.36730 0.51430 0.82860 -0.18800
H 	H 	0.37760 0.42340 0.89550 0.14400
C 	C 	0.31598 0.63160 0.62200 -0.25100
H 	H 	0.29230 0.62020 0.55170 0.13300
C 	C 	0.33596 0.78080 0.62640 0.13400
H 	H 	0.32560 0.87020 0.55750 0.02200
C 	C 	0.39317 0.96210 0.73910 0.43600
O 	O 	0.42334 0.98410 0.83350 -0.23700
C 	C 	0.28154 0.30330 0.61010 0.18800
C 	C 	0.28572 0.21470 0.47320 -0.13300
H 	H 	0.30990 0.19250 0.45450 0.10900
C 	C 	0.24573 0.34250 0.63850 -0.11700
H 	H 	0.24310 0.40630 0.73130 0.09000
O 	O 	0.07168 0.80060 0.90280 -0.25300
O 	O 	0.04648 0.87050 0.11860 -0.41100
C 	C 	0.11285 0.83570 0.16690 -0.02600
C 	C 	0.12837 0.69830 0.26780 -0.09200
C 	C 	0.07400 0.83040 0.05210 0.30000
O 	O 	0.12350 0.41960 0.36050 -0.49500
H 	H 	0.10770 0.34920 0.37560 0.32800
C 	C 	0.16834 0.00130 0.27640 0.11400
O 	O 	0.18615 0.15410 0.26890 -0.23800
O 	O 	0.96355 0.81410 0.05980 -0.47700
H 	H 	0.95730 0.83930 0.14780 0.27300
C 	C 	0.13270 0.98570 0.17140 -0.02000
H 	H 	0.12240 0.07660 0.10450 0.04000
C 	C 	0.18402 0.86840 0.37800 -0.11800
H 	H 	0.20770 0.87980 0.44830 0.09200
C 	C 	0.16404 0.71920 0.37360 0.04500
H 	H 	0.17440 0.62980 0.44250 0.04800
C 	C 	0.10683 0.53790 0.26090 0.40300
O 	O 	0.07666 0.51590 0.16650 -0.26300
C 	C 	0.21846 0.19670 0.38990 0.14600
C 	C 	0.21428 0.28530 0.52680 -0.09300
H 	H 	0.19010 0.30750 0.54550 0.09500
C 	C 	0.25427 0.15750 0.36150 -0.07900
H 	H 	0.25690 0.09370 0.26870 0.05700
O 	O 	0.57168 0.30060 0.90280 -0.24800
O 	O 	0.54648 0.37050 0.11860 -0.41400
C 	C 	0.61285 0.33570 0.16690 0.05700
C 	C 	0.62837 0.19830 0.26780 -0.15500
C 	C 	0.57400 0.33040 0.05210 0.26100
O 	O 	0.62350 0.91960 0.36050 -0.48400
H 	H 	0.60770 0.84920 0.37560 0.32800
C 	C 	0.66834 0.50130 0.27640 0.26800
O 	O 	0.68615 0.65410 0.26890 -0.27000
O 	O 	0.46355 0.31410 0.05980 -0.50200
H 	H 	0.45730 0.33930 0.14780 0.27100
C 	C 	0.63270 0.48570 0.17140 -0.21100
H 	H 	0.62240 0.57660 0.10450 0.12700
C 	C 	0.68402 0.36840 0.37800 -0.25800
H 	H 	0.70770 0.37980 0.44830 0.13300
C 	C 	0.66404 0.21920 0.37360 0.13700
H 	H 	0.67440 0.12980 0.44250 0.01100
C 	C 	0.60683 0.03790 0.26090 0.40900
O 	O 	0.57666 0.01590 0.16650 -0.26900
C 	C 	0.71846 0.69670 0.38990 0.16400
C 	C 	0.71428 0.78530 0.52680 -0.09500
H 	H 	0.69010 0.80750 0.54550 0.10000
C 	C 	0.75427 0.65750 0.36150 -0.08300
H 	H 	0.75690 0.59370 0.26870 0.06600
Co	Co	-0.00000 0.00000 -0.00000 1.10800
Co	Co	0.50000 0.50000 -0.00000 1.13300
O 	O 	0.07168 0.19940 0.40280 -0.29900
O 	O 	0.04648 0.12950 0.61860 -0.42000
C 	C 	0.11285 0.16430 0.66690 0.12500
C 	C 	0.12837 0.30170 0.76780 -0.19900
C 	C 	0.07400 0.16960 0.55210 0.29400
O 	O 	0.12350 0.58040 0.86050 -0.49600
H 	H 	0.10770 0.65080 0.87560 0.34000
C 	C 	0.16834 0.99870 0.77640 0.42300
O 	O 	0.18615 0.84590 0.76890 -0.33000
O 	O 	0.96355 0.18590 0.55980 -0.47200
H 	H 	0.95730 0.16070 0.64780 0.26700
C 	C 	0.13270 0.01430 0.67140 -0.36900
H 	H 	0.12240 0.92340 0.60450 0.21200
C 	C 	0.18402 0.13160 0.87800 -0.38400
H 	H 	0.20770 0.12020 0.94830 0.18500
C 	C 	0.16404 0.28080 0.87360 0.23000
H 	H 	0.17440 0.37020 0.94250 -0.00200
C 	C 	0.10683 0.46210 0.76090 0.45000
O 	O 	0.07666 0.48410 0.66650 -0.25900
C 	C 	0.21846 0.80330 0.88990 0.34700
C 	C 	0.21428 0.71470 0.02680 -0.31500
H 	H 	0.19010 0.69250 0.04550 0.16100
C 	C 	0.25427 0.84250 0.86150 -0.25800
H 	H 	0.25690 0.90630 0.76870 0.14000
O 	O 	0.57168 0.69940 0.40280 -0.29500
O 	O 	0.54648 0.62950 0.61860 -0.41600
C 	C 	0.61285 0.66430 0.66690 0.05600
C 	C 	0.62837 0.80170 0.76780 -0.14600
C 	C 	0.57400 0.66960 0.55210 0.32200
O 	O 	0.62350 0.08040 0.86050 -0.50200
H 	H 	0.60770 0.15080 0.87560 0.34000
C 	C 	0.66834 0.49870 0.77640 0.29300
O 	O 	0.68615 0.34590 0.76890 -0.30500
O 	O 	0.46355 0.68590 0.55980 -0.47400
H 	H 	0.45730 0.66070 0.64780 0.26900
C 	C 	0.63270 0.51430 0.67140 -0.20900
H 	H 	0.62240 0.42340 0.60450 0.13900
C 	C 	0.68402 0.63160 0.87800 -0.26600
H 	H 	0.70770 0.62020 0.94830 0.15000
C 	C 	0.66404 0.78080 0.87360 0.15000
H 	H 	0.67440 0.87020 0.94250 0.02900
C 	C 	0.60683 0.96210 0.76090 0.44000
O 	O 	0.57666 0.98410 0.66650 -0.25000
C 	C 	0.71846 0.30330 0.88990 0.34700
C 	C 	0.71428 0.21470 0.02680 -0.33300
H 	H 	0.69010 0.19250 0.04550 0.16200
C 	C 	0.75427 0.34250 0.86150 -0.27000
H 	H 	0.75690 0.40630 0.76870 0.13800
O 	O 	0.92832 0.80060 0.59720 -0.28700
O 	O 	0.95352 0.87050 0.38140 -0.40800
C 	C 	0.88715 0.83570 0.33310 -0.03900
C 	C 	0.87163 0.69830 0.23220 -0.08100
C 	C 	0.92600 0.83040 0.44790 0.35400
O 	O 	0.87650 0.41960 0.13950 -0.49900
H 	H 	0.89230 0.34920 0.12440 0.32400
C 	C 	0.83166 0.00130 0.22360 0.09400
O 	O 	0.81385 0.15410 0.23110 -0.19500
O 	O 	0.03645 0.81410 0.44020 -0.47000
H 	H 	0.04270 0.83930 0.35220 0.26900
C 	C 	0.86730 0.98570 0.32860 -0.00600
H 	H 	0.87760 0.07660 0.39550 0.04900
C 	C 	0.81598 0.86840 0.12200 -0.10500
H 	H 	0.79230 0.87980 0.05170 0.07700
C 	C 	0.83596 0.71920 0.12640 0.03000
H 	H 	0.82560 0.62980 0.05750 0.04000
C 	C 	0.89317 0.53790 0.23910 0.39600
O 	O 	0.92334 0.51590 0.33350 -0.24300
C 	C 	0.78154 0.19670 0.11010 -0.01300
C 	C 	0.78572 0.28530 0.97320 0.10800
H 	H 	0.80990 0.30750 0.95450 0.04100
C 	C 	0.74573 0.15750 0.13850 0.07300
H 	H 	0.74310 0.09370 0.23130 0.00900
O 	O 	0.42832 0.30060 0.59720 -0.29200
O 	O 	0.45352 0.37050 0.38140 -0.42300
C 	C 	0.38715 0.33570 0.33310 0.03900
C 	C 	0.37163 0.19830 0.23220 -0.14100
C 	C 	0.42600 0.33040 0.44790 0.32500
O 	O 	0.37650 0.91960 0.13950 -0.48700
H 	H 	0.39230 0.84920 0.12440 0.32400
C 	C 	0.33166 0.50130 0.22360 0.24500
O 	O 	0.31385 0.65410 0.23110 -0.22900
O 	O 	0.53645 0.31410 0.44020 -0.47800
H 	H 	0.54270 0.33930 0.35220 0.26600
C 	C 	0.36730 0.48570 0.32860 -0.18800
H 	H 	0.37760 0.57660 0.39550 0.13000
C 	C 	0.31598 0.36840 0.12200 -0.24300
H 	H 	0.29230 0.37980 0.05170 0.11500
C 	C 	0.33596 0.21920 0.12640 0.12000
H 	H 	0.32560 0.12980 0.05750 0.00200
C 	C 	0.39317 0.03790 0.23910 0.40000
O 	O 	0.42334 0.01590 0.33350 -0.25400
C 	C 	0.28154 0.69670 0.11010 0.01700
C 	C 	0.28572 0.78530 0.97320 0.09000
H 	H 	0.30990 0.80750 0.95450 0.05000
C 	C 	0.24573 0.65750 0.13850 0.05700
H 	H 	0.24310 0.59370 0.23130 0.02100
Co	Co	-0.00000 0.00000 0.50000 1.13000
Co	Co	0.50000 0.50000 0.50000 1.15200
