data_crystal

_cell_length_a 15.85000
_cell_length_b 10.13570
_cell_length_c 18.50600
_cell_angle_alpha 90.00000
_cell_angle_beta  90.00000
_cell_angle_gamma 90.00000

_symmetry_space_group_name_	'P 1'
_symmetry_space_group_name_H-M	'P 1'

loop_
_symmetry_equiv_pos_as_xyz
  x,y,z

loop_
_atom_site_label
_atom_site_type_symbol
_atom_site_fract_x
_atom_site_fract_y
_atom_site_fract_z
_atom_site_charge
Ga	Ga	0.14981 0.83435 0.17455 2.09200
Ga	Ga	0.95875 0.68495 0.21800 2.10300
Ga	Ga	0.99145 0.65319 0.40553 2.09100
P 	P 	0.31448 0.64991 0.16751 0.67000
P 	P 	0.98471 0.86339 0.07801 0.64900
P 	P 	0.06267 0.87875 0.31458 0.61900
O 	O 	0.23515 0.72670 0.14587 -0.54800
O 	O 	0.07725 0.87740 0.09998 -0.65000
O 	O 	0.14594 0.84650 0.27537 -0.55500
O 	O 	0.29260 0.50250 0.16684 -0.53900
F 	F 	0.07636 0.67300 0.18639 -0.78700
F 	F 	0.99706 0.59180 0.30334 -0.85300
O 	O 	0.98730 0.84820 0.26666 -0.58100
O 	O 	0.06350 0.02470 0.33631 -0.47500
O 	O 	0.34500 0.69320 0.24227 -0.54300
O 	O 	0.93041 0.78650 0.13213 -0.49300
O 	O 	0.37845 0.68390 0.10770 -0.59600
O 	O 	0.94762 0.00330 0.07110 -0.56000
O 	O 	0.06088 0.79730 0.38532 -0.52800
O 	O 	0.97880 0.79360 0.00518 -0.51200
Ga	Ga	0.35019 0.16565 0.67455 2.09100
Ga	Ga	0.54125 0.31505 0.71800 2.10200
Ga	Ga	0.50855 0.34681 0.90553 2.09100
P 	P 	0.18552 0.35009 0.66751 0.67000
P 	P 	0.51529 0.13661 0.57801 0.65700
P 	P 	0.43733 0.12125 0.81458 0.60900
O 	O 	0.26485 0.27330 0.64587 -0.54800
O 	O 	0.42275 0.12260 0.59998 -0.65300
O 	O 	0.35406 0.15350 0.77537 -0.55600
O 	O 	0.20740 0.49750 0.66684 -0.53900
F 	F 	0.42364 0.32700 0.68639 -0.78700
F 	F 	0.50294 0.40820 0.80334 -0.85500
O 	O 	0.51270 0.15180 0.76666 -0.57800
O 	O 	0.43650 0.97530 0.83631 -0.46700
O 	O 	0.15500 0.30680 0.74227 -0.54300
O 	O 	0.56959 0.21350 0.63213 -0.49300
O 	O 	0.12155 0.31610 0.60770 -0.59500
O 	O 	0.55238 0.99670 0.57110 -0.57200
O 	O 	0.43912 0.20270 0.88532 -0.53100
O 	O 	0.52120 0.20640 0.50518 -0.51200
Ga	Ga	0.85019 0.33435 0.32545 2.09100
Ga	Ga	0.04125 0.18495 0.28200 2.10200
Ga	Ga	0.00855 0.15319 0.09447 2.08900
P 	P 	0.68552 0.14991 0.33249 0.67000
P 	P 	0.01529 0.36339 0.42199 0.65600
P 	P 	0.93733 0.37875 0.18542 0.61700
O 	O 	0.76485 0.22670 0.35413 -0.54600
O 	O 	0.92275 0.37740 0.40002 -0.64900
O 	O 	0.85406 0.34650 0.22463 -0.55400
O 	O 	0.70740 0.00250 0.33316 -0.53700
F 	F 	0.92364 0.17300 0.31361 -0.78300
F 	F 	0.00294 0.09180 0.19666 -0.85800
O 	O 	0.01270 0.34820 0.23334 -0.58100
O 	O 	0.93650 0.52470 0.16369 -0.46900
O 	O 	0.65500 0.19320 0.25773 -0.54200
O 	O 	0.06959 0.28650 0.36787 -0.49300
O 	O 	0.62155 0.18390 0.39230 -0.59400
O 	O 	0.05238 0.50330 0.42890 -0.57000
O 	O 	0.93912 0.29730 0.11468 -0.52500
O 	O 	0.02120 0.29360 0.49482 -0.51200
Ga	Ga	0.64981 0.66565 0.82545 2.09100
Ga	Ga	0.45875 0.81505 0.78200 2.10200
Ga	Ga	0.49145 0.84681 0.59447 2.09100
P 	P 	0.81448 0.85009 0.83249 0.67000
P 	P 	0.48471 0.63661 0.92199 0.65700
P 	P 	0.56267 0.62125 0.68542 0.61200
O 	O 	0.73515 0.77330 0.85413 -0.54800
O 	O 	0.57725 0.62260 0.90002 -0.65100
O 	O 	0.64594 0.65350 0.72463 -0.55500
O 	O 	0.79260 0.99750 0.83316 -0.54200
F 	F 	0.57636 0.82700 0.81361 -0.78700
F 	F 	0.49706 0.90820 0.69666 -0.85400
O 	O 	0.48730 0.65180 0.73334 -0.57700
O 	O 	0.56350 0.47530 0.66369 -0.47000
O 	O 	0.84500 0.80680 0.75773 -0.54300
O 	O 	0.43041 0.71350 0.86787 -0.49200
O 	O 	0.87845 0.81610 0.89230 -0.59700
O 	O 	0.44762 0.49670 0.92890 -0.57200
O 	O 	0.56088 0.70270 0.61468 -0.53000
O 	O 	0.47880 0.70640 0.99482 -0.51100
Ga	Ga	0.85019 0.16565 0.82545 2.09100
Ga	Ga	0.04125 0.31505 0.78200 2.10200
Ga	Ga	0.00855 0.34681 0.59447 2.09100
P 	P 	0.68552 0.35009 0.83249 0.67000
P 	P 	0.01529 0.13661 0.92199 0.64900
P 	P 	0.93733 0.12125 0.68542 0.61900
O 	O 	0.76485 0.27330 0.85413 -0.54800
O 	O 	0.92275 0.12260 0.90002 -0.65000
O 	O 	0.85406 0.15350 0.72463 -0.55500
O 	O 	0.70740 0.49750 0.83316 -0.53900
F 	F 	0.92364 0.32700 0.81361 -0.78700
F 	F 	0.00294 0.40820 0.69666 -0.85300
O 	O 	0.01270 0.15180 0.73334 -0.58100
O 	O 	0.93650 0.97530 0.66369 -0.47500
O 	O 	0.65500 0.30680 0.75773 -0.54300
O 	O 	0.06959 0.21350 0.86787 -0.49300
O 	O 	0.62155 0.31610 0.89230 -0.59600
O 	O 	0.05238 0.99670 0.92890 -0.56000
O 	O 	0.93912 0.20270 0.61468 -0.52800
O 	O 	0.02120 0.20640 0.99482 -0.51200
Ga	Ga	0.64981 0.83435 0.32545 2.09100
Ga	Ga	0.45875 0.68495 0.28200 2.10200
Ga	Ga	0.49145 0.65319 0.09447 2.09100
P 	P 	0.81448 0.64991 0.33249 0.67000
P 	P 	0.48471 0.86339 0.42199 0.65700
P 	P 	0.56267 0.87875 0.18542 0.60900
O 	O 	0.73515 0.72670 0.35413 -0.54800
O 	O 	0.57725 0.87740 0.40002 -0.65300
O 	O 	0.64594 0.84650 0.22463 -0.55600
O 	O 	0.79260 0.50250 0.33316 -0.53900
F 	F 	0.57636 0.67300 0.31361 -0.78700
F 	F 	0.49706 0.59180 0.19666 -0.85500
O 	O 	0.48730 0.84820 0.23334 -0.57800
O 	O 	0.56350 0.02470 0.16369 -0.46700
O 	O 	0.84500 0.69320 0.25773 -0.54300
O 	O 	0.43041 0.78650 0.36787 -0.49300
O 	O 	0.87845 0.68390 0.39230 -0.59500
O 	O 	0.44762 0.00330 0.42890 -0.57200
O 	O 	0.56088 0.79730 0.11468 -0.53100
O 	O 	0.47880 0.79360 0.49482 -0.51200
Ga	Ga	0.14981 0.66565 0.67455 2.09100
Ga	Ga	0.95875 0.81505 0.71800 2.10200
Ga	Ga	0.99145 0.84681 0.90553 2.08900
P 	P 	0.31448 0.85009 0.66751 0.67000
P 	P 	0.98471 0.63661 0.57801 0.65600
P 	P 	0.06267 0.62125 0.81458 0.61700
O 	O 	0.23515 0.77330 0.64587 -0.54600
O 	O 	0.07725 0.62260 0.59998 -0.64900
O 	O 	0.14594 0.65350 0.77537 -0.55400
O 	O 	0.29260 0.99750 0.66684 -0.53700
F 	F 	0.07636 0.82700 0.68639 -0.78300
F 	F 	0.99706 0.90820 0.80334 -0.85800
O 	O 	0.98730 0.65180 0.76666 -0.58100
O 	O 	0.06350 0.47530 0.83631 -0.46900
O 	O 	0.34500 0.80680 0.74227 -0.54200
O 	O 	0.93041 0.71350 0.63213 -0.49300
O 	O 	0.37845 0.81610 0.60770 -0.59400
O 	O 	0.94762 0.49670 0.57110 -0.57000
O 	O 	0.06088 0.70270 0.88532 -0.52500
O 	O 	0.97880 0.70640 0.50518 -0.51200
Ga	Ga	0.35019 0.33435 0.17455 2.09100
Ga	Ga	0.54125 0.18495 0.21800 2.10200
Ga	Ga	0.50855 0.15319 0.40553 2.09100
P 	P 	0.18552 0.14991 0.16751 0.67000
P 	P 	0.51529 0.36339 0.07801 0.65700
P 	P 	0.43733 0.37875 0.31458 0.61200
O 	O 	0.26485 0.22670 0.14587 -0.54800
O 	O 	0.42275 0.37740 0.09998 -0.65100
O 	O 	0.35406 0.34650 0.27537 -0.55500
O 	O 	0.20740 0.00250 0.16684 -0.54200
F 	F 	0.42364 0.17300 0.18639 -0.78700
F 	F 	0.50294 0.09180 0.30334 -0.85400
O 	O 	0.51270 0.34820 0.26666 -0.57700
O 	O 	0.43650 0.52470 0.33631 -0.47000
O 	O 	0.15500 0.19320 0.24227 -0.54300
O 	O 	0.56959 0.28650 0.13213 -0.49200
O 	O 	0.12155 0.18390 0.10770 -0.59700
O 	O 	0.55238 0.50330 0.07110 -0.57200
O 	O 	0.43912 0.29730 0.38532 -0.53000
O 	O 	0.52120 0.29360 0.00518 -0.51100
