data_crystal

_cell_length_a 13.34220
_cell_length_b 13.34220
_cell_length_c 17.86870
_cell_angle_alpha 90.00000
_cell_angle_beta  90.00000
_cell_angle_gamma 120.00000

_symmetry_space_group_name_	'P 1'
_symmetry_space_group_name_H-M	'P 1'

loop_
_symmetry_equiv_pos_as_xyz
  x,y,z

loop_
_atom_site_label
_atom_site_type_symbol
_atom_site_fract_x
_atom_site_fract_y
_atom_site_fract_z
_atom_site_charge
Ga	Ga	0.85958 0.56737 0.46033 2.08600
P 	P 	0.97456 0.81342 0.37109 1.04900
H 	H 	0.03670 0.80610 0.34720 -0.36200
P 	P 	0.87253 0.36784 0.55354 0.67600
H 	H 	0.82970 0.32380 0.59780 -0.14800
O 	O 	0.92550 0.85980 0.31110 -0.47300
O 	O 	0.02850 0.89340 0.43870 -0.67900
O 	O 	0.83030 0.45190 0.53610 -0.54500
O 	O 	0.71980 0.56740 0.49170 -0.60000
O 	O 	0.00050 0.57260 0.42640 -0.69300
O 	O 	0.77490 0.45060 0.38260 -0.48400
O 	O 	0.88110 0.69210 0.39230 -0.55700
Ga	Ga	0.43263 0.29221 0.46033 2.06800
P 	P 	0.18658 0.16114 0.37109 0.65000
H 	H 	0.19390 0.23060 0.34720 -0.17500
P 	P 	0.63216 0.50469 0.55354 0.67100
H 	H 	0.67620 0.50590 0.59780 -0.14000
O 	O 	0.14020 0.06570 0.31110 -0.65400
O 	O 	0.10660 0.13510 0.43870 -0.68300
O 	O 	0.54810 0.37840 0.53610 -0.58100
O 	O 	0.43260 0.15240 0.49170 -0.64600
O 	O 	0.42740 0.42790 0.42640 -0.58200
O 	O 	0.54940 0.32430 0.38260 -0.53000
O 	O 	0.30790 0.18900 0.39230 -0.57400
Ga	Ga	0.70779 0.14042 0.46033 2.05000
P 	P 	0.83886 0.02544 0.37109 0.24100
H 	H 	0.76940 0.96330 0.34720 0.07100
P 	P 	0.49531 0.12747 0.55354 0.67600
H 	H 	0.49410 0.17030 0.59780 -0.15800
O 	O 	0.93430 0.07450 0.31110 -0.42200
O 	O 	0.86490 0.97150 0.43870 -0.36000
O 	O 	0.62160 0.16970 0.53610 -0.61800
O 	O 	0.84760 0.28020 0.49170 -0.58900
O 	O 	0.57210 0.99950 0.42640 -0.46800
O 	O 	0.67570 0.22510 0.38260 -0.54700
O 	O 	0.81100 0.11890 0.39230 -0.51300
Ga	Ga	0.56737 0.85958 0.03967 2.07900
P 	P 	0.81342 0.97456 0.12891 1.02000
H 	H 	0.80610 0.03670 0.15280 -0.34500
P 	P 	0.36784 0.87253 0.94646 0.74200
H 	H 	0.32380 0.82970 0.90220 -0.15800
O 	O 	0.85980 0.92550 0.18890 -0.47000
O 	O 	0.89340 0.02850 0.06130 -0.68200
O 	O 	0.45190 0.83030 0.96390 -0.52100
O 	O 	0.56740 0.71980 0.00830 -0.65600
O 	O 	0.57260 0.00050 0.07360 -0.69600
O 	O 	0.45060 0.77490 0.11740 -0.49500
O 	O 	0.69210 0.88110 0.10770 -0.56300
Ga	Ga	0.29221 0.43263 0.03967 2.06100
P 	P 	0.16114 0.18658 0.12891 0.65000
H 	H 	0.23060 0.19390 0.15280 -0.17700
P 	P 	0.50469 0.63216 0.94646 0.72900
H 	H 	0.50590 0.67620 0.90220 -0.15100
O 	O 	0.06570 0.14020 0.18890 -0.65800
O 	O 	0.13510 0.10660 0.06130 -0.70700
O 	O 	0.37840 0.54810 0.96390 -0.55400
O 	O 	0.15240 0.43260 0.00830 -0.70800
O 	O 	0.42790 0.42740 0.07360 -0.59100
O 	O 	0.32430 0.54940 0.11740 -0.53900
O 	O 	0.18900 0.30790 0.10770 -0.58400
Ga	Ga	0.14042 0.70779 0.03967 2.04100
P 	P 	0.02544 0.83886 0.12891 0.21100
H 	H 	0.96330 0.76940 0.15280 0.08500
P 	P 	0.12747 0.49531 0.94646 0.74000
H 	H 	0.17030 0.49410 0.90220 -0.17000
O 	O 	0.07450 0.93430 0.18890 -0.42900
O 	O 	0.97150 0.86490 0.06130 -0.37300
O 	O 	0.16970 0.62160 0.96390 -0.59000
O 	O 	0.28020 0.84760 0.00830 -0.65400
O 	O 	0.99950 0.57210 0.07360 -0.47000
O 	O 	0.22510 0.67570 0.11740 -0.55900
O 	O 	0.11890 0.81100 0.10770 -0.52300
Ga	Ga	0.14042 0.43263 0.53967 2.04800
P 	P 	0.02544 0.18658 0.62891 0.19400
H 	H 	0.96330 0.19390 0.65280 0.08000
P 	P 	0.12747 0.63216 0.44646 0.67200
H 	H 	0.17030 0.67620 0.40220 -0.14900
O 	O 	0.07450 0.14020 0.68890 -0.56400
O 	O 	0.97150 0.10660 0.56130 -0.43500
O 	O 	0.16970 0.54810 0.46390 -0.62000
O 	O 	0.28020 0.43260 0.50830 -0.62600
O 	O 	0.99950 0.42740 0.57360 -0.46500
O 	O 	0.22510 0.54940 0.61740 -0.55700
O 	O 	0.11890 0.30790 0.60770 -0.53600
Ga	Ga	0.56737 0.70779 0.53967 2.06800
P 	P 	0.81342 0.83886 0.62891 0.63300
H 	H 	0.80610 0.76940 0.65280 -0.12900
P 	P 	0.36784 0.49531 0.44646 0.67900
H 	H 	0.32380 0.49410 0.40220 -0.15700
O 	O 	0.85980 0.93430 0.68890 -0.39200
O 	O 	0.89340 0.86490 0.56130 -0.47000
O 	O 	0.45190 0.62160 0.46390 -0.58200
O 	O 	0.56740 0.84760 0.50830 -0.58000
O 	O 	0.57260 0.57210 0.57360 -0.57700
O 	O 	0.45060 0.67570 0.61740 -0.51100
O 	O 	0.69210 0.81100 0.60770 -0.52300
Ga	Ga	0.29221 0.85958 0.53967 2.08700
P 	P 	0.16114 0.97456 0.62891 1.10200
H 	H 	0.23060 0.03670 0.65280 -0.40600
P 	P 	0.50469 0.87253 0.44646 0.67400
H 	H 	0.50590 0.82970 0.40220 -0.13900
O 	O 	0.06570 0.92550 0.68890 -0.59600
O 	O 	0.13510 0.02850 0.56130 -0.80800
O 	O 	0.37840 0.83030 0.46390 -0.54400
O 	O 	0.15240 0.71980 0.50830 -0.63100
O 	O 	0.42790 0.00050 0.57360 -0.69500
O 	O 	0.32430 0.77490 0.61740 -0.49200
O 	O 	0.18900 0.88110 0.60770 -0.58400
Ga	Ga	0.43263 0.14042 0.96033 2.05500
P 	P 	0.18658 0.02544 0.87109 0.18400
H 	H 	0.19390 0.96330 0.84720 0.09000
P 	P 	0.63216 0.12747 0.05354 0.62400
H 	H 	0.67620 0.17030 0.09780 -0.13900
O 	O 	0.14020 0.07450 0.81110 -0.56100
O 	O 	0.10660 0.97150 0.93870 -0.39900
O 	O 	0.54810 0.16970 0.03610 -0.64100
O 	O 	0.43260 0.28020 0.99170 -0.57000
O 	O 	0.42740 0.99950 0.92640 -0.45500
O 	O 	0.54940 0.22510 0.88260 -0.55100
O 	O 	0.30790 0.11890 0.89230 -0.52500
Ga	Ga	0.70779 0.56737 0.96033 2.07500
P 	P 	0.83886 0.81342 0.87109 0.63200
H 	H 	0.76940 0.80610 0.84720 -0.12600
P 	P 	0.49531 0.36784 0.05354 0.62300
H 	H 	0.49410 0.32380 0.09780 -0.14600
O 	O 	0.93430 0.85980 0.81110 -0.39300
O 	O 	0.86490 0.89340 0.93870 -0.44700
O 	O 	0.62160 0.45190 0.03610 -0.60300
O 	O 	0.84760 0.56740 0.99170 -0.53300
O 	O 	0.57210 0.57260 0.92640 -0.56700
O 	O 	0.67570 0.45060 0.88260 -0.50400
O 	O 	0.81100 0.69210 0.89230 -0.51600
Ga	Ga	0.85958 0.29221 0.96033 2.09200
P 	P 	0.97456 0.16114 0.87109 1.07600
H 	H 	0.03670 0.23060 0.84720 -0.38900
P 	P 	0.87253 0.50469 0.05354 0.62400
H 	H 	0.82970 0.50590 0.09780 -0.12800
O 	O 	0.92550 0.06570 0.81110 -0.59700
O 	O 	0.02850 0.13510 0.93870 -0.77000
O 	O 	0.83030 0.37840 0.03610 -0.56200
O 	O 	0.71980 0.15240 0.99170 -0.58500
O 	O 	0.00050 0.42790 0.92640 -0.68000
O 	O 	0.77490 0.32430 0.88260 -0.48700
O 	O 	0.88110 0.18900 0.89230 -0.57600
Ga	Ga	0.00000 -0.00000 0.25000 2.01100
Ga	Ga	0.00000 0.00000 0.75000 2.01200
Ga	Ga	0.00000 -0.00000 0.50000 2.00700
Ga	Ga	-0.00000 0.00000 -0.00000 1.99400
P 	P 	0.66667 0.33333 0.36290 0.62100
H 	H 	0.66667 0.33333 0.30810 -0.09900
P 	P 	0.33333 0.66667 0.13710 0.61500
H 	H 	0.33333 0.66667 0.19190 -0.09700
P 	P 	0.33333 0.66667 0.63710 0.62100
H 	H 	0.33333 0.66667 0.69190 -0.09700
P 	P 	0.66667 0.33333 0.86290 0.62700
H 	H 	0.66667 0.33333 0.80810 -0.10100
