data_crystal

_cell_length_a 20.35500
_cell_length_b 15.64880
_cell_length_c 9.05170
_cell_angle_alpha 90.00000
_cell_angle_beta  105.78100
_cell_angle_gamma 90.00000

_symmetry_space_group_name_	'P 1'
_symmetry_space_group_name_H-M	'P 1'

loop_
_symmetry_equiv_pos_as_xyz
  x,y,z

loop_
_atom_site_label
_atom_site_type_symbol
_atom_site_fract_x
_atom_site_fract_y
_atom_site_fract_z
_atom_site_charge
Ga	Ga	0.33968 0.36254 0.16782 2.09900
Ga	Ga	0.24750 0.11722 0.43387 2.08100
P 	P 	0.29287 0.51985 0.36591 0.60900
P 	P 	0.35614 0.26263 0.49504 0.63700
O 	O 	0.33270 0.46340 0.28510 -0.39100
O 	O 	0.43762 0.36090 0.22970 -0.48400
O 	O 	0.34313 0.56880 0.49250 -0.52600
O 	O 	0.33189 0.28380 0.32720 -0.60400
O 	O 	0.23646 0.34610 0.08480 -0.45500
O 	O 	0.16208 0.24740 0.96210 -0.41700
O 	O 	0.32240 0.17880 0.52510 -0.62700
O 	O 	0.24672 0.58270 0.25230 -0.61500
O 	O 	0.24184 0.46940 0.43020 -0.62600
O 	O 	0.33512 0.33230 0.59300 -0.62900
O 	O 	0.43244 0.25180 0.55490 -0.16400
O 	O 	0.49300 0.24650 0.11190 -0.17700
H 	H 	0.35600 0.43400 0.24100 -0.25000
C 	C 	0.22060 0.27660 0.01370 0.22800
Ga	Ga	0.83968 0.86254 0.16782 2.09800
Ga	Ga	0.74750 0.61722 0.43387 2.08000
P 	P 	0.79287 0.01985 0.36591 0.60700
P 	P 	0.85614 0.76263 0.49504 0.63700
O 	O 	0.83270 0.96340 0.28510 -0.38700
O 	O 	0.93762 0.86090 0.22970 -0.45000
O 	O 	0.84313 0.06880 0.49250 -0.52200
O 	O 	0.83189 0.78380 0.32720 -0.60100
O 	O 	0.73646 0.84610 0.08480 -0.45500
O 	O 	0.66208 0.74740 0.96210 -0.42100
O 	O 	0.82240 0.67880 0.52510 -0.62400
O 	O 	0.74672 0.08270 0.25230 -0.61300
O 	O 	0.74184 0.96940 0.43020 -0.62200
O 	O 	0.83512 0.83230 0.59300 -0.62600
O 	O 	0.93244 0.75180 0.55490 -0.14700
O 	O 	0.99300 0.74650 0.11190 -0.13100
H 	H 	0.85600 0.93400 0.24100 -0.24900
C 	C 	0.72060 0.77660 0.01370 0.24200
Ga	Ga	0.66032 0.36254 0.33218 2.09800
Ga	Ga	0.75250 0.11722 0.06613 2.07900
P 	P 	0.70713 0.51985 0.13409 0.60900
P 	P 	0.64386 0.26263 0.00496 0.63300
O 	O 	0.66730 0.46340 0.21490 -0.39000
O 	O 	0.56238 0.36090 0.27030 -0.48400
O 	O 	0.65687 0.56880 0.00750 -0.52500
O 	O 	0.66811 0.28380 0.17280 -0.60300
O 	O 	0.76354 0.34610 0.41520 -0.45200
O 	O 	0.83792 0.24740 0.53790 -0.41300
O 	O 	0.67760 0.17880 0.97490 -0.62500
O 	O 	0.75328 0.58270 0.24770 -0.61000
O 	O 	0.75816 0.46940 0.06980 -0.62100
O 	O 	0.66488 0.33230 0.90700 -0.62700
O 	O 	0.56756 0.25180 0.94510 -0.16200
O 	O 	0.50700 0.24650 0.38810 -0.17600
H 	H 	0.64400 0.43400 0.25900 -0.25000
C 	C 	0.77940 0.27660 0.48630 0.23500
Ga	Ga	0.16032 0.86254 0.33218 2.09800
Ga	Ga	0.25250 0.61722 0.06613 2.08000
P 	P 	0.20713 0.01985 0.13409 0.60400
P 	P 	0.14386 0.76263 0.00496 0.64100
O 	O 	0.16730 0.96340 0.21490 -0.38900
O 	O 	0.06238 0.86090 0.27030 -0.48500
O 	O 	0.15687 0.06880 0.00750 -0.53100
O 	O 	0.16811 0.78380 0.17280 -0.60600
O 	O 	0.26354 0.84610 0.41520 -0.45400
O 	O 	0.33792 0.74740 0.53790 -0.41700
O 	O 	0.17760 0.67880 0.97490 -0.63200
O 	O 	0.25328 0.08270 0.24770 -0.61300
O 	O 	0.25816 0.96940 0.06980 -0.62000
O 	O 	0.16488 0.83230 0.90700 -0.63400
O 	O 	0.06756 0.75180 0.94510 -0.18500
O 	O 	0.00700 0.74650 0.38810 -0.19200
H 	H 	0.14400 0.93400 0.25900 -0.25300
C 	C 	0.27940 0.77660 0.48630 0.23500
Ga	Ga	0.66032 0.63746 0.83218 2.09800
Ga	Ga	0.75250 0.88278 0.56613 2.08000
P 	P 	0.70713 0.48015 0.63409 0.60900
P 	P 	0.64386 0.73737 0.50496 0.63700
O 	O 	0.66730 0.53660 0.71490 -0.39000
O 	O 	0.56238 0.63910 0.77030 -0.48300
O 	O 	0.65687 0.43120 0.50750 -0.52600
O 	O 	0.66811 0.71620 0.67280 -0.60400
O 	O 	0.76354 0.65390 0.91520 -0.45100
O 	O 	0.83792 0.75260 0.03790 -0.41000
O 	O 	0.67760 0.82120 0.47490 -0.62800
O 	O 	0.75328 0.41730 0.74770 -0.61000
O 	O 	0.75816 0.53060 0.56980 -0.62100
O 	O 	0.66488 0.66770 0.40700 -0.62900
O 	O 	0.56756 0.74820 0.44510 -0.16400
O 	O 	0.50700 0.75350 0.88810 -0.17700
H 	H 	0.64400 0.56600 0.75900 -0.25000
C 	C 	0.77940 0.72340 0.98630 0.22900
Ga	Ga	0.16032 0.13746 0.83218 2.09800
Ga	Ga	0.25250 0.38278 0.56613 2.08000
P 	P 	0.20713 0.98015 0.63409 0.60600
P 	P 	0.14386 0.23737 0.50496 0.63800
O 	O 	0.16730 0.03660 0.71490 -0.39100
O 	O 	0.06238 0.13910 0.77030 -0.48500
O 	O 	0.15687 0.93120 0.50750 -0.52900
O 	O 	0.16811 0.21620 0.67280 -0.60600
O 	O 	0.26354 0.15390 0.91520 -0.45400
O 	O 	0.33792 0.25260 0.03790 -0.42100
O 	O 	0.17760 0.32120 0.47490 -0.63200
O 	O 	0.25328 0.91730 0.74770 -0.61300
O 	O 	0.25816 0.03060 0.56980 -0.62200
O 	O 	0.16488 0.16770 0.40700 -0.63300
O 	O 	0.06756 0.24820 0.44510 -0.18400
O 	O 	0.00700 0.25350 0.88810 -0.19000
H 	H 	0.14400 0.06600 0.75900 -0.25100
C 	C 	0.27940 0.22340 0.98630 0.24300
Ga	Ga	0.33968 0.63746 0.66782 2.09800
Ga	Ga	0.24750 0.88278 0.93387 2.08000
P 	P 	0.29287 0.48015 0.86591 0.60900
P 	P 	0.35614 0.73737 0.99504 0.63400
O 	O 	0.33270 0.53660 0.78510 -0.39100
O 	O 	0.43762 0.63910 0.72970 -0.48300
O 	O 	0.34313 0.43120 0.99250 -0.52500
O 	O 	0.33189 0.71620 0.82720 -0.60300
O 	O 	0.23646 0.65390 0.58480 -0.45600
O 	O 	0.16208 0.75260 0.46210 -0.42100
O 	O 	0.32240 0.82120 0.02510 -0.62500
O 	O 	0.24672 0.41730 0.75230 -0.61400
O 	O 	0.24184 0.53060 0.93020 -0.62600
O 	O 	0.33512 0.66770 0.09300 -0.62800
O 	O 	0.43244 0.74820 0.05490 -0.16300
O 	O 	0.49300 0.75350 0.61190 -0.17600
H 	H 	0.35600 0.56600 0.74100 -0.24900
C 	C 	0.22060 0.72340 0.51370 0.23600
Ga	Ga	0.83968 0.13746 0.66782 2.09800
Ga	Ga	0.74750 0.38278 0.93387 2.08000
P 	P 	0.79287 0.98015 0.86591 0.60500
P 	P 	0.85614 0.23737 0.99504 0.64100
O 	O 	0.83270 0.03660 0.78510 -0.38500
O 	O 	0.93762 0.13910 0.72970 -0.45100
O 	O 	0.84313 0.93120 0.99250 -0.52400
O 	O 	0.83189 0.21620 0.82720 -0.60100
O 	O 	0.73646 0.15390 0.58480 -0.45400
O 	O 	0.66208 0.25260 0.46210 -0.41800
O 	O 	0.82240 0.32120 0.02510 -0.62500
O 	O 	0.74672 0.91730 0.75230 -0.61200
O 	O 	0.74184 0.03060 0.93020 -0.62000
O 	O 	0.83512 0.16770 0.09300 -0.62800
O 	O 	0.93244 0.24820 0.05490 -0.14800
O 	O 	0.99300 0.25350 0.61190 -0.13300
H 	H 	0.85600 0.06600 0.74100 -0.25000
C 	C 	0.72060 0.22340 0.51370 0.23600
P 	P 	0.50000 0.30519 0.25000 0.59500
P 	P 	0.00000 0.80519 0.25000 0.53400
P 	P 	0.50000 0.69481 0.75000 0.59500
P 	P 	-0.00000 0.19481 0.75000 0.53600
