data_crystal

_cell_length_a 8.65030
_cell_length_b 10.18710
_cell_length_c 16.92100
_cell_angle_alpha 90.00000
_cell_angle_beta  94.68800
_cell_angle_gamma 90.00000

_symmetry_space_group_name_	'P 1'
_symmetry_space_group_name_H-M	'P 1'

loop_
_symmetry_equiv_pos_as_xyz
  x,y,z

loop_
_atom_site_label
_atom_site_type_symbol
_atom_site_fract_x
_atom_site_fract_y
_atom_site_fract_z
_atom_site_charge
Ga	Ga	0.23211 0.82679 0.79826 2.10500
Ga	Ga	0.08362 0.85117 0.59704 2.08800
Ga	Ga	0.57616 0.65885 0.76886 2.09200
P 	P 	0.87628 0.85223 0.74123 0.68600
P 	P 	0.22196 0.12408 0.83632 0.62300
P 	P 	0.40509 0.64238 0.92795 0.67400
O 	O 	0.26980 0.98380 0.85930 -0.48900
O 	O 	0.26730 0.72140 0.89210 -0.51500
O 	O 	0.01020 0.83350 0.80530 -0.54000
O 	O 	0.20460 0.66510 0.73780 -0.57100
F 	F 	0.20380 0.91870 0.69640 -0.83700
F 	F 	0.45280 0.82710 0.77980 -0.78400
O 	O 	0.91980 0.81570 0.65820 -0.60300
O 	O 	0.34800 0.50360 0.94910 -0.57400
O 	O 	0.27610 0.21270 0.90750 -0.53500
O 	O 	0.46940 0.71170 0.00360 -0.61500
O 	O 	0.74890 0.75820 0.76170 -0.55500
O 	O 	0.53440 0.62430 0.87200 -0.66000
O 	O 	0.04330 0.13520 0.82580 -0.57000
O 	O 	0.81270 0.99370 0.73990 -0.52100
N 	N 	0.47400 0.79700 0.01600 0.10900
Ga	Ga	0.26789 0.32679 0.70174 2.10400
Ga	Ga	0.41638 0.35117 0.90296 2.08900
Ga	Ga	0.92384 0.15885 0.73114 2.08900
P 	P 	0.62372 0.35223 0.75877 0.67900
P 	P 	0.27804 0.62408 0.66368 0.61900
P 	P 	0.09491 0.14238 0.57205 0.68200
O 	O 	0.23020 0.48380 0.64070 -0.48400
O 	O 	0.23270 0.22140 0.60790 -0.51600
O 	O 	0.48980 0.33350 0.69470 -0.53500
O 	O 	0.29540 0.16510 0.76220 -0.57000
F 	F 	0.29620 0.41870 0.80360 -0.83400
F 	F 	0.04720 0.32710 0.72020 -0.78100
O 	O 	0.58020 0.31570 0.84180 -0.60700
O 	O 	0.15200 0.00360 0.55090 -0.57000
O 	O 	0.22390 0.71270 0.59250 -0.53800
O 	O 	0.03060 0.21170 0.49640 -0.61200
O 	O 	0.75110 0.25820 0.73830 -0.55800
O 	O 	0.96560 0.12430 0.62800 -0.67100
O 	O 	0.45670 0.63520 0.67420 -0.57600
O 	O 	0.68730 0.49370 0.76010 -0.52600
N 	N 	0.02600 0.29700 0.48400 0.11000
Ga	Ga	0.76789 0.17321 0.20174 2.10400
Ga	Ga	0.91638 0.14883 0.40296 2.08700
Ga	Ga	0.42384 0.34115 0.23114 2.09100
P 	P 	0.12372 0.14777 0.25877 0.68500
P 	P 	0.77804 0.87592 0.16368 0.62300
P 	P 	0.59491 0.35762 0.07205 0.67400
O 	O 	0.73020 0.01620 0.14070 -0.48900
O 	O 	0.73270 0.27860 0.10790 -0.51500
O 	O 	0.98980 0.16650 0.19470 -0.54000
O 	O 	0.79540 0.33490 0.26220 -0.57100
F 	F 	0.79620 0.08130 0.30360 -0.83700
F 	F 	0.54720 0.17290 0.22020 -0.78400
O 	O 	0.08020 0.18430 0.34180 -0.60300
O 	O 	0.65200 0.49640 0.05090 -0.57400
O 	O 	0.72390 0.78730 0.09250 -0.53500
O 	O 	0.53060 0.28830 0.99640 -0.61500
O 	O 	0.25110 0.24180 0.23830 -0.55500
O 	O 	0.46560 0.37570 0.12800 -0.66000
O 	O 	0.95670 0.86480 0.17420 -0.57000
O 	O 	0.18730 0.00630 0.26010 -0.52100
N 	N 	0.52600 0.20300 0.98400 0.10900
Ga	Ga	0.73211 0.67321 0.29826 2.10400
Ga	Ga	0.58362 0.64883 0.09704 2.08900
Ga	Ga	0.07616 0.84115 0.26886 2.08900
P 	P 	0.37628 0.64777 0.24123 0.67900
P 	P 	0.72196 0.37592 0.33632 0.61900
P 	P 	0.90509 0.85762 0.42795 0.68200
O 	O 	0.76980 0.51620 0.35930 -0.48400
O 	O 	0.76730 0.77860 0.39210 -0.51600
O 	O 	0.51020 0.66650 0.30530 -0.53500
O 	O 	0.70460 0.83490 0.23780 -0.57000
F 	F 	0.70380 0.58130 0.19640 -0.83400
F 	F 	0.95280 0.67290 0.27980 -0.78100
O 	O 	0.41980 0.68430 0.15820 -0.60700
O 	O 	0.84800 0.99640 0.44910 -0.57000
O 	O 	0.77610 0.28730 0.40750 -0.53800
O 	O 	0.96940 0.78830 0.50360 -0.61200
O 	O 	0.24890 0.74180 0.26170 -0.55800
O 	O 	0.03440 0.87570 0.37200 -0.67100
O 	O 	0.54330 0.36480 0.32580 -0.57600
O 	O 	0.31270 0.50630 0.23990 -0.52600
N 	N 	0.97400 0.70300 0.51600 0.11000
