data_crystal

_cell_length_a 20.69500
_cell_length_b 9.95950
_cell_length_c 23.71500
_cell_angle_alpha 90.00000
_cell_angle_beta  101.00000
_cell_angle_gamma 90.00000

_symmetry_space_group_name_	'P 1'
_symmetry_space_group_name_H-M	'P 1'

loop_
_symmetry_equiv_pos_as_xyz
  x,y,z

loop_
_atom_site_label
_atom_site_type_symbol
_atom_site_fract_x
_atom_site_fract_y
_atom_site_fract_z
_atom_site_charge
V 	V 	0.43990 0.57763 0.56418 1.70600
V 	V 	0.27876 0.40827 0.72234 1.69800
V 	V 	0.32622 0.90373 0.67284 1.69900
P 	P 	0.44188 0.31474 0.49544 0.49100
P 	P 	0.39394 0.87118 0.56065 0.54800
P 	P 	0.28552 0.62312 0.82518 0.53200
P 	P 	0.31030 0.61583 0.62369 0.56800
O 	O 	0.40511 0.44540 0.50299 -0.50300
O 	O 	0.40745 0.25270 0.43585 -0.19500
O 	O 	0.43284 0.21470 0.54137 -0.22500
O 	O 	0.51436 0.34133 0.49547 -0.51600
O 	O 	0.34485 0.81310 0.50956 -0.48600
O 	O 	0.43638 0.76030 0.59200 -0.56300
O 	O 	0.43961 0.96640 0.53367 -0.17500
O 	O 	0.35963 0.95015 0.60139 -0.50600
O 	O 	0.27590 0.58231 0.76128 -0.58900
O 	O 	0.35518 0.58834 0.85614 -0.27000
O 	O 	0.23541 0.55040 0.85511 -0.50200
O 	O 	0.27420 0.77508 0.82874 -0.49600
O 	O 	0.26888 0.51281 0.64969 -0.49300
O 	O 	0.34869 0.70825 0.67040 -0.56300
O 	O 	0.26134 0.70290 0.58276 -0.51400
O 	O 	0.35719 0.53824 0.59298 -0.55100
O 	O 	0.24201 0.33338 0.78664 -0.68900
O 	O 	0.22280 0.93420 0.52463 -0.54700
H 	H 	0.18370 0.94660 0.51150 0.26200
V 	V 	0.93990 0.07763 0.56418 1.70800
V 	V 	0.77876 0.90827 0.72234 1.69700
V 	V 	0.82622 0.40373 0.67284 1.70100
P 	P 	0.94188 0.81474 0.49544 0.49200
P 	P 	0.89394 0.37118 0.56065 0.54900
P 	P 	0.78552 0.12312 0.82518 0.53200
P 	P 	0.81030 0.11583 0.62369 0.56800
O 	O 	0.90511 0.94540 0.50299 -0.50400
O 	O 	0.90745 0.75270 0.43585 -0.19500
O 	O 	0.93284 0.71470 0.54137 -0.22700
O 	O 	0.01436 0.84133 0.49547 -0.51700
O 	O 	0.84485 0.31310 0.50956 -0.48500
O 	O 	0.93638 0.26030 0.59200 -0.56300
O 	O 	0.93961 0.46640 0.53367 -0.17400
O 	O 	0.85963 0.45015 0.60139 -0.50500
O 	O 	0.77590 0.08231 0.76128 -0.58700
O 	O 	0.85518 0.08834 0.85614 -0.26900
O 	O 	0.73541 0.05040 0.85511 -0.49900
O 	O 	0.77420 0.27508 0.82874 -0.49500
O 	O 	0.76888 0.01281 0.64969 -0.49100
O 	O 	0.84869 0.20825 0.67040 -0.56200
O 	O 	0.76134 0.20290 0.58276 -0.51300
O 	O 	0.85719 0.03824 0.59298 -0.55000
O 	O 	0.74201 0.83338 0.78664 -0.69100
O 	O 	0.72280 0.43420 0.52463 -0.54600
H 	H 	0.68370 0.44660 0.51150 0.26200
V 	V 	0.56010 0.57763 0.93582 1.71200
V 	V 	0.72124 0.40827 0.77766 1.69900
V 	V 	0.67378 0.90373 0.82716 1.70000
P 	P 	0.55812 0.31474 0.00456 0.39600
P 	P 	0.60606 0.87118 0.93935 0.54600
P 	P 	0.71448 0.62312 0.67482 0.53100
P 	P 	0.68970 0.61583 0.87631 0.56800
O 	O 	0.59489 0.44540 0.99701 -0.43600
O 	O 	0.59255 0.25270 0.06415 -0.20100
O 	O 	0.56716 0.21470 0.95863 -0.17100
O 	O 	0.48564 0.34133 0.00453 -0.53000
O 	O 	0.65515 0.81310 0.99044 -0.45200
O 	O 	0.56362 0.76030 0.90800 -0.56000
O 	O 	0.56039 0.96640 0.96633 -0.15400
O 	O 	0.64037 0.95015 0.89861 -0.50200
O 	O 	0.72410 0.58231 0.73872 -0.58900
O 	O 	0.64482 0.58834 0.64386 -0.27800
O 	O 	0.76459 0.55040 0.64489 -0.50700
O 	O 	0.72580 0.77508 0.67126 -0.50000
O 	O 	0.73112 0.51281 0.85031 -0.48600
O 	O 	0.65131 0.70825 0.82960 -0.56300
O 	O 	0.73866 0.70290 0.91724 -0.49100
O 	O 	0.64281 0.53824 0.90702 -0.53900
O 	O 	0.75799 0.33338 0.71336 -0.69100
O 	O 	0.77720 0.93420 0.97537 -0.52700
H 	H 	0.81630 0.94660 0.98850 0.28800
V 	V 	0.06010 0.07763 0.93582 1.71200
V 	V 	0.22124 0.90827 0.77766 1.69700
V 	V 	0.17378 0.40373 0.82716 1.70100
P 	P 	0.05812 0.81474 0.00456 0.39700
P 	P 	0.10606 0.37118 0.93935 0.54600
P 	P 	0.21448 0.12312 0.67482 0.53100
P 	P 	0.18970 0.11583 0.87631 0.56800
O 	O 	0.09489 0.94540 0.99701 -0.43900
O 	O 	0.09255 0.75270 0.06415 -0.20200
O 	O 	0.06716 0.71470 0.95863 -0.17400
O 	O 	0.98564 0.84133 0.00453 -0.52900
O 	O 	0.15515 0.31310 0.99044 -0.45100
O 	O 	0.06362 0.26030 0.90800 -0.55900
O 	O 	0.06039 0.46640 0.96633 -0.15200
O 	O 	0.14037 0.45015 0.89861 -0.50000
O 	O 	0.22410 0.08231 0.73872 -0.58600
O 	O 	0.14482 0.08834 0.64386 -0.27600
O 	O 	0.26459 0.05040 0.64489 -0.50400
O 	O 	0.22580 0.27508 0.67126 -0.49900
O 	O 	0.23112 0.01281 0.85031 -0.48400
O 	O 	0.15131 0.20825 0.82960 -0.56200
O 	O 	0.23866 0.20290 0.91724 -0.48900
O 	O 	0.14281 0.03824 0.90702 -0.53800
O 	O 	0.25799 0.83338 0.71336 -0.69300
O 	O 	0.27720 0.43420 0.97537 -0.52500
H 	H 	0.31630 0.44660 0.98850 0.29000
V 	V 	0.56010 0.42237 0.43582 1.70700
V 	V 	0.72124 0.59173 0.27766 1.69800
V 	V 	0.67378 0.09627 0.32716 1.70000
P 	P 	0.55812 0.68526 0.50456 0.49200
P 	P 	0.60606 0.12882 0.43935 0.54900
P 	P 	0.71448 0.37688 0.17482 0.53100
P 	P 	0.68970 0.38417 0.37631 0.56800
O 	O 	0.59489 0.55460 0.49701 -0.50300
O 	O 	0.59255 0.74730 0.56415 -0.19500
O 	O 	0.56716 0.78530 0.45863 -0.22700
O 	O 	0.48564 0.65867 0.50453 -0.51600
O 	O 	0.65515 0.18690 0.49044 -0.48500
O 	O 	0.56362 0.23970 0.40800 -0.56300
O 	O 	0.56039 0.03360 0.46633 -0.17300
O 	O 	0.64037 0.04985 0.39861 -0.50500
O 	O 	0.72410 0.41769 0.23872 -0.59000
O 	O 	0.64482 0.41166 0.14386 -0.28600
O 	O 	0.76459 0.44960 0.14489 -0.51200
O 	O 	0.72580 0.22492 0.17126 -0.50400
O 	O 	0.73112 0.48719 0.35031 -0.49300
O 	O 	0.65131 0.29175 0.32960 -0.56300
O 	O 	0.73866 0.29710 0.41724 -0.51400
O 	O 	0.64281 0.46176 0.40702 -0.55100
O 	O 	0.75799 0.66662 0.21336 -0.69300
O 	O 	0.77720 0.06580 0.47537 -0.54600
H 	H 	0.81630 0.05340 0.48850 0.26300
V 	V 	0.06010 0.92237 0.43582 1.70700
V 	V 	0.22124 0.09173 0.27766 1.69700
V 	V 	0.17378 0.59627 0.32716 1.70000
P 	P 	0.05812 0.18526 0.50456 0.49200
P 	P 	0.10606 0.62882 0.43935 0.54900
P 	P 	0.21448 0.87688 0.17482 0.53100
P 	P 	0.18970 0.88417 0.37631 0.56800
O 	O 	0.09489 0.05460 0.49701 -0.50200
O 	O 	0.09255 0.24730 0.56415 -0.19500
O 	O 	0.06716 0.28530 0.45863 -0.22700
O 	O 	0.98564 0.15867 0.50453 -0.51600
O 	O 	0.15515 0.68690 0.49044 -0.48600
O 	O 	0.06362 0.73970 0.40800 -0.56300
O 	O 	0.06039 0.53360 0.46633 -0.17400
O 	O 	0.14037 0.54985 0.39861 -0.50500
O 	O 	0.22410 0.91769 0.23872 -0.58900
O 	O 	0.14482 0.91166 0.14386 -0.28500
O 	O 	0.26459 0.94960 0.14489 -0.51100
O 	O 	0.22580 0.72492 0.17126 -0.50400
O 	O 	0.23112 0.98719 0.35031 -0.49300
O 	O 	0.15131 0.79175 0.32960 -0.56300
O 	O 	0.23866 0.79710 0.41724 -0.51400
O 	O 	0.14281 0.96176 0.40702 -0.55100
O 	O 	0.25799 0.16662 0.21336 -0.69400
O 	O 	0.27720 0.56580 0.47537 -0.54600
H 	H 	0.31630 0.55340 0.48850 0.26200
V 	V 	0.43990 0.42237 0.06418 1.70300
V 	V 	0.27876 0.59173 0.22234 1.69800
V 	V 	0.32622 0.09627 0.17284 1.70000
P 	P 	0.44188 0.68526 0.99544 0.58600
P 	P 	0.39394 0.12882 0.06065 0.55100
P 	P 	0.28552 0.37688 0.32518 0.53100
P 	P 	0.31030 0.38417 0.12369 0.56800
O 	O 	0.40511 0.55460 0.00299 -0.56900
O 	O 	0.40745 0.74730 0.93585 -0.18900
O 	O 	0.43284 0.78530 0.04137 -0.28000
O 	O 	0.51436 0.65867 0.99547 -0.50300
O 	O 	0.34485 0.18690 0.00956 -0.51200
O 	O 	0.43638 0.23970 0.09200 -0.56700
O 	O 	0.43961 0.03360 0.03367 -0.19600
O 	O 	0.35963 0.04985 0.10139 -0.50900
O 	O 	0.27590 0.41769 0.26128 -0.59000
O 	O 	0.35518 0.41166 0.35614 -0.27800
O 	O 	0.23541 0.44960 0.35511 -0.50700
O 	O 	0.27420 0.22492 0.32874 -0.50000
O 	O 	0.26888 0.48719 0.14969 -0.50000
O 	O 	0.34869 0.29175 0.17040 -0.56300
O 	O 	0.26134 0.29710 0.08276 -0.52900
O 	O 	0.35719 0.46176 0.09298 -0.56200
O 	O 	0.24201 0.66662 0.28664 -0.69200
O 	O 	0.22280 0.06580 0.02463 -0.55800
H 	H 	0.18370 0.05340 0.01150 0.23300
V 	V 	0.93990 0.92237 0.06418 1.70400
V 	V 	0.77876 0.09173 0.22234 1.69700
V 	V 	0.82622 0.59627 0.17284 1.70100
P 	P 	0.94188 0.18526 0.99544 0.58300
P 	P 	0.89394 0.62882 0.06065 0.55100
P 	P 	0.78552 0.87688 0.32518 0.53100
P 	P 	0.81030 0.88417 0.12369 0.56800
O 	O 	0.90511 0.05460 0.00299 -0.56700
O 	O 	0.90745 0.24730 0.93585 -0.18800
O 	O 	0.93284 0.28530 0.04137 -0.28000
O 	O 	0.01436 0.15867 0.99547 -0.50100
O 	O 	0.84485 0.68690 0.00956 -0.51100
O 	O 	0.93638 0.73970 0.09200 -0.56600
O 	O 	0.93961 0.53360 0.03367 -0.19600
O 	O 	0.85963 0.54985 0.10139 -0.50900
O 	O 	0.77590 0.91769 0.26128 -0.58900
O 	O 	0.85518 0.91166 0.35614 -0.27700
O 	O 	0.73541 0.94960 0.35511 -0.50700
O 	O 	0.77420 0.72492 0.32874 -0.50000
O 	O 	0.76888 0.98719 0.14969 -0.49900
O 	O 	0.84869 0.79175 0.17040 -0.56300
O 	O 	0.76134 0.79710 0.08276 -0.52800
O 	O 	0.85719 0.96176 0.09298 -0.56100
O 	O 	0.74201 0.16662 0.28664 -0.69200
O 	O 	0.72280 0.56580 0.02463 -0.55700
H 	H 	0.68370 0.55340 0.01150 0.23400
V 	V 	0.25000 0.75000 0.50000 1.78300
V 	V 	0.75000 0.75000 -0.00000 1.75700
V 	V 	0.75000 0.25000 0.50000 1.78300
V 	V 	0.25000 0.25000 -0.00000 1.75600
