data_crystal

_cell_length_a 24.54400
_cell_length_b 15.45500
_cell_length_c 19.43100
_cell_angle_alpha 90.00000
_cell_angle_beta  117.55100
_cell_angle_gamma 90.00000

_symmetry_space_group_name_	'P 1'
_symmetry_space_group_name_H-M	'P 1'

loop_
_symmetry_equiv_pos_as_xyz
  x,y,z

loop_
_atom_site_label
_atom_site_type_symbol
_atom_site_fract_x
_atom_site_fract_y
_atom_site_fract_z
_atom_site_charge
Mn	Mn	0.86132 0.83864 0.92139 1.28300
O 	O 	0.81770 0.90320 0.81520 -0.48500
O 	O 	0.70700 0.23940 0.60750 -0.43600
O 	O 	0.82420 0.10580 0.48960 -0.41800
O 	O 	0.07120 0.24590 0.09670 -0.55700
O 	O 	0.06960 0.24730 0.98240 -0.38400
C 	C 	0.83090 0.89880 0.75980 0.42600
Mn	Mn	0.88032 0.70501 0.78541 1.29900
O 	O 	0.85730 0.83750 0.74770 -0.54300
C 	C 	0.81210 0.97310 0.70430 -0.19700
O 	O 	0.70380 0.18050 0.70960 -0.45900
O 	O 	0.90040 0.57380 0.82680 -0.45000
O 	O 	0.96510 0.69970 0.77020 -0.99400
C 	C 	0.83710 0.97700 0.65240 0.11000
C 	C 	0.77540 0.04030 0.70690 0.11000
C 	C 	0.93420 0.50870 0.83980 0.40900
H 	H 	0.86320 0.93360 0.65200 -0.05500
C 	C 	0.82210 0.04780 0.60100 -0.16200
C 	C 	0.76060 0.11010 0.65440 -0.16800
H 	H 	0.76070 0.03930 0.74320 0.01600
O 	O 	0.96110 0.48660 0.80200 -0.46700
C 	C 	0.94330 0.45220 0.90730 -0.13200
O 	O 	0.91640 0.42380 0.13490 -0.42000
C 	C 	0.84870 0.05030 0.54470 0.36700
C 	C 	0.78270 0.11050 0.60250 0.11400
C 	C 	0.72100 0.18270 0.65740 0.41900
C 	C 	0.91040 0.47030 0.95030 0.07600
C 	C 	0.98530 0.38840 0.93190 0.00700
O 	O 	0.89440 0.00610 0.55820 -0.36300
H 	H 	0.77080 0.15490 0.56620 0.03400
H 	H 	0.88020 0.51290 0.93310 0.03000
C 	C 	0.92320 0.42480 0.01660 -0.15900
H 	H 	0.00570 0.37540 0.90300 0.09100
C 	C 	0.99940 0.34060 0.99930 -0.16800
C 	C 	0.96930 0.36030 0.04160 0.07600
C 	C 	0.89280 0.44630 0.06400 0.35000
C 	C 	0.04920 0.27510 0.02680 0.37200
H 	H 	0.97940 0.33080 0.08770 -0.02100
O 	O 	0.84100 0.48340 0.02940 -0.24600
H 	H 	0.02900 0.85710 0.73360 0.79500
H 	H 	0.01130 0.85710 0.80140 0.78900
H 	H 	0.95970 0.85710 0.71500 0.77000
Mn	Mn	0.36132 0.33864 0.92139 1.28400
O 	O 	0.31770 0.40320 0.81520 -0.48500
O 	O 	0.20700 0.73940 0.60750 -0.43500
O 	O 	0.32420 0.60580 0.48960 -0.41700
O 	O 	0.57120 0.74590 0.09670 -0.56300
O 	O 	0.56960 0.74730 0.98240 -0.38700
C 	C 	0.33090 0.39880 0.75980 0.42900
Mn	Mn	0.38032 0.20501 0.78541 1.30200
O 	O 	0.35730 0.33750 0.74770 -0.55400
C 	C 	0.31210 0.47310 0.70430 -0.20600
O 	O 	0.20380 0.68050 0.70960 -0.45900
O 	O 	0.40040 0.07380 0.82680 -0.44600
O 	O 	0.46510 0.19970 0.77020 -1.04900
C 	C 	0.33710 0.47700 0.65240 0.11900
C 	C 	0.27540 0.54030 0.70690 0.11700
C 	C 	0.43420 0.00870 0.83980 0.42200
H 	H 	0.36320 0.43360 0.65200 -0.07200
C 	C 	0.32210 0.54780 0.60100 -0.16800
C 	C 	0.26060 0.61010 0.65440 -0.17100
H 	H 	0.26070 0.53930 0.74320 0.01500
O 	O 	0.46110 0.98660 0.80200 -0.44700
C 	C 	0.44330 0.95220 0.90730 -0.15900
O 	O 	0.41640 0.92380 0.13490 -0.41000
C 	C 	0.34870 0.55030 0.54470 0.37100
C 	C 	0.28270 0.61050 0.60250 0.11900
C 	C 	0.22100 0.68270 0.65740 0.42000
C 	C 	0.41040 0.97030 0.95030 0.10200
C 	C 	0.48530 0.88840 0.93190 0.09400
O 	O 	0.39440 0.50610 0.55820 -0.36900
H 	H 	0.27080 0.65490 0.56620 0.03300
H 	H 	0.38020 0.01290 0.93310 0.02300
C 	C 	0.42320 0.92480 0.01660 -0.16400
H 	H 	0.50570 0.87540 0.90300 0.03000
C 	C 	0.49940 0.84060 0.99930 -0.14900
C 	C 	0.46930 0.86030 0.04160 0.07500
C 	C 	0.39280 0.94630 0.06400 0.35300
C 	C 	0.54920 0.77510 0.02680 0.33700
H 	H 	0.47940 0.83080 0.08770 -0.00700
O 	O 	0.34100 0.98340 0.02940 -0.24600
H 	H 	0.52900 0.35710 0.73360 0.94300
H 	H 	0.51130 0.35710 0.80140 0.93100
H 	H 	0.45970 0.35710 0.71500 0.94000
Mn	Mn	0.13868 0.83864 0.57861 1.28600
O 	O 	0.18230 0.90320 0.68480 -0.48100
O 	O 	0.29300 0.23940 0.89250 -0.43400
O 	O 	0.17580 0.10580 0.01040 -0.41600
O 	O 	0.92880 0.24590 0.40330 -0.56400
O 	O 	0.93040 0.24730 0.51760 -0.39300
C 	C 	0.16910 0.89880 0.74020 0.42800
Mn	Mn	0.11968 0.70501 0.71459 1.30200
O 	O 	0.14270 0.83750 0.75230 -0.53900
C 	C 	0.18790 0.97310 0.79570 -0.19300
O 	O 	0.29620 0.18050 0.79040 -0.45700
O 	O 	0.09960 0.57380 0.67320 -0.44700
O 	O 	0.03490 0.69970 0.72980 -0.95000
C 	C 	0.16290 0.97700 0.84760 0.11200
C 	C 	0.22460 0.04030 0.79310 0.11000
C 	C 	0.06580 0.50870 0.66020 0.44200
H 	H 	0.13680 0.93360 0.84800 -0.05100
C 	C 	0.17790 0.04780 0.89900 -0.15700
C 	C 	0.23940 0.11010 0.84560 -0.16400
H 	H 	0.23930 0.03930 0.75680 0.01800
O 	O 	0.03890 0.48660 0.69800 -0.43700
C 	C 	0.05670 0.45220 0.59270 -0.18800
O 	O 	0.08360 0.42380 0.36510 -0.40300
C 	C 	0.15130 0.05030 0.95530 0.36900
C 	C 	0.21730 0.11050 0.89750 0.11400
C 	C 	0.27900 0.18270 0.84260 0.41900
C 	C 	0.08960 0.47030 0.54970 0.11200
C 	C 	0.01470 0.38840 0.56810 0.18600
O 	O 	0.10560 0.00610 0.94180 -0.34600
H 	H 	0.22920 0.15490 0.93380 0.03600
H 	H 	0.11980 0.51290 0.56690 0.02200
C 	C 	0.07680 0.42480 0.48340 -0.16000
H 	H 	0.99430 0.37540 0.59700 -0.03200
C 	C 	0.00060 0.34060 0.50070 -0.14300
C 	C 	0.03070 0.36030 0.45840 0.08600
C 	C 	0.10720 0.44630 0.43600 0.35600
C 	C 	0.95080 0.27510 0.47320 0.31600
H 	H 	0.02060 0.33080 0.41230 0.00500
O 	O 	0.15900 0.48340 0.47060 -0.24200
H 	H 	0.97100 0.85710 0.76640 0.72000
H 	H 	0.98870 0.85710 0.69860 0.70700
H 	H 	0.04030 0.85710 0.78500 0.74100
Mn	Mn	0.63868 0.33864 0.57861 1.28300
O 	O 	0.68230 0.40320 0.68480 -0.48600
O 	O 	0.79300 0.73940 0.89250 -0.43500
O 	O 	0.67580 0.60580 0.01040 -0.42100
O 	O 	0.42880 0.74590 0.40330 -0.56500
O 	O 	0.43040 0.74730 0.51760 -0.39400
C 	C 	0.66910 0.39880 0.74020 0.42900
Mn	Mn	0.61968 0.20501 0.71459 1.30200
O 	O 	0.64270 0.33750 0.75230 -0.55500
C 	C 	0.68790 0.47310 0.79570 -0.20700
O 	O 	0.79620 0.68050 0.79040 -0.46000
O 	O 	0.59960 0.07380 0.67320 -0.44600
O 	O 	0.53490 0.19970 0.72980 -1.04900
C 	C 	0.66290 0.47700 0.84760 0.12000
C 	C 	0.72460 0.54030 0.79310 0.11700
C 	C 	0.56580 0.00870 0.66020 0.42400
H 	H 	0.63680 0.43360 0.84800 -0.07200
C 	C 	0.67790 0.54780 0.89900 -0.16900
C 	C 	0.73940 0.61010 0.84560 -0.17200
H 	H 	0.73930 0.53930 0.75680 0.01400
O 	O 	0.53890 0.98660 0.69800 -0.44800
C 	C 	0.55670 0.95220 0.59270 -0.16000
O 	O 	0.58360 0.92380 0.36510 -0.41000
C 	C 	0.65130 0.55030 0.95530 0.37500
C 	C 	0.71730 0.61050 0.89750 0.12000
C 	C 	0.77900 0.68270 0.84260 0.42000
C 	C 	0.58960 0.97030 0.54970 0.09300
C 	C 	0.51470 0.88840 0.56810 0.09800
O 	O 	0.60560 0.50610 0.94180 -0.36900
H 	H 	0.72920 0.65490 0.93380 0.03300
H 	H 	0.61980 0.01290 0.56690 0.02600
C 	C 	0.57680 0.92480 0.48340 -0.15900
H 	H 	0.49430 0.87540 0.59700 0.02800
C 	C 	0.50060 0.84060 0.50070 -0.16200
C 	C 	0.53070 0.86030 0.45840 0.08400
C 	C 	0.60720 0.94630 0.43600 0.35200
C 	C 	0.45080 0.77510 0.47320 0.34900
H 	H 	0.52060 0.83080 0.41230 -0.01000
O 	O 	0.65900 0.98340 0.47060 -0.24300
H 	H 	0.47100 0.35710 0.76640 0.94300
H 	H 	0.48870 0.35710 0.69860 0.93100
H 	H 	0.54030 0.35710 0.78500 0.94000
Mn	Mn	0.13868 0.16136 0.07861 1.28600
O 	O 	0.18230 0.09680 0.18480 -0.48100
O 	O 	0.29300 0.76060 0.39250 -0.43400
O 	O 	0.17580 0.89420 0.51040 -0.41300
O 	O 	0.92880 0.75410 0.90330 -0.56600
O 	O 	0.93040 0.75270 0.01760 -0.39900
C 	C 	0.16910 0.10120 0.24020 0.42800
Mn	Mn	0.11968 0.29499 0.21459 1.30200
O 	O 	0.14270 0.16250 0.25230 -0.53900
C 	C 	0.18790 0.02690 0.29570 -0.19300
O 	O 	0.29620 0.81950 0.29040 -0.45800
O 	O 	0.09960 0.42620 0.17320 -0.44800
O 	O 	0.03490 0.30030 0.22980 -0.95300
C 	C 	0.16290 0.02300 0.34760 0.11000
C 	C 	0.22460 0.95970 0.29310 0.11000
C 	C 	0.06580 0.49130 0.16020 0.44200
H 	H 	0.13680 0.06640 0.34800 -0.05100
C 	C 	0.17790 0.95220 0.39900 -0.15500
C 	C 	0.23940 0.88990 0.34560 -0.16400
H 	H 	0.23930 0.96070 0.25680 0.01700
O 	O 	0.03890 0.51340 0.19800 -0.43700
C 	C 	0.05670 0.54780 0.09270 -0.18900
O 	O 	0.08360 0.57620 0.86510 -0.40300
C 	C 	0.15130 0.94970 0.45530 0.36600
C 	C 	0.21730 0.88950 0.39750 0.11300
C 	C 	0.27900 0.81730 0.34260 0.41900
C 	C 	0.08960 0.52970 0.04970 0.10800
C 	C 	0.01470 0.61160 0.06810 0.18900
O 	O 	0.10560 0.99390 0.44180 -0.34600
H 	H 	0.22920 0.84510 0.43380 0.03600
H 	H 	0.11980 0.48710 0.06690 0.02200
C 	C 	0.07680 0.57520 0.98340 -0.15800
H 	H 	0.99430 0.62460 0.09700 -0.03200
C 	C 	0.00060 0.65940 0.00070 -0.15900
C 	C 	0.03070 0.63970 0.95840 0.09800
C 	C 	0.10720 0.55370 0.93600 0.35600
C 	C 	0.95080 0.72490 0.97320 0.32900
H 	H 	0.02060 0.66920 0.91230 0.00200
O 	O 	0.15900 0.51660 0.97060 -0.24100
H 	H 	0.97100 0.14290 0.26640 0.72600
H 	H 	0.98870 0.14290 0.19860 0.71300
H 	H 	0.04030 0.14290 0.28500 0.74600
Mn	Mn	0.63868 0.66136 0.07861 1.28300
O 	O 	0.68230 0.59680 0.18480 -0.48600
O 	O 	0.79300 0.26060 0.39250 -0.43600
O 	O 	0.67580 0.39420 0.51040 -0.41800
O 	O 	0.42880 0.25410 0.90330 -0.56700
O 	O 	0.43040 0.25270 0.01760 -0.39700
C 	C 	0.66910 0.60120 0.24020 0.42900
Mn	Mn	0.61968 0.79499 0.21459 1.30200
O 	O 	0.64270 0.66250 0.25230 -0.55500
C 	C 	0.68790 0.52690 0.29570 -0.20700
O 	O 	0.79620 0.31950 0.29040 -0.46000
O 	O 	0.59960 0.92620 0.17320 -0.44600
O 	O 	0.53490 0.80030 0.22980 -1.04900
C 	C 	0.66290 0.52300 0.34760 0.11900
C 	C 	0.72460 0.45970 0.29310 0.11700
C 	C 	0.56580 0.99130 0.16020 0.42300
H 	H 	0.63680 0.56640 0.34800 -0.07200
C 	C 	0.67790 0.45220 0.39900 -0.16900
C 	C 	0.73940 0.38990 0.34560 -0.17200
H 	H 	0.73930 0.46070 0.25680 0.01400
O 	O 	0.53890 0.01340 0.19800 -0.44700
C 	C 	0.55670 0.04780 0.09270 -0.16200
O 	O 	0.58360 0.07620 0.86510 -0.41000
C 	C 	0.65130 0.44970 0.45530 0.37100
C 	C 	0.71730 0.38950 0.39750 0.12000
C 	C 	0.77900 0.31730 0.34260 0.42000
C 	C 	0.58960 0.02970 0.04970 0.09600
C 	C 	0.51470 0.11160 0.06810 0.10200
O 	O 	0.60560 0.49390 0.44180 -0.36900
H 	H 	0.72920 0.34510 0.43380 0.03200
H 	H 	0.61980 0.98710 0.06690 0.02300
C 	C 	0.57680 0.07520 0.98340 -0.16200
H 	H 	0.49430 0.12460 0.09700 0.02700
C 	C 	0.50060 0.15940 0.00070 -0.17000
C 	C 	0.53070 0.13970 0.95840 0.09000
C 	C 	0.60720 0.05370 0.93600 0.35300
C 	C 	0.45080 0.22490 0.97320 0.35600
H 	H 	0.52060 0.16920 0.91230 -0.01200
O 	O 	0.65900 0.01660 0.97060 -0.24300
H 	H 	0.47100 0.64290 0.26640 0.94200
H 	H 	0.48870 0.64290 0.19860 0.93000
H 	H 	0.54030 0.64290 0.28500 0.93900
Mn	Mn	0.86132 0.16136 0.42139 1.28300
O 	O 	0.81770 0.09680 0.31520 -0.48500
O 	O 	0.70700 0.76060 0.10750 -0.43600
O 	O 	0.82420 0.89420 0.98960 -0.41300
O 	O 	0.07120 0.75410 0.59670 -0.55800
O 	O 	0.06960 0.75270 0.48240 -0.39000
C 	C 	0.83090 0.10120 0.25980 0.42600
Mn	Mn	0.88032 0.29499 0.28541 1.29900
O 	O 	0.85730 0.16250 0.24770 -0.54300
C 	C 	0.81210 0.02690 0.20430 -0.19700
O 	O 	0.70380 0.81950 0.20960 -0.45900
O 	O 	0.90040 0.42620 0.32680 -0.45000
O 	O 	0.96510 0.30030 0.27020 -0.99600
C 	C 	0.83710 0.02300 0.15240 0.11100
C 	C 	0.77540 0.95970 0.20690 0.11000
C 	C 	0.93420 0.49130 0.33980 0.40900
H 	H 	0.86320 0.06640 0.15200 -0.05600
C 	C 	0.82210 0.95220 0.10100 -0.16300
C 	C 	0.76060 0.88990 0.15440 -0.16800
H 	H 	0.76070 0.96070 0.24320 0.01600
O 	O 	0.96110 0.51340 0.30200 -0.46700
C 	C 	0.94330 0.54780 0.40730 -0.13500
O 	O 	0.91640 0.57620 0.63490 -0.42100
C 	C 	0.84870 0.94970 0.04470 0.36300
C 	C 	0.78270 0.88950 0.10250 0.11300
C 	C 	0.72100 0.81730 0.15740 0.41900
C 	C 	0.91040 0.52970 0.45030 0.07500
C 	C 	0.98530 0.61160 0.43190 0.01200
O 	O 	0.89440 0.99390 0.05820 -0.36400
H 	H 	0.77080 0.84510 0.06620 0.03300
H 	H 	0.88020 0.48710 0.43310 0.03000
C 	C 	0.92320 0.57520 0.51660 -0.15900
H 	H 	0.00570 0.62460 0.40300 0.08800
C 	C 	0.99940 0.65940 0.49930 -0.17900
C 	C 	0.96930 0.63970 0.54160 0.08200
C 	C 	0.89280 0.55370 0.56400 0.35000
C 	C 	0.04920 0.72490 0.52680 0.38200
H 	H 	0.97940 0.66920 0.58770 -0.02300
O 	O 	0.84100 0.51660 0.52940 -0.24400
H 	H 	0.02900 0.14290 0.23360 0.79900
H 	H 	0.01130 0.14290 0.30140 0.79300
H 	H 	0.95970 0.14290 0.21500 0.77500
Mn	Mn	0.36132 0.66136 0.42139 1.28300
O 	O 	0.31770 0.59680 0.31520 -0.48500
O 	O 	0.20700 0.26060 0.10750 -0.43600
O 	O 	0.32420 0.39420 0.98960 -0.41400
O 	O 	0.57120 0.25410 0.59670 -0.56500
O 	O 	0.56960 0.25270 0.48240 -0.39400
C 	C 	0.33090 0.60120 0.25980 0.42800
Mn	Mn	0.38032 0.79499 0.28541 1.30200
O 	O 	0.35730 0.66250 0.24770 -0.55500
C 	C 	0.31210 0.52690 0.20430 -0.20600
O 	O 	0.20380 0.31950 0.20960 -0.45900
O 	O 	0.40040 0.92620 0.32680 -0.44600
O 	O 	0.46510 0.80030 0.27020 -1.04800
C 	C 	0.33710 0.52300 0.15240 0.11800
C 	C 	0.27540 0.45970 0.20690 0.11600
C 	C 	0.43420 0.99130 0.33980 0.42300
H 	H 	0.36320 0.56640 0.15200 -0.07200
C 	C 	0.32210 0.45220 0.10100 -0.16700
C 	C 	0.26060 0.38990 0.15440 -0.17100
H 	H 	0.26070 0.46070 0.24320 0.01500
O 	O 	0.46110 0.01340 0.30200 -0.44800
C 	C 	0.44330 0.04780 0.40730 -0.16000
O 	O 	0.41640 0.07620 0.63490 -0.41000
C 	C 	0.34870 0.44970 0.04470 0.36700
C 	C 	0.28270 0.38950 0.10250 0.11800
C 	C 	0.22100 0.31730 0.15740 0.42000
C 	C 	0.41040 0.02970 0.45030 0.09300
C 	C 	0.48530 0.11160 0.43190 0.09800
O 	O 	0.39440 0.49390 0.05820 -0.36900
H 	H 	0.27080 0.34510 0.06620 0.03200
H 	H 	0.38020 0.98710 0.43310 0.02600
C 	C 	0.42320 0.07520 0.51660 -0.16000
H 	H 	0.50570 0.12460 0.40300 0.02800
C 	C 	0.49940 0.15940 0.49930 -0.16200
C 	C 	0.46930 0.13970 0.54160 0.08400
C 	C 	0.39280 0.05370 0.56400 0.35200
C 	C 	0.54920 0.22490 0.52680 0.34900
H 	H 	0.47940 0.16920 0.58770 -0.01000
O 	O 	0.34100 0.01660 0.52940 -0.24300
H 	H 	0.52900 0.64290 0.23360 0.94200
H 	H 	0.51130 0.64290 0.30140 0.93000
H 	H 	0.45970 0.64290 0.21500 0.93900
Mn	Mn	-0.00000 0.56802 0.75000 1.33000
C 	C 	-0.00000 0.74020 0.75000 1.77700
C 	C 	-0.00000 0.83640 0.75000 -4.45400
Mn	Mn	0.50000 0.06802 0.75000 1.31400
C 	C 	0.50000 0.24020 0.75000 2.05300
C 	C 	0.50000 0.33640 0.75000 -5.53900
Mn	Mn	0.00000 0.43198 0.25000 1.33000
C 	C 	0.00000 0.25980 0.25000 1.78500
C 	C 	0.00000 0.16360 0.25000 -4.48500
Mn	Mn	0.50000 0.93198 0.25000 1.31400
C 	C 	0.50000 0.75980 0.25000 2.05100
C 	C 	0.50000 0.66360 0.25000 -5.53300
