data_crystal

_cell_length_a 10.86100
_cell_length_b 6.39140
_cell_length_c 17.00300
_cell_angle_alpha 90.00000
_cell_angle_beta  105.82800
_cell_angle_gamma 90.00000

_symmetry_space_group_name_	'P 1'
_symmetry_space_group_name_H-M	'P 1'

loop_
_symmetry_equiv_pos_as_xyz
  x,y,z

loop_
_atom_site_label
_atom_site_type_symbol
_atom_site_fract_x
_atom_site_fract_y
_atom_site_fract_z
_atom_site_charge
Zn	Zn	0.46915 0.99808 0.08438 1.18900
O 	O 	0.34450 0.53230 0.04990 -0.50200
O 	O 	0.27600 0.86080 0.03460 -0.48000
O 	O 	0.35970 0.62790 0.34460 -0.50000
O 	O 	0.38250 0.96070 0.38080 -0.46700
O 	O 	0.55510 0.80940 0.01670 -0.75900
H 	H 	0.64690 0.80940 0.04460 0.17800
C 	C 	0.25660 0.67010 0.03600 0.41700
C 	C 	0.12350 0.58370 0.01990 -0.26100
C 	C 	0.03640 0.65270 0.06200 0.15300
C 	C 	0.91360 0.56890 0.03920 -0.21800
H 	H 	0.85390 0.61800 0.06500 0.09600
C 	C 	0.07610 0.80230 0.13110 -0.11900
C 	C 	0.01870 0.99360 0.13100 0.13300
H 	H 	0.94940 0.03090 0.08760 -0.03300
C 	C 	0.06370 0.13100 0.19530 -0.20400
H 	H 	0.02530 0.26130 0.19460 0.10000
C 	C 	0.16550 0.07560 0.26040 0.04700
H 	H 	0.19660 0.17090 0.30240 0.00500
C 	C 	0.22200 0.88040 0.26410 -0.14200
C 	C 	0.17560 0.74420 0.19840 0.04800
H 	H 	0.21190 0.61200 0.19960 0.01300
C 	C 	0.33060 0.81540 0.33530 0.41600
Zn	Zn	0.53085 0.49808 0.41562 1.18700
O 	O 	0.65550 0.03230 0.45010 -0.49400
O 	O 	0.72400 0.36080 0.46540 -0.46200
O 	O 	0.64030 0.12790 0.15540 -0.52200
O 	O 	0.61750 0.46070 0.11920 -0.50000
O 	O 	0.44490 0.30940 0.48330 -0.74300
H 	H 	0.35310 0.30940 0.45540 0.17500
C 	C 	0.74340 0.17010 0.46400 0.40600
C 	C 	0.87650 0.08370 0.48010 -0.20300
C 	C 	0.96360 0.15270 0.43800 0.12900
C 	C 	0.08640 0.06890 0.46080 -0.17300
H 	H 	0.14610 0.11800 0.43500 0.07900
C 	C 	0.92390 0.30230 0.36890 -0.07100
C 	C 	0.98130 0.49360 0.36900 0.03200
H 	H 	0.05060 0.53090 0.41240 0.02600
C 	C 	0.93630 0.63100 0.30470 -0.12100
H 	H 	0.97470 0.76130 0.30540 0.09000
C 	C 	0.83450 0.57560 0.23960 0.05800
H 	H 	0.80340 0.67090 0.19760 0.01300
C 	C 	0.77800 0.38040 0.23590 -0.16300
C 	C 	0.82440 0.24420 0.30160 0.03000
H 	H 	0.78810 0.11200 0.30040 0.01400
C 	C 	0.66940 0.31540 0.16470 0.42200
Zn	Zn	0.53085 0.00192 0.91562 1.18400
O 	O 	0.65550 0.46770 0.95010 -0.43300
O 	O 	0.72400 0.13920 0.96540 -0.42300
O 	O 	0.64030 0.37210 0.65540 -0.49700
O 	O 	0.61750 0.03930 0.61920 -0.50100
O 	O 	0.44490 0.19060 0.98330 -0.71100
H 	H 	0.35310 0.19060 0.95540 0.18200
C 	C 	0.74340 0.32990 0.96400 0.32400
C 	C 	0.87650 0.41630 0.98010 0.06400
C 	C 	0.96360 0.34730 0.93800 -0.08700
C 	C 	0.08640 0.43110 0.96080 0.14900
H 	H 	0.14610 0.38200 0.93500 -0.01200
C 	C 	0.92390 0.19770 0.86890 0.11500
C 	C 	0.98130 0.00640 0.86900 -0.23300
H 	H 	0.05060 0.96910 0.91240 0.15700
C 	C 	0.93630 0.86900 0.80470 0.08100
H 	H 	0.97470 0.73870 0.80540 0.01700
C 	C 	0.83450 0.92440 0.73960 -0.02500
H 	H 	0.80340 0.82910 0.69760 0.04900
C 	C 	0.77800 0.11960 0.73590 -0.11000
C 	C 	0.82440 0.25580 0.80160 -0.08600
H 	H 	0.78810 0.38800 0.80040 0.06200
C 	C 	0.66940 0.18460 0.66470 0.40000
Zn	Zn	0.46915 0.50192 0.58438 1.18600
O 	O 	0.34450 0.96770 0.54990 -0.44300
O 	O 	0.27600 0.63920 0.53460 -0.44200
O 	O 	0.35970 0.87210 0.84460 -0.47100
O 	O 	0.38250 0.53930 0.88080 -0.46500
O 	O 	0.55510 0.69060 0.51670 -0.73000
H 	H 	0.64690 0.69060 0.54460 0.18600
C 	C 	0.25660 0.82990 0.53600 0.33600
C 	C 	0.12350 0.91630 0.51990 0.00700
C 	C 	0.03640 0.84730 0.56200 -0.05900
C 	C 	0.91360 0.93110 0.53920 0.10000
H 	H 	0.85390 0.88200 0.56500 0.00700
C 	C 	0.07610 0.69770 0.63110 0.06500
C 	C 	0.01870 0.50640 0.63100 -0.12700
H 	H 	0.94940 0.46910 0.58760 0.09400
C 	C 	0.06370 0.36900 0.69530 -0.00600
H 	H 	0.02530 0.23870 0.69460 0.02600
C 	C 	0.16550 0.42440 0.76040 -0.03700
H 	H 	0.19660 0.32910 0.80240 0.04000
C 	C 	0.22200 0.61960 0.76410 -0.08800
C 	C 	0.17560 0.75580 0.69840 -0.06800
H 	H 	0.21190 0.88800 0.69960 0.06200
C 	C 	0.33060 0.68460 0.83530 0.39300
Zn	Zn	0.50000 0.50000 -0.00000 1.22000
Zn	Zn	0.50000 0.00000 0.50000 1.22900
