data_crystal

_cell_length_a 12.20600
_cell_length_b 17.83300
_cell_length_c 15.30900
_cell_angle_alpha 90.00000
_cell_angle_beta  111.22900
_cell_angle_gamma 90.00000

_symmetry_space_group_name_	'P 1'
_symmetry_space_group_name_H-M	'P 1'

loop_
_symmetry_equiv_pos_as_xyz
  x,y,z

loop_
_atom_site_label
_atom_site_type_symbol
_atom_site_fract_x
_atom_site_fract_y
_atom_site_fract_z
_atom_site_charge
O 	O 	0.82170 0.45594 0.78200 -0.53600
Zn	Zn	0.26397 0.37688 0.22924 1.25000
Zn	Zn	0.03388 0.48662 0.20590 1.20100
O 	O 	0.11930 0.34222 0.13930 -0.55700
O 	O 	0.99560 0.43290 0.09310 -0.57000
O 	O 	0.68800 0.52837 0.80120 -0.52000
O 	O 	0.37720 0.19910 0.76720 -0.48400
O 	O 	0.35000 0.21110 0.62400 -0.33600
O 	O 	0.24890 0.39480 0.34910 -0.53000
O 	O 	0.08410 0.45110 0.33070 -0.57400
C 	C 	0.03160 0.37030 0.08380 0.50400
C 	C 	0.96810 0.32760 0.00070 -0.20300
C 	C 	0.01240 0.26340 0.98110 0.10400
H 	H 	0.08600 0.24690 0.02050 0.01300
C 	C 	0.95050 0.22270 0.90450 -0.15000
H 	H 	0.98140 0.17850 0.89090 0.08300
C 	C 	0.84380 0.24680 0.84820 0.03400
H 	H 	0.80170 0.21900 0.79540 0.01500
C 	C 	0.79610 0.31130 0.86700 -0.07200
C 	C 	0.86020 0.35160 0.94350 0.06200
H 	H 	0.82990 0.39600 0.95720 0.01800
C 	C 	0.67680 0.33220 0.80650 0.09400
C 	C 	0.64520 0.40340 0.77380 -0.15400
C 	C 	0.53120 0.41700 0.71790 -0.00100
H 	H 	0.50990 0.46560 0.69650 0.04200
C 	C 	0.44890 0.36350 0.69270 0.03000
C 	C 	0.48170 0.29220 0.72830 -0.08300
C 	C 	0.59340 0.27930 0.78460 -0.06300
H 	H 	0.61370 0.23150 0.80950 0.06200
C 	C 	0.72770 0.46670 0.78880 0.48100
C 	C 	0.39520 0.22970 0.70370 0.40800
C 	C 	0.33290 0.38265 0.63159 -0.01400
C 	C 	0.30970 0.38922 0.53609 0.02900
H 	H 	0.36720 0.37660 0.51210 0.04600
C 	C 	0.20060 0.41460 0.47644 -0.17200
C 	C 	0.11463 0.43340 0.51231 0.05100
H 	H 	0.04160 0.45040 0.47240 0.01900
C 	C 	0.13780 0.42680 0.60781 -0.08300
H 	H 	0.08030 0.43940 0.63180 0.04000
C 	C 	0.24690 0.40150 0.66746 -0.02800
H 	H 	0.26240 0.39710 0.73140 0.03300
C 	C 	0.17610 0.42050 0.37820 0.51000
O 	O 	0.17830 0.95594 0.71800 -0.53400
Zn	Zn	0.73603 0.87688 0.27076 1.24900
Zn	Zn	0.96612 0.98662 0.29410 1.19900
O 	O 	0.88070 0.84222 0.36070 -0.55600
O 	O 	0.00440 0.93290 0.40690 -0.56800
O 	O 	0.31200 0.02837 0.69880 -0.52300
O 	O 	0.62280 0.69910 0.73280 -0.48300
O 	O 	0.65000 0.71110 0.87600 -0.33600
O 	O 	0.75110 0.89480 0.15090 -0.53000
O 	O 	0.91590 0.95110 0.16930 -0.57400
C 	C 	0.96840 0.87030 0.41620 0.50000
C 	C 	0.03190 0.82760 0.49930 -0.19300
C 	C 	0.98760 0.76340 0.51890 0.07500
H 	H 	0.91400 0.74690 0.47950 0.02500
C 	C 	0.04950 0.72270 0.59550 -0.12300
H 	H 	0.01860 0.67850 0.60910 0.07400
C 	C 	0.15620 0.74680 0.65180 0.01700
H 	H 	0.19830 0.71900 0.70460 0.02100
C 	C 	0.20390 0.81130 0.63300 -0.06200
C 	C 	0.13980 0.85160 0.55650 0.05700
H 	H 	0.17010 0.89600 0.54280 0.02100
C 	C 	0.32320 0.83220 0.69350 0.09100
C 	C 	0.35480 0.90340 0.72620 -0.15400
C 	C 	0.46880 0.91700 0.78210 0.00000
H 	H 	0.49010 0.96560 0.80350 0.04300
C 	C 	0.55110 0.86350 0.80730 0.02900
C 	C 	0.51830 0.79220 0.77170 -0.08300
C 	C 	0.40660 0.77930 0.71540 -0.06100
H 	H 	0.38630 0.73150 0.69050 0.06200
C 	C 	0.27230 0.96670 0.71120 0.48500
C 	C 	0.60480 0.72970 0.79630 0.40800
C 	C 	0.66710 0.88265 0.86841 -0.01000
C 	C 	0.69030 0.88922 0.96391 0.02400
H 	H 	0.63280 0.87660 0.98790 0.04700
C 	C 	0.79940 0.91460 0.02356 -0.16600
C 	C 	0.88537 0.93340 0.98769 0.04000
H 	H 	0.95840 0.95040 0.02760 0.02300
C 	C 	0.86220 0.92680 0.89219 -0.07600
H 	H 	0.91970 0.93940 0.86820 0.03500
C 	C 	0.75310 0.90150 0.83254 -0.03300
H 	H 	0.73760 0.89710 0.76860 0.03500
C 	C 	0.82390 0.92050 0.12180 0.50700
O 	O 	0.17830 0.54406 0.21800 -0.53700
Zn	Zn	0.73603 0.62312 0.77076 1.24900
Zn	Zn	0.96612 0.51338 0.79410 1.20100
O 	O 	0.88070 0.65778 0.86070 -0.55700
O 	O 	0.00440 0.56710 0.90690 -0.57000
O 	O 	0.31200 0.47163 0.19880 -0.52000
O 	O 	0.62280 0.80090 0.23280 -0.48400
O 	O 	0.65000 0.78890 0.37600 -0.33600
O 	O 	0.75110 0.60520 0.65090 -0.53000
O 	O 	0.91590 0.54890 0.66930 -0.57400
C 	C 	0.96840 0.62970 0.91620 0.50400
C 	C 	0.03190 0.67240 0.99930 -0.20300
C 	C 	0.98760 0.73660 0.01890 0.10400
H 	H 	0.91400 0.75310 0.97950 0.01300
C 	C 	0.04950 0.77730 0.09550 -0.15000
H 	H 	0.01860 0.82150 0.10910 0.08300
C 	C 	0.15620 0.75320 0.15180 0.03400
H 	H 	0.19830 0.78100 0.20460 0.01500
C 	C 	0.20390 0.68870 0.13300 -0.07200
C 	C 	0.13980 0.64840 0.05650 0.06200
H 	H 	0.17010 0.60400 0.04280 0.01800
C 	C 	0.32320 0.66780 0.19350 0.09400
C 	C 	0.35480 0.59660 0.22620 -0.15400
C 	C 	0.46880 0.58300 0.28210 -0.00100
H 	H 	0.49010 0.53440 0.30350 0.04200
C 	C 	0.55110 0.63650 0.30730 0.03000
C 	C 	0.51830 0.70780 0.27170 -0.08300
C 	C 	0.40660 0.72070 0.21540 -0.06300
H 	H 	0.38630 0.76850 0.19050 0.06200
C 	C 	0.27230 0.53330 0.21120 0.48100
C 	C 	0.60480 0.77030 0.29630 0.40800
C 	C 	0.66710 0.61735 0.36841 -0.01400
C 	C 	0.69030 0.61078 0.46391 0.02900
H 	H 	0.63280 0.62340 0.48790 0.04600
C 	C 	0.79940 0.58540 0.52356 -0.17200
C 	C 	0.88537 0.56660 0.48769 0.05100
H 	H 	0.95840 0.54960 0.52760 0.01900
C 	C 	0.86220 0.57320 0.39219 -0.08300
H 	H 	0.91970 0.56060 0.36820 0.04000
C 	C 	0.75310 0.59850 0.33254 -0.02800
H 	H 	0.73760 0.60290 0.26860 0.03300
C 	C 	0.82390 0.57950 0.62180 0.51000
O 	O 	0.82170 0.04406 0.28200 -0.53400
Zn	Zn	0.26397 0.12312 0.72924 1.24900
Zn	Zn	0.03388 0.01338 0.70590 1.19900
O 	O 	0.11930 0.15778 0.63930 -0.55600
O 	O 	0.99560 0.06710 0.59310 -0.56800
O 	O 	0.68800 0.97163 0.30120 -0.52300
O 	O 	0.37720 0.30090 0.26720 -0.48300
O 	O 	0.35000 0.28890 0.12400 -0.33600
O 	O 	0.24890 0.10520 0.84910 -0.53000
O 	O 	0.08410 0.04890 0.83070 -0.57400
C 	C 	0.03160 0.12970 0.58380 0.50000
C 	C 	0.96810 0.17240 0.50070 -0.19300
C 	C 	0.01240 0.23660 0.48110 0.07500
H 	H 	0.08600 0.25310 0.52050 0.02500
C 	C 	0.95050 0.27730 0.40450 -0.12300
H 	H 	0.98140 0.32150 0.39090 0.07400
C 	C 	0.84380 0.25320 0.34820 0.01700
H 	H 	0.80170 0.28100 0.29540 0.02100
C 	C 	0.79610 0.18870 0.36700 -0.06200
C 	C 	0.86020 0.14840 0.44350 0.05700
H 	H 	0.82990 0.10400 0.45720 0.02100
C 	C 	0.67680 0.16780 0.30650 0.09100
C 	C 	0.64520 0.09660 0.27380 -0.15400
C 	C 	0.53120 0.08300 0.21790 0.00000
H 	H 	0.50990 0.03440 0.19650 0.04300
C 	C 	0.44890 0.13650 0.19270 0.02900
C 	C 	0.48170 0.20780 0.22830 -0.08300
C 	C 	0.59340 0.22070 0.28460 -0.06100
H 	H 	0.61370 0.26850 0.30950 0.06200
C 	C 	0.72770 0.03330 0.28880 0.48500
C 	C 	0.39520 0.27030 0.20370 0.40800
C 	C 	0.33290 0.11735 0.13159 -0.01000
C 	C 	0.30970 0.11078 0.03609 0.02400
H 	H 	0.36720 0.12340 0.01210 0.04700
C 	C 	0.20060 0.08540 0.97644 -0.16600
C 	C 	0.11463 0.06660 0.01231 0.04000
H 	H 	0.04160 0.04960 0.97240 0.02300
C 	C 	0.13780 0.07320 0.10781 -0.07600
H 	H 	0.08030 0.06060 0.13180 0.03500
C 	C 	0.24690 0.09850 0.16746 -0.03300
H 	H 	0.26240 0.10290 0.23140 0.03500
C 	C 	0.17610 0.07950 0.87820 0.50700
