data_crystal

_cell_length_a 15.82060
_cell_length_b 9.02950
_cell_length_c 18.30050
_cell_angle_alpha 90.00000
_cell_angle_beta  90.00000
_cell_angle_gamma 90.00000

_symmetry_space_group_name_	'P 1'
_symmetry_space_group_name_H-M	'P 1'

loop_
_symmetry_equiv_pos_as_xyz
  x,y,z

loop_
_atom_site_label
_atom_site_type_symbol
_atom_site_fract_x
_atom_site_fract_y
_atom_site_fract_z
_atom_site_charge
V 	V 	0.20914 0.24857 0.16342 1.73100
V 	V 	0.78752 0.24621 0.08746 1.73100
P 	P 	0.25759 0.50750 0.03592 0.52700
P 	P 	0.24452 0.00390 0.28658 0.53400
P 	P 	0.00380 0.34080 0.10802 0.56100
O 	O 	0.30510 0.10360 0.32960 -0.50900
O 	O 	0.18270 0.09600 0.23990 -0.49900
O 	O 	0.20120 0.40600 0.08280 -0.50600
O 	O 	0.19690 0.60550 0.99230 -0.52200
O 	O 	0.06570 0.27580 0.16140 -0.36500
O 	O 	0.93090 0.24050 0.08860 -0.36500
O 	O 	0.19020 0.91250 0.33950 -0.51900
O 	O 	0.31710 0.59770 0.08490 -0.42900
O 	O 	0.31370 0.41400 0.98460 -0.49500
O 	O 	0.30020 0.90500 0.24010 -0.45400
O 	O 	0.96850 0.49150 0.14000 -0.34200
H 	H 	0.90910 0.48600 0.15000 0.20700
O 	O 	0.05070 0.38530 0.03610 -0.35500
H 	H 	0.09200 0.46200 0.02900 0.21700
Nb	Nb	0.29086 0.74857 0.16342 1.40000
V 	V 	0.29086 0.75143 0.66342 1.73200
V 	V 	0.71248 0.75379 0.58746 1.73300
P 	P 	0.24241 0.49250 0.53592 0.53000
P 	P 	0.25548 0.99610 0.78658 0.53600
P 	P 	0.49620 0.65920 0.60802 0.56700
O 	O 	0.19490 0.89640 0.82960 -0.50900
O 	O 	0.31730 0.90400 0.73990 -0.49800
O 	O 	0.29880 0.59400 0.58280 -0.50600
O 	O 	0.30310 0.39450 0.49230 -0.52400
O 	O 	0.43430 0.72420 0.66140 -0.36500
O 	O 	0.56910 0.75950 0.58860 -0.36800
O 	O 	0.30980 0.08750 0.83950 -0.52000
O 	O 	0.18290 0.40230 0.58490 -0.42900
O 	O 	0.18630 0.58600 0.48460 -0.49600
O 	O 	0.19980 0.09500 0.74010 -0.45600
O 	O 	0.53150 0.50850 0.64000 -0.34600
H 	H 	0.59090 0.51400 0.65000 0.20700
O 	O 	0.44930 0.61470 0.53610 -0.35400
H 	H 	0.40800 0.53800 0.52900 0.21800
Nb	Nb	0.20914 0.25143 0.66342 1.40000
V 	V 	0.79086 0.74857 0.33658 1.73200
V 	V 	0.21248 0.74621 0.41254 1.73300
P 	P 	0.74241 0.00750 0.46408 0.53100
P 	P 	0.75548 0.50390 0.21342 0.53800
P 	P 	0.99620 0.84080 0.39198 0.56500
O 	O 	0.69490 0.60360 0.17040 -0.50900
O 	O 	0.81730 0.59600 0.26010 -0.49700
O 	O 	0.79880 0.90600 0.41720 -0.50600
O 	O 	0.80310 0.10550 0.50770 -0.52300
O 	O 	0.93430 0.77580 0.33860 -0.36400
O 	O 	0.06910 0.74050 0.41140 -0.36700
O 	O 	0.80980 0.41250 0.16050 -0.52100
O 	O 	0.68290 0.09770 0.41510 -0.43000
O 	O 	0.68630 0.91400 0.51540 -0.49700
O 	O 	0.69980 0.40500 0.25990 -0.45700
O 	O 	0.03150 0.99150 0.36000 -0.34400
H 	H 	0.09090 0.98600 0.35000 0.20700
O 	O 	0.94930 0.88530 0.46390 -0.35500
H 	H 	0.90800 0.96200 0.47100 0.21700
Nb	Nb	0.70914 0.24857 0.33658 1.40000
V 	V 	0.70914 0.25143 0.83658 1.73200
V 	V 	0.28752 0.25379 0.91254 1.73300
P 	P 	0.75759 0.99250 0.96408 0.52100
P 	P 	0.74452 0.49610 0.71342 0.53800
P 	P 	0.50380 0.15920 0.89198 0.56700
O 	O 	0.80510 0.39640 0.67040 -0.50900
O 	O 	0.68270 0.40400 0.76010 -0.49800
O 	O 	0.70120 0.09400 0.91720 -0.50300
O 	O 	0.69690 0.89450 0.00770 -0.52000
O 	O 	0.56570 0.22420 0.83860 -0.36400
O 	O 	0.43090 0.25950 0.91140 -0.36800
O 	O 	0.69020 0.58750 0.66050 -0.52100
O 	O 	0.81710 0.90230 0.91510 -0.43000
O 	O 	0.81370 0.08600 0.01540 -0.49400
O 	O 	0.80020 0.59500 0.75990 -0.45700
O 	O 	0.46850 0.00850 0.86000 -0.34500
H 	H 	0.40910 0.01400 0.85000 0.20700
O 	O 	0.55070 0.11470 0.96390 -0.35400
H 	H 	0.59200 0.03800 0.97100 0.21800
Nb	Nb	0.79086 0.75143 0.83658 1.39900
V 	V 	0.21248 0.75379 0.91254 1.73300
P 	P 	0.74241 0.49250 0.96408 0.52300
P 	P 	0.75548 0.99610 0.71342 0.53800
P 	P 	0.99620 0.65920 0.89198 0.55300
O 	O 	0.69490 0.89640 0.67040 -0.50100
O 	O 	0.81730 0.90400 0.76010 -0.44300
O 	O 	0.79880 0.59400 0.91720 -0.45000
O 	O 	0.80310 0.39450 0.00770 -0.52900
O 	O 	0.93430 0.72420 0.83860 -0.32400
O 	O 	0.06910 0.75950 0.91140 -0.36500
O 	O 	0.80980 0.08750 0.66050 -0.52600
O 	O 	0.68290 0.40230 0.91510 -0.48600
O 	O 	0.68630 0.58600 0.01540 -0.48800
O 	O 	0.69980 0.09500 0.75990 -0.51200
O 	O 	0.03150 0.50850 0.86000 -0.34500
H 	H 	0.09090 0.51400 0.85000 0.20500
O 	O 	0.94930 0.61470 0.96390 -0.35000
H 	H 	0.90800 0.53800 0.97100 0.21300
V 	V 	0.28752 0.24621 0.41254 1.73300
P 	P 	0.75759 0.50750 0.46408 0.52600
P 	P 	0.74452 0.00390 0.21342 0.54100
P 	P 	0.50380 0.34080 0.39198 0.55800
O 	O 	0.80510 0.10360 0.17040 -0.50000
O 	O 	0.68270 0.09600 0.26010 -0.44200
O 	O 	0.70120 0.40600 0.41720 -0.45000
O 	O 	0.69690 0.60550 0.50770 -0.53100
O 	O 	0.56570 0.27580 0.33860 -0.32300
O 	O 	0.43090 0.24050 0.41140 -0.36800
O 	O 	0.69020 0.91250 0.16050 -0.52700
O 	O 	0.81710 0.59770 0.41510 -0.48600
O 	O 	0.81370 0.41400 0.51540 -0.49000
O 	O 	0.80020 0.90500 0.25990 -0.51400
O 	O 	0.46850 0.49150 0.36000 -0.34800
H 	H 	0.40910 0.48600 0.35000 0.20500
O 	O 	0.55070 0.38530 0.46390 -0.34900
H 	H 	0.59200 0.46200 0.47100 0.21400
V 	V 	0.78752 0.25379 0.58746 1.73300
P 	P 	0.25759 0.99250 0.53592 0.52700
P 	P 	0.24452 0.49610 0.78658 0.54300
P 	P 	0.00380 0.15920 0.60802 0.55600
O 	O 	0.30510 0.39640 0.82960 -0.50100
O 	O 	0.18270 0.40400 0.73990 -0.44100
O 	O 	0.20120 0.09400 0.58280 -0.45000
O 	O 	0.19690 0.89450 0.49230 -0.53100
O 	O 	0.06570 0.22420 0.66140 -0.32300
O 	O 	0.93090 0.25950 0.58860 -0.36700
O 	O 	0.19020 0.58750 0.83950 -0.52800
O 	O 	0.31710 0.90230 0.58490 -0.48600
O 	O 	0.31370 0.08600 0.48460 -0.49000
O 	O 	0.30020 0.59500 0.74010 -0.51500
O 	O 	0.96850 0.00850 0.64000 -0.34600
H 	H 	0.90910 0.01400 0.65000 0.20600
O 	O 	0.05070 0.11470 0.53610 -0.34900
H 	H 	0.09200 0.03800 0.52900 0.21300
V 	V 	0.71248 0.74621 0.08746 1.73300
P 	P 	0.24241 0.00750 0.03592 0.51700
P 	P 	0.25548 0.50390 0.28658 0.54300
P 	P 	0.49620 0.84080 0.10802 0.55800
O 	O 	0.19490 0.60360 0.32960 -0.50100
O 	O 	0.31730 0.59600 0.23990 -0.44200
O 	O 	0.29880 0.90600 0.08280 -0.44700
O 	O 	0.30310 0.10550 0.99230 -0.52700
O 	O 	0.43430 0.77580 0.16140 -0.32300
O 	O 	0.56910 0.74050 0.08860 -0.36800
O 	O 	0.30980 0.41250 0.33950 -0.52800
O 	O 	0.18290 0.09770 0.08490 -0.48700
O 	O 	0.18630 0.91400 0.98460 -0.48700
O 	O 	0.19980 0.40500 0.24010 -0.51500
O 	O 	0.53150 0.99150 0.14000 -0.34700
H 	H 	0.59090 0.98600 0.15000 0.20500
O 	O 	0.44930 0.88530 0.03610 -0.34900
H 	H 	0.40800 0.96200 0.02900 0.21400
