data_crystal

_cell_length_a 11.68960
_cell_length_b 11.68960
_cell_length_c 9.23570
_cell_angle_alpha 90.00000
_cell_angle_beta  90.00000
_cell_angle_gamma 90.00000

_symmetry_space_group_name_	'P 1'
_symmetry_space_group_name_H-M	'P 1'

loop_
_symmetry_equiv_pos_as_xyz
  x,y,z

loop_
_atom_site_label
_atom_site_type_symbol
_atom_site_fract_x
_atom_site_fract_y
_atom_site_fract_z
_atom_site_charge
Bi	Bi	-0.00000 0.75000 0.12500 1.88300
Bi	Bi	0.50000 0.25000 0.62500 1.91100
Bi	Bi	0.50000 0.75000 0.37500 1.91100
Bi	Bi	0.00000 0.25000 0.87500 1.88300
O 	O 	0.00000 0.62620 0.90900 -0.37600
O 	O 	-0.00000 0.45360 0.82000 -0.41000
C 	C 	-0.00000 0.51900 0.92300 0.22400
O 	O 	0.50000 0.12620 0.40900 -0.33500
O 	O 	0.50000 0.95360 0.32000 -0.36200
C 	C 	0.50000 0.01900 0.42300 0.23400
O 	O 	0.50000 0.37380 0.40900 -0.33500
O 	O 	0.50000 0.54640 0.32000 -0.36100
C 	C 	0.50000 0.48100 0.42300 0.23400
O 	O 	-0.00000 0.87380 0.90900 -0.37600
O 	O 	-0.00000 0.04640 0.82000 -0.41100
C 	C 	0.00000 0.98100 0.92300 0.22600
O 	O 	0.62380 0.75000 0.15900 -0.33100
O 	O 	0.79640 0.75000 0.07000 -0.30000
C 	C 	0.73100 0.75000 0.17300 0.23900
O 	O 	0.87620 0.25000 0.65900 -0.25400
O 	O 	0.70360 0.25000 0.57000 -0.34200
C 	C 	0.76900 0.25000 0.67300 0.23200
O 	O 	0.50000 0.62620 0.59100 -0.33500
O 	O 	0.50000 0.45360 0.68000 -0.36100
C 	C 	0.50000 0.51900 0.57700 0.23400
O 	O 	-0.00000 0.12620 0.09100 -0.37600
O 	O 	0.00000 0.95360 0.18000 -0.41100
C 	C 	-0.00000 0.01900 0.07700 0.22600
O 	O 	0.00000 0.37380 0.09100 -0.37600
O 	O 	-0.00000 0.54640 0.18000 -0.41000
C 	C 	-0.00000 0.48100 0.07700 0.22400
O 	O 	0.50000 0.87380 0.59100 -0.33500
O 	O 	0.50000 0.04640 0.68000 -0.36200
C 	C 	0.50000 0.98100 0.57700 0.23400
O 	O 	0.87620 0.75000 0.34100 -0.25400
O 	O 	0.70360 0.75000 0.43000 -0.34200
C 	C 	0.76900 0.75000 0.32700 0.23200
O 	O 	0.62380 0.25000 0.84100 -0.33100
O 	O 	0.79640 0.25000 0.93000 -0.30000
C 	C 	0.73100 0.25000 0.82700 0.23900
O 	O 	0.37620 0.25000 0.84100 -0.33800
O 	O 	0.20360 0.25000 0.93000 -0.36800
C 	C 	0.26900 0.25000 0.82700 0.22600
O 	O 	0.12380 0.75000 0.34100 -0.37300
O 	O 	0.29640 0.75000 0.43000 -0.37600
C 	C 	0.23100 0.75000 0.32700 0.23900
O 	O 	0.12380 0.25000 0.65900 -0.37300
O 	O 	0.29640 0.25000 0.57000 -0.37600
C 	C 	0.23100 0.25000 0.67300 0.23900
O 	O 	0.37620 0.75000 0.15900 -0.33800
O 	O 	0.20360 0.75000 0.07000 -0.36800
C 	C 	0.26900 0.75000 0.17300 0.22600
