data_crystal

_cell_length_a 20.13990
_cell_length_b 12.65270
_cell_length_c 21.14730
_cell_angle_alpha 90.00000
_cell_angle_beta  110.70200
_cell_angle_gamma 90.00000

_symmetry_space_group_name_	'P 1'
_symmetry_space_group_name_H-M	'P 1'

loop_
_symmetry_equiv_pos_as_xyz
  x,y,z

loop_
_atom_site_label
_atom_site_type_symbol
_atom_site_fract_x
_atom_site_fract_y
_atom_site_fract_z
_atom_site_charge
O 	O 	0.93320 0.67840 0.77130 -0.45300
O 	O 	0.57900 0.07600 0.77860 -0.45900
O 	O 	0.55650 0.66130 0.72770 -0.45500
O 	O 	0.95570 0.25390 0.85230 -0.66600
O 	O 	0.50760 0.37300 0.56770 -0.47400
O 	O 	0.71790 0.14580 0.82400 -0.49000
O 	O 	0.85760 0.11150 0.85460 -0.46000
O 	O 	0.81390 0.68210 0.93890 -0.45700
O 	O 	0.79990 0.10230 0.95580 -0.45000
O 	O 	0.88690 0.26130 0.95110 -0.67600
O 	O 	0.62090 0.36970 0.93670 -0.45000
O 	O 	0.85400 0.48530 0.91300 -0.68600
O 	O 	0.81460 0.29990 0.81530 -0.89600
O 	O 	0.71790 0.45080 0.80480 -0.84500
O 	O 	0.78550 0.44240 0.71890 -0.82200
O 	O 	0.61880 0.28870 0.81320 -0.55100
O 	O 	0.92470 0.48150 0.82500 -0.66300
O 	O 	0.69140 0.64590 0.82360 -0.44100
O 	O 	0.55970 0.24880 0.68380 -0.50600
O 	O 	0.65200 0.09710 0.69020 -0.45300
O 	O 	0.79750 0.63280 0.67840 -0.49600
O 	O 	0.67580 0.64700 0.56360 -0.48800
O 	O 	0.93630 0.07940 0.77300 -0.44400
O 	O 	0.79420 0.13390 0.71770 -0.46100
O 	O 	0.88540 0.28410 0.71950 -0.53500
O 	O 	0.59920 0.49510 0.82160 -0.50000
O 	O 	0.72080 0.50910 0.92220 -0.47200
O 	O 	0.73960 0.29930 0.90990 -0.57500
O 	O 	0.67290 0.60180 0.69350 -0.50300
O 	O 	0.62460 0.23870 0.59300 -0.49400
O 	O 	0.64760 0.44450 0.60790 -0.53300
O 	O 	0.89730 0.48930 0.69190 -0.48900
O 	O 	0.77190 0.47390 0.59120 -0.50300
O 	O 	0.76170 0.27090 0.61910 -0.51800
O 	O 	0.58330 0.45280 0.69560 -0.53500
O 	O 	0.81640 0.61890 0.80950 -0.49400
O 	O 	0.36680 0.30260 0.61280 -0.25200
O 	O 	0.17370 0.39550 0.81750 -0.26000
O 	O 	0.03350 0.54050 0.96240 -0.87200
O 	O 	0.31210 0.12240 0.48070 -0.27500
O 	O 	0.06590 0.42210 0.90780 -0.75600
O 	O 	0.69300 0.29430 0.71610 -0.84600
Na	Na	0.40540 0.24650 0.52100 0.58300
Si	Si	0.75320 0.37030 0.76480 2.21400
Y 	Y 	0.95490 0.39011 0.92668 2.38600
Cs	Cs	0.18910 0.23840 0.43090 0.71700
Cs	Cs	0.67270 0.15720 0.98940 0.71000
Cs	Cs	0.47220 0.36850 0.73890 0.73500
Cs	Cs	0.02710 0.38220 0.76820 0.72800
W 	W 	0.58713 0.34890 0.63120 1.31400
W 	W 	0.62390 0.57214 0.75383 1.33200
W 	W 	0.66282 0.39250 0.87871 1.30200
W 	W 	0.80792 0.19742 0.90072 1.30000
W 	W 	0.78516 0.57701 0.88274 1.30800
W 	W 	0.63032 0.17010 0.76023 1.29700
W 	W 	0.83854 0.37361 0.64629 1.00200
W 	W 	0.88856 0.18227 0.79023 1.30300
W 	W 	0.87517 0.57169 0.76149 1.28600
W 	W 	0.71559 0.56019 0.63005 1.27900
W 	W 	0.71257 0.16357 0.64758 1.04700
C 	C 	0.07590 0.51040 0.93360 0.92200
C 	C 	0.13100 0.58180 0.92890 -1.58700
H 	H 	0.11260 0.62280 0.88820 0.48500
H 	H 	0.14560 0.62810 0.96730 0.49100
H 	H 	0.17100 0.54120 0.92820 0.49000
O 	O 	0.06680 0.17840 0.72870 -0.45000
O 	O 	0.42100 0.57600 0.72140 -0.45600
O 	O 	0.44350 0.16130 0.77230 -0.45400
O 	O 	0.04430 0.75390 0.64770 -0.66400
O 	O 	0.49240 0.87300 0.93230 -0.47200
O 	O 	0.28210 0.64580 0.67600 -0.49000
O 	O 	0.14240 0.61150 0.64540 -0.45900
O 	O 	0.18610 0.18210 0.56110 -0.45600
O 	O 	0.20010 0.60230 0.54420 -0.44700
O 	O 	0.11310 0.76130 0.54890 -0.67400
O 	O 	0.37910 0.86970 0.56330 -0.44900
O 	O 	0.14600 0.98530 0.58700 -0.68200
O 	O 	0.18540 0.79990 0.68470 -0.89600
O 	O 	0.28210 0.95080 0.69520 -0.84200
O 	O 	0.21450 0.94240 0.78110 -0.81800
O 	O 	0.38120 0.78870 0.68680 -0.55100
O 	O 	0.07530 0.98150 0.67500 -0.65700
O 	O 	0.30860 0.14590 0.67640 -0.44000
O 	O 	0.44030 0.74880 0.81620 -0.50600
O 	O 	0.34800 0.59710 0.80980 -0.45300
O 	O 	0.20250 0.13280 0.82160 -0.49500
O 	O 	0.32420 0.14700 0.93640 -0.48800
O 	O 	0.06370 0.57940 0.72700 -0.44300
O 	O 	0.20580 0.63390 0.78230 -0.46100
O 	O 	0.11460 0.78410 0.78050 -0.53400
O 	O 	0.40080 0.99510 0.67840 -0.49800
O 	O 	0.27920 0.00910 0.57780 -0.47300
O 	O 	0.26040 0.79930 0.59010 -0.57400
O 	O 	0.32710 0.10180 0.80650 -0.50200
O 	O 	0.37540 0.73870 0.90700 -0.49300
O 	O 	0.35240 0.94450 0.89210 -0.52900
O 	O 	0.10270 0.98930 0.80810 -0.48300
O 	O 	0.22810 0.97390 0.90880 -0.49800
O 	O 	0.23830 0.77090 0.88090 -0.51800
O 	O 	0.41670 0.95280 0.80440 -0.53200
O 	O 	0.18360 0.11890 0.69050 -0.49300
O 	O 	0.63320 0.80260 0.88720 -0.25200
O 	O 	0.82630 0.89550 0.68250 -0.26000
O 	O 	0.96650 0.04050 0.53760 -0.87500
O 	O 	0.68790 0.62240 0.01930 -0.27400
O 	O 	0.93410 0.92210 0.59220 -0.76100
O 	O 	0.30700 0.79430 0.78390 -0.84600
Na	Na	0.59460 0.74650 0.97900 0.58300
Si	Si	0.24680 0.87030 0.73520 2.21300
Y 	Y 	0.04510 0.89011 0.57332 2.38700
Cs	Cs	0.81090 0.73840 0.06910 0.71700
Cs	Cs	0.32730 0.65720 0.51060 0.71100
Cs	Cs	0.52780 0.86850 0.76110 0.73500
Cs	Cs	0.97290 0.88220 0.73180 0.72700
W 	W 	0.41287 0.84890 0.86880 1.31300
W 	W 	0.37610 0.07214 0.74617 1.32400
W 	W 	0.33718 0.89250 0.62129 1.30400
W 	W 	0.19208 0.69742 0.59928 1.30000
W 	W 	0.21484 0.07701 0.61726 1.30100
W 	W 	0.36968 0.67010 0.73977 1.29700
W 	W 	0.16146 0.87361 0.85371 1.00400
W 	W 	0.11144 0.68227 0.70977 1.30400
W 	W 	0.12483 0.07169 0.73851 1.27200
W 	W 	0.28441 0.06019 0.86995 1.26600
W 	W 	0.28743 0.66357 0.85242 1.04800
C 	C 	0.92410 0.01040 0.56640 0.92600
C 	C 	0.86900 0.08180 0.57110 -1.59000
H 	H 	0.88740 0.12280 0.61180 0.48500
H 	H 	0.85440 0.12810 0.53270 0.48900
H 	H 	0.82900 0.04120 0.57180 0.49100
O 	O 	0.06680 0.32160 0.22870 -0.45200
O 	O 	0.42100 0.92400 0.22140 -0.45800
O 	O 	0.44350 0.33870 0.27230 -0.45500
O 	O 	0.04430 0.74610 0.14770 -0.66600
O 	O 	0.49240 0.62700 0.43230 -0.47400
O 	O 	0.28210 0.85420 0.17600 -0.49000
O 	O 	0.14240 0.88850 0.14540 -0.46000
O 	O 	0.18610 0.31790 0.06110 -0.45700
O 	O 	0.20010 0.89770 0.04420 -0.45000
O 	O 	0.11310 0.73870 0.04890 -0.67600
O 	O 	0.37910 0.63030 0.06330 -0.45000
O 	O 	0.14600 0.51470 0.08700 -0.68600
O 	O 	0.18540 0.70010 0.18470 -0.89600
O 	O 	0.28210 0.54920 0.19520 -0.84500
O 	O 	0.21450 0.55760 0.28110 -0.82200
O 	O 	0.38120 0.71130 0.18680 -0.55100
O 	O 	0.07530 0.51850 0.17500 -0.66300
O 	O 	0.30860 0.35410 0.17640 -0.44100
O 	O 	0.44030 0.75120 0.31620 -0.50600
O 	O 	0.34800 0.90290 0.30980 -0.45300
O 	O 	0.20250 0.36720 0.32160 -0.49600
O 	O 	0.32420 0.35300 0.43640 -0.48800
O 	O 	0.06370 0.92060 0.22700 -0.44400
O 	O 	0.20580 0.86610 0.28230 -0.46100
O 	O 	0.11460 0.71590 0.28050 -0.53500
O 	O 	0.40080 0.50490 0.17840 -0.50000
O 	O 	0.27920 0.49090 0.07780 -0.47200
O 	O 	0.26040 0.70070 0.09010 -0.57500
O 	O 	0.32710 0.39820 0.30650 -0.50300
O 	O 	0.37540 0.76130 0.40700 -0.49400
O 	O 	0.35240 0.55550 0.39210 -0.53300
O 	O 	0.10270 0.51070 0.30810 -0.48900
O 	O 	0.22810 0.52610 0.40880 -0.50300
O 	O 	0.23830 0.72910 0.38090 -0.51800
O 	O 	0.41670 0.54720 0.30440 -0.53500
O 	O 	0.18360 0.38110 0.19050 -0.49400
O 	O 	0.63320 0.69740 0.38720 -0.25200
O 	O 	0.82630 0.60450 0.18250 -0.26000
O 	O 	0.96650 0.45950 0.03760 -0.87200
O 	O 	0.68790 0.87760 0.51930 -0.27500
O 	O 	0.93410 0.57790 0.09220 -0.75600
O 	O 	0.30700 0.70570 0.28390 -0.84600
Na	Na	0.59460 0.75350 0.47900 0.58300
Si	Si	0.24680 0.62970 0.23520 2.21400
Y 	Y 	0.04510 0.60989 0.07332 2.38600
Cs	Cs	0.81090 0.76160 0.56910 0.71700
Cs	Cs	0.32730 0.84280 0.01060 0.71000
Cs	Cs	0.52780 0.63150 0.26110 0.73500
Cs	Cs	0.97290 0.61780 0.23180 0.72800
W 	W 	0.41287 0.65110 0.36880 1.31400
W 	W 	0.37610 0.42786 0.24617 1.33200
W 	W 	0.33718 0.60750 0.12129 1.30200
W 	W 	0.19208 0.80258 0.09928 1.30000
W 	W 	0.21484 0.42299 0.11726 1.30800
W 	W 	0.36968 0.82990 0.23977 1.29700
W 	W 	0.16146 0.62639 0.35371 1.00200
W 	W 	0.11144 0.81773 0.20977 1.30300
W 	W 	0.12483 0.42831 0.23851 1.28600
W 	W 	0.28441 0.43981 0.36995 1.27900
W 	W 	0.28743 0.83643 0.35242 1.04700
C 	C 	0.92410 0.48960 0.06640 0.92200
C 	C 	0.86900 0.41820 0.07110 -1.58700
H 	H 	0.88740 0.37720 0.11180 0.48500
H 	H 	0.85440 0.37190 0.03270 0.49100
H 	H 	0.82900 0.45880 0.07180 0.49000
O 	O 	0.93320 0.82160 0.27130 -0.45000
O 	O 	0.57900 0.42400 0.27860 -0.45600
O 	O 	0.55650 0.83870 0.22770 -0.45400
O 	O 	0.95570 0.24610 0.35230 -0.66400
O 	O 	0.50760 0.12700 0.06770 -0.47200
O 	O 	0.71790 0.35420 0.32400 -0.49000
O 	O 	0.85760 0.38850 0.35460 -0.45900
O 	O 	0.81390 0.81790 0.43890 -0.45600
O 	O 	0.79990 0.39770 0.45580 -0.44700
O 	O 	0.88690 0.23870 0.45110 -0.67400
O 	O 	0.62090 0.13030 0.43670 -0.44900
O 	O 	0.85400 0.01470 0.41300 -0.68200
O 	O 	0.81460 0.20010 0.31530 -0.89600
O 	O 	0.71790 0.04920 0.30480 -0.84200
O 	O 	0.78550 0.05760 0.21890 -0.81800
O 	O 	0.61880 0.21130 0.31320 -0.55100
O 	O 	0.92470 0.01850 0.32500 -0.65700
O 	O 	0.69140 0.85410 0.32360 -0.44000
O 	O 	0.55970 0.25120 0.18380 -0.50600
O 	O 	0.65200 0.40290 0.19020 -0.45300
O 	O 	0.79750 0.86720 0.17840 -0.49500
O 	O 	0.67580 0.85300 0.06360 -0.48800
O 	O 	0.93630 0.42060 0.27300 -0.44300
O 	O 	0.79420 0.36610 0.21770 -0.46100
O 	O 	0.88540 0.21590 0.21950 -0.53400
O 	O 	0.59920 0.00490 0.32160 -0.49800
O 	O 	0.72080 0.99090 0.42220 -0.47300
O 	O 	0.73960 0.20070 0.40990 -0.57400
O 	O 	0.67290 0.89820 0.19350 -0.50200
O 	O 	0.62460 0.26130 0.09300 -0.49300
O 	O 	0.64760 0.05550 0.10790 -0.52900
O 	O 	0.89730 0.01070 0.19190 -0.48300
O 	O 	0.77190 0.02610 0.09120 -0.49800
O 	O 	0.76170 0.22910 0.11910 -0.51800
O 	O 	0.58330 0.04720 0.19560 -0.53200
O 	O 	0.81640 0.88110 0.30950 -0.49300
O 	O 	0.36680 0.19740 0.11280 -0.25200
O 	O 	0.17370 0.10450 0.31750 -0.26000
O 	O 	0.03350 0.95950 0.46240 -0.87500
O 	O 	0.31210 0.37760 0.98070 -0.27400
O 	O 	0.06590 0.07790 0.40780 -0.76100
O 	O 	0.69300 0.20570 0.21610 -0.84600
Na	Na	0.40540 0.25350 0.02100 0.58300
Si	Si	0.75320 0.12970 0.26480 2.21300
Y 	Y 	0.95490 0.10989 0.42668 2.38700
Cs	Cs	0.18910 0.26160 0.93090 0.71700
Cs	Cs	0.67270 0.34280 0.48940 0.71100
Cs	Cs	0.47220 0.13150 0.23890 0.73500
Cs	Cs	0.02710 0.11780 0.26820 0.72700
W 	W 	0.58713 0.15110 0.13120 1.31300
W 	W 	0.62390 0.92786 0.25383 1.32400
W 	W 	0.66282 0.10750 0.37871 1.30400
W 	W 	0.80792 0.30258 0.40072 1.30000
W 	W 	0.78516 0.92299 0.38274 1.30100
W 	W 	0.63032 0.32990 0.26023 1.29700
W 	W 	0.83854 0.12639 0.14629 1.00400
W 	W 	0.88856 0.31773 0.29023 1.30400
W 	W 	0.87517 0.92831 0.26149 1.27200
W 	W 	0.71559 0.93981 0.13005 1.26600
W 	W 	0.71257 0.33643 0.14758 1.04800
C 	C 	0.07590 0.98960 0.43360 0.92600
C 	C 	0.13100 0.91820 0.42890 -1.59000
H 	H 	0.11260 0.87720 0.38820 0.48500
H 	H 	0.14560 0.87190 0.46730 0.48900
H 	H 	0.17100 0.95880 0.42820 0.49100
