data_crystal

_cell_length_a 20.12440
_cell_length_b 12.66190
_cell_length_c 21.15180
_cell_angle_alpha 90.00000
_cell_angle_beta  110.94600
_cell_angle_gamma 90.00000

_symmetry_space_group_name_	'P 1'
_symmetry_space_group_name_H-M	'P 1'

loop_
_symmetry_equiv_pos_as_xyz
  x,y,z

loop_
_atom_site_label
_atom_site_type_symbol
_atom_site_fract_x
_atom_site_fract_y
_atom_site_fract_z
_atom_site_charge
C 	C 	0.07430 0.99060 0.93280 0.71500
C 	C 	0.13350 0.91970 0.92830 -1.23700
H 	H 	0.14340 0.86560 0.96220 0.38800
H 	H 	0.11880 0.88780 0.88430 0.38700
H 	H 	0.17550 0.96110 0.93560 0.39400
O 	O 	0.50530 0.12900 0.56650 -0.45600
O 	O 	0.55530 0.83820 0.72780 -0.44000
O 	O 	0.67540 0.85660 0.56320 -0.49000
O 	O 	0.64890 0.05550 0.60950 -0.52200
O 	O 	0.58350 0.04660 0.69670 -0.52000
O 	O 	0.67260 0.90040 0.69430 -0.50200
O 	O 	0.76980 0.02510 0.59080 -0.49300
O 	O 	0.62310 0.26230 0.59240 -0.48000
O 	O 	0.55720 0.25430 0.68200 -0.48300
O 	O 	0.59740 0.00470 0.82280 -0.48300
O 	O 	0.69000 0.85240 0.82380 -0.44100
O 	O 	0.79640 0.86300 0.67810 -0.49000
O 	O 	0.68790 0.21030 0.71420 -0.68500
O 	O 	0.71580 0.04400 0.80890 -0.70700
O 	O 	0.78650 0.05090 0.71560 -0.68300
O 	O 	0.76210 0.22440 0.62020 -0.50900
O 	O 	0.65210 0.40280 0.69130 -0.44700
O 	O 	0.57770 0.42300 0.77730 -0.44200
O 	O 	0.61850 0.21030 0.81300 -0.53700
O 	O 	0.62220 0.13120 0.93730 -0.45100
O 	O 	0.72340 0.98910 0.92470 -0.46800
O 	O 	0.81360 0.81530 0.93990 -0.44700
O 	O 	0.81560 0.88190 0.81020 -0.49500
O 	O 	0.93280 0.81980 0.77330 -0.44700
O 	O 	0.89680 0.00770 0.69250 -0.48500
O 	O 	0.88370 0.21440 0.72120 -0.52600
O 	O 	0.79260 0.36080 0.71970 -0.45600
O 	O 	0.71670 0.34920 0.82350 -0.49600
O 	O 	0.74210 0.19830 0.91090 -0.55600
O 	O 	0.85260 0.01390 0.91360 -0.67100
O 	O 	0.92230 0.01580 0.82560 -0.66300
O 	O 	0.82180 0.20310 0.82250 -0.75900
O 	O 	0.93480 0.42030 0.77210 -0.43900
O 	O 	0.85690 0.38920 0.85660 -0.45300
O 	O 	0.79700 0.39790 0.95590 -0.44400
O 	O 	0.88770 0.24110 0.95480 -0.66600
O 	O 	0.95970 0.24730 0.85350 -0.65200
O 	O 	0.03210 0.95700 0.96200 -0.80500
O 	O 	0.06650 0.07970 0.90710 -0.67100
O 	O 	0.17560 0.10350 0.81910 -0.24700
O 	O 	0.36740 0.19890 0.61040 -0.24000
O 	O 	0.68470 0.87820 0.01970 -0.26300
Na	Na	0.40700 0.25550 0.52060 0.58500
K 	K 	0.80939 0.76290 0.06820 0.64800
K 	K 	0.47163 0.13150 0.73855 0.65900
Ge	Ge	0.75503 0.12850 0.76695 1.67400
Y 	Y 	0.95335 0.11049 0.92627 2.38400
W 	W 	0.58627 0.15086 0.63110 1.26800
W 	W 	0.62305 0.92723 0.75431 1.31500
W 	W 	0.71521 0.93871 0.63011 1.30200
W 	W 	0.83848 0.12490 0.64702 1.00100
W 	W 	0.71164 0.33549 0.64788 1.02800
W 	W 	0.63007 0.32854 0.76040 1.30500
W 	W 	0.66266 0.10557 0.87993 1.28600
W 	W 	0.78417 0.92035 0.88336 1.29900
W 	W 	0.87471 0.92614 0.76152 1.28000
W 	W 	0.88939 0.31811 0.79169 1.27000
W 	W 	0.80866 0.30278 0.90287 1.29700
Rb	Rb	0.02904 0.11838 0.76864 0.69200
Rb	Rb	0.67309 0.34138 0.98986 0.68000
C 	C 	0.92570 0.49060 0.56720 0.71100
C 	C 	0.86650 0.41970 0.57170 -1.23500
H 	H 	0.85660 0.36560 0.53780 0.38600
H 	H 	0.88120 0.38780 0.61570 0.38500
H 	H 	0.82450 0.46110 0.56440 0.39200
O 	O 	0.49470 0.62900 0.93350 -0.45700
O 	O 	0.44470 0.33820 0.77220 -0.44100
O 	O 	0.32460 0.35660 0.93680 -0.49100
O 	O 	0.35110 0.55550 0.89050 -0.52400
O 	O 	0.41650 0.54660 0.80330 -0.52300
O 	O 	0.32740 0.40040 0.80570 -0.50400
O 	O 	0.23020 0.52510 0.90920 -0.49500
O 	O 	0.37690 0.76230 0.90760 -0.48200
O 	O 	0.44280 0.75430 0.81800 -0.48500
O 	O 	0.40260 0.50470 0.67720 -0.48500
O 	O 	0.31000 0.35240 0.67620 -0.44300
O 	O 	0.20360 0.36300 0.82190 -0.49000
O 	O 	0.31210 0.71030 0.78580 -0.68500
O 	O 	0.28420 0.54400 0.69110 -0.70900
O 	O 	0.21350 0.55090 0.78440 -0.68600
O 	O 	0.23790 0.72440 0.87980 -0.50900
O 	O 	0.34790 0.90280 0.80870 -0.44700
O 	O 	0.42230 0.92300 0.72270 -0.44200
O 	O 	0.38150 0.71030 0.68700 -0.53700
O 	O 	0.37780 0.63120 0.56270 -0.45100
O 	O 	0.27660 0.48910 0.57530 -0.46500
O 	O 	0.18640 0.31530 0.56010 -0.44700
O 	O 	0.18440 0.38190 0.68980 -0.49600
O 	O 	0.06720 0.31980 0.72670 -0.44600
O 	O 	0.10320 0.50770 0.80750 -0.48700
O 	O 	0.11630 0.71440 0.77880 -0.52600
O 	O 	0.20740 0.86080 0.78030 -0.45600
O 	O 	0.28330 0.84920 0.67650 -0.49600
O 	O 	0.25790 0.69830 0.58910 -0.55600
O 	O 	0.14740 0.51390 0.58640 -0.67400
O 	O 	0.07770 0.51580 0.67440 -0.66600
O 	O 	0.17820 0.70310 0.67750 -0.75900
O 	O 	0.06520 0.92030 0.72790 -0.43800
O 	O 	0.14310 0.88920 0.64340 -0.45200
O 	O 	0.20300 0.89790 0.54410 -0.44300
O 	O 	0.11230 0.74110 0.54520 -0.66500
O 	O 	0.04030 0.74730 0.64650 -0.65100
O 	O 	0.96790 0.45700 0.53800 -0.80700
O 	O 	0.93350 0.57970 0.59290 -0.67100
O 	O 	0.82440 0.60350 0.68090 -0.24700
O 	O 	0.63260 0.69890 0.88960 -0.24000
O 	O 	0.31530 0.37820 0.48030 -0.26400
Na	Na	0.59300 0.75550 0.97940 0.58400
K 	K 	0.19061 0.26290 0.43180 0.64700
K 	K 	0.52837 0.63150 0.76145 0.65900
Ge	Ge	0.24497 0.62850 0.73305 1.67400
Y 	Y 	0.04665 0.61049 0.57373 2.38400
W 	W 	0.41373 0.65086 0.86890 1.26800
W 	W 	0.37695 0.42723 0.74569 1.31900
W 	W 	0.28479 0.43871 0.86989 1.30700
W 	W 	0.16152 0.62490 0.85298 1.00200
W 	W 	0.28836 0.83549 0.85212 1.02800
W 	W 	0.36993 0.82854 0.73960 1.30500
W 	W 	0.33734 0.60557 0.62007 1.28400
W 	W 	0.21583 0.42035 0.61664 1.30600
W 	W 	0.12529 0.42614 0.73848 1.29000
W 	W 	0.11061 0.81811 0.70831 1.27100
W 	W 	0.19134 0.80278 0.59713 1.29700
Rb	Rb	0.97096 0.61838 0.73136 0.69200
Rb	Rb	0.32691 0.84138 0.51014 0.68000
C 	C 	0.92570 0.00940 0.06720 0.71400
C 	C 	0.86650 0.08030 0.07170 -1.23800
H 	H 	0.85660 0.13440 0.03780 0.38700
H 	H 	0.88120 0.11220 0.11570 0.38600
H 	H 	0.82450 0.03890 0.06440 0.39300
O 	O 	0.49470 0.87100 0.43350 -0.45700
O 	O 	0.44470 0.16180 0.27220 -0.44100
O 	O 	0.32460 0.14340 0.43680 -0.49100
O 	O 	0.35110 0.94450 0.39050 -0.52300
O 	O 	0.41650 0.95340 0.30330 -0.52100
O 	O 	0.32740 0.09960 0.30570 -0.50300
O 	O 	0.23020 0.97490 0.40920 -0.49400
O 	O 	0.37690 0.73770 0.40760 -0.48100
O 	O 	0.44280 0.74570 0.31800 -0.48400
O 	O 	0.40260 0.99530 0.17720 -0.48400
O 	O 	0.31000 0.14760 0.17620 -0.44200
O 	O 	0.20360 0.13700 0.32190 -0.49000
O 	O 	0.31210 0.78970 0.28580 -0.68500
O 	O 	0.28420 0.95600 0.19110 -0.70700
O 	O 	0.21350 0.94910 0.28440 -0.68300
O 	O 	0.23790 0.77560 0.37980 -0.50900
O 	O 	0.34790 0.59720 0.30870 -0.44700
O 	O 	0.42230 0.57700 0.22270 -0.44200
O 	O 	0.38150 0.78970 0.18700 -0.53700
O 	O 	0.37780 0.86880 0.06270 -0.45100
O 	O 	0.27660 0.01090 0.07530 -0.46800
O 	O 	0.18640 0.18470 0.06010 -0.44700
O 	O 	0.18440 0.11810 0.18980 -0.49500
O 	O 	0.06720 0.18020 0.22670 -0.44700
O 	O 	0.10320 0.99230 0.30750 -0.48500
O 	O 	0.11630 0.78560 0.27880 -0.52600
O 	O 	0.20740 0.63920 0.28030 -0.45600
O 	O 	0.28330 0.65080 0.17650 -0.49600
O 	O 	0.25790 0.80170 0.08910 -0.55600
O 	O 	0.14740 0.98610 0.08640 -0.67100
O 	O 	0.07770 0.98420 0.17440 -0.66300
O 	O 	0.17820 0.79690 0.17750 -0.75900
O 	O 	0.06520 0.57970 0.22790 -0.43900
O 	O 	0.14310 0.61080 0.14340 -0.45300
O 	O 	0.20300 0.60210 0.04410 -0.44400
O 	O 	0.11230 0.75890 0.04520 -0.66600
O 	O 	0.04030 0.75270 0.14650 -0.65200
O 	O 	0.96790 0.04300 0.03800 -0.80500
O 	O 	0.93350 0.92030 0.09290 -0.67100
O 	O 	0.82440 0.89650 0.18090 -0.24700
O 	O 	0.63260 0.80110 0.38960 -0.24000
O 	O 	0.31530 0.12180 0.98030 -0.26300
Na	Na	0.59300 0.74450 0.47940 0.58500
K 	K 	0.19061 0.23710 0.93180 0.64800
K 	K 	0.52837 0.86850 0.26145 0.65900
Ge	Ge	0.24497 0.87150 0.23305 1.67400
Y 	Y 	0.04665 0.88951 0.07373 2.38400
W 	W 	0.41373 0.84914 0.36890 1.26800
W 	W 	0.37695 0.07277 0.24569 1.31500
W 	W 	0.28479 0.06129 0.36989 1.30200
W 	W 	0.16152 0.87510 0.35298 1.00100
W 	W 	0.28836 0.66451 0.35212 1.02800
W 	W 	0.36993 0.67146 0.23960 1.30500
W 	W 	0.33734 0.89443 0.12007 1.28600
W 	W 	0.21583 0.07965 0.11664 1.29900
W 	W 	0.12529 0.07386 0.23848 1.28000
W 	W 	0.11061 0.68189 0.20831 1.27000
W 	W 	0.19134 0.69722 0.09713 1.29700
Rb	Rb	0.97096 0.88162 0.23136 0.69200
Rb	Rb	0.32691 0.65862 0.01014 0.68000
C 	C 	0.07430 0.50940 0.43280 0.71100
C 	C 	0.13350 0.58030 0.42830 -1.23500
H 	H 	0.14340 0.63440 0.46220 0.38600
H 	H 	0.11880 0.61220 0.38430 0.38500
H 	H 	0.17550 0.53890 0.43560 0.39200
O 	O 	0.50530 0.37100 0.06650 -0.45700
O 	O 	0.55530 0.66180 0.22780 -0.44100
O 	O 	0.67540 0.64340 0.06320 -0.49100
O 	O 	0.64890 0.44450 0.10950 -0.52400
O 	O 	0.58350 0.45340 0.19670 -0.52300
O 	O 	0.67260 0.59960 0.19430 -0.50400
O 	O 	0.76980 0.47490 0.09080 -0.49500
O 	O 	0.62310 0.23770 0.09240 -0.48200
O 	O 	0.55720 0.24570 0.18200 -0.48500
O 	O 	0.59740 0.49530 0.32280 -0.48500
O 	O 	0.69000 0.64760 0.32380 -0.44300
O 	O 	0.79640 0.63700 0.17810 -0.49000
O 	O 	0.68790 0.28970 0.21420 -0.68500
O 	O 	0.71580 0.45600 0.30890 -0.70900
O 	O 	0.78650 0.44910 0.21560 -0.68600
O 	O 	0.76210 0.27560 0.12020 -0.50900
O 	O 	0.65210 0.09720 0.19130 -0.44700
O 	O 	0.57770 0.07700 0.27730 -0.44200
O 	O 	0.61850 0.28970 0.31300 -0.53700
O 	O 	0.62220 0.36880 0.43730 -0.45100
O 	O 	0.72340 0.51090 0.42470 -0.46500
O 	O 	0.81360 0.68470 0.43990 -0.44700
O 	O 	0.81560 0.61810 0.31020 -0.49600
O 	O 	0.93280 0.68020 0.27330 -0.44600
O 	O 	0.89680 0.49230 0.19250 -0.48700
O 	O 	0.88370 0.28560 0.22120 -0.52600
O 	O 	0.79260 0.13920 0.21970 -0.45600
O 	O 	0.71670 0.15080 0.32350 -0.49600
O 	O 	0.74210 0.30170 0.41090 -0.55600
O 	O 	0.85260 0.48610 0.41360 -0.67400
O 	O 	0.92230 0.48420 0.32560 -0.66600
O 	O 	0.82180 0.29690 0.32250 -0.75900
O 	O 	0.93480 0.07970 0.27210 -0.43800
O 	O 	0.85690 0.11080 0.35660 -0.45200
O 	O 	0.79700 0.10210 0.45590 -0.44300
O 	O 	0.88770 0.25890 0.45480 -0.66500
O 	O 	0.95970 0.25270 0.35350 -0.65100
O 	O 	0.03210 0.54300 0.46200 -0.80700
O 	O 	0.06650 0.42030 0.40710 -0.67100
O 	O 	0.17560 0.39650 0.31910 -0.24700
O 	O 	0.36740 0.30110 0.11040 -0.24000
O 	O 	0.68470 0.62180 0.51970 -0.26400
Na	Na	0.40700 0.24450 0.02060 0.58400
K 	K 	0.80939 0.73710 0.56820 0.64700
K 	K 	0.47163 0.36850 0.23855 0.65900
Ge	Ge	0.75503 0.37150 0.26695 1.67400
Y 	Y 	0.95335 0.38951 0.42627 2.38400
W 	W 	0.58627 0.34914 0.13110 1.26800
W 	W 	0.62305 0.57277 0.25431 1.31900
W 	W 	0.71521 0.56129 0.13011 1.30700
W 	W 	0.83848 0.37510 0.14702 1.00200
W 	W 	0.71164 0.16451 0.14788 1.02800
W 	W 	0.63007 0.17146 0.26040 1.30500
W 	W 	0.66266 0.39443 0.37993 1.28400
W 	W 	0.78417 0.57965 0.38336 1.30600
W 	W 	0.87471 0.57386 0.26152 1.29000
W 	W 	0.88939 0.18189 0.29169 1.27100
W 	W 	0.80866 0.19722 0.40287 1.29700
Rb	Rb	0.02904 0.38162 0.26864 0.69200
Rb	Rb	0.67309 0.15862 0.48986 0.68000
