data_crystal

_cell_length_a 22.75910
_cell_length_b 11.13120
_cell_length_c 11.68100
_cell_angle_alpha 90.00000
_cell_angle_beta  111.65200
_cell_angle_gamma 90.00000

_symmetry_space_group_name_	'P 1'
_symmetry_space_group_name_H-M	'P 1'

loop_
_symmetry_equiv_pos_as_xyz
  x,y,z

loop_
_atom_site_label
_atom_site_type_symbol
_atom_site_fract_x
_atom_site_fract_y
_atom_site_fract_z
_atom_site_charge
C 	C 	0.20844 0.88927 0.98884 0.03900
H 	H 	0.20640 0.91550 0.06290 0.02200
C 	C 	0.16964 0.79575 0.92758 -0.07700
H 	H 	0.14230 0.76030 0.96020 0.04700
C 	C 	0.17189 0.75510 0.81661 -0.02300
C 	C 	0.21248 0.81383 0.77041 -0.12100
C 	C 	0.24975 0.90739 0.83856 0.06900
H 	H 	0.27660 0.94630 0.80690 -0.00200
C 	C 	0.21758 0.77965 0.64971 0.42400
C 	C 	0.13062 0.65011 0.75196 0.34400
C 	C 	0.42160 0.19720 0.31140 0.10700
H 	H 	0.42790 0.11680 0.33410 -0.01700
C 	C 	0.45550 0.28300 0.39580 -0.20300
H 	H 	0.48380 0.25990 0.47300 0.10900
C 	C 	0.44677 0.40370 0.36420 0.14800
C 	C 	0.40472 0.42980 0.24950 -0.20300
H 	H 	0.39780 0.50930 0.22350 0.11200
C 	C 	0.37255 0.33950 0.17200 0.11700
H 	H 	0.34320 0.36090 0.09520 -0.01900
C 	C 	0.47875 0.50550 0.44480 -0.09200
N 	N 	0.24905 0.94427 0.94659 -0.22100
N 	N 	0.38056 0.22387 0.19960 -0.25400
O 	O 	0.07934 0.67415 0.66745 -0.27900
O 	O 	0.14952 0.54802 0.79076 -0.44100
O 	O 	0.19571 0.68026 0.60498 -0.46500
O 	O 	0.24219 0.85502 0.60231 -0.47700
Mn	Mn	0.32021 0.08383 0.06281 1.27300
H 	H 	0.47390 0.59200 0.43100 0.07000
C 	C 	0.70844 0.38927 0.98884 0.05500
H 	H 	0.70640 0.41550 0.06290 0.01400
C 	C 	0.66964 0.29575 0.92758 -0.08400
H 	H 	0.64230 0.26030 0.96020 0.05300
C 	C 	0.67189 0.25510 0.81661 -0.01900
C 	C 	0.71248 0.31383 0.77041 -0.12300
C 	C 	0.74975 0.40739 0.83856 0.07100
H 	H 	0.77660 0.44630 0.80690 -0.00100
C 	C 	0.71758 0.27965 0.64971 0.42500
C 	C 	0.63062 0.15011 0.75196 0.34300
C 	C 	0.92160 0.69720 0.31140 0.10600
H 	H 	0.92790 0.61680 0.33410 -0.01600
C 	C 	0.95550 0.78300 0.39580 -0.20100
H 	H 	0.98380 0.75990 0.47300 0.10900
C 	C 	0.94677 0.90370 0.36420 0.14600
C 	C 	0.90472 0.92980 0.24950 -0.19400
H 	H 	0.89780 0.00930 0.22350 0.10700
C 	C 	0.87255 0.83950 0.17200 0.11300
H 	H 	0.84320 0.86090 0.09520 -0.01600
C 	C 	0.97875 0.00550 0.44480 -0.09200
N 	N 	0.74905 0.44427 0.94659 -0.22200
N 	N 	0.88056 0.72387 0.19960 -0.25200
O 	O 	0.57934 0.17415 0.66745 -0.27800
O 	O 	0.64952 0.04802 0.79076 -0.43900
O 	O 	0.69571 0.18026 0.60498 -0.46600
O 	O 	0.74219 0.35502 0.60231 -0.47600
Mn	Mn	0.82021 0.58383 0.06281 1.27400
H 	H 	0.97390 0.09200 0.43100 0.07000
C 	C 	0.79156 0.88927 0.51116 0.05100
H 	H 	0.79360 0.91550 0.43710 0.01700
C 	C 	0.83036 0.79575 0.57242 -0.08200
H 	H 	0.85770 0.76030 0.53980 0.05200
C 	C 	0.82811 0.75510 0.68339 -0.02100
C 	C 	0.78752 0.81383 0.72959 -0.12300
C 	C 	0.75025 0.90739 0.66144 0.07000
H 	H 	0.72340 0.94630 0.69310 -0.00200
C 	C 	0.78242 0.77965 0.85029 0.42500
C 	C 	0.86938 0.65011 0.74804 0.34300
C 	C 	0.57840 0.19720 0.18860 0.10700
H 	H 	0.57210 0.11680 0.16590 -0.01700
C 	C 	0.54450 0.28300 0.10420 -0.20300
H 	H 	0.51620 0.25990 0.02700 0.10900
C 	C 	0.55323 0.40370 0.13580 0.14800
C 	C 	0.59528 0.42980 0.25050 -0.20300
H 	H 	0.60220 0.50930 0.27650 0.11200
C 	C 	0.62745 0.33950 0.32800 0.11700
H 	H 	0.65680 0.36090 0.40480 -0.01800
C 	C 	0.52125 0.50550 0.05520 -0.09200
N 	N 	0.75095 0.94427 0.55341 -0.22200
N 	N 	0.61944 0.22387 0.30040 -0.25300
O 	O 	0.92066 0.67415 0.83255 -0.27900
O 	O 	0.85048 0.54802 0.70924 -0.44100
O 	O 	0.80429 0.68026 0.89502 -0.46600
O 	O 	0.75781 0.85502 0.89769 -0.47800
Mn	Mn	0.67979 0.08383 0.43719 1.27400
H 	H 	0.52610 0.59200 0.06900 0.07100
C 	C 	0.29156 0.38927 0.51116 0.05100
H 	H 	0.29360 0.41550 0.43710 0.01600
C 	C 	0.33036 0.29575 0.57242 -0.08200
H 	H 	0.35770 0.26030 0.53980 0.05200
C 	C 	0.32811 0.25510 0.68339 -0.02000
C 	C 	0.28752 0.31383 0.72959 -0.12200
C 	C 	0.25025 0.40739 0.66144 0.07000
H 	H 	0.22340 0.44630 0.69310 -0.00100
C 	C 	0.28242 0.27965 0.85029 0.42400
C 	C 	0.36938 0.15011 0.74804 0.34300
C 	C 	0.07840 0.69720 0.18860 0.10800
H 	H 	0.07210 0.61680 0.16590 -0.01600
C 	C 	0.04450 0.78300 0.10420 -0.20400
H 	H 	0.01620 0.75990 0.02700 0.11100
C 	C 	0.05323 0.90370 0.13580 0.15200
C 	C 	0.09528 0.92980 0.25050 -0.20000
H 	H 	0.10220 0.00930 0.27650 0.11000
C 	C 	0.12745 0.83950 0.32800 0.11600
H 	H 	0.15680 0.86090 0.40480 -0.01800
C 	C 	0.02125 0.00550 0.05520 -0.09500
N 	N 	0.25095 0.44427 0.55341 -0.22200
N 	N 	0.11944 0.72387 0.30040 -0.25300
O 	O 	0.42066 0.17415 0.83255 -0.27700
O 	O 	0.35048 0.04802 0.70924 -0.43900
O 	O 	0.30429 0.18026 0.89502 -0.46400
O 	O 	0.25781 0.35502 0.89769 -0.47600
Mn	Mn	0.17979 0.58383 0.43719 1.27400
H 	H 	0.02610 0.09200 0.06900 0.07000
C 	C 	0.79156 0.11073 0.01116 0.04000
H 	H 	0.79360 0.08450 0.93710 0.02300
C 	C 	0.83036 0.20425 0.07242 -0.07600
H 	H 	0.85770 0.23970 0.03980 0.04800
C 	C 	0.82811 0.24490 0.18339 -0.02300
C 	C 	0.78752 0.18617 0.22959 -0.12100
C 	C 	0.75025 0.09261 0.16144 0.06900
H 	H 	0.72340 0.05370 0.19310 -0.00200
C 	C 	0.78242 0.22035 0.35029 0.42400
C 	C 	0.86938 0.34989 0.24804 0.34400
C 	C 	0.57840 0.80280 0.68860 0.10700
H 	H 	0.57210 0.88320 0.66590 -0.01700
C 	C 	0.54450 0.71700 0.60420 -0.20300
H 	H 	0.51620 0.74010 0.52700 0.10900
C 	C 	0.55323 0.59630 0.63580 0.14800
C 	C 	0.59528 0.57020 0.75050 -0.20300
H 	H 	0.60220 0.49070 0.77650 0.11200
C 	C 	0.62745 0.66050 0.82800 0.11700
H 	H 	0.65680 0.63910 0.90480 -0.01900
C 	C 	0.52125 0.49450 0.55520 -0.09200
N 	N 	0.75095 0.05573 0.05341 -0.22100
N 	N 	0.61944 0.77613 0.80040 -0.25400
O 	O 	0.92066 0.32585 0.33255 -0.27900
O 	O 	0.85048 0.45198 0.20924 -0.44100
O 	O 	0.80429 0.31974 0.39502 -0.46500
O 	O 	0.75781 0.14498 0.39769 -0.47700
Mn	Mn	0.67979 0.91617 0.93719 1.27300
H 	H 	0.52610 0.40800 0.56900 0.07000
C 	C 	0.29156 0.61073 0.01116 0.05500
H 	H 	0.29360 0.58450 0.93710 0.01400
C 	C 	0.33036 0.70425 0.07242 -0.08400
H 	H 	0.35770 0.73970 0.03980 0.05300
C 	C 	0.32811 0.74490 0.18339 -0.01900
C 	C 	0.28752 0.68617 0.22959 -0.12300
C 	C 	0.25025 0.59261 0.16144 0.07100
H 	H 	0.22340 0.55370 0.19310 -0.00100
C 	C 	0.28242 0.72035 0.35029 0.42500
C 	C 	0.36938 0.84989 0.24804 0.34300
C 	C 	0.07840 0.30280 0.68860 0.10600
H 	H 	0.07210 0.38320 0.66590 -0.01600
C 	C 	0.04450 0.21700 0.60420 -0.20100
H 	H 	0.01620 0.24010 0.52700 0.10900
C 	C 	0.05323 0.09630 0.63580 0.14600
C 	C 	0.09528 0.07020 0.75050 -0.19400
H 	H 	0.10220 0.99070 0.77650 0.10700
C 	C 	0.12745 0.16050 0.82800 0.11300
H 	H 	0.15680 0.13910 0.90480 -0.01600
C 	C 	0.02125 0.99450 0.55520 -0.09200
N 	N 	0.25095 0.55573 0.05341 -0.22200
N 	N 	0.11944 0.27613 0.80040 -0.25200
O 	O 	0.42066 0.82585 0.33255 -0.27800
O 	O 	0.35048 0.95198 0.20924 -0.43900
O 	O 	0.30429 0.81974 0.39502 -0.46600
O 	O 	0.25781 0.64498 0.39769 -0.47600
Mn	Mn	0.17979 0.41617 0.93719 1.27400
H 	H 	0.02610 0.90800 0.56900 0.07000
C 	C 	0.20844 0.11073 0.48884 0.05100
H 	H 	0.20640 0.08450 0.56290 0.01700
C 	C 	0.16964 0.20425 0.42758 -0.08200
H 	H 	0.14230 0.23970 0.46020 0.05200
C 	C 	0.17189 0.24490 0.31661 -0.02100
C 	C 	0.21248 0.18617 0.27041 -0.12300
C 	C 	0.24975 0.09261 0.33856 0.07000
H 	H 	0.27660 0.05370 0.30690 -0.00200
C 	C 	0.21758 0.22035 0.14971 0.42500
C 	C 	0.13062 0.34989 0.25196 0.34300
C 	C 	0.42160 0.80280 0.81140 0.10700
H 	H 	0.42790 0.88320 0.83410 -0.01700
C 	C 	0.45550 0.71700 0.89580 -0.20300
H 	H 	0.48380 0.74010 0.97300 0.10900
C 	C 	0.44677 0.59630 0.86420 0.14800
C 	C 	0.40472 0.57020 0.74950 -0.20300
H 	H 	0.39780 0.49070 0.72350 0.11200
C 	C 	0.37255 0.66050 0.67200 0.11700
H 	H 	0.34320 0.63910 0.59520 -0.01800
C 	C 	0.47875 0.49450 0.94480 -0.09200
N 	N 	0.24905 0.05573 0.44659 -0.22200
N 	N 	0.38056 0.77613 0.69960 -0.25300
O 	O 	0.07934 0.32585 0.16745 -0.27900
O 	O 	0.14952 0.45198 0.29076 -0.44100
O 	O 	0.19571 0.31974 0.10498 -0.46600
O 	O 	0.24219 0.14498 0.10231 -0.47800
Mn	Mn	0.32021 0.91617 0.56281 1.27400
H 	H 	0.47390 0.40800 0.93100 0.07100
C 	C 	0.70844 0.61073 0.48884 0.05100
H 	H 	0.70640 0.58450 0.56290 0.01600
C 	C 	0.66964 0.70425 0.42758 -0.08200
H 	H 	0.64230 0.73970 0.46020 0.05200
C 	C 	0.67189 0.74490 0.31661 -0.02000
C 	C 	0.71248 0.68617 0.27041 -0.12200
C 	C 	0.74975 0.59261 0.33856 0.07000
H 	H 	0.77660 0.55370 0.30690 -0.00100
C 	C 	0.71758 0.72035 0.14971 0.42400
C 	C 	0.63062 0.84989 0.25196 0.34300
C 	C 	0.92160 0.30280 0.81140 0.10800
H 	H 	0.92790 0.38320 0.83410 -0.01600
C 	C 	0.95550 0.21700 0.89580 -0.20400
H 	H 	0.98380 0.24010 0.97300 0.11100
C 	C 	0.94677 0.09630 0.86420 0.15200
C 	C 	0.90472 0.07020 0.74950 -0.20000
H 	H 	0.89780 0.99070 0.72350 0.11000
C 	C 	0.87255 0.16050 0.67200 0.11600
H 	H 	0.84320 0.13910 0.59520 -0.01800
C 	C 	0.97875 0.99450 0.94480 -0.09500
N 	N 	0.74905 0.55573 0.44659 -0.22200
N 	N 	0.88056 0.27613 0.69960 -0.25300
O 	O 	0.57934 0.82585 0.16745 -0.27700
O 	O 	0.64952 0.95198 0.29076 -0.43900
O 	O 	0.69571 0.81974 0.10498 -0.46400
O 	O 	0.74219 0.64498 0.10231 -0.47600
Mn	Mn	0.82021 0.41617 0.56281 1.27400
H 	H 	0.97390 0.90800 0.93100 0.07000
