data_crystal

_cell_length_a 7.62970
_cell_length_b 26.80790
_cell_length_c 15.09220
_cell_angle_alpha 90.00000
_cell_angle_beta  90.83800
_cell_angle_gamma 90.00000

_symmetry_space_group_name_	'P 1'
_symmetry_space_group_name_H-M	'P 1'

loop_
_symmetry_equiv_pos_as_xyz
  x,y,z

loop_
_atom_site_label
_atom_site_type_symbol
_atom_site_fract_x
_atom_site_fract_y
_atom_site_fract_z
_atom_site_charge
C 	C 	0.01270 0.09409 0.52730 0.27300
C 	C 	0.86920 0.10645 0.46060 0.00500
C 	C 	0.90560 0.12350 0.37650 -0.08600
C 	C 	0.76600 0.13665 0.32170 0.05800
H 	H 	0.79060 0.14700 0.26440 0.00300
C 	C 	0.56400 0.11952 0.42840 0.04600
H 	H 	0.44830 0.11860 0.44700 0.01400
C 	C 	0.69480 0.10455 0.48630 -0.08400
H 	H 	0.66670 0.09320 0.54260 0.05700
C 	C 	0.08810 0.12841 0.33910 0.33700
C 	C 	0.43380 0.05095 0.17830 0.07700
H 	H 	0.40910 0.04400 0.23720 -0.00600
C 	C 	0.45250 0.01151 0.12030 -0.14100
H 	H 	0.43810 0.97890 0.14010 0.08600
C 	C 	0.49290 0.02064 0.03230 0.06200
C 	C 	0.51620 0.07010 0.00830 -0.13700
H 	H 	0.54720 0.07820 0.95070 0.08600
C 	C 	0.49310 0.10726 0.07060 0.07100
H 	H 	0.50910 0.14020 0.05320 -0.00700
N 	N 	0.59770 0.13547 0.34600 -0.21900
N 	N 	0.44930 0.09846 0.15400 -0.24500
O 	O 	0.98420 0.06084 0.58419 -0.35600
O 	O 	0.15070 0.11913 0.52550 -0.35300
O 	O 	0.17490 0.09084 0.32410 -0.33600
O 	O 	0.13760 0.17181 0.32160 -0.41800
Cd	Cd	0.38320 0.16474 0.24487 1.20600
C 	C 	0.98730 0.90591 0.47270 0.27300
C 	C 	0.13080 0.89355 0.53940 0.00500
C 	C 	0.09440 0.87650 0.62350 -0.08600
C 	C 	0.23400 0.86335 0.67830 0.05800
H 	H 	0.20940 0.85300 0.73560 0.00300
C 	C 	0.43600 0.88048 0.57160 0.04600
H 	H 	0.55170 0.88140 0.55300 0.01400
C 	C 	0.30520 0.89545 0.51370 -0.08400
H 	H 	0.33330 0.90680 0.45740 0.05700
C 	C 	0.91190 0.87159 0.66090 0.33700
C 	C 	0.56620 0.94905 0.82170 0.07700
H 	H 	0.59090 0.95600 0.76280 -0.00600
C 	C 	0.54750 0.98849 0.87970 -0.14100
H 	H 	0.56190 0.02110 0.85990 0.08600
C 	C 	0.50710 0.97936 0.96770 0.06200
C 	C 	0.48380 0.92990 0.99170 -0.13700
H 	H 	0.45280 0.92180 0.04930 0.08600
C 	C 	0.50690 0.89274 0.92940 0.07100
H 	H 	0.49090 0.85980 0.94680 -0.00700
N 	N 	0.40230 0.86453 0.65400 -0.21900
N 	N 	0.55070 0.90154 0.84600 -0.24500
O 	O 	0.01580 0.93916 0.41581 -0.35600
O 	O 	0.84930 0.88087 0.47450 -0.35300
O 	O 	0.82510 0.90916 0.67590 -0.33600
O 	O 	0.86240 0.82819 0.67840 -0.41800
Cd	Cd	0.61680 0.83526 0.75513 1.20600
C 	C 	0.05680 0.19894 0.72100 0.05500
H 	H 	0.17150 0.21070 0.72100 0.01100
C 	C 	0.92130 0.23294 0.72210 -0.08200
H 	H 	0.94540 0.26690 0.72430 0.06700
C 	C 	0.74900 0.21644 0.72000 0.00500
C 	C 	0.71960 0.16507 0.72180 -0.08500
C 	C 	0.86420 0.13369 0.72270 0.06100
H 	H 	0.84490 0.09950 0.72550 0.01100
C 	C 	0.54350 0.14023 0.71260 0.33200
C 	C 	0.60510 0.25499 0.72100 0.29600
C 	C 	0.14890 0.07596 0.86970 0.08100
H 	H 	0.18990 0.10860 0.86690 -0.01400
C 	C 	0.08950 0.05893 0.94960 -0.13000
H 	H 	0.08860 0.07990 0.99870 0.07100
C 	C 	0.03050 0.00989 0.95650 0.05500
C 	C 	0.03690 0.98120 0.88080 -0.12300
H 	H 	0.00180 0.94800 0.88220 0.07100
C 	C 	0.09580 0.00199 0.80250 0.07400
H 	H 	0.09640 0.98230 0.75180 -0.00500
N 	N 	0.02970 0.14996 0.71980 -0.21100
N 	N 	0.15140 0.04888 0.79680 -0.24100
O 	O 	0.62020 0.29175 0.67100 -0.36800
O 	O 	0.48380 0.25106 0.77460 -0.35900
O 	O 	0.51570 0.10133 0.75450 -0.38800
O 	O 	0.43660 0.15744 0.65840 -0.38300
Cd	Cd	0.24169 0.09031 0.67064 1.20500
C 	C 	0.94320 0.80106 0.27900 0.05500
H 	H 	0.82850 0.78930 0.27900 0.01100
C 	C 	0.07870 0.76706 0.27790 -0.08200
H 	H 	0.05460 0.73310 0.27570 0.06700
C 	C 	0.25100 0.78356 0.28000 0.00500
C 	C 	0.28040 0.83493 0.27820 -0.08500
C 	C 	0.13580 0.86631 0.27730 0.06100
H 	H 	0.15510 0.90050 0.27450 0.01100
C 	C 	0.45650 0.85977 0.28740 0.33200
C 	C 	0.39490 0.74501 0.27900 0.29600
C 	C 	0.85110 0.92404 0.13030 0.08100
H 	H 	0.81010 0.89140 0.13310 -0.01400
C 	C 	0.91050 0.94107 0.05040 -0.13000
H 	H 	0.91140 0.92010 0.00130 0.07100
C 	C 	0.96950 0.99011 0.04350 0.05500
C 	C 	0.96310 0.01880 0.11920 -0.12300
H 	H 	0.99820 0.05200 0.11780 0.07100
C 	C 	0.90420 0.99801 0.19750 0.07400
H 	H 	0.90360 0.01770 0.24820 -0.00500
N 	N 	0.97030 0.85004 0.28020 -0.21100
N 	N 	0.84860 0.95112 0.20320 -0.24100
O 	O 	0.37980 0.70825 0.32900 -0.36800
O 	O 	0.51620 0.74894 0.22540 -0.35900
O 	O 	0.48430 0.89867 0.24550 -0.38800
O 	O 	0.56340 0.84256 0.34160 -0.38300
Cd	Cd	0.75831 0.90969 0.32936 1.20500
C 	C 	0.98730 0.59409 0.97270 0.27200
C 	C 	0.13080 0.60645 0.03940 0.00600
C 	C 	0.09440 0.62350 0.12350 -0.08700
C 	C 	0.23400 0.63665 0.17830 0.05900
H 	H 	0.20940 0.64700 0.23560 0.00200
C 	C 	0.43600 0.61952 0.07160 0.04700
H 	H 	0.55170 0.61860 0.05300 0.01300
C 	C 	0.30520 0.60455 0.01370 -0.08600
H 	H 	0.33330 0.59320 0.95740 0.05800
C 	C 	0.91190 0.62841 0.16090 0.33900
C 	C 	0.56620 0.55095 0.32170 0.07800
H 	H 	0.59090 0.54400 0.26280 -0.00600
C 	C 	0.54750 0.51151 0.37970 -0.14200
H 	H 	0.56190 0.47890 0.35990 0.08700
C 	C 	0.50710 0.52064 0.46770 0.06300
C 	C 	0.48380 0.57010 0.49170 -0.13800
H 	H 	0.45280 0.57820 0.54930 0.08700
C 	C 	0.50690 0.60726 0.42940 0.07200
H 	H 	0.49090 0.64020 0.44680 -0.00700
N 	N 	0.40230 0.63547 0.15400 -0.21900
N 	N 	0.55070 0.59846 0.34600 -0.24600
O 	O 	0.01580 0.56084 0.91581 -0.35600
O 	O 	0.84930 0.61913 0.97450 -0.35200
O 	O 	0.82510 0.59084 0.17590 -0.33600
O 	O 	0.86240 0.67181 0.17840 -0.41800
Cd	Cd	0.61680 0.66474 0.25513 1.20600
C 	C 	0.01270 0.40591 0.02730 0.27200
C 	C 	0.86920 0.39355 0.96060 0.00600
C 	C 	0.90560 0.37650 0.87650 -0.08700
C 	C 	0.76600 0.36335 0.82170 0.05900
H 	H 	0.79060 0.35300 0.76440 0.00200
C 	C 	0.56400 0.38048 0.92840 0.04700
H 	H 	0.44830 0.38140 0.94700 0.01300
C 	C 	0.69480 0.39545 0.98630 -0.08600
H 	H 	0.66670 0.40680 0.04260 0.05800
C 	C 	0.08810 0.37159 0.83910 0.33900
C 	C 	0.43380 0.44905 0.67830 0.07800
H 	H 	0.40910 0.45600 0.73720 -0.00600
C 	C 	0.45250 0.48849 0.62030 -0.14200
H 	H 	0.43810 0.52110 0.64010 0.08700
C 	C 	0.49290 0.47936 0.53230 0.06300
C 	C 	0.51620 0.42990 0.50830 -0.13800
H 	H 	0.54720 0.42180 0.45070 0.08700
C 	C 	0.49310 0.39274 0.57060 0.07200
H 	H 	0.50910 0.35980 0.55320 -0.00700
N 	N 	0.59770 0.36453 0.84600 -0.21900
N 	N 	0.44930 0.40154 0.65400 -0.24600
O 	O 	0.98420 0.43916 0.08419 -0.35600
O 	O 	0.15070 0.38087 0.02550 -0.35200
O 	O 	0.17490 0.40916 0.82410 -0.33600
O 	O 	0.13760 0.32819 0.82160 -0.41800
Cd	Cd	0.38320 0.33526 0.74487 1.20600
C 	C 	0.94320 0.69894 0.77900 0.05300
H 	H 	0.82850 0.71070 0.77900 0.01100
C 	C 	0.07870 0.73294 0.77790 -0.08000
H 	H 	0.05460 0.76690 0.77570 0.06700
C 	C 	0.25100 0.71644 0.78000 0.00500
C 	C 	0.28040 0.66507 0.77820 -0.08500
C 	C 	0.13580 0.63369 0.77730 0.06200
H 	H 	0.15510 0.59950 0.77450 0.01100
C 	C 	0.45650 0.64023 0.78740 0.33200
C 	C 	0.39490 0.75499 0.77900 0.29600
C 	C 	0.85110 0.57596 0.63030 0.08300
H 	H 	0.81010 0.60860 0.63310 -0.01500
C 	C 	0.91050 0.55893 0.55040 -0.13200
H 	H 	0.91140 0.57990 0.50130 0.07200
C 	C 	0.96950 0.50989 0.54350 0.05700
C 	C 	0.96310 0.48120 0.61920 -0.12900
H 	H 	0.99820 0.44800 0.61780 0.07200
C 	C 	0.90420 0.50199 0.69750 0.07900
H 	H 	0.90360 0.48230 0.74820 -0.00800
N 	N 	0.97030 0.64996 0.78020 -0.21100
N 	N 	0.84860 0.54888 0.70320 -0.24200
O 	O 	0.37980 0.79175 0.82900 -0.36800
O 	O 	0.51620 0.75106 0.72540 -0.35900
O 	O 	0.48430 0.60133 0.74550 -0.38800
O 	O 	0.56340 0.65744 0.84160 -0.38300
Cd	Cd	0.75831 0.59031 0.82936 1.20500
C 	C 	0.05680 0.30106 0.22100 0.05300
H 	H 	0.17150 0.28930 0.22100 0.01100
C 	C 	0.92130 0.26706 0.22210 -0.08000
H 	H 	0.94540 0.23310 0.22430 0.06700
C 	C 	0.74900 0.28356 0.22000 0.00500
C 	C 	0.71960 0.33493 0.22180 -0.08500
C 	C 	0.86420 0.36631 0.22270 0.06200
H 	H 	0.84490 0.40050 0.22550 0.01100
C 	C 	0.54350 0.35977 0.21260 0.33200
C 	C 	0.60510 0.24501 0.22100 0.29600
C 	C 	0.14890 0.42404 0.36970 0.08300
H 	H 	0.18990 0.39140 0.36690 -0.01500
C 	C 	0.08950 0.44107 0.44960 -0.13200
H 	H 	0.08860 0.42010 0.49870 0.07200
C 	C 	0.03050 0.49011 0.45650 0.05700
C 	C 	0.03690 0.51880 0.38080 -0.12900
H 	H 	0.00180 0.55200 0.38220 0.07200
C 	C 	0.09580 0.49801 0.30250 0.07900
H 	H 	0.09640 0.51770 0.25180 -0.00800
N 	N 	0.02970 0.35004 0.21980 -0.21100
N 	N 	0.15140 0.45112 0.29680 -0.24200
O 	O 	0.62020 0.20825 0.17100 -0.36800
O 	O 	0.48380 0.24894 0.27460 -0.35900
O 	O 	0.51570 0.39867 0.25450 -0.38800
O 	O 	0.43660 0.34256 0.15840 -0.38300
Cd	Cd	0.24169 0.40969 0.17064 1.20500
