data_crystal

_cell_length_a 9.46170
_cell_length_b 11.27720
_cell_length_c 11.34890
_cell_angle_alpha 79.25400
_cell_angle_beta  65.72600
_cell_angle_gamma 80.14300

_symmetry_space_group_name_	'P 1'
_symmetry_space_group_name_H-M	'P 1'

loop_
_symmetry_equiv_pos_as_xyz
  x,y,z

loop_
_atom_site_label
_atom_site_type_symbol
_atom_site_fract_x
_atom_site_fract_y
_atom_site_fract_z
_atom_site_charge
U 	U 	0.69850 0.44431 0.04771 0.04300
U 	U 	0.27962 0.96850 0.02627 0.01600
P 	P 	0.63460 0.61900 0.75960 0.44300
P 	P 	0.55210 0.75080 0.98430 0.44100
P 	P 	0.01190 0.20630 0.95680 0.43800
O 	O 	0.38060 0.73770 0.00890 -0.13900
O 	O 	0.62210 0.65320 0.06040 -0.16000
O 	O 	0.20370 0.50940 0.81840 -0.14400
P 	P 	0.08360 0.46050 0.78650 0.44500
O 	O 	0.54450 0.88040 0.01510 -0.15600
O 	O 	0.91560 0.49960 0.87350 -0.15400
O 	O 	0.61000 0.51670 0.87550 -0.13700
O 	O 	0.88010 0.28620 0.04590 -0.14400
O 	O 	0.12560 0.14570 0.02030 -0.16600
O 	O 	0.47490 0.64570 0.74940 -0.14800
O 	O 	0.94610 0.11370 0.91840 -0.15600
O 	O 	0.76690 0.59400 0.63320 -0.17100
O 	O 	0.11110 0.50430 0.64510 -0.16600
C 	C 	0.67090 0.74800 0.81300 -0.38200
H 	H 	0.78020 0.74220 0.79820 0.19700
H 	H 	0.64610 0.82240 0.76340 0.18800
C 	C 	0.11510 0.29930 0.80330 -0.37700
H 	H 	0.22580 0.27740 0.78190 0.19000
H 	H 	0.09230 0.27380 0.73650 0.18900
U 	U 	0.30150 0.55569 0.95229 0.04400
U 	U 	0.72038 0.03150 0.97373 0.01600
P 	P 	0.36540 0.38100 0.24040 0.44300
P 	P 	0.44790 0.24920 0.01570 0.44100
P 	P 	0.98810 0.79370 0.04320 0.44000
O 	O 	0.61940 0.26230 0.99110 -0.13900
O 	O 	0.37790 0.34680 0.93960 -0.16000
O 	O 	0.79630 0.49060 0.18160 -0.14400
P 	P 	0.91640 0.53950 0.21350 0.44700
O 	O 	0.45550 0.11960 0.98490 -0.15600
O 	O 	0.08440 0.50040 0.12650 -0.15500
O 	O 	0.39000 0.48330 0.12450 -0.13700
O 	O 	0.11990 0.71380 0.95410 -0.14500
O 	O 	0.87440 0.85430 0.97970 -0.16600
O 	O 	0.52510 0.35430 0.25060 -0.14800
O 	O 	0.05390 0.88630 0.08160 -0.15800
O 	O 	0.23310 0.40600 0.36680 -0.17100
O 	O 	0.88890 0.49570 0.35490 -0.16500
C 	C 	0.32910 0.25200 0.18700 -0.38100
H 	H 	0.21980 0.25780 0.20180 0.19700
H 	H 	0.35390 0.17760 0.23660 0.18800
C 	C 	0.88490 0.70070 0.19670 -0.37800
H 	H 	0.77420 0.72260 0.21810 0.19000
H 	H 	0.90770 0.72620 0.26350 0.18900
U 	U 	-0.00000 0.50000 0.50000 0.01800
