data_crystal

_cell_length_a 5.22100
_cell_length_b 12.86000
_cell_length_c 14.56100
_cell_angle_alpha 64.70100
_cell_angle_beta  87.32700
_cell_angle_gamma 89.89400

_symmetry_space_group_name_	'P 1'
_symmetry_space_group_name_H-M	'P 1'

loop_
_symmetry_equiv_pos_as_xyz
  x,y,z

loop_
_atom_site_label
_atom_site_type_symbol
_atom_site_fract_x
_atom_site_fract_y
_atom_site_fract_z
_atom_site_charge
U 	U 	0.16733 0.71630 0.41945 0.04000
P 	P 	0.35750 0.45360 0.40930 0.44300
P 	P 	0.48330 0.93490 0.18590 0.45100
O 	O 	0.30200 0.00640 0.10230 -0.16800
O 	O 	0.73100 0.90630 0.14160 -0.15700
O 	O 	0.38400 0.58290 0.37590 -0.15200
O 	O 	0.45100 0.85350 0.43980 -0.35700
P 	P 	0.67790 0.93500 0.37610 0.46900
O 	O 	0.60900 0.39350 0.43550 -0.19900
O 	O 	0.89900 0.86510 0.36490 -0.17300
O 	O 	0.16000 0.40250 0.49700 -0.14500
C 	C 	0.21900 0.43660 0.30150 -0.39200
H 	H 	0.06350 0.48070 0.28350 0.18900
H 	H 	0.33970 0.46760 0.24310 0.17700
Zn	Zn	0.34620 0.84530 0.57610 1.23800
P 	P 	0.14560 0.28870 0.33070 0.46100
O 	O 	0.35900 0.82510 0.26110 -0.15100
O 	O 	0.97400 0.24070 0.42540 -0.37300
O 	O 	0.38500 0.22380 0.33300 -0.44300
O 	O 	0.75100 0.01080 0.42610 -0.48200
O 	O 	0.97800 0.29440 0.23680 -0.23700
C 	C 	0.56300 0.02120 0.24960 -0.40100
H 	H 	0.41260 0.06260 0.25580 0.17100
H 	H 	0.69460 0.07730 0.20920 0.17900
U 	U 	0.83267 0.28370 0.58055 0.04200
P 	P 	0.64250 0.54640 0.59070 0.44400
P 	P 	0.51670 0.06510 0.81410 0.45000
O 	O 	0.69800 0.99360 0.89770 -0.16500
O 	O 	0.26900 0.09370 0.85840 -0.15700
O 	O 	0.61600 0.41710 0.62410 -0.15200
O 	O 	0.54900 0.14650 0.56020 -0.35700
P 	P 	0.32210 0.06500 0.62390 0.46700
O 	O 	0.39100 0.60650 0.56450 -0.19900
O 	O 	0.10100 0.13490 0.63510 -0.17400
O 	O 	0.84000 0.59750 0.50300 -0.14400
C 	C 	0.78100 0.56340 0.69850 -0.39300
H 	H 	0.93650 0.51930 0.71650 0.19000
H 	H 	0.66030 0.53240 0.75690 0.17800
Zn	Zn	0.65380 0.15470 0.42390 1.23800
P 	P 	0.85440 0.71130 0.66930 0.46300
O 	O 	0.64100 0.17490 0.73890 -0.15000
O 	O 	0.02600 0.75930 0.57460 -0.37500
O 	O 	0.61500 0.77620 0.66700 -0.44300
O 	O 	0.24900 0.98920 0.57390 -0.48100
O 	O 	0.02200 0.70560 0.76320 -0.23800
C 	C 	0.43700 0.97880 0.75040 -0.39800
H 	H 	0.58740 0.93740 0.74420 0.17100
H 	H 	0.30540 0.92270 0.79080 0.17900
U 	U 	-0.00000 0.00000 -0.00000 0.01600
