data_crystal

_cell_length_a 8.40700
_cell_length_b 10.28000
_cell_length_c 17.65500
_cell_angle_alpha 90.00000
_cell_angle_beta  102.80000
_cell_angle_gamma 90.00000

_symmetry_space_group_name_	'P 1'
_symmetry_space_group_name_H-M	'P 1'

loop_
_symmetry_equiv_pos_as_xyz
  x,y,z

loop_
_atom_site_label
_atom_site_type_symbol
_atom_site_fract_x
_atom_site_fract_y
_atom_site_fract_z
_atom_site_charge
N 	N 	0.16660 0.57290 0.45100 -0.22300
O 	O 	0.46980 0.28550 0.44375 -0.34900
O 	O 	0.42010 0.39150 0.54183 -0.40000
C 	C 	0.48480 0.29370 0.51600 0.25100
C 	C 	0.96250 0.73130 0.40520 -0.09100
H 	H 	0.89300 0.77140 0.36340 0.08500
C 	C 	0.16510 0.60830 0.52400 0.06300
H 	H 	0.23350 0.56520 0.56490 0.01500
C 	C 	0.06630 0.70570 0.54060 -0.10500
H 	H 	0.06940 0.72860 0.59180 0.07900
C 	C 	0.57670 0.19530 0.56970 0.00800
C 	C 	0.58760 0.20470 0.64910 -0.06600
H 	H 	0.53580 0.27200 0.66940 0.08100
Cu	Cu	0.82566 0.05718 0.93193 0.91100
O 	O 	0.79060 0.03600 0.82336 -0.38300
O 	O 	0.61990 0.20320 0.81307 -0.30000
C 	C 	0.69370 0.12110 0.78390 0.29400
C 	C 	0.75360 0.01290 0.66650 -0.15500
H 	H 	0.81330 0.95110 0.69950 0.11800
N 	N 	0.82520 0.89900 0.56130 -0.29000
C 	C 	0.06490 0.63460 0.39270 0.06200
H 	H 	0.06420 0.61050 0.34190 0.01700
C 	C 	0.65270 0.09510 0.53750 -0.14800
H 	H 	0.64290 0.08940 0.48410 0.12700
C 	C 	0.67690 0.11230 0.69760 0.01200
O 	O 	0.81250 0.95920 0.43678 -0.22600
C 	C 	0.85890 0.88490 0.49090 0.22700
C 	C 	0.74350 0.00380 0.58760 0.19400
C 	C 	0.96230 0.76960 0.48040 0.00200
H 	H 	0.86000 0.84500 0.59200 0.18700
N 	N 	0.66660 0.92710 0.95100 -0.22100
O 	O 	0.96980 0.21450 0.94375 -0.35000
O 	O 	0.92010 0.10850 0.04183 -0.40000
C 	C 	0.98480 0.20630 0.01600 0.25300
C 	C 	0.46250 0.76870 0.90520 -0.09200
H 	H 	0.39300 0.72860 0.86340 0.08500
C 	C 	0.66510 0.89170 0.02400 0.06100
H 	H 	0.73350 0.93480 0.06490 0.01500
C 	C 	0.56630 0.79430 0.04060 -0.10600
H 	H 	0.56940 0.77140 0.09180 0.07900
C 	C 	0.07670 0.30470 0.06970 0.00700
C 	C 	0.08760 0.29530 0.14910 -0.06400
H 	H 	0.03580 0.22800 0.16940 0.08100
Cu	Cu	0.32566 0.44282 0.43193 0.91200
O 	O 	0.29060 0.46400 0.32336 -0.38200
O 	O 	0.11990 0.29680 0.31307 -0.30000
C 	C 	0.19370 0.37890 0.28390 0.29500
C 	C 	0.25360 0.48710 0.16650 -0.15100
H 	H 	0.31330 0.54890 0.19950 0.11500
N 	N 	0.32520 0.60100 0.06130 -0.29000
C 	C 	0.56490 0.86540 0.89270 0.06300
H 	H 	0.56420 0.88950 0.84190 0.01700
C 	C 	0.15270 0.40490 0.03750 -0.14500
H 	H 	0.14290 0.41060 0.98410 0.12600
C 	C 	0.17690 0.38770 0.19760 0.01100
O 	O 	0.31250 0.54080 0.93678 -0.22700
C 	C 	0.35890 0.61510 0.99090 0.22700
C 	C 	0.24350 0.49620 0.08760 0.19300
C 	C 	0.46230 0.73040 0.98040 0.00400
H 	H 	0.36000 0.65500 0.09200 0.18700
N 	N 	0.33340 0.07290 0.04900 -0.22100
O 	O 	0.03020 0.78550 0.05625 -0.35000
O 	O 	0.07990 0.89150 0.95817 -0.40000
C 	C 	0.01520 0.79370 0.98400 0.25300
C 	C 	0.53750 0.23130 0.09480 -0.09200
H 	H 	0.60700 0.27140 0.13660 0.08500
C 	C 	0.33490 0.10830 0.97600 0.06100
H 	H 	0.26650 0.06520 0.93510 0.01500
C 	C 	0.43370 0.20570 0.95940 -0.10600
H 	H 	0.43060 0.22860 0.90820 0.07900
C 	C 	0.92330 0.69530 0.93030 0.00700
C 	C 	0.91240 0.70470 0.85090 -0.06400
H 	H 	0.96420 0.77200 0.83060 0.08100
Cu	Cu	0.67434 0.55718 0.56807 0.91200
O 	O 	0.70940 0.53600 0.67664 -0.38200
O 	O 	0.88010 0.70320 0.68693 -0.30000
C 	C 	0.80630 0.62110 0.71610 0.29500
C 	C 	0.74640 0.51290 0.83350 -0.15100
H 	H 	0.68670 0.45110 0.80050 0.11500
N 	N 	0.67480 0.39900 0.93870 -0.29000
C 	C 	0.43510 0.13460 0.10730 0.06300
H 	H 	0.43580 0.11050 0.15810 0.01700
C 	C 	0.84730 0.59510 0.96250 -0.14500
H 	H 	0.85710 0.58940 0.01590 0.12600
C 	C 	0.82310 0.61230 0.80240 0.01100
O 	O 	0.68750 0.45920 0.06322 -0.22700
C 	C 	0.64110 0.38490 0.00910 0.22700
C 	C 	0.75650 0.50380 0.91240 0.19300
C 	C 	0.53770 0.26960 0.01960 0.00400
H 	H 	0.64000 0.34500 0.90800 0.18700
N 	N 	0.83340 0.42710 0.54900 -0.22300
O 	O 	0.53020 0.71450 0.55625 -0.34900
O 	O 	0.57990 0.60850 0.45817 -0.40000
C 	C 	0.51520 0.70630 0.48400 0.25100
C 	C 	0.03750 0.26870 0.59480 -0.09100
H 	H 	0.10700 0.22860 0.63660 0.08500
C 	C 	0.83490 0.39170 0.47600 0.06300
H 	H 	0.76650 0.43480 0.43510 0.01500
C 	C 	0.93370 0.29430 0.45940 -0.10500
H 	H 	0.93060 0.27140 0.40820 0.07900
C 	C 	0.42330 0.80470 0.43030 0.00800
C 	C 	0.41240 0.79530 0.35090 -0.06600
H 	H 	0.46420 0.72800 0.33060 0.08100
Cu	Cu	0.17434 0.94282 0.06807 0.91100
O 	O 	0.20940 0.96400 0.17664 -0.38300
O 	O 	0.38010 0.79680 0.18693 -0.30000
C 	C 	0.30630 0.87890 0.21610 0.29400
C 	C 	0.24640 0.98710 0.33350 -0.15500
H 	H 	0.18670 0.04890 0.30050 0.11800
N 	N 	0.17480 0.10100 0.43870 -0.29000
C 	C 	0.93510 0.36540 0.60730 0.06200
H 	H 	0.93580 0.38950 0.65810 0.01700
C 	C 	0.34730 0.90490 0.46250 -0.14800
H 	H 	0.35710 0.91060 0.51590 0.12700
C 	C 	0.32310 0.88770 0.30240 0.01200
O 	O 	0.18750 0.04080 0.56322 -0.22600
C 	C 	0.14110 0.11510 0.50910 0.22700
C 	C 	0.25650 0.99620 0.41240 0.19400
C 	C 	0.03770 0.23040 0.51960 0.00200
H 	H 	0.14000 0.15500 0.40800 0.18700
