data_crystal

_cell_length_a 14.72430
_cell_length_b 12.98610
_cell_length_c 12.76710
_cell_angle_alpha 90.00000
_cell_angle_beta  105.00800
_cell_angle_gamma 90.00000

_symmetry_space_group_name_	'P 1'
_symmetry_space_group_name_H-M	'P 1'

loop_
_symmetry_equiv_pos_as_xyz
  x,y,z

loop_
_atom_site_label
_atom_site_type_symbol
_atom_site_fract_x
_atom_site_fract_y
_atom_site_fract_z
_atom_site_charge
Er	Er	0.23514 0.06821 0.31083 2.23100
O 	O 	0.18780 0.01910 0.95190 -0.38400
O 	O 	0.18730 0.05810 0.12010 -0.47800
O 	O 	0.07720 0.08750 0.26740 -0.58200
O 	O 	0.38340 0.04730 0.26750 -0.43500
O 	O 	0.22660 0.89440 0.27440 -0.57700
O 	O 	0.24360 0.72870 0.25450 -0.55700
O 	O 	0.38290 0.02380 0.43140 -0.42100
O 	O 	0.27720 0.18060 0.45190 -0.44800
C 	C 	0.22220 0.01790 0.05230 0.50500
H 	H 	0.27900 0.98360 0.07800 -0.13900
C 	C 	0.27060 0.81900 0.25860 0.75400
H 	H 	0.33020 0.83070 0.24880 -0.21800
C 	C 	0.42430 0.02420 0.35960 0.44800
H 	H 	0.48760 0.00660 0.37600 -0.05900
O 	O 	0.20770 0.19040 0.43350 -0.43500
H 	H 	0.18510 0.25820 0.48210 -0.20000
Er	Er	0.73514 0.56821 0.31083 2.24200
O 	O 	0.68780 0.51910 0.95190 -0.39600
O 	O 	0.68730 0.55810 0.12010 -0.47600
O 	O 	0.57720 0.58750 0.26740 -0.60000
O 	O 	0.88340 0.54730 0.26750 -0.41900
O 	O 	0.72660 0.39440 0.27440 -0.56900
O 	O 	0.74360 0.22870 0.25450 -0.54800
O 	O 	0.88290 0.52380 0.43140 -0.40900
O 	O 	0.77720 0.68060 0.45190 -0.44300
C 	C 	0.72220 0.51790 0.05230 0.52900
H 	H 	0.77900 0.48360 0.07800 -0.14600
C 	C 	0.77060 0.31900 0.25860 0.75000
H 	H 	0.83020 0.33070 0.24880 -0.21000
C 	C 	0.92430 0.52420 0.35960 0.43900
H 	H 	0.98760 0.50660 0.37600 -0.03500
O 	O 	0.70770 0.69040 0.43350 -0.43000
H 	H 	0.68510 0.75820 0.48210 -0.19000
Er	Er	0.76486 0.06821 0.18917 2.20700
O 	O 	0.81220 0.01910 0.54810 -0.45100
O 	O 	0.81270 0.05810 0.37990 -0.48100
O 	O 	0.92280 0.08750 0.23260 -0.53600
O 	O 	0.61660 0.04730 0.23250 -0.43300
O 	O 	0.77340 0.89440 0.22560 -0.56200
O 	O 	0.75640 0.72870 0.24550 -0.55000
O 	O 	0.61710 0.02380 0.06860 -0.45400
O 	O 	0.72280 0.18060 0.04810 -0.44400
C 	C 	0.77780 0.01790 0.44770 0.64100
H 	H 	0.72100 0.98360 0.42200 -0.17100
C 	C 	0.72940 0.81900 0.24140 0.75100
H 	H 	0.66980 0.83070 0.25120 -0.21600
C 	C 	0.57570 0.02420 0.14040 0.45600
H 	H 	0.51240 0.00660 0.12400 -0.07600
O 	O 	0.79230 0.19040 0.06650 -0.34600
H 	H 	0.81490 0.25820 0.01790 -0.09900
Er	Er	0.26486 0.56821 0.18917 2.22300
O 	O 	0.31220 0.51910 0.54810 -0.46400
O 	O 	0.31270 0.55810 0.37990 -0.49100
O 	O 	0.42280 0.58750 0.23260 -0.59900
O 	O 	0.11660 0.54730 0.23250 -0.45000
O 	O 	0.27340 0.39440 0.22560 -0.57100
O 	O 	0.25640 0.22870 0.24550 -0.55600
O 	O 	0.11710 0.52380 0.06860 -0.46900
O 	O 	0.22280 0.68060 0.04810 -0.44900
C 	C 	0.27780 0.51790 0.44770 0.63700
H 	H 	0.22100 0.48360 0.42200 -0.17200
C 	C 	0.22940 0.31900 0.24140 0.75300
H 	H 	0.16980 0.33070 0.25120 -0.22300
C 	C 	0.07570 0.52420 0.14040 0.46700
H 	H 	0.01240 0.50660 0.12400 -0.10200
O 	O 	0.29230 0.69040 0.06650 -0.36500
H 	H 	0.31490 0.75820 0.01790 -0.12400
Er	Er	0.76486 0.93179 0.68917 2.24200
O 	O 	0.81220 0.98090 0.04810 -0.50100
O 	O 	0.81270 0.94190 0.87990 -0.49000
O 	O 	0.92280 0.91250 0.73260 -0.52900
O 	O 	0.61660 0.95270 0.73250 -0.42800
O 	O 	0.77340 0.10560 0.72560 -0.55400
O 	O 	0.75640 0.27130 0.74550 -0.54100
O 	O 	0.61710 0.97620 0.56860 -0.42700
O 	O 	0.72280 0.81940 0.54810 -0.44900
C 	C 	0.77780 0.98210 0.94770 0.68900
H 	H 	0.72100 0.01640 0.92200 -0.15900
C 	C 	0.72940 0.18100 0.74140 0.75400
H 	H 	0.66980 0.16930 0.75120 -0.21000
C 	C 	0.57570 0.97580 0.64040 0.44600
H 	H 	0.51240 0.99340 0.62400 -0.06000
O 	O 	0.79230 0.80960 0.56650 -0.42400
H 	H 	0.81490 0.74180 0.51790 -0.18700
Er	Er	0.26486 0.43179 0.68917 2.26100
O 	O 	0.31220 0.48090 0.04810 -0.53200
O 	O 	0.31270 0.44190 0.87990 -0.51000
O 	O 	0.42280 0.41250 0.73260 -0.59300
O 	O 	0.11660 0.45270 0.73250 -0.44000
O 	O 	0.27340 0.60560 0.72560 -0.56700
O 	O 	0.25640 0.77130 0.74550 -0.54600
O 	O 	0.11710 0.47620 0.56860 -0.44100
O 	O 	0.22280 0.31940 0.54810 -0.45400
C 	C 	0.27780 0.48210 0.94770 0.74400
H 	H 	0.22100 0.51640 0.92200 -0.19300
C 	C 	0.22940 0.68100 0.74140 0.75700
H 	H 	0.16980 0.66930 0.75120 -0.21800
C 	C 	0.07570 0.47580 0.64040 0.45500
H 	H 	0.01240 0.49340 0.62400 -0.08300
O 	O 	0.29230 0.30960 0.56650 -0.43200
H 	H 	0.31490 0.24180 0.51790 -0.19800
Er	Er	0.23514 0.93179 0.81083 2.18900
O 	O 	0.18780 0.98090 0.45190 -0.46500
O 	O 	0.18730 0.94190 0.62010 -0.49100
O 	O 	0.07720 0.91250 0.76740 -0.57500
O 	O 	0.38340 0.95270 0.76750 -0.42400
O 	O 	0.22660 0.10560 0.77440 -0.55900
O 	O 	0.24360 0.27130 0.75450 -0.54800
O 	O 	0.38290 0.97620 0.93140 -0.40700
O 	O 	0.27720 0.81940 0.95190 -0.35300
C 	C 	0.22220 0.98210 0.55230 0.61700
H 	H 	0.27900 0.01640 0.57800 -0.15600
C 	C 	0.27060 0.18100 0.75860 0.75400
H 	H 	0.33020 0.16930 0.74880 -0.21000
C 	C 	0.42430 0.97580 0.85960 0.43900
H 	H 	0.48760 0.99340 0.87600 -0.04800
O 	O 	0.20770 0.80960 0.93350 -0.39200
H 	H 	0.18510 0.74180 0.98210 -0.04700
Er	Er	0.73514 0.43179 0.81083 2.21500
O 	O 	0.68780 0.48090 0.45190 -0.46000
O 	O 	0.68730 0.44190 0.62010 -0.48800
O 	O 	0.57720 0.41250 0.76740 -0.59300
O 	O 	0.88340 0.45270 0.76750 -0.40700
O 	O 	0.72660 0.60560 0.77440 -0.56000
O 	O 	0.74360 0.77130 0.75450 -0.54100
O 	O 	0.88290 0.47620 0.93140 -0.38700
O 	O 	0.77720 0.31940 0.95190 -0.33300
C 	C 	0.72220 0.48210 0.55230 0.63400
H 	H 	0.77900 0.51640 0.57800 -0.16400
C 	C 	0.77060 0.68100 0.75860 0.75300
H 	H 	0.83020 0.66930 0.74880 -0.20500
C 	C 	0.92430 0.47580 0.85960 0.42700
H 	H 	0.98760 0.49340 0.87600 -0.01900
O 	O 	0.70770 0.30960 0.93350 -0.37900
H 	H 	0.68510 0.24180 0.98210 -0.00900
C 	C 	0.00000 0.12700 0.25000 0.74600
H 	H 	0.00000 0.19860 0.25000 -0.21400
C 	C 	0.50000 0.62700 0.25000 0.84800
H 	H 	0.50000 0.69860 0.25000 -0.23000
C 	C 	0.00000 0.87300 0.75000 0.74500
H 	H 	0.00000 0.80140 0.75000 -0.20700
C 	C 	0.50000 0.37300 0.75000 0.85200
H 	H 	0.50000 0.30140 0.75000 -0.22400
C 	C 	0.25000 0.25000 0.50000 1.29300
C 	C 	0.75000 0.25000 -0.00000 0.83400
C 	C 	0.75000 0.75000 0.50000 1.27100
C 	C 	0.25000 0.75000 -0.00000 0.92100
