data_crystal

_cell_length_a 14.63900
_cell_length_b 12.85200
_cell_length_c 12.83920
_cell_angle_alpha 90.00000
_cell_angle_beta  104.29000
_cell_angle_gamma 90.00000

_symmetry_space_group_name_	'P 1'
_symmetry_space_group_name_H-M	'P 1'

loop_
_symmetry_equiv_pos_as_xyz
  x,y,z

loop_
_atom_site_label
_atom_site_type_symbol
_atom_site_fract_x
_atom_site_fract_y
_atom_site_fract_z
_atom_site_charge
Er	Er	0.23611 0.06735 0.32048 2.28700
O 	O 	0.19590 0.01470 0.96710 -0.40400
O 	O 	0.19240 0.05110 0.13350 -0.47300
O 	O 	0.07710 0.07030 0.27290 -0.61400
O 	O 	0.39000 0.06200 0.43200 -0.30000
O 	O 	0.22580 0.88770 0.29530 -0.56500
O 	O 	0.24130 0.72590 0.25110 -0.57300
O 	O 	0.38390 0.04070 0.27420 -0.46200
O 	O 	0.28840 0.18500 0.45680 -0.51600
C 	C 	0.23050 0.01280 0.06370 0.51100
H 	H 	0.28900 0.98110 0.08780 -0.12400
C 	C 	0.26670 0.81580 0.26510 0.79100
H 	H 	0.32450 0.83160 0.25100 -0.22200
C 	C 	0.42510 0.02010 0.36600 0.57900
H 	H 	0.47760 0.97680 0.38400 -0.08700
O 	O 	0.38500 0.98700 0.43100 -0.24500
O 	O 	0.19490 0.20120 0.43100 -0.48700
H 	H 	0.18520 0.26120 0.48210 0.01300
Er	Er	0.73611 0.56735 0.32048 2.30700
O 	O 	0.69590 0.51470 0.96710 -0.42400
O 	O 	0.69240 0.55110 0.13350 -0.47600
O 	O 	0.57710 0.57030 0.27290 -0.63900
O 	O 	0.89000 0.56200 0.43200 -0.28800
O 	O 	0.72580 0.38770 0.29530 -0.56100
O 	O 	0.74130 0.22590 0.25110 -0.56300
O 	O 	0.88390 0.54070 0.27420 -0.44500
O 	O 	0.78840 0.68500 0.45680 -0.51100
C 	C 	0.73050 0.51280 0.06370 0.55800
H 	H 	0.78900 0.48110 0.08780 -0.14300
C 	C 	0.76670 0.31580 0.26510 0.78700
H 	H 	0.82450 0.33160 0.25100 -0.21500
C 	C 	0.92510 0.52010 0.36600 0.57200
H 	H 	0.97760 0.47680 0.38400 -0.06400
O 	O 	0.88500 0.48700 0.43100 -0.23900
O 	O 	0.69490 0.70120 0.43100 -0.48200
H 	H 	0.68520 0.76120 0.48210 0.02200
Er	Er	0.76389 0.06735 0.17952 2.27200
O 	O 	0.80410 0.01470 0.53290 -0.47000
O 	O 	0.80760 0.05110 0.36650 -0.47700
O 	O 	0.92290 0.07030 0.22710 -0.56400
O 	O 	0.61000 0.06200 0.06800 -0.33000
O 	O 	0.77420 0.88770 0.20470 -0.55300
O 	O 	0.75870 0.72590 0.24890 -0.56400
O 	O 	0.61610 0.04070 0.22580 -0.45400
O 	O 	0.71160 0.18500 0.04320 -0.51800
C 	C 	0.76950 0.01280 0.43630 0.64100
H 	H 	0.71100 0.98110 0.41220 -0.15900
C 	C 	0.73330 0.81580 0.23490 0.78700
H 	H 	0.67550 0.83160 0.24900 -0.22000
C 	C 	0.57490 0.02010 0.13400 0.56300
H 	H 	0.52240 0.97680 0.11600 -0.09000
O 	O 	0.61500 0.98700 0.06900 -0.23600
O 	O 	0.80510 0.20120 0.06900 -0.42000
H 	H 	0.81480 0.26120 0.01790 0.06600
Er	Er	0.26389 0.56735 0.17952 2.30500
O 	O 	0.30410 0.51470 0.53290 -0.48400
O 	O 	0.30760 0.55110 0.36650 -0.49100
O 	O 	0.42290 0.57030 0.22710 -0.63900
O 	O 	0.11000 0.56200 0.06800 -0.33200
O 	O 	0.27420 0.38770 0.20470 -0.56600
O 	O 	0.25870 0.22590 0.24890 -0.57200
O 	O 	0.11610 0.54070 0.22580 -0.48100
O 	O 	0.21160 0.68500 0.04320 -0.52400
C 	C 	0.26950 0.51280 0.43630 0.65100
H 	H 	0.21100 0.48110 0.41220 -0.16900
C 	C 	0.23330 0.31580 0.23490 0.79000
H 	H 	0.17550 0.33160 0.24900 -0.22800
C 	C 	0.07490 0.52010 0.13400 0.61100
H 	H 	0.02240 0.47680 0.11600 -0.13300
O 	O 	0.11500 0.48700 0.06900 -0.26900
O 	O 	0.30510 0.70120 0.06900 -0.44300
H 	H 	0.31480 0.76120 0.01790 0.04600
Er	Er	0.76389 0.93265 0.67952 2.30500
O 	O 	0.80410 0.98530 0.03290 -0.50300
O 	O 	0.80760 0.94890 0.86650 -0.48300
O 	O 	0.92290 0.92970 0.72710 -0.55500
O 	O 	0.61000 0.93800 0.56800 -0.30200
O 	O 	0.77420 0.11230 0.70470 -0.55100
O 	O 	0.75870 0.27410 0.74890 -0.55900
O 	O 	0.61610 0.95930 0.72580 -0.45400
O 	O 	0.71160 0.81500 0.54320 -0.51600
C 	C 	0.76950 0.98720 0.93630 0.68200
H 	H 	0.71100 0.01890 0.91220 -0.15400
C 	C 	0.73330 0.18420 0.73490 0.79200
H 	H 	0.67550 0.16840 0.74900 -0.21800
C 	C 	0.57490 0.97990 0.63400 0.57000
H 	H 	0.52240 0.02320 0.61600 -0.08200
O 	O 	0.61500 0.01300 0.56900 -0.24200
O 	O 	0.80510 0.79880 0.56900 -0.47400
H 	H 	0.81480 0.73880 0.51790 0.02500
Er	Er	0.26389 0.43265 0.67952 2.32400
O 	O 	0.30410 0.48530 0.03290 -0.54300
O 	O 	0.30760 0.44890 0.86650 -0.50500
O 	O 	0.42290 0.42970 0.72710 -0.63300
O 	O 	0.11000 0.43800 0.56800 -0.31600
O 	O 	0.27420 0.61230 0.70470 -0.56200
O 	O 	0.25870 0.77410 0.74890 -0.56300
O 	O 	0.11610 0.45930 0.72580 -0.47200
O 	O 	0.21160 0.31500 0.54320 -0.52200
C 	C 	0.26950 0.48720 0.93630 0.74200
H 	H 	0.21100 0.51890 0.91220 -0.18700
C 	C 	0.23330 0.68420 0.73490 0.79300
H 	H 	0.17550 0.66840 0.74900 -0.22400
C 	C 	0.07490 0.47990 0.63400 0.59400
H 	H 	0.02240 0.52320 0.61600 -0.11500
O 	O 	0.11500 0.51300 0.56900 -0.25600
O 	O 	0.30510 0.29880 0.56900 -0.48400
H 	H 	0.31480 0.23880 0.51790 0.01500
Er	Er	0.23611 0.93265 0.82048 2.25700
O 	O 	0.19590 0.98530 0.46710 -0.48300
O 	O 	0.19240 0.94890 0.63350 -0.49100
O 	O 	0.07710 0.92970 0.77290 -0.60700
O 	O 	0.39000 0.93800 0.93200 -0.30100
O 	O 	0.22580 0.11230 0.79530 -0.55600
O 	O 	0.24130 0.27410 0.75110 -0.56700
O 	O 	0.38390 0.95930 0.77420 -0.44000
O 	O 	0.28840 0.81500 0.95680 -0.44300
C 	C 	0.23050 0.98720 0.56370 0.63700
H 	H 	0.28900 0.01890 0.58780 -0.15700
C 	C 	0.26670 0.18420 0.76510 0.79100
H 	H 	0.32450 0.16840 0.75100 -0.21800
C 	C 	0.42510 0.97990 0.86600 0.52900
H 	H 	0.47760 0.02320 0.88400 -0.05700
O 	O 	0.38500 0.01300 0.93100 -0.20700
O 	O 	0.19490 0.79880 0.93100 -0.46000
H 	H 	0.18520 0.73880 0.98210 0.11400
Er	Er	0.73611 0.43265 0.82048 2.28700
O 	O 	0.69590 0.48530 0.46710 -0.48000
O 	O 	0.69240 0.44890 0.63350 -0.48600
O 	O 	0.57710 0.42970 0.77290 -0.63300
O 	O 	0.89000 0.43800 0.93200 -0.28000
O 	O 	0.72580 0.61230 0.79530 -0.55400
O 	O 	0.74130 0.77410 0.75110 -0.56000
O 	O 	0.88390 0.45930 0.77420 -0.43500
O 	O 	0.78840 0.31500 0.95680 -0.41500
C 	C 	0.73050 0.48720 0.56370 0.64700
H 	H 	0.78900 0.51890 0.58780 -0.15800
C 	C 	0.76670 0.68420 0.76510 0.79000
H 	H 	0.82450 0.66840 0.75100 -0.21200
C 	C 	0.92510 0.47990 0.86600 0.56000
H 	H 	0.97760 0.52320 0.88400 -0.05000
O 	O 	0.88500 0.51300 0.93100 -0.22600
O 	O 	0.69490 0.29880 0.93100 -0.44400
H 	H 	0.68520 0.23880 0.98210 0.15600
C 	C 	-0.00000 0.10800 0.25000 0.81800
H 	H 	-0.00000 0.17990 0.25000 -0.23900
C 	C 	0.50000 0.60800 0.25000 0.94300
H 	H 	0.50000 0.67990 0.25000 -0.26100
C 	C 	0.00000 0.89200 0.75000 0.81500
H 	H 	-0.00000 0.82010 0.75000 -0.23300
C 	C 	0.50000 0.39200 0.75000 0.94500
H 	H 	0.50000 0.32010 0.75000 -0.25600
C 	C 	0.25000 0.25000 0.50000 1.04600
C 	C 	0.75000 0.25000 -0.00000 0.71700
C 	C 	0.75000 0.75000 0.50000 1.02500
C 	C 	0.25000 0.75000 -0.00000 0.81400
