data_crystal

_cell_length_a 13.12000
_cell_length_b 13.04900
_cell_length_c 12.85000
_cell_angle_alpha 90.00000
_cell_angle_beta  105.70000
_cell_angle_gamma 90.00000

_symmetry_space_group_name_	'P 1'
_symmetry_space_group_name_H-M	'P 1'

loop_
_symmetry_equiv_pos_as_xyz
  x,y,z

loop_
_atom_site_label
_atom_site_type_symbol
_atom_site_fract_x
_atom_site_fract_y
_atom_site_fract_z
_atom_site_charge
Er	Er	0.26620 0.06720 0.32320 2.30600
O 	O 	0.21800 0.01900 0.95700 -0.51300
O 	O 	0.19500 0.05300 0.11700 -0.46800
O 	O 	0.08510 0.06800 0.29200 -0.57600
O 	O 	0.41800 0.08400 0.25700 -0.54800
O 	O 	0.23100 0.40700 0.22300 -0.65900
O 	O 	0.25300 0.24200 0.26200 -0.53500
O 	O 	0.55400 0.94600 0.55400 -0.51700
O 	O 	0.31700 0.18800 0.49400 -0.25100
C 	C 	0.23800 0.01300 0.05500 0.62000
H 	H 	0.29460 0.97030 0.08730 -0.16500
C 	C 	0.24000 0.31700 0.20300 0.81200
H 	H 	0.23690 0.30220 0.13150 -0.23000
C 	C 	0.51700 0.03000 0.52500 0.24600
O 	O 	0.25400 0.19200 0.42700 -0.57400
H 	H 	0.19260 0.25410 0.43900 -0.17300
H 	H 	0.54760 0.08400 0.56940 -0.03300
Er	Er	0.76620 0.56720 0.32320 2.32000
O 	O 	0.71800 0.51900 0.95700 -0.53400
O 	O 	0.69500 0.55300 0.11700 -0.47500
O 	O 	0.58510 0.56800 0.29200 -0.58200
O 	O 	0.91800 0.58400 0.25700 -0.52700
O 	O 	0.73100 0.90700 0.22300 -0.64500
O 	O 	0.75300 0.74200 0.26200 -0.53100
O 	O 	0.05400 0.44600 0.55400 -0.52900
O 	O 	0.81700 0.68800 0.49400 -0.24400
C 	C 	0.73800 0.51300 0.05500 0.67300
H 	H 	0.79460 0.47030 0.08730 -0.19000
C 	C 	0.74000 0.81700 0.20300 0.81200
H 	H 	0.73690 0.80220 0.13150 -0.22300
C 	C 	0.01700 0.53000 0.52500 -0.11500
O 	O 	0.75400 0.69200 0.42700 -0.57400
H 	H 	0.69260 0.75410 0.43900 -0.16700
H 	H 	0.04760 0.58400 0.56940 0.10000
Er	Er	0.73380 0.06720 0.17680 2.29400
O 	O 	0.78200 0.01900 0.54300 -0.55300
O 	O 	0.80500 0.05300 0.38300 -0.47300
O 	O 	0.91490 0.06800 0.20800 -0.55900
O 	O 	0.58200 0.08400 0.24300 -0.54500
O 	O 	0.76900 0.40700 0.27700 -0.65300
O 	O 	0.74700 0.24200 0.23800 -0.53400
O 	O 	0.44600 0.94600 0.94600 -0.52600
O 	O 	0.68300 0.18800 0.00600 -0.25500
C 	C 	0.76200 0.01300 0.44500 0.69700
H 	H 	0.70540 0.97030 0.41270 -0.18900
C 	C 	0.76000 0.31700 0.29700 0.81900
H 	H 	0.76310 0.30220 0.36850 -0.22100
C 	C 	0.48300 0.03000 0.97500 0.67000
O 	O 	0.74600 0.19200 0.07300 -0.53700
H 	H 	0.80740 0.25410 0.06100 -0.13100
H 	H 	0.45240 0.08400 0.93060 -0.18500
Er	Er	0.23380 0.56720 0.17680 2.32900
O 	O 	0.28200 0.51900 0.54300 -0.55900
O 	O 	0.30500 0.55300 0.38300 -0.48400
O 	O 	0.41490 0.56800 0.20800 -0.58400
O 	O 	0.08200 0.58400 0.24300 -0.54400
O 	O 	0.26900 0.90700 0.27700 -0.65100
O 	O 	0.24700 0.74200 0.23800 -0.53700
O 	O 	0.94600 0.44600 0.94600 -0.49700
O 	O 	0.18300 0.68800 0.00600 -0.26000
C 	C 	0.26200 0.51300 0.44500 0.71600
H 	H 	0.20540 0.47030 0.41270 -0.20400
C 	C 	0.26000 0.81700 0.29700 0.81500
H 	H 	0.26310 0.80220 0.36850 -0.22300
C 	C 	0.98300 0.53000 0.97500 1.20600
O 	O 	0.24600 0.69200 0.07300 -0.55700
H 	H 	0.30740 0.75410 0.06100 -0.15200
H 	H 	0.95240 0.58400 0.93060 -0.38600
Er	Er	0.73380 0.93280 0.67680 2.33400
O 	O 	0.78200 0.98100 0.04300 -0.55500
O 	O 	0.80500 0.94700 0.88300 -0.47600
O 	O 	0.91490 0.93200 0.70800 -0.55100
O 	O 	0.58200 0.91600 0.74300 -0.55300
O 	O 	0.76900 0.59300 0.77700 -0.64800
O 	O 	0.74700 0.75800 0.73800 -0.53200
O 	O 	0.44600 0.05400 0.44600 -0.51900
O 	O 	0.68300 0.81200 0.50600 -0.25100
C 	C 	0.76200 0.98700 0.94500 0.72000
H 	H 	0.70540 0.02970 0.91270 -0.19500
C 	C 	0.76000 0.68300 0.79700 0.82200
H 	H 	0.76310 0.69780 0.86850 -0.21800
C 	C 	0.48300 0.97000 0.47500 0.45000
O 	O 	0.74600 0.80800 0.57300 -0.57300
H 	H 	0.80740 0.74590 0.56100 -0.16500
H 	H 	0.45240 0.91600 0.43060 -0.10800
Er	Er	0.23380 0.43280 0.67680 2.33500
O 	O 	0.28200 0.48100 0.04300 -0.58300
O 	O 	0.30500 0.44700 0.88300 -0.49000
O 	O 	0.41490 0.43200 0.70800 -0.58100
O 	O 	0.08200 0.41600 0.74300 -0.54400
O 	O 	0.26900 0.09300 0.77700 -0.65100
O 	O 	0.24700 0.25800 0.73800 -0.53400
O 	O 	0.94600 0.55400 0.44600 -0.50600
O 	O 	0.18300 0.31200 0.50600 -0.25600
C 	C 	0.26200 0.48700 0.94500 0.75800
H 	H 	0.20540 0.52970 0.91270 -0.21300
C 	C 	0.26000 0.18300 0.79700 0.81600
H 	H 	0.26310 0.19780 0.86850 -0.21900
C 	C 	0.98300 0.47000 0.47500 0.80900
O 	O 	0.24600 0.30800 0.57300 -0.57500
H 	H 	0.30740 0.24590 0.56100 -0.17100
H 	H 	0.95240 0.41600 0.43060 -0.23900
Er	Er	0.26620 0.93280 0.82320 2.30800
O 	O 	0.21800 0.98100 0.45700 -0.55600
O 	O 	0.19500 0.94700 0.61700 -0.48500
O 	O 	0.08510 0.93200 0.79200 -0.57200
O 	O 	0.41800 0.91600 0.75700 -0.55100
O 	O 	0.23100 0.59300 0.72300 -0.65700
O 	O 	0.25300 0.75800 0.76200 -0.53300
O 	O 	0.55400 0.05400 0.05400 -0.54800
O 	O 	0.31700 0.81200 0.99400 -0.22400
C 	C 	0.23800 0.98700 0.55500 0.71800
H 	H 	0.29460 0.02970 0.58730 -0.20300
C 	C 	0.24000 0.68300 0.70300 0.81500
H 	H 	0.23690 0.69780 0.63150 -0.22500
C 	C 	0.51700 0.97000 0.02500 0.06400
O 	O 	0.25400 0.80800 0.92700 -0.56500
H 	H 	0.19260 0.74590 0.93900 -0.13200
H 	H 	0.54760 0.91600 0.06940 0.03700
Er	Er	0.76620 0.43280 0.82320 2.30700
O 	O 	0.71800 0.48100 0.45700 -0.55700
O 	O 	0.69500 0.44700 0.61700 -0.48100
O 	O 	0.58510 0.43200 0.79200 -0.57900
O 	O 	0.91800 0.41600 0.75700 -0.52700
O 	O 	0.73100 0.09300 0.72300 -0.65500
O 	O 	0.75300 0.25800 0.76200 -0.53200
O 	O 	0.05400 0.55400 0.05400 -0.53700
O 	O 	0.81700 0.31200 0.99400 -0.19600
C 	C 	0.73800 0.48700 0.55500 0.71100
H 	H 	0.79460 0.52970 0.58730 -0.19700
C 	C 	0.74000 0.18300 0.70300 0.81900
H 	H 	0.73690 0.19780 0.63150 -0.22300
C 	C 	0.01700 0.47000 0.02500 -0.51300
O 	O 	0.75400 0.30800 0.92700 -0.55700
H 	H 	0.69260 0.24590 0.93900 -0.09600
H 	H 	0.04760 0.41600 0.06940 0.24500
C 	C 	0.00000 0.10700 0.25000 0.76700
H 	H 	-0.00000 0.17840 0.25000 -0.21600
C 	C 	0.50000 0.60700 0.25000 0.81100
H 	H 	0.50000 0.67840 0.25000 -0.22200
C 	C 	0.00000 0.89300 0.75000 0.76500
H 	H 	-0.00000 0.82160 0.75000 -0.21200
C 	C 	0.50000 0.39300 0.75000 0.81200
H 	H 	0.50000 0.32160 0.75000 -0.22000
C 	C 	0.50000 0.04500 0.25000 0.73300
H 	H 	0.50000 0.97320 0.25000 -0.19500
C 	C 	0.00000 0.54500 0.25000 0.71500
H 	H 	-0.00000 0.47320 0.25000 -0.20400
C 	C 	0.50000 0.95500 0.75000 0.76000
H 	H 	0.50000 0.02680 0.75000 -0.20900
C 	C 	0.00000 0.45500 0.75000 0.71700
H 	H 	0.00000 0.52680 0.75000 -0.20400
C 	C 	0.25000 0.25000 0.50000 1.19300
C 	C 	0.75000 0.25000 -0.00000 1.01000
C 	C 	0.75000 0.75000 0.50000 1.18200
C 	C 	0.25000 0.75000 -0.00000 1.09800
