data_crystal

_cell_length_a 18.12660
_cell_length_b 13.36110
_cell_length_c 8.57910
_cell_angle_alpha 90.00000
_cell_angle_beta  90.00000
_cell_angle_gamma 90.00000

_symmetry_space_group_name_	'P 1'
_symmetry_space_group_name_H-M	'P 1'

loop_
_symmetry_equiv_pos_as_xyz
  x,y,z

loop_
_atom_site_label
_atom_site_type_symbol
_atom_site_fract_x
_atom_site_fract_y
_atom_site_fract_z
_atom_site_charge
Er	Er	0.60093 0.37468 0.25300 2.15700
Er	Er	0.39368 0.12462 0.75275 2.11900
O 	O 	0.56310 0.29920 0.47940 -0.55000
O 	O 	0.49470 0.21010 0.64420 -0.56200
O 	O 	0.64840 0.20450 0.24790 -0.49200
O 	O 	0.64810 0.04050 0.29190 -0.45500
O 	O 	0.70010 0.38580 0.42080 -0.62000
O 	O 	0.79210 0.38260 0.56970 -0.61400
O 	O 	0.70370 0.36520 0.08590 -0.52600
O 	O 	0.79410 0.36950 0.92210 -0.52400
O 	O 	0.64780 0.54050 0.24840 -0.43500
O 	O 	0.64800 0.70580 0.20900 -0.50000
O 	O 	0.50300 0.47010 0.33040 -0.50700
O 	O 	0.43570 0.54910 0.50720 -0.50900
O 	O 	0.50450 0.28050 0.14400 -0.54700
O 	O 	0.42700 0.20980 0.97400 -0.49700
O 	O 	0.49710 0.03750 0.84350 -0.50000
O 	O 	0.57060 0.96660 0.01700 -0.50100
C 	C 	0.50860 0.24840 0.52280 0.73700
H 	H 	0.47280 0.23910 0.44650 -0.21400
C 	C 	0.61720 0.12940 0.26500 0.62500
H 	H 	0.56600 0.13140 0.25830 -0.18400
C 	C 	0.73560 0.35610 0.52660 0.97000
H 	H 	0.71470 0.30380 0.58290 -0.26200
C 	C 	0.73240 0.39470 0.96700 0.75500
H 	H 	0.70600 0.43940 0.90540 -0.19400
C 	C 	0.61710 0.63000 0.21270 0.61200
H 	H 	0.56700 0.63060 0.18920 -0.18100
C 	C 	0.49030 0.50810 0.46920 0.63300
H 	H 	0.52740 0.50220 0.54340 -0.18300
C 	C 	0.48940 0.24630 0.02130 0.66200
H 	H 	0.52750 0.24550 0.94860 -0.18600
C 	C 	0.51270 0.99990 0.97760 0.66700
H 	H 	0.47500 0.99880 0.05100 -0.19800
Er	Er	0.39907 0.62532 0.75300 2.15700
Er	Er	0.60632 0.87538 0.25275 2.11400
O 	O 	0.43690 0.70080 0.97940 -0.53700
O 	O 	0.50530 0.78990 0.14420 -0.55400
O 	O 	0.35160 0.79550 0.74790 -0.49100
O 	O 	0.35190 0.95950 0.79190 -0.45500
O 	O 	0.29990 0.61420 0.92080 -0.61500
O 	O 	0.20790 0.61740 0.06970 -0.61100
O 	O 	0.29630 0.63480 0.58590 -0.51700
O 	O 	0.20590 0.63050 0.42210 -0.52100
O 	O 	0.35220 0.45950 0.74840 -0.43400
O 	O 	0.35200 0.29420 0.70900 -0.49900
O 	O 	0.49700 0.52990 0.83040 -0.51200
O 	O 	0.56430 0.45090 0.00720 -0.52200
O 	O 	0.49550 0.71950 0.64400 -0.55100
O 	O 	0.57300 0.79020 0.47400 -0.50300
O 	O 	0.50290 0.96250 0.34350 -0.49200
O 	O 	0.42940 0.03340 0.51700 -0.48200
C 	C 	0.49140 0.75160 0.02280 0.70600
H 	H 	0.52720 0.76090 0.94650 -0.19800
C 	C 	0.38280 0.87060 0.76500 0.62600
H 	H 	0.43400 0.86860 0.75830 -0.18400
C 	C 	0.26440 0.64390 0.02660 0.96000
H 	H 	0.28530 0.69620 0.08290 -0.26000
C 	C 	0.26760 0.60530 0.46700 0.73900
H 	H 	0.29400 0.56060 0.40540 -0.19100
C 	C 	0.38290 0.37000 0.71270 0.61200
H 	H 	0.43300 0.36940 0.68920 -0.18100
C 	C 	0.50970 0.49190 0.96920 0.65900
H 	H 	0.47260 0.49780 0.04340 -0.19600
C 	C 	0.51060 0.75370 0.52130 0.67800
H 	H 	0.47250 0.75450 0.44860 -0.19500
C 	C 	0.48730 0.00010 0.47760 0.63000
H 	H 	0.52500 0.00120 0.55100 -0.17900
Er	Er	0.10093 0.12532 0.25300 2.15100
Er	Er	0.89368 0.37538 0.75275 2.11900
O 	O 	0.06310 0.20080 0.47940 -0.54600
O 	O 	0.99470 0.28990 0.64420 -0.55300
O 	O 	0.14840 0.29550 0.24790 -0.49100
O 	O 	0.14810 0.45950 0.29190 -0.45700
O 	O 	0.20010 0.11420 0.42080 -0.62000
O 	O 	0.29210 0.11740 0.56970 -0.61400
O 	O 	0.20370 0.13480 0.08590 -0.51700
O 	O 	0.29410 0.13050 0.92210 -0.52200
O 	O 	0.14780 0.95950 0.24840 -0.43400
O 	O 	0.14800 0.79420 0.20900 -0.49800
O 	O 	0.00300 0.02990 0.33040 -0.50600
O 	O 	0.93570 0.95090 0.50720 -0.50700
O 	O 	0.00450 0.21950 0.14400 -0.54500
O 	O 	0.92700 0.29020 0.97400 -0.49000
O 	O 	0.99710 0.46250 0.84350 -0.48400
O 	O 	0.07060 0.53340 0.01700 -0.48100
C 	C 	0.00860 0.25160 0.52280 0.71800
H 	H 	0.97280 0.26090 0.44650 -0.20500
C 	C 	0.11720 0.37060 0.26500 0.62500
H 	H 	0.06600 0.36860 0.25830 -0.18500
C 	C 	0.23560 0.14390 0.52660 0.96900
H 	H 	0.21470 0.19620 0.58290 -0.26200
C 	C 	0.23240 0.10530 0.96700 0.74000
H 	H 	0.20600 0.06060 0.90540 -0.19200
C 	C 	0.11710 0.87000 0.21270 0.61100
H 	H 	0.06700 0.86940 0.18920 -0.17900
C 	C 	0.99030 0.99190 0.46920 0.62300
H 	H 	0.02740 0.99780 0.54340 -0.17900
C 	C 	0.98940 0.25370 0.02130 0.65600
H 	H 	0.02750 0.25450 0.94860 -0.18900
C 	C 	0.01270 0.50010 0.97760 0.62400
H 	H 	0.97500 0.50120 0.05100 -0.18300
Er	Er	0.89907 0.87468 0.75300 2.14800
Er	Er	0.10632 0.62462 0.25275 2.11400
O 	O 	0.93690 0.79920 0.97940 -0.52600
O 	O 	0.00530 0.71010 0.14420 -0.54300
O 	O 	0.85160 0.70450 0.74790 -0.49000
O 	O 	0.85190 0.54050 0.79190 -0.45500
O 	O 	0.79990 0.88580 0.92080 -0.60400
O 	O 	0.70790 0.88260 0.06970 -0.60800
O 	O 	0.79630 0.86520 0.58590 -0.51600
O 	O 	0.70590 0.86950 0.42210 -0.52200
O 	O 	0.85220 0.04050 0.74840 -0.43100
O 	O 	0.85200 0.20580 0.70900 -0.49700
O 	O 	0.99700 0.97010 0.83040 -0.49700
O 	O 	0.06430 0.04910 0.00720 -0.50000
O 	O 	0.99550 0.78050 0.64400 -0.55000
O 	O 	0.07300 0.70980 0.47400 -0.50300
O 	O 	0.00290 0.53750 0.34350 -0.49200
O 	O 	0.92940 0.46660 0.51700 -0.48300
C 	C 	0.99140 0.74840 0.02280 0.68200
H 	H 	0.02720 0.73910 0.94650 -0.19200
C 	C 	0.88280 0.62940 0.76500 0.62500
H 	H 	0.93400 0.63140 0.75830 -0.18300
C 	C 	0.76440 0.85610 0.02660 0.94100
H 	H 	0.78530 0.80380 0.08290 -0.25600
C 	C 	0.76760 0.89470 0.46700 0.73900
H 	H 	0.79400 0.93940 0.40540 -0.19200
C 	C 	0.88290 0.13000 0.71270 0.61200
H 	H 	0.93300 0.13060 0.68920 -0.17800
C 	C 	0.00970 0.00810 0.96920 0.60700
H 	H 	0.97260 0.00220 0.04340 -0.17500
C 	C 	0.01060 0.74630 0.52130 0.67800
H 	H 	0.97250 0.74550 0.44860 -0.19600
C 	C 	0.98730 0.49990 0.47760 0.63200
H 	H 	0.02500 0.49880 0.55100 -0.18300
