data_crystal

_cell_length_a 14.73250
_cell_length_b 12.99900
_cell_length_c 12.77870
_cell_angle_alpha 90.00000
_cell_angle_beta  104.97500
_cell_angle_gamma 90.00000

_symmetry_space_group_name_	'P 1'
_symmetry_space_group_name_H-M	'P 1'

loop_
_symmetry_equiv_pos_as_xyz
  x,y,z

loop_
_atom_site_label
_atom_site_type_symbol
_atom_site_fract_x
_atom_site_fract_y
_atom_site_fract_z
_atom_site_charge
Er	Er	0.23523 0.06807 0.81115 2.17300
O 	O 	0.38380 0.04740 0.76780 -0.42400
O 	O 	0.38350 0.02300 0.93070 -0.42300
O 	O 	0.20670 0.19050 0.93150 -0.37700
O 	O 	0.18740 0.05730 0.62030 -0.48200
O 	O 	0.18780 0.01800 0.45240 -0.45600
O 	O 	0.25650 0.22890 0.74540 -0.55600
O 	O 	0.27320 0.39420 0.72490 -0.57000
O 	O 	0.07620 0.08580 0.76790 -0.57500
C 	C 	0.42390 0.02320 0.86080 0.45800
H 	H 	0.48700 0.00460 0.87730 -0.05500
C 	C 	0.22350 0.01750 0.55320 0.59600
H 	H 	0.28120 0.98480 0.57890 -0.14800
C 	C 	0.22980 0.31820 0.74030 0.77400
H 	H 	0.16990 0.32950 0.74910 -0.22500
O 	O 	0.22240 0.31960 0.04640 -0.44100
H 	H 	0.18470 0.26600 0.97300 -0.01400
Er	Er	0.73523 0.56807 0.81115 2.20000
O 	O 	0.88380 0.54740 0.76780 -0.40600
O 	O 	0.88350 0.52300 0.93070 -0.40200
O 	O 	0.70670 0.69050 0.93150 -0.36700
O 	O 	0.68740 0.55730 0.62030 -0.47900
O 	O 	0.68780 0.51800 0.45240 -0.45100
O 	O 	0.75650 0.72890 0.74540 -0.55100
O 	O 	0.77320 0.89420 0.72490 -0.55800
O 	O 	0.57620 0.58580 0.76790 -0.59400
C 	C 	0.92390 0.52320 0.86080 0.44500
H 	H 	0.98700 0.50460 0.87730 -0.02500
C 	C 	0.72350 0.51750 0.55320 0.61200
H 	H 	0.78120 0.48480 0.57890 -0.15500
C 	C 	0.72980 0.81820 0.74030 0.77100
H 	H 	0.66990 0.82950 0.74910 -0.21700
O 	O 	0.72240 0.81960 0.04640 -0.43600
H 	H 	0.68470 0.76600 0.97300 0.01600
Er	Er	0.76477 0.06807 0.68885 2.21800
O 	O 	0.61620 0.04740 0.73220 -0.42700
O 	O 	0.61650 0.02300 0.56930 -0.44000
O 	O 	0.79330 0.19050 0.56850 -0.39700
O 	O 	0.81260 0.05730 0.87970 -0.47800
O 	O 	0.81220 0.01800 0.04760 -0.48500
O 	O 	0.74350 0.22890 0.75460 -0.55100
O 	O 	0.72680 0.39420 0.77510 -0.56400
O 	O 	0.92380 0.08580 0.73210 -0.52700
C 	C 	0.57610 0.02320 0.63920 0.46500
H 	H 	0.51300 0.00460 0.62270 -0.06600
C 	C 	0.77650 0.01750 0.94680 0.65800
H 	H 	0.71880 0.98480 0.92110 -0.15000
C 	C 	0.77020 0.31820 0.75970 0.77000
H 	H 	0.83010 0.32950 0.75090 -0.21000
O 	O 	0.77760 0.31960 0.45360 -0.43200
H 	H 	0.81530 0.26600 0.52700 -0.11300
Er	Er	0.26477 0.56807 0.68885 2.23500
O 	O 	0.11620 0.54740 0.73220 -0.44000
O 	O 	0.11650 0.52300 0.56930 -0.45600
O 	O 	0.29330 0.69050 0.56850 -0.40400
O 	O 	0.31260 0.55730 0.87970 -0.49700
O 	O 	0.31220 0.51800 0.04760 -0.51500
O 	O 	0.24350 0.72890 0.75460 -0.55700
O 	O 	0.22680 0.89420 0.77510 -0.56300
O 	O 	0.42380 0.58580 0.73210 -0.59300
C 	C 	0.07610 0.52320 0.63920 0.47500
H 	H 	0.01300 0.50460 0.62270 -0.08900
C 	C 	0.27650 0.51750 0.94680 0.71000
H 	H 	0.21880 0.48480 0.92110 -0.18200
C 	C 	0.27020 0.81820 0.75970 0.77100
H 	H 	0.33010 0.82950 0.75090 -0.21500
O 	O 	0.27760 0.81960 0.45360 -0.43600
H 	H 	0.31530 0.76600 0.52700 -0.12300
Er	Er	0.76477 0.93193 0.18885 2.19100
O 	O 	0.61620 0.95260 0.23220 -0.43200
O 	O 	0.61650 0.97700 0.06930 -0.46600
O 	O 	0.79330 0.80950 0.06850 -0.34000
O 	O 	0.81260 0.94270 0.37970 -0.47200
O 	O 	0.81220 0.98200 0.54760 -0.44200
O 	O 	0.74350 0.77110 0.25460 -0.55600
O 	O 	0.72680 0.60580 0.27510 -0.57100
O 	O 	0.92380 0.91420 0.23210 -0.53400
C 	C 	0.57610 0.97680 0.13920 0.47700
H 	H 	0.51300 0.99540 0.12270 -0.08200
C 	C 	0.77650 0.98250 0.44680 0.61700
H 	H 	0.71880 0.01520 0.42110 -0.16100
C 	C 	0.77020 0.68180 0.25970 0.76800
H 	H 	0.83010 0.67050 0.25090 -0.21500
O 	O 	0.77760 0.68040 0.95360 -0.33800
H 	H 	0.81530 0.73400 0.02700 -0.06100
Er	Er	0.26477 0.43193 0.18885 2.20600
O 	O 	0.11620 0.45260 0.23220 -0.45000
O 	O 	0.11650 0.47700 0.06930 -0.48100
O 	O 	0.29330 0.30950 0.06850 -0.35600
O 	O 	0.31260 0.44270 0.37970 -0.48200
O 	O 	0.31220 0.48200 0.54760 -0.45400
O 	O 	0.24350 0.27110 0.25460 -0.56500
O 	O 	0.22680 0.10580 0.27510 -0.57800
O 	O 	0.42380 0.41420 0.23210 -0.59900
C 	C 	0.07610 0.47680 0.13920 0.48800
H 	H 	0.01300 0.49540 0.12270 -0.10700
C 	C 	0.27650 0.48250 0.44680 0.61400
H 	H 	0.21880 0.51520 0.42110 -0.16300
C 	C 	0.27020 0.18180 0.25970 0.77200
H 	H 	0.33010 0.17050 0.25090 -0.22400
O 	O 	0.27760 0.18040 0.95360 -0.35600
H 	H 	0.31530 0.23400 0.02700 -0.07900
Er	Er	0.23523 0.93193 0.31115 2.20800
O 	O 	0.38380 0.95260 0.26780 -0.43300
O 	O 	0.38350 0.97700 0.43070 -0.43500
O 	O 	0.20670 0.80950 0.43150 -0.40700
O 	O 	0.18740 0.94270 0.12030 -0.47000
O 	O 	0.18780 0.98200 0.95240 -0.38100
O 	O 	0.25650 0.77110 0.24540 -0.56500
O 	O 	0.27320 0.60580 0.22490 -0.57400
O 	O 	0.07620 0.91420 0.26790 -0.58000
C 	C 	0.42390 0.97680 0.36080 0.46600
H 	H 	0.48700 0.99540 0.37730 -0.06400
C 	C 	0.22350 0.98250 0.05320 0.49500
H 	H 	0.28120 0.01520 0.07890 -0.13200
C 	C 	0.22980 0.68180 0.24030 0.77000
H 	H 	0.16990 0.67050 0.24910 -0.22800
O 	O 	0.22240 0.68040 0.54640 -0.44300
H 	H 	0.18470 0.73400 0.47300 -0.12500
Er	Er	0.73523 0.43193 0.31115 2.22000
O 	O 	0.88380 0.45260 0.26780 -0.41800
O 	O 	0.88350 0.47700 0.43070 -0.42300
O 	O 	0.70670 0.30950 0.43150 -0.40300
O 	O 	0.68740 0.44270 0.12030 -0.46800
O 	O 	0.68780 0.48200 0.95240 -0.39300
O 	O 	0.75650 0.27110 0.24540 -0.55800
O 	O 	0.77320 0.10580 0.22490 -0.56500
O 	O 	0.57620 0.41420 0.26790 -0.60000
C 	C 	0.92390 0.47680 0.36080 0.45600
H 	H 	0.98700 0.49540 0.37730 -0.04000
C 	C 	0.72350 0.48250 0.05320 0.51900
H 	H 	0.78120 0.51520 0.07890 -0.14000
C 	C 	0.72980 0.18180 0.24030 0.76800
H 	H 	0.66990 0.17050 0.24910 -0.22100
O 	O 	0.72240 0.18040 0.54640 -0.43800
H 	H 	0.68470 0.23400 0.47300 -0.11700
C 	C 	0.25000 0.25000 -0.00000 0.83000
C 	C 	0.75000 0.25000 0.50000 1.08000
C 	C 	0.75000 0.75000 -0.00000 0.76200
C 	C 	0.25000 0.75000 0.50000 1.09700
C 	C 	0.00000 0.12630 0.75000 0.75400
H 	H 	0.00000 0.19780 0.75000 -0.21400
C 	C 	0.50000 0.62630 0.75000 0.86400
H 	H 	0.50000 0.69780 0.75000 -0.23200
C 	C 	0.00000 0.87370 0.25000 0.75500
H 	H 	0.00000 0.80220 0.25000 -0.22000
C 	C 	0.50000 0.37370 0.25000 0.86100
H 	H 	0.50000 0.30220 0.25000 -0.23700
