data_crystal

_cell_length_a 10.99800
_cell_length_b 11.80000
_cell_length_c 12.79300
_cell_angle_alpha 70.09000
_cell_angle_beta  66.74000
_cell_angle_gamma 73.43000

_symmetry_space_group_name_	'P 1'
_symmetry_space_group_name_H-M	'P 1'

loop_
_symmetry_equiv_pos_as_xyz
  x,y,z

loop_
_atom_site_label
_atom_site_type_symbol
_atom_site_fract_x
_atom_site_fract_y
_atom_site_fract_z
_atom_site_charge
N 	N 	0.20070 0.35310 0.43940 -0.21100
N 	N 	0.36760 0.21050 0.19210 -0.18600
H 	H 	0.40390 0.13760 0.18430 0.10400
N 	N 	0.11390 0.66380 0.35900 -0.19200
N 	N 	0.46540 0.70260 0.20910 -0.19100
H 	H 	0.50940 0.76040 0.16210 0.11000
N 	N 	0.92890 0.47970 0.35260 -0.19800
N 	N 	0.82670 0.24200 0.29540 -0.17300
H 	H 	0.82340 0.22720 0.23530 0.11100
C 	C 	0.23730 0.33130 0.33360 -0.04100
H 	H 	0.19480 0.38380 0.28040 0.02100
C 	C 	0.33570 0.23380 0.30000 0.08500
C 	C 	0.39750 0.15770 0.38180 -0.09700
H 	H 	0.46440 0.09160 0.36340 0.05200
C 	C 	0.35940 0.18040 0.48970 -0.04500
H 	H 	0.40040 0.12980 0.54460 0.03100
C 	C 	0.26050 0.27800 0.51630 0.01700
H 	H 	0.23470 0.29210 0.59000 -0.00000
C 	C 	0.34180 0.30430 0.09350 -0.08300
H 	H 	0.24690 0.33940 0.11630 0.04500
H 	H 	0.36110 0.26700 0.03050 0.04200
C 	C 	0.42230 0.40630 0.04650 0.04900
C 	C 	0.36280 0.52790 0.02770 -0.08500
H 	H 	0.27010 0.54860 0.04500 0.04500
C 	C 	0.56120 0.38040 0.01650 -0.07500
H 	H 	0.60440 0.29920 0.02640 0.05500
C 	C 	0.24800 0.64020 0.32170 -0.05900
H 	H 	0.29030 0.56140 0.34920 0.03500
C 	C 	0.32880 0.72770 0.24330 0.11600
C 	C 	0.26230 0.84350 0.20090 -0.15100
H 	H 	0.31130 0.90430 0.14790 0.07400
C 	C 	0.12620 0.86760 0.23690 0.04100
H 	H 	0.08150 0.94440 0.20720 0.00100
C 	C 	0.05320 0.77700 0.31860 -0.10800
H 	H 	0.95980 0.79580 0.34560 0.08100
C 	C 	0.53870 0.58510 0.24760 -0.09100
H 	H 	0.63360 0.58620 0.20490 0.05700
H 	H 	0.51360 0.52570 0.22630 0.06200
C 	C 	0.51850 0.54150 0.37930 0.04900
C 	C 	0.50000 0.62130 0.44240 -0.06500
H 	H 	0.50000 0.70400 0.40460 0.05400
C 	C 	0.51870 0.41910 0.43750 -0.07600
H 	H 	0.53160 0.36310 0.39600 0.05700
C 	C 	0.88740 0.37690 0.36810 -0.03300
H 	H 	0.87070 0.32170 0.44200 0.03700
C 	C 	0.86790 0.34850 0.27970 0.09000
C 	C 	0.89140 0.43390 0.16970 -0.09200
H 	H 	0.88040 0.41900 0.10740 0.06200
C 	C 	0.93120 0.54010 0.15540 -0.04200
H 	H 	0.94540 0.59890 0.08350 0.04700
C 	C 	0.94970 0.55890 0.24780 0.02500
H 	H 	0.97820 0.63060 0.23620 0.01500
C 	C 	0.78930 0.15500 0.40770 -0.15700
H 	H 	0.73990 0.10170 0.40290 0.07000
H 	H 	0.72800 0.19930 0.46530 0.07600
C 	C 	0.90040 0.07610 0.45310 0.17600
C 	C 	0.86870 0.99760 0.56400 -0.18200
H 	H 	0.77870 0.99540 0.60880 0.09500
C 	C 	0.03510 0.07700 0.38960 -0.23600
H 	H 	0.06040 0.12910 0.31440 0.10000
N 	N 	0.79930 0.64690 0.56060 -0.19700
N 	N 	0.63240 0.78950 0.80790 -0.18500
H 	H 	0.59610 0.86240 0.81570 0.11000
N 	N 	0.88610 0.33620 0.64100 -0.21900
N 	N 	0.53460 0.29740 0.79090 -0.18100
H 	H 	0.49060 0.23960 0.83790 0.10400
N 	N 	0.07110 0.52030 0.64740 -0.21400
N 	N 	0.17330 0.75800 0.70460 -0.19900
H 	H 	0.17660 0.77280 0.76470 0.10900
C 	C 	0.76270 0.66870 0.66640 -0.03900
H 	H 	0.80520 0.61620 0.71960 0.04000
C 	C 	0.66430 0.76620 0.70000 0.09000
C 	C 	0.60250 0.84230 0.61820 -0.09900
H 	H 	0.53560 0.90840 0.63660 0.05800
C 	C 	0.64060 0.81960 0.51030 -0.04100
H 	H 	0.59960 0.87020 0.45540 0.03800
C 	C 	0.73950 0.72200 0.48370 0.01800
H 	H 	0.76530 0.70790 0.41000 0.00500
C 	C 	0.65820 0.69570 0.90650 -0.08700
H 	H 	0.75310 0.66060 0.88370 0.06200
H 	H 	0.63890 0.73300 0.96950 0.05300
C 	C 	0.57770 0.59370 0.95350 0.03900
C 	C 	0.63720 0.47210 0.97230 -0.05900
H 	H 	0.72990 0.45140 0.95500 0.05100
C 	C 	0.43880 0.61960 0.98350 -0.04900
H 	H 	0.39560 0.70080 0.97360 0.04700
C 	C 	0.75200 0.35980 0.67830 -0.02700
H 	H 	0.70970 0.43860 0.65080 0.02800
C 	C 	0.67120 0.27230 0.75670 0.07000
C 	C 	0.73770 0.15650 0.79910 -0.05500
H 	H 	0.68870 0.09570 0.85210 0.03800
C 	C 	0.87380 0.13240 0.76310 -0.11100
H 	H 	0.91850 0.05560 0.79280 0.07200
C 	C 	0.94680 0.22300 0.68140 0.13800
H 	H 	0.04020 0.20420 0.65440 -0.06600
C 	C 	0.46130 0.41490 0.75240 -0.09500
H 	H 	0.36640 0.41380 0.79510 0.05800
H 	H 	0.48640 0.47430 0.77370 0.06500
C 	C 	0.48150 0.45850 0.62070 0.04900
C 	C 	0.50000 0.37870 0.55760 -0.06500
H 	H 	0.50000 0.29600 0.59540 0.04900
C 	C 	0.48130 0.58090 0.56250 -0.07400
H 	H 	0.46840 0.63690 0.60400 0.05800
C 	C 	0.11260 0.62310 0.63190 -0.05000
H 	H 	0.12930 0.67830 0.55800 0.03300
C 	C 	0.13210 0.65150 0.72030 0.08600
C 	C 	0.10860 0.56610 0.83030 -0.10400
H 	H 	0.11960 0.58100 0.89260 0.05000
C 	C 	0.06880 0.45990 0.84460 -0.05300
H 	H 	0.05460 0.40110 0.91650 0.02700
C 	C 	0.05030 0.44110 0.75220 0.01300
H 	H 	0.02180 0.36940 0.76380 -0.01200
C 	C 	0.21070 0.84500 0.59230 -0.02600
H 	H 	0.26010 0.89830 0.59710 0.03600
H 	H 	0.27200 0.80070 0.53470 0.04200
C 	C 	0.09960 0.92390 0.54690 -0.08500
C 	C 	0.13130 0.00240 0.43600 0.04700
H 	H 	0.22130 0.00460 0.39120 0.00600
C 	C 	0.96490 0.92300 0.61040 0.10600
H 	H 	0.93960 0.87090 0.68560 0.01200
Cd	Cd	0.00000 0.50000 0.50000 1.16700
