data_crystal

_cell_length_a 17.06150
_cell_length_b 17.06150
_cell_length_c 21.25530
_cell_angle_alpha 66.33760
_cell_angle_beta  66.33760
_cell_angle_gamma 60.00000

_symmetry_space_group_name_	'P 1'
_symmetry_space_group_name_H-M	'P 1'

loop_
_symmetry_equiv_pos_as_xyz
  x,y,z

loop_
_atom_site_label
_atom_site_type_symbol
_atom_site_fract_x
_atom_site_fract_y
_atom_site_fract_z
_atom_site_charge
Eu	Eu	0.60446 0.44733 0.60316 2.13300
Eu	Eu	0.44733 0.34505 0.60316 2.13300
Eu	Eu	0.34505 0.60446 0.60316 2.13300
Eu	Eu	0.89554 0.15495 0.89684 2.12400
Eu	Eu	0.05267 0.89554 0.89684 2.12000
Eu	Eu	0.15495 0.05267 0.89684 2.14200
Eu	Eu	0.39554 0.55267 0.39684 2.13400
Eu	Eu	0.55267 0.65495 0.39684 2.13400
Eu	Eu	0.65495 0.39554 0.39684 2.13400
Eu	Eu	0.10446 0.84505 0.10316 2.12100
Eu	Eu	0.94733 0.10446 0.10316 2.12200
Eu	Eu	0.84505 0.94733 0.10316 2.14800
Eu	Eu	0.75000 0.27623 0.75000 1.97200
Eu	Eu	0.27623 0.22377 0.75000 1.97300
Eu	Eu	0.22377 0.75000 0.75000 1.97200
Eu	Eu	0.25000 0.72377 0.25000 1.97100
Eu	Eu	0.72377 0.77623 0.25000 1.97400
Eu	Eu	0.77623 0.25000 0.25000 1.97200
H 	H 	0.96790 0.22160 0.44770 -0.02600
H 	H 	0.06760 0.12590 0.52120 0.10900
H 	H 	0.01120 0.12550 0.64000 -0.02800
H 	H 	0.46590 0.66250 0.79690 -0.03800
H 	H 	0.57900 0.59670 0.86200 0.12400
H 	H 	0.68330 0.44570 0.86590 -0.03400
H 	H 	0.22160 0.36280 0.44770 -0.03100
H 	H 	0.12590 0.28530 0.52120 0.11700
H 	H 	0.12550 0.22330 0.64000 -0.03800
H 	H 	0.66250 0.07470 0.79690 -0.03800
H 	H 	0.59670 0.96230 0.86200 0.12400
H 	H 	0.44570 0.00510 0.86590 -0.03400
H 	H 	0.36280 0.96790 0.44770 -0.02700
H 	H 	0.28530 0.06760 0.52120 0.11200
H 	H 	0.22330 0.01120 0.64000 -0.03200
H 	H 	0.07470 0.46590 0.79690 -0.03800
H 	H 	0.96230 0.57900 0.86200 0.12400
H 	H 	0.00510 0.68330 0.86590 -0.03500
H 	H 	0.53210 0.13720 0.05230 -0.02700
H 	H 	0.43240 0.21470 0.97880 0.11300
H 	H 	0.48880 0.27670 0.86000 -0.03700
H 	H 	0.03410 0.42530 0.70310 -0.03700
H 	H 	0.92100 0.53770 0.63800 0.12500
H 	H 	0.81670 0.49490 0.63410 -0.03400
H 	H 	0.27840 0.53210 0.05230 -0.02700
H 	H 	0.37410 0.43240 0.97880 0.11400
H 	H 	0.37450 0.48880 0.86000 -0.03700
H 	H 	0.83750 0.03410 0.70310 -0.04100
H 	H 	0.90330 0.92100 0.63800 0.12200
H 	H 	0.05430 0.81670 0.63410 -0.03200
H 	H 	0.13720 0.27840 0.05230 -0.02200
H 	H 	0.21470 0.37410 0.97880 0.11000
H 	H 	0.27670 0.37450 0.86000 -0.03500
H 	H 	0.42530 0.83750 0.70310 -0.03900
H 	H 	0.53770 0.90330 0.63800 0.12600
H 	H 	0.49490 0.05430 0.63410 -0.03600
H 	H 	0.03210 0.77840 0.55230 -0.02200
H 	H 	0.93240 0.87410 0.47880 0.10400
H 	H 	0.98880 0.87450 0.36000 -0.02100
H 	H 	0.53410 0.33750 0.20310 -0.03800
H 	H 	0.42100 0.40330 0.13800 0.12400
H 	H 	0.31670 0.55430 0.13410 -0.03500
H 	H 	0.77840 0.63720 0.55230 -0.03000
H 	H 	0.87410 0.71470 0.47880 0.11700
H 	H 	0.87450 0.77670 0.36000 -0.03800
H 	H 	0.33750 0.92530 0.20310 -0.03600
H 	H 	0.40330 0.03770 0.13800 0.11900
H 	H 	0.55430 0.99490 0.13410 -0.03100
H 	H 	0.63720 0.03210 0.55230 -0.02400
H 	H 	0.71470 0.93240 0.47880 0.10600
H 	H 	0.77670 0.98880 0.36000 -0.02500
H 	H 	0.92530 0.53410 0.20310 -0.03600
H 	H 	0.03770 0.42100 0.13800 0.11900
H 	H 	0.99490 0.31670 0.13410 -0.03300
H 	H 	0.46790 0.86280 0.94770 -0.03000
H 	H 	0.56760 0.78530 0.02120 0.11600
H 	H 	0.51120 0.72330 0.14000 -0.03800
H 	H 	0.96590 0.57470 0.29690 -0.03300
H 	H 	0.07900 0.46230 0.36200 0.12300
H 	H 	0.18330 0.50510 0.36590 -0.03400
H 	H 	0.72160 0.46790 0.94770 -0.03100
H 	H 	0.62590 0.56760 0.02120 0.11700
H 	H 	0.62550 0.51120 0.14000 -0.03900
H 	H 	0.16250 0.96590 0.29690 -0.03900
H 	H 	0.09670 0.07900 0.36200 0.12300
H 	H 	0.94570 0.18330 0.36590 -0.03300
H 	H 	0.86280 0.72160 0.94770 -0.02500
H 	H 	0.78530 0.62590 0.02120 0.11300
H 	H 	0.72330 0.62550 0.14000 -0.03700
H 	H 	0.57470 0.16250 0.29690 -0.04100
H 	H 	0.46230 0.09670 0.36200 0.12800
H 	H 	0.50510 0.94570 0.36590 -0.03800
H 	H 	0.50000 0.50000 0.50000 0.11800
H 	H 	-0.00000 0.00000 -0.00000 0.11000
C 	C 	0.83021 0.28871 0.59137 0.36700
C 	C 	0.85516 0.28406 0.52042 -0.32400
C 	C 	0.94690 0.22300 0.49510 0.17700
C 	C 	0.00650 0.16530 0.53860 -0.24200
C 	C 	0.97284 0.16754 0.60928 0.14200
C 	C 	0.78875 0.33635 0.47545 0.46800
C 	C 	0.59139 0.46539 0.75463 0.36200
C 	C 	0.52252 0.55832 0.75094 -0.37100
C 	C 	0.51450 0.60410 0.79420 0.22500
C 	C 	0.58000 0.56330 0.83590 -0.28000
C 	C 	0.64340 0.47450 0.83620 0.18900
C 	C 	0.45594 0.60434 0.70528 0.58000
C 	C 	0.28871 0.28971 0.59137 0.37000
C 	C 	0.28406 0.34036 0.52042 -0.33000
C 	C 	0.22300 0.33500 0.49510 0.19200
C 	C 	0.16530 0.28960 0.53860 -0.26400
C 	C 	0.16754 0.25034 0.60928 0.16300
C 	C 	0.33635 0.39945 0.47545 0.47000
C 	C 	0.46539 0.18859 0.75463 0.36200
C 	C 	0.55832 0.16822 0.75094 -0.37100
C 	C 	0.60410 0.08720 0.79420 0.22500
C 	C 	0.56330 0.02080 0.83590 -0.28000
C 	C 	0.47450 0.04590 0.83620 0.18900
C 	C 	0.60434 0.23444 0.70528 0.58000
C 	C 	0.28971 0.83021 0.59137 0.36800
C 	C 	0.34036 0.85516 0.52042 -0.32600
C 	C 	0.33500 0.94690 0.49510 0.18300
C 	C 	0.28960 0.00650 0.53860 -0.25100
C 	C 	0.25034 0.97284 0.60928 0.14900
C 	C 	0.39945 0.78875 0.47545 0.46900
C 	C 	0.18859 0.59139 0.75463 0.36200
C 	C 	0.16822 0.52252 0.75094 -0.37100
C 	C 	0.08720 0.51450 0.79420 0.22500
C 	C 	0.02080 0.58000 0.83590 -0.28000
C 	C 	0.04590 0.64340 0.83620 0.18900
C 	C 	0.23444 0.45594 0.70528 0.58000
C 	C 	0.66979 0.21029 0.90863 0.36600
C 	C 	0.64484 0.15964 0.97958 -0.32000
C 	C 	0.55310 0.16500 0.00490 0.17700
C 	C 	0.49350 0.21040 0.96140 -0.25200
C 	C 	0.52716 0.24966 0.89072 0.15700
C 	C 	0.71125 0.10055 0.02455 0.46300
C 	C 	0.90861 0.31141 0.74537 0.36200
C 	C 	0.97748 0.33178 0.74906 -0.37400
C 	C 	0.98550 0.41280 0.70580 0.22400
C 	C 	0.92000 0.47920 0.66410 -0.28000
C 	C 	0.85660 0.45410 0.66380 0.18900
C 	C 	0.04406 0.26556 0.79472 0.58200
C 	C 	0.21129 0.66979 0.90863 0.36700
C 	C 	0.21594 0.64484 0.97958 -0.32100
C 	C 	0.27700 0.55310 0.00490 0.18000
C 	C 	0.33470 0.49350 0.96140 -0.25500
C 	C 	0.33246 0.52716 0.89072 0.15800
C 	C 	0.16365 0.71125 0.02455 0.46300
C 	C 	0.03461 0.90861 0.74537 0.35300
C 	C 	0.94168 0.97748 0.74906 -0.35900
C 	C 	0.89590 0.98550 0.70580 0.22400
C 	C 	0.93670 0.92000 0.66410 -0.26800
C 	C 	0.02550 0.85660 0.66380 0.17600
C 	C 	0.89566 0.04406 0.79472 0.57200
C 	C 	0.21029 0.21129 0.90863 0.36300
C 	C 	0.15964 0.21594 0.97958 -0.30800
C 	C 	0.16500 0.27700 0.00490 0.16400
C 	C 	0.21040 0.33470 0.96140 -0.24200
C 	C 	0.24966 0.33246 0.89072 0.15300
C 	C 	0.10055 0.16365 0.02455 0.45200
C 	C 	0.31141 0.03461 0.74537 0.36600
C 	C 	0.33178 0.94168 0.74906 -0.37600
C 	C 	0.41280 0.89590 0.70580 0.22800
C 	C 	0.47920 0.93670 0.66410 -0.28300
C 	C 	0.45410 0.02550 0.66380 0.19000
C 	C 	0.26556 0.89566 0.79472 0.58100
C 	C 	0.16979 0.71129 0.40863 0.36500
C 	C 	0.14484 0.71594 0.47958 -0.31800
C 	C 	0.05310 0.77700 0.50490 0.16400
C 	C 	0.99350 0.83470 0.46140 -0.22400
C 	C 	0.02716 0.83246 0.39072 0.12600
C 	C 	0.21125 0.66365 0.52455 0.46600
C 	C 	0.40861 0.53461 0.24537 0.36200
C 	C 	0.47748 0.44168 0.24906 -0.37100
C 	C 	0.48550 0.39590 0.20580 0.22500
C 	C 	0.42000 0.43670 0.16410 -0.28000
C 	C 	0.35660 0.52550 0.16380 0.18800
C 	C 	0.54406 0.39566 0.29472 0.58000
C 	C 	0.71129 0.71029 0.40863 0.37000
C 	C 	0.71594 0.65964 0.47958 -0.33000
C 	C 	0.77700 0.66500 0.50490 0.19300
C 	C 	0.83470 0.71040 0.46140 -0.26400
C 	C 	0.83246 0.74966 0.39072 0.16300
C 	C 	0.66365 0.60055 0.52455 0.47000
C 	C 	0.53461 0.81141 0.24537 0.36100
C 	C 	0.44168 0.83178 0.24906 -0.36900
C 	C 	0.39590 0.91280 0.20580 0.22000
C 	C 	0.43670 0.97920 0.16410 -0.27100
C 	C 	0.52550 0.95410 0.16380 0.18400
C 	C 	0.39566 0.76556 0.29472 0.57900
C 	C 	0.71029 0.16979 0.40863 0.36600
C 	C 	0.65964 0.14484 0.47958 -0.32100
C 	C 	0.66500 0.05310 0.50490 0.17000
C 	C 	0.71040 0.99350 0.46140 -0.23300
C 	C 	0.74966 0.02716 0.39072 0.13400
C 	C 	0.60055 0.21125 0.52455 0.46700
C 	C 	0.81141 0.40861 0.24537 0.36100
C 	C 	0.83178 0.47748 0.24906 -0.36900
C 	C 	0.91280 0.48550 0.20580 0.22000
C 	C 	0.97920 0.42000 0.16410 -0.27100
C 	C 	0.95410 0.35660 0.16380 0.18400
C 	C 	0.76556 0.54406 0.29472 0.57900
C 	C 	0.33021 0.78971 0.09137 0.36900
C 	C 	0.35516 0.84036 0.02042 -0.32800
C 	C 	0.44690 0.83500 0.99510 0.18900
C 	C 	0.50650 0.78960 0.03860 -0.26200
C 	C 	0.47284 0.75034 0.10928 0.16200
C 	C 	0.28875 0.89945 0.97545 0.47000
C 	C 	0.09139 0.68859 0.25463 0.36200
C 	C 	0.02252 0.66822 0.25094 -0.37500
C 	C 	0.01450 0.58720 0.29420 0.21800
C 	C 	0.08000 0.52080 0.33590 -0.27700
C 	C 	0.14340 0.54590 0.33620 0.18700
C 	C 	0.95594 0.73444 0.20528 0.58400
C 	C 	0.78871 0.33021 0.09137 0.37000
C 	C 	0.78406 0.35516 0.02042 -0.33000
C 	C 	0.72300 0.44690 0.99510 0.19200
C 	C 	0.66530 0.50650 0.03860 -0.26400
C 	C 	0.66754 0.47284 0.10928 0.16300
C 	C 	0.83635 0.28875 0.97545 0.47100
C 	C 	0.96539 0.09139 0.25463 0.35700
C 	C 	0.05832 0.02252 0.25094 -0.36500
C 	C 	0.10410 0.01450 0.29420 0.22300
C 	C 	0.06330 0.08000 0.33590 -0.27400
C 	C 	0.97450 0.14340 0.33620 0.18200
C 	C 	0.10434 0.95594 0.20528 0.57500
C 	C 	0.78971 0.78871 0.09137 0.36600
C 	C 	0.84036 0.78406 0.02042 -0.31600
C 	C 	0.83500 0.72300 0.99510 0.17600
C 	C 	0.78960 0.66530 0.03860 -0.25200
C 	C 	0.75034 0.66754 0.10928 0.15700
C 	C 	0.89945 0.83635 0.97545 0.45900
C 	C 	0.68859 0.96539 0.25463 0.37100
C 	C 	0.66822 0.05832 0.25094 -0.38200
C 	C 	0.58720 0.10410 0.29420 0.23300
C 	C 	0.52080 0.06330 0.33590 -0.29200
C 	C 	0.54590 0.97450 0.33620 0.19800
C 	C 	0.73444 0.10434 0.20528 0.58300
N 	N 	0.88646 0.22816 0.63592 -0.27800
N 	N 	0.65160 0.42590 0.79630 -0.30500
N 	N 	0.22816 0.24946 0.63592 -0.28100
N 	N 	0.42590 0.12620 0.79630 -0.30500
N 	N 	0.24946 0.88646 0.63592 -0.27900
N 	N 	0.12620 0.65160 0.79630 -0.30500
N 	N 	0.61354 0.25054 0.86408 -0.28000
N 	N 	0.84840 0.37380 0.70370 -0.30500
N 	N 	0.27184 0.61354 0.86408 -0.28000
N 	N 	0.07410 0.84840 0.70370 -0.30200
N 	N 	0.25054 0.27184 0.86408 -0.27800
N 	N 	0.37380 0.07410 0.70370 -0.30600
N 	N 	0.11354 0.77184 0.36408 -0.27500
N 	N 	0.34840 0.57410 0.20370 -0.30500
N 	N 	0.77184 0.75054 0.36408 -0.28100
N 	N 	0.57410 0.87380 0.20370 -0.30400
N 	N 	0.75054 0.11354 0.36408 -0.27600
N 	N 	0.87380 0.34840 0.20370 -0.30400
N 	N 	0.38646 0.74946 0.13592 -0.28100
N 	N 	0.15160 0.62620 0.29630 -0.30500
N 	N 	0.72816 0.38646 0.13592 -0.28100
N 	N 	0.92590 0.15160 0.29630 -0.30400
N 	N 	0.74946 0.72816 0.13592 -0.27900
N 	N 	0.62620 0.92590 0.29630 -0.30800
O 	O 	0.70176 0.38606 0.50062 -0.66700
O 	O 	0.81461 0.32871 0.41347 -0.47800
O 	O 	0.75300 0.34760 0.62050 -0.62700
O 	O 	0.46810 0.56600 0.65890 -0.70000
O 	O 	0.39043 0.67943 0.71491 -0.54000
O 	O 	0.60461 0.40951 0.72097 -0.64100
O 	O 	0.38606 0.41156 0.50062 -0.66800
O 	O 	0.32871 0.44321 0.41347 -0.47900
O 	O 	0.34760 0.27890 0.62050 -0.62800
O 	O 	0.56600 0.30700 0.65890 -0.70000
O 	O 	0.67943 0.21523 0.71491 -0.54100
O 	O 	0.40951 0.26491 0.72097 -0.64100
O 	O 	0.41156 0.70176 0.50062 -0.66800
O 	O 	0.44321 0.81461 0.41347 -0.47800
O 	O 	0.27890 0.75300 0.62050 -0.62700
O 	O 	0.30700 0.46810 0.65890 -0.70000
O 	O 	0.21523 0.39043 0.71491 -0.54100
O 	O 	0.26491 0.60461 0.72097 -0.64100
O 	O 	0.79824 0.08844 0.99938 -0.66700
O 	O 	0.68539 0.05679 0.08653 -0.48100
O 	O 	0.74700 0.22110 0.87950 -0.62600
O 	O 	0.03190 0.19300 0.84110 -0.69800
O 	O 	0.10957 0.28477 0.78509 -0.54100
O 	O 	0.89539 0.23509 0.77903 -0.64100
O 	O 	0.11394 0.79824 0.99938 -0.66500
O 	O 	0.17129 0.68539 0.08653 -0.47700
O 	O 	0.15240 0.74700 0.87950 -0.62600
O 	O 	0.93400 0.03190 0.84110 -0.69900
O 	O 	0.82057 0.10957 0.78509 -0.53900
O 	O 	0.09049 0.89539 0.77903 -0.63900
O 	O 	0.08844 0.11394 0.99938 -0.65700
O 	O 	0.05679 0.17129 0.08653 -0.47400
O 	O 	0.22110 0.15240 0.87950 -0.62600
O 	O 	0.19300 0.93400 0.84110 -0.70200
O 	O 	0.28477 0.82057 0.78509 -0.54100
O 	O 	0.23509 0.09049 0.77903 -0.64200
O 	O 	0.29824 0.61394 0.49938 -0.66700
O 	O 	0.18539 0.67129 0.58653 -0.47800
O 	O 	0.24700 0.65240 0.37950 -0.62600
O 	O 	0.53190 0.43400 0.34110 -0.70000
O 	O 	0.60957 0.32057 0.28509 -0.54000
O 	O 	0.39539 0.59049 0.27903 -0.64100
O 	O 	0.61394 0.58844 0.49938 -0.66800
O 	O 	0.67129 0.55679 0.58653 -0.47900
O 	O 	0.65240 0.72110 0.37950 -0.62800
O 	O 	0.43400 0.69300 0.34110 -0.70000
O 	O 	0.32057 0.78477 0.28509 -0.54000
O 	O 	0.59049 0.73509 0.27903 -0.64100
O 	O 	0.58844 0.29824 0.49938 -0.66700
O 	O 	0.55679 0.18539 0.58653 -0.47800
O 	O 	0.72110 0.24700 0.37950 -0.62700
O 	O 	0.69300 0.53190 0.34110 -0.70000
O 	O 	0.78477 0.60957 0.28509 -0.54000
O 	O 	0.73509 0.39539 0.27903 -0.64100
O 	O 	0.20176 0.91156 0.00062 -0.66900
O 	O 	0.31461 0.94321 0.91347 -0.48100
O 	O 	0.25300 0.77890 0.12050 -0.62600
O 	O 	0.96810 0.80700 0.15890 -0.69700
O 	O 	0.89043 0.71523 0.21491 -0.54100
O 	O 	0.10461 0.76491 0.22097 -0.64100
O 	O 	0.88606 0.20176 0.00062 -0.66800
O 	O 	0.82871 0.31461 0.91347 -0.47800
O 	O 	0.84760 0.25300 0.12050 -0.62700
O 	O 	0.06600 0.96810 0.15890 -0.69900
O 	O 	0.17943 0.89043 0.21491 -0.54000
O 	O 	0.90951 0.10461 0.22097 -0.64000
O 	O 	0.91156 0.88606 0.00062 -0.66000
O 	O 	0.94321 0.82871 0.91347 -0.47300
O 	O 	0.77890 0.84760 0.12050 -0.62700
O 	O 	0.80700 0.06600 0.15890 -0.70400
O 	O 	0.71523 0.17943 0.21491 -0.54100
O 	O 	0.76491 0.90951 0.22097 -0.64300
O 	O 	0.47761 0.47761 0.56717 -0.90400
O 	O 	0.02239 0.02239 0.93283 -0.89400
O 	O 	0.52239 0.52239 0.43283 -0.90400
O 	O 	0.97761 0.97761 0.06717 -0.89200
