data_crystal

_cell_length_a 17.01510
_cell_length_b 17.01510
_cell_length_c 21.16250
_cell_angle_alpha 66.29600
_cell_angle_beta  66.29600
_cell_angle_gamma 60.00000

_symmetry_space_group_name_	'P 1'
_symmetry_space_group_name_H-M	'P 1'

loop_
_symmetry_equiv_pos_as_xyz
  x,y,z

loop_
_atom_site_label
_atom_site_type_symbol
_atom_site_fract_x
_atom_site_fract_y
_atom_site_fract_z
_atom_site_charge
Gd	Gd	0.15470 0.05250 0.89682 1.72700
Gd	Gd	0.05250 0.89598 0.89682 1.71100
Gd	Gd	0.89598 0.15470 0.89682 1.71400
Gd	Gd	0.34530 0.60402 0.60318 1.72200
Gd	Gd	0.44750 0.34530 0.60318 1.72200
Gd	Gd	0.60402 0.44750 0.60318 1.72200
Gd	Gd	0.84530 0.94750 0.10318 1.73200
Gd	Gd	0.94750 0.10402 0.10318 1.71300
Gd	Gd	0.10402 0.84530 0.10318 1.71100
Gd	Gd	0.65470 0.39598 0.39682 1.72100
Gd	Gd	0.55250 0.65470 0.39682 1.72200
Gd	Gd	0.39598 0.55250 0.39682 1.72100
Gd	Gd	0.27613 0.22387 0.75000 1.58800
Gd	Gd	0.22387 0.75000 0.75000 1.58700
Gd	Gd	0.75000 0.27613 0.75000 1.58700
Gd	Gd	0.72387 0.77613 0.25000 1.58800
Gd	Gd	0.77613 0.25000 0.25000 1.58700
Gd	Gd	0.25000 0.72387 0.25000 1.58700
H 	H 	0.13330 0.28100 0.05190 -0.01600
H 	H 	0.21880 0.37090 0.97930 0.10700
H 	H 	0.27860 0.37270 0.85990 -0.02600
H 	H 	0.02900 0.43050 0.70660 -0.02300
H 	H 	0.92540 0.53500 0.63490 0.11800
H 	H 	0.81210 0.49710 0.63730 -0.01800
H 	H 	0.28100 0.53380 0.05190 -0.02100
H 	H 	0.37090 0.43100 0.97930 0.11100
H 	H 	0.37270 0.48880 0.85990 -0.02900
H 	H 	0.43050 0.83390 0.70660 -0.02400
H 	H 	0.53500 0.90470 0.63490 0.11800
H 	H 	0.49710 0.05350 0.63730 -0.01900
H 	H 	0.53380 0.13330 0.05190 -0.02100
H 	H 	0.43100 0.21880 0.97930 0.11000
H 	H 	0.48880 0.27860 0.85990 -0.02800
H 	H 	0.83390 0.02900 0.70660 -0.02600
H 	H 	0.90470 0.92540 0.63490 0.11600
H 	H 	0.05350 0.81210 0.63730 -0.01600
H 	H 	0.36670 0.96620 0.44810 -0.02200
H 	H 	0.28120 0.06900 0.52070 0.11000
H 	H 	0.22140 0.01120 0.64010 -0.02500
H 	H 	0.47100 0.66610 0.79340 -0.02300
H 	H 	0.57460 0.59530 0.86510 0.11800
H 	H 	0.68790 0.44650 0.86270 -0.01800
H 	H 	0.21900 0.36670 0.44810 -0.02500
H 	H 	0.12910 0.28120 0.52070 0.11400
H 	H 	0.12730 0.22140 0.64010 -0.03000
H 	H 	0.06950 0.47100 0.79340 -0.02300
H 	H 	0.96500 0.57460 0.86510 0.11700
H 	H 	0.00290 0.68790 0.86270 -0.01900
H 	H 	0.96620 0.21900 0.44810 -0.02100
H 	H 	0.06900 0.12910 0.52070 0.10800
H 	H 	0.01120 0.12730 0.64010 -0.02200
H 	H 	0.66610 0.06950 0.79340 -0.02300
H 	H 	0.59530 0.96500 0.86510 0.11800
H 	H 	0.44650 0.00290 0.86270 -0.01800
H 	H 	0.86670 0.71900 0.94810 -0.01900
H 	H 	0.78120 0.62910 0.02070 0.11000
H 	H 	0.72140 0.62730 0.14010 -0.02800
H 	H 	0.97100 0.56950 0.29340 -0.01800
H 	H 	0.07460 0.46500 0.36510 0.11600
H 	H 	0.18790 0.50290 0.36270 -0.01800
H 	H 	0.71900 0.46620 0.94810 -0.02500
H 	H 	0.62910 0.56900 0.02070 0.11400
H 	H 	0.62730 0.51120 0.14010 -0.03000
H 	H 	0.56950 0.16610 0.29340 -0.02600
H 	H 	0.46500 0.09530 0.36510 0.12100
H 	H 	0.50290 0.94650 0.36270 -0.02100
H 	H 	0.46620 0.86670 0.94810 -0.02400
H 	H 	0.56900 0.78120 0.02070 0.11400
H 	H 	0.51120 0.72140 0.14010 -0.03000
H 	H 	0.16610 0.97100 0.29340 -0.02300
H 	H 	0.09530 0.07460 0.36510 0.11600
H 	H 	0.94650 0.18790 0.36270 -0.01700
H 	H 	0.63330 0.03380 0.55190 -0.01800
H 	H 	0.71880 0.93100 0.47930 0.10400
H 	H 	0.77860 0.98880 0.35990 -0.01700
H 	H 	0.52900 0.33390 0.20660 -0.02300
H 	H 	0.42540 0.40470 0.13490 0.11700
H 	H 	0.31210 0.55350 0.13730 -0.01900
H 	H 	0.78100 0.63330 0.55190 -0.02400
H 	H 	0.87090 0.71880 0.47930 0.11400
H 	H 	0.87270 0.77860 0.35990 -0.02900
H 	H 	0.93050 0.52900 0.20660 -0.02000
H 	H 	0.03500 0.42540 0.13490 0.11100
H 	H 	0.99710 0.31210 0.13730 -0.01700
H 	H 	0.03380 0.78100 0.55190 -0.01700
H 	H 	0.93100 0.87090 0.47930 0.10200
H 	H 	0.98880 0.87270 0.35990 -0.01400
H 	H 	0.33390 0.93050 0.20660 -0.02100
H 	H 	0.40470 0.03500 0.13490 0.11100
H 	H 	0.55350 0.99710 0.13730 -0.01500
H 	H 	-0.00000 0.00000 -0.00000 0.12000
H 	H 	0.50000 0.50000 0.50000 0.12800
C 	C 	0.20941 0.21181 0.90877 0.33500
C 	C 	0.16031 0.21561 0.97987 -0.27600
C 	C 	0.16391 0.27731 0.00507 0.15100
C 	C 	0.21223 0.33313 0.96151 -0.22900
C 	C 	0.25065 0.33125 0.89065 0.15100
C 	C 	0.09986 0.16276 0.02502 0.42000
C 	C 	0.90867 0.31117 0.74509 0.34000
C 	C 	0.97722 0.33122 0.74944 -0.33000
C 	C 	0.98328 0.41568 0.70666 0.19500
C 	C 	0.92160 0.47830 0.66370 -0.25300
C 	C 	0.85470 0.45450 0.66490 0.16200
C 	C 	0.04426 0.26556 0.79462 0.52900
C 	C 	0.21181 0.67001 0.90877 0.33900
C 	C 	0.21561 0.64421 0.97987 -0.28900
C 	C 	0.27731 0.55371 0.00507 0.16700
C 	C 	0.33313 0.49313 0.96151 -0.24100
C 	C 	0.33125 0.52745 0.89065 0.15700
C 	C 	0.16276 0.71236 0.02502 0.43100
C 	C 	0.31117 0.03507 0.74509 0.34200
C 	C 	0.33122 0.94212 0.74944 -0.33100
C 	C 	0.41568 0.89438 0.70666 0.19700
C 	C 	0.47830 0.93640 0.66370 -0.25400
C 	C 	0.45450 0.02590 0.66490 0.16300
C 	C 	0.26556 0.89556 0.79462 0.52700
C 	C 	0.67001 0.20941 0.90877 0.33800
C 	C 	0.64421 0.16031 0.97987 -0.28800
C 	C 	0.55371 0.16391 0.00507 0.16400
C 	C 	0.49313 0.21223 0.96151 -0.23900
C 	C 	0.52745 0.25065 0.89065 0.15500
C 	C 	0.71236 0.09986 0.02502 0.43100
C 	C 	0.03507 0.90867 0.74509 0.33100
C 	C 	0.94212 0.97722 0.74944 -0.31700
C 	C 	0.89438 0.98328 0.70666 0.19500
C 	C 	0.93640 0.92160 0.66370 -0.24300
C 	C 	0.02590 0.85470 0.66490 0.15200
C 	C 	0.89556 0.04426 0.79462 0.52000
C 	C 	0.29059 0.82999 0.59123 0.34100
C 	C 	0.33969 0.85579 0.52013 -0.29600
C 	C 	0.33609 0.94629 0.49493 0.17300
C 	C 	0.28777 0.00687 0.53849 -0.24200
C 	C 	0.24935 0.97255 0.60935 0.15100
C 	C 	0.40014 0.78764 0.47498 0.43700
C 	C 	0.59133 0.46493 0.75491 0.33900
C 	C 	0.52278 0.55788 0.75056 -0.32700
C 	C 	0.51672 0.60562 0.79334 0.19500
C 	C 	0.57840 0.56360 0.83630 -0.25200
C 	C 	0.64530 0.47410 0.83510 0.16200
C 	C 	0.45574 0.60444 0.70538 0.52600
C 	C 	0.28819 0.29059 0.59123 0.34200
C 	C 	0.28439 0.33969 0.52013 -0.29900
C 	C 	0.22269 0.33609 0.49493 0.18000
C 	C 	0.16687 0.28777 0.53849 -0.25200
C 	C 	0.16875 0.24935 0.60935 0.16100
C 	C 	0.33724 0.40014 0.47498 0.43800
C 	C 	0.18883 0.59133 0.75491 0.33900
C 	C 	0.16878 0.52278 0.75056 -0.32700
C 	C 	0.08432 0.51672 0.79334 0.19500
C 	C 	0.02170 0.57840 0.83630 -0.25200
C 	C 	0.04550 0.64530 0.83510 0.16200
C 	C 	0.23444 0.45574 0.70538 0.52600
C 	C 	0.82999 0.28819 0.59123 0.34000
C 	C 	0.85579 0.28439 0.52013 -0.29400
C 	C 	0.94629 0.22269 0.49493 0.16800
C 	C 	0.00687 0.16687 0.53849 -0.23500
C 	C 	0.97255 0.16875 0.60935 0.14500
C 	C 	0.78764 0.33724 0.47498 0.43600
C 	C 	0.46493 0.18883 0.75491 0.33900
C 	C 	0.55788 0.16878 0.75056 -0.32800
C 	C 	0.60562 0.08432 0.79334 0.19500
C 	C 	0.56360 0.02170 0.83630 -0.25300
C 	C 	0.47410 0.04550 0.83510 0.16200
C 	C 	0.60444 0.23444 0.70538 0.52600
C 	C 	0.79059 0.78819 0.09123 0.33800
C 	C 	0.83969 0.78439 0.02013 -0.28600
C 	C 	0.83609 0.72269 0.99493 0.16500
C 	C 	0.78777 0.66687 0.03849 -0.24000
C 	C 	0.74935 0.66875 0.10935 0.15600
C 	C 	0.90014 0.83724 0.97498 0.42800
C 	C 	0.09133 0.68883 0.25491 0.33900
C 	C 	0.02278 0.66878 0.25056 -0.33100
C 	C 	0.01672 0.58432 0.29334 0.18800
C 	C 	0.07840 0.52170 0.33630 -0.24900
C 	C 	0.14530 0.54550 0.33510 0.16000
C 	C 	0.95574 0.73444 0.20538 0.53100
C 	C 	0.78819 0.32999 0.09123 0.34200
C 	C 	0.78439 0.35579 0.02013 -0.29900
C 	C 	0.72269 0.44629 0.99493 0.18100
C 	C 	0.66687 0.50687 0.03849 -0.25200
C 	C 	0.66875 0.47255 0.10935 0.16200
C 	C 	0.83724 0.28764 0.97498 0.43900
C 	C 	0.68883 0.96493 0.25491 0.34700
C 	C 	0.66878 0.05788 0.25056 -0.33700
C 	C 	0.58432 0.10562 0.29334 0.20300
C 	C 	0.52170 0.06360 0.33630 -0.26400
C 	C 	0.54550 0.97410 0.33510 0.17100
C 	C 	0.73444 0.10444 0.20538 0.52900
C 	C 	0.32999 0.79059 0.09123 0.34100
C 	C 	0.35579 0.83969 0.02013 -0.29700
C 	C 	0.44629 0.83609 0.99493 0.17800
C 	C 	0.50687 0.78777 0.03849 -0.25000
C 	C 	0.47255 0.74935 0.10935 0.16100
C 	C 	0.28764 0.90014 0.97498 0.43800
C 	C 	0.96493 0.09133 0.25491 0.33600
C 	C 	0.05788 0.02278 0.25056 -0.32400
C 	C 	0.10562 0.01672 0.29334 0.19400
C 	C 	0.06360 0.07840 0.33630 -0.24900
C 	C 	0.97410 0.14530 0.33510 0.15800
C 	C 	0.10444 0.95574 0.20538 0.52300
C 	C 	0.70941 0.17001 0.40877 0.33800
C 	C 	0.66031 0.14421 0.47987 -0.29000
C 	C 	0.66391 0.05371 0.50507 0.15900
C 	C 	0.71223 0.99313 0.46151 -0.22200
C 	C 	0.75065 0.02745 0.39065 0.13400
C 	C 	0.59986 0.21236 0.52502 0.43500
C 	C 	0.40867 0.53507 0.24509 0.33900
C 	C 	0.47722 0.44212 0.24944 -0.32700
C 	C 	0.48328 0.39438 0.20666 0.19500
C 	C 	0.42160 0.43640 0.16370 -0.25200
C 	C 	0.35470 0.52590 0.16490 0.16200
C 	C 	0.54426 0.39556 0.29462 0.52600
C 	C 	0.71181 0.70941 0.40877 0.34200
C 	C 	0.71561 0.66031 0.47987 -0.29900
C 	C 	0.77731 0.66391 0.50507 0.18000
C 	C 	0.83313 0.71223 0.46151 -0.25100
C 	C 	0.83125 0.75065 0.39065 0.16200
C 	C 	0.66276 0.59986 0.52502 0.43800
C 	C 	0.81117 0.40867 0.24509 0.33800
C 	C 	0.83122 0.47722 0.24944 -0.32500
C 	C 	0.91568 0.48328 0.20666 0.18900
C 	C 	0.97830 0.42160 0.16370 -0.24200
C 	C 	0.95450 0.35470 0.16490 0.15700
C 	C 	0.76556 0.54426 0.29462 0.52500
C 	C 	0.17001 0.71181 0.40877 0.33700
C 	C 	0.14421 0.71561 0.47987 -0.28800
C 	C 	0.05371 0.77731 0.50507 0.15400
C 	C 	0.99313 0.83313 0.46151 -0.21400
C 	C 	0.02745 0.83125 0.39065 0.12800
C 	C 	0.21236 0.66276 0.52502 0.43400
C 	C 	0.53507 0.81117 0.24509 0.33800
C 	C 	0.44212 0.83122 0.24944 -0.32500
C 	C 	0.39438 0.91568 0.20666 0.19000
C 	C 	0.43640 0.97830 0.16370 -0.24300
C 	C 	0.52590 0.95450 0.16490 0.15700
C 	C 	0.39556 0.76556 0.29462 0.52500
N 	N 	0.24959 0.27299 0.86443 -0.24900
N 	N 	0.84801 0.37321 0.70387 -0.27100
N 	N 	0.27299 0.61299 0.86443 -0.25100
N 	N 	0.37321 0.07491 0.70387 -0.27100
N 	N 	0.61299 0.24959 0.86443 -0.25100
N 	N 	0.07491 0.84801 0.70387 -0.26800
N 	N 	0.25041 0.88701 0.63557 -0.25100
N 	N 	0.65199 0.42509 0.79613 -0.27100
N 	N 	0.22701 0.25041 0.63557 -0.25300
N 	N 	0.12679 0.65199 0.79613 -0.27100
N 	N 	0.88701 0.22701 0.63557 -0.25000
N 	N 	0.42509 0.12679 0.79613 -0.27100
N 	N 	0.75041 0.72701 0.13557 -0.25100
N 	N 	0.15199 0.62679 0.29613 -0.27000
N 	N 	0.72701 0.38701 0.13557 -0.25300
N 	N 	0.62679 0.92509 0.29613 -0.27300
N 	N 	0.38701 0.75041 0.13557 -0.25300
N 	N 	0.92509 0.15199 0.29613 -0.27000
N 	N 	0.74959 0.11299 0.36443 -0.24800
N 	N 	0.34801 0.57491 0.20387 -0.27100
N 	N 	0.77299 0.74959 0.36443 -0.25300
N 	N 	0.87321 0.34801 0.20387 -0.26900
N 	N 	0.11299 0.77299 0.36443 -0.24600
N 	N 	0.57491 0.87321 0.20387 -0.26900
O 	O 	0.08764 0.11344 0.99988 -0.55700
O 	O 	0.05578 0.17068 0.08736 -0.42000
O 	O 	0.22050 0.15190 0.87970 -0.52500
O 	O 	0.03211 0.19281 0.84157 -0.58800
O 	O 	0.10989 0.28489 0.78493 -0.47100
O 	O 	0.89628 0.23398 0.77896 -0.53800
O 	O 	0.11344 0.79904 0.99988 -0.56400
O 	O 	0.17068 0.68618 0.08736 -0.42200
O 	O 	0.15190 0.74790 0.87970 -0.52600
O 	O 	0.19281 0.93351 0.84157 -0.59100
O 	O 	0.28489 0.82029 0.78493 -0.47100
O 	O 	0.23398 0.09078 0.77896 -0.53900
O 	O 	0.79904 0.08764 0.99988 -0.56600
O 	O 	0.68618 0.05578 0.08736 -0.42600
O 	O 	0.74790 0.22050 0.87970 -0.52500
O 	O 	0.93351 0.03211 0.84157 -0.58900
O 	O 	0.82029 0.10989 0.78493 -0.46900
O 	O 	0.09078 0.89628 0.77896 -0.53600
O 	O 	0.41236 0.70096 0.50012 -0.56700
O 	O 	0.44422 0.81382 0.41264 -0.42300
O 	O 	0.27950 0.75210 0.62030 -0.52700
O 	O 	0.46789 0.56649 0.65843 -0.58900
O 	O 	0.39011 0.67971 0.71507 -0.47000
O 	O 	0.60372 0.40922 0.72104 -0.53800
O 	O 	0.38656 0.41236 0.50012 -0.56700
O 	O 	0.32932 0.44422 0.41264 -0.42400
O 	O 	0.34810 0.27950 0.62030 -0.52700
O 	O 	0.30719 0.46789 0.65843 -0.58900
O 	O 	0.21511 0.39011 0.71507 -0.47100
O 	O 	0.26602 0.60372 0.72104 -0.53800
O 	O 	0.70096 0.38656 0.50012 -0.56700
O 	O 	0.81382 0.32932 0.41264 -0.42300
O 	O 	0.75210 0.34810 0.62030 -0.52600
O 	O 	0.56649 0.30719 0.65843 -0.58900
O 	O 	0.67971 0.21511 0.71507 -0.47100
O 	O 	0.40922 0.26602 0.72104 -0.53800
O 	O 	0.91236 0.88656 0.00012 -0.56000
O 	O 	0.94422 0.82932 0.91264 -0.41900
O 	O 	0.77950 0.84810 0.12030 -0.52600
O 	O 	0.96789 0.80719 0.15843 -0.58700
O 	O 	0.89011 0.71511 0.21507 -0.47100
O 	O 	0.10372 0.76602 0.22104 -0.53800
O 	O 	0.88656 0.20096 0.00012 -0.56800
O 	O 	0.82932 0.31382 0.91264 -0.42400
O 	O 	0.84810 0.25210 0.12030 -0.52600
O 	O 	0.80719 0.06649 0.15843 -0.59300
O 	O 	0.71511 0.17971 0.21507 -0.47100
O 	O 	0.76602 0.90922 0.22104 -0.54000
O 	O 	0.20096 0.91236 0.00012 -0.56800
O 	O 	0.31382 0.94422 0.91264 -0.42600
O 	O 	0.25210 0.77950 0.12030 -0.52600
O 	O 	0.06649 0.96789 0.15843 -0.58900
O 	O 	0.17971 0.89011 0.21507 -0.47000
O 	O 	0.90922 0.10372 0.22104 -0.53700
O 	O 	0.58764 0.29904 0.49988 -0.56600
O 	O 	0.55578 0.18618 0.58736 -0.42300
O 	O 	0.72050 0.24790 0.37970 -0.52600
O 	O 	0.53211 0.43351 0.34157 -0.58900
O 	O 	0.60989 0.32029 0.28493 -0.47000
O 	O 	0.39628 0.59078 0.27896 -0.53800
O 	O 	0.61344 0.58764 0.49988 -0.56700
O 	O 	0.67068 0.55578 0.58736 -0.42400
O 	O 	0.65190 0.72050 0.37970 -0.52700
O 	O 	0.69281 0.53211 0.34157 -0.58900
O 	O 	0.78489 0.60989 0.28493 -0.47000
O 	O 	0.73398 0.39628 0.27896 -0.53800
O 	O 	0.29904 0.61344 0.49988 -0.56600
O 	O 	0.18618 0.67068 0.58736 -0.42300
O 	O 	0.24790 0.65190 0.37970 -0.52600
O 	O 	0.43351 0.69281 0.34157 -0.58900
O 	O 	0.32029 0.78489 0.28493 -0.47000
O 	O 	0.59078 0.73398 0.27896 -0.53800
O 	O 	0.02244 0.02244 0.93268 -0.73000
O 	O 	0.47756 0.47756 0.56732 -0.73800
O 	O 	0.97756 0.97756 0.06732 -0.72800
O 	O 	0.52244 0.52244 0.43268 -0.73800
