data_crystal

_cell_length_a 6.88110
_cell_length_b 18.35100
_cell_length_c 18.40700
_cell_angle_alpha 110.12000
_cell_angle_beta  90.00000
_cell_angle_gamma 90.00000

_symmetry_space_group_name_	'P 1'
_symmetry_space_group_name_H-M	'P 1'

loop_
_symmetry_equiv_pos_as_xyz
  x,y,z

loop_
_atom_site_label
_atom_site_type_symbol
_atom_site_fract_x
_atom_site_fract_y
_atom_site_fract_z
_atom_site_charge
Dy	Dy	0.77688 0.62647 0.62305 1.50100
Dy	Dy	0.74753 0.62460 0.10414 1.65500
Dy	Dy	0.27688 0.87353 0.87695 1.49600
Dy	Dy	0.24753 0.87540 0.39586 1.65800
Dy	Dy	0.22312 0.37353 0.37695 1.50100
Dy	Dy	0.25247 0.37540 0.89586 1.65500
Dy	Dy	0.72312 0.12647 0.12305 1.49700
Dy	Dy	0.75247 0.12460 0.60414 1.65900
H 	H 	0.51280 0.62590 0.89770 0.01600
H 	H 	0.73220 0.41660 0.76260 0.03500
H 	H 	0.59300 0.72640 0.41050 0.01500
H 	H 	0.79860 0.50660 0.33110 0.02700
H 	H 	0.01280 0.87410 0.60230 0.01600
H 	H 	0.23220 0.08340 0.73740 0.03400
H 	H 	0.09300 0.77360 0.08950 0.01600
H 	H 	0.29860 0.99340 0.16890 0.02800
H 	H 	0.48720 0.37410 0.10230 0.01600
H 	H 	0.26780 0.58340 0.23740 0.03500
H 	H 	0.40700 0.27360 0.58950 0.01500
H 	H 	0.20140 0.49340 0.66890 0.02700
H 	H 	0.98720 0.12590 0.39770 0.01600
H 	H 	0.76780 0.91660 0.26260 0.03400
H 	H 	0.90700 0.22640 0.91050 0.01600
H 	H 	0.70140 0.00660 0.83110 0.02800
C 	C 	0.58740 0.61650 0.78910 -0.06300
C 	C 	0.56600 0.59330 0.85150 0.04700
C 	C 	0.62820 0.51780 0.84280 -0.13800
C 	C 	0.69880 0.46770 0.76970 0.03700
C 	C 	0.71630 0.49580 0.71110 -0.04800
C 	C 	0.53350 0.69750 0.78950 0.35800
C 	C 	0.62710 0.49200 0.91080 0.42300
C 	C 	0.79560 0.45020 0.63020 0.32200
C 	C 	0.64550 0.68070 0.29530 -0.06500
C 	C 	0.63670 0.68260 0.37090 0.02900
C 	C 	0.69560 0.61680 0.38540 -0.07500
C 	C 	0.76250 0.55190 0.32260 0.01100
C 	C 	0.77410 0.55560 0.24910 -0.03000
C 	C 	0.58000 0.74710 0.27090 0.39900
C 	C 	0.69560 0.61640 0.46660 0.29100
C 	C 	0.85500 0.49080 0.17600 0.32700
C 	C 	0.08740 0.88350 0.71090 -0.06400
C 	C 	0.06600 0.90670 0.64850 0.04700
C 	C 	0.12820 0.98220 0.65720 -0.14000
C 	C 	0.19880 0.03230 0.73030 0.03800
C 	C 	0.21630 0.00420 0.78890 -0.04800
C 	C 	0.03350 0.80250 0.71050 0.35800
C 	C 	0.12710 0.00800 0.58920 0.42300
C 	C 	0.29560 0.04980 0.86980 0.32200
C 	C 	0.14550 0.81930 0.20470 -0.06400
C 	C 	0.13670 0.81740 0.12910 0.02900
C 	C 	0.19560 0.88320 0.11460 -0.07500
C 	C 	0.26250 0.94810 0.17740 0.01000
C 	C 	0.27410 0.94440 0.25090 -0.02800
C 	C 	0.08000 0.75290 0.22910 0.39900
C 	C 	0.19560 0.88360 0.03340 0.29400
C 	C 	0.35500 0.00920 0.32400 0.32500
C 	C 	0.41260 0.38350 0.21090 -0.06300
C 	C 	0.43400 0.40670 0.14850 0.04700
C 	C 	0.37180 0.48220 0.15720 -0.13800
C 	C 	0.30120 0.53230 0.23030 0.03700
C 	C 	0.28370 0.50420 0.28890 -0.04800
C 	C 	0.46650 0.30250 0.21050 0.35800
C 	C 	0.37290 0.50800 0.08920 0.42300
C 	C 	0.20440 0.54980 0.36980 0.32200
C 	C 	0.35450 0.31930 0.70470 -0.06500
C 	C 	0.36330 0.31740 0.62910 0.02900
C 	C 	0.30440 0.38320 0.61460 -0.07500
C 	C 	0.23750 0.44810 0.67740 0.01100
C 	C 	0.22590 0.44440 0.75090 -0.03000
C 	C 	0.42000 0.25290 0.72910 0.39900
C 	C 	0.30440 0.38360 0.53340 0.29100
C 	C 	0.14500 0.50920 0.82400 0.32700
C 	C 	0.91260 0.11650 0.28910 -0.06400
C 	C 	0.93400 0.09330 0.35150 0.04700
C 	C 	0.87180 0.01780 0.34280 -0.14000
C 	C 	0.80120 0.96770 0.26970 0.03800
C 	C 	0.78370 0.99580 0.21110 -0.04800
C 	C 	0.96650 0.19750 0.28950 0.35800
C 	C 	0.87290 0.99200 0.41080 0.42300
C 	C 	0.70440 0.95020 0.13020 0.32200
C 	C 	0.85450 0.18070 0.79530 -0.06400
C 	C 	0.86330 0.18260 0.87090 0.02900
C 	C 	0.80440 0.11680 0.88540 -0.07500
C 	C 	0.73750 0.05190 0.82260 0.01000
C 	C 	0.72590 0.05560 0.74910 -0.02800
C 	C 	0.92000 0.24710 0.77090 0.39900
C 	C 	0.80440 0.11640 0.96660 0.29400
C 	C 	0.64500 0.99080 0.67600 0.32500
N 	N 	0.66810 0.57020 0.72050 -0.18000
N 	N 	0.71530 0.61810 0.23540 -0.16900
N 	N 	0.16810 0.92980 0.77950 -0.18100
N 	N 	0.21530 0.88190 0.26460 -0.16900
N 	N 	0.33190 0.42980 0.27950 -0.18000
N 	N 	0.28470 0.38190 0.76460 -0.16900
N 	N 	0.83190 0.07020 0.22050 -0.18100
N 	N 	0.78470 0.11810 0.73540 -0.16900
O 	O 	0.42590 0.74093 0.84179 -0.39600
O 	O 	0.60810 0.71400 0.73449 -0.43300
O 	O 	0.68470 0.54014 0.97474 -0.45900
O 	O 	0.57390 0.42174 0.89791 -0.44500
O 	O 	0.81880 0.37831 0.60897 -0.26600
O 	O 	0.83250 0.49065 0.58858 -0.41700
O 	O 	0.51030 0.80699 0.32318 -0.45500
O 	O 	0.60020 0.73740 0.20005 -0.42200
O 	O 	0.71490 0.55273 0.47630 -0.36400
O 	O 	0.68400 0.68130 0.52451 -0.37700
O 	O 	0.91430 0.42826 0.18020 -0.26700
O 	O 	0.85450 0.50621 0.11466 -0.42400
O 	O 	0.92590 0.75907 0.65821 -0.39500
O 	O 	0.10810 0.78600 0.76551 -0.43300
O 	O 	0.18470 0.95986 0.52526 -0.46000
O 	O 	0.07390 0.07826 0.60209 -0.44600
O 	O 	0.31880 0.12169 0.89103 -0.26700
O 	O 	0.33250 0.00935 0.91142 -0.41600
O 	O 	0.01030 0.69301 0.17682 -0.45400
O 	O 	0.10020 0.76260 0.29995 -0.42200
O 	O 	0.21490 0.94727 0.02370 -0.36300
O 	O 	0.18400 0.81870 0.97549 -0.38000
O 	O 	0.41430 0.07174 0.31980 -0.26600
O 	O 	0.35450 0.99379 0.38534 -0.42300
O 	O 	0.57410 0.25907 0.15821 -0.39600
O 	O 	0.39190 0.28600 0.26551 -0.43300
O 	O 	0.31530 0.45986 0.02526 -0.45900
O 	O 	0.42610 0.57826 0.10209 -0.44500
O 	O 	0.18120 0.62169 0.39103 -0.26600
O 	O 	0.16750 0.50935 0.41142 -0.41700
O 	O 	0.48970 0.19301 0.67682 -0.45500
O 	O 	0.39980 0.26260 0.79995 -0.42200
O 	O 	0.28510 0.44727 0.52370 -0.36400
O 	O 	0.31600 0.31870 0.47549 -0.37700
O 	O 	0.08570 0.57174 0.81980 -0.26700
O 	O 	0.14550 0.49379 0.88534 -0.42400
O 	O 	0.07410 0.24093 0.34179 -0.39500
O 	O 	0.89190 0.21400 0.23449 -0.43300
O 	O 	0.81530 0.04014 0.47474 -0.46000
O 	O 	0.92610 0.92174 0.39791 -0.44600
O 	O 	0.68120 0.87831 0.10897 -0.26700
O 	O 	0.66750 0.99065 0.08858 -0.41600
O 	O 	0.98970 0.30699 0.82318 -0.45400
O 	O 	0.89980 0.23740 0.70005 -0.42200
O 	O 	0.78510 0.05273 0.97630 -0.36300
O 	O 	0.81600 0.18130 0.02451 -0.38000
O 	O 	0.58570 0.92826 0.68020 -0.26600
O 	O 	0.64550 0.00621 0.61466 -0.42300
