data_crystal

_cell_length_a 13.50400
_cell_length_b 7.44470
_cell_length_c 8.20590
_cell_angle_alpha 90.00000
_cell_angle_beta  90.00000
_cell_angle_gamma 90.00000

_symmetry_space_group_name_	'P 1'
_symmetry_space_group_name_H-M	'P 1'

loop_
_symmetry_equiv_pos_as_xyz
  x,y,z

loop_
_atom_site_label
_atom_site_type_symbol
_atom_site_fract_x
_atom_site_fract_y
_atom_site_fract_z
_atom_site_charge
Cu	Cu	0.43512 0.15208 0.03785 0.70900
Cu	Cu	0.06663 0.15093 0.14566 0.74500
N 	N 	0.29300 0.16880 0.08040 -0.25700
C 	C 	0.20890 0.17010 0.11070 -0.30300
N 	N 	0.45970 0.50640 0.84680 -0.20300
C 	C 	0.48550 0.42110 0.95510 -0.17500
N 	N 	0.46280 0.99970 0.84760 -0.15100
C 	C 	0.48350 0.91360 0.73630 -0.32600
Cu	Cu	0.56488 0.84792 0.53785 0.78100
Cu	Cu	0.93337 0.84907 0.64566 0.78700
N 	N 	0.70700 0.83120 0.58040 -0.22200
C 	C 	0.79110 0.82990 0.61070 -0.22600
N 	N 	0.54030 0.49360 0.34680 -0.21200
C 	C 	0.51450 0.57890 0.45510 -0.36200
N 	N 	0.53720 0.00030 0.34760 -0.19800
C 	C 	0.51650 0.08640 0.23630 -0.38800
Cu	Cu	0.93512 0.34792 0.03785 0.69700
Cu	Cu	0.56663 0.34907 0.14566 0.73600
N 	N 	0.79300 0.33120 0.08040 -0.26100
C 	C 	0.70890 0.32990 0.11070 -0.31300
N 	N 	0.95970 0.99360 0.84680 -0.22500
C 	C 	0.98550 0.07890 0.95510 -0.17000
N 	N 	0.96280 0.50030 0.84760 -0.14400
C 	C 	0.98350 0.58640 0.73630 -0.33800
Cu	Cu	0.06488 0.65208 0.53785 0.79400
Cu	Cu	0.43337 0.65093 0.64566 0.79600
N 	N 	0.20700 0.66880 0.58040 -0.21800
C 	C 	0.29110 0.67010 0.61070 -0.21700
N 	N 	0.04030 0.00640 0.34680 -0.19500
C 	C 	0.01450 0.92110 0.45510 -0.36300
N 	N 	0.03720 0.49970 0.34760 -0.20300
C 	C 	0.01650 0.41360 0.23630 -0.37500
