data_crystal

_cell_length_a 16.21500
_cell_length_b 13.97700
_cell_length_c 14.17600
_cell_angle_alpha 90.00000
_cell_angle_beta  114.55500
_cell_angle_gamma 90.00000

_symmetry_space_group_name_	'P 1'
_symmetry_space_group_name_H-M	'P 1'

loop_
_symmetry_equiv_pos_as_xyz
  x,y,z

loop_
_atom_site_label
_atom_site_type_symbol
_atom_site_fract_x
_atom_site_fract_y
_atom_site_fract_z
_atom_site_charge
Cu	Cu	0.14683 0.81020 0.86384 0.80300
Cu	Cu	0.45512 0.95416 0.03551 0.77500
Cu	Cu	0.41563 0.28612 0.12191 0.79700
Cu	Cu	0.14815 0.45386 0.86420 0.79800
C 	C 	0.25630 0.87880 0.92130 -0.28900
N 	N 	0.32610 0.91740 0.95850 -0.21800
N 	N 	0.14970 0.67310 0.87040 -0.23600
C 	C 	0.15000 0.59120 0.86620 -0.28000
C 	C 	0.47070 0.09930 0.04930 -0.36200
N 	N 	0.45190 0.16890 0.07960 -0.22400
C 	C 	0.24420 0.37730 0.95460 -0.29300
N 	N 	0.30330 0.33370 0.01330 -0.22800
N 	N 	0.50110 0.88900 0.17010 -0.22400
C 	C 	0.52880 0.85070 0.25200 -0.30000
N 	N 	0.96120 0.89410 0.73660 -0.23400
C 	C 	0.03070 0.86300 0.79120 -0.28500
Cu	Cu	0.85317 0.31020 0.63616 0.80400
Cu	Cu	0.54488 0.45416 0.46449 0.77800
Cu	Cu	0.58437 0.78612 0.37809 0.79600
Cu	Cu	0.85185 0.95386 0.63580 0.79800
C 	C 	0.74370 0.37880 0.57870 -0.29100
N 	N 	0.67390 0.41740 0.54150 -0.21900
N 	N 	0.85030 0.17310 0.62960 -0.23600
C 	C 	0.85000 0.09120 0.63380 -0.27900
C 	C 	0.52930 0.59930 0.45070 -0.36500
N 	N 	0.54810 0.66890 0.42040 -0.22400
C 	C 	0.75580 0.87730 0.54540 -0.29100
N 	N 	0.69670 0.83370 0.48670 -0.22900
N 	N 	0.49890 0.38900 0.32990 -0.22300
C 	C 	0.47120 0.35070 0.24800 -0.29900
N 	N 	0.03880 0.39410 0.76340 -0.23300
C 	C 	0.96930 0.36300 0.70880 -0.28800
Cu	Cu	0.85317 0.18980 0.13616 0.80400
Cu	Cu	0.54488 0.04584 0.96449 0.77600
Cu	Cu	0.58437 0.71388 0.87809 0.79700
Cu	Cu	0.85185 0.54614 0.13580 0.79800
C 	C 	0.74370 0.12120 0.07870 -0.28900
N 	N 	0.67390 0.08260 0.04150 -0.21800
N 	N 	0.85030 0.32690 0.12960 -0.23600
C 	C 	0.85000 0.40880 0.13380 -0.28000
C 	C 	0.52930 0.90070 0.95070 -0.36200
N 	N 	0.54810 0.83110 0.92040 -0.22400
C 	C 	0.75580 0.62270 0.04540 -0.29300
N 	N 	0.69670 0.66630 0.98670 -0.22800
N 	N 	0.49890 0.11100 0.82990 -0.22400
C 	C 	0.47120 0.14930 0.74800 -0.30000
N 	N 	0.03880 0.10590 0.26340 -0.23400
C 	C 	0.96930 0.13700 0.20880 -0.28500
Cu	Cu	0.14683 0.68980 0.36384 0.80400
Cu	Cu	0.45512 0.54584 0.53551 0.77800
Cu	Cu	0.41563 0.21388 0.62191 0.79600
Cu	Cu	0.14815 0.04614 0.36420 0.79800
C 	C 	0.25630 0.62120 0.42130 -0.29100
N 	N 	0.32610 0.58260 0.45850 -0.21900
N 	N 	0.14970 0.82690 0.37040 -0.23600
C 	C 	0.15000 0.90880 0.36620 -0.27900
C 	C 	0.47070 0.40070 0.54930 -0.36500
N 	N 	0.45190 0.33110 0.57960 -0.22400
C 	C 	0.24420 0.12270 0.45460 -0.29100
N 	N 	0.30330 0.16630 0.51330 -0.22900
N 	N 	0.50110 0.61100 0.67010 -0.22300
C 	C 	0.52880 0.64930 0.75200 -0.29900
N 	N 	0.96120 0.60590 0.23660 -0.23300
C 	C 	0.03070 0.63700 0.29120 -0.28800
