data_crystal

_cell_length_a 12.84800
_cell_length_b 13.37000
_cell_length_c 13.96700
_cell_angle_alpha 90.00000
_cell_angle_beta  90.00000
_cell_angle_gamma 90.00000

_symmetry_space_group_name_	'P 1'
_symmetry_space_group_name_H-M	'P 1'

loop_
_symmetry_equiv_pos_as_xyz
  x,y,z

loop_
_atom_site_label
_atom_site_type_symbol
_atom_site_fract_x
_atom_site_fract_y
_atom_site_fract_z
_atom_site_charge
Cu	Cu	0.39472 0.18663 0.63628 0.79700
Cu	Cu	0.54851 0.05078 0.94170 0.77700
C 	C 	0.46395 0.13169 0.74539 -0.27900
N 	N 	0.49498 0.09973 0.81703 -0.22000
C 	C 	0.45686 0.39350 0.55453 -0.36500
N 	N 	0.42683 0.32222 0.59089 -0.21500
C 	C 	0.27699 0.12684 0.57220 -0.27200
N 	N 	0.19587 0.09534 0.55300 -0.22300
Cu	Cu	0.10528 0.81337 0.13628 0.79600
Cu	Cu	0.95149 0.94922 0.44170 0.77400
C 	C 	0.03605 0.86831 0.24539 -0.27900
N 	N 	0.00502 0.90027 0.31703 -0.21900
C 	C 	0.04314 0.60650 0.05453 -0.36600
N 	N 	0.07317 0.67778 0.09089 -0.21500
C 	C 	0.22301 0.87316 0.07220 -0.27100
N 	N 	0.30413 0.90466 0.05300 -0.22200
Cu	Cu	0.60528 0.68663 0.86372 0.79600
Cu	Cu	0.45149 0.55078 0.55830 0.77700
C 	C 	0.53605 0.63169 0.75461 -0.28000
N 	N 	0.50502 0.59973 0.68297 -0.22100
C 	C 	0.54314 0.89350 0.94547 -0.36300
N 	N 	0.57317 0.82222 0.90911 -0.21500
C 	C 	0.72301 0.62684 0.92780 -0.27200
N 	N 	0.80413 0.59534 0.94700 -0.22200
Cu	Cu	0.89472 0.31337 0.36372 0.79600
Cu	Cu	0.04851 0.44922 0.05830 0.77600
C 	C 	0.96395 0.36831 0.25461 -0.27900
N 	N 	0.99498 0.40027 0.18297 -0.22000
C 	C 	0.95686 0.10650 0.44547 -0.36100
N 	N 	0.92683 0.17778 0.40911 -0.21500
C 	C 	0.77699 0.37316 0.42780 -0.27100
N 	N 	0.69587 0.40466 0.44700 -0.22200
Cu	Cu	0.60528 0.81337 0.36372 0.79600
Cu	Cu	0.45149 0.94922 0.05830 0.77600
C 	C 	0.53605 0.86831 0.25461 -0.28000
N 	N 	0.50502 0.90027 0.18297 -0.22100
C 	C 	0.54314 0.60650 0.44547 -0.36500
N 	N 	0.57317 0.67778 0.40911 -0.21500
C 	C 	0.72301 0.87316 0.42780 -0.27200
N 	N 	0.80413 0.90466 0.44700 -0.22300
Cu	Cu	0.89472 0.18663 0.86372 0.79600
Cu	Cu	0.04851 0.05078 0.55830 0.77400
C 	C 	0.96395 0.13169 0.75461 -0.27900
N 	N 	0.99498 0.09973 0.68297 -0.21900
C 	C 	0.95686 0.39350 0.94547 -0.36600
N 	N 	0.92683 0.32222 0.90911 -0.21500
C 	C 	0.77699 0.12684 0.92780 -0.27100
N 	N 	0.69587 0.09534 0.94700 -0.22200
Cu	Cu	0.39472 0.31337 0.13628 0.79600
Cu	Cu	0.54851 0.44922 0.44170 0.77700
C 	C 	0.46395 0.36831 0.24539 -0.28000
N 	N 	0.49498 0.40027 0.31703 -0.22100
C 	C 	0.45686 0.10650 0.05453 -0.36300
N 	N 	0.42683 0.17778 0.09089 -0.21500
C 	C 	0.27699 0.37316 0.07220 -0.27200
N 	N 	0.19587 0.40466 0.05300 -0.22200
Cu	Cu	0.10528 0.68663 0.63628 0.79600
Cu	Cu	0.95149 0.55078 0.94170 0.77600
C 	C 	0.03605 0.63169 0.74539 -0.27900
N 	N 	0.00502 0.59973 0.81703 -0.22000
C 	C 	0.04314 0.89350 0.55453 -0.36100
N 	N 	0.07317 0.82222 0.59089 -0.21500
C 	C 	0.22301 0.62684 0.57220 -0.27100
N 	N 	0.30413 0.59534 0.55300 -0.22200
