data_crystal

_cell_length_a 9.31500
_cell_length_b 13.20000
_cell_length_c 15.45500
_cell_angle_alpha 90.00000
_cell_angle_beta  106.81600
_cell_angle_gamma 90.00000

_symmetry_space_group_name_	'P 1'
_symmetry_space_group_name_H-M	'P 1'

loop_
_symmetry_equiv_pos_as_xyz
  x,y,z

loop_
_atom_site_label
_atom_site_type_symbol
_atom_site_fract_x
_atom_site_fract_y
_atom_site_fract_z
_atom_site_charge
Cd	Cd	0.57147 0.87376 0.11081 1.20900
Cd	Cd	0.64416 0.39874 0.43875 1.18800
Cd	Cd	0.74499 0.58403 0.25685 1.23000
Cd	Cd	0.92853 0.37376 0.88919 1.20800
Cd	Cd	0.85584 0.89874 0.56125 1.18800
Cd	Cd	0.75501 0.08403 0.74315 1.23000
Cd	Cd	0.42853 0.12624 0.88919 1.20900
Cd	Cd	0.35584 0.60126 0.56125 1.18800
Cd	Cd	0.25501 0.41597 0.74315 1.23000
Cd	Cd	0.07147 0.62624 0.11081 1.20800
Cd	Cd	0.14416 0.10126 0.43875 1.18800
Cd	Cd	0.24499 0.91597 0.25685 1.23000
C 	C 	0.78230 0.89210 0.97920 -0.02500
C 	C 	0.45120 0.70620 0.40630 -0.04600
C 	C 	0.84080 0.80320 0.03760 0.32800
C 	C 	0.96780 0.92680 0.88350 0.27500
C 	C 	0.53950 0.77460 0.26710 0.33000
C 	C 	0.51550 0.70320 0.33610 -0.04900
C 	C 	0.83510 0.94040 0.91530 0.00200
C 	C 	0.38160 0.78850 0.44810 0.30000
C 	C 	0.71770 0.39210 0.02080 -0.01700
C 	C 	0.04880 0.20620 0.59370 -0.04500
C 	C 	0.65920 0.30320 0.96240 0.32200
C 	C 	0.53220 0.42680 0.11650 0.28300
C 	C 	0.96050 0.27460 0.73290 0.32600
C 	C 	0.98450 0.20320 0.66390 -0.05000
C 	C 	0.66490 0.44040 0.08470 -0.00400
C 	C 	0.11840 0.28850 0.55190 0.30000
C 	C 	0.21770 0.10790 0.02080 -0.02500
C 	C 	0.54880 0.29380 0.59370 -0.04600
C 	C 	0.15920 0.19680 0.96240 0.32800
C 	C 	0.03220 0.07320 0.11650 0.27500
C 	C 	0.46050 0.22540 0.73290 0.33000
C 	C 	0.48450 0.29680 0.66390 -0.04900
C 	C 	0.16490 0.05960 0.08470 0.00200
C 	C 	0.61840 0.21150 0.55190 0.30000
C 	C 	0.28230 0.60790 0.97920 -0.01700
C 	C 	0.95120 0.79380 0.40630 -0.04500
C 	C 	0.34080 0.69680 0.03760 0.32200
C 	C 	0.46780 0.57320 0.88350 0.28300
C 	C 	0.03950 0.72540 0.26710 0.32600
C 	C 	0.01550 0.79680 0.33610 -0.05000
C 	C 	0.33510 0.55960 0.91530 -0.00400
C 	C 	0.88160 0.71150 0.44810 0.30000
N 	N 	0.73830 0.01640 0.88040 -0.16400
N 	N 	0.63070 0.01430 0.92140 -0.16200
N 	N 	0.65660 0.93960 0.98330 -0.16200
N 	N 	0.54050 0.55650 0.40100 -0.18000
N 	N 	0.57050 0.60880 0.33550 -0.16700
N 	N 	0.46870 0.61420 0.44470 -0.19200
N 	N 	0.76170 0.51640 0.11960 -0.16100
N 	N 	0.86930 0.51430 0.07860 -0.15800
N 	N 	0.84340 0.43960 0.01670 -0.16400
N 	N 	0.95950 0.05650 0.59900 -0.18000
N 	N 	0.92950 0.10880 0.66450 -0.16700
N 	N 	0.03130 0.11420 0.55530 -0.19100
N 	N 	0.26170 0.98360 0.11960 -0.16400
N 	N 	0.36930 0.98570 0.07860 -0.16200
N 	N 	0.34340 0.06040 0.01670 -0.16200
N 	N 	0.45950 0.44350 0.59900 -0.18000
N 	N 	0.42950 0.39120 0.66450 -0.16700
N 	N 	0.53130 0.38580 0.55530 -0.19200
N 	N 	0.23830 0.48360 0.88040 -0.16100
N 	N 	0.13070 0.48570 0.92140 -0.15800
N 	N 	0.15660 0.56040 0.98330 -0.16400
N 	N 	0.04050 0.94350 0.40100 -0.18000
N 	N 	0.07050 0.89120 0.33550 -0.16700
N 	N 	0.96870 0.88580 0.44470 -0.19100
Cl	Cl	0.80542 0.40133 0.32989 -0.63700
Cl	Cl	0.69458 0.90133 0.67011 -0.63700
Cl	Cl	0.19458 0.59867 0.67011 -0.63700
Cl	Cl	0.30542 0.09867 0.32989 -0.63700
O 	O 	0.63050 0.74600 0.22520 -0.48700
O 	O 	0.47240 0.85750 0.25070 -0.48800
O 	O 	0.05510 0.85010 0.91400 -0.20500
O 	O 	0.94970 0.75570 0.02180 -0.36800
O 	O 	0.38930 0.87740 0.42070 -0.35700
O 	O 	0.78110 0.77910 0.09640 -0.40700
O 	O 	0.99550 0.98750 0.83070 -0.35400
O 	O 	0.32160 0.76320 0.50740 -0.40900
O 	O 	0.86950 0.24600 0.77480 -0.48700
O 	O 	0.02760 0.35750 0.74930 -0.48400
O 	O 	0.44490 0.35010 0.08600 -0.21400
O 	O 	0.55030 0.25570 0.97820 -0.37000
O 	O 	0.11070 0.37740 0.57930 -0.35700
O 	O 	0.71890 0.27910 0.90360 -0.40800
O 	O 	0.50450 0.48750 0.16930 -0.35700
O 	O 	0.17840 0.26320 0.49260 -0.40900
O 	O 	0.36950 0.25400 0.77480 -0.48700
O 	O 	0.52760 0.14250 0.74930 -0.48800
O 	O 	0.94490 0.14990 0.08600 -0.20500
O 	O 	0.05030 0.24430 0.97820 -0.36800
O 	O 	0.61070 0.12260 0.57930 -0.35700
O 	O 	0.21890 0.22090 0.90360 -0.40700
O 	O 	0.00450 0.01250 0.16930 -0.35400
O 	O 	0.67840 0.23680 0.49260 -0.40900
O 	O 	0.13050 0.75400 0.22520 -0.48700
O 	O 	0.97240 0.64250 0.25070 -0.48400
O 	O 	0.55510 0.64990 0.91400 -0.21400
O 	O 	0.44970 0.74430 0.02180 -0.37000
O 	O 	0.88930 0.62260 0.42070 -0.35700
O 	O 	0.28110 0.72090 0.09640 -0.40800
O 	O 	0.49550 0.51250 0.83070 -0.35700
O 	O 	0.82160 0.73680 0.50740 -0.40900
