data_crystal

_cell_length_a 11.17900
_cell_length_b 11.17900
_cell_length_c 17.06500
_cell_angle_alpha 81.36430
_cell_angle_beta  81.36430
_cell_angle_gamma 84.91730

_symmetry_space_group_name_	'P 1'
_symmetry_space_group_name_H-M	'P 1'

loop_
_symmetry_equiv_pos_as_xyz
  x,y,z

loop_
_atom_site_label
_atom_site_type_symbol
_atom_site_fract_x
_atom_site_fract_y
_atom_site_fract_z
_atom_site_charge
Cd	Cd	0.32233 0.22589 0.51800 1.19800
Cd	Cd	0.06803 0.42945 0.84897 1.21600
Cd	Cd	0.50728 0.02174 0.11994 1.20200
Cd	Cd	0.77411 0.67767 0.98200 1.19600
Cd	Cd	0.57055 0.93197 0.65103 1.21700
Cd	Cd	0.97826 0.49272 0.38006 1.20600
Cd	Cd	0.67767 0.77411 0.48200 1.19900
Cd	Cd	0.93197 0.57055 0.15103 1.21700
Cd	Cd	0.49272 0.97826 0.88006 1.20300
Cd	Cd	0.22589 0.32233 0.01800 1.19700
Cd	Cd	0.42945 0.06803 0.34897 1.21700
Cd	Cd	0.02174 0.50728 0.61994 1.20600
Cd	Cd	0.83404 0.16596 0.75000 1.16900
Cd	Cd	0.16596 0.83404 0.25000 1.16900
H 	H 	0.38320 0.48120 0.40280 0.02700
H 	H 	0.33480 0.52180 0.48650 0.04300
H 	H 	0.54550 0.33150 0.58770 0.03300
H 	H 	0.43740 0.42820 0.60280 0.04100
H 	H 	0.51880 0.61680 0.09720 0.02800
H 	H 	0.47820 0.66520 0.01350 0.04400
H 	H 	0.66850 0.45450 0.91230 0.03300
H 	H 	0.57180 0.56260 0.89720 0.04100
H 	H 	0.61680 0.51880 0.59720 0.02700
H 	H 	0.66520 0.47820 0.51350 0.04300
H 	H 	0.45450 0.66850 0.41230 0.03300
H 	H 	0.56260 0.57180 0.39720 0.04100
H 	H 	0.48120 0.38320 0.90280 0.02800
H 	H 	0.52180 0.33480 0.98650 0.04400
H 	H 	0.33150 0.54550 0.08770 0.03300
H 	H 	0.42820 0.43740 0.10280 0.04100
C 	C 	0.70400 0.21560 0.08550 0.29800
C 	C 	0.77300 0.19620 0.93090 -0.04600
C 	C 	0.32900 0.18580 0.78280 -0.05800
C 	C 	0.70580 0.17320 0.00600 -0.03700
C 	C 	0.40710 0.49510 0.45290 -0.05300
C 	C 	0.30240 0.21600 0.86670 0.35100
C 	C 	0.29040 0.22740 0.70910 -0.06100
C 	C 	0.87950 0.26710 0.89830 0.29700
C 	C 	0.50510 0.40550 0.56400 -0.05500
C 	C 	0.19820 0.32300 0.67810 0.33000
C 	C 	0.78440 0.29600 0.41450 0.29500
C 	C 	0.80380 0.22700 0.56910 -0.05500
C 	C 	0.81420 0.67100 0.71720 -0.05900
C 	C 	0.82680 0.29420 0.49400 -0.02300
C 	C 	0.50490 0.59290 0.04710 -0.05300
C 	C 	0.78400 0.69760 0.63330 0.35100
C 	C 	0.77260 0.70960 0.79090 -0.06200
C 	C 	0.73290 0.12050 0.60170 0.29900
C 	C 	0.59450 0.49490 0.93600 -0.05500
C 	C 	0.67700 0.80180 0.82190 0.33000
C 	C 	0.29600 0.78440 0.91450 0.29800
C 	C 	0.22700 0.80380 0.06910 -0.04600
C 	C 	0.67100 0.81420 0.21720 -0.05800
C 	C 	0.29420 0.82680 0.99400 -0.03700
C 	C 	0.59290 0.50490 0.54710 -0.05300
C 	C 	0.69760 0.78400 0.13330 0.35100
C 	C 	0.70960 0.77260 0.29090 -0.06100
C 	C 	0.12050 0.73290 0.10170 0.29700
C 	C 	0.49490 0.59450 0.43600 -0.05500
C 	C 	0.80180 0.67700 0.32190 0.33000
C 	C 	0.21560 0.70400 0.58550 0.29500
C 	C 	0.19620 0.77300 0.43090 -0.05500
C 	C 	0.18580 0.32900 0.28280 -0.05900
C 	C 	0.17320 0.70580 0.50600 -0.02300
C 	C 	0.49510 0.40710 0.95290 -0.05300
C 	C 	0.21600 0.30240 0.36670 0.35100
C 	C 	0.22740 0.29040 0.20910 -0.06200
C 	C 	0.26710 0.87950 0.39830 0.29900
C 	C 	0.40550 0.50510 0.06400 -0.05500
C 	C 	0.32300 0.19820 0.17810 0.33000
N 	N 	0.35590 0.16330 0.65460 -0.17600
N 	N 	0.63190 0.08070 0.92350 -0.17500
N 	N 	0.43040 0.08400 0.69380 -0.16500
N 	N 	0.45810 0.38150 0.49220 -0.18100
N 	N 	0.72430 0.13870 0.88070 -0.19700
N 	N 	0.41600 0.09640 0.77020 -0.17900
N 	N 	0.61830 0.10070 0.99920 -0.17900
N 	N 	0.83670 0.64410 0.84540 -0.17600
N 	N 	0.91930 0.36810 0.57650 -0.17700
N 	N 	0.91600 0.56960 0.80620 -0.16600
N 	N 	0.61850 0.54190 0.00780 -0.18000
N 	N 	0.86130 0.27570 0.61930 -0.19700
N 	N 	0.90360 0.58400 0.72980 -0.18000
N 	N 	0.89930 0.38170 0.50080 -0.18500
N 	N 	0.64410 0.83670 0.34540 -0.17600
N 	N 	0.36810 0.91930 0.07650 -0.17500
N 	N 	0.56960 0.91600 0.30620 -0.16500
N 	N 	0.54190 0.61850 0.50780 -0.18100
N 	N 	0.27570 0.86130 0.11930 -0.19700
N 	N 	0.58400 0.90360 0.22980 -0.17900
N 	N 	0.38170 0.89930 0.00080 -0.17900
N 	N 	0.16330 0.35590 0.15460 -0.17600
N 	N 	0.08070 0.63190 0.42350 -0.17700
N 	N 	0.08400 0.43040 0.19380 -0.16600
N 	N 	0.38150 0.45810 0.99220 -0.18000
N 	N 	0.13870 0.72430 0.38070 -0.19700
N 	N 	0.09640 0.41600 0.27020 -0.18000
N 	N 	0.10070 0.61830 0.49920 -0.18500
O 	O 	0.63720 0.16060 0.14320 -0.40000
O 	O 	0.22630 0.30030 0.88420 -0.55200
O 	O 	0.12110 0.37850 0.72310 -0.53400
O 	O 	0.91080 0.28300 0.82340 -0.52600
O 	O 	0.36150 0.15530 0.91710 -0.46300
O 	O 	0.76140 0.30440 0.08930 -0.26000
O 	O 	0.10371 0.48611 0.96623 -0.42300
O 	O 	0.20120 0.34560 0.60290 -0.50700
O 	O 	0.93600 0.31140 0.94400 -0.39000
O 	O 	0.83940 0.36280 0.35680 -0.39800
O 	O 	0.69970 0.77370 0.61580 -0.55300
O 	O 	0.62150 0.87890 0.77690 -0.53500
O 	O 	0.71700 0.08920 0.67660 -0.52600
O 	O 	0.84470 0.63850 0.58290 -0.46600
O 	O 	0.69560 0.23860 0.41070 -0.25900
O 	O 	0.51389 0.89629 0.53377 -0.42300
O 	O 	0.65440 0.79880 0.89710 -0.51000
O 	O 	0.68860 0.06400 0.55600 -0.39200
O 	O 	0.36280 0.83940 0.85680 -0.40000
O 	O 	0.77370 0.69970 0.11580 -0.55200
O 	O 	0.87890 0.62150 0.27690 -0.53400
O 	O 	0.08920 0.71700 0.17660 -0.52600
O 	O 	0.63850 0.84470 0.08290 -0.46300
O 	O 	0.23860 0.69560 0.91070 -0.26000
O 	O 	0.89629 0.51389 0.03377 -0.42300
O 	O 	0.79880 0.65440 0.39710 -0.50700
O 	O 	0.06400 0.68860 0.05600 -0.39000
O 	O 	0.16060 0.63720 0.64320 -0.39800
O 	O 	0.30030 0.22630 0.38420 -0.55300
O 	O 	0.37850 0.12110 0.22310 -0.53500
O 	O 	0.28300 0.91080 0.32340 -0.52600
O 	O 	0.15530 0.36150 0.41710 -0.46600
O 	O 	0.30440 0.76140 0.58930 -0.25900
O 	O 	0.48611 0.10371 0.46623 -0.42300
O 	O 	0.34560 0.20120 0.10290 -0.51000
O 	O 	0.31140 0.93600 0.44400 -0.39200
