data_crystal

_cell_length_a 11.41800
_cell_length_b 10.03700
_cell_length_c 18.54600
_cell_angle_alpha 90.00000
_cell_angle_beta  126.68000
_cell_angle_gamma 90.00000

_symmetry_space_group_name_	'P 1'
_symmetry_space_group_name_H-M	'P 1'

loop_
_symmetry_equiv_pos_as_xyz
  x,y,z

loop_
_atom_site_label
_atom_site_type_symbol
_atom_site_fract_x
_atom_site_fract_y
_atom_site_fract_z
_atom_site_charge
Zn	Zn	0.93538 0.87823 0.69467 1.27100
Zn	Zn	0.87689 0.57108 0.63188 1.25200
O 	O 	0.71230 0.86320 0.60792 -0.41700
O 	O 	0.66790 0.64702 0.56966 -0.57300
O 	O 	0.94690 0.68691 0.74942 -0.48700
O 	O 	0.05940 0.54540 0.86547 -0.42100
O 	O 	0.95830 0.74787 0.61432 -0.54200
O 	O 	0.98830 0.70500 0.50759 -0.39400
O 	O 	0.83600 0.47390 0.52201 -0.55900
O 	O 	0.60710 0.40490 0.45542 -0.46600
O 	O 	0.84300 0.41099 0.69197 -0.55700
O 	O 	0.60360 0.37320 0.61061 -0.46300
O 	O 	0.08400 0.47980 0.71334 -0.62500
O 	O 	0.17510 0.48750 0.63607 -0.48300
C 	C 	0.63050 0.76610 0.56920 0.50700
H 	H 	0.53080 0.78230 0.53610 -0.08900
C 	C 	0.01210 0.65660 0.83140 0.40000
H 	H 	0.02570 0.72470 0.86970 -0.08100
C 	C 	0.98300 0.78080 0.55810 0.50200
H 	H 	0.99870 0.87080 0.55490 -0.05400
C 	C 	0.72260 0.40630 0.46460 0.52800
H 	H 	0.72810 0.35260 0.42580 -0.11000
C 	C 	0.73090 0.35060 0.67380 0.54400
H 	H 	0.74680 0.28200 0.71240 -0.13700
C 	C 	0.18480 0.47000 0.70440 0.56100
H 	H 	0.27660 0.44680 0.75560 -0.12100
Zn	Zn	0.06462 0.37823 0.80533 1.24200
Zn	Zn	0.12311 0.07108 0.86812 1.20300
O 	O 	0.28770 0.36320 0.89208 -0.43400
O 	O 	0.33210 0.14702 0.93034 -0.57900
O 	O 	0.05310 0.18691 0.75058 -0.68700
O 	O 	0.94060 0.04540 0.63453 -0.53700
O 	O 	0.04170 0.24787 0.88568 -0.60700
O 	O 	0.01170 0.20500 0.99241 -0.43400
O 	O 	0.16400 0.97390 0.97799 -0.39900
O 	O 	0.39290 0.90490 0.04458 -0.40100
O 	O 	0.15700 0.91099 0.80803 -0.56100
O 	O 	0.39640 0.87320 0.88939 -0.37300
O 	O 	0.91600 0.97980 0.78666 -0.49800
O 	O 	0.82490 0.98750 0.86393 -0.34100
C 	C 	0.36950 0.26610 0.93080 0.51200
H 	H 	0.46920 0.28230 0.96390 -0.07600
C 	C 	0.98790 0.15660 0.66860 0.66400
H 	H 	0.97430 0.22470 0.63030 -0.15000
C 	C 	0.01700 0.28080 0.94190 0.50100
H 	H 	0.00130 0.37080 0.94510 -0.10300
C 	C 	0.27740 0.90630 0.03540 0.32900
H 	H 	0.27190 0.85260 0.07420 -0.05200
C 	C 	0.26910 0.85060 0.82620 0.53600
H 	H 	0.25320 0.78200 0.78760 -0.13000
C 	C 	0.81520 0.97000 0.79560 0.51500
H 	H 	0.72340 0.94680 0.74440 -0.08200
Zn	Zn	0.06462 0.12177 0.30533 1.22800
Zn	Zn	0.12311 0.42892 0.36812 1.23700
O 	O 	0.28770 0.13680 0.39208 -0.48500
O 	O 	0.33210 0.35298 0.43034 -0.58800
O 	O 	0.05310 0.31309 0.25058 -0.66500
O 	O 	0.94060 0.45460 0.13453 -0.49400
O 	O 	0.04170 0.25213 0.38568 -0.61900
O 	O 	0.01170 0.29500 0.49241 -0.49600
O 	O 	0.16400 0.52610 0.47799 -0.60200
O 	O 	0.39290 0.59510 0.54458 -0.45900
O 	O 	0.15700 0.58901 0.30803 -0.61700
O 	O 	0.39640 0.62680 0.38939 -0.45700
O 	O 	0.91600 0.52020 0.28666 -0.55100
O 	O 	0.82490 0.51250 0.36393 -0.43900
C 	C 	0.36950 0.23390 0.43080 0.52500
H 	H 	0.46920 0.21770 0.46390 -0.12500
C 	C 	0.98790 0.34340 0.16860 0.66200
H 	H 	0.97430 0.27530 0.13030 -0.16300
C 	C 	0.01700 0.21920 0.44190 0.53400
H 	H 	0.00130 0.12920 0.44510 -0.17100
C 	C 	0.27740 0.59370 0.53540 0.54100
H 	H 	0.27190 0.64740 0.57420 -0.11800
C 	C 	0.26910 0.64940 0.32620 0.55300
H 	H 	0.25320 0.71800 0.28760 -0.13500
C 	C 	0.81520 0.53000 0.29560 0.55100
H 	H 	0.72340 0.55320 0.24440 -0.12200
Zn	Zn	0.93538 0.62177 0.19467 1.26000
Zn	Zn	0.87689 0.92892 0.13188 1.28400
O 	O 	0.71230 0.63680 0.10792 -0.46500
O 	O 	0.66790 0.85298 0.06966 -0.56500
O 	O 	0.94690 0.81309 0.24942 -0.46500
O 	O 	0.05940 0.95460 0.36547 -0.37100
O 	O 	0.95830 0.75213 0.11432 -0.54700
O 	O 	0.98830 0.79500 0.00759 -0.43300
O 	O 	0.83600 0.02610 0.02201 -0.71900
O 	O 	0.60710 0.09510 0.95542 -0.49600
O 	O 	0.84300 0.08901 0.19197 -0.59900
O 	O 	0.60360 0.12680 0.11061 -0.52200
O 	O 	0.08400 0.02020 0.21334 -0.68300
O 	O 	0.17510 0.01250 0.13607 -0.56500
C 	C 	0.63050 0.73390 0.06920 0.51300
H 	H 	0.53080 0.71770 0.03610 -0.13400
C 	C 	0.01210 0.84340 0.33140 0.39600
H 	H 	0.02570 0.77530 0.36970 -0.09700
C 	C 	0.98300 0.71920 0.05810 0.52500
H 	H 	0.99870 0.62920 0.05490 -0.11400
C 	C 	0.72260 0.09370 0.96460 0.70600
H 	H 	0.72810 0.14740 0.92580 -0.16200
C 	C 	0.73090 0.14940 0.17380 0.55000
H 	H 	0.74680 0.21800 0.21240 -0.13800
C 	C 	0.18480 0.03000 0.20440 0.59000
H 	H 	0.27660 0.05320 0.25560 -0.16000
Zn	Zn	0.00000 0.50000 0.50000 1.23300
Zn	Zn	-0.00000 0.00000 -0.00000 1.16300
Zn	Zn	0.50000 0.50000 0.50000 1.25700
Zn	Zn	0.50000 0.00000 -0.00000 1.18900
