data_crystal

_cell_length_a 17.69430
_cell_length_b 17.69430
_cell_length_c 13.29210
_cell_angle_alpha 90.00000
_cell_angle_beta  90.00000
_cell_angle_gamma 120.00000

_symmetry_space_group_name_	'P 1'
_symmetry_space_group_name_H-M	'P 1'

loop_
_symmetry_equiv_pos_as_xyz
  x,y,z

loop_
_atom_site_label
_atom_site_type_symbol
_atom_site_fract_x
_atom_site_fract_y
_atom_site_fract_z
_atom_site_charge
Cu	Cu	0.13309 0.57526 0.68047 0.91100
Cu	Cu	0.13363 0.58025 0.43051 0.91100
N 	N 	0.90290 0.50370 0.29320 -0.22800
N 	N 	0.09930 0.50590 0.31500 -0.22800
O 	O 	0.17244 0.63846 0.55750 -0.84500
H 	H 	0.17800 0.68500 0.55900 0.36700
O 	O 	0.98490 0.43360 0.20050 -0.32700
O 	O 	0.69950 0.50100 0.27740 -0.34600
O 	O 	0.01460 0.57060 0.41170 -0.33100
O 	O 	0.29620 0.49880 0.33360 -0.35900
O 	O 	0.23670 0.56110 0.42550 -0.51500
O 	O 	0.76250 0.44100 0.18550 -0.51200
C 	C 	0.02260 0.48240 0.27820 0.11400
C 	C 	0.97620 0.52250 0.33520 0.12700
C 	C 	0.16240 0.48480 0.27290 -0.00100
H 	H 	0.13440 0.42030 0.26360 0.03800
C 	C 	0.23770 0.51590 0.35060 0.31400
C 	C 	0.19900 0.53130 0.17110 -0.37100
H 	H 	0.15070 0.51590 0.12420 0.14400
H 	H 	0.23850 0.51290 0.14310 0.13100
H 	H 	0.23100 0.59460 0.18160 0.13100
C 	C 	0.76240 0.48840 0.25910 0.30100
C 	C 	0.88700 0.63590 0.30880 -0.36000
H 	H 	0.93870 0.66640 0.35180 0.13800
H 	H 	0.84470 0.65400 0.32670 0.13000
H 	H 	0.90420 0.65040 0.23820 0.11800
C 	C 	0.84470 0.53500 0.32430 -0.01100
H 	H 	0.82880 0.52020 0.39670 0.04200
Cu	Cu	0.42474 0.55783 0.68047 0.91200
Cu	Cu	0.41975 0.55338 0.43051 0.91200
N 	N 	0.49630 0.39920 0.29320 -0.22800
N 	N 	0.49410 0.59340 0.31500 -0.22800
O 	O 	0.36154 0.53398 0.55750 -0.84500
H 	H 	0.31500 0.49300 0.55900 0.36700
O 	O 	0.56640 0.55130 0.20050 -0.32700
O 	O 	0.49900 0.19850 0.27740 -0.34600
O 	O 	0.42940 0.44400 0.41170 -0.33100
O 	O 	0.50120 0.79740 0.33360 -0.35900
O 	O 	0.43890 0.67560 0.42550 -0.51500
O 	O 	0.55900 0.32150 0.18550 -0.51200
C 	C 	0.51760 0.54020 0.27820 0.11400
C 	C 	0.47750 0.45370 0.33520 0.12700
C 	C 	0.51520 0.67760 0.27290 -0.00100
H 	H 	0.57970 0.71410 0.26360 0.03800
C 	C 	0.48410 0.72180 0.35060 0.31400
C 	C 	0.46870 0.66770 0.17110 -0.37100
H 	H 	0.48410 0.63480 0.12420 0.14400
H 	H 	0.48710 0.72560 0.14310 0.13100
H 	H 	0.40540 0.63640 0.18160 0.13100
C 	C 	0.51160 0.27400 0.25910 0.30100
C 	C 	0.36410 0.25110 0.30880 -0.36000
H 	H 	0.33360 0.27230 0.35180 0.13800
H 	H 	0.34600 0.19070 0.32670 0.13000
H 	H 	0.34960 0.25380 0.23820 0.11800
C 	C 	0.46500 0.30970 0.32430 -0.01100
H 	H 	0.47980 0.30860 0.39670 0.04200
Cu	Cu	0.44217 0.86691 0.68047 0.91200
Cu	Cu	0.44662 0.86637 0.43051 0.91200
N 	N 	0.60080 0.09710 0.29320 -0.22800
N 	N 	0.40660 0.90070 0.31500 -0.22800
O 	O 	0.46602 0.82756 0.55750 -0.84500
H 	H 	0.50700 0.82200 0.55900 0.36700
O 	O 	0.44870 0.01510 0.20050 -0.32700
O 	O 	0.80150 0.30050 0.27740 -0.34600
O 	O 	0.55600 0.98540 0.41170 -0.33100
O 	O 	0.20260 0.70380 0.33360 -0.35900
O 	O 	0.32440 0.76330 0.42550 -0.51500
O 	O 	0.67850 0.23750 0.18550 -0.51200
C 	C 	0.45980 0.97740 0.27820 0.11400
C 	C 	0.54630 0.02380 0.33520 0.12700
C 	C 	0.32240 0.83760 0.27290 -0.00100
H 	H 	0.28590 0.86560 0.26360 0.03800
C 	C 	0.27820 0.76230 0.35060 0.31400
C 	C 	0.33230 0.80100 0.17110 -0.37100
H 	H 	0.36520 0.84930 0.12420 0.14400
H 	H 	0.27440 0.76150 0.14310 0.13100
H 	H 	0.36360 0.76900 0.18160 0.13100
C 	C 	0.72600 0.23760 0.25910 0.30100
C 	C 	0.74890 0.11300 0.30880 -0.36000
H 	H 	0.72770 0.06130 0.35180 0.13800
H 	H 	0.80930 0.15530 0.32670 0.13000
H 	H 	0.74620 0.09580 0.23820 0.11800
C 	C 	0.69030 0.15530 0.32430 -0.01100
H 	H 	0.69140 0.17120 0.39670 0.04200
Cu	Cu	0.86691 0.42474 0.18047 0.91200
Cu	Cu	0.86637 0.41975 0.93051 0.91400
N 	N 	0.09710 0.49630 0.79320 -0.22800
N 	N 	0.90070 0.49410 0.81500 -0.22700
O 	O 	0.82756 0.36154 0.05750 -0.85000
H 	H 	0.82200 0.31500 0.05900 0.36600
O 	O 	0.01510 0.56640 0.70050 -0.32600
O 	O 	0.30050 0.49900 0.77740 -0.34500
O 	O 	0.98540 0.42940 0.91170 -0.32800
O 	O 	0.70380 0.50120 0.83360 -0.35700
O 	O 	0.76330 0.43890 0.92550 -0.51100
O 	O 	0.23750 0.55900 0.68550 -0.51000
C 	C 	0.97740 0.51760 0.77820 0.11500
C 	C 	0.02380 0.47750 0.83520 0.12700
C 	C 	0.83760 0.51520 0.77290 0.00000
H 	H 	0.86560 0.57970 0.76360 0.03900
C 	C 	0.76230 0.48410 0.85060 0.31300
C 	C 	0.80100 0.46870 0.67110 -0.37500
H 	H 	0.84930 0.48410 0.62420 0.14700
H 	H 	0.76150 0.48710 0.64310 0.13400
H 	H 	0.76900 0.40540 0.68160 0.13300
C 	C 	0.23760 0.51160 0.75910 0.30100
C 	C 	0.11300 0.36410 0.80880 -0.36400
H 	H 	0.06130 0.33360 0.85180 0.14100
H 	H 	0.15530 0.34600 0.82670 0.13300
H 	H 	0.09580 0.34960 0.73820 0.12000
C 	C 	0.15530 0.46500 0.82430 -0.00900
H 	H 	0.17120 0.47980 0.89670 0.04400
Cu	Cu	0.57526 0.44217 0.18047 0.91200
Cu	Cu	0.58025 0.44662 0.93051 0.91400
N 	N 	0.50370 0.60080 0.79320 -0.22800
N 	N 	0.50590 0.40660 0.81500 -0.22700
O 	O 	0.63846 0.46602 0.05750 -0.85000
H 	H 	0.68500 0.50700 0.05900 0.36600
O 	O 	0.43360 0.44870 0.70050 -0.32600
O 	O 	0.50100 0.80150 0.77740 -0.34500
O 	O 	0.57060 0.55600 0.91170 -0.32800
O 	O 	0.49880 0.20260 0.83360 -0.35700
O 	O 	0.56110 0.32440 0.92550 -0.51100
O 	O 	0.44100 0.67850 0.68550 -0.51000
C 	C 	0.48240 0.45980 0.77820 0.11500
C 	C 	0.52250 0.54630 0.83520 0.12700
C 	C 	0.48480 0.32240 0.77290 0.00000
H 	H 	0.42030 0.28590 0.76360 0.03900
C 	C 	0.51590 0.27820 0.85060 0.31300
C 	C 	0.53130 0.33230 0.67110 -0.37500
H 	H 	0.51590 0.36520 0.62420 0.14700
H 	H 	0.51290 0.27440 0.64310 0.13400
H 	H 	0.59460 0.36360 0.68160 0.13300
C 	C 	0.48840 0.72600 0.75910 0.30100
C 	C 	0.63590 0.74890 0.80880 -0.36400
H 	H 	0.66640 0.72770 0.85180 0.14100
H 	H 	0.65400 0.80930 0.82670 0.13300
H 	H 	0.65040 0.74620 0.73820 0.12000
C 	C 	0.53500 0.69030 0.82430 -0.00900
H 	H 	0.52020 0.69140 0.89670 0.04400
Cu	Cu	0.55783 0.13309 0.18047 0.91200
Cu	Cu	0.55338 0.13363 0.93051 0.91400
N 	N 	0.39920 0.90290 0.79320 -0.22800
N 	N 	0.59340 0.09930 0.81500 -0.22700
O 	O 	0.53398 0.17244 0.05750 -0.85000
H 	H 	0.49300 0.17800 0.05900 0.36600
O 	O 	0.55130 0.98490 0.70050 -0.32600
O 	O 	0.19850 0.69950 0.77740 -0.34500
O 	O 	0.44400 0.01460 0.91170 -0.32800
O 	O 	0.79740 0.29620 0.83360 -0.35700
O 	O 	0.67560 0.23670 0.92550 -0.51100
O 	O 	0.32150 0.76250 0.68550 -0.51000
C 	C 	0.54020 0.02260 0.77820 0.11500
C 	C 	0.45370 0.97620 0.83520 0.12700
C 	C 	0.67760 0.16240 0.77290 0.00000
H 	H 	0.71410 0.13440 0.76360 0.03900
C 	C 	0.72180 0.23770 0.85060 0.31300
C 	C 	0.66770 0.19900 0.67110 -0.37500
H 	H 	0.63480 0.15070 0.62420 0.14700
H 	H 	0.72560 0.23850 0.64310 0.13400
H 	H 	0.63640 0.23100 0.68160 0.13300
C 	C 	0.27400 0.76240 0.75910 0.30100
C 	C 	0.25110 0.88700 0.80880 -0.36400
H 	H 	0.27230 0.93870 0.85180 0.14100
H 	H 	0.19070 0.84470 0.82670 0.13300
H 	H 	0.25380 0.90420 0.73820 0.12000
C 	C 	0.30970 0.84470 0.82430 -0.00900
H 	H 	0.30860 0.82880 0.89670 0.04400
Ca	Ca	0.33333 0.66667 0.55630 1.51100
Ca	Ca	0.66667 0.33333 0.05630 1.50900
