data_crystal

_cell_length_a 15.95060
_cell_length_b 15.95060
_cell_length_c 21.12500
_cell_angle_alpha 90.00000
_cell_angle_beta  90.00000
_cell_angle_gamma 90.00000

_symmetry_space_group_name_	'P 1'
_symmetry_space_group_name_H-M	'P 1'

loop_
_symmetry_equiv_pos_as_xyz
  x,y,z

loop_
_atom_site_label
_atom_site_type_symbol
_atom_site_fract_x
_atom_site_fract_y
_atom_site_fract_z
_atom_site_charge
C 	C 	0.03750 0.24290 0.78570 0.10400
H 	H 	0.00530 0.23760 0.82330 -0.02000
C 	C 	0.09130 0.30980 0.78140 -0.16000
H 	H 	0.09510 0.34950 0.81480 0.08200
C 	C 	0.14010 0.31820 0.72750 0.08600
C 	C 	0.12760 0.25990 0.68080 -0.14900
H 	H 	0.15760 0.26320 0.64200 0.07800
C 	C 	0.06910 0.19470 0.69140 0.09400
H 	H 	0.06040 0.15470 0.65880 -0.02100
C 	C 	0.20740 0.38270 0.72220 0.00200
C 	C 	0.20810 0.45460 0.76110 -0.06200
H 	H 	0.16610 0.46040 0.79270 0.04900
C 	C 	0.26770 0.51650 0.75470 -0.01300
H 	H 	0.26330 0.56700 0.77820 0.03000
C 	C 	0.33450 0.50410 0.71330 -0.06700
H 	H 	0.37760 0.54510 0.71010 0.05400
C 	C 	0.33830 0.43230 0.67680 0.00800
C 	C 	0.27500 0.37230 0.68160 -0.07100
H 	H 	0.27830 0.32310 0.65640 0.06100
C 	C 	0.40680 0.42350 0.63390 0.09500
C 	C 	0.50440 0.37530 0.57030 0.10200
C 	C 	0.56030 0.31060 0.53950 -0.00900
C 	C 	0.54200 0.27970 0.48040 -0.06700
H 	H 	0.49440 0.29980 0.45810 0.05500
C 	C 	0.59370 0.21850 0.45300 -0.01500
H 	H 	0.58120 0.19670 0.41230 0.03400
C 	C 	0.66230 0.19070 0.48570 -0.06400
H 	H 	0.69850 0.15030 0.46710 0.04800
C 	C 	0.67960 0.22190 0.54750 0.00200
C 	C 	0.63010 0.28610 0.57140 -0.06600
H 	H 	0.64510 0.31290 0.60990 0.04800
C 	C 	0.75180 0.19040 0.58330 0.07500
C 	C 	0.79470 0.11780 0.56930 -0.14800
H 	H 	0.78120 0.08710 0.53210 0.07500
C 	C 	0.85670 0.08970 0.60870 0.09300
H 	H 	0.88520 0.03970 0.59710 -0.01300
C 	C 	0.84690 0.19940 0.67200 0.07200
H 	H 	0.86760 0.23000 0.70730 -0.02100
C 	C 	0.78250 0.23660 0.63500 -0.13700
H 	H 	0.76100 0.29060 0.64480 0.07100
N 	N 	0.02750 0.18700 0.74260 -0.24000
N 	N 	0.44630 0.48740 0.60710 -0.11900
N 	N 	0.50730 0.45650 0.56710 -0.20800
N 	N 	0.44600 0.35290 0.61150 -0.11000
N 	N 	0.42400 0.27170 0.63100 -0.20800
H 	H 	0.44610 0.23420 0.60320 0.11300
H 	H 	0.44510 0.26180 0.67030 0.10600
N 	N 	0.87940 0.12630 0.66080 -0.24500
C 	C 	0.96250 0.75710 0.28570 0.10400
H 	H 	0.99470 0.76240 0.32330 -0.02000
C 	C 	0.90870 0.69020 0.28140 -0.15900
H 	H 	0.90490 0.65050 0.31480 0.08000
C 	C 	0.85990 0.68180 0.22750 0.08600
C 	C 	0.87240 0.74010 0.18080 -0.14800
H 	H 	0.84240 0.73680 0.14200 0.07600
C 	C 	0.93090 0.80530 0.19140 0.09400
H 	H 	0.93960 0.84530 0.15880 -0.02100
C 	C 	0.79260 0.61730 0.22220 0.00100
C 	C 	0.79190 0.54540 0.26110 -0.06200
H 	H 	0.83390 0.53960 0.29270 0.04800
C 	C 	0.73230 0.48350 0.25470 -0.01400
H 	H 	0.73670 0.43300 0.27820 0.03000
C 	C 	0.66550 0.49590 0.21330 -0.06600
H 	H 	0.62240 0.45490 0.21010 0.05300
C 	C 	0.66170 0.56770 0.17680 0.00800
C 	C 	0.72500 0.62770 0.18160 -0.07000
H 	H 	0.72170 0.67690 0.15640 0.05900
C 	C 	0.59320 0.57650 0.13390 0.09300
C 	C 	0.49560 0.62470 0.07030 0.11600
C 	C 	0.43970 0.68940 0.03950 -0.07400
C 	C 	0.45800 0.72030 0.98040 0.01100
H 	H 	0.50560 0.70020 0.95810 0.03400
C 	C 	0.40630 0.78150 0.95300 -0.07700
H 	H 	0.41880 0.80330 0.91230 0.05600
C 	C 	0.33770 0.80930 0.98570 0.01300
H 	H 	0.30150 0.84970 0.96710 0.02800
C 	C 	0.32040 0.77810 0.04750 -0.06200
C 	C 	0.36990 0.71390 0.07140 -0.01400
H 	H 	0.35490 0.68710 0.10990 0.03000
C 	C 	0.24820 0.80960 0.08330 0.09900
C 	C 	0.20530 0.88220 0.06930 -0.16600
H 	H 	0.21880 0.91290 0.03210 0.07400
C 	C 	0.14330 0.91030 0.10870 0.10000
H 	H 	0.11480 0.96030 0.09710 -0.01800
C 	C 	0.15310 0.80060 0.17200 0.07800
H 	H 	0.13240 0.77000 0.20730 -0.02300
C 	C 	0.21750 0.76340 0.13500 -0.15200
H 	H 	0.23900 0.70940 0.14480 0.07700
N 	N 	0.97250 0.81300 0.24260 -0.24000
N 	N 	0.55370 0.51260 0.10710 -0.12000
N 	N 	0.49270 0.54350 0.06710 -0.21500
N 	N 	0.55400 0.64710 0.11150 -0.11300
N 	N 	0.57600 0.72830 0.13100 -0.20800
H 	H 	0.55390 0.76580 0.10320 0.11000
H 	H 	0.55490 0.73820 0.17030 0.10600
N 	N 	0.12060 0.87370 0.16080 -0.24800
C 	C 	0.25710 0.53750 0.03570 0.08800
H 	H 	0.26240 0.50530 0.07330 -0.01900
C 	C 	0.19020 0.59130 0.03140 -0.18500
H 	H 	0.15050 0.59510 0.06480 0.08500
C 	C 	0.18180 0.64010 0.97750 0.11100
C 	C 	0.24010 0.62760 0.93080 -0.15500
H 	H 	0.23680 0.65760 0.89200 0.08000
C 	C 	0.30530 0.56910 0.94140 0.10100
H 	H 	0.34530 0.56040 0.90880 -0.02200
C 	C 	0.11730 0.70740 0.97220 0.01900
C 	C 	0.04540 0.70810 0.01110 -0.08500
H 	H 	0.03960 0.66610 0.04270 0.05100
C 	C 	0.98350 0.76770 0.00470 -0.03400
H 	H 	0.93300 0.76330 0.02820 0.03300
C 	C 	0.99590 0.83450 0.96330 -0.03500
H 	H 	0.95490 0.87760 0.96010 0.05000
C 	C 	0.06770 0.83830 0.92680 0.00200
C 	C 	0.12770 0.77500 0.93160 -0.06700
H 	H 	0.17690 0.77830 0.90640 0.06000
C 	C 	0.07650 0.90680 0.88390 0.09900
C 	C 	0.12470 0.00440 0.82030 0.10500
C 	C 	0.18940 0.06030 0.78950 -0.01000
C 	C 	0.22030 0.04200 0.73040 -0.06300
H 	H 	0.20020 0.99440 0.70810 0.05200
C 	C 	0.28150 0.09370 0.70300 -0.01700
H 	H 	0.30330 0.08120 0.66230 0.03500
C 	C 	0.30930 0.16230 0.73570 -0.06200
H 	H 	0.34970 0.19850 0.71710 0.04700
C 	C 	0.27810 0.17960 0.79750 0.00200
C 	C 	0.21390 0.13010 0.82140 -0.06400
H 	H 	0.18710 0.14510 0.85990 0.05000
C 	C 	0.30960 0.25180 0.83330 0.07600
C 	C 	0.38220 0.29470 0.81930 -0.14700
H 	H 	0.41290 0.28120 0.78210 0.07500
C 	C 	0.41030 0.35670 0.85870 0.09400
H 	H 	0.46030 0.38520 0.84710 -0.01100
C 	C 	0.30060 0.34690 0.92200 0.07400
H 	H 	0.27000 0.36760 0.95730 -0.01400
C 	C 	0.26340 0.28250 0.88500 -0.13500
H 	H 	0.20940 0.26100 0.89480 0.07400
N 	N 	0.31300 0.52750 0.99260 -0.22700
N 	N 	0.01260 0.94630 0.85710 -0.12000
N 	N 	0.04350 0.00730 0.81710 -0.20700
N 	N 	0.14710 0.94600 0.86150 -0.11100
N 	N 	0.22830 0.92400 0.88100 -0.20900
H 	H 	0.26580 0.94610 0.85320 0.11400
H 	H 	0.23820 0.94510 0.92030 0.11200
N 	N 	0.37370 0.37940 0.91080 -0.24100
C 	C 	0.74290 0.46250 0.53570 0.10400
H 	H 	0.73760 0.49470 0.57330 -0.02100
C 	C 	0.80980 0.40870 0.53140 -0.16000
H 	H 	0.84950 0.40490 0.56480 0.08000
C 	C 	0.81820 0.35990 0.47750 0.08600
C 	C 	0.75990 0.37240 0.43080 -0.14900
H 	H 	0.76320 0.34240 0.39200 0.07800
C 	C 	0.69470 0.43090 0.44140 0.09400
H 	H 	0.65470 0.43960 0.40880 -0.02100
C 	C 	0.88270 0.29260 0.47220 0.00200
C 	C 	0.95460 0.29190 0.51110 -0.06400
H 	H 	0.96040 0.33390 0.54270 0.04800
C 	C 	0.01650 0.23230 0.50470 -0.01200
H 	H 	0.06700 0.23670 0.52820 0.03000
C 	C 	0.00410 0.16550 0.46330 -0.06300
H 	H 	0.04510 0.12240 0.46010 0.05300
C 	C 	0.93230 0.16170 0.42680 0.00500
C 	C 	0.87230 0.22500 0.43160 -0.07000
H 	H 	0.82310 0.22170 0.40640 0.06000
C 	C 	0.92350 0.09320 0.38390 0.09500
C 	C 	0.87530 0.99560 0.32030 0.10500
C 	C 	0.81060 0.93970 0.28950 -0.01100
C 	C 	0.77970 0.95800 0.23040 -0.06300
H 	H 	0.79980 0.00560 0.20810 0.05200
C 	C 	0.71850 0.90630 0.20300 -0.01700
H 	H 	0.69670 0.91880 0.16230 0.03300
C 	C 	0.69070 0.83770 0.23570 -0.06300
H 	H 	0.65030 0.80150 0.21710 0.04700
C 	C 	0.72190 0.82040 0.29750 0.00100
C 	C 	0.78610 0.86990 0.32140 -0.06400
H 	H 	0.81290 0.85490 0.35990 0.04800
C 	C 	0.69040 0.74820 0.33330 0.07600
C 	C 	0.61780 0.70530 0.31930 -0.14800
H 	H 	0.58710 0.71880 0.28210 0.07600
C 	C 	0.58970 0.64330 0.35870 0.09300
H 	H 	0.53970 0.61480 0.34710 -0.01200
C 	C 	0.69940 0.65310 0.42200 0.07200
H 	H 	0.73000 0.63240 0.45730 -0.02000
C 	C 	0.73660 0.71750 0.38500 -0.13700
H 	H 	0.79060 0.73900 0.39480 0.07100
N 	N 	0.68700 0.47250 0.49260 -0.24100
N 	N 	0.98740 0.05370 0.35710 -0.12100
N 	N 	0.95650 0.99270 0.31710 -0.20700
N 	N 	0.85290 0.05400 0.36150 -0.11100
N 	N 	0.77170 0.07600 0.38100 -0.20800
H 	H 	0.73420 0.05390 0.35320 0.11300
H 	H 	0.76180 0.05490 0.42030 0.10600
N 	N 	0.62630 0.62060 0.41080 -0.24400
C 	C 	0.46250 0.74290 0.46430 0.10400
H 	H 	0.49470 0.73760 0.42670 -0.02100
C 	C 	0.40870 0.80980 0.46860 -0.16000
H 	H 	0.40490 0.84950 0.43520 0.08000
C 	C 	0.35990 0.81820 0.52250 0.08600
C 	C 	0.37240 0.75990 0.56920 -0.14900
H 	H 	0.34240 0.76320 0.60800 0.07800
C 	C 	0.43090 0.69470 0.55860 0.09400
H 	H 	0.43960 0.65470 0.59120 -0.02100
C 	C 	0.29260 0.88270 0.52780 0.00200
C 	C 	0.29190 0.95460 0.48890 -0.06400
H 	H 	0.33390 0.96040 0.45730 0.04800
C 	C 	0.23230 0.01650 0.49530 -0.01200
H 	H 	0.23670 0.06700 0.47180 0.03000
C 	C 	0.16550 0.00410 0.53670 -0.06300
H 	H 	0.12240 0.04510 0.53990 0.05300
C 	C 	0.16170 0.93230 0.57320 0.00500
C 	C 	0.22500 0.87230 0.56840 -0.06900
H 	H 	0.22170 0.82310 0.59360 0.06000
C 	C 	0.09320 0.92350 0.61610 0.09500
C 	C 	0.99560 0.87530 0.67970 0.10500
C 	C 	0.93970 0.81060 0.71050 -0.01100
C 	C 	0.95800 0.77970 0.76960 -0.06300
H 	H 	0.00560 0.79980 0.79190 0.05300
C 	C 	0.90630 0.71850 0.79700 -0.01800
H 	H 	0.91880 0.69670 0.83770 0.03700
C 	C 	0.83770 0.69070 0.76430 -0.06100
H 	H 	0.80150 0.65030 0.78290 0.04700
C 	C 	0.82040 0.72190 0.70250 0.00000
C 	C 	0.86990 0.78610 0.67860 -0.06400
H 	H 	0.85490 0.81290 0.64010 0.04800
C 	C 	0.74820 0.69040 0.66670 0.07600
C 	C 	0.70530 0.61780 0.68070 -0.14800
H 	H 	0.71880 0.58710 0.71790 0.07600
C 	C 	0.64330 0.58970 0.64130 0.09300
H 	H 	0.61480 0.53970 0.65290 -0.01200
C 	C 	0.65310 0.69940 0.57800 0.07300
H 	H 	0.63240 0.73000 0.54270 -0.02000
C 	C 	0.71750 0.73660 0.61500 -0.13700
H 	H 	0.73900 0.79060 0.60520 0.07200
N 	N 	0.47250 0.68700 0.50740 -0.24100
N 	N 	0.05370 0.98740 0.64290 -0.12100
N 	N 	0.99270 0.95650 0.68290 -0.20700
N 	N 	0.05400 0.85290 0.63850 -0.11100
N 	N 	0.07600 0.77170 0.61900 -0.20800
H 	H 	0.05390 0.73420 0.64680 0.11300
H 	H 	0.05490 0.76180 0.57970 0.10600
N 	N 	0.62060 0.62630 0.58920 -0.24400
C 	C 	0.53750 0.25710 0.96430 0.11900
H 	H 	0.50530 0.26240 0.92670 -0.02300
C 	C 	0.59130 0.19020 0.96860 -0.13500
H 	H 	0.59510 0.15050 0.93520 0.07500
C 	C 	0.64010 0.18180 0.02250 0.06000
C 	C 	0.62760 0.24010 0.06920 -0.14000
H 	H 	0.65760 0.23680 0.10800 0.07500
C 	C 	0.56910 0.30530 0.05860 0.08600
H 	H 	0.56040 0.34530 0.09120 -0.02000
C 	C 	0.70740 0.11730 0.02780 -0.00500
C 	C 	0.70810 0.04540 0.98890 -0.06000
H 	H 	0.66610 0.03960 0.95730 0.05100
C 	C 	0.76770 0.98350 0.99530 0.02700
H 	H 	0.76330 0.93300 0.97180 0.02200
C 	C 	0.83450 0.99590 0.03670 -0.10500
H 	H 	0.87760 0.95490 0.03990 0.06100
C 	C 	0.83830 0.06770 0.07320 0.01900
C 	C 	0.77500 0.12770 0.06840 -0.08000
H 	H 	0.77830 0.17690 0.09360 0.06300
C 	C 	0.90680 0.07650 0.11610 0.08800
C 	C 	0.00440 0.12470 0.17970 0.10400
C 	C 	0.06030 0.18940 0.21050 -0.01200
C 	C 	0.04200 0.22030 0.26960 -0.06100
H 	H 	0.99440 0.20020 0.29190 0.05200
C 	C 	0.09370 0.28150 0.29700 -0.01900
H 	H 	0.08120 0.30330 0.33770 0.03600
C 	C 	0.16230 0.30930 0.26430 -0.06100
H 	H 	0.19850 0.34970 0.28290 0.04700
C 	C 	0.17960 0.27810 0.20250 -0.00100
C 	C 	0.13010 0.21390 0.17860 -0.06300
H 	H 	0.14510 0.18710 0.14010 0.04600
C 	C 	0.25180 0.30960 0.16670 0.07600
C 	C 	0.29470 0.38220 0.18070 -0.14800
H 	H 	0.28120 0.41290 0.21790 0.07600
C 	C 	0.35670 0.41030 0.14130 0.09300
H 	H 	0.38520 0.46030 0.15290 -0.01200
C 	C 	0.34690 0.30060 0.07800 0.07100
H 	H 	0.36760 0.27000 0.04270 -0.02600
C 	C 	0.28250 0.26340 0.11500 -0.13900
H 	H 	0.26100 0.20940 0.10520 0.07000
N 	N 	0.52750 0.31300 0.00740 -0.25300
N 	N 	0.94630 0.01260 0.14290 -0.12000
N 	N 	0.00730 0.04350 0.18290 -0.20700
N 	N 	0.94600 0.14710 0.13850 -0.11100
N 	N 	0.92400 0.22830 0.11900 -0.20800
H 	H 	0.94610 0.26580 0.14680 0.11200
H 	H 	0.94510 0.23820 0.07970 0.10200
N 	N 	0.37940 0.37370 0.08920 -0.24600
C 	C 	0.24290 0.03750 0.21430 0.10400
H 	H 	0.23760 0.00530 0.17670 -0.02100
C 	C 	0.30980 0.09130 0.21860 -0.15900
H 	H 	0.34950 0.09510 0.18520 0.07900
C 	C 	0.31820 0.14010 0.27250 0.08600
C 	C 	0.25990 0.12760 0.31920 -0.14800
H 	H 	0.26320 0.15760 0.35800 0.07800
C 	C 	0.19470 0.06910 0.30860 0.09400
H 	H 	0.15470 0.06040 0.34120 -0.02100
C 	C 	0.38270 0.20740 0.27780 0.00200
C 	C 	0.45460 0.20810 0.23890 -0.06100
H 	H 	0.46040 0.16610 0.20730 0.04700
C 	C 	0.51650 0.26770 0.24530 -0.01400
H 	H 	0.56700 0.26330 0.22180 0.03000
C 	C 	0.50410 0.33450 0.28670 -0.06600
H 	H 	0.54510 0.37760 0.28990 0.05300
C 	C 	0.43230 0.33830 0.32320 0.00800
C 	C 	0.37230 0.27500 0.31840 -0.07000
H 	H 	0.32310 0.27830 0.34360 0.06100
C 	C 	0.42350 0.40680 0.36610 0.09500
C 	C 	0.37530 0.50440 0.42970 0.10200
C 	C 	0.31060 0.56030 0.46050 -0.00900
C 	C 	0.27970 0.54200 0.51960 -0.06700
H 	H 	0.29980 0.49440 0.54190 0.05500
C 	C 	0.21850 0.59370 0.54700 -0.01500
H 	H 	0.19670 0.58120 0.58770 0.03400
C 	C 	0.19070 0.66230 0.51430 -0.06400
H 	H 	0.15030 0.69850 0.53290 0.04800
C 	C 	0.22190 0.67960 0.45250 0.00200
C 	C 	0.28610 0.63010 0.42860 -0.06600
H 	H 	0.31290 0.64510 0.39010 0.04800
C 	C 	0.19040 0.75180 0.41670 0.07500
C 	C 	0.11780 0.79470 0.43070 -0.14800
H 	H 	0.08710 0.78120 0.46790 0.07500
C 	C 	0.08970 0.85670 0.39130 0.09300
H 	H 	0.03970 0.88520 0.40290 -0.01300
C 	C 	0.19940 0.84690 0.32800 0.07200
H 	H 	0.23000 0.86760 0.29270 -0.02100
C 	C 	0.23660 0.78250 0.36500 -0.13700
H 	H 	0.29060 0.76100 0.35520 0.07100
N 	N 	0.18700 0.02750 0.25740 -0.24000
N 	N 	0.48740 0.44630 0.39290 -0.11900
N 	N 	0.45650 0.50730 0.43290 -0.20800
N 	N 	0.35290 0.44600 0.38850 -0.11000
N 	N 	0.27170 0.42400 0.36900 -0.20800
H 	H 	0.23420 0.44610 0.39680 0.11300
H 	H 	0.26180 0.44510 0.32970 0.10600
N 	N 	0.12630 0.87940 0.33920 -0.24500
C 	C 	0.75710 0.96250 0.71430 0.10500
H 	H 	0.76240 0.99470 0.67670 -0.02000
C 	C 	0.69020 0.90870 0.71860 -0.16000
H 	H 	0.65050 0.90490 0.68520 0.08000
C 	C 	0.68180 0.85990 0.77250 0.08700
C 	C 	0.74010 0.87240 0.81920 -0.14900
H 	H 	0.73680 0.84240 0.85800 0.08000
C 	C 	0.80530 0.93090 0.80860 0.09400
H 	H 	0.84530 0.93960 0.84120 -0.02000
C 	C 	0.61730 0.79260 0.77780 0.00200
C 	C 	0.54540 0.79190 0.73890 -0.06200
H 	H 	0.53960 0.83390 0.70730 0.04800
C 	C 	0.48350 0.73230 0.74530 -0.01300
H 	H 	0.43300 0.73670 0.72180 0.03000
C 	C 	0.49590 0.66550 0.78670 -0.06700
H 	H 	0.45490 0.62240 0.78990 0.05400
C 	C 	0.56770 0.66170 0.82320 0.00900
C 	C 	0.62770 0.72500 0.81840 -0.07000
H 	H 	0.67690 0.72170 0.84360 0.06200
C 	C 	0.57650 0.59320 0.86610 0.09600
C 	C 	0.62470 0.49560 0.92970 0.08900
C 	C 	0.68940 0.43970 0.96050 0.05200
C 	C 	0.72030 0.45800 0.01960 -0.14000
H 	H 	0.70020 0.50560 0.04190 0.07500
C 	C 	0.78150 0.40630 0.04700 0.04200
H 	H 	0.80330 0.41880 0.08770 0.01400
C 	C 	0.80930 0.33770 0.01430 -0.13300
H 	H 	0.84970 0.30150 0.03290 0.06600
C 	C 	0.77810 0.32040 0.95250 0.06000
C 	C 	0.71390 0.36990 0.92860 -0.11300
H 	H 	0.68710 0.35490 0.89010 0.06400
C 	C 	0.80960 0.24820 0.91670 0.05400
C 	C 	0.88220 0.20530 0.93070 -0.13100
H 	H 	0.91290 0.21880 0.96790 0.07600
C 	C 	0.91030 0.14330 0.89130 0.08600
H 	H 	0.96030 0.11480 0.90290 -0.00800
C 	C 	0.80060 0.15310 0.82800 0.06600
H 	H 	0.77000 0.13240 0.79270 -0.01900
C 	C 	0.76340 0.21750 0.86500 -0.12300
H 	H 	0.70940 0.23900 0.85520 0.06600
N 	N 	0.81300 0.97250 0.75740 -0.24000
N 	N 	0.51260 0.55370 0.89290 -0.11800
N 	N 	0.54350 0.49270 0.93290 -0.20100
N 	N 	0.64710 0.55400 0.88850 -0.10600
N 	N 	0.72830 0.57600 0.86900 -0.20900
H 	H 	0.76580 0.55390 0.89680 0.11600
H 	H 	0.73820 0.55490 0.82970 0.10700
N 	N 	0.87370 0.12060 0.83920 -0.24200
Cd	Cd	0.94053 0.05947 0.75000 1.18800
Cd	Cd	0.05947 0.94053 0.25000 1.18900
Cd	Cd	0.44053 0.44053 -0.00000 1.18300
Cd	Cd	0.55947 0.55947 0.50000 1.19000
