data_crystal

_cell_length_a 15.83460
_cell_length_b 15.83460
_cell_length_c 21.46300
_cell_angle_alpha 90.00000
_cell_angle_beta  90.00000
_cell_angle_gamma 90.00000

_symmetry_space_group_name_	'P 1'
_symmetry_space_group_name_H-M	'P 1'

loop_
_symmetry_equiv_pos_as_xyz
  x,y,z

loop_
_atom_site_label
_atom_site_type_symbol
_atom_site_fract_x
_atom_site_fract_y
_atom_site_fract_z
_atom_site_charge
C 	C 	0.91270 0.85920 0.85800 0.07000
H 	H 	0.96290 0.88830 0.84680 -0.00300
C 	C 	0.88320 0.79780 0.81870 -0.12900
H 	H 	0.91370 0.78440 0.78190 0.07100
C 	C 	0.80770 0.75430 0.83270 0.06300
C 	C 	0.76510 0.78180 0.88500 -0.12800
H 	H 	0.71130 0.75870 0.89480 0.06900
C 	C 	0.79970 0.84260 0.92290 0.06000
H 	H 	0.76930 0.85870 0.95910 -0.00800
C 	C 	0.77800 0.68220 0.79480 0.01200
C 	C 	0.80810 0.66360 0.73590 -0.07300
H 	H 	0.84970 0.69900 0.71760 0.05400
C 	C 	0.40570 0.22140 0.79650 -0.00800
H 	H 	0.41600 0.20100 0.83740 0.03300
C 	C 	0.46040 0.27990 0.77100 -0.07000
H 	H 	0.50900 0.29810 0.79320 0.05600
C 	C 	0.44270 0.31120 0.71280 -0.00900
C 	C 	0.37240 0.28290 0.67970 -0.06900
H 	H 	0.36120 0.30500 0.63940 0.04900
C 	C 	0.49660 0.37530 0.68130 0.10100
C 	C 	0.59220 0.42570 0.61920 0.09700
C 	C 	0.66370 0.43440 0.57540 0.01900
C 	C 	0.66510 0.50650 0.53870 -0.07600
H 	H 	0.62000 0.54590 0.54090 0.05700
C 	C 	0.73170 0.52090 0.49900 -0.00500
H 	H 	0.73620 0.57270 0.47690 0.02600
C 	C 	0.79370 0.45680 0.49170 -0.07500
H 	H 	0.83530 0.46170 0.46000 0.05200
C 	C 	0.79340 0.38840 0.53000 0.01800
C 	C 	0.72650 0.37530 0.57010 -0.08300
H 	H 	0.72400 0.32510 0.59430 0.06500
C 	C 	0.86010 0.31990 0.52250 0.07100
C 	C 	0.87700 0.26490 0.57130 -0.14200
H 	H 	0.85070 0.27150 0.61080 0.07500
C 	C 	0.93360 0.20030 0.56020 0.08700
H 	H 	0.94220 0.16110 0.59310 -0.01400
C 	C 	0.96110 0.24460 0.46390 0.07600
H 	H 	0.99090 0.23790 0.42580 -0.00900
C 	C 	0.90630 0.31150 0.46800 -0.14000
H 	H 	0.90030 0.35060 0.43470 0.07400
N 	N 	0.87450 0.88060 0.91160 -0.23100
N 	N 	0.49170 0.45590 0.68370 -0.20800
N 	N 	0.55270 0.48950 0.64460 -0.12200
N 	N 	0.55980 0.35300 0.64180 -0.11200
N 	N 	0.58120 0.26900 0.62330 -0.21000
H 	H 	0.58300 0.23520 0.65760 0.11200
H 	H 	0.54100 0.24970 0.59660 0.10900
N 	N 	0.97640 0.18750 0.50910 -0.23400
C 	C 	0.08730 0.14080 0.35800 0.07000
H 	H 	0.03710 0.11170 0.34680 -0.00300
C 	C 	0.11680 0.20220 0.31870 -0.12900
H 	H 	0.08630 0.21560 0.28190 0.07200
C 	C 	0.19230 0.24570 0.33270 0.06300
C 	C 	0.23490 0.21820 0.38500 -0.12800
H 	H 	0.28870 0.24130 0.39480 0.06800
C 	C 	0.20030 0.15740 0.42290 0.05800
H 	H 	0.23070 0.14130 0.45910 -0.01500
C 	C 	0.22200 0.31780 0.29480 0.01100
C 	C 	0.19190 0.33640 0.23590 -0.07400
H 	H 	0.15030 0.30100 0.21760 0.05400
C 	C 	0.59430 0.77860 0.29650 -0.00800
H 	H 	0.58400 0.79900 0.33740 0.03100
C 	C 	0.53960 0.72010 0.27100 -0.07100
H 	H 	0.49100 0.70190 0.29320 0.05600
C 	C 	0.55730 0.68880 0.21280 -0.00900
C 	C 	0.62760 0.71710 0.17970 -0.06900
H 	H 	0.63880 0.69500 0.13940 0.04700
C 	C 	0.50340 0.62470 0.18130 0.10100
C 	C 	0.40780 0.57430 0.11920 0.09100
C 	C 	0.33630 0.56560 0.07540 0.02800
C 	C 	0.33490 0.49350 0.03870 -0.11200
H 	H 	0.38000 0.45410 0.04090 0.06300
C 	C 	0.26830 0.47910 0.99900 0.02700
H 	H 	0.26380 0.42730 0.97690 0.02100
C 	C 	0.20630 0.54320 0.99170 -0.06200
H 	H 	0.16470 0.53830 0.96000 0.05200
C 	C 	0.20660 0.61160 0.03000 0.00600
C 	C 	0.27350 0.62470 0.07010 -0.08900
H 	H 	0.27600 0.67490 0.09430 0.06700
C 	C 	0.13990 0.68010 0.02250 0.04800
C 	C 	0.12300 0.73510 0.07130 -0.13300
H 	H 	0.14930 0.72850 0.11080 0.07200
C 	C 	0.06640 0.79970 0.06020 0.07900
H 	H 	0.05780 0.83890 0.09310 -0.01200
C 	C 	0.03890 0.75540 0.96390 0.08700
H 	H 	0.00910 0.76210 0.92580 -0.01000
C 	C 	0.09370 0.68850 0.96800 -0.11500
H 	H 	0.09970 0.64940 0.93470 0.06900
N 	N 	0.12550 0.11940 0.41160 -0.23500
N 	N 	0.50830 0.54410 0.18370 -0.20800
N 	N 	0.44730 0.51050 0.14460 -0.12200
N 	N 	0.44020 0.64700 0.14180 -0.11100
N 	N 	0.41880 0.73100 0.12330 -0.21100
H 	H 	0.41700 0.76480 0.15760 0.11200
H 	H 	0.45900 0.75030 0.09660 0.10500
N 	N 	0.02360 0.81250 0.00910 -0.24300
C 	C 	0.64080 0.41270 0.10800 0.07700
H 	H 	0.61170 0.46290 0.09680 -0.00700
C 	C 	0.70220 0.38320 0.06870 -0.14600
H 	H 	0.71560 0.41370 0.03190 0.07100
C 	C 	0.74570 0.30770 0.08270 0.08800
C 	C 	0.71820 0.26510 0.13500 -0.14500
H 	H 	0.74130 0.21130 0.14480 0.07400
C 	C 	0.65740 0.29970 0.17290 0.06700
H 	H 	0.64130 0.26930 0.20910 -0.01700
C 	C 	0.81780 0.27800 0.04480 -0.05500
C 	C 	0.83640 0.30810 0.98590 0.00800
H 	H 	0.80100 0.34970 0.96760 0.03200
C 	C 	0.27860 0.90570 0.04650 0.04800
H 	H 	0.29900 0.91600 0.08740 0.01200
C 	C 	0.22010 0.96040 0.02100 -0.13700
H 	H 	0.20190 0.00900 0.04320 0.07200
C 	C 	0.18880 0.94270 0.96280 0.04800
C 	C 	0.21710 0.87240 0.92970 -0.11200
H 	H 	0.19500 0.86120 0.88940 0.06400
C 	C 	0.12470 0.99660 0.93130 0.09300
C 	C 	0.07430 0.09220 0.86920 0.09800
C 	C 	0.06560 0.16370 0.82540 0.01500
C 	C 	0.99350 0.16510 0.78870 -0.07200
H 	H 	0.95410 0.12000 0.79090 0.05600
C 	C 	0.97910 0.23170 0.74900 -0.00400
H 	H 	0.92730 0.23620 0.72690 0.02600
C 	C 	0.04320 0.29370 0.74170 -0.07700
H 	H 	0.03830 0.33530 0.71000 0.05300
C 	C 	0.11160 0.29340 0.78000 0.01800
C 	C 	0.12470 0.22650 0.82010 -0.08200
H 	H 	0.17490 0.22400 0.84430 0.06600
C 	C 	0.18010 0.36010 0.77250 0.07200
C 	C 	0.23510 0.37700 0.82130 -0.14200
H 	H 	0.22850 0.35070 0.86080 0.07600
C 	C 	0.29970 0.43360 0.81020 0.08700
H 	H 	0.33890 0.44220 0.84310 -0.01400
C 	C 	0.25540 0.46110 0.71390 0.07600
H 	H 	0.26210 0.49090 0.67580 -0.01000
C 	C 	0.18850 0.40630 0.71800 -0.14000
H 	H 	0.14940 0.40030 0.68470 0.07400
N 	N 	0.61940 0.37450 0.16160 -0.23700
N 	N 	0.04410 0.99170 0.93370 -0.19900
N 	N 	0.01050 0.05270 0.89460 -0.12500
N 	N 	0.14700 0.05980 0.89180 -0.11100
N 	N 	0.23100 0.08120 0.87330 -0.21100
H 	H 	0.26480 0.08300 0.90760 0.11500
H 	H 	0.25030 0.04100 0.84660 0.10900
N 	N 	0.31250 0.47640 0.75910 -0.23400
C 	C 	0.35920 0.58730 0.60800 0.07100
H 	H 	0.38830 0.53710 0.59680 -0.00200
C 	C 	0.29780 0.61680 0.56870 -0.13000
H 	H 	0.28440 0.58630 0.53190 0.07200
C 	C 	0.25430 0.69230 0.58270 0.06500
C 	C 	0.28180 0.73490 0.63500 -0.12900
H 	H 	0.25870 0.78870 0.64480 0.06900
C 	C 	0.34260 0.70030 0.67290 0.05900
H 	H 	0.35870 0.73070 0.70910 -0.01500
C 	C 	0.18220 0.72200 0.54480 0.00800
C 	C 	0.16360 0.69190 0.48590 -0.06900
H 	H 	0.19900 0.65030 0.46760 0.05300
C 	C 	0.72140 0.09430 0.54650 -0.00900
H 	H 	0.70100 0.08400 0.58740 0.03200
C 	C 	0.77990 0.03960 0.52100 -0.06800
H 	H 	0.79810 0.99100 0.54320 0.05400
C 	C 	0.81120 0.05730 0.46280 -0.01000
C 	C 	0.78290 0.12760 0.42970 -0.06900
H 	H 	0.80500 0.13880 0.38940 0.04900
C 	C 	0.87530 0.00340 0.43130 0.10300
C 	C 	0.92570 0.90780 0.36920 0.09700
C 	C 	0.93440 0.83630 0.32540 0.01400
C 	C 	0.00650 0.83490 0.28870 -0.07100
H 	H 	0.04590 0.88000 0.29090 0.05600
C 	C 	0.02090 0.76830 0.24900 -0.00200
H 	H 	0.07270 0.76380 0.22690 0.02600
C 	C 	0.95680 0.70630 0.24170 -0.07800
H 	H 	0.96170 0.66470 0.21000 0.05200
C 	C 	0.88840 0.70660 0.28000 0.01800
C 	C 	0.87530 0.77350 0.32010 -0.08200
H 	H 	0.82510 0.77600 0.34430 0.06500
C 	C 	0.81990 0.63990 0.27250 0.07100
C 	C 	0.76490 0.62300 0.32130 -0.14200
H 	H 	0.77150 0.64930 0.36080 0.07500
C 	C 	0.70030 0.56640 0.31020 0.08700
H 	H 	0.66110 0.55780 0.34310 -0.01500
C 	C 	0.74460 0.53890 0.21390 0.07600
H 	H 	0.73790 0.50910 0.17580 -0.01100
C 	C 	0.81150 0.59370 0.21800 -0.14000
H 	H 	0.85060 0.59970 0.18470 0.07200
N 	N 	0.38060 0.62550 0.66160 -0.23400
N 	N 	0.95590 0.00830 0.43370 -0.20700
N 	N 	0.98950 0.94730 0.39460 -0.12400
N 	N 	0.85300 0.94020 0.39180 -0.11300
N 	N 	0.76900 0.91880 0.37330 -0.21000
H 	H 	0.73520 0.91700 0.40760 0.11200
H 	H 	0.74970 0.95900 0.34660 0.10900
N 	N 	0.68750 0.52360 0.25910 -0.23400
C 	C 	0.58730 0.35920 0.39200 0.07100
H 	H 	0.53710 0.38830 0.40320 -0.00200
C 	C 	0.61680 0.29780 0.43130 -0.12900
H 	H 	0.58630 0.28440 0.46810 0.07200
C 	C 	0.69230 0.25430 0.41730 0.06400
C 	C 	0.73490 0.28180 0.36500 -0.12900
H 	H 	0.78870 0.25870 0.35520 0.06800
C 	C 	0.70030 0.34260 0.32710 0.05900
H 	H 	0.73070 0.35870 0.29090 -0.01500
C 	C 	0.72200 0.18220 0.45520 0.01000
C 	C 	0.69190 0.16360 0.51410 -0.07100
H 	H 	0.65030 0.19900 0.53240 0.05300
C 	C 	0.09430 0.72140 0.45350 -0.01300
H 	H 	0.08400 0.70100 0.41260 0.03300
C 	C 	0.03960 0.77990 0.47900 -0.06200
H 	H 	0.99100 0.79810 0.45680 0.05100
C 	C 	0.05730 0.81120 0.53720 -0.01300
C 	C 	0.12760 0.78290 0.57030 -0.06700
H 	H 	0.13880 0.80500 0.61060 0.04900
C 	C 	0.00340 0.87530 0.56870 0.10500
C 	C 	0.90780 0.92570 0.63080 0.09700
C 	C 	0.83630 0.93440 0.67460 0.01700
C 	C 	0.83490 0.00650 0.71130 -0.07400
H 	H 	0.88000 0.04590 0.70910 0.05600
C 	C 	0.76830 0.02090 0.75100 -0.00600
H 	H 	0.76380 0.07270 0.77310 0.02700
C 	C 	0.70630 0.95680 0.75830 -0.07400
H 	H 	0.66470 0.96170 0.79000 0.05300
C 	C 	0.70660 0.88840 0.72000 0.01700
C 	C 	0.77350 0.87530 0.67990 -0.08200
H 	H 	0.77600 0.82510 0.65570 0.06500
C 	C 	0.63990 0.81990 0.72750 0.07200
C 	C 	0.62300 0.76490 0.67870 -0.14200
H 	H 	0.64930 0.77150 0.63920 0.07500
C 	C 	0.56640 0.70030 0.68980 0.08700
H 	H 	0.55780 0.66110 0.65690 -0.01500
C 	C 	0.53890 0.74460 0.78610 0.07700
H 	H 	0.50910 0.73790 0.82420 -0.00900
C 	C 	0.59370 0.81150 0.78200 -0.14000
H 	H 	0.59970 0.85060 0.81530 0.07500
N 	N 	0.62550 0.38060 0.33840 -0.23400
N 	N 	0.00830 0.95590 0.56630 -0.20600
N 	N 	0.94730 0.98950 0.60540 -0.12400
N 	N 	0.94020 0.85300 0.60820 -0.11300
N 	N 	0.91880 0.76900 0.62670 -0.21000
H 	H 	0.91700 0.73520 0.59240 0.11100
H 	H 	0.95900 0.74970 0.65340 0.10900
N 	N 	0.52360 0.68750 0.74090 -0.23400
C 	C 	0.41270 0.64080 0.89200 0.06500
H 	H 	0.46290 0.61170 0.90320 0.00300
C 	C 	0.38320 0.70220 0.93130 -0.11300
H 	H 	0.41370 0.71560 0.96810 0.07400
C 	C 	0.30770 0.74570 0.91730 0.04300
C 	C 	0.26510 0.71820 0.86500 -0.11400
H 	H 	0.21130 0.74130 0.85520 0.06300
C 	C 	0.29970 0.65740 0.82710 0.05200
H 	H 	0.26930 0.64130 0.79090 -0.01200
C 	C 	0.27800 0.81780 0.95520 0.07000
C 	C 	0.30810 0.83640 0.01410 -0.14400
H 	H 	0.34970 0.80100 0.03240 0.07300
C 	C 	0.90570 0.27860 0.95350 -0.07600
H 	H 	0.91600 0.29900 0.91260 0.05600
C 	C 	0.96040 0.22010 0.97900 0.01500
H 	H 	0.00900 0.20190 0.95680 0.02900
C 	C 	0.94270 0.18880 0.03720 -0.07400
C 	C 	0.87240 0.21710 0.07030 -0.02000
H 	H 	0.86120 0.19500 0.11060 0.03300
C 	C 	0.99660 0.12470 0.06870 0.11800
C 	C 	0.09220 0.07430 0.13080 0.09600
C 	C 	0.16370 0.06560 0.17460 0.01400
C 	C 	0.16510 0.99350 0.21130 -0.07200
H 	H 	0.12000 0.95410 0.20910 0.05600
C 	C 	0.23170 0.97910 0.25100 -0.00300
H 	H 	0.23620 0.92730 0.27310 0.02600
C 	C 	0.29370 0.04320 0.25830 -0.07700
H 	H 	0.33530 0.03830 0.29000 0.05300
C 	C 	0.29340 0.11160 0.22000 0.01800
C 	C 	0.22650 0.12470 0.17990 -0.08200
H 	H 	0.22400 0.17490 0.15570 0.06400
C 	C 	0.36010 0.18010 0.22750 0.07100
C 	C 	0.37700 0.23510 0.17870 -0.14100
H 	H 	0.35070 0.22850 0.13920 0.07300
C 	C 	0.43360 0.29970 0.18980 0.08600
H 	H 	0.44220 0.33890 0.15690 -0.01600
C 	C 	0.46110 0.25540 0.28610 0.07600
H 	H 	0.49090 0.26210 0.32420 -0.01000
C 	C 	0.40630 0.18850 0.28200 -0.14000
H 	H 	0.40030 0.14940 0.31530 0.07400
N 	N 	0.37450 0.61940 0.83840 -0.23100
N 	N 	0.99170 0.04410 0.06630 -0.21400
N 	N 	0.05270 0.01050 0.10540 -0.12500
N 	N 	0.05980 0.14700 0.10820 -0.11600
N 	N 	0.08120 0.23100 0.12670 -0.20900
H 	H 	0.08300 0.26480 0.09240 0.10800
H 	H 	0.04100 0.25030 0.15340 0.10800
N 	N 	0.47640 0.31250 0.24090 -0.23400
C 	C 	0.85920 0.91270 0.14200 0.07000
H 	H 	0.88830 0.96290 0.15320 -0.00300
C 	C 	0.79780 0.88320 0.18130 -0.13000
H 	H 	0.78440 0.91370 0.21810 0.07200
C 	C 	0.75430 0.80770 0.16730 0.06400
C 	C 	0.78180 0.76510 0.11500 -0.13000
H 	H 	0.75870 0.71130 0.10520 0.06600
C 	C 	0.84260 0.79970 0.07710 0.05700
H 	H 	0.85870 0.76930 0.04090 -0.02100
C 	C 	0.68220 0.77800 0.20520 0.01000
C 	C 	0.66360 0.80810 0.26410 -0.07200
H 	H 	0.69900 0.84970 0.28240 0.05400
C 	C 	0.22140 0.40570 0.20350 -0.00600
H 	H 	0.20100 0.41600 0.16260 0.02900
C 	C 	0.27990 0.46040 0.22900 -0.07300
H 	H 	0.29810 0.50900 0.20680 0.05600
C 	C 	0.31120 0.44270 0.28720 -0.00800
C 	C 	0.28290 0.37240 0.32030 -0.07000
H 	H 	0.30500 0.36120 0.36060 0.05000
C 	C 	0.37530 0.49660 0.31870 0.10100
C 	C 	0.42570 0.59220 0.38080 0.09700
C 	C 	0.43440 0.66370 0.42460 0.01900
C 	C 	0.50650 0.66510 0.46130 -0.07600
H 	H 	0.54590 0.62000 0.45910 0.05700
C 	C 	0.52090 0.73170 0.50100 -0.00500
H 	H 	0.57270 0.73620 0.52310 0.02600
C 	C 	0.45680 0.79370 0.50830 -0.07500
H 	H 	0.46170 0.83530 0.54000 0.05300
C 	C 	0.38840 0.79340 0.47000 0.01800
C 	C 	0.37530 0.72650 0.42990 -0.08300
H 	H 	0.32510 0.72400 0.40570 0.06500
C 	C 	0.31990 0.86010 0.47750 0.07100
C 	C 	0.26490 0.87700 0.42870 -0.14100
H 	H 	0.27150 0.85070 0.38920 0.07500
C 	C 	0.20030 0.93360 0.43980 0.08700
H 	H 	0.16110 0.94220 0.40690 -0.01400
C 	C 	0.24460 0.96110 0.53610 0.07600
H 	H 	0.23790 0.99090 0.57420 -0.00900
C 	C 	0.31150 0.90630 0.53200 -0.13900
H 	H 	0.35060 0.90030 0.56530 0.07400
N 	N 	0.88060 0.87450 0.08840 -0.23700
N 	N 	0.45590 0.49170 0.31630 -0.20800
N 	N 	0.48950 0.55270 0.35540 -0.12200
N 	N 	0.35300 0.55980 0.35820 -0.11100
N 	N 	0.26900 0.58120 0.37670 -0.21000
H 	H 	0.23520 0.58300 0.34240 0.11200
H 	H 	0.24970 0.54100 0.40340 0.10900
N 	N 	0.18750 0.97640 0.49090 -0.23300
C 	C 	0.14080 0.08730 0.64200 0.07000
H 	H 	0.11170 0.03710 0.65320 -0.00300
C 	C 	0.20220 0.11680 0.68130 -0.12900
H 	H 	0.21560 0.08630 0.71810 0.07200
C 	C 	0.24570 0.19230 0.66730 0.06400
C 	C 	0.21820 0.23490 0.61500 -0.12900
H 	H 	0.24130 0.28870 0.60520 0.06800
C 	C 	0.15740 0.20030 0.57710 0.05900
H 	H 	0.14130 0.23070 0.54090 -0.01500
C 	C 	0.31780 0.22200 0.70520 0.01000
C 	C 	0.33640 0.19190 0.76410 -0.07200
H 	H 	0.30100 0.15030 0.78240 0.05400
C 	C 	0.77860 0.59430 0.70350 -0.00700
H 	H 	0.79900 0.58400 0.66260 0.03100
C 	C 	0.72010 0.53960 0.72900 -0.07200
H 	H 	0.70190 0.49100 0.70680 0.05600
C 	C 	0.68880 0.55730 0.78720 -0.00700
C 	C 	0.71710 0.62760 0.82030 -0.07100
H 	H 	0.69500 0.63880 0.86060 0.05100
C 	C 	0.62470 0.50340 0.81870 0.10100
C 	C 	0.57430 0.40780 0.88080 0.10200
C 	C 	0.56560 0.33630 0.92460 0.01000
C 	C 	0.49350 0.33490 0.96130 -0.04000
H 	H 	0.45410 0.38000 0.95910 0.05000
C 	C 	0.47910 0.26830 0.00100 -0.03600
H 	H 	0.42730 0.26380 0.02310 0.03200
C 	C 	0.54320 0.20630 0.00830 -0.08800
H 	H 	0.53830 0.16470 0.04000 0.05300
C 	C 	0.61160 0.20660 0.97000 0.03000
C 	C 	0.62470 0.27350 0.92990 -0.07700
H 	H 	0.67490 0.27600 0.90570 0.06400
C 	C 	0.68010 0.13990 0.97750 0.09500
C 	C 	0.73510 0.12300 0.92870 -0.15000
H 	H 	0.72850 0.14930 0.88920 0.07800
C 	C 	0.79970 0.06640 0.93980 0.09500
H 	H 	0.83890 0.05780 0.90690 -0.01600
C 	C 	0.75540 0.03890 0.03610 0.06400
H 	H 	0.76210 0.00910 0.07420 -0.00800
C 	C 	0.68850 0.09370 0.03200 -0.16400
H 	H 	0.64940 0.09970 0.06530 0.07900
N 	N 	0.11940 0.12550 0.58840 -0.23500
N 	N 	0.54410 0.50830 0.81630 -0.20800
N 	N 	0.51050 0.44730 0.85540 -0.12300
N 	N 	0.64700 0.44020 0.85820 -0.11100
N 	N 	0.73100 0.41880 0.87670 -0.21000
H 	H 	0.76480 0.41700 0.84240 0.11200
H 	H 	0.75030 0.45900 0.90340 0.11300
N 	N 	0.81250 0.02360 0.99090 -0.22200
Cd	Cd	0.43979 0.56021 0.75000 1.19200
Cd	Cd	0.56021 0.43979 0.25000 1.19200
Cd	Cd	0.93979 0.93979 -0.00000 1.18400
Cd	Cd	0.06021 0.06021 0.50000 1.19100
