data_crystal

_cell_length_a 21.28950
_cell_length_b 14.55850
_cell_length_c 8.10660
_cell_angle_alpha 90.00000
_cell_angle_beta  84.17300
_cell_angle_gamma 90.00000

_symmetry_space_group_name_	'P 1'
_symmetry_space_group_name_H-M	'P 1'

loop_
_symmetry_equiv_pos_as_xyz
  x,y,z

loop_
_atom_site_label
_atom_site_type_symbol
_atom_site_fract_x
_atom_site_fract_y
_atom_site_fract_z
_atom_site_charge
Zr	Zr	0.57851 0.61912 0.04052 3.18600
O 	O 	0.51662 0.62830 0.83320 -1.20500
O 	O 	0.61125 0.59852 0.60310 -0.67900
O 	O 	0.55225 0.76629 0.01290 -0.70600
O 	O 	0.64326 0.65660 0.83440 -0.69200
O 	O 	0.67366 0.57536 0.09680 -0.66100
C 	C 	0.64462 0.64903 0.67904 0.57200
C 	C 	0.69773 0.70101 0.58423 -0.10600
C 	C 	0.72860 0.77244 0.66249 0.10600
N 	N 	0.72018 0.67907 0.42030 -0.09400
C 	C 	0.54239 0.95320 0.09180 0.15700
Zr	Zr	0.07851 0.11912 0.04052 3.18700
O 	O 	0.01662 0.12830 0.83320 -1.18500
O 	O 	0.11125 0.09852 0.60310 -0.69200
O 	O 	0.05225 0.26629 0.01290 -0.71000
O 	O 	0.14326 0.15660 0.83440 -0.69300
O 	O 	0.17366 0.07536 0.09680 -0.65100
C 	C 	0.14462 0.14903 0.67904 0.57200
C 	C 	0.19773 0.20101 0.58423 -0.11000
C 	C 	0.22860 0.27244 0.66249 0.09700
N 	N 	0.22018 0.17907 0.42030 -0.09800
C 	C 	0.04239 0.45320 0.09180 0.03200
Zr	Zr	0.42149 0.61912 0.95948 3.19600
O 	O 	0.48338 0.62830 0.16680 -1.23300
O 	O 	0.38875 0.59852 0.39690 -0.68100
O 	O 	0.44775 0.76629 0.98710 -0.64900
O 	O 	0.35674 0.65660 0.16560 -0.73000
O 	O 	0.32634 0.57536 0.90320 -0.63200
C 	C 	0.35538 0.64903 0.32096 0.57700
C 	C 	0.30227 0.70101 0.41577 -0.10800
C 	C 	0.27140 0.77244 0.33751 0.09000
N 	N 	0.27982 0.67907 0.57970 -0.09200
C 	C 	0.45761 0.95320 0.90820 0.19500
Zr	Zr	0.92149 0.11912 0.95948 3.19300
O 	O 	0.98338 0.12830 0.16680 -1.25700
O 	O 	0.88875 0.09852 0.39690 -0.70500
O 	O 	0.94775 0.26629 0.98710 -0.68700
O 	O 	0.85674 0.15660 0.16560 -0.73400
O 	O 	0.82634 0.07536 0.90320 -0.62500
C 	C 	0.85538 0.14903 0.32096 0.57600
C 	C 	0.80227 0.20101 0.41577 -0.11600
C 	C 	0.77140 0.27244 0.33751 0.07700
N 	N 	0.77982 0.17907 0.57970 -0.09800
C 	C 	0.95761 0.45320 0.90820 0.03600
Zr	Zr	0.42149 0.38088 0.95948 3.19500
O 	O 	0.48338 0.37170 0.16680 -1.23500
O 	O 	0.38875 0.40148 0.39690 -0.68300
O 	O 	0.44775 0.23371 0.98710 -0.64300
O 	O 	0.35674 0.34340 0.16560 -0.73300
O 	O 	0.32634 0.42464 0.90320 -0.63400
C 	C 	0.35538 0.35097 0.32096 0.57400
C 	C 	0.30227 0.29899 0.41577 -0.10900
C 	C 	0.27140 0.22756 0.33751 0.07300
N 	N 	0.27982 0.32093 0.57970 -0.09400
C 	C 	0.45761 0.04680 0.90820 -0.05200
Zr	Zr	0.92149 0.88088 0.95948 3.19800
O 	O 	0.98338 0.87170 0.16680 -1.22900
O 	O 	0.88875 0.90148 0.39690 -0.66200
O 	O 	0.94775 0.73371 0.98710 -0.68600
O 	O 	0.85674 0.84340 0.16560 -0.71500
O 	O 	0.82634 0.92464 0.90320 -0.56100
C 	C 	0.85538 0.85097 0.32096 0.57500
C 	C 	0.80227 0.79899 0.41577 -0.10200
C 	C 	0.77140 0.72756 0.33751 0.08000
N 	N 	0.77982 0.82093 0.57970 -0.08800
C 	C 	0.95761 0.54680 0.90820 0.03600
Zr	Zr	0.57851 0.38088 0.04052 3.18600
O 	O 	0.51662 0.37170 0.83320 -1.20700
O 	O 	0.61125 0.40148 0.60310 -0.68000
O 	O 	0.55225 0.23371 0.01290 -0.70100
O 	O 	0.64326 0.34340 0.83440 -0.69500
O 	O 	0.67366 0.42464 0.09680 -0.66300
C 	C 	0.64462 0.35097 0.67904 0.56900
C 	C 	0.69773 0.29899 0.58423 -0.10700
C 	C 	0.72860 0.22756 0.66249 0.08900
N 	N 	0.72018 0.32093 0.42030 -0.09600
C 	C 	0.54239 0.04680 0.09180 -0.09100
Zr	Zr	0.07851 0.88088 0.04052 3.19200
O 	O 	0.01662 0.87170 0.83320 -1.15700
O 	O 	0.11125 0.90148 0.60310 -0.64900
O 	O 	0.05225 0.73371 0.01290 -0.70900
O 	O 	0.14326 0.84340 0.83440 -0.67400
O 	O 	0.17366 0.92464 0.09680 -0.58600
C 	C 	0.14462 0.85097 0.67904 0.57000
C 	C 	0.19773 0.79899 0.58423 -0.09700
C 	C 	0.22860 0.72756 0.66249 0.10000
N 	N 	0.22018 0.82093 0.42030 -0.08700
C 	C 	0.04239 0.54680 0.09180 0.03200
Zr	Zr	0.46334 0.50000 0.30676 3.20700
O 	O 	0.55665 0.50000 0.18580 -1.42800
O 	O 	0.60300 0.50000 0.88430 -1.17700
C 	C 	0.70510 0.50000 0.10580 0.44500
Zr	Zr	0.96334 0.00000 0.30676 3.19700
O 	O 	0.05665 0.00000 0.18580 -1.45400
O 	O 	0.10300 0.00000 0.88430 -1.20900
C 	C 	0.20510 0.00000 0.10580 0.35000
Zr	Zr	0.53666 0.50000 0.69324 3.20700
O 	O 	0.44335 0.50000 0.81420 -1.40900
O 	O 	0.39700 0.50000 0.11570 -1.21800
C 	C 	0.29490 0.50000 0.89420 0.47000
Zr	Zr	0.03666 -0.00000 0.69324 3.20200
O 	O 	0.94335 -0.00000 0.81420 -1.47200
O 	O 	0.89700 -0.00000 0.11570 -1.25600
C 	C 	0.79490 0.00000 0.89420 0.37300
O 	O 	0.50000 0.57830 0.50000 -0.89200
O 	O 	0.00000 0.07830 0.50000 -0.89300
O 	O 	0.50000 0.42170 0.50000 -0.89600
O 	O 	0.00000 0.92170 0.50000 -0.83800
C 	C 	0.50000 0.80360 -0.00000 0.50700
C 	C 	0.50000 0.91160 -0.00000 -0.22800
C 	C 	0.00000 0.30360 -0.00000 0.52800
C 	C 	-0.00000 0.41160 -0.00000 -0.13400
C 	C 	0.50000 0.19640 -0.00000 0.46500
C 	C 	0.50000 0.08840 -0.00000 -0.10300
C 	C 	-0.00000 0.69640 -0.00000 0.52600
C 	C 	0.00000 0.58840 -0.00000 -0.13400
