data_crystal

_cell_length_a 10.89280
_cell_length_b 8.79170
_cell_length_c 27.76650
_cell_angle_alpha 90.00000
_cell_angle_beta  101.05100
_cell_angle_gamma 90.00000

_symmetry_space_group_name_	'P 1'
_symmetry_space_group_name_H-M	'P 1'

loop_
_symmetry_equiv_pos_as_xyz
  x,y,z

loop_
_atom_site_label
_atom_site_type_symbol
_atom_site_fract_x
_atom_site_fract_y
_atom_site_fract_z
_atom_site_charge
Zn	Zn	0.62956 0.03308 0.80094 1.24400
Zn	Zn	0.87284 0.23781 0.70400 1.24000
P 	P 	0.88172 0.95290 0.76783 0.56100
P 	P 	0.61328 0.30500 0.72899 0.56800
O 	O 	0.88780 0.02040 0.71823 -0.42200
O 	O 	0.95466 0.80450 0.77700 -0.40700
O 	O 	0.74679 0.92040 0.77190 -0.43400
O 	O 	0.93960 0.07530 0.80678 -0.42400
O 	O 	0.75207 0.34770 0.73361 -0.43200
O 	O 	0.58800 0.23930 0.77661 -0.41300
O 	O 	0.58440 0.17530 0.68933 -0.46200
O 	O 	0.66800 0.06460 0.87146 -0.43700
O 	O 	0.83650 0.23780 0.13210 -0.43500
O 	O 	0.87690 0.05800 0.89168 -0.30700
O 	O 	0.62840 0.21520 0.11091 -0.30500
C 	C 	0.77200 0.07300 0.90169 0.35100
C 	C 	0.76320 0.10270 0.95430 -0.05600
C 	C 	0.64770 0.10370 0.96809 -0.02100
C 	C 	0.63920 0.13950 0.01566 -0.01500
C 	C 	0.74680 0.16920 0.05056 -0.05900
C 	C 	0.86230 0.16220 0.03730 -0.01400
C 	C 	0.87090 0.13050 0.98908 -0.02100
C 	C 	0.73550 0.20960 0.10215 0.35400
H 	H 	0.92430 0.05630 0.83850 0.23300
H 	H 	0.60110 0.21050 0.66210 0.27400
H 	H 	0.57640 0.08210 0.94520 0.06500
H 	H 	0.56140 0.14190 0.02430 0.05900
H 	H 	0.93450 0.17640 0.06080 0.06600
H 	H 	0.94840 0.12900 0.98040 0.06100
O 	O 	0.53370 0.44200 0.71371 -0.41800
Zn	Zn	0.37044 0.53308 0.69906 1.24600
Zn	Zn	0.12716 0.73781 0.79599 1.24100
P 	P 	0.11828 0.45290 0.73217 0.55700
P 	P 	0.38672 0.80500 0.77101 0.56900
O 	O 	0.11220 0.52040 0.78177 -0.41800
O 	O 	0.04534 0.30450 0.72300 -0.40600
O 	O 	0.25321 0.42040 0.72810 -0.43500
O 	O 	0.06040 0.57530 0.69322 -0.42100
O 	O 	0.24793 0.84770 0.76639 -0.43100
O 	O 	0.41200 0.73930 0.72339 -0.41200
O 	O 	0.41560 0.67530 0.81067 -0.46100
O 	O 	0.33200 0.56460 0.62854 -0.43700
O 	O 	0.16350 0.73780 0.36790 -0.43600
O 	O 	0.12310 0.55800 0.60832 -0.30600
O 	O 	0.37160 0.71520 0.38909 -0.30500
C 	C 	0.22800 0.57300 0.59831 0.35100
C 	C 	0.23680 0.60270 0.54570 -0.05600
C 	C 	0.35230 0.60370 0.53191 -0.02100
C 	C 	0.36080 0.63950 0.48434 -0.01600
C 	C 	0.25320 0.66920 0.44944 -0.06000
C 	C 	0.13770 0.66220 0.46270 -0.01400
C 	C 	0.12910 0.63050 0.51092 -0.02100
C 	C 	0.26450 0.70960 0.39785 0.35400
H 	H 	0.07570 0.55630 0.66150 0.23300
H 	H 	0.39890 0.71050 0.83790 0.27400
H 	H 	0.42360 0.58210 0.55480 0.06600
H 	H 	0.43860 0.64190 0.47570 0.05900
H 	H 	0.06550 0.67640 0.43920 0.06500
H 	H 	0.05160 0.62900 0.51960 0.06100
O 	O 	0.46630 0.94200 0.78629 -0.41700
Zn	Zn	0.37044 0.96692 0.19906 1.24500
Zn	Zn	0.12716 0.76219 0.29600 1.24100
P 	P 	0.11828 0.04710 0.23217 0.56200
P 	P 	0.38672 0.69500 0.27101 0.56900
O 	O 	0.11220 0.97960 0.28177 -0.42100
O 	O 	0.04534 0.19550 0.22300 -0.40600
O 	O 	0.25321 0.07960 0.22810 -0.43400
O 	O 	0.06040 0.92470 0.19322 -0.42400
O 	O 	0.24793 0.65230 0.26639 -0.43200
O 	O 	0.41200 0.76070 0.22339 -0.41300
O 	O 	0.41560 0.82470 0.31067 -0.46200
O 	O 	0.33200 0.93540 0.12854 -0.43700
O 	O 	0.16350 0.76220 0.86790 -0.43500
O 	O 	0.12310 0.94200 0.10832 -0.30700
O 	O 	0.37160 0.78480 0.88909 -0.30500
C 	C 	0.22800 0.92700 0.09831 0.35100
C 	C 	0.23680 0.89730 0.04570 -0.05600
C 	C 	0.35230 0.89630 0.03191 -0.02100
C 	C 	0.36080 0.86050 0.98434 -0.01500
C 	C 	0.25320 0.83080 0.94944 -0.05900
C 	C 	0.13770 0.83780 0.96270 -0.01400
C 	C 	0.12910 0.86950 0.01092 -0.02100
C 	C 	0.26450 0.79040 0.89785 0.35400
H 	H 	0.07570 0.94370 0.16150 0.23300
H 	H 	0.39890 0.78950 0.33790 0.27400
H 	H 	0.42360 0.91790 0.05480 0.06500
H 	H 	0.43860 0.85810 0.97570 0.05900
H 	H 	0.06550 0.82360 0.93920 0.06600
H 	H 	0.05160 0.87100 0.01960 0.06100
O 	O 	0.46630 0.55800 0.28629 -0.41800
Zn	Zn	0.62956 0.46692 0.30094 1.24600
Zn	Zn	0.87284 0.26219 0.20400 1.24100
P 	P 	0.88172 0.54710 0.26783 0.55700
P 	P 	0.61328 0.19500 0.22899 0.56900
O 	O 	0.88780 0.47960 0.21823 -0.41800
O 	O 	0.95466 0.69550 0.27700 -0.40600
O 	O 	0.74679 0.57960 0.27190 -0.43500
O 	O 	0.93960 0.42470 0.30678 -0.42100
O 	O 	0.75207 0.15230 0.23361 -0.43100
O 	O 	0.58800 0.26070 0.27661 -0.41200
O 	O 	0.58440 0.32470 0.18933 -0.46100
O 	O 	0.66800 0.43540 0.37146 -0.43700
O 	O 	0.83650 0.26220 0.63210 -0.43600
O 	O 	0.87690 0.44200 0.39168 -0.30600
O 	O 	0.62840 0.28480 0.61091 -0.30500
C 	C 	0.77200 0.42700 0.40169 0.35100
C 	C 	0.76320 0.39730 0.45430 -0.05600
C 	C 	0.64770 0.39630 0.46809 -0.02100
C 	C 	0.63920 0.36050 0.51566 -0.01600
C 	C 	0.74680 0.33080 0.55056 -0.06000
C 	C 	0.86230 0.33780 0.53730 -0.01400
C 	C 	0.87090 0.36950 0.48908 -0.02100
C 	C 	0.73550 0.29040 0.60215 0.35400
H 	H 	0.92430 0.44370 0.33850 0.23300
H 	H 	0.60110 0.28950 0.16210 0.27400
H 	H 	0.57640 0.41790 0.44520 0.06600
H 	H 	0.56140 0.35810 0.52430 0.05900
H 	H 	0.93450 0.32360 0.56080 0.06500
H 	H 	0.94840 0.37100 0.48040 0.06100
O 	O 	0.53370 0.05800 0.21371 -0.41700
