data_crystal

_cell_length_a 11.33560
_cell_length_b 12.15130
_cell_length_c 12.86110
_cell_angle_alpha 87.54300
_cell_angle_beta  68.76100
_cell_angle_gamma 71.79900

_symmetry_space_group_name_	'P 1'
_symmetry_space_group_name_H-M	'P 1'

loop_
_symmetry_equiv_pos_as_xyz
  x,y,z

loop_
_atom_site_label
_atom_site_type_symbol
_atom_site_fract_x
_atom_site_fract_y
_atom_site_fract_z
_atom_site_charge
Cd	Cd	0.65252 0.21755 0.70992 1.21300
Cd	Cd	0.34748 0.78245 0.29008 1.21300
H 	H 	0.58630 0.98380 0.78280 -0.00400
H 	H 	0.42370 0.91400 0.90120 0.09400
H 	H 	0.23510 0.23100 0.06170 0.09200
H 	H 	0.40090 0.29310 0.93900 -0.01800
H 	H 	0.13660 0.08340 0.13000 0.08200
H 	H 	0.23690 0.95650 0.10780 0.07300
H 	H 	0.06150 0.88220 0.12940 0.05900
H 	H 	0.96250 0.00990 0.15300 0.05400
H 	H 	0.00340 0.15020 0.01740 0.05500
H 	H 	0.12860 0.11370 0.90540 0.05100
H 	H 	0.87980 0.98730 0.37620 0.13400
H 	H 	0.95590 0.90320 0.44390 0.13000
H 	H 	0.78550 0.82430 0.51940 0.04400
H 	H 	0.81770 0.82160 0.39020 0.03400
H 	H 	0.56000 0.89170 0.63480 0.05100
H 	H 	0.66160 0.00870 0.33010 0.05100
H 	H 	0.69240 0.43960 0.97710 0.15000
H 	H 	0.74690 0.50140 0.86950 0.14400
H 	H 	0.89000 0.30040 0.93280 0.02600
H 	H 	0.94570 0.35180 0.81870 0.02800
H 	H 	0.88720 0.37860 0.09750 0.04300
H 	H 	0.01540 0.53140 0.82030 0.04200
H 	H 	0.55230 0.22210 0.50750 -0.01300
H 	H 	0.41180 0.33240 0.42580 0.10400
H 	H 	0.27230 0.57730 0.67600 0.09800
H 	H 	0.41680 0.46050 0.75180 -0.01200
H 	H 	0.28550 0.56510 0.41630 0.06700
H 	H 	0.18380 0.62040 0.53550 0.08300
H 	H 	0.11020 0.41000 0.61590 0.04900
H 	H 	0.00720 0.53580 0.63590 0.05000
H 	H 	0.00050 0.65210 0.48200 0.05400
H 	H 	0.09950 0.60340 0.35980 0.05000
H 	H 	0.41370 0.01620 0.21720 -0.00400
H 	H 	0.57630 0.08600 0.09880 0.09400
H 	H 	0.76490 0.76900 0.93830 0.09200
H 	H 	0.59910 0.70690 0.06100 -0.01800
H 	H 	0.86340 0.91660 0.87000 0.08200
H 	H 	0.76310 0.04350 0.89220 0.07300
H 	H 	0.93850 0.11780 0.87060 0.05900
H 	H 	0.03750 0.99010 0.84700 0.05400
H 	H 	0.99660 0.84980 0.98260 0.05500
H 	H 	0.87140 0.88630 0.09460 0.05100
H 	H 	0.12020 0.01270 0.62380 0.13400
H 	H 	0.04410 0.09680 0.55610 0.13000
H 	H 	0.21450 0.17570 0.48060 0.04400
H 	H 	0.18230 0.17840 0.60980 0.03400
H 	H 	0.44000 0.10830 0.36520 0.05100
H 	H 	0.33840 0.99130 0.66990 0.05100
H 	H 	0.30760 0.56040 0.02290 0.15000
H 	H 	0.25310 0.49860 0.13050 0.14400
H 	H 	0.11000 0.69960 0.06720 0.02600
H 	H 	0.05430 0.64820 0.18130 0.02800
H 	H 	0.11280 0.62140 0.90250 0.04300
H 	H 	0.98460 0.46860 0.17970 0.04200
H 	H 	0.44770 0.77790 0.49250 -0.01300
H 	H 	0.58820 0.66760 0.57420 0.10400
H 	H 	0.72770 0.42270 0.32400 0.09800
H 	H 	0.58320 0.53950 0.24820 -0.01200
H 	H 	0.71450 0.43490 0.58370 0.06700
H 	H 	0.81620 0.37960 0.46450 0.08300
H 	H 	0.88980 0.59000 0.38410 0.04900
H 	H 	0.99280 0.46420 0.36410 0.05000
H 	H 	0.99950 0.34790 0.51800 0.05400
H 	H 	0.90050 0.39660 0.64020 0.05000
C 	C 	0.51400 0.03440 0.83892 0.08300
C 	C 	0.41650 0.99170 0.90995 -0.17700
C 	C 	0.30810 0.06530 0.99421 0.14000
C 	C 	0.30490 0.17940 0.00470 -0.18700
C 	C 	0.40500 0.21620 0.93090 0.09300
C 	C 	0.19840 0.02240 0.07200 -0.16900
C 	C 	0.02060 0.94800 0.09481 -0.07100
C 	C 	0.06100 0.08680 0.96066 -0.06600
C 	C 	0.80660 0.04370 0.54229 0.37000
C 	C 	0.86840 0.95070 0.44610 -0.32800
C 	C 	0.78100 0.87270 0.45800 -0.03400
C 	C 	0.63580 0.93851 0.47900 0.02500
C 	C 	0.53660 0.93520 0.57990 -0.06700
C 	C 	0.59720 0.00470 0.39870 -0.06400
C 	C 	0.70360 0.35890 0.83620 0.38400
C 	C 	0.75270 0.42610 0.89950 -0.37100
C 	C 	0.88680 0.37230 0.89640 0.02100
C 	C 	0.94270 0.44220 0.94970 0.00300
C 	C 	0.93330 0.42720 0.05670 -0.05700
C 	C 	0.00930 0.51760 0.89350 -0.05600
C 	C 	0.49540 0.29490 0.54180 0.10800
C 	C 	0.41110 0.36070 0.49220 -0.20300
C 	C 	0.32500 0.46920 0.54136 0.16200
C 	C 	0.32890 0.50510 0.63980 -0.20400
C 	C 	0.41630 0.43430 0.68510 0.10400
C 	C 	0.23250 0.54772 0.48930 -0.18400
C 	C 	0.05370 0.46674 0.58423 -0.05900
C 	C 	0.04700 0.58244 0.43118 -0.07100
C 	C 	0.48600 0.96560 0.16108 0.08300
C 	C 	0.58350 0.00830 0.09005 -0.17700
C 	C 	0.69190 0.93470 0.00579 0.14000
C 	C 	0.69510 0.82060 0.99530 -0.18700
C 	C 	0.59500 0.78380 0.06910 0.09300
C 	C 	0.80160 0.97760 0.92800 -0.16900
C 	C 	0.97940 0.05200 0.90519 -0.07100
C 	C 	0.93900 0.91320 0.03934 -0.06600
C 	C 	0.19340 0.95630 0.45771 0.37000
C 	C 	0.13160 0.04930 0.55390 -0.32800
C 	C 	0.21900 0.12730 0.54200 -0.03400
C 	C 	0.36420 0.06149 0.52100 0.02500
C 	C 	0.46340 0.06480 0.42010 -0.06700
C 	C 	0.40280 0.99530 0.60130 -0.06400
C 	C 	0.29640 0.64110 0.16380 0.38400
C 	C 	0.24730 0.57390 0.10050 -0.37100
C 	C 	0.11320 0.62770 0.10360 0.02100
C 	C 	0.05730 0.55780 0.05030 0.00300
C 	C 	0.06670 0.57280 0.94330 -0.05700
C 	C 	0.99070 0.48240 0.10650 -0.05600
C 	C 	0.50460 0.70510 0.45820 0.10800
C 	C 	0.58890 0.63930 0.50780 -0.20300
C 	C 	0.67500 0.53080 0.45864 0.16200
C 	C 	0.67110 0.49490 0.36020 -0.20400
C 	C 	0.58370 0.56570 0.31490 0.10400
C 	C 	0.76750 0.45228 0.51070 -0.18400
C 	C 	0.94630 0.53326 0.41577 -0.05900
C 	C 	0.95300 0.41756 0.56882 -0.07100
N 	N 	0.50845 0.14565 0.84753 -0.25000
N 	N 	0.12526 0.98783 0.01228 -0.07400
N 	N 	0.50036 0.32983 0.63717 -0.25300
N 	N 	0.13626 0.49615 0.47663 -0.07400
N 	N 	0.49155 0.85435 0.15247 -0.25000
N 	N 	0.87474 0.01217 0.98772 -0.07400
N 	N 	0.49964 0.67017 0.36283 -0.25300
N 	N 	0.86374 0.50385 0.52337 -0.07400
O 	O 	0.78035 0.14934 0.52195 -0.41100
O 	O 	0.77837 0.01522 0.64137 -0.39300
O 	O 	0.78211 0.26228 0.78443 -0.44100
O 	O 	0.58955 0.40211 0.83308 -0.38700
O 	O 	0.21965 0.85066 0.47805 -0.41100
O 	O 	0.22163 0.98478 0.35863 -0.39300
O 	O 	0.21789 0.73772 0.21557 -0.44100
O 	O 	0.41045 0.59789 0.16692 -0.38700
