data_crystal

_cell_length_a 11.08370
_cell_length_b 11.14960
_cell_length_c 16.93700
_cell_angle_alpha 90.00000
_cell_angle_beta  97.53400
_cell_angle_gamma 90.00000

_symmetry_space_group_name_	'P 1'
_symmetry_space_group_name_H-M	'P 1'

loop_
_symmetry_equiv_pos_as_xyz
  x,y,z

loop_
_atom_site_label
_atom_site_type_symbol
_atom_site_fract_x
_atom_site_fract_y
_atom_site_fract_z
_atom_site_charge
Cu	Cu	0.50000 0.54209 0.25000 0.88900
Cu	Cu	0.50000 0.45791 0.75000 0.89000
H 	H 	0.27710 0.45100 0.15510 0.00600
H 	H 	0.06660 0.43420 0.15510 0.09300
H 	H 	0.11490 0.62230 0.36150 0.08700
H 	H 	0.32690 0.63840 0.35400 0.01900
H 	H 	0.36080 0.74150 0.16820 -0.00300
H 	H 	0.35500 0.94930 0.16400 0.09800
H 	H 	0.57640 0.13700 0.14930 0.08500
H 	H 	0.58120 0.33970 0.15300 0.01900
H 	H 	0.72290 0.45100 0.34490 0.00500
H 	H 	0.93340 0.43420 0.34490 0.09200
H 	H 	0.88510 0.62230 0.13850 0.08600
H 	H 	0.67310 0.63840 0.14600 0.01800
H 	H 	0.63920 0.74150 0.33180 -0.00400
H 	H 	0.64500 0.94930 0.33600 0.09700
H 	H 	0.42360 0.13700 0.35070 0.08400
H 	H 	0.41880 0.33970 0.34700 0.01900
H 	H 	0.72290 0.54900 0.84490 0.00500
H 	H 	0.93340 0.56580 0.84490 0.09200
H 	H 	0.88510 0.37770 0.63850 0.08600
H 	H 	0.67310 0.36160 0.64600 0.01200
H 	H 	0.39650 0.25630 0.83680 0.00500
H 	H 	0.39130 0.04420 0.83840 0.08400
H 	H 	0.42360 0.86300 0.85070 0.07900
H 	H 	0.41880 0.66030 0.84700 0.01800
H 	H 	0.27710 0.54900 0.65510 0.00500
H 	H 	0.06660 0.56580 0.65510 0.09300
H 	H 	0.11490 0.37770 0.86150 0.08600
H 	H 	0.32690 0.36160 0.85400 0.01200
H 	H 	0.60350 0.25630 0.66320 0.00500
H 	H 	0.60870 0.04420 0.66160 0.08400
H 	H 	0.57640 0.86300 0.64930 0.07900
H 	H 	0.58120 0.66030 0.65300 0.01800
C 	C 	0.24050 0.48920 0.19620 0.09800
C 	C 	0.11750 0.47890 0.19390 -0.15100
C 	C 	0.07800 0.53950 0.25300 0.07400
C 	C 	0.14960 0.59220 0.31710 -0.12800
C 	C 	0.27310 0.59930 0.31380 0.07800
C 	C 	0.41840 0.78770 0.20190 0.12700
C 	C 	0.41450 0.90810 0.19940 -0.16700
C 	C 	0.54510 0.17630 0.19200 -0.11000
C 	C 	0.54700 0.29560 0.19260 0.08000
C 	C 	0.75950 0.48920 0.30380 0.09800
C 	C 	0.88250 0.47890 0.30610 -0.15200
C 	C 	0.92200 0.53950 0.24700 0.07500
C 	C 	0.85040 0.59220 0.18290 -0.12900
C 	C 	0.72690 0.59930 0.18620 0.07800
C 	C 	0.58160 0.78770 0.29810 0.12700
C 	C 	0.58550 0.90810 0.30060 -0.16700
C 	C 	0.45490 0.17630 0.30800 -0.11000
C 	C 	0.45300 0.29560 0.30740 0.08000
C 	C 	0.75950 0.51080 0.80380 0.10000
C 	C 	0.88250 0.52110 0.80610 -0.15200
C 	C 	0.92200 0.46050 0.74700 0.07500
C 	C 	0.85040 0.40780 0.68290 -0.13000
C 	C 	0.72690 0.40070 0.68620 0.08100
C 	C 	0.43810 0.21050 0.80160 0.09400
C 	C 	0.43510 0.08740 0.80310 -0.13500
C 	C 	0.45490 0.82370 0.80800 -0.11100
C 	C 	0.45300 0.70440 0.80740 0.08100
C 	C 	0.24050 0.51080 0.69620 0.10000
C 	C 	0.11750 0.52110 0.69390 -0.15200
C 	C 	0.07800 0.46050 0.75300 0.07600
C 	C 	0.14960 0.40780 0.81710 -0.13000
C 	C 	0.27310 0.40070 0.81380 0.08100
C 	C 	0.56190 0.21050 0.69840 0.09400
C 	C 	0.56490 0.08740 0.69690 -0.13500
C 	C 	0.54510 0.82370 0.69200 -0.11100
C 	C 	0.54700 0.70440 0.69260 0.08100
C 	C 	0.50000 0.96910 0.25000 0.09400
C 	C 	0.50000 0.10330 0.25000 0.03500
C 	C 	0.50000 0.03090 0.75000 0.07600
C 	C 	0.50000 0.89670 0.75000 0.04300
S 	S 	0.45510 0.55230 0.03020 0.40100
S 	S 	0.54490 0.55230 0.46980 0.40200
S 	S 	0.54490 0.44770 0.96980 0.40300
S 	S 	0.45510 0.44770 0.53020 0.40200
N 	N 	0.31250 0.54800 0.25090 -0.21800
N 	N 	0.68750 0.54800 0.24910 -0.21800
N 	N 	0.68750 0.45200 0.74910 -0.21800
N 	N 	0.31250 0.45200 0.75090 -0.21800
N 	N 	0.50000 0.73630 0.25000 -0.22700
N 	N 	0.50000 0.35000 0.25000 -0.21000
N 	N 	0.50000 0.26370 0.75000 -0.20700
N 	N 	0.50000 0.65000 0.75000 -0.21000
O 	O 	0.46790 0.54660 0.10840 -0.34300
O 	O 	0.33500 0.58220 0.98470 -0.21600
O 	O 	0.51010 0.66990 0.01030 -0.21200
O 	O 	0.53210 0.54660 0.39160 -0.34300
O 	O 	0.66500 0.58220 0.51530 -0.21600
O 	O 	0.48990 0.66990 0.48970 -0.21200
O 	O 	0.53210 0.45340 0.89160 -0.34200
O 	O 	0.66500 0.41780 0.01530 -0.21500
O 	O 	0.48990 0.33010 0.98970 -0.21300
O 	O 	0.46790 0.45340 0.60840 -0.34200
O 	O 	0.33500 0.41780 0.48470 -0.21400
O 	O 	0.51010 0.33010 0.51030 -0.21300
