data_crystal

_cell_length_a 18.94700
_cell_length_b 6.91500
_cell_length_c 11.29500
_cell_angle_alpha 90.00000
_cell_angle_beta  90.45000
_cell_angle_gamma 90.00000

_symmetry_space_group_name_	'P 1'
_symmetry_space_group_name_H-M	'P 1'

loop_
_symmetry_equiv_pos_as_xyz
  x,y,z

loop_
_atom_site_label
_atom_site_type_symbol
_atom_site_fract_x
_atom_site_fract_y
_atom_site_fract_z
_atom_site_charge
O 	O 	0.32200 0.17500 0.62000 -0.54800
O 	O 	0.31400 0.16200 0.36500 -0.59000
C 	C 	0.46900 0.17600 0.45500 0.06000
N 	N 	0.24800 0.15400 0.88500 -0.09400
C 	C 	0.31700 0.20100 0.94600 0.06100
C 	C 	0.18600 0.14200 0.96600 0.07000
O 	O 	0.82200 0.67500 0.62000 -0.55300
O 	O 	0.81400 0.66200 0.36500 -0.59500
C 	C 	0.96900 0.67600 0.45500 0.05300
N 	N 	0.74800 0.65400 0.88500 -0.09500
C 	C 	0.81700 0.70100 0.94600 0.05700
C 	C 	0.68600 0.64200 0.96600 0.05700
O 	O 	0.67800 0.17500 0.38000 -0.54800
O 	O 	0.68600 0.16200 0.63500 -0.59000
C 	C 	0.53100 0.17600 0.54500 0.06000
N 	N 	0.75200 0.15400 0.11500 -0.09400
C 	C 	0.68300 0.20100 0.05400 0.06100
C 	C 	0.81400 0.14200 0.03400 0.07000
O 	O 	0.17800 0.67500 0.38000 -0.55300
O 	O 	0.18600 0.66200 0.63500 -0.59500
C 	C 	0.03100 0.67600 0.54500 0.05300
N 	N 	0.25200 0.65400 0.11500 -0.09500
C 	C 	0.18300 0.70100 0.05400 0.05700
C 	C 	0.31400 0.64200 0.03400 0.05700
O 	O 	0.67800 0.82500 0.38000 -0.56300
O 	O 	0.68600 0.83800 0.63500 -0.60700
C 	C 	0.53100 0.82400 0.54500 0.04400
N 	N 	0.75200 0.84600 0.11500 -0.10000
C 	C 	0.68300 0.79900 0.05400 0.04600
C 	C 	0.81400 0.85800 0.03400 0.04400
O 	O 	0.17800 0.32500 0.38000 -0.54500
O 	O 	0.18600 0.33800 0.63500 -0.58900
C 	C 	0.03100 0.32400 0.54500 0.06200
N 	N 	0.25200 0.34600 0.11500 -0.09200
C 	C 	0.18300 0.29900 0.05400 0.05700
C 	C 	0.31400 0.35800 0.03400 0.05600
O 	O 	0.32200 0.82500 0.62000 -0.56300
O 	O 	0.31400 0.83800 0.36500 -0.60700
C 	C 	0.46900 0.82400 0.45500 0.04400
N 	N 	0.24800 0.84600 0.88500 -0.10000
C 	C 	0.31700 0.79900 0.94600 0.04600
C 	C 	0.18600 0.85800 0.96600 0.04400
O 	O 	0.82200 0.32500 0.62000 -0.54500
O 	O 	0.81400 0.33800 0.36500 -0.58900
C 	C 	0.96900 0.32400 0.45500 0.06200
N 	N 	0.74800 0.34600 0.88500 -0.09200
C 	C 	0.81700 0.29900 0.94600 0.05700
C 	C 	0.68600 0.35800 0.96600 0.05600
P 	P 	0.33200 0.00000 0.70500 0.47500
P 	P 	0.34000 0.00000 0.30500 0.63800
O 	O 	0.21500 0.00000 0.54100 -0.84500
O 	O 	0.41100 0.00000 0.73000 -0.18200
O 	O 	0.30000 0.00000 0.19300 -0.23500
N 	N 	0.47400 0.00000 0.37800 -0.08100
C 	C 	0.43100 0.00000 0.26200 -0.00800
C 	C 	0.25100 0.00000 0.79400 0.04300
P 	P 	0.83200 0.50000 0.70500 0.46300
P 	P 	0.84000 0.50000 0.30500 0.62200
O 	O 	0.71500 0.50000 0.54100 -0.85600
O 	O 	0.91100 0.50000 0.73000 -0.18700
O 	O 	0.80000 0.50000 0.19300 -0.24300
N 	N 	0.97400 0.50000 0.37800 -0.08900
C 	C 	0.93100 0.50000 0.26200 -0.01300
C 	C 	0.75100 0.50000 0.79400 0.02700
P 	P 	0.66800 0.00000 0.29500 0.47500
P 	P 	0.66000 0.00000 0.69500 0.63800
O 	O 	0.78500 0.00000 0.45900 -0.84500
O 	O 	0.58900 0.00000 0.27000 -0.18200
O 	O 	0.70000 0.00000 0.80700 -0.23500
N 	N 	0.52600 0.00000 0.62200 -0.08100
C 	C 	0.56900 0.00000 0.73800 -0.00800
C 	C 	0.74900 0.00000 0.20600 0.04300
P 	P 	0.16800 0.50000 0.29500 0.46300
P 	P 	0.16000 0.50000 0.69500 0.62200
O 	O 	0.28500 0.50000 0.45900 -0.85600
O 	O 	0.08900 0.50000 0.27000 -0.18700
O 	O 	0.20000 0.50000 0.80700 -0.24300
N 	N 	0.02600 0.50000 0.62200 -0.08900
C 	C 	0.06900 0.50000 0.73800 -0.01300
C 	C 	0.24900 0.50000 0.20600 0.02700
Al	Al	0.25000 0.25000 0.50000 2.38800
Al	Al	0.75000 0.25000 0.50000 2.38800
Al	Al	0.75000 0.75000 0.50000 2.38700
Al	Al	0.25000 0.75000 0.50000 2.38700
