data_crystal

_cell_length_a 19.41500
_cell_length_b 7.07100
_cell_length_c 11.48300
_cell_angle_alpha 90.00000
_cell_angle_beta  92.78000
_cell_angle_gamma 90.00000

_symmetry_space_group_name_	'P 1'
_symmetry_space_group_name_H-M	'P 1'

loop_
_symmetry_equiv_pos_as_xyz
  x,y,z

loop_
_atom_site_label
_atom_site_type_symbol
_atom_site_fract_x
_atom_site_fract_y
_atom_site_fract_z
_atom_site_charge
O 	O 	0.33100 0.18200 0.62900 -0.58000
O 	O 	0.30400 0.15800 0.36700 -0.74800
C 	C 	0.50400 0.17800 0.43300 0.05500
N 	N 	0.26100 0.19500 0.87800 -0.08600
C 	C 	0.32000 0.27000 0.95900 0.06800
C 	C 	0.20200 0.11100 0.94900 0.08100
O 	O 	0.83100 0.68200 0.62900 -0.59100
O 	O 	0.80400 0.65800 0.36700 -0.75800
C 	C 	0.00400 0.67800 0.43300 0.04000
N 	N 	0.76100 0.69500 0.87800 -0.09100
C 	C 	0.82000 0.77000 0.95900 0.06200
C 	C 	0.70200 0.61100 0.94900 0.04400
O 	O 	0.66900 0.18200 0.37100 -0.58100
O 	O 	0.69600 0.15800 0.63300 -0.74900
C 	C 	0.49600 0.17800 0.56700 0.05400
N 	N 	0.73900 0.19500 0.12200 -0.08700
C 	C 	0.68000 0.27000 0.04100 0.06700
C 	C 	0.79800 0.11100 0.05100 0.08000
O 	O 	0.16900 0.68200 0.37100 -0.59100
O 	O 	0.19600 0.65800 0.63300 -0.75800
C 	C 	0.99600 0.67800 0.56700 0.04000
N 	N 	0.23900 0.69500 0.12200 -0.09100
C 	C 	0.18000 0.77000 0.04100 0.06200
C 	C 	0.29800 0.61100 0.05100 0.04400
O 	O 	0.66900 0.81800 0.37100 -0.61200
O 	O 	0.69600 0.84200 0.63300 -0.78600
C 	C 	0.49600 0.82200 0.56700 0.02100
N 	N 	0.73900 0.80500 0.12200 -0.09400
C 	C 	0.68000 0.73000 0.04100 0.04500
C 	C 	0.79800 0.88900 0.05100 0.00200
O 	O 	0.16900 0.31800 0.37100 -0.57500
O 	O 	0.19600 0.34200 0.63300 -0.74500
C 	C 	0.99600 0.32200 0.56700 0.05900
N 	N 	0.23900 0.30500 0.12200 -0.08200
C 	C 	0.18000 0.23000 0.04100 0.06500
C 	C 	0.29800 0.38900 0.05100 0.04200
O 	O 	0.33100 0.81800 0.62900 -0.61200
O 	O 	0.30400 0.84200 0.36700 -0.78600
C 	C 	0.50400 0.82200 0.43300 0.02100
N 	N 	0.26100 0.80500 0.87800 -0.09400
C 	C 	0.32000 0.73000 0.95900 0.04500
C 	C 	0.20200 0.88900 0.94900 0.00200
O 	O 	0.83100 0.31800 0.62900 -0.57500
O 	O 	0.80400 0.34200 0.36700 -0.74500
C 	C 	0.00400 0.32200 0.43300 0.05900
N 	N 	0.76100 0.30500 0.87800 -0.08200
C 	C 	0.82000 0.23000 0.95900 0.06500
C 	C 	0.70200 0.38900 0.94900 0.04200
Ti	Ti	0.25000 0.25000 0.50000 3.10800
Ti	Ti	0.75000 0.25000 0.50000 3.10800
Ti	Ti	0.75000 0.75000 0.50000 3.10500
Ti	Ti	0.25000 0.75000 0.50000 3.10500
P 	P 	0.34300 0.00000 0.70100 0.48600
P 	P 	0.32000 0.00000 0.29700 0.69900
O 	O 	0.22300 0.00000 0.53200 -1.15100
O 	O 	0.41900 0.00000 0.74000 -0.17900
O 	O 	0.28700 0.00000 0.17500 -0.23600
N 	N 	0.46900 0.00000 0.38100 -0.06900
C 	C 	0.41100 0.00000 0.27300 -0.00800
C 	C 	0.29400 0.00000 0.82700 0.02100
P 	P 	0.84300 0.50000 0.70100 0.45900
P 	P 	0.82000 0.50000 0.29700 0.66400
O 	O 	0.72300 0.50000 0.53200 -1.17800
O 	O 	0.91900 0.50000 0.74000 -0.19000
O 	O 	0.78700 0.50000 0.17500 -0.25000
N 	N 	0.96900 0.50000 0.38100 -0.08700
C 	C 	0.91100 0.50000 0.27300 -0.02000
C 	C 	0.79400 0.50000 0.82700 -0.00700
P 	P 	0.65700 0.00000 0.29900 0.48600
P 	P 	0.68000 0.00000 0.70300 0.69900
O 	O 	0.77700 0.00000 0.46800 -1.15100
O 	O 	0.58100 0.00000 0.26000 -0.17900
O 	O 	0.71300 0.00000 0.82500 -0.23600
N 	N 	0.53100 0.00000 0.61900 -0.06900
C 	C 	0.58900 0.00000 0.72700 -0.00800
C 	C 	0.70600 0.00000 0.17300 0.02100
P 	P 	0.15700 0.50000 0.29900 0.45900
P 	P 	0.18000 0.50000 0.70300 0.66400
O 	O 	0.27700 0.50000 0.46800 -1.17800
O 	O 	0.08100 0.50000 0.26000 -0.19000
O 	O 	0.21300 0.50000 0.82500 -0.25000
N 	N 	0.03100 0.50000 0.61900 -0.08700
C 	C 	0.08900 0.50000 0.72700 -0.02000
C 	C 	0.20600 0.50000 0.17300 -0.00700
