data_crystal

_cell_length_a 14.68900
_cell_length_b 14.99500
_cell_length_c 30.62500
_cell_angle_alpha 90.00000
_cell_angle_beta  90.00000
_cell_angle_gamma 90.00000

_symmetry_space_group_name_	'P 1'
_symmetry_space_group_name_H-M	'P 1'

loop_
_symmetry_equiv_pos_as_xyz
  x,y,z

loop_
_atom_site_label
_atom_site_type_symbol
_atom_site_fract_x
_atom_site_fract_y
_atom_site_fract_z
_atom_site_charge
Cu	Cu	0.50000 0.25000 0.25000 0.85200
Cu	Cu	-0.00000 0.75000 0.75000 0.82800
H 	H 	0.60130 0.08780 0.22650 -0.02100
H 	H 	0.60730 0.97850 0.17200 0.08000
H 	H 	0.38620 0.09600 0.11790 0.09000
H 	H 	0.39250 0.20000 0.17130 -0.02500
H 	H 	0.62900 0.91970 0.11020 0.02600
H 	H 	0.63260 0.81280 0.05480 0.06800
H 	H 	0.37110 0.87160 0.02600 0.06500
H 	H 	0.36990 0.97660 0.08080 0.02000
H 	H 	0.85520 0.62630 0.78800 -0.01800
H 	H 	0.75790 0.62300 0.84680 0.08100
H 	H 	0.84090 0.87130 0.88030 0.08400
H 	H 	0.93580 0.86530 0.81880 -0.01800
H 	H 	0.66790 0.61770 0.89600 0.02900
H 	H 	0.55400 0.62480 0.94800 0.07000
H 	H 	0.63700 0.86920 0.98410 0.06600
H 	H 	0.75200 0.86520 0.93160 0.02800
H 	H 	0.60130 0.41220 0.27350 -0.02100
H 	H 	0.60730 0.52150 0.32800 0.08000
H 	H 	0.38620 0.40400 0.38210 0.09000
H 	H 	0.39250 0.30000 0.32870 -0.02500
H 	H 	0.62900 0.58030 0.38980 0.02600
H 	H 	0.63260 0.68720 0.44520 0.06800
H 	H 	0.37110 0.62840 0.47400 0.06500
H 	H 	0.36990 0.52340 0.41920 0.02000
H 	H 	0.85520 0.87370 0.71200 -0.01800
H 	H 	0.75790 0.87700 0.65320 0.08100
H 	H 	0.84090 0.62870 0.61970 0.08400
H 	H 	0.93580 0.63470 0.68120 -0.01700
H 	H 	0.66790 0.88230 0.60400 0.02900
H 	H 	0.55400 0.87520 0.55200 0.07000
H 	H 	0.63700 0.63080 0.51590 0.06600
H 	H 	0.75200 0.63480 0.56840 0.02800
H 	H 	0.39870 0.41220 0.22650 -0.02300
H 	H 	0.39270 0.52150 0.17200 0.07600
H 	H 	0.61380 0.40400 0.11790 0.09100
H 	H 	0.60750 0.30000 0.17130 -0.02500
H 	H 	0.37100 0.58030 0.11020 0.02100
H 	H 	0.36740 0.68720 0.05480 0.06200
H 	H 	0.62890 0.62840 0.02600 0.07000
H 	H 	0.63010 0.52340 0.08080 0.02400
H 	H 	0.14480 0.87370 0.78800 -0.03100
H 	H 	0.24210 0.87700 0.84680 0.07700
H 	H 	0.15910 0.62870 0.88030 0.07500
H 	H 	0.06420 0.63470 0.81880 -0.04300
H 	H 	0.33210 0.88230 0.89600 0.02500
H 	H 	0.44600 0.87520 0.94800 0.07000
H 	H 	0.36300 0.63080 0.98410 0.06400
H 	H 	0.24800 0.63480 0.93160 0.02000
H 	H 	0.39870 0.08780 0.27350 -0.02300
H 	H 	0.39270 0.97850 0.32800 0.07600
H 	H 	0.61380 0.09600 0.38210 0.09100
H 	H 	0.60750 0.20000 0.32870 -0.02500
H 	H 	0.37100 0.91970 0.38980 0.02100
H 	H 	0.36740 0.81280 0.44520 0.06200
H 	H 	0.62890 0.87160 0.47400 0.07000
H 	H 	0.63010 0.97660 0.41920 0.02400
H 	H 	0.14480 0.62630 0.71200 -0.03100
H 	H 	0.24210 0.62300 0.65320 0.07700
H 	H 	0.15910 0.87130 0.61970 0.07500
H 	H 	0.06420 0.86530 0.68120 -0.04300
H 	H 	0.33210 0.61770 0.60400 0.02500
H 	H 	0.44600 0.62480 0.55200 0.07000
H 	H 	0.36300 0.86920 0.51590 0.06400
H 	H 	0.24800 0.86520 0.56840 0.02000
C 	C 	0.55820 0.08950 0.20343 0.08600
C 	C 	0.56220 0.02380 0.17115 -0.15900
C 	C 	0.49670 0.02690 0.13714 0.10500
C 	C 	0.43310 0.09290 0.13923 -0.17900
C 	C 	0.43670 0.15380 0.17151 0.11200
C 	C 	0.49610 0.95930 0.10182 -0.05500
C 	C 	0.57600 0.90950 0.09308 0.00000
C 	C 	0.57850 0.84590 0.05994 -0.10600
C 	C 	0.50140 0.83070 0.03414 0.07500
C 	C 	0.42450 0.88050 0.04297 -0.11300
C 	C 	0.42400 0.94320 0.07607 0.00700
C 	C 	0.85230 0.67640 0.80700 0.08800
C 	C 	0.79420 0.67440 0.84180 -0.16000
C 	C 	0.78770 0.74570 0.86968 0.09900
C 	C 	0.84210 0.82030 0.86190 -0.15800
C 	C 	0.89880 0.81490 0.82500 0.10200
C 	C 	0.71940 0.74020 0.90719 -0.04200
C 	C 	0.66160 0.66980 0.91343 -0.00000
C 	C 	0.59450 0.67380 0.94473 -0.10400
C 	C 	0.58460 0.74740 0.97161 0.07200
C 	C 	0.64330 0.81800 0.96602 -0.10600
C 	C 	0.71130 0.81630 0.93469 -0.00800
C 	C 	0.55820 0.41050 0.29657 0.08600
C 	C 	0.56220 0.47620 0.32885 -0.15900
C 	C 	0.49670 0.47310 0.36286 0.10500
C 	C 	0.43310 0.40710 0.36077 -0.17900
C 	C 	0.43670 0.34620 0.32849 0.11200
C 	C 	0.49610 0.54070 0.39818 -0.05500
C 	C 	0.57600 0.59050 0.40692 0.00000
C 	C 	0.57850 0.65410 0.44006 -0.10600
C 	C 	0.50140 0.66930 0.46586 0.07500
C 	C 	0.42450 0.61950 0.45703 -0.11300
C 	C 	0.42400 0.55680 0.42393 0.00700
C 	C 	0.85230 0.82360 0.69300 0.08800
C 	C 	0.79420 0.82560 0.65820 -0.16000
C 	C 	0.78770 0.75430 0.63032 0.09900
C 	C 	0.84210 0.67970 0.63810 -0.15800
C 	C 	0.89880 0.68510 0.67500 0.10200
C 	C 	0.71940 0.75980 0.59281 -0.04200
C 	C 	0.66160 0.83020 0.58657 -0.00000
C 	C 	0.59450 0.82620 0.55527 -0.10400
C 	C 	0.58460 0.75260 0.52839 0.07200
C 	C 	0.64330 0.68200 0.53398 -0.10600
C 	C 	0.71130 0.68370 0.56531 -0.00800
C 	C 	0.44180 0.41050 0.20343 0.08600
C 	C 	0.43780 0.47620 0.17115 -0.15800
C 	C 	0.50330 0.47310 0.13714 0.10500
C 	C 	0.56690 0.40710 0.13923 -0.17800
C 	C 	0.56330 0.34620 0.17151 0.11300
C 	C 	0.50390 0.54070 0.10182 -0.05500
C 	C 	0.42400 0.59050 0.09308 -0.00000
C 	C 	0.42150 0.65410 0.05994 -0.10700
C 	C 	0.49860 0.66930 0.03414 0.07500
C 	C 	0.57550 0.61950 0.04297 -0.11300
C 	C 	0.57600 0.55680 0.07607 0.00800
C 	C 	0.14770 0.82360 0.80700 0.07900
C 	C 	0.20580 0.82560 0.84180 -0.16700
C 	C 	0.21230 0.75430 0.86968 0.09500
C 	C 	0.15790 0.67970 0.86190 -0.16800
C 	C 	0.10120 0.68510 0.82500 0.09400
C 	C 	0.28060 0.75980 0.90719 -0.04900
C 	C 	0.33840 0.83020 0.91343 0.00100
C 	C 	0.40550 0.82620 0.94473 -0.10700
C 	C 	0.41540 0.75260 0.97161 0.07200
C 	C 	0.35670 0.68200 0.96602 -0.11000
C 	C 	0.28870 0.68370 0.93469 -0.00800
C 	C 	0.44180 0.08950 0.29657 0.08600
C 	C 	0.43780 0.02380 0.32885 -0.15800
C 	C 	0.50330 0.02690 0.36286 0.10500
C 	C 	0.56690 0.09290 0.36077 -0.17800
C 	C 	0.56330 0.15380 0.32849 0.11300
C 	C 	0.50390 0.95930 0.39818 -0.05500
C 	C 	0.42400 0.90950 0.40692 -0.00000
C 	C 	0.42150 0.84590 0.44006 -0.10700
C 	C 	0.49860 0.83070 0.46586 0.07500
C 	C 	0.57550 0.88050 0.45703 -0.11300
C 	C 	0.57600 0.94320 0.42393 0.00800
C 	C 	0.14770 0.67640 0.69300 0.07900
C 	C 	0.20580 0.67440 0.65820 -0.16700
C 	C 	0.21230 0.74570 0.63032 0.09500
C 	C 	0.15790 0.82030 0.63810 -0.16800
C 	C 	0.10120 0.81490 0.67500 0.09400
C 	C 	0.28060 0.74020 0.59281 -0.04900
C 	C 	0.33840 0.66980 0.58657 0.00100
C 	C 	0.40550 0.67380 0.55527 -0.10700
C 	C 	0.41540 0.74740 0.52839 0.07200
C 	C 	0.35670 0.81800 0.53398 -0.11000
C 	C 	0.28870 0.81630 0.56531 -0.00800
C 	C 	0.50000 0.75000 0.00303 -0.09500
C 	C 	0.50000 0.75000 0.49697 -0.09500
N 	N 	0.49660 0.15400 0.20315 -0.24900
N 	N 	0.90540 0.74770 0.79881 -0.23500
N 	N 	0.49660 0.34600 0.29685 -0.24900
N 	N 	0.90540 0.75230 0.70119 -0.23500
N 	N 	0.50340 0.34600 0.20315 -0.24900
N 	N 	0.09460 0.75230 0.79881 -0.25400
N 	N 	0.50340 0.15400 0.29685 -0.24900
N 	N 	0.09460 0.74770 0.70119 -0.25400
Cu	Cu	0.50000 0.75000 0.75000 0.85100
Cu	Cu	-0.00000 0.25000 0.25000 0.82700
H 	H 	0.39870 0.91220 0.77350 -0.02300
H 	H 	0.39270 0.02150 0.82800 0.07600
H 	H 	0.61380 0.90400 0.88210 0.09100
H 	H 	0.60750 0.80000 0.82870 -0.02500
H 	H 	0.37100 0.08030 0.88980 0.02100
H 	H 	0.36740 0.18720 0.94520 0.06200
H 	H 	0.62890 0.12840 0.97400 0.07000
H 	H 	0.63010 0.02340 0.91920 0.02400
H 	H 	0.14480 0.37370 0.21200 -0.03100
H 	H 	0.24210 0.37700 0.15320 0.07700
H 	H 	0.15910 0.12870 0.11970 0.07500
H 	H 	0.06420 0.13470 0.18120 -0.04300
H 	H 	0.33210 0.38230 0.10400 0.02500
H 	H 	0.44600 0.37520 0.05200 0.07000
H 	H 	0.36300 0.13080 0.01590 0.06400
H 	H 	0.24800 0.13480 0.06840 0.02000
H 	H 	0.39870 0.58780 0.72650 -0.02300
H 	H 	0.39270 0.47850 0.67200 0.07600
H 	H 	0.61380 0.59600 0.61790 0.09100
H 	H 	0.60750 0.70000 0.67130 -0.02500
H 	H 	0.37100 0.41970 0.61020 0.02100
H 	H 	0.36740 0.31280 0.55480 0.06200
H 	H 	0.62890 0.37160 0.52600 0.07000
H 	H 	0.63010 0.47660 0.58080 0.02400
H 	H 	0.14480 0.12630 0.28800 -0.03100
H 	H 	0.24210 0.12300 0.34680 0.07700
H 	H 	0.15910 0.37130 0.38030 0.07500
H 	H 	0.06420 0.36530 0.31880 -0.04300
H 	H 	0.33210 0.11770 0.39600 0.02500
H 	H 	0.44600 0.12480 0.44800 0.07000
H 	H 	0.36300 0.36920 0.48410 0.06400
H 	H 	0.24800 0.36520 0.43160 0.02000
H 	H 	0.60130 0.58780 0.77350 -0.02100
H 	H 	0.60730 0.47850 0.82800 0.08000
H 	H 	0.38620 0.59600 0.88210 0.09000
H 	H 	0.39250 0.70000 0.82870 -0.02500
H 	H 	0.62900 0.41970 0.88980 0.02600
H 	H 	0.63260 0.31280 0.94520 0.06800
H 	H 	0.37110 0.37160 0.97400 0.06500
H 	H 	0.36990 0.47660 0.91920 0.02000
H 	H 	0.85520 0.12630 0.21200 -0.01800
H 	H 	0.75790 0.12300 0.15320 0.08100
H 	H 	0.84090 0.37130 0.11970 0.08400
H 	H 	0.93580 0.36530 0.18120 -0.01700
H 	H 	0.66790 0.11770 0.10400 0.02900
H 	H 	0.55400 0.12480 0.05200 0.07000
H 	H 	0.63700 0.36920 0.01590 0.06600
H 	H 	0.75200 0.36520 0.06840 0.02800
H 	H 	0.60130 0.91220 0.72650 -0.02100
H 	H 	0.60730 0.02150 0.67200 0.08000
H 	H 	0.38620 0.90400 0.61790 0.09000
H 	H 	0.39250 0.80000 0.67130 -0.02500
H 	H 	0.62900 0.08030 0.61020 0.02600
H 	H 	0.63260 0.18720 0.55480 0.06800
H 	H 	0.37110 0.12840 0.52600 0.06500
H 	H 	0.36990 0.02340 0.58080 0.02000
H 	H 	0.85520 0.37370 0.28800 -0.01800
H 	H 	0.75790 0.37700 0.34680 0.08100
H 	H 	0.84090 0.12870 0.38030 0.08400
H 	H 	0.93580 0.13470 0.31880 -0.01800
H 	H 	0.66790 0.38230 0.39600 0.02900
H 	H 	0.55400 0.37520 0.44800 0.07000
H 	H 	0.63700 0.13080 0.48410 0.06600
H 	H 	0.75200 0.13480 0.43160 0.02800
C 	C 	0.44180 0.91050 0.79657 0.08600
C 	C 	0.43780 0.97620 0.82885 -0.15800
C 	C 	0.50330 0.97310 0.86286 0.10500
C 	C 	0.56690 0.90710 0.86077 -0.17800
C 	C 	0.56330 0.84620 0.82849 0.11300
C 	C 	0.50390 0.04070 0.89818 -0.05500
C 	C 	0.42400 0.09050 0.90692 -0.00000
C 	C 	0.42150 0.15410 0.94006 -0.10700
C 	C 	0.49860 0.16930 0.96586 0.07500
C 	C 	0.57550 0.11950 0.95703 -0.11300
C 	C 	0.57600 0.05680 0.92393 0.00800
C 	C 	0.14770 0.32360 0.19300 0.07900
C 	C 	0.20580 0.32560 0.15820 -0.16700
C 	C 	0.21230 0.25430 0.13032 0.09500
C 	C 	0.15790 0.17970 0.13810 -0.16800
C 	C 	0.10120 0.18510 0.17500 0.09400
C 	C 	0.28060 0.25980 0.09281 -0.04900
C 	C 	0.33840 0.33020 0.08657 0.00100
C 	C 	0.40550 0.32620 0.05527 -0.10700
C 	C 	0.41540 0.25260 0.02839 0.07200
C 	C 	0.35670 0.18200 0.03398 -0.11000
C 	C 	0.28870 0.18370 0.06531 -0.00800
C 	C 	0.44180 0.58950 0.70343 0.08600
C 	C 	0.43780 0.52380 0.67115 -0.15800
C 	C 	0.50330 0.52690 0.63714 0.10500
C 	C 	0.56690 0.59290 0.63923 -0.17800
C 	C 	0.56330 0.65380 0.67151 0.11300
C 	C 	0.50390 0.45930 0.60182 -0.05500
C 	C 	0.42400 0.40950 0.59308 -0.00000
C 	C 	0.42150 0.34590 0.55994 -0.10700
C 	C 	0.49860 0.33070 0.53414 0.07500
C 	C 	0.57550 0.38050 0.54297 -0.11300
C 	C 	0.57600 0.44320 0.57607 0.00800
C 	C 	0.14770 0.17640 0.30700 0.07900
C 	C 	0.20580 0.17440 0.34180 -0.16700
C 	C 	0.21230 0.24570 0.36968 0.09500
C 	C 	0.15790 0.32030 0.36190 -0.16800
C 	C 	0.10120 0.31490 0.32500 0.09400
C 	C 	0.28060 0.24020 0.40719 -0.04900
C 	C 	0.33840 0.16980 0.41343 0.00100
C 	C 	0.40550 0.17380 0.44473 -0.10700
C 	C 	0.41540 0.24740 0.47161 0.07200
C 	C 	0.35670 0.31800 0.46602 -0.11000
C 	C 	0.28870 0.31630 0.43469 -0.00800
C 	C 	0.55820 0.58950 0.79657 0.08600
C 	C 	0.56220 0.52380 0.82885 -0.15900
C 	C 	0.49670 0.52690 0.86286 0.10500
C 	C 	0.43310 0.59290 0.86077 -0.17900
C 	C 	0.43670 0.65380 0.82849 0.11200
C 	C 	0.49610 0.45930 0.89818 -0.05500
C 	C 	0.57600 0.40950 0.90692 0.00000
C 	C 	0.57850 0.34590 0.94006 -0.10600
C 	C 	0.50140 0.33070 0.96586 0.07500
C 	C 	0.42450 0.38050 0.95703 -0.11300
C 	C 	0.42400 0.44320 0.92393 0.00700
C 	C 	0.85230 0.17640 0.19300 0.08800
C 	C 	0.79420 0.17440 0.15820 -0.16000
C 	C 	0.78770 0.24570 0.13032 0.09900
C 	C 	0.84210 0.32030 0.13810 -0.15800
C 	C 	0.89880 0.31490 0.17500 0.10200
C 	C 	0.71940 0.24020 0.09281 -0.04200
C 	C 	0.66160 0.16980 0.08657 -0.00000
C 	C 	0.59450 0.17380 0.05527 -0.10400
C 	C 	0.58460 0.24740 0.02839 0.07200
C 	C 	0.64330 0.31800 0.03398 -0.10600
C 	C 	0.71130 0.31630 0.06531 -0.00800
C 	C 	0.55820 0.91050 0.70343 0.08600
C 	C 	0.56220 0.97620 0.67115 -0.15900
C 	C 	0.49670 0.97310 0.63714 0.10500
C 	C 	0.43310 0.90710 0.63923 -0.17900
C 	C 	0.43670 0.84620 0.67151 0.11200
C 	C 	0.49610 0.04070 0.60182 -0.05500
C 	C 	0.57600 0.09050 0.59308 0.00000
C 	C 	0.57850 0.15410 0.55994 -0.10600
C 	C 	0.50140 0.16930 0.53414 0.07500
C 	C 	0.42450 0.11950 0.54297 -0.11300
C 	C 	0.42400 0.05680 0.57607 0.00700
C 	C 	0.85230 0.32360 0.30700 0.08800
C 	C 	0.79420 0.32560 0.34180 -0.16000
C 	C 	0.78770 0.25430 0.36968 0.09900
C 	C 	0.84210 0.17970 0.36190 -0.15800
C 	C 	0.89880 0.18510 0.32500 0.10200
C 	C 	0.71940 0.25980 0.40719 -0.04200
C 	C 	0.66160 0.33020 0.41343 -0.00000
C 	C 	0.59450 0.32620 0.44473 -0.10400
C 	C 	0.58460 0.25260 0.47161 0.07200
C 	C 	0.64330 0.18200 0.46602 -0.10600
C 	C 	0.71130 0.18370 0.43469 -0.00800
C 	C 	0.50000 0.25000 0.99697 -0.09500
C 	C 	0.50000 0.25000 0.50303 -0.09500
N 	N 	0.50340 0.84600 0.79685 -0.24900
N 	N 	0.09460 0.25230 0.20119 -0.25400
N 	N 	0.50340 0.65400 0.70315 -0.24900
N 	N 	0.09460 0.24770 0.29881 -0.25400
N 	N 	0.49660 0.65400 0.79685 -0.24900
N 	N 	0.90540 0.24770 0.20119 -0.23500
N 	N 	0.49660 0.84600 0.70315 -0.24900
N 	N 	0.90540 0.25230 0.29881 -0.23500
