data_crystal

_cell_length_a 20.83500
_cell_length_b 10.17700
_cell_length_c 16.01400
_cell_angle_alpha 90.00000
_cell_angle_beta  106.12000
_cell_angle_gamma 90.00000

_symmetry_space_group_name_	'P 1'
_symmetry_space_group_name_H-M	'P 1'

loop_
_symmetry_equiv_pos_as_xyz
  x,y,z

loop_
_atom_site_label
_atom_site_type_symbol
_atom_site_fract_x
_atom_site_fract_y
_atom_site_fract_z
_atom_site_charge
Cd	Cd	0.05960 0.10735 0.57743 1.18400
O 	O 	0.05468 0.97620 0.69860 -0.40800
O 	O 	0.01197 0.09050 0.42600 -0.51800
N 	N 	0.96910 0.22750 0.58240 -0.25700
N 	N 	0.15250 0.00120 0.56360 -0.25700
C 	C 	0.01140 0.89860 0.65580 0.36000
C 	C 	0.99010 0.78690 0.70150 -0.07100
C 	C 	0.97600 0.65370 0.65440 -0.00500
C 	C 	0.04890 0.60540 0.68180 -0.03000
C 	C 	0.92600 0.59570 0.71840 -0.01700
C 	C 	0.91990 0.72730 0.66940 -0.00400
C 	C 	0.94250 0.32050 0.52690 0.07200
H 	H 	0.96740 0.35060 0.48910 -0.02400
C 	C 	0.88160 0.37770 0.51930 -0.12700
H 	H 	0.86520 0.44310 0.47640 0.05700
C 	C 	0.84460 0.34040 0.57340 0.04700
C 	C 	0.87120 0.24170 0.63170 -0.11600
H 	H 	0.84660 0.20840 0.66890 0.04900
C 	C 	0.93270 0.19170 0.63610 0.04800
H 	H 	0.95090 0.12790 0.67950 -0.00000
C 	C 	0.77760 0.39810 0.56880 0.05100
C 	C 	0.74430 0.47990 0.50370 -0.13100
H 	H 	0.76360 0.50330 0.45850 0.06000
C 	C 	0.18300 0.02830 0.50380 0.07100
H 	H 	0.16110 0.08520 0.45770 -0.01900
C 	C 	0.18570 0.92380 0.62710 0.06200
H 	H 	0.16570 0.90410 0.67220 -0.01100
C 	C 	0.74690 0.36990 0.63280 -0.12400
H 	H 	0.76790 0.31390 0.68000 0.05400
Cd	Cd	0.55960 0.60735 0.57743 1.18500
O 	O 	0.55468 0.47620 0.69860 -0.40700
O 	O 	0.51197 0.59050 0.42600 -0.51600
N 	N 	0.46910 0.72750 0.58240 -0.25600
N 	N 	0.65250 0.50120 0.56360 -0.25700
C 	C 	0.51140 0.39860 0.65580 0.35600
C 	C 	0.49010 0.28690 0.70150 -0.06500
C 	C 	0.47600 0.15370 0.65440 -0.00400
C 	C 	0.54890 0.10540 0.68180 -0.03200
C 	C 	0.42600 0.09570 0.71840 -0.01600
C 	C 	0.41990 0.22730 0.66940 -0.00500
C 	C 	0.44250 0.82050 0.52690 0.07300
H 	H 	0.46740 0.85060 0.48910 -0.02400
C 	C 	0.38160 0.87770 0.51930 -0.12700
H 	H 	0.36520 0.94310 0.47640 0.05600
C 	C 	0.34460 0.84040 0.57340 0.04700
C 	C 	0.37120 0.74170 0.63170 -0.11600
H 	H 	0.34660 0.70840 0.66890 0.05000
C 	C 	0.43270 0.69170 0.63610 0.04800
H 	H 	0.45090 0.62790 0.67950 0.00100
C 	C 	0.27760 0.89810 0.56880 0.05100
C 	C 	0.24430 0.97990 0.50370 -0.13200
H 	H 	0.26360 0.00330 0.45850 0.06000
C 	C 	0.68300 0.52830 0.50380 0.07100
H 	H 	0.66110 0.58520 0.45770 -0.01900
C 	C 	0.68570 0.42380 0.62710 0.06000
H 	H 	0.66570 0.40410 0.67220 -0.01200
C 	C 	0.24690 0.86990 0.63280 -0.12500
H 	H 	0.26790 0.81390 0.68000 0.05500
Cd	Cd	0.94040 0.10735 0.92257 1.18200
O 	O 	0.94532 0.97620 0.80140 -0.40500
O 	O 	0.98803 0.09050 0.07400 -0.50900
N 	N 	0.03090 0.22750 0.91760 -0.25700
N 	N 	0.84750 0.00120 0.93640 -0.25600
C 	C 	0.98860 0.89860 0.84420 0.34700
C 	C 	0.00990 0.78690 0.79850 -0.05800
C 	C 	0.02400 0.65370 0.84560 -0.00200
C 	C 	0.95110 0.60540 0.81820 -0.03400
C 	C 	0.07400 0.59570 0.78160 -0.01600
C 	C 	0.08010 0.72730 0.83060 -0.00600
C 	C 	0.05750 0.32050 0.97310 0.07600
H 	H 	0.03260 0.35060 0.01090 -0.02800
C 	C 	0.11840 0.37770 0.98070 -0.12400
H 	H 	0.13480 0.44310 0.02360 0.05400
C 	C 	0.15540 0.34040 0.92660 0.04600
C 	C 	0.12880 0.24170 0.86830 -0.11600
H 	H 	0.15340 0.20840 0.83110 0.04900
C 	C 	0.06730 0.19170 0.86390 0.04800
H 	H 	0.04910 0.12790 0.82050 0.00100
C 	C 	0.22240 0.39810 0.93120 0.05000
C 	C 	0.25570 0.47990 0.99630 -0.12800
H 	H 	0.23640 0.50330 0.04150 0.05800
C 	C 	0.81700 0.02830 0.99620 0.05200
H 	H 	0.83890 0.08520 0.04230 -0.00900
C 	C 	0.81430 0.92380 0.87290 0.06200
H 	H 	0.83430 0.90410 0.82780 -0.01200
C 	C 	0.25310 0.36990 0.86720 -0.12400
H 	H 	0.23210 0.31390 0.82000 0.05400
Cd	Cd	0.44040 0.60735 0.92257 1.18500
O 	O 	0.44532 0.47620 0.80140 -0.40700
O 	O 	0.48803 0.59050 0.07400 -0.51600
N 	N 	0.53090 0.72750 0.91760 -0.25700
N 	N 	0.34750 0.50120 0.93640 -0.25700
C 	C 	0.48860 0.39860 0.84420 0.35600
C 	C 	0.50990 0.28690 0.79850 -0.06500
C 	C 	0.52400 0.15370 0.84560 -0.00500
C 	C 	0.45110 0.10540 0.81820 -0.03200
C 	C 	0.57400 0.09570 0.78160 -0.01700
C 	C 	0.58010 0.22730 0.83060 -0.00500
C 	C 	0.55750 0.82050 0.97310 0.07600
H 	H 	0.53260 0.85060 0.01090 -0.02700
C 	C 	0.61840 0.87770 0.98070 -0.12500
H 	H 	0.63480 0.94310 0.02360 0.05400
C 	C 	0.65540 0.84040 0.92660 0.04800
C 	C 	0.62880 0.74170 0.86830 -0.11600
H 	H 	0.65340 0.70840 0.83110 0.05000
C 	C 	0.56730 0.69170 0.86390 0.04800
H 	H 	0.54910 0.62790 0.82050 0.00100
C 	C 	0.72240 0.89810 0.93120 0.04800
C 	C 	0.75570 0.97990 0.99630 -0.12100
H 	H 	0.73640 0.00330 0.04150 0.05900
C 	C 	0.31700 0.52830 0.99620 0.07300
H 	H 	0.33890 0.58520 0.04230 -0.02000
C 	C 	0.31430 0.42380 0.87290 0.06000
H 	H 	0.33430 0.40410 0.82780 -0.01100
C 	C 	0.75310 0.86990 0.86720 -0.12300
H 	H 	0.73210 0.81390 0.82000 0.05400
Cd	Cd	0.94040 0.89265 0.42257 1.18500
O 	O 	0.94532 0.02380 0.30140 -0.40700
O 	O 	0.98803 0.90950 0.57400 -0.51800
N 	N 	0.03090 0.77250 0.41760 -0.25700
N 	N 	0.84750 0.99880 0.43640 -0.25700
C 	C 	0.98860 0.10140 0.34420 0.36000
C 	C 	0.00990 0.21310 0.29850 -0.07100
C 	C 	0.02400 0.34630 0.34560 -0.00500
C 	C 	0.95110 0.39460 0.31820 -0.03000
C 	C 	0.07400 0.40430 0.28160 -0.01700
C 	C 	0.08010 0.27270 0.33060 -0.00400
C 	C 	0.05750 0.67950 0.47310 0.07200
H 	H 	0.03260 0.64940 0.51090 -0.02400
C 	C 	0.11840 0.62230 0.48070 -0.12700
H 	H 	0.13480 0.55690 0.52360 0.05700
C 	C 	0.15540 0.65960 0.42660 0.04700
C 	C 	0.12880 0.75830 0.36830 -0.11600
H 	H 	0.15340 0.79160 0.33110 0.04900
C 	C 	0.06730 0.80830 0.36390 0.04800
H 	H 	0.04910 0.87210 0.32050 -0.00000
C 	C 	0.22240 0.60190 0.43120 0.05100
C 	C 	0.25570 0.52010 0.49630 -0.13100
H 	H 	0.23640 0.49670 0.54150 0.06000
C 	C 	0.81700 0.97170 0.49620 0.07100
H 	H 	0.83890 0.91480 0.54230 -0.01900
C 	C 	0.81430 0.07620 0.37290 0.06200
H 	H 	0.83430 0.09590 0.32780 -0.01100
C 	C 	0.25310 0.63010 0.36720 -0.12400
H 	H 	0.23210 0.68610 0.32000 0.05400
Cd	Cd	0.44040 0.39265 0.42257 1.18500
O 	O 	0.44532 0.52380 0.30140 -0.40700
O 	O 	0.48803 0.40950 0.57400 -0.51600
N 	N 	0.53090 0.27250 0.41760 -0.25600
N 	N 	0.34750 0.49880 0.43640 -0.25700
C 	C 	0.48860 0.60140 0.34420 0.35600
C 	C 	0.50990 0.71310 0.29850 -0.06500
C 	C 	0.52400 0.84630 0.34560 -0.00400
C 	C 	0.45110 0.89460 0.31820 -0.03200
C 	C 	0.57400 0.90430 0.28160 -0.01600
C 	C 	0.58010 0.77270 0.33060 -0.00500
C 	C 	0.55750 0.17950 0.47310 0.07300
H 	H 	0.53260 0.14940 0.51090 -0.02400
C 	C 	0.61840 0.12230 0.48070 -0.12700
H 	H 	0.63480 0.05690 0.52360 0.05600
C 	C 	0.65540 0.15960 0.42660 0.04700
C 	C 	0.62880 0.25830 0.36830 -0.11600
H 	H 	0.65340 0.29160 0.33110 0.05000
C 	C 	0.56730 0.30830 0.36390 0.04800
H 	H 	0.54910 0.37210 0.32050 0.00100
C 	C 	0.72240 0.10190 0.43120 0.05100
C 	C 	0.75570 0.02010 0.49630 -0.13200
H 	H 	0.73640 0.99670 0.54150 0.06000
C 	C 	0.31700 0.47170 0.49620 0.07100
H 	H 	0.33890 0.41480 0.54230 -0.01900
C 	C 	0.31430 0.57620 0.37290 0.06000
H 	H 	0.33430 0.59590 0.32780 -0.01200
C 	C 	0.75310 0.13010 0.36720 -0.12500
H 	H 	0.73210 0.18610 0.32000 0.05500
Cd	Cd	0.05960 0.89265 0.07743 1.18200
O 	O 	0.05468 0.02380 0.19860 -0.40500
O 	O 	0.01197 0.90950 0.92600 -0.50900
N 	N 	0.96910 0.77250 0.08240 -0.25700
N 	N 	0.15250 0.99880 0.06360 -0.25600
C 	C 	0.01140 0.10140 0.15580 0.34700
C 	C 	0.99010 0.21310 0.20150 -0.05800
C 	C 	0.97600 0.34630 0.15440 -0.00200
C 	C 	0.04890 0.39460 0.18180 -0.03400
C 	C 	0.92600 0.40430 0.21840 -0.01600
C 	C 	0.91990 0.27270 0.16940 -0.00600
C 	C 	0.94250 0.67950 0.02690 0.07600
H 	H 	0.96740 0.64940 0.98910 -0.02800
C 	C 	0.88160 0.62230 0.01930 -0.12400
H 	H 	0.86520 0.55690 0.97640 0.05400
C 	C 	0.84460 0.65960 0.07340 0.04600
C 	C 	0.87120 0.75830 0.13170 -0.11600
H 	H 	0.84660 0.79160 0.16890 0.04900
C 	C 	0.93270 0.80830 0.13610 0.04800
H 	H 	0.95090 0.87210 0.17950 0.00100
C 	C 	0.77760 0.60190 0.06880 0.05000
C 	C 	0.74430 0.52010 0.00370 -0.12800
H 	H 	0.76360 0.49670 0.95850 0.05800
C 	C 	0.18300 0.97170 0.00380 0.05200
H 	H 	0.16110 0.91480 0.95770 -0.00900
C 	C 	0.18570 0.07620 0.12710 0.06200
H 	H 	0.16570 0.09590 0.17220 -0.01200
C 	C 	0.74690 0.63010 0.13280 -0.12400
H 	H 	0.76790 0.68610 0.18000 0.05400
Cd	Cd	0.55960 0.39265 0.07743 1.18500
O 	O 	0.55468 0.52380 0.19860 -0.40700
O 	O 	0.51197 0.40950 0.92600 -0.51600
N 	N 	0.46910 0.27250 0.08240 -0.25700
N 	N 	0.65250 0.49880 0.06360 -0.25700
C 	C 	0.51140 0.60140 0.15580 0.35600
C 	C 	0.49010 0.71310 0.20150 -0.06500
C 	C 	0.47600 0.84630 0.15440 -0.00500
C 	C 	0.54890 0.89460 0.18180 -0.03200
C 	C 	0.42600 0.90430 0.21840 -0.01700
C 	C 	0.41990 0.77270 0.16940 -0.00500
C 	C 	0.44250 0.17950 0.02690 0.07600
H 	H 	0.46740 0.14940 0.98910 -0.02700
C 	C 	0.38160 0.12230 0.01930 -0.12500
H 	H 	0.36520 0.05690 0.97640 0.05400
C 	C 	0.34460 0.15960 0.07340 0.04800
C 	C 	0.37120 0.25830 0.13170 -0.11600
H 	H 	0.34660 0.29160 0.16890 0.05000
C 	C 	0.43270 0.30830 0.13610 0.04800
H 	H 	0.45090 0.37210 0.17950 0.00100
C 	C 	0.27760 0.10190 0.06880 0.04800
C 	C 	0.24430 0.02010 0.00370 -0.12100
H 	H 	0.26360 0.99670 0.95850 0.05900
C 	C 	0.68300 0.47170 0.00380 0.07300
H 	H 	0.66110 0.41480 0.95770 -0.02000
C 	C 	0.68570 0.57620 0.12710 0.06000
H 	H 	0.66570 0.59590 0.17220 -0.01100
C 	C 	0.24690 0.13010 0.13280 -0.12300
H 	H 	0.26790 0.18610 0.18000 0.05400
