data_crystal

_cell_length_a 32.14460
_cell_length_b 32.14460
_cell_length_c 10.98080
_cell_angle_alpha 90.00000
_cell_angle_beta  90.00000
_cell_angle_gamma 90.00000

_symmetry_space_group_name_	'P 1'
_symmetry_space_group_name_H-M	'P 1'

loop_
_symmetry_equiv_pos_as_xyz
  x,y,z

loop_
_atom_site_label
_atom_site_type_symbol
_atom_site_fract_x
_atom_site_fract_y
_atom_site_fract_z
_atom_site_charge
Zn	Zn	0.28384 0.71609 0.60755 1.17800
N 	N 	0.27538 0.85586 0.88010 -0.24700
O 	O 	0.41850 0.79995 0.08810 -0.42400
N 	N 	0.25632 0.81067 0.72140 -0.30900
N 	N 	0.34388 0.84370 0.01760 -0.31000
H 	H 	0.32750 0.86470 0.02320 0.04800
H 	H 	0.36500 0.84170 0.06510 0.13600
O 	O 	0.65682 0.15720 0.67910 -0.34300
C 	C 	0.24520 0.84790 0.78260 0.00700
H 	H 	0.22250 0.86460 0.76390 -0.03200
O 	O 	0.68120 0.18160 0.50450 -0.49700
C 	C 	0.65880 0.15560 0.56750 0.33400
C 	C 	0.33529 0.80943 0.92210 0.13000
C 	C 	0.29962 0.82003 0.85760 -0.01400
C 	C 	0.28648 0.79541 0.76090 0.13300
N 	N 	0.30901 0.76018 0.72870 -0.28400
C 	C 	0.34468 0.74957 0.79320 0.06300
H 	H 	0.35980 0.72600 0.77160 -0.00700
N 	N 	0.35782 0.77420 0.88980 -0.25400
C 	C 	0.59960 0.11110 0.54010 0.03000
H 	H 	0.58880 0.12410 0.60890 0.02500
C 	C 	0.57590 0.08200 0.47730 -0.11700
H 	H 	0.54920 0.07550 0.50410 0.05000
C 	C 	0.59200 0.06270 0.37440 0.05400
C 	C 	0.63180 0.07240 0.33430 -0.12400
H 	H 	0.64260 0.05950 0.26540 0.03600
C 	C 	0.65550 0.10150 0.39700 0.03700
H 	H 	0.68220 0.10810 0.37020 0.00100
C 	C 	0.63940 0.12090 0.50000 -0.12200
O 	O 	0.45870 0.79590 0.92860 -0.24100
C 	C 	0.45000 0.81420 0.02900 0.17500
C 	C 	0.47410 0.84720 0.08200 -0.00700
C 	C 	0.46410 0.86330 0.19570 -0.04000
H 	H 	0.44300 0.85130 0.24160 0.05300
C 	C 	0.48560 0.89750 0.24100 -0.11500
H 	H 	0.47890 0.90830 0.31700 0.04800
C 	C 	0.51720 0.91550 0.17240 0.04500
C 	C 	0.52720 0.89940 0.05870 -0.02900
H 	H 	0.54830 0.91150 0.01280 0.00900
C 	C 	0.50570 0.86530 0.01350 -0.20900
H 	H 	0.51240 0.85450 0.93740 0.15500
C 	C 	0.56840 0.02920 0.31420 -0.00200
C 	C 	0.54130 0.95100 0.21400 -0.17500
C 	C 	0.54960 0.96180 0.33400 0.44300
C 	C 	0.56250 0.02880 0.18700 0.07800
C 	C 	0.56070 0.99760 0.40000 -0.30200
H 	H 	0.56260 0.00000 0.48440 0.12100
C 	C 	0.54280 0.99090 0.15700 -0.09100
H 	H 	0.52780 0.99220 0.08440 0.03600
C 	C 	0.57360 0.06380 0.09900 -0.50200
H 	H 	0.60340 0.06420 0.09250 0.14000
H 	H 	0.56180 0.05660 0.02140 0.14400
H 	H 	0.56380 0.09080 0.12290 0.16300
C 	C 	0.55310 0.92620 0.40200 -1.10600
H 	H 	0.53630 0.93180 0.47260 0.34000
H 	H 	0.58120 0.92090 0.42720 0.34300
H 	H 	0.54240 0.90230 0.36030 0.35700
Zn	Zn	0.21616 0.78391 0.60755 1.17900
N 	N 	0.22462 0.64414 0.88010 -0.24600
O 	O 	0.08150 0.70005 0.08810 -0.42300
N 	N 	0.24368 0.68933 0.72140 -0.30800
N 	N 	0.15612 0.65630 0.01760 -0.30900
H 	H 	0.17250 0.63530 0.02320 0.04900
H 	H 	0.13500 0.65830 0.06510 0.13700
O 	O 	0.84318 0.34280 0.67910 -0.34200
C 	C 	0.25480 0.65210 0.78260 0.00800
H 	H 	0.27750 0.63540 0.76390 -0.03100
O 	O 	0.81880 0.31840 0.50450 -0.49700
C 	C 	0.84120 0.34440 0.56750 0.33300
C 	C 	0.16471 0.69057 0.92210 0.13000
C 	C 	0.20038 0.67997 0.85760 -0.01400
C 	C 	0.21352 0.70459 0.76090 0.13300
N 	N 	0.19099 0.73982 0.72870 -0.28400
C 	C 	0.15532 0.75043 0.79320 0.06300
H 	H 	0.14020 0.77400 0.77160 -0.00700
N 	N 	0.14218 0.72580 0.88980 -0.25400
C 	C 	0.90040 0.38890 0.54010 0.02800
H 	H 	0.91120 0.37590 0.60890 0.02600
C 	C 	0.92410 0.41800 0.47730 -0.11400
H 	H 	0.95080 0.42450 0.50410 0.05000
C 	C 	0.90800 0.43730 0.37440 0.05100
C 	C 	0.86820 0.42760 0.33430 -0.12200
H 	H 	0.85740 0.44050 0.26540 0.03500
C 	C 	0.84450 0.39850 0.39700 0.03600
H 	H 	0.81780 0.39190 0.37020 0.00200
C 	C 	0.86060 0.37910 0.50000 -0.12000
O 	O 	0.04130 0.70410 0.92860 -0.24100
C 	C 	0.05000 0.68580 0.02900 0.17500
C 	C 	0.02590 0.65280 0.08200 -0.00800
C 	C 	0.03590 0.63670 0.19570 -0.03900
H 	H 	0.05700 0.64870 0.24160 0.05300
C 	C 	0.01440 0.60250 0.24100 -0.11700
H 	H 	0.02110 0.59170 0.31700 0.04800
C 	C 	0.98280 0.58450 0.17240 0.04600
C 	C 	0.97280 0.60060 0.05870 -0.03000
H 	H 	0.95170 0.58850 0.01280 0.00900
C 	C 	0.99430 0.63470 0.01350 -0.20800
H 	H 	0.98760 0.64550 0.93740 0.15400
C 	C 	0.93160 0.47080 0.31420 0.00600
C 	C 	0.95870 0.54900 0.21400 -0.17700
C 	C 	0.95040 0.53820 0.33400 0.45000
C 	C 	0.93750 0.47120 0.18700 0.07800
C 	C 	0.93930 0.50240 0.40000 -0.31700
H 	H 	0.93740 0.50000 0.48440 0.12800
C 	C 	0.95720 0.50910 0.15700 -0.09400
H 	H 	0.97220 0.50780 0.08440 0.03600
C 	C 	0.92640 0.43620 0.09900 -0.50300
H 	H 	0.89660 0.43580 0.09250 0.14000
H 	H 	0.93820 0.44340 0.02140 0.14400
H 	H 	0.93620 0.40920 0.12290 0.16300
C 	C 	0.94690 0.57380 0.40200 -1.11500
H 	H 	0.96370 0.56820 0.47260 0.34100
H 	H 	0.91880 0.57910 0.42720 0.34500
H 	H 	0.95760 0.59770 0.36030 0.36000
Zn	Zn	0.21616 0.71609 0.39245 1.17800
N 	N 	0.22462 0.85586 0.11990 -0.28600
O 	O 	0.08150 0.79995 0.91190 -0.45300
N 	N 	0.24368 0.81067 0.27860 -0.30700
N 	N 	0.15612 0.84370 0.98240 -0.24900
H 	H 	0.17250 0.86470 0.97680 0.08900
H 	H 	0.13500 0.84170 0.93490 0.15500
O 	O 	0.84318 0.15720 0.32090 -0.35500
C 	C 	0.25480 0.84790 0.21740 -0.00600
H 	H 	0.27750 0.86460 0.23610 -0.03900
O 	O 	0.81880 0.18160 0.49550 -0.49900
C 	C 	0.84120 0.15560 0.43250 0.34000
C 	C 	0.16471 0.80943 0.07790 0.01800
C 	C 	0.20038 0.82003 0.14240 -0.01000
C 	C 	0.21352 0.79541 0.23910 0.11900
N 	N 	0.19099 0.76018 0.27130 -0.28400
C 	C 	0.15532 0.74957 0.20680 0.04600
H 	H 	0.14020 0.72600 0.22840 -0.01300
N 	N 	0.14218 0.77420 0.11020 -0.26900
C 	C 	0.90040 0.11110 0.45990 0.04500
H 	H 	0.91120 0.12410 0.39110 0.01400
C 	C 	0.92410 0.08200 0.52270 -0.13500
H 	H 	0.95080 0.07550 0.49590 0.06000
C 	C 	0.90800 0.06270 0.62560 0.07300
C 	C 	0.86820 0.07240 0.66570 -0.14100
H 	H 	0.85740 0.05950 0.73460 0.05200
C 	C 	0.84450 0.10150 0.60300 0.05400
H 	H 	0.81780 0.10810 0.62980 -0.00100
C 	C 	0.86060 0.12090 0.50000 -0.13700
O 	O 	0.04130 0.79590 0.07140 -0.41700
C 	C 	0.05000 0.81420 0.97100 0.47800
C 	C 	0.02590 0.84720 0.91800 -0.32500
C 	C 	0.03590 0.86330 0.80430 0.23200
H 	H 	0.05700 0.85130 0.75840 -0.03700
C 	C 	0.01440 0.89750 0.75900 -0.33200
H 	H 	0.02110 0.90830 0.68300 0.12700
C 	C 	0.98280 0.91550 0.82760 0.26600
C 	C 	0.97280 0.89940 0.94130 -0.37100
H 	H 	0.95170 0.91150 0.98720 0.17300
C 	C 	0.99430 0.86530 0.98650 0.38000
H 	H 	0.98760 0.85450 0.06260 -0.14800
C 	C 	0.93160 0.02920 0.68580 -0.01900
C 	C 	0.95870 0.95100 0.78600 -0.23700
C 	C 	0.95040 0.96180 0.66600 0.48300
C 	C 	0.93750 0.02880 0.81300 0.13800
C 	C 	0.93930 0.99760 0.60000 -0.30800
H 	H 	0.93740 0.00000 0.51560 0.11700
C 	C 	0.95720 0.99090 0.84300 -0.08500
H 	H 	0.97220 0.99220 0.91560 0.07100
C 	C 	0.92640 0.06380 0.90100 -0.66300
H 	H 	0.89660 0.06420 0.90750 0.21700
H 	H 	0.93820 0.05660 0.97860 0.24200
H 	H 	0.93620 0.09080 0.87710 0.24400
C 	C 	0.94690 0.92620 0.59800 -1.15100
H 	H 	0.96370 0.93180 0.52740 0.34600
H 	H 	0.91880 0.92090 0.57280 0.35500
H 	H 	0.95760 0.90230 0.63970 0.37000
Zn	Zn	0.28384 0.78391 0.39245 1.17800
N 	N 	0.27538 0.64414 0.11990 -0.28600
O 	O 	0.41850 0.70005 0.91190 -0.45400
N 	N 	0.25632 0.68933 0.27860 -0.30700
N 	N 	0.34388 0.65630 0.98240 -0.24900
H 	H 	0.32750 0.63530 0.97680 0.08900
H 	H 	0.36500 0.65830 0.93490 0.15500
O 	O 	0.65682 0.34280 0.32090 -0.35400
C 	C 	0.24520 0.65210 0.21740 -0.00600
H 	H 	0.22250 0.63540 0.23610 -0.03900
O 	O 	0.68120 0.31840 0.49550 -0.49900
C 	C 	0.65880 0.34440 0.43250 0.34000
C 	C 	0.33529 0.69057 0.07790 0.01800
C 	C 	0.29962 0.67997 0.14240 -0.01000
C 	C 	0.28648 0.70459 0.23910 0.11900
N 	N 	0.30901 0.73982 0.27130 -0.28400
C 	C 	0.34468 0.75043 0.20680 0.04600
H 	H 	0.35980 0.77400 0.22840 -0.01300
N 	N 	0.35782 0.72580 0.11020 -0.26900
C 	C 	0.59960 0.38890 0.45990 0.04300
H 	H 	0.58880 0.37590 0.39110 0.01500
C 	C 	0.57590 0.41800 0.52270 -0.13300
H 	H 	0.54920 0.42450 0.49590 0.06000
C 	C 	0.59200 0.43730 0.62560 0.07000
C 	C 	0.63180 0.42760 0.66570 -0.13900
H 	H 	0.64260 0.44050 0.73460 0.05200
C 	C 	0.65550 0.39850 0.60300 0.05300
H 	H 	0.68220 0.39190 0.62980 0.00000
C 	C 	0.63940 0.37910 0.50000 -0.13600
O 	O 	0.45870 0.70410 0.07140 -0.41800
C 	C 	0.45000 0.68580 0.97100 0.47900
C 	C 	0.47410 0.65280 0.91800 -0.32600
C 	C 	0.46410 0.63670 0.80430 0.23300
H 	H 	0.44300 0.64870 0.75840 -0.03700
C 	C 	0.48560 0.60250 0.75900 -0.33400
H 	H 	0.47890 0.59170 0.68300 0.12700
C 	C 	0.51720 0.58450 0.82760 0.26800
C 	C 	0.52720 0.60060 0.94130 -0.37300
H 	H 	0.54830 0.58850 0.98720 0.17400
C 	C 	0.50570 0.63470 0.98650 0.38200
H 	H 	0.51240 0.64550 0.06260 -0.14900
C 	C 	0.56840 0.47080 0.68580 -0.01200
C 	C 	0.54130 0.54900 0.78600 -0.24000
C 	C 	0.54960 0.53820 0.66600 0.49000
C 	C 	0.56250 0.47120 0.81300 0.13900
C 	C 	0.56070 0.50240 0.60000 -0.32200
H 	H 	0.56260 0.50000 0.51560 0.12400
C 	C 	0.54280 0.50910 0.84300 -0.08800
H 	H 	0.52780 0.50780 0.91560 0.07000
C 	C 	0.57360 0.43620 0.90100 -0.66300
H 	H 	0.60340 0.43580 0.90750 0.21700
H 	H 	0.56180 0.44340 0.97860 0.24300
H 	H 	0.56380 0.40920 0.87710 0.24400
C 	C 	0.55310 0.57380 0.59800 -1.15900
H 	H 	0.53630 0.56820 0.52740 0.34800
H 	H 	0.58120 0.57910 0.57280 0.35700
H 	H 	0.54240 0.59770 0.63970 0.37200
Zn	Zn	0.71616 0.28391 0.39245 1.17800
N 	N 	0.72462 0.14414 0.11990 -0.28600
O 	O 	0.58150 0.20005 0.91190 -0.45400
N 	N 	0.74368 0.18933 0.27860 -0.30700
N 	N 	0.65612 0.15630 0.98240 -0.24900
H 	H 	0.67250 0.13530 0.97680 0.08900
H 	H 	0.63500 0.15830 0.93490 0.15500
O 	O 	0.34318 0.84280 0.32090 -0.35400
C 	C 	0.75480 0.15210 0.21740 -0.00600
H 	H 	0.77750 0.13540 0.23610 -0.03900
O 	O 	0.31880 0.81840 0.49550 -0.49900
C 	C 	0.34120 0.84440 0.43250 0.34000
C 	C 	0.66471 0.19057 0.07790 0.01800
C 	C 	0.70038 0.17997 0.14240 -0.01000
C 	C 	0.71352 0.20459 0.23910 0.11900
N 	N 	0.69099 0.23982 0.27130 -0.28400
C 	C 	0.65532 0.25043 0.20680 0.04600
H 	H 	0.64020 0.27400 0.22840 -0.01300
N 	N 	0.64218 0.22580 0.11020 -0.26900
C 	C 	0.40040 0.88890 0.45990 0.04300
H 	H 	0.41120 0.87590 0.39110 0.01500
C 	C 	0.42410 0.91800 0.52270 -0.13200
H 	H 	0.45080 0.92450 0.49590 0.06000
C 	C 	0.40800 0.93730 0.62560 0.07000
C 	C 	0.36820 0.92760 0.66570 -0.13800
H 	H 	0.35740 0.94050 0.73460 0.05200
C 	C 	0.34450 0.89850 0.60300 0.05200
H 	H 	0.31780 0.89190 0.62980 0.00000
C 	C 	0.36060 0.87910 0.50000 -0.13500
O 	O 	0.54130 0.20410 0.07140 -0.41800
C 	C 	0.55000 0.18580 0.97100 0.47900
C 	C 	0.52590 0.15280 0.91800 -0.32500
C 	C 	0.53590 0.13670 0.80430 0.23200
H 	H 	0.55700 0.14870 0.75840 -0.03700
C 	C 	0.51440 0.10250 0.75900 -0.33300
H 	H 	0.52110 0.09170 0.68300 0.12700
C 	C 	0.48280 0.08450 0.82760 0.26600
C 	C 	0.47280 0.10060 0.94130 -0.37200
H 	H 	0.45170 0.08850 0.98720 0.17300
C 	C 	0.49430 0.13470 0.98650 0.38100
H 	H 	0.48760 0.14550 0.06260 -0.14900
C 	C 	0.43160 0.97080 0.68580 -0.00900
C 	C 	0.45870 0.04900 0.78600 -0.23900
C 	C 	0.45040 0.03820 0.66600 0.48900
C 	C 	0.43750 0.97120 0.81300 0.14300
C 	C 	0.43930 0.00240 0.60000 -0.32600
H 	H 	0.43740 0.00000 0.51560 0.12400
C 	C 	0.45720 0.00910 0.84300 -0.09300
H 	H 	0.47220 0.00780 0.91560 0.07100
C 	C 	0.42640 0.93620 0.90100 -0.66700
H 	H 	0.39660 0.93580 0.90750 0.21900
H 	H 	0.43820 0.94340 0.97860 0.24400
H 	H 	0.43620 0.90920 0.87710 0.24500
C 	C 	0.44690 0.07380 0.59800 -1.15800
H 	H 	0.46370 0.06820 0.52740 0.34700
H 	H 	0.41880 0.07910 0.57280 0.35600
H 	H 	0.45760 0.09770 0.63970 0.37200
Zn	Zn	0.78384 0.21609 0.39245 1.17800
N 	N 	0.77538 0.35586 0.11990 -0.28600
O 	O 	0.91850 0.29995 0.91190 -0.45400
N 	N 	0.75632 0.31067 0.27860 -0.30700
N 	N 	0.84388 0.34370 0.98240 -0.24900
H 	H 	0.82750 0.36470 0.97680 0.08900
H 	H 	0.86500 0.34170 0.93490 0.15500
O 	O 	0.15682 0.65720 0.32090 -0.35400
C 	C 	0.74520 0.34790 0.21740 -0.00600
H 	H 	0.72250 0.36460 0.23610 -0.03900
O 	O 	0.18120 0.68160 0.49550 -0.49900
C 	C 	0.15880 0.65560 0.43250 0.34000
C 	C 	0.83529 0.30943 0.07790 0.01800
C 	C 	0.79962 0.32003 0.14240 -0.01000
C 	C 	0.78648 0.29541 0.23910 0.11900
N 	N 	0.80901 0.26018 0.27130 -0.28400
C 	C 	0.84468 0.24957 0.20680 0.04600
H 	H 	0.85980 0.22600 0.22840 -0.01300
N 	N 	0.85782 0.27420 0.11020 -0.26900
C 	C 	0.09960 0.61110 0.45990 0.04300
H 	H 	0.08880 0.62410 0.39110 0.01500
C 	C 	0.07590 0.58200 0.52270 -0.13300
H 	H 	0.04920 0.57550 0.49590 0.06000
C 	C 	0.09200 0.56270 0.62560 0.07000
C 	C 	0.13180 0.57240 0.66570 -0.13900
H 	H 	0.14260 0.55950 0.73460 0.05200
C 	C 	0.15550 0.60150 0.60300 0.05300
H 	H 	0.18220 0.60810 0.62980 0.00000
C 	C 	0.13940 0.62090 0.50000 -0.13600
O 	O 	0.95870 0.29590 0.07140 -0.41700
C 	C 	0.95000 0.31420 0.97100 0.47900
C 	C 	0.97410 0.34720 0.91800 -0.32500
C 	C 	0.96410 0.36330 0.80430 0.23300
H 	H 	0.94300 0.35130 0.75840 -0.03700
C 	C 	0.98560 0.39750 0.75900 -0.33300
H 	H 	0.97890 0.40830 0.68300 0.12700
C 	C 	0.01720 0.41550 0.82760 0.26700
C 	C 	0.02720 0.39940 0.94130 -0.37200
H 	H 	0.04830 0.41150 0.98720 0.17300
C 	C 	0.00570 0.36530 0.98650 0.38100
H 	H 	0.01240 0.35450 0.06260 -0.14900
C 	C 	0.06840 0.52920 0.68580 -0.01200
C 	C 	0.04130 0.45100 0.78600 -0.24000
C 	C 	0.04960 0.46180 0.66600 0.48900
C 	C 	0.06250 0.52880 0.81300 0.13900
C 	C 	0.06070 0.49760 0.60000 -0.32200
H 	H 	0.06260 0.50000 0.51560 0.12400
C 	C 	0.04280 0.49090 0.84300 -0.08800
H 	H 	0.02780 0.49220 0.91560 0.07000
C 	C 	0.07360 0.56380 0.90100 -0.66300
H 	H 	0.10340 0.56420 0.90750 0.21700
H 	H 	0.06180 0.55660 0.97860 0.24300
H 	H 	0.06380 0.59080 0.87710 0.24400
C 	C 	0.05310 0.42620 0.59800 -1.15900
H 	H 	0.03630 0.43180 0.52740 0.34700
H 	H 	0.08120 0.42090 0.57280 0.35700
H 	H 	0.04240 0.40230 0.63970 0.37200
Zn	Zn	0.78384 0.28391 0.60755 1.17900
N 	N 	0.77538 0.14414 0.88010 -0.24600
O 	O 	0.91850 0.20005 0.08810 -0.42300
N 	N 	0.75632 0.18933 0.72140 -0.30800
N 	N 	0.84388 0.15630 0.01760 -0.30900
H 	H 	0.82750 0.13530 0.02320 0.04900
H 	H 	0.86500 0.15830 0.06510 0.13700
O 	O 	0.15682 0.84280 0.67910 -0.34100
C 	C 	0.74520 0.15210 0.78260 0.00800
H 	H 	0.72250 0.13540 0.76390 -0.03100
O 	O 	0.18120 0.81840 0.50450 -0.49700
C 	C 	0.15880 0.84440 0.56750 0.33300
C 	C 	0.83529 0.19057 0.92210 0.13000
C 	C 	0.79962 0.17997 0.85760 -0.01400
C 	C 	0.78648 0.20459 0.76090 0.13300
N 	N 	0.80901 0.23982 0.72870 -0.28400
C 	C 	0.84468 0.25043 0.79320 0.06300
H 	H 	0.85980 0.27400 0.77160 -0.00700
N 	N 	0.85782 0.22580 0.88980 -0.25400
C 	C 	0.09960 0.88890 0.54010 0.02800
H 	H 	0.08880 0.87590 0.60890 0.02600
C 	C 	0.07590 0.91800 0.47730 -0.11400
H 	H 	0.04920 0.92450 0.50410 0.05000
C 	C 	0.09200 0.93730 0.37440 0.05000
C 	C 	0.13180 0.92760 0.33430 -0.12100
H 	H 	0.14260 0.94050 0.26540 0.03500
C 	C 	0.15550 0.89850 0.39700 0.03600
H 	H 	0.18220 0.89190 0.37020 0.00200
C 	C 	0.13940 0.87910 0.50000 -0.12000
O 	O 	0.95870 0.20410 0.92860 -0.24100
C 	C 	0.95000 0.18580 0.02900 0.17500
C 	C 	0.97410 0.15280 0.08200 -0.00700
C 	C 	0.96410 0.13670 0.19570 -0.04000
H 	H 	0.94300 0.14870 0.24160 0.05300
C 	C 	0.98560 0.10250 0.24100 -0.11600
H 	H 	0.97890 0.09170 0.31700 0.04800
C 	C 	0.01720 0.08450 0.17240 0.04500
C 	C 	0.02720 0.10060 0.05870 -0.02900
H 	H 	0.04830 0.08850 0.01280 0.00900
C 	C 	0.00570 0.13470 0.01350 -0.20900
H 	H 	0.01240 0.14550 0.93740 0.15400
C 	C 	0.06840 0.97080 0.31420 0.00800
C 	C 	0.04130 0.04900 0.21400 -0.17600
C 	C 	0.04960 0.03820 0.33400 0.44900
C 	C 	0.06250 0.97120 0.18700 0.08200
C 	C 	0.06070 0.00240 0.40000 -0.32100
H 	H 	0.06260 0.00000 0.48440 0.12800
C 	C 	0.04280 0.00910 0.15700 -0.09900
H 	H 	0.02780 0.00780 0.08440 0.03600
C 	C 	0.07360 0.93620 0.09900 -0.50700
H 	H 	0.10340 0.93580 0.09250 0.14200
H 	H 	0.06180 0.94340 0.02140 0.14600
H 	H 	0.06380 0.90920 0.12290 0.16500
C 	C 	0.05310 0.07380 0.40200 -1.11400
H 	H 	0.03630 0.06820 0.47260 0.34100
H 	H 	0.08120 0.07910 0.42720 0.34400
H 	H 	0.04240 0.09770 0.36030 0.35900
Zn	Zn	0.71616 0.21609 0.60755 1.17900
N 	N 	0.72462 0.35586 0.88010 -0.24600
O 	O 	0.58150 0.29995 0.08810 -0.42300
N 	N 	0.74368 0.31067 0.72140 -0.30800
N 	N 	0.65612 0.34370 0.01760 -0.30900
H 	H 	0.67250 0.36470 0.02320 0.04900
H 	H 	0.63500 0.34170 0.06510 0.13700
O 	O 	0.34318 0.65720 0.67910 -0.34200
C 	C 	0.75480 0.34790 0.78260 0.00800
H 	H 	0.77750 0.36460 0.76390 -0.03100
O 	O 	0.31880 0.68160 0.50450 -0.49700
C 	C 	0.34120 0.65560 0.56750 0.33300
C 	C 	0.66471 0.30943 0.92210 0.13000
C 	C 	0.70038 0.32003 0.85760 -0.01400
C 	C 	0.71352 0.29541 0.76090 0.13300
N 	N 	0.69099 0.26018 0.72870 -0.28400
C 	C 	0.65532 0.24957 0.79320 0.06300
H 	H 	0.64020 0.22600 0.77160 -0.00700
N 	N 	0.64218 0.27420 0.88980 -0.25400
C 	C 	0.40040 0.61110 0.54010 0.02800
H 	H 	0.41120 0.62410 0.60890 0.02600
C 	C 	0.42410 0.58200 0.47730 -0.11400
H 	H 	0.45080 0.57550 0.50410 0.05000
C 	C 	0.40800 0.56270 0.37440 0.05100
C 	C 	0.36820 0.57240 0.33430 -0.12200
H 	H 	0.35740 0.55950 0.26540 0.03500
C 	C 	0.34450 0.60150 0.39700 0.03600
H 	H 	0.31780 0.60810 0.37020 0.00200
C 	C 	0.36060 0.62090 0.50000 -0.12000
O 	O 	0.54130 0.29590 0.92860 -0.24100
C 	C 	0.55000 0.31420 0.02900 0.17500
C 	C 	0.52590 0.34720 0.08200 -0.00700
C 	C 	0.53590 0.36330 0.19570 -0.03900
H 	H 	0.55700 0.35130 0.24160 0.05300
C 	C 	0.51440 0.39750 0.24100 -0.11600
H 	H 	0.52110 0.40830 0.31700 0.04800
C 	C 	0.48280 0.41550 0.17240 0.04600
C 	C 	0.47280 0.39940 0.05870 -0.02900
H 	H 	0.45170 0.41150 0.01280 0.00900
C 	C 	0.49430 0.36530 0.01350 -0.20900
H 	H 	0.48760 0.35450 0.93740 0.15400
C 	C 	0.43160 0.52920 0.31420 0.00600
C 	C 	0.45870 0.45100 0.21400 -0.17700
C 	C 	0.45040 0.46180 0.33400 0.44900
C 	C 	0.43750 0.52880 0.18700 0.07800
C 	C 	0.43930 0.49760 0.40000 -0.31700
H 	H 	0.43740 0.50000 0.48440 0.12800
C 	C 	0.45720 0.49090 0.15700 -0.09400
H 	H 	0.47220 0.49220 0.08440 0.03600
C 	C 	0.42640 0.56380 0.09900 -0.50300
H 	H 	0.39660 0.56420 0.09250 0.14000
H 	H 	0.43820 0.55660 0.02140 0.14400
H 	H 	0.43620 0.59080 0.12290 0.16300
C 	C 	0.44690 0.42620 0.40200 -1.11500
H 	H 	0.46370 0.43180 0.47260 0.34100
H 	H 	0.41880 0.42090 0.42720 0.34500
H 	H 	0.45760 0.40230 0.36030 0.35900
Zn	Zn	0.25000 0.89931 -0.00000 1.07200
Zn	Zn	0.25000 0.60069 -0.00000 1.07200
Zn	Zn	0.75000 0.10069 -0.00000 1.07200
Zn	Zn	0.75000 0.39931 -0.00000 1.07200
Zn	Zn	0.39930 0.75000 -0.00000 1.19600
Zn	Zn	0.10070 0.75000 -0.00000 1.19600
Zn	Zn	0.60070 0.25000 -0.00000 1.19600
Zn	Zn	0.89930 0.25000 -0.00000 1.19600
O 	O 	0.25000 0.75000 0.50000 -0.97400
O 	O 	0.75000 0.25000 0.50000 -0.97400
