data_crystal

_cell_length_a 21.47450
_cell_length_b 7.42950
_cell_length_c 26.17300
_cell_angle_alpha 90.00000
_cell_angle_beta  127.36600
_cell_angle_gamma 90.00000

_symmetry_space_group_name_	'P 1'
_symmetry_space_group_name_H-M	'P 1'

loop_
_symmetry_equiv_pos_as_xyz
  x,y,z

loop_
_atom_site_label
_atom_site_type_symbol
_atom_site_fract_x
_atom_site_fract_y
_atom_site_fract_z
_atom_site_charge
Ba	Ba	0.54553 0.20736 0.73378 2.09900
Ba	Ba	0.04870 0.97090 0.31093 2.16400
F 	F 	0.35904 0.46860 0.51315 -0.39100
F 	F 	0.23839 0.48570 0.38998 -0.41500
F 	F 	0.06587 0.42920 0.44316 -0.49000
F 	F 	0.18585 0.42520 0.56698 -0.43900
F 	F 	0.27083 0.11780 0.65661 -0.43400
F 	F 	0.14422 0.15050 0.64894 -0.41300
F 	F 	0.29770 0.35780 0.86381 -0.38900
F 	F 	0.42256 0.33980 0.86864 -0.42500
O 	O 	0.40150 0.34310 0.63339 -0.47300
O 	O 	0.34410 0.56240 0.64992 -0.48900
O 	O 	0.07050 0.61210 0.31403 -0.63300
O 	O 	0.03560 0.33380 0.31744 -0.61800
O 	O 	0.46982 0.34320 0.78682 -0.60500
O 	O 	0.43480 0.06610 0.74890 -0.62900
O 	O 	0.13800 0.39460 0.78160 -0.51400
O 	O 	0.09140 0.14690 0.72140 -0.49300
C 	C 	0.34780 0.45080 0.61640 0.55000
C 	C 	0.27740 0.44720 0.54540 -0.24000
C 	C 	0.28690 0.45900 0.49730 0.26600
C 	C 	0.22420 0.46720 0.43350 0.28800
C 	C 	0.14820 0.45710 0.41250 -0.32600
C 	C 	0.13870 0.43920 0.46000 0.27300
C 	C 	0.20100 0.43820 0.52420 0.26000
C 	C 	0.07920 0.46890 0.34260 0.56600
C 	C 	0.42480 0.21180 0.76640 0.56600
C 	C 	0.35190 0.22820 0.76320 -0.32800
C 	C 	0.27900 0.17940 0.70830 0.29600
C 	C 	0.21270 0.19360 0.70530 0.27100
C 	C 	0.21450 0.25450 0.75620 -0.25400
C 	C 	0.28780 0.30200 0.81080 0.28700
C 	C 	0.35430 0.29160 0.81350 0.28100
C 	C 	0.14130 0.26700 0.75350 0.57200
O 	O 	0.02410 0.95200 0.40430 0.34400
C 	C 	0.06470 0.00640 0.47080 -0.12100
H 	H 	0.03530 0.09450 0.47570 0.12400
H 	H 	0.11700 0.05150 0.48990 0.10000
C 	C 	0.06600 0.82230 0.49730 1.46100
H 	H 	0.09180 0.83190 0.54260 -3.77800
H 	H 	0.09390 0.73840 0.49000 -0.56000
H 	H 	0.01330 0.78090 0.47600 -0.45400
O 	O 	0.06620 0.96900 0.41850 -0.39100
C 	C 	0.04220 0.84400 0.44490 -1.23200
H 	H 	0.04000 0.72310 0.43000 0.46700
H 	H 	0.99080 0.87560 0.43240 0.44700
C 	C 	0.10470 0.85600 0.51930 0.20800
H 	H 	0.09120 0.77360 0.53950 3.23200
H 	H 	0.10610 0.97620 0.53330 0.44000
H 	H 	0.15520 0.82500 0.53090 -0.03500
Ba	Ba	0.45447 0.70736 0.76622 2.09900
Ba	Ba	0.95130 0.47090 0.18907 2.18700
F 	F 	0.64096 0.96860 0.98685 -0.39100
F 	F 	0.76161 0.98570 0.11002 -0.41700
F 	F 	0.93413 0.92920 0.05684 -0.49100
F 	F 	0.81415 0.92520 0.93302 -0.43800
F 	F 	0.72917 0.61780 0.84339 -0.43500
F 	F 	0.85578 0.65050 0.85106 -0.41300
F 	F 	0.70230 0.85780 0.63619 -0.38800
F 	F 	0.57744 0.83980 0.63136 -0.42500
O 	O 	0.59850 0.84310 0.86661 -0.47400
O 	O 	0.65590 0.06240 0.85008 -0.49100
O 	O 	0.92950 0.11210 0.18597 -0.63100
O 	O 	0.96440 0.83380 0.18256 -0.62100
O 	O 	0.53018 0.84320 0.71318 -0.60500
O 	O 	0.56520 0.56610 0.75110 -0.62900
O 	O 	0.86200 0.89460 0.71840 -0.50800
O 	O 	0.90860 0.64690 0.77860 -0.49400
C 	C 	0.65220 0.95080 0.88360 0.55100
C 	C 	0.72260 0.94720 0.95460 -0.23900
C 	C 	0.71310 0.95900 0.00270 0.26300
C 	C 	0.77580 0.96720 0.06650 0.28700
C 	C 	0.85180 0.95710 0.08750 -0.32700
C 	C 	0.86130 0.93920 0.04000 0.27100
C 	C 	0.79900 0.93820 0.97580 0.26100
C 	C 	0.92080 0.96890 0.15740 0.56400
C 	C 	0.57520 0.71180 0.73360 0.56600
C 	C 	0.64810 0.72820 0.73680 -0.32800
C 	C 	0.72100 0.67940 0.79170 0.29600
C 	C 	0.78730 0.69360 0.79470 0.27100
C 	C 	0.78550 0.75450 0.74380 -0.25200
C 	C 	0.71220 0.80200 0.68920 0.28700
C 	C 	0.64570 0.79160 0.68650 0.28200
C 	C 	0.85870 0.76700 0.74650 0.57100
O 	O 	0.97590 0.45200 0.09570 0.34200
C 	C 	0.93530 0.50640 0.02920 -0.16200
H 	H 	0.96470 0.59450 0.02430 0.13500
H 	H 	0.88300 0.55150 0.01010 0.10800
C 	C 	0.93400 0.32230 0.00270 1.48200
H 	H 	0.90820 0.33190 0.95740 -3.81300
H 	H 	0.90610 0.23840 0.01000 -0.57000
H 	H 	0.98670 0.28090 0.02400 -0.46300
O 	O 	0.93380 0.46900 0.08150 -0.38400
C 	C 	0.95780 0.34400 0.05510 -1.20900
H 	H 	0.96000 0.22310 0.07000 0.46000
H 	H 	0.00920 0.37560 0.06760 0.44200
C 	C 	0.89530 0.35600 0.98070 0.20500
H 	H 	0.90880 0.27360 0.96050 3.26000
H 	H 	0.89390 0.47620 0.96670 0.45100
H 	H 	0.84480 0.32500 0.96910 -0.03400
Ba	Ba	0.45447 0.79264 0.26622 2.09800
Ba	Ba	0.95130 0.02910 0.68907 2.16300
F 	F 	0.64096 0.53140 0.48685 -0.39200
F 	F 	0.76161 0.51430 0.61002 -0.41600
F 	F 	0.93413 0.57080 0.55684 -0.49000
F 	F 	0.81415 0.57480 0.43302 -0.43900
F 	F 	0.72917 0.88220 0.34339 -0.43400
F 	F 	0.85578 0.84950 0.35106 -0.41300
F 	F 	0.70230 0.64220 0.13619 -0.38900
F 	F 	0.57744 0.66020 0.13136 -0.42500
O 	O 	0.59850 0.65690 0.36661 -0.47300
O 	O 	0.65590 0.43760 0.35008 -0.48900
O 	O 	0.92950 0.38790 0.68597 -0.63300
O 	O 	0.96440 0.66620 0.68256 -0.61800
O 	O 	0.53018 0.65680 0.21318 -0.60500
O 	O 	0.56520 0.93390 0.25110 -0.62900
O 	O 	0.86200 0.60540 0.21840 -0.51400
O 	O 	0.90860 0.85310 0.27860 -0.49300
C 	C 	0.65220 0.54920 0.38360 0.55000
C 	C 	0.72260 0.55280 0.45460 -0.24000
C 	C 	0.71310 0.54100 0.50270 0.26600
C 	C 	0.77580 0.53280 0.56650 0.28800
C 	C 	0.85180 0.54290 0.58750 -0.32600
C 	C 	0.86130 0.56080 0.54000 0.27300
C 	C 	0.79900 0.56180 0.47580 0.26000
C 	C 	0.92080 0.53110 0.65740 0.56600
C 	C 	0.57520 0.78820 0.23360 0.56600
C 	C 	0.64810 0.77180 0.23680 -0.32800
C 	C 	0.72100 0.82060 0.29170 0.29600
C 	C 	0.78730 0.80640 0.29470 0.27100
C 	C 	0.78550 0.74550 0.24380 -0.25400
C 	C 	0.71220 0.69800 0.18920 0.28700
C 	C 	0.64570 0.70840 0.18650 0.28100
C 	C 	0.85870 0.73300 0.24650 0.57200
O 	O 	0.97590 0.04800 0.59570 0.34400
C 	C 	0.93530 0.99360 0.52920 -0.12100
H 	H 	0.96470 0.90550 0.52430 0.12400
H 	H 	0.88300 0.94850 0.51010 0.10000
C 	C 	0.93400 0.17770 0.50270 1.46100
H 	H 	0.90820 0.16810 0.45740 -3.77800
H 	H 	0.90610 0.26160 0.51000 -0.56000
H 	H 	0.98670 0.21910 0.52400 -0.45400
O 	O 	0.93380 0.03100 0.58150 -0.39100
C 	C 	0.95780 0.15600 0.55510 -1.23200
H 	H 	0.96000 0.27690 0.57000 0.46700
H 	H 	0.00920 0.12440 0.56760 0.44700
C 	C 	0.89530 0.14400 0.48070 0.20800
H 	H 	0.90880 0.22640 0.46050 3.23200
H 	H 	0.89390 0.02380 0.46670 0.44000
H 	H 	0.84480 0.17500 0.46910 -0.03500
Ba	Ba	0.54553 0.29264 0.23378 2.09900
Ba	Ba	0.04870 0.52910 0.81093 2.18700
F 	F 	0.35904 0.03140 0.01315 -0.39100
F 	F 	0.23839 0.01430 0.88998 -0.41700
F 	F 	0.06587 0.07080 0.94316 -0.49100
F 	F 	0.18585 0.07480 0.06698 -0.43800
F 	F 	0.27083 0.38220 0.15661 -0.43500
F 	F 	0.14422 0.34950 0.14894 -0.41300
F 	F 	0.29770 0.14220 0.36381 -0.38800
F 	F 	0.42256 0.16020 0.36864 -0.42500
O 	O 	0.40150 0.15690 0.13339 -0.47400
O 	O 	0.34410 0.93760 0.14992 -0.49100
O 	O 	0.07050 0.88790 0.81403 -0.63100
O 	O 	0.03560 0.16620 0.81744 -0.62100
O 	O 	0.46982 0.15680 0.28682 -0.60500
O 	O 	0.43480 0.43390 0.24890 -0.62900
O 	O 	0.13800 0.10540 0.28160 -0.50800
O 	O 	0.09140 0.35310 0.22140 -0.49400
C 	C 	0.34780 0.04920 0.11640 0.55100
C 	C 	0.27740 0.05280 0.04540 -0.23900
C 	C 	0.28690 0.04100 0.99730 0.26300
C 	C 	0.22420 0.03280 0.93350 0.28700
C 	C 	0.14820 0.04290 0.91250 -0.32700
C 	C 	0.13870 0.06080 0.96000 0.27100
C 	C 	0.20100 0.06180 0.02420 0.26100
C 	C 	0.07920 0.03110 0.84260 0.56400
C 	C 	0.42480 0.28820 0.26640 0.56600
C 	C 	0.35190 0.27180 0.26320 -0.32800
C 	C 	0.27900 0.32060 0.20830 0.29600
C 	C 	0.21270 0.30640 0.20530 0.27100
C 	C 	0.21450 0.24550 0.25620 -0.25200
C 	C 	0.28780 0.19800 0.31080 0.28700
C 	C 	0.35430 0.20840 0.31350 0.28200
C 	C 	0.14130 0.23300 0.25350 0.57100
O 	O 	0.02410 0.54800 0.90430 0.34200
C 	C 	0.06470 0.49360 0.97080 -0.16200
H 	H 	0.03530 0.40550 0.97570 0.13500
H 	H 	0.11700 0.44850 0.98990 0.10800
C 	C 	0.06600 0.67770 0.99730 1.48200
H 	H 	0.09180 0.66810 0.04260 -3.81300
H 	H 	0.09390 0.76160 0.99000 -0.57000
H 	H 	0.01330 0.71910 0.97600 -0.46300
O 	O 	0.06620 0.53100 0.91850 -0.38400
C 	C 	0.04220 0.65600 0.94490 -1.20900
H 	H 	0.04000 0.77690 0.93000 0.46000
H 	H 	0.99080 0.62440 0.93240 0.44200
C 	C 	0.10470 0.64400 0.01930 0.20500
H 	H 	0.09120 0.72640 0.03950 3.26000
H 	H 	0.10610 0.52380 0.03330 0.45100
H 	H 	0.15520 0.67500 0.03090 -0.03400
