data_crystal

_cell_length_a 3.80830
_cell_length_b 12.47600
_cell_length_c 13.09000
_cell_angle_alpha 76.75700
_cell_angle_beta  84.64900
_cell_angle_gamma 86.80900

_symmetry_space_group_name_	'P 1'
_symmetry_space_group_name_H-M	'P 1'

loop_
_symmetry_equiv_pos_as_xyz
  x,y,z

loop_
_atom_site_label
_atom_site_type_symbol
_atom_site_fract_x
_atom_site_fract_y
_atom_site_fract_z
_atom_site_charge
Ag	Ag	0.16161 0.91878 0.59541 0.54100
O 	O 	0.39790 0.95120 0.41330 -0.40500
O 	O 	0.33480 0.77180 0.47070 -0.29000
N 	N 	0.92670 0.00760 0.04250 -0.09100
N 	N 	0.88500 0.78750 0.71780 -0.19700
C 	C 	0.63710 0.83510 0.30180 -0.03200
C 	C 	0.69790 0.92430 0.21670 -0.09800
H 	H 	0.61550 0.99450 0.22230 0.06000
C 	C 	0.88010 0.90940 0.12390 0.11400
C 	C 	0.00950 0.80460 0.11560 -0.12000
H 	H 	0.13630 0.79440 0.05410 0.08000
C 	C 	0.94790 0.71710 0.19870 0.00900
H 	H 	0.03150 0.64700 0.19290 0.02400
C 	C 	0.76150 0.73090 0.29220 -0.05500
H 	H 	0.72080 0.67040 0.34790 0.06500
C 	C 	0.44320 0.85190 0.40250 0.29200
C 	C 	0.85530 0.78660 0.82140 0.08600
H 	H 	0.92480 0.84820 0.84200 -0.00300
C 	C 	0.72870 0.70030 0.89790 -0.16700
H 	H 	0.71180 0.70450 0.96830 0.08900
C 	C 	0.62510 0.60590 0.87030 0.11500
C 	C 	0.64870 0.60750 0.76340 -0.16400
H 	H 	0.57620 0.54770 0.74050 0.08900
C 	C 	0.78090 0.69860 0.69100 0.07800
H 	H 	0.79740 0.69730 0.62000 0.01000
C 	C 	0.49660 0.50870 0.94840 -0.08800
H 	H 	0.40120 0.45420 0.92260 0.06000
Ag	Ag	0.83839 0.08122 0.40459 0.54000
O 	O 	0.60210 0.04880 0.58670 -0.40600
O 	O 	0.66520 0.22820 0.52930 -0.29100
N 	N 	0.07330 0.99240 0.95750 -0.09200
N 	N 	0.11500 0.21250 0.28220 -0.19700
C 	C 	0.36290 0.16490 0.69820 -0.03200
C 	C 	0.30210 0.07570 0.78330 -0.09800
H 	H 	0.38450 0.00550 0.77770 0.06000
C 	C 	0.11990 0.09060 0.87610 0.11400
C 	C 	0.99050 0.19540 0.88440 -0.12000
H 	H 	0.86370 0.20560 0.94590 0.08000
C 	C 	0.05210 0.28290 0.80130 0.00900
H 	H 	0.96850 0.35300 0.80710 0.02400
C 	C 	0.23850 0.26910 0.70780 -0.05500
H 	H 	0.27920 0.32960 0.65210 0.06500
C 	C 	0.55680 0.14810 0.59750 0.29200
C 	C 	0.14470 0.21340 0.17860 0.08600
H 	H 	0.07520 0.15180 0.15800 -0.00300
C 	C 	0.27130 0.29970 0.10210 -0.16700
H 	H 	0.28820 0.29550 0.03170 0.08900
C 	C 	0.37490 0.39410 0.12970 0.11500
C 	C 	0.35130 0.39250 0.23660 -0.16400
H 	H 	0.42380 0.45230 0.25950 0.08900
C 	C 	0.21910 0.30140 0.30900 0.07800
H 	H 	0.20260 0.30270 0.38000 0.01000
C 	C 	0.50340 0.49130 0.05160 -0.08800
H 	H 	0.59880 0.54580 0.07740 0.06000
