data_crystal

_cell_length_a 13.70500
_cell_length_b 10.73370
_cell_length_c 15.87780
_cell_angle_alpha 90.00000
_cell_angle_beta  90.00000
_cell_angle_gamma 90.00000

_symmetry_space_group_name_	'P 1'
_symmetry_space_group_name_H-M	'P 1'

loop_
_symmetry_equiv_pos_as_xyz
  x,y,z

loop_
_atom_site_label
_atom_site_type_symbol
_atom_site_fract_x
_atom_site_fract_y
_atom_site_fract_z
_atom_site_charge
Zn	Zn	0.66276 0.65860 0.42976 1.23700
P 	P 	0.84021 0.86257 0.41648 0.49300
H 	H 	0.91230 0.86070 0.47020 -0.03000
O 	O 	0.77470 0.76370 0.45010 -0.41000
O 	O 	0.88320 0.82830 0.33320 -0.40000
O 	O 	0.79260 0.98790 0.41640 -0.44500
O 	O 	0.59180 0.67690 0.53570 -0.44600
O 	O 	0.59100 0.71890 0.33340 -0.45500
Zn	Zn	0.16276 0.15860 0.42976 1.23100
P 	P 	0.34021 0.36257 0.41648 0.49100
H 	H 	0.41230 0.36070 0.47020 -0.07000
O 	O 	0.27470 0.26370 0.45010 -0.43000
O 	O 	0.38320 0.32830 0.33320 -0.45600
O 	O 	0.29260 0.48790 0.41640 -0.46400
O 	O 	0.09180 0.17690 0.53570 -0.45500
O 	O 	0.09100 0.21890 0.33340 -0.46500
Zn	Zn	0.33724 0.34140 0.92976 1.21200
P 	P 	0.15979 0.13743 0.91648 0.49000
H 	H 	0.08770 0.13930 0.97020 -0.12200
O 	O 	0.22530 0.23630 0.95010 -0.47200
O 	O 	0.11680 0.17170 0.83320 -0.48500
O 	O 	0.20740 0.01210 0.91640 -0.48500
O 	O 	0.40820 0.32310 0.03570 -0.37500
O 	O 	0.40900 0.28110 0.83340 -0.48300
Zn	Zn	0.83724 0.84140 0.92976 1.21700
P 	P 	0.65979 0.63743 0.91648 0.49100
H 	H 	0.58770 0.63930 0.97020 -0.10000
O 	O 	0.72530 0.73630 0.95010 -0.45900
O 	O 	0.61680 0.67170 0.83320 -0.46400
O 	O 	0.70740 0.51210 0.91640 -0.47400
O 	O 	0.90820 0.82310 0.03570 -0.28500
O 	O 	0.90900 0.78110 0.83340 -0.39300
Zn	Zn	0.66276 0.34140 0.92976 1.21500
P 	P 	0.84021 0.13743 0.91648 0.49100
H 	H 	0.91230 0.13930 0.97020 -0.06000
O 	O 	0.77470 0.23630 0.95010 -0.45000
O 	O 	0.88320 0.17170 0.83320 -0.41200
O 	O 	0.79260 0.01210 0.91640 -0.46700
O 	O 	0.59180 0.32310 0.03570 -0.36800
O 	O 	0.59100 0.28110 0.83340 -0.47800
Zn	Zn	0.16276 0.84140 0.92976 1.20700
P 	P 	0.34021 0.63743 0.91648 0.49000
H 	H 	0.41230 0.63930 0.97020 -0.10200
O 	O 	0.27470 0.73630 0.95010 -0.47200
O 	O 	0.38320 0.67170 0.83320 -0.47000
O 	O 	0.29260 0.51210 0.91640 -0.49500
O 	O 	0.09180 0.82310 0.03570 -0.37900
O 	O 	0.09100 0.78110 0.83340 -0.49000
Zn	Zn	0.33724 0.65860 0.42976 1.23400
P 	P 	0.15979 0.86257 0.41648 0.49000
H 	H 	0.08770 0.86070 0.47020 -0.09500
O 	O 	0.22530 0.76370 0.45010 -0.43400
O 	O 	0.11680 0.82830 0.33320 -0.47500
O 	O 	0.20740 0.98790 0.41640 -0.46300
O 	O 	0.40820 0.67690 0.53570 -0.45300
O 	O 	0.40900 0.71890 0.33340 -0.46100
Zn	Zn	0.83724 0.15860 0.42976 1.24100
P 	P 	0.65979 0.36257 0.41648 0.49200
H 	H 	0.58770 0.36070 0.47020 -0.06800
O 	O 	0.72530 0.26370 0.45010 -0.41600
O 	O 	0.61680 0.32830 0.33320 -0.44900
O 	O 	0.70740 0.48790 0.41640 -0.44300
O 	O 	0.90820 0.17690 0.53570 -0.35800
O 	O 	0.90900 0.21890 0.33340 -0.36700
Zn	Zn	0.50000 0.38161 0.27572 1.23200
P 	P 	0.50000 0.64480 0.58089 0.47700
H 	H 	0.50000 0.52730 0.60110 -0.06700
P 	P 	0.50000 0.68320 0.28837 0.49700
H 	H 	0.50000 0.74760 0.21910 0.00500
O 	O 	0.50000 0.70830 0.66680 -0.40000
O 	O 	0.50000 0.55720 0.25140 -0.47500
Zn	Zn	0.00000 0.88161 0.27572 1.20900
P 	P 	-0.00000 0.14480 0.58089 0.38700
H 	H 	-0.00000 0.02730 0.60110 -0.07700
P 	P 	0.00000 0.18320 0.28837 0.40500
H 	H 	0.00000 0.24760 0.21910 -0.01300
O 	O 	-0.00000 0.20830 0.66680 -0.42900
O 	O 	0.00000 0.05720 0.25140 -0.49300
Zn	Zn	0.50000 0.61839 0.77572 1.22900
P 	P 	0.50000 0.35520 0.08089 0.47700
H 	H 	0.50000 0.47270 0.10110 -0.03600
P 	P 	0.50000 0.31680 0.78837 0.49400
H 	H 	0.50000 0.25240 0.71910 -0.01500
O 	O 	0.50000 0.29170 0.16680 -0.37900
O 	O 	0.50000 0.44280 0.75140 -0.49000
Zn	Zn	-0.00000 0.11839 0.77572 1.20800
P 	P 	0.00000 0.85520 0.08089 0.38700
H 	H 	0.00000 0.97270 0.10110 -0.05200
P 	P 	0.00000 0.81680 0.78837 0.40400
H 	H 	-0.00000 0.75240 0.71910 -0.03500
O 	O 	0.00000 0.79170 0.16680 -0.41000
O 	O 	0.00000 0.94280 0.75140 -0.51400
