data_crystal

_cell_length_a 10.42100
_cell_length_b 23.35260
_cell_length_c 6.92140
_cell_angle_alpha 90.00000
_cell_angle_beta  90.00000
_cell_angle_gamma 90.00000

_symmetry_space_group_name_	'P 1'
_symmetry_space_group_name_H-M	'P 1'

loop_
_symmetry_equiv_pos_as_xyz
  x,y,z

loop_
_atom_site_label
_atom_site_type_symbol
_atom_site_fract_x
_atom_site_fract_y
_atom_site_fract_z
_atom_site_charge
Zn	Zn	0.50000 0.36581 0.25000 1.20500
O 	O 	0.50000 0.45110 0.25000 -0.73900
Zn	Zn	0.00000 0.86581 0.25000 1.19100
O 	O 	-0.00000 0.95110 0.25000 -0.70900
Zn	Zn	0.50000 0.63419 0.75000 1.22500
O 	O 	0.50000 0.54890 0.75000 -0.68100
Zn	Zn	0.00000 0.13419 0.75000 1.20900
O 	O 	-0.00000 0.04890 0.75000 -0.72900
Zn	Zn	0.50000 0.50000 -0.00000 1.12400
Zn	Zn	-0.00000 0.00000 -0.00000 1.08800
Zn	Zn	0.50000 0.50000 0.50000 1.16000
Zn	Zn	0.00000 0.00000 0.50000 1.12300
C 	C 	0.00000 0.16290 0.25000 0.13900
C 	C 	0.00000 0.34600 0.25000 -0.02400
C 	C 	0.00000 0.22690 0.25000 -0.20700
C 	C 	0.50000 0.66290 0.25000 0.13300
C 	C 	0.50000 0.84600 0.25000 0.09600
C 	C 	0.50000 0.72690 0.25000 -0.09100
C 	C 	0.00000 0.83710 0.75000 0.16200
C 	C 	0.00000 0.65400 0.75000 -0.00600
C 	C 	0.00000 0.77310 0.75000 -0.16000
C 	C 	0.50000 0.33710 0.75000 0.15100
C 	C 	0.50000 0.15400 0.75000 0.08600
C 	C 	0.50000 0.27310 0.75000 -0.05100
C 	C 	0.24080 0.34860 0.25000 0.34500
C 	C 	0.11600 0.31630 0.25000 -0.13000
C 	C 	0.11520 0.25650 0.25000 0.05600
H 	H 	0.19230 0.23640 0.25000 0.01200
O 	O 	0.34220 0.31999 0.25000 -0.48700
O 	O 	0.23580 0.40230 0.25000 -0.37600
C 	C 	0.74080 0.84860 0.25000 0.34200
C 	C 	0.61600 0.81630 0.25000 -0.12100
C 	C 	0.61520 0.75650 0.25000 0.02600
H 	H 	0.69230 0.73640 0.25000 0.03300
O 	O 	0.84220 0.81999 0.25000 -0.43400
O 	O 	0.73580 0.90230 0.25000 -0.30500
C 	C 	0.75920 0.65140 0.75000 0.33800
C 	C 	0.88400 0.68370 0.75000 -0.03100
C 	C 	0.88480 0.74350 0.75000 0.13100
H 	H 	0.80770 0.76360 0.75000 0.04000
O 	O 	0.65780 0.68001 0.75000 -0.42700
O 	O 	0.76420 0.59770 0.75000 -0.29600
C 	C 	0.25920 0.15140 0.75000 0.35600
C 	C 	0.38400 0.18370 0.75000 -0.10600
C 	C 	0.38480 0.24350 0.75000 0.02600
H 	H 	0.30770 0.26360 0.75000 0.05400
O 	O 	0.15780 0.18001 0.75000 -0.44800
O 	O 	0.26420 0.09770 0.75000 -0.34300
C 	C 	0.75920 0.34860 0.25000 0.33700
C 	C 	0.88400 0.31630 0.25000 -0.06100
C 	C 	0.88480 0.25650 0.25000 0.14400
H 	H 	0.80770 0.23640 0.25000 -0.00000
O 	O 	0.65780 0.31999 0.25000 -0.47900
O 	O 	0.76420 0.40230 0.25000 -0.33700
C 	C 	0.25920 0.84860 0.25000 0.35200
C 	C 	0.38400 0.81630 0.25000 -0.13200
C 	C 	0.38480 0.75650 0.25000 0.03200
H 	H 	0.30770 0.73640 0.25000 0.01900
O 	O 	0.15780 0.81999 0.25000 -0.49300
O 	O 	0.26420 0.90230 0.25000 -0.34000
C 	C 	0.24080 0.65140 0.75000 0.34500
C 	C 	0.11600 0.68370 0.75000 -0.09800
C 	C 	0.11520 0.74350 0.75000 0.04800
H 	H 	0.19230 0.76360 0.75000 0.05200
O 	O 	0.34220 0.68001 0.75000 -0.43400
O 	O 	0.23580 0.59770 0.75000 -0.33300
C 	C 	0.74080 0.15140 0.75000 0.34600
C 	C 	0.61600 0.18370 0.75000 -0.09500
C 	C 	0.61520 0.24350 0.75000 0.02100
H 	H 	0.69230 0.26360 0.75000 0.06700
O 	O 	0.84220 0.18001 0.75000 -0.38800
O 	O 	0.73580 0.09770 0.75000 -0.30800
N 	N 	0.00000 0.07730 0.34300 -0.23500
N 	N 	0.00000 0.13092 0.40950 -0.20600
N 	N 	0.50000 0.57730 0.34300 -0.21300
N 	N 	0.50000 0.63092 0.40950 -0.18700
N 	N 	0.00000 0.92270 0.84300 -0.16500
N 	N 	-0.00000 0.86908 0.90950 -0.16200
N 	N 	0.50000 0.42270 0.84300 -0.17900
N 	N 	0.50000 0.36908 0.90950 -0.14900
N 	N 	0.00000 0.07730 0.15700 -0.25200
N 	N 	0.00000 0.13092 0.09050 -0.24000
N 	N 	0.50000 0.57730 0.15700 -0.23000
N 	N 	0.50000 0.63092 0.09050 -0.22200
N 	N 	0.00000 0.92270 0.65700 -0.19000
N 	N 	0.00000 0.86908 0.59050 -0.19800
N 	N 	0.50000 0.42270 0.65700 -0.20300
N 	N 	0.50000 0.36908 0.59050 -0.18400
