data_crystal

_cell_length_a 13.38600
_cell_length_b 21.48200
_cell_length_c 10.17600
_cell_angle_alpha 90.00000
_cell_angle_beta  94.75200
_cell_angle_gamma 90.00000

_symmetry_space_group_name_	'P 1'
_symmetry_space_group_name_H-M	'P 1'

loop_
_symmetry_equiv_pos_as_xyz
  x,y,z

loop_
_atom_site_label
_atom_site_type_symbol
_atom_site_fract_x
_atom_site_fract_y
_atom_site_fract_z
_atom_site_charge
Cd	Cd	0.51522 0.57310 0.41900 1.24100
O 	O 	0.00440 0.86616 0.37214 -0.33300
C 	C 	0.89673 0.78043 0.24654 0.00300
C 	C 	0.85720 0.75710 0.12720 -0.03300
H 	H 	0.88260 0.77000 0.04710 0.05100
C 	C 	0.77950 0.71430 0.12690 0.00300
H 	H 	0.75280 0.69670 0.04590 0.02900
C 	C 	0.74016 0.69696 0.24479 -0.08800
C 	C 	0.78480 0.72007 0.36250 0.01500
H 	H 	0.76130 0.70650 0.44330 0.02800
C 	C 	0.86300 0.76264 0.36530 -0.00600
H 	H 	0.89230 0.77890 0.44630 0.05100
C 	C 	0.65243 0.65289 0.24625 0.37600
O 	O 	0.62065 0.62974 0.13743 -0.42200
O 	O 	0.61986 0.64348 0.35720 -0.43500
O 	O 	0.00492 0.28242 0.12808 -0.22800
C 	C 	0.10519 0.36581 0.26844 0.01000
C 	C 	0.13875 0.38825 0.39254 -0.08600
H 	H 	0.10400 0.37810 0.46740 0.06600
C 	C 	0.22332 0.42561 0.40586 0.02800
H 	H 	0.24740 0.44080 0.49030 0.02500
C 	C 	0.27308 0.44084 0.29507 -0.12700
C 	C 	0.23793 0.41879 0.17107 0.03600
H 	H 	0.27180 0.42950 0.09580 0.03400
C 	C 	0.15385 0.38131 0.15740 -0.08500
H 	H 	0.12950 0.36630 0.07300 0.06500
C 	C 	0.36325 0.48288 0.30633 0.40000
O 	O 	0.40942 0.49072 0.42103 -0.51600
O 	O 	0.38609 0.50926 0.20491 -0.44200
C 	C 	0.88370 0.73450 0.14680 -0.04200
H 	H 	0.92870 0.73170 0.07960 0.05800
C 	C 	0.80270 0.69330 0.14980 -0.00100
H 	H 	0.79230 0.66230 0.08330 0.03000
C 	C 	0.74910 0.74410 0.34130 -0.01700
H 	H 	0.70090 0.74790 0.40430 0.04300
C 	C 	0.82930 0.78460 0.34280 -0.06400
H 	H 	0.83830 0.81540 0.40970 0.05300
Cd	Cd	0.48478 0.57310 0.08100 1.24200
O 	O 	0.99560 0.86616 0.12786 -0.29200
C 	C 	0.10327 0.78043 0.25346 -0.02800
C 	C 	0.14280 0.75710 0.37280 -0.00400
H 	H 	0.11740 0.77000 0.45290 0.04100
C 	C 	0.22050 0.71430 0.37310 0.02400
H 	H 	0.24720 0.69670 0.45410 0.02400
C 	C 	0.25984 0.69696 0.25521 -0.07600
C 	C 	0.21520 0.72007 0.13750 -0.16900
H 	H 	0.23870 0.70650 0.05670 0.08300
C 	C 	0.13700 0.76264 0.13470 -0.14800
H 	H 	0.10770 0.77890 0.05370 0.08100
C 	C 	0.34757 0.65289 0.25375 0.37100
O 	O 	0.37935 0.62974 0.36257 -0.42200
O 	O 	0.38014 0.64348 0.14280 -0.43300
O 	O 	0.99508 0.28242 0.37192 -0.19100
C 	C 	0.89481 0.36581 0.23156 0.04000
C 	C 	0.86125 0.38825 0.10746 -0.09600
H 	H 	0.89600 0.37810 0.03260 0.07900
C 	C 	0.77668 0.42561 0.09414 0.04000
H 	H 	0.75260 0.44080 0.00970 0.02300
C 	C 	0.72692 0.44084 0.20493 -0.13300
C 	C 	0.76207 0.41879 0.32893 0.04800
H 	H 	0.72820 0.42950 0.40420 0.03100
C 	C 	0.84615 0.38131 0.34260 -0.09700
H 	H 	0.87050 0.36630 0.42700 0.07600
C 	C 	0.63675 0.48288 0.19367 0.40300
O 	O 	0.59058 0.49072 0.07897 -0.51700
O 	O 	0.61391 0.50926 0.29509 -0.44200
C 	C 	0.11630 0.73450 0.35320 -0.06000
H 	H 	0.07130 0.73170 0.42040 0.05100
C 	C 	0.19730 0.69330 0.35020 -0.03100
H 	H 	0.20770 0.66230 0.41670 0.03800
C 	C 	0.25090 0.74410 0.15870 0.15000
H 	H 	0.29910 0.74790 0.09570 -0.00900
C 	C 	0.17070 0.78460 0.15720 0.09500
H 	H 	0.16170 0.81540 0.09030 0.00100
Cd	Cd	0.48478 0.42690 0.58100 1.24200
O 	O 	0.99560 0.13384 0.62786 -0.28700
C 	C 	0.10327 0.21957 0.75346 -0.02700
C 	C 	0.14280 0.24290 0.87280 -0.00200
H 	H 	0.11740 0.23000 0.95290 0.04000
C 	C 	0.22050 0.28570 0.87310 0.02600
H 	H 	0.24720 0.30330 0.95410 0.02200
C 	C 	0.25984 0.30304 0.75521 -0.07600
C 	C 	0.21520 0.27993 0.63750 -0.18400
H 	H 	0.23870 0.29350 0.55670 0.08600
C 	C 	0.13700 0.23736 0.63470 -0.16100
H 	H 	0.10770 0.22110 0.55370 0.08400
C 	C 	0.34757 0.34711 0.75375 0.37100
O 	O 	0.37935 0.37026 0.86257 -0.42200
O 	O 	0.38014 0.35652 0.64280 -0.43400
O 	O 	0.99508 0.71758 0.87192 -0.18600
C 	C 	0.89481 0.63419 0.73156 0.04700
C 	C 	0.86125 0.61175 0.60746 -0.10000
H 	H 	0.89600 0.62190 0.53260 0.08200
C 	C 	0.77668 0.57439 0.59414 0.04300
H 	H 	0.75260 0.55920 0.50970 0.02200
C 	C 	0.72692 0.55916 0.70493 -0.13500
C 	C 	0.76207 0.58121 0.82893 0.05100
H 	H 	0.72820 0.57050 0.90420 0.03100
C 	C 	0.84615 0.61869 0.84260 -0.10100
H 	H 	0.87050 0.63370 0.92700 0.07800
C 	C 	0.63675 0.51712 0.69367 0.40300
O 	O 	0.59058 0.50928 0.57897 -0.51700
O 	O 	0.61391 0.49074 0.79509 -0.44200
C 	C 	0.11630 0.26550 0.85320 -0.06300
H 	H 	0.07130 0.26830 0.92040 0.05000
C 	C 	0.19730 0.30670 0.85020 -0.03400
H 	H 	0.20770 0.33770 0.91670 0.03800
C 	C 	0.25090 0.25590 0.65870 0.16500
H 	H 	0.29910 0.25210 0.59570 -0.01400
C 	C 	0.17070 0.21540 0.65720 0.10700
H 	H 	0.16170 0.18460 0.59030 -0.00300
Cd	Cd	0.51522 0.42690 0.91900 1.24200
O 	O 	0.00440 0.13384 0.87214 -0.33200
C 	C 	0.89673 0.21957 0.74654 0.01000
C 	C 	0.85720 0.24290 0.62720 -0.03500
H 	H 	0.88260 0.23000 0.54710 0.05400
C 	C 	0.77950 0.28570 0.62690 0.00300
H 	H 	0.75280 0.30330 0.54590 0.03000
C 	C 	0.74016 0.30304 0.74479 -0.08800
C 	C 	0.78480 0.27993 0.86250 0.02900
H 	H 	0.76130 0.29350 0.94330 0.02400
C 	C 	0.86300 0.23736 0.86530 0.00400
H 	H 	0.89230 0.22110 0.94630 0.04900
C 	C 	0.65243 0.34711 0.74625 0.37700
O 	O 	0.62065 0.37026 0.63743 -0.42200
O 	O 	0.61986 0.35652 0.85720 -0.43500
O 	O 	0.00492 0.71758 0.62808 -0.22800
C 	C 	0.10519 0.63419 0.76844 0.01200
C 	C 	0.13875 0.61175 0.89254 -0.08800
H 	H 	0.10400 0.62190 0.96740 0.06500
C 	C 	0.22332 0.57439 0.90586 0.02900
H 	H 	0.24740 0.55920 0.99030 0.02400
C 	C 	0.27308 0.55916 0.79507 -0.12800
C 	C 	0.23793 0.58121 0.67107 0.03700
H 	H 	0.27180 0.57050 0.59580 0.03300
C 	C 	0.15385 0.61869 0.65740 -0.08600
H 	H 	0.12950 0.63370 0.57300 0.06500
C 	C 	0.36325 0.51712 0.80633 0.40000
O 	O 	0.40942 0.50928 0.92103 -0.51700
O 	O 	0.38609 0.49074 0.70491 -0.44200
C 	C 	0.88370 0.26550 0.64680 -0.04100
H 	H 	0.92870 0.26830 0.57960 0.06000
C 	C 	0.80270 0.30670 0.64980 0.00100
H 	H 	0.79230 0.33770 0.58330 0.02900
C 	C 	0.74910 0.25590 0.84130 -0.02900
H 	H 	0.70090 0.25210 0.90430 0.04700
C 	C 	0.82930 0.21540 0.84280 -0.07600
H 	H 	0.83830 0.18460 0.90970 0.05800
S 	S 	-0.00000 0.83155 0.25000 0.28000
S 	S 	0.00000 0.16845 0.75000 0.27100
S 	S 	0.00000 0.31575 0.25000 0.20500
S 	S 	0.00000 0.68425 0.75000 0.19500
Cd	Cd	0.01522 0.07310 0.41900 1.23200
O 	O 	0.50440 0.36616 0.37214 -0.33000
C 	C 	0.39673 0.28043 0.24654 -0.03400
C 	C 	0.35720 0.25710 0.12720 -0.01400
H 	H 	0.38260 0.27000 0.04710 0.04500
C 	C 	0.27950 0.21430 0.12690 0.01200
H 	H 	0.25280 0.19670 0.04590 0.02700
C 	C 	0.24016 0.19696 0.24479 -0.08000
C 	C 	0.28480 0.22007 0.36250 -0.08100
H 	H 	0.26130 0.20650 0.44330 0.05600
C 	C 	0.36300 0.26264 0.36530 -0.07300
H 	H 	0.39230 0.27890 0.44630 0.06400
C 	C 	0.15243 0.15289 0.24625 0.37300
O 	O 	0.12065 0.12974 0.13743 -0.42800
O 	O 	0.11986 0.14348 0.35720 -0.44200
O 	O 	0.50492 0.78242 0.12808 -0.22900
C 	C 	0.60519 0.86581 0.26844 -0.00200
C 	C 	0.63875 0.88825 0.39254 -0.07200
H 	H 	0.60400 0.87810 0.46740 0.06700
C 	C 	0.72332 0.92561 0.40586 0.02200
H 	H 	0.74740 0.94080 0.49030 0.02800
C 	C 	0.77308 0.94084 0.29507 -0.11900
C 	C 	0.73793 0.91879 0.17107 0.03100
H 	H 	0.77180 0.92950 0.09580 0.03700
C 	C 	0.65385 0.88131 0.15740 -0.07100
H 	H 	0.62950 0.86630 0.07300 0.06300
C 	C 	0.86325 0.98288 0.30633 0.39900
O 	O 	0.90942 0.99072 0.42103 -0.50600
O 	O 	0.88609 0.00926 0.20491 -0.43600
C 	C 	0.38370 0.23450 0.14680 -0.04400
H 	H 	0.42870 0.23170 0.07960 0.05300
C 	C 	0.30270 0.19330 0.14980 -0.01800
H 	H 	0.29230 0.16230 0.08330 0.03500
C 	C 	0.24910 0.24410 0.34130 0.06700
H 	H 	0.20090 0.24790 0.40430 0.01500
C 	C 	0.32930 0.28460 0.34280 0.02200
H 	H 	0.33830 0.31540 0.40970 0.02300
Cd	Cd	0.98478 0.07310 0.08100 1.25000
O 	O 	0.49560 0.36616 0.12786 -0.32900
C 	C 	0.60327 0.28043 0.25346 -0.03500
C 	C 	0.64280 0.25710 0.37280 -0.00900
H 	H 	0.61740 0.27000 0.45290 0.04400
C 	C 	0.72050 0.21430 0.37310 0.01500
H 	H 	0.74720 0.19670 0.45410 0.02800
C 	C 	0.75984 0.19696 0.25521 -0.07600
C 	C 	0.71520 0.22007 0.13750 -0.09900
H 	H 	0.73870 0.20650 0.05670 0.06100
C 	C 	0.63700 0.26264 0.13470 -0.08800
H 	H 	0.60770 0.27890 0.05370 0.06800
C 	C 	0.84757 0.15289 0.25375 0.37100
O 	O 	0.87935 0.12974 0.36257 -0.41500
O 	O 	0.88014 0.14348 0.14280 -0.42800
O 	O 	0.49508 0.78242 0.37192 -0.23000
C 	C 	0.39481 0.86581 0.23156 -0.00500
C 	C 	0.36125 0.88825 0.10746 -0.07300
H 	H 	0.39600 0.87810 0.03260 0.06700
C 	C 	0.27668 0.92561 0.09414 0.02100
H 	H 	0.25260 0.94080 0.00970 0.02900
C 	C 	0.22692 0.94084 0.20493 -0.12300
C 	C 	0.26207 0.91879 0.32893 0.02900
H 	H 	0.22820 0.92950 0.40420 0.03600
C 	C 	0.34615 0.88131 0.34260 -0.07400
H 	H 	0.37050 0.86630 0.42700 0.06300
C 	C 	0.13675 0.98288 0.19367 0.39900
O 	O 	0.09058 0.99072 0.07897 -0.52500
O 	O 	0.11391 0.00926 0.29509 -0.44800
C 	C 	0.61630 0.23450 0.35320 -0.04900
H 	H 	0.57130 0.23170 0.42040 0.05400
C 	C 	0.69730 0.19330 0.35020 -0.02300
H 	H 	0.70770 0.16230 0.41670 0.03600
C 	C 	0.75090 0.24410 0.15870 0.08200
H 	H 	0.79910 0.24790 0.09570 0.01400
C 	C 	0.67070 0.28460 0.15720 0.03900
H 	H 	0.66170 0.31540 0.09030 0.01900
Cd	Cd	0.98478 0.92690 0.58100 1.25200
O 	O 	0.49560 0.63384 0.62786 -0.33000
C 	C 	0.60327 0.71957 0.75346 -0.03500
C 	C 	0.64280 0.74290 0.87280 -0.00900
H 	H 	0.61740 0.73000 0.95290 0.04400
C 	C 	0.72050 0.78570 0.87310 0.01400
H 	H 	0.74720 0.80330 0.95410 0.02800
C 	C 	0.75984 0.80304 0.75521 -0.07500
C 	C 	0.71520 0.77993 0.63750 -0.10100
H 	H 	0.73870 0.79350 0.55670 0.06200
C 	C 	0.63700 0.73736 0.63470 -0.08800
H 	H 	0.60770 0.72110 0.55370 0.06800
C 	C 	0.84757 0.84711 0.75375 0.37100
O 	O 	0.87935 0.87026 0.86257 -0.41400
O 	O 	0.88014 0.85652 0.64280 -0.42600
O 	O 	0.49508 0.21758 0.87192 -0.23100
C 	C 	0.39481 0.13419 0.73156 -0.00500
C 	C 	0.36125 0.11175 0.60746 -0.07400
H 	H 	0.39600 0.12190 0.53260 0.06600
C 	C 	0.27668 0.07439 0.59414 0.02200
H 	H 	0.25260 0.05920 0.50970 0.02700
C 	C 	0.22692 0.05916 0.70493 -0.12500
C 	C 	0.26207 0.08121 0.82893 0.03000
H 	H 	0.22820 0.07050 0.90420 0.03500
C 	C 	0.34615 0.11869 0.84260 -0.07500
H 	H 	0.37050 0.13370 0.92700 0.06300
C 	C 	0.13675 0.01712 0.69367 0.40000
O 	O 	0.09058 0.00928 0.57897 -0.52800
O 	O 	0.11391 0.99074 0.79509 -0.45100
C 	C 	0.61630 0.76550 0.85320 -0.04900
H 	H 	0.57130 0.76830 0.92040 0.05400
C 	C 	0.69730 0.80670 0.85020 -0.02300
H 	H 	0.70770 0.83770 0.91670 0.03600
C 	C 	0.75090 0.75590 0.65870 0.08300
H 	H 	0.79910 0.75210 0.59570 0.01400
C 	C 	0.67070 0.71540 0.65720 0.04000
H 	H 	0.66170 0.68460 0.59030 0.01900
Cd	Cd	0.01522 0.92690 0.91900 1.23000
O 	O 	0.50440 0.63384 0.87214 -0.33000
C 	C 	0.39673 0.71957 0.74654 -0.03400
C 	C 	0.35720 0.74290 0.62720 -0.01400
H 	H 	0.38260 0.73000 0.54710 0.04500
C 	C 	0.27950 0.78570 0.62690 0.01300
H 	H 	0.25280 0.80330 0.54590 0.02600
C 	C 	0.24016 0.80304 0.74479 -0.08100
C 	C 	0.28480 0.77993 0.86250 -0.08300
H 	H 	0.26130 0.79350 0.94330 0.05600
C 	C 	0.36300 0.73736 0.86530 -0.07500
H 	H 	0.39230 0.72110 0.94630 0.06400
C 	C 	0.15243 0.84711 0.74625 0.37400
O 	O 	0.12065 0.87026 0.63743 -0.43000
O 	O 	0.11986 0.85652 0.85720 -0.44400
O 	O 	0.50492 0.21758 0.62808 -0.22900
C 	C 	0.60519 0.13419 0.76844 -0.00200
C 	C 	0.63875 0.11175 0.89254 -0.07200
H 	H 	0.60400 0.12190 0.96740 0.06700
C 	C 	0.72332 0.07439 0.90586 0.02200
H 	H 	0.74740 0.05920 0.99030 0.02900
C 	C 	0.77308 0.05916 0.79507 -0.11800
C 	C 	0.73793 0.08121 0.67107 0.03100
H 	H 	0.77180 0.07050 0.59580 0.03700
C 	C 	0.65385 0.11869 0.65740 -0.07000
H 	H 	0.62950 0.13370 0.57300 0.06300
C 	C 	0.86325 0.01712 0.80633 0.39900
O 	O 	0.90942 0.00928 0.92103 -0.50400
O 	O 	0.88609 0.99074 0.70491 -0.43500
C 	C 	0.38370 0.76550 0.64680 -0.04600
H 	H 	0.42870 0.76830 0.57960 0.05300
C 	C 	0.30270 0.80670 0.64980 -0.01900
H 	H 	0.29230 0.83770 0.58330 0.03500
C 	C 	0.24910 0.75590 0.84130 0.06900
H 	H 	0.20090 0.75210 0.90430 0.01300
C 	C 	0.32930 0.71540 0.84280 0.02400
H 	H 	0.33830 0.68460 0.90970 0.02200
S 	S 	0.50000 0.33155 0.25000 0.34400
S 	S 	0.50000 0.66845 0.75000 0.34400
S 	S 	0.50000 0.81575 0.25000 0.27500
S 	S 	0.50000 0.18425 0.75000 0.27500
