data_crystal

_cell_length_a 13.39100
_cell_length_b 21.45000
_cell_length_c 10.17580
_cell_angle_alpha 90.00000
_cell_angle_beta  94.96000
_cell_angle_gamma 90.00000

_symmetry_space_group_name_	'P 1'
_symmetry_space_group_name_H-M	'P 1'

loop_
_symmetry_equiv_pos_as_xyz
  x,y,z

loop_
_atom_site_label
_atom_site_type_symbol
_atom_site_fract_x
_atom_site_fract_y
_atom_site_fract_z
_atom_site_charge
Cd	Cd	0.51544 0.57311 0.41908 1.24100
O 	O 	0.00476 0.86610 0.37210 -0.33400
C 	C 	0.89708 0.78022 0.24692 0.00400
C 	C 	0.85720 0.75717 0.12730 -0.04000
H 	H 	0.88250 0.77000 0.04720 0.05400
C 	C 	0.77890 0.71456 0.12690 -0.00300
H 	H 	0.75130 0.69730 0.04580 0.03000
C 	C 	0.74011 0.69683 0.24543 -0.08800
C 	C 	0.78589 0.71939 0.36329 0.07200
H 	H 	0.76340 0.70520 0.44410 0.01100
C 	C 	0.86383 0.76220 0.36615 0.04000
H 	H 	0.89330 0.77850 0.44720 0.03700
C 	C 	0.65248 0.65268 0.24672 0.37600
O 	O 	0.62047 0.62972 0.13791 -0.42200
O 	O 	0.61998 0.64349 0.35806 -0.43400
O 	O 	0.00460 0.28230 0.12821 -0.22900
C 	C 	0.10488 0.36601 0.26828 0.01100
C 	C 	0.13827 0.38859 0.39232 -0.09000
H 	H 	0.10350 0.37850 0.46700 0.07300
C 	C 	0.22318 0.42619 0.40576 0.03000
H 	H 	0.24710 0.44170 0.49010 0.02600
C 	C 	0.27311 0.44101 0.29481 -0.13000
C 	C 	0.23775 0.41856 0.17070 0.03800
H 	H 	0.27160 0.42910 0.09550 0.03400
C 	C 	0.15373 0.38102 0.15694 -0.08700
H 	H 	0.12950 0.36560 0.07260 0.06700
C 	C 	0.36310 0.48286 0.30594 0.40300
O 	O 	0.40953 0.49073 0.42053 -0.51800
O 	O 	0.38587 0.50914 0.20448 -0.44100
C 	C 	0.88320 0.73420 0.14800 -0.03500
H 	H 	0.92830 0.73100 0.08130 0.06000
C 	C 	0.80210 0.69350 0.14970 0.00700
H 	H 	0.79080 0.66310 0.08210 0.02700
C 	C 	0.75030 0.74320 0.34260 -0.07200
H 	H 	0.70300 0.74670 0.40660 0.06000
C 	C 	0.83090 0.78400 0.34350 -0.11000
H 	H 	0.84060 0.81460 0.41080 0.06600
Cd	Cd	0.48456 0.57311 0.08092 1.24300
O 	O 	0.99524 0.86610 0.12790 -0.29400
C 	C 	0.10292 0.78022 0.25308 -0.03400
C 	C 	0.14280 0.75717 0.37270 0.06100
H 	H 	0.11750 0.77000 0.45280 0.02000
C 	C 	0.22110 0.71456 0.37310 0.08000
H 	H 	0.24870 0.69730 0.45420 0.00300
C 	C 	0.25989 0.69683 0.25457 -0.06900
C 	C 	0.21411 0.71939 0.13671 -0.37800
H 	H 	0.23660 0.70520 0.05590 0.14700
C 	C 	0.13617 0.76220 0.13385 -0.31900
H 	H 	0.10670 0.77850 0.05280 0.13700
C 	C 	0.34752 0.65268 0.25328 0.36700
O 	O 	0.37953 0.62972 0.36209 -0.42200
O 	O 	0.38002 0.64349 0.14194 -0.43100
O 	O 	0.99540 0.28230 0.37179 -0.19300
C 	C 	0.89512 0.36601 0.23172 0.03500
C 	C 	0.86173 0.38859 0.10768 -0.09400
H 	H 	0.89650 0.37850 0.03300 0.07700
C 	C 	0.77682 0.42619 0.09424 0.03700
H 	H 	0.75290 0.44170 0.00990 0.02400
C 	C 	0.72689 0.44101 0.20519 -0.13400
C 	C 	0.76225 0.41856 0.32930 0.04600
H 	H 	0.72840 0.42910 0.40450 0.03200
C 	C 	0.84627 0.38102 0.34306 -0.09700
H 	H 	0.87050 0.36560 0.42740 0.07500
C 	C 	0.63690 0.48286 0.19406 0.40500
O 	O 	0.59047 0.49073 0.07947 -0.51800
O 	O 	0.61413 0.50914 0.29552 -0.44200
C 	C 	0.11680 0.73420 0.35200 -0.12400
H 	H 	0.07170 0.73100 0.41870 0.07000
C 	C 	0.19790 0.69350 0.35030 -0.08700
H 	H 	0.20920 0.66310 0.41790 0.05700
C 	C 	0.24970 0.74320 0.15740 0.35100
H 	H 	0.29700 0.74670 0.09340 -0.07200
C 	C 	0.16910 0.78400 0.15650 0.27500
H 	H 	0.15940 0.81460 0.08920 -0.05500
Cd	Cd	0.48456 0.42689 0.58092 1.24200
O 	O 	0.99524 0.13390 0.62790 -0.28900
C 	C 	0.10292 0.21978 0.75308 -0.03400
C 	C 	0.14280 0.24283 0.87270 0.07000
H 	H 	0.11750 0.23000 0.95280 0.01600
C 	C 	0.22110 0.28544 0.87310 0.09000
H 	H 	0.24870 0.30270 0.95420 -0.00100
C 	C 	0.25989 0.30317 0.75457 -0.06800
C 	C 	0.21411 0.28061 0.63671 -0.42000
H 	H 	0.23660 0.29480 0.55590 0.15800
C 	C 	0.13617 0.23780 0.63385 -0.35400
H 	H 	0.10670 0.22150 0.55280 0.14600
C 	C 	0.34752 0.34732 0.75328 0.36700
O 	O 	0.37953 0.37028 0.86209 -0.42200
O 	O 	0.38002 0.35651 0.64194 -0.43200
O 	O 	0.99540 0.71770 0.87179 -0.18800
C 	C 	0.89512 0.63399 0.73172 0.04200
C 	C 	0.86173 0.61141 0.60768 -0.09800
H 	H 	0.89650 0.62150 0.53300 0.08000
C 	C 	0.77682 0.57381 0.59424 0.04000
H 	H 	0.75290 0.55830 0.50990 0.02300
C 	C 	0.72689 0.55899 0.70519 -0.13600
C 	C 	0.76225 0.58144 0.82930 0.04900
H 	H 	0.72840 0.57090 0.90450 0.03000
C 	C 	0.84627 0.61898 0.84306 -0.10100
H 	H 	0.87050 0.63440 0.92740 0.07700
C 	C 	0.63690 0.51714 0.69406 0.40600
O 	O 	0.59047 0.50927 0.57947 -0.51800
O 	O 	0.61413 0.49086 0.79552 -0.44300
C 	C 	0.11680 0.26580 0.85200 -0.13500
H 	H 	0.07170 0.26900 0.91870 0.07100
C 	C 	0.19790 0.30650 0.85030 -0.09600
H 	H 	0.20920 0.33690 0.91790 0.05900
C 	C 	0.24970 0.25680 0.65740 0.39200
H 	H 	0.29700 0.25330 0.59340 -0.08600
C 	C 	0.16910 0.21600 0.65650 0.31100
H 	H 	0.15940 0.18540 0.58920 -0.06700
Cd	Cd	0.51544 0.42689 0.91908 1.24200
O 	O 	0.00476 0.13390 0.87210 -0.33300
C 	C 	0.89708 0.21978 0.74692 0.01200
C 	C 	0.85720 0.24283 0.62730 -0.04700
H 	H 	0.88250 0.23000 0.54720 0.05700
C 	C 	0.77890 0.28544 0.62690 -0.00900
H 	H 	0.75130 0.30270 0.54580 0.03200
C 	C 	0.74011 0.30317 0.74543 -0.09000
C 	C 	0.78589 0.28061 0.86329 0.10700
H 	H 	0.76340 0.29480 0.94410 0.00100
C 	C 	0.86383 0.23780 0.86615 0.06700
H 	H 	0.89330 0.22150 0.94720 0.02900
C 	C 	0.65248 0.34732 0.74672 0.37700
O 	O 	0.62047 0.37028 0.63791 -0.42300
O 	O 	0.61998 0.35651 0.85806 -0.43500
O 	O 	0.00460 0.71770 0.62821 -0.23000
C 	C 	0.10488 0.63399 0.76828 0.01200
C 	C 	0.13827 0.61141 0.89232 -0.09100
H 	H 	0.10350 0.62150 0.96700 0.07100
C 	C 	0.22318 0.57381 0.90576 0.03100
H 	H 	0.24710 0.55830 0.99010 0.02400
C 	C 	0.27311 0.55899 0.79481 -0.13100
C 	C 	0.23775 0.58144 0.67070 0.03800
H 	H 	0.27160 0.57090 0.59550 0.03300
C 	C 	0.15373 0.61898 0.65694 -0.08900
H 	H 	0.12950 0.63440 0.57260 0.06600
C 	C 	0.36310 0.51714 0.80594 0.40300
O 	O 	0.40953 0.50927 0.92053 -0.51900
O 	O 	0.38587 0.49086 0.70448 -0.44200
C 	C 	0.88320 0.26580 0.64800 -0.02900
H 	H 	0.92830 0.26900 0.58130 0.06000
C 	C 	0.80210 0.30650 0.64970 0.01400
H 	H 	0.79080 0.33690 0.58210 0.02500
C 	C 	0.75030 0.25680 0.84260 -0.10400
H 	H 	0.70300 0.25330 0.90660 0.07000
C 	C 	0.83090 0.21600 0.84350 -0.14100
H 	H 	0.84060 0.18540 0.91080 0.07600
S 	S 	0.00000 0.83146 0.25000 0.28600
S 	S 	0.00000 0.16854 0.75000 0.27700
S 	S 	-0.00000 0.31570 0.25000 0.20800
S 	S 	0.00000 0.68430 0.75000 0.19900
Cd	Cd	0.01544 0.07311 0.41908 1.23300
O 	O 	0.50476 0.36610 0.37210 -0.33100
C 	C 	0.39708 0.28022 0.24692 -0.03500
C 	C 	0.35720 0.25717 0.12730 0.01100
H 	H 	0.38250 0.27000 0.04720 0.03600
C 	C 	0.27890 0.21456 0.12690 0.03400
H 	H 	0.25130 0.19730 0.04580 0.01600
C 	C 	0.24011 0.19683 0.24543 -0.07800
C 	C 	0.28589 0.21939 0.36329 -0.14500
H 	H 	0.26340 0.20520 0.44410 0.07600
C 	C 	0.36383 0.26220 0.36615 -0.12500
H 	H 	0.39330 0.27850 0.44720 0.08200
C 	C 	0.15248 0.15268 0.24672 0.37200
O 	O 	0.12047 0.12972 0.13791 -0.42800
O 	O 	0.11998 0.14349 0.35806 -0.44000
O 	O 	0.50460 0.78230 0.12821 -0.22800
C 	C 	0.60488 0.86601 0.26828 0.00200
C 	C 	0.63827 0.88859 0.39232 -0.07400
H 	H 	0.60350 0.87850 0.46700 0.07100
C 	C 	0.72318 0.92619 0.40576 0.02500
H 	H 	0.74710 0.94170 0.49010 0.02800
C 	C 	0.77311 0.94101 0.29481 -0.12200
C 	C 	0.73775 0.91856 0.17070 0.03400
H 	H 	0.77160 0.92910 0.09550 0.03700
C 	C 	0.65373 0.88102 0.15694 -0.07200
H 	H 	0.62950 0.86560 0.07260 0.06500
C 	C 	0.86310 0.98286 0.30594 0.40200
O 	O 	0.90953 0.99073 0.42053 -0.50800
O 	O 	0.88587 0.00914 0.20448 -0.43700
C 	C 	0.38320 0.23420 0.14800 -0.07000
H 	H 	0.42830 0.23100 0.08130 0.06300
C 	C 	0.30210 0.19350 0.14970 -0.03800
H 	H 	0.29080 0.16310 0.08210 0.04200
C 	C 	0.25030 0.24320 0.34260 0.12800
H 	H 	0.20300 0.24670 0.40660 -0.00500
C 	C 	0.33090 0.28400 0.34350 0.07800
H 	H 	0.34060 0.31460 0.41080 0.00500
Cd	Cd	0.98456 0.07311 0.08092 1.25000
O 	O 	0.49524 0.36610 0.12790 -0.33000
C 	C 	0.60292 0.28022 0.25308 -0.03700
C 	C 	0.64280 0.25717 0.37270 0.03200
H 	H 	0.61750 0.27000 0.45280 0.03200
C 	C 	0.72110 0.21456 0.37310 0.05000
H 	H 	0.74870 0.19730 0.45420 0.01700
C 	C 	0.75989 0.19683 0.25457 -0.07100
C 	C 	0.71411 0.21939 0.13671 -0.21100
H 	H 	0.73660 0.20520 0.05590 0.09600
C 	C 	0.63617 0.26220 0.13385 -0.18100
H 	H 	0.60670 0.27850 0.05280 0.09700
C 	C 	0.84752 0.15268 0.25328 0.36900
O 	O 	0.87953 0.12972 0.36209 -0.41600
O 	O 	0.88002 0.14349 0.14194 -0.42700
O 	O 	0.49540 0.78230 0.37179 -0.23100
C 	C 	0.39512 0.86601 0.23172 -0.00800
C 	C 	0.36173 0.88859 0.10768 -0.07600
H 	H 	0.39650 0.87850 0.03300 0.07000
C 	C 	0.27682 0.92619 0.09424 0.02200
H 	H 	0.25290 0.94170 0.00990 0.03000
C 	C 	0.22689 0.94101 0.20519 -0.12600
C 	C 	0.26225 0.91856 0.32930 0.02800
H 	H 	0.22840 0.92910 0.40450 0.03500
C 	C 	0.34627 0.88102 0.34306 -0.07900
H 	H 	0.37050 0.86560 0.42740 0.06300
C 	C 	0.13690 0.98286 0.19406 0.40100
O 	O 	0.09047 0.99073 0.07947 -0.52500
O 	O 	0.11413 0.00914 0.29552 -0.44800
C 	C 	0.61680 0.23420 0.35200 -0.09000
H 	H 	0.57170 0.23100 0.41870 0.06800
C 	C 	0.69790 0.19350 0.35030 -0.05800
H 	H 	0.70920 0.16310 0.41790 0.04800
C 	C 	0.74970 0.24320 0.15740 0.19000
H 	H 	0.79700 0.24670 0.09340 -0.02100
C 	C 	0.66910 0.28400 0.15650 0.13700
H 	H 	0.65940 0.31460 0.08920 -0.01100
Cd	Cd	0.98456 0.92689 0.58092 1.25100
O 	O 	0.49524 0.63390 0.62790 -0.33100
C 	C 	0.60292 0.71978 0.75308 -0.03800
C 	C 	0.64280 0.74283 0.87270 0.03200
H 	H 	0.61750 0.73000 0.95280 0.03100
C 	C 	0.72110 0.78544 0.87310 0.05000
H 	H 	0.74870 0.80270 0.95420 0.01600
C 	C 	0.75989 0.80317 0.75457 -0.07100
C 	C 	0.71411 0.78061 0.63671 -0.21500
H 	H 	0.73660 0.79480 0.55590 0.09700
C 	C 	0.63617 0.73780 0.63385 -0.18300
H 	H 	0.60670 0.72150 0.55280 0.09800
C 	C 	0.84752 0.84732 0.75328 0.36900
O 	O 	0.87953 0.87028 0.86209 -0.41500
O 	O 	0.88002 0.85651 0.64194 -0.42600
O 	O 	0.49540 0.21770 0.87179 -0.23200
C 	C 	0.39512 0.13399 0.73172 -0.00900
C 	C 	0.36173 0.11141 0.60768 -0.07700
H 	H 	0.39650 0.12150 0.53300 0.06900
C 	C 	0.27682 0.07381 0.59424 0.02200
H 	H 	0.25290 0.05830 0.50990 0.02800
C 	C 	0.22689 0.05899 0.70519 -0.12800
C 	C 	0.26225 0.08144 0.82930 0.02800
H 	H 	0.22840 0.07090 0.90450 0.03400
C 	C 	0.34627 0.11898 0.84306 -0.08000
H 	H 	0.37050 0.13440 0.92740 0.06300
C 	C 	0.13690 0.01714 0.69406 0.40200
O 	O 	0.09047 0.00927 0.57947 -0.52900
O 	O 	0.11413 0.99086 0.79552 -0.45100
C 	C 	0.61680 0.76580 0.85200 -0.09000
H 	H 	0.57170 0.76900 0.91870 0.06800
C 	C 	0.69790 0.80650 0.85030 -0.05800
H 	H 	0.70920 0.83690 0.91790 0.04800
C 	C 	0.74970 0.75680 0.65740 0.19300
H 	H 	0.79700 0.75330 0.59340 -0.02100
C 	C 	0.66910 0.71600 0.65650 0.14000
H 	H 	0.65940 0.68540 0.58920 -0.01200
Cd	Cd	0.01544 0.92689 0.91908 1.23100
O 	O 	0.50476 0.63390 0.87210 -0.33100
C 	C 	0.39708 0.71978 0.74692 -0.03500
C 	C 	0.35720 0.74283 0.62730 0.01400
H 	H 	0.38250 0.73000 0.54720 0.03500
C 	C 	0.27890 0.78544 0.62690 0.03700
H 	H 	0.25130 0.80270 0.54580 0.01400
C 	C 	0.24011 0.80317 0.74543 -0.07800
C 	C 	0.28589 0.78061 0.86329 -0.15300
H 	H 	0.26340 0.79480 0.94410 0.07700
C 	C 	0.36383 0.73780 0.86615 -0.13300
H 	H 	0.39330 0.72150 0.94720 0.08300
C 	C 	0.15248 0.84732 0.74672 0.37200
O 	O 	0.12047 0.87028 0.63791 -0.43000
O 	O 	0.11998 0.85651 0.85806 -0.44300
O 	O 	0.50460 0.21770 0.62821 -0.22900
C 	C 	0.60488 0.13399 0.76828 0.00200
C 	C 	0.63827 0.11141 0.89232 -0.07400
H 	H 	0.60350 0.12150 0.96700 0.07000
C 	C 	0.72318 0.07381 0.90576 0.02400
H 	H 	0.74710 0.05830 0.99010 0.02800
C 	C 	0.77311 0.05899 0.79481 -0.12100
C 	C 	0.73775 0.08144 0.67070 0.03400
H 	H 	0.77160 0.07090 0.59550 0.03700
C 	C 	0.65373 0.11898 0.65694 -0.07100
H 	H 	0.62950 0.13440 0.57260 0.06500
C 	C 	0.86310 0.01714 0.80594 0.40200
O 	O 	0.90953 0.00927 0.92053 -0.50600
O 	O 	0.88587 0.99086 0.70448 -0.43500
C 	C 	0.38320 0.76580 0.64800 -0.07400
H 	H 	0.42830 0.76900 0.58130 0.06400
C 	C 	0.30210 0.80650 0.64970 -0.04000
H 	H 	0.29080 0.83690 0.58210 0.04200
C 	C 	0.25030 0.75680 0.84260 0.13700
H 	H 	0.20300 0.75330 0.90660 -0.00900
C 	C 	0.33090 0.71600 0.84350 0.08500
H 	H 	0.34060 0.68540 0.91080 0.00200
S 	S 	0.50000 0.33146 0.25000 0.34700
S 	S 	0.50000 0.66854 0.75000 0.34700
S 	S 	0.50000 0.81570 0.25000 0.27400
S 	S 	0.50000 0.18430 0.75000 0.27500
