data_crystal

_cell_length_a 11.65420
_cell_length_b 19.71900
_cell_length_c 15.08980
_cell_angle_alpha 90.00000
_cell_angle_beta  91.30700
_cell_angle_gamma 90.00000

_symmetry_space_group_name_	'P 1'
_symmetry_space_group_name_H-M	'P 1'

loop_
_symmetry_equiv_pos_as_xyz
  x,y,z

loop_
_atom_site_label
_atom_site_type_symbol
_atom_site_fract_x
_atom_site_fract_y
_atom_site_fract_z
_atom_site_charge
Cd	Cd	0.53639 0.25202 0.29096 1.13300
N 	N 	0.37500 0.18112 0.31573 -0.27300
N 	N 	0.03721 0.05272 0.44120 -0.08300
N 	N 	0.67804 0.32667 0.24774 -0.28300
N 	N 	0.95311 0.47999 0.08307 -0.08100
N 	N 	0.64024 0.16477 0.22581 -0.27100
N 	N 	0.88641 0.00991 0.03394 -0.08700
C 	C 	0.31248 0.19176 0.38845 0.07300
H 	H 	0.34050 0.22290 0.43180 -0.05300
C 	C 	0.20987 0.15948 0.40270 -0.17800
H 	H 	0.16840 0.16870 0.45480 0.08100
C 	C 	0.16713 0.11346 0.34098 0.12400
C 	C 	0.23219 0.10128 0.26687 -0.18500
H 	H 	0.20710 0.06920 0.22370 0.07400
C 	C 	0.33415 0.13623 0.25621 0.07900
H 	H 	0.37690 0.12800 0.20450 -0.03800
C 	C 	0.05079 0.08114 0.35239 -0.15300
H 	H 	0.99040 0.11560 0.34120 0.06500
H 	H 	0.04020 0.04460 0.30790 0.06100
C 	C 	0.91555 0.04115 0.45838 -0.05800
H 	H 	0.88290 0.00960 0.41340 0.04400
H 	H 	0.87330 0.08460 0.45360 0.03000
C 	C 	0.09911 0.98853 0.44992 -0.04800
H 	H 	0.18170 0.99610 0.43940 0.03600
H 	H 	0.06960 0.95610 0.40480 0.02900
C 	C 	0.67912 0.35632 0.16755 0.08700
H 	H 	0.61570 0.34900 0.12800 -0.04700
C 	C 	0.76772 0.39686 0.13988 -0.18900
H 	H 	0.76470 0.41680 0.08260 0.09500
C 	C 	0.86151 0.40833 0.19647 0.13300
C 	C 	0.86060 0.37773 0.27919 -0.19000
H 	H 	0.92320 0.38410 0.31980 0.07600
C 	C 	0.76853 0.33805 0.30230 0.08500
H 	H 	0.76920 0.31780 0.35950 -0.05800
C 	C 	0.95987 0.45436 0.17334 -0.15700
H 	H 	0.96140 0.49330 0.21480 0.07100
H 	H 	0.03280 0.42920 0.18180 0.06200
C 	C 	0.01783 0.54311 0.07393 -0.04900
H 	H 	0.10000 0.53480 0.08790 0.04600
H 	H 	0.98940 0.57720 0.11620 0.02100
C 	C 	0.99563 0.43019 0.01973 -0.05800
H 	H 	0.95220 0.38730 0.02540 0.03100
H 	H 	0.07760 0.42060 0.03300 0.03300
C 	C 	0.69808 0.11797 0.27322 0.09100
H 	H 	0.70180 0.12240 0.33590 -0.04600
C 	C 	0.75246 0.06359 0.23454 -0.18800
H 	H 	0.79190 0.03130 0.27070 0.08500
C 	C 	0.74968 0.05590 0.14337 0.13200
C 	C 	0.69331 0.10597 0.09407 -0.18500
H 	H 	0.69160 0.10400 0.03120 0.07900
C 	C 	0.64011 0.15828 0.13703 0.08700
H 	H 	0.60120 0.19160 0.10220 -0.04900
C 	C 	0.80042 0.99385 0.10047 -0.15700
H 	H 	0.83650 0.96510 0.14710 0.06100
H 	H 	0.73780 0.96730 0.07180 0.06500
C 	C 	0.98895 0.03959 0.07738 -0.06500
H 	H 	0.01920 0.00800 0.12320 0.03500
H 	H 	0.96790 0.08250 0.10700 0.03800
C 	C 	0.91944 0.94667 0.98966 -0.03600
H 	H 	0.85130 0.92650 0.95950 0.02000
H 	H 	0.94870 0.91380 0.03430 0.00700
Cd	Cd	0.46361 0.74798 0.70904 1.13200
N 	N 	0.62500 0.81888 0.68427 -0.27400
N 	N 	0.96279 0.94728 0.55880 -0.08400
N 	N 	0.32196 0.67333 0.75226 -0.28400
N 	N 	0.04689 0.52001 0.91693 -0.08200
N 	N 	0.35976 0.83523 0.77419 -0.27200
N 	N 	0.11359 0.99009 0.96606 -0.08800
C 	C 	0.68752 0.80824 0.61155 0.07200
H 	H 	0.65950 0.77710 0.56820 -0.05300
C 	C 	0.79013 0.84052 0.59730 -0.17800
H 	H 	0.83160 0.83130 0.54520 0.08100
C 	C 	0.83287 0.88654 0.65902 0.12400
C 	C 	0.76781 0.89872 0.73313 -0.18500
H 	H 	0.79290 0.93080 0.77630 0.07400
C 	C 	0.66585 0.86377 0.74379 0.07900
H 	H 	0.62310 0.87200 0.79550 -0.03800
C 	C 	0.94921 0.91886 0.64761 -0.15300
H 	H 	0.00960 0.88440 0.65880 0.06500
H 	H 	0.95980 0.95540 0.69210 0.06100
C 	C 	0.08445 0.95885 0.54162 -0.05800
H 	H 	0.11710 0.99040 0.58660 0.04400
H 	H 	0.12670 0.91540 0.54640 0.03000
C 	C 	0.90089 0.01147 0.55008 -0.04800
H 	H 	0.81830 0.00390 0.56060 0.03600
H 	H 	0.93040 0.04390 0.59520 0.02900
C 	C 	0.32088 0.64368 0.83245 0.08700
H 	H 	0.38430 0.65100 0.87200 -0.04700
C 	C 	0.23228 0.60314 0.86012 -0.18900
H 	H 	0.23530 0.58320 0.91740 0.09500
C 	C 	0.13849 0.59167 0.80353 0.13300
C 	C 	0.13940 0.62227 0.72081 -0.19000
H 	H 	0.07680 0.61590 0.68020 0.07600
C 	C 	0.23147 0.66195 0.69770 0.08500
H 	H 	0.23080 0.68220 0.64050 -0.05800
C 	C 	0.04013 0.54564 0.82666 -0.15700
H 	H 	0.03860 0.50670 0.78520 0.07100
H 	H 	0.96720 0.57080 0.81820 0.06200
C 	C 	0.98217 0.45689 0.92607 -0.04900
H 	H 	0.90000 0.46520 0.91210 0.04600
H 	H 	0.01060 0.42280 0.88380 0.02100
C 	C 	0.00437 0.56981 0.98027 -0.05800
H 	H 	0.04780 0.61270 0.97460 0.03100
H 	H 	0.92240 0.57940 0.96700 0.03300
C 	C 	0.30192 0.88203 0.72678 0.09100
H 	H 	0.29820 0.87760 0.66410 -0.04600
C 	C 	0.24754 0.93641 0.76546 -0.18800
H 	H 	0.20810 0.96870 0.72930 0.08500
C 	C 	0.25032 0.94410 0.85663 0.13200
C 	C 	0.30669 0.89403 0.90593 -0.18500
H 	H 	0.30840 0.89600 0.96880 0.07900
C 	C 	0.35989 0.84172 0.86297 0.08700
H 	H 	0.39880 0.80840 0.89780 -0.04900
C 	C 	0.19958 0.00615 0.89953 -0.15700
H 	H 	0.16350 0.03490 0.85290 0.06100
H 	H 	0.26220 0.03270 0.92820 0.06500
C 	C 	0.01105 0.96041 0.92262 -0.06500
H 	H 	0.98080 0.99200 0.87680 0.03500
H 	H 	0.03210 0.91750 0.89300 0.03800
C 	C 	0.08056 0.05333 0.01034 -0.03600
H 	H 	0.14870 0.07350 0.04050 0.02000
H 	H 	0.05130 0.08620 0.96570 0.00700
Cd	Cd	0.96361 0.75202 0.20904 1.13200
N 	N 	0.12500 0.68112 0.18427 -0.27400
N 	N 	0.46279 0.55272 0.05880 -0.08400
N 	N 	0.82196 0.82667 0.25226 -0.28400
N 	N 	0.54689 0.97999 0.41693 -0.08200
N 	N 	0.85976 0.66477 0.27419 -0.27200
N 	N 	0.61359 0.50991 0.46606 -0.08800
C 	C 	0.18752 0.69176 0.11155 0.07200
H 	H 	0.15950 0.72290 0.06820 -0.05300
C 	C 	0.29013 0.65948 0.09730 -0.17700
H 	H 	0.33160 0.66870 0.04520 0.08100
C 	C 	0.33287 0.61346 0.15902 0.12400
C 	C 	0.26781 0.60128 0.23313 -0.18400
H 	H 	0.29290 0.56920 0.27630 0.07400
C 	C 	0.16585 0.63623 0.24379 0.07900
H 	H 	0.12310 0.62800 0.29550 -0.03700
C 	C 	0.44921 0.58114 0.14761 -0.15200
H 	H 	0.50960 0.61560 0.15880 0.06400
H 	H 	0.45980 0.54460 0.19210 0.06100
C 	C 	0.58445 0.54115 0.04162 -0.05900
H 	H 	0.61710 0.50960 0.08660 0.04500
H 	H 	0.62670 0.58460 0.04640 0.03000
C 	C 	0.40089 0.48853 0.05008 -0.04800
H 	H 	0.31830 0.49610 0.06060 0.03700
H 	H 	0.43040 0.45610 0.09520 0.02800
C 	C 	0.82088 0.85632 0.33245 0.08700
H 	H 	0.88430 0.84900 0.37200 -0.04700
C 	C 	0.73228 0.89686 0.36012 -0.18900
H 	H 	0.73530 0.91680 0.41740 0.09500
C 	C 	0.63849 0.90833 0.30353 0.13200
C 	C 	0.63940 0.87773 0.22081 -0.19000
H 	H 	0.57680 0.88410 0.18020 0.07600
C 	C 	0.73147 0.83805 0.19770 0.08400
H 	H 	0.73080 0.81780 0.14050 -0.05800
C 	C 	0.54013 0.95436 0.32666 -0.15500
H 	H 	0.53860 0.99330 0.28520 0.07000
H 	H 	0.46720 0.92920 0.31820 0.06100
C 	C 	0.48217 0.04311 0.42607 -0.05500
H 	H 	0.40000 0.03480 0.41210 0.04700
H 	H 	0.51060 0.07720 0.38380 0.02400
C 	C 	0.50437 0.93019 0.48027 -0.05200
H 	H 	0.54780 0.88730 0.47460 0.03000
H 	H 	0.42240 0.92060 0.46700 0.03100
C 	C 	0.80192 0.61797 0.22678 0.09000
H 	H 	0.79820 0.62240 0.16410 -0.04600
C 	C 	0.74754 0.56359 0.26546 -0.18700
H 	H 	0.70810 0.53130 0.22930 0.08500
C 	C 	0.75032 0.55590 0.35663 0.13100
C 	C 	0.80669 0.60597 0.40593 -0.18400
H 	H 	0.80840 0.60400 0.46880 0.07900
C 	C 	0.85989 0.65828 0.36297 0.08600
H 	H 	0.89880 0.69160 0.39780 -0.04900
C 	C 	0.69958 0.49385 0.39953 -0.15400
H 	H 	0.66350 0.46510 0.35290 0.06000
H 	H 	0.76220 0.46730 0.42820 0.06500
C 	C 	0.51105 0.53959 0.42262 -0.06300
H 	H 	0.48080 0.50800 0.37680 0.03400
H 	H 	0.53210 0.58250 0.39300 0.03800
C 	C 	0.58056 0.44667 0.51034 -0.03900
H 	H 	0.64870 0.42650 0.54050 0.02100
H 	H 	0.55130 0.41380 0.46570 0.00900
Cd	Cd	0.03639 0.24798 0.79096 1.13200
N 	N 	0.87500 0.31888 0.81573 -0.27400
N 	N 	0.53721 0.44728 0.94120 -0.08400
N 	N 	0.17804 0.17333 0.74774 -0.28400
N 	N 	0.45311 0.02001 0.58307 -0.08200
N 	N 	0.14024 0.33523 0.72581 -0.27200
N 	N 	0.38641 0.49009 0.53394 -0.08800
C 	C 	0.81248 0.30824 0.88845 0.07200
H 	H 	0.84050 0.27710 0.93180 -0.05300
C 	C 	0.70987 0.34052 0.90270 -0.17700
H 	H 	0.66840 0.33130 0.95480 0.08100
C 	C 	0.66713 0.38654 0.84098 0.12400
C 	C 	0.73219 0.39872 0.76687 -0.18400
H 	H 	0.70710 0.43080 0.72370 0.07400
C 	C 	0.83415 0.36377 0.75621 0.07900
H 	H 	0.87690 0.37200 0.70450 -0.03700
C 	C 	0.55079 0.41886 0.85239 -0.15200
H 	H 	0.49040 0.38440 0.84120 0.06400
H 	H 	0.54020 0.45540 0.80790 0.06100
C 	C 	0.41555 0.45885 0.95838 -0.05900
H 	H 	0.38290 0.49040 0.91340 0.04500
H 	H 	0.37330 0.41540 0.95360 0.03000
C 	C 	0.59911 0.51147 0.94992 -0.04800
H 	H 	0.68170 0.50390 0.93940 0.03700
H 	H 	0.56960 0.54390 0.90480 0.02800
C 	C 	0.17912 0.14368 0.66755 0.08700
H 	H 	0.11570 0.15100 0.62800 -0.04700
C 	C 	0.26772 0.10314 0.63988 -0.18900
H 	H 	0.26470 0.08320 0.58260 0.09500
C 	C 	0.36151 0.09167 0.69647 0.13200
C 	C 	0.36060 0.12227 0.77919 -0.19000
H 	H 	0.42320 0.11590 0.81980 0.07600
C 	C 	0.26853 0.16195 0.80230 0.08400
H 	H 	0.26920 0.18220 0.85950 -0.05800
C 	C 	0.45987 0.04564 0.67334 -0.15500
H 	H 	0.46140 0.00670 0.71480 0.07000
H 	H 	0.53280 0.07080 0.68180 0.06100
C 	C 	0.51783 0.95689 0.57393 -0.05500
H 	H 	0.60000 0.96520 0.58790 0.04700
H 	H 	0.48940 0.92280 0.61620 0.02400
C 	C 	0.49563 0.06981 0.51973 -0.05200
H 	H 	0.45220 0.11270 0.52540 0.03000
H 	H 	0.57760 0.07940 0.53300 0.03100
C 	C 	0.19808 0.38203 0.77322 0.09000
H 	H 	0.20180 0.37760 0.83590 -0.04600
C 	C 	0.25246 0.43641 0.73454 -0.18700
H 	H 	0.29190 0.46870 0.77070 0.08500
C 	C 	0.24968 0.44410 0.64337 0.13100
C 	C 	0.19331 0.39403 0.59407 -0.18400
H 	H 	0.19160 0.39600 0.53120 0.07900
C 	C 	0.14011 0.34172 0.63703 0.08600
H 	H 	0.10120 0.30840 0.60220 -0.04900
C 	C 	0.30042 0.50615 0.60047 -0.15400
H 	H 	0.33650 0.53490 0.64710 0.06000
H 	H 	0.23780 0.53270 0.57180 0.06500
C 	C 	0.48895 0.46041 0.57738 -0.06300
H 	H 	0.51920 0.49200 0.62320 0.03400
H 	H 	0.46790 0.41750 0.60700 0.03800
C 	C 	0.41944 0.55333 0.48966 -0.03900
H 	H 	0.35130 0.57350 0.45950 0.02100
H 	H 	0.44870 0.58620 0.53430 0.00900
