data_crystal

_cell_length_a 11.03800
_cell_length_b 11.24900
_cell_length_c 16.13200
_cell_angle_alpha 75.24000
_cell_angle_beta  82.80000
_cell_angle_gamma 75.26000

_symmetry_space_group_name_	'P 1'
_symmetry_space_group_name_H-M	'P 1'

loop_
_symmetry_equiv_pos_as_xyz
  x,y,z

loop_
_atom_site_label
_atom_site_type_symbol
_atom_site_fract_x
_atom_site_fract_y
_atom_site_fract_z
_atom_site_charge
O 	O 	0.75850 0.15330 0.21760 -0.53700
C 	C 	0.71620 0.25000 0.24610 0.43500
C 	C 	0.76220 0.36590 0.20000 -0.15000
N 	N 	0.97500 0.45510 0.01460 -0.08400
O 	O 	0.85160 0.93200 0.00760 -0.51800
C 	C 	0.90490 0.92500 0.93480 0.48900
O 	O 	0.02070 0.92410 0.91540 -0.53100
O 	O 	0.42470 0.00530 0.75870 -0.55300
O 	O 	0.42900 0.98110 0.89780 -0.45600
C 	C 	0.48640 0.97790 0.82590 0.38600
C 	C 	0.62560 0.93890 0.81650 -0.14500
C 	C 	0.69830 0.94040 0.88120 0.08000
H 	H 	0.65986 0.95777 0.93284 0.01000
C 	C 	0.83010 0.91560 0.86750 -0.17200
O 	O 	0.38800 0.88140 0.45980 -0.46500
O 	O 	0.37940 0.81500 0.34350 -0.40400
C 	C 	0.32730 0.84380 0.41210 0.29700
C 	C 	0.19480 0.83730 0.43790 -0.07000
C 	C 	0.14670 0.83690 0.52100 -0.05900
H 	H 	0.19905 0.83568 0.56229 0.06900
C 	C 	0.11720 0.83990 0.37660 0.02700
H 	H 	0.15014 0.83853 0.32078 0.04100
Sm	Sm	0.58754 0.83987 0.37340 1.76800
Sm	Sm	0.79283 0.00495 0.13442 2.09200
O 	O 	0.93520 0.90280 0.25090 -0.46900
O 	O 	0.64090 0.71290 0.27350 -0.51500
O 	O 	0.77590 0.79510 0.17470 -0.53100
N 	N 	0.97840 0.84810 0.63040 -0.08200
O 	O 	0.64180 0.25450 0.31050 -0.32500
C 	C 	0.76610 0.58550 0.18500 -0.15700
O 	O 	0.79710 0.83270 0.35400 -0.56900
N 	N 	0.86200 0.85930 0.64540 -0.08900
C 	C 	0.72490 0.70740 0.21290 0.49200
C 	C 	0.94020 0.84330 0.48080 -0.01400
H 	H 	0.85548 0.84565 0.49492 0.01900
C 	C 	0.84520 0.36180 0.12950 -0.00200
H 	H 	0.87254 0.28764 0.11016 0.02300
C 	C 	0.72180 0.47960 0.22810 0.07800
H 	H 	0.66524 0.48368 0.27574 0.01000
C 	C 	0.99100 0.84440 0.39710 -0.12200
C 	C 	0.81400 0.87960 0.72850 0.03200
C 	C 	0.90100 0.86060 0.32790 0.45900
C 	C 	0.02090 0.83840 0.54380 0.05600
C 	C 	0.68530 0.90570 0.74160 0.00600
H 	H 	0.63731 0.90107 0.69955 0.00300
C 	C 	0.88910 0.47010 0.08640 0.04200
C 	C 	0.84870 0.58010 0.11250 -0.00700
H 	H 	0.87597 0.65169 0.08207 0.05500
C 	C 	0.88740 0.88800 0.79180 0.01700
H 	H 	0.97409 0.87494 0.78217 0.04300
O 	O 	0.24150 0.84670 0.78240 -0.53800
C 	C 	0.28380 0.75000 0.75390 0.43400
C 	C 	0.23780 0.63410 0.80000 -0.15100
N 	N 	0.02500 0.54490 0.98540 -0.08500
O 	O 	0.14840 0.06800 0.99240 -0.51900
C 	C 	0.09510 0.07500 0.06520 0.48800
O 	O 	0.97930 0.07590 0.08460 -0.53100
O 	O 	0.57530 0.99470 0.24130 -0.55300
O 	O 	0.57100 0.01890 0.10220 -0.45600
C 	C 	0.51360 0.02210 0.17410 0.38600
C 	C 	0.37440 0.06110 0.18350 -0.14500
C 	C 	0.30170 0.05960 0.11880 0.08000
H 	H 	0.34014 0.04223 0.06716 0.01000
C 	C 	0.16990 0.08440 0.13250 -0.17200
O 	O 	0.61200 0.11860 0.54020 -0.46500
O 	O 	0.62060 0.18500 0.65650 -0.40400
C 	C 	0.67270 0.15620 0.58790 0.29700
C 	C 	0.80520 0.16270 0.56210 -0.07000
C 	C 	0.85330 0.16310 0.47900 -0.05900
H 	H 	0.80095 0.16432 0.43771 0.06900
C 	C 	0.88280 0.16010 0.62340 0.02700
H 	H 	0.84986 0.16147 0.67922 0.04100
Sm	Sm	0.41246 0.16013 0.62660 1.76800
Sm	Sm	0.20717 0.99505 0.86558 2.09200
O 	O 	0.06480 0.09720 0.74910 -0.46900
O 	O 	0.35910 0.28710 0.72650 -0.51500
O 	O 	0.22410 0.20490 0.82530 -0.53100
N 	N 	0.02160 0.15190 0.36960 -0.08200
O 	O 	0.35820 0.74550 0.68950 -0.32500
C 	C 	0.23390 0.41450 0.81500 -0.15700
O 	O 	0.20290 0.16730 0.64600 -0.56900
N 	N 	0.13800 0.14070 0.35460 -0.08900
C 	C 	0.27510 0.29260 0.78710 0.49200
C 	C 	0.05980 0.15670 0.51920 -0.01400
H 	H 	0.14452 0.15435 0.50508 0.01900
C 	C 	0.15480 0.63820 0.87050 -0.00200
H 	H 	0.12746 0.71236 0.88984 0.02300
C 	C 	0.27820 0.52040 0.77190 0.07800
H 	H 	0.33476 0.51632 0.72426 0.01000
C 	C 	0.00900 0.15560 0.60290 -0.12200
C 	C 	0.18600 0.12040 0.27150 0.03200
C 	C 	0.09900 0.13940 0.67210 0.45900
C 	C 	0.97910 0.16160 0.45620 0.05600
C 	C 	0.31470 0.09430 0.25840 0.00600
H 	H 	0.36269 0.09893 0.30045 0.00300
C 	C 	0.11090 0.52990 0.91360 0.04200
C 	C 	0.15130 0.41990 0.88750 -0.00700
H 	H 	0.12403 0.34831 0.91793 0.05500
C 	C 	0.11260 0.11200 0.20820 0.01700
H 	H 	0.02591 0.12506 0.21783 0.04300
