data_crystal

_cell_length_a 14.56620
_cell_length_b 14.56620
_cell_length_c 14.56620
_cell_angle_alpha 90.00000
_cell_angle_beta  90.00000
_cell_angle_gamma 90.00000

_symmetry_space_group_name_	'P 1'
_symmetry_space_group_name_H-M	'P 1'

loop_
_symmetry_equiv_pos_as_xyz
  x,y,z

loop_
_atom_site_label
_atom_site_type_symbol
_atom_site_fract_x
_atom_site_fract_y
_atom_site_fract_z
_atom_site_charge
Na	Na	-0.00000 0.50000 -0.00000 0.54500
Na	Na	0.50000 -0.00000 0.50000 0.58100
Na	Na	-0.00000 -0.00000 0.50000 0.54500
Na	Na	0.50000 0.50000 -0.00000 0.58100
Na	Na	0.50000 0.00000 -0.00000 0.54500
Na	Na	-0.00000 0.50000 0.50000 0.58100
Mn	Mn	-0.00000 0.50000 0.25000 1.26500
Mn	Mn	-0.00000 0.50000 0.75000 1.27000
Mn	Mn	0.50000 -0.00000 0.25000 1.26500
Mn	Mn	0.25000 -0.00000 0.50000 1.26500
Mn	Mn	0.75000 -0.00000 0.50000 1.27000
Mn	Mn	0.25000 0.50000 -0.00000 1.26500
Mn	Mn	0.50000 0.25000 -0.00000 1.26500
Mn	Mn	0.50000 0.75000 -0.00000 1.27000
Mn	Mn	0.50000 0.00000 0.75000 1.27000
Mn	Mn	-0.00000 0.25000 0.50000 1.26600
Mn	Mn	-0.00000 0.75000 0.50000 1.27100
Mn	Mn	0.75000 0.50000 -0.00000 1.27100
O 	O 	0.85060 0.50000 0.25820 -0.30300
O 	O 	0.35060 0.00000 0.75820 -0.42600
O 	O 	0.14940 0.50000 0.25820 -0.39800
O 	O 	0.64940 0.00000 0.75820 -0.40100
O 	O 	0.14940 0.50000 0.74180 -0.37700
O 	O 	0.64940 -0.00000 0.24180 -0.44500
O 	O 	0.85060 0.50000 0.74180 -0.28200
O 	O 	0.35060 -0.00000 0.24180 -0.47100
O 	O 	0.25820 0.85060 0.50000 -0.30300
O 	O 	0.75820 0.35060 -0.00000 -0.42600
O 	O 	0.25820 0.14940 0.50000 -0.39800
O 	O 	0.75820 0.64940 -0.00000 -0.40100
O 	O 	0.74180 0.14940 0.50000 -0.37700
O 	O 	0.24180 0.64940 -0.00000 -0.44500
O 	O 	0.74180 0.85060 0.50000 -0.28200
O 	O 	0.24180 0.35060 -0.00000 -0.47100
O 	O 	0.50000 0.25820 0.85060 -0.30300
O 	O 	0.00000 0.75820 0.35060 -0.42600
O 	O 	0.50000 0.25820 0.14940 -0.39800
O 	O 	0.00000 0.75820 0.64940 -0.40100
O 	O 	0.50000 0.74180 0.14940 -0.37700
O 	O 	-0.00000 0.24180 0.64940 -0.44500
O 	O 	0.50000 0.74180 0.85060 -0.28200
O 	O 	-0.00000 0.24180 0.35060 -0.47100
O 	O 	0.50000 0.85060 0.74180 -0.28200
O 	O 	-0.00000 0.35060 0.24180 -0.47100
O 	O 	0.50000 0.14940 0.74180 -0.37700
O 	O 	-0.00000 0.64940 0.24180 -0.44500
O 	O 	0.50000 0.14940 0.25820 -0.39800
O 	O 	0.00000 0.64940 0.75820 -0.40100
O 	O 	0.50000 0.85060 0.25820 -0.30300
O 	O 	0.00000 0.35060 0.75820 -0.42600
O 	O 	0.85060 0.25820 0.50000 -0.30300
O 	O 	0.35060 0.75820 -0.00000 -0.42600
O 	O 	0.14940 0.25820 0.50000 -0.39800
O 	O 	0.64940 0.75820 -0.00000 -0.40100
O 	O 	0.14940 0.74180 0.50000 -0.37700
O 	O 	0.64940 0.24180 -0.00000 -0.44500
O 	O 	0.85060 0.74180 0.50000 -0.28200
O 	O 	0.35060 0.24180 -0.00000 -0.47100
O 	O 	0.25820 0.50000 0.14940 -0.39800
O 	O 	0.75820 0.00000 0.64940 -0.40100
O 	O 	0.25820 0.50000 0.85060 -0.30300
O 	O 	0.75820 0.00000 0.35060 -0.42600
O 	O 	0.74180 0.50000 0.85060 -0.28200
O 	O 	0.24180 0.00000 0.35060 -0.47100
O 	O 	0.74180 0.50000 0.14940 -0.37700
O 	O 	0.24180 0.00000 0.64940 -0.44500
C 	C 	0.82700 0.50000 0.17300 0.48000
O 	O 	0.88920 0.50000 0.11080 -0.43500
C 	C 	0.32700 -0.00000 0.67300 0.48600
O 	O 	0.38920 0.00000 0.61080 -0.52800
C 	C 	0.17300 0.50000 0.17300 0.49500
O 	O 	0.11080 0.50000 0.11080 -0.55200
C 	C 	0.67300 -0.00000 0.67300 0.48100
O 	O 	0.61080 0.00000 0.61080 -0.52400
C 	C 	0.17300 0.50000 0.82700 0.48000
O 	O 	0.11080 0.50000 0.88920 -0.43500
C 	C 	0.67300 0.00000 0.32700 0.48600
O 	O 	0.61080 0.00000 0.38920 -0.52800
C 	C 	0.82700 0.50000 0.82700 0.46500
O 	O 	0.88920 0.50000 0.88920 -0.32000
C 	C 	0.32700 0.00000 0.32700 0.49100
O 	O 	0.38920 0.00000 0.38920 -0.53300
C 	C 	0.17300 0.82700 0.50000 0.48000
O 	O 	0.11080 0.88920 0.50000 -0.43500
C 	C 	0.67300 0.32700 -0.00000 0.48600
O 	O 	0.61080 0.38920 -0.00000 -0.52800
C 	C 	0.17300 0.17300 0.50000 0.49500
O 	O 	0.11080 0.11080 0.50000 -0.55200
C 	C 	0.67300 0.67300 -0.00000 0.48100
O 	O 	0.61080 0.61080 -0.00000 -0.52400
C 	C 	0.82700 0.17300 0.50000 0.48000
O 	O 	0.88920 0.11080 0.50000 -0.43500
C 	C 	0.32700 0.67300 -0.00000 0.48600
O 	O 	0.38920 0.61080 -0.00000 -0.52800
C 	C 	0.82700 0.82700 0.50000 0.46500
O 	O 	0.88920 0.88920 0.50000 -0.32000
C 	C 	0.32700 0.32700 -0.00000 0.49100
O 	O 	0.38920 0.38920 -0.00000 -0.53300
C 	C 	0.50000 0.17300 0.82700 0.48000
O 	O 	0.50000 0.11080 0.88920 -0.43500
C 	C 	-0.00000 0.67300 0.32700 0.48600
O 	O 	-0.00000 0.61080 0.38920 -0.52800
C 	C 	0.50000 0.17300 0.17300 0.49500
O 	O 	0.50000 0.11080 0.11080 -0.55200
C 	C 	-0.00000 0.67300 0.67300 0.48100
O 	O 	0.00000 0.61080 0.61080 -0.52400
C 	C 	0.50000 0.82700 0.17300 0.48000
O 	O 	0.50000 0.88920 0.11080 -0.43500
C 	C 	-0.00000 0.32700 0.67300 0.48600
O 	O 	-0.00000 0.38920 0.61080 -0.52800
C 	C 	0.50000 0.82700 0.82700 0.46500
O 	O 	0.50000 0.88920 0.88920 -0.32000
C 	C 	0.00000 0.32700 0.32700 0.49100
O 	O 	0.00000 0.38920 0.38920 -0.53300
