data_crystal

_cell_length_a 14.81730
_cell_length_b 14.81730
_cell_length_c 14.81730
_cell_angle_alpha 90.00000
_cell_angle_beta  90.00000
_cell_angle_gamma 90.00000

_symmetry_space_group_name_	'P 1'
_symmetry_space_group_name_H-M	'P 1'

loop_
_symmetry_equiv_pos_as_xyz
  x,y,z

loop_
_atom_site_label
_atom_site_type_symbol
_atom_site_fract_x
_atom_site_fract_y
_atom_site_fract_z
_atom_site_charge
Ca	Ca	0.25000 0.00000 0.50000 1.50300
Ca	Ca	0.75000 0.00000 0.50000 1.50500
Ca	Ca	0.25000 0.50000 -0.00000 1.50300
Ca	Ca	0.50000 0.25000 -0.00000 1.50300
Ca	Ca	0.50000 0.75000 -0.00000 1.50500
Ca	Ca	0.00000 0.50000 0.25000 1.50300
Ca	Ca	0.00000 0.50000 0.75000 1.50400
Ca	Ca	0.50000 0.00000 0.25000 1.50200
Ca	Ca	0.00000 0.25000 0.50000 1.50200
Ca	Ca	0.00000 0.75000 0.50000 1.50400
Ca	Ca	0.75000 0.50000 -0.00000 1.50400
Ca	Ca	0.50000 0.00000 0.75000 1.50400
C 	C 	0.31900 -0.00000 0.31900 0.50000
O 	O 	0.38030 0.00000 0.38030 -0.60500
C 	C 	0.81900 0.50000 0.81900 0.48200
O 	O 	0.88030 0.50000 0.88030 -0.40900
C 	C 	0.68100 -0.00000 0.31900 0.49500
O 	O 	0.61970 0.00000 0.38030 -0.60100
C 	C 	0.18100 0.50000 0.81900 0.49200
O 	O 	0.11970 0.50000 0.88030 -0.49700
C 	C 	0.68100 0.00000 0.68100 0.49000
O 	O 	0.61970 0.00000 0.61970 -0.59700
C 	C 	0.18100 0.50000 0.18100 0.50300
O 	O 	0.11970 0.50000 0.11970 -0.58500
C 	C 	0.31900 0.00000 0.68100 0.49500
O 	O 	0.38030 0.00000 0.61970 -0.60100
C 	C 	0.81900 0.50000 0.18100 0.49200
O 	O 	0.88030 0.50000 0.11970 -0.49700
C 	C 	0.31900 0.31900 -0.00000 0.50000
O 	O 	0.38030 0.38030 -0.00000 -0.60500
C 	C 	0.81900 0.81900 0.50000 0.48200
O 	O 	0.88030 0.88030 0.50000 -0.40900
C 	C 	0.31900 0.68100 -0.00000 0.49500
O 	O 	0.38030 0.61970 -0.00000 -0.60100
C 	C 	0.81900 0.18100 0.50000 0.49200
O 	O 	0.88030 0.11970 0.50000 -0.49700
C 	C 	0.68100 0.68100 -0.00000 0.49000
O 	O 	0.61970 0.61970 -0.00000 -0.59700
C 	C 	0.18100 0.18100 0.50000 0.50300
O 	O 	0.11970 0.11970 0.50000 -0.58500
C 	C 	0.68100 0.31900 -0.00000 0.49500
O 	O 	0.61970 0.38030 -0.00000 -0.60100
C 	C 	0.18100 0.81900 0.50000 0.49200
O 	O 	0.11970 0.88030 0.50000 -0.49700
C 	C 	-0.00000 0.31900 0.31900 0.50000
O 	O 	0.00000 0.38030 0.38030 -0.60500
C 	C 	0.50000 0.81900 0.81900 0.48200
O 	O 	0.50000 0.88030 0.88030 -0.40900
C 	C 	-0.00000 0.31900 0.68100 0.49500
O 	O 	-0.00000 0.38030 0.61970 -0.60100
C 	C 	0.50000 0.81900 0.18100 0.49200
O 	O 	0.50000 0.88030 0.11970 -0.49700
C 	C 	0.00000 0.68100 0.68100 0.49000
O 	O 	-0.00000 0.61970 0.61970 -0.59700
C 	C 	0.50000 0.18100 0.18100 0.50300
O 	O 	0.50000 0.11970 0.11970 -0.58500
C 	C 	0.00000 0.68100 0.31900 0.49500
O 	O 	-0.00000 0.61970 0.38030 -0.60100
C 	C 	0.50000 0.18100 0.81900 0.49200
O 	O 	0.50000 0.11970 0.88030 -0.49700
O 	O 	0.23560 0.00000 0.34220 -0.45100
O 	O 	0.73560 0.50000 0.84220 -0.32200
O 	O 	0.76440 0.00000 0.34220 -0.41200
O 	O 	0.26440 0.50000 0.84220 -0.33700
O 	O 	0.76440 0.00000 0.65780 -0.39300
O 	O 	0.26440 0.50000 0.15780 -0.40400
O 	O 	0.23560 0.00000 0.65780 -0.43100
O 	O 	0.73560 0.50000 0.15780 -0.38800
O 	O 	0.34220 0.23560 -0.00000 -0.45100
O 	O 	0.84220 0.73560 0.50000 -0.32200
O 	O 	0.34220 0.76440 -0.00000 -0.41200
O 	O 	0.84220 0.26440 0.50000 -0.33700
O 	O 	0.65780 0.76440 -0.00000 -0.39300
O 	O 	0.15780 0.26440 0.50000 -0.40400
O 	O 	0.65780 0.23560 -0.00000 -0.43100
O 	O 	0.15780 0.73560 0.50000 -0.38800
O 	O 	0.00000 0.34220 0.23560 -0.45100
O 	O 	0.50000 0.84220 0.73560 -0.32200
O 	O 	0.00000 0.34220 0.76440 -0.41200
O 	O 	0.50000 0.84220 0.26440 -0.33700
O 	O 	0.00000 0.65780 0.76440 -0.39300
O 	O 	0.50000 0.15780 0.26440 -0.40400
O 	O 	0.00000 0.65780 0.23560 -0.43100
O 	O 	0.50000 0.15780 0.73560 -0.38800
O 	O 	0.00000 0.23560 0.65780 -0.43100
O 	O 	0.50000 0.73560 0.15780 -0.38800
O 	O 	0.00000 0.76440 0.65780 -0.39300
O 	O 	0.50000 0.26440 0.15780 -0.40400
O 	O 	0.00000 0.76440 0.34220 -0.41200
O 	O 	0.50000 0.26440 0.84220 -0.33700
O 	O 	0.00000 0.23560 0.34220 -0.45100
O 	O 	0.50000 0.73560 0.84220 -0.32200
O 	O 	0.23560 0.34220 -0.00000 -0.45100
O 	O 	0.73560 0.84220 0.50000 -0.32200
O 	O 	0.76440 0.34220 -0.00000 -0.41200
O 	O 	0.26440 0.84220 0.50000 -0.33700
O 	O 	0.76440 0.65780 -0.00000 -0.39300
O 	O 	0.26440 0.15780 0.50000 -0.40400
O 	O 	0.23560 0.65780 -0.00000 -0.43100
O 	O 	0.73560 0.15780 0.50000 -0.38800
O 	O 	0.34220 0.00000 0.76440 -0.41200
O 	O 	0.84220 0.50000 0.26440 -0.33700
O 	O 	0.34220 -0.00000 0.23560 -0.45100
O 	O 	0.84220 0.50000 0.73560 -0.32200
O 	O 	0.65780 -0.00000 0.23560 -0.43100
O 	O 	0.15780 0.50000 0.73560 -0.38800
O 	O 	0.65780 0.00000 0.76440 -0.39300
O 	O 	0.15780 0.50000 0.26440 -0.40400
K 	K 	0.00000 0.00000 0.43750 0.67000
O 	O 	0.00000 0.00000 0.36100 -0.58500
K 	K 	0.50000 0.50000 0.93750 0.72700
O 	O 	0.50000 0.50000 0.86100 -0.41900
K 	K 	-0.00000 0.00000 0.56250 0.66900
O 	O 	0.00000 0.00000 0.63900 -0.56300
K 	K 	0.50000 0.50000 0.06250 0.68600
O 	O 	0.50000 0.50000 0.13900 -0.48000
K 	K 	0.43750 0.00000 -0.00000 0.67000
O 	O 	0.36100 0.00000 -0.00000 -0.58500
K 	K 	0.93750 0.50000 0.50000 0.72700
O 	O 	0.86100 0.50000 0.50000 -0.41900
K 	K 	0.56250 0.00000 -0.00000 0.66900
O 	O 	0.63900 0.00000 -0.00000 -0.56300
K 	K 	0.06250 0.50000 0.50000 0.68600
O 	O 	0.13900 0.50000 0.50000 -0.48000
K 	K 	-0.00000 0.43750 -0.00000 0.67000
O 	O 	0.00000 0.36100 -0.00000 -0.58500
K 	K 	0.50000 0.93750 0.50000 0.72700
O 	O 	0.50000 0.86100 0.50000 -0.41900
K 	K 	-0.00000 0.56250 -0.00000 0.66900
O 	O 	-0.00000 0.63900 -0.00000 -0.56300
K 	K 	0.50000 0.06250 0.50000 0.68600
O 	O 	0.50000 0.13900 0.50000 -0.48000
