data_crystal

_cell_length_a 14.74930
_cell_length_b 14.74930
_cell_length_c 14.74930
_cell_angle_alpha 90.00000
_cell_angle_beta  90.00000
_cell_angle_gamma 90.00000

_symmetry_space_group_name_	'P 1'
_symmetry_space_group_name_H-M	'P 1'

loop_
_symmetry_equiv_pos_as_xyz
  x,y,z

loop_
_atom_site_label
_atom_site_type_symbol
_atom_site_fract_x
_atom_site_fract_y
_atom_site_fract_z
_atom_site_charge
Cd	Cd	0.50000 0.00000 0.25000 1.21300
Cd	Cd	0.50000 0.00000 0.75000 1.21800
Cd	Cd	0.25000 0.50000 -0.00000 1.21300
Cd	Cd	0.75000 0.50000 -0.00000 1.21900
Cd	Cd	0.00000 0.25000 0.50000 1.21400
Cd	Cd	0.00000 0.75000 0.50000 1.21900
Cd	Cd	0.50000 0.25000 -0.00000 1.21400
Cd	Cd	0.00000 0.50000 0.75000 1.21900
Cd	Cd	0.00000 0.50000 0.25000 1.21400
Cd	Cd	0.50000 0.75000 -0.00000 1.21900
Cd	Cd	0.25000 0.00000 0.50000 1.21400
Cd	Cd	0.75000 0.00000 0.50000 1.21900
O 	O 	0.50000 0.84590 0.26100 -0.29200
O 	O 	0.00000 0.34590 0.76100 -0.40400
O 	O 	0.50000 0.15410 0.26100 -0.38000
O 	O 	0.00000 0.65410 0.76100 -0.37900
O 	O 	0.50000 0.84590 0.73900 -0.27200
O 	O 	0.00000 0.34590 0.23900 -0.44900
O 	O 	0.50000 0.15410 0.73900 -0.36000
O 	O 	-0.00000 0.65410 0.23900 -0.42400
O 	O 	0.26100 0.50000 0.84590 -0.29200
O 	O 	0.76100 0.00000 0.34590 -0.40400
O 	O 	0.26100 0.50000 0.15410 -0.38000
O 	O 	0.76100 0.00000 0.65410 -0.37900
O 	O 	0.73900 0.50000 0.84590 -0.27200
O 	O 	0.23900 0.00000 0.34590 -0.44900
O 	O 	0.73900 0.50000 0.15410 -0.36000
O 	O 	0.23900 0.00000 0.65410 -0.42400
O 	O 	0.84590 0.26100 0.50000 -0.29200
O 	O 	0.34590 0.76100 -0.00000 -0.40400
O 	O 	0.15410 0.26100 0.50000 -0.38000
O 	O 	0.65410 0.76100 -0.00000 -0.37900
O 	O 	0.84590 0.73900 0.50000 -0.27200
O 	O 	0.34590 0.23900 -0.00000 -0.44900
O 	O 	0.15410 0.73900 0.50000 -0.36000
O 	O 	0.65410 0.23900 -0.00000 -0.42400
O 	O 	0.84590 0.50000 0.73900 -0.27200
O 	O 	0.34590 0.00000 0.23900 -0.44900
O 	O 	0.15410 0.50000 0.73900 -0.36000
O 	O 	0.65410 0.00000 0.23900 -0.42400
O 	O 	0.84590 0.50000 0.26100 -0.29200
O 	O 	0.34590 0.00000 0.76100 -0.40400
O 	O 	0.15410 0.50000 0.26100 -0.38000
O 	O 	0.65410 0.00000 0.76100 -0.37900
O 	O 	0.50000 0.26100 0.15410 -0.38000
O 	O 	0.00000 0.76100 0.65410 -0.37900
O 	O 	0.50000 0.26100 0.84590 -0.29200
O 	O 	0.00000 0.76100 0.34590 -0.40400
O 	O 	0.50000 0.73900 0.15410 -0.36000
O 	O 	-0.00000 0.23900 0.65410 -0.42400
O 	O 	0.50000 0.73900 0.84590 -0.27200
O 	O 	-0.00000 0.23900 0.34590 -0.44900
O 	O 	0.26100 0.84590 0.50000 -0.29200
O 	O 	0.76100 0.34590 -0.00000 -0.40400
O 	O 	0.26100 0.15410 0.50000 -0.38000
O 	O 	0.76100 0.65410 -0.00000 -0.37900
O 	O 	0.73900 0.84590 0.50000 -0.27200
O 	O 	0.23900 0.34590 -0.00000 -0.44900
O 	O 	0.73900 0.15410 0.50000 -0.36000
O 	O 	0.23900 0.65410 -0.00000 -0.42400
O 	O 	0.50000 0.88490 0.11510 -0.43400
C 	C 	0.50000 0.82400 0.17600 0.47000
O 	O 	0.00000 0.38490 0.61510 -0.52500
C 	C 	0.00000 0.32400 0.67600 0.47400
O 	O 	0.50000 0.11510 0.11510 -0.54300
C 	C 	0.50000 0.17600 0.17600 0.48300
O 	O 	0.00000 0.61510 0.61510 -0.52000
C 	C 	0.00000 0.67600 0.67600 0.46900
O 	O 	0.50000 0.88490 0.88490 -0.32700
C 	C 	0.50000 0.82400 0.82400 0.45600
O 	O 	0.00000 0.38490 0.38490 -0.53000
C 	C 	0.00000 0.32400 0.32400 0.48000
O 	O 	0.50000 0.11510 0.88490 -0.43400
C 	C 	0.50000 0.17600 0.82400 0.47000
O 	O 	0.00000 0.61510 0.38490 -0.52500
C 	C 	0.00000 0.67600 0.32400 0.47400
O 	O 	0.11510 0.50000 0.88490 -0.43400
C 	C 	0.17600 0.50000 0.82400 0.47000
O 	O 	0.61510 0.00000 0.38490 -0.52500
C 	C 	0.67600 0.00000 0.32400 0.47400
O 	O 	0.11510 0.50000 0.11510 -0.54300
C 	C 	0.17600 0.50000 0.17600 0.48300
O 	O 	0.61510 0.00000 0.61510 -0.52000
C 	C 	0.67600 0.00000 0.67600 0.46900
O 	O 	0.88490 0.50000 0.88490 -0.32700
C 	C 	0.82400 0.50000 0.82400 0.45600
O 	O 	0.38490 0.00000 0.38490 -0.53000
C 	C 	0.32400 0.00000 0.32400 0.48000
O 	O 	0.88490 0.50000 0.11510 -0.43400
C 	C 	0.82400 0.50000 0.17600 0.47000
O 	O 	0.38490 0.00000 0.61510 -0.52500
C 	C 	0.32400 0.00000 0.67600 0.47400
O 	O 	0.88490 0.11510 0.50000 -0.43400
C 	C 	0.82400 0.17600 0.50000 0.47000
O 	O 	0.38490 0.61510 -0.00000 -0.52500
C 	C 	0.32400 0.67600 -0.00000 0.47400
O 	O 	0.11510 0.11510 0.50000 -0.54300
C 	C 	0.17600 0.17600 0.50000 0.48300
O 	O 	0.61510 0.61510 -0.00000 -0.52000
C 	C 	0.67600 0.67600 -0.00000 0.46900
O 	O 	0.88490 0.88490 0.50000 -0.32700
C 	C 	0.82400 0.82400 0.50000 0.45600
O 	O 	0.38490 0.38490 -0.00000 -0.53000
C 	C 	0.32400 0.32400 -0.00000 0.48000
O 	O 	0.11510 0.88490 0.50000 -0.43400
C 	C 	0.17600 0.82400 0.50000 0.47000
O 	O 	0.61510 0.38490 -0.00000 -0.52500
C 	C 	0.67600 0.32400 -0.00000 0.47400
Na	Na	0.50000 0.00000 0.50000 0.57500
Na	Na	0.00000 0.50000 -0.00000 0.54200
Na	Na	0.50000 0.50000 -0.00000 0.57500
Na	Na	0.00000 0.00000 0.50000 0.54200
Na	Na	0.00000 0.50000 0.50000 0.57500
Na	Na	0.50000 0.00000 -0.00000 0.54200
