data_crystal

_cell_length_a 8.46820
_cell_length_b 15.27440
_cell_length_c 15.27440
_cell_angle_alpha 85.59300
_cell_angle_beta  73.90680
_cell_angle_gamma 73.90680

_symmetry_space_group_name_	'P 1'
_symmetry_space_group_name_H-M	'P 1'

loop_
_symmetry_equiv_pos_as_xyz
  x,y,z

loop_
_atom_site_label
_atom_site_type_symbol
_atom_site_fract_x
_atom_site_fract_y
_atom_site_fract_z
_atom_site_charge
Co	Co	0.40407 0.96053 0.94981 1.20100
Co	Co	0.81441 0.53947 0.55019 1.16900
Co	Co	0.35388 0.05019 0.46053 1.13500
Co	Co	0.36460 0.44981 0.03947 1.12100
Co	Co	0.59593 0.03947 0.05019 1.10100
Co	Co	0.18559 0.46053 0.44981 1.14200
Co	Co	0.64612 0.94981 0.53947 1.17800
Co	Co	0.63540 0.55019 0.96053 1.19000
Co	Co	-0.00000 0.00000 -0.00000 1.03800
Co	Co	0.50000 0.50000 0.50000 1.15900
Co	Co	-0.00000 -0.00000 0.50000 1.09100
Co	Co	-0.00000 0.50000 -0.00000 1.07900
H 	H 	0.93340 0.97560 0.19320 0.25100
H 	H 	0.86400 0.97950 0.34110 -0.08800
H 	H 	0.54230 0.07810 0.25290 -0.03400
H 	H 	0.60220 0.52440 0.30680 0.15000
H 	H 	0.68460 0.52050 0.15890 -0.01700
H 	H 	0.37330 0.42190 0.24710 -0.01800
H 	H 	0.12660 0.80680 0.47560 0.13200
H 	H 	0.20510 0.65890 0.47950 -0.01900
H 	H 	0.79520 0.74710 0.57810 -0.00100
H 	H 	0.90900 0.69320 0.02440 0.14700
H 	H 	0.84350 0.84110 0.02050 -0.00700
H 	H 	0.62040 0.75290 0.92190 0.00600
H 	H 	0.06660 0.02440 0.80680 0.06300
H 	H 	0.13600 0.02050 0.65890 0.05900
H 	H 	0.45770 0.92190 0.74710 -0.00400
H 	H 	0.39780 0.47560 0.69320 0.15800
H 	H 	0.31540 0.47950 0.84110 -0.00700
H 	H 	0.62670 0.57810 0.75290 -0.01800
H 	H 	0.87340 0.19320 0.52440 0.18300
H 	H 	0.79490 0.34110 0.52050 -0.00900
H 	H 	0.20480 0.25290 0.42190 -0.03700
H 	H 	0.09100 0.30680 0.97560 0.16800
H 	H 	0.15650 0.15890 0.97950 -0.01800
H 	H 	0.37960 0.24710 0.07810 -0.04800
C 	C 	0.96690 0.99070 0.30850 0.43600
C 	C 	0.20930 0.02600 0.30020 0.14800
C 	C 	0.26110 0.02190 0.20470 -0.23200
C 	C 	0.15680 0.99910 0.15850 0.38700
C 	C 	0.44560 0.06080 0.25240 0.08300
C 	C 	0.76610 0.50930 0.19150 0.13800
C 	C 	0.03550 0.47400 0.19980 -0.04200
C 	C 	0.98770 0.47810 0.29530 0.09200
C 	C 	0.81440 0.50090 0.34150 0.21700
C 	C 	0.25880 0.43920 0.24760 0.08800
C 	C 	0.27540 0.69150 0.49070 0.13600
C 	C 	0.50950 0.69980 0.52600 0.13500
C 	C 	0.46580 0.79530 0.52190 -0.07600
C 	C 	0.31530 0.84150 0.49910 0.25500
C 	C 	0.69800 0.74760 0.56080 0.10100
C 	C 	0.95760 0.80850 0.00930 0.12100
C 	C 	0.23530 0.80020 0.97400 0.12000
C 	C 	0.28300 0.70470 0.97810 0.04100
C 	C 	0.15590 0.65850 0.00090 0.08700
C 	C 	0.50640 0.75240 0.93920 0.10600
C 	C 	0.03310 0.00930 0.69150 -0.13800
C 	C 	0.79070 0.97400 0.69980 0.13300
C 	C 	0.73890 0.97810 0.79530 0.02000
C 	C 	0.84320 0.00090 0.84150 0.17200
C 	C 	0.55440 0.93920 0.74760 0.11000
C 	C 	0.23390 0.49070 0.80850 0.14900
C 	C 	0.96450 0.52600 0.80020 0.29900
C 	C 	0.01230 0.52190 0.70470 -0.25300
C 	C 	0.18560 0.49910 0.65850 0.31000
C 	C 	0.74120 0.56080 0.75240 0.10600
C 	C 	0.72460 0.30850 0.50930 0.15400
C 	C 	0.49050 0.30020 0.47400 0.14000
C 	C 	0.53420 0.20470 0.47810 -0.09900
C 	C 	0.68470 0.15850 0.50090 0.27500
C 	C 	0.30200 0.25240 0.43920 0.09500
C 	C 	0.04240 0.19150 0.99070 0.18400
C 	C 	0.76470 0.19980 0.02600 0.15600
C 	C 	0.71700 0.29530 0.02190 -0.21600
C 	C 	0.84410 0.34150 0.99910 0.44100
C 	C 	0.49360 0.24760 0.06080 0.08600
N 	N 	0.00650 0.98660 0.21720 -0.42300
N 	N 	0.06200 0.00920 0.35460 -0.39700
N 	N 	0.41430 0.04510 0.17550 -0.21700
N 	N 	0.32780 0.05000 0.33020 -0.27500
N 	N 	0.71030 0.51340 0.28280 -0.24800
N 	N 	0.92580 0.49080 0.14540 -0.19500
N 	N 	0.13490 0.45490 0.32450 -0.27300
N 	N 	0.20800 0.45000 0.16980 -0.24600
N 	N 	0.22370 0.78280 0.48660 -0.25900
N 	N 	0.41660 0.64540 0.50920 -0.25800
N 	N 	0.58980 0.82450 0.54510 -0.21000
N 	N 	0.65800 0.66980 0.55000 -0.25300
N 	N 	0.99310 0.71720 0.01340 -0.20600
N 	N 	0.07120 0.85460 0.99080 -0.21900
N 	N 	0.45940 0.67550 0.95490 -0.21500
N 	N 	0.37780 0.83020 0.95000 -0.23800
N 	N 	0.99350 0.01340 0.78280 -0.10600
N 	N 	0.93800 0.99080 0.64540 -0.12200
N 	N 	0.58570 0.95490 0.82450 -0.21200
N 	N 	0.67220 0.95000 0.66980 -0.24400
N 	N 	0.28970 0.48660 0.71720 -0.28100
N 	N 	0.07420 0.50920 0.85460 -0.30100
N 	N 	0.86510 0.54510 0.67550 -0.16000
N 	N 	0.79200 0.55000 0.83020 -0.27000
N 	N 	0.77630 0.21720 0.51340 -0.27100
N 	N 	0.58340 0.35460 0.49080 -0.26200
N 	N 	0.41020 0.17550 0.45490 -0.21900
N 	N 	0.34200 0.33020 0.45000 -0.26700
N 	N 	0.00690 0.28280 0.98660 -0.32200
N 	N 	0.92880 0.14540 0.00920 -0.28400
N 	N 	0.54060 0.32450 0.04510 -0.21400
N 	N 	0.62220 0.16980 0.05000 -0.28200
O 	O 	0.42550 0.08360 0.97380 -0.42300
O 	O 	0.20000 0.00800 0.89440 -0.47600
O 	O 	0.18200 0.99070 0.07310 -0.54300
O 	O 	0.98290 0.41640 0.52620 -0.40500
O 	O 	0.60240 0.49200 0.60560 -0.46500
O 	O 	0.74580 0.50930 0.42690 -0.47400
O 	O 	0.39930 0.02620 0.58360 -0.49800
O 	O 	0.09440 0.10560 0.50800 -0.50900
O 	O 	0.25510 0.92690 0.49070 -0.45600
O 	O 	0.50910 0.47380 0.91640 -0.41200
O 	O 	0.20800 0.39440 0.99200 -0.41200
O 	O 	0.17270 0.57310 0.00930 -0.50400
O 	O 	0.57450 0.91640 0.02620 -0.46500
O 	O 	0.80000 0.99200 0.10560 -0.40500
O 	O 	0.81800 0.00930 0.92690 -0.41300
O 	O 	0.01710 0.58360 0.47380 -0.50100
O 	O 	0.39760 0.50800 0.39440 -0.46600
O 	O 	0.25420 0.49070 0.57310 -0.51900
O 	O 	0.60070 0.97380 0.41640 -0.40300
O 	O 	0.90560 0.89440 0.49200 -0.40400
O 	O 	0.74490 0.07310 0.50930 -0.51200
O 	O 	0.49090 0.52620 0.08360 -0.49100
O 	O 	0.79200 0.60560 0.00800 -0.48500
O 	O 	0.82730 0.42690 0.99070 -0.47100
