data_crystal

_cell_length_a 8.44950
_cell_length_b 15.26090
_cell_length_c 15.26090
_cell_angle_alpha 85.60470
_cell_angle_beta  73.92860
_cell_angle_gamma 73.92850

_symmetry_space_group_name_	'P 1'
_symmetry_space_group_name_H-M	'P 1'

loop_
_symmetry_equiv_pos_as_xyz
  x,y,z

loop_
_atom_site_label
_atom_site_type_symbol
_atom_site_fract_x
_atom_site_fract_y
_atom_site_fract_z
_atom_site_charge
Co	Co	0.90404 0.94983 0.96034 1.21400
Co	Co	0.31422 0.55017 0.53966 1.15500
Co	Co	0.86439 0.03966 0.44982 1.13500
Co	Co	0.85387 0.46034 0.05018 1.13800
Co	Co	0.09596 0.05017 0.03966 1.08200
Co	Co	0.68578 0.44983 0.46034 1.15600
Co	Co	0.13561 0.96034 0.55018 1.17500
Co	Co	0.14613 0.53966 0.94982 1.17400
Co	Co	0.50000 0.00000 -0.00000 1.07600
Co	Co	0.00000 0.50000 0.50000 1.14500
Co	Co	0.50000 0.00000 0.50000 1.12200
Co	Co	0.50000 0.50000 -0.00000 1.12200
H 	H 	0.56720 0.80780 0.02500 0.14600
H 	H 	0.95730 0.74730 0.92250 0.04400
H 	H 	0.63590 0.65810 0.02350 0.01200
H 	H 	0.90000 0.69220 0.47500 0.17000
H 	H 	0.12710 0.75270 0.57750 -0.02200
H 	H 	0.81750 0.84190 0.47650 0.00500
H 	H 	0.59220 0.97500 0.30780 0.17400
H 	H 	0.87980 0.07750 0.24730 -0.06200
H 	H 	0.65940 0.97650 0.15810 -0.04100
H 	H 	0.37500 0.52500 0.19220 0.15400
H 	H 	0.70460 0.42250 0.25270 -0.02000
H 	H 	0.29400 0.52350 0.34190 -0.01300
H 	H 	0.43280 0.19220 0.97500 0.17200
H 	H 	0.04270 0.25270 0.07750 -0.09200
H 	H 	0.36410 0.34190 0.97650 -0.03700
H 	H 	0.10000 0.30780 0.52500 0.14000
H 	H 	0.87290 0.24730 0.42250 -0.01300
H 	H 	0.18250 0.15810 0.52350 -0.02700
H 	H 	0.40780 0.02500 0.69220 0.14000
H 	H 	0.12020 0.92250 0.75270 0.02200
H 	H 	0.34060 0.02350 0.84190 0.01600
H 	H 	0.62500 0.47500 0.80780 0.15800
H 	H 	0.29540 0.57750 0.74730 -0.01500
H 	H 	0.70600 0.47650 0.65810 -0.01000
C 	C 	0.34359 0.84243 0.00059 0.16000
C 	C 	0.24026 0.79532 0.97676 0.02900
C 	C 	0.05482 0.74767 0.93929 0.04500
C 	C 	0.29105 0.69928 0.97322 0.13100
C 	C 	0.53446 0.69099 0.01069 0.02200
C 	C 	0.68661 0.65757 0.49941 0.28000
C 	C 	0.51234 0.70468 0.52324 -0.08900
C 	C 	0.24178 0.75233 0.56071 0.09600
C 	C 	0.46355 0.80072 0.52678 0.14800
C 	C 	0.73614 0.80901 0.48931 0.14400
C 	C 	0.34418 0.99941 0.34243 0.38900
C 	C 	0.21702 0.02324 0.29532 -0.21400
C 	C 	0.99411 0.06071 0.24767 0.16100
C 	C 	0.26427 0.02678 0.19928 0.13700
C 	C 	0.54515 0.98931 0.19099 0.26500
C 	C 	0.18602 0.50059 0.15757 0.29800
C 	C 	0.03558 0.47676 0.20468 -0.18300
C 	C 	0.80249 0.43929 0.25233 0.09900
C 	C 	0.99033 0.47322 0.30072 0.21700
C 	C 	0.22545 0.51069 0.30901 0.13500
C 	C 	0.65641 0.15757 0.99941 0.40200
C 	C 	0.75974 0.20468 0.02324 -0.22500
C 	C 	0.94518 0.25233 0.06071 0.15600
C 	C 	0.70895 0.30072 0.02678 0.15100
C 	C 	0.46554 0.30901 0.98931 0.26600
C 	C 	0.31339 0.34243 0.50059 0.26900
C 	C 	0.48766 0.29532 0.47676 -0.08800
C 	C 	0.75822 0.24767 0.43929 0.09400
C 	C 	0.53645 0.19928 0.47322 0.13000
C 	C 	0.26386 0.19099 0.51069 0.13100
C 	C 	0.65582 0.00059 0.65757 0.17300
C 	C 	0.78298 0.97676 0.70468 0.02400
C 	C 	0.00589 0.93929 0.75233 0.03400
C 	C 	0.73573 0.97322 0.80072 0.14100
C 	C 	0.45485 0.01069 0.80901 0.03400
C 	C 	0.81398 0.49941 0.84243 0.25200
C 	C 	0.96442 0.52324 0.79532 -0.00400
C 	C 	0.19751 0.56071 0.74767 0.09100
C 	C 	0.00967 0.52678 0.69928 0.06800
C 	C 	0.77455 0.48931 0.69099 0.14000
N 	N 	0.08805 0.82464 0.95446 -0.21000
N 	N 	0.17264 0.66980 0.94992 -0.23900
N 	N 	0.43888 0.64567 0.99077 -0.18000
N 	N 	0.49411 0.78367 0.01391 -0.23400
N 	N 	0.36715 0.67536 0.54554 -0.21300
N 	N 	0.29236 0.83020 0.55008 -0.25700
N 	N 	0.57532 0.85433 0.50923 -0.24100
N 	N 	0.79169 0.71633 0.48609 -0.26500
N 	N 	0.04251 0.04554 0.32464 -0.24800
N 	N 	0.12256 0.05008 0.16980 -0.31300
N 	N 	0.42965 0.00923 0.14567 -0.34400
N 	N 	0.50802 0.98609 0.28367 -0.29400
N 	N 	0.91269 0.45446 0.17536 -0.18900
N 	N 	0.84244 0.44992 0.33020 -0.27100
N 	N 	0.08455 0.49077 0.35433 -0.28900
N 	N 	0.27778 0.51391 0.21633 -0.27400
N 	N 	0.91195 0.17536 0.04554 -0.21900
N 	N 	0.82736 0.33020 0.05008 -0.28500
N 	N 	0.56112 0.35433 0.00923 -0.33400
N 	N 	0.50589 0.21633 0.98609 -0.29600
N 	N 	0.63285 0.32464 0.45446 -0.21300
N 	N 	0.70764 0.16980 0.44992 -0.26500
N 	N 	0.42468 0.14567 0.49077 -0.26700
N 	N 	0.20831 0.28367 0.51391 -0.26200
N 	N 	0.95749 0.95446 0.67536 -0.18000
N 	N 	0.87744 0.94992 0.83020 -0.21600
N 	N 	0.57035 0.99077 0.85433 -0.17100
N 	N 	0.49198 0.01391 0.71633 -0.23800
N 	N 	0.08731 0.54554 0.82464 -0.23400
N 	N 	0.15756 0.55008 0.66980 -0.25200
N 	N 	0.91545 0.50923 0.64567 -0.22600
N 	N 	0.72222 0.48609 0.78367 -0.25400
O 	O 	0.69928 0.89428 0.00736 -0.47500
O 	O 	0.31934 0.92647 0.00945 -0.45400
O 	O 	0.92528 0.97341 0.08423 -0.41000
O 	O 	0.10092 0.60572 0.49264 -0.48000
O 	O 	0.75526 0.57353 0.49055 -0.49700
O 	O 	0.48292 0.52659 0.41577 -0.45200
O 	O 	0.70664 0.99264 0.39428 -0.40500
O 	O 	0.32879 0.99055 0.42647 -0.49400
O 	O 	0.00951 0.91577 0.47341 -0.44200
O 	O 	0.59356 0.50736 0.10572 -0.48000
O 	O 	0.24581 0.50945 0.07353 -0.55800
O 	O 	0.89869 0.58423 0.02659 -0.48200
O 	O 	0.30072 0.10572 0.99264 -0.41700
O 	O 	0.68066 0.07353 0.99055 -0.52300
O 	O 	0.07472 0.02659 0.91577 -0.47500
O 	O 	0.89908 0.39428 0.50736 -0.45000
O 	O 	0.24474 0.42647 0.50945 -0.50600
O 	O 	0.51708 0.47341 0.58423 -0.45200
O 	O 	0.29336 0.00736 0.60572 -0.51400
O 	O 	0.67121 0.00945 0.57353 -0.50500
O 	O 	0.99049 0.08423 0.52659 -0.46200
O 	O 	0.40644 0.49264 0.89428 -0.44100
O 	O 	0.75419 0.49055 0.92647 -0.44100
O 	O 	0.10131 0.41577 0.97341 -0.41600
