data_crystal

_cell_length_a 14.44400
_cell_length_b 12.52540
_cell_length_c 13.30740
_cell_angle_alpha 90.00000
_cell_angle_beta  90.00000
_cell_angle_gamma 90.00000

_symmetry_space_group_name_	'P 1'
_symmetry_space_group_name_H-M	'P 1'

loop_
_symmetry_equiv_pos_as_xyz
  x,y,z

loop_
_atom_site_label
_atom_site_type_symbol
_atom_site_fract_x
_atom_site_fract_y
_atom_site_fract_z
_atom_site_charge
Cu	Cu	0.44843 0.53144 0.06814 0.78000
Cu	Cu	0.38202 0.14404 0.02119 0.79700
N 	N 	0.42930 0.28810 0.01940 -0.22100
N 	N 	0.32230 0.58740 0.05000 -0.22200
C 	C 	0.45740 0.37350 0.01350 -0.35700
C 	C 	0.24600 0.61210 0.04040 -0.27900
C 	C 	0.47340 0.03440 0.00300 -0.27300
N 	N 	0.02660 0.53440 0.00300 -0.23900
C 	C 	0.48810 0.53490 0.20970 -0.24200
Cu	Cu	0.05157 0.96856 0.56814 0.78000
Cu	Cu	0.11798 0.35596 0.52119 0.79800
N 	N 	0.07070 0.21190 0.51940 -0.22100
N 	N 	0.17770 0.91260 0.55000 -0.22200
C 	C 	0.04260 0.12650 0.51350 -0.35400
C 	C 	0.25400 0.88790 0.54040 -0.28000
C 	C 	0.02660 0.46560 0.50300 -0.27600
N 	N 	0.47340 0.96560 0.50300 -0.24100
C 	C 	0.01190 0.96510 0.70970 -0.24200
Cu	Cu	0.55157 0.53144 0.43186 0.78100
Cu	Cu	0.61798 0.14404 0.47881 0.79800
N 	N 	0.57070 0.28810 0.48060 -0.22100
N 	N 	0.67770 0.58740 0.45000 -0.22200
C 	C 	0.54260 0.37350 0.48650 -0.35600
C 	C 	0.75400 0.61210 0.45960 -0.27900
C 	C 	0.52660 0.03440 0.49700 -0.27200
N 	N 	0.97340 0.53440 0.49700 -0.23900
C 	C 	0.51190 0.53490 0.29030 -0.24200
Cu	Cu	0.94843 0.96856 0.93186 0.77900
Cu	Cu	0.88202 0.35596 0.97881 0.79800
N 	N 	0.92930 0.21190 0.98060 -0.22100
N 	N 	0.82230 0.91260 0.95000 -0.22200
C 	C 	0.95740 0.12650 0.98650 -0.35200
C 	C 	0.74600 0.88790 0.95960 -0.28100
C 	C 	0.97340 0.46560 0.99700 -0.27600
N 	N 	0.52660 0.96560 0.99700 -0.24100
C 	C 	0.98810 0.96510 0.79030 -0.24400
Cu	Cu	0.55157 0.46856 0.93186 0.78100
Cu	Cu	0.61798 0.85596 0.97881 0.79400
N 	N 	0.57070 0.71190 0.98060 -0.22200
N 	N 	0.67770 0.41260 0.95000 -0.22100
C 	C 	0.54260 0.62650 0.98650 -0.35700
C 	C 	0.75400 0.38790 0.95960 -0.27800
C 	C 	0.51190 0.46510 0.79030 -0.24100
Cu	Cu	0.94843 0.03144 0.43186 0.78200
Cu	Cu	0.88202 0.64404 0.47881 0.79500
N 	N 	0.92930 0.78810 0.48060 -0.22200
N 	N 	0.82230 0.08740 0.45000 -0.22100
C 	C 	0.95740 0.87350 0.48650 -0.35800
C 	C 	0.74600 0.11210 0.45960 -0.27700
C 	C 	0.98810 0.03490 0.29030 -0.24100
Cu	Cu	0.44843 0.46856 0.56814 0.78100
Cu	Cu	0.38202 0.85596 0.52119 0.79500
N 	N 	0.42930 0.71190 0.51940 -0.22200
N 	N 	0.32230 0.41260 0.55000 -0.22100
C 	C 	0.45740 0.62650 0.51350 -0.35700
C 	C 	0.24600 0.38790 0.54040 -0.27800
C 	C 	0.48810 0.46510 0.70970 -0.24200
Cu	Cu	0.05157 0.03144 0.06814 0.78100
Cu	Cu	0.11798 0.64404 0.02119 0.79500
N 	N 	0.07070 0.78810 0.01940 -0.22200
N 	N 	0.17770 0.08740 0.05000 -0.22200
C 	C 	0.04260 0.87350 0.01350 -0.35600
C 	C 	0.25400 0.11210 0.04040 -0.27800
C 	C 	0.01190 0.03490 0.20970 -0.24200
