data_crystal

_cell_length_a 9.94810
_cell_length_b 9.94210
_cell_length_c 12.59530
_cell_angle_alpha 90.00000
_cell_angle_beta  81.61000
_cell_angle_gamma 90.00000

_symmetry_space_group_name_	'P 1'
_symmetry_space_group_name_H-M	'P 1'

loop_
_symmetry_equiv_pos_as_xyz
  x,y,z

loop_
_atom_site_label
_atom_site_type_symbol
_atom_site_fract_x
_atom_site_fract_y
_atom_site_fract_z
_atom_site_charge
C 	C 	0.33819 0.25004 0.57163 -0.00400
C 	C 	0.24332 0.34724 0.57506 -0.00300
N 	N 	0.34599 0.15166 0.49652 -0.19600
H 	H 	0.39711 0.25007 0.61948 0.04600
H 	H 	0.23885 0.41221 0.62521 0.04800
C 	C 	0.71363 0.19978 0.40901 0.00300
C 	C 	0.81032 0.29537 0.40397 -0.00100
N 	N 	0.65217 0.15329 0.50510 -0.19200
H 	H 	0.68933 0.16622 0.34822 0.03500
H 	H 	0.85062 0.32568 0.33981 0.10400
F 	F 	0.46994 0.00686 0.66261 -0.54300
C 	C 	0.83819 0.75004 0.57163 0.02800
C 	C 	0.74332 0.84724 0.57506 0.03300
N 	N 	0.84599 0.65166 0.49652 -0.13700
H 	H 	0.89711 0.75007 0.61948 0.09400
H 	H 	0.73885 0.91221 0.62521 0.11300
C 	C 	0.21363 0.69978 0.40901 -0.00200
C 	C 	0.31032 0.79537 0.40397 0.00300
N 	N 	0.15217 0.65329 0.50510 -0.19400
H 	H 	0.18933 0.66622 0.34822 0.05300
H 	H 	0.35062 0.82568 0.33981 0.08700
F 	F 	0.96994 0.50686 0.66261 -0.39600
C 	C 	0.66181 0.74996 0.42837 0.02100
C 	C 	0.75668 0.65276 0.42494 0.03000
N 	N 	0.65401 0.84834 0.50348 -0.13600
H 	H 	0.60289 0.74993 0.38052 0.05300
H 	H 	0.76115 0.58779 0.37479 0.06500
C 	C 	0.28637 0.80022 0.59099 -0.00600
C 	C 	0.18968 0.70463 0.59603 0.00200
N 	N 	0.34783 0.84671 0.49490 -0.13900
H 	H 	0.31067 0.83378 0.65178 0.09600
H 	H 	0.14938 0.67432 0.66019 0.05100
F 	F 	0.53006 0.99314 0.33739 -0.40000
C 	C 	0.16181 0.24996 0.42837 -0.01200
C 	C 	0.25668 0.15276 0.42494 -0.00600
N 	N 	0.15401 0.34834 0.50348 -0.19400
H 	H 	0.10289 0.24993 0.38052 0.00500
H 	H 	0.26115 0.08779 0.37479 -0.00200
C 	C 	0.78637 0.30022 0.59099 -0.00100
C 	C 	0.68968 0.20463 0.59603 -0.00200
N 	N 	0.84783 0.34671 0.49490 -0.13600
H 	H 	0.81067 0.33378 0.65178 0.08000
H 	H 	0.64938 0.17432 0.66019 0.06800
F 	F 	0.03006 0.49314 0.33739 -0.54900
Ni	Ni	0.50000 0.00000 0.50000 1.06700
Ni	Ni	0.00000 0.50000 0.50000 1.06600
C 	C 	0.66181 0.25004 0.92837 0.17300
C 	C 	0.75668 0.34724 0.92494 -0.05200
N 	N 	0.65401 0.15166 0.00348 -0.28200
H 	H 	0.60289 0.25007 0.88052 0.00000
H 	H 	0.76115 0.41221 0.87479 0.10300
C 	C 	0.28637 0.19978 0.09099 -0.18600
C 	C 	0.18968 0.29537 0.09603 0.04900
N 	N 	0.34783 0.15329 0.99490 -0.09400
H 	H 	0.31067 0.16622 0.15178 0.08100
H 	H 	0.14938 0.32568 0.16019 0.01600
F 	F 	0.53006 0.00686 0.83739 -0.51500
C 	C 	0.16181 0.75004 0.92837 0.17700
C 	C 	0.25668 0.84724 0.92494 -0.05900
N 	N 	0.15401 0.65166 0.00348 -0.27800
H 	H 	0.10289 0.75007 0.88052 -0.02300
H 	H 	0.26115 0.91221 0.87479 0.12800
C 	C 	0.78637 0.69978 0.09099 -0.13300
C 	C 	0.68968 0.79537 0.09603 0.08400
N 	N 	0.84783 0.65329 0.99490 -0.04700
H 	H 	0.81067 0.66622 0.15178 0.13000
H 	H 	0.64938 0.82568 0.16019 0.06500
F 	F 	0.03006 0.50686 0.83739 -0.52600
C 	C 	0.33819 0.74996 0.07163 -0.14500
C 	C 	0.24332 0.65276 0.07506 0.07300
N 	N 	0.34599 0.84834 0.99652 -0.04600
H 	H 	0.39711 0.74993 0.11948 0.09800
H 	H 	0.23885 0.58779 0.12521 0.01400
C 	C 	0.71363 0.80022 0.90901 0.16200
C 	C 	0.81032 0.70463 0.90397 -0.04000
N 	N 	0.65217 0.84671 0.00510 -0.21500
H 	H 	0.68933 0.83378 0.84822 0.05800
H 	H 	0.85062 0.67432 0.83981 0.13500
F 	F 	0.46994 0.99314 0.16261 -0.41300
C 	C 	0.83819 0.24996 0.07163 -0.16100
C 	C 	0.74332 0.15276 0.07506 0.08700
N 	N 	0.84599 0.34834 0.99652 -0.04300
H 	H 	0.89711 0.24993 0.11948 0.12600
H 	H 	0.73885 0.08779 0.12521 -0.01600
C 	C 	0.21363 0.30022 0.90901 0.14800
C 	C 	0.31032 0.20463 0.90397 -0.09000
N 	N 	0.15217 0.34671 0.00510 -0.28400
H 	H 	0.18933 0.33378 0.84822 -0.00000
H 	H 	0.35062 0.17432 0.83981 0.09400
F 	F 	0.96994 0.49314 0.16261 -0.40300
Ni	Ni	0.50000 0.00000 -0.00000 1.02400
Ni	Ni	0.00000 0.50000 -0.00000 1.02600
