data_crystal

_cell_length_a 7.61120
_cell_length_b 11.92700
_cell_length_c 12.13000
_cell_angle_alpha 67.60200
_cell_angle_beta  89.92000
_cell_angle_gamma 80.49800

_symmetry_space_group_name_	'P 1'
_symmetry_space_group_name_H-M	'P 1'

loop_
_symmetry_equiv_pos_as_xyz
  x,y,z

loop_
_atom_site_label
_atom_site_type_symbol
_atom_site_fract_x
_atom_site_fract_y
_atom_site_fract_z
_atom_site_charge
Ho	Ho	0.99247 0.85483 0.35481 1.78000
Ho	Ho	0.49254 0.85507 0.25380 1.77000
O 	O 	0.46100 0.64530 0.26210 -0.43700
O 	O 	0.27350 0.72500 0.35910 -0.55800
O 	O 	0.28270 0.88860 0.10010 -0.49700
O 	O 	0.21880 0.10650 0.51600 -0.49100
O 	O 	0.48560 0.14830 0.53980 -0.48200
O 	O 	0.23640 0.97690 0.28800 -0.53900
O 	O 	0.98920 0.06590 0.32880 -0.41600
O 	O 	0.03750 0.34970 0.49450 -0.41400
O 	O 	0.23110 0.27300 0.65090 -0.56300
O 	O 	0.26020 0.02350 0.77320 -0.54900
O 	O 	0.51530 0.92980 0.88400 -0.42400
C 	C 	0.36000 0.92730 0.85360 0.38600
C 	C 	0.27400 0.81180 0.91310 -0.19400
H 	H 	0.36260 0.74760 0.96950 0.08800
H 	H 	0.24450 0.78300 0.85190 0.08600
C 	C 	0.10700 0.82800 0.97860 -0.27100
H 	H 	0.01890 0.89350 0.92330 0.11400
H 	H 	0.05740 0.75240 0.00310 0.10100
C 	C 	0.36500 0.13930 0.47960 0.50400
C 	C 	0.22400 0.19040 0.27070 -0.20800
H 	H 	0.13450 0.25290 0.28070 0.09100
H 	H 	0.25340 0.22040 0.18770 0.08800
C 	C 	0.39500 0.17000 0.35160 -0.31300
H 	H 	0.48200 0.10440 0.34440 0.12100
H 	H 	0.44660 0.24470 0.32190 0.11700
C 	C 	0.14800 0.07400 0.29940 0.38400
O 	O 	0.02000 0.84520 0.16080 -0.49300
C 	C 	0.33100 0.63600 0.32310 0.43000
C 	C 	0.13700 0.85720 0.09050 0.49700
C 	C 	0.17800 0.35620 0.54880 0.37500
C 	C 	0.29400 0.45500 0.49170 -0.18900
H 	H 	0.28630 0.50920 0.53490 0.09300
H 	H 	0.41790 0.41550 0.49810 0.07400
C 	C 	0.23400 0.53190 0.35910 -0.30400
H 	H 	0.26480 0.48310 0.31130 0.11900
H 	H 	0.10640 0.56100 0.34930 0.12300
Ho	Ho	0.00753 0.14517 0.64519 1.78100
Ho	Ho	0.50746 0.14493 0.74620 1.77100
O 	O 	0.53900 0.35470 0.73790 -0.43700
O 	O 	0.72650 0.27500 0.64090 -0.55800
O 	O 	0.71730 0.11140 0.89990 -0.49700
O 	O 	0.78120 0.89350 0.48400 -0.49100
O 	O 	0.51440 0.85170 0.46020 -0.48200
O 	O 	0.76360 0.02310 0.71200 -0.53900
O 	O 	0.01080 0.93410 0.67120 -0.41600
O 	O 	0.96250 0.65030 0.50550 -0.41400
O 	O 	0.76890 0.72700 0.34910 -0.56300
O 	O 	0.73980 0.97650 0.22680 -0.54900
O 	O 	0.48470 0.07020 0.11600 -0.42400
C 	C 	0.64000 0.07270 0.14640 0.38600
C 	C 	0.72600 0.18820 0.08690 -0.19400
H 	H 	0.63740 0.25240 0.03050 0.08800
H 	H 	0.75550 0.21700 0.14810 0.08600
C 	C 	0.89300 0.17200 0.02140 -0.27100
H 	H 	0.98110 0.10650 0.07670 0.11400
H 	H 	0.94260 0.24760 0.99690 0.10100
C 	C 	0.63500 0.86070 0.52040 0.50400
C 	C 	0.77600 0.80960 0.72930 -0.20800
H 	H 	0.86550 0.74710 0.71930 0.09100
H 	H 	0.74660 0.77960 0.81230 0.08800
C 	C 	0.60500 0.83000 0.64840 -0.31300
H 	H 	0.51800 0.89560 0.65560 0.12100
H 	H 	0.55340 0.75530 0.67810 0.11700
C 	C 	0.85200 0.92600 0.70060 0.38400
O 	O 	0.98000 0.15480 0.83920 -0.49300
C 	C 	0.66900 0.36400 0.67690 0.43000
C 	C 	0.86300 0.14280 0.90950 0.49700
C 	C 	0.82200 0.64380 0.45120 0.37500
C 	C 	0.70600 0.54500 0.50830 -0.18900
H 	H 	0.71370 0.49080 0.46510 0.09300
H 	H 	0.58210 0.58450 0.50190 0.07400
C 	C 	0.76600 0.46810 0.64090 -0.30400
H 	H 	0.73520 0.51690 0.68870 0.11900
H 	H 	0.89360 0.43900 0.65070 0.12300
