data_crystal

_cell_length_a 9.91970
_cell_length_b 9.91970
_cell_length_c 6.34340
_cell_angle_alpha 90.00000
_cell_angle_beta  90.00000
_cell_angle_gamma 90.00000

_symmetry_space_group_name_	'P 1'
_symmetry_space_group_name_H-M	'P 1'

loop_
_symmetry_equiv_pos_as_xyz
  x,y,z

loop_
_atom_site_label
_atom_site_type_symbol
_atom_site_fract_x
_atom_site_fract_y
_atom_site_fract_z
_atom_site_charge
C 	C 	0.22268 0.17520 0.16735 0.00300
H 	H 	0.20153 0.12250 0.29024 0.04200
C 	C 	0.77732 0.82480 0.16735 0.00900
H 	H 	0.79847 0.87750 0.29024 0.06100
C 	C 	0.32480 0.72268 0.16735 0.00900
H 	H 	0.37750 0.70153 0.29024 0.04800
C 	C 	0.67520 0.27732 0.16735 0.00800
H 	H 	0.62250 0.29847 0.29024 0.04600
C 	C 	0.27732 0.67520 0.83265 0.05300
H 	H 	0.29847 0.62250 0.70976 0.03800
C 	C 	0.72268 0.32480 0.83265 0.05400
H 	H 	0.70153 0.37750 0.70976 0.03900
C 	C 	0.17520 0.22268 0.83265 0.05400
H 	H 	0.12250 0.20153 0.70976 0.03300
C 	C 	0.82480 0.77732 0.83265 0.04600
H 	H 	0.87750 0.79847 0.70976 0.05300
C 	C 	0.27732 0.32480 0.83265 0.05000
H 	H 	0.29847 0.37750 0.70976 0.03700
C 	C 	0.72268 0.67520 0.83265 0.05600
H 	H 	0.70153 0.62250 0.70976 0.03900
C 	C 	0.17520 0.77732 0.83265 0.05000
H 	H 	0.12250 0.79847 0.70976 0.04000
C 	C 	0.82480 0.22268 0.83265 0.05000
H 	H 	0.87750 0.20153 0.70976 0.04700
C 	C 	0.22268 0.82480 0.16735 0.00600
H 	H 	0.20153 0.87750 0.29024 0.05500
C 	C 	0.77732 0.17520 0.16735 0.00500
H 	H 	0.79847 0.12250 0.29024 0.04900
C 	C 	0.32480 0.27732 0.16735 0.00300
H 	H 	0.37750 0.29847 0.29024 0.04600
C 	C 	0.67520 0.72268 0.16735 0.01300
H 	H 	0.62250 0.70153 0.29024 0.04800
Ni	Ni	-0.00000 0.00000 -0.00000 1.10800
Ni	Ni	0.50000 0.50000 -0.00000 1.12800
F 	F 	-0.00000 -0.00000 0.32578 -0.68100
F 	F 	0.50000 0.50000 0.32578 -0.66200
F 	F 	0.50000 0.50000 0.67422 -0.64800
F 	F 	0.00000 0.00000 0.67422 -0.66400
N 	N 	0.15047 0.15047 -0.00000 -0.22200
N 	N 	0.84953 0.84953 -0.00000 -0.19500
N 	N 	0.34953 0.65047 -0.00000 -0.21500
N 	N 	0.65047 0.34953 -0.00000 -0.21400
N 	N 	0.34953 0.34953 -0.00000 -0.21600
N 	N 	0.65047 0.65047 -0.00000 -0.21300
N 	N 	0.15047 0.84953 -0.00000 -0.20800
N 	N 	0.84953 0.15047 -0.00000 -0.20800
H 	H 	0.00000 0.00000 0.50000 0.45600
H 	H 	0.50000 0.50000 0.50000 0.46400
