data_crystal

_cell_length_a 9.93590
_cell_length_b 9.93590
_cell_length_c 6.44710
_cell_angle_alpha 90.00000
_cell_angle_beta  90.00000
_cell_angle_gamma 90.00000

_symmetry_space_group_name_	'P 1'
_symmetry_space_group_name_H-M	'P 1'

loop_
_symmetry_equiv_pos_as_xyz
  x,y,z

loop_
_atom_site_label
_atom_site_type_symbol
_atom_site_fract_x
_atom_site_fract_y
_atom_site_fract_z
_atom_site_charge
C 	C 	0.22400 0.17610 0.16880 0.00100
H 	H 	0.20153 0.12250 0.29024 0.04400
C 	C 	0.77600 0.82390 0.16880 0.00700
H 	H 	0.79847 0.87750 0.29024 0.06200
C 	C 	0.32390 0.72400 0.16880 0.00600
H 	H 	0.37750 0.70153 0.29024 0.04900
C 	C 	0.67610 0.27600 0.16880 0.00500
H 	H 	0.62250 0.29847 0.29024 0.04700
C 	C 	0.27600 0.67610 0.83120 0.04900
H 	H 	0.29847 0.62250 0.70976 0.04000
C 	C 	0.72400 0.32390 0.83120 0.05000
H 	H 	0.70153 0.37750 0.70976 0.04100
C 	C 	0.17610 0.22400 0.83120 0.05000
H 	H 	0.12250 0.20153 0.70976 0.03500
C 	C 	0.82390 0.77600 0.83120 0.04300
H 	H 	0.87750 0.79847 0.70976 0.05500
C 	C 	0.27600 0.32390 0.83120 0.04600
H 	H 	0.29847 0.37750 0.70976 0.03900
C 	C 	0.72400 0.67610 0.83120 0.05200
H 	H 	0.70153 0.62250 0.70976 0.04200
C 	C 	0.17610 0.77600 0.83120 0.04600
H 	H 	0.12250 0.79847 0.70976 0.04200
C 	C 	0.82390 0.22400 0.83120 0.04700
H 	H 	0.87750 0.20153 0.70976 0.04800
C 	C 	0.22400 0.82390 0.16880 0.00400
H 	H 	0.20153 0.87750 0.29024 0.05600
C 	C 	0.77600 0.17610 0.16880 0.00300
H 	H 	0.79847 0.12250 0.29024 0.05000
C 	C 	0.32390 0.27600 0.16880 0.00100
H 	H 	0.37750 0.29847 0.29024 0.04700
C 	C 	0.67610 0.72400 0.16880 0.01000
H 	H 	0.62250 0.70153 0.29024 0.04900
Ni	Ni	-0.00000 0.00000 -0.00000 1.10100
Ni	Ni	0.50000 0.50000 -0.00000 1.12000
F 	F 	0.00000 0.00000 0.32550 -0.66500
F 	F 	0.50000 0.50000 0.32550 -0.64500
F 	F 	0.50000 0.50000 0.67450 -0.63200
F 	F 	0.00000 0.00000 0.67450 -0.64800
N 	N 	0.15110 0.15110 -0.00000 -0.21900
N 	N 	0.84890 0.84890 -0.00000 -0.19300
N 	N 	0.34890 0.65110 -0.00000 -0.21200
N 	N 	0.65110 0.34890 -0.00000 -0.21200
N 	N 	0.34890 0.34890 -0.00000 -0.21300
N 	N 	0.65110 0.65110 -0.00000 -0.21000
N 	N 	0.15110 0.84890 -0.00000 -0.20600
N 	N 	0.84890 0.15110 -0.00000 -0.20500
H 	H 	0.00000 0.00000 0.50000 0.43300
H 	H 	0.50000 0.50000 0.50000 0.44000
