data_crystal

_cell_length_a 14.20700
_cell_length_b 14.56400
_cell_length_c 26.22000
_cell_angle_alpha 90.00000
_cell_angle_beta  90.00000
_cell_angle_gamma 107.08000

_symmetry_space_group_name_	'P 1'
_symmetry_space_group_name_H-M	'P 1'

loop_
_symmetry_equiv_pos_as_xyz
  x,y,z

loop_
_atom_site_label
_atom_site_type_symbol
_atom_site_fract_x
_atom_site_fract_y
_atom_site_fract_z
_atom_site_charge
Cu	Cu	0.56376 0.43549 0.79726 0.89700
Cu	Cu	0.41098 0.97273 0.47975 0.90600
Cu	Cu	0.93624 0.56451 0.29726 0.89700
Cu	Cu	0.08902 0.02727 0.97975 0.90500
Cu	Cu	0.43624 0.56451 0.20274 0.89700
Cu	Cu	0.58902 0.02727 0.52025 0.90600
Cu	Cu	0.06376 0.43549 0.70274 0.89700
Cu	Cu	0.91098 0.97273 0.02025 0.90500
H 	H 	0.74060 0.53520 0.73860 0.01100
H 	H 	0.78550 0.64170 0.66720 0.05800
H 	H 	0.66120 0.68280 0.62330 0.04100
H 	H 	0.46870 0.55290 0.73100 0.01100
H 	H 	0.56680 0.77940 0.61420 0.05800
H 	H 	0.28090 0.74230 0.58240 0.05800
H 	H 	0.35540 0.55120 0.67420 0.05900
H 	H 	0.42470 0.26090 0.85250 0.00900
H 	H 	0.43870 0.11840 0.88710 0.05800
H 	H 	0.59090 0.09550 0.89610 0.03800
H 	H 	0.71060 0.35660 0.83140 0.02000
H 	H 	0.76540 0.12610 0.92430 0.06300
H 	H 	0.03650 0.20190 0.85860 0.06500
H 	H 	0.81670 0.29140 0.79760 0.06900
H 	H 	0.75940 0.46480 0.23860 0.01100
H 	H 	0.71450 0.35830 0.16720 0.05800
H 	H 	0.83880 0.31720 0.12330 0.04200
H 	H 	0.03130 0.44710 0.23100 0.01100
H 	H 	0.93320 0.22060 0.11420 0.05900
H 	H 	0.21910 0.25770 0.08240 0.05800
H 	H 	0.14460 0.44880 0.17420 0.05900
H 	H 	0.07530 0.73910 0.35250 0.00900
H 	H 	0.06130 0.88160 0.38710 0.05800
H 	H 	0.90910 0.90450 0.39610 0.03900
H 	H 	0.78940 0.64340 0.33140 0.02000
H 	H 	0.73460 0.87390 0.42430 0.06300
H 	H 	0.46350 0.79810 0.35860 0.06800
H 	H 	0.68330 0.70860 0.29760 0.06900
H 	H 	0.25940 0.46480 0.26140 0.01100
H 	H 	0.21450 0.35830 0.33280 0.05800
H 	H 	0.33880 0.31720 0.37670 0.04100
H 	H 	0.53130 0.44710 0.26900 0.01100
H 	H 	0.43320 0.22060 0.38580 0.05800
H 	H 	0.71910 0.25770 0.41760 0.05800
H 	H 	0.64460 0.44880 0.32580 0.05900
H 	H 	0.57530 0.73910 0.14750 0.00900
H 	H 	0.56130 0.88160 0.11290 0.05800
H 	H 	0.40910 0.90450 0.10390 0.03800
H 	H 	0.28940 0.64340 0.16860 0.02000
H 	H 	0.23460 0.87390 0.07570 0.06300
H 	H 	0.96350 0.79810 0.14140 0.06500
H 	H 	0.18330 0.70860 0.20240 0.06900
H 	H 	0.24060 0.53520 0.76140 0.01100
H 	H 	0.28550 0.64170 0.83280 0.05800
H 	H 	0.16120 0.68280 0.87670 0.04200
H 	H 	0.96870 0.55290 0.76900 0.01100
H 	H 	0.06680 0.77940 0.88580 0.05900
H 	H 	0.78090 0.74230 0.91760 0.05800
H 	H 	0.85540 0.55120 0.82580 0.05900
H 	H 	0.92470 0.26090 0.64750 0.00900
H 	H 	0.93870 0.11840 0.61290 0.05800
H 	H 	0.09090 0.09550 0.60390 0.03900
H 	H 	0.21060 0.35660 0.66860 0.02000
H 	H 	0.26540 0.12610 0.57570 0.06300
H 	H 	0.53650 0.20190 0.64140 0.06800
H 	H 	0.31670 0.29140 0.70240 0.06900
C 	C 	0.69290 0.55880 0.72210 0.04900
C 	C 	0.71930 0.62030 0.67880 -0.07500
C 	C 	0.64650 0.64770 0.65430 -0.01700
C 	C 	0.55190 0.62500 0.67390 -0.01700
C 	C 	0.53290 0.56870 0.71660 0.02600
C 	C 	0.47160 0.65460 0.64900 0.01900
C 	C 	0.49980 0.74240 0.61740 -0.03200
C 	C 	0.42620 0.76930 0.59250 -0.06300
C 	C 	0.33020 0.72070 0.59870 -0.00200
C 	C 	0.30250 0.63470 0.63050 -0.05000
C 	C 	0.37390 0.60720 0.65350 -0.03900
C 	C 	0.19480 0.58320 0.63800 0.28700
C 	C 	0.45190 0.85630 0.55790 0.34500
C 	C 	0.48720 0.25020 0.85550 0.05100
C 	C 	0.49580 0.16660 0.87590 -0.08100
C 	C 	0.58590 0.15260 0.88030 -0.01000
C 	C 	0.67380 0.22130 0.86170 -0.02600
C 	C 	0.65580 0.30580 0.84260 0.04200
C 	C 	0.77120 0.21220 0.86220 0.03300
C 	C 	0.80810 0.15940 0.89800 -0.04200
C 	C 	0.90070 0.15380 0.89680 -0.04900
C 	C 	0.97000 0.20310 0.85910 -0.01800
C 	C 	0.93110 0.25410 0.82240 -0.02500
C 	C 	0.83850 0.25730 0.82370 -0.05700
C 	C 	0.94250 0.09560 0.93500 0.35400
C 	C 	0.00870 0.31140 0.78190 0.28400
C 	C 	0.80710 0.44120 0.22210 0.04900
C 	C 	0.78070 0.37970 0.17880 -0.07500
C 	C 	0.85350 0.35230 0.15430 -0.01700
C 	C 	0.94810 0.37500 0.17390 -0.01800
C 	C 	0.96710 0.43130 0.21660 0.02600
C 	C 	0.02840 0.34540 0.14900 0.02000
C 	C 	0.00020 0.25760 0.11740 -0.03400
C 	C 	0.07380 0.23070 0.09250 -0.06100
C 	C 	0.16980 0.27930 0.09870 -0.00200
C 	C 	0.19750 0.36530 0.13050 -0.04900
C 	C 	0.12610 0.39280 0.15350 -0.04000
C 	C 	0.30520 0.41680 0.13800 0.28600
C 	C 	0.04810 0.14370 0.05790 0.34300
C 	C 	0.01280 0.74980 0.35550 0.05100
C 	C 	0.00420 0.83340 0.37590 -0.07700
C 	C 	0.91410 0.84740 0.38030 -0.01400
C 	C 	0.82620 0.77870 0.36170 -0.02500
C 	C 	0.84420 0.69420 0.34260 0.04100
C 	C 	0.72880 0.78780 0.36220 0.03300
C 	C 	0.69190 0.84060 0.39800 -0.04400
C 	C 	0.59930 0.84620 0.39680 -0.04700
C 	C 	0.53000 0.79690 0.35910 -0.02300
C 	C 	0.56890 0.74590 0.32240 -0.02500
C 	C 	0.66150 0.74270 0.32370 -0.05700
C 	C 	0.55750 0.90440 0.43500 0.35000
C 	C 	0.49130 0.68860 0.28190 0.28700
C 	C 	0.30710 0.44120 0.27790 0.04900
C 	C 	0.28070 0.37970 0.32120 -0.07500
C 	C 	0.35350 0.35230 0.34570 -0.01700
C 	C 	0.44810 0.37500 0.32610 -0.01700
C 	C 	0.46710 0.43130 0.28340 0.02600
C 	C 	0.52840 0.34540 0.35100 0.01900
C 	C 	0.50020 0.25760 0.38260 -0.03200
C 	C 	0.57380 0.23070 0.40750 -0.06300
C 	C 	0.66980 0.27930 0.40130 -0.00200
C 	C 	0.69750 0.36530 0.36950 -0.05000
C 	C 	0.62610 0.39280 0.34650 -0.03900
C 	C 	0.80520 0.41680 0.36200 0.28700
C 	C 	0.54810 0.14370 0.44210 0.34500
C 	C 	0.51280 0.74980 0.14450 0.05100
C 	C 	0.50420 0.83340 0.12410 -0.08100
C 	C 	0.41410 0.84740 0.11970 -0.01000
C 	C 	0.32620 0.77870 0.13830 -0.02600
C 	C 	0.34420 0.69420 0.15740 0.04200
C 	C 	0.22880 0.78780 0.13780 0.03300
C 	C 	0.19190 0.84060 0.10200 -0.04200
C 	C 	0.09930 0.84620 0.10320 -0.04900
C 	C 	0.03000 0.79690 0.14090 -0.01800
C 	C 	0.06890 0.74590 0.17760 -0.02500
C 	C 	0.16150 0.74270 0.17630 -0.05700
C 	C 	0.05750 0.90440 0.06500 0.35400
C 	C 	0.99130 0.68860 0.21810 0.28400
C 	C 	0.19290 0.55880 0.77790 0.04900
C 	C 	0.21930 0.62030 0.82120 -0.07500
C 	C 	0.14650 0.64770 0.84570 -0.01700
C 	C 	0.05190 0.62500 0.82610 -0.01800
C 	C 	0.03290 0.56870 0.78340 0.02600
C 	C 	0.97160 0.65460 0.85100 0.02000
C 	C 	0.99980 0.74240 0.88260 -0.03400
C 	C 	0.92620 0.76930 0.90750 -0.06100
C 	C 	0.83020 0.72070 0.90130 -0.00200
C 	C 	0.80250 0.63470 0.86950 -0.04900
C 	C 	0.87390 0.60720 0.84650 -0.04000
C 	C 	0.69480 0.58320 0.86200 0.28600
C 	C 	0.95190 0.85630 0.94210 0.34300
C 	C 	0.98720 0.25020 0.64450 0.05100
C 	C 	0.99580 0.16660 0.62410 -0.07700
C 	C 	0.08590 0.15260 0.61970 -0.01400
C 	C 	0.17380 0.22130 0.63830 -0.02500
C 	C 	0.15580 0.30580 0.65740 0.04100
C 	C 	0.27120 0.21220 0.63780 0.03300
C 	C 	0.30810 0.15940 0.60200 -0.04400
C 	C 	0.40070 0.15380 0.60320 -0.04700
C 	C 	0.47000 0.20310 0.64090 -0.02300
C 	C 	0.43110 0.25410 0.67760 -0.02500
C 	C 	0.33850 0.25730 0.67630 -0.05700
C 	C 	0.44250 0.09560 0.56500 0.35000
C 	C 	0.50870 0.31140 0.71810 0.28700
N 	N 	0.60060 0.53500 0.73900 -0.19900
N 	N 	0.56970 0.31740 0.83960 -0.19900
N 	N 	0.89940 0.46500 0.23900 -0.19900
N 	N 	0.93030 0.68260 0.33960 -0.19900
N 	N 	0.39940 0.46500 0.26100 -0.19900
N 	N 	0.43030 0.68260 0.16040 -0.19900
N 	N 	0.10060 0.53500 0.76100 -0.19900
N 	N 	0.06970 0.31740 0.66040 -0.19900
O 	O 	0.12580 0.58680 0.60650 -0.24800
O 	O 	0.17990 0.50930 0.66695 -0.38500
O 	O 	0.38690 0.86630 0.52773 -0.40200
O 	O 	0.53880 0.91130 0.56176 -0.40200
O 	O 	0.87600 0.05070 0.96711 -0.39700
O 	O 	0.02800 0.09680 0.93308 -0.42200
O 	O 	0.09670 0.31540 0.78259 -0.27800
O 	O 	0.96710 0.35270 0.74841 -0.37800
O 	O 	0.37420 0.41320 0.10650 -0.24800
O 	O 	0.32010 0.49070 0.16695 -0.38400
O 	O 	0.11310 0.13370 0.02773 -0.40100
O 	O 	0.96120 0.08870 0.06176 -0.39900
O 	O 	0.62400 0.94930 0.46711 -0.39700
O 	O 	0.47200 0.90320 0.43308 -0.41800
O 	O 	0.40330 0.68460 0.28259 -0.27800
O 	O 	0.53290 0.64730 0.24841 -0.37900
O 	O 	0.87420 0.41320 0.39350 -0.24800
O 	O 	0.82010 0.49070 0.33305 -0.38500
O 	O 	0.61310 0.13370 0.47227 -0.40200
O 	O 	0.46120 0.08870 0.43824 -0.40200
O 	O 	0.12400 0.94930 0.03289 -0.39700
O 	O 	0.97200 0.90320 0.06692 -0.42200
O 	O 	0.90330 0.68460 0.21741 -0.27800
O 	O 	0.03290 0.64730 0.25159 -0.37800
O 	O 	0.62580 0.58680 0.89350 -0.24800
O 	O 	0.67990 0.50930 0.83305 -0.38400
O 	O 	0.88690 0.86630 0.97227 -0.40100
O 	O 	0.03880 0.91130 0.93824 -0.39900
O 	O 	0.37600 0.05070 0.53289 -0.39700
O 	O 	0.52800 0.09680 0.56692 -0.41800
O 	O 	0.59670 0.31540 0.71741 -0.27800
O 	O 	0.46710 0.35270 0.75159 -0.37900
