data_crystal

_cell_length_a 18.81680
_cell_length_b 11.35110
_cell_length_c 16.92840
_cell_angle_alpha 90.00000
_cell_angle_beta  102.05100
_cell_angle_gamma 90.00000

_symmetry_space_group_name_	'P 1'
_symmetry_space_group_name_H-M	'P 1'

loop_
_symmetry_equiv_pos_as_xyz
  x,y,z

loop_
_atom_site_label
_atom_site_type_symbol
_atom_site_fract_x
_atom_site_fract_y
_atom_site_fract_z
_atom_site_charge
La	La	0.31000 0.20992 0.33598 1.64900
K 	K 	0.65439 0.09950 0.52468 0.64100
O 	O 	0.39290 0.14760 0.46860 -0.37600
O 	O 	0.50440 0.13260 0.54290 -0.25700
O 	O 	0.44260 0.21670 0.34280 -0.36100
O 	O 	0.55550 0.19050 0.40670 -0.30500
O 	O 	0.33840 0.41880 0.29750 -0.34300
O 	O 	0.22780 0.13950 0.42760 -0.36300
O 	O 	0.17070 0.48870 0.18040 -0.40000
O 	O 	0.21010 0.14720 0.55360 -0.35000
O 	O 	0.20220 0.33430 0.25940 -0.34400
O 	O 	0.29750 0.59150 0.24630 -0.33500
C 	C 	0.46040 0.15240 0.47900 0.22600
C 	C 	0.49020 0.18880 0.40350 0.26400
C 	C 	0.29040 0.48470 0.26140 0.21900
C 	C 	0.23230 0.18750 0.49500 0.23500
C 	C 	0.21450 0.43110 0.23170 0.21200
La	La	0.81000 0.70992 0.33598 1.64800
K 	K 	0.15439 0.59950 0.52468 0.64000
O 	O 	0.89290 0.64760 0.46860 -0.37800
O 	O 	0.00440 0.63260 0.54290 -0.25800
O 	O 	0.94260 0.71670 0.34280 -0.36200
O 	O 	0.05550 0.69050 0.40670 -0.30600
O 	O 	0.83840 0.91880 0.29750 -0.34400
O 	O 	0.72780 0.63950 0.42760 -0.36400
O 	O 	0.67070 0.98870 0.18040 -0.40100
O 	O 	0.71010 0.64720 0.55360 -0.35100
O 	O 	0.70220 0.83430 0.25940 -0.34500
O 	O 	0.79750 0.09150 0.24630 -0.33600
C 	C 	0.96040 0.65240 0.47900 0.22500
C 	C 	0.99020 0.68880 0.40350 0.26300
C 	C 	0.79040 0.98470 0.26140 0.21900
C 	C 	0.73230 0.68750 0.49500 0.23500
C 	C 	0.71450 0.93110 0.23170 0.21200
La	La	0.69000 0.20992 0.16402 1.64800
K 	K 	0.34561 0.09950 0.97532 0.64000
O 	O 	0.60710 0.14760 0.03140 -0.37700
O 	O 	0.49560 0.13260 0.95710 -0.25700
O 	O 	0.55740 0.21670 0.15720 -0.36200
O 	O 	0.44450 0.19050 0.09330 -0.30600
O 	O 	0.66160 0.41880 0.20250 -0.34400
O 	O 	0.77220 0.13950 0.07240 -0.36400
O 	O 	0.82930 0.48870 0.31960 -0.40100
O 	O 	0.78990 0.14720 0.94640 -0.35100
O 	O 	0.79780 0.33430 0.24060 -0.34500
O 	O 	0.70250 0.59150 0.25370 -0.33600
C 	C 	0.53960 0.15240 0.02100 0.22500
C 	C 	0.50980 0.18880 0.09650 0.26300
C 	C 	0.70960 0.48470 0.23860 0.21900
C 	C 	0.76770 0.18750 0.00500 0.23700
C 	C 	0.78550 0.43110 0.26830 0.21200
La	La	0.19000 0.70992 0.16402 1.64800
K 	K 	0.84561 0.59950 0.97532 0.64000
O 	O 	0.10710 0.64760 0.03140 -0.37800
O 	O 	0.99560 0.63260 0.95710 -0.25800
O 	O 	0.05740 0.71670 0.15720 -0.36200
O 	O 	0.94450 0.69050 0.09330 -0.30500
O 	O 	0.16160 0.91880 0.20250 -0.34400
O 	O 	0.27220 0.63950 0.07240 -0.36400
O 	O 	0.32930 0.98870 0.31960 -0.40100
O 	O 	0.28990 0.64720 0.94640 -0.35000
O 	O 	0.29780 0.83430 0.24060 -0.34500
O 	O 	0.20250 0.09150 0.25370 -0.33600
C 	C 	0.03960 0.65240 0.02100 0.22500
C 	C 	0.00980 0.68880 0.09650 0.26100
C 	C 	0.20960 0.98470 0.23860 0.21900
C 	C 	0.26770 0.68750 0.00500 0.23500
C 	C 	0.28550 0.93110 0.26830 0.21200
La	La	0.69000 0.79008 0.66402 1.64800
K 	K 	0.34561 0.90050 0.47532 0.64000
O 	O 	0.60710 0.85240 0.53140 -0.37700
O 	O 	0.49560 0.86740 0.45710 -0.25800
O 	O 	0.55740 0.78330 0.65720 -0.36200
O 	O 	0.44450 0.80950 0.59330 -0.30600
O 	O 	0.66160 0.58120 0.70250 -0.34400
O 	O 	0.77220 0.86050 0.57240 -0.36400
O 	O 	0.82930 0.51130 0.81960 -0.40100
O 	O 	0.78990 0.85280 0.44640 -0.35100
O 	O 	0.79780 0.66570 0.74060 -0.34500
O 	O 	0.70250 0.40850 0.75370 -0.33600
C 	C 	0.53960 0.84760 0.52100 0.22500
C 	C 	0.50980 0.81120 0.59650 0.26300
C 	C 	0.70960 0.51530 0.73860 0.21900
C 	C 	0.76770 0.81250 0.50500 0.23500
C 	C 	0.78550 0.56890 0.76830 0.21200
La	La	0.19000 0.29008 0.66402 1.64800
K 	K 	0.84561 0.40050 0.47532 0.64000
O 	O 	0.10710 0.35240 0.53140 -0.37800
O 	O 	0.99560 0.36740 0.45710 -0.25800
O 	O 	0.05740 0.28330 0.65720 -0.36200
O 	O 	0.94450 0.30950 0.59330 -0.30600
O 	O 	0.16160 0.08120 0.70250 -0.34400
O 	O 	0.27220 0.36050 0.57240 -0.36400
O 	O 	0.32930 0.01130 0.81960 -0.40100
O 	O 	0.28990 0.35280 0.44640 -0.35100
O 	O 	0.29780 0.16570 0.74060 -0.34500
O 	O 	0.20250 0.90850 0.75370 -0.33600
C 	C 	0.03960 0.34760 0.52100 0.22500
C 	C 	0.00980 0.31120 0.59650 0.26300
C 	C 	0.20960 0.01530 0.73860 0.21900
C 	C 	0.26770 0.31250 0.50500 0.23500
C 	C 	0.28550 0.06890 0.76830 0.21200
La	La	0.31000 0.79008 0.83598 1.64800
K 	K 	0.65439 0.90050 0.02468 0.64000
O 	O 	0.39290 0.85240 0.96860 -0.37700
O 	O 	0.50440 0.86740 0.04290 -0.25700
O 	O 	0.44260 0.78330 0.84280 -0.36200
O 	O 	0.55550 0.80950 0.90670 -0.30600
O 	O 	0.33840 0.58120 0.79750 -0.34400
O 	O 	0.22780 0.86050 0.92760 -0.36400
O 	O 	0.17070 0.51130 0.68040 -0.40100
O 	O 	0.21010 0.85280 0.05360 -0.35100
O 	O 	0.20220 0.66570 0.75940 -0.34500
O 	O 	0.29750 0.40850 0.74630 -0.33600
C 	C 	0.46040 0.84760 0.97900 0.22500
C 	C 	0.49020 0.81120 0.90350 0.26300
C 	C 	0.29040 0.51530 0.76140 0.21900
C 	C 	0.23230 0.81250 0.99500 0.23700
C 	C 	0.21450 0.56890 0.73170 0.21200
La	La	0.81000 0.29008 0.83598 1.64800
K 	K 	0.15439 0.40050 0.02468 0.64000
O 	O 	0.89290 0.35240 0.96860 -0.37800
O 	O 	0.00440 0.36740 0.04290 -0.25800
O 	O 	0.94260 0.28330 0.84280 -0.36200
O 	O 	0.05550 0.30950 0.90670 -0.30500
O 	O 	0.83840 0.08120 0.79750 -0.34400
O 	O 	0.72780 0.36050 0.92760 -0.36400
O 	O 	0.67070 0.01130 0.68040 -0.40100
O 	O 	0.71010 0.35280 0.05360 -0.35000
O 	O 	0.70220 0.16570 0.75940 -0.34500
O 	O 	0.79750 0.90850 0.74630 -0.33600
C 	C 	0.96040 0.34760 0.97900 0.22500
C 	C 	0.99020 0.31120 0.90350 0.26100
C 	C 	0.79040 0.01530 0.76140 0.21900
C 	C 	0.73230 0.31250 0.99500 0.23500
C 	C 	0.71450 0.06890 0.73170 0.21200
