data_crystal

_cell_length_a 18.68420
_cell_length_b 18.68420
_cell_length_c 9.40800
_cell_angle_alpha 90.00000
_cell_angle_beta  90.00000
_cell_angle_gamma 90.00000

_symmetry_space_group_name_	'P 1'
_symmetry_space_group_name_H-M	'P 1'

loop_
_symmetry_equiv_pos_as_xyz
  x,y,z

loop_
_atom_site_label
_atom_site_type_symbol
_atom_site_fract_x
_atom_site_fract_y
_atom_site_fract_z
_atom_site_charge
P 	P 	0.06421 0.94340 0.33485 0.83100
O 	O 	0.07340 0.91880 0.48710 -0.76800
O 	O 	0.05840 0.87680 0.24230 -0.83500
O 	O 	0.12860 0.98880 0.29330 -0.82700
O 	O 	0.99510 0.98490 0.32170 -0.84200
Al	Al	0.16453 0.04424 0.15671 2.38900
O 	O 	0.15530 0.99930 0.98860 -0.74000
O 	O 	0.25600 0.06290 0.19170 -0.77700
O 	O 	0.37330 0.12170 0.15550 -0.81500
P 	P 	0.33331 0.05057 0.16026 0.80600
O 	O 	0.34220 0.01400 0.01730 -0.64600
O 	O 	0.36380 0.00480 0.27810 -0.82000
Al	Al	0.06542 0.83414 0.08060 2.38800
Co	Co	0.93458 0.16586 0.91940 1.32000
O 	O 	0.13760 0.86650 0.98270 -0.76400
O 	O 	0.24460 0.91940 0.87720 -0.46500
P 	P 	0.16652 0.93222 0.90426 0.78700
O 	O 	0.12970 0.93990 0.76050 -0.77200
Al	Al	0.05063 0.93361 0.66453 2.39600
P 	P 	0.43579 0.55660 0.33485 0.84000
O 	O 	0.42660 0.58120 0.48710 -0.76600
O 	O 	0.44160 0.62320 0.24230 -0.83400
O 	O 	0.37140 0.51120 0.29330 -0.82900
O 	O 	0.50490 0.51510 0.32170 -0.85500
Al	Al	0.33547 0.45576 0.15671 2.38900
O 	O 	0.34470 0.50070 0.98860 -0.73900
O 	O 	0.24400 0.43710 0.19170 -0.77700
O 	O 	0.12670 0.37830 0.15550 -0.81600
P 	P 	0.16669 0.44943 0.16026 0.80600
O 	O 	0.15780 0.48600 0.01730 -0.64500
O 	O 	0.13620 0.49520 0.27810 -0.81900
Al	Al	0.43458 0.66586 0.08060 2.38900
Co	Co	0.56542 0.33414 0.91940 1.32000
O 	O 	0.36240 0.63350 0.98270 -0.76300
O 	O 	0.25540 0.58060 0.87720 -0.46500
P 	P 	0.33348 0.56778 0.90426 0.78700
O 	O 	0.37030 0.56010 0.76050 -0.77100
Al	Al	0.44937 0.56639 0.66453 2.39600
P 	P 	0.55660 0.06421 0.33485 0.83600
O 	O 	0.58120 0.07340 0.48710 -0.76700
O 	O 	0.62320 0.05840 0.24230 -0.83600
O 	O 	0.51120 0.12860 0.29330 -0.82900
O 	O 	0.51510 0.99510 0.32170 -0.85000
Al	Al	0.45576 0.16453 0.15671 2.38900
O 	O 	0.50070 0.15530 0.98860 -0.73900
O 	O 	0.43710 0.25600 0.19170 -0.77700
O 	O 	0.37830 0.37330 0.15550 -0.81500
P 	P 	0.44943 0.33331 0.16026 0.80600
O 	O 	0.48600 0.34220 0.01730 -0.64400
O 	O 	0.49520 0.36380 0.27810 -0.81800
Al	Al	0.66586 0.06542 0.08060 2.38800
Co	Co	0.33414 0.93458 0.91940 1.32000
O 	O 	0.63350 0.13760 0.98270 -0.76300
O 	O 	0.58060 0.24460 0.87720 -0.46500
P 	P 	0.56778 0.16652 0.90426 0.78700
O 	O 	0.56010 0.12970 0.76050 -0.77100
Al	Al	0.56639 0.05063 0.66453 2.39600
P 	P 	0.94340 0.43579 0.33485 0.84000
O 	O 	0.91880 0.42660 0.48710 -0.76500
O 	O 	0.87680 0.44160 0.24230 -0.83300
O 	O 	0.98880 0.37140 0.29330 -0.82600
O 	O 	0.98490 0.50490 0.32170 -0.85100
Al	Al	0.04424 0.33547 0.15671 2.38800
O 	O 	0.99930 0.34470 0.98860 -0.73900
O 	O 	0.06290 0.24400 0.19170 -0.77700
O 	O 	0.12170 0.12670 0.15550 -0.81500
P 	P 	0.05057 0.16669 0.16026 0.80600
O 	O 	0.01400 0.15780 0.01730 -0.64600
O 	O 	0.00480 0.13620 0.27810 -0.82000
Al	Al	0.83414 0.43458 0.08060 2.38900
Co	Co	0.16586 0.56542 0.91940 1.32000
O 	O 	0.86650 0.36240 0.98270 -0.76300
O 	O 	0.91940 0.25540 0.87720 -0.46500
P 	P 	0.93222 0.33348 0.90426 0.78700
O 	O 	0.93990 0.37030 0.76050 -0.77000
Al	Al	0.93361 0.44937 0.66453 2.39600
P 	P 	0.93579 0.05660 0.66515 0.78800
O 	O 	0.92660 0.08120 0.51290 -0.76100
O 	O 	0.94160 0.12320 0.75770 -0.48800
O 	O 	0.87140 0.01120 0.70670 -0.78200
O 	O 	0.00490 0.01510 0.67830 -0.81600
Al	Al	0.83547 0.95576 0.84329 2.39700
O 	O 	0.84470 0.00070 0.01140 -0.88500
O 	O 	0.74400 0.93710 0.80830 -0.75000
O 	O 	0.62670 0.87830 0.84450 -0.77000
P 	P 	0.66669 0.94943 0.83974 0.85500
O 	O 	0.65780 0.98600 0.98270 -0.78700
O 	O 	0.63620 0.99520 0.72190 -0.82500
O 	O 	0.86240 0.13350 0.01730 -0.62200
O 	O 	0.75540 0.08060 0.12280 -0.81600
P 	P 	0.83348 0.06778 0.09574 0.80200
O 	O 	0.87030 0.06010 0.23950 -0.79000
Al	Al	0.94937 0.06639 0.33547 2.39500
P 	P 	0.56421 0.44340 0.66515 0.78900
O 	O 	0.57340 0.41880 0.51290 -0.76000
O 	O 	0.55840 0.37680 0.75770 -0.48700
O 	O 	0.62860 0.48880 0.70670 -0.77800
O 	O 	0.49510 0.48490 0.67830 -0.81600
Al	Al	0.66453 0.54424 0.84329 2.39600
O 	O 	0.65530 0.49930 0.01140 -0.88100
O 	O 	0.75600 0.56290 0.80830 -0.75200
O 	O 	0.87330 0.62170 0.84450 -0.76900
P 	P 	0.83331 0.55057 0.83974 0.85500
O 	O 	0.84220 0.51400 0.98270 -0.78900
O 	O 	0.86380 0.50480 0.72190 -0.82700
O 	O 	0.63760 0.36650 0.01730 -0.62300
O 	O 	0.74460 0.41940 0.12280 -0.81400
P 	P 	0.66652 0.43222 0.09574 0.80100
O 	O 	0.62970 0.43990 0.23950 -0.78800
Al	Al	0.55063 0.43361 0.33547 2.39600
P 	P 	0.44340 0.93579 0.66515 0.79100
O 	O 	0.41880 0.92660 0.51290 -0.75900
O 	O 	0.37680 0.94160 0.75770 -0.48700
O 	O 	0.48880 0.87140 0.70670 -0.77800
O 	O 	0.48490 0.00490 0.67830 -0.81900
Al	Al	0.54424 0.83547 0.84329 2.39600
O 	O 	0.49930 0.84470 0.01140 -0.88000
O 	O 	0.56290 0.74400 0.80830 -0.75200
O 	O 	0.62170 0.62670 0.84450 -0.77000
P 	P 	0.55057 0.66669 0.83974 0.85500
O 	O 	0.51400 0.65780 0.98270 -0.78900
O 	O 	0.50480 0.63620 0.72190 -0.82800
O 	O 	0.36650 0.86240 0.01730 -0.62100
O 	O 	0.41940 0.75540 0.12280 -0.81400
P 	P 	0.43222 0.83348 0.09574 0.80100
O 	O 	0.43990 0.87030 0.23950 -0.78700
Al	Al	0.43361 0.94937 0.33547 2.39600
P 	P 	0.05660 0.56421 0.66515 0.78900
O 	O 	0.08120 0.57340 0.51290 -0.76100
O 	O 	0.12320 0.55840 0.75770 -0.48700
O 	O 	0.01120 0.62860 0.70670 -0.78100
O 	O 	0.01510 0.49510 0.67830 -0.81800
Al	Al	0.95576 0.66453 0.84329 2.39600
O 	O 	0.00070 0.65530 0.01140 -0.88500
O 	O 	0.93710 0.75600 0.80830 -0.75000
O 	O 	0.87830 0.87330 0.84450 -0.76800
P 	P 	0.94943 0.83331 0.83974 0.85500
O 	O 	0.98600 0.84220 0.98270 -0.78600
O 	O 	0.99520 0.86380 0.72190 -0.82300
O 	O 	0.13350 0.63760 0.01730 -0.62300
O 	O 	0.08060 0.74460 0.12280 -0.81600
P 	P 	0.06778 0.66652 0.09574 0.80100
O 	O 	0.06010 0.62970 0.23950 -0.78900
Al	Al	0.06639 0.55063 0.33547 2.39500
