data_crystal

_cell_length_a 35.12600
_cell_length_b 35.12600
_cell_length_c 11.23900
_cell_angle_alpha 90.00000
_cell_angle_beta  90.00000
_cell_angle_gamma 90.00000

_symmetry_space_group_name_	'P 1'
_symmetry_space_group_name_H-M	'P 1'

loop_
_symmetry_equiv_pos_as_xyz
  x,y,z

loop_
_atom_site_label
_atom_site_type_symbol
_atom_site_fract_x
_atom_site_fract_y
_atom_site_fract_z
_atom_site_charge
O 	O 	0.60433 0.45993 0.58440 -0.67000
O 	O 	0.46695 0.51497 0.34750 -1.34000
O 	O 	0.60216 0.51960 0.65530 -0.75200
O 	O 	0.90931 0.44784 0.85350 -0.63700
O 	O 	0.51103 0.55780 0.46180 -1.35300
C 	C 	0.79456 0.46079 0.80480 -0.07200
H 	H 	0.77680 0.45080 0.86050 0.07700
O 	O 	0.92279 0.49622 0.73080 -0.77300
C 	C 	0.80752 0.49421 0.62210 0.07900
C 	C 	0.83338 0.45653 0.82420 0.03500
H 	H 	0.84220 0.44370 0.89320 0.06000
C 	C 	0.85932 0.47112 0.74250 -0.14500
C 	C 	0.71932 0.45138 0.65460 -0.08800
H 	H 	0.73220 0.42770 0.64890 0.06500
C 	C 	0.68032 0.45324 0.63450 0.04500
H 	H 	0.66660 0.43080 0.61500 0.03400
C 	C 	0.66149 0.48793 0.64290 -0.15400
C 	C 	0.72065 0.51888 0.69150 0.07000
C 	C 	0.68164 0.52074 0.67140 -0.03300
H 	H 	0.66880 0.54440 0.67710 0.01700
C 	C 	0.79790 0.51230 0.49930 -0.42400
H 	H 	0.78380 0.53600 0.51140 0.12700
H 	H 	0.78240 0.49450 0.45280 0.14900
H 	H 	0.82160 0.51770 0.45630 0.12900
C 	C 	0.84641 0.48994 0.64160 -0.04300
H 	H 	0.86410 0.49990 0.58580 0.01800
C 	C 	0.78166 0.47965 0.70360 -0.01800
C 	C 	0.90060 0.47090 0.77110 0.51800
C 	C 	0.73950 0.48419 0.68300 -0.00700
C 	C 	0.62010 0.48993 0.62150 0.52400
C 	C 	0.74200 0.55700 0.72340 -0.41100
H 	H 	0.72340 0.57750 0.73350 0.12500
H 	H 	0.75960 0.56360 0.65900 0.12200
H 	H 	0.75630 0.55350 0.79750 0.14700
O 	O 	0.89567 0.04007 0.58440 -0.67200
O 	O 	0.03305 0.98503 0.34750 -1.34100
O 	O 	0.89784 0.98040 0.65530 -0.75700
O 	O 	0.59069 0.05216 0.85350 -0.63600
O 	O 	0.98897 0.94220 0.46180 -1.35700
C 	C 	0.70544 0.03921 0.80480 -0.06600
H 	H 	0.72320 0.04920 0.86050 0.07500
O 	O 	0.57721 0.00378 0.73080 -0.77000
C 	C 	0.69248 0.00579 0.62210 0.09400
C 	C 	0.66662 0.04347 0.82420 0.03000
H 	H 	0.65780 0.05630 0.89320 0.06100
C 	C 	0.64068 0.02888 0.74250 -0.13900
C 	C 	0.78068 0.04862 0.65460 -0.09200
H 	H 	0.76780 0.07230 0.64890 0.06600
C 	C 	0.81968 0.04676 0.63450 0.04700
H 	H 	0.83340 0.06920 0.61500 0.03300
C 	C 	0.83851 0.01207 0.64290 -0.15200
C 	C 	0.77935 0.98112 0.69150 0.06300
C 	C 	0.81836 0.97926 0.67140 -0.03500
H 	H 	0.83120 0.95560 0.67710 0.01700
C 	C 	0.70210 0.98770 0.49930 -0.45400
H 	H 	0.71620 0.96400 0.51140 0.13500
H 	H 	0.71760 0.00550 0.45280 0.16100
H 	H 	0.67840 0.98230 0.45630 0.13600
C 	C 	0.65359 0.01006 0.64160 -0.05100
H 	H 	0.63590 0.00010 0.58580 0.02300
C 	C 	0.71834 0.02035 0.70360 -0.02700
C 	C 	0.59940 0.02910 0.77110 0.51600
C 	C 	0.76050 0.01581 0.68300 0.00200
C 	C 	0.87990 0.01007 0.62150 0.52900
C 	C 	0.75800 0.94300 0.72340 -0.40600
H 	H 	0.77660 0.92250 0.73350 0.12300
H 	H 	0.74040 0.93640 0.65900 0.11900
H 	H 	0.74370 0.94650 0.79750 0.14500
O 	O 	0.04007 0.60433 0.08440 -0.70900
O 	O 	0.98503 0.46695 0.84750 -1.31300
O 	O 	0.98040 0.60216 0.15530 -0.78800
O 	O 	0.05216 0.90931 0.35350 -0.67400
O 	O 	0.94220 0.51103 0.96180 -1.30000
C 	C 	0.03921 0.79456 0.30480 -0.17700
H 	H 	0.04920 0.77680 0.36050 0.08400
O 	O 	0.00378 0.92279 0.23080 -0.79700
C 	C 	0.00579 0.80752 0.12210 -0.17900
C 	C 	0.04347 0.83338 0.32420 0.11200
H 	H 	0.05630 0.84220 0.39320 0.00500
C 	C 	0.02888 0.85932 0.24250 -0.24400
C 	C 	0.04862 0.71932 0.15460 -0.07700
H 	H 	0.07230 0.73220 0.14890 0.03900
C 	C 	0.04676 0.68032 0.13450 0.02200
H 	H 	0.06920 0.66660 0.11500 0.01800
C 	C 	0.01207 0.66149 0.14290 -0.16500
C 	C 	0.98112 0.72065 0.19150 0.05800
C 	C 	0.97926 0.68164 0.17140 -0.04900
H 	H 	0.95560 0.66880 0.17710 0.00300
C 	C 	0.98770 0.79790 0.99930 0.14900
H 	H 	0.96400 0.78380 0.01140 -0.10200
H 	H 	0.00550 0.78240 0.95280 0.01800
H 	H 	0.98230 0.82160 0.95630 -0.00200
C 	C 	0.01006 0.84641 0.14160 0.10200
H 	H 	0.00010 0.86410 0.08580 -0.05400
C 	C 	0.02035 0.78166 0.20360 0.09700
C 	C 	0.02910 0.90060 0.27110 0.54900
C 	C 	0.01581 0.73950 0.18300 -0.05800
C 	C 	0.01007 0.62010 0.12150 0.52100
C 	C 	0.94300 0.74200 0.22340 -0.37800
H 	H 	0.92250 0.72340 0.23350 0.09400
H 	H 	0.93640 0.75960 0.15900 0.10300
H 	H 	0.94650 0.75630 0.29750 0.11200
O 	O 	0.45993 0.89567 0.08440 -0.70900
O 	O 	0.51497 0.03305 0.84750 -1.30900
O 	O 	0.51960 0.89784 0.15530 -0.78400
O 	O 	0.44784 0.59069 0.35350 -0.67400
O 	O 	0.55780 0.98897 0.96180 -1.30200
C 	C 	0.46079 0.70544 0.30480 -0.18300
H 	H 	0.45080 0.72320 0.36050 0.08600
O 	O 	0.49622 0.57721 0.23080 -0.79900
C 	C 	0.49421 0.69248 0.12210 -0.19300
C 	C 	0.45653 0.66662 0.32420 0.11700
H 	H 	0.44370 0.65780 0.39320 0.00300
C 	C 	0.47112 0.64068 0.24250 -0.24900
C 	C 	0.45138 0.78068 0.15460 -0.07300
H 	H 	0.42770 0.76780 0.14890 0.03800
C 	C 	0.45324 0.81968 0.13450 0.02000
H 	H 	0.43080 0.83340 0.11500 0.01900
C 	C 	0.48793 0.83851 0.14290 -0.16800
C 	C 	0.51888 0.77935 0.19150 0.06700
C 	C 	0.52074 0.81836 0.17140 -0.04600
H 	H 	0.54440 0.83120 0.17710 0.00300
C 	C 	0.51230 0.70210 0.99930 0.17400
H 	H 	0.53600 0.71620 0.01140 -0.10800
H 	H 	0.49450 0.71760 0.95280 0.00900
H 	H 	0.51770 0.67840 0.95630 -0.00700
C 	C 	0.48994 0.65359 0.14160 0.10900
H 	H 	0.49990 0.63590 0.08580 -0.05800
C 	C 	0.47965 0.71834 0.20360 0.10400
C 	C 	0.47090 0.59940 0.27110 0.55000
C 	C 	0.48419 0.76050 0.18300 -0.06700
C 	C 	0.48993 0.87990 0.12150 0.51500
C 	C 	0.55700 0.75800 0.22340 -0.38500
H 	H 	0.57750 0.77660 0.23350 0.09600
H 	H 	0.56360 0.74040 0.15900 0.10600
H 	H 	0.55350 0.74370 0.29750 0.11500
O 	O 	0.39567 0.95993 0.91560 -0.64000
O 	O 	0.53305 0.01497 0.15250 -1.34900
O 	O 	0.39784 0.01960 0.84470 -0.74300
O 	O 	0.09069 0.94784 0.64650 -0.65200
O 	O 	0.48897 0.05780 0.03820 -1.40100
C 	C 	0.20544 0.96079 0.69520 0.01000
H 	H 	0.22320 0.95080 0.63950 0.02600
O 	O 	0.07721 0.99622 0.76920 -0.75900
C 	C 	0.19248 0.99421 0.87790 0.31900
C 	C 	0.16662 0.95653 0.67580 -0.04400
H 	H 	0.15780 0.94370 0.60680 0.06000
C 	C 	0.14068 0.97112 0.75750 -0.07200
C 	C 	0.28068 0.95138 0.84540 -0.11900
H 	H 	0.26780 0.92770 0.85110 0.08700
C 	C 	0.31968 0.95324 0.86550 0.07400
H 	H 	0.33340 0.93080 0.88500 0.03800
C 	C 	0.33851 0.98793 0.85710 -0.16900
C 	C 	0.27935 0.01888 0.80850 0.03000
C 	C 	0.31836 0.02074 0.82860 -0.00100
H 	H 	0.33120 0.04440 0.82290 0.00800
C 	C 	0.20210 0.01230 0.00070 -0.95300
H 	H 	0.21620 0.03600 0.98860 0.33800
H 	H 	0.21760 0.99450 0.04720 0.27100
H 	H 	0.17840 0.01770 0.04370 0.24900
C 	C 	0.15359 0.98994 0.85840 -0.17800
H 	H 	0.13590 0.99990 0.91420 0.08400
C 	C 	0.21834 0.97965 0.79640 -0.14000
C 	C 	0.09940 0.97090 0.72890 0.49700
C 	C 	0.26050 0.98419 0.81700 0.05100
C 	C 	0.37990 0.98993 0.87850 0.53000
C 	C 	0.25800 0.05700 0.77660 -0.35700
H 	H 	0.27660 0.07750 0.76650 0.10200
H 	H 	0.24040 0.06360 0.84100 0.10600
H 	H 	0.24370 0.05350 0.70250 0.11000
O 	O 	0.10433 0.54007 0.91560 -0.64100
O 	O 	0.96695 0.48503 0.15250 -1.35400
O 	O 	0.10216 0.48040 0.84470 -0.74700
O 	O 	0.40931 0.55216 0.64650 -0.65200
O 	O 	0.01103 0.44220 0.03820 -1.39800
C 	C 	0.29456 0.53921 0.69520 0.01700
H 	H 	0.27680 0.54920 0.63950 0.02400
O 	O 	0.42279 0.50378 0.76920 -0.75800
C 	C 	0.30752 0.50579 0.87790 0.33400
C 	C 	0.33338 0.54347 0.67580 -0.04900
H 	H 	0.34220 0.55630 0.60680 0.06200
C 	C 	0.35932 0.52888 0.75750 -0.06600
C 	C 	0.21932 0.54862 0.84540 -0.12300
H 	H 	0.23220 0.57230 0.85110 0.08900
C 	C 	0.18032 0.54676 0.86550 0.07600
H 	H 	0.16660 0.56920 0.88500 0.03700
C 	C 	0.16149 0.51207 0.85710 -0.16800
C 	C 	0.22065 0.48112 0.80850 0.02300
C 	C 	0.18164 0.47926 0.82860 -0.00200
H 	H 	0.16880 0.45560 0.82290 0.00700
C 	C 	0.29790 0.48770 0.00070 -0.98700
H 	H 	0.28380 0.46400 0.98860 0.34800
H 	H 	0.28240 0.50550 0.04720 0.28400
H 	H 	0.32160 0.48230 0.04370 0.25700
C 	C 	0.34641 0.51006 0.85840 -0.18700
H 	H 	0.36410 0.50010 0.91420 0.08800
C 	C 	0.28166 0.52035 0.79640 -0.14900
C 	C 	0.40060 0.52910 0.72890 0.49500
C 	C 	0.23950 0.51581 0.81700 0.06000
C 	C 	0.12010 0.51007 0.87850 0.53400
C 	C 	0.24200 0.44300 0.77660 -0.35200
H 	H 	0.22340 0.42250 0.76650 0.10000
H 	H 	0.25960 0.43640 0.84100 0.10300
H 	H 	0.25630 0.44650 0.70250 0.10800
O 	O 	0.95993 0.10433 0.41560 -0.68000
O 	O 	0.01497 0.96695 0.65250 -1.32400
O 	O 	0.01960 0.10216 0.34470 -0.77300
O 	O 	0.94784 0.40931 0.14650 -0.68600
O 	O 	0.05780 0.01103 0.53820 -1.34900
C 	C 	0.96079 0.29456 0.19520 -0.09400
H 	H 	0.95080 0.27680 0.13950 0.03400
O 	O 	0.99622 0.42279 0.26920 -0.78600
C 	C 	0.99421 0.30752 0.37790 0.06400
C 	C 	0.95653 0.33338 0.17580 0.03300
H 	H 	0.94370 0.34220 0.10680 0.00500
C 	C 	0.97112 0.35932 0.25750 -0.17100
C 	C 	0.95138 0.21932 0.34540 -0.10600
H 	H 	0.92770 0.23220 0.35110 0.06100
C 	C 	0.95324 0.18032 0.36550 0.05000
H 	H 	0.93080 0.16660 0.38500 0.02300
C 	C 	0.98793 0.16149 0.35710 -0.18300
C 	C 	0.01888 0.22065 0.30850 0.02800
C 	C 	0.02074 0.18164 0.32860 -0.01300
H 	H 	0.04440 0.16880 0.32290 -0.00600
C 	C 	0.01230 0.29790 0.50070 -0.39800
H 	H 	0.03600 0.28380 0.48860 0.12000
H 	H 	0.99450 0.28240 0.54720 0.14100
H 	H 	0.01770 0.32160 0.54370 0.12200
C 	C 	0.98994 0.34641 0.35840 -0.03600
H 	H 	0.99990 0.36410 0.41420 0.01200
C 	C 	0.97965 0.28166 0.29640 -0.02600
C 	C 	0.97090 0.40060 0.22890 0.52600
C 	C 	0.98419 0.23950 0.31700 -0.00600
C 	C 	0.98993 0.12010 0.37850 0.52300
C 	C 	0.05700 0.24200 0.27660 -0.33400
H 	H 	0.07750 0.22340 0.26650 0.07500
H 	H 	0.06360 0.25960 0.34100 0.09200
H 	H 	0.05350 0.25630 0.20250 0.08100
O 	O 	0.54007 0.39567 0.41560 -0.68100
O 	O 	0.48503 0.53305 0.65250 -1.32500
O 	O 	0.48040 0.39784 0.34470 -0.77700
O 	O 	0.55216 0.09069 0.14650 -0.68400
O 	O 	0.44220 0.48897 0.53820 -1.35200
C 	C 	0.53921 0.20544 0.19520 -0.08700
H 	H 	0.54920 0.22320 0.13950 0.03200
O 	O 	0.50378 0.07721 0.26920 -0.78200
C 	C 	0.50579 0.19248 0.37790 0.07800
C 	C 	0.54347 0.16662 0.17580 0.02800
H 	H 	0.55630 0.15780 0.10680 0.00700
C 	C 	0.52888 0.14068 0.25750 -0.16500
C 	C 	0.54862 0.28068 0.34540 -0.11000
H 	H 	0.57230 0.26780 0.35110 0.06200
C 	C 	0.54676 0.31968 0.36550 0.05200
H 	H 	0.56920 0.33340 0.38500 0.02200
C 	C 	0.51207 0.33851 0.35710 -0.18200
C 	C 	0.48112 0.27935 0.30850 0.02000
C 	C 	0.47926 0.31836 0.32860 -0.01500
H 	H 	0.45560 0.33120 0.32290 -0.00600
C 	C 	0.48770 0.20210 0.50070 -0.42600
H 	H 	0.46400 0.21620 0.48860 0.12700
H 	H 	0.50550 0.21760 0.54720 0.15200
H 	H 	0.48230 0.17840 0.54370 0.12900
C 	C 	0.51006 0.15359 0.35840 -0.04400
H 	H 	0.50010 0.13590 0.41420 0.01600
C 	C 	0.52035 0.21834 0.29640 -0.03400
C 	C 	0.52910 0.09940 0.22890 0.52400
C 	C 	0.51581 0.26050 0.31700 0.00300
C 	C 	0.51007 0.37990 0.37850 0.52700
C 	C 	0.44300 0.25800 0.27660 -0.32800
H 	H 	0.42250 0.27660 0.26650 0.07300
H 	H 	0.43640 0.24040 0.34100 0.08900
H 	H 	0.44650 0.24370 0.20250 0.07800
O 	O 	0.39567 0.54007 0.41560 -0.68100
O 	O 	0.53305 0.48503 0.65250 -1.32500
O 	O 	0.39784 0.48040 0.34470 -0.77700
O 	O 	0.09069 0.55216 0.14650 -0.68400
O 	O 	0.48897 0.44220 0.53820 -1.35200
C 	C 	0.20544 0.53921 0.19520 -0.08700
H 	H 	0.22320 0.54920 0.13950 0.03200
O 	O 	0.07721 0.50378 0.26920 -0.78200
C 	C 	0.19248 0.50579 0.37790 0.07800
C 	C 	0.16662 0.54347 0.17580 0.02800
H 	H 	0.15780 0.55630 0.10680 0.00700
C 	C 	0.14068 0.52888 0.25750 -0.16500
C 	C 	0.28068 0.54862 0.34540 -0.11000
H 	H 	0.26780 0.57230 0.35110 0.06200
C 	C 	0.31968 0.54676 0.36550 0.05200
H 	H 	0.33340 0.56920 0.38500 0.02200
C 	C 	0.33851 0.51207 0.35710 -0.18200
C 	C 	0.27935 0.48112 0.30850 0.02000
C 	C 	0.31836 0.47926 0.32860 -0.01500
H 	H 	0.33120 0.45560 0.32290 -0.00600
C 	C 	0.20210 0.48770 0.50070 -0.42600
H 	H 	0.21620 0.46400 0.48860 0.12700
H 	H 	0.21760 0.50550 0.54720 0.15200
H 	H 	0.17840 0.48230 0.54370 0.12900
C 	C 	0.15359 0.51006 0.35840 -0.04400
H 	H 	0.13590 0.50010 0.41420 0.01600
C 	C 	0.21834 0.52035 0.29640 -0.03400
C 	C 	0.09940 0.52910 0.22890 0.52400
C 	C 	0.26050 0.51581 0.31700 0.00300
C 	C 	0.37990 0.51007 0.37850 0.52700
C 	C 	0.25800 0.44300 0.27660 -0.32800
H 	H 	0.27660 0.42250 0.26650 0.07300
H 	H 	0.24040 0.43640 0.34100 0.08900
H 	H 	0.24370 0.44650 0.20250 0.07800
O 	O 	0.10433 0.95993 0.41560 -0.68000
O 	O 	0.96695 0.01497 0.65250 -1.32400
O 	O 	0.10216 0.01960 0.34470 -0.77300
O 	O 	0.40931 0.94784 0.14650 -0.68600
O 	O 	0.01103 0.05780 0.53820 -1.34900
C 	C 	0.29456 0.96079 0.19520 -0.09400
H 	H 	0.27680 0.95080 0.13950 0.03400
O 	O 	0.42279 0.99622 0.26920 -0.78600
C 	C 	0.30752 0.99421 0.37790 0.06400
C 	C 	0.33338 0.95653 0.17580 0.03300
H 	H 	0.34220 0.94370 0.10680 0.00500
C 	C 	0.35932 0.97112 0.25750 -0.17100
C 	C 	0.21932 0.95138 0.34540 -0.10600
H 	H 	0.23220 0.92770 0.35110 0.06100
C 	C 	0.18032 0.95324 0.36550 0.05000
H 	H 	0.16660 0.93080 0.38500 0.02300
C 	C 	0.16149 0.98793 0.35710 -0.18300
C 	C 	0.22065 0.01888 0.30850 0.02800
C 	C 	0.18164 0.02074 0.32860 -0.01300
H 	H 	0.16880 0.04440 0.32290 -0.00600
C 	C 	0.29790 0.01230 0.50070 -0.39800
H 	H 	0.28380 0.03600 0.48860 0.12000
H 	H 	0.28240 0.99450 0.54720 0.14100
H 	H 	0.32160 0.01770 0.54370 0.12200
C 	C 	0.34641 0.98994 0.35840 -0.03600
H 	H 	0.36410 0.99990 0.41420 0.01200
C 	C 	0.28166 0.97965 0.29640 -0.02600
C 	C 	0.40060 0.97090 0.22890 0.52600
C 	C 	0.23950 0.98419 0.31700 -0.00600
C 	C 	0.12010 0.98993 0.37850 0.52300
C 	C 	0.24200 0.05700 0.27660 -0.33400
H 	H 	0.22340 0.07750 0.26650 0.07500
H 	H 	0.25960 0.06360 0.34100 0.09200
H 	H 	0.25630 0.05350 0.20250 0.08100
O 	O 	0.95993 0.39567 0.91560 -0.64000
O 	O 	0.01497 0.53305 0.15250 -1.34900
O 	O 	0.01960 0.39784 0.84470 -0.74300
O 	O 	0.94784 0.09069 0.64650 -0.65200
O 	O 	0.05780 0.48897 0.03820 -1.40100
C 	C 	0.96079 0.20544 0.69520 0.01000
H 	H 	0.95080 0.22320 0.63950 0.02600
O 	O 	0.99622 0.07721 0.76920 -0.75900
C 	C 	0.99421 0.19248 0.87790 0.31900
C 	C 	0.95653 0.16662 0.67580 -0.04400
H 	H 	0.94370 0.15780 0.60680 0.06000
C 	C 	0.97112 0.14068 0.75750 -0.07200
C 	C 	0.95138 0.28068 0.84540 -0.11900
H 	H 	0.92770 0.26780 0.85110 0.08700
C 	C 	0.95324 0.31968 0.86550 0.07400
H 	H 	0.93080 0.33340 0.88500 0.03800
C 	C 	0.98793 0.33851 0.85710 -0.16900
C 	C 	0.01888 0.27935 0.80850 0.03000
C 	C 	0.02074 0.31836 0.82860 -0.00100
H 	H 	0.04440 0.33120 0.82290 0.00800
C 	C 	0.01230 0.20210 0.00070 -0.95300
H 	H 	0.03600 0.21620 0.98860 0.33800
H 	H 	0.99450 0.21760 0.04720 0.27100
H 	H 	0.01770 0.17840 0.04370 0.24900
C 	C 	0.98994 0.15359 0.85840 -0.17800
H 	H 	0.99990 0.13590 0.91420 0.08400
C 	C 	0.97965 0.21834 0.79640 -0.14000
C 	C 	0.97090 0.09940 0.72890 0.49700
C 	C 	0.98419 0.26050 0.81700 0.05100
C 	C 	0.98993 0.37990 0.87850 0.53000
C 	C 	0.05700 0.25800 0.77660 -0.35700
H 	H 	0.07750 0.27660 0.76650 0.10200
H 	H 	0.06360 0.24040 0.84100 0.10600
H 	H 	0.05350 0.24370 0.70250 0.11000
O 	O 	0.54007 0.10433 0.91560 -0.64100
O 	O 	0.48503 0.96695 0.15250 -1.35400
O 	O 	0.48040 0.10216 0.84470 -0.74700
O 	O 	0.55216 0.40931 0.64650 -0.65200
O 	O 	0.44220 0.01103 0.03820 -1.39800
C 	C 	0.53921 0.29456 0.69520 0.01700
H 	H 	0.54920 0.27680 0.63950 0.02400
O 	O 	0.50378 0.42279 0.76920 -0.75800
C 	C 	0.50579 0.30752 0.87790 0.33400
C 	C 	0.54347 0.33338 0.67580 -0.04900
H 	H 	0.55630 0.34220 0.60680 0.06200
C 	C 	0.52888 0.35932 0.75750 -0.06600
C 	C 	0.54862 0.21932 0.84540 -0.12300
H 	H 	0.57230 0.23220 0.85110 0.08900
C 	C 	0.54676 0.18032 0.86550 0.07600
H 	H 	0.56920 0.16660 0.88500 0.03700
C 	C 	0.51207 0.16149 0.85710 -0.16800
C 	C 	0.48112 0.22065 0.80850 0.02300
C 	C 	0.47926 0.18164 0.82860 -0.00200
H 	H 	0.45560 0.16880 0.82290 0.00700
C 	C 	0.48770 0.29790 0.00070 -0.98700
H 	H 	0.46400 0.28380 0.98860 0.34800
H 	H 	0.50550 0.28240 0.04720 0.28400
H 	H 	0.48230 0.32160 0.04370 0.25700
C 	C 	0.51006 0.34641 0.85840 -0.18700
H 	H 	0.50010 0.36410 0.91420 0.08800
C 	C 	0.52035 0.28166 0.79640 -0.14900
C 	C 	0.52910 0.40060 0.72890 0.49500
C 	C 	0.51581 0.23950 0.81700 0.06000
C 	C 	0.51007 0.12010 0.87850 0.53400
C 	C 	0.44300 0.24200 0.77660 -0.35200
H 	H 	0.42250 0.22340 0.76650 0.10000
H 	H 	0.43640 0.25960 0.84100 0.10300
H 	H 	0.44650 0.25630 0.70250 0.10800
O 	O 	0.60433 0.04007 0.08440 -0.70900
O 	O 	0.46695 0.98503 0.84750 -1.31300
O 	O 	0.60216 0.98040 0.15530 -0.78800
O 	O 	0.90931 0.05216 0.35350 -0.67400
O 	O 	0.51103 0.94220 0.96180 -1.30000
C 	C 	0.79456 0.03921 0.30480 -0.17700
H 	H 	0.77680 0.04920 0.36050 0.08400
O 	O 	0.92279 0.00378 0.23080 -0.79700
C 	C 	0.80752 0.00579 0.12210 -0.17900
C 	C 	0.83338 0.04347 0.32420 0.11200
H 	H 	0.84220 0.05630 0.39320 0.00500
C 	C 	0.85932 0.02888 0.24250 -0.24400
C 	C 	0.71932 0.04862 0.15460 -0.07700
H 	H 	0.73220 0.07230 0.14890 0.03900
C 	C 	0.68032 0.04676 0.13450 0.02200
H 	H 	0.66660 0.06920 0.11500 0.01800
C 	C 	0.66149 0.01207 0.14290 -0.16500
C 	C 	0.72065 0.98112 0.19150 0.05800
C 	C 	0.68164 0.97926 0.17140 -0.04900
H 	H 	0.66880 0.95560 0.17710 0.00300
C 	C 	0.79790 0.98770 0.99930 0.14900
H 	H 	0.78380 0.96400 0.01140 -0.10200
H 	H 	0.78240 0.00550 0.95280 0.01800
H 	H 	0.82160 0.98230 0.95630 -0.00200
C 	C 	0.84641 0.01006 0.14160 0.10200
H 	H 	0.86410 0.00010 0.08580 -0.05400
C 	C 	0.78166 0.02035 0.20360 0.09700
C 	C 	0.90060 0.02910 0.27110 0.54900
C 	C 	0.73950 0.01581 0.18300 -0.05800
C 	C 	0.62010 0.01007 0.12150 0.52100
C 	C 	0.74200 0.94300 0.22340 -0.37800
H 	H 	0.72340 0.92250 0.23350 0.09400
H 	H 	0.75960 0.93640 0.15900 0.10300
H 	H 	0.75630 0.94650 0.29750 0.11200
O 	O 	0.89567 0.45993 0.08440 -0.70900
O 	O 	0.03305 0.51497 0.84750 -1.30900
O 	O 	0.89784 0.51960 0.15530 -0.78400
O 	O 	0.59069 0.44784 0.35350 -0.67400
O 	O 	0.98897 0.55780 0.96180 -1.30200
C 	C 	0.70544 0.46079 0.30480 -0.18300
H 	H 	0.72320 0.45080 0.36050 0.08600
O 	O 	0.57721 0.49622 0.23080 -0.79900
C 	C 	0.69248 0.49421 0.12210 -0.19300
C 	C 	0.66662 0.45653 0.32420 0.11700
H 	H 	0.65780 0.44370 0.39320 0.00300
C 	C 	0.64068 0.47112 0.24250 -0.24900
C 	C 	0.78068 0.45138 0.15460 -0.07300
H 	H 	0.76780 0.42770 0.14890 0.03800
C 	C 	0.81968 0.45324 0.13450 0.02000
H 	H 	0.83340 0.43080 0.11500 0.01900
C 	C 	0.83851 0.48793 0.14290 -0.16800
C 	C 	0.77935 0.51888 0.19150 0.06700
C 	C 	0.81836 0.52074 0.17140 -0.04600
H 	H 	0.83120 0.54440 0.17710 0.00300
C 	C 	0.70210 0.51230 0.99930 0.17400
H 	H 	0.71620 0.53600 0.01140 -0.10800
H 	H 	0.71760 0.49450 0.95280 0.00900
H 	H 	0.67840 0.51770 0.95630 -0.00700
C 	C 	0.65359 0.48994 0.14160 0.10900
H 	H 	0.63590 0.49990 0.08580 -0.05800
C 	C 	0.71834 0.47965 0.20360 0.10400
C 	C 	0.59940 0.47090 0.27110 0.55000
C 	C 	0.76050 0.48419 0.18300 -0.06700
C 	C 	0.87990 0.48993 0.12150 0.51500
C 	C 	0.75800 0.55700 0.22340 -0.38500
H 	H 	0.77660 0.57750 0.23350 0.09600
H 	H 	0.74040 0.56360 0.15900 0.10600
H 	H 	0.74370 0.55350 0.29750 0.11500
O 	O 	0.04007 0.89567 0.58440 -0.67200
O 	O 	0.98503 0.03305 0.34750 -1.34100
O 	O 	0.98040 0.89784 0.65530 -0.75700
O 	O 	0.05216 0.59069 0.85350 -0.63600
O 	O 	0.94220 0.98897 0.46180 -1.35700
C 	C 	0.03921 0.70544 0.80480 -0.06600
H 	H 	0.04920 0.72320 0.86050 0.07500
O 	O 	0.00378 0.57721 0.73080 -0.77000
C 	C 	0.00579 0.69248 0.62210 0.09400
C 	C 	0.04347 0.66662 0.82420 0.03000
H 	H 	0.05630 0.65780 0.89320 0.06100
C 	C 	0.02888 0.64068 0.74250 -0.13900
C 	C 	0.04862 0.78068 0.65460 -0.09200
H 	H 	0.07230 0.76780 0.64890 0.06600
C 	C 	0.04676 0.81968 0.63450 0.04700
H 	H 	0.06920 0.83340 0.61500 0.03300
C 	C 	0.01207 0.83851 0.64290 -0.15200
C 	C 	0.98112 0.77935 0.69150 0.06300
C 	C 	0.97926 0.81836 0.67140 -0.03500
H 	H 	0.95560 0.83120 0.67710 0.01700
C 	C 	0.98770 0.70210 0.49930 -0.45400
H 	H 	0.96400 0.71620 0.51140 0.13500
H 	H 	0.00550 0.71760 0.45280 0.16100
H 	H 	0.98230 0.67840 0.45630 0.13600
C 	C 	0.01006 0.65359 0.64160 -0.05100
H 	H 	0.00010 0.63590 0.58580 0.02300
C 	C 	0.02035 0.71834 0.70360 -0.02700
C 	C 	0.02910 0.59940 0.77110 0.51600
C 	C 	0.01581 0.76050 0.68300 0.00200
C 	C 	0.01007 0.87990 0.62150 0.52900
C 	C 	0.94300 0.75800 0.72340 -0.40600
H 	H 	0.92250 0.77660 0.73350 0.12300
H 	H 	0.93640 0.74040 0.65900 0.11900
H 	H 	0.94650 0.74370 0.79750 0.14500
O 	O 	0.45993 0.60433 0.58440 -0.67100
O 	O 	0.51497 0.46695 0.34750 -1.34000
O 	O 	0.51960 0.60216 0.65530 -0.75200
O 	O 	0.44784 0.90931 0.85350 -0.63700
O 	O 	0.55780 0.51103 0.46180 -1.35300
C 	C 	0.46079 0.79456 0.80480 -0.07200
H 	H 	0.45080 0.77680 0.86050 0.07700
O 	O 	0.49622 0.92279 0.73080 -0.77300
C 	C 	0.49421 0.80752 0.62210 0.07900
C 	C 	0.45653 0.83338 0.82420 0.03500
H 	H 	0.44370 0.84220 0.89320 0.06000
C 	C 	0.47112 0.85932 0.74250 -0.14500
C 	C 	0.45138 0.71932 0.65460 -0.08800
H 	H 	0.42770 0.73220 0.64890 0.06500
C 	C 	0.45324 0.68032 0.63450 0.04500
H 	H 	0.43080 0.66660 0.61500 0.03400
C 	C 	0.48793 0.66149 0.64290 -0.15400
C 	C 	0.51888 0.72065 0.69150 0.07000
C 	C 	0.52074 0.68164 0.67140 -0.03300
H 	H 	0.54440 0.66880 0.67710 0.01700
C 	C 	0.51230 0.79790 0.49930 -0.42400
H 	H 	0.53600 0.78380 0.51140 0.12700
H 	H 	0.49450 0.78240 0.45280 0.14900
H 	H 	0.51770 0.82160 0.45630 0.12900
C 	C 	0.48994 0.84641 0.64160 -0.04300
H 	H 	0.49990 0.86410 0.58580 0.01800
C 	C 	0.47965 0.78166 0.70360 -0.01800
C 	C 	0.47090 0.90060 0.77110 0.51800
C 	C 	0.48419 0.73950 0.68300 -0.00700
C 	C 	0.48993 0.62010 0.62150 0.52400
C 	C 	0.55700 0.74200 0.72340 -0.41100
H 	H 	0.57750 0.72340 0.73350 0.12500
H 	H 	0.56360 0.75960 0.65900 0.12200
H 	H 	0.55350 0.75630 0.79750 0.14700
Zr	Zr	0.45058 0.54942 0.50000 3.21400
Zr	Zr	0.04942 0.95058 0.50000 3.21400
Zr	Zr	0.95058 0.45058 -0.00000 3.20100
Zr	Zr	0.54942 0.04942 -0.00000 3.20200
Zr	Zr	0.54942 0.45058 0.50000 3.21400
Zr	Zr	0.95058 0.04942 0.50000 3.21400
Zr	Zr	0.04942 0.54942 -0.00000 3.20200
Zr	Zr	0.45058 0.95058 -0.00000 3.20100
Zr	Zr	0.54369 0.54369 0.61240 3.18000
Zr	Zr	0.52536 0.52536 0.30905 3.17700
Zr	Zr	0.95631 0.95631 0.61240 3.17900
Zr	Zr	0.97464 0.97464 0.30905 3.17600
Zr	Zr	0.95631 0.54369 0.11240 3.17000
Zr	Zr	0.97464 0.52536 0.80905 3.17800
Zr	Zr	0.54369 0.95631 0.11240 3.17000
Zr	Zr	0.52536 0.97464 0.80905 3.17800
Zr	Zr	0.45631 0.04369 0.88760 3.18600
Zr	Zr	0.47464 0.02536 0.19095 3.17800
Zr	Zr	0.04369 0.45631 0.88760 3.18600
Zr	Zr	0.02536 0.47464 0.19095 3.17800
Zr	Zr	0.04369 0.04369 0.38760 3.17800
Zr	Zr	0.02536 0.02536 0.69095 3.18000
Zr	Zr	0.45631 0.45631 0.38760 3.17800
Zr	Zr	0.47464 0.47464 0.69095 3.17900
