data_crystal

_cell_length_a 8.28460
_cell_length_b 18.11750
_cell_length_c 20.76150
_cell_angle_alpha 90.00000
_cell_angle_beta  97.67800
_cell_angle_gamma 90.00000

_symmetry_space_group_name_	'P 1'
_symmetry_space_group_name_H-M	'P 1'

loop_
_symmetry_equiv_pos_as_xyz
  x,y,z

loop_
_atom_site_label
_atom_site_type_symbol
_atom_site_fract_x
_atom_site_fract_y
_atom_site_fract_z
_atom_site_charge
Np	Np	0.56850 0.80435 0.38162 0.01200
O 	O 	0.49750 0.82310 0.45660 -0.13200
O 	O 	0.44810 0.67890 0.38820 -0.25700
O 	O 	0.70860 0.69170 0.42220 -0.24700
O 	O 	0.21040 0.42320 0.38690 -0.20100
O 	O 	0.36140 0.32910 0.42340 -0.24100
O 	O 	0.27480 0.80060 0.32910 -0.26200
O 	O 	0.41100 0.90440 0.32830 -0.20000
C 	C 	0.58460 0.65190 0.41120 0.31300
C 	C 	0.60280 0.57070 0.42440 -0.11500
C 	C 	0.47160 0.52410 0.41190 0.04900
H 	H 	0.36790 0.54310 0.39480 0.01900
C 	C 	0.49080 0.44850 0.42440 -0.09900
C 	C 	0.64380 0.42060 0.44920 0.03700
H 	H 	0.65750 0.36920 0.45730 0.01500
C 	C 	0.77560 0.46800 0.46180 -0.10000
H 	H 	0.88000 0.44940 0.47850 0.07200
C 	C 	0.75340 0.54330 0.44990 0.04500
H 	H 	0.84290 0.57610 0.45930 0.01700
C 	C 	0.34900 0.39720 0.41090 0.28900
C 	C 	0.28160 0.86830 0.31350 0.30400
C 	C 	0.13500 0.90590 0.27900 -0.10500
C 	C 	0.13520 0.98310 0.27840 0.04600
H 	H 	0.22880 0.00930 0.29750 0.02300
Cs	Cs	0.05635 0.69496 0.38883 0.71400
Np	Np	0.06850 0.30435 0.38162 0.01200
O 	O 	0.99750 0.32310 0.45660 -0.13200
O 	O 	0.94810 0.17890 0.38820 -0.25700
O 	O 	0.20860 0.19170 0.42220 -0.24700
O 	O 	0.71040 0.92320 0.38690 -0.20100
O 	O 	0.86140 0.82910 0.42340 -0.24100
O 	O 	0.77480 0.30060 0.32910 -0.26200
O 	O 	0.91100 0.40440 0.32830 -0.20000
C 	C 	0.08460 0.15190 0.41120 0.31300
C 	C 	0.10280 0.07070 0.42440 -0.11500
C 	C 	0.97160 0.02410 0.41190 0.04800
H 	H 	0.86790 0.04310 0.39480 0.01900
C 	C 	0.99080 0.94850 0.42440 -0.09800
C 	C 	0.14380 0.92060 0.44920 0.03600
H 	H 	0.15750 0.86920 0.45730 0.01500
C 	C 	0.27560 0.96800 0.46180 -0.09900
H 	H 	0.38000 0.94940 0.47850 0.07100
C 	C 	0.25340 0.04330 0.44990 0.04400
H 	H 	0.34290 0.07610 0.45930 0.01700
C 	C 	0.84900 0.89720 0.41090 0.28800
C 	C 	0.78160 0.36830 0.31350 0.30300
C 	C 	0.63500 0.40590 0.27900 -0.10200
C 	C 	0.63520 0.48310 0.27840 0.04100
H 	H 	0.72880 0.50930 0.29750 0.02500
Cs	Cs	0.55635 0.19496 0.38883 0.71400
Np	Np	0.43150 0.80435 0.11838 0.01200
O 	O 	0.50250 0.82310 0.04340 -0.13200
O 	O 	0.55190 0.67890 0.11180 -0.25700
O 	O 	0.29140 0.69170 0.07780 -0.24700
O 	O 	0.78960 0.42320 0.11310 -0.20100
O 	O 	0.63860 0.32910 0.07660 -0.24100
O 	O 	0.72520 0.80060 0.17090 -0.26200
O 	O 	0.58900 0.90440 0.17170 -0.20000
C 	C 	0.41540 0.65190 0.08880 0.31300
C 	C 	0.39720 0.57070 0.07560 -0.11500
C 	C 	0.52840 0.52410 0.08810 0.04900
H 	H 	0.63210 0.54310 0.10520 0.01900
C 	C 	0.50920 0.44850 0.07560 -0.09900
C 	C 	0.35620 0.42060 0.05080 0.03700
H 	H 	0.34250 0.36920 0.04270 0.01500
C 	C 	0.22440 0.46800 0.03820 -0.10000
H 	H 	0.12000 0.44940 0.02150 0.07200
C 	C 	0.24660 0.54330 0.05010 0.04500
H 	H 	0.15710 0.57610 0.04070 0.01700
C 	C 	0.65100 0.39720 0.08910 0.28900
C 	C 	0.71840 0.86830 0.18650 0.30400
C 	C 	0.86500 0.90590 0.22100 -0.10500
C 	C 	0.86480 0.98310 0.22160 0.04700
H 	H 	0.77120 0.00930 0.20250 0.02200
Cs	Cs	0.94365 0.69496 0.11117 0.71300
Np	Np	0.93150 0.30435 0.11838 0.01200
O 	O 	0.00250 0.32310 0.04340 -0.13200
O 	O 	0.05190 0.17890 0.11180 -0.25700
O 	O 	0.79140 0.19170 0.07780 -0.24700
O 	O 	0.28960 0.92320 0.11310 -0.20000
O 	O 	0.13860 0.82910 0.07660 -0.24100
O 	O 	0.22520 0.30060 0.17090 -0.26100
O 	O 	0.08900 0.40440 0.17170 -0.20000
C 	C 	0.91540 0.15190 0.08880 0.31200
C 	C 	0.89720 0.07070 0.07560 -0.11400
C 	C 	0.02840 0.02410 0.08810 0.04600
H 	H 	0.13210 0.04310 0.10520 0.02000
C 	C 	0.00920 0.94850 0.07560 -0.09600
C 	C 	0.85620 0.92060 0.05080 0.03300
H 	H 	0.84250 0.86920 0.04270 0.01600
C 	C 	0.72440 0.96800 0.03820 -0.09500
H 	H 	0.62000 0.94940 0.02150 0.07000
C 	C 	0.74660 0.04330 0.05010 0.04100
H 	H 	0.65710 0.07610 0.04070 0.01800
C 	C 	0.15100 0.89720 0.08910 0.28800
C 	C 	0.21840 0.36830 0.18650 0.30300
C 	C 	0.36500 0.40590 0.22100 -0.10200
C 	C 	0.36480 0.48310 0.22160 0.04100
H 	H 	0.27120 0.50930 0.20250 0.02500
Cs	Cs	0.44365 0.19496 0.11117 0.71300
Np	Np	0.43150 0.19565 0.61838 0.01200
O 	O 	0.50250 0.17690 0.54340 -0.13200
O 	O 	0.55190 0.32110 0.61180 -0.25700
O 	O 	0.29140 0.30830 0.57780 -0.24700
O 	O 	0.78960 0.57680 0.61310 -0.20000
O 	O 	0.63860 0.67090 0.57660 -0.24100
O 	O 	0.72520 0.19940 0.67090 -0.26100
O 	O 	0.58900 0.09560 0.67170 -0.20000
C 	C 	0.41540 0.34810 0.58880 0.31300
C 	C 	0.39720 0.42930 0.57560 -0.11500
C 	C 	0.52840 0.47590 0.58810 0.04900
H 	H 	0.63210 0.45690 0.60520 0.01900
C 	C 	0.50920 0.55150 0.57560 -0.09900
C 	C 	0.35620 0.57940 0.55080 0.03700
H 	H 	0.34250 0.63080 0.54270 0.01500
C 	C 	0.22440 0.53200 0.53820 -0.10000
H 	H 	0.12000 0.55060 0.52150 0.07100
C 	C 	0.24660 0.45670 0.55010 0.04500
H 	H 	0.15710 0.42390 0.54070 0.01700
C 	C 	0.65100 0.60280 0.58910 0.28900
C 	C 	0.71840 0.13170 0.68650 0.30400
C 	C 	0.86500 0.09410 0.72100 -0.10400
C 	C 	0.86480 0.01690 0.72160 0.04700
H 	H 	0.77120 0.99070 0.70250 0.02300
Cs	Cs	0.94365 0.30504 0.61117 0.71400
Np	Np	0.93150 0.69565 0.61838 0.01300
O 	O 	0.00250 0.67690 0.54340 -0.13200
O 	O 	0.05190 0.82110 0.61180 -0.25800
O 	O 	0.79140 0.80830 0.57780 -0.24700
O 	O 	0.28960 0.07680 0.61310 -0.20100
O 	O 	0.13860 0.17090 0.57660 -0.24100
O 	O 	0.22520 0.69940 0.67090 -0.26200
O 	O 	0.08900 0.59560 0.67170 -0.20100
C 	C 	0.91540 0.84810 0.58880 0.31400
C 	C 	0.89720 0.92930 0.57560 -0.11500
C 	C 	0.02840 0.97590 0.58810 0.04800
H 	H 	0.13210 0.95690 0.60520 0.02000
C 	C 	0.00920 0.05150 0.57560 -0.09900
C 	C 	0.85620 0.07940 0.55080 0.03700
H 	H 	0.84250 0.13080 0.54270 0.01500
C 	C 	0.72440 0.03200 0.53820 -0.10000
H 	H 	0.62000 0.05060 0.52150 0.07100
C 	C 	0.74660 0.95670 0.55010 0.04400
H 	H 	0.65710 0.92390 0.54070 0.01700
C 	C 	0.15100 0.10280 0.58910 0.28900
C 	C 	0.21840 0.63170 0.68650 0.30300
C 	C 	0.36500 0.59410 0.72100 -0.10200
C 	C 	0.36480 0.51690 0.72160 0.04100
H 	H 	0.27120 0.49070 0.70250 0.02500
Cs	Cs	0.44365 0.80504 0.61117 0.71400
Np	Np	0.56850 0.19565 0.88162 0.01200
O 	O 	0.49750 0.17690 0.95660 -0.13200
O 	O 	0.44810 0.32110 0.88820 -0.25700
O 	O 	0.70860 0.30830 0.92220 -0.24700
O 	O 	0.21040 0.57680 0.88690 -0.20100
O 	O 	0.36140 0.67090 0.92340 -0.24200
O 	O 	0.27480 0.19940 0.82910 -0.26200
O 	O 	0.41100 0.09560 0.82830 -0.20000
C 	C 	0.58460 0.34810 0.91120 0.31300
C 	C 	0.60280 0.42930 0.92440 -0.11500
C 	C 	0.47160 0.47590 0.91190 0.04900
H 	H 	0.36790 0.45690 0.89480 0.01900
C 	C 	0.49080 0.55150 0.92440 -0.10000
C 	C 	0.64380 0.57940 0.94920 0.03700
H 	H 	0.65750 0.63080 0.95730 0.01500
C 	C 	0.77560 0.53200 0.96180 -0.10000
H 	H 	0.88000 0.55060 0.97850 0.07200
C 	C 	0.75340 0.45670 0.94990 0.04500
H 	H 	0.84290 0.42390 0.95930 0.01700
C 	C 	0.34900 0.60280 0.91090 0.28900
C 	C 	0.28160 0.13170 0.81350 0.30400
C 	C 	0.13500 0.09410 0.77900 -0.10500
C 	C 	0.13520 0.01690 0.77840 0.04700
H 	H 	0.22880 0.99070 0.79750 0.02200
Cs	Cs	0.05635 0.30504 0.88883 0.71300
Np	Np	0.06850 0.69565 0.88162 0.01100
O 	O 	0.99750 0.67690 0.95660 -0.13100
O 	O 	0.94810 0.82110 0.88820 -0.25600
O 	O 	0.20860 0.80830 0.92220 -0.24700
O 	O 	0.71040 0.07680 0.88690 -0.20000
O 	O 	0.86140 0.17090 0.92340 -0.24000
O 	O 	0.77480 0.69940 0.82910 -0.26100
O 	O 	0.91100 0.59560 0.82830 -0.20000
C 	C 	0.08460 0.84810 0.91120 0.31100
C 	C 	0.10280 0.92930 0.92440 -0.11400
C 	C 	0.97160 0.97590 0.91190 0.04700
H 	H 	0.86790 0.95690 0.89480 0.02000
C 	C 	0.99080 0.05150 0.92440 -0.09500
C 	C 	0.14380 0.07940 0.94920 0.03200
H 	H 	0.15750 0.13080 0.95730 0.01600
C 	C 	0.27560 0.03200 0.96180 -0.09500
H 	H 	0.38000 0.05060 0.97850 0.07000
C 	C 	0.25340 0.95670 0.94990 0.04100
H 	H 	0.34290 0.92390 0.95930 0.01800
C 	C 	0.84900 0.10280 0.91090 0.28800
C 	C 	0.78160 0.63170 0.81350 0.30300
C 	C 	0.63500 0.59410 0.77900 -0.10200
C 	C 	0.63520 0.51690 0.77840 0.04100
H 	H 	0.72880 0.49070 0.79750 0.02500
Cs	Cs	0.55635 0.80504 0.88883 0.71300
C 	C 	0.00000 0.86660 0.25000 0.05200
H 	H 	0.00000 0.81410 0.25000 -0.00200
C 	C 	0.00000 0.02130 0.25000 -0.11000
H 	H 	0.00000 0.07380 0.25000 0.07000
C 	C 	0.50000 0.36660 0.25000 0.04900
H 	H 	0.50000 0.31410 0.25000 -0.00100
C 	C 	0.50000 0.52130 0.25000 -0.10400
H 	H 	0.50000 0.57380 0.25000 0.06900
C 	C 	-0.00000 0.13340 0.75000 0.05100
H 	H 	-0.00000 0.18590 0.75000 -0.00200
C 	C 	-0.00000 0.97870 0.75000 -0.11200
H 	H 	-0.00000 0.92620 0.75000 0.07100
C 	C 	0.50000 0.63340 0.75000 0.04900
H 	H 	0.50000 0.68590 0.75000 -0.00100
C 	C 	0.50000 0.47870 0.75000 -0.10400
H 	H 	0.50000 0.42620 0.75000 0.06900
