data_crystal

_cell_length_a 19.63400
_cell_length_b 19.63400
_cell_length_c 19.63400
_cell_angle_alpha 90.00000
_cell_angle_beta  90.00000
_cell_angle_gamma 90.00000

_symmetry_space_group_name_	'P 1'
_symmetry_space_group_name_H-M	'P 1'

loop_
_symmetry_equiv_pos_as_xyz
  x,y,z

loop_
_atom_site_label
_atom_site_type_symbol
_atom_site_fract_x
_atom_site_fract_y
_atom_site_fract_z
_atom_site_charge
Re	Re	0.18679 0.28179 0.18679 0.28800
C 	C 	0.11520 0.31570 0.11520 -0.06900
N 	N 	0.07530 0.33420 0.07530 -0.28500
Re	Re	0.68679 0.78179 0.68679 0.27700
C 	C 	0.61520 0.81570 0.61520 -0.02800
N 	N 	0.57530 0.83420 0.57530 -0.24600
Re	Re	0.81321 0.71821 0.18679 0.28100
C 	C 	0.88480 0.68430 0.11520 -0.03400
N 	N 	0.92470 0.66580 0.07530 -0.23800
Re	Re	0.31321 0.21821 0.68679 0.28500
C 	C 	0.38480 0.18430 0.61520 -0.04500
N 	N 	0.42470 0.16580 0.57530 -0.26000
Re	Re	0.81321 0.28179 0.81321 0.28200
C 	C 	0.88480 0.31570 0.88480 -0.00700
N 	N 	0.92470 0.33420 0.92470 -0.19600
Re	Re	0.31321 0.78179 0.31321 0.28100
C 	C 	0.38480 0.81570 0.38480 -0.02800
N 	N 	0.42470 0.83420 0.42470 -0.24600
Re	Re	0.18679 0.71821 0.81321 0.28100
C 	C 	0.11520 0.68430 0.88480 -0.03400
N 	N 	0.07530 0.66580 0.92470 -0.23800
Re	Re	0.68679 0.21821 0.31321 0.28500
C 	C 	0.61520 0.18430 0.38480 -0.04500
N 	N 	0.57530 0.16580 0.42470 -0.26000
Re	Re	0.18679 0.18679 0.28179 0.28900
C 	C 	0.11520 0.11520 0.31570 -0.06900
N 	N 	0.07530 0.07530 0.33420 -0.28500
Re	Re	0.68679 0.68679 0.78179 0.27700
C 	C 	0.61520 0.61520 0.81570 -0.02800
N 	N 	0.57530 0.57530 0.83420 -0.24600
Re	Re	0.18679 0.81321 0.71821 0.28100
C 	C 	0.11520 0.88480 0.68430 -0.03400
N 	N 	0.07530 0.92470 0.66580 -0.23800
Re	Re	0.68679 0.31321 0.21821 0.28500
C 	C 	0.61520 0.38480 0.18430 -0.04500
N 	N 	0.57530 0.42470 0.16580 -0.26000
Re	Re	0.81321 0.81321 0.28179 0.28200
C 	C 	0.88480 0.88480 0.31570 -0.00700
N 	N 	0.92470 0.92470 0.33420 -0.19600
Re	Re	0.31321 0.31321 0.78179 0.28100
C 	C 	0.38480 0.38480 0.81570 -0.02800
N 	N 	0.42470 0.42470 0.83420 -0.24600
Re	Re	0.81321 0.18679 0.71821 0.28100
C 	C 	0.88480 0.11520 0.68430 -0.03400
N 	N 	0.92470 0.07530 0.66580 -0.23800
Re	Re	0.31321 0.68679 0.21821 0.28500
C 	C 	0.38480 0.61520 0.18430 -0.04500
N 	N 	0.42470 0.57530 0.16580 -0.26000
Re	Re	0.28179 0.18679 0.18679 0.28900
C 	C 	0.31570 0.11520 0.11520 -0.06900
N 	N 	0.33420 0.07530 0.07530 -0.28500
Re	Re	0.78179 0.68679 0.68679 0.27700
C 	C 	0.81570 0.61520 0.61520 -0.02800
N 	N 	0.83420 0.57530 0.57530 -0.24600
Re	Re	0.71821 0.18679 0.81321 0.28100
C 	C 	0.68430 0.11520 0.88480 -0.03400
N 	N 	0.66580 0.07530 0.92470 -0.23800
Re	Re	0.21821 0.68679 0.31321 0.28500
C 	C 	0.18430 0.61520 0.38480 -0.04500
N 	N 	0.16580 0.57530 0.42470 -0.26000
Re	Re	0.28179 0.81321 0.81321 0.28200
C 	C 	0.31570 0.88480 0.88480 -0.00700
N 	N 	0.33420 0.92470 0.92470 -0.19600
Re	Re	0.78179 0.31321 0.31321 0.28100
C 	C 	0.81570 0.38480 0.38480 -0.02800
N 	N 	0.83420 0.42470 0.42470 -0.24600
Re	Re	0.71821 0.81321 0.18679 0.28100
C 	C 	0.68430 0.88480 0.11520 -0.03400
N 	N 	0.66580 0.92470 0.07530 -0.23800
Re	Re	0.21821 0.31321 0.68679 0.28500
C 	C 	0.18430 0.38480 0.61520 -0.04500
N 	N 	0.16580 0.42470 0.57530 -0.26000
Re	Re	0.28179 0.18679 0.81321 0.28500
C 	C 	0.31570 0.11520 0.88480 -0.03700
N 	N 	0.33420 0.07530 0.92470 -0.23900
Re	Re	0.78179 0.68679 0.31321 0.27900
C 	C 	0.81570 0.61520 0.38480 -0.02800
N 	N 	0.83420 0.57530 0.42470 -0.24600
Re	Re	0.71821 0.81321 0.81321 0.27700
C 	C 	0.68430 0.88480 0.88480 -0.00500
N 	N 	0.66580 0.92470 0.92470 -0.19600
Re	Re	0.21821 0.31321 0.31321 0.28800
C 	C 	0.18430 0.38480 0.38480 -0.04600
N 	N 	0.16580 0.42470 0.42470 -0.26000
Re	Re	0.28179 0.81321 0.18679 0.28500
C 	C 	0.31570 0.88480 0.11520 -0.03700
N 	N 	0.33420 0.92470 0.07530 -0.23900
Re	Re	0.78179 0.31321 0.68679 0.27900
C 	C 	0.81570 0.38480 0.61520 -0.02800
N 	N 	0.83420 0.42470 0.57530 -0.24600
Re	Re	0.71821 0.18679 0.18679 0.28400
C 	C 	0.68430 0.11520 0.11520 -0.06600
N 	N 	0.66580 0.07530 0.07530 -0.28400
Re	Re	0.21821 0.68679 0.68679 0.28300
C 	C 	0.18430 0.61520 0.61520 -0.04500
N 	N 	0.16580 0.57530 0.57530 -0.26000
Re	Re	0.18679 0.18679 0.71821 0.28400
C 	C 	0.11520 0.11520 0.68430 -0.06600
N 	N 	0.07530 0.07530 0.66580 -0.28400
Re	Re	0.68679 0.68679 0.21821 0.28300
C 	C 	0.61520 0.61520 0.18430 -0.04500
N 	N 	0.57530 0.57530 0.16580 -0.26000
Re	Re	0.81321 0.18679 0.28179 0.28500
C 	C 	0.88480 0.11520 0.31570 -0.03700
N 	N 	0.92470 0.07530 0.33420 -0.23900
Re	Re	0.31321 0.68679 0.78179 0.27900
C 	C 	0.38480 0.61520 0.81570 -0.02800
N 	N 	0.42470 0.57530 0.83420 -0.24600
Re	Re	0.81321 0.81321 0.71821 0.27700
C 	C 	0.88480 0.88480 0.68430 -0.00500
N 	N 	0.92470 0.92470 0.66580 -0.19600
Re	Re	0.31321 0.31321 0.21821 0.28800
C 	C 	0.38480 0.38480 0.18430 -0.04600
N 	N 	0.42470 0.42470 0.16580 -0.26000
Re	Re	0.18679 0.81321 0.28179 0.28500
C 	C 	0.11520 0.88480 0.31570 -0.03700
N 	N 	0.07530 0.92470 0.33420 -0.23900
Re	Re	0.68679 0.31321 0.78179 0.27900
C 	C 	0.61520 0.38480 0.81570 -0.02800
N 	N 	0.57530 0.42470 0.83420 -0.24600
Re	Re	0.18679 0.28179 0.81321 0.28500
C 	C 	0.11520 0.31570 0.88480 -0.03700
N 	N 	0.07530 0.33420 0.92470 -0.23900
Re	Re	0.68679 0.78179 0.31321 0.27900
C 	C 	0.61520 0.81570 0.38480 -0.02800
N 	N 	0.57530 0.83420 0.42470 -0.24600
Re	Re	0.18679 0.71821 0.18679 0.28400
C 	C 	0.11520 0.68430 0.11520 -0.06600
N 	N 	0.07530 0.66580 0.07530 -0.28400
Re	Re	0.68679 0.21821 0.68679 0.28300
C 	C 	0.61520 0.18430 0.61520 -0.04500
N 	N 	0.57530 0.16580 0.57530 -0.26000
Re	Re	0.81321 0.28179 0.18679 0.28500
C 	C 	0.88480 0.31570 0.11520 -0.03700
N 	N 	0.92470 0.33420 0.07530 -0.23900
Re	Re	0.31321 0.78179 0.68679 0.27900
C 	C 	0.38480 0.81570 0.61520 -0.02800
N 	N 	0.42470 0.83420 0.57530 -0.24600
Re	Re	0.81321 0.71821 0.81321 0.27700
C 	C 	0.88480 0.68430 0.88480 -0.00500
N 	N 	0.92470 0.66580 0.92470 -0.19600
Re	Re	0.31321 0.21821 0.31321 0.28800
C 	C 	0.38480 0.18430 0.38480 -0.04600
N 	N 	0.42470 0.16580 0.42470 -0.26000
Se	Se	0.28007 0.28007 0.09830 -0.24700
Se	Se	0.78007 0.78007 0.59830 -0.16700
Se	Se	0.71993 0.71993 0.09830 -0.23400
Se	Se	0.21993 0.21993 0.59830 -0.21000
Se	Se	0.71993 0.28007 0.90170 -0.13500
Se	Se	0.21993 0.78007 0.40170 -0.18900
Se	Se	0.28007 0.71993 0.90170 -0.13500
Se	Se	0.78007 0.21993 0.40170 -0.18900
Se	Se	0.09830 0.28007 0.28007 -0.24700
Se	Se	0.59830 0.78007 0.78007 -0.16700
Se	Se	0.09830 0.71993 0.71993 -0.23400
Se	Se	0.59830 0.21993 0.21993 -0.21000
Se	Se	0.90170 0.71993 0.28007 -0.13500
Se	Se	0.40170 0.21993 0.78007 -0.18900
Se	Se	0.90170 0.28007 0.71993 -0.13500
Se	Se	0.40170 0.78007 0.21993 -0.18900
Se	Se	0.28007 0.09830 0.28007 -0.24700
Se	Se	0.78007 0.59830 0.78007 -0.16700
Se	Se	0.71993 0.09830 0.71993 -0.23400
Se	Se	0.21993 0.59830 0.21993 -0.21000
Se	Se	0.28007 0.90170 0.71993 -0.13500
Se	Se	0.78007 0.40170 0.21993 -0.18900
Se	Se	0.71993 0.90170 0.28007 -0.13500
Se	Se	0.21993 0.40170 0.78007 -0.18900
Se	Se	0.28007 0.28007 0.90170 -0.13900
Se	Se	0.78007 0.78007 0.40170 -0.16700
Se	Se	0.71993 0.71993 0.90170 -0.13000
Se	Se	0.21993 0.21993 0.40170 -0.21100
Se	Se	0.28007 0.71993 0.09830 -0.24100
Se	Se	0.78007 0.21993 0.59830 -0.18800
Se	Se	0.71993 0.28007 0.09830 -0.24100
Se	Se	0.21993 0.78007 0.59830 -0.18800
Se	Se	0.28007 0.09830 0.71993 -0.24100
Se	Se	0.78007 0.59830 0.21993 -0.18800
Se	Se	0.71993 0.09830 0.28007 -0.24100
Se	Se	0.21993 0.59830 0.78007 -0.18800
Se	Se	0.71993 0.90170 0.71993 -0.13000
Se	Se	0.21993 0.40170 0.21993 -0.21100
Se	Se	0.28007 0.90170 0.28007 -0.13900
Se	Se	0.78007 0.40170 0.78007 -0.16700
Se	Se	0.09830 0.28007 0.71993 -0.24100
Se	Se	0.59830 0.78007 0.21993 -0.18800
Se	Se	0.09830 0.71993 0.28007 -0.24100
Se	Se	0.59830 0.21993 0.78007 -0.18800
Se	Se	0.90170 0.28007 0.28007 -0.13900
Se	Se	0.40170 0.78007 0.78007 -0.16700
Se	Se	0.90170 0.71993 0.71993 -0.13000
Se	Se	0.40170 0.21993 0.21993 -0.21100
Se	Se	0.15935 0.15935 0.15935 -0.28200
Se	Se	0.65935 0.65935 0.65935 -0.20800
Se	Se	0.84065 0.84065 0.15935 -0.17600
Se	Se	0.34065 0.34065 0.65935 -0.20800
Se	Se	0.84065 0.15935 0.84065 -0.17600
Se	Se	0.34065 0.65935 0.34065 -0.20800
Se	Se	0.15935 0.84065 0.84065 -0.17600
Se	Se	0.65935 0.34065 0.34065 -0.20800
Se	Se	0.15935 0.15935 0.84065 -0.22800
Se	Se	0.65935 0.65935 0.34065 -0.20800
Se	Se	0.84065 0.84065 0.84065 -0.12600
Se	Se	0.34065 0.34065 0.34065 -0.20800
Se	Se	0.15935 0.84065 0.15935 -0.22800
Se	Se	0.65935 0.34065 0.65935 -0.20800
Se	Se	0.84065 0.15935 0.15935 -0.22800
Se	Se	0.34065 0.65935 0.65935 -0.20800
Co	Co	-0.00000 0.34190 -0.00000 0.98400
Co	Co	0.50000 0.84190 0.50000 1.07600
Co	Co	-0.00000 0.65810 -0.00000 0.98700
Co	Co	0.50000 0.15810 0.50000 1.05900
Co	Co	0.00000 0.00000 0.34190 0.98400
Co	Co	0.50000 0.50000 0.84190 1.07600
Co	Co	0.00000 0.00000 0.65810 0.98700
Co	Co	0.50000 0.50000 0.15810 1.05900
Co	Co	0.34190 0.00000 -0.00000 0.98400
Co	Co	0.84190 0.50000 0.50000 1.07600
Co	Co	0.65810 0.00000 -0.00000 0.98700
Co	Co	0.15810 0.50000 0.50000 1.05900
