data_crystal

_cell_length_a 20.06000
_cell_length_b 20.06000
_cell_length_c 20.06000
_cell_angle_alpha 90.00000
_cell_angle_beta  90.00000
_cell_angle_gamma 90.00000

_symmetry_space_group_name_	'P 1'
_symmetry_space_group_name_H-M	'P 1'

loop_
_symmetry_equiv_pos_as_xyz
  x,y,z

loop_
_atom_site_label
_atom_site_type_symbol
_atom_site_fract_x
_atom_site_fract_y
_atom_site_fract_z
_atom_site_charge
Re	Re	0.18824 0.28078 0.18824 0.28800
C 	C 	0.11590 0.30890 0.11590 -0.06200
N 	N 	0.07750 0.32060 0.07750 -0.30800
Re	Re	0.68824 0.78078 0.68824 0.27600
C 	C 	0.61590 0.80890 0.61590 -0.01900
N 	N 	0.57750 0.82060 0.57750 -0.26600
Re	Re	0.81176 0.71922 0.18824 0.27900
C 	C 	0.88410 0.69110 0.11590 -0.02600
N 	N 	0.92250 0.67940 0.07750 -0.25800
Re	Re	0.31176 0.21922 0.68824 0.28400
C 	C 	0.38410 0.19110 0.61590 -0.03800
N 	N 	0.42250 0.17940 0.57750 -0.27900
Re	Re	0.81176 0.28078 0.81176 0.28200
C 	C 	0.88410 0.30890 0.88410 0.00300
N 	N 	0.92250 0.32060 0.92250 -0.21300
Re	Re	0.31176 0.78078 0.31176 0.28100
C 	C 	0.38410 0.80890 0.38410 -0.01900
N 	N 	0.42250 0.82060 0.42250 -0.26500
Re	Re	0.18824 0.71922 0.81176 0.28000
C 	C 	0.11590 0.69110 0.88410 -0.02500
N 	N 	0.07750 0.67940 0.92250 -0.25700
Re	Re	0.68824 0.21922 0.31176 0.28500
C 	C 	0.61590 0.19110 0.38410 -0.03700
N 	N 	0.57750 0.17940 0.42250 -0.27800
Re	Re	0.18824 0.18824 0.28078 0.28900
C 	C 	0.11590 0.11590 0.30890 -0.06100
N 	N 	0.07750 0.07750 0.32060 -0.30700
Re	Re	0.68824 0.68824 0.78078 0.27700
C 	C 	0.61590 0.61590 0.80890 -0.01800
N 	N 	0.57750 0.57750 0.82060 -0.26500
Re	Re	0.18824 0.81176 0.71922 0.28000
C 	C 	0.11590 0.88410 0.69110 -0.02500
N 	N 	0.07750 0.92250 0.67940 -0.25700
Re	Re	0.68824 0.31176 0.21922 0.28500
C 	C 	0.61590 0.38410 0.19110 -0.03700
N 	N 	0.57750 0.42250 0.17940 -0.27800
Re	Re	0.81176 0.81176 0.28078 0.28200
C 	C 	0.88410 0.88410 0.30890 0.00300
N 	N 	0.92250 0.92250 0.32060 -0.21300
Re	Re	0.31176 0.31176 0.78078 0.28100
C 	C 	0.38410 0.38410 0.80890 -0.01900
N 	N 	0.42250 0.42250 0.82060 -0.26500
Re	Re	0.81176 0.18824 0.71922 0.28000
C 	C 	0.88410 0.11590 0.69110 -0.02500
N 	N 	0.92250 0.07750 0.67940 -0.25700
Re	Re	0.31176 0.68824 0.21922 0.28500
C 	C 	0.38410 0.61590 0.19110 -0.03700
N 	N 	0.42250 0.57750 0.17940 -0.27800
Re	Re	0.28078 0.18824 0.18824 0.28900
C 	C 	0.30890 0.11590 0.11590 -0.06100
N 	N 	0.32060 0.07750 0.07750 -0.30700
Re	Re	0.78078 0.68824 0.68824 0.27700
C 	C 	0.80890 0.61590 0.61590 -0.01800
N 	N 	0.82060 0.57750 0.57750 -0.26500
Re	Re	0.71922 0.18824 0.81176 0.28000
C 	C 	0.69110 0.11590 0.88410 -0.02500
N 	N 	0.67940 0.07750 0.92250 -0.25700
Re	Re	0.21922 0.68824 0.31176 0.28500
C 	C 	0.19110 0.61590 0.38410 -0.03700
N 	N 	0.17940 0.57750 0.42250 -0.27800
Re	Re	0.28078 0.81176 0.81176 0.28200
C 	C 	0.30890 0.88410 0.88410 0.00300
N 	N 	0.32060 0.92250 0.92250 -0.21300
Re	Re	0.78078 0.31176 0.31176 0.28100
C 	C 	0.80890 0.38410 0.38410 -0.01900
N 	N 	0.82060 0.42250 0.42250 -0.26500
Re	Re	0.71922 0.81176 0.18824 0.28000
C 	C 	0.69110 0.88410 0.11590 -0.02500
N 	N 	0.67940 0.92250 0.07750 -0.25700
Re	Re	0.21922 0.31176 0.68824 0.28500
C 	C 	0.19110 0.38410 0.61590 -0.03700
N 	N 	0.17940 0.42250 0.57750 -0.27800
Re	Re	0.28078 0.18824 0.81176 0.28500
C 	C 	0.30890 0.11590 0.88410 -0.02900
N 	N 	0.32060 0.07750 0.92250 -0.25900
Re	Re	0.78078 0.68824 0.31176 0.27900
C 	C 	0.80890 0.61590 0.38410 -0.01800
N 	N 	0.82060 0.57750 0.42250 -0.26500
Re	Re	0.71922 0.81176 0.81176 0.27700
C 	C 	0.69110 0.88410 0.88410 0.00500
N 	N 	0.67940 0.92250 0.92250 -0.21200
Re	Re	0.21922 0.31176 0.31176 0.28800
C 	C 	0.19110 0.38410 0.38410 -0.03800
N 	N 	0.17940 0.42250 0.42250 -0.27800
Re	Re	0.28078 0.81176 0.18824 0.28500
C 	C 	0.30890 0.88410 0.11590 -0.02900
N 	N 	0.32060 0.92250 0.07750 -0.25900
Re	Re	0.78078 0.31176 0.68824 0.27900
C 	C 	0.80890 0.38410 0.61590 -0.01800
N 	N 	0.82060 0.42250 0.57750 -0.26500
Re	Re	0.71922 0.18824 0.18824 0.28400
C 	C 	0.69110 0.11590 0.11590 -0.05800
N 	N 	0.67940 0.07750 0.07750 -0.30500
Re	Re	0.21922 0.68824 0.68824 0.28300
C 	C 	0.19110 0.61590 0.61590 -0.03700
N 	N 	0.17940 0.57750 0.57750 -0.27800
Re	Re	0.18824 0.18824 0.71922 0.28400
C 	C 	0.11590 0.11590 0.69110 -0.05800
N 	N 	0.07750 0.07750 0.67940 -0.30500
Re	Re	0.68824 0.68824 0.21922 0.28300
C 	C 	0.61590 0.61590 0.19110 -0.03700
N 	N 	0.57750 0.57750 0.17940 -0.27800
Re	Re	0.81176 0.18824 0.28078 0.28500
C 	C 	0.88410 0.11590 0.30890 -0.02900
N 	N 	0.92250 0.07750 0.32060 -0.25900
Re	Re	0.31176 0.68824 0.78078 0.27900
C 	C 	0.38410 0.61590 0.80890 -0.01800
N 	N 	0.42250 0.57750 0.82060 -0.26500
Re	Re	0.81176 0.81176 0.71922 0.27700
C 	C 	0.88410 0.88410 0.69110 0.00500
N 	N 	0.92250 0.92250 0.67940 -0.21200
Re	Re	0.31176 0.31176 0.21922 0.28800
C 	C 	0.38410 0.38410 0.19110 -0.03800
N 	N 	0.42250 0.42250 0.17940 -0.27800
Re	Re	0.18824 0.81176 0.28078 0.28500
C 	C 	0.11590 0.88410 0.30890 -0.02900
N 	N 	0.07750 0.92250 0.32060 -0.25900
Re	Re	0.68824 0.31176 0.78078 0.27900
C 	C 	0.61590 0.38410 0.80890 -0.01800
N 	N 	0.57750 0.42250 0.82060 -0.26500
Re	Re	0.18824 0.28078 0.81176 0.28500
C 	C 	0.11590 0.30890 0.88410 -0.02900
N 	N 	0.07750 0.32060 0.92250 -0.25900
Re	Re	0.68824 0.78078 0.31176 0.27900
C 	C 	0.61590 0.80890 0.38410 -0.01800
N 	N 	0.57750 0.82060 0.42250 -0.26500
Re	Re	0.18824 0.71922 0.18824 0.28400
C 	C 	0.11590 0.69110 0.11590 -0.05800
N 	N 	0.07750 0.67940 0.07750 -0.30500
Re	Re	0.68824 0.21922 0.68824 0.28300
C 	C 	0.61590 0.19110 0.61590 -0.03700
N 	N 	0.57750 0.17940 0.57750 -0.27800
Re	Re	0.81176 0.28078 0.18824 0.28500
C 	C 	0.88410 0.30890 0.11590 -0.02900
N 	N 	0.92250 0.32060 0.07750 -0.25900
Re	Re	0.31176 0.78078 0.68824 0.27900
C 	C 	0.38410 0.80890 0.61590 -0.01800
N 	N 	0.42250 0.82060 0.57750 -0.26500
Re	Re	0.81176 0.71922 0.81176 0.27700
C 	C 	0.88410 0.69110 0.88410 0.00500
N 	N 	0.92250 0.67940 0.92250 -0.21200
Re	Re	0.31176 0.21922 0.31176 0.28800
C 	C 	0.38410 0.19110 0.38410 -0.03800
N 	N 	0.42250 0.17940 0.42250 -0.27800
Se	Se	0.27985 0.27985 0.10216 -0.26100
Se	Se	0.77985 0.77985 0.60216 -0.17500
Se	Se	0.72015 0.72015 0.10216 -0.24600
Se	Se	0.22015 0.22015 0.60216 -0.22500
Se	Se	0.72015 0.27985 0.89784 -0.14300
Se	Se	0.22015 0.77985 0.39784 -0.20000
Se	Se	0.27985 0.72015 0.89784 -0.14300
Se	Se	0.77985 0.22015 0.39784 -0.20000
Se	Se	0.10216 0.27985 0.27985 -0.26100
Se	Se	0.60216 0.77985 0.77985 -0.17500
Se	Se	0.10216 0.72015 0.72015 -0.24600
Se	Se	0.60216 0.22015 0.22015 -0.22500
Se	Se	0.89784 0.72015 0.27985 -0.14300
Se	Se	0.39784 0.22015 0.77985 -0.20000
Se	Se	0.89784 0.27985 0.72015 -0.14300
Se	Se	0.39784 0.77985 0.22015 -0.20000
Se	Se	0.27985 0.10216 0.27985 -0.26100
Se	Se	0.77985 0.60216 0.77985 -0.17500
Se	Se	0.72015 0.10216 0.72015 -0.24600
Se	Se	0.22015 0.60216 0.22015 -0.22500
Se	Se	0.27985 0.89784 0.72015 -0.14300
Se	Se	0.77985 0.39784 0.22015 -0.20000
Se	Se	0.72015 0.89784 0.27985 -0.14300
Se	Se	0.22015 0.39784 0.77985 -0.20000
Se	Se	0.27985 0.27985 0.89784 -0.14900
Se	Se	0.77985 0.77985 0.39784 -0.17500
Se	Se	0.72015 0.72015 0.89784 -0.13800
Se	Se	0.22015 0.22015 0.39784 -0.22500
Se	Se	0.27985 0.72015 0.10216 -0.25300
Se	Se	0.77985 0.22015 0.60216 -0.19900
Se	Se	0.72015 0.27985 0.10216 -0.25300
Se	Se	0.22015 0.77985 0.60216 -0.19900
Se	Se	0.27985 0.10216 0.72015 -0.25300
Se	Se	0.77985 0.60216 0.22015 -0.19900
Se	Se	0.72015 0.10216 0.27985 -0.25300
Se	Se	0.22015 0.60216 0.77985 -0.19900
Se	Se	0.72015 0.89784 0.72015 -0.13800
Se	Se	0.22015 0.39784 0.22015 -0.22500
Se	Se	0.27985 0.89784 0.27985 -0.14900
Se	Se	0.77985 0.39784 0.77985 -0.17500
Se	Se	0.10216 0.27985 0.72015 -0.25300
Se	Se	0.60216 0.77985 0.22015 -0.19900
Se	Se	0.10216 0.72015 0.27985 -0.25300
Se	Se	0.60216 0.22015 0.77985 -0.19900
Se	Se	0.89784 0.27985 0.27985 -0.14900
Se	Se	0.39784 0.77985 0.77985 -0.17500
Se	Se	0.89784 0.72015 0.72015 -0.13800
Se	Se	0.39784 0.22015 0.22015 -0.22500
Se	Se	0.16192 0.16192 0.16192 -0.31400
Se	Se	0.66192 0.66192 0.66192 -0.23900
Se	Se	0.83808 0.83808 0.16192 -0.20500
Se	Se	0.33808 0.33808 0.66192 -0.24000
Se	Se	0.83808 0.16192 0.83808 -0.20500
Se	Se	0.33808 0.66192 0.33808 -0.24000
Se	Se	0.16192 0.83808 0.83808 -0.20500
Se	Se	0.66192 0.33808 0.33808 -0.24000
Se	Se	0.16192 0.16192 0.83808 -0.25800
Se	Se	0.66192 0.66192 0.33808 -0.23900
Se	Se	0.83808 0.83808 0.83808 -0.15500
Se	Se	0.33808 0.33808 0.33808 -0.24000
Se	Se	0.16192 0.83808 0.16192 -0.25800
Se	Se	0.66192 0.33808 0.66192 -0.23900
Se	Se	0.83808 0.16192 0.16192 -0.25800
Se	Se	0.33808 0.66192 0.66192 -0.23900
Mn	Mn	-0.00000 0.31870 -0.00000 1.11100
Mn	Mn	0.50000 0.81870 0.50000 1.19800
Mn	Mn	-0.00000 0.68130 -0.00000 1.11500
Mn	Mn	0.50000 0.18130 0.50000 1.18500
Mn	Mn	0.00000 -0.00000 0.31870 1.11100
Mn	Mn	0.50000 0.50000 0.81870 1.19800
Mn	Mn	0.00000 0.00000 0.68130 1.11500
Mn	Mn	0.50000 0.50000 0.18130 1.18500
Mn	Mn	0.31870 0.00000 -0.00000 1.11100
Mn	Mn	0.81870 0.50000 0.50000 1.19800
Mn	Mn	0.68130 0.00000 -0.00000 1.11500
Mn	Mn	0.18130 0.50000 0.50000 1.18500
