data_crystal

_cell_length_a 19.85700
_cell_length_b 19.85700
_cell_length_c 19.85700
_cell_angle_alpha 90.00000
_cell_angle_beta  90.00000
_cell_angle_gamma 90.00000

_symmetry_space_group_name_	'P 1'
_symmetry_space_group_name_H-M	'P 1'

loop_
_symmetry_equiv_pos_as_xyz
  x,y,z

loop_
_atom_site_label
_atom_site_type_symbol
_atom_site_fract_x
_atom_site_fract_y
_atom_site_fract_z
_atom_site_charge
Re	Re	0.18770 0.28124 0.18770 0.28900
C 	C 	0.11690 0.31590 0.11690 -0.07200
N 	N 	0.07750 0.33220 0.07750 -0.30800
Re	Re	0.68770 0.78124 0.68770 0.27600
C 	C 	0.61690 0.81590 0.61690 -0.02800
N 	N 	0.57750 0.83220 0.57750 -0.26400
Re	Re	0.81230 0.71876 0.18770 0.28100
C 	C 	0.88310 0.68410 0.11690 -0.03400
N 	N 	0.92250 0.66780 0.07750 -0.25600
Re	Re	0.31230 0.21876 0.68770 0.28600
C 	C 	0.38310 0.18410 0.61690 -0.04600
N 	N 	0.42250 0.16780 0.57750 -0.27800
Re	Re	0.81230 0.28124 0.81230 0.28200
C 	C 	0.88310 0.31590 0.88310 -0.00500
N 	N 	0.92250 0.33220 0.92250 -0.21000
Re	Re	0.31230 0.78124 0.31230 0.28100
C 	C 	0.38310 0.81590 0.38310 -0.02700
N 	N 	0.42250 0.83220 0.42250 -0.26300
Re	Re	0.18770 0.71876 0.81230 0.28100
C 	C 	0.11690 0.68410 0.88310 -0.03400
N 	N 	0.07750 0.66780 0.92250 -0.25600
Re	Re	0.68770 0.21876 0.31230 0.28600
C 	C 	0.61690 0.18410 0.38310 -0.04600
N 	N 	0.57750 0.16780 0.42250 -0.27800
Re	Re	0.18770 0.18770 0.28124 0.29000
C 	C 	0.11690 0.11690 0.31590 -0.07100
N 	N 	0.07750 0.07750 0.33220 -0.30700
Re	Re	0.68770 0.68770 0.78124 0.27700
C 	C 	0.61690 0.61690 0.81590 -0.02700
N 	N 	0.57750 0.57750 0.83220 -0.26300
Re	Re	0.18770 0.81230 0.71876 0.28100
C 	C 	0.11690 0.88310 0.68410 -0.03400
N 	N 	0.07750 0.92250 0.66780 -0.25600
Re	Re	0.68770 0.31230 0.21876 0.28600
C 	C 	0.61690 0.38310 0.18410 -0.04600
N 	N 	0.57750 0.42250 0.16780 -0.27800
Re	Re	0.81230 0.81230 0.28124 0.28200
C 	C 	0.88310 0.88310 0.31590 -0.00500
N 	N 	0.92250 0.92250 0.33220 -0.21000
Re	Re	0.31230 0.31230 0.78124 0.28100
C 	C 	0.38310 0.38310 0.81590 -0.02700
N 	N 	0.42250 0.42250 0.83220 -0.26300
Re	Re	0.81230 0.18770 0.71876 0.28100
C 	C 	0.88310 0.11690 0.68410 -0.03400
N 	N 	0.92250 0.07750 0.66780 -0.25600
Re	Re	0.31230 0.68770 0.21876 0.28600
C 	C 	0.38310 0.61690 0.18410 -0.04600
N 	N 	0.42250 0.57750 0.16780 -0.27800
Re	Re	0.28124 0.18770 0.18770 0.29000
C 	C 	0.31590 0.11690 0.11690 -0.07100
N 	N 	0.33220 0.07750 0.07750 -0.30700
Re	Re	0.78124 0.68770 0.68770 0.27700
C 	C 	0.81590 0.61690 0.61690 -0.02700
N 	N 	0.83220 0.57750 0.57750 -0.26300
Re	Re	0.71876 0.18770 0.81230 0.28100
C 	C 	0.68410 0.11690 0.88310 -0.03400
N 	N 	0.66780 0.07750 0.92250 -0.25600
Re	Re	0.21876 0.68770 0.31230 0.28600
C 	C 	0.18410 0.61690 0.38310 -0.04600
N 	N 	0.16780 0.57750 0.42250 -0.27800
Re	Re	0.28124 0.81230 0.81230 0.28200
C 	C 	0.31590 0.88310 0.88310 -0.00500
N 	N 	0.33220 0.92250 0.92250 -0.21000
Re	Re	0.78124 0.31230 0.31230 0.28100
C 	C 	0.81590 0.38310 0.38310 -0.02700
N 	N 	0.83220 0.42250 0.42250 -0.26300
Re	Re	0.71876 0.81230 0.18770 0.28100
C 	C 	0.68410 0.88310 0.11690 -0.03400
N 	N 	0.66780 0.92250 0.07750 -0.25600
Re	Re	0.21876 0.31230 0.68770 0.28600
C 	C 	0.18410 0.38310 0.61690 -0.04600
N 	N 	0.16780 0.42250 0.57750 -0.27800
Re	Re	0.28124 0.18770 0.81230 0.28600
C 	C 	0.31590 0.11690 0.88310 -0.03700
N 	N 	0.33220 0.07750 0.92250 -0.25700
Re	Re	0.78124 0.68770 0.31230 0.27900
C 	C 	0.81590 0.61690 0.38310 -0.02700
N 	N 	0.83220 0.57750 0.42250 -0.26300
Re	Re	0.71876 0.81230 0.81230 0.27700
C 	C 	0.68410 0.88310 0.88310 -0.00300
N 	N 	0.66780 0.92250 0.92250 -0.21000
Re	Re	0.21876 0.31230 0.31230 0.28900
C 	C 	0.18410 0.38310 0.38310 -0.04700
N 	N 	0.16780 0.42250 0.42250 -0.27800
Re	Re	0.28124 0.81230 0.18770 0.28600
C 	C 	0.31590 0.88310 0.11690 -0.03700
N 	N 	0.33220 0.92250 0.07750 -0.25700
Re	Re	0.78124 0.31230 0.68770 0.27900
C 	C 	0.81590 0.38310 0.61690 -0.02700
N 	N 	0.83220 0.42250 0.57750 -0.26300
Re	Re	0.71876 0.18770 0.18770 0.28500
C 	C 	0.68410 0.11690 0.11690 -0.06800
N 	N 	0.66780 0.07750 0.07750 -0.30500
Re	Re	0.21876 0.68770 0.68770 0.28400
C 	C 	0.18410 0.61690 0.61690 -0.04600
N 	N 	0.16780 0.57750 0.57750 -0.27800
Re	Re	0.18770 0.18770 0.71876 0.28500
C 	C 	0.11690 0.11690 0.68410 -0.06800
N 	N 	0.07750 0.07750 0.66780 -0.30500
Re	Re	0.68770 0.68770 0.21876 0.28400
C 	C 	0.61690 0.61690 0.18410 -0.04600
N 	N 	0.57750 0.57750 0.16780 -0.27800
Re	Re	0.81230 0.18770 0.28124 0.28600
C 	C 	0.88310 0.11690 0.31590 -0.03700
N 	N 	0.92250 0.07750 0.33220 -0.25700
Re	Re	0.31230 0.68770 0.78124 0.27900
C 	C 	0.38310 0.61690 0.81590 -0.02700
N 	N 	0.42250 0.57750 0.83220 -0.26300
Re	Re	0.81230 0.81230 0.71876 0.27700
C 	C 	0.88310 0.88310 0.68410 -0.00300
N 	N 	0.92250 0.92250 0.66780 -0.21000
Re	Re	0.31230 0.31230 0.21876 0.28900
C 	C 	0.38310 0.38310 0.18410 -0.04700
N 	N 	0.42250 0.42250 0.16780 -0.27800
Re	Re	0.18770 0.81230 0.28124 0.28600
C 	C 	0.11690 0.88310 0.31590 -0.03700
N 	N 	0.07750 0.92250 0.33220 -0.25700
Re	Re	0.68770 0.31230 0.78124 0.27900
C 	C 	0.61690 0.38310 0.81590 -0.02700
N 	N 	0.57750 0.42250 0.83220 -0.26300
Re	Re	0.18770 0.28124 0.81230 0.28600
C 	C 	0.11690 0.31590 0.88310 -0.03700
N 	N 	0.07750 0.33220 0.92250 -0.25700
Re	Re	0.68770 0.78124 0.31230 0.27900
C 	C 	0.61690 0.81590 0.38310 -0.02700
N 	N 	0.57750 0.83220 0.42250 -0.26300
Re	Re	0.18770 0.71876 0.18770 0.28500
C 	C 	0.11690 0.68410 0.11690 -0.06800
N 	N 	0.07750 0.66780 0.07750 -0.30500
Re	Re	0.68770 0.21876 0.68770 0.28400
C 	C 	0.61690 0.18410 0.61690 -0.04600
N 	N 	0.57750 0.16780 0.57750 -0.27800
Re	Re	0.81230 0.28124 0.18770 0.28600
C 	C 	0.88310 0.31590 0.11690 -0.03700
N 	N 	0.92250 0.33220 0.07750 -0.25700
Re	Re	0.31230 0.78124 0.68770 0.27900
C 	C 	0.38310 0.81590 0.61690 -0.02700
N 	N 	0.42250 0.83220 0.57750 -0.26300
Re	Re	0.81230 0.71876 0.81230 0.27700
C 	C 	0.88310 0.68410 0.88310 -0.00300
N 	N 	0.92250 0.66780 0.92250 -0.21000
Re	Re	0.31230 0.21876 0.31230 0.28900
C 	C 	0.38310 0.18410 0.38310 -0.04700
N 	N 	0.42250 0.16780 0.42250 -0.27800
Se	Se	0.27980 0.27980 0.10045 -0.26200
Se	Se	0.77980 0.77980 0.60045 -0.17400
Se	Se	0.72020 0.72020 0.10045 -0.24700
Se	Se	0.22020 0.22020 0.60045 -0.22200
Se	Se	0.72020 0.27980 0.89955 -0.14000
Se	Se	0.22020 0.77980 0.39955 -0.19800
Se	Se	0.27980 0.72020 0.89955 -0.14000
Se	Se	0.77980 0.22020 0.39955 -0.19800
Se	Se	0.10045 0.27980 0.27980 -0.26200
Se	Se	0.60045 0.77980 0.77980 -0.17400
Se	Se	0.10045 0.72020 0.72020 -0.24700
Se	Se	0.60045 0.22020 0.22020 -0.22200
Se	Se	0.89955 0.72020 0.27980 -0.14000
Se	Se	0.39955 0.22020 0.77980 -0.19800
Se	Se	0.89955 0.27980 0.72020 -0.14000
Se	Se	0.39955 0.77980 0.22020 -0.19800
Se	Se	0.27980 0.10045 0.27980 -0.26200
Se	Se	0.77980 0.60045 0.77980 -0.17400
Se	Se	0.72020 0.10045 0.72020 -0.24700
Se	Se	0.22020 0.60045 0.22020 -0.22200
Se	Se	0.27980 0.89955 0.72020 -0.14000
Se	Se	0.77980 0.39955 0.22020 -0.19800
Se	Se	0.72020 0.89955 0.27980 -0.14000
Se	Se	0.22020 0.39955 0.77980 -0.19800
Se	Se	0.27980 0.27980 0.89955 -0.14500
Se	Se	0.77980 0.77980 0.39955 -0.17500
Se	Se	0.72020 0.72020 0.89955 -0.13500
Se	Se	0.22020 0.22020 0.39955 -0.22300
Se	Se	0.27980 0.72020 0.10045 -0.25400
Se	Se	0.77980 0.22020 0.60045 -0.19800
Se	Se	0.72020 0.27980 0.10045 -0.25400
Se	Se	0.22020 0.77980 0.60045 -0.19800
Se	Se	0.27980 0.10045 0.72020 -0.25400
Se	Se	0.77980 0.60045 0.22020 -0.19800
Se	Se	0.72020 0.10045 0.27980 -0.25400
Se	Se	0.22020 0.60045 0.77980 -0.19800
Se	Se	0.72020 0.89955 0.72020 -0.13500
Se	Se	0.22020 0.39955 0.22020 -0.22300
Se	Se	0.27980 0.89955 0.27980 -0.14500
Se	Se	0.77980 0.39955 0.77980 -0.17500
Se	Se	0.10045 0.27980 0.72020 -0.25400
Se	Se	0.60045 0.77980 0.22020 -0.19800
Se	Se	0.10045 0.72020 0.27980 -0.25400
Se	Se	0.60045 0.22020 0.77980 -0.19800
Se	Se	0.89955 0.27980 0.27980 -0.14500
Se	Se	0.39955 0.77980 0.77980 -0.17500
Se	Se	0.89955 0.72020 0.72020 -0.13500
Se	Se	0.39955 0.22020 0.22020 -0.22300
Se	Se	0.16075 0.16075 0.16075 -0.30400
Se	Se	0.66075 0.66075 0.66075 -0.22200
Se	Se	0.83925 0.83925 0.16075 -0.18700
Se	Se	0.33925 0.33925 0.66075 -0.22300
Se	Se	0.83925 0.16075 0.83925 -0.18700
Se	Se	0.33925 0.66075 0.33925 -0.22300
Se	Se	0.16075 0.83925 0.83925 -0.18700
Se	Se	0.66075 0.33925 0.33925 -0.22300
Se	Se	0.16075 0.16075 0.83925 -0.24400
Se	Se	0.66075 0.66075 0.33925 -0.22200
Se	Se	0.83925 0.83925 0.83925 -0.13300
Se	Se	0.33925 0.33925 0.33925 -0.22300
Se	Se	0.16075 0.83925 0.16075 -0.24400
Se	Se	0.66075 0.33925 0.66075 -0.22200
Se	Se	0.83925 0.16075 0.16075 -0.24400
Se	Se	0.33925 0.66075 0.66075 -0.22200
Mn	Mn	-0.00000 0.34000 -0.00000 1.11100
Mn	Mn	0.50000 0.84000 0.50000 1.20100
Mn	Mn	-0.00000 0.66000 -0.00000 1.11400
Mn	Mn	0.50000 0.16000 0.50000 1.18400
Mn	Mn	-0.00000 -0.00000 0.34000 1.11100
Mn	Mn	0.50000 0.50000 0.84000 1.20100
Mn	Mn	0.00000 0.00000 0.66000 1.11400
Mn	Mn	0.50000 0.50000 0.16000 1.18400
Mn	Mn	0.34000 0.00000 -0.00000 1.11100
Mn	Mn	0.84000 0.50000 0.50000 1.20100
Mn	Mn	0.66000 0.00000 -0.00000 1.11400
Mn	Mn	0.16000 0.50000 0.50000 1.18400
