data_crystal

_cell_length_a 20.46300
_cell_length_b 20.46300
_cell_length_c 17.98900
_cell_angle_alpha 90.00000
_cell_angle_beta  90.00000
_cell_angle_gamma 120.00000

_symmetry_space_group_name_	'P 1'
_symmetry_space_group_name_H-M	'P 1'

loop_
_symmetry_equiv_pos_as_xyz
  x,y,z

loop_
_atom_site_label
_atom_site_type_symbol
_atom_site_fract_x
_atom_site_fract_y
_atom_site_fract_z
_atom_site_charge
Cu	Cu	0.09222 0.34004 0.48494 0.78700
N 	N 	0.13580 0.33980 0.38200 -0.21100
N 	N 	0.03770 0.40190 0.48940 -0.21100
C 	C 	0.09970 0.33260 0.31890 0.04000
C 	C 	0.02640 0.33300 0.32080 -0.04000
H 	H 	0.03650 0.38410 0.32440 0.03600
H 	H 	0.99800 0.30600 0.36380 -0.03400
C 	C 	0.07380 0.47620 0.47750 0.11300
C 	C 	0.15400 0.51480 0.45100 -0.28000
H 	H 	0.15460 0.50930 0.39800 0.09900
H 	H 	0.17940 0.49090 0.47300 0.07800
Cu	Cu	0.65996 0.75218 0.48494 0.78500
N 	N 	0.66020 0.79600 0.38200 -0.22300
N 	N 	0.59810 0.63580 0.48940 -0.22200
C 	C 	0.66740 0.76710 0.31890 0.08600
C 	C 	0.66700 0.69340 0.32080 -0.21600
H 	H 	0.61590 0.65240 0.32440 0.08300
H 	H 	0.69400 0.69200 0.36380 0.03600
C 	C 	0.52380 0.59760 0.47750 0.12000
C 	C 	0.48520 0.63920 0.45100 -0.28800
H 	H 	0.49070 0.64530 0.39800 0.09900
H 	H 	0.50910 0.68850 0.47300 0.08000
Cu	Cu	0.24782 0.90778 0.48494 0.77900
N 	N 	0.20400 0.86420 0.38200 -0.24400
N 	N 	0.36420 0.96230 0.48940 -0.23600
C 	C 	0.23290 0.90030 0.31890 0.17400
C 	C 	0.30660 0.97360 0.32080 -0.44700
H 	H 	0.34760 0.96350 0.32440 0.14500
H 	H 	0.30800 0.00200 0.36380 0.12300
C 	C 	0.40240 0.92620 0.47750 0.12800
C 	C 	0.36080 0.84600 0.45100 -0.29800
H 	H 	0.35470 0.84540 0.39800 0.09900
H 	H 	0.31150 0.82060 0.47300 0.08300
Cu	Cu	0.90778 0.65996 0.98494 0.75700
N 	N 	0.86420 0.66020 0.88200 -0.24400
N 	N 	0.96230 0.59810 0.98940 -0.25300
C 	C 	0.90030 0.66740 0.81890 0.14700
C 	C 	0.97360 0.66700 0.82080 -0.39300
H 	H 	0.96350 0.61590 0.82440 0.12900
H 	H 	0.00200 0.69400 0.86380 0.09600
C 	C 	0.92620 0.52380 0.97750 0.08200
C 	C 	0.84600 0.48520 0.95100 -0.15700
H 	H 	0.84540 0.49070 0.89800 0.05900
H 	H 	0.82060 0.50910 0.97300 0.02600
Cu	Cu	0.34004 0.24782 0.98494 0.76000
N 	N 	0.33980 0.20400 0.88200 -0.23300
N 	N 	0.40190 0.36420 0.98940 -0.24200
C 	C 	0.33260 0.23290 0.81890 0.10400
C 	C 	0.33300 0.30660 0.82080 -0.22500
H 	H 	0.38410 0.34760 0.82440 0.08500
H 	H 	0.30600 0.30800 0.86380 0.03000
C 	C 	0.47620 0.40240 0.97750 0.07400
C 	C 	0.51480 0.36080 0.95100 -0.14800
H 	H 	0.50930 0.35470 0.89800 0.05900
H 	H 	0.49090 0.31150 0.97300 0.02300
Cu	Cu	0.75218 0.09222 0.98494 0.76100
N 	N 	0.79600 0.13580 0.88200 -0.21500
N 	N 	0.63580 0.03770 0.98940 -0.22900
C 	C 	0.76710 0.09970 0.81890 0.02400
C 	C 	0.69340 0.02640 0.82080 -0.02200
H 	H 	0.65240 0.03650 0.82440 0.03000
H 	H 	0.69200 0.99800 0.86380 -0.04800
C 	C 	0.59760 0.07380 0.97750 0.06500
C 	C 	0.63920 0.15400 0.95100 -0.13600
H 	H 	0.64530 0.15460 0.89800 0.05800
H 	H 	0.68850 0.17940 0.97300 0.02000
Cu	Cu	0.34004 0.09222 0.51506 0.78600
N 	N 	0.33980 0.13580 0.61800 -0.21200
N 	N 	0.40190 0.03770 0.51060 -0.20900
C 	C 	0.33260 0.09970 0.68110 0.03700
C 	C 	0.33300 0.02640 0.67920 -0.02900
H 	H 	0.38410 0.03650 0.67560 0.03300
H 	H 	0.30600 0.99800 0.63620 -0.03900
C 	C 	0.47620 0.07380 0.52250 0.11300
C 	C 	0.51480 0.15400 0.54900 -0.28000
H 	H 	0.50930 0.15460 0.60200 0.10000
H 	H 	0.49090 0.17940 0.52700 0.07800
Cu	Cu	0.75218 0.65996 0.51506 0.78500
N 	N 	0.79600 0.66020 0.61800 -0.22300
N 	N 	0.63580 0.59810 0.51060 -0.22200
C 	C 	0.76710 0.66740 0.68110 0.08600
C 	C 	0.69340 0.66700 0.67920 -0.21200
H 	H 	0.65240 0.61590 0.67560 0.08200
H 	H 	0.69200 0.69400 0.63620 0.03500
C 	C 	0.59760 0.52380 0.52250 0.12100
C 	C 	0.63920 0.48520 0.54900 -0.28900
H 	H 	0.64530 0.49070 0.60200 0.10000
H 	H 	0.68850 0.50910 0.52700 0.08000
Cu	Cu	0.90778 0.24782 0.51506 0.77900
N 	N 	0.86420 0.20400 0.61800 -0.24200
N 	N 	0.96230 0.36420 0.51060 -0.23500
C 	C 	0.90030 0.23290 0.68110 0.16200
C 	C 	0.97360 0.30660 0.67920 -0.41000
H 	H 	0.96350 0.34760 0.67560 0.13500
H 	H 	0.00200 0.30800 0.63620 0.10900
C 	C 	0.92620 0.40240 0.52250 0.12800
C 	C 	0.84600 0.36080 0.54900 -0.29800
H 	H 	0.84540 0.35470 0.60200 0.10000
H 	H 	0.82060 0.31150 0.52700 0.08300
Cu	Cu	0.65996 0.90778 0.01506 0.79200
N 	N 	0.66020 0.86420 0.11800 -0.24100
N 	N 	0.59810 0.96230 0.01060 -0.21800
C 	C 	0.66740 0.90030 0.18110 0.16200
C 	C 	0.66700 0.97360 0.17920 -0.43700
H 	H 	0.61590 0.96350 0.17560 0.14300
H 	H 	0.69400 0.00200 0.13620 0.12300
C 	C 	0.52380 0.92620 0.02250 0.17300
C 	C 	0.48520 0.84600 0.04900 -0.43300
H 	H 	0.49070 0.84540 0.10200 0.13900
H 	H 	0.50910 0.82060 0.02700 0.13700
Cu	Cu	0.24782 0.34004 0.01506 0.79800
N 	N 	0.20400 0.33980 0.11800 -0.22800
N 	N 	0.36420 0.40190 0.01060 -0.20300
C 	C 	0.23290 0.33260 0.18110 0.10900
C 	C 	0.30660 0.33300 0.17920 -0.23700
H 	H 	0.34760 0.38410 0.17560 0.09000
H 	H 	0.30800 0.30600 0.13620 0.04600
C 	C 	0.40240 0.47620 0.02250 0.16700
C 	C 	0.36080 0.51480 0.04900 -0.42800
H 	H 	0.35470 0.50930 0.10200 0.14100
H 	H 	0.31150 0.49090 0.02700 0.13700
Cu	Cu	0.09222 0.75218 0.01506 0.79900
N 	N 	0.13580 0.79600 0.11800 -0.21000
N 	N 	0.03770 0.63580 0.01060 -0.19300
C 	C 	0.09970 0.76710 0.18110 0.02900
C 	C 	0.02640 0.69340 0.17920 -0.03800
H 	H 	0.03650 0.65240 0.17560 0.03600
H 	H 	0.99800 0.69200 0.13620 -0.03100
C 	C 	0.07380 0.59760 0.02250 0.16000
C 	C 	0.15400 0.63920 0.04900 -0.41900
H 	H 	0.15460 0.64530 0.10200 0.14000
H 	H 	0.17940 0.68850 0.02700 0.13400
Cu	Cu	0.90778 0.65996 0.51506 0.78000
N 	N 	0.86420 0.66020 0.61800 -0.23900
N 	N 	0.96230 0.59810 0.51060 -0.23400
C 	C 	0.90030 0.66740 0.68110 0.15000
C 	C 	0.97360 0.66700 0.67920 -0.39800
H 	H 	0.96350 0.61590 0.67560 0.13200
H 	H 	0.00200 0.69400 0.63620 0.10500
C 	C 	0.92620 0.52380 0.52250 0.12800
C 	C 	0.84600 0.48520 0.54900 -0.29800
H 	H 	0.84540 0.49070 0.60200 0.10000
H 	H 	0.82060 0.50910 0.52700 0.08300
Cu	Cu	0.34004 0.24782 0.51506 0.78400
N 	N 	0.33980 0.20400 0.61800 -0.22800
N 	N 	0.40190 0.36420 0.51060 -0.22200
C 	C 	0.33260 0.23290 0.68110 0.10800
C 	C 	0.33300 0.30660 0.67920 -0.23000
H 	H 	0.38410 0.34760 0.67560 0.08700
H 	H 	0.30600 0.30800 0.63620 0.04000
C 	C 	0.47620 0.40240 0.52250 0.12100
C 	C 	0.51480 0.36080 0.54900 -0.28900
H 	H 	0.50930 0.35470 0.60200 0.10000
H 	H 	0.49090 0.31150 0.52700 0.08000
Cu	Cu	0.75218 0.09222 0.51506 0.78600
N 	N 	0.79600 0.13580 0.61800 -0.21000
N 	N 	0.63580 0.03770 0.51060 -0.20900
C 	C 	0.76710 0.09970 0.68110 0.02700
C 	C 	0.69340 0.02640 0.67920 -0.02300
H 	H 	0.65240 0.03650 0.67560 0.03200
H 	H 	0.69200 0.99800 0.63620 -0.04000
C 	C 	0.59760 0.07380 0.52250 0.11300
C 	C 	0.63920 0.15400 0.54900 -0.28000
H 	H 	0.64530 0.15460 0.60200 0.10000
H 	H 	0.68850 0.17940 0.52700 0.07800
Cu	Cu	0.09222 0.34004 0.01506 0.80000
N 	N 	0.13580 0.33980 0.11800 -0.21200
N 	N 	0.03770 0.40190 0.01060 -0.19200
C 	C 	0.09970 0.33260 0.18110 0.04000
C 	C 	0.02640 0.33300 0.17920 -0.04200
H 	H 	0.03650 0.38410 0.17560 0.03700
H 	H 	0.99800 0.30600 0.13620 -0.03000
C 	C 	0.07380 0.47620 0.02250 0.16000
C 	C 	0.15400 0.51480 0.04900 -0.41900
H 	H 	0.15460 0.50930 0.10200 0.14000
H 	H 	0.17940 0.49090 0.02700 0.13400
Cu	Cu	0.65996 0.75218 0.01506 0.79800
N 	N 	0.66020 0.79600 0.11800 -0.22300
N 	N 	0.59810 0.63580 0.01060 -0.20400
C 	C 	0.66740 0.76710 0.18110 0.08500
C 	C 	0.66700 0.69340 0.17920 -0.21700
H 	H 	0.61590 0.65240 0.17560 0.08400
H 	H 	0.69400 0.69200 0.13620 0.04000
C 	C 	0.52380 0.59760 0.02250 0.16700
C 	C 	0.48520 0.63920 0.04900 -0.42800
H 	H 	0.49070 0.64530 0.10200 0.14100
H 	H 	0.50910 0.68850 0.02700 0.13600
Cu	Cu	0.24782 0.90778 0.01506 0.79200
N 	N 	0.20400 0.86420 0.11800 -0.24400
N 	N 	0.36420 0.96230 0.01060 -0.21800
C 	C 	0.23290 0.90030 0.18110 0.17400
C 	C 	0.30660 0.97360 0.17920 -0.45200
H 	H 	0.34760 0.96350 0.17560 0.14700
H 	H 	0.30800 0.00200 0.13620 0.12800
C 	C 	0.40240 0.92620 0.02250 0.17300
C 	C 	0.36080 0.84600 0.04900 -0.43300
H 	H 	0.35470 0.84540 0.10200 0.13900
H 	H 	0.31150 0.82060 0.02700 0.13700
Cu	Cu	0.65996 0.90778 0.48494 0.77900
N 	N 	0.66020 0.86420 0.38200 -0.24100
N 	N 	0.59810 0.96230 0.48940 -0.23600
C 	C 	0.66740 0.90030 0.31890 0.16100
C 	C 	0.66700 0.97360 0.32080 -0.43300
H 	H 	0.61590 0.96350 0.32440 0.14100
H 	H 	0.69400 0.00200 0.36380 0.11800
C 	C 	0.52380 0.92620 0.47750 0.12800
C 	C 	0.48520 0.84600 0.45100 -0.29800
H 	H 	0.49070 0.84540 0.39800 0.09900
H 	H 	0.50910 0.82060 0.47300 0.08200
Cu	Cu	0.24782 0.34004 0.48494 0.78400
N 	N 	0.20400 0.33980 0.38200 -0.22800
N 	N 	0.36420 0.40190 0.48940 -0.22200
C 	C 	0.23290 0.33260 0.31890 0.10900
C 	C 	0.30660 0.33300 0.32080 -0.23500
H 	H 	0.34760 0.38410 0.32440 0.08900
H 	H 	0.30800 0.30600 0.36380 0.04200
C 	C 	0.40240 0.47620 0.47750 0.12000
C 	C 	0.36080 0.51480 0.45100 -0.28900
H 	H 	0.35470 0.50930 0.39800 0.09900
H 	H 	0.31150 0.49090 0.47300 0.08000
Cu	Cu	0.09222 0.75218 0.48494 0.78600
N 	N 	0.13580 0.79600 0.38200 -0.21000
N 	N 	0.03770 0.63580 0.48940 -0.21100
C 	C 	0.09970 0.76710 0.31890 0.02900
C 	C 	0.02640 0.69340 0.32080 -0.03600
H 	H 	0.03650 0.65240 0.32440 0.03500
H 	H 	0.99800 0.69200 0.36380 -0.03500
C 	C 	0.07380 0.59760 0.47750 0.11300
C 	C 	0.15400 0.63920 0.45100 -0.28000
H 	H 	0.15460 0.64530 0.39800 0.09900
H 	H 	0.17940 0.68850 0.47300 0.07800
Cu	Cu	0.34004 0.09222 0.98494 0.76100
N 	N 	0.33980 0.13580 0.88200 -0.21700
N 	N 	0.40190 0.03770 0.98940 -0.22900
C 	C 	0.33260 0.09970 0.81890 0.03300
C 	C 	0.33300 0.02640 0.82080 -0.02700
H 	H 	0.38410 0.03650 0.82440 0.03200
H 	H 	0.30600 0.99800 0.86380 -0.04600
C 	C 	0.47620 0.07380 0.97750 0.06500
C 	C 	0.51480 0.15400 0.95100 -0.13600
H 	H 	0.50930 0.15460 0.89800 0.05800
H 	H 	0.49090 0.17940 0.97300 0.02000
Cu	Cu	0.75218 0.65996 0.98494 0.76200
N 	N 	0.79600 0.66020 0.88200 -0.22800
N 	N 	0.63580 0.59810 0.98940 -0.24100
C 	C 	0.76710 0.66740 0.81890 0.08200
C 	C 	0.69340 0.66700 0.82080 -0.20800
H 	H 	0.65240 0.61590 0.82440 0.08000
H 	H 	0.69200 0.69400 0.86380 0.02500
C 	C 	0.59760 0.52380 0.97750 0.07500
C 	C 	0.63920 0.48520 0.95100 -0.14800
H 	H 	0.64530 0.49070 0.89800 0.05900
H 	H 	0.68850 0.50910 0.97300 0.02400
Cu	Cu	0.90778 0.24782 0.98494 0.75600
N 	N 	0.86420 0.20400 0.88200 -0.24700
N 	N 	0.96230 0.36420 0.98940 -0.25400
C 	C 	0.90030 0.23290 0.81890 0.15800
C 	C 	0.97360 0.30660 0.82080 -0.40400
H 	H 	0.96350 0.34760 0.82440 0.13300
H 	H 	0.00200 0.30800 0.86380 0.09900
C 	C 	0.92620 0.40240 0.97750 0.08100
C 	C 	0.84600 0.36080 0.95100 -0.15700
H 	H 	0.84540 0.35470 0.89800 0.05900
H 	H 	0.82060 0.31150 0.97300 0.02600
Cu	Cu	0.87657 0.12343 0.42372 0.80300
I 	I 	0.80511 0.19489 0.40782 -0.61700
N 	N 	0.90240 0.09760 0.32210 -0.23400
Cu	Cu	0.87657 0.75314 0.42372 0.80200
I 	I 	0.80511 0.61022 0.40782 -0.61900
N 	N 	0.90240 0.80480 0.32210 -0.23700
Cu	Cu	0.24686 0.12343 0.42372 0.80700
I 	I 	0.38978 0.19489 0.40782 -0.61400
N 	N 	0.19520 0.09760 0.32210 -0.22900
Cu	Cu	0.12343 0.87657 0.92372 0.77900
I 	I 	0.19489 0.80511 0.90782 -0.67400
N 	N 	0.09760 0.90240 0.82210 -0.24300
Cu	Cu	0.12343 0.24686 0.92372 0.78200
I 	I 	0.19489 0.38978 0.90782 -0.67400
N 	N 	0.09760 0.19520 0.82210 -0.23900
Cu	Cu	0.75314 0.87657 0.92372 0.77900
I 	I 	0.61022 0.80511 0.90782 -0.67600
N 	N 	0.80480 0.90240 0.82210 -0.24600
Cu	Cu	0.12343 0.87657 0.57628 0.80200
I 	I 	0.19489 0.80511 0.59218 -0.61900
N 	N 	0.09760 0.90240 0.67790 -0.23500
Cu	Cu	0.75314 0.87657 0.57628 0.80200
I 	I 	0.61022 0.80511 0.59218 -0.62100
N 	N 	0.80480 0.90240 0.67790 -0.23800
Cu	Cu	0.12343 0.24686 0.57628 0.80700
I 	I 	0.19489 0.38978 0.59218 -0.61600
N 	N 	0.09760 0.19520 0.67790 -0.23000
Cu	Cu	0.87657 0.12343 0.07628 0.80500
I 	I 	0.80511 0.19489 0.09218 -0.56500
N 	N 	0.90240 0.09760 0.17790 -0.23500
Cu	Cu	0.24686 0.12343 0.07628 0.80900
I 	I 	0.38978 0.19489 0.09218 -0.56200
N 	N 	0.19520 0.09760 0.17790 -0.23000
Cu	Cu	0.87657 0.75314 0.07628 0.80500
I 	I 	0.80511 0.61022 0.09218 -0.56900
N 	N 	0.90240 0.80480 0.17790 -0.23800
I 	I 	-0.00000 0.19454 0.50000 -0.74000
I 	I 	0.80546 0.80546 0.50000 -0.78100
I 	I 	0.19454 0.00000 0.50000 -0.73800
I 	I 	-0.00000 0.80546 -0.00000 -0.70300
I 	I 	0.19454 0.19454 -0.00000 -0.70700
I 	I 	0.80546 0.00000 -0.00000 -0.69400
I 	I 	-0.00000 0.80546 0.50000 -0.75200
I 	I 	0.19454 0.19454 0.50000 -0.76100
I 	I 	0.80546 0.00000 0.50000 -0.74800
I 	I 	-0.00000 0.19454 -0.00000 -0.68700
I 	I 	0.80546 0.80546 -0.00000 -0.73000
I 	I 	0.19454 0.00000 -0.00000 -0.68400
C 	C 	0.13110 0.32920 0.25000 -0.00000
C 	C 	0.98020 0.29620 0.25000 -0.19100
H 	H 	0.93580 0.30090 0.25000 0.09200
H 	H 	0.96440 0.24350 0.25000 0.07600
C 	C 	0.67080 0.80190 0.25000 -0.02600
C 	C 	0.70380 0.68400 0.25000 0.00600
H 	H 	0.69910 0.63490 0.25000 0.03300
H 	H 	0.75650 0.72090 0.25000 0.02000
C 	C 	0.19810 0.86890 0.25000 -0.12400
C 	C 	0.31600 0.01980 0.25000 0.26200
H 	H 	0.36510 0.06420 0.25000 -0.04200
H 	H 	0.27910 0.03560 0.25000 -0.05300
C 	C 	0.86890 0.67080 0.75000 -0.09400
C 	C 	0.01980 0.70380 0.75000 0.20400
H 	H 	0.06420 0.69910 0.75000 -0.02700
H 	H 	0.03560 0.75650 0.75000 -0.03700
C 	C 	0.32920 0.19810 0.75000 -0.06900
C 	C 	0.29620 0.31600 0.75000 0.01600
H 	H 	0.30090 0.36510 0.75000 0.02900
H 	H 	0.24350 0.27910 0.75000 0.01700
C 	C 	0.80190 0.13110 0.75000 0.02100
C 	C 	0.68400 0.98020 0.75000 -0.21000
H 	H 	0.63490 0.93580 0.75000 0.09500
H 	H 	0.72090 0.96440 0.75000 0.07900
C 	C 	0.32920 0.13110 0.75000 0.00200
C 	C 	0.29620 0.98020 0.75000 -0.20500
H 	H 	0.30090 0.93580 0.75000 0.09400
H 	H 	0.24350 0.96440 0.75000 0.07900
C 	C 	0.80190 0.67080 0.75000 -0.02900
C 	C 	0.68400 0.70380 0.75000 -0.00100
H 	H 	0.63490 0.69910 0.75000 0.03400
H 	H 	0.72090 0.75650 0.75000 0.02100
C 	C 	0.86890 0.19810 0.75000 -0.11500
C 	C 	0.01980 0.31600 0.75000 0.21500
H 	H 	0.06420 0.36510 0.75000 -0.03000
H 	H 	0.03560 0.27910 0.75000 -0.04000
C 	C 	0.67080 0.86890 0.25000 -0.10300
C 	C 	0.70380 0.01980 0.25000 0.24700
H 	H 	0.69910 0.06420 0.25000 -0.03800
H 	H 	0.75650 0.03560 0.25000 -0.04900
C 	C 	0.19810 0.32920 0.25000 -0.06900
C 	C 	0.31600 0.29620 0.25000 0.02400
H 	H 	0.36510 0.30090 0.25000 0.02800
H 	H 	0.27910 0.24350 0.25000 0.01600
C 	C 	0.13110 0.80190 0.25000 0.02100
C 	C 	0.98020 0.68400 0.25000 -0.19400
H 	H 	0.93580 0.63490 0.25000 0.09200
H 	H 	0.96440 0.72090 0.25000 0.07600
C 	C 	0.03720 0.51860 0.48800 -0.02500
C 	C 	0.19570 0.59785 0.47070 0.09100
H 	H 	0.24350 0.62175 0.44560 -0.00800
H 	H 	0.20550 0.60275 0.52320 0.01000
C 	C 	0.48140 0.51860 0.48800 -0.05700
C 	C 	0.40215 0.59785 0.47070 0.09900
H 	H 	0.37825 0.62175 0.44560 -0.01100
H 	H 	0.39725 0.60275 0.52320 0.00700
C 	C 	0.48140 0.96280 0.48800 -0.09400
C 	C 	0.40215 0.80430 0.47070 0.10800
H 	H 	0.37825 0.75650 0.44560 -0.01400
H 	H 	0.39725 0.79450 0.52320 0.00400
C 	C 	0.96280 0.48140 0.98800 -0.11500
C 	C 	0.80430 0.40215 0.97070 -0.14100
H 	H 	0.75650 0.37825 0.94560 0.05300
H 	H 	0.79450 0.39725 0.02320 0.12200
C 	C 	0.51860 0.48140 0.98800 -0.08400
C 	C 	0.59785 0.40215 0.97070 -0.15000
H 	H 	0.62175 0.37825 0.94560 0.05600
H 	H 	0.60275 0.39725 0.02320 0.12600
C 	C 	0.51860 0.03720 0.98800 -0.04700
C 	C 	0.59785 0.19570 0.97070 -0.16400
H 	H 	0.62175 0.24350 0.94560 0.06000
H 	H 	0.60275 0.20550 0.02320 0.13100
C 	C 	0.51860 0.03720 0.51200 -0.02100
C 	C 	0.59785 0.19570 0.52930 0.09000
H 	H 	0.62175 0.24350 0.55440 -0.00800
H 	H 	0.60275 0.20550 0.47680 0.01100
C 	C 	0.51860 0.48140 0.51200 -0.05700
C 	C 	0.59785 0.40215 0.52930 0.10000
H 	H 	0.62175 0.37825 0.55440 -0.01100
H 	H 	0.60275 0.39725 0.47680 0.00800
C 	C 	0.96280 0.48140 0.51200 -0.09000
C 	C 	0.80430 0.40215 0.52930 0.10800
H 	H 	0.75650 0.37825 0.55440 -0.01300
H 	H 	0.79450 0.39725 0.47680 0.00500
C 	C 	0.48140 0.96280 0.01200 -0.06700
C 	C 	0.40215 0.80430 0.02930 0.34800
H 	H 	0.37825 0.75650 0.05440 -0.07700
H 	H 	0.39725 0.79450 0.97680 -0.10800
C 	C 	0.48140 0.51860 0.01200 -0.03000
C 	C 	0.40215 0.59785 0.02930 0.34600
H 	H 	0.37825 0.62175 0.05440 -0.07700
H 	H 	0.39725 0.60275 0.97680 -0.10900
C 	C 	0.03720 0.51860 0.01200 0.00000
C 	C 	0.19570 0.59785 0.02930 0.33700
H 	H 	0.24350 0.62175 0.05440 -0.07400
H 	H 	0.20550 0.60275 0.97680 -0.10500
C 	C 	0.90960 0.09040 0.25000 0.12200
C 	C 	0.90960 0.81920 0.25000 0.10900
C 	C 	0.18080 0.09040 0.25000 0.13400
C 	C 	0.09040 0.90960 0.75000 0.11600
C 	C 	0.09040 0.18080 0.75000 0.12800
C 	C 	0.81920 0.90960 0.75000 0.10500
