data_crystal

_cell_length_a 13.05330
_cell_length_b 13.14710
_cell_length_c 14.05370
_cell_angle_alpha 90.00000
_cell_angle_beta  104.08800
_cell_angle_gamma 90.00000

_symmetry_space_group_name_	'P 1'
_symmetry_space_group_name_H-M	'P 1'

loop_
_symmetry_equiv_pos_as_xyz
  x,y,z

loop_
_atom_site_label
_atom_site_type_symbol
_atom_site_fract_x
_atom_site_fract_y
_atom_site_fract_z
_atom_site_charge
Eu	Eu	0.59068 0.05284 0.91193 2.08500
Cl	Cl	0.80191 0.13799 0.92281 -0.39000
O 	O 	0.46320 0.93010 0.83320 -0.48100
O 	O 	0.34990 0.88760 0.92450 -0.47200
O 	O 	0.20330 0.59280 0.47280 -0.42200
O 	O 	0.06880 0.58600 0.54180 -0.57200
C 	C 	0.32140 0.82050 0.76430 -0.08800
C 	C 	0.34430 0.82150 0.67280 -0.01000
H 	H 	0.39470 0.86610 0.66030 0.05600
C 	C 	0.29220 0.75640 0.60080 -0.00400
H 	H 	0.31020 0.75510 0.54070 0.06300
C 	C 	0.21310 0.69240 0.61620 -0.10200
C 	C 	0.18770 0.69390 0.70630 0.01600
H 	H 	0.13380 0.65250 0.71710 0.03400
C 	C 	0.24250 0.75720 0.78060 -0.02600
H 	H 	0.22620 0.75710 0.84140 0.07700
C 	C 	0.38430 0.88490 0.84750 0.45200
C 	C 	0.15980 0.62030 0.53940 0.40200
O 	O 	0.55730 0.24750 0.91370 -0.38200
O 	O 	0.70980 0.32930 0.97560 -0.23100
C 	C 	0.55220 0.41590 0.97670 -0.05900
C 	C 	0.60910 0.49180 0.03790 -0.01500
H 	H 	0.68160 0.48570 0.06330 0.05600
C 	C 	0.44420 0.42490 0.94070 -0.01700
H 	H 	0.40720 0.37370 0.90120 0.05800
C 	C 	0.60680 0.32140 0.95180 0.34400
O 	O 	0.64150 0.98660 0.76070 -0.34800
O 	O 	0.52720 0.11130 0.74440 -0.40700
C 	C 	0.53510 0.02030 0.59960 -0.03900
C 	C 	0.57950 0.94430 0.55830 -0.02500
H 	H 	0.63340 0.90560 0.59710 0.08900
C 	C 	0.45490 0.07660 0.54210 -0.02200
H 	H 	0.42350 0.12860 0.56980 0.07900
C 	C 	0.57040 0.04170 0.70810 0.30000
Eu	Eu	0.90932 0.55284 0.58807 2.10400
Cl	Cl	0.69809 0.63799 0.57719 -0.38700
O 	O 	0.03680 0.43010 0.66680 -0.48800
O 	O 	0.15010 0.38760 0.57550 -0.48000
O 	O 	0.29670 0.09280 0.02720 -0.40900
O 	O 	0.43120 0.08600 0.95820 -0.56900
C 	C 	0.17860 0.32050 0.73570 -0.09300
C 	C 	0.15570 0.32150 0.82720 -0.00600
H 	H 	0.10530 0.36610 0.83970 0.05400
C 	C 	0.20780 0.25640 0.89920 -0.01000
H 	H 	0.18980 0.25510 0.95930 0.06300
C 	C 	0.28690 0.19240 0.88380 -0.09600
C 	C 	0.31230 0.19390 0.79370 0.01000
H 	H 	0.36620 0.15250 0.78290 0.03500
C 	C 	0.25750 0.25720 0.71940 -0.02100
H 	H 	0.27380 0.25710 0.65860 0.07400
C 	C 	0.11570 0.38490 0.65250 0.45500
C 	C 	0.34020 0.12030 0.96060 0.38900
O 	O 	0.94270 0.74750 0.58630 -0.38200
O 	O 	0.79020 0.82930 0.52440 -0.23000
C 	C 	0.94780 0.91590 0.52330 -0.05800
C 	C 	0.89090 0.99180 0.46210 -0.01700
H 	H 	0.81840 0.98570 0.43670 0.05600
C 	C 	0.05580 0.92490 0.55930 -0.01800
H 	H 	0.09280 0.87370 0.59880 0.05900
C 	C 	0.89320 0.82140 0.54820 0.34500
O 	O 	0.85850 0.48660 0.73930 -0.35700
O 	O 	0.97280 0.61130 0.75560 -0.40900
C 	C 	0.96490 0.52030 0.90040 -0.03800
C 	C 	0.92050 0.44430 0.94170 -0.02800
H 	H 	0.86660 0.40560 0.90290 0.08900
C 	C 	0.04510 0.57660 0.95790 -0.02100
H 	H 	0.07650 0.62860 0.93020 0.07900
C 	C 	0.92960 0.54170 0.79190 0.30700
Eu	Eu	0.40932 0.94716 0.08807 2.08400
Cl	Cl	0.19809 0.86201 0.07719 -0.39100
O 	O 	0.53680 0.06990 0.16680 -0.48100
O 	O 	0.65010 0.11240 0.07550 -0.47200
O 	O 	0.79670 0.40720 0.52720 -0.42200
O 	O 	0.93120 0.41400 0.45820 -0.57200
C 	C 	0.67860 0.17950 0.23570 -0.08800
C 	C 	0.65570 0.17850 0.32720 -0.01000
H 	H 	0.60530 0.13390 0.33970 0.05600
C 	C 	0.70780 0.24360 0.39920 -0.00400
H 	H 	0.68980 0.24490 0.45930 0.06300
C 	C 	0.78690 0.30760 0.38380 -0.10200
C 	C 	0.81230 0.30610 0.29370 0.01600
H 	H 	0.86620 0.34750 0.28290 0.03400
C 	C 	0.75750 0.24280 0.21940 -0.02600
H 	H 	0.77380 0.24290 0.15860 0.07700
C 	C 	0.61570 0.11510 0.15250 0.45200
C 	C 	0.84020 0.37970 0.46060 0.40200
O 	O 	0.44270 0.75250 0.08630 -0.38200
O 	O 	0.29020 0.67070 0.02440 -0.23100
C 	C 	0.44780 0.58410 0.02330 -0.05900
C 	C 	0.39090 0.50820 0.96210 -0.01500
H 	H 	0.31840 0.51430 0.93670 0.05600
C 	C 	0.55580 0.57510 0.05930 -0.01700
H 	H 	0.59280 0.62630 0.09880 0.05800
C 	C 	0.39320 0.67860 0.04820 0.34400
O 	O 	0.35850 0.01340 0.23930 -0.34800
O 	O 	0.47280 0.88870 0.25560 -0.40700
C 	C 	0.46490 0.97970 0.40040 -0.03900
C 	C 	0.42050 0.05570 0.44170 -0.02500
H 	H 	0.36660 0.09440 0.40290 0.08900
C 	C 	0.54510 0.92340 0.45790 -0.02200
H 	H 	0.57650 0.87140 0.43020 0.07900
C 	C 	0.42960 0.95830 0.29190 0.30000
Eu	Eu	0.09068 0.44716 0.41193 2.10400
Cl	Cl	0.30191 0.36201 0.42281 -0.38700
O 	O 	0.96320 0.56990 0.33320 -0.48800
O 	O 	0.84990 0.61240 0.42450 -0.48000
O 	O 	0.70330 0.90720 0.97280 -0.40900
O 	O 	0.56880 0.91400 0.04180 -0.56900
C 	C 	0.82140 0.67950 0.26430 -0.09300
C 	C 	0.84430 0.67850 0.17280 -0.00600
H 	H 	0.89470 0.63390 0.16030 0.05400
C 	C 	0.79220 0.74360 0.10080 -0.01000
H 	H 	0.81020 0.74490 0.04070 0.06300
C 	C 	0.71310 0.80760 0.11620 -0.09600
C 	C 	0.68770 0.80610 0.20630 0.01000
H 	H 	0.63380 0.84750 0.21710 0.03500
C 	C 	0.74250 0.74280 0.28060 -0.02100
H 	H 	0.72620 0.74290 0.34140 0.07400
C 	C 	0.88430 0.61510 0.34750 0.45500
C 	C 	0.65980 0.87970 0.03940 0.38900
O 	O 	0.05730 0.25250 0.41370 -0.38200
O 	O 	0.20980 0.17070 0.47560 -0.23000
C 	C 	0.05220 0.08410 0.47670 -0.05800
C 	C 	0.10910 0.00820 0.53790 -0.01700
H 	H 	0.18160 0.01430 0.56330 0.05600
C 	C 	0.94420 0.07510 0.44070 -0.01800
H 	H 	0.90720 0.12630 0.40120 0.05900
C 	C 	0.10680 0.17860 0.45180 0.34500
O 	O 	0.14150 0.51340 0.26070 -0.35700
O 	O 	0.02720 0.38870 0.24440 -0.40900
C 	C 	0.03510 0.47970 0.09960 -0.03800
C 	C 	0.07950 0.55570 0.05830 -0.02800
H 	H 	0.13340 0.59440 0.09710 0.08900
C 	C 	0.95490 0.42340 0.04210 -0.02100
H 	H 	0.92350 0.37140 0.06980 0.07900
C 	C 	0.07040 0.45830 0.20810 0.30700
