data_crystal

_cell_length_a 12.60080
_cell_length_b 14.03130
_cell_length_c 14.03130
_cell_angle_alpha 78.36820
_cell_angle_beta  63.31900
_cell_angle_gamma 63.31890

_symmetry_space_group_name_	'P 1'
_symmetry_space_group_name_H-M	'P 1'

loop_
_symmetry_equiv_pos_as_xyz
  x,y,z

loop_
_atom_site_label
_atom_site_type_symbol
_atom_site_fract_x
_atom_site_fract_y
_atom_site_fract_z
_atom_site_charge
Cu	Cu	0.17572 0.47638 0.99900 0.83500
Cu	Cu	0.65110 0.52362 0.00100 0.83900
Cu	Cu	0.42472 0.50100 0.97638 0.83100
Cu	Cu	0.90210 0.49900 0.02362 0.82500
Cu	Cu	0.65110 0.00100 0.52362 0.83900
Cu	Cu	0.17572 0.99900 0.47638 0.83500
Cu	Cu	0.90210 0.02362 0.49900 0.82500
Cu	Cu	0.42472 0.97638 0.50100 0.83100
H 	H 	0.72960 0.39200 0.23840 0.15800
H 	H 	0.79990 0.34620 0.12380 0.14000
H 	H 	0.35870 0.25090 0.07930 0.14800
H 	H 	0.29970 0.35680 0.13920 0.13600
H 	H 	0.36000 0.60800 0.76160 0.13300
H 	H 	0.26990 0.65380 0.87620 0.11500
H 	H 	0.68890 0.74910 0.92070 0.15700
H 	H 	0.79570 0.64320 0.86080 0.14300
H 	H 	0.21800 0.26160 0.89200 0.14500
H 	H 	0.17370 0.37620 0.84620 0.13000
H 	H 	0.68800 0.42070 0.75090 0.15300
H 	H 	0.68890 0.36080 0.85680 0.14200
H 	H 	0.37160 0.73840 0.10800 0.14100
H 	H 	0.39610 0.62380 0.15380 0.12300
H 	H 	0.85960 0.57930 0.24910 0.14300
H 	H 	0.90650 0.63920 0.14320 0.12600
H 	H 	0.36000 0.76160 0.60800 0.13200
H 	H 	0.26990 0.87620 0.65380 0.11500
H 	H 	0.68890 0.92070 0.74910 0.15700
H 	H 	0.79570 0.86080 0.64320 0.14300
H 	H 	0.72960 0.23840 0.39200 0.15700
H 	H 	0.79990 0.12380 0.34620 0.13900
H 	H 	0.35870 0.07930 0.25090 0.14700
H 	H 	0.29970 0.13920 0.35680 0.13500
H 	H 	0.37160 0.10800 0.73840 0.14100
H 	H 	0.39610 0.15380 0.62380 0.12300
H 	H 	0.85960 0.24910 0.57930 0.14300
H 	H 	0.90650 0.14320 0.63920 0.12600
H 	H 	0.21800 0.89200 0.26160 0.14500
H 	H 	0.17370 0.84620 0.37620 0.13000
H 	H 	0.68800 0.75090 0.42070 0.15300
H 	H 	0.68890 0.85680 0.36080 0.14200
H 	H 	0.68860 0.25010 0.25010 -0.03100
H 	H 	0.83260 0.18070 0.18070 -0.04400
H 	H 	0.42040 0.20610 0.20610 -0.02400
H 	H 	0.29420 0.28610 0.28610 -0.02500
H 	H 	0.18880 0.74990 0.74990 0.00300
H 	H 	0.19400 0.81930 0.81930 -0.00600
H 	H 	0.83260 0.79390 0.79390 -0.06100
H 	H 	0.86640 0.71390 0.71390 -0.06600
H 	H 	0.18870 0.24990 0.75010 0.00200
H 	H 	0.26330 0.31930 0.68070 -0.01200
H 	H 	0.87650 0.29390 0.70610 -0.05100
H 	H 	0.83030 0.21390 0.78610 -0.05300
H 	H 	0.18870 0.75010 0.24990 0.00200
H 	H 	0.26330 0.68070 0.31930 -0.01200
H 	H 	0.87650 0.70610 0.29390 -0.05100
H 	H 	0.83030 0.78610 0.21390 -0.05300
C 	C 	0.92660 0.31990 0.18430 0.20000
C 	C 	0.15990 0.30420 0.16240 0.13500
C 	C 	0.79950 0.33240 0.19380 -0.44700
C 	C 	0.29620 0.28880 0.14500 -0.40100
C 	C 	0.43080 0.68010 0.81570 0.15100
C 	C 	0.62650 0.69580 0.83760 0.16700
C 	C 	0.32570 0.66760 0.80620 -0.36400
C 	C 	0.73000 0.71120 0.85500 -0.46300
C 	C 	0.36090 0.31570 0.81990 0.16100
C 	C 	0.57230 0.33760 0.80420 0.16000
C 	C 	0.24330 0.30620 0.83240 -0.38700
C 	C 	0.69120 0.35500 0.78880 -0.44400
C 	C 	0.49650 0.68430 0.18010 0.16000
C 	C 	0.71410 0.66240 0.19580 0.15500
C 	C 	0.38190 0.69380 0.16760 -0.38300
C 	C 	0.83500 0.64500 0.21120 -0.43300
C 	C 	0.43080 0.81570 0.68010 0.15100
C 	C 	0.62650 0.83760 0.69580 0.16700
C 	C 	0.32570 0.80620 0.66760 -0.36400
C 	C 	0.73000 0.85500 0.71120 -0.46300
C 	C 	0.92660 0.18430 0.31990 0.20000
C 	C 	0.15990 0.16240 0.30420 0.13500
C 	C 	0.79950 0.19380 0.33240 -0.44700
C 	C 	0.29620 0.14500 0.28880 -0.40100
C 	C 	0.49650 0.18010 0.68430 0.16000
C 	C 	0.71410 0.19580 0.66240 0.15500
C 	C 	0.38190 0.16760 0.69380 -0.38300
C 	C 	0.83500 0.21120 0.64500 -0.43300
C 	C 	0.36090 0.81990 0.31570 0.16100
C 	C 	0.57230 0.80420 0.33760 0.16000
C 	C 	0.24330 0.83240 0.30620 -0.38700
C 	C 	0.69120 0.78880 0.35500 -0.44400
C 	C 	0.98650 0.24520 0.24520 -0.19100
C 	C 	0.10530 0.23630 0.23630 0.02200
C 	C 	0.77690 0.23490 0.23490 0.28000
C 	C 	0.32700 0.23400 0.23400 0.25500
C 	C 	0.47690 0.75480 0.75480 -0.07700
C 	C 	0.57790 0.76370 0.76370 -0.08500
C 	C 	0.24670 0.76510 0.76510 0.18500
C 	C 	0.79500 0.76600 0.76600 0.33400
C 	C 	0.48170 0.25480 0.74520 -0.08600
C 	C 	0.59160 0.26370 0.73630 -0.07500
C 	C 	0.26180 0.26510 0.73490 0.20700
C 	C 	0.81100 0.26600 0.73400 0.30300
C 	C 	0.48170 0.74520 0.25480 -0.08600
C 	C 	0.59160 0.73630 0.26370 -0.07500
C 	C 	0.26180 0.73490 0.26510 0.20700
C 	C 	0.81100 0.73400 0.26600 0.30300
Br	Br	0.03014 0.60239 0.91453 -0.51600
Br	Br	0.54706 0.39761 0.08547 -0.54900
Br	Br	0.19467 0.58547 0.10239 -0.52300
Br	Br	0.88253 0.41453 0.89761 -0.58900
Br	Br	0.54706 0.08547 0.39761 -0.54900
Br	Br	0.03014 0.91453 0.60239 -0.51600
Br	Br	0.88253 0.89761 0.41453 -0.58900
Br	Br	0.19467 0.10239 0.58547 -0.52300
N 	N 	0.10140 0.37320 0.10420 -0.19200
N 	N 	0.98270 0.38290 0.11510 -0.26100
N 	N 	0.57880 0.62680 0.89580 -0.23100
N 	N 	0.48070 0.61710 0.88490 -0.22600
N 	N 	0.45560 0.39580 0.87320 -0.22800
N 	N 	0.34780 0.38490 0.88290 -0.22700
N 	N 	0.72460 0.60420 0.12680 -0.22900
N 	N 	0.61560 0.61510 0.11710 -0.22600
N 	N 	0.57880 0.89580 0.62680 -0.23100
N 	N 	0.48070 0.88490 0.61710 -0.22600
N 	N 	0.10140 0.10420 0.37320 -0.19200
N 	N 	0.98270 0.11510 0.38290 -0.26100
N 	N 	0.72460 0.12680 0.60420 -0.22900
N 	N 	0.61560 0.11710 0.61510 -0.22600
N 	N 	0.45560 0.87320 0.39580 -0.22800
N 	N 	0.34780 0.88290 0.38490 -0.22700
