data_crystal

_cell_length_a 13.13600
_cell_length_b 14.08070
_cell_length_c 14.08070
_cell_angle_alpha 77.43300
_cell_angle_beta  62.19550
_cell_angle_gamma 62.19560

_symmetry_space_group_name_	'P 1'
_symmetry_space_group_name_H-M	'P 1'

loop_
_symmetry_equiv_pos_as_xyz
  x,y,z

loop_
_atom_site_label
_atom_site_type_symbol
_atom_site_fract_x
_atom_site_fract_y
_atom_site_fract_z
_atom_site_charge
Cu	Cu	0.38430 0.25000 0.73140 0.81200
Cu	Cu	0.86570 0.25000 0.76860 0.81500
Cu	Cu	0.61570 0.26860 0.75000 0.81300
Cu	Cu	0.13430 0.23140 0.75000 0.80200
Cu	Cu	0.61570 0.75000 0.26860 0.81300
Cu	Cu	0.13430 0.75000 0.23140 0.80200
Cu	Cu	0.38430 0.73140 0.25000 0.81300
Cu	Cu	0.86570 0.76860 0.25000 0.81600
H 	H 	0.35550 0.34200 0.49480 0.10900
H 	H 	0.25770 0.38280 0.61080 0.07100
H 	H 	0.69230 0.15800 0.00520 0.08000
H 	H 	0.75130 0.11720 0.88920 0.04800
H 	H 	0.35030 0.50520 0.84200 0.10600
H 	H 	0.36850 0.38920 0.88280 0.07300
H 	H 	0.19750 0.99480 0.65800 0.09900
H 	H 	0.14050 0.11080 0.61720 0.05800
H 	H 	0.30770 0.99480 0.84200 0.11600
H 	H 	0.24870 0.11080 0.88280 0.08100
H 	H 	0.64450 0.50520 0.65800 0.10400
H 	H 	0.74230 0.38920 0.61720 0.07000
H 	H 	0.80250 0.34200 0.00520 0.10700
H 	H 	0.85950 0.38280 0.88920 0.07600
H 	H 	0.64970 0.15800 0.49480 0.10500
H 	H 	0.63150 0.11720 0.61080 0.06900
H 	H 	0.64450 0.65800 0.50520 0.10400
H 	H 	0.74230 0.61720 0.38920 0.07000
H 	H 	0.30770 0.84200 0.99480 0.11600
H 	H 	0.24870 0.88280 0.11080 0.08100
H 	H 	0.64970 0.49480 0.15800 0.10500
H 	H 	0.63150 0.61080 0.11720 0.06900
H 	H 	0.80250 0.00520 0.34200 0.10700
H 	H 	0.85950 0.88920 0.38280 0.07600
H 	H 	0.69230 0.00520 0.15800 0.08000
H 	H 	0.75130 0.88920 0.11720 0.04800
H 	H 	0.35550 0.49480 0.34200 0.10900
H 	H 	0.25770 0.61080 0.38280 0.07100
H 	H 	0.19750 0.65800 0.99480 0.09900
H 	H 	0.14050 0.61720 0.11080 0.05800
H 	H 	0.35030 0.84200 0.50520 0.10600
H 	H 	0.36850 0.88280 0.38920 0.07300
H 	H 	0.18430 0.48130 0.48130 -0.00400
H 	H 	0.18430 0.55180 0.55180 -0.00400
H 	H 	0.64690 0.01870 0.01870 0.04500
H 	H 	0.78790 0.94820 0.94820 0.04700
H 	H 	0.16560 0.51870 0.98130 0.00500
H 	H 	0.23610 0.44820 0.05180 0.00400
H 	H 	0.16560 0.98130 0.51870 0.00500
H 	H 	0.23610 0.05180 0.44820 0.00400
H 	H 	0.35310 0.98130 0.98130 0.00300
H 	H 	0.21210 0.05180 0.05180 -0.00600
H 	H 	0.81570 0.51870 0.51870 0.02100
H 	H 	0.81570 0.44820 0.44820 0.01900
H 	H 	0.83440 0.48130 0.01870 0.02900
H 	H 	0.76390 0.55180 0.94820 0.02200
H 	H 	0.83440 0.01870 0.48130 0.02900
H 	H 	0.76390 0.94820 0.55180 0.02200
C 	C 	0.41120 0.41560 0.55800 0.12500
C 	C 	0.31310 0.40080 0.54320 -0.30100
C 	C 	0.88480 0.08440 0.94200 0.08900
C 	C 	0.75710 0.09920 0.95680 -0.20400
C 	C 	0.46920 0.44200 0.91560 0.12000
C 	C 	0.35630 0.45680 0.90080 -0.29000
C 	C 	0.32680 0.05800 0.58440 0.11500
C 	C 	0.21390 0.04320 0.59920 -0.28100
C 	C 	0.11520 0.05800 0.91560 0.14500
C 	C 	0.24290 0.04320 0.90080 -0.31900
C 	C 	0.58880 0.44200 0.58440 0.11800
C 	C 	0.68690 0.45680 0.59920 -0.27900
C 	C 	0.67320 0.41560 0.94200 0.12100
C 	C 	0.78610 0.40080 0.95680 -0.27400
C 	C 	0.53080 0.08440 0.55800 0.11800
C 	C 	0.64370 0.09920 0.54320 -0.27600
C 	C 	0.58880 0.58440 0.44200 0.11800
C 	C 	0.68690 0.59920 0.45680 -0.27900
C 	C 	0.11520 0.91560 0.05800 0.14500
C 	C 	0.24290 0.90080 0.04320 -0.31900
C 	C 	0.53080 0.55800 0.08440 0.11800
C 	C 	0.64370 0.54320 0.09920 -0.27600
C 	C 	0.67320 0.94200 0.41560 0.12100
C 	C 	0.78610 0.95680 0.40080 -0.27400
C 	C 	0.88480 0.94200 0.08440 0.08900
C 	C 	0.75710 0.95680 0.09920 -0.20400
C 	C 	0.41120 0.55800 0.41560 0.12500
C 	C 	0.31310 0.54320 0.40080 -0.30100
C 	C 	0.32680 0.58440 0.05800 0.11500
C 	C 	0.21390 0.59920 0.04320 -0.28100
C 	C 	0.46920 0.91560 0.44200 0.12000
C 	C 	0.35630 0.90080 0.45680 -0.29000
C 	C 	0.45590 0.49270 0.49270 -0.06200
C 	C 	0.23820 0.49730 0.49730 0.12000
C 	C 	0.94130 0.00730 0.00730 0.01300
C 	C 	0.73280 0.00270 0.00270 -0.00300
C 	C 	0.44860 0.50730 0.99270 -0.05500
C 	C 	0.23550 0.50270 0.99730 0.10300
C 	C 	0.44860 0.99270 0.50730 -0.05500
C 	C 	0.23550 0.99730 0.50270 0.10300
C 	C 	0.05870 0.99270 0.99270 -0.13100
C 	C 	0.26720 0.99730 0.99730 0.13500
C 	C 	0.54410 0.50730 0.50730 -0.05500
C 	C 	0.76180 0.50270 0.50270 0.08800
C 	C 	0.55140 0.49270 0.00730 -0.06000
C 	C 	0.76450 0.49730 0.00270 0.07800
C 	C 	0.55140 0.00730 0.49270 -0.06000
C 	C 	0.76450 0.00270 0.49730 0.07800
I 	I 	0.50000 0.14406 0.85594 -0.46000
I 	I 	1.00000 0.35594 0.64406 -0.41600
I 	I 	0.85594 0.14406 0.64406 -0.43700
I 	I 	0.14406 0.35594 0.85594 -0.49100
I 	I 	0.50000 0.85594 0.14406 -0.46000
I 	I 	1.00000 0.64406 0.35594 -0.41600
I 	I 	0.14406 0.85594 0.35594 -0.49100
I 	I 	0.85594 0.64406 0.14406 -0.43700
N 	N 	0.45420 0.35750 0.62910 -0.22300
N 	N 	0.94080 0.14250 0.87090 -0.19600
N 	N 	0.58330 0.37090 0.85750 -0.22200
N 	N 	0.31170 0.12910 0.64250 -0.22300
N 	N 	0.05920 0.12910 0.85750 -0.24700
N 	N 	0.54580 0.37090 0.64250 -0.22200
N 	N 	0.68830 0.35750 0.87090 -0.22200
N 	N 	0.41670 0.14250 0.62910 -0.22200
N 	N 	0.54580 0.64250 0.37090 -0.22200
N 	N 	0.05920 0.85750 0.12910 -0.24700
N 	N 	0.41670 0.62910 0.14250 -0.22200
N 	N 	0.68830 0.87090 0.35750 -0.22200
N 	N 	0.94080 0.87090 0.14250 -0.19600
N 	N 	0.45420 0.62910 0.35750 -0.22300
N 	N 	0.31170 0.64250 0.12910 -0.22300
N 	N 	0.58330 0.85750 0.37090 -0.22200
