data_crystal

_cell_length_a 12.03170
_cell_length_b 19.51500
_cell_length_c 17.28340
_cell_angle_alpha 90.00000
_cell_angle_beta  122.33200
_cell_angle_gamma 90.00000

_symmetry_space_group_name_	'P 1'
_symmetry_space_group_name_H-M	'P 1'

loop_
_symmetry_equiv_pos_as_xyz
  x,y,z

loop_
_atom_site_label
_atom_site_type_symbol
_atom_site_fract_x
_atom_site_fract_y
_atom_site_fract_z
_atom_site_charge
Eu	Eu	0.73544 0.73014 0.55654 2.20400
Eu	Eu	0.68554 0.76747 0.76588 2.18200
Cl	Cl	0.76445 0.80849 0.42863 -0.63500
O 	O 	0.44590 0.31177 0.57450 -0.56100
O 	O 	0.45710 0.32708 0.70510 -0.53200
O 	O 	0.71210 0.65130 0.74390 -0.51400
O 	O 	0.74880 0.62847 0.63380 -0.52300
O 	O 	0.96250 0.75100 0.16990 -0.48300
O 	O 	0.86240 0.73581 0.24340 -0.58600
O 	O 	0.45790 0.72680 0.65700 -0.44800
O 	O 	0.56790 0.73933 0.59030 -0.60600
O 	O 	0.83560 0.65258 0.51030 -0.54600
O 	O 	0.82430 0.65444 0.37830 -0.54600
O 	O 	0.64250 0.86825 0.67570 -0.50300
O 	O 	0.69990 0.84567 0.57530 -0.52200
C 	C 	0.53610 0.41520 0.65400 -0.14300
C 	C 	0.53420 0.46340 0.71220 0.01400
H 	H 	0.49490 0.45290 0.74460 0.03700
C 	C 	0.59020 0.52710 0.72170 -0.01400
H 	H 	0.58900 0.55930 0.76100 0.05300
C 	C 	0.64860 0.54340 0.67350 -0.11000
C 	C 	0.64930 0.49560 0.61530 -0.01700
H 	H 	0.68790 0.50640 0.58240 0.04700
C 	C 	0.59340 0.43170 0.60500 0.01600
H 	H 	0.59430 0.39980 0.56540 0.03200
C 	C 	0.47410 0.34660 0.64380 0.51300
C 	C 	0.70760 0.61300 0.68420 0.47900
C 	C 	0.09530 0.73270 0.32990 -0.10600
C 	C 	0.10680 0.69830 0.40350 -0.00500
H 	H 	0.03370 0.67690 0.39780 0.04000
C 	C 	0.22640 0.69550 0.48560 -0.00800
H 	H 	0.23350 0.67220 0.53500 0.04700
C 	C 	0.33540 0.72740 0.49460 -0.11300
C 	C 	0.32500 0.76000 0.42040 0.01700
H 	H 	0.39870 0.78040 0.42580 0.02200
C 	C 	0.20590 0.76270 0.33850 -0.02000
H 	H 	0.19960 0.78460 0.28850 0.05400
C 	C 	0.96550 0.74010 0.24210 0.44600
C 	C 	0.46090 0.73020 0.58640 0.42300
C 	C 	0.93150 0.56160 0.47730 -0.13900
C 	C 	0.94980 0.52860 0.41520 0.00300
H 	H 	0.91600 0.54760 0.35740 0.04000
C 	C 	0.98230 0.53270 0.56300 -0.00100
H 	H 	0.97080 0.55460 0.60610 0.04400
C 	C 	0.85770 0.62790 0.45350 0.52200
C 	C 	0.57160 0.94360 0.55130 -0.11300
C 	C 	0.52920 0.94760 0.46000 -0.00300
H 	H 	0.54930 0.91260 0.43300 0.04400
C 	C 	0.54360 0.99630 0.59190 -0.00300
H 	H 	0.57330 0.99410 0.65380 0.04200
C 	C 	0.64580 0.88100 0.60610 0.48000
Eu	Eu	0.26456 0.23014 0.94346 2.20100
Eu	Eu	0.31446 0.26747 0.73412 2.18100
Cl	Cl	0.23555 0.30849 0.07137 -0.63400
O 	O 	0.55410 0.81177 0.92550 -0.56000
O 	O 	0.54290 0.82708 0.79490 -0.53200
O 	O 	0.28790 0.15130 0.75610 -0.51400
O 	O 	0.25120 0.12847 0.86620 -0.52400
O 	O 	0.03750 0.25100 0.33010 -0.48300
O 	O 	0.13760 0.23581 0.25660 -0.58600
O 	O 	0.54210 0.22680 0.84300 -0.44800
O 	O 	0.43210 0.23933 0.90970 -0.60600
O 	O 	0.16440 0.15258 0.98970 -0.54700
O 	O 	0.17570 0.15444 0.12170 -0.54600
O 	O 	0.35750 0.36825 0.82430 -0.50300
O 	O 	0.30010 0.34567 0.92470 -0.52200
C 	C 	0.46390 0.91520 0.84600 -0.14100
C 	C 	0.46580 0.96340 0.78780 0.01300
H 	H 	0.50510 0.95290 0.75540 0.03700
C 	C 	0.40980 0.02710 0.77830 -0.01300
H 	H 	0.41100 0.05930 0.73900 0.05300
C 	C 	0.35140 0.04340 0.82650 -0.11400
C 	C 	0.35070 0.99560 0.88470 -0.00900
H 	H 	0.31210 0.00640 0.91760 0.04300
C 	C 	0.40660 0.93170 0.89500 0.01100
H 	H 	0.40570 0.89980 0.93460 0.03400
C 	C 	0.52590 0.84660 0.85620 0.51200
C 	C 	0.29240 0.11300 0.81580 0.48000
C 	C 	0.90470 0.23270 0.17010 -0.10500
C 	C 	0.89320 0.19830 0.09650 -0.00600
H 	H 	0.96630 0.17690 0.10220 0.04100
C 	C 	0.77360 0.19550 0.01440 -0.00600
H 	H 	0.76650 0.17220 0.96500 0.04600
C 	C 	0.66460 0.22740 0.00540 -0.11300
C 	C 	0.67500 0.26000 0.07960 0.01700
H 	H 	0.60130 0.28040 0.07420 0.02200
C 	C 	0.79410 0.26270 0.16150 -0.02000
H 	H 	0.80040 0.28460 0.21150 0.05400
C 	C 	0.03450 0.24010 0.25790 0.44600
C 	C 	0.53910 0.23020 0.91360 0.42300
C 	C 	0.06850 0.06160 0.02270 -0.13700
C 	C 	0.05020 0.02860 0.08480 0.00600
H 	H 	0.08400 0.04760 0.14260 0.03900
C 	C 	0.01770 0.03270 0.93700 -0.00600
H 	H 	0.02920 0.05460 0.89390 0.04600
C 	C 	0.14230 0.12790 0.04650 0.52300
C 	C 	0.42840 0.44360 0.94870 -0.11300
C 	C 	0.47080 0.44760 0.04000 -0.00200
H 	H 	0.45070 0.41260 0.06700 0.04400
C 	C 	0.45640 0.49630 0.90810 -0.00400
H 	H 	0.42670 0.49410 0.84620 0.04200
C 	C 	0.35420 0.38100 0.89390 0.48000
Eu	Eu	0.26456 0.26986 0.44346 2.20300
Eu	Eu	0.31446 0.23253 0.23412 2.18100
Cl	Cl	0.23555 0.19151 0.57137 -0.63500
O 	O 	0.55410 0.68823 0.42550 -0.56100
O 	O 	0.54290 0.67292 0.29490 -0.53200
O 	O 	0.28790 0.34870 0.25610 -0.51400
O 	O 	0.25120 0.37153 0.36620 -0.52300
O 	O 	0.03750 0.24900 0.83010 -0.48300
O 	O 	0.13760 0.26419 0.75660 -0.58600
O 	O 	0.54210 0.27320 0.34300 -0.44800
O 	O 	0.43210 0.26067 0.40970 -0.60600
O 	O 	0.16440 0.34742 0.48970 -0.54600
O 	O 	0.17570 0.34556 0.62170 -0.54600
O 	O 	0.35750 0.13175 0.32430 -0.50300
O 	O 	0.30010 0.15433 0.42470 -0.52200
C 	C 	0.46390 0.58480 0.34600 -0.14300
C 	C 	0.46580 0.53660 0.28780 0.01400
H 	H 	0.50510 0.54710 0.25540 0.03700
C 	C 	0.40980 0.47290 0.27830 -0.01400
H 	H 	0.41100 0.44070 0.23900 0.05300
C 	C 	0.35140 0.45660 0.32650 -0.11000
C 	C 	0.35070 0.50440 0.38470 -0.01700
H 	H 	0.31210 0.49360 0.41760 0.04700
C 	C 	0.40660 0.56830 0.39500 0.01600
H 	H 	0.40570 0.60020 0.43460 0.03200
C 	C 	0.52590 0.65340 0.35620 0.51300
C 	C 	0.29240 0.38700 0.31580 0.47900
C 	C 	0.90470 0.26730 0.67010 -0.10600
C 	C 	0.89320 0.30170 0.59650 -0.00500
H 	H 	0.96630 0.32310 0.60220 0.04000
C 	C 	0.77360 0.30450 0.51440 -0.00800
H 	H 	0.76650 0.32780 0.46500 0.04700
C 	C 	0.66460 0.27260 0.50540 -0.11300
C 	C 	0.67500 0.24000 0.57960 0.01700
H 	H 	0.60130 0.21960 0.57420 0.02200
C 	C 	0.79410 0.23730 0.66150 -0.02000
H 	H 	0.80040 0.21540 0.71150 0.05400
C 	C 	0.03450 0.25990 0.75790 0.44600
C 	C 	0.53910 0.26980 0.41360 0.42300
C 	C 	0.06850 0.43840 0.52270 -0.13900
C 	C 	0.05020 0.47140 0.58480 0.00300
H 	H 	0.08400 0.45240 0.64260 0.04000
C 	C 	0.01770 0.46730 0.43700 -0.00100
H 	H 	0.02920 0.44540 0.39390 0.04400
C 	C 	0.14230 0.37210 0.54650 0.52200
C 	C 	0.42840 0.05640 0.44870 -0.11300
C 	C 	0.47080 0.05240 0.54000 -0.00300
H 	H 	0.45070 0.08740 0.56700 0.04400
C 	C 	0.45640 0.00370 0.40810 -0.00300
H 	H 	0.42670 0.00590 0.34620 0.04200
C 	C 	0.35420 0.11900 0.39390 0.48000
Eu	Eu	0.73544 0.76986 0.05654 2.20100
Eu	Eu	0.68554 0.73253 0.26588 2.18100
Cl	Cl	0.76445 0.69151 0.92863 -0.63400
O 	O 	0.44590 0.18823 0.07450 -0.56000
O 	O 	0.45710 0.17292 0.20510 -0.53200
O 	O 	0.71210 0.84870 0.24390 -0.51400
O 	O 	0.74880 0.87153 0.13380 -0.52400
O 	O 	0.96250 0.74900 0.66990 -0.48300
O 	O 	0.86240 0.76419 0.74340 -0.58600
O 	O 	0.45790 0.77320 0.15700 -0.44800
O 	O 	0.56790 0.76067 0.09030 -0.60600
O 	O 	0.83560 0.84742 0.01030 -0.54700
O 	O 	0.82430 0.84556 0.87830 -0.54600
O 	O 	0.64250 0.63175 0.17570 -0.50300
O 	O 	0.69990 0.65433 0.07530 -0.52200
C 	C 	0.53610 0.08480 0.15400 -0.14100
C 	C 	0.53420 0.03660 0.21220 0.01300
H 	H 	0.49490 0.04710 0.24460 0.03700
C 	C 	0.59020 0.97290 0.22170 -0.01300
H 	H 	0.58900 0.94070 0.26100 0.05300
C 	C 	0.64860 0.95660 0.17350 -0.11400
C 	C 	0.64930 0.00440 0.11530 -0.00900
H 	H 	0.68790 0.99360 0.08240 0.04300
C 	C 	0.59340 0.06830 0.10500 0.01100
H 	H 	0.59430 0.10020 0.06540 0.03400
C 	C 	0.47410 0.15340 0.14380 0.51200
C 	C 	0.70760 0.88700 0.18420 0.48000
C 	C 	0.09530 0.76730 0.82990 -0.10500
C 	C 	0.10680 0.80170 0.90350 -0.00600
H 	H 	0.03370 0.82310 0.89780 0.04100
C 	C 	0.22640 0.80450 0.98560 -0.00600
H 	H 	0.23350 0.82780 0.03500 0.04600
C 	C 	0.33540 0.77260 0.99460 -0.11300
C 	C 	0.32500 0.74000 0.92040 0.01700
H 	H 	0.39870 0.71960 0.92580 0.02200
C 	C 	0.20590 0.73730 0.83850 -0.02000
H 	H 	0.19960 0.71540 0.78850 0.05400
C 	C 	0.96550 0.75990 0.74210 0.44600
C 	C 	0.46090 0.76980 0.08640 0.42300
C 	C 	0.93150 0.93840 0.97730 -0.13700
C 	C 	0.94980 0.97140 0.91520 0.00600
H 	H 	0.91600 0.95240 0.85740 0.03900
C 	C 	0.98230 0.96730 0.06300 -0.00600
H 	H 	0.97080 0.94540 0.10610 0.04600
C 	C 	0.85770 0.87210 0.95350 0.52300
C 	C 	0.57160 0.55640 0.05130 -0.11300
C 	C 	0.52920 0.55240 0.96000 -0.00200
H 	H 	0.54930 0.58740 0.93300 0.04400
C 	C 	0.54360 0.50370 0.09190 -0.00400
H 	H 	0.57330 0.50590 0.15380 0.04200
C 	C 	0.64580 0.61900 0.10610 0.48000
