data_crystal

_cell_length_a 19.17580
_cell_length_b 10.98670
_cell_length_c 33.41050
_cell_angle_alpha 90.00000
_cell_angle_beta  103.27300
_cell_angle_gamma 90.00000

_symmetry_space_group_name_	'P 1'
_symmetry_space_group_name_H-M	'P 1'

loop_
_symmetry_equiv_pos_as_xyz
  x,y,z

loop_
_atom_site_label
_atom_site_type_symbol
_atom_site_fract_x
_atom_site_fract_y
_atom_site_fract_z
_atom_site_charge
Eu	Eu	0.01301 0.18479 0.18668 2.17200
Eu	Eu	0.00349 0.05911 0.05576 2.09400
Cl	Cl	0.92194 0.08659 0.11528 -0.63700
O 	O 	0.03180 0.33670 0.13901 -0.51100
O 	O 	0.05630 0.23760 0.08591 -0.53000
O 	O 	0.01880 0.87080 0.01979 -0.58200
O 	O 	0.07220 0.76830 0.97866 -0.43000
C 	C 	0.05410 0.45280 0.08284 -0.13600
C 	C 	0.03330 0.56090 0.09700 0.01000
H 	H 	0.01960 0.56350 0.12190 0.03500
C 	C 	0.03290 0.66720 0.07400 -0.02700
H 	H 	0.01590 0.73930 0.08290 0.03800
C 	C 	0.05700 0.66610 0.03870 -0.07600
C 	C 	0.08080 0.55700 0.02540 -0.04800
H 	H 	0.09840 0.55560 0.00170 0.06300
C 	C 	0.07830 0.45110 0.04710 0.02700
H 	H 	0.09310 0.37810 0.03760 0.02300
C 	C 	0.04730 0.33370 0.10440 0.47600
C 	C 	0.05110 0.77510 0.01110 0.37400
O 	O 	0.09600 0.07370 0.16113 -0.54600
O 	O 	0.07910 0.94780 0.10800 -0.52100
O 	O 	0.38110 0.72000 0.26413 -0.53500
O 	O 	0.40140 0.67700 0.20280 -0.54500
C 	C 	0.17150 0.90270 0.16647 -0.12200
C 	C 	0.19830 0.80880 0.14630 -0.00200
H 	H 	0.17430 0.78600 0.12000 0.04800
C 	C 	0.26030 0.74970 0.16540 -0.00600
H 	H 	0.27940 0.68990 0.15140 0.05500
C 	C 	0.29400 0.77850 0.20510 -0.12100
C 	C 	0.26510 0.86800 0.22600 -0.00800
H 	H 	0.28680 0.88590 0.25320 0.04200
C 	C 	0.20450 0.92990 0.20650 0.00300
H 	H 	0.18570 0.99040 0.22040 0.04200
C 	C 	0.10990 0.98000 0.14394 0.49000
C 	C 	0.36390 0.72030 0.22570 0.49000
O 	O 	0.99630 0.37340 0.21641 -0.51300
O 	O 	0.01800 0.00020 0.22042 -0.55100
C 	C 	0.02830 0.62350 0.22170 0.00200
H 	H 	0.04700 0.58100 0.20240 0.03800
C 	C 	0.02900 0.75010 0.22180 0.00200
H 	H 	0.04890 0.79230 0.20310 0.03800
O 	O 	0.89320 0.96970 0.02806 -0.50300
O 	O 	0.88390 0.92110 0.96224 -0.49600
C 	C 	0.80490 0.82880 0.99770 -0.11300
C 	C 	0.77530 0.83110 0.03200 -0.00600
H 	H 	0.79230 0.88530 0.05340 0.06000
C 	C 	0.77960 0.74860 0.96620 0.00100
H 	H 	0.79960 0.74800 0.94340 0.04600
C 	C 	0.86560 0.91300 0.99600 0.46600
Eu	Eu	0.51301 0.68479 0.18668 2.21600
Eu	Eu	0.50349 0.55911 0.05576 2.13800
Cl	Cl	0.42194 0.58659 0.11528 -0.66100
O 	O 	0.53180 0.83670 0.13901 -0.51100
O 	O 	0.55630 0.73760 0.08591 -0.53200
O 	O 	0.51880 0.37080 0.01979 -0.57600
O 	O 	0.57220 0.26830 0.97866 -0.42200
C 	C 	0.55410 0.95280 0.08284 -0.13600
C 	C 	0.53330 0.06090 0.09700 0.01300
H 	H 	0.51960 0.06350 0.12190 0.03700
C 	C 	0.53290 0.16720 0.07400 -0.02700
H 	H 	0.51590 0.23930 0.08290 0.04000
C 	C 	0.55700 0.16610 0.03870 -0.07300
C 	C 	0.58080 0.05700 0.02540 -0.04800
H 	H 	0.59840 0.05560 0.00170 0.06600
C 	C 	0.57830 0.95110 0.04710 0.03000
H 	H 	0.59310 0.87810 0.03760 0.02500
C 	C 	0.54730 0.83370 0.10440 0.48100
C 	C 	0.55110 0.27510 0.01110 0.37600
O 	O 	0.59600 0.57370 0.16113 -0.55200
O 	O 	0.57910 0.44780 0.10800 -0.52500
O 	O 	0.88110 0.22000 0.26413 -0.53600
O 	O 	0.90140 0.17700 0.20280 -0.53400
C 	C 	0.67150 0.40270 0.16647 -0.12500
C 	C 	0.69830 0.30880 0.14630 0.00200
H 	H 	0.67430 0.28600 0.12000 0.04700
C 	C 	0.76030 0.24970 0.16540 -0.00900
H 	H 	0.77940 0.18990 0.15140 0.05700
C 	C 	0.79400 0.27850 0.20510 -0.11700
C 	C 	0.76510 0.36800 0.22600 -0.01000
H 	H 	0.78680 0.38590 0.25320 0.04400
C 	C 	0.70450 0.42990 0.20650 0.00700
H 	H 	0.68570 0.49040 0.22040 0.04100
C 	C 	0.60990 0.48000 0.14394 0.49600
C 	C 	0.86390 0.22030 0.22570 0.48900
O 	O 	0.49630 0.87340 0.21641 -0.54500
O 	O 	0.51800 0.50020 0.22042 -0.55600
C 	C 	0.52830 0.12350 0.22170 -0.00000
H 	H 	0.54700 0.08100 0.20240 0.04100
C 	C 	0.52900 0.25010 0.22180 0.00200
H 	H 	0.54890 0.29230 0.20310 0.03900
O 	O 	0.39320 0.46970 0.02806 -0.51500
O 	O 	0.38390 0.42110 0.96224 -0.49500
C 	C 	0.30490 0.32880 0.99770 -0.10900
C 	C 	0.27530 0.33110 0.03200 -0.01400
H 	H 	0.29230 0.38530 0.05340 0.06100
C 	C 	0.27960 0.24860 0.96620 -0.00600
H 	H 	0.29960 0.24800 0.94340 0.04700
C 	C 	0.36560 0.41300 0.99600 0.46700
Eu	Eu	0.98699 0.18479 0.31332 2.25800
Eu	Eu	0.99651 0.05911 0.44424 2.18600
Cl	Cl	0.07806 0.08659 0.38472 -0.68300
O 	O 	0.96820 0.33670 0.36099 -0.51000
O 	O 	0.94370 0.23760 0.41409 -0.53400
O 	O 	0.98120 0.87080 0.48021 -0.56900
O 	O 	0.92780 0.76830 0.52134 -0.41200
C 	C 	0.94590 0.45280 0.41716 -0.13500
C 	C 	0.96670 0.56090 0.40300 0.01500
H 	H 	0.98040 0.56350 0.37810 0.04000
C 	C 	0.96710 0.66720 0.42600 -0.02500
H 	H 	0.98410 0.73930 0.41710 0.04300
C 	C 	0.94300 0.66610 0.46130 -0.07000
C 	C 	0.91920 0.55700 0.47460 -0.04600
H 	H 	0.90160 0.55560 0.49830 0.06900
C 	C 	0.92170 0.45110 0.45290 0.03300
H 	H 	0.90690 0.37810 0.46240 0.02600
C 	C 	0.95270 0.33370 0.39560 0.48500
C 	C 	0.94890 0.77510 0.48890 0.37700
O 	O 	0.90400 0.07370 0.33887 -0.55600
O 	O 	0.92090 0.94780 0.39200 -0.52900
O 	O 	0.61890 0.72000 0.23587 -0.53500
O 	O 	0.59860 0.67700 0.29720 -0.54500
C 	C 	0.82850 0.90270 0.33353 -0.12700
C 	C 	0.80170 0.80880 0.35370 0.00200
H 	H 	0.82570 0.78600 0.38000 0.04600
C 	C 	0.73970 0.74970 0.33460 -0.01000
H 	H 	0.72060 0.68990 0.34860 0.05600
C 	C 	0.70600 0.77850 0.29490 -0.11800
C 	C 	0.73490 0.86800 0.27400 -0.01100
H 	H 	0.71320 0.88590 0.24680 0.04400
C 	C 	0.79550 0.92990 0.29350 0.00700
H 	H 	0.81430 0.99040 0.27960 0.04000
C 	C 	0.89010 0.98000 0.35606 0.49900
C 	C 	0.63610 0.72030 0.27430 0.48900
O 	O 	0.00370 0.37340 0.28359 -0.55500
O 	O 	0.98200 0.00020 0.27958 -0.53800
C 	C 	0.97170 0.62350 0.27830 0.02200
H 	H 	0.95300 0.58100 0.29760 0.03700
C 	C 	0.97100 0.75010 0.27820 0.02100
H 	H 	0.95110 0.79230 0.29690 0.03600
O 	O 	0.10680 0.96970 0.47194 -0.52600
O 	O 	0.11610 0.92110 0.53776 -0.49400
C 	C 	0.19510 0.82880 0.50230 -0.11200
C 	C 	0.22470 0.83110 0.46800 -0.01200
H 	H 	0.20770 0.88530 0.44660 0.05900
C 	C 	0.22040 0.74860 0.53380 -0.00300
H 	H 	0.20040 0.74800 0.55660 0.04700
C 	C 	0.13440 0.91300 0.50400 0.46800
Eu	Eu	0.48699 0.68479 0.31332 2.21600
Eu	Eu	0.49651 0.55911 0.44424 2.13800
Cl	Cl	0.57806 0.58659 0.38472 -0.66100
O 	O 	0.46820 0.83670 0.36099 -0.51200
O 	O 	0.44370 0.73760 0.41409 -0.53200
O 	O 	0.48120 0.37080 0.48021 -0.57600
O 	O 	0.42780 0.26830 0.52134 -0.42200
C 	C 	0.44590 0.95280 0.41716 -0.13700
C 	C 	0.46670 0.06090 0.40300 0.01300
H 	H 	0.48040 0.06350 0.37810 0.03700
C 	C 	0.46710 0.16720 0.42600 -0.02700
H 	H 	0.48410 0.23930 0.41710 0.04000
C 	C 	0.44300 0.16610 0.46130 -0.07300
C 	C 	0.41920 0.05700 0.47460 -0.04800
H 	H 	0.40160 0.05560 0.49830 0.06600
C 	C 	0.42170 0.95110 0.45290 0.03000
H 	H 	0.40690 0.87810 0.46240 0.02500
C 	C 	0.45270 0.83370 0.39560 0.48100
C 	C 	0.44890 0.27510 0.48890 0.37500
O 	O 	0.40400 0.57370 0.33887 -0.55200
O 	O 	0.42090 0.44780 0.39200 -0.52500
O 	O 	0.11890 0.22000 0.23587 -0.53400
O 	O 	0.09860 0.17700 0.29720 -0.55500
C 	C 	0.32850 0.40270 0.33353 -0.12500
C 	C 	0.30170 0.30880 0.35370 -0.00100
H 	H 	0.32570 0.28600 0.38000 0.04700
C 	C 	0.23970 0.24970 0.33460 -0.00700
H 	H 	0.22060 0.18990 0.34860 0.05400
C 	C 	0.20600 0.27850 0.29490 -0.12100
C 	C 	0.23490 0.36800 0.27400 -0.00900
H 	H 	0.21320 0.38590 0.24680 0.04300
C 	C 	0.29550 0.42990 0.29350 0.00400
H 	H 	0.31430 0.49040 0.27960 0.04100
C 	C 	0.39010 0.48000 0.35606 0.49500
C 	C 	0.13610 0.22030 0.27430 0.49100
O 	O 	0.50370 0.87340 0.28359 -0.54500
O 	O 	0.48200 0.50020 0.27958 -0.55600
C 	C 	0.47170 0.12350 0.27830 -0.00000
H 	H 	0.45300 0.08100 0.29760 0.04100
C 	C 	0.47100 0.25010 0.27820 0.00200
H 	H 	0.45110 0.29230 0.29690 0.03900
O 	O 	0.60680 0.46970 0.47194 -0.51500
O 	O 	0.61610 0.42110 0.53776 -0.49500
C 	C 	0.69510 0.32880 0.50230 -0.10900
C 	C 	0.72470 0.33110 0.46800 -0.01200
H 	H 	0.70770 0.38530 0.44660 0.06000
C 	C 	0.72040 0.24860 0.53380 -0.00300
H 	H 	0.70040 0.24800 0.55660 0.04800
C 	C 	0.63440 0.41300 0.50400 0.46800
Eu	Eu	0.98699 0.81521 0.81332 2.25600
Eu	Eu	0.99651 0.94089 0.94424 2.18100
Cl	Cl	0.07806 0.91341 0.88472 -0.68200
O 	O 	0.96820 0.66330 0.86099 -0.51000
O 	O 	0.94370 0.76240 0.91409 -0.53400
O 	O 	0.98120 0.12920 0.98021 -0.56800
O 	O 	0.92780 0.23170 0.02134 -0.41000
C 	C 	0.94590 0.54720 0.91716 -0.13500
C 	C 	0.96670 0.43910 0.90300 0.01600
H 	H 	0.98040 0.43650 0.87810 0.04000
C 	C 	0.96710 0.33280 0.92600 -0.02600
H 	H 	0.98410 0.26070 0.91710 0.04300
C 	C 	0.94300 0.33390 0.96130 -0.06900
C 	C 	0.91920 0.44300 0.97460 -0.04700
H 	H 	0.90160 0.44440 0.99830 0.06800
C 	C 	0.92170 0.54890 0.95290 0.03300
H 	H 	0.90690 0.62190 0.96240 0.02600
C 	C 	0.95270 0.66630 0.89560 0.48500
C 	C 	0.94890 0.22490 0.98890 0.37400
O 	O 	0.90400 0.92630 0.83887 -0.55500
O 	O 	0.92090 0.05220 0.89200 -0.52800
O 	O 	0.61890 0.28000 0.73587 -0.53500
O 	O 	0.59860 0.32300 0.79720 -0.54500
C 	C 	0.82850 0.09730 0.83353 -0.12700
C 	C 	0.80170 0.19120 0.85370 0.00200
H 	H 	0.82570 0.21400 0.88000 0.04600
C 	C 	0.73970 0.25030 0.83460 -0.00900
H 	H 	0.72060 0.31010 0.84860 0.05600
C 	C 	0.70600 0.22150 0.79490 -0.11800
C 	C 	0.73490 0.13200 0.77400 -0.01000
H 	H 	0.71320 0.11410 0.74680 0.04400
C 	C 	0.79550 0.07010 0.79350 0.00700
H 	H 	0.81430 0.00960 0.77960 0.04000
C 	C 	0.89010 0.02000 0.85606 0.49900
C 	C 	0.63610 0.27970 0.77430 0.48900
O 	O 	0.00370 0.62660 0.78359 -0.55400
O 	O 	0.98200 0.99980 0.77958 -0.53900
C 	C 	0.97170 0.37650 0.77830 0.02100
H 	H 	0.95300 0.41900 0.79760 0.03800
C 	C 	0.97100 0.24990 0.77820 0.01900
H 	H 	0.95110 0.20770 0.79690 0.03600
O 	O 	0.10680 0.03030 0.97194 -0.52400
O 	O 	0.11610 0.07890 0.03776 -0.49300
C 	C 	0.19510 0.17120 0.00230 -0.11300
C 	C 	0.22470 0.16890 0.96800 -0.01100
H 	H 	0.20770 0.11470 0.94660 0.05800
C 	C 	0.22040 0.25140 0.03380 -0.00200
H 	H 	0.20040 0.25200 0.05660 0.04700
C 	C 	0.13440 0.08700 0.00400 0.46700
Eu	Eu	0.48699 0.31521 0.81332 2.21600
Eu	Eu	0.49651 0.44089 0.94424 2.13700
Cl	Cl	0.57806 0.41341 0.88472 -0.66100
O 	O 	0.46820 0.16330 0.86099 -0.51200
O 	O 	0.44370 0.26240 0.91409 -0.53200
O 	O 	0.48120 0.62920 0.98021 -0.57600
O 	O 	0.42780 0.73170 0.02134 -0.42100
C 	C 	0.44590 0.04720 0.91716 -0.13700
C 	C 	0.46670 0.93910 0.90300 0.01300
H 	H 	0.48040 0.93650 0.87810 0.03700
C 	C 	0.46710 0.83280 0.92600 -0.02800
H 	H 	0.48410 0.76070 0.91710 0.04000
C 	C 	0.44300 0.83390 0.96130 -0.07200
C 	C 	0.41920 0.94300 0.97460 -0.04900
H 	H 	0.40160 0.94440 0.99830 0.06600
C 	C 	0.42170 0.04890 0.95290 0.03100
H 	H 	0.40690 0.12190 0.96240 0.02400
C 	C 	0.45270 0.16630 0.89560 0.48100
C 	C 	0.44890 0.72490 0.98890 0.37400
O 	O 	0.40400 0.42630 0.83887 -0.55200
O 	O 	0.42090 0.55220 0.89200 -0.52500
O 	O 	0.11890 0.78000 0.73587 -0.53400
O 	O 	0.09860 0.82300 0.79720 -0.55500
C 	C 	0.32850 0.59730 0.83353 -0.12500
C 	C 	0.30170 0.69120 0.85370 -0.00100
H 	H 	0.32570 0.71400 0.88000 0.04700
C 	C 	0.23970 0.75030 0.83460 -0.00700
H 	H 	0.22060 0.81010 0.84860 0.05400
C 	C 	0.20600 0.72150 0.79490 -0.12100
C 	C 	0.23490 0.63200 0.77400 -0.00900
H 	H 	0.21320 0.61410 0.74680 0.04300
C 	C 	0.29550 0.57010 0.79350 0.00400
H 	H 	0.31430 0.50960 0.77960 0.04100
C 	C 	0.39010 0.52000 0.85606 0.49500
C 	C 	0.13610 0.77970 0.77430 0.49100
O 	O 	0.50370 0.12660 0.78359 -0.54500
O 	O 	0.48200 0.49980 0.77958 -0.55600
C 	C 	0.47170 0.87650 0.77830 -0.00000
H 	H 	0.45300 0.91900 0.79760 0.04100
C 	C 	0.47100 0.74990 0.77820 0.00200
H 	H 	0.45110 0.70770 0.79690 0.03900
O 	O 	0.60680 0.53030 0.97194 -0.51600
O 	O 	0.61610 0.57890 0.03776 -0.49400
C 	C 	0.69510 0.67120 0.00230 -0.10500
C 	C 	0.72470 0.66890 0.96800 -0.01800
H 	H 	0.70770 0.61470 0.94660 0.06200
C 	C 	0.72040 0.75140 0.03380 -0.00700
H 	H 	0.70040 0.75200 0.05660 0.04900
C 	C 	0.63440 0.58700 0.00400 0.46800
Eu	Eu	0.01301 0.81521 0.68668 2.17600
Eu	Eu	0.00349 0.94089 0.55576 2.09800
Cl	Cl	0.92194 0.91341 0.61528 -0.63900
O 	O 	0.03180 0.66330 0.63901 -0.51100
O 	O 	0.05630 0.76240 0.58591 -0.53000
O 	O 	0.01880 0.12920 0.51979 -0.58300
O 	O 	0.07220 0.23170 0.47866 -0.43200
C 	C 	0.05410 0.54720 0.58284 -0.13600
C 	C 	0.03330 0.43910 0.59700 0.01000
H 	H 	0.01960 0.43650 0.62190 0.03500
C 	C 	0.03290 0.33280 0.57400 -0.02700
H 	H 	0.01590 0.26070 0.58290 0.03800
C 	C 	0.05700 0.33390 0.53870 -0.07600
C 	C 	0.08080 0.44300 0.52540 -0.04800
H 	H 	0.09840 0.44440 0.50170 0.06300
C 	C 	0.07830 0.54890 0.54710 0.02600
H 	H 	0.09310 0.62190 0.53760 0.02300
C 	C 	0.04730 0.66630 0.60440 0.47700
C 	C 	0.05110 0.22490 0.51110 0.37500
O 	O 	0.09600 0.92630 0.66113 -0.54600
O 	O 	0.07910 0.05220 0.60800 -0.52100
O 	O 	0.38110 0.28000 0.76413 -0.53500
O 	O 	0.40140 0.32300 0.70280 -0.54500
C 	C 	0.17150 0.09730 0.66647 -0.12300
C 	C 	0.19830 0.19120 0.64630 -0.00200
H 	H 	0.17430 0.21400 0.62000 0.04800
C 	C 	0.26030 0.25030 0.66540 -0.00600
H 	H 	0.27940 0.31010 0.65140 0.05500
C 	C 	0.29400 0.22150 0.70510 -0.12100
C 	C 	0.26510 0.13200 0.72600 -0.00800
H 	H 	0.28680 0.11410 0.75320 0.04200
C 	C 	0.20450 0.07010 0.70650 0.00300
H 	H 	0.18570 0.00960 0.72040 0.04200
C 	C 	0.10990 0.02000 0.64394 0.49000
C 	C 	0.36390 0.27970 0.72570 0.49000
O 	O 	0.99630 0.62660 0.71641 -0.51500
O 	O 	0.01800 0.99980 0.72042 -0.55100
C 	C 	0.02830 0.37650 0.72170 0.00200
H 	H 	0.04700 0.41900 0.70240 0.03800
C 	C 	0.02900 0.24990 0.72180 0.00200
H 	H 	0.04890 0.20770 0.70310 0.03900
O 	O 	0.89320 0.03030 0.52806 -0.50600
O 	O 	0.88390 0.07890 0.46224 -0.49700
C 	C 	0.80490 0.17120 0.49770 -0.10800
C 	C 	0.77530 0.16890 0.53200 -0.01200
H 	H 	0.79230 0.11470 0.55340 0.06100
C 	C 	0.77960 0.25140 0.46620 -0.00300
H 	H 	0.79960 0.25200 0.44340 0.04700
C 	C 	0.86560 0.08700 0.49600 0.46800
Eu	Eu	0.51301 0.31521 0.68668 2.21600
Eu	Eu	0.50349 0.44089 0.55576 2.13800
Cl	Cl	0.42194 0.41341 0.61528 -0.66100
O 	O 	0.53180 0.16330 0.63901 -0.51200
O 	O 	0.55630 0.26240 0.58591 -0.53200
O 	O 	0.51880 0.62920 0.51979 -0.57600
O 	O 	0.57220 0.73170 0.47866 -0.42200
C 	C 	0.55410 0.04720 0.58284 -0.13700
C 	C 	0.53330 0.93910 0.59700 0.01400
H 	H 	0.51960 0.93650 0.62190 0.03700
C 	C 	0.53290 0.83280 0.57400 -0.02700
H 	H 	0.51590 0.76070 0.58290 0.04000
C 	C 	0.55700 0.83390 0.53870 -0.07300
C 	C 	0.58080 0.94300 0.52540 -0.04700
H 	H 	0.59840 0.94440 0.50170 0.06500
C 	C 	0.57830 0.04890 0.54710 0.02900
H 	H 	0.59310 0.12190 0.53760 0.02500
C 	C 	0.54730 0.16630 0.60440 0.48100
C 	C 	0.55110 0.72490 0.51110 0.37600
O 	O 	0.59600 0.42630 0.66113 -0.55200
O 	O 	0.57910 0.55220 0.60800 -0.52500
O 	O 	0.88110 0.78000 0.76413 -0.53600
O 	O 	0.90140 0.82300 0.70280 -0.53500
C 	C 	0.67150 0.59730 0.66647 -0.12500
C 	C 	0.69830 0.69120 0.64630 0.00200
H 	H 	0.67430 0.71400 0.62000 0.04700
C 	C 	0.76030 0.75030 0.66540 -0.00900
H 	H 	0.77940 0.81010 0.65140 0.05700
C 	C 	0.79400 0.72150 0.70510 -0.11700
C 	C 	0.76510 0.63200 0.72600 -0.01000
H 	H 	0.78680 0.61410 0.75320 0.04400
C 	C 	0.70450 0.57010 0.70650 0.00700
H 	H 	0.68570 0.50960 0.72040 0.04100
C 	C 	0.60990 0.52000 0.64394 0.49600
C 	C 	0.86390 0.77970 0.72570 0.48900
O 	O 	0.49630 0.12660 0.71641 -0.54500
O 	O 	0.51800 0.49980 0.72042 -0.55600
C 	C 	0.52830 0.87650 0.72170 -0.00000
H 	H 	0.54700 0.91900 0.70240 0.04100
C 	C 	0.52900 0.74990 0.72180 0.00200
H 	H 	0.54890 0.70770 0.70310 0.03900
O 	O 	0.39320 0.53030 0.52806 -0.51500
O 	O 	0.38390 0.57890 0.46224 -0.49500
C 	C 	0.30490 0.67120 0.49770 -0.11000
C 	C 	0.27530 0.66890 0.53200 -0.01300
H 	H 	0.29230 0.61470 0.55340 0.06000
C 	C 	0.27960 0.75140 0.46620 -0.00500
H 	H 	0.29960 0.75200 0.44340 0.04700
C 	C 	0.36560 0.58700 0.49600 0.46800
C 	C 	0.00000 0.56110 0.25000 -0.14700
C 	C 	-0.00000 0.81270 0.25000 -0.14500
C 	C 	0.00000 0.42460 0.25000 0.48900
C 	C 	0.00000 0.94910 0.25000 0.49100
C 	C 	0.50000 0.06110 0.25000 -0.12800
C 	C 	0.50000 0.31270 0.25000 -0.12900
C 	C 	0.50000 0.92460 0.25000 0.50900
C 	C 	0.50000 0.44910 0.25000 0.51300
C 	C 	0.00000 0.43890 0.75000 -0.14500
C 	C 	0.00000 0.18730 0.75000 -0.14400
C 	C 	0.00000 0.57540 0.75000 0.49100
C 	C 	0.00000 0.05090 0.75000 0.49200
C 	C 	0.50000 0.93890 0.75000 -0.12700
C 	C 	0.50000 0.68730 0.75000 -0.12900
C 	C 	0.50000 0.07540 0.75000 0.50900
C 	C 	0.50000 0.55090 0.75000 0.51300
