data_crystal

_cell_length_a 6.80180
_cell_length_b 13.53440
_cell_length_c 16.41560
_cell_angle_alpha 90.00000
_cell_angle_beta  90.00000
_cell_angle_gamma 90.00000

_symmetry_space_group_name_	'P 1'
_symmetry_space_group_name_H-M	'P 1'

loop_
_symmetry_equiv_pos_as_xyz
  x,y,z

loop_
_atom_site_label
_atom_site_type_symbol
_atom_site_fract_x
_atom_site_fract_y
_atom_site_fract_z
_atom_site_charge
V 	V 	0.93711 0.76440 0.00072 1.83200
V 	V 	0.56289 0.23560 0.50072 1.83300
V 	V 	0.06289 0.26440 0.49928 1.83200
V 	V 	0.43711 0.73560 0.99928 1.83400
H 	H 	0.53380 0.94460 0.81140 0.05600
H 	H 	0.55470 0.04830 0.70370 0.05500
H 	H 	0.96910 0.08490 0.70860 0.06600
H 	H 	0.95000 0.97970 0.81760 0.04700
H 	H 	0.96620 0.05540 0.31140 0.06700
H 	H 	0.94530 0.95170 0.20370 0.04300
H 	H 	0.53090 0.91510 0.20860 0.05400
H 	H 	0.55000 0.02030 0.31760 0.05700
H 	H 	0.46620 0.44460 0.68860 0.05700
H 	H 	0.44530 0.54830 0.79630 0.05400
H 	H 	0.03090 0.58490 0.79140 0.05600
H 	H 	0.05000 0.47970 0.68240 0.05100
H 	H 	0.03380 0.55540 0.18860 0.06100
H 	H 	0.05470 0.45170 0.29630 0.05000
H 	H 	0.46910 0.41510 0.29140 0.05500
H 	H 	0.45000 0.52030 0.18240 0.05600
C 	C 	0.22590 0.87890 0.89403 0.42300
C 	C 	0.23860 0.94910 0.82584 -0.09600
C 	C 	0.41960 0.97240 0.79030 -0.00500
C 	C 	0.43230 0.03410 0.72610 -0.01000
C 	C 	0.26220 0.07720 0.69264 -0.08600
C 	C 	0.08310 0.05610 0.72890 -0.02300
C 	C 	0.07170 0.99300 0.79424 0.00600
C 	C 	0.27450 0.14160 0.62047 0.42700
C 	C 	0.27410 0.12110 0.39403 0.41700
C 	C 	0.26140 0.05090 0.32584 -0.08100
C 	C 	0.08040 0.02760 0.29030 -0.02900
C 	C 	0.06770 0.96590 0.22610 0.01400
C 	C 	0.23780 0.92280 0.19264 -0.10200
C 	C 	0.41690 0.94390 0.22890 0.00000
C 	C 	0.42830 0.00700 0.29424 -0.01400
C 	C 	0.22550 0.85840 0.12047 0.43300
C 	C 	0.77410 0.37890 0.60597 0.42100
C 	C 	0.76140 0.44910 0.67416 -0.09200
C 	C 	0.58040 0.47240 0.70970 -0.00700
C 	C 	0.56770 0.53410 0.77390 -0.00800
C 	C 	0.73780 0.57720 0.80736 -0.09200
C 	C 	0.91690 0.55610 0.77110 -0.00700
C 	C 	0.92830 0.49300 0.70576 -0.00200
C 	C 	0.72550 0.64160 0.87953 0.42900
C 	C 	0.72590 0.62110 0.10597 0.41900
C 	C 	0.73860 0.55090 0.17416 -0.08600
C 	C 	0.91960 0.52760 0.20970 -0.01600
C 	C 	0.93230 0.46590 0.27390 0.00000
C 	C 	0.76220 0.42280 0.30736 -0.09600
C 	C 	0.58310 0.44390 0.27110 -0.00200
C 	C 	0.57170 0.50700 0.20576 -0.01100
C 	C 	0.77450 0.35840 0.37953 0.43000
O 	O 	0.71889 0.81132 0.00422 -0.67400
O 	O 	0.05700 0.85743 0.92133 -0.50700
O 	O 	0.44150 0.16017 0.59164 -0.51300
O 	O 	0.38600 0.84327 0.92055 -0.49900
O 	O 	0.11410 0.17534 0.59234 -0.50200
O 	O 	0.78111 0.18868 0.50422 -0.67300
O 	O 	0.44300 0.14257 0.42133 -0.50600
O 	O 	0.05850 0.83983 0.09164 -0.51200
O 	O 	0.11400 0.15673 0.42055 -0.49900
O 	O 	0.38590 0.82466 0.09234 -0.50100
O 	O 	0.28111 0.31132 0.49578 -0.67500
O 	O 	0.94300 0.35743 0.57867 -0.50600
O 	O 	0.55850 0.66017 0.90836 -0.51400
O 	O 	0.61400 0.34327 0.57945 -0.49800
O 	O 	0.88590 0.67534 0.90766 -0.50000
O 	O 	0.21889 0.68868 0.99578 -0.67400
O 	O 	0.55700 0.64257 0.07867 -0.50600
O 	O 	0.94150 0.33983 0.40836 -0.51200
O 	O 	0.88600 0.65673 0.07945 -0.49900
O 	O 	0.61410 0.32466 0.40766 -0.50000
