data_crystal

_cell_length_a 6.78840
_cell_length_b 13.23050
_cell_length_c 16.63570
_cell_angle_alpha 90.00000
_cell_angle_beta  90.00000
_cell_angle_gamma 90.00000

_symmetry_space_group_name_	'P 1'
_symmetry_space_group_name_H-M	'P 1'

loop_
_symmetry_equiv_pos_as_xyz
  x,y,z

loop_
_atom_site_label
_atom_site_type_symbol
_atom_site_fract_x
_atom_site_fract_y
_atom_site_fract_z
_atom_site_charge
V 	V 	0.43877 0.26461 0.49945 1.83500
V 	V 	0.06123 0.73539 0.99945 1.83400
V 	V 	0.56123 0.76461 0.00055 1.83500
V 	V 	0.93877 0.23539 0.50055 1.83400
H 	H 	0.54950 0.98330 0.81880 0.06000
H 	H 	0.53070 0.08700 0.70820 0.05300
H 	H 	0.96690 0.93560 0.80720 0.07000
H 	H 	0.94830 0.03930 0.69570 0.04400
H 	H 	0.95050 0.01670 0.31880 0.04600
H 	H 	0.96930 0.91300 0.20820 0.06200
H 	H 	0.53310 0.06440 0.30720 0.05800
H 	H 	0.55170 0.96070 0.19570 0.05500
H 	H 	0.45050 0.48330 0.68120 0.05800
H 	H 	0.46930 0.58700 0.79180 0.05400
H 	H 	0.03310 0.43560 0.69280 0.06200
H 	H 	0.05170 0.53930 0.80430 0.04900
H 	H 	0.04950 0.51670 0.18120 0.05600
H 	H 	0.03070 0.41300 0.29180 0.05800
H 	H 	0.46690 0.56440 0.19280 0.05900
H 	H 	0.44830 0.46070 0.30430 0.05400
C 	C 	0.27280 0.87800 0.89332 0.41600
C 	C 	0.26060 0.94890 0.82410 -0.07300
C 	C 	0.42850 0.99450 0.79413 -0.01900
C 	C 	0.41710 0.05650 0.72792 0.00300
C 	C 	0.08020 0.96600 0.78714 -0.03400
C 	C 	0.06910 0.02810 0.72054 0.01500
C 	C 	0.23840 0.07400 0.69041 -0.10300
C 	C 	0.22690 0.13840 0.61753 0.43800
C 	C 	0.22720 0.12200 0.39332 0.42200
C 	C 	0.23940 0.05110 0.32410 -0.08900
C 	C 	0.07150 0.00550 0.29413 0.00400
C 	C 	0.08290 0.94350 0.22792 -0.01600
C 	C 	0.41980 0.03400 0.28714 -0.01100
C 	C 	0.43090 0.97190 0.22054 -0.00600
C 	C 	0.26160 0.92600 0.19041 -0.08800
C 	C 	0.27310 0.86160 0.11753 0.43300
C 	C 	0.72720 0.37800 0.60668 0.41800
C 	C 	0.73940 0.44890 0.67590 -0.07900
C 	C 	0.57150 0.49450 0.70587 -0.01700
C 	C 	0.58290 0.55650 0.77208 0.00100
C 	C 	0.91980 0.46600 0.71286 -0.02000
C 	C 	0.93090 0.52810 0.77946 0.00500
C 	C 	0.76160 0.57400 0.80959 -0.09800
C 	C 	0.77310 0.63840 0.88247 0.43600
C 	C 	0.77280 0.62200 0.10668 0.41900
C 	C 	0.76060 0.55110 0.17590 -0.08300
C 	C 	0.92850 0.50550 0.20587 -0.01100
C 	C 	0.91710 0.44350 0.27208 -0.00800
C 	C 	0.58020 0.53400 0.21286 -0.01300
C 	C 	0.56910 0.47190 0.27946 -0.00500
C 	C 	0.73840 0.42600 0.30959 -0.09200
C 	C 	0.72690 0.36160 0.38247 0.43400
O 	O 	0.21969 0.31192 0.49691 -0.67700
O 	O 	0.38770 0.17118 0.58981 -0.50400
O 	O 	0.44210 0.85785 0.92067 -0.50600
O 	O 	0.05970 0.15637 0.58916 -0.51600
O 	O 	0.11220 0.84273 0.91962 -0.50000
O 	O 	0.28031 0.68808 0.99691 -0.67700
O 	O 	0.11230 0.82882 0.08981 -0.50400
O 	O 	0.05790 0.14215 0.42067 -0.50600
O 	O 	0.44030 0.84363 0.08916 -0.51600
O 	O 	0.38780 0.15727 0.41962 -0.50000
O 	O 	0.78031 0.81192 0.00309 -0.67700
O 	O 	0.61230 0.67118 0.91019 -0.50300
O 	O 	0.55790 0.35785 0.57933 -0.50800
O 	O 	0.94030 0.65637 0.91084 -0.51400
O 	O 	0.88780 0.34273 0.58038 -0.50000
O 	O 	0.71969 0.18808 0.50309 -0.67900
O 	O 	0.88770 0.32882 0.41019 -0.50500
O 	O 	0.94210 0.64215 0.07933 -0.50700
O 	O 	0.55970 0.34363 0.41084 -0.51700
O 	O 	0.61220 0.65727 0.08038 -0.49900
