data_crystal

_cell_length_a 6.82700
_cell_length_b 13.96500
_cell_length_c 16.07400
_cell_angle_alpha 90.00000
_cell_angle_beta  90.00000
_cell_angle_gamma 90.00000

_symmetry_space_group_name_	'P 1'
_symmetry_space_group_name_H-M	'P 1'

loop_
_symmetry_equiv_pos_as_xyz
  x,y,z

loop_
_atom_site_label
_atom_site_type_symbol
_atom_site_fract_x
_atom_site_fract_y
_atom_site_fract_z
_atom_site_charge
V 	V 	0.93487 0.23597 0.49865 1.83200
V 	V 	0.56513 0.76403 0.99865 1.83400
V 	V 	0.06513 0.73597 0.00135 1.83300
V 	V 	0.43487 0.26403 0.50135 1.83400
H 	H 	0.55120 0.98950 0.17270 0.06200
H 	H 	0.53260 0.09550 0.28230 0.05100
H 	H 	0.94450 0.06580 0.28470 0.04100
H 	H 	0.96620 0.95780 0.17760 0.07300
H 	H 	0.94880 0.01050 0.67270 0.05400
H 	H 	0.96740 0.90450 0.78230 0.05700
H 	H 	0.55550 0.93420 0.78470 0.05200
H 	H 	0.53380 0.04220 0.67760 0.06100
H 	H 	0.44880 0.48950 0.32730 0.05900
H 	H 	0.46740 0.59550 0.21770 0.05400
H 	H 	0.05550 0.56580 0.21530 0.04800
H 	H 	0.03380 0.45780 0.32240 0.06400
H 	H 	0.05120 0.51050 0.82730 0.05800
H 	H 	0.03260 0.40450 0.71770 0.05700
H 	H 	0.44450 0.43420 0.71530 0.05200
H 	H 	0.46620 0.54220 0.82240 0.06200
C 	C 	0.27560 0.88380 0.10150 0.37600
C 	C 	0.26280 0.95950 0.16610 -0.05700
C 	C 	0.43030 0.00320 0.19660 -0.03100
C 	C 	0.41910 0.06700 0.26200 0.00900
C 	C 	0.22490 0.15180 0.37180 0.42200
C 	C 	0.23640 0.08920 0.29840 -0.10500
C 	C 	0.06670 0.04890 0.26380 0.02500
C 	C 	0.07970 0.98480 0.19940 -0.04900
C 	C 	0.22440 0.11620 0.60150 0.38100
C 	C 	0.23720 0.04050 0.66610 -0.06800
C 	C 	0.06970 0.99680 0.69660 -0.01700
C 	C 	0.08090 0.93300 0.76200 -0.00600
C 	C 	0.27510 0.84820 0.87180 0.41700
C 	C 	0.26360 0.91080 0.79840 -0.09200
C 	C 	0.43330 0.95110 0.76380 -0.00100
C 	C 	0.42030 0.01520 0.69940 -0.02200
C 	C 	0.72440 0.38380 0.39850 0.38000
C 	C 	0.73720 0.45950 0.33390 -0.06600
C 	C 	0.56970 0.50320 0.30340 -0.02300
C 	C 	0.58090 0.56700 0.23800 0.00100
C 	C 	0.77510 0.65180 0.12820 0.41900
C 	C 	0.76360 0.58920 0.20160 -0.09600
C 	C 	0.93330 0.54890 0.23620 0.00800
C 	C 	0.92030 0.48480 0.30060 -0.02800
C 	C 	0.77560 0.61620 0.89850 0.38100
C 	C 	0.76280 0.54050 0.83390 -0.06900
C 	C 	0.93030 0.49680 0.80340 -0.01900
C 	C 	0.91910 0.43300 0.73800 -0.00600
C 	C 	0.72490 0.34820 0.62820 0.41700
C 	C 	0.73640 0.41080 0.70160 -0.09200
C 	C 	0.56670 0.45110 0.73620 0.00000
C 	C 	0.57970 0.51520 0.80060 -0.02300
O 	O 	0.71770 0.19270 0.49100 -0.68300
O 	O 	0.44640 0.86090 0.07400 -0.49000
O 	O 	0.05540 0.16920 0.40090 -0.50000
O 	O 	0.11310 0.84630 0.07490 -0.48300
O 	O 	0.38340 0.18420 0.40180 -0.49700
O 	O 	0.78230 0.80730 0.99100 -0.68100
O 	O 	0.05360 0.13910 0.57400 -0.48900
O 	O 	0.44460 0.83080 0.90090 -0.50100
O 	O 	0.38690 0.15370 0.57490 -0.48200
O 	O 	0.11660 0.81580 0.90180 -0.49600
O 	O 	0.28230 0.69270 0.00900 -0.68100
O 	O 	0.55360 0.36090 0.42600 -0.49100
O 	O 	0.94460 0.66920 0.09910 -0.49800
O 	O 	0.88690 0.34630 0.42510 -0.48300
O 	O 	0.61660 0.68420 0.09820 -0.49600
O 	O 	0.21770 0.30730 0.50900 -0.68100
O 	O 	0.94640 0.63910 0.92600 -0.49100
O 	O 	0.55540 0.33080 0.59910 -0.50100
O 	O 	0.61310 0.65370 0.92510 -0.48200
O 	O 	0.88340 0.31580 0.59820 -0.49800
