data_crystal

_cell_length_a 18.07840
_cell_length_b 18.75380
_cell_length_c 25.80110
_cell_angle_alpha 90.00000
_cell_angle_beta  108.99200
_cell_angle_gamma 90.00000

_symmetry_space_group_name_	'P 1'
_symmetry_space_group_name_H-M	'P 1'

loop_
_symmetry_equiv_pos_as_xyz
  x,y,z

loop_
_atom_site_label
_atom_site_type_symbol
_atom_site_fract_x
_atom_site_fract_y
_atom_site_fract_z
_atom_site_charge
C 	C 	0.55813 0.87744 0.55292 0.40000
C 	C 	0.60722 0.92909 0.53388 -0.10300
C 	C 	0.59760 0.99951 0.54308 -0.01700
H 	H 	0.56710 0.01230 0.56450 0.05500
C 	C 	0.63230 0.05258 0.52129 0.00300
H 	H 	0.62230 0.10030 0.52640 0.02800
C 	C 	0.68131 0.03492 0.49209 -0.11900
C 	C 	0.69644 0.96235 0.48381 0.05400
C 	C 	0.65794 0.90787 0.50397 0.04500
C 	C 	0.67190 0.83610 0.49305 -0.08100
H 	H 	0.64800 0.79980 0.50640 0.07100
C 	C 	0.71940 0.81890 0.46351 -0.03000
H 	H 	0.72700 0.77130 0.45660 0.04200
C 	C 	0.75700 0.87250 0.44335 -0.02300
H 	H 	0.78910 0.86020 0.42300 0.04400
C 	C 	0.74670 0.94210 0.45359 -0.08800
H 	H 	0.77270 0.97710 0.44070 0.07500
C 	C 	0.55881 0.61880 0.55772 0.40400
C 	C 	0.60550 0.56396 0.53942 -0.11100
C 	C 	0.67570 0.53390 0.57426 0.04900
C 	C 	0.71120 0.55530 0.62960 -0.08500
H 	H 	0.68730 0.59020 0.64430 0.07400
C 	C 	0.77870 0.52590 0.66110 -0.02300
H 	H 	0.80070 0.54080 0.69730 0.03900
C 	C 	0.81640 0.47320 0.64044 -0.02500
H 	H 	0.86280 0.45320 0.66300 0.04500
C 	C 	0.78560 0.45140 0.58785 -0.08600
H 	H 	0.81110 0.41650 0.57450 0.07700
C 	C 	0.71480 0.48109 0.55261 0.05200
C 	C 	0.67950 0.45862 0.49715 -0.12400
C 	C 	0.61160 0.48880 0.46592 -0.00700
H 	H 	0.58850 0.47310 0.43010 0.03900
C 	C 	0.57560 0.54220 0.48600 -0.01100
H 	H 	0.53050 0.56370 0.46290 0.05000
C 	C 	0.30723 0.74912 0.45136 0.42600
C 	C 	0.25727 0.74977 0.39175 -0.12300
C 	C 	0.17845 0.75040 0.38155 -0.00200
H 	H 	0.15930 0.75130 0.41090 0.03700
C 	C 	0.12530 0.74980 0.32802 -0.01000
H 	H 	0.07180 0.75080 0.32240 0.03300
C 	C 	0.15177 0.74760 0.28391 -0.11000
C 	C 	0.23341 0.74890 0.29258 0.03900
C 	C 	0.28755 0.75030 0.34646 0.06600
C 	C 	0.36860 0.75170 0.35160 -0.10500
H 	H 	0.40580 0.75220 0.38640 0.08900
C 	C 	0.39260 0.75230 0.30674 -0.00200
H 	H 	0.44580 0.75370 0.31140 0.00600
C 	C 	0.33900 0.75070 0.25419 -0.04800
H 	H 	0.35650 0.75040 0.22400 0.02400
C 	C 	0.26090 0.74970 0.24661 -0.06300
H 	H 	0.22520 0.74950 0.21130 0.05200
C 	C 	0.10583 0.10532 0.80743 0.39400
C 	C 	0.71090 0.09578 0.46609 0.40700
C 	C 	0.09295 0.74750 0.22704 0.43200
C 	C 	0.54483 0.75480 0.00687 0.39100
C 	C 	0.33230 0.11248 0.82904 0.39600
C 	C 	0.39137 0.88849 0.69230 0.40100
C 	C 	0.37358 0.94349 0.72925 -0.11100
C 	C 	0.32640 0.00014 0.70676 -0.01300
H 	H 	0.30150 0.00210 0.66910 0.04000
C 	C 	0.31527 0.05517 0.74006 -0.01000
H 	H 	0.28220 0.09290 0.72420 0.02900
C 	C 	0.35225 0.05456 0.79571 -0.14900
C 	C 	0.40364 0.99694 0.82073 0.05400
C 	C 	0.41306 0.94033 0.78685 0.04100
C 	C 	0.46390 0.88337 0.81078 -0.07500
H 	H 	0.46920 0.84560 0.78890 0.06400
C 	C 	0.50480 0.88280 0.86487 -0.02400
H 	H 	0.53810 0.84490 0.87990 0.04100
C 	C 	0.49730 0.93910 0.89850 -0.02300
H 	H 	0.52630 0.93860 0.93560 0.04600
C 	C 	0.44820 0.99430 0.87755 -0.08600
H 	H 	0.44360 0.03100 0.90060 0.06600
C 	C 	0.28701 0.74925 0.80344 0.41700
C 	C 	0.34625 0.75122 0.86006 -0.11500
C 	C 	0.40520 0.70250 0.87130 -0.00500
H 	H 	0.40490 0.66840 0.84500 0.04400
C 	C 	0.46560 0.70230 0.92089 -0.01500
H 	H 	0.50340 0.66660 0.92810 0.04700
C 	C 	0.47068 0.75411 0.95961 -0.11300
C 	C 	0.40946 0.80602 0.95047 0.04700
C 	C 	0.34526 0.80268 0.90079 0.04700
C 	C 	0.28350 0.85260 0.89227 -0.07900
H 	H 	0.24060 0.85060 0.86040 0.05800
C 	C 	0.28660 0.90370 0.93073 -0.02400
H 	H 	0.24610 0.93650 0.92460 0.04500
C 	C 	0.35020 0.90700 0.97916 -0.02700
H 	H 	0.35160 0.94220 0.00490 0.04700
C 	C 	0.40970 0.85960 0.98904 -0.08200
H 	H 	0.45130 0.86240 0.02170 0.06400
C 	C 	0.16430 0.88301 0.67035 0.39200
C 	C 	0.14295 0.93882 0.70395 -0.15300
C 	C 	0.18907 0.94469 0.75762 -0.01300
H 	H 	0.22840 0.91130 0.77210 0.03400
C 	C 	0.17860 0.99954 0.79127 -0.00400
H 	H 	0.21200 0.00340 0.82720 0.03900
C 	C 	0.11890 0.04768 0.77098 -0.11800
C 	C 	0.06660 0.04069 0.71658 0.04800
C 	C 	0.07960 0.98704 0.68171 0.04900
C 	C 	0.02690 0.98160 0.62738 -0.08700
H 	H 	0.03600 0.94790 0.60370 0.06500
C 	C 	0.96290 0.02520 0.60932 -0.03500
H 	H 	0.92840 0.02030 0.57380 0.05000
C 	C 	0.94910 0.07740 0.64418 -0.00800
H 	H 	0.90510 0.10640 0.63190 0.03900
C 	C 	0.00020 0.08550 0.69616 -0.10600
H 	H 	0.99130 0.12110 0.71850 0.08300
C 	C 	0.71200 0.40219 0.46996 0.39600
O 	O 	0.54408 0.89174 0.59594 -0.48600
O 	O 	0.53124 0.82501 0.52231 -0.49900
O 	O 	0.52750 0.66583 0.52358 -0.50700
O 	O 	0.55182 0.61233 0.60419 -0.49200
O 	O 	0.06610 0.80597 0.20897 -0.49900
O 	O 	0.07491 0.69050 0.20341 -0.49300
O 	O 	0.44218 0.75028 0.59838 -0.93900
O 	O 	0.05418 0.08814 0.82924 -0.45800
O 	O 	0.14071 0.16295 0.81486 -0.50200
O 	O 	0.38022 0.75019 0.46214 -0.51200
O 	O 	0.27404 0.74912 0.48654 -0.50900
O 	O 	0.66354 0.36142 0.43791 -0.54400
O 	O 	0.78490 0.39958 0.47839 -0.47600
O 	O 	0.66119 0.13910 0.43938 -0.54600
O 	O 	0.78350 0.09935 0.47338 -0.47700
O 	O 	0.24143 0.74847 0.60170 -0.92200
O 	O 	0.57594 0.69540 0.02302 -0.51100
O 	O 	0.57394 0.81405 0.02575 -0.50600
O 	O 	0.32789 0.09506 0.87501 -0.49200
O 	O 	0.31805 0.17473 0.80943 -0.60000
O 	O 	0.18499 0.82198 0.69121 -0.60500
O 	O 	0.16389 0.90016 0.62318 -0.48900
O 	O 	0.31546 0.74789 0.76542 -0.46500
O 	O 	0.21566 0.74787 0.79889 -0.50500
O 	O 	0.35940 0.82934 0.68341 -0.51600
O 	O 	0.44330 0.90865 0.67254 -0.46300
Zn	Zn	0.48641 0.66614 0.63899 1.22100
Zn	Zn	0.46504 0.74661 0.53021 1.21500
Zn	Zn	0.48563 0.83723 0.63584 1.22100
Zn	Zn	0.32723 0.75005 0.57159 1.19700
Zn	Zn	0.18215 0.66381 0.57089 1.21300
Zn	Zn	0.18019 0.83186 0.57082 1.21300
Zn	Zn	0.27644 0.74759 0.68387 1.22600
Zn	Zn	0.12390 0.75058 0.72922 1.15200
C 	C 	0.94187 0.37744 0.94708 0.40100
C 	C 	0.89278 0.42909 0.96612 -0.11000
C 	C 	0.90240 0.49951 0.95692 -0.01300
H 	H 	0.93290 0.51230 0.93550 0.05400
C 	C 	0.86770 0.55258 0.97871 0.00500
H 	H 	0.87770 0.60030 0.97360 0.02800
C 	C 	0.81869 0.53492 0.00791 -0.12100
C 	C 	0.80356 0.46235 0.01619 0.04400
C 	C 	0.84206 0.40787 0.99603 0.06300
C 	C 	0.82810 0.33610 0.00695 -0.10800
H 	H 	0.85200 0.29980 0.99360 0.08200
C 	C 	0.78060 0.31890 0.03649 -0.01100
H 	H 	0.77300 0.27130 0.04340 0.03500
C 	C 	0.74300 0.37250 0.05665 -0.03800
H 	H 	0.71090 0.36020 0.07700 0.04900
C 	C 	0.75330 0.44210 0.04641 -0.07700
H 	H 	0.72730 0.47710 0.05930 0.07200
C 	C 	0.94119 0.11880 0.94228 0.40200
C 	C 	0.89450 0.06396 0.96058 -0.10500
C 	C 	0.82430 0.03390 0.92574 0.04600
C 	C 	0.78880 0.05530 0.87040 -0.08100
H 	H 	0.81270 0.09020 0.85570 0.07200
C 	C 	0.72130 0.02590 0.83890 -0.02600
H 	H 	0.69930 0.04080 0.80270 0.04000
C 	C 	0.68360 0.97320 0.85956 -0.02100
H 	H 	0.63720 0.95320 0.83700 0.04300
C 	C 	0.71440 0.95140 0.91215 -0.09000
H 	H 	0.68890 0.91650 0.92550 0.07900
C 	C 	0.78520 0.98109 0.94739 0.06000
C 	C 	0.82050 0.95862 0.00285 -0.13100
C 	C 	0.88840 0.98880 0.03408 -0.00800
H 	H 	0.91150 0.97310 0.06990 0.03700
C 	C 	0.92440 0.04220 0.01400 -0.01400
H 	H 	0.96950 0.06370 0.03710 0.05000
C 	C 	0.19277 0.24912 0.04864 0.42500
C 	C 	0.24273 0.24977 0.10825 -0.12200
C 	C 	0.32155 0.25040 0.11845 -0.00300
H 	H 	0.34070 0.25130 0.08910 0.03700
C 	C 	0.37470 0.24980 0.17198 -0.00900
H 	H 	0.42820 0.25080 0.17760 0.03200
C 	C 	0.34823 0.24760 0.21609 -0.11100
C 	C 	0.26659 0.24890 0.20742 0.04000
C 	C 	0.21245 0.25030 0.15354 0.06500
C 	C 	0.13140 0.25170 0.14840 -0.10400
H 	H 	0.09420 0.25220 0.11360 0.08900
C 	C 	0.10740 0.25230 0.19326 -0.00200
H 	H 	0.05420 0.25370 0.18860 0.00700
C 	C 	0.16100 0.25070 0.24581 -0.04800
H 	H 	0.14350 0.25040 0.27600 0.02400
C 	C 	0.23910 0.24970 0.25339 -0.06300
H 	H 	0.27480 0.24950 0.28870 0.05200
C 	C 	0.39417 0.60532 0.69257 0.38900
C 	C 	0.78910 0.59578 0.03391 0.40700
C 	C 	0.40705 0.24750 0.27296 0.43300
C 	C 	0.95517 0.25480 0.49313 0.39300
C 	C 	0.16770 0.61248 0.67096 0.39400
C 	C 	0.10863 0.38849 0.80770 0.40300
C 	C 	0.12642 0.44349 0.77075 -0.11900
C 	C 	0.17360 0.50014 0.79324 -0.00400
H 	H 	0.19850 0.50210 0.83090 0.03700
C 	C 	0.18473 0.55517 0.75994 -0.01700
H 	H 	0.21780 0.59290 0.77580 0.03200
C 	C 	0.14775 0.55456 0.70429 -0.14200
C 	C 	0.09636 0.49694 0.67927 0.04500
C 	C 	0.08694 0.44033 0.71315 0.05000
C 	C 	0.03610 0.38337 0.68922 -0.09000
H 	H 	0.03080 0.34560 0.71110 0.06800
C 	C 	0.99520 0.38280 0.63513 -0.00400
H 	H 	0.96190 0.34490 0.62010 0.03500
C 	C 	0.00270 0.43910 0.60150 -0.04000
H 	H 	0.97370 0.43860 0.56440 0.05200
C 	C 	0.05180 0.49430 0.62245 -0.07600
H 	H 	0.05640 0.53100 0.59940 0.06400
C 	C 	0.21299 0.24925 0.69656 0.41700
C 	C 	0.15375 0.25122 0.63994 -0.11600
C 	C 	0.09480 0.20250 0.62870 -0.00200
H 	H 	0.09510 0.16840 0.65500 0.04200
C 	C 	0.03440 0.20230 0.57911 -0.02100
H 	H 	0.99660 0.16660 0.57190 0.05100
C 	C 	0.02932 0.25411 0.54039 -0.11400
C 	C 	0.09054 0.30602 0.54953 0.04800
C 	C 	0.15474 0.30268 0.59921 0.04700
C 	C 	0.21650 0.35260 0.60773 -0.07800
H 	H 	0.25940 0.35060 0.63960 0.05800
C 	C 	0.21340 0.40370 0.56927 -0.02600
H 	H 	0.25390 0.43650 0.57540 0.04400
C 	C 	0.14980 0.40700 0.52084 -0.02400
H 	H 	0.14840 0.44220 0.49510 0.04500
C 	C 	0.09030 0.35960 0.51096 -0.08400
H 	H 	0.04870 0.36240 0.47830 0.06400
C 	C 	0.33570 0.38301 0.82965 0.39500
C 	C 	0.35705 0.43882 0.79605 -0.16000
C 	C 	0.31093 0.44469 0.74238 -0.00100
H 	H 	0.27160 0.41130 0.72790 0.02900
C 	C 	0.32140 0.49954 0.70873 -0.02400
H 	H 	0.28800 0.50340 0.67280 0.04800
C 	C 	0.38110 0.54768 0.72902 -0.10400
C 	C 	0.43340 0.54069 0.78342 0.03500
C 	C 	0.42040 0.48704 0.81829 0.05700
C 	C 	0.47310 0.48160 0.87262 -0.09900
H 	H 	0.46400 0.44790 0.89630 0.06900
C 	C 	0.53710 0.52520 0.89068 -0.02000
H 	H 	0.57160 0.52030 0.92620 0.04500
C 	C 	0.55090 0.57740 0.85582 -0.03400
H 	H 	0.59490 0.60640 0.86810 0.04700
C 	C 	0.49980 0.58550 0.80384 -0.07500
H 	H 	0.50870 0.62110 0.78150 0.06900
C 	C 	0.78800 0.90219 0.03004 0.39800
O 	O 	0.95592 0.39174 0.90406 -0.48400
O 	O 	0.96876 0.32501 0.97769 -0.49700
O 	O 	0.97250 0.16583 0.97642 -0.50300
O 	O 	0.94818 0.11233 0.89581 -0.48800
O 	O 	0.43390 0.30597 0.29103 -0.50200
O 	O 	0.42509 0.19050 0.29659 -0.49500
O 	O 	0.05782 0.25028 0.90162 -0.94200
O 	O 	0.44582 0.58814 0.67076 -0.45500
O 	O 	0.35929 0.66295 0.68514 -0.50100
O 	O 	0.11978 0.25019 0.03786 -0.50900
O 	O 	0.22596 0.24912 0.01346 -0.50600
O 	O 	0.83646 0.86142 0.06209 -0.54600
O 	O 	0.71510 0.89958 0.02161 -0.47700
O 	O 	0.83881 0.63910 0.06062 -0.54700
O 	O 	0.71650 0.59935 0.02662 -0.47800
O 	O 	0.25857 0.24847 0.89830 -0.92200
O 	O 	0.92406 0.19540 0.47698 -0.51100
O 	O 	0.92606 0.31405 0.47425 -0.50600
O 	O 	0.17211 0.59506 0.62499 -0.49100
O 	O 	0.18195 0.67473 0.69057 -0.59900
O 	O 	0.31501 0.32198 0.80879 -0.60600
O 	O 	0.33611 0.40016 0.87682 -0.49000
O 	O 	0.18454 0.24789 0.73458 -0.46500
O 	O 	0.28434 0.24787 0.70111 -0.50500
O 	O 	0.14060 0.32934 0.81659 -0.51700
O 	O 	0.05670 0.40865 0.82746 -0.46500
Zn	Zn	0.01359 0.16614 0.86101 1.21900
Zn	Zn	0.03496 0.24661 0.96979 1.21200
Zn	Zn	0.01437 0.33723 0.86416 1.22000
Zn	Zn	0.17277 0.25005 0.92841 1.19700
Zn	Zn	0.31785 0.16381 0.92911 1.21300
Zn	Zn	0.31981 0.33186 0.92918 1.21300
Zn	Zn	0.22356 0.24759 0.81613 1.22600
Zn	Zn	0.37610 0.25058 0.77078 1.15200
C 	C 	0.44187 0.12256 0.44708 0.39900
C 	C 	0.39278 0.07091 0.46612 -0.10400
C 	C 	0.40240 0.00049 0.45692 -0.01800
H 	H 	0.43290 0.98770 0.43550 0.05500
C 	C 	0.36770 0.94742 0.47871 0.00300
H 	H 	0.37770 0.89970 0.47360 0.02800
C 	C 	0.31869 0.96508 0.50791 -0.11900
C 	C 	0.30356 0.03765 0.51619 0.05400
C 	C 	0.34206 0.09213 0.49603 0.04500
C 	C 	0.32810 0.16390 0.50695 -0.08100
H 	H 	0.35200 0.20020 0.49360 0.07100
C 	C 	0.28060 0.18110 0.53649 -0.03000
H 	H 	0.27300 0.22870 0.54340 0.04200
C 	C 	0.24300 0.12750 0.55665 -0.02300
H 	H 	0.21090 0.13980 0.57700 0.04400
C 	C 	0.25330 0.05790 0.54641 -0.08800
H 	H 	0.22730 0.02290 0.55930 0.07500
C 	C 	0.44119 0.38120 0.44228 0.40400
C 	C 	0.39450 0.43604 0.46058 -0.11100
C 	C 	0.32430 0.46610 0.42574 0.04900
C 	C 	0.28880 0.44470 0.37040 -0.08500
H 	H 	0.31270 0.40980 0.35570 0.07400
C 	C 	0.22130 0.47410 0.33890 -0.02300
H 	H 	0.19930 0.45920 0.30270 0.03900
C 	C 	0.18360 0.52680 0.35956 -0.02500
H 	H 	0.13720 0.54680 0.33700 0.04500
C 	C 	0.21440 0.54860 0.41215 -0.08600
H 	H 	0.18890 0.58350 0.42550 0.07700
C 	C 	0.28520 0.51891 0.44739 0.05200
C 	C 	0.32050 0.54138 0.50285 -0.12400
C 	C 	0.38840 0.51120 0.53408 -0.00700
H 	H 	0.41150 0.52690 0.56990 0.03900
C 	C 	0.42440 0.45780 0.51400 -0.01100
H 	H 	0.46950 0.43630 0.53710 0.05000
C 	C 	0.69277 0.25088 0.54864 0.42600
C 	C 	0.74273 0.25023 0.60825 -0.12300
C 	C 	0.82155 0.24960 0.61845 -0.00200
H 	H 	0.84070 0.24870 0.58910 0.03700
C 	C 	0.87470 0.25020 0.67198 -0.01000
H 	H 	0.92820 0.24920 0.67760 0.03300
C 	C 	0.84823 0.25240 0.71609 -0.11000
C 	C 	0.76659 0.25110 0.70742 0.03900
C 	C 	0.71245 0.24970 0.65354 0.06600
C 	C 	0.63140 0.24830 0.64840 -0.10500
H 	H 	0.59420 0.24780 0.61360 0.08900
C 	C 	0.60740 0.24770 0.69326 -0.00200
H 	H 	0.55420 0.24630 0.68860 0.00600
C 	C 	0.66100 0.24930 0.74581 -0.04800
H 	H 	0.64350 0.24960 0.77600 0.02400
C 	C 	0.73910 0.25030 0.75339 -0.06300
H 	H 	0.77480 0.25050 0.78870 0.05200
C 	C 	0.89417 0.89468 0.19257 0.39300
C 	C 	0.28910 0.90422 0.53391 0.40700
C 	C 	0.90705 0.25250 0.77296 0.43200
C 	C 	0.45517 0.24520 0.99313 0.39100
C 	C 	0.66770 0.88752 0.17096 0.39600
C 	C 	0.60863 0.11151 0.30770 0.40100
C 	C 	0.62642 0.05651 0.27075 -0.11100
C 	C 	0.67360 0.99986 0.29324 -0.01300
H 	H 	0.69850 0.99790 0.33090 0.04000
C 	C 	0.68473 0.94483 0.25994 -0.01000
H 	H 	0.71780 0.90710 0.27580 0.02900
C 	C 	0.64775 0.94544 0.20429 -0.14900
C 	C 	0.59636 0.00306 0.17927 0.05400
C 	C 	0.58694 0.05967 0.21315 0.04100
C 	C 	0.53610 0.11663 0.18922 -0.07500
H 	H 	0.53080 0.15440 0.21110 0.06400
C 	C 	0.49520 0.11720 0.13513 -0.02400
H 	H 	0.46190 0.15510 0.12010 0.04100
C 	C 	0.50270 0.06090 0.10150 -0.02300
H 	H 	0.47370 0.06140 0.06440 0.04600
C 	C 	0.55180 0.00570 0.12245 -0.08600
H 	H 	0.55640 0.96900 0.09940 0.06600
C 	C 	0.71299 0.25075 0.19656 0.41700
C 	C 	0.65375 0.24878 0.13994 -0.11500
C 	C 	0.59480 0.29750 0.12870 -0.00500
H 	H 	0.59510 0.33160 0.15500 0.04400
C 	C 	0.53440 0.29770 0.07911 -0.01500
H 	H 	0.49660 0.33340 0.07190 0.04700
C 	C 	0.52932 0.24589 0.04039 -0.11300
C 	C 	0.59054 0.19398 0.04953 0.04700
C 	C 	0.65474 0.19732 0.09921 0.04700
C 	C 	0.71650 0.14740 0.10773 -0.07900
H 	H 	0.75940 0.14940 0.13960 0.05800
C 	C 	0.71340 0.09630 0.06927 -0.02400
H 	H 	0.75390 0.06350 0.07540 0.04500
C 	C 	0.64980 0.09300 0.02084 -0.02700
H 	H 	0.64840 0.05780 0.99510 0.04700
C 	C 	0.59030 0.14040 0.01096 -0.08200
H 	H 	0.54870 0.13760 0.97830 0.06400
C 	C 	0.83570 0.11699 0.32965 0.39200
C 	C 	0.85705 0.06118 0.29605 -0.15300
C 	C 	0.81093 0.05531 0.24238 -0.01300
H 	H 	0.77160 0.08870 0.22790 0.03400
C 	C 	0.82140 0.00046 0.20873 -0.00400
H 	H 	0.78800 0.99660 0.17280 0.03900
C 	C 	0.88110 0.95232 0.22902 -0.11800
C 	C 	0.93340 0.95931 0.28342 0.04800
C 	C 	0.92040 0.01296 0.31829 0.04900
C 	C 	0.97310 0.01840 0.37262 -0.08700
H 	H 	0.96400 0.05210 0.39630 0.06500
C 	C 	0.03710 0.97480 0.39068 -0.03500
H 	H 	0.07160 0.97970 0.42620 0.05000
C 	C 	0.05090 0.92260 0.35582 -0.00800
H 	H 	0.09490 0.89360 0.36810 0.03900
C 	C 	0.99980 0.91450 0.30384 -0.10600
H 	H 	0.00870 0.87890 0.28150 0.08300
C 	C 	0.28800 0.59781 0.53004 0.39600
O 	O 	0.45592 0.10826 0.40406 -0.48600
O 	O 	0.46876 0.17499 0.47769 -0.49900
O 	O 	0.47250 0.33417 0.47642 -0.50700
O 	O 	0.44818 0.38767 0.39581 -0.49200
O 	O 	0.93390 0.19403 0.79103 -0.49900
O 	O 	0.92509 0.30950 0.79659 -0.49300
O 	O 	0.55782 0.24972 0.40162 -0.93900
O 	O 	0.94582 0.91186 0.17076 -0.45800
O 	O 	0.85929 0.83705 0.18514 -0.50200
O 	O 	0.61978 0.24981 0.53786 -0.51200
O 	O 	0.72596 0.25088 0.51346 -0.50900
O 	O 	0.33646 0.63858 0.56209 -0.54400
O 	O 	0.21510 0.60042 0.52161 -0.47600
O 	O 	0.33881 0.86090 0.56062 -0.54600
O 	O 	0.21650 0.90065 0.52662 -0.47700
O 	O 	0.75857 0.25153 0.39830 -0.92200
O 	O 	0.42406 0.30460 0.97698 -0.51100
O 	O 	0.42606 0.18595 0.97425 -0.50600
O 	O 	0.67211 0.90494 0.12499 -0.49200
O 	O 	0.68195 0.82527 0.19057 -0.60000
O 	O 	0.81501 0.17802 0.30879 -0.60600
O 	O 	0.83611 0.09984 0.37682 -0.48900
O 	O 	0.68454 0.25211 0.23458 -0.46500
O 	O 	0.78434 0.25213 0.20111 -0.50500
O 	O 	0.64060 0.17066 0.31659 -0.51600
O 	O 	0.55670 0.09135 0.32746 -0.46300
Zn	Zn	0.51359 0.33386 0.36101 1.22100
Zn	Zn	0.53496 0.25339 0.46979 1.21500
Zn	Zn	0.51437 0.16277 0.36416 1.22100
Zn	Zn	0.67277 0.24995 0.42841 1.19700
Zn	Zn	0.81785 0.33619 0.42911 1.21300
Zn	Zn	0.81981 0.16814 0.42918 1.21300
Zn	Zn	0.72357 0.25241 0.31613 1.22600
Zn	Zn	0.87610 0.24942 0.27078 1.15200
C 	C 	0.05813 0.62256 0.05292 0.40100
C 	C 	0.10722 0.57091 0.03388 -0.11000
C 	C 	0.09760 0.50049 0.04308 -0.01300
H 	H 	0.06710 0.48770 0.06450 0.05400
C 	C 	0.13230 0.44742 0.02129 0.00500
H 	H 	0.12230 0.39970 0.02640 0.02800
C 	C 	0.18131 0.46508 0.99209 -0.12100
C 	C 	0.19644 0.53765 0.98381 0.04400
C 	C 	0.15794 0.59213 0.00397 0.06300
C 	C 	0.17190 0.66390 0.99305 -0.10800
H 	H 	0.14800 0.70020 0.00640 0.08200
C 	C 	0.21940 0.68110 0.96351 -0.01100
H 	H 	0.22700 0.72870 0.95660 0.03500
C 	C 	0.25700 0.62750 0.94335 -0.03800
H 	H 	0.28910 0.63980 0.92300 0.04900
C 	C 	0.24670 0.55790 0.95359 -0.07700
H 	H 	0.27270 0.52290 0.94070 0.07200
C 	C 	0.05881 0.88120 0.05772 0.40200
C 	C 	0.10550 0.93604 0.03942 -0.10500
C 	C 	0.17570 0.96610 0.07426 0.04600
C 	C 	0.21120 0.94470 0.12960 -0.08100
H 	H 	0.18730 0.90980 0.14430 0.07200
C 	C 	0.27870 0.97410 0.16110 -0.02600
H 	H 	0.30070 0.95920 0.19730 0.04000
C 	C 	0.31640 0.02680 0.14044 -0.02100
H 	H 	0.36280 0.04680 0.16300 0.04300
C 	C 	0.28560 0.04860 0.08785 -0.09000
H 	H 	0.31110 0.08350 0.07450 0.07900
C 	C 	0.21480 0.01891 0.05261 0.06000
C 	C 	0.17950 0.04138 0.99715 -0.13100
C 	C 	0.11160 0.01120 0.96592 -0.00800
H 	H 	0.08850 0.02690 0.93010 0.03700
C 	C 	0.07560 0.95780 0.98600 -0.01400
H 	H 	0.03050 0.93630 0.96290 0.05000
C 	C 	0.80723 0.75088 0.95136 0.42500
C 	C 	0.75727 0.75023 0.89175 -0.12200
C 	C 	0.67845 0.74960 0.88155 -0.00300
H 	H 	0.65930 0.74870 0.91090 0.03700
C 	C 	0.62530 0.75020 0.82802 -0.00900
H 	H 	0.57180 0.74920 0.82240 0.03200
C 	C 	0.65177 0.75240 0.78391 -0.11100
C 	C 	0.73341 0.75110 0.79258 0.04000
C 	C 	0.78755 0.74970 0.84646 0.06500
C 	C 	0.86860 0.74830 0.85160 -0.10400
H 	H 	0.90580 0.74780 0.88640 0.08900
C 	C 	0.89260 0.74770 0.80674 -0.00200
H 	H 	0.94580 0.74630 0.81140 0.00700
C 	C 	0.83900 0.74930 0.75419 -0.04800
H 	H 	0.85650 0.74960 0.72400 0.02400
C 	C 	0.76090 0.75030 0.74661 -0.06300
H 	H 	0.72520 0.75050 0.71130 0.05200
C 	C 	0.60583 0.39468 0.30743 0.38900
C 	C 	0.21090 0.40422 0.96609 0.40700
C 	C 	0.59295 0.75250 0.72704 0.43300
C 	C 	0.04483 0.74520 0.50687 0.39300
C 	C 	0.83230 0.38752 0.32904 0.39400
C 	C 	0.89137 0.61151 0.19230 0.40300
C 	C 	0.87358 0.55651 0.22925 -0.11900
C 	C 	0.82640 0.49986 0.20676 -0.00400
H 	H 	0.80150 0.49790 0.16910 0.03700
C 	C 	0.81527 0.44483 0.24006 -0.01700
H 	H 	0.78220 0.40710 0.22420 0.03200
C 	C 	0.85225 0.44544 0.29571 -0.14200
C 	C 	0.90364 0.50306 0.32073 0.04500
C 	C 	0.91306 0.55967 0.28685 0.05000
C 	C 	0.96390 0.61663 0.31078 -0.09000
H 	H 	0.96920 0.65440 0.28890 0.06800
C 	C 	0.00480 0.61720 0.36487 -0.00400
H 	H 	0.03810 0.65510 0.37990 0.03500
C 	C 	0.99730 0.56090 0.39850 -0.04000
H 	H 	0.02630 0.56140 0.43560 0.05200
C 	C 	0.94820 0.50570 0.37755 -0.07600
H 	H 	0.94360 0.46900 0.40060 0.06400
C 	C 	0.78701 0.75075 0.30344 0.41700
C 	C 	0.84625 0.74878 0.36006 -0.11600
C 	C 	0.90520 0.79750 0.37130 -0.00200
H 	H 	0.90490 0.83160 0.34500 0.04200
C 	C 	0.96560 0.79770 0.42089 -0.02100
H 	H 	0.00340 0.83340 0.42810 0.05100
C 	C 	0.97068 0.74589 0.45961 -0.11400
C 	C 	0.90946 0.69398 0.45047 0.04800
C 	C 	0.84526 0.69732 0.40079 0.04700
C 	C 	0.78350 0.64740 0.39227 -0.07800
H 	H 	0.74060 0.64940 0.36040 0.05800
C 	C 	0.78660 0.59630 0.43073 -0.02600
H 	H 	0.74610 0.56350 0.42460 0.04400
C 	C 	0.85020 0.59300 0.47916 -0.02400
H 	H 	0.85160 0.55780 0.50490 0.04500
C 	C 	0.90970 0.64040 0.48904 -0.08400
H 	H 	0.95130 0.63760 0.52170 0.06400
C 	C 	0.66430 0.61699 0.17035 0.39500
C 	C 	0.64295 0.56118 0.20395 -0.16000
C 	C 	0.68907 0.55531 0.25762 -0.00100
H 	H 	0.72840 0.58870 0.27210 0.02900
C 	C 	0.67860 0.50046 0.29127 -0.02400
H 	H 	0.71200 0.49660 0.32720 0.04800
C 	C 	0.61890 0.45232 0.27098 -0.10400
C 	C 	0.56660 0.45931 0.21658 0.03500
C 	C 	0.57960 0.51296 0.18171 0.05700
C 	C 	0.52690 0.51840 0.12738 -0.09900
H 	H 	0.53600 0.55210 0.10370 0.06900
C 	C 	0.46290 0.47480 0.10932 -0.02000
H 	H 	0.42840 0.47970 0.07380 0.04500
C 	C 	0.44910 0.42260 0.14418 -0.03400
H 	H 	0.40510 0.39360 0.13190 0.04700
C 	C 	0.50020 0.41450 0.19616 -0.07500
H 	H 	0.49130 0.37890 0.21850 0.06900
C 	C 	0.21200 0.09781 0.96996 0.39800
O 	O 	0.04408 0.60826 0.09594 -0.48400
O 	O 	0.03124 0.67499 0.02231 -0.49700
O 	O 	0.02750 0.83417 0.02358 -0.50300
O 	O 	0.05182 0.88767 0.10419 -0.48800
O 	O 	0.56610 0.69403 0.70897 -0.50200
O 	O 	0.57491 0.80950 0.70341 -0.49500
O 	O 	0.94218 0.74972 0.09838 -0.94200
O 	O 	0.55418 0.41186 0.32924 -0.45500
O 	O 	0.64071 0.33705 0.31486 -0.50100
O 	O 	0.88022 0.74981 0.96214 -0.50900
O 	O 	0.77404 0.75088 0.98654 -0.50600
O 	O 	0.16354 0.13858 0.93791 -0.54600
O 	O 	0.28490 0.10042 0.97839 -0.47700
O 	O 	0.16119 0.36090 0.93938 -0.54700
O 	O 	0.28350 0.40065 0.97338 -0.47800
O 	O 	0.74143 0.75153 0.10170 -0.92200
O 	O 	0.07594 0.80460 0.52302 -0.51100
O 	O 	0.07394 0.68595 0.52575 -0.50600
O 	O 	0.82789 0.40494 0.37501 -0.49100
O 	O 	0.81805 0.32527 0.30943 -0.60000
O 	O 	0.68499 0.67802 0.19121 -0.60600
O 	O 	0.66389 0.59984 0.12318 -0.49000
O 	O 	0.81546 0.75211 0.26542 -0.46500
O 	O 	0.71566 0.75213 0.29889 -0.50500
O 	O 	0.85940 0.67066 0.18341 -0.51700
O 	O 	0.94330 0.59135 0.17254 -0.46500
Zn	Zn	0.98641 0.83386 0.13899 1.21900
Zn	Zn	0.96504 0.75339 0.03021 1.21200
Zn	Zn	0.98563 0.66277 0.13584 1.22000
Zn	Zn	0.82723 0.74995 0.07159 1.19700
Zn	Zn	0.68215 0.83619 0.07089 1.21300
Zn	Zn	0.68019 0.66814 0.07082 1.21300
Zn	Zn	0.77643 0.75241 0.18387 1.22600
Zn	Zn	0.62390 0.74942 0.22922 1.15200
