data_crystal

_cell_length_a 16.13000
_cell_length_b 16.87870
_cell_length_c 16.87870
_cell_angle_alpha 92.37650
_cell_angle_beta  100.83800
_cell_angle_gamma 79.16200

_symmetry_space_group_name_	'P 1'
_symmetry_space_group_name_H-M	'P 1'

loop_
_symmetry_equiv_pos_as_xyz
  x,y,z

loop_
_atom_site_label
_atom_site_type_symbol
_atom_site_fract_x
_atom_site_fract_y
_atom_site_fract_z
_atom_site_charge
Co	Co	0.23666 0.23746 0.78214 1.15500
Co	Co	0.26334 0.78214 0.23746 1.15500
Co	Co	0.76334 0.76254 0.21786 1.15500
Co	Co	0.73666 0.21786 0.76254 1.15500
H 	H 	0.41460 0.48550 0.05490 0.12700
H 	H 	0.48810 0.15110 0.67950 0.05100
H 	H 	0.52810 0.39660 0.41700 0.13600
H 	H 	0.57020 0.07090 0.59730 0.05700
H 	H 	0.35980 0.99530 0.47690 0.06100
H 	H 	0.27790 0.07000 0.56220 0.04200
H 	H 	0.99280 0.16490 0.84390 0.04700
H 	H 	0.92080 0.09960 0.91880 0.06700
H 	H 	0.34940 0.36090 0.82090 -0.02700
H 	H 	0.23650 0.26340 0.96480 -0.01700
H 	H 	0.29110 0.33810 0.07270 0.13500
H 	H 	0.41620 0.42960 0.92320 0.11000
H 	H 	0.41970 0.58980 0.13300 0.03300
H 	H 	0.49210 0.67040 0.22020 0.06700
H 	H 	0.57210 0.62340 0.34500 0.04700
H 	H 	0.48710 0.41040 0.29680 0.04000
H 	H 	0.58980 0.23050 0.62470 -0.02900
H 	H 	0.52380 0.30270 0.51150 0.12100
H 	H 	0.70410 0.43960 0.55780 0.15800
H 	H 	0.76190 0.36610 0.67150 -0.02200
H 	H 	0.13540 0.94520 0.00380 0.06900
H 	H 	0.20810 0.01520 0.93240 0.03900
H 	H 	0.08540 0.05490 0.48550 0.12700
H 	H 	0.01190 0.67950 0.15110 0.05100
H 	H 	0.97190 0.41700 0.39660 0.13600
H 	H 	0.92980 0.59730 0.07090 0.05700
H 	H 	0.14020 0.47690 0.99530 0.06000
H 	H 	0.22210 0.56220 0.07000 0.04200
H 	H 	0.50720 0.84390 0.16490 0.04600
H 	H 	0.57920 0.91880 0.09960 0.06800
H 	H 	0.15060 0.82090 0.36090 -0.02700
H 	H 	0.26350 0.96480 0.26340 -0.01700
H 	H 	0.20890 0.07270 0.33810 0.13500
H 	H 	0.08380 0.92320 0.42960 0.11000
H 	H 	0.08030 0.13300 0.58980 0.03300
H 	H 	0.00790 0.22020 0.67040 0.06700
H 	H 	0.92790 0.34500 0.62340 0.04700
H 	H 	0.01290 0.29680 0.41040 0.04000
H 	H 	0.91020 0.62470 0.23050 -0.02900
H 	H 	0.97620 0.51150 0.30270 0.12100
H 	H 	0.79590 0.55780 0.43960 0.15800
H 	H 	0.73810 0.67150 0.36610 -0.02200
H 	H 	0.36460 0.00380 0.94520 0.06900
H 	H 	0.29190 0.93240 0.01520 0.03900
H 	H 	0.58540 0.51450 0.94510 0.12700
H 	H 	0.51190 0.84890 0.32050 0.05100
H 	H 	0.47190 0.60340 0.58300 0.13600
H 	H 	0.42980 0.92910 0.40270 0.05700
H 	H 	0.64020 0.00470 0.52310 0.06100
H 	H 	0.72210 0.93000 0.43780 0.04200
H 	H 	0.00720 0.83510 0.15610 0.04700
H 	H 	0.07920 0.90040 0.08120 0.06700
H 	H 	0.65060 0.63910 0.17910 -0.02700
H 	H 	0.76350 0.73660 0.03520 -0.01700
H 	H 	0.70890 0.66190 0.92730 0.13500
H 	H 	0.58380 0.57040 0.07680 0.11000
H 	H 	0.58030 0.41020 0.86700 0.03300
H 	H 	0.50790 0.32960 0.77980 0.06700
H 	H 	0.42790 0.37660 0.65500 0.04700
H 	H 	0.51290 0.58960 0.70320 0.04000
H 	H 	0.41020 0.76950 0.37530 -0.02900
H 	H 	0.47620 0.69730 0.48850 0.12100
H 	H 	0.29590 0.56040 0.44220 0.15800
H 	H 	0.23810 0.63390 0.32850 -0.02200
H 	H 	0.86460 0.05480 0.99620 0.06900
H 	H 	0.79190 0.98480 0.06760 0.03900
H 	H 	0.91460 0.94510 0.51450 0.12700
H 	H 	0.98810 0.32050 0.84890 0.05100
H 	H 	0.02810 0.58300 0.60340 0.13600
H 	H 	0.07020 0.40270 0.92910 0.05700
H 	H 	0.85980 0.52310 0.00470 0.06000
H 	H 	0.77790 0.43780 0.93000 0.04200
H 	H 	0.49280 0.15610 0.83510 0.04600
H 	H 	0.42080 0.08120 0.90040 0.06800
H 	H 	0.84940 0.17910 0.63910 -0.02700
H 	H 	0.73650 0.03520 0.73660 -0.01700
H 	H 	0.79110 0.92730 0.66190 0.13500
H 	H 	0.91620 0.07680 0.57040 0.11000
H 	H 	0.91970 0.86700 0.41020 0.03300
H 	H 	0.99210 0.77980 0.32960 0.06700
H 	H 	0.07210 0.65500 0.37660 0.04700
H 	H 	0.98710 0.70320 0.58960 0.04000
H 	H 	0.08980 0.37530 0.76950 -0.02900
H 	H 	0.02380 0.48850 0.69730 0.12100
H 	H 	0.20410 0.44220 0.56040 0.15800
H 	H 	0.26190 0.32850 0.63390 -0.02200
H 	H 	0.63540 0.99620 0.05480 0.06900
H 	H 	0.70810 0.06760 0.98480 0.03900
C 	C 	0.32144 0.16395 0.68565 0.30000
C 	C 	0.37500 0.11704 0.63040 -0.08100
C 	C 	0.46180 0.11819 0.63909 0.01100
C 	C 	0.51013 0.07156 0.58904 -0.08000
C 	C 	0.47343 0.02547 0.52691 0.03400
C 	C 	0.38670 0.02642 0.51882 -0.08500
C 	C 	0.33760 0.07100 0.56940 0.01900
C 	C 	0.16130 0.15822 0.85522 0.29900
C 	C 	0.02380 0.12294 0.87956 0.01600
C 	C 	0.97990 0.07874 0.91958 -0.08700
C 	C 	0.33890 0.35440 0.87360 0.14300
C 	C 	0.27260 0.29933 0.95603 0.13200
C 	C 	0.30510 0.34366 0.02134 -0.23400
C 	C 	0.35810 0.39589 0.01075 0.22600
C 	C 	0.37670 0.39770 0.93350 -0.24000
C 	C 	0.40570 0.43324 0.15172 0.23800
C 	C 	0.45010 0.49088 0.20514 -0.07000
C 	C 	0.45020 0.56942 0.18398 0.00200
C 	C 	0.49320 0.61661 0.23547 -0.07600
C 	C 	0.53970 0.58963 0.31071 0.00400
C 	C 	0.53750 0.51173 0.33477 -0.07000
C 	C 	0.49070 0.46288 0.28088 0.00800
C 	C 	0.61370 0.27443 0.61137 0.14400
C 	C 	0.57450 0.31662 0.54298 -0.25100
C 	C 	0.60800 0.37918 0.51926 0.25400
C 	C 	0.67850 0.39633 0.56979 -0.26500
C 	C 	0.71270 0.35177 0.63787 0.16600
C 	C 	0.58730 0.48535 0.41653 0.24700
C 	C 	0.10780 0.10660 0.89100 -0.07600
C 	C 	0.01340 0.00920 0.95920 0.03800
C 	C 	0.10500 0.98890 0.97030 -0.08200
C 	C 	0.14860 0.03370 0.93170 0.01400
C 	C 	0.17856 0.68565 0.16395 0.30000
C 	C 	0.12500 0.63040 0.11704 -0.08100
C 	C 	0.03820 0.63909 0.11819 0.01100
C 	C 	0.98987 0.58904 0.07156 -0.08100
C 	C 	0.02657 0.52691 0.02547 0.03400
C 	C 	0.11330 0.51882 0.02642 -0.08500
C 	C 	0.16240 0.56940 0.07100 0.01900
C 	C 	0.33870 0.85522 0.15822 0.30000
C 	C 	0.47620 0.87956 0.12294 0.01800
C 	C 	0.52010 0.91958 0.07874 -0.08900
C 	C 	0.16110 0.87360 0.35440 0.14300
C 	C 	0.22740 0.95603 0.29933 0.13300
C 	C 	0.19490 0.02134 0.34366 -0.23400
C 	C 	0.14190 0.01075 0.39589 0.22500
C 	C 	0.12330 0.93350 0.39770 -0.23900
C 	C 	0.09430 0.15172 0.43324 0.23800
C 	C 	0.04990 0.20514 0.49088 -0.07000
C 	C 	0.04980 0.18398 0.56942 0.00200
C 	C 	0.00680 0.23547 0.61661 -0.07700
C 	C 	0.96030 0.31071 0.58963 0.00500
C 	C 	0.96250 0.33477 0.51173 -0.07000
C 	C 	0.00930 0.28088 0.46288 0.00800
C 	C 	0.88630 0.61137 0.27443 0.14400
C 	C 	0.92550 0.54298 0.31662 -0.25100
C 	C 	0.89200 0.51926 0.37918 0.25400
C 	C 	0.82150 0.56979 0.39633 -0.26500
C 	C 	0.78730 0.63787 0.35177 0.16600
C 	C 	0.91270 0.41653 0.48535 0.24700
C 	C 	0.39220 0.89100 0.10660 -0.07700
C 	C 	0.48660 0.95920 0.00920 0.03900
C 	C 	0.39500 0.97030 0.98890 -0.08400
C 	C 	0.35140 0.93170 0.03370 0.01600
C 	C 	0.67856 0.83605 0.31435 0.30000
C 	C 	0.62500 0.88296 0.36960 -0.08100
C 	C 	0.53820 0.88181 0.36091 0.01100
C 	C 	0.48987 0.92844 0.41096 -0.08000
C 	C 	0.52657 0.97453 0.47309 0.03400
C 	C 	0.61330 0.97358 0.48118 -0.08500
C 	C 	0.66240 0.92900 0.43060 0.01900
C 	C 	0.83870 0.84178 0.14478 0.29900
C 	C 	0.97620 0.87706 0.12044 0.01600
C 	C 	0.02010 0.92126 0.08042 -0.08700
C 	C 	0.66110 0.64560 0.12640 0.14300
C 	C 	0.72740 0.70067 0.04397 0.13200
C 	C 	0.69490 0.65634 0.97866 -0.23400
C 	C 	0.64190 0.60411 0.98925 0.22600
C 	C 	0.62330 0.60230 0.06650 -0.24000
C 	C 	0.59430 0.56676 0.84828 0.23800
C 	C 	0.54990 0.50912 0.79486 -0.07000
C 	C 	0.54980 0.43058 0.81602 0.00200
C 	C 	0.50680 0.38339 0.76453 -0.07600
C 	C 	0.46030 0.41037 0.68929 0.00400
C 	C 	0.46250 0.48827 0.66523 -0.07000
C 	C 	0.50930 0.53712 0.71912 0.00800
C 	C 	0.38630 0.72557 0.38863 0.14400
C 	C 	0.42550 0.68338 0.45702 -0.25100
C 	C 	0.39200 0.62082 0.48074 0.25400
C 	C 	0.32150 0.60367 0.43021 -0.26500
C 	C 	0.28730 0.64823 0.36213 0.16600
C 	C 	0.41270 0.51465 0.58347 0.24700
C 	C 	0.89220 0.89340 0.10900 -0.07600
C 	C 	0.98660 0.99080 0.04080 0.03800
C 	C 	0.89500 0.01110 0.02970 -0.08200
C 	C 	0.85140 0.96630 0.06830 0.01400
C 	C 	0.82144 0.31435 0.83605 0.30000
C 	C 	0.87500 0.36960 0.88296 -0.08100
C 	C 	0.96180 0.36091 0.88181 0.01100
C 	C 	0.01013 0.41096 0.92844 -0.08100
C 	C 	0.97343 0.47309 0.97453 0.03400
C 	C 	0.88670 0.48118 0.97358 -0.08500
C 	C 	0.83760 0.43060 0.92900 0.01900
C 	C 	0.66130 0.14478 0.84178 0.30000
C 	C 	0.52380 0.12044 0.87706 0.01800
C 	C 	0.47990 0.08042 0.92126 -0.08900
C 	C 	0.83890 0.12640 0.64560 0.14300
C 	C 	0.77260 0.04397 0.70067 0.13300
C 	C 	0.80510 0.97866 0.65634 -0.23400
C 	C 	0.85810 0.98925 0.60411 0.22500
C 	C 	0.87670 0.06650 0.60230 -0.23900
C 	C 	0.90570 0.84828 0.56676 0.23800
C 	C 	0.95010 0.79486 0.50912 -0.07000
C 	C 	0.95020 0.81602 0.43058 0.00200
C 	C 	0.99320 0.76453 0.38339 -0.07700
C 	C 	0.03970 0.68929 0.41037 0.00500
C 	C 	0.03750 0.66523 0.48827 -0.07000
C 	C 	0.99070 0.71912 0.53712 0.00800
C 	C 	0.11370 0.38863 0.72557 0.14400
C 	C 	0.07450 0.45702 0.68338 -0.25100
C 	C 	0.10800 0.48074 0.62082 0.25400
C 	C 	0.17850 0.43021 0.60367 -0.26500
C 	C 	0.21270 0.36213 0.64823 0.16600
C 	C 	0.08730 0.58347 0.51465 0.24700
C 	C 	0.60780 0.10900 0.89340 -0.07700
C 	C 	0.51340 0.04080 0.99080 0.03900
C 	C 	0.60500 0.02970 0.01110 -0.08400
C 	C 	0.64860 0.06830 0.96630 0.01600
N 	N 	0.28818 0.30345 0.88187 -0.26800
N 	N 	0.39570 0.44428 0.07078 -0.25700
N 	N 	0.68298 0.29079 0.66045 -0.27200
N 	N 	0.56930 0.41805 0.44691 -0.26200
N 	N 	0.21182 0.88187 0.30345 -0.26800
N 	N 	0.10430 0.07078 0.44428 -0.25700
N 	N 	0.81702 0.66045 0.29079 -0.27200
N 	N 	0.93070 0.44691 0.41805 -0.26200
N 	N 	0.71182 0.69655 0.11813 -0.26800
N 	N 	0.60430 0.55572 0.92922 -0.25700
N 	N 	0.31702 0.70921 0.33955 -0.27200
N 	N 	0.43070 0.58195 0.55309 -0.26200
N 	N 	0.78818 0.11813 0.69655 -0.26800
N 	N 	0.89570 0.92922 0.55572 -0.25700
N 	N 	0.18298 0.33955 0.70921 -0.27200
N 	N 	0.06930 0.55309 0.58195 -0.26200
O 	O 	0.35398 0.21382 0.73504 -0.38100
O 	O 	0.24707 0.15275 0.68425 -0.37700
O 	O 	0.12279 0.21987 0.81583 -0.39700
O 	O 	0.24113 0.13483 0.86117 -0.36700
O 	O 	0.38220 0.37891 0.18007 -0.23800
O 	O 	0.63980 0.52104 0.45270 -0.24600
O 	O 	0.14602 0.73504 0.21382 -0.38100
O 	O 	0.25293 0.68425 0.15275 -0.37700
O 	O 	0.37721 0.81583 0.21987 -0.39700
O 	O 	0.25887 0.86117 0.13483 -0.36700
O 	O 	0.11780 0.18007 0.37891 -0.23800
O 	O 	0.86020 0.45270 0.52104 -0.24600
O 	O 	0.64602 0.78618 0.26496 -0.38100
O 	O 	0.75293 0.84725 0.31575 -0.37700
O 	O 	0.87721 0.78013 0.18417 -0.39700
O 	O 	0.75887 0.86517 0.13883 -0.36700
O 	O 	0.61780 0.62109 0.81993 -0.23800
O 	O 	0.36020 0.47896 0.54730 -0.24600
O 	O 	0.85398 0.26496 0.78618 -0.38100
O 	O 	0.74707 0.31575 0.84725 -0.37700
O 	O 	0.62279 0.18417 0.78013 -0.39700
O 	O 	0.74113 0.13883 0.86517 -0.36700
O 	O 	0.88220 0.81993 0.62109 -0.23800
O 	O 	0.13980 0.54730 0.47896 -0.24600
