data_crystal

_cell_length_a 15.10560
_cell_length_b 15.10560
_cell_length_c 16.13640
_cell_angle_alpha 85.64840
_cell_angle_beta  85.64840
_cell_angle_gamma 85.62720

_symmetry_space_group_name_	'P 1'
_symmetry_space_group_name_H-M	'P 1'

loop_
_symmetry_equiv_pos_as_xyz
  x,y,z

loop_
_atom_site_label
_atom_site_type_symbol
_atom_site_fract_x
_atom_site_fract_y
_atom_site_fract_z
_atom_site_charge
Co	Co	0.80120 0.77234 0.75473 1.15700
Co	Co	0.22766 0.19880 0.74527 1.15700
Co	Co	0.19880 0.22766 0.24527 1.15700
Co	Co	0.77234 0.80120 0.25473 1.15700
H 	H 	0.52690 0.07550 0.57550 0.13600
H 	H 	0.61460 0.41780 0.40460 0.14100
H 	H 	0.89270 0.92870 0.11780 0.06300
H 	H 	0.83460 0.85620 0.01720 0.05600
H 	H 	0.00550 0.96130 0.84140 0.06700
H 	H 	0.04290 0.40050 0.63330 0.06400
H 	H 	0.96970 0.50450 0.71240 0.04700
H 	H 	0.90220 0.65160 0.50730 0.06800
H 	H 	0.58460 0.33120 0.50510 0.04400
H 	H 	0.34180 0.37760 0.42680 0.04900
H 	H 	0.29800 0.25040 0.50670 0.07200
H 	H 	0.40230 0.15870 0.57550 0.03000
H 	H 	0.78480 0.98100 0.75540 -0.03200
H 	H 	0.69860 0.09880 0.70140 0.16100
H 	H 	0.58350 0.93050 0.57600 0.13100
H 	H 	0.66970 0.81850 0.63430 -0.04300
H 	H 	0.80390 0.62310 0.33910 -0.04300
H 	H 	0.73810 0.49890 0.39050 0.13600
H 	H 	0.51490 0.60030 0.29550 0.16800
H 	H 	0.58870 0.72270 0.24500 -0.02400
H 	H 	0.92450 0.47310 0.92450 0.13700
H 	H 	0.58220 0.38540 0.09540 0.14200
H 	H 	0.07130 0.10730 0.38220 0.06300
H 	H 	0.14380 0.16540 0.48280 0.05600
H 	H 	0.03870 0.99450 0.65860 0.06800
H 	H 	0.59950 0.95710 0.86670 0.06400
H 	H 	0.49550 0.03030 0.78760 0.04700
H 	H 	0.34840 0.09780 0.99270 0.06800
H 	H 	0.66880 0.41540 0.99490 0.04400
H 	H 	0.62240 0.65820 0.07320 0.04900
H 	H 	0.74960 0.70200 0.99330 0.07200
H 	H 	0.84130 0.59770 0.92450 0.03000
H 	H 	0.01900 0.21520 0.74460 -0.03200
H 	H 	0.90120 0.30140 0.79860 0.16100
H 	H 	0.06950 0.41650 0.92400 0.13100
H 	H 	0.18150 0.33030 0.86570 -0.04300
H 	H 	0.37690 0.19610 0.16090 -0.04300
H 	H 	0.50110 0.26190 0.10950 0.13600
H 	H 	0.39970 0.48510 0.20450 0.16800
H 	H 	0.27730 0.41130 0.25500 -0.02400
H 	H 	0.47310 0.92450 0.42450 0.13700
H 	H 	0.38540 0.58220 0.59540 0.14200
H 	H 	0.10730 0.07130 0.88220 0.06300
H 	H 	0.16540 0.14380 0.98280 0.05600
H 	H 	0.99450 0.03870 0.15860 0.06700
H 	H 	0.95710 0.59950 0.36670 0.06400
H 	H 	0.03030 0.49550 0.28760 0.04700
H 	H 	0.09780 0.34840 0.49270 0.06800
H 	H 	0.41540 0.66880 0.49490 0.04400
H 	H 	0.65820 0.62240 0.57320 0.04900
H 	H 	0.70200 0.74960 0.49330 0.07200
H 	H 	0.59770 0.84130 0.42450 0.03000
H 	H 	0.21520 0.01900 0.24460 -0.03200
H 	H 	0.30140 0.90120 0.29860 0.16100
H 	H 	0.41650 0.06950 0.42400 0.13100
H 	H 	0.33030 0.18150 0.36570 -0.04300
H 	H 	0.19610 0.37690 0.66090 -0.04300
H 	H 	0.26190 0.50110 0.60950 0.13600
H 	H 	0.48510 0.39970 0.70450 0.16800
H 	H 	0.41130 0.27730 0.75500 -0.02400
H 	H 	0.07550 0.52690 0.07550 0.13700
H 	H 	0.41780 0.61460 0.90460 0.14200
H 	H 	0.92870 0.89270 0.61780 0.06300
H 	H 	0.85620 0.83460 0.51720 0.05600
H 	H 	0.96130 0.00550 0.34140 0.06800
H 	H 	0.40050 0.04290 0.13330 0.06400
H 	H 	0.50450 0.96970 0.21240 0.04700
H 	H 	0.65160 0.90220 0.00730 0.06800
H 	H 	0.33120 0.58460 0.00510 0.04400
H 	H 	0.37760 0.34180 0.92680 0.04900
H 	H 	0.25040 0.29800 0.00670 0.07200
H 	H 	0.15870 0.40230 0.07550 0.03000
H 	H 	0.98100 0.78480 0.25540 -0.03200
H 	H 	0.09880 0.69860 0.20140 0.16100
H 	H 	0.93050 0.58350 0.07600 0.13100
H 	H 	0.81850 0.66970 0.13430 -0.04300
H 	H 	0.62310 0.80390 0.83910 -0.04300
H 	H 	0.49890 0.73810 0.89050 0.13600
H 	H 	0.60030 0.51490 0.79550 0.16800
H 	H 	0.72270 0.58870 0.74500 -0.02400
C 	C 	0.87830 0.85330 0.85380 0.30100
C 	C 	0.91460 0.93680 0.06250 -0.07600
C 	C 	0.88090 0.89290 0.00290 -0.00700
C 	C 	0.91640 0.90280 0.91870 -0.05300
C 	C 	0.98250 0.95610 0.89650 -0.04700
C 	C 	0.01830 0.00630 0.95930 0.03000
C 	C 	0.88070 0.65690 0.66940 0.30400
C 	C 	0.01570 0.45130 0.60720 -0.08300
C 	C 	0.97170 0.51290 0.65460 0.00300
C 	C 	0.92900 0.58940 0.61630 -0.05800
C 	C 	0.93160 0.60120 0.53220 -0.04900
C 	C 	0.97830 0.53790 0.48140 0.02900
C 	C 	0.57260 0.18360 0.59660 0.22700
C 	C 	0.49130 0.44910 0.40670 0.24100
C 	C 	0.50190 0.23590 0.54790 -0.06200
C 	C 	0.52710 0.31390 0.50290 0.00300
C 	C 	0.46870 0.36490 0.45620 -0.06700
C 	C 	0.38280 0.34220 0.45720 0.00200
C 	C 	0.35680 0.26520 0.50440 -0.07600
C 	C 	0.41850 0.21150 0.54720 -0.00500
C 	C 	0.74190 0.97010 0.71980 0.18000
C 	C 	0.69060 0.04160 0.68710 -0.29400
C 	C 	0.62770 0.02810 0.63340 0.27800
C 	C 	0.62320 0.94300 0.61420 -0.29800
C 	C 	0.67520 0.87600 0.64930 0.17400
C 	C 	0.74440 0.61900 0.33000 0.17200
C 	C 	0.70510 0.54450 0.36220 -0.28800
C 	C 	0.61660 0.53740 0.35240 0.27700
C 	C 	0.57400 0.60380 0.30630 -0.28500
C 	C 	0.61940 0.67720 0.27540 0.17600
C 	C 	0.14670 0.12170 0.64620 0.30100
C 	C 	0.06320 0.08540 0.43750 -0.07600
C 	C 	0.10710 0.11910 0.49710 -0.00700
C 	C 	0.09720 0.08360 0.58130 -0.05300
C 	C 	0.04390 0.01750 0.60350 -0.04800
C 	C 	0.99370 0.98170 0.54070 0.03100
C 	C 	0.34310 0.11930 0.83060 0.30400
C 	C 	0.54870 0.98430 0.89280 -0.08300
C 	C 	0.48710 0.02830 0.84540 0.00400
C 	C 	0.41060 0.07100 0.88370 -0.05900
C 	C 	0.39880 0.06840 0.96780 -0.04900
C 	C 	0.46210 0.02170 0.01860 0.02900
C 	C 	0.81640 0.42740 0.90340 0.22700
C 	C 	0.55090 0.50870 0.09330 0.24100
C 	C 	0.76410 0.49810 0.95210 -0.06200
C 	C 	0.68610 0.47290 0.99710 0.00300
C 	C 	0.63510 0.53130 0.04380 -0.06700
C 	C 	0.65780 0.61720 0.04280 0.00200
C 	C 	0.73480 0.64320 0.99560 -0.07600
C 	C 	0.78850 0.58150 0.95280 -0.00500
C 	C 	0.02990 0.25810 0.78020 0.18000
C 	C 	0.95840 0.30940 0.81290 -0.29300
C 	C 	0.97190 0.37230 0.86660 0.27900
C 	C 	0.05700 0.37680 0.88580 -0.29900
C 	C 	0.12400 0.32480 0.85070 0.17400
C 	C 	0.38100 0.25560 0.17000 0.17200
C 	C 	0.45550 0.29490 0.13780 -0.28700
C 	C 	0.46260 0.38340 0.14760 0.27700
C 	C 	0.39620 0.42600 0.19370 -0.28500
C 	C 	0.32280 0.38060 0.22460 0.17600
C 	C 	0.12170 0.14670 0.14620 0.30100
C 	C 	0.08540 0.06320 0.93750 -0.07600
C 	C 	0.11910 0.10710 0.99710 -0.00700
C 	C 	0.08360 0.09720 0.08130 -0.05300
C 	C 	0.01750 0.04390 0.10350 -0.04700
C 	C 	0.98170 0.99370 0.04070 0.03000
C 	C 	0.11930 0.34310 0.33060 0.30400
C 	C 	0.98430 0.54870 0.39280 -0.08300
C 	C 	0.02830 0.48710 0.34540 0.00300
C 	C 	0.07100 0.41060 0.38370 -0.05800
C 	C 	0.06840 0.39880 0.46780 -0.04900
C 	C 	0.02170 0.46210 0.51860 0.02900
C 	C 	0.42740 0.81640 0.40340 0.22700
C 	C 	0.50870 0.55090 0.59330 0.24100
C 	C 	0.49810 0.76410 0.45210 -0.06200
C 	C 	0.47290 0.68610 0.49710 0.00300
C 	C 	0.53130 0.63510 0.54380 -0.06700
C 	C 	0.61720 0.65780 0.54280 0.00200
C 	C 	0.64320 0.73480 0.49560 -0.07600
C 	C 	0.58150 0.78850 0.45280 -0.00500
C 	C 	0.25810 0.02990 0.28020 0.18000
C 	C 	0.30940 0.95840 0.31290 -0.29400
C 	C 	0.37230 0.97190 0.36660 0.27800
C 	C 	0.37680 0.05700 0.38580 -0.29800
C 	C 	0.32480 0.12400 0.35070 0.17400
C 	C 	0.25560 0.38100 0.67000 0.17200
C 	C 	0.29490 0.45550 0.63780 -0.28800
C 	C 	0.38340 0.46260 0.64760 0.27700
C 	C 	0.42600 0.39620 0.69370 -0.28500
C 	C 	0.38060 0.32280 0.72460 0.17600
C 	C 	0.85330 0.87830 0.35380 0.30100
C 	C 	0.93680 0.91460 0.56250 -0.07600
C 	C 	0.89290 0.88090 0.50290 -0.00700
C 	C 	0.90280 0.91640 0.41870 -0.05300
C 	C 	0.95610 0.98250 0.39650 -0.04800
C 	C 	0.00630 0.01830 0.45930 0.03100
C 	C 	0.65690 0.88070 0.16940 0.30400
C 	C 	0.45130 0.01570 0.10720 -0.08300
C 	C 	0.51290 0.97170 0.15460 0.00400
C 	C 	0.58940 0.92900 0.11630 -0.05900
C 	C 	0.60120 0.93160 0.03220 -0.04900
C 	C 	0.53790 0.97830 0.98140 0.02900
C 	C 	0.18360 0.57260 0.09660 0.22700
C 	C 	0.44910 0.49130 0.90670 0.24100
C 	C 	0.23590 0.50190 0.04790 -0.06200
C 	C 	0.31390 0.52710 0.00290 0.00300
C 	C 	0.36490 0.46870 0.95620 -0.06700
C 	C 	0.34220 0.38280 0.95720 0.00200
C 	C 	0.26520 0.35680 0.00440 -0.07600
C 	C 	0.21150 0.41850 0.04720 -0.00500
C 	C 	0.97010 0.74190 0.21980 0.18000
C 	C 	0.04160 0.69060 0.18710 -0.29300
C 	C 	0.02810 0.62770 0.13340 0.27900
C 	C 	0.94300 0.62320 0.11420 -0.29900
C 	C 	0.87600 0.67520 0.14930 0.17400
C 	C 	0.61900 0.74440 0.83000 0.17200
C 	C 	0.54450 0.70510 0.86220 -0.28700
C 	C 	0.53740 0.61660 0.85240 0.27700
C 	C 	0.60380 0.57400 0.80630 -0.28500
C 	C 	0.67720 0.61940 0.77540 0.17600
N 	N 	0.73390 0.88750 0.70390 -0.28300
N 	N 	0.57040 0.09420 0.59900 -0.27300
N 	N 	0.70360 0.68600 0.28670 -0.27800
N 	N 	0.57810 0.46190 0.39010 -0.27300
N 	N 	0.11250 0.26610 0.79610 -0.28300
N 	N 	0.90580 0.42960 0.90100 -0.27300
N 	N 	0.31400 0.29640 0.21330 -0.27800
N 	N 	0.53810 0.42190 0.10990 -0.27300
N 	N 	0.26610 0.11250 0.29610 -0.28300
N 	N 	0.42960 0.90580 0.40100 -0.27300
N 	N 	0.29640 0.31400 0.71330 -0.27800
N 	N 	0.42190 0.53810 0.60990 -0.27300
N 	N 	0.88750 0.73390 0.20390 -0.28300
N 	N 	0.09420 0.57040 0.09900 -0.27300
N 	N 	0.68600 0.70360 0.78670 -0.27800
N 	N 	0.46190 0.57810 0.89010 -0.27300
O 	O 	0.91350 0.84930 0.78200 -0.36900
O 	O 	0.80660 0.81640 0.87380 -0.39600
O 	O 	0.88670 0.65050 0.74740 -0.37300
O 	O 	0.83300 0.71920 0.63770 -0.39600
O 	O 	0.62760 0.22080 0.63260 -0.22300
O 	O 	0.43330 0.50370 0.38260 -0.23600
O 	O 	0.15070 0.08650 0.71800 -0.36900
O 	O 	0.18360 0.19340 0.62620 -0.39600
O 	O 	0.34950 0.11330 0.75260 -0.37300
O 	O 	0.28080 0.16700 0.86230 -0.39600
O 	O 	0.77920 0.37240 0.86740 -0.22300
O 	O 	0.49630 0.56670 0.11740 -0.23600
O 	O 	0.08650 0.15070 0.21800 -0.36900
O 	O 	0.19340 0.18360 0.12620 -0.39600
O 	O 	0.11330 0.34950 0.25260 -0.37300
O 	O 	0.16700 0.28080 0.36230 -0.39600
O 	O 	0.37240 0.77920 0.36740 -0.22300
O 	O 	0.56670 0.49630 0.61740 -0.23600
O 	O 	0.84930 0.91350 0.28200 -0.36900
O 	O 	0.81640 0.80660 0.37380 -0.39600
O 	O 	0.65050 0.88670 0.24740 -0.37300
O 	O 	0.71920 0.83300 0.13770 -0.39600
O 	O 	0.22080 0.62760 0.13260 -0.22300
O 	O 	0.50370 0.43330 0.88260 -0.23600
