data_crystal

_cell_length_a 12.65900
_cell_length_b 8.24700
_cell_length_c 23.79400
_cell_angle_alpha 90.00000
_cell_angle_beta  105.82300
_cell_angle_gamma 90.00000

_symmetry_space_group_name_	'P 1'
_symmetry_space_group_name_H-M	'P 1'

loop_
_symmetry_equiv_pos_as_xyz
  x,y,z

loop_
_atom_site_label
_atom_site_type_symbol
_atom_site_fract_x
_atom_site_fract_y
_atom_site_fract_z
_atom_site_charge
Bi	Bi	0.22648 0.67332 0.13127 1.84300
Nd	Nd	0.71030 0.49915 0.11515 2.12800
O 	O 	0.06880 0.60220 0.16026 -0.53800
O 	O 	0.90610 0.48500 0.12891 -0.54800
O 	O 	0.19780 0.59340 0.02762 -0.55000
O 	O 	0.26400 0.40740 0.97860 -0.49500
O 	O 	0.24360 0.79740 0.22939 -0.53900
O 	O 	0.27500 0.75710 0.32517 -0.57400
O 	O 	0.40120 0.57200 0.12152 -0.55400
O 	O 	0.57640 0.54470 0.17250 -0.54600
O 	O 	0.75700 0.79210 0.12130 -0.97900
H 	H 	0.69390 0.82220 0.09780 0.81300
H 	H 	0.79580 0.88810 0.14360 0.27900
O 	O 	0.54980 0.67600 0.05560 -1.10600
H 	H 	0.56920 0.77550 0.06280 0.33600
H 	H 	0.50130 0.64640 0.07530 0.34800
O 	O 	0.38110 0.47460 0.45610 -0.28000
H 	H 	0.32440 0.54730 0.43580 0.09800
H 	H 	0.36580 0.43490 0.48580 0.17900
N 	N 	0.16920 0.38590 0.10917 -0.12600
N 	N 	0.32780 0.50180 0.21453 -0.12100
C 	C 	0.20340 0.28500 0.16306 -0.08900
H 	H 	0.20020 0.17120 0.15230 0.01600
H 	H 	0.15290 0.30240 0.18660 0.03800
C 	C 	0.31830 0.32640 0.19843 -0.12000
H 	H 	0.33740 0.26120 0.23370 0.05200
H 	H 	0.36960 0.30090 0.17600 0.04300
C 	C 	0.04760 0.39280 0.08910 -0.42200
H 	H 	0.01790 0.28430 0.08890 0.13500
H 	H 	0.02480 0.43440 0.04950 0.12000
C 	C 	0.00320 0.50040 0.12860 0.49400
C 	C 	0.21510 0.32040 0.06227 -0.37900
H 	H 	0.16730 0.23510 0.04150 0.11800
H 	H 	0.28660 0.27310 0.07990 0.12500
C 	C 	0.22630 0.45070 0.01927 0.47400
C 	C 	0.29080 0.53250 0.26742 -0.40800
H 	H 	0.34660 0.49500 0.30150 0.14100
H 	H 	0.22420 0.47130 0.26490 0.13400
C 	C 	0.26880 0.71040 0.27460 0.51000
C 	C 	0.44330 0.55440 0.22516 -0.40200
H 	H 	0.49070 0.48100 0.25270 0.13400
H 	H 	0.45190 0.66200 0.24230 0.10900
C 	C 	0.47730 0.55690 0.16880 0.45700
N 	N 	0.35620 0.34510 0.42410 -0.70000
O 	O 	0.26100 0.32600 0.38790 -0.00100
O 	O 	0.42470 0.22700 0.43220 0.35500
O 	O 	0.42100 0.50500 0.46530 -0.00500
Bi	Bi	0.77352 0.17332 0.36874 1.84500
Nd	Nd	0.28970 0.99915 0.38485 2.11900
O 	O 	0.93120 0.10220 0.33974 -0.53600
O 	O 	0.09390 0.98500 0.37109 -0.55100
O 	O 	0.80220 0.09340 0.47238 -0.55000
O 	O 	0.73600 0.90740 0.52140 -0.49200
O 	O 	0.75640 0.29740 0.27061 -0.53600
O 	O 	0.72500 0.25710 0.17483 -0.57200
O 	O 	0.59880 0.07200 0.37848 -0.55200
O 	O 	0.42360 0.04470 0.32750 -0.54200
O 	O 	0.24300 0.29210 0.37870 -0.97700
H 	H 	0.30610 0.32220 0.40220 0.81000
H 	H 	0.20420 0.38810 0.35640 0.27900
O 	O 	0.45020 0.17600 0.44440 -1.10300
H 	H 	0.43080 0.27550 0.43720 0.33500
H 	H 	0.49870 0.14640 0.42470 0.34800
O 	O 	0.61890 0.97460 0.04390 -0.27300
H 	H 	0.67560 0.04730 0.06420 0.09700
H 	H 	0.63420 0.93490 0.01420 0.17800
N 	N 	0.83080 0.88590 0.39083 -0.12600
N 	N 	0.67220 0.00180 0.28547 -0.12200
C 	C 	0.79660 0.78500 0.33694 -0.08800
H 	H 	0.79980 0.67120 0.34770 0.01400
H 	H 	0.84710 0.80240 0.31340 0.03700
C 	C 	0.68170 0.82640 0.30157 -0.12100
H 	H 	0.66260 0.76120 0.26630 0.05100
H 	H 	0.63040 0.80090 0.32400 0.04300
C 	C 	0.95240 0.89280 0.41090 -0.42200
H 	H 	0.98210 0.78430 0.41110 0.13500
H 	H 	0.97520 0.93440 0.45050 0.12200
C 	C 	0.99680 0.00040 0.37140 0.49700
C 	C 	0.78490 0.82040 0.43773 -0.38000
H 	H 	0.83270 0.73510 0.45850 0.11700
H 	H 	0.71340 0.77310 0.42010 0.12400
C 	C 	0.77370 0.95070 0.48073 0.47700
C 	C 	0.70920 0.03250 0.23258 -0.39600
H 	H 	0.65340 0.99500 0.19850 0.13600
H 	H 	0.77580 0.97130 0.23510 0.12900
C 	C 	0.73120 0.21040 0.22540 0.50700
C 	C 	0.55670 0.05440 0.27484 -0.39100
H 	H 	0.50930 0.98100 0.24730 0.12800
H 	H 	0.54810 0.16200 0.25770 0.10700
C 	C 	0.52270 0.05690 0.33120 0.45400
N 	N 	0.64380 0.84510 0.07590 -0.70300
O 	O 	0.73900 0.82600 0.11210 -0.00200
O 	O 	0.57530 0.72700 0.06780 0.35500
O 	O 	0.57900 0.00500 0.03470 -0.00900
Bi	Bi	0.77352 0.32668 0.86874 1.84400
Nd	Nd	0.28970 0.50085 0.88485 2.12900
O 	O 	0.93120 0.39780 0.83974 -0.53700
O 	O 	0.09390 0.51500 0.87109 -0.54700
O 	O 	0.80220 0.40660 0.97238 -0.54900
O 	O 	0.73600 0.59260 0.02140 -0.49400
O 	O 	0.75640 0.20260 0.77061 -0.53900
O 	O 	0.72500 0.24290 0.67483 -0.57400
O 	O 	0.59880 0.42800 0.87848 -0.55400
O 	O 	0.42360 0.45530 0.82750 -0.54600
O 	O 	0.24300 0.20790 0.87870 -0.97900
H 	H 	0.30610 0.17780 0.90220 0.81300
H 	H 	0.20420 0.11190 0.85640 0.27900
O 	O 	0.45020 0.32400 0.94440 -1.10600
H 	H 	0.43080 0.22450 0.93720 0.33600
H 	H 	0.49870 0.35360 0.92470 0.34800
O 	O 	0.61890 0.52540 0.54390 -0.28000
H 	H 	0.67560 0.45270 0.56420 0.09800
H 	H 	0.63420 0.56510 0.51420 0.17900
N 	N 	0.83080 0.61410 0.89083 -0.12600
N 	N 	0.67220 0.49820 0.78547 -0.12100
C 	C 	0.79660 0.71500 0.83694 -0.08900
H 	H 	0.79980 0.82880 0.84770 0.01600
H 	H 	0.84710 0.69760 0.81340 0.03800
C 	C 	0.68170 0.67360 0.80157 -0.12000
H 	H 	0.66260 0.73880 0.76630 0.05200
H 	H 	0.63040 0.69910 0.82400 0.04300
C 	C 	0.95240 0.60720 0.91090 -0.42200
H 	H 	0.98210 0.71570 0.91110 0.13500
H 	H 	0.97520 0.56560 0.95050 0.12000
C 	C 	0.99680 0.49960 0.87140 0.49400
C 	C 	0.78490 0.67960 0.93773 -0.37900
H 	H 	0.83270 0.76490 0.95850 0.11800
H 	H 	0.71340 0.72690 0.92010 0.12500
C 	C 	0.77370 0.54930 0.98073 0.47400
C 	C 	0.70920 0.46750 0.73258 -0.40800
H 	H 	0.65340 0.50500 0.69850 0.14100
H 	H 	0.77580 0.52870 0.73510 0.13400
C 	C 	0.73120 0.28960 0.72540 0.51000
C 	C 	0.55670 0.44560 0.77484 -0.40200
H 	H 	0.50930 0.51900 0.74730 0.13400
H 	H 	0.54810 0.33800 0.75770 0.10900
C 	C 	0.52270 0.44310 0.83120 0.45700
N 	N 	0.64380 0.65490 0.57590 -0.70000
O 	O 	0.73900 0.67400 0.61210 -0.00100
O 	O 	0.57530 0.77300 0.56780 0.35500
O 	O 	0.57900 0.49500 0.53470 -0.00500
Bi	Bi	0.22648 0.82668 0.63127 1.84500
Nd	Nd	0.71030 0.00085 0.61515 2.11900
O 	O 	0.06880 0.89780 0.66026 -0.53600
O 	O 	0.90610 0.01500 0.62891 -0.55100
O 	O 	0.19780 0.90660 0.52762 -0.55000
O 	O 	0.26400 0.09260 0.47860 -0.49200
O 	O 	0.24360 0.70260 0.72939 -0.53600
O 	O 	0.27500 0.74290 0.82517 -0.57200
O 	O 	0.40120 0.92800 0.62152 -0.55200
O 	O 	0.57640 0.95530 0.67250 -0.54200
O 	O 	0.75700 0.70790 0.62130 -0.97700
H 	H 	0.69390 0.67780 0.59780 0.81000
H 	H 	0.79580 0.61190 0.64360 0.27900
O 	O 	0.54980 0.82400 0.55560 -1.10300
H 	H 	0.56920 0.72450 0.56280 0.33500
H 	H 	0.50130 0.85360 0.57530 0.34800
O 	O 	0.38110 0.02540 0.95610 -0.27300
H 	H 	0.32440 0.95270 0.93580 0.09700
H 	H 	0.36580 0.06510 0.98580 0.17800
N 	N 	0.16920 0.11410 0.60917 -0.12600
N 	N 	0.32780 0.99820 0.71453 -0.12200
C 	C 	0.20340 0.21500 0.66306 -0.08800
H 	H 	0.20020 0.32880 0.65230 0.01400
H 	H 	0.15290 0.19760 0.68660 0.03700
C 	C 	0.31830 0.17360 0.69843 -0.12100
H 	H 	0.33740 0.23880 0.73370 0.05100
H 	H 	0.36960 0.19910 0.67600 0.04300
C 	C 	0.04760 0.10720 0.58910 -0.42200
H 	H 	0.01790 0.21570 0.58890 0.13500
H 	H 	0.02480 0.06560 0.54950 0.12200
C 	C 	0.00320 0.99960 0.62860 0.49700
C 	C 	0.21510 0.17960 0.56227 -0.38000
H 	H 	0.16730 0.26490 0.54150 0.11700
H 	H 	0.28660 0.22690 0.57990 0.12400
C 	C 	0.22630 0.04930 0.51927 0.47700
C 	C 	0.29080 0.96750 0.76742 -0.39600
H 	H 	0.34660 0.00500 0.80150 0.13600
H 	H 	0.22420 0.02870 0.76490 0.12900
C 	C 	0.26880 0.78960 0.77460 0.50700
C 	C 	0.44330 0.94560 0.72516 -0.39100
H 	H 	0.49070 0.01900 0.75270 0.12800
H 	H 	0.45190 0.83800 0.74230 0.10700
C 	C 	0.47730 0.94310 0.66880 0.45400
N 	N 	0.35620 0.15490 0.92410 -0.70300
O 	O 	0.26100 0.17400 0.88790 -0.00200
O 	O 	0.42470 0.27300 0.93220 0.35500
O 	O 	0.42100 0.99500 0.96530 -0.00900
