data_crystal

_cell_length_a 9.39800
_cell_length_b 15.30700
_cell_length_c 16.75100
_cell_angle_alpha 68.75600
_cell_angle_beta  79.32200
_cell_angle_gamma 89.27600

_symmetry_space_group_name_	'P 1'
_symmetry_space_group_name_H-M	'P 1'

loop_
_symmetry_equiv_pos_as_xyz
  x,y,z

loop_
_atom_site_label
_atom_site_type_symbol
_atom_site_fract_x
_atom_site_fract_y
_atom_site_fract_z
_atom_site_charge
Nd	Nd	0.00058 0.82258 0.10912 2.12900
Nd	Nd	0.41556 0.32823 0.10791 2.14800
Nd	Nd	0.11638 0.26122 0.52165 1.85800
O 	O 	0.08220 0.80200 0.24240 -0.56800
O 	O 	0.10020 0.81600 0.36790 -0.52100
O 	O 	0.74840 0.86440 0.07110 -0.41800
O 	O 	0.74740 0.77910 0.20850 -0.41900
O 	O 	0.53280 0.17740 0.08640 -0.42200
O 	O 	0.35010 0.15970 0.19440 -0.44900
O 	O 	0.51410 0.60950 0.04550 -0.61000
O 	O 	0.46300 0.46550 0.13990 -0.57500
O 	O 	0.23650 0.40840 0.43930 -0.54300
O 	O 	0.23190 0.51830 0.49530 -0.35000
O 	O 	0.00920 0.65290 0.20370 -0.45500
O 	O 	0.90730 0.67610 0.09070 -0.44400
O 	O 	0.24890 0.30420 0.24710 -0.53100
O 	O 	0.10620 0.26480 0.37620 -0.51400
O 	O 	0.69150 0.37060 0.06500 -0.42900
O 	O 	0.60720 0.28700 0.20290 -0.41200
O 	O 	0.98430 0.10700 0.04320 -0.59400
O 	O 	0.92850 0.96150 0.13900 -0.55900
O 	O 	0.82430 0.02780 0.49560 -0.55400
H 	H 	0.78720 0.98750 0.54250 0.30000
O 	O 	0.86850 0.90610 0.45600 -0.53900
C 	C 	0.14940 0.82460 0.29110 0.49700
C 	C 	0.30050 0.87060 0.25050 -0.22300
C 	C 	0.42030 0.82350 0.22450 0.12400
C 	C 	0.54790 0.87710 0.17530 -0.16500
C 	C 	0.55460 0.97460 0.15070 0.08300
H 	H 	0.63840 0.00950 0.11540 -0.00200
C 	C 	0.43930 0.01980 0.17790 -0.15300
C 	C 	0.31130 0.96740 0.22970 0.09300
H 	H 	0.23400 0.99720 0.25000 0.00500
C 	C 	0.68710 0.83560 0.14960 0.34100
C 	C 	0.44380 0.12530 0.15100 0.34200
C 	C 	0.40510 0.71930 0.24340 -0.10900
C 	C 	0.44860 0.68490 0.17660 0.09200
H 	H 	0.49000 0.72610 0.12090 -0.01000
C 	C 	0.43060 0.58990 0.19240 -0.23200
C 	C 	0.37030 0.52770 0.27680 0.13600
H 	H 	0.36020 0.46380 0.28780 -0.00700
C 	C 	0.32580 0.56030 0.34350 -0.18700
C 	C 	0.34460 0.65710 0.32720 0.06600
H 	H 	0.31670 0.67940 0.37230 0.00100
C 	C 	0.47270 0.55090 0.12080 0.57000
C 	C 	0.25970 0.49240 0.43350 0.42700
C 	C 	0.94850 0.62120 0.15810 0.35700
C 	C 	0.93480 0.51780 0.18050 -0.17200
C 	C 	0.02340 0.45960 0.23240 0.11200
H 	H 	0.08750 0.48510 0.25530 -0.01400
C 	C 	0.01700 0.36280 0.25030 -0.26400
C 	C 	0.91520 0.32130 0.22160 0.15900
C 	C 	0.82440 0.38040 0.17050 -0.17800
C 	C 	0.83790 0.47750 0.14820 0.10500
H 	H 	0.78130 0.51590 0.11110 -0.01100
C 	C 	0.13310 0.30660 0.29490 0.52400
C 	C 	0.70190 0.34150 0.14450 0.35100
C 	C 	0.90810 0.21820 0.24140 -0.13600
C 	C 	0.92450 0.18200 0.17430 0.12100
H 	H 	0.93770 0.22340 0.11660 -0.02500
C 	C 	0.92150 0.08710 0.19210 -0.24600
C 	C 	0.90160 0.02360 0.27860 0.18100
H 	H 	0.90070 0.95930 0.29110 -0.04900
C 	C 	0.88360 0.05820 0.34470 -0.23900
C 	C 	0.88630 0.15380 0.32740 0.12200
H 	H 	0.87340 0.17540 0.37340 0.00900
C 	C 	0.94570 0.04850 0.11890 0.53900
C 	C 	0.85900 0.98980 0.43830 0.53700
Nd	Nd	0.99942 0.17742 0.89088 2.12800
Nd	Nd	0.58444 0.67177 0.89209 2.14700
Nd	Nd	0.88362 0.73878 0.47835 1.85800
O 	O 	0.91780 0.19800 0.75760 -0.56800
O 	O 	0.89980 0.18400 0.63210 -0.52100
O 	O 	0.25160 0.13560 0.92890 -0.41800
O 	O 	0.25260 0.22090 0.79150 -0.41900
O 	O 	0.46720 0.82260 0.91360 -0.42200
O 	O 	0.64990 0.84030 0.80560 -0.44900
O 	O 	0.48590 0.39050 0.95450 -0.61000
O 	O 	0.53700 0.53450 0.86010 -0.57500
O 	O 	0.76350 0.59160 0.56070 -0.54300
O 	O 	0.76810 0.48170 0.50470 -0.35000
O 	O 	0.99080 0.34710 0.79630 -0.45500
O 	O 	0.09270 0.32390 0.90930 -0.44400
O 	O 	0.75110 0.69580 0.75290 -0.53100
O 	O 	0.89380 0.73520 0.62380 -0.51400
O 	O 	0.30850 0.62940 0.93500 -0.42900
O 	O 	0.39280 0.71300 0.79710 -0.41200
O 	O 	0.01570 0.89300 0.95680 -0.59400
O 	O 	0.07150 0.03850 0.86100 -0.55900
O 	O 	0.17570 0.97220 0.50440 -0.55400
H 	H 	0.21280 0.01250 0.45750 0.30000
O 	O 	0.13150 0.09390 0.54400 -0.53900
C 	C 	0.85060 0.17540 0.70890 0.49700
C 	C 	0.69950 0.12940 0.74950 -0.22300
C 	C 	0.57970 0.17650 0.77550 0.12400
C 	C 	0.45210 0.12290 0.82470 -0.16500
C 	C 	0.44540 0.02540 0.84930 0.08300
H 	H 	0.36160 0.99050 0.88460 -0.00200
C 	C 	0.56070 0.98020 0.82210 -0.15300
C 	C 	0.68870 0.03260 0.77030 0.09300
H 	H 	0.76600 0.00280 0.75000 0.00500
C 	C 	0.31290 0.16440 0.85040 0.34100
C 	C 	0.55620 0.87470 0.84900 0.34200
C 	C 	0.59490 0.28070 0.75660 -0.10900
C 	C 	0.55140 0.31510 0.82340 0.09200
H 	H 	0.51000 0.27390 0.87910 -0.01000
C 	C 	0.56940 0.41010 0.80760 -0.23200
C 	C 	0.62970 0.47230 0.72320 0.13600
H 	H 	0.63980 0.53620 0.71220 -0.00700
C 	C 	0.67420 0.43970 0.65650 -0.18700
C 	C 	0.65540 0.34290 0.67280 0.06600
H 	H 	0.68330 0.32060 0.62770 0.00100
C 	C 	0.52730 0.44910 0.87920 0.57000
C 	C 	0.74030 0.50760 0.56650 0.42700
C 	C 	0.05150 0.37880 0.84190 0.35700
C 	C 	0.06520 0.48220 0.81950 -0.17200
C 	C 	0.97660 0.54040 0.76760 0.11200
H 	H 	0.91250 0.51490 0.74470 -0.01400
C 	C 	0.98300 0.63720 0.74970 -0.26400
C 	C 	0.08480 0.67870 0.77840 0.15900
C 	C 	0.17560 0.61960 0.82950 -0.17800
C 	C 	0.16210 0.52250 0.85180 0.10500
H 	H 	0.21870 0.48410 0.88890 -0.01100
C 	C 	0.86690 0.69340 0.70510 0.52400
C 	C 	0.29810 0.65850 0.85550 0.35100
C 	C 	0.09190 0.78180 0.75860 -0.13600
C 	C 	0.07550 0.81800 0.82570 0.12100
H 	H 	0.06230 0.77660 0.88340 -0.02500
C 	C 	0.07850 0.91290 0.80790 -0.24600
C 	C 	0.09840 0.97640 0.72140 0.18100
H 	H 	0.09930 0.04070 0.70890 -0.04900
C 	C 	0.11640 0.94180 0.65530 -0.23900
C 	C 	0.11370 0.84620 0.67260 0.12200
H 	H 	0.12660 0.82460 0.62660 0.00900
C 	C 	0.05430 0.95150 0.88110 0.53900
C 	C 	0.14100 0.01020 0.56170 0.53700
