data_crystal

_cell_length_a 9.41700
_cell_length_b 15.28900
_cell_length_c 16.75000
_cell_angle_alpha 68.97800
_cell_angle_beta  79.29100
_cell_angle_gamma 89.35900

_symmetry_space_group_name_	'P 1'
_symmetry_space_group_name_H-M	'P 1'

loop_
_symmetry_equiv_pos_as_xyz
  x,y,z

loop_
_atom_site_label
_atom_site_type_symbol
_atom_site_fract_x
_atom_site_fract_y
_atom_site_fract_z
_atom_site_charge
Pr	Pr	0.08383 0.17215 0.89228 2.04700
Pr	Pr	0.38327 0.23849 0.47817 2.00200
Pr	Pr	0.50094 0.32236 0.10905 2.05100
O 	O 	0.25060 0.19560 0.75320 -0.51300
O 	O 	0.39250 0.23530 0.62360 -0.52700
O 	O 	0.89130 0.21390 0.79670 -0.39300
O 	O 	0.80510 0.12880 0.93530 -0.41000
O 	O 	0.49210 0.84860 0.79570 -0.44400
O 	O 	0.58980 0.82660 0.90930 -0.44800
O 	O 	0.67230 0.47050 0.50500 -0.53500
H 	H 	0.70360 0.51110 0.45720 0.29800
O 	O 	0.63300 0.59350 0.54400 -0.55800
O 	O 	0.57300 0.53830 0.86180 -0.52700
O 	O 	0.51670 0.39280 0.95690 -0.56600
O 	O 	0.59910 0.31650 0.36710 -0.54000
O 	O 	0.58390 0.30140 0.24270 -0.55900
O 	O 	0.24580 0.27880 0.20770 -0.42300
O 	O 	0.24780 0.36410 0.07120 -0.41100
O 	O 	0.03200 0.67530 0.08730 -0.41300
O 	O 	0.84960 0.65840 0.19500 -0.43700
O 	O 	0.01370 0.10980 0.04450 -0.55900
O 	O 	0.96410 0.96550 0.14090 -0.54100
O 	O 	0.73520 0.90880 0.43900 -0.56300
O 	O 	0.73470 0.01940 0.49550 -0.34200
C 	C 	0.36540 0.19340 0.70450 0.48600
C 	C 	0.48160 0.13740 0.74990 -0.24300
C 	C 	0.58330 0.17930 0.77830 0.14400
C 	C 	0.67480 0.11980 0.82930 -0.16400
C 	C 	0.66100 0.02380 0.85130 0.09100
H 	H 	0.71730 0.98550 0.88840 0.00600
C 	C 	0.56430 0.98290 0.81890 -0.15900
C 	C 	0.47540 0.04160 0.76740 0.10200
H 	H 	0.41110 0.01610 0.74440 -0.00400
C 	C 	0.79450 0.15830 0.85500 0.32500
C 	C 	0.55140 0.87900 0.84320 0.35300
C 	C 	0.59030 0.28200 0.75870 -0.11300
C 	C 	0.61250 0.34630 0.67220 0.11300
H 	H 	0.62550 0.32420 0.62650 0.01300
C 	C 	0.61530 0.44100 0.65440 -0.22900
C 	C 	0.59660 0.47510 0.72210 0.16000
H 	H 	0.59780 0.53960 0.70940 -0.04200
C 	C 	0.57630 0.41450 0.80800 -0.21800
C 	C 	0.57370 0.31860 0.82590 0.08900
H 	H 	0.56070 0.27750 0.88360 -0.00700
C 	C 	0.63950 0.50970 0.56350 0.51500
C 	C 	0.55460 0.45030 0.88080 0.47600
C 	C 	0.64900 0.32480 0.29120 0.47300
C 	C 	0.80120 0.36990 0.25000 -0.21100
C 	C 	0.91860 0.32200 0.22410 0.11200
C 	C 	0.04820 0.37660 0.17540 -0.15300
C 	C 	0.05370 0.47340 0.14980 0.08800
H 	H 	0.13630 0.50810 0.11290 0.00700
C 	C 	0.93870 0.52040 0.17790 -0.15100
C 	C 	0.81220 0.46640 0.22910 0.08800
H 	H 	0.73430 0.49570 0.24930 0.01500
C 	C 	0.18690 0.33590 0.15020 0.33800
C 	C 	0.94280 0.62460 0.15120 0.33200
C 	C 	0.90530 0.21920 0.24350 -0.08500
C 	C 	0.94700 0.18500 0.17720 0.05200
H 	H 	0.98630 0.22650 0.12140 0.00900
C 	C 	0.93110 0.08850 0.19280 -0.18500
C 	C 	0.86910 0.02920 0.27600 0.10500
H 	H 	0.85670 0.96530 0.28730 0.00800
C 	C 	0.82570 0.06180 0.34170 -0.15500
C 	C 	0.84590 0.15720 0.32620 0.04400
H 	H 	0.81930 0.17920 0.37160 0.01000
C 	C 	0.97190 0.05050 0.12130 0.48300
C 	C 	0.76040 0.99170 0.43330 0.39200
Pr	Pr	0.91617 0.82785 0.10772 2.04800
Pr	Pr	0.61673 0.76151 0.52183 2.00300
Pr	Pr	0.49906 0.67764 0.89095 2.05100
O 	O 	0.74940 0.80440 0.24680 -0.51300
O 	O 	0.60750 0.76470 0.37640 -0.52700
O 	O 	0.10870 0.78610 0.20330 -0.39300
O 	O 	0.19490 0.87120 0.06470 -0.41000
O 	O 	0.50790 0.15140 0.20430 -0.44400
O 	O 	0.41020 0.17340 0.09070 -0.44800
O 	O 	0.32770 0.52950 0.49500 -0.53500
H 	H 	0.29640 0.48890 0.54280 0.29800
O 	O 	0.36700 0.40650 0.45600 -0.55800
O 	O 	0.42700 0.46170 0.13820 -0.52700
O 	O 	0.48330 0.60720 0.04310 -0.56600
O 	O 	0.40090 0.68350 0.63290 -0.54000
O 	O 	0.41610 0.69860 0.75730 -0.55900
O 	O 	0.75420 0.72120 0.79230 -0.42300
O 	O 	0.75220 0.63590 0.92880 -0.41100
O 	O 	0.96800 0.32470 0.91270 -0.41300
O 	O 	0.15040 0.34160 0.80500 -0.43700
O 	O 	0.98630 0.89020 0.95550 -0.55900
O 	O 	0.03590 0.03450 0.85910 -0.54100
O 	O 	0.26480 0.09120 0.56100 -0.56300
O 	O 	0.26530 0.98060 0.50450 -0.34200
C 	C 	0.63460 0.80660 0.29550 0.48600
C 	C 	0.51840 0.86260 0.25010 -0.24300
C 	C 	0.41670 0.82070 0.22170 0.14400
C 	C 	0.32520 0.88020 0.17070 -0.16400
C 	C 	0.33900 0.97620 0.14870 0.09100
H 	H 	0.28270 0.01450 0.11160 0.00600
C 	C 	0.43570 0.01710 0.18110 -0.15900
C 	C 	0.52460 0.95840 0.23260 0.10200
H 	H 	0.58890 0.98390 0.25560 -0.00400
C 	C 	0.20550 0.84170 0.14500 0.32500
C 	C 	0.44860 0.12100 0.15680 0.35300
C 	C 	0.40970 0.71800 0.24130 -0.11300
C 	C 	0.38750 0.65370 0.32780 0.11300
H 	H 	0.37450 0.67580 0.37350 0.01300
C 	C 	0.38470 0.55900 0.34560 -0.22900
C 	C 	0.40340 0.52490 0.27790 0.16000
H 	H 	0.40220 0.46040 0.29060 -0.04200
C 	C 	0.42370 0.58550 0.19200 -0.21800
C 	C 	0.42630 0.68140 0.17410 0.08900
H 	H 	0.43930 0.72250 0.11640 -0.00700
C 	C 	0.36050 0.49030 0.43650 0.51500
C 	C 	0.44540 0.54970 0.11920 0.47600
C 	C 	0.35100 0.67520 0.70880 0.47300
C 	C 	0.19880 0.63010 0.75000 -0.21100
C 	C 	0.08140 0.67800 0.77590 0.11200
C 	C 	0.95180 0.62340 0.82460 -0.15300
C 	C 	0.94630 0.52660 0.85020 0.08800
H 	H 	0.86370 0.49190 0.88710 0.00700
C 	C 	0.06130 0.47960 0.82210 -0.15100
C 	C 	0.18780 0.53360 0.77090 0.08800
H 	H 	0.26570 0.50430 0.75070 0.01500
C 	C 	0.81310 0.66410 0.84980 0.33800
C 	C 	0.05720 0.37540 0.84880 0.33200
C 	C 	0.09470 0.78080 0.75650 -0.08500
C 	C 	0.05300 0.81500 0.82280 0.05200
H 	H 	0.01370 0.77350 0.87860 0.00900
C 	C 	0.06890 0.91150 0.80720 -0.18500
C 	C 	0.13090 0.97080 0.72400 0.10500
H 	H 	0.14330 0.03470 0.71270 0.00800
C 	C 	0.17430 0.93820 0.65830 -0.15500
C 	C 	0.15410 0.84280 0.67380 0.04400
H 	H 	0.18070 0.82080 0.62840 0.01000
C 	C 	0.02810 0.94950 0.87870 0.48300
C 	C 	0.23960 0.00830 0.56670 0.39200
