data_crystal

_cell_length_a 18.41480
_cell_length_b 29.55740
_cell_length_c 16.31550
_cell_angle_alpha 90.00000
_cell_angle_beta  119.26900
_cell_angle_gamma 90.00000

_symmetry_space_group_name_	'P 1'
_symmetry_space_group_name_H-M	'P 1'

loop_
_symmetry_equiv_pos_as_xyz
  x,y,z

loop_
_atom_site_label
_atom_site_type_symbol
_atom_site_fract_x
_atom_site_fract_y
_atom_site_fract_z
_atom_site_charge
Cd	Cd	0.09561 0.63063 0.13057 1.22800
O 	O 	0.09089 0.59639 0.24960 -0.47100
O 	O 	0.06090 0.43044 0.53270 -0.40200
O 	O 	0.95888 0.66197 0.08410 -0.40200
O 	O 	0.70589 0.82704 0.72150 -0.45900
O 	O 	0.36700 0.66394 0.17690 -0.42500
O 	O 	0.55610 0.57734 0.36560 -0.38200
O 	O 	0.21370 0.57013 0.27820 -0.36800
O 	O 	0.18630 0.40501 0.57330 -0.40300
O 	O 	0.62010 0.79523 0.76390 -0.35100
O 	O 	0.45190 0.69354 0.13340 -0.35200
O 	O 	0.02590 0.68179 0.00950 -0.43100
C 	C 	0.20960 0.50320 0.39890 0.00400
H 	H 	0.25550 0.50360 0.38950 0.04100
O 	O 	0.42720 0.59182 0.32740 -0.41400
C 	C 	0.33030 0.75673 0.01690 -0.03000
H 	H 	0.38440 0.76140 0.02840 0.06900
C 	C 	0.75160 0.73994 0.89530 -0.01600
H 	H 	0.70170 0.73920 0.89670 0.05200
C 	C 	0.20400 0.47028 0.45660 -0.04700
H 	H 	0.24610 0.44890 0.48560 0.06500
C 	C 	0.81720 0.71284 0.95630 -0.01900
H 	H 	0.81110 0.69410 0.99840 0.05400
C 	C 	0.68930 0.79872 0.76810 0.34400
C 	C 	0.89170 0.71338 0.95510 -0.06300
C 	C 	0.07500 0.50120 0.42810 -0.05000
H 	H 	0.02920 0.50060 0.43760 0.05700
C 	C 	0.43090 0.52751 0.45710 -0.02100
H 	H 	0.38430 0.54610 0.42860 0.05200
C 	C 	0.14780 0.53542 0.35540 -0.09600
C 	C 	0.13640 0.46928 0.47080 -0.04300
C 	C 	0.15240 0.56989 0.29070 0.35300
C 	C 	0.49590 0.53374 0.43870 -0.06700
C 	C 	0.89910 0.74086 0.89230 -0.01900
H 	H 	0.94890 0.74120 0.89060 0.08500
C 	C 	0.23250 0.71572 0.04510 -0.01200
H 	H 	0.22080 0.69270 0.07570 0.04200
C 	C 	0.31400 0.72205 0.06260 -0.06000
C 	C 	0.56510 0.50590 0.48270 -0.01700
H 	H 	0.60940 0.50990 0.47120 0.05300
C 	C 	0.75940 0.76793 0.83280 -0.07100
C 	C 	0.83430 0.76811 0.83140 -0.01000
H 	H 	0.84070 0.78670 0.78930 0.05300
C 	C 	0.38240 0.69154 0.12870 0.32600
C 	C 	0.08030 0.53405 0.37150 0.00400
H 	H 	0.03830 0.55550 0.34370 0.02300
C 	C 	0.96330 0.68374 0.02110 0.38200
C 	C 	0.12810 0.43241 0.53050 0.31300
C 	C 	0.49220 0.57014 0.37250 0.34100
Na	Na	0.29578 0.61398 0.22518 0.58800
Cd	Cd	0.59561 0.13063 0.13057 1.23200
O 	O 	0.59089 0.09639 0.24960 -0.45500
O 	O 	0.56090 0.93044 0.53270 -0.38200
O 	O 	0.45888 0.16197 0.08410 -0.40800
O 	O 	0.20589 0.32704 0.72150 -0.46300
O 	O 	0.86700 0.16394 0.17690 -0.41300
O 	O 	0.05610 0.07734 0.36560 -0.42100
O 	O 	0.71370 0.07013 0.27820 -0.36500
O 	O 	0.68630 0.90501 0.57330 -0.39800
O 	O 	0.12010 0.29523 0.76390 -0.36500
O 	O 	0.95190 0.19354 0.13340 -0.32400
O 	O 	0.52590 0.18179 0.00950 -0.37600
C 	C 	0.70960 0.00320 0.39890 0.00800
H 	H 	0.75550 0.00360 0.38950 0.04300
O 	O 	0.92720 0.09182 0.32740 -0.40600
C 	C 	0.83030 0.25673 0.01690 -0.03000
H 	H 	0.88440 0.26140 0.02840 0.07700
C 	C 	0.25160 0.23994 0.89530 -0.00500
H 	H 	0.20170 0.23920 0.89670 0.04400
C 	C 	0.70400 0.97028 0.45660 -0.04700
H 	H 	0.74610 0.94890 0.48560 0.06900
C 	C 	0.31720 0.21284 0.95630 -0.03800
H 	H 	0.31110 0.19410 0.99840 0.05800
C 	C 	0.18930 0.29872 0.76810 0.34800
C 	C 	0.39170 0.21338 0.95510 -0.04500
C 	C 	0.57500 0.00120 0.42810 -0.04800
H 	H 	0.52920 0.00060 0.43760 0.07300
C 	C 	0.93090 0.02751 0.45710 -0.15400
H 	H 	0.88430 0.04610 0.42860 0.10100
C 	C 	0.64780 0.03542 0.35540 -0.08900
C 	C 	0.63640 0.96928 0.47080 -0.03400
C 	C 	0.65240 0.06989 0.29070 0.35300
C 	C 	0.99590 0.03374 0.43870 0.07500
C 	C 	0.39910 0.24086 0.89230 -0.03800
H 	H 	0.44890 0.24120 0.89060 0.07300
C 	C 	0.73250 0.21572 0.04510 -0.01000
H 	H 	0.72080 0.19270 0.07570 0.04200
C 	C 	0.81400 0.22205 0.06260 -0.05400
C 	C 	0.06510 0.00590 0.48270 -0.19800
H 	H 	0.10940 0.00990 0.47120 0.10700
C 	C 	0.25940 0.26793 0.83280 -0.08400
C 	C 	0.33430 0.26811 0.83140 -0.00300
H 	H 	0.34070 0.28670 0.78930 0.04600
C 	C 	0.88240 0.19154 0.12870 0.32300
C 	C 	0.58030 0.03405 0.37150 0.01000
H 	H 	0.53830 0.05550 0.34370 0.03800
C 	C 	0.46330 0.18374 0.02110 0.31400
C 	C 	0.62810 0.93241 0.53050 0.31000
C 	C 	0.99220 0.07014 0.37250 0.36000
Na	Na	0.79578 0.11398 0.22518 0.58900
Cd	Cd	0.90439 0.63063 0.36943 1.23800
O 	O 	0.90911 0.59639 0.25040 -0.43700
O 	O 	0.93910 0.43044 0.96730 -0.36300
O 	O 	0.04112 0.66197 0.41590 -0.41100
O 	O 	0.29411 0.82704 0.77850 -0.46100
O 	O 	0.63300 0.66394 0.32310 -0.42500
O 	O 	0.44390 0.57734 0.13440 -0.38300
O 	O 	0.78630 0.57013 0.22180 -0.36200
O 	O 	0.81370 0.40501 0.92670 -0.39600
O 	O 	0.37990 0.79523 0.73610 -0.35200
O 	O 	0.54810 0.69354 0.36660 -0.35300
O 	O 	0.97410 0.68179 0.49050 -0.31900
C 	C 	0.79040 0.50320 0.10110 0.00700
H 	H 	0.74450 0.50360 0.11050 0.04300
O 	O 	0.57280 0.59182 0.17260 -0.41400
C 	C 	0.66970 0.75673 0.48310 -0.02200
H 	H 	0.61560 0.76140 0.47160 0.06700
C 	C 	0.24840 0.73994 0.60470 0.00200
H 	H 	0.29830 0.73920 0.60330 0.04500
C 	C 	0.79600 0.47028 0.04340 -0.04700
H 	H 	0.75390 0.44890 0.01440 0.06800
C 	C 	0.18280 0.71284 0.54370 -0.05200
H 	H 	0.18890 0.69410 0.50160 0.06300
C 	C 	0.31070 0.79872 0.73190 0.34800
C 	C 	0.10830 0.71338 0.54490 -0.02900
C 	C 	0.92500 0.50120 0.07190 -0.04600
H 	H 	0.97080 0.50060 0.06240 0.09000
C 	C 	0.56910 0.52751 0.04290 -0.01700
H 	H 	0.61570 0.54610 0.07140 0.05200
C 	C 	0.85220 0.53542 0.14460 -0.08200
C 	C 	0.86360 0.46928 0.02920 -0.02700
C 	C 	0.84760 0.56989 0.20930 0.35000
C 	C 	0.50410 0.53374 0.06130 -0.07000
C 	C 	0.10090 0.74086 0.60770 -0.05300
H 	H 	0.05110 0.74120 0.60940 0.06000
C 	C 	0.76750 0.71572 0.45490 0.00000
H 	H 	0.77920 0.69270 0.42430 0.04000
C 	C 	0.68600 0.72205 0.43740 -0.06500
C 	C 	0.43490 0.50590 0.01730 -0.01400
H 	H 	0.39060 0.50990 0.02880 0.05100
C 	C 	0.24060 0.76793 0.66720 -0.08700
C 	C 	0.16570 0.76811 0.66860 0.00100
H 	H 	0.15930 0.78670 0.71070 0.04000
C 	C 	0.61760 0.69154 0.37130 0.32900
C 	C 	0.91970 0.53405 0.12850 0.01200
H 	H 	0.96170 0.55550 0.15630 0.05500
C 	C 	0.03670 0.68374 0.47890 0.24600
C 	C 	0.87190 0.43241 0.96950 0.30700
C 	C 	0.50780 0.57014 0.12750 0.34200
Na	Na	0.70422 0.61398 0.27482 0.58900
Cd	Cd	0.40439 0.13063 0.36943 1.23200
O 	O 	0.40911 0.09639 0.25040 -0.45500
O 	O 	0.43910 0.93044 0.96730 -0.38200
O 	O 	0.54112 0.16197 0.41590 -0.40800
O 	O 	0.79411 0.32704 0.77850 -0.45700
O 	O 	0.13300 0.16394 0.32310 -0.43200
O 	O 	0.94390 0.07734 0.13440 -0.33900
O 	O 	0.28630 0.07013 0.22180 -0.36500
O 	O 	0.31370 0.90501 0.92670 -0.40000
O 	O 	0.87990 0.29523 0.73610 -0.33600
O 	O 	0.04810 0.19354 0.36660 -0.37700
O 	O 	0.47410 0.18179 0.49050 -0.37600
C 	C 	0.29040 0.00320 0.10110 0.00300
H 	H 	0.24450 0.00360 0.11050 0.04100
O 	O 	0.07280 0.09182 0.17260 -0.41800
C 	C 	0.16970 0.25673 0.48310 -0.02200
H 	H 	0.11560 0.26140 0.47160 0.05900
C 	C 	0.74840 0.23994 0.60470 -0.01000
H 	H 	0.79830 0.23920 0.60330 0.05400
C 	C 	0.29600 0.97028 0.04340 -0.04800
H 	H 	0.25390 0.94890 0.01440 0.06300
C 	C 	0.68280 0.21284 0.54370 -0.03200
H 	H 	0.68890 0.19410 0.50160 0.05900
C 	C 	0.81070 0.29872 0.73190 0.34300
C 	C 	0.60830 0.21338 0.54490 -0.04700
C 	C 	0.42500 0.00120 0.07190 -0.04800
H 	H 	0.47080 0.00060 0.06240 0.07300
C 	C 	0.06910 0.02751 0.04290 0.11200
H 	H 	0.11570 0.04610 0.07140 0.00400
C 	C 	0.35220 0.03542 0.14460 -0.08900
C 	C 	0.36360 0.96928 0.02920 -0.03600
C 	C 	0.34760 0.06989 0.20930 0.35100
C 	C 	0.00410 0.03374 0.06130 -0.20800
C 	C 	0.60090 0.24086 0.60770 -0.03300
H 	H 	0.55110 0.24120 0.60940 0.07100
C 	C 	0.26750 0.21572 0.45490 -0.00200
H 	H 	0.27920 0.19270 0.42430 0.03900
C 	C 	0.18600 0.22205 0.43740 -0.07200
C 	C 	0.93490 0.00590 0.01730 0.16300
H 	H 	0.89060 0.00990 0.02880 -0.00200
C 	C 	0.74060 0.26793 0.66720 -0.07400
C 	C 	0.66570 0.26811 0.66860 -0.00700
H 	H 	0.65930 0.28670 0.71070 0.04800
C 	C 	0.11760 0.19154 0.37130 0.33200
C 	C 	0.41970 0.03405 0.12850 0.00800
H 	H 	0.46170 0.05550 0.15630 0.03900
C 	C 	0.53670 0.18374 0.47890 0.31500
C 	C 	0.37190 0.93241 0.96950 0.30900
C 	C 	0.00780 0.07014 0.12750 0.32300
Na	Na	0.20422 0.11398 0.27482 0.58800
Cd	Cd	0.90439 0.36937 0.86943 1.23800
O 	O 	0.90911 0.40361 0.75040 -0.43700
O 	O 	0.93910 0.56956 0.46730 -0.36200
O 	O 	0.04112 0.33803 0.91590 -0.41200
O 	O 	0.29411 0.17296 0.27850 -0.46100
O 	O 	0.63300 0.33606 0.82310 -0.42500
O 	O 	0.44390 0.42266 0.63440 -0.38300
O 	O 	0.78630 0.42987 0.72180 -0.36200
O 	O 	0.81370 0.59499 0.42670 -0.39600
O 	O 	0.37990 0.20477 0.23610 -0.35200
O 	O 	0.54810 0.30646 0.86660 -0.35300
O 	O 	0.97410 0.31821 0.99050 -0.32100
C 	C 	0.79040 0.49680 0.60110 0.00700
H 	H 	0.74450 0.49640 0.61050 0.04400
O 	O 	0.57280 0.40818 0.67260 -0.41400
C 	C 	0.66970 0.24327 0.98310 -0.02500
H 	H 	0.61560 0.23860 0.97160 0.06800
C 	C 	0.24840 0.26006 0.10470 0.00200
H 	H 	0.29830 0.26080 0.10330 0.04500
C 	C 	0.79600 0.52972 0.54340 -0.04700
H 	H 	0.75390 0.55110 0.51440 0.06700
C 	C 	0.18280 0.28716 0.04370 -0.05200
H 	H 	0.18890 0.30590 0.00160 0.06300
C 	C 	0.31070 0.20128 0.23190 0.34800
C 	C 	0.10830 0.28662 0.04490 -0.02900
C 	C 	0.92500 0.49880 0.57190 -0.04500
H 	H 	0.97080 0.49940 0.56240 0.09000
C 	C 	0.56910 0.47249 0.54290 -0.02000
H 	H 	0.61570 0.45390 0.57140 0.05200
C 	C 	0.85220 0.46458 0.64460 -0.08200
C 	C 	0.86360 0.53072 0.52920 -0.02800
C 	C 	0.84760 0.43011 0.70930 0.35000
C 	C 	0.50410 0.46626 0.56130 -0.06800
C 	C 	0.10090 0.25914 0.10770 -0.05300
H 	H 	0.05110 0.25880 0.10940 0.06000
C 	C 	0.76750 0.28428 0.95490 -0.00300
H 	H 	0.77920 0.30730 0.92430 0.04100
C 	C 	0.68600 0.27795 0.93740 -0.06300
C 	C 	0.43490 0.49410 0.51730 -0.01700
H 	H 	0.39060 0.49010 0.52880 0.05200
C 	C 	0.24060 0.23207 0.16720 -0.08700
C 	C 	0.16570 0.23189 0.16860 0.00100
H 	H 	0.15930 0.21330 0.21070 0.04000
C 	C 	0.61760 0.30846 0.87130 0.32800
C 	C 	0.91970 0.46595 0.62850 0.01200
H 	H 	0.96170 0.44450 0.65630 0.05500
C 	C 	0.03670 0.31626 0.97890 0.24700
C 	C 	0.87190 0.56759 0.46950 0.30800
C 	C 	0.50780 0.42986 0.62750 0.34200
Na	Na	0.70422 0.38602 0.77482 0.58800
Cd	Cd	0.40439 0.86937 0.86943 1.23200
O 	O 	0.40911 0.90361 0.75040 -0.45500
O 	O 	0.43910 0.06956 0.46730 -0.38200
O 	O 	0.54112 0.83803 0.91590 -0.40800
O 	O 	0.79411 0.67296 0.27850 -0.45700
O 	O 	0.13300 0.83606 0.82310 -0.43200
O 	O 	0.94390 0.92266 0.63440 -0.33900
O 	O 	0.28630 0.92987 0.72180 -0.36500
O 	O 	0.31370 0.09499 0.42670 -0.40000
O 	O 	0.87990 0.70477 0.23610 -0.33500
O 	O 	0.04810 0.80646 0.86660 -0.37700
O 	O 	0.47410 0.81821 0.99050 -0.37600
C 	C 	0.29040 0.99680 0.60110 0.00300
H 	H 	0.24450 0.99640 0.61050 0.04100
O 	O 	0.07280 0.90818 0.67260 -0.41900
C 	C 	0.16970 0.74327 0.98310 -0.02400
H 	H 	0.11560 0.73860 0.97160 0.05900
C 	C 	0.74840 0.76006 0.10470 -0.00900
H 	H 	0.79830 0.76080 0.10330 0.05400
C 	C 	0.29600 0.02972 0.54340 -0.04800
H 	H 	0.25390 0.05110 0.51440 0.06300
C 	C 	0.68280 0.78716 0.04370 -0.03300
H 	H 	0.68890 0.80590 0.00160 0.05900
C 	C 	0.81070 0.70128 0.23190 0.34300
C 	C 	0.60830 0.78662 0.04490 -0.04600
C 	C 	0.42500 0.99880 0.57190 -0.04700
H 	H 	0.47080 0.99940 0.56240 0.07300
C 	C 	0.06910 0.97249 0.54290 0.11200
H 	H 	0.11570 0.95390 0.57140 0.00400
C 	C 	0.35220 0.96458 0.64460 -0.08900
C 	C 	0.36360 0.03072 0.52920 -0.03700
C 	C 	0.34760 0.93011 0.70930 0.35100
C 	C 	0.00410 0.96626 0.56130 -0.20900
C 	C 	0.60090 0.75914 0.10770 -0.03400
H 	H 	0.55110 0.75880 0.10940 0.07200
C 	C 	0.26750 0.78428 0.95490 -0.00500
H 	H 	0.27920 0.80730 0.92430 0.04000
C 	C 	0.18600 0.77795 0.93740 -0.07000
C 	C 	0.93490 0.99410 0.51730 0.16300
H 	H 	0.89060 0.99010 0.52880 -0.00200
C 	C 	0.74060 0.73207 0.16720 -0.07400
C 	C 	0.66570 0.73189 0.16860 -0.00700
H 	H 	0.65930 0.71330 0.21070 0.04800
C 	C 	0.11760 0.80846 0.87130 0.33100
C 	C 	0.41970 0.96595 0.62850 0.00700
H 	H 	0.46170 0.94450 0.65630 0.03900
C 	C 	0.53670 0.81626 0.97890 0.31400
C 	C 	0.37190 0.06759 0.46950 0.31000
C 	C 	0.00780 0.92986 0.62750 0.32300
Na	Na	0.20422 0.88602 0.77482 0.58800
Cd	Cd	0.09561 0.36937 0.63057 1.22700
O 	O 	0.09089 0.40361 0.74960 -0.47100
O 	O 	0.06090 0.56956 0.03270 -0.40200
O 	O 	0.95888 0.33803 0.58410 -0.40200
O 	O 	0.70589 0.17296 0.22150 -0.45900
O 	O 	0.36700 0.33606 0.67690 -0.42500
O 	O 	0.55610 0.42266 0.86560 -0.38200
O 	O 	0.21370 0.42987 0.77820 -0.36800
O 	O 	0.18630 0.59499 0.07330 -0.40300
O 	O 	0.62010 0.20477 0.26390 -0.35100
O 	O 	0.45190 0.30646 0.63340 -0.35200
O 	O 	0.02590 0.31821 0.50950 -0.43200
C 	C 	0.20960 0.49680 0.89890 0.00300
H 	H 	0.25550 0.49640 0.88950 0.04200
O 	O 	0.42720 0.40818 0.82740 -0.41400
C 	C 	0.33030 0.24327 0.51690 -0.03300
H 	H 	0.38440 0.23860 0.52840 0.07000
C 	C 	0.75160 0.26006 0.39530 -0.01500
H 	H 	0.70170 0.26080 0.39670 0.05200
C 	C 	0.20400 0.52972 0.95660 -0.04700
H 	H 	0.24610 0.55110 0.98560 0.06400
C 	C 	0.81720 0.28716 0.45630 -0.02000
H 	H 	0.81110 0.30590 0.49840 0.05500
C 	C 	0.68930 0.20128 0.26810 0.34400
C 	C 	0.89170 0.28662 0.45510 -0.06100
C 	C 	0.07500 0.49880 0.92810 -0.04900
H 	H 	0.02920 0.49940 0.93760 0.05700
C 	C 	0.43090 0.47249 0.95710 -0.02400
H 	H 	0.38430 0.45390 0.92860 0.05300
C 	C 	0.14780 0.46458 0.85540 -0.09500
C 	C 	0.13640 0.53072 0.97080 -0.04400
C 	C 	0.15240 0.43011 0.79070 0.35300
C 	C 	0.49590 0.46626 0.93870 -0.06500
C 	C 	0.89910 0.25914 0.39230 -0.01900
H 	H 	0.94890 0.25880 0.39060 0.08500
C 	C 	0.23250 0.28428 0.54510 -0.01500
H 	H 	0.22080 0.30730 0.57570 0.04300
C 	C 	0.31400 0.27795 0.56260 -0.05900
C 	C 	0.56510 0.49410 0.98270 -0.02100
H 	H 	0.60940 0.49010 0.97120 0.05300
C 	C 	0.75940 0.23207 0.33280 -0.07200
C 	C 	0.83430 0.23189 0.33140 -0.01000
H 	H 	0.84070 0.21330 0.28930 0.05300
C 	C 	0.38240 0.30846 0.62870 0.32500
C 	C 	0.08030 0.46595 0.87150 0.00400
H 	H 	0.03830 0.44450 0.84370 0.02300
C 	C 	0.96330 0.31626 0.52110 0.38200
C 	C 	0.12810 0.56759 0.03050 0.31300
C 	C 	0.49220 0.42986 0.87250 0.34100
Na	Na	0.29578 0.38602 0.72518 0.58800
Cd	Cd	0.59561 0.86937 0.63057 1.23200
O 	O 	0.59089 0.90361 0.74960 -0.45500
O 	O 	0.56090 0.06956 0.03270 -0.38200
O 	O 	0.45888 0.83803 0.58410 -0.40800
O 	O 	0.20589 0.67296 0.22150 -0.46300
O 	O 	0.86700 0.83606 0.67690 -0.41300
O 	O 	0.05610 0.92266 0.86560 -0.42100
O 	O 	0.71370 0.92987 0.77820 -0.36500
O 	O 	0.68630 0.09499 0.07330 -0.39800
O 	O 	0.12010 0.70477 0.26390 -0.36500
O 	O 	0.95190 0.80646 0.63340 -0.32400
O 	O 	0.52590 0.81821 0.50950 -0.37600
C 	C 	0.70960 0.99680 0.89890 0.00700
H 	H 	0.75550 0.99640 0.88950 0.04400
O 	O 	0.92720 0.90818 0.82740 -0.40600
C 	C 	0.83030 0.74327 0.51690 -0.03300
H 	H 	0.88440 0.73860 0.52840 0.07800
C 	C 	0.25160 0.76006 0.39530 -0.00500
H 	H 	0.20170 0.76080 0.39670 0.04400
C 	C 	0.70400 0.02972 0.95660 -0.04600
H 	H 	0.74610 0.05110 0.98560 0.06900
C 	C 	0.31720 0.78716 0.45630 -0.03900
H 	H 	0.31110 0.80590 0.49840 0.05800
C 	C 	0.18930 0.70128 0.26810 0.34800
C 	C 	0.39170 0.78662 0.45510 -0.04400
C 	C 	0.57500 0.99880 0.92810 -0.04700
H 	H 	0.52920 0.99940 0.93760 0.07300
C 	C 	0.93090 0.97249 0.95710 -0.15400
H 	H 	0.88430 0.95390 0.92860 0.10100
C 	C 	0.64780 0.96458 0.85540 -0.08900
C 	C 	0.63640 0.03072 0.97080 -0.03600
C 	C 	0.65240 0.93011 0.79070 0.35300
C 	C 	0.99590 0.96626 0.93870 0.07400
C 	C 	0.39910 0.75914 0.39230 -0.03900
H 	H 	0.44890 0.75880 0.39060 0.07300
C 	C 	0.73250 0.78428 0.54510 -0.01300
H 	H 	0.72080 0.80730 0.57570 0.04400
C 	C 	0.81400 0.77795 0.56260 -0.05200
C 	C 	0.06510 0.99410 0.98270 -0.19700
H 	H 	0.10940 0.99010 0.97120 0.10600
C 	C 	0.25940 0.73207 0.33280 -0.08400
C 	C 	0.33430 0.73189 0.33140 -0.00200
H 	H 	0.34070 0.71330 0.28930 0.04500
C 	C 	0.88240 0.80846 0.62870 0.32200
C 	C 	0.58030 0.96595 0.87150 0.00900
H 	H 	0.53830 0.94450 0.84370 0.03900
C 	C 	0.46330 0.81626 0.52110 0.31300
C 	C 	0.62810 0.06759 0.03050 0.31100
C 	C 	0.99220 0.92986 0.87250 0.35900
Na	Na	0.79578 0.88602 0.72518 0.58900
Cd	Cd	0.50000 0.63254 0.25000 1.24300
Cd	Cd	-0.00000 0.13254 0.25000 1.22600
Cd	Cd	0.50000 0.36746 0.75000 1.24300
Cd	Cd	0.00000 0.86746 0.75000 1.22600
Na	Na	-0.00000 0.65814 0.25000 0.57800
Na	Na	0.50000 0.15814 0.25000 0.58500
Na	Na	0.00000 0.34186 0.75000 0.57800
Na	Na	0.50000 0.84186 0.75000 0.58500
