data_crystal

_cell_length_a 19.99900
_cell_length_b 18.62840
_cell_length_c 35.12300
_cell_angle_alpha 90.00000
_cell_angle_beta  90.00000
_cell_angle_gamma 90.00000

_symmetry_space_group_name_	'P 1'
_symmetry_space_group_name_H-M	'P 1'

loop_
_symmetry_equiv_pos_as_xyz
  x,y,z

loop_
_atom_site_label
_atom_site_type_symbol
_atom_site_fract_x
_atom_site_fract_y
_atom_site_fract_z
_atom_site_charge
C 	C 	0.72090 0.34110 0.67700 0.40200
C 	C 	0.68300 0.41120 0.67800 -0.09000
C 	C 	0.97330 0.26850 0.62890 -0.09900
C 	C 	0.67900 0.44920 0.71160 -0.00600
H 	H 	0.69980 0.43100 0.73320 0.05500
C 	C 	0.64480 0.51400 0.71420 -0.02800
H 	H 	0.64230 0.53890 0.73710 0.05900
C 	C 	0.61370 0.54100 0.68080 -0.07300
C 	C 	0.61950 0.50420 0.64700 -0.02600
H 	H 	0.60070 0.52310 0.62500 0.05000
C 	C 	0.65270 0.43980 0.64560 -0.00700
H 	H 	0.65500 0.41490 0.62270 0.04600
C 	C 	0.57220 0.60870 0.68300 0.37100
C 	C 	0.73540 0.10900 0.66670 0.36100
C 	C 	0.69880 0.03740 0.67030 -0.06700
C 	C 	0.69150 0.99120 0.63950 -0.02200
H 	H 	0.71120 0.00240 0.61630 0.05400
C 	C 	0.65530 0.92900 0.64350 -0.01800
H 	H 	0.64860 0.89920 0.62260 0.05000
C 	C 	0.62860 0.91040 0.67870 -0.06700
C 	C 	0.63550 0.95540 0.70970 -0.01700
H 	H 	0.61640 0.94340 0.73300 0.06200
C 	C 	0.67070 0.01750 0.70570 -0.02100
H 	H 	0.67630 0.04750 0.72660 0.06000
C 	C 	0.59080 0.84040 0.68280 0.34800
C 	C 	0.83340 0.14020 0.52710 0.39400
C 	C 	0.86650 0.06670 0.53000 -0.08300
C 	C 	0.88820 0.03300 0.49700 -0.01300
H 	H 	0.87950 0.05290 0.47330 0.05700
C 	C 	0.92360 0.96850 0.50020 -0.01400
H 	H 	0.94120 0.94700 0.47850 0.05700
C 	C 	0.93230 0.93670 0.53490 -0.07900
C 	C 	0.90870 0.96680 0.56600 -0.01600
H 	H 	0.91330 0.94370 0.58940 0.04300
C 	C 	0.87580 0.03520 0.56410 -0.01300
H 	H 	0.86100 0.05760 0.58620 0.03900
C 	C 	0.96940 0.86670 0.53880 0.37100
C 	C 	0.68530 0.25620 0.43640 0.27900
C 	C 	0.65370 0.25700 0.39660 -0.02600
C 	C 	0.59650 0.21900 0.39170 -0.03500
H 	H 	0.57680 0.19440 0.41190 0.06600
C 	C 	0.56770 0.21790 0.35480 -0.02000
H 	H 	0.53240 0.18720 0.34920 0.06200
C 	C 	0.59360 0.26450 0.32630 -0.04900
C 	C 	0.64600 0.30540 0.33450 -0.01200
H 	H 	0.66140 0.33810 0.31650 0.05600
C 	C 	0.67810 0.30020 0.36910 -0.03900
H 	H 	0.71670 0.32670 0.37350 0.06700
C 	C 	0.55670 0.26530 0.28840 0.30000
C 	C 	0.82580 0.36850 0.54870 0.38800
C 	C 	0.86000 0.43940 0.55230 -0.07600
C 	C 	0.87400 0.47210 0.58910 -0.02200
H 	H 	0.86030 0.44930 0.61140 0.05400
C 	C 	0.90780 0.53730 0.59110 -0.00200
H 	H 	0.91770 0.55780 0.61460 0.04900
C 	C 	0.92550 0.56950 0.55940 -0.08900
C 	C 	0.91260 0.54170 0.52340 -0.00700
H 	H 	0.92530 0.56770 0.50190 0.05700
C 	C 	0.88140 0.47670 0.51900 -0.02000
H 	H 	0.87430 0.45740 0.49490 0.06000
C 	C 	0.96340 0.64190 0.56170 0.43000
C 	C 	0.91770 0.27310 0.65710 0.37800
C 	C 	0.03050 0.31250 0.63170 -0.00400
H 	H 	0.03190 0.34820 0.65020 0.05200
C 	C 	0.08340 0.30390 0.60790 -0.02300
H 	H 	0.11930 0.33560 0.60930 0.04100
C 	C 	0.02650 0.20010 0.57710 -0.01800
H 	H 	0.02600 0.16410 0.55880 0.05700
C 	C 	0.97180 0.20970 0.60110 -0.01700
H 	H 	0.93500 0.17940 0.59950 0.03400
C 	C 	0.08450 0.24670 0.58090 -0.08200
C 	C 	0.14310 0.23570 0.55530 0.36100
C 	C 	0.16070 0.73570 0.57150 0.28400
C 	C 	0.21890 0.74930 0.59730 -0.05100
C 	C 	0.22060 0.79930 0.62240 -0.02700
H 	H 	0.18350 0.82880 0.62550 0.04600
C 	C 	0.27830 0.81070 0.64570 -0.00600
H 	H 	0.28050 0.85050 0.66160 0.05200
C 	C 	0.32860 0.76440 0.64460 -0.08200
C 	C 	0.32880 0.70680 0.61820 -0.00800
H 	H 	0.36540 0.67620 0.61660 0.03100
C 	C 	0.27420 0.69680 0.59520 -0.03800
H 	H 	0.27210 0.65800 0.57860 0.06200
C 	C 	0.38780 0.77070 0.67120 0.33300
C 	C 	0.11210 0.73870 0.44890 0.28800
C 	C 	0.13590 0.74120 0.40710 -0.03400
C 	C 	0.18460 0.78460 0.39550 -0.02700
H 	H 	0.20780 0.81160 0.41340 0.06300
C 	C 	0.20190 0.79070 0.35650 -0.02800
H 	H 	0.23540 0.82170 0.34850 0.06100
C 	C 	0.16750 0.74930 0.33140 -0.04200
C 	C 	0.11730 0.69920 0.34460 -0.02400
H 	H 	0.09540 0.66880 0.32770 0.06300
C 	C 	0.10340 0.69780 0.38160 -0.03000
H 	H 	0.07080 0.66640 0.39050 0.06500
C 	C 	0.18070 0.75830 0.28940 0.28100
Ca	Ca	0.77774 0.23396 0.60644 1.52100
Cd	Cd	0.81886 0.22973 0.71112 1.22900
O 	O 	0.75200 0.32390 0.70580 -0.42900
Ca	Ca	0.01954 0.77118 0.61684 1.51800
Cd	Cd	0.74735 0.25795 0.50412 1.24100
O 	O 	0.71630 0.30410 0.64730 -0.47200
Cd	Cd	0.06044 0.74530 0.51810 1.23700
O 	O 	0.56440 0.63850 0.71540 -0.42400
Cd	Cd	0.49941 0.73430 0.71908 1.23500
O 	O 	0.55090 0.63270 0.65220 -0.48200
O 	O 	0.74620 0.14350 0.69740 -0.43300
O 	O 	0.75130 0.12620 0.63360 -0.46300
O 	O 	0.56500 0.82800 0.71510 -0.40900
O 	O 	0.58370 0.79840 0.65380 -0.48100
O 	O 	0.82950 0.17650 0.55710 -0.49600
O 	O 	0.81060 0.15830 0.49630 -0.41600
O 	O 	0.97090 0.83730 0.57010 -0.49700
O 	O 	0.00080 0.84390 0.50860 -0.40800
O 	O 	0.73240 0.30020 0.44280 -0.35000
O 	O 	0.66950 0.20820 0.45960 -0.33700
O 	O 	0.57610 0.31240 0.26490 -0.35300
O 	O 	0.51160 0.22260 0.28070 -0.35700
O 	O 	0.81380 0.34680 0.51550 -0.43600
O 	O 	0.80780 0.33790 0.57880 -0.48200
O 	O 	0.97390 0.66850 0.59190 -0.50400
O 	O 	0.98600 0.66400 0.53020 -0.45500
O 	O 	0.86420 0.23910 0.65010 -0.56900
O 	O 	0.92620 0.30780 0.68520 -0.34600
O 	O 	0.14080 0.18910 0.53100 -0.36000
O 	O 	0.19300 0.27530 0.55930 -0.53800
O 	O 	0.15970 0.68650 0.54720 -0.34200
O 	O 	0.11160 0.78240 0.57430 -0.50700
O 	O 	0.43660 0.72830 0.66520 -0.54300
O 	O 	0.38430 0.81160 0.69920 -0.31200
O 	O 	0.07130 0.69140 0.45850 -0.35300
O 	O 	0.13700 0.78340 0.47110 -0.34900
O 	O 	0.14340 0.72400 0.26640 -0.36600
O 	O 	0.22660 0.79840 0.27760 -0.31900
C 	C 	0.27910 0.65890 0.17700 0.40300
C 	C 	0.31700 0.58880 0.17800 -0.08900
C 	C 	0.02670 0.73150 0.12890 -0.09600
C 	C 	0.32100 0.55080 0.21160 -0.00500
H 	H 	0.30020 0.56900 0.23320 0.05600
C 	C 	0.35520 0.48600 0.21420 -0.02600
H 	H 	0.35770 0.46110 0.23710 0.05900
C 	C 	0.38630 0.45900 0.18080 -0.07200
C 	C 	0.38050 0.49580 0.14700 -0.02500
H 	H 	0.39930 0.47690 0.12500 0.05100
C 	C 	0.34730 0.56020 0.14560 -0.00700
H 	H 	0.34500 0.58510 0.12270 0.04600
C 	C 	0.42780 0.39130 0.18300 0.37100
C 	C 	0.26460 0.89100 0.16670 0.36200
C 	C 	0.30120 0.96260 0.17030 -0.07200
C 	C 	0.30850 0.00880 0.13950 -0.01400
H 	H 	0.28880 0.99760 0.11630 0.05000
C 	C 	0.34470 0.07100 0.14350 -0.02200
H 	H 	0.35140 0.10080 0.12260 0.05100
C 	C 	0.37140 0.08960 0.17870 -0.06500
C 	C 	0.36450 0.04460 0.20970 -0.01700
H 	H 	0.38360 0.05660 0.23300 0.06100
C 	C 	0.32930 0.98250 0.20570 -0.02200
H 	H 	0.32370 0.95250 0.22660 0.06000
C 	C 	0.40920 0.15960 0.18280 0.34700
C 	C 	0.16660 0.85980 0.02710 0.39400
C 	C 	0.13350 0.93330 0.03000 -0.15200
C 	C 	0.11180 0.96700 0.99700 0.10500
H 	H 	0.12050 0.94710 0.97330 0.02000
C 	C 	0.07640 0.03150 0.00020 -0.14000
H 	H 	0.05880 0.05300 0.97850 0.11300
C 	C 	0.06770 0.06330 0.03490 -0.01100
C 	C 	0.09130 0.03320 0.06600 -0.07700
H 	H 	0.08670 0.05630 0.08940 0.06400
C 	C 	0.12420 0.96480 0.06410 0.04600
H 	H 	0.13900 0.94240 0.08620 0.01900
C 	C 	0.03060 0.13330 0.03880 0.34700
C 	C 	0.31470 0.74380 0.93640 0.27700
C 	C 	0.34630 0.74300 0.89660 -0.02300
C 	C 	0.40350 0.78100 0.89170 -0.03700
H 	H 	0.42320 0.80560 0.91190 0.06900
C 	C 	0.43230 0.78210 0.85480 -0.01800
H 	H 	0.46760 0.81280 0.84920 0.06200
C 	C 	0.40640 0.73550 0.82630 -0.05000
C 	C 	0.35400 0.69460 0.83450 -0.00900
H 	H 	0.33860 0.66190 0.81650 0.05600
C 	C 	0.32190 0.69980 0.86910 -0.04100
H 	H 	0.28330 0.67330 0.87350 0.06900
C 	C 	0.44330 0.73470 0.78840 0.30000
C 	C 	0.17420 0.63150 0.04870 0.38000
C 	C 	0.14000 0.56060 0.05230 -0.05300
C 	C 	0.12600 0.52790 0.08910 -0.04200
H 	H 	0.13970 0.55070 0.11140 0.06000
C 	C 	0.09220 0.46270 0.09110 0.01900
H 	H 	0.08230 0.44220 0.11460 0.04100
C 	C 	0.07450 0.43050 0.05940 -0.11100
C 	C 	0.08740 0.45830 0.02340 0.02900
H 	H 	0.07470 0.43230 0.00190 0.03900
C 	C 	0.11860 0.52330 0.01900 -0.07700
H 	H 	0.12570 0.54260 0.99490 0.09400
C 	C 	0.03660 0.35810 0.06170 0.43700
C 	C 	0.08230 0.72690 0.15710 0.37700
C 	C 	0.96950 0.68750 0.13170 -0.00600
H 	H 	0.96810 0.65180 0.15020 0.05300
C 	C 	0.91660 0.69610 0.10790 -0.02200
H 	H 	0.88070 0.66440 0.10930 0.04100
C 	C 	0.97350 0.79990 0.07710 -0.01800
H 	H 	0.97400 0.83590 0.05880 0.05500
C 	C 	0.02820 0.79030 0.10110 -0.01800
H 	H 	0.06500 0.82060 0.09950 0.03500
C 	C 	0.91550 0.75330 0.08090 -0.08500
C 	C 	0.85690 0.76430 0.05530 0.36200
C 	C 	0.83930 0.26430 0.07150 0.28400
C 	C 	0.78110 0.25070 0.09730 -0.05200
C 	C 	0.77940 0.20070 0.12240 -0.02600
H 	H 	0.81650 0.17120 0.12550 0.04600
C 	C 	0.72170 0.18930 0.14570 -0.00600
H 	H 	0.71950 0.14950 0.16160 0.05200
C 	C 	0.67140 0.23560 0.14460 -0.08100
C 	C 	0.67120 0.29320 0.11820 -0.00900
H 	H 	0.63460 0.32380 0.11660 0.03000
C 	C 	0.72580 0.30320 0.09520 -0.03800
H 	H 	0.72790 0.34200 0.07860 0.06100
C 	C 	0.61220 0.22930 0.17120 0.33300
C 	C 	0.88790 0.26130 0.94890 0.28600
C 	C 	0.86410 0.25880 0.90710 -0.02900
C 	C 	0.81540 0.21540 0.89550 -0.03000
H 	H 	0.79220 0.18840 0.91340 0.06600
C 	C 	0.79810 0.20930 0.85650 -0.02500
H 	H 	0.76460 0.17830 0.84850 0.06100
C 	C 	0.83250 0.25070 0.83140 -0.04300
C 	C 	0.88270 0.30080 0.84460 -0.02100
H 	H 	0.90460 0.33120 0.82770 0.06200
C 	C 	0.89660 0.30220 0.88160 -0.03300
H 	H 	0.92920 0.33360 0.89050 0.06800
C 	C 	0.81930 0.24170 0.78940 0.28200
Ca	Ca	0.22226 0.76604 0.10644 1.52100
Cd	Cd	0.18114 0.77027 0.21112 1.22900
O 	O 	0.24800 0.67610 0.20580 -0.42900
Ca	Ca	0.98046 0.22882 0.11684 1.51800
Cd	Cd	0.25265 0.74205 0.00412 1.23500
O 	O 	0.28370 0.69590 0.14730 -0.47300
Cd	Cd	0.93956 0.25470 0.01810 1.23300
O 	O 	0.43560 0.36150 0.21540 -0.42500
Cd	Cd	0.50059 0.26570 0.21908 1.23500
O 	O 	0.44910 0.36730 0.15220 -0.48300
O 	O 	0.25380 0.85650 0.19740 -0.43300
O 	O 	0.24870 0.87380 0.13360 -0.46300
O 	O 	0.43500 0.17200 0.21510 -0.40900
O 	O 	0.41630 0.20160 0.15380 -0.48000
O 	O 	0.17050 0.82350 0.05710 -0.49700
O 	O 	0.18940 0.84170 0.99630 -0.40100
O 	O 	0.02910 0.16270 0.07010 -0.49100
O 	O 	0.99920 0.15610 0.00860 -0.41100
O 	O 	0.26760 0.69980 0.94280 -0.34400
O 	O 	0.33050 0.79180 0.95960 -0.32900
O 	O 	0.42390 0.68760 0.76490 -0.35300
O 	O 	0.48840 0.77740 0.78070 -0.35700
O 	O 	0.18620 0.65320 0.01550 -0.44100
O 	O 	0.19220 0.66210 0.07880 -0.48000
O 	O 	0.02610 0.33150 0.09190 -0.50700
O 	O 	0.01400 0.33600 0.03020 -0.46100
O 	O 	0.13580 0.76090 0.15010 -0.56900
O 	O 	0.07380 0.69220 0.18520 -0.34600
O 	O 	0.85920 0.81090 0.03100 -0.36600
O 	O 	0.80700 0.72470 0.05930 -0.54100
O 	O 	0.84030 0.31350 0.04720 -0.34700
O 	O 	0.88840 0.21760 0.07430 -0.50900
O 	O 	0.56340 0.27170 0.16520 -0.54300
O 	O 	0.61570 0.18840 0.19920 -0.31200
O 	O 	0.92870 0.30860 0.95850 -0.34400
O 	O 	0.86300 0.21660 0.97110 -0.34000
O 	O 	0.85660 0.27600 0.76640 -0.36600
O 	O 	0.77340 0.20160 0.77760 -0.31900
C 	C 	0.22090 0.15890 0.67700 0.40400
C 	C 	0.18300 0.08880 0.67800 -0.09200
C 	C 	0.47330 0.23150 0.62890 -0.09700
C 	C 	0.17900 0.05080 0.71160 -0.00100
H 	H 	0.19980 0.06900 0.73320 0.05500
C 	C 	0.14480 0.98600 0.71420 -0.03100
H 	H 	0.14230 0.96110 0.73710 0.06100
C 	C 	0.11370 0.95900 0.68080 -0.07000
C 	C 	0.11950 0.99580 0.64700 -0.03000
H 	H 	0.10070 0.97690 0.62500 0.05300
C 	C 	0.15270 0.06020 0.64560 -0.00200
H 	H 	0.15500 0.08510 0.62270 0.04500
C 	C 	0.07220 0.89130 0.68300 0.37000
C 	C 	0.23540 0.39100 0.66670 0.36100
C 	C 	0.19880 0.46260 0.67030 -0.06900
C 	C 	0.19150 0.50880 0.63950 -0.01900
H 	H 	0.21120 0.49760 0.61630 0.05300
C 	C 	0.15530 0.57100 0.64350 -0.01900
H 	H 	0.14860 0.60080 0.62260 0.05000
C 	C 	0.12860 0.58960 0.67870 -0.06600
C 	C 	0.13550 0.54460 0.70970 -0.01700
H 	H 	0.11640 0.55660 0.73300 0.06200
C 	C 	0.17070 0.48250 0.70570 -0.02100
H 	H 	0.17630 0.45250 0.72660 0.06000
C 	C 	0.09080 0.65960 0.68280 0.34800
C 	C 	0.33340 0.35980 0.52710 0.39300
C 	C 	0.36650 0.43330 0.53000 -0.08100
C 	C 	0.38820 0.46700 0.49700 -0.01500
H 	H 	0.37950 0.44710 0.47330 0.05800
C 	C 	0.42360 0.53150 0.50020 -0.01200
H 	H 	0.44120 0.55300 0.47850 0.05600
C 	C 	0.43230 0.56330 0.53490 -0.08000
C 	C 	0.40870 0.53320 0.56600 -0.01400
H 	H 	0.41330 0.55630 0.58940 0.04300
C 	C 	0.37580 0.46480 0.56410 -0.01400
H 	H 	0.36100 0.44240 0.58620 0.03900
C 	C 	0.46940 0.63330 0.53880 0.37200
C 	C 	0.18530 0.24380 0.43640 0.27900
C 	C 	0.15370 0.24300 0.39660 -0.02600
C 	C 	0.09650 0.28100 0.39170 -0.03500
H 	H 	0.07680 0.30560 0.41190 0.06600
C 	C 	0.06770 0.28210 0.35480 -0.02000
H 	H 	0.03240 0.31280 0.34920 0.06200
C 	C 	0.09360 0.23550 0.32630 -0.04800
C 	C 	0.14600 0.19460 0.33450 -0.01200
H 	H 	0.16140 0.16190 0.31650 0.05700
C 	C 	0.17810 0.19980 0.36910 -0.03900
H 	H 	0.21670 0.17330 0.37350 0.06700
C 	C 	0.05670 0.23470 0.28840 0.30000
C 	C 	0.32580 0.13150 0.54870 0.38900
C 	C 	0.36000 0.06060 0.55230 -0.07700
C 	C 	0.37400 0.02790 0.58910 -0.01900
H 	H 	0.36030 0.05070 0.61140 0.05300
C 	C 	0.40780 0.96270 0.59110 -0.00600
H 	H 	0.41770 0.94220 0.61460 0.04900
C 	C 	0.42550 0.93050 0.55940 -0.08700
C 	C 	0.41260 0.95830 0.52340 -0.01000
H 	H 	0.42530 0.93230 0.50190 0.05800
C 	C 	0.38140 0.02330 0.51900 -0.01600
H 	H 	0.37430 0.04260 0.49490 0.05900
C 	C 	0.46340 0.85810 0.56170 0.42900
C 	C 	0.41770 0.22690 0.65710 0.37800
C 	C 	0.53050 0.18750 0.63170 -0.00400
H 	H 	0.53190 0.15180 0.65020 0.05200
C 	C 	0.58340 0.19610 0.60790 -0.02300
H 	H 	0.61930 0.16440 0.60930 0.04100
C 	C 	0.52650 0.29990 0.57710 -0.01800
H 	H 	0.52600 0.33590 0.55880 0.05700
C 	C 	0.47180 0.29030 0.60110 -0.01700
H 	H 	0.43500 0.32060 0.59950 0.03400
C 	C 	0.58450 0.25330 0.58090 -0.08200
C 	C 	0.64310 0.26430 0.55530 0.36100
C 	C 	0.66070 0.76430 0.57150 0.28400
C 	C 	0.71890 0.75070 0.59730 -0.05100
C 	C 	0.72060 0.70070 0.62240 -0.02700
H 	H 	0.68350 0.67120 0.62550 0.04600
C 	C 	0.77830 0.68930 0.64570 -0.00600
H 	H 	0.78050 0.64950 0.66160 0.05200
C 	C 	0.82860 0.73560 0.64460 -0.08100
C 	C 	0.82880 0.79320 0.61820 -0.00800
H 	H 	0.86540 0.82380 0.61660 0.03100
C 	C 	0.77420 0.80320 0.59520 -0.03800
H 	H 	0.77210 0.84200 0.57860 0.06200
C 	C 	0.88780 0.72930 0.67120 0.33300
C 	C 	0.61210 0.76130 0.44890 0.28800
C 	C 	0.63590 0.75880 0.40710 -0.03400
C 	C 	0.68460 0.71540 0.39550 -0.02700
H 	H 	0.70780 0.68840 0.41340 0.06300
C 	C 	0.70190 0.70930 0.35650 -0.02800
H 	H 	0.73540 0.67830 0.34850 0.06100
C 	C 	0.66750 0.75070 0.33140 -0.04200
C 	C 	0.61730 0.80080 0.34460 -0.02400
H 	H 	0.59540 0.83120 0.32770 0.06300
C 	C 	0.60340 0.80220 0.38160 -0.03000
H 	H 	0.57080 0.83360 0.39050 0.06500
C 	C 	0.68070 0.74170 0.28940 0.28100
Ca	Ca	0.27774 0.26604 0.60644 1.52100
Cd	Cd	0.31886 0.27027 0.71112 1.22900
O 	O 	0.25200 0.17610 0.70580 -0.42900
Ca	Ca	0.51954 0.72882 0.61684 1.51800
Cd	Cd	0.24735 0.24205 0.50412 1.24100
O 	O 	0.21630 0.19590 0.64730 -0.47300
Cd	Cd	0.56044 0.75470 0.51810 1.23700
O 	O 	0.06440 0.86150 0.71540 -0.42400
Cd	Cd	0.99941 0.76570 0.71908 1.23500
O 	O 	0.05090 0.86730 0.65220 -0.48200
O 	O 	0.24620 0.35650 0.69740 -0.43300
O 	O 	0.25130 0.37380 0.63360 -0.46300
O 	O 	0.06500 0.67200 0.71510 -0.40900
O 	O 	0.08370 0.70160 0.65380 -0.48100
O 	O 	0.32950 0.32350 0.55710 -0.49600
O 	O 	0.31060 0.34170 0.49630 -0.41600
O 	O 	0.47090 0.66270 0.57010 -0.49700
O 	O 	0.50080 0.65610 0.50860 -0.40800
O 	O 	0.23240 0.19980 0.44280 -0.35000
O 	O 	0.16950 0.29180 0.45960 -0.33700
O 	O 	0.07610 0.18760 0.26490 -0.35300
O 	O 	0.01160 0.27740 0.28070 -0.35700
O 	O 	0.31380 0.15320 0.51550 -0.43700
O 	O 	0.30780 0.16210 0.57880 -0.48200
O 	O 	0.47390 0.83150 0.59190 -0.50400
O 	O 	0.48600 0.83600 0.53020 -0.45600
O 	O 	0.36420 0.26090 0.65010 -0.56900
O 	O 	0.42620 0.19220 0.68520 -0.34600
O 	O 	0.64080 0.31090 0.53100 -0.36000
O 	O 	0.69300 0.22470 0.55930 -0.53800
O 	O 	0.65970 0.81350 0.54720 -0.34300
O 	O 	0.61160 0.71760 0.57430 -0.50700
O 	O 	0.93660 0.77170 0.66520 -0.54300
O 	O 	0.88430 0.68840 0.69920 -0.31200
O 	O 	0.57130 0.80860 0.45850 -0.35300
O 	O 	0.63700 0.71660 0.47110 -0.34900
O 	O 	0.64340 0.77600 0.26640 -0.36600
O 	O 	0.72660 0.70160 0.27760 -0.31900
C 	C 	0.77910 0.84110 0.17700 0.40200
C 	C 	0.81700 0.91120 0.17800 -0.08700
C 	C 	0.52670 0.76850 0.12890 -0.09700
C 	C 	0.82100 0.94920 0.21160 -0.00700
H 	H 	0.80020 0.93100 0.23320 0.05600
C 	C 	0.85520 0.01400 0.21420 -0.02400
H 	H 	0.85770 0.03890 0.23710 0.05900
C 	C 	0.88630 0.04100 0.18080 -0.07400
C 	C 	0.88050 0.00420 0.14700 -0.02200
H 	H 	0.89930 0.02310 0.12500 0.05000
C 	C 	0.84730 0.93980 0.14560 -0.00900
H 	H 	0.84500 0.91490 0.12270 0.04700
C 	C 	0.92780 0.10870 0.18300 0.37100
C 	C 	0.76460 0.60900 0.16670 0.36100
C 	C 	0.80120 0.53740 0.17030 -0.06900
C 	C 	0.80850 0.49120 0.13950 -0.01900
H 	H 	0.78880 0.50240 0.11630 0.05200
C 	C 	0.84470 0.42900 0.14350 -0.02000
H 	H 	0.85140 0.39920 0.12260 0.05000
C 	C 	0.87140 0.41040 0.17870 -0.06600
C 	C 	0.86450 0.45540 0.20970 -0.01700
H 	H 	0.88360 0.44340 0.23300 0.06100
C 	C 	0.82930 0.51750 0.20570 -0.02100
H 	H 	0.82370 0.54750 0.22660 0.06000
C 	C 	0.90920 0.34040 0.18280 0.34800
C 	C 	0.66660 0.64020 0.02710 0.39600
C 	C 	0.63350 0.56670 0.03000 -0.15900
C 	C 	0.61180 0.53300 0.99700 0.11700
H 	H 	0.62050 0.55290 0.97330 0.01700
C 	C 	0.57640 0.46850 0.00020 -0.15200
H 	H 	0.55880 0.44700 0.97850 0.11700
C 	C 	0.56770 0.43670 0.03490 -0.00400
C 	C 	0.59130 0.46680 0.06600 -0.08700
H 	H 	0.58670 0.44370 0.08940 0.06700
C 	C 	0.62420 0.53520 0.06410 0.05400
H 	H 	0.63900 0.55760 0.08620 0.01600
C 	C 	0.53060 0.36670 0.03880 0.34300
C 	C 	0.81470 0.75620 0.93640 0.27700
C 	C 	0.84630 0.75700 0.89660 -0.02300
C 	C 	0.90350 0.71900 0.89170 -0.03700
H 	H 	0.92320 0.69440 0.91190 0.06900
C 	C 	0.93230 0.71790 0.85480 -0.01800
H 	H 	0.96760 0.68720 0.84920 0.06200
C 	C 	0.90640 0.76450 0.82630 -0.04900
C 	C 	0.85400 0.80540 0.83450 -0.00900
H 	H 	0.83860 0.83810 0.81650 0.05600
C 	C 	0.82190 0.80020 0.86910 -0.04100
H 	H 	0.78330 0.82670 0.87350 0.06900
C 	C 	0.94330 0.76530 0.78840 0.30000
C 	C 	0.67420 0.86850 0.04870 0.37900
C 	C 	0.64000 0.93940 0.05230 -0.05100
C 	C 	0.62600 0.97210 0.08910 -0.04500
H 	H 	0.63970 0.94930 0.11140 0.06100
C 	C 	0.59220 0.03730 0.09110 0.02300
H 	H 	0.58230 0.05780 0.11460 0.04000
C 	C 	0.57450 0.06950 0.05940 -0.11400
C 	C 	0.58740 0.04170 0.02340 0.03400
H 	H 	0.57470 0.06770 0.00190 0.03800
C 	C 	0.61860 0.97670 0.01900 -0.08200
H 	H 	0.62570 0.95740 0.99490 0.09600
C 	C 	0.53660 0.14190 0.06170 0.43800
C 	C 	0.58230 0.77310 0.15710 0.37800
C 	C 	0.46950 0.81250 0.13170 -0.00500
H 	H 	0.46810 0.84820 0.15020 0.05300
C 	C 	0.41660 0.80390 0.10790 -0.02200
H 	H 	0.38070 0.83560 0.10930 0.04100
C 	C 	0.47350 0.70010 0.07710 -0.01700
H 	H 	0.47400 0.66410 0.05880 0.05500
C 	C 	0.52820 0.70970 0.10110 -0.01900
H 	H 	0.56500 0.67940 0.09950 0.03500
C 	C 	0.41550 0.74670 0.08090 -0.08500
C 	C 	0.35690 0.73570 0.05530 0.36200
C 	C 	0.33930 0.23570 0.07150 0.28400
C 	C 	0.28110 0.24930 0.09730 -0.05200
C 	C 	0.27940 0.29930 0.12240 -0.02600
H 	H 	0.31650 0.32880 0.12550 0.04600
C 	C 	0.22170 0.31070 0.14570 -0.00700
H 	H 	0.21950 0.35050 0.16160 0.05200
C 	C 	0.17140 0.26440 0.14460 -0.08100
C 	C 	0.17120 0.20680 0.11820 -0.00900
H 	H 	0.13460 0.17620 0.11660 0.03000
C 	C 	0.22580 0.19680 0.09520 -0.03800
H 	H 	0.22790 0.15800 0.07860 0.06100
C 	C 	0.11220 0.27070 0.17120 0.33300
C 	C 	0.38790 0.23870 0.94890 0.28600
C 	C 	0.36410 0.24120 0.90710 -0.02900
C 	C 	0.31540 0.28460 0.89550 -0.03000
H 	H 	0.29220 0.31160 0.91340 0.06600
C 	C 	0.29810 0.29070 0.85650 -0.02500
H 	H 	0.26460 0.32170 0.84850 0.06100
C 	C 	0.33250 0.24930 0.83140 -0.04300
C 	C 	0.38270 0.19920 0.84460 -0.02100
H 	H 	0.40460 0.16880 0.82770 0.06200
C 	C 	0.39660 0.19780 0.88160 -0.03300
H 	H 	0.42920 0.16640 0.89050 0.06800
C 	C 	0.31930 0.25830 0.78940 0.28200
Ca	Ca	0.72226 0.73396 0.10644 1.52100
Cd	Cd	0.68114 0.72973 0.21112 1.22900
O 	O 	0.74800 0.82390 0.20580 -0.42900
Ca	Ca	0.48046 0.27118 0.11684 1.51800
Cd	Cd	0.75265 0.75795 0.00412 1.23500
O 	O 	0.78370 0.80410 0.14730 -0.47200
Cd	Cd	0.43956 0.24530 0.01810 1.23300
O 	O 	0.93560 0.13850 0.21540 -0.42500
Cd	Cd	0.00059 0.23430 0.21908 1.23600
O 	O 	0.94910 0.13270 0.15220 -0.48300
O 	O 	0.75380 0.64350 0.19740 -0.43300
O 	O 	0.74870 0.62620 0.13360 -0.46300
O 	O 	0.93500 0.32800 0.21510 -0.40900
O 	O 	0.91630 0.29840 0.15380 -0.48100
O 	O 	0.67050 0.67650 0.05710 -0.49800
O 	O 	0.68940 0.65830 0.99630 -0.40100
O 	O 	0.52910 0.33730 0.07010 -0.49000
O 	O 	0.49920 0.34390 0.00860 -0.41000
O 	O 	0.76760 0.80020 0.94280 -0.34400
O 	O 	0.83050 0.70820 0.95960 -0.32900
O 	O 	0.92390 0.81240 0.76490 -0.35300
O 	O 	0.98840 0.72260 0.78070 -0.35700
O 	O 	0.68620 0.84680 0.01550 -0.44100
O 	O 	0.69220 0.83790 0.07880 -0.48000
O 	O 	0.52610 0.16850 0.09190 -0.50700
O 	O 	0.51400 0.16400 0.03020 -0.46200
O 	O 	0.63580 0.73910 0.15010 -0.56900
O 	O 	0.57380 0.80780 0.18520 -0.34600
O 	O 	0.35920 0.68910 0.03100 -0.36600
O 	O 	0.30700 0.77530 0.05930 -0.54100
O 	O 	0.34030 0.18650 0.04720 -0.34700
O 	O 	0.38840 0.28240 0.07430 -0.50800
O 	O 	0.06340 0.22830 0.16520 -0.54300
O 	O 	0.11570 0.31160 0.19920 -0.31200
O 	O 	0.42870 0.19140 0.95850 -0.34400
O 	O 	0.36300 0.28340 0.97110 -0.34000
O 	O 	0.35660 0.22400 0.76640 -0.36600
O 	O 	0.27340 0.29840 0.77760 -0.31900
