data_crystal

_cell_length_a 18.51660
_cell_length_b 29.46520
_cell_length_c 16.38500
_cell_angle_alpha 90.00000
_cell_angle_beta  119.38800
_cell_angle_gamma 90.00000

_symmetry_space_group_name_	'P 1'
_symmetry_space_group_name_H-M	'P 1'

loop_
_symmetry_equiv_pos_as_xyz
  x,y,z

loop_
_atom_site_label
_atom_site_type_symbol
_atom_site_fract_x
_atom_site_fract_y
_atom_site_fract_z
_atom_site_charge
Mg	Mg	0.79591 0.61451 0.72677 1.44900
O 	O 	0.94460 0.57770 0.63470 -0.39400
O 	O 	0.95090 0.69450 0.63470 -0.35800
O 	O 	0.86650 0.66396 0.67770 -0.54800
O 	O 	0.07340 0.59152 0.67470 -0.57500
C 	C 	0.00450 0.53360 0.56260 -0.20300
C 	C 	0.06850 0.52760 0.54260 0.07000
H 	H 	0.11590 0.54670 0.57130 -0.00600
C 	C 	0.83020 0.75670 0.51670 -0.02500
H 	H 	0.88510 0.76150 0.52810 0.07100
C 	C 	0.93630 0.50560 0.51820 0.10500
H 	H 	0.89140 0.50950 0.53010 0.00800
C 	C 	0.73370 0.71580 0.54650 0.00900
H 	H 	0.72210 0.69230 0.57820 0.00800
C 	C 	0.81400 0.72200 0.56380 -0.08900
C 	C 	0.00800 0.56990 0.62650 0.38200
C 	C 	0.88220 0.69210 0.63010 0.37300
Mg	Mg	0.29591 0.11451 0.72677 1.44800
O 	O 	0.44460 0.07770 0.63470 -0.42400
O 	O 	0.45090 0.19450 0.63470 -0.37800
O 	O 	0.36650 0.16396 0.67770 -0.55600
O 	O 	0.57340 0.09152 0.67470 -0.57100
C 	C 	0.50450 0.03360 0.56260 -0.11400
C 	C 	0.56850 0.02760 0.54260 -0.00700
H 	H 	0.61590 0.04670 0.57130 0.02200
C 	C 	0.33020 0.25670 0.51670 -0.02500
H 	H 	0.38510 0.26150 0.52810 0.06500
C 	C 	0.43630 0.00560 0.51820 -0.00600
H 	H 	0.39140 0.00950 0.53010 0.03900
C 	C 	0.23370 0.21580 0.54650 0.00800
H 	H 	0.22210 0.19230 0.57820 0.00700
C 	C 	0.31400 0.22200 0.56380 -0.09400
C 	C 	0.50800 0.06990 0.62650 0.39500
C 	C 	0.38220 0.19210 0.63010 0.37500
Mg	Mg	0.20409 0.61451 0.77323 1.44800
O 	O 	0.05540 0.57770 0.86530 -0.45000
O 	O 	0.04910 0.69450 0.86530 -0.39400
O 	O 	0.13350 0.66396 0.82230 -0.56100
O 	O 	0.92660 0.59152 0.82530 -0.56600
C 	C 	0.99550 0.53360 0.93740 -0.02500
C 	C 	0.93150 0.52760 0.95740 -0.08700
H 	H 	0.88410 0.54670 0.92870 0.05000
C 	C 	0.16980 0.75670 0.98330 -0.02200
H 	H 	0.11490 0.76150 0.97190 0.05900
C 	C 	0.06370 0.50560 0.98180 -0.11800
H 	H 	0.10860 0.50950 0.96990 0.07100
C 	C 	0.26630 0.71580 0.95350 0.01300
H 	H 	0.27790 0.69230 0.92180 0.00600
C 	C 	0.18600 0.72200 0.93620 -0.10000
C 	C 	0.99200 0.56990 0.87350 0.40800
C 	C 	0.11780 0.69210 0.86990 0.37800
Mg	Mg	0.70409 0.11451 0.77323 1.44800
O 	O 	0.55540 0.07770 0.86530 -0.42300
O 	O 	0.54910 0.19450 0.86530 -0.37800
O 	O 	0.63350 0.16396 0.82230 -0.55600
O 	O 	0.42660 0.09152 0.82530 -0.57100
C 	C 	0.49550 0.03360 0.93740 -0.11200
C 	C 	0.43150 0.02760 0.95740 -0.01100
H 	H 	0.38410 0.04670 0.92870 0.02300
C 	C 	0.66980 0.25670 0.98330 -0.02200
H 	H 	0.61490 0.26150 0.97190 0.06400
C 	C 	0.56370 0.00560 0.98180 -0.00900
H 	H 	0.60860 0.00950 0.96990 0.04000
C 	C 	0.76630 0.21580 0.95350 0.01400
H 	H 	0.77790 0.19230 0.92180 0.00700
C 	C 	0.68600 0.22200 0.93620 -0.09500
C 	C 	0.49200 0.06990 0.87350 0.39500
C 	C 	0.61780 0.19210 0.86990 0.37600
Mg	Mg	0.20409 0.38549 0.27323 1.44800
O 	O 	0.05540 0.42230 0.36530 -0.45000
O 	O 	0.04910 0.30550 0.36530 -0.39400
O 	O 	0.13350 0.33604 0.32230 -0.56100
O 	O 	0.92660 0.40848 0.32530 -0.56600
C 	C 	0.99550 0.46640 0.43740 -0.02500
C 	C 	0.93150 0.47240 0.45740 -0.08500
H 	H 	0.88410 0.45330 0.42870 0.05000
C 	C 	0.16980 0.24330 0.48330 -0.02000
H 	H 	0.11490 0.23850 0.47190 0.05800
C 	C 	0.06370 0.49440 0.48180 -0.11700
H 	H 	0.10860 0.49050 0.46990 0.07100
C 	C 	0.26630 0.28420 0.45350 0.01500
H 	H 	0.27790 0.30770 0.42180 0.00500
C 	C 	0.18600 0.27800 0.43620 -0.10100
C 	C 	0.99200 0.43010 0.37350 0.40900
C 	C 	0.11780 0.30790 0.36990 0.37900
Mg	Mg	0.70409 0.88549 0.27323 1.44800
O 	O 	0.55540 0.92230 0.36530 -0.42300
O 	O 	0.54910 0.80550 0.36530 -0.37800
O 	O 	0.63350 0.83604 0.32230 -0.55600
O 	O 	0.42660 0.90848 0.32530 -0.57100
C 	C 	0.49550 0.96640 0.43740 -0.11400
C 	C 	0.43150 0.97240 0.45740 -0.00800
H 	H 	0.38410 0.95330 0.42870 0.02200
C 	C 	0.66980 0.74330 0.48330 -0.01900
H 	H 	0.61490 0.73850 0.47190 0.06400
C 	C 	0.56370 0.99440 0.48180 -0.00600
H 	H 	0.60860 0.99050 0.46990 0.04000
C 	C 	0.76630 0.78420 0.45350 0.01600
H 	H 	0.77790 0.80770 0.42180 0.00600
C 	C 	0.68600 0.77800 0.43620 -0.09700
C 	C 	0.49200 0.93010 0.37350 0.39500
C 	C 	0.61780 0.80790 0.36990 0.37700
Mg	Mg	0.79591 0.38549 0.22677 1.44800
O 	O 	0.94460 0.42230 0.13470 -0.39400
O 	O 	0.95090 0.30550 0.13470 -0.35800
O 	O 	0.86650 0.33604 0.17770 -0.54800
O 	O 	0.07340 0.40848 0.17470 -0.57500
C 	C 	0.00450 0.46640 0.06260 -0.20300
C 	C 	0.06850 0.47240 0.04260 0.07100
H 	H 	0.11590 0.45330 0.07130 -0.00600
C 	C 	0.83020 0.24330 0.01670 -0.02300
H 	H 	0.88510 0.23850 0.02810 0.07000
C 	C 	0.93630 0.49440 0.01820 0.10600
H 	H 	0.89140 0.49050 0.03010 0.00800
C 	C 	0.73370 0.28420 0.04650 0.01200
H 	H 	0.72210 0.30770 0.07820 0.00700
C 	C 	0.81400 0.27800 0.06380 -0.09100
C 	C 	0.00800 0.43010 0.12650 0.38200
C 	C 	0.88220 0.30790 0.13010 0.37300
Mg	Mg	0.29591 0.88549 0.22677 1.44800
O 	O 	0.44460 0.92230 0.13470 -0.42400
O 	O 	0.45090 0.80550 0.13470 -0.37800
O 	O 	0.36650 0.83604 0.17770 -0.55600
O 	O 	0.57340 0.90848 0.17470 -0.57100
C 	C 	0.50450 0.96640 0.06260 -0.11600
C 	C 	0.56850 0.97240 0.04260 -0.00500
H 	H 	0.61590 0.95330 0.07130 0.02100
C 	C 	0.33020 0.74330 0.01670 -0.02300
H 	H 	0.38510 0.73850 0.02810 0.06500
C 	C 	0.43630 0.99440 0.01820 -0.00400
H 	H 	0.39140 0.99050 0.03010 0.03900
C 	C 	0.23370 0.78420 0.04650 0.01100
H 	H 	0.22210 0.80770 0.07820 0.00600
C 	C 	0.31400 0.77800 0.06380 -0.09500
C 	C 	0.50800 0.93010 0.12650 0.39600
C 	C 	0.38220 0.80790 0.13010 0.37500
Cd	Cd	0.00000 0.63279 0.75000 1.21900
Cd	Cd	0.50000 0.13279 0.75000 1.23100
Cd	Cd	0.00000 0.36721 0.25000 1.21900
Cd	Cd	0.50000 0.86721 0.25000 1.23100
Cd	Cd	0.59588 0.63076 0.63170 1.22900
O 	O 	0.56210 0.56930 0.53500 -0.40100
O 	O 	0.46050 0.66207 0.58550 -0.32600
O 	O 	0.20550 0.82658 0.22210 -0.57900
O 	O 	0.71440 0.42840 0.28240 -0.48300
O 	O 	0.12090 0.79479 0.26550 -0.29600
O 	O 	0.59040 0.40338 0.25000 -0.39700
O 	O 	0.68730 0.59418 0.57590 -0.52700
O 	O 	0.52610 0.68191 0.51060 -0.36600
C 	C 	0.31850 0.71220 0.45780 -0.05500
H 	H 	0.31260 0.69310 0.50090 0.06900
C 	C 	0.25210 0.73950 0.39570 0.01500
H 	H 	0.20110 0.73840 0.39630 0.04100
C 	C 	0.39270 0.71310 0.45640 -0.02200
C 	C 	0.39850 0.74060 0.39280 -0.06300
H 	H 	0.44860 0.74080 0.39030 0.07800
C 	C 	0.18930 0.79870 0.26840 0.37100
C 	C 	0.70560 0.52760 0.46150 -0.01800
H 	H 	0.74930 0.54880 0.49290 0.04200
C 	C 	0.63680 0.52950 0.47380 -0.07900
C 	C 	0.65280 0.42920 0.29250 0.36300
C 	C 	0.26040 0.76780 0.33380 -0.11500
C 	C 	0.57440 0.49900 0.42750 -0.01300
H 	H 	0.52650 0.50040 0.43440 0.05800
C 	C 	0.62860 0.56660 0.53240 0.34800
C 	C 	0.46350 0.68350 0.52210 0.28900
C 	C 	0.58000 0.46640 0.37100 -0.01700
H 	H 	0.53620 0.44510 0.34040 0.06100
C 	C 	0.33400 0.76820 0.33220 0.02300
H 	H 	0.34040 0.78740 0.28950 0.00200
C 	C 	0.71110 0.49530 0.40410 -0.01500
H 	H 	0.75860 0.49450 0.39620 0.04200
C 	C 	0.64820 0.46400 0.35780 -0.07400
Cd	Cd	0.09588 0.13076 0.63170 1.22500
O 	O 	0.06210 0.06930 0.53500 -0.41400
O 	O 	0.96050 0.16207 0.58550 -0.32300
O 	O 	0.70550 0.32658 0.22210 -0.57600
O 	O 	0.21440 0.92840 0.28240 -0.48500
O 	O 	0.62090 0.29479 0.26550 -0.28600
O 	O 	0.09040 0.90338 0.25000 -0.40900
O 	O 	0.18730 0.09418 0.57590 -0.53000
O 	O 	0.02610 0.18191 0.51060 -0.40400
C 	C 	0.81850 0.21220 0.45780 -0.04400
H 	H 	0.81260 0.19310 0.50090 0.06700
C 	C 	0.75210 0.23950 0.39570 0.01000
H 	H 	0.70110 0.23840 0.39630 0.04600
C 	C 	0.89270 0.21310 0.45640 -0.03200
C 	C 	0.89850 0.24060 0.39280 -0.05100
H 	H 	0.94860 0.24080 0.39030 0.08700
C 	C 	0.68930 0.29870 0.26840 0.36900
C 	C 	0.20560 0.02760 0.46150 -0.01900
H 	H 	0.24930 0.04880 0.49290 0.03900
C 	C 	0.13680 0.02950 0.47380 -0.08500
C 	C 	0.15280 0.92920 0.29250 0.36300
C 	C 	0.76040 0.26780 0.33380 -0.10800
C 	C 	0.07440 0.99900 0.42750 -0.01500
H 	H 	0.02650 0.00040 0.43440 0.04700
C 	C 	0.12860 0.06660 0.53240 0.34900
C 	C 	0.96350 0.18350 0.52210 0.33500
C 	C 	0.08000 0.96640 0.37100 -0.02000
H 	H 	0.03620 0.94510 0.34040 0.05000
C 	C 	0.83400 0.26820 0.33220 0.01900
H 	H 	0.84040 0.28740 0.28950 0.00700
C 	C 	0.21110 0.99530 0.40410 -0.01700
H 	H 	0.25860 0.99450 0.39620 0.04100
C 	C 	0.14820 0.96400 0.35780 -0.07800
Cd	Cd	0.59588 0.36924 0.13170 1.22900
O 	O 	0.56210 0.43070 0.03500 -0.40100
O 	O 	0.46050 0.33793 0.08550 -0.32600
O 	O 	0.20550 0.17342 0.72210 -0.57900
O 	O 	0.71440 0.57160 0.78240 -0.48300
O 	O 	0.12090 0.20521 0.76550 -0.29700
O 	O 	0.59040 0.59662 0.75000 -0.39700
O 	O 	0.68730 0.40582 0.07590 -0.52700
O 	O 	0.52610 0.31809 0.01060 -0.36600
C 	C 	0.31850 0.28780 0.95780 -0.05700
H 	H 	0.31260 0.30690 0.00090 0.07000
C 	C 	0.25210 0.26050 0.89570 0.01600
H 	H 	0.20110 0.26160 0.89630 0.04000
C 	C 	0.39270 0.28690 0.95640 -0.02200
C 	C 	0.39850 0.25940 0.89280 -0.06300
H 	H 	0.44860 0.25920 0.89030 0.07800
C 	C 	0.18930 0.20130 0.76840 0.37200
C 	C 	0.70560 0.47240 0.96150 -0.01700
H 	H 	0.74930 0.45120 0.99290 0.04100
C 	C 	0.63680 0.47050 0.97380 -0.08100
C 	C 	0.65280 0.57080 0.79250 0.36200
C 	C 	0.26040 0.23220 0.83380 -0.11600
C 	C 	0.57440 0.50100 0.92750 -0.01200
H 	H 	0.52650 0.49960 0.93440 0.05800
C 	C 	0.62860 0.43340 0.03240 0.34900
C 	C 	0.46350 0.31650 0.02210 0.28900
C 	C 	0.58000 0.53360 0.87100 -0.01800
H 	H 	0.53620 0.55490 0.84040 0.06100
C 	C 	0.33400 0.23180 0.83220 0.02300
H 	H 	0.34040 0.21260 0.78950 0.00200
C 	C 	0.71110 0.50470 0.90410 -0.01500
H 	H 	0.75860 0.50550 0.89620 0.04200
C 	C 	0.64820 0.53600 0.85780 -0.07300
Cd	Cd	0.09588 0.86924 0.13170 1.22500
O 	O 	0.06210 0.93070 0.03500 -0.41400
O 	O 	0.96050 0.83793 0.08550 -0.32300
O 	O 	0.70550 0.67342 0.72210 -0.57700
O 	O 	0.21440 0.07160 0.78240 -0.48500
O 	O 	0.62090 0.70521 0.76550 -0.28600
O 	O 	0.09040 0.09662 0.75000 -0.40900
O 	O 	0.18730 0.90582 0.07590 -0.53000
O 	O 	0.02610 0.81809 0.01060 -0.40300
C 	C 	0.81850 0.78780 0.95780 -0.04600
H 	H 	0.81260 0.80690 0.00090 0.06800
C 	C 	0.75210 0.76050 0.89570 0.01100
H 	H 	0.70110 0.76160 0.89630 0.04500
C 	C 	0.89270 0.78690 0.95640 -0.03200
C 	C 	0.89850 0.75940 0.89280 -0.05100
H 	H 	0.94860 0.75920 0.89030 0.08700
C 	C 	0.68930 0.70130 0.76840 0.36900
C 	C 	0.20560 0.97240 0.96150 -0.01800
H 	H 	0.24930 0.95120 0.99290 0.03900
C 	C 	0.13680 0.97050 0.97380 -0.08600
C 	C 	0.15280 0.07080 0.79250 0.36300
C 	C 	0.76040 0.73220 0.83380 -0.10800
C 	C 	0.07440 0.00100 0.92750 -0.01400
H 	H 	0.02650 0.99960 0.93440 0.04700
C 	C 	0.12860 0.93340 0.03240 0.35000
C 	C 	0.96350 0.81650 0.02210 0.33500
C 	C 	0.08000 0.03360 0.87100 -0.02000
H 	H 	0.03620 0.05490 0.84040 0.05000
C 	C 	0.83400 0.73180 0.83220 0.01900
H 	H 	0.84040 0.71260 0.78950 0.00700
C 	C 	0.21110 0.00470 0.90410 -0.01800
H 	H 	0.25860 0.00550 0.89620 0.04100
C 	C 	0.14820 0.03600 0.85780 -0.07800
Cd	Cd	0.40412 0.63076 0.86830 1.22900
O 	O 	0.43790 0.56930 0.96500 -0.40100
O 	O 	0.53950 0.66207 0.91450 -0.32600
O 	O 	0.79450 0.82658 0.27790 -0.57500
O 	O 	0.28560 0.42840 0.21760 -0.48400
O 	O 	0.87910 0.79479 0.23450 -0.27700
O 	O 	0.40960 0.40338 0.25000 -0.39700
O 	O 	0.31270 0.59418 0.92410 -0.52800
O 	O 	0.47390 0.68191 0.98940 -0.36700
C 	C 	0.68150 0.71220 0.04220 -0.05000
H 	H 	0.68740 0.69310 0.99910 0.06900
C 	C 	0.74790 0.73950 0.10430 0.01200
H 	H 	0.79890 0.73840 0.10370 0.04800
C 	C 	0.60730 0.71310 0.04360 -0.02300
C 	C 	0.60150 0.74060 0.10720 -0.06000
H 	H 	0.55140 0.74080 0.10970 0.07700
C 	C 	0.81070 0.79870 0.23160 0.36800
C 	C 	0.29440 0.52760 0.03850 -0.01900
H 	H 	0.25070 0.54880 0.00710 0.03800
C 	C 	0.36320 0.52950 0.02620 -0.08000
C 	C 	0.34720 0.42920 0.20750 0.36200
C 	C 	0.73960 0.76780 0.16620 -0.10900
C 	C 	0.42560 0.49900 0.07250 -0.01300
H 	H 	0.47350 0.50040 0.06560 0.05900
C 	C 	0.37140 0.56660 0.96760 0.34700
C 	C 	0.53650 0.68350 0.97790 0.28900
C 	C 	0.42000 0.46640 0.12900 -0.01800
H 	H 	0.46380 0.44510 0.15960 0.06100
C 	C 	0.66600 0.76820 0.16780 0.02000
H 	H 	0.65960 0.78740 0.21050 0.00300
C 	C 	0.28890 0.49530 0.09590 -0.01800
H 	H 	0.24140 0.49450 0.10380 0.04100
C 	C 	0.35180 0.46400 0.14220 -0.07400
Cd	Cd	0.90412 0.13076 0.86830 1.23300
O 	O 	0.93790 0.06930 0.96500 -0.38700
O 	O 	0.03950 0.16207 0.91450 -0.33000
O 	O 	0.29450 0.32658 0.27790 -0.57800
O 	O 	0.78560 0.92840 0.21760 -0.48200
O 	O 	0.37910 0.29479 0.23450 -0.28700
O 	O 	0.90960 0.90338 0.25000 -0.38500
O 	O 	0.81270 0.09418 0.92410 -0.52600
O 	O 	0.97390 0.18191 0.98940 -0.32900
C 	C 	0.18150 0.21220 0.04220 -0.06100
H 	H 	0.18740 0.19310 0.99910 0.07000
C 	C 	0.24790 0.23950 0.10430 0.01800
H 	H 	0.29890 0.23840 0.10370 0.04300
C 	C 	0.10730 0.21310 0.04360 -0.01300
C 	C 	0.10150 0.24060 0.10720 -0.07100
H 	H 	0.05140 0.24080 0.10970 0.06900
C 	C 	0.31070 0.29870 0.23160 0.37100
C 	C 	0.79440 0.02760 0.03850 -0.01800
H 	H 	0.75070 0.04880 0.00710 0.04100
C 	C 	0.86320 0.02950 0.02620 -0.07400
C 	C 	0.84720 0.92920 0.20750 0.36100
C 	C 	0.23960 0.26780 0.16620 -0.11600
C 	C 	0.92560 0.99900 0.07250 -0.01200
H 	H 	0.97350 0.00040 0.06560 0.07000
C 	C 	0.87140 0.06660 0.96760 0.34500
C 	C 	0.03650 0.18350 0.97790 0.24400
C 	C 	0.92000 0.96640 0.12900 -0.01500
H 	H 	0.96380 0.94510 0.15960 0.07200
C 	C 	0.16600 0.26820 0.16780 0.02400
H 	H 	0.15960 0.28740 0.21050 -0.00100
C 	C 	0.78890 0.99530 0.09590 -0.01500
H 	H 	0.74140 0.99450 0.10380 0.04200
C 	C 	0.85180 0.96400 0.14220 -0.06900
Cd	Cd	0.40412 0.36924 0.36830 1.22900
O 	O 	0.43790 0.43070 0.46500 -0.40000
O 	O 	0.53950 0.33793 0.41450 -0.32600
O 	O 	0.79450 0.17342 0.77790 -0.57500
O 	O 	0.28560 0.57160 0.71760 -0.48400
O 	O 	0.87910 0.20521 0.73450 -0.27700
O 	O 	0.40960 0.59662 0.75000 -0.39700
O 	O 	0.31270 0.40582 0.42410 -0.52800
O 	O 	0.47390 0.31809 0.48940 -0.36600
C 	C 	0.68150 0.28780 0.54220 -0.05100
H 	H 	0.68740 0.30690 0.49910 0.07000
C 	C 	0.74790 0.26050 0.60430 0.01300
H 	H 	0.79890 0.26160 0.60370 0.04700
C 	C 	0.60730 0.28690 0.54360 -0.02300
C 	C 	0.60150 0.25940 0.60720 -0.06000
H 	H 	0.55140 0.25920 0.60970 0.07700
C 	C 	0.81070 0.20130 0.73160 0.36800
C 	C 	0.29440 0.47240 0.53850 -0.01800
H 	H 	0.25070 0.45120 0.50710 0.03800
C 	C 	0.36320 0.47050 0.52620 -0.08100
C 	C 	0.34720 0.57080 0.70750 0.36200
C 	C 	0.73960 0.23220 0.66620 -0.10900
C 	C 	0.42560 0.50100 0.57250 -0.01300
H 	H 	0.47350 0.49960 0.56560 0.05800
C 	C 	0.37140 0.43340 0.46760 0.34700
C 	C 	0.53650 0.31650 0.47790 0.29000
C 	C 	0.42000 0.53360 0.62900 -0.01800
H 	H 	0.46380 0.55490 0.65960 0.06100
C 	C 	0.66600 0.23180 0.66780 0.02100
H 	H 	0.65960 0.21260 0.71050 0.00300
C 	C 	0.28890 0.50470 0.59590 -0.01800
H 	H 	0.24140 0.50550 0.60380 0.04100
C 	C 	0.35180 0.53600 0.64220 -0.07400
Cd	Cd	0.90412 0.86924 0.36830 1.23300
O 	O 	0.93790 0.93070 0.46500 -0.38700
O 	O 	0.03950 0.83793 0.41450 -0.32900
O 	O 	0.29450 0.67342 0.77790 -0.57800
O 	O 	0.78560 0.07160 0.71760 -0.48200
O 	O 	0.37910 0.70521 0.73450 -0.28700
O 	O 	0.90960 0.09662 0.75000 -0.38600
O 	O 	0.81270 0.90582 0.42410 -0.52600
O 	O 	0.97390 0.81809 0.48940 -0.32800
C 	C 	0.18150 0.78780 0.54220 -0.06300
H 	H 	0.18740 0.80690 0.49910 0.07100
C 	C 	0.24790 0.76050 0.60430 0.01800
H 	H 	0.29890 0.76160 0.60370 0.04200
C 	C 	0.10730 0.78690 0.54360 -0.01300
C 	C 	0.10150 0.75940 0.60720 -0.07200
H 	H 	0.05140 0.75920 0.60970 0.06900
C 	C 	0.31070 0.70130 0.73160 0.37100
C 	C 	0.79440 0.97240 0.53850 -0.01800
H 	H 	0.75070 0.95120 0.50710 0.04100
C 	C 	0.86320 0.97050 0.52620 -0.07500
C 	C 	0.84720 0.07080 0.70750 0.36100
C 	C 	0.23960 0.73220 0.66620 -0.11700
C 	C 	0.92560 0.00100 0.57250 -0.01100
H 	H 	0.97350 0.99960 0.56560 0.06900
C 	C 	0.87140 0.93340 0.46760 0.34600
C 	C 	0.03650 0.81650 0.47790 0.24400
C 	C 	0.92000 0.03360 0.62900 -0.01500
H 	H 	0.96380 0.05490 0.65960 0.07200
C 	C 	0.16600 0.73180 0.66780 0.02500
H 	H 	0.15960 0.71260 0.71050 -0.00100
C 	C 	0.78890 0.00470 0.59590 -0.01600
H 	H 	0.74140 0.00550 0.60380 0.04200
C 	C 	0.85180 0.03600 0.64220 -0.06900
