data_crystal

_cell_length_a 10.49930
_cell_length_b 16.94160
_cell_length_c 12.33460
_cell_angle_alpha 90.00000
_cell_angle_beta  100.51600
_cell_angle_gamma 90.00000

_symmetry_space_group_name_	'P 1'
_symmetry_space_group_name_H-M	'P 1'

loop_
_symmetry_equiv_pos_as_xyz
  x,y,z

loop_
_atom_site_label
_atom_site_type_symbol
_atom_site_fract_x
_atom_site_fract_y
_atom_site_fract_z
_atom_site_charge
Cd	Cd	0.79437 0.10447 0.16037 1.20400
C 	C 	0.21290 0.16190 0.25000 -0.15300
C 	C 	0.22240 0.22560 0.32120 0.07700
H 	H 	0.14930 0.24270 0.34720 0.01200
C 	C 	0.33910 0.26420 0.35430 -0.15400
C 	C 	0.44680 0.23890 0.31290 0.06900
H 	H 	0.52450 0.26630 0.33140 0.02400
C 	C 	0.44020 0.17360 0.24430 -0.14100
C 	C 	0.32390 0.13440 0.21410 0.06800
H 	H 	0.31920 0.08980 0.16970 0.00900
C 	C 	0.08400 0.12230 0.20890 0.34200
C 	C 	0.35110 0.33170 0.43590 0.39600
C 	C 	0.56080 0.14620 0.20670 0.32900
C 	C 	0.74060 0.92610 0.07630 0.35300
C 	C 	0.57180 0.84720 0.10650 0.03400
H 	H 	0.48690 0.84260 0.06020 0.02600
H 	H 	0.56570 0.83280 0.18150 0.03300
C 	C 	0.66990 0.79710 0.06360 -0.15900
H 	H 	0.69990 0.75410 0.11380 0.08100
H 	H 	0.63460 0.77560 0.99150 0.12100
N 	N 	0.62430 0.92710 0.10160 -0.26900
H 	H 	0.58400 0.96950 0.11370 0.17400
N 	N 	0.77430 0.85350 0.05770 -0.23700
H 	H 	0.84890 0.84060 0.04360 0.14100
O 	O 	0.08450 0.05610 0.16440 -0.48800
O 	O 	0.98510 0.15870 0.22360 -0.42900
O 	O 	0.26720 0.33690 0.49380 -0.44100
O 	O 	0.44670 0.37720 0.43860 -0.44700
O 	O 	0.66120 0.18730 0.23050 -0.42000
O 	O 	0.55770 0.08380 0.15190 -0.41500
O 	O 	0.80950 0.98678 0.06900 -0.49800
Cd	Cd	0.70563 0.60447 0.33963 1.21900
C 	C 	0.28710 0.66190 0.25000 -0.14300
C 	C 	0.27760 0.72560 0.17880 0.06800
H 	H 	0.35070 0.74270 0.15280 0.02500
C 	C 	0.16090 0.76420 0.14570 -0.12600
C 	C 	0.05320 0.73890 0.18710 0.00100
H 	H 	0.97550 0.76630 0.16860 0.07300
C 	C 	0.05980 0.67360 0.25570 -0.13800
C 	C 	0.17610 0.63440 0.28590 0.06400
H 	H 	0.18080 0.58980 0.33030 0.02100
C 	C 	0.41600 0.62230 0.29110 0.38300
C 	C 	0.14890 0.83170 0.06410 0.38800
C 	C 	0.93920 0.64620 0.29330 0.34700
C 	C 	0.75940 0.42610 0.42370 0.35600
C 	C 	0.92820 0.34720 0.39350 0.05800
H 	H 	0.01310 0.34260 0.43980 0.00300
H 	H 	0.93430 0.33280 0.31850 0.02300
C 	C 	0.83010 0.29710 0.43640 -0.07200
H 	H 	0.80010 0.25410 0.38620 0.05700
H 	H 	0.86540 0.27560 0.50850 0.06200
N 	N 	0.87570 0.42710 0.39840 -0.27000
H 	H 	0.91600 0.46950 0.38630 0.15900
N 	N 	0.72570 0.35350 0.44230 -0.24900
H 	H 	0.65110 0.34060 0.45640 0.14400
O 	O 	0.41550 0.55610 0.33560 -0.45800
O 	O 	0.51490 0.65870 0.27640 -0.45100
O 	O 	0.23280 0.83690 0.00620 -0.44800
O 	O 	0.05330 0.87720 0.06140 -0.44800
O 	O 	0.83880 0.68730 0.26950 -0.40800
O 	O 	0.94230 0.58380 0.34810 -0.37000
O 	O 	0.69050 0.48678 0.43100 -0.53300
Cd	Cd	0.20563 0.89553 0.83963 1.23500
C 	C 	0.78710 0.83810 0.75000 -0.13400
C 	C 	0.77760 0.77440 0.67880 0.08200
H 	H 	0.85070 0.75730 0.65280 0.03300
C 	C 	0.66090 0.73580 0.64570 -0.13700
C 	C 	0.55320 0.76110 0.68710 0.06300
H 	H 	0.47550 0.73370 0.66860 0.03200
C 	C 	0.55980 0.82640 0.75570 -0.11100
C 	C 	0.67610 0.86560 0.78590 0.06400
H 	H 	0.68080 0.91020 0.83030 0.04600
C 	C 	0.91600 0.87770 0.79110 0.42200
C 	C 	0.64890 0.66830 0.56410 0.39800
C 	C 	0.43920 0.85380 0.79330 0.31800
C 	C 	0.25940 0.07390 0.92370 0.35700
C 	C 	0.42820 0.15280 0.89350 -0.11300
H 	H 	0.51310 0.15740 0.93980 0.09100
H 	H 	0.43430 0.16720 0.81850 0.06600
C 	C 	0.33010 0.20290 0.93640 0.12900
H 	H 	0.30010 0.24590 0.88620 0.00300
H 	H 	0.36540 0.22440 0.00850 -0.04400
N 	N 	0.37570 0.07290 0.89840 -0.24500
H 	H 	0.41600 0.03050 0.88630 0.12800
N 	N 	0.22570 0.14650 0.94230 -0.27300
H 	H 	0.15110 0.15940 0.95640 0.15800
O 	O 	0.91550 0.94390 0.83560 -0.40800
O 	O 	0.01490 0.84130 0.77640 -0.46800
O 	O 	0.73280 0.66310 0.50620 -0.43200
O 	O 	0.55330 0.62280 0.56140 -0.44200
O 	O 	0.33880 0.81270 0.76950 -0.39200
O 	O 	0.44230 0.91620 0.84810 -0.33600
O 	O 	0.19050 0.01322 0.93100 -0.54800
Cd	Cd	0.29437 0.39553 0.66037 1.22100
C 	C 	0.71290 0.33810 0.75000 -0.14500
C 	C 	0.72240 0.27440 0.82120 0.09100
H 	H 	0.64930 0.25730 0.84720 0.02200
C 	C 	0.83910 0.23580 0.85430 -0.16200
C 	C 	0.94680 0.26110 0.81290 0.13000
H 	H 	0.02450 0.23370 0.83140 -0.01600
C 	C 	0.94020 0.32640 0.74430 -0.11200
C 	C 	0.82390 0.36560 0.71410 0.06700
H 	H 	0.81920 0.41020 0.66970 0.03600
C 	C 	0.58400 0.37770 0.70890 0.38800
C 	C 	0.85110 0.16830 0.93590 0.40100
C 	C 	0.06080 0.35380 0.70670 0.29800
C 	C 	0.24060 0.57390 0.57630 0.35300
C 	C 	0.07180 0.65280 0.60650 -0.12300
H 	H 	0.98690 0.65740 0.56020 0.10600
H 	H 	0.06570 0.66720 0.68150 0.07100
C 	C 	0.16990 0.70290 0.56360 0.01600
H 	H 	0.19990 0.74590 0.61380 0.03400
H 	H 	0.13460 0.72440 0.49150 0.02800
N 	N 	0.12430 0.57290 0.60160 -0.24600
H 	H 	0.08400 0.53050 0.61370 0.14000
N 	N 	0.27430 0.64650 0.55770 -0.25900
H 	H 	0.34890 0.65940 0.54360 0.15000
O 	O 	0.58450 0.44390 0.66440 -0.44900
O 	O 	0.48510 0.34130 0.72360 -0.44800
O 	O 	0.76720 0.16310 0.99380 -0.41700
O 	O 	0.94670 0.12280 0.93860 -0.42000
O 	O 	0.16120 0.31270 0.73050 -0.40200
O 	O 	0.05770 0.41620 0.65190 -0.37600
O 	O 	0.30950 0.51322 0.56900 -0.53200
Cd	Cd	-0.00000 0.00000 -0.00000 1.19100
Cd	Cd	0.50000 0.50000 0.50000 1.24300
