data_crystal

_cell_length_a 10.36600
_cell_length_b 10.47240
_cell_length_c 12.95820
_cell_angle_alpha 95.24300
_cell_angle_beta  102.18900
_cell_angle_gamma 106.43400

_symmetry_space_group_name_	'P 1'
_symmetry_space_group_name_H-M	'P 1'

loop_
_symmetry_equiv_pos_as_xyz
  x,y,z

loop_
_atom_site_label
_atom_site_type_symbol
_atom_site_fract_x
_atom_site_fract_y
_atom_site_fract_z
_atom_site_charge
Cu	Cu	0.81163 0.22564 0.24017 0.95000
S 	S 	0.26676 0.21993 0.21507 -0.02100
S 	S 	0.81864 0.75839 0.27704 0.11000
C 	C 	0.08930 0.30370 0.31750 0.38600
C 	C 	0.23240 0.30150 0.32210 -0.12000
C 	C 	0.34750 0.35070 0.40610 -0.02200
H 	H 	0.34820 0.39770 0.47080 0.02800
C 	C 	0.46530 0.32220 0.38370 0.00000
H 	H 	0.55220 0.34890 0.43170 0.02400
C 	C 	0.43660 0.25110 0.28360 -0.12600
C 	C 	0.53060 0.20080 0.23110 0.40800
C 	C 	0.76480 0.97130 0.18010 0.49100
C 	C 	0.75870 0.82750 0.16920 -0.15900
C 	C 	0.70760 0.73420 0.07790 -0.00100
H 	H 	0.66900 0.75290 0.01170 -0.00700
C 	C 	0.71940 0.60750 0.09480 -0.00700
H 	H 	0.69020 0.53320 0.04080 0.01000
C 	C 	0.77790 0.60450 0.19830 -0.13000
C 	C 	0.80990 0.49050 0.24700 0.41000
O 	O 	0.00240 0.26030 0.22750 -0.47800
O 	O 	0.06150 0.34290 0.40130 -0.56100
O 	O 	0.64680 0.21020 0.29140 -0.44400
O 	O 	0.48930 0.15460 0.13430 -0.56100
O 	O 	0.81640 0.04350 0.27220 -0.42400
O 	O 	0.71980 0.01720 0.09890 -0.61100
O 	O 	0.84770 0.50420 0.34590 -0.48900
O 	O 	0.79440 0.38620 0.18160 -0.41800
Cu	Cu	0.18837 0.77436 0.75983 0.90700
S 	S 	0.73324 0.78007 0.78493 0.16000
S 	S 	0.18136 0.24161 0.72296 -0.00800
C 	C 	0.91070 0.69630 0.68250 0.38700
C 	C 	0.76760 0.69850 0.67790 -0.10800
C 	C 	0.65250 0.64930 0.59390 -0.01500
H 	H 	0.65180 0.60230 0.52920 0.03400
C 	C 	0.53470 0.67780 0.61630 0.02000
H 	H 	0.44780 0.65110 0.56830 0.01500
C 	C 	0.56340 0.74890 0.71640 -0.13100
C 	C 	0.46940 0.79920 0.76890 0.41900
C 	C 	0.23520 0.02870 0.81990 0.20300
C 	C 	0.24130 0.17250 0.83080 -0.06200
C 	C 	0.29240 0.26580 0.92210 -0.06400
H 	H 	0.33100 0.24710 0.98830 0.07800
C 	C 	0.28060 0.39250 0.90520 0.03300
H 	H 	0.30980 0.46680 0.95920 0.04800
C 	C 	0.22210 0.39550 0.80170 -0.12200
C 	C 	0.19010 0.50950 0.75300 0.40200
O 	O 	0.99760 0.73970 0.77250 -0.31500
O 	O 	0.93850 0.65710 0.59870 -0.46600
O 	O 	0.35320 0.78980 0.70860 -0.43900
O 	O 	0.51070 0.84540 0.86570 -0.45300
O 	O 	0.18360 0.95650 0.72780 -0.33000
O 	O 	0.28020 0.98280 0.90110 -0.41100
O 	O 	0.15230 0.49580 0.65410 -0.54200
O 	O 	0.20560 0.61380 0.81840 -0.42900
Ca	Ca	-0.00000 0.50000 0.50000 1.48100
Ca	Ca	0.50000 0.00000 -0.00000 1.47000
