data_crystal

_cell_length_a 14.01470
_cell_length_b 18.31520
_cell_length_c 7.86300
_cell_angle_alpha 90.00000
_cell_angle_beta  105.46400
_cell_angle_gamma 90.00000

_symmetry_space_group_name_	'P 1'
_symmetry_space_group_name_H-M	'P 1'

loop_
_symmetry_equiv_pos_as_xyz
  x,y,z

loop_
_atom_site_label
_atom_site_type_symbol
_atom_site_fract_x
_atom_site_fract_y
_atom_site_fract_z
_atom_site_charge
Cd	Cd	0.81811 0.44108 0.22793 1.19500
C 	C 	0.86320 0.68750 0.22230 -0.14000
C 	C 	0.93270 0.73920 0.21170 0.08000
H 	H 	0.99260 0.72520 0.19210 0.04300
C 	C 	0.91230 0.81310 0.23060 -0.15500
C 	C 	0.82220 0.83400 0.25140 0.04300
H 	H 	0.80840 0.88340 0.25840 0.00100
C 	C 	0.75040 0.78210 0.26210 -0.06900
C 	C 	0.77370 0.70840 0.24950 0.03000
H 	H 	0.72820 0.67280 0.25950 0.02600
C 	C 	0.88530 0.60710 0.19640 0.41100
C 	C 	0.99160 0.86850 0.23540 0.44700
C 	C 	0.65090 0.80520 0.27850 0.09500
C 	C 	0.63900 0.86970 0.36680 -0.14500
H 	H 	0.69440 0.89730 0.42110 0.07700
C 	C 	0.54730 0.89260 0.37480 0.05900
H 	H 	0.54130 0.93570 0.43380 0.04100
C 	C 	0.46280 0.85230 0.29550 -0.14600
C 	C 	0.47640 0.78660 0.21150 0.07200
H 	H 	0.42180 0.75730 0.16290 0.00400
C 	C 	0.56690 0.76500 0.19930 -0.16100
H 	H 	0.57260 0.72280 0.13720 0.07900
C 	C 	0.36260 0.87910 0.29840 0.37700
O 	O 	0.82680 0.56190 0.22900 -0.49400
O 	O 	0.95840 0.59380 0.14110 -0.48200
O 	O 	0.07720 0.84490 0.23720 -0.53200
O 	O 	0.97380 0.93520 0.24320 -0.47900
O 	O 	0.35220 0.93990 0.35320 -0.41700
O 	O 	0.29040 0.84160 0.23520 -0.41200
Cd	Cd	0.18189 0.94108 0.27207 1.19200
C 	C 	0.13680 0.18750 0.27770 -0.14600
C 	C 	0.06730 0.23920 0.28830 0.05000
H 	H 	0.00740 0.22520 0.30790 0.00500
C 	C 	0.08770 0.31310 0.26940 -0.11400
C 	C 	0.17780 0.33400 0.24860 0.01500
H 	H 	0.19160 0.38340 0.24160 -0.00100
C 	C 	0.24960 0.28210 0.23790 -0.06400
C 	C 	0.22630 0.20840 0.25050 0.02700
H 	H 	0.27180 0.17280 0.24050 0.02200
C 	C 	0.11470 0.10710 0.30360 0.41900
C 	C 	0.00840 0.36850 0.26460 0.23500
C 	C 	0.34910 0.30520 0.22150 0.09000
C 	C 	0.36100 0.36970 0.13320 -0.15300
H 	H 	0.30560 0.39730 0.07890 0.05500
C 	C 	0.45270 0.39260 0.12520 0.05600
H 	H 	0.45870 0.43570 0.06620 0.01000
C 	C 	0.53720 0.35230 0.20450 -0.15500
C 	C 	0.52360 0.28660 0.28850 0.07300
H 	H 	0.57820 0.25730 0.33710 0.01400
C 	C 	0.43310 0.26500 0.30070 -0.16200
H 	H 	0.42740 0.22280 0.36280 0.08900
C 	C 	0.63740 0.37910 0.20160 0.37800
O 	O 	0.17320 0.06190 0.27100 -0.53900
O 	O 	0.04160 0.09380 0.35890 -0.55000
O 	O 	0.92280 0.34490 0.26280 -0.33800
O 	O 	0.02620 0.43520 0.25680 -0.52400
O 	O 	0.64780 0.43990 0.14680 -0.44700
O 	O 	0.70960 0.34160 0.26480 -0.39700
Cd	Cd	0.18189 0.55892 0.77207 1.18700
C 	C 	0.13680 0.31250 0.77770 -0.11900
C 	C 	0.06730 0.26080 0.78830 0.04800
H 	H 	0.00740 0.27480 0.80790 0.02100
C 	C 	0.08770 0.18690 0.76940 -0.09700
C 	C 	0.17780 0.16600 0.74860 0.01900
H 	H 	0.19160 0.11660 0.74160 0.00500
C 	C 	0.24960 0.21790 0.73790 -0.04800
C 	C 	0.22630 0.29160 0.75050 0.02600
H 	H 	0.27180 0.32720 0.74050 0.04000
C 	C 	0.11470 0.39290 0.80360 0.41500
C 	C 	0.00840 0.13150 0.76460 0.24500
C 	C 	0.34910 0.19480 0.72150 0.10100
C 	C 	0.36100 0.13030 0.63320 -0.15100
H 	H 	0.30560 0.10270 0.57890 0.06500
C 	C 	0.45270 0.10740 0.62520 0.06500
H 	H 	0.45870 0.06430 0.56620 0.01000
C 	C 	0.53720 0.14770 0.70450 -0.15000
C 	C 	0.52360 0.21340 0.78850 0.08300
H 	H 	0.57820 0.24270 0.83710 0.02600
C 	C 	0.43310 0.23500 0.80070 -0.15900
H 	H 	0.42740 0.27720 0.86280 0.10700
C 	C 	0.63740 0.12090 0.70160 0.38200
O 	O 	0.17320 0.43810 0.77100 -0.49600
O 	O 	0.04160 0.40620 0.85890 -0.50900
O 	O 	0.92280 0.15510 0.76280 -0.33200
O 	O 	0.02620 0.06480 0.75680 -0.52500
O 	O 	0.64780 0.06010 0.64680 -0.45200
O 	O 	0.70960 0.15840 0.76480 -0.38600
Cd	Cd	0.81811 0.05892 0.72793 1.19000
C 	C 	0.86320 0.81250 0.72230 -0.11300
C 	C 	0.93270 0.76080 0.71170 0.07700
H 	H 	0.99260 0.77480 0.69210 0.05800
C 	C 	0.91230 0.68690 0.73060 -0.13700
C 	C 	0.82220 0.66600 0.75140 0.04400
H 	H 	0.80840 0.61660 0.75840 0.00600
C 	C 	0.75040 0.71790 0.76210 -0.05300
C 	C 	0.77370 0.79160 0.74950 0.02800
H 	H 	0.72820 0.82720 0.75950 0.04400
C 	C 	0.88530 0.89290 0.69640 0.40700
C 	C 	0.99160 0.63150 0.73540 0.45000
C 	C 	0.65090 0.69480 0.77850 0.10500
C 	C 	0.63900 0.63030 0.86680 -0.14200
H 	H 	0.69440 0.60270 0.92110 0.08600
C 	C 	0.54730 0.60740 0.87480 0.06700
H 	H 	0.54130 0.56430 0.93380 0.04000
C 	C 	0.46280 0.64770 0.79550 -0.14100
C 	C 	0.47640 0.71340 0.71150 0.08100
H 	H 	0.42180 0.74270 0.66290 0.01700
C 	C 	0.56690 0.73500 0.69930 -0.15700
H 	H 	0.57260 0.77720 0.63720 0.09600
C 	C 	0.36260 0.62090 0.79840 0.38100
O 	O 	0.82680 0.93810 0.72900 -0.45000
O 	O 	0.95840 0.90620 0.64110 -0.44100
O 	O 	0.07720 0.65510 0.73720 -0.51800
O 	O 	0.97380 0.56480 0.74320 -0.48200
O 	O 	0.35220 0.56010 0.85320 -0.42200
O 	O 	0.29040 0.65840 0.73520 -0.40000
Cd	Cd	0.00000 0.50000 -0.00000 1.13500
Cd	Cd	-0.00000 0.00000 0.50000 1.13500
