data_crystal

_cell_length_a 10.31440
_cell_length_b 16.81000
_cell_length_c 44.98500
_cell_angle_alpha 90.00000
_cell_angle_beta  101.86900
_cell_angle_gamma 90.00000

_symmetry_space_group_name_	'P 1'
_symmetry_space_group_name_H-M	'P 1'

loop_
_symmetry_equiv_pos_as_xyz
  x,y,z

loop_
_atom_site_label
_atom_site_type_symbol
_atom_site_fract_x
_atom_site_fract_y
_atom_site_fract_z
_atom_site_charge
Mn	Mn	0.10432 0.00427 0.81165 1.28400
Mn	Mn	0.29609 0.09160 0.75759 1.22000
C 	C 	0.74810 0.09450 0.00149 0.07700
C 	C 	0.66110 0.15120 0.98461 -0.07600
H 	H 	0.58720 0.17350 0.99030 0.05300
C 	C 	0.70370 0.16690 0.95930 -0.08300
H 	H 	0.66520 0.20170 0.94390 0.05900
C 	C 	0.82280 0.11890 0.96021 0.09000
C 	C 	0.89130 0.11510 0.93681 -0.12900
C 	C 	0.99990 0.06650 0.93743 0.13300
C 	C 	0.06810 0.05760 0.91247 -0.08500
H 	H 	0.04480 0.08130 0.89340 0.04900
C 	C 	0.17000 0.00930 0.92189 -0.15800
H 	H 	0.23330 0.99510 0.91080 0.10300
C 	C 	0.16610 0.98280 0.95174 0.14500
C 	C 	0.25670 0.93520 0.96919 -0.13200
C 	C 	0.37770 0.91020 0.95628 -0.00200
C 	C 	0.47160 0.96710 0.95527 0.04000
H 	H 	0.46490 0.01560 0.96480 0.00500
C 	C 	0.57720 0.95570 0.94051 -0.20500
H 	H 	0.64060 0.99490 0.94010 0.10800
C 	C 	0.58150 0.88290 0.92661 0.22200
C 	C 	0.49440 0.82370 0.92829 -0.18900
H 	H 	0.50300 0.77400 0.91980 0.10100
C 	C 	0.38850 0.84030 0.94357 0.00200
H 	H 	0.32600 0.80100 0.94460 0.02700
C 	C 	0.66460 0.91420 0.88272 0.19300
C 	C 	0.54460 0.93960 0.86688 -0.14000
H 	H 	0.46910 0.92960 0.87460 0.09600
C 	C 	0.53280 0.97910 0.84009 -0.04200
C 	C 	0.64820 0.99430 0.82893 0.00200
H 	H 	0.64320 0.02310 0.81110 0.02400
C 	C 	0.76980 0.96610 0.84467 -0.03400
C 	C 	0.77650 0.92760 0.87130 -0.13600
H 	H 	0.85810 0.91000 0.88210 0.10800
C 	C 	0.89240 0.98380 0.83118 0.36600
C 	C 	0.40090 0.00900 0.82270 0.36400
C 	C 	0.85200 0.16970 0.90998 0.02200
C 	C 	0.75120 0.14980 0.88617 0.00400
H 	H 	0.70310 0.10350 0.88730 0.03100
C 	C 	0.72020 0.19550 0.86120 -0.18300
H 	H 	0.65050 0.18040 0.84560 0.09300
C 	C 	0.78830 0.26340 0.85810 0.21200
C 	C 	0.88720 0.28630 0.88170 -0.16300
H 	H 	0.93310 0.33330 0.88020 0.10000
C 	C 	0.92150 0.23900 0.90880 -0.01400
H 	H 	0.98820 0.25470 0.92490 0.04100
C 	C 	0.84420 0.30640 0.81214 0.16300
C 	C 	0.82950 0.36770 0.79095 -0.08600
H 	H 	0.77380 0.41030 0.79260 0.05400
C 	C 	0.89610 0.36560 0.76783 -0.10100
C 	C 	0.98150 0.30340 0.76643 0.05800
H 	H 	0.02760 0.30090 0.75070 0.00100
C 	C 	0.99860 0.24490 0.78837 -0.04400
C 	C 	0.93170 0.24590 0.81150 -0.12700
H 	H 	0.94520 0.20660 0.82640 0.09600
C 	C 	0.08830 0.17170 0.78672 0.35300
C 	C 	0.87990 0.43000 0.74360 0.41700
N 	N 	0.84830 0.07670 0.98655 -0.29000
N 	N 	0.06020 0.01740 0.96078 -0.33900
O 	O 	0.00230 0.96220 0.84625 -0.43100
O 	O 	0.87950 0.01380 0.80642 -0.40900
O 	O 	0.39900 0.05170 0.80038 -0.51900
O 	O 	0.30270 0.98620 0.83245 -0.44600
O 	O 	0.14700 0.17010 0.76454 -0.50400
O 	O 	0.10630 0.12600 0.80851 -0.50200
O 	O 	0.92270 0.41430 0.72054 -0.46800
O 	O 	0.82150 0.49080 0.74880 -0.55000
O 	O 	0.67950 0.86990 0.90951 -0.27600
O 	O 	0.76880 0.31820 0.83436 -0.27300
Mn	Mn	0.89568 0.50427 0.68835 1.30400
Mn	Mn	0.70391 0.59160 0.74241 1.23000
C 	C 	0.25190 0.59450 0.49851 0.08200
C 	C 	0.33890 0.65120 0.51539 -0.08600
H 	H 	0.41280 0.67350 0.50970 0.06000
C 	C 	0.29630 0.66690 0.54070 -0.06700
H 	H 	0.33480 0.70170 0.55610 0.05600
C 	C 	0.17720 0.61890 0.53979 0.06500
C 	C 	0.10870 0.61510 0.56319 -0.08400
C 	C 	0.00010 0.56650 0.56257 0.01100
C 	C 	0.93190 0.55760 0.58753 0.00600
H 	H 	0.95520 0.58130 0.60660 0.04500
C 	C 	0.83000 0.50930 0.57811 -0.11800
H 	H 	0.76670 0.49510 0.58920 0.08000
C 	C 	0.83390 0.48280 0.54826 0.11000
C 	C 	0.74330 0.43520 0.53081 -0.12200
C 	C 	0.62230 0.41020 0.54372 0.01800
C 	C 	0.52840 0.46710 0.54473 -0.01300
H 	H 	0.53510 0.51560 0.53520 0.03600
C 	C 	0.42280 0.45570 0.55949 -0.17600
H 	H 	0.35940 0.49490 0.55990 0.09000
C 	C 	0.41850 0.38290 0.57339 0.20200
C 	C 	0.50560 0.32370 0.57171 -0.17200
H 	H 	0.49700 0.27400 0.58020 0.09300
C 	C 	0.61150 0.34030 0.55643 -0.01700
H 	H 	0.67400 0.30100 0.55540 0.03700
C 	C 	0.33540 0.41420 0.61728 0.19600
C 	C 	0.45540 0.43960 0.63312 -0.14000
H 	H 	0.53090 0.42960 0.62540 0.09600
C 	C 	0.46720 0.47910 0.65991 -0.05200
C 	C 	0.35180 0.49430 0.67107 -0.04200
H 	H 	0.35680 0.52310 0.68890 0.04800
C 	C 	0.23020 0.46610 0.65533 -0.00600
C 	C 	0.22350 0.42760 0.62870 -0.15900
H 	H 	0.14190 0.41000 0.61790 0.09700
C 	C 	0.10760 0.48380 0.66882 0.26800
C 	C 	0.59910 0.50900 0.67730 0.40500
C 	C 	0.14800 0.66970 0.59002 -0.01100
C 	C 	0.24880 0.64980 0.61383 0.02600
H 	H 	0.29690 0.60350 0.61270 0.02700
C 	C 	0.27980 0.69550 0.63880 -0.20000
H 	H 	0.34950 0.68040 0.65440 0.10200
C 	C 	0.21170 0.76340 0.64190 0.22400
C 	C 	0.11280 0.78630 0.61830 -0.18100
H 	H 	0.06690 0.83330 0.61980 0.09800
C 	C 	0.07850 0.73900 0.59120 0.00200
H 	H 	0.01180 0.75470 0.57510 0.02200
C 	C 	0.15580 0.80640 0.68786 0.17800
C 	C 	0.17050 0.86770 0.70905 -0.11800
H 	H 	0.22620 0.91030 0.70740 0.06600
C 	C 	0.10390 0.86560 0.73217 -0.05200
C 	C 	0.01850 0.80340 0.73357 -0.06700
H 	H 	0.97240 0.80090 0.74930 0.08800
C 	C 	0.00140 0.74490 0.71163 -0.05300
C 	C 	0.06830 0.74590 0.68850 -0.13900
H 	H 	0.05480 0.70660 0.67360 0.08600
C 	C 	0.91170 0.67170 0.71328 0.39400
C 	C 	0.12010 0.93000 0.75640 0.39400
N 	N 	0.15170 0.57670 0.51345 -0.29600
N 	N 	0.93980 0.51740 0.53922 -0.27300
O 	O 	0.99770 0.46220 0.65375 -0.37200
O 	O 	0.12050 0.51380 0.69358 -0.39600
O 	O 	0.60100 0.55170 0.69962 -0.52300
O 	O 	0.69730 0.48620 0.66755 -0.47000
O 	O 	0.85300 0.67010 0.73546 -0.49600
O 	O 	0.89370 0.62600 0.69149 -0.48600
O 	O 	0.07730 0.91430 0.77946 -0.47400
O 	O 	0.17850 0.99080 0.75120 -0.53700
O 	O 	0.32050 0.36990 0.59049 -0.28200
O 	O 	0.23120 0.81820 0.66564 -0.27800
Mn	Mn	0.89568 0.99573 0.18835 1.30700
Mn	Mn	0.70391 0.90840 0.24241 1.23100
C 	C 	0.25190 0.90550 0.99851 0.09700
C 	C 	0.33890 0.84880 0.01539 -0.09400
H 	H 	0.41280 0.82650 0.00970 0.06300
C 	C 	0.29630 0.83310 0.04070 -0.06300
H 	H 	0.33480 0.79830 0.05610 0.05400
C 	C 	0.17720 0.88110 0.03979 0.06900
C 	C 	0.10870 0.88490 0.06319 -0.09000
C 	C 	0.00010 0.93350 0.06257 0.03100
C 	C 	0.93190 0.94240 0.08753 -0.03100
H 	H 	0.95520 0.91870 0.10660 0.06000
C 	C 	0.83000 0.99070 0.07811 -0.06100
H 	H 	0.76670 0.00490 0.08920 0.05500
C 	C 	0.83390 0.01720 0.04826 0.07700
C 	C 	0.74330 0.06480 0.03081 -0.11500
C 	C 	0.62230 0.08980 0.04372 0.03200
C 	C 	0.52840 0.03290 0.04473 -0.05400
H 	H 	0.53510 0.98440 0.03520 0.06000
C 	C 	0.42280 0.04430 0.05949 -0.15200
H 	H 	0.35940 0.00510 0.05990 0.07600
C 	C 	0.41850 0.11710 0.07339 0.18900
C 	C 	0.50560 0.17630 0.07171 -0.16000
H 	H 	0.49700 0.22600 0.08020 0.09000
C 	C 	0.61150 0.15970 0.05643 -0.03000
H 	H 	0.67400 0.19900 0.05540 0.04200
C 	C 	0.33540 0.08580 0.11728 0.19900
C 	C 	0.45540 0.06040 0.13312 -0.14200
H 	H 	0.53090 0.07040 0.12540 0.09600
C 	C 	0.46720 0.02090 0.15991 -0.05500
C 	C 	0.35180 0.00570 0.17107 -0.07100
H 	H 	0.35680 0.97690 0.18890 0.06600
C 	C 	0.23020 0.03390 0.15533 0.01000
C 	C 	0.22350 0.07240 0.12870 -0.17000
H 	H 	0.14190 0.09000 0.11790 0.09900
C 	C 	0.10760 0.01620 0.16882 0.23800
C 	C 	0.59910 0.99100 0.17730 0.42400
C 	C 	0.14800 0.83030 0.09002 -0.00500
C 	C 	0.24880 0.85020 0.11383 0.02100
H 	H 	0.29690 0.89650 0.11270 0.03300
C 	C 	0.27980 0.80450 0.13880 -0.19500
H 	H 	0.34950 0.81960 0.15440 0.10200
C 	C 	0.21170 0.73660 0.14190 0.22100
C 	C 	0.11280 0.71370 0.11830 -0.17800
H 	H 	0.06690 0.66670 0.11980 0.09400
C 	C 	0.07850 0.76100 0.09120 -0.00300
H 	H 	0.01180 0.74530 0.07510 0.02200
C 	C 	0.15580 0.69360 0.18786 0.17700
C 	C 	0.17050 0.63230 0.20905 -0.11800
H 	H 	0.22620 0.58970 0.20740 0.06300
C 	C 	0.10390 0.63440 0.23217 -0.05400
C 	C 	0.01850 0.69660 0.23357 -0.07000
H 	H 	0.97240 0.69910 0.24930 0.09000
C 	C 	0.00140 0.75510 0.21163 -0.05100
C 	C 	0.06830 0.75410 0.18850 -0.14100
H 	H 	0.05480 0.79340 0.17360 0.08800
C 	C 	0.91170 0.82830 0.21328 0.39200
C 	C 	0.12010 0.57000 0.25640 0.39500
N 	N 	0.15170 0.92330 0.01345 -0.29500
N 	N 	0.93980 0.98260 0.03922 -0.26600
O 	O 	0.99770 0.03780 0.15375 -0.36400
O 	O 	0.12050 0.98620 0.19358 -0.37500
O 	O 	0.60100 0.94830 0.19962 -0.52500
O 	O 	0.69730 0.01380 0.16755 -0.48200
O 	O 	0.85300 0.82990 0.23546 -0.49500
O 	O 	0.89370 0.87400 0.19149 -0.48500
O 	O 	0.07730 0.58570 0.27946 -0.48200
O 	O 	0.17850 0.50920 0.25120 -0.55000
O 	O 	0.32050 0.13010 0.09049 -0.28000
O 	O 	0.23120 0.68180 0.16564 -0.27900
Mn	Mn	0.10432 0.49573 0.31165 1.29600
Mn	Mn	0.29609 0.40840 0.25759 1.22700
C 	C 	0.74810 0.40550 0.50149 0.08600
C 	C 	0.66110 0.34880 0.48461 -0.08000
H 	H 	0.58720 0.32650 0.49030 0.05500
C 	C 	0.70370 0.33310 0.45930 -0.08000
H 	H 	0.66520 0.29830 0.44390 0.05800
C 	C 	0.82280 0.38110 0.46021 0.09300
C 	C 	0.89130 0.38490 0.43681 -0.13300
C 	C 	0.99990 0.43350 0.43743 0.14500
C 	C 	0.06810 0.44240 0.41247 -0.13300
H 	H 	0.04480 0.41870 0.39340 0.07100
C 	C 	0.17000 0.49070 0.42189 -0.05400
H 	H 	0.23330 0.50490 0.41080 0.05400
C 	C 	0.16610 0.51720 0.45174 0.07900
C 	C 	0.25670 0.56480 0.46919 -0.11400
C 	C 	0.37770 0.58980 0.45628 0.00900
C 	C 	0.47160 0.53290 0.45527 -0.00500
H 	H 	0.46490 0.48440 0.46480 0.03200
C 	C 	0.57720 0.54430 0.44051 -0.18000
H 	H 	0.64060 0.50510 0.44010 0.09300
C 	C 	0.58150 0.61710 0.42661 0.20800
C 	C 	0.49440 0.67630 0.42829 -0.17700
H 	H 	0.50300 0.72600 0.41980 0.09800
C 	C 	0.38850 0.65970 0.44357 -0.00900
H 	H 	0.32600 0.69900 0.44460 0.03100
C 	C 	0.66460 0.58580 0.38272 0.19200
C 	C 	0.54460 0.56040 0.36688 -0.13300
H 	H 	0.46910 0.57040 0.37460 0.09300
C 	C 	0.53280 0.52090 0.34009 -0.05900
C 	C 	0.64820 0.50570 0.32893 -0.03000
H 	H 	0.64320 0.47690 0.31110 0.04500
C 	C 	0.76980 0.53390 0.34467 -0.02200
C 	C 	0.77650 0.57240 0.37130 -0.14400
H 	H 	0.85810 0.59000 0.38210 0.11000
C 	C 	0.89240 0.51620 0.33118 0.34500
C 	C 	0.40090 0.49100 0.32270 0.40700
C 	C 	0.85200 0.33030 0.40998 0.02700
C 	C 	0.75120 0.35020 0.38617 -0.00000
H 	H 	0.70310 0.39650 0.38730 0.03700
C 	C 	0.72020 0.30450 0.36120 -0.17800
H 	H 	0.65050 0.31960 0.34560 0.09300
C 	C 	0.78830 0.23660 0.35810 0.21000
C 	C 	0.88720 0.21370 0.38170 -0.16100
H 	H 	0.93310 0.16670 0.38020 0.09800
C 	C 	0.92150 0.26100 0.40880 -0.01800
H 	H 	0.98820 0.24530 0.42490 0.04100
C 	C 	0.84420 0.19360 0.31214 0.16200
C 	C 	0.82950 0.13230 0.29095 -0.08400
H 	H 	0.77380 0.08970 0.29260 0.05200
C 	C 	0.89610 0.13440 0.26783 -0.10400
C 	C 	0.98150 0.19660 0.26643 0.06200
H 	H 	0.02760 0.19910 0.25070 -0.00100
C 	C 	0.99860 0.25510 0.28837 -0.04600
C 	C 	0.93170 0.25410 0.31150 -0.12500
H 	H 	0.94520 0.29340 0.32640 0.09600
C 	C 	0.08830 0.32830 0.28672 0.35400
C 	C 	0.87990 0.07000 0.24360 0.41800
N 	N 	0.84830 0.42330 0.48655 -0.29200
N 	N 	0.06020 0.48260 0.46078 -0.32100
O 	O 	0.00230 0.53780 0.34625 -0.43600
O 	O 	0.87950 0.48620 0.30642 -0.39100
O 	O 	0.39900 0.44830 0.30038 -0.52400
O 	O 	0.30270 0.51380 0.33245 -0.47300
O 	O 	0.14700 0.32990 0.26454 -0.50100
O 	O 	0.10630 0.37400 0.30851 -0.49700
O 	O 	0.92270 0.08570 0.22054 -0.47000
O 	O 	0.82150 0.00920 0.24880 -0.55400
O 	O 	0.67950 0.63010 0.40951 -0.27300
O 	O 	0.76880 0.18180 0.33436 -0.27300
Mn	Mn	-0.00000 0.00000 -0.00000 1.22200
Mn	Mn	0.00000 0.50000 0.50000 1.23000
