data_crystal

_cell_length_a 17.69070
_cell_length_b 16.16720
_cell_length_c 16.82830
_cell_angle_alpha 90.00000
_cell_angle_beta  90.00000
_cell_angle_gamma 90.00000

_symmetry_space_group_name_	'P 1'
_symmetry_space_group_name_H-M	'P 1'

loop_
_symmetry_equiv_pos_as_xyz
  x,y,z

loop_
_atom_site_label
_atom_site_type_symbol
_atom_site_fract_x
_atom_site_fract_y
_atom_site_fract_z
_atom_site_charge
Cd	Cd	0.25416 0.17057 0.27661 1.21700
C 	C 	0.24530 0.27940 0.15240 0.40200
C 	C 	0.22790 0.34560 0.09010 -0.38900
H 	H 	0.19900 0.32030 0.04760 0.15300
H 	H 	0.19620 0.38740 0.11440 0.14900
C 	C 	0.29560 0.38780 0.05410 0.06000
H 	H 	0.32390 0.34800 0.02290 0.01200
H 	H 	0.32830 0.40740 0.09640 0.01800
C 	C 	0.27400 0.46020 0.00150 -0.12000
H 	H 	0.31740 0.47540 0.96950 0.05600
H 	H 	0.23430 0.44250 0.96560 0.04900
C 	C 	0.24720 0.53520 0.04580 -0.18000
H 	H 	0.28740 0.55340 0.08090 0.07100
H 	H 	0.20470 0.51950 0.07880 0.07500
C 	C 	0.22350 0.60810 0.99410 0.11200
H 	H 	0.19010 0.58820 0.95260 0.00100
H 	H 	0.19510 0.64690 0.02640 -0.00500
C 	C 	0.28850 0.65300 0.95640 -0.43900
H 	H 	0.31960 0.67650 0.99810 0.16700
H 	H 	0.31920 0.61310 0.92790 0.16300
C 	C 	0.26700 0.72050 0.90020 0.42000
C 	C 	0.14530 0.00320 0.28550 0.00700
H 	H 	0.17830 0.97000 0.25660 0.01400
C 	C 	0.07830 0.97800 0.31570 -0.01600
H 	H 	0.05680 0.92570 0.31140 0.04000
C 	C 	0.09800 0.10770 0.34600 0.07800
H 	H 	0.09140 0.16020 0.36750 -0.00000
C 	C 	0.97700 0.04870 0.39720 -0.05700
H 	H 	0.94450 0.00440 0.37880 0.04900
H 	H 	0.95200 0.10070 0.38560 0.04900
C 	C 	0.98760 0.04080 0.48690 -0.09500
H 	H 	0.02440 0.08150 0.50410 0.06000
H 	H 	0.94000 0.05370 0.51280 0.05400
C 	C 	0.34880 0.99610 0.25540 0.00200
H 	H 	0.31800 0.96630 0.28990 0.01500
C 	C 	0.40580 0.96410 0.21260 -0.01400
H 	H 	0.42110 0.90910 0.21190 0.03900
C 	C 	0.39740 0.09570 0.18910 0.07500
H 	H 	0.40700 0.14800 0.16840 0.00100
C 	C 	0.49790 0.02200 0.11190 -0.05000
H 	H 	0.53330 0.97920 0.12760 0.05000
H 	H 	0.52490 0.07420 0.11080 0.04900
C 	C 	0.46860 0.00320 0.03020 -0.10300
H 	H 	0.43390 0.04650 0.01410 0.06100
H 	H 	0.44090 0.95150 0.03150 0.05800
N 	N 	0.15740 0.08450 0.30350 -0.24100
N 	N 	0.04880 0.04550 0.35380 -0.11200
N 	N 	0.34300 0.07860 0.24080 -0.24100
N 	N 	0.43690 0.02690 0.17070 -0.11300
O 	O 	0.19210 0.23150 0.17030 -0.42300
O 	O 	0.30690 0.27460 0.18690 -0.39400
O 	O 	0.31760 0.77250 0.88290 -0.43200
O 	O 	0.20430 0.72340 0.86730 -0.39700
Cd	Cd	0.74584 0.17057 0.22339 1.21600
C 	C 	0.75470 0.27940 0.34760 0.40200
C 	C 	0.77210 0.34560 0.40990 -0.39100
H 	H 	0.80100 0.32030 0.45240 0.15300
H 	H 	0.80380 0.38740 0.38560 0.14900
C 	C 	0.70440 0.38780 0.44590 0.06300
H 	H 	0.67610 0.34800 0.47710 0.01100
H 	H 	0.67170 0.40740 0.40360 0.01700
C 	C 	0.72600 0.46020 0.49850 -0.12500
H 	H 	0.68260 0.47540 0.53050 0.05800
H 	H 	0.76570 0.44250 0.53440 0.05100
C 	C 	0.75280 0.53520 0.45420 -0.17900
H 	H 	0.71260 0.55340 0.41910 0.07000
H 	H 	0.79530 0.51950 0.42120 0.07400
C 	C 	0.77650 0.60810 0.50590 0.11300
H 	H 	0.80990 0.58820 0.54740 0.00100
H 	H 	0.80490 0.64690 0.47360 -0.00500
C 	C 	0.71150 0.65300 0.54360 -0.44000
H 	H 	0.68040 0.67650 0.50190 0.16700
H 	H 	0.68080 0.61310 0.57210 0.16300
C 	C 	0.73300 0.72050 0.59980 0.42000
C 	C 	0.85470 0.00320 0.21450 0.00700
H 	H 	0.82170 0.97000 0.24340 0.01300
C 	C 	0.92170 0.97800 0.18430 -0.01800
H 	H 	0.94320 0.92570 0.18860 0.04000
C 	C 	0.90200 0.10770 0.15400 0.07800
H 	H 	0.90860 0.16020 0.13250 -0.00000
C 	C 	0.02300 0.04870 0.10280 -0.05800
H 	H 	0.05550 0.00440 0.12120 0.05000
H 	H 	0.04800 0.10070 0.11440 0.05000
C 	C 	0.01240 0.04080 0.01310 -0.09000
H 	H 	0.97560 0.08150 0.99590 0.05800
H 	H 	0.06000 0.05370 0.98720 0.05000
C 	C 	0.65120 0.99610 0.24460 0.00200
H 	H 	0.68200 0.96630 0.21010 0.01500
C 	C 	0.59420 0.96410 0.28740 -0.01300
H 	H 	0.57890 0.90910 0.28810 0.03900
C 	C 	0.60260 0.09570 0.31090 0.07400
H 	H 	0.59300 0.14800 0.33160 0.00100
C 	C 	0.50210 0.02200 0.38810 -0.05100
H 	H 	0.46670 0.97920 0.37240 0.05100
H 	H 	0.47510 0.07420 0.38920 0.04900
C 	C 	0.53140 0.00320 0.46980 -0.10500
H 	H 	0.56610 0.04650 0.48590 0.06100
H 	H 	0.55910 0.95150 0.46850 0.05900
N 	N 	0.84260 0.08450 0.19650 -0.24100
N 	N 	0.95120 0.04550 0.14620 -0.11200
N 	N 	0.65700 0.07860 0.25920 -0.24100
N 	N 	0.56310 0.02690 0.32930 -0.11400
O 	O 	0.80790 0.23150 0.32970 -0.42300
O 	O 	0.69310 0.27460 0.31310 -0.39400
O 	O 	0.68240 0.77250 0.61710 -0.43200
O 	O 	0.79570 0.72340 0.63270 -0.39700
Cd	Cd	0.74584 0.82943 0.72339 1.21600
C 	C 	0.75470 0.72060 0.84760 0.40100
C 	C 	0.77210 0.65440 0.90990 -0.38900
H 	H 	0.80100 0.67970 0.95240 0.15300
H 	H 	0.80380 0.61260 0.88560 0.14900
C 	C 	0.70440 0.61220 0.94590 0.06000
H 	H 	0.67610 0.65200 0.97710 0.01200
H 	H 	0.67170 0.59260 0.90360 0.01800
C 	C 	0.72600 0.53980 0.99850 -0.12000
H 	H 	0.68260 0.52460 0.03050 0.05600
H 	H 	0.76570 0.55750 0.03440 0.04900
C 	C 	0.75280 0.46480 0.95420 -0.18000
H 	H 	0.71260 0.44660 0.91910 0.07100
H 	H 	0.79530 0.48050 0.92120 0.07500
C 	C 	0.77650 0.39190 0.00590 0.11200
H 	H 	0.80990 0.41180 0.04740 0.00100
H 	H 	0.80490 0.35310 0.97360 -0.00500
C 	C 	0.71150 0.34700 0.04360 -0.43900
H 	H 	0.68040 0.32350 0.00190 0.16700
H 	H 	0.68080 0.38690 0.07210 0.16300
C 	C 	0.73300 0.27950 0.09980 0.42000
C 	C 	0.85470 0.99680 0.71450 0.00700
H 	H 	0.82170 0.03000 0.74340 0.01400
C 	C 	0.92170 0.02200 0.68430 -0.01600
H 	H 	0.94320 0.07430 0.68860 0.04000
C 	C 	0.90200 0.89230 0.65400 0.07800
H 	H 	0.90860 0.83980 0.63250 -0.00000
C 	C 	0.02300 0.95130 0.60280 -0.05700
H 	H 	0.05550 0.99560 0.62120 0.04900
H 	H 	0.04800 0.89930 0.61440 0.04900
C 	C 	0.01240 0.95920 0.51310 -0.09500
H 	H 	0.97560 0.91850 0.49590 0.06000
H 	H 	0.06000 0.94630 0.48720 0.05400
C 	C 	0.65120 0.00390 0.74460 0.00200
H 	H 	0.68200 0.03370 0.71010 0.01500
C 	C 	0.59420 0.03590 0.78740 -0.01400
H 	H 	0.57890 0.09090 0.78810 0.03900
C 	C 	0.60260 0.90430 0.81090 0.07500
H 	H 	0.59300 0.85200 0.83160 0.00100
C 	C 	0.50210 0.97800 0.88810 -0.05000
H 	H 	0.46670 0.02080 0.87240 0.05000
H 	H 	0.47510 0.92580 0.88920 0.04900
C 	C 	0.53140 0.99680 0.96980 -0.10300
H 	H 	0.56610 0.95350 0.98590 0.06100
H 	H 	0.55910 0.04850 0.96850 0.05800
N 	N 	0.84260 0.91550 0.69650 -0.24100
N 	N 	0.95120 0.95450 0.64620 -0.11200
N 	N 	0.65700 0.92140 0.75920 -0.24100
N 	N 	0.56310 0.97310 0.82930 -0.11300
O 	O 	0.80790 0.76850 0.82970 -0.42300
O 	O 	0.69310 0.72540 0.81310 -0.39400
O 	O 	0.68240 0.22750 0.11710 -0.43200
O 	O 	0.79570 0.27660 0.13270 -0.39700
Cd	Cd	0.25416 0.82943 0.77661 1.21600
C 	C 	0.24530 0.72060 0.65240 0.40200
C 	C 	0.22790 0.65440 0.59010 -0.39100
H 	H 	0.19900 0.67970 0.54760 0.15300
H 	H 	0.19620 0.61260 0.61440 0.14900
C 	C 	0.29560 0.61220 0.55410 0.06300
H 	H 	0.32390 0.65200 0.52290 0.01100
H 	H 	0.32830 0.59260 0.59640 0.01700
C 	C 	0.27400 0.53980 0.50150 -0.12500
H 	H 	0.31740 0.52460 0.46950 0.05800
H 	H 	0.23430 0.55750 0.46560 0.05100
C 	C 	0.24720 0.46480 0.54580 -0.17900
H 	H 	0.28740 0.44660 0.58090 0.07000
H 	H 	0.20470 0.48050 0.57880 0.07400
C 	C 	0.22350 0.39190 0.49410 0.11300
H 	H 	0.19010 0.41180 0.45260 0.00100
H 	H 	0.19510 0.35310 0.52640 -0.00500
C 	C 	0.28850 0.34700 0.45640 -0.44000
H 	H 	0.31960 0.32350 0.49810 0.16700
H 	H 	0.31920 0.38690 0.42790 0.16300
C 	C 	0.26700 0.27950 0.40020 0.42000
C 	C 	0.14530 0.99680 0.78550 0.00700
H 	H 	0.17830 0.03000 0.75660 0.01300
C 	C 	0.07830 0.02200 0.81570 -0.01800
H 	H 	0.05680 0.07430 0.81140 0.04000
C 	C 	0.09800 0.89230 0.84600 0.07800
H 	H 	0.09140 0.83980 0.86750 -0.00000
C 	C 	0.97700 0.95130 0.89720 -0.05800
H 	H 	0.94450 0.99560 0.87880 0.05000
H 	H 	0.95200 0.89930 0.88560 0.05000
C 	C 	0.98760 0.95920 0.98690 -0.09000
H 	H 	0.02440 0.91850 0.00410 0.05800
H 	H 	0.94000 0.94630 0.01280 0.05000
C 	C 	0.34880 0.00390 0.75540 0.00200
H 	H 	0.31800 0.03370 0.78990 0.01500
C 	C 	0.40580 0.03590 0.71260 -0.01300
H 	H 	0.42110 0.09090 0.71190 0.03900
C 	C 	0.39740 0.90430 0.68910 0.07400
H 	H 	0.40700 0.85200 0.66840 0.00100
C 	C 	0.49790 0.97800 0.61190 -0.05100
H 	H 	0.53330 0.02080 0.62760 0.05100
H 	H 	0.52490 0.92580 0.61080 0.04900
C 	C 	0.46860 0.99680 0.53020 -0.10500
H 	H 	0.43390 0.95350 0.51410 0.06100
H 	H 	0.44090 0.04850 0.53150 0.05900
N 	N 	0.15740 0.91550 0.80350 -0.24100
N 	N 	0.04880 0.95450 0.85380 -0.11200
N 	N 	0.34300 0.92140 0.74080 -0.24100
N 	N 	0.43690 0.97310 0.67070 -0.11400
O 	O 	0.19210 0.76850 0.67030 -0.42300
O 	O 	0.30690 0.72540 0.68690 -0.39400
O 	O 	0.31760 0.22750 0.38290 -0.43200
O 	O 	0.20430 0.27660 0.36730 -0.39700
Cd	Cd	0.24584 0.32943 0.77661 1.21600
C 	C 	0.25470 0.22060 0.65240 0.40200
C 	C 	0.27210 0.15440 0.59010 -0.39100
H 	H 	0.30100 0.17970 0.54760 0.15300
H 	H 	0.30380 0.11260 0.61440 0.14900
C 	C 	0.20440 0.11220 0.55410 0.06300
H 	H 	0.17610 0.15200 0.52290 0.01000
H 	H 	0.17170 0.09260 0.59640 0.01700
C 	C 	0.22600 0.03980 0.50150 -0.12500
H 	H 	0.18260 0.02460 0.46950 0.05800
H 	H 	0.26570 0.05750 0.46560 0.05100
C 	C 	0.25280 0.96480 0.54580 -0.17900
H 	H 	0.21260 0.94660 0.58090 0.07000
H 	H 	0.29530 0.98050 0.57880 0.07400
C 	C 	0.27650 0.89190 0.49410 0.11300
H 	H 	0.30990 0.91180 0.45260 0.00100
H 	H 	0.30490 0.85310 0.52640 -0.00500
C 	C 	0.21150 0.84700 0.45640 -0.44000
H 	H 	0.18040 0.82350 0.49810 0.16700
H 	H 	0.18080 0.88690 0.42790 0.16300
C 	C 	0.23300 0.77950 0.40020 0.42000
C 	C 	0.35470 0.49680 0.78550 0.00400
H 	H 	0.32170 0.53000 0.75660 0.01500
C 	C 	0.42170 0.52200 0.81570 -0.01400
H 	H 	0.44320 0.57430 0.81140 0.03900
C 	C 	0.40200 0.39230 0.84600 0.07800
H 	H 	0.40860 0.33980 0.86750 -0.00000
C 	C 	0.52300 0.45130 0.89720 -0.05600
H 	H 	0.55550 0.49560 0.87880 0.04900
H 	H 	0.54800 0.39930 0.88560 0.04900
C 	C 	0.51240 0.45920 0.98690 -0.09600
H 	H 	0.47560 0.41850 0.00410 0.06000
H 	H 	0.56000 0.44630 0.01280 0.05400
C 	C 	0.15120 0.50390 0.75540 0.00200
H 	H 	0.18200 0.53370 0.78990 0.01500
C 	C 	0.09420 0.53590 0.71260 -0.01300
H 	H 	0.07890 0.59090 0.71190 0.03900
C 	C 	0.10260 0.40430 0.68910 0.07400
H 	H 	0.09300 0.35200 0.66840 0.00100
C 	C 	0.00210 0.47800 0.61190 -0.05300
H 	H 	0.96670 0.52080 0.62760 0.05200
H 	H 	0.97510 0.42580 0.61080 0.05000
C 	C 	0.03140 0.49680 0.53020 -0.10400
H 	H 	0.06610 0.45350 0.51410 0.06000
H 	H 	0.05910 0.54850 0.53150 0.05900
N 	N 	0.34260 0.41550 0.80350 -0.24000
N 	N 	0.45120 0.45450 0.85380 -0.11300
N 	N 	0.15700 0.42140 0.74080 -0.24100
N 	N 	0.06310 0.47310 0.67070 -0.11400
O 	O 	0.30790 0.26850 0.67030 -0.42300
O 	O 	0.19310 0.22540 0.68690 -0.39400
O 	O 	0.18240 0.72750 0.38290 -0.43200
O 	O 	0.29570 0.77660 0.36730 -0.39700
Cd	Cd	0.75416 0.32943 0.72339 1.21600
C 	C 	0.74530 0.22060 0.84760 0.40300
C 	C 	0.72790 0.15440 0.90990 -0.39600
H 	H 	0.69900 0.17970 0.95240 0.15500
H 	H 	0.69620 0.11260 0.88560 0.15100
C 	C 	0.79560 0.11220 0.94590 0.07200
H 	H 	0.82390 0.15200 0.97710 0.00800
H 	H 	0.82830 0.09260 0.90360 0.01400
C 	C 	0.77400 0.03980 0.99850 -0.13900
H 	H 	0.81740 0.02460 0.03050 0.06300
H 	H 	0.73430 0.05750 0.03440 0.05500
C 	C 	0.74720 0.96480 0.95420 -0.16200
H 	H 	0.78740 0.94660 0.91910 0.06600
H 	H 	0.70470 0.98050 0.92120 0.07000
C 	C 	0.72350 0.89190 0.00590 0.09700
H 	H 	0.69010 0.91180 0.04740 0.00500
H 	H 	0.69510 0.85310 0.97360 0.00100
C 	C 	0.78850 0.84700 0.04360 -0.43000
H 	H 	0.81960 0.82350 0.00190 0.16400
H 	H 	0.81920 0.88690 0.07210 0.16000
C 	C 	0.76700 0.77950 0.09980 0.41700
C 	C 	0.64530 0.49680 0.71450 0.00400
H 	H 	0.67830 0.53000 0.74340 0.01500
C 	C 	0.57830 0.52200 0.68430 -0.01400
H 	H 	0.55680 0.57430 0.68860 0.03900
C 	C 	0.59800 0.39230 0.65400 0.07800
H 	H 	0.59140 0.33980 0.63250 -0.00000
C 	C 	0.47700 0.45130 0.60280 -0.05600
H 	H 	0.44450 0.49560 0.62120 0.04900
H 	H 	0.45200 0.39930 0.61440 0.04900
C 	C 	0.48760 0.45920 0.51310 -0.09500
H 	H 	0.52440 0.41850 0.49590 0.06000
H 	H 	0.44000 0.44630 0.48720 0.05400
C 	C 	0.84880 0.50390 0.74460 0.00200
H 	H 	0.81800 0.53370 0.71010 0.01500
C 	C 	0.90580 0.53590 0.78740 -0.01300
H 	H 	0.92110 0.59090 0.78810 0.03900
C 	C 	0.89740 0.40430 0.81090 0.07500
H 	H 	0.90700 0.35200 0.83160 0.00200
C 	C 	0.99790 0.47800 0.88810 -0.04700
H 	H 	0.03330 0.52080 0.87240 0.04900
H 	H 	0.02490 0.42580 0.88920 0.04700
C 	C 	0.96860 0.49680 0.96980 -0.10600
H 	H 	0.93390 0.45350 0.98590 0.06100
H 	H 	0.94090 0.54850 0.96850 0.06000
N 	N 	0.65740 0.41550 0.69650 -0.24000
N 	N 	0.54880 0.45450 0.64620 -0.11300
N 	N 	0.84300 0.42140 0.75920 -0.24100
N 	N 	0.93690 0.47310 0.82930 -0.11400
O 	O 	0.69210 0.26850 0.82970 -0.42400
O 	O 	0.80690 0.22540 0.81310 -0.39500
O 	O 	0.81760 0.72750 0.11710 -0.43100
O 	O 	0.70430 0.77660 0.13270 -0.39600
Cd	Cd	0.75416 0.67057 0.22339 1.21600
C 	C 	0.74530 0.77940 0.34760 0.40200
C 	C 	0.72790 0.84560 0.40990 -0.39100
H 	H 	0.69900 0.82030 0.45240 0.15300
H 	H 	0.69620 0.88740 0.38560 0.14900
C 	C 	0.79560 0.88780 0.44590 0.06300
H 	H 	0.82390 0.84800 0.47710 0.01000
H 	H 	0.82830 0.90740 0.40360 0.01700
C 	C 	0.77400 0.96020 0.49850 -0.12500
H 	H 	0.81740 0.97540 0.53050 0.05800
H 	H 	0.73430 0.94250 0.53440 0.05100
C 	C 	0.74720 0.03520 0.45420 -0.17900
H 	H 	0.78740 0.05340 0.41910 0.07000
H 	H 	0.70470 0.01950 0.42120 0.07400
C 	C 	0.72350 0.10810 0.50590 0.11300
H 	H 	0.69010 0.08820 0.54740 0.00100
H 	H 	0.69510 0.14690 0.47360 -0.00500
C 	C 	0.78850 0.15300 0.54360 -0.44000
H 	H 	0.81960 0.17650 0.50190 0.16700
H 	H 	0.81920 0.11310 0.57210 0.16300
C 	C 	0.76700 0.22050 0.59980 0.42000
C 	C 	0.64530 0.50320 0.21450 0.00400
H 	H 	0.67830 0.47000 0.24340 0.01500
C 	C 	0.57830 0.47800 0.18430 -0.01400
H 	H 	0.55680 0.42570 0.18860 0.03900
C 	C 	0.59800 0.60770 0.15400 0.07800
H 	H 	0.59140 0.66020 0.13250 -0.00000
C 	C 	0.47700 0.54870 0.10280 -0.05600
H 	H 	0.44450 0.50440 0.12120 0.04900
H 	H 	0.45200 0.60070 0.11440 0.04900
C 	C 	0.48760 0.54080 0.01310 -0.09600
H 	H 	0.52440 0.58150 0.99590 0.06000
H 	H 	0.44000 0.55370 0.98720 0.05400
C 	C 	0.84880 0.49610 0.24460 0.00200
H 	H 	0.81800 0.46630 0.21010 0.01500
C 	C 	0.90580 0.46410 0.28740 -0.01300
H 	H 	0.92110 0.40910 0.28810 0.03900
C 	C 	0.89740 0.59570 0.31090 0.07400
H 	H 	0.90700 0.64800 0.33160 0.00100
C 	C 	0.99790 0.52200 0.38810 -0.05300
H 	H 	0.03330 0.47920 0.37240 0.05200
H 	H 	0.02490 0.57420 0.38920 0.05000
C 	C 	0.96860 0.50320 0.46980 -0.10400
H 	H 	0.93390 0.54650 0.48590 0.06000
H 	H 	0.94090 0.45150 0.46850 0.05900
N 	N 	0.65740 0.58450 0.19650 -0.24000
N 	N 	0.54880 0.54550 0.14620 -0.11300
N 	N 	0.84300 0.57860 0.25920 -0.24100
N 	N 	0.93690 0.52690 0.32930 -0.11400
O 	O 	0.69210 0.73150 0.32970 -0.42300
O 	O 	0.80690 0.77460 0.31310 -0.39400
O 	O 	0.81760 0.27250 0.61710 -0.43200
O 	O 	0.70430 0.22340 0.63270 -0.39700
Cd	Cd	0.24584 0.67057 0.27661 1.21600
C 	C 	0.25470 0.77940 0.15240 0.40300
C 	C 	0.27210 0.84560 0.09010 -0.39600
H 	H 	0.30100 0.82030 0.04760 0.15500
H 	H 	0.30380 0.88740 0.11440 0.15100
C 	C 	0.20440 0.88780 0.05410 0.07200
H 	H 	0.17610 0.84800 0.02290 0.00800
H 	H 	0.17170 0.90740 0.09640 0.01400
C 	C 	0.22600 0.96020 0.00150 -0.13900
H 	H 	0.18260 0.97540 0.96950 0.06300
H 	H 	0.26570 0.94250 0.96560 0.05500
C 	C 	0.25280 0.03520 0.04580 -0.16200
H 	H 	0.21260 0.05340 0.08090 0.06600
H 	H 	0.29530 0.01950 0.07880 0.07000
C 	C 	0.27650 0.10810 0.99410 0.09700
H 	H 	0.30990 0.08820 0.95260 0.00500
H 	H 	0.30490 0.14690 0.02640 0.00100
C 	C 	0.21150 0.15300 0.95640 -0.43000
H 	H 	0.18040 0.17650 0.99810 0.16400
H 	H 	0.18080 0.11310 0.92790 0.16000
C 	C 	0.23300 0.22050 0.90020 0.41700
C 	C 	0.35470 0.50320 0.28550 0.00400
H 	H 	0.32170 0.47000 0.25660 0.01500
C 	C 	0.42170 0.47800 0.31570 -0.01400
H 	H 	0.44320 0.42570 0.31140 0.03900
C 	C 	0.40200 0.60770 0.34600 0.07800
H 	H 	0.40860 0.66020 0.36750 -0.00000
C 	C 	0.52300 0.54870 0.39720 -0.05600
H 	H 	0.55550 0.50440 0.37880 0.04900
H 	H 	0.54800 0.60070 0.38560 0.04900
C 	C 	0.51240 0.54080 0.48690 -0.09500
H 	H 	0.47560 0.58150 0.50410 0.06000
H 	H 	0.56000 0.55370 0.51280 0.05400
C 	C 	0.15120 0.49610 0.25540 0.00200
H 	H 	0.18200 0.46630 0.28990 0.01500
C 	C 	0.09420 0.46410 0.21260 -0.01300
H 	H 	0.07890 0.40910 0.21190 0.03900
C 	C 	0.10260 0.59570 0.18910 0.07500
H 	H 	0.09300 0.64800 0.16840 0.00200
C 	C 	0.00210 0.52200 0.11190 -0.04700
H 	H 	0.96670 0.47920 0.12760 0.04900
H 	H 	0.97510 0.57420 0.11080 0.04700
C 	C 	0.03140 0.50320 0.03020 -0.10600
H 	H 	0.06610 0.54650 0.01410 0.06100
H 	H 	0.05910 0.45150 0.03150 0.06000
N 	N 	0.34260 0.58450 0.30350 -0.24000
N 	N 	0.45120 0.54550 0.35380 -0.11300
N 	N 	0.15700 0.57860 0.24080 -0.24100
N 	N 	0.06310 0.52690 0.17070 -0.11400
O 	O 	0.30790 0.73150 0.17030 -0.42400
O 	O 	0.19310 0.77460 0.18690 -0.39500
O 	O 	0.18240 0.27250 0.88290 -0.43100
O 	O 	0.29570 0.22340 0.86730 -0.39600
