data_crystal

_cell_length_a 8.35190
_cell_length_b 10.87570
_cell_length_c 18.00600
_cell_angle_alpha 106.75300
_cell_angle_beta  91.98000
_cell_angle_gamma 94.34500

_symmetry_space_group_name_	'P 1'
_symmetry_space_group_name_H-M	'P 1'

loop_
_symmetry_equiv_pos_as_xyz
  x,y,z

loop_
_atom_site_label
_atom_site_type_symbol
_atom_site_fract_x
_atom_site_fract_y
_atom_site_fract_z
_atom_site_charge
Cd	Cd	0.49953 0.00126 0.24389 1.13300
C 	C 	0.61030 0.79240 0.08370 -0.00200
H 	H 	0.58230 0.72220 0.10180 -0.01300
C 	C 	0.68380 0.78650 0.01660 -0.01900
H 	H 	0.71560 0.71320 0.98110 0.01300
C 	C 	0.64170 0.98250 0.07630 0.09000
H 	H 	0.64160 0.07160 0.08810 -0.05000
C 	C 	0.78260 0.95340 0.95290 -0.02600
H 	H 	0.74650 0.03610 0.95290 0.00700
H 	H 	0.75250 0.89290 0.90220 -0.01100
C 	C 	0.95970 0.96690 0.96530 -0.10100
H 	H 	0.99310 0.88010 0.95200 0.04300
H 	H 	0.00140 0.00540 0.92680 0.04000
C 	C 	0.50250 0.09520 0.43430 -0.00900
H 	H 	0.56640 0.03040 0.43770 0.00600
C 	C 	0.46430 0.19200 0.49560 -0.01200
H 	H 	0.49670 0.20640 0.54760 0.02000
C 	C 	0.35420 0.20920 0.38790 0.07100
H 	H 	0.29530 0.24000 0.35340 -0.04600
C 	C 	0.31390 0.38750 0.50650 -0.04400
H 	H 	0.25850 0.37900 0.55150 0.03200
H 	H 	0.23800 0.41290 0.47290 0.03000
C 	C 	0.45240 0.49100 0.53280 -0.09500
H 	H 	0.41050 0.57200 0.55920 0.04200
H 	H 	0.52320 0.46870 0.56980 0.04500
C 	C 	0.69710 0.78240 0.29880 0.00200
H 	H 	0.61290 0.71840 0.28050 -0.01500
C 	C 	0.83660 0.76740 0.33480 -0.01900
H 	H 	0.86520 0.69320 0.34580 0.02000
C 	C 	0.84160 0.96100 0.32540 0.07900
H 	H 	0.87750 0.04570 0.32890 -0.04400
C 	C 	0.07800 0.91800 0.39860 -0.03400
H 	H 	0.14300 0.84540 0.38600 0.01600
H 	H 	0.13640 0.98900 0.38570 0.02000
C 	C 	0.05370 0.95570 0.48140 -0.09700
H 	H 	0.02380 0.87650 0.49400 0.05400
H 	H 	0.15870 0.98820 0.50720 0.05600
N 	N 	0.58420 0.91580 0.12010 -0.27400
N 	N 	0.70110 0.90870 0.01210 -0.12800
N 	N 	0.43430 0.10610 0.36720 -0.27100
N 	N 	0.36810 0.26460 0.46540 -0.12000
N 	N 	0.69870 0.90400 0.29330 -0.26000
N 	N 	0.92610 0.88260 0.35160 -0.12800
Cd	Cd	0.50047 0.99874 0.75611 1.13200
C 	C 	0.38970 0.20760 0.91630 -0.00300
H 	H 	0.41770 0.27780 0.89820 -0.01300
C 	C 	0.31620 0.21350 0.98340 -0.01900
H 	H 	0.28440 0.28680 0.01890 0.01300
C 	C 	0.35830 0.01750 0.92370 0.09000
H 	H 	0.35840 0.92840 0.91190 -0.05000
C 	C 	0.21740 0.04660 0.04710 -0.02600
H 	H 	0.25350 0.96390 0.04710 0.00700
H 	H 	0.24750 0.10710 0.09780 -0.01100
C 	C 	0.04030 0.03310 0.03470 -0.10100
H 	H 	0.00690 0.11990 0.04800 0.04300
H 	H 	0.99860 0.99460 0.07320 0.04000
C 	C 	0.49750 0.90480 0.56570 -0.00900
H 	H 	0.43360 0.96960 0.56230 0.00600
C 	C 	0.53570 0.80800 0.50440 -0.01200
H 	H 	0.50330 0.79360 0.45240 0.02000
C 	C 	0.64580 0.79080 0.61210 0.07100
H 	H 	0.70470 0.76000 0.64660 -0.04600
C 	C 	0.68610 0.61250 0.49350 -0.04400
H 	H 	0.74150 0.62100 0.44850 0.03200
H 	H 	0.76200 0.58710 0.52710 0.03000
C 	C 	0.54760 0.50900 0.46720 -0.09500
H 	H 	0.58950 0.42800 0.44080 0.04200
H 	H 	0.47680 0.53130 0.43020 0.04500
C 	C 	0.30290 0.21760 0.70120 0.00200
H 	H 	0.38710 0.28160 0.71950 -0.01500
C 	C 	0.16340 0.23260 0.66520 -0.01900
H 	H 	0.13480 0.30680 0.65420 0.02000
C 	C 	0.15840 0.03900 0.67460 0.07900
H 	H 	0.12250 0.95430 0.67110 -0.04400
C 	C 	0.92200 0.08200 0.60140 -0.03400
H 	H 	0.85700 0.15460 0.61400 0.01600
H 	H 	0.86360 0.01100 0.61430 0.02000
C 	C 	0.94630 0.04430 0.51860 -0.09700
H 	H 	0.97620 0.12350 0.50600 0.05400
H 	H 	0.84130 0.01180 0.49280 0.05600
N 	N 	0.41580 0.08420 0.87990 -0.27400
N 	N 	0.29890 0.09130 0.98790 -0.12800
N 	N 	0.56570 0.89390 0.63280 -0.27100
N 	N 	0.63190 0.73540 0.53460 -0.12000
N 	N 	0.30130 0.09600 0.70670 -0.26000
N 	N 	0.07390 0.11740 0.64840 -0.12800
