data_crystal

_cell_length_a 12.32800
_cell_length_b 21.57900
_cell_length_c 26.02400
_cell_angle_alpha 90.00000
_cell_angle_beta  99.54000
_cell_angle_gamma 90.00000

_symmetry_space_group_name_	'P 1'
_symmetry_space_group_name_H-M	'P 1'

loop_
_symmetry_equiv_pos_as_xyz
  x,y,z

loop_
_atom_site_label
_atom_site_type_symbol
_atom_site_fract_x
_atom_site_fract_y
_atom_site_fract_z
_atom_site_charge
Mo	Mo	0.06871 0.35793 0.40481 1.05000
Mo	Mo	0.95489 0.26301 0.42492 1.10200
Mo	Mo	0.42887 0.23176 0.39479 1.08700
Mo	Mo	0.28359 0.10438 0.42424 1.07600
Mo	Mo	0.34151 0.34050 0.38950 1.08400
Mo	Mo	0.07998 0.11745 0.43675 1.05700
Co	Co	0.14812 0.56524 0.29301 1.16500
P 	P 	0.14909 0.22611 0.35137 0.52100
P 	P 	0.41394 0.10469 0.32182 0.53100
P 	P 	0.85306 0.14406 0.35311 0.54900
P 	P 	0.16882 0.41451 0.30056 0.53900
O 	O 	0.14240 0.36814 0.25642 -0.37300
O 	O 	0.16890 0.47785 0.27618 -0.52600
O 	O 	0.28180 0.40053 0.33119 -0.41400
O 	O 	0.74090 0.11076 0.34828 -0.43700
O 	O 	0.50490 0.06009 0.31423 -0.53200
O 	O 	0.08170 0.40984 0.33831 -0.50700
O 	O 	0.88690 0.15561 0.30092 -0.39800
O 	O 	0.14500 0.07728 0.38325 -0.54400
O 	O 	0.94970 0.31326 0.36257 -0.49800
O 	O 	0.10160 0.21936 0.29429 -0.42900
O 	O 	0.99020 0.18385 0.47165 -0.44300
O 	O 	0.38320 0.28733 0.33648 -0.47500
O 	O 	0.06710 0.20248 0.38614 -0.47500
O 	O 	0.35020 0.27564 0.44412 -0.60900
O 	O 	0.17460 0.29536 0.36503 -0.43800
O 	O 	0.84130 0.20529 0.38227 -0.40100
O 	O 	0.25690 0.18962 0.36786 -0.41000
O 	O 	0.35300 0.07451 0.36254 -0.45300
O 	O 	0.21520 0.16134 0.46959 -0.62100
O 	O 	0.46150 0.16881 0.33999 -0.39500
O 	O 	0.23190 0.38611 0.43020 -0.48900
O 	O 	0.93460 0.10102 0.38869 -0.39800
O 	O 	0.09870 0.29444 0.45923 -0.62600
O 	O 	0.42280 0.15595 0.44214 -0.49900
O 	O 	0.33440 0.11306 0.27031 -0.42300
Na	Na	0.90980 0.45632 0.31410 0.57300
Mo	Mo	0.56871 0.85793 0.40481 1.06600
Mo	Mo	0.45489 0.76301 0.42492 1.07600
Mo	Mo	0.92887 0.73176 0.39479 1.09400
Mo	Mo	0.78359 0.60438 0.42424 1.07900
Mo	Mo	0.84151 0.84050 0.38950 1.08900
Mo	Mo	0.57998 0.61745 0.43675 1.08000
Co	Co	0.64812 0.06524 0.29301 1.17100
P 	P 	0.64909 0.72611 0.35137 0.52200
P 	P 	0.91394 0.60469 0.32182 0.57200
P 	P 	0.35306 0.64406 0.35311 0.54800
P 	P 	0.66882 0.91451 0.30056 0.54000
O 	O 	0.64240 0.86814 0.25642 -0.35700
O 	O 	0.66890 0.97785 0.27618 -0.51400
O 	O 	0.78180 0.90053 0.33119 -0.40600
O 	O 	0.24090 0.61076 0.34828 -0.44900
O 	O 	0.00490 0.56009 0.31423 -0.58400
O 	O 	0.58170 0.90984 0.33831 -0.48800
O 	O 	0.38690 0.65561 0.30092 -0.42200
O 	O 	0.64500 0.57728 0.38325 -0.52700
O 	O 	0.44970 0.81326 0.36257 -0.53600
O 	O 	0.60160 0.71936 0.29429 -0.41300
O 	O 	0.49020 0.68385 0.47165 -0.48500
O 	O 	0.88320 0.78733 0.33648 -0.46300
O 	O 	0.56710 0.70248 0.38614 -0.44600
O 	O 	0.85020 0.77564 0.44412 -0.60000
O 	O 	0.67460 0.79536 0.36503 -0.43300
O 	O 	0.34130 0.70529 0.38227 -0.41500
O 	O 	0.75690 0.68962 0.36786 -0.41100
O 	O 	0.85300 0.57451 0.36254 -0.44500
O 	O 	0.71520 0.66134 0.46959 -0.61500
O 	O 	0.96150 0.66881 0.33999 -0.38100
O 	O 	0.73190 0.88611 0.43020 -0.48100
O 	O 	0.43460 0.60102 0.38869 -0.42700
O 	O 	0.59870 0.79444 0.45923 -0.60600
O 	O 	0.92280 0.65595 0.44214 -0.48600
O 	O 	0.83440 0.61306 0.27031 -0.41900
Na	Na	0.40980 0.95632 0.31410 0.56600
Mo	Mo	0.93129 0.35793 0.09519 1.08200
Mo	Mo	0.04511 0.26301 0.07508 1.05200
Mo	Mo	0.57113 0.23176 0.10521 1.08300
Mo	Mo	0.71641 0.10438 0.07576 1.07300
Mo	Mo	0.65849 0.34050 0.11050 1.08000
Mo	Mo	0.92002 0.11745 0.06325 1.09800
Co	Co	0.85188 0.56524 0.20699 1.17500
P 	P 	0.85091 0.22611 0.14863 0.52200
P 	P 	0.58606 0.10469 0.17818 0.53100
P 	P 	0.14694 0.14406 0.14689 0.54700
P 	P 	0.83118 0.41451 0.19944 0.54000
O 	O 	0.85760 0.36814 0.24358 -0.34400
O 	O 	0.83110 0.47785 0.22382 -0.50900
O 	O 	0.71820 0.40053 0.16881 -0.41500
O 	O 	0.25910 0.11076 0.15172 -0.44600
O 	O 	0.49510 0.06009 0.18577 -0.53400
O 	O 	0.91830 0.40984 0.16169 -0.47000
O 	O 	0.11310 0.15561 0.19908 -0.43400
O 	O 	0.85500 0.07728 0.11675 -0.51500
O 	O 	0.05030 0.31326 0.13743 -0.56800
O 	O 	0.89840 0.21936 0.20571 -0.38900
O 	O 	0.00980 0.18385 0.02835 -0.53600
O 	O 	0.61680 0.28733 0.16352 -0.47600
O 	O 	0.93290 0.20248 0.11386 -0.41600
O 	O 	0.64980 0.27564 0.05588 -0.62300
O 	O 	0.82540 0.29536 0.13497 -0.42600
O 	O 	0.15870 0.20529 0.11773 -0.41900
O 	O 	0.74310 0.18962 0.13214 -0.40800
O 	O 	0.64700 0.07451 0.13746 -0.45100
O 	O 	0.78480 0.16134 0.03041 -0.62400
O 	O 	0.53850 0.16881 0.16001 -0.39700
O 	O 	0.76810 0.38611 0.06980 -0.49500
O 	O 	0.06540 0.10102 0.11131 -0.45700
O 	O 	0.90130 0.29444 0.04077 -0.59800
O 	O 	0.57720 0.15595 0.05786 -0.51400
O 	O 	0.66560 0.11306 0.22969 -0.41800
Na	Na	0.09020 0.45632 0.18590 0.56000
Mo	Mo	0.43129 0.85793 0.09519 1.06400
Mo	Mo	0.54511 0.76301 0.07508 1.07600
Mo	Mo	0.07113 0.73176 0.10521 1.07500
Mo	Mo	0.21641 0.60438 0.07576 1.07000
Mo	Mo	0.15849 0.84050 0.11050 1.07500
Mo	Mo	0.42002 0.61745 0.06325 1.07500
Co	Co	0.35188 0.06524 0.20699 1.16900
P 	P 	0.35091 0.72611 0.14863 0.52200
P 	P 	0.08606 0.60469 0.17818 0.49100
P 	P 	0.64694 0.64406 0.14689 0.54900
P 	P 	0.33118 0.91451 0.19944 0.54000
O 	O 	0.35760 0.86814 0.24358 -0.36300
O 	O 	0.33110 0.97785 0.22382 -0.52200
O 	O 	0.21820 0.90053 0.16881 -0.42300
O 	O 	0.75910 0.61076 0.15172 -0.43500
O 	O 	0.99510 0.56009 0.18577 -0.48300
O 	O 	0.41830 0.90984 0.16169 -0.49000
O 	O 	0.61310 0.65561 0.19908 -0.42000
O 	O 	0.35500 0.57728 0.11675 -0.53400
O 	O 	0.55030 0.81326 0.13743 -0.53200
O 	O 	0.39840 0.71936 0.20571 -0.41500
O 	O 	0.50980 0.68385 0.02835 -0.49500
O 	O 	0.11680 0.78733 0.16352 -0.48800
O 	O 	0.43290 0.70248 0.11386 -0.44600
O 	O 	0.14980 0.77564 0.05588 -0.63100
O 	O 	0.32540 0.79536 0.13497 -0.43100
O 	O 	0.65870 0.70529 0.11773 -0.40500
O 	O 	0.24310 0.68962 0.13214 -0.40800
O 	O 	0.14700 0.57451 0.13746 -0.45900
O 	O 	0.28480 0.66134 0.03041 -0.63000
O 	O 	0.03850 0.66881 0.16001 -0.41100
O 	O 	0.26810 0.88611 0.06980 -0.50200
O 	O 	0.56540 0.60102 0.11131 -0.43000
O 	O 	0.40130 0.79444 0.04077 -0.61800
O 	O 	0.07720 0.65595 0.05786 -0.52700
O 	O 	0.16560 0.61306 0.22969 -0.42400
Na	Na	0.59020 0.95632 0.18590 0.56700
Mo	Mo	0.93129 0.64207 0.59519 1.08500
Mo	Mo	0.04511 0.73699 0.57508 1.05500
Mo	Mo	0.57113 0.76824 0.60521 1.08500
Mo	Mo	0.71641 0.89562 0.57576 1.07700
Mo	Mo	0.65849 0.65950 0.61050 1.08300
Mo	Mo	0.92002 0.88255 0.56325 1.10300
Co	Co	0.85188 0.43476 0.70699 1.17600
P 	P 	0.85091 0.77389 0.64863 0.52100
P 	P 	0.58606 0.89531 0.67818 0.53100
P 	P 	0.14694 0.85594 0.64689 0.54600
P 	P 	0.83118 0.58549 0.69944 0.54000
O 	O 	0.85760 0.63186 0.74358 -0.34400
O 	O 	0.83110 0.52215 0.72382 -0.50800
O 	O 	0.71820 0.59947 0.66881 -0.41300
O 	O 	0.25910 0.88924 0.65172 -0.44200
O 	O 	0.49510 0.93991 0.68577 -0.53300
O 	O 	0.91830 0.59016 0.66169 -0.46800
O 	O 	0.11310 0.84439 0.69908 -0.43400
O 	O 	0.85500 0.92272 0.61675 -0.51200
O 	O 	0.05030 0.68674 0.63743 -0.56600
O 	O 	0.89840 0.78064 0.70571 -0.38900
O 	O 	0.00980 0.81615 0.52835 -0.52300
O 	O 	0.61680 0.71267 0.66352 -0.47500
O 	O 	0.93290 0.79752 0.61386 -0.41600
O 	O 	0.64980 0.72436 0.55588 -0.61100
O 	O 	0.82540 0.70464 0.63497 -0.42600
O 	O 	0.15870 0.79471 0.61773 -0.41500
O 	O 	0.74310 0.81038 0.63214 -0.40900
O 	O 	0.64700 0.92549 0.63746 -0.44800
O 	O 	0.78480 0.83866 0.53041 -0.61100
O 	O 	0.53850 0.83119 0.66001 -0.39600
O 	O 	0.76810 0.61389 0.56980 -0.48300
O 	O 	0.06540 0.89898 0.61131 -0.45400
O 	O 	0.90130 0.70556 0.54077 -0.58500
O 	O 	0.57720 0.84405 0.55786 -0.50200
O 	O 	0.66560 0.88694 0.72969 -0.41800
Na	Na	0.09020 0.54368 0.68590 0.56000
Mo	Mo	0.43129 0.14207 0.59519 1.06700
Mo	Mo	0.54511 0.23699 0.57508 1.08000
Mo	Mo	0.07113 0.26824 0.60521 1.07800
Mo	Mo	0.21641 0.39562 0.57576 1.07400
Mo	Mo	0.15849 0.15950 0.61050 1.07800
Mo	Mo	0.42002 0.38255 0.56325 1.08000
Co	Co	0.35188 0.93476 0.70699 1.16900
P 	P 	0.35091 0.27389 0.64863 0.52100
P 	P 	0.08606 0.39531 0.67818 0.49100
P 	P 	0.64694 0.35594 0.64689 0.54800
P 	P 	0.33118 0.08549 0.69944 0.54000
O 	O 	0.35760 0.13186 0.74358 -0.36300
O 	O 	0.33110 0.02215 0.72382 -0.52000
O 	O 	0.21820 0.09947 0.66881 -0.42100
O 	O 	0.75910 0.38924 0.65172 -0.43100
O 	O 	0.99510 0.43991 0.68577 -0.48100
O 	O 	0.41830 0.09016 0.66169 -0.48800
O 	O 	0.61310 0.34439 0.69908 -0.41900
O 	O 	0.35500 0.42272 0.61675 -0.53100
O 	O 	0.55030 0.18674 0.63743 -0.53000
O 	O 	0.39840 0.28064 0.70571 -0.41500
O 	O 	0.50980 0.31615 0.52835 -0.48100
O 	O 	0.11680 0.21267 0.66352 -0.48600
O 	O 	0.43290 0.29752 0.61386 -0.44600
O 	O 	0.14980 0.22436 0.55588 -0.62000
O 	O 	0.32540 0.20464 0.63497 -0.43200
O 	O 	0.65870 0.29471 0.61773 -0.40100
O 	O 	0.24310 0.31038 0.63214 -0.40800
O 	O 	0.14700 0.42549 0.63746 -0.45600
O 	O 	0.28480 0.33866 0.53041 -0.61700
O 	O 	0.03850 0.33119 0.66001 -0.41000
O 	O 	0.26810 0.11389 0.56980 -0.49100
O 	O 	0.56540 0.39898 0.61131 -0.42600
O 	O 	0.40130 0.20556 0.54077 -0.60500
O 	O 	0.07720 0.34405 0.55786 -0.51500
O 	O 	0.16560 0.38694 0.72969 -0.42400
Na	Na	0.59020 0.04368 0.68590 0.56700
Mo	Mo	0.06871 0.64207 0.90481 1.05200
Mo	Mo	0.95489 0.73699 0.92492 1.10400
Mo	Mo	0.42887 0.76824 0.89479 1.09000
Mo	Mo	0.28359 0.89562 0.92424 1.08000
Mo	Mo	0.34151 0.65950 0.88950 1.08700
Mo	Mo	0.07998 0.88255 0.93675 1.06200
Co	Co	0.14812 0.43476 0.79301 1.16500
P 	P 	0.14909 0.77389 0.85137 0.52100
P 	P 	0.41394 0.89531 0.82182 0.53100
P 	P 	0.85306 0.85594 0.85311 0.54900
P 	P 	0.16882 0.58549 0.80056 0.53900
O 	O 	0.14240 0.63186 0.75642 -0.37200
O 	O 	0.16890 0.52215 0.77618 -0.52500
O 	O 	0.28180 0.59947 0.83119 -0.41200
O 	O 	0.74090 0.88924 0.84828 -0.43400
O 	O 	0.50490 0.93991 0.81423 -0.53100
O 	O 	0.08170 0.59016 0.83831 -0.50600
O 	O 	0.88690 0.84439 0.80092 -0.39800
O 	O 	0.14500 0.92272 0.88325 -0.54100
O 	O 	0.94970 0.68674 0.86257 -0.49600
O 	O 	0.10160 0.78064 0.79429 -0.42900
O 	O 	0.99020 0.81615 0.97165 -0.42900
O 	O 	0.38320 0.71267 0.83648 -0.47300
O 	O 	0.06710 0.79752 0.88614 -0.47500
O 	O 	0.35020 0.72436 0.94412 -0.59200
O 	O 	0.17460 0.70464 0.86503 -0.43800
O 	O 	0.84130 0.79471 0.88227 -0.39700
O 	O 	0.25690 0.81038 0.86786 -0.41000
O 	O 	0.35300 0.92549 0.86254 -0.45000
O 	O 	0.21520 0.83866 0.96959 -0.60300
O 	O 	0.46150 0.83119 0.83999 -0.39300
O 	O 	0.23190 0.61389 0.93020 -0.47600
O 	O 	0.93460 0.89898 0.88869 -0.39500
O 	O 	0.09870 0.70556 0.95923 -0.60800
O 	O 	0.42280 0.84405 0.94214 -0.48700
O 	O 	0.33440 0.88694 0.77031 -0.42300
Na	Na	0.90980 0.54368 0.81410 0.57400
Mo	Mo	0.56871 0.14207 0.90481 1.06900
Mo	Mo	0.45489 0.23699 0.92492 1.08000
Mo	Mo	0.92887 0.26824 0.89479 1.09700
Mo	Mo	0.78359 0.39562 0.92424 1.08300
Mo	Mo	0.84151 0.15950 0.88950 1.09200
Mo	Mo	0.57998 0.38255 0.93675 1.08500
Co	Co	0.64812 0.93476 0.79301 1.17200
P 	P 	0.64909 0.27389 0.85137 0.52200
P 	P 	0.91394 0.39531 0.82182 0.57100
P 	P 	0.35306 0.35594 0.85311 0.54800
P 	P 	0.66882 0.08549 0.80056 0.53900
O 	O 	0.64240 0.13186 0.75642 -0.35600
O 	O 	0.66890 0.02215 0.77618 -0.51200
O 	O 	0.78180 0.09947 0.83119 -0.40300
O 	O 	0.24090 0.38924 0.84828 -0.44600
O 	O 	0.00490 0.43991 0.81423 -0.58200
O 	O 	0.58170 0.09016 0.83831 -0.48700
O 	O 	0.38690 0.34439 0.80092 -0.42200
O 	O 	0.64500 0.42272 0.88325 -0.52400
O 	O 	0.44970 0.18674 0.86257 -0.53400
O 	O 	0.60160 0.28064 0.79429 -0.41400
O 	O 	0.49020 0.31615 0.97165 -0.47000
O 	O 	0.88320 0.21267 0.83648 -0.46200
O 	O 	0.56710 0.29752 0.88614 -0.44700
O 	O 	0.85020 0.22436 0.94412 -0.58300
O 	O 	0.67460 0.20464 0.86503 -0.43300
O 	O 	0.34130 0.29471 0.88227 -0.41100
O 	O 	0.75690 0.31038 0.86786 -0.41100
O 	O 	0.85300 0.42549 0.86254 -0.44200
O 	O 	0.71520 0.33866 0.96959 -0.59700
O 	O 	0.96150 0.33119 0.83999 -0.37900
O 	O 	0.73190 0.11389 0.93020 -0.46900
O 	O 	0.43460 0.39898 0.88869 -0.42300
O 	O 	0.59870 0.20556 0.95923 -0.58900
O 	O 	0.92280 0.34405 0.94214 -0.47300
O 	O 	0.83440 0.38694 0.77031 -0.41800
Na	Na	0.40980 0.04368 0.81410 0.56600
Co	Co	0.25000 0.25000 0.50000 1.19900
Co	Co	0.75000 0.25000 -0.00000 1.18200
Co	Co	0.75000 0.75000 0.50000 1.20000
Co	Co	0.25000 0.75000 -0.00000 1.18100
Co	Co	0.00000 0.15273 0.25000 1.11400
Na	Na	0.00000 0.30560 0.25000 0.58400
Co	Co	0.50000 0.65273 0.25000 1.13800
Na	Na	0.50000 0.80560 0.25000 0.59200
Co	Co	0.00000 0.84727 0.75000 1.11400
Na	Na	0.00000 0.69440 0.75000 0.58300
Co	Co	0.50000 0.34727 0.75000 1.13900
Na	Na	0.50000 0.19440 0.75000 0.59200
