data_crystal

_cell_length_a 18.31390
_cell_length_b 18.31390
_cell_length_c 21.68530
_cell_angle_alpha 110.38300
_cell_angle_beta  110.38300
_cell_angle_gamma 100.09000

_symmetry_space_group_name_	'P 1'
_symmetry_space_group_name_H-M	'P 1'

loop_
_symmetry_equiv_pos_as_xyz
  x,y,z

loop_
_atom_site_label
_atom_site_type_symbol
_atom_site_fract_x
_atom_site_fract_y
_atom_site_fract_z
_atom_site_charge
La	La	0.14669 0.39669 0.75000 1.73600
La	La	0.60331 0.85331 0.75000 1.73600
La	La	0.85331 0.60331 0.25000 1.73600
La	La	0.39669 0.14669 0.25000 1.73600
Co	Co	0.64138 0.35862 0.75000 1.17000
Co	Co	0.10862 0.89138 0.75000 1.17100
Co	Co	0.35862 0.64138 0.25000 1.17000
Co	Co	0.89138 0.10862 0.25000 1.17100
H 	H 	0.82090 0.41090 0.86260 0.00700
H 	H 	0.94450 0.41070 0.85700 0.07800
H 	H 	0.82700 0.32500 0.63800 0.07300
H 	H 	0.70730 0.30170 0.54500 0.06700
H 	H 	0.46290 0.26390 0.48480 0.07400
H 	H 	0.48870 0.30310 0.60640 0.01100
H 	H 	0.00880 0.75940 0.77320 0.00700
H 	H 	0.01820 0.63500 0.77360 0.07500
H 	H 	0.22920 0.67760 0.75040 0.08100
H 	H 	0.04170 0.95170 0.86260 0.00900
H 	H 	0.91250 0.94630 0.85700 0.07700
H 	H 	0.81100 0.81300 0.63800 0.07300
H 	H 	0.83770 0.74330 0.54500 0.06700
H 	H 	0.02190 0.72090 0.48480 0.07400
H 	H 	0.11770 0.80330 0.60640 0.01200
H 	H 	0.76440 0.51380 0.77320 0.00700
H 	H 	0.75540 0.63860 0.77360 0.07500
H 	H 	0.52120 0.57280 0.75040 0.08100
H 	H 	0.58910 0.17910 0.63740 0.00700
H 	H 	0.58930 0.05550 0.64300 0.07800
H 	H 	0.67500 0.17300 0.86200 0.07300
H 	H 	0.69830 0.29270 0.95500 0.06700
H 	H 	0.73610 0.53710 0.01520 0.07400
H 	H 	0.69690 0.51130 0.89360 0.01100
H 	H 	0.24060 0.99120 0.72680 0.00700
H 	H 	0.36500 0.98180 0.72640 0.07500
H 	H 	0.32240 0.77080 0.74960 0.08100
H 	H 	0.04830 0.95830 0.63740 0.00800
H 	H 	0.05370 0.08750 0.64300 0.07700
H 	H 	0.18700 0.18900 0.86200 0.07300
H 	H 	0.25670 0.16230 0.95500 0.06700
H 	H 	0.27910 0.97810 0.01520 0.07200
H 	H 	0.19670 0.88230 0.89360 0.01200
H 	H 	0.48620 0.23560 0.72680 0.00700
H 	H 	0.36140 0.24460 0.72640 0.07500
H 	H 	0.42720 0.47880 0.74960 0.08100
H 	H 	0.17910 0.58910 0.13740 0.00700
H 	H 	0.05550 0.58930 0.14300 0.07800
H 	H 	0.17300 0.67500 0.36200 0.07300
H 	H 	0.29270 0.69830 0.45500 0.06700
H 	H 	0.53710 0.73610 0.51520 0.07400
H 	H 	0.51130 0.69690 0.39360 0.01100
H 	H 	0.99120 0.24060 0.22680 0.00700
H 	H 	0.98180 0.36500 0.22640 0.07500
H 	H 	0.77080 0.32240 0.24960 0.08100
H 	H 	0.95830 0.04830 0.13740 0.00900
H 	H 	0.08750 0.05370 0.14300 0.07700
H 	H 	0.18900 0.18700 0.36200 0.07300
H 	H 	0.16230 0.25670 0.45500 0.06700
H 	H 	0.97810 0.27910 0.51520 0.07400
H 	H 	0.88230 0.19670 0.39360 0.01200
H 	H 	0.23560 0.48620 0.22680 0.00700
H 	H 	0.24460 0.36140 0.22640 0.07500
H 	H 	0.47880 0.42720 0.24960 0.08100
H 	H 	0.41090 0.82090 0.36260 0.00700
H 	H 	0.41070 0.94450 0.35700 0.07800
H 	H 	0.32500 0.82700 0.13800 0.07300
H 	H 	0.30170 0.70730 0.04500 0.06700
H 	H 	0.26390 0.46290 0.98480 0.07400
H 	H 	0.30310 0.48870 0.10640 0.01100
H 	H 	0.75940 0.00880 0.27320 0.00700
H 	H 	0.63500 0.01820 0.27360 0.07500
H 	H 	0.67760 0.22920 0.25040 0.08100
H 	H 	0.95170 0.04170 0.36260 0.00800
H 	H 	0.94630 0.91250 0.35700 0.07700
H 	H 	0.81300 0.81100 0.13800 0.07300
H 	H 	0.74330 0.83770 0.04500 0.06700
H 	H 	0.72090 0.02190 0.98480 0.07200
H 	H 	0.80330 0.11770 0.10640 0.01200
H 	H 	0.51380 0.76440 0.27320 0.00700
H 	H 	0.63860 0.75540 0.27360 0.07500
H 	H 	0.57280 0.52120 0.25040 0.08100
C 	C 	0.82180 0.39280 0.81620 0.05800
C 	C 	0.89570 0.39290 0.81320 -0.07900
C 	C 	0.89860 0.36800 0.74880 -0.00700
C 	C 	0.82620 0.34260 0.68440 -0.07200
C 	C 	0.75284 0.34364 0.69028 0.04800
C 	C 	0.67320 0.32080 0.62840 0.03400
C 	C 	0.66180 0.30060 0.55660 -0.05500
C 	C 	0.58192 0.27872 0.50204 -0.03000
C 	C 	0.51760 0.27920 0.52120 -0.06400
C 	C 	0.53320 0.30180 0.59360 0.05200
C 	C 	0.97924 0.36644 0.74368 0.29800
C 	C 	0.56890 0.26050 0.42480 0.33200
C 	C 	0.05300 0.74220 0.76720 0.05900
C 	C 	0.05880 0.66840 0.76780 -0.07700
C 	C 	0.12340 0.64220 0.75960 -0.00300
C 	C 	0.18320 0.69260 0.75380 -0.06600
C 	C 	0.17430 0.76670 0.75320 0.04300
C 	C 	0.12920 0.55880 0.75680 0.29700
C 	C 	0.99440 0.92340 0.81620 0.05600
C 	C 	0.91750 0.92030 0.81320 -0.07800
C 	C 	0.85020 0.88080 0.74880 -0.00800
C 	C 	0.85820 0.84180 0.68440 -0.07200
C 	C 	0.93744 0.84664 0.69028 0.04700
C 	C 	0.95520 0.80760 0.62840 0.03300
C 	C 	0.89480 0.75600 0.55660 -0.05500
C 	C 	0.92012 0.72332 0.50204 -0.03100
C 	C 	0.00360 0.74200 0.52120 -0.06300
C 	C 	0.06040 0.79180 0.59360 0.05200
C 	C 	0.76444 0.87724 0.74368 0.29900
C 	C 	0.85590 0.66430 0.42480 0.33300
C 	C 	0.71420 0.52500 0.76720 0.05900
C 	C 	0.70900 0.59940 0.76780 -0.07700
C 	C 	0.63620 0.61740 0.75960 -0.00300
C 	C 	0.57060 0.56120 0.75380 -0.06600
C 	C 	0.57890 0.48650 0.75320 0.04300
C 	C 	0.62760 0.69800 0.75680 0.29700
C 	C 	0.60720 0.17820 0.68380 0.05800
C 	C 	0.60710 0.10430 0.68680 -0.07900
C 	C 	0.63200 0.10140 0.75120 -0.00700
C 	C 	0.65740 0.17380 0.81560 -0.07200
C 	C 	0.65636 0.24716 0.80972 0.04800
C 	C 	0.67920 0.32680 0.87160 0.03400
C 	C 	0.69940 0.33820 0.94340 -0.05500
C 	C 	0.72128 0.41808 0.99796 -0.03100
C 	C 	0.72080 0.48240 0.97880 -0.06400
C 	C 	0.69820 0.46680 0.90640 0.05300
C 	C 	0.63356 0.02076 0.75632 0.29800
C 	C 	0.73950 0.43110 0.07520 0.33300
C 	C 	0.25780 0.94700 0.73280 0.05900
C 	C 	0.33160 0.94120 0.73220 -0.07700
C 	C 	0.35780 0.87660 0.74040 -0.00300
C 	C 	0.30740 0.81680 0.74620 -0.06600
C 	C 	0.23330 0.82570 0.74680 0.04300
C 	C 	0.44120 0.87080 0.74320 0.29700
C 	C 	0.07660 0.00560 0.68380 0.05600
C 	C 	0.07970 0.08250 0.68680 -0.07800
C 	C 	0.11920 0.14980 0.75120 -0.00800
C 	C 	0.15820 0.14180 0.81560 -0.07200
C 	C 	0.15336 0.06256 0.80972 0.04800
C 	C 	0.19240 0.04480 0.87160 0.03200
C 	C 	0.24400 0.10520 0.94340 -0.05400
C 	C 	0.27668 0.07988 0.99796 -0.03300
C 	C 	0.25800 0.99640 0.97880 -0.05900
C 	C 	0.20820 0.93960 0.90640 0.05100
C 	C 	0.12276 0.23556 0.75632 0.29900
C 	C 	0.33570 0.14410 0.07520 0.33400
C 	C 	0.47500 0.28580 0.73280 0.05900
C 	C 	0.40060 0.29100 0.73220 -0.07700
C 	C 	0.38260 0.36380 0.74040 -0.00300
C 	C 	0.43880 0.42940 0.74620 -0.06600
C 	C 	0.51350 0.42110 0.74680 0.04300
C 	C 	0.30200 0.37240 0.74320 0.29700
C 	C 	0.17820 0.60720 0.18380 0.05800
C 	C 	0.10430 0.60710 0.18680 -0.07900
C 	C 	0.10140 0.63200 0.25120 -0.00700
C 	C 	0.17380 0.65740 0.31560 -0.07200
C 	C 	0.24716 0.65636 0.30972 0.04800
C 	C 	0.32680 0.67920 0.37160 0.03400
C 	C 	0.33820 0.69940 0.44340 -0.05500
C 	C 	0.41808 0.72128 0.49796 -0.03000
C 	C 	0.48240 0.72080 0.47880 -0.06400
C 	C 	0.46680 0.69820 0.40640 0.05200
C 	C 	0.02076 0.63356 0.25632 0.29800
C 	C 	0.43110 0.73950 0.57520 0.33200
C 	C 	0.94700 0.25780 0.23280 0.05900
C 	C 	0.94120 0.33160 0.23220 -0.07700
C 	C 	0.87660 0.35780 0.24040 -0.00300
C 	C 	0.81680 0.30740 0.24620 -0.06600
C 	C 	0.82570 0.23330 0.24680 0.04300
C 	C 	0.87080 0.44120 0.24320 0.29700
C 	C 	0.00560 0.07660 0.18380 0.05600
C 	C 	0.08250 0.07970 0.18680 -0.07800
C 	C 	0.14980 0.11920 0.25120 -0.00800
C 	C 	0.14180 0.15820 0.31560 -0.07200
C 	C 	0.06256 0.15336 0.30972 0.04700
C 	C 	0.04480 0.19240 0.37160 0.03300
C 	C 	0.10520 0.24400 0.44340 -0.05500
C 	C 	0.07988 0.27668 0.49796 -0.03100
C 	C 	0.99640 0.25800 0.47880 -0.06300
C 	C 	0.93960 0.20820 0.40640 0.05200
C 	C 	0.23556 0.12276 0.25632 0.29900
C 	C 	0.14410 0.33570 0.57520 0.33300
C 	C 	0.28580 0.47500 0.23280 0.05900
C 	C 	0.29100 0.40060 0.23220 -0.07700
C 	C 	0.36380 0.38260 0.24040 -0.00300
C 	C 	0.42940 0.43880 0.24620 -0.06600
C 	C 	0.42110 0.51350 0.24680 0.04300
C 	C 	0.37240 0.30200 0.24320 0.29700
C 	C 	0.39280 0.82180 0.31620 0.05800
C 	C 	0.39290 0.89570 0.31320 -0.07900
C 	C 	0.36800 0.89860 0.24880 -0.00700
C 	C 	0.34260 0.82620 0.18440 -0.07200
C 	C 	0.34364 0.75284 0.19028 0.04800
C 	C 	0.32080 0.67320 0.12840 0.03400
C 	C 	0.30060 0.66180 0.05660 -0.05500
C 	C 	0.27872 0.58192 0.00204 -0.03100
C 	C 	0.27920 0.51760 0.02120 -0.06400
C 	C 	0.30180 0.53320 0.09360 0.05300
C 	C 	0.36644 0.97924 0.24368 0.29800
C 	C 	0.26050 0.56890 0.92480 0.33300
C 	C 	0.74220 0.05300 0.26720 0.05900
C 	C 	0.66840 0.05880 0.26780 -0.07700
C 	C 	0.64220 0.12340 0.25960 -0.00300
C 	C 	0.69260 0.18320 0.25380 -0.06600
C 	C 	0.76670 0.17430 0.25320 0.04300
C 	C 	0.55880 0.12920 0.25680 0.29700
C 	C 	0.92340 0.99440 0.31620 0.05600
C 	C 	0.92030 0.91750 0.31320 -0.07800
C 	C 	0.88080 0.85020 0.24880 -0.00800
C 	C 	0.84180 0.85820 0.18440 -0.07200
C 	C 	0.84664 0.93744 0.19028 0.04800
C 	C 	0.80760 0.95520 0.12840 0.03200
C 	C 	0.75600 0.89480 0.05660 -0.05400
C 	C 	0.72332 0.92012 0.00204 -0.03300
C 	C 	0.74200 0.00360 0.02120 -0.05900
C 	C 	0.79180 0.06040 0.09360 0.05100
C 	C 	0.87724 0.76444 0.24368 0.29900
C 	C 	0.66430 0.85590 0.92480 0.33400
C 	C 	0.52500 0.71420 0.26720 0.05900
C 	C 	0.59940 0.70900 0.26780 -0.07700
C 	C 	0.61740 0.63620 0.25960 -0.00300
C 	C 	0.56120 0.57060 0.25380 -0.06600
C 	C 	0.48650 0.57890 0.25320 0.04300
C 	C 	0.69800 0.62760 0.25680 0.29700
N 	N 	0.75113 0.36793 0.75546 -0.24800
N 	N 	0.60900 0.32180 0.64640 -0.24600
N 	N 	0.10929 0.79029 0.75858 -0.25000
N 	N 	0.00433 0.88753 0.75546 -0.24700
N 	N 	0.03740 0.82460 0.64640 -0.24600
N 	N 	0.64929 0.46829 0.75858 -0.25000
N 	N 	0.63207 0.24887 0.74454 -0.24800
N 	N 	0.67820 0.39100 0.85360 -0.24600
N 	N 	0.20971 0.89071 0.74142 -0.25000
N 	N 	0.11247 0.99567 0.74454 -0.24700
N 	N 	0.17540 0.96260 0.85360 -0.24600
N 	N 	0.53171 0.35071 0.74142 -0.25000
N 	N 	0.24887 0.63207 0.24454 -0.24800
N 	N 	0.39100 0.67820 0.35360 -0.24600
N 	N 	0.89071 0.20971 0.24142 -0.25000
N 	N 	0.99567 0.11247 0.24454 -0.24700
N 	N 	0.96260 0.17540 0.35360 -0.24600
N 	N 	0.35071 0.53171 0.24142 -0.25000
N 	N 	0.36793 0.75113 0.25546 -0.24800
N 	N 	0.32180 0.60900 0.14640 -0.24600
N 	N 	0.79029 0.10929 0.25858 -0.25000
N 	N 	0.88753 0.00433 0.25546 -0.24700
N 	N 	0.82460 0.03740 0.14640 -0.24600
N 	N 	0.46829 0.64929 0.25858 -0.25000
O 	O 	0.03789 0.37569 0.79878 -0.34300
O 	O 	0.98383 0.35823 0.68486 -0.33000
O 	O 	0.63172 0.27572 0.41304 -0.23900
O 	O 	0.49519 0.23199 0.37778 -0.38600
O 	O 	0.09000 0.52540 0.78400 -0.31700
O 	O 	0.17251 0.53051 0.73082 -0.33600
O 	O 	0.76089 0.92309 0.79878 -0.34300
O 	O 	0.70103 0.82663 0.68486 -0.33000
O 	O 	0.78132 0.63732 0.41304 -0.23900
O 	O 	0.88259 0.64579 0.37778 -0.38600
O 	O 	0.69400 0.75860 0.78400 -0.31700
O 	O 	0.55831 0.70031 0.73082 -0.33600
O 	O 	0.62431 0.96211 0.70122 -0.34300
O 	O 	0.64177 0.01617 0.81514 -0.33000
O 	O 	0.72428 0.36828 0.08696 -0.23900
O 	O 	0.76801 0.50481 0.12222 -0.38600
O 	O 	0.47460 0.91000 0.71600 -0.31700
O 	O 	0.46949 0.82749 0.76918 -0.33600
O 	O 	0.07691 0.23911 0.70122 -0.34300
O 	O 	0.17337 0.29897 0.81514 -0.33000
O 	O 	0.36268 0.21868 0.08696 -0.23900
O 	O 	0.35421 0.11741 0.12222 -0.38600
O 	O 	0.24140 0.30600 0.71600 -0.31700
O 	O 	0.29969 0.44169 0.76918 -0.33600
O 	O 	0.96211 0.62431 0.20122 -0.34300
O 	O 	0.01617 0.64177 0.31514 -0.33000
O 	O 	0.36828 0.72428 0.58696 -0.23900
O 	O 	0.50481 0.76801 0.62222 -0.38600
O 	O 	0.91000 0.47460 0.21600 -0.31700
O 	O 	0.82749 0.46949 0.26918 -0.33600
O 	O 	0.23911 0.07691 0.20122 -0.34300
O 	O 	0.29897 0.17337 0.31514 -0.33000
O 	O 	0.21868 0.36268 0.58696 -0.23900
O 	O 	0.11741 0.35421 0.62222 -0.38600
O 	O 	0.30600 0.24140 0.21600 -0.31700
O 	O 	0.44169 0.29969 0.26918 -0.33600
O 	O 	0.37569 0.03789 0.29878 -0.34300
O 	O 	0.35823 0.98383 0.18486 -0.33000
O 	O 	0.27572 0.63172 0.91304 -0.23900
O 	O 	0.23199 0.49519 0.87778 -0.38600
O 	O 	0.52540 0.09000 0.28400 -0.31700
O 	O 	0.53051 0.17251 0.23082 -0.33600
O 	O 	0.92309 0.76089 0.29878 -0.34300
O 	O 	0.82663 0.70103 0.18486 -0.33000
O 	O 	0.63732 0.78132 0.91304 -0.23900
O 	O 	0.64579 0.88259 0.87778 -0.38600
O 	O 	0.75860 0.69400 0.28400 -0.31700
O 	O 	0.70031 0.55831 0.23082 -0.33600
