data_crystal

_cell_length_a 10.13820
_cell_length_b 12.91390
_cell_length_c 11.73410
_cell_angle_alpha 90.00000
_cell_angle_beta  110.04000
_cell_angle_gamma 90.00000

_symmetry_space_group_name_	'P 1'
_symmetry_space_group_name_H-M	'P 1'

loop_
_symmetry_equiv_pos_as_xyz
  x,y,z

loop_
_atom_site_label
_atom_site_type_symbol
_atom_site_fract_x
_atom_site_fract_y
_atom_site_fract_z
_atom_site_charge
Cd	Cd	0.78741 0.14601 0.22755 1.22400
O 	O 	0.51400 0.17840 0.19810 -0.31500
O 	O 	0.61630 0.02870 0.19420 -0.37500
O 	O 	0.03860 0.15100 0.25260 -0.33700
O 	O 	0.91180 0.01180 0.18730 -0.36100
N 	N 	0.23150 0.74760 0.92600 -0.20800
N 	N 	0.21260 0.64410 0.91220 -0.05000
N 	N 	0.18720 0.60670 0.00540 -0.05100
N 	N 	0.18830 0.68400 0.08230 -0.20900
C 	C 	0.14000 0.01360 0.17400 -0.05800
C 	C 	0.26490 0.06800 0.19260 0.00500
H 	H 	0.27570 0.13360 0.22730 0.06700
C 	C 	0.37230 0.02640 0.16040 -0.05400
C 	C 	0.35670 0.92810 0.10810 -0.01200
H 	H 	0.42910 0.89900 0.08720 0.05100
C 	C 	0.23240 0.87400 0.08760 -0.06900
C 	C 	0.12520 0.91660 0.12100 -0.01300
H 	H 	0.04260 0.87950 0.10770 0.04900
C 	C 	0.02550 0.06110 0.20760 0.29300
C 	C 	0.50910 0.08360 0.18460 0.30400
C 	C 	0.21570 0.77020 0.03170 0.12100
Cd	Cd	0.21259 0.64601 0.27245 1.22300
O 	O 	0.48600 0.67840 0.30190 -0.31600
O 	O 	0.38370 0.52870 0.30580 -0.37600
O 	O 	0.96140 0.65100 0.24740 -0.33800
O 	O 	0.08820 0.51180 0.31270 -0.36200
N 	N 	0.76850 0.24760 0.57400 -0.20900
N 	N 	0.78740 0.14410 0.58780 -0.05000
N 	N 	0.81280 0.10670 0.49460 -0.05000
N 	N 	0.81170 0.18400 0.41770 -0.20900
C 	C 	0.86000 0.51360 0.32600 -0.06100
C 	C 	0.73510 0.56800 0.30740 0.00700
H 	H 	0.72430 0.63360 0.27270 0.06700
C 	C 	0.62770 0.52640 0.33960 -0.05600
C 	C 	0.64330 0.42810 0.39190 -0.00900
H 	H 	0.57090 0.39900 0.41280 0.05000
C 	C 	0.76760 0.37400 0.41240 -0.07100
C 	C 	0.87480 0.41660 0.37900 -0.01000
H 	H 	0.95740 0.37950 0.39230 0.04800
C 	C 	0.97450 0.56110 0.29240 0.29400
C 	C 	0.49090 0.58360 0.31540 0.30500
C 	C 	0.78430 0.27020 0.46830 0.12300
Cd	Cd	0.21259 0.85399 0.77245 1.22300
O 	O 	0.48600 0.82160 0.80190 -0.31600
O 	O 	0.38370 0.97130 0.80580 -0.37600
O 	O 	0.96140 0.84900 0.74740 -0.33800
O 	O 	0.08820 0.98820 0.81270 -0.36100
N 	N 	0.76850 0.25240 0.07400 -0.20800
N 	N 	0.78740 0.35590 0.08780 -0.05000
N 	N 	0.81280 0.39330 0.99460 -0.05100
N 	N 	0.81170 0.31600 0.91770 -0.20900
C 	C 	0.86000 0.98640 0.82600 -0.05800
C 	C 	0.73510 0.93200 0.80740 0.00500
H 	H 	0.72430 0.86640 0.77270 0.06700
C 	C 	0.62770 0.97360 0.83960 -0.05400
C 	C 	0.64330 0.07190 0.89190 -0.01200
H 	H 	0.57090 0.10100 0.91280 0.05100
C 	C 	0.76760 0.12600 0.91240 -0.06900
C 	C 	0.87480 0.08340 0.87900 -0.01300
H 	H 	0.95740 0.12050 0.89230 0.04900
C 	C 	0.97450 0.93890 0.79240 0.29300
C 	C 	0.49090 0.91640 0.81540 0.30400
C 	C 	0.78430 0.22980 0.96830 0.12100
Cd	Cd	0.78741 0.35399 0.72755 1.22300
O 	O 	0.51400 0.32160 0.69810 -0.31600
O 	O 	0.61630 0.47130 0.69420 -0.37600
O 	O 	0.03860 0.34900 0.75260 -0.33800
O 	O 	0.91180 0.48820 0.68730 -0.36200
N 	N 	0.23150 0.75240 0.42600 -0.20900
N 	N 	0.21260 0.85590 0.41220 -0.05000
N 	N 	0.18720 0.89330 0.50540 -0.05000
N 	N 	0.18830 0.81600 0.58230 -0.20900
C 	C 	0.14000 0.48640 0.67400 -0.06100
C 	C 	0.26490 0.43200 0.69260 0.00700
H 	H 	0.27570 0.36640 0.72730 0.06700
C 	C 	0.37230 0.47360 0.66040 -0.05600
C 	C 	0.35670 0.57190 0.60810 -0.00900
H 	H 	0.42910 0.60100 0.58720 0.05000
C 	C 	0.23240 0.62600 0.58760 -0.07100
C 	C 	0.12520 0.58340 0.62100 -0.01000
H 	H 	0.04260 0.62050 0.60770 0.04800
C 	C 	0.02550 0.43890 0.70760 0.29400
C 	C 	0.50910 0.41640 0.68460 0.30500
C 	C 	0.21570 0.72980 0.53170 0.12300
