data_crystal

_cell_length_a 10.39730
_cell_length_b 23.43100
_cell_length_c 6.92700
_cell_angle_alpha 90.00000
_cell_angle_beta  90.00000
_cell_angle_gamma 90.00000

_symmetry_space_group_name_	'P 1'
_symmetry_space_group_name_H-M	'P 1'

loop_
_symmetry_equiv_pos_as_xyz
  x,y,z

loop_
_atom_site_label
_atom_site_type_symbol
_atom_site_fract_x
_atom_site_fract_y
_atom_site_fract_z
_atom_site_charge
Zn	Zn	0.50000 0.36596 0.25000 1.20200
O 	O 	0.50000 0.45170 0.25000 -0.73900
Zn	Zn	-0.00000 0.86596 0.25000 1.18900
O 	O 	-0.00000 0.95170 0.25000 -0.70800
Zn	Zn	0.50000 0.63404 0.75000 1.22400
O 	O 	0.50000 0.54830 0.75000 -0.68100
Zn	Zn	-0.00000 0.13404 0.75000 1.20800
O 	O 	0.00000 0.04830 0.75000 -0.72800
Zn	Zn	0.50000 0.50000 -0.00000 1.12400
Zn	Zn	-0.00000 0.00000 -0.00000 1.08800
Zn	Zn	0.50000 0.50000 0.50000 1.16000
Zn	Zn	0.00000 0.00000 0.50000 1.12300
O 	O 	0.34260 0.31970 0.25000 -0.48600
O 	O 	0.23690 0.40070 0.25000 -0.39000
C 	C 	0.11600 0.25590 0.25000 0.03900
H 	H 	0.19340 0.23610 0.25000 0.01700
C 	C 	0.11570 0.31540 0.25000 -0.10800
C 	C 	0.24080 0.34870 0.25000 0.35000
O 	O 	0.84260 0.81970 0.25000 -0.43300
O 	O 	0.73690 0.90070 0.25000 -0.32000
C 	C 	0.61600 0.75590 0.25000 0.00700
H 	H 	0.69340 0.73610 0.25000 0.03900
C 	C 	0.61570 0.81540 0.25000 -0.09300
C 	C 	0.74080 0.84870 0.25000 0.34400
O 	O 	0.65740 0.68030 0.75000 -0.42500
O 	O 	0.76310 0.59930 0.75000 -0.31000
C 	C 	0.88400 0.74410 0.75000 0.10200
H 	H 	0.80660 0.76390 0.75000 0.04900
C 	C 	0.88430 0.68460 0.75000 0.00800
C 	C 	0.75920 0.65130 0.75000 0.33600
O 	O 	0.15740 0.18030 0.75000 -0.44700
O 	O 	0.26310 0.09930 0.75000 -0.35700
C 	C 	0.38400 0.24410 0.75000 0.00800
H 	H 	0.30660 0.26390 0.75000 0.06000
C 	C 	0.38430 0.18460 0.75000 -0.08000
C 	C 	0.25920 0.15130 0.75000 0.36000
O 	O 	0.65740 0.31970 0.25000 -0.47900
O 	O 	0.76310 0.40070 0.25000 -0.35200
C 	C 	0.88400 0.25590 0.25000 0.12500
H 	H 	0.80660 0.23610 0.25000 0.00500
C 	C 	0.88430 0.31540 0.25000 -0.03800
C 	C 	0.75920 0.34870 0.25000 0.34300
O 	O 	0.15740 0.81970 0.25000 -0.49200
O 	O 	0.26310 0.90070 0.25000 -0.35500
C 	C 	0.38400 0.75590 0.25000 0.01200
H 	H 	0.30660 0.73610 0.25000 0.02500
C 	C 	0.38430 0.81540 0.25000 -0.10400
C 	C 	0.25920 0.84870 0.25000 0.35500
O 	O 	0.34260 0.68030 0.75000 -0.43200
O 	O 	0.23690 0.59930 0.75000 -0.34700
C 	C 	0.11600 0.74410 0.75000 0.02000
H 	H 	0.19340 0.76390 0.75000 0.06100
C 	C 	0.11570 0.68460 0.75000 -0.05900
C 	C 	0.24080 0.65130 0.75000 0.34300
O 	O 	0.84260 0.18030 0.75000 -0.38700
O 	O 	0.73690 0.09930 0.75000 -0.32200
C 	C 	0.61600 0.24410 0.75000 0.00300
H 	H 	0.69340 0.26390 0.75000 0.07300
C 	C 	0.61570 0.18460 0.75000 -0.06900
C 	C 	0.74080 0.15130 0.75000 0.34900
N 	N 	-0.00000 0.13073 0.40920 -0.20600
N 	N 	-0.00000 0.07700 0.34200 -0.23400
N 	N 	0.50000 0.63073 0.40920 -0.18800
N 	N 	0.50000 0.57700 0.34200 -0.21300
N 	N 	-0.00000 0.86927 0.90920 -0.16200
N 	N 	0.00000 0.92300 0.84200 -0.16500
N 	N 	0.50000 0.36927 0.90920 -0.14900
N 	N 	0.50000 0.42300 0.84200 -0.17800
N 	N 	-0.00000 0.13073 0.09080 -0.24100
N 	N 	-0.00000 0.07700 0.15800 -0.25100
N 	N 	0.50000 0.63073 0.09080 -0.22200
N 	N 	0.50000 0.57700 0.15800 -0.22900
N 	N 	-0.00000 0.86927 0.59080 -0.19800
N 	N 	0.00000 0.92300 0.65800 -0.18900
N 	N 	0.50000 0.36927 0.59080 -0.18500
N 	N 	0.50000 0.42300 0.65800 -0.20300
C 	C 	0.00000 0.16230 0.25000 0.13700
C 	C 	0.00000 0.22640 0.25000 -0.19300
C 	C 	0.00000 0.34530 0.25000 -0.07900
H 	H 	0.00000 0.38500 0.25000 0.04000
C 	C 	0.50000 0.66230 0.25000 0.13000
C 	C 	0.50000 0.72640 0.25000 -0.07600
C 	C 	0.50000 0.84530 0.25000 0.02700
H 	H 	0.50000 0.88500 0.25000 0.05000
C 	C 	-0.00000 0.83770 0.75000 0.15700
C 	C 	-0.00000 0.77360 0.75000 -0.13700
C 	C 	-0.00000 0.65470 0.75000 -0.09900
H 	H 	-0.00000 0.61500 0.75000 0.06700
C 	C 	0.50000 0.33770 0.75000 0.14800
C 	C 	0.50000 0.27360 0.75000 -0.03700
C 	C 	0.50000 0.15470 0.75000 0.02200
H 	H 	0.50000 0.11500 0.75000 0.04600
