data_crystal

_cell_length_a 33.13800
_cell_length_b 9.89300
_cell_length_c 26.95900
_cell_angle_alpha 90.00000
_cell_angle_beta  106.75100
_cell_angle_gamma 90.00000

_symmetry_space_group_name_	'P 1'
_symmetry_space_group_name_H-M	'P 1'

loop_
_symmetry_equiv_pos_as_xyz
  x,y,z

loop_
_atom_site_label
_atom_site_type_symbol
_atom_site_fract_x
_atom_site_fract_y
_atom_site_fract_z
_atom_site_charge
Dy	Dy	0.05278 0.11324 0.50190 1.72200
O 	O 	0.11743 0.18190 0.56821 -0.39800
O 	O 	0.12118 0.00690 0.52020 -0.41500
O 	O 	0.47512 0.59370 0.52923 -0.53300
O 	O 	0.52258 0.75560 0.55245 -0.44700
O 	O 	0.44095 0.48000 0.92472 -0.45700
O 	O 	0.49249 0.32560 0.93747 -0.50600
N 	N 	0.33318 0.12340 0.69899 -0.14100
C 	C 	0.45832 0.37910 0.91174 0.46400
C 	C 	0.18400 0.07570 0.58299 -0.09000
C 	C 	0.13787 0.08940 0.55624 0.32500
N 	N 	0.33942 0.98570 0.62961 -0.14400
C 	C 	0.27083 0.06210 0.63100 0.02100
C 	C 	0.48733 0.70340 0.55119 0.43900
C 	C 	0.39522 0.34740 0.83360 0.06600
H 	H 	0.38110 0.41630 0.84660 0.02500
C 	C 	0.31689 0.05630 0.65410 0.10600
C 	C 	0.20314 0.16000 0.62490 0.01300
H 	H 	0.18660 0.22300 0.63720 0.04200
C 	C 	0.47599 0.88360 0.61120 0.05900
H 	H 	0.50460 0.91010 0.61750 0.02200
C 	C 	0.43619 0.31150 0.86107 -0.16300
C 	C 	0.45992 0.77850 0.57710 -0.16300
C 	C 	0.25181 0.97690 0.59000 -0.08100
H 	H 	0.26840 0.91430 0.57770 0.06400
C 	C 	0.24609 0.15150 0.64840 -0.07900
H 	H 	0.25870 0.20850 0.67700 0.06600
N 	N 	0.40074 0.05140 0.69590 -0.14300
C 	C 	0.37541 0.11710 0.71790 0.09900
C 	C 	0.20864 0.98280 0.56700 0.01600
H 	H 	0.19580 0.92180 0.53990 0.03700
C 	C 	0.45653 0.20980 0.84260 0.07000
H 	H 	0.48420 0.18310 0.86180 0.00400
C 	C 	0.41748 0.74180 0.56730 0.05800
H 	H 	0.40650 0.66870 0.54450 0.00900
C 	C 	0.39145 0.81170 0.59050 -0.11600
H 	H 	0.36250 0.78880 0.58300 0.07500
C 	C 	0.37472 0.28330 0.78720 -0.11400
H 	H 	0.34670 0.30770 0.76870 0.07800
C 	C 	0.43658 0.14690 0.79620 -0.11800
H 	H 	0.45080 0.07820 0.78320 0.07600
C 	C 	0.38102 0.98720 0.65170 0.09700
C 	C 	0.39554 0.18390 0.76830 0.04900
C 	C 	0.40835 0.91540 0.62490 0.04100
C 	C 	0.45082 0.94920 0.63560 -0.11900
H 	H 	0.46230 0.01830 0.66000 0.06900
Dy	Dy	0.55278 0.61324 0.50190 1.72300
O 	O 	0.61743 0.68190 0.56821 -0.39700
O 	O 	0.62118 0.50690 0.52020 -0.41400
O 	O 	0.97512 0.09370 0.52923 -0.53200
O 	O 	0.02258 0.25560 0.55245 -0.44600
O 	O 	0.94095 0.98000 0.92472 -0.45600
O 	O 	0.99249 0.82560 0.93747 -0.50500
N 	N 	0.83318 0.62340 0.69899 -0.14000
C 	C 	0.95832 0.87910 0.91174 0.46500
C 	C 	0.68400 0.57570 0.58299 -0.08900
C 	C 	0.63787 0.58940 0.55624 0.32500
N 	N 	0.83942 0.48570 0.62961 -0.14400
C 	C 	0.77083 0.56210 0.63100 0.02200
C 	C 	0.98733 0.20340 0.55119 0.44000
C 	C 	0.89522 0.84740 0.83360 0.06500
H 	H 	0.88110 0.91630 0.84660 0.02600
C 	C 	0.81689 0.55630 0.65410 0.10700
C 	C 	0.70314 0.66000 0.62490 0.01300
H 	H 	0.68660 0.72300 0.63720 0.04200
C 	C 	0.97599 0.38360 0.61120 0.05900
H 	H 	0.00460 0.41010 0.61750 0.02200
C 	C 	0.93619 0.81150 0.86107 -0.16300
C 	C 	0.95992 0.27850 0.57710 -0.16300
C 	C 	0.75181 0.47690 0.59000 -0.08100
H 	H 	0.76840 0.41430 0.57770 0.06500
C 	C 	0.74609 0.65150 0.64840 -0.07900
H 	H 	0.75870 0.70850 0.67700 0.06600
N 	N 	0.90074 0.55140 0.69590 -0.14200
C 	C 	0.87541 0.61710 0.71790 0.09900
C 	C 	0.70864 0.48280 0.56700 0.01600
H 	H 	0.69580 0.42180 0.53990 0.03700
C 	C 	0.95653 0.70980 0.84260 0.07000
H 	H 	0.98420 0.68310 0.86180 0.00400
C 	C 	0.91748 0.24180 0.56730 0.05800
H 	H 	0.90650 0.16870 0.54450 0.00900
C 	C 	0.89145 0.31170 0.59050 -0.11700
H 	H 	0.86250 0.28880 0.58300 0.07500
C 	C 	0.87472 0.78330 0.78720 -0.11400
H 	H 	0.84670 0.80770 0.76870 0.07800
C 	C 	0.93658 0.64690 0.79620 -0.11800
H 	H 	0.95080 0.57820 0.78320 0.07600
C 	C 	0.88102 0.48720 0.65170 0.09700
C 	C 	0.89554 0.68390 0.76830 0.04900
C 	C 	0.90835 0.41540 0.62490 0.04200
C 	C 	0.95082 0.44920 0.63560 -0.12100
H 	H 	0.96230 0.51830 0.66000 0.07000
Dy	Dy	0.94722 0.11324 0.99810 1.72300
O 	O 	0.88257 0.18190 0.93179 -0.39700
O 	O 	0.87882 0.00690 0.97980 -0.41400
O 	O 	0.52488 0.59370 0.97077 -0.53200
O 	O 	0.47742 0.75560 0.94755 -0.44600
O 	O 	0.55905 0.48000 0.57528 -0.45600
O 	O 	0.50751 0.32560 0.56253 -0.50500
N 	N 	0.66682 0.12340 0.80101 -0.14000
C 	C 	0.54168 0.37910 0.58826 0.46500
C 	C 	0.81600 0.07570 0.91701 -0.09000
C 	C 	0.86213 0.08940 0.94376 0.32600
N 	N 	0.66058 0.98570 0.87039 -0.14300
C 	C 	0.72917 0.06210 0.86900 0.02200
C 	C 	0.51267 0.70340 0.94881 0.44000
C 	C 	0.60478 0.34740 0.66640 0.06600
H 	H 	0.61890 0.41630 0.65340 0.02500
C 	C 	0.68311 0.05630 0.84590 0.10600
C 	C 	0.79686 0.16000 0.87510 0.01300
H 	H 	0.81340 0.22300 0.86280 0.04200
C 	C 	0.52401 0.88360 0.88880 0.05800
H 	H 	0.49540 0.91010 0.88250 0.02200
C 	C 	0.56381 0.31150 0.63893 -0.16300
C 	C 	0.54008 0.77850 0.92290 -0.16300
C 	C 	0.74819 0.97690 0.91000 -0.08000
H 	H 	0.73160 0.91430 0.92230 0.06500
C 	C 	0.75391 0.15150 0.85160 -0.07900
H 	H 	0.74130 0.20850 0.82300 0.06600
N 	N 	0.59926 0.05140 0.80410 -0.14300
C 	C 	0.62459 0.11710 0.78210 0.09900
C 	C 	0.79136 0.98280 0.93300 0.01700
H 	H 	0.80420 0.92180 0.96010 0.03700
C 	C 	0.54347 0.20980 0.65740 0.07000
H 	H 	0.51580 0.18310 0.63820 0.00400
C 	C 	0.58252 0.74180 0.93270 0.05800
H 	H 	0.59350 0.66870 0.95550 0.01000
C 	C 	0.60855 0.81170 0.90950 -0.11600
H 	H 	0.63750 0.78880 0.91700 0.07500
C 	C 	0.62528 0.28330 0.71280 -0.11400
H 	H 	0.65330 0.30770 0.73130 0.07800
C 	C 	0.56342 0.14690 0.70380 -0.11800
H 	H 	0.54920 0.07820 0.71680 0.07600
C 	C 	0.61898 0.98720 0.84830 0.09800
C 	C 	0.60446 0.18390 0.73170 0.04900
C 	C 	0.59165 0.91540 0.87510 0.04100
C 	C 	0.54918 0.94920 0.86440 -0.11800
H 	H 	0.53770 0.01830 0.84000 0.06900
Dy	Dy	0.44722 0.61324 0.99810 1.72500
O 	O 	0.38257 0.68190 0.93179 -0.39700
O 	O 	0.37882 0.50690 0.97980 -0.41300
O 	O 	0.02488 0.09370 0.97077 -0.53200
O 	O 	0.97742 0.25560 0.94755 -0.44600
O 	O 	0.05905 0.98000 0.57528 -0.45600
O 	O 	0.00751 0.82560 0.56253 -0.50500
N 	N 	0.16682 0.62340 0.80101 -0.14000
C 	C 	0.04168 0.87910 0.58826 0.46500
C 	C 	0.31600 0.57570 0.91701 -0.08900
C 	C 	0.36213 0.58940 0.94376 0.32500
N 	N 	0.16058 0.48570 0.87039 -0.14400
C 	C 	0.22917 0.56210 0.86900 0.02200
C 	C 	0.01267 0.20340 0.94881 0.44100
C 	C 	0.10478 0.84740 0.66640 0.06600
H 	H 	0.11890 0.91630 0.65340 0.02600
C 	C 	0.18311 0.55630 0.84590 0.10700
C 	C 	0.29686 0.66000 0.87510 0.01300
H 	H 	0.31340 0.72300 0.86280 0.04200
C 	C 	0.02401 0.38360 0.88880 0.06100
H 	H 	0.99540 0.41010 0.88250 0.02100
C 	C 	0.06381 0.81150 0.63893 -0.16300
C 	C 	0.04008 0.27850 0.92290 -0.16400
C 	C 	0.24819 0.47690 0.91000 -0.08100
H 	H 	0.23160 0.41430 0.92230 0.06500
C 	C 	0.25391 0.65150 0.85160 -0.07900
H 	H 	0.24130 0.70850 0.82300 0.06600
N 	N 	0.09926 0.55140 0.80410 -0.14200
C 	C 	0.12459 0.61710 0.78210 0.09900
C 	C 	0.29136 0.48280 0.93300 0.01600
H 	H 	0.30420 0.42180 0.96010 0.03700
C 	C 	0.04347 0.70980 0.65740 0.07000
H 	H 	0.01580 0.68310 0.63820 0.00400
C 	C 	0.08252 0.24180 0.93270 0.05900
H 	H 	0.09350 0.16870 0.95550 0.00900
C 	C 	0.10855 0.31170 0.90950 -0.11700
H 	H 	0.13750 0.28880 0.91700 0.07600
C 	C 	0.12528 0.78330 0.71280 -0.11400
H 	H 	0.15330 0.80770 0.73130 0.07800
C 	C 	0.06342 0.64690 0.70380 -0.11800
H 	H 	0.04920 0.57820 0.71680 0.07600
C 	C 	0.11898 0.48720 0.84830 0.09700
C 	C 	0.10446 0.68390 0.73170 0.04900
C 	C 	0.09165 0.41540 0.87510 0.04200
C 	C 	0.04918 0.44920 0.86440 -0.12200
H 	H 	0.03770 0.51830 0.84000 0.07100
Dy	Dy	0.94722 0.88676 0.49810 1.72300
O 	O 	0.88257 0.81810 0.43179 -0.39700
O 	O 	0.87882 0.99310 0.47980 -0.41400
O 	O 	0.52488 0.40630 0.47077 -0.53200
O 	O 	0.47742 0.24440 0.44755 -0.44600
O 	O 	0.55905 0.52000 0.07528 -0.45600
O 	O 	0.50751 0.67440 0.06253 -0.50500
N 	N 	0.66682 0.87660 0.30101 -0.14000
C 	C 	0.54168 0.62090 0.08826 0.46500
C 	C 	0.81600 0.92430 0.41701 -0.08900
C 	C 	0.86213 0.91060 0.44376 0.32600
N 	N 	0.66058 0.01430 0.37039 -0.14300
C 	C 	0.72917 0.93790 0.36900 0.02200
C 	C 	0.51267 0.29660 0.44881 0.44000
C 	C 	0.60478 0.65260 0.16640 0.06600
H 	H 	0.61890 0.58370 0.15340 0.02500
C 	C 	0.68311 0.94370 0.34590 0.10600
C 	C 	0.79686 0.84000 0.37510 0.01300
H 	H 	0.81340 0.77700 0.36280 0.04200
C 	C 	0.52401 0.11640 0.38880 0.05900
H 	H 	0.49540 0.08990 0.38250 0.02200
C 	C 	0.56381 0.68850 0.13893 -0.16300
C 	C 	0.54008 0.22150 0.42290 -0.16300
C 	C 	0.74819 0.02310 0.41000 -0.08100
H 	H 	0.73160 0.08570 0.42230 0.06400
C 	C 	0.75391 0.84850 0.35160 -0.07900
H 	H 	0.74130 0.79150 0.32300 0.06600
N 	N 	0.59926 0.94860 0.30410 -0.14300
C 	C 	0.62459 0.88290 0.28210 0.09900
C 	C 	0.79136 0.01720 0.43300 0.01600
H 	H 	0.80420 0.07820 0.46010 0.03700
C 	C 	0.54347 0.79020 0.15740 0.07000
H 	H 	0.51580 0.81690 0.13820 0.00400
C 	C 	0.58252 0.25820 0.43270 0.05800
H 	H 	0.59350 0.33130 0.45550 0.00900
C 	C 	0.60855 0.18830 0.40950 -0.11600
H 	H 	0.63750 0.21120 0.41700 0.07500
C 	C 	0.62528 0.71670 0.21280 -0.11400
H 	H 	0.65330 0.69230 0.23130 0.07800
C 	C 	0.56342 0.85310 0.20380 -0.11800
H 	H 	0.54920 0.92180 0.21680 0.07600
C 	C 	0.61898 0.01280 0.34830 0.09700
C 	C 	0.60446 0.81610 0.23170 0.04900
C 	C 	0.59165 0.08460 0.37510 0.04100
C 	C 	0.54918 0.05080 0.36440 -0.11900
H 	H 	0.53770 0.98170 0.34000 0.06900
Dy	Dy	0.44722 0.38676 0.49810 1.72300
O 	O 	0.38257 0.31810 0.43179 -0.39700
O 	O 	0.37882 0.49310 0.47980 -0.41400
O 	O 	0.02488 0.90630 0.47077 -0.53200
O 	O 	0.97742 0.74440 0.44755 -0.44600
O 	O 	0.05905 0.02000 0.07528 -0.45600
O 	O 	0.00751 0.17440 0.06253 -0.50500
N 	N 	0.16682 0.37660 0.30101 -0.14000
C 	C 	0.04168 0.12090 0.08826 0.46500
C 	C 	0.31600 0.42430 0.41701 -0.08900
C 	C 	0.36213 0.41060 0.44376 0.32500
N 	N 	0.16058 0.51430 0.37039 -0.14400
C 	C 	0.22917 0.43790 0.36900 0.02200
C 	C 	0.01267 0.79660 0.44881 0.44000
C 	C 	0.10478 0.15260 0.16640 0.06500
H 	H 	0.11890 0.08370 0.15340 0.02600
C 	C 	0.18311 0.44370 0.34590 0.10700
C 	C 	0.29686 0.34000 0.37510 0.01300
H 	H 	0.31340 0.27700 0.36280 0.04200
C 	C 	0.02401 0.61640 0.38880 0.05900
H 	H 	0.99540 0.58990 0.38250 0.02200
C 	C 	0.06381 0.18850 0.13893 -0.16300
C 	C 	0.04008 0.72150 0.42290 -0.16300
C 	C 	0.24819 0.52310 0.41000 -0.08100
H 	H 	0.23160 0.58570 0.42230 0.06500
C 	C 	0.25391 0.34850 0.35160 -0.07900
H 	H 	0.24130 0.29150 0.32300 0.06600
N 	N 	0.09926 0.44860 0.30410 -0.14200
C 	C 	0.12459 0.38290 0.28210 0.09900
C 	C 	0.29136 0.51720 0.43300 0.01600
H 	H 	0.30420 0.57820 0.46010 0.03700
C 	C 	0.04347 0.29020 0.15740 0.07000
H 	H 	0.01580 0.31690 0.13820 0.00400
C 	C 	0.08252 0.75820 0.43270 0.05800
H 	H 	0.09350 0.83130 0.45550 0.00900
C 	C 	0.10855 0.68830 0.40950 -0.11700
H 	H 	0.13750 0.71120 0.41700 0.07500
C 	C 	0.12528 0.21670 0.21280 -0.11400
H 	H 	0.15330 0.19230 0.23130 0.07800
C 	C 	0.06342 0.35310 0.20380 -0.11800
H 	H 	0.04920 0.42180 0.21680 0.07600
C 	C 	0.11898 0.51280 0.34830 0.09700
C 	C 	0.10446 0.31610 0.23170 0.04900
C 	C 	0.09165 0.58460 0.37510 0.04200
C 	C 	0.04918 0.55080 0.36440 -0.12100
H 	H 	0.03770 0.48170 0.34000 0.07000
Dy	Dy	0.05278 0.88676 0.00190 1.72300
O 	O 	0.11743 0.81810 0.06821 -0.39700
O 	O 	0.12118 0.99310 0.02020 -0.41400
O 	O 	0.47512 0.40630 0.02923 -0.53200
O 	O 	0.52258 0.24440 0.05245 -0.44600
O 	O 	0.44095 0.52000 0.42472 -0.45600
O 	O 	0.49249 0.67440 0.43747 -0.50500
N 	N 	0.33318 0.87660 0.19899 -0.14000
C 	C 	0.45832 0.62090 0.41174 0.46500
C 	C 	0.18400 0.92430 0.08299 -0.09000
C 	C 	0.13787 0.91060 0.05624 0.32600
N 	N 	0.33942 0.01430 0.12961 -0.14300
C 	C 	0.27083 0.93790 0.13100 0.02200
C 	C 	0.48733 0.29660 0.05119 0.44000
C 	C 	0.39522 0.65260 0.33360 0.06600
H 	H 	0.38110 0.58370 0.34660 0.02500
C 	C 	0.31689 0.94370 0.15410 0.10600
C 	C 	0.20314 0.84000 0.12490 0.01300
H 	H 	0.18660 0.77700 0.13720 0.04200
C 	C 	0.47599 0.11640 0.11120 0.05800
H 	H 	0.50460 0.08990 0.11750 0.02200
C 	C 	0.43619 0.68850 0.36107 -0.16300
C 	C 	0.45992 0.22150 0.07710 -0.16300
C 	C 	0.25181 0.02310 0.09000 -0.08000
H 	H 	0.26840 0.08570 0.07770 0.06500
C 	C 	0.24609 0.84850 0.14840 -0.07900
H 	H 	0.25870 0.79150 0.17700 0.06600
N 	N 	0.40074 0.94860 0.19590 -0.14300
C 	C 	0.37541 0.88290 0.21790 0.09900
C 	C 	0.20864 0.01720 0.06700 0.01700
H 	H 	0.19580 0.07820 0.03990 0.03700
C 	C 	0.45653 0.79020 0.34260 0.07000
H 	H 	0.48420 0.81690 0.36180 0.00400
C 	C 	0.41748 0.25820 0.06730 0.05800
H 	H 	0.40650 0.33130 0.04450 0.01000
C 	C 	0.39145 0.18830 0.09050 -0.11600
H 	H 	0.36250 0.21120 0.08300 0.07500
C 	C 	0.37472 0.71670 0.28720 -0.11400
H 	H 	0.34670 0.69230 0.26870 0.07800
C 	C 	0.43658 0.85310 0.29620 -0.11800
H 	H 	0.45080 0.92180 0.28320 0.07600
C 	C 	0.38102 0.01280 0.15170 0.09800
C 	C 	0.39554 0.81610 0.26830 0.04900
C 	C 	0.40835 0.08460 0.12490 0.04100
C 	C 	0.45082 0.05080 0.13560 -0.11800
H 	H 	0.46230 0.98170 0.16000 0.06900
Dy	Dy	0.55278 0.38676 0.00190 1.72500
O 	O 	0.61743 0.31810 0.06821 -0.39700
O 	O 	0.62118 0.49310 0.02020 -0.41300
O 	O 	0.97512 0.90630 0.02923 -0.53200
O 	O 	0.02258 0.74440 0.05245 -0.44600
O 	O 	0.94095 0.02000 0.42472 -0.45600
O 	O 	0.99249 0.17440 0.43747 -0.50500
N 	N 	0.83318 0.37660 0.19899 -0.14000
C 	C 	0.95832 0.12090 0.41174 0.46500
C 	C 	0.68400 0.42430 0.08299 -0.08900
C 	C 	0.63787 0.41060 0.05624 0.32500
N 	N 	0.83942 0.51430 0.12961 -0.14400
C 	C 	0.77083 0.43790 0.13100 0.02200
C 	C 	0.98733 0.79660 0.05119 0.44100
C 	C 	0.89522 0.15260 0.33360 0.06600
H 	H 	0.88110 0.08370 0.34660 0.02600
C 	C 	0.81689 0.44370 0.15410 0.10700
C 	C 	0.70314 0.34000 0.12490 0.01300
H 	H 	0.68660 0.27700 0.13720 0.04200
C 	C 	0.97599 0.61640 0.11120 0.06100
H 	H 	0.00460 0.58990 0.11750 0.02100
C 	C 	0.93619 0.18850 0.36107 -0.16300
C 	C 	0.95992 0.72150 0.07710 -0.16400
C 	C 	0.75181 0.52310 0.09000 -0.08100
H 	H 	0.76840 0.58570 0.07770 0.06500
C 	C 	0.74609 0.34850 0.14840 -0.07900
H 	H 	0.75870 0.29150 0.17700 0.06600
N 	N 	0.90074 0.44860 0.19590 -0.14200
C 	C 	0.87541 0.38290 0.21790 0.09900
C 	C 	0.70864 0.51720 0.06700 0.01600
H 	H 	0.69580 0.57820 0.03990 0.03700
C 	C 	0.95653 0.29020 0.34260 0.07000
H 	H 	0.98420 0.31690 0.36180 0.00400
C 	C 	0.91748 0.75820 0.06730 0.05900
H 	H 	0.90650 0.83130 0.04450 0.00900
C 	C 	0.89145 0.68830 0.09050 -0.11700
H 	H 	0.86250 0.71120 0.08300 0.07600
C 	C 	0.87472 0.21670 0.28720 -0.11400
H 	H 	0.84670 0.19230 0.26870 0.07800
C 	C 	0.93658 0.35310 0.29620 -0.11800
H 	H 	0.95080 0.42180 0.28320 0.07600
C 	C 	0.88102 0.51280 0.15170 0.09700
C 	C 	0.89554 0.31610 0.26830 0.04900
C 	C 	0.90835 0.58460 0.12490 0.04200
C 	C 	0.95082 0.55080 0.13560 -0.12200
H 	H 	0.96230 0.48170 0.16000 0.07100
