data_crystal

_cell_length_a 33.13700
_cell_length_b 9.71450
_cell_length_c 27.31400
_cell_angle_alpha 90.00000
_cell_angle_beta  107.64200
_cell_angle_gamma 90.00000

_symmetry_space_group_name_	'P 1'
_symmetry_space_group_name_H-M	'P 1'

loop_
_symmetry_equiv_pos_as_xyz
  x,y,z

loop_
_atom_site_label
_atom_site_type_symbol
_atom_site_fract_x
_atom_site_fract_y
_atom_site_fract_z
_atom_site_charge
Tb	Tb	0.05228 0.11314 0.50238 1.77600
C 	C 	0.37642 0.11460 0.71760 0.09800
N 	N 	0.34090 0.98130 0.62906 -0.14400
N 	N 	0.33419 0.12110 0.69799 -0.14100
C 	C 	0.31809 0.05240 0.65359 0.10300
N 	N 	0.40183 0.04970 0.69557 -0.14400
C 	C 	0.38248 0.98450 0.65170 0.09700
O 	O 	0.11825 0.17990 0.56719 -0.40800
O 	O 	0.47755 0.59660 0.52943 -0.55100
O 	O 	0.52448 0.76180 0.55432 -0.45300
O 	O 	0.12095 0.00150 0.51977 -0.42100
C 	C 	0.13832 0.08540 0.55488 0.32900
C 	C 	0.46147 0.78010 0.57813 -0.16900
C 	C 	0.48944 0.70820 0.55206 0.44100
C 	C 	0.39362 0.81010 0.59090 -0.12400
H 	H 	0.36450 0.78670 0.58270 0.07600
C 	C 	0.27171 0.05750 0.62978 0.02300
C 	C 	0.18476 0.07090 0.58212 -0.09100
C 	C 	0.41913 0.74090 0.56770 0.06300
H 	H 	0.40800 0.66700 0.54470 0.00400
C 	C 	0.47754 0.88480 0.61230 0.06200
H 	H 	0.50620 0.91230 0.61890 0.02100
C 	C 	0.24725 0.14330 0.64850 -0.08200
H 	H 	0.25990 0.19760 0.67810 0.06700
O 	O 	0.43968 0.47500 0.92443 -0.47100
O 	O 	0.49186 0.32110 0.93705 -0.51900
C 	C 	0.45731 0.37500 0.91192 0.48400
C 	C 	0.39431 0.34150 0.83341 0.07200
H 	H 	0.37950 0.40860 0.84660 0.02300
C 	C 	0.20363 0.15160 0.62430 0.01600
H 	H 	0.18690 0.21320 0.63710 0.04200
C 	C 	0.41004 0.91280 0.62570 0.04400
C 	C 	0.43561 0.30730 0.86082 -0.17000
C 	C 	0.25292 0.97390 0.58780 -0.08100
H 	H 	0.26980 0.91250 0.57530 0.06400
C 	C 	0.20939 0.97960 0.56390 0.01500
H 	H 	0.19650 0.92190 0.53530 0.03600
C 	C 	0.45253 0.94980 0.63700 -0.12200
H 	H 	0.46410 0.01960 0.66160 0.07000
C 	C 	0.37461 0.27810 0.78680 -0.11700
H 	H 	0.34610 0.30040 0.76850 0.07900
C 	C 	0.45708 0.20930 0.84190 0.07600
H 	H 	0.48520 0.18450 0.86100 0.00200
C 	C 	0.39625 0.18290 0.76700 0.05000
C 	C 	0.43777 0.14730 0.79520 -0.12100
H 	H 	0.45270 0.08030 0.78210 0.07700
Tb	Tb	0.55228 0.61314 0.50238 1.77700
C 	C 	0.87642 0.61460 0.71760 0.09900
N 	N 	0.84090 0.48130 0.62906 -0.14300
N 	N 	0.83419 0.62110 0.69799 -0.14000
C 	C 	0.81809 0.55240 0.65359 0.10500
N 	N 	0.90183 0.54970 0.69557 -0.14300
C 	C 	0.88248 0.48450 0.65170 0.09700
O 	O 	0.61825 0.67990 0.56719 -0.40700
O 	O 	0.97755 0.09660 0.52943 -0.55000
O 	O 	0.02448 0.26180 0.55432 -0.45200
O 	O 	0.62095 0.50150 0.51977 -0.42000
C 	C 	0.63832 0.58540 0.55488 0.33000
C 	C 	0.96147 0.28010 0.57813 -0.16900
C 	C 	0.98944 0.20820 0.55206 0.44200
C 	C 	0.89362 0.31010 0.59090 -0.12400
H 	H 	0.86450 0.28670 0.58270 0.07700
C 	C 	0.77171 0.55750 0.62978 0.02500
C 	C 	0.68476 0.57090 0.58212 -0.09000
C 	C 	0.91913 0.24090 0.56770 0.06500
H 	H 	0.90800 0.16700 0.54470 0.00400
C 	C 	0.97754 0.38480 0.61230 0.06300
H 	H 	0.00620 0.41230 0.61890 0.02100
C 	C 	0.74725 0.64330 0.64850 -0.08200
H 	H 	0.75990 0.69760 0.67810 0.06700
O 	O 	0.93968 0.97500 0.92443 -0.47100
O 	O 	0.99186 0.82110 0.93705 -0.51800
C 	C 	0.95731 0.87500 0.91192 0.48400
C 	C 	0.89431 0.84150 0.83341 0.07100
H 	H 	0.87950 0.90860 0.84660 0.02400
C 	C 	0.70363 0.65160 0.62430 0.01600
H 	H 	0.68690 0.71320 0.63710 0.04200
C 	C 	0.91004 0.41280 0.62570 0.04500
C 	C 	0.93561 0.80730 0.86082 -0.17000
C 	C 	0.75292 0.47390 0.58780 -0.08200
H 	H 	0.76980 0.41250 0.57530 0.06500
C 	C 	0.70939 0.47960 0.56390 0.01500
H 	H 	0.69650 0.42190 0.53530 0.03600
C 	C 	0.95253 0.44980 0.63700 -0.12400
H 	H 	0.96410 0.51960 0.66160 0.07100
C 	C 	0.87461 0.77810 0.78680 -0.11700
H 	H 	0.84610 0.80040 0.76850 0.07900
C 	C 	0.95708 0.70930 0.84190 0.07600
H 	H 	0.98520 0.68450 0.86100 0.00200
C 	C 	0.89625 0.68290 0.76700 0.05000
C 	C 	0.93777 0.64730 0.79520 -0.12100
H 	H 	0.95270 0.58030 0.78210 0.07700
Tb	Tb	0.94772 0.11314 0.99762 1.77700
C 	C 	0.62358 0.11460 0.78240 0.09900
N 	N 	0.65910 0.98130 0.87094 -0.14300
N 	N 	0.66581 0.12110 0.80201 -0.14000
C 	C 	0.68191 0.05240 0.84641 0.10400
N 	N 	0.59817 0.04970 0.80443 -0.14300
C 	C 	0.61752 0.98450 0.84830 0.09800
O 	O 	0.88175 0.17990 0.93281 -0.40700
O 	O 	0.52245 0.59660 0.97057 -0.55100
O 	O 	0.47552 0.76180 0.94568 -0.45200
O 	O 	0.87905 0.00150 0.98023 -0.42000
C 	C 	0.86168 0.08540 0.94512 0.33000
C 	C 	0.53853 0.78010 0.92187 -0.16800
C 	C 	0.51056 0.70820 0.94794 0.44200
C 	C 	0.60638 0.81010 0.90910 -0.12300
H 	H 	0.63550 0.78670 0.91730 0.07700
C 	C 	0.72829 0.05750 0.87022 0.02400
C 	C 	0.81524 0.07090 0.91788 -0.09100
C 	C 	0.58087 0.74090 0.93230 0.06400
H 	H 	0.59200 0.66700 0.95530 0.00500
C 	C 	0.52246 0.88480 0.88770 0.06200
H 	H 	0.49380 0.91230 0.88110 0.02100
C 	C 	0.75275 0.14330 0.85150 -0.08200
H 	H 	0.74010 0.19760 0.82190 0.06700
O 	O 	0.56032 0.47500 0.57557 -0.47100
O 	O 	0.50814 0.32110 0.56295 -0.51900
C 	C 	0.54269 0.37500 0.58808 0.48400
C 	C 	0.60569 0.34150 0.66659 0.07200
H 	H 	0.62050 0.40860 0.65340 0.02300
C 	C 	0.79637 0.15160 0.87570 0.01600
H 	H 	0.81310 0.21320 0.86290 0.04200
C 	C 	0.58996 0.91280 0.87430 0.04400
C 	C 	0.56439 0.30730 0.63918 -0.17000
C 	C 	0.74708 0.97390 0.91220 -0.08100
H 	H 	0.73020 0.91250 0.92470 0.06500
C 	C 	0.79061 0.97960 0.93610 0.01600
H 	H 	0.80350 0.92190 0.96470 0.03600
C 	C 	0.54747 0.94980 0.86300 -0.12200
H 	H 	0.53590 0.01960 0.83840 0.07000
C 	C 	0.62539 0.27810 0.71320 -0.11700
H 	H 	0.65390 0.30040 0.73150 0.07900
C 	C 	0.54292 0.20930 0.65810 0.07600
H 	H 	0.51480 0.18450 0.63900 0.00200
C 	C 	0.60375 0.18290 0.73300 0.05000
C 	C 	0.56223 0.14730 0.70480 -0.12100
H 	H 	0.54730 0.08030 0.71790 0.07700
Tb	Tb	0.44772 0.61314 0.99762 1.77900
C 	C 	0.12358 0.61460 0.78240 0.09900
N 	N 	0.15910 0.48130 0.87094 -0.14300
N 	N 	0.16581 0.62110 0.80201 -0.14000
C 	C 	0.18191 0.55240 0.84641 0.10500
N 	N 	0.09817 0.54970 0.80443 -0.14300
C 	C 	0.11752 0.48450 0.84830 0.09700
O 	O 	0.38175 0.67990 0.93281 -0.40700
O 	O 	0.02245 0.09660 0.97057 -0.55000
O 	O 	0.97552 0.26180 0.94568 -0.45200
O 	O 	0.37905 0.50150 0.98023 -0.42000
C 	C 	0.36168 0.58540 0.94512 0.33000
C 	C 	0.03853 0.28010 0.92187 -0.17000
C 	C 	0.01056 0.20820 0.94794 0.44300
C 	C 	0.10638 0.31010 0.90910 -0.12400
H 	H 	0.13550 0.28670 0.91730 0.07700
C 	C 	0.22829 0.55750 0.87022 0.02500
C 	C 	0.31524 0.57090 0.91788 -0.09000
C 	C 	0.08087 0.24090 0.93230 0.06600
H 	H 	0.09200 0.16700 0.95530 0.00400
C 	C 	0.02246 0.38480 0.88770 0.06500
H 	H 	0.99380 0.41230 0.88110 0.02000
C 	C 	0.25275 0.64330 0.85150 -0.08200
H 	H 	0.24010 0.69760 0.82190 0.06700
O 	O 	0.06032 0.97500 0.57557 -0.47100
O 	O 	0.00814 0.82110 0.56295 -0.51900
C 	C 	0.04269 0.87500 0.58808 0.48400
C 	C 	0.10569 0.84150 0.66659 0.07200
H 	H 	0.12050 0.90860 0.65340 0.02300
C 	C 	0.29637 0.65160 0.87570 0.01600
H 	H 	0.31310 0.71320 0.86290 0.04200
C 	C 	0.08996 0.41280 0.87430 0.04600
C 	C 	0.06439 0.80730 0.63918 -0.17000
C 	C 	0.24708 0.47390 0.91220 -0.08200
H 	H 	0.23020 0.41250 0.92470 0.06500
C 	C 	0.29061 0.47960 0.93610 0.01500
H 	H 	0.30350 0.42190 0.96470 0.03600
C 	C 	0.04747 0.44980 0.86300 -0.12500
H 	H 	0.03590 0.51960 0.83840 0.07200
C 	C 	0.12539 0.77810 0.71320 -0.11700
H 	H 	0.15390 0.80040 0.73150 0.07900
C 	C 	0.04292 0.70930 0.65810 0.07600
H 	H 	0.01480 0.68450 0.63900 0.00200
C 	C 	0.10375 0.68290 0.73300 0.05000
C 	C 	0.06223 0.64730 0.70480 -0.12100
H 	H 	0.04730 0.58030 0.71790 0.07700
Tb	Tb	0.94772 0.88686 0.49762 1.77700
C 	C 	0.62358 0.88540 0.28240 0.09900
N 	N 	0.65910 0.01870 0.37094 -0.14300
N 	N 	0.66581 0.87890 0.30201 -0.14000
C 	C 	0.68191 0.94760 0.34641 0.10400
N 	N 	0.59817 0.95030 0.30443 -0.14300
C 	C 	0.61752 0.01550 0.34830 0.09800
O 	O 	0.88175 0.82010 0.43281 -0.40700
O 	O 	0.52245 0.40340 0.47057 -0.55000
O 	O 	0.47552 0.23820 0.44568 -0.45200
O 	O 	0.87905 0.99850 0.48023 -0.42000
C 	C 	0.86168 0.91460 0.44512 0.33000
C 	C 	0.53853 0.21990 0.42187 -0.16800
C 	C 	0.51056 0.29180 0.44794 0.44200
C 	C 	0.60638 0.18990 0.40910 -0.12300
H 	H 	0.63550 0.21330 0.41730 0.07700
C 	C 	0.72829 0.94250 0.37022 0.02400
C 	C 	0.81524 0.92910 0.41788 -0.09000
C 	C 	0.58087 0.25910 0.43230 0.06400
H 	H 	0.59200 0.33300 0.45530 0.00500
C 	C 	0.52246 0.11520 0.38770 0.06200
H 	H 	0.49380 0.08770 0.38110 0.02100
C 	C 	0.75275 0.85670 0.35150 -0.08200
H 	H 	0.74010 0.80240 0.32190 0.06700
O 	O 	0.56032 0.52500 0.07557 -0.47100
O 	O 	0.50814 0.67890 0.06295 -0.51900
C 	C 	0.54269 0.62500 0.08808 0.48400
C 	C 	0.60569 0.65850 0.16659 0.07200
H 	H 	0.62050 0.59140 0.15340 0.02300
C 	C 	0.79637 0.84840 0.37570 0.01600
H 	H 	0.81310 0.78680 0.36290 0.04200
C 	C 	0.58996 0.08720 0.37430 0.04400
C 	C 	0.56439 0.69270 0.13918 -0.17000
C 	C 	0.74708 0.02610 0.41220 -0.08100
H 	H 	0.73020 0.08750 0.42470 0.06400
C 	C 	0.79061 0.02040 0.43610 0.01500
H 	H 	0.80350 0.07810 0.46470 0.03600
C 	C 	0.54747 0.05020 0.36300 -0.12200
H 	H 	0.53590 0.98040 0.33840 0.07000
C 	C 	0.62539 0.72190 0.21320 -0.11700
H 	H 	0.65390 0.69960 0.23150 0.07900
C 	C 	0.54292 0.79070 0.15810 0.07600
H 	H 	0.51480 0.81550 0.13900 0.00200
C 	C 	0.60375 0.81710 0.23300 0.05000
C 	C 	0.56223 0.85270 0.20480 -0.12100
H 	H 	0.54730 0.91970 0.21790 0.07700
Tb	Tb	0.44772 0.38686 0.49762 1.77700
C 	C 	0.12358 0.38540 0.28240 0.09900
N 	N 	0.15910 0.51870 0.37094 -0.14300
N 	N 	0.16581 0.37890 0.30201 -0.14000
C 	C 	0.18191 0.44760 0.34641 0.10500
N 	N 	0.09817 0.45030 0.30443 -0.14300
C 	C 	0.11752 0.51550 0.34830 0.09700
O 	O 	0.38175 0.32010 0.43281 -0.40700
O 	O 	0.02245 0.90340 0.47057 -0.55000
O 	O 	0.97552 0.73820 0.44568 -0.45200
O 	O 	0.37905 0.49850 0.48023 -0.42000
C 	C 	0.36168 0.41460 0.44512 0.33000
C 	C 	0.03853 0.71990 0.42187 -0.16900
C 	C 	0.01056 0.79180 0.44794 0.44200
C 	C 	0.10638 0.68990 0.40910 -0.12400
H 	H 	0.13550 0.71330 0.41730 0.07700
C 	C 	0.22829 0.44250 0.37022 0.02500
C 	C 	0.31524 0.42910 0.41788 -0.09000
C 	C 	0.08087 0.75910 0.43230 0.06500
H 	H 	0.09200 0.83300 0.45530 0.00400
C 	C 	0.02246 0.61520 0.38770 0.06300
H 	H 	0.99380 0.58770 0.38110 0.02100
C 	C 	0.25275 0.35670 0.35150 -0.08200
H 	H 	0.24010 0.30240 0.32190 0.06700
O 	O 	0.06032 0.02500 0.07557 -0.47100
O 	O 	0.00814 0.17890 0.06295 -0.51800
C 	C 	0.04269 0.12500 0.08808 0.48400
C 	C 	0.10569 0.15850 0.16659 0.07100
H 	H 	0.12050 0.09140 0.15340 0.02400
C 	C 	0.29637 0.34840 0.37570 0.01600
H 	H 	0.31310 0.28680 0.36290 0.04200
C 	C 	0.08996 0.58720 0.37430 0.04500
C 	C 	0.06439 0.19270 0.13918 -0.17000
C 	C 	0.24708 0.52610 0.41220 -0.08200
H 	H 	0.23020 0.58750 0.42470 0.06500
C 	C 	0.29061 0.52040 0.43610 0.01500
H 	H 	0.30350 0.57810 0.46470 0.03600
C 	C 	0.04747 0.55020 0.36300 -0.12400
H 	H 	0.03590 0.48040 0.33840 0.07100
C 	C 	0.12539 0.22190 0.21320 -0.11700
H 	H 	0.15390 0.19960 0.23150 0.07900
C 	C 	0.04292 0.29070 0.15810 0.07600
H 	H 	0.01480 0.31550 0.13900 0.00200
C 	C 	0.10375 0.31710 0.23300 0.05000
C 	C 	0.06223 0.35270 0.20480 -0.12100
H 	H 	0.04730 0.41970 0.21790 0.07700
Tb	Tb	0.05228 0.88686 0.00238 1.77700
C 	C 	0.37642 0.88540 0.21760 0.09900
N 	N 	0.34090 0.01870 0.12906 -0.14300
N 	N 	0.33419 0.87890 0.19799 -0.14000
C 	C 	0.31809 0.94760 0.15359 0.10400
N 	N 	0.40183 0.95030 0.19557 -0.14300
C 	C 	0.38248 0.01550 0.15170 0.09800
O 	O 	0.11825 0.82010 0.06719 -0.40700
O 	O 	0.47755 0.40340 0.02943 -0.55100
O 	O 	0.52448 0.23820 0.05432 -0.45200
O 	O 	0.12095 0.99850 0.01977 -0.42000
C 	C 	0.13832 0.91460 0.05488 0.33000
C 	C 	0.46147 0.21990 0.07813 -0.16800
C 	C 	0.48944 0.29180 0.05206 0.44200
C 	C 	0.39362 0.18990 0.09090 -0.12300
H 	H 	0.36450 0.21330 0.08270 0.07700
C 	C 	0.27171 0.94250 0.12978 0.02400
C 	C 	0.18476 0.92910 0.08212 -0.09100
C 	C 	0.41913 0.25910 0.06770 0.06400
H 	H 	0.40800 0.33300 0.04470 0.00500
C 	C 	0.47754 0.11520 0.11230 0.06200
H 	H 	0.50620 0.08770 0.11890 0.02100
C 	C 	0.24725 0.85670 0.14850 -0.08200
H 	H 	0.25990 0.80240 0.17810 0.06700
O 	O 	0.43968 0.52500 0.42443 -0.47100
O 	O 	0.49186 0.67890 0.43705 -0.51900
C 	C 	0.45731 0.62500 0.41192 0.48400
C 	C 	0.39431 0.65850 0.33341 0.07200
H 	H 	0.37950 0.59140 0.34660 0.02300
C 	C 	0.20363 0.84840 0.12430 0.01600
H 	H 	0.18690 0.78680 0.13710 0.04200
C 	C 	0.41004 0.08720 0.12570 0.04400
C 	C 	0.43561 0.69270 0.36082 -0.17000
C 	C 	0.25292 0.02610 0.08780 -0.08100
H 	H 	0.26980 0.08750 0.07530 0.06500
C 	C 	0.20939 0.02040 0.06390 0.01600
H 	H 	0.19650 0.07810 0.03530 0.03600
C 	C 	0.45253 0.05020 0.13700 -0.12200
H 	H 	0.46410 0.98040 0.16160 0.07000
C 	C 	0.37461 0.72190 0.28680 -0.11700
H 	H 	0.34610 0.69960 0.26850 0.07900
C 	C 	0.45708 0.79070 0.34190 0.07600
H 	H 	0.48520 0.81550 0.36100 0.00200
C 	C 	0.39625 0.81710 0.26700 0.05000
C 	C 	0.43777 0.85270 0.29520 -0.12100
H 	H 	0.45270 0.91970 0.28210 0.07700
Tb	Tb	0.55228 0.38686 0.00238 1.77900
C 	C 	0.87642 0.38540 0.21760 0.09900
N 	N 	0.84090 0.51870 0.12906 -0.14300
N 	N 	0.83419 0.37890 0.19799 -0.14000
C 	C 	0.81809 0.44760 0.15359 0.10500
N 	N 	0.90183 0.45030 0.19557 -0.14300
C 	C 	0.88248 0.51550 0.15170 0.09700
O 	O 	0.61825 0.32010 0.06719 -0.40700
O 	O 	0.97755 0.90340 0.02943 -0.55000
O 	O 	0.02448 0.73820 0.05432 -0.45200
O 	O 	0.62095 0.49850 0.01977 -0.42000
C 	C 	0.63832 0.41460 0.05488 0.33000
C 	C 	0.96147 0.71990 0.07813 -0.17000
C 	C 	0.98944 0.79180 0.05206 0.44300
C 	C 	0.89362 0.68990 0.09090 -0.12400
H 	H 	0.86450 0.71330 0.08270 0.07700
C 	C 	0.77171 0.44250 0.12978 0.02500
C 	C 	0.68476 0.42910 0.08212 -0.09000
C 	C 	0.91913 0.75910 0.06770 0.06600
H 	H 	0.90800 0.83300 0.04470 0.00400
C 	C 	0.97754 0.61520 0.11230 0.06500
H 	H 	0.00620 0.58770 0.11890 0.02000
C 	C 	0.74725 0.35670 0.14850 -0.08200
H 	H 	0.75990 0.30240 0.17810 0.06700
O 	O 	0.93968 0.02500 0.42443 -0.47100
O 	O 	0.99186 0.17890 0.43705 -0.51900
C 	C 	0.95731 0.12500 0.41192 0.48400
C 	C 	0.89431 0.15850 0.33341 0.07200
H 	H 	0.87950 0.09140 0.34660 0.02300
C 	C 	0.70363 0.34840 0.12430 0.01600
H 	H 	0.68690 0.28680 0.13710 0.04200
C 	C 	0.91004 0.58720 0.12570 0.04600
C 	C 	0.93561 0.19270 0.36082 -0.17000
C 	C 	0.75292 0.52610 0.08780 -0.08200
H 	H 	0.76980 0.58750 0.07530 0.06500
C 	C 	0.70939 0.52040 0.06390 0.01500
H 	H 	0.69650 0.57810 0.03530 0.03600
C 	C 	0.95253 0.55020 0.13700 -0.12500
H 	H 	0.96410 0.48040 0.16160 0.07200
C 	C 	0.87461 0.22190 0.28680 -0.11700
H 	H 	0.84610 0.19960 0.26850 0.07900
C 	C 	0.95708 0.29070 0.34190 0.07600
H 	H 	0.98520 0.31550 0.36100 0.00200
C 	C 	0.89625 0.31710 0.26700 0.05000
C 	C 	0.93777 0.35270 0.29520 -0.12100
H 	H 	0.95270 0.41970 0.28210 0.07700
