data_crystal

_cell_length_a 16.28500
_cell_length_b 11.93140
_cell_length_c 12.20990
_cell_angle_alpha 90.00000
_cell_angle_beta  90.00000
_cell_angle_gamma 90.00000

_symmetry_space_group_name_	'P 1'
_symmetry_space_group_name_H-M	'P 1'

loop_
_symmetry_equiv_pos_as_xyz
  x,y,z

loop_
_atom_site_label
_atom_site_type_symbol
_atom_site_fract_x
_atom_site_fract_y
_atom_site_fract_z
_atom_site_charge
Eu	Eu	0.97045 0.16060 0.28216 2.17200
Br	Br	0.96990 0.19500 0.51500 -0.46700
Cl	Cl	0.98730 0.20450 0.50000 0.06900
S 	S 	0.79013 0.52080 0.52090 0.12700
O 	O 	0.91650 0.35300 0.30200 -0.55900
O 	O 	0.92270 0.73590 0.21530 -0.53300
C 	C 	0.65090 0.50300 0.64170 0.42600
O 	O 	0.66840 0.59950 0.67760 -0.45200
O 	O 	0.58060 0.46190 0.65870 -0.58200
O 	O 	0.91400 0.52840 0.35740 -0.41400
C 	C 	0.87240 0.68870 0.15340 0.47700
O 	O 	0.87590 0.58680 0.12820 -0.44000
C 	C 	0.70900 0.44480 0.57160 -0.13800
C 	C 	0.82000 0.40970 0.44290 -0.11400
C 	C 	0.88820 0.42960 0.36530 0.40300
C 	C 	0.70650 0.33940 0.52850 0.02800
H 	H 	0.66580 0.28540 0.54650 0.03300
C 	C 	0.80210 0.75300 0.10850 -0.14000
S 	S 	0.73328 0.68540 0.02360 0.12900
O 	O 	0.55560 0.88520 0.94110 -0.47700
O 	O 	0.59440 0.71800 0.88130 -0.49700
C 	C 	0.60330 0.80410 0.93650 0.50100
C 	C 	0.71080 0.89390 0.06460 0.01100
H 	H 	0.68840 0.96740 0.06600 0.06500
C 	C 	0.67620 0.80520 0.00850 -0.13300
C 	C 	0.77100 0.31970 0.45430 0.00300
H 	H 	0.77910 0.25090 0.41670 0.04800
C 	C 	0.78350 0.86220 0.11980 0.03700
H 	H 	0.81620 0.91310 0.16080 0.04400
Eu	Eu	0.02955 0.83940 0.28216 1.99500
Br	Br	0.03010 0.80500 0.51500 -0.50900
Cl	Cl	0.01270 0.79550 0.50000 0.05900
S 	S 	0.20987 0.47920 0.52090 0.10200
O 	O 	0.08350 0.64700 0.30200 -0.56900
O 	O 	0.07730 0.26410 0.21530 -0.61400
C 	C 	0.34910 0.49700 0.64170 0.42500
O 	O 	0.33160 0.40050 0.67760 -0.45800
O 	O 	0.41940 0.53810 0.65870 -0.58300
O 	O 	0.08600 0.47160 0.35740 -0.45400
C 	C 	0.12760 0.31130 0.15340 0.49100
O 	O 	0.12410 0.41320 0.12820 -0.46800
C 	C 	0.29100 0.55520 0.57160 -0.13600
C 	C 	0.18000 0.59030 0.44290 -0.11300
C 	C 	0.11180 0.57040 0.36530 0.39900
C 	C 	0.29350 0.66060 0.52850 0.02800
H 	H 	0.33420 0.71460 0.54650 0.03100
C 	C 	0.19790 0.24700 0.10850 -0.16000
S 	S 	0.26672 0.31460 0.02360 0.12100
O 	O 	0.44440 0.11480 0.94110 -0.50500
O 	O 	0.40560 0.28200 0.88130 -0.50000
C 	C 	0.39670 0.19590 0.93650 0.49500
C 	C 	0.28920 0.10610 0.06460 -0.00300
H 	H 	0.31160 0.03260 0.06600 0.04400
C 	C 	0.32380 0.19480 0.00850 -0.13500
C 	C 	0.22900 0.68030 0.45430 0.00000
H 	H 	0.22090 0.74910 0.41670 0.05200
C 	C 	0.21650 0.13780 0.11980 0.03800
H 	H 	0.18380 0.08690 0.16080 0.01600
Eu	Eu	0.52955 0.66060 0.71784 2.08000
Br	Br	0.53010 0.69500 0.48500 -0.48700
Cl	Cl	0.51270 0.70450 0.50000 0.06700
S 	S 	0.70987 0.02080 0.47910 0.03000
O 	O 	0.58350 0.85300 0.69800 -0.57200
O 	O 	0.57730 0.23590 0.78470 -0.58300
C 	C 	0.84910 0.00300 0.35830 0.29300
O 	O 	0.83160 0.09950 0.32240 -0.43500
O 	O 	0.91940 0.96190 0.34130 -0.48300
O 	O 	0.58600 0.02840 0.64260 -0.47800
C 	C 	0.62760 0.18870 0.84660 0.48800
O 	O 	0.62410 0.08680 0.87180 -0.47700
C 	C 	0.79100 0.94480 0.42840 -0.01400
C 	C 	0.68000 0.90970 0.55710 -0.08900
C 	C 	0.61180 0.92960 0.63470 0.44700
C 	C 	0.79350 0.83940 0.47150 -0.02800
H 	H 	0.83420 0.78540 0.45350 0.06300
C 	C 	0.69790 0.25300 0.89150 -0.15400
S 	S 	0.76672 0.18540 0.97640 0.11100
O 	O 	0.94440 0.38520 0.05890 -0.46100
O 	O 	0.90560 0.21800 0.11870 -0.49500
C 	C 	0.89670 0.30410 0.06350 0.49800
C 	C 	0.78920 0.39390 0.93540 0.00000
H 	H 	0.81160 0.46740 0.93400 0.05900
C 	C 	0.82380 0.30520 0.99150 -0.13100
C 	C 	0.72900 0.81970 0.54570 0.02700
H 	H 	0.72090 0.75090 0.58330 0.04500
C 	C 	0.71650 0.36220 0.88020 0.04100
H 	H 	0.68380 0.41310 0.83920 0.02500
Eu	Eu	0.47045 0.33940 0.71784 2.07300
Br	Br	0.46990 0.30500 0.48500 -0.48700
Cl	Cl	0.48730 0.29550 0.50000 0.06300
S 	S 	0.29013 0.97920 0.47910 0.17900
O 	O 	0.41650 0.14700 0.69800 -0.56400
O 	O 	0.42270 0.76410 0.78470 -0.57900
C 	C 	0.15090 0.99700 0.35830 0.51900
O 	O 	0.16840 0.90050 0.32240 -0.46700
O 	O 	0.08060 0.03810 0.34130 -0.65100
O 	O 	0.41400 0.97160 0.64260 -0.40400
C 	C 	0.37240 0.81130 0.84660 0.48300
O 	O 	0.37590 0.91320 0.87180 -0.44500
C 	C 	0.20900 0.05520 0.42840 -0.22800
C 	C 	0.32000 0.09030 0.55710 -0.13300
C 	C 	0.38820 0.07040 0.63470 0.36000
C 	C 	0.20650 0.16060 0.47150 0.07000
H 	H 	0.16580 0.21460 0.45350 0.00700
C 	C 	0.30210 0.74700 0.89150 -0.15300
S 	S 	0.23328 0.81460 0.97640 0.13800
O 	O 	0.05560 0.61480 0.05890 -0.50600
O 	O 	0.09440 0.78200 0.11870 -0.49200
C 	C 	0.10330 0.69590 0.06350 0.49400
C 	C 	0.21080 0.60610 0.93540 0.00200
H 	H 	0.18840 0.53260 0.93400 0.04900
C 	C 	0.17620 0.69480 0.99150 -0.13600
C 	C 	0.27100 0.18030 0.54570 -0.01800
H 	H 	0.27910 0.24910 0.58330 0.05400
C 	C 	0.28350 0.63780 0.88020 0.03700
H 	H 	0.31620 0.58690 0.83920 0.02400
Eu	Eu	0.00000 0.50000 0.19727 1.93500
Eu	Eu	0.50000 0.00000 0.80273 1.98200
Cl	Cl	-0.00000 0.00000 0.11970 -0.68800
Cl	Cl	0.50000 0.50000 0.88030 -0.62100
