data_crystal

_cell_length_a 27.73640
_cell_length_b 27.73640
_cell_length_c 27.73640
_cell_angle_alpha 90.00000
_cell_angle_beta  90.00000
_cell_angle_gamma 90.00000

_symmetry_space_group_name_	'P 1'
_symmetry_space_group_name_H-M	'P 1'

loop_
_symmetry_equiv_pos_as_xyz
  x,y,z

loop_
_atom_site_label
_atom_site_type_symbol
_atom_site_fract_x
_atom_site_fract_y
_atom_site_fract_z
_atom_site_charge
Zn	Zn	0.00000 0.80126 0.50000 1.20300
Zn	Zn	0.00000 0.19874 0.50000 1.20300
Zn	Zn	0.50000 0.00000 0.80126 1.20300
Zn	Zn	0.50000 -0.00000 0.19874 1.20300
Zn	Zn	0.80126 0.50000 -0.00000 1.20300
Zn	Zn	0.19874 0.50000 -0.00000 1.20400
Zn	Zn	0.30126 0.50000 -0.00000 1.20500
Zn	Zn	0.69874 0.50000 -0.00000 1.20500
Zn	Zn	0.50000 0.00000 0.69874 1.20500
Zn	Zn	0.50000 0.00000 0.30126 1.20500
Zn	Zn	0.00000 0.30126 0.50000 1.20500
Zn	Zn	0.00000 0.69874 0.50000 1.20500
H 	H 	0.82875 0.67269 0.67427 0.04700
H 	H 	0.89129 0.67131 0.60838 0.03900
H 	H 	0.17125 0.32731 0.67427 0.04400
H 	H 	0.10871 0.32869 0.60838 0.03200
H 	H 	0.17125 0.67269 0.32573 0.04300
H 	H 	0.10871 0.67131 0.39162 0.03200
H 	H 	0.82875 0.32731 0.32573 0.04600
H 	H 	0.89129 0.32869 0.39162 0.03800
H 	H 	0.67427 0.82875 0.67269 0.04600
H 	H 	0.60838 0.89129 0.67131 0.03900
H 	H 	0.67427 0.17125 0.32731 0.04400
H 	H 	0.60838 0.10871 0.32869 0.03200
H 	H 	0.32573 0.17125 0.67269 0.04300
H 	H 	0.39162 0.10871 0.67131 0.03200
H 	H 	0.32573 0.82875 0.32731 0.04600
H 	H 	0.39162 0.89129 0.32869 0.03800
H 	H 	0.67269 0.67427 0.82875 0.04600
H 	H 	0.67131 0.60838 0.89129 0.03900
H 	H 	0.32731 0.67427 0.17125 0.04400
H 	H 	0.32869 0.60838 0.10871 0.03200
H 	H 	0.67269 0.32573 0.17125 0.04300
H 	H 	0.67131 0.39162 0.10871 0.03200
H 	H 	0.32731 0.32573 0.82875 0.04600
H 	H 	0.32869 0.39162 0.89129 0.03800
H 	H 	0.17269 0.32875 0.82573 0.04300
H 	H 	0.17131 0.39129 0.89162 0.03400
H 	H 	0.82731 0.67125 0.82573 0.04900
H 	H 	0.82869 0.60871 0.89162 0.03900
H 	H 	0.17269 0.67125 0.17427 0.04100
H 	H 	0.17131 0.60871 0.10838 0.02900
H 	H 	0.82731 0.32875 0.17427 0.04500
H 	H 	0.82869 0.39129 0.10838 0.03300
H 	H 	0.32875 0.17427 0.82731 0.04500
H 	H 	0.39129 0.10838 0.82869 0.03300
H 	H 	0.67125 0.17427 0.17269 0.04100
H 	H 	0.60871 0.10838 0.17131 0.02900
H 	H 	0.67125 0.82573 0.82731 0.04900
H 	H 	0.60871 0.89162 0.82869 0.03900
H 	H 	0.32875 0.82573 0.17269 0.04300
H 	H 	0.39129 0.89162 0.17131 0.03400
H 	H 	0.17427 0.17269 0.67125 0.04100
H 	H 	0.10838 0.17131 0.60871 0.02900
H 	H 	0.17427 0.82731 0.32875 0.04500
H 	H 	0.10838 0.82869 0.39129 0.03300
H 	H 	0.82573 0.17269 0.32875 0.04300
H 	H 	0.89162 0.17131 0.39129 0.03400
H 	H 	0.82573 0.82731 0.67125 0.04900
H 	H 	0.89162 0.82869 0.60871 0.03900
H 	H 	0.17125 0.32731 0.32573 0.04300
H 	H 	0.10871 0.32869 0.39162 0.03100
H 	H 	0.82875 0.67269 0.32573 0.04600
H 	H 	0.89129 0.67131 0.39162 0.03900
H 	H 	0.82875 0.32731 0.67427 0.04600
H 	H 	0.89129 0.32869 0.60838 0.03900
H 	H 	0.17125 0.67269 0.67427 0.04400
H 	H 	0.10871 0.67131 0.60838 0.03200
H 	H 	0.32573 0.17125 0.32731 0.04300
H 	H 	0.39162 0.10871 0.32869 0.03100
H 	H 	0.32573 0.82875 0.67269 0.04600
H 	H 	0.39162 0.89129 0.67131 0.03900
H 	H 	0.67427 0.82875 0.32731 0.04600
H 	H 	0.60838 0.89129 0.32869 0.03900
H 	H 	0.67427 0.17125 0.67269 0.04400
H 	H 	0.60838 0.10871 0.67131 0.03200
H 	H 	0.32731 0.32573 0.17125 0.04300
H 	H 	0.32869 0.39162 0.10871 0.03100
H 	H 	0.67269 0.32573 0.82875 0.04600
H 	H 	0.67131 0.39162 0.89129 0.03900
H 	H 	0.32731 0.67427 0.82875 0.04600
H 	H 	0.32869 0.60838 0.89129 0.03900
H 	H 	0.67269 0.67427 0.17125 0.04400
H 	H 	0.67131 0.60838 0.10871 0.03200
H 	H 	0.82731 0.67125 0.17427 0.04600
H 	H 	0.82869 0.60871 0.10838 0.03300
H 	H 	0.17269 0.32875 0.17427 0.04000
H 	H 	0.17131 0.39129 0.10838 0.02800
H 	H 	0.82731 0.32875 0.82573 0.04800
H 	H 	0.82869 0.39129 0.89162 0.03800
H 	H 	0.17269 0.67125 0.82573 0.04400
H 	H 	0.17131 0.60871 0.89162 0.03500
H 	H 	0.67125 0.82573 0.17269 0.04400
H 	H 	0.60871 0.89162 0.17131 0.03500
H 	H 	0.32875 0.82573 0.82731 0.04800
H 	H 	0.39129 0.89162 0.82869 0.03800
H 	H 	0.32875 0.17427 0.17269 0.04000
H 	H 	0.39129 0.10838 0.17131 0.02800
H 	H 	0.67125 0.17427 0.82731 0.04600
H 	H 	0.60871 0.10838 0.82869 0.03300
H 	H 	0.82573 0.82731 0.32875 0.04800
H 	H 	0.89162 0.82869 0.39129 0.03800
H 	H 	0.82573 0.17269 0.67125 0.04400
H 	H 	0.89162 0.17131 0.60871 0.03500
H 	H 	0.17427 0.82731 0.67125 0.04600
H 	H 	0.10838 0.82869 0.60871 0.03300
H 	H 	0.17427 0.17269 0.32875 0.04000
H 	H 	0.10838 0.17131 0.39129 0.02800
H 	H 	0.74922 0.81436 0.68642 0.04200
H 	H 	0.25078 0.18564 0.68642 0.03800
H 	H 	0.25078 0.81436 0.31358 0.04000
H 	H 	0.74922 0.18564 0.31358 0.03800
H 	H 	0.68642 0.74922 0.81436 0.04200
H 	H 	0.68642 0.25078 0.18564 0.03800
H 	H 	0.31358 0.25078 0.81436 0.04000
H 	H 	0.31358 0.74922 0.18564 0.03800
H 	H 	0.81358 0.68564 0.75078 0.04200
H 	H 	0.18642 0.68564 0.24922 0.03800
H 	H 	0.81358 0.31436 0.24922 0.04000
H 	H 	0.18642 0.31436 0.75078 0.03800
H 	H 	0.25078 0.18564 0.31358 0.03700
H 	H 	0.74922 0.81436 0.31358 0.04100
H 	H 	0.74922 0.18564 0.68642 0.03900
H 	H 	0.25078 0.81436 0.68642 0.04100
H 	H 	0.31358 0.25078 0.18564 0.03700
H 	H 	0.31358 0.74922 0.81436 0.04100
H 	H 	0.68642 0.74922 0.18564 0.03900
H 	H 	0.68642 0.25078 0.81436 0.04100
H 	H 	0.18642 0.31436 0.24922 0.03700
H 	H 	0.81358 0.31436 0.75078 0.04100
H 	H 	0.18642 0.68564 0.75078 0.03900
H 	H 	0.81358 0.68564 0.24922 0.04100
C 	C 	0.84273 0.70796 0.65846 -0.06700
C 	C 	0.87743 0.70721 0.62282 0.04100
C 	C 	0.15727 0.29204 0.65846 -0.07200
C 	C 	0.12257 0.29279 0.62282 0.03900
C 	C 	0.15727 0.70796 0.34154 -0.07200
C 	C 	0.12257 0.70721 0.37718 0.03900
C 	C 	0.84273 0.29204 0.34154 -0.06800
C 	C 	0.87743 0.29279 0.37718 0.04000
C 	C 	0.65846 0.84273 0.70796 -0.06700
C 	C 	0.62282 0.87743 0.70721 0.04100
C 	C 	0.65846 0.15727 0.29204 -0.07200
C 	C 	0.62282 0.12257 0.29279 0.03900
C 	C 	0.34154 0.15727 0.70796 -0.07200
C 	C 	0.37718 0.12257 0.70721 0.03900
C 	C 	0.34154 0.84273 0.29204 -0.06800
C 	C 	0.37718 0.87743 0.29279 0.04000
C 	C 	0.70796 0.65846 0.84273 -0.06700
C 	C 	0.70721 0.62282 0.87743 0.04100
C 	C 	0.29204 0.65846 0.15727 -0.07200
C 	C 	0.29279 0.62282 0.12257 0.03900
C 	C 	0.70796 0.34154 0.15727 -0.07200
C 	C 	0.70721 0.37718 0.12257 0.03900
C 	C 	0.29204 0.34154 0.84273 -0.06800
C 	C 	0.29279 0.37718 0.87743 0.04000
C 	C 	0.20796 0.34273 0.84154 -0.06900
C 	C 	0.20721 0.37743 0.87718 0.03900
C 	C 	0.79204 0.65727 0.84154 -0.06700
C 	C 	0.79279 0.62257 0.87718 0.04100
C 	C 	0.20796 0.65727 0.15846 -0.07300
C 	C 	0.20721 0.62257 0.12282 0.03900
C 	C 	0.79204 0.34273 0.15846 -0.07100
C 	C 	0.79279 0.37743 0.12282 0.04000
C 	C 	0.34273 0.15846 0.79204 -0.07100
C 	C 	0.37743 0.12282 0.79279 0.04000
C 	C 	0.65727 0.15846 0.20796 -0.07200
C 	C 	0.62257 0.12282 0.20721 0.03900
C 	C 	0.65727 0.84154 0.79204 -0.06700
C 	C 	0.62257 0.87718 0.79279 0.04100
C 	C 	0.34273 0.84154 0.20796 -0.06900
C 	C 	0.37743 0.87718 0.20721 0.03900
C 	C 	0.15846 0.20796 0.65727 -0.07200
C 	C 	0.12282 0.20721 0.62257 0.03900
C 	C 	0.15846 0.79204 0.34273 -0.07100
C 	C 	0.12282 0.79279 0.37743 0.04000
C 	C 	0.84154 0.20796 0.34273 -0.06900
C 	C 	0.87718 0.20721 0.37743 0.03900
C 	C 	0.84154 0.79204 0.65727 -0.06700
C 	C 	0.87718 0.79279 0.62257 0.04100
C 	C 	0.15727 0.29204 0.34154 -0.07200
C 	C 	0.12257 0.29279 0.37718 0.03900
C 	C 	0.84273 0.70796 0.34154 -0.06800
C 	C 	0.87743 0.70721 0.37718 0.04000
C 	C 	0.84273 0.29204 0.65846 -0.06800
C 	C 	0.87743 0.29279 0.62282 0.04000
C 	C 	0.15727 0.70796 0.65846 -0.07100
C 	C 	0.12257 0.70721 0.62282 0.04000
C 	C 	0.34154 0.15727 0.29204 -0.07200
C 	C 	0.37718 0.12257 0.29279 0.03900
C 	C 	0.34154 0.84273 0.70796 -0.06800
C 	C 	0.37718 0.87743 0.70721 0.04000
C 	C 	0.65846 0.84273 0.29204 -0.06800
C 	C 	0.62282 0.87743 0.29279 0.04000
C 	C 	0.65846 0.15727 0.70796 -0.07100
C 	C 	0.62282 0.12257 0.70721 0.04000
C 	C 	0.29204 0.34154 0.15727 -0.07200
C 	C 	0.29279 0.37718 0.12257 0.03900
C 	C 	0.70796 0.34154 0.84273 -0.06800
C 	C 	0.70721 0.37718 0.87743 0.04000
C 	C 	0.29204 0.65846 0.84273 -0.06800
C 	C 	0.29279 0.62282 0.87743 0.04000
C 	C 	0.70796 0.65846 0.15727 -0.07100
C 	C 	0.70721 0.62282 0.12257 0.04000
C 	C 	0.79204 0.65727 0.15846 -0.07100
C 	C 	0.79279 0.62257 0.12282 0.04100
C 	C 	0.20796 0.34273 0.15846 -0.07300
C 	C 	0.20721 0.37743 0.12282 0.03800
C 	C 	0.79204 0.34273 0.84154 -0.06800
C 	C 	0.79279 0.37743 0.87718 0.04100
C 	C 	0.20796 0.65727 0.84154 -0.06900
C 	C 	0.20721 0.62257 0.87718 0.04000
C 	C 	0.65727 0.84154 0.20796 -0.06900
C 	C 	0.62257 0.87718 0.20721 0.04000
C 	C 	0.34273 0.84154 0.79204 -0.06700
C 	C 	0.37743 0.87718 0.79279 0.04100
C 	C 	0.34273 0.15846 0.20796 -0.07300
C 	C 	0.37743 0.12282 0.20721 0.03800
C 	C 	0.65727 0.15846 0.79204 -0.07100
C 	C 	0.62257 0.12282 0.79279 0.04100
C 	C 	0.84154 0.79204 0.34273 -0.06700
C 	C 	0.87718 0.79279 0.37743 0.04100
C 	C 	0.84154 0.20796 0.65727 -0.06900
C 	C 	0.87718 0.20721 0.62257 0.04000
C 	C 	0.15846 0.79204 0.65727 -0.07100
C 	C 	0.12282 0.79279 0.62257 0.04100
C 	C 	0.15846 0.20796 0.34273 -0.07300
C 	C 	0.12282 0.20721 0.37743 0.03800
C 	C 	0.00000 0.97379 0.50000 0.04700
C 	C 	0.00000 0.02621 0.50000 -0.04800
C 	C 	0.50000 0.00000 0.97379 0.04700
C 	C 	0.50000 0.00000 0.02621 -0.04800
C 	C 	0.97379 0.50000 -0.00000 0.04700
C 	C 	0.02621 0.50000 -0.00000 -0.04800
C 	C 	0.47379 0.50000 -0.00000 0.02700
C 	C 	0.52621 0.50000 -0.00000 0.02700
C 	C 	0.50000 0.00000 0.52621 0.02700
C 	C 	0.50000 0.00000 0.47379 0.02600
C 	C 	0.00000 0.47379 0.50000 0.02700
C 	C 	0.00000 0.52621 0.50000 0.02700
C 	C 	0.93337 0.75000 0.56663 0.40900
C 	C 	0.89573 0.75000 0.60427 -0.12500
C 	C 	0.82385 0.75000 0.67615 0.03200
C 	C 	0.78586 0.75000 0.71414 0.01200
C 	C 	0.06663 0.25000 0.56663 0.41200
C 	C 	0.10427 0.25000 0.60427 -0.13300
C 	C 	0.17615 0.25000 0.67615 0.03100
C 	C 	0.21414 0.25000 0.71414 0.00800
C 	C 	0.06663 0.75000 0.43337 0.41200
C 	C 	0.10427 0.75000 0.39573 -0.13300
C 	C 	0.17615 0.75000 0.32385 0.03100
C 	C 	0.21414 0.75000 0.28586 0.00800
C 	C 	0.93337 0.25000 0.43337 0.40900
C 	C 	0.89573 0.25000 0.39573 -0.12600
C 	C 	0.82385 0.25000 0.32385 0.03100
C 	C 	0.78586 0.25000 0.28586 0.00900
C 	C 	0.56663 0.93337 0.75000 0.40900
C 	C 	0.60427 0.89573 0.75000 -0.12500
C 	C 	0.67615 0.82385 0.75000 0.03200
C 	C 	0.71414 0.78586 0.75000 0.01100
C 	C 	0.56663 0.06663 0.25000 0.41200
C 	C 	0.60427 0.10427 0.25000 -0.13300
C 	C 	0.67615 0.17615 0.25000 0.03100
C 	C 	0.71414 0.21414 0.25000 0.00800
C 	C 	0.43337 0.06663 0.75000 0.41200
C 	C 	0.39573 0.10427 0.75000 -0.13300
C 	C 	0.32385 0.17615 0.75000 0.03100
C 	C 	0.28586 0.21414 0.75000 0.00800
C 	C 	0.43337 0.93337 0.25000 0.40900
C 	C 	0.39573 0.89573 0.25000 -0.12600
C 	C 	0.32385 0.82385 0.25000 0.03000
C 	C 	0.28586 0.78586 0.25000 0.00900
C 	C 	0.75000 0.56663 0.93337 0.40900
C 	C 	0.75000 0.60427 0.89573 -0.12500
C 	C 	0.75000 0.67615 0.82385 0.03200
C 	C 	0.75000 0.71414 0.78586 0.01100
C 	C 	0.25000 0.56663 0.06663 0.41200
C 	C 	0.25000 0.60427 0.10427 -0.13300
C 	C 	0.25000 0.67615 0.17615 0.03000
C 	C 	0.25000 0.71414 0.21414 0.00700
C 	C 	0.75000 0.43337 0.06663 0.41200
C 	C 	0.75000 0.39573 0.10427 -0.13300
C 	C 	0.75000 0.32385 0.17615 0.03100
C 	C 	0.75000 0.28586 0.21414 0.00800
C 	C 	0.25000 0.43337 0.93337 0.40900
C 	C 	0.25000 0.39573 0.89573 -0.12600
C 	C 	0.25000 0.32385 0.82385 0.03000
C 	C 	0.25000 0.28586 0.78586 0.00900
C 	C 	0.06663 0.25000 0.43337 0.41200
C 	C 	0.10427 0.25000 0.39573 -0.13400
C 	C 	0.17615 0.25000 0.32385 0.03000
C 	C 	0.21414 0.25000 0.28586 0.00700
C 	C 	0.93337 0.75000 0.43337 0.40900
C 	C 	0.89573 0.75000 0.39573 -0.12500
C 	C 	0.82385 0.75000 0.32385 0.03100
C 	C 	0.78586 0.75000 0.28586 0.01100
C 	C 	0.93337 0.25000 0.56663 0.40900
C 	C 	0.89573 0.25000 0.60427 -0.12600
C 	C 	0.82385 0.25000 0.67615 0.03100
C 	C 	0.78586 0.25000 0.71414 0.01000
C 	C 	0.06663 0.75000 0.56663 0.41200
C 	C 	0.10427 0.75000 0.60427 -0.13200
C 	C 	0.17615 0.75000 0.67615 0.03100
C 	C 	0.21414 0.75000 0.71414 0.00900
C 	C 	0.43337 0.06663 0.25000 0.41200
C 	C 	0.39573 0.10427 0.25000 -0.13400
C 	C 	0.32385 0.17615 0.25000 0.03000
C 	C 	0.28586 0.21414 0.25000 0.00600
C 	C 	0.43337 0.93337 0.75000 0.40900
C 	C 	0.39573 0.89573 0.75000 -0.12500
C 	C 	0.32385 0.82385 0.75000 0.03100
C 	C 	0.28586 0.78586 0.75000 0.01000
C 	C 	0.56663 0.93337 0.25000 0.40900
C 	C 	0.60427 0.89573 0.25000 -0.12600
C 	C 	0.67615 0.82385 0.25000 0.03100
C 	C 	0.71414 0.78586 0.25000 0.01000
C 	C 	0.56663 0.06663 0.75000 0.41200
C 	C 	0.60427 0.10427 0.75000 -0.13200
C 	C 	0.67615 0.17615 0.75000 0.03100
C 	C 	0.71414 0.21414 0.75000 0.00900
C 	C 	0.25000 0.43337 0.06663 0.41200
C 	C 	0.25000 0.39573 0.10427 -0.13400
C 	C 	0.25000 0.32385 0.17615 0.03000
C 	C 	0.25000 0.28586 0.21414 0.00600
C 	C 	0.75000 0.43337 0.93337 0.40900
C 	C 	0.75000 0.39573 0.89573 -0.12500
C 	C 	0.75000 0.32385 0.82385 0.03100
C 	C 	0.75000 0.28586 0.78586 0.01000
C 	C 	0.25000 0.56663 0.93337 0.40900
C 	C 	0.25000 0.60427 0.89573 -0.12600
C 	C 	0.25000 0.67615 0.82385 0.03100
C 	C 	0.25000 0.71414 0.78586 0.01000
C 	C 	0.75000 0.56663 0.06663 0.41200
C 	C 	0.75000 0.60427 0.10427 -0.13200
C 	C 	0.75000 0.67615 0.17615 0.03100
C 	C 	0.75000 0.71414 0.21414 0.00900
C 	C 	0.75000 0.78491 0.71509 -0.05000
C 	C 	0.25000 0.21509 0.71509 -0.05100
C 	C 	0.25000 0.78491 0.28491 -0.05000
C 	C 	0.75000 0.21509 0.28491 -0.05100
C 	C 	0.71509 0.75000 0.78491 -0.04900
C 	C 	0.71509 0.25000 0.21509 -0.05000
C 	C 	0.28491 0.25000 0.78491 -0.05000
C 	C 	0.28491 0.75000 0.21509 -0.05000
C 	C 	0.78491 0.71509 0.75000 -0.04900
C 	C 	0.21509 0.71509 0.25000 -0.05000
C 	C 	0.78491 0.28491 0.25000 -0.05000
C 	C 	0.21509 0.28491 0.75000 -0.05100
C 	C 	0.25000 0.21509 0.28491 -0.05100
C 	C 	0.75000 0.78491 0.28491 -0.05000
C 	C 	0.75000 0.21509 0.71509 -0.05000
C 	C 	0.25000 0.78491 0.71509 -0.05000
C 	C 	0.28491 0.25000 0.21509 -0.05100
C 	C 	0.28491 0.75000 0.78491 -0.05000
C 	C 	0.71509 0.75000 0.21509 -0.05000
C 	C 	0.71509 0.25000 0.78491 -0.05000
C 	C 	0.21509 0.28491 0.25000 -0.05100
C 	C 	0.78491 0.28491 0.75000 -0.05000
C 	C 	0.21509 0.71509 0.75000 -0.05000
C 	C 	0.78491 0.71509 0.25000 -0.05000
C 	C 	0.95920 0.89800 0.50000 0.08000
C 	C 	0.95690 0.94940 0.50000 -0.05300
C 	C 	0.04080 0.10200 0.50000 0.03400
C 	C 	0.04310 0.05060 0.50000 -0.05200
C 	C 	0.04080 0.89800 0.50000 0.05100
C 	C 	0.04310 0.94940 0.50000 -0.07900
C 	C 	0.95920 0.10200 0.50000 0.06300
C 	C 	0.95690 0.05060 0.50000 -0.02600
C 	C 	0.50000 0.95920 0.89800 0.08000
C 	C 	0.50000 0.95690 0.94940 -0.05300
C 	C 	0.50000 0.04080 0.10200 0.03400
C 	C 	0.50000 0.04310 0.05060 -0.05200
C 	C 	0.50000 0.04080 0.89800 0.05100
C 	C 	0.50000 0.04310 0.94940 -0.07900
C 	C 	0.50000 0.95920 0.10200 0.06300
C 	C 	0.50000 0.95690 0.05060 -0.02600
C 	C 	0.89800 0.50000 0.95920 0.08000
C 	C 	0.94940 0.50000 0.95690 -0.05300
C 	C 	0.10200 0.50000 0.04080 0.03400
C 	C 	0.05060 0.50000 0.04310 -0.05200
C 	C 	0.89800 0.50000 0.04080 0.05100
C 	C 	0.94940 0.50000 0.04310 -0.07900
C 	C 	0.10200 0.50000 0.95920 0.06300
C 	C 	0.05060 0.50000 0.95690 -0.02600
C 	C 	0.39800 0.45920 -0.00000 0.04600
C 	C 	0.44940 0.45690 -0.00000 -0.07300
C 	C 	0.60200 0.54080 -0.00000 0.04500
C 	C 	0.55060 0.54310 -0.00000 -0.07200
C 	C 	0.39800 0.54080 -0.00000 0.04500
C 	C 	0.44940 0.54310 -0.00000 -0.07200
C 	C 	0.60200 0.45920 -0.00000 0.04600
C 	C 	0.55060 0.45690 -0.00000 -0.07200
C 	C 	0.45920 0.00000 0.60200 0.04600
C 	C 	0.45690 0.00000 0.55060 -0.07200
C 	C 	0.54080 0.00000 0.39800 0.04600
C 	C 	0.54310 0.00000 0.44940 -0.07200
C 	C 	0.54080 0.00000 0.60200 0.04500
C 	C 	0.54310 0.00000 0.55060 -0.07200
C 	C 	0.45920 0.00000 0.39800 0.04600
C 	C 	0.45690 0.00000 0.44940 -0.07200
C 	C 	-0.00000 0.39800 0.54080 0.04500
C 	C 	-0.00000 0.44940 0.54310 -0.07200
C 	C 	0.00000 0.60200 0.45920 0.04600
C 	C 	0.00000 0.55060 0.45690 -0.07200
C 	C 	0.00000 0.39800 0.45920 0.04600
C 	C 	0.00000 0.44940 0.45690 -0.07300
C 	C 	0.00000 0.60200 0.54080 0.04500
C 	C 	-0.00000 0.55060 0.54310 -0.07200
N 	N 	0.00000 0.87411 0.50000 -0.26400
N 	N 	0.00000 0.12589 0.50000 -0.25900
N 	N 	0.50000 0.00000 0.87411 -0.26400
N 	N 	0.50000 0.00000 0.12589 -0.25900
N 	N 	0.87411 0.50000 -0.00000 -0.26400
N 	N 	0.12589 0.50000 -0.00000 -0.25900
N 	N 	0.37411 0.50000 -0.00000 -0.24600
N 	N 	0.62589 0.50000 -0.00000 -0.24600
N 	N 	0.50000 0.00000 0.62589 -0.24600
N 	N 	0.50000 0.00000 0.37411 -0.24600
N 	N 	0.00000 0.37411 0.50000 -0.24600
N 	N 	0.00000 0.62589 0.50000 -0.24600
O 	O 	0.94838 0.78961 0.55142 -0.45400
O 	O 	0.05162 0.21039 0.55142 -0.47500
O 	O 	0.05162 0.78961 0.44858 -0.47300
O 	O 	0.94838 0.21039 0.44858 -0.45600
O 	O 	0.55142 0.94838 0.78961 -0.45400
O 	O 	0.55142 0.05162 0.21039 -0.47500
O 	O 	0.44858 0.05162 0.78961 -0.47400
O 	O 	0.44858 0.94838 0.21039 -0.45600
O 	O 	0.78961 0.55142 0.94838 -0.45400
O 	O 	0.21039 0.55142 0.05162 -0.47500
O 	O 	0.78961 0.44858 0.05162 -0.47400
O 	O 	0.21039 0.44858 0.94838 -0.45600
O 	O 	0.28961 0.44838 0.94858 -0.45200
O 	O 	0.71039 0.55162 0.94858 -0.45200
O 	O 	0.28961 0.55162 0.05142 -0.47300
O 	O 	0.71039 0.44838 0.05142 -0.47300
O 	O 	0.44838 0.05142 0.71039 -0.47300
O 	O 	0.55162 0.05142 0.28961 -0.47300
O 	O 	0.55162 0.94858 0.71039 -0.45200
O 	O 	0.44838 0.94858 0.28961 -0.45200
O 	O 	0.05142 0.28961 0.55162 -0.47300
O 	O 	0.05142 0.71039 0.44838 -0.47300
O 	O 	0.94858 0.28961 0.44838 -0.45200
O 	O 	0.94858 0.71039 0.55162 -0.45200
O 	O 	0.05162 0.21039 0.44858 -0.47500
O 	O 	0.94838 0.78961 0.44858 -0.45400
O 	O 	0.94838 0.21039 0.55142 -0.45500
O 	O 	0.05162 0.78961 0.55142 -0.47300
O 	O 	0.44858 0.05162 0.21039 -0.47500
O 	O 	0.44858 0.94838 0.78961 -0.45400
O 	O 	0.55142 0.94838 0.21039 -0.45500
O 	O 	0.55142 0.05162 0.78961 -0.47300
O 	O 	0.21039 0.44858 0.05162 -0.47500
O 	O 	0.78961 0.44858 0.94838 -0.45400
O 	O 	0.21039 0.55142 0.94838 -0.45500
O 	O 	0.78961 0.55142 0.05162 -0.47300
O 	O 	0.71039 0.55162 0.05142 -0.47300
O 	O 	0.28961 0.44838 0.05142 -0.47300
O 	O 	0.71039 0.44838 0.94858 -0.45200
O 	O 	0.28961 0.55162 0.94858 -0.45200
O 	O 	0.55162 0.94858 0.28961 -0.45200
O 	O 	0.44838 0.94858 0.71039 -0.45200
O 	O 	0.44838 0.05142 0.28961 -0.47300
O 	O 	0.55162 0.05142 0.71039 -0.47300
O 	O 	0.94858 0.71039 0.44838 -0.45200
O 	O 	0.94858 0.28961 0.55162 -0.45200
O 	O 	0.05142 0.71039 0.55162 -0.47300
O 	O 	0.05142 0.28961 0.44838 -0.47300
H 	H 	0.92456 0.87588 0.50000 0.01200
H 	H 	0.92148 0.97026 0.50000 0.05500
H 	H 	0.07544 0.12412 0.50000 0.01200
H 	H 	0.07852 0.02974 0.50000 0.02400
H 	H 	0.07544 0.87588 0.50000 0.01300
H 	H 	0.07852 0.97026 0.50000 0.05500
H 	H 	0.92456 0.12412 0.50000 0.01100
H 	H 	0.92148 0.02974 0.50000 0.02400
H 	H 	0.50000 0.92456 0.87588 0.01200
H 	H 	0.50000 0.92148 0.97026 0.05500
H 	H 	0.50000 0.07544 0.12412 0.01200
H 	H 	0.50000 0.07852 0.02974 0.02400
H 	H 	0.50000 0.07544 0.87588 0.01300
H 	H 	0.50000 0.07852 0.97026 0.05500
H 	H 	0.50000 0.92456 0.12412 0.01100
H 	H 	0.50000 0.92148 0.02974 0.02400
H 	H 	0.87588 0.50000 0.92456 0.01200
H 	H 	0.97026 0.50000 0.92148 0.05500
H 	H 	0.12412 0.50000 0.07544 0.01200
H 	H 	0.02974 0.50000 0.07852 0.02400
H 	H 	0.87588 0.50000 0.07544 0.01300
H 	H 	0.97026 0.50000 0.07852 0.05500
H 	H 	0.12412 0.50000 0.92456 0.01100
H 	H 	0.02974 0.50000 0.92148 0.02400
H 	H 	0.37588 0.42456 -0.00000 0.00600
H 	H 	0.47026 0.42148 -0.00000 0.03800
H 	H 	0.62412 0.57544 -0.00000 0.00600
H 	H 	0.53166 0.57958 -0.00000 0.03800
H 	H 	0.37588 0.57544 -0.00000 0.00600
H 	H 	0.46834 0.57958 -0.00000 0.03800
H 	H 	0.62412 0.42456 -0.00000 0.00600
H 	H 	0.52974 0.42148 -0.00000 0.03800
H 	H 	0.42456 0.00000 0.62412 0.00600
H 	H 	0.42148 0.00000 0.52974 0.03800
H 	H 	0.57544 -0.00000 0.37588 0.00600
H 	H 	0.57852 0.00000 0.47026 0.03800
H 	H 	0.57544 0.00000 0.62412 0.00600
H 	H 	0.57958 0.00000 0.53166 0.03800
H 	H 	0.42456 -0.00000 0.37588 0.00600
H 	H 	0.42148 0.00000 0.47026 0.03800
H 	H 	-0.00000 0.37588 0.57544 0.00600
H 	H 	0.00000 0.46834 0.57958 0.03800
H 	H 	0.00000 0.62412 0.42456 0.00600
H 	H 	0.00000 0.52974 0.42148 0.03800
H 	H 	0.00000 0.37588 0.42456 0.00600
H 	H 	0.00000 0.47026 0.42148 0.03800
H 	H 	0.00000 0.62412 0.57544 0.00600
H 	H 	-0.00000 0.53166 0.57958 0.03800
