data_crystal

_cell_length_a 29.16200
_cell_length_b 21.92400
_cell_length_c 14.95500
_cell_angle_alpha 90.00000
_cell_angle_beta  103.38000
_cell_angle_gamma 90.00000

_symmetry_space_group_name_	'P 1'
_symmetry_space_group_name_H-M	'P 1'

loop_
_symmetry_equiv_pos_as_xyz
  x,y,z

loop_
_atom_site_label
_atom_site_type_symbol
_atom_site_fract_x
_atom_site_fract_y
_atom_site_fract_z
_atom_site_charge
Dy	Dy	0.23540 0.75204 0.32745 1.97200
Dy	Dy	0.73402 0.26331 0.90554 1.91400
O 	O 	0.80220 0.26670 0.84170 -0.59200
O 	O 	0.84200 0.22940 0.75040 -0.47900
O 	O 	0.20180 0.82680 0.88410 -0.52100
O 	O 	0.23420 0.82370 0.03140 -0.57400
O 	O 	0.21040 0.80400 0.45020 -0.58400
O 	O 	0.24220 0.86610 0.55800 -0.46300
O 	O 	0.30110 0.76660 0.44920 -0.58700
O 	O 	0.33890 0.72160 0.57680 -0.45800
O 	O 	0.72390 0.32390 0.71320 -0.55800
O 	O 	0.67820 0.32660 0.81410 -0.48900
O 	O 	0.71520 0.30030 0.27360 -0.58000
O 	O 	0.75580 0.35740 0.20020 -0.45400
N 	N 	0.98390 0.16550 0.13540 -0.15300
N 	N 	0.07400 0.02870 0.01480 -0.16100
N 	N 	0.09360 0.05070 0.33380 -0.15800
N 	N 	0.03970 0.10890 0.23340 -0.15100
N 	N 	0.08520 0.03540 0.17530 -0.17400
N 	N 	0.02810 0.09430 0.07060 -0.16300
N 	N 	0.49220 0.67260 0.34320 -0.15300
N 	N 	0.54850 0.61480 0.30160 -0.14600
N 	N 	0.60680 0.55600 0.26400 -0.15500
N 	N 	0.59000 0.54090 0.41010 -0.17500
N 	N 	0.53130 0.59980 0.44900 -0.17400
N 	N 	0.56970 0.52910 0.55010 -0.17600
C 	C 	0.83910 0.24320 0.83000 0.46200
C 	C 	0.87910 0.22480 0.91060 -0.22500
C 	C 	0.91420 0.18430 0.89530 0.17400
H 	H 	0.91290 0.17020 0.83620 -0.01600
C 	C 	0.94890 0.16580 0.96430 -0.25900
H 	H 	0.97230 0.14040 0.95220 0.14100
C 	C 	0.95100 0.18400 0.05400 0.21700
C 	C 	0.91790 0.22580 0.07090 -0.23200
H 	H 	0.92040 0.24120 0.12980 0.13100
C 	C 	0.88060 0.24470 0.99790 0.15700
H 	H 	0.85720 0.27050 0.00910 -0.02000
C 	C 	0.01780 0.12050 0.14380 0.18500
C 	C 	0.06980 0.06300 0.24400 0.18800
C 	C 	0.06200 0.05210 0.09360 0.19400
C 	C 	0.10670 0.98460 0.01110 0.23200
C 	C 	0.14400 0.96300 0.08140 -0.28700
H 	H 	0.14850 0.97930 0.14010 0.14800
C 	C 	0.17320 0.91950 0.06510 0.22000
H 	H 	0.19570 0.90440 0.11460 -0.03700
C 	C 	0.17180 0.89530 0.97740 -0.29800
C 	C 	0.13800 0.91750 0.90840 0.22100
H 	H 	0.13600 0.90250 0.84950 -0.02700
C 	C 	0.10630 0.96120 0.92060 -0.26200
H 	H 	0.08430 0.97590 0.86990 0.13800
C 	C 	0.20560 0.84770 0.96710 0.54000
C 	C 	0.12510 0.00540 0.35970 0.20700
C 	C 	0.15760 0.01110 0.44560 -0.22100
H 	H 	0.15860 0.04710 0.47880 0.12300
C 	C 	0.18740 0.96490 0.48030 0.13900
H 	H 	0.21110 0.97170 0.53280 0.00300
C 	C 	0.18330 0.90630 0.43830 -0.20500
C 	C 	0.15070 0.89860 0.35680 0.14900
H 	H 	0.14880 0.86170 0.32540 -0.00500
C 	C 	0.12050 0.94640 0.32140 -0.22400
H 	H 	0.09620 0.93910 0.27010 0.12100
C 	C 	0.21370 0.85570 0.48500 0.46700
C 	C 	0.33690 0.73900 0.49850 0.42500
C 	C 	0.38070 0.72650 0.46130 -0.18900
C 	C 	0.41360 0.68880 0.50980 0.11900
H 	H 	0.41140 0.67590 0.56780 0.00700
C 	C 	0.45270 0.66800 0.47230 -0.20900
H 	H 	0.47450 0.63990 0.50340 0.12700
C 	C 	0.45590 0.69200 0.38820 0.20200
C 	C 	0.42170 0.72970 0.34090 -0.22500
H 	H 	0.42380 0.74260 0.28270 0.12700
C 	C 	0.38410 0.74980 0.37480 0.13400
H 	H 	0.36220 0.77740 0.34240 -0.01600
C 	C 	0.52330 0.62690 0.36720 0.19100
C 	C 	0.56250 0.55670 0.46760 0.20900
C 	C 	0.58090 0.57000 0.33020 0.18300
C 	C 	0.63560 0.50670 0.26690 0.21200
C 	C 	0.63010 0.45010 0.30440 -0.22900
H 	H 	0.60520 0.44520 0.33290 0.12200
C 	C 	0.65880 0.40060 0.30240 0.13600
H 	H 	0.65430 0.36430 0.33160 0.00100
C 	C 	0.69470 0.40600 0.25550 -0.19700
C 	C 	0.70010 0.46240 0.21400 0.14100
H 	H 	0.72320 0.46650 0.18090 -0.00200
C 	C 	0.67220 0.51070 0.22110 -0.22900
H 	H 	0.67760 0.54760 0.19470 0.12500
C 	C 	0.60070 0.48680 0.59370 0.25500
C 	C 	0.63930 0.46460 0.56460 -0.28800
H 	H 	0.64650 0.48040 0.51180 0.14700
C 	C 	0.66700 0.41960 0.61310 0.20700
H 	H 	0.69190 0.40420 0.59090 -0.03500
C 	C 	0.65890 0.39680 0.69370 -0.26000
C 	C 	0.62150 0.41920 0.72240 0.21600
H 	H 	0.61540 0.40410 0.77650 -0.02100
C 	C 	0.59290 0.46240 0.67600 -0.28400
H 	H 	0.56760 0.47630 0.69860 0.14500
C 	C 	0.68720 0.34350 0.74170 0.48800
C 	C 	0.72200 0.35120 0.24110 0.42200
Dy	Dy	0.76460 0.25204 0.17255 1.97100
Dy	Dy	0.26598 0.76331 0.59446 1.91300
O 	O 	0.19780 0.76670 0.65830 -0.59200
O 	O 	0.15800 0.72940 0.74960 -0.47900
O 	O 	0.79820 0.32680 0.61590 -0.52100
O 	O 	0.76580 0.32370 0.46860 -0.57300
O 	O 	0.78960 0.30400 0.04980 -0.58400
O 	O 	0.75780 0.36610 0.94200 -0.46300
O 	O 	0.69890 0.26660 0.05080 -0.58700
O 	O 	0.66110 0.22160 0.92320 -0.45800
O 	O 	0.27610 0.82390 0.78680 -0.55800
O 	O 	0.32180 0.82660 0.68590 -0.48900
O 	O 	0.28480 0.80030 0.22640 -0.58000
O 	O 	0.24420 0.85740 0.29980 -0.45400
N 	N 	0.01610 0.66550 0.36460 -0.15300
N 	N 	0.92600 0.52870 0.48520 -0.16200
N 	N 	0.90640 0.55070 0.16620 -0.15800
N 	N 	0.96030 0.60890 0.26660 -0.15100
N 	N 	0.91480 0.53540 0.32470 -0.17400
N 	N 	0.97190 0.59430 0.42940 -0.16300
N 	N 	0.50780 0.17260 0.15680 -0.15300
N 	N 	0.45150 0.11480 0.19840 -0.14600
N 	N 	0.39320 0.05600 0.23600 -0.15500
N 	N 	0.41000 0.04090 0.08990 -0.17500
N 	N 	0.46870 0.09980 0.05100 -0.17400
N 	N 	0.43030 0.02910 0.94990 -0.17700
C 	C 	0.16090 0.74320 0.67000 0.46200
C 	C 	0.12090 0.72480 0.58940 -0.22500
C 	C 	0.08580 0.68430 0.60470 0.17400
H 	H 	0.08710 0.67020 0.66380 -0.01600
C 	C 	0.05110 0.66580 0.53570 -0.25900
H 	H 	0.02770 0.64040 0.54780 0.14100
C 	C 	0.04900 0.68400 0.44600 0.21700
C 	C 	0.08210 0.72580 0.42910 -0.23200
H 	H 	0.07960 0.74120 0.37020 0.13100
C 	C 	0.11940 0.74470 0.50210 0.15700
H 	H 	0.14280 0.77050 0.49090 -0.02100
C 	C 	0.98220 0.62050 0.35620 0.18500
C 	C 	0.93020 0.56300 0.25600 0.18800
C 	C 	0.93800 0.55210 0.40640 0.19400
C 	C 	0.89330 0.48460 0.48890 0.23300
C 	C 	0.85600 0.46300 0.41860 -0.28800
H 	H 	0.85150 0.47930 0.35990 0.14800
C 	C 	0.82680 0.41950 0.43490 0.22000
H 	H 	0.80430 0.40440 0.38540 -0.03700
C 	C 	0.82820 0.39530 0.52260 -0.29900
C 	C 	0.86200 0.41750 0.59160 0.22100
H 	H 	0.86400 0.40250 0.65050 -0.02700
C 	C 	0.89370 0.46120 0.57940 -0.26300
H 	H 	0.91570 0.47590 0.63010 0.13800
C 	C 	0.79440 0.34770 0.53290 0.54000
C 	C 	0.87490 0.50540 0.14030 0.20700
C 	C 	0.84240 0.51110 0.05440 -0.22100
H 	H 	0.84140 0.54710 0.02120 0.12300
C 	C 	0.81260 0.46490 0.01970 0.13900
H 	H 	0.78890 0.47170 0.96720 0.00300
C 	C 	0.81670 0.40630 0.06170 -0.20500
C 	C 	0.84930 0.39860 0.14320 0.14900
H 	H 	0.85120 0.36170 0.17460 -0.00500
C 	C 	0.87950 0.44640 0.17860 -0.22400
H 	H 	0.90380 0.43910 0.22990 0.12100
C 	C 	0.78630 0.35570 0.01500 0.46700
C 	C 	0.66310 0.23900 0.00150 0.42500
C 	C 	0.61930 0.22650 0.03870 -0.18900
C 	C 	0.58640 0.18880 0.99020 0.11900
H 	H 	0.58860 0.17590 0.93220 0.00700
C 	C 	0.54730 0.16800 0.02770 -0.20800
H 	H 	0.52550 0.13990 0.99660 0.12600
C 	C 	0.54410 0.19200 0.11180 0.20200
C 	C 	0.57830 0.22970 0.15910 -0.22500
H 	H 	0.57620 0.24260 0.21730 0.12700
C 	C 	0.61590 0.24980 0.12520 0.13300
H 	H 	0.63780 0.27740 0.15760 -0.01600
C 	C 	0.47670 0.12690 0.13280 0.19100
C 	C 	0.43750 0.05670 0.03240 0.21000
C 	C 	0.41910 0.07000 0.16980 0.18300
C 	C 	0.36440 0.00670 0.23310 0.21300
C 	C 	0.36990 0.95010 0.19560 -0.23000
H 	H 	0.39480 0.94520 0.16710 0.12200
C 	C 	0.34120 0.90060 0.19760 0.13600
H 	H 	0.34570 0.86430 0.16840 0.00100
C 	C 	0.30530 0.90600 0.24450 -0.19700
C 	C 	0.29990 0.96240 0.28600 0.14100
H 	H 	0.27680 0.96650 0.31910 -0.00200
C 	C 	0.32780 0.01070 0.27890 -0.22900
H 	H 	0.32240 0.04760 0.30530 0.12500
C 	C 	0.39930 0.98680 0.90630 0.25600
C 	C 	0.36070 0.96460 0.93540 -0.28800
H 	H 	0.35350 0.98040 0.98820 0.14700
C 	C 	0.33300 0.91960 0.88690 0.20700
H 	H 	0.30810 0.90420 0.90910 -0.03500
C 	C 	0.34110 0.89680 0.80630 -0.26000
C 	C 	0.37850 0.91920 0.77760 0.21600
H 	H 	0.38460 0.90410 0.72350 -0.02200
C 	C 	0.40710 0.96240 0.82400 -0.28400
H 	H 	0.43240 0.97630 0.80140 0.14500
C 	C 	0.31280 0.84350 0.75830 0.48800
C 	C 	0.27800 0.85120 0.25890 0.42100
Dy	Dy	0.76460 0.24796 0.67255 1.97100
Dy	Dy	0.26598 0.73669 0.09446 1.91300
O 	O 	0.19780 0.73330 0.15830 -0.59200
O 	O 	0.15800 0.77060 0.24960 -0.47900
O 	O 	0.79820 0.17320 0.11590 -0.52100
O 	O 	0.76580 0.17630 0.96860 -0.57400
O 	O 	0.78960 0.19600 0.54980 -0.58400
O 	O 	0.75780 0.13390 0.44200 -0.46300
O 	O 	0.69890 0.23340 0.55080 -0.58700
O 	O 	0.66110 0.27840 0.42320 -0.45800
O 	O 	0.27610 0.67610 0.28680 -0.55800
O 	O 	0.32180 0.67340 0.18590 -0.48900
O 	O 	0.28480 0.69970 0.72640 -0.58000
O 	O 	0.24420 0.64260 0.79980 -0.45400
N 	N 	0.01610 0.83450 0.86460 -0.15300
N 	N 	0.92600 0.97130 0.98520 -0.16100
N 	N 	0.90640 0.94930 0.66620 -0.15800
N 	N 	0.96030 0.89110 0.76660 -0.15100
N 	N 	0.91480 0.96460 0.82470 -0.17400
N 	N 	0.97190 0.90570 0.92940 -0.16300
N 	N 	0.50780 0.32740 0.65680 -0.15300
N 	N 	0.45150 0.38520 0.69840 -0.14600
N 	N 	0.39320 0.44400 0.73600 -0.15500
N 	N 	0.41000 0.45910 0.58990 -0.17500
N 	N 	0.46870 0.40020 0.55100 -0.17400
N 	N 	0.43030 0.47090 0.44990 -0.17600
C 	C 	0.16090 0.75680 0.17000 0.46200
C 	C 	0.12090 0.77520 0.08940 -0.22500
C 	C 	0.08580 0.81570 0.10470 0.17400
H 	H 	0.08710 0.82980 0.16380 -0.01600
C 	C 	0.05110 0.83420 0.03570 -0.25900
H 	H 	0.02770 0.85960 0.04780 0.14100
C 	C 	0.04900 0.81600 0.94600 0.21700
C 	C 	0.08210 0.77420 0.92910 -0.23200
H 	H 	0.07960 0.75880 0.87020 0.13100
C 	C 	0.11940 0.75530 0.00210 0.15700
H 	H 	0.14280 0.72950 0.99090 -0.02000
C 	C 	0.98220 0.87950 0.85620 0.18500
C 	C 	0.93020 0.93700 0.75600 0.18800
C 	C 	0.93800 0.94790 0.90640 0.19400
C 	C 	0.89330 0.01540 0.98890 0.23200
C 	C 	0.85600 0.03700 0.91860 -0.28700
H 	H 	0.85150 0.02070 0.85990 0.14800
C 	C 	0.82680 0.08050 0.93490 0.22000
H 	H 	0.80430 0.09560 0.88540 -0.03700
C 	C 	0.82820 0.10470 0.02260 -0.29800
C 	C 	0.86200 0.08250 0.09160 0.22100
H 	H 	0.86400 0.09750 0.15050 -0.02700
C 	C 	0.89370 0.03880 0.07940 -0.26200
H 	H 	0.91570 0.02410 0.13010 0.13800
C 	C 	0.79440 0.15230 0.03290 0.54000
C 	C 	0.87490 0.99460 0.64030 0.20700
C 	C 	0.84240 0.98890 0.55440 -0.22100
H 	H 	0.84140 0.95290 0.52120 0.12300
C 	C 	0.81260 0.03510 0.51970 0.13900
H 	H 	0.78890 0.02830 0.46720 0.00300
C 	C 	0.81670 0.09370 0.56170 -0.20500
C 	C 	0.84930 0.10140 0.64320 0.14900
H 	H 	0.85120 0.13830 0.67460 -0.00500
C 	C 	0.87950 0.05360 0.67860 -0.22400
H 	H 	0.90380 0.06090 0.72990 0.12100
C 	C 	0.78630 0.14430 0.51500 0.46700
C 	C 	0.66310 0.26100 0.50150 0.42500
C 	C 	0.61930 0.27350 0.53870 -0.18900
C 	C 	0.58640 0.31120 0.49020 0.11900
H 	H 	0.58860 0.32410 0.43220 0.00700
C 	C 	0.54730 0.33200 0.52770 -0.20900
H 	H 	0.52550 0.36010 0.49660 0.12700
C 	C 	0.54410 0.30800 0.61180 0.20200
C 	C 	0.57830 0.27030 0.65910 -0.22500
H 	H 	0.57620 0.25740 0.71730 0.12700
C 	C 	0.61590 0.25020 0.62520 0.13400
H 	H 	0.63780 0.22260 0.65760 -0.01600
C 	C 	0.47670 0.37310 0.63280 0.19100
C 	C 	0.43750 0.44330 0.53240 0.20900
C 	C 	0.41910 0.43000 0.66980 0.18300
C 	C 	0.36440 0.49330 0.73310 0.21200
C 	C 	0.36990 0.54990 0.69560 -0.22900
H 	H 	0.39480 0.55480 0.66710 0.12200
C 	C 	0.34120 0.59940 0.69760 0.13600
H 	H 	0.34570 0.63570 0.66840 0.00100
C 	C 	0.30530 0.59400 0.74450 -0.19700
C 	C 	0.29990 0.53760 0.78600 0.14100
H 	H 	0.27680 0.53350 0.81910 -0.00200
C 	C 	0.32780 0.48930 0.77890 -0.22900
H 	H 	0.32240 0.45240 0.80530 0.12500
C 	C 	0.39930 0.51320 0.40630 0.25500
C 	C 	0.36070 0.53540 0.43540 -0.28800
H 	H 	0.35350 0.51960 0.48820 0.14700
C 	C 	0.33300 0.58040 0.38690 0.20700
H 	H 	0.30810 0.59580 0.40910 -0.03500
C 	C 	0.34110 0.60320 0.30630 -0.26000
C 	C 	0.37850 0.58080 0.27760 0.21600
H 	H 	0.38460 0.59590 0.22350 -0.02100
C 	C 	0.40710 0.53760 0.32400 -0.28400
H 	H 	0.43240 0.52370 0.30140 0.14500
C 	C 	0.31280 0.65650 0.25830 0.48800
C 	C 	0.27800 0.64880 0.75890 0.42200
Dy	Dy	0.23540 0.74796 0.82745 1.97100
Dy	Dy	0.73402 0.23669 0.40554 1.91300
O 	O 	0.80220 0.23330 0.34170 -0.59200
O 	O 	0.84200 0.27060 0.25040 -0.47900
O 	O 	0.20180 0.67320 0.38410 -0.52100
O 	O 	0.23420 0.67630 0.53140 -0.57300
O 	O 	0.21040 0.69600 0.95020 -0.58400
O 	O 	0.24220 0.63390 0.05800 -0.46300
O 	O 	0.30110 0.73340 0.94920 -0.58700
O 	O 	0.33890 0.77840 0.07680 -0.45800
O 	O 	0.72390 0.17610 0.21320 -0.55800
O 	O 	0.67820 0.17340 0.31410 -0.48900
O 	O 	0.71520 0.19970 0.77360 -0.58000
O 	O 	0.75580 0.14260 0.70020 -0.45400
N 	N 	0.98390 0.33450 0.63540 -0.15300
N 	N 	0.07400 0.47130 0.51480 -0.16200
N 	N 	0.09360 0.44930 0.83380 -0.15800
N 	N 	0.03970 0.39110 0.73340 -0.15100
N 	N 	0.08520 0.46460 0.67530 -0.17400
N 	N 	0.02810 0.40570 0.57060 -0.16300
N 	N 	0.49220 0.82740 0.84320 -0.15300
N 	N 	0.54850 0.88520 0.80160 -0.14600
N 	N 	0.60680 0.94400 0.76400 -0.15500
N 	N 	0.59000 0.95910 0.91010 -0.17500
N 	N 	0.53130 0.90020 0.94900 -0.17400
N 	N 	0.56970 0.97090 0.05010 -0.17700
C 	C 	0.83910 0.25680 0.33000 0.46200
C 	C 	0.87910 0.27520 0.41060 -0.22500
C 	C 	0.91420 0.31570 0.39530 0.17400
H 	H 	0.91290 0.32980 0.33620 -0.01600
C 	C 	0.94890 0.33420 0.46430 -0.25900
H 	H 	0.97230 0.35960 0.45220 0.14100
C 	C 	0.95100 0.31600 0.55400 0.21700
C 	C 	0.91790 0.27420 0.57090 -0.23200
H 	H 	0.92040 0.25880 0.62980 0.13100
C 	C 	0.88060 0.25530 0.49790 0.15700
H 	H 	0.85720 0.22950 0.50910 -0.02100
C 	C 	0.01780 0.37950 0.64380 0.18500
C 	C 	0.06980 0.43700 0.74400 0.18800
C 	C 	0.06200 0.44790 0.59360 0.19400
C 	C 	0.10670 0.51540 0.51110 0.23300
C 	C 	0.14400 0.53700 0.58140 -0.28800
H 	H 	0.14850 0.52070 0.64010 0.14800
C 	C 	0.17320 0.58050 0.56510 0.22000
H 	H 	0.19570 0.59560 0.61460 -0.03700
C 	C 	0.17180 0.60470 0.47740 -0.29900
C 	C 	0.13800 0.58250 0.40840 0.22100
H 	H 	0.13600 0.59750 0.34950 -0.02700
C 	C 	0.10630 0.53880 0.42060 -0.26300
H 	H 	0.08430 0.52410 0.36990 0.13800
C 	C 	0.20560 0.65230 0.46710 0.54000
C 	C 	0.12510 0.49460 0.85970 0.20700
C 	C 	0.15760 0.48890 0.94560 -0.22100
H 	H 	0.15860 0.45290 0.97880 0.12300
C 	C 	0.18740 0.53510 0.98030 0.13900
H 	H 	0.21110 0.52830 0.03280 0.00300
C 	C 	0.18330 0.59370 0.93830 -0.20500
C 	C 	0.15070 0.60140 0.85680 0.14900
H 	H 	0.14880 0.63830 0.82540 -0.00500
C 	C 	0.12050 0.55360 0.82140 -0.22400
H 	H 	0.09620 0.56090 0.77010 0.12100
C 	C 	0.21370 0.64430 0.98500 0.46700
C 	C 	0.33690 0.76100 0.99850 0.42500
C 	C 	0.38070 0.77350 0.96130 -0.18900
C 	C 	0.41360 0.81120 0.00980 0.11900
H 	H 	0.41140 0.82410 0.06780 0.00700
C 	C 	0.45270 0.83200 0.97230 -0.20800
H 	H 	0.47450 0.86010 0.00340 0.12600
C 	C 	0.45590 0.80800 0.88820 0.20200
C 	C 	0.42170 0.77030 0.84090 -0.22500
H 	H 	0.42380 0.75740 0.78270 0.12700
C 	C 	0.38410 0.75020 0.87480 0.13300
H 	H 	0.36220 0.72260 0.84240 -0.01600
C 	C 	0.52330 0.87310 0.86720 0.19100
C 	C 	0.56250 0.94330 0.96760 0.21000
C 	C 	0.58090 0.93000 0.83020 0.18300
C 	C 	0.63560 0.99330 0.76690 0.21300
C 	C 	0.63010 0.04990 0.80440 -0.23000
H 	H 	0.60520 0.05480 0.83290 0.12200
C 	C 	0.65880 0.09940 0.80240 0.13600
H 	H 	0.65430 0.13570 0.83160 0.00100
C 	C 	0.69470 0.09400 0.75550 -0.19700
C 	C 	0.70010 0.03760 0.71400 0.14100
H 	H 	0.72320 0.03350 0.68090 -0.00200
C 	C 	0.67220 0.98930 0.72110 -0.22900
H 	H 	0.67760 0.95240 0.69470 0.12500
C 	C 	0.60070 0.01320 0.09370 0.25600
C 	C 	0.63930 0.03540 0.06460 -0.28800
H 	H 	0.64650 0.01960 0.01180 0.14700
C 	C 	0.66700 0.08040 0.11310 0.20700
H 	H 	0.69190 0.09580 0.09090 -0.03500
C 	C 	0.65890 0.10320 0.19370 -0.26000
C 	C 	0.62150 0.08080 0.22240 0.21600
H 	H 	0.61540 0.09590 0.27650 -0.02200
C 	C 	0.59290 0.03760 0.17600 -0.28400
H 	H 	0.56760 0.02370 0.19860 0.14500
C 	C 	0.68720 0.15650 0.24170 0.48800
C 	C 	0.72200 0.14880 0.74110 0.42100
