data_crystal

_cell_length_a 12.36510
_cell_length_b 12.36510
_cell_length_c 37.48490
_cell_angle_alpha 90.00000
_cell_angle_beta  90.00000
_cell_angle_gamma 120.00000

_symmetry_space_group_name_	'P 1'
_symmetry_space_group_name_H-M	'P 1'

loop_
_symmetry_equiv_pos_as_xyz
  x,y,z

loop_
_atom_site_label
_atom_site_type_symbol
_atom_site_fract_x
_atom_site_fract_y
_atom_site_fract_z
_atom_site_charge
In	In	0.55072 0.16662 0.38057 1.98900
O 	O 	0.59630 0.31130 0.34311 -0.52400
O 	O 	0.39090 0.00330 0.35981 -0.51300
O 	O 	0.39730 0.25330 0.33268 -0.28800
O 	O 	0.25730 0.02750 0.39410 -0.26500
O 	O 	0.73690 0.28670 0.40349 -0.55400
N 	N 	0.51580 0.54430 0.25672 -0.28100
N 	N 	0.12360 0.47620 0.40200 -0.12200
C 	C 	0.12360 0.64740 0.43140 -0.03800
N 	N 	0.11380 0.66390 0.32247 -0.28600
C 	C 	0.20320 0.77180 0.33510 0.08900
H 	H 	0.28560 0.79850 0.32900 0.00900
C 	C 	0.48040 0.44510 0.27820 0.07400
H 	H 	0.39910 0.37850 0.27620 0.02000
C 	C 	0.55760 0.43660 0.30310 -0.11300
C 	C 	0.05690 0.80510 0.36780 0.06800
H 	H 	0.03690 0.85250 0.38280 0.03300
C 	C 	0.50760 0.32240 0.32790 0.34900
C 	C 	0.99510 0.62240 0.33240 0.07800
H 	H 	0.93270 0.54650 0.32350 -0.00800
C 	C 	0.63370 0.64170 0.26030 0.07000
H 	H 	0.66010 0.71220 0.24610 -0.00900
C 	C 	0.67830 0.53540 0.30610 0.06100
H 	H 	0.73360 0.53240 0.32230 0.02100
C 	C 	0.71510 0.63750 0.28470 -0.13400
H 	H 	0.79580 0.70490 0.28670 0.07900
C 	C 	0.28240 0.96980 0.37210 0.35500
C 	C 	0.96230 0.68750 0.35520 -0.14000
H 	H 	0.87970 0.65530 0.36220 0.08400
C 	C 	0.99550 0.41020 0.40170 0.11200
C 	C 	0.17780 0.84790 0.35770 -0.11800
In	In	0.83338 0.38410 0.04723 1.99100
O 	O 	0.68870 0.28500 0.00978 -0.52300
O 	O 	0.99670 0.38760 0.02648 -0.51200
O 	O 	0.74670 0.14400 0.99935 -0.28800
O 	O 	0.97250 0.22980 0.06077 -0.26500
O 	O 	0.71330 0.45020 0.07016 -0.55400
N 	N 	0.45570 0.97150 0.92339 -0.28000
N 	N 	0.52380 0.64740 0.06867 -0.12700
C 	C 	0.35260 0.47620 0.09807 -0.04700
N 	N 	0.33610 0.44990 0.98914 -0.28700
C 	C 	0.22820 0.43140 0.00177 0.08600
H 	H 	0.20150 0.48710 0.99567 0.01000
C 	C 	0.55490 0.03530 0.94487 0.07200
H 	H 	0.62150 0.02060 0.94287 0.01900
C 	C 	0.56340 0.12100 0.96977 -0.11300
C 	C 	0.19490 0.25180 0.03447 0.05700
H 	H 	0.14750 0.18440 0.04947 0.03500
C 	C 	0.67760 0.18520 0.99457 0.35000
C 	C 	0.37760 0.37270 0.99907 0.07900
H 	H 	0.45350 0.38620 0.99017 -0.00700
C 	C 	0.35830 0.99200 0.92697 0.07400
H 	H 	0.28780 0.94790 0.91277 -0.01000
C 	C 	0.46460 0.14290 0.97277 0.06400
H 	H 	0.46760 0.20120 0.98897 0.02100
C 	C 	0.36250 0.07760 0.95137 -0.13900
H 	H 	0.29510 0.09090 0.95337 0.08100
C 	C 	0.03020 0.31260 0.03877 0.35200
C 	C 	0.31250 0.27480 0.02187 -0.12900
H 	H 	0.34470 0.22440 0.02887 0.08100
C 	C 	0.58980 0.58530 0.06837 0.12000
C 	C 	0.15210 0.32990 0.02437 -0.11400
In	In	0.61590 0.44928 0.71390 1.99000
O 	O 	0.71500 0.40370 0.67644 -0.52300
O 	O 	0.61240 0.60910 0.69314 -0.52000
O 	O 	0.85600 0.60270 0.66601 -0.28800
O 	O 	0.77020 0.74270 0.72743 -0.27100
O 	O 	0.54980 0.26310 0.73682 -0.55400
N 	N 	0.02850 0.48420 0.59005 -0.28000
N 	N 	0.35260 0.87640 0.73533 -0.12200
C 	C 	0.52380 0.87640 0.76473 -0.03800
N 	N 	0.55010 0.88620 0.65580 -0.28600
C 	C 	0.56860 0.79680 0.66843 0.09100
H 	H 	0.51290 0.71440 0.66233 0.00900
C 	C 	0.96470 0.51960 0.61153 0.07100
H 	H 	0.97940 0.60090 0.60953 0.01900
C 	C 	0.87900 0.44240 0.63643 -0.11300
C 	C 	0.74820 0.94310 0.70113 0.07200
H 	H 	0.81560 0.96310 0.71613 0.03300
C 	C 	0.81480 0.49240 0.66123 0.35000
C 	C 	0.62730 0.00490 0.66573 0.07800
H 	H 	0.61380 0.06730 0.65683 -0.00800
C 	C 	0.00800 0.36630 0.59363 0.07600
H 	H 	0.05210 0.33990 0.57943 -0.01000
C 	C 	0.85710 0.32170 0.63943 0.06500
H 	H 	0.79880 0.26640 0.65563 0.02000
C 	C 	0.92240 0.28490 0.61803 -0.14100
H 	H 	0.90910 0.20420 0.62003 0.08100
C 	C 	0.68740 0.71760 0.70543 0.36600
C 	C 	0.72520 0.03770 0.68853 -0.14200
H 	H 	0.77560 0.12030 0.69553 0.08500
C 	C 	0.41470 0.00450 0.73503 0.11200
C 	C 	0.67010 0.82220 0.69103 -0.12200
In	In	0.44928 0.83338 0.88057 1.99000
O 	O 	0.40370 0.68870 0.84311 -0.52300
O 	O 	0.60910 0.99670 0.85981 -0.51300
O 	O 	0.60270 0.74670 0.83268 -0.28800
O 	O 	0.74270 0.97250 0.89410 -0.26500
O 	O 	0.26310 0.71330 0.90349 -0.55400
N 	N 	0.48420 0.45570 0.75672 -0.28100
N 	N 	0.87640 0.52380 0.90200 -0.12200
C 	C 	0.87640 0.35260 0.93140 -0.03900
N 	N 	0.88620 0.33610 0.82247 -0.28600
C 	C 	0.79680 0.22820 0.83510 0.08900
H 	H 	0.71440 0.20150 0.82900 0.00900
C 	C 	0.51960 0.55490 0.77820 0.07400
H 	H 	0.60090 0.62150 0.77620 0.02000
C 	C 	0.44240 0.56340 0.80310 -0.11300
C 	C 	0.94310 0.19490 0.86780 0.06800
H 	H 	0.96310 0.14750 0.88280 0.03300
C 	C 	0.49240 0.67760 0.82790 0.34900
C 	C 	0.00490 0.37760 0.83240 0.07700
H 	H 	0.06730 0.45350 0.82350 -0.00800
C 	C 	0.36630 0.35830 0.76030 0.07000
H 	H 	0.33990 0.28780 0.74610 -0.00900
C 	C 	0.32170 0.46460 0.80610 0.06100
H 	H 	0.26640 0.46760 0.82230 0.02100
C 	C 	0.28490 0.36250 0.78470 -0.13400
H 	H 	0.20420 0.29510 0.78670 0.07900
C 	C 	0.71760 0.03020 0.87210 0.35400
C 	C 	0.03770 0.31250 0.85520 -0.13900
H 	H 	0.12030 0.34470 0.86220 0.08400
C 	C 	0.00450 0.58980 0.90170 0.11200
C 	C 	0.82220 0.15210 0.85770 -0.11800
In	In	0.16662 0.61590 0.54723 1.99100
O 	O 	0.31130 0.71500 0.50978 -0.52300
O 	O 	0.00330 0.61240 0.52648 -0.51200
O 	O 	0.25330 0.85600 0.49935 -0.28800
O 	O 	0.02750 0.77020 0.56077 -0.26500
O 	O 	0.28670 0.54980 0.57016 -0.55400
N 	N 	0.54430 0.02850 0.42339 -0.28000
N 	N 	0.47620 0.35260 0.56867 -0.12700
C 	C 	0.64740 0.52380 0.59807 -0.04700
N 	N 	0.66390 0.55010 0.48914 -0.28800
C 	C 	0.77180 0.56860 0.50177 0.08600
H 	H 	0.79850 0.51290 0.49567 0.01000
C 	C 	0.44510 0.96470 0.44487 0.07200
H 	H 	0.37850 0.97940 0.44287 0.01900
C 	C 	0.43660 0.87900 0.46977 -0.11300
C 	C 	0.80510 0.74820 0.53447 0.05700
H 	H 	0.85250 0.81560 0.54947 0.03500
C 	C 	0.32240 0.81480 0.49457 0.35000
C 	C 	0.62240 0.62730 0.49907 0.07900
H 	H 	0.54650 0.61380 0.49017 -0.00700
C 	C 	0.64170 0.00800 0.42697 0.07400
H 	H 	0.71220 0.05210 0.41277 -0.01000
C 	C 	0.53540 0.85710 0.47277 0.06400
H 	H 	0.53240 0.79880 0.48897 0.02100
C 	C 	0.63750 0.92240 0.45137 -0.13900
H 	H 	0.70490 0.90910 0.45337 0.08100
C 	C 	0.96980 0.68740 0.53877 0.35200
C 	C 	0.68750 0.72520 0.52187 -0.13000
H 	H 	0.65530 0.77560 0.52887 0.08100
C 	C 	0.41020 0.41470 0.56837 0.12000
C 	C 	0.84790 0.67010 0.52437 -0.11400
In	In	0.38410 0.55072 0.21390 1.99000
O 	O 	0.28500 0.59630 0.17644 -0.52300
O 	O 	0.38760 0.39090 0.19314 -0.52000
O 	O 	0.14400 0.39730 0.16601 -0.28800
O 	O 	0.22980 0.25730 0.22743 -0.27100
O 	O 	0.45020 0.73690 0.23682 -0.55400
N 	N 	0.97150 0.51580 0.09005 -0.28000
N 	N 	0.64740 0.12360 0.23533 -0.12200
C 	C 	0.47620 0.12360 0.26473 -0.03800
N 	N 	0.44990 0.11380 0.15580 -0.28600
C 	C 	0.43140 0.20320 0.16843 0.09100
H 	H 	0.48710 0.28560 0.16233 0.00900
C 	C 	0.03530 0.48040 0.11153 0.07100
H 	H 	0.02060 0.39910 0.10953 0.01900
C 	C 	0.12100 0.55760 0.13643 -0.11300
C 	C 	0.25180 0.05690 0.20113 0.07200
H 	H 	0.18440 0.03690 0.21613 0.03300
C 	C 	0.18520 0.50760 0.16123 0.35000
C 	C 	0.37270 0.99510 0.16573 0.07800
H 	H 	0.38620 0.93270 0.15683 -0.00800
C 	C 	0.99200 0.63370 0.09363 0.07600
H 	H 	0.94790 0.66010 0.07943 -0.01000
C 	C 	0.14290 0.67830 0.13943 0.06500
H 	H 	0.20120 0.73360 0.15563 0.02000
C 	C 	0.07760 0.71510 0.11803 -0.14100
H 	H 	0.09090 0.79580 0.12003 0.08100
C 	C 	0.31260 0.28240 0.20543 0.36600
C 	C 	0.27480 0.96230 0.18853 -0.14200
H 	H 	0.22440 0.87970 0.19553 0.08500
C 	C 	0.58530 0.99550 0.23503 0.11200
C 	C 	0.32990 0.17780 0.19103 -0.12200
In	In	0.16662 0.55072 0.28610 1.99100
O 	O 	0.31130 0.59630 0.32356 -0.52200
O 	O 	0.00330 0.39090 0.30686 -0.51200
O 	O 	0.25330 0.39730 0.33399 -0.28600
O 	O 	0.02750 0.25730 0.27257 -0.26500
O 	O 	0.28670 0.73690 0.26318 -0.55300
N 	N 	0.54430 0.51580 0.40995 -0.28100
N 	N 	0.66390 0.11380 0.34420 -0.28700
C 	C 	0.77180 0.20320 0.33157 0.08900
H 	H 	0.79850 0.28560 0.33767 0.00900
C 	C 	0.44510 0.48040 0.38847 0.07400
H 	H 	0.37850 0.39910 0.39047 0.02100
C 	C 	0.43660 0.55760 0.36357 -0.11100
C 	C 	0.80510 0.05690 0.29887 0.07000
H 	H 	0.85250 0.03690 0.28387 0.03300
C 	C 	0.32240 0.50760 0.33877 0.35200
C 	C 	0.62240 0.99510 0.33427 0.07700
H 	H 	0.54650 0.93270 0.34317 -0.00800
C 	C 	0.64170 0.63370 0.40637 0.07000
H 	H 	0.71220 0.66010 0.42057 -0.00900
C 	C 	0.53540 0.67830 0.36057 0.06100
H 	H 	0.53240 0.73360 0.34437 0.02100
C 	C 	0.63750 0.71510 0.38197 -0.13400
H 	H 	0.70490 0.79580 0.37997 0.07900
C 	C 	0.96980 0.28240 0.29457 0.35600
C 	C 	0.68750 0.96230 0.31147 -0.13900
H 	H 	0.65530 0.87970 0.30447 0.08400
C 	C 	0.41020 0.99550 0.26497 0.07300
C 	C 	0.84790 0.17780 0.30897 -0.11600
In	In	0.38410 0.83338 0.61943 1.99100
O 	O 	0.28500 0.68870 0.65689 -0.52200
O 	O 	0.38760 0.99670 0.64019 -0.51100
O 	O 	0.14400 0.74670 0.66732 -0.28600
O 	O 	0.22980 0.97250 0.60590 -0.26400
O 	O 	0.45020 0.71330 0.59651 -0.55300
N 	N 	0.97150 0.45570 0.74328 -0.28000
N 	N 	0.44990 0.33610 0.67753 -0.28800
C 	C 	0.43140 0.22820 0.66490 0.08600
H 	H 	0.48710 0.20150 0.67100 0.00900
C 	C 	0.03530 0.55490 0.72180 0.07200
H 	H 	0.02060 0.62150 0.72380 0.02100
C 	C 	0.12100 0.56340 0.69690 -0.11100
C 	C 	0.25180 0.19490 0.63220 0.05900
H 	H 	0.18440 0.14750 0.61720 0.03500
C 	C 	0.18520 0.67760 0.67210 0.35300
C 	C 	0.37270 0.37760 0.66760 0.07900
H 	H 	0.38620 0.45350 0.67650 -0.00700
C 	C 	0.99200 0.35830 0.73970 0.07400
H 	H 	0.94790 0.28780 0.75390 -0.01000
C 	C 	0.14290 0.46460 0.69390 0.06300
H 	H 	0.20120 0.46760 0.67770 0.02100
C 	C 	0.07760 0.36250 0.71530 -0.13800
H 	H 	0.09090 0.29510 0.71330 0.08100
C 	C 	0.31260 0.03020 0.62790 0.35300
C 	C 	0.27480 0.31250 0.64480 -0.12900
H 	H 	0.22440 0.34470 0.63780 0.08100
C 	C 	0.58530 0.58980 0.59830 0.08300
C 	C 	0.32990 0.15210 0.64230 -0.11200
In	In	0.44928 0.61590 0.95277 1.99100
O 	O 	0.40370 0.71500 0.99022 -0.52200
O 	O 	0.60910 0.61240 0.97352 -0.51900
O 	O 	0.60270 0.85600 0.00065 -0.28700
O 	O 	0.74270 0.77020 0.93923 -0.27100
O 	O 	0.26310 0.54980 0.92984 -0.55300
N 	N 	0.48420 0.02850 0.07661 -0.28000
N 	N 	0.88620 0.55010 0.01086 -0.28700
C 	C 	0.79680 0.56860 0.99823 0.09100
H 	H 	0.71440 0.51290 0.00433 0.00900
C 	C 	0.51960 0.96470 0.05513 0.07200
H 	H 	0.60090 0.97940 0.05713 0.02100
C 	C 	0.44240 0.87900 0.03023 -0.11200
C 	C 	0.94310 0.74820 0.96553 0.07300
H 	H 	0.96310 0.81560 0.95053 0.03300
C 	C 	0.49240 0.81480 0.00543 0.35300
C 	C 	0.00490 0.62730 0.00093 0.07700
H 	H 	0.06730 0.61380 0.00983 -0.00800
C 	C 	0.36630 0.00800 0.07303 0.07600
H 	H 	0.33990 0.05210 0.08723 -0.01000
C 	C 	0.32170 0.85710 0.02723 0.06400
H 	H 	0.26640 0.79880 0.01103 0.02000
C 	C 	0.28490 0.92240 0.04863 -0.14100
H 	H 	0.20420 0.90910 0.04663 0.08100
C 	C 	0.71760 0.68740 0.96123 0.36700
C 	C 	0.03770 0.72520 0.97813 -0.14000
H 	H 	0.12030 0.77560 0.97113 0.08400
C 	C 	0.00450 0.41470 0.93163 0.07300
C 	C 	0.82220 0.67010 0.97563 -0.11900
In	In	0.83338 0.44928 0.78610 1.99100
O 	O 	0.68870 0.40370 0.82356 -0.52200
O 	O 	0.99670 0.60910 0.80686 -0.51200
O 	O 	0.74670 0.60270 0.83399 -0.28600
O 	O 	0.97250 0.74270 0.77257 -0.26500
O 	O 	0.71330 0.26310 0.76318 -0.55300
N 	N 	0.45570 0.48420 0.90995 -0.28100
N 	N 	0.33610 0.88620 0.84420 -0.28700
C 	C 	0.22820 0.79680 0.83157 0.08900
H 	H 	0.20150 0.71440 0.83767 0.00900
C 	C 	0.55490 0.51960 0.88847 0.07400
H 	H 	0.62150 0.60090 0.89047 0.02100
C 	C 	0.56340 0.44240 0.86357 -0.11100
C 	C 	0.19490 0.94310 0.79887 0.07000
H 	H 	0.14750 0.96310 0.78387 0.03300
C 	C 	0.67760 0.49240 0.83877 0.35200
C 	C 	0.37760 0.00490 0.83427 0.07700
H 	H 	0.45350 0.06730 0.84317 -0.00800
C 	C 	0.35830 0.36630 0.90637 0.07000
H 	H 	0.28780 0.33990 0.92057 -0.00900
C 	C 	0.46460 0.32170 0.86057 0.06100
H 	H 	0.46760 0.26640 0.84437 0.02100
C 	C 	0.36250 0.28490 0.88197 -0.13400
H 	H 	0.29510 0.20420 0.87997 0.07900
C 	C 	0.03020 0.71760 0.79457 0.35600
C 	C 	0.31250 0.03770 0.81147 -0.13900
H 	H 	0.34470 0.12030 0.80447 0.08400
C 	C 	0.58980 0.00450 0.76497 0.07300
C 	C 	0.15210 0.82220 0.80897 -0.11600
In	In	0.61590 0.16662 0.11943 1.99100
O 	O 	0.71500 0.31130 0.15689 -0.52200
O 	O 	0.61240 0.00330 0.14019 -0.51000
O 	O 	0.85600 0.25330 0.16732 -0.28600
O 	O 	0.77020 0.02750 0.10590 -0.26400
O 	O 	0.54980 0.28670 0.09651 -0.55300
N 	N 	0.02850 0.54430 0.24328 -0.28000
N 	N 	0.55010 0.66390 0.17753 -0.28800
C 	C 	0.56860 0.77180 0.16490 0.08600
H 	H 	0.51290 0.79850 0.17100 0.00900
C 	C 	0.96470 0.44510 0.22180 0.07200
H 	H 	0.97940 0.37850 0.22380 0.02100
C 	C 	0.87900 0.43660 0.19690 -0.11100
C 	C 	0.74820 0.80510 0.13220 0.05900
H 	H 	0.81560 0.85250 0.11720 0.03500
C 	C 	0.81480 0.32240 0.17210 0.35300
C 	C 	0.62730 0.62240 0.16760 0.07800
H 	H 	0.61380 0.54650 0.17650 -0.00700
C 	C 	0.00800 0.64170 0.23970 0.07400
H 	H 	0.05210 0.71220 0.25390 -0.01000
C 	C 	0.85710 0.53540 0.19390 0.06300
H 	H 	0.79880 0.53240 0.17770 0.02100
C 	C 	0.92240 0.63750 0.21530 -0.13800
H 	H 	0.90910 0.70490 0.21330 0.08100
C 	C 	0.68740 0.96980 0.12790 0.35200
C 	C 	0.72520 0.68750 0.14480 -0.12900
H 	H 	0.77560 0.65530 0.13780 0.08100
C 	C 	0.41470 0.41020 0.09830 0.08300
C 	C 	0.67010 0.84790 0.14230 -0.11200
In	In	0.55072 0.38410 0.45277 1.99100
O 	O 	0.59630 0.28500 0.49022 -0.52200
O 	O 	0.39090 0.38760 0.47352 -0.51900
O 	O 	0.39730 0.14400 0.50065 -0.28700
O 	O 	0.25730 0.22980 0.43923 -0.27100
O 	O 	0.73690 0.45020 0.42984 -0.55300
N 	N 	0.51580 0.97150 0.57661 -0.28000
N 	N 	0.11380 0.44990 0.51086 -0.28700
C 	C 	0.20320 0.43140 0.49823 0.09100
H 	H 	0.28560 0.48710 0.50433 0.00800
C 	C 	0.48040 0.03530 0.55513 0.07200
H 	H 	0.39910 0.02060 0.55713 0.02100
C 	C 	0.55760 0.12100 0.53023 -0.11200
C 	C 	0.05690 0.25180 0.46553 0.07300
H 	H 	0.03690 0.18440 0.45053 0.03300
C 	C 	0.50760 0.18520 0.50543 0.35300
C 	C 	0.99510 0.37270 0.50093 0.07800
H 	H 	0.93270 0.38620 0.50983 -0.00800
C 	C 	0.63370 0.99200 0.57303 0.07600
H 	H 	0.66010 0.94790 0.58723 -0.01000
C 	C 	0.67830 0.14290 0.52723 0.06400
H 	H 	0.73360 0.20120 0.51103 0.02000
C 	C 	0.71510 0.07760 0.54863 -0.14100
H 	H 	0.79580 0.09090 0.54663 0.08100
C 	C 	0.28240 0.31260 0.46123 0.36700
C 	C 	0.96230 0.27480 0.47813 -0.14100
H 	H 	0.87970 0.22440 0.47113 0.08500
C 	C 	0.99550 0.58530 0.43163 0.07300
C 	C 	0.17780 0.32990 0.47563 -0.12000
O 	O 	0.47510 0.23755 0.41667 -0.69000
C 	C 	0.79160 0.39580 0.41667 0.45400
C 	C 	0.18760 0.59380 0.41667 0.06700
C 	C 	0.93020 0.46510 0.41667 -0.17000
O 	O 	0.76245 0.23755 0.08333 -0.68900
C 	C 	0.60420 0.39580 0.08333 0.45600
C 	C 	0.40620 0.59380 0.08333 0.06900
C 	C 	0.53490 0.46510 0.08333 -0.17400
O 	O 	0.76245 0.52490 0.75000 -0.69000
C 	C 	0.60420 0.20840 0.75000 0.45400
C 	C 	0.40620 0.81240 0.75000 0.06700
C 	C 	0.53490 0.06980 0.75000 -0.17000
O 	O 	0.52490 0.76245 0.91667 -0.69000
C 	C 	0.20840 0.60420 0.91667 0.45400
C 	C 	0.81240 0.40620 0.91667 0.06700
C 	C 	0.06980 0.53490 0.91667 -0.17000
O 	O 	0.23755 0.76245 0.58333 -0.68900
C 	C 	0.39580 0.60420 0.58333 0.45600
C 	C 	0.59380 0.40620 0.58333 0.06900
C 	C 	0.46510 0.53490 0.58333 -0.17400
O 	O 	0.23755 0.47510 0.25000 -0.69000
C 	C 	0.39580 0.79160 0.25000 0.45400
C 	C 	0.59380 0.18760 0.25000 0.06700
C 	C 	0.46510 0.93020 0.25000 -0.17000
