data_crystal

_cell_length_a 10.18380
_cell_length_b 13.87210
_cell_length_c 33.04900
_cell_angle_alpha 90.00000
_cell_angle_beta  93.73000
_cell_angle_gamma 90.00000

_symmetry_space_group_name_	'P 1'
_symmetry_space_group_name_H-M	'P 1'

loop_
_symmetry_equiv_pos_as_xyz
  x,y,z

loop_
_atom_site_label
_atom_site_type_symbol
_atom_site_fract_x
_atom_site_fract_y
_atom_site_fract_z
_atom_site_charge
Mn	Mn	0.38906 0.98069 0.70956 1.28500
O 	O 	0.21080 0.97040 0.67119 -0.44000
O 	O 	0.60810 0.99350 0.71156 -0.37900
O 	O 	0.50900 0.96840 0.65200 -0.35300
N 	N 	0.38470 0.81780 0.71302 -0.23200
C 	C 	0.85850 0.96490 0.68160 -0.09000
H 	H 	0.85530 0.98490 0.70910 0.01300
N 	N 	0.36550 0.14240 0.70610 -0.24500
C 	C 	0.10730 0.97590 0.68921 0.38100
C 	C 	0.61180 0.97690 0.67490 0.28300
C 	C 	0.98000 0.95050 0.66420 0.16100
C 	C 	0.42350 0.76910 0.74620 0.08300
H 	H 	0.45230 0.80440 0.76970 -0.00500
C 	C 	0.74420 0.94900 0.65750 -0.64200
C 	C 	0.34570 0.76460 0.68000 0.06900
H 	H 	0.31680 0.79740 0.65590 0.01500
C 	C 	0.34560 0.66450 0.67970 -0.11900
H 	H 	0.31860 0.63040 0.65570 0.07800
C 	C 	0.38540 0.61470 0.71480 0.06100
C 	C 	0.35180 0.33890 0.69690 0.14300
C 	C 	0.42430 0.66990 0.74820 -0.12900
H 	H 	0.45200 0.63900 0.77300 0.07800
C 	C 	0.30140 0.18470 0.67480 0.11600
H 	H 	0.25870 0.14450 0.65470 0.00000
C 	C 	0.38590 0.51020 0.72000 0.04600
H 	H 	0.41630 0.48610 0.74580 0.01800
C 	C 	0.34730 0.44460 0.69140 -0.06700
H 	H 	0.31460 0.46830 0.66570 0.03600
C 	C 	0.29250 0.28120 0.66950 -0.19900
H 	H 	0.24440 0.30720 0.64650 0.10600
C 	C 	0.41600 0.30030 0.73170 -0.16700
H 	H 	0.45390 0.34020 0.75270 0.09400
C 	C 	0.42170 0.19930 0.73410 0.09500
H 	H 	0.46800 0.17070 0.75690 -0.00400
C 	C 	0.98490 0.91810 0.62590 0.58900
H 	H 	0.06780 0.90760 0.61500 -0.17300
O 	O 	0.10380 0.98940 0.72635 -0.50100
C 	C 	0.74690 0.91940 0.61880 -0.82800
H 	H 	0.66740 0.91130 0.60250 0.35800
C 	C 	0.87140 0.90020 0.60240 0.20300
N 	N 	0.97300 0.81300 0.55540 -0.05400
N 	N 	0.86580 0.84640 0.56520 -0.08100
N 	N 	0.05900 0.78300 0.53920 -0.03300
C 	C 	0.98300 0.97300 0.62120 -0.66300
H 	H 	0.06480 0.97060 0.60900 0.28000
C 	C 	0.86600 0.96570 0.59770 -0.08800
C 	C 	0.74670 0.97440 0.61490 0.82200
H 	H 	0.66710 0.97170 0.59820 -0.27100
C 	C 	0.74280 0.98700 0.65640 0.57500
C 	C 	0.86000 0.98960 0.68070 0.09900
H 	H 	0.85750 0.99510 0.70930 0.03600
C 	C 	0.97960 0.98430 0.66410 -0.21900
C 	C 	0.35800 0.50800 0.69520 -0.02500
H 	H 	0.32230 0.49080 0.66890 0.02200
C 	C 	0.39400 0.46000 0.72260 -0.08000
H 	H 	0.43160 0.47580 0.74880 0.02500
N 	N 	0.85700 0.94200 0.55480 -0.03300
N 	N 	0.95900 0.99480 0.53680 -0.00900
N 	N 	0.05300 0.92700 0.51830 -0.01700
N 	N 	0.96800 0.85100 0.54740 0.04200
N 	N 	0.86200 0.99400 0.55410 -0.02300
N 	N 	0.02900 -0.00000 0.51740 -0.00800
N 	N 	0.86500 0.89500 0.55900 0.01300
N 	N 	0.96100 0.92300 0.53920 -0.01800
N 	N 	0.05100 0.85600 0.53030 -0.02300
Mn	Mn	0.11094 0.98069 0.79044 1.28400
O 	O 	0.28920 0.97040 0.82881 -0.44200
O 	O 	0.89190 0.99350 0.78844 -0.37600
O 	O 	0.99100 0.96840 0.84800 -0.35000
N 	N 	0.11530 0.81780 0.78698 -0.23300
C 	C 	0.64150 0.96490 0.81840 -0.08500
H 	H 	0.64470 0.98490 0.79090 0.01300
N 	N 	0.13450 0.14240 0.79390 -0.24500
C 	C 	0.39270 0.97590 0.81079 0.38700
C 	C 	0.88820 0.97690 0.82510 0.28300
C 	C 	0.52000 0.95050 0.83580 0.13800
C 	C 	0.07650 0.76910 0.75380 0.08300
H 	H 	0.04770 0.80440 0.73030 -0.00700
C 	C 	0.75580 0.94900 0.84250 -0.59400
C 	C 	0.15430 0.76460 0.82000 0.06800
H 	H 	0.18320 0.79740 0.84410 0.01400
C 	C 	0.15440 0.66450 0.82030 -0.11900
H 	H 	0.18140 0.63040 0.84430 0.07800
C 	C 	0.11460 0.61470 0.78520 0.06100
C 	C 	0.14820 0.33890 0.80310 0.14300
C 	C 	0.07570 0.66990 0.75180 -0.12900
H 	H 	0.04800 0.63900 0.72700 0.07700
C 	C 	0.19860 0.18470 0.82520 0.11600
H 	H 	0.24130 0.14450 0.84530 -0.00000
C 	C 	0.11410 0.51020 0.78000 0.04500
H 	H 	0.08370 0.48610 0.75420 0.01700
C 	C 	0.15270 0.44460 0.80860 -0.06800
H 	H 	0.18540 0.46830 0.83430 0.03600
C 	C 	0.20750 0.28120 0.83050 -0.19900
H 	H 	0.25560 0.30720 0.85350 0.10600
C 	C 	0.08400 0.30030 0.76830 -0.16800
H 	H 	0.04610 0.34020 0.74730 0.09300
C 	C 	0.07830 0.19930 0.76590 0.09500
H 	H 	0.03200 0.17070 0.74310 -0.00400
C 	C 	0.51510 0.91810 0.87410 0.53100
H 	H 	0.43220 0.90760 0.88500 -0.15000
O 	O 	0.39620 0.98940 0.77365 -0.50100
C 	C 	0.75310 0.91940 0.88120 -0.76400
H 	H 	0.83260 0.91130 0.89750 0.33400
C 	C 	0.62860 0.90020 0.89760 0.19500
N 	N 	0.52700 0.81300 0.94460 -0.05600
N 	N 	0.63420 0.84640 0.93480 -0.08100
N 	N 	0.44100 0.78300 0.96080 -0.03200
C 	C 	0.51700 0.97300 0.87880 -0.61300
H 	H 	0.43520 0.97060 0.89100 0.26500
C 	C 	0.63400 0.96570 0.90230 -0.07900
C 	C 	0.75330 0.97440 0.88510 0.75200
H 	H 	0.83290 0.97170 0.90180 -0.24400
C 	C 	0.75720 0.98700 0.84360 0.53000
C 	C 	0.64000 0.98960 0.81930 0.09300
H 	H 	0.64250 0.99510 0.79070 0.03500
C 	C 	0.52040 0.98430 0.83590 -0.20100
C 	C 	0.14200 0.50800 0.80480 -0.02500
H 	H 	0.17770 0.49080 0.83110 0.02200
C 	C 	0.10600 0.46000 0.77740 -0.08000
H 	H 	0.06840 0.47580 0.75120 0.02500
N 	N 	0.64300 0.94200 0.94520 -0.03500
N 	N 	0.54100 0.99480 0.96320 -0.01000
N 	N 	0.44700 0.92700 0.98170 -0.01400
N 	N 	0.53200 0.85100 0.95260 0.04200
N 	N 	0.63800 0.99400 0.94590 -0.02300
N 	N 	0.47100 -0.00000 0.98260 -0.01000
N 	N 	0.63500 0.89500 0.94100 0.01500
N 	N 	0.53900 0.92300 0.96080 -0.02000
N 	N 	0.44900 0.85600 0.96970 -0.02300
Mn	Mn	0.61094 0.01931 0.29044 1.28600
O 	O 	0.78920 0.02960 0.32881 -0.43900
O 	O 	0.39190 0.00650 0.28844 -0.37900
O 	O 	0.49100 0.03160 0.34800 -0.35300
N 	N 	0.61530 0.18220 0.28698 -0.23200
C 	C 	0.14150 0.03510 0.31840 -0.08500
H 	H 	0.14470 0.01510 0.29090 0.01400
N 	N 	0.63450 0.85760 0.29390 -0.24600
C 	C 	0.89270 0.02410 0.31079 0.38200
C 	C 	0.38820 0.02310 0.32510 0.28300
C 	C 	0.02000 0.04950 0.33580 0.15000
C 	C 	0.57650 0.23090 0.25380 0.08300
H 	H 	0.54770 0.19560 0.23030 -0.00500
C 	C 	0.25580 0.05100 0.34250 -0.60500
C 	C 	0.65430 0.23540 0.32000 0.06800
H 	H 	0.68320 0.20260 0.34410 0.01500
C 	C 	0.65440 0.33550 0.32030 -0.11900
H 	H 	0.68140 0.36960 0.34430 0.07800
C 	C 	0.61460 0.38530 0.28520 0.06100
C 	C 	0.64820 0.66110 0.30310 0.14300
C 	C 	0.57570 0.33010 0.25180 -0.12900
H 	H 	0.54800 0.36100 0.22700 0.07800
C 	C 	0.69860 0.81530 0.32520 0.11600
H 	H 	0.74130 0.85550 0.34530 -0.00100
C 	C 	0.61410 0.48980 0.28000 0.04600
H 	H 	0.58370 0.51390 0.25420 0.01700
C 	C 	0.65270 0.55540 0.30860 -0.06800
H 	H 	0.68540 0.53170 0.33430 0.03600
C 	C 	0.70750 0.71880 0.33050 -0.19900
H 	H 	0.75560 0.69280 0.35350 0.10600
C 	C 	0.58400 0.69970 0.26830 -0.16800
H 	H 	0.54610 0.65980 0.24730 0.09300
C 	C 	0.57830 0.80070 0.26590 0.09500
H 	H 	0.53200 0.82930 0.24310 -0.00500
C 	C 	0.01510 0.08190 0.37410 0.55300
H 	H 	0.93220 0.09240 0.38500 -0.15900
O 	O 	0.89620 0.01060 0.27365 -0.50100
C 	C 	0.25310 0.08060 0.38120 -0.78200
H 	H 	0.33260 0.08870 0.39750 0.34000
C 	C 	0.12860 0.09980 0.39760 0.19300
N 	N 	0.02700 0.18700 0.44460 -0.05500
N 	N 	0.13420 0.15360 0.43480 -0.08000
N 	N 	0.94100 0.21700 0.46080 -0.03200
C 	C 	0.01700 0.02700 0.37880 -0.62800
H 	H 	0.93520 0.02940 0.39100 0.26800
C 	C 	0.13400 0.03430 0.40230 -0.07800
C 	C 	0.25330 0.02560 0.38510 0.77200
H 	H 	0.33290 0.02830 0.40180 -0.25200
C 	C 	0.25720 0.01300 0.34360 0.54000
C 	C 	0.14000 0.01040 0.31930 0.09300
H 	H 	0.14250 0.00490 0.29070 0.03500
C 	C 	0.02040 0.01570 0.33590 -0.20800
C 	C 	0.64200 0.49200 0.30480 -0.02500
H 	H 	0.67770 0.50920 0.33110 0.02200
C 	C 	0.60600 0.54000 0.27740 -0.08000
H 	H 	0.56840 0.52420 0.25120 0.02500
N 	N 	0.14300 0.05800 0.44520 -0.03500
N 	N 	0.04100 0.00520 0.46320 -0.00500
N 	N 	0.94700 0.07300 0.48170 -0.01300
N 	N 	0.03200 0.14900 0.45260 0.04400
N 	N 	0.13800 0.00600 0.44590 -0.02300
N 	N 	0.97100 -0.00000 0.48260 -0.01600
N 	N 	0.13500 0.10500 0.44100 0.01400
N 	N 	0.03900 0.07700 0.46080 -0.02000
N 	N 	0.94900 0.14400 0.46970 -0.02400
Mn	Mn	0.88906 0.01931 0.20956 1.28500
O 	O 	0.71080 0.02960 0.17119 -0.44100
O 	O 	0.10810 0.00650 0.21156 -0.37600
O 	O 	0.00900 0.03160 0.15200 -0.35000
N 	N 	0.88470 0.18220 0.21302 -0.23300
C 	C 	0.35850 0.03510 0.18160 -0.07900
H 	H 	0.35530 0.01510 0.20910 0.01400
N 	N 	0.86550 0.85760 0.20610 -0.24600
C 	C 	0.60730 0.02410 0.18921 0.38700
C 	C 	0.11180 0.02310 0.17490 0.28400
C 	C 	0.48000 0.04950 0.16420 0.12700
C 	C 	0.92350 0.23090 0.24620 0.08200
H 	H 	0.95230 0.19560 0.26970 -0.00700
C 	C 	0.24420 0.05100 0.15750 -0.55700
C 	C 	0.84570 0.23540 0.18000 0.06800
H 	H 	0.81680 0.20260 0.15590 0.01400
C 	C 	0.84560 0.33550 0.17970 -0.11900
H 	H 	0.81860 0.36960 0.15570 0.07800
C 	C 	0.88540 0.38530 0.21480 0.06100
C 	C 	0.85180 0.66110 0.19690 0.14300
C 	C 	0.92430 0.33010 0.24820 -0.12900
H 	H 	0.95200 0.36100 0.27300 0.07700
C 	C 	0.80140 0.81530 0.17480 0.11600
H 	H 	0.75870 0.85550 0.15470 -0.00100
C 	C 	0.88590 0.48980 0.22000 0.04500
H 	H 	0.91630 0.51390 0.24580 0.01700
C 	C 	0.84730 0.55540 0.19140 -0.06800
H 	H 	0.81460 0.53170 0.16570 0.03600
C 	C 	0.79250 0.71880 0.16950 -0.20000
H 	H 	0.74440 0.69280 0.14650 0.10600
C 	C 	0.91600 0.69970 0.23170 -0.16800
H 	H 	0.95390 0.65980 0.25270 0.09300
C 	C 	0.92170 0.80070 0.23410 0.09500
H 	H 	0.96800 0.82930 0.25690 -0.00500
C 	C 	0.48490 0.08190 0.12590 0.49500
H 	H 	0.56780 0.09240 0.11500 -0.13700
O 	O 	0.60380 0.01060 0.22635 -0.50000
C 	C 	0.24690 0.08060 0.11880 -0.71700
H 	H 	0.16740 0.08870 0.10250 0.31600
C 	C 	0.37140 0.09980 0.10240 0.18400
N 	N 	0.47300 0.18700 0.05540 -0.05600
N 	N 	0.36580 0.15360 0.06520 -0.08000
N 	N 	0.55900 0.21700 0.03920 -0.03100
C 	C 	0.48300 0.02700 0.12120 -0.57700
H 	H 	0.56480 0.02940 0.10900 0.25200
C 	C 	0.36600 0.03430 0.09770 -0.06800
C 	C 	0.24670 0.02560 0.11490 0.70100
H 	H 	0.16710 0.02830 0.09820 -0.22500
C 	C 	0.24280 0.01300 0.15640 0.49500
C 	C 	0.36000 0.01040 0.18070 0.08700
H 	H 	0.35750 0.00490 0.20930 0.03500
C 	C 	0.47960 0.01570 0.16410 -0.19000
C 	C 	0.85800 0.49200 0.19520 -0.02500
H 	H 	0.82230 0.50920 0.16890 0.02200
C 	C 	0.89400 0.54000 0.22260 -0.08000
H 	H 	0.93160 0.52420 0.24880 0.02500
N 	N 	0.35700 0.05800 0.05480 -0.03500
N 	N 	0.45900 0.00520 0.03680 -0.00800
N 	N 	0.55300 0.07300 0.01830 -0.01200
N 	N 	0.46800 0.14900 0.04740 0.04300
N 	N 	0.36200 0.00600 0.05410 -0.02400
N 	N 	0.52900 -0.00000 0.01740 -0.01300
N 	N 	0.36500 0.10500 0.05900 0.01500
N 	N 	0.46100 0.07700 0.03920 -0.02100
N 	N 	0.55100 0.14400 0.03030 -0.02300
