data_crystal

_cell_length_a 24.72730
_cell_length_b 24.72730
_cell_length_c 14.38120
_cell_angle_alpha 90.00000
_cell_angle_beta  90.00000
_cell_angle_gamma 120.00000

_symmetry_space_group_name_	'P 1'
_symmetry_space_group_name_H-M	'P 1'

loop_
_symmetry_equiv_pos_as_xyz
  x,y,z

loop_
_atom_site_label
_atom_site_type_symbol
_atom_site_fract_x
_atom_site_fract_y
_atom_site_fract_z
_atom_site_charge
In	In	0.67022 0.56106 0.38717 2.00800
In	In	0.32974 0.44072 0.88541 2.00600
O 	O 	0.36990 0.45520 0.01900 -0.50700
O 	O 	0.70550 0.57090 0.25150 -0.64300
O 	O 	0.58930 0.55460 0.31200 -0.52900
O 	O 	0.40250 0.46220 0.50660 -0.43000
O 	O 	0.57990 0.54430 0.15600 -0.51400
O 	O 	0.38030 0.54800 0.87110 -0.42400
O 	O 	0.73830 0.50310 0.38450 -0.32400
O 	O 	0.31430 0.44850 0.45120 -0.39400
O 	O 	0.30050 0.33620 0.88010 -0.40800
O 	O 	0.70670 0.66250 0.40750 -0.44400
O 	O 	0.28000 0.49920 0.90280 -0.39900
O 	O 	0.23140 0.36230 0.92160 -0.41300
O 	O 	0.63630 0.46270 0.38420 -0.48700
O 	O 	0.77890 0.63520 0.40380 -0.37200
O 	O 	0.29380 0.45340 0.10140 -0.29300
C 	C 	0.39890 0.48020 0.34370 -0.07700
C 	C 	0.91530 0.82310 0.35060 -0.07300
H 	H 	0.95330 0.83390 0.32230 0.06000
C 	C 	0.45180 0.50230 0.16840 0.06100
H 	H 	0.46920 0.50860 0.10930 0.05700
C 	C 	0.87020 0.76090 0.35860 -0.00200
H 	H 	0.87830 0.73010 0.33710 0.05900
C 	C 	0.46370 0.50530 0.33290 0.04900
H 	H 	0.48900 0.51400 0.38510 0.06500
C 	C 	0.55950 0.54140 0.23840 0.45000
C 	C 	0.80190 0.78990 0.43290 0.00400
H 	H 	0.76360 0.77910 0.46010 0.05600
C 	C 	0.13760 0.23510 0.93490 0.00600
H 	H 	0.13090 0.26430 0.96550 0.05700
C 	C 	0.48960 0.51690 0.24610 -0.11700
C 	C 	0.84700 0.85170 0.42720 -0.08000
H 	H 	0.83930 0.88190 0.45200 0.06500
C 	C 	0.38750 0.47820 0.17860 -0.09300
C 	C 	0.34490 0.46110 0.09260 0.38700
C 	C 	0.36200 0.46800 0.26690 0.03900
H 	H 	0.31940 0.45290 0.27400 0.06000
C 	C 	0.76270 0.67590 0.40450 0.29200
C 	C 	0.24300 0.32080 0.89860 0.29000
C 	C 	0.36960 0.46330 0.43880 0.31200
C 	C 	0.19410 0.25330 0.89700 -0.06300
C 	C 	0.95330 0.93650 0.37810 0.06000
C 	C 	0.90480 0.87010 0.38440 0.01700
C 	C 	0.81210 0.74390 0.39930 -0.05600
C 	C 	0.01740 0.95440 0.37640 -0.12000
H 	H 	0.02880 0.92380 0.37410 0.07400
C 	C 	0.20390 0.21060 0.84660 0.00500
H 	H 	0.24190 0.22310 0.81740 0.05600
C 	C 	0.33070 0.54890 0.88660 0.33100
C 	C 	0.08920 0.17330 0.92920 -0.08300
H 	H 	0.05080 0.16150 0.95690 0.06600
C 	C 	0.68480 0.45730 0.38290 0.36200
C 	C 	0.15580 0.14940 0.84120 -0.07800
H 	H 	0.16250 0.12070 0.80880 0.06300
C 	C 	0.27630 0.61130 0.88300 0.14000
C 	C 	0.33230 0.61020 0.88380 -0.14500
C 	C 	0.67570 0.39350 0.38210 -0.16700
C 	C 	0.61610 0.34260 0.38140 0.15400
C 	C 	0.09810 0.12910 0.88210 0.02200
C 	C 	0.04820 0.06360 0.87840 0.05200
C 	C 	0.98460 0.04680 0.87680 -0.11200
H 	H 	0.97440 0.07820 0.87470 0.07300
In	In	0.43894 0.10916 0.38717 2.00700
In	In	0.55928 0.88902 0.88541 2.00500
O 	O 	0.54480 0.91470 0.01900 -0.50800
O 	O 	0.42910 0.13460 0.25150 -0.64400
O 	O 	0.44540 0.03470 0.31200 -0.53000
O 	O 	0.53780 0.94030 0.50660 -0.43100
O 	O 	0.45570 0.03560 0.15600 -0.51500
O 	O 	0.45200 0.83230 0.87110 -0.42500
O 	O 	0.49690 0.23520 0.38450 -0.32500
O 	O 	0.55150 0.86580 0.45120 -0.39500
O 	O 	0.66380 0.96430 0.88010 -0.40900
O 	O 	0.33750 0.04420 0.40750 -0.44500
O 	O 	0.50080 0.78080 0.90280 -0.39900
O 	O 	0.63770 0.86910 0.92160 -0.41200
O 	O 	0.53730 0.17360 0.38420 -0.48700
O 	O 	0.36480 0.14370 0.40380 -0.37200
O 	O 	0.54660 0.84040 0.10140 -0.29200
C 	C 	0.51980 0.91870 0.34370 -0.07700
C 	C 	0.17690 0.09220 0.35060 -0.07300
H 	H 	0.16610 0.11940 0.32230 0.06000
C 	C 	0.49770 0.94950 0.16840 0.06000
H 	H 	0.49140 0.96060 0.10930 0.05700
C 	C 	0.23910 0.10930 0.35860 -0.00200
H 	H 	0.26990 0.14820 0.33710 0.05900
C 	C 	0.49470 0.95840 0.33290 0.04900
H 	H 	0.48600 0.97500 0.38510 0.06500
C 	C 	0.45860 0.01810 0.23840 0.44900
C 	C 	0.21010 0.01200 0.43290 0.00300
H 	H 	0.22090 0.98450 0.46010 0.05700
C 	C 	0.76490 0.90250 0.93490 0.00100
H 	H 	0.73570 0.86660 0.96550 0.05900
C 	C 	0.48310 0.97270 0.24610 -0.11500
C 	C 	0.14830 0.99530 0.42720 -0.07900
H 	H 	0.11810 0.95740 0.45200 0.06400
C 	C 	0.52180 0.90930 0.17860 -0.09300
C 	C 	0.53890 0.88380 0.09260 0.38700
C 	C 	0.53200 0.89400 0.26690 0.03900
H 	H 	0.54710 0.86650 0.27400 0.06000
C 	C 	0.32410 0.08680 0.40450 0.29200
C 	C 	0.67920 0.92220 0.89860 0.28800
C 	C 	0.53670 0.90630 0.43880 0.31200
C 	C 	0.74670 0.94080 0.89700 -0.05800
C 	C 	0.06350 0.01680 0.37810 0.06000
C 	C 	0.12990 0.03470 0.38440 0.01600
C 	C 	0.25610 0.06820 0.39930 -0.05500
C 	C 	0.04560 0.06300 0.37640 -0.12000
H 	H 	0.07620 0.10500 0.37410 0.07400
C 	C 	0.78940 0.99330 0.84660 -0.00500
H 	H 	0.77690 0.01880 0.81740 0.06000
C 	C 	0.45110 0.78180 0.88660 0.33100
C 	C 	0.82670 0.91590 0.92920 -0.07800
H 	H 	0.83850 0.88930 0.95690 0.06400
C 	C 	0.54270 0.22750 0.38290 0.36200
C 	C 	0.85060 0.00640 0.84120 -0.06800
H 	H 	0.87930 0.04180 0.80880 0.06000
C 	C 	0.38870 0.66500 0.88300 0.14000
C 	C 	0.38980 0.72210 0.88380 -0.14500
C 	C 	0.60650 0.28220 0.38210 -0.16700
C 	C 	0.65740 0.27350 0.38140 0.15400
C 	C 	0.87090 0.96900 0.88210 0.01600
C 	C 	0.93640 0.98460 0.87840 0.05400
C 	C 	0.95320 0.93780 0.87680 -0.11400
H 	H 	0.92180 0.89620 0.87470 0.07300
In	In	0.89084 0.32978 0.38717 2.00700
In	In	0.11098 0.67026 0.88541 2.00500
O 	O 	0.08530 0.63010 0.01900 -0.50700
O 	O 	0.86540 0.29450 0.25150 -0.64400
O 	O 	0.96530 0.41070 0.31200 -0.53000
O 	O 	0.05970 0.59750 0.50660 -0.43100
O 	O 	0.96440 0.42010 0.15600 -0.51500
O 	O 	0.16770 0.61970 0.87110 -0.42500
O 	O 	0.76480 0.26170 0.38450 -0.32500
O 	O 	0.13420 0.68570 0.45120 -0.39500
O 	O 	0.03570 0.69950 0.88010 -0.40900
O 	O 	0.95580 0.29330 0.40750 -0.44500
O 	O 	0.21920 0.72000 0.90280 -0.39900
O 	O 	0.13090 0.76860 0.92160 -0.41300
O 	O 	0.82640 0.36370 0.38420 -0.48700
O 	O 	0.85630 0.22110 0.40380 -0.37200
O 	O 	0.15960 0.70620 0.10140 -0.29200
C 	C 	0.08130 0.60110 0.34370 -0.07600
C 	C 	0.90780 0.08470 0.35060 -0.07200
H 	H 	0.88060 0.04670 0.32230 0.06000
C 	C 	0.05050 0.54820 0.16840 0.06000
H 	H 	0.03940 0.53080 0.10930 0.05700
C 	C 	0.89070 0.12980 0.35860 -0.00300
H 	H 	0.85180 0.12170 0.33710 0.05900
C 	C 	0.04160 0.53630 0.33290 0.04800
H 	H 	0.02500 0.51100 0.38510 0.06500
C 	C 	0.98190 0.44050 0.23840 0.44900
C 	C 	0.98800 0.19810 0.43290 0.00200
H 	H 	0.01550 0.23640 0.46010 0.05700
C 	C 	0.09750 0.86240 0.93490 0.00100
H 	H 	0.13340 0.86910 0.96550 0.05900
C 	C 	0.02730 0.51040 0.24610 -0.11500
C 	C 	0.00470 0.15300 0.42720 -0.07800
H 	H 	0.04260 0.16070 0.45200 0.06400
C 	C 	0.09070 0.61250 0.17860 -0.09200
C 	C 	0.11620 0.65510 0.09260 0.38700
C 	C 	0.10600 0.63800 0.26690 0.03900
H 	H 	0.13350 0.68060 0.27400 0.06100
C 	C 	0.91320 0.23730 0.40450 0.29200
C 	C 	0.07780 0.75700 0.89860 0.28800
C 	C 	0.09370 0.63040 0.43880 0.31200
C 	C 	0.05920 0.80590 0.89700 -0.05800
C 	C 	0.98320 0.04670 0.37810 0.05900
C 	C 	0.96530 0.09520 0.38440 0.01500
C 	C 	0.93180 0.18790 0.39930 -0.05500
C 	C 	0.93700 0.98260 0.37640 -0.12000
H 	H 	0.89500 0.97120 0.37410 0.07400
C 	C 	0.00670 0.79610 0.84660 -0.00600
H 	H 	0.98120 0.75810 0.81740 0.06000
C 	C 	0.21820 0.66930 0.88660 0.33100
C 	C 	0.08410 0.91080 0.92920 -0.07800
H 	H 	0.11070 0.94920 0.95690 0.06300
C 	C 	0.77250 0.31520 0.38290 0.36200
C 	C 	0.99360 0.84420 0.84120 -0.06800
H 	H 	0.95820 0.83750 0.80880 0.05900
C 	C 	0.33500 0.72370 0.88300 0.14000
C 	C 	0.27790 0.66770 0.88380 -0.14500
C 	C 	0.71780 0.32430 0.38210 -0.16700
C 	C 	0.72650 0.38390 0.38140 0.15400
C 	C 	0.03100 0.90190 0.88210 0.01600
C 	C 	0.01540 0.95180 0.87840 0.05300
C 	C 	0.06220 0.01540 0.87680 -0.11300
H 	H 	0.10380 0.02560 0.87470 0.07300
In	In	0.32978 0.43894 0.61283 2.00700
In	In	0.67026 0.55928 0.11459 2.00500
O 	O 	0.63010 0.54480 0.98100 -0.50800
O 	O 	0.29450 0.42910 0.74850 -0.64400
O 	O 	0.41070 0.44540 0.68800 -0.53000
O 	O 	0.59750 0.53780 0.49340 -0.43100
O 	O 	0.42010 0.45570 0.84400 -0.51500
O 	O 	0.61970 0.45200 0.12890 -0.42500
O 	O 	0.26170 0.49690 0.61550 -0.32500
O 	O 	0.68570 0.55150 0.54880 -0.39500
O 	O 	0.69950 0.66380 0.11990 -0.40900
O 	O 	0.29330 0.33750 0.59250 -0.44500
O 	O 	0.72000 0.50080 0.09720 -0.39900
O 	O 	0.76860 0.63770 0.07840 -0.41300
O 	O 	0.36370 0.53730 0.61580 -0.48700
O 	O 	0.22110 0.36480 0.59620 -0.37200
O 	O 	0.70620 0.54660 0.89860 -0.29300
C 	C 	0.60110 0.51980 0.65630 -0.07700
C 	C 	0.08470 0.17690 0.64940 -0.07300
H 	H 	0.04670 0.16610 0.67770 0.06000
C 	C 	0.54820 0.49770 0.83160 0.06100
H 	H 	0.53080 0.49140 0.89070 0.05700
C 	C 	0.12980 0.23910 0.64140 -0.00200
H 	H 	0.12170 0.26990 0.66290 0.05900
C 	C 	0.53630 0.49470 0.66710 0.04900
H 	H 	0.51100 0.48600 0.61490 0.06500
C 	C 	0.44050 0.45860 0.76160 0.45000
C 	C 	0.19810 0.21010 0.56710 0.00400
H 	H 	0.23640 0.22090 0.53990 0.05600
C 	C 	0.86240 0.76490 0.06510 0.00600
H 	H 	0.86910 0.73570 0.03450 0.05700
C 	C 	0.51040 0.48310 0.75390 -0.11700
C 	C 	0.15300 0.14830 0.57280 -0.08000
H 	H 	0.16070 0.11810 0.54800 0.06500
C 	C 	0.61250 0.52180 0.82140 -0.09300
C 	C 	0.65510 0.53890 0.90740 0.38700
C 	C 	0.63800 0.53200 0.73310 0.03900
H 	H 	0.68060 0.54710 0.72600 0.06000
C 	C 	0.23730 0.32410 0.59550 0.29200
C 	C 	0.75700 0.67920 0.10140 0.29000
C 	C 	0.63040 0.53670 0.56120 0.31200
C 	C 	0.80590 0.74670 0.10300 -0.06300
C 	C 	0.04670 0.06350 0.62190 0.06000
C 	C 	0.09520 0.12990 0.61560 0.01700
C 	C 	0.18790 0.25610 0.60070 -0.05600
C 	C 	0.98260 0.04560 0.62360 -0.12000
H 	H 	0.97120 0.07620 0.62590 0.07400
C 	C 	0.79610 0.78940 0.15340 0.00500
H 	H 	0.75810 0.77690 0.18260 0.05600
C 	C 	0.66930 0.45110 0.11340 0.33100
C 	C 	0.91080 0.82670 0.07080 -0.08300
H 	H 	0.94920 0.83850 0.04310 0.06600
C 	C 	0.31520 0.54270 0.61710 0.36200
C 	C 	0.84420 0.85060 0.15880 -0.07800
H 	H 	0.83750 0.87930 0.19120 0.06300
C 	C 	0.72370 0.38870 0.11700 0.14000
C 	C 	0.66770 0.38980 0.11620 -0.14500
C 	C 	0.32430 0.60650 0.61790 -0.16700
C 	C 	0.38390 0.65740 0.61860 0.15400
C 	C 	0.90190 0.87090 0.11790 0.02200
C 	C 	0.95180 0.93640 0.12160 0.05200
C 	C 	0.01540 0.95320 0.12320 -0.11200
H 	H 	0.02560 0.92180 0.12530 0.07300
In	In	0.56106 0.89084 0.61283 2.00700
In	In	0.44072 0.11098 0.11459 2.00500
O 	O 	0.45520 0.08530 0.98100 -0.50800
O 	O 	0.57090 0.86540 0.74850 -0.64400
O 	O 	0.55460 0.96530 0.68800 -0.53000
O 	O 	0.46220 0.05970 0.49340 -0.43100
O 	O 	0.54430 0.96440 0.84400 -0.51500
O 	O 	0.54800 0.16770 0.12890 -0.42500
O 	O 	0.50310 0.76480 0.61550 -0.32500
O 	O 	0.44850 0.13420 0.54880 -0.39500
O 	O 	0.33620 0.03570 0.11990 -0.40900
O 	O 	0.66250 0.95580 0.59250 -0.44500
O 	O 	0.49920 0.21920 0.09720 -0.39900
O 	O 	0.36230 0.13090 0.07840 -0.41200
O 	O 	0.46270 0.82640 0.61580 -0.48700
O 	O 	0.63520 0.85630 0.59620 -0.37200
O 	O 	0.45340 0.15960 0.89860 -0.29200
C 	C 	0.48020 0.08130 0.65630 -0.07700
C 	C 	0.82310 0.90780 0.64940 -0.07300
H 	H 	0.83390 0.88060 0.67770 0.06000
C 	C 	0.50230 0.05050 0.83160 0.06000
H 	H 	0.50860 0.03940 0.89070 0.05700
C 	C 	0.76090 0.89070 0.64140 -0.00200
H 	H 	0.73010 0.85180 0.66290 0.05900
C 	C 	0.50530 0.04160 0.66710 0.04900
H 	H 	0.51400 0.02500 0.61490 0.06500
C 	C 	0.54140 0.98190 0.76160 0.44900
C 	C 	0.78990 0.98800 0.56710 0.00300
H 	H 	0.77910 0.01550 0.53990 0.05700
C 	C 	0.23510 0.09750 0.06510 0.00100
H 	H 	0.26430 0.13340 0.03450 0.05900
C 	C 	0.51690 0.02730 0.75390 -0.11500
C 	C 	0.85170 0.00470 0.57280 -0.07900
H 	H 	0.88190 0.04260 0.54800 0.06400
C 	C 	0.47820 0.09070 0.82140 -0.09300
C 	C 	0.46110 0.11620 0.90740 0.38700
C 	C 	0.46800 0.10600 0.73310 0.03900
H 	H 	0.45290 0.13350 0.72600 0.06000
C 	C 	0.67590 0.91320 0.59550 0.29200
C 	C 	0.32080 0.07780 0.10140 0.28800
C 	C 	0.46330 0.09370 0.56120 0.31200
C 	C 	0.25330 0.05920 0.10300 -0.05800
C 	C 	0.93650 0.98320 0.62190 0.06000
C 	C 	0.87010 0.96530 0.61560 0.01600
C 	C 	0.74390 0.93180 0.60070 -0.05500
C 	C 	0.95440 0.93700 0.62360 -0.12000
H 	H 	0.92380 0.89500 0.62590 0.07400
C 	C 	0.21060 0.00670 0.15340 -0.00500
H 	H 	0.22310 0.98120 0.18260 0.06000
C 	C 	0.54890 0.21820 0.11340 0.33100
C 	C 	0.17330 0.08410 0.07080 -0.07800
H 	H 	0.16150 0.11070 0.04310 0.06400
C 	C 	0.45730 0.77250 0.61710 0.36200
C 	C 	0.14940 0.99360 0.15880 -0.06800
H 	H 	0.12070 0.95820 0.19120 0.06000
C 	C 	0.61130 0.33500 0.11700 0.14000
C 	C 	0.61020 0.27790 0.11620 -0.14500
C 	C 	0.39350 0.71780 0.61790 -0.16700
C 	C 	0.34260 0.72650 0.61860 0.15400
C 	C 	0.12910 0.03100 0.11790 0.01600
C 	C 	0.06360 0.01540 0.12160 0.05400
C 	C 	0.04680 0.06220 0.12320 -0.11400
H 	H 	0.07820 0.10380 0.12530 0.07300
In	In	0.10916 0.67022 0.61283 2.00700
In	In	0.88902 0.32974 0.11459 2.00500
O 	O 	0.91470 0.36990 0.98100 -0.50700
O 	O 	0.13460 0.70550 0.74850 -0.64400
O 	O 	0.03470 0.58930 0.68800 -0.53000
O 	O 	0.94030 0.40250 0.49340 -0.43100
O 	O 	0.03560 0.57990 0.84400 -0.51500
O 	O 	0.83230 0.38030 0.12890 -0.42500
O 	O 	0.23520 0.73830 0.61550 -0.32500
O 	O 	0.86580 0.31430 0.54880 -0.39500
O 	O 	0.96430 0.30050 0.11990 -0.40900
O 	O 	0.04420 0.70670 0.59250 -0.44500
O 	O 	0.78080 0.28000 0.09720 -0.39900
O 	O 	0.86910 0.23140 0.07840 -0.41300
O 	O 	0.17360 0.63630 0.61580 -0.48700
O 	O 	0.14370 0.77890 0.59620 -0.37200
O 	O 	0.84040 0.29380 0.89860 -0.29200
C 	C 	0.91870 0.39890 0.65630 -0.07600
C 	C 	0.09220 0.91530 0.64940 -0.07200
H 	H 	0.11940 0.95330 0.67770 0.06000
C 	C 	0.94950 0.45180 0.83160 0.06000
H 	H 	0.96060 0.46920 0.89070 0.05700
C 	C 	0.10930 0.87020 0.64140 -0.00300
H 	H 	0.14820 0.87830 0.66290 0.05900
C 	C 	0.95840 0.46370 0.66710 0.04800
H 	H 	0.97500 0.48900 0.61490 0.06500
C 	C 	0.01810 0.55950 0.76160 0.44900
C 	C 	0.01200 0.80190 0.56710 0.00200
H 	H 	0.98450 0.76360 0.53990 0.05700
C 	C 	0.90250 0.13760 0.06510 0.00100
H 	H 	0.86660 0.13090 0.03450 0.05900
C 	C 	0.97270 0.48960 0.75390 -0.11500
C 	C 	0.99530 0.84700 0.57280 -0.07800
H 	H 	0.95740 0.83930 0.54800 0.06400
C 	C 	0.90930 0.38750 0.82140 -0.09200
C 	C 	0.88380 0.34490 0.90740 0.38700
C 	C 	0.89400 0.36200 0.73310 0.03900
H 	H 	0.86650 0.31940 0.72600 0.06100
C 	C 	0.08680 0.76270 0.59550 0.29200
C 	C 	0.92220 0.24300 0.10140 0.28800
C 	C 	0.90630 0.36960 0.56120 0.31200
C 	C 	0.94080 0.19410 0.10300 -0.05800
C 	C 	0.01680 0.95330 0.62190 0.05900
C 	C 	0.03470 0.90480 0.61560 0.01500
C 	C 	0.06820 0.81210 0.60070 -0.05500
C 	C 	0.06300 0.01740 0.62360 -0.12000
H 	H 	0.10500 0.02880 0.62590 0.07400
C 	C 	0.99330 0.20390 0.15340 -0.00600
H 	H 	0.01880 0.24190 0.18260 0.06000
C 	C 	0.78180 0.33070 0.11340 0.33100
C 	C 	0.91590 0.08920 0.07080 -0.07800
H 	H 	0.88930 0.05080 0.04310 0.06300
C 	C 	0.22750 0.68480 0.61710 0.36200
C 	C 	0.00640 0.15580 0.15880 -0.06800
H 	H 	0.04180 0.16250 0.19120 0.05900
C 	C 	0.66500 0.27630 0.11700 0.14000
C 	C 	0.72210 0.33230 0.11620 -0.14500
C 	C 	0.28220 0.67570 0.61790 -0.16700
C 	C 	0.27350 0.61610 0.61860 0.15400
C 	C 	0.96900 0.09810 0.11790 0.01600
C 	C 	0.98460 0.04820 0.12160 0.05300
C 	C 	0.93780 0.98460 0.12320 -0.11300
H 	H 	0.89620 0.97440 0.12530 0.07300
