data_crystal

_cell_length_a 6.77000
_cell_length_b 14.46500
_cell_length_c 17.77300
_cell_angle_alpha 90.00000
_cell_angle_beta  90.00000
_cell_angle_gamma 91.27600

_symmetry_space_group_name_	'P 1'
_symmetry_space_group_name_H-M	'P 1'

loop_
_symmetry_equiv_pos_as_xyz
  x,y,z

loop_
_atom_site_label
_atom_site_type_symbol
_atom_site_fract_x
_atom_site_fract_y
_atom_site_fract_z
_atom_site_charge
Cd	Cd	0.55700 0.86316 0.46745 1.22200
Cd	Cd	0.94300 0.13684 0.96745 1.22100
Cd	Cd	0.44300 0.13684 0.53255 1.20400
Cd	Cd	0.05700 0.86316 0.03255 1.20500
Cd	Cd	0.00000 0.00000 0.50000 1.14900
Cd	Cd	0.50000 0.00000 -0.00000 1.13900
H 	H 	0.13270 0.02260 0.26040 0.03600
H 	H 	0.27340 0.20000 0.09440 0.06100
H 	H 	0.33900 0.27750 0.31060 0.09500
H 	H 	0.49880 0.31200 0.07960 0.03700
H 	H 	0.29780 0.36440 0.07630 0.03500
H 	H 	0.80690 0.39470 0.07720 0.08000
H 	H 	0.97780 0.53780 0.06490 0.02000
H 	H 	0.47470 0.67360 0.10150 0.00700
H 	H 	0.31460 0.53400 0.12960 0.09300
H 	H 	0.36730 0.97740 0.76040 0.07600
H 	H 	0.22660 0.80000 0.59440 0.05600
H 	H 	0.16100 0.72250 0.81060 0.08900
H 	H 	0.00120 0.68800 0.57960 0.07000
H 	H 	0.20220 0.63560 0.57630 0.07700
H 	H 	0.69310 0.60530 0.57720 0.11300
H 	H 	0.52220 0.46220 0.56490 -0.00300
H 	H 	0.02530 0.32640 0.60150 -0.05800
H 	H 	0.18540 0.46600 0.62960 0.14600
H 	H 	0.86730 0.97740 0.73960 0.08200
H 	H 	0.72660 0.80000 0.90560 0.07300
H 	H 	0.66100 0.72250 0.68940 0.09300
H 	H 	0.50120 0.68800 0.92040 0.07000
H 	H 	0.70220 0.63560 0.92370 0.07600
H 	H 	0.19310 0.60530 0.92280 0.09400
H 	H 	0.02220 0.46220 0.93510 0.02400
H 	H 	0.52530 0.32640 0.89850 0.00700
H 	H 	0.68540 0.46600 0.87040 0.10500
H 	H 	0.63270 0.02260 0.23960 0.04200
H 	H 	0.77340 0.20000 0.40560 0.07800
H 	H 	0.83900 0.27750 0.18940 0.10000
H 	H 	0.99880 0.31200 0.42040 0.03600
H 	H 	0.79780 0.36440 0.42370 0.03300
H 	H 	0.30690 0.39470 0.42280 0.05900
H 	H 	0.47780 0.53780 0.43510 0.04700
H 	H 	0.97470 0.67360 0.39850 0.07200
H 	H 	0.81460 0.53400 0.37040 0.05200
C 	C 	0.23740 0.14750 0.29890 -0.05100
C 	C 	0.18120 0.08020 0.24490 -0.02700
C 	C 	0.19830 0.10000 0.16910 -0.02600
C 	C 	0.26430 0.18680 0.14550 -0.13400
C 	C 	0.31630 0.25360 0.19780 0.17400
C 	C 	0.30300 0.23280 0.27530 -0.10300
C 	C 	0.22690 0.12250 0.38000 0.36600
C 	C 	0.14320 0.02810 0.11410 0.17000
C 	C 	0.85200 0.70900 0.07300 0.35700
C 	C 	0.74100 0.62010 0.08810 -0.13900
C 	C 	0.42200 0.36020 0.10280 -0.03300
C 	C 	0.53400 0.45100 0.09890 0.09100
C 	C 	0.74200 0.45020 0.08310 -0.13500
C 	C 	0.84400 0.53590 0.07660 0.04900
C 	C 	0.54400 0.61870 0.10060 0.06900
C 	C 	0.44400 0.53430 0.11240 -0.14700
C 	C 	0.26260 0.85250 0.79890 -0.05300
C 	C 	0.31880 0.91980 0.74490 0.01200
C 	C 	0.30170 0.90000 0.66910 -0.08600
C 	C 	0.23570 0.81320 0.64550 -0.09400
C 	C 	0.18370 0.74640 0.69780 0.15100
C 	C 	0.19700 0.76720 0.77530 -0.09000
C 	C 	0.27310 0.87750 0.88000 0.35900
C 	C 	0.35680 0.97190 0.61410 0.39900
C 	C 	0.64800 0.29100 0.57300 0.36800
C 	C 	0.75900 0.37990 0.58810 -0.20700
C 	C 	0.07800 0.63980 0.60280 -0.13000
C 	C 	0.96600 0.54900 0.59890 0.21300
C 	C 	0.75800 0.54980 0.58310 -0.20900
C 	C 	0.65600 0.46410 0.57660 0.12300
C 	C 	0.95600 0.38130 0.60060 0.21900
C 	C 	0.05600 0.46570 0.61240 -0.29300
C 	C 	0.76260 0.85250 0.70110 -0.04500
C 	C 	0.81880 0.91980 0.75510 0.00800
C 	C 	0.80170 0.90000 0.83090 -0.06900
C 	C 	0.73570 0.81320 0.85450 -0.10400
C 	C 	0.68370 0.74640 0.80220 0.16600
C 	C 	0.69700 0.76720 0.72470 -0.09300
C 	C 	0.77310 0.87750 0.62000 0.36400
C 	C 	0.85680 0.97190 0.88590 0.39300
C 	C 	0.14800 0.29100 0.92700 0.32100
C 	C 	0.25900 0.37990 0.91190 -0.12600
C 	C 	0.57800 0.63980 0.89720 -0.07200
C 	C 	0.46600 0.54900 0.90110 0.12400
C 	C 	0.25800 0.54980 0.91690 -0.13700
C 	C 	0.15600 0.46410 0.92340 0.06200
C 	C 	0.45600 0.38130 0.89940 0.08200
C 	C 	0.55600 0.46570 0.88760 -0.15200
C 	C 	0.73740 0.14750 0.20110 -0.04100
C 	C 	0.68120 0.08020 0.25510 -0.03200
C 	C 	0.69830 0.10000 0.33090 -0.00900
C 	C 	0.76430 0.18680 0.35450 -0.14400
C 	C 	0.81630 0.25360 0.30220 0.18900
C 	C 	0.80300 0.23280 0.22470 -0.10600
C 	C 	0.72690 0.12250 0.12000 0.37000
C 	C 	0.64320 0.02810 0.38590 0.16400
C 	C 	0.35200 0.70900 0.42700 0.30800
C 	C 	0.24100 0.62010 0.41190 -0.05600
C 	C 	0.92200 0.36020 0.39720 0.02700
C 	C 	0.03400 0.45100 0.40110 -0.00100
C 	C 	0.24200 0.45020 0.41690 -0.06100
C 	C 	0.34400 0.53590 0.42340 -0.01400
C 	C 	0.04400 0.61870 0.39940 -0.07000
C 	C 	0.94400 0.53430 0.38760 -0.00400
O 	O 	0.13420 0.04920 0.39670 -0.52300
O 	O 	0.31550 0.17620 0.42510 -0.47200
O 	O 	0.18060 0.04090 0.04200 -0.58800
O 	O 	0.06520 0.95270 0.13510 -0.32400
O 	O 	0.38870 0.33950 0.17860 -0.20700
O 	O 	0.76300 0.77780 0.04810 -0.43200
O 	O 	0.03620 0.71250 0.07900 -0.42200
O 	O 	0.36580 0.95080 0.89670 -0.43400
O 	O 	0.18450 0.82380 0.92510 -0.44100
O 	O 	0.31940 0.95910 0.54200 -0.53600
O 	O 	0.43480 0.04730 0.63510 -0.53400
O 	O 	0.11130 0.66050 0.67860 -0.18800
O 	O 	0.73700 0.22220 0.54810 -0.43300
O 	O 	0.46380 0.28750 0.57900 -0.40900
O 	O 	0.86580 0.95080 0.60330 -0.44200
O 	O 	0.68450 0.82380 0.57490 -0.45700
O 	O 	0.81940 0.95910 0.95800 -0.49900
O 	O 	0.93480 0.04730 0.86490 -0.52000
O 	O 	0.61130 0.66050 0.82140 -0.19500
O 	O 	0.23700 0.22220 0.95190 -0.40800
O 	O 	0.96380 0.28750 0.92100 -0.37400
O 	O 	0.63420 0.04920 0.10330 -0.52400
O 	O 	0.81550 0.17620 0.07490 -0.48500
O 	O 	0.68060 0.04090 0.45800 -0.55500
O 	O 	0.56520 0.95270 0.36490 -0.31000
O 	O 	0.88870 0.33950 0.32140 -0.21400
O 	O 	0.26300 0.77780 0.45190 -0.40700
O 	O 	0.53620 0.71250 0.42100 -0.38500
