data_crystal

_cell_length_a 9.34540
_cell_length_b 9.87220
_cell_length_c 12.78170
_cell_angle_alpha 90.00000
_cell_angle_beta  90.00000
_cell_angle_gamma 90.89980

_symmetry_space_group_name_	'P 1'
_symmetry_space_group_name_H-M	'P 1'

loop_
_symmetry_equiv_pos_as_xyz
  x,y,z

loop_
_atom_site_label
_atom_site_type_symbol
_atom_site_fract_x
_atom_site_fract_y
_atom_site_fract_z
_atom_site_charge
Cd	Cd	0.73676 0.98739 0.25382 1.20300
Cd	Cd	0.76324 0.51261 0.75382 1.18500
Cd	Cd	0.26324 0.01261 0.74618 1.15800
Cd	Cd	0.23676 0.48739 0.24618 1.17800
Cd	Cd	0.50000 0.00000 0.50000 1.17600
Cd	Cd	-0.00000 0.50000 -0.00000 1.15100
H 	H 	0.36450 0.28550 0.88720 0.14500
H 	H 	0.47550 0.40040 0.88840 0.18000
H 	H 	0.38470 0.76220 0.91070 0.16200
H 	H 	0.49370 0.64900 0.91430 0.19000
H 	H 	0.13550 0.21450 0.38720 0.11300
H 	H 	0.02450 0.09960 0.38840 0.11100
H 	H 	0.11530 0.73780 0.41070 0.12300
H 	H 	0.00630 0.85100 0.41430 0.15500
H 	H 	0.63550 0.71450 0.11280 0.11400
H 	H 	0.52450 0.59960 0.11160 0.14200
H 	H 	0.61530 0.23780 0.08930 0.09000
H 	H 	0.50630 0.35100 0.08570 0.13400
H 	H 	0.86450 0.78550 0.61280 0.14600
H 	H 	0.97550 0.90040 0.61160 0.21000
H 	H 	0.88470 0.26220 0.58930 0.12800
H 	H 	0.99370 0.14900 0.58570 0.16900
C 	C 	0.49060 0.28420 0.76510 0.19300
C 	C 	0.49750 0.74920 0.78330 0.21600
C 	C 	0.00940 0.21580 0.26510 0.11300
C 	C 	0.00250 0.75080 0.28330 0.14600
C 	C 	0.50940 0.71580 0.23490 0.18900
C 	C 	0.50250 0.25080 0.21670 0.17800
C 	C 	0.99060 0.78420 0.73490 0.26200
C 	C 	0.99750 0.24920 0.71670 0.24300
N 	N 	0.60270 0.33990 0.71580 -0.23200
N 	N 	0.62220 0.26300 0.63020 -0.08900
N 	N 	0.52630 0.16750 0.62860 -0.17400
N 	N 	0.43950 0.17670 0.71350 -0.24400
N 	N 	0.43730 0.32860 0.85780 -0.32700
N 	N 	0.60360 0.68810 0.73140 -0.22600
N 	N 	0.61400 0.75500 0.64010 -0.08700
N 	N 	0.51990 0.84890 0.63720 -0.14600
N 	N 	0.44340 0.84920 0.72640 -0.21100
N 	N 	0.45350 0.71630 0.88070 -0.33200
N 	N 	0.89730 0.16010 0.21580 -0.21600
N 	N 	0.87780 0.23700 0.13020 -0.10000
N 	N 	0.97370 0.33250 0.12860 -0.14100
N 	N 	0.06050 0.32330 0.21350 -0.25600
N 	N 	0.06270 0.17140 0.35780 -0.30300
N 	N 	0.89640 0.81190 0.23140 -0.18800
N 	N 	0.88600 0.74500 0.14010 -0.09200
N 	N 	0.98010 0.65110 0.13720 -0.14000
N 	N 	0.05660 0.65080 0.22640 -0.25000
N 	N 	0.04650 0.78370 0.38070 -0.31200
N 	N 	0.39730 0.66010 0.28420 -0.23200
N 	N 	0.37780 0.73700 0.36980 -0.08000
N 	N 	0.47370 0.83250 0.37140 -0.14500
N 	N 	0.56050 0.82330 0.28650 -0.22800
N 	N 	0.56270 0.67140 0.14220 -0.31500
N 	N 	0.39640 0.31190 0.26860 -0.23000
N 	N 	0.38600 0.24500 0.35990 -0.09500
N 	N 	0.48010 0.15110 0.36280 -0.18000
N 	N 	0.55660 0.15080 0.27360 -0.25000
N 	N 	0.54650 0.28370 0.11930 -0.31300
N 	N 	0.10270 0.83990 0.78420 -0.24200
N 	N 	0.12220 0.76300 0.86980 -0.06600
N 	N 	0.02630 0.66750 0.87140 -0.16800
N 	N 	0.93950 0.67670 0.78650 -0.21900
N 	N 	0.93730 0.82860 0.64220 -0.33800
N 	N 	0.10360 0.18810 0.76860 -0.26700
N 	N 	0.11400 0.25500 0.85990 -0.08900
N 	N 	0.01990 0.34890 0.86280 -0.17800
N 	N 	0.94340 0.34920 0.77360 -0.21400
N 	N 	0.95350 0.21630 0.61930 -0.33200
Cl	Cl	0.77871 0.99901 0.45728 -0.57500
Cl	Cl	0.72129 0.50099 0.95728 -0.58100
Cl	Cl	0.22129 0.00099 0.54272 -0.75300
Cl	Cl	0.27871 0.49901 0.04272 -0.74700
