data_crystal

_cell_length_a 22.45300
_cell_length_b 22.45300
_cell_length_c 22.45300
_cell_angle_alpha 90.00000
_cell_angle_beta  90.00000
_cell_angle_gamma 90.00000

_symmetry_space_group_name_	'P 1'
_symmetry_space_group_name_H-M	'P 1'

loop_
_symmetry_equiv_pos_as_xyz
  x,y,z

loop_
_atom_site_label
_atom_site_type_symbol
_atom_site_fract_x
_atom_site_fract_y
_atom_site_fract_z
_atom_site_charge
In	In	0.32230 0.73916 0.80633 1.99800
C 	C 	0.46120 0.79500 0.60470 -0.04900
H 	H 	0.42570 0.79670 0.58190 0.09000
C 	C 	0.45880 0.78660 0.66620 -0.07700
C 	C 	0.51120 0.78610 0.69940 0.03000
H 	H 	0.50950 0.78050 0.74130 0.07100
C 	C 	0.51630 0.80100 0.57740 0.10100
C 	C 	0.39900 0.77980 0.69510 0.42400
C 	C 	0.56520 0.79360 0.67180 -0.07700
C 	C 	0.56800 0.80190 0.60980 -0.05300
H 	H 	0.60520 0.80810 0.59070 0.09400
C 	C 	0.62310 0.79460 0.70520 0.43400
N 	N 	0.52290 0.80420 0.51380 -0.07400
O 	O 	0.39696 0.76140 0.74780 -0.53100
O 	O 	0.62140 0.78020 0.75920 -0.52800
O 	O 	0.35430 0.79350 0.66270 -0.54800
O 	O 	0.66770 0.81060 0.67580 -0.55400
O 	O 	0.38800 0.73600 0.87160 0.22200
Br	Br	0.40162 0.73680 0.89179 -0.64800
In	In	0.67770 0.26084 0.80633 1.99800
C 	C 	0.53880 0.20500 0.60470 -0.04900
H 	H 	0.57430 0.20330 0.58190 0.09000
C 	C 	0.54120 0.21340 0.66620 -0.07700
C 	C 	0.48880 0.21390 0.69940 0.03000
H 	H 	0.49050 0.21950 0.74130 0.07100
C 	C 	0.48370 0.19900 0.57740 0.10100
C 	C 	0.60100 0.22020 0.69510 0.42400
C 	C 	0.43480 0.20640 0.67180 -0.07700
C 	C 	0.43200 0.19810 0.60980 -0.05300
H 	H 	0.39480 0.19190 0.59070 0.09400
C 	C 	0.37690 0.20540 0.70520 0.43400
N 	N 	0.47710 0.19580 0.51380 -0.07400
O 	O 	0.60304 0.23860 0.74780 -0.53100
O 	O 	0.37860 0.21980 0.75920 -0.52800
O 	O 	0.64570 0.20650 0.66270 -0.54800
O 	O 	0.33230 0.18940 0.67580 -0.55400
O 	O 	0.61200 0.26400 0.87160 0.22300
Br	Br	0.59838 0.26320 0.89179 -0.64700
In	In	0.67770 0.73916 0.19367 1.99900
C 	C 	0.53880 0.79500 0.39530 -0.04800
H 	H 	0.57430 0.79670 0.41810 0.09100
C 	C 	0.54120 0.78660 0.33380 -0.07600
C 	C 	0.48880 0.78610 0.30060 0.03100
H 	H 	0.49050 0.78050 0.25870 0.07200
C 	C 	0.48370 0.80100 0.42260 0.10200
C 	C 	0.60100 0.77980 0.30490 0.42500
C 	C 	0.43480 0.79360 0.32820 -0.07600
C 	C 	0.43200 0.80190 0.39020 -0.05200
H 	H 	0.39480 0.80810 0.40930 0.09500
C 	C 	0.37690 0.79460 0.29480 0.43500
N 	N 	0.47710 0.80420 0.48620 -0.07300
O 	O 	0.60304 0.76140 0.25220 -0.53000
O 	O 	0.37860 0.78020 0.24080 -0.52700
O 	O 	0.64570 0.79350 0.33730 -0.54700
O 	O 	0.33230 0.81060 0.32420 -0.55300
O 	O 	0.61200 0.73600 0.12840 0.22300
Br	Br	0.59838 0.73680 0.10821 -0.64700
In	In	0.32230 0.26084 0.19367 1.99900
C 	C 	0.46120 0.20500 0.39530 -0.04800
H 	H 	0.42570 0.20330 0.41810 0.09100
C 	C 	0.45880 0.21340 0.33380 -0.07600
C 	C 	0.51120 0.21390 0.30060 0.03100
H 	H 	0.50950 0.21950 0.25870 0.07200
C 	C 	0.51630 0.19900 0.42260 0.10200
C 	C 	0.39900 0.22020 0.30490 0.42500
C 	C 	0.56520 0.20640 0.32820 -0.07600
C 	C 	0.56800 0.19810 0.39020 -0.05200
H 	H 	0.60520 0.19190 0.40930 0.09500
C 	C 	0.62310 0.20540 0.29480 0.43500
N 	N 	0.52290 0.19580 0.48620 -0.07300
O 	O 	0.39696 0.23860 0.25220 -0.53000
O 	O 	0.62140 0.21980 0.24080 -0.52700
O 	O 	0.35430 0.20650 0.33730 -0.54700
O 	O 	0.66770 0.18940 0.32420 -0.55300
O 	O 	0.38800 0.26400 0.12840 0.22300
Br	Br	0.40162 0.26320 0.10821 -0.64700
In	In	0.80633 0.32230 0.73916 1.99900
C 	C 	0.60470 0.46120 0.79500 -0.04800
H 	H 	0.58190 0.42570 0.79670 0.09100
C 	C 	0.66620 0.45880 0.78660 -0.07600
C 	C 	0.69940 0.51120 0.78610 0.03100
H 	H 	0.74130 0.50950 0.78050 0.07200
C 	C 	0.57740 0.51630 0.80100 0.10200
C 	C 	0.69510 0.39900 0.77980 0.42500
C 	C 	0.67180 0.56520 0.79360 -0.07600
C 	C 	0.60980 0.56800 0.80190 -0.05200
H 	H 	0.59070 0.60520 0.80810 0.09500
C 	C 	0.70520 0.62310 0.79460 0.43500
N 	N 	0.51380 0.52290 0.80420 -0.07300
O 	O 	0.74780 0.39696 0.76140 -0.53000
O 	O 	0.75920 0.62140 0.78020 -0.52700
O 	O 	0.66270 0.35430 0.79350 -0.54700
O 	O 	0.67580 0.66770 0.81060 -0.55300
O 	O 	0.87160 0.38800 0.73600 0.22300
Br	Br	0.89179 0.40162 0.73680 -0.64700
In	In	0.80633 0.67770 0.26084 1.99900
C 	C 	0.60470 0.53880 0.20500 -0.04800
H 	H 	0.58190 0.57430 0.20330 0.09100
C 	C 	0.66620 0.54120 0.21340 -0.07600
C 	C 	0.69940 0.48880 0.21390 0.03100
H 	H 	0.74130 0.49050 0.21950 0.07200
C 	C 	0.57740 0.48370 0.19900 0.10200
C 	C 	0.69510 0.60100 0.22020 0.42500
C 	C 	0.67180 0.43480 0.20640 -0.07600
C 	C 	0.60980 0.43200 0.19810 -0.05200
H 	H 	0.59070 0.39480 0.19190 0.09500
C 	C 	0.70520 0.37690 0.20540 0.43500
N 	N 	0.51380 0.47710 0.19580 -0.07300
O 	O 	0.74780 0.60304 0.23860 -0.53000
O 	O 	0.75920 0.37860 0.21980 -0.52700
O 	O 	0.66270 0.64570 0.20650 -0.54700
O 	O 	0.67580 0.33230 0.18940 -0.55300
O 	O 	0.87160 0.61200 0.26400 0.22300
Br	Br	0.89179 0.59838 0.26320 -0.64700
In	In	0.19367 0.67770 0.73916 1.99900
C 	C 	0.39530 0.53880 0.79500 -0.04800
H 	H 	0.41810 0.57430 0.79670 0.09100
C 	C 	0.33380 0.54120 0.78660 -0.07600
C 	C 	0.30060 0.48880 0.78610 0.03100
H 	H 	0.25870 0.49050 0.78050 0.07200
C 	C 	0.42260 0.48370 0.80100 0.10200
C 	C 	0.30490 0.60100 0.77980 0.42500
C 	C 	0.32820 0.43480 0.79360 -0.07600
C 	C 	0.39020 0.43200 0.80190 -0.05200
H 	H 	0.40930 0.39480 0.80810 0.09500
C 	C 	0.29480 0.37690 0.79460 0.43500
N 	N 	0.48620 0.47710 0.80420 -0.07300
O 	O 	0.25220 0.60304 0.76140 -0.53000
O 	O 	0.24080 0.37860 0.78020 -0.52700
O 	O 	0.33730 0.64570 0.79350 -0.54700
O 	O 	0.32420 0.33230 0.81060 -0.55300
O 	O 	0.12840 0.61200 0.73600 0.22300
Br	Br	0.10821 0.59838 0.73680 -0.64700
In	In	0.19367 0.32230 0.26084 1.99900
C 	C 	0.39530 0.46120 0.20500 -0.04800
H 	H 	0.41810 0.42570 0.20330 0.09100
C 	C 	0.33380 0.45880 0.21340 -0.07600
C 	C 	0.30060 0.51120 0.21390 0.03100
H 	H 	0.25870 0.50950 0.21950 0.07200
C 	C 	0.42260 0.51630 0.19900 0.10200
C 	C 	0.30490 0.39900 0.22020 0.42500
C 	C 	0.32820 0.56520 0.20640 -0.07600
C 	C 	0.39020 0.56800 0.19810 -0.05200
H 	H 	0.40930 0.60520 0.19190 0.09500
C 	C 	0.29480 0.62310 0.20540 0.43500
N 	N 	0.48620 0.52290 0.19580 -0.07300
O 	O 	0.25220 0.39696 0.23860 -0.53000
O 	O 	0.24080 0.62140 0.21980 -0.52700
O 	O 	0.33730 0.35430 0.20650 -0.54700
O 	O 	0.32420 0.66770 0.18940 -0.55300
O 	O 	0.12840 0.38800 0.26400 0.22300
Br	Br	0.10821 0.40162 0.26320 -0.64700
In	In	0.73916 0.80633 0.32230 1.99900
C 	C 	0.79500 0.60470 0.46120 -0.04800
H 	H 	0.79670 0.58190 0.42570 0.09100
C 	C 	0.78660 0.66620 0.45880 -0.07600
C 	C 	0.78610 0.69940 0.51120 0.03100
H 	H 	0.78050 0.74130 0.50950 0.07200
C 	C 	0.80100 0.57740 0.51630 0.10200
C 	C 	0.77980 0.69510 0.39900 0.42500
C 	C 	0.79360 0.67180 0.56520 -0.07600
C 	C 	0.80190 0.60980 0.56800 -0.05200
H 	H 	0.80810 0.59070 0.60520 0.09500
C 	C 	0.79460 0.70520 0.62310 0.43500
N 	N 	0.80420 0.51380 0.52290 -0.07300
O 	O 	0.76140 0.74780 0.39696 -0.53000
O 	O 	0.78020 0.75920 0.62140 -0.52700
O 	O 	0.79350 0.66270 0.35430 -0.54700
O 	O 	0.81060 0.67580 0.66770 -0.55300
O 	O 	0.73600 0.87160 0.38800 0.22300
Br	Br	0.73680 0.89179 0.40162 -0.64700
In	In	0.26084 0.80633 0.67770 1.99900
C 	C 	0.20500 0.60470 0.53880 -0.04800
H 	H 	0.20330 0.58190 0.57430 0.09100
C 	C 	0.21340 0.66620 0.54120 -0.07600
C 	C 	0.21390 0.69940 0.48880 0.03100
H 	H 	0.21950 0.74130 0.49050 0.07200
C 	C 	0.19900 0.57740 0.48370 0.10200
C 	C 	0.22020 0.69510 0.60100 0.42500
C 	C 	0.20640 0.67180 0.43480 -0.07600
C 	C 	0.19810 0.60980 0.43200 -0.05200
H 	H 	0.19190 0.59070 0.39480 0.09500
C 	C 	0.20540 0.70520 0.37690 0.43500
N 	N 	0.19580 0.51380 0.47710 -0.07300
O 	O 	0.23860 0.74780 0.60304 -0.53000
O 	O 	0.21980 0.75920 0.37860 -0.52700
O 	O 	0.20650 0.66270 0.64570 -0.54700
O 	O 	0.18940 0.67580 0.33230 -0.55300
O 	O 	0.26400 0.87160 0.61200 0.22300
Br	Br	0.26320 0.89179 0.59838 -0.64700
In	In	0.73916 0.19367 0.67770 1.99900
C 	C 	0.79500 0.39530 0.53880 -0.04800
H 	H 	0.79670 0.41810 0.57430 0.09100
C 	C 	0.78660 0.33380 0.54120 -0.07600
C 	C 	0.78610 0.30060 0.48880 0.03100
H 	H 	0.78050 0.25870 0.49050 0.07200
C 	C 	0.80100 0.42260 0.48370 0.10200
C 	C 	0.77980 0.30490 0.60100 0.42500
C 	C 	0.79360 0.32820 0.43480 -0.07600
C 	C 	0.80190 0.39020 0.43200 -0.05200
H 	H 	0.80810 0.40930 0.39480 0.09500
C 	C 	0.79460 0.29480 0.37690 0.43500
N 	N 	0.80420 0.48620 0.47710 -0.07300
O 	O 	0.76140 0.25220 0.60304 -0.53000
O 	O 	0.78020 0.24080 0.37860 -0.52700
O 	O 	0.79350 0.33730 0.64570 -0.54700
O 	O 	0.81060 0.32420 0.33230 -0.55300
O 	O 	0.73600 0.12840 0.61200 0.22300
Br	Br	0.73680 0.10821 0.59838 -0.64700
In	In	0.26084 0.19367 0.32230 1.99900
C 	C 	0.20500 0.39530 0.46120 -0.04800
H 	H 	0.20330 0.41810 0.42570 0.09100
C 	C 	0.21340 0.33380 0.45880 -0.07600
C 	C 	0.21390 0.30060 0.51120 0.03100
H 	H 	0.21950 0.25870 0.50950 0.07200
C 	C 	0.19900 0.42260 0.51630 0.10200
C 	C 	0.22020 0.30490 0.39900 0.42500
C 	C 	0.20640 0.32820 0.56520 -0.07600
C 	C 	0.19810 0.39020 0.56800 -0.05200
H 	H 	0.19190 0.40930 0.60520 0.09500
C 	C 	0.20540 0.29480 0.62310 0.43500
N 	N 	0.19580 0.48620 0.52290 -0.07300
O 	O 	0.23860 0.25220 0.39696 -0.53000
O 	O 	0.21980 0.24080 0.62140 -0.52700
O 	O 	0.20650 0.33730 0.35430 -0.54700
O 	O 	0.18940 0.32420 0.66770 -0.55300
O 	O 	0.26400 0.12840 0.38800 0.22300
Br	Br	0.26320 0.10821 0.40162 -0.64700
In	In	0.23916 0.82230 0.30633 1.99900
C 	C 	0.29500 0.96120 0.10470 -0.04800
H 	H 	0.29670 0.92570 0.08190 0.09100
C 	C 	0.28660 0.95880 0.16620 -0.07600
C 	C 	0.28610 0.01120 0.19940 0.03100
H 	H 	0.28050 0.00950 0.24130 0.07200
C 	C 	0.30100 0.01630 0.07740 0.10200
C 	C 	0.27980 0.89900 0.19510 0.42500
C 	C 	0.29360 0.06520 0.17180 -0.07700
C 	C 	0.30190 0.06800 0.10980 -0.05200
H 	H 	0.30810 0.10520 0.09070 0.09500
C 	C 	0.29460 0.12310 0.20520 0.43500
N 	N 	0.30420 0.02290 0.01380 -0.07300
O 	O 	0.26140 0.89696 0.24780 -0.53000
O 	O 	0.28020 0.12140 0.25920 -0.52700
O 	O 	0.29350 0.85430 0.16270 -0.54700
O 	O 	0.31060 0.16770 0.17580 -0.55300
O 	O 	0.23600 0.88800 0.37160 0.22300
Br	Br	0.23680 0.90162 0.39179 -0.64700
In	In	0.76084 0.17770 0.30633 1.99900
C 	C 	0.70500 0.03880 0.10470 -0.04800
H 	H 	0.70330 0.07430 0.08190 0.09100
C 	C 	0.71340 0.04120 0.16620 -0.07600
C 	C 	0.71390 0.98880 0.19940 0.03100
H 	H 	0.71950 0.99050 0.24130 0.07200
C 	C 	0.69900 0.98370 0.07740 0.10200
C 	C 	0.72020 0.10100 0.19510 0.42500
C 	C 	0.70640 0.93480 0.17180 -0.07700
C 	C 	0.69810 0.93200 0.10980 -0.05200
H 	H 	0.69190 0.89480 0.09070 0.09500
C 	C 	0.70540 0.87690 0.20520 0.43500
N 	N 	0.69580 0.97710 0.01380 -0.07300
O 	O 	0.73860 0.10304 0.24780 -0.53000
O 	O 	0.71980 0.87860 0.25920 -0.52700
O 	O 	0.70650 0.14570 0.16270 -0.54700
O 	O 	0.68940 0.83230 0.17580 -0.55300
O 	O 	0.76400 0.11200 0.37160 0.22300
Br	Br	0.76320 0.09838 0.39179 -0.64700
In	In	0.23916 0.17770 0.69367 1.99900
C 	C 	0.29500 0.03880 0.89530 -0.04800
H 	H 	0.29670 0.07430 0.91810 0.09100
C 	C 	0.28660 0.04120 0.83380 -0.07600
C 	C 	0.28610 0.98880 0.80060 0.03100
H 	H 	0.28050 0.99050 0.75870 0.07200
C 	C 	0.30100 0.98370 0.92260 0.10200
C 	C 	0.27980 0.10100 0.80490 0.42500
C 	C 	0.29360 0.93480 0.82820 -0.07700
C 	C 	0.30190 0.93200 0.89020 -0.05200
H 	H 	0.30810 0.89480 0.90930 0.09500
C 	C 	0.29460 0.87690 0.79480 0.43500
N 	N 	0.30420 0.97710 0.98620 -0.07300
O 	O 	0.26140 0.10304 0.75220 -0.53000
O 	O 	0.28020 0.87860 0.74080 -0.52700
O 	O 	0.29350 0.14570 0.83730 -0.54700
O 	O 	0.31060 0.83230 0.82420 -0.55300
O 	O 	0.23600 0.11200 0.62840 0.22300
Br	Br	0.23680 0.09838 0.60821 -0.64700
In	In	0.76084 0.82230 0.69367 1.99900
C 	C 	0.70500 0.96120 0.89530 -0.04800
H 	H 	0.70330 0.92570 0.91810 0.09100
C 	C 	0.71340 0.95880 0.83380 -0.07600
C 	C 	0.71390 0.01120 0.80060 0.03100
H 	H 	0.71950 0.00950 0.75870 0.07200
C 	C 	0.69900 0.01630 0.92260 0.10200
C 	C 	0.72020 0.89900 0.80490 0.42500
C 	C 	0.70640 0.06520 0.82820 -0.07700
C 	C 	0.69810 0.06800 0.89020 -0.05200
H 	H 	0.69190 0.10520 0.90930 0.09500
C 	C 	0.70540 0.12310 0.79480 0.43500
N 	N 	0.69580 0.02290 0.98620 -0.07300
O 	O 	0.73860 0.89696 0.75220 -0.53000
O 	O 	0.71980 0.12140 0.74080 -0.52700
O 	O 	0.70650 0.85430 0.83730 -0.54700
O 	O 	0.68940 0.16770 0.82420 -0.55300
O 	O 	0.76400 0.88800 0.62840 0.22300
Br	Br	0.76320 0.90162 0.60821 -0.64700
In	In	0.82230 0.30633 0.23916 1.99900
C 	C 	0.96120 0.10470 0.29500 -0.04800
H 	H 	0.92570 0.08190 0.29670 0.09100
C 	C 	0.95880 0.16620 0.28660 -0.07600
C 	C 	0.01120 0.19940 0.28610 0.03100
H 	H 	0.00950 0.24130 0.28050 0.07200
C 	C 	0.01630 0.07740 0.30100 0.10200
C 	C 	0.89900 0.19510 0.27980 0.42500
C 	C 	0.06520 0.17180 0.29360 -0.07700
C 	C 	0.06800 0.10980 0.30190 -0.05200
H 	H 	0.10520 0.09070 0.30810 0.09500
C 	C 	0.12310 0.20520 0.29460 0.43500
N 	N 	0.02290 0.01380 0.30420 -0.07300
O 	O 	0.89696 0.24780 0.26140 -0.53000
O 	O 	0.12140 0.25920 0.28020 -0.52700
O 	O 	0.85430 0.16270 0.29350 -0.54700
O 	O 	0.16770 0.17580 0.31060 -0.55300
O 	O 	0.88800 0.37160 0.23600 0.22300
Br	Br	0.90162 0.39179 0.23680 -0.64700
In	In	0.17770 0.30633 0.76084 1.99900
C 	C 	0.03880 0.10470 0.70500 -0.04800
H 	H 	0.07430 0.08190 0.70330 0.09100
C 	C 	0.04120 0.16620 0.71340 -0.07600
C 	C 	0.98880 0.19940 0.71390 0.03100
H 	H 	0.99050 0.24130 0.71950 0.07200
C 	C 	0.98370 0.07740 0.69900 0.10200
C 	C 	0.10100 0.19510 0.72020 0.42500
C 	C 	0.93480 0.17180 0.70640 -0.07700
C 	C 	0.93200 0.10980 0.69810 -0.05200
H 	H 	0.89480 0.09070 0.69190 0.09500
C 	C 	0.87690 0.20520 0.70540 0.43500
N 	N 	0.97710 0.01380 0.69580 -0.07300
O 	O 	0.10304 0.24780 0.73860 -0.53000
O 	O 	0.87860 0.25920 0.71980 -0.52700
O 	O 	0.14570 0.16270 0.70650 -0.54700
O 	O 	0.83230 0.17580 0.68940 -0.55300
O 	O 	0.11200 0.37160 0.76400 0.22300
Br	Br	0.09838 0.39179 0.76320 -0.64700
In	In	0.17770 0.69367 0.23916 1.99900
C 	C 	0.03880 0.89530 0.29500 -0.04800
H 	H 	0.07430 0.91810 0.29670 0.09100
C 	C 	0.04120 0.83380 0.28660 -0.07600
C 	C 	0.98880 0.80060 0.28610 0.03100
H 	H 	0.99050 0.75870 0.28050 0.07200
C 	C 	0.98370 0.92260 0.30100 0.10200
C 	C 	0.10100 0.80490 0.27980 0.42500
C 	C 	0.93480 0.82820 0.29360 -0.07700
C 	C 	0.93200 0.89020 0.30190 -0.05200
H 	H 	0.89480 0.90930 0.30810 0.09500
C 	C 	0.87690 0.79480 0.29460 0.43500
N 	N 	0.97710 0.98620 0.30420 -0.07300
O 	O 	0.10304 0.75220 0.26140 -0.53000
O 	O 	0.87860 0.74080 0.28020 -0.52700
O 	O 	0.14570 0.83730 0.29350 -0.54700
O 	O 	0.83230 0.82420 0.31060 -0.55300
O 	O 	0.11200 0.62840 0.23600 0.22300
Br	Br	0.09838 0.60821 0.23680 -0.64700
In	In	0.82230 0.69367 0.76084 1.99900
C 	C 	0.96120 0.89530 0.70500 -0.04800
H 	H 	0.92570 0.91810 0.70330 0.09100
C 	C 	0.95880 0.83380 0.71340 -0.07600
C 	C 	0.01120 0.80060 0.71390 0.03100
H 	H 	0.00950 0.75870 0.71950 0.07200
C 	C 	0.01630 0.92260 0.69900 0.10200
C 	C 	0.89900 0.80490 0.72020 0.42500
C 	C 	0.06520 0.82820 0.70640 -0.07700
C 	C 	0.06800 0.89020 0.69810 -0.05200
H 	H 	0.10520 0.90930 0.69190 0.09500
C 	C 	0.12310 0.79480 0.70540 0.43500
N 	N 	0.02290 0.98620 0.69580 -0.07300
O 	O 	0.89696 0.75220 0.73860 -0.53000
O 	O 	0.12140 0.74080 0.71980 -0.52700
O 	O 	0.85430 0.83730 0.70650 -0.54700
O 	O 	0.16770 0.82420 0.68940 -0.55300
O 	O 	0.88800 0.62840 0.76400 0.22300
Br	Br	0.90162 0.60821 0.76320 -0.64700
In	In	0.30633 0.23916 0.82230 1.99900
C 	C 	0.10470 0.29500 0.96120 -0.04800
H 	H 	0.08190 0.29670 0.92570 0.09100
C 	C 	0.16620 0.28660 0.95880 -0.07600
C 	C 	0.19940 0.28610 0.01120 0.03100
H 	H 	0.24130 0.28050 0.00950 0.07200
C 	C 	0.07740 0.30100 0.01630 0.10200
C 	C 	0.19510 0.27980 0.89900 0.42500
C 	C 	0.17180 0.29360 0.06520 -0.07700
C 	C 	0.10980 0.30190 0.06800 -0.05200
H 	H 	0.09070 0.30810 0.10520 0.09500
C 	C 	0.20520 0.29460 0.12310 0.43500
N 	N 	0.01380 0.30420 0.02290 -0.07300
O 	O 	0.24780 0.26140 0.89696 -0.53000
O 	O 	0.25920 0.28020 0.12140 -0.52700
O 	O 	0.16270 0.29350 0.85430 -0.54700
O 	O 	0.17580 0.31060 0.16770 -0.55300
O 	O 	0.37160 0.23600 0.88800 0.22300
Br	Br	0.39179 0.23680 0.90162 -0.64700
In	In	0.30633 0.76084 0.17770 1.99900
C 	C 	0.10470 0.70500 0.03880 -0.04800
H 	H 	0.08190 0.70330 0.07430 0.09100
C 	C 	0.16620 0.71340 0.04120 -0.07600
C 	C 	0.19940 0.71390 0.98880 0.03100
H 	H 	0.24130 0.71950 0.99050 0.07200
C 	C 	0.07740 0.69900 0.98370 0.10200
C 	C 	0.19510 0.72020 0.10100 0.42500
C 	C 	0.17180 0.70640 0.93480 -0.07700
C 	C 	0.10980 0.69810 0.93200 -0.05200
H 	H 	0.09070 0.69190 0.89480 0.09500
C 	C 	0.20520 0.70540 0.87690 0.43500
N 	N 	0.01380 0.69580 0.97710 -0.07300
O 	O 	0.24780 0.73860 0.10304 -0.53000
O 	O 	0.25920 0.71980 0.87860 -0.52700
O 	O 	0.16270 0.70650 0.14570 -0.54700
O 	O 	0.17580 0.68940 0.83230 -0.55300
O 	O 	0.37160 0.76400 0.11200 0.22300
Br	Br	0.39179 0.76320 0.09838 -0.64700
In	In	0.69367 0.23916 0.17770 1.99900
C 	C 	0.89530 0.29500 0.03880 -0.04800
H 	H 	0.91810 0.29670 0.07430 0.09100
C 	C 	0.83380 0.28660 0.04120 -0.07600
C 	C 	0.80060 0.28610 0.98880 0.03100
H 	H 	0.75870 0.28050 0.99050 0.07200
C 	C 	0.92260 0.30100 0.98370 0.10200
C 	C 	0.80490 0.27980 0.10100 0.42500
C 	C 	0.82820 0.29360 0.93480 -0.07700
C 	C 	0.89020 0.30190 0.93200 -0.05200
H 	H 	0.90930 0.30810 0.89480 0.09500
C 	C 	0.79480 0.29460 0.87690 0.43500
N 	N 	0.98620 0.30420 0.97710 -0.07300
O 	O 	0.75220 0.26140 0.10304 -0.53000
O 	O 	0.74080 0.28020 0.87860 -0.52700
O 	O 	0.83730 0.29350 0.14570 -0.54700
O 	O 	0.82420 0.31060 0.83230 -0.55300
O 	O 	0.62840 0.23600 0.11200 0.22300
Br	Br	0.60821 0.23680 0.09838 -0.64700
In	In	0.69367 0.76084 0.82230 1.99900
C 	C 	0.89530 0.70500 0.96120 -0.04800
H 	H 	0.91810 0.70330 0.92570 0.09100
C 	C 	0.83380 0.71340 0.95880 -0.07600
C 	C 	0.80060 0.71390 0.01120 0.03100
H 	H 	0.75870 0.71950 0.00950 0.07200
C 	C 	0.92260 0.69900 0.01630 0.10200
C 	C 	0.80490 0.72020 0.89900 0.42500
C 	C 	0.82820 0.70640 0.06520 -0.07700
C 	C 	0.89020 0.69810 0.06800 -0.05200
H 	H 	0.90930 0.69190 0.10520 0.09500
C 	C 	0.79480 0.70540 0.12310 0.43500
N 	N 	0.98620 0.69580 0.02290 -0.07300
O 	O 	0.75220 0.73860 0.89696 -0.53000
O 	O 	0.74080 0.71980 0.12140 -0.52700
O 	O 	0.83730 0.70650 0.85430 -0.54700
O 	O 	0.82420 0.68940 0.16770 -0.55300
O 	O 	0.62840 0.76400 0.88800 0.22300
Br	Br	0.60821 0.76320 0.90162 -0.64700
O 	O 	0.25960 0.74040 0.74040 -1.02600
O 	O 	0.74040 0.25960 0.74040 -1.02600
O 	O 	0.74040 0.74040 0.25960 -1.02600
O 	O 	0.25960 0.25960 0.25960 -1.02600
O 	O 	0.24040 0.75960 0.24040 -1.02600
O 	O 	0.75960 0.24040 0.24040 -1.02600
O 	O 	0.24040 0.24040 0.75960 -1.02600
O 	O 	0.75960 0.75960 0.75960 -1.02600
