data_crystal

_cell_length_a 28.39030
_cell_length_b 28.39030
_cell_length_c 28.39030
_cell_angle_alpha 60.00000
_cell_angle_beta  60.00000
_cell_angle_gamma 60.00000

_symmetry_space_group_name_	'P 1'
_symmetry_space_group_name_H-M	'P 1'

loop_
_symmetry_equiv_pos_as_xyz
  x,y,z

loop_
_atom_site_label
_atom_site_type_symbol
_atom_site_fract_x
_atom_site_fract_y
_atom_site_fract_z
_atom_site_charge
Cr	Cr	0.92924 0.81128 0.44820 1.60300
Cr	Cr	0.81128 0.92924 0.81128 1.60300
Cr	Cr	0.44820 0.81128 0.92924 1.60300
Cr	Cr	0.81128 0.44820 0.81128 1.60300
Cr	Cr	0.92924 0.44820 0.81128 1.60300
Cr	Cr	0.81128 0.81128 0.44820 1.60300
Cr	Cr	0.44820 0.92924 0.81128 1.60300
Cr	Cr	0.81128 0.81128 0.92924 1.60300
Cr	Cr	0.92924 0.81128 0.81128 1.60300
Cr	Cr	0.81128 0.44820 0.92924 1.60300
Cr	Cr	0.44820 0.81128 0.81128 1.60300
Cr	Cr	0.81128 0.92924 0.44820 1.60300
Cr	Cr	0.18872 0.07076 0.55180 1.60400
Cr	Cr	0.07076 0.18872 0.18872 1.60400
Cr	Cr	0.18872 0.55180 0.07076 1.60400
Cr	Cr	0.55180 0.18872 0.18872 1.60400
Cr	Cr	0.55180 0.07076 0.18872 1.60400
Cr	Cr	0.18872 0.18872 0.55180 1.60400
Cr	Cr	0.07076 0.55180 0.18872 1.60400
Cr	Cr	0.18872 0.18872 0.07076 1.60400
Cr	Cr	0.18872 0.07076 0.18872 1.60400
Cr	Cr	0.55180 0.18872 0.07076 1.60400
Cr	Cr	0.18872 0.55180 0.18872 1.60400
Cr	Cr	0.07076 0.18872 0.55180 1.60400
H 	H 	0.04615 0.73939 0.32349 0.03500
H 	H 	0.95481 0.79961 0.57833 0.03500
H 	H 	0.73939 0.04615 0.89097 0.03500
H 	H 	0.79961 0.95481 0.66725 0.03500
H 	H 	0.32349 0.89097 0.04615 0.03500
H 	H 	0.57833 0.66725 0.95481 0.03500
H 	H 	0.89097 0.32349 0.73939 0.03500
H 	H 	0.66725 0.57833 0.79961 0.03500
H 	H 	0.04615 0.32349 0.89097 0.03500
H 	H 	0.95481 0.57833 0.66725 0.03500
H 	H 	0.73939 0.89097 0.32349 0.03500
H 	H 	0.79961 0.66725 0.57833 0.03500
H 	H 	0.32349 0.04615 0.73939 0.03500
H 	H 	0.57833 0.95481 0.79961 0.03500
H 	H 	0.89097 0.73939 0.04615 0.03500
H 	H 	0.66725 0.79961 0.95481 0.03500
H 	H 	0.04615 0.89097 0.73939 0.03500
H 	H 	0.95481 0.66725 0.79961 0.03500
H 	H 	0.73939 0.32349 0.04615 0.03500
H 	H 	0.79961 0.57833 0.95481 0.03500
H 	H 	0.32349 0.73939 0.89097 0.03500
H 	H 	0.57833 0.79961 0.66725 0.03500
H 	H 	0.89097 0.04615 0.32349 0.03500
H 	H 	0.66725 0.95481 0.57833 0.03500
H 	H 	0.26061 0.95385 0.67651 0.03500
H 	H 	0.20039 0.04519 0.42167 0.03500
H 	H 	0.95385 0.26061 0.10903 0.03500
H 	H 	0.04519 0.20039 0.33275 0.03500
H 	H 	0.10903 0.67651 0.95385 0.03500
H 	H 	0.33275 0.42167 0.04519 0.03500
H 	H 	0.67651 0.10903 0.26061 0.03500
H 	H 	0.42167 0.33275 0.20039 0.03500
H 	H 	0.67651 0.95385 0.10903 0.03500
H 	H 	0.42167 0.04519 0.33275 0.03500
H 	H 	0.10903 0.26061 0.67651 0.03500
H 	H 	0.33275 0.20039 0.42167 0.03500
H 	H 	0.95385 0.67651 0.26061 0.03500
H 	H 	0.04519 0.42167 0.20039 0.03500
H 	H 	0.26061 0.10903 0.95385 0.03500
H 	H 	0.20039 0.33275 0.04519 0.03500
H 	H 	0.10903 0.95385 0.26061 0.03500
H 	H 	0.33275 0.04519 0.20039 0.03500
H 	H 	0.67651 0.26061 0.95385 0.03500
H 	H 	0.42167 0.20039 0.04519 0.03500
H 	H 	0.26061 0.67651 0.10903 0.03500
H 	H 	0.20039 0.42167 0.33275 0.03500
H 	H 	0.95385 0.10903 0.67651 0.03500
H 	H 	0.04519 0.33275 0.42167 0.03500
H 	H 	0.95385 0.26061 0.67651 0.03500
H 	H 	0.04519 0.20039 0.42167 0.03500
H 	H 	0.26061 0.95385 0.10903 0.03500
H 	H 	0.20039 0.04519 0.33275 0.03500
H 	H 	0.67651 0.10903 0.95385 0.03500
H 	H 	0.42167 0.33275 0.04519 0.03500
H 	H 	0.10903 0.67651 0.26061 0.03500
H 	H 	0.33275 0.42167 0.20039 0.03500
H 	H 	0.95385 0.67651 0.10903 0.03500
H 	H 	0.04519 0.42167 0.33275 0.03500
H 	H 	0.26061 0.10903 0.67651 0.03500
H 	H 	0.20039 0.33275 0.42167 0.03500
H 	H 	0.67651 0.95385 0.26061 0.03500
H 	H 	0.42167 0.04519 0.20039 0.03500
H 	H 	0.10903 0.26061 0.95385 0.03500
H 	H 	0.33275 0.20039 0.04519 0.03500
H 	H 	0.95385 0.10903 0.26061 0.03500
H 	H 	0.04519 0.33275 0.20039 0.03500
H 	H 	0.26061 0.67651 0.95385 0.03500
H 	H 	0.20039 0.42167 0.04519 0.03500
H 	H 	0.67651 0.26061 0.10903 0.03500
H 	H 	0.42167 0.20039 0.33275 0.03500
H 	H 	0.10903 0.95385 0.67651 0.03500
H 	H 	0.33275 0.04519 0.42167 0.03500
H 	H 	0.73939 0.04615 0.32349 0.03500
H 	H 	0.79961 0.95481 0.57833 0.03500
H 	H 	0.04615 0.73939 0.89097 0.03500
H 	H 	0.95481 0.79961 0.66725 0.03500
H 	H 	0.89097 0.32349 0.04615 0.03500
H 	H 	0.66725 0.57833 0.95481 0.03500
H 	H 	0.32349 0.89097 0.73939 0.03500
H 	H 	0.57833 0.66725 0.79961 0.03500
H 	H 	0.32349 0.04615 0.89097 0.03500
H 	H 	0.57833 0.95481 0.66725 0.03500
H 	H 	0.89097 0.73939 0.32349 0.03500
H 	H 	0.66725 0.79961 0.57833 0.03500
H 	H 	0.04615 0.32349 0.73939 0.03500
H 	H 	0.95481 0.57833 0.79961 0.03500
H 	H 	0.73939 0.89097 0.04615 0.03500
H 	H 	0.79961 0.66725 0.95481 0.03500
H 	H 	0.89097 0.04615 0.73939 0.03500
H 	H 	0.66725 0.95481 0.79961 0.03500
H 	H 	0.32349 0.73939 0.04615 0.03500
H 	H 	0.57833 0.79961 0.95481 0.03500
H 	H 	0.73939 0.32349 0.89097 0.03500
H 	H 	0.79961 0.57833 0.66725 0.03500
H 	H 	0.04615 0.89097 0.32349 0.03500
H 	H 	0.95481 0.66725 0.57833 0.03500
C 	C 	0.02520 0.72484 0.31000 0.00600
C 	C 	0.91972 0.83446 0.59828 0.00900
C 	C 	0.72484 0.02520 0.93996 0.00500
C 	C 	0.83446 0.91972 0.64754 0.00900
C 	C 	0.31000 0.93996 0.02520 0.00600
C 	C 	0.59828 0.64754 0.91972 0.00900
C 	C 	0.93996 0.31000 0.72484 0.00600
C 	C 	0.64754 0.59828 0.83446 0.00900
C 	C 	0.02520 0.31000 0.93996 0.00600
C 	C 	0.91972 0.59828 0.64754 0.00900
C 	C 	0.72484 0.93996 0.31000 0.00600
C 	C 	0.83446 0.64754 0.59828 0.00900
C 	C 	0.31000 0.02520 0.72484 0.00600
C 	C 	0.59828 0.91972 0.83446 0.00900
C 	C 	0.93996 0.72484 0.02520 0.00500
C 	C 	0.64754 0.83446 0.91972 0.00900
C 	C 	0.02520 0.93996 0.72484 0.00500
C 	C 	0.91972 0.64754 0.83446 0.00900
C 	C 	0.72484 0.31000 0.02520 0.00600
C 	C 	0.83446 0.59828 0.91972 0.00900
C 	C 	0.31000 0.72484 0.93996 0.00600
C 	C 	0.59828 0.83446 0.64754 0.00900
C 	C 	0.93996 0.02520 0.31000 0.00600
C 	C 	0.64754 0.91972 0.59828 0.00900
C 	C 	0.27516 0.97480 0.69000 0.00600
C 	C 	0.16554 0.08028 0.40172 0.00900
C 	C 	0.97480 0.27516 0.06004 0.00500
C 	C 	0.08028 0.16554 0.35246 0.00900
C 	C 	0.06004 0.69000 0.97480 0.00600
C 	C 	0.35246 0.40172 0.08028 0.00900
C 	C 	0.69000 0.06004 0.27516 0.00600
C 	C 	0.40172 0.35246 0.16554 0.00900
C 	C 	0.69000 0.97480 0.06004 0.00600
C 	C 	0.40172 0.08028 0.35246 0.00900
C 	C 	0.06004 0.27516 0.69000 0.00600
C 	C 	0.35246 0.16554 0.40172 0.00900
C 	C 	0.97480 0.69000 0.27516 0.00600
C 	C 	0.08028 0.40172 0.16554 0.00900
C 	C 	0.27516 0.06004 0.97480 0.00500
C 	C 	0.16554 0.35246 0.08028 0.00900
C 	C 	0.06004 0.97480 0.27516 0.00500
C 	C 	0.35246 0.08028 0.16554 0.00900
C 	C 	0.69000 0.27516 0.97480 0.00600
C 	C 	0.40172 0.16554 0.08028 0.00900
C 	C 	0.27516 0.69000 0.06004 0.00600
C 	C 	0.16554 0.40172 0.35246 0.00900
C 	C 	0.97480 0.06004 0.69000 0.00600
C 	C 	0.08028 0.35246 0.40172 0.00900
C 	C 	0.97480 0.27516 0.69000 0.00600
C 	C 	0.08028 0.16554 0.40172 0.00900
C 	C 	0.27516 0.97480 0.06004 0.00500
C 	C 	0.16554 0.08028 0.35246 0.00900
C 	C 	0.69000 0.06004 0.97480 0.00600
C 	C 	0.40172 0.35246 0.08028 0.00900
C 	C 	0.06004 0.69000 0.27516 0.00600
C 	C 	0.35246 0.40172 0.16554 0.00900
C 	C 	0.97480 0.69000 0.06004 0.00600
C 	C 	0.08028 0.40172 0.35246 0.00900
C 	C 	0.27516 0.06004 0.69000 0.00600
C 	C 	0.16554 0.35246 0.40172 0.00900
C 	C 	0.69000 0.97480 0.27516 0.00600
C 	C 	0.40172 0.08028 0.16554 0.00900
C 	C 	0.06004 0.27516 0.97480 0.00500
C 	C 	0.35246 0.16554 0.08028 0.00900
C 	C 	0.97480 0.06004 0.27516 0.00500
C 	C 	0.08028 0.35246 0.16554 0.00900
C 	C 	0.27516 0.69000 0.97480 0.00600
C 	C 	0.16554 0.40172 0.08028 0.00900
C 	C 	0.69000 0.27516 0.06004 0.00600
C 	C 	0.40172 0.16554 0.35246 0.00900
C 	C 	0.06004 0.97480 0.69000 0.00600
C 	C 	0.35246 0.08028 0.40172 0.00900
C 	C 	0.72484 0.02520 0.31000 0.00600
C 	C 	0.83446 0.91972 0.59828 0.00900
C 	C 	0.02520 0.72484 0.93996 0.00500
C 	C 	0.91972 0.83446 0.64754 0.00900
C 	C 	0.93996 0.31000 0.02520 0.00600
C 	C 	0.64754 0.59828 0.91972 0.00900
C 	C 	0.31000 0.93996 0.72484 0.00600
C 	C 	0.59828 0.64754 0.83446 0.00900
C 	C 	0.31000 0.02520 0.93996 0.00600
C 	C 	0.59828 0.91972 0.64754 0.00900
C 	C 	0.93996 0.72484 0.31000 0.00600
C 	C 	0.64754 0.83446 0.59828 0.00900
C 	C 	0.02520 0.31000 0.72484 0.00600
C 	C 	0.91972 0.59828 0.83446 0.00900
C 	C 	0.72484 0.93996 0.02520 0.00500
C 	C 	0.83446 0.64754 0.91972 0.00900
C 	C 	0.93996 0.02520 0.72484 0.00500
C 	C 	0.64754 0.91972 0.83446 0.00900
C 	C 	0.31000 0.72484 0.02520 0.00600
C 	C 	0.59828 0.83446 0.91972 0.00900
C 	C 	0.72484 0.31000 0.93996 0.00600
C 	C 	0.83446 0.59828 0.64754 0.00900
C 	C 	0.02520 0.93996 0.31000 0.00600
C 	C 	0.91972 0.64754 0.59828 0.00900
C 	C 	0.92839 0.77157 0.37165 0.43900
C 	C 	0.96487 0.74189 0.32837 -0.11500
C 	C 	0.77157 0.92839 0.92839 0.43800
C 	C 	0.74189 0.96487 0.96487 -0.11400
C 	C 	0.37165 0.92839 0.92839 0.43900
C 	C 	0.32837 0.96487 0.96487 -0.11500
C 	C 	0.92839 0.37165 0.77157 0.43900
C 	C 	0.96487 0.32837 0.74189 -0.11500
C 	C 	0.92839 0.37165 0.92839 0.43900
C 	C 	0.96487 0.32837 0.96487 -0.11500
C 	C 	0.77157 0.92839 0.37165 0.43900
C 	C 	0.74189 0.96487 0.32837 -0.11500
C 	C 	0.37165 0.92839 0.77157 0.43900
C 	C 	0.32837 0.96487 0.74189 -0.11500
C 	C 	0.92839 0.77157 0.92839 0.43800
C 	C 	0.96487 0.74189 0.96487 -0.11400
C 	C 	0.92839 0.92839 0.77157 0.43800
C 	C 	0.96487 0.96487 0.74189 -0.11400
C 	C 	0.77157 0.37165 0.92839 0.43900
C 	C 	0.74189 0.32837 0.96487 -0.11500
C 	C 	0.37165 0.77157 0.92839 0.43900
C 	C 	0.32837 0.74189 0.96487 -0.11500
C 	C 	0.92839 0.92839 0.37165 0.43900
C 	C 	0.96487 0.96487 0.32837 -0.11500
C 	C 	0.22843 0.07161 0.62835 0.43900
C 	C 	0.25811 0.03513 0.67163 -0.11500
C 	C 	0.07161 0.22843 0.07161 0.43800
C 	C 	0.03513 0.25811 0.03513 -0.11400
C 	C 	0.07161 0.62835 0.07161 0.43900
C 	C 	0.03513 0.67163 0.03513 -0.11500
C 	C 	0.62835 0.07161 0.22843 0.43900
C 	C 	0.67163 0.03513 0.25811 -0.11500
C 	C 	0.62835 0.07161 0.07161 0.43900
C 	C 	0.67163 0.03513 0.03513 -0.11500
C 	C 	0.07161 0.22843 0.62835 0.43900
C 	C 	0.03513 0.25811 0.67163 -0.11500
C 	C 	0.07161 0.62835 0.22843 0.43900
C 	C 	0.03513 0.67163 0.25811 -0.11500
C 	C 	0.22843 0.07161 0.07161 0.43800
C 	C 	0.25811 0.03513 0.03513 -0.11400
C 	C 	0.07161 0.07161 0.22843 0.43800
C 	C 	0.03513 0.03513 0.25811 -0.11400
C 	C 	0.62835 0.22843 0.07161 0.43900
C 	C 	0.67163 0.25811 0.03513 -0.11500
C 	C 	0.22843 0.62835 0.07161 0.43900
C 	C 	0.25811 0.67163 0.03513 -0.11500
C 	C 	0.07161 0.07161 0.62835 0.43900
C 	C 	0.03513 0.03513 0.67163 -0.11500
C 	C 	0.87515 0.87515 0.52319 0.46600
C 	C 	0.87695 0.87695 0.57335 -0.12300
C 	C 	0.87515 0.87515 0.72651 0.46600
C 	C 	0.87695 0.87695 0.67275 -0.12300
C 	C 	0.52319 0.72651 0.87515 0.46600
C 	C 	0.57335 0.67275 0.87695 -0.12300
C 	C 	0.72651 0.52319 0.87515 0.46600
C 	C 	0.67275 0.57335 0.87695 -0.12300
C 	C 	0.87515 0.52319 0.72651 0.46600
C 	C 	0.87695 0.57335 0.67275 -0.12300
C 	C 	0.87515 0.72651 0.52319 0.46600
C 	C 	0.87695 0.67275 0.57335 -0.12300
C 	C 	0.52319 0.87515 0.87515 0.46600
C 	C 	0.57335 0.87695 0.87695 -0.12300
C 	C 	0.72651 0.87515 0.87515 0.46600
C 	C 	0.67275 0.87695 0.87695 -0.12300
C 	C 	0.87515 0.72651 0.87515 0.46600
C 	C 	0.87695 0.67275 0.87695 -0.12300
C 	C 	0.87515 0.52319 0.87515 0.46600
C 	C 	0.87695 0.57335 0.87695 -0.12300
C 	C 	0.52319 0.87515 0.72651 0.46600
C 	C 	0.57335 0.87695 0.67275 -0.12300
C 	C 	0.72651 0.87515 0.52319 0.46600
C 	C 	0.67275 0.87695 0.57335 -0.12300
C 	C 	0.12485 0.12485 0.47681 0.46600
C 	C 	0.12305 0.12305 0.42665 -0.12300
C 	C 	0.12485 0.12485 0.27349 0.46600
C 	C 	0.12305 0.12305 0.32725 -0.12300
C 	C 	0.27349 0.47681 0.12485 0.46600
C 	C 	0.32725 0.42665 0.12305 -0.12300
C 	C 	0.47681 0.27349 0.12485 0.46600
C 	C 	0.42665 0.32725 0.12305 -0.12300
C 	C 	0.47681 0.12485 0.27349 0.46600
C 	C 	0.42665 0.12305 0.32725 -0.12300
C 	C 	0.27349 0.12485 0.47681 0.46600
C 	C 	0.32725 0.12305 0.42665 -0.12300
C 	C 	0.12485 0.47681 0.12485 0.46600
C 	C 	0.12305 0.42665 0.12305 -0.12300
C 	C 	0.12485 0.27349 0.12485 0.46600
C 	C 	0.12305 0.32725 0.12305 -0.12300
C 	C 	0.27349 0.12485 0.12485 0.46600
C 	C 	0.32725 0.12305 0.12305 -0.12300
C 	C 	0.47681 0.12485 0.12485 0.46600
C 	C 	0.42665 0.12305 0.12305 -0.12300
C 	C 	0.12485 0.47681 0.27349 0.46600
C 	C 	0.12305 0.42665 0.32725 -0.12300
C 	C 	0.12485 0.27349 0.47681 0.46600
C 	C 	0.12305 0.32725 0.42665 -0.12300
O 	O 	0.91366 0.83466 0.50326 -0.56900
O 	O 	0.95302 0.78240 0.39028 -0.52900
O 	O 	0.83466 0.91366 0.74842 -0.56900
O 	O 	0.78240 0.95302 0.87430 -0.52900
O 	O 	0.50326 0.74842 0.91366 -0.56900
O 	O 	0.39028 0.87430 0.95302 -0.52900
O 	O 	0.74842 0.50326 0.83466 -0.56900
O 	O 	0.87430 0.39028 0.78240 -0.52900
O 	O 	0.91366 0.50326 0.74842 -0.56900
O 	O 	0.95302 0.39028 0.87430 -0.52900
O 	O 	0.83466 0.74842 0.50326 -0.56900
O 	O 	0.78240 0.87430 0.39028 -0.52900
O 	O 	0.50326 0.91366 0.83466 -0.56900
O 	O 	0.39028 0.95302 0.78240 -0.52900
O 	O 	0.74842 0.83466 0.91366 -0.56900
O 	O 	0.87430 0.78240 0.95302 -0.52900
O 	O 	0.91366 0.74842 0.83466 -0.56900
O 	O 	0.95302 0.87430 0.78240 -0.52900
O 	O 	0.83466 0.50326 0.91366 -0.56900
O 	O 	0.78240 0.39028 0.95302 -0.52900
O 	O 	0.50326 0.83466 0.74842 -0.56900
O 	O 	0.39028 0.78240 0.87430 -0.52900
O 	O 	0.74842 0.91366 0.50326 -0.56900
O 	O 	0.87430 0.95302 0.39028 -0.52900
O 	O 	0.16534 0.08634 0.49674 -0.56900
O 	O 	0.21760 0.04698 0.60972 -0.52900
O 	O 	0.08634 0.16534 0.25158 -0.56900
O 	O 	0.04698 0.21760 0.12570 -0.52900
O 	O 	0.25158 0.49674 0.08634 -0.56900
O 	O 	0.12570 0.60972 0.04698 -0.52900
O 	O 	0.49674 0.25158 0.16534 -0.56900
O 	O 	0.60972 0.12570 0.21760 -0.52900
O 	O 	0.49674 0.08634 0.25158 -0.56900
O 	O 	0.60972 0.04698 0.12570 -0.52900
O 	O 	0.25158 0.16534 0.49674 -0.56900
O 	O 	0.12570 0.21760 0.60972 -0.52900
O 	O 	0.08634 0.49674 0.16534 -0.56900
O 	O 	0.04698 0.60972 0.21760 -0.52900
O 	O 	0.16534 0.25158 0.08634 -0.56900
O 	O 	0.21760 0.12570 0.04698 -0.52900
O 	O 	0.25158 0.08634 0.16534 -0.56900
O 	O 	0.12570 0.04698 0.21760 -0.52900
O 	O 	0.49674 0.16534 0.08634 -0.56900
O 	O 	0.60972 0.21760 0.04698 -0.52900
O 	O 	0.16534 0.49674 0.25158 -0.56900
O 	O 	0.21760 0.60972 0.12570 -0.52900
O 	O 	0.08634 0.25158 0.49674 -0.56900
O 	O 	0.04698 0.12570 0.60972 -0.52900
O 	O 	0.08634 0.16534 0.49674 -0.56900
O 	O 	0.04698 0.21760 0.60972 -0.52900
O 	O 	0.16534 0.08634 0.25158 -0.56900
O 	O 	0.21760 0.04698 0.12570 -0.52900
O 	O 	0.49674 0.25158 0.08634 -0.56900
O 	O 	0.60972 0.12570 0.04698 -0.52900
O 	O 	0.25158 0.49674 0.16534 -0.56900
O 	O 	0.12570 0.60972 0.21760 -0.52900
O 	O 	0.08634 0.49674 0.25158 -0.56900
O 	O 	0.04698 0.60972 0.12570 -0.52900
O 	O 	0.16534 0.25158 0.49674 -0.56900
O 	O 	0.21760 0.12570 0.60972 -0.52900
O 	O 	0.49674 0.08634 0.16534 -0.56900
O 	O 	0.60972 0.04698 0.21760 -0.52900
O 	O 	0.25158 0.16534 0.08634 -0.56900
O 	O 	0.12570 0.21760 0.04698 -0.52900
O 	O 	0.08634 0.25158 0.16534 -0.56900
O 	O 	0.04698 0.12570 0.21760 -0.52900
O 	O 	0.16534 0.49674 0.08634 -0.56900
O 	O 	0.21760 0.60972 0.04698 -0.52900
O 	O 	0.49674 0.16534 0.25158 -0.56900
O 	O 	0.60972 0.21760 0.12570 -0.52900
O 	O 	0.25158 0.08634 0.49674 -0.56900
O 	O 	0.12570 0.04698 0.60972 -0.52900
O 	O 	0.83466 0.91366 0.50326 -0.56900
O 	O 	0.78240 0.95302 0.39028 -0.52900
O 	O 	0.91366 0.83466 0.74842 -0.56900
O 	O 	0.95302 0.78240 0.87430 -0.52900
O 	O 	0.74842 0.50326 0.91366 -0.56900
O 	O 	0.87430 0.39028 0.95302 -0.52900
O 	O 	0.50326 0.74842 0.83466 -0.56900
O 	O 	0.39028 0.87430 0.78240 -0.52900
O 	O 	0.50326 0.91366 0.74842 -0.56900
O 	O 	0.39028 0.95302 0.87430 -0.52900
O 	O 	0.74842 0.83466 0.50326 -0.56900
O 	O 	0.87430 0.78240 0.39028 -0.52900
O 	O 	0.91366 0.50326 0.83466 -0.56900
O 	O 	0.95302 0.39028 0.78240 -0.52900
O 	O 	0.83466 0.74842 0.91366 -0.56900
O 	O 	0.78240 0.87430 0.95302 -0.52900
O 	O 	0.74842 0.91366 0.83466 -0.56900
O 	O 	0.87430 0.95302 0.78240 -0.52900
O 	O 	0.50326 0.83466 0.91366 -0.56900
O 	O 	0.39028 0.78240 0.95302 -0.52900
O 	O 	0.83466 0.50326 0.74842 -0.56900
O 	O 	0.78240 0.39028 0.87430 -0.52900
O 	O 	0.91366 0.74842 0.50326 -0.56900
O 	O 	0.95302 0.87430 0.39028 -0.52900
O 	O 	0.85102 0.85102 0.44694 -0.73200
O 	O 	0.85102 0.85102 0.85102 -0.73200
O 	O 	0.44694 0.85102 0.85102 -0.73200
O 	O 	0.85102 0.44694 0.85102 -0.73200
O 	O 	0.14898 0.14898 0.55306 -0.73200
O 	O 	0.14898 0.14898 0.14898 -0.73200
O 	O 	0.14898 0.55306 0.14898 -0.73200
O 	O 	0.55306 0.14898 0.14898 -0.73200
