data_crystal

_cell_length_a 27.26620
_cell_length_b 11.53960
_cell_length_c 13.96780
_cell_angle_alpha 90.00000
_cell_angle_beta  90.00000
_cell_angle_gamma 90.00000

_symmetry_space_group_name_	'P 1'
_symmetry_space_group_name_H-M	'P 1'

loop_
_symmetry_equiv_pos_as_xyz
  x,y,z

loop_
_atom_site_label
_atom_site_type_symbol
_atom_site_fract_x
_atom_site_fract_y
_atom_site_fract_z
_atom_site_charge
O 	O 	0.05617 0.96740 0.27820 -0.38400
O 	O 	0.05250 0.06230 0.41570 -0.41400
C 	C 	0.07220 0.03710 0.33870 0.34700
C 	C 	0.20504 0.22230 0.27470 0.07800
C 	C 	0.29486 0.47680 0.22720 0.09700
C 	C 	0.11970 0.09880 0.31650 -0.12400
C 	C 	0.18410 0.22620 0.36460 -0.12100
H 	H 	0.19940 0.27160 0.41380 0.07200
C 	C 	0.14200 0.16660 0.38490 0.05000
H 	H 	0.12780 0.17220 0.44760 0.04300
C 	C 	0.18240 0.15430 0.20570 -0.12800
H 	H 	0.19620 0.14960 0.14260 0.06100
C 	C 	0.14020 0.09320 0.22700 0.04700
H 	H 	0.12510 0.04630 0.17850 0.00300
C 	C 	0.33190 0.49340 0.29100 -0.13900
H 	H 	0.33060 0.45520 0.35200 0.07700
C 	C 	0.29900 0.52900 0.13970 -0.13400
H 	H 	0.27360 0.51910 0.09280 0.06400
C 	C 	0.33980 0.59640 0.11810 0.06000
H 	H 	0.34240 0.63110 0.05580 0.01700
C 	C 	0.37619 0.61420 0.18360 -0.12100
C 	C 	0.41947 0.69020 0.15860 0.35600
C 	C 	0.37080 0.56280 0.27050 0.06900
H 	H 	0.39510 0.57610 0.31900 0.02400
O 	O 	0.44657 0.72170 0.22580 -0.38000
O 	O 	0.42521 0.71470 0.07250 -0.25200
O 	O 	0.44383 0.03260 0.77820 -0.48300
O 	O 	0.44750 0.93770 0.91570 -0.39000
C 	C 	0.42780 0.96290 0.83870 0.47800
C 	C 	0.29496 0.77770 0.77470 0.09800
C 	C 	0.20514 0.52320 0.72720 0.09600
C 	C 	0.38030 0.90120 0.81650 -0.14500
C 	C 	0.31590 0.77380 0.86460 -0.13200
H 	H 	0.30060 0.72840 0.91380 0.08800
C 	C 	0.35800 0.83340 0.88490 0.08200
H 	H 	0.37220 0.82780 0.94760 0.05300
C 	C 	0.31760 0.84570 0.70570 -0.13700
H 	H 	0.30380 0.85040 0.64260 0.08500
C 	C 	0.35980 0.90680 0.72700 0.08400
H 	H 	0.37490 0.95370 0.67850 0.03100
C 	C 	0.16810 0.50660 0.79100 -0.14200
H 	H 	0.16940 0.54480 0.85200 0.08200
C 	C 	0.20100 0.47100 0.63970 -0.13500
H 	H 	0.22640 0.48090 0.59280 0.07100
C 	C 	0.16020 0.40360 0.61810 0.06000
H 	H 	0.15760 0.36890 0.55580 0.02300
C 	C 	0.12381 0.38580 0.68360 -0.12600
C 	C 	0.08053 0.30980 0.65860 0.35300
C 	C 	0.12920 0.43720 0.77050 0.07100
H 	H 	0.10490 0.42390 0.81900 0.02000
O 	O 	0.05343 0.27830 0.72580 -0.39400
O 	O 	0.07479 0.28530 0.57250 -0.25300
O 	O 	0.44383 0.96740 0.22180 -0.37300
O 	O 	0.44750 0.06230 0.08430 -0.41800
C 	C 	0.42780 0.03710 0.16130 0.34700
C 	C 	0.29496 0.22230 0.22530 0.07800
C 	C 	0.20514 0.47680 0.27280 0.09600
C 	C 	0.38030 0.09880 0.18350 -0.12500
C 	C 	0.31590 0.22620 0.13540 -0.12500
H 	H 	0.30060 0.27160 0.08620 0.06300
C 	C 	0.35800 0.16660 0.11510 0.04900
H 	H 	0.37220 0.17220 0.05240 0.03100
C 	C 	0.31760 0.15430 0.29430 -0.12800
H 	H 	0.30380 0.14960 0.35740 0.06700
C 	C 	0.35980 0.09320 0.27300 0.05000
H 	H 	0.37490 0.04630 0.32150 0.01100
C 	C 	0.16810 0.49340 0.20900 -0.14100
H 	H 	0.16940 0.45520 0.14800 0.07000
C 	C 	0.20100 0.52900 0.36030 -0.13400
H 	H 	0.22640 0.51910 0.40720 0.07200
C 	C 	0.16020 0.59640 0.38190 0.06200
H 	H 	0.15760 0.63110 0.44420 0.02600
C 	C 	0.12381 0.61420 0.31640 -0.12400
C 	C 	0.08053 0.69020 0.34140 0.35600
C 	C 	0.12920 0.56280 0.22950 0.06900
H 	H 	0.10490 0.57610 0.18100 0.01300
O 	O 	0.05343 0.72170 0.27420 -0.39500
O 	O 	0.07479 0.71470 0.42750 -0.24700
O 	O 	0.05617 0.03260 0.72180 -0.49300
O 	O 	0.05250 0.93770 0.58430 -0.41300
C 	C 	0.07220 0.96290 0.66130 0.48300
C 	C 	0.20504 0.77770 0.72530 0.10000
C 	C 	0.29486 0.52320 0.77280 0.09300
C 	C 	0.11970 0.90120 0.68350 -0.15400
C 	C 	0.18410 0.77380 0.63540 -0.13800
H 	H 	0.19940 0.72840 0.58620 0.08200
C 	C 	0.14200 0.83340 0.61510 0.08400
H 	H 	0.12780 0.82780 0.55240 0.04100
C 	C 	0.18240 0.84570 0.79430 -0.14100
H 	H 	0.19620 0.85040 0.85740 0.09000
C 	C 	0.14020 0.90680 0.77300 0.08800
H 	H 	0.12510 0.95370 0.82150 0.03000
C 	C 	0.33190 0.50660 0.70900 -0.13600
H 	H 	0.33060 0.54480 0.64800 0.07700
C 	C 	0.29900 0.47100 0.86030 -0.12800
H 	H 	0.27360 0.48090 0.90720 0.07700
C 	C 	0.33980 0.40360 0.88190 0.05600
H 	H 	0.34240 0.36890 0.94420 0.03600
C 	C 	0.37619 0.38580 0.81640 -0.11400
C 	C 	0.41947 0.30980 0.84140 0.34900
C 	C 	0.37080 0.43720 0.72950 0.06500
H 	H 	0.39510 0.42390 0.68100 0.02400
O 	O 	0.44657 0.27830 0.77420 -0.38200
O 	O 	0.42521 0.28530 0.92750 -0.23200
O 	O 	0.94383 0.03260 0.72180 -0.45600
O 	O 	0.94750 0.93770 0.58430 -0.37600
C 	C 	0.92780 0.96290 0.66130 0.47400
C 	C 	0.79496 0.77770 0.72530 0.09700
C 	C 	0.70514 0.52320 0.77280 0.09200
C 	C 	0.88030 0.90120 0.68350 -0.14000
C 	C 	0.81590 0.77380 0.63540 -0.13200
H 	H 	0.80060 0.72840 0.58620 0.08000
C 	C 	0.85800 0.83340 0.61510 0.08000
H 	H 	0.87220 0.82780 0.55240 0.04500
C 	C 	0.81760 0.84570 0.79430 -0.13400
H 	H 	0.80380 0.85040 0.85740 0.09000
C 	C 	0.85980 0.90680 0.77300 0.08300
H 	H 	0.87490 0.95370 0.82150 0.03900
C 	C 	0.66810 0.50660 0.70900 -0.13500
H 	H 	0.66940 0.54480 0.64800 0.07700
C 	C 	0.70100 0.47100 0.86030 -0.12800
H 	H 	0.72640 0.48090 0.90720 0.07800
C 	C 	0.66020 0.40360 0.88190 0.05600
H 	H 	0.65760 0.36890 0.94420 0.03600
C 	C 	0.62381 0.38580 0.81640 -0.11400
C 	C 	0.58053 0.30980 0.84140 0.34900
C 	C 	0.62920 0.43720 0.72950 0.06400
H 	H 	0.60490 0.42390 0.68100 0.02400
O 	O 	0.55343 0.27830 0.77420 -0.38200
O 	O 	0.57479 0.28530 0.92750 -0.23200
O 	O 	0.55617 0.96740 0.22180 -0.37300
O 	O 	0.55250 0.06230 0.08430 -0.41800
C 	C 	0.57220 0.03710 0.16130 0.34800
C 	C 	0.70504 0.22230 0.22530 0.07800
C 	C 	0.79486 0.47680 0.27280 0.09200
C 	C 	0.61970 0.09880 0.18350 -0.12500
C 	C 	0.68410 0.22620 0.13540 -0.12500
H 	H 	0.69940 0.27160 0.08620 0.06400
C 	C 	0.64200 0.16660 0.11510 0.04900
H 	H 	0.62780 0.17220 0.05240 0.03100
C 	C 	0.68240 0.15430 0.29430 -0.12800
H 	H 	0.69620 0.14960 0.35740 0.06700
C 	C 	0.64020 0.09320 0.27300 0.05000
H 	H 	0.62510 0.04630 0.32150 0.01100
C 	C 	0.83190 0.49340 0.20900 -0.13100
H 	H 	0.83060 0.45520 0.14800 0.07100
C 	C 	0.79900 0.52900 0.36030 -0.12600
H 	H 	0.77360 0.51910 0.40720 0.07000
C 	C 	0.83980 0.59640 0.38190 0.05500
H 	H 	0.84240 0.63110 0.44420 0.03000
C 	C 	0.87619 0.61420 0.31640 -0.10800
C 	C 	0.91947 0.69020 0.34140 0.34900
C 	C 	0.87080 0.56280 0.22950 0.06200
H 	H 	0.89510 0.57610 0.18100 0.02900
O 	O 	0.94657 0.72170 0.27420 -0.35500
O 	O 	0.92521 0.71470 0.42750 -0.22100
O 	O 	0.55617 0.03260 0.77820 -0.48200
O 	O 	0.55250 0.93770 0.91570 -0.39000
C 	C 	0.57220 0.96290 0.83870 0.47800
C 	C 	0.70504 0.77770 0.77470 0.09800
C 	C 	0.79486 0.52320 0.72720 0.09200
C 	C 	0.61970 0.90120 0.81650 -0.14500
C 	C 	0.68410 0.77380 0.86460 -0.13200
H 	H 	0.69940 0.72840 0.91380 0.08800
C 	C 	0.64200 0.83340 0.88490 0.08200
H 	H 	0.62780 0.82780 0.94760 0.05300
C 	C 	0.68240 0.84570 0.70570 -0.13700
H 	H 	0.69620 0.85040 0.64260 0.08400
C 	C 	0.64020 0.90680 0.72700 0.08400
H 	H 	0.62510 0.95370 0.67850 0.03100
C 	C 	0.83190 0.50660 0.79100 -0.13100
H 	H 	0.83060 0.54480 0.85200 0.08400
C 	C 	0.79900 0.47100 0.63970 -0.12800
H 	H 	0.77360 0.48090 0.59280 0.06900
C 	C 	0.83980 0.40360 0.61810 0.05300
H 	H 	0.84240 0.36890 0.55580 0.02700
C 	C 	0.87619 0.38580 0.68360 -0.10900
C 	C 	0.91947 0.30980 0.65860 0.34600
C 	C 	0.87080 0.43720 0.77050 0.06400
H 	H 	0.89510 0.42390 0.81900 0.03600
O 	O 	0.94657 0.27830 0.72580 -0.35300
O 	O 	0.92521 0.28530 0.57250 -0.22700
O 	O 	0.94383 0.96740 0.27820 -0.35100
O 	O 	0.94750 0.06230 0.41570 -0.37800
C 	C 	0.92780 0.03710 0.33870 0.34100
C 	C 	0.79496 0.22230 0.27470 0.07500
C 	C 	0.70514 0.47680 0.22720 0.09600
C 	C 	0.88030 0.09880 0.31650 -0.11200
C 	C 	0.81590 0.22620 0.36460 -0.11700
H 	H 	0.80060 0.27160 0.41380 0.07000
C 	C 	0.85800 0.16660 0.38490 0.04500
H 	H 	0.87220 0.17220 0.44760 0.04600
C 	C 	0.81760 0.15430 0.20570 -0.12200
H 	H 	0.80380 0.14960 0.14260 0.06100
C 	C 	0.85980 0.09320 0.22700 0.04300
H 	H 	0.87490 0.04630 0.17850 0.01200
C 	C 	0.66810 0.49340 0.29100 -0.13800
H 	H 	0.66940 0.45520 0.35200 0.07700
C 	C 	0.70100 0.52900 0.13970 -0.13400
H 	H 	0.72640 0.51910 0.09280 0.06500
C 	C 	0.66020 0.59640 0.11810 0.06000
H 	H 	0.65760 0.63110 0.05580 0.01700
C 	C 	0.62381 0.61420 0.18360 -0.12100
C 	C 	0.58053 0.69020 0.15860 0.35600
C 	C 	0.62920 0.56280 0.27050 0.06900
H 	H 	0.60490 0.57610 0.31900 0.02400
O 	O 	0.55343 0.72170 0.22580 -0.38000
O 	O 	0.57479 0.71470 0.07250 -0.25200
Ni	Ni	0.00000 0.85030 0.28137 1.09800
O 	O 	-0.00000 0.84420 0.42950 -0.35600
Ni	Ni	0.50000 0.14970 0.78137 1.11600
O 	O 	0.50000 0.15580 0.92950 -0.33600
Ni	Ni	0.50000 0.85030 0.21863 1.11900
O 	O 	0.50000 0.84420 0.07050 -0.33700
Ni	Ni	0.00000 0.14970 0.71863 1.09700
O 	O 	-0.00000 0.15580 0.57050 -0.38000
Ni	Ni	0.00000 -0.00000 0.50000 1.12100
Ni	Ni	0.50000 0.00000 -0.00000 1.12300
C 	C 	0.25000 0.28950 0.25000 -0.04900
C 	C 	0.25000 0.40660 0.25000 -0.06100
C 	C 	0.25000 0.71050 0.75000 -0.05500
C 	C 	0.25000 0.59340 0.75000 -0.05400
C 	C 	0.75000 0.71050 0.75000 -0.05400
C 	C 	0.75000 0.59340 0.75000 -0.05300
C 	C 	0.75000 0.28950 0.25000 -0.04800
C 	C 	0.75000 0.40660 0.25000 -0.05900
