data_crystal

_cell_length_a 26.25000
_cell_length_b 26.25000
_cell_length_c 11.24360
_cell_angle_alpha 90.00000
_cell_angle_beta  90.00000
_cell_angle_gamma 120.00000

_symmetry_space_group_name_	'P 1'
_symmetry_space_group_name_H-M	'P 1'

loop_
_symmetry_equiv_pos_as_xyz
  x,y,z

loop_
_atom_site_label
_atom_site_type_symbol
_atom_site_fract_x
_atom_site_fract_y
_atom_site_fract_z
_atom_site_charge
O 	O 	0.34155 0.57370 0.12870 -0.46100
C 	C 	0.40350 0.52160 0.22470 0.09700
H 	H 	0.38980 0.49570 0.15730 -0.03200
C 	C 	0.41280 0.50670 0.37740 -0.03000
H 	H 	0.38560 0.48980 0.44230 0.03000
C 	C 	0.38600 0.53170 0.30730 -0.03600
H 	H 	0.35110 0.52160 0.35230 0.04400
C 	C 	0.42990 0.49650 0.28860 -0.13500
H 	H 	0.42450 0.46500 0.23700 0.05300
O 	O 	0.42630 0.76785 0.12870 -0.46100
C 	C 	0.47840 0.88190 0.22470 0.09600
H 	H 	0.50430 0.89410 0.15730 -0.03200
C 	C 	0.49330 0.90610 0.37740 -0.03000
H 	H 	0.51020 0.89580 0.44230 0.03000
C 	C 	0.46830 0.85430 0.30730 -0.03600
H 	H 	0.47840 0.82950 0.35230 0.04300
C 	C 	0.50350 0.93340 0.28860 -0.13300
H 	H 	0.53500 0.95950 0.23700 0.05100
O 	O 	0.23215 0.65845 0.12870 -0.46100
C 	C 	0.11810 0.59650 0.22470 0.09700
H 	H 	0.10590 0.61020 0.15730 -0.03200
C 	C 	0.09390 0.58720 0.37740 -0.03000
H 	H 	0.10420 0.61440 0.44230 0.03000
C 	C 	0.14570 0.61400 0.30730 -0.03600
H 	H 	0.17050 0.64890 0.35230 0.04300
C 	C 	0.06660 0.57010 0.28860 -0.13400
H 	H 	0.04050 0.57550 0.23700 0.05300
O 	O 	0.65845 0.42630 0.12870 -0.46100
C 	C 	0.59650 0.47840 0.22470 0.09700
H 	H 	0.61020 0.50430 0.15730 -0.03200
C 	C 	0.58720 0.49330 0.37740 -0.03100
H 	H 	0.61440 0.51020 0.44230 0.03000
C 	C 	0.61400 0.46830 0.30730 -0.03600
H 	H 	0.64890 0.47840 0.35230 0.04300
C 	C 	0.57010 0.50350 0.28860 -0.13500
H 	H 	0.57550 0.53500 0.23700 0.05300
O 	O 	0.57370 0.23215 0.12870 -0.46100
C 	C 	0.52160 0.11810 0.22470 0.09700
H 	H 	0.49570 0.10590 0.15730 -0.03200
C 	C 	0.50670 0.09390 0.37740 -0.03000
H 	H 	0.48980 0.10420 0.44230 0.03000
C 	C 	0.53170 0.14570 0.30730 -0.03600
H 	H 	0.52160 0.17050 0.35230 0.04400
C 	C 	0.49650 0.06660 0.28860 -0.13400
H 	H 	0.46500 0.04050 0.23700 0.05300
O 	O 	0.76785 0.34155 0.12870 -0.46100
C 	C 	0.88190 0.40350 0.22470 0.09600
H 	H 	0.89410 0.38980 0.15730 -0.03200
C 	C 	0.90610 0.41280 0.37740 -0.03000
H 	H 	0.89580 0.38560 0.44230 0.03000
C 	C 	0.85430 0.38600 0.30730 -0.03600
H 	H 	0.82950 0.35110 0.35230 0.04300
C 	C 	0.93340 0.42990 0.28860 -0.13300
H 	H 	0.95950 0.42450 0.23700 0.05100
O 	O 	0.57370 0.34155 0.87130 -0.37300
C 	C 	0.52160 0.40350 0.77530 0.07100
H 	H 	0.49570 0.38980 0.84270 0.03000
C 	C 	0.50670 0.41280 0.62260 -0.03300
H 	H 	0.48980 0.38560 0.55770 0.03300
C 	C 	0.53170 0.38600 0.69270 -0.02900
H 	H 	0.52160 0.35110 0.64770 0.04700
C 	C 	0.49650 0.42990 0.71140 -0.11700
H 	H 	0.46500 0.42450 0.76300 0.07200
O 	O 	0.76785 0.42630 0.87130 -0.37300
C 	C 	0.88190 0.47840 0.77530 0.07000
H 	H 	0.89410 0.50430 0.84270 0.03000
C 	C 	0.90610 0.49330 0.62260 -0.03300
H 	H 	0.89580 0.51020 0.55770 0.03300
C 	C 	0.85430 0.46830 0.69270 -0.02800
H 	H 	0.82950 0.47840 0.64770 0.04700
C 	C 	0.93340 0.50350 0.71140 -0.11600
H 	H 	0.95950 0.53500 0.76300 0.07100
O 	O 	0.65845 0.23215 0.87130 -0.37300
C 	C 	0.59650 0.11810 0.77530 0.07100
H 	H 	0.61020 0.10590 0.84270 0.03000
C 	C 	0.58720 0.09390 0.62260 -0.03300
H 	H 	0.61440 0.10420 0.55770 0.03300
C 	C 	0.61400 0.14570 0.69270 -0.02900
H 	H 	0.64890 0.17050 0.64770 0.04700
C 	C 	0.57010 0.06660 0.71140 -0.11700
H 	H 	0.57550 0.04050 0.76300 0.07300
O 	O 	0.42630 0.65845 0.87130 -0.37300
C 	C 	0.47840 0.59650 0.77530 0.07100
H 	H 	0.50430 0.61020 0.84270 0.03000
C 	C 	0.49330 0.58720 0.62260 -0.03300
H 	H 	0.51020 0.61440 0.55770 0.03300
C 	C 	0.46830 0.61400 0.69270 -0.02900
H 	H 	0.47840 0.64890 0.64770 0.04700
C 	C 	0.50350 0.57010 0.71140 -0.11700
H 	H 	0.53500 0.57550 0.76300 0.07200
O 	O 	0.23215 0.57370 0.87130 -0.37300
C 	C 	0.11810 0.52160 0.77530 0.07100
H 	H 	0.10590 0.49570 0.84270 0.03000
C 	C 	0.09390 0.50670 0.62260 -0.03300
H 	H 	0.10420 0.48980 0.55770 0.03300
C 	C 	0.14570 0.53170 0.69270 -0.02900
H 	H 	0.17050 0.52160 0.64770 0.04700
C 	C 	0.06660 0.49650 0.71140 -0.11700
H 	H 	0.04050 0.46500 0.76300 0.07300
O 	O 	0.34155 0.76785 0.87130 -0.37300
C 	C 	0.40350 0.88190 0.77530 0.07000
H 	H 	0.38980 0.89410 0.84270 0.03000
C 	C 	0.41280 0.90610 0.62260 -0.03300
H 	H 	0.38560 0.89580 0.55770 0.03300
C 	C 	0.38600 0.85430 0.69270 -0.02800
H 	H 	0.35110 0.82950 0.64770 0.04700
C 	C 	0.42990 0.93340 0.71140 -0.11600
H 	H 	0.42450 0.95950 0.76300 0.07100
O 	O 	0.65845 0.42630 0.87130 -0.37300
C 	C 	0.59650 0.47840 0.77530 0.07100
H 	H 	0.61020 0.50430 0.84270 0.03000
C 	C 	0.58720 0.49330 0.62260 -0.03300
H 	H 	0.61440 0.51020 0.55770 0.03300
C 	C 	0.61400 0.46830 0.69270 -0.02900
H 	H 	0.64890 0.47840 0.64770 0.04700
C 	C 	0.57010 0.50350 0.71140 -0.11700
H 	H 	0.57550 0.53500 0.76300 0.07200
O 	O 	0.57370 0.23215 0.87130 -0.37300
C 	C 	0.52160 0.11810 0.77530 0.07100
H 	H 	0.49570 0.10590 0.84270 0.03000
C 	C 	0.50670 0.09390 0.62260 -0.03300
H 	H 	0.48980 0.10420 0.55770 0.03300
C 	C 	0.53170 0.14570 0.69270 -0.02900
H 	H 	0.52160 0.17050 0.64770 0.04700
C 	C 	0.49650 0.06660 0.71140 -0.11700
H 	H 	0.46500 0.04050 0.76300 0.07300
O 	O 	0.76785 0.34155 0.87130 -0.37300
C 	C 	0.88190 0.40350 0.77530 0.07000
H 	H 	0.89410 0.38980 0.84270 0.03000
C 	C 	0.90610 0.41280 0.62260 -0.03300
H 	H 	0.89580 0.38560 0.55770 0.03300
C 	C 	0.85430 0.38600 0.69270 -0.02800
H 	H 	0.82950 0.35110 0.64770 0.04700
C 	C 	0.93340 0.42990 0.71140 -0.11600
H 	H 	0.95950 0.42450 0.76300 0.07100
O 	O 	0.34155 0.57370 0.87130 -0.37300
C 	C 	0.40350 0.52160 0.77530 0.07100
H 	H 	0.38980 0.49570 0.84270 0.03000
C 	C 	0.41280 0.50670 0.62260 -0.03300
H 	H 	0.38560 0.48980 0.55770 0.03300
C 	C 	0.38600 0.53170 0.69270 -0.02900
H 	H 	0.35110 0.52160 0.64770 0.04700
C 	C 	0.42990 0.49650 0.71140 -0.11700
H 	H 	0.42450 0.46500 0.76300 0.07200
O 	O 	0.42630 0.76785 0.87130 -0.37300
C 	C 	0.47840 0.88190 0.77530 0.07000
H 	H 	0.50430 0.89410 0.84270 0.03000
C 	C 	0.49330 0.90610 0.62260 -0.03300
H 	H 	0.51020 0.89580 0.55770 0.03300
C 	C 	0.46830 0.85430 0.69270 -0.02800
H 	H 	0.47840 0.82950 0.64770 0.04700
C 	C 	0.50350 0.93340 0.71140 -0.11600
H 	H 	0.53500 0.95950 0.76300 0.07100
O 	O 	0.23215 0.65845 0.87130 -0.37300
C 	C 	0.11810 0.59650 0.77530 0.07100
H 	H 	0.10590 0.61020 0.84270 0.03000
C 	C 	0.09390 0.58720 0.62260 -0.03300
H 	H 	0.10420 0.61440 0.55770 0.03300
C 	C 	0.14570 0.61400 0.69270 -0.02900
H 	H 	0.17050 0.64890 0.64770 0.04700
C 	C 	0.06660 0.57010 0.71140 -0.11700
H 	H 	0.04050 0.57550 0.76300 0.07300
O 	O 	0.42630 0.65845 0.12870 -0.46100
C 	C 	0.47840 0.59650 0.22470 0.09700
H 	H 	0.50430 0.61020 0.15730 -0.03200
C 	C 	0.49330 0.58720 0.37740 -0.03100
H 	H 	0.51020 0.61440 0.44230 0.03000
C 	C 	0.46830 0.61400 0.30730 -0.03600
H 	H 	0.47840 0.64890 0.35230 0.04300
C 	C 	0.50350 0.57010 0.28860 -0.13500
H 	H 	0.53500 0.57550 0.23700 0.05300
O 	O 	0.23215 0.57370 0.12870 -0.46100
C 	C 	0.11810 0.52160 0.22470 0.09700
H 	H 	0.10590 0.49570 0.15730 -0.03200
C 	C 	0.09390 0.50670 0.37740 -0.03000
H 	H 	0.10420 0.48980 0.44230 0.03000
C 	C 	0.14570 0.53170 0.30730 -0.03600
H 	H 	0.17050 0.52160 0.35230 0.04400
C 	C 	0.06660 0.49650 0.28860 -0.13400
H 	H 	0.04050 0.46500 0.23700 0.05300
O 	O 	0.34155 0.76785 0.12870 -0.46100
C 	C 	0.40350 0.88190 0.22470 0.09600
H 	H 	0.38980 0.89410 0.15730 -0.03200
C 	C 	0.41280 0.90610 0.37740 -0.03000
H 	H 	0.38560 0.89580 0.44230 0.03000
C 	C 	0.38600 0.85430 0.30730 -0.03600
H 	H 	0.35110 0.82950 0.35230 0.04300
C 	C 	0.42990 0.93340 0.28860 -0.13300
H 	H 	0.42450 0.95950 0.23700 0.05100
O 	O 	0.57370 0.34155 0.12870 -0.46100
C 	C 	0.52160 0.40350 0.22470 0.09700
H 	H 	0.49570 0.38980 0.15730 -0.03200
C 	C 	0.50670 0.41280 0.37740 -0.03000
H 	H 	0.48980 0.38560 0.44230 0.03000
C 	C 	0.53170 0.38600 0.30730 -0.03600
H 	H 	0.52160 0.35110 0.35230 0.04400
C 	C 	0.49650 0.42990 0.28860 -0.13500
H 	H 	0.46500 0.42450 0.23700 0.05300
O 	O 	0.76785 0.42630 0.12870 -0.46100
C 	C 	0.88190 0.47840 0.22470 0.09600
H 	H 	0.89410 0.50430 0.15730 -0.03200
C 	C 	0.90610 0.49330 0.37740 -0.03000
H 	H 	0.89580 0.51020 0.44230 0.03000
C 	C 	0.85430 0.46830 0.30730 -0.03600
H 	H 	0.82950 0.47840 0.35230 0.04300
C 	C 	0.93340 0.50350 0.28860 -0.13300
H 	H 	0.95950 0.53500 0.23700 0.05100
O 	O 	0.65845 0.23215 0.12870 -0.46100
C 	C 	0.59650 0.11810 0.22470 0.09700
H 	H 	0.61020 0.10590 0.15730 -0.03200
C 	C 	0.58720 0.09390 0.37740 -0.03000
H 	H 	0.61440 0.10420 0.44230 0.03000
C 	C 	0.61400 0.14570 0.30730 -0.03600
H 	H 	0.64890 0.17050 0.35230 0.04300
C 	C 	0.57010 0.06660 0.28860 -0.13400
H 	H 	0.57550 0.04050 0.23700 0.05300
Ni	Ni	0.28992 0.57984 -0.00000 1.07400
Ni	Ni	0.42016 0.71008 -0.00000 1.07400
Ni	Ni	0.28992 0.71008 -0.00000 1.07400
Ni	Ni	0.71008 0.42016 -0.00000 1.07400
Ni	Ni	0.57984 0.28992 -0.00000 1.07400
Ni	Ni	0.71008 0.28992 -0.00000 1.07400
O 	O 	0.33333 0.66667 -0.00000 -0.63100
O 	O 	0.66667 0.33333 -0.00000 -0.63100
C 	C 	0.39380 0.60620 0.15620 0.41300
C 	C 	0.42126 0.57874 0.23230 -0.16800
C 	C 	0.47226 0.52774 0.36860 0.11100
C 	C 	0.39380 0.78760 0.15620 0.41300
C 	C 	0.42126 0.84252 0.23230 -0.16700
C 	C 	0.47226 0.94452 0.36860 0.10800
C 	C 	0.21240 0.60620 0.15620 0.41300
C 	C 	0.15748 0.57874 0.23230 -0.16700
C 	C 	0.05548 0.52774 0.36860 0.11000
C 	C 	0.60620 0.39380 0.15620 0.41300
C 	C 	0.57874 0.42126 0.23230 -0.16800
C 	C 	0.52774 0.47226 0.36860 0.11100
C 	C 	0.60620 0.21240 0.15620 0.41300
C 	C 	0.57874 0.15748 0.23230 -0.16700
C 	C 	0.52774 0.05548 0.36860 0.11000
C 	C 	0.78760 0.39380 0.15620 0.41300
C 	C 	0.84252 0.42126 0.23230 -0.16700
C 	C 	0.94452 0.47226 0.36860 0.10800
C 	C 	0.60620 0.39380 0.84380 0.40300
C 	C 	0.57874 0.42126 0.76770 -0.12500
C 	C 	0.52774 0.47226 0.63140 0.10100
C 	C 	0.78760 0.39380 0.84380 0.40300
C 	C 	0.84252 0.42126 0.76770 -0.12500
C 	C 	0.94452 0.47226 0.63140 0.09800
C 	C 	0.60620 0.21240 0.84380 0.40300
C 	C 	0.57874 0.15748 0.76770 -0.12500
C 	C 	0.52774 0.05548 0.63140 0.10000
C 	C 	0.39380 0.60620 0.84380 0.40300
C 	C 	0.42126 0.57874 0.76770 -0.12500
C 	C 	0.47226 0.52774 0.63140 0.10100
C 	C 	0.21240 0.60620 0.84380 0.40300
C 	C 	0.15748 0.57874 0.76770 -0.12500
C 	C 	0.05548 0.52774 0.63140 0.10000
C 	C 	0.39380 0.78760 0.84380 0.40300
C 	C 	0.42126 0.84252 0.76770 -0.12500
C 	C 	0.47226 0.94452 0.63140 0.09800
C 	C 	0.50000 0.50000 0.44050 -0.06400
C 	C 	0.50000 0.00000 0.44050 -0.06200
C 	C 	-0.00000 0.50000 0.44050 -0.06200
C 	C 	0.50000 0.50000 0.55950 -0.05400
C 	C 	-0.00000 0.50000 0.55950 -0.05200
C 	C 	0.50000 -0.00000 0.55950 -0.05200
