data_crystal

_cell_length_a 9.44510
_cell_length_b 9.44510
_cell_length_c 74.30900
_cell_angle_alpha 90.00000
_cell_angle_beta  90.00000
_cell_angle_gamma 120.00000

_symmetry_space_group_name_	'P 1'
_symmetry_space_group_name_H-M	'P 1'

loop_
_symmetry_equiv_pos_as_xyz
  x,y,z

loop_
_atom_site_label
_atom_site_type_symbol
_atom_site_fract_x
_atom_site_fract_y
_atom_site_fract_z
_atom_site_charge
H 	H 	0.10800 0.47180 0.01140 0.03300
H 	H 	0.89220 0.36420 0.11740 0.07100
H 	H 	0.77467 0.80513 0.34473 0.03100
H 	H 	0.55887 0.69753 0.45073 0.06700
H 	H 	0.44133 0.13847 0.67807 0.03100
H 	H 	0.22553 0.03087 0.78407 0.04700
H 	H 	0.52820 0.63620 0.01140 0.04400
H 	H 	0.63580 0.52800 0.11740 0.06400
H 	H 	0.19487 0.96953 0.34473 0.04400
H 	H 	0.30247 0.86133 0.45073 0.06400
H 	H 	0.86153 0.30287 0.67807 0.04200
H 	H 	0.96913 0.19467 0.78407 0.06500
H 	H 	0.36380 0.89200 0.01140 0.04800
H 	H 	0.47200 0.10780 0.11740 0.05700
H 	H 	0.03047 0.22533 0.34473 0.02400
H 	H 	0.13867 0.44113 0.45073 0.05300
H 	H 	0.69713 0.55867 0.67807 0.04600
H 	H 	0.80533 0.77447 0.78407 0.05400
H 	H 	0.47180 0.10800 0.98860 0.03400
H 	H 	0.36420 0.89220 0.88260 0.07200
H 	H 	0.13847 0.44133 0.32193 0.03100
H 	H 	0.03087 0.22553 0.21593 0.04700
H 	H 	0.80513 0.77467 0.65527 0.03100
H 	H 	0.69753 0.55887 0.54927 0.06700
H 	H 	0.63620 0.52820 0.98860 0.04400
H 	H 	0.52800 0.63580 0.88260 0.06400
H 	H 	0.30287 0.86153 0.32193 0.04200
H 	H 	0.19467 0.96913 0.21593 0.06500
H 	H 	0.96953 0.19487 0.65527 0.04400
H 	H 	0.86133 0.30247 0.54927 0.06400
H 	H 	0.89200 0.36380 0.98860 0.04800
H 	H 	0.10780 0.47200 0.88260 0.05700
H 	H 	0.55867 0.69713 0.32193 0.04600
H 	H 	0.77447 0.80533 0.21593 0.05400
H 	H 	0.22533 0.03047 0.65527 0.02400
H 	H 	0.44113 0.13867 0.54927 0.05300
H 	H 	0.89200 0.52820 0.98860 0.04900
H 	H 	0.10780 0.63580 0.88260 0.06100
H 	H 	0.55867 0.86153 0.32193 0.04700
H 	H 	0.77447 0.96913 0.21593 0.05600
H 	H 	0.22533 0.19487 0.65527 0.04300
H 	H 	0.44113 0.30247 0.54927 0.05900
H 	H 	0.47180 0.36380 0.98860 0.04100
H 	H 	0.36420 0.47200 0.88260 0.05900
H 	H 	0.13847 0.69713 0.32193 0.03200
H 	H 	0.03087 0.80533 0.21593 0.04500
H 	H 	0.80513 0.03047 0.65527 0.02400
H 	H 	0.69753 0.13867 0.54927 0.05500
H 	H 	0.63620 0.10800 0.98860 0.03600
H 	H 	0.52800 0.89220 0.88260 0.07300
H 	H 	0.30287 0.44133 0.32193 0.04100
H 	H 	0.19467 0.22553 0.21593 0.06400
H 	H 	0.96953 0.77467 0.65527 0.03200
H 	H 	0.86133 0.55887 0.54927 0.06900
H 	H 	0.52820 0.89200 0.01140 0.04900
H 	H 	0.63580 0.10780 0.11740 0.06100
H 	H 	0.19487 0.22533 0.34473 0.04300
H 	H 	0.30247 0.44113 0.45073 0.05900
H 	H 	0.86153 0.55867 0.67807 0.04700
H 	H 	0.96913 0.77447 0.78407 0.05600
H 	H 	0.36380 0.47180 0.01140 0.04100
H 	H 	0.47200 0.36420 0.11740 0.05900
H 	H 	0.03047 0.80513 0.34473 0.02400
H 	H 	0.13867 0.69753 0.45073 0.05500
H 	H 	0.69713 0.13847 0.67807 0.03200
H 	H 	0.80533 0.03087 0.78407 0.04500
H 	H 	0.10800 0.63620 0.01140 0.03600
H 	H 	0.89220 0.52800 0.11740 0.07300
H 	H 	0.77467 0.96953 0.34473 0.03200
H 	H 	0.55887 0.86133 0.45073 0.06900
H 	H 	0.44133 0.30287 0.67807 0.04100
H 	H 	0.22553 0.19467 0.78407 0.06400
Cu	Cu	0.91002 0.45501 0.04597 0.84000
Cu	Cu	0.08442 0.54221 0.15207 0.82600
Cl	Cl	0.94170 0.47085 0.07595 -0.62800
Cl	Cl	0.03800 0.51900 0.18606 -0.78200
N 	N 	0.83910 0.41955 0.14176 -0.13500
N 	N 	0.16180 0.58090 0.03567 -0.14700
C 	C 	0.16450 0.58225 0.01572 -0.04100
C 	C 	0.83590 0.41795 0.12182 -0.05600
Cu	Cu	0.57669 0.78834 0.37930 0.83500
Cu	Cu	0.75109 0.87554 0.48540 0.84500
Cl	Cl	0.60837 0.80418 0.40928 -0.63100
Cl	Cl	0.70467 0.85233 0.51939 -0.72600
N 	N 	0.50577 0.75288 0.47509 -0.14500
N 	N 	0.82847 0.91423 0.36900 -0.15300
C 	C 	0.83117 0.91558 0.34905 0.02700
C 	C 	0.50257 0.75128 0.45515 -0.05300
Cu	Cu	0.24335 0.12168 0.71264 0.82000
Cu	Cu	0.41775 0.20888 0.81874 0.83500
Cl	Cl	0.27503 0.13752 0.74262 -0.66300
Cl	Cl	0.37133 0.18567 0.85273 -0.77100
N 	N 	0.17243 0.08622 0.80843 -0.17200
N 	N 	0.49513 0.24757 0.70234 -0.14400
C 	C 	0.49783 0.24892 0.68239 -0.04100
C 	C 	0.16923 0.08462 0.78849 -0.05200
Cu	Cu	0.54499 0.45501 0.04597 0.83400
Cu	Cu	0.45779 0.54221 0.15207 0.83800
Cl	Cl	0.52915 0.47085 0.07595 -0.64700
Cl	Cl	0.48100 0.51900 0.18606 -0.74500
N 	N 	0.58045 0.41955 0.14176 -0.14700
N 	N 	0.41910 0.58090 0.03567 -0.14000
C 	C 	0.41775 0.58225 0.01572 -0.04600
C 	C 	0.58205 0.41795 0.12182 -0.04900
Cu	Cu	0.21166 0.78834 0.37930 0.83100
Cu	Cu	0.12446 0.87554 0.48540 0.83600
Cl	Cl	0.19582 0.80418 0.40928 -0.65600
Cl	Cl	0.14767 0.85233 0.51939 -0.74000
N 	N 	0.24712 0.75288 0.47509 -0.14900
N 	N 	0.08577 0.91423 0.36900 -0.16300
C 	C 	0.08442 0.91558 0.34905 -0.04000
C 	C 	0.24872 0.75128 0.45515 -0.04700
Cu	Cu	0.87832 0.12168 0.71264 0.82300
Cu	Cu	0.79112 0.20888 0.81874 0.83600
Cl	Cl	0.86248 0.13752 0.74262 -0.65700
Cl	Cl	0.81433 0.18567 0.85273 -0.76500
N 	N 	0.91378 0.08622 0.80843 -0.16900
N 	N 	0.75243 0.24757 0.70234 -0.14400
C 	C 	0.75108 0.24892 0.68239 -0.04200
C 	C 	0.91538 0.08462 0.78849 -0.04300
Cu	Cu	0.54499 0.08998 0.04597 0.83000
Cu	Cu	0.45779 0.91558 0.15207 0.84000
Cl	Cl	0.52915 0.05830 0.07595 -0.65400
Cl	Cl	0.48100 0.96200 0.18606 -0.74000
N 	N 	0.58045 0.16090 0.14176 -0.15000
N 	N 	0.41910 0.83820 0.03567 -0.13600
C 	C 	0.41775 0.83550 0.01572 -0.05000
C 	C 	0.58205 0.16410 0.12182 -0.04700
Cu	Cu	0.21166 0.42331 0.37930 0.83100
Cu	Cu	0.12446 0.24891 0.48540 0.82800
Cl	Cl	0.19582 0.39163 0.40928 -0.66200
Cl	Cl	0.14767 0.29533 0.51939 -0.76700
N 	N 	0.24712 0.49423 0.47509 -0.15100
N 	N 	0.08577 0.17153 0.36900 -0.16600
C 	C 	0.08442 0.16883 0.34905 -0.04800
C 	C 	0.24872 0.49743 0.45515 -0.04500
Cu	Cu	0.87832 0.75665 0.71264 0.84300
Cu	Cu	0.79112 0.58225 0.81874 0.83800
Cl	Cl	0.86248 0.72497 0.74262 -0.60700
Cl	Cl	0.81433 0.62867 0.85273 -0.74200
N 	N 	0.91378 0.82757 0.80843 -0.16000
N 	N 	0.75243 0.50487 0.70234 -0.13800
C 	C 	0.75108 0.50217 0.68239 -0.04800
C 	C 	0.91538 0.83077 0.78849 0.01900
Cu	Cu	0.45501 0.91002 0.95403 0.84000
Cu	Cu	0.54221 0.08442 0.84793 0.82600
Cl	Cl	0.47085 0.94170 0.92405 -0.62800
Cl	Cl	0.51900 0.03800 0.81394 -0.78200
N 	N 	0.41955 0.83910 0.85824 -0.13500
N 	N 	0.58090 0.16180 0.96433 -0.14700
C 	C 	0.58225 0.16450 0.98428 -0.04100
C 	C 	0.41795 0.83590 0.87818 -0.05600
Cu	Cu	0.12168 0.24335 0.28736 0.82000
Cu	Cu	0.20888 0.41775 0.18126 0.83500
Cl	Cl	0.13752 0.27503 0.25738 -0.66300
Cl	Cl	0.18567 0.37133 0.14727 -0.77100
N 	N 	0.08622 0.17243 0.19157 -0.17200
N 	N 	0.24757 0.49513 0.29766 -0.14400
C 	C 	0.24892 0.49783 0.31761 -0.04100
C 	C 	0.08462 0.16923 0.21151 -0.05200
Cu	Cu	0.78834 0.57669 0.62070 0.83500
Cu	Cu	0.87554 0.75109 0.51460 0.84500
Cl	Cl	0.80418 0.60837 0.59072 -0.63100
Cl	Cl	0.85233 0.70467 0.48061 -0.72600
N 	N 	0.75288 0.50577 0.52491 -0.14500
N 	N 	0.91423 0.82847 0.63100 -0.15300
C 	C 	0.91558 0.83117 0.65095 0.02700
C 	C 	0.75128 0.50257 0.54485 -0.05300
Cu	Cu	0.45501 0.54499 0.95403 0.83400
Cu	Cu	0.54221 0.45779 0.84793 0.83800
Cl	Cl	0.47085 0.52915 0.92405 -0.64700
Cl	Cl	0.51900 0.48100 0.81394 -0.74500
N 	N 	0.41955 0.58045 0.85824 -0.14700
N 	N 	0.58090 0.41910 0.96433 -0.14000
C 	C 	0.58225 0.41775 0.98428 -0.04600
C 	C 	0.41795 0.58205 0.87818 -0.04900
Cu	Cu	0.12168 0.87832 0.28736 0.82300
Cu	Cu	0.20888 0.79112 0.18126 0.83600
Cl	Cl	0.13752 0.86248 0.25738 -0.65700
Cl	Cl	0.18567 0.81433 0.14727 -0.76500
N 	N 	0.08622 0.91378 0.19157 -0.16900
N 	N 	0.24757 0.75243 0.29766 -0.14400
C 	C 	0.24892 0.75108 0.31761 -0.04200
C 	C 	0.08462 0.91538 0.21151 -0.04300
Cu	Cu	0.78834 0.21166 0.62070 0.83100
Cu	Cu	0.87554 0.12446 0.51460 0.83600
Cl	Cl	0.80418 0.19582 0.59072 -0.65600
Cl	Cl	0.85233 0.14767 0.48061 -0.74000
N 	N 	0.75288 0.24712 0.52491 -0.14900
N 	N 	0.91423 0.08577 0.63100 -0.16300
C 	C 	0.91558 0.08442 0.65095 -0.04000
C 	C 	0.75128 0.24872 0.54485 -0.04700
Cu	Cu	0.08998 0.54499 0.95403 0.83000
Cu	Cu	0.91558 0.45779 0.84793 0.84000
Cl	Cl	0.05830 0.52915 0.92405 -0.65400
Cl	Cl	0.96200 0.48100 0.81394 -0.74000
N 	N 	0.16090 0.58045 0.85824 -0.15000
N 	N 	0.83820 0.41910 0.96433 -0.13600
C 	C 	0.83550 0.41775 0.98428 -0.05000
C 	C 	0.16410 0.58205 0.87818 -0.04700
Cu	Cu	0.75665 0.87832 0.28736 0.84300
Cu	Cu	0.58225 0.79112 0.18126 0.83800
Cl	Cl	0.72497 0.86248 0.25738 -0.60700
Cl	Cl	0.62867 0.81433 0.14727 -0.74200
N 	N 	0.82757 0.91378 0.19157 -0.16000
N 	N 	0.50487 0.75243 0.29766 -0.13800
C 	C 	0.50217 0.75108 0.31761 -0.04800
C 	C 	0.83077 0.91538 0.21151 0.01900
Cu	Cu	0.42331 0.21166 0.62070 0.83100
Cu	Cu	0.24891 0.12446 0.51460 0.82800
Cl	Cl	0.39163 0.19582 0.59072 -0.66200
Cl	Cl	0.29533 0.14767 0.48061 -0.76700
N 	N 	0.49423 0.24712 0.52491 -0.15100
N 	N 	0.17153 0.08577 0.63100 -0.16600
C 	C 	0.16883 0.08442 0.65095 -0.04800
C 	C 	0.49743 0.24872 0.54485 -0.04500
Cu	Cu	0.66667 0.33333 0.01922 0.81000
Cu	Cu	0.66667 0.33333 0.08590 -0.01600
N 	N 	0.66667 0.33333 0.11482 -0.11600
Cu	Cu	0.66667 0.33333 0.08270 0.60400
Cu	Cu	0.66667 0.33333 0.07530 0.34500
Cu	Cu	0.33333 0.66667 0.35255 0.81000
Cu	Cu	0.33333 0.66667 0.41923 -0.01600
N 	N 	0.33333 0.66667 0.44815 -0.11700
Cu	Cu	0.33333 0.66667 0.41603 0.60400
Cu	Cu	0.33333 0.66667 0.40863 0.34500
Cu	Cu	-0.00000 0.00000 0.68589 0.78100
Cu	Cu	-0.00000 0.00000 0.75257 -0.01300
N 	N 	0.00000 0.00000 0.78149 -0.15300
Cu	Cu	0.00000 0.00000 0.74937 0.59000
Cu	Cu	-0.00000 0.00000 0.74197 0.33200
Cu	Cu	0.33333 0.66667 0.98078 0.81000
Cu	Cu	0.33333 0.66667 0.91410 -0.01600
N 	N 	0.33333 0.66667 0.88518 -0.11600
Cu	Cu	0.33333 0.66667 0.91730 0.60400
Cu	Cu	0.33333 0.66667 0.92470 0.34500
Cu	Cu	-0.00000 0.00000 0.31411 0.78100
Cu	Cu	-0.00000 0.00000 0.24743 -0.01300
N 	N 	-0.00000 0.00000 0.21851 -0.15300
Cu	Cu	0.00000 0.00000 0.25063 0.59000
Cu	Cu	0.00000 0.00000 0.25803 0.33200
Cu	Cu	0.66667 0.33333 0.64745 0.81000
Cu	Cu	0.66667 0.33333 0.58077 -0.01600
N 	N 	0.66667 0.33333 0.55185 -0.11700
Cu	Cu	0.66667 0.33333 0.58397 0.60400
Cu	Cu	0.66667 0.33333 0.59137 0.34500
Cl	Cl	0.80276 0.19724 0.03031 -0.71700
Cl	Cl	0.46943 0.53057 0.36364 -0.71300
Cl	Cl	0.13609 0.86391 0.69698 -0.66000
Cl	Cl	0.80276 0.60552 0.03031 -0.70800
Cl	Cl	0.46943 0.93885 0.36364 -0.71000
Cl	Cl	0.13609 0.27219 0.69698 -0.72500
Cl	Cl	0.39448 0.19724 0.03031 -0.73000
Cl	Cl	0.06115 0.53057 0.36364 -0.74800
Cl	Cl	0.72781 0.86391 0.69698 -0.65900
Cl	Cl	0.19724 0.80276 0.96969 -0.71700
Cl	Cl	0.86391 0.13609 0.30302 -0.66000
Cl	Cl	0.53057 0.46943 0.63636 -0.71300
Cl	Cl	0.60552 0.80276 0.96969 -0.70800
Cl	Cl	0.27219 0.13609 0.30302 -0.72500
Cl	Cl	0.93885 0.46943 0.63636 -0.71000
Cl	Cl	0.19724 0.39448 0.96969 -0.73000
Cl	Cl	0.86391 0.72781 0.30302 -0.65900
Cl	Cl	0.53057 0.06115 0.63636 -0.74800
N 	N 	0.33333 0.66667 0.00870 -0.16300
N 	N 	0.00000 0.00000 0.34203 -0.20200
N 	N 	0.66667 0.33333 0.67537 -0.16400
N 	N 	0.66667 0.33333 0.99130 -0.16300
N 	N 	0.33333 0.66667 0.32463 -0.16400
N 	N 	0.00000 0.00000 0.65797 -0.20200
C 	C 	0.75130 0.50260 0.14823 -0.06200
H 	H 	0.80675 0.61350 0.14410 0.06900
H 	H 	0.75155 0.50310 0.16110 0.05800
C 	C 	0.41797 0.83593 0.48156 -0.06100
H 	H 	0.47342 0.94683 0.47743 0.06800
H 	H 	0.41822 0.83643 0.49443 0.05400
C 	C 	0.08463 0.16927 0.81490 -0.06700
H 	H 	0.14008 0.28017 0.81077 0.06100
H 	H 	0.08488 0.16977 0.82777 0.03900
C 	C 	0.49740 0.24870 0.14823 -0.05400
H 	H 	0.38650 0.19325 0.14410 0.05400
H 	H 	0.49690 0.24845 0.16110 0.04700
C 	C 	0.16407 0.58203 0.48156 -0.05000
H 	H 	0.05317 0.52658 0.47743 0.04600
H 	H 	0.16357 0.58178 0.49443 0.04200
C 	C 	0.83073 0.91537 0.81490 -0.00000
H 	H 	0.71983 0.85992 0.81077 0.05600
H 	H 	0.83023 0.91512 0.82777 0.04500
C 	C 	0.75130 0.24870 0.14823 -0.06100
H 	H 	0.80675 0.19325 0.14410 0.06700
H 	H 	0.75155 0.24845 0.16110 0.05600
C 	C 	0.41797 0.58203 0.48156 -0.05600
H 	H 	0.47342 0.52658 0.47743 0.05900
H 	H 	0.41822 0.58178 0.49443 0.04800
C 	C 	0.08463 0.91537 0.81490 -0.00400
H 	H 	0.14008 0.85992 0.81077 0.05600
H 	H 	0.08488 0.91512 0.82777 0.04400
C 	C 	0.50260 0.75130 0.85177 -0.06200
H 	H 	0.61350 0.80675 0.85590 0.06900
H 	H 	0.50310 0.75155 0.83890 0.05800
C 	C 	0.16927 0.08463 0.18510 -0.06700
H 	H 	0.28017 0.14008 0.18923 0.06100
H 	H 	0.16977 0.08488 0.17223 0.03900
C 	C 	0.83593 0.41797 0.51844 -0.06100
H 	H 	0.94683 0.47342 0.52257 0.06800
H 	H 	0.83643 0.41822 0.50557 0.05400
C 	C 	0.24870 0.49740 0.85177 -0.05400
H 	H 	0.19325 0.38650 0.85590 0.05400
H 	H 	0.24845 0.49690 0.83890 0.04700
C 	C 	0.91537 0.83073 0.18510 -0.00000
H 	H 	0.85992 0.71983 0.18923 0.05600
H 	H 	0.91512 0.83023 0.17223 0.04500
C 	C 	0.58203 0.16407 0.51844 -0.05000
H 	H 	0.52658 0.05317 0.52257 0.04600
H 	H 	0.58178 0.16357 0.50557 0.04200
C 	C 	0.24870 0.75130 0.85177 -0.06100
H 	H 	0.19325 0.80675 0.85590 0.06700
H 	H 	0.24845 0.75155 0.83890 0.05600
C 	C 	0.91537 0.08463 0.18510 -0.00400
H 	H 	0.85992 0.14008 0.18923 0.05600
H 	H 	0.91512 0.08488 0.17223 0.04400
C 	C 	0.58203 0.41797 0.51844 -0.05600
H 	H 	0.52658 0.47342 0.52257 0.05900
H 	H 	0.58178 0.41822 0.50557 0.04800
C 	C 	0.24890 0.75110 0.04209 -0.05500
H 	H 	0.24780 0.75220 0.05500 0.06300
H 	H 	0.19340 0.80660 0.03790 0.06400
C 	C 	0.91557 0.08443 0.37542 0.00200
H 	H 	0.91447 0.08553 0.38833 0.06500
H 	H 	0.86007 0.13993 0.37123 0.06500
C 	C 	0.58223 0.41777 0.70876 -0.05800
H 	H 	0.58113 0.41887 0.72167 0.06900
H 	H 	0.52673 0.47327 0.70457 0.06900
C 	C 	0.24890 0.49780 0.04209 -0.05200
H 	H 	0.24780 0.49560 0.05500 0.06000
H 	H 	0.19340 0.38680 0.03790 0.05900
C 	C 	0.91557 0.83113 0.37542 0.00200
H 	H 	0.91447 0.82893 0.38833 0.06800
H 	H 	0.86007 0.72013 0.37123 0.06600
C 	C 	0.58223 0.16447 0.70876 -0.04600
H 	H 	0.58113 0.16227 0.72167 0.05700
H 	H 	0.52673 0.05347 0.70457 0.04400
C 	C 	0.50220 0.75110 0.04209 -0.06000
H 	H 	0.50440 0.75220 0.05500 0.07000
H 	H 	0.61320 0.80660 0.03790 0.07200
C 	C 	0.16887 0.08443 0.37542 -0.06700
H 	H 	0.17107 0.08553 0.38833 0.05800
H 	H 	0.27987 0.13993 0.37123 0.07100
C 	C 	0.83553 0.41777 0.70876 -0.05900
H 	H 	0.83773 0.41887 0.72167 0.07000
H 	H 	0.94653 0.47327 0.70457 0.07100
C 	C 	0.75110 0.24890 0.95791 -0.05500
H 	H 	0.75220 0.24780 0.94500 0.06300
H 	H 	0.80660 0.19340 0.96210 0.06400
C 	C 	0.41777 0.58223 0.29124 -0.05800
H 	H 	0.41887 0.58113 0.27833 0.06900
H 	H 	0.47327 0.52673 0.29543 0.06900
C 	C 	0.08443 0.91557 0.62458 0.00200
H 	H 	0.08553 0.91447 0.61167 0.06500
H 	H 	0.13993 0.86007 0.62877 0.06500
C 	C 	0.49780 0.24890 0.95791 -0.05200
H 	H 	0.49560 0.24780 0.94500 0.06000
H 	H 	0.38680 0.19340 0.96210 0.05900
C 	C 	0.16447 0.58223 0.29124 -0.04600
H 	H 	0.16227 0.58113 0.27833 0.05700
H 	H 	0.05347 0.52673 0.29543 0.04400
C 	C 	0.83113 0.91557 0.62458 0.00200
H 	H 	0.82893 0.91447 0.61167 0.06800
H 	H 	0.72013 0.86007 0.62877 0.06600
C 	C 	0.75110 0.50220 0.95791 -0.06000
H 	H 	0.75220 0.50440 0.94500 0.07000
H 	H 	0.80660 0.61320 0.96210 0.07200
C 	C 	0.41777 0.83553 0.29124 -0.05900
H 	H 	0.41887 0.83773 0.27833 0.07000
H 	H 	0.47327 0.94653 0.29543 0.07100
C 	C 	0.08443 0.16887 0.62458 -0.06700
H 	H 	0.08553 0.17107 0.61167 0.05800
H 	H 	0.13993 0.27987 0.62877 0.07100
