data_crystal

_cell_length_a 9.42180
_cell_length_b 9.42180
_cell_length_c 15.65780
_cell_angle_alpha 90.00000
_cell_angle_beta  90.00000
_cell_angle_gamma 120.00000

_symmetry_space_group_name_	'P 1'
_symmetry_space_group_name_H-M	'P 1'

loop_
_symmetry_equiv_pos_as_xyz
  x,y,z

loop_
_atom_site_label
_atom_site_type_symbol
_atom_site_fract_x
_atom_site_fract_y
_atom_site_fract_z
_atom_site_charge
H 	H 	0.53600 0.88240 0.05820 0.08100
H 	H 	0.11760 0.65360 0.05820 0.08100
H 	H 	0.34640 0.46400 0.05820 0.08100
H 	H 	0.46400 0.11760 0.55820 0.08000
H 	H 	0.88240 0.34640 0.55820 0.08000
H 	H 	0.65360 0.53600 0.55820 0.07900
H 	H 	0.11760 0.46400 0.05820 0.08000
H 	H 	0.34640 0.88240 0.05820 0.08000
H 	H 	0.53600 0.65360 0.05820 0.08000
H 	H 	0.88240 0.53600 0.55820 0.07900
H 	H 	0.65360 0.11760 0.55820 0.07900
H 	H 	0.46400 0.34640 0.55820 0.07900
Cu	Cu	0.54880 0.09760 0.20050 0.87200
Cl	Cl	0.52550 0.05100 0.34960 -0.57200
N 	N 	0.42150 0.84300 0.15720 -0.14200
C 	C 	0.41715 0.83430 0.06110 -0.06800
Cu	Cu	0.90240 0.45120 0.20050 0.87200
Cl	Cl	0.94900 0.47450 0.34960 -0.57200
N 	N 	0.15700 0.57850 0.15720 -0.14200
C 	C 	0.16570 0.58285 0.06110 -0.06800
Cu	Cu	0.54880 0.45120 0.20050 0.87200
Cl	Cl	0.52550 0.47450 0.34960 -0.57200
N 	N 	0.42150 0.57850 0.15720 -0.14200
C 	C 	0.41715 0.58285 0.06110 -0.06800
Cu	Cu	0.45120 0.90240 0.70050 0.87200
Cl	Cl	0.47450 0.94900 0.84960 -0.57500
N 	N 	0.57850 0.15700 0.65720 -0.14200
C 	C 	0.58285 0.16570 0.56110 -0.06800
Cu	Cu	0.09760 0.54880 0.70050 0.87200
Cl	Cl	0.05100 0.52550 0.84960 -0.57500
N 	N 	0.84300 0.42150 0.65720 -0.14200
C 	C 	0.83430 0.41715 0.56110 -0.06800
Cu	Cu	0.45120 0.54880 0.70050 0.87200
Cl	Cl	0.47450 0.52550 0.84960 -0.57500
N 	N 	0.57850 0.42150 0.65720 -0.14200
C 	C 	0.58285 0.41715 0.56110 -0.06800
Cu	Cu	0.66667 0.33333 0.39020 0.87700
Cu	Cu	0.33333 0.66667 0.89020 0.87500
Cl	Cl	0.38280 0.19140 0.14270 -0.58300
Cl	Cl	0.80860 0.19140 0.14270 -0.58300
Cl	Cl	0.80860 0.61720 0.14270 -0.58300
Cl	Cl	0.61720 0.80860 0.64270 -0.58400
Cl	Cl	0.19140 0.80860 0.64270 -0.58400
Cl	Cl	0.19140 0.38280 0.64270 -0.58400
C 	C 	0.25090 0.74910 0.18740 -0.05600
H 	H 	0.19315 0.80685 0.17370 0.06900
H 	H 	0.25645 0.74355 0.24850 0.07600
C 	C 	0.25090 0.50180 0.18740 -0.05600
H 	H 	0.19315 0.38630 0.17370 0.06900
H 	H 	0.25645 0.51290 0.24850 0.07600
C 	C 	0.49820 0.74910 0.18740 -0.05600
H 	H 	0.61370 0.80685 0.17370 0.06900
H 	H 	0.48710 0.74355 0.24850 0.07600
C 	C 	0.74910 0.25090 0.68740 -0.05500
H 	H 	0.80685 0.19315 0.67370 0.06800
H 	H 	0.74355 0.25645 0.74850 0.07500
C 	C 	0.74910 0.49820 0.68740 -0.05500
H 	H 	0.80685 0.61370 0.67370 0.06800
H 	H 	0.74355 0.48710 0.74850 0.07500
C 	C 	0.50180 0.25090 0.68740 -0.05500
H 	H 	0.38630 0.19315 0.67370 0.06800
H 	H 	0.51290 0.25645 0.74850 0.07500
N 	N 	0.33333 0.66667 0.02800 -0.13500
N 	N 	0.66667 0.33333 0.52800 -0.13700
