data_crystal

_cell_length_a 7.38000
_cell_length_b 28.29000
_cell_length_c 22.47000
_cell_angle_alpha 90.00000
_cell_angle_beta  99.13000
_cell_angle_gamma 90.00000

_symmetry_space_group_name_	'P 1'
_symmetry_space_group_name_H-M	'P 1'

loop_
_symmetry_equiv_pos_as_xyz
  x,y,z

loop_
_atom_site_label
_atom_site_type_symbol
_atom_site_fract_x
_atom_site_fract_y
_atom_site_fract_z
_atom_site_charge
C 	C 	0.91040 0.08731 0.25540 0.44000
C 	C 	0.06340 0.12059 0.27980 -0.28500
C 	C 	0.02100 0.16242 0.30700 0.14300
H 	H 	0.89860 0.16920 0.30850 -0.00700
C 	C 	0.15420 0.19446 0.33190 -0.16900
C 	C 	0.33780 0.18303 0.32780 0.15500
H 	H 	0.43060 0.20390 0.34350 -0.02500
C 	C 	0.38300 0.14160 0.30100 -0.32800
H 	H 	0.50560 0.13520 0.29920 0.12900
C 	C 	0.25090 0.10932 0.27690 0.33000
C 	C 	0.11200 0.23982 0.36120 0.19200
C 	C 	0.95350 0.26561 0.34180 -0.24900
H 	H 	0.86790 0.25390 0.31040 0.12300
C 	C 	0.91990 0.30849 0.36810 0.18700
C 	C 	0.05310 0.32650 0.41460 -0.23800
H 	H 	0.03420 0.35560 0.43180 0.11900
C 	C 	0.21450 0.30086 0.43540 0.18700
C 	C 	0.23780 0.25780 0.40760 -0.25200
H 	H 	0.34330 0.24040 0.42090 0.12100
C 	C 	0.75220 0.33654 0.34640 -0.15600
C 	C 	0.58380 0.31398 0.33170 0.13000
H 	H 	0.58030 0.28120 0.33400 -0.01400
C 	C 	0.41850 0.33850 0.31340 -0.28600
H 	H 	0.30700 0.32250 0.30630 0.15300
C 	C 	0.42630 0.38740 0.30620 0.35100
C 	C 	0.59350 0.41142 0.31750 -0.29100
C 	C 	0.75300 0.38505 0.33810 0.13700
H 	H 	0.86440 0.40100 0.34660 0.00300
C 	C 	0.60840 0.46233 0.30870 0.46300
C 	C 	0.36000 0.32040 0.48300 -0.16400
C 	C 	0.32270 0.34952 0.53020 0.14300
H 	H 	0.20100 0.35680 0.53230 -0.00200
C 	C 	0.45720 0.36790 0.57340 -0.28400
C 	C 	0.63880 0.35640 0.57090 0.35100
C 	C 	0.68340 0.32690 0.52510 -0.30500
H 	H 	0.80490 0.31940 0.52310 0.15600
C 	C 	0.54510 0.30960 0.48410 0.15600
H 	H 	0.57530 0.28920 0.45470 -0.02200
C 	C 	0.40850 0.39921 0.62180 0.44500
O 	O 	0.29660 0.06872 0.25272 -0.59600
O 	O 	0.92460 0.05735 0.21536 -0.52300
O 	O 	0.76180 0.09121 0.27741 -0.48900
O 	O 	0.26340 0.41018 0.28770 -0.46400
H 	H 	0.28380 0.43760 0.27880 0.28400
O 	O 	0.46110 0.48561 0.29070 -0.51700
O 	O 	0.76370 0.48133 0.31958 -0.51100
O 	O 	0.23820 0.40869 0.62130 -0.49200
O 	O 	0.53490 0.41591 0.65990 -0.48400
O 	O 	0.78440 0.37390 0.61150 -0.47700
H 	H 	0.74570 0.39210 0.63490 0.29100
Zn	Zn	0.13730 0.04717 0.17419 1.22200
Zn	Zn	0.55402 0.05087 0.24499 1.21500
C 	C 	0.08960 0.58731 0.24460 0.44100
C 	C 	0.93660 0.62059 0.22020 -0.28400
C 	C 	0.97900 0.66242 0.19300 0.14500
H 	H 	0.10140 0.66920 0.19150 -0.00700
C 	C 	0.84580 0.69446 0.16810 -0.16800
C 	C 	0.66220 0.68303 0.17220 0.15600
H 	H 	0.56940 0.70390 0.15650 -0.02500
C 	C 	0.61700 0.64160 0.19900 -0.32800
H 	H 	0.49440 0.63520 0.20080 0.12900
C 	C 	0.74910 0.60932 0.22310 0.33000
C 	C 	0.88800 0.73982 0.13880 0.19300
C 	C 	0.04650 0.76561 0.15820 -0.25000
H 	H 	0.13210 0.75390 0.18960 0.12300
C 	C 	0.08010 0.80849 0.13190 0.18700
C 	C 	0.94690 0.82650 0.08540 -0.23800
H 	H 	0.96580 0.85560 0.06820 0.12000
C 	C 	0.78550 0.80086 0.06460 0.18700
C 	C 	0.76220 0.75780 0.09240 -0.25200
H 	H 	0.65670 0.74040 0.07910 0.12100
C 	C 	0.24780 0.83654 0.15360 -0.15600
C 	C 	0.41620 0.81398 0.16830 0.13000
H 	H 	0.41970 0.78120 0.16600 -0.01400
C 	C 	0.58150 0.83850 0.18660 -0.28600
H 	H 	0.69300 0.82250 0.19370 0.15300
C 	C 	0.57370 0.88740 0.19380 0.35100
C 	C 	0.40650 0.91142 0.18250 -0.29100
C 	C 	0.24700 0.88505 0.16190 0.13700
H 	H 	0.13560 0.90100 0.15340 0.00300
C 	C 	0.39160 0.96233 0.19130 0.46200
C 	C 	0.64000 0.82040 0.01700 -0.16300
C 	C 	0.67730 0.84952 0.96980 0.14200
H 	H 	0.79900 0.85680 0.96770 -0.00200
C 	C 	0.54280 0.86790 0.92660 -0.28400
C 	C 	0.36120 0.85640 0.92910 0.35100
C 	C 	0.31660 0.82690 0.97490 -0.30600
H 	H 	0.19510 0.81940 0.97690 0.15600
C 	C 	0.45490 0.80960 0.01590 0.15700
H 	H 	0.42470 0.78920 0.04530 -0.02300
C 	C 	0.59150 0.89921 0.87820 0.44500
O 	O 	0.70340 0.56872 0.24728 -0.59600
O 	O 	0.07540 0.55735 0.28464 -0.52300
O 	O 	0.23820 0.59121 0.22259 -0.48800
O 	O 	0.73660 0.91018 0.21230 -0.46400
H 	H 	0.71620 0.93760 0.22120 0.28400
O 	O 	0.53890 0.98561 0.20930 -0.51700
O 	O 	0.23630 0.98133 0.18042 -0.51100
O 	O 	0.76180 0.90869 0.87870 -0.49300
O 	O 	0.46510 0.91591 0.84010 -0.48400
O 	O 	0.21560 0.87390 0.88850 -0.47700
H 	H 	0.25430 0.89210 0.86510 0.29100
Zn	Zn	0.86270 0.54717 0.32581 1.22200
Zn	Zn	0.44598 0.55087 0.25501 1.21500
C 	C 	0.08960 0.91269 0.74460 0.44100
C 	C 	0.93660 0.87941 0.72020 -0.28400
C 	C 	0.97900 0.83758 0.69300 0.14400
H 	H 	0.10140 0.83080 0.69150 -0.00600
C 	C 	0.84580 0.80554 0.66810 -0.16800
C 	C 	0.66220 0.81697 0.67220 0.15600
H 	H 	0.56940 0.79610 0.65650 -0.02500
C 	C 	0.61700 0.85840 0.69900 -0.32800
H 	H 	0.49440 0.86480 0.70080 0.12900
C 	C 	0.74910 0.89068 0.72310 0.33000
C 	C 	0.88800 0.76018 0.63880 0.19200
C 	C 	0.04650 0.73439 0.65820 -0.24900
H 	H 	0.13210 0.74610 0.68960 0.12300
C 	C 	0.08010 0.69151 0.63190 0.18700
C 	C 	0.94690 0.67350 0.58540 -0.23800
H 	H 	0.96580 0.64440 0.56820 0.11900
C 	C 	0.78550 0.69914 0.56460 0.18700
C 	C 	0.76220 0.74220 0.59240 -0.25200
H 	H 	0.65670 0.75960 0.57910 0.12100
C 	C 	0.24780 0.66346 0.65360 -0.15600
C 	C 	0.41620 0.68602 0.66830 0.13000
H 	H 	0.41970 0.71880 0.66600 -0.01400
C 	C 	0.58150 0.66150 0.68660 -0.28600
H 	H 	0.69300 0.67750 0.69370 0.15300
C 	C 	0.57370 0.61260 0.69380 0.35100
C 	C 	0.40650 0.58858 0.68250 -0.29100
C 	C 	0.24700 0.61495 0.66190 0.13700
H 	H 	0.13560 0.59900 0.65340 0.00300
C 	C 	0.39160 0.53767 0.69130 0.46300
C 	C 	0.64000 0.67960 0.51700 -0.16400
C 	C 	0.67730 0.65048 0.46980 0.14300
H 	H 	0.79900 0.64320 0.46770 -0.00200
C 	C 	0.54280 0.63210 0.42660 -0.28400
C 	C 	0.36120 0.64360 0.42910 0.35100
C 	C 	0.31660 0.67310 0.47490 -0.30500
H 	H 	0.19510 0.68060 0.47690 0.15600
C 	C 	0.45490 0.69040 0.51590 0.15600
H 	H 	0.42470 0.71080 0.54530 -0.02200
C 	C 	0.59150 0.60079 0.37820 0.44500
O 	O 	0.70340 0.93128 0.74728 -0.59600
O 	O 	0.07540 0.94265 0.78464 -0.52300
O 	O 	0.23820 0.90879 0.72259 -0.48900
O 	O 	0.73660 0.58982 0.71230 -0.46400
H 	H 	0.71620 0.56240 0.72120 0.28400
O 	O 	0.53890 0.51439 0.70930 -0.51700
O 	O 	0.23630 0.51867 0.68042 -0.51100
O 	O 	0.76180 0.59131 0.37870 -0.49200
O 	O 	0.46510 0.58409 0.34010 -0.48400
O 	O 	0.21560 0.62610 0.38850 -0.47700
H 	H 	0.25430 0.60790 0.36510 0.29100
Zn	Zn	0.86270 0.95283 0.82581 1.22200
Zn	Zn	0.44598 0.94913 0.75501 1.21500
C 	C 	0.91040 0.41269 0.75540 0.44100
C 	C 	0.06340 0.37941 0.77980 -0.28400
C 	C 	0.02100 0.33758 0.80700 0.14500
H 	H 	0.89860 0.33080 0.80850 -0.00700
C 	C 	0.15420 0.30554 0.83190 -0.16800
C 	C 	0.33780 0.31697 0.82780 0.15600
H 	H 	0.43060 0.29610 0.84350 -0.02500
C 	C 	0.38300 0.35840 0.80100 -0.32800
H 	H 	0.50560 0.36480 0.79920 0.12900
C 	C 	0.25090 0.39068 0.77690 0.33000
C 	C 	0.11200 0.26018 0.86120 0.19300
C 	C 	0.95350 0.23439 0.84180 -0.25000
H 	H 	0.86790 0.24610 0.81040 0.12300
C 	C 	0.91990 0.19151 0.86810 0.18700
C 	C 	0.05310 0.17350 0.91460 -0.23800
H 	H 	0.03420 0.14440 0.93180 0.12000
C 	C 	0.21450 0.19914 0.93540 0.18700
C 	C 	0.23780 0.24220 0.90760 -0.25200
H 	H 	0.34330 0.25960 0.92090 0.12100
C 	C 	0.75220 0.16346 0.84640 -0.15600
C 	C 	0.58380 0.18602 0.83170 0.13000
H 	H 	0.58030 0.21880 0.83400 -0.01400
C 	C 	0.41850 0.16150 0.81340 -0.28600
H 	H 	0.30700 0.17750 0.80630 0.15300
C 	C 	0.42630 0.11260 0.80620 0.35100
C 	C 	0.59350 0.08858 0.81750 -0.29100
C 	C 	0.75300 0.11495 0.83810 0.13700
H 	H 	0.86440 0.09900 0.84660 0.00300
C 	C 	0.60840 0.03767 0.80870 0.46200
C 	C 	0.36000 0.17960 0.98300 -0.16300
C 	C 	0.32270 0.15048 0.03020 0.14200
H 	H 	0.20100 0.14320 0.03230 -0.00200
C 	C 	0.45720 0.13210 0.07340 -0.28400
C 	C 	0.63880 0.14360 0.07090 0.35100
C 	C 	0.68340 0.17310 0.02510 -0.30600
H 	H 	0.80490 0.18060 0.02310 0.15600
C 	C 	0.54510 0.19040 0.98410 0.15700
H 	H 	0.57530 0.21080 0.95470 -0.02300
C 	C 	0.40850 0.10079 0.12180 0.44500
O 	O 	0.29660 0.43128 0.75272 -0.59600
O 	O 	0.92460 0.44265 0.71536 -0.52300
O 	O 	0.76180 0.40879 0.77741 -0.48800
O 	O 	0.26340 0.08982 0.78770 -0.46400
H 	H 	0.28380 0.06240 0.77880 0.28400
O 	O 	0.46110 0.01439 0.79070 -0.51700
O 	O 	0.76370 0.01867 0.81958 -0.51100
O 	O 	0.23820 0.09131 0.12130 -0.49300
O 	O 	0.53490 0.08409 0.15990 -0.48400
O 	O 	0.78440 0.12610 0.11150 -0.47700
H 	H 	0.74570 0.10790 0.13490 0.29100
Zn	Zn	0.13730 0.45283 0.67419 1.22200
Zn	Zn	0.55402 0.44913 0.74499 1.21500
