data_crystal

_cell_length_a 21.03800
_cell_length_b 12.51120
_cell_length_c 53.18400
_cell_angle_alpha 90.00000
_cell_angle_beta  94.50900
_cell_angle_gamma 90.00000

_symmetry_space_group_name_	'P 1'
_symmetry_space_group_name_H-M	'P 1'

loop_
_symmetry_equiv_pos_as_xyz
  x,y,z

loop_
_atom_site_label
_atom_site_type_symbol
_atom_site_fract_x
_atom_site_fract_y
_atom_site_fract_z
_atom_site_charge
In	In	0.87053 0.37325 0.80228 7.36800
In	In	0.38881 0.68670 0.55366 1.91600
O 	O 	0.94470 0.32630 0.77654 -0.02200
O 	O 	0.81660 0.22680 0.78424 0.59800
O 	O 	0.79520 0.13740 0.32954 0.29700
O 	O 	0.92780 0.49670 0.78106 0.15100
O 	O 	0.82290 0.97800 0.31858 0.35800
O 	O 	0.94130 0.10040 0.33479 -0.36000
O 	O 	0.79900 0.38450 0.76791 1.80800
O 	O 	0.91640 0.26550 0.32699 -0.26700
O 	O 	0.63660 0.71260 0.40297 -0.25500
O 	O 	0.17760 0.33780 0.69130 -0.19900
O 	O 	0.61310 0.24120 0.65810 -0.22900
O 	O 	0.13260 0.16600 0.44600 -0.24300
N 	N 	0.47210 0.77600 0.54888 -0.39300
N 	N 	0.39380 0.62180 0.51716 -0.38500
N 	N 	0.31950 0.56840 0.56050 -0.37900
N 	N 	0.39820 0.72080 0.59301 -0.38700
N 	N 	0.64870 0.09750 0.68310 -0.25300
H 	H 	0.64680 0.02910 0.68410 0.14300
N 	N 	0.65520 0.88530 0.41310 -0.24800
H 	H 	0.65350 0.93190 0.42500 0.11100
N 	N 	0.14530 0.50070 0.70220 -0.27600
H 	H 	0.15470 0.56730 0.70080 0.18100
N 	N 	0.10020 0.32320 0.42790 -0.26000
H 	H 	0.12590 0.36930 0.42230 0.13200
C 	C 	0.95410 0.42140 0.77174 0.29700
C 	C 	0.59900 0.78300 0.44200 -0.13600
C 	C 	0.44040 0.78700 0.60423 0.09600
C 	C 	0.68600 0.91350 0.39120 0.15100
C 	C 	0.78980 0.28550 0.76659 0.04700
C 	C 	0.23200 0.27600 0.47510 0.07600
H 	H 	0.24580 0.20980 0.46990 0.01000
C 	C 	0.79210 0.03810 0.33159 0.25100
C 	C 	0.29230 0.55030 0.58320 0.08700
C 	C 	0.43880 0.65160 0.50030 0.07700
C 	C 	0.09700 0.47860 0.71930 0.25500
C 	C 	0.48620 0.72590 0.50480 -0.18000
C 	C 	0.50310 0.83600 0.56711 0.08700
C 	C 	0.62880 0.78750 0.41640 0.25000
C 	C 	0.94680 0.19750 0.34090 0.28500
C 	C 	0.43530 0.78250 0.63123 -0.07700
H 	H 	0.45990 0.81990 0.64360 0.07700
C 	C 	0.35000 0.55470 0.50590 0.08200
C 	C 	0.03600 0.35650 0.74250 0.11200
H 	H 	0.02320 0.28700 0.74570 0.03900
C 	C 	0.28130 0.55780 0.62870 0.14100
C 	C 	0.55660 0.88940 0.55660 -0.08400
H 	H 	0.58500 0.93760 0.56460 0.06200
C 	C 	0.24160 0.62320 0.64070 -0.13100
H 	H 	0.23650 0.69360 0.63530 0.09500
C 	C 	0.55600 0.85330 0.53220 -0.08800
H 	H 	0.58510 0.87140 0.52060 0.05600
C 	C 	0.55930 0.66150 0.47220 -0.19700
H 	H 	0.55890 0.59380 0.47940 0.08500
C 	C 	0.71950 0.05960 0.36560 0.03700
H 	H 	0.71920 0.13220 0.36190 0.04000
C 	C 	0.06880 0.56370 0.73040 -0.25900
H 	H 	0.08010 0.63360 0.72670 0.20900
C 	C 	0.28950 0.45720 0.63750 -0.17300
H 	H 	0.31760 0.41200 0.63000 0.11200
C 	C 	0.25740 0.41980 0.65720 0.06600
H 	H 	0.26450 0.35000 0.66280 0.03700
C 	C 	0.02300 0.54260 0.74720 0.13100
H 	H 	0.00220 0.59980 0.75410 0.03300
C 	C 	0.28450 0.51260 0.54200 0.08300
C 	C 	0.52720 0.92190 0.60942 0.16000
C 	C 	0.29910 0.50360 0.51620 -0.19000
C 	C 	0.20840 0.58820 0.66080 0.03300
H 	H 	0.18190 0.63460 0.66880 0.10000
C 	C 	0.74270 0.12890 0.74330 0.03400
H 	H 	0.76100 0.08350 0.75570 0.04000
C 	C 	0.21550 0.48270 0.66880 -0.08500
C 	C 	0.36930 0.54080 0.47920 -0.07800
H 	H 	0.34880 0.49750 0.46690 0.05600
C 	C 	0.17830 0.43500 0.68910 0.25800
C 	C 	0.23920 0.48010 0.57800 -0.07700
H 	H 	0.21300 0.45340 0.58980 0.06500
C 	C 	0.08430 0.37400 0.72620 -0.22600
H 	H 	0.10710 0.31710 0.72020 0.17600
C 	C 	0.41870 0.59850 0.47650 -0.08000
H 	H 	0.43870 0.60550 0.46160 0.05100
C 	C 	0.00720 0.44150 0.75390 -0.08200
C 	C 	0.98690 0.22750 0.36340 -0.10900
C 	C 	0.75070 0.23950 0.74580 0.01500
C 	C 	0.68010 0.15130 0.70400 0.19000
C 	C 	0.75300 0.88680 0.35710 0.03200
H 	H 	0.77580 0.83970 0.34770 0.05800
C 	C 	0.70770 0.08640 0.72230 -0.16400
H 	H 	0.70300 0.01270 0.72080 0.10300
C 	C 	0.75430 0.99100 0.35130 -0.03000
C 	C 	0.59130 0.06300 0.64350 -0.11800
C 	C 	0.71920 0.84410 0.37680 -0.14600
H 	H 	0.71930 0.77100 0.38000 0.10400
C 	C 	0.23330 0.45930 0.55330 -0.07900
H 	H 	0.20160 0.41780 0.54490 0.06200
C 	C 	0.68550 0.02400 0.38520 -0.14400
H 	H 	0.66250 0.07180 0.39430 0.06200
C 	C 	0.25420 0.44040 0.49910 0.18500
C 	C 	0.71960 0.30270 0.72750 0.02300
H 	H 	0.72240 0.37660 0.72910 0.04300
C 	C 	0.59160 0.67930 0.45150 0.08000
H 	H 	0.60910 0.62180 0.44340 -0.01000
C 	C 	0.61920 0.14460 0.66190 0.24500
C 	C 	0.56560 0.86210 0.45140 0.08000
H 	H 	0.56520 0.92880 0.44370 -0.01900
C 	C 	0.02220 0.15510 0.37670 0.10100
H 	H 	0.02230 0.08490 0.37100 0.03200
C 	C 	0.53100 0.84710 0.47265 -0.19300
H 	H 	0.51130 0.90470 0.47990 0.08800
C 	C 	0.58050 0.89470 0.62300 -0.19400
H 	H 	0.59650 0.82610 0.62120 0.10300
C 	C 	0.52670 0.74610 0.48255 0.14700
C 	C 	0.13660 0.26300 0.44460 0.24600
C 	C 	0.50260 0.78300 0.52770 0.08900
C 	C 	0.48910 0.84370 0.59260 -0.18900
C 	C 	0.68430 0.26000 0.70660 -0.15600
H 	H 	0.66390 0.30480 0.69450 0.12200
C 	C 	0.38740 0.71230 0.63484 -0.08100
H 	H 	0.37250 0.69390 0.65030 0.08700
C 	C 	0.61360 0.96430 0.64000 0.08900
H 	H 	0.65120 0.94200 0.64880 0.00500
C 	C 	0.31400 0.59680 0.60637 -0.17000
C 	C 	0.16260 0.42900 0.47140 0.11400
H 	H 	0.12650 0.46280 0.46400 -0.00700
C 	C 	0.36430 0.67260 0.61097 0.08700
C 	C 	0.50370 0.02550 0.61280 -0.17800
H 	H 	0.46740 0.04710 0.60300 0.09400
C 	C 	0.99070 0.33390 0.37040 0.09100
H 	H 	0.96820 0.38670 0.36120 0.02600
C 	C 	0.05890 0.18040 0.39890 -0.21500
H 	H 	0.08130 0.12750 0.40810 0.13300
C 	C 	0.53200 0.09610 0.62990 0.07000
H 	H 	0.51390 0.16240 0.63280 0.02800
C 	C 	0.06130 0.28520 0.40700 0.21800
C 	C 	0.26500 0.33730 0.49410 -0.20200
H 	H 	0.29710 0.30320 0.50410 0.10300
C 	C 	0.17430 0.32760 0.46450 -0.13100
C 	C 	0.20050 0.48300 0.48830 -0.23300
H 	H 	0.18900 0.55140 0.49280 0.10500
C 	C 	0.03110 0.35840 0.39250 -0.21700
H 	H 	0.03650 0.42980 0.39700 0.11300
C 	C 	0.84870 0.37920 0.79520 -11.80100
In	In	0.87053 0.12675 0.30228 7.36500
In	In	0.38881 0.81330 0.05366 1.91500
O 	O 	0.94470 0.17370 0.27654 -0.02200
O 	O 	0.81660 0.27320 0.28424 0.59700
O 	O 	0.79520 0.36260 0.82954 0.30000
O 	O 	0.92780 0.00330 0.28106 0.15300
O 	O 	0.82290 0.52200 0.81858 0.36900
O 	O 	0.94130 0.39960 0.83479 -0.36200
O 	O 	0.79900 0.11550 0.26791 1.80900
O 	O 	0.91640 0.23450 0.82699 -0.26800
O 	O 	0.63660 0.78740 0.90297 -0.25400
O 	O 	0.17760 0.16220 0.19130 -0.19800
O 	O 	0.61310 0.25880 0.15810 -0.22700
O 	O 	0.13260 0.33400 0.94600 -0.24300
N 	N 	0.47210 0.72400 0.04888 -0.39200
N 	N 	0.39380 0.87820 0.01716 -0.38500
N 	N 	0.31950 0.93160 0.06050 -0.37800
N 	N 	0.39820 0.77920 0.09301 -0.38700
N 	N 	0.64870 0.40250 0.18310 -0.25200
H 	H 	0.64680 0.47090 0.18410 0.14400
N 	N 	0.65520 0.61470 0.91310 -0.24800
H 	H 	0.65350 0.56810 0.92500 0.11200
N 	N 	0.14530 0.99930 0.20220 -0.28200
H 	H 	0.15470 0.93270 0.20080 0.18100
N 	N 	0.10020 0.17680 0.92790 -0.26000
H 	H 	0.12590 0.13070 0.92230 0.13200
C 	C 	0.95410 0.07860 0.27174 0.29700
C 	C 	0.59900 0.71700 0.94200 -0.13500
C 	C 	0.44040 0.71300 0.10423 0.09400
C 	C 	0.68600 0.58650 0.89120 0.15000
C 	C 	0.78980 0.21450 0.26659 0.04700
C 	C 	0.23200 0.22400 0.97510 0.07700
H 	H 	0.24580 0.29020 0.96990 0.01000
C 	C 	0.79210 0.46190 0.83159 0.23200
C 	C 	0.29230 0.94970 0.08320 0.08200
C 	C 	0.43880 0.84840 0.00030 0.07800
C 	C 	0.09700 0.02140 0.21930 0.26700
C 	C 	0.48620 0.77410 0.00480 -0.18100
C 	C 	0.50310 0.66400 0.06711 0.08500
C 	C 	0.62880 0.71250 0.91640 0.25000
C 	C 	0.94680 0.30250 0.84090 0.28600
C 	C 	0.43530 0.71750 0.13123 -0.07700
H 	H 	0.45990 0.68010 0.14360 0.07600
C 	C 	0.35000 0.94530 0.00590 0.08100
C 	C 	0.03600 0.14350 0.24250 0.11400
H 	H 	0.02320 0.21300 0.24570 0.03900
C 	C 	0.28130 0.94220 0.12870 0.12400
C 	C 	0.55660 0.61060 0.05660 -0.08300
H 	H 	0.58500 0.56240 0.06460 0.06100
C 	C 	0.24160 0.87680 0.14070 -0.11700
H 	H 	0.23650 0.80640 0.13530 0.09000
C 	C 	0.55600 0.64670 0.03220 -0.08900
H 	H 	0.58510 0.62860 0.02060 0.05600
C 	C 	0.55930 0.83850 0.97220 -0.19700
H 	H 	0.55890 0.90620 0.97940 0.08500
C 	C 	0.71950 0.44040 0.86560 0.02000
H 	H 	0.71920 0.36780 0.86190 0.04600
C 	C 	0.06880 0.93630 0.23040 -0.26800
H 	H 	0.08010 0.86640 0.22670 0.21100
C 	C 	0.28950 0.04280 0.13750 -0.15300
H 	H 	0.31760 0.08800 0.13000 0.10600
C 	C 	0.25740 0.08020 0.15720 0.05200
H 	H 	0.26450 0.15000 0.16280 0.04300
C 	C 	0.02300 0.95740 0.24720 0.12800
H 	H 	0.00220 0.90020 0.25410 0.03300
C 	C 	0.28450 0.98740 0.04200 0.08200
C 	C 	0.52720 0.57810 0.10942 0.14600
C 	C 	0.29910 0.99640 0.01620 -0.19000
C 	C 	0.20840 0.91180 0.16080 0.01500
H 	H 	0.18190 0.86540 0.16880 0.10600
C 	C 	0.74270 0.37110 0.24330 0.03400
H 	H 	0.76100 0.41650 0.25570 0.04100
C 	C 	0.21550 0.01730 0.16880 -0.07000
C 	C 	0.36930 0.95920 0.97920 -0.07300
H 	H 	0.34880 0.00250 0.96690 0.05400
C 	C 	0.17830 0.06500 0.18910 0.25900
C 	C 	0.23920 0.01990 0.07800 -0.07100
H 	H 	0.21300 0.04660 0.08980 0.06400
C 	C 	0.08430 0.12600 0.22620 -0.23000
H 	H 	0.10710 0.18290 0.22020 0.17900
C 	C 	0.41870 0.90150 0.97650 -0.08300
H 	H 	0.43870 0.89450 0.96160 0.05300
C 	C 	0.00720 0.05850 0.25390 -0.07700
C 	C 	0.98690 0.27250 0.86340 -0.11100
C 	C 	0.75070 0.26050 0.24580 0.01600
C 	C 	0.68010 0.34870 0.20400 0.19000
C 	C 	0.75300 0.61320 0.85710 0.02000
H 	H 	0.77580 0.66030 0.84770 0.06300
C 	C 	0.70770 0.41360 0.22230 -0.16300
H 	H 	0.70300 0.48730 0.22080 0.10400
C 	C 	0.75430 0.50900 0.85130 -0.00800
C 	C 	0.59130 0.43700 0.14350 -0.10300
C 	C 	0.71920 0.65590 0.87680 -0.13900
H 	H 	0.71930 0.72900 0.88000 0.10200
C 	C 	0.23330 0.04070 0.05330 -0.08000
H 	H 	0.20160 0.08220 0.04490 0.06300
C 	C 	0.68550 0.47600 0.88520 -0.14000
H 	H 	0.66250 0.42820 0.89430 0.06000
C 	C 	0.25420 0.05960 0.99910 0.18700
C 	C 	0.71960 0.19730 0.22750 0.02300
H 	H 	0.72240 0.12340 0.22910 0.04400
C 	C 	0.59160 0.82070 0.95150 0.08000
H 	H 	0.60910 0.87820 0.94340 -0.00900
C 	C 	0.61920 0.35540 0.16190 0.24200
C 	C 	0.56560 0.63790 0.95140 0.08000
H 	H 	0.56520 0.57120 0.94370 -0.01800
C 	C 	0.02220 0.34490 0.87670 0.10200
H 	H 	0.02230 0.41510 0.87100 0.03100
C 	C 	0.53100 0.65290 0.97265 -0.19300
H 	H 	0.51130 0.59530 0.97990 0.08800
C 	C 	0.58050 0.60530 0.12300 -0.18000
H 	H 	0.59650 0.67390 0.12120 0.09800
C 	C 	0.52670 0.75390 0.98255 0.14700
C 	C 	0.13660 0.23700 0.94460 0.24600
C 	C 	0.50260 0.71700 0.02770 0.08900
C 	C 	0.48910 0.65630 0.09260 -0.18400
C 	C 	0.68430 0.24000 0.20660 -0.15600
H 	H 	0.66390 0.19520 0.19450 0.12300
C 	C 	0.38740 0.78770 0.13484 -0.08000
H 	H 	0.37250 0.80610 0.15030 0.08500
C 	C 	0.61360 0.53570 0.14000 0.07000
H 	H 	0.65120 0.55800 0.14880 0.01000
C 	C 	0.31400 0.90320 0.10637 -0.16400
C 	C 	0.16260 0.07100 0.97140 0.11700
H 	H 	0.12650 0.03720 0.96400 -0.00800
C 	C 	0.36430 0.82740 0.11097 0.08500
C 	C 	0.50370 0.47450 0.11280 -0.16100
H 	H 	0.46740 0.45290 0.10300 0.09000
C 	C 	0.99070 0.16610 0.87040 0.09200
H 	H 	0.96820 0.11330 0.86120 0.02500
C 	C 	0.05890 0.31960 0.89890 -0.21700
H 	H 	0.08130 0.37250 0.90810 0.13300
C 	C 	0.53200 0.40390 0.12990 0.05800
H 	H 	0.51390 0.33760 0.13280 0.03300
C 	C 	0.06130 0.21480 0.90700 0.21900
C 	C 	0.26500 0.16270 0.99410 -0.20400
H 	H 	0.29710 0.19680 0.00410 0.10400
C 	C 	0.17430 0.17240 0.96450 -0.13300
C 	C 	0.20050 0.01700 0.98830 -0.23700
H 	H 	0.18900 0.94860 0.99280 0.10700
C 	C 	0.03110 0.14160 0.89250 -0.21800
H 	H 	0.03650 0.07020 0.89700 0.11200
C 	C 	0.84870 0.12080 0.29520 -11.79700
In	In	0.12947 0.87325 0.69772 7.36500
In	In	0.61119 0.18670 0.94634 1.91500
O 	O 	0.05530 0.82630 0.72346 -0.02200
O 	O 	0.18340 0.72680 0.71576 0.59700
O 	O 	0.20480 0.63740 0.17046 0.30000
O 	O 	0.07220 0.99670 0.71894 0.15300
O 	O 	0.17710 0.47800 0.18142 0.36900
O 	O 	0.05870 0.60040 0.16521 -0.36200
O 	O 	0.20100 0.88450 0.73209 1.80900
O 	O 	0.08360 0.76550 0.17301 -0.26800
O 	O 	0.36340 0.21260 0.09703 -0.25400
O 	O 	0.82240 0.83780 0.80870 -0.19800
O 	O 	0.38690 0.74120 0.84190 -0.22700
O 	O 	0.86740 0.66600 0.05400 -0.24300
N 	N 	0.52790 0.27600 0.95112 -0.39200
N 	N 	0.60620 0.12180 0.98284 -0.38500
N 	N 	0.68050 0.06840 0.93950 -0.37800
N 	N 	0.60180 0.22080 0.90699 -0.38700
N 	N 	0.35130 0.59750 0.81690 -0.25200
H 	H 	0.35320 0.52910 0.81590 0.14400
N 	N 	0.34480 0.38530 0.08690 -0.24800
H 	H 	0.34650 0.43190 0.07500 0.11200
N 	N 	0.85470 0.00070 0.79780 -0.28200
H 	H 	0.84530 0.06730 0.79920 0.18100
N 	N 	0.89980 0.82320 0.07210 -0.26000
H 	H 	0.87410 0.86930 0.07770 0.13200
C 	C 	0.04590 0.92140 0.72826 0.29700
C 	C 	0.40100 0.28300 0.05800 -0.13500
C 	C 	0.55960 0.28700 0.89577 0.09400
C 	C 	0.31400 0.41350 0.10880 0.15000
C 	C 	0.21020 0.78550 0.73341 0.04700
C 	C 	0.76800 0.77600 0.02490 0.07700
H 	H 	0.75420 0.70980 0.03010 0.01000
C 	C 	0.20790 0.53810 0.16841 0.23200
C 	C 	0.70770 0.05030 0.91680 0.08200
C 	C 	0.56120 0.15160 0.99970 0.07800
C 	C 	0.90300 0.97860 0.78070 0.26700
C 	C 	0.51380 0.22590 0.99520 -0.18100
C 	C 	0.49690 0.33600 0.93289 0.08500
C 	C 	0.37120 0.28750 0.08360 0.25000
C 	C 	0.05320 0.69750 0.15910 0.28600
C 	C 	0.56470 0.28250 0.86877 -0.07700
H 	H 	0.54010 0.31990 0.85640 0.07600
C 	C 	0.65000 0.05470 0.99410 0.08100
C 	C 	0.96400 0.85650 0.75750 0.11400
H 	H 	0.97680 0.78700 0.75430 0.03900
C 	C 	0.71870 0.05780 0.87130 0.12400
C 	C 	0.44340 0.38940 0.94340 -0.08300
H 	H 	0.41500 0.43760 0.93540 0.06100
C 	C 	0.75840 0.12320 0.85930 -0.11700
H 	H 	0.76350 0.19360 0.86470 0.09000
C 	C 	0.44400 0.35330 0.96780 -0.08900
H 	H 	0.41490 0.37140 0.97940 0.05600
C 	C 	0.44070 0.16150 0.02780 -0.19700
H 	H 	0.44110 0.09380 0.02060 0.08500
C 	C 	0.28050 0.55960 0.13440 0.02000
H 	H 	0.28080 0.63220 0.13810 0.04600
C 	C 	0.93120 0.06370 0.76960 -0.26800
H 	H 	0.91990 0.13360 0.77330 0.21100
C 	C 	0.71050 0.95720 0.86250 -0.15300
H 	H 	0.68240 0.91200 0.87000 0.10600
C 	C 	0.74260 0.91980 0.84280 0.05200
H 	H 	0.73550 0.85000 0.83720 0.04300
C 	C 	0.97700 0.04260 0.75280 0.12800
H 	H 	0.99780 0.09980 0.74590 0.03300
C 	C 	0.71550 0.01260 0.95800 0.08200
C 	C 	0.47280 0.42190 0.89058 0.14600
C 	C 	0.70090 0.00360 0.98380 -0.19000
C 	C 	0.79160 0.08820 0.83920 0.01500
H 	H 	0.81810 0.13460 0.83120 0.10600
C 	C 	0.25730 0.62890 0.75670 0.03400
H 	H 	0.23900 0.58350 0.74430 0.04100
C 	C 	0.78450 0.98270 0.83120 -0.07000
C 	C 	0.63070 0.04080 0.02080 -0.07300
H 	H 	0.65120 0.99750 0.03310 0.05400
C 	C 	0.82170 0.93500 0.81090 0.25900
C 	C 	0.76080 0.98010 0.92200 -0.07100
H 	H 	0.78700 0.95340 0.91020 0.06400
C 	C 	0.91570 0.87400 0.77380 -0.23000
H 	H 	0.89290 0.81710 0.77980 0.17900
C 	C 	0.58130 0.09850 0.02350 -0.08300
H 	H 	0.56130 0.10550 0.03840 0.05300
C 	C 	0.99280 0.94150 0.74610 -0.07700
C 	C 	0.01310 0.72750 0.13660 -0.11100
C 	C 	0.24930 0.73950 0.75420 0.01600
C 	C 	0.31990 0.65130 0.79600 0.19000
C 	C 	0.24700 0.38680 0.14290 0.02000
H 	H 	0.22420 0.33970 0.15230 0.06300
C 	C 	0.29230 0.58640 0.77770 -0.16300
H 	H 	0.29700 0.51270 0.77920 0.10400
C 	C 	0.24570 0.49100 0.14870 -0.00800
C 	C 	0.40870 0.56300 0.85650 -0.10300
C 	C 	0.28080 0.34410 0.12320 -0.13900
H 	H 	0.28070 0.27100 0.12000 0.10200
C 	C 	0.76670 0.95930 0.94670 -0.08000
H 	H 	0.79840 0.91780 0.95510 0.06300
C 	C 	0.31450 0.52400 0.11480 -0.14000
H 	H 	0.33750 0.57180 0.10570 0.06000
C 	C 	0.74580 0.94040 0.00090 0.18700
C 	C 	0.28040 0.80270 0.77250 0.02300
H 	H 	0.27760 0.87660 0.77090 0.04400
C 	C 	0.40840 0.17930 0.04850 0.08000
H 	H 	0.39090 0.12180 0.05660 -0.00900
C 	C 	0.38080 0.64460 0.83810 0.24200
C 	C 	0.43440 0.36210 0.04860 0.08000
H 	H 	0.43480 0.42880 0.05630 -0.01800
C 	C 	0.97780 0.65510 0.12330 0.10200
H 	H 	0.97770 0.58490 0.12900 0.03100
C 	C 	0.46900 0.34710 0.02735 -0.19300
H 	H 	0.48870 0.40470 0.02010 0.08800
C 	C 	0.41950 0.39470 0.87700 -0.18000
H 	H 	0.40350 0.32610 0.87880 0.09800
C 	C 	0.47330 0.24610 0.01745 0.14700
C 	C 	0.86340 0.76300 0.05540 0.24600
C 	C 	0.49740 0.28300 0.97230 0.08900
C 	C 	0.51090 0.34370 0.90740 -0.18400
C 	C 	0.31570 0.76000 0.79340 -0.15600
H 	H 	0.33610 0.80480 0.80550 0.12300
C 	C 	0.61260 0.21230 0.86516 -0.08000
H 	H 	0.62750 0.19390 0.84970 0.08500
C 	C 	0.38640 0.46430 0.86000 0.07000
H 	H 	0.34880 0.44200 0.85120 0.01000
C 	C 	0.68600 0.09680 0.89363 -0.16400
C 	C 	0.83740 0.92900 0.02860 0.11700
H 	H 	0.87350 0.96280 0.03600 -0.00800
C 	C 	0.63570 0.17260 0.88903 0.08500
C 	C 	0.49630 0.52550 0.88720 -0.16100
H 	H 	0.53260 0.54710 0.89700 0.09000
C 	C 	0.00930 0.83390 0.12960 0.09200
H 	H 	0.03180 0.88670 0.13880 0.02500
C 	C 	0.94110 0.68040 0.10110 -0.21700
H 	H 	0.91870 0.62750 0.09190 0.13300
C 	C 	0.46800 0.59610 0.87010 0.05800
H 	H 	0.48610 0.66240 0.86720 0.03300
C 	C 	0.93870 0.78520 0.09300 0.21900
C 	C 	0.73500 0.83730 0.00590 -0.20400
H 	H 	0.70290 0.80320 0.99590 0.10400
C 	C 	0.82570 0.82760 0.03550 -0.13300
C 	C 	0.79950 0.98300 0.01170 -0.23700
H 	H 	0.81100 0.05140 0.00720 0.10700
C 	C 	0.96890 0.85840 0.10750 -0.21800
H 	H 	0.96350 0.92980 0.10300 0.11200
C 	C 	0.15130 0.87920 0.70480 -11.79700
In	In	0.12947 0.62675 0.19772 7.36700
In	In	0.61119 0.31330 0.44634 1.91500
O 	O 	0.05530 0.67370 0.22346 -0.02300
O 	O 	0.18340 0.77320 0.21576 0.59700
O 	O 	0.20480 0.86260 0.67046 0.29600
O 	O 	0.07220 0.50330 0.21894 0.15000
O 	O 	0.17710 0.02200 0.68142 0.35800
O 	O 	0.05870 0.89960 0.66521 -0.36000
O 	O 	0.20100 0.61550 0.23209 1.80800
O 	O 	0.08360 0.73450 0.67301 -0.26700
O 	O 	0.36340 0.28740 0.59703 -0.25500
O 	O 	0.82240 0.66220 0.30870 -0.19900
O 	O 	0.38690 0.75880 0.34190 -0.22900
O 	O 	0.86740 0.83400 0.55400 -0.24300
N 	N 	0.52790 0.22400 0.45112 -0.39300
N 	N 	0.60620 0.37820 0.48284 -0.38500
N 	N 	0.68050 0.43160 0.43950 -0.37900
N 	N 	0.60180 0.27920 0.40699 -0.38700
N 	N 	0.35130 0.90250 0.31690 -0.25300
H 	H 	0.35320 0.97090 0.31590 0.14300
N 	N 	0.34480 0.11470 0.58690 -0.24800
H 	H 	0.34650 0.06810 0.57500 0.11100
N 	N 	0.85470 0.49930 0.29780 -0.27600
H 	H 	0.84530 0.43270 0.29920 0.18100
N 	N 	0.89980 0.67680 0.57210 -0.26000
H 	H 	0.87410 0.63070 0.57770 0.13200
C 	C 	0.04590 0.57860 0.22826 0.29700
C 	C 	0.40100 0.21700 0.55800 -0.13600
C 	C 	0.55960 0.21300 0.39577 0.09600
C 	C 	0.31400 0.08650 0.60880 0.15100
C 	C 	0.21020 0.71450 0.23341 0.04700
C 	C 	0.76800 0.72400 0.52490 0.07600
H 	H 	0.75420 0.79020 0.53010 0.01000
C 	C 	0.20790 0.96190 0.66841 0.25100
C 	C 	0.70770 0.44970 0.41680 0.08700
C 	C 	0.56120 0.34840 0.49970 0.07700
C 	C 	0.90300 0.52140 0.28070 0.25500
C 	C 	0.51380 0.27410 0.49520 -0.18000
C 	C 	0.49690 0.16400 0.43289 0.08700
C 	C 	0.37120 0.21250 0.58360 0.25000
C 	C 	0.05320 0.80250 0.65910 0.28500
C 	C 	0.56470 0.21750 0.36877 -0.07700
H 	H 	0.54010 0.18010 0.35640 0.07700
C 	C 	0.65000 0.44530 0.49410 0.08200
C 	C 	0.96400 0.64350 0.25750 0.11200
H 	H 	0.97680 0.71300 0.25430 0.03900
C 	C 	0.71870 0.44220 0.37130 0.14100
C 	C 	0.44340 0.11060 0.44340 -0.08400
H 	H 	0.41500 0.06240 0.43540 0.06200
C 	C 	0.75840 0.37680 0.35930 -0.13100
H 	H 	0.76350 0.30640 0.36470 0.09500
C 	C 	0.44400 0.14670 0.46780 -0.08800
H 	H 	0.41490 0.12860 0.47940 0.05600
C 	C 	0.44070 0.33850 0.52780 -0.19700
H 	H 	0.44110 0.40620 0.52060 0.08500
C 	C 	0.28050 0.94040 0.63440 0.03700
H 	H 	0.28080 0.86780 0.63810 0.04000
C 	C 	0.93120 0.43630 0.26960 -0.25900
H 	H 	0.91990 0.36640 0.27330 0.20900
C 	C 	0.71050 0.54280 0.36250 -0.17300
H 	H 	0.68240 0.58800 0.37000 0.11200
C 	C 	0.74260 0.58020 0.34280 0.06600
H 	H 	0.73550 0.65000 0.33720 0.03700
C 	C 	0.97700 0.45740 0.25280 0.13100
H 	H 	0.99780 0.40020 0.24590 0.03300
C 	C 	0.71550 0.48740 0.45800 0.08300
C 	C 	0.47280 0.07810 0.39058 0.16000
C 	C 	0.70090 0.49640 0.48380 -0.19000
C 	C 	0.79160 0.41180 0.33920 0.03300
H 	H 	0.81810 0.36540 0.33120 0.10000
C 	C 	0.25730 0.87110 0.25670 0.03400
H 	H 	0.23900 0.91650 0.24430 0.04000
C 	C 	0.78450 0.51730 0.33120 -0.08500
C 	C 	0.63070 0.45920 0.52080 -0.07800
H 	H 	0.65120 0.50250 0.53310 0.05600
C 	C 	0.82170 0.56500 0.31090 0.25800
C 	C 	0.76080 0.51990 0.42200 -0.07700
H 	H 	0.78700 0.54660 0.41020 0.06500
C 	C 	0.91570 0.62600 0.27380 -0.22600
H 	H 	0.89290 0.68290 0.27980 0.17600
C 	C 	0.58130 0.40150 0.52350 -0.08000
H 	H 	0.56130 0.39450 0.53840 0.05100
C 	C 	0.99280 0.55850 0.24610 -0.08200
C 	C 	0.01310 0.77250 0.63660 -0.10900
C 	C 	0.24930 0.76050 0.25420 0.01500
C 	C 	0.31990 0.84870 0.29600 0.19000
C 	C 	0.24700 0.11320 0.64290 0.03200
H 	H 	0.22420 0.16030 0.65230 0.05800
C 	C 	0.29230 0.91360 0.27770 -0.16400
H 	H 	0.29700 0.98730 0.27920 0.10300
C 	C 	0.24570 0.00900 0.64870 -0.03000
C 	C 	0.40870 0.93700 0.35650 -0.11800
C 	C 	0.28080 0.15590 0.62320 -0.14600
H 	H 	0.28070 0.22900 0.62000 0.10400
C 	C 	0.76670 0.54070 0.44670 -0.07900
H 	H 	0.79840 0.58220 0.45510 0.06200
C 	C 	0.31450 0.97600 0.61480 -0.14400
H 	H 	0.33750 0.92820 0.60570 0.06200
C 	C 	0.74580 0.55960 0.50090 0.18500
C 	C 	0.28040 0.69730 0.27250 0.02300
H 	H 	0.27760 0.62340 0.27090 0.04300
C 	C 	0.40840 0.32070 0.54850 0.08000
H 	H 	0.39090 0.37820 0.55660 -0.01000
C 	C 	0.38080 0.85540 0.33810 0.24500
C 	C 	0.43440 0.13790 0.54860 0.08000
H 	H 	0.43480 0.07120 0.55630 -0.01900
C 	C 	0.97780 0.84490 0.62330 0.10100
H 	H 	0.97770 0.91510 0.62900 0.03200
C 	C 	0.46900 0.15290 0.52735 -0.19300
H 	H 	0.48870 0.09530 0.52010 0.08800
C 	C 	0.41950 0.10530 0.37700 -0.19400
H 	H 	0.40350 0.17390 0.37880 0.10300
C 	C 	0.47330 0.25390 0.51745 0.14700
C 	C 	0.86340 0.73700 0.55540 0.24600
C 	C 	0.49740 0.21700 0.47230 0.08900
C 	C 	0.51090 0.15630 0.40740 -0.18900
C 	C 	0.31570 0.74000 0.29340 -0.15600
H 	H 	0.33610 0.69520 0.30550 0.12200
C 	C 	0.61260 0.28770 0.36516 -0.08100
H 	H 	0.62750 0.30610 0.34970 0.08700
C 	C 	0.38640 0.03570 0.36000 0.08900
H 	H 	0.34880 0.05800 0.35120 0.00500
C 	C 	0.68600 0.40320 0.39363 -0.17000
C 	C 	0.83740 0.57100 0.52860 0.11400
H 	H 	0.87350 0.53720 0.53600 -0.00700
C 	C 	0.63570 0.32740 0.38903 0.08700
C 	C 	0.49630 0.97450 0.38720 -0.17800
H 	H 	0.53260 0.95290 0.39700 0.09400
C 	C 	0.00930 0.66610 0.62960 0.09100
H 	H 	0.03180 0.61330 0.63880 0.02600
C 	C 	0.94110 0.81960 0.60110 -0.21500
H 	H 	0.91870 0.87250 0.59190 0.13300
C 	C 	0.46800 0.90390 0.37010 0.07000
H 	H 	0.48610 0.83760 0.36720 0.02800
C 	C 	0.93870 0.71480 0.59300 0.21800
C 	C 	0.73500 0.66270 0.50590 -0.20200
H 	H 	0.70290 0.69680 0.49590 0.10300
C 	C 	0.82570 0.67240 0.53550 -0.13100
C 	C 	0.79950 0.51700 0.51170 -0.23300
H 	H 	0.81100 0.44860 0.50720 0.10500
C 	C 	0.96890 0.64160 0.60750 -0.21700
H 	H 	0.96350 0.57020 0.60300 0.11300
C 	C 	0.15130 0.62080 0.20480 -11.80100
