data_crystal

_cell_length_a 13.73680
_cell_length_b 8.87370
_cell_length_c 7.98390
_cell_angle_alpha 90.00000
_cell_angle_beta  120.81500
_cell_angle_gamma 90.00000

_symmetry_space_group_name_	'P 1'
_symmetry_space_group_name_H-M	'P 1'

loop_
_symmetry_equiv_pos_as_xyz
  x,y,z

loop_
_atom_site_label
_atom_site_type_symbol
_atom_site_fract_x
_atom_site_fract_y
_atom_site_fract_z
_atom_site_charge
C 	C 	0.49650 0.15940 0.66200 -0.20600
N 	N 	0.49440 0.25910 0.75220 -0.08300
C 	C 	0.99650 0.65940 0.66200 -0.07800
N 	N 	0.99440 0.75910 0.75220 -0.03400
C 	C 	0.50350 0.15940 0.33800 -0.23000
N 	N 	0.50560 0.25910 0.24780 -0.11600
C 	C 	0.00350 0.65940 0.33800 -0.25900
N 	N 	0.00560 0.75910 0.24780 -0.11100
C 	C 	0.50350 0.84060 0.33800 -0.12300
N 	N 	0.50560 0.74090 0.24780 -0.11800
C 	C 	0.00350 0.34060 0.33800 -0.27900
N 	N 	0.00560 0.24090 0.24780 -0.15000
C 	C 	0.49650 0.84060 0.66200 -0.10000
N 	N 	0.49440 0.74090 0.75220 -0.08500
C 	C 	0.99650 0.34060 0.66200 -0.09700
N 	N 	0.99440 0.24090 0.75220 -0.07200
Fe	Fe	0.50000 0.00000 0.50000 1.13700
Fe	Fe	0.00000 0.50000 0.50000 1.10800
K 	K 	-0.00000 0.00000 -0.00000 0.57600
K 	K 	0.50000 0.50000 -0.00000 0.62200
N 	N 	0.76010 0.00000 0.75610 -0.08000
C 	C 	0.66300 -0.00000 0.65780 -0.23600
N 	N 	0.26010 0.50000 0.75610 -0.08200
C 	C 	0.16300 0.50000 0.65780 -0.23000
N 	N 	0.23990 0.00000 0.24390 -0.15100
C 	C 	0.33700 -0.00000 0.34220 -0.27400
N 	N 	0.73990 0.50000 0.24390 -0.11800
C 	C 	0.83700 0.50000 0.34220 -0.13100
