data_crystal

_cell_length_a 11.89950
_cell_length_b 15.53100
_cell_length_c 24.69200
_cell_angle_alpha 90.00000
_cell_angle_beta  90.17100
_cell_angle_gamma 90.00000

_symmetry_space_group_name_	'P 1'
_symmetry_space_group_name_H-M	'P 1'

loop_
_symmetry_equiv_pos_as_xyz
  x,y,z

loop_
_atom_site_label
_atom_site_type_symbol
_atom_site_fract_x
_atom_site_fract_y
_atom_site_fract_z
_atom_site_charge
Ag	Ag	0.63925 0.25121 0.85382 0.30500
Ag	Ag	0.43024 0.34054 0.87497 0.28000
Ag	Ag	0.62458 0.11062 0.95467 0.27900
Ag	Ag	0.43982 0.14930 0.86144 0.33600
Ag	Ag	0.36427 0.25219 0.13776 0.29200
Ag	Ag	0.56809 0.15658 0.12521 0.27700
Ag	Ag	0.38712 0.38893 0.04566 0.27200
Ag	Ag	0.57290 0.34539 0.13453 0.33700
C 	C 	0.52930 0.23370 0.92050 -0.50700
C 	C 	0.51810 0.24250 0.97000 -0.13700
C 	C 	0.49730 0.25610 0.02400 -0.13600
C 	C 	0.48470 0.26330 0.07360 -0.51000
N 	N 	0.51610 0.10210 0.74840 0.08000
O 	O 	0.54640 0.06320 0.70590 -0.39100
O 	O 	0.48450 0.05890 0.78820 -0.38700
O 	O 	0.51960 0.18070 0.74980 -0.39400
Ag	Ag	0.63925 0.24879 0.35382 0.30600
Ag	Ag	0.43024 0.15946 0.37497 0.28100
Ag	Ag	0.62458 0.38938 0.45467 0.28000
Ag	Ag	0.43982 0.35070 0.36144 0.33600
Ag	Ag	0.36427 0.24781 0.63776 0.29300
Ag	Ag	0.56809 0.34342 0.62521 0.27800
Ag	Ag	0.38712 0.11107 0.54566 0.27400
Ag	Ag	0.57290 0.15461 0.63453 0.33800
C 	C 	0.52930 0.26630 0.42050 -0.50700
C 	C 	0.51810 0.25750 0.47000 -0.13900
C 	C 	0.49730 0.24390 0.52400 -0.13400
C 	C 	0.48470 0.23670 0.57360 -0.51100
N 	N 	0.51610 0.39790 0.24840 0.08000
O 	O 	0.54640 0.43680 0.20590 -0.39200
O 	O 	0.48450 0.44110 0.28820 -0.38800
O 	O 	0.51960 0.31930 0.24980 -0.39400
Ag	Ag	0.13764 0.99791 0.85769 0.29800
Ag	Ag	0.92622 0.91106 0.87719 0.28000
Ag	Ag	0.12259 0.13975 0.95274 0.27600
Ag	Ag	0.94041 0.10210 0.86296 0.33500
C 	C 	0.02310 0.01680 0.92330 -0.50600
C 	C 	0.01110 0.01000 0.97280 -0.13700
Ag	Ag	0.86360 0.00303 0.64153 0.29800
Ag	Ag	0.06534 0.90508 0.62711 0.28000
Ag	Ag	0.88356 0.13841 0.54484 0.27600
Ag	Ag	0.07443 0.09393 0.63573 0.34100
C 	C 	0.98270 0.01240 0.57710 -0.50900
C 	C 	0.99100 0.00880 0.52720 -0.13900
N 	N 	0.01560 0.14800 0.74970 0.07400
O 	O 	0.98330 0.19240 0.78940 -0.38900
O 	O 	0.04570 0.18740 0.70700 -0.38800
O 	O 	0.01820 0.06840 0.75170 -0.39100
Ag	Ag	0.86236 0.00209 0.14231 0.29800
Ag	Ag	0.07378 0.08894 0.12281 0.28000
Ag	Ag	0.87741 0.86025 0.04726 0.27600
Ag	Ag	0.05959 0.89790 0.13704 0.33500
C 	C 	0.97690 0.98320 0.07670 -0.50600
C 	C 	0.98890 0.99000 0.02720 -0.13700
Ag	Ag	0.13640 0.99697 0.35847 0.29800
Ag	Ag	0.93466 0.09492 0.37289 0.28000
Ag	Ag	0.11644 0.86159 0.45516 0.27600
Ag	Ag	0.92557 0.90607 0.36427 0.34100
C 	C 	0.01730 0.98760 0.42290 -0.50900
C 	C 	0.00900 0.99120 0.47280 -0.13900
N 	N 	0.98440 0.85200 0.25030 0.07400
O 	O 	0.01670 0.80760 0.21060 -0.38900
O 	O 	0.95430 0.81260 0.29300 -0.38800
O 	O 	0.98180 0.93160 0.24830 -0.39100
Ag	Ag	0.13640 0.50303 0.85847 0.29900
Ag	Ag	0.93466 0.40508 0.87289 0.28000
Ag	Ag	0.11644 0.63841 0.95516 0.27700
Ag	Ag	0.92557 0.59393 0.86427 0.33900
C 	C 	0.01730 0.51240 0.92290 -0.50700
C 	C 	0.00900 0.50880 0.97280 -0.13800
N 	N 	0.98440 0.64800 0.75030 0.07300
O 	O 	0.01670 0.69240 0.71060 -0.38700
O 	O 	0.95430 0.68740 0.79300 -0.38800
O 	O 	0.98180 0.56840 0.74830 -0.39400
Ag	Ag	0.86236 0.49791 0.64231 0.30000
Ag	Ag	0.07378 0.41106 0.62281 0.28100
Ag	Ag	0.87741 0.63975 0.54726 0.27600
Ag	Ag	0.05959 0.60210 0.63704 0.33600
C 	C 	0.97690 0.51680 0.57670 -0.50900
C 	C 	0.98890 0.51000 0.52720 -0.13800
Ag	Ag	0.86360 0.49697 0.14153 0.29900
Ag	Ag	0.06534 0.59492 0.12711 0.28000
Ag	Ag	0.88356 0.36159 0.04484 0.27700
Ag	Ag	0.07443 0.40607 0.13573 0.33900
C 	C 	0.98270 0.48760 0.07710 -0.50700
C 	C 	0.99100 0.49120 0.02720 -0.13800
N 	N 	0.01560 0.35200 0.24970 0.07300
O 	O 	0.98330 0.30760 0.28940 -0.38700
O 	O 	0.04570 0.31260 0.20700 -0.38800
O 	O 	0.01820 0.43160 0.25170 -0.39400
Ag	Ag	0.13764 0.50209 0.35769 0.30000
Ag	Ag	0.92622 0.58894 0.37719 0.28100
Ag	Ag	0.12259 0.36025 0.45274 0.27600
Ag	Ag	0.94041 0.39790 0.36296 0.33600
C 	C 	0.02310 0.48320 0.42330 -0.50900
C 	C 	0.01110 0.49000 0.47280 -0.13800
Ag	Ag	0.36075 0.75121 0.64618 0.30600
Ag	Ag	0.56976 0.84054 0.62503 0.28100
Ag	Ag	0.37542 0.61062 0.54533 0.28000
Ag	Ag	0.56018 0.64930 0.63856 0.33600
Ag	Ag	0.63573 0.75219 0.36224 0.29300
Ag	Ag	0.43191 0.65658 0.37479 0.27800
Ag	Ag	0.61288 0.88893 0.45434 0.27400
Ag	Ag	0.42710 0.84539 0.36547 0.33800
C 	C 	0.47070 0.73370 0.57950 -0.50700
C 	C 	0.48190 0.74250 0.53000 -0.13900
C 	C 	0.50270 0.75610 0.47600 -0.13400
C 	C 	0.51530 0.76330 0.42640 -0.51100
N 	N 	0.48390 0.60210 0.75160 0.08000
O 	O 	0.45360 0.56320 0.79410 -0.39200
O 	O 	0.51550 0.55890 0.71180 -0.38800
O 	O 	0.48040 0.68070 0.75020 -0.39400
Ag	Ag	0.36075 0.74879 0.14618 0.30600
Ag	Ag	0.56976 0.65946 0.12503 0.28100
Ag	Ag	0.37542 0.88938 0.04533 0.28000
Ag	Ag	0.56018 0.85070 0.13856 0.33700
Ag	Ag	0.63573 0.74781 0.86224 0.29300
Ag	Ag	0.43191 0.84342 0.87479 0.27800
Ag	Ag	0.61288 0.61107 0.95434 0.27300
Ag	Ag	0.42710 0.65461 0.86547 0.33800
C 	C 	0.47070 0.76630 0.07950 -0.50700
C 	C 	0.48190 0.75750 0.03000 -0.13700
C 	C 	0.50270 0.74390 0.97600 -0.13600
C 	C 	0.51530 0.73670 0.92640 -0.51000
N 	N 	0.48390 0.89790 0.25160 0.08000
O 	O 	0.45360 0.93680 0.29410 -0.39100
O 	O 	0.51550 0.94110 0.21180 -0.38700
O 	O 	0.48040 0.81930 0.25020 -0.39400
