data_crystal

_cell_length_a 10.01440
_cell_length_b 10.12600
_cell_length_c 20.43630
_cell_angle_alpha 90.00000
_cell_angle_beta  90.00000
_cell_angle_gamma 90.00000

_symmetry_space_group_name_	'P 1'
_symmetry_space_group_name_H-M	'P 1'

loop_
_symmetry_equiv_pos_as_xyz
  x,y,z

loop_
_atom_site_label
_atom_site_type_symbol
_atom_site_fract_x
_atom_site_fract_y
_atom_site_fract_z
_atom_site_charge
C 	C 	0.67180 0.02590 0.13500 -0.34200
H 	H 	0.63410 0.09100 0.10400 0.11200
H 	H 	0.59650 0.98320 0.15820 0.11300
Ag	Ag	0.00538 0.23204 0.27250 0.54600
Ag	Ag	0.50964 0.23417 0.52165 0.54600
N 	N 	0.58830 0.38290 0.44730 -0.21600
C 	C 	0.73100 0.54600 0.38030 -0.32900
H 	H 	0.76700 0.61540 0.40940 0.11000
H 	H 	0.67500 0.58880 0.34640 0.10800
C 	C 	0.65300 0.45480 0.41710 0.14300
N 	N 	0.11230 0.06490 0.32030 -0.22500
N 	N 	0.42000 0.06900 0.45980 -0.21300
C 	C 	0.84360 0.47190 0.34840 0.13400
C 	C 	0.29080 0.45710 0.11720 -0.32800
H 	H 	0.36890 0.48930 0.14220 0.11000
H 	H 	0.32350 0.40330 0.08000 0.10700
C 	C 	0.74570 0.92640 0.09870 0.14500
C 	C 	0.29350 0.91860 0.37600 -0.31700
H 	H 	0.25160 0.84160 0.39770 0.10600
H 	H 	0.35740 0.88580 0.34270 0.10400
C 	C 	0.20350 0.37620 0.15990 0.14500
C 	C 	0.36300 0.00020 0.42420 0.12900
C 	C 	0.19070 0.00090 0.34470 0.13700
C 	C 	0.75410 0.09370 0.18180 0.15300
C 	C 	0.21210 0.56970 0.09280 0.13900
N 	N 	0.13840 0.31240 0.19030 -0.22100
N 	N 	0.92390 0.41050 0.32500 -0.22400
N 	N 	0.82120 0.14740 0.21700 -0.21900
N 	N 	0.80960 0.85100 0.07230 -0.22700
N 	N 	0.15500 0.65850 0.07440 -0.22500
C 	C 	0.82820 0.97410 0.63500 -0.35400
H 	H 	0.86590 0.90900 0.60400 0.11400
H 	H 	0.90350 0.01680 0.65820 0.11700
Ag	Ag	0.49462 0.76796 0.77250 0.54600
Ag	Ag	0.99036 0.76583 0.02165 0.54600
N 	N 	0.91170 0.61710 0.94730 -0.21600
C 	C 	0.76900 0.45400 0.88030 -0.32900
H 	H 	0.73300 0.38460 0.90940 0.11000
H 	H 	0.82500 0.41120 0.84640 0.10800
C 	C 	0.84700 0.54520 0.91710 0.14300
N 	N 	0.38770 0.93510 0.82030 -0.22500
N 	N 	0.08000 0.93100 0.95980 -0.21400
C 	C 	0.65640 0.52810 0.84840 0.13400
C 	C 	0.20920 0.54290 0.61720 -0.32800
H 	H 	0.13110 0.51070 0.64220 0.10900
H 	H 	0.17650 0.59670 0.58000 0.10700
C 	C 	0.75430 0.07360 0.59870 0.15100
C 	C 	0.20650 0.08140 0.87600 -0.32500
H 	H 	0.24840 0.15840 0.89770 0.10700
H 	H 	0.14260 0.11420 0.84270 0.10600
C 	C 	0.29650 0.62380 0.65990 0.14500
C 	C 	0.13700 0.99980 0.92420 0.13300
C 	C 	0.30930 0.99910 0.84470 0.14100
C 	C 	0.74590 0.90630 0.68180 0.15500
C 	C 	0.28790 0.43030 0.59280 0.13900
N 	N 	0.36160 0.68760 0.69030 -0.22100
N 	N 	0.57610 0.58950 0.82500 -0.22500
N 	N 	0.67880 0.85260 0.71700 -0.22000
N 	N 	0.69040 0.14900 0.57230 -0.22800
N 	N 	0.34500 0.34150 0.57440 -0.22600
C 	C 	0.32820 0.52590 0.36500 -0.34800
H 	H 	0.36590 0.59100 0.39600 0.11300
H 	H 	0.40350 0.48320 0.34180 0.11400
Ag	Ag	0.99462 0.73204 0.22750 0.54600
Ag	Ag	0.49036 0.73417 0.97835 0.54600
N 	N 	0.41170 0.88290 0.05270 -0.21600
C 	C 	0.26900 0.04600 0.11970 -0.33100
H 	H 	0.23300 0.11540 0.09060 0.11100
H 	H 	0.32500 0.08880 0.15360 0.10800
C 	C 	0.34700 0.95480 0.08290 0.14400
N 	N 	0.88770 0.56490 0.17970 -0.22500
N 	N 	0.58000 0.56900 0.04020 -0.21300
C 	C 	0.15640 0.97190 0.15160 0.13500
C 	C 	0.70920 0.95710 0.38280 -0.32900
H 	H 	0.63110 0.98930 0.35780 0.11000
H 	H 	0.67650 0.90330 0.42000 0.10800
C 	C 	0.25430 0.42640 0.40130 0.14900
C 	C 	0.70650 0.41860 0.12400 -0.32100
H 	H 	0.74840 0.34160 0.10230 0.10700
H 	H 	0.64260 0.38580 0.15730 0.10500
C 	C 	0.79650 0.87620 0.34010 0.14500
C 	C 	0.63700 0.50020 0.07580 0.13100
C 	C 	0.80930 0.50090 0.15530 0.13900
C 	C 	0.24590 0.59370 0.31820 0.15400
C 	C 	0.78790 0.06970 0.40720 0.14000
N 	N 	0.86160 0.81240 0.30970 -0.22100
N 	N 	0.07610 0.91050 0.17500 -0.22400
N 	N 	0.17880 0.64740 0.28300 -0.21900
N 	N 	0.19040 0.35100 0.42770 -0.22800
N 	N 	0.84500 0.15850 0.42560 -0.22500
C 	C 	0.17180 0.47410 0.86500 -0.34800
H 	H 	0.13410 0.40900 0.89600 0.11200
H 	H 	0.09650 0.51680 0.84180 0.11400
Ag	Ag	0.50538 0.26796 0.72750 0.54600
Ag	Ag	0.00964 0.26583 0.47835 0.54600
N 	N 	0.08830 0.11710 0.55270 -0.21600
C 	C 	0.23100 0.95400 0.61970 -0.32300
H 	H 	0.26700 0.88460 0.59060 0.10900
H 	H 	0.17500 0.91120 0.65360 0.10700
C 	C 	0.15300 0.04520 0.58290 0.13900
N 	N 	0.61230 0.43510 0.67970 -0.22500
N 	N 	0.92000 0.43100 0.54020 -0.21300
C 	C 	0.34360 0.02810 0.65160 0.13100
C 	C 	0.79080 0.04290 0.88280 -0.32700
H 	H 	0.86890 0.01070 0.85780 0.11000
H 	H 	0.82350 0.09670 0.92000 0.10700
C 	C 	0.24570 0.57360 0.90130 0.14800
C 	C 	0.79350 0.58140 0.62400 -0.32100
H 	H 	0.75160 0.65840 0.60230 0.10600
H 	H 	0.85740 0.61420 0.65730 0.10500
C 	C 	0.70350 0.12380 0.84010 0.14500
C 	C 	0.86300 0.49980 0.57580 0.13100
C 	C 	0.69070 0.49910 0.65530 0.13900
C 	C 	0.25410 0.40630 0.81820 0.15300
C 	C 	0.71210 0.93030 0.90720 0.13700
N 	N 	0.63840 0.18760 0.80970 -0.22100
N 	N 	0.42390 0.08950 0.67500 -0.22400
N 	N 	0.32120 0.35260 0.78300 -0.22000
N 	N 	0.30960 0.64900 0.92770 -0.22800
N 	N 	0.65500 0.84150 0.92560 -0.22500
