data_crystal

_cell_length_a 21.62120
_cell_length_b 22.55020
_cell_length_c 26.21540
_cell_angle_alpha 115.47400
_cell_angle_beta  114.35400
_cell_angle_gamma 90.00000

_symmetry_space_group_name_	'P 1'
_symmetry_space_group_name_H-M	'P 1'

loop_
_symmetry_equiv_pos_as_xyz
  x,y,z

loop_
_atom_site_label
_atom_site_type_symbol
_atom_site_fract_x
_atom_site_fract_y
_atom_site_fract_z
_atom_site_charge
Zn	Zn	0.81288 0.75565 0.39018 1.22000
Zn	Zn	0.86578 0.69057 0.60536 1.22300
Zn	Zn	0.94823 0.64059 0.10040 1.21800
Zn	Zn	0.57730 0.63453 0.39018 1.21900
Zn	Zn	0.73958 0.91479 0.60536 1.22200
Zn	Zn	0.15217 0.45981 0.10040 1.21800
Zn	Zn	0.18712 0.36547 0.60982 1.21900
Zn	Zn	0.13422 0.08521 0.39464 1.22200
Zn	Zn	0.05177 0.54019 0.89960 1.21800
Zn	Zn	0.42270 0.24435 0.60982 1.21900
Zn	Zn	0.26042 0.30943 0.39464 1.22200
Zn	Zn	0.84783 0.35941 0.89960 1.21800
Mo	Mo	0.70238 0.60528 0.33466 1.08900
Mo	Mo	0.72242 0.56724 0.45324 1.05000
Mo	Mo	0.86866 0.64468 0.45442 1.03800
Mo	Mo	0.93708 0.76687 0.54218 1.04500
Mo	Mo	0.89528 0.86386 0.66072 1.08300
Mo	Mo	0.68486 0.63526 0.54132 1.06100
Mo	Mo	0.12695 0.62500 0.16312 1.09100
Mo	Mo	0.06740 0.67541 0.04628 1.05600
Mo	Mo	0.86844 0.47618 0.05110 1.09300
Mo	Mo	0.63228 0.72938 0.33466 1.08900
Mo	Mo	0.73082 0.88600 0.45324 1.05000
Mo	Mo	0.58576 0.80974 0.45442 1.03800
Mo	Mo	0.60510 0.77531 0.54218 1.04500
Mo	Mo	0.76544 0.79686 0.66072 1.08300
Mo	Mo	0.85646 0.90606 0.54132 1.06100
Mo	Mo	0.03617 0.53812 0.16312 1.09100
Mo	Mo	0.97888 0.37087 0.04628 1.05400
Mo	Mo	0.18266 0.57492 0.05110 1.09400
Mo	Mo	0.29762 0.27062 0.66534 1.08900
Mo	Mo	0.27758 0.11400 0.54676 1.05000
Mo	Mo	0.13134 0.19026 0.54558 1.03800
Mo	Mo	0.06292 0.22469 0.45782 1.04500
Mo	Mo	0.10472 0.20314 0.33928 1.08300
Mo	Mo	0.31514 0.09394 0.45868 1.06100
Mo	Mo	0.87305 0.46188 0.83688 1.09100
Mo	Mo	0.93260 0.62913 0.95372 1.05600
Mo	Mo	0.13156 0.42508 0.94890 1.09300
Mo	Mo	0.36772 0.39472 0.66534 1.08900
Mo	Mo	0.26918 0.43276 0.54676 1.05000
Mo	Mo	0.41424 0.35532 0.54558 1.03800
Mo	Mo	0.39490 0.23313 0.45782 1.04500
Mo	Mo	0.23456 0.13614 0.33928 1.08300
Mo	Mo	0.14354 0.36474 0.45868 1.06100
Mo	Mo	0.96383 0.37500 0.83688 1.09100
Mo	Mo	0.02112 0.32459 0.95372 1.05400
Mo	Mo	0.81734 0.52382 0.94890 1.09400
H 	H 	0.01060 0.91990 0.42360 -0.01000
H 	H 	0.03720 0.86870 0.27420 -0.02300
H 	H 	0.91400 0.73700 0.26620 -0.00900
H 	H 	0.41300 0.50370 0.42360 -0.01200
H 	H 	0.23700 0.40550 0.27420 -0.02300
H 	H 	0.35220 0.52920 0.26620 -0.00900
H 	H 	0.98940 0.49630 0.57640 -0.01100
H 	H 	0.96280 0.59450 0.72580 -0.02300
H 	H 	0.08600 0.47080 0.73380 -0.00900
H 	H 	0.58700 0.08010 0.57640 -0.01200
H 	H 	0.76300 0.13130 0.72580 -0.02300
H 	H 	0.64780 0.26300 0.73380 -0.00900
C 	C 	0.95050 0.82820 0.34720 -0.21600
C 	C 	0.99700 0.89110 0.38080 0.14100
C 	C 	0.02021 0.90651 0.34722 -0.24800
C 	C 	0.00980 0.85910 0.29040 0.16600
C 	C 	0.96470 0.79850 0.25320 -0.22800
C 	C 	0.93910 0.78060 0.28500 0.12900
C 	C 	0.91448 0.81138 0.37816 0.43600
C 	C 	0.06540 0.97660 0.38220 0.46800
C 	C 	0.96360 0.75170 0.19540 0.33400
C 	C 	0.39670 0.51900 0.34720 -0.21700
C 	C 	0.38380 0.48970 0.38080 0.14500
C 	C 	0.32701 0.44071 0.34722 -0.25000
C 	C 	0.28060 0.43130 0.29040 0.16500
C 	C 	0.28850 0.45470 0.25320 -0.22800
C 	C 	0.34590 0.50440 0.28500 0.13000
C 	C 	0.46368 0.56678 0.37816 0.43600
C 	C 	0.31680 0.40560 0.38220 0.46800
C 	C 	0.23180 0.44370 0.19540 0.33600
C 	C 	0.04950 0.48100 0.65280 -0.21600
C 	C 	0.00300 0.51030 0.61920 0.14300
C 	C 	0.97979 0.55929 0.65278 -0.24900
C 	C 	0.99020 0.56870 0.70960 0.16600
C 	C 	0.03530 0.54530 0.74680 -0.22800
C 	C 	0.06090 0.49560 0.71500 0.13000
C 	C 	0.08552 0.43322 0.62184 0.43600
C 	C 	0.93460 0.59440 0.61780 0.46700
C 	C 	0.03640 0.55630 0.80460 0.33500
C 	C 	0.60330 0.17180 0.65280 -0.21700
C 	C 	0.61620 0.10890 0.61920 0.14500
C 	C 	0.67299 0.09349 0.65278 -0.25100
C 	C 	0.71940 0.14090 0.70960 0.16600
C 	C 	0.71150 0.20150 0.74680 -0.22800
C 	C 	0.65410 0.21940 0.71500 0.13000
C 	C 	0.53632 0.18862 0.62184 0.43600
C 	C 	0.68320 0.02340 0.61780 0.46900
C 	C 	0.76820 0.24830 0.80460 0.33600
O 	O 	0.79696 0.60726 0.36312 -0.58900
O 	O 	0.68344 0.54854 0.36228 -0.60000
O 	O 	0.72485 0.69405 0.34250 -0.72100
O 	O 	0.63851 0.60231 0.44942 -0.71700
O 	O 	0.77304 0.62497 0.54388 -0.73700
O 	O 	0.81977 0.56687 0.45694 -0.48400
O 	O 	0.87951 0.72949 0.45102 -0.73200
O 	O 	0.90147 0.69197 0.54854 -0.71700
O 	O 	0.95653 0.81583 0.63226 -0.58400
O 	O 	0.93689 0.85909 0.53778 -0.47600
O 	O 	0.73614 0.70544 0.62988 -0.60500
O 	O 	0.85504 0.77814 0.65248 -0.72300
O 	O 	0.85670 0.76620 0.34060 -0.49300
O 	O 	0.07339 0.99699 0.34738 -0.52100
O 	O 	0.03427 0.61197 0.14654 -0.73100
O 	O 	0.11140 0.69570 0.13580 -0.53000
O 	O 	0.20167 0.60637 0.13614 -0.57400
O 	O 	0.97915 0.65825 0.04610 -0.73400
O 	O 	0.87253 0.55973 0.04166 -0.71400
O 	O 	0.91550 0.69540 0.16400 -0.45300
O 	O 	0.00800 0.75310 0.17740 -0.39400
O 	O 	0.16193 0.65373 0.04946 -0.57400
O 	O 	0.93524 0.84334 0.43028 -0.39700
O 	O 	0.08855 0.00645 0.43570 -0.40600
O 	O 	0.56616 0.75586 0.36312 -0.58900
O 	O 	0.67884 0.81374 0.36228 -0.60000
O 	O 	0.61765 0.64845 0.34250 -0.72100
O 	O 	0.81091 0.84711 0.44942 -0.71700
O 	O 	0.77084 0.91891 0.54388 -0.73700
O 	O 	0.63717 0.89007 0.45694 -0.48400
O 	O 	0.57151 0.72153 0.45102 -0.73200
O 	O 	0.64707 0.85657 0.54854 -0.71700
O 	O 	0.67573 0.81643 0.63226 -0.58400
O 	O 	0.60089 0.67869 0.53778 -0.47600
O 	O 	0.89374 0.92444 0.62988 -0.60500
O 	O 	0.79744 0.87434 0.65248 -0.72300
O 	O 	0.48390 0.57440 0.34060 -0.49300
O 	O 	0.27399 0.35039 0.34738 -0.52100
O 	O 	0.11227 0.53457 0.14654 -0.73200
O 	O 	0.02440 0.44010 0.13580 -0.53000
O 	O 	0.93447 0.52977 0.13614 -0.57400
O 	O 	0.06695 0.38785 0.04610 -0.73200
O 	O 	0.16913 0.48193 0.04166 -0.71300
O 	O 	0.24850 0.46860 0.16400 -0.45300
O 	O 	0.16940 0.42430 0.17740 -0.39600
O 	O 	0.88753 0.39573 0.04946 -0.57500
O 	O 	0.49504 0.58694 0.43028 -0.39700
O 	O 	0.34715 0.42925 0.43570 -0.40500
O 	O 	0.20304 0.24414 0.63688 -0.58900
O 	O 	0.31656 0.18626 0.63772 -0.60000
O 	O 	0.27515 0.35155 0.65750 -0.72100
O 	O 	0.36149 0.15289 0.55058 -0.71700
O 	O 	0.22696 0.08109 0.45612 -0.73700
O 	O 	0.18023 0.10993 0.54306 -0.48400
O 	O 	0.12049 0.27847 0.54898 -0.73200
O 	O 	0.09853 0.14343 0.45146 -0.71700
O 	O 	0.04347 0.18357 0.36774 -0.58400
O 	O 	0.06311 0.32131 0.46222 -0.47600
O 	O 	0.26386 0.07556 0.37012 -0.60500
O 	O 	0.14496 0.12566 0.34752 -0.72300
O 	O 	0.14330 0.42560 0.65940 -0.49300
O 	O 	0.92661 0.64961 0.65262 -0.52100
O 	O 	0.96573 0.46543 0.85346 -0.73100
O 	O 	0.88860 0.55990 0.86420 -0.53000
O 	O 	0.79833 0.47023 0.86386 -0.57400
O 	O 	0.02085 0.61215 0.95390 -0.73400
O 	O 	0.12747 0.51807 0.95834 -0.71400
O 	O 	0.08450 0.53140 0.83600 -0.45300
O 	O 	0.99200 0.57570 0.82260 -0.39500
O 	O 	0.83807 0.60427 0.95054 -0.57400
O 	O 	0.06476 0.41306 0.56972 -0.39700
O 	O 	0.91145 0.57075 0.56430 -0.40500
O 	O 	0.43384 0.39274 0.63688 -0.58900
O 	O 	0.32116 0.45146 0.63772 -0.60000
O 	O 	0.38235 0.30595 0.65750 -0.72100
O 	O 	0.18909 0.39769 0.55058 -0.71700
O 	O 	0.22916 0.37503 0.45612 -0.73700
O 	O 	0.36283 0.43313 0.54306 -0.48400
O 	O 	0.42849 0.27051 0.54898 -0.73200
O 	O 	0.35293 0.30803 0.45146 -0.71700
O 	O 	0.32427 0.18417 0.36774 -0.58400
O 	O 	0.39911 0.14091 0.46222 -0.47600
O 	O 	0.10626 0.29456 0.37012 -0.60500
O 	O 	0.20256 0.22186 0.34752 -0.72200
O 	O 	0.51610 0.23380 0.65940 -0.49300
O 	O 	0.72601 0.00301 0.65262 -0.52100
O 	O 	0.88773 0.38803 0.85346 -0.73200
O 	O 	0.97560 0.30430 0.86420 -0.53000
O 	O 	0.06553 0.39363 0.86386 -0.57500
O 	O 	0.93305 0.34175 0.95390 -0.73100
O 	O 	0.83087 0.44027 0.95834 -0.71300
O 	O 	0.75150 0.30460 0.83600 -0.45300
O 	O 	0.83060 0.24690 0.82260 -0.39600
O 	O 	0.11247 0.34627 0.95054 -0.57500
O 	O 	0.50496 0.15666 0.56972 -0.39700
O 	O 	0.65285 0.99355 0.56430 -0.40600
