data_crystal

_cell_length_a 16.21400
_cell_length_b 24.15600
_cell_length_c 24.99200
_cell_angle_alpha 90.00000
_cell_angle_beta  90.00000
_cell_angle_gamma 90.00000

_symmetry_space_group_name_	'P 1'
_symmetry_space_group_name_H-M	'P 1'

loop_
_symmetry_equiv_pos_as_xyz
  x,y,z

loop_
_atom_site_label
_atom_site_type_symbol
_atom_site_fract_x
_atom_site_fract_y
_atom_site_fract_z
_atom_site_charge
Zn	Zn	0.82111 0.77128 0.51190 1.23500
Zn	Zn	0.82111 0.22872 0.48810 1.23500
Zn	Zn	0.67889 0.72872 0.01190 1.23300
Zn	Zn	0.67889 0.27128 0.98810 1.23300
Zn	Zn	0.17889 0.22872 0.48810 1.23300
Zn	Zn	0.17889 0.77128 0.51190 1.23300
Zn	Zn	0.32111 0.27128 0.98810 1.23100
Zn	Zn	0.32111 0.72872 0.01190 1.23100
Zn	Zn	-0.00000 0.02108 0.57203 1.19200
Zn	Zn	-0.00000 0.97892 0.42797 1.19200
Zn	Zn	0.50000 0.47892 0.07203 1.20400
Zn	Zn	0.50000 0.52108 0.92797 1.20400
Zn	Zn	0.50000 0.71933 0.79240 1.23400
Zn	Zn	0.50000 0.28067 0.20760 1.23400
Zn	Zn	0.00000 0.78067 0.29240 1.21800
Zn	Zn	-0.00000 0.21933 0.70760 1.21800
Mo	Mo	0.10803 0.90842 0.53799 1.06400
Mo	Mo	0.19071 0.90762 0.44787 1.07200
Mo	Mo	0.09852 0.09399 0.67598 1.12600
Mo	Mo	0.81225 0.78512 0.36592 1.08200
Mo	Mo	0.89081 0.69663 0.39691 1.08900
Mo	Mo	0.10803 0.09158 0.46201 1.06400
Mo	Mo	0.19071 0.09238 0.55213 1.07200
Mo	Mo	0.09852 0.90601 0.32402 1.12600
Mo	Mo	0.81225 0.21488 0.63408 1.08200
Mo	Mo	0.89081 0.30337 0.60309 1.08900
Mo	Mo	0.39197 0.59158 0.03799 1.06400
Mo	Mo	0.30929 0.59238 0.94787 1.07000
Mo	Mo	0.40148 0.40601 0.17598 1.12900
Mo	Mo	0.68775 0.71488 0.86592 1.08400
Mo	Mo	0.60919 0.80337 0.89691 1.07200
Mo	Mo	0.39197 0.40842 0.96201 1.06400
Mo	Mo	0.30929 0.40762 0.05213 1.07000
Mo	Mo	0.40148 0.59399 0.82402 1.12900
Mo	Mo	0.68775 0.28512 0.13408 1.08400
Mo	Mo	0.60919 0.19663 0.10309 1.07200
Mo	Mo	0.89197 0.09158 0.46201 1.08300
Mo	Mo	0.80929 0.09238 0.55213 1.07300
Mo	Mo	0.90148 0.90601 0.32402 1.15500
Mo	Mo	0.18775 0.21488 0.63408 1.08100
Mo	Mo	0.10919 0.30337 0.60309 1.06700
Mo	Mo	0.89197 0.90842 0.53799 1.08300
Mo	Mo	0.80929 0.90762 0.44787 1.07300
Mo	Mo	0.90148 0.09399 0.67598 1.15500
Mo	Mo	0.18775 0.78512 0.36592 1.08100
Mo	Mo	0.10919 0.69663 0.39691 1.06700
Mo	Mo	0.60803 0.40842 0.96201 1.06700
Mo	Mo	0.69071 0.40762 0.05213 1.07500
Mo	Mo	0.59852 0.59399 0.82402 1.13100
Mo	Mo	0.31225 0.28512 0.13408 1.07900
Mo	Mo	0.39081 0.19663 0.10309 1.06800
Mo	Mo	0.60803 0.59158 0.03799 1.06700
Mo	Mo	0.69071 0.59238 0.94787 1.07500
Mo	Mo	0.59852 0.40601 0.17598 1.13100
Mo	Mo	0.31225 0.71488 0.86592 1.07900
Mo	Mo	0.39081 0.80337 0.89691 1.06800
Mo	Mo	-0.00000 0.79692 0.58587 1.10200
Mo	Mo	-0.00000 0.68798 0.51411 1.09500
Mo	Mo	-0.00000 0.20308 0.41413 1.10200
Mo	Mo	-0.00000 0.31202 0.48589 1.09500
Mo	Mo	0.50000 0.70308 0.08587 1.13200
Mo	Mo	0.50000 0.81202 0.01411 1.12400
Mo	Mo	0.50000 0.29692 0.91413 1.13200
Mo	Mo	0.50000 0.18798 0.98589 1.12400
P 	P 	-0.00000 0.82264 0.43692 0.43800
P 	P 	-0.00000 0.17736 0.56308 0.43800
P 	P 	0.50000 0.67736 0.93692 0.48300
P 	P 	0.50000 0.32264 0.06308 0.48300
H 	H 	0.62460 0.74130 0.62250 0.00200
H 	H 	0.62460 0.25870 0.37750 0.00200
H 	H 	0.87540 0.75870 0.12250 -0.00800
H 	H 	0.87540 0.24130 0.87750 -0.00800
H 	H 	0.37540 0.25870 0.37750 -0.00300
H 	H 	0.37540 0.74130 0.62250 -0.00300
H 	H 	0.12460 0.24130 0.87750 -0.00000
H 	H 	0.12460 0.75870 0.12250 -0.00000
H 	H 	0.50000 0.77300 0.48920 0.00100
H 	H 	0.50000 0.22700 0.51080 0.00100
H 	H 	0.00000 0.72700 0.98920 0.01500
H 	H 	-0.00000 0.27300 0.01080 0.01500
C 	C 	0.57530 0.74790 0.60470 0.09000
C 	C 	0.57620 0.75950 0.55130 -0.18700
C 	C 	0.65220 0.76840 0.52210 0.35700
C 	C 	0.57530 0.25210 0.39530 0.09000
C 	C 	0.57620 0.24050 0.44870 -0.18700
C 	C 	0.65220 0.23160 0.47790 0.35700
C 	C 	0.92470 0.75210 0.10470 0.13900
C 	C 	0.92380 0.74050 0.05130 -0.11500
C 	C 	0.84780 0.73160 0.02210 0.33900
C 	C 	0.92470 0.24790 0.89530 0.13900
C 	C 	0.92380 0.25950 0.94870 -0.11500
C 	C 	0.84780 0.26840 0.97790 0.33900
C 	C 	0.42470 0.25210 0.39530 0.09000
C 	C 	0.42380 0.24050 0.44870 -0.19000
C 	C 	0.34780 0.23160 0.47790 0.35800
C 	C 	0.42470 0.74790 0.60470 0.09000
C 	C 	0.42380 0.75950 0.55130 -0.19000
C 	C 	0.34780 0.76840 0.52210 0.35800
C 	C 	0.07530 0.24790 0.89530 0.07800
C 	C 	0.07620 0.25950 0.94870 -0.16600
C 	C 	0.15220 0.26840 0.97790 0.34400
C 	C 	0.07530 0.75210 0.10470 0.07800
C 	C 	0.07620 0.74050 0.05130 -0.16600
C 	C 	0.15220 0.73160 0.02210 0.34400
C 	C 	0.50000 0.76510 0.52560 0.08700
C 	C 	0.50000 0.74580 0.63310 -0.18100
C 	C 	0.50000 0.73400 0.69370 0.38600
C 	C 	0.50000 0.23490 0.47440 0.08700
C 	C 	0.50000 0.25420 0.36690 -0.18100
C 	C 	0.50000 0.26600 0.30630 0.38600
C 	C 	0.00000 0.73490 0.02560 -0.01400
C 	C 	-0.00000 0.75420 0.13310 -0.22300
C 	C 	0.00000 0.76600 0.19370 0.30900
C 	C 	-0.00000 0.26510 0.97440 -0.01400
C 	C 	-0.00000 0.24580 0.86690 -0.22300
C 	C 	-0.00000 0.23400 0.80630 0.30900
O 	O 	0.09220 0.94710 0.46970 -0.74000
O 	O 	0.71760 0.75260 0.54570 -0.49300
O 	O 	0.18150 0.85260 0.50410 -0.67500
O 	O 	0.92480 0.74670 0.54420 -0.62200
O 	O 	0.81810 0.74930 0.43590 -0.66200
O 	O 	0.07820 0.84260 0.40850 -0.45200
O 	O 	0.90850 0.74890 0.33550 -0.64000
O 	O 	0.08350 0.84650 0.59000 -0.58700
O 	O 	0.16500 0.93600 0.37590 -0.60100
O 	O 	0.25720 0.84410 0.40840 -0.44700
O 	O 	0.83850 0.84510 0.31260 -0.55000
O 	O 	0.08540 0.66780 0.47010 -0.58400
O 	O 	0.65280 0.79000 0.47660 -0.33700
O 	O 	0.43650 0.73170 0.71930 -0.46600
O 	O 	0.09220 0.05290 0.53030 -0.74000
O 	O 	0.71760 0.24740 0.45430 -0.49300
O 	O 	0.18150 0.14740 0.49590 -0.67500
O 	O 	0.92480 0.25330 0.45580 -0.62200
O 	O 	0.81810 0.25070 0.56410 -0.66200
O 	O 	0.07820 0.15740 0.59150 -0.45200
O 	O 	0.90850 0.25110 0.66450 -0.64000
O 	O 	0.08350 0.15350 0.41000 -0.58700
O 	O 	0.16500 0.06400 0.62410 -0.60100
O 	O 	0.25720 0.15590 0.59160 -0.44700
O 	O 	0.83850 0.15490 0.68740 -0.55000
O 	O 	0.08540 0.33220 0.52990 -0.58400
O 	O 	0.65280 0.21000 0.52340 -0.33700
O 	O 	0.43650 0.26830 0.28070 -0.46600
O 	O 	0.40780 0.55290 0.96970 -0.73500
O 	O 	0.78240 0.74740 0.04570 -0.48800
O 	O 	0.31850 0.64740 0.00410 -0.67700
O 	O 	0.57520 0.75330 0.04420 -0.66200
O 	O 	0.68190 0.75070 0.93590 -0.66500
O 	O 	0.42180 0.65740 0.90850 -0.45400
O 	O 	0.59150 0.75110 0.83550 -0.66800
O 	O 	0.41650 0.65350 0.09000 -0.57800
O 	O 	0.33500 0.56400 0.87590 -0.60300
O 	O 	0.24280 0.65590 0.90840 -0.45300
O 	O 	0.66150 0.65490 0.81260 -0.55500
O 	O 	0.41460 0.83220 0.97010 -0.57400
O 	O 	0.84720 0.71000 0.97660 -0.31400
O 	O 	0.06350 0.76830 0.21930 -0.45400
O 	O 	0.40780 0.44710 0.03030 -0.73500
O 	O 	0.78240 0.25260 0.95430 -0.48800
O 	O 	0.31850 0.35260 0.99590 -0.67700
O 	O 	0.57520 0.24670 0.95580 -0.66200
O 	O 	0.68190 0.24930 0.06410 -0.66500
O 	O 	0.42180 0.34260 0.09150 -0.45400
O 	O 	0.59150 0.24890 0.16450 -0.66800
O 	O 	0.41650 0.34650 0.91000 -0.57800
O 	O 	0.33500 0.43600 0.12410 -0.60300
O 	O 	0.24280 0.34410 0.09160 -0.45300
O 	O 	0.66150 0.34510 0.18740 -0.55500
O 	O 	0.41460 0.16780 0.02990 -0.57400
O 	O 	0.84720 0.29000 0.02340 -0.31400
O 	O 	0.06350 0.23170 0.78070 -0.45400
O 	O 	0.90780 0.05290 0.53030 -0.70300
O 	O 	0.28240 0.24740 0.45430 -0.50000
O 	O 	0.81850 0.14740 0.49590 -0.66900
O 	O 	0.07520 0.25330 0.45580 -0.67400
O 	O 	0.18190 0.25070 0.56410 -0.66800
O 	O 	0.92180 0.15740 0.59150 -0.40900
O 	O 	0.09150 0.25110 0.66450 -0.67900
O 	O 	0.91650 0.15350 0.41000 -0.53900
O 	O 	0.83500 0.06400 0.62410 -0.58700
O 	O 	0.74280 0.15590 0.59160 -0.44600
O 	O 	0.16150 0.15490 0.68740 -0.56300
O 	O 	0.91460 0.33220 0.52990 -0.53600
O 	O 	0.34720 0.21000 0.52340 -0.33900
O 	O 	0.56350 0.26830 0.28070 -0.46100
O 	O 	0.90780 0.94710 0.46970 -0.70300
O 	O 	0.28240 0.75260 0.54570 -0.50000
O 	O 	0.81850 0.85260 0.50410 -0.66900
O 	O 	0.07520 0.74670 0.54420 -0.67400
O 	O 	0.18190 0.74930 0.43590 -0.66800
O 	O 	0.92180 0.84260 0.40850 -0.40900
O 	O 	0.09150 0.74890 0.33550 -0.67900
O 	O 	0.91650 0.84650 0.59000 -0.53900
O 	O 	0.83500 0.93600 0.37590 -0.58700
O 	O 	0.74280 0.84410 0.40840 -0.44600
O 	O 	0.16150 0.84510 0.31260 -0.56300
O 	O 	0.91460 0.66780 0.47010 -0.53600
O 	O 	0.34720 0.79000 0.47660 -0.33900
O 	O 	0.56350 0.73170 0.71930 -0.46100
O 	O 	0.59220 0.44710 0.03030 -0.73300
O 	O 	0.21760 0.25260 0.95430 -0.49800
O 	O 	0.68150 0.35260 0.99590 -0.67300
O 	O 	0.42480 0.24670 0.95580 -0.66400
O 	O 	0.31810 0.24930 0.06410 -0.67000
O 	O 	0.57820 0.34260 0.09150 -0.45500
O 	O 	0.40850 0.24890 0.16450 -0.67100
O 	O 	0.58350 0.34650 0.91000 -0.57400
O 	O 	0.66500 0.43600 0.12410 -0.59400
O 	O 	0.75720 0.34410 0.09160 -0.43800
O 	O 	0.33850 0.34510 0.18740 -0.56400
O 	O 	0.58540 0.16780 0.02990 -0.56900
O 	O 	0.15280 0.29000 0.02340 -0.34200
O 	O 	0.93650 0.23170 0.78070 -0.39000
O 	O 	0.59220 0.55290 0.96970 -0.73300
O 	O 	0.21760 0.74740 0.04570 -0.49800
O 	O 	0.68150 0.64740 0.00410 -0.67300
O 	O 	0.42480 0.75330 0.04420 -0.66400
O 	O 	0.31810 0.75070 0.93590 -0.67000
O 	O 	0.57820 0.65740 0.90850 -0.45500
O 	O 	0.40850 0.75110 0.83550 -0.67100
O 	O 	0.58350 0.65350 0.09000 -0.57400
O 	O 	0.66500 0.56400 0.87590 -0.59400
O 	O 	0.75720 0.65590 0.90840 -0.43800
O 	O 	0.33850 0.65490 0.81260 -0.56400
O 	O 	0.58540 0.83220 0.97010 -0.56900
O 	O 	0.15280 0.71000 0.97660 -0.34200
O 	O 	0.93650 0.76830 0.21930 -0.39000
O 	O 	-0.00000 0.94010 0.56160 -0.73200
O 	O 	-0.00000 0.05560 0.64230 -0.70900
O 	O 	-0.00000 0.75750 0.43540 -0.48100
O 	O 	0.00000 0.84540 0.49500 -0.47100
O 	O 	-0.00000 0.66050 0.37340 -0.53600
O 	O 	0.00000 0.05990 0.43840 -0.73200
O 	O 	-0.00000 0.94440 0.35770 -0.70900
O 	O 	-0.00000 0.24250 0.56460 -0.48100
O 	O 	-0.00000 0.15460 0.50500 -0.47100
O 	O 	-0.00000 0.33950 0.62660 -0.53600
O 	O 	0.50000 0.55990 0.06160 -0.70100
O 	O 	0.50000 0.44440 0.14230 -0.67900
O 	O 	0.50000 0.74250 0.93540 -0.46000
O 	O 	0.50000 0.65460 0.99500 -0.45000
O 	O 	0.50000 0.83950 0.87340 -0.50000
O 	O 	0.50000 0.44010 0.93840 -0.70100
O 	O 	0.50000 0.55560 0.85770 -0.67900
O 	O 	0.50000 0.25750 0.06460 -0.46000
O 	O 	0.50000 0.34540 0.00500 -0.45000
O 	O 	0.50000 0.16050 0.12660 -0.50000
O 	O 	0.50000 0.63650 0.80230 -0.64900
O 	O 	0.50000 0.36350 0.19770 -0.64900
O 	O 	-0.00000 0.86350 0.30230 -0.68100
O 	O 	-0.00000 0.13650 0.69770 -0.68100
