data_crystal

_cell_length_a 15.29800
_cell_length_b 15.29800
_cell_length_c 15.61310
_cell_angle_alpha 119.33500
_cell_angle_beta  119.33500
_cell_angle_gamma 90.00000

_symmetry_space_group_name_	'P 1'
_symmetry_space_group_name_H-M	'P 1'

loop_
_symmetry_equiv_pos_as_xyz
  x,y,z

loop_
_atom_site_label
_atom_site_type_symbol
_atom_site_fract_x
_atom_site_fract_y
_atom_site_fract_z
_atom_site_charge
Cu	Cu	0.42563 0.48407 0.88834 0.88700
Cu	Cu	0.96271 0.40427 0.88834 0.88700
Cu	Cu	0.98407 0.46271 0.38834 0.88900
Cu	Cu	0.90427 0.92563 0.38834 0.88700
Cu	Cu	0.57437 0.51593 0.11166 0.88800
Cu	Cu	0.03729 0.59573 0.11166 0.88800
Cu	Cu	0.01593 0.53729 0.61166 0.88900
Cu	Cu	0.09573 0.07437 0.61166 0.88700
H 	H 	0.45700 0.63190 0.81540 -0.00900
H 	H 	0.79480 0.93420 0.17200 0.15500
H 	H 	0.72860 0.92100 0.05540 0.13700
H 	H 	0.77350 0.71740 0.30100 -0.00000
H 	H 	0.60520 0.28580 0.76840 0.38600
H 	H 	0.71100 0.34740 0.89500 0.39700
H 	H 	0.63110 0.24860 0.85320 0.39100
H 	H 	0.85840 0.18350 0.81540 -0.00900
H 	H 	0.87720 0.23780 0.17200 0.15800
H 	H 	0.82680 0.13440 0.05540 0.14000
H 	H 	0.02750 0.58360 0.30100 -0.00200
H 	H 	0.66320 0.48260 0.76840 0.38600
H 	H 	0.68400 0.54760 0.89500 0.39700
H 	H 	0.72210 0.60460 0.85320 0.39100
H 	H 	0.13190 0.35840 0.31540 -0.01000
H 	H 	0.43420 0.37720 0.67200 0.15700
H 	H 	0.42100 0.32680 0.55540 0.13800
H 	H 	0.21740 0.52750 0.80100 -0.00000
H 	H 	0.78580 0.16320 0.26840 0.38800
H 	H 	0.84740 0.18400 0.39500 0.39900
H 	H 	0.74860 0.22210 0.35320 0.39400
H 	H 	0.68350 0.95700 0.31540 -0.01300
H 	H 	0.73780 0.29480 0.67200 0.15700
H 	H 	0.63440 0.22860 0.55540 0.13900
H 	H 	0.08360 0.27350 0.80100 0.00000
H 	H 	0.98260 0.10520 0.26840 0.39500
H 	H 	0.04760 0.21100 0.39500 0.40300
H 	H 	0.10460 0.13110 0.35320 0.39700
H 	H 	0.54300 0.36810 0.18460 -0.00900
H 	H 	0.20520 0.06580 0.82800 0.15500
H 	H 	0.27140 0.07900 0.94460 0.13700
H 	H 	0.22650 0.28260 0.69900 -0.00000
H 	H 	0.39480 0.71420 0.23160 0.38600
H 	H 	0.28900 0.65260 0.10500 0.39700
H 	H 	0.36890 0.75140 0.14680 0.39100
H 	H 	0.14160 0.81650 0.18460 -0.00900
H 	H 	0.12280 0.76220 0.82800 0.15800
H 	H 	0.17320 0.86560 0.94460 0.14000
H 	H 	0.97250 0.41640 0.69900 -0.00200
H 	H 	0.33680 0.51740 0.23160 0.38600
H 	H 	0.31600 0.45240 0.10500 0.39700
H 	H 	0.27790 0.39540 0.14680 0.39100
H 	H 	0.86810 0.64160 0.68460 -0.01000
H 	H 	0.56580 0.62280 0.32800 0.15700
H 	H 	0.57900 0.67320 0.44460 0.13800
H 	H 	0.78260 0.47250 0.19900 -0.00000
H 	H 	0.21420 0.83680 0.73160 0.38800
H 	H 	0.15260 0.81600 0.60500 0.39900
H 	H 	0.25140 0.77790 0.64680 0.39400
H 	H 	0.31650 0.04300 0.68460 -0.01300
H 	H 	0.26220 0.70520 0.32800 0.15700
H 	H 	0.36560 0.77140 0.44460 0.13900
H 	H 	0.91640 0.72650 0.19900 0.00000
H 	H 	0.01740 0.89480 0.73160 0.39500
H 	H 	0.95240 0.78900 0.60500 0.40300
H 	H 	0.89540 0.86890 0.64680 0.39700
C 	C 	0.51750 0.66260 0.89140 0.09800
C 	C 	0.61560 0.66620 0.05620 0.09900
C 	C 	0.68990 0.76420 0.11600 -0.03400
C 	C 	0.67600 0.80460 0.05420 0.12400
C 	C 	0.73590 0.71710 0.23260 0.08900
C 	C 	0.58300 0.38010 0.90020 0.69300
C 	C 	0.63760 0.30900 0.84960 -1.20600
C 	C 	0.87390 0.22880 0.89140 0.09700
C 	C 	0.94060 0.39000 0.05620 0.10300
C 	C 	0.92610 0.35180 0.11600 -0.03600
C 	C 	0.87820 0.24960 0.05420 0.13000
C 	C 	0.99670 0.51550 0.23260 0.09100
C 	C 	0.81720 0.52010 0.90020 0.69100
C 	C 	0.71200 0.54060 0.84960 -1.20600
C 	C 	0.16260 0.37390 0.39140 0.09700
C 	C 	0.16620 0.44060 0.55620 0.09900
C 	C 	0.26420 0.42610 0.61600 -0.03400
C 	C 	0.30460 0.37820 0.55420 0.12500
C 	C 	0.21710 0.49670 0.73260 0.08900
C 	C 	0.88010 0.31720 0.40020 0.69600
C 	C 	0.80900 0.21200 0.34960 -1.21100
C 	C 	0.72880 0.01750 0.39140 0.10200
C 	C 	0.89000 0.11560 0.55620 0.10000
C 	C 	0.85180 0.18990 0.61600 -0.03400
C 	C 	0.74960 0.17600 0.55420 0.12600
C 	C 	0.01550 0.23590 0.73260 0.08700
C 	C 	0.02010 0.08300 0.40020 0.69400
C 	C 	0.04060 0.13760 0.34960 -1.22600
C 	C 	0.48250 0.33740 0.10860 0.09800
C 	C 	0.38440 0.33380 0.94380 0.09900
C 	C 	0.31010 0.23580 0.88400 -0.03400
C 	C 	0.32400 0.19540 0.94580 0.12400
C 	C 	0.26410 0.28290 0.76740 0.08900
C 	C 	0.41700 0.61990 0.09980 0.69300
C 	C 	0.36240 0.69100 0.15040 -1.20600
C 	C 	0.12610 0.77120 0.10860 0.09700
C 	C 	0.05940 0.61000 0.94380 0.10300
C 	C 	0.07390 0.64820 0.88400 -0.03600
C 	C 	0.12180 0.75040 0.94580 0.13000
C 	C 	0.00330 0.48450 0.76740 0.09100
C 	C 	0.18280 0.47990 0.09980 0.69100
C 	C 	0.28800 0.45940 0.15040 -1.20600
C 	C 	0.83740 0.62610 0.60860 0.09700
C 	C 	0.83380 0.55940 0.44380 0.09900
C 	C 	0.73580 0.57390 0.38400 -0.03400
C 	C 	0.69540 0.62180 0.44580 0.12500
C 	C 	0.78290 0.50330 0.26740 0.08900
C 	C 	0.11990 0.68280 0.59980 0.69600
C 	C 	0.19100 0.78800 0.65040 -1.21100
C 	C 	0.27120 0.98250 0.60860 0.10200
C 	C 	0.11000 0.88440 0.44380 0.10000
C 	C 	0.14820 0.81010 0.38400 -0.03400
C 	C 	0.25040 0.82400 0.44580 0.12600
C 	C 	0.98450 0.76410 0.26740 0.08700
C 	C 	0.97990 0.91700 0.59980 0.69400
C 	C 	0.95940 0.86240 0.65040 -1.22600
N 	N 	0.58400 0.74930 0.93420 -0.15600
N 	N 	0.52680 0.61330 0.94440 -0.24400
N 	N 	0.74110 0.89810 0.09940 -0.31300
N 	N 	0.76640 0.79460 0.22680 -0.18900
N 	N 	0.64740 0.63870 0.13320 -0.24500
N 	N 	0.85020 0.18490 0.93420 -0.15800
N 	N 	0.91760 0.33110 0.94440 -0.24600
N 	N 	0.85830 0.20130 0.09940 -0.31500
N 	N 	0.96040 0.43220 0.22680 -0.18800
N 	N 	0.98580 0.49450 0.13320 -0.24500
N 	N 	0.24930 0.35020 0.43420 -0.15600
N 	N 	0.11330 0.41760 0.44440 -0.24500
N 	N 	0.39810 0.35830 0.59940 -0.31400
N 	N 	0.29460 0.46040 0.72680 -0.18900
N 	N 	0.13870 0.48580 0.63320 -0.24500
N 	N 	0.68490 0.08400 0.43420 -0.15700
N 	N 	0.83110 0.02680 0.44440 -0.24400
N 	N 	0.70130 0.24110 0.59940 -0.31400
N 	N 	0.93220 0.26640 0.72680 -0.18800
N 	N 	0.99450 0.14740 0.63320 -0.24300
N 	N 	0.41600 0.25070 0.06580 -0.15600
N 	N 	0.47320 0.38670 0.05560 -0.24400
N 	N 	0.25890 0.10190 0.90060 -0.31300
N 	N 	0.23360 0.20540 0.77320 -0.18900
N 	N 	0.35260 0.36130 0.86680 -0.24500
N 	N 	0.14980 0.81510 0.06580 -0.15800
N 	N 	0.08240 0.66890 0.05560 -0.24600
N 	N 	0.14170 0.79870 0.90060 -0.31500
N 	N 	0.03960 0.56780 0.77320 -0.18800
N 	N 	0.01420 0.50550 0.86680 -0.24500
N 	N 	0.75070 0.64980 0.56580 -0.15600
N 	N 	0.88670 0.58240 0.55560 -0.24500
N 	N 	0.60190 0.64170 0.40060 -0.31400
N 	N 	0.70540 0.53960 0.27320 -0.18900
N 	N 	0.86130 0.51420 0.36680 -0.24500
N 	N 	0.31510 0.91600 0.56580 -0.15700
N 	N 	0.16890 0.97320 0.55560 -0.24400
N 	N 	0.29870 0.75890 0.40060 -0.31400
N 	N 	0.06780 0.73360 0.27320 -0.18800
N 	N 	0.00550 0.85260 0.36680 -0.24300
O 	O 	0.50960 0.39970 0.83620 -0.54700
O 	O 	0.62070 0.41800 0.00680 -0.51900
O 	O 	0.82660 0.43650 0.83620 -0.54700
O 	O 	0.88610 0.58880 0.00680 -0.51800
O 	O 	0.89970 0.32660 0.33620 -0.54700
O 	O 	0.91800 0.38610 0.50680 -0.52100
O 	O 	0.93650 0.00960 0.33620 -0.54200
O 	O 	0.08880 0.12070 0.50680 -0.52100
O 	O 	0.49040 0.60030 0.16380 -0.54700
O 	O 	0.37930 0.58200 0.99320 -0.51900
O 	O 	0.17340 0.56350 0.16380 -0.54700
O 	O 	0.11390 0.41120 0.99320 -0.51800
O 	O 	0.10030 0.67340 0.66380 -0.54700
O 	O 	0.08200 0.61390 0.49320 -0.52100
O 	O 	0.06350 0.99040 0.66380 -0.54200
O 	O 	0.91120 0.87930 0.49320 -0.52100
