data_crystal

_cell_length_a 17.16000
_cell_length_b 17.16000
_cell_length_c 17.16000
_cell_angle_alpha 90.00000
_cell_angle_beta  90.00000
_cell_angle_gamma 90.00000

_symmetry_space_group_name_	'P 1'
_symmetry_space_group_name_H-M	'P 1'

loop_
_symmetry_equiv_pos_as_xyz
  x,y,z

loop_
_atom_site_label
_atom_site_type_symbol
_atom_site_fract_x
_atom_site_fract_y
_atom_site_fract_z
_atom_site_charge
N 	N 	0.67850 0.21690 0.01820 -0.39000
C 	C 	0.80210 0.35500 0.94310 0.17700
C 	C 	0.69900 0.32600 0.93810 0.17600
C 	C 	0.63300 0.27660 0.90400 -0.61800
H 	H 	0.76370 0.30070 0.04520 0.36100
H 	H 	0.68780 0.38840 0.93200 0.19300
H 	H 	0.75350 0.31240 0.90750 0.10100
H 	H 	0.63510 0.27300 0.84050 0.16200
H 	H 	0.57670 0.30130 0.92100 0.04500
H 	H 	0.83470 0.40920 0.95000 -0.00400
H 	H 	0.83790 0.31290 0.91110 -0.02700
H 	H 	0.65970 0.19350 0.07120 0.05300
N 	N 	0.32150 0.78310 0.01820 -0.39000
C 	C 	0.19790 0.64500 0.94310 0.17700
C 	C 	0.30100 0.67400 0.93810 0.17600
C 	C 	0.36700 0.72340 0.90400 -0.61800
H 	H 	0.23630 0.69930 0.04520 0.36100
H 	H 	0.31220 0.61160 0.93200 0.19300
H 	H 	0.24650 0.68760 0.90750 0.10100
H 	H 	0.36490 0.72700 0.84050 0.16200
H 	H 	0.42330 0.69870 0.92100 0.04500
H 	H 	0.16530 0.59080 0.95000 -0.00400
H 	H 	0.16210 0.68710 0.91110 -0.02700
H 	H 	0.34030 0.80650 0.07120 0.05300
N 	N 	0.32150 0.21690 0.98180 -0.39000
C 	C 	0.19790 0.35500 0.05690 0.17700
C 	C 	0.30100 0.32600 0.06190 0.17600
C 	C 	0.36700 0.27660 0.09600 -0.61800
H 	H 	0.23630 0.30070 0.95480 0.36100
H 	H 	0.31220 0.38840 0.06800 0.19300
H 	H 	0.24650 0.31240 0.09250 0.10100
H 	H 	0.36490 0.27300 0.15950 0.16200
H 	H 	0.42330 0.30130 0.07900 0.04500
H 	H 	0.16530 0.40920 0.05000 -0.00400
H 	H 	0.16210 0.31290 0.08890 -0.02700
H 	H 	0.34030 0.19350 0.92880 0.05300
N 	N 	0.67850 0.78310 0.98180 -0.39000
C 	C 	0.80210 0.64500 0.05690 0.17700
C 	C 	0.69900 0.67400 0.06190 0.17600
C 	C 	0.63300 0.72340 0.09600 -0.61800
H 	H 	0.76370 0.69930 0.95480 0.36100
H 	H 	0.68780 0.61160 0.06800 0.19300
H 	H 	0.75350 0.68760 0.09250 0.10000
H 	H 	0.63510 0.72700 0.15950 0.16100
H 	H 	0.57670 0.69870 0.07900 0.04400
H 	H 	0.83470 0.59080 0.05000 -0.00500
H 	H 	0.83790 0.68710 0.08890 -0.02800
H 	H 	0.65970 0.80650 0.92880 0.05200
N 	N 	0.01820 0.67850 0.21690 -0.39100
C 	C 	0.94310 0.80210 0.35500 0.17600
C 	C 	0.93810 0.69900 0.32600 0.17500
C 	C 	0.90400 0.63300 0.27660 -0.61900
H 	H 	0.04520 0.76370 0.30070 0.36000
H 	H 	0.93200 0.68780 0.38840 0.19200
H 	H 	0.90750 0.75350 0.31240 0.10000
H 	H 	0.84050 0.63510 0.27300 0.16100
H 	H 	0.92100 0.57670 0.30130 0.04400
H 	H 	0.95000 0.83470 0.40920 -0.00500
H 	H 	0.91110 0.83790 0.31290 -0.02800
H 	H 	0.07120 0.65970 0.19350 0.05200
N 	N 	0.01820 0.32150 0.78310 -0.39100
C 	C 	0.94310 0.19790 0.64500 0.17600
C 	C 	0.93810 0.30100 0.67400 0.17500
C 	C 	0.90400 0.36700 0.72340 -0.61900
H 	H 	0.04520 0.23630 0.69930 0.36000
H 	H 	0.93200 0.31220 0.61160 0.19200
H 	H 	0.90750 0.24650 0.68760 0.10000
H 	H 	0.84050 0.36490 0.72700 0.16100
H 	H 	0.92100 0.42330 0.69870 0.04400
H 	H 	0.95000 0.16530 0.59080 -0.00500
H 	H 	0.91110 0.16210 0.68710 -0.02800
H 	H 	0.07120 0.34030 0.80650 0.05200
N 	N 	0.98180 0.32150 0.21690 -0.39100
C 	C 	0.05690 0.19790 0.35500 0.17600
C 	C 	0.06190 0.30100 0.32600 0.17500
C 	C 	0.09600 0.36700 0.27660 -0.61900
H 	H 	0.95480 0.23630 0.30070 0.36000
H 	H 	0.06800 0.31220 0.38840 0.19200
H 	H 	0.09250 0.24650 0.31240 0.10000
H 	H 	0.15950 0.36490 0.27300 0.16100
H 	H 	0.07900 0.42330 0.30130 0.04400
H 	H 	0.05000 0.16530 0.40920 -0.00500
H 	H 	0.08890 0.16210 0.31290 -0.02800
H 	H 	0.92880 0.34030 0.19350 0.05200
N 	N 	0.98180 0.67850 0.78310 -0.39100
C 	C 	0.05690 0.80210 0.64500 0.17600
C 	C 	0.06190 0.69900 0.67400 0.17500
C 	C 	0.09600 0.63300 0.72340 -0.61900
H 	H 	0.95480 0.76370 0.69930 0.36000
H 	H 	0.06800 0.68780 0.61160 0.19200
H 	H 	0.09250 0.75350 0.68760 0.10000
H 	H 	0.15950 0.63510 0.72700 0.16100
H 	H 	0.07900 0.57670 0.69870 0.04400
H 	H 	0.05000 0.83470 0.59080 -0.00500
H 	H 	0.08890 0.83790 0.68710 -0.02800
H 	H 	0.92880 0.65970 0.80650 0.05200
N 	N 	0.21690 0.01820 0.67850 -0.39100
C 	C 	0.35500 0.94310 0.80210 0.17600
C 	C 	0.32600 0.93810 0.69900 0.17500
C 	C 	0.27660 0.90400 0.63300 -0.61900
H 	H 	0.30070 0.04520 0.76370 0.36000
H 	H 	0.38840 0.93200 0.68780 0.19200
H 	H 	0.31240 0.90750 0.75350 0.10000
H 	H 	0.27300 0.84050 0.63510 0.16100
H 	H 	0.30130 0.92100 0.57670 0.04400
H 	H 	0.40920 0.95000 0.83470 -0.00500
H 	H 	0.31290 0.91110 0.83790 -0.02800
H 	H 	0.19350 0.07120 0.65970 0.05200
N 	N 	0.78310 0.01820 0.32150 -0.39100
C 	C 	0.64500 0.94310 0.19790 0.17600
C 	C 	0.67400 0.93810 0.30100 0.17500
C 	C 	0.72340 0.90400 0.36700 -0.61900
H 	H 	0.69930 0.04520 0.23630 0.36000
H 	H 	0.61160 0.93200 0.31220 0.19200
H 	H 	0.68760 0.90750 0.24650 0.10000
H 	H 	0.72700 0.84050 0.36490 0.16100
H 	H 	0.69870 0.92100 0.42330 0.04400
H 	H 	0.59080 0.95000 0.16530 -0.00500
H 	H 	0.68710 0.91110 0.16210 -0.02800
H 	H 	0.80650 0.07120 0.34030 0.05200
N 	N 	0.21690 0.98180 0.32150 -0.39100
C 	C 	0.35500 0.05690 0.19790 0.17600
C 	C 	0.32600 0.06190 0.30100 0.17500
C 	C 	0.27660 0.09600 0.36700 -0.61900
H 	H 	0.30070 0.95480 0.23630 0.36000
H 	H 	0.38840 0.06800 0.31220 0.19200
H 	H 	0.31240 0.09250 0.24650 0.10000
H 	H 	0.27300 0.15950 0.36490 0.16100
H 	H 	0.30130 0.07900 0.42330 0.04400
H 	H 	0.40920 0.05000 0.16530 -0.00500
H 	H 	0.31290 0.08890 0.16210 -0.02800
H 	H 	0.19350 0.92880 0.34030 0.05200
N 	N 	0.78310 0.98180 0.67850 -0.39100
C 	C 	0.64500 0.05690 0.80210 0.17600
C 	C 	0.67400 0.06190 0.69900 0.17500
C 	C 	0.72340 0.09600 0.63300 -0.61900
H 	H 	0.69930 0.95480 0.76370 0.36000
H 	H 	0.61160 0.06800 0.68780 0.19200
H 	H 	0.68760 0.09250 0.75350 0.10000
H 	H 	0.72700 0.15950 0.63510 0.16100
H 	H 	0.69870 0.07900 0.57670 0.04400
H 	H 	0.59080 0.05000 0.83470 -0.00500
H 	H 	0.68710 0.08890 0.83790 -0.02800
H 	H 	0.80650 0.92880 0.65970 0.05200
N 	N 	0.21690 0.67850 0.01820 -0.39100
C 	C 	0.35500 0.80210 0.94310 0.17600
C 	C 	0.32600 0.69900 0.93810 0.17500
C 	C 	0.27660 0.63300 0.90400 -0.61900
H 	H 	0.30070 0.76370 0.04520 0.36000
H 	H 	0.38840 0.68780 0.93200 0.19200
H 	H 	0.31240 0.75350 0.90750 0.10000
H 	H 	0.27300 0.63510 0.84050 0.16100
H 	H 	0.30130 0.57670 0.92100 0.04400
H 	H 	0.40920 0.83470 0.95000 -0.00500
H 	H 	0.31290 0.83790 0.91110 -0.02800
H 	H 	0.19350 0.65970 0.07120 0.05200
N 	N 	0.78310 0.32150 0.01820 -0.39100
C 	C 	0.64500 0.19790 0.94310 0.17600
C 	C 	0.67400 0.30100 0.93810 0.17500
C 	C 	0.72340 0.36700 0.90400 -0.61900
H 	H 	0.69930 0.23630 0.04520 0.36000
H 	H 	0.61160 0.31220 0.93200 0.19200
H 	H 	0.68760 0.24650 0.90750 0.10000
H 	H 	0.72700 0.36490 0.84050 0.16100
H 	H 	0.69870 0.42330 0.92100 0.04400
H 	H 	0.59080 0.16530 0.95000 -0.00500
H 	H 	0.68710 0.16210 0.91110 -0.02800
H 	H 	0.80650 0.34030 0.07120 0.05200
N 	N 	0.21690 0.32150 0.98180 -0.39100
C 	C 	0.35500 0.19790 0.05690 0.17600
C 	C 	0.32600 0.30100 0.06190 0.17500
C 	C 	0.27660 0.36700 0.09600 -0.61900
H 	H 	0.30070 0.23630 0.95480 0.36000
H 	H 	0.38840 0.31220 0.06800 0.19200
H 	H 	0.31240 0.24650 0.09250 0.10000
H 	H 	0.27300 0.36490 0.15950 0.16100
H 	H 	0.30130 0.42330 0.07900 0.04400
H 	H 	0.40920 0.16530 0.05000 -0.00500
H 	H 	0.31290 0.16210 0.08890 -0.02800
H 	H 	0.19350 0.34030 0.92880 0.05200
N 	N 	0.78310 0.67850 0.98180 -0.39100
C 	C 	0.64500 0.80210 0.05690 0.17600
C 	C 	0.67400 0.69900 0.06190 0.17500
C 	C 	0.72340 0.63300 0.09600 -0.61900
H 	H 	0.69930 0.76370 0.95480 0.36000
H 	H 	0.61160 0.68780 0.06800 0.19200
H 	H 	0.68760 0.75350 0.09250 0.10000
H 	H 	0.72700 0.63510 0.15950 0.16100
H 	H 	0.69870 0.57670 0.07900 0.04400
H 	H 	0.59080 0.83470 0.05000 -0.00500
H 	H 	0.68710 0.83790 0.08890 -0.02800
H 	H 	0.80650 0.65970 0.92880 0.05200
N 	N 	0.67850 0.01820 0.21690 -0.39100
C 	C 	0.80210 0.94310 0.35500 0.17600
C 	C 	0.69900 0.93810 0.32600 0.17500
C 	C 	0.63300 0.90400 0.27660 -0.61900
H 	H 	0.76370 0.04520 0.30070 0.36000
H 	H 	0.68780 0.93200 0.38840 0.19200
H 	H 	0.75350 0.90750 0.31240 0.10000
H 	H 	0.63510 0.84050 0.27300 0.16100
H 	H 	0.57670 0.92100 0.30130 0.04400
H 	H 	0.83470 0.95000 0.40920 -0.00500
H 	H 	0.83790 0.91110 0.31290 -0.02800
H 	H 	0.65970 0.07120 0.19350 0.05200
N 	N 	0.32150 0.01820 0.78310 -0.39100
C 	C 	0.19790 0.94310 0.64500 0.17600
C 	C 	0.30100 0.93810 0.67400 0.17500
C 	C 	0.36700 0.90400 0.72340 -0.61900
H 	H 	0.23630 0.04520 0.69930 0.36000
H 	H 	0.31220 0.93200 0.61160 0.19200
H 	H 	0.24650 0.90750 0.68760 0.10000
H 	H 	0.36490 0.84050 0.72700 0.16100
H 	H 	0.42330 0.92100 0.69870 0.04400
H 	H 	0.16530 0.95000 0.59080 -0.00500
H 	H 	0.16210 0.91110 0.68710 -0.02800
H 	H 	0.34030 0.07120 0.80650 0.05200
N 	N 	0.32150 0.98180 0.21690 -0.39100
C 	C 	0.19790 0.05690 0.35500 0.17600
C 	C 	0.30100 0.06190 0.32600 0.17500
C 	C 	0.36700 0.09600 0.27660 -0.61900
H 	H 	0.23630 0.95480 0.30070 0.36000
H 	H 	0.31220 0.06800 0.38840 0.19200
H 	H 	0.24650 0.09250 0.31240 0.10000
H 	H 	0.36490 0.15950 0.27300 0.16100
H 	H 	0.42330 0.07900 0.30130 0.04400
H 	H 	0.16530 0.05000 0.40920 -0.00500
H 	H 	0.16210 0.08890 0.31290 -0.02800
H 	H 	0.34030 0.92880 0.19350 0.05200
N 	N 	0.67850 0.98180 0.78310 -0.39100
C 	C 	0.80210 0.05690 0.64500 0.17600
C 	C 	0.69900 0.06190 0.67400 0.17500
C 	C 	0.63300 0.09600 0.72340 -0.61900
H 	H 	0.76370 0.95480 0.69930 0.36000
H 	H 	0.68780 0.06800 0.61160 0.19200
H 	H 	0.75350 0.09250 0.68760 0.10000
H 	H 	0.63510 0.15950 0.72700 0.16100
H 	H 	0.57670 0.07900 0.69870 0.04400
H 	H 	0.83470 0.05000 0.59080 -0.00500
H 	H 	0.83790 0.08890 0.68710 -0.02800
H 	H 	0.65970 0.92880 0.80650 0.05200
N 	N 	0.01820 0.21690 0.67850 -0.39100
C 	C 	0.94310 0.35500 0.80210 0.17600
C 	C 	0.93810 0.32600 0.69900 0.17500
C 	C 	0.90400 0.27660 0.63300 -0.61900
H 	H 	0.04520 0.30070 0.76370 0.36000
H 	H 	0.93200 0.38840 0.68780 0.19200
H 	H 	0.90750 0.31240 0.75350 0.10000
H 	H 	0.84050 0.27300 0.63510 0.16100
H 	H 	0.92100 0.30130 0.57670 0.04400
H 	H 	0.95000 0.40920 0.83470 -0.00500
H 	H 	0.91110 0.31290 0.83790 -0.02800
H 	H 	0.07120 0.19350 0.65970 0.05200
N 	N 	0.01820 0.78310 0.32150 -0.39100
C 	C 	0.94310 0.64500 0.19790 0.17600
C 	C 	0.93810 0.67400 0.30100 0.17500
C 	C 	0.90400 0.72340 0.36700 -0.61900
H 	H 	0.04520 0.69930 0.23630 0.36000
H 	H 	0.93200 0.61160 0.31220 0.19200
H 	H 	0.90750 0.68760 0.24650 0.10000
H 	H 	0.84050 0.72700 0.36490 0.16100
H 	H 	0.92100 0.69870 0.42330 0.04400
H 	H 	0.95000 0.59080 0.16530 -0.00500
H 	H 	0.91110 0.68710 0.16210 -0.02800
H 	H 	0.07120 0.80650 0.34030 0.05200
N 	N 	0.98180 0.21690 0.32150 -0.39100
C 	C 	0.05690 0.35500 0.19790 0.17600
C 	C 	0.06190 0.32600 0.30100 0.17500
C 	C 	0.09600 0.27660 0.36700 -0.61900
H 	H 	0.95480 0.30070 0.23630 0.36000
H 	H 	0.06800 0.38840 0.31220 0.19200
H 	H 	0.09250 0.31240 0.24650 0.10000
H 	H 	0.15950 0.27300 0.36490 0.16100
H 	H 	0.07900 0.30130 0.42330 0.04400
H 	H 	0.05000 0.40920 0.16530 -0.00500
H 	H 	0.08890 0.31290 0.16210 -0.02800
H 	H 	0.92880 0.19350 0.34030 0.05200
N 	N 	0.98180 0.78310 0.67850 -0.39100
C 	C 	0.05690 0.64500 0.80210 0.17600
C 	C 	0.06190 0.67400 0.69900 0.17500
C 	C 	0.09600 0.72340 0.63300 -0.61900
H 	H 	0.95480 0.69930 0.76370 0.36000
H 	H 	0.06800 0.61160 0.68780 0.19200
H 	H 	0.09250 0.68760 0.75350 0.10000
H 	H 	0.15950 0.72700 0.63510 0.16100
H 	H 	0.07900 0.69870 0.57670 0.04400
H 	H 	0.05000 0.59080 0.83470 -0.00500
H 	H 	0.08890 0.68710 0.83790 -0.02800
H 	H 	0.92880 0.80650 0.65970 0.05200
Zn	Zn	0.56460 0.43540 0.43540 1.23200
Zn	Zn	0.43540 0.56460 0.43540 1.23200
Zn	Zn	0.43540 0.43540 0.56460 1.23200
Zn	Zn	0.56460 0.56460 0.56460 1.23200
O 	O 	0.50000 0.50000 0.50000 -0.95000
O 	O 	0.54830 0.45170 0.33250 -0.45000
C 	C 	0.54960 0.45040 0.16540 -1.60000
C 	C 	0.54940 0.45060 0.08400 0.97800
N 	N 	0.60000 0.40000 0.04610 0.00300
C 	C 	0.70400 0.29600 0.02270 -0.39300
C 	C 	0.65000 0.35000 0.07510 0.22200
O 	O 	0.65000 0.35000 0.14620 -0.27800
H 	H 	0.57305 0.42695 0.19400 0.84200
H 	H 	0.58270 0.41730 0.05820 -0.35400
H 	H 	0.59500 0.40500 0.99780 0.05300
O 	O 	0.45170 0.54830 0.33250 -0.45000
C 	C 	0.45040 0.54960 0.16540 -1.60000
C 	C 	0.45060 0.54940 0.08400 0.97800
N 	N 	0.40000 0.60000 0.04610 0.00300
C 	C 	0.29600 0.70400 0.02270 -0.39300
C 	C 	0.35000 0.65000 0.07510 0.22200
O 	O 	0.35000 0.65000 0.14620 -0.27800
H 	H 	0.42695 0.57305 0.19400 0.84200
H 	H 	0.41730 0.58270 0.05820 -0.35400
H 	H 	0.40500 0.59500 0.99780 0.05300
O 	O 	0.45170 0.45170 0.66750 -0.45000
C 	C 	0.45040 0.45040 0.83460 -1.60000
C 	C 	0.45060 0.45060 0.91600 0.97800
N 	N 	0.40000 0.40000 0.95390 0.00300
C 	C 	0.29600 0.29600 0.97730 -0.39300
C 	C 	0.35000 0.35000 0.92490 0.22200
O 	O 	0.35000 0.35000 0.85380 -0.27800
H 	H 	0.42695 0.42695 0.80600 0.84200
H 	H 	0.41730 0.41730 0.94180 -0.35400
H 	H 	0.40500 0.40500 0.00220 0.05300
O 	O 	0.54830 0.54830 0.66750 -0.45000
C 	C 	0.54960 0.54960 0.83460 -1.60000
C 	C 	0.54940 0.54940 0.91600 0.97800
N 	N 	0.60000 0.60000 0.95390 0.00300
C 	C 	0.70400 0.70400 0.97730 -0.39300
C 	C 	0.65000 0.65000 0.92490 0.22200
O 	O 	0.65000 0.65000 0.85380 -0.27800
H 	H 	0.57305 0.57305 0.80600 0.84200
H 	H 	0.58270 0.58270 0.94180 -0.35400
H 	H 	0.59500 0.59500 0.00220 0.05300
O 	O 	0.33250 0.54830 0.45170 -0.45000
C 	C 	0.16540 0.54960 0.45040 -1.60000
C 	C 	0.08400 0.54940 0.45060 0.97800
N 	N 	0.04610 0.60000 0.40000 0.00300
C 	C 	0.02270 0.70400 0.29600 -0.39300
C 	C 	0.07510 0.65000 0.35000 0.22200
O 	O 	0.14620 0.65000 0.35000 -0.27800
H 	H 	0.19400 0.57305 0.42695 0.84200
H 	H 	0.05820 0.58270 0.41730 -0.35400
H 	H 	0.99780 0.59500 0.40500 0.05300
O 	O 	0.33250 0.45170 0.54830 -0.45000
C 	C 	0.16540 0.45040 0.54960 -1.60000
C 	C 	0.08400 0.45060 0.54940 0.97800
N 	N 	0.04610 0.40000 0.60000 0.00300
C 	C 	0.02270 0.29600 0.70400 -0.39300
C 	C 	0.07510 0.35000 0.65000 0.22200
O 	O 	0.14620 0.35000 0.65000 -0.27800
H 	H 	0.19400 0.42695 0.57305 0.84200
H 	H 	0.05820 0.41730 0.58270 -0.35400
H 	H 	0.99780 0.40500 0.59500 0.05300
O 	O 	0.66750 0.45170 0.45170 -0.45000
C 	C 	0.83460 0.45040 0.45040 -1.60000
C 	C 	0.91600 0.45060 0.45060 0.97800
N 	N 	0.95390 0.40000 0.40000 0.00300
C 	C 	0.97730 0.29600 0.29600 -0.39300
C 	C 	0.92490 0.35000 0.35000 0.22200
O 	O 	0.85380 0.35000 0.35000 -0.27800
H 	H 	0.80600 0.42695 0.42695 0.84200
H 	H 	0.94180 0.41730 0.41730 -0.35400
H 	H 	0.00220 0.40500 0.40500 0.05300
O 	O 	0.66750 0.54830 0.54830 -0.45000
C 	C 	0.83460 0.54960 0.54960 -1.60000
C 	C 	0.91600 0.54940 0.54940 0.97800
N 	N 	0.95390 0.60000 0.60000 0.00300
C 	C 	0.97730 0.70400 0.70400 -0.39300
C 	C 	0.92490 0.65000 0.65000 0.22200
O 	O 	0.85380 0.65000 0.65000 -0.27800
H 	H 	0.80600 0.57305 0.57305 0.84200
H 	H 	0.94180 0.58270 0.58270 -0.35400
H 	H 	0.00220 0.59500 0.59500 0.05300
O 	O 	0.45170 0.33250 0.54830 -0.45000
C 	C 	0.45040 0.16540 0.54960 -1.60000
C 	C 	0.45060 0.08400 0.54940 0.97800
N 	N 	0.40000 0.04610 0.60000 0.00300
C 	C 	0.29600 0.02270 0.70400 -0.39300
C 	C 	0.35000 0.07510 0.65000 0.22200
O 	O 	0.35000 0.14620 0.65000 -0.27800
H 	H 	0.42695 0.19400 0.57305 0.84200
H 	H 	0.41730 0.05820 0.58270 -0.35400
H 	H 	0.40500 0.99780 0.59500 0.05300
O 	O 	0.54830 0.33250 0.45170 -0.45000
C 	C 	0.54960 0.16540 0.45040 -1.60000
C 	C 	0.54940 0.08400 0.45060 0.97800
N 	N 	0.60000 0.04610 0.40000 0.00300
C 	C 	0.70400 0.02270 0.29600 -0.39300
C 	C 	0.65000 0.07510 0.35000 0.22200
O 	O 	0.65000 0.14620 0.35000 -0.27800
H 	H 	0.57305 0.19400 0.42695 0.84200
H 	H 	0.58270 0.05820 0.41730 -0.35400
H 	H 	0.59500 0.99780 0.40500 0.05300
O 	O 	0.45170 0.66750 0.45170 -0.45000
C 	C 	0.45040 0.83460 0.45040 -1.60000
C 	C 	0.45060 0.91600 0.45060 0.97800
N 	N 	0.40000 0.95390 0.40000 0.00300
C 	C 	0.29600 0.97730 0.29600 -0.39300
C 	C 	0.35000 0.92490 0.35000 0.22200
O 	O 	0.35000 0.85380 0.35000 -0.27800
H 	H 	0.42695 0.80600 0.42695 0.84200
H 	H 	0.41730 0.94180 0.41730 -0.35400
H 	H 	0.40500 0.00220 0.40500 0.05300
O 	O 	0.54830 0.66750 0.54830 -0.45000
C 	C 	0.54960 0.83460 0.54960 -1.60000
C 	C 	0.54940 0.91600 0.54940 0.97800
N 	N 	0.60000 0.95390 0.60000 0.00300
C 	C 	0.70400 0.97730 0.70400 -0.39300
C 	C 	0.65000 0.92490 0.65000 0.22200
O 	O 	0.65000 0.85380 0.65000 -0.27800
H 	H 	0.57305 0.80600 0.57305 0.84200
H 	H 	0.58270 0.94180 0.58270 -0.35400
H 	H 	0.59500 0.00220 0.59500 0.05300
C 	C 	0.50000 0.50000 0.29800 -0.01300
C 	C 	0.50000 0.50000 0.20570 0.94600
C 	C 	0.50000 0.50000 0.04310 -0.51700
C 	C 	0.50000 0.50000 0.70200 -0.01300
C 	C 	0.50000 0.50000 0.79430 0.94600
C 	C 	0.50000 0.50000 0.95690 -0.51700
C 	C 	0.29800 0.50000 0.50000 -0.01300
C 	C 	0.20570 0.50000 0.50000 0.94600
C 	C 	0.04310 0.50000 0.50000 -0.51700
C 	C 	0.70200 0.50000 0.50000 -0.01300
C 	C 	0.79430 0.50000 0.50000 0.94600
C 	C 	0.95690 0.50000 0.50000 -0.51700
C 	C 	0.50000 0.29800 0.50000 -0.01300
C 	C 	0.50000 0.20570 0.50000 0.94600
C 	C 	0.50000 0.04310 0.50000 -0.51700
C 	C 	0.50000 0.70200 0.50000 -0.01300
C 	C 	0.50000 0.79430 0.50000 0.94600
C 	C 	0.50000 0.95690 0.50000 -0.51700
