data_crystal

_cell_length_a 19.41400
_cell_length_b 22.26800
_cell_length_c 20.52100
_cell_angle_alpha 90.00000
_cell_angle_beta  94.88700
_cell_angle_gamma 90.00000

_symmetry_space_group_name_	'P 1'
_symmetry_space_group_name_H-M	'P 1'

loop_
_symmetry_equiv_pos_as_xyz
  x,y,z

loop_
_atom_site_label
_atom_site_type_symbol
_atom_site_fract_x
_atom_site_fract_y
_atom_site_fract_z
_atom_site_charge
Ni	Ni	0.64816 0.69670 0.64370 1.06200
Ni	Ni	0.63486 0.89678 0.58747 1.04900
Ni	Ni	0.73729 0.06927 0.57415 1.07600
Ni	Ni	0.83052 0.99073 0.79451 1.07000
Ni	Ni	0.75339 0.95635 0.94715 1.07500
Ni	Ni	0.74434 0.80129 0.82058 1.05300
Ni	Ni	0.66986 0.04852 0.73576 1.07100
Ni	Ni	0.51969 0.06445 0.97327 1.04200
S 	S 	0.60306 0.79376 0.61716 -0.39600
S 	S 	0.64064 0.95088 0.69713 -0.39800
S 	S 	0.69150 0.97863 0.53179 -0.38300
S 	S 	0.63106 0.08993 0.62409 -0.35300
S 	S 	0.78577 0.03620 0.69176 -0.46900
S 	S 	0.86722 0.95030 0.90762 -0.34300
S 	S 	0.72007 0.01141 0.83969 -0.51000
S 	S 	0.79196 0.89204 0.76515 -0.39200
S 	S 	0.72654 0.85502 0.92280 -0.37700
S 	S 	0.72688 0.73633 0.72466 -0.40200
N 	N 	0.59430 0.84690 0.50590 -0.25000
N 	N 	0.54270 0.93510 0.60630 -0.25700
N 	N 	0.73920 0.87990 0.58370 -0.25600
N 	N 	0.63790 0.20260 0.66930 -0.12600
N 	N 	0.79330 0.13370 0.62690 -0.24500
N 	N 	0.92540 0.05590 0.94280 -0.11900
N 	N 	0.75560 0.04950 0.95560 -0.24500
N 	N 	0.84930 0.79890 0.82030 -0.25400
N 	N 	0.64330 0.82790 0.82400 -0.26300
N 	N 	0.73560 0.71200 0.84640 -0.25500
O 	O 	0.58630 0.66390 0.56850 -0.48000
O 	O 	0.50080 0.14913 0.00520 -0.44900
O 	O 	0.46180 0.05620 0.77590 -0.26700
O 	O 	0.57590 0.05360 0.77390 -0.39200
O 	O 	0.91120 0.99560 0.49390 -0.20500
O 	O 	0.82460 0.04970 0.52840 -0.36800
O 	O 	0.62290 0.18000 0.43990 -0.23800
O 	O 	0.69920 0.12020 0.49490 -0.37900
O 	O 	0.90340 0.16390 0.84170 -0.23800
O 	O 	0.87840 0.07030 0.81700 -0.38200
O 	O 	0.79820 0.93300 0.03860 -0.38100
O 	O 	0.89050 0.91700 0.10880 -0.21700
O 	O 	0.70340 0.21960 0.81860 -0.22700
O 	O 	0.68810 0.13200 0.77100 -0.40500
O 	O 	0.01930 0.92500 0.73580 -0.21900
O 	O 	0.91980 0.96820 0.75370 -0.37300
O 	O 	0.65290 0.96330 0.97310 -0.43900
O 	O 	0.53820 0.97343 0.95380 -0.55000
O 	O 	0.72120 0.53210 0.72010 -0.22300
O 	O 	0.67930 0.61240 0.66730 -0.39900
C 	C 	0.54620 0.68140 0.52190 0.41800
C 	C 	0.55670 0.74340 0.49400 -0.19200
C 	C 	0.54030 0.75470 0.42750 0.11200
H 	H 	0.52170 0.72410 0.40060 0.00900
C 	C 	0.55120 0.81040 0.40110 -0.17700
H 	H 	0.54040 0.81740 0.35670 0.09700
C 	C 	0.57780 0.85500 0.44080 0.10900
H 	H 	0.58500 0.89250 0.42270 -0.00900
C 	C 	0.58330 0.79200 0.53280 0.12600
C 	C 	0.51470 0.03870 0.75010 0.33400
C 	C 	0.50460 0.00030 0.68940 -0.16300
C 	C 	0.43830 0.99950 0.65670 0.09000
H 	H 	0.40260 0.02060 0.67350 0.02000
C 	C 	0.42550 0.96630 0.59760 -0.16800
H 	H 	0.38180 0.96500 0.57540 0.11000
C 	C 	0.47930 0.93680 0.57520 0.11900
H 	H 	0.47190 0.91640 0.53570 -0.00600
C 	C 	0.55620 0.96530 0.66430 0.11300
C 	C 	0.85710 0.00100 0.52350 0.33800
C 	C 	0.83220 0.94410 0.55550 -0.15000
C 	C 	0.87890 0.89980 0.57770 0.08400
H 	H 	0.92610 0.90620 0.57620 0.03700
C 	C 	0.85470 0.84530 0.60230 -0.15500
H 	H 	0.88550 0.81540 0.61760 0.10100
C 	C 	0.78470 0.83750 0.60310 0.10600
H 	H 	0.76840 0.80110 0.61790 -0.02700
C 	C 	0.76180 0.93270 0.55900 0.08700
C 	C 	0.65490 0.16240 0.49100 0.34000
C 	C 	0.64090 0.19690 0.55450 -0.16100
C 	C 	0.63630 0.25850 0.55200 0.08400
H 	H 	0.63430 0.27750 0.51160 0.01300
C 	C 	0.63460 0.29290 0.60780 -0.14200
H 	H 	0.63170 0.33460 0.60570 0.08000
C 	C 	0.63750 0.26270 0.66720 0.08200
H 	H 	0.63900 0.28450 0.70600 0.03100
C 	C 	0.63740 0.16750 0.61490 0.13300
C 	C 	0.87920 0.12620 0.80250 0.36400
C 	C 	0.85260 0.14690 0.73350 -0.15800
C 	C 	0.86660 0.20570 0.71620 0.09700
H 	H 	0.89130 0.23040 0.74640 0.02400
C 	C 	0.84490 0.22810 0.65580 -0.15500
H 	H 	0.85400 0.26780 0.64510 0.09000
C 	C 	0.80900 0.19050 0.61070 0.10500
H 	H 	0.79570 0.20470 0.56880 -0.00000
C 	C 	0.81400 0.11150 0.68690 0.14400
C 	C 	0.85980 0.94440 0.06090 0.33700
C 	C 	0.89720 0.99610 0.03220 -0.16400
C 	C 	0.92950 0.04020 0.07450 0.08500
H 	H 	0.93160 0.03460 0.11950 0.03200
C 	C 	0.95750 0.09080 0.04990 -0.14200
H 	H 	0.97880 0.11920 0.07800 0.09100
C 	C 	0.95400 0.09960 0.98270 0.08900
H 	H 	0.97080 0.13480 0.96530 0.03600
C 	C 	0.89950 0.00420 0.96550 0.13500
C 	C 	0.70740 0.16260 0.82070 0.36000
C 	C 	0.73450 0.13370 0.88410 -0.17400
C 	C 	0.75320 0.17140 0.93700 0.09200
H 	H 	0.75360 0.21280 0.93090 0.02800
C 	C 	0.77090 0.14810 0.99770 -0.15500
H 	H 	0.78330 0.17340 0.03290 0.08800
C 	C 	0.77010 0.08580 0.00650 0.09100
H 	H 	0.77970 0.06970 0.04810 0.00400
C 	C 	0.73760 0.07120 0.89460 0.13500
C 	C 	0.95890 0.92340 0.75520 0.35100
C 	C 	0.93660 0.86490 0.78180 -0.16100
C 	C 	0.98640 0.82120 0.80430 0.08800
H 	H 	0.03290 0.82850 0.79940 0.01700
C 	C 	0.96810 0.76900 0.83300 -0.15800
H 	H 	0.00130 0.74060 0.84690 0.09700
C 	C 	0.89850 0.75920 0.84090 0.10200
H 	H 	0.88570 0.72410 0.86110 -0.00100
C 	C 	0.86670 0.85120 0.79090 0.11300
C 	C 	0.59690 0.94960 0.94200 0.38300
C 	C 	0.59260 0.90400 0.88740 -0.19200
C 	C 	0.53220 0.90060 0.84440 0.11400
H 	H 	0.49480 0.92540 0.85070 -0.00200
C 	C 	0.52850 0.86040 0.79280 -0.18200
H 	H 	0.48850 0.85730 0.76460 0.10600
C 	C 	0.58480 0.82530 0.78420 0.11600
H 	H 	0.58250 0.79850 0.74930 -0.03100
C 	C 	0.64740 0.86470 0.87570 0.11200
C 	C 	0.70650 0.58750 0.71880 0.35300
C 	C 	0.71820 0.62090 0.78330 -0.16800
C 	C 	0.72750 0.58870 0.84210 0.10700
H 	H 	0.72430 0.54710 0.84120 0.02000
C 	C 	0.74100 0.61690 0.89990 -0.17300
H 	H 	0.74890 0.59480 0.93820 0.10400
C 	C 	0.74290 0.68000 0.90160 0.10700
H 	H 	0.74940 0.69960 0.94160 -0.01500
C 	C 	0.72450 0.68400 0.78820 0.11600
Ni	Ni	0.35184 0.19670 0.85630 1.06300
Ni	Ni	0.36514 0.39678 0.91253 1.05000
Ni	Ni	0.26271 0.56927 0.92585 1.07700
Ni	Ni	0.16948 0.49073 0.70549 1.07100
Ni	Ni	0.24661 0.45635 0.55285 1.07500
Ni	Ni	0.25566 0.30129 0.67942 1.05300
Ni	Ni	0.33014 0.54852 0.76424 1.07100
Ni	Ni	0.48031 0.56445 0.52673 1.04200
S 	S 	0.39694 0.29376 0.88284 -0.39600
S 	S 	0.35936 0.45088 0.80287 -0.39800
S 	S 	0.30850 0.47863 0.96821 -0.38300
S 	S 	0.36894 0.58993 0.87591 -0.35300
S 	S 	0.21423 0.53620 0.80824 -0.46900
S 	S 	0.13278 0.45030 0.59238 -0.34200
S 	S 	0.27993 0.51141 0.66031 -0.51000
S 	S 	0.20804 0.39204 0.73485 -0.39200
S 	S 	0.27346 0.35502 0.57720 -0.37700
S 	S 	0.27312 0.23633 0.77534 -0.40200
N 	N 	0.40570 0.34690 0.99410 -0.25000
N 	N 	0.45730 0.43510 0.89370 -0.25700
N 	N 	0.26080 0.37990 0.91630 -0.25600
N 	N 	0.36210 0.70260 0.83070 -0.12600
N 	N 	0.20670 0.63370 0.87310 -0.24500
N 	N 	0.07460 0.55590 0.55720 -0.11900
N 	N 	0.24440 0.54950 0.54440 -0.24600
N 	N 	0.15070 0.29890 0.67970 -0.25400
N 	N 	0.35670 0.32790 0.67600 -0.26300
N 	N 	0.26440 0.21200 0.65360 -0.25500
O 	O 	0.41370 0.16390 0.93150 -0.48000
O 	O 	0.49920 0.64913 0.49480 -0.44800
O 	O 	0.53820 0.55620 0.72410 -0.26700
O 	O 	0.42410 0.55360 0.72610 -0.39200
O 	O 	0.08880 0.49560 0.00610 -0.20400
O 	O 	0.17540 0.54970 0.97160 -0.36800
O 	O 	0.37710 0.68000 0.06010 -0.23800
O 	O 	0.30080 0.62020 0.00510 -0.37900
O 	O 	0.09660 0.66390 0.65830 -0.23900
O 	O 	0.12160 0.57030 0.68300 -0.38200
O 	O 	0.20180 0.43300 0.46140 -0.38000
O 	O 	0.10950 0.41700 0.39120 -0.21700
O 	O 	0.29660 0.71960 0.68140 -0.22800
O 	O 	0.31190 0.63200 0.72900 -0.40500
O 	O 	0.98070 0.42500 0.76420 -0.21800
O 	O 	0.08020 0.46820 0.74630 -0.37300
O 	O 	0.34710 0.46330 0.52690 -0.43900
O 	O 	0.46180 0.47343 0.54620 -0.55000
O 	O 	0.27880 0.03210 0.77990 -0.22300
O 	O 	0.32070 0.11240 0.83270 -0.39900
C 	C 	0.45380 0.18140 0.97810 0.41800
C 	C 	0.44330 0.24340 0.00600 -0.19200
C 	C 	0.45970 0.25470 0.07250 0.11200
H 	H 	0.47830 0.22410 0.09940 0.00900
C 	C 	0.44880 0.31040 0.09890 -0.17700
H 	H 	0.45960 0.31740 0.14330 0.09700
C 	C 	0.42220 0.35500 0.05920 0.11000
H 	H 	0.41500 0.39250 0.07730 -0.00900
C 	C 	0.41670 0.29200 0.96720 0.12600
C 	C 	0.48530 0.53870 0.74990 0.33400
C 	C 	0.49540 0.50030 0.81060 -0.16400
C 	C 	0.56170 0.49950 0.84330 0.09000
H 	H 	0.59740 0.52060 0.82650 0.02000
C 	C 	0.57450 0.46630 0.90240 -0.16800
H 	H 	0.61820 0.46500 0.92460 0.11000
C 	C 	0.52070 0.43680 0.92480 0.11900
H 	H 	0.52810 0.41640 0.96430 -0.00600
C 	C 	0.44380 0.46530 0.83570 0.11300
C 	C 	0.14290 0.50100 0.97650 0.33700
C 	C 	0.16780 0.44410 0.94450 -0.14900
C 	C 	0.12110 0.39980 0.92230 0.08300
H 	H 	0.07390 0.40620 0.92380 0.03700
C 	C 	0.14530 0.34530 0.89770 -0.15500
H 	H 	0.11450 0.31540 0.88240 0.10100
C 	C 	0.21530 0.33750 0.89690 0.10600
H 	H 	0.23160 0.30110 0.88210 -0.02700
C 	C 	0.23820 0.43270 0.94100 0.08700
C 	C 	0.34510 0.66240 0.00900 0.34000
C 	C 	0.35910 0.69690 0.94550 -0.16100
C 	C 	0.36370 0.75850 0.94800 0.08400
H 	H 	0.36570 0.77750 0.98840 0.01300
C 	C 	0.36540 0.79290 0.89220 -0.14300
H 	H 	0.36830 0.83460 0.89430 0.08000
C 	C 	0.36250 0.76270 0.83280 0.08200
H 	H 	0.36100 0.78450 0.79400 0.03100
C 	C 	0.36260 0.66750 0.88510 0.13300
C 	C 	0.12080 0.62620 0.69750 0.36400
C 	C 	0.14740 0.64690 0.76650 -0.15800
C 	C 	0.13340 0.70570 0.78380 0.09700
H 	H 	0.10870 0.73040 0.75360 0.02400
C 	C 	0.15510 0.72810 0.84420 -0.15500
H 	H 	0.14600 0.76780 0.85490 0.09000
C 	C 	0.19100 0.69050 0.88930 0.10500
H 	H 	0.20430 0.70470 0.93120 -0.00000
C 	C 	0.18600 0.61150 0.81310 0.14400
C 	C 	0.14020 0.44440 0.43910 0.33600
C 	C 	0.10280 0.49610 0.46780 -0.16200
C 	C 	0.07050 0.54020 0.42550 0.08300
H 	H 	0.06840 0.53460 0.38050 0.03300
C 	C 	0.04250 0.59080 0.45010 -0.13900
H 	H 	0.02120 0.61920 0.42200 0.09000
C 	C 	0.04600 0.59960 0.51730 0.08700
H 	H 	0.02920 0.63480 0.53470 0.03600
C 	C 	0.10050 0.50420 0.53450 0.13300
C 	C 	0.29260 0.66260 0.67930 0.36000
C 	C 	0.26550 0.63370 0.61590 -0.17500
C 	C 	0.24680 0.67140 0.56300 0.09400
H 	H 	0.24640 0.71280 0.56910 0.02700
C 	C 	0.22910 0.64810 0.50230 -0.15800
H 	H 	0.21670 0.67340 0.46710 0.08900
C 	C 	0.22990 0.58580 0.49350 0.09300
H 	H 	0.22030 0.56970 0.45190 0.00300
C 	C 	0.26240 0.57120 0.60540 0.13500
C 	C 	0.04110 0.42340 0.74480 0.35000
C 	C 	0.06340 0.36490 0.71820 -0.16100
C 	C 	0.01360 0.32120 0.69570 0.08700
H 	H 	0.96710 0.32850 0.70060 0.01800
C 	C 	0.03190 0.26900 0.66700 -0.15900
H 	H 	0.99870 0.24060 0.65310 0.09800
C 	C 	0.10150 0.25920 0.65910 0.10300
H 	H 	0.11430 0.22410 0.63890 -0.00100
C 	C 	0.13330 0.35120 0.70910 0.11300
C 	C 	0.40310 0.44960 0.55800 0.38300
C 	C 	0.40740 0.40400 0.61260 -0.19200
C 	C 	0.46780 0.40060 0.65560 0.11400
H 	H 	0.50520 0.42540 0.64930 -0.00200
C 	C 	0.47150 0.36040 0.70720 -0.18200
H 	H 	0.51150 0.35730 0.73540 0.10600
C 	C 	0.41520 0.32530 0.71580 0.11600
H 	H 	0.41750 0.29850 0.75070 -0.03100
C 	C 	0.35260 0.36470 0.62430 0.11200
C 	C 	0.29350 0.08750 0.78120 0.35300
C 	C 	0.28180 0.12090 0.71670 -0.16800
C 	C 	0.27250 0.08870 0.65790 0.10700
H 	H 	0.27570 0.04710 0.65880 0.02000
C 	C 	0.25900 0.11690 0.60010 -0.17300
H 	H 	0.25110 0.09480 0.56180 0.10300
C 	C 	0.25710 0.18000 0.59840 0.10700
H 	H 	0.25060 0.19960 0.55840 -0.01500
C 	C 	0.27550 0.18400 0.71180 0.11600
Ni	Ni	0.35184 0.30330 0.35630 1.06300
Ni	Ni	0.36514 0.10322 0.41253 1.05000
Ni	Ni	0.26271 0.93073 0.42585 1.07700
Ni	Ni	0.16948 0.00927 0.20549 1.07100
Ni	Ni	0.24661 0.04365 0.05285 1.07500
Ni	Ni	0.25566 0.19871 0.17942 1.05300
Ni	Ni	0.33014 0.95148 0.26424 1.07100
Ni	Ni	0.48031 0.93555 0.02673 1.04200
S 	S 	0.39694 0.20624 0.38284 -0.39600
S 	S 	0.35936 0.04912 0.30287 -0.39800
S 	S 	0.30850 0.02137 0.46821 -0.38300
S 	S 	0.36894 0.91007 0.37591 -0.35300
S 	S 	0.21423 0.96380 0.30824 -0.46900
S 	S 	0.13278 0.04970 0.09238 -0.34300
S 	S 	0.27993 0.98859 0.16031 -0.51000
S 	S 	0.20804 0.10796 0.23485 -0.39200
S 	S 	0.27346 0.14498 0.07720 -0.37700
S 	S 	0.27312 0.26367 0.27534 -0.40200
N 	N 	0.40570 0.15310 0.49410 -0.25000
N 	N 	0.45730 0.06490 0.39370 -0.25700
N 	N 	0.26080 0.12010 0.41630 -0.25600
N 	N 	0.36210 0.79740 0.33070 -0.12600
N 	N 	0.20670 0.86630 0.37310 -0.24500
N 	N 	0.07460 0.94410 0.05720 -0.11900
N 	N 	0.24440 0.95050 0.04440 -0.24500
N 	N 	0.15070 0.20110 0.17970 -0.25400
N 	N 	0.35670 0.17210 0.17600 -0.26300
N 	N 	0.26440 0.28800 0.15360 -0.25500
O 	O 	0.41370 0.33610 0.43150 -0.48000
O 	O 	0.49920 0.85087 0.99480 -0.44900
O 	O 	0.53820 0.94380 0.22410 -0.26700
O 	O 	0.42410 0.94640 0.22610 -0.39200
O 	O 	0.08880 0.00440 0.50610 -0.20500
O 	O 	0.17540 0.95030 0.47160 -0.36800
O 	O 	0.37710 0.82000 0.56010 -0.23800
O 	O 	0.30080 0.87980 0.50510 -0.37900
O 	O 	0.09660 0.83610 0.15830 -0.23800
O 	O 	0.12160 0.92970 0.18300 -0.38200
O 	O 	0.20180 0.06700 0.96140 -0.38100
O 	O 	0.10950 0.08300 0.89120 -0.21700
O 	O 	0.29660 0.78040 0.18140 -0.22700
O 	O 	0.31190 0.86800 0.22900 -0.40500
O 	O 	0.98070 0.07500 0.26420 -0.21900
O 	O 	0.08020 0.03180 0.24630 -0.37300
O 	O 	0.34710 0.03670 0.02690 -0.43900
O 	O 	0.46180 0.02657 0.04620 -0.55000
O 	O 	0.27880 0.46790 0.27990 -0.22300
O 	O 	0.32070 0.38760 0.33270 -0.39900
C 	C 	0.45380 0.31860 0.47810 0.41800
C 	C 	0.44330 0.25660 0.50600 -0.19200
C 	C 	0.45970 0.24530 0.57250 0.11200
H 	H 	0.47830 0.27590 0.59940 0.00900
C 	C 	0.44880 0.18960 0.59890 -0.17700
H 	H 	0.45960 0.18260 0.64330 0.09700
C 	C 	0.42220 0.14500 0.55920 0.10900
H 	H 	0.41500 0.10750 0.57730 -0.00900
C 	C 	0.41670 0.20800 0.46720 0.12600
C 	C 	0.48530 0.96130 0.24990 0.33400
C 	C 	0.49540 0.99970 0.31060 -0.16300
C 	C 	0.56170 0.00050 0.34330 0.09000
H 	H 	0.59740 0.97940 0.32650 0.02000
C 	C 	0.57450 0.03370 0.40240 -0.16800
H 	H 	0.61820 0.03500 0.42460 0.11000
C 	C 	0.52070 0.06320 0.42480 0.11900
H 	H 	0.52810 0.08360 0.46430 -0.00600
C 	C 	0.44380 0.03470 0.33570 0.11300
C 	C 	0.14290 0.99900 0.47650 0.33800
C 	C 	0.16780 0.05590 0.44450 -0.15000
C 	C 	0.12110 0.10020 0.42230 0.08400
H 	H 	0.07390 0.09380 0.42380 0.03700
C 	C 	0.14530 0.15470 0.39770 -0.15500
H 	H 	0.11450 0.18460 0.38240 0.10100
C 	C 	0.21530 0.16250 0.39690 0.10600
H 	H 	0.23160 0.19890 0.38210 -0.02700
C 	C 	0.23820 0.06730 0.44100 0.08700
C 	C 	0.34510 0.83760 0.50900 0.34000
C 	C 	0.35910 0.80310 0.44550 -0.16100
C 	C 	0.36370 0.74150 0.44800 0.08400
H 	H 	0.36570 0.72250 0.48840 0.01300
C 	C 	0.36540 0.70710 0.39220 -0.14200
H 	H 	0.36830 0.66540 0.39430 0.08000
C 	C 	0.36250 0.73730 0.33280 0.08200
H 	H 	0.36100 0.71550 0.29400 0.03100
C 	C 	0.36260 0.83250 0.38510 0.13300
C 	C 	0.12080 0.87380 0.19750 0.36400
C 	C 	0.14740 0.85310 0.26650 -0.15800
C 	C 	0.13340 0.79430 0.28380 0.09700
H 	H 	0.10870 0.76960 0.25360 0.02400
C 	C 	0.15510 0.77190 0.34420 -0.15500
H 	H 	0.14600 0.73220 0.35490 0.09000
C 	C 	0.19100 0.80950 0.38930 0.10500
H 	H 	0.20430 0.79530 0.43120 -0.00000
C 	C 	0.18600 0.88850 0.31310 0.14400
C 	C 	0.14020 0.05560 0.93910 0.33700
C 	C 	0.10280 0.00390 0.96780 -0.16400
C 	C 	0.07050 0.95980 0.92550 0.08500
H 	H 	0.06840 0.96540 0.88050 0.03200
C 	C 	0.04250 0.90920 0.95010 -0.14200
H 	H 	0.02120 0.88080 0.92200 0.09100
C 	C 	0.04600 0.90040 0.01730 0.08900
H 	H 	0.02920 0.86520 0.03470 0.03600
C 	C 	0.10050 0.99580 0.03450 0.13500
C 	C 	0.29260 0.83740 0.17930 0.36000
C 	C 	0.26550 0.86630 0.11590 -0.17400
C 	C 	0.24680 0.82860 0.06300 0.09200
H 	H 	0.24640 0.78720 0.06910 0.02800
C 	C 	0.22910 0.85190 0.00230 -0.15500
H 	H 	0.21670 0.82660 0.96710 0.08800
C 	C 	0.22990 0.91420 0.99350 0.09100
H 	H 	0.22030 0.93030 0.95190 0.00400
C 	C 	0.26240 0.92880 0.10540 0.13500
C 	C 	0.04110 0.07660 0.24480 0.35100
C 	C 	0.06340 0.13510 0.21820 -0.16100
C 	C 	0.01360 0.17880 0.19570 0.08800
H 	H 	0.96710 0.17150 0.20060 0.01700
C 	C 	0.03190 0.23100 0.16700 -0.15800
H 	H 	0.99870 0.25940 0.15310 0.09700
C 	C 	0.10150 0.24080 0.15910 0.10200
H 	H 	0.11430 0.27590 0.13890 -0.00100
C 	C 	0.13330 0.14880 0.20910 0.11300
C 	C 	0.40310 0.05040 0.05800 0.38300
C 	C 	0.40740 0.09600 0.11260 -0.19200
C 	C 	0.46780 0.09940 0.15560 0.11400
H 	H 	0.50520 0.07460 0.14930 -0.00200
C 	C 	0.47150 0.13960 0.20720 -0.18200
H 	H 	0.51150 0.14270 0.23540 0.10600
C 	C 	0.41520 0.17470 0.21580 0.11600
H 	H 	0.41750 0.20150 0.25070 -0.03100
C 	C 	0.35260 0.13530 0.12430 0.11200
C 	C 	0.29350 0.41250 0.28120 0.35300
C 	C 	0.28180 0.37910 0.21670 -0.16800
C 	C 	0.27250 0.41130 0.15790 0.10700
H 	H 	0.27570 0.45290 0.15880 0.02000
C 	C 	0.25900 0.38310 0.10010 -0.17300
H 	H 	0.25110 0.40520 0.06180 0.10400
C 	C 	0.25710 0.32000 0.09840 0.10700
H 	H 	0.25060 0.30040 0.05840 -0.01500
C 	C 	0.27550 0.31600 0.21180 0.11600
Ni	Ni	0.64816 0.80330 0.14370 1.06300
Ni	Ni	0.63486 0.60322 0.08747 1.05000
Ni	Ni	0.73729 0.43073 0.07415 1.07700
Ni	Ni	0.83052 0.50927 0.29451 1.07100
Ni	Ni	0.75339 0.54365 0.44715 1.07500
Ni	Ni	0.74434 0.69871 0.32058 1.05300
Ni	Ni	0.66986 0.45148 0.23576 1.07100
Ni	Ni	0.51969 0.43555 0.47327 1.04200
S 	S 	0.60306 0.70624 0.11716 -0.39600
S 	S 	0.64064 0.54912 0.19713 -0.39800
S 	S 	0.69150 0.52137 0.03179 -0.38300
S 	S 	0.63106 0.41007 0.12409 -0.35300
S 	S 	0.78577 0.46380 0.19176 -0.46900
S 	S 	0.86722 0.54970 0.40762 -0.34200
S 	S 	0.72007 0.48859 0.33969 -0.51000
S 	S 	0.79196 0.60796 0.26515 -0.39200
S 	S 	0.72654 0.64498 0.42280 -0.37700
S 	S 	0.72688 0.76367 0.22466 -0.40200
N 	N 	0.59430 0.65310 0.00590 -0.25000
N 	N 	0.54270 0.56490 0.10630 -0.25700
N 	N 	0.73920 0.62010 0.08370 -0.25600
N 	N 	0.63790 0.29740 0.16930 -0.12600
N 	N 	0.79330 0.36630 0.12690 -0.24500
N 	N 	0.92540 0.44410 0.44280 -0.11900
N 	N 	0.75560 0.45050 0.45560 -0.24600
N 	N 	0.84930 0.70110 0.32030 -0.25400
N 	N 	0.64330 0.67210 0.32400 -0.26300
N 	N 	0.73560 0.78800 0.34640 -0.25500
O 	O 	0.58630 0.83610 0.06850 -0.48000
O 	O 	0.50080 0.35087 0.50520 -0.44800
O 	O 	0.46180 0.44380 0.27590 -0.26700
O 	O 	0.57590 0.44640 0.27390 -0.39200
O 	O 	0.91120 0.50440 0.99390 -0.20400
O 	O 	0.82460 0.45030 0.02840 -0.36800
O 	O 	0.62290 0.32000 0.93990 -0.23800
O 	O 	0.69920 0.37980 0.99490 -0.37900
O 	O 	0.90340 0.33610 0.34170 -0.23900
O 	O 	0.87840 0.42970 0.31700 -0.38200
O 	O 	0.79820 0.56700 0.53860 -0.38000
O 	O 	0.89050 0.58300 0.60880 -0.21700
O 	O 	0.70340 0.28040 0.31860 -0.22800
O 	O 	0.68810 0.36800 0.27100 -0.40500
O 	O 	0.01930 0.57500 0.23580 -0.21800
O 	O 	0.91980 0.53180 0.25370 -0.37300
O 	O 	0.65290 0.53670 0.47310 -0.43900
O 	O 	0.53820 0.52657 0.45380 -0.55000
O 	O 	0.72120 0.96790 0.22010 -0.22300
O 	O 	0.67930 0.88760 0.16730 -0.39900
C 	C 	0.54620 0.81860 0.02190 0.41800
C 	C 	0.55670 0.75660 0.99400 -0.19200
C 	C 	0.54030 0.74530 0.92750 0.11200
H 	H 	0.52170 0.77590 0.90060 0.00900
C 	C 	0.55120 0.68960 0.90110 -0.17700
H 	H 	0.54040 0.68260 0.85670 0.09700
C 	C 	0.57780 0.64500 0.94080 0.11000
H 	H 	0.58500 0.60750 0.92270 -0.00900
C 	C 	0.58330 0.70800 0.03280 0.12600
C 	C 	0.51470 0.46130 0.25010 0.33400
C 	C 	0.50460 0.49970 0.18940 -0.16400
C 	C 	0.43830 0.50050 0.15670 0.09000
H 	H 	0.40260 0.47940 0.17350 0.02000
C 	C 	0.42550 0.53370 0.09760 -0.16800
H 	H 	0.38180 0.53500 0.07540 0.11000
C 	C 	0.47930 0.56320 0.07520 0.11900
H 	H 	0.47190 0.58360 0.03570 -0.00600
C 	C 	0.55620 0.53470 0.16430 0.11300
C 	C 	0.85710 0.49900 0.02350 0.33700
C 	C 	0.83220 0.55590 0.05550 -0.14900
C 	C 	0.87890 0.60020 0.07770 0.08300
H 	H 	0.92610 0.59380 0.07620 0.03700
C 	C 	0.85470 0.65470 0.10230 -0.15500
H 	H 	0.88550 0.68460 0.11760 0.10100
C 	C 	0.78470 0.66250 0.10310 0.10600
H 	H 	0.76840 0.69890 0.11790 -0.02700
C 	C 	0.76180 0.56730 0.05900 0.08700
C 	C 	0.65490 0.33760 0.99100 0.34000
C 	C 	0.64090 0.30310 0.05450 -0.16100
C 	C 	0.63630 0.24150 0.05200 0.08400
H 	H 	0.63430 0.22250 0.01160 0.01300
C 	C 	0.63460 0.20710 0.10780 -0.14300
H 	H 	0.63170 0.16540 0.10570 0.08000
C 	C 	0.63750 0.23730 0.16720 0.08200
H 	H 	0.63900 0.21550 0.20600 0.03100
C 	C 	0.63740 0.33250 0.11490 0.13300
C 	C 	0.87920 0.37380 0.30250 0.36400
C 	C 	0.85260 0.35310 0.23350 -0.15800
C 	C 	0.86660 0.29430 0.21620 0.09700
H 	H 	0.89130 0.26960 0.24640 0.02400
C 	C 	0.84490 0.27190 0.15580 -0.15500
H 	H 	0.85400 0.23220 0.14510 0.09000
C 	C 	0.80900 0.30950 0.11070 0.10500
H 	H 	0.79570 0.29530 0.06880 -0.00000
C 	C 	0.81400 0.38850 0.18690 0.14400
C 	C 	0.85980 0.55560 0.56090 0.33600
C 	C 	0.89720 0.50390 0.53220 -0.16200
C 	C 	0.92950 0.45980 0.57450 0.08300
H 	H 	0.93160 0.46540 0.61950 0.03300
C 	C 	0.95750 0.40920 0.54990 -0.13900
H 	H 	0.97880 0.38080 0.57800 0.09000
C 	C 	0.95400 0.40040 0.48270 0.08700
H 	H 	0.97080 0.36520 0.46530 0.03600
C 	C 	0.89950 0.49580 0.46550 0.13300
C 	C 	0.70740 0.33740 0.32070 0.36000
C 	C 	0.73450 0.36630 0.38410 -0.17500
C 	C 	0.75320 0.32860 0.43700 0.09400
H 	H 	0.75360 0.28720 0.43090 0.02700
C 	C 	0.77090 0.35190 0.49770 -0.15800
H 	H 	0.78330 0.32660 0.53290 0.08900
C 	C 	0.77010 0.41420 0.50650 0.09300
H 	H 	0.77970 0.43030 0.54810 0.00300
C 	C 	0.73760 0.42880 0.39460 0.13500
C 	C 	0.95890 0.57660 0.25520 0.35000
C 	C 	0.93660 0.63510 0.28180 -0.16100
C 	C 	0.98640 0.67880 0.30430 0.08700
H 	H 	0.03290 0.67150 0.29940 0.01800
C 	C 	0.96810 0.73100 0.33300 -0.15900
H 	H 	0.00130 0.75940 0.34690 0.09800
C 	C 	0.89850 0.74080 0.34090 0.10300
H 	H 	0.88570 0.77590 0.36110 -0.00100
C 	C 	0.86670 0.64880 0.29090 0.11300
C 	C 	0.59690 0.55040 0.44200 0.38300
C 	C 	0.59260 0.59600 0.38740 -0.19200
C 	C 	0.53220 0.59940 0.34440 0.11400
H 	H 	0.49480 0.57460 0.35070 -0.00200
C 	C 	0.52850 0.63960 0.29280 -0.18200
H 	H 	0.48850 0.64270 0.26460 0.10600
C 	C 	0.58480 0.67470 0.28420 0.11600
H 	H 	0.58250 0.70150 0.24930 -0.03100
C 	C 	0.64740 0.63530 0.37570 0.11200
C 	C 	0.70650 0.91250 0.21880 0.35300
C 	C 	0.71820 0.87910 0.28330 -0.16800
C 	C 	0.72750 0.91130 0.34210 0.10700
H 	H 	0.72430 0.95290 0.34120 0.02000
C 	C 	0.74100 0.88310 0.39990 -0.17300
H 	H 	0.74890 0.90520 0.43820 0.10300
C 	C 	0.74290 0.82000 0.40160 0.10700
H 	H 	0.74940 0.80040 0.44160 -0.01500
C 	C 	0.72450 0.81600 0.28820 0.11600
