data_crystal

_cell_length_a 19.18680
_cell_length_b 18.46250
_cell_length_c 11.50760
_cell_angle_alpha 90.00000
_cell_angle_beta  112.92300
_cell_angle_gamma 90.00000

_symmetry_space_group_name_	'P 1'
_symmetry_space_group_name_H-M	'P 1'

loop_
_symmetry_equiv_pos_as_xyz
  x,y,z

loop_
_atom_site_label
_atom_site_type_symbol
_atom_site_fract_x
_atom_site_fract_y
_atom_site_fract_z
_atom_site_charge
C 	C 	0.41087 0.28897 0.29436 0.41100
C 	C 	0.35790 0.24655 0.33561 -0.09100
C 	C 	0.28880 0.22378 0.24773 0.00500
H 	H 	0.27470 0.23530 0.16110 0.04300
C 	C 	0.23995 0.18410 0.28595 -0.06700
C 	C 	0.26033 0.16796 0.41326 -0.07600
H 	H 	0.22710 0.14110 0.44010 0.07300
C 	C 	0.32929 0.19133 0.50004 0.09500
C 	C 	0.37877 0.23044 0.46333 -0.07000
H 	H 	0.42610 0.24610 0.52400 0.07900
C 	C 	0.16553 0.15756 0.19160 0.33900
C 	C 	0.32590 0.12951 0.79172 -0.17400
C 	C 	0.39994 0.14719 0.88863 0.34100
C 	C 	0.41310 0.13382 0.02497 -0.63500
H 	H 	0.39820 0.17760 0.05940 0.21600
H 	H 	0.46780 0.12560 0.07370 0.20000
C 	C 	0.36898 0.06901 0.04279 0.68300
C 	C 	0.28508 0.08104 0.96180 -0.62800
H 	H 	0.25640 0.03800 0.96930 0.19500
H 	H 	0.26710 0.12300 0.99600 0.20400
C 	C 	0.26730 0.09446 0.82381 0.34300
C 	C 	0.39653 0.99917 0.00410 -0.95100
H 	H 	0.36760 0.95810 0.01610 0.30200
H 	H 	0.38930 0.00220 0.91510 0.28700
H 	H 	0.45040 0.99230 0.05620 0.28200
C 	C 	0.37888 0.06249 0.18080 -0.95900
H 	H 	0.36140 0.10710 0.20680 0.29500
H 	H 	0.34920 0.02140 0.19020 0.29200
H 	H 	0.43250 0.05480 0.23370 0.27200
N 	N 	0.35214 0.17535 0.63015 -0.17000
N 	N 	0.30574 0.14301 0.66930 -0.03700
O 	O 	0.46950 0.31251 0.37999 -0.53200
O 	O 	0.39180 0.29773 0.17813 -0.50000
O 	O 	0.12362 0.12446 0.23310 -0.31600
O 	O 	0.15153 0.17108 0.07708 -0.46600
O 	O 	0.45014 0.17273 0.85959 -0.29000
O 	O 	0.20536 0.07738 0.74406 -0.31200
Zn	Zn	0.56673 0.36286 0.42040 1.17300
H 	H 	0.39840 0.18940 0.68500 0.14500
C 	C 	0.58913 0.28897 0.20564 0.41100
C 	C 	0.64210 0.24655 0.16439 -0.09000
C 	C 	0.71120 0.22378 0.25227 0.00400
H 	H 	0.72530 0.23530 0.33890 0.04300
C 	C 	0.76005 0.18410 0.21405 -0.06600
C 	C 	0.73967 0.16796 0.08674 -0.07800
H 	H 	0.77290 0.14110 0.05990 0.07300
C 	C 	0.67071 0.19133 0.99996 0.09700
C 	C 	0.62123 0.23044 0.03667 -0.07300
H 	H 	0.57390 0.24610 0.97600 0.08000
C 	C 	0.83447 0.15756 0.30840 0.33900
C 	C 	0.67410 0.12951 0.70828 -0.17400
C 	C 	0.60006 0.14719 0.61137 0.34100
C 	C 	0.58690 0.13382 0.47503 -0.63500
H 	H 	0.60180 0.17760 0.44060 0.21600
H 	H 	0.53220 0.12560 0.42630 0.20000
C 	C 	0.63102 0.06901 0.45721 0.68300
C 	C 	0.71492 0.08104 0.53820 -0.62800
H 	H 	0.74360 0.03800 0.53070 0.19500
H 	H 	0.73290 0.12300 0.50400 0.20400
C 	C 	0.73270 0.09446 0.67619 0.34300
C 	C 	0.60347 0.99917 0.49590 -0.95200
H 	H 	0.63240 0.95810 0.48390 0.30200
H 	H 	0.61070 0.00220 0.58490 0.28800
H 	H 	0.54960 0.99230 0.44380 0.28200
C 	C 	0.62112 0.06249 0.31920 -0.96000
H 	H 	0.63860 0.10710 0.29320 0.29500
H 	H 	0.65080 0.02140 0.30980 0.29200
H 	H 	0.56750 0.05480 0.26630 0.27200
N 	N 	0.64786 0.17535 0.86985 -0.17000
N 	N 	0.69426 0.14301 0.83070 -0.03700
O 	O 	0.53050 0.31251 0.12001 -0.53200
O 	O 	0.60820 0.29773 0.32187 -0.49900
O 	O 	0.87638 0.12446 0.26690 -0.31700
O 	O 	0.84847 0.17108 0.42292 -0.46600
O 	O 	0.54986 0.17273 0.64041 -0.29000
O 	O 	0.79464 0.07738 0.75594 -0.31200
Zn	Zn	0.43327 0.36286 0.07960 1.17300
H 	H 	0.60160 0.18940 0.81500 0.14500
C 	C 	0.08913 0.21103 0.70564 0.41100
C 	C 	0.14210 0.25345 0.66439 -0.09100
C 	C 	0.21120 0.27622 0.75227 0.00500
H 	H 	0.22530 0.26470 0.83890 0.04200
C 	C 	0.26005 0.31590 0.71405 -0.06700
C 	C 	0.23967 0.33204 0.58674 -0.07600
H 	H 	0.27290 0.35890 0.55990 0.07200
C 	C 	0.17071 0.30867 0.49996 0.09500
C 	C 	0.12123 0.26956 0.53667 -0.07000
H 	H 	0.07390 0.25390 0.47600 0.07900
C 	C 	0.33447 0.34244 0.80840 0.34000
C 	C 	0.17410 0.37049 0.20828 -0.17400
C 	C 	0.10006 0.35281 0.11137 0.34300
C 	C 	0.08690 0.36618 0.97503 -0.63800
H 	H 	0.10180 0.32240 0.94060 0.21700
H 	H 	0.03220 0.37440 0.92630 0.20000
C 	C 	0.13102 0.43099 0.95721 0.68500
C 	C 	0.21492 0.41896 0.03820 -0.62800
H 	H 	0.24360 0.46200 0.03070 0.19500
H 	H 	0.23290 0.37700 0.00400 0.20400
C 	C 	0.23270 0.40554 0.17619 0.34400
C 	C 	0.10347 0.50083 0.99590 -0.95800
H 	H 	0.13240 0.54190 0.98390 0.30300
H 	H 	0.11070 0.49780 0.08490 0.29000
H 	H 	0.04960 0.50770 0.94380 0.28300
C 	C 	0.12112 0.43751 0.81920 -0.96100
H 	H 	0.13860 0.39290 0.79320 0.29500
H 	H 	0.15080 0.47860 0.80980 0.29200
H 	H 	0.06750 0.44520 0.76630 0.27300
N 	N 	0.14786 0.32465 0.36985 -0.17000
N 	N 	0.19426 0.35699 0.33070 -0.03700
O 	O 	0.03050 0.18749 0.62001 -0.53200
O 	O 	0.10820 0.20227 0.82187 -0.50000
O 	O 	0.37638 0.37554 0.76690 -0.31700
O 	O 	0.34847 0.32892 0.92292 -0.46600
O 	O 	0.04986 0.32727 0.14041 -0.28900
O 	O 	0.29464 0.42262 0.25594 -0.31200
Zn	Zn	0.93327 0.13714 0.57960 1.17400
H 	H 	0.10160 0.31060 0.31500 0.14500
C 	C 	0.91087 0.21103 0.79436 0.41200
C 	C 	0.85790 0.25345 0.83561 -0.09500
C 	C 	0.78880 0.27622 0.74773 0.00800
H 	H 	0.77470 0.26470 0.66110 0.04200
C 	C 	0.73995 0.31590 0.78595 -0.07000
C 	C 	0.76033 0.33204 0.91326 -0.07100
H 	H 	0.72710 0.35890 0.94010 0.07100
C 	C 	0.82929 0.30867 0.00004 0.08900
C 	C 	0.87877 0.26956 0.96333 -0.06200
H 	H 	0.92610 0.25390 0.02400 0.07500
C 	C 	0.66553 0.34244 0.69160 0.34100
C 	C 	0.82590 0.37049 0.29172 -0.17400
C 	C 	0.89994 0.35281 0.38863 0.34100
C 	C 	0.91310 0.36618 0.52497 -0.63600
H 	H 	0.89820 0.32240 0.55940 0.21700
H 	H 	0.96780 0.37440 0.57370 0.20000
C 	C 	0.86898 0.43099 0.54279 0.68400
C 	C 	0.78508 0.41896 0.46180 -0.62900
H 	H 	0.75640 0.46200 0.46930 0.19500
H 	H 	0.76710 0.37700 0.49600 0.20400
C 	C 	0.76730 0.40554 0.32381 0.34300
C 	C 	0.89653 0.50083 0.50410 -0.95300
H 	H 	0.86760 0.54190 0.51610 0.30200
H 	H 	0.88930 0.49780 0.41510 0.28800
H 	H 	0.95040 0.50770 0.55620 0.28200
C 	C 	0.87888 0.43751 0.68080 -0.96100
H 	H 	0.86140 0.39290 0.70680 0.29500
H 	H 	0.84920 0.47860 0.69020 0.29200
H 	H 	0.93250 0.44520 0.73370 0.27300
N 	N 	0.85214 0.32465 0.13015 -0.16900
N 	N 	0.80574 0.35699 0.16930 -0.03700
O 	O 	0.96950 0.18749 0.87999 -0.53100
O 	O 	0.89180 0.20227 0.67813 -0.50000
O 	O 	0.62362 0.37554 0.73310 -0.31700
O 	O 	0.65153 0.32892 0.57708 -0.46600
O 	O 	0.95014 0.32727 0.35959 -0.29000
O 	O 	0.70536 0.42262 0.24406 -0.31200
Zn	Zn	0.06673 0.13714 0.92040 1.17300
H 	H 	0.89840 0.31060 0.18500 0.14500
C 	C 	0.91087 0.78897 0.29436 0.41100
C 	C 	0.85790 0.74655 0.33561 -0.09100
C 	C 	0.78880 0.72378 0.24773 0.00500
H 	H 	0.77470 0.73530 0.16110 0.04200
C 	C 	0.73995 0.68410 0.28595 -0.06700
C 	C 	0.76033 0.66796 0.41326 -0.07600
H 	H 	0.72710 0.64110 0.44010 0.07200
C 	C 	0.82929 0.69133 0.50004 0.09500
C 	C 	0.87877 0.73044 0.46333 -0.07000
H 	H 	0.92610 0.74610 0.52400 0.07900
C 	C 	0.66553 0.65756 0.19160 0.34000
C 	C 	0.82590 0.62951 0.79172 -0.17400
C 	C 	0.89994 0.64719 0.88863 0.34300
C 	C 	0.91310 0.63382 0.02497 -0.63800
H 	H 	0.89820 0.67760 0.05940 0.21700
H 	H 	0.96780 0.62560 0.07370 0.20000
C 	C 	0.86898 0.56901 0.04279 0.68500
C 	C 	0.78508 0.58104 0.96180 -0.62800
H 	H 	0.75640 0.53800 0.96930 0.19500
H 	H 	0.76710 0.62300 0.99600 0.20400
C 	C 	0.76730 0.59446 0.82381 0.34400
C 	C 	0.89653 0.49917 0.00410 -0.95800
H 	H 	0.86760 0.45810 0.01610 0.30300
H 	H 	0.88930 0.50220 0.91510 0.29000
H 	H 	0.95040 0.49230 0.05620 0.28300
C 	C 	0.87888 0.56249 0.18080 -0.96100
H 	H 	0.86140 0.60710 0.20680 0.29500
H 	H 	0.84920 0.52140 0.19020 0.29200
H 	H 	0.93250 0.55480 0.23370 0.27300
N 	N 	0.85214 0.67535 0.63015 -0.17000
N 	N 	0.80574 0.64301 0.66930 -0.03700
O 	O 	0.96950 0.81251 0.37999 -0.53200
O 	O 	0.89180 0.79773 0.17813 -0.50000
O 	O 	0.62362 0.62446 0.23310 -0.31700
O 	O 	0.65153 0.67108 0.07708 -0.46600
O 	O 	0.95014 0.67273 0.85959 -0.28900
O 	O 	0.70536 0.57738 0.74406 -0.31200
Zn	Zn	0.06673 0.86286 0.42040 1.17400
H 	H 	0.89840 0.68940 0.68500 0.14500
C 	C 	0.08913 0.78897 0.20564 0.41200
C 	C 	0.14210 0.74655 0.16439 -0.09500
C 	C 	0.21120 0.72378 0.25227 0.00800
H 	H 	0.22530 0.73530 0.33890 0.04200
C 	C 	0.26005 0.68410 0.21405 -0.07000
C 	C 	0.23967 0.66796 0.08674 -0.07100
H 	H 	0.27290 0.64110 0.05990 0.07100
C 	C 	0.17071 0.69133 0.99996 0.08900
C 	C 	0.12123 0.73044 0.03667 -0.06200
H 	H 	0.07390 0.74610 0.97600 0.07500
C 	C 	0.33447 0.65756 0.30840 0.34100
C 	C 	0.17410 0.62951 0.70828 -0.17400
C 	C 	0.10006 0.64719 0.61137 0.34100
C 	C 	0.08690 0.63382 0.47503 -0.63600
H 	H 	0.10180 0.67760 0.44060 0.21700
H 	H 	0.03220 0.62560 0.42630 0.20000
C 	C 	0.13102 0.56901 0.45721 0.68400
C 	C 	0.21492 0.58104 0.53820 -0.62900
H 	H 	0.24360 0.53800 0.53070 0.19500
H 	H 	0.23290 0.62300 0.50400 0.20400
C 	C 	0.23270 0.59446 0.67619 0.34300
C 	C 	0.10347 0.49917 0.49590 -0.95300
H 	H 	0.13240 0.45810 0.48390 0.30200
H 	H 	0.11070 0.50220 0.58490 0.28800
H 	H 	0.04960 0.49230 0.44380 0.28200
C 	C 	0.12112 0.56249 0.31920 -0.96100
H 	H 	0.13860 0.60710 0.29320 0.29500
H 	H 	0.15080 0.52140 0.30980 0.29200
H 	H 	0.06750 0.55480 0.26630 0.27300
N 	N 	0.14786 0.67535 0.86985 -0.16900
N 	N 	0.19426 0.64301 0.83070 -0.03700
O 	O 	0.03050 0.81251 0.12001 -0.53100
O 	O 	0.10820 0.79773 0.32187 -0.50000
O 	O 	0.37638 0.62446 0.26690 -0.31700
O 	O 	0.34847 0.67108 0.42292 -0.46600
O 	O 	0.04986 0.67273 0.64041 -0.29000
O 	O 	0.29464 0.57738 0.75594 -0.31200
Zn	Zn	0.93327 0.86286 0.07960 1.17300
H 	H 	0.10160 0.68940 0.81500 0.14500
C 	C 	0.58913 0.71103 0.70564 0.41100
C 	C 	0.64210 0.75345 0.66439 -0.09100
C 	C 	0.71120 0.77622 0.75227 0.00500
H 	H 	0.72530 0.76470 0.83890 0.04300
C 	C 	0.76005 0.81590 0.71405 -0.06700
C 	C 	0.73967 0.83204 0.58674 -0.07600
H 	H 	0.77290 0.85890 0.55990 0.07300
C 	C 	0.67071 0.80867 0.49996 0.09500
C 	C 	0.62123 0.76956 0.53667 -0.07000
H 	H 	0.57390 0.75390 0.47600 0.07900
C 	C 	0.83447 0.84244 0.80840 0.33900
C 	C 	0.67410 0.87049 0.20828 -0.17400
C 	C 	0.60006 0.85281 0.11137 0.34100
C 	C 	0.58690 0.86618 0.97503 -0.63500
H 	H 	0.60180 0.82240 0.94060 0.21600
H 	H 	0.53220 0.87440 0.92630 0.20000
C 	C 	0.63102 0.93099 0.95721 0.68300
C 	C 	0.71492 0.91896 0.03820 -0.62800
H 	H 	0.74360 0.96200 0.03070 0.19500
H 	H 	0.73290 0.87700 0.00400 0.20400
C 	C 	0.73270 0.90554 0.17619 0.34300
C 	C 	0.60347 0.00083 0.99590 -0.95100
H 	H 	0.63240 0.04190 0.98390 0.30200
H 	H 	0.61070 0.99780 0.08490 0.28700
H 	H 	0.54960 0.00770 0.94380 0.28200
C 	C 	0.62112 0.93751 0.81920 -0.95900
H 	H 	0.63860 0.89290 0.79320 0.29500
H 	H 	0.65080 0.97860 0.80980 0.29200
H 	H 	0.56750 0.94520 0.76630 0.27200
N 	N 	0.64786 0.82465 0.36985 -0.17000
N 	N 	0.69426 0.85699 0.33070 -0.03700
O 	O 	0.53050 0.68749 0.62001 -0.53200
O 	O 	0.60820 0.70227 0.82187 -0.50000
O 	O 	0.87638 0.87554 0.76690 -0.31600
O 	O 	0.84847 0.82892 0.92292 -0.46600
O 	O 	0.54986 0.82727 0.14041 -0.29000
O 	O 	0.79464 0.92262 0.25594 -0.31200
Zn	Zn	0.43327 0.63714 0.57960 1.17300
H 	H 	0.60160 0.81060 0.31500 0.14500
C 	C 	0.41087 0.71103 0.79436 0.41100
C 	C 	0.35790 0.75345 0.83561 -0.09000
C 	C 	0.28880 0.77622 0.74773 0.00400
H 	H 	0.27470 0.76470 0.66110 0.04300
C 	C 	0.23995 0.81590 0.78595 -0.06600
C 	C 	0.26033 0.83204 0.91326 -0.07800
H 	H 	0.22710 0.85890 0.94010 0.07300
C 	C 	0.32929 0.80867 0.00004 0.09700
C 	C 	0.37877 0.76956 0.96333 -0.07300
H 	H 	0.42610 0.75390 0.02400 0.08000
C 	C 	0.16553 0.84244 0.69160 0.33900
C 	C 	0.32590 0.87049 0.29172 -0.17400
C 	C 	0.39994 0.85281 0.38863 0.34100
C 	C 	0.41310 0.86618 0.52497 -0.63500
H 	H 	0.39820 0.82240 0.55940 0.21600
H 	H 	0.46780 0.87440 0.57370 0.20000
C 	C 	0.36898 0.93099 0.54279 0.68300
C 	C 	0.28508 0.91896 0.46180 -0.62800
H 	H 	0.25640 0.96200 0.46930 0.19500
H 	H 	0.26710 0.87700 0.49600 0.20400
C 	C 	0.26730 0.90554 0.32381 0.34300
C 	C 	0.39653 0.00083 0.50410 -0.95200
H 	H 	0.36760 0.04190 0.51610 0.30200
H 	H 	0.38930 0.99780 0.41510 0.28800
H 	H 	0.45040 0.00770 0.55620 0.28200
C 	C 	0.37888 0.93751 0.68080 -0.96000
H 	H 	0.36140 0.89290 0.70680 0.29500
H 	H 	0.34920 0.97860 0.69020 0.29200
H 	H 	0.43250 0.94520 0.73370 0.27200
N 	N 	0.35214 0.82465 0.13015 -0.17000
N 	N 	0.30574 0.85699 0.16930 -0.03700
O 	O 	0.46950 0.68749 0.87999 -0.53200
O 	O 	0.39180 0.70227 0.67813 -0.49900
O 	O 	0.12362 0.87554 0.73310 -0.31700
O 	O 	0.15153 0.82892 0.57708 -0.46600
O 	O 	0.45014 0.82727 0.35959 -0.29000
O 	O 	0.20536 0.92262 0.24406 -0.31200
Zn	Zn	0.56673 0.63714 0.92040 1.17300
H 	H 	0.39840 0.81060 0.18500 0.14500
