data_crystal

_cell_length_a 10.72280
_cell_length_b 16.77400
_cell_length_c 19.61910
_cell_angle_alpha 90.00000
_cell_angle_beta  120.92400
_cell_angle_gamma 90.00000

_symmetry_space_group_name_	'P 1'
_symmetry_space_group_name_H-M	'P 1'

loop_
_symmetry_equiv_pos_as_xyz
  x,y,z

loop_
_atom_site_label
_atom_site_type_symbol
_atom_site_fract_x
_atom_site_fract_y
_atom_site_fract_z
_atom_site_charge
C 	C 	0.63720 0.19210 0.26840 0.07000
H 	H 	0.67330 0.24090 0.26380 -0.03400
C 	C 	0.51480 0.10370 0.28760 0.00300
H 	H 	0.44800 0.07990 0.29790 0.01000
C 	C 	0.61060 0.06410 0.27440 -0.01700
H 	H 	0.62250 0.00920 0.27480 0.01300
C 	C 	0.81400 0.10720 0.25310 -0.14700
H 	H 	0.84350 0.05210 0.26730 0.07600
H 	H 	0.89270 0.14030 0.29200 0.07600
C 	C 	0.79770 0.12300 0.17150 0.12200
C 	C 	0.66730 0.07730 0.10360 -0.14700
H 	H 	0.57930 0.09520 0.10150 0.08000
H 	H 	0.65950 0.09210 0.05380 0.07700
C 	C 	0.59970 0.94440 0.13300 0.06900
H 	H 	0.53650 0.96390 0.14830 -0.02700
C 	C 	0.72410 0.86520 0.10550 0.01600
H 	H 	0.76500 0.81890 0.09930 0.01000
C 	C 	0.75020 0.93940 0.08980 -0.03000
H 	H 	0.80890 0.95340 0.06960 0.03000
C 	C 	0.93930 0.09380 0.17660 -0.16700
H 	H 	0.94300 0.03610 0.18080 0.08100
H 	H 	0.93480 0.10750 0.12740 0.08300
C 	C 	0.15060 0.09820 0.31970 0.05700
H 	H 	0.12310 0.05640 0.34040 0.00700
C 	C 	0.15560 0.18520 0.23940 -0.27100
H 	H 	0.12960 0.21410 0.19350 0.10000
C 	C 	0.76980 0.21300 0.15250 -0.14800
H 	H 	0.68920 0.22910 0.15860 0.07200
H 	H 	0.85500 0.24220 0.19150 0.07800
C 	C 	0.83080 0.26250 0.05010 -0.01100
H 	H 	0.93030 0.27070 0.08260 0.02100
C 	C 	0.75040 0.27380 0.97110 -0.01300
H 	H 	0.78650 0.29130 0.93950 0.01300
C 	C 	0.60330 0.23510 0.00750 0.07600
H 	H 	0.51920 0.22130 0.00740 -0.00800
Co	Co	0.44620 0.27470 0.32310 1.16500
N 	N 	0.53150 0.18400 0.28330 -0.25100
N 	N 	0.68680 0.12120 0.26040 -0.10500
N 	N 	0.07480 0.12640 0.24320 -0.05800
C 	C 	0.27520 0.19770 0.30760 0.38500
H 	H 	0.34640 0.23550 0.31850 -0.49000
N 	N 	0.73720 0.23640 0.07320 -0.10600
N 	N 	0.60650 0.25580 0.94360 -0.23100
N 	N 	0.67280 0.99040 0.10940 -0.10000
N 	N 	0.62820 0.86820 0.13200 -0.24200
N 	N 	0.27390 0.14300 0.35980 -0.19100
C 	C 	0.36280 0.69210 0.23160 0.07100
H 	H 	0.32670 0.74090 0.23620 -0.03300
C 	C 	0.48520 0.60370 0.21240 0.00400
H 	H 	0.55200 0.57990 0.20210 0.01100
C 	C 	0.38940 0.56410 0.22560 -0.01600
H 	H 	0.37750 0.50920 0.22520 0.01400
C 	C 	0.18600 0.60720 0.24690 -0.14700
H 	H 	0.15650 0.55210 0.23270 0.07600
H 	H 	0.10730 0.64030 0.20800 0.07600
C 	C 	0.20230 0.62300 0.32850 0.12200
C 	C 	0.33270 0.57730 0.39640 -0.14700
H 	H 	0.42070 0.59520 0.39850 0.08000
H 	H 	0.34050 0.59210 0.44620 0.07700
C 	C 	0.40030 0.44440 0.36700 0.06900
H 	H 	0.46350 0.46390 0.35170 -0.02700
C 	C 	0.27590 0.36520 0.39450 0.01600
H 	H 	0.23500 0.31890 0.40070 0.01000
C 	C 	0.24980 0.43940 0.41020 -0.03000
H 	H 	0.19110 0.45340 0.43040 0.03000
C 	C 	0.06070 0.59380 0.32340 -0.16700
H 	H 	0.05700 0.53610 0.31920 0.08100
H 	H 	0.06520 0.60750 0.37260 0.08300
C 	C 	0.84940 0.59820 0.18030 0.05700
H 	H 	0.87690 0.55640 0.15960 0.00700
C 	C 	0.84440 0.68520 0.26060 -0.27100
H 	H 	0.87040 0.71410 0.30650 0.10000
C 	C 	0.23020 0.71300 0.34750 -0.14800
H 	H 	0.31080 0.72910 0.34140 0.07200
H 	H 	0.14500 0.74220 0.30850 0.07800
C 	C 	0.16920 0.76250 0.44990 -0.01100
H 	H 	0.06970 0.77070 0.41740 0.02000
C 	C 	0.24960 0.77380 0.52890 -0.01300
H 	H 	0.21350 0.79130 0.56050 0.01300
C 	C 	0.39670 0.73510 0.49250 0.07600
H 	H 	0.48080 0.72130 0.49260 -0.00800
Co	Co	0.55380 0.77470 0.17690 1.16500
N 	N 	0.46850 0.68400 0.21670 -0.25100
N 	N 	0.31320 0.62120 0.23960 -0.10500
N 	N 	0.92520 0.62640 0.25680 -0.05800
C 	C 	0.72480 0.69770 0.19240 0.38500
H 	H 	0.65360 0.73550 0.18150 -0.49000
N 	N 	0.26280 0.73640 0.42680 -0.10600
N 	N 	0.39350 0.75580 0.55640 -0.23100
N 	N 	0.32720 0.49040 0.39060 -0.10000
N 	N 	0.37180 0.36820 0.36800 -0.24200
N 	N 	0.72610 0.64300 0.14020 -0.19100
C 	C 	0.36280 0.80790 0.73160 0.07100
H 	H 	0.32670 0.75910 0.73620 -0.03300
C 	C 	0.48520 0.89630 0.71240 0.00400
H 	H 	0.55200 0.92010 0.70210 0.01100
C 	C 	0.38940 0.93590 0.72560 -0.01600
H 	H 	0.37750 0.99080 0.72520 0.01400
C 	C 	0.18600 0.89280 0.74690 -0.14700
H 	H 	0.15650 0.94790 0.73270 0.07600
H 	H 	0.10730 0.85970 0.70800 0.07600
C 	C 	0.20230 0.87700 0.82850 0.12200
C 	C 	0.33270 0.92270 0.89640 -0.14700
H 	H 	0.42070 0.90480 0.89850 0.08000
H 	H 	0.34050 0.90790 0.94620 0.07700
C 	C 	0.40030 0.05560 0.86700 0.06900
H 	H 	0.46350 0.03610 0.85170 -0.02700
C 	C 	0.27590 0.13480 0.89450 0.01600
H 	H 	0.23500 0.18110 0.90070 0.01000
C 	C 	0.24980 0.06060 0.91020 -0.03000
H 	H 	0.19110 0.04660 0.93040 0.03000
C 	C 	0.06070 0.90620 0.82340 -0.16700
H 	H 	0.05700 0.96390 0.81920 0.08100
H 	H 	0.06520 0.89250 0.87260 0.08300
C 	C 	0.84940 0.90180 0.68030 0.05700
H 	H 	0.87690 0.94360 0.65960 0.00700
C 	C 	0.84440 0.81480 0.76060 -0.27100
H 	H 	0.87040 0.78590 0.80650 0.10000
C 	C 	0.23020 0.78700 0.84750 -0.14800
H 	H 	0.31080 0.77090 0.84140 0.07200
H 	H 	0.14500 0.75780 0.80850 0.07800
C 	C 	0.16920 0.73750 0.94990 -0.01100
H 	H 	0.06970 0.72930 0.91740 0.02100
C 	C 	0.24960 0.72620 0.02890 -0.01300
H 	H 	0.21350 0.70870 0.06050 0.01300
C 	C 	0.39670 0.76490 0.99250 0.07600
H 	H 	0.48080 0.77870 0.99260 -0.00800
Co	Co	0.55380 0.72530 0.67690 1.16500
N 	N 	0.46850 0.81600 0.71670 -0.25100
N 	N 	0.31320 0.87880 0.73960 -0.10500
N 	N 	0.92520 0.87360 0.75680 -0.05800
C 	C 	0.72480 0.80230 0.69240 0.38500
H 	H 	0.65360 0.76450 0.68150 -0.49000
N 	N 	0.26280 0.76360 0.92680 -0.10600
N 	N 	0.39350 0.74420 0.05640 -0.23100
N 	N 	0.32720 0.00960 0.89060 -0.10000
N 	N 	0.37180 0.13180 0.86800 -0.24200
N 	N 	0.72610 0.85700 0.64020 -0.19100
C 	C 	0.63720 0.30790 0.76840 0.07100
H 	H 	0.67330 0.25910 0.76380 -0.03300
C 	C 	0.51480 0.39630 0.78760 0.00400
H 	H 	0.44800 0.42010 0.79790 0.01100
C 	C 	0.61060 0.43590 0.77440 -0.01600
H 	H 	0.62250 0.49080 0.77480 0.01400
C 	C 	0.81400 0.39280 0.75310 -0.14700
H 	H 	0.84350 0.44790 0.76730 0.07600
H 	H 	0.89270 0.35970 0.79200 0.07600
C 	C 	0.79770 0.37700 0.67150 0.12200
C 	C 	0.66730 0.42270 0.60360 -0.14700
H 	H 	0.57930 0.40480 0.60150 0.08000
H 	H 	0.65950 0.40790 0.55380 0.07700
C 	C 	0.59970 0.55560 0.63300 0.06900
H 	H 	0.53650 0.53610 0.64830 -0.02700
C 	C 	0.72410 0.63480 0.60550 0.01600
H 	H 	0.76500 0.68110 0.59930 0.01000
C 	C 	0.75020 0.56060 0.58980 -0.03000
H 	H 	0.80890 0.54660 0.56960 0.03000
C 	C 	0.93930 0.40620 0.67660 -0.16700
H 	H 	0.94300 0.46390 0.68080 0.08100
H 	H 	0.93480 0.39250 0.62740 0.08300
C 	C 	0.15060 0.40180 0.81970 0.05700
H 	H 	0.12310 0.44360 0.84040 0.00700
C 	C 	0.15560 0.31480 0.73940 -0.27100
H 	H 	0.12960 0.28590 0.69350 0.10000
C 	C 	0.76980 0.28700 0.65250 -0.14800
H 	H 	0.68920 0.27090 0.65860 0.07200
H 	H 	0.85500 0.25780 0.69150 0.07800
C 	C 	0.83080 0.23750 0.55010 -0.01100
H 	H 	0.93030 0.22930 0.58260 0.02000
C 	C 	0.75040 0.22620 0.47110 -0.01300
H 	H 	0.78650 0.20870 0.43950 0.01300
C 	C 	0.60330 0.26490 0.50750 0.07600
H 	H 	0.51920 0.27870 0.50740 -0.00800
Co	Co	0.44620 0.22530 0.82310 1.16500
N 	N 	0.53150 0.31600 0.78330 -0.25100
N 	N 	0.68680 0.37880 0.76040 -0.10500
N 	N 	0.07480 0.37360 0.74320 -0.05800
C 	C 	0.27520 0.30230 0.80760 0.38500
H 	H 	0.34640 0.26450 0.81850 -0.49000
N 	N 	0.73720 0.26360 0.57320 -0.10600
N 	N 	0.60650 0.24420 0.44360 -0.23100
N 	N 	0.67280 0.50960 0.60940 -0.10000
N 	N 	0.62820 0.63180 0.63200 -0.24200
N 	N 	0.27390 0.35700 0.85980 -0.19100
