data_crystal

_cell_length_a 9.65500
_cell_length_b 13.62250
_cell_length_c 15.07080
_cell_angle_alpha 87.76700
_cell_angle_beta  80.33800
_cell_angle_gamma 72.70700

_symmetry_space_group_name_	'P 1'
_symmetry_space_group_name_H-M	'P 1'

loop_
_symmetry_equiv_pos_as_xyz
  x,y,z

loop_
_atom_site_label
_atom_site_type_symbol
_atom_site_fract_x
_atom_site_fract_y
_atom_site_fract_z
_atom_site_charge
Ag	Ag	0.77995 0.50395 0.70544 0.54300
Ag	Ag	0.65525 0.51159 0.53749 0.54100
Ag	Ag	0.02447 0.41525 0.56338 0.52600
O 	O 	0.74060 0.65080 0.54310 -0.40100
O 	O 	0.68070 0.67530 0.69220 -0.32700
O 	O 	0.41220 0.87900 0.80510 -0.17900
O 	O 	0.12510 0.54070 0.57320 -0.42900
O 	O 	0.02210 0.55250 0.71710 -0.32000
O 	O 	0.92170 0.29170 0.59510 -0.35700
O 	O 	0.88140 0.33350 0.74150 -0.31200
O 	O 	0.02980 0.19770 0.91220 -0.17900
O 	O 	0.55630 0.43950 0.73790 -0.31100
O 	O 	0.50630 0.42630 0.59990 -0.37400
C 	C 	0.69570 0.70660 0.61320 0.32700
C 	C 	0.65480 0.82080 0.60090 -0.10900
C 	C 	0.74000 0.86390 0.53690 0.03000
H 	H 	0.82040 0.82160 0.49960 0.02400
C 	C 	0.70550 0.97000 0.52840 -0.10300
H 	H 	0.76310 0.99840 0.48550 0.06700
C 	C 	0.58690 0.03300 0.58320 0.02900
H 	H 	0.56390 0.10400 0.57710 0.02300
C 	C 	0.50190 0.99090 0.64710 -0.10100
H 	H 	0.42200 0.03410 0.68420 0.08100
C 	C 	0.53370 0.88490 0.65700 0.05300
C 	C 	0.43640 0.84530 0.72840 0.09600
C 	C 	0.35960 0.77130 0.70570 0.04700
C 	C 	0.29780 0.71970 0.77460 -0.10600
H 	H 	0.31100 0.72780 0.83330 0.09400
C 	C 	0.21670 0.65630 0.75770 0.04000
H 	H 	0.17650 0.62170 0.80470 0.03800
C 	C 	0.19500 0.64400 0.66990 -0.11600
C 	C 	0.25630 0.69580 0.60040 0.02700
H 	H 	0.24230 0.68810 0.54180 0.01700
C 	C 	0.33810 0.75890 0.61770 -0.11500
H 	H 	0.37880 0.79320 0.57070 0.06900
C 	C 	0.10580 0.57440 0.65320 0.34300
C 	C 	0.91560 0.26950 0.67680 0.31000
C 	C 	0.95570 0.15830 0.70050 -0.09700
C 	C 	0.92030 0.08820 0.64970 0.02700
H 	H 	0.87620 0.11050 0.59930 0.03100
C 	C 	0.95040 0.98620 0.67370 -0.09200
H 	H 	0.92460 0.94030 0.64030 0.07100
C 	C 	0.01860 0.95260 0.74710 0.02400
H 	H 	0.03910 0.88380 0.76330 0.03800
C 	C 	0.05690 0.02100 0.79700 -0.09200
H 	H 	0.10340 0.99750 0.84640 0.09200
C 	C 	0.02670 0.12370 0.77430 0.04900
C 	C 	0.07270 0.19310 0.83180 0.10900
C 	C 	0.17840 0.24890 0.79090 0.03800
C 	C 	0.24070 0.24050 0.69970 -0.10000
H 	H 	0.21630 0.19790 0.66210 0.06200
C 	C 	0.33850 0.29460 0.66430 0.01200
H 	H 	0.37550 0.29070 0.60300 0.03000
C 	C 	0.38060 0.35450 0.72090 -0.08800
C 	C 	0.32080 0.36270 0.81220 0.02600
H 	H 	0.34810 0.40330 0.85020 0.04400
C 	C 	0.22050 0.31030 0.84670 -0.08400
H 	H 	0.18100 0.31630 0.90760 0.08700
C 	C 	0.49050 0.41160 0.68430 0.32800
Ag	Ag	0.22005 0.49605 0.29456 0.54200
Ag	Ag	0.34475 0.48841 0.46251 0.54000
Ag	Ag	0.97553 0.58475 0.43662 0.52600
O 	O 	0.25940 0.34920 0.45690 -0.40100
O 	O 	0.31930 0.32470 0.30780 -0.32700
O 	O 	0.58780 0.12100 0.19490 -0.17900
O 	O 	0.87490 0.45930 0.42680 -0.42900
O 	O 	0.97790 0.44750 0.28290 -0.32000
O 	O 	0.07830 0.70830 0.40490 -0.35700
O 	O 	0.11860 0.66650 0.25850 -0.31200
O 	O 	0.97020 0.80230 0.08780 -0.17900
O 	O 	0.44370 0.56050 0.26210 -0.31100
O 	O 	0.49370 0.57370 0.40010 -0.37400
C 	C 	0.30430 0.29340 0.38680 0.32700
C 	C 	0.34520 0.17920 0.39910 -0.10900
C 	C 	0.26000 0.13610 0.46310 0.03000
H 	H 	0.17960 0.17840 0.50040 0.02400
C 	C 	0.29450 0.03000 0.47160 -0.10300
H 	H 	0.23690 0.00160 0.51450 0.06700
C 	C 	0.41310 0.96700 0.41680 0.02900
H 	H 	0.43610 0.89600 0.42290 0.02300
C 	C 	0.49810 0.00910 0.35290 -0.10100
H 	H 	0.57800 0.96590 0.31580 0.08100
C 	C 	0.46630 0.11510 0.34300 0.05300
C 	C 	0.56360 0.15470 0.27160 0.09600
C 	C 	0.64040 0.22870 0.29430 0.04700
C 	C 	0.70220 0.28030 0.22540 -0.10600
H 	H 	0.68900 0.27220 0.16670 0.09400
C 	C 	0.78330 0.34370 0.24230 0.04000
H 	H 	0.82350 0.37830 0.19530 0.03800
C 	C 	0.80500 0.35600 0.33010 -0.11600
C 	C 	0.74370 0.30420 0.39960 0.02700
H 	H 	0.75770 0.31190 0.45820 0.01700
C 	C 	0.66190 0.24110 0.38230 -0.11500
H 	H 	0.62120 0.20680 0.42930 0.06900
C 	C 	0.89420 0.42560 0.34680 0.34300
C 	C 	0.08440 0.73050 0.32320 0.31000
C 	C 	0.04430 0.84170 0.29950 -0.09700
C 	C 	0.07970 0.91180 0.35030 0.02700
H 	H 	0.12380 0.88950 0.40070 0.03100
C 	C 	0.04960 0.01380 0.32630 -0.09200
H 	H 	0.07540 0.05970 0.35970 0.07100
C 	C 	0.98140 0.04740 0.25290 0.02400
H 	H 	0.96090 0.11620 0.23670 0.03800
C 	C 	0.94310 0.97900 0.20300 -0.09200
H 	H 	0.89660 0.00250 0.15360 0.09200
C 	C 	0.97330 0.87630 0.22570 0.04900
C 	C 	0.92730 0.80690 0.16820 0.10900
C 	C 	0.82160 0.75110 0.20910 0.03800
C 	C 	0.75930 0.75950 0.30030 -0.10000
H 	H 	0.78370 0.80210 0.33790 0.06200
C 	C 	0.66150 0.70540 0.33570 0.01200
H 	H 	0.62450 0.70930 0.39700 0.03000
C 	C 	0.61940 0.64550 0.27910 -0.08800
C 	C 	0.67920 0.63730 0.18780 0.02600
H 	H 	0.65190 0.59670 0.14980 0.04400
C 	C 	0.77950 0.68970 0.15330 -0.08400
H 	H 	0.81900 0.68370 0.09240 0.08700
C 	C 	0.50950 0.58840 0.31570 0.32800
