data_crystal

_cell_length_a 10.49230
_cell_length_b 12.85800
_cell_length_c 15.33200
_cell_angle_alpha 91.11000
_cell_angle_beta  102.69600
_cell_angle_gamma 111.71100

_symmetry_space_group_name_	'P 1'
_symmetry_space_group_name_H-M	'P 1'

loop_
_symmetry_equiv_pos_as_xyz
  x,y,z

loop_
_atom_site_label
_atom_site_type_symbol
_atom_site_fract_x
_atom_site_fract_y
_atom_site_fract_z
_atom_site_charge
C 	C 	0.26700 0.14060 0.44270 0.01100
H 	H 	0.20240 0.09680 0.47330 0.05400
C 	C 	0.51610 0.03800 0.83930 0.01500
H 	H 	0.49720 0.08660 0.87550 0.05800
C 	C 	0.47870 0.12970 0.61520 -0.28600
H 	H 	0.43490 0.05750 0.58480 0.14700
C 	C 	0.54510 0.14760 0.70630 0.24000
C 	C 	0.47980 0.22280 0.57107 0.23500
C 	C 	0.54450 0.33100 0.61456 -0.28800
H 	H 	0.54540 0.39250 0.58330 0.13700
C 	C 	0.61140 0.25530 0.75230 -0.28900
H 	H 	0.65690 0.26630 0.81310 0.16100
C 	C 	0.60820 0.34600 0.70590 0.23500
C 	C 	0.60930 0.53630 0.73300 0.10100
H 	H 	0.53700 0.52920 0.68280 -0.02100
C 	C 	0.76680 0.49800 0.83270 0.01300
H 	H 	0.82240 0.46210 0.86380 0.04300
C 	C 	0.77170 0.60210 0.85610 0.01600
H 	H 	0.83260 0.65010 0.90680 0.03900
C 	C 	0.75790 0.84710 0.64590 0.00300
H 	H 	0.84450 0.88170 0.68750 0.03800
C 	C 	0.53770 0.74410 0.58900 0.10500
H 	H 	0.44440 0.69470 0.58220 -0.01700
C 	C 	0.56440 0.96260 0.72710 0.10700
H 	H 	0.58370 0.95200 0.67200 -0.00600
C 	C 	0.52360 0.93770 0.85860 0.01400
H 	H 	0.50960 0.90520 0.91110 0.04700
C 	C 	0.72650 0.83090 0.97720 0.33800
C 	C 	0.72370 0.81950 0.07473 -0.09500
C 	C 	0.79460 0.91660 0.13510 0.02800
H 	H 	0.83900 0.98470 0.11400 0.05600
C 	C 	0.80030 0.91380 0.22670 -0.08200
C 	C 	0.86050 0.02220 0.28640 0.28800
C 	C 	0.74600 0.81190 0.25980 0.03000
H 	H 	0.75650 0.80860 0.32140 0.04000
C 	C 	0.67570 0.71450 0.20040 -0.10400
H 	H 	0.64050 0.64560 0.22290 0.07200
C 	C 	0.65660 0.71740 0.10731 0.07000
C 	C 	0.57240 0.60700 0.05048 0.02300
C 	C 	0.43900 0.58030 0.99260 -0.05200
C 	C 	0.36960 0.47470 0.94260 -0.05000
H 	H 	0.28170 0.45840 0.90330 0.06500
C 	C 	0.36630 0.66130 0.98350 0.29200
N 	N 	0.67290 0.62580 0.79343 -0.21600
N 	N 	0.66280 0.45610 0.75345 -0.15800
N 	N 	0.40730 0.20590 0.47840 -0.16000
N 	N 	0.54200 0.05360 0.75508 -0.15500
N 	N 	0.63450 0.77520 0.66538 -0.22800
N 	N 	0.55550 0.89090 0.78817 -0.21500
O 	O 	0.87360 0.01010 0.37203 -0.22000
O 	O 	0.89380 0.11410 0.25771 -0.23200
O 	O 	0.39370 0.73720 0.04045 -0.24700
O 	O 	0.26560 0.63890 0.90898 -0.22200
O 	O 	0.62650 0.75659 0.91925 -0.39100
O 	O 	0.82410 0.90990 0.96050 -0.27000
Cu	Cu	0.61022 0.75610 0.79037 0.88300
C 	C 	0.73300 0.85940 0.55730 0.01100
H 	H 	0.79760 0.90320 0.52670 0.05400
C 	C 	0.48390 0.96200 0.16070 0.01500
H 	H 	0.50280 0.91340 0.12450 0.05800
C 	C 	0.52130 0.87030 0.38480 -0.28600
H 	H 	0.56510 0.94250 0.41520 0.14700
C 	C 	0.45490 0.85240 0.29370 0.24000
C 	C 	0.52020 0.77720 0.42893 0.23500
C 	C 	0.45550 0.66900 0.38544 -0.28800
H 	H 	0.45460 0.60750 0.41670 0.13700
C 	C 	0.38860 0.74470 0.24770 -0.28900
H 	H 	0.34310 0.73370 0.18690 0.16100
C 	C 	0.39180 0.65400 0.29410 0.23500
C 	C 	0.39070 0.46370 0.26700 0.10100
H 	H 	0.46300 0.47080 0.31720 -0.02100
C 	C 	0.23320 0.50200 0.16730 0.01300
H 	H 	0.17760 0.53790 0.13620 0.04300
C 	C 	0.22830 0.39790 0.14390 0.01600
H 	H 	0.16740 0.34990 0.09320 0.03900
C 	C 	0.24210 0.15290 0.35410 0.00300
H 	H 	0.15550 0.11830 0.31250 0.03800
C 	C 	0.46230 0.25590 0.41100 0.10500
H 	H 	0.55560 0.30530 0.41780 -0.01700
C 	C 	0.43560 0.03740 0.27290 0.10700
H 	H 	0.41630 0.04800 0.32800 -0.00600
C 	C 	0.47640 0.06230 0.14140 0.01400
H 	H 	0.49040 0.09480 0.08890 0.04700
C 	C 	0.27350 0.16910 0.02280 0.33800
C 	C 	0.27630 0.18050 0.92527 -0.09500
C 	C 	0.20540 0.08340 0.86490 0.02800
H 	H 	0.16100 0.01530 0.88600 0.05600
C 	C 	0.19970 0.08620 0.77330 -0.08200
C 	C 	0.13950 0.97780 0.71360 0.28800
C 	C 	0.25400 0.18810 0.74020 0.03000
H 	H 	0.24350 0.19140 0.67860 0.04000
C 	C 	0.32430 0.28550 0.79960 -0.10400
H 	H 	0.35950 0.35440 0.77710 0.07200
C 	C 	0.34340 0.28260 0.89269 0.07000
C 	C 	0.42760 0.39300 0.94952 0.02300
C 	C 	0.56100 0.41970 0.00740 -0.05200
C 	C 	0.63040 0.52530 0.05740 -0.05000
H 	H 	0.71830 0.54160 0.09670 0.06500
C 	C 	0.63370 0.33870 0.01650 0.29200
N 	N 	0.32710 0.37420 0.20657 -0.21600
N 	N 	0.33720 0.54390 0.24655 -0.15800
N 	N 	0.59270 0.79410 0.52160 -0.16000
N 	N 	0.45800 0.94640 0.24492 -0.15500
N 	N 	0.36550 0.22480 0.33462 -0.22800
N 	N 	0.44450 0.10910 0.21183 -0.21500
O 	O 	0.12640 0.98990 0.62797 -0.22000
O 	O 	0.10620 0.88590 0.74229 -0.23200
O 	O 	0.60630 0.26280 0.95955 -0.24700
O 	O 	0.73440 0.36110 0.09102 -0.22200
O 	O 	0.37350 0.24341 0.08075 -0.39100
O 	O 	0.17590 0.09010 0.03950 -0.27000
Cu	Cu	0.38978 0.24390 0.20963 0.88300
