data_crystal

_cell_length_a 12.64170
_cell_length_b 16.30720
_cell_length_c 13.23310
_cell_angle_alpha 90.00000
_cell_angle_beta  116.07900
_cell_angle_gamma 90.00000

_symmetry_space_group_name_	'P 1'
_symmetry_space_group_name_H-M	'P 1'

loop_
_symmetry_equiv_pos_as_xyz
  x,y,z

loop_
_atom_site_label
_atom_site_type_symbol
_atom_site_fract_x
_atom_site_fract_y
_atom_site_fract_z
_atom_site_charge
C 	C 	0.48330 0.73290 0.42700 0.39500
C 	C 	0.47550 0.65730 0.49060 -0.37700
H 	H 	0.53150 0.61620 0.49180 0.15000
H 	H 	0.39700 0.63390 0.45420 0.16800
C 	C 	0.50330 0.68360 0.61040 0.03400
H 	H 	0.58540 0.69980 0.64840 0.03800
H 	H 	0.45600 0.73130 0.60690 0.03000
C 	C 	0.55480 0.54080 0.69110 0.33600
C 	C 	0.43950 0.60760 0.84490 -0.06600
C 	C 	0.47450 0.62990 0.95630 -0.80600
C 	C 	0.40840 0.60120 0.00970 -0.00000
H 	H 	0.34200 0.56910 0.97020 0.14900
C 	C 	0.44150 0.62050 0.12180 -0.84400
H 	H 	0.39730 0.60130 0.15750 0.28300
C 	C 	0.54070 0.66850 0.18070 0.15700
H 	H 	0.56280 0.68140 0.25580 -0.16500
C 	C 	0.60680 0.69710 0.12740 -1.17200
H 	H 	0.67310 0.72920 0.16680 0.25300
C 	C 	0.57370 0.67790 0.01520 0.33800
H 	H 	0.61790 0.69700 0.97960 -0.51200
C 	C 	0.33060 0.81690 0.10610 0.11900
H 	H 	0.27660 0.78950 0.12410 -0.01400
C 	C 	0.32140 0.80840 0.99910 -0.19100
H 	H 	0.26020 0.77790 0.94560 0.10200
C 	C 	0.40410 0.84560 0.97180 0.15600
C 	C 	0.49040 0.89200 0.05500 -0.20200
H 	H 	0.54740 0.91820 0.04010 0.11300
C 	C 	0.49260 0.89970 0.15820 0.12300
H 	H 	0.55100 0.93180 0.21210 0.00500
C 	C 	0.40420 0.83710 0.85810 -0.15600
H 	H 	0.48080 0.81740 0.86880 0.07100
H 	H 	0.34630 0.79630 0.81460 0.07800
C 	C 	0.37850 0.91270 0.79510 -0.18200
H 	H 	0.43300 0.95460 0.84100 0.08700
H 	H 	0.29970 0.93030 0.78000 0.08800
C 	C 	0.38670 0.90640 0.68380 0.15500
C 	C 	0.29810 0.86950 0.59220 -0.20000
H 	H 	0.23340 0.84730 0.59830 0.10400
C 	C 	0.30520 0.86550 0.49120 0.11400
H 	H 	0.24470 0.83990 0.43050 -0.00100
C 	C 	0.48100 0.93400 0.56550 0.11200
H 	H 	0.54400 0.95700 0.55700 0.00200
C 	C 	0.47970 0.93960 0.66970 -0.20000
H 	H 	0.54100 0.96550 0.72940 0.10100
C 	C 	0.48090 0.61770 0.67980 -0.06200
H 	H 	0.39820 0.60140 0.63790 0.03500
C 	C 	0.48170 0.62680 0.87120 0.74200
C 	C 	0.52840 0.64750 0.98780 -0.01000
C 	C 	0.62390 0.70070 0.03400 0.46300
H 	H 	0.66030 0.71920 0.99060 0.17800
C 	C 	0.66490 0.72620 0.14510 0.12400
H 	H 	0.72880 0.76180 0.17600 -0.12100
C 	C 	0.61050 0.69860 0.21000 0.73700
H 	H 	0.63800 0.71560 0.28430 -0.20900
C 	C 	0.51510 0.64540 0.16380 -0.15100
H 	H 	0.47870 0.62690 0.20720 0.23400
C 	C 	0.47410 0.61990 0.05270 1.02000
H 	H 	0.41020 0.58430 0.02180 -0.22600
H 	H 	0.39690 0.60430 0.64870 0.02700
Cu	Cu	0.41382 0.87630 0.33575 0.91400
N 	N 	0.49550 0.64590 0.78900 -0.12600
H 	H 	0.54010 0.68740 0.81960 0.17600
N 	N 	0.39600 0.89710 0.47700 -0.22700
N 	N 	0.41330 0.86260 0.18550 -0.23200
N 	N 	0.52500 0.64950 0.79550 -0.20900
H 	H 	0.58150 0.68460 0.81750 -0.00700
O 	O 	0.49810 0.47820 0.63730 -0.40000
O 	O 	0.66300 0.54380 0.75200 -0.36500
O 	O 	0.38660 0.75990 0.35090 -0.40500
O 	O 	0.57880 0.76730 0.45530 -0.32300
O 	O 	0.35380 0.55680 0.78840 0.20400
O 	O 	0.39210 0.57750 0.83000 -0.44200
C 	C 	0.51670 0.23290 0.57300 0.39000
C 	C 	0.52450 0.15730 0.50940 -0.36500
H 	H 	0.46850 0.11620 0.50820 0.13900
H 	H 	0.60300 0.13390 0.54580 0.15900
C 	C 	0.49670 0.18360 0.38960 0.01900
H 	H 	0.41460 0.19980 0.35160 0.04200
H 	H 	0.54400 0.23130 0.39310 0.03400
C 	C 	0.44520 0.04080 0.30890 0.29200
C 	C 	0.56050 0.10760 0.15510 -0.05800
C 	C 	0.52550 0.12990 0.04370 -0.81200
C 	C 	0.59160 0.10120 0.99030 -0.00800
H 	H 	0.65800 0.06910 0.02980 0.13800
C 	C 	0.55850 0.12050 0.87820 -0.83800
H 	H 	0.60270 0.10130 0.84250 0.27600
C 	C 	0.45930 0.16850 0.81930 0.15400
H 	H 	0.43720 0.18140 0.74420 -0.16200
C 	C 	0.39320 0.19710 0.87260 -1.14600
H 	H 	0.32690 0.22920 0.83320 0.24900
C 	C 	0.42630 0.17790 0.98480 0.33700
H 	H 	0.38210 0.19700 0.02040 -0.50100
C 	C 	0.66940 0.31690 0.89390 0.12400
H 	H 	0.72340 0.28950 0.87590 -0.01600
C 	C 	0.67860 0.30840 0.00090 -0.20000
H 	H 	0.73980 0.27790 0.05440 0.10400
C 	C 	0.59590 0.34560 0.02820 0.15500
C 	C 	0.50960 0.39200 0.94500 -0.20200
H 	H 	0.45260 0.41820 0.95990 0.10700
C 	C 	0.50740 0.39970 0.84180 0.11900
H 	H 	0.44900 0.43180 0.78790 -0.00300
C 	C 	0.59580 0.33710 0.14190 -0.16900
H 	H 	0.51920 0.31740 0.13120 0.07300
H 	H 	0.65370 0.29630 0.18540 0.08200
C 	C 	0.62150 0.41270 0.20490 -0.16300
H 	H 	0.56700 0.45460 0.15900 0.07200
H 	H 	0.70030 0.43030 0.22000 0.07500
C 	C 	0.61330 0.40640 0.31620 0.13900
C 	C 	0.70190 0.36950 0.40780 -0.19300
H 	H 	0.76660 0.34730 0.40170 0.10000
C 	C 	0.69480 0.36550 0.50880 0.10600
H 	H 	0.75530 0.33990 0.56950 0.00100
C 	C 	0.51900 0.43400 0.43450 0.10200
H 	H 	0.45600 0.45700 0.44300 -0.00300
C 	C 	0.52030 0.43960 0.33030 -0.19500
H 	H 	0.45900 0.46550 0.27060 0.08900
C 	C 	0.51910 0.11770 0.32020 -0.04700
H 	H 	0.60180 0.10140 0.36210 0.03100
C 	C 	0.51830 0.12680 0.12880 0.72000
C 	C 	0.47160 0.14750 0.01220 0.00400
C 	C 	0.37610 0.20070 0.96600 0.44300
H 	H 	0.33970 0.21920 0.00940 0.17500
C 	C 	0.33510 0.22620 0.85490 0.12300
H 	H 	0.27120 0.26180 0.82400 -0.12000
C 	C 	0.38950 0.19860 0.79000 0.71100
H 	H 	0.36200 0.21560 0.71570 -0.20200
C 	C 	0.48490 0.14540 0.83620 -0.14400
H 	H 	0.52130 0.12690 0.79280 0.22600
C 	C 	0.52590 0.11990 0.94730 1.00200
H 	H 	0.58980 0.08430 0.97820 -0.21300
H 	H 	0.60310 0.10430 0.35130 0.02300
Cu	Cu	0.58618 0.37630 0.66425 0.91200
N 	N 	0.50450 0.14590 0.21100 -0.12800
H 	H 	0.45990 0.18740 0.18040 0.18100
N 	N 	0.60400 0.39710 0.52300 -0.22700
N 	N 	0.58670 0.36260 0.81450 -0.23500
N 	N 	0.47500 0.14950 0.20450 -0.20700
H 	H 	0.41850 0.18460 0.18250 -0.01300
O 	O 	0.50190 0.97820 0.36270 -0.36400
O 	O 	0.33700 0.04380 0.24800 -0.36400
O 	O 	0.61340 0.25990 0.64910 -0.40500
O 	O 	0.42120 0.26730 0.54470 -0.32300
O 	O 	0.64620 0.05680 0.21160 0.17200
O 	O 	0.60790 0.07750 0.17000 -0.41900
C 	C 	0.99280 0.12750 0.05260 0.40800
C 	C 	0.94730 0.20030 0.97550 -0.39000
H 	H 	0.97810 0.25030 0.01820 0.15500
H 	H 	0.86210 0.20200 0.94440 0.15700
C 	C 	0.98430 0.19590 0.87840 0.07300
H 	H 	0.06710 0.21000 0.90720 0.01700
H 	H 	0.97440 0.14020 0.85010 0.02100
C 	C 	0.91090 0.25460 0.78070 -0.11700
H 	H 	0.82780 0.23870 0.74990 0.09700
C 	C 	0.92320 0.34470 0.81980 0.32900
C 	C 	0.89850 0.19900 0.60360 0.20600
C 	C 	0.92710 0.21080 0.50560 -0.05800
C 	C 	0.01290 0.26570 0.50730 -0.02000
H 	H 	0.05670 0.29640 0.57150 0.02900
C 	C 	0.03190 0.27380 0.41240 -0.07100
H 	H 	0.08940 0.30980 0.41330 0.05600
C 	C 	0.96610 0.22910 0.31610 -0.00300
H 	H 	0.97980 0.23510 0.25300 0.03300
C 	C 	0.88210 0.17660 0.31340 -0.07400
H 	H 	0.83730 0.14740 0.24800 0.06600
C 	C 	0.86250 0.16610 0.40790 -0.01000
H 	H 	0.80580 0.12890 0.40600 0.04400
C 	C 	0.79770 0.58420 0.61370 0.10800
H 	H 	0.74650 0.61470 0.63220 0.00100
C 	C 	0.79410 0.59460 0.50970 -0.19400
H 	H 	0.74110 0.63150 0.45920 0.10700
C 	C 	0.86940 0.55000 0.47910 0.14400
C 	C 	0.95030 0.49930 0.55930 -0.18500
H 	H 	0.00460 0.47010 0.54360 0.09200
C 	C 	0.94990 0.49230 0.66360 0.11100
H 	H 	0.00610 0.45880 0.71730 -0.00700
C 	C 	0.85570 0.55640 0.35910 -0.15700
H 	H 	0.77320 0.54930 0.30750 0.06500
H 	H 	0.87840 0.61120 0.34770 0.07600
C 	C 	0.92750 0.49470 0.32980 -0.18100
H 	H 	0.01040 0.50710 0.37420 0.08900
H 	H 	0.91330 0.44060 0.35170 0.08000
C 	C 	0.90270 0.49200 0.20730 0.14400
C 	C 	0.80910 0.53180 0.12300 -0.19200
H 	H 	0.75670 0.56210 0.14000 0.08700
C 	C 	0.79380 0.52640 0.01400 0.09800
H 	H 	0.72940 0.55310 0.95850 0.00100
C 	C 	0.95560 0.44450 0.06440 0.09800
H 	H 	0.00640 0.41430 0.04490 0.00200
C 	C 	0.97550 0.44560 0.17460 -0.18800
H 	H 	0.03750 0.41550 0.22780 0.09600
Cu	Cu	0.86076 0.50545 0.83164 0.91800
N 	N 	0.94780 0.25200 0.69120 -0.19400
H 	H 	0.00210 0.28490 0.69370 0.11900
N 	N 	0.87290 0.53120 0.69120 -0.22900
N 	N 	0.86600 0.48500 0.98250 -0.22100
O 	O 	0.82770 0.14620 0.60070 -0.23700
O 	O 	0.82790 0.38730 0.78500 -0.42100
O 	O 	0.02280 0.37160 0.87740 -0.30000
O 	O 	0.10140 0.12230 0.11550 -0.39400
O 	O 	0.92320 0.07360 0.05030 -0.33600
C 	C 	0.00720 0.62750 0.94740 0.40200
C 	C 	0.05270 0.70030 0.02450 -0.38700
H 	H 	0.02190 0.75030 0.98180 0.15500
H 	H 	0.13790 0.70200 0.05560 0.15600
C 	C 	0.01570 0.69590 0.12160 0.05700
H 	H 	0.93290 0.71000 0.09280 0.02500
H 	H 	0.02560 0.64020 0.14990 0.02900
C 	C 	0.08910 0.75460 0.21930 -0.10900
H 	H 	0.17220 0.73870 0.25010 0.09600
C 	C 	0.07680 0.84470 0.18020 0.31800
C 	C 	0.10150 0.69900 0.39640 0.20700
C 	C 	0.07290 0.71080 0.49440 -0.06200
C 	C 	0.98710 0.76570 0.49270 -0.01600
H 	H 	0.94330 0.79640 0.42850 0.03000
C 	C 	0.96810 0.77380 0.58760 -0.06100
H 	H 	0.91060 0.80980 0.58670 0.05700
C 	C 	0.03390 0.72910 0.68390 -0.01400
H 	H 	0.02020 0.73510 0.74700 0.03600
C 	C 	0.11790 0.67660 0.68660 -0.06700
H 	H 	0.16270 0.64740 0.75200 0.06600
C 	C 	0.13750 0.66610 0.59210 -0.01100
H 	H 	0.19420 0.62890 0.59400 0.04700
C 	C 	0.20230 0.08420 0.38630 0.10000
H 	H 	0.25350 0.11470 0.36780 0.00100
C 	C 	0.20590 0.09460 0.49030 -0.19700
H 	H 	0.25890 0.13150 0.54080 0.10500
C 	C 	0.13060 0.05000 0.52090 0.12600
C 	C 	0.04970 0.99930 0.44070 -0.15900
H 	H 	0.99540 0.97010 0.45640 0.09700
C 	C 	0.05010 0.99230 0.33640 0.13400
H 	H 	0.99390 0.95880 0.28270 -0.00400
C 	C 	0.14430 0.05640 0.64090 -0.23100
H 	H 	0.22680 0.04930 0.69250 0.07600
H 	H 	0.12160 0.11120 0.65230 0.09400
C 	C 	0.07250 0.99470 0.67020 -0.06500
H 	H 	0.98960 0.00710 0.62580 0.03300
H 	H 	0.08670 0.94060 0.64830 0.05000
C 	C 	0.09730 0.99200 0.79270 0.15600
C 	C 	0.19090 0.03180 0.87700 -0.22300
H 	H 	0.24330 0.06210 0.86000 0.09000
C 	C 	0.20620 0.02640 0.98600 0.07900
H 	H 	0.27060 0.05310 0.04150 0.00000
C 	C 	0.04440 0.94450 0.93560 0.10300
H 	H 	0.99360 0.91430 0.95510 0.00900
C 	C 	0.02450 0.94560 0.82540 -0.18700
H 	H 	0.96250 0.91550 0.77220 0.10300
Cu	Cu	0.13924 0.00545 0.16836 0.90300
N 	N 	0.05220 0.75200 0.30880 -0.20000
H 	H 	0.99790 0.78490 0.30630 0.12500
N 	N 	0.12710 0.03120 0.30880 -0.24800
N 	N 	0.13400 0.98500 0.01750 -0.20100
O 	O 	0.17230 0.64620 0.39930 -0.23300
O 	O 	0.17210 0.88730 0.21500 -0.40900
O 	O 	0.97720 0.87160 0.12260 -0.28800
O 	O 	0.89860 0.62230 0.88450 -0.38500
O 	O 	0.07680 0.57360 0.94970 -0.32300
