data_crystal

_cell_length_a 18.59900
_cell_length_b 18.59900
_cell_length_c 17.36200
_cell_angle_alpha 90.00000
_cell_angle_beta  90.00000
_cell_angle_gamma 90.00000

_symmetry_space_group_name_	'P 1'
_symmetry_space_group_name_H-M	'P 1'

loop_
_symmetry_equiv_pos_as_xyz
  x,y,z

loop_
_atom_site_label
_atom_site_type_symbol
_atom_site_fract_x
_atom_site_fract_y
_atom_site_fract_z
_atom_site_charge
La	La	0.37368 0.29034 0.16411 1.52100
P 	P 	0.17741 0.32473 0.22408 0.45200
P 	P 	0.22006 0.61393 0.16483 0.45000
P 	P 	0.38343 0.21971 0.37137 0.42300
P 	P 	0.25480 0.95990 0.43804 0.40000
P 	P 	0.53625 0.24397 0.03470 0.46300
O 	O 	0.18210 0.31600 0.31330 -0.37400
H 	H 	0.14510 0.33370 0.33370 0.24900
O 	O 	0.12350 0.26900 0.19920 -0.23500
O 	O 	0.24930 0.31980 0.18710 -0.40900
O 	O 	0.25310 0.63840 0.24400 -0.41300
H 	H 	0.29620 0.65040 0.23760 0.26700
O 	O 	0.28150 0.58750 0.11640 -0.24200
O 	O 	0.17540 0.67340 0.13270 -0.39300
O 	O 	0.35300 0.22770 0.29090 -0.34800
O 	O 	0.32940 0.25090 0.43280 -0.36900
H 	H 	0.28880 0.23190 0.42670 0.26700
O 	O 	0.45510 0.25550 0.38250 -0.21100
O 	O 	0.18830 0.01620 0.42430 -0.13600
O 	O 	0.25110 0.94240 0.52290 -0.09600
O 	O 	0.24070 0.89780 0.38740 -0.52000
O 	O 	0.20440 0.00180 0.48680 -0.08900
O 	O 	0.29160 0.90350 0.49980 -0.09100
O 	O 	0.23200 0.92030 0.37280 0.32600
O 	O 	0.47000 0.24120 0.08180 -0.41200
O 	O 	0.52700 0.28510 0.95740 -0.41500
H 	H 	0.55640 0.31930 0.95560 0.19100
O 	O 	0.60140 0.28150 0.07290 -0.42900
H 	H 	0.63950 0.26780 0.05140 0.22200
C 	C 	0.14200 0.41360 0.20940 -0.07700
C 	C 	0.18800 0.47050 0.19640 0.01800
H 	H 	0.23850 0.46270 0.19560 0.02900
C 	C 	0.16060 0.53990 0.18430 -0.05600
C 	C 	0.08700 0.55030 0.18500 -0.02700
H 	H 	0.06830 0.59700 0.17550 0.03800
C 	C 	0.03900 0.49310 0.19950 0.00400
C 	C 	0.06870 0.42450 0.21170 -0.02600
H 	H 	0.03770 0.38500 0.22170 0.04000
C 	C 	0.38980 0.12460 0.39170 -0.03200
C 	C 	0.33000 0.08490 0.40720 -0.02100
H 	H 	0.28470 0.10810 0.41100 0.07600
C 	C 	0.33450 0.01100 0.41740 -0.02200
C 	C 	0.40000 0.97840 0.41420 -0.05400
H 	H 	0.40290 0.92780 0.42120 0.06900
C 	C 	0.46430 0.01780 0.40060 0.02000
C 	C 	0.45690 0.09200 0.38880 -0.05000
H 	H 	0.49830 0.12040 0.37860 0.06100
C 	C 	0.56330 0.15280 0.01400 -0.07500
C 	C 	0.51130 0.10050 0.01510 -0.02300
H 	H 	0.46300 0.11340 0.02620 0.05000
La	La	0.62632 0.70966 0.16411 1.52000
P 	P 	0.82259 0.67527 0.22408 0.45100
P 	P 	0.77994 0.38607 0.16483 0.44900
P 	P 	0.61657 0.78029 0.37137 0.42200
P 	P 	0.74520 0.04010 0.43804 0.40000
P 	P 	0.46375 0.75603 0.03470 0.46300
O 	O 	0.81790 0.68400 0.31330 -0.37400
H 	H 	0.85490 0.66630 0.33370 0.24900
O 	O 	0.87650 0.73100 0.19920 -0.23500
O 	O 	0.75070 0.68020 0.18710 -0.40900
O 	O 	0.74690 0.36160 0.24400 -0.41300
H 	H 	0.70380 0.34960 0.23760 0.26700
O 	O 	0.71850 0.41250 0.11640 -0.24200
O 	O 	0.82460 0.32660 0.13270 -0.39300
O 	O 	0.64700 0.77230 0.29090 -0.34800
O 	O 	0.67060 0.74910 0.43280 -0.36900
H 	H 	0.71120 0.76810 0.42670 0.26700
O 	O 	0.54490 0.74450 0.38250 -0.21100
O 	O 	0.81170 0.98380 0.42430 -0.13600
O 	O 	0.74890 0.05760 0.52290 -0.09600
O 	O 	0.75930 0.10220 0.38740 -0.52000
O 	O 	0.79560 0.99820 0.48680 -0.08900
O 	O 	0.70840 0.09650 0.49980 -0.09100
O 	O 	0.76800 0.07970 0.37280 0.32600
O 	O 	0.53000 0.75880 0.08180 -0.41200
O 	O 	0.47300 0.71490 0.95740 -0.41500
H 	H 	0.44360 0.68070 0.95560 0.19100
O 	O 	0.39860 0.71850 0.07290 -0.42900
H 	H 	0.36050 0.73220 0.05140 0.22200
C 	C 	0.85800 0.58640 0.20940 -0.07700
C 	C 	0.81200 0.52950 0.19640 0.01800
H 	H 	0.76150 0.53730 0.19560 0.02900
C 	C 	0.83940 0.46010 0.18430 -0.05600
C 	C 	0.91300 0.44970 0.18500 -0.02700
H 	H 	0.93170 0.40300 0.17550 0.03800
C 	C 	0.96100 0.50690 0.19950 0.00400
C 	C 	0.93130 0.57550 0.21170 -0.02600
H 	H 	0.96230 0.61500 0.22170 0.04000
C 	C 	0.61020 0.87540 0.39170 -0.03200
C 	C 	0.67000 0.91510 0.40720 -0.02100
H 	H 	0.71530 0.89190 0.41100 0.07600
C 	C 	0.66550 0.98900 0.41740 -0.02200
C 	C 	0.60000 0.02160 0.41420 -0.05400
H 	H 	0.59710 0.07220 0.42120 0.06900
C 	C 	0.53570 0.98220 0.40060 0.02000
C 	C 	0.54310 0.90800 0.38880 -0.05000
H 	H 	0.50170 0.87960 0.37860 0.06100
C 	C 	0.43670 0.84720 0.01400 -0.07500
C 	C 	0.48870 0.89950 0.01510 -0.02300
H 	H 	0.53700 0.88660 0.02620 0.05000
La	La	0.29034 0.62632 0.83589 1.52100
P 	P 	0.32473 0.82259 0.77592 0.45100
P 	P 	0.61393 0.77994 0.83517 0.44900
P 	P 	0.21971 0.61657 0.62863 0.42200
P 	P 	0.95990 0.74520 0.56196 0.40000
P 	P 	0.24397 0.46375 0.96530 0.46500
O 	O 	0.31600 0.81790 0.68670 -0.37400
H 	H 	0.33370 0.85490 0.66630 0.24900
O 	O 	0.26900 0.87650 0.80080 -0.23500
O 	O 	0.31980 0.75070 0.81290 -0.40900
O 	O 	0.63840 0.74690 0.75600 -0.41300
H 	H 	0.65040 0.70380 0.76240 0.26700
O 	O 	0.58750 0.71850 0.88360 -0.24100
O 	O 	0.67340 0.82460 0.86730 -0.39200
O 	O 	0.22770 0.64700 0.70910 -0.34800
O 	O 	0.25090 0.67060 0.56720 -0.36900
H 	H 	0.23190 0.71120 0.57330 0.26700
O 	O 	0.25550 0.54490 0.61750 -0.21100
O 	O 	0.01620 0.81170 0.57570 -0.13600
O 	O 	0.94240 0.74890 0.47710 -0.09600
O 	O 	0.89780 0.75930 0.61260 -0.52000
O 	O 	0.00180 0.79560 0.51320 -0.08900
O 	O 	0.90350 0.70840 0.50020 -0.09100
O 	O 	0.92030 0.76800 0.62720 0.32600
O 	O 	0.24120 0.53000 0.91820 -0.41200
O 	O 	0.28510 0.47300 0.04260 -0.41700
H 	H 	0.31930 0.44360 0.04440 0.19100
O 	O 	0.28150 0.39860 0.92710 -0.42900
H 	H 	0.26780 0.36050 0.94860 0.22300
C 	C 	0.41360 0.85800 0.79060 -0.07700
C 	C 	0.47050 0.81200 0.80360 0.01800
H 	H 	0.46270 0.76150 0.80440 0.02900
C 	C 	0.53990 0.83940 0.81570 -0.05600
C 	C 	0.55030 0.91300 0.81500 -0.02700
H 	H 	0.59700 0.93170 0.82450 0.03800
C 	C 	0.49310 0.96100 0.80050 0.00400
C 	C 	0.42450 0.93130 0.78830 -0.02600
H 	H 	0.38500 0.96230 0.77830 0.04000
C 	C 	0.12460 0.61020 0.60830 -0.03200
C 	C 	0.08490 0.67000 0.59280 -0.02100
H 	H 	0.10810 0.71530 0.58900 0.07600
C 	C 	0.01100 0.66550 0.58260 -0.02200
C 	C 	0.97840 0.60000 0.58580 -0.05400
H 	H 	0.92780 0.59710 0.57880 0.06900
C 	C 	0.01780 0.53570 0.59940 0.02000
C 	C 	0.09200 0.54310 0.61120 -0.05000
H 	H 	0.12040 0.50170 0.62140 0.06100
C 	C 	0.15280 0.43670 0.98600 -0.07400
C 	C 	0.10050 0.48870 0.98490 -0.02200
H 	H 	0.11340 0.53700 0.97380 0.05100
La	La	0.70966 0.37368 0.83589 1.52100
P 	P 	0.67527 0.17741 0.77592 0.45100
P 	P 	0.38607 0.22006 0.83517 0.44900
P 	P 	0.78029 0.38343 0.62863 0.42200
P 	P 	0.04010 0.25480 0.56196 0.40000
P 	P 	0.75603 0.53625 0.96530 0.46500
O 	O 	0.68400 0.18210 0.68670 -0.37400
H 	H 	0.66630 0.14510 0.66630 0.24900
O 	O 	0.73100 0.12350 0.80080 -0.23500
O 	O 	0.68020 0.24930 0.81290 -0.40900
O 	O 	0.36160 0.25310 0.75600 -0.41300
H 	H 	0.34960 0.29620 0.76240 0.26700
O 	O 	0.41250 0.28150 0.88360 -0.24100
O 	O 	0.32660 0.17540 0.86730 -0.39200
O 	O 	0.77230 0.35300 0.70910 -0.34800
O 	O 	0.74910 0.32940 0.56720 -0.36900
H 	H 	0.76810 0.28880 0.57330 0.26700
O 	O 	0.74450 0.45510 0.61750 -0.21100
O 	O 	0.98380 0.18830 0.57570 -0.13600
O 	O 	0.05760 0.25110 0.47710 -0.09600
O 	O 	0.10220 0.24070 0.61260 -0.52000
O 	O 	0.99820 0.20440 0.51320 -0.08900
O 	O 	0.09650 0.29160 0.50020 -0.09100
O 	O 	0.07970 0.23200 0.62720 0.32600
O 	O 	0.75880 0.47000 0.91820 -0.41200
O 	O 	0.71490 0.52700 0.04260 -0.41700
H 	H 	0.68070 0.55640 0.04440 0.19100
O 	O 	0.71850 0.60140 0.92710 -0.42900
H 	H 	0.73220 0.63950 0.94860 0.22300
C 	C 	0.58640 0.14200 0.79060 -0.07700
C 	C 	0.52950 0.18800 0.80360 0.01800
H 	H 	0.53730 0.23850 0.80440 0.02900
C 	C 	0.46010 0.16060 0.81570 -0.05600
C 	C 	0.44970 0.08700 0.81500 -0.02700
H 	H 	0.40300 0.06830 0.82450 0.03800
C 	C 	0.50690 0.03900 0.80050 0.00400
C 	C 	0.57550 0.06870 0.78830 -0.02600
H 	H 	0.61500 0.03770 0.77830 0.04000
C 	C 	0.87540 0.38980 0.60830 -0.03200
C 	C 	0.91510 0.33000 0.59280 -0.02100
H 	H 	0.89190 0.28470 0.58900 0.07600
C 	C 	0.98900 0.33450 0.58260 -0.02200
C 	C 	0.02160 0.40000 0.58580 -0.05400
H 	H 	0.07220 0.40290 0.57880 0.06900
C 	C 	0.98220 0.46430 0.59940 0.02000
C 	C 	0.90800 0.45690 0.61120 -0.05000
H 	H 	0.87960 0.49830 0.62140 0.06100
C 	C 	0.84720 0.56330 0.98600 -0.07400
C 	C 	0.89950 0.51130 0.98490 -0.02200
H 	H 	0.88660 0.46300 0.97380 0.05100
La	La	0.87368 0.20966 0.16411 1.52000
P 	P 	0.67741 0.17527 0.22408 0.45100
P 	P 	0.72006 0.88607 0.16483 0.44900
P 	P 	0.88343 0.28029 0.37137 0.42200
P 	P 	0.75480 0.54010 0.43804 0.40000
P 	P 	0.03625 0.25603 0.03470 0.46300
O 	O 	0.68210 0.18400 0.31330 -0.37400
H 	H 	0.64510 0.16630 0.33370 0.24900
O 	O 	0.62350 0.23100 0.19920 -0.23500
O 	O 	0.74930 0.18020 0.18710 -0.40900
O 	O 	0.75310 0.86160 0.24400 -0.41300
H 	H 	0.79620 0.84960 0.23760 0.26700
O 	O 	0.78150 0.91250 0.11640 -0.24200
O 	O 	0.67540 0.82660 0.13270 -0.39300
O 	O 	0.85300 0.27230 0.29090 -0.34800
O 	O 	0.82940 0.24910 0.43280 -0.36900
H 	H 	0.78880 0.26810 0.42670 0.26700
O 	O 	0.95510 0.24450 0.38250 -0.21100
O 	O 	0.68830 0.48380 0.42430 -0.13500
O 	O 	0.75110 0.55760 0.52290 -0.09600
O 	O 	0.74070 0.60220 0.38740 -0.52000
O 	O 	0.70440 0.49820 0.48680 -0.08900
O 	O 	0.79160 0.59650 0.49980 -0.09100
O 	O 	0.73200 0.57970 0.37280 0.32500
O 	O 	0.97000 0.25880 0.08180 -0.41200
O 	O 	0.02700 0.21490 0.95740 -0.41500
H 	H 	0.05640 0.18070 0.95560 0.19100
O 	O 	0.10140 0.21850 0.07290 -0.42900
H 	H 	0.13950 0.23220 0.05140 0.22200
C 	C 	0.64200 0.08640 0.20940 -0.07700
C 	C 	0.68800 0.02950 0.19640 0.01800
H 	H 	0.73850 0.03730 0.19560 0.02900
C 	C 	0.66060 0.96010 0.18430 -0.05600
C 	C 	0.58700 0.94970 0.18500 -0.02700
H 	H 	0.56830 0.90300 0.17550 0.03800
C 	C 	0.53900 0.00690 0.19950 0.00400
C 	C 	0.56870 0.07550 0.21170 -0.02600
H 	H 	0.53770 0.11500 0.22170 0.04000
C 	C 	0.88980 0.37540 0.39170 -0.03200
C 	C 	0.83000 0.41510 0.40720 -0.02100
H 	H 	0.78470 0.39190 0.41100 0.07600
C 	C 	0.83450 0.48900 0.41740 -0.02200
C 	C 	0.90000 0.52160 0.41420 -0.05400
H 	H 	0.90290 0.57220 0.42120 0.06900
C 	C 	0.96430 0.48220 0.40060 0.02000
C 	C 	0.95690 0.40800 0.38880 -0.05000
H 	H 	0.99830 0.37960 0.37860 0.06100
C 	C 	0.06330 0.34720 0.01400 -0.07500
C 	C 	0.01130 0.39950 0.01510 -0.02300
H 	H 	0.96300 0.38660 0.02620 0.05000
La	La	0.12632 0.79034 0.16411 1.52000
P 	P 	0.32259 0.82473 0.22408 0.45100
P 	P 	0.27994 0.11393 0.16483 0.44900
P 	P 	0.11657 0.71971 0.37137 0.42200
P 	P 	0.24520 0.45990 0.43804 0.40000
P 	P 	0.96375 0.74397 0.03470 0.46300
O 	O 	0.31790 0.81600 0.31330 -0.37400
H 	H 	0.35490 0.83370 0.33370 0.24900
O 	O 	0.37650 0.76900 0.19920 -0.23500
O 	O 	0.25070 0.81980 0.18710 -0.40900
O 	O 	0.24690 0.13840 0.24400 -0.41300
H 	H 	0.20380 0.15040 0.23760 0.26700
O 	O 	0.21850 0.08750 0.11640 -0.24200
O 	O 	0.32460 0.17340 0.13270 -0.39300
O 	O 	0.14700 0.72770 0.29090 -0.34800
O 	O 	0.17060 0.75090 0.43280 -0.36900
H 	H 	0.21120 0.73190 0.42670 0.26700
O 	O 	0.04490 0.75550 0.38250 -0.21100
O 	O 	0.31170 0.51620 0.42430 -0.13500
O 	O 	0.24890 0.44240 0.52290 -0.09600
O 	O 	0.25930 0.39780 0.38740 -0.52000
O 	O 	0.29560 0.50180 0.48680 -0.08900
O 	O 	0.20840 0.40350 0.49980 -0.09100
O 	O 	0.26800 0.42030 0.37280 0.32500
O 	O 	0.03000 0.74120 0.08180 -0.41200
O 	O 	0.97300 0.78510 0.95740 -0.41500
H 	H 	0.94360 0.81930 0.95560 0.19100
O 	O 	0.89860 0.78150 0.07290 -0.42900
H 	H 	0.86050 0.76780 0.05140 0.22200
C 	C 	0.35800 0.91360 0.20940 -0.07700
C 	C 	0.31200 0.97050 0.19640 0.01800
H 	H 	0.26150 0.96270 0.19560 0.02900
C 	C 	0.33940 0.03990 0.18430 -0.05600
C 	C 	0.41300 0.05030 0.18500 -0.02700
H 	H 	0.43170 0.09700 0.17550 0.03800
C 	C 	0.46100 0.99310 0.19950 0.00400
C 	C 	0.43130 0.92450 0.21170 -0.02600
H 	H 	0.46230 0.88500 0.22170 0.04000
C 	C 	0.11020 0.62460 0.39170 -0.03200
C 	C 	0.17000 0.58490 0.40720 -0.02100
H 	H 	0.21530 0.60810 0.41100 0.07600
C 	C 	0.16550 0.51100 0.41740 -0.02200
C 	C 	0.10000 0.47840 0.41420 -0.05400
H 	H 	0.09710 0.42780 0.42120 0.06900
C 	C 	0.03570 0.51780 0.40060 0.02000
C 	C 	0.04310 0.59200 0.38880 -0.05000
H 	H 	0.00170 0.62040 0.37860 0.06100
C 	C 	0.93670 0.65280 0.01400 -0.07500
C 	C 	0.98870 0.60050 0.01510 -0.02300
H 	H 	0.03700 0.61340 0.02620 0.05000
La	La	0.79034 0.87368 0.83589 1.52100
P 	P 	0.82473 0.67741 0.77592 0.45100
P 	P 	0.11393 0.72006 0.83517 0.44900
P 	P 	0.71971 0.88343 0.62863 0.42200
P 	P 	0.45990 0.75480 0.56196 0.40000
P 	P 	0.74397 0.03625 0.96530 0.46500
O 	O 	0.81600 0.68210 0.68670 -0.37400
H 	H 	0.83370 0.64510 0.66630 0.24900
O 	O 	0.76900 0.62350 0.80080 -0.23500
O 	O 	0.81980 0.74930 0.81290 -0.40900
O 	O 	0.13840 0.75310 0.75600 -0.41300
H 	H 	0.15040 0.79620 0.76240 0.26700
O 	O 	0.08750 0.78150 0.88360 -0.24100
O 	O 	0.17340 0.67540 0.86730 -0.39200
O 	O 	0.72770 0.85300 0.70910 -0.34800
O 	O 	0.75090 0.82940 0.56720 -0.36900
H 	H 	0.73190 0.78880 0.57330 0.26700
O 	O 	0.75550 0.95510 0.61750 -0.21100
O 	O 	0.51620 0.68830 0.57570 -0.13500
O 	O 	0.44240 0.75110 0.47710 -0.09600
O 	O 	0.39780 0.74070 0.61260 -0.52000
O 	O 	0.50180 0.70440 0.51320 -0.08900
O 	O 	0.40350 0.79160 0.50020 -0.09100
O 	O 	0.42030 0.73200 0.62720 0.32500
O 	O 	0.74120 0.97000 0.91820 -0.41200
O 	O 	0.78510 0.02700 0.04260 -0.41700
H 	H 	0.81930 0.05640 0.04440 0.19100
O 	O 	0.78150 0.10140 0.92710 -0.42900
H 	H 	0.76780 0.13950 0.94860 0.22300
C 	C 	0.91360 0.64200 0.79060 -0.07700
C 	C 	0.97050 0.68800 0.80360 0.01800
H 	H 	0.96270 0.73850 0.80440 0.02900
C 	C 	0.03990 0.66060 0.81570 -0.05600
C 	C 	0.05030 0.58700 0.81500 -0.02700
H 	H 	0.09700 0.56830 0.82450 0.03800
C 	C 	0.99310 0.53900 0.80050 0.00400
C 	C 	0.92450 0.56870 0.78830 -0.02600
H 	H 	0.88500 0.53770 0.77830 0.04000
C 	C 	0.62460 0.88980 0.60830 -0.03200
C 	C 	0.58490 0.83000 0.59280 -0.02100
H 	H 	0.60810 0.78470 0.58900 0.07600
C 	C 	0.51100 0.83450 0.58260 -0.02200
C 	C 	0.47840 0.90000 0.58580 -0.05400
H 	H 	0.42780 0.90290 0.57880 0.06900
C 	C 	0.51780 0.96430 0.59940 0.02000
C 	C 	0.59200 0.95690 0.61120 -0.05000
H 	H 	0.62040 0.99830 0.62140 0.06100
C 	C 	0.65280 0.06330 0.98600 -0.07400
C 	C 	0.60050 0.01130 0.98490 -0.02200
H 	H 	0.61340 0.96300 0.97380 0.05100
La	La	0.20966 0.12632 0.83589 1.52100
P 	P 	0.17527 0.32259 0.77592 0.45100
P 	P 	0.88607 0.27994 0.83517 0.44900
P 	P 	0.28029 0.11657 0.62863 0.42200
P 	P 	0.54010 0.24520 0.56196 0.40000
P 	P 	0.25603 0.96375 0.96530 0.46500
O 	O 	0.18400 0.31790 0.68670 -0.37400
H 	H 	0.16630 0.35490 0.66630 0.24900
O 	O 	0.23100 0.37650 0.80080 -0.23500
O 	O 	0.18020 0.25070 0.81290 -0.40900
O 	O 	0.86160 0.24690 0.75600 -0.41300
H 	H 	0.84960 0.20380 0.76240 0.26700
O 	O 	0.91250 0.21850 0.88360 -0.24100
O 	O 	0.82660 0.32460 0.86730 -0.39200
O 	O 	0.27230 0.14700 0.70910 -0.34800
O 	O 	0.24910 0.17060 0.56720 -0.36900
H 	H 	0.26810 0.21120 0.57330 0.26700
O 	O 	0.24450 0.04490 0.61750 -0.21100
O 	O 	0.48380 0.31170 0.57570 -0.13500
O 	O 	0.55760 0.24890 0.47710 -0.09600
O 	O 	0.60220 0.25930 0.61260 -0.52000
O 	O 	0.49820 0.29560 0.51320 -0.08900
O 	O 	0.59650 0.20840 0.50020 -0.09100
O 	O 	0.57970 0.26800 0.62720 0.32500
O 	O 	0.25880 0.03000 0.91820 -0.41200
O 	O 	0.21490 0.97300 0.04260 -0.41700
H 	H 	0.18070 0.94360 0.04440 0.19100
O 	O 	0.21850 0.89860 0.92710 -0.42900
H 	H 	0.23220 0.86050 0.94860 0.22300
C 	C 	0.08640 0.35800 0.79060 -0.07700
C 	C 	0.02950 0.31200 0.80360 0.01800
H 	H 	0.03730 0.26150 0.80440 0.02900
C 	C 	0.96010 0.33940 0.81570 -0.05600
C 	C 	0.94970 0.41300 0.81500 -0.02700
H 	H 	0.90300 0.43170 0.82450 0.03800
C 	C 	0.00690 0.46100 0.80050 0.00400
C 	C 	0.07550 0.43130 0.78830 -0.02600
H 	H 	0.11500 0.46230 0.77830 0.04000
C 	C 	0.37540 0.11020 0.60830 -0.03200
C 	C 	0.41510 0.17000 0.59280 -0.02100
H 	H 	0.39190 0.21530 0.58900 0.07600
C 	C 	0.48900 0.16550 0.58260 -0.02200
C 	C 	0.52160 0.10000 0.58580 -0.05400
H 	H 	0.57220 0.09710 0.57880 0.06900
C 	C 	0.48220 0.03570 0.59940 0.02000
C 	C 	0.40800 0.04310 0.61120 -0.05000
H 	H 	0.37960 0.00170 0.62140 0.06100
C 	C 	0.34720 0.93670 0.98600 -0.07400
C 	C 	0.39950 0.98870 0.98490 -0.02200
H 	H 	0.38660 0.03700 0.97380 0.05100
C 	C 	0.52820 0.02820 -0.00000 0.00400
C 	C 	0.63450 0.13450 -0.00000 0.01900
H 	H 	0.67060 0.17060 -0.00000 -0.00500
C 	C 	0.47180 0.97180 -0.00000 0.00400
C 	C 	0.36550 0.86550 -0.00000 0.01900
H 	H 	0.32940 0.82940 -0.00000 -0.00500
C 	C 	0.02820 0.47180 -0.00000 0.00400
C 	C 	0.13450 0.36550 -0.00000 0.01900
H 	H 	0.17060 0.32940 -0.00000 -0.00500
C 	C 	0.97180 0.52820 -0.00000 0.00400
C 	C 	0.86550 0.63450 -0.00000 0.01900
H 	H 	0.82940 0.67060 -0.00000 -0.00500
