data_crystal

_cell_length_a 12.81400
_cell_length_b 6.64590
_cell_length_c 14.16700
_cell_angle_alpha 90.00000
_cell_angle_beta  115.91300
_cell_angle_gamma 90.00000

_symmetry_space_group_name_	'P 1'
_symmetry_space_group_name_H-M	'P 1'

loop_
_symmetry_equiv_pos_as_xyz
  x,y,z

loop_
_atom_site_label
_atom_site_type_symbol
_atom_site_fract_x
_atom_site_fract_y
_atom_site_fract_z
_atom_site_charge
O 	O 	0.19370 0.01620 0.07640 -0.78000
H 	H 	0.20500 0.09100 0.12500 0.29600
O 	O 	0.80630 0.51620 0.92360 -0.78500
H 	H 	0.79500 0.59100 0.87500 0.29600
O 	O 	0.80630 0.98380 0.92360 -0.78100
H 	H 	0.79500 0.90900 0.87500 0.29500
O 	O 	0.19370 0.48380 0.07640 -0.78500
H 	H 	0.20500 0.40900 0.12500 0.29600
Zn	Zn	0.81460 0.75000 0.01076 1.20300
Zn	Zn	0.12649 0.75000 0.02608 1.24000
N 	N 	0.65170 0.75000 0.01980 -0.25100
N 	N 	0.86240 0.75000 0.16930 -0.23300
O 	O 	0.01250 0.75000 0.09180 -0.54700
O 	O 	0.16230 0.75000 0.25000 -0.29800
O 	O 	0.98770 0.75000 0.86810 -0.42900
O 	O 	0.16790 0.75000 0.89280 -0.42300
C 	C 	0.54570 0.75000 0.93910 0.10500
H 	H 	0.53980 0.75000 0.87130 -0.02600
C 	C 	0.44500 0.75000 0.95160 -0.15500
H 	H 	0.37290 0.75000 0.89350 0.09500
C 	C 	0.45310 0.75000 0.05210 0.07600
H 	H 	0.38660 0.75000 0.06290 -0.01300
C 	C 	0.56030 0.75000 0.13510 -0.14000
H 	H 	0.56720 0.75000 0.20320 0.07100
C 	C 	0.65930 0.75000 0.11830 0.06100
C 	C 	0.77920 0.75000 0.20420 0.04400
C 	C 	0.80740 0.75000 0.30930 -0.09500
H 	H 	0.74890 0.75000 0.33140 0.05700
C 	C 	0.92360 0.75000 0.38350 0.02300
C 	C 	0.00660 0.75000 0.34600 -0.05300
H 	H 	0.08500 0.75000 0.39250 0.05900
C 	C 	0.97280 0.75000 0.23930 -0.02000
C 	C 	0.05820 0.75000 0.19260 0.31700
C 	C 	0.95770 0.75000 0.49990 0.06000
C 	C 	0.07410 0.75000 0.57180 -0.12000
H 	H 	0.13060 0.75000 0.54740 0.07200
C 	C 	0.10730 0.75000 0.67780 0.05000
H 	H 	0.18580 0.75000 0.72430 0.02400
C 	C 	0.02330 0.75000 0.71690 -0.11700
C 	C 	0.90810 0.75000 0.64560 0.05500
H 	H 	0.85120 0.75000 0.66970 0.02200
C 	C 	0.87560 0.75000 0.53850 -0.12300
H 	H 	0.79720 0.75000 0.49190 0.06900
C 	C 	0.06160 0.75000 0.83190 0.31400
Zn	Zn	0.18540 0.25000 0.98924 1.20300
Zn	Zn	0.87351 0.25000 0.97392 1.24000
N 	N 	0.34830 0.25000 0.98020 -0.25100
N 	N 	0.13760 0.25000 0.83070 -0.23300
O 	O 	0.98750 0.25000 0.90820 -0.54700
O 	O 	0.83770 0.25000 0.75000 -0.29800
O 	O 	0.01230 0.25000 0.13190 -0.42900
O 	O 	0.83210 0.25000 0.10720 -0.42300
C 	C 	0.45430 0.25000 0.06090 0.10500
H 	H 	0.46020 0.25000 0.12870 -0.02600
C 	C 	0.55500 0.25000 0.04840 -0.15500
H 	H 	0.62710 0.25000 0.10650 0.09500
C 	C 	0.54690 0.25000 0.94790 0.07600
H 	H 	0.61340 0.25000 0.93710 -0.01300
C 	C 	0.43970 0.25000 0.86490 -0.14000
H 	H 	0.43280 0.25000 0.79680 0.07100
C 	C 	0.34070 0.25000 0.88170 0.06100
C 	C 	0.22080 0.25000 0.79580 0.04400
C 	C 	0.19260 0.25000 0.69070 -0.09500
H 	H 	0.25110 0.25000 0.66860 0.05700
C 	C 	0.07640 0.25000 0.61650 0.02300
C 	C 	0.99340 0.25000 0.65400 -0.05300
H 	H 	0.91500 0.25000 0.60750 0.05900
C 	C 	0.02720 0.25000 0.76070 -0.02000
C 	C 	0.94180 0.25000 0.80740 0.31700
C 	C 	0.04230 0.25000 0.50010 0.06000
C 	C 	0.92590 0.25000 0.42820 -0.12000
H 	H 	0.86940 0.25000 0.45260 0.07200
C 	C 	0.89270 0.25000 0.32220 0.05000
H 	H 	0.81420 0.25000 0.27570 0.02400
C 	C 	0.97670 0.25000 0.28310 -0.11700
C 	C 	0.09190 0.25000 0.35440 0.05500
H 	H 	0.14880 0.25000 0.33030 0.02200
C 	C 	0.12440 0.25000 0.46150 -0.12300
H 	H 	0.20280 0.25000 0.50810 0.06900
C 	C 	0.93840 0.25000 0.16810 0.31400
