data_crystal

_cell_length_a 10.70430
_cell_length_b 14.12460
_cell_length_c 31.42310
_cell_angle_alpha 90.00000
_cell_angle_beta  90.00000
_cell_angle_gamma 90.00000

_symmetry_space_group_name_	'P 1'
_symmetry_space_group_name_H-M	'P 1'

loop_
_symmetry_equiv_pos_as_xyz
  x,y,z

loop_
_atom_site_label
_atom_site_type_symbol
_atom_site_fract_x
_atom_site_fract_y
_atom_site_fract_z
_atom_site_charge
C 	C 	0.67360 0.46140 0.54661 -0.09600
H 	H 	0.76200 0.44300 0.54510 0.08000
C 	C 	0.63060 0.39510 0.47739 0.17700
C 	C 	0.60310 0.38710 0.57293 0.32300
C 	C 	0.66560 0.55620 0.56963 0.04000
H 	H 	0.67520 0.54560 0.60000 0.03000
H 	H 	0.58360 0.58330 0.56490 0.03400
C 	C 	0.76530 0.62690 0.55476 -0.37300
H 	H 	0.84780 0.60190 0.56080 0.15100
H 	H 	0.75840 0.63630 0.52430 0.15000
C 	C 	0.45340 0.77470 0.64579 0.31600
C 	C 	0.37570 0.69980 0.66890 -0.09600
H 	H 	0.41800 0.68400 0.69570 0.08400
C 	C 	0.23190 0.79050 0.71230 0.20300
C 	C 	0.10050 0.81830 0.72324 -0.04200
C 	C 	0.08310 0.86890 0.76077 -0.03300
H 	H 	0.15110 0.88320 0.77800 0.05900
C 	C 	0.96380 0.89810 0.77251 -0.04300
H 	H 	0.95210 0.93060 0.79800 0.04500
C 	C 	0.58420 0.39180 0.43320 0.00800
C 	C 	0.57480 0.30570 0.41200 0.11500
H 	H 	0.60090 0.25030 0.42530 -0.16200
C 	C 	0.52650 0.30230 0.37100 0.08900
H 	H 	0.52020 0.24470 0.35680 0.00500
C 	C 	0.48760 0.38510 0.35110 0.06700
H 	H 	0.45520 0.38290 0.32360 0.00000
C 	C 	0.49700 0.47130 0.37220 -0.15400
H 	H 	0.47090 0.52670 0.35890 0.03800
C 	C 	0.54530 0.47460 0.41330 -0.06400
H 	H 	0.55160 0.53230 0.42740 -0.04900
C 	C 	0.86270 0.87920 0.74655 -0.03600
H 	H 	0.78370 0.90140 0.75380 0.04100
C 	C 	0.87950 0.82680 0.70967 -0.04500
H 	H 	0.81120 0.81190 0.69260 0.04800
C 	C 	0.99740 0.79670 0.69821 -0.03200
H 	H 	0.00800 0.76150 0.67340 0.04600
C 	C 	0.36950 0.61000 0.64154 0.04100
H 	H 	0.33360 0.62560 0.61410 0.02800
H 	H 	0.45350 0.58670 0.63670 0.03100
C 	C 	0.29150 0.53190 0.66228 -0.36100
H 	H 	0.31390 0.52620 0.69210 0.14600
H 	H 	0.20360 0.54800 0.66060 0.14500
C 	C 	0.31480 0.43810 0.63977 0.37700
C 	C 	0.31410 0.21340 0.68833 0.08500
H 	H 	0.31960 0.27490 0.69880 0.00600
C 	C 	0.26780 0.14380 0.71453 -0.13600
H 	H 	0.24180 0.15790 0.74200 0.08500
C 	C 	0.26070 0.05230 0.69912 0.05500
H 	H 	0.23080 0.00380 0.71640 0.02300
C 	C 	0.29860 0.03320 0.65765 -0.11800
H 	H 	0.29420 0.97210 0.64680 0.08800
C 	C 	0.34300 0.10720 0.63280 0.05800
C 	C 	0.38480 0.09700 0.58826 0.06500
C 	C 	0.38450 0.01220 0.56617 -0.14100
H 	H 	0.35450 0.95720 0.57880 0.08900
C 	C 	0.42990 0.01080 0.52473 0.06100
H 	H 	0.43200 0.95440 0.50950 0.00400
C 	C 	0.47210 0.09400 0.50631 -0.12800
H 	H 	0.50190 0.09420 0.47850 0.08800
C 	C 	0.46940 0.17740 0.53007 0.08400
H 	H 	0.49720 0.23350 0.51780 0.02300
C 	C 	0.74810 0.72040 0.57745 0.38900
C 	C 	0.74120 0.94340 0.52867 0.07800
H 	H 	0.73760 0.88160 0.51850 0.00500
C 	C 	0.78260 0.01360 0.50181 -0.13200
H 	H 	0.80730 0.99900 0.47420 0.09200
C 	C 	0.78700 0.10620 0.51637 0.05700
H 	H 	0.81310 0.15490 0.49850 0.03300
C 	C 	0.75150 0.12510 0.55840 -0.11700
H 	H 	0.75430 0.18640 0.56920 0.08800
C 	C 	0.71210 0.05040 0.58359 0.05800
C 	C 	0.67270 0.06130 0.62889 0.05600
C 	C 	0.67340 0.14610 0.65039 -0.12900
H 	H 	0.70020 0.20120 0.63700 0.08500
C 	C 	0.63340 0.14840 0.69239 0.03400
H 	H 	0.63350 0.20490 0.70760 0.03600
C 	C 	0.59290 0.06460 0.71146 -0.11500
H 	H 	0.56510 0.06430 0.73950 0.07500
C 	C 	0.59500 0.98230 0.68788 0.06600
H 	H 	0.56730 0.92660 0.70050 0.01600
Cu	Cu	0.42032 0.29063 0.60758 0.91400
Cu	Cu	0.63895 0.86634 0.61041 0.91000
N 	N 	0.62590 0.46998 0.50358 -0.19000
H 	H 	0.59490 0.52270 0.49490 0.12000
N 	N 	0.25010 0.73323 0.67859 -0.19700
H 	H 	0.18800 0.71650 0.66290 0.12400
N 	N 	0.35170 0.19668 0.64837 -0.22000
N 	N 	0.42730 0.17820 0.57021 -0.22000
N 	N 	0.70580 0.96045 0.56889 -0.22100
N 	N 	0.63530 0.97942 0.64750 -0.22300
O 	O 	0.67690 0.31923 0.48908 -0.21300
O 	O 	0.48760 0.37544 0.56459 -0.37200
O 	O 	0.65910 0.34546 0.60189 -0.30500
O 	O 	0.82650 0.75291 0.60255 -0.33600
O 	O 	0.64390 0.76286 0.57029 -0.39600
O 	O 	0.40340 0.82669 0.61901 -0.31000
O 	O 	0.57090 0.77688 0.65409 -0.36500
O 	O 	0.41520 0.39454 0.64939 -0.38500
O 	O 	0.24120 0.40634 0.61251 -0.32700
O 	O 	0.32140 0.81716 0.73408 -0.22500
C 	C 	0.57120 0.41410 0.43340 0.06000
C 	C 	0.55850 0.33570 0.40700 -0.32200
H 	H 	0.58240 0.27610 0.41660 0.23100
C 	C 	0.51010 0.34650 0.36620 -0.05300
H 	H 	0.50150 0.29400 0.34860 -0.00100
C 	C 	0.47430 0.43550 0.35188 -0.01000
H 	H 	0.44190 0.44270 0.32460 0.02800
C 	C 	0.48710 0.51390 0.37830 0.11200
H 	H 	0.46320 0.57350 0.36870 -0.02300
C 	C 	0.53550 0.50320 0.41910 0.05900
H 	H 	0.54400 0.55560 0.43670 0.05300
C 	C 	0.82640 0.53860 0.04661 -0.09500
H 	H 	0.73800 0.55700 0.04510 0.08100
C 	C 	0.86940 0.60490 0.97739 0.17800
C 	C 	0.89690 0.61290 0.07293 0.32400
C 	C 	0.83440 0.44380 0.06963 0.04100
H 	H 	0.82480 0.45440 0.10000 0.03000
H 	H 	0.91640 0.41670 0.06490 0.03400
C 	C 	0.73470 0.37310 0.05476 -0.37300
H 	H 	0.65220 0.39810 0.06080 0.15100
H 	H 	0.74160 0.36370 0.02430 0.15000
C 	C 	0.04660 0.22530 0.14579 0.31600
C 	C 	0.12430 0.30020 0.16890 -0.09600
H 	H 	0.08200 0.31600 0.19570 0.08400
C 	C 	0.26810 0.20950 0.21230 0.20300
C 	C 	0.39950 0.18170 0.22324 -0.04200
C 	C 	0.41690 0.13110 0.26077 -0.03400
H 	H 	0.34890 0.11680 0.27800 0.05900
C 	C 	0.53620 0.10190 0.27251 -0.04200
H 	H 	0.54790 0.06940 0.29800 0.04500
C 	C 	0.91580 0.60820 0.93320 0.00800
C 	C 	0.92520 0.69430 0.91200 0.11500
H 	H 	0.89910 0.74970 0.92530 -0.16200
C 	C 	0.97350 0.69770 0.87100 0.08800
H 	H 	0.97980 0.75530 0.85680 0.00500
C 	C 	0.01240 0.61490 0.85110 0.06600
H 	H 	0.04480 0.61710 0.82360 0.00100
C 	C 	0.00300 0.52870 0.87220 -0.15300
H 	H 	0.02910 0.47330 0.85890 0.03800
C 	C 	0.95470 0.52540 0.91330 -0.06300
H 	H 	0.94840 0.46770 0.92740 -0.05000
C 	C 	0.63730 0.12080 0.24655 -0.03700
H 	H 	0.71630 0.09860 0.25380 0.04200
C 	C 	0.62050 0.17320 0.20967 -0.04400
H 	H 	0.68880 0.18810 0.19260 0.04800
C 	C 	0.50260 0.20330 0.19821 -0.03200
H 	H 	0.49200 0.23850 0.17340 0.04700
C 	C 	0.13050 0.39000 0.14154 0.04100
H 	H 	0.16640 0.37440 0.11410 0.02800
H 	H 	0.04650 0.41330 0.13670 0.03100
C 	C 	0.20850 0.46810 0.16228 -0.36100
H 	H 	0.18610 0.47380 0.19210 0.14600
H 	H 	0.29640 0.45200 0.16060 0.14500
C 	C 	0.18520 0.56190 0.13977 0.37700
C 	C 	0.18590 0.78660 0.18833 0.08500
H 	H 	0.18040 0.72510 0.19880 0.00600
C 	C 	0.23220 0.85620 0.21453 -0.13600
H 	H 	0.25820 0.84210 0.24200 0.08500
C 	C 	0.23930 0.94770 0.19912 0.05300
H 	H 	0.26920 0.99620 0.21640 0.02400
C 	C 	0.20140 0.96680 0.15765 -0.11600
H 	H 	0.20580 0.02790 0.14680 0.08700
C 	C 	0.15700 0.89280 0.13280 0.05700
C 	C 	0.11520 0.90300 0.08826 0.06500
C 	C 	0.11550 0.98780 0.06617 -0.13900
H 	H 	0.14550 0.04280 0.07880 0.08800
C 	C 	0.07010 0.98920 0.02473 0.06100
H 	H 	0.06800 0.04560 0.00950 0.00400
C 	C 	0.02790 0.90600 0.00631 -0.12600
H 	H 	0.99810 0.90580 0.97850 0.08700
C 	C 	0.03060 0.82260 0.03007 0.08300
H 	H 	0.00280 0.76650 0.01780 0.02400
C 	C 	0.75190 0.27960 0.07745 0.38900
C 	C 	0.75880 0.05660 0.02867 0.07800
H 	H 	0.76240 0.11840 0.01850 0.00500
C 	C 	0.71740 0.98640 0.00181 -0.13200
H 	H 	0.69270 0.00100 0.97420 0.09200
C 	C 	0.71300 0.89380 0.01637 0.05700
H 	H 	0.68690 0.84510 0.99850 0.03200
C 	C 	0.74850 0.87490 0.05840 -0.11700
H 	H 	0.74570 0.81360 0.06920 0.08800
C 	C 	0.78790 0.94960 0.08359 0.05800
C 	C 	0.82730 0.93870 0.12889 0.05600
C 	C 	0.82660 0.85390 0.15039 -0.12900
H 	H 	0.79980 0.79880 0.13700 0.08500
C 	C 	0.86660 0.85160 0.19239 0.03400
H 	H 	0.86650 0.79510 0.20760 0.03600
C 	C 	0.90710 0.93540 0.21146 -0.11500
H 	H 	0.93490 0.93570 0.23950 0.07500
C 	C 	0.90500 0.01770 0.18788 0.06600
H 	H 	0.93270 0.07340 0.20050 0.01600
Cu	Cu	0.07968 0.70937 0.10758 0.91400
Cu	Cu	0.86105 0.13366 0.11041 0.90900
N 	N 	0.87410 0.53002 0.00358 -0.19000
H 	H 	0.90510 0.47730 0.99490 0.11900
N 	N 	0.24990 0.26677 0.17859 -0.19700
H 	H 	0.31200 0.28350 0.16290 0.12400
N 	N 	0.14830 0.80332 0.14837 -0.22000
N 	N 	0.07270 0.82180 0.07021 -0.22000
N 	N 	0.79420 0.03955 0.06889 -0.22100
N 	N 	0.86470 0.02058 0.14750 -0.22300
O 	O 	0.82310 0.68077 0.98908 -0.21300
O 	O 	0.01240 0.62456 0.06459 -0.37100
O 	O 	0.84090 0.65454 0.10189 -0.30500
O 	O 	0.67350 0.24709 0.10255 -0.33600
O 	O 	0.85610 0.23714 0.07029 -0.39700
O 	O 	0.09660 0.17331 0.11901 -0.31000
O 	O 	0.92910 0.22312 0.15409 -0.36500
O 	O 	0.08480 0.60546 0.14939 -0.38500
O 	O 	0.25880 0.59366 0.11251 -0.32800
O 	O 	0.17860 0.18284 0.23408 -0.22500
C 	C 	0.92880 0.58590 0.93340 0.06000
C 	C 	0.94150 0.66430 0.90700 -0.32100
H 	H 	0.91760 0.72390 0.91660 0.23100
C 	C 	0.98990 0.65350 0.86620 -0.05300
H 	H 	0.99850 0.70600 0.84860 -0.00100
C 	C 	0.02570 0.56450 0.85188 -0.00900
H 	H 	0.05810 0.55730 0.82460 0.02800
C 	C 	0.01290 0.48610 0.87830 0.11100
H 	H 	0.03680 0.42650 0.86870 -0.02300
C 	C 	0.96450 0.49680 0.91910 0.05900
H 	H 	0.95600 0.44440 0.93670 0.05300
C 	C 	0.32640 0.96140 0.95339 -0.09500
H 	H 	0.23800 0.94300 0.95490 0.08100
C 	C 	0.36940 0.89510 0.02261 0.17700
C 	C 	0.39690 0.88710 0.92707 0.32400
C 	C 	0.33440 0.05620 0.93037 0.04000
H 	H 	0.32480 0.04560 0.90000 0.03000
H 	H 	0.41640 0.08330 0.93510 0.03500
C 	C 	0.23470 0.12690 0.94524 -0.37300
H 	H 	0.15220 0.10190 0.93920 0.15100
H 	H 	0.24160 0.13630 0.97570 0.15000
C 	C 	0.54660 0.27470 0.85421 0.31600
C 	C 	0.62430 0.19980 0.83110 -0.09600
H 	H 	0.58200 0.18400 0.80430 0.08400
C 	C 	0.76810 0.29050 0.78770 0.20300
C 	C 	0.89950 0.31830 0.77676 -0.04200
C 	C 	0.91690 0.36890 0.73923 -0.03300
H 	H 	0.84890 0.38320 0.72200 0.05900
C 	C 	0.03620 0.39810 0.72749 -0.04200
H 	H 	0.04790 0.43060 0.70200 0.04500
C 	C 	0.41580 0.89180 0.06680 0.01100
C 	C 	0.42520 0.80570 0.08800 0.11400
H 	H 	0.39910 0.75030 0.07470 -0.15900
C 	C 	0.47350 0.80230 0.12900 0.08700
H 	H 	0.47980 0.74470 0.14320 0.00600
C 	C 	0.51240 0.88510 0.14890 0.06900
H 	H 	0.54480 0.88290 0.17640 -0.00000
C 	C 	0.50300 0.97130 0.12780 -0.15500
H 	H 	0.52910 0.02670 0.14110 0.03500
C 	C 	0.45470 0.97460 0.08670 -0.07100
H 	H 	0.44840 0.03230 0.07260 -0.04500
C 	C 	0.13730 0.37920 0.75345 -0.03600
H 	H 	0.21630 0.40140 0.74620 0.04100
C 	C 	0.12050 0.32680 0.79033 -0.04500
H 	H 	0.18880 0.31190 0.80740 0.04800
C 	C 	0.00260 0.29670 0.80179 -0.03100
H 	H 	0.99200 0.26150 0.82660 0.04600
C 	C 	0.63050 0.11000 0.85846 0.04200
H 	H 	0.66640 0.12560 0.88590 0.02800
H 	H 	0.54650 0.08670 0.86330 0.03100
C 	C 	0.70850 0.03190 0.83772 -0.36200
H 	H 	0.68610 0.02620 0.80790 0.14600
H 	H 	0.79640 0.04800 0.83940 0.14500
C 	C 	0.68520 0.93810 0.86023 0.37800
C 	C 	0.68590 0.71340 0.81167 0.08600
H 	H 	0.68040 0.77490 0.80120 0.00600
C 	C 	0.73220 0.64380 0.78547 -0.13700
H 	H 	0.75820 0.65790 0.75800 0.08500
C 	C 	0.73930 0.55230 0.80088 0.05500
H 	H 	0.76920 0.50380 0.78360 0.02300
C 	C 	0.70140 0.53320 0.84235 -0.11900
H 	H 	0.70580 0.47210 0.85320 0.08900
C 	C 	0.65700 0.60720 0.86720 0.05800
C 	C 	0.61520 0.59700 0.91174 0.06500
C 	C 	0.61550 0.51220 0.93383 -0.14100
H 	H 	0.64550 0.45720 0.92120 0.08900
C 	C 	0.57010 0.51080 0.97527 0.06000
H 	H 	0.56800 0.45440 0.99050 0.00500
C 	C 	0.52790 0.59400 0.99369 -0.12700
H 	H 	0.49810 0.59420 0.02150 0.08700
C 	C 	0.53060 0.67740 0.96993 0.08300
H 	H 	0.50280 0.73350 0.98220 0.02300
C 	C 	0.25190 0.22040 0.92255 0.38900
C 	C 	0.25880 0.44340 0.97133 0.08100
H 	H 	0.26240 0.38160 0.98150 0.00500
C 	C 	0.21740 0.51360 0.99819 -0.13600
H 	H 	0.19270 0.49900 0.02580 0.09400
C 	C 	0.21300 0.60620 0.98363 0.05900
H 	H 	0.18690 0.65490 0.00150 0.03100
C 	C 	0.24850 0.62510 0.94160 -0.11800
H 	H 	0.24570 0.68640 0.93080 0.08800
C 	C 	0.28790 0.55040 0.91641 0.05800
C 	C 	0.32730 0.56130 0.87111 0.05600
C 	C 	0.32660 0.64610 0.84961 -0.12900
H 	H 	0.29980 0.70120 0.86300 0.08500
C 	C 	0.36660 0.64840 0.80761 0.03400
H 	H 	0.36650 0.70490 0.79240 0.03600
C 	C 	0.40710 0.56460 0.78854 -0.11600
H 	H 	0.43490 0.56430 0.76050 0.07500
C 	C 	0.40500 0.48230 0.81212 0.06700
H 	H 	0.43270 0.42660 0.79950 0.01600
Cu	Cu	0.57968 0.79063 0.89242 0.91400
Cu	Cu	0.36105 0.36634 0.88959 0.91000
N 	N 	0.37410 0.96998 0.99642 -0.18900
H 	H 	0.40510 0.02270 0.00510 0.11900
N 	N 	0.74990 0.23323 0.82141 -0.19700
H 	H 	0.81200 0.21650 0.83710 0.12400
N 	N 	0.64830 0.69668 0.85163 -0.22100
N 	N 	0.57270 0.67820 0.92979 -0.22000
N 	N 	0.29420 0.46045 0.93111 -0.22100
N 	N 	0.36470 0.47942 0.85250 -0.22300
O 	O 	0.32310 0.81923 0.01092 -0.21300
O 	O 	0.51240 0.87544 0.93541 -0.37100
O 	O 	0.34090 0.84546 0.89811 -0.30500
O 	O 	0.17350 0.25291 0.89745 -0.33600
O 	O 	0.35610 0.26286 0.92971 -0.39600
O 	O 	0.59660 0.32669 0.88099 -0.31000
O 	O 	0.42910 0.27688 0.84591 -0.36500
O 	O 	0.58480 0.89454 0.85061 -0.38500
O 	O 	0.75880 0.90634 0.88749 -0.32700
O 	O 	0.67860 0.31716 0.76592 -0.22500
C 	C 	0.42880 0.91410 0.06660 0.05900
C 	C 	0.44150 0.83570 0.09300 -0.31900
H 	H 	0.41760 0.77610 0.08340 0.22800
C 	C 	0.48990 0.84650 0.13380 -0.05300
H 	H 	0.49850 0.79400 0.15140 -0.00100
C 	C 	0.52570 0.93550 0.14812 -0.00900
H 	H 	0.55810 0.94270 0.17540 0.02900
C 	C 	0.51290 0.01390 0.12170 0.11800
H 	H 	0.53680 0.07350 0.13130 -0.02400
C 	C 	0.46450 0.00320 0.08090 0.06300
H 	H 	0.45600 0.05560 0.06330 0.04800
C 	C 	0.17360 0.03860 0.45339 -0.09500
H 	H 	0.26200 0.05700 0.45490 0.08100
C 	C 	0.13060 0.10490 0.52261 0.17800
C 	C 	0.10310 0.11290 0.42707 0.32300
C 	C 	0.16560 0.94380 0.43037 0.04100
H 	H 	0.17520 0.95440 0.40000 0.03000
H 	H 	0.08360 0.91670 0.43510 0.03400
C 	C 	0.26530 0.87310 0.44524 -0.37300
H 	H 	0.34780 0.89810 0.43920 0.15100
H 	H 	0.25840 0.86370 0.47570 0.15000
C 	C 	0.95340 0.72530 0.35421 0.31600
C 	C 	0.87570 0.80020 0.33110 -0.09600
H 	H 	0.91800 0.81600 0.30430 0.08400
C 	C 	0.73190 0.70950 0.28770 0.20300
C 	C 	0.60050 0.68170 0.27676 -0.04100
C 	C 	0.58310 0.63110 0.23923 -0.03400
H 	H 	0.65110 0.61680 0.22200 0.05900
C 	C 	0.46380 0.60190 0.22749 -0.04100
H 	H 	0.45210 0.56940 0.20200 0.04500
C 	C 	0.08420 0.10820 0.56680 0.00900
C 	C 	0.07480 0.19430 0.58800 0.11500
H 	H 	0.10090 0.24970 0.57470 -0.16200
C 	C 	0.02650 0.19770 0.62900 0.08700
H 	H 	0.02020 0.25530 0.64320 0.00600
C 	C 	0.98760 0.11490 0.64890 0.06800
H 	H 	0.95520 0.11710 0.67640 -0.00000
C 	C 	0.99700 0.02870 0.62780 -0.15500
H 	H 	0.97090 0.97330 0.64110 0.03600
C 	C 	0.04530 0.02540 0.58670 -0.06600
H 	H 	0.05160 0.96770 0.57260 -0.04900
C 	C 	0.36270 0.62080 0.25345 -0.03700
H 	H 	0.28370 0.59860 0.24620 0.04200
C 	C 	0.37950 0.67320 0.29033 -0.04400
H 	H 	0.31120 0.68810 0.30740 0.04800
C 	C 	0.49740 0.70330 0.30179 -0.03300
H 	H 	0.50800 0.73850 0.32660 0.04700
C 	C 	0.86950 0.89000 0.35846 0.04200
H 	H 	0.83360 0.87440 0.38590 0.02800
H 	H 	0.95350 0.91330 0.36330 0.03100
C 	C 	0.79150 0.96810 0.33772 -0.36200
H 	H 	0.81390 0.97380 0.30790 0.14600
H 	H 	0.70360 0.95200 0.33940 0.14500
C 	C 	0.81480 0.06190 0.36023 0.37800
C 	C 	0.81410 0.28660 0.31167 0.08600
H 	H 	0.81960 0.22510 0.30120 0.00600
C 	C 	0.76780 0.35620 0.28547 -0.13700
H 	H 	0.74180 0.34210 0.25800 0.08500
C 	C 	0.76070 0.44770 0.30088 0.05600
H 	H 	0.73080 0.49620 0.28360 0.02300
C 	C 	0.79860 0.46680 0.34235 -0.11900
H 	H 	0.79420 0.52790 0.35320 0.08900
C 	C 	0.84300 0.39280 0.36720 0.05800
C 	C 	0.88480 0.40300 0.41174 0.06500
C 	C 	0.88450 0.48780 0.43383 -0.14100
H 	H 	0.85450 0.54280 0.42120 0.08900
C 	C 	0.92990 0.48920 0.47527 0.05900
H 	H 	0.93200 0.54560 0.49050 0.00500
C 	C 	0.97210 0.40600 0.49369 -0.12500
H 	H 	0.00190 0.40580 0.52150 0.08600
C 	C 	0.96940 0.32260 0.46993 0.08300
H 	H 	0.99720 0.26650 0.48220 0.02400
C 	C 	0.24810 0.77960 0.42255 0.38900
C 	C 	0.24120 0.55660 0.47133 0.08100
H 	H 	0.23760 0.61840 0.48150 0.00400
C 	C 	0.28260 0.48640 0.49819 -0.13600
H 	H 	0.30730 0.50100 0.52580 0.09500
C 	C 	0.28700 0.39380 0.48363 0.05900
H 	H 	0.31310 0.34510 0.50150 0.03200
C 	C 	0.25150 0.37490 0.44160 -0.11800
H 	H 	0.25430 0.31360 0.43080 0.08800
C 	C 	0.21210 0.44960 0.41641 0.05800
C 	C 	0.17270 0.43870 0.37111 0.05500
C 	C 	0.17340 0.35390 0.34961 -0.12900
H 	H 	0.20020 0.29880 0.36300 0.08500
C 	C 	0.13340 0.35160 0.30761 0.03400
H 	H 	0.13350 0.29510 0.29240 0.03600
C 	C 	0.09290 0.43540 0.28854 -0.11600
H 	H 	0.06510 0.43570 0.26050 0.07500
C 	C 	0.09500 0.51770 0.31212 0.06700
H 	H 	0.06730 0.57340 0.29950 0.01600
Cu	Cu	0.92032 0.20937 0.39242 0.91400
Cu	Cu	0.13895 0.63366 0.38959 0.91000
N 	N 	0.12590 0.03002 0.49642 -0.18900
H 	H 	0.09490 0.97730 0.50510 0.11900
N 	N 	0.75010 0.76677 0.32141 -0.19700
H 	H 	0.68800 0.78350 0.33710 0.12400
N 	N 	0.85170 0.30332 0.35163 -0.22100
N 	N 	0.92730 0.32180 0.42979 -0.22000
N 	N 	0.20580 0.53955 0.43111 -0.22200
N 	N 	0.13530 0.52058 0.35250 -0.22300
O 	O 	0.17690 0.18077 0.51092 -0.21300
O 	O 	0.98760 0.12456 0.43541 -0.37100
O 	O 	0.15910 0.15454 0.39811 -0.30500
O 	O 	0.32650 0.74709 0.39745 -0.33600
O 	O 	0.14390 0.73714 0.42971 -0.39700
O 	O 	0.90340 0.67331 0.38099 -0.31000
O 	O 	0.07090 0.72312 0.34591 -0.36500
O 	O 	0.91520 0.10546 0.35061 -0.38500
O 	O 	0.74120 0.09366 0.38749 -0.32700
O 	O 	0.82140 0.68284 0.26592 -0.22500
C 	C 	0.07120 0.08590 0.56660 0.06000
C 	C 	0.05850 0.16430 0.59300 -0.32200
H 	H 	0.08240 0.22390 0.58340 0.23100
C 	C 	0.01010 0.15350 0.63380 -0.05200
H 	H 	0.00150 0.20600 0.65140 -0.00100
C 	C 	0.97430 0.06450 0.64812 -0.00900
H 	H 	0.94190 0.05730 0.67540 0.02900
C 	C 	0.98710 0.98610 0.62170 0.11600
H 	H 	0.96320 0.92650 0.63130 -0.02400
C 	C 	0.03550 0.99680 0.58090 0.06000
H 	H 	0.04400 0.94440 0.56330 0.05200
