data_crystal

_cell_length_a 21.82780
_cell_length_b 16.31500
_cell_length_c 11.76500
_cell_angle_alpha 90.00000
_cell_angle_beta  92.96700
_cell_angle_gamma 90.00000

_symmetry_space_group_name_	'P 1'
_symmetry_space_group_name_H-M	'P 1'

loop_
_symmetry_equiv_pos_as_xyz
  x,y,z

loop_
_atom_site_label
_atom_site_type_symbol
_atom_site_fract_x
_atom_site_fract_y
_atom_site_fract_z
_atom_site_charge
Zn	Zn	0.74298 0.17333 0.13891 1.17100
N 	N 	0.75513 0.29216 0.09670 -0.27600
N 	N 	0.80104 0.40775 0.06030 -0.10800
N 	N 	0.75698 0.71300 0.44400 -0.10800
N 	N 	0.66148 0.72750 0.49510 -0.12300
N 	N 	0.72478 0.11012 0.99700 -0.29000
N 	N 	0.67609 0.02585 0.87850 -0.10600
N 	N 	0.59093 0.13650 0.32750 -0.10900
N 	N 	0.67083 0.17479 0.23450 -0.28500
N 	N 	0.82063 0.15239 0.22780 -0.29100
N 	N 	0.91422 0.11760 0.28120 -0.11200
C 	C 	0.80776 0.33310 0.10590 0.07700
H 	H 	0.84490 0.31220 0.14010 -0.01600
C 	C 	0.71379 0.34430 0.04300 0.00400
H 	H 	0.67190 0.33190 0.02510 0.01400
C 	C 	0.74136 0.41580 0.01950 -0.01200
H 	H 	0.72320 0.46220 0.98240 0.03300
C 	C 	0.84969 0.46980 0.05370 -0.11200
H 	H 	0.84860 0.49330 0.97600 0.06500
H 	H 	0.89020 0.44330 0.06830 0.06700
C 	C 	0.84217 0.53800 0.13940 0.05400
C 	C 	0.80380 0.60400 0.11330 -0.06700
H 	H 	0.78330 0.60750 0.04030 0.05100
C 	C 	0.79520 0.66500 0.19370 -0.06800
H 	H 	0.76830 0.70940 0.17560 0.05700
C 	C 	0.82560 0.66150 0.29980 0.05100
C 	C 	0.86471 0.59630 0.32470 -0.06900
H 	H 	0.88640 0.59370 0.39670 0.04500
C 	C 	0.87260 0.53440 0.24510 -0.07100
H 	H 	0.89900 0.48950 0.26360 0.04800
C 	C 	0.81500 0.72700 0.38790 -0.10600
H 	H 	0.84950 0.72680 0.44590 0.05800
H 	H 	0.81380 0.78140 0.35080 0.05600
C 	C 	0.70510 0.75860 0.43490 0.07600
H 	H 	0.70070 0.80710 0.39050 0.00500
C 	C 	0.68660 0.65850 0.54450 0.00300
H 	H 	0.66580 0.62260 0.59310 0.02500
C 	C 	0.74520 0.64860 0.51460 -0.00600
H 	H 	0.77260 0.60580 0.53780 0.02600
C 	C 	0.67247 0.07190 0.97210 0.07800
H 	H 	0.63690 0.07650 0.01500 -0.02400
C 	C 	0.76365 0.08650 0.91440 0.00500
H 	H 	0.80500 0.10390 0.91000 0.00100
C 	C 	0.73396 0.03490 0.84100 -0.01300
H 	H 	0.75010 0.00990 0.77610 0.04800
C 	C 	0.62815 0.97100 0.82870 -0.11400
H 	H 	0.59320 0.96940 0.87900 0.06200
H 	H 	0.64480 0.91480 0.82330 0.07100
C 	C 	0.60600 0.99990 0.71200 0.05400
C 	C 	0.62004 0.95520 0.61510 -0.07200
H 	H 	0.64360 0.90640 0.62280 0.05600
C 	C 	0.59962 0.98210 0.50740 -0.06700
H 	H 	0.60900 0.95100 0.44220 0.04900
C 	C 	0.56566 0.05390 0.49440 0.05400
C 	C 	0.55118 0.09760 0.59110 -0.07000
H 	H 	0.52760 0.14640 0.58340 0.05100
C 	C 	0.57079 0.07050 0.69810 -0.06800
H 	H 	0.56000 0.10070 0.76320 0.05000
C 	C 	0.54499 0.08340 0.37720 -0.11100
H 	H 	0.53710 0.03540 0.32690 0.06400
H 	H 	0.50600 0.11400 0.38170 0.06700
C 	C 	0.63706 0.11180 0.26460 0.08200
H 	H 	0.64450 0.05640 0.24440 -0.02600
C 	C 	0.64508 0.24340 0.28140 -0.00700
H 	H 	0.65980 0.29790 0.27470 0.01500
C 	C 	0.59537 0.22050 0.33870 -0.01100
H 	H 	0.56900 0.25540 0.37850 0.02900
C 	C 	0.86791 0.10620 0.20520 0.08700
H 	H 	0.86880 0.06960 0.14260 -0.02800
C 	C 	0.83865 0.19530 0.32510 0.00500
H 	H 	0.81420 0.23410 0.36240 -0.00600
C 	C 	0.89566 0.17380 0.35850 -0.01100
H 	H 	0.91890 0.19370 0.42320 0.03000
C 	C 	0.97508 0.07860 0.28180 -0.10900
H 	H 	0.00670 0.12060 0.26850 0.06200
H 	H 	0.97580 0.03770 0.21980 0.05600
C 	C 	0.02202 0.07760 0.48050 -0.07100
H 	H 	0.03740 0.13110 0.46760 0.04900
C 	C 	0.98921 0.03720 0.39500 0.05100
C 	C 	0.96720 0.95950 0.41440 -0.07000
H 	H 	0.94450 0.93120 0.35540 0.04700
Zn	Zn	0.25702 0.82667 0.86109 1.17200
N 	N 	0.24487 0.70784 0.90330 -0.27500
N 	N 	0.19896 0.59225 0.93970 -0.10800
N 	N 	0.24302 0.28700 0.55600 -0.10800
N 	N 	0.33852 0.27250 0.50490 -0.12300
N 	N 	0.27522 0.88988 0.00300 -0.29000
N 	N 	0.32391 0.97415 0.12150 -0.10600
N 	N 	0.40907 0.86350 0.67250 -0.10900
N 	N 	0.32917 0.82521 0.76550 -0.28500
N 	N 	0.17937 0.84761 0.77220 -0.29100
N 	N 	0.08578 0.88240 0.71880 -0.11200
C 	C 	0.19224 0.66690 0.89410 0.07700
H 	H 	0.15510 0.68780 0.85990 -0.01600
C 	C 	0.28621 0.65570 0.95700 0.00400
H 	H 	0.32810 0.66810 0.97490 0.01400
C 	C 	0.25864 0.58420 0.98050 -0.01200
H 	H 	0.27680 0.53780 0.01760 0.03300
C 	C 	0.15031 0.53020 0.94630 -0.11200
H 	H 	0.15140 0.50670 0.02400 0.06500
H 	H 	0.10980 0.55670 0.93170 0.06700
C 	C 	0.15783 0.46200 0.86060 0.05400
C 	C 	0.19620 0.39600 0.88670 -0.06700
H 	H 	0.21670 0.39250 0.95970 0.05100
C 	C 	0.20480 0.33500 0.80630 -0.06800
H 	H 	0.23170 0.29060 0.82440 0.05700
C 	C 	0.17440 0.33850 0.70020 0.05100
C 	C 	0.13529 0.40370 0.67530 -0.06900
H 	H 	0.11360 0.40630 0.60330 0.04500
C 	C 	0.12740 0.46560 0.75490 -0.07100
H 	H 	0.10100 0.51050 0.73640 0.04800
C 	C 	0.18500 0.27300 0.61210 -0.10600
H 	H 	0.15050 0.27320 0.55410 0.05800
H 	H 	0.18620 0.21860 0.64920 0.05600
C 	C 	0.29490 0.24140 0.56510 0.07600
H 	H 	0.29930 0.19290 0.60950 0.00500
C 	C 	0.31340 0.34150 0.45550 0.00300
H 	H 	0.33420 0.37740 0.40690 0.02500
C 	C 	0.25480 0.35140 0.48540 -0.00600
H 	H 	0.22740 0.39420 0.46220 0.02600
C 	C 	0.32753 0.92810 0.02790 0.07800
H 	H 	0.36310 0.92350 0.98500 -0.02400
C 	C 	0.23635 0.91350 0.08560 0.00500
H 	H 	0.19500 0.89610 0.09000 0.00100
C 	C 	0.26604 0.96510 0.15900 -0.01300
H 	H 	0.24990 0.99010 0.22390 0.04800
C 	C 	0.37185 0.02900 0.17130 -0.11400
H 	H 	0.40680 0.03060 0.12100 0.06200
H 	H 	0.35520 0.08520 0.17670 0.07100
C 	C 	0.39400 0.00010 0.28800 0.05400
C 	C 	0.37996 0.04480 0.38490 -0.07200
H 	H 	0.35640 0.09360 0.37720 0.05600
C 	C 	0.40038 0.01790 0.49260 -0.06700
H 	H 	0.39100 0.04900 0.55780 0.04900
C 	C 	0.43434 0.94610 0.50560 0.05400
C 	C 	0.44882 0.90240 0.40890 -0.07000
H 	H 	0.47240 0.85360 0.41660 0.05100
C 	C 	0.42921 0.92950 0.30190 -0.06800
H 	H 	0.44000 0.89930 0.23680 0.05000
C 	C 	0.45501 0.91660 0.62280 -0.11100
H 	H 	0.46290 0.96460 0.67310 0.06400
H 	H 	0.49400 0.88600 0.61830 0.06700
C 	C 	0.36294 0.88820 0.73540 0.08200
H 	H 	0.35550 0.94360 0.75560 -0.02600
C 	C 	0.35492 0.75660 0.71860 -0.00700
H 	H 	0.34020 0.70210 0.72530 0.01500
C 	C 	0.40463 0.77950 0.66130 -0.01100
H 	H 	0.43100 0.74460 0.62150 0.02900
C 	C 	0.13209 0.89380 0.79480 0.08700
H 	H 	0.13120 0.93040 0.85740 -0.02800
C 	C 	0.16135 0.80470 0.67490 0.00500
H 	H 	0.18580 0.76590 0.63760 -0.00600
C 	C 	0.10434 0.82620 0.64150 -0.01100
H 	H 	0.08110 0.80630 0.57680 0.03000
C 	C 	0.02492 0.92140 0.71820 -0.10900
H 	H 	0.99330 0.87940 0.73150 0.06200
H 	H 	0.02420 0.96230 0.78020 0.05600
C 	C 	0.97798 0.92240 0.51950 -0.07100
H 	H 	0.96260 0.86890 0.53240 0.04900
C 	C 	0.01079 0.96280 0.60500 0.05100
C 	C 	0.03280 0.04050 0.58560 -0.07000
H 	H 	0.05550 0.06880 0.64460 0.04700
Zn	Zn	0.25702 0.67333 0.36109 1.17200
N 	N 	0.24487 0.79216 0.40330 -0.27500
N 	N 	0.19896 0.90775 0.43970 -0.10800
N 	N 	0.24302 0.21300 0.05600 -0.10900
N 	N 	0.33852 0.22750 0.00490 -0.12400
N 	N 	0.27522 0.61012 0.50300 -0.29000
N 	N 	0.32391 0.52585 0.62150 -0.10600
N 	N 	0.40907 0.63650 0.17250 -0.10900
N 	N 	0.32917 0.67479 0.26550 -0.28500
N 	N 	0.17937 0.65239 0.27220 -0.29100
N 	N 	0.08578 0.61760 0.21880 -0.11200
C 	C 	0.19224 0.83310 0.39410 0.07700
H 	H 	0.15510 0.81220 0.35990 -0.01600
C 	C 	0.28621 0.84430 0.45700 0.00400
H 	H 	0.32810 0.83190 0.47490 0.01500
C 	C 	0.25864 0.91580 0.48050 -0.01100
H 	H 	0.27680 0.96220 0.51760 0.03200
C 	C 	0.15031 0.96980 0.44630 -0.11200
H 	H 	0.15140 0.99330 0.52400 0.06500
H 	H 	0.10980 0.94330 0.43170 0.06700
C 	C 	0.15783 0.03800 0.36060 0.05400
C 	C 	0.19620 0.10400 0.38670 -0.06700
H 	H 	0.21670 0.10750 0.45970 0.05100
C 	C 	0.20480 0.16500 0.30630 -0.06800
H 	H 	0.23170 0.20940 0.32440 0.05700
C 	C 	0.17440 0.16150 0.20020 0.05100
C 	C 	0.13529 0.09630 0.17530 -0.06800
H 	H 	0.11360 0.09370 0.10330 0.04500
C 	C 	0.12740 0.03440 0.25490 -0.07200
H 	H 	0.10100 0.98950 0.23640 0.04800
C 	C 	0.18500 0.22700 0.11210 -0.10600
H 	H 	0.15050 0.22680 0.05410 0.05800
H 	H 	0.18620 0.28140 0.14920 0.05600
C 	C 	0.29490 0.25860 0.06510 0.07600
H 	H 	0.29930 0.30710 0.10950 0.00500
C 	C 	0.31340 0.15850 0.95550 0.00300
H 	H 	0.33420 0.12260 0.90690 0.02500
C 	C 	0.25480 0.14860 0.98540 -0.00600
H 	H 	0.22740 0.10580 0.96220 0.02700
C 	C 	0.32753 0.57190 0.52790 0.07500
H 	H 	0.36310 0.57650 0.48500 -0.02200
C 	C 	0.23635 0.58650 0.58560 0.00400
H 	H 	0.19500 0.60390 0.59000 0.00100
C 	C 	0.26604 0.53490 0.65900 -0.01300
H 	H 	0.24990 0.50990 0.72390 0.04800
C 	C 	0.37185 0.47100 0.67130 -0.11300
H 	H 	0.40680 0.46940 0.62100 0.06200
H 	H 	0.35520 0.41480 0.67670 0.07100
C 	C 	0.39400 0.49990 0.78800 0.05400
C 	C 	0.37996 0.45520 0.88490 -0.07100
H 	H 	0.35640 0.40640 0.87720 0.05600
C 	C 	0.40038 0.48210 0.99260 -0.06700
H 	H 	0.39100 0.45100 0.05780 0.05000
C 	C 	0.43434 0.55390 0.00560 0.05400
C 	C 	0.44882 0.59760 0.90890 -0.07000
H 	H 	0.47240 0.64640 0.91660 0.05100
C 	C 	0.42921 0.57050 0.80190 -0.06800
H 	H 	0.44000 0.60070 0.73680 0.05000
C 	C 	0.45501 0.58340 0.12280 -0.11200
H 	H 	0.46290 0.53540 0.17310 0.06400
H 	H 	0.49400 0.61400 0.11830 0.06700
C 	C 	0.36294 0.61180 0.23540 0.08200
H 	H 	0.35550 0.55640 0.25560 -0.02500
C 	C 	0.35492 0.74340 0.21860 -0.00700
H 	H 	0.34020 0.79790 0.22530 0.01500
C 	C 	0.40463 0.72050 0.16130 -0.01100
H 	H 	0.43100 0.75540 0.12150 0.02900
C 	C 	0.13209 0.60620 0.29480 0.08700
H 	H 	0.13120 0.56960 0.35740 -0.02700
C 	C 	0.16135 0.69530 0.17490 0.00500
H 	H 	0.18580 0.73410 0.13760 -0.00600
C 	C 	0.10434 0.67380 0.14150 -0.01100
H 	H 	0.08110 0.69370 0.07680 0.03100
C 	C 	0.02492 0.57860 0.21820 -0.10800
H 	H 	0.99330 0.62060 0.23150 0.06100
H 	H 	0.02420 0.53770 0.28020 0.05600
C 	C 	0.97798 0.57760 0.01950 -0.07200
H 	H 	0.96260 0.63110 0.03240 0.05000
C 	C 	0.01079 0.53720 0.10500 0.05300
C 	C 	0.03280 0.45950 0.08560 -0.07000
H 	H 	0.05550 0.43120 0.14460 0.04700
Zn	Zn	0.74298 0.32667 0.63891 1.17200
N 	N 	0.75513 0.20784 0.59670 -0.27500
N 	N 	0.80104 0.09225 0.56030 -0.10800
N 	N 	0.75698 0.78700 0.94400 -0.10900
N 	N 	0.66148 0.77250 0.99510 -0.12400
N 	N 	0.72478 0.38988 0.49700 -0.29000
N 	N 	0.67609 0.47415 0.37850 -0.10600
N 	N 	0.59093 0.36350 0.82750 -0.10900
N 	N 	0.67083 0.32521 0.73450 -0.28500
N 	N 	0.82063 0.34761 0.72780 -0.29100
N 	N 	0.91422 0.38240 0.78120 -0.11200
C 	C 	0.80776 0.16690 0.60590 0.07700
H 	H 	0.84490 0.18780 0.64010 -0.01600
C 	C 	0.71379 0.15570 0.54300 0.00400
H 	H 	0.67190 0.16810 0.52510 0.01500
C 	C 	0.74136 0.08420 0.51950 -0.01100
H 	H 	0.72320 0.03780 0.48240 0.03200
C 	C 	0.84969 0.03020 0.55370 -0.11200
H 	H 	0.84860 0.00670 0.47600 0.06500
H 	H 	0.89020 0.05670 0.56830 0.06700
C 	C 	0.84217 0.96200 0.63940 0.05400
C 	C 	0.80380 0.89600 0.61330 -0.06700
H 	H 	0.78330 0.89250 0.54030 0.05100
C 	C 	0.79520 0.83500 0.69370 -0.06800
H 	H 	0.76830 0.79060 0.67560 0.05700
C 	C 	0.82560 0.83850 0.79980 0.05100
C 	C 	0.86471 0.90370 0.82470 -0.06800
H 	H 	0.88640 0.90630 0.89670 0.04500
C 	C 	0.87260 0.96560 0.74510 -0.07200
H 	H 	0.89900 0.01050 0.76360 0.04800
C 	C 	0.81500 0.77300 0.88790 -0.10600
H 	H 	0.84950 0.77320 0.94590 0.05800
H 	H 	0.81380 0.71860 0.85080 0.05600
C 	C 	0.70510 0.74140 0.93490 0.07600
H 	H 	0.70070 0.69290 0.89050 0.00500
C 	C 	0.68660 0.84150 0.04450 0.00300
H 	H 	0.66580 0.87740 0.09310 0.02500
C 	C 	0.74520 0.85140 0.01460 -0.00600
H 	H 	0.77260 0.89420 0.03780 0.02700
C 	C 	0.67247 0.42810 0.47210 0.07500
H 	H 	0.63690 0.42350 0.51500 -0.02200
C 	C 	0.76365 0.41350 0.41440 0.00400
H 	H 	0.80500 0.39610 0.41000 0.00100
C 	C 	0.73396 0.46510 0.34100 -0.01300
H 	H 	0.75010 0.49010 0.27610 0.04800
C 	C 	0.62815 0.52900 0.32870 -0.11300
H 	H 	0.59320 0.53060 0.37900 0.06200
H 	H 	0.64480 0.58520 0.32330 0.07100
C 	C 	0.60600 0.50010 0.21200 0.05400
C 	C 	0.62004 0.54480 0.11510 -0.07100
H 	H 	0.64360 0.59360 0.12280 0.05600
C 	C 	0.59962 0.51790 0.00740 -0.06700
H 	H 	0.60900 0.54900 0.94220 0.05000
C 	C 	0.56566 0.44610 0.99440 0.05400
C 	C 	0.55118 0.40240 0.09110 -0.07000
H 	H 	0.52760 0.35360 0.08340 0.05100
C 	C 	0.57079 0.42950 0.19810 -0.06800
H 	H 	0.56000 0.39930 0.26320 0.05000
C 	C 	0.54499 0.41660 0.87720 -0.11200
H 	H 	0.53710 0.46460 0.82690 0.06400
H 	H 	0.50600 0.38600 0.88170 0.06700
C 	C 	0.63706 0.38820 0.76460 0.08200
H 	H 	0.64450 0.44360 0.74440 -0.02500
C 	C 	0.64508 0.25660 0.78140 -0.00700
H 	H 	0.65980 0.20210 0.77470 0.01500
C 	C 	0.59537 0.27950 0.83870 -0.01100
H 	H 	0.56900 0.24460 0.87850 0.02900
C 	C 	0.86791 0.39380 0.70520 0.08700
H 	H 	0.86880 0.43040 0.64260 -0.02700
C 	C 	0.83865 0.30470 0.82510 0.00500
H 	H 	0.81420 0.26590 0.86240 -0.00600
C 	C 	0.89566 0.32620 0.85850 -0.01100
H 	H 	0.91890 0.30630 0.92320 0.03100
C 	C 	0.97508 0.42140 0.78180 -0.10800
H 	H 	0.00670 0.37940 0.76850 0.06100
H 	H 	0.97580 0.46230 0.71980 0.05600
C 	C 	0.02202 0.42240 0.98050 -0.07200
H 	H 	0.03740 0.36890 0.96760 0.05000
C 	C 	0.98921 0.46280 0.89500 0.05300
C 	C 	0.96720 0.54050 0.91440 -0.07000
H 	H 	0.94450 0.56880 0.85540 0.04700
