data_crystal

_cell_length_a 13.01400
_cell_length_b 7.20800
_cell_length_c 18.10200
_cell_angle_alpha 90.00000
_cell_angle_beta  103.82200
_cell_angle_gamma 90.00000

_symmetry_space_group_name_	'P 1'
_symmetry_space_group_name_H-M	'P 1'

loop_
_symmetry_equiv_pos_as_xyz
  x,y,z

loop_
_atom_site_label
_atom_site_type_symbol
_atom_site_fract_x
_atom_site_fract_y
_atom_site_fract_z
_atom_site_charge
Zn	Zn	0.06102 0.48497 0.23063 1.21300
N 	N 	0.05820 0.62300 0.12320 -0.23600
N 	N 	0.21230 0.57400 0.24030 -0.23600
O 	O 	0.13420 0.43270 0.34675 -0.39600
O 	O 	0.28980 0.45130 0.43321 -0.24200
O 	O 	0.90810 0.46980 0.22237 -0.47700
O 	O 	0.93080 0.71380 0.30030 -0.48700
C 	C 	0.97280 0.66300 0.06810 0.08400
H 	H 	0.90680 0.63360 0.07630 0.01100
C 	C 	0.97630 0.74470 0.00030 -0.12600
H 	H 	0.91490 0.76630 0.96290 0.08500
C 	C 	0.07560 0.79430 0.98950 0.04500
H 	H 	0.08200 0.85040 0.94450 0.03900
C 	C 	0.16460 0.75760 0.04770 -0.11600
H 	H 	0.23160 0.79080 0.04260 0.08300
C 	C 	0.15260 0.67190 0.11300 0.06000
C 	C 	0.24380 0.63120 0.17830 0.05600
C 	C 	0.34930 0.64380 0.17890 -0.10600
H 	H 	0.37040 0.68370 0.13590 0.07000
C 	C 	0.42410 0.59580 0.24470 0.03500
C 	C 	0.38990 0.54180 0.30900 -0.07400
H 	H 	0.43860 0.51340 0.35430 0.06900
C 	C 	0.28290 0.53120 0.30420 0.00100
C 	C 	0.23250 0.46540 0.36770 0.28200
C 	C 	0.53950 0.59490 0.24760 0.05800
C 	C 	0.61230 0.65090 0.31360 -0.12300
H 	H 	0.58820 0.68770 0.35570 0.07900
C 	C 	0.71970 0.65230 0.31720 0.05900
H 	H 	0.76710 0.69440 0.36090 0.01400
C 	C 	0.75680 0.59030 0.25530 -0.14500
C 	C 	0.68550 0.53200 0.19050 0.06700
H 	H 	0.71010 0.48790 0.14960 0.02500
C 	C 	0.57700 0.53820 0.18530 -0.12300
H 	H 	0.52950 0.50450 0.14020 0.07700
C 	C 	0.87350 0.59250 0.25990 0.37300
Zn	Zn	0.93898 0.98497 0.26937 1.21200
N 	N 	0.94180 0.12300 0.37680 -0.23100
N 	N 	0.78770 0.07400 0.25970 -0.23400
O 	O 	0.86580 0.93270 0.15325 -0.39600
O 	O 	0.71020 0.95130 0.06679 -0.24300
O 	O 	0.09190 0.96980 0.27763 -0.47300
O 	O 	0.06920 0.21380 0.19970 -0.48500
C 	C 	0.02720 0.16300 0.43190 0.07900
H 	H 	0.09320 0.13360 0.42370 0.01100
C 	C 	0.02370 0.24470 0.49970 -0.12100
H 	H 	0.08510 0.26630 0.53710 0.08400
C 	C 	0.92440 0.29430 0.51050 0.04100
H 	H 	0.91800 0.35040 0.55550 0.03900
C 	C 	0.83540 0.25760 0.45230 -0.11300
H 	H 	0.76840 0.29080 0.45740 0.08200
C 	C 	0.84740 0.17190 0.38700 0.05900
C 	C 	0.75620 0.13120 0.32170 0.05700
C 	C 	0.65070 0.14380 0.32110 -0.10800
H 	H 	0.62960 0.18370 0.36410 0.07100
C 	C 	0.57590 0.09580 0.25530 0.03800
C 	C 	0.61010 0.04180 0.19100 -0.07700
H 	H 	0.56140 0.01340 0.14570 0.07000
C 	C 	0.71710 0.03120 0.19580 0.00600
C 	C 	0.76750 0.96540 0.13230 0.27800
C 	C 	0.46050 0.09490 0.25240 0.05500
C 	C 	0.38770 0.15090 0.18640 -0.12000
H 	H 	0.41180 0.18770 0.14430 0.07800
C 	C 	0.28030 0.15230 0.18280 0.05500
H 	H 	0.23290 0.19440 0.13910 0.01500
C 	C 	0.24320 0.09030 0.24470 -0.14100
C 	C 	0.31450 0.03200 0.30950 0.06000
H 	H 	0.28990 0.98790 0.35040 0.02800
C 	C 	0.42300 0.03820 0.31470 -0.11800
H 	H 	0.47050 0.00450 0.35980 0.07500
C 	C 	0.12650 0.09250 0.24010 0.36700
Zn	Zn	0.93898 0.51503 0.76937 1.21400
N 	N 	0.94180 0.37700 0.87680 -0.23500
N 	N 	0.78770 0.42600 0.75970 -0.23500
O 	O 	0.86580 0.56730 0.65325 -0.39500
O 	O 	0.71020 0.54870 0.56679 -0.24200
O 	O 	0.09190 0.53020 0.77763 -0.47700
O 	O 	0.06920 0.28620 0.69970 -0.48700
C 	C 	0.02720 0.33700 0.93190 0.08400
H 	H 	0.09320 0.36640 0.92370 0.01100
C 	C 	0.02370 0.25530 0.99970 -0.12600
H 	H 	0.08510 0.23370 0.03710 0.08500
C 	C 	0.92440 0.20570 0.01050 0.04500
H 	H 	0.91800 0.14960 0.05550 0.03900
C 	C 	0.83540 0.24240 0.95230 -0.11600
H 	H 	0.76840 0.20920 0.95740 0.08300
C 	C 	0.84740 0.32810 0.88700 0.06000
C 	C 	0.75620 0.36880 0.82170 0.05600
C 	C 	0.65070 0.35620 0.82110 -0.10600
H 	H 	0.62960 0.31630 0.86410 0.07000
C 	C 	0.57590 0.40420 0.75530 0.03500
C 	C 	0.61010 0.45820 0.69100 -0.07400
H 	H 	0.56140 0.48660 0.64570 0.06900
C 	C 	0.71710 0.46880 0.69580 0.00100
C 	C 	0.76750 0.53460 0.63230 0.28200
C 	C 	0.46050 0.40510 0.75240 0.05800
C 	C 	0.38770 0.34910 0.68640 -0.12300
H 	H 	0.41180 0.31230 0.64430 0.07900
C 	C 	0.28030 0.34770 0.68280 0.05900
H 	H 	0.23290 0.30560 0.63910 0.01400
C 	C 	0.24320 0.40970 0.74470 -0.14500
C 	C 	0.31450 0.46800 0.80950 0.06700
H 	H 	0.28990 0.51210 0.85040 0.02500
C 	C 	0.42300 0.46180 0.81470 -0.12300
H 	H 	0.47050 0.49550 0.85980 0.07700
C 	C 	0.12650 0.40750 0.74010 0.37300
Zn	Zn	0.06102 0.01503 0.73063 1.21200
N 	N 	0.05820 0.87700 0.62320 -0.23100
N 	N 	0.21230 0.92600 0.74030 -0.23400
O 	O 	0.13420 0.06730 0.84675 -0.39600
O 	O 	0.28980 0.04870 0.93321 -0.24300
O 	O 	0.90810 0.03020 0.72237 -0.47300
O 	O 	0.93080 0.78620 0.80030 -0.48500
C 	C 	0.97280 0.83700 0.56810 0.07900
H 	H 	0.90680 0.86640 0.57630 0.01100
C 	C 	0.97630 0.75530 0.50030 -0.12100
H 	H 	0.91490 0.73370 0.46290 0.08400
C 	C 	0.07560 0.70570 0.48950 0.04100
H 	H 	0.08200 0.64960 0.44450 0.03900
C 	C 	0.16460 0.74240 0.54770 -0.11300
H 	H 	0.23160 0.70920 0.54260 0.08200
C 	C 	0.15260 0.82810 0.61300 0.05900
C 	C 	0.24380 0.86880 0.67830 0.05700
C 	C 	0.34930 0.85620 0.67890 -0.10800
H 	H 	0.37040 0.81630 0.63590 0.07100
C 	C 	0.42410 0.90420 0.74470 0.03800
C 	C 	0.38990 0.95820 0.80900 -0.07700
H 	H 	0.43860 0.98660 0.85430 0.07000
C 	C 	0.28290 0.96880 0.80420 0.00600
C 	C 	0.23250 0.03460 0.86770 0.27800
C 	C 	0.53950 0.90510 0.74760 0.05500
C 	C 	0.61230 0.84910 0.81360 -0.12000
H 	H 	0.58820 0.81230 0.85570 0.07800
C 	C 	0.71970 0.84770 0.81720 0.05500
H 	H 	0.76710 0.80560 0.86090 0.01500
C 	C 	0.75680 0.90970 0.75530 -0.14100
C 	C 	0.68550 0.96800 0.69050 0.06000
H 	H 	0.71010 0.01210 0.64960 0.02800
C 	C 	0.57700 0.96180 0.68530 -0.11800
H 	H 	0.52950 0.99550 0.64020 0.07500
C 	C 	0.87350 0.90750 0.75990 0.36700
