data_crystal

_cell_length_a 10.16800
_cell_length_b 11.49400
_cell_length_c 16.19200
_cell_angle_alpha 77.67500
_cell_angle_beta  72.28000
_cell_angle_gamma 63.88000

_symmetry_space_group_name_	'P 1'
_symmetry_space_group_name_H-M	'P 1'

loop_
_symmetry_equiv_pos_as_xyz
  x,y,z

loop_
_atom_site_label
_atom_site_type_symbol
_atom_site_fract_x
_atom_site_fract_y
_atom_site_fract_z
_atom_site_charge
Cu	Cu	0.00330 0.73929 0.57828 0.92100
Cu	Cu	0.98788 0.73512 0.74386 0.91900
O 	O 	0.14780 0.81910 0.55600 -0.43900
O 	O 	0.12880 0.82250 0.69680 -0.43600
O 	O 	0.85640 0.65870 0.62500 -0.44300
O 	O 	0.84820 0.64900 0.76500 -0.45000
O 	O 	0.81170 0.90400 0.74020 -0.43900
O 	O 	0.83130 0.90870 0.59930 -0.45800
O 	O 	0.17310 0.56950 0.58630 -0.44400
O 	O 	0.16220 0.56540 0.72570 -0.45700
N 	N 	0.00470 0.75050 0.44320 -0.16900
N 	N 	0.98730 0.73840 0.87600 -0.28000
C 	C 	0.18570 0.84120 0.61670 0.49300
C 	C 	0.30520 0.89340 0.59030 -0.58000
H 	H 	0.27470 0.96990 0.54960 0.21300
H 	H 	0.39730 0.82870 0.55940 0.19900
C 	C 	0.34050 0.92950 0.66240 0.33200
H 	H 	0.36690 0.85430 0.70450 -0.06500
H 	H 	0.24990 0.99740 0.69160 -0.05700
C 	C 	0.46740 0.97660 0.63410 -0.50800
H 	H 	0.56130 0.90470 0.61270 0.18500
H 	H 	0.44830 0.04390 0.58610 0.16800
C 	C 	0.80440 0.63510 0.70470 0.49300
C 	C 	0.67950 0.58830 0.73000 -0.56000
H 	H 	0.70320 0.51480 0.77370 0.19700
H 	H 	0.58740 0.65710 0.75710 0.20000
C 	C 	0.64880 0.54770 0.65760 0.31100
H 	H 	0.74080 0.48020 0.62910 -0.04700
H 	H 	0.62040 0.62160 0.61470 -0.05900
C 	C 	0.52460 0.49720 0.68870 -0.48600
H 	H 	0.43040 0.56690 0.71280 0.18300
H 	H 	0.54880 0.42780 0.73490 0.16700
C 	C 	0.50380 0.44710 0.61750 0.30800
H 	H 	0.59620 0.37340 0.59690 -0.06300
H 	H 	0.48910 0.51450 0.56940 -0.05400
C 	C 	0.76650 0.95190 0.67140 0.49900
C 	C 	0.61890 0.07110 0.68030 -0.56800
H 	H 	0.61780 0.12600 0.62570 0.20200
H 	H 	0.60880 0.12080 0.72500 0.20000
C 	C 	0.48560 0.02940 0.70470 0.32800
H 	H 	0.49800 0.96370 0.75390 -0.06500
H 	H 	0.39310 0.10400 0.72360 -0.08500
C 	C 	0.22420 0.52230 0.65280 0.49300
C 	C 	0.37200 0.40480 0.64240 -0.55700
H 	H 	0.38150 0.35560 0.59760 0.19900
H 	H 	0.37480 0.34900 0.69660 0.19000
C 	C 	0.06460 0.82260 0.38400 0.02300
H 	H 	0.10290 0.87030 0.40210 0.03300
C 	C 	0.07320 0.83100 0.29850 -0.02700
H 	H 	0.12000 0.88090 0.25880 0.04300
C 	C 	0.01220 0.76510 0.27000 -0.11500
C 	C 	0.95260 0.68830 0.33200 -0.02000
H 	H 	0.91500 0.63870 0.31540 0.03100
C 	C 	0.94780 0.68360 0.41640 0.01600
H 	H 	0.90380 0.63280 0.45730 0.03900
C 	C 	0.01860 0.77350 0.17450 0.40000
H 	H 	0.97360 0.86540 0.15550 -0.08000
H 	H 	0.12450 0.74260 0.14450 -0.09600
C 	C 	0.96200 0.71850 0.14420 -0.74600
H 	H 	0.85590 0.74710 0.17390 0.24200
H 	H 	0.00920 0.62560 0.15970 0.25000
C 	C 	0.97300 0.73900 0.04710 0.52000
C 	C 	0.90600 0.68980 0.94330 0.25900
H 	H 	0.85920 0.64500 0.93000 -0.05400
C 	C 	0.06000 0.78480 0.89930 0.30100
H 	H 	0.10480 0.83440 0.85770 -0.06300
C 	C 	0.07700 0.76700 0.98200 -0.49700
H 	H 	0.15800 0.77390 0.99300 0.20600
C 	C 	0.88400 0.69900 0.02960 -0.48800
H 	H 	0.81110 0.67780 0.07260 0.19600
Cu	Cu	0.99670 0.26071 0.42172 0.92000
Cu	Cu	0.01212 0.26488 0.25614 0.91800
O 	O 	0.85220 0.18090 0.44400 -0.44000
O 	O 	0.87120 0.17750 0.30320 -0.43700
O 	O 	0.14360 0.34130 0.37500 -0.44400
O 	O 	0.15180 0.35100 0.23500 -0.45100
O 	O 	0.18830 0.09600 0.25980 -0.44000
O 	O 	0.16870 0.09130 0.40070 -0.45900
O 	O 	0.82690 0.43050 0.41370 -0.44400
O 	O 	0.83780 0.43460 0.27430 -0.45700
N 	N 	0.99530 0.24950 0.55680 -0.16900
N 	N 	0.01270 0.26160 0.12400 -0.28000
C 	C 	0.81430 0.15880 0.38330 0.49300
C 	C 	0.69480 0.10660 0.40970 -0.58000
H 	H 	0.72530 0.03010 0.45040 0.21300
H 	H 	0.60270 0.17130 0.44060 0.19900
C 	C 	0.65950 0.07050 0.33760 0.33200
H 	H 	0.63310 0.14570 0.29550 -0.06500
H 	H 	0.75010 0.00260 0.30840 -0.05700
C 	C 	0.53260 0.02340 0.36590 -0.50800
H 	H 	0.43870 0.09530 0.38730 0.18500
H 	H 	0.55170 0.95610 0.41390 0.16800
C 	C 	0.19560 0.36490 0.29530 0.49300
C 	C 	0.32050 0.41170 0.27000 -0.56000
H 	H 	0.29680 0.48520 0.22630 0.19700
H 	H 	0.41260 0.34290 0.24290 0.20000
C 	C 	0.35120 0.45230 0.34240 0.31100
H 	H 	0.25920 0.51980 0.37090 -0.04700
H 	H 	0.37960 0.37840 0.38530 -0.05900
C 	C 	0.47540 0.50280 0.31130 -0.48600
H 	H 	0.56960 0.43310 0.28720 0.18300
H 	H 	0.45120 0.57220 0.26510 0.16700
C 	C 	0.49620 0.55290 0.38250 0.30800
H 	H 	0.40380 0.62660 0.40310 -0.06300
H 	H 	0.51090 0.48550 0.43060 -0.05400
C 	C 	0.23350 0.04810 0.32860 0.49900
C 	C 	0.38110 0.92890 0.31970 -0.56800
H 	H 	0.38220 0.87400 0.37430 0.20200
H 	H 	0.39120 0.87920 0.27500 0.20000
C 	C 	0.51440 0.97060 0.29530 0.32800
H 	H 	0.50200 0.03630 0.24610 -0.06500
H 	H 	0.60690 0.89600 0.27640 -0.08500
C 	C 	0.77580 0.47770 0.34720 0.49300
C 	C 	0.62800 0.59520 0.35760 -0.55700
H 	H 	0.61850 0.64440 0.40240 0.19900
H 	H 	0.62520 0.65100 0.30340 0.19000
C 	C 	0.93540 0.17740 0.61600 0.02300
H 	H 	0.89710 0.12970 0.59790 0.03300
C 	C 	0.92680 0.16900 0.70150 -0.02700
H 	H 	0.88000 0.11910 0.74120 0.04300
C 	C 	0.98780 0.23490 0.73000 -0.11500
C 	C 	0.04740 0.31170 0.66800 -0.02000
H 	H 	0.08500 0.36130 0.68460 0.03100
C 	C 	0.05220 0.31640 0.58360 0.01600
H 	H 	0.09620 0.36720 0.54270 0.03900
C 	C 	0.98140 0.22650 0.82550 0.40000
H 	H 	0.02640 0.13460 0.84450 -0.08000
H 	H 	0.87550 0.25740 0.85550 -0.09600
C 	C 	0.03800 0.28150 0.85580 -0.74600
H 	H 	0.14410 0.25290 0.82610 0.24200
H 	H 	0.99080 0.37440 0.84030 0.25000
C 	C 	0.02700 0.26100 0.95290 0.52000
C 	C 	0.09400 0.31020 0.05670 0.25900
H 	H 	0.14080 0.35500 0.07000 -0.05400
C 	C 	0.94000 0.21520 0.10070 0.30100
H 	H 	0.89520 0.16560 0.14230 -0.06300
C 	C 	0.92300 0.23300 0.01800 -0.49700
H 	H 	0.84200 0.22610 0.00700 0.20600
C 	C 	0.11600 0.30100 0.97040 -0.48800
H 	H 	0.18890 0.32220 0.92740 0.19600
