data_crystal

_cell_length_a 23.27600
_cell_length_b 20.66500
_cell_length_c 17.50200
_cell_angle_alpha 90.00000
_cell_angle_beta  126.26500
_cell_angle_gamma 90.00000

_symmetry_space_group_name_	'P 1'
_symmetry_space_group_name_H-M	'P 1'

loop_
_symmetry_equiv_pos_as_xyz
  x,y,z

loop_
_atom_site_label
_atom_site_type_symbol
_atom_site_fract_x
_atom_site_fract_y
_atom_site_fract_z
_atom_site_charge
Zn	Zn	0.14340 0.66458 0.66451 1.20300
O 	O 	0.47480 0.88810 0.81950 -0.45200
O 	O 	0.58900 0.90850 0.92090 -0.33300
O 	O 	0.27720 0.67880 0.80280 -0.35300
C 	C 	0.40570 0.89050 0.91300 0.17300
O 	O 	0.19030 0.74750 0.71380 -0.47900
C 	C 	0.42700 0.82580 0.94110 -0.29100
C 	C 	0.51170 0.95630 0.94980 -0.06500
C 	C 	0.55430 0.00980 0.99410 -0.05000
H 	H 	0.59190 0.01610 0.99000 0.05000
C 	C 	0.45520 0.94560 0.95620 -0.02400
C 	C 	0.25450 0.73670 0.77930 0.35500
C 	C 	0.37590 0.77700 0.89800 0.16300
H 	H 	0.39000 0.73440 0.91710 -0.00800
N 	N 	0.14260 0.60110 0.75000 -0.27300
C 	C 	0.52650 0.91450 0.89440 0.32900
C 	C 	0.30530 0.79000 0.82780 -0.19500
C 	C 	0.33500 0.90210 0.84580 -0.20900
H 	H 	0.31980 0.94470 0.82960 0.09600
C 	C 	0.50090 0.80780 0.01410 0.63800
C 	C 	0.28480 0.85320 0.80050 0.12300
H 	H 	0.23760 0.86310 0.75210 -0.00500
N 	N 	0.17900 0.53020 0.85950 -0.12500
C 	C 	0.10740 0.52870 0.80300 -0.01100
H 	H 	0.07850 0.50110 0.80840 0.03600
C 	C 	0.08570 0.57450 0.73730 0.02000
H 	H 	0.03860 0.58590 0.69050 0.00300
C 	C 	0.23890 0.42940 0.91750 -0.19600
H 	H 	0.25860 0.43380 0.88210 0.09000
H 	H 	0.19300 0.40810 0.87710 0.09800
C 	C 	0.19860 0.57410 0.82290 0.08800
H 	H 	0.24540 0.58370 0.84640 -0.00500
O 	O 	0.52130 0.75920 0.98430 -0.33300
C 	C 	0.28730 0.38900 0.00300 -0.00200
H 	H 	0.33570 0.40490 0.03620 0.03800
H 	H 	0.27350 0.39220 0.04540 0.03100
C 	C 	0.22930 0.49160 0.94240 0.02000
H 	H 	0.27490 0.51380 0.97980 0.02500
H 	H 	0.21240 0.48710 0.98110 0.03100
C 	C 	0.28430 0.32330 0.97700 -0.11800
H 	H 	0.29720 0.31870 0.93380 0.07100
H 	H 	0.23730 0.30510 0.94820 0.07200
C 	C 	0.38900 0.25200 0.09350 0.10200
H 	H 	0.40310 0.24370 0.05460 0.00100
N 	N 	0.33870 0.29240 0.07130 -0.11200
C 	C 	0.33890 0.29360 0.15440 -0.01500
H 	H 	0.31060 0.31930 0.16340 0.03100
N 	N 	0.41820 0.22410 0.17590 -0.26100
C 	C 	0.38760 0.25070 0.21510 0.00500
H 	H 	0.39890 0.24060 0.27430 0.02800
O 	O 	0.54450 0.83570 0.06190 -0.66400
Zn	Zn	0.64340 0.16458 0.66451 1.20400
O 	O 	0.97480 0.38810 0.81950 -0.41700
O 	O 	0.08900 0.40850 0.92090 -0.33100
O 	O 	0.77720 0.17880 0.80280 -0.34700
C 	C 	0.90570 0.39050 0.91300 0.11500
O 	O 	0.69030 0.24750 0.71380 -0.47200
C 	C 	0.92700 0.32580 0.94110 -0.21000
C 	C 	0.01170 0.45630 0.94980 -0.14300
C 	C 	0.05430 0.50980 0.99410 0.01700
H 	H 	0.09190 0.51610 0.99000 0.02500
C 	C 	0.95520 0.44560 0.95620 0.06500
C 	C 	0.75450 0.23670 0.77930 0.34100
C 	C 	0.87590 0.27700 0.89800 0.11300
H 	H 	0.89000 0.23440 0.91710 0.01700
N 	N 	0.64260 0.10110 0.75000 -0.27100
C 	C 	0.02650 0.41450 0.89440 0.30800
C 	C 	0.80530 0.29000 0.82780 -0.15900
C 	C 	0.83500 0.40210 0.84580 -0.16000
H 	H 	0.81980 0.44470 0.82960 0.07900
C 	C 	0.00090 0.30780 0.01410 0.56500
C 	C 	0.78480 0.35320 0.80050 0.08300
H 	H 	0.73760 0.36310 0.75210 0.01100
N 	N 	0.67900 0.03020 0.85950 -0.12500
C 	C 	0.60740 0.02870 0.80300 -0.00700
H 	H 	0.57850 0.00110 0.80840 0.04200
C 	C 	0.58570 0.07450 0.73730 0.02200
H 	H 	0.53860 0.08590 0.69050 0.01600
C 	C 	0.73890 0.92940 0.91750 -0.19600
H 	H 	0.75860 0.93380 0.88210 0.09100
H 	H 	0.69300 0.90810 0.87710 0.09800
C 	C 	0.69860 0.07410 0.82290 0.09000
H 	H 	0.74540 0.08370 0.84640 -0.00300
O 	O 	0.02130 0.25920 0.98430 -0.33300
C 	C 	0.78730 0.88900 0.00300 -0.00200
H 	H 	0.83570 0.90490 0.03620 0.04300
H 	H 	0.77350 0.89220 0.04540 0.03200
C 	C 	0.72930 0.99160 0.94240 0.01800
H 	H 	0.77490 0.01380 0.97980 0.02900
H 	H 	0.71240 0.98710 0.98110 0.03200
C 	C 	0.78430 0.82330 0.97700 -0.11900
H 	H 	0.79720 0.81870 0.93380 0.07200
H 	H 	0.73730 0.80510 0.94820 0.07200
C 	C 	0.88900 0.75200 0.09350 0.10600
H 	H 	0.90310 0.74370 0.05460 0.00600
N 	N 	0.83870 0.79240 0.07130 -0.11100
C 	C 	0.83890 0.79360 0.15440 -0.01300
H 	H 	0.81060 0.81930 0.16340 0.03200
N 	N 	0.91820 0.72410 0.17590 -0.25300
C 	C 	0.88760 0.75070 0.21510 0.00800
H 	H 	0.89890 0.74060 0.27430 0.03400
O 	O 	0.04450 0.33570 0.06190 -0.64400
Zn	Zn	0.85660 0.66458 0.83549 1.20500
O 	O 	0.52520 0.88810 0.68050 -0.45400
O 	O 	0.41100 0.90850 0.57910 -0.33400
O 	O 	0.72280 0.67880 0.69720 -0.35200
C 	C 	0.59430 0.89050 0.58700 0.16400
O 	O 	0.80970 0.74750 0.78620 -0.47300
C 	C 	0.57300 0.82580 0.55890 -0.28000
C 	C 	0.48830 0.95630 0.55020 -0.07500
C 	C 	0.44570 0.00980 0.50590 -0.03300
H 	H 	0.40810 0.01610 0.51000 0.04500
C 	C 	0.54480 0.94560 0.54380 -0.01100
C 	C 	0.74550 0.73670 0.72070 0.35200
C 	C 	0.62410 0.77700 0.60200 0.15500
H 	H 	0.61000 0.73440 0.58290 -0.00500
N 	N 	0.85740 0.60110 0.75000 -0.26900
C 	C 	0.47350 0.91450 0.60560 0.33300
C 	C 	0.69470 0.79000 0.67220 -0.18700
C 	C 	0.66500 0.90210 0.65420 -0.20000
H 	H 	0.68020 0.94470 0.67040 0.09400
C 	C 	0.49910 0.80780 0.48590 0.62600
C 	C 	0.71520 0.85320 0.69950 0.11600
H 	H 	0.76240 0.86310 0.74790 0.00200
N 	N 	0.82100 0.53020 0.64050 -0.12300
C 	C 	0.89260 0.52870 0.69700 -0.00400
H 	H 	0.92150 0.50110 0.69160 0.04800
C 	C 	0.91430 0.57450 0.76270 0.02500
H 	H 	0.96140 0.58590 0.80950 0.02800
C 	C 	0.76110 0.42940 0.58250 -0.16400
H 	H 	0.74140 0.43380 0.61790 0.08100
H 	H 	0.80700 0.40810 0.62290 0.09000
C 	C 	0.80140 0.57410 0.67710 0.09000
H 	H 	0.75460 0.58370 0.65360 -0.00400
O 	O 	0.47870 0.75920 0.51570 -0.32800
C 	C 	0.71270 0.38900 0.49700 -0.04100
H 	H 	0.66430 0.40490 0.46380 0.04800
H 	H 	0.72650 0.39220 0.45460 0.04100
C 	C 	0.77070 0.49160 0.55760 0.00100
H 	H 	0.72510 0.51380 0.52020 0.03200
H 	H 	0.78760 0.48710 0.51890 0.03700
C 	C 	0.71570 0.32330 0.52300 -0.08900
H 	H 	0.70280 0.31870 0.56620 0.06300
H 	H 	0.76270 0.30510 0.55180 0.06400
C 	C 	0.61100 0.25200 0.40650 0.10300
H 	H 	0.59690 0.24370 0.44540 0.00000
N 	N 	0.66130 0.29240 0.42870 -0.11700
C 	C 	0.66110 0.29360 0.34560 -0.01500
H 	H 	0.68940 0.31930 0.33660 0.03000
N 	N 	0.58180 0.22410 0.32410 -0.26200
C 	C 	0.61240 0.25070 0.28490 0.00400
H 	H 	0.60110 0.24060 0.22570 0.02800
O 	O 	0.45550 0.83570 0.43810 -0.66100
Zn	Zn	0.35660 0.16458 0.83549 1.20400
O 	O 	0.02520 0.38810 0.68050 -0.48600
O 	O 	0.91100 0.40850 0.57910 -0.33400
O 	O 	0.22280 0.17880 0.69720 -0.35900
C 	C 	0.09430 0.39050 0.58700 0.22900
O 	O 	0.30970 0.24750 0.78620 -0.48000
C 	C 	0.07300 0.32580 0.55890 -0.36700
C 	C 	0.98830 0.45630 0.55020 0.01000
C 	C 	0.94570 0.50980 0.50590 -0.10300
H 	H 	0.90810 0.51610 0.51000 0.07100
C 	C 	0.04480 0.44560 0.54380 -0.11100
C 	C 	0.24550 0.23670 0.72070 0.36700
C 	C 	0.12410 0.27700 0.60200 0.20900
H 	H 	0.11000 0.23440 0.58290 -0.03200
N 	N 	0.35740 0.10110 0.75000 -0.27100
C 	C 	0.97350 0.41450 0.60560 0.35300
C 	C 	0.19470 0.29000 0.67220 -0.22600
C 	C 	0.16500 0.40210 0.65420 -0.25400
H 	H 	0.18020 0.44470 0.67040 0.11200
C 	C 	0.99910 0.30780 0.48590 0.70200
C 	C 	0.21520 0.35320 0.69950 0.15900
H 	H 	0.26240 0.36310 0.74790 -0.01500
N 	N 	0.32100 0.03020 0.64050 -0.12300
C 	C 	0.39260 0.02870 0.69700 -0.00800
H 	H 	0.42150 0.00110 0.69160 0.04200
C 	C 	0.41430 0.07450 0.76270 0.02200
H 	H 	0.46140 0.08590 0.80950 0.01500
C 	C 	0.26110 0.92940 0.58250 -0.17100
H 	H 	0.24140 0.93380 0.61790 0.08100
H 	H 	0.30700 0.90810 0.62290 0.09100
C 	C 	0.30140 0.07410 0.67710 0.08900
H 	H 	0.25460 0.08370 0.65360 -0.00600
O 	O 	0.97870 0.25920 0.51570 -0.32600
C 	C 	0.21270 0.88900 0.49700 -0.03200
H 	H 	0.16430 0.90490 0.46380 0.04100
H 	H 	0.22650 0.89220 0.45460 0.03700
C 	C 	0.27070 0.99160 0.55760 0.00400
H 	H 	0.22510 0.01380 0.52020 0.02900
H 	H 	0.28760 0.98710 0.51890 0.03500
C 	C 	0.21570 0.82330 0.52300 -0.09500
H 	H 	0.20280 0.81870 0.56620 0.06300
H 	H 	0.26270 0.80510 0.55180 0.06600
C 	C 	0.11100 0.75200 0.40650 0.09900
H 	H 	0.09690 0.74370 0.44540 -0.00300
N 	N 	0.16130 0.79240 0.42870 -0.11700
C 	C 	0.16110 0.79360 0.34560 -0.01700
H 	H 	0.18940 0.81930 0.33660 0.02900
N 	N 	0.08180 0.72410 0.32410 -0.26600
C 	C 	0.11240 0.75070 0.28490 0.00200
H 	H 	0.10110 0.74060 0.22570 0.02400
O 	O 	0.95550 0.33570 0.43810 -0.68300
Zn	Zn	0.85660 0.33542 0.33549 1.20600
O 	O 	0.52520 0.11190 0.18050 -0.45400
O 	O 	0.41100 0.09150 0.07910 -0.33400
O 	O 	0.72280 0.32120 0.19720 -0.35000
C 	C 	0.59430 0.10950 0.08700 0.15700
O 	O 	0.80970 0.25250 0.28620 -0.47000
C 	C 	0.57300 0.17420 0.05890 -0.26800
C 	C 	0.48830 0.04370 0.05020 -0.07900
C 	C 	0.44570 0.99020 0.00590 -0.02500
H 	H 	0.40810 0.98390 0.01000 0.04300
C 	C 	0.54480 0.05440 0.04380 0.00100
C 	C 	0.74550 0.26330 0.22070 0.35000
C 	C 	0.62410 0.22300 0.10200 0.14800
H 	H 	0.61000 0.26560 0.08290 -0.00100
N 	N 	0.85740 0.39890 0.25000 -0.26800
C 	C 	0.47350 0.08550 0.10560 0.33500
C 	C 	0.69470 0.21000 0.17220 -0.18100
C 	C 	0.66500 0.09790 0.15420 -0.19300
H 	H 	0.68020 0.05530 0.17040 0.09300
C 	C 	0.49910 0.19220 0.98590 0.61200
C 	C 	0.71520 0.14680 0.19950 0.11100
H 	H 	0.76240 0.13690 0.24790 0.00500
N 	N 	0.82100 0.46980 0.14050 -0.11800
C 	C 	0.89260 0.47130 0.19700 -0.00600
H 	H 	0.92150 0.49890 0.19160 0.04900
C 	C 	0.91430 0.42550 0.26270 0.02600
H 	H 	0.96140 0.41410 0.30950 0.02900
C 	C 	0.76110 0.57060 0.08250 -0.11900
H 	H 	0.74140 0.56620 0.11790 0.06800
H 	H 	0.80700 0.59190 0.12290 0.07700
C 	C 	0.80140 0.42590 0.17710 0.08900
H 	H 	0.75460 0.41630 0.15360 -0.00300
O 	O 	0.47870 0.24080 0.01570 -0.32200
C 	C 	0.71270 0.61100 0.99700 -0.09300
H 	H 	0.66430 0.59510 0.96380 0.06200
H 	H 	0.72650 0.60780 0.95460 0.05400
C 	C 	0.77070 0.50840 0.05760 -0.02600
H 	H 	0.72510 0.48620 0.02020 0.04100
H 	H 	0.78760 0.51290 0.01890 0.04600
C 	C 	0.71570 0.67670 0.02300 -0.05100
H 	H 	0.70280 0.68130 0.06620 0.05200
H 	H 	0.76270 0.69490 0.05180 0.05400
C 	C 	0.61100 0.74800 0.90650 0.10400
H 	H 	0.59690 0.75630 0.94540 -0.00100
N 	N 	0.66130 0.70760 0.92870 -0.12400
C 	C 	0.66110 0.70640 0.84560 -0.01400
H 	H 	0.68940 0.68070 0.83660 0.02800
N 	N 	0.58180 0.77590 0.82410 -0.26200
C 	C 	0.61240 0.74930 0.78490 0.00300
H 	H 	0.60110 0.75940 0.72570 0.02900
O 	O 	0.45550 0.16430 0.93810 -0.65800
Zn	Zn	0.35660 0.83542 0.33549 1.20400
O 	O 	0.02520 0.61190 0.18050 -0.48800
O 	O 	0.91100 0.59150 0.07910 -0.33500
O 	O 	0.22280 0.82120 0.19720 -0.35800
C 	C 	0.09430 0.60950 0.08700 0.21900
O 	O 	0.30970 0.75250 0.28620 -0.47800
C 	C 	0.07300 0.67420 0.05890 -0.35300
C 	C 	0.98830 0.54370 0.05020 0.00000
C 	C 	0.94570 0.49020 0.00590 -0.08300
H 	H 	0.90810 0.48390 0.01000 0.06600
C 	C 	0.04480 0.55440 0.04380 -0.09800
C 	C 	0.24550 0.76330 0.22070 0.36400
C 	C 	0.12410 0.72300 0.10200 0.20000
H 	H 	0.11000 0.76560 0.08290 -0.02800
N 	N 	0.35740 0.89890 0.25000 -0.27100
C 	C 	0.97350 0.58550 0.10560 0.35900
C 	C 	0.19470 0.71000 0.17220 -0.21900
C 	C 	0.16500 0.59790 0.15420 -0.24500
H 	H 	0.18020 0.55530 0.17040 0.11000
C 	C 	0.99910 0.69220 0.98590 0.68400
C 	C 	0.21520 0.64680 0.19950 0.15200
H 	H 	0.26240 0.63690 0.24790 -0.01200
N 	N 	0.32100 0.96980 0.14050 -0.12200
C 	C 	0.39260 0.97130 0.19700 -0.00800
H 	H 	0.42150 0.99890 0.19160 0.04200
C 	C 	0.41430 0.92550 0.26270 0.02300
H 	H 	0.46140 0.91410 0.30950 0.01600
C 	C 	0.26110 0.07060 0.08250 -0.14500
H 	H 	0.24140 0.06620 0.11790 0.07500
H 	H 	0.30700 0.09190 0.12290 0.08400
C 	C 	0.30140 0.92590 0.17710 0.08800
H 	H 	0.25460 0.91630 0.15360 -0.00600
O 	O 	0.97870 0.74080 0.01570 -0.31900
C 	C 	0.21270 0.11100 0.99700 -0.06500
H 	H 	0.16430 0.09510 0.96380 0.05000
H 	H 	0.22650 0.10780 0.95460 0.04500
C 	C 	0.27070 0.00840 0.05760 -0.00600
H 	H 	0.22510 0.98620 0.02020 0.03100
H 	H 	0.28760 0.01290 0.01890 0.04000
C 	C 	0.21570 0.17670 0.02300 -0.07000
H 	H 	0.20280 0.18130 0.06620 0.05700
H 	H 	0.26270 0.19490 0.05180 0.06000
C 	C 	0.11100 0.24800 0.90650 0.10000
H 	H 	0.09690 0.25630 0.94540 -0.00400
N 	N 	0.16130 0.20760 0.92870 -0.12100
C 	C 	0.16110 0.20640 0.84560 -0.01700
H 	H 	0.18940 0.18070 0.83660 0.02800
N 	N 	0.08180 0.27590 0.82410 -0.26700
C 	C 	0.11240 0.24930 0.78490 0.00100
H 	H 	0.10110 0.25940 0.72570 0.02400
O 	O 	0.95550 0.66430 0.93810 -0.67900
Zn	Zn	0.14340 0.33542 0.16451 1.20300
O 	O 	0.47480 0.11190 0.31950 -0.45300
O 	O 	0.58900 0.09150 0.42090 -0.33300
O 	O 	0.27720 0.32120 0.30280 -0.35300
C 	C 	0.40570 0.10950 0.41300 0.16700
O 	O 	0.19030 0.25250 0.21380 -0.47700
C 	C 	0.42700 0.17420 0.44110 -0.28200
C 	C 	0.51170 0.04370 0.44980 -0.07100
C 	C 	0.55430 0.99020 0.49410 -0.03800
H 	H 	0.59190 0.98390 0.49000 0.04700
C 	C 	0.45520 0.05440 0.45620 -0.01500
C 	C 	0.25450 0.26330 0.27930 0.35300
C 	C 	0.37590 0.22300 0.39800 0.15700
H 	H 	0.39000 0.26560 0.41710 -0.00600
N 	N 	0.14260 0.39890 0.25000 -0.27300
C 	C 	0.52650 0.08550 0.39440 0.33200
C 	C 	0.30530 0.21000 0.32780 -0.19000
C 	C 	0.33500 0.09790 0.34580 -0.20300
H 	H 	0.31980 0.05530 0.32960 0.09500
C 	C 	0.50090 0.19220 0.51410 0.62600
C 	C 	0.28480 0.14680 0.30050 0.11900
H 	H 	0.23760 0.13690 0.25210 -0.00200
N 	N 	0.17900 0.46980 0.35950 -0.12200
C 	C 	0.10740 0.47130 0.30300 -0.01200
H 	H 	0.07850 0.49890 0.30840 0.03600
C 	C 	0.08570 0.42550 0.23730 0.02100
H 	H 	0.03860 0.41410 0.19050 0.00300
C 	C 	0.23890 0.57060 0.41750 -0.16300
H 	H 	0.25860 0.56620 0.38210 0.08100
H 	H 	0.19300 0.59190 0.37710 0.08800
C 	C 	0.19860 0.42590 0.32290 0.08800
H 	H 	0.24540 0.41630 0.34640 -0.00400
O 	O 	0.52130 0.24080 0.48430 -0.32800
C 	C 	0.28730 0.61100 0.50300 -0.04100
H 	H 	0.33570 0.59510 0.53620 0.04800
H 	H 	0.27350 0.60780 0.54540 0.04000
C 	C 	0.22930 0.50840 0.44240 -0.00100
H 	H 	0.27490 0.48620 0.47980 0.03200
H 	H 	0.21240 0.51290 0.48110 0.03800
C 	C 	0.28430 0.67670 0.47700 -0.08900
H 	H 	0.29720 0.68130 0.43380 0.06300
H 	H 	0.23730 0.69490 0.44820 0.06500
C 	C 	0.38900 0.74800 0.59350 0.10300
H 	H 	0.40310 0.75630 0.55460 0.00000
N 	N 	0.33870 0.70760 0.57130 -0.11700
C 	C 	0.33890 0.70640 0.65440 -0.01500
H 	H 	0.31060 0.68070 0.66340 0.02900
N 	N 	0.41820 0.77590 0.67590 -0.26200
C 	C 	0.38760 0.74930 0.71510 0.00400
H 	H 	0.39890 0.75940 0.77430 0.02800
O 	O 	0.54450 0.16430 0.56190 -0.66200
Zn	Zn	0.64340 0.83542 0.16451 1.20500
O 	O 	0.97480 0.61190 0.31950 -0.41500
O 	O 	0.08900 0.59150 0.42090 -0.33100
O 	O 	0.77720 0.82120 0.30280 -0.34600
C 	C 	0.90570 0.60950 0.41300 0.10300
O 	O 	0.69030 0.75250 0.21380 -0.47000
C 	C 	0.92700 0.67420 0.44110 -0.19500
C 	C 	0.01170 0.54370 0.44980 -0.15600
C 	C 	0.05430 0.49020 0.49410 0.03200
H 	H 	0.09190 0.48390 0.49000 0.02100
C 	C 	0.95520 0.55440 0.45620 0.08600
C 	C 	0.75450 0.76330 0.27930 0.33900
C 	C 	0.87590 0.72300 0.39800 0.10400
H 	H 	0.89000 0.76560 0.41710 0.02200
N 	N 	0.64260 0.89890 0.25000 -0.27000
C 	C 	0.02650 0.58550 0.39440 0.31000
C 	C 	0.80530 0.71000 0.32780 -0.15200
C 	C 	0.83500 0.59790 0.34580 -0.15000
H 	H 	0.81980 0.55530 0.32960 0.07700
C 	C 	0.00090 0.69220 0.51410 0.55000
C 	C 	0.78480 0.64680 0.30050 0.07600
H 	H 	0.73760 0.63690 0.25210 0.01500
N 	N 	0.67900 0.96980 0.35950 -0.12200
C 	C 	0.60740 0.97130 0.30300 -0.00800
H 	H 	0.57850 0.99890 0.30840 0.04200
C 	C 	0.58570 0.92550 0.23730 0.02300
H 	H 	0.53860 0.91410 0.19050 0.01600
C 	C 	0.73890 0.07060 0.41750 -0.15700
H 	H 	0.75860 0.06620 0.38210 0.08100
H 	H 	0.69300 0.09190 0.37710 0.08700
C 	C 	0.69860 0.92590 0.32290 0.08900
H 	H 	0.74540 0.91630 0.34640 -0.00200
O 	O 	0.02130 0.74080 0.48430 -0.32900
C 	C 	0.78730 0.11100 0.50300 -0.04900
H 	H 	0.83570 0.09510 0.53620 0.05500
H 	H 	0.77350 0.10780 0.54540 0.04400
C 	C 	0.72930 0.00840 0.44240 -0.00200
H 	H 	0.77490 0.98620 0.47980 0.03500
H 	H 	0.71240 0.01290 0.48110 0.03900
C 	C 	0.78430 0.17670 0.47700 -0.08300
H 	H 	0.79720 0.18130 0.43380 0.06300
H 	H 	0.73730 0.19490 0.44820 0.06300
C 	C 	0.88900 0.24800 0.59350 0.10700
H 	H 	0.90310 0.25630 0.55460 0.00400
N 	N 	0.83870 0.20760 0.57130 -0.11700
C 	C 	0.83890 0.20640 0.65440 -0.01200
H 	H 	0.81060 0.18070 0.66340 0.03000
N 	N 	0.91820 0.27590 0.67590 -0.25300
C 	C 	0.88760 0.24930 0.71510 0.00600
H 	H 	0.89890 0.25940 0.77430 0.03300
O 	O 	0.04450 0.66430 0.56190 -0.64000
Zn	Zn	0.50000 0.83744 0.75000 1.21500
Zn	Zn	0.00000 0.33744 0.75000 1.20300
Zn	Zn	0.50000 0.16256 0.25000 1.21500
Zn	Zn	0.00000 0.66256 0.25000 1.20300
