data_crystal

_cell_length_a 9.57840
_cell_length_b 12.52510
_cell_length_c 13.75610
_cell_angle_alpha 70.33200
_cell_angle_beta  84.86900
_cell_angle_gamma 73.23800

_symmetry_space_group_name_	'P 1'
_symmetry_space_group_name_H-M	'P 1'

loop_
_symmetry_equiv_pos_as_xyz
  x,y,z

loop_
_atom_site_label
_atom_site_type_symbol
_atom_site_fract_x
_atom_site_fract_y
_atom_site_fract_z
_atom_site_charge
Co	Co	0.49554 0.70937 0.76290 1.15400
O 	O 	0.38699 0.63435 0.70293 -0.42400
O 	O 	0.21372 0.74321 0.77294 -0.31300
O 	O 	0.66159 0.67674 0.57973 -0.30200
O 	O 	0.70891 0.65690 0.74146 -0.42000
O 	O 	0.88107 0.79871 0.78352 -0.24900
O 	O 	0.97480 0.60992 0.86978 -0.44300
H 	H 	0.00090 0.54810 0.85630 0.26200
N 	N 	0.45980 0.88397 0.68928 -0.24500
N 	N 	0.51940 0.04756 0.60449 -0.09600
N 	N 	0.57960 0.36487 0.92284 -0.10600
N 	N 	0.50530 0.33671 0.08273 -0.24500
C 	C 	0.38560 0.36930 0.01950 0.00400
H 	H 	0.28960 0.37760 0.04140 0.04900
C 	C 	0.43010 0.38700 0.92060 -0.00800
H 	H 	0.37160 0.40950 0.86280 0.04500
C 	C 	0.61900 0.33600 0.02080 0.08400
H 	H 	0.71460 0.31760 0.04280 0.01300
C 	C 	0.67830 0.37840 0.83350 -0.12300
H 	H 	0.77840 0.34980 0.85830 0.07600
H 	H 	0.66000 0.46150 0.79390 0.06300
C 	C 	0.65940 0.31250 0.76405 0.06300
C 	C 	0.55910 0.36710 0.68370 -0.06800
H 	H 	0.50380 0.44460 0.67250 0.07200
C 	C 	0.54060 0.30690 0.62000 -0.08400
H 	H 	0.47110 0.34360 0.56730 0.07800
C 	C 	0.62480 0.19260 0.63400 0.08400
C 	C 	0.72600 0.13890 0.71370 -0.08400
H 	H 	0.78320 0.06200 0.72380 0.07900
C 	C 	0.74330 0.19800 0.77850 -0.05900
H 	H 	0.81140 0.16070 0.83200 0.06100
C 	C 	0.61000 0.12950 0.56110 -0.13700
H 	H 	0.56660 0.18720 0.49670 0.08400
H 	H 	0.70610 0.08590 0.54610 0.07900
C 	C 	0.36970 0.07520 0.59990 -0.01000
H 	H 	0.30590 0.14840 0.56720 0.05300
C 	C 	0.33440 0.97390 0.65280 0.01300
H 	H 	0.24010 0.96610 0.66300 0.02900
C 	C 	0.56850 0.93320 0.65870 0.08200
H 	H 	0.66640 0.89320 0.67310 0.01300
C 	C 	0.25280 0.68090 0.71700 0.29500
C 	C 	0.14460 0.66140 0.65651 -0.05000
C 	C 	0.19330 0.63620 0.56630 -0.01800
H 	H 	0.29110 0.62680 0.54870 0.05100
C 	C 	0.09890 0.62490 0.50220 -0.05500
H 	H 	0.13220 0.60980 0.44130 0.05500
C 	C 	0.95450 0.63630 0.53010 -0.01800
H 	H 	0.89030 0.62950 0.48710 0.05000
C 	C 	0.90350 0.65780 0.62170 -0.05200
C 	C 	0.99820 0.67270 0.68523 -0.05100
C 	C 	0.94540 0.69870 0.78450 0.36500
C 	C 	0.74570 0.66380 0.64803 0.30600
Co	Co	0.50446 0.29063 0.23710 1.15300
O 	O 	0.61301 0.36565 0.29707 -0.42500
O 	O 	0.78628 0.25679 0.22706 -0.31400
O 	O 	0.33841 0.32326 0.42027 -0.30300
O 	O 	0.29109 0.34310 0.25854 -0.42000
O 	O 	0.11893 0.20129 0.21648 -0.24900
O 	O 	0.02520 0.39008 0.13022 -0.44300
H 	H 	0.99910 0.45190 0.14370 0.26200
N 	N 	0.54020 0.11603 0.31072 -0.24500
N 	N 	0.48060 0.95244 0.39551 -0.09600
N 	N 	0.42040 0.63513 0.07716 -0.10600
N 	N 	0.49470 0.66329 0.91727 -0.24500
C 	C 	0.61440 0.63070 0.98050 0.00400
H 	H 	0.71040 0.62240 0.95860 0.04900
C 	C 	0.56990 0.61300 0.07940 -0.00800
H 	H 	0.62840 0.59050 0.13720 0.04500
C 	C 	0.38100 0.66400 0.97920 0.08400
H 	H 	0.28540 0.68240 0.95720 0.01300
C 	C 	0.32170 0.62160 0.16650 -0.12300
H 	H 	0.22160 0.65020 0.14170 0.07600
H 	H 	0.34000 0.53850 0.20610 0.06300
C 	C 	0.34060 0.68750 0.23595 0.06300
C 	C 	0.44090 0.63290 0.31630 -0.06800
H 	H 	0.49620 0.55540 0.32750 0.07200
C 	C 	0.45940 0.69310 0.38000 -0.08400
H 	H 	0.52890 0.65640 0.43270 0.07800
C 	C 	0.37520 0.80740 0.36600 0.08400
C 	C 	0.27400 0.86110 0.28630 -0.08400
H 	H 	0.21680 0.93800 0.27620 0.07900
C 	C 	0.25670 0.80200 0.22150 -0.05900
H 	H 	0.18860 0.83930 0.16800 0.06100
C 	C 	0.39000 0.87050 0.43890 -0.13700
H 	H 	0.43340 0.81280 0.50330 0.08400
H 	H 	0.29390 0.91410 0.45390 0.07900
C 	C 	0.63030 0.92480 0.40010 -0.01000
H 	H 	0.69410 0.85160 0.43280 0.05300
C 	C 	0.66560 0.02610 0.34720 0.01300
H 	H 	0.75990 0.03390 0.33700 0.02900
C 	C 	0.43150 0.06680 0.34130 0.08200
H 	H 	0.33360 0.10680 0.32690 0.01300
C 	C 	0.74720 0.31910 0.28300 0.29500
C 	C 	0.85540 0.33860 0.34349 -0.05000
C 	C 	0.80670 0.36380 0.43370 -0.01800
H 	H 	0.70890 0.37320 0.45130 0.05100
C 	C 	0.90110 0.37510 0.49780 -0.05500
H 	H 	0.86780 0.39020 0.55870 0.05500
C 	C 	0.04550 0.36370 0.46990 -0.01800
H 	H 	0.10970 0.37050 0.51290 0.05000
C 	C 	0.09650 0.34220 0.37830 -0.05200
C 	C 	0.00180 0.32730 0.31477 -0.05100
C 	C 	0.05460 0.30130 0.21550 0.36500
C 	C 	0.25430 0.33620 0.35197 0.30600
