data_crystal

_cell_length_a 11.92700
_cell_length_b 14.19060
_cell_length_c 24.61000
_cell_angle_alpha 90.00000
_cell_angle_beta  93.05900
_cell_angle_gamma 90.00000

_symmetry_space_group_name_	'P 1'
_symmetry_space_group_name_H-M	'P 1'

loop_
_symmetry_equiv_pos_as_xyz
  x,y,z

loop_
_atom_site_label
_atom_site_type_symbol
_atom_site_fract_x
_atom_site_fract_y
_atom_site_fract_z
_atom_site_charge
O 	O 	0.86228 0.74153 0.70347 -0.37900
O 	O 	0.80504 0.87740 0.73803 -0.26300
O 	O 	0.78830 0.88600 0.60397 -0.26600
O 	O 	0.70732 0.75287 0.57573 -0.39000
O 	O 	0.73147 0.94383 0.96110 -0.24800
N 	N 	0.39311 0.82274 0.02360 -0.24200
N 	N 	0.91160 0.73991 0.81680 -0.24000
N 	N 	0.68612 0.79267 0.93782 -0.26800
H 	H 	0.64140 0.74540 0.94480 0.13800
C 	C 	0.76480 0.77781 0.89830 0.22500
C 	C 	0.58650 0.92583 0.05140 0.08100
H 	H 	0.65130 0.96260 0.06050 0.01600
C 	C 	0.73239 0.81378 0.61158 0.28400
C 	C 	0.79210 0.80835 0.70730 0.27400
C 	C 	0.49790 0.92380 0.08500 -0.13700
H 	H 	0.50210 0.95760 0.11840 0.06800
C 	C 	0.57879 0.87293 0.00390 -0.18700
C 	C 	0.81460 0.69253 0.81978 0.13000
H 	H 	0.79650 0.64580 0.79310 -0.02600
C 	C 	0.48060 0.82321 0.99149 0.15200
H 	H 	0.47500 0.78780 0.95870 -0.02300
C 	C 	0.93610 0.80483 0.85540 0.17600
H 	H 	0.00530 0.83770 0.85440 -0.03100
C 	C 	0.68750 0.79885 0.66825 0.06400
C 	C 	0.74060 0.70842 0.85943 -0.22900
H 	H 	0.67340 0.67260 0.86040 0.10500
C 	C 	0.67310 0.87357 0.96610 0.28500
C 	C 	0.40300 0.87246 0.07008 0.08600
H 	H 	0.34230 0.87220 0.09360 0.00900
C 	C 	0.60240 0.87700 0.67796 -0.42800
H 	H 	0.63930 0.93850 0.67600 0.16100
H 	H 	0.57250 0.86890 0.71400 0.14600
H 	H 	0.54070 0.87350 0.65010 0.15000
C 	C 	0.86590 0.82607 0.89631 -0.23700
H 	H 	0.88610 0.87280 0.92270 0.14000
C 	C 	0.63330 0.70260 0.67456 -0.43200
H 	H 	0.56880 0.69660 0.64840 0.15800
H 	H 	0.60790 0.69610 0.71160 0.15100
H 	H 	0.68820 0.65310 0.66780 0.17000
O 	O 	0.13772 0.74153 0.79653 -0.39000
O 	O 	0.19496 0.87740 0.76197 -0.26900
O 	O 	0.21170 0.88600 0.89603 -0.26600
O 	O 	0.29268 0.75287 0.92427 -0.38100
O 	O 	0.26853 0.94383 0.53890 -0.24700
N 	N 	0.60689 0.82274 0.47640 -0.20900
N 	N 	0.08840 0.73991 0.68320 -0.23000
N 	N 	0.31388 0.79267 0.56218 -0.25400
H 	H 	0.35860 0.74540 0.55520 0.12900
C 	C 	0.23520 0.77781 0.60170 0.19500
C 	C 	0.41350 0.92583 0.44860 0.03000
H 	H 	0.34870 0.96260 0.43950 0.03600
C 	C 	0.26761 0.81378 0.88842 0.28300
C 	C 	0.20790 0.80835 0.79270 0.27800
C 	C 	0.50210 0.92380 0.41500 -0.09800
H 	H 	0.49790 0.95760 0.38160 0.05500
C 	C 	0.42121 0.87293 0.49610 -0.09400
C 	C 	0.18540 0.69253 0.68022 0.11500
H 	H 	0.20350 0.64580 0.70690 -0.02400
C 	C 	0.51940 0.82321 0.50851 0.05900
H 	H 	0.52500 0.78780 0.54130 0.00400
C 	C 	0.06390 0.80483 0.64460 0.06700
H 	H 	0.99470 0.83770 0.64560 0.03500
C 	C 	0.31250 0.79885 0.83175 0.06200
C 	C 	0.25940 0.70842 0.64057 -0.20900
H 	H 	0.32660 0.67260 0.63960 0.09700
C 	C 	0.32690 0.87357 0.53390 0.23500
C 	C 	0.59700 0.87246 0.42992 0.06700
H 	H 	0.65770 0.87220 0.40640 0.01700
C 	C 	0.39760 0.87700 0.82204 -0.42700
H 	H 	0.36070 0.93850 0.82400 0.16000
H 	H 	0.42750 0.86890 0.78600 0.14600
H 	H 	0.45930 0.87350 0.84990 0.15100
C 	C 	0.13410 0.82607 0.60369 -0.18200
H 	H 	0.11390 0.87280 0.57730 0.10700
C 	C 	0.36670 0.70260 0.82544 -0.43100
H 	H 	0.43120 0.69660 0.85160 0.15800
H 	H 	0.39210 0.69610 0.78840 0.15000
H 	H 	0.31180 0.65310 0.83220 0.16800
O 	O 	0.63772 0.75847 0.29653 -0.38500
O 	O 	0.69496 0.62260 0.26197 -0.26400
O 	O 	0.71170 0.61400 0.39603 -0.26600
O 	O 	0.79268 0.74713 0.42427 -0.38700
O 	O 	0.76853 0.55617 0.03890 -0.24100
N 	N 	0.10689 0.67726 0.97640 -0.18100
N 	N 	0.58840 0.76009 0.18320 -0.23600
N 	N 	0.81388 0.70733 0.06218 -0.24800
H 	H 	0.85860 0.75460 0.05520 0.12600
C 	C 	0.73520 0.72219 0.10170 0.20500
C 	C 	0.91350 0.57417 0.94860 0.05000
H 	H 	0.84870 0.53740 0.93950 0.03600
C 	C 	0.76761 0.68622 0.38842 0.28100
C 	C 	0.70790 0.69165 0.29270 0.27300
C 	C 	0.00210 0.57620 0.91500 -0.16700
H 	H 	0.99790 0.54240 0.88160 0.09400
C 	C 	0.92121 0.62707 0.99610 -0.00200
C 	C 	0.68540 0.80747 0.18022 0.12100
H 	H 	0.70350 0.85420 0.20690 -0.02400
C 	C 	0.01940 0.67679 0.00851 -0.05100
H 	H 	0.02500 0.71220 0.04130 0.03000
C 	C 	0.56390 0.69517 0.14460 0.11900
H 	H 	0.49470 0.66230 0.14560 0.00100
C 	C 	0.81250 0.70115 0.33175 0.07300
C 	C 	0.75940 0.79158 0.14057 -0.21600
H 	H 	0.82660 0.82740 0.13960 0.10300
C 	C 	0.82690 0.62643 0.03390 0.19300
C 	C 	0.09700 0.62754 0.92992 0.09100
H 	H 	0.15770 0.62780 0.90640 0.00800
C 	C 	0.89760 0.62300 0.32204 -0.44600
H 	H 	0.86070 0.56150 0.32400 0.16700
H 	H 	0.92750 0.63110 0.28600 0.15800
H 	H 	0.95930 0.62650 0.34990 0.16100
C 	C 	0.63410 0.67393 0.10369 -0.20700
H 	H 	0.61390 0.62720 0.07730 0.11700
C 	C 	0.86670 0.79740 0.32544 -0.44800
H 	H 	0.93120 0.80340 0.35160 0.16800
H 	H 	0.89210 0.80390 0.28840 0.16000
H 	H 	0.81180 0.84690 0.33220 0.17500
O 	O 	0.36228 0.75847 0.20347 -0.38700
O 	O 	0.30504 0.62260 0.23803 -0.26900
O 	O 	0.28830 0.61400 0.10397 -0.27300
O 	O 	0.20732 0.74713 0.07573 -0.39600
O 	O 	0.23147 0.55617 0.46110 -0.24500
N 	N 	0.89311 0.67726 0.52360 -0.20100
N 	N 	0.41160 0.76009 0.31680 -0.23600
N 	N 	0.18612 0.70733 0.43782 -0.25500
H 	H 	0.14140 0.75460 0.44480 0.12300
C 	C 	0.26480 0.72219 0.39830 0.20300
C 	C 	0.08650 0.57417 0.55140 -0.04400
H 	H 	0.15130 0.53740 0.56050 0.06100
C 	C 	0.23239 0.68622 0.11158 0.29000
C 	C 	0.29210 0.69165 0.20730 0.28100
C 	C 	0.99790 0.57620 0.58500 0.01300
H 	H 	0.00210 0.54240 0.61840 0.00300
C 	C 	0.07879 0.62707 0.50390 -0.09200
C 	C 	0.31460 0.80747 0.31978 0.11900
H 	H 	0.29650 0.85420 0.29310 -0.02500
C 	C 	0.98060 0.67679 0.49149 0.07600
H 	H 	0.97500 0.71220 0.45870 0.00500
C 	C 	0.43610 0.69517 0.35540 0.11900
H 	H 	0.50530 0.66230 0.35440 0.00200
C 	C 	0.18750 0.70115 0.16825 0.04800
C 	C 	0.24060 0.79158 0.35943 -0.21600
H 	H 	0.17340 0.82740 0.36040 0.09500
C 	C 	0.17310 0.62643 0.46610 0.22900
C 	C 	0.90300 0.62754 0.57008 0.02200
H 	H 	0.84230 0.62780 0.59360 0.03500
C 	C 	0.10240 0.62300 0.17796 -0.40500
H 	H 	0.13930 0.56150 0.17600 0.15200
H 	H 	0.07250 0.63110 0.21400 0.13400
H 	H 	0.04070 0.62650 0.15010 0.13800
C 	C 	0.36590 0.67393 0.39631 -0.20700
H 	H 	0.38610 0.62720 0.42270 0.12000
C 	C 	0.13330 0.79740 0.17456 -0.40900
H 	H 	0.06880 0.80340 0.14840 0.14400
H 	H 	0.10790 0.80390 0.21160 0.13900
H 	H 	0.18820 0.84690 0.16780 0.16000
Cu	Cu	0.00000 0.73079 0.75000 0.88700
Cu	Cu	0.50000 0.76921 0.25000 0.89700
Cu	Cu	0.75000 0.75000 0.50000 0.89900
Cu	Cu	0.25000 0.75000 -0.00000 0.88700
O 	O 	0.36228 0.24153 0.70347 -0.38700
O 	O 	0.30504 0.37740 0.73803 -0.26900
O 	O 	0.28830 0.38600 0.60397 -0.27000
O 	O 	0.20732 0.25287 0.57573 -0.39200
O 	O 	0.23147 0.44383 0.96110 -0.24800
N 	N 	0.89311 0.32274 0.02360 -0.23200
N 	N 	0.41160 0.23991 0.81680 -0.23700
N 	N 	0.18612 0.29267 0.93782 -0.26500
H 	H 	0.14140 0.24540 0.94480 0.13200
C 	C 	0.26480 0.27781 0.89830 0.20900
C 	C 	0.08650 0.42583 0.05140 0.00600
H 	H 	0.15130 0.46260 0.06050 0.04000
C 	C 	0.23239 0.31378 0.61158 0.28800
C 	C 	0.29210 0.30835 0.70730 0.28100
C 	C 	0.99790 0.42380 0.08500 -0.02400
H 	H 	0.00210 0.45760 0.11840 0.01500
C 	C 	0.07879 0.37293 0.00390 -0.18400
C 	C 	0.31460 0.19253 0.81978 0.12100
H 	H 	0.29650 0.14580 0.79310 -0.02600
C 	C 	0.98060 0.32321 0.99149 0.16700
H 	H 	0.97500 0.28780 0.95870 -0.02100
C 	C 	0.43610 0.30483 0.85540 0.12200
H 	H 	0.50530 0.33770 0.85440 0.00200
C 	C 	0.18750 0.29885 0.66825 0.05000
C 	C 	0.24060 0.20842 0.85943 -0.21900
H 	H 	0.17340 0.17260 0.86040 0.09700
C 	C 	0.17310 0.37357 0.96610 0.27800
C 	C 	0.90300 0.37246 0.07008 0.04000
H 	H 	0.84230 0.37220 0.09360 0.02800
C 	C 	0.10240 0.37700 0.67796 -0.40700
H 	H 	0.13930 0.43850 0.67600 0.15300
H 	H 	0.07250 0.36890 0.71400 0.13500
H 	H 	0.04070 0.37350 0.65010 0.14000
C 	C 	0.36590 0.32607 0.89631 -0.21000
H 	H 	0.38610 0.37280 0.92270 0.12600
C 	C 	0.13330 0.20260 0.67456 -0.41100
H 	H 	0.06880 0.19660 0.64840 0.14600
H 	H 	0.10790 0.19610 0.71160 0.14000
H 	H 	0.18820 0.15310 0.66780 0.16100
O 	O 	0.63772 0.24153 0.79653 -0.38500
O 	O 	0.69496 0.37740 0.76197 -0.26400
O 	O 	0.71170 0.38600 0.89603 -0.26100
O 	O 	0.79268 0.25287 0.92427 -0.37800
O 	O 	0.76853 0.44383 0.53890 -0.24500
N 	N 	0.10689 0.32274 0.47640 -0.21700
N 	N 	0.58840 0.23991 0.68320 -0.23700
N 	N 	0.81388 0.29267 0.56218 -0.25700
H 	H 	0.85860 0.24540 0.55520 0.13500
C 	C 	0.73520 0.27781 0.60170 0.21100
C 	C 	0.91350 0.42583 0.44860 0.10300
H 	H 	0.84870 0.46260 0.43950 0.01400
C 	C 	0.76761 0.31378 0.88842 0.27800
C 	C 	0.70790 0.30835 0.79270 0.27300
C 	C 	0.00210 0.42380 0.41500 -0.20900
H 	H 	0.99790 0.45760 0.38160 0.10800
C 	C 	0.92121 0.37293 0.49610 -0.09600
C 	C 	0.68540 0.19253 0.68022 0.12300
H 	H 	0.70350 0.14580 0.70690 -0.02500
C 	C 	0.01940 0.32321 0.50851 0.04200
H 	H 	0.02500 0.28780 0.54130 0.00300
C 	C 	0.56390 0.30483 0.64460 0.12200
H 	H 	0.49470 0.33770 0.64560 0.00100
C 	C 	0.81250 0.29885 0.83175 0.07500
C 	C 	0.75940 0.20842 0.64057 -0.21900
H 	H 	0.82660 0.17260 0.63960 0.10500
C 	C 	0.82690 0.37357 0.53390 0.24200
C 	C 	0.09700 0.37246 0.42992 0.11100
H 	H 	0.15770 0.37220 0.40640 -0.00100
C 	C 	0.89760 0.37700 0.82204 -0.44800
H 	H 	0.86070 0.43850 0.82400 0.16800
H 	H 	0.92750 0.36890 0.78600 0.15800
H 	H 	0.95930 0.37350 0.84990 0.16200
C 	C 	0.63410 0.32607 0.60369 -0.21000
H 	H 	0.61390 0.37280 0.57730 0.12200
C 	C 	0.86670 0.20260 0.82544 -0.45100
H 	H 	0.93120 0.19660 0.85160 0.17000
H 	H 	0.89210 0.19610 0.78840 0.16000
H 	H 	0.81180 0.15310 0.83220 0.17600
O 	O 	0.13772 0.25847 0.29653 -0.39100
O 	O 	0.19496 0.12260 0.26197 -0.27000
O 	O 	0.21170 0.11400 0.39603 -0.27100
O 	O 	0.29268 0.24713 0.42427 -0.39000
O 	O 	0.26853 0.05617 0.03890 -0.24200
N 	N 	0.60689 0.17726 0.97640 -0.17400
N 	N 	0.08840 0.26009 0.18320 -0.22900
N 	N 	0.31388 0.20733 0.06218 -0.24500
H 	H 	0.35860 0.25460 0.05520 0.12000
C 	C 	0.23520 0.22219 0.10170 0.18900
C 	C 	0.41350 0.07417 0.94860 -0.02100
H 	H 	0.34870 0.03740 0.93950 0.05800
C 	C 	0.26761 0.18622 0.38842 0.28500
C 	C 	0.20790 0.19165 0.29270 0.27900
C 	C 	0.50210 0.07620 0.91500 -0.05900
H 	H 	0.49790 0.04240 0.88160 0.04200
C 	C 	0.42121 0.12707 0.99610 -0.00200
C 	C 	0.18540 0.30747 0.18022 0.11300
H 	H 	0.20350 0.35420 0.20690 -0.02400
C 	C 	0.51940 0.17679 0.00851 -0.03300
H 	H 	0.52500 0.21220 0.04130 0.03000
C 	C 	0.06390 0.19517 0.14460 0.06400
H 	H 	0.99470 0.16230 0.14560 0.03500
C 	C 	0.31250 0.20115 0.33175 0.05900
C 	C 	0.25940 0.29158 0.14057 -0.20600
H 	H 	0.32660 0.32740 0.13960 0.09500
C 	C 	0.32690 0.12643 0.03390 0.18700
C 	C 	0.59700 0.12754 0.92992 0.04700
H 	H 	0.65770 0.12780 0.90640 0.02500
C 	C 	0.39760 0.12300 0.32204 -0.42400
H 	H 	0.36070 0.06150 0.32400 0.15900
H 	H 	0.42750 0.13110 0.28600 0.14500
H 	H 	0.45930 0.12650 0.34990 0.14900
C 	C 	0.13410 0.17393 0.10369 -0.17900
H 	H 	0.11390 0.12720 0.07730 0.10200
C 	C 	0.36670 0.29740 0.32544 -0.42700
H 	H 	0.43120 0.30340 0.35160 0.15600
H 	H 	0.39210 0.30390 0.28840 0.14900
H 	H 	0.31180 0.34690 0.33220 0.16700
O 	O 	0.86228 0.25847 0.20347 -0.37800
O 	O 	0.80504 0.12260 0.23803 -0.26200
O 	O 	0.78830 0.11400 0.10397 -0.26800
O 	O 	0.70732 0.24713 0.07573 -0.39300
O 	O 	0.73147 0.05617 0.46110 -0.24300
N 	N 	0.39311 0.17726 0.52360 -0.20900
N 	N 	0.91160 0.26009 0.31680 -0.23900
N 	N 	0.68612 0.20733 0.43782 -0.25800
H 	H 	0.64140 0.25460 0.44480 0.12900
C 	C 	0.76480 0.22219 0.39830 0.22000
C 	C 	0.58650 0.07417 0.55140 0.02900
H 	H 	0.65130 0.03740 0.56050 0.03800
C 	C 	0.73239 0.18622 0.11158 0.28500
C 	C 	0.79210 0.19165 0.20730 0.27500
C 	C 	0.49790 0.07620 0.58500 -0.09800
H 	H 	0.50210 0.04240 0.61840 0.05500
C 	C 	0.57879 0.12707 0.50390 -0.09400
C 	C 	0.81460 0.30747 0.31978 0.12800
H 	H 	0.79650 0.35420 0.29310 -0.02500
C 	C 	0.48060 0.17679 0.49149 0.05800
H 	H 	0.47500 0.21220 0.45870 0.00400
C 	C 	0.93610 0.19517 0.35540 0.17400
H 	H 	0.00530 0.16230 0.35440 -0.03200
C 	C 	0.68750 0.20115 0.16825 0.06200
C 	C 	0.74060 0.29158 0.35943 -0.22600
H 	H 	0.67340 0.32740 0.36040 0.10300
C 	C 	0.67310 0.12643 0.46610 0.23600
C 	C 	0.40300 0.12754 0.57008 0.06600
H 	H 	0.34230 0.12780 0.59360 0.01700
C 	C 	0.60240 0.12300 0.17796 -0.42600
H 	H 	0.63930 0.06150 0.17600 0.16000
H 	H 	0.57250 0.13110 0.21400 0.14600
H 	H 	0.54070 0.12650 0.15010 0.14900
C 	C 	0.86590 0.17393 0.39631 -0.23500
H 	H 	0.88610 0.12720 0.42270 0.13600
C 	C 	0.63330 0.29740 0.17456 -0.42900
H 	H 	0.56880 0.30340 0.14840 0.15600
H 	H 	0.60790 0.30390 0.21160 0.15000
H 	H 	0.68820 0.34690 0.16780 0.16900
Cu	Cu	0.50000 0.23079 0.75000 0.89700
Cu	Cu	0.00000 0.26921 0.25000 0.88700
Cu	Cu	0.25000 0.25000 0.50000 0.89800
Cu	Cu	0.75000 0.25000 -0.00000 0.88800
