data_crystal

_cell_length_a 33.07000
_cell_length_b 10.12200
_cell_length_c 21.69200
_cell_angle_alpha 90.00000
_cell_angle_beta  98.40000
_cell_angle_gamma 90.00000

_symmetry_space_group_name_	'P 1'
_symmetry_space_group_name_H-M	'P 1'

loop_
_symmetry_equiv_pos_as_xyz
  x,y,z

loop_
_atom_site_label
_atom_site_type_symbol
_atom_site_fract_x
_atom_site_fract_y
_atom_site_fract_z
_atom_site_charge
Cd	Cd	0.25877 0.22218 0.35390 1.21900
C 	C 	0.15940 0.15350 0.37240 0.09800
H 	H 	0.15510 0.11210 0.33370 0.00700
C 	C 	0.18840 0.26000 0.44770 0.08500
H 	H 	0.20710 0.30750 0.47530 0.01600
C 	C 	0.13250 0.24190 0.51510 -0.15900
H 	H 	0.15170 0.28780 0.54570 0.09100
H 	H 	0.12800 0.15480 0.53140 0.09400
C 	C 	0.09290 0.31570 0.50610 0.11800
C 	C 	0.08830 0.43870 0.47910 -0.11800
H 	H 	0.10990 0.47630 0.46220 0.07900
C 	C 	0.05080 0.50910 0.47690 -0.01800
H 	H 	0.04820 0.59060 0.45680 0.03700
C 	C 	0.06140 0.27510 0.53400 -0.13000
H 	H 	0.06420 0.19750 0.55720 0.07600
C 	C 	0.02480 0.34470 0.52940 -0.00700
H 	H 	0.00320 0.30680 0.54610 0.03400
C 	C 	0.01910 0.46290 0.50240 -0.00900
C 	C 	0.01990 0.41130 0.23550 -0.02900
C 	C 	0.05640 0.41780 0.27250 0.02800
H 	H 	0.05650 0.42600 0.31520 0.02600
C 	C 	0.02290 0.39900 0.17900 0.03300
H 	H 	0.99890 0.38490 0.15150 0.02600
C 	C 	0.05860 0.40400 0.15450 -0.17400
H 	H 	0.05780 0.40980 0.11160 0.09600
C 	C 	0.09300 0.41320 0.25120 -0.16600
H 	H 	0.11710 0.41790 0.27910 0.09700
C 	C 	0.09450 0.40210 0.19080 0.16300
C 	C 	0.13370 0.39560 0.16440 -0.18000
H 	H 	0.12800 0.36750 0.12120 0.09700
H 	H 	0.14570 0.48310 0.16520 0.08700
C 	C 	0.19000 0.12760 0.23240 0.09400
H 	H 	0.19540 0.03820 0.23920 0.01000
C 	C 	0.19620 0.33290 0.23860 0.08300
H 	H 	0.20540 0.41800 0.24890 0.00800
C 	C 	0.31080 0.20430 0.23310 0.00200
H 	H 	0.28690 0.16010 0.21700 0.03400
C 	C 	0.34900 0.30680 0.31460 0.04600
H 	H 	0.35240 0.33540 0.35580 0.00400
C 	C 	0.38000 0.33270 0.27950 -0.07700
H 	H 	0.40380 0.37640 0.29650 0.06000
C 	C 	0.37400 0.29070 0.21820 -0.03300
H 	H 	0.39390 0.30780 0.19300 0.05200
C 	C 	0.33930 0.22450 0.19420 0.01300
C 	C 	0.33240 0.17850 0.12770 0.00000
H 	H 	0.35600 0.13020 0.11820 0.03300
H 	H 	0.30880 0.12080 0.12050 0.04200
C 	C 	0.31060 0.27830 0.02760 0.19900
C 	C 	0.30390 0.15950 0.99750 -0.15400
H 	H 	0.31120 0.08130 0.01880 0.09900
C 	C 	0.30170 0.39500 0.99500 -0.14600
H 	H 	0.30750 0.47550 0.01500 0.11300
C 	C 	0.27290 0.51860 0.89840 0.28600
C 	C 	0.28400 0.39270 0.93270 -0.00100
C 	C 	0.27560 0.27280 0.90290 -0.05100
H 	H 	0.26310 0.27060 0.86160 0.07700
C 	C 	0.28610 0.15520 0.93480 0.00200
C 	C 	0.27680 0.02470 0.90240 0.29100
N 	N 	0.31467 0.24340 0.29280 -0.20300
N 	N 	0.21426 0.22490 0.26120 -0.23400
N 	N 	0.15830 0.17150 0.19430 -0.09300
N 	N 	0.16280 0.30470 0.19870 -0.07100
N 	N 	0.19500 0.21530 0.39410 -0.22400
N 	N 	0.13140 0.15590 0.40960 -0.09200
N 	N 	0.15050 0.22750 0.45760 -0.07000
O 	O 	0.25112 0.51780 0.84630 -0.34100
O 	O 	0.28648 0.62410 0.92390 -0.38600
O 	O 	0.25820 0.02120 0.84850 -0.35900
O 	O 	0.28885 0.92300 0.93160 -0.38000
O 	O 	0.32590 0.29250 0.08990 -0.21800
Cd	Cd	0.74123 0.22218 0.14610 1.21800
C 	C 	0.84060 0.15350 0.12760 0.09700
H 	H 	0.84490 0.11210 0.16630 0.00600
C 	C 	0.81160 0.26000 0.05230 0.08400
H 	H 	0.79290 0.30750 0.02470 0.01500
C 	C 	0.86750 0.24190 0.98490 -0.16000
H 	H 	0.84830 0.28780 0.95430 0.09000
H 	H 	0.87200 0.15480 0.96860 0.09300
C 	C 	0.90710 0.31570 0.99390 0.11700
C 	C 	0.91170 0.43870 0.02090 -0.12000
H 	H 	0.89010 0.47630 0.03780 0.07800
C 	C 	0.94920 0.50910 0.02310 -0.01900
H 	H 	0.95180 0.59060 0.04320 0.03600
C 	C 	0.93860 0.27510 0.96600 -0.13100
H 	H 	0.93580 0.19750 0.94280 0.07500
C 	C 	0.97520 0.34470 0.97060 -0.00800
H 	H 	0.99680 0.30680 0.95390 0.03300
C 	C 	0.98090 0.46290 0.99760 -0.01100
C 	C 	0.98010 0.41130 0.26450 -0.03200
C 	C 	0.94360 0.41780 0.22750 0.02900
H 	H 	0.94350 0.42600 0.18480 0.02500
C 	C 	0.97710 0.39900 0.32100 0.03400
H 	H 	0.00110 0.38490 0.34850 0.02400
C 	C 	0.94140 0.40400 0.34550 -0.17700
H 	H 	0.94220 0.40980 0.38840 0.09500
C 	C 	0.90700 0.41320 0.24880 -0.16800
H 	H 	0.88290 0.41790 0.22090 0.09700
C 	C 	0.90550 0.40210 0.30920 0.16400
C 	C 	0.86630 0.39560 0.33560 -0.18200
H 	H 	0.87200 0.36750 0.37880 0.09700
H 	H 	0.85430 0.48310 0.33480 0.08700
C 	C 	0.81000 0.12760 0.26760 0.09300
H 	H 	0.80460 0.03820 0.26080 0.00900
C 	C 	0.80380 0.33290 0.26140 0.08200
H 	H 	0.79460 0.41800 0.25110 0.00700
C 	C 	0.68920 0.20430 0.26690 0.00100
H 	H 	0.71310 0.16010 0.28300 0.03400
C 	C 	0.65100 0.30680 0.18540 0.04600
H 	H 	0.64760 0.33540 0.14420 0.00400
C 	C 	0.62000 0.33270 0.22050 -0.07700
H 	H 	0.59620 0.37640 0.20350 0.06000
C 	C 	0.62600 0.29070 0.28180 -0.03300
H 	H 	0.60610 0.30780 0.30700 0.05200
C 	C 	0.66070 0.22450 0.30580 0.01300
C 	C 	0.66760 0.17850 0.37230 0.00000
H 	H 	0.64400 0.13020 0.38180 0.03300
H 	H 	0.69120 0.12080 0.37950 0.04200
C 	C 	0.68940 0.27830 0.47240 0.19900
C 	C 	0.69610 0.15950 0.50250 -0.15400
H 	H 	0.68880 0.08130 0.48120 0.09900
C 	C 	0.69830 0.39500 0.50500 -0.14600
H 	H 	0.69250 0.47550 0.48500 0.11300
C 	C 	0.72710 0.51860 0.60160 0.28600
C 	C 	0.71600 0.39270 0.56730 -0.00100
C 	C 	0.72440 0.27280 0.59710 -0.05100
H 	H 	0.73690 0.27060 0.63840 0.07700
C 	C 	0.71390 0.15520 0.56520 0.00200
C 	C 	0.72320 0.02470 0.59760 0.29100
N 	N 	0.68533 0.24340 0.20720 -0.20300
N 	N 	0.78574 0.22490 0.23880 -0.23400
N 	N 	0.84170 0.17150 0.30570 -0.09300
N 	N 	0.83720 0.30470 0.30130 -0.07100
N 	N 	0.80500 0.21530 0.10590 -0.22400
N 	N 	0.86860 0.15590 0.09040 -0.09200
N 	N 	0.84950 0.22750 0.04240 -0.07000
O 	O 	0.74888 0.51780 0.65370 -0.34100
O 	O 	0.71352 0.62410 0.57610 -0.38600
O 	O 	0.74180 0.02120 0.65150 -0.35900
O 	O 	0.71115 0.92300 0.56840 -0.38000
O 	O 	0.67410 0.29250 0.41010 -0.21800
Cd	Cd	0.74123 0.77782 0.64610 1.21800
C 	C 	0.84060 0.84650 0.62760 0.09700
H 	H 	0.84490 0.88790 0.66630 0.00600
C 	C 	0.81160 0.74000 0.55230 0.08400
H 	H 	0.79290 0.69250 0.52470 0.01500
C 	C 	0.86750 0.75810 0.48490 -0.16000
H 	H 	0.84830 0.71220 0.45430 0.09000
H 	H 	0.87200 0.84520 0.46860 0.09300
C 	C 	0.90710 0.68430 0.49390 0.11700
C 	C 	0.91170 0.56130 0.52090 -0.11900
H 	H 	0.89010 0.52370 0.53780 0.07800
C 	C 	0.94920 0.49090 0.52310 -0.01900
H 	H 	0.95180 0.40940 0.54320 0.03600
C 	C 	0.93860 0.72490 0.46600 -0.13100
H 	H 	0.93580 0.80250 0.44280 0.07500
C 	C 	0.97520 0.65530 0.47060 -0.00800
H 	H 	0.99680 0.69320 0.45390 0.03300
C 	C 	0.98090 0.53710 0.49760 -0.01000
C 	C 	0.98010 0.58870 0.76450 -0.03000
C 	C 	0.94360 0.58220 0.72750 0.02700
H 	H 	0.94350 0.57400 0.68480 0.02500
C 	C 	0.97710 0.60100 0.82100 0.03200
H 	H 	0.00110 0.61510 0.84850 0.02500
C 	C 	0.94140 0.59600 0.84550 -0.17500
H 	H 	0.94220 0.59020 0.88840 0.09500
C 	C 	0.90700 0.58680 0.74880 -0.16700
H 	H 	0.88290 0.58210 0.72090 0.09600
C 	C 	0.90550 0.59790 0.80920 0.16200
C 	C 	0.86630 0.60440 0.83560 -0.18100
H 	H 	0.87200 0.63250 0.87880 0.09600
H 	H 	0.85430 0.51690 0.83480 0.08600
C 	C 	0.81000 0.87240 0.76760 0.09300
H 	H 	0.80460 0.96180 0.76080 0.00900
C 	C 	0.80380 0.66710 0.76140 0.08200
H 	H 	0.79460 0.58200 0.75110 0.00700
C 	C 	0.68920 0.79570 0.76690 0.00100
H 	H 	0.71310 0.83990 0.78300 0.03400
C 	C 	0.65100 0.69320 0.68540 0.04600
H 	H 	0.64760 0.66460 0.64420 0.00400
C 	C 	0.62000 0.66730 0.72050 -0.07700
H 	H 	0.59620 0.62360 0.70350 0.06000
C 	C 	0.62600 0.70930 0.78180 -0.03300
H 	H 	0.60610 0.69220 0.80700 0.05200
C 	C 	0.66070 0.77550 0.80580 0.01300
C 	C 	0.66760 0.82150 0.87230 0.00000
H 	H 	0.64400 0.86980 0.88180 0.03300
H 	H 	0.69120 0.87920 0.87950 0.04200
C 	C 	0.68940 0.72170 0.97240 0.19900
C 	C 	0.69610 0.84050 0.00250 -0.15400
H 	H 	0.68880 0.91870 0.98120 0.09900
C 	C 	0.69830 0.60500 0.00500 -0.14600
H 	H 	0.69250 0.52450 0.98500 0.11300
C 	C 	0.72710 0.48140 0.10160 0.28600
C 	C 	0.71600 0.60730 0.06730 -0.00100
C 	C 	0.72440 0.72720 0.09710 -0.05100
H 	H 	0.73690 0.72940 0.13840 0.07700
C 	C 	0.71390 0.84480 0.06520 0.00200
C 	C 	0.72320 0.97530 0.09760 0.29100
N 	N 	0.68533 0.75660 0.70720 -0.20300
N 	N 	0.78574 0.77510 0.73880 -0.23400
N 	N 	0.84170 0.82850 0.80570 -0.09300
N 	N 	0.83720 0.69530 0.80130 -0.07100
N 	N 	0.80500 0.78470 0.60590 -0.22400
N 	N 	0.86860 0.84410 0.59040 -0.09200
N 	N 	0.84950 0.77250 0.54240 -0.07000
O 	O 	0.74888 0.48220 0.15370 -0.34100
O 	O 	0.71352 0.37590 0.07610 -0.38600
O 	O 	0.74180 0.97880 0.15150 -0.35900
O 	O 	0.71115 0.07700 0.06840 -0.38000
O 	O 	0.67410 0.70750 0.91010 -0.21800
Cd	Cd	0.25877 0.77782 0.85390 1.21800
C 	C 	0.15940 0.84650 0.87240 0.09700
H 	H 	0.15510 0.88790 0.83370 0.00600
C 	C 	0.18840 0.74000 0.94770 0.08400
H 	H 	0.20710 0.69250 0.97530 0.01500
C 	C 	0.13250 0.75810 0.01510 -0.16000
H 	H 	0.15170 0.71220 0.04570 0.09000
H 	H 	0.12800 0.84520 0.03140 0.09300
C 	C 	0.09290 0.68430 0.00610 0.11700
C 	C 	0.08830 0.56130 0.97910 -0.12000
H 	H 	0.10990 0.52370 0.96220 0.07800
C 	C 	0.05080 0.49090 0.97690 -0.01900
H 	H 	0.04820 0.40940 0.95680 0.03600
C 	C 	0.06140 0.72490 0.03400 -0.13100
H 	H 	0.06420 0.80250 0.05720 0.07500
C 	C 	0.02480 0.65530 0.02940 -0.00800
H 	H 	0.00320 0.69320 0.04610 0.03300
C 	C 	0.01910 0.53710 0.00240 -0.01100
C 	C 	0.01990 0.58870 0.73550 -0.03200
C 	C 	0.05640 0.58220 0.77250 0.02900
H 	H 	0.05650 0.57400 0.81520 0.02500
C 	C 	0.02290 0.60100 0.67900 0.03400
H 	H 	0.99890 0.61510 0.65150 0.02400
C 	C 	0.05860 0.59600 0.65450 -0.17700
H 	H 	0.05780 0.59020 0.61160 0.09500
C 	C 	0.09300 0.58680 0.75120 -0.16800
H 	H 	0.11710 0.58210 0.77910 0.09700
C 	C 	0.09450 0.59790 0.69080 0.16400
C 	C 	0.13370 0.60440 0.66440 -0.18200
H 	H 	0.12800 0.63250 0.62120 0.09700
H 	H 	0.14570 0.51690 0.66520 0.08700
C 	C 	0.19000 0.87240 0.73240 0.09300
H 	H 	0.19540 0.96180 0.73920 0.00900
C 	C 	0.19620 0.66710 0.73860 0.08200
H 	H 	0.20540 0.58200 0.74890 0.00700
C 	C 	0.31080 0.79570 0.73310 0.00100
H 	H 	0.28690 0.83990 0.71700 0.03400
C 	C 	0.34900 0.69320 0.81460 0.04600
H 	H 	0.35240 0.66460 0.85580 0.00400
C 	C 	0.38000 0.66730 0.77950 -0.07700
H 	H 	0.40380 0.62360 0.79650 0.06000
C 	C 	0.37400 0.70930 0.71820 -0.03300
H 	H 	0.39390 0.69220 0.69300 0.05200
C 	C 	0.33930 0.77550 0.69420 0.01300
C 	C 	0.33240 0.82150 0.62770 0.00000
H 	H 	0.35600 0.86980 0.61820 0.03300
H 	H 	0.30880 0.87920 0.62050 0.04200
C 	C 	0.31060 0.72170 0.52760 0.19900
C 	C 	0.30390 0.84050 0.49750 -0.15400
H 	H 	0.31120 0.91870 0.51880 0.09900
C 	C 	0.30170 0.60500 0.49500 -0.14600
H 	H 	0.30750 0.52450 0.51500 0.11300
C 	C 	0.27290 0.48140 0.39840 0.28600
C 	C 	0.28400 0.60730 0.43270 -0.00100
C 	C 	0.27560 0.72720 0.40290 -0.05100
H 	H 	0.26310 0.72940 0.36160 0.07700
C 	C 	0.28610 0.84480 0.43480 0.00200
C 	C 	0.27680 0.97530 0.40240 0.29100
N 	N 	0.31467 0.75660 0.79280 -0.20300
N 	N 	0.21426 0.77510 0.76120 -0.23400
N 	N 	0.15830 0.82850 0.69430 -0.09300
N 	N 	0.16280 0.69530 0.69870 -0.07100
N 	N 	0.19500 0.78470 0.89410 -0.22400
N 	N 	0.13140 0.84410 0.90960 -0.09200
N 	N 	0.15050 0.77250 0.95760 -0.07000
O 	O 	0.25112 0.48220 0.34630 -0.34100
O 	O 	0.28648 0.37590 0.42390 -0.38600
O 	O 	0.25820 0.97880 0.34850 -0.35900
O 	O 	0.28885 0.07700 0.43160 -0.38000
O 	O 	0.32590 0.70750 0.58990 -0.21800
Cd	Cd	0.75877 0.72218 0.35390 1.21800
C 	C 	0.65940 0.65350 0.37240 0.09700
H 	H 	0.65510 0.61210 0.33370 0.00600
C 	C 	0.68840 0.76000 0.44770 0.08400
H 	H 	0.70710 0.80750 0.47530 0.01500
C 	C 	0.63250 0.74190 0.51510 -0.16000
H 	H 	0.65170 0.78780 0.54570 0.09000
H 	H 	0.62800 0.65480 0.53140 0.09300
C 	C 	0.59290 0.81570 0.50610 0.11700
C 	C 	0.58830 0.93870 0.47910 -0.11900
H 	H 	0.60990 0.97630 0.46220 0.07800
C 	C 	0.55080 0.00910 0.47690 -0.01900
H 	H 	0.54820 0.09060 0.45680 0.03600
C 	C 	0.56140 0.77510 0.53400 -0.13100
H 	H 	0.56420 0.69750 0.55720 0.07500
C 	C 	0.52480 0.84470 0.52940 -0.00800
H 	H 	0.50320 0.80680 0.54610 0.03300
C 	C 	0.51910 0.96290 0.50240 -0.01000
C 	C 	0.51990 0.91130 0.23550 -0.03100
C 	C 	0.55640 0.91780 0.27250 0.02800
H 	H 	0.55650 0.92600 0.31520 0.02500
C 	C 	0.52290 0.89900 0.17900 0.03300
H 	H 	0.49890 0.88490 0.15150 0.02500
C 	C 	0.55860 0.90400 0.15450 -0.17600
H 	H 	0.55780 0.90980 0.11160 0.09500
C 	C 	0.59300 0.91320 0.25120 -0.16800
H 	H 	0.61710 0.91790 0.27910 0.09600
C 	C 	0.59450 0.90210 0.19080 0.16300
C 	C 	0.63370 0.89560 0.16440 -0.18200
H 	H 	0.62800 0.86750 0.12120 0.09600
H 	H 	0.64570 0.98310 0.16520 0.08600
C 	C 	0.69000 0.62760 0.23240 0.09300
H 	H 	0.69540 0.53820 0.23920 0.00900
C 	C 	0.69620 0.83290 0.23860 0.08200
H 	H 	0.70540 0.91800 0.24890 0.00700
C 	C 	0.81080 0.70430 0.23310 0.00100
H 	H 	0.78690 0.66010 0.21700 0.03400
C 	C 	0.84900 0.80680 0.31460 0.04600
H 	H 	0.85240 0.83540 0.35580 0.00400
C 	C 	0.88000 0.83270 0.27950 -0.07700
H 	H 	0.90380 0.87640 0.29650 0.06000
C 	C 	0.87400 0.79070 0.21820 -0.03300
H 	H 	0.89390 0.80780 0.19300 0.05200
C 	C 	0.83930 0.72450 0.19420 0.01300
C 	C 	0.83240 0.67850 0.12770 0.00000
H 	H 	0.85600 0.63020 0.11820 0.03300
H 	H 	0.80880 0.62080 0.12050 0.04200
C 	C 	0.81060 0.77830 0.02760 0.19900
C 	C 	0.80390 0.65950 0.99750 -0.15400
H 	H 	0.81120 0.58130 0.01880 0.09900
C 	C 	0.80170 0.89500 0.99500 -0.14600
H 	H 	0.80750 0.97550 0.01500 0.11300
C 	C 	0.77290 0.01860 0.89840 0.28600
C 	C 	0.78400 0.89270 0.93270 -0.00100
C 	C 	0.77560 0.77280 0.90290 -0.05100
H 	H 	0.76310 0.77060 0.86160 0.07700
C 	C 	0.78610 0.65520 0.93480 0.00200
C 	C 	0.77680 0.52470 0.90240 0.29100
N 	N 	0.81467 0.74340 0.29280 -0.20300
N 	N 	0.71426 0.72490 0.26120 -0.23400
N 	N 	0.65830 0.67150 0.19430 -0.09300
N 	N 	0.66280 0.80470 0.19870 -0.07100
N 	N 	0.69500 0.71530 0.39410 -0.22400
N 	N 	0.63140 0.65590 0.40960 -0.09200
N 	N 	0.65050 0.72750 0.45760 -0.07000
O 	O 	0.75112 0.01780 0.84630 -0.34100
O 	O 	0.78648 0.12410 0.92390 -0.38600
O 	O 	0.75820 0.52120 0.84850 -0.35900
O 	O 	0.78885 0.42300 0.93160 -0.38000
O 	O 	0.82590 0.79250 0.08990 -0.21800
Cd	Cd	0.24123 0.72218 0.14610 1.21800
C 	C 	0.34060 0.65350 0.12760 0.09700
H 	H 	0.34490 0.61210 0.16630 0.00600
C 	C 	0.31160 0.76000 0.05230 0.08400
H 	H 	0.29290 0.80750 0.02470 0.01500
C 	C 	0.36750 0.74190 0.98490 -0.16000
H 	H 	0.34830 0.78780 0.95430 0.09000
H 	H 	0.37200 0.65480 0.96860 0.09300
C 	C 	0.40710 0.81570 0.99390 0.11700
C 	C 	0.41170 0.93870 0.02090 -0.11900
H 	H 	0.39010 0.97630 0.03780 0.07800
C 	C 	0.44920 0.00910 0.02310 -0.01900
H 	H 	0.45180 0.09060 0.04320 0.03600
C 	C 	0.43860 0.77510 0.96600 -0.13100
H 	H 	0.43580 0.69750 0.94280 0.07500
C 	C 	0.47520 0.84470 0.97060 -0.00800
H 	H 	0.49680 0.80680 0.95390 0.03300
C 	C 	0.48090 0.96290 0.99760 -0.01000
C 	C 	0.48010 0.91130 0.26450 -0.03100
C 	C 	0.44360 0.91780 0.22750 0.02800
H 	H 	0.44350 0.92600 0.18480 0.02500
C 	C 	0.47710 0.89900 0.32100 0.03300
H 	H 	0.50110 0.88490 0.34850 0.02500
C 	C 	0.44140 0.90400 0.34550 -0.17600
H 	H 	0.44220 0.90980 0.38840 0.09500
C 	C 	0.40700 0.91320 0.24880 -0.16800
H 	H 	0.38290 0.91790 0.22090 0.09600
C 	C 	0.40550 0.90210 0.30920 0.16300
C 	C 	0.36630 0.89560 0.33560 -0.18200
H 	H 	0.37200 0.86750 0.37880 0.09600
H 	H 	0.35430 0.98310 0.33480 0.08600
C 	C 	0.31000 0.62760 0.26760 0.09300
H 	H 	0.30460 0.53820 0.26080 0.00900
C 	C 	0.30380 0.83290 0.26140 0.08200
H 	H 	0.29460 0.91800 0.25110 0.00700
C 	C 	0.18920 0.70430 0.26690 0.00100
H 	H 	0.21310 0.66010 0.28300 0.03400
C 	C 	0.15100 0.80680 0.18540 0.04600
H 	H 	0.14760 0.83540 0.14420 0.00400
C 	C 	0.12000 0.83270 0.22050 -0.07700
H 	H 	0.09620 0.87640 0.20350 0.06000
C 	C 	0.12600 0.79070 0.28180 -0.03300
H 	H 	0.10610 0.80780 0.30700 0.05200
C 	C 	0.16070 0.72450 0.30580 0.01300
C 	C 	0.16760 0.67850 0.37230 0.00000
H 	H 	0.14400 0.63020 0.38180 0.03300
H 	H 	0.19120 0.62080 0.37950 0.04200
C 	C 	0.18940 0.77830 0.47240 0.19900
C 	C 	0.19610 0.65950 0.50250 -0.15400
H 	H 	0.18880 0.58130 0.48120 0.09900
C 	C 	0.19830 0.89500 0.50500 -0.14600
H 	H 	0.19250 0.97550 0.48500 0.11300
C 	C 	0.22710 0.01860 0.60160 0.28600
C 	C 	0.21600 0.89270 0.56730 -0.00100
C 	C 	0.22440 0.77280 0.59710 -0.05100
H 	H 	0.23690 0.77060 0.63840 0.07700
C 	C 	0.21390 0.65520 0.56520 0.00200
C 	C 	0.22320 0.52470 0.59760 0.29100
N 	N 	0.18533 0.74340 0.20720 -0.20300
N 	N 	0.28574 0.72490 0.23880 -0.23400
N 	N 	0.34170 0.67150 0.30570 -0.09300
N 	N 	0.33720 0.80470 0.30130 -0.07100
N 	N 	0.30500 0.71530 0.10590 -0.22400
N 	N 	0.36860 0.65590 0.09040 -0.09200
N 	N 	0.34950 0.72750 0.04240 -0.07000
O 	O 	0.24888 0.01780 0.65370 -0.34100
O 	O 	0.21352 0.12410 0.57610 -0.38600
O 	O 	0.24180 0.52120 0.65150 -0.35900
O 	O 	0.21115 0.42300 0.56840 -0.38000
O 	O 	0.17410 0.79250 0.41010 -0.21800
Cd	Cd	0.24123 0.27782 0.64610 1.21800
C 	C 	0.34060 0.34650 0.62760 0.09700
H 	H 	0.34490 0.38790 0.66630 0.00600
C 	C 	0.31160 0.24000 0.55230 0.08400
H 	H 	0.29290 0.19250 0.52470 0.01500
C 	C 	0.36750 0.25810 0.48490 -0.16000
H 	H 	0.34830 0.21220 0.45430 0.09000
H 	H 	0.37200 0.34520 0.46860 0.09300
C 	C 	0.40710 0.18430 0.49390 0.11700
C 	C 	0.41170 0.06130 0.52090 -0.11900
H 	H 	0.39010 0.02370 0.53780 0.07800
C 	C 	0.44920 0.99090 0.52310 -0.01900
H 	H 	0.45180 0.90940 0.54320 0.03600
C 	C 	0.43860 0.22490 0.46600 -0.13100
H 	H 	0.43580 0.30250 0.44280 0.07500
C 	C 	0.47520 0.15530 0.47060 -0.00800
H 	H 	0.49680 0.19320 0.45390 0.03300
C 	C 	0.48090 0.03710 0.49760 -0.01000
C 	C 	0.48010 0.08870 0.76450 -0.03100
C 	C 	0.44360 0.08220 0.72750 0.02800
H 	H 	0.44350 0.07400 0.68480 0.02500
C 	C 	0.47710 0.10100 0.82100 0.03300
H 	H 	0.50110 0.11510 0.84850 0.02500
C 	C 	0.44140 0.09600 0.84550 -0.17600
H 	H 	0.44220 0.09020 0.88840 0.09500
C 	C 	0.40700 0.08680 0.74880 -0.16800
H 	H 	0.38290 0.08210 0.72090 0.09600
C 	C 	0.40550 0.09790 0.80920 0.16300
C 	C 	0.36630 0.10440 0.83560 -0.18200
H 	H 	0.37200 0.13250 0.87880 0.09600
H 	H 	0.35430 0.01690 0.83480 0.08600
C 	C 	0.31000 0.37240 0.76760 0.09300
H 	H 	0.30460 0.46180 0.76080 0.00900
C 	C 	0.30380 0.16710 0.76140 0.08200
H 	H 	0.29460 0.08200 0.75110 0.00700
C 	C 	0.18920 0.29570 0.76690 0.00100
H 	H 	0.21310 0.33990 0.78300 0.03400
C 	C 	0.15100 0.19320 0.68540 0.04600
H 	H 	0.14760 0.16460 0.64420 0.00400
C 	C 	0.12000 0.16730 0.72050 -0.07700
H 	H 	0.09620 0.12360 0.70350 0.06000
C 	C 	0.12600 0.20930 0.78180 -0.03300
H 	H 	0.10610 0.19220 0.80700 0.05200
C 	C 	0.16070 0.27550 0.80580 0.01300
C 	C 	0.16760 0.32150 0.87230 0.00000
H 	H 	0.14400 0.36980 0.88180 0.03300
H 	H 	0.19120 0.37920 0.87950 0.04200
C 	C 	0.18940 0.22170 0.97240 0.19900
C 	C 	0.19610 0.34050 0.00250 -0.15400
H 	H 	0.18880 0.41870 0.98120 0.09900
C 	C 	0.19830 0.10500 0.00500 -0.14600
H 	H 	0.19250 0.02450 0.98500 0.11300
C 	C 	0.22710 0.98140 0.10160 0.28600
C 	C 	0.21600 0.10730 0.06730 -0.00100
C 	C 	0.22440 0.22720 0.09710 -0.05100
H 	H 	0.23690 0.22940 0.13840 0.07700
C 	C 	0.21390 0.34480 0.06520 0.00200
C 	C 	0.22320 0.47530 0.09760 0.29100
N 	N 	0.18533 0.25660 0.70720 -0.20300
N 	N 	0.28574 0.27510 0.73880 -0.23400
N 	N 	0.34170 0.32850 0.80570 -0.09300
N 	N 	0.33720 0.19530 0.80130 -0.07100
N 	N 	0.30500 0.28470 0.60590 -0.22400
N 	N 	0.36860 0.34410 0.59040 -0.09200
N 	N 	0.34950 0.27250 0.54240 -0.07000
O 	O 	0.24888 0.98220 0.15370 -0.34100
O 	O 	0.21352 0.87590 0.07610 -0.38600
O 	O 	0.24180 0.47880 0.15150 -0.35900
O 	O 	0.21115 0.57700 0.06840 -0.38000
O 	O 	0.17410 0.20750 0.91010 -0.21800
Cd	Cd	0.75877 0.27782 0.85390 1.21800
C 	C 	0.65940 0.34650 0.87240 0.09700
H 	H 	0.65510 0.38790 0.83370 0.00600
C 	C 	0.68840 0.24000 0.94770 0.08400
H 	H 	0.70710 0.19250 0.97530 0.01500
C 	C 	0.63250 0.25810 0.01510 -0.16000
H 	H 	0.65170 0.21220 0.04570 0.09000
H 	H 	0.62800 0.34520 0.03140 0.09300
C 	C 	0.59290 0.18430 0.00610 0.11700
C 	C 	0.58830 0.06130 0.97910 -0.11900
H 	H 	0.60990 0.02370 0.96220 0.07800
C 	C 	0.55080 0.99090 0.97690 -0.01900
H 	H 	0.54820 0.90940 0.95680 0.03600
C 	C 	0.56140 0.22490 0.03400 -0.13100
H 	H 	0.56420 0.30250 0.05720 0.07500
C 	C 	0.52480 0.15530 0.02940 -0.00800
H 	H 	0.50320 0.19320 0.04610 0.03300
C 	C 	0.51910 0.03710 0.00240 -0.01000
C 	C 	0.51990 0.08870 0.73550 -0.03100
C 	C 	0.55640 0.08220 0.77250 0.02800
H 	H 	0.55650 0.07400 0.81520 0.02500
C 	C 	0.52290 0.10100 0.67900 0.03300
H 	H 	0.49890 0.11510 0.65150 0.02500
C 	C 	0.55860 0.09600 0.65450 -0.17600
H 	H 	0.55780 0.09020 0.61160 0.09500
C 	C 	0.59300 0.08680 0.75120 -0.16800
H 	H 	0.61710 0.08210 0.77910 0.09600
C 	C 	0.59450 0.09790 0.69080 0.16300
C 	C 	0.63370 0.10440 0.66440 -0.18200
H 	H 	0.62800 0.13250 0.62120 0.09600
H 	H 	0.64570 0.01690 0.66520 0.08600
C 	C 	0.69000 0.37240 0.73240 0.09300
H 	H 	0.69540 0.46180 0.73920 0.00900
C 	C 	0.69620 0.16710 0.73860 0.08200
H 	H 	0.70540 0.08200 0.74890 0.00700
C 	C 	0.81080 0.29570 0.73310 0.00100
H 	H 	0.78690 0.33990 0.71700 0.03400
C 	C 	0.84900 0.19320 0.81460 0.04600
H 	H 	0.85240 0.16460 0.85580 0.00400
C 	C 	0.88000 0.16730 0.77950 -0.07700
H 	H 	0.90380 0.12360 0.79650 0.06000
C 	C 	0.87400 0.20930 0.71820 -0.03300
H 	H 	0.89390 0.19220 0.69300 0.05200
C 	C 	0.83930 0.27550 0.69420 0.01300
C 	C 	0.83240 0.32150 0.62770 0.00000
H 	H 	0.85600 0.36980 0.61820 0.03300
H 	H 	0.80880 0.37920 0.62050 0.04200
C 	C 	0.81060 0.22170 0.52760 0.19900
C 	C 	0.80390 0.34050 0.49750 -0.15400
H 	H 	0.81120 0.41870 0.51880 0.09900
C 	C 	0.80170 0.10500 0.49500 -0.14600
H 	H 	0.80750 0.02450 0.51500 0.11300
C 	C 	0.77290 0.98140 0.39840 0.28600
C 	C 	0.78400 0.10730 0.43270 -0.00100
C 	C 	0.77560 0.22720 0.40290 -0.05100
H 	H 	0.76310 0.22940 0.36160 0.07700
C 	C 	0.78610 0.34480 0.43480 0.00200
C 	C 	0.77680 0.47530 0.40240 0.29100
N 	N 	0.81467 0.25660 0.79280 -0.20300
N 	N 	0.71426 0.27510 0.76120 -0.23400
N 	N 	0.65830 0.32850 0.69430 -0.09300
N 	N 	0.66280 0.19530 0.69870 -0.07100
N 	N 	0.69500 0.28470 0.89410 -0.22400
N 	N 	0.63140 0.34410 0.90960 -0.09200
N 	N 	0.65050 0.27250 0.95760 -0.07000
O 	O 	0.75112 0.98220 0.34630 -0.34100
O 	O 	0.78648 0.87590 0.42390 -0.38600
O 	O 	0.75820 0.47880 0.34850 -0.35900
O 	O 	0.78885 0.57700 0.43160 -0.38000
O 	O 	0.82590 0.20750 0.58990 -0.21800
