data_crystal

_cell_length_a 11.83190
_cell_length_b 19.55800
_cell_length_c 7.43510
_cell_angle_alpha 90.00000
_cell_angle_beta  90.00000
_cell_angle_gamma 90.00000

_symmetry_space_group_name_	'P 1'
_symmetry_space_group_name_H-M	'P 1'

loop_
_symmetry_equiv_pos_as_xyz
  x,y,z

loop_
_atom_site_label
_atom_site_type_symbol
_atom_site_fract_x
_atom_site_fract_y
_atom_site_fract_z
_atom_site_charge
O 	O 	0.13340 0.29030 0.31320 -0.33900
N 	N 	0.26430 0.31370 0.09120 -0.22700
H 	H 	0.32210 0.31790 0.16030 0.12300
C 	C 	0.16420 0.30630 0.13880 0.25000
O 	O 	0.63340 0.79030 0.31320 -0.33900
N 	N 	0.76430 0.81370 0.09120 -0.22700
H 	H 	0.82210 0.81790 0.16030 0.12300
C 	C 	0.66420 0.80630 0.13880 0.25000
O 	O 	0.86660 0.70970 0.31320 -0.33900
N 	N 	0.73570 0.68630 0.09120 -0.22700
H 	H 	0.67790 0.68210 0.16030 0.12300
C 	C 	0.83580 0.69370 0.13880 0.25000
O 	O 	0.36660 0.20970 0.31320 -0.33900
N 	N 	0.23570 0.18630 0.09120 -0.22700
H 	H 	0.17790 0.18210 0.16030 0.12300
C 	C 	0.33580 0.19370 0.13880 0.25000
O 	O 	0.86660 0.70970 0.68680 -0.34200
N 	N 	0.73570 0.68630 0.90880 -0.19900
H 	H 	0.67790 0.68210 0.83970 0.13200
C 	C 	0.83580 0.69370 0.86120 0.29800
O 	O 	0.36660 0.20970 0.68680 -0.34200
N 	N 	0.23570 0.18630 0.90880 -0.20000
H 	H 	0.17790 0.18210 0.83970 0.13200
C 	C 	0.33580 0.19370 0.86120 0.29800
O 	O 	0.13340 0.29030 0.68680 -0.34200
N 	N 	0.26430 0.31370 0.90880 -0.19900
H 	H 	0.32210 0.31790 0.83970 0.13200
C 	C 	0.16420 0.30630 0.86120 0.29800
O 	O 	0.63340 0.79030 0.68680 -0.34200
N 	N 	0.76430 0.81370 0.90880 -0.20000
H 	H 	0.82210 0.81790 0.83970 0.13200
C 	C 	0.66420 0.80630 0.86120 0.29800
Co	Co	0.25000 0.25000 0.50000 1.16300
Co	Co	0.75000 0.75000 0.50000 1.16300
N 	N 	0.15520 0.15550 0.50000 -0.23200
C 	C 	0.03340 0.03260 0.50000 0.07000
C 	C 	0.98080 0.09530 0.50000 -0.13700
H 	H 	0.90230 0.09750 0.50000 0.08700
C 	C 	0.20550 0.09580 0.50000 0.08900
H 	H 	0.28400 0.09480 0.50000 0.01000
C 	C 	0.04260 0.15440 0.50000 0.08100
H 	H 	0.00410 0.19590 0.50000 0.01500
C 	C 	0.14810 0.03480 0.50000 -0.14000
H 	H 	0.18870 0.99400 0.50000 0.08900
N 	N 	0.65520 0.65550 0.50000 -0.23200
C 	C 	0.53340 0.53260 0.50000 0.07000
C 	C 	0.48080 0.59530 0.50000 -0.13700
H 	H 	0.40230 0.59750 0.50000 0.08700
C 	C 	0.70550 0.59580 0.50000 0.08900
H 	H 	0.78400 0.59480 0.50000 0.01000
C 	C 	0.54260 0.65440 0.50000 0.08200
H 	H 	0.50410 0.69590 0.50000 0.01500
C 	C 	0.64810 0.53480 0.50000 -0.13900
H 	H 	0.68870 0.49400 0.50000 0.08900
N 	N 	0.84480 0.84450 0.50000 -0.23200
C 	C 	0.96660 0.96740 0.50000 0.07000
C 	C 	0.01920 0.90470 0.50000 -0.13700
H 	H 	0.09770 0.90250 0.50000 0.08700
C 	C 	0.79450 0.90420 0.50000 0.08900
H 	H 	0.71600 0.90520 0.50000 0.01000
C 	C 	0.95740 0.84560 0.50000 0.08100
H 	H 	0.99590 0.80410 0.50000 0.01500
C 	C 	0.85190 0.96520 0.50000 -0.14000
H 	H 	0.81130 0.00600 0.50000 0.08900
N 	N 	0.34480 0.34450 0.50000 -0.23200
C 	C 	0.46660 0.46740 0.50000 0.07000
C 	C 	0.51920 0.40470 0.50000 -0.13700
H 	H 	0.59770 0.40250 0.50000 0.08700
C 	C 	0.29450 0.40420 0.50000 0.08900
H 	H 	0.21600 0.40520 0.50000 0.01000
C 	C 	0.45740 0.34560 0.50000 0.08200
H 	H 	0.49590 0.30410 0.50000 0.01500
C 	C 	0.35190 0.46520 0.50000 -0.13900
H 	H 	0.31130 0.50600 0.50000 0.08900
N 	N 	0.08690 0.31920 -0.00000 -0.17100
N 	N 	0.58690 0.81920 -0.00000 -0.17100
N 	N 	0.91310 0.68080 -0.00000 -0.17100
N 	N 	0.41310 0.18080 -0.00000 -0.17100
O 	O 	0.86660 0.29030 0.18680 -0.34500
N 	N 	0.73570 0.31370 0.40880 -0.21000
H 	H 	0.67790 0.31790 0.33970 0.12200
C 	C 	0.83580 0.30630 0.36120 0.25800
O 	O 	0.36660 0.79030 0.18680 -0.34500
N 	N 	0.23570 0.81370 0.40880 -0.21000
H 	H 	0.17790 0.81790 0.33970 0.12200
C 	C 	0.33580 0.80630 0.36120 0.25800
O 	O 	0.13340 0.70970 0.18680 -0.34500
N 	N 	0.26430 0.68630 0.40880 -0.21000
H 	H 	0.32210 0.68210 0.33970 0.12200
C 	C 	0.16420 0.69370 0.36120 0.25800
O 	O 	0.63340 0.20970 0.18680 -0.34500
N 	N 	0.76430 0.18630 0.40880 -0.21000
H 	H 	0.82210 0.18210 0.33970 0.12200
C 	C 	0.66420 0.19370 0.36120 0.25800
O 	O 	0.13340 0.70970 0.81320 -0.31200
N 	N 	0.26430 0.68630 0.59120 -0.21200
H 	H 	0.32210 0.68210 0.66030 0.13100
C 	C 	0.16420 0.69370 0.63880 0.26000
O 	O 	0.63340 0.20970 0.81320 -0.31200
N 	N 	0.76430 0.18630 0.59120 -0.21200
H 	H 	0.82210 0.18210 0.66030 0.13100
C 	C 	0.66420 0.19370 0.63880 0.26000
O 	O 	0.86660 0.29030 0.81320 -0.31200
N 	N 	0.73570 0.31370 0.59120 -0.21200
H 	H 	0.67790 0.31790 0.66030 0.13100
C 	C 	0.83580 0.30630 0.63880 0.26000
O 	O 	0.36660 0.79030 0.81320 -0.31200
N 	N 	0.23570 0.81370 0.59120 -0.21200
H 	H 	0.17790 0.81790 0.66030 0.13100
C 	C 	0.33580 0.80630 0.63880 0.26000
Co	Co	0.75000 0.25000 -0.00000 1.14800
Co	Co	0.25000 0.75000 -0.00000 1.14800
N 	N 	0.84480 0.15550 -0.00000 -0.23900
C 	C 	0.96660 0.03260 -0.00000 0.05800
C 	C 	0.01920 0.09530 -0.00000 -0.14300
H 	H 	0.09770 0.09750 -0.00000 0.07500
C 	C 	0.79450 0.09580 -0.00000 0.07800
H 	H 	0.71600 0.09480 -0.00000 0.00000
C 	C 	0.95740 0.15440 -0.00000 0.06900
H 	H 	0.99590 0.19590 -0.00000 0.00500
C 	C 	0.85190 0.03480 -0.00000 -0.14500
H 	H 	0.81130 0.99400 -0.00000 0.07800
N 	N 	0.34480 0.65550 -0.00000 -0.23900
C 	C 	0.46660 0.53260 -0.00000 0.05700
C 	C 	0.51920 0.59530 -0.00000 -0.14300
H 	H 	0.59770 0.59750 -0.00000 0.07500
C 	C 	0.29450 0.59580 -0.00000 0.07800
H 	H 	0.21600 0.59480 -0.00000 0.00000
C 	C 	0.45740 0.65440 -0.00000 0.06900
H 	H 	0.49590 0.69590 -0.00000 0.00600
C 	C 	0.35190 0.53480 -0.00000 -0.14500
H 	H 	0.31130 0.49400 -0.00000 0.07800
N 	N 	0.15520 0.84450 -0.00000 -0.23900
C 	C 	0.03340 0.96740 -0.00000 0.05800
C 	C 	0.98080 0.90470 -0.00000 -0.14300
H 	H 	0.90230 0.90250 -0.00000 0.07500
C 	C 	0.20550 0.90420 -0.00000 0.07800
H 	H 	0.28400 0.90520 -0.00000 0.00000
C 	C 	0.04260 0.84560 -0.00000 0.06900
H 	H 	0.00410 0.80410 -0.00000 0.00500
C 	C 	0.14810 0.96520 -0.00000 -0.14500
H 	H 	0.18870 0.00600 -0.00000 0.07800
N 	N 	0.65520 0.34450 -0.00000 -0.23900
C 	C 	0.53340 0.46740 -0.00000 0.05700
C 	C 	0.48080 0.40470 -0.00000 -0.14300
H 	H 	0.40230 0.40250 -0.00000 0.07500
C 	C 	0.70550 0.40420 -0.00000 0.07800
H 	H 	0.78400 0.40520 -0.00000 0.00000
C 	C 	0.54260 0.34560 -0.00000 0.06900
H 	H 	0.50410 0.30410 -0.00000 0.00600
C 	C 	0.64810 0.46520 -0.00000 -0.14500
H 	H 	0.68870 0.50600 -0.00000 0.07800
N 	N 	0.91310 0.31920 0.50000 -0.14100
N 	N 	0.41310 0.81920 0.50000 -0.14100
N 	N 	0.08690 0.68080 0.50000 -0.14100
N 	N 	0.58690 0.18080 0.50000 -0.14100
