data_crystal

_cell_length_a 6.74080
_cell_length_b 16.03130
_cell_length_c 6.24260
_cell_angle_alpha 90.00000
_cell_angle_beta  90.00000
_cell_angle_gamma 90.00000

_symmetry_space_group_name_	'P 1'
_symmetry_space_group_name_H-M	'P 1'

loop_
_symmetry_equiv_pos_as_xyz
  x,y,z

loop_
_atom_site_label
_atom_site_type_symbol
_atom_site_fract_x
_atom_site_fract_y
_atom_site_fract_z
_atom_site_charge
Cd	Cd	0.52130 0.42610 0.06570 0.57300
O 	O 	0.17690 0.42030 0.13500 -0.24900
O 	O 	0.53430 0.44470 0.43780 -0.17300
O 	O 	0.44210 0.37720 0.73460 -0.22100
N 	N 	0.58190 0.29830 0.22570 -0.12400
C 	C 	0.11600 0.35210 0.23260 0.07300
O 	O 	0.83060 0.44410 0.90880 -0.45000
H 	H 	0.85240 0.40480 0.81780 0.24200
H 	H 	0.83480 0.49130 0.84340 0.16300
C 	C 	0.03600 0.35230 0.43990 -0.03800
H 	H 	0.01270 0.40260 0.50960 0.02600
C 	C 	0.99180 0.27800 0.54070 -0.02300
H 	H 	0.94240 0.27790 0.67980 0.03300
C 	C 	0.62680 0.22690 0.12920 -0.13300
H 	H 	0.66730 0.22860 0.98680 0.14400
C 	C 	0.52210 0.29690 0.43160 -0.00700
Cd	Cd	0.47870 0.57390 0.06570 0.57200
O 	O 	0.82310 0.57970 0.13500 -0.25000
O 	O 	0.46570 0.55530 0.43780 -0.17300
O 	O 	0.55790 0.62280 0.73460 -0.22100
N 	N 	0.41810 0.70170 0.22570 -0.12400
C 	C 	0.88400 0.64790 0.23260 0.07300
O 	O 	0.16940 0.55590 0.90880 -0.45000
H 	H 	0.14760 0.59520 0.81780 0.24200
H 	H 	0.16520 0.50870 0.84340 0.16300
C 	C 	0.96400 0.64770 0.43990 -0.03800
H 	H 	0.98730 0.59740 0.50960 0.02600
C 	C 	0.00820 0.72200 0.54070 -0.02300
H 	H 	0.05760 0.72210 0.67980 0.03300
C 	C 	0.37320 0.77310 0.12920 -0.13300
H 	H 	0.33270 0.77140 0.98680 0.14400
C 	C 	0.47790 0.70310 0.43160 -0.00700
Cd	Cd	0.52130 0.57390 0.06570 0.57200
O 	O 	0.17690 0.57970 0.13500 -0.25000
O 	O 	0.53430 0.55530 0.43780 -0.17300
O 	O 	0.44210 0.62280 0.73460 -0.22100
N 	N 	0.58190 0.70170 0.22570 -0.12400
C 	C 	0.11600 0.64790 0.23260 0.07300
O 	O 	0.83060 0.55590 0.90880 -0.45000
H 	H 	0.85240 0.59520 0.81780 0.24200
H 	H 	0.83480 0.50870 0.84340 0.16300
C 	C 	0.03600 0.64770 0.43990 -0.03800
H 	H 	0.01270 0.59740 0.50960 0.02600
C 	C 	0.99180 0.72200 0.54070 -0.02300
H 	H 	0.94240 0.72210 0.67980 0.03300
C 	C 	0.62680 0.77310 0.12920 -0.13300
H 	H 	0.66730 0.77140 0.98680 0.14400
C 	C 	0.52210 0.70310 0.43160 -0.00700
Cd	Cd	0.47870 0.42610 0.06570 0.57200
O 	O 	0.82310 0.42030 0.13500 -0.25000
O 	O 	0.46570 0.44470 0.43780 -0.17300
O 	O 	0.55790 0.37720 0.73460 -0.22100
N 	N 	0.41810 0.29830 0.22570 -0.12400
C 	C 	0.88400 0.35210 0.23260 0.07300
O 	O 	0.16940 0.44410 0.90880 -0.45000
H 	H 	0.14760 0.40480 0.81780 0.24200
H 	H 	0.16520 0.49130 0.84340 0.16300
C 	C 	0.96400 0.35230 0.43990 -0.03800
H 	H 	0.98730 0.40260 0.50960 0.02600
C 	C 	0.00820 0.27800 0.54070 -0.02300
H 	H 	0.05760 0.27790 0.67980 0.03300
C 	C 	0.37320 0.22690 0.12920 -0.13300
H 	H 	0.33270 0.22860 0.98680 0.14400
C 	C 	0.47790 0.29690 0.43160 -0.00700
C 	C 	0.50000 0.37800 0.54530 0.33100
C 	C 	0.50000 0.62200 0.54530 0.33100
