data_crystal

_cell_length_a 14.05410
_cell_length_b 12.98610
_cell_length_c 18.19850
_cell_angle_alpha 90.00000
_cell_angle_beta  110.13400
_cell_angle_gamma 90.00000

_symmetry_space_group_name_	'P 1'
_symmetry_space_group_name_H-M	'P 1'

loop_
_symmetry_equiv_pos_as_xyz
  x,y,z

loop_
_atom_site_label
_atom_site_type_symbol
_atom_site_fract_x
_atom_site_fract_y
_atom_site_fract_z
_atom_site_charge
C 	C 	0.25920 0.28330 0.46990 0.35100
C 	C 	0.18720 0.29590 0.51350 -0.10000
C 	C 	0.09240 0.24980 0.48860 0.15800
C 	C 	0.02610 0.26700 0.52940 -0.01000
C 	C 	0.05420 0.32910 0.59580 0.18100
C 	C 	0.15000 0.37440 0.62130 0.01900
C 	C 	0.21470 0.35710 0.57990 0.07700
C 	C 	0.98230 0.33870 0.64370 -0.38100
C 	C 	0.01240 0.25370 0.70680 0.96800
C 	C 	0.99120 0.44500 0.68390 0.96700
C 	C 	0.86970 0.32820 0.58870 0.16600
C 	C 	0.83350 0.39620 0.52630 0.00600
C 	C 	0.73270 0.39290 0.47750 0.08300
C 	C 	0.66740 0.31790 0.48860 -0.10600
C 	C 	0.70400 0.24880 0.54830 0.07300
C 	C 	0.80370 0.25320 0.60010 0.03300
C 	C 	0.55800 0.31740 0.43390 0.35200
C 	C 	0.30830 0.36620 0.22380 0.06800
C 	C 	0.31320 0.46530 0.20230 0.08000
C 	C 	0.31280 0.46040 0.32360 0.18200
C 	C 	0.32830 0.63460 0.27240 0.05500
C 	C 	0.25620 0.69640 0.21790 0.06400
C 	C 	0.26830 0.80290 0.22140 0.05300
C 	C 	0.35190 0.84340 0.27990 0.04900
C 	C 	0.42570 0.78420 0.33400 0.04100
C 	C 	0.41340 0.67470 0.33090 0.03600
C 	C 	0.32970 0.02190 0.32450 0.18100
C 	C 	0.42160 0.00840 0.24810 0.07800
C 	C 	0.41760 0.10810 0.26740 0.02400
F 	F 	0.11150 0.26060 0.74890 -0.47900
F 	F 	0.99780 0.16050 0.67490 -0.45200
F 	F 	0.96280 0.26000 0.75670 -0.44500
F 	F 	0.99100 0.52160 0.63690 -0.48200
F 	F 	0.07520 0.45470 0.74760 -0.43100
F 	F 	0.91460 0.46190 0.70980 -0.44700
N 	N 	0.30760 0.36350 0.29980 -0.23600
N 	N 	0.31590 0.52490 0.26680 -0.11800
N 	N 	0.48470 0.61470 0.38500 -0.06700
N 	N 	0.51210 0.82410 0.38930 -0.08200
N 	N 	0.36550 0.95450 0.28350 -0.12800
N 	N 	0.35940 0.11670 0.31590 -0.24300
O 	O 	0.24790 0.20830 0.42410 -0.34500
O 	O 	0.32790 0.34690 0.47860 -0.31700
O 	O 	0.50230 0.24310 0.44140 -0.41800
O 	O 	0.52800 0.38740 0.38630 -0.28300
Zn	Zn	0.35517 0.24742 0.37617 1.22300
C 	C 	0.74080 0.78330 0.03010 0.35400
C 	C 	0.81280 0.79590 0.98650 -0.10500
C 	C 	0.90760 0.74980 0.01140 0.16400
C 	C 	0.97390 0.76700 0.97060 -0.01200
C 	C 	0.94580 0.82910 0.90420 0.18000
C 	C 	0.85000 0.87440 0.87870 0.01800
C 	C 	0.78530 0.85710 0.92010 0.07800
C 	C 	0.01770 0.83870 0.85630 -0.37900
C 	C 	0.98760 0.75370 0.79320 0.96500
C 	C 	0.00880 0.94500 0.81610 0.97200
C 	C 	0.13030 0.82820 0.91130 0.16600
C 	C 	0.16650 0.89620 0.97370 0.00700
C 	C 	0.26730 0.89290 0.02250 0.08400
C 	C 	0.33260 0.81790 0.01140 -0.10500
C 	C 	0.29600 0.74880 0.95170 0.07300
C 	C 	0.19630 0.75320 0.89990 0.03300
C 	C 	0.44200 0.81740 0.06610 0.35200
C 	C 	0.69170 0.86620 0.27620 0.06900
C 	C 	0.68680 0.96530 0.29770 0.07900
C 	C 	0.68720 0.96040 0.17640 0.18100
C 	C 	0.67170 0.13460 0.22760 0.05500
C 	C 	0.74380 0.19640 0.28210 0.06400
C 	C 	0.73170 0.30290 0.27860 0.05200
C 	C 	0.64810 0.34340 0.22010 0.04900
C 	C 	0.57430 0.28420 0.16600 0.04000
C 	C 	0.58660 0.17470 0.16910 0.03600
C 	C 	0.67030 0.52190 0.17550 0.18200
C 	C 	0.57840 0.50840 0.25190 0.07900
C 	C 	0.58240 0.60810 0.23260 0.02400
F 	F 	0.88850 0.76060 0.75110 -0.47900
F 	F 	0.00220 0.66050 0.82510 -0.45200
F 	F 	0.03720 0.76000 0.74330 -0.44400
F 	F 	0.00900 0.02160 0.86310 -0.48300
F 	F 	0.92480 0.95470 0.75240 -0.43400
F 	F 	0.08540 0.96190 0.79020 -0.44600
N 	N 	0.69240 0.86350 0.20020 -0.23600
N 	N 	0.68410 0.02490 0.23320 -0.11800
N 	N 	0.51530 0.11470 0.11500 -0.06700
N 	N 	0.48790 0.32410 0.11070 -0.08200
N 	N 	0.63450 0.45450 0.21650 -0.12900
N 	N 	0.64060 0.61670 0.18410 -0.24300
O 	O 	0.75210 0.70830 0.07590 -0.34500
O 	O 	0.67210 0.84690 0.02140 -0.31700
O 	O 	0.49770 0.74310 0.05860 -0.41800
O 	O 	0.47200 0.88740 0.11370 -0.28300
Zn	Zn	0.64483 0.74742 0.12383 1.22300
C 	C 	0.74080 0.71670 0.53010 0.35100
C 	C 	0.81280 0.70410 0.48650 -0.10000
C 	C 	0.90760 0.75020 0.51140 0.15800
C 	C 	0.97390 0.73300 0.47060 -0.01000
C 	C 	0.94580 0.67090 0.40420 0.18100
C 	C 	0.85000 0.62560 0.37870 0.01900
C 	C 	0.78530 0.64290 0.42010 0.07700
C 	C 	0.01770 0.66130 0.35630 -0.38100
C 	C 	0.98760 0.74630 0.29320 0.96800
C 	C 	0.00880 0.55500 0.31610 0.96700
C 	C 	0.13030 0.67180 0.41130 0.16600
C 	C 	0.16650 0.60380 0.47370 0.00600
C 	C 	0.26730 0.60710 0.52250 0.08300
C 	C 	0.33260 0.68210 0.51140 -0.10600
C 	C 	0.29600 0.75120 0.45170 0.07300
C 	C 	0.19630 0.74680 0.39990 0.03300
C 	C 	0.44200 0.68260 0.56610 0.35200
C 	C 	0.69170 0.63380 0.77620 0.06800
C 	C 	0.68680 0.53470 0.79770 0.08000
C 	C 	0.68720 0.53960 0.67640 0.18200
C 	C 	0.67170 0.36540 0.72760 0.05500
C 	C 	0.74380 0.30360 0.78210 0.06400
C 	C 	0.73170 0.19710 0.77860 0.05300
C 	C 	0.64810 0.15660 0.72010 0.04900
C 	C 	0.57430 0.21580 0.66600 0.04100
C 	C 	0.58660 0.32530 0.66910 0.03600
C 	C 	0.67030 0.97810 0.67550 0.18100
C 	C 	0.57840 0.99160 0.75190 0.07800
C 	C 	0.58240 0.89190 0.73260 0.02400
F 	F 	0.88850 0.73940 0.25110 -0.47900
F 	F 	0.00220 0.83950 0.32510 -0.45200
F 	F 	0.03720 0.74000 0.24330 -0.44500
F 	F 	0.00900 0.47840 0.36310 -0.48200
F 	F 	0.92480 0.54530 0.25240 -0.43100
F 	F 	0.08540 0.53810 0.29020 -0.44700
N 	N 	0.69240 0.63650 0.70020 -0.23600
N 	N 	0.68410 0.47510 0.73320 -0.11800
N 	N 	0.51530 0.38530 0.61500 -0.06700
N 	N 	0.48790 0.17590 0.61070 -0.08200
N 	N 	0.63450 0.04550 0.71650 -0.12800
N 	N 	0.64060 0.88330 0.68410 -0.24300
O 	O 	0.75210 0.79170 0.57590 -0.34500
O 	O 	0.67210 0.65310 0.52140 -0.31700
O 	O 	0.49770 0.75690 0.55860 -0.41800
O 	O 	0.47200 0.61260 0.61370 -0.28300
Zn	Zn	0.64483 0.75258 0.62383 1.22300
C 	C 	0.25920 0.21670 0.96990 0.35400
C 	C 	0.18720 0.20410 0.01350 -0.10500
C 	C 	0.09240 0.25020 0.98860 0.16400
C 	C 	0.02610 0.23300 0.02940 -0.01200
C 	C 	0.05420 0.17090 0.09580 0.18000
C 	C 	0.15000 0.12560 0.12130 0.01800
C 	C 	0.21470 0.14290 0.07990 0.07800
C 	C 	0.98230 0.16130 0.14370 -0.37900
C 	C 	0.01240 0.24630 0.20680 0.96500
C 	C 	0.99120 0.05500 0.18390 0.97200
C 	C 	0.86970 0.17180 0.08870 0.16600
C 	C 	0.83350 0.10380 0.02630 0.00700
C 	C 	0.73270 0.10710 0.97750 0.08400
C 	C 	0.66740 0.18210 0.98860 -0.10500
C 	C 	0.70400 0.25120 0.04830 0.07300
C 	C 	0.80370 0.24680 0.10010 0.03300
C 	C 	0.55800 0.18260 0.93390 0.35200
C 	C 	0.30830 0.13380 0.72380 0.06900
C 	C 	0.31320 0.03470 0.70230 0.07900
C 	C 	0.31280 0.03960 0.82360 0.18100
C 	C 	0.32830 0.86540 0.77240 0.05500
C 	C 	0.25620 0.80360 0.71790 0.06400
C 	C 	0.26830 0.69710 0.72140 0.05200
C 	C 	0.35190 0.65660 0.77990 0.04900
C 	C 	0.42570 0.71580 0.83400 0.04000
C 	C 	0.41340 0.82530 0.83090 0.03600
C 	C 	0.32970 0.47810 0.82450 0.18200
C 	C 	0.42160 0.49160 0.74810 0.07900
C 	C 	0.41760 0.39190 0.76740 0.02400
F 	F 	0.11150 0.23940 0.24890 -0.47900
F 	F 	0.99780 0.33950 0.17490 -0.45200
F 	F 	0.96280 0.24000 0.25670 -0.44400
F 	F 	0.99100 0.97840 0.13690 -0.48300
F 	F 	0.07520 0.04530 0.24760 -0.43400
F 	F 	0.91460 0.03810 0.20980 -0.44600
N 	N 	0.30760 0.13650 0.79980 -0.23600
N 	N 	0.31590 0.97510 0.76680 -0.11800
N 	N 	0.48470 0.88530 0.88500 -0.06700
N 	N 	0.51210 0.67590 0.88930 -0.08200
N 	N 	0.36550 0.54550 0.78350 -0.12900
N 	N 	0.35940 0.38330 0.81590 -0.24300
O 	O 	0.24790 0.29170 0.92410 -0.34500
O 	O 	0.32790 0.15310 0.97860 -0.31700
O 	O 	0.50230 0.25690 0.94140 -0.41800
O 	O 	0.52800 0.11260 0.88630 -0.28300
Zn	Zn	0.35517 0.25258 0.87617 1.22300
