data_crystal

_cell_length_a 7.26120
_cell_length_b 35.24000
_cell_length_c 43.53900
_cell_angle_alpha 90.00000
_cell_angle_beta  90.00000
_cell_angle_gamma 90.00000

_symmetry_space_group_name_	'P 1'
_symmetry_space_group_name_H-M	'P 1'

loop_
_symmetry_equiv_pos_as_xyz
  x,y,z

loop_
_atom_site_label
_atom_site_type_symbol
_atom_site_fract_x
_atom_site_fract_y
_atom_site_fract_z
_atom_site_charge
C 	C 	0.57670 0.19100 0.18610 0.00300
C 	C 	0.57730 0.15600 0.20220 0.02900
C 	C 	0.42610 0.12630 0.16000 0.02200
C 	C 	0.42920 0.16050 0.14450 0.00100
N 	N 	0.40940 0.03995 0.23061 -0.16100
N 	N 	0.34800 0.07010 0.21531 -0.09700
C 	C 	0.07670 0.19100 0.68610 0.00400
C 	C 	0.07730 0.15600 0.70220 0.03000
C 	C 	0.92610 0.12630 0.66000 0.02100
C 	C 	0.92920 0.16050 0.64450 0.00000
N 	N 	0.90940 0.03995 0.73061 -0.16100
N 	N 	0.84800 0.07010 0.71531 -0.09700
C 	C 	0.42330 0.80900 0.18610 0.00400
C 	C 	0.42270 0.84400 0.20220 0.03000
C 	C 	0.57390 0.87370 0.16000 0.02300
C 	C 	0.57080 0.83950 0.14450 0.00100
N 	N 	0.59060 0.96005 0.23061 -0.15700
N 	N 	0.65200 0.92990 0.21531 -0.09600
C 	C 	0.92330 0.80900 0.68610 0.00200
C 	C 	0.92270 0.84400 0.70220 0.02800
C 	C 	0.07390 0.87370 0.66000 0.02300
C 	C 	0.07080 0.83950 0.64450 0.00100
N 	N 	0.09060 0.96005 0.73061 -0.15600
N 	N 	0.15200 0.92990 0.71531 -0.09600
C 	C 	0.42330 0.19100 0.81390 0.00300
C 	C 	0.42270 0.15600 0.79780 0.02800
C 	C 	0.57390 0.12630 0.84000 0.02100
C 	C 	0.57080 0.16050 0.85550 -0.00000
N 	N 	0.59060 0.03995 0.76939 -0.16200
N 	N 	0.65200 0.07010 0.78469 -0.09800
C 	C 	0.92330 0.19100 0.31390 0.00200
C 	C 	0.92270 0.15600 0.29780 0.02800
C 	C 	0.07390 0.12630 0.34000 0.02100
C 	C 	0.07080 0.16050 0.35550 0.00000
N 	N 	0.09060 0.03995 0.26939 -0.16200
N 	N 	0.15200 0.07010 0.28469 -0.09800
C 	C 	0.57670 0.80900 0.81390 0.00200
C 	C 	0.57730 0.84400 0.79780 0.02900
C 	C 	0.42610 0.87370 0.84000 0.02300
C 	C 	0.42920 0.83950 0.85550 0.00000
N 	N 	0.40940 0.96005 0.76939 -0.15700
N 	N 	0.34800 0.92990 0.78469 -0.09600
C 	C 	0.07670 0.80900 0.31390 0.00300
C 	C 	0.07730 0.84400 0.29780 0.02900
C 	C 	0.92610 0.87370 0.34000 0.02200
C 	C 	0.92920 0.83950 0.35550 -0.00100
N 	N 	0.90940 0.96005 0.26939 -0.15700
N 	N 	0.84800 0.92990 0.28469 -0.09600
C 	C 	0.42330 0.80900 0.81390 0.00300
C 	C 	0.42270 0.84400 0.79780 0.02900
C 	C 	0.57390 0.87370 0.84000 0.02300
C 	C 	0.57080 0.83950 0.85550 0.00000
N 	N 	0.59060 0.96005 0.76939 -0.15700
N 	N 	0.65200 0.92990 0.78469 -0.09600
C 	C 	0.92330 0.80900 0.31390 0.00200
C 	C 	0.92270 0.84400 0.29780 0.02800
C 	C 	0.07390 0.87370 0.34000 0.02300
C 	C 	0.07080 0.83950 0.35550 0.00100
N 	N 	0.09060 0.96005 0.26939 -0.15600
N 	N 	0.15200 0.92990 0.28469 -0.09600
C 	C 	0.57670 0.19100 0.81390 0.00200
C 	C 	0.57730 0.15600 0.79780 0.02800
C 	C 	0.42610 0.12630 0.84000 0.02100
C 	C 	0.42920 0.16050 0.85550 0.00000
N 	N 	0.40940 0.03995 0.76939 -0.16200
N 	N 	0.34800 0.07010 0.78469 -0.09800
C 	C 	0.07670 0.19100 0.31390 0.00300
C 	C 	0.07730 0.15600 0.29780 0.02900
C 	C 	0.92610 0.12630 0.34000 0.02000
C 	C 	0.92920 0.16050 0.35550 -0.00100
N 	N 	0.90940 0.03995 0.26939 -0.16200
N 	N 	0.84800 0.07010 0.28469 -0.09800
C 	C 	0.57670 0.80900 0.18610 0.00200
C 	C 	0.57730 0.84400 0.20220 0.02900
C 	C 	0.42610 0.87370 0.16000 0.02300
C 	C 	0.42920 0.83950 0.14450 0.00000
N 	N 	0.40940 0.96005 0.23061 -0.15700
N 	N 	0.34800 0.92990 0.21531 -0.09600
C 	C 	0.07670 0.80900 0.68610 0.00300
C 	C 	0.07730 0.84400 0.70220 0.02900
C 	C 	0.92610 0.87370 0.66000 0.02200
C 	C 	0.92920 0.83950 0.64450 -0.00100
N 	N 	0.90940 0.96005 0.73061 -0.15700
N 	N 	0.84800 0.92990 0.71531 -0.09600
C 	C 	0.42330 0.19100 0.18610 0.00300
C 	C 	0.42270 0.15600 0.20220 0.02800
C 	C 	0.57390 0.12630 0.16000 0.02000
C 	C 	0.57080 0.16050 0.14450 -0.00000
N 	N 	0.59060 0.03995 0.23061 -0.16200
N 	N 	0.65200 0.07010 0.21531 -0.09800
C 	C 	0.92330 0.19100 0.68610 0.00200
C 	C 	0.92270 0.15600 0.70220 0.02800
C 	C 	0.07390 0.12630 0.66000 0.02100
C 	C 	0.07080 0.16050 0.64450 0.00000
N 	N 	0.09060 0.03995 0.73061 -0.16200
N 	N 	0.15200 0.07010 0.71531 -0.09800
Cu	Cu	0.50000 0.29941 -0.00000 0.85800
Cu	Cu	0.00000 0.29941 0.50000 0.85900
Cu	Cu	0.50000 0.70059 -0.00000 0.85800
Cu	Cu	0.00000 0.70059 0.50000 0.85900
Cu	Cu	0.25000 -0.00000 0.25000 0.83900
Cu	Cu	0.75000 -0.00000 0.25000 0.83900
Cu	Cu	0.75000 -0.00000 0.75000 0.83900
Cu	Cu	0.25000 -0.00000 0.75000 0.83900
C 	C 	0.50000 0.26500 0.05771 0.31600
C 	C 	0.50000 0.33462 0.15686 0.28500
C 	C 	0.50000 0.26507 0.09175 -0.05600
C 	C 	0.50000 0.29909 0.10803 -0.00500
H 	H 	0.50000 0.32210 0.09750 0.06000
C 	C 	0.50000 0.29877 0.13993 -0.04700
C 	C 	0.50000 0.26439 0.15538 -0.05300
H 	H 	0.50000 0.26440 0.17670 0.07500
C 	C 	0.50000 0.22960 0.13974 0.03800
C 	C 	0.50000 0.23077 0.10790 -0.04700
H 	H 	0.50000 0.20810 0.09700 0.06800
C 	C 	0.50000 0.19314 0.15643 -0.01300
C 	C 	0.50000 0.12423 0.18953 -0.05500
C 	C 	0.50000 0.08809 0.20640 0.14900
O 	O 	0.50000 0.29722 0.04451 -0.41400
O 	O 	0.50000 0.23383 0.04358 -0.30400
O 	O 	0.50000 0.36503 0.14394 -0.23300
O 	O 	0.50000 0.33151 0.18668 -0.21100
C 	C 	-0.00000 0.26500 0.55771 0.31500
C 	C 	-0.00000 0.33462 0.65686 0.28500
C 	C 	-0.00000 0.26507 0.59175 -0.05500
C 	C 	-0.00000 0.29909 0.60803 -0.00600
H 	H 	0.00000 0.32210 0.59750 0.06100
C 	C 	-0.00000 0.29877 0.63993 -0.04700
C 	C 	-0.00000 0.26439 0.65538 -0.05300
H 	H 	-0.00000 0.26440 0.67670 0.07500
C 	C 	-0.00000 0.22960 0.63974 0.03800
C 	C 	-0.00000 0.23077 0.60790 -0.04800
H 	H 	-0.00000 0.20810 0.59700 0.06800
C 	C 	0.00000 0.19314 0.65643 -0.01200
C 	C 	-0.00000 0.12423 0.68953 -0.05500
C 	C 	-0.00000 0.08809 0.70640 0.14900
O 	O 	-0.00000 0.29722 0.54451 -0.41300
O 	O 	-0.00000 0.23383 0.54358 -0.30300
O 	O 	-0.00000 0.36503 0.64394 -0.23200
O 	O 	-0.00000 0.33151 0.68668 -0.21000
C 	C 	0.50000 0.73500 0.05771 0.31500
C 	C 	0.50000 0.66538 0.15686 0.28500
C 	C 	0.50000 0.73493 0.09175 -0.05500
C 	C 	0.50000 0.70091 0.10803 -0.00600
H 	H 	0.50000 0.67790 0.09750 0.06000
C 	C 	0.50000 0.70123 0.13993 -0.04700
C 	C 	0.50000 0.73561 0.15538 -0.05300
H 	H 	0.50000 0.73560 0.17670 0.07500
C 	C 	0.50000 0.77040 0.13974 0.03800
C 	C 	0.50000 0.76923 0.10790 -0.04800
H 	H 	0.50000 0.79190 0.09700 0.06900
C 	C 	0.50000 0.80686 0.15643 -0.01300
C 	C 	0.50000 0.87577 0.18953 -0.05600
C 	C 	0.50000 0.91191 0.20640 0.15100
O 	O 	0.50000 0.70278 0.04451 -0.41300
O 	O 	0.50000 0.76617 0.04358 -0.30300
O 	O 	0.50000 0.63497 0.14394 -0.23300
O 	O 	0.50000 0.66849 0.18668 -0.21100
C 	C 	-0.00000 0.73500 0.55771 0.31500
C 	C 	0.00000 0.66538 0.65686 0.28500
C 	C 	-0.00000 0.73493 0.59175 -0.05500
C 	C 	-0.00000 0.70091 0.60803 -0.00600
H 	H 	0.00000 0.67790 0.59750 0.06100
C 	C 	-0.00000 0.70123 0.63993 -0.04700
C 	C 	0.00000 0.73561 0.65538 -0.05300
H 	H 	-0.00000 0.73560 0.67670 0.07500
C 	C 	-0.00000 0.77040 0.63974 0.03800
C 	C 	-0.00000 0.76923 0.60790 -0.04800
H 	H 	0.00000 0.79190 0.59700 0.06900
C 	C 	0.00000 0.80686 0.65643 -0.01300
C 	C 	-0.00000 0.87577 0.68953 -0.05500
C 	C 	0.00000 0.91191 0.70640 0.15100
O 	O 	0.00000 0.70278 0.54451 -0.41300
O 	O 	-0.00000 0.76617 0.54358 -0.30200
O 	O 	-0.00000 0.63497 0.64394 -0.23200
O 	O 	-0.00000 0.66849 0.68668 -0.21000
C 	C 	0.50000 0.26500 0.94229 0.31500
C 	C 	0.50000 0.33462 0.84314 0.28500
C 	C 	0.50000 0.26507 0.90825 -0.05500
C 	C 	0.50000 0.29909 0.89197 -0.00600
H 	H 	0.50000 0.32210 0.90250 0.06100
C 	C 	0.50000 0.29877 0.86007 -0.04700
C 	C 	0.50000 0.26439 0.84462 -0.05300
H 	H 	0.50000 0.26440 0.82330 0.07500
C 	C 	0.50000 0.22960 0.86026 0.03800
C 	C 	0.50000 0.23077 0.89210 -0.04800
H 	H 	0.50000 0.20810 0.90300 0.06800
C 	C 	0.50000 0.19314 0.84357 -0.01300
C 	C 	0.50000 0.12423 0.81047 -0.05500
C 	C 	0.50000 0.08809 0.79360 0.14900
O 	O 	0.50000 0.29722 0.95549 -0.41100
O 	O 	0.50000 0.23383 0.95642 -0.30200
O 	O 	0.50000 0.36503 0.85606 -0.23200
O 	O 	0.50000 0.33151 0.81332 -0.21100
C 	C 	0.00000 0.26500 0.44229 0.31500
C 	C 	-0.00000 0.33462 0.34314 0.28500
C 	C 	-0.00000 0.26507 0.40825 -0.05500
C 	C 	-0.00000 0.29909 0.39197 -0.00600
H 	H 	-0.00000 0.32210 0.40250 0.06100
C 	C 	-0.00000 0.29877 0.36007 -0.04700
C 	C 	0.00000 0.26439 0.34462 -0.05300
H 	H 	-0.00000 0.26440 0.32330 0.07500
C 	C 	0.00000 0.22960 0.36026 0.03800
C 	C 	-0.00000 0.23077 0.39210 -0.04800
H 	H 	-0.00000 0.20810 0.40300 0.06800
C 	C 	-0.00000 0.19314 0.34357 -0.01200
C 	C 	-0.00000 0.12423 0.31047 -0.05500
C 	C 	-0.00000 0.08809 0.29360 0.14900
O 	O 	0.00000 0.29722 0.45549 -0.41300
O 	O 	-0.00000 0.23383 0.45642 -0.30300
O 	O 	-0.00000 0.36503 0.35606 -0.23200
O 	O 	-0.00000 0.33151 0.31332 -0.21000
C 	C 	0.50000 0.73500 0.94229 0.31500
C 	C 	0.50000 0.66538 0.84314 0.28500
C 	C 	0.50000 0.73493 0.90825 -0.05400
C 	C 	0.50000 0.70091 0.89197 -0.00600
H 	H 	0.50000 0.67790 0.90250 0.06100
C 	C 	0.50000 0.70123 0.86007 -0.04700
C 	C 	0.50000 0.73561 0.84462 -0.05300
H 	H 	0.50000 0.73560 0.82330 0.07500
C 	C 	0.50000 0.77040 0.86026 0.03900
C 	C 	0.50000 0.76923 0.89210 -0.04900
H 	H 	0.50000 0.79190 0.90300 0.06900
C 	C 	0.50000 0.80686 0.84357 -0.01400
C 	C 	0.50000 0.87577 0.81047 -0.05600
C 	C 	0.50000 0.91191 0.79360 0.15100
O 	O 	0.50000 0.70278 0.95549 -0.41100
O 	O 	0.50000 0.76617 0.95642 -0.30100
O 	O 	0.50000 0.63497 0.85606 -0.23200
O 	O 	0.50000 0.66849 0.81332 -0.21100
C 	C 	-0.00000 0.73500 0.44229 0.31500
C 	C 	-0.00000 0.66538 0.34314 0.28500
C 	C 	0.00000 0.73493 0.40825 -0.05500
C 	C 	0.00000 0.70091 0.39197 -0.00600
H 	H 	-0.00000 0.67790 0.40250 0.06100
C 	C 	0.00000 0.70123 0.36007 -0.04700
C 	C 	0.00000 0.73561 0.34462 -0.05300
H 	H 	0.00000 0.73560 0.32330 0.07500
C 	C 	0.00000 0.77040 0.36026 0.03800
C 	C 	0.00000 0.76923 0.39210 -0.04800
H 	H 	0.00000 0.79190 0.40300 0.06900
C 	C 	0.00000 0.80686 0.34357 -0.01300
C 	C 	-0.00000 0.87577 0.31047 -0.05500
C 	C 	-0.00000 0.91191 0.29360 0.15100
O 	O 	-0.00000 0.70278 0.45549 -0.41200
O 	O 	-0.00000 0.76617 0.45642 -0.30200
O 	O 	-0.00000 0.63497 0.35606 -0.23200
O 	O 	-0.00000 0.66849 0.31332 -0.21000
C 	C 	0.57670 0.69100 0.68610 0.00200
C 	C 	0.57730 0.65600 0.70220 0.02800
C 	C 	0.42610 0.62630 0.66000 0.02200
C 	C 	0.42920 0.66050 0.64450 0.00000
N 	N 	0.40940 0.53995 0.73061 -0.16000
N 	N 	0.34800 0.57010 0.71531 -0.09700
C 	C 	0.07670 0.69100 0.18610 0.00300
C 	C 	0.07730 0.65600 0.20220 0.02900
C 	C 	0.92610 0.62630 0.16000 0.02100
C 	C 	0.92920 0.66050 0.14450 -0.00100
N 	N 	0.90940 0.53995 0.23061 -0.16100
N 	N 	0.84800 0.57010 0.21531 -0.09700
C 	C 	0.42330 0.30900 0.68610 0.00300
C 	C 	0.42270 0.34400 0.70220 0.02900
C 	C 	0.57390 0.37370 0.66000 0.02100
C 	C 	0.57080 0.33950 0.64450 -0.00000
N 	N 	0.59060 0.46005 0.73061 -0.16000
N 	N 	0.65200 0.42990 0.71531 -0.09700
C 	C 	0.92330 0.30900 0.18610 0.00200
C 	C 	0.92270 0.34400 0.20220 0.02800
C 	C 	0.07390 0.37370 0.16000 0.02200
C 	C 	0.07080 0.33950 0.14450 0.00100
N 	N 	0.09060 0.46005 0.23061 -0.16000
N 	N 	0.15200 0.42990 0.21531 -0.09700
C 	C 	0.42330 0.69100 0.31390 0.00300
C 	C 	0.42270 0.65600 0.29780 0.02900
C 	C 	0.57390 0.62630 0.34000 0.02100
C 	C 	0.57080 0.66050 0.35550 -0.00000
N 	N 	0.59060 0.53995 0.26939 -0.16000
N 	N 	0.65200 0.57010 0.28469 -0.09700
C 	C 	0.92330 0.69100 0.81390 0.00200
C 	C 	0.92270 0.65600 0.79780 0.02800
C 	C 	0.07390 0.62630 0.84000 0.02200
C 	C 	0.07080 0.66050 0.85550 0.00100
N 	N 	0.09060 0.53995 0.76939 -0.16000
N 	N 	0.15200 0.57010 0.78469 -0.09700
C 	C 	0.57670 0.30900 0.31390 0.00200
C 	C 	0.57730 0.34400 0.29780 0.02800
C 	C 	0.42610 0.37370 0.34000 0.02200
C 	C 	0.42920 0.33950 0.35550 0.00000
N 	N 	0.40940 0.46005 0.26939 -0.16000
N 	N 	0.34800 0.42990 0.28469 -0.09700
C 	C 	0.07670 0.30900 0.81390 0.00300
C 	C 	0.07730 0.34400 0.79780 0.02900
C 	C 	0.92610 0.37370 0.84000 0.02100
C 	C 	0.92920 0.33950 0.85550 -0.00100
N 	N 	0.90940 0.46005 0.76939 -0.16100
N 	N 	0.84800 0.42990 0.78469 -0.09700
C 	C 	0.42330 0.30900 0.31390 0.00300
C 	C 	0.42270 0.34400 0.29780 0.02900
C 	C 	0.57390 0.37370 0.34000 0.02100
C 	C 	0.57080 0.33950 0.35550 -0.00000
N 	N 	0.59060 0.46005 0.26939 -0.16000
N 	N 	0.65200 0.42990 0.28469 -0.09700
C 	C 	0.92330 0.30900 0.81390 0.00200
C 	C 	0.92270 0.34400 0.79780 0.02800
C 	C 	0.07390 0.37370 0.84000 0.02200
C 	C 	0.07080 0.33950 0.85550 0.00100
N 	N 	0.09060 0.46005 0.76939 -0.16000
N 	N 	0.15200 0.42990 0.78469 -0.09700
C 	C 	0.57670 0.69100 0.31390 0.00200
C 	C 	0.57730 0.65600 0.29780 0.02800
C 	C 	0.42610 0.62630 0.34000 0.02200
C 	C 	0.42920 0.66050 0.35550 0.00000
N 	N 	0.40940 0.53995 0.26939 -0.16000
N 	N 	0.34800 0.57010 0.28469 -0.09700
C 	C 	0.07670 0.69100 0.81390 0.00300
C 	C 	0.07730 0.65600 0.79780 0.02900
C 	C 	0.92610 0.62630 0.84000 0.02100
C 	C 	0.92920 0.66050 0.85550 -0.00100
N 	N 	0.90940 0.53995 0.76939 -0.16100
N 	N 	0.84800 0.57010 0.78469 -0.09700
C 	C 	0.57670 0.30900 0.68610 0.00200
C 	C 	0.57730 0.34400 0.70220 0.02800
C 	C 	0.42610 0.37370 0.66000 0.02200
C 	C 	0.42920 0.33950 0.64450 0.00000
N 	N 	0.40940 0.46005 0.73061 -0.16000
N 	N 	0.34800 0.42990 0.71531 -0.09700
C 	C 	0.07670 0.30900 0.18610 0.00300
C 	C 	0.07730 0.34400 0.20220 0.02900
C 	C 	0.92610 0.37370 0.16000 0.02100
C 	C 	0.92920 0.33950 0.14450 -0.00100
N 	N 	0.90940 0.46005 0.23061 -0.16100
N 	N 	0.84800 0.42990 0.21531 -0.09700
C 	C 	0.42330 0.69100 0.68610 0.00300
C 	C 	0.42270 0.65600 0.70220 0.02900
C 	C 	0.57390 0.62630 0.66000 0.02100
C 	C 	0.57080 0.66050 0.64450 -0.00000
N 	N 	0.59060 0.53995 0.73061 -0.16000
N 	N 	0.65200 0.57010 0.71531 -0.09700
C 	C 	0.92330 0.69100 0.18610 0.00200
C 	C 	0.92270 0.65600 0.20220 0.02800
C 	C 	0.07390 0.62630 0.16000 0.02200
C 	C 	0.07080 0.66050 0.14450 0.00000
N 	N 	0.09060 0.53995 0.23061 -0.16000
N 	N 	0.15200 0.57010 0.21531 -0.09700
Cu	Cu	0.50000 0.79941 0.50000 0.86000
Cu	Cu	-0.00000 0.79941 -0.00000 0.85800
Cu	Cu	0.50000 0.20059 0.50000 0.85900
Cu	Cu	-0.00000 0.20059 -0.00000 0.85700
Cu	Cu	0.25000 0.50000 0.75000 0.84400
Cu	Cu	0.75000 0.50000 0.75000 0.84400
Cu	Cu	0.25000 0.50000 0.25000 0.84400
Cu	Cu	0.75000 0.50000 0.25000 0.84400
C 	C 	0.50000 0.76500 0.55771 0.31500
C 	C 	0.50000 0.83462 0.65686 0.28400
C 	C 	0.50000 0.76507 0.59175 -0.05500
C 	C 	0.50000 0.79909 0.60803 -0.00600
H 	H 	0.50000 0.82210 0.59750 0.06100
C 	C 	0.50000 0.79877 0.63993 -0.04600
C 	C 	0.50000 0.76439 0.65538 -0.05300
H 	H 	0.50000 0.76440 0.67670 0.07500
C 	C 	0.50000 0.72960 0.63974 0.03800
C 	C 	0.50000 0.73077 0.60790 -0.04800
H 	H 	0.50000 0.70810 0.59700 0.06800
C 	C 	0.50000 0.69314 0.65643 -0.01300
C 	C 	0.50000 0.62423 0.68953 -0.05500
C 	C 	0.50000 0.58809 0.70640 0.15000
O 	O 	0.50000 0.79722 0.54451 -0.41200
O 	O 	0.50000 0.73383 0.54358 -0.30300
O 	O 	0.50000 0.86503 0.64394 -0.23100
O 	O 	0.50000 0.83151 0.68668 -0.21000
C 	C 	-0.00000 0.76500 0.05771 0.31500
C 	C 	-0.00000 0.83462 0.15686 0.28500
C 	C 	0.00000 0.76507 0.09175 -0.05500
C 	C 	0.00000 0.79909 0.10803 -0.00600
H 	H 	-0.00000 0.82210 0.09750 0.06100
C 	C 	-0.00000 0.79877 0.13993 -0.04700
C 	C 	0.00000 0.76439 0.15538 -0.05300
H 	H 	-0.00000 0.76440 0.17670 0.07500
C 	C 	-0.00000 0.72960 0.13974 0.03800
C 	C 	0.00000 0.73077 0.10790 -0.04800
H 	H 	0.00000 0.70810 0.09700 0.06800
C 	C 	-0.00000 0.69314 0.15643 -0.01300
C 	C 	0.00000 0.62423 0.18953 -0.05500
C 	C 	0.00000 0.58809 0.20640 0.15000
O 	O 	-0.00000 0.79722 0.04451 -0.41300
O 	O 	-0.00000 0.73383 0.04358 -0.30300
O 	O 	0.00000 0.86503 0.14394 -0.23100
O 	O 	-0.00000 0.83151 0.18668 -0.21000
C 	C 	0.50000 0.23500 0.55771 0.31500
C 	C 	0.50000 0.16538 0.65686 0.28500
C 	C 	0.50000 0.23493 0.59175 -0.05600
C 	C 	0.50000 0.20091 0.60803 -0.00500
H 	H 	0.50000 0.17790 0.59750 0.06000
C 	C 	0.50000 0.20123 0.63993 -0.04800
C 	C 	0.50000 0.23561 0.65538 -0.05300
H 	H 	0.50000 0.23560 0.67670 0.07500
C 	C 	0.50000 0.27040 0.63974 0.03800
C 	C 	0.50000 0.26923 0.60790 -0.04800
H 	H 	0.50000 0.29190 0.59700 0.06800
C 	C 	0.50000 0.30686 0.65643 -0.01300
C 	C 	0.50000 0.37577 0.68953 -0.05500
C 	C 	0.50000 0.41191 0.70640 0.15000
O 	O 	0.50000 0.20278 0.54451 -0.41300
O 	O 	0.50000 0.26617 0.54358 -0.30300
O 	O 	0.50000 0.13497 0.64394 -0.23400
O 	O 	0.50000 0.16849 0.68668 -0.21100
C 	C 	0.00000 0.23500 0.05771 0.31600
C 	C 	-0.00000 0.16538 0.15686 0.28600
C 	C 	0.00000 0.23493 0.09175 -0.05600
C 	C 	-0.00000 0.20091 0.10803 -0.00500
H 	H 	-0.00000 0.17790 0.09750 0.06000
C 	C 	-0.00000 0.20123 0.13993 -0.04800
C 	C 	-0.00000 0.23561 0.15538 -0.05200
H 	H 	-0.00000 0.23560 0.17670 0.07500
C 	C 	-0.00000 0.27040 0.13974 0.03800
C 	C 	-0.00000 0.26923 0.10790 -0.04700
H 	H 	-0.00000 0.29190 0.09700 0.06800
C 	C 	-0.00000 0.30686 0.15643 -0.01200
C 	C 	0.00000 0.37577 0.18953 -0.05500
C 	C 	-0.00000 0.41191 0.20640 0.15000
O 	O 	-0.00000 0.20278 0.04451 -0.41400
O 	O 	-0.00000 0.26617 0.04358 -0.30400
O 	O 	0.00000 0.13497 0.14394 -0.23400
O 	O 	-0.00000 0.16849 0.18668 -0.21100
C 	C 	0.50000 0.76500 0.44229 0.31500
C 	C 	0.50000 0.83462 0.34314 0.28400
C 	C 	0.50000 0.76507 0.40825 -0.05500
C 	C 	0.50000 0.79909 0.39197 -0.00600
H 	H 	0.50000 0.82210 0.40250 0.06100
C 	C 	0.50000 0.79877 0.36007 -0.04600
C 	C 	0.50000 0.76439 0.34462 -0.05300
H 	H 	0.50000 0.76440 0.32330 0.07500
C 	C 	0.50000 0.72960 0.36026 0.03800
C 	C 	0.50000 0.73077 0.39210 -0.04800
H 	H 	0.50000 0.70810 0.40300 0.06800
C 	C 	0.50000 0.69314 0.34357 -0.01300
C 	C 	0.50000 0.62423 0.31047 -0.05500
C 	C 	0.50000 0.58809 0.29360 0.15000
O 	O 	0.50000 0.79722 0.45549 -0.41200
O 	O 	0.50000 0.73383 0.45642 -0.30300
O 	O 	0.50000 0.86503 0.35606 -0.23100
O 	O 	0.50000 0.83151 0.31332 -0.21000
C 	C 	-0.00000 0.76500 0.94229 0.31500
C 	C 	-0.00000 0.83462 0.84314 0.28400
C 	C 	0.00000 0.76507 0.90825 -0.05400
C 	C 	-0.00000 0.79909 0.89197 -0.00700
H 	H 	-0.00000 0.82210 0.90250 0.06200
C 	C 	-0.00000 0.79877 0.86007 -0.04600
C 	C 	-0.00000 0.76439 0.84462 -0.05300
H 	H 	-0.00000 0.76440 0.82330 0.07600
C 	C 	-0.00000 0.72960 0.86026 0.03900
C 	C 	0.00000 0.73077 0.89210 -0.04800
H 	H 	0.00000 0.70810 0.90300 0.06900
C 	C 	0.00000 0.69314 0.84357 -0.01300
C 	C 	-0.00000 0.62423 0.81047 -0.05500
C 	C 	-0.00000 0.58809 0.79360 0.15000
O 	O 	-0.00000 0.79722 0.95549 -0.41000
O 	O 	-0.00000 0.73383 0.95642 -0.30100
O 	O 	-0.00000 0.86503 0.85606 -0.23100
O 	O 	-0.00000 0.83151 0.81332 -0.21000
C 	C 	0.50000 0.23500 0.44229 0.31500
C 	C 	0.50000 0.16538 0.34314 0.28500
C 	C 	0.50000 0.23493 0.40825 -0.05600
C 	C 	0.50000 0.20091 0.39197 -0.00500
H 	H 	0.50000 0.17790 0.40250 0.06000
C 	C 	0.50000 0.20123 0.36007 -0.04800
C 	C 	0.50000 0.23561 0.34462 -0.05300
H 	H 	0.50000 0.23560 0.32330 0.07500
C 	C 	0.50000 0.27040 0.36026 0.03800
C 	C 	0.50000 0.26923 0.39210 -0.04800
H 	H 	0.50000 0.29190 0.40300 0.06800
C 	C 	0.50000 0.30686 0.34357 -0.01300
C 	C 	0.50000 0.37577 0.31047 -0.05500
C 	C 	0.50000 0.41191 0.29360 0.15000
O 	O 	0.50000 0.20278 0.45549 -0.41300
O 	O 	0.50000 0.26617 0.45642 -0.30300
O 	O 	0.50000 0.13497 0.35606 -0.23400
O 	O 	0.50000 0.16849 0.31332 -0.21100
C 	C 	-0.00000 0.23500 0.94229 0.31500
C 	C 	-0.00000 0.16538 0.84314 0.28500
C 	C 	-0.00000 0.23493 0.90825 -0.05500
C 	C 	-0.00000 0.20091 0.89197 -0.00600
H 	H 	-0.00000 0.17790 0.90250 0.06000
C 	C 	-0.00000 0.20123 0.86007 -0.04700
C 	C 	-0.00000 0.23561 0.84462 -0.05300
H 	H 	-0.00000 0.23560 0.82330 0.07500
C 	C 	-0.00000 0.27040 0.86026 0.03800
C 	C 	-0.00000 0.26923 0.89210 -0.04800
H 	H 	0.00000 0.29190 0.90300 0.06900
C 	C 	0.00000 0.30686 0.84357 -0.01300
C 	C 	-0.00000 0.37577 0.81047 -0.05500
C 	C 	-0.00000 0.41191 0.79360 0.15000
O 	O 	0.00000 0.20278 0.95549 -0.41100
O 	O 	0.00000 0.26617 0.95642 -0.30100
O 	O 	-0.00000 0.13497 0.85606 -0.23300
O 	O 	0.00000 0.16849 0.81332 -0.21100
