data_crystal

_cell_length_a 11.94000
_cell_length_b 13.22800
_cell_length_c 13.85900
_cell_angle_alpha 100.73000
_cell_angle_beta  96.69100
_cell_angle_gamma 115.29200

_symmetry_space_group_name_	'P 1'
_symmetry_space_group_name_H-M	'P 1'

loop_
_symmetry_equiv_pos_as_xyz
  x,y,z

loop_
_atom_site_label
_atom_site_type_symbol
_atom_site_fract_x
_atom_site_fract_y
_atom_site_fract_z
_atom_site_charge
Ni	Ni	0.12852 0.41900 0.06278 1.09800
O 	O 	0.17150 0.24060 0.81380 -0.26000
O 	O 	0.21010 0.34210 0.97100 -0.39700
O 	O 	0.01960 0.40940 0.93350 -0.39600
O 	O 	0.97560 0.52260 0.85130 -0.39000
N 	N 	0.27930 0.58420 0.06910 -0.23500
N 	N 	0.98680 0.24570 0.04930 -0.23100
N 	N 	0.22780 0.42320 0.19940 -0.24300
C 	C 	0.22960 0.44020 0.83860 -0.20300
C 	C 	0.16200 0.50310 0.83550 0.10000
C 	C 	0.20950 0.60110 0.79920 -0.35400
H 	H 	0.16160 0.64060 0.79400 0.15900
C 	C 	0.32350 0.64220 0.77060 0.46600
C 	C 	0.38890 0.57670 0.77180 -0.41300
H 	H 	0.46540 0.60070 0.75120 0.17100
C 	C 	0.34100 0.47700 0.80320 0.22600
H 	H 	0.38420 0.43270 0.80080 -0.04200
C 	C 	0.19840 0.33370 0.87660 0.35000
C 	C 	0.04260 0.47580 0.87540 0.29500
C 	C 	0.38040 0.75220 0.73890 -1.01100
H 	H 	0.35700 0.73530 0.66700 0.31900
H 	H 	0.47120 0.78810 0.76020 0.31800
H 	H 	0.34960 0.80380 0.76930 0.31800
C 	C 	0.39390 0.59320 0.06530 0.11200
H 	H 	0.40820 0.53080 0.07200 -0.01300
C 	C 	0.49270 0.68940 0.05200 -0.19100
H 	H 	0.57040 0.69010 0.04870 0.11000
C 	C 	0.47610 0.78490 0.04350 0.13300
C 	C 	0.35920 0.77740 0.05110 -0.18700
H 	H 	0.34460 0.84060 0.04850 0.08900
C 	C 	0.26300 0.67760 0.06230 0.09600
H 	H 	0.18430 0.67480 0.06540 0.00400
C 	C 	0.58040 0.89480 0.03130 -0.13400
H 	H 	0.54850 0.91220 0.97220 0.05200
H 	H 	0.59740 0.95760 0.08900 0.05900
C 	C 	0.70490 0.89510 0.02090 -0.20500
H 	H 	0.69430 0.84520 0.95600 0.08500
H 	H 	0.73200 0.86540 0.07300 0.10800
C 	C 	0.93920 0.16630 0.96100 0.11300
H 	H 	0.96810 0.18810 0.90500 0.00300
C 	C 	0.84870 0.05280 0.94840 -0.20900
H 	H 	0.81760 0.00070 0.88500 0.09800
C 	C 	0.80500 0.01760 0.03000 0.16700
C 	C 	0.85510 0.10020 0.12090 -0.22200
H 	H 	0.82920 0.08090 0.17850 0.10100
C 	C 	0.94350 0.21130 0.12660 0.12300
H 	H 	0.97460 0.26540 0.18900 -0.02200
C 	C 	0.24150 0.33520 0.22130 0.11100
H 	H 	0.20880 0.26620 0.17110 -0.02100
C 	C 	0.30260 0.34110 0.31600 -0.20500
H 	H 	0.30740 0.27610 0.32820 0.08800
C 	C 	0.35580 0.44310 0.39160 0.14500
C 	C 	0.34030 0.53420 0.36790 -0.19100
H 	H 	0.37380 0.60480 0.41620 0.08900
C 	C 	0.27540 0.52170 0.27300 0.10200
H 	H 	0.26450 0.58390 0.26010 -0.01200
C 	C 	0.42970 0.45860 0.49290 -0.17800
H 	H 	0.42030 0.38390 0.50000 0.07700
H 	H 	0.39580 0.48880 0.54490 0.07900
Ni	Ni	0.87148 0.58100 0.93722 1.09900
O 	O 	0.82850 0.75940 0.18620 -0.25900
O 	O 	0.78990 0.65790 0.02900 -0.39700
O 	O 	0.98040 0.59060 0.06650 -0.39600
O 	O 	0.02440 0.47740 0.14870 -0.39000
N 	N 	0.72070 0.41580 0.93090 -0.23500
N 	N 	0.01320 0.75430 0.95070 -0.23100
N 	N 	0.77220 0.57680 0.80060 -0.24300
C 	C 	0.77040 0.55980 0.16140 -0.20300
C 	C 	0.83800 0.49690 0.16450 0.10000
C 	C 	0.79050 0.39890 0.20080 -0.35400
H 	H 	0.83840 0.35940 0.20600 0.15900
C 	C 	0.67650 0.35780 0.22940 0.46600
C 	C 	0.61110 0.42330 0.22820 -0.41300
H 	H 	0.53460 0.39930 0.24880 0.17100
C 	C 	0.65900 0.52300 0.19680 0.22600
H 	H 	0.61580 0.56730 0.19920 -0.04200
C 	C 	0.80160 0.66630 0.12340 0.35000
C 	C 	0.95740 0.52420 0.12460 0.29500
C 	C 	0.61960 0.24780 0.26110 -1.01100
H 	H 	0.64300 0.26470 0.33300 0.31900
H 	H 	0.52880 0.21190 0.23980 0.31800
H 	H 	0.65040 0.19620 0.23070 0.31800
C 	C 	0.60610 0.40680 0.93470 0.11200
H 	H 	0.59180 0.46920 0.92800 -0.01300
C 	C 	0.50730 0.31060 0.94800 -0.19100
H 	H 	0.42960 0.30990 0.95130 0.11000
C 	C 	0.52390 0.21510 0.95650 0.13300
C 	C 	0.64080 0.22260 0.94890 -0.18700
H 	H 	0.65540 0.15940 0.95150 0.08900
C 	C 	0.73700 0.32240 0.93770 0.09600
H 	H 	0.81570 0.32520 0.93460 0.00400
C 	C 	0.41960 0.10520 0.96870 -0.13400
H 	H 	0.45150 0.08780 0.02780 0.05200
H 	H 	0.40260 0.04240 0.91100 0.05900
C 	C 	0.29510 0.10490 0.97910 -0.20500
H 	H 	0.30570 0.15480 0.04400 0.08500
H 	H 	0.26800 0.13460 0.92700 0.10800
C 	C 	0.06080 0.83370 0.03900 0.11300
H 	H 	0.03190 0.81190 0.09500 0.00300
C 	C 	0.15130 0.94720 0.05160 -0.20900
H 	H 	0.18240 0.99930 0.11500 0.09800
C 	C 	0.19500 0.98240 0.97000 0.16700
C 	C 	0.14490 0.89980 0.87910 -0.22200
H 	H 	0.17080 0.91910 0.82150 0.10100
C 	C 	0.05650 0.78870 0.87340 0.12300
H 	H 	0.02540 0.73460 0.81100 -0.02200
C 	C 	0.75850 0.66480 0.77870 0.11100
H 	H 	0.79120 0.73380 0.82890 -0.02100
C 	C 	0.69740 0.65890 0.68400 -0.20500
H 	H 	0.69260 0.72390 0.67180 0.08800
C 	C 	0.64420 0.55690 0.60840 0.14500
C 	C 	0.65970 0.46580 0.63210 -0.19100
H 	H 	0.62620 0.39520 0.58380 0.08900
C 	C 	0.72460 0.47830 0.72700 0.10200
H 	H 	0.73550 0.41610 0.73990 -0.01200
C 	C 	0.57030 0.54140 0.50710 -0.17800
H 	H 	0.57970 0.61610 0.50000 0.07700
H 	H 	0.60420 0.51120 0.45510 0.07900
