data_crystal

_cell_length_a 14.55430
_cell_length_b 13.79320
_cell_length_c 19.31890
_cell_angle_alpha 90.00000
_cell_angle_beta  106.46300
_cell_angle_gamma 90.00000

_symmetry_space_group_name_	'P 1'
_symmetry_space_group_name_H-M	'P 1'

loop_
_symmetry_equiv_pos_as_xyz
  x,y,z

loop_
_atom_site_label
_atom_site_type_symbol
_atom_site_fract_x
_atom_site_fract_y
_atom_site_fract_z
_atom_site_charge
Cd	Cd	0.73605 0.98233 0.21900 1.15400
N 	N 	0.51079 0.01592 0.16299 -0.20500
H 	H 	0.51010 0.96670 0.13550 0.07100
C 	C 	0.89624 0.16255 0.24787 0.20900
C 	C 	0.60670 0.80034 0.25950 0.21200
C 	C 	0.90350 0.25951 0.22689 -0.14400
C 	C 	0.59717 0.69946 0.25021 -0.15500
C 	C 	0.43160 0.05843 0.17172 0.21500
C 	C 	0.93021 0.83413 0.25816 0.22300
C 	C 	0.56231 0.13255 0.23752 0.21700
C 	C 	0.65131 0.67495 0.20481 0.23700
C 	C 	0.63063 0.20068 0.28536 -0.68000
H 	H 	0.64660 0.25150 0.25680 0.20200
H 	H 	0.68780 0.16640 0.31040 0.17000
H 	H 	0.60170 0.22820 0.31970 0.20600
C 	C 	0.53733 0.63354 0.27985 -0.14800
C 	C 	0.82043 0.27766 0.17200 0.23200
C 	C 	0.33283 0.02326 0.13351 -0.65000
H 	H 	0.33040 0.95400 0.13770 0.18500
H 	H 	0.31730 0.04090 0.08340 0.18700
H 	H 	0.28750 0.05240 0.15490 0.19400
C 	C 	0.01231 0.89269 0.18691 0.23600
C 	C 	0.79028 0.36585 0.12814 -0.69300
H 	H 	0.72260 0.37530 0.11960 0.19900
H 	H 	0.80450 0.35880 0.08280 0.19900
H 	H 	0.82410 0.42090 0.15350 0.20600
C 	C 	0.96927 0.10721 0.30346 -0.65000
H 	H 	0.02650 0.10060 0.28850 0.19500
H 	H 	0.94460 0.04410 0.30910 0.16700
H 	H 	0.98380 0.14120 0.34860 0.18800
C 	C 	0.56246 0.86448 0.30405 -0.67400
H 	H 	0.60700 0.91440 0.32620 0.16900
H 	H 	0.54680 0.82650 0.34080 0.20400
H 	H 	0.50530 0.89350 0.27360 0.20400
N 	N 	0.66289 0.83549 0.22158 -0.26000
N 	N 	0.68895 0.75806 0.18881 -0.21300
H 	H 	0.72550 0.76150 0.16090 0.07600
N 	N 	0.87316 0.90012 0.21569 -0.25900
N 	N 	0.92608 0.93511 0.17307 -0.21500
H 	H 	0.90630 0.97940 0.14100 0.07600
N 	N 	0.59175 0.06007 0.20277 -0.25800
N 	N 	0.81415 0.12406 0.20848 -0.25600
N 	N 	0.76889 0.19509 0.16319 -0.21100
H 	H 	0.71360 0.18830 0.13230 0.07400
C 	C 	0.98274 0.32647 0.25846 -0.15700
C 	C 	0.08336 0.91978 0.14822 -0.69000
H 	H 	0.10080 0.98670 0.15750 0.19800
H 	H 	0.05580 0.91030 0.09730 0.20000
H 	H 	0.13940 0.87990 0.16490 0.20500
C 	C 	0.90009 0.77885 0.31372 -0.69000
H 	H 	0.90470 0.71070 0.30530 0.20900
H 	H 	0.83510 0.79500 0.31120 0.18400
H 	H 	0.94100 0.79500 0.36070 0.19600
C 	C 	0.66973 0.57941 0.17605 -0.69900
H 	H 	0.69260 0.58890 0.13460 0.20200
H 	H 	0.61140 0.54250 0.16250 0.20700
H 	H 	0.71710 0.54500 0.21250 0.20300
Cd	Cd	0.26395 0.48233 0.28100 1.15400
N 	N 	0.48921 0.51592 0.33701 -0.20900
H 	H 	0.48990 0.46670 0.36450 0.07300
C 	C 	0.10376 0.66255 0.25213 0.21000
C 	C 	0.39330 0.30034 0.24050 0.21300
C 	C 	0.09650 0.75951 0.27311 -0.14500
C 	C 	0.40283 0.19946 0.24979 -0.15600
C 	C 	0.56840 0.55843 0.32828 0.21800
C 	C 	0.06979 0.33413 0.24184 0.22500
C 	C 	0.43769 0.63255 0.26248 0.21700
C 	C 	0.34869 0.17495 0.29519 0.23700
C 	C 	0.36937 0.70068 0.21464 -0.68000
H 	H 	0.35340 0.75150 0.24320 0.20200
H 	H 	0.31220 0.66640 0.18960 0.16900
H 	H 	0.39830 0.72820 0.18030 0.20500
C 	C 	0.46267 0.13354 0.22015 -0.14600
C 	C 	0.17957 0.77766 0.32800 0.23200
C 	C 	0.66717 0.52326 0.36649 -0.66000
H 	H 	0.66960 0.45400 0.36230 0.18900
H 	H 	0.68270 0.54090 0.41660 0.18900
H 	H 	0.71250 0.55240 0.34510 0.19600
C 	C 	0.98769 0.39269 0.31309 0.23400
C 	C 	0.20972 0.86585 0.37186 -0.69400
H 	H 	0.27740 0.87530 0.38040 0.20000
H 	H 	0.19550 0.85880 0.41720 0.19900
H 	H 	0.17590 0.92090 0.34650 0.20600
C 	C 	0.03073 0.60721 0.19654 -0.65900
H 	H 	0.97350 0.60060 0.21150 0.19900
H 	H 	0.05540 0.54410 0.19090 0.16700
H 	H 	0.01620 0.64120 0.15140 0.19000
C 	C 	0.43754 0.36448 0.19595 -0.67600
H 	H 	0.39300 0.41440 0.17380 0.17000
H 	H 	0.45320 0.32650 0.15920 0.20400
H 	H 	0.49470 0.39350 0.22640 0.20500
N 	N 	0.33711 0.33549 0.27842 -0.26000
N 	N 	0.31105 0.25806 0.31119 -0.21400
H 	H 	0.27450 0.26150 0.33910 0.07700
N 	N 	0.12684 0.40012 0.28431 -0.25900
N 	N 	0.07392 0.43511 0.32693 -0.21400
H 	H 	0.09370 0.47940 0.35900 0.07700
N 	N 	0.40825 0.56007 0.29723 -0.25900
N 	N 	0.18585 0.62406 0.29152 -0.25800
N 	N 	0.23111 0.69509 0.33681 -0.21200
H 	H 	0.28640 0.68830 0.36770 0.07300
C 	C 	0.01726 0.82647 0.24154 -0.15600
C 	C 	0.91664 0.41978 0.35178 -0.68800
H 	H 	0.89920 0.48670 0.34250 0.19700
H 	H 	0.94420 0.41030 0.40270 0.19900
H 	H 	0.86060 0.37990 0.33510 0.20500
C 	C 	0.09991 0.27885 0.18628 -0.69400
H 	H 	0.09530 0.21070 0.19470 0.21000
H 	H 	0.16490 0.29500 0.18880 0.18600
H 	H 	0.05900 0.29500 0.13930 0.19700
C 	C 	0.33027 0.07941 0.32395 -0.70100
H 	H 	0.30740 0.08890 0.36540 0.20200
H 	H 	0.38860 0.04250 0.33750 0.20800
H 	H 	0.28290 0.04500 0.28750 0.20400
Cd	Cd	0.26395 0.01767 0.78100 1.15300
N 	N 	0.48921 0.98408 0.83701 -0.20600
H 	H 	0.48990 0.03330 0.86450 0.07000
C 	C 	0.10376 0.83745 0.75213 0.20800
C 	C 	0.39330 0.19966 0.74050 0.21200
C 	C 	0.09650 0.74049 0.77311 -0.14400
C 	C 	0.40283 0.30054 0.74979 -0.15500
C 	C 	0.56840 0.94157 0.82828 0.21500
C 	C 	0.06979 0.16587 0.74184 0.22300
C 	C 	0.43769 0.86745 0.76248 0.21700
C 	C 	0.34869 0.32505 0.79519 0.23700
C 	C 	0.36937 0.79932 0.71464 -0.68000
H 	H 	0.35340 0.74850 0.74320 0.20200
H 	H 	0.31220 0.83360 0.68960 0.17000
H 	H 	0.39830 0.77180 0.68030 0.20600
C 	C 	0.46267 0.36646 0.72015 -0.14800
C 	C 	0.17957 0.72234 0.82800 0.23200
C 	C 	0.66717 0.97674 0.86649 -0.65000
H 	H 	0.66960 0.04600 0.86230 0.18500
H 	H 	0.68270 0.95910 0.91660 0.18700
H 	H 	0.71250 0.94760 0.84510 0.19400
C 	C 	0.98769 0.10731 0.81309 0.23600
C 	C 	0.20972 0.63415 0.87186 -0.69300
H 	H 	0.27740 0.62470 0.88040 0.19900
H 	H 	0.19550 0.64120 0.91720 0.19900
H 	H 	0.17590 0.57910 0.84650 0.20600
C 	C 	0.03073 0.89279 0.69654 -0.65000
H 	H 	0.97350 0.89940 0.71150 0.19500
H 	H 	0.05540 0.95590 0.69090 0.16700
H 	H 	0.01620 0.85880 0.65140 0.18800
C 	C 	0.43754 0.13552 0.69595 -0.67400
H 	H 	0.39300 0.08560 0.67380 0.16900
H 	H 	0.45320 0.17350 0.65920 0.20400
H 	H 	0.49470 0.10650 0.72640 0.20400
N 	N 	0.33711 0.16451 0.77842 -0.26000
N 	N 	0.31105 0.24194 0.81119 -0.21300
H 	H 	0.27450 0.23850 0.83910 0.07600
N 	N 	0.12684 0.09988 0.78431 -0.25900
N 	N 	0.07392 0.06489 0.82693 -0.21500
H 	H 	0.09370 0.02060 0.85900 0.07600
N 	N 	0.40825 0.93993 0.79723 -0.25800
N 	N 	0.18585 0.87594 0.79152 -0.25600
N 	N 	0.23111 0.80491 0.83681 -0.21100
H 	H 	0.28640 0.81170 0.86770 0.07400
C 	C 	0.01726 0.67353 0.74154 -0.15700
C 	C 	0.91664 0.08022 0.85178 -0.69000
H 	H 	0.89920 0.01330 0.84250 0.19800
H 	H 	0.94420 0.08970 0.90270 0.20000
H 	H 	0.86060 0.12010 0.83510 0.20500
C 	C 	0.09991 0.22115 0.68628 -0.69000
H 	H 	0.09530 0.28930 0.69470 0.20900
H 	H 	0.16490 0.20500 0.68880 0.18400
H 	H 	0.05900 0.20500 0.63930 0.19600
C 	C 	0.33027 0.42059 0.82395 -0.69900
H 	H 	0.30740 0.41110 0.86540 0.20200
H 	H 	0.38860 0.45750 0.83750 0.20700
H 	H 	0.28290 0.45500 0.78750 0.20300
Cd	Cd	0.73605 0.51767 0.71900 1.15400
N 	N 	0.51079 0.48408 0.66299 -0.20900
H 	H 	0.51010 0.53330 0.63550 0.07300
C 	C 	0.89624 0.33745 0.74787 0.21000
C 	C 	0.60670 0.69966 0.75950 0.21300
C 	C 	0.90350 0.24049 0.72689 -0.14500
C 	C 	0.59717 0.80054 0.75021 -0.15600
C 	C 	0.43160 0.44157 0.67172 0.21800
C 	C 	0.93021 0.66587 0.75816 0.22500
C 	C 	0.56231 0.36745 0.73752 0.21700
C 	C 	0.65131 0.82505 0.70481 0.23700
C 	C 	0.63063 0.29932 0.78536 -0.68000
H 	H 	0.64660 0.24850 0.75680 0.20200
H 	H 	0.68780 0.33360 0.81040 0.16900
H 	H 	0.60170 0.27180 0.81970 0.20500
C 	C 	0.53733 0.86646 0.77985 -0.14600
C 	C 	0.82043 0.22234 0.67200 0.23200
C 	C 	0.33283 0.47674 0.63351 -0.66000
H 	H 	0.33040 0.54600 0.63770 0.18900
H 	H 	0.31730 0.45910 0.58340 0.18900
H 	H 	0.28750 0.44760 0.65490 0.19600
C 	C 	0.01231 0.60731 0.68691 0.23400
C 	C 	0.79028 0.13415 0.62814 -0.69400
H 	H 	0.72260 0.12470 0.61960 0.20000
H 	H 	0.80450 0.14120 0.58280 0.19900
H 	H 	0.82410 0.07910 0.65350 0.20600
C 	C 	0.96927 0.39279 0.80346 -0.65900
H 	H 	0.02650 0.39940 0.78850 0.19900
H 	H 	0.94460 0.45590 0.80910 0.16700
H 	H 	0.98380 0.35880 0.84860 0.19000
C 	C 	0.56246 0.63552 0.80405 -0.67600
H 	H 	0.60700 0.58560 0.82620 0.17000
H 	H 	0.54680 0.67350 0.84080 0.20400
H 	H 	0.50530 0.60650 0.77360 0.20500
N 	N 	0.66289 0.66451 0.72158 -0.26000
N 	N 	0.68895 0.74194 0.68881 -0.21400
H 	H 	0.72550 0.73850 0.66090 0.07700
N 	N 	0.87316 0.59988 0.71569 -0.25900
N 	N 	0.92608 0.56489 0.67307 -0.21400
H 	H 	0.90630 0.52060 0.64100 0.07700
N 	N 	0.59175 0.43993 0.70277 -0.25900
N 	N 	0.81415 0.37594 0.70848 -0.25800
N 	N 	0.76889 0.30491 0.66319 -0.21200
H 	H 	0.71360 0.31170 0.63230 0.07300
C 	C 	0.98274 0.17353 0.75846 -0.15600
C 	C 	0.08336 0.58022 0.64822 -0.68800
H 	H 	0.10080 0.51330 0.65750 0.19700
H 	H 	0.05580 0.58970 0.59730 0.19900
H 	H 	0.13940 0.62010 0.66490 0.20500
C 	C 	0.90009 0.72115 0.81372 -0.69400
H 	H 	0.90470 0.78930 0.80530 0.21000
H 	H 	0.83510 0.70500 0.81120 0.18600
H 	H 	0.94100 0.70500 0.86070 0.19700
C 	C 	0.66973 0.92059 0.67605 -0.70100
H 	H 	0.69260 0.91110 0.63460 0.20200
H 	H 	0.61140 0.95750 0.66250 0.20800
H 	H 	0.71710 0.95500 0.71250 0.20400
