data_crystal

_cell_length_a 17.51200
_cell_length_b 17.36380
_cell_length_c 28.10100
_cell_angle_alpha 90.00000
_cell_angle_beta  99.25400
_cell_angle_gamma 90.00000

_symmetry_space_group_name_	'P 1'
_symmetry_space_group_name_H-M	'P 1'

loop_
_symmetry_equiv_pos_as_xyz
  x,y,z

loop_
_atom_site_label
_atom_site_type_symbol
_atom_site_fract_x
_atom_site_fract_y
_atom_site_fract_z
_atom_site_charge
K 	K 	0.07313 0.01929 0.24758 0.67700
C 	C 	0.04930 0.15280 0.34110 0.29600
C 	C 	0.04280 0.24030 0.40140 0.05900
H 	H 	0.00350 0.23550 0.42290 0.02000
C 	C 	0.00820 0.27640 0.35270 0.06600
H 	H 	0.95340 0.29120 0.35170 0.01800
C 	C 	0.11000 0.35470 0.39000 0.26400
C 	C 	0.97250 0.21470 0.27110 0.05600
H 	H 	0.92230 0.23960 0.27130 0.02200
H 	H 	0.96300 0.16120 0.26090 0.02300
C 	C 	0.04150 0.39970 0.31190 0.03600
H 	H 	0.98600 0.41110 0.30630 0.03800
H 	H 	0.06890 0.44730 0.32300 0.07400
C 	C 	0.04920 0.21750 0.20660 0.30000
C 	C 	0.01330 0.33680 0.22990 0.06400
H 	H 	0.96030 0.35840 0.22470 0.02900
C 	C 	0.05470 0.34920 0.18600 0.06500
H 	H 	0.01970 0.37260 0.15870 0.03400
C 	C 	0.12090 0.41520 0.24910 0.28500
C 	C 	0.09900 0.24500 0.12920 0.02700
H 	H 	0.09180 0.18930 0.12500 0.06400
H 	H 	0.06570 0.27060 0.10250 0.05200
C 	C 	0.15940 0.43560 0.17060 0.04300
H 	H 	0.18250 0.48190 0.18690 0.06300
H 	H 	0.12330 0.45230 0.14220 0.04900
C 	C 	0.23360 0.20730 0.12830 0.28800
C 	C 	0.20730 0.33710 0.11570 0.07000
H 	H 	0.17360 0.36000 0.08760 0.03500
C 	C 	0.28790 0.32050 0.10370 0.06000
H 	H 	0.29200 0.33160 0.06970 0.02600
C 	C 	0.29860 0.41080 0.16720 0.31000
C 	C 	0.36520 0.19700 0.10700 0.03800
H 	H 	0.37900 0.21380 0.07620 0.03200
H 	H 	0.35150 0.14230 0.10400 0.06000
C 	C 	0.41630 0.39030 0.13340 0.05000
H 	H 	0.42110 0.38990 0.09910 0.02900
H 	H 	0.42700 0.44280 0.14540 0.04500
C 	C 	0.45810 0.14500 0.17380 0.29100
C 	C 	0.49230 0.26490 0.14220 0.05800
H 	H 	0.50900 0.26690 0.11020 0.02000
C 	C 	0.55700 0.23780 0.18150 0.06200
H 	H 	0.60660 0.23320 0.16910 0.01900
C 	C 	0.51260 0.35760 0.20320 0.31000
C 	C 	0.58160 0.10870 0.22420 0.05100
H 	H 	0.56180 0.05660 0.21650 0.04200
H 	H 	0.63310 0.11200 0.21480 0.02500
C 	C 	0.62190 0.30490 0.25790 0.04500
H 	H 	0.62400 0.35790 0.27010 0.04400
H 	H 	0.67110 0.29420 0.24680 0.02600
C 	C 	0.56240 0.06940 0.30350 0.26000
C 	C 	0.64030 0.17460 0.30050 0.07300
H 	H 	0.69250 0.17050 0.29150 0.01500
C 	C 	0.64180 0.15360 0.35530 0.05900
H 	H 	0.69460 0.14210 0.37230 0.01900
C 	C 	0.59580 0.28310 0.33890 0.27300
C 	C 	0.57950 0.04390 0.39260 0.04100
H 	H 	0.62440 0.04930 0.41820 0.03000
H 	H 	0.57380 0.98920 0.38410 0.04100
C 	C 	0.60740 0.23320 0.42340 0.03000
H 	H 	0.60970 0.28850 0.43060 0.05800
H 	H 	0.65230 0.20850 0.44270 0.03800
C 	C 	0.46710 0.02080 0.43200 0.26800
C 	C 	0.48310 0.14860 0.40990 0.06900
H 	H 	0.46660 0.16700 0.37640 0.04300
C 	C 	0.41450 0.14450 0.43750 0.05900
H 	H 	0.36670 0.16700 0.41910 0.04600
C 	C 	0.51310 0.21910 0.47890 0.25700
C 	C 	0.35740 0.03020 0.47710 0.04300
H 	H 	0.34440 0.97710 0.46700 0.04300
H 	H 	0.38520 0.02870 0.51030 0.04100
C 	C 	0.40400 0.19920 0.52230 0.03600
H 	H 	0.42050 0.15900 0.54630 0.04600
H 	H 	0.41960 0.24900 0.53720 0.05300
C 	C 	0.22480 0.06260 0.44110 0.27800
C 	C 	0.27590 0.13020 0.50990 0.07100
H 	H 	0.27980 0.10810 0.54270 0.01600
C 	C 	0.19220 0.16040 0.49100 0.05900
H 	H 	0.15730 0.15460 0.51520 0.01900
C 	C 	0.28040 0.26210 0.49200 0.25600
C 	C 	0.09060 0.10730 0.42510 0.05200
H 	H 	0.05630 0.11110 0.44930 0.02200
H 	H 	0.08230 0.05660 0.40980 0.03900
C 	C 	0.14200 0.29530 0.47110 0.03700
H 	H 	0.16300 0.34680 0.47940 0.05500
H 	H 	0.10380 0.28380 0.49200 0.02900
N 	N 	0.06880 0.16670 0.38840 -0.15600
N 	N 	0.01640 0.21610 0.31928 -0.16100
N 	N 	0.10480 0.29440 0.42130 -0.14200
N 	N 	0.05690 0.34270 0.34960 -0.14700
N 	N 	0.01330 0.25410 0.23730 -0.16600
N 	N 	0.07470 0.26840 0.17540 -0.14800
N 	N 	0.06400 0.37710 0.26740 -0.14200
N 	N 	0.11750 0.39680 0.20200 -0.14800
N 	N 	0.17870 0.26390 0.12710 -0.14500
N 	N 	0.29800 0.23990 0.11580 -0.14900
N 	N 	0.22030 0.39060 0.15472 -0.14400
N 	N 	0.33750 0.37080 0.13800 -0.15400
N 	N 	0.43290 0.20540 0.14440 -0.14800
N 	N 	0.53070 0.16380 0.19580 -0.15300
N 	N 	0.47280 0.34020 0.15840 -0.16100
N 	N 	0.56050 0.29910 0.21780 -0.16000
N 	N 	0.58870 0.12040 0.27483 -0.15600
N 	N 	0.59260 0.08760 0.35070 -0.14900
N 	N 	0.61350 0.25230 0.29740 -0.15300
N 	N 	0.60990 0.22170 0.37320 -0.14400
N 	N 	0.51020 0.07020 0.41048 -0.15200
N 	N 	0.40740 0.06330 0.44576 -0.14400
N 	N 	0.53550 0.20050 0.43635 -0.14600
N 	N 	0.44310 0.18790 0.48139 -0.14200
N 	N 	0.28790 0.07360 0.47572 -0.15800
N 	N 	0.16920 0.11220 0.44882 -0.15400
N 	N 	0.32100 0.19730 0.50978 -0.15100
N 	N 	0.20380 0.23940 0.47928 -0.14100
O 	O 	0.05840 0.09130 0.32089 -0.29500
O 	O 	0.06040 0.14770 0.20549 -0.30000
O 	O 	0.22540 0.14200 0.13890 -0.21700
O 	O 	0.42470 0.08750 0.17820 -0.22600
O 	O 	0.51950 0.01180 0.29231 -0.22300
O 	O 	0.47550 0.95150 0.43731 -0.24400
O 	O 	0.22060 0.01670 0.40839 -0.23500
O 	O 	0.15650 0.40740 0.39854 -0.20300
O 	O 	0.16860 0.45830 0.27117 -0.20400
O 	O 	0.32180 0.46050 0.19608 -0.29300
O 	O 	0.50800 0.41690 0.22409 -0.31600
O 	O 	0.57320 0.34490 0.34770 -0.23900
O 	O 	0.55040 0.26320 0.51027 -0.21700
O 	O 	0.30510 0.32730 0.48690 -0.20600
K 	K 	0.42687 0.51929 0.25242 0.67700
C 	C 	0.45070 0.65280 0.15890 0.29600
C 	C 	0.45720 0.74030 0.09860 0.05900
H 	H 	0.49650 0.73550 0.07710 0.02000
C 	C 	0.49180 0.77640 0.14730 0.06600
H 	H 	0.54660 0.79120 0.14830 0.01800
C 	C 	0.39000 0.85470 0.11000 0.26400
C 	C 	0.52750 0.71470 0.22890 0.05600
H 	H 	0.57770 0.73960 0.22870 0.02200
H 	H 	0.53700 0.66120 0.23910 0.02300
C 	C 	0.45850 0.89970 0.18810 0.03500
H 	H 	0.51400 0.91110 0.19370 0.03800
H 	H 	0.43110 0.94730 0.17700 0.07400
C 	C 	0.45080 0.71750 0.29340 0.30000
C 	C 	0.48670 0.83680 0.27010 0.06300
H 	H 	0.53970 0.85840 0.27530 0.02900
C 	C 	0.44530 0.84920 0.31400 0.06500
H 	H 	0.48030 0.87260 0.34130 0.03400
C 	C 	0.37910 0.91520 0.25090 0.28500
C 	C 	0.40100 0.74500 0.37080 0.02700
H 	H 	0.40820 0.68930 0.37500 0.06400
H 	H 	0.43430 0.77060 0.39750 0.05200
C 	C 	0.34060 0.93560 0.32940 0.04300
H 	H 	0.31750 0.98190 0.31310 0.06300
H 	H 	0.37670 0.95230 0.35780 0.04900
C 	C 	0.26640 0.70730 0.37170 0.28800
C 	C 	0.29270 0.83710 0.38430 0.07000
H 	H 	0.32640 0.86000 0.41240 0.03500
C 	C 	0.21210 0.82050 0.39630 0.06000
H 	H 	0.20800 0.83160 0.43030 0.02600
C 	C 	0.20140 0.91080 0.33280 0.31000
C 	C 	0.13480 0.69700 0.39300 0.03800
H 	H 	0.12100 0.71380 0.42380 0.03200
H 	H 	0.14850 0.64230 0.39600 0.06000
C 	C 	0.08370 0.89030 0.36660 0.05000
H 	H 	0.07890 0.88990 0.40090 0.02900
H 	H 	0.07300 0.94280 0.35460 0.04500
C 	C 	0.04190 0.64500 0.32620 0.29100
C 	C 	0.00770 0.76490 0.35780 0.05900
H 	H 	0.99100 0.76690 0.38980 0.01900
C 	C 	0.94300 0.73780 0.31850 0.06200
H 	H 	0.89340 0.73320 0.33090 0.01900
C 	C 	0.98740 0.85760 0.29680 0.31000
C 	C 	0.91840 0.60870 0.27580 0.05100
H 	H 	0.93820 0.55660 0.28350 0.04200
H 	H 	0.86690 0.61200 0.28520 0.02500
C 	C 	0.87810 0.80490 0.24210 0.04500
H 	H 	0.87600 0.85790 0.22990 0.04400
H 	H 	0.82890 0.79420 0.25320 0.02600
C 	C 	0.93760 0.56940 0.19650 0.26000
C 	C 	0.85970 0.67460 0.19950 0.07300
H 	H 	0.80750 0.67050 0.20850 0.01500
C 	C 	0.85820 0.65360 0.14470 0.05900
H 	H 	0.80540 0.64210 0.12770 0.01900
C 	C 	0.90420 0.78310 0.16110 0.27300
C 	C 	0.92050 0.54390 0.10740 0.04100
H 	H 	0.87560 0.54930 0.08180 0.03000
H 	H 	0.92620 0.48920 0.11590 0.04100
C 	C 	0.89260 0.73320 0.07660 0.03000
H 	H 	0.89030 0.78850 0.06940 0.05800
H 	H 	0.84770 0.70850 0.05730 0.03800
C 	C 	0.03290 0.52080 0.06800 0.26800
C 	C 	0.01690 0.64860 0.09010 0.07000
H 	H 	0.03340 0.66700 0.12360 0.04300
C 	C 	0.08550 0.64450 0.06250 0.05900
H 	H 	0.13330 0.66700 0.08090 0.04600
C 	C 	0.98690 0.71910 0.02110 0.25700
C 	C 	0.14260 0.53020 0.02290 0.04400
H 	H 	0.15560 0.47710 0.03300 0.04300
H 	H 	0.11480 0.52870 0.98970 0.04000
C 	C 	0.09600 0.69920 0.97770 0.03500
H 	H 	0.07950 0.65900 0.95370 0.04600
H 	H 	0.08040 0.74900 0.96280 0.05300
C 	C 	0.27520 0.56260 0.05890 0.27800
C 	C 	0.22410 0.63020 0.99010 0.07000
H 	H 	0.22020 0.60810 0.95730 0.01600
C 	C 	0.30780 0.66040 0.00900 0.05900
H 	H 	0.34270 0.65460 0.98480 0.01800
C 	C 	0.21960 0.76210 0.00800 0.25700
C 	C 	0.40940 0.60730 0.07490 0.05200
H 	H 	0.44370 0.61110 0.05070 0.02200
H 	H 	0.41770 0.55660 0.09020 0.03900
C 	C 	0.35800 0.79530 0.02890 0.03700
H 	H 	0.33700 0.84680 0.02060 0.05500
H 	H 	0.39620 0.78380 0.00800 0.02900
N 	N 	0.43120 0.66670 0.11160 -0.15600
N 	N 	0.48360 0.71610 0.18072 -0.16100
N 	N 	0.39520 0.79440 0.07870 -0.14200
N 	N 	0.44310 0.84270 0.15040 -0.14600
N 	N 	0.48670 0.75410 0.26270 -0.16600
N 	N 	0.42530 0.76840 0.32460 -0.14800
N 	N 	0.43600 0.87710 0.23260 -0.14200
N 	N 	0.38250 0.89680 0.29800 -0.14800
N 	N 	0.32130 0.76390 0.37290 -0.14500
N 	N 	0.20200 0.73990 0.38420 -0.14900
N 	N 	0.27970 0.89060 0.34528 -0.14400
N 	N 	0.16250 0.87080 0.36200 -0.15400
N 	N 	0.06710 0.70540 0.35560 -0.14800
N 	N 	0.96930 0.66380 0.30420 -0.15400
N 	N 	0.02720 0.84020 0.34160 -0.16100
N 	N 	0.93950 0.79910 0.28220 -0.16000
N 	N 	0.91130 0.62040 0.22517 -0.15600
N 	N 	0.90740 0.58760 0.14930 -0.14900
N 	N 	0.88650 0.75230 0.20260 -0.15300
N 	N 	0.89010 0.72170 0.12680 -0.14400
N 	N 	0.98980 0.57020 0.08952 -0.15300
N 	N 	0.09260 0.56330 0.05424 -0.14500
N 	N 	0.96450 0.70050 0.06365 -0.14600
N 	N 	0.05690 0.68790 0.01861 -0.14200
N 	N 	0.21210 0.57360 0.02428 -0.15800
N 	N 	0.33080 0.61220 0.05118 -0.15400
N 	N 	0.17900 0.69730 0.99022 -0.15100
N 	N 	0.29620 0.73940 0.02072 -0.14100
O 	O 	0.44160 0.59130 0.17911 -0.29500
O 	O 	0.43960 0.64770 0.29451 -0.30000
O 	O 	0.27460 0.64200 0.36110 -0.21700
O 	O 	0.07530 0.58750 0.32180 -0.22600
O 	O 	0.98050 0.51180 0.20769 -0.22300
O 	O 	0.02450 0.45150 0.06269 -0.24400
O 	O 	0.27940 0.51670 0.09161 -0.23500
O 	O 	0.34350 0.90740 0.10146 -0.20200
O 	O 	0.33140 0.95830 0.22883 -0.20400
O 	O 	0.17820 0.96050 0.30392 -0.29300
O 	O 	0.99200 0.91690 0.27591 -0.31600
O 	O 	0.92680 0.84490 0.15230 -0.23900
O 	O 	0.94960 0.76320 0.98973 -0.21700
O 	O 	0.19490 0.82730 0.01310 -0.20600
K 	K 	0.92687 0.98071 0.75242 0.67700
C 	C 	0.95070 0.84720 0.65890 0.29600
C 	C 	0.95720 0.75970 0.59860 0.05900
H 	H 	0.99650 0.76450 0.57710 0.02000
C 	C 	0.99180 0.72360 0.64730 0.06600
H 	H 	0.04660 0.70880 0.64830 0.01800
C 	C 	0.89000 0.64530 0.61000 0.26400
C 	C 	0.02750 0.78530 0.72890 0.05600
H 	H 	0.07770 0.76040 0.72870 0.02200
H 	H 	0.03700 0.83880 0.73910 0.02300
C 	C 	0.95850 0.60030 0.68810 0.03600
H 	H 	0.01400 0.58890 0.69370 0.03800
H 	H 	0.93110 0.55270 0.67700 0.07400
C 	C 	0.95080 0.78250 0.79340 0.30000
C 	C 	0.98670 0.66320 0.77010 0.06400
H 	H 	0.03970 0.64160 0.77530 0.02900
C 	C 	0.94530 0.65080 0.81400 0.06500
H 	H 	0.98030 0.62740 0.84130 0.03400
C 	C 	0.87910 0.58480 0.75090 0.28500
C 	C 	0.90100 0.75500 0.87080 0.02700
H 	H 	0.90820 0.81070 0.87500 0.06400
H 	H 	0.93430 0.72940 0.89750 0.05200
C 	C 	0.84060 0.56440 0.82940 0.04300
H 	H 	0.81750 0.51810 0.81310 0.06300
H 	H 	0.87670 0.54770 0.85780 0.04900
C 	C 	0.76640 0.79270 0.87170 0.28800
C 	C 	0.79270 0.66290 0.88430 0.07000
H 	H 	0.82640 0.64000 0.91240 0.03500
C 	C 	0.71210 0.67950 0.89630 0.06000
H 	H 	0.70800 0.66840 0.93030 0.02600
C 	C 	0.70140 0.58920 0.83280 0.31000
C 	C 	0.63480 0.80300 0.89300 0.03800
H 	H 	0.62100 0.78620 0.92380 0.03200
H 	H 	0.64850 0.85770 0.89600 0.06000
C 	C 	0.58370 0.60970 0.86660 0.05000
H 	H 	0.57890 0.61010 0.90090 0.02900
H 	H 	0.57300 0.55720 0.85460 0.04500
C 	C 	0.54190 0.85500 0.82620 0.29100
C 	C 	0.50770 0.73510 0.85780 0.05800
H 	H 	0.49100 0.73310 0.88980 0.02000
C 	C 	0.44300 0.76220 0.81850 0.06200
H 	H 	0.39340 0.76680 0.83090 0.01900
C 	C 	0.48740 0.64240 0.79680 0.31000
C 	C 	0.41840 0.89130 0.77580 0.05100
H 	H 	0.43820 0.94340 0.78350 0.04200
H 	H 	0.36690 0.88800 0.78520 0.02500
C 	C 	0.37810 0.69510 0.74210 0.04500
H 	H 	0.37600 0.64210 0.72990 0.04400
H 	H 	0.32890 0.70580 0.75320 0.02600
C 	C 	0.43760 0.93060 0.69650 0.26000
C 	C 	0.35970 0.82540 0.69950 0.07300
H 	H 	0.30750 0.82950 0.70850 0.01500
C 	C 	0.35820 0.84640 0.64470 0.05900
H 	H 	0.30540 0.85790 0.62770 0.01900
C 	C 	0.40420 0.71690 0.66110 0.27300
C 	C 	0.42050 0.95610 0.60740 0.04100
H 	H 	0.37560 0.95070 0.58180 0.03000
H 	H 	0.42620 0.01080 0.61590 0.04100
C 	C 	0.39260 0.76680 0.57660 0.03000
H 	H 	0.39030 0.71150 0.56940 0.05800
H 	H 	0.34770 0.79150 0.55730 0.03800
C 	C 	0.53290 0.97920 0.56800 0.26800
C 	C 	0.51690 0.85140 0.59010 0.06900
H 	H 	0.53340 0.83300 0.62360 0.04300
C 	C 	0.58550 0.85550 0.56250 0.05900
H 	H 	0.63330 0.83300 0.58090 0.04600
C 	C 	0.48690 0.78090 0.52110 0.25700
C 	C 	0.64260 0.96980 0.52290 0.04300
H 	H 	0.65560 0.02290 0.53300 0.04300
H 	H 	0.61480 0.97130 0.48970 0.04100
C 	C 	0.59600 0.80080 0.47770 0.03600
H 	H 	0.57950 0.84100 0.45370 0.04600
H 	H 	0.58040 0.75100 0.46280 0.05300
C 	C 	0.77520 0.93740 0.55890 0.27800
C 	C 	0.72410 0.86980 0.49010 0.07100
H 	H 	0.72020 0.89190 0.45730 0.01600
C 	C 	0.80780 0.83960 0.50900 0.05900
H 	H 	0.84270 0.84540 0.48480 0.01900
C 	C 	0.71960 0.73790 0.50800 0.25600
C 	C 	0.90940 0.89270 0.57490 0.05200
H 	H 	0.94370 0.88890 0.55070 0.02200
H 	H 	0.91770 0.94340 0.59020 0.03900
C 	C 	0.85800 0.70470 0.52890 0.03700
H 	H 	0.83700 0.65320 0.52060 0.05500
H 	H 	0.89620 0.71620 0.50800 0.02900
N 	N 	0.93120 0.83330 0.61160 -0.15600
N 	N 	0.98360 0.78390 0.68072 -0.16100
N 	N 	0.89520 0.70560 0.57870 -0.14200
N 	N 	0.94310 0.65730 0.65040 -0.14700
N 	N 	0.98670 0.74590 0.76270 -0.16600
N 	N 	0.92530 0.73160 0.82460 -0.14800
N 	N 	0.93600 0.62290 0.73260 -0.14200
N 	N 	0.88250 0.60320 0.79800 -0.14800
N 	N 	0.82130 0.73610 0.87290 -0.14500
N 	N 	0.70200 0.76010 0.88420 -0.14900
N 	N 	0.77970 0.60940 0.84528 -0.14400
N 	N 	0.66250 0.62920 0.86200 -0.15400
N 	N 	0.56710 0.79460 0.85560 -0.14800
N 	N 	0.46930 0.83620 0.80420 -0.15300
N 	N 	0.52720 0.65980 0.84160 -0.16100
N 	N 	0.43950 0.70090 0.78220 -0.16000
N 	N 	0.41130 0.87960 0.72517 -0.15600
N 	N 	0.40740 0.91240 0.64930 -0.14900
N 	N 	0.38650 0.74770 0.70260 -0.15300
N 	N 	0.39010 0.77830 0.62680 -0.14400
N 	N 	0.48980 0.92980 0.58952 -0.15200
N 	N 	0.59260 0.93670 0.55424 -0.14400
N 	N 	0.46450 0.79950 0.56365 -0.14600
N 	N 	0.55690 0.81210 0.51861 -0.14200
N 	N 	0.71210 0.92640 0.52428 -0.15800
N 	N 	0.83080 0.88780 0.55118 -0.15400
N 	N 	0.67900 0.80270 0.49022 -0.15100
N 	N 	0.79620 0.76060 0.52072 -0.14100
O 	O 	0.94160 0.90870 0.67911 -0.29500
O 	O 	0.93960 0.85230 0.79451 -0.30000
O 	O 	0.77460 0.85800 0.86110 -0.21700
O 	O 	0.57530 0.91250 0.82180 -0.22600
O 	O 	0.48050 0.98820 0.70769 -0.22300
O 	O 	0.52450 0.04850 0.56269 -0.24400
O 	O 	0.77940 0.98330 0.59161 -0.23500
O 	O 	0.84350 0.59260 0.60146 -0.20300
O 	O 	0.83140 0.54170 0.72883 -0.20400
O 	O 	0.67820 0.53950 0.80392 -0.29300
O 	O 	0.49200 0.58310 0.77591 -0.31600
O 	O 	0.42680 0.65510 0.65230 -0.23900
O 	O 	0.44960 0.73680 0.48973 -0.21700
O 	O 	0.69490 0.67270 0.51310 -0.20600
K 	K 	0.57313 0.48071 0.74758 0.67700
C 	C 	0.54930 0.34720 0.84110 0.29600
C 	C 	0.54280 0.25970 0.90140 0.05900
H 	H 	0.50350 0.26450 0.92290 0.02000
C 	C 	0.50820 0.22360 0.85270 0.06600
H 	H 	0.45340 0.20880 0.85170 0.01800
C 	C 	0.61000 0.14530 0.89000 0.26400
C 	C 	0.47250 0.28530 0.77110 0.05600
H 	H 	0.42230 0.26040 0.77130 0.02200
H 	H 	0.46300 0.33880 0.76090 0.02300
C 	C 	0.54150 0.10030 0.81190 0.03500
H 	H 	0.48600 0.08890 0.80630 0.03800
H 	H 	0.56890 0.05270 0.82300 0.07400
C 	C 	0.54920 0.28250 0.70660 0.30000
C 	C 	0.51330 0.16320 0.72990 0.06300
H 	H 	0.46030 0.14160 0.72470 0.02900
C 	C 	0.55470 0.15080 0.68600 0.06500
H 	H 	0.51970 0.12740 0.65870 0.03400
C 	C 	0.62090 0.08480 0.74910 0.28500
C 	C 	0.59900 0.25500 0.62920 0.02700
H 	H 	0.59180 0.31070 0.62500 0.06400
H 	H 	0.56570 0.22940 0.60250 0.05200
C 	C 	0.65940 0.06440 0.67060 0.04300
H 	H 	0.68250 0.01810 0.68690 0.06300
H 	H 	0.62330 0.04770 0.64220 0.04900
C 	C 	0.73360 0.29270 0.62830 0.28800
C 	C 	0.70730 0.16290 0.61570 0.07000
H 	H 	0.67360 0.14000 0.58760 0.03500
C 	C 	0.78790 0.17950 0.60370 0.06000
H 	H 	0.79200 0.16840 0.56970 0.02600
C 	C 	0.79860 0.08920 0.66720 0.31000
C 	C 	0.86520 0.30300 0.60700 0.03800
H 	H 	0.87900 0.28620 0.57620 0.03200
H 	H 	0.85150 0.35770 0.60400 0.06000
C 	C 	0.91630 0.10970 0.63340 0.05000
H 	H 	0.92110 0.11010 0.59910 0.02900
H 	H 	0.92700 0.05720 0.64540 0.04500
C 	C 	0.95810 0.35500 0.67380 0.29100
C 	C 	0.99230 0.23510 0.64220 0.05900
H 	H 	0.00900 0.23310 0.61020 0.01900
C 	C 	0.05700 0.26220 0.68150 0.06200
H 	H 	0.10660 0.26680 0.66910 0.01900
C 	C 	0.01260 0.14240 0.70320 0.31000
C 	C 	0.08160 0.39130 0.72420 0.05100
H 	H 	0.06180 0.44340 0.71650 0.04200
H 	H 	0.13310 0.38800 0.71480 0.02500
C 	C 	0.12190 0.19510 0.75790 0.04500
H 	H 	0.12400 0.14210 0.77010 0.04400
H 	H 	0.17110 0.20580 0.74680 0.02600
C 	C 	0.06240 0.43060 0.80350 0.26000
C 	C 	0.14030 0.32540 0.80050 0.07300
H 	H 	0.19250 0.32950 0.79150 0.01500
C 	C 	0.14180 0.34640 0.85530 0.05900
H 	H 	0.19460 0.35790 0.87230 0.01900
C 	C 	0.09580 0.21690 0.83890 0.27300
C 	C 	0.07950 0.45610 0.89260 0.04100
H 	H 	0.12440 0.45070 0.91820 0.03000
H 	H 	0.07380 0.51080 0.88410 0.04100
C 	C 	0.10740 0.26680 0.92340 0.03000
H 	H 	0.10970 0.21150 0.93060 0.05800
H 	H 	0.15230 0.29150 0.94270 0.03800
C 	C 	0.96710 0.47920 0.93200 0.26800
C 	C 	0.98310 0.35140 0.90990 0.07000
H 	H 	0.96660 0.33300 0.87640 0.04300
C 	C 	0.91450 0.35550 0.93750 0.05900
H 	H 	0.86670 0.33300 0.91910 0.04600
C 	C 	0.01310 0.28090 0.97890 0.25700
C 	C 	0.85740 0.46980 0.97710 0.04400
H 	H 	0.84440 0.52290 0.96700 0.04300
H 	H 	0.88520 0.47130 0.01030 0.04000
C 	C 	0.90400 0.30080 0.02230 0.03500
H 	H 	0.92050 0.34100 0.04630 0.04600
H 	H 	0.91960 0.25100 0.03720 0.05300
C 	C 	0.72480 0.43740 0.94110 0.27800
C 	C 	0.77590 0.36980 0.00990 0.07000
H 	H 	0.77980 0.39190 0.04270 0.01600
C 	C 	0.69220 0.33960 0.99100 0.05900
H 	H 	0.65730 0.34540 0.01520 0.01800
C 	C 	0.78040 0.23790 0.99200 0.25700
C 	C 	0.59060 0.39270 0.92510 0.05200
H 	H 	0.55630 0.38890 0.94930 0.02200
H 	H 	0.58230 0.44340 0.90980 0.03900
C 	C 	0.64200 0.20470 0.97110 0.03700
H 	H 	0.66300 0.15320 0.97940 0.05500
H 	H 	0.60380 0.21620 0.99200 0.02900
N 	N 	0.56880 0.33330 0.88840 -0.15600
N 	N 	0.51640 0.28390 0.81928 -0.16100
N 	N 	0.60480 0.20560 0.92130 -0.14200
N 	N 	0.55690 0.15730 0.84960 -0.14600
N 	N 	0.51330 0.24590 0.73730 -0.16600
N 	N 	0.57470 0.23160 0.67540 -0.14800
N 	N 	0.56400 0.12290 0.76740 -0.14200
N 	N 	0.61750 0.10320 0.70200 -0.14800
N 	N 	0.67870 0.23610 0.62710 -0.14500
N 	N 	0.79800 0.26010 0.61580 -0.14900
N 	N 	0.72030 0.10940 0.65472 -0.14400
N 	N 	0.83750 0.12920 0.63800 -0.15400
N 	N 	0.93290 0.29460 0.64440 -0.14800
N 	N 	0.03070 0.33620 0.69580 -0.15400
N 	N 	0.97280 0.15980 0.65840 -0.16100
N 	N 	0.06050 0.20090 0.71780 -0.16000
N 	N 	0.08870 0.37960 0.77483 -0.15600
N 	N 	0.09260 0.41240 0.85070 -0.14900
N 	N 	0.11350 0.24770 0.79740 -0.15300
N 	N 	0.10990 0.27830 0.87320 -0.14400
N 	N 	0.01020 0.42980 0.91048 -0.15300
N 	N 	0.90740 0.43670 0.94576 -0.14500
N 	N 	0.03550 0.29950 0.93635 -0.14600
N 	N 	0.94310 0.31210 0.98139 -0.14200
N 	N 	0.78790 0.42640 0.97572 -0.15800
N 	N 	0.66920 0.38780 0.94882 -0.15400
N 	N 	0.82100 0.30270 0.00978 -0.15100
N 	N 	0.70380 0.26060 0.97928 -0.14100
O 	O 	0.55840 0.40870 0.82089 -0.29500
O 	O 	0.56040 0.35230 0.70549 -0.30000
O 	O 	0.72540 0.35800 0.63890 -0.21700
O 	O 	0.92470 0.41250 0.67820 -0.22600
O 	O 	0.01950 0.48820 0.79231 -0.22300
O 	O 	0.97550 0.54850 0.93731 -0.24400
O 	O 	0.72060 0.48330 0.90839 -0.23500
O 	O 	0.65650 0.09260 0.89854 -0.20200
O 	O 	0.66860 0.04170 0.77117 -0.20400
O 	O 	0.82180 0.03950 0.69608 -0.29300
O 	O 	0.00800 0.08310 0.72409 -0.31600
O 	O 	0.07320 0.15510 0.84770 -0.23900
O 	O 	0.05040 0.23680 0.01027 -0.21700
O 	O 	0.80510 0.17270 0.98690 -0.20600
