data_crystal

_cell_length_a 11.88060
_cell_length_b 9.10010
_cell_length_c 16.64750
_cell_angle_alpha 90.00000
_cell_angle_beta  105.42700
_cell_angle_gamma 90.00000

_symmetry_space_group_name_	'P 1'
_symmetry_space_group_name_H-M	'P 1'

loop_
_symmetry_equiv_pos_as_xyz
  x,y,z

loop_
_atom_site_label
_atom_site_type_symbol
_atom_site_fract_x
_atom_site_fract_y
_atom_site_fract_z
_atom_site_charge
C 	C 	0.86520 0.02040 0.86940 0.27900
N 	N 	0.87800 0.90750 0.82134 -0.27100
N 	N 	0.78540 0.53380 0.91600 -0.21600
H 	H 	0.73450 0.59110 0.92790 0.06300
N 	N 	0.82180 0.54630 0.84591 -0.26600
C 	C 	0.89950 0.43780 0.85120 0.28100
C 	C 	0.99270 0.22880 0.95480 0.10400
C 	C 	0.91180 0.35790 0.92533 -0.25200
N 	N 	0.99130 0.91160 0.82010 -0.20000
C 	C 	0.83710 0.42230 0.96500 0.28400
C 	C 	0.97100 0.09780 0.89780 -0.24400
C 	C 	0.04900 0.02480 0.86420 0.25500
C 	C 	0.17410 0.05480 0.86750 -0.68500
H 	H 	0.21720 0.07340 0.92410 0.19900
H 	H 	0.17870 0.13920 0.83390 0.19300
H 	H 	0.20670 0.97110 0.84670 0.19200
C 	C 	0.75050 0.05460 0.88520 -0.75700
H 	H 	0.72370 0.97080 0.91000 0.19800
H 	H 	0.69480 0.07800 0.83350 0.21700
H 	H 	0.75900 0.13700 0.92240 0.23800
C 	C 	0.95910 0.41070 0.78440 -0.75500
H 	H 	0.02450 0.47610 0.79160 0.20500
H 	H 	0.90530 0.42750 0.73100 0.20800
H 	H 	0.98610 0.31080 0.78770 0.23400
C 	C 	0.80400 0.38610 0.04340 -0.74200
H 	H 	0.78530 0.47500 0.06810 0.21400
H 	H 	0.86810 0.33790 0.08170 0.22500
H 	H 	0.73720 0.32230 0.03060 0.20800
H 	H 	0.01800 0.85600 0.78400 0.04300
H 	H 	0.07800 0.26300 0.96700 -0.01700
H 	H 	0.98700 0.21300 0.01100 -0.01400
C 	C 	0.63480 0.02040 0.63060 0.28000
N 	N 	0.62200 0.90750 0.67866 -0.27000
N 	N 	0.71460 0.53380 0.58400 -0.21500
H 	H 	0.76550 0.59110 0.57210 0.06300
N 	N 	0.67820 0.54630 0.65409 -0.26700
C 	C 	0.60050 0.43780 0.64880 0.28000
C 	C 	0.50730 0.22880 0.54520 0.09400
C 	C 	0.58820 0.35790 0.57467 -0.24900
N 	N 	0.50870 0.91160 0.67990 -0.20100
C 	C 	0.66290 0.42230 0.53500 0.28000
C 	C 	0.52900 0.09780 0.60220 -0.24400
C 	C 	0.45100 0.02480 0.63580 0.25700
C 	C 	0.32590 0.05480 0.63250 -0.69100
H 	H 	0.28280 0.07340 0.57590 0.20000
H 	H 	0.32130 0.13920 0.66610 0.19500
H 	H 	0.29330 0.97110 0.65330 0.19400
C 	C 	0.74950 0.05460 0.61480 -0.76200
H 	H 	0.77630 0.97080 0.59000 0.20100
H 	H 	0.80520 0.07800 0.66650 0.21900
H 	H 	0.74100 0.13700 0.57760 0.23900
C 	C 	0.54090 0.41070 0.71560 -0.75900
H 	H 	0.47550 0.47610 0.70840 0.20700
H 	H 	0.59470 0.42750 0.76900 0.20900
H 	H 	0.51390 0.31080 0.71230 0.23500
C 	C 	0.69600 0.38610 0.45660 -0.73500
H 	H 	0.71470 0.47500 0.43190 0.21200
H 	H 	0.63190 0.33790 0.41830 0.22300
H 	H 	0.76280 0.32230 0.46940 0.20600
H 	H 	0.48200 0.85600 0.71600 0.04500
H 	H 	0.42200 0.26300 0.53300 -0.01400
H 	H 	0.51300 0.21300 0.48900 -0.00900
Cd	Cd	0.75000 0.73031 0.75000 1.15500
C 	C 	0.13480 0.97960 0.13060 0.28000
N 	N 	0.12200 0.09250 0.17866 -0.27000
N 	N 	0.21460 0.46620 0.08400 -0.21600
H 	H 	0.26550 0.40890 0.07210 0.06300
N 	N 	0.17820 0.45370 0.15409 -0.26600
C 	C 	0.10050 0.56220 0.14880 0.28100
C 	C 	0.00730 0.77120 0.04520 0.10400
C 	C 	0.08820 0.64210 0.07467 -0.25200
N 	N 	0.00870 0.08840 0.17990 -0.20000
C 	C 	0.16290 0.57770 0.03500 0.28400
C 	C 	0.02900 0.90220 0.10220 -0.24400
C 	C 	0.95100 0.97520 0.13580 0.25500
C 	C 	0.82590 0.94520 0.13250 -0.68500
H 	H 	0.78280 0.92660 0.07590 0.19900
H 	H 	0.82130 0.86080 0.16610 0.19300
H 	H 	0.79330 0.02890 0.15330 0.19200
C 	C 	0.24950 0.94540 0.11480 -0.75700
H 	H 	0.27630 0.02920 0.09000 0.19800
H 	H 	0.30520 0.92200 0.16650 0.21700
H 	H 	0.24100 0.86300 0.07760 0.23800
C 	C 	0.04090 0.58930 0.21560 -0.75500
H 	H 	0.97550 0.52390 0.20840 0.20500
H 	H 	0.09470 0.57250 0.26900 0.20800
H 	H 	0.01390 0.68920 0.21230 0.23400
C 	C 	0.19600 0.61390 0.95660 -0.74200
H 	H 	0.21470 0.52500 0.93190 0.21400
H 	H 	0.13190 0.66210 0.91830 0.22500
H 	H 	0.26280 0.67770 0.96940 0.20800
H 	H 	0.98200 0.14400 0.21600 0.04300
H 	H 	0.92200 0.73700 0.03300 -0.01700
H 	H 	0.01300 0.78700 0.98900 -0.01400
C 	C 	0.36520 0.97960 0.36940 0.28000
N 	N 	0.37800 0.09250 0.32134 -0.27000
N 	N 	0.28540 0.46620 0.41600 -0.21500
H 	H 	0.23450 0.40890 0.42790 0.06300
N 	N 	0.32180 0.45370 0.34591 -0.26700
C 	C 	0.39950 0.56220 0.35120 0.28000
C 	C 	0.49270 0.77120 0.45480 0.09400
C 	C 	0.41180 0.64210 0.42533 -0.24900
N 	N 	0.49130 0.08840 0.32010 -0.20100
C 	C 	0.33710 0.57770 0.46500 0.28000
C 	C 	0.47100 0.90220 0.39780 -0.24400
C 	C 	0.54900 0.97520 0.36420 0.25700
C 	C 	0.67410 0.94520 0.36750 -0.69100
H 	H 	0.71720 0.92660 0.42410 0.20000
H 	H 	0.67870 0.86080 0.33390 0.19500
H 	H 	0.70670 0.02890 0.34670 0.19400
C 	C 	0.25050 0.94540 0.38520 -0.76200
H 	H 	0.22370 0.02920 0.41000 0.20100
H 	H 	0.19480 0.92200 0.33350 0.21900
H 	H 	0.25900 0.86300 0.42240 0.23900
C 	C 	0.45910 0.58930 0.28440 -0.75900
H 	H 	0.52450 0.52390 0.29160 0.20700
H 	H 	0.40530 0.57250 0.23100 0.20900
H 	H 	0.48610 0.68920 0.28770 0.23500
C 	C 	0.30400 0.61390 0.54340 -0.73500
H 	H 	0.28530 0.52500 0.56810 0.21200
H 	H 	0.36810 0.66210 0.58170 0.22300
H 	H 	0.23720 0.67770 0.53060 0.20600
H 	H 	0.51800 0.14400 0.28400 0.04500
H 	H 	0.57800 0.73700 0.46700 -0.01400
H 	H 	0.48700 0.78700 0.51100 -0.00900
Cd	Cd	0.25000 0.26969 0.25000 1.15500
