data_crystal

_cell_length_a 8.82740
_cell_length_b 11.85470
_cell_length_c 12.93850
_cell_angle_alpha 97.00600
_cell_angle_beta  107.99200
_cell_angle_gamma 99.64900

_symmetry_space_group_name_	'P 1'
_symmetry_space_group_name_H-M	'P 1'

loop_
_symmetry_equiv_pos_as_xyz
  x,y,z

loop_
_atom_site_label
_atom_site_type_symbol
_atom_site_fract_x
_atom_site_fract_y
_atom_site_fract_z
_atom_site_charge
Nd	Nd	0.46003 0.05462 0.34978 2.49600
O 	O 	0.47320 0.92820 0.18826 -0.41900
C 	C 	0.62580 0.96920 0.20580 0.32500
S 	S 	0.55709 0.71114 0.82558 0.61900
S 	S 	0.21692 0.78494 0.39430 0.68500
O 	O 	0.70920 0.04100 0.29076 -0.41200
C 	C 	0.69860 0.92600 0.12370 -0.10000
C 	C 	0.60240 0.85220 0.02350 0.06400
H 	H 	0.48690 0.83420 0.00380 0.05600
O 	O 	0.51710 0.78790 0.74487 -0.50800
C 	C 	0.67640 0.80520 0.95300 -0.12500
O 	O 	0.41450 0.65060 0.84261 -0.23800
C 	C 	0.86650 0.95560 0.15090 0.06900
H 	H 	0.93100 0.00870 0.21720 0.04600
O 	O 	0.66240 0.63850 0.80050 -0.23600
C 	C 	0.84660 0.83040 0.98200 0.07900
H 	H 	0.89750 0.79590 0.93540 0.04900
O 	O 	0.18350 0.87250 0.05874 -0.22400
O 	O 	0.20000 0.01925 0.19022 -0.45300
C 	C 	0.94080 0.90750 0.08090 -0.13100
O 	O 	0.58990 0.91982 0.45753 -0.65300
C 	C 	0.12050 0.93810 0.11510 0.40100
O 	O 	0.73760 0.84360 0.58932 -0.45800
C 	C 	0.69800 0.86050 0.49370 0.44100
O 	O 	0.47160 0.59490 0.11055 -0.15900
C 	C 	0.77070 0.80600 0.41330 -0.14900
O 	O 	0.69230 0.56730 0.06856 -0.17400
C 	C 	0.66690 0.73980 0.31180 0.07100
H 	H 	0.55220 0.73240 0.29180 0.04000
O 	O 	0.24220 0.67950 0.34100 -0.27600
C 	C 	0.73230 0.68490 0.24040 -0.08500
O 	O 	0.25310 0.88530 0.34313 -0.51700
C 	C 	0.62740 0.61020 0.13100 0.29300
C 	C 	0.93950 0.81870 0.44440 0.09500
H 	H 	0.00930 0.86250 0.51440 0.02100
O 	O 	0.29720 0.81080 0.51355 -0.51200
C 	C 	0.00360 0.76500 0.36940 -0.14500
C 	C 	0.90200 0.69900 0.26830 0.06400
H 	H 	0.94690 0.66350 0.21820 0.05700
Nd	Nd	0.53997 0.94538 0.65022 2.49700
O 	O 	0.52680 0.07180 0.81174 -0.41800
C 	C 	0.37420 0.03080 0.79420 0.32600
S 	S 	0.44291 0.28886 0.17442 0.62000
S 	S 	0.78308 0.21506 0.60570 0.68600
O 	O 	0.29080 0.95900 0.70924 -0.41100
C 	C 	0.30140 0.07400 0.87630 -0.10000
C 	C 	0.39760 0.14780 0.97650 0.06400
H 	H 	0.51310 0.16580 0.99620 0.05600
O 	O 	0.48290 0.21210 0.25513 -0.50800
C 	C 	0.32360 0.19480 0.04700 -0.12500
O 	O 	0.58550 0.34940 0.15739 -0.23800
C 	C 	0.13350 0.04440 0.84910 0.06900
H 	H 	0.06900 0.99130 0.78280 0.04600
O 	O 	0.33760 0.36150 0.19950 -0.23600
C 	C 	0.15340 0.16960 0.01800 0.07900
H 	H 	0.10250 0.20410 0.06460 0.04900
O 	O 	0.81650 0.12750 0.94126 -0.22400
O 	O 	0.80000 0.98075 0.80978 -0.45300
C 	C 	0.05920 0.09250 0.91910 -0.13100
O 	O 	0.41010 0.08018 0.54247 -0.65300
C 	C 	0.87950 0.06190 0.88490 0.40100
O 	O 	0.26240 0.15640 0.41068 -0.45800
C 	C 	0.30200 0.13950 0.50630 0.44100
O 	O 	0.52840 0.40510 0.88945 -0.15900
C 	C 	0.22930 0.19400 0.58670 -0.14900
O 	O 	0.30770 0.43270 0.93144 -0.17400
C 	C 	0.33310 0.26020 0.68820 0.07100
H 	H 	0.44780 0.26760 0.70820 0.04000
O 	O 	0.75780 0.32050 0.65900 -0.27600
C 	C 	0.26770 0.31510 0.75960 -0.08500
O 	O 	0.74690 0.11470 0.65687 -0.51700
C 	C 	0.37260 0.38980 0.86900 0.29300
C 	C 	0.06050 0.18130 0.55560 0.09500
H 	H 	0.99070 0.13750 0.48560 0.02100
O 	O 	0.70280 0.18920 0.48645 -0.51200
C 	C 	0.99640 0.23500 0.63060 -0.14500
C 	C 	0.09800 0.30100 0.73170 0.06400
H 	H 	0.05310 0.33650 0.78180 0.05700
