data_crystal

_cell_length_a 8.91490
_cell_length_b 11.70080
_cell_length_c 13.20100
_cell_angle_alpha 97.53200
_cell_angle_beta  107.08500
_cell_angle_gamma 101.28600

_symmetry_space_group_name_	'P 1'
_symmetry_space_group_name_H-M	'P 1'

loop_
_symmetry_equiv_pos_as_xyz
  x,y,z

loop_
_atom_site_label
_atom_site_type_symbol
_atom_site_fract_x
_atom_site_fract_y
_atom_site_fract_z
_atom_site_charge
La	La	0.54096 0.95393 0.65293 1.74500
S 	S 	0.79320 0.22213 0.59639 0.57800
S 	S 	0.55101 0.70854 0.81791 0.55400
C 	C 	0.07000 0.18880 0.55240 0.06400
H 	H 	0.00190 0.14620 0.48240 0.04200
O 	O 	0.70380 0.02550 0.28365 -0.33900
O 	O 	0.46690 0.91700 0.17707 -0.32500
C 	C 	0.83910 0.82450 0.97550 0.05500
H 	H 	0.88920 0.79130 0.92850 0.06100
O 	O 	0.19430 0.00610 0.18895 -0.35100
C 	C 	0.93340 0.89750 0.07460 -0.09300
O 	O 	0.30100 0.43140 0.92682 -0.16400
O 	O 	0.52510 0.40670 0.89345 -0.16500
O 	O 	0.41720 0.08950 0.54171 -0.48400
C 	C 	0.00560 0.24060 0.62510 -0.10700
C 	C 	0.30800 0.14350 0.50640 0.37200
C 	C 	0.67270 0.80040 0.94540 -0.09600
O 	O 	0.50740 0.79150 0.74699 -0.38900
C 	C 	0.33720 0.26450 0.68540 0.04400
H 	H 	0.45060 0.27150 0.70650 0.05200
C 	C 	0.59890 0.84480 0.01570 0.04600
H 	H 	0.48410 0.82700 0.99510 0.06500
O 	O 	0.41240 0.64020 0.83498 -0.22100
O 	O 	0.71780 0.18010 0.48008 -0.39400
C 	C 	0.86060 0.94350 0.14530 0.04000
H 	H 	0.92540 0.99380 0.21290 0.05800
O 	O 	0.65240 0.64090 0.78500 -0.22500
O 	O 	0.75130 0.13080 0.65562 -0.40100
C 	C 	0.23720 0.20040 0.58430 -0.11500
C 	C 	0.61840 0.95690 0.19740 0.31100
O 	O 	0.26270 0.15280 0.41060 -0.35600
C 	C 	0.69330 0.91550 0.11640 -0.08200
O 	O 	0.17450 0.86170 0.05280 -0.20100
O 	O 	0.76870 0.33430 0.63520 -0.24600
C 	C 	0.27060 0.31880 0.75640 -0.06600
C 	C 	0.10420 0.30560 0.72570 0.04500
H 	H 	0.05820 0.34150 0.77410 0.06500
C 	C 	0.37400 0.39040 0.86530 0.28500
C 	C 	0.11290 0.92700 0.11120 0.33600
La	La	0.45904 0.04607 0.34707 1.74600
S 	S 	0.20680 0.77787 0.40361 0.57900
S 	S 	0.44899 0.29146 0.18209 0.55500
C 	C 	0.93000 0.81120 0.44760 0.06500
H 	H 	0.99810 0.85380 0.51760 0.04200
O 	O 	0.29620 0.97450 0.71635 -0.33900
O 	O 	0.53310 0.08300 0.82293 -0.32500
C 	C 	0.16090 0.17550 0.02450 0.05500
H 	H 	0.11080 0.20870 0.07150 0.06100
O 	O 	0.80570 0.99390 0.81105 -0.35100
C 	C 	0.06660 0.10250 0.92540 -0.09300
O 	O 	0.69900 0.56860 0.07318 -0.16400
O 	O 	0.47490 0.59330 0.10655 -0.16500
O 	O 	0.58280 0.91050 0.45829 -0.48400
C 	C 	0.99440 0.75940 0.37490 -0.10700
C 	C 	0.69200 0.85650 0.49360 0.37200
C 	C 	0.32730 0.19960 0.05460 -0.09600
O 	O 	0.49260 0.20850 0.25301 -0.38900
C 	C 	0.66280 0.73550 0.31460 0.04400
H 	H 	0.54940 0.72850 0.29350 0.05200
C 	C 	0.40110 0.15520 0.98430 0.04600
H 	H 	0.51590 0.17300 0.00490 0.06500
O 	O 	0.58760 0.35980 0.16502 -0.22100
O 	O 	0.28220 0.81990 0.51992 -0.39400
C 	C 	0.13940 0.05650 0.85470 0.04000
H 	H 	0.07460 0.00620 0.78710 0.05800
O 	O 	0.34760 0.35910 0.21500 -0.22500
O 	O 	0.24870 0.86920 0.34438 -0.40100
C 	C 	0.76280 0.79960 0.41570 -0.11500
C 	C 	0.38160 0.04310 0.80260 0.31100
O 	O 	0.73730 0.84720 0.58940 -0.35600
C 	C 	0.30670 0.08450 0.88360 -0.08200
O 	O 	0.82550 0.13830 0.94720 -0.20100
O 	O 	0.23130 0.66570 0.36480 -0.24600
C 	C 	0.72940 0.68120 0.24360 -0.06600
C 	C 	0.89580 0.69440 0.27430 0.04500
H 	H 	0.94180 0.65850 0.22590 0.06500
C 	C 	0.62600 0.60960 0.13470 0.28500
C 	C 	0.88710 0.07300 0.88880 0.33600
