data_crystal

_cell_length_a 11.44600
_cell_length_b 19.90900
_cell_length_c 11.82000
_cell_angle_alpha 90.00000
_cell_angle_beta  106.09800
_cell_angle_gamma 90.00000

_symmetry_space_group_name_	'P 1'
_symmetry_space_group_name_H-M	'P 1'

loop_
_symmetry_equiv_pos_as_xyz
  x,y,z

loop_
_atom_site_label
_atom_site_type_symbol
_atom_site_fract_x
_atom_site_fract_y
_atom_site_fract_z
_atom_site_charge
C 	C 	0.02420 0.21460 0.32720 0.34500
C 	C 	0.03070 0.28910 0.34910 -0.02500
C 	C 	0.03050 0.31350 0.45860 -0.13700
H 	H 	0.02680 0.28370 0.51810 0.11700
C 	C 	0.03570 0.38180 0.48040 0.20000
C 	C 	0.03770 0.42670 0.39210 -0.13500
H 	H 	0.03690 0.47280 0.40520 0.11400
C 	C 	0.04090 0.40200 0.28360 -0.04200
C 	C 	0.03650 0.33400 0.26120 -0.02800
H 	H 	0.03730 0.31830 0.18730 0.06000
C 	C 	0.03970 0.45020 0.18690 0.37900
C 	C 	0.23390 0.05170 0.33340 0.09000
H 	H 	0.17740 0.03170 0.27030 0.01700
C 	C 	0.35110 0.05400 0.32770 -0.13600
H 	H 	0.37030 0.03770 0.26140 0.08100
C 	C 	0.40270 0.10370 0.51070 -0.14000
H 	H 	0.45840 0.12240 0.57580 0.08000
C 	C 	0.28280 0.09990 0.50720 0.09100
H 	H 	0.26170 0.11620 0.57260 0.00200
C 	C 	0.65870 0.11320 0.50210 -0.15900
H 	H 	0.63750 0.13550 0.56270 0.08800
C 	C 	0.44070 0.08020 0.41890 0.06000
C 	C 	0.57420 0.08170 0.41760 0.08300
C 	C 	0.60820 0.05110 0.32880 -0.15900
H 	H 	0.55130 0.02870 0.26920 0.08700
C 	C 	0.72680 0.05400 0.32890 0.10200
H 	H 	0.74870 0.03480 0.26600 -0.00200
C 	C 	0.77680 0.11210 0.49780 0.09900
H 	H 	0.83520 0.13330 0.55770 -0.00500
N 	N 	0.81230 0.08235 0.41280 -0.24200
N 	N 	0.19260 0.07519 0.42040 -0.23600
O 	O 	0.00460 0.17885 0.40680 -0.45000
O 	O 	0.03670 0.19276 0.23520 -0.27800
O 	O 	0.05200 0.42801 0.09210 -0.49200
O 	O 	0.02820 0.51191 0.20750 -0.45800
O 	O 	0.03590 0.40687 0.58750 -0.19500
Zn	Zn	0.00460 0.08133 0.41717 1.22400
C 	C 	0.97580 0.71460 0.17280 0.34400
C 	C 	0.96930 0.78910 0.15090 -0.02100
C 	C 	0.96950 0.81350 0.04140 -0.14800
H 	H 	0.97320 0.78370 0.98190 0.12600
C 	C 	0.96430 0.88180 0.01960 0.19800
C 	C 	0.96230 0.92670 0.10790 -0.13500
H 	H 	0.96310 0.97280 0.09480 0.11300
C 	C 	0.95910 0.90200 0.21640 -0.04000
C 	C 	0.96350 0.83400 0.23880 -0.03000
H 	H 	0.96270 0.81830 0.31270 0.06100
C 	C 	0.96030 0.95020 0.31310 0.37200
C 	C 	0.76610 0.55170 0.16660 0.08800
H 	H 	0.82260 0.53170 0.22970 0.01700
C 	C 	0.64890 0.55400 0.17230 -0.13300
H 	H 	0.62970 0.53770 0.23860 0.08000
C 	C 	0.59730 0.60370 0.98930 -0.13700
H 	H 	0.54160 0.62240 0.92420 0.07900
C 	C 	0.71720 0.59990 0.99280 0.09300
H 	H 	0.73830 0.61620 0.92740 0.00300
C 	C 	0.34130 0.61320 0.99790 -0.17100
H 	H 	0.36250 0.63550 0.93730 0.09200
C 	C 	0.55930 0.58020 0.08110 0.05600
C 	C 	0.42580 0.58170 0.08240 0.09100
C 	C 	0.39180 0.55110 0.17120 -0.16500
H 	H 	0.44870 0.52870 0.23080 0.08900
C 	C 	0.27320 0.55400 0.17110 0.10500
H 	H 	0.25130 0.53480 0.23400 -0.00400
C 	C 	0.22320 0.61210 0.00220 0.11000
H 	H 	0.16480 0.63330 0.94230 -0.01200
N 	N 	0.18770 0.58235 0.08720 -0.24500
N 	N 	0.80740 0.57519 0.07960 -0.23700
O 	O 	0.99540 0.67885 0.09320 -0.45100
O 	O 	0.96330 0.69276 0.26480 -0.27800
O 	O 	0.94800 0.92801 0.40790 -0.49400
O 	O 	0.97180 0.01191 0.29250 -0.45400
O 	O 	0.96410 0.90687 0.91250 -0.19000
Zn	Zn	0.99540 0.58133 0.08283 1.22300
C 	C 	0.97580 0.78540 0.67280 0.34600
C 	C 	0.96930 0.71090 0.65090 -0.02400
C 	C 	0.96950 0.68650 0.54140 -0.13600
H 	H 	0.97320 0.71630 0.48190 0.11800
C 	C 	0.96430 0.61820 0.51960 0.20100
C 	C 	0.96230 0.57330 0.60790 -0.13400
H 	H 	0.96310 0.52720 0.59480 0.11500
C 	C 	0.95910 0.59800 0.71640 -0.04100
C 	C 	0.96350 0.66600 0.73880 -0.02700
H 	H 	0.96270 0.68170 0.81270 0.06100
C 	C 	0.96030 0.54980 0.81310 0.37900
C 	C 	0.76610 0.94830 0.66660 0.09000
H 	H 	0.82260 0.96830 0.72970 0.01700
C 	C 	0.64890 0.94600 0.67230 -0.13600
H 	H 	0.62970 0.96230 0.73860 0.08100
C 	C 	0.59730 0.89630 0.48930 -0.14000
H 	H 	0.54160 0.87760 0.42420 0.08000
C 	C 	0.71720 0.90010 0.49280 0.09100
H 	H 	0.73830 0.88380 0.42740 0.00200
C 	C 	0.34130 0.88680 0.49790 -0.15900
H 	H 	0.36250 0.86450 0.43730 0.08800
C 	C 	0.55930 0.91980 0.58110 0.06000
C 	C 	0.42580 0.91830 0.58240 0.08300
C 	C 	0.39180 0.94890 0.67120 -0.15900
H 	H 	0.44870 0.97130 0.73080 0.08700
C 	C 	0.27320 0.94600 0.67110 0.10200
H 	H 	0.25130 0.96520 0.73400 -0.00200
C 	C 	0.22320 0.88790 0.50220 0.09900
H 	H 	0.16480 0.86670 0.44230 -0.00500
N 	N 	0.18770 0.91765 0.58720 -0.24200
N 	N 	0.80740 0.92481 0.57960 -0.23600
O 	O 	0.99540 0.82115 0.59320 -0.45000
O 	O 	0.96330 0.80724 0.76480 -0.27800
O 	O 	0.94800 0.57199 0.90790 -0.49200
O 	O 	0.97180 0.48809 0.79250 -0.45800
O 	O 	0.96410 0.59313 0.41250 -0.19500
Zn	Zn	0.99540 0.91867 0.58283 1.22400
C 	C 	0.02420 0.28540 0.82720 0.34400
C 	C 	0.03070 0.21090 0.84910 -0.02100
C 	C 	0.03050 0.18650 0.95860 -0.14800
H 	H 	0.02680 0.21630 0.01810 0.12600
C 	C 	0.03570 0.11820 0.98040 0.19800
C 	C 	0.03770 0.07330 0.89210 -0.13500
H 	H 	0.03690 0.02720 0.90520 0.11300
C 	C 	0.04090 0.09800 0.78360 -0.04000
C 	C 	0.03650 0.16600 0.76120 -0.03000
H 	H 	0.03730 0.18170 0.68730 0.06100
C 	C 	0.03970 0.04980 0.68690 0.37200
C 	C 	0.23390 0.44830 0.83340 0.08800
H 	H 	0.17740 0.46830 0.77030 0.01700
C 	C 	0.35110 0.44600 0.82770 -0.13300
H 	H 	0.37030 0.46230 0.76140 0.08000
C 	C 	0.40270 0.39630 0.01070 -0.13700
H 	H 	0.45840 0.37760 0.07580 0.07900
C 	C 	0.28280 0.40010 0.00720 0.09300
H 	H 	0.26170 0.38380 0.07260 0.00300
C 	C 	0.65870 0.38680 0.00210 -0.17100
H 	H 	0.63750 0.36450 0.06270 0.09200
C 	C 	0.44070 0.41980 0.91890 0.05600
C 	C 	0.57420 0.41830 0.91760 0.09100
C 	C 	0.60820 0.44890 0.82880 -0.16500
H 	H 	0.55130 0.47130 0.76920 0.08900
C 	C 	0.72680 0.44600 0.82890 0.10500
H 	H 	0.74870 0.46520 0.76600 -0.00400
C 	C 	0.77680 0.38790 0.99780 0.11000
H 	H 	0.83520 0.36670 0.05770 -0.01200
N 	N 	0.81230 0.41765 0.91280 -0.24500
N 	N 	0.19260 0.42481 0.92040 -0.23700
O 	O 	0.00460 0.32115 0.90680 -0.45100
O 	O 	0.03670 0.30724 0.73520 -0.27800
O 	O 	0.05200 0.07199 0.59210 -0.49400
O 	O 	0.02820 0.98809 0.70750 -0.45400
O 	O 	0.03590 0.09313 0.08750 -0.19000
Zn	Zn	0.00460 0.41867 0.91717 1.22300
