data_crystal

_cell_length_a 23.69700
_cell_length_b 13.56800
_cell_length_c 14.05400
_cell_angle_alpha 90.00000
_cell_angle_beta  103.59300
_cell_angle_gamma 90.00000

_symmetry_space_group_name_	'P 1'
_symmetry_space_group_name_H-M	'P 1'

loop_
_symmetry_equiv_pos_as_xyz
  x,y,z

loop_
_atom_site_label
_atom_site_type_symbol
_atom_site_fract_x
_atom_site_fract_y
_atom_site_fract_z
_atom_site_charge
N 	N 	0.18990 0.32550 0.54750 -0.26700
N 	N 	0.25000 0.64900 0.89440 -0.25700
N 	N 	0.18790 0.17310 0.40970 -0.26200
C 	C 	0.25290 0.50780 0.74770 0.20700
C 	C 	0.10200 0.24330 0.45380 -0.19500
C 	C 	0.19880 0.39570 0.61980 0.13400
C 	C 	0.19430 0.09930 0.34440 0.13600
C 	C 	0.03680 0.23890 0.43480 0.31400
C 	C 	0.12910 0.17980 0.40070 0.15800
C 	C 	0.13910 0.06120 0.29500 -0.05500
H 	H 	0.13230 0.01140 0.24820 0.08800
C 	C 	0.09850 0.11060 0.32890 -0.06900
H 	H 	0.05850 0.10180 0.30970 0.08300
C 	C 	0.13150 0.31160 0.52180 0.14200
C 	C 	0.25230 0.43220 0.67040 -0.16100
C 	C 	0.14370 0.42850 0.63610 -0.09000
H 	H 	0.13820 0.47670 0.68010 0.12300
C 	C 	0.24400 0.67330 0.80050 0.16100
H 	H 	0.23900 0.73960 0.78390 -0.00100
C 	C 	0.10250 0.37700 0.57640 -0.06900
H 	H 	0.06270 0.38190 0.57080 0.08200
C 	C 	0.26010 0.48190 0.84350 -0.22600
H 	H 	0.26580 0.41610 0.86160 0.16300
C 	C 	0.00280 0.31040 0.37790 -0.41400
H 	H 	0.01970 0.36310 0.35270 0.22300
C 	C 	0.24490 0.60650 0.72590 -0.21300
H 	H 	0.24020 0.62830 0.66180 0.14800
F 	F 	0.90950 0.36590 0.30030 -0.46600
C 	C 	0.25890 0.55230 0.91380 0.16000
H 	H 	0.26470 0.53180 0.97850 0.00200
C 	C 	0.01080 0.16230 0.47040 -0.39500
H 	H 	0.03280 0.11250 0.50680 0.22800
F 	F 	0.85890 0.22330 0.37490 -0.36000
F 	F 	0.92440 0.08270 0.48830 -0.43900
C 	C 	0.94950 0.16040 0.45040 0.40400
C 	C 	0.91610 0.23020 0.39290 0.00800
C 	C 	0.94300 0.30130 0.35950 0.43300
N 	N 	0.31010 0.82550 0.95250 -0.26500
N 	N 	0.25000 0.14900 0.60560 -0.27000
N 	N 	0.31210 0.67310 0.09030 -0.27500
C 	C 	0.24710 0.00780 0.75230 0.20600
C 	C 	0.39800 0.74330 0.04620 -0.28600
C 	C 	0.30120 0.89570 0.88020 0.13100
C 	C 	0.30570 0.59930 0.15560 0.12900
C 	C 	0.46320 0.73890 0.06520 0.38200
C 	C 	0.37090 0.67980 0.09930 0.18000
C 	C 	0.36090 0.56120 0.20500 -0.04800
H 	H 	0.36770 0.51140 0.25180 0.08400
C 	C 	0.40150 0.61060 0.17110 -0.09100
H 	H 	0.44150 0.60180 0.19030 0.09000
C 	C 	0.36850 0.81160 0.97820 0.22000
C 	C 	0.24770 0.93220 0.82960 -0.15500
C 	C 	0.35630 0.92850 0.86390 -0.06600
H 	H 	0.36180 0.97670 0.81990 0.11500
C 	C 	0.25600 0.17330 0.69950 0.16200
H 	H 	0.26100 0.23960 0.71610 -0.00100
C 	C 	0.39750 0.87700 0.92360 -0.10600
H 	H 	0.43730 0.88190 0.92920 0.10800
C 	C 	0.23990 0.98190 0.65650 -0.23000
H 	H 	0.23420 0.91610 0.63840 0.15900
C 	C 	0.49720 0.81040 0.12210 -0.46200
H 	H 	0.48030 0.86310 0.14730 0.23500
C 	C 	0.25510 0.10650 0.77410 -0.21400
H 	H 	0.25980 0.12830 0.83820 0.15600
F 	F 	0.59050 0.86590 0.19970 -0.47200
C 	C 	0.24110 0.05230 0.58620 0.15800
H 	H 	0.23530 0.03180 0.52150 -0.01600
C 	C 	0.48920 0.66230 0.02960 -0.52800
H 	H 	0.46720 0.61250 0.99320 0.30800
F 	F 	0.64110 0.72330 0.12510 -0.36000
F 	F 	0.57560 0.58270 0.01170 -0.46200
C 	C 	0.55050 0.66040 0.04960 0.44600
C 	C 	0.58390 0.73020 0.10710 -0.02300
C 	C 	0.55700 0.80130 0.14050 0.45700
N 	N 	0.31010 0.17450 0.45250 -0.26800
N 	N 	0.25000 0.85100 0.10560 -0.27400
N 	N 	0.31210 0.32690 0.59030 -0.26300
C 	C 	0.24710 0.99220 0.25230 0.19800
C 	C 	0.39800 0.25670 0.54620 -0.19500
C 	C 	0.30120 0.10430 0.38020 0.13100
C 	C 	0.30570 0.40070 0.65560 0.13800
C 	C 	0.46320 0.26110 0.56520 0.31000
C 	C 	0.37090 0.32020 0.59930 0.15700
C 	C 	0.36090 0.43880 0.70500 -0.05600
H 	H 	0.36770 0.48860 0.75180 0.09200
C 	C 	0.40150 0.38940 0.67110 -0.06700
H 	H 	0.44150 0.39820 0.69030 0.08500
C 	C 	0.36850 0.18840 0.47820 0.14100
C 	C 	0.24770 0.06780 0.32960 -0.15800
C 	C 	0.35630 0.07150 0.36390 -0.09000
H 	H 	0.36180 0.02330 0.31990 0.11900
C 	C 	0.25600 0.82670 0.19950 0.15700
H 	H 	0.26100 0.76040 0.21610 -0.00100
C 	C 	0.39750 0.12300 0.42360 -0.07100
H 	H 	0.43730 0.11810 0.42920 0.08000
C 	C 	0.23990 0.01810 0.15650 -0.22300
H 	H 	0.23420 0.08390 0.13840 0.15100
C 	C 	0.49720 0.18960 0.62210 -0.40800
H 	H 	0.48030 0.13690 0.64730 0.22300
C 	C 	0.25510 0.89350 0.27410 -0.21100
H 	H 	0.25980 0.87170 0.33820 0.14700
F 	F 	0.59050 0.13410 0.69970 -0.46100
C 	C 	0.24110 0.94770 0.08620 0.14800
H 	H 	0.23530 0.96820 0.02150 -0.03100
C 	C 	0.48920 0.33770 0.52960 -0.39000
H 	H 	0.46720 0.38750 0.49320 0.22500
F 	F 	0.64110 0.27670 0.62510 -0.36100
F 	F 	0.57560 0.41730 0.51170 -0.43900
C 	C 	0.55050 0.33960 0.54960 0.39900
C 	C 	0.58390 0.26980 0.60710 0.01100
C 	C 	0.55700 0.19870 0.64050 0.42800
N 	N 	0.18990 0.67450 0.04750 -0.26500
N 	N 	0.25000 0.35100 0.39440 -0.26900
N 	N 	0.18790 0.82690 0.90970 -0.24400
C 	C 	0.25290 0.49220 0.24770 0.20400
C 	C 	0.10200 0.75670 0.95380 -0.10200
C 	C 	0.19880 0.60430 0.11980 0.13500
C 	C 	0.19430 0.90070 0.84440 0.14500
C 	C 	0.03680 0.76110 0.93480 0.23700
C 	C 	0.12910 0.82020 0.90070 0.13300
C 	C 	0.13910 0.93880 0.79500 -0.06300
H 	H 	0.13230 0.98860 0.74820 0.09500
C 	C 	0.09850 0.88940 0.82890 -0.04400
H 	H 	0.05850 0.89820 0.80970 0.07800
C 	C 	0.13150 0.68840 0.02180 0.06200
C 	C 	0.25230 0.56780 0.17040 -0.16600
C 	C 	0.14370 0.57150 0.13610 -0.11500
H 	H 	0.13820 0.52330 0.18010 0.12700
C 	C 	0.24400 0.32670 0.30050 0.15800
H 	H 	0.23900 0.26040 0.28390 -0.00300
C 	C 	0.10250 0.62300 0.07640 -0.03300
H 	H 	0.06270 0.61810 0.07080 0.05400
C 	C 	0.26010 0.51810 0.34350 -0.22900
H 	H 	0.26580 0.58390 0.36160 0.15900
C 	C 	0.00280 0.68960 0.87790 -0.35400
H 	H 	0.01970 0.63690 0.85270 0.20900
C 	C 	0.24490 0.39350 0.22590 -0.21300
H 	H 	0.24020 0.37170 0.16180 0.14100
F 	F 	0.90950 0.63410 0.80030 -0.45500
C 	C 	0.25890 0.44770 0.41380 0.15700
H 	H 	0.26470 0.46820 0.47850 -0.01600
C 	C 	0.01080 0.83770 0.97040 -0.24900
H 	H 	0.03280 0.88750 0.00680 0.14200
F 	F 	0.85890 0.77670 0.87490 -0.36200
F 	F 	0.92440 0.91730 0.98830 -0.41600
C 	C 	0.94950 0.83960 0.95040 0.35200
C 	C 	0.91610 0.76980 0.89290 0.04500
C 	C 	0.94300 0.69870 0.85950 0.40100
Fe	Fe	0.25000 0.25000 0.50000 1.17800
Fe	Fe	0.25000 0.75000 -0.00000 1.15400
N 	N 	0.68990 0.82550 0.54750 -0.26800
N 	N 	0.75000 0.14900 0.89440 -0.25800
N 	N 	0.68790 0.67310 0.40970 -0.26300
C 	C 	0.75290 0.00780 0.74770 0.20400
C 	C 	0.60200 0.74330 0.45380 -0.19500
C 	C 	0.69880 0.89570 0.61980 0.13300
C 	C 	0.69430 0.59930 0.34440 0.13700
C 	C 	0.53680 0.73890 0.43480 0.31100
C 	C 	0.62910 0.67980 0.40070 0.15700
C 	C 	0.63910 0.56120 0.29500 -0.05600
H 	H 	0.63230 0.51140 0.24820 0.08800
C 	C 	0.59850 0.61060 0.32890 -0.06800
H 	H 	0.55850 0.60180 0.30970 0.08400
C 	C 	0.63150 0.81160 0.52180 0.14200
C 	C 	0.75230 0.93220 0.67040 -0.16000
C 	C 	0.64370 0.92850 0.63610 -0.09000
H 	H 	0.63820 0.97670 0.68010 0.12300
C 	C 	0.74400 0.17330 0.80050 0.16000
H 	H 	0.73900 0.23960 0.78390 -0.00100
C 	C 	0.60250 0.87700 0.57640 -0.06900
H 	H 	0.56270 0.88190 0.57080 0.08200
C 	C 	0.76010 0.98190 0.84350 -0.22300
H 	H 	0.76580 0.91610 0.86160 0.16300
C 	C 	0.50280 0.81040 0.37790 -0.40800
H 	H 	0.51970 0.86310 0.35270 0.22200
C 	C 	0.74490 0.10650 0.72590 -0.21100
H 	H 	0.74020 0.12830 0.66180 0.14800
F 	F 	0.40950 0.86590 0.30030 -0.46600
C 	C 	0.75890 0.05230 0.91380 0.15800
H 	H 	0.76470 0.03180 0.97850 0.00100
C 	C 	0.51080 0.66230 0.47040 -0.38900
H 	H 	0.53280 0.61250 0.50680 0.22700
F 	F 	0.35890 0.72330 0.37490 -0.36100
F 	F 	0.42440 0.58270 0.48830 -0.43800
C 	C 	0.44950 0.66040 0.45040 0.40000
C 	C 	0.41610 0.73020 0.39290 0.01100
C 	C 	0.44300 0.80130 0.35950 0.42900
N 	N 	0.81010 0.32550 0.95250 -0.26500
N 	N 	0.75000 0.64900 0.60560 -0.27000
N 	N 	0.81210 0.17310 0.09030 -0.27400
C 	C 	0.74710 0.50780 0.75230 0.20800
C 	C 	0.89800 0.24330 0.04620 -0.27800
C 	C 	0.80120 0.39570 0.88020 0.13100
C 	C 	0.80570 0.09930 0.15560 0.12900
C 	C 	0.96320 0.23890 0.06520 0.37100
C 	C 	0.87090 0.17980 0.09930 0.17800
C 	C 	0.86090 0.06120 0.20500 -0.04800
H 	H 	0.86770 0.01140 0.25180 0.08500
C 	C 	0.90150 0.11060 0.17110 -0.08900
H 	H 	0.94150 0.10180 0.19030 0.09000
C 	C 	0.86850 0.31160 0.97820 0.21400
C 	C 	0.74770 0.43220 0.82960 -0.15600
C 	C 	0.85630 0.42850 0.86390 -0.06800
H 	H 	0.86180 0.47670 0.81990 0.11500
C 	C 	0.75600 0.67330 0.69950 0.16300
H 	H 	0.76100 0.73960 0.71610 -0.00100
C 	C 	0.89750 0.37700 0.92360 -0.10200
H 	H 	0.93730 0.38190 0.92920 0.10600
C 	C 	0.73990 0.48190 0.65650 -0.23100
H 	H 	0.73420 0.41610 0.63840 0.15900
C 	C 	0.99720 0.31040 0.12210 -0.45100
H 	H 	0.98030 0.36310 0.14730 0.23200
C 	C 	0.75510 0.60650 0.77410 -0.21500
H 	H 	0.75980 0.62830 0.83820 0.15600
F 	F 	0.09050 0.36590 0.19970 -0.47000
C 	C 	0.74110 0.55230 0.58620 0.15900
H 	H 	0.73530 0.53180 0.52150 -0.01600
C 	C 	0.98920 0.16230 0.02960 -0.50900
H 	H 	0.96720 0.11250 0.99320 0.29900
F 	F 	0.14110 0.22330 0.12510 -0.36100
F 	F 	0.07560 0.08270 0.01170 -0.45900
C 	C 	0.05050 0.16040 0.04960 0.43600
C 	C 	0.08390 0.23020 0.10710 -0.01700
C 	C 	0.05700 0.30130 0.14050 0.44800
N 	N 	0.81010 0.67450 0.45250 -0.26800
N 	N 	0.75000 0.35100 0.10560 -0.27500
N 	N 	0.81210 0.82690 0.59030 -0.26300
C 	C 	0.74710 0.49220 0.25230 0.20600
C 	C 	0.89800 0.75670 0.54620 -0.19400
C 	C 	0.80120 0.60430 0.38020 0.13200
C 	C 	0.80570 0.90070 0.65560 0.13700
C 	C 	0.96320 0.76110 0.56520 0.30800
C 	C 	0.87090 0.82020 0.59930 0.15700
C 	C 	0.86090 0.93880 0.70500 -0.05600
H 	H 	0.86770 0.98860 0.75180 0.09200
C 	C 	0.90150 0.88940 0.67110 -0.06700
H 	H 	0.94150 0.89820 0.69030 0.08500
C 	C 	0.86850 0.68840 0.47820 0.14100
C 	C 	0.74770 0.56780 0.32960 -0.16200
C 	C 	0.85630 0.57150 0.36390 -0.09100
H 	H 	0.86180 0.52330 0.31990 0.11900
C 	C 	0.75600 0.32670 0.19950 0.16000
H 	H 	0.76100 0.26040 0.21610 -0.00200
C 	C 	0.89750 0.62300 0.42360 -0.07000
H 	H 	0.93730 0.61810 0.42920 0.08000
C 	C 	0.73990 0.51810 0.15650 -0.23400
H 	H 	0.73420 0.58390 0.13840 0.15400
C 	C 	0.99720 0.68960 0.62210 -0.40500
H 	H 	0.98030 0.63690 0.64730 0.22300
C 	C 	0.75510 0.39350 0.27410 -0.21500
H 	H 	0.75980 0.37170 0.33820 0.14900
F 	F 	0.09050 0.63410 0.69970 -0.46100
C 	C 	0.74110 0.44770 0.08620 0.15500
H 	H 	0.73530 0.46820 0.02150 -0.03200
C 	C 	0.98920 0.83770 0.52960 -0.38600
H 	H 	0.96720 0.88750 0.49320 0.22400
F 	F 	0.14110 0.77670 0.62510 -0.36200
F 	F 	0.07560 0.91730 0.51170 -0.43900
C 	C 	0.05050 0.83960 0.54960 0.39600
C 	C 	0.08390 0.76980 0.60710 0.01300
C 	C 	0.05700 0.69870 0.64050 0.42500
N 	N 	0.68990 0.17450 0.04750 -0.26500
N 	N 	0.75000 0.85100 0.39440 -0.26800
N 	N 	0.68790 0.32690 0.90970 -0.24600
C 	C 	0.75290 0.99220 0.24770 0.19700
C 	C 	0.60200 0.25670 0.95380 -0.10700
C 	C 	0.69880 0.10430 0.11980 0.13400
C 	C 	0.69430 0.40070 0.84440 0.14600
C 	C 	0.53680 0.26110 0.93480 0.24000
C 	C 	0.62910 0.32020 0.90070 0.13500
C 	C 	0.63910 0.43880 0.79500 -0.06300
H 	H 	0.63230 0.48860 0.74820 0.09500
C 	C 	0.59850 0.38940 0.82890 -0.04500
H 	H 	0.55850 0.39820 0.80970 0.07900
C 	C 	0.63150 0.18840 0.02180 0.06800
C 	C 	0.75230 0.06780 0.17040 -0.16200
C 	C 	0.64370 0.07150 0.13610 -0.11200
H 	H 	0.63820 0.02330 0.18010 0.12700
C 	C 	0.74400 0.82670 0.30050 0.15600
H 	H 	0.73900 0.76040 0.28390 -0.00200
C 	C 	0.60250 0.12300 0.07640 -0.03600
H 	H 	0.56270 0.11810 0.07080 0.05600
C 	C 	0.76010 0.01810 0.34350 -0.22100
H 	H 	0.76580 0.08390 0.36160 0.15600
C 	C 	0.50280 0.18960 0.87790 -0.35500
H 	H 	0.51970 0.13690 0.85270 0.21000
C 	C 	0.74490 0.89350 0.22590 -0.20900
H 	H 	0.74020 0.87170 0.16180 0.13900
F 	F 	0.40950 0.13410 0.80030 -0.45600
C 	C 	0.75890 0.94770 0.41380 0.15200
H 	H 	0.76470 0.96820 0.47850 -0.01400
C 	C 	0.51080 0.33770 0.97040 -0.25400
H 	H 	0.53280 0.38750 0.00680 0.14600
F 	F 	0.35890 0.27670 0.87490 -0.36200
F 	F 	0.42440 0.41730 0.98830 -0.41600
C 	C 	0.44950 0.33960 0.95040 0.35400
C 	C 	0.41610 0.26980 0.89290 0.04400
C 	C 	0.44300 0.19870 0.85950 0.40100
Fe	Fe	0.75000 0.25000 -0.00000 1.15600
Fe	Fe	0.75000 0.75000 0.50000 1.17800
