data_crystal

_cell_length_a 7.31810
_cell_length_b 29.04200
_cell_length_c 23.59300
_cell_angle_alpha 90.00000
_cell_angle_beta  91.72100
_cell_angle_gamma 90.00000

_symmetry_space_group_name_	'P 1'
_symmetry_space_group_name_H-M	'P 1'

loop_
_symmetry_equiv_pos_as_xyz
  x,y,z

loop_
_atom_site_label
_atom_site_type_symbol
_atom_site_fract_x
_atom_site_fract_y
_atom_site_fract_z
_atom_site_charge
C 	C 	0.77850 0.71122 0.16395 0.39300
C 	C 	0.87210 0.67875 0.20449 -0.20800
C 	C 	0.05560 0.68478 0.22054 0.18400
H 	H 	0.12170 0.70890 0.20540 -0.00400
C 	C 	0.13980 0.65496 0.25890 -0.31300
H 	H 	0.26150 0.65970 0.26990 0.18200
C 	C 	0.04440 0.61783 0.28130 0.38700
C 	C 	0.86340 0.61187 0.26432 -0.31000
H 	H 	0.79790 0.58720 0.27850 0.26900
C 	C 	0.77800 0.64203 0.22650 0.21000
H 	H 	0.65600 0.63750 0.21580 0.03000
C 	C 	0.14790 0.58595 0.32337 -0.51600
C 	C 	0.01570 0.55297 0.35406 0.97100
C 	C 	0.28210 0.55669 0.28849 0.98800
C 	C 	0.24650 0.61408 0.37091 0.38500
C 	C 	0.15240 0.65154 0.39309 -0.31400
H 	H 	0.03860 0.65970 0.37760 0.17500
C 	C 	0.22760 0.67657 0.43794 0.20200
H 	H 	0.16260 0.70110 0.45260 -0.01300
C 	C 	0.39750 0.66569 0.46127 -0.21700
C 	C 	0.49280 0.62893 0.43863 0.20900
H 	H 	0.60860 0.62160 0.45330 0.01200
C 	C 	0.41670 0.60313 0.39444 -0.31800
H 	H 	0.48080 0.57810 0.38040 0.24500
C 	C 	0.47700 0.69229 0.51053 0.39900
C 	C 	0.44430 0.80185 0.16695 0.40500
C 	C 	0.35980 0.82793 0.21446 -0.22500
C 	C 	0.19260 0.81510 0.23580 0.21300
H 	H 	0.12930 0.79020 0.22020 -0.01400
C 	C 	0.12010 0.83936 0.28035 -0.33300
H 	H 	0.00940 0.83000 0.29500 0.17800
C 	C 	0.20940 0.87725 0.30350 0.40200
C 	C 	0.37560 0.89041 0.28177 -0.32700
H 	H 	0.43730 0.91590 0.29660 0.27500
C 	C 	0.44890 0.86564 0.23804 0.23400
H 	H 	0.56100 0.87450 0.22410 0.01800
C 	C 	0.11140 0.90556 0.34948 -0.52800
C 	C 	0.24740 0.93541 0.38617 0.99100
C 	C 	0.97930 0.93825 0.31693 0.98800
C 	C 	0.01410 0.87409 0.39120 0.39100
C 	C 	0.11250 0.83719 0.41529 -0.31500
H 	H 	0.23140 0.83170 0.40430 0.18200
C 	C 	0.03550 0.80873 0.45524 0.19000
H 	H 	0.10330 0.78470 0.47130 -0.00700
C 	C 	0.85760 0.81620 0.47122 -0.20700
C 	C 	0.76010 0.85257 0.44756 0.21000
H 	H 	0.64040 0.85770 0.45820 0.02900
C 	C 	0.83730 0.88132 0.40858 -0.31800
H 	H 	0.76990 0.90590 0.39370 0.26400
C 	C 	0.77170 0.78641 0.51532 0.38700
C 	C 	0.08330 0.85893 0.07750 0.11400
H 	H 	0.12720 0.84290 0.04660 0.01400
C 	C 	0.92970 0.87774 0.14847 0.03900
H 	H 	0.84300 0.87710 0.17650 0.07900
C 	C 	0.05650 0.91087 0.14269 0.00600
H 	H 	0.07380 0.93660 0.16570 0.15800
C 	C 	0.29860 0.92511 0.07276 0.08700
C 	C 	0.47830 0.91936 0.08054 -0.06600
H 	H 	0.53070 0.89680 0.10380 0.09600
C 	C 	0.58040 0.95151 0.04945 -0.00600
H 	H 	0.70750 0.95230 0.04990 0.10000
C 	C 	0.47300 0.98129 0.01871 0.02300
C 	C 	0.04710 0.60530 0.08600 -1.12000
H 	H 	0.92290 0.61590 0.08670 0.41100
H 	H 	0.07350 0.58680 0.11900 0.45400
H 	H 	0.06390 0.58720 0.05250 0.44700
C 	C 	0.17760 0.64720 0.08580 0.41000
Cu	Cu	0.76402 0.78893 0.09261 0.92000
Cu	Cu	0.47225 0.73205 0.08769 0.92800
F 	F 	0.88450 0.57521 0.37948 -0.52500
F 	F 	0.93680 0.52204 0.31879 -0.43500
F 	F 	0.10550 0.52817 0.39432 -0.48300
F 	F 	0.19870 0.53942 0.24203 -0.42000
F 	F 	0.35290 0.52065 0.31691 -0.44600
F 	F 	0.42100 0.58155 0.27129 -0.51000
F 	F 	0.16480 0.95262 0.43111 -0.46200
F 	F 	0.31420 0.97114 0.35803 -0.43500
F 	F 	0.38930 0.91112 0.40532 -0.51500
F 	F 	0.06360 0.96098 0.27606 -0.42000
F 	F 	0.90530 0.97018 0.35019 -0.42900
F 	F 	0.84170 0.91540 0.29203 -0.50400
N 	N 	0.94690 0.84514 0.10706 -0.18200
N 	N 	0.15460 0.89929 0.09657 -0.11700
N 	N 	0.25610 0.68058 0.08428 -0.26700
O 	O 	0.85980 0.74779 0.15187 -0.40000
O 	O 	0.62460 0.69865 0.14427 -0.39700
O 	O 	0.37920 0.72378 0.53005 -0.40000
O 	O 	0.63250 0.68059 0.52944 -0.40500
O 	O 	0.59220 0.81720 0.14883 -0.40600
O 	O 	0.36240 0.76666 0.14893 -0.39800
O 	O 	0.86530 0.75386 0.53602 -0.39200
O 	O 	0.61080 0.79702 0.52823 -0.39600
S 	S 	0.24476 0.96978 0.02746 0.13000
C 	C 	0.22150 0.21122 0.33605 0.39400
C 	C 	0.12790 0.17875 0.29551 -0.20500
C 	C 	0.94440 0.18478 0.27946 0.18200
H 	H 	0.87830 0.20890 0.29460 -0.00200
C 	C 	0.86020 0.15496 0.24110 -0.31100
H 	H 	0.73850 0.15970 0.23010 0.18300
C 	C 	0.95560 0.11783 0.21870 0.38500
C 	C 	0.13660 0.11187 0.23568 -0.30600
H 	H 	0.20210 0.08720 0.22150 0.26800
C 	C 	0.22200 0.14203 0.27350 0.20900
H 	H 	0.34400 0.13750 0.28420 0.03100
C 	C 	0.85210 0.08595 0.17663 -0.51500
C 	C 	0.98430 0.05297 0.14594 0.96900
C 	C 	0.71790 0.05669 0.21151 0.98800
C 	C 	0.75350 0.11408 0.12909 0.38500
C 	C 	0.84760 0.15154 0.10691 -0.31400
H 	H 	0.96140 0.15970 0.12240 0.17400
C 	C 	0.77240 0.17657 0.06206 0.20100
H 	H 	0.83740 0.20110 0.04740 -0.01300
C 	C 	0.60250 0.16569 0.03873 -0.21600
C 	C 	0.50720 0.12893 0.06137 0.20800
H 	H 	0.39140 0.12160 0.04670 0.01200
C 	C 	0.58330 0.10313 0.10556 -0.31700
H 	H 	0.51920 0.07810 0.11960 0.24500
C 	C 	0.52300 0.19229 0.98947 0.39900
C 	C 	0.55570 0.30185 0.33305 0.40500
C 	C 	0.64020 0.32793 0.28554 -0.22500
C 	C 	0.80740 0.31510 0.26420 0.21300
H 	H 	0.87070 0.29020 0.27980 -0.01400
C 	C 	0.87990 0.33936 0.21965 -0.33300
H 	H 	0.99060 0.33000 0.20500 0.17800
C 	C 	0.79060 0.37725 0.19650 0.40200
C 	C 	0.62440 0.39041 0.21823 -0.32700
H 	H 	0.56270 0.41590 0.20340 0.27500
C 	C 	0.55110 0.36564 0.26196 0.23400
H 	H 	0.43900 0.37450 0.27590 0.01800
C 	C 	0.88860 0.40556 0.15052 -0.52700
C 	C 	0.75260 0.43541 0.11383 0.99100
C 	C 	0.02070 0.43825 0.18307 0.98800
C 	C 	0.98590 0.37409 0.10880 0.39000
C 	C 	0.88750 0.33719 0.08471 -0.31400
H 	H 	0.76860 0.33170 0.09570 0.18200
C 	C 	0.96450 0.30873 0.04476 0.18800
H 	H 	0.89670 0.28470 0.02870 -0.00600
C 	C 	0.14240 0.31620 0.02878 -0.20400
C 	C 	0.23990 0.35257 0.05244 0.20900
H 	H 	0.35960 0.35770 0.04180 0.03000
C 	C 	0.16270 0.38132 0.09142 -0.31700
H 	H 	0.23010 0.40590 0.10630 0.26300
C 	C 	0.22830 0.28641 0.98468 0.38600
C 	C 	0.91670 0.35893 0.42250 0.11400
H 	H 	0.87280 0.34290 0.45340 0.01400
C 	C 	0.07030 0.37774 0.35153 0.04000
H 	H 	0.15700 0.37710 0.32350 0.07800
C 	C 	0.94350 0.41087 0.35731 0.00600
H 	H 	0.92620 0.43660 0.33430 0.15800
C 	C 	0.70140 0.42511 0.42724 0.08700
C 	C 	0.52170 0.41936 0.41946 -0.06600
H 	H 	0.46930 0.39680 0.39620 0.09600
C 	C 	0.41960 0.45151 0.45055 -0.00600
H 	H 	0.29250 0.45230 0.45010 0.10000
C 	C 	0.52700 0.48129 0.48129 0.02400
C 	C 	0.95290 0.10530 0.41400 -1.12300
H 	H 	0.07710 0.11590 0.41330 0.41200
H 	H 	0.92650 0.08680 0.38100 0.45400
H 	H 	0.93610 0.08720 0.44750 0.44800
C 	C 	0.82240 0.14720 0.41420 0.41000
Cu	Cu	0.23598 0.28893 0.40739 0.92000
Cu	Cu	0.52775 0.23205 0.41231 0.92800
F 	F 	0.11550 0.07521 0.12052 -0.52400
F 	F 	0.06320 0.02204 0.18121 -0.43500
F 	F 	0.89450 0.02817 0.10568 -0.48300
F 	F 	0.80130 0.03942 0.25797 -0.42000
F 	F 	0.64710 0.02065 0.18309 -0.44600
F 	F 	0.57900 0.08155 0.22871 -0.51000
F 	F 	0.83520 0.45262 0.06889 -0.46200
F 	F 	0.68580 0.47114 0.14197 -0.43500
F 	F 	0.61070 0.41112 0.09468 -0.51500
F 	F 	0.93640 0.46098 0.22394 -0.42000
F 	F 	0.09470 0.47018 0.14981 -0.42800
F 	F 	0.15830 0.41540 0.20797 -0.50400
N 	N 	0.05310 0.34514 0.39294 -0.18200
N 	N 	0.84540 0.39929 0.40343 -0.11700
N 	N 	0.74390 0.18058 0.41572 -0.26700
O 	O 	0.14020 0.24779 0.34813 -0.39900
O 	O 	0.37540 0.19865 0.35573 -0.39600
O 	O 	0.62080 0.22378 0.96995 -0.40000
O 	O 	0.36750 0.18059 0.97056 -0.40500
O 	O 	0.40780 0.31720 0.35117 -0.40600
O 	O 	0.63760 0.26666 0.35107 -0.39800
O 	O 	0.13470 0.25386 0.96398 -0.39200
O 	O 	0.38920 0.29702 0.97177 -0.39500
S 	S 	0.75524 0.46978 0.47254 0.13100
C 	C 	0.22150 0.28878 0.83605 0.39400
C 	C 	0.12790 0.32125 0.79551 -0.20700
C 	C 	0.94440 0.31522 0.77946 0.18500
H 	H 	0.87830 0.29110 0.79460 -0.00300
C 	C 	0.86020 0.34504 0.74110 -0.31200
H 	H 	0.73850 0.34030 0.73010 0.18300
C 	C 	0.95560 0.38217 0.71870 0.38800
C 	C 	0.13660 0.38813 0.73568 -0.30900
H 	H 	0.20210 0.41280 0.72150 0.26900
C 	C 	0.22200 0.35797 0.77350 0.21000
H 	H 	0.34400 0.36250 0.78420 0.03000
C 	C 	0.85210 0.41405 0.67663 -0.51600
C 	C 	0.98430 0.44703 0.64594 0.97100
C 	C 	0.71790 0.44331 0.71151 0.98800
C 	C 	0.75350 0.38592 0.62909 0.38500
C 	C 	0.84760 0.34846 0.60691 -0.31400
H 	H 	0.96140 0.34030 0.62240 0.17500
C 	C 	0.77240 0.32343 0.56206 0.20200
H 	H 	0.83740 0.29890 0.54740 -0.01300
C 	C 	0.60250 0.33431 0.53873 -0.21700
C 	C 	0.50720 0.37107 0.56137 0.20900
H 	H 	0.39140 0.37840 0.54670 0.01200
C 	C 	0.58330 0.39687 0.60556 -0.31800
H 	H 	0.51920 0.42190 0.61960 0.24500
C 	C 	0.52300 0.30771 0.48947 0.39900
C 	C 	0.55570 0.19815 0.83305 0.40500
C 	C 	0.64020 0.17207 0.78554 -0.22500
C 	C 	0.80740 0.18490 0.76420 0.21300
H 	H 	0.87070 0.20980 0.77980 -0.01400
C 	C 	0.87990 0.16064 0.71965 -0.33300
H 	H 	0.99060 0.17000 0.70500 0.17800
C 	C 	0.79060 0.12275 0.69650 0.40200
C 	C 	0.62440 0.10959 0.71823 -0.32700
H 	H 	0.56270 0.08410 0.70340 0.27500
C 	C 	0.55110 0.13436 0.76196 0.23400
H 	H 	0.43900 0.12550 0.77590 0.01800
C 	C 	0.88860 0.09444 0.65052 -0.52800
C 	C 	0.75260 0.06459 0.61383 0.99100
C 	C 	0.02070 0.06175 0.68307 0.98800
C 	C 	0.98590 0.12591 0.60880 0.39100
C 	C 	0.88750 0.16281 0.58471 -0.31500
H 	H 	0.76860 0.16830 0.59570 0.18200
C 	C 	0.96450 0.19127 0.54476 0.19000
H 	H 	0.89670 0.21530 0.52870 -0.00700
C 	C 	0.14240 0.18380 0.52878 -0.20700
C 	C 	0.23990 0.14743 0.55244 0.21000
H 	H 	0.35960 0.14230 0.54180 0.02900
C 	C 	0.16270 0.11868 0.59142 -0.31800
H 	H 	0.23010 0.09410 0.60630 0.26400
C 	C 	0.22830 0.21359 0.48468 0.38700
C 	C 	0.91670 0.14107 0.92250 0.11400
H 	H 	0.87280 0.15710 0.95340 0.01400
C 	C 	0.07030 0.12226 0.85153 0.03900
H 	H 	0.15700 0.12290 0.82350 0.07900
C 	C 	0.94350 0.08913 0.85731 0.00600
H 	H 	0.92620 0.06340 0.83430 0.15800
C 	C 	0.70140 0.07489 0.92724 0.08700
C 	C 	0.52170 0.08064 0.91946 -0.06600
H 	H 	0.46930 0.10320 0.89620 0.09600
C 	C 	0.41960 0.04849 0.95055 -0.00600
H 	H 	0.29250 0.04770 0.95010 0.10000
C 	C 	0.52700 0.01871 0.98129 0.02300
C 	C 	0.95290 0.39470 0.91400 -1.12000
H 	H 	0.07710 0.38410 0.91330 0.41100
H 	H 	0.92650 0.41320 0.88100 0.45400
H 	H 	0.93610 0.41280 0.94750 0.44700
C 	C 	0.82240 0.35280 0.91420 0.41000
Cu	Cu	0.23598 0.21107 0.90739 0.92000
Cu	Cu	0.52775 0.26795 0.91231 0.92800
F 	F 	0.11550 0.42479 0.62052 -0.52500
F 	F 	0.06320 0.47796 0.68121 -0.43500
F 	F 	0.89450 0.47183 0.60568 -0.48300
F 	F 	0.80130 0.46058 0.75797 -0.42000
F 	F 	0.64710 0.47935 0.68309 -0.44600
F 	F 	0.57900 0.41845 0.72871 -0.51000
F 	F 	0.83520 0.04738 0.56889 -0.46200
F 	F 	0.68580 0.02886 0.64197 -0.43500
F 	F 	0.61070 0.08888 0.59468 -0.51500
F 	F 	0.93640 0.03902 0.72394 -0.42000
F 	F 	0.09470 0.02982 0.64981 -0.42900
F 	F 	0.15830 0.08460 0.70797 -0.50400
N 	N 	0.05310 0.15486 0.89294 -0.18200
N 	N 	0.84540 0.10071 0.90343 -0.11700
N 	N 	0.74390 0.31942 0.91572 -0.26700
O 	O 	0.14020 0.25221 0.84813 -0.40000
O 	O 	0.37540 0.30135 0.85573 -0.39700
O 	O 	0.62080 0.27622 0.46995 -0.40000
O 	O 	0.36750 0.31941 0.47056 -0.40500
O 	O 	0.40780 0.18280 0.85117 -0.40600
O 	O 	0.63760 0.23334 0.85107 -0.39800
O 	O 	0.13470 0.24614 0.46398 -0.39200
O 	O 	0.38920 0.20298 0.47177 -0.39600
S 	S 	0.75524 0.03022 0.97254 0.13000
C 	C 	0.77850 0.78878 0.66395 0.39400
C 	C 	0.87210 0.82125 0.70449 -0.20500
C 	C 	0.05560 0.81522 0.72054 0.18200
H 	H 	0.12170 0.79110 0.70540 -0.00200
C 	C 	0.13980 0.84504 0.75890 -0.31100
H 	H 	0.26150 0.84030 0.76990 0.18300
C 	C 	0.04440 0.88217 0.78130 0.38500
C 	C 	0.86340 0.88813 0.76432 -0.30600
H 	H 	0.79790 0.91280 0.77850 0.26800
C 	C 	0.77800 0.85797 0.72650 0.20900
H 	H 	0.65600 0.86250 0.71580 0.03100
C 	C 	0.14790 0.91405 0.82337 -0.51500
C 	C 	0.01570 0.94703 0.85406 0.96900
C 	C 	0.28210 0.94331 0.78849 0.98800
C 	C 	0.24650 0.88592 0.87091 0.38500
C 	C 	0.15240 0.84846 0.89309 -0.31400
H 	H 	0.03860 0.84030 0.87760 0.17400
C 	C 	0.22760 0.82343 0.93794 0.20100
H 	H 	0.16260 0.79890 0.95260 -0.01300
C 	C 	0.39750 0.83431 0.96127 -0.21600
C 	C 	0.49280 0.87107 0.93863 0.20800
H 	H 	0.60860 0.87840 0.95330 0.01200
C 	C 	0.41670 0.89687 0.89444 -0.31700
H 	H 	0.48080 0.92190 0.88040 0.24500
C 	C 	0.47700 0.80771 0.01053 0.39900
C 	C 	0.44430 0.69815 0.66695 0.40500
C 	C 	0.35980 0.67207 0.71446 -0.22500
C 	C 	0.19260 0.68490 0.73580 0.21300
H 	H 	0.12930 0.70980 0.72020 -0.01400
C 	C 	0.12010 0.66064 0.78035 -0.33300
H 	H 	0.00940 0.67000 0.79500 0.17800
C 	C 	0.20940 0.62275 0.80350 0.40200
C 	C 	0.37560 0.60959 0.78177 -0.32700
H 	H 	0.43730 0.58410 0.79660 0.27500
C 	C 	0.44890 0.63436 0.73804 0.23400
H 	H 	0.56100 0.62550 0.72410 0.01800
C 	C 	0.11140 0.59444 0.84948 -0.52700
C 	C 	0.24740 0.56459 0.88617 0.99100
C 	C 	0.97930 0.56175 0.81693 0.98800
C 	C 	0.01410 0.62591 0.89120 0.39000
C 	C 	0.11250 0.66281 0.91529 -0.31400
H 	H 	0.23140 0.66830 0.90430 0.18200
C 	C 	0.03550 0.69127 0.95524 0.18800
H 	H 	0.10330 0.71530 0.97130 -0.00600
C 	C 	0.85760 0.68380 0.97122 -0.20400
C 	C 	0.76010 0.64743 0.94756 0.20900
H 	H 	0.64040 0.64230 0.95820 0.03000
C 	C 	0.83730 0.61868 0.90858 -0.31700
H 	H 	0.76990 0.59410 0.89370 0.26300
C 	C 	0.77170 0.71359 0.01532 0.38600
C 	C 	0.08330 0.64107 0.57750 0.11400
H 	H 	0.12720 0.65710 0.54660 0.01400
C 	C 	0.92970 0.62226 0.64847 0.04000
H 	H 	0.84300 0.62290 0.67650 0.07800
C 	C 	0.05650 0.58913 0.64269 0.00600
H 	H 	0.07380 0.56340 0.66570 0.15800
C 	C 	0.29860 0.57489 0.57276 0.08700
C 	C 	0.47830 0.58064 0.58054 -0.06600
H 	H 	0.53070 0.60320 0.60380 0.09600
C 	C 	0.58040 0.54849 0.54945 -0.00600
H 	H 	0.70750 0.54770 0.54990 0.10000
C 	C 	0.47300 0.51871 0.51871 0.02400
C 	C 	0.04710 0.89470 0.58600 -1.12300
H 	H 	0.92290 0.88410 0.58670 0.41200
H 	H 	0.07350 0.91320 0.61900 0.45400
H 	H 	0.06390 0.91280 0.55250 0.44800
C 	C 	0.17760 0.85280 0.58580 0.41000
Cu	Cu	0.76402 0.71107 0.59261 0.92000
Cu	Cu	0.47225 0.76795 0.58769 0.92800
F 	F 	0.88450 0.92479 0.87948 -0.52400
F 	F 	0.93680 0.97796 0.81879 -0.43500
F 	F 	0.10550 0.97183 0.89432 -0.48300
F 	F 	0.19870 0.96058 0.74203 -0.42000
F 	F 	0.35290 0.97935 0.81691 -0.44600
F 	F 	0.42100 0.91845 0.77129 -0.51000
F 	F 	0.16480 0.54738 0.93111 -0.46200
F 	F 	0.31420 0.52886 0.85803 -0.43500
F 	F 	0.38930 0.58888 0.90532 -0.51500
F 	F 	0.06360 0.53902 0.77606 -0.42000
F 	F 	0.90530 0.52982 0.85019 -0.42800
F 	F 	0.84170 0.58460 0.79203 -0.50400
N 	N 	0.94690 0.65486 0.60706 -0.18200
N 	N 	0.15460 0.60071 0.59657 -0.11700
N 	N 	0.25610 0.81942 0.58428 -0.26700
O 	O 	0.85980 0.75221 0.65187 -0.39900
O 	O 	0.62460 0.80135 0.64427 -0.39600
O 	O 	0.37920 0.77622 0.03005 -0.40000
O 	O 	0.63250 0.81941 0.02944 -0.40500
O 	O 	0.59220 0.68280 0.64883 -0.40600
O 	O 	0.36240 0.73334 0.64893 -0.39800
O 	O 	0.86530 0.74614 0.03602 -0.39200
O 	O 	0.61080 0.70298 0.02823 -0.39500
S 	S 	0.24476 0.53022 0.52746 0.13100
