data_crystal

_cell_length_a 7.63910
_cell_length_b 21.12700
_cell_length_c 19.57800
_cell_angle_alpha 90.00000
_cell_angle_beta  98.30600
_cell_angle_gamma 90.00000

_symmetry_space_group_name_	'P 1'
_symmetry_space_group_name_H-M	'P 1'

loop_
_symmetry_equiv_pos_as_xyz
  x,y,z

loop_
_atom_site_label
_atom_site_type_symbol
_atom_site_fract_x
_atom_site_fract_y
_atom_site_fract_z
_atom_site_charge
Pr	Pr	0.98920 0.27663 0.25526 2.06600
O 	O 	0.82810 0.32661 0.14707 -0.42800
O 	O 	0.70060 0.23927 0.17447 -0.57500
C 	C 	0.71640 0.28440 0.13170 0.39700
C 	C 	0.60200 0.28480 0.06400 -0.15000
C 	C 	0.55290 0.34130 0.03200 0.10300
C 	C 	0.54840 0.22820 0.03200 0.10500
O 	O 	0.31570 0.28991 0.32307 -0.58700
O 	O 	0.09160 0.31790 0.37393 -0.42300
C 	C 	0.25560 0.31070 0.37620 0.38600
C 	C 	0.37860 0.32230 0.43990 -0.11100
C 	C 	0.55830 0.32450 0.43720 -0.04500
H 	H 	0.59740 0.32530 0.39440 0.06100
C 	C 	0.31750 0.32540 0.50330 0.12800
O 	O 	0.23270 0.16728 0.28596 -0.54000
O 	O 	0.98200 0.16238 0.21770 -0.44300
C 	C 	0.11150 0.13550 0.25050 0.41600
C 	C 	0.12110 0.06560 0.24990 -0.15500
C 	C 	0.24090 0.03310 0.29720 0.08600
C 	C 	0.00460 0.03190 0.20240 0.10400
N 	N 	0.63300 0.40040 0.05230 -0.06200
N 	N 	0.59800 0.17660 0.05640 -0.08600
N 	N 	0.36100 0.05740 0.34970 -0.08700
N 	N 	0.88000 0.05980 0.16080 -0.08000
N 	N 	0.14800 0.33880 0.50920 -0.07500
Pr	Pr	0.48920 0.77663 0.25526 2.06600
O 	O 	0.32810 0.82661 0.14707 -0.42800
O 	O 	0.20060 0.73927 0.17447 -0.57400
C 	C 	0.21640 0.78440 0.13170 0.39600
C 	C 	0.10200 0.78480 0.06400 -0.15000
C 	C 	0.05290 0.84130 0.03200 0.10200
C 	C 	0.04840 0.72820 0.03200 0.10500
O 	O 	0.81570 0.78991 0.32307 -0.58900
O 	O 	0.59160 0.81790 0.37393 -0.42500
C 	C 	0.75560 0.81070 0.37620 0.38700
C 	C 	0.87860 0.82230 0.43990 -0.11300
C 	C 	0.05830 0.82450 0.43720 -0.04300
H 	H 	0.09740 0.82530 0.39440 0.06100
C 	C 	0.81750 0.82540 0.50330 0.12800
O 	O 	0.73270 0.66728 0.28596 -0.54000
O 	O 	0.48200 0.66238 0.21770 -0.43900
C 	C 	0.61150 0.63550 0.25050 0.41200
C 	C 	0.62110 0.56560 0.24990 -0.15400
C 	C 	0.74090 0.53310 0.29720 0.08600
C 	C 	0.50460 0.53190 0.20240 0.10100
N 	N 	0.13300 0.90040 0.05230 -0.06200
N 	N 	0.09800 0.67660 0.05640 -0.08500
N 	N 	0.86100 0.55740 0.34970 -0.08700
N 	N 	0.38000 0.55980 0.16080 -0.07800
N 	N 	0.64800 0.83880 0.50920 -0.07600
Pr	Pr	0.01080 0.27663 0.74474 2.06500
O 	O 	0.17190 0.32661 0.85293 -0.42900
O 	O 	0.29940 0.23927 0.82553 -0.57600
C 	C 	0.28360 0.28440 0.86830 0.39600
C 	C 	0.39800 0.28480 0.93600 -0.15100
C 	C 	0.44710 0.34130 0.96800 0.10200
C 	C 	0.45160 0.22820 0.96800 0.10400
O 	O 	0.68430 0.28991 0.67693 -0.58800
O 	O 	0.90840 0.31790 0.62607 -0.42300
C 	C 	0.74440 0.31070 0.62380 0.38600
C 	C 	0.62140 0.32230 0.56010 -0.11100
C 	C 	0.44170 0.32450 0.56280 -0.04500
H 	H 	0.40260 0.32530 0.60560 0.06100
C 	C 	0.68250 0.32540 0.49670 0.12800
O 	O 	0.76730 0.16728 0.71404 -0.54000
O 	O 	0.01800 0.16238 0.78230 -0.44300
C 	C 	0.88850 0.13550 0.74950 0.41600
C 	C 	0.87890 0.06560 0.75010 -0.15500
C 	C 	0.75910 0.03310 0.70280 0.08600
C 	C 	0.99540 0.03190 0.79760 0.10400
N 	N 	0.36700 0.40040 0.94770 -0.06200
N 	N 	0.40200 0.17660 0.94360 -0.08600
N 	N 	0.63900 0.05740 0.65030 -0.08700
N 	N 	0.12000 0.05980 0.83920 -0.08000
N 	N 	0.85200 0.33880 0.49080 -0.07500
Pr	Pr	0.51080 0.77663 0.74474 2.06600
O 	O 	0.67190 0.82661 0.85293 -0.42800
O 	O 	0.79940 0.73927 0.82553 -0.57400
C 	C 	0.78360 0.78440 0.86830 0.39600
C 	C 	0.89800 0.78480 0.93600 -0.15000
C 	C 	0.94710 0.84130 0.96800 0.10200
C 	C 	0.95160 0.72820 0.96800 0.10500
O 	O 	0.18430 0.78991 0.67693 -0.58900
O 	O 	0.40840 0.81790 0.62607 -0.42500
C 	C 	0.24440 0.81070 0.62380 0.38700
C 	C 	0.12140 0.82230 0.56010 -0.11300
C 	C 	0.94170 0.82450 0.56280 -0.04300
H 	H 	0.90260 0.82530 0.60560 0.06100
C 	C 	0.18250 0.82540 0.49670 0.12800
O 	O 	0.26730 0.66728 0.71404 -0.54000
O 	O 	0.51800 0.66238 0.78230 -0.43900
C 	C 	0.38850 0.63550 0.74950 0.41200
C 	C 	0.37890 0.56560 0.75010 -0.15400
C 	C 	0.25910 0.53310 0.70280 0.08600
C 	C 	0.49540 0.53190 0.79760 0.10100
N 	N 	0.86700 0.90040 0.94770 -0.06200
N 	N 	0.90200 0.67660 0.94360 -0.08500
N 	N 	0.13900 0.55740 0.65030 -0.08700
N 	N 	0.62000 0.55980 0.83920 -0.07800
N 	N 	0.35200 0.83880 0.49080 -0.07600
Pr	Pr	0.01080 0.72337 0.74474 2.06500
O 	O 	0.17190 0.67339 0.85293 -0.42900
O 	O 	0.29940 0.76073 0.82553 -0.57600
C 	C 	0.28360 0.71560 0.86830 0.39600
C 	C 	0.39800 0.71520 0.93600 -0.15100
C 	C 	0.44710 0.65870 0.96800 0.10200
C 	C 	0.45160 0.77180 0.96800 0.10400
O 	O 	0.68430 0.71009 0.67693 -0.58800
O 	O 	0.90840 0.68210 0.62607 -0.42300
C 	C 	0.74440 0.68930 0.62380 0.38600
C 	C 	0.62140 0.67770 0.56010 -0.11100
C 	C 	0.44170 0.67550 0.56280 -0.04500
H 	H 	0.40260 0.67470 0.60560 0.06100
C 	C 	0.68250 0.67460 0.49670 0.12800
O 	O 	0.76730 0.83272 0.71404 -0.54000
O 	O 	0.01800 0.83762 0.78230 -0.44300
C 	C 	0.88850 0.86450 0.74950 0.41600
C 	C 	0.87890 0.93440 0.75010 -0.15500
C 	C 	0.75910 0.96690 0.70280 0.08600
C 	C 	0.99540 0.96810 0.79760 0.10400
N 	N 	0.36700 0.59960 0.94770 -0.06200
N 	N 	0.40200 0.82340 0.94360 -0.08600
N 	N 	0.63900 0.94260 0.65030 -0.08700
N 	N 	0.12000 0.94020 0.83920 -0.08000
N 	N 	0.85200 0.66120 0.49080 -0.07500
Pr	Pr	0.51080 0.22337 0.74474 2.06600
O 	O 	0.67190 0.17339 0.85293 -0.42800
O 	O 	0.79940 0.26073 0.82553 -0.57400
C 	C 	0.78360 0.21560 0.86830 0.39600
C 	C 	0.89800 0.21520 0.93600 -0.15000
C 	C 	0.94710 0.15870 0.96800 0.10200
C 	C 	0.95160 0.27180 0.96800 0.10500
O 	O 	0.18430 0.21009 0.67693 -0.58900
O 	O 	0.40840 0.18210 0.62607 -0.42500
C 	C 	0.24440 0.18930 0.62380 0.38700
C 	C 	0.12140 0.17770 0.56010 -0.11300
C 	C 	0.94170 0.17550 0.56280 -0.04300
H 	H 	0.90260 0.17470 0.60560 0.06100
C 	C 	0.18250 0.17460 0.49670 0.12800
O 	O 	0.26730 0.33272 0.71404 -0.54000
O 	O 	0.51800 0.33762 0.78230 -0.43900
C 	C 	0.38850 0.36450 0.74950 0.41200
C 	C 	0.37890 0.43440 0.75010 -0.15400
C 	C 	0.25910 0.46690 0.70280 0.08600
C 	C 	0.49540 0.46810 0.79760 0.10100
N 	N 	0.86700 0.09960 0.94770 -0.06200
N 	N 	0.90200 0.32340 0.94360 -0.08500
N 	N 	0.13900 0.44260 0.65030 -0.08700
N 	N 	0.62000 0.44020 0.83920 -0.07800
N 	N 	0.35200 0.16120 0.49080 -0.07600
Pr	Pr	0.98920 0.72337 0.25526 2.06500
O 	O 	0.82810 0.67339 0.14707 -0.42900
O 	O 	0.70060 0.76073 0.17447 -0.57600
C 	C 	0.71640 0.71560 0.13170 0.39600
C 	C 	0.60200 0.71520 0.06400 -0.15100
C 	C 	0.55290 0.65870 0.03200 0.10200
C 	C 	0.54840 0.77180 0.03200 0.10400
O 	O 	0.31570 0.71009 0.32307 -0.58800
O 	O 	0.09160 0.68210 0.37393 -0.42300
C 	C 	0.25560 0.68930 0.37620 0.38600
C 	C 	0.37860 0.67770 0.43990 -0.11100
C 	C 	0.55830 0.67550 0.43720 -0.04500
H 	H 	0.59740 0.67470 0.39440 0.06100
C 	C 	0.31750 0.67460 0.50330 0.12800
O 	O 	0.23270 0.83272 0.28596 -0.54000
O 	O 	0.98200 0.83762 0.21770 -0.44300
C 	C 	0.11150 0.86450 0.25050 0.41600
C 	C 	0.12110 0.93440 0.24990 -0.15500
C 	C 	0.24090 0.96690 0.29720 0.08600
C 	C 	0.00460 0.96810 0.20240 0.10400
N 	N 	0.63300 0.59960 0.05230 -0.06200
N 	N 	0.59800 0.82340 0.05640 -0.08600
N 	N 	0.36100 0.94260 0.34970 -0.08700
N 	N 	0.88000 0.94020 0.16080 -0.08000
N 	N 	0.14800 0.66120 0.50920 -0.07500
Pr	Pr	0.48920 0.22337 0.25526 2.06600
O 	O 	0.32810 0.17339 0.14707 -0.42800
O 	O 	0.20060 0.26073 0.17447 -0.57400
C 	C 	0.21640 0.21560 0.13170 0.39600
C 	C 	0.10200 0.21520 0.06400 -0.15000
C 	C 	0.05290 0.15870 0.03200 0.10200
C 	C 	0.04840 0.27180 0.03200 0.10500
O 	O 	0.81570 0.21009 0.32307 -0.58900
O 	O 	0.59160 0.18210 0.37393 -0.42500
C 	C 	0.75560 0.18930 0.37620 0.38700
C 	C 	0.87860 0.17770 0.43990 -0.11300
C 	C 	0.05830 0.17550 0.43720 -0.04300
H 	H 	0.09740 0.17470 0.39440 0.06100
C 	C 	0.81750 0.17460 0.50330 0.12800
O 	O 	0.73270 0.33272 0.28596 -0.54000
O 	O 	0.48200 0.33762 0.21770 -0.43900
C 	C 	0.61150 0.36450 0.25050 0.41200
C 	C 	0.62110 0.43440 0.24990 -0.15400
C 	C 	0.74090 0.46690 0.29720 0.08600
C 	C 	0.50460 0.46810 0.20240 0.10100
N 	N 	0.13300 0.09960 0.05230 -0.06200
N 	N 	0.09800 0.32340 0.05640 -0.08500
N 	N 	0.86100 0.44260 0.34970 -0.08700
N 	N 	0.38000 0.44020 0.16080 -0.07800
N 	N 	0.64800 0.16120 0.50920 -0.07600
