data_crystal

_cell_length_a 8.94400
_cell_length_b 10.77600
_cell_length_c 13.78900
_cell_angle_alpha 68.76800
_cell_angle_beta  78.14200
_cell_angle_gamma 79.99100

_symmetry_space_group_name_	'P 1'
_symmetry_space_group_name_H-M	'P 1'

loop_
_symmetry_equiv_pos_as_xyz
  x,y,z

loop_
_atom_site_label
_atom_site_type_symbol
_atom_site_fract_x
_atom_site_fract_y
_atom_site_fract_z
_atom_site_charge
Ni	Ni	0.31062 0.90013 0.14913 1.09900
N 	N 	0.90770 0.02000 0.80440 -0.21300
N 	N 	0.14800 0.92830 0.81300 -0.10000
N 	N 	0.36090 0.81470 0.30220 -0.22700
N 	N 	0.48440 0.55530 0.83760 -0.20000
O 	O 	0.26660 0.97210 0.98890 -0.42700
H 	H 	0.22590 0.04880 0.95460 0.25000
O 	O 	0.58920 0.67670 0.96820 -0.34200
O 	O 	0.53240 0.84030 0.07250 -0.38300
O 	O 	0.61310 0.92310 0.87240 -0.36400
O 	O 	0.03870 0.75120 0.04020 -0.45500
H 	H 	0.02470 0.74880 0.98180 0.30000
O 	O 	0.27590 0.59090 0.02370 -0.38400
O 	O 	0.23420 0.72310 0.15480 -0.36000
P 	P 	0.53205 0.81894 0.96769 0.44200
P 	P 	0.21761 0.71696 0.04987 0.38600
C 	C 	0.32400 0.85710 0.95310 0.01600
C 	C 	0.30610 0.89550 0.83710 -0.08700
H 	H 	0.36220 0.97210 0.79640 0.07200
H 	H 	0.35480 0.82180 0.81310 0.06500
C 	C 	0.03350 0.01230 0.84360 0.07900
H 	H 	0.04200 0.05900 0.88690 0.02500
C 	C 	0.94510 0.93690 0.74500 0.02600
H 	H 	0.87900 0.92190 0.70740 0.02300
C 	C 	0.09310 0.87990 0.74930 -0.01900
H 	H 	0.14600 0.82040 0.71590 0.04500
C 	C 	0.34780 0.68770 0.35870 0.07800
H 	H 	0.32440 0.63300 0.32630 0.01000
C 	C 	0.36700 0.63050 0.46460 -0.13400
H 	H 	0.34990 0.54180 0.50190 0.08100
C 	C 	0.41150 0.70680 0.51350 0.05600
C 	C 	0.42300 0.84120 0.45450 -0.12800
H 	H 	0.44930 0.89730 0.48460 0.07200
C 	C 	0.39570 0.89230 0.35150 0.06400
H 	H 	0.40130 0.98310 0.31460 0.00400
C 	C 	0.37180 0.51560 0.80790 0.06400
H 	H 	0.30820 0.45610 0.85890 0.03500
C 	C 	0.34730 0.56060 0.70340 -0.11700
H 	H 	0.26870 0.53050 0.68570 0.07800
C 	C 	0.44020 0.65060 0.62540 0.04500
C 	C 	0.55750 0.68890 0.65670 -0.12100
H 	H 	0.62250 0.74850 0.60720 0.07300
C 	C 	0.57840 0.63860 0.76160 0.06400
H 	H 	0.66010 0.66320 0.78030 0.02100
Ni	Ni	0.68938 0.09987 0.85087 1.11200
N 	N 	0.09230 0.98000 0.19560 -0.21900
N 	N 	0.85200 0.07170 0.18700 -0.10800
N 	N 	0.63910 0.18530 0.69780 -0.22800
N 	N 	0.51560 0.44470 0.16240 -0.21700
O 	O 	0.73340 0.02790 0.01110 -0.47800
H 	H 	0.77410 0.95120 0.04540 0.25100
O 	O 	0.41080 0.32330 0.03180 -0.37900
O 	O 	0.46760 0.15970 0.92750 -0.31500
O 	O 	0.38690 0.07690 0.12760 -0.36900
O 	O 	0.96130 0.24880 0.95980 -0.31900
H 	H 	0.97530 0.25120 0.01820 0.17600
O 	O 	0.72410 0.40910 0.97630 -0.33500
O 	O 	0.76580 0.27690 0.84520 -0.35500
P 	P 	0.46795 0.18106 0.03231 0.36700
P 	P 	0.78239 0.28304 0.95013 0.42900
C 	C 	0.67600 0.14290 0.04690 -0.03200
C 	C 	0.69390 0.10450 0.16290 -0.07700
H 	H 	0.63780 0.02790 0.20360 0.07100
H 	H 	0.64520 0.17820 0.18690 0.05700
C 	C 	0.96650 0.98770 0.15640 0.08000
H 	H 	0.95800 0.94100 0.11310 0.01200
C 	C 	0.05490 0.06310 0.25500 0.01400
H 	H 	0.12100 0.07810 0.29260 0.02400
C 	C 	0.90690 0.12010 0.25070 -0.01400
H 	H 	0.85400 0.17960 0.28410 0.04100
C 	C 	0.65220 0.31230 0.64130 0.07800
H 	H 	0.67560 0.36700 0.67370 0.01100
C 	C 	0.63300 0.36950 0.53540 -0.13400
H 	H 	0.65010 0.45820 0.49810 0.08100
C 	C 	0.58850 0.29320 0.48650 0.05500
C 	C 	0.57700 0.15880 0.54550 -0.12700
H 	H 	0.55070 0.10270 0.51540 0.07100
C 	C 	0.60430 0.10770 0.64850 0.06400
H 	H 	0.59870 0.01690 0.68540 0.00200
C 	C 	0.62820 0.48440 0.19210 0.06400
H 	H 	0.69180 0.54390 0.14110 0.01200
C 	C 	0.65270 0.43940 0.29660 -0.12200
H 	H 	0.73130 0.46950 0.31430 0.07900
C 	C 	0.55980 0.34940 0.37460 0.04700
C 	C 	0.44250 0.31110 0.34330 -0.12400
H 	H 	0.37750 0.25150 0.39280 0.07300
C 	C 	0.42160 0.36140 0.23840 0.06700
H 	H 	0.33990 0.33680 0.21970 0.01700
Ni	Ni	0.50000 0.50000 -0.00000 1.08500
