data_crystal

_cell_length_a 21.81570
_cell_length_b 21.81570
_cell_length_c 10.16520
_cell_angle_alpha 90.00000
_cell_angle_beta  90.00000
_cell_angle_gamma 90.00000

_symmetry_space_group_name_	'P 1'
_symmetry_space_group_name_H-M	'P 1'

loop_
_symmetry_equiv_pos_as_xyz
  x,y,z

loop_
_atom_site_label
_atom_site_type_symbol
_atom_site_fract_x
_atom_site_fract_y
_atom_site_fract_z
_atom_site_charge
Ni	Ni	0.85752 0.47695 0.06116 1.07500
O 	O 	0.84782 0.46642 0.26680 -0.38500
O 	O 	0.91467 0.53106 0.18450 -0.37500
O 	O 	0.83220 0.44230 0.75490 -0.30400
O 	O 	0.88648 0.50423 0.88209 -0.41900
N 	N 	0.79188 0.54797 0.06220 -0.24700
N 	N 	0.65241 0.72721 0.97520 -0.07100
N 	N 	0.60816 0.77285 0.99330 -0.07200
N 	N 	0.42411 0.90803 0.93810 -0.24800
C 	C 	0.74825 0.55096 0.15370 0.10500
H 	H 	0.74690 0.52050 0.21760 -0.01000
C 	C 	0.70513 0.59684 0.15820 -0.19100
H 	H 	0.67590 0.59720 0.22480 0.10600
C 	C 	0.70535 0.64185 0.06490 0.14000
C 	C 	0.75060 0.64012 0.97160 -0.18200
H 	H 	0.75280 0.67030 0.90710 0.11200
C 	C 	0.79285 0.59315 0.97440 0.10800
H 	H 	0.82370 0.59300 0.91140 -0.00200
C 	C 	0.65839 0.69023 0.06760 -0.05200
H 	H 	0.63250 0.69330 0.14000 0.06700
C 	C 	0.56252 0.77098 0.91810 -0.05600
H 	H 	0.55900 0.73960 0.85660 0.06700
C 	C 	0.51476 0.81808 0.92700 0.14000
C 	C 	0.52195 0.86998 0.00410 -0.18400
H 	H 	0.55750 0.87570 0.05320 0.11400
C 	C 	0.47582 0.91301 0.00720 0.11200
H 	H 	0.48100 0.94740 0.06020 0.00400
C 	C 	0.41790 0.85821 0.86390 0.11300
H 	H 	0.38200 0.85360 0.81540 -0.02100
C 	C 	0.46193 0.81302 0.85490 -0.19800
H 	H 	0.45580 0.77930 0.80040 0.11200
C 	C 	0.88981 0.50604 0.28280 0.29700
C 	C 	0.90967 0.52357 0.41870 -0.08800
C 	C 	0.88182 0.49682 0.52850 0.03000
H 	H 	0.85090 0.46800 0.51700 0.04700
C 	C 	0.90005 0.51307 0.65440 -0.10100
C 	C 	0.94557 0.55650 0.66870 0.02800
H 	H 	0.95730 0.56830 0.75290 0.04200
C 	C 	0.97428 0.58298 0.56110 -0.08500
H 	H 	0.00530 0.61170 0.57260 0.06300
C 	C 	0.95574 0.56568 0.43570 0.02000
H 	H 	0.97470 0.58280 0.36260 0.03900
C 	C 	0.87026 0.48380 0.77120 0.34300
Ni	Ni	0.35752 0.97695 0.93884 1.07600
O 	O 	0.34782 0.96642 0.73320 -0.38500
O 	O 	0.41467 0.03106 0.81550 -0.37300
O 	O 	0.33220 0.94230 0.24510 -0.30300
O 	O 	0.38648 0.00423 0.11791 -0.41800
N 	N 	0.29188 0.04797 0.93780 -0.24600
N 	N 	0.15241 0.22721 0.02480 -0.07000
N 	N 	0.10816 0.27285 0.00670 -0.07000
N 	N 	0.92411 0.40803 0.06190 -0.25000
C 	C 	0.24825 0.05096 0.84630 0.10600
H 	H 	0.24690 0.02050 0.78240 -0.01000
C 	C 	0.20513 0.09684 0.84180 -0.19100
H 	H 	0.17590 0.09720 0.77520 0.10600
C 	C 	0.20535 0.14185 0.93510 0.14000
C 	C 	0.25060 0.14012 0.02840 -0.18200
H 	H 	0.25280 0.17030 0.09290 0.11100
C 	C 	0.29285 0.09315 0.02560 0.10800
H 	H 	0.32370 0.09300 0.08860 -0.00200
C 	C 	0.15839 0.19023 0.93240 -0.05300
H 	H 	0.13250 0.19330 0.86000 0.06700
C 	C 	0.06252 0.27098 0.08190 -0.06000
H 	H 	0.05900 0.23960 0.14340 0.06900
C 	C 	0.01476 0.31808 0.07300 0.14800
C 	C 	0.02195 0.36998 0.99590 -0.19200
H 	H 	0.05750 0.37570 0.94680 0.11600
C 	C 	0.97582 0.41301 0.99280 0.11700
H 	H 	0.98100 0.44740 0.93980 0.00200
C 	C 	0.91790 0.35821 0.13610 0.11700
H 	H 	0.88200 0.35360 0.18460 -0.02200
C 	C 	0.96193 0.31302 0.14510 -0.20600
H 	H 	0.95580 0.27930 0.19960 0.11400
C 	C 	0.38981 0.00604 0.71720 0.29900
C 	C 	0.40967 0.02357 0.58130 -0.08700
C 	C 	0.38182 0.99682 0.47150 0.02800
H 	H 	0.35090 0.96800 0.48300 0.04700
C 	C 	0.40005 0.01307 0.34560 -0.10000
C 	C 	0.44557 0.05650 0.33130 0.02800
H 	H 	0.45730 0.06830 0.24710 0.04200
C 	C 	0.47428 0.08298 0.43890 -0.08700
H 	H 	0.50530 0.11170 0.42740 0.06400
C 	C 	0.45574 0.06568 0.56430 0.02100
H 	H 	0.47470 0.08280 0.63740 0.03900
C 	C 	0.37026 0.98380 0.22880 0.34200
Ni	Ni	0.64248 0.02305 0.06116 1.07600
O 	O 	0.65218 0.03358 0.26680 -0.38500
O 	O 	0.58533 0.96894 0.18450 -0.37300
O 	O 	0.66780 0.05770 0.75490 -0.30300
O 	O 	0.61352 0.99577 0.88209 -0.41800
N 	N 	0.70812 0.95203 0.06220 -0.24600
N 	N 	0.84759 0.77279 0.97520 -0.07000
N 	N 	0.89184 0.72715 0.99330 -0.07000
N 	N 	0.07589 0.59197 0.93810 -0.25000
C 	C 	0.75175 0.94904 0.15370 0.10600
H 	H 	0.75310 0.97950 0.21760 -0.01000
C 	C 	0.79487 0.90316 0.15820 -0.19100
H 	H 	0.82410 0.90280 0.22480 0.10600
C 	C 	0.79465 0.85815 0.06490 0.14000
C 	C 	0.74940 0.85988 0.97160 -0.18200
H 	H 	0.74720 0.82970 0.90710 0.11100
C 	C 	0.70715 0.90685 0.97440 0.10800
H 	H 	0.67630 0.90700 0.91140 -0.00200
C 	C 	0.84161 0.80977 0.06760 -0.05300
H 	H 	0.86750 0.80670 0.14000 0.06700
C 	C 	0.93748 0.72902 0.91810 -0.06000
H 	H 	0.94100 0.76040 0.85660 0.06900
C 	C 	0.98524 0.68192 0.92700 0.14800
C 	C 	0.97805 0.63002 0.00410 -0.19200
H 	H 	0.94250 0.62430 0.05320 0.11600
C 	C 	0.02418 0.58699 0.00720 0.11700
H 	H 	0.01900 0.55260 0.06020 0.00200
C 	C 	0.08210 0.64179 0.86390 0.11700
H 	H 	0.11800 0.64640 0.81540 -0.02200
C 	C 	0.03807 0.68698 0.85490 -0.20600
H 	H 	0.04420 0.72070 0.80040 0.11400
C 	C 	0.61019 0.99396 0.28280 0.29900
C 	C 	0.59033 0.97643 0.41870 -0.08700
C 	C 	0.61818 0.00318 0.52850 0.02800
H 	H 	0.64910 0.03200 0.51700 0.04700
C 	C 	0.59995 0.98693 0.65440 -0.10000
C 	C 	0.55443 0.94350 0.66870 0.02800
H 	H 	0.54270 0.93170 0.75290 0.04200
C 	C 	0.52572 0.91702 0.56110 -0.08700
H 	H 	0.49470 0.88830 0.57260 0.06400
C 	C 	0.54426 0.93432 0.43570 0.02100
H 	H 	0.52530 0.91720 0.36260 0.03900
C 	C 	0.62974 0.01620 0.77120 0.34200
Ni	Ni	0.14248 0.52305 0.93884 1.07600
O 	O 	0.15218 0.53358 0.73320 -0.38400
O 	O 	0.08533 0.46894 0.81550 -0.37400
O 	O 	0.16780 0.55770 0.24510 -0.30300
O 	O 	0.11352 0.49577 0.11791 -0.41800
N 	N 	0.20812 0.45203 0.93780 -0.24600
N 	N 	0.34759 0.27279 0.02480 -0.07000
N 	N 	0.39184 0.22715 0.00670 -0.07100
N 	N 	0.57589 0.09197 0.06190 -0.24800
C 	C 	0.25175 0.44904 0.84630 0.10500
H 	H 	0.25310 0.47950 0.78240 -0.01000
C 	C 	0.29487 0.40316 0.84180 -0.19100
H 	H 	0.32410 0.40280 0.77520 0.10600
C 	C 	0.29465 0.35815 0.93510 0.14000
C 	C 	0.24940 0.35988 0.02840 -0.18200
H 	H 	0.24720 0.32970 0.09290 0.11200
C 	C 	0.20715 0.40685 0.02560 0.10800
H 	H 	0.17630 0.40700 0.08860 -0.00200
C 	C 	0.34161 0.30977 0.93240 -0.05200
H 	H 	0.36750 0.30670 0.86000 0.06700
C 	C 	0.43748 0.22902 0.08190 -0.05600
H 	H 	0.44100 0.26040 0.14340 0.06700
C 	C 	0.48524 0.18192 0.07300 0.14000
C 	C 	0.47805 0.13002 0.99590 -0.18400
H 	H 	0.44250 0.12430 0.94680 0.11400
C 	C 	0.52418 0.08699 0.99280 0.11200
H 	H 	0.51900 0.05260 0.93980 0.00400
C 	C 	0.58210 0.14179 0.13610 0.11300
H 	H 	0.61800 0.14640 0.18460 -0.02100
C 	C 	0.53807 0.18698 0.14510 -0.19800
H 	H 	0.54420 0.22070 0.19960 0.11200
C 	C 	0.11019 0.49396 0.71720 0.29700
C 	C 	0.09033 0.47643 0.58130 -0.08800
C 	C 	0.11818 0.50318 0.47150 0.03000
H 	H 	0.14910 0.53200 0.48300 0.04700
C 	C 	0.09995 0.48693 0.34560 -0.10100
C 	C 	0.05443 0.44350 0.33130 0.02800
H 	H 	0.04270 0.43170 0.24710 0.04200
C 	C 	0.02572 0.41702 0.43890 -0.08500
H 	H 	0.99470 0.38830 0.42740 0.06300
C 	C 	0.04426 0.43432 0.56430 0.02000
H 	H 	0.02530 0.41720 0.63740 0.03900
C 	C 	0.12974 0.51620 0.22880 0.34300
Ni	Ni	0.52305 0.35752 0.56116 1.07600
O 	O 	0.53358 0.34782 0.76680 -0.38300
O 	O 	0.46894 0.41467 0.68450 -0.37300
O 	O 	0.55770 0.33220 0.25490 -0.30300
O 	O 	0.49577 0.38648 0.38209 -0.41900
N 	N 	0.45203 0.29188 0.56220 -0.24600
N 	N 	0.27279 0.15241 0.47520 -0.07100
N 	N 	0.22715 0.10816 0.49330 -0.07100
N 	N 	0.09197 0.92411 0.43810 -0.24700
C 	C 	0.44904 0.24825 0.65370 0.10600
H 	H 	0.47950 0.24690 0.71760 -0.01000
C 	C 	0.40316 0.20513 0.65820 -0.19100
H 	H 	0.40280 0.17590 0.72480 0.10600
C 	C 	0.35815 0.20535 0.56490 0.14100
C 	C 	0.35988 0.25060 0.47160 -0.18300
H 	H 	0.32970 0.25280 0.40710 0.11200
C 	C 	0.40685 0.29285 0.47440 0.10800
H 	H 	0.40700 0.32370 0.41140 -0.00200
C 	C 	0.30977 0.15839 0.56760 -0.05200
H 	H 	0.30670 0.13250 0.64000 0.06700
C 	C 	0.22902 0.06252 0.41810 -0.05700
H 	H 	0.26040 0.05900 0.35660 0.06700
C 	C 	0.18192 0.01476 0.42700 0.14100
C 	C 	0.13002 0.02195 0.50410 -0.18100
H 	H 	0.12430 0.05750 0.55320 0.11300
C 	C 	0.08699 0.97582 0.50720 0.10700
H 	H 	0.05260 0.98100 0.56020 0.00400
C 	C 	0.14179 0.91790 0.36390 0.11400
H 	H 	0.14640 0.88200 0.31540 -0.02100
C 	C 	0.18698 0.96193 0.35490 -0.20100
H 	H 	0.22070 0.95580 0.30040 0.11300
C 	C 	0.49396 0.38981 0.78280 0.29700
C 	C 	0.47643 0.40967 0.91870 -0.08800
C 	C 	0.50318 0.38182 0.02850 0.03100
H 	H 	0.53200 0.35090 0.01700 0.04600
C 	C 	0.48693 0.40005 0.15440 -0.10200
C 	C 	0.44350 0.44557 0.16870 0.02900
H 	H 	0.43170 0.45730 0.25290 0.04100
C 	C 	0.41702 0.47428 0.06110 -0.08800
H 	H 	0.38830 0.50530 0.07260 0.06500
C 	C 	0.43432 0.45574 0.93570 0.02200
H 	H 	0.41720 0.47470 0.86260 0.03800
C 	C 	0.51620 0.37026 0.27120 0.34300
Ni	Ni	0.02305 0.85752 0.43884 1.07500
O 	O 	0.03358 0.84782 0.23320 -0.38400
O 	O 	0.96894 0.91467 0.31550 -0.37200
O 	O 	0.05770 0.83220 0.74510 -0.30100
O 	O 	0.99577 0.88648 0.61791 -0.41300
N 	N 	0.95203 0.79188 0.43780 -0.24500
N 	N 	0.77279 0.65241 0.52480 -0.07100
N 	N 	0.72715 0.60816 0.50670 -0.07100
N 	N 	0.59197 0.42411 0.56190 -0.24700
C 	C 	0.94904 0.74825 0.34630 0.10600
H 	H 	0.97950 0.74690 0.28240 -0.01000
C 	C 	0.90316 0.70513 0.34180 -0.19100
H 	H 	0.90280 0.67590 0.27520 0.10600
C 	C 	0.85815 0.70535 0.43510 0.14100
C 	C 	0.85988 0.75060 0.52840 -0.18300
H 	H 	0.82970 0.75280 0.59290 0.11200
C 	C 	0.90685 0.79285 0.52560 0.10800
H 	H 	0.90700 0.82370 0.58860 -0.00200
C 	C 	0.80977 0.65839 0.43240 -0.05200
H 	H 	0.80670 0.63250 0.36000 0.06700
C 	C 	0.72902 0.56252 0.58190 -0.05600
H 	H 	0.76040 0.55900 0.64340 0.06700
C 	C 	0.68192 0.51476 0.57300 0.14000
C 	C 	0.63002 0.52195 0.49590 -0.18400
H 	H 	0.62430 0.55750 0.44680 0.11400
C 	C 	0.58699 0.47582 0.49280 0.11100
H 	H 	0.55260 0.48100 0.43980 0.00400
C 	C 	0.64179 0.41790 0.63610 0.11300
H 	H 	0.64640 0.38200 0.68460 -0.02000
C 	C 	0.68698 0.46193 0.64510 -0.19800
H 	H 	0.72070 0.45580 0.69960 0.11200
C 	C 	0.99396 0.88981 0.21720 0.29400
C 	C 	0.97643 0.90967 0.08130 -0.07300
C 	C 	0.00318 0.88182 0.97150 0.00700
H 	H 	0.03200 0.85090 0.98300 0.05300
C 	C 	0.98693 0.90005 0.84560 -0.08100
C 	C 	0.94350 0.94557 0.83130 0.01000
H 	H 	0.93170 0.95730 0.74710 0.04900
C 	C 	0.91702 0.97428 0.93890 -0.06500
H 	H 	0.88830 0.00530 0.92740 0.05600
C 	C 	0.93432 0.95574 0.06430 0.00400
H 	H 	0.91720 0.97470 0.13740 0.04500
C 	C 	0.01620 0.87026 0.72880 0.33000
Ni	Ni	0.97695 0.14248 0.56116 1.07500
O 	O 	0.96642 0.15218 0.76680 -0.38400
O 	O 	0.03106 0.08533 0.68450 -0.37200
O 	O 	0.94230 0.16780 0.25490 -0.30100
O 	O 	0.00423 0.11352 0.38209 -0.41300
N 	N 	0.04797 0.20812 0.56220 -0.24500
N 	N 	0.22721 0.34759 0.47520 -0.07100
N 	N 	0.27285 0.39184 0.49330 -0.07100
N 	N 	0.40803 0.57589 0.43810 -0.24700
C 	C 	0.05096 0.25175 0.65370 0.10600
H 	H 	0.02050 0.25310 0.71760 -0.01000
C 	C 	0.09684 0.29487 0.65820 -0.19100
H 	H 	0.09720 0.32410 0.72480 0.10600
C 	C 	0.14185 0.29465 0.56490 0.14100
C 	C 	0.14012 0.24940 0.47160 -0.18300
H 	H 	0.17030 0.24720 0.40710 0.11200
C 	C 	0.09315 0.20715 0.47440 0.10800
H 	H 	0.09300 0.17630 0.41140 -0.00200
C 	C 	0.19023 0.34161 0.56760 -0.05200
H 	H 	0.19330 0.36750 0.64000 0.06700
C 	C 	0.27098 0.43748 0.41810 -0.05600
H 	H 	0.23960 0.44100 0.35660 0.06700
C 	C 	0.31808 0.48524 0.42700 0.14000
C 	C 	0.36998 0.47805 0.50410 -0.18400
H 	H 	0.37570 0.44250 0.55320 0.11400
C 	C 	0.41301 0.52418 0.50720 0.11100
H 	H 	0.44740 0.51900 0.56020 0.00400
C 	C 	0.35821 0.58210 0.36390 0.11300
H 	H 	0.35360 0.61800 0.31540 -0.02000
C 	C 	0.31302 0.53807 0.35490 -0.19800
H 	H 	0.27930 0.54420 0.30040 0.11200
C 	C 	0.00604 0.11019 0.78280 0.29400
C 	C 	0.02357 0.09033 0.91870 -0.07300
C 	C 	0.99682 0.11818 0.02850 0.00700
H 	H 	0.96800 0.14910 0.01700 0.05300
C 	C 	0.01307 0.09995 0.15440 -0.08100
C 	C 	0.05650 0.05443 0.16870 0.01000
H 	H 	0.06830 0.04270 0.25290 0.04900
C 	C 	0.08298 0.02572 0.06110 -0.06500
H 	H 	0.11170 0.99470 0.07260 0.05600
C 	C 	0.06568 0.04426 0.93570 0.00400
H 	H 	0.08280 0.02530 0.86260 0.04500
C 	C 	0.98380 0.12974 0.27120 0.33000
Ni	Ni	0.47695 0.64248 0.43884 1.07600
O 	O 	0.46642 0.65218 0.23320 -0.38300
O 	O 	0.53106 0.58533 0.31550 -0.37300
O 	O 	0.44230 0.66780 0.74510 -0.30300
O 	O 	0.50423 0.61352 0.61791 -0.41900
N 	N 	0.54797 0.70812 0.43780 -0.24600
N 	N 	0.72721 0.84759 0.52480 -0.07100
N 	N 	0.77285 0.89184 0.50670 -0.07100
N 	N 	0.90803 0.07589 0.56190 -0.24700
C 	C 	0.55096 0.75175 0.34630 0.10600
H 	H 	0.52050 0.75310 0.28240 -0.01000
C 	C 	0.59684 0.79487 0.34180 -0.19100
H 	H 	0.59720 0.82410 0.27520 0.10600
C 	C 	0.64185 0.79465 0.43510 0.14100
C 	C 	0.64012 0.74940 0.52840 -0.18300
H 	H 	0.67030 0.74720 0.59290 0.11200
C 	C 	0.59315 0.70715 0.52560 0.10800
H 	H 	0.59300 0.67630 0.58860 -0.00200
C 	C 	0.69023 0.84161 0.43240 -0.05200
H 	H 	0.69330 0.86750 0.36000 0.06700
C 	C 	0.77098 0.93748 0.58190 -0.05700
H 	H 	0.73960 0.94100 0.64340 0.06700
C 	C 	0.81808 0.98524 0.57300 0.14100
C 	C 	0.86998 0.97805 0.49590 -0.18100
H 	H 	0.87570 0.94250 0.44680 0.11300
C 	C 	0.91301 0.02418 0.49280 0.10700
H 	H 	0.94740 0.01900 0.43980 0.00400
C 	C 	0.85821 0.08210 0.63610 0.11400
H 	H 	0.85360 0.11800 0.68460 -0.02100
C 	C 	0.81302 0.03807 0.64510 -0.20100
H 	H 	0.77930 0.04420 0.69960 0.11300
C 	C 	0.50604 0.61019 0.21720 0.29700
C 	C 	0.52357 0.59033 0.08130 -0.08800
C 	C 	0.49682 0.61818 0.97150 0.03100
H 	H 	0.46800 0.64910 0.98300 0.04600
C 	C 	0.51307 0.59995 0.84560 -0.10200
C 	C 	0.55650 0.55443 0.83130 0.02900
H 	H 	0.56830 0.54270 0.74710 0.04100
C 	C 	0.58298 0.52572 0.93890 -0.08800
H 	H 	0.61170 0.49470 0.92740 0.06500
C 	C 	0.56568 0.54426 0.06430 0.02200
H 	H 	0.58280 0.52530 0.13740 0.03800
C 	C 	0.48380 0.62974 0.72880 0.34300
