data_crystal

_cell_length_a 10.04600
_cell_length_b 12.36400
_cell_length_c 13.71500
_cell_angle_alpha 79.29200
_cell_angle_beta  71.92800
_cell_angle_gamma 80.86200

_symmetry_space_group_name_	'P 1'
_symmetry_space_group_name_H-M	'P 1'

loop_
_symmetry_equiv_pos_as_xyz
  x,y,z

loop_
_atom_site_label
_atom_site_type_symbol
_atom_site_fract_x
_atom_site_fract_y
_atom_site_fract_z
_atom_site_charge
Co	Co	0.50710 0.64059 0.69108 1.20500
O 	O 	0.89540 0.92240 0.14900 -0.40100
O 	O 	0.77000 0.80740 0.11660 -0.29400
O 	O 	0.68570 0.66940 0.60230 -0.41700
O 	O 	0.82930 0.10930 0.98480 -0.40400
O 	O 	0.83090 0.25320 0.06200 -0.36000
O 	O 	0.56650 0.48630 0.69980 -0.41800
N 	N 	0.32100 0.60870 0.78160 -0.38900
H 	H 	0.32490 0.53820 0.81330 0.13700
H 	H 	0.29160 0.65360 0.83060 0.14700
N 	N 	0.43430 0.62530 0.58240 -0.24000
N 	N 	0.45000 0.79990 0.67950 -0.35200
H 	H 	0.47340 0.83640 0.61530 0.11900
H 	H 	0.35670 0.80680 0.70570 0.11200
N 	N 	0.57020 0.66130 0.80350 -0.26800
C 	C 	0.22160 0.62640 0.71870 0.12100
H 	H 	0.19990 0.70630 0.70040 -0.02200
C 	C 	0.08420 0.57700 0.77510 -0.34500
H 	H 	0.03480 0.61250 0.83580 0.13400
H 	H 	0.10290 0.49840 0.79760 0.13500
C 	C 	0.99380 0.59560 0.69970 0.18300
H 	H 	0.90700 0.56200 0.73360 -0.01300
H 	H 	0.96940 0.67450 0.68230 -0.01000
C 	C 	0.06960 0.54720 0.60210 -0.29000
H 	H 	0.08460 0.46730 0.61880 0.11300
H 	H 	0.01120 0.56400 0.55550 0.10000
C 	C 	0.20890 0.59110 0.54840 0.00300
H 	H 	0.19320 0.66880 0.52140 0.02100
H 	H 	0.25850 0.55170 0.49030 0.03800
C 	C 	0.29850 0.57850 0.62050 -0.07600
H 	H 	0.31930 0.49880 0.64080 0.06100
C 	C 	0.49330 0.65430 0.48580 0.07500
H 	H 	0.44740 0.64350 0.43950 0.01500
C 	C 	0.62440 0.70200 0.44270 -0.17800
C 	C 	0.66410 0.74240 0.33620 0.08800
H 	H 	0.60640 0.73480 0.29690 0.00900
C 	C 	0.78470 0.79270 0.28790 -0.17300
C 	C 	0.87210 0.79680 0.34930 0.14500
H 	H 	0.95600 0.82860 0.31880 -0.00100
C 	C 	0.83820 0.75580 0.45110 -0.27100
H 	H 	0.90090 0.75890 0.48790 0.14000
C 	C 	0.71200 0.70870 0.50400 0.27300
C 	C 	0.81900 0.84400 0.17710 0.35500
C 	C 	0.51390 0.84780 0.74090 -0.07000
H 	H 	0.60710 0.85330 0.69050 0.05200
C 	C 	0.47500 0.96690 0.74960 0.02700
H 	H 	0.37470 0.97950 0.78330 0.04000
H 	H 	0.49420 0.00920 0.68060 0.00700
C 	C 	0.55410 0.00780 0.81020 -0.29100
H 	H 	0.63610 0.03860 0.76080 0.11200
H 	H 	0.49430 0.06840 0.84320 0.12700
C 	C 	0.60080 0.93310 0.88740 0.15300
H 	H 	0.52990 0.94050 0.95320 0.00400
H 	H 	0.68570 0.95790 0.89120 -0.00900
C 	C 	0.63170 0.81290 0.87870 -0.31400
H 	H 	0.73190 0.79650 0.84700 0.13400
H 	H 	0.60830 0.77100 0.94790 0.15000
C 	C 	0.55480 0.77560 0.81790 0.10900
H 	H 	0.46260 0.77610 0.87020 0.02200
C 	C 	0.61930 0.58420 0.86200 0.10700
H 	H 	0.64060 0.60440 0.91700 0.00800
C 	C 	0.64510 0.46970 0.85160 -0.17900
C 	C 	0.62180 0.42770 0.76910 0.28500
C 	C 	0.66360 0.31410 0.76420 -0.26300
H 	H 	0.65350 0.28490 0.70940 0.12800
C 	C 	0.71840 0.24410 0.83570 0.15200
H 	H 	0.74120 0.16920 0.83000 -0.01200
C 	C 	0.74010 0.28570 0.91780 -0.18200
C 	C 	0.70380 0.39600 0.92340 0.11600
H 	H 	0.71830 0.42420 0.97720 0.01900
C 	C 	0.80460 0.21020 0.99370 0.43600
Co	Co	0.49290 0.35941 0.30892 1.20400
O 	O 	0.10460 0.07760 0.85100 -0.40600
O 	O 	0.23000 0.19260 0.88340 -0.27400
O 	O 	0.31430 0.33060 0.39770 -0.42100
O 	O 	0.17070 0.89070 0.01520 -0.43200
O 	O 	0.16910 0.74680 0.93800 -0.24700
O 	O 	0.43350 0.51370 0.30020 -0.41600
N 	N 	0.67900 0.39130 0.21840 -0.36000
H 	H 	0.67510 0.46180 0.18670 0.11900
H 	H 	0.70840 0.34640 0.16940 0.12900
N 	N 	0.56570 0.37470 0.41760 -0.26000
N 	N 	0.55000 0.20010 0.32050 -0.40400
H 	H 	0.52660 0.16360 0.38470 0.12700
H 	H 	0.64330 0.19320 0.29430 0.11600
N 	N 	0.42980 0.33870 0.19650 -0.22700
C 	C 	0.77840 0.37360 0.28130 -0.03700
H 	H 	0.80010 0.29370 0.29960 0.03300
C 	C 	0.91580 0.42300 0.22490 0.01200
H 	H 	0.96520 0.38750 0.16420 0.04100
H 	H 	0.89710 0.50160 0.20240 0.03800
C 	C 	0.00620 0.40440 0.30030 -0.31500
H 	H 	0.09300 0.43800 0.26640 0.11800
H 	H 	0.03060 0.32550 0.31770 0.10700
C 	C 	0.93040 0.45280 0.39790 0.13600
H 	H 	0.91540 0.53270 0.38120 0.00500
H 	H 	0.98880 0.43600 0.44450 0.00500
C 	C 	0.79110 0.40890 0.45160 -0.27100
H 	H 	0.80680 0.33120 0.47860 0.11400
H 	H 	0.74150 0.44830 0.50970 0.12500
C 	C 	0.70150 0.42150 0.37950 0.07200
H 	H 	0.68070 0.50120 0.35920 0.01900
C 	C 	0.50670 0.34570 0.51420 0.08500
H 	H 	0.55260 0.35650 0.56050 0.00900
C 	C 	0.37560 0.29800 0.55730 -0.18500
C 	C 	0.33590 0.25760 0.66380 0.09100
H 	H 	0.39360 0.26520 0.70310 0.00800
C 	C 	0.21530 0.20730 0.71210 -0.18100
C 	C 	0.12790 0.20320 0.65070 0.14100
H 	H 	0.04400 0.17140 0.68120 -0.02700
C 	C 	0.16180 0.24420 0.54890 -0.27900
H 	H 	0.09910 0.24110 0.51210 0.11800
C 	C 	0.28800 0.29130 0.49600 0.27300
C 	C 	0.18100 0.15600 0.82290 0.35100
C 	C 	0.48610 0.15220 0.25910 0.24200
H 	H 	0.39290 0.14670 0.30950 -0.03500
C 	C 	0.52500 0.03310 0.25040 -0.55200
H 	H 	0.62530 0.02050 0.21670 0.19100
H 	H 	0.50580 0.99080 0.31940 0.20000
C 	C 	0.44590 0.99220 0.18980 0.42500
H 	H 	0.36390 0.96140 0.23920 -0.10100
H 	H 	0.50570 0.93160 0.15680 -0.09900
C 	C 	0.39920 0.06690 0.11260 -0.52500
H 	H 	0.47010 0.05950 0.04680 0.16400
H 	H 	0.31430 0.04210 0.10880 0.16700
C 	C 	0.36830 0.18710 0.12130 0.20500
H 	H 	0.26810 0.20350 0.15300 -0.04100
H 	H 	0.39170 0.22900 0.05210 -0.04800
C 	C 	0.44520 0.22440 0.18210 -0.19900
H 	H 	0.53740 0.22390 0.12980 0.07500
C 	C 	0.38070 0.41580 0.13800 0.07300
H 	H 	0.35940 0.39560 0.08300 -0.00300
C 	C 	0.35490 0.53030 0.14840 -0.18500
C 	C 	0.37820 0.57230 0.23090 0.26800
C 	C 	0.33640 0.68590 0.23580 -0.25600
H 	H 	0.34650 0.71510 0.29060 0.12500
C 	C 	0.28160 0.75590 0.16430 0.11800
H 	H 	0.25880 0.83080 0.17000 -0.01000
C 	C 	0.25990 0.71430 0.08220 -0.16700
C 	C 	0.29620 0.60400 0.07660 0.07800
H 	H 	0.28170 0.57580 0.02280 -0.01800
C 	C 	0.19540 0.78980 0.00630 0.28100
Co	Co	-0.00000 0.00000 -0.00000 1.09800
