data_crystal

_cell_length_a 12.98300
_cell_length_b 19.71600
_cell_length_c 11.51500
_cell_angle_alpha 90.00000
_cell_angle_beta  107.35500
_cell_angle_gamma 90.00000

_symmetry_space_group_name_	'P 1'
_symmetry_space_group_name_H-M	'P 1'

loop_
_symmetry_equiv_pos_as_xyz
  x,y,z

loop_
_atom_site_label
_atom_site_type_symbol
_atom_site_fract_x
_atom_site_fract_y
_atom_site_fract_z
_atom_site_charge
Cu	Cu	0.45704 0.21126 0.12009 0.90900
O 	O 	0.58527 0.80140 0.45876 -0.37000
O 	O 	0.53257 0.82144 0.26074 -0.29900
O 	O 	0.51107 0.14244 0.24555 -0.37400
N 	N 	0.30771 0.20064 0.13780 -0.23500
O 	O 	0.72906 0.98738 0.74252 -0.38300
O 	O 	0.48765 0.05701 0.11209 -0.25900
O 	O 	0.70944 0.09557 0.68328 -0.26300
C 	C 	0.58272 0.91616 0.39430 -0.07500
C 	C 	0.54662 0.96252 0.29980 0.02300
N 	N 	0.99813 0.21474 0.17940 -0.09400
C 	C 	0.60730 0.05484 0.43990 0.02600
C 	C 	0.51463 0.08018 0.21720 0.32300
C 	C 	0.29220 0.20368 0.24730 0.14600
C 	C 	0.69810 0.03559 0.66040 0.34700
C 	C 	0.63220 0.93972 0.51180 0.02000
N 	N 	0.60856 0.22350 0.10870 -0.22100
C 	C 	0.55778 0.03189 0.32210 -0.07300
C 	C 	0.18980 0.20661 0.26160 -0.22500
C 	C 	0.10170 0.20851 0.15910 0.20300
C 	C 	0.64552 0.00885 0.53460 -0.08300
C 	C 	0.56552 0.84171 0.36830 0.30900
N 	N 	0.92470 0.22460 0.08380 -0.06900
C 	C 	0.11670 0.20251 0.04530 -0.21900
H 	H 	0.05810 0.20160 0.97510 0.12900
C 	C 	0.22070 0.19789 0.03940 0.14400
C 	C 	0.81950 0.22745 0.10040 0.05000
C 	C 	0.73570 0.19750 0.99140 0.04700
C 	C 	0.63250 0.24740 0.01900 0.10700
C 	C 	0.73780 0.25270 0.01110 -0.06400
C 	C 	0.68310 0.24600 0.18670 0.06500
C 	C 	0.79350 0.24680 0.19000 0.14300
C 	C 	0.80050 0.21810 0.21970 -0.14500
C 	C 	0.69660 0.21470 0.22040 0.01500
C 	C 	0.63140 0.19640 0.99920 -0.03500
H 	H 	0.23100 0.18950 0.96800 -0.02900
H 	H 	0.17600 0.20770 0.33500 0.13000
H 	H 	0.51130 0.94630 0.22100 0.06100
H 	H 	0.61300 0.10040 0.45700 0.05400
H 	H 	0.65400 0.91060 0.57100 0.06200
H 	H 	0.75500 0.00500 0.81900 0.21900
H 	H 	0.35300 0.20380 0.31000 -0.00800
Cu	Cu	0.54296 0.71126 0.37991 0.90800
O 	O 	0.41473 0.30140 0.04124 -0.37100
O 	O 	0.46743 0.32144 0.23926 -0.30000
O 	O 	0.48893 0.64244 0.25445 -0.37500
N 	N 	0.69229 0.70064 0.36220 -0.23600
O 	O 	0.27094 0.48738 0.75748 -0.38500
O 	O 	0.51235 0.55701 0.38791 -0.26000
O 	O 	0.29056 0.59557 0.81672 -0.26500
C 	C 	0.41728 0.41616 0.10570 -0.07600
C 	C 	0.45338 0.46252 0.20020 0.02300
N 	N 	0.00187 0.71474 0.32060 -0.09500
C 	C 	0.39270 0.55484 0.06010 0.02600
C 	C 	0.48537 0.58018 0.28280 0.32300
C 	C 	0.70780 0.70368 0.25270 0.14600
C 	C 	0.30190 0.53559 0.83960 0.34800
C 	C 	0.36780 0.43972 0.98820 0.02000
N 	N 	0.39144 0.72350 0.39130 -0.22100
C 	C 	0.44222 0.53189 0.17790 -0.07400
C 	C 	0.81020 0.70661 0.23840 -0.22500
C 	C 	0.89830 0.70851 0.34090 0.20300
C 	C 	0.35448 0.50885 0.96540 -0.08300
C 	C 	0.43448 0.34171 0.13170 0.30900
N 	N 	0.07530 0.72460 0.41620 -0.06900
C 	C 	0.88330 0.70251 0.45470 -0.22100
H 	H 	0.94190 0.70160 0.52490 0.13100
C 	C 	0.77930 0.69789 0.46060 0.14300
C 	C 	0.18050 0.72745 0.39960 0.05000
C 	C 	0.26430 0.69750 0.50860 0.04800
C 	C 	0.36750 0.74740 0.48100 0.10500
C 	C 	0.26220 0.75270 0.48890 -0.06500
C 	C 	0.31690 0.74600 0.31330 0.06600
C 	C 	0.20650 0.74680 0.31000 0.14400
C 	C 	0.19950 0.71810 0.28030 -0.14600
C 	C 	0.30340 0.71470 0.27960 0.01300
C 	C 	0.36860 0.69640 0.50080 -0.03200
H 	H 	0.76900 0.68950 0.53200 -0.02700
H 	H 	0.82400 0.70770 0.16500 0.12900
H 	H 	0.48870 0.44630 0.27900 0.06100
H 	H 	0.38700 0.60040 0.04300 0.05400
H 	H 	0.34600 0.41060 0.92900 0.06100
H 	H 	0.24500 0.50500 0.68100 0.22000
H 	H 	0.64700 0.70380 0.19000 -0.00800
Cu	Cu	0.54296 0.78874 0.87991 0.90800
O 	O 	0.41473 0.19860 0.54124 -0.37100
O 	O 	0.46743 0.17856 0.73926 -0.30000
O 	O 	0.48893 0.85756 0.75445 -0.37500
N 	N 	0.69229 0.79936 0.86220 -0.23600
O 	O 	0.27094 0.01262 0.25748 -0.38400
O 	O 	0.51235 0.94299 0.88791 -0.26000
O 	O 	0.29056 0.90443 0.31672 -0.26400
C 	C 	0.41728 0.08384 0.60570 -0.07600
C 	C 	0.45338 0.03748 0.70020 0.02200
N 	N 	0.00187 0.78526 0.82060 -0.09500
C 	C 	0.39270 0.94516 0.56010 0.02500
C 	C 	0.48537 0.91982 0.78280 0.32300
C 	C 	0.70780 0.79632 0.75270 0.14600
C 	C 	0.30190 0.96441 0.33960 0.34700
C 	C 	0.36780 0.06028 0.48820 0.02000
N 	N 	0.39144 0.77650 0.89130 -0.22100
C 	C 	0.44222 0.96811 0.67790 -0.07300
C 	C 	0.81020 0.79339 0.73840 -0.22500
C 	C 	0.89830 0.79149 0.84090 0.20300
C 	C 	0.35448 0.99115 0.46540 -0.08300
C 	C 	0.43448 0.15829 0.63170 0.30900
N 	N 	0.07530 0.77540 0.91620 -0.06900
C 	C 	0.88330 0.79749 0.95470 -0.21900
H 	H 	0.94190 0.79840 0.02490 0.12900
C 	C 	0.77930 0.80211 0.96060 0.14400
C 	C 	0.18050 0.77255 0.89960 0.05000
C 	C 	0.26430 0.80250 0.00860 0.04700
C 	C 	0.36750 0.75260 0.98100 0.10700
C 	C 	0.26220 0.74730 0.98890 -0.06400
C 	C 	0.31690 0.75400 0.81330 0.06500
C 	C 	0.20650 0.75320 0.81000 0.14300
C 	C 	0.19950 0.78190 0.78030 -0.14500
C 	C 	0.30340 0.78530 0.77960 0.01500
C 	C 	0.36860 0.80360 0.00080 -0.03500
H 	H 	0.76900 0.81050 0.03200 -0.02900
H 	H 	0.82400 0.79230 0.66500 0.13000
H 	H 	0.48870 0.05370 0.77900 0.06100
H 	H 	0.38700 0.89960 0.54300 0.05400
H 	H 	0.34600 0.08940 0.42900 0.06200
H 	H 	0.24500 0.99500 0.18100 0.21900
H 	H 	0.64700 0.79620 0.69000 -0.00800
Cu	Cu	0.45704 0.28874 0.62009 0.90800
O 	O 	0.58527 0.69860 0.95876 -0.37100
O 	O 	0.53257 0.67856 0.76074 -0.30000
O 	O 	0.51107 0.35756 0.74555 -0.37500
N 	N 	0.30771 0.29936 0.63780 -0.23600
O 	O 	0.72906 0.51262 0.24252 -0.38500
O 	O 	0.48765 0.44299 0.61209 -0.26000
O 	O 	0.70944 0.40443 0.18328 -0.26500
C 	C 	0.58272 0.58384 0.89430 -0.07600
C 	C 	0.54662 0.53748 0.79980 0.02300
N 	N 	0.99813 0.28526 0.67940 -0.09500
C 	C 	0.60730 0.44516 0.93990 0.02600
C 	C 	0.51463 0.41982 0.71720 0.32300
C 	C 	0.29220 0.29632 0.74730 0.14600
C 	C 	0.69810 0.46441 0.16040 0.34800
C 	C 	0.63220 0.56028 0.01180 0.02000
N 	N 	0.60856 0.27650 0.60870 -0.22100
C 	C 	0.55778 0.46811 0.82210 -0.07400
C 	C 	0.18980 0.29339 0.76160 -0.22500
C 	C 	0.10170 0.29149 0.65910 0.20300
C 	C 	0.64552 0.49115 0.03460 -0.08300
C 	C 	0.56552 0.65829 0.86830 0.30900
N 	N 	0.92470 0.27540 0.58380 -0.06900
C 	C 	0.11670 0.29749 0.54530 -0.22100
H 	H 	0.05810 0.29840 0.47510 0.13100
C 	C 	0.22070 0.30211 0.53940 0.14300
C 	C 	0.81950 0.27255 0.60040 0.05000
C 	C 	0.73570 0.30250 0.49140 0.04800
C 	C 	0.63250 0.25260 0.51900 0.10500
C 	C 	0.73780 0.24730 0.51110 -0.06500
C 	C 	0.68310 0.25400 0.68670 0.06600
C 	C 	0.79350 0.25320 0.69000 0.14400
C 	C 	0.80050 0.28190 0.71970 -0.14600
C 	C 	0.69660 0.28530 0.72040 0.01300
C 	C 	0.63140 0.30360 0.49920 -0.03200
H 	H 	0.23100 0.31050 0.46800 -0.02700
H 	H 	0.17600 0.29230 0.83500 0.12900
H 	H 	0.51130 0.55370 0.72100 0.06100
H 	H 	0.61300 0.39960 0.95700 0.05400
H 	H 	0.65400 0.58940 0.07100 0.06100
H 	H 	0.75500 0.49500 0.31900 0.22000
H 	H 	0.35300 0.29620 0.81000 -0.00800
