data_crystal

_cell_length_a 10.70200
_cell_length_b 26.61730
_cell_length_c 8.51890
_cell_angle_alpha 90.00000
_cell_angle_beta  90.00000
_cell_angle_gamma 90.00000

_symmetry_space_group_name_	'P 1'
_symmetry_space_group_name_H-M	'P 1'

loop_
_symmetry_equiv_pos_as_xyz
  x,y,z

loop_
_atom_site_label
_atom_site_type_symbol
_atom_site_fract_x
_atom_site_fract_y
_atom_site_fract_z
_atom_site_charge
Zn	Zn	0.39932 0.54797 0.59564 1.18100
C 	C 	0.36170 0.45318 0.23240 0.09400
H 	H 	0.38470 0.42420 0.17880 -0.02500
C 	C 	0.25660 0.51579 0.31400 0.16600
C 	C 	0.34440 0.64998 0.58090 0.33800
C 	C 	0.37320 0.70373 0.61110 -0.08900
C 	C 	0.47340 0.72346 0.68900 -0.01200
H 	H 	0.53490 0.70410 0.73680 0.05200
N 	N 	0.24820 0.47478 0.21950 -0.30800
N 	N 	0.43610 0.47735 0.32840 -0.27300
N 	N 	0.36800 0.51856 0.38380 -0.28000
N 	N 	0.16520 0.55050 0.32940 -0.33800
H 	H 	0.17710 0.57650 0.38740 0.15000
H 	H 	0.09530 0.54660 0.28130 0.11200
O 	O 	0.43070 0.61935 0.62150 -0.47700
O 	O 	0.24370 0.63836 0.52050 -0.32600
Zn	Zn	0.10068 0.45203 0.09564 1.18100
C 	C 	0.13830 0.54682 0.73240 0.09600
H 	H 	0.11530 0.57580 0.67880 -0.02400
C 	C 	0.24340 0.48421 0.81400 0.16700
C 	C 	0.15560 0.35002 0.08090 0.33800
C 	C 	0.12680 0.29627 0.11110 -0.08800
C 	C 	0.02660 0.27654 0.18900 -0.01600
H 	H 	0.96510 0.29590 0.23680 0.05500
N 	N 	0.25180 0.52522 0.71950 -0.30800
N 	N 	0.06390 0.52265 0.82840 -0.27100
N 	N 	0.13200 0.48144 0.88380 -0.27900
N 	N 	0.33480 0.44950 0.82940 -0.33800
H 	H 	0.32290 0.42350 0.88740 0.15100
H 	H 	0.40470 0.45340 0.78130 0.11300
O 	O 	0.06930 0.38065 0.12150 -0.47900
O 	O 	0.25630 0.36164 0.02050 -0.32600
Zn	Zn	0.60068 0.04797 0.40436 1.18200
C 	C 	0.63830 0.95318 0.76760 0.09500
H 	H 	0.61530 0.92420 0.82120 -0.02500
C 	C 	0.74340 0.01579 0.68600 0.16700
C 	C 	0.65560 0.14998 0.41910 0.33800
C 	C 	0.62680 0.20373 0.38890 -0.08900
C 	C 	0.52660 0.22346 0.31100 -0.01200
H 	H 	0.46510 0.20410 0.26320 0.05200
N 	N 	0.75180 0.97478 0.78050 -0.30900
N 	N 	0.56390 0.97735 0.67160 -0.27300
N 	N 	0.63200 0.01856 0.61620 -0.28000
N 	N 	0.83480 0.05050 0.67060 -0.33800
H 	H 	0.82290 0.07650 0.61260 0.15000
H 	H 	0.90470 0.04660 0.71870 0.11200
O 	O 	0.56930 0.11935 0.37850 -0.47700
O 	O 	0.75630 0.13836 0.47950 -0.32600
Zn	Zn	0.89932 0.95203 0.90436 1.18100
C 	C 	0.86170 0.04682 0.26760 0.09600
H 	H 	0.88470 0.07580 0.32120 -0.02400
C 	C 	0.75660 0.98421 0.18600 0.16700
C 	C 	0.84440 0.85002 0.91910 0.33800
C 	C 	0.87320 0.79627 0.88890 -0.08800
C 	C 	0.97340 0.77654 0.81100 -0.01700
H 	H 	0.03490 0.79590 0.76320 0.05500
N 	N 	0.74820 0.02522 0.28050 -0.30800
N 	N 	0.93610 0.02265 0.17160 -0.27100
N 	N 	0.86800 0.98144 0.11620 -0.28000
N 	N 	0.66520 0.94950 0.17060 -0.33800
H 	H 	0.67710 0.92350 0.11260 0.15100
H 	H 	0.59530 0.95340 0.21870 0.11300
O 	O 	0.93070 0.88065 0.87850 -0.47900
O 	O 	0.74370 0.86164 0.97950 -0.32600
Zn	Zn	0.60068 0.45203 0.40436 1.18200
C 	C 	0.63830 0.54682 0.76760 0.09500
H 	H 	0.61530 0.57580 0.82120 -0.02500
C 	C 	0.74340 0.48421 0.68600 0.16600
C 	C 	0.65560 0.35002 0.41910 0.33800
C 	C 	0.62680 0.29627 0.38890 -0.08900
C 	C 	0.52660 0.27654 0.31100 -0.01200
H 	H 	0.46510 0.29590 0.26320 0.05200
N 	N 	0.75180 0.52522 0.78050 -0.30800
N 	N 	0.56390 0.52265 0.67160 -0.27300
N 	N 	0.63200 0.48144 0.61620 -0.28000
N 	N 	0.83480 0.44950 0.67060 -0.33800
H 	H 	0.82290 0.42350 0.61260 0.15000
H 	H 	0.90470 0.45340 0.71870 0.11200
O 	O 	0.56930 0.38065 0.37850 -0.47700
O 	O 	0.75630 0.36164 0.47950 -0.32600
Zn	Zn	0.89932 0.54797 0.90436 1.18100
C 	C 	0.86170 0.45318 0.26760 0.09600
H 	H 	0.88470 0.42420 0.32120 -0.02400
C 	C 	0.75660 0.51579 0.18600 0.16700
C 	C 	0.84440 0.64998 0.91910 0.33800
C 	C 	0.87320 0.70373 0.88890 -0.08800
C 	C 	0.97340 0.72346 0.81100 -0.01600
H 	H 	0.03490 0.70410 0.76320 0.05500
N 	N 	0.74820 0.47478 0.28050 -0.30800
N 	N 	0.93610 0.47735 0.17160 -0.27100
N 	N 	0.86800 0.51856 0.11620 -0.27900
N 	N 	0.66520 0.55050 0.17060 -0.33800
H 	H 	0.67710 0.57650 0.11260 0.15100
H 	H 	0.59530 0.54660 0.21870 0.11300
O 	O 	0.93070 0.61935 0.87850 -0.47900
O 	O 	0.74370 0.63836 0.97950 -0.32600
Zn	Zn	0.39932 0.95203 0.59564 1.18200
C 	C 	0.36170 0.04682 0.23240 0.09500
H 	H 	0.38470 0.07580 0.17880 -0.02500
C 	C 	0.25660 0.98421 0.31400 0.16700
C 	C 	0.34440 0.85002 0.58090 0.33800
C 	C 	0.37320 0.79627 0.61110 -0.08900
C 	C 	0.47340 0.77654 0.68900 -0.01200
H 	H 	0.53490 0.79590 0.73680 0.05200
N 	N 	0.24820 0.02522 0.21950 -0.30900
N 	N 	0.43610 0.02265 0.32840 -0.27300
N 	N 	0.36800 0.98144 0.38380 -0.28000
N 	N 	0.16520 0.94950 0.32940 -0.33800
H 	H 	0.17710 0.92350 0.38740 0.15000
H 	H 	0.09530 0.95340 0.28130 0.11200
O 	O 	0.43070 0.88065 0.62150 -0.47700
O 	O 	0.24370 0.86164 0.52050 -0.32600
Zn	Zn	0.10068 0.04797 0.09564 1.18100
C 	C 	0.13830 0.95318 0.73240 0.09600
H 	H 	0.11530 0.92420 0.67880 -0.02400
C 	C 	0.24340 0.01579 0.81400 0.16700
C 	C 	0.15560 0.14998 0.08090 0.33800
C 	C 	0.12680 0.20373 0.11110 -0.08800
C 	C 	0.02660 0.22346 0.18900 -0.01700
H 	H 	0.96510 0.20410 0.23680 0.05500
N 	N 	0.25180 0.97478 0.71950 -0.30800
N 	N 	0.06390 0.97735 0.82840 -0.27100
N 	N 	0.13200 0.01856 0.88380 -0.28000
N 	N 	0.33480 0.05050 0.82940 -0.33800
H 	H 	0.32290 0.07650 0.88740 0.15100
H 	H 	0.40470 0.04660 0.78130 0.11300
O 	O 	0.06930 0.11935 0.12150 -0.47900
O 	O 	0.25630 0.13836 0.02050 -0.32600
S 	S 	0.27708 0.75000 0.53877 0.06300
S 	S 	0.22292 0.25000 0.03877 0.06200
S 	S 	0.72292 0.25000 0.46123 0.06300
S 	S 	0.77708 0.75000 0.96123 0.06200
