data_crystal

_cell_length_a 7.69600
_cell_length_b 21.22200
_cell_length_c 19.66800
_cell_angle_alpha 90.00000
_cell_angle_beta  97.80100
_cell_angle_gamma 90.00000

_symmetry_space_group_name_	'P 1'
_symmetry_space_group_name_H-M	'P 1'

loop_
_symmetry_equiv_pos_as_xyz
  x,y,z

loop_
_atom_site_label
_atom_site_type_symbol
_atom_site_fract_x
_atom_site_fract_y
_atom_site_fract_z
_atom_site_charge
Ce	Ce	0.00903 0.22313 0.24502 2.15200
C 	C 	0.28310 0.21470 0.36870 0.37700
C 	C 	0.39670 0.21480 0.43600 -0.13400
C 	C 	0.44390 0.15740 0.46900 0.10100
N 	N 	0.36600 0.10020 0.44680 -0.06000
N 	N 	0.39600 0.32540 0.44140 -0.06900
C 	C 	0.44870 0.27150 0.46800 0.09600
C 	C 	0.74490 0.18920 0.12370 0.37500
C 	C 	0.62060 0.17730 0.05990 -0.10300
C 	C 	0.68260 0.17460 0.99620 0.12000
C 	C 	0.44220 0.17550 0.06270 -0.04700
H 	H 	0.40340 0.17490 0.10550 0.05800
N 	N 	0.85100 0.15990 0.99060 -0.07700
C 	C 	0.88770 0.36460 0.24970 0.39100
C 	C 	0.87790 0.43490 0.25050 -0.13800
C 	C 	0.75440 0.46700 0.20330 0.07300
C 	C 	0.99470 0.46740 0.29840 0.09900
N 	N 	0.63100 0.44380 0.14980 -0.09100
N 	N 	0.12800 0.43970 0.33810 -0.05600
O 	O 	0.86860 0.11660 0.26560 -0.69800
H 	H 	0.83060 0.09330 0.23160 0.31600
H 	H 	0.97800 0.10810 0.27390 0.24400
O 	O 	0.17180 0.17220 0.35340 -0.41200
O 	O 	0.29630 0.26010 0.32690 -0.55300
O 	O 	0.68440 0.20920 0.17730 -0.57700
O 	O 	0.90680 0.18130 0.12560 -0.42100
O 	O 	0.76880 0.33300 0.21390 -0.54200
O 	O 	0.01720 0.33820 0.28290 -0.41500
Ce	Ce	0.50903 0.72313 0.24502 2.15200
C 	C 	0.78310 0.71470 0.36870 0.37600
C 	C 	0.89670 0.71480 0.43600 -0.13500
C 	C 	0.94390 0.65740 0.46900 0.10000
N 	N 	0.86600 0.60020 0.44680 -0.06000
N 	N 	0.89600 0.82540 0.44140 -0.06900
C 	C 	0.94870 0.77150 0.46800 0.09400
C 	C 	0.24490 0.68920 0.12370 0.37600
C 	C 	0.12060 0.67730 0.05990 -0.10900
C 	C 	0.18260 0.67460 0.99620 0.12200
C 	C 	0.94220 0.67550 0.06270 -0.04200
H 	H 	0.90340 0.67490 0.10550 0.05700
N 	N 	0.35100 0.65990 0.99060 -0.07700
C 	C 	0.38770 0.86460 0.24970 0.38700
C 	C 	0.37790 0.93490 0.25050 -0.13700
C 	C 	0.25440 0.96700 0.20330 0.07200
C 	C 	0.49470 0.96740 0.29840 0.09600
N 	N 	0.13100 0.94380 0.14980 -0.09100
N 	N 	0.62800 0.93970 0.33810 -0.05500
O 	O 	0.36860 0.61660 0.26560 -0.69800
H 	H 	0.33060 0.59330 0.23160 0.31500
H 	H 	0.47800 0.60810 0.27390 0.24200
O 	O 	0.67180 0.67220 0.35340 -0.41100
O 	O 	0.79630 0.76010 0.32690 -0.55200
O 	O 	0.18440 0.70920 0.17730 -0.57900
O 	O 	0.40680 0.68130 0.12560 -0.42400
O 	O 	0.26880 0.83300 0.21390 -0.54200
O 	O 	0.51720 0.83820 0.28290 -0.41100
Ce	Ce	0.99097 0.22313 0.75498 2.15100
C 	C 	0.71690 0.21470 0.63130 0.37600
C 	C 	0.60330 0.21480 0.56400 -0.13500
C 	C 	0.55610 0.15740 0.53100 0.10000
N 	N 	0.63400 0.10020 0.55320 -0.06100
N 	N 	0.60400 0.32540 0.55860 -0.07000
C 	C 	0.55130 0.27150 0.53200 0.09500
C 	C 	0.25510 0.18920 0.87630 0.37400
C 	C 	0.37940 0.17730 0.94010 -0.10300
C 	C 	0.31740 0.17460 0.00380 0.12000
C 	C 	0.55780 0.17550 0.93730 -0.04700
H 	H 	0.59660 0.17490 0.89450 0.05800
N 	N 	0.14900 0.15990 0.00940 -0.07700
C 	C 	0.11230 0.36460 0.75030 0.39100
C 	C 	0.12210 0.43490 0.74950 -0.13800
C 	C 	0.24560 0.46700 0.79670 0.07300
C 	C 	0.00530 0.46740 0.70160 0.09900
N 	N 	0.36900 0.44380 0.85020 -0.09100
N 	N 	0.87200 0.43970 0.66190 -0.05600
O 	O 	0.13140 0.11660 0.73440 -0.69800
H 	H 	0.16940 0.09330 0.76840 0.31600
H 	H 	0.02200 0.10810 0.72610 0.24400
O 	O 	0.82820 0.17220 0.64660 -0.41200
O 	O 	0.70370 0.26010 0.67310 -0.55300
O 	O 	0.31560 0.20920 0.82270 -0.57700
O 	O 	0.09320 0.18130 0.87440 -0.42100
O 	O 	0.23120 0.33300 0.78610 -0.54200
O 	O 	0.98280 0.33820 0.71710 -0.41500
Ce	Ce	0.49097 0.72313 0.75498 2.15200
C 	C 	0.21690 0.71470 0.63130 0.37600
C 	C 	0.10330 0.71480 0.56400 -0.13500
C 	C 	0.05610 0.65740 0.53100 0.10000
N 	N 	0.13400 0.60020 0.55320 -0.06000
N 	N 	0.10400 0.82540 0.55860 -0.06900
C 	C 	0.05130 0.77150 0.53200 0.09400
C 	C 	0.75510 0.68920 0.87630 0.37600
C 	C 	0.87940 0.67730 0.94010 -0.10900
C 	C 	0.81740 0.67460 0.00380 0.12200
C 	C 	0.05780 0.67550 0.93730 -0.04200
H 	H 	0.09660 0.67490 0.89450 0.05700
N 	N 	0.64900 0.65990 0.00940 -0.07700
C 	C 	0.61230 0.86460 0.75030 0.38700
C 	C 	0.62210 0.93490 0.74950 -0.13700
C 	C 	0.74560 0.96700 0.79670 0.07200
C 	C 	0.50530 0.96740 0.70160 0.09600
N 	N 	0.86900 0.94380 0.85020 -0.09100
N 	N 	0.37200 0.93970 0.66190 -0.05500
O 	O 	0.63140 0.61660 0.73440 -0.69800
H 	H 	0.66940 0.59330 0.76840 0.31500
H 	H 	0.52200 0.60810 0.72610 0.24200
O 	O 	0.32820 0.67220 0.64660 -0.41100
O 	O 	0.20370 0.76010 0.67310 -0.55200
O 	O 	0.81560 0.70920 0.82270 -0.57900
O 	O 	0.59320 0.68130 0.87440 -0.42400
O 	O 	0.73120 0.83300 0.78610 -0.54200
O 	O 	0.48280 0.83820 0.71710 -0.41100
Ce	Ce	0.99097 0.77687 0.75498 2.15100
C 	C 	0.71690 0.78530 0.63130 0.37600
C 	C 	0.60330 0.78520 0.56400 -0.13500
C 	C 	0.55610 0.84260 0.53100 0.10000
N 	N 	0.63400 0.89980 0.55320 -0.06100
N 	N 	0.60400 0.67460 0.55860 -0.07000
C 	C 	0.55130 0.72850 0.53200 0.09500
C 	C 	0.25510 0.81080 0.87630 0.37400
C 	C 	0.37940 0.82270 0.94010 -0.10300
C 	C 	0.31740 0.82540 0.00380 0.12000
C 	C 	0.55780 0.82450 0.93730 -0.04700
H 	H 	0.59660 0.82510 0.89450 0.05800
N 	N 	0.14900 0.84010 0.00940 -0.07700
C 	C 	0.11230 0.63540 0.75030 0.39100
C 	C 	0.12210 0.56510 0.74950 -0.13800
C 	C 	0.24560 0.53300 0.79670 0.07300
C 	C 	0.00530 0.53260 0.70160 0.09900
N 	N 	0.36900 0.55620 0.85020 -0.09100
N 	N 	0.87200 0.56030 0.66190 -0.05600
O 	O 	0.13140 0.88340 0.73440 -0.69800
H 	H 	0.16940 0.90670 0.76840 0.31600
H 	H 	0.02200 0.89190 0.72610 0.24400
O 	O 	0.82820 0.82780 0.64660 -0.41200
O 	O 	0.70370 0.73990 0.67310 -0.55300
O 	O 	0.31560 0.79080 0.82270 -0.57700
O 	O 	0.09320 0.81870 0.87440 -0.42100
O 	O 	0.23120 0.66700 0.78610 -0.54200
O 	O 	0.98280 0.66180 0.71710 -0.41500
Ce	Ce	0.49097 0.27687 0.75498 2.15200
C 	C 	0.21690 0.28530 0.63130 0.37600
C 	C 	0.10330 0.28520 0.56400 -0.13500
C 	C 	0.05610 0.34260 0.53100 0.10000
N 	N 	0.13400 0.39980 0.55320 -0.06000
N 	N 	0.10400 0.17460 0.55860 -0.06900
C 	C 	0.05130 0.22850 0.53200 0.09400
C 	C 	0.75510 0.31080 0.87630 0.37600
C 	C 	0.87940 0.32270 0.94010 -0.10900
C 	C 	0.81740 0.32540 0.00380 0.12200
C 	C 	0.05780 0.32450 0.93730 -0.04200
H 	H 	0.09660 0.32510 0.89450 0.05700
N 	N 	0.64900 0.34010 0.00940 -0.07700
C 	C 	0.61230 0.13540 0.75030 0.38700
C 	C 	0.62210 0.06510 0.74950 -0.13700
C 	C 	0.74560 0.03300 0.79670 0.07200
C 	C 	0.50530 0.03260 0.70160 0.09600
N 	N 	0.86900 0.05620 0.85020 -0.09100
N 	N 	0.37200 0.06030 0.66190 -0.05500
O 	O 	0.63140 0.38340 0.73440 -0.69800
H 	H 	0.66940 0.40670 0.76840 0.31500
H 	H 	0.52200 0.39190 0.72610 0.24200
O 	O 	0.32820 0.32780 0.64660 -0.41100
O 	O 	0.20370 0.23990 0.67310 -0.55200
O 	O 	0.81560 0.29080 0.82270 -0.57900
O 	O 	0.59320 0.31870 0.87440 -0.42400
O 	O 	0.73120 0.16700 0.78610 -0.54200
O 	O 	0.48280 0.16180 0.71710 -0.41100
Ce	Ce	0.00903 0.77687 0.24502 2.15100
C 	C 	0.28310 0.78530 0.36870 0.37600
C 	C 	0.39670 0.78520 0.43600 -0.13500
C 	C 	0.44390 0.84260 0.46900 0.10000
N 	N 	0.36600 0.89980 0.44680 -0.06100
N 	N 	0.39600 0.67460 0.44140 -0.07000
C 	C 	0.44870 0.72850 0.46800 0.09500
C 	C 	0.74490 0.81080 0.12370 0.37400
C 	C 	0.62060 0.82270 0.05990 -0.10300
C 	C 	0.68260 0.82540 0.99620 0.12000
C 	C 	0.44220 0.82450 0.06270 -0.04700
H 	H 	0.40340 0.82510 0.10550 0.05800
N 	N 	0.85100 0.84010 0.99060 -0.07700
C 	C 	0.88770 0.63540 0.24970 0.39100
C 	C 	0.87790 0.56510 0.25050 -0.13800
C 	C 	0.75440 0.53300 0.20330 0.07300
C 	C 	0.99470 0.53260 0.29840 0.09900
N 	N 	0.63100 0.55620 0.14980 -0.09100
N 	N 	0.12800 0.56030 0.33810 -0.05600
O 	O 	0.86860 0.88340 0.26560 -0.69800
H 	H 	0.83060 0.90670 0.23160 0.31600
H 	H 	0.97800 0.89190 0.27390 0.24400
O 	O 	0.17180 0.82780 0.35340 -0.41200
O 	O 	0.29630 0.73990 0.32690 -0.55300
O 	O 	0.68440 0.79080 0.17730 -0.57700
O 	O 	0.90680 0.81870 0.12560 -0.42100
O 	O 	0.76880 0.66700 0.21390 -0.54200
O 	O 	0.01720 0.66180 0.28290 -0.41500
Ce	Ce	0.50903 0.27687 0.24502 2.15200
C 	C 	0.78310 0.28530 0.36870 0.37600
C 	C 	0.89670 0.28520 0.43600 -0.13500
C 	C 	0.94390 0.34260 0.46900 0.10000
N 	N 	0.86600 0.39980 0.44680 -0.06000
N 	N 	0.89600 0.17460 0.44140 -0.06900
C 	C 	0.94870 0.22850 0.46800 0.09400
C 	C 	0.24490 0.31080 0.12370 0.37600
C 	C 	0.12060 0.32270 0.05990 -0.10900
C 	C 	0.18260 0.32540 0.99620 0.12200
C 	C 	0.94220 0.32450 0.06270 -0.04200
H 	H 	0.90340 0.32510 0.10550 0.05700
N 	N 	0.35100 0.34010 0.99060 -0.07700
C 	C 	0.38770 0.13540 0.24970 0.38700
C 	C 	0.37790 0.06510 0.25050 -0.13700
C 	C 	0.25440 0.03300 0.20330 0.07200
C 	C 	0.49470 0.03260 0.29840 0.09600
N 	N 	0.13100 0.05620 0.14980 -0.09100
N 	N 	0.62800 0.06030 0.33810 -0.05500
O 	O 	0.36860 0.38340 0.26560 -0.69800
H 	H 	0.33060 0.40670 0.23160 0.31500
H 	H 	0.47800 0.39190 0.27390 0.24200
O 	O 	0.67180 0.32780 0.35340 -0.41100
O 	O 	0.79630 0.23990 0.32690 -0.55200
O 	O 	0.18440 0.29080 0.17730 -0.57900
O 	O 	0.40680 0.31870 0.12560 -0.42400
O 	O 	0.26880 0.16700 0.21390 -0.54200
O 	O 	0.51720 0.16180 0.28290 -0.41100
