data_crystal

_cell_length_a 16.48300
_cell_length_b 16.48300
_cell_length_c 14.20300
_cell_angle_alpha 90.00000
_cell_angle_beta  90.00000
_cell_angle_gamma 120.00000

_symmetry_space_group_name_	'P 1'
_symmetry_space_group_name_H-M	'P 1'

loop_
_symmetry_equiv_pos_as_xyz
  x,y,z

loop_
_atom_site_label
_atom_site_type_symbol
_atom_site_fract_x
_atom_site_fract_y
_atom_site_fract_z
_atom_site_charge
O 	O 	0.55920 0.22660 0.32420 -0.44000
O 	O 	0.53950 0.23850 0.47960 -0.49700
C 	C 	0.22070 0.01180 0.37240 0.36900
C 	C 	0.36940 0.09530 0.30230 0.22900
H 	H 	0.40810 0.11000 0.24990 -0.03100
C 	C 	0.25560 0.04710 0.45940 -0.35600
H 	H 	0.21680 0.02960 0.51190 0.18200
C 	C 	0.27500 0.03470 0.29320 -0.35600
H 	H 	0.24860 0.00990 0.23490 0.18000
C 	C 	0.35080 0.10990 0.46710 0.22800
H 	H 	0.37640 0.13540 0.52550 -0.03200
C 	C 	0.40770 0.13470 0.38900 -0.25700
O 	O 	0.12430 0.94630 0.36460 -0.31400
C 	C 	0.06380 0.97610 0.36760 0.26900
N 	N 	0.97340 0.90530 0.36760 -0.18900
C 	C 	0.51000 0.20480 0.39840 0.43100
O 	O 	0.77340 0.33260 0.32420 -0.44100
O 	O 	0.76150 0.30100 0.47960 -0.49800
C 	C 	0.98820 0.20890 0.37240 0.36900
C 	C 	0.90470 0.27410 0.30230 0.22900
H 	H 	0.89000 0.29810 0.24990 -0.03100
C 	C 	0.95290 0.20850 0.45940 -0.35600
H 	H 	0.97040 0.18720 0.51190 0.18200
C 	C 	0.96530 0.24030 0.29320 -0.35600
H 	H 	0.99010 0.23870 0.23490 0.18000
C 	C 	0.89010 0.24090 0.46710 0.22800
H 	H 	0.86460 0.24100 0.52550 -0.03200
C 	C 	0.86530 0.27300 0.38900 -0.25700
O 	O 	0.05370 0.17800 0.36460 -0.31400
C 	C 	0.02390 0.08770 0.36760 0.27100
N 	N 	0.09470 0.06810 0.36760 -0.18900
C 	C 	0.79520 0.30520 0.39840 0.43100
O 	O 	0.66740 0.44080 0.32420 -0.44100
O 	O 	0.69900 0.46050 0.47960 -0.49800
C 	C 	0.79110 0.77930 0.37240 0.36600
C 	C 	0.72590 0.63060 0.30230 0.22800
H 	H 	0.70190 0.59190 0.24990 -0.03100
C 	C 	0.79150 0.74440 0.45940 -0.35500
H 	H 	0.81280 0.78320 0.51190 0.18200
C 	C 	0.75970 0.72500 0.29320 -0.35400
H 	H 	0.76130 0.75140 0.23490 0.17900
C 	C 	0.75910 0.64920 0.46710 0.22700
H 	H 	0.75900 0.62360 0.52550 -0.03100
C 	C 	0.72700 0.59230 0.38900 -0.25700
O 	O 	0.82200 0.87570 0.36460 -0.31200
C 	C 	0.91230 0.93620 0.36760 0.27100
N 	N 	0.93190 0.02660 0.36760 -0.18800
C 	C 	0.69480 0.49000 0.39840 0.43100
O 	O 	0.77340 0.44080 0.17580 -0.44100
O 	O 	0.76150 0.46050 0.02040 -0.49600
C 	C 	0.98820 0.77930 0.12760 0.37100
C 	C 	0.90470 0.63060 0.19770 0.23100
H 	H 	0.89000 0.59190 0.25010 -0.03200
C 	C 	0.95290 0.74440 0.04060 -0.35600
H 	H 	0.97040 0.78320 0.98810 0.18100
C 	C 	0.96530 0.72500 0.20680 -0.35800
H 	H 	0.99010 0.75140 0.26510 0.18100
C 	C 	0.89010 0.64920 0.03290 0.23400
H 	H 	0.86460 0.62360 0.97450 -0.03600
C 	C 	0.86530 0.59230 0.11100 -0.26000
O 	O 	0.05370 0.87570 0.13540 -0.31500
C 	C 	0.02390 0.93620 0.13240 0.26500
N 	N 	0.09470 0.02660 0.13240 -0.18600
C 	C 	0.79520 0.49000 0.10160 0.43200
O 	O 	0.66740 0.22660 0.17580 -0.44100
O 	O 	0.69900 0.23850 0.02040 -0.49600
C 	C 	0.79110 0.01180 0.12760 0.36600
C 	C 	0.72590 0.09530 0.19770 0.22900
H 	H 	0.70190 0.11000 0.25010 -0.03100
C 	C 	0.79150 0.04710 0.04060 -0.34200
H 	H 	0.81280 0.02960 0.98810 0.17200
C 	C 	0.75970 0.03470 0.20680 -0.35400
H 	H 	0.76130 0.00990 0.26510 0.17900
C 	C 	0.75910 0.10990 0.03290 0.23500
H 	H 	0.75900 0.13540 0.97450 -0.03900
C 	C 	0.72700 0.13470 0.11100 -0.25900
O 	O 	0.82200 0.94630 0.13540 -0.31300
C 	C 	0.91230 0.97610 0.13240 0.26900
N 	N 	0.93190 0.90530 0.13240 -0.18700
C 	C 	0.69480 0.20480 0.10160 0.43200
O 	O 	0.55920 0.33260 0.17580 -0.44100
O 	O 	0.53950 0.30100 0.02040 -0.49700
C 	C 	0.22070 0.20890 0.12760 0.36700
C 	C 	0.36940 0.27410 0.19770 0.22900
H 	H 	0.40810 0.29810 0.25010 -0.03200
C 	C 	0.25560 0.20850 0.04060 -0.35600
H 	H 	0.21680 0.18720 0.98810 0.18300
C 	C 	0.27500 0.24030 0.20680 -0.35500
H 	H 	0.24860 0.23870 0.26510 0.17900
C 	C 	0.35080 0.24090 0.03290 0.23100
H 	H 	0.37640 0.24100 0.97450 -0.03400
C 	C 	0.40770 0.27300 0.11100 -0.25800
O 	O 	0.12430 0.17800 0.13540 -0.31200
C 	C 	0.06380 0.08770 0.13240 0.26900
N 	N 	0.97340 0.06810 0.13240 -0.18500
C 	C 	0.51000 0.30520 0.10160 0.43100
Co	Co	0.66667 0.33333 0.25000 1.21100
Co	Co	0.66667 0.33333 0.50303 1.14500
Co	Co	0.66667 0.33333 0.99697 1.14200
O 	O 	0.44080 0.77340 0.67580 -0.44100
O 	O 	0.46050 0.76150 0.52040 -0.49800
C 	C 	0.77930 0.98820 0.62760 0.36900
C 	C 	0.63060 0.90470 0.69770 0.22900
H 	H 	0.59190 0.89000 0.75010 -0.03100
C 	C 	0.74440 0.95290 0.54060 -0.35600
H 	H 	0.78320 0.97040 0.48810 0.18200
C 	C 	0.72500 0.96530 0.70680 -0.35600
H 	H 	0.75140 0.99010 0.76510 0.18000
C 	C 	0.64920 0.89010 0.53290 0.22800
H 	H 	0.62360 0.86460 0.47450 -0.03200
C 	C 	0.59230 0.86530 0.61100 -0.25700
O 	O 	0.87570 0.05370 0.63540 -0.31400
C 	C 	0.93620 0.02390 0.63240 0.26900
N 	N 	0.02660 0.09470 0.63240 -0.18900
C 	C 	0.49000 0.79520 0.60160 0.43100
O 	O 	0.22660 0.66740 0.67580 -0.44100
O 	O 	0.23850 0.69900 0.52040 -0.49800
C 	C 	0.01180 0.79110 0.62760 0.36900
C 	C 	0.09530 0.72590 0.69770 0.22900
H 	H 	0.11000 0.70190 0.75010 -0.03100
C 	C 	0.04710 0.79150 0.54060 -0.35600
H 	H 	0.02960 0.81280 0.48810 0.18200
C 	C 	0.03470 0.75970 0.70680 -0.35600
H 	H 	0.00990 0.76130 0.76510 0.18000
C 	C 	0.10990 0.75910 0.53290 0.22800
H 	H 	0.13540 0.75900 0.47450 -0.03200
C 	C 	0.13470 0.72700 0.61100 -0.25700
O 	O 	0.94630 0.82200 0.63540 -0.31400
C 	C 	0.97610 0.91230 0.63240 0.27100
N 	N 	0.90530 0.93190 0.63240 -0.18900
C 	C 	0.20480 0.69480 0.60160 0.43100
O 	O 	0.33260 0.55920 0.67580 -0.44100
O 	O 	0.30100 0.53950 0.52040 -0.49800
C 	C 	0.20890 0.22070 0.62760 0.36600
C 	C 	0.27410 0.36940 0.69770 0.22800
H 	H 	0.29810 0.40810 0.75010 -0.03100
C 	C 	0.20850 0.25560 0.54060 -0.35500
H 	H 	0.18720 0.21680 0.48810 0.18200
C 	C 	0.24030 0.27500 0.70680 -0.35400
H 	H 	0.23870 0.24860 0.76510 0.17900
C 	C 	0.24090 0.35080 0.53290 0.22700
H 	H 	0.24100 0.37640 0.47450 -0.03100
C 	C 	0.27300 0.40770 0.61100 -0.25700
O 	O 	0.17800 0.12430 0.63540 -0.31200
C 	C 	0.08770 0.06380 0.63240 0.27100
N 	N 	0.06810 0.97340 0.63240 -0.18800
C 	C 	0.30520 0.51000 0.60160 0.43100
O 	O 	0.22660 0.55920 0.82420 -0.44100
O 	O 	0.23850 0.53950 0.97960 -0.49600
C 	C 	0.01180 0.22070 0.87240 0.37100
C 	C 	0.09530 0.36940 0.80230 0.23100
H 	H 	0.11000 0.40810 0.74990 -0.03200
C 	C 	0.04710 0.25560 0.95940 -0.35600
H 	H 	0.02960 0.21680 0.01190 0.18100
C 	C 	0.03470 0.27500 0.79320 -0.35800
H 	H 	0.00990 0.24860 0.73490 0.18100
C 	C 	0.10990 0.35080 0.96710 0.23400
H 	H 	0.13540 0.37640 0.02550 -0.03600
C 	C 	0.13470 0.40770 0.88900 -0.26000
O 	O 	0.94630 0.12430 0.86460 -0.31500
C 	C 	0.97610 0.06380 0.86760 0.26500
N 	N 	0.90530 0.97340 0.86760 -0.18600
C 	C 	0.20480 0.51000 0.89840 0.43200
O 	O 	0.33260 0.77340 0.82420 -0.44100
O 	O 	0.30100 0.76150 0.97960 -0.49600
C 	C 	0.20890 0.98820 0.87240 0.36600
C 	C 	0.27410 0.90470 0.80230 0.22900
H 	H 	0.29810 0.89000 0.74990 -0.03100
C 	C 	0.20850 0.95290 0.95940 -0.34200
H 	H 	0.18720 0.97040 0.01190 0.17200
C 	C 	0.24030 0.96530 0.79320 -0.35400
H 	H 	0.23870 0.99010 0.73490 0.17900
C 	C 	0.24090 0.89010 0.96710 0.23500
H 	H 	0.24100 0.86460 0.02550 -0.03900
C 	C 	0.27300 0.86530 0.88900 -0.25900
O 	O 	0.17800 0.05370 0.86460 -0.31300
C 	C 	0.08770 0.02390 0.86760 0.26900
N 	N 	0.06810 0.09470 0.86760 -0.18700
C 	C 	0.30520 0.79520 0.89840 0.43200
O 	O 	0.44080 0.66740 0.82420 -0.44100
O 	O 	0.46050 0.69900 0.97960 -0.49700
C 	C 	0.77930 0.79110 0.87240 0.36700
C 	C 	0.63060 0.72590 0.80230 0.22900
H 	H 	0.59190 0.70190 0.74990 -0.03200
C 	C 	0.74440 0.79150 0.95940 -0.35600
H 	H 	0.78320 0.81280 0.01190 0.18300
C 	C 	0.72500 0.75970 0.79320 -0.35500
H 	H 	0.75140 0.76130 0.73490 0.17900
C 	C 	0.64920 0.75910 0.96710 0.23100
H 	H 	0.62360 0.75900 0.02550 -0.03400
C 	C 	0.59230 0.72700 0.88900 -0.25800
O 	O 	0.87570 0.82200 0.86460 -0.31200
C 	C 	0.93620 0.91230 0.86760 0.26900
N 	N 	0.02660 0.93190 0.86760 -0.18500
C 	C 	0.49000 0.69480 0.89840 0.43100
Co	Co	0.33333 0.66667 0.75000 1.21100
Co	Co	0.33333 0.66667 0.49697 1.14500
Co	Co	0.33333 0.66667 0.00303 1.14200
