data_crystal

_cell_length_a 9.59800
_cell_length_b 10.18400
_cell_length_c 18.28800
_cell_angle_alpha 102.75900
_cell_angle_beta  96.64400
_cell_angle_gamma 96.74000

_symmetry_space_group_name_	'P 1'
_symmetry_space_group_name_H-M	'P 1'

loop_
_symmetry_equiv_pos_as_xyz
  x,y,z

loop_
_atom_site_label
_atom_site_type_symbol
_atom_site_fract_x
_atom_site_fract_y
_atom_site_fract_z
_atom_site_charge
C 	C 	0.23020 0.77880 0.91490 0.31700
C 	C 	0.72710 0.83080 0.95110 0.36400
C 	C 	0.91950 0.86600 0.05920 -0.11900
H 	H 	0.84860 0.88540 0.09050 0.08000
C 	C 	0.88230 0.83090 0.98080 0.01100
C 	C 	0.98180 0.80200 0.93470 -0.02700
H 	H 	0.95510 0.77620 0.88130 0.07100
C 	C 	0.12310 0.81010 0.96590 0.00100
C 	C 	0.16100 0.84460 0.04440 -0.12400
H 	H 	0.25700 0.84900 0.06560 0.07900
C 	C 	0.05860 0.87300 0.09220 0.06300
C 	C 	0.09870 0.91100 0.17660 -0.02600
C 	C 	0.17210 0.98700 0.33510 0.08200
C 	C 	0.21470 0.02850 0.41910 -0.03800
C 	C 	0.30080 0.10950 0.57760 0.04200
C 	C 	0.34840 0.15350 0.66110 -0.01700
C 	C 	0.00550 0.86950 0.22510 -0.14400
H 	H 	0.91700 0.81450 0.20380 0.08800
C 	C 	0.04280 0.90840 0.30290 0.06400
H 	H 	0.97910 0.88100 0.33460 0.01400
C 	C 	0.25980 0.03430 0.28770 -0.07500
H 	H 	0.34630 0.09300 0.30890 0.05900
C 	C 	0.22120 0.99630 0.21090 0.00900
H 	H 	0.28200 0.03060 0.17980 0.02800
C 	C 	0.17160 0.13990 0.46370 -0.05200
H 	H 	0.11260 0.19280 0.44080 0.04100
C 	C 	0.21220 0.17460 0.53960 -0.01800
H 	H 	0.17640 0.24960 0.56830 0.03200
C 	C 	0.34490 0.99600 0.53310 -0.00000
H 	H 	0.40440 0.94480 0.55700 0.03000
C 	C 	0.30430 0.95550 0.45440 -0.06200
H 	H 	0.33740 0.87900 0.42540 0.04800
C 	C 	0.01960 0.99080 0.22220 0.12100
H 	H 	0.93950 0.02140 0.19930 -0.00500
C 	C 	0.05460 0.02680 0.30000 -0.20700
H 	H 	0.99700 0.07970 0.32990 0.10300
C 	C 	0.25360 0.90520 0.28820 -0.05800
H 	H 	0.33420 0.87530 0.31100 0.05300
C 	C 	0.21750 0.86790 0.20910 -0.01900
H 	H 	0.27330 0.81420 0.17840 0.04500
C 	C 	0.17480 0.95280 0.46600 0.03300
H 	H 	0.11350 0.86920 0.44540 0.01500
C 	C 	0.21950 0.99140 0.54500 -0.09900
H 	H 	0.19080 0.93180 0.57550 0.06100
C 	C 	0.34490 0.19600 0.53200 -0.08500
H 	H 	0.40300 0.28090 0.55420 0.05800
C 	C 	0.30230 0.15570 0.45250 0.00800
H 	H 	0.33220 0.21370 0.42130 0.02600
C 	C 	0.36940 0.29080 0.69770 -0.02800
H 	H 	0.35500 0.35670 0.66910 0.05400
C 	C 	0.41090 0.33220 0.77520 -0.05600
C 	C 	0.43420 0.23850 0.81740 0.00700
H 	H 	0.46090 0.26720 0.87080 0.06800
C 	C 	0.41840 0.10150 0.78130 -0.08600
C 	C 	0.37260 0.05950 0.70350 -0.02800
H 	H 	0.35780 0.96520 0.67940 0.05300
C 	C 	0.43340 0.48390 0.81360 0.30800
C 	C 	0.45340 0.99770 0.82600 0.37500
O 	O 	0.19150 0.71990 0.84770 -0.30900
O 	O 	0.36350 0.81010 0.94187 -0.50700
O 	O 	0.68080 0.76780 0.88430 -0.44000
O 	O 	0.66090 0.89610 0.99740 -0.44100
O 	O 	0.43020 0.56670 0.77260 -0.40700
O 	O 	0.45600 0.52040 0.88380 -0.31300
O 	O 	0.43270 0.87520 0.79174 -0.45000
O 	O 	0.50830 0.04400 0.89413 -0.43300
Zn	Zn	0.46795 0.74118 0.85389 1.23300
C 	C 	0.76980 0.22120 0.08510 0.37900
C 	C 	0.27290 0.16920 0.04890 0.43200
C 	C 	0.08050 0.13400 0.94080 0.12000
H 	H 	0.15140 0.11460 0.90950 0.01500
C 	C 	0.11770 0.16910 0.01920 -0.21100
C 	C 	0.01820 0.19800 0.06530 0.12100
H 	H 	0.04490 0.22380 0.11870 0.01600
C 	C 	0.87690 0.18990 0.03410 -0.20700
C 	C 	0.83900 0.15540 0.95560 0.12200
H 	H 	0.74300 0.15100 0.93440 0.01300
C 	C 	0.94140 0.12700 0.90780 -0.09900
C 	C 	0.90130 0.08900 0.82340 0.10800
C 	C 	0.82790 0.01300 0.66490 -0.03300
C 	C 	0.78530 0.97150 0.58090 0.05400
C 	C 	0.69920 0.89050 0.42240 0.04400
C 	C 	0.65160 0.84650 0.33890 -0.02400
C 	C 	0.99450 0.13050 0.77490 0.26000
H 	H 	0.08300 0.18550 0.79620 -0.05200
C 	C 	0.95720 0.09160 0.69710 -0.34000
H 	H 	0.02090 0.11900 0.66540 0.13800
C 	C 	0.74020 0.96570 0.71230 -0.19700
H 	H 	0.65370 0.90700 0.69110 0.10100
C 	C 	0.77880 0.00370 0.78910 0.12200
H 	H 	0.71800 0.96940 0.82020 -0.00000
C 	C 	0.82840 0.86010 0.53630 -0.09800
H 	H 	0.88740 0.80720 0.55920 0.06400
C 	C 	0.78780 0.82540 0.46040 0.01900
H 	H 	0.82360 0.75040 0.43170 0.02400
C 	C 	0.65510 0.00400 0.46690 0.01100
H 	H 	0.59560 0.05520 0.44300 0.02400
C 	C 	0.69570 0.04450 0.54560 -0.10200
H 	H 	0.66260 0.12100 0.57460 0.06500
C 	C 	0.98040 0.00920 0.77780 -0.40100
H 	H 	0.06050 0.97860 0.80070 0.17200
C 	C 	0.94540 0.97320 0.70000 0.34300
H 	H 	0.00300 0.92030 0.67010 -0.08900
C 	C 	0.74640 0.09480 0.71180 0.16500
H 	H 	0.66580 0.12470 0.68900 -0.02300
C 	C 	0.78250 0.13210 0.79090 -0.25700
H 	H 	0.72670 0.18580 0.82160 0.13000
C 	C 	0.82520 0.04720 0.53400 0.00500
H 	H 	0.88650 0.13080 0.55460 0.02800
C 	C 	0.78050 0.00860 0.45500 -0.10100
H 	H 	0.80920 0.06820 0.42450 0.06000
C 	C 	0.65510 0.80400 0.46800 -0.09500
H 	H 	0.59700 0.71910 0.44580 0.06100
C 	C 	0.69770 0.84430 0.54750 0.00200
H 	H 	0.66780 0.78630 0.57870 0.02700
C 	C 	0.63060 0.70920 0.30230 -0.02200
H 	H 	0.64500 0.64330 0.33090 0.05300
C 	C 	0.58910 0.66780 0.22480 -0.06700
C 	C 	0.56580 0.76150 0.18260 0.01100
H 	H 	0.53910 0.73280 0.12920 0.05200
C 	C 	0.58160 0.89850 0.21870 -0.08600
C 	C 	0.62740 0.94050 0.29650 -0.00500
H 	H 	0.64220 0.03480 0.32060 0.03900
C 	C 	0.56660 0.51610 0.18640 0.31400
C 	C 	0.54660 0.00230 0.17400 0.35800
O 	O 	0.80850 0.28010 0.15230 -0.32400
O 	O 	0.63650 0.18990 0.05813 -0.55600
O 	O 	0.31920 0.23220 0.11570 -0.46500
O 	O 	0.33910 0.10390 0.00260 -0.51300
O 	O 	0.56980 0.43330 0.22740 -0.40800
O 	O 	0.54400 0.47960 0.11620 -0.33400
O 	O 	0.56730 0.12480 0.20826 -0.44700
O 	O 	0.49170 0.95600 0.10587 -0.44700
Zn	Zn	0.53205 0.25882 0.14611 1.23200
Zn	Zn	0.50000 0.00000 -0.00000 1.22800
