data_crystal

_cell_length_a 16.56110
_cell_length_b 16.56110
_cell_length_c 22.31200
_cell_angle_alpha 90.00000
_cell_angle_beta  90.00000
_cell_angle_gamma 90.00000

_symmetry_space_group_name_	'P 1'
_symmetry_space_group_name_H-M	'P 1'

loop_
_symmetry_equiv_pos_as_xyz
  x,y,z

loop_
_atom_site_label
_atom_site_type_symbol
_atom_site_fract_x
_atom_site_fract_y
_atom_site_fract_z
_atom_site_charge
N 	N 	0.10260 0.84160 0.92780 -0.17800
N 	N 	0.11080 0.79520 0.88240 -0.11200
C 	C 	0.18430 0.71960 0.77550 -0.06300
H 	H 	0.13880 0.69650 0.79280 0.04500
N 	N 	0.60260 0.34160 0.42780 -0.20300
N 	N 	0.61080 0.29520 0.38240 -0.11800
C 	C 	0.68430 0.21960 0.27550 -0.06500
H 	H 	0.63880 0.19650 0.29280 0.03700
N 	N 	0.89740 0.15840 0.92780 -0.16000
N 	N 	0.88920 0.20480 0.88240 -0.09300
C 	C 	0.81570 0.28040 0.77550 -0.06100
H 	H 	0.86120 0.30350 0.79280 0.06500
N 	N 	0.39740 0.65840 0.42780 -0.20100
N 	N 	0.38920 0.70480 0.38240 -0.11200
C 	C 	0.31570 0.78040 0.27550 -0.06100
H 	H 	0.36120 0.80350 0.29280 0.05000
N 	N 	0.15840 0.10260 0.92780 -0.18600
N 	N 	0.20480 0.11080 0.88240 -0.11700
C 	C 	0.28040 0.18430 0.77550 -0.05400
H 	H 	0.30350 0.13880 0.79280 0.03800
N 	N 	0.65840 0.60260 0.42780 -0.19900
N 	N 	0.70480 0.61080 0.38240 -0.11100
C 	C 	0.78040 0.68430 0.27550 -0.04500
H 	H 	0.80350 0.63880 0.29280 0.04800
N 	N 	0.84160 0.89740 0.92780 -0.15100
N 	N 	0.79520 0.88920 0.88240 -0.08900
C 	C 	0.71960 0.81570 0.77550 -0.07000
H 	H 	0.69650 0.86120 0.79280 0.07200
N 	N 	0.34160 0.39740 0.42780 -0.20500
N 	N 	0.29520 0.38920 0.38240 -0.11900
C 	C 	0.21960 0.31570 0.27550 -0.08000
H 	H 	0.19650 0.36120 0.29280 0.03900
N 	N 	0.89740 0.84160 0.07220 -0.19500
N 	N 	0.88920 0.79520 0.11760 -0.10600
C 	C 	0.81570 0.71960 0.22450 -0.05800
H 	H 	0.86120 0.69650 0.20720 0.05400
N 	N 	0.39740 0.34160 0.57220 -0.20400
N 	N 	0.38920 0.29520 0.61760 -0.11800
C 	C 	0.31570 0.21960 0.72450 -0.05700
H 	H 	0.36120 0.19650 0.70720 0.03800
N 	N 	0.10260 0.15840 0.07220 -0.23400
N 	N 	0.11080 0.20480 0.11760 -0.13600
C 	C 	0.18430 0.28040 0.22450 -0.04000
H 	H 	0.13880 0.30350 0.20720 0.01700
N 	N 	0.60260 0.65840 0.57220 -0.19800
N 	N 	0.61080 0.70480 0.61760 -0.10900
C 	C 	0.68430 0.78040 0.72450 -0.02400
H 	H 	0.63880 0.80350 0.70720 0.04700
N 	N 	0.84160 0.10260 0.07220 -0.22400
N 	N 	0.79520 0.11080 0.11760 -0.13100
C 	C 	0.71960 0.18430 0.22450 -0.05000
H 	H 	0.69650 0.13880 0.20720 0.02500
N 	N 	0.34160 0.60260 0.57220 -0.20200
N 	N 	0.29520 0.61080 0.61760 -0.11700
C 	C 	0.21960 0.68430 0.72450 -0.04200
H 	H 	0.19650 0.63880 0.70720 0.03600
N 	N 	0.15840 0.89740 0.07220 -0.20600
N 	N 	0.20480 0.88920 0.11760 -0.11100
C 	C 	0.28040 0.81570 0.22450 -0.04800
H 	H 	0.30350 0.86120 0.20720 0.04600
N 	N 	0.65840 0.39740 0.57220 -0.20000
N 	N 	0.70480 0.38920 0.61760 -0.11000
C 	C 	0.78040 0.31570 0.72450 -0.03800
H 	H 	0.80350 0.36120 0.70720 0.04900
N 	N 	0.89740 0.15840 0.07220 -0.20600
N 	N 	0.88920 0.20480 0.11760 -0.11100
C 	C 	0.81570 0.28040 0.22450 -0.04800
H 	H 	0.86120 0.30350 0.20720 0.04600
N 	N 	0.39740 0.65840 0.57220 -0.20000
N 	N 	0.38920 0.70480 0.61760 -0.11000
C 	C 	0.31570 0.78040 0.72450 -0.03800
H 	H 	0.36120 0.80350 0.70720 0.04900
N 	N 	0.10260 0.84160 0.07220 -0.22400
N 	N 	0.11080 0.79520 0.11760 -0.13100
C 	C 	0.18430 0.71960 0.22450 -0.05000
H 	H 	0.13880 0.69650 0.20720 0.02500
N 	N 	0.60260 0.34160 0.57220 -0.20200
N 	N 	0.61080 0.29520 0.61760 -0.11700
C 	C 	0.68430 0.21960 0.72450 -0.04200
H 	H 	0.63880 0.19650 0.70720 0.03600
N 	N 	0.84160 0.89740 0.07220 -0.19500
N 	N 	0.79520 0.88920 0.11760 -0.10600
C 	C 	0.71960 0.81570 0.22450 -0.05800
H 	H 	0.69650 0.86120 0.20720 0.05400
N 	N 	0.34160 0.39740 0.57220 -0.20400
N 	N 	0.29520 0.38920 0.61760 -0.11800
C 	C 	0.21960 0.31570 0.72450 -0.05700
H 	H 	0.19650 0.36120 0.70720 0.03800
N 	N 	0.15840 0.10260 0.07220 -0.23400
N 	N 	0.20480 0.11080 0.11760 -0.13600
C 	C 	0.28040 0.18430 0.22450 -0.04000
H 	H 	0.30350 0.13880 0.20720 0.01700
N 	N 	0.65840 0.60260 0.57220 -0.19800
N 	N 	0.70480 0.61080 0.61760 -0.10900
C 	C 	0.78040 0.68430 0.72450 -0.02400
H 	H 	0.80350 0.63880 0.70720 0.04700
N 	N 	0.10260 0.15840 0.92780 -0.18600
N 	N 	0.11080 0.20480 0.88240 -0.11700
C 	C 	0.18430 0.28040 0.77550 -0.05400
H 	H 	0.13880 0.30350 0.79280 0.03800
N 	N 	0.60260 0.65840 0.42780 -0.19900
N 	N 	0.61080 0.70480 0.38240 -0.11100
C 	C 	0.68430 0.78040 0.27550 -0.04500
H 	H 	0.63880 0.80350 0.29280 0.04800
N 	N 	0.89740 0.84160 0.92780 -0.15100
N 	N 	0.88920 0.79520 0.88240 -0.08900
C 	C 	0.81570 0.71960 0.77550 -0.07000
H 	H 	0.86120 0.69650 0.79280 0.07200
N 	N 	0.39740 0.34160 0.42780 -0.20500
N 	N 	0.38920 0.29520 0.38240 -0.11900
C 	C 	0.31570 0.21960 0.27550 -0.08000
H 	H 	0.36120 0.19650 0.29280 0.03900
N 	N 	0.15840 0.89740 0.92780 -0.16000
N 	N 	0.20480 0.88920 0.88240 -0.09300
C 	C 	0.28040 0.81570 0.77550 -0.06100
H 	H 	0.30350 0.86120 0.79280 0.06500
N 	N 	0.65840 0.39740 0.42780 -0.20100
N 	N 	0.70480 0.38920 0.38240 -0.11200
C 	C 	0.78040 0.31570 0.27550 -0.06100
H 	H 	0.80350 0.36120 0.29280 0.05000
N 	N 	0.84160 0.10260 0.92780 -0.17700
N 	N 	0.79520 0.11080 0.88240 -0.11200
C 	C 	0.71960 0.18430 0.77550 -0.06300
H 	H 	0.69650 0.13880 0.79280 0.04500
N 	N 	0.34160 0.60260 0.42780 -0.20300
N 	N 	0.29520 0.61080 0.38240 -0.11800
C 	C 	0.21960 0.68430 0.27550 -0.06500
H 	H 	0.19650 0.63880 0.29280 0.03700
Cd	Cd	0.00000 0.82890 -0.00000 1.07000
Cd	Cd	0.50000 0.32890 0.50000 1.12100
Cd	Cd	0.00000 0.17110 -0.00000 1.05900
Cd	Cd	0.50000 0.67110 0.50000 1.12600
Cd	Cd	0.17110 0.00000 -0.00000 1.05900
Cd	Cd	0.67110 0.50000 0.50000 1.12600
Cd	Cd	0.82890 0.00000 -0.00000 1.07000
Cd	Cd	0.32890 0.50000 0.50000 1.12100
C 	C 	0.21560 0.78440 0.79820 0.01500
C 	C 	0.17790 0.82210 0.85400 0.09700
C 	C 	0.71560 0.28440 0.29820 0.00300
C 	C 	0.67790 0.32210 0.35400 0.08700
C 	C 	0.78440 0.21560 0.79820 0.01500
C 	C 	0.82210 0.17790 0.85400 0.09700
C 	C 	0.28440 0.71560 0.29820 0.00300
C 	C 	0.32210 0.67790 0.35400 0.08700
C 	C 	0.21560 0.21560 0.79820 -0.00500
C 	C 	0.17790 0.17790 0.85400 0.09000
C 	C 	0.71560 0.71560 0.29820 -0.00200
C 	C 	0.67790 0.67790 0.35400 0.09600
C 	C 	0.78440 0.78440 0.79820 0.03400
C 	C 	0.82210 0.82210 0.85400 0.10500
C 	C 	0.28440 0.28440 0.29820 0.00900
C 	C 	0.32210 0.32210 0.35400 0.07800
C 	C 	0.78440 0.78440 0.20180 0.01000
C 	C 	0.82210 0.82210 0.14600 0.09300
C 	C 	0.28440 0.28440 0.70180 -0.00200
C 	C 	0.32210 0.32210 0.64600 0.08700
C 	C 	0.21560 0.21560 0.20180 -0.03200
C 	C 	0.17790 0.17790 0.14600 0.07600
C 	C 	0.71560 0.71560 0.70180 -0.01200
C 	C 	0.67790 0.67790 0.64600 0.10400
C 	C 	0.78440 0.21560 0.20180 -0.01100
C 	C 	0.82210 0.17790 0.14600 0.08500
C 	C 	0.28440 0.71560 0.70180 -0.00700
C 	C 	0.32210 0.67790 0.64600 0.09500
C 	C 	0.21560 0.78440 0.20180 -0.01100
C 	C 	0.17790 0.82210 0.14600 0.08500
C 	C 	0.71560 0.28440 0.70180 -0.00700
C 	C 	0.67790 0.32210 0.64600 0.09500
