data_crystal

_cell_length_a 13.15620
_cell_length_b 14.11010
_cell_length_c 14.07020
_cell_angle_alpha 90.00000
_cell_angle_beta  114.82600
_cell_angle_gamma 90.00000

_symmetry_space_group_name_	'P 1'
_symmetry_space_group_name_H-M	'P 1'

loop_
_symmetry_equiv_pos_as_xyz
  x,y,z

loop_
_atom_site_label
_atom_site_type_symbol
_atom_site_fract_x
_atom_site_fract_y
_atom_site_fract_z
_atom_site_charge
C 	C 	0.27950 0.05723 0.12918 -0.20600
C 	C 	0.21598 0.10161 0.03365 0.05000
C 	C 	0.26002 0.17356 0.98793 0.01800
H 	H 	0.33360 0.19490 0.01430 0.00700
C 	C 	0.17429 0.20375 0.90002 -0.09700
H 	H 	0.17750 0.25000 0.85430 0.05200
C 	C 	0.07653 0.15090 0.89002 0.01900
N 	N 	0.10349 0.08796 0.97265 -0.24300
C 	C 	0.97043 0.16185 0.80855 -0.05000
C 	C 	0.87653 0.10950 0.79689 0.09500
C 	C 	0.76800 0.12000 0.71059 -0.07600
H 	H 	0.74940 0.16170 0.65460 0.07500
C 	C 	0.69815 0.05779 0.72638 -0.06800
H 	H 	0.62290 0.04800 0.68310 0.04000
C 	C 	0.76413 0.00945 0.82436 0.05200
N 	N 	0.87324 0.04164 0.86657 -0.23000
C 	C 	0.40273 0.08310 0.18340 0.17000
C 	C 	0.47562 0.05770 0.13820 -0.31400
H 	H 	0.45010 0.02270 0.07660 0.15400
C 	C 	0.58530 0.08570 0.18690 0.31900
C 	C 	0.62530 0.13622 0.27830 0.13500
C 	C 	0.55674 0.16342 0.32620 0.04700
C 	C 	0.44317 0.13470 0.27572 -0.19100
H 	H 	0.39440 0.15100 0.30540 0.08700
F 	F 	0.73725 0.15574 0.32570 -0.41700
F 	F 	0.65850 0.05991 0.14587 -0.46400
C 	C 	0.52600 0.22250 0.47230 -0.43800
H 	H 	0.46390 0.26220 0.43070 0.16800
H 	H 	0.56580 0.25070 0.54000 0.18200
H 	H 	0.49870 0.16120 0.48020 0.15600
C 	C 	0.66240 0.30030 0.42500 -0.50700
H 	H 	0.71740 0.28710 0.39860 0.23300
H 	H 	0.69910 0.32240 0.49590 0.21700
H 	H 	0.61180 0.34810 0.38250 0.19900
N 	N 	0.59907 0.21271 0.42186 0.01400
C 	C 	0.95959 0.23762 0.72897 0.15300
C 	C 	0.96304 0.21690 0.63504 -0.18000
H 	H 	0.96580 0.15430 0.61570 0.12200
C 	C 	0.96240 0.29050 0.56928 0.12000
H 	H 	0.96400 0.27490 0.50570 0.01000
C 	C 	0.94986 0.40104 0.67961 0.12800
H 	H 	0.94240 0.46410 0.69480 0.01600
C 	C 	0.95004 0.33245 0.74998 -0.17200
H 	H 	0.94380 0.34980 0.81110 0.14800
N 	N 	0.95981 0.38155 0.59120 -0.21100
C 	C 	0.72050 0.94277 0.87082 -0.10300
C 	C 	0.78402 0.89839 0.96635 0.16000
C 	C 	0.73998 0.82644 0.01207 -0.12800
H 	H 	0.66640 0.80510 0.98570 0.09600
C 	C 	0.82571 0.79625 0.09998 -0.07800
H 	H 	0.82250 0.75000 0.14570 0.08300
C 	C 	0.92347 0.84910 0.10998 0.21800
N 	N 	0.89651 0.91204 0.02735 -0.25000
C 	C 	0.02957 0.83815 0.19145 -0.24500
C 	C 	0.12347 0.89050 0.20311 0.14100
C 	C 	0.23200 0.88000 0.28941 -0.08000
H 	H 	0.25060 0.83830 0.34540 0.08200
C 	C 	0.30185 0.94221 0.27362 -0.10100
H 	H 	0.37710 0.95200 0.31690 0.08300
C 	C 	0.23587 0.99055 0.17564 0.16700
N 	N 	0.12676 0.95836 0.13343 -0.26900
C 	C 	0.59727 0.91690 0.81660 0.17600
C 	C 	0.52438 0.94230 0.86180 -0.30600
H 	H 	0.54990 0.97730 0.92340 0.19500
C 	C 	0.41470 0.91430 0.81310 0.33300
C 	C 	0.37470 0.86378 0.72170 0.13900
C 	C 	0.44326 0.83658 0.67380 0.05200
C 	C 	0.55683 0.86530 0.72428 -0.17600
H 	H 	0.60560 0.84900 0.69460 0.10200
F 	F 	0.26275 0.84426 0.67430 -0.41400
F 	F 	0.34150 0.94009 0.85413 -0.43300
C 	C 	0.47400 0.77750 0.52770 -0.47100
H 	H 	0.53610 0.73780 0.56930 0.18500
H 	H 	0.43420 0.74930 0.46000 0.19600
H 	H 	0.50130 0.83880 0.51980 0.18300
C 	C 	0.33760 0.69970 0.57500 -0.51400
H 	H 	0.28260 0.71290 0.60140 0.23600
H 	H 	0.30090 0.67760 0.50410 0.22000
H 	H 	0.38820 0.65190 0.61750 0.20300
N 	N 	0.40093 0.78729 0.57814 0.02200
C 	C 	0.04041 0.76238 0.27103 0.19200
C 	C 	0.03696 0.78310 0.36496 -0.23500
H 	H 	0.03420 0.84570 0.38430 0.12300
C 	C 	0.03760 0.70950 0.43072 0.12100
H 	H 	0.03600 0.72510 0.49430 -0.02000
C 	C 	0.05014 0.59896 0.32039 0.12800
H 	H 	0.05760 0.53590 0.30520 -0.02000
C 	C 	0.04996 0.66755 0.25002 -0.22900
H 	H 	0.05620 0.65020 0.18890 0.13300
N 	N 	0.04019 0.61845 0.40880 -0.24400
Ni	Ni	-0.00000 0.00000 -0.00000 1.00300
C 	C 	0.72050 0.55723 0.37082 -0.14600
C 	C 	0.78402 0.60161 0.46635 0.11400
C 	C 	0.73998 0.67356 0.51207 -0.04000
H 	H 	0.66640 0.69490 0.48570 0.05400
C 	C 	0.82571 0.70375 0.59998 -0.12500
H 	H 	0.82250 0.75000 0.64570 0.10400
C 	C 	0.92347 0.65090 0.60998 0.23000
N 	N 	0.89651 0.58796 0.52735 -0.25100
C 	C 	0.02957 0.66185 0.69145 -0.25600
C 	C 	0.12347 0.60950 0.70311 0.14500
C 	C 	0.23200 0.62000 0.78941 -0.09900
H 	H 	0.25060 0.66170 0.84540 0.09000
C 	C 	0.30185 0.55779 0.77362 -0.07600
H 	H 	0.37710 0.54800 0.81690 0.06100
C 	C 	0.23587 0.50945 0.67564 0.10100
N 	N 	0.12676 0.54164 0.63343 -0.27600
C 	C 	0.59727 0.58310 0.31660 0.17200
C 	C 	0.52438 0.55770 0.36180 -0.31000
H 	H 	0.54990 0.52270 0.42340 0.17500
C 	C 	0.41470 0.58570 0.31310 0.32400
C 	C 	0.37470 0.63622 0.22170 0.13700
C 	C 	0.44326 0.66342 0.17380 0.04500
C 	C 	0.55683 0.63470 0.22428 -0.18000
H 	H 	0.60560 0.65100 0.19460 0.09700
F 	F 	0.26275 0.65574 0.17430 -0.42300
F 	F 	0.34150 0.55991 0.35413 -0.45100
C 	C 	0.47400 0.72250 0.02770 -0.55100
H 	H 	0.53610 0.76220 0.06930 0.20700
H 	H 	0.43420 0.75070 0.96000 0.23400
H 	H 	0.50130 0.66120 0.01980 0.19200
C 	C 	0.33760 0.80030 0.07500 -0.52600
H 	H 	0.28260 0.78710 0.10140 0.23700
H 	H 	0.30090 0.82240 0.00410 0.21900
H 	H 	0.38820 0.84810 0.11750 0.21500
N 	N 	0.40093 0.71271 0.07814 0.02900
C 	C 	0.04041 0.73762 0.77103 0.19600
C 	C 	0.03696 0.71690 0.86496 -0.23300
H 	H 	0.03420 0.65430 0.88430 0.11800
C 	C 	0.03760 0.79050 0.93072 0.12300
H 	H 	0.03600 0.77490 0.99430 -0.01100
C 	C 	0.05014 0.90104 0.82039 0.13400
H 	H 	0.05760 0.96410 0.80520 0.00000
C 	C 	0.04996 0.83245 0.75002 -0.22600
H 	H 	0.05620 0.84980 0.68890 0.14300
N 	N 	0.04019 0.88155 0.90880 -0.22700
C 	C 	0.27950 0.44277 0.62918 -0.16300
C 	C 	0.21598 0.39839 0.53365 0.12300
C 	C 	0.26002 0.32644 0.48793 -0.11000
H 	H 	0.33360 0.30510 0.51430 0.06900
C 	C 	0.17429 0.29625 0.40002 -0.02700
H 	H 	0.17750 0.25000 0.35430 0.02100
C 	C 	0.07653 0.34910 0.39002 -0.00900
N 	N 	0.10349 0.41204 0.47265 -0.25600
C 	C 	0.97043 0.33815 0.30855 -0.03100
C 	C 	0.87653 0.39050 0.29689 0.08800
C 	C 	0.76800 0.38000 0.21059 -0.05600
H 	H 	0.74940 0.33830 0.15460 0.06700
C 	C 	0.69815 0.44221 0.22638 -0.09200
H 	H 	0.62290 0.45200 0.18310 0.06100
C 	C 	0.76413 0.49055 0.32436 0.11200
N 	N 	0.87324 0.45836 0.36657 -0.23200
C 	C 	0.40273 0.41690 0.68340 0.17700
C 	C 	0.47562 0.44230 0.63820 -0.31300
H 	H 	0.45010 0.47730 0.57660 0.17700
C 	C 	0.58530 0.41430 0.68690 0.32900
C 	C 	0.62530 0.36378 0.77830 0.13600
C 	C 	0.55674 0.33658 0.82620 0.05500
C 	C 	0.44317 0.36530 0.77572 -0.18800
H 	H 	0.39440 0.34900 0.80540 0.09300
F 	F 	0.73725 0.34426 0.82570 -0.40800
F 	F 	0.65850 0.44009 0.64587 -0.44600
C 	C 	0.52600 0.27750 0.97230 -0.35100
H 	H 	0.46390 0.23780 0.93070 0.14600
H 	H 	0.56580 0.24930 0.04000 0.14100
H 	H 	0.49870 0.33880 0.98020 0.14600
C 	C 	0.66240 0.19970 0.92500 -0.49600
H 	H 	0.71740 0.21290 0.89860 0.23300
H 	H 	0.69910 0.17760 0.99590 0.22000
H 	H 	0.61180 0.15190 0.88250 0.18900
N 	N 	0.59907 0.28729 0.92186 0.00500
C 	C 	0.95959 0.26238 0.22897 0.14700
C 	C 	0.96304 0.28310 0.13504 -0.17900
H 	H 	0.96580 0.34570 0.11570 0.12600
C 	C 	0.96240 0.20950 0.06928 0.11700
H 	H 	0.96400 0.22510 0.00570 0.00400
C 	C 	0.94986 0.09896 0.17961 0.12300
H 	H 	0.94240 0.03590 0.19480 -0.00100
C 	C 	0.95004 0.16755 0.24998 -0.17100
H 	H 	0.94380 0.15020 0.31110 0.13900
N 	N 	0.95981 0.11845 0.09120 -0.22000
Ni	Ni	-0.00000 0.50000 0.50000 1.03800
