data_crystal

_cell_length_a 11.01260
_cell_length_b 18.23020
_cell_length_c 20.16260
_cell_angle_alpha 99.77600
_cell_angle_beta  90.56100
_cell_angle_gamma 99.24700

_symmetry_space_group_name_	'P 1'
_symmetry_space_group_name_H-M	'P 1'

loop_
_symmetry_equiv_pos_as_xyz
  x,y,z

loop_
_atom_site_label
_atom_site_type_symbol
_atom_site_fract_x
_atom_site_fract_y
_atom_site_fract_z
_atom_site_charge
Mn	Mn	0.70723 0.15402 0.60885 1.24100
Mn	Mn	0.13986 0.44200 0.83358 1.26500
N 	N 	0.71230 0.67680 0.89800 -0.09900
N 	N 	0.00330 0.99060 0.71010 -0.14800
N 	N 	0.63100 0.20380 0.06440 -0.12800
N 	N 	0.28180 0.43250 0.76140 -0.21700
N 	N 	0.50610 0.44300 0.76520 -0.08200
N 	N 	0.39440 0.43990 0.76780 -0.04200
O 	O 	0.66170 0.09053 0.49643 -0.52200
O 	O 	0.69830 0.21410 0.51993 -0.43000
O 	O 	0.11310 0.33380 0.86810 -0.43100
O 	O 	0.98140 0.40350 0.91422 -0.45100
O 	O 	0.41310 0.06720 0.57840 -0.46000
O 	O 	0.52930 0.17270 0.63170 -0.48600
O 	O 	0.06460 0.53870 0.83200 -0.50500
O 	O 	0.00730 0.58760 0.93309 -0.43800
O 	O 	0.59740 0.95870 0.57353 -0.45700
O 	O 	0.69760 0.05390 0.64913 -0.53300
O 	O 	0.27360 0.50780 0.90440 -0.45500
O 	O 	0.19230 0.51090 0.00540 -0.48100
C 	C 	0.67720 0.15460 0.47820 0.35200
C 	C 	0.67360 0.15930 0.40460 -0.12300
C 	C 	0.66320 0.09720 0.35420 0.04100
H 	H 	0.66050 0.04950 0.36540 0.02000
C 	C 	0.67950 0.22990 0.38660 0.04000
H 	H 	0.68840 0.27230 0.42030 0.02800
C 	C 	0.67260 0.23870 0.32070 -0.10600
H 	H 	0.67690 0.28680 0.31020 0.06400
C 	C 	0.65660 0.10480 0.28670 -0.10000
H 	H 	0.65040 0.06230 0.25320 0.06000
C 	C 	0.65910 0.17580 0.26880 0.03600
C 	C 	0.64730 0.18560 0.19770 0.05900
C 	C 	0.67040 0.25670 0.17900 -0.12200
H 	H 	0.69150 0.29930 0.21210 0.07400
C 	C 	0.66250 0.26480 0.11320 0.06600
H 	H 	0.67900 0.31260 0.10180 0.01400
C 	C 	0.60410 0.13470 0.08030 0.06300
H 	H 	0.58040 0.09320 0.04650 -0.01000
C 	C 	0.61130 0.12470 0.14600 -0.13000
H 	H 	0.59180 0.07640 0.15620 0.06500
C 	C 	0.63430 0.21400 0.99240 -0.11100
H 	H 	0.61080 0.26220 0.98850 0.07700
H 	H 	0.57590 0.17450 0.96540 0.06600
C 	C 	0.76280 0.21120 0.96660 0.07200
C 	C 	0.83270 0.27530 0.94950 -0.08200
H 	H 	0.80120 0.32030 0.95530 0.07300
C 	C 	0.81490 0.14560 0.96000 -0.08800
H 	H 	0.76960 0.10220 0.97140 0.06100
C 	C 	0.93230 0.14360 0.93680 -0.03600
H 	H 	0.96660 0.09990 0.93410 0.04400
C 	C 	0.99780 0.20710 0.91790 0.01100
H 	H 	0.07590 0.20570 0.90100 0.02100
C 	C 	0.94840 0.27330 0.92390 -0.03600
C 	C 	0.01950 0.34130 0.90190 0.27200
C 	C 	0.43140 0.12690 0.62060 0.39700
C 	C 	0.32390 0.14600 0.66290 -0.09800
C 	C 	0.21220 0.09780 0.65600 -0.03100
H 	H 	0.20310 0.05280 0.62540 0.03900
C 	C 	0.33620 0.21230 0.70970 -0.00400
H 	H 	0.41140 0.24470 0.71570 0.03900
C 	C 	0.23860 0.23050 0.74720 -0.05400
H 	H 	0.24760 0.27540 0.77790 0.04100
C 	C 	0.11400 0.11570 0.69420 -0.00600
C 	C 	0.12640 0.18200 0.73950 -0.06700
H 	H 	0.06020 0.19440 0.76480 0.03100
C 	C 	0.99340 0.06240 0.68470 -0.05700
H 	H 	0.93050 0.08650 0.70880 0.03500
H 	H 	0.96870 0.05070 0.63730 0.03000
C 	C 	0.96880 0.92350 0.67150 0.10100
H 	H 	0.94190 0.92090 0.62710 0.00600
C 	C 	0.04680 0.99510 0.77320 0.14100
H 	H 	0.07440 0.04230 0.79910 -0.03900
C 	C 	0.05140 0.93190 0.80010 -0.16900
H 	H 	0.07990 0.93670 0.84440 0.09000
C 	C 	0.01440 0.86090 0.76250 0.04800
C 	C 	0.97220 0.85820 0.69580 -0.10900
H 	H 	0.94650 0.81180 0.66820 0.07400
C 	C 	0.01690 0.79140 0.79050 0.04400
C 	C 	0.02460 0.72340 0.74900 -0.12300
H 	H 	0.02670 0.72090 0.70260 0.06300
C 	C 	0.02930 0.65940 0.77640 0.05400
H 	H 	0.03560 0.61430 0.74820 0.00900
C 	C 	0.02460 0.66150 0.84600 -0.14500
C 	C 	0.01480 0.72850 0.88680 0.06100
H 	H 	0.00960 0.73040 0.93310 0.02900
C 	C 	0.01260 0.79290 0.86000 -0.11600
H 	H 	0.00830 0.83810 0.88860 0.07100
C 	C 	0.03220 0.59000 0.87360 0.42200
C 	C 	0.65120 0.98610 0.62940 0.47100
C 	C 	0.66130 0.93250 0.67760 -0.19700
C 	C 	0.69830 0.95890 0.74480 0.17200
H 	H 	0.71760 0.01060 0.76050 -0.04300
C 	C 	0.63240 0.85450 0.65510 0.10400
H 	H 	0.60590 0.83600 0.61060 0.00900
C 	C 	0.64320 0.80480 0.69860 -0.16100
H 	H 	0.62550 0.75320 0.68280 0.08600
C 	C 	0.70640 0.90890 0.78830 -0.18700
H 	H 	0.72970 0.92720 0.83330 0.10300
C 	C 	0.68020 0.83100 0.76550 0.09400
C 	C 	0.69050 0.77720 0.81170 0.03300
C 	C 	0.68860 0.79890 0.88130 -0.10300
H 	H 	0.67930 0.84790 0.89970 0.07100
C 	C 	0.70520 0.70260 0.78800 -0.10300
H 	H 	0.70860 0.68580 0.74190 0.06700
C 	C 	0.71480 0.65430 0.83210 0.06100
H 	H 	0.72310 0.60470 0.81550 0.02000
C 	C 	0.70050 0.74790 0.92250 0.05900
H 	H 	0.70030 0.76320 0.96890 0.02500
C 	C 	0.72280 0.62430 0.94620 -0.22000
H 	H 	0.79670 0.64250 0.97460 0.12200
H 	H 	0.72950 0.57480 0.92140 0.11700
C 	C 	0.61190 0.61840 0.98950 0.20800
C 	C 	0.61760 0.64910 0.05720 -0.26600
H 	H 	0.69190 0.67600 0.07690 0.12400
C 	C 	0.49960 0.58020 0.96030 -0.16300
H 	H 	0.49350 0.56030 0.91450 0.11000
C 	C 	0.51760 0.64110 0.09560 0.12600
H 	H 	0.52390 0.66230 0.14110 -0.01400
C 	C 	0.40560 0.60130 0.06710 -0.16400
H 	H 	0.33740 0.59490 0.09360 0.09000
C 	C 	0.39630 0.57140 0.99910 0.03400
C 	C 	0.27770 0.52630 0.96680 0.38500
Mn	Mn	0.29277 0.84598 0.39115 1.23700
Mn	Mn	0.86014 0.55800 0.16642 1.27100
N 	N 	0.28770 0.32320 0.10200 -0.12500
N 	N 	0.99670 0.00940 0.28990 -0.09100
N 	N 	0.36900 0.79620 0.93560 -0.10000
N 	N 	0.71820 0.56750 0.23860 -0.21300
N 	N 	0.49390 0.55700 0.23480 -0.08400
N 	N 	0.60560 0.56010 0.23220 -0.04100
O 	O 	0.33830 0.90947 0.50357 -0.50600
O 	O 	0.30170 0.78590 0.48007 -0.43400
O 	O 	0.88690 0.66620 0.13190 -0.45300
O 	O 	0.01860 0.59650 0.08578 -0.53200
O 	O 	0.58690 0.93280 0.42160 -0.43000
O 	O 	0.47070 0.82730 0.36830 -0.48000
O 	O 	0.93540 0.46130 0.16800 -0.49600
O 	O 	0.99270 0.41240 0.06691 -0.43300
O 	O 	0.40260 0.04130 0.42647 -0.44900
O 	O 	0.30240 0.94610 0.35087 -0.47000
O 	O 	0.72640 0.49220 0.09560 -0.45200
O 	O 	0.80770 0.48910 0.99460 -0.42700
C 	C 	0.32280 0.84540 0.52180 0.34800
C 	C 	0.32640 0.84070 0.59540 -0.11900
C 	C 	0.33680 0.90280 0.64580 0.03400
H 	H 	0.33950 0.95050 0.63460 0.03700
C 	C 	0.32050 0.77010 0.61340 0.03500
H 	H 	0.31160 0.72770 0.57970 0.02600
C 	C 	0.32740 0.76130 0.67930 -0.10600
H 	H 	0.32310 0.71320 0.68980 0.06200
C 	C 	0.34340 0.89520 0.71330 -0.09800
H 	H 	0.34960 0.93770 0.74680 0.07000
C 	C 	0.34090 0.82420 0.73120 0.03600
C 	C 	0.35270 0.81440 0.80230 0.05800
C 	C 	0.32960 0.74330 0.82100 -0.11800
H 	H 	0.30850 0.70070 0.78790 0.07200
C 	C 	0.33750 0.73520 0.88680 0.06500
H 	H 	0.32100 0.68740 0.89820 0.02300
C 	C 	0.39590 0.86530 0.91970 0.06200
H 	H 	0.41960 0.90680 0.95350 0.01900
C 	C 	0.38870 0.87530 0.85400 -0.12300
H 	H 	0.40820 0.92360 0.84380 0.07600
C 	C 	0.36570 0.78600 0.00760 -0.16800
H 	H 	0.38920 0.73780 0.01150 0.07900
H 	H 	0.42410 0.82550 0.03460 0.07600
C 	C 	0.23720 0.78880 0.03340 0.09000
C 	C 	0.16730 0.72470 0.05050 -0.09000
H 	H 	0.19880 0.67970 0.04470 0.06200
C 	C 	0.18510 0.85440 0.04000 -0.13700
H 	H 	0.23040 0.89780 0.02860 0.07300
C 	C 	0.06770 0.85640 0.06320 0.02700
H 	H 	0.03340 0.90010 0.06590 0.00700
C 	C 	0.00220 0.79290 0.08210 -0.10800
H 	H 	0.92410 0.79430 0.09900 0.08500
C 	C 	0.05160 0.72670 0.07610 -0.06900
C 	C 	0.98050 0.65870 0.09810 0.36900
C 	C 	0.56860 0.87310 0.37940 0.37900
C 	C 	0.67610 0.85400 0.33710 -0.04100
C 	C 	0.78780 0.90220 0.34400 -0.10300
H 	H 	0.79690 0.94720 0.37460 0.09000
C 	C 	0.66380 0.78770 0.29030 -0.06100
H 	H 	0.58860 0.75530 0.28430 0.06000
C 	C 	0.76140 0.76950 0.25280 0.02000
H 	H 	0.75240 0.72460 0.22210 0.01800
C 	C 	0.88600 0.88430 0.30580 0.11500
C 	C 	0.87360 0.81800 0.26050 -0.15200
H 	H 	0.93980 0.80560 0.23520 0.07600
C 	C 	0.00660 0.93760 0.31530 -0.16900
H 	H 	0.06950 0.91350 0.29120 0.06100
H 	H 	0.03130 0.94930 0.36270 0.06400
C 	C 	0.03120 0.07650 0.32850 0.03900
H 	H 	0.05810 0.07910 0.37290 0.00500
C 	C 	0.95320 0.00490 0.22680 -0.00000
H 	H 	0.92560 0.95770 0.20090 0.05600
C 	C 	0.94860 0.06810 0.19990 -0.09500
H 	H 	0.92010 0.06330 0.15560 0.05400
C 	C 	0.98560 0.13910 0.23750 0.06600
C 	C 	0.02780 0.14180 0.30420 -0.14100
H 	H 	0.05350 0.18820 0.33180 0.06700
C 	C 	0.98310 0.20860 0.20950 0.05100
C 	C 	0.97540 0.27660 0.25100 -0.11800
H 	H 	0.97330 0.27910 0.29740 0.07400
C 	C 	0.97070 0.34060 0.22360 0.05900
H 	H 	0.96440 0.38570 0.25180 0.01600
C 	C 	0.97540 0.33850 0.15400 -0.14100
C 	C 	0.98520 0.27150 0.11320 0.06700
H 	H 	0.99040 0.26960 0.06690 0.02100
C 	C 	0.98740 0.20710 0.14000 -0.11400
H 	H 	0.99170 0.16190 0.11140 0.06900
C 	C 	0.96780 0.41000 0.12640 0.42600
C 	C 	0.34880 0.01390 0.37060 0.35200
C 	C 	0.33870 0.06750 0.32240 -0.07900
C 	C 	0.30170 0.04110 0.25520 -0.06000
H 	H 	0.28240 0.98940 0.23950 0.07400
C 	C 	0.36760 0.14550 0.34490 0.00400
H 	H 	0.39410 0.16400 0.38940 0.04100
C 	C 	0.35680 0.19520 0.30140 -0.07000
H 	H 	0.37450 0.24680 0.31720 0.05200
C 	C 	0.29360 0.09110 0.21170 -0.04300
H 	H 	0.27030 0.07280 0.16670 0.03000
C 	C 	0.31980 0.16900 0.23450 -0.00100
C 	C 	0.30950 0.22280 0.18830 0.07500
C 	C 	0.31140 0.20110 0.11870 -0.14300
H 	H 	0.32070 0.15210 0.10030 0.07000
C 	C 	0.29480 0.29740 0.21200 -0.14100
H 	H 	0.29140 0.31420 0.25810 0.07400
C 	C 	0.28520 0.34570 0.16790 0.07700
H 	H 	0.27690 0.39530 0.18450 0.00600
C 	C 	0.29950 0.25210 0.07750 0.07500
H 	H 	0.29970 0.23680 0.03110 -0.00200
C 	C 	0.27720 0.37570 0.05380 -0.10900
H 	H 	0.20330 0.35750 0.02540 0.06400
H 	H 	0.27050 0.42520 0.07860 0.07500
C 	C 	0.38810 0.38160 0.01050 0.01600
C 	C 	0.38240 0.35090 0.94280 -0.02900
H 	H 	0.30810 0.32400 0.92310 0.05100
C 	C 	0.50040 0.41980 0.03970 -0.02600
H 	H 	0.50650 0.43970 0.08550 0.06200
C 	C 	0.48240 0.35890 0.90440 -0.07500
H 	H 	0.47610 0.33770 0.85890 0.05700
C 	C 	0.59440 0.39870 0.93290 0.04300
H 	H 	0.66260 0.40510 0.90640 0.02500
C 	C 	0.60370 0.42860 0.00090 -0.12500
C 	C 	0.72230 0.47370 0.03320 0.36700
Mn	Mn	-0.00000 0.50000 -0.00000 1.29100
Mn	Mn	0.50000 0.00000 0.50000 1.30400
