data_crystal

_cell_length_a 24.06300
_cell_length_b 10.03710
_cell_length_c 26.54500
_cell_angle_alpha 90.00000
_cell_angle_beta  103.06400
_cell_angle_gamma 90.00000

_symmetry_space_group_name_	'P 1'
_symmetry_space_group_name_H-M	'P 1'

loop_
_symmetry_equiv_pos_as_xyz
  x,y,z

loop_
_atom_site_label
_atom_site_type_symbol
_atom_site_fract_x
_atom_site_fract_y
_atom_site_fract_z
_atom_site_charge
Zn	Zn	0.77961 0.24662 0.15384 1.11600
N 	N 	0.70692 0.24340 0.18812 -0.29300
N 	N 	0.52326 0.13360 0.23836 -0.07700
C 	C 	0.67422 0.13440 0.18312 0.10900
H 	H 	0.68410 0.06230 0.16490 -0.05400
C 	C 	0.62677 0.12350 0.20353 -0.20700
H 	H 	0.60500 0.04600 0.19840 0.10700
C 	C 	0.61156 0.22580 0.23116 0.13400
C 	C 	0.64471 0.33820 0.23640 -0.20200
H 	H 	0.63560 0.41060 0.25480 0.08000
C 	C 	0.69141 0.34490 0.21464 0.10700
H 	H 	0.71290 0.42270 0.21850 -0.05300
C 	C 	0.56110 0.22000 0.25342 -0.06800
H 	H 	0.55700 0.28070 0.27880 0.05500
Zn	Zn	0.22039 0.24662 0.34616 1.11700
N 	N 	0.29308 0.24340 0.31188 -0.29200
N 	N 	0.47674 0.13360 0.26164 -0.07600
C 	C 	0.32578 0.13440 0.31688 0.11000
H 	H 	0.31590 0.06230 0.33510 -0.05300
C 	C 	0.37323 0.12350 0.29647 -0.20600
H 	H 	0.39500 0.04600 0.30160 0.10700
C 	C 	0.38844 0.22580 0.26884 0.13400
C 	C 	0.35529 0.33820 0.26360 -0.20200
H 	H 	0.36440 0.41060 0.24520 0.08000
C 	C 	0.30859 0.34490 0.28536 0.10700
H 	H 	0.28710 0.42270 0.28150 -0.05300
C 	C 	0.43890 0.22000 0.24658 -0.06800
H 	H 	0.44300 0.28070 0.22120 0.05400
N 	N 	0.78316 0.25490 0.92215 -0.28800
N 	N 	0.95503 0.20870 0.07055 -0.08100
N 	N 	0.98887 0.22990 0.12111 -0.08200
N 	N 	0.16197 0.24540 0.26826 -0.29000
C 	C 	0.78106 0.34170 0.95899 0.09900
H 	H 	0.75160 0.40390 0.95280 -0.05400
C 	C 	0.81986 0.34620 0.00622 -0.18600
H 	H 	0.81590 0.40880 0.03100 0.06200
C 	C 	0.86430 0.25690 0.01602 0.10100
C 	C 	0.86673 0.16560 0.97767 -0.18200
H 	H 	0.89600 0.10320 0.98240 0.09400
C 	C 	0.82533 0.16770 0.93226 0.10100
H 	H 	0.82720 0.10400 0.90730 -0.04400
C 	C 	0.90645 0.26310 0.06533 -0.05300
H 	H 	0.89750 0.30740 0.09320 0.01800
C 	C 	0.04073 0.20460 0.12523 -0.05500
H 	H 	0.05300 0.17510 0.09640 0.05600
C 	C 	0.10769 0.27460 0.26397 0.09300
H 	H 	0.09620 0.30380 0.29330 -0.05100
C 	C 	0.06688 0.26420 0.21828 -0.18400
H 	H 	0.02920 0.28700 0.21740 0.09700
C 	C 	0.08202 0.22000 0.17403 0.12200
C 	C 	0.13888 0.19010 0.17861 -0.19100
H 	H 	0.15150 0.16040 0.15000 0.08100
C 	C 	0.17688 0.20410 0.22555 0.09700
H 	H 	0.21500 0.18370 0.22750 -0.03900
N 	N 	0.21684 0.25490 0.57785 -0.28800
N 	N 	0.04497 0.20870 0.42945 -0.08100
N 	N 	0.01113 0.22990 0.37889 -0.08200
N 	N 	0.83803 0.24540 0.23174 -0.29000
C 	C 	0.21894 0.34170 0.54101 0.09900
H 	H 	0.24840 0.40390 0.54720 -0.05400
C 	C 	0.18014 0.34620 0.49378 -0.18600
H 	H 	0.18410 0.40880 0.46900 0.06200
C 	C 	0.13570 0.25690 0.48398 0.10100
C 	C 	0.13327 0.16560 0.52233 -0.18200
H 	H 	0.10400 0.10320 0.51760 0.09400
C 	C 	0.17467 0.16770 0.56774 0.10100
H 	H 	0.17280 0.10400 0.59270 -0.04400
C 	C 	0.09355 0.26310 0.43467 -0.05300
H 	H 	0.10250 0.30740 0.40680 0.01800
C 	C 	0.95927 0.20460 0.37477 -0.05500
H 	H 	0.94700 0.17510 0.40360 0.05600
C 	C 	0.89231 0.27460 0.23603 0.09300
H 	H 	0.90380 0.30380 0.20670 -0.05100
C 	C 	0.93312 0.26420 0.28172 -0.18400
H 	H 	0.97080 0.28700 0.28260 0.09700
C 	C 	0.91798 0.22000 0.32597 0.12200
C 	C 	0.86112 0.19010 0.32139 -0.19100
H 	H 	0.84850 0.16040 0.35000 0.08100
C 	C 	0.82312 0.20410 0.27445 0.09700
H 	H 	0.78500 0.18370 0.27250 -0.03900
N 	N 	0.71684 0.24510 0.07785 -0.28800
N 	N 	0.54497 0.29130 0.92945 -0.08100
N 	N 	0.51113 0.27010 0.87889 -0.08200
N 	N 	0.33803 0.25460 0.73174 -0.29000
C 	C 	0.71894 0.15830 0.04101 0.09900
H 	H 	0.74840 0.09610 0.04720 -0.05400
C 	C 	0.68014 0.15380 0.99378 -0.18600
H 	H 	0.68410 0.09120 0.96900 0.06200
C 	C 	0.63570 0.24310 0.98398 0.10100
C 	C 	0.63327 0.33440 0.02233 -0.18200
H 	H 	0.60400 0.39680 0.01760 0.09400
C 	C 	0.67467 0.33230 0.06774 0.10100
H 	H 	0.67280 0.39600 0.09270 -0.04400
C 	C 	0.59355 0.23690 0.93467 -0.05300
H 	H 	0.60250 0.19260 0.90680 0.01800
C 	C 	0.45927 0.29540 0.87477 -0.05500
H 	H 	0.44700 0.32490 0.90360 0.05600
C 	C 	0.39231 0.22540 0.73603 0.09300
H 	H 	0.40380 0.19620 0.70670 -0.05100
C 	C 	0.43312 0.23580 0.78172 -0.18400
H 	H 	0.47080 0.21300 0.78260 0.09800
C 	C 	0.41798 0.28000 0.82597 0.12200
C 	C 	0.36112 0.30990 0.82139 -0.19100
H 	H 	0.34850 0.33960 0.85000 0.08100
C 	C 	0.32312 0.29590 0.77445 0.09700
H 	H 	0.28500 0.31630 0.77250 -0.03900
N 	N 	0.28316 0.24510 0.42215 -0.28800
N 	N 	0.45503 0.29130 0.57055 -0.08100
N 	N 	0.48887 0.27010 0.62111 -0.08200
N 	N 	0.66197 0.25460 0.76826 -0.29000
C 	C 	0.28106 0.15830 0.45899 0.09900
H 	H 	0.25160 0.09610 0.45280 -0.05400
C 	C 	0.31986 0.15380 0.50622 -0.18600
H 	H 	0.31590 0.09120 0.53100 0.06200
C 	C 	0.36430 0.24310 0.51602 0.10100
C 	C 	0.36673 0.33440 0.47767 -0.18200
H 	H 	0.39600 0.39680 0.48240 0.09400
C 	C 	0.32533 0.33230 0.43226 0.10100
H 	H 	0.32720 0.39600 0.40730 -0.04400
C 	C 	0.40645 0.23690 0.56533 -0.05300
H 	H 	0.39750 0.19260 0.59320 0.01800
C 	C 	0.54073 0.29540 0.62523 -0.05500
H 	H 	0.55300 0.32490 0.59640 0.05600
C 	C 	0.60769 0.22540 0.76397 0.09300
H 	H 	0.59620 0.19620 0.79330 -0.05100
C 	C 	0.56688 0.23580 0.71828 -0.18400
H 	H 	0.52920 0.21300 0.71740 0.09800
C 	C 	0.58202 0.28000 0.67403 0.12200
C 	C 	0.63888 0.30990 0.67861 -0.19100
H 	H 	0.65150 0.33960 0.65000 0.08100
C 	C 	0.67688 0.29590 0.72555 0.09700
H 	H 	0.71500 0.31630 0.72750 -0.03900
Zn	Zn	0.72039 0.25338 0.84616 1.11700
N 	N 	0.79308 0.25660 0.81188 -0.29200
N 	N 	0.97674 0.36640 0.76164 -0.07600
C 	C 	0.82578 0.36560 0.81688 0.11000
H 	H 	0.81590 0.43770 0.83510 -0.05300
C 	C 	0.87323 0.37650 0.79647 -0.20600
H 	H 	0.89500 0.45400 0.80160 0.10700
C 	C 	0.88844 0.27420 0.76884 0.13400
C 	C 	0.85529 0.16180 0.76360 -0.20200
H 	H 	0.86440 0.08940 0.74520 0.08000
C 	C 	0.80859 0.15510 0.78536 0.10700
H 	H 	0.78710 0.07730 0.78150 -0.05300
C 	C 	0.93890 0.28000 0.74658 -0.06800
H 	H 	0.94300 0.21930 0.72120 0.05400
Zn	Zn	0.27961 0.25338 0.65384 1.11700
N 	N 	0.20692 0.25660 0.68812 -0.29200
N 	N 	0.02326 0.36640 0.73836 -0.07600
C 	C 	0.17422 0.36560 0.68312 0.11000
H 	H 	0.18410 0.43770 0.66490 -0.05300
C 	C 	0.12677 0.37650 0.70353 -0.20600
H 	H 	0.10500 0.45400 0.69840 0.10700
C 	C 	0.11156 0.27420 0.73116 0.13400
C 	C 	0.14471 0.16180 0.73640 -0.20200
H 	H 	0.13560 0.08940 0.75480 0.08000
C 	C 	0.19141 0.15510 0.71464 0.10700
H 	H 	0.21290 0.07730 0.71850 -0.05300
C 	C 	0.06110 0.28000 0.75342 -0.06800
H 	H 	0.05700 0.21930 0.77880 0.05400
Zn	Zn	0.27961 0.74662 0.15384 1.11700
N 	N 	0.20692 0.74340 0.18812 -0.29200
N 	N 	0.02326 0.63360 0.23836 -0.07600
C 	C 	0.17422 0.63440 0.18312 0.11000
H 	H 	0.18410 0.56230 0.16490 -0.05300
C 	C 	0.12677 0.62350 0.20353 -0.20600
H 	H 	0.10500 0.54600 0.19840 0.10700
C 	C 	0.11156 0.72580 0.23116 0.13400
C 	C 	0.14471 0.83820 0.23640 -0.20200
H 	H 	0.13560 0.91060 0.25480 0.08000
C 	C 	0.19141 0.84490 0.21464 0.10700
H 	H 	0.21290 0.92270 0.21850 -0.05300
C 	C 	0.06110 0.72000 0.25342 -0.06800
H 	H 	0.05700 0.78070 0.27880 0.05400
Zn	Zn	0.72039 0.74662 0.34616 1.11700
N 	N 	0.79308 0.74340 0.31188 -0.29200
N 	N 	0.97674 0.63360 0.26164 -0.07600
C 	C 	0.82578 0.63440 0.31688 0.11000
H 	H 	0.81590 0.56230 0.33510 -0.05300
C 	C 	0.87323 0.62350 0.29647 -0.20600
H 	H 	0.89500 0.54600 0.30160 0.10700
C 	C 	0.88844 0.72580 0.26884 0.13400
C 	C 	0.85529 0.83820 0.26360 -0.20200
H 	H 	0.86440 0.91060 0.24520 0.08000
C 	C 	0.80859 0.84490 0.28536 0.10700
H 	H 	0.78710 0.92270 0.28150 -0.05300
C 	C 	0.93890 0.72000 0.24658 -0.06800
H 	H 	0.94300 0.78070 0.22120 0.05400
N 	N 	0.28316 0.75490 0.92215 -0.28800
N 	N 	0.45503 0.70870 0.07055 -0.08100
N 	N 	0.48887 0.72990 0.12111 -0.08200
N 	N 	0.66197 0.74540 0.26826 -0.29000
C 	C 	0.28106 0.84170 0.95899 0.09900
H 	H 	0.25160 0.90390 0.95280 -0.05400
C 	C 	0.31986 0.84620 0.00622 -0.18600
H 	H 	0.31590 0.90880 0.03100 0.06200
C 	C 	0.36430 0.75690 0.01602 0.10100
C 	C 	0.36673 0.66560 0.97767 -0.18200
H 	H 	0.39600 0.60320 0.98240 0.09400
C 	C 	0.32533 0.66770 0.93226 0.10100
H 	H 	0.32720 0.60400 0.90730 -0.04400
C 	C 	0.40645 0.76310 0.06533 -0.05300
H 	H 	0.39750 0.80740 0.09320 0.01800
C 	C 	0.54073 0.70460 0.12523 -0.05500
H 	H 	0.55300 0.67510 0.09640 0.05600
C 	C 	0.60769 0.77460 0.26397 0.09300
H 	H 	0.59620 0.80380 0.29330 -0.05100
C 	C 	0.56688 0.76420 0.21828 -0.18400
H 	H 	0.52920 0.78700 0.21740 0.09800
C 	C 	0.58202 0.72000 0.17403 0.12200
C 	C 	0.63888 0.69010 0.17861 -0.19100
H 	H 	0.65150 0.66040 0.15000 0.08100
C 	C 	0.67688 0.70410 0.22555 0.09700
H 	H 	0.71500 0.68370 0.22750 -0.03900
N 	N 	0.71684 0.75490 0.57785 -0.28800
N 	N 	0.54497 0.70870 0.42945 -0.08100
N 	N 	0.51113 0.72990 0.37889 -0.08200
N 	N 	0.33803 0.74540 0.23174 -0.29000
C 	C 	0.71894 0.84170 0.54101 0.09900
H 	H 	0.74840 0.90390 0.54720 -0.05400
C 	C 	0.68014 0.84620 0.49378 -0.18600
H 	H 	0.68410 0.90880 0.46900 0.06200
C 	C 	0.63570 0.75690 0.48398 0.10100
C 	C 	0.63327 0.66560 0.52233 -0.18200
H 	H 	0.60400 0.60320 0.51760 0.09400
C 	C 	0.67467 0.66770 0.56774 0.10100
H 	H 	0.67280 0.60400 0.59270 -0.04400
C 	C 	0.59355 0.76310 0.43467 -0.05300
H 	H 	0.60250 0.80740 0.40680 0.01800
C 	C 	0.45927 0.70460 0.37477 -0.05500
H 	H 	0.44700 0.67510 0.40360 0.05600
C 	C 	0.39231 0.77460 0.23603 0.09300
H 	H 	0.40380 0.80380 0.20670 -0.05100
C 	C 	0.43312 0.76420 0.28172 -0.18400
H 	H 	0.47080 0.78700 0.28260 0.09800
C 	C 	0.41798 0.72000 0.32597 0.12200
C 	C 	0.36112 0.69010 0.32139 -0.19100
H 	H 	0.34850 0.66040 0.35000 0.08100
C 	C 	0.32312 0.70410 0.27445 0.09700
H 	H 	0.28500 0.68370 0.27250 -0.03900
N 	N 	0.21684 0.74510 0.07785 -0.28800
N 	N 	0.04497 0.79130 0.92945 -0.08100
N 	N 	0.01113 0.77010 0.87889 -0.08200
N 	N 	0.83803 0.75460 0.73174 -0.29000
C 	C 	0.21894 0.65830 0.04101 0.09900
H 	H 	0.24840 0.59610 0.04720 -0.05400
C 	C 	0.18014 0.65380 0.99378 -0.18600
H 	H 	0.18410 0.59120 0.96900 0.06200
C 	C 	0.13570 0.74310 0.98398 0.10100
C 	C 	0.13327 0.83440 0.02233 -0.18200
H 	H 	0.10400 0.89680 0.01760 0.09400
C 	C 	0.17467 0.83230 0.06774 0.10100
H 	H 	0.17280 0.89600 0.09270 -0.04400
C 	C 	0.09355 0.73690 0.93467 -0.05300
H 	H 	0.10250 0.69260 0.90680 0.01800
C 	C 	0.95927 0.79540 0.87477 -0.05500
H 	H 	0.94700 0.82490 0.90360 0.05600
C 	C 	0.89231 0.72540 0.73603 0.09300
H 	H 	0.90380 0.69620 0.70670 -0.05100
C 	C 	0.93312 0.73580 0.78172 -0.18400
H 	H 	0.97080 0.71300 0.78260 0.09700
C 	C 	0.91798 0.78000 0.82597 0.12200
C 	C 	0.86112 0.80990 0.82139 -0.19100
H 	H 	0.84850 0.83960 0.85000 0.08100
C 	C 	0.82312 0.79590 0.77445 0.09700
H 	H 	0.78500 0.81630 0.77250 -0.03900
N 	N 	0.78316 0.74510 0.42215 -0.28800
N 	N 	0.95503 0.79130 0.57055 -0.08100
N 	N 	0.98887 0.77010 0.62111 -0.08200
N 	N 	0.16197 0.75460 0.76826 -0.29000
C 	C 	0.78106 0.65830 0.45899 0.09900
H 	H 	0.75160 0.59610 0.45280 -0.05400
C 	C 	0.81986 0.65380 0.50622 -0.18600
H 	H 	0.81590 0.59120 0.53100 0.06200
C 	C 	0.86430 0.74310 0.51602 0.10100
C 	C 	0.86673 0.83440 0.47767 -0.18200
H 	H 	0.89600 0.89680 0.48240 0.09400
C 	C 	0.82533 0.83230 0.43226 0.10100
H 	H 	0.82720 0.89600 0.40730 -0.04400
C 	C 	0.90645 0.73690 0.56533 -0.05300
H 	H 	0.89750 0.69260 0.59320 0.01800
C 	C 	0.04073 0.79540 0.62523 -0.05500
H 	H 	0.05300 0.82490 0.59640 0.05600
C 	C 	0.10769 0.72540 0.76397 0.09300
H 	H 	0.09620 0.69620 0.79330 -0.05100
C 	C 	0.06688 0.73580 0.71828 -0.18400
H 	H 	0.02920 0.71300 0.71740 0.09700
C 	C 	0.08202 0.78000 0.67403 0.12200
C 	C 	0.13888 0.80990 0.67861 -0.19100
H 	H 	0.15150 0.83960 0.65000 0.08100
C 	C 	0.17688 0.79590 0.72555 0.09700
H 	H 	0.21500 0.81630 0.72750 -0.03900
Zn	Zn	0.22039 0.75338 0.84616 1.11700
N 	N 	0.29308 0.75660 0.81188 -0.29200
N 	N 	0.47674 0.86640 0.76164 -0.07600
C 	C 	0.32578 0.86560 0.81688 0.11000
H 	H 	0.31590 0.93770 0.83510 -0.05300
C 	C 	0.37323 0.87650 0.79647 -0.20600
H 	H 	0.39500 0.95400 0.80160 0.10700
C 	C 	0.38844 0.77420 0.76884 0.13400
C 	C 	0.35529 0.66180 0.76360 -0.20200
H 	H 	0.36440 0.58940 0.74520 0.08000
C 	C 	0.30859 0.65510 0.78536 0.10700
H 	H 	0.28710 0.57730 0.78150 -0.05300
C 	C 	0.43890 0.78000 0.74658 -0.06800
H 	H 	0.44300 0.71930 0.72120 0.05500
Zn	Zn	0.77961 0.75338 0.65384 1.11700
N 	N 	0.70692 0.75660 0.68812 -0.29200
N 	N 	0.52326 0.86640 0.73836 -0.07600
C 	C 	0.67422 0.86560 0.68312 0.11000
H 	H 	0.68410 0.93770 0.66490 -0.05300
C 	C 	0.62677 0.87650 0.70353 -0.20600
H 	H 	0.60500 0.95400 0.69840 0.10700
C 	C 	0.61156 0.77420 0.73116 0.13400
C 	C 	0.64471 0.66180 0.73640 -0.20200
H 	H 	0.63560 0.58940 0.75480 0.08000
C 	C 	0.69141 0.65510 0.71464 0.10700
H 	H 	0.71290 0.57730 0.71850 -0.05300
C 	C 	0.56110 0.78000 0.75342 -0.06800
H 	H 	0.55700 0.71930 0.77880 0.05400
