data_crystal

_cell_length_a 13.88200
_cell_length_b 13.36500
_cell_length_c 14.20900
_cell_angle_alpha 90.00000
_cell_angle_beta  112.04600
_cell_angle_gamma 90.00000

_symmetry_space_group_name_	'P 1'
_symmetry_space_group_name_H-M	'P 1'

loop_
_symmetry_equiv_pos_as_xyz
  x,y,z

loop_
_atom_site_label
_atom_site_type_symbol
_atom_site_fract_x
_atom_site_fract_y
_atom_site_fract_z
_atom_site_charge
C 	C 	0.22490 0.69530 0.88480 0.03500
H 	H 	0.27800 0.74170 0.91240 0.02800
C 	C 	0.12140 0.72610 0.84680 -0.07500
H 	H 	0.10480 0.79360 0.84610 0.07300
C 	C 	0.04470 0.65600 0.81060 -0.00200
C 	C 	0.06660 0.55420 0.80860 -0.08100
H 	H 	0.01340 0.50730 0.78470 0.06500
C 	C 	0.16950 0.52520 0.84310 0.04600
H 	H 	0.18590 0.45800 0.84060 0.03300
C 	C 	0.93440 0.69530 0.77460 0.21000
C 	C 	0.75820 0.65550 0.76170 0.14500
C 	C 	0.70750 0.60670 0.81470 -0.11100
H 	H 	0.74340 0.56030 0.86420 0.09000
C 	C 	0.60410 0.62520 0.79550 -0.03200
C 	C 	0.55130 0.69690 0.72220 -0.01500
H 	H 	0.48170 0.71000 0.70920 0.06500
C 	C 	0.60040 0.74810 0.66920 -0.03700
C 	C 	0.70610 0.72790 0.68800 -0.09900
H 	H 	0.74040 0.76150 0.65240 0.09800
C 	C 	0.55620 0.57630 0.86270 0.34800
C 	C 	0.55190 0.83300 0.59790 0.35000
N 	N 	0.24810 0.59410 0.88120 -0.19100
N 	N 	0.86290 0.63120 0.78210 -0.24200
H 	H 	0.88250 0.57090 0.80070 0.13500
O 	O 	0.91800 0.78330 0.74750 -0.22600
O 	O 	0.60930 0.51330 0.92390 -0.38800
O 	O 	0.46560 0.60280 0.85080 -0.37700
O 	O 	0.45930 0.82350 0.53850 -0.36900
O 	O 	0.60590 0.90830 0.60230 -0.39700
Cu	Cu	0.59967 0.44686 0.05103 0.91600
C 	C 	0.77510 0.19530 0.61520 0.03600
H 	H 	0.72200 0.24170 0.58760 0.02900
C 	C 	0.87860 0.22610 0.65320 -0.07500
H 	H 	0.89520 0.29360 0.65390 0.07500
C 	C 	0.95530 0.15600 0.68940 -0.00000
C 	C 	0.93340 0.05420 0.69140 -0.08000
H 	H 	0.98660 0.00730 0.71530 0.06500
C 	C 	0.83050 0.02520 0.65690 0.04500
H 	H 	0.81410 0.95800 0.65940 0.03400
C 	C 	0.06560 0.19530 0.72540 0.20900
C 	C 	0.24180 0.15550 0.73830 0.14500
C 	C 	0.29250 0.10670 0.68530 -0.11100
H 	H 	0.25660 0.06030 0.63580 0.09000
C 	C 	0.39590 0.12520 0.70450 -0.03200
C 	C 	0.44870 0.19690 0.77780 -0.01500
H 	H 	0.51830 0.21000 0.79080 0.06500
C 	C 	0.39960 0.24810 0.83080 -0.03700
C 	C 	0.29390 0.22790 0.81200 -0.09900
H 	H 	0.25960 0.26150 0.84760 0.09800
C 	C 	0.44380 0.07630 0.63730 0.34800
C 	C 	0.44810 0.33300 0.90210 0.35000
N 	N 	0.75190 0.09410 0.61880 -0.19000
N 	N 	0.13710 0.13120 0.71790 -0.24200
H 	H 	0.11750 0.07090 0.69930 0.13500
O 	O 	0.08200 0.28330 0.75250 -0.22600
O 	O 	0.39070 0.01330 0.57610 -0.38800
O 	O 	0.53440 0.10280 0.64920 -0.37700
O 	O 	0.54070 0.32350 0.96150 -0.36900
O 	O 	0.39410 0.40830 0.89770 -0.39700
Cu	Cu	0.40033 0.94686 0.44897 0.91600
C 	C 	0.77510 0.30470 0.11520 0.03600
H 	H 	0.72200 0.25830 0.08760 0.02900
C 	C 	0.87860 0.27390 0.15320 -0.07400
H 	H 	0.89520 0.20640 0.15390 0.07400
C 	C 	0.95530 0.34400 0.18940 -0.00100
C 	C 	0.93340 0.44580 0.19140 -0.08000
H 	H 	0.98660 0.49270 0.21530 0.06500
C 	C 	0.83050 0.47480 0.15690 0.04600
H 	H 	0.81410 0.54200 0.15940 0.03300
C 	C 	0.06560 0.30470 0.22540 0.21000
C 	C 	0.24180 0.34450 0.23830 0.14500
C 	C 	0.29250 0.39330 0.18530 -0.11100
H 	H 	0.25660 0.43970 0.13580 0.09000
C 	C 	0.39590 0.37480 0.20450 -0.03200
C 	C 	0.44870 0.30310 0.27780 -0.01500
H 	H 	0.51830 0.29000 0.29080 0.06500
C 	C 	0.39960 0.25190 0.33080 -0.03700
C 	C 	0.29390 0.27210 0.31200 -0.09900
H 	H 	0.25960 0.23850 0.34760 0.09800
C 	C 	0.44380 0.42370 0.13730 0.34800
C 	C 	0.44810 0.16700 0.40210 0.35000
N 	N 	0.75190 0.40590 0.11880 -0.19100
N 	N 	0.13710 0.36880 0.21790 -0.24200
H 	H 	0.11750 0.42910 0.19930 0.13500
O 	O 	0.08200 0.21670 0.25250 -0.22600
O 	O 	0.39070 0.48670 0.07610 -0.38800
O 	O 	0.53440 0.39720 0.14920 -0.37700
O 	O 	0.54070 0.17650 0.46150 -0.36900
O 	O 	0.39410 0.09170 0.39770 -0.39700
Cu	Cu	0.40033 0.55314 0.94897 0.91600
C 	C 	0.22490 0.80470 0.38480 0.03600
H 	H 	0.27800 0.75830 0.41240 0.02900
C 	C 	0.12140 0.77390 0.34680 -0.07500
H 	H 	0.10480 0.70640 0.34610 0.07500
C 	C 	0.04470 0.84400 0.31060 -0.00000
C 	C 	0.06660 0.94580 0.30860 -0.08000
H 	H 	0.01340 0.99270 0.28470 0.06500
C 	C 	0.16950 0.97480 0.34310 0.04500
H 	H 	0.18590 0.04200 0.34060 0.03400
C 	C 	0.93440 0.80470 0.27460 0.20900
C 	C 	0.75820 0.84450 0.26170 0.14500
C 	C 	0.70750 0.89330 0.31470 -0.11100
H 	H 	0.74340 0.93970 0.36420 0.09000
C 	C 	0.60410 0.87480 0.29550 -0.03200
C 	C 	0.55130 0.80310 0.22220 -0.01500
H 	H 	0.48170 0.79000 0.20920 0.06500
C 	C 	0.60040 0.75190 0.16920 -0.03700
C 	C 	0.70610 0.77210 0.18800 -0.09900
H 	H 	0.74040 0.73850 0.15240 0.09800
C 	C 	0.55620 0.92370 0.36270 0.34800
C 	C 	0.55190 0.66700 0.09790 0.35000
N 	N 	0.24810 0.90590 0.38120 -0.19000
N 	N 	0.86290 0.86880 0.28210 -0.24200
H 	H 	0.88250 0.92910 0.30070 0.13500
O 	O 	0.91800 0.71670 0.24750 -0.22600
O 	O 	0.60930 0.98670 0.42390 -0.38800
O 	O 	0.46560 0.89720 0.35080 -0.37700
O 	O 	0.45930 0.67650 0.03850 -0.36900
O 	O 	0.60590 0.59170 0.10230 -0.39700
Cu	Cu	0.59967 0.05314 0.55103 0.91600
