data_crystal

_cell_length_a 12.62450
_cell_length_b 12.62450
_cell_length_c 25.50020
_cell_angle_alpha 90.00000
_cell_angle_beta  90.00000
_cell_angle_gamma 90.00000

_symmetry_space_group_name_	'P 1'
_symmetry_space_group_name_H-M	'P 1'

loop_
_symmetry_equiv_pos_as_xyz
  x,y,z

loop_
_atom_site_label
_atom_site_type_symbol
_atom_site_fract_x
_atom_site_fract_y
_atom_site_fract_z
_atom_site_charge
Zn	Zn	0.54008 0.06462 0.56264 1.18200
C 	C 	0.60520 0.06830 0.66110 0.33400
C 	C 	0.70980 0.06960 0.79980 -0.01400
H 	H 	0.68200 0.06880 0.83360 0.03800
C 	C 	0.68200 0.06990 0.70700 -0.06900
C 	C 	0.64170 0.07040 0.75730 -0.03100
H 	H 	0.56880 0.07130 0.76260 0.05600
C 	C 	0.49700 0.30950 0.57830 0.20000
C 	C 	0.54220 0.26610 0.50150 0.08300
H 	H 	0.56370 0.22660 0.47260 -0.04500
N 	N 	0.47230 0.30330 0.62980 -0.35700
H 	H 	0.45520 0.35960 0.64680 0.16100
H 	H 	0.47370 0.24310 0.64550 0.16200
N 	N 	0.52410 0.22350 0.54906 -0.30300
N 	N 	0.52660 0.36880 0.49989 -0.26500
N 	N 	0.49710 0.39780 0.55101 -0.29100
O 	O 	0.51070 0.08640 0.66810 -0.36600
O 	O 	0.64490 0.04700 0.61700 -0.48800
Zn	Zn	0.95992 0.43538 0.56264 1.18300
C 	C 	0.89480 0.43170 0.66110 0.33500
C 	C 	0.79020 0.43040 0.79980 -0.01300
H 	H 	0.81800 0.43120 0.83360 0.03900
C 	C 	0.81800 0.43010 0.70700 -0.06800
C 	C 	0.85830 0.42960 0.75730 -0.03000
H 	H 	0.93120 0.42870 0.76260 0.05700
C 	C 	0.00300 0.19050 0.57830 0.20200
C 	C 	0.95780 0.23390 0.50150 0.08400
H 	H 	0.93630 0.27340 0.47260 -0.04400
N 	N 	0.02770 0.19670 0.62980 -0.35600
H 	H 	0.04480 0.14040 0.64680 0.16200
H 	H 	0.02630 0.25690 0.64550 0.16300
N 	N 	0.97590 0.27650 0.54906 -0.30200
N 	N 	0.97340 0.13120 0.49989 -0.26600
N 	N 	0.00290 0.10220 0.55101 -0.29000
O 	O 	0.98930 0.41360 0.66810 -0.36600
O 	O 	0.85510 0.45300 0.61700 -0.48800
Zn	Zn	0.43538 0.54008 0.56264 1.18300
C 	C 	0.43170 0.60520 0.66110 0.33500
C 	C 	0.43040 0.70980 0.79980 -0.01300
H 	H 	0.43120 0.68200 0.83360 0.03900
C 	C 	0.43010 0.68200 0.70700 -0.06800
C 	C 	0.42960 0.64170 0.75730 -0.03000
H 	H 	0.42870 0.56880 0.76260 0.05700
C 	C 	0.19050 0.49700 0.57830 0.20100
C 	C 	0.23390 0.54220 0.50150 0.08400
H 	H 	0.27340 0.56370 0.47260 -0.04400
N 	N 	0.19670 0.47230 0.62980 -0.35600
H 	H 	0.14040 0.45520 0.64680 0.16200
H 	H 	0.25690 0.47370 0.64550 0.16300
N 	N 	0.27650 0.52410 0.54906 -0.30200
N 	N 	0.13120 0.52660 0.49989 -0.26500
N 	N 	0.10220 0.49710 0.55101 -0.29100
O 	O 	0.41360 0.51070 0.66810 -0.36600
O 	O 	0.45300 0.64490 0.61700 -0.48800
Zn	Zn	0.06462 0.95992 0.56264 1.18200
C 	C 	0.06830 0.89480 0.66110 0.33500
C 	C 	0.06960 0.79020 0.79980 -0.01300
H 	H 	0.06880 0.81800 0.83360 0.03900
C 	C 	0.06990 0.81800 0.70700 -0.06800
C 	C 	0.07040 0.85830 0.75730 -0.03000
H 	H 	0.07130 0.93120 0.76260 0.05600
C 	C 	0.30950 0.00300 0.57830 0.20200
C 	C 	0.26610 0.95780 0.50150 0.08400
H 	H 	0.22660 0.93630 0.47260 -0.04400
N 	N 	0.30330 0.02770 0.62980 -0.35600
H 	H 	0.35960 0.04480 0.64680 0.16200
H 	H 	0.24310 0.02630 0.64550 0.16300
N 	N 	0.22350 0.97590 0.54906 -0.30200
N 	N 	0.36880 0.97340 0.49989 -0.26500
N 	N 	0.39780 0.00290 0.55101 -0.29100
O 	O 	0.08640 0.98930 0.66810 -0.36700
O 	O 	0.04700 0.85510 0.61700 -0.48800
Zn	Zn	0.95992 0.06462 0.93736 1.18200
C 	C 	0.89480 0.06830 0.83890 0.33500
C 	C 	0.79020 0.06960 0.70020 -0.01300
H 	H 	0.81800 0.06880 0.66640 0.03900
C 	C 	0.81800 0.06990 0.79300 -0.06800
C 	C 	0.85830 0.07040 0.74270 -0.03000
H 	H 	0.93120 0.07130 0.73740 0.05600
C 	C 	0.00300 0.30950 0.92170 0.20200
C 	C 	0.95780 0.26610 0.99850 0.08400
H 	H 	0.93630 0.22660 0.02740 -0.04400
N 	N 	0.02770 0.30330 0.87020 -0.35600
H 	H 	0.04480 0.35960 0.85320 0.16200
H 	H 	0.02630 0.24310 0.85450 0.16300
N 	N 	0.97590 0.22350 0.95094 -0.30200
N 	N 	0.97340 0.36880 0.00011 -0.26500
N 	N 	0.00290 0.39780 0.94899 -0.29100
O 	O 	0.98930 0.08640 0.83190 -0.36700
O 	O 	0.85510 0.04700 0.88300 -0.48800
Zn	Zn	0.54008 0.43538 0.93736 1.18300
C 	C 	0.60520 0.43170 0.83890 0.33500
C 	C 	0.70980 0.43040 0.70020 -0.01300
H 	H 	0.68200 0.43120 0.66640 0.03900
C 	C 	0.68200 0.43010 0.79300 -0.06800
C 	C 	0.64170 0.42960 0.74270 -0.03000
H 	H 	0.56880 0.42870 0.73740 0.05700
C 	C 	0.49700 0.19050 0.92170 0.20100
C 	C 	0.54220 0.23390 0.99850 0.08500
H 	H 	0.56370 0.27340 0.02740 -0.04400
N 	N 	0.47230 0.19670 0.87020 -0.35600
H 	H 	0.45520 0.14040 0.85320 0.16200
H 	H 	0.47370 0.25690 0.85450 0.16300
N 	N 	0.52410 0.27650 0.95094 -0.30200
N 	N 	0.52660 0.13120 0.00011 -0.26600
N 	N 	0.49710 0.10220 0.94899 -0.29100
O 	O 	0.51070 0.41360 0.83190 -0.36600
O 	O 	0.64490 0.45300 0.88300 -0.48800
Zn	Zn	0.06462 0.54008 0.93736 1.18300
C 	C 	0.06830 0.60520 0.83890 0.33500
C 	C 	0.06960 0.70980 0.70020 -0.01300
H 	H 	0.06880 0.68200 0.66640 0.03900
C 	C 	0.06990 0.68200 0.79300 -0.06800
C 	C 	0.07040 0.64170 0.74270 -0.03000
H 	H 	0.07130 0.56880 0.73740 0.05700
C 	C 	0.30950 0.49700 0.92170 0.20100
C 	C 	0.26610 0.54220 0.99850 0.08500
H 	H 	0.22660 0.56370 0.02740 -0.04400
N 	N 	0.30330 0.47230 0.87020 -0.35600
H 	H 	0.35960 0.45520 0.85320 0.16200
H 	H 	0.24310 0.47370 0.85450 0.16300
N 	N 	0.22350 0.52410 0.95094 -0.30200
N 	N 	0.36880 0.52660 0.00011 -0.26600
N 	N 	0.39780 0.49710 0.94899 -0.29100
O 	O 	0.08640 0.51070 0.83190 -0.36600
O 	O 	0.04700 0.64490 0.88300 -0.48800
Zn	Zn	0.43538 0.95992 0.93736 1.18300
C 	C 	0.43170 0.89480 0.83890 0.33500
C 	C 	0.43040 0.79020 0.70020 -0.01300
H 	H 	0.43120 0.81800 0.66640 0.03900
C 	C 	0.43010 0.81800 0.79300 -0.06800
C 	C 	0.42960 0.85830 0.74270 -0.03000
H 	H 	0.42870 0.93120 0.73740 0.05700
C 	C 	0.19050 0.00300 0.92170 0.20200
C 	C 	0.23390 0.95780 0.99850 0.08400
H 	H 	0.27340 0.93630 0.02740 -0.04400
N 	N 	0.19670 0.02770 0.87020 -0.35600
H 	H 	0.14040 0.04480 0.85320 0.16300
H 	H 	0.25690 0.02630 0.85450 0.16300
N 	N 	0.27650 0.97590 0.95094 -0.30200
N 	N 	0.13120 0.97340 0.00011 -0.26600
N 	N 	0.10220 0.00290 0.94899 -0.29000
O 	O 	0.41360 0.98930 0.83190 -0.36600
O 	O 	0.45300 0.85510 0.88300 -0.48800
Zn	Zn	0.45992 0.93538 0.43736 1.18300
C 	C 	0.39480 0.93170 0.33890 0.33500
C 	C 	0.29020 0.93040 0.20020 -0.01300
H 	H 	0.31800 0.93120 0.16640 0.03900
C 	C 	0.31800 0.93010 0.29300 -0.06800
C 	C 	0.35830 0.92960 0.24270 -0.03000
H 	H 	0.43120 0.92870 0.23740 0.05700
C 	C 	0.50300 0.69050 0.42170 0.20100
C 	C 	0.45780 0.73390 0.49850 0.08400
H 	H 	0.43630 0.77340 0.52740 -0.04400
N 	N 	0.52770 0.69670 0.37020 -0.35600
H 	H 	0.54480 0.64040 0.35320 0.16200
H 	H 	0.52630 0.75690 0.35450 0.16300
N 	N 	0.47590 0.77650 0.45094 -0.30200
N 	N 	0.47340 0.63120 0.50011 -0.26500
N 	N 	0.50290 0.60220 0.44899 -0.29100
O 	O 	0.48930 0.91360 0.33190 -0.36600
O 	O 	0.35510 0.95300 0.38300 -0.48800
Zn	Zn	0.04008 0.56462 0.43736 1.18300
C 	C 	0.10520 0.56830 0.33890 0.33500
C 	C 	0.20980 0.56960 0.20020 -0.01300
H 	H 	0.18200 0.56880 0.16640 0.03900
C 	C 	0.18200 0.56990 0.29300 -0.06800
C 	C 	0.14170 0.57040 0.24270 -0.03000
H 	H 	0.06880 0.57130 0.23740 0.05700
C 	C 	0.99700 0.80950 0.42170 0.20200
C 	C 	0.04220 0.76610 0.49850 0.08400
H 	H 	0.06370 0.72660 0.52740 -0.04400
N 	N 	0.97230 0.80330 0.37020 -0.35600
H 	H 	0.95520 0.85960 0.35320 0.16200
H 	H 	0.97370 0.74310 0.35450 0.16300
N 	N 	0.02410 0.72350 0.45094 -0.30200
N 	N 	0.02660 0.86880 0.50011 -0.26600
N 	N 	0.99710 0.89780 0.44899 -0.29000
O 	O 	0.01070 0.58640 0.33190 -0.36600
O 	O 	0.14490 0.54700 0.38300 -0.48800
Zn	Zn	0.56462 0.45992 0.43736 1.18300
C 	C 	0.56830 0.39480 0.33890 0.33500
C 	C 	0.56960 0.29020 0.20020 -0.01300
H 	H 	0.56880 0.31800 0.16640 0.03900
C 	C 	0.56990 0.31800 0.29300 -0.06800
C 	C 	0.57040 0.35830 0.24270 -0.03000
H 	H 	0.57130 0.43120 0.23740 0.05700
C 	C 	0.80950 0.50300 0.42170 0.20100
C 	C 	0.76610 0.45780 0.49850 0.08400
H 	H 	0.72660 0.43630 0.52740 -0.04400
N 	N 	0.80330 0.52770 0.37020 -0.35600
H 	H 	0.85960 0.54480 0.35320 0.16200
H 	H 	0.74310 0.52630 0.35450 0.16300
N 	N 	0.72350 0.47590 0.45094 -0.30200
N 	N 	0.86880 0.47340 0.50011 -0.26500
N 	N 	0.89780 0.50290 0.44899 -0.29100
O 	O 	0.58640 0.48930 0.33190 -0.36600
O 	O 	0.54700 0.35510 0.38300 -0.48800
Zn	Zn	0.93538 0.04008 0.43736 1.18200
C 	C 	0.93170 0.10520 0.33890 0.33500
C 	C 	0.93040 0.20980 0.20020 -0.01300
H 	H 	0.93120 0.18200 0.16640 0.03900
C 	C 	0.93010 0.18200 0.29300 -0.06800
C 	C 	0.92960 0.14170 0.24270 -0.03000
H 	H 	0.92870 0.06880 0.23740 0.05600
C 	C 	0.69050 0.99700 0.42170 0.20200
C 	C 	0.73390 0.04220 0.49850 0.08400
H 	H 	0.77340 0.06370 0.52740 -0.04400
N 	N 	0.69670 0.97230 0.37020 -0.35600
H 	H 	0.64040 0.95520 0.35320 0.16200
H 	H 	0.75690 0.97370 0.35450 0.16300
N 	N 	0.77650 0.02410 0.45094 -0.30200
N 	N 	0.63120 0.02660 0.50011 -0.26500
N 	N 	0.60220 0.99710 0.44899 -0.29100
O 	O 	0.91360 0.01070 0.33190 -0.36700
O 	O 	0.95300 0.14490 0.38300 -0.48800
Zn	Zn	0.04008 0.93538 0.06264 1.18200
C 	C 	0.10520 0.93170 0.16110 0.33500
C 	C 	0.20980 0.93040 0.29980 -0.01300
H 	H 	0.18200 0.93120 0.33360 0.03900
C 	C 	0.18200 0.93010 0.20700 -0.06800
C 	C 	0.14170 0.92960 0.25730 -0.03000
H 	H 	0.06880 0.92870 0.26260 0.05600
C 	C 	0.99700 0.69050 0.07830 0.20200
C 	C 	0.04220 0.73390 0.00150 0.08400
H 	H 	0.06370 0.77340 0.97260 -0.04400
N 	N 	0.97230 0.69670 0.12980 -0.35600
H 	H 	0.95520 0.64040 0.14680 0.16200
H 	H 	0.97370 0.75690 0.14550 0.16300
N 	N 	0.02410 0.77650 0.04906 -0.30200
N 	N 	0.02660 0.63120 0.99989 -0.26500
N 	N 	0.99710 0.60220 0.05101 -0.29100
O 	O 	0.01070 0.91360 0.16810 -0.36700
O 	O 	0.14490 0.95300 0.11700 -0.48800
Zn	Zn	0.45992 0.56462 0.06264 1.18300
C 	C 	0.39480 0.56830 0.16110 0.33500
C 	C 	0.29020 0.56960 0.29980 -0.01300
H 	H 	0.31800 0.56880 0.33360 0.03900
C 	C 	0.31800 0.56990 0.20700 -0.06800
C 	C 	0.35830 0.57040 0.25730 -0.03000
H 	H 	0.43120 0.57130 0.26260 0.05700
C 	C 	0.50300 0.80950 0.07830 0.20100
C 	C 	0.45780 0.76610 0.00150 0.08500
H 	H 	0.43630 0.72660 0.97260 -0.04400
N 	N 	0.52770 0.80330 0.12980 -0.35600
H 	H 	0.54480 0.85960 0.14680 0.16200
H 	H 	0.52630 0.74310 0.14550 0.16300
N 	N 	0.47590 0.72350 0.04906 -0.30200
N 	N 	0.47340 0.86880 0.99989 -0.26600
N 	N 	0.50290 0.89780 0.05101 -0.29100
O 	O 	0.48930 0.58640 0.16810 -0.36600
O 	O 	0.35510 0.54700 0.11700 -0.48800
Zn	Zn	0.93538 0.45992 0.06264 1.18300
C 	C 	0.93170 0.39480 0.16110 0.33500
C 	C 	0.93040 0.29020 0.29980 -0.01300
H 	H 	0.93120 0.31800 0.33360 0.03900
C 	C 	0.93010 0.31800 0.20700 -0.06800
C 	C 	0.92960 0.35830 0.25730 -0.03000
H 	H 	0.92870 0.43120 0.26260 0.05700
C 	C 	0.69050 0.50300 0.07830 0.20100
C 	C 	0.73390 0.45780 0.00150 0.08500
H 	H 	0.77340 0.43630 0.97260 -0.04400
N 	N 	0.69670 0.52770 0.12980 -0.35600
H 	H 	0.64040 0.54480 0.14680 0.16200
H 	H 	0.75690 0.52630 0.14550 0.16300
N 	N 	0.77650 0.47590 0.04906 -0.30200
N 	N 	0.63120 0.47340 0.99989 -0.26600
N 	N 	0.60220 0.50290 0.05101 -0.29100
O 	O 	0.91360 0.48930 0.16810 -0.36600
O 	O 	0.95300 0.35510 0.11700 -0.48800
Zn	Zn	0.56462 0.04008 0.06264 1.18300
C 	C 	0.56830 0.10520 0.16110 0.33500
C 	C 	0.56960 0.20980 0.29980 -0.01300
H 	H 	0.56880 0.18200 0.33360 0.03900
C 	C 	0.56990 0.18200 0.20700 -0.06800
C 	C 	0.57040 0.14170 0.25730 -0.03000
H 	H 	0.57130 0.06880 0.26260 0.05700
C 	C 	0.80950 0.99700 0.07830 0.20200
C 	C 	0.76610 0.04220 0.00150 0.08400
H 	H 	0.72660 0.06370 0.97260 -0.04400
N 	N 	0.80330 0.97230 0.12980 -0.35600
H 	H 	0.85960 0.95520 0.14680 0.16300
H 	H 	0.74310 0.97370 0.14550 0.16300
N 	N 	0.72350 0.02410 0.04906 -0.30200
N 	N 	0.86880 0.02660 0.99989 -0.26600
N 	N 	0.89780 0.99710 0.05101 -0.29000
O 	O 	0.58640 0.01070 0.16810 -0.36600
O 	O 	0.54700 0.14490 0.11700 -0.48800
