data_crystal

_cell_length_a 8.69880
_cell_length_b 19.90900
_cell_length_c 20.57130
_cell_angle_alpha 90.00000
_cell_angle_beta  90.00000
_cell_angle_gamma 90.00000

_symmetry_space_group_name_	'P 1'
_symmetry_space_group_name_H-M	'P 1'

loop_
_symmetry_equiv_pos_as_xyz
  x,y,z

loop_
_atom_site_label
_atom_site_type_symbol
_atom_site_fract_x
_atom_site_fract_y
_atom_site_fract_z
_atom_site_charge
N 	N 	0.33770 0.37348 0.17993 -0.22200
C 	C 	0.20220 0.39053 0.26513 0.20700
C 	C 	0.22920 0.32595 0.17812 0.23400
N 	N 	0.32275 0.41428 0.23259 -0.25600
C 	C 	0.13910 0.33468 0.23208 -0.17500
H 	H 	0.02620 0.26500 0.28640 0.04000
C 	C 	0.22020 0.27649 0.12368 -0.66500
H 	H 	0.12660 0.28340 0.09990 0.17500
H 	H 	0.22170 0.23170 0.14100 0.19500
H 	H 	0.30650 0.28260 0.09520 0.18600
C 	C 	0.14960 0.42276 0.32663 -0.63000
H 	H 	0.20960 0.46230 0.33470 0.14700
H 	H 	0.16200 0.39180 0.36200 0.17100
H 	H 	0.04310 0.43490 0.32270 0.17500
H 	H 	0.40100 0.38130 0.15170 0.07800
N 	N 	0.66230 0.62652 0.17993 -0.22700
C 	C 	0.79780 0.60947 0.26513 0.23800
C 	C 	0.77080 0.67405 0.17812 0.26300
N 	N 	0.67725 0.58572 0.23259 -0.25900
C 	C 	0.86090 0.66532 0.23208 -0.15300
H 	H 	0.97380 0.73500 0.28640 0.08200
C 	C 	0.77980 0.72351 0.12368 -0.72600
H 	H 	0.87340 0.71660 0.09990 0.22200
H 	H 	0.77830 0.76830 0.14100 0.22900
H 	H 	0.69350 0.71740 0.09520 0.21000
C 	C 	0.85040 0.57724 0.32663 -0.71000
H 	H 	0.79040 0.53770 0.33470 0.18200
H 	H 	0.83800 0.60820 0.36200 0.20800
H 	H 	0.95690 0.56510 0.32270 0.23500
H 	H 	0.59900 0.61870 0.15170 0.08200
N 	N 	0.66230 0.37348 0.32007 -0.22600
C 	C 	0.79780 0.39053 0.23487 0.23600
C 	C 	0.77080 0.32595 0.32188 0.25900
N 	N 	0.67725 0.41428 0.26741 -0.25800
C 	C 	0.86090 0.33468 0.26792 -0.14800
H 	H 	0.97380 0.26500 0.21360 0.08600
C 	C 	0.77980 0.27649 0.37632 -0.71900
H 	H 	0.87340 0.28340 0.40010 0.22000
H 	H 	0.77830 0.23170 0.35900 0.22500
H 	H 	0.69350 0.28260 0.40480 0.20600
C 	C 	0.85040 0.42276 0.17337 -0.70800
H 	H 	0.79040 0.46230 0.16530 0.18100
H 	H 	0.83800 0.39180 0.13800 0.20800
H 	H 	0.95690 0.43490 0.17730 0.23500
H 	H 	0.59900 0.38130 0.34830 0.08100
N 	N 	0.33770 0.62652 0.32007 -0.22400
C 	C 	0.20220 0.60947 0.23487 0.20800
C 	C 	0.22920 0.67405 0.32188 0.23900
N 	N 	0.32275 0.58572 0.26741 -0.25600
C 	C 	0.13910 0.66532 0.26792 -0.17900
H 	H 	0.02620 0.73500 0.21360 0.03700
C 	C 	0.22020 0.72351 0.37632 -0.67400
H 	H 	0.12660 0.71660 0.40010 0.18000
H 	H 	0.22170 0.76830 0.35900 0.20000
H 	H 	0.30650 0.71740 0.40480 0.19000
C 	C 	0.14960 0.57724 0.17337 -0.63200
H 	H 	0.20960 0.53770 0.16530 0.14800
H 	H 	0.16200 0.60820 0.13800 0.17200
H 	H 	0.04310 0.56510 0.17730 0.17600
H 	H 	0.40100 0.61870 0.34830 0.07800
Cd	Cd	0.50000 0.50000 0.25000 1.15000
C 	C 	0.00000 0.29378 0.25000 -0.11800
C 	C 	0.00000 0.70622 0.25000 -0.10800
N 	N 	0.83770 0.87348 0.67993 -0.23900
C 	C 	0.70220 0.89053 0.76513 0.30100
C 	C 	0.72920 0.82595 0.67812 0.31600
N 	N 	0.82275 0.91428 0.73259 -0.24400
C 	C 	0.63910 0.83468 0.73208 -0.27300
H 	H 	0.52620 0.76500 0.78640 -0.01400
C 	C 	0.72020 0.77649 0.62368 -0.78600
H 	H 	0.62660 0.78340 0.59990 0.23000
H 	H 	0.72170 0.73170 0.64100 0.24200
H 	H 	0.80650 0.78260 0.59520 0.23300
C 	C 	0.64960 0.92276 0.82663 -0.80400
H 	H 	0.70960 0.96230 0.83470 0.23400
H 	H 	0.66200 0.89180 0.86200 0.24000
H 	H 	0.54310 0.93490 0.82270 0.26200
H 	H 	0.90100 0.88130 0.65170 0.10600
N 	N 	0.16230 0.12652 0.67993 -0.22800
C 	C 	0.29780 0.10947 0.76513 0.21700
C 	C 	0.27080 0.17405 0.67812 0.26200
N 	N 	0.17725 0.08572 0.73259 -0.27600
C 	C 	0.36090 0.16532 0.73208 -0.22300
H 	H 	0.47380 0.23500 0.78640 -0.00100
C 	C 	0.27980 0.22351 0.62368 -0.70500
H 	H 	0.37340 0.21660 0.59990 0.19900
H 	H 	0.27830 0.26830 0.64100 0.21300
H 	H 	0.19350 0.21740 0.59520 0.18900
C 	C 	0.35040 0.07724 0.82663 -0.62400
H 	H 	0.29040 0.03770 0.83470 0.12300
H 	H 	0.33800 0.10820 0.86200 0.16600
H 	H 	0.45690 0.06510 0.82270 0.17400
H 	H 	0.09900 0.11870 0.65170 0.05800
N 	N 	0.16230 0.87348 0.82007 -0.23400
C 	C 	0.29780 0.89053 0.73487 0.28600
C 	C 	0.27080 0.82595 0.82188 0.29400
N 	N 	0.17725 0.91428 0.76741 -0.25900
C 	C 	0.36090 0.83468 0.76792 -0.26400
H 	H 	0.47380 0.76500 0.71360 -0.01400
C 	C 	0.27980 0.77649 0.87632 -0.74500
H 	H 	0.37340 0.78340 0.90010 0.21600
H 	H 	0.27830 0.73170 0.85900 0.22500
H 	H 	0.19350 0.78260 0.90480 0.20600
C 	C 	0.35040 0.92276 0.67337 -0.78100
H 	H 	0.29040 0.96230 0.66530 0.21800
H 	H 	0.33800 0.89180 0.63800 0.22600
H 	H 	0.45690 0.93490 0.67730 0.25400
H 	H 	0.09900 0.88130 0.84830 0.08100
N 	N 	0.83770 0.12652 0.82007 -0.23400
C 	C 	0.70220 0.10947 0.73487 0.23400
C 	C 	0.72920 0.17405 0.82188 0.28600
N 	N 	0.82275 0.08572 0.76741 -0.26000
C 	C 	0.63910 0.16532 0.76792 -0.23400
H 	H 	0.52620 0.23500 0.71360 -0.00100
C 	C 	0.72020 0.22351 0.87632 -0.74800
H 	H 	0.62660 0.21660 0.90010 0.21300
H 	H 	0.72170 0.26830 0.85900 0.23000
H 	H 	0.80650 0.21740 0.90480 0.21700
C 	C 	0.64960 0.07724 0.67337 -0.65100
H 	H 	0.70960 0.03770 0.66530 0.14100
H 	H 	0.66200 0.10820 0.63800 0.18100
H 	H 	0.54310 0.06510 0.67730 0.18200
H 	H 	0.90100 0.11870 0.84830 0.08600
Cd	Cd	0.00000 0.00000 0.75000 1.11000
C 	C 	0.50000 0.79378 0.75000 0.11800
C 	C 	0.50000 0.20622 0.75000 0.07300
N 	N 	0.66230 0.62652 0.82007 -0.22700
C 	C 	0.79780 0.60947 0.73487 0.23800
C 	C 	0.77080 0.67405 0.82188 0.26300
N 	N 	0.67725 0.58572 0.76741 -0.25900
C 	C 	0.86090 0.66532 0.76792 -0.15300
H 	H 	0.97380 0.73500 0.71360 0.08200
C 	C 	0.77980 0.72351 0.87632 -0.72600
H 	H 	0.87340 0.71660 0.90010 0.22200
H 	H 	0.77830 0.76830 0.85900 0.22900
H 	H 	0.69350 0.71740 0.90480 0.21000
C 	C 	0.85040 0.57724 0.67337 -0.71000
H 	H 	0.79040 0.53770 0.66530 0.18200
H 	H 	0.83800 0.60820 0.63800 0.20800
H 	H 	0.95690 0.56510 0.67730 0.23500
H 	H 	0.59900 0.61870 0.84830 0.08200
N 	N 	0.33770 0.37348 0.82007 -0.22300
C 	C 	0.20220 0.39053 0.73487 0.20600
C 	C 	0.22920 0.32595 0.82188 0.23400
N 	N 	0.32275 0.41428 0.76741 -0.25600
C 	C 	0.13910 0.33468 0.76792 -0.17500
H 	H 	0.02620 0.26500 0.71360 0.04000
C 	C 	0.22020 0.27649 0.87632 -0.66500
H 	H 	0.12660 0.28340 0.90010 0.17500
H 	H 	0.22170 0.23170 0.85900 0.19500
H 	H 	0.30650 0.28260 0.90480 0.18600
C 	C 	0.14960 0.42276 0.67337 -0.63000
H 	H 	0.20960 0.46230 0.66530 0.14700
H 	H 	0.16200 0.39180 0.63800 0.17100
H 	H 	0.04310 0.43490 0.67730 0.17500
H 	H 	0.40100 0.38130 0.84830 0.07800
N 	N 	0.33770 0.62652 0.67993 -0.22400
C 	C 	0.20220 0.60947 0.76513 0.20800
C 	C 	0.22920 0.67405 0.67812 0.23900
N 	N 	0.32275 0.58572 0.73259 -0.25600
C 	C 	0.13910 0.66532 0.73208 -0.17900
H 	H 	0.02620 0.73500 0.78640 0.03700
C 	C 	0.22020 0.72351 0.62368 -0.67400
H 	H 	0.12660 0.71660 0.59990 0.18000
H 	H 	0.22170 0.76830 0.64100 0.20000
H 	H 	0.30650 0.71740 0.59520 0.19000
C 	C 	0.14960 0.57724 0.82663 -0.63200
H 	H 	0.20960 0.53770 0.83470 0.14800
H 	H 	0.16200 0.60820 0.86200 0.17200
H 	H 	0.04310 0.56510 0.82270 0.17600
H 	H 	0.40100 0.61870 0.65170 0.07800
N 	N 	0.66230 0.37348 0.67993 -0.22600
C 	C 	0.79780 0.39053 0.76513 0.23600
C 	C 	0.77080 0.32595 0.67812 0.25900
N 	N 	0.67725 0.41428 0.73259 -0.25800
C 	C 	0.86090 0.33468 0.73208 -0.14800
H 	H 	0.97380 0.26500 0.78640 0.08600
C 	C 	0.77980 0.27649 0.62368 -0.71900
H 	H 	0.87340 0.28340 0.59990 0.22000
H 	H 	0.77830 0.23170 0.64100 0.22500
H 	H 	0.69350 0.28260 0.59520 0.20600
C 	C 	0.85040 0.42276 0.82663 -0.70800
H 	H 	0.79040 0.46230 0.83470 0.18100
H 	H 	0.83800 0.39180 0.86200 0.20800
H 	H 	0.95690 0.43490 0.82270 0.23500
H 	H 	0.59900 0.38130 0.65170 0.08100
Cd	Cd	0.50000 0.50000 0.75000 1.15000
C 	C 	0.00000 0.70622 0.75000 -0.10800
C 	C 	0.00000 0.29378 0.75000 -0.11800
N 	N 	0.16230 0.12652 0.32007 -0.22800
C 	C 	0.29780 0.10947 0.23487 0.21700
C 	C 	0.27080 0.17405 0.32188 0.26200
N 	N 	0.17725 0.08572 0.26741 -0.27600
C 	C 	0.36090 0.16532 0.26792 -0.22300
H 	H 	0.47380 0.23500 0.21360 -0.00100
C 	C 	0.27980 0.22351 0.37632 -0.70500
H 	H 	0.37340 0.21660 0.40010 0.19900
H 	H 	0.27830 0.26830 0.35900 0.21300
H 	H 	0.19350 0.21740 0.40480 0.18900
C 	C 	0.35040 0.07724 0.17337 -0.62400
H 	H 	0.29040 0.03770 0.16530 0.12300
H 	H 	0.33800 0.10820 0.13800 0.16600
H 	H 	0.45690 0.06510 0.17730 0.17400
H 	H 	0.09900 0.11870 0.34830 0.05800
N 	N 	0.83770 0.87348 0.32007 -0.23900
C 	C 	0.70220 0.89053 0.23487 0.30100
C 	C 	0.72920 0.82595 0.32188 0.31600
N 	N 	0.82275 0.91428 0.26741 -0.24400
C 	C 	0.63910 0.83468 0.26792 -0.27300
H 	H 	0.52620 0.76500 0.21360 -0.01400
C 	C 	0.72020 0.77649 0.37632 -0.78600
H 	H 	0.62660 0.78340 0.40010 0.23000
H 	H 	0.72170 0.73170 0.35900 0.24200
H 	H 	0.80650 0.78260 0.40480 0.23300
C 	C 	0.64960 0.92276 0.17337 -0.80400
H 	H 	0.70960 0.96230 0.16530 0.23400
H 	H 	0.66200 0.89180 0.13800 0.24000
H 	H 	0.54310 0.93490 0.17730 0.26200
H 	H 	0.90100 0.88130 0.34830 0.10600
N 	N 	0.83770 0.12652 0.17993 -0.23400
C 	C 	0.70220 0.10947 0.26513 0.23400
C 	C 	0.72920 0.17405 0.17812 0.28600
N 	N 	0.82275 0.08572 0.23259 -0.26000
C 	C 	0.63910 0.16532 0.23208 -0.23400
H 	H 	0.52620 0.23500 0.28640 -0.00100
C 	C 	0.72020 0.22351 0.12368 -0.74800
H 	H 	0.62660 0.21660 0.09990 0.21300
H 	H 	0.72170 0.26830 0.14100 0.23000
H 	H 	0.80650 0.21740 0.09520 0.21700
C 	C 	0.64960 0.07724 0.32663 -0.65100
H 	H 	0.70960 0.03770 0.33470 0.14100
H 	H 	0.66200 0.10820 0.36200 0.18100
H 	H 	0.54310 0.06510 0.32270 0.18200
H 	H 	0.90100 0.11870 0.15170 0.08600
N 	N 	0.16230 0.87348 0.17993 -0.23400
C 	C 	0.29780 0.89053 0.26513 0.28600
C 	C 	0.27080 0.82595 0.17812 0.29400
N 	N 	0.17725 0.91428 0.23259 -0.25900
C 	C 	0.36090 0.83468 0.23208 -0.26400
H 	H 	0.47380 0.76500 0.28640 -0.01400
C 	C 	0.27980 0.77649 0.12368 -0.74500
H 	H 	0.37340 0.78340 0.09990 0.21600
H 	H 	0.27830 0.73170 0.14100 0.22500
H 	H 	0.19350 0.78260 0.09520 0.20600
C 	C 	0.35040 0.92276 0.32663 -0.78100
H 	H 	0.29040 0.96230 0.33470 0.21800
H 	H 	0.33800 0.89180 0.36200 0.22600
H 	H 	0.45690 0.93490 0.32270 0.25400
H 	H 	0.09900 0.88130 0.15170 0.08100
Cd	Cd	0.00000 0.00000 0.25000 1.11000
C 	C 	0.50000 0.20622 0.25000 0.07300
C 	C 	0.50000 0.79378 0.25000 0.11800
