data_crystal

_cell_length_a 17.38670
_cell_length_b 17.38670
_cell_length_c 16.46620
_cell_angle_alpha 90.00000
_cell_angle_beta  90.00000
_cell_angle_gamma 90.00000

_symmetry_space_group_name_	'P 1'
_symmetry_space_group_name_H-M	'P 1'

loop_
_symmetry_equiv_pos_as_xyz
  x,y,z

loop_
_atom_site_label
_atom_site_type_symbol
_atom_site_fract_x
_atom_site_fract_y
_atom_site_fract_z
_atom_site_charge
Zn	Zn	0.98223 0.21734 0.12820 1.13400
C 	C 	0.86951 0.30642 0.47913 0.02600
H 	H 	0.91300 0.28290 0.50770 0.02400
C 	C 	0.90144 0.36084 0.41471 0.02600
H 	H 	0.85790 0.38490 0.38680 0.02500
C 	C 	0.94920 0.42495 0.45490 -0.14600
H 	H 	0.99310 0.40270 0.48260 0.06400
H 	H 	0.96820 0.46000 0.41370 0.05400
C 	C 	0.89910 0.46860 0.51560 -0.06800
H 	H 	0.92930 0.50850 0.54150 0.01800
H 	H 	0.85680 0.49310 0.48710 0.03500
C 	C 	0.86740 0.41430 0.57980 -0.06400
H 	H 	0.83500 0.44290 0.61700 0.01100
H 	H 	0.90960 0.39250 0.61060 0.03200
C 	C 	0.82090 0.34973 0.54120 -0.14500
H 	H 	0.77580 0.37100 0.51480 0.06300
H 	H 	0.80360 0.31440 0.58310 0.05200
C 	C 	0.75640 0.25078 0.39862 0.08300
H 	H 	0.73020 0.29670 0.39030 0.00100
C 	C 	0.84180 0.16889 0.43795 0.08900
H 	H 	0.88530 0.14670 0.46100 -0.02300
C 	C 	0.92839 0.30977 0.27483 0.09400
H 	H 	0.88560 0.33120 0.24960 -0.02000
C 	C 	0.01302 0.27752 0.36423 0.08800
H 	H 	0.03940 0.27320 0.41310 0.00000
C 	C 	0.11254 0.94317 0.22936 0.02200
H 	H 	0.14140 0.97050 0.27160 0.02500
C 	C 	0.17000 0.89850 0.17620 -0.13900
H 	H 	0.14270 0.87180 0.13330 0.06000
H 	H 	0.20600 0.93400 0.15130 0.04300
C 	C 	0.21360 0.84060 0.22840 -0.06700
H 	H 	0.24820 0.81120 0.19430 0.01400
H 	H 	0.24430 0.86800 0.26820 0.03200
C 	C 	0.06167 0.07523 0.19957 0.09100
H 	H 	0.08710 0.10050 0.24140 -0.02100
C 	C 	0.02158 0.98800 0.11714 0.07900
H 	H 	0.01500 0.94070 0.09170 0.00100
N 	N 	0.82422 0.24437 0.44065 -0.14000
N 	N 	0.73339 0.18358 0.37169 -0.12200
N 	N 	0.78842 0.13166 0.39804 -0.26400
N 	N 	0.94657 0.31845 0.35402 -0.14300
N 	N 	0.97999 0.26672 0.23894 -0.26900
N 	N 	0.03461 0.24529 0.29642 -0.12800
N 	N 	0.06874 0.00027 0.18155 -0.14000
N 	N 	0.01293 0.10718 0.14853 -0.26400
N 	N 	0.98646 0.05158 0.09554 -0.13000
Zn	Zn	0.78266 0.01777 0.37180 1.13500
C 	C 	0.69358 0.13049 0.02087 0.02400
H 	H 	0.71710 0.08700 0.99230 0.02600
C 	C 	0.63916 0.09856 0.08529 0.02800
H 	H 	0.61510 0.14210 0.11320 0.02500
C 	C 	0.57505 0.05080 0.04510 -0.14700
H 	H 	0.59730 0.00690 0.01740 0.06500
H 	H 	0.54000 0.03180 0.08630 0.05600
C 	C 	0.53140 0.10090 0.98440 -0.06400
H 	H 	0.49150 0.07070 0.95850 0.01600
H 	H 	0.50690 0.14320 0.01290 0.03300
C 	C 	0.58570 0.13260 0.92020 -0.06700
H 	H 	0.55710 0.16500 0.88300 0.01200
H 	H 	0.60750 0.09040 0.88940 0.03300
C 	C 	0.65027 0.17910 0.95880 -0.14200
H 	H 	0.62900 0.22420 0.98520 0.06200
H 	H 	0.68560 0.19640 0.91690 0.05100
C 	C 	0.74922 0.24360 0.10138 0.08200
H 	H 	0.70330 0.26980 0.10970 0.00100
C 	C 	0.83111 0.15820 0.06205 0.08900
H 	H 	0.85330 0.11470 0.03900 -0.02400
C 	C 	0.69023 0.07161 0.22517 0.09400
H 	H 	0.66880 0.11440 0.25040 -0.02000
C 	C 	0.72248 0.98698 0.13577 0.08900
H 	H 	0.72680 0.96060 0.08690 0.00000
C 	C 	0.05683 0.88746 0.27064 0.02100
H 	H 	0.02950 0.85860 0.22840 0.02500
C 	C 	0.10150 0.83000 0.32380 -0.13800
H 	H 	0.12820 0.85730 0.36670 0.06000
H 	H 	0.06600 0.79400 0.34870 0.04300
C 	C 	0.15940 0.78640 0.27160 -0.06800
H 	H 	0.18880 0.75180 0.30570 0.01400
H 	H 	0.13200 0.75570 0.23180 0.03200
C 	C 	0.92477 0.93833 0.30043 0.09100
H 	H 	0.89950 0.91290 0.25860 -0.02100
C 	C 	0.01200 0.97842 0.38286 0.07800
H 	H 	0.05930 0.98500 0.40830 0.00100
N 	N 	0.75563 0.17578 0.05935 -0.14000
N 	N 	0.81642 0.26661 0.12831 -0.12200
N 	N 	0.86834 0.21158 0.10196 -0.26500
N 	N 	0.68155 0.05343 0.14598 -0.14300
N 	N 	0.73328 0.02001 0.26106 -0.27000
N 	N 	0.75471 0.96539 0.20358 -0.12800
N 	N 	0.99973 0.93126 0.31845 -0.13900
N 	N 	0.89282 0.98707 0.35147 -0.26400
N 	N 	0.94842 0.01354 0.40446 -0.13000
Zn	Zn	0.01777 0.78266 0.62820 1.13500
C 	C 	0.13049 0.69358 0.97913 0.02400
H 	H 	0.08700 0.71710 0.00770 0.02600
C 	C 	0.09856 0.63916 0.91471 0.02800
H 	H 	0.14210 0.61510 0.88680 0.02500
C 	C 	0.05080 0.57505 0.95490 -0.14700
H 	H 	0.00690 0.59730 0.98260 0.06500
H 	H 	0.03180 0.54000 0.91370 0.05600
C 	C 	0.10090 0.53140 0.01560 -0.06400
H 	H 	0.07070 0.49150 0.04150 0.01600
H 	H 	0.14320 0.50690 0.98710 0.03300
C 	C 	0.13260 0.58570 0.07980 -0.06700
H 	H 	0.16500 0.55710 0.11700 0.01200
H 	H 	0.09040 0.60750 0.11060 0.03300
C 	C 	0.17910 0.65027 0.04120 -0.14200
H 	H 	0.22420 0.62900 0.01480 0.06200
H 	H 	0.19640 0.68560 0.08310 0.05100
C 	C 	0.24360 0.74922 0.89862 0.08200
H 	H 	0.26980 0.70330 0.89030 0.00100
C 	C 	0.15820 0.83111 0.93795 0.08900
H 	H 	0.11470 0.85330 0.96100 -0.02400
C 	C 	0.07161 0.69023 0.77483 0.09400
H 	H 	0.11440 0.66880 0.74960 -0.02000
C 	C 	0.98698 0.72248 0.86423 0.08900
H 	H 	0.96060 0.72680 0.91310 0.00000
C 	C 	0.88746 0.05683 0.72936 0.02100
H 	H 	0.85860 0.02950 0.77160 0.02500
C 	C 	0.83000 0.10150 0.67620 -0.13800
H 	H 	0.85730 0.12820 0.63330 0.06000
H 	H 	0.79400 0.06600 0.65130 0.04300
C 	C 	0.78640 0.15940 0.72840 -0.06800
H 	H 	0.75180 0.18880 0.69430 0.01400
H 	H 	0.75570 0.13200 0.76820 0.03200
C 	C 	0.93833 0.92477 0.69957 0.09100
H 	H 	0.91290 0.89950 0.74140 -0.02100
C 	C 	0.97842 0.01200 0.61714 0.07800
H 	H 	0.98500 0.05930 0.59170 0.00100
N 	N 	0.17578 0.75563 0.94065 -0.14000
N 	N 	0.26661 0.81642 0.87169 -0.12200
N 	N 	0.21158 0.86834 0.89804 -0.26500
N 	N 	0.05343 0.68155 0.85402 -0.14300
N 	N 	0.02001 0.73328 0.73894 -0.27000
N 	N 	0.96539 0.75471 0.79642 -0.12800
N 	N 	0.93126 0.99973 0.68155 -0.13900
N 	N 	0.98707 0.89282 0.64853 -0.26400
N 	N 	0.01354 0.94842 0.59554 -0.13000
Zn	Zn	0.21734 0.98223 0.87180 1.13500
C 	C 	0.30642 0.86951 0.52087 0.02700
H 	H 	0.28290 0.91300 0.49230 0.02500
C 	C 	0.36084 0.90144 0.58529 0.02700
H 	H 	0.38490 0.85790 0.61320 0.02600
C 	C 	0.42495 0.94920 0.54510 -0.14500
H 	H 	0.40270 0.99310 0.51740 0.06500
H 	H 	0.46000 0.96820 0.58630 0.05500
C 	C 	0.46860 0.89910 0.48440 -0.06800
H 	H 	0.50850 0.92930 0.45850 0.01800
H 	H 	0.49310 0.85680 0.51290 0.03500
C 	C 	0.41430 0.86740 0.42020 -0.06400
H 	H 	0.44290 0.83500 0.38300 0.01100
H 	H 	0.39250 0.90960 0.38940 0.03200
C 	C 	0.34973 0.82090 0.45880 -0.14500
H 	H 	0.37100 0.77580 0.48520 0.06300
H 	H 	0.31440 0.80360 0.41690 0.05200
C 	C 	0.25078 0.75640 0.60138 0.08300
H 	H 	0.29670 0.73020 0.60970 0.00100
C 	C 	0.16889 0.84180 0.56205 0.08900
H 	H 	0.14670 0.88530 0.53900 -0.02300
C 	C 	0.30977 0.92839 0.72517 0.09400
H 	H 	0.33120 0.88560 0.75040 -0.02000
C 	C 	0.27752 0.01302 0.63577 0.08800
H 	H 	0.27320 0.03940 0.58690 0.00000
C 	C 	0.94317 0.11254 0.77064 0.02200
H 	H 	0.97050 0.14140 0.72840 0.02500
C 	C 	0.89850 0.17000 0.82380 -0.13900
H 	H 	0.87180 0.14270 0.86670 0.06000
H 	H 	0.93400 0.20600 0.84870 0.04300
C 	C 	0.84060 0.21360 0.77160 -0.06700
H 	H 	0.81120 0.24820 0.80570 0.01400
H 	H 	0.86800 0.24430 0.73180 0.03200
C 	C 	0.07523 0.06167 0.80043 0.09100
H 	H 	0.10050 0.08710 0.75860 -0.02100
C 	C 	0.98800 0.02158 0.88286 0.07900
H 	H 	0.94070 0.01500 0.90830 0.00100
N 	N 	0.24437 0.82422 0.55935 -0.14000
N 	N 	0.18358 0.73339 0.62831 -0.12200
N 	N 	0.13166 0.78842 0.60196 -0.26400
N 	N 	0.31845 0.94657 0.64598 -0.14300
N 	N 	0.26672 0.97999 0.76106 -0.26900
N 	N 	0.24529 0.03461 0.70358 -0.12800
N 	N 	0.00027 0.06874 0.81845 -0.14000
N 	N 	0.10718 0.01293 0.85147 -0.26400
N 	N 	0.05158 0.98646 0.90446 -0.13000
Zn	Zn	0.28266 0.48223 0.37820 1.13600
C 	C 	0.19358 0.36951 0.72913 0.02700
H 	H 	0.21710 0.41300 0.75770 0.02500
C 	C 	0.13916 0.40144 0.66471 0.02700
H 	H 	0.11510 0.35790 0.63680 0.02600
C 	C 	0.07505 0.44920 0.70490 -0.14500
H 	H 	0.09730 0.49310 0.73260 0.06500
H 	H 	0.04000 0.46820 0.66370 0.05500
C 	C 	0.03140 0.39910 0.76560 -0.06800
H 	H 	0.99150 0.42930 0.79150 0.01700
H 	H 	0.00690 0.35680 0.73710 0.03500
C 	C 	0.08570 0.36740 0.82980 -0.06400
H 	H 	0.05710 0.33500 0.86700 0.01200
H 	H 	0.10750 0.40960 0.86060 0.03300
C 	C 	0.15027 0.32090 0.79120 -0.14500
H 	H 	0.12900 0.27580 0.76480 0.06300
H 	H 	0.18560 0.30360 0.83310 0.05200
C 	C 	0.24922 0.25640 0.64862 0.08300
H 	H 	0.20330 0.23020 0.64030 0.00200
C 	C 	0.33111 0.34180 0.68795 0.08900
H 	H 	0.35330 0.38530 0.71100 -0.02300
C 	C 	0.19023 0.42839 0.52483 0.09400
H 	H 	0.16880 0.38560 0.49960 -0.02000
C 	C 	0.22248 0.51302 0.61423 0.08600
H 	H 	0.22680 0.53940 0.66310 0.00000
C 	C 	0.55683 0.61254 0.47936 0.02400
H 	H 	0.52950 0.64140 0.52160 0.02500
C 	C 	0.60150 0.67000 0.42620 -0.13900
H 	H 	0.62820 0.64270 0.38330 0.06000
H 	H 	0.56600 0.70600 0.40130 0.04400
C 	C 	0.65940 0.71360 0.47840 -0.06700
H 	H 	0.68880 0.74820 0.44430 0.01400
H 	H 	0.63200 0.74430 0.51820 0.03200
C 	C 	0.42477 0.56167 0.44957 0.09000
H 	H 	0.39950 0.58710 0.49140 -0.02200
C 	C 	0.51200 0.52158 0.36714 0.08300
H 	H 	0.55930 0.51500 0.34170 -0.00000
N 	N 	0.25563 0.32422 0.69065 -0.14000
N 	N 	0.31642 0.23339 0.62169 -0.12100
N 	N 	0.36834 0.28842 0.64804 -0.26400
N 	N 	0.18155 0.44657 0.60402 -0.14200
N 	N 	0.23328 0.47999 0.48894 -0.26800
N 	N 	0.25471 0.53461 0.54642 -0.12800
N 	N 	0.49973 0.56874 0.43155 -0.14300
N 	N 	0.39282 0.51293 0.39853 -0.26700
N 	N 	0.44842 0.48646 0.34554 -0.12800
Zn	Zn	0.48223 0.28266 0.62180 1.13600
C 	C 	0.36951 0.19358 0.27087 0.02700
H 	H 	0.41300 0.21710 0.24230 0.02500
C 	C 	0.40144 0.13916 0.33529 0.02700
H 	H 	0.35790 0.11510 0.36320 0.02600
C 	C 	0.44920 0.07505 0.29510 -0.14500
H 	H 	0.49310 0.09730 0.26740 0.06500
H 	H 	0.46820 0.04000 0.33630 0.05500
C 	C 	0.39910 0.03140 0.23440 -0.06800
H 	H 	0.42930 0.99150 0.20850 0.01700
H 	H 	0.35680 0.00690 0.26290 0.03500
C 	C 	0.36740 0.08570 0.17020 -0.06400
H 	H 	0.33500 0.05710 0.13300 0.01200
H 	H 	0.40960 0.10750 0.13940 0.03300
C 	C 	0.32090 0.15027 0.20880 -0.14500
H 	H 	0.27580 0.12900 0.23520 0.06300
H 	H 	0.30360 0.18560 0.16690 0.05200
C 	C 	0.25640 0.24922 0.35138 0.08300
H 	H 	0.23020 0.20330 0.35970 0.00200
C 	C 	0.34180 0.33111 0.31205 0.08900
H 	H 	0.38530 0.35330 0.28900 -0.02300
C 	C 	0.42839 0.19023 0.47517 0.09400
H 	H 	0.38560 0.16880 0.50040 -0.02000
C 	C 	0.51302 0.22248 0.38577 0.08600
H 	H 	0.53940 0.22680 0.33690 0.00000
C 	C 	0.61254 0.55683 0.52064 0.02400
H 	H 	0.64140 0.52950 0.47840 0.02500
C 	C 	0.67000 0.60150 0.57380 -0.13900
H 	H 	0.64270 0.62820 0.61670 0.06000
H 	H 	0.70600 0.56600 0.59870 0.04400
C 	C 	0.71360 0.65940 0.52160 -0.06700
H 	H 	0.74820 0.68880 0.55570 0.01400
H 	H 	0.74430 0.63200 0.48180 0.03200
C 	C 	0.56167 0.42477 0.55043 0.09000
H 	H 	0.58710 0.39950 0.50860 -0.02200
C 	C 	0.52158 0.51200 0.63286 0.08300
H 	H 	0.51500 0.55930 0.65830 -0.00000
N 	N 	0.32422 0.25563 0.30935 -0.14000
N 	N 	0.23339 0.31642 0.37831 -0.12100
N 	N 	0.28842 0.36834 0.35196 -0.26400
N 	N 	0.44657 0.18155 0.39598 -0.14200
N 	N 	0.47999 0.23328 0.51106 -0.26800
N 	N 	0.53461 0.25471 0.45358 -0.12800
N 	N 	0.56874 0.49973 0.56845 -0.14300
N 	N 	0.51293 0.39282 0.60147 -0.26700
N 	N 	0.48646 0.44842 0.65446 -0.12800
Zn	Zn	0.71734 0.51777 0.87820 1.13600
C 	C 	0.80642 0.63049 0.22913 0.02700
H 	H 	0.78290 0.58700 0.25770 0.02500
C 	C 	0.86084 0.59856 0.16471 0.02700
H 	H 	0.88490 0.64210 0.13680 0.02600
C 	C 	0.92495 0.55080 0.20490 -0.14600
H 	H 	0.90270 0.50690 0.23260 0.06500
H 	H 	0.96000 0.53180 0.16370 0.05500
C 	C 	0.96860 0.60090 0.26560 -0.06600
H 	H 	0.00850 0.57070 0.29150 0.01600
H 	H 	0.99310 0.64320 0.23710 0.03500
C 	C 	0.91430 0.63260 0.32980 -0.06500
H 	H 	0.94290 0.66500 0.36700 0.01200
H 	H 	0.89250 0.59040 0.36060 0.03300
C 	C 	0.84973 0.67910 0.29120 -0.14400
H 	H 	0.87100 0.72420 0.26480 0.06300
H 	H 	0.81440 0.69640 0.33310 0.05200
C 	C 	0.75078 0.74360 0.14862 0.08300
H 	H 	0.79670 0.76980 0.14030 0.00200
C 	C 	0.66889 0.65820 0.18795 0.08900
H 	H 	0.64670 0.61470 0.21100 -0.02300
C 	C 	0.80977 0.57161 0.02483 0.09300
H 	H 	0.83120 0.61440 0.99960 -0.01900
C 	C 	0.77752 0.48698 0.11423 0.08600
H 	H 	0.77320 0.46060 0.16310 0.00000
C 	C 	0.44317 0.38746 0.97936 0.02400
H 	H 	0.47050 0.35860 0.02160 0.02500
C 	C 	0.39850 0.33000 0.92620 -0.13900
H 	H 	0.37180 0.35730 0.88330 0.06000
H 	H 	0.43400 0.29400 0.90130 0.04400
C 	C 	0.34060 0.28640 0.97840 -0.06700
H 	H 	0.31120 0.25180 0.94430 0.01400
H 	H 	0.36800 0.25570 0.01820 0.03200
C 	C 	0.57523 0.43833 0.94957 0.09000
H 	H 	0.60050 0.41290 0.99140 -0.02200
C 	C 	0.48800 0.47842 0.86714 0.08300
H 	H 	0.44070 0.48500 0.84170 -0.00000
N 	N 	0.74437 0.67578 0.19065 -0.14000
N 	N 	0.68358 0.76661 0.12169 -0.12100
N 	N 	0.63166 0.71158 0.14804 -0.26400
N 	N 	0.81845 0.55343 0.10402 -0.14200
N 	N 	0.76672 0.52001 0.98894 -0.26800
N 	N 	0.74529 0.46539 0.04642 -0.12900
N 	N 	0.50027 0.43126 0.93155 -0.14300
N 	N 	0.60718 0.48707 0.89853 -0.26700
N 	N 	0.55158 0.51354 0.84554 -0.12800
Zn	Zn	0.51777 0.71734 0.12180 1.13600
C 	C 	0.63049 0.80642 0.77087 0.02700
H 	H 	0.58700 0.78290 0.74230 0.02500
C 	C 	0.59856 0.86084 0.83529 0.02700
H 	H 	0.64210 0.88490 0.86320 0.02600
C 	C 	0.55080 0.92495 0.79510 -0.14600
H 	H 	0.50690 0.90270 0.76740 0.06500
H 	H 	0.53180 0.96000 0.83630 0.05500
C 	C 	0.60090 0.96860 0.73440 -0.06600
H 	H 	0.57070 0.00850 0.70850 0.01600
H 	H 	0.64320 0.99310 0.76290 0.03500
C 	C 	0.63260 0.91430 0.67020 -0.06500
H 	H 	0.66500 0.94290 0.63300 0.01200
H 	H 	0.59040 0.89250 0.63940 0.03300
C 	C 	0.67910 0.84973 0.70880 -0.14400
H 	H 	0.72420 0.87100 0.73520 0.06300
H 	H 	0.69640 0.81440 0.66690 0.05200
C 	C 	0.74360 0.75078 0.85138 0.08300
H 	H 	0.76980 0.79670 0.85970 0.00200
C 	C 	0.65820 0.66889 0.81205 0.08900
H 	H 	0.61470 0.64670 0.78900 -0.02300
C 	C 	0.57161 0.80977 0.97517 0.09300
H 	H 	0.61440 0.83120 0.00040 -0.01900
C 	C 	0.48698 0.77752 0.88577 0.08600
H 	H 	0.46060 0.77320 0.83690 0.00000
C 	C 	0.38746 0.44317 0.02064 0.02400
H 	H 	0.35860 0.47050 0.97840 0.02500
C 	C 	0.33000 0.39850 0.07380 -0.13900
H 	H 	0.35730 0.37180 0.11670 0.06000
H 	H 	0.29400 0.43400 0.09870 0.04400
C 	C 	0.28640 0.34060 0.02160 -0.06700
H 	H 	0.25180 0.31120 0.05570 0.01400
H 	H 	0.25570 0.36800 0.98180 0.03200
C 	C 	0.43833 0.57523 0.05043 0.09000
H 	H 	0.41290 0.60050 0.00860 -0.02200
C 	C 	0.47842 0.48800 0.13286 0.08300
H 	H 	0.48500 0.44070 0.15830 -0.00000
N 	N 	0.67578 0.74437 0.80935 -0.14000
N 	N 	0.76661 0.68358 0.87831 -0.12100
N 	N 	0.71158 0.63166 0.85196 -0.26400
N 	N 	0.55343 0.81845 0.89598 -0.14200
N 	N 	0.52001 0.76672 0.01106 -0.26800
N 	N 	0.46539 0.74529 0.95358 -0.12900
N 	N 	0.43126 0.50027 0.06845 -0.14300
N 	N 	0.48707 0.60718 0.10147 -0.26700
N 	N 	0.51354 0.55158 0.15446 -0.12800
