data_crystal

_cell_length_a 12.12500
_cell_length_b 15.10430
_cell_length_c 17.82040
_cell_angle_alpha 90.00000
_cell_angle_beta  94.49900
_cell_angle_gamma 90.00000

_symmetry_space_group_name_	'P 1'
_symmetry_space_group_name_H-M	'P 1'

loop_
_symmetry_equiv_pos_as_xyz
  x,y,z

loop_
_atom_site_label
_atom_site_type_symbol
_atom_site_fract_x
_atom_site_fract_y
_atom_site_fract_z
_atom_site_charge
O 	O 	0.55090 0.62720 0.61463 -0.37200
O 	O 	0.52230 0.75860 0.66122 -0.43100
N 	N 	0.16280 0.54350 0.69280 -0.27200
N 	N 	0.88140 0.63120 0.67458 -0.22500
N 	N 	0.33890 0.59120 0.70462 -0.24300
C 	C 	0.54290 0.70830 0.60690 0.33500
C 	C 	0.56200 0.74980 0.53250 -0.15500
C 	C 	0.52930 0.83630 0.51600 0.09100
H 	H 	0.49560 0.86950 0.55170 -0.01800
C 	C 	0.61160 0.70140 0.47830 0.08700
H 	H 	0.63200 0.64290 0.48810 0.01100
C 	C 	0.23800 0.59320 0.73180 0.07500
C 	C 	0.21860 0.50750 0.63670 -0.00900
H 	H 	0.18880 0.46930 0.59960 -0.00300
C 	C 	0.32470 0.53670 0.64400 -0.01800
H 	H 	0.37930 0.52180 0.61240 0.02700
C 	C 	0.78720 0.64050 0.70150 -0.06900
H 	H 	0.73460 0.67810 0.67790 0.04400
C 	C 	0.90020 0.67490 0.60590 0.27400
C 	C 	0.54670 0.87380 0.44660 -0.19600
H 	H 	0.52290 0.93120 0.43550 0.06400
C 	C 	0.63110 0.73900 0.40960 -0.18700
H 	H 	0.66540 0.70600 0.37390 0.09200
O 	O 	0.44910 0.62720 0.88537 -0.37500
O 	O 	0.47770 0.75860 0.83878 -0.42900
N 	N 	0.83720 0.54350 0.80720 -0.22400
N 	N 	0.11860 0.63120 0.82542 -0.22000
N 	N 	0.66110 0.59120 0.79538 -0.23900
C 	C 	0.45710 0.70830 0.89310 0.33900
C 	C 	0.43800 0.74980 0.96750 -0.15400
C 	C 	0.47070 0.83630 0.98400 0.08100
H 	H 	0.50440 0.86950 0.94830 -0.00900
C 	C 	0.38840 0.70140 0.02170 0.09400
H 	H 	0.36800 0.64290 0.01190 0.01000
C 	C 	0.76200 0.59320 0.76820 0.09000
C 	C 	0.78140 0.50750 0.86330 0.01500
H 	H 	0.81120 0.46930 0.90040 0.02600
C 	C 	0.67530 0.53670 0.85600 -0.01300
H 	H 	0.62070 0.52180 0.88760 0.02900
C 	C 	0.21280 0.64050 0.79850 -0.10300
H 	H 	0.26540 0.67810 0.82210 0.05300
C 	C 	0.09980 0.67490 0.89410 0.00700
C 	C 	0.45330 0.87380 0.05340 -0.18100
H 	H 	0.47710 0.93120 0.06450 0.05900
C 	C 	0.36890 0.73900 0.09040 -0.18100
H 	H 	0.33460 0.70600 0.12610 0.08600
O 	O 	0.94910 0.87280 0.38537 -0.34200
O 	O 	0.97770 0.74140 0.33878 -0.38100
N 	N 	0.33720 0.95650 0.30720 -0.25400
N 	N 	0.61860 0.86880 0.32542 -0.22600
N 	N 	0.16110 0.90880 0.29538 -0.25800
C 	C 	0.95710 0.79170 0.39310 0.40400
C 	C 	0.93800 0.75020 0.46750 -0.31300
C 	C 	0.97070 0.66370 0.48400 0.48400
H 	H 	0.00440 0.63050 0.44830 -0.24400
C 	C 	0.88840 0.79860 0.52170 0.23300
H 	H 	0.86800 0.85710 0.51190 -0.02700
C 	C 	0.26200 0.90680 0.26820 0.07600
C 	C 	0.28140 0.99250 0.36330 -0.00300
H 	H 	0.31120 0.03070 0.40040 0.01000
C 	C 	0.17530 0.96330 0.35600 -0.02400
H 	H 	0.12070 0.97820 0.38760 0.00100
C 	C 	0.71280 0.85950 0.29850 -0.08100
H 	H 	0.76540 0.82190 0.32210 0.05300
C 	C 	0.59980 0.82510 0.39410 0.14100
C 	C 	0.95330 0.62620 0.55340 -0.41500
H 	H 	0.97710 0.56880 0.56450 0.18000
C 	C 	0.86890 0.76100 0.59040 -0.30400
H 	H 	0.83460 0.79400 0.62610 0.14000
O 	O 	0.05090 0.87280 0.11463 -0.39300
O 	O 	0.02230 0.74140 0.16122 -0.46400
N 	N 	0.66280 0.95650 0.19280 -0.25200
N 	N 	0.38140 0.86880 0.17458 -0.22600
N 	N 	0.83890 0.90880 0.20462 -0.21400
C 	C 	0.04290 0.79170 0.10690 0.26800
C 	C 	0.06200 0.75020 0.03250 0.01300
C 	C 	0.02930 0.66370 0.01600 -0.29100
H 	H 	0.99560 0.63050 0.05170 0.21300
C 	C 	0.11160 0.79860 0.97830 -0.06800
H 	H 	0.13200 0.85710 0.98810 0.05000
C 	C 	0.73800 0.90680 0.23180 0.08900
C 	C 	0.71860 0.99250 0.13670 0.00900
H 	H 	0.68880 0.03070 0.09960 0.01500
C 	C 	0.82470 0.96330 0.14400 -0.00600
H 	H 	0.87930 0.97820 0.11240 0.05800
C 	C 	0.28720 0.85950 0.20150 -0.09300
H 	H 	0.23460 0.82190 0.17790 0.04700
C 	C 	0.40020 0.82510 0.10590 0.13500
C 	C 	0.04670 0.62620 0.94660 0.01700
H 	H 	0.02290 0.56880 0.93550 -0.04900
C 	C 	0.13110 0.76100 0.90960 -0.06200
H 	H 	0.16540 0.79400 0.87390 0.03600
Cd	Cd	0.50000 0.65004 0.75000 1.20800
Cd	Cd	0.00000 0.84996 0.25000 1.17000
Cd	Cd	0.00000 0.53313 0.75000 1.12000
Cd	Cd	0.50000 0.96687 0.25000 1.15800
O 	O 	0.05090 0.12720 0.61463 -0.39500
O 	O 	0.02230 0.25860 0.66122 -0.46400
N 	N 	0.66280 0.04350 0.69280 -0.25200
N 	N 	0.38140 0.13120 0.67458 -0.22600
N 	N 	0.83890 0.09120 0.70462 -0.21400
C 	C 	0.04290 0.20830 0.60690 0.26800
C 	C 	0.06200 0.24980 0.53250 0.01100
C 	C 	0.02930 0.33630 0.51600 -0.30600
H 	H 	0.99560 0.36950 0.55170 0.21900
C 	C 	0.11160 0.20140 0.47830 -0.06100
H 	H 	0.13200 0.14290 0.48810 0.05000
C 	C 	0.73800 0.09320 0.73180 0.08800
C 	C 	0.71860 0.00750 0.63670 0.01100
H 	H 	0.68880 0.96930 0.59960 0.01300
C 	C 	0.82470 0.03670 0.64400 -0.00700
H 	H 	0.87930 0.02180 0.61240 0.05800
C 	C 	0.28720 0.14050 0.70150 -0.09300
H 	H 	0.23460 0.17810 0.67790 0.04700
C 	C 	0.40020 0.17490 0.60590 0.13600
C 	C 	0.04670 0.37380 0.44660 0.03100
H 	H 	0.02290 0.43120 0.43550 -0.05200
C 	C 	0.13110 0.23900 0.40960 -0.06200
H 	H 	0.16540 0.20600 0.37390 0.03600
O 	O 	0.94910 0.12720 0.88537 -0.34400
O 	O 	0.97770 0.25860 0.83878 -0.38200
N 	N 	0.33720 0.04350 0.80720 -0.25400
N 	N 	0.61860 0.13120 0.82542 -0.22600
N 	N 	0.16110 0.09120 0.79538 -0.25900
C 	C 	0.95710 0.20830 0.89310 0.40400
C 	C 	0.93800 0.24980 0.96750 -0.31700
C 	C 	0.97070 0.33630 0.98400 0.47300
H 	H 	0.00440 0.36950 0.94830 -0.24100
C 	C 	0.88840 0.20140 0.02170 0.24000
H 	H 	0.86800 0.14290 0.01190 -0.02700
C 	C 	0.26200 0.09320 0.76820 0.07500
C 	C 	0.28140 0.00750 0.86330 -0.00400
H 	H 	0.31120 0.96930 0.90040 0.00900
C 	C 	0.17530 0.03670 0.85600 -0.02400
H 	H 	0.12070 0.02180 0.88760 0.00000
C 	C 	0.71280 0.14050 0.79850 -0.08100
H 	H 	0.76540 0.17810 0.82210 0.05300
C 	C 	0.59980 0.17490 0.89410 0.14300
C 	C 	0.95330 0.37380 0.05340 -0.40400
H 	H 	0.97710 0.43120 0.06450 0.17700
C 	C 	0.86890 0.23900 0.09040 -0.30500
H 	H 	0.83460 0.20600 0.12610 0.14100
O 	O 	0.44910 0.37280 0.38537 -0.37300
O 	O 	0.47770 0.24140 0.33878 -0.42800
N 	N 	0.83720 0.45650 0.30720 -0.22400
N 	N 	0.11860 0.36880 0.32542 -0.21900
N 	N 	0.66110 0.40880 0.29538 -0.23900
C 	C 	0.45710 0.29170 0.39310 0.33800
C 	C 	0.43800 0.25020 0.46750 -0.14900
C 	C 	0.47070 0.16370 0.48400 0.08900
H 	H 	0.50440 0.13050 0.44830 -0.01100
C 	C 	0.38840 0.29860 0.52170 0.08600
H 	H 	0.36800 0.35710 0.51190 0.01100
C 	C 	0.76200 0.40680 0.26820 0.09000
C 	C 	0.78140 0.49250 0.36330 0.01600
H 	H 	0.81120 0.53070 0.40040 0.02700
C 	C 	0.67530 0.46330 0.35600 -0.01300
H 	H 	0.62070 0.47820 0.38760 0.03000
C 	C 	0.21280 0.35950 0.29850 -0.10300
H 	H 	0.26540 0.32190 0.32210 0.05300
C 	C 	0.09980 0.32510 0.39410 0.00400
C 	C 	0.45330 0.12620 0.55340 -0.19100
H 	H 	0.47710 0.06880 0.56450 0.06100
C 	C 	0.36890 0.26100 0.59040 -0.18000
H 	H 	0.33460 0.29400 0.62610 0.08500
O 	O 	0.55090 0.37280 0.11463 -0.37100
O 	O 	0.52230 0.24140 0.16122 -0.43100
N 	N 	0.16280 0.45650 0.19280 -0.27200
N 	N 	0.88140 0.36880 0.17458 -0.22500
N 	N 	0.33890 0.40880 0.20462 -0.24300
C 	C 	0.54290 0.29170 0.10690 0.33400
C 	C 	0.56200 0.25020 0.03250 -0.15000
C 	C 	0.52930 0.16370 0.01600 0.09900
H 	H 	0.49560 0.13050 0.05170 -0.01900
C 	C 	0.61160 0.29860 0.97830 0.07800
H 	H 	0.63200 0.35710 0.98810 0.01200
C 	C 	0.23800 0.40680 0.23180 0.07500
C 	C 	0.21860 0.49250 0.13670 -0.00800
H 	H 	0.18880 0.53070 0.09960 -0.00200
C 	C 	0.32470 0.46330 0.14400 -0.01800
H 	H 	0.37930 0.47820 0.11240 0.02800
C 	C 	0.78720 0.35950 0.20150 -0.06900
H 	H 	0.73460 0.32190 0.17790 0.04400
C 	C 	0.90020 0.32510 0.10590 0.27200
C 	C 	0.54670 0.12620 0.94660 -0.20600
H 	H 	0.52290 0.06880 0.93550 0.06600
C 	C 	0.63110 0.26100 0.90960 -0.18500
H 	H 	0.66540 0.29400 0.87390 0.09100
Cd	Cd	0.00000 0.15004 0.75000 1.17000
Cd	Cd	0.50000 0.34996 0.25000 1.20800
Cd	Cd	0.50000 0.03313 0.75000 1.15800
Cd	Cd	0.00000 0.46687 0.25000 1.12000
