data_crystal

_cell_length_a 11.25750
_cell_length_b 11.57310
_cell_length_c 12.69630
_cell_angle_alpha 68.00600
_cell_angle_beta  84.60100
_cell_angle_gamma 89.67700

_symmetry_space_group_name_	'P 1'
_symmetry_space_group_name_H-M	'P 1'

loop_
_symmetry_equiv_pos_as_xyz
  x,y,z

loop_
_atom_site_label
_atom_site_type_symbol
_atom_site_fract_x
_atom_site_fract_y
_atom_site_fract_z
_atom_site_charge
La	La	0.40289 0.39943 0.39726 1.58500
S 	S 	0.07842 0.12736 0.14907 0.25200
O 	O 	0.32090 0.31900 0.60450 -0.42000
O 	O 	0.43860 0.43360 0.66520 -0.43000
O 	O 	0.96520 0.07990 0.13300 -0.20600
O 	O 	0.07750 0.21710 0.20330 -0.20700
O 	O 	0.31780 0.57640 0.43810 -0.43700
O 	O 	0.42440 0.70340 0.49510 -0.41100
O 	O 	0.54980 0.34820 0.24550 -0.23100
O 	O 	0.36310 0.30850 0.23570 -0.26200
O 	O 	0.50020 0.25900 0.13010 -0.11800
N 	N 	0.47190 0.30600 0.20100 0.04700
C 	C 	0.35440 0.35500 0.67920 0.38800
C 	C 	0.28900 0.29830 0.79860 -0.11300
C 	C 	0.31150 0.34090 0.88470 0.03800
H 	H 	0.36880 0.40420 0.86970 0.03600
C 	C 	0.24840 0.28890 0.99350 -0.08000
H 	H 	0.26300 0.31680 0.05100 0.09100
C 	C 	0.16290 0.19370 0.01300 0.01800
C 	C 	0.14120 0.14800 0.92890 -0.08500
H 	H 	0.08550 0.08340 0.94440 0.08300
C 	C 	0.20440 0.20060 0.82210 0.03400
H 	H 	0.19070 0.17110 0.76530 0.03700
C 	C 	0.34760 0.68170 0.43840 0.39000
C 	C 	0.28190 0.79390 0.36380 -0.12700
C 	C 	0.32420 0.91440 0.34060 0.05000
H 	H 	0.39340 0.92650 0.37030 0.02500
C 	C 	0.26400 0.01770 0.27310 -0.10300
H 	H 	0.29250 0.09830 0.25720 0.09100
C 	C 	0.16010 0.99680 0.23020 0.02600
C 	C 	0.11690 0.87630 0.25090 -0.09500
H 	H 	0.04830 0.86410 0.22040 0.07600
C 	C 	0.17870 0.77550 0.31770 0.04200
H 	H 	0.15120 0.69490 0.33210 0.01600
La	La	0.59711 0.60057 0.60274 1.58500
S 	S 	0.92158 0.87264 0.85093 0.25200
O 	O 	0.67910 0.68100 0.39550 -0.42000
O 	O 	0.56140 0.56640 0.33480 -0.43000
O 	O 	0.03480 0.92010 0.86700 -0.20600
O 	O 	0.92250 0.78290 0.79670 -0.20700
O 	O 	0.68220 0.42360 0.56190 -0.43700
O 	O 	0.57560 0.29660 0.50490 -0.41100
O 	O 	0.45020 0.65180 0.75450 -0.23100
O 	O 	0.63690 0.69150 0.76430 -0.26200
O 	O 	0.49980 0.74100 0.86990 -0.11800
N 	N 	0.52810 0.69400 0.79900 0.04700
C 	C 	0.64560 0.64500 0.32080 0.38800
C 	C 	0.71100 0.70170 0.20140 -0.11300
C 	C 	0.68850 0.65910 0.11530 0.03800
H 	H 	0.63120 0.59580 0.13030 0.03600
C 	C 	0.75160 0.71110 0.00650 -0.08000
H 	H 	0.73700 0.68320 0.94900 0.09100
C 	C 	0.83710 0.80630 0.98700 0.01800
C 	C 	0.85880 0.85200 0.07110 -0.08500
H 	H 	0.91450 0.91660 0.05560 0.08300
C 	C 	0.79560 0.79940 0.17790 0.03400
H 	H 	0.80930 0.82890 0.23470 0.03700
C 	C 	0.65240 0.31830 0.56160 0.39000
C 	C 	0.71810 0.20610 0.63620 -0.12700
C 	C 	0.67580 0.08560 0.65940 0.05000
H 	H 	0.60660 0.07350 0.62970 0.02500
C 	C 	0.73600 0.98230 0.72690 -0.10300
H 	H 	0.70750 0.90170 0.74280 0.09100
C 	C 	0.83990 0.00320 0.76980 0.02600
C 	C 	0.88310 0.12370 0.74910 -0.09500
H 	H 	0.95170 0.13590 0.77960 0.07600
C 	C 	0.82130 0.22450 0.68230 0.04200
H 	H 	0.84880 0.30510 0.66790 0.01600
