data_crystal

_cell_length_a 9.49310
_cell_length_b 12.55070
_cell_length_c 13.41500
_cell_angle_alpha 90.00000
_cell_angle_beta  95.56870
_cell_angle_gamma 90.00000

_symmetry_space_group_name_	'P 1'
_symmetry_space_group_name_H-M	'P 1'

loop_
_symmetry_equiv_pos_as_xyz
  x,y,z

loop_
_atom_site_label
_atom_site_type_symbol
_atom_site_fract_x
_atom_site_fract_y
_atom_site_fract_z
_atom_site_charge
N 	N 	0.78375 0.47031 0.36139 -0.27000
N 	N 	0.86558 0.59335 0.46752 -0.15100
N 	N 	0.90789 0.78129 0.46653 -0.09800
N 	N 	0.77036 0.81305 0.45482 -0.05500
N 	N 	0.76300 0.90449 0.41020 -0.09100
C 	C 	0.70440 0.47086 0.44264 -0.02100
H 	H 	0.62880 0.42570 0.45080 -0.01300
C 	C 	0.75320 0.54639 0.50777 -0.00100
H 	H 	0.71800 0.56360 0.56810 0.00600
C 	C 	0.94710 0.68143 0.51464 0.03600
H 	H 	0.93080 0.68540 0.58480 -0.00200
H 	H 	0.04710 0.66860 0.51080 -0.00100
C 	C 	0.99181 0.85525 0.42708 0.06000
C 	C 	0.89720 0.93433 0.39137 0.06100
C 	C 	0.94680 0.02642 0.34689 -0.07900
H 	H 	0.88540 0.08050 0.32330 0.03200
C 	C 	0.08840 0.03323 0.33981 -0.02800
H 	H 	0.12440 0.09350 0.31090 0.02600
C 	C 	0.18160 0.95206 0.37480 -0.02500
H 	H 	0.27750 0.95970 0.36740 0.02900
C 	C 	0.13670 0.86181 0.41954 -0.09900
H 	H 	0.19890 0.80840 0.44330 0.03900
C 	C 	0.88080 0.54587 0.37787 0.23600
C 	C 	0.98875 0.57654 0.30981 -0.51200
H 	H 	0.01280 0.51410 0.27230 0.14200
H 	H 	0.07380 0.59930 0.35010 0.17000
C 	C 	0.94230 0.66546 0.23566 0.48200
H 	H 	0.85980 0.64200 0.19300 -0.11100
H 	H 	0.91530 0.72750 0.27260 -0.10100
C 	C 	0.05720 0.69660 0.17101 -0.96400
H 	H 	0.02250 0.75140 0.12500 0.31600
H 	H 	0.08430 0.63560 0.13420 0.29700
H 	H 	0.13770 0.72270 0.21270 0.29500
N 	N 	0.71625 0.47031 0.13861 -0.27000
N 	N 	0.63442 0.59335 0.03248 -0.14900
N 	N 	0.59211 0.78129 0.03347 -0.09700
N 	N 	0.72964 0.81305 0.04518 -0.05500
N 	N 	0.73700 0.90449 0.08980 -0.09000
C 	C 	0.79560 0.47086 0.05736 -0.02000
H 	H 	0.87120 0.42570 0.04920 -0.01300
C 	C 	0.74680 0.54639 0.99223 -0.00300
H 	H 	0.78200 0.56360 0.93190 0.00600
C 	C 	0.55290 0.68143 0.98536 0.03400
H 	H 	0.56920 0.68540 0.91520 -0.00200
H 	H 	0.45290 0.66860 0.98920 -0.00000
C 	C 	0.50819 0.85525 0.07292 0.06000
C 	C 	0.60280 0.93433 0.10863 0.06100
C 	C 	0.55320 0.02642 0.15311 -0.07800
H 	H 	0.61460 0.08050 0.17670 0.03100
C 	C 	0.41160 0.03323 0.16019 -0.03000
H 	H 	0.37560 0.09350 0.18910 0.02700
C 	C 	0.31840 0.95206 0.12520 -0.02300
H 	H 	0.22250 0.95970 0.13260 0.02800
C 	C 	0.36330 0.86181 0.08046 -0.09900
H 	H 	0.30110 0.80840 0.05670 0.03900
C 	C 	0.61920 0.54587 0.12213 0.23600
C 	C 	0.51125 0.57654 0.19019 -0.51400
H 	H 	0.48720 0.51410 0.22770 0.14300
H 	H 	0.42620 0.59930 0.14990 0.17100
C 	C 	0.55770 0.66546 0.26434 0.48100
H 	H 	0.64020 0.64200 0.30700 -0.11100
H 	H 	0.58470 0.72750 0.22740 -0.10100
C 	C 	0.44280 0.69660 0.32899 -0.96300
H 	H 	0.47750 0.75140 0.37500 0.31600
H 	H 	0.41570 0.63560 0.36580 0.29700
H 	H 	0.36230 0.72270 0.28730 0.29400
Cu	Cu	0.75000 0.36415 0.25000 0.78800
N 	N 	0.21625 0.52969 0.63861 -0.26900
N 	N 	0.13442 0.40665 0.53248 -0.15000
N 	N 	0.09211 0.21871 0.53347 -0.09800
N 	N 	0.22964 0.18695 0.54518 -0.05500
N 	N 	0.23700 0.09551 0.58980 -0.09100
C 	C 	0.29560 0.52914 0.55736 -0.02100
H 	H 	0.37120 0.57430 0.54920 -0.01300
C 	C 	0.24680 0.45361 0.49223 -0.00100
H 	H 	0.28200 0.43640 0.43190 0.00600
C 	C 	0.05290 0.31857 0.48536 0.03600
H 	H 	0.06920 0.31460 0.41520 -0.00200
H 	H 	0.95290 0.33140 0.48920 -0.00100
C 	C 	0.00819 0.14475 0.57292 0.06000
C 	C 	0.10280 0.06567 0.60863 0.06100
C 	C 	0.05320 0.97358 0.65311 -0.07900
H 	H 	0.11460 0.91950 0.67670 0.03200
C 	C 	0.91160 0.96677 0.66019 -0.02800
H 	H 	0.87560 0.90650 0.68910 0.02600
C 	C 	0.81840 0.04794 0.62520 -0.02500
H 	H 	0.72250 0.04030 0.63260 0.02900
C 	C 	0.86330 0.13819 0.58046 -0.09900
H 	H 	0.80110 0.19160 0.55670 0.03900
C 	C 	0.11920 0.45413 0.62213 0.23600
C 	C 	0.01125 0.42346 0.69019 -0.51200
H 	H 	0.98720 0.48590 0.72770 0.14200
H 	H 	0.92620 0.40070 0.64990 0.17000
C 	C 	0.05770 0.33454 0.76434 0.48200
H 	H 	0.14020 0.35800 0.80700 -0.11100
H 	H 	0.08470 0.27250 0.72740 -0.10100
C 	C 	0.94280 0.30340 0.82899 -0.96400
H 	H 	0.97750 0.24860 0.87500 0.31600
H 	H 	0.91570 0.36440 0.86580 0.29700
H 	H 	0.86230 0.27730 0.78730 0.29500
N 	N 	0.28375 0.52969 0.86139 -0.27000
N 	N 	0.36558 0.40665 0.96752 -0.14900
N 	N 	0.40789 0.21871 0.96653 -0.09700
N 	N 	0.27036 0.18695 0.95482 -0.05500
N 	N 	0.26300 0.09551 0.91020 -0.09000
C 	C 	0.20440 0.52914 0.94264 -0.02000
H 	H 	0.12880 0.57430 0.95080 -0.01300
C 	C 	0.25320 0.45361 0.00777 -0.00300
H 	H 	0.21800 0.43640 0.06810 0.00600
C 	C 	0.44710 0.31857 0.01464 0.03400
H 	H 	0.43080 0.31460 0.08480 -0.00200
H 	H 	0.54710 0.33140 0.01080 -0.00000
C 	C 	0.49181 0.14475 0.92708 0.06000
C 	C 	0.39720 0.06567 0.89137 0.06100
C 	C 	0.44680 0.97358 0.84689 -0.07800
H 	H 	0.38540 0.91950 0.82330 0.03100
C 	C 	0.58840 0.96677 0.83981 -0.03000
H 	H 	0.62440 0.90650 0.81090 0.02700
C 	C 	0.68160 0.04794 0.87480 -0.02300
H 	H 	0.77750 0.04030 0.86740 0.02800
C 	C 	0.63670 0.13819 0.91954 -0.09900
H 	H 	0.69890 0.19160 0.94330 0.03900
C 	C 	0.38080 0.45413 0.87787 0.23600
C 	C 	0.48875 0.42346 0.80981 -0.51400
H 	H 	0.51280 0.48590 0.77230 0.14300
H 	H 	0.57380 0.40070 0.85010 0.17100
C 	C 	0.44230 0.33454 0.73566 0.48100
H 	H 	0.35980 0.35800 0.69300 -0.11100
H 	H 	0.41530 0.27250 0.77260 -0.10100
C 	C 	0.55720 0.30340 0.67101 -0.96300
H 	H 	0.52250 0.24860 0.62500 0.31600
H 	H 	0.58430 0.36440 0.63420 0.29700
H 	H 	0.63770 0.27730 0.71270 0.29400
Cu	Cu	0.25000 0.63585 0.75000 0.78800
