data_crystal

_cell_length_a 9.61990
_cell_length_b 14.71720
_cell_length_c 18.39740
_cell_angle_alpha 90.00000
_cell_angle_beta  90.00000
_cell_angle_gamma 90.00000

_symmetry_space_group_name_	'P 1'
_symmetry_space_group_name_H-M	'P 1'

loop_
_symmetry_equiv_pos_as_xyz
  x,y,z

loop_
_atom_site_label
_atom_site_type_symbol
_atom_site_fract_x
_atom_site_fract_y
_atom_site_fract_z
_atom_site_charge
N 	N 	0.98890 0.42770 0.16640 -0.26900
C 	C 	0.87740 0.46140 0.13290 0.10200
H 	H 	0.79260 0.43210 0.13920 -0.01100
C 	C 	0.88160 0.53650 0.09000 -0.15700
H 	H 	0.80100 0.55690 0.06740 0.08700
C 	C 	0.00720 0.58330 0.07980 0.10100
C 	C 	0.12070 0.54470 0.11070 -0.16300
H 	H 	0.20780 0.57060 0.10340 0.09100
C 	C 	0.10890 0.46840 0.15220 0.09900
H 	H 	0.18950 0.44340 0.17170 -0.00300
C 	C 	0.01260 0.66860 0.03760 -0.01500
C 	C 	0.12590 0.70980 0.01840 -0.05100
H 	H 	0.21070 0.68350 0.03030 0.04500
C 	C 	0.89730 0.70810 0.01650 -0.04800
H 	H 	0.81310 0.67860 0.02420 0.04600
N 	N 	0.98890 0.07230 0.83360 -0.26900
C 	C 	0.87740 0.03860 0.86710 0.09600
H 	H 	0.79260 0.06790 0.86080 -0.00900
C 	C 	0.88160 0.96350 0.91000 -0.15000
H 	H 	0.80100 0.94310 0.93260 0.08500
C 	C 	0.00720 0.91670 0.92020 0.10000
C 	C 	0.12070 0.95530 0.88930 -0.16900
H 	H 	0.20780 0.92940 0.89660 0.09300
C 	C 	0.10890 0.03160 0.84780 0.10700
H 	H 	0.18950 0.05660 0.82830 -0.00600
C 	C 	0.01260 0.83140 0.96240 -0.02100
C 	C 	0.12590 0.79020 0.98160 -0.04400
H 	H 	0.21070 0.81650 0.96970 0.04300
C 	C 	0.89730 0.79190 0.98350 -0.04100
H 	H 	0.81310 0.82140 0.97580 0.04300
N 	N 	0.98890 0.42770 0.33360 -0.26800
C 	C 	0.87740 0.46140 0.36710 0.10300
H 	H 	0.79260 0.43210 0.36080 -0.01100
C 	C 	0.88160 0.53650 0.41000 -0.15800
H 	H 	0.80100 0.55690 0.43260 0.08700
C 	C 	0.00720 0.58330 0.42020 0.10100
C 	C 	0.12070 0.54470 0.38930 -0.16300
H 	H 	0.20780 0.57060 0.39660 0.09100
C 	C 	0.10890 0.46840 0.34780 0.09900
H 	H 	0.18950 0.44340 0.32830 -0.00400
C 	C 	0.01260 0.66860 0.46240 -0.01600
C 	C 	0.12590 0.70980 0.48160 -0.05000
H 	H 	0.21070 0.68350 0.46970 0.04500
C 	C 	0.89730 0.70810 0.48350 -0.04800
H 	H 	0.81310 0.67860 0.47580 0.04500
N 	N 	0.98890 0.07230 0.66640 -0.26900
C 	C 	0.87740 0.03860 0.63290 0.09600
H 	H 	0.79260 0.06790 0.63920 -0.00900
C 	C 	0.88160 0.96350 0.59000 -0.15000
H 	H 	0.80100 0.94310 0.56740 0.08500
C 	C 	0.00720 0.91670 0.57980 0.10000
C 	C 	0.12070 0.95530 0.61070 -0.16900
H 	H 	0.20780 0.92940 0.60340 0.09300
C 	C 	0.10890 0.03160 0.65220 0.10700
H 	H 	0.18950 0.05660 0.67170 -0.00600
C 	C 	0.01260 0.83140 0.53760 -0.02000
C 	C 	0.12590 0.79020 0.51840 -0.04500
H 	H 	0.21070 0.81650 0.53030 0.04400
C 	C 	0.89730 0.79190 0.51650 -0.04200
H 	H 	0.81310 0.82140 0.52420 0.04400
Zn	Zn	0.98163 0.33414 0.25000 1.21100
O 	O 	0.82210 0.25650 0.25000 -0.46500
O 	O 	0.67050 0.36900 0.25000 -0.33300
O 	O 	0.16980 0.29140 0.25000 -0.46300
O 	O 	0.10020 0.14990 0.25000 -0.29700
O 	O 	0.55600 0.97260 0.25000 -0.34800
H 	H 	0.47400 0.93540 0.25000 0.20500
C 	C 	0.69840 0.28740 0.25000 0.32100
C 	C 	0.58550 0.21780 0.25000 -0.00400
C 	C 	0.61880 0.12590 0.25000 -0.18000
H 	H 	0.71160 0.10820 0.25000 0.12100
C 	C 	0.51660 0.06120 0.25000 0.24800
C 	C 	0.37600 0.08740 0.25000 -0.17900
H 	H 	0.30650 0.04340 0.25000 0.11200
C 	C 	0.34080 0.17960 0.25000 -0.00200
C 	C 	0.44690 0.24440 0.25000 -0.06200
H 	H 	0.42460 0.30590 0.25000 0.08200
C 	C 	0.19190 0.20710 0.25000 0.32000
Zn	Zn	0.98163 0.16586 0.75000 1.21100
O 	O 	0.82210 0.24350 0.75000 -0.46500
O 	O 	0.67050 0.13100 0.75000 -0.33300
O 	O 	0.16980 0.20860 0.75000 -0.46300
O 	O 	0.10020 0.35010 0.75000 -0.29800
O 	O 	0.55600 0.52740 0.75000 -0.34800
H 	H 	0.47400 0.56460 0.75000 0.20600
C 	C 	0.69840 0.21260 0.75000 0.32100
C 	C 	0.58550 0.28220 0.75000 -0.00400
C 	C 	0.61880 0.37410 0.75000 -0.18000
H 	H 	0.71160 0.39180 0.75000 0.12200
C 	C 	0.51660 0.43880 0.75000 0.24900
C 	C 	0.37600 0.41260 0.75000 -0.17900
H 	H 	0.30650 0.45660 0.75000 0.11100
C 	C 	0.34080 0.32040 0.75000 -0.00200
C 	C 	0.44690 0.25560 0.75000 -0.06200
H 	H 	0.42460 0.19410 0.75000 0.08200
C 	C 	0.19190 0.29290 0.75000 0.32000
N 	N 	0.01110 0.57230 0.66640 -0.26800
C 	C 	0.12260 0.53860 0.63290 0.10300
H 	H 	0.20740 0.56790 0.63920 -0.01100
C 	C 	0.11840 0.46350 0.59000 -0.15800
H 	H 	0.19900 0.44310 0.56740 0.08700
C 	C 	0.99280 0.41670 0.57980 0.10100
C 	C 	0.87930 0.45530 0.61070 -0.16300
H 	H 	0.79220 0.42940 0.60340 0.09100
C 	C 	0.89110 0.53160 0.65220 0.09900
H 	H 	0.81050 0.55660 0.67170 -0.00400
C 	C 	0.98740 0.33140 0.53760 -0.01600
C 	C 	0.87410 0.29020 0.51840 -0.05000
H 	H 	0.78930 0.31650 0.53030 0.04500
C 	C 	0.10270 0.29190 0.51650 -0.04800
H 	H 	0.18690 0.32140 0.52420 0.04500
N 	N 	0.01110 0.92770 0.33360 -0.26900
C 	C 	0.12260 0.96140 0.36710 0.09600
H 	H 	0.20740 0.93210 0.36080 -0.00900
C 	C 	0.11840 0.03650 0.41000 -0.15000
H 	H 	0.19900 0.05690 0.43260 0.08500
C 	C 	0.99280 0.08330 0.42020 0.10000
C 	C 	0.87930 0.04470 0.38930 -0.16900
H 	H 	0.79220 0.07060 0.39660 0.09300
C 	C 	0.89110 0.96840 0.34780 0.10700
H 	H 	0.81050 0.94340 0.32830 -0.00600
C 	C 	0.98740 0.16860 0.46240 -0.02000
C 	C 	0.87410 0.20980 0.48160 -0.04500
H 	H 	0.78930 0.18350 0.46970 0.04400
C 	C 	0.10270 0.20810 0.48350 -0.04200
H 	H 	0.18690 0.17860 0.47580 0.04400
N 	N 	0.01110 0.57230 0.83360 -0.26800
C 	C 	0.12260 0.53860 0.86710 0.10300
H 	H 	0.20740 0.56790 0.86080 -0.01100
C 	C 	0.11840 0.46350 0.91000 -0.15700
H 	H 	0.19900 0.44310 0.93260 0.08700
C 	C 	0.99280 0.41670 0.92020 0.10100
C 	C 	0.87930 0.45530 0.88930 -0.16300
H 	H 	0.79220 0.42940 0.89660 0.09100
C 	C 	0.89110 0.53160 0.84780 0.09900
H 	H 	0.81050 0.55660 0.82830 -0.00300
C 	C 	0.98740 0.33140 0.96240 -0.01500
C 	C 	0.87410 0.29020 0.98160 -0.05100
H 	H 	0.78930 0.31650 0.96970 0.04500
C 	C 	0.10270 0.29190 0.98350 -0.04800
H 	H 	0.18690 0.32140 0.97580 0.04600
N 	N 	0.01110 0.92770 0.16640 -0.26900
C 	C 	0.12260 0.96140 0.13290 0.09600
H 	H 	0.20740 0.93210 0.13920 -0.00900
C 	C 	0.11840 0.03650 0.09000 -0.15000
H 	H 	0.19900 0.05690 0.06740 0.08500
C 	C 	0.99280 0.08330 0.07980 0.10000
C 	C 	0.87930 0.04470 0.11070 -0.16900
H 	H 	0.79220 0.07060 0.10340 0.09300
C 	C 	0.89110 0.96840 0.15220 0.10700
H 	H 	0.81050 0.94340 0.17170 -0.00600
C 	C 	0.98740 0.16860 0.03760 -0.02100
C 	C 	0.87410 0.20980 0.01840 -0.04400
H 	H 	0.78930 0.18350 0.03030 0.04300
C 	C 	0.10270 0.20810 0.01650 -0.04100
H 	H 	0.18690 0.17860 0.02420 0.04300
Zn	Zn	0.01837 0.66586 0.75000 1.21100
O 	O 	0.17790 0.74350 0.75000 -0.46500
O 	O 	0.32950 0.63100 0.75000 -0.33300
O 	O 	0.83020 0.70860 0.75000 -0.46300
O 	O 	0.89980 0.85010 0.75000 -0.29700
O 	O 	0.44400 0.02740 0.75000 -0.34800
H 	H 	0.52600 0.06460 0.75000 0.20500
C 	C 	0.30160 0.71260 0.75000 0.32100
C 	C 	0.41450 0.78220 0.75000 -0.00400
C 	C 	0.38120 0.87410 0.75000 -0.18000
H 	H 	0.28840 0.89180 0.75000 0.12100
C 	C 	0.48340 0.93880 0.75000 0.24800
C 	C 	0.62400 0.91260 0.75000 -0.17900
H 	H 	0.69350 0.95660 0.75000 0.11200
C 	C 	0.65920 0.82040 0.75000 -0.00200
C 	C 	0.55310 0.75560 0.75000 -0.06200
H 	H 	0.57540 0.69410 0.75000 0.08200
C 	C 	0.80810 0.79290 0.75000 0.32000
Zn	Zn	0.01837 0.83414 0.25000 1.21100
O 	O 	0.17790 0.75650 0.25000 -0.46500
O 	O 	0.32950 0.86900 0.25000 -0.33300
O 	O 	0.83020 0.79140 0.25000 -0.46300
O 	O 	0.89980 0.64990 0.25000 -0.29800
O 	O 	0.44400 0.47260 0.25000 -0.34800
H 	H 	0.52600 0.43540 0.25000 0.20600
C 	C 	0.30160 0.78740 0.25000 0.32100
C 	C 	0.41450 0.71780 0.25000 -0.00400
C 	C 	0.38120 0.62590 0.25000 -0.18000
H 	H 	0.28840 0.60820 0.25000 0.12200
C 	C 	0.48340 0.56120 0.25000 0.24900
C 	C 	0.62400 0.58740 0.25000 -0.17900
H 	H 	0.69350 0.54340 0.25000 0.11100
C 	C 	0.65920 0.67960 0.25000 -0.00200
C 	C 	0.55310 0.74440 0.25000 -0.06200
H 	H 	0.57540 0.80590 0.25000 0.08200
C 	C 	0.80810 0.70710 0.25000 0.32000
