data_crystal

_cell_length_a 8.31100
_cell_length_b 21.67400
_cell_length_c 13.50100
_cell_angle_alpha 90.00000
_cell_angle_beta  103.32300
_cell_angle_gamma 90.00000

_symmetry_space_group_name_	'P 1'
_symmetry_space_group_name_H-M	'P 1'

loop_
_symmetry_equiv_pos_as_xyz
  x,y,z

loop_
_atom_site_label
_atom_site_type_symbol
_atom_site_fract_x
_atom_site_fract_y
_atom_site_fract_z
_atom_site_charge
N 	N 	0.85750 0.04740 0.60190 -0.23000
N 	N 	0.77880 0.11500 0.70390 -0.13400
N 	N 	0.73920 0.33010 0.92720 -0.12100
N 	N 	0.64430 0.41290 0.98950 -0.21400
N 	N 	0.80350 0.02980 0.35790 -0.22700
N 	N 	0.63950 0.03080 0.20430 -0.13100
C 	C 	0.87380 0.10360 0.63750 0.10100
H 	H 	0.94370 0.13280 0.61900 -0.00800
C 	C 	0.74220 0.01970 0.64850 -0.08800
H 	H 	0.70570 0.97910 0.63860 0.07500
C 	C 	0.69200 0.06070 0.71000 0.04000
H 	H 	0.61470 0.05400 0.74890 0.01500
C 	C 	0.76820 0.17070 0.75830 0.04800
C 	C 	0.90600 0.20610 0.79380 0.02300
H 	H 	0.00730 0.19400 0.78210 0.00400
C 	C 	0.89520 0.25920 0.84650 -0.13300
H 	H 	0.98810 0.28380 0.86900 0.09500
C 	C 	0.74470 0.27610 0.86610 0.12500
C 	C 	0.60560 0.24200 0.82920 -0.11100
H 	H 	0.50420 0.25420 0.84070 0.07300
C 	C 	0.61830 0.18920 0.77460 -0.03700
H 	H 	0.52430 0.16580 0.74840 0.04500
C 	C 	0.61150 0.36910 0.92150 0.10900
H 	H 	0.51110 0.36530 0.87430 -0.01700
C 	C 	0.86280 0.35060 0.00550 -0.03300
H 	H 	0.96710 0.33330 0.02840 0.03800
C 	C 	0.80260 0.40100 0.04260 -0.04000
H 	H 	0.86060 0.42450 0.09680 0.02900
C 	C 	0.77440 0.00600 0.26520 0.02400
H 	H 	0.83940 0.97580 0.24490 0.03600
C 	C 	0.68440 0.07350 0.35420 0.00100
H 	H 	0.67530 0.09890 0.40820 0.01500
C 	C 	0.58220 0.07450 0.26140 -0.00600
H 	H 	0.49050 0.09990 0.24000 0.02700
C 	C 	0.56910 0.01460 0.09950 0.07800
C 	C 	0.48210 0.05860 0.03580 -0.14900
H 	H 	0.46910 0.09800 0.06000 0.07100
C 	C 	0.58630 0.95640 0.06530 -0.11800
H 	H 	0.64360 0.92680 0.10950 0.07100
N 	N 	0.64250 0.54740 0.89810 -0.23300
N 	N 	0.72120 0.61500 0.79610 -0.13800
N 	N 	0.76080 0.83010 0.57280 -0.13700
N 	N 	0.85570 0.91290 0.51050 -0.23200
N 	N 	0.69650 0.52980 0.14210 -0.23800
N 	N 	0.86050 0.53080 0.29570 -0.15700
C 	C 	0.62620 0.60360 0.86250 0.10400
H 	H 	0.55630 0.63280 0.88100 -0.00900
C 	C 	0.75780 0.51970 0.85150 -0.00100
H 	H 	0.79430 0.47910 0.86140 0.03200
C 	C 	0.80800 0.56070 0.79000 0.00300
H 	H 	0.88530 0.55400 0.75110 0.04300
C 	C 	0.73180 0.67070 0.74170 0.09500
C 	C 	0.59400 0.70610 0.70620 -0.08000
H 	H 	0.49270 0.69400 0.71790 0.05900
C 	C 	0.60480 0.75920 0.65350 -0.07100
H 	H 	0.51190 0.78380 0.63100 0.05500
C 	C 	0.75530 0.77610 0.63390 0.08800
C 	C 	0.89440 0.74200 0.67080 -0.07200
H 	H 	0.99580 0.75420 0.65930 0.06600
C 	C 	0.88170 0.68920 0.72540 -0.07600
H 	H 	0.97570 0.66580 0.75160 0.06900
C 	C 	0.88850 0.86910 0.57850 0.10200
H 	H 	0.98890 0.86530 0.62570 -0.00500
C 	C 	0.63720 0.85060 0.49450 0.00200
H 	H 	0.53290 0.83330 0.47160 0.03100
C 	C 	0.69740 0.90100 0.45740 -0.00300
H 	H 	0.63940 0.92450 0.40320 0.02500
C 	C 	0.72560 0.50600 0.23480 0.09800
H 	H 	0.66060 0.47580 0.25510 -0.01600
C 	C 	0.81560 0.57350 0.14580 -0.03100
H 	H 	0.82470 0.59890 0.09180 0.02000
C 	C 	0.91780 0.57450 0.23860 0.06300
H 	H 	0.00950 0.59990 0.26000 -0.00900
C 	C 	0.93090 0.51460 0.40050 0.17000
C 	C 	0.01790 0.55860 0.46420 -0.17800
H 	H 	0.03090 0.59800 0.44000 0.08800
C 	C 	0.91370 0.45640 0.43470 -0.15600
H 	H 	0.85640 0.42680 0.39050 0.08900
N 	N 	0.14250 0.95260 0.39810 -0.25300
N 	N 	0.22120 0.88500 0.29610 -0.14200
N 	N 	0.26080 0.66990 0.07280 -0.15500
N 	N 	0.35570 0.58710 0.01050 -0.27400
N 	N 	0.19650 0.97020 0.64210 -0.24500
N 	N 	0.36050 0.96920 0.79570 -0.14400
C 	C 	0.12620 0.89640 0.36250 0.09500
H 	H 	0.05630 0.86720 0.38100 -0.02600
C 	C 	0.25780 0.98030 0.35150 0.07700
H 	H 	0.29430 0.02090 0.36140 -0.03300
C 	C 	0.30800 0.93930 0.29000 -0.04300
H 	H 	0.38530 0.94600 0.25110 0.05500
C 	C 	0.23180 0.82930 0.24170 0.12500
C 	C 	0.09400 0.79390 0.20620 -0.17400
H 	H 	0.99270 0.80600 0.21790 0.10700
C 	C 	0.10480 0.74080 0.15350 -0.02000
H 	H 	0.01190 0.71620 0.13100 0.02100
C 	C 	0.25530 0.72390 0.13390 0.04700
C 	C 	0.39440 0.75800 0.17080 -0.04600
H 	H 	0.49580 0.74580 0.15930 0.04400
C 	C 	0.38170 0.81080 0.22540 -0.11500
H 	H 	0.47570 0.83420 0.25160 0.07100
C 	C 	0.38850 0.63090 0.07850 0.08800
H 	H 	0.48890 0.63470 0.12570 -0.01500
C 	C 	0.13720 0.64940 0.99450 0.03100
H 	H 	0.03290 0.66670 0.97160 0.02700
C 	C 	0.19740 0.59900 0.95740 0.03300
H 	H 	0.13940 0.57550 0.90320 0.00500
C 	C 	0.22560 0.99400 0.73480 0.16600
H 	H 	0.16060 0.02420 0.75510 -0.06500
C 	C 	0.31560 0.92650 0.64580 0.00200
H 	H 	0.32470 0.90110 0.59180 0.01400
C 	C 	0.41780 0.92550 0.73860 0.00000
H 	H 	0.50950 0.90010 0.76000 0.03700
C 	C 	0.43090 0.98540 0.90050 0.09600
C 	C 	0.51790 0.94140 0.96420 -0.00200
H 	H 	0.53090 0.90200 0.94000 0.05000
C 	C 	0.41370 0.04360 0.93470 -0.03900
H 	H 	0.35640 0.07320 0.89050 0.04600
N 	N 	0.35750 0.45260 0.10190 -0.25200
N 	N 	0.27880 0.38500 0.20390 -0.14000
N 	N 	0.23920 0.16990 0.42720 -0.13900
N 	N 	0.14430 0.08710 0.48950 -0.25500
N 	N 	0.30350 0.47020 0.85790 -0.23400
N 	N 	0.13950 0.46920 0.70430 -0.11600
C 	C 	0.37380 0.39640 0.13750 0.09100
H 	H 	0.44370 0.36720 0.11900 -0.02600
C 	C 	0.24220 0.48030 0.14850 -0.01400
H 	H 	0.20570 0.52090 0.13860 0.01300
C 	C 	0.19200 0.43930 0.21000 -0.00500
H 	H 	0.11470 0.44600 0.24890 0.02700
C 	C 	0.26820 0.32930 0.25830 0.08200
C 	C 	0.40600 0.29390 0.29380 -0.08100
H 	H 	0.50730 0.30600 0.28210 0.05800
C 	C 	0.39520 0.24080 0.34650 -0.07600
H 	H 	0.48810 0.21620 0.36900 0.05700
C 	C 	0.24470 0.22390 0.36610 0.08100
C 	C 	0.10560 0.25800 0.32920 -0.08100
H 	H 	0.00420 0.24580 0.34070 0.04900
C 	C 	0.11830 0.31080 0.27460 -0.08100
H 	H 	0.02430 0.33420 0.24840 0.04800
C 	C 	0.11150 0.13090 0.42150 0.09500
H 	H 	0.01110 0.13470 0.37430 -0.02700
C 	C 	0.36280 0.14940 0.50550 -0.00400
H 	H 	0.46710 0.16670 0.52840 0.03300
C 	C 	0.30260 0.09900 0.54260 -0.00400
H 	H 	0.36060 0.07550 0.59680 0.00900
C 	C 	0.27440 0.49400 0.76520 0.08800
H 	H 	0.33940 0.52420 0.74490 -0.01000
C 	C 	0.18440 0.42650 0.85420 0.03500
H 	H 	0.17530 0.40110 0.90820 0.00800
C 	C 	0.08220 0.42550 0.76140 -0.07200
H 	H 	0.99050 0.40010 0.74000 0.07500
C 	C 	0.06910 0.48540 0.59950 0.00200
C 	C 	0.98210 0.44140 0.53580 0.02700
H 	H 	0.96910 0.40200 0.56000 0.03300
C 	C 	0.08630 0.54360 0.56530 -0.00100
H 	H 	0.14360 0.57320 0.60950 0.02800
Mn	Mn	0.00000 0.00000 0.50000 1.21000
Mn	Mn	0.50000 0.50000 -0.00000 1.21700
