data_crystal

_cell_length_a 11.47950
_cell_length_b 8.88620
_cell_length_c 15.96480
_cell_angle_alpha 90.00000
_cell_angle_beta  93.70800
_cell_angle_gamma 90.00000

_symmetry_space_group_name_	'P 1'
_symmetry_space_group_name_H-M	'P 1'

loop_
_symmetry_equiv_pos_as_xyz
  x,y,z

loop_
_atom_site_label
_atom_site_type_symbol
_atom_site_fract_x
_atom_site_fract_y
_atom_site_fract_z
_atom_site_charge
Cu	Cu	0.68652 0.92786 0.48295 0.89500
Cu	Cu	0.23343 0.42829 0.61303 0.89300
O 	O 	0.38849 0.37554 0.58238 -0.40300
O 	O 	0.42189 0.02702 0.41827 -0.29300
C 	C 	0.32500 0.85650 0.50597 -0.11300
C 	C 	0.21650 0.92710 0.50294 0.03700
H 	H 	0.20620 0.02280 0.47700 0.03300
C 	C 	0.63900 0.50290 0.36034 -0.15800
H 	H 	0.57270 0.44570 0.34080 0.09300
C 	C 	0.66770 0.19640 0.29840 -0.20700
O 	O 	0.95054 0.68344 0.62020 -0.22000
N 	N 	0.24578 0.64470 0.57510 -0.20800
C 	C 	0.43180 0.92700 0.47112 0.34500
C 	C 	0.74950 0.44720 0.35145 0.10600
C 	C 	0.87660 0.11730 0.49660 0.27600
C 	C 	0.84220 0.53700 0.38292 -0.15400
H 	H 	0.92020 0.50340 0.37890 0.09600
C 	C 	0.33550 0.71370 0.54279 0.07500
H 	H 	0.40910 0.66450 0.54480 0.02300
O 	O 	0.07982 0.49933 0.64467 -0.37300
O 	O 	0.84433 0.99326 0.46197 -0.36900
C 	C 	0.62380 0.64160 0.39767 0.08900
H 	H 	0.54640 0.67680 0.40280 0.00400
O 	O 	0.48801 0.51170 0.68124 -0.28900
C 	C 	0.82120 0.67470 0.41998 0.08500
H 	H 	0.88580 0.73310 0.44120 0.01900
O 	O 	0.52721 0.87281 0.50433 -0.40500
C 	C 	0.78060 0.20770 0.53354 -0.01300
N 	N 	0.71273 0.72880 0.42697 -0.22300
N 	N 	0.21449 0.22860 0.67325 -0.22700
N 	N 	0.67417 0.14380 0.52204 -0.20700
O 	O 	0.97704 0.16621 0.50135 -0.24300
C 	C 	0.14212 0.71590 0.57388 -0.00700
C 	C 	0.12360 0.85660 0.53810 -0.07600
H 	H 	0.04920 0.90360 0.53770 0.07600
C 	C 	0.79700 0.34430 0.57409 -0.06500
H 	H 	0.87260 0.38780 0.58090 0.08200
C 	C 	0.30110 0.12730 0.68077 0.09100
H 	H 	0.37270 0.15080 0.65700 0.00300
C 	C 	0.58190 0.21610 0.54906 0.07200
H 	H 	0.50680 0.17260 0.53880 0.02500
C 	C 	0.04850 0.62830 0.61513 0.23700
C 	C 	0.59130 0.35180 0.59135 -0.10700
C 	C 	0.70160 0.41710 0.60466 0.02700
H 	H 	0.71120 0.50960 0.63410 0.04000
C 	C 	0.09790 0.05680 0.74684 -0.19500
H 	H 	0.02500 0.03500 0.76910 0.09200
C 	C 	0.29220 0.99070 0.72118 -0.16800
H 	H 	0.35670 0.92350 0.72550 0.09600
C 	C 	0.11360 0.19180 0.70628 0.09900
H 	H 	0.05060 0.26130 0.70150 0.00100
C 	C 	0.68800 0.04740 0.25539 0.14500
C 	C 	0.77350 0.30010 0.30867 -0.10200
C 	C 	0.48190 0.42130 0.62193 0.33300
H 	H 	0.64200 0.17200 0.35220 0.08700
H 	H 	0.80800 0.32400 0.25030 0.05100
H 	H 	0.84400 0.25100 0.34080 0.06800
H 	H 	0.60700 0.25200 0.26410 0.10000
Cu	Cu	0.18652 0.07214 0.98295 0.86100
Cu	Cu	0.73343 0.57171 0.11303 0.90000
O 	O 	0.88849 0.62446 0.08238 -0.39100
O 	O 	0.92189 0.97298 0.91827 -0.26100
C 	C 	0.82500 0.14350 0.00597 -0.06300
C 	C 	0.71650 0.07290 0.00294 0.14400
H 	H 	0.70620 0.97720 0.97700 -0.04400
C 	C 	0.13900 0.49710 0.86034 -0.16500
H 	H 	0.07270 0.55430 0.84080 0.08300
C 	C 	0.16770 0.80360 0.79840 -0.19600
O 	O 	0.45054 0.31656 0.12020 -0.23600
N 	N 	0.74578 0.35530 0.07510 -0.20500
C 	C 	0.93180 0.07300 0.97112 0.22400
C 	C 	0.24950 0.55280 0.85145 0.09800
C 	C 	0.37660 0.88270 0.99660 0.12200
C 	C 	0.34220 0.46300 0.88292 -0.16200
H 	H 	0.42020 0.49660 0.87890 0.08100
C 	C 	0.83550 0.28630 0.04279 0.06700
H 	H 	0.90910 0.33550 0.04480 0.04300
O 	O 	0.57982 0.50067 0.14467 -0.37000
O 	O 	0.34433 0.00674 0.96197 -0.36700
C 	C 	0.12380 0.35840 0.89767 0.07900
H 	H 	0.04640 0.32320 0.90280 -0.01700
O 	O 	0.98801 0.48830 0.18124 -0.28400
C 	C 	0.32120 0.32530 0.91998 0.07600
H 	H 	0.38580 0.26690 0.94120 -0.00300
O 	O 	0.02721 0.12719 0.00433 -0.33400
C 	C 	0.28060 0.79230 0.03354 0.09200
N 	N 	0.21273 0.27120 0.92697 -0.23500
N 	N 	0.71449 0.77140 0.17325 -0.22600
N 	N 	0.17417 0.85620 0.02204 -0.20500
O 	O 	0.47704 0.83379 0.00135 -0.15900
C 	C 	0.64212 0.28410 0.07388 0.01600
C 	C 	0.62360 0.14340 0.03810 -0.11900
H 	H 	0.54920 0.09640 0.03770 0.11800
C 	C 	0.29700 0.65570 0.07409 -0.12100
H 	H 	0.37260 0.61220 0.08090 0.10600
C 	C 	0.80110 0.87270 0.18077 0.10800
H 	H 	0.87270 0.84920 0.15700 0.00800
C 	C 	0.08190 0.78390 0.04906 0.09800
H 	H 	0.00680 0.82740 0.03880 0.02400
C 	C 	0.54850 0.37170 0.11513 0.26800
C 	C 	0.09130 0.64820 0.09135 -0.14400
C 	C 	0.20160 0.58290 0.10466 0.07700
H 	H 	0.21120 0.49040 0.13410 0.02600
C 	C 	0.59790 0.94320 0.24684 -0.19100
H 	H 	0.52500 0.96500 0.26910 0.10500
C 	C 	0.79220 0.00930 0.22118 -0.18300
H 	H 	0.85670 0.07650 0.22550 0.10500
C 	C 	0.61360 0.80820 0.20628 0.10400
H 	H 	0.55060 0.73870 0.20150 0.00800
C 	C 	0.18800 0.95260 0.75539 0.14000
C 	C 	0.27350 0.69990 0.80867 -0.10600
C 	C 	0.98190 0.57870 0.12193 0.36300
H 	H 	0.14200 0.82800 0.85220 0.07100
H 	H 	0.30800 0.67600 0.75030 0.05100
H 	H 	0.34400 0.74900 0.84080 0.06000
H 	H 	0.10700 0.74800 0.76410 0.09200
