data_crystal

_cell_length_a 10.50720
_cell_length_b 13.27280
_cell_length_c 14.66210
_cell_angle_alpha 107.10100
_cell_angle_beta  93.72300
_cell_angle_gamma 102.07000

_symmetry_space_group_name_	'P 1'
_symmetry_space_group_name_H-M	'P 1'

loop_
_symmetry_equiv_pos_as_xyz
  x,y,z

loop_
_atom_site_label
_atom_site_type_symbol
_atom_site_fract_x
_atom_site_fract_y
_atom_site_fract_z
_atom_site_charge
Tb	Tb	0.81170 0.24381 0.48337 1.84000
Tb	Tb	0.19220 0.25477 0.51499 1.84100
Tb	Tb	0.54365 0.20281 0.86561 2.01600
Tb	Tb	0.45770 0.29740 0.13496 2.03700
O 	O 	0.84700 0.31320 0.66950 -0.42500
O 	O 	0.98320 0.18800 0.40780 -0.57400
O 	O 	0.01900 0.31260 0.59370 -0.58600
O 	O 	0.15300 0.18550 0.32820 -0.42400
O 	O 	0.22200 0.23330 0.05330 -0.39300
O 	O 	0.77900 0.26500 0.94530 -0.38800
O 	O 	0.62340 0.27410 0.03860 -0.60500
O 	O 	0.82100 0.10090 0.54510 -0.32800
O 	O 	0.38800 0.24230 0.77060 -0.52200
O 	O 	0.23300 0.19750 0.64420 -0.51300
O 	O 	0.77000 0.29650 0.35290 -0.53300
O 	O 	0.61700 0.25700 0.22880 -0.54600
O 	O 	0.29500 0.41100 0.63960 -0.51500
O 	O 	0.16000 0.06210 0.45620 -0.30900
O 	O 	0.84100 0.43500 0.54250 -0.31700
O 	O 	0.40000 0.53750 0.77790 -0.53500
O 	O 	0.05100 0.39000 0.19590 -0.23300
O 	O 	0.60100 0.96300 0.22180 -0.52200
O 	O 	0.89100 0.07200 0.07580 -0.21900
O 	O 	0.95100 0.11220 0.80330 -0.23700
O 	O 	0.70900 0.08030 0.35600 -0.47200
O 	O 	0.37800 0.22800 0.96140 -0.59900
O 	O 	0.11200 0.42890 0.92520 -0.26700
C 	C 	0.30300 0.46400 0.72870 0.51700
C 	C 	0.16200 0.17200 0.78200 -0.15800
C 	C 	0.84100 0.32800 0.21400 -0.15500
C 	C 	0.74500 0.28600 0.02800 0.41900
C 	C 	0.25300 0.21600 0.97000 0.41100
C 	C 	0.15400 0.18000 0.88500 -0.10800
C 	C 	0.73200 0.29000 0.26700 0.51200
C 	C 	0.05600 0.38300 0.76400 -0.09300
C 	C 	0.84800 0.31800 0.11300 -0.09800
C 	C 	0.03200 0.16300 0.32600 0.39800
C 	C 	0.96900 0.33200 0.67000 0.42600
C 	C 	0.94400 0.11500 0.23400 -0.10200
C 	C 	0.02300 0.14300 0.89100 0.17500
C 	C 	0.19900 0.43200 0.78900 -0.24100
C 	C 	0.96600 0.36900 0.25900 0.16300
C 	C 	0.97700 0.35600 0.10600 0.17400
C 	C 	0.80600 0.06800 0.21200 -0.16000
C 	C 	0.22100 0.45700 0.88700 0.41400
C 	C 	0.77800 0.04300 0.11700 0.13700
C 	C 	0.03500 0.12800 0.73900 0.16500
O 	O 	0.38900 0.11300 0.11100 -0.65300
C 	C 	0.01100 0.38400 0.85000 0.16400
C 	C 	0.99100 0.11400 0.15000 0.15900
O 	O 	0.61500 0.38800 0.88200 -0.63200
O 	O 	0.38700 0.44100 0.10200 -0.62700
C 	C 	0.26900 0.20600 0.73100 0.48800
C 	C 	0.69900 0.03900 0.26400 0.46800
C 	C 	0.59400 0.46800 0.88400 0.72300
C 	C 	0.40700 0.03400 0.11600 0.66600
O 	O 	0.61500 0.05800 0.89800 -0.61600
O 	O 	0.70000 0.49000 0.05000 -0.30000
O 	O 	0.17700 0.39840 0.45450 -0.33300
O 	O 	0.83300 0.50700 0.50470 0.02200
O 	O 	0.20700 0.00600 0.49000 0.00700
Tb	Tb	0.18830 0.75619 0.51663 1.83900
Tb	Tb	0.80780 0.74523 0.48501 1.84000
Tb	Tb	0.45635 0.79719 0.13439 2.01500
Tb	Tb	0.54230 0.70260 0.86504 2.03600
O 	O 	0.15300 0.68680 0.33050 -0.42600
O 	O 	0.01680 0.81200 0.59220 -0.57500
O 	O 	0.98100 0.68740 0.40630 -0.58700
O 	O 	0.84700 0.81450 0.67180 -0.42500
O 	O 	0.77800 0.76670 0.94670 -0.39300
O 	O 	0.22100 0.73500 0.05470 -0.38800
O 	O 	0.37660 0.72590 0.96140 -0.60500
O 	O 	0.17900 0.89910 0.45490 -0.32800
O 	O 	0.61200 0.75770 0.22940 -0.52200
O 	O 	0.76700 0.80250 0.35580 -0.51300
O 	O 	0.23000 0.70350 0.64710 -0.53300
O 	O 	0.38300 0.74300 0.77120 -0.54600
O 	O 	0.70500 0.58900 0.36040 -0.51500
O 	O 	0.84000 0.93790 0.54380 -0.30900
O 	O 	0.15900 0.56500 0.45750 -0.31700
O 	O 	0.60000 0.46250 0.22210 -0.53500
O 	O 	0.94900 0.61000 0.80410 -0.23300
O 	O 	0.39900 0.03700 0.77820 -0.52200
O 	O 	0.10900 0.92800 0.92420 -0.21900
O 	O 	0.04900 0.88780 0.19670 -0.23700
O 	O 	0.29100 0.91970 0.64400 -0.47200
O 	O 	0.62200 0.77200 0.03860 -0.59900
O 	O 	0.88800 0.57110 0.07480 -0.26700
C 	C 	0.69700 0.53600 0.27130 0.51700
C 	C 	0.83800 0.82800 0.21800 -0.15800
C 	C 	0.15900 0.67200 0.78600 -0.15500
C 	C 	0.25500 0.71400 0.97200 0.41900
C 	C 	0.74700 0.78400 0.03000 0.41100
C 	C 	0.84600 0.82000 0.11500 -0.10800
C 	C 	0.26800 0.71000 0.73300 0.51200
C 	C 	0.94400 0.61700 0.23600 -0.09300
C 	C 	0.15200 0.68200 0.88700 -0.09800
C 	C 	0.96800 0.83700 0.67400 0.39800
C 	C 	0.03100 0.66800 0.33000 0.42600
C 	C 	0.05600 0.88500 0.76600 -0.10200
C 	C 	0.97700 0.85700 0.10900 0.17500
C 	C 	0.80100 0.56800 0.21100 -0.24100
C 	C 	0.03400 0.63100 0.74100 0.16300
C 	C 	0.02300 0.64400 0.89400 0.17400
C 	C 	0.19400 0.93200 0.78800 -0.16000
C 	C 	0.77900 0.54300 0.11300 0.41400
C 	C 	0.22200 0.95700 0.88300 0.13700
C 	C 	0.96500 0.87200 0.26100 0.16500
O 	O 	0.61100 0.88700 0.88900 -0.65300
C 	C 	0.98900 0.61600 0.15000 0.16400
C 	C 	0.00900 0.88600 0.85000 0.15900
O 	O 	0.38500 0.61200 0.11800 -0.63200
O 	O 	0.61300 0.55900 0.89800 -0.62700
C 	C 	0.73100 0.79400 0.26900 0.48800
C 	C 	0.30100 0.96100 0.73600 0.46800
C 	C 	0.40600 0.53200 0.11600 0.72300
C 	C 	0.59300 0.96600 0.88400 0.66600
O 	O 	0.38500 0.94200 0.10200 -0.61600
O 	O 	0.30000 0.51000 0.95000 -0.30000
O 	O 	0.82300 0.60160 0.54550 -0.33300
O 	O 	0.16700 0.49300 0.49530 0.02200
O 	O 	0.79300 0.99400 0.51000 0.00700
