data_crystal

_cell_length_a 7.49900
_cell_length_b 10.90550
_cell_length_c 11.45380
_cell_angle_alpha 111.76100
_cell_angle_beta  99.50600
_cell_angle_gamma 100.49900

_symmetry_space_group_name_	'P 1'
_symmetry_space_group_name_H-M	'P 1'

loop_
_symmetry_equiv_pos_as_xyz
  x,y,z

loop_
_atom_site_label
_atom_site_type_symbol
_atom_site_fract_x
_atom_site_fract_y
_atom_site_fract_z
_atom_site_charge
Tb	Tb	0.66327 0.75690 0.66504 1.44000
N 	N 	0.11320 0.37340 0.83610 -0.10100
N 	N 	0.04460 0.33560 0.70900 -0.06100
N 	N 	0.08600 0.44140 0.68230 -0.07800
N 	N 	0.18190 0.55230 0.79080 -0.12000
O 	O 	0.49380 0.64710 0.45880 -0.53400
O 	O 	0.41160 0.43960 0.29890 -0.52000
O 	O 	0.47490 0.05600 0.35740 -0.39000
O 	O 	0.28770 0.00880 0.16960 -0.42900
C 	C 	0.43990 0.56650 0.34100 0.50100
C 	C 	0.40320 0.62680 0.24380 -0.18700
C 	C 	0.43310 0.76830 0.28670 0.09700
H 	H 	0.48700 0.81800 0.36800 0.00500
C 	C 	0.38140 0.82260 0.19830 -0.13300
C 	C 	0.38540 0.97080 0.24460 0.31900
C 	C 	0.30820 0.73670 0.06750 0.04000
H 	H 	0.27000 0.77100 0.00600 0.01500
C 	C 	0.28260 0.59550 0.02260 -0.08100
C 	C 	0.32980 0.54160 0.11270 0.07400
H 	H 	0.30800 0.45200 0.08500 0.00900
C 	C 	0.19540 0.50740 0.88510 0.13300
Tb	Tb	0.33673 0.24310 0.33496 1.44100
N 	N 	0.88680 0.62660 0.16390 -0.10000
N 	N 	0.95540 0.66440 0.29100 -0.06100
N 	N 	0.91400 0.55860 0.31770 -0.07800
N 	N 	0.81810 0.44770 0.20920 -0.12000
O 	O 	0.50620 0.35290 0.54120 -0.53400
O 	O 	0.58840 0.56040 0.70110 -0.52000
O 	O 	0.52510 0.94400 0.64260 -0.39000
O 	O 	0.71230 0.99120 0.83040 -0.42900
C 	C 	0.56010 0.43350 0.65900 0.50100
C 	C 	0.59680 0.37320 0.75620 -0.18700
C 	C 	0.56690 0.23170 0.71330 0.09700
H 	H 	0.51300 0.18200 0.63200 0.00500
C 	C 	0.61860 0.17740 0.80170 -0.13300
C 	C 	0.61460 0.02920 0.75540 0.31900
C 	C 	0.69180 0.26330 0.93250 0.04000
H 	H 	0.73000 0.22900 0.99400 0.01500
C 	C 	0.71740 0.40450 0.97740 -0.08100
C 	C 	0.67020 0.45840 0.88730 0.07400
H 	H 	0.69200 0.54800 0.91500 0.00900
C 	C 	0.80460 0.49260 0.11490 0.13300
