data_crystal

_cell_length_a 9.58370
_cell_length_b 12.64300
_cell_length_c 13.92940
_cell_angle_alpha 90.00000
_cell_angle_beta  110.09300
_cell_angle_gamma 90.00000

_symmetry_space_group_name_	'P 1'
_symmetry_space_group_name_H-M	'P 1'

loop_
_symmetry_equiv_pos_as_xyz
  x,y,z

loop_
_atom_site_label
_atom_site_type_symbol
_atom_site_fract_x
_atom_site_fract_y
_atom_site_fract_z
_atom_site_charge
C 	C 	0.69610 0.89905 0.87428 0.39100
C 	C 	0.83700 0.94520 0.86749 0.08800
C 	C 	0.84960 0.05530 0.87222 -0.09300
H 	H 	0.76870 0.09720 0.87480 0.06900
C 	C 	0.98000 0.10360 0.87320 -0.16600
C 	C 	0.10020 0.04250 0.87096 -0.03600
H 	H 	0.18940 0.07550 0.87140 -0.01400
C 	C 	0.08820 0.93279 0.86816 0.19800
C 	C 	0.95590 0.88379 0.86552 -0.14800
H 	H 	0.94770 0.80890 0.86240 0.32600
C 	C 	0.21670 0.86944 0.86290 0.28700
C 	C 	0.51510 0.77298 0.07500 0.41400
C 	C 	0.51070 0.70944 0.16579 -0.18600
C 	C 	0.51290 0.59974 0.16643 -0.01300
H 	H 	0.52320 0.56220 0.11020 0.07800
Co	Co	0.43542 0.77487 0.84285 1.19200
O 	O 	0.63745 0.81584 0.82347 -0.46100
O 	O 	0.64470 0.94597 0.93251 -0.40700
O 	O 	0.20358 0.77299 0.84136 -0.20100
O 	O 	0.34002 0.91555 0.87522 -0.47000
O 	O 	0.47130 0.12925 0.91151 -0.49000
O 	O 	0.50150 0.72376 0.99333 -0.39300
O 	O 	0.44860 0.62014 0.81104 -0.40400
C 	C 	0.00160 0.21930 0.88820 -0.18400
O 	O 	0.91050 0.27370 0.91230 -0.52100
O 	O 	0.12820 0.25160 0.89020 -0.33900
H 	H 	0.13190 0.30830 0.85260 -0.03800
C 	C 	0.98800 0.22260 0.87700 0.47600
O 	O 	0.87250 0.27360 0.87300 0.23900
O 	O 	0.10490 0.26690 0.87140 -0.15200
H 	H 	0.15280 0.31390 0.91840 0.23900
C 	C 	0.30390 0.89905 0.62572 0.44000
C 	C 	0.16300 0.94520 0.63251 -0.16600
C 	C 	0.15040 0.05530 0.62778 0.20800
H 	H 	0.23130 0.09720 0.62520 -0.17200
C 	C 	0.02000 0.10360 0.62680 -0.45600
C 	C 	0.89980 0.04250 0.62904 0.12200
H 	H 	0.81060 0.07550 0.62860 0.00600
C 	C 	0.91180 0.93279 0.63184 -0.20000
C 	C 	0.04410 0.88379 0.63448 0.25000
H 	H 	0.05230 0.80890 0.63760 0.08000
C 	C 	0.78330 0.86944 0.63710 0.37400
C 	C 	0.48490 0.77298 0.42500 0.34200
C 	C 	0.48930 0.70944 0.33421 -0.23600
C 	C 	0.48710 0.59974 0.33357 -0.04100
H 	H 	0.47680 0.56220 0.38980 0.06600
Co	Co	0.56458 0.77487 0.65715 1.19000
O 	O 	0.36255 0.81584 0.67653 -0.50900
O 	O 	0.35530 0.94597 0.56749 -0.41500
O 	O 	0.79642 0.77299 0.65864 -0.32500
O 	O 	0.65998 0.91555 0.62478 -0.47400
O 	O 	0.52870 0.12925 0.58849 -0.43900
O 	O 	0.49850 0.72376 0.50667 -0.38900
O 	O 	0.55140 0.62014 0.68896 -0.39400
C 	C 	0.99840 0.21930 0.61180 -0.04100
O 	O 	0.08950 0.27370 0.58770 -13.05700
O 	O 	0.87180 0.25160 0.60980 -0.76100
H 	H 	0.86810 0.30830 0.64740 0.03300
C 	C 	0.01200 0.22260 0.62300 1.45500
O 	O 	0.12750 0.27360 0.62700 12.41900
O 	O 	0.89510 0.26690 0.62860 0.01300
H 	H 	0.84720 0.31390 0.58160 0.55100
C 	C 	0.30390 0.10095 0.12572 0.53500
C 	C 	0.16300 0.05480 0.13251 -0.50800
C 	C 	0.15040 0.94470 0.12778 0.59600
H 	H 	0.23130 0.90280 0.12520 -0.27100
C 	C 	0.02000 0.89640 0.12680 -0.70000
C 	C 	0.89980 0.95750 0.12904 0.50500
H 	H 	0.81060 0.92450 0.12860 -0.10900
C 	C 	0.91180 0.06721 0.13184 -0.55700
C 	C 	0.04410 0.11621 0.13448 0.50900
H 	H 	0.05230 0.19110 0.13760 -0.05100
C 	C 	0.78330 0.13056 0.13710 0.47500
C 	C 	0.48490 0.22702 0.92500 0.32200
C 	C 	0.48930 0.29056 0.83421 -0.23300
C 	C 	0.48710 0.40026 0.83357 -0.02300
H 	H 	0.47680 0.43780 0.88980 0.05200
Co	Co	0.56458 0.22513 0.15715 1.19000
O 	O 	0.36255 0.18416 0.17653 -0.54600
O 	O 	0.35530 0.05403 0.06749 -0.49300
O 	O 	0.79642 0.22701 0.15864 -0.37300
O 	O 	0.65998 0.08445 0.12478 -0.54800
O 	O 	0.52870 0.87075 0.08849 -0.40400
O 	O 	0.49850 0.27624 0.00667 -0.37400
O 	O 	0.55140 0.37986 0.18896 -0.39800
C 	C 	0.99840 0.78070 0.11180 -0.02400
O 	O 	0.08950 0.72630 0.08770 -13.39200
O 	O 	0.87180 0.74840 0.10980 -0.78100
H 	H 	0.86810 0.69170 0.14740 -0.02300
C 	C 	0.01200 0.77740 0.12300 1.52000
O 	O 	0.12750 0.72640 0.12700 12.73400
O 	O 	0.89510 0.73310 0.12860 0.00400
H 	H 	0.84720 0.68610 0.08160 0.57300
C 	C 	0.69610 0.10095 0.37428 0.50200
C 	C 	0.83700 0.05480 0.36749 -0.26500
C 	C 	0.84960 0.94470 0.37222 0.35400
H 	H 	0.76870 0.90280 0.37480 -0.08000
C 	C 	0.98000 0.89640 0.37320 -0.52400
C 	C 	0.10020 0.95750 0.37096 0.41300
H 	H 	0.18940 0.92450 0.37140 -0.13300
C 	C 	0.08820 0.06721 0.36816 -0.15100
C 	C 	0.95590 0.11621 0.36552 0.12600
H 	H 	0.94770 0.19110 0.36240 0.23500
C 	C 	0.21670 0.13056 0.36290 0.40000
C 	C 	0.51510 0.22702 0.57500 0.39800
C 	C 	0.51070 0.29056 0.66579 -0.16500
C 	C 	0.51290 0.40026 0.66643 0.01100
H 	H 	0.52320 0.43780 0.61020 0.07300
Co	Co	0.43542 0.22513 0.34285 1.19300
O 	O 	0.63745 0.18416 0.32347 -0.49100
O 	O 	0.64470 0.05403 0.43251 -0.47600
O 	O 	0.20358 0.22701 0.34136 -0.23000
O 	O 	0.34002 0.08445 0.37522 -0.53700
O 	O 	0.47130 0.87075 0.41151 -0.44100
O 	O 	0.50150 0.27624 0.49333 -0.36300
O 	O 	0.44860 0.37986 0.31104 -0.40100
C 	C 	0.00160 0.78070 0.38820 -0.25900
O 	O 	0.91050 0.72630 0.41230 -3.31800
O 	O 	0.12820 0.74840 0.39020 -0.43900
H 	H 	0.13190 0.69170 0.35260 -0.07600
C 	C 	0.98800 0.77740 0.37700 0.88100
O 	O 	0.87250 0.72640 0.37300 2.91900
O 	O 	0.10490 0.73310 0.37140 -0.12000
H 	H 	0.15280 0.68610 0.41840 0.33300
C 	C 	0.50000 0.76380 0.25000 -0.15800
H 	H 	0.50000 0.83890 0.25000 0.03900
C 	C 	0.50000 0.42550 0.25000 0.39100
C 	C 	0.50000 0.54430 0.25000 -0.14800
C 	C 	0.50000 0.23620 0.75000 -0.11000
H 	H 	0.50000 0.16110 0.75000 0.01600
C 	C 	0.50000 0.57450 0.75000 0.39300
C 	C 	0.50000 0.45570 0.75000 -0.14100
Co	Co	0.50000 0.00000 -0.00000 1.19900
Co	Co	0.50000 0.00000 0.50000 1.18800
