data_crystal

_cell_length_a 7.48320
_cell_length_b 10.93440
_cell_length_c 11.48240
_cell_angle_alpha 111.81700
_cell_angle_beta  99.39000
_cell_angle_gamma 100.69900

_symmetry_space_group_name_	'P 1'
_symmetry_space_group_name_H-M	'P 1'

loop_
_symmetry_equiv_pos_as_xyz
  x,y,z

loop_
_atom_site_label
_atom_site_type_symbol
_atom_site_fract_x
_atom_site_fract_y
_atom_site_fract_z
_atom_site_charge
Dy	Dy	0.66324 0.75660 0.66476 1.39300
C 	C 	0.43990 0.56700 0.34220 0.48300
C 	C 	0.40390 0.62710 0.24450 -0.16400
C 	C 	0.43260 0.76880 0.28740 0.07300
H 	H 	0.48490 0.82620 0.37470 0.01900
C 	C 	0.38220 0.82320 0.19860 -0.11500
C 	C 	0.38590 0.97180 0.24520 0.30700
C 	C 	0.30810 0.73710 0.06760 0.02300
H 	H 	0.27500 0.77390 0.00870 0.02200
C 	C 	0.28270 0.59570 0.02350 -0.06700
C 	C 	0.33080 0.54170 0.11360 0.05600
H 	H 	0.31360 0.44790 0.08550 0.01700
C 	C 	0.19540 0.50740 0.88540 0.12800
O 	O 	0.49300 0.64762 0.45987 -0.51900
O 	O 	0.41120 0.43973 0.30007 -0.50500
O 	O 	0.47480 0.05673 0.35782 -0.38100
O 	O 	0.28730 0.00977 0.17002 -0.41700
N 	N 	0.11380 0.37330 0.83678 -0.09800
N 	N 	0.04500 0.33520 0.70950 -0.05900
N 	N 	0.08610 0.44120 0.68230 -0.07600
N 	N 	0.18250 0.55230 0.79150 -0.11800
Dy	Dy	0.33676 0.24340 0.33524 1.39200
C 	C 	0.56010 0.43300 0.65780 0.48200
C 	C 	0.59610 0.37290 0.75550 -0.16500
C 	C 	0.56740 0.23120 0.71260 0.07200
H 	H 	0.51510 0.17380 0.62530 0.01900
C 	C 	0.61780 0.17680 0.80140 -0.11500
C 	C 	0.61410 0.02820 0.75480 0.30700
C 	C 	0.69190 0.26290 0.93240 0.02300
H 	H 	0.72500 0.22610 0.99130 0.02200
C 	C 	0.71730 0.40430 0.97650 -0.06700
C 	C 	0.66920 0.45830 0.88640 0.05600
H 	H 	0.68640 0.55210 0.91450 0.01700
C 	C 	0.80460 0.49260 0.11460 0.12800
O 	O 	0.50700 0.35238 0.54013 -0.51900
O 	O 	0.58880 0.56027 0.69993 -0.50500
O 	O 	0.52520 0.94327 0.64218 -0.38100
O 	O 	0.71270 0.99023 0.82998 -0.41700
N 	N 	0.88620 0.62670 0.16322 -0.09800
N 	N 	0.95500 0.66480 0.29050 -0.05900
N 	N 	0.91390 0.55880 0.31770 -0.07600
N 	N 	0.81750 0.44770 0.20850 -0.11800
