data_crystal

_cell_length_a 10.48060
_cell_length_b 21.31200
_cell_length_c 11.32930
_cell_angle_alpha 90.00000
_cell_angle_beta  94.49700
_cell_angle_gamma 90.00000

_symmetry_space_group_name_	'P 1'
_symmetry_space_group_name_H-M	'P 1'

loop_
_symmetry_equiv_pos_as_xyz
  x,y,z

loop_
_atom_site_label
_atom_site_type_symbol
_atom_site_fract_x
_atom_site_fract_y
_atom_site_fract_z
_atom_site_charge
S 	S 	0.49519 0.22555 0.41029 -0.03600
O 	O 	0.95328 0.92777 0.14545 -0.37600
O 	O 	0.87123 0.89741 0.31271 -0.26600
N 	N 	0.21658 0.07184 0.27831 -0.26600
C 	C 	0.78975 0.77016 0.96857 0.01500
C 	C 	0.82299 0.83676 0.14154 -0.07000
C 	C 	0.74385 0.79659 0.20330 0.01200
H 	H 	0.72960 0.80540 0.28160 0.04100
C 	C 	0.39754 0.13793 0.25616 -0.17800
H 	H 	0.46190 0.15080 0.20960 0.09300
C 	C 	0.84299 0.82391 0.02571 -0.03500
H 	H 	0.89250 0.85110 0.98420 0.05300
C 	C 	0.38735 0.16400 0.36662 0.10700
C 	C 	0.68833 0.74516 0.14962 -0.09700
H 	H 	0.63530 0.71980 0.19120 0.07100
C 	C 	0.31110 0.09258 0.21592 0.09600
H 	H 	0.31890 0.07550 0.14130 -0.04300
C 	C 	0.88646 0.89145 0.20554 0.31800
C 	C 	0.20890 0.09736 0.38578 0.09600
H 	H 	0.14450 0.08350 0.43140 -0.02500
C 	C 	0.29100 0.14288 0.43202 -0.17600
H 	H 	0.28150 0.15930 0.50690 0.10400
S 	S 	0.99519 0.72555 0.41029 -0.03500
O 	O 	0.45328 0.42777 0.14545 -0.41400
O 	O 	0.37123 0.39741 0.31271 -0.28600
N 	N 	0.71658 0.57184 0.27831 -0.25500
C 	C 	0.28975 0.27016 0.96857 0.04400
C 	C 	0.32299 0.33676 0.14154 -0.06200
C 	C 	0.24385 0.29659 0.20330 -0.00400
H 	H 	0.22960 0.30540 0.28160 0.04400
C 	C 	0.89754 0.63793 0.25616 -0.17200
H 	H 	0.96190 0.65080 0.20960 0.09700
C 	C 	0.34299 0.32391 0.02571 -0.06400
H 	H 	0.39250 0.35110 0.98420 0.06200
C 	C 	0.88735 0.66400 0.36662 0.10800
C 	C 	0.18833 0.24516 0.14962 -0.07700
H 	H 	0.13530 0.21980 0.19120 0.06400
C 	C 	0.81110 0.59258 0.21592 0.10100
H 	H 	0.81890 0.57550 0.14130 -0.02800
C 	C 	0.38646 0.39145 0.20554 0.31600
C 	C 	0.70890 0.59736 0.38578 0.10100
H 	H 	0.64450 0.58350 0.43140 -0.01400
C 	C 	0.79100 0.64288 0.43202 -0.17100
H 	H 	0.78150 0.65930 0.50690 0.10400
S 	S 	0.50481 0.22555 0.58971 -0.03700
O 	O 	0.04672 0.92777 0.85455 -0.37700
O 	O 	0.12877 0.89741 0.68729 -0.26700
N 	N 	0.78342 0.07184 0.72169 -0.26700
C 	C 	0.21025 0.77016 0.03143 0.01500
C 	C 	0.17701 0.83676 0.85846 -0.07000
C 	C 	0.25615 0.79659 0.79670 0.01200
H 	H 	0.27040 0.80540 0.71840 0.04100
C 	C 	0.60246 0.13793 0.74384 -0.17800
H 	H 	0.53810 0.15080 0.79040 0.09300
C 	C 	0.15701 0.82391 0.97429 -0.03500
H 	H 	0.10750 0.85110 0.01580 0.05300
C 	C 	0.61265 0.16400 0.63338 0.10700
C 	C 	0.31167 0.74516 0.85038 -0.09700
H 	H 	0.36470 0.71980 0.80880 0.07100
C 	C 	0.68890 0.09258 0.78408 0.09600
H 	H 	0.68110 0.07550 0.85870 -0.04300
C 	C 	0.11354 0.89145 0.79446 0.31800
C 	C 	0.79110 0.09736 0.61422 0.09600
H 	H 	0.85550 0.08350 0.56860 -0.02500
C 	C 	0.70900 0.14288 0.56798 -0.17600
H 	H 	0.71850 0.15930 0.49310 0.10400
S 	S 	0.00481 0.72555 0.58971 -0.03500
O 	O 	0.54672 0.42777 0.85455 -0.41400
O 	O 	0.62877 0.39741 0.68729 -0.28600
N 	N 	0.28342 0.57184 0.72169 -0.25500
C 	C 	0.71025 0.27016 0.03143 0.04400
C 	C 	0.67701 0.33676 0.85846 -0.06200
C 	C 	0.75615 0.29659 0.79670 -0.00400
H 	H 	0.77040 0.30540 0.71840 0.04400
C 	C 	0.10246 0.63793 0.74384 -0.17200
H 	H 	0.03810 0.65080 0.79040 0.09700
C 	C 	0.65701 0.32391 0.97429 -0.06400
H 	H 	0.60750 0.35110 0.01580 0.06200
C 	C 	0.11265 0.66400 0.63338 0.10800
C 	C 	0.81167 0.24516 0.85038 -0.07700
H 	H 	0.86470 0.21980 0.80880 0.06400
C 	C 	0.18890 0.59258 0.78408 0.10100
H 	H 	0.18110 0.57550 0.85870 -0.02800
C 	C 	0.61354 0.39145 0.79446 0.31600
C 	C 	0.29110 0.59736 0.61422 0.10100
H 	H 	0.35550 0.58350 0.56860 -0.01400
C 	C 	0.20900 0.64288 0.56798 -0.17100
H 	H 	0.21850 0.65930 0.49310 0.10400
S 	S 	0.50481 0.77445 0.58971 -0.03300
O 	O 	0.04672 0.07223 0.85455 -0.43400
O 	O 	0.12877 0.10259 0.68729 -0.30300
N 	N 	0.78342 0.92816 0.72169 -0.23300
C 	C 	0.21025 0.22984 0.03143 0.00800
C 	C 	0.17701 0.16324 0.85846 -0.08800
C 	C 	0.25615 0.20341 0.79670 0.01900
H 	H 	0.27040 0.19460 0.71840 0.03400
C 	C 	0.60246 0.86207 0.74384 -0.16400
H 	H 	0.53810 0.84920 0.79040 0.10000
C 	C 	0.15701 0.17609 0.97429 -0.02700
H 	H 	0.10750 0.14890 0.01580 0.04500
C 	C 	0.61265 0.83600 0.63338 0.11000
C 	C 	0.31167 0.25484 0.85038 -0.10600
H 	H 	0.36470 0.28020 0.80880 0.07400
C 	C 	0.68890 0.90742 0.78408 0.10600
H 	H 	0.68110 0.92450 0.85870 -0.00900
C 	C 	0.11354 0.10855 0.79446 0.32500
C 	C 	0.79110 0.90264 0.61422 0.10600
H 	H 	0.85550 0.91650 0.56860 0.00200
C 	C 	0.70900 0.85712 0.56798 -0.16400
H 	H 	0.71850 0.84070 0.49310 0.10600
S 	S 	0.00481 0.27445 0.58971 -0.03400
O 	O 	0.54672 0.57223 0.85455 -0.41400
O 	O 	0.62877 0.60259 0.68729 -0.28600
N 	N 	0.28342 0.42816 0.72169 -0.25500
C 	C 	0.71025 0.72984 0.03143 0.03900
C 	C 	0.67701 0.66324 0.85846 -0.06500
C 	C 	0.75615 0.70341 0.79670 -0.00100
H 	H 	0.77040 0.69460 0.71840 0.04300
C 	C 	0.10246 0.36207 0.74384 -0.17200
H 	H 	0.03810 0.34920 0.79040 0.09700
C 	C 	0.65701 0.67609 0.97429 -0.06000
H 	H 	0.60750 0.64890 0.01580 0.06100
C 	C 	0.11265 0.33600 0.63338 0.10800
C 	C 	0.81167 0.75484 0.85038 -0.08200
H 	H 	0.86470 0.78020 0.80880 0.06500
C 	C 	0.18890 0.40742 0.78408 0.10200
H 	H 	0.18110 0.42450 0.85870 -0.02800
C 	C 	0.61354 0.60855 0.79446 0.31700
C 	C 	0.29110 0.40264 0.61422 0.10100
H 	H 	0.35550 0.41650 0.56860 -0.01400
C 	C 	0.20900 0.35712 0.56798 -0.17100
H 	H 	0.21850 0.34070 0.49310 0.10500
S 	S 	0.49519 0.77445 0.41029 -0.03300
O 	O 	0.95328 0.07223 0.14545 -0.43400
O 	O 	0.87123 0.10259 0.31271 -0.30300
N 	N 	0.21658 0.92816 0.27831 -0.23300
C 	C 	0.78975 0.22984 0.96857 0.00800
C 	C 	0.82299 0.16324 0.14154 -0.08800
C 	C 	0.74385 0.20341 0.20330 0.01900
H 	H 	0.72960 0.19460 0.28160 0.03400
C 	C 	0.39754 0.86207 0.25616 -0.16400
H 	H 	0.46190 0.84920 0.20960 0.10000
C 	C 	0.84299 0.17609 0.02571 -0.02700
H 	H 	0.89250 0.14890 0.98420 0.04500
C 	C 	0.38735 0.83600 0.36662 0.11000
C 	C 	0.68833 0.25484 0.14962 -0.10600
H 	H 	0.63530 0.28020 0.19120 0.07400
C 	C 	0.31110 0.90742 0.21592 0.10600
H 	H 	0.31890 0.92450 0.14130 -0.00900
C 	C 	0.88646 0.10855 0.20554 0.32500
C 	C 	0.20890 0.90264 0.38578 0.10600
H 	H 	0.14450 0.91650 0.43140 0.00200
C 	C 	0.29100 0.85712 0.43202 -0.16400
H 	H 	0.28150 0.84070 0.50690 0.10600
S 	S 	0.99519 0.27445 0.41029 -0.03400
O 	O 	0.45328 0.57223 0.14545 -0.41400
O 	O 	0.37123 0.60259 0.31271 -0.28600
N 	N 	0.71658 0.42816 0.27831 -0.25500
C 	C 	0.28975 0.72984 0.96857 0.03900
C 	C 	0.32299 0.66324 0.14154 -0.06500
C 	C 	0.24385 0.70341 0.20330 -0.00100
H 	H 	0.22960 0.69460 0.28160 0.04300
C 	C 	0.89754 0.36207 0.25616 -0.17200
H 	H 	0.96190 0.34920 0.20960 0.09700
C 	C 	0.34299 0.67609 0.02571 -0.06000
H 	H 	0.39250 0.64890 0.98420 0.06100
C 	C 	0.88735 0.33600 0.36662 0.10800
C 	C 	0.18833 0.75484 0.14962 -0.08200
H 	H 	0.13530 0.78020 0.19120 0.06500
C 	C 	0.81110 0.40742 0.21592 0.10200
H 	H 	0.81890 0.42450 0.14130 -0.02800
C 	C 	0.38646 0.60855 0.20554 0.31700
C 	C 	0.70890 0.40264 0.38578 0.10100
H 	H 	0.64450 0.41650 0.43140 -0.01400
C 	C 	0.79100 0.35712 0.43202 -0.17100
H 	H 	0.78150 0.34070 0.50690 0.10500
Co	Co	0.08125 0.00000 0.21301 1.06700
Co	Co	0.58125 0.50000 0.21301 1.10800
Co	Co	0.91875 0.00000 0.78699 1.06700
Co	Co	0.41875 0.50000 0.78699 1.10800
