data_crystal

_cell_length_a 18.56960
_cell_length_b 18.56960
_cell_length_c 12.01280
_cell_angle_alpha 90.00000
_cell_angle_beta  90.00000
_cell_angle_gamma 120.00000

_symmetry_space_group_name_	'P 1'
_symmetry_space_group_name_H-M	'P 1'

loop_
_symmetry_equiv_pos_as_xyz
  x,y,z

loop_
_atom_site_label
_atom_site_type_symbol
_atom_site_fract_x
_atom_site_fract_y
_atom_site_fract_z
_atom_site_charge
C 	C 	0.06340 0.98650 0.38650 0.15800
H 	H 	0.10660 0.03410 0.42260 -0.00200
C 	C 	0.06430 0.91180 0.38740 -0.20800
C 	C 	0.12930 0.90350 0.44840 0.47000
C 	C 	0.11370 0.39860 0.35770 0.37100
C 	C 	0.07450 0.43260 0.43460 0.06700
C 	C 	0.11070 0.51990 0.43200 -0.10900
H 	H 	0.15610 0.55250 0.38380 0.12500
C 	C 	0.07950 0.55720 0.50000 0.60600
C 	C 	0.11880 0.65000 0.50350 -0.07200
C 	C 	0.01180 0.51130 0.56700 -0.16200
H 	H 	0.99030 0.53860 0.61160 -0.45000
C 	C 	0.97440 0.42450 0.57100 0.10900
C 	C 	0.89950 0.37480 0.64110 0.23800
C 	C 	0.00870 0.38730 0.50300 -0.01500
H 	H 	0.98500 0.32860 0.50570 -0.03700
O 	O 	0.17930 0.69270 0.43600 0.06300
O 	O 	0.09530 0.68560 0.56890 8.63500
O 	O 	0.87150 0.41220 0.70120 -0.07000
O 	O 	0.86280 0.29580 0.63600 -0.08100
C 	C 	0.08350 0.43940 0.43990 -0.02400
C 	C 	0.11590 0.52590 0.44700 -0.14400
H 	H 	0.15970 0.56240 0.39940 0.06200
C 	C 	0.08400 0.55780 0.52400 0.06500
C 	C 	0.12010 0.65040 0.53500 -1.65800
C 	C 	0.01880 0.50560 0.59300 -0.09800
H 	H 	0.99640 0.52850 0.64390 0.77900
C 	C 	0.98550 0.41960 0.58800 0.00100
C 	C 	0.91490 0.36270 0.66110 -0.04500
C 	C 	0.02100 0.38830 0.51000 -0.08900
H 	H 	0.00070 0.33010 0.50770 0.10200
O 	O 	0.17600 0.69490 0.46000 -0.19200
O 	O 	0.10360 0.68240 0.61200 -7.89900
O 	O 	0.89900 0.39310 0.74590 0.00400
O 	O 	0.87550 0.28480 0.64100 -0.21800
Co	Co	0.21128 0.80887 0.48647 1.09700
O 	O 	0.93420 0.07300 0.30890 -0.29500
O 	O 	0.09170 0.32260 0.36690 -0.38200
O 	O 	0.16210 0.44470 0.28500 -0.29700
O 	O 	0.12330 0.83280 0.44440 -0.66400
O 	O 	0.18640 0.96620 0.49610 -0.41100
C 	C 	0.01350 0.07690 0.05317 -0.00200
H 	H 	0.96590 0.07250 0.08927 0.09900
C 	C 	0.08820 0.15250 0.05407 -0.15100
C 	C 	0.09650 0.22580 0.11507 0.44600
C 	C 	0.60140 0.71510 0.02437 0.31700
C 	C 	0.56740 0.64190 0.10127 0.06900
C 	C 	0.48010 0.59080 0.09867 -0.10300
H 	H 	0.44750 0.60360 0.05047 0.12600
C 	C 	0.44280 0.52230 0.16667 0.59700
C 	C 	0.35000 0.46880 0.17017 -0.07200
C 	C 	0.48870 0.50050 0.23367 -0.11700
H 	H 	0.46140 0.45170 0.27827 -0.51500
C 	C 	0.57550 0.54990 0.23767 0.07000
C 	C 	0.62520 0.52470 0.30777 0.24200
C 	C 	0.61270 0.62140 0.16967 0.02600
H 	H 	0.67140 0.65640 0.17237 0.07900
O 	O 	0.30730 0.48660 0.10267 0.06600
O 	O 	0.31440 0.40970 0.23557 8.77800
O 	O 	0.58780 0.45930 0.36787 -0.07500
O 	O 	0.70420 0.56700 0.30267 -0.08700
C 	C 	0.56060 0.64410 0.10657 -0.02700
C 	C 	0.47410 0.59000 0.11367 -0.14500
H 	H 	0.43760 0.59730 0.06607 0.05200
C 	C 	0.44220 0.52620 0.19067 0.05900
C 	C 	0.34960 0.46970 0.20167 -1.68100
C 	C 	0.49440 0.51320 0.25967 -0.05300
H 	H 	0.47150 0.46790 0.31057 0.79000
C 	C 	0.58040 0.56590 0.25467 -0.04700
C 	C 	0.63730 0.55220 0.32777 -0.03500
C 	C 	0.61170 0.63270 0.17667 -0.07100
H 	H 	0.66990 0.67060 0.17437 -0.03500
O 	O 	0.30510 0.48110 0.12667 -0.20100
O 	O 	0.31760 0.42120 0.27867 -8.02700
O 	O 	0.60690 0.50590 0.41257 -0.01200
O 	O 	0.71520 0.59070 0.30767 -0.22200
Co	Co	0.19113 0.40241 0.15314 1.09000
O 	O 	0.92700 0.86120 0.97557 -0.27300
O 	O 	0.67740 0.76910 0.03357 -0.37100
O 	O 	0.55530 0.71740 0.95167 -0.23000
O 	O 	0.16720 0.29050 0.11107 -0.66800
O 	O 	0.03380 0.22020 0.16277 -0.44300
C 	C 	0.92310 0.93660 0.71983 0.12400
H 	H 	0.92750 0.89340 0.75593 0.05400
C 	C 	0.84750 0.93570 0.72073 -0.15900
C 	C 	0.77420 0.87070 0.78173 0.46900
C 	C 	0.28490 0.88630 0.69103 0.39400
C 	C 	0.35810 0.92550 0.76793 0.06300
C 	C 	0.40920 0.88930 0.76533 -0.10000
H 	H 	0.39640 0.84390 0.71713 0.12600
C 	C 	0.47770 0.92050 0.83333 0.61200
C 	C 	0.53120 0.88120 0.83683 -0.08700
C 	C 	0.49950 0.98820 0.90033 -0.06200
H 	H 	0.54830 0.00970 0.94493 -0.60200
C 	C 	0.45010 0.02560 0.90433 0.01800
C 	C 	0.47530 0.10050 0.97443 0.25700
C 	C 	0.37860 0.99130 0.83633 0.07900
H 	H 	0.34360 0.01500 0.83903 0.21400
O 	O 	0.51340 0.82070 0.76933 0.08500
O 	O 	0.59030 0.90470 0.90223 9.37700
O 	O 	0.54070 0.12850 0.03453 -0.09400
O 	O 	0.43300 0.13720 0.96933 -0.09100
C 	C 	0.35590 0.91650 0.77323 -0.03600
C 	C 	0.41000 0.88410 0.78033 -0.13300
H 	H 	0.40270 0.84030 0.73273 0.06400
C 	C 	0.47380 0.91600 0.85733 0.06700
C 	C 	0.53030 0.87990 0.86833 -1.78200
C 	C 	0.48680 0.98120 0.92633 0.01000
H 	H 	0.53210 0.00360 0.97723 0.83700
C 	C 	0.43410 0.01450 0.92133 -0.09600
C 	C 	0.44780 0.08510 0.99443 0.01500
C 	C 	0.36730 0.97900 0.84333 -0.03300
H 	H 	0.32940 0.99930 0.84103 -0.19200
O 	O 	0.51890 0.82400 0.79333 -0.19300
O 	O 	0.57880 0.89640 0.94533 -8.53400
O 	O 	0.49410 0.10100 0.07923 -0.05700
O 	O 	0.40930 0.12450 0.97433 -0.23100
Co	Co	0.59759 0.78872 0.81980 1.09100
O 	O 	0.13880 0.06580 0.64223 -0.32100
O 	O 	0.23090 0.90830 0.70023 -0.35700
O 	O 	0.28260 0.83790 0.61833 -0.29200
O 	O 	0.70950 0.87670 0.77773 -0.66100
O 	O 	0.77980 0.81360 0.82943 -0.41400
C 	C 	0.98650 0.06340 0.61350 0.15900
H 	H 	0.03410 0.10660 0.57740 0.00300
C 	C 	0.91180 0.06430 0.61260 -0.20300
C 	C 	0.90350 0.12930 0.55160 0.47100
C 	C 	0.39860 0.11370 0.64230 0.36900
C 	C 	0.43260 0.07450 0.56540 0.06500
C 	C 	0.51990 0.11070 0.56800 -0.10800
H 	H 	0.55250 0.15610 0.61620 0.12300
C 	C 	0.55720 0.07950 0.50000 0.58900
C 	C 	0.65000 0.11880 0.49650 -0.06800
C 	C 	0.51130 0.01180 0.43300 -0.16200
H 	H 	0.53860 0.99030 0.38840 -0.43000
C 	C 	0.42450 0.97440 0.42900 0.10400
C 	C 	0.37480 0.89950 0.35890 0.23100
C 	C 	0.38730 0.00870 0.49700 -0.02000
H 	H 	0.32860 0.98500 0.49430 -0.04700
O 	O 	0.69270 0.17930 0.56400 0.05300
O 	O 	0.68560 0.09530 0.43110 8.38800
O 	O 	0.41220 0.87150 0.29880 -0.06200
O 	O 	0.29580 0.86280 0.36400 -0.09100
C 	C 	0.43940 0.08350 0.56010 -0.02500
C 	C 	0.52590 0.11590 0.55300 -0.14200
H 	H 	0.56240 0.15970 0.60060 0.06100
C 	C 	0.55780 0.08400 0.47600 0.06100
C 	C 	0.65040 0.12010 0.46500 -1.61200
C 	C 	0.50560 0.01880 0.40700 -0.10000
H 	H 	0.52850 0.99640 0.35610 0.75500
C 	C 	0.41960 0.98550 0.41200 0.00500
C 	C 	0.36270 0.91490 0.33890 -0.03800
C 	C 	0.38830 0.02100 0.49000 -0.08900
H 	H 	0.33010 0.00070 0.49230 0.11100
O 	O 	0.69490 0.17600 0.54000 -0.18900
O 	O 	0.68240 0.10360 0.38800 -7.68500
O 	O 	0.39310 0.89900 0.25410 -0.01300
O 	O 	0.28480 0.87550 0.35900 -0.21400
Co	Co	0.80887 0.21128 0.51353 1.09900
O 	O 	0.07300 0.93420 0.69110 -0.28800
O 	O 	0.32260 0.09170 0.63310 -0.38600
O 	O 	0.44470 0.16210 0.71500 -0.30300
O 	O 	0.83280 0.12330 0.55560 -0.65800
O 	O 	0.96620 0.18640 0.50390 -0.40900
C 	C 	0.07690 0.01350 0.94683 0.02800
H 	H 	0.07250 0.96590 0.91073 0.10400
C 	C 	0.15250 0.08820 0.94593 -0.11000
C 	C 	0.22580 0.09650 0.88493 0.43900
C 	C 	0.71510 0.60140 0.97563 0.44100
C 	C 	0.64190 0.56740 0.89873 0.05600
C 	C 	0.59080 0.48010 0.90133 -0.09900
H 	H 	0.60360 0.44750 0.94953 0.11800
C 	C 	0.52230 0.44280 0.83333 0.56500
C 	C 	0.46880 0.35000 0.82983 -0.06900
C 	C 	0.50050 0.48870 0.76633 -0.11100
H 	H 	0.45170 0.46140 0.72173 -0.46700
C 	C 	0.54990 0.57550 0.76233 0.06100
C 	C 	0.52470 0.62520 0.69223 0.23700
C 	C 	0.62140 0.61270 0.83033 0.02500
H 	H 	0.65640 0.67140 0.82763 0.07300
O 	O 	0.48660 0.30730 0.89733 0.04900
O 	O 	0.40970 0.31440 0.76443 8.36700
O 	O 	0.45930 0.58780 0.63213 -0.06100
O 	O 	0.56700 0.70420 0.69733 -0.09200
C 	C 	0.64410 0.56060 0.89343 -0.03200
C 	C 	0.59000 0.47410 0.88633 -0.12200
H 	H 	0.59730 0.43760 0.93393 0.07100
C 	C 	0.52620 0.44220 0.80933 0.06400
C 	C 	0.46970 0.34960 0.79833 -1.59300
C 	C 	0.51320 0.49440 0.74033 -0.04800
H 	H 	0.46790 0.47150 0.68943 0.74000
C 	C 	0.56590 0.58040 0.74533 -0.03600
C 	C 	0.55220 0.63730 0.67223 -0.02500
C 	C 	0.63270 0.61170 0.82333 -0.05500
H 	H 	0.67060 0.66990 0.82563 -0.02800
O 	O 	0.48110 0.30510 0.87333 -0.17600
O 	O 	0.42120 0.31760 0.72133 -7.65700
O 	O 	0.50590 0.60690 0.58743 -0.01600
O 	O 	0.59070 0.71520 0.69233 -0.21900
Co	Co	0.40241 0.19113 0.84686 1.09800
O 	O 	0.86120 0.92700 0.02443 -0.33000
O 	O 	0.76910 0.67740 0.96643 -0.36600
O 	O 	0.71740 0.55530 0.04833 -0.35600
O 	O 	0.29050 0.16720 0.88893 -0.63900
O 	O 	0.22020 0.03380 0.83723 -0.43400
C 	C 	0.93660 0.92310 0.28017 0.11300
H 	H 	0.89340 0.92750 0.24407 0.05300
C 	C 	0.93570 0.84750 0.27927 -0.16200
C 	C 	0.87070 0.77420 0.21827 0.45400
C 	C 	0.88630 0.28490 0.30897 0.39200
C 	C 	0.92550 0.35810 0.23207 0.05000
C 	C 	0.88930 0.40920 0.23467 -0.08700
H 	H 	0.84390 0.39640 0.28287 0.11300
C 	C 	0.92050 0.47770 0.16667 0.52000
C 	C 	0.88120 0.53120 0.16317 -0.06000
C 	C 	0.98820 0.49950 0.09967 -0.05500
H 	H 	0.00970 0.54830 0.05507 -0.48900
C 	C 	0.02560 0.45010 0.09567 0.01800
C 	C 	0.10050 0.47530 0.02557 0.22500
C 	C 	0.99130 0.37860 0.16367 0.06500
H 	H 	0.01500 0.34360 0.16097 0.19200
O 	O 	0.82070 0.51340 0.23067 0.03300
O 	O 	0.90470 0.59030 0.09777 8.01800
O 	O 	0.12850 0.54070 0.96547 -0.03400
O 	O 	0.13720 0.43300 0.03067 -0.11000
C 	C 	0.91650 0.35590 0.22677 -0.03700
C 	C 	0.88410 0.41000 0.21967 -0.11500
H 	H 	0.84030 0.40270 0.26727 0.06100
C 	C 	0.91600 0.47380 0.14267 0.05400
C 	C 	0.87990 0.53030 0.13167 -1.51800
C 	C 	0.98120 0.48680 0.07367 -0.00400
H 	H 	0.00360 0.53210 0.02277 0.68700
C 	C 	0.01450 0.43410 0.07867 -0.08200
C 	C 	0.08510 0.44780 0.00557 -0.05000
C 	C 	0.97900 0.36730 0.15667 -0.03200
H 	H 	0.99930 0.32940 0.15897 -0.17100
O 	O 	0.82400 0.51890 0.20667 -0.17600
O 	O 	0.89640 0.57880 0.05467 -7.35500
O 	O 	0.10100 0.49410 0.92077 0.00300
O 	O 	0.12450 0.40930 0.02567 -0.21600
Co	Co	0.78872 0.59759 0.18020 1.10000
O 	O 	0.06580 0.13880 0.35777 -0.32300
O 	O 	0.90830 0.23090 0.29977 -0.36600
O 	O 	0.83790 0.28260 0.38167 -0.30000
O 	O 	0.87670 0.70950 0.22227 -0.64000
O 	O 	0.81360 0.77980 0.17057 -0.42900
C 	C 	0.00000 0.07210 0.33333 0.21600
C 	C 	-0.00000 0.99170 0.33333 -0.11500
C 	C 	-0.00000 0.84240 0.33333 0.10700
H 	H 	-0.00000 0.79130 0.33333 -0.06100
Co	Co	-0.00000 0.20515 0.33333 1.18400
C 	C 	0.92790 0.92790 -0.00000 0.28000
C 	C 	0.00830 0.00830 -0.00000 -0.15400
C 	C 	0.15760 0.15760 -0.00000 0.04700
H 	H 	0.20870 0.20870 -0.00000 -0.05000
Co	Co	0.79485 0.79485 -0.00000 1.18100
C 	C 	0.07210 0.00000 0.66667 0.21400
C 	C 	0.99170 0.00000 0.66667 -0.11700
C 	C 	0.84240 0.00000 0.66667 0.10800
H 	H 	0.79130 0.00000 0.66667 -0.06500
Co	Co	0.20515 0.00000 0.66667 1.18300
