data_crystal

_cell_length_a 18.50800
_cell_length_b 18.50800
_cell_length_c 38.80200
_cell_angle_alpha 90.00000
_cell_angle_beta  90.00000
_cell_angle_gamma 120.00000

_symmetry_space_group_name_	'P 1'
_symmetry_space_group_name_H-M	'P 1'

loop_
_symmetry_equiv_pos_as_xyz
  x,y,z

loop_
_atom_site_label
_atom_site_type_symbol
_atom_site_fract_x
_atom_site_fract_y
_atom_site_fract_z
_atom_site_charge
O 	O 	0.78930 0.76070 0.61920 -0.13100
C 	C 	0.81710 0.72770 0.67810 0.00200
O 	O 	0.77660 0.81480 0.83612 -0.39000
O 	O 	0.69570 0.77460 0.78850 -0.38600
C 	C 	0.80300 0.70160 0.64310 0.08600
C 	C 	0.81780 0.76390 0.78853 -0.03100
C 	C 	0.75840 0.78500 0.80578 0.32900
C 	C 	0.80280 0.73460 0.75522 -0.07000
H 	H 	0.75420 0.72490 0.74410 0.09400
O 	O 	0.45597 0.09403 0.95253 -0.13000
C 	C 	0.48377 0.06103 0.01143 0.00300
O 	O 	0.44327 0.14813 0.16945 -0.39000
O 	O 	0.36237 0.10793 0.12183 -0.38600
C 	C 	0.46967 0.03493 0.97643 0.08600
C 	C 	0.48447 0.09723 0.12186 -0.03100
C 	C 	0.42507 0.11833 0.13911 0.32900
C 	C 	0.46947 0.06793 0.08855 -0.07000
H 	H 	0.42087 0.05823 0.07743 0.09400
O 	O 	0.12263 0.42737 0.28587 -0.13000
C 	C 	0.15043 0.39437 0.34477 0.00300
O 	O 	0.10993 0.48147 0.50279 -0.39000
O 	O 	0.02903 0.44127 0.45517 -0.38600
C 	C 	0.13633 0.36827 0.30977 0.08600
C 	C 	0.15113 0.43057 0.45520 -0.03100
C 	C 	0.09173 0.45167 0.47245 0.32900
C 	C 	0.13613 0.40127 0.42189 -0.07000
H 	H 	0.08753 0.39157 0.41077 0.09400
O 	O 	0.23930 0.02860 0.61920 -0.13000
C 	C 	0.27230 0.08940 0.67810 0.00300
O 	O 	0.18520 0.96180 0.83612 -0.39000
O 	O 	0.22540 0.92110 0.78850 -0.38600
C 	C 	0.29840 0.10140 0.64310 0.08600
C 	C 	0.23610 0.05390 0.78853 -0.03000
C 	C 	0.21500 0.97340 0.80578 0.32900
C 	C 	0.26540 0.06820 0.75522 -0.07000
H 	H 	0.27510 0.02930 0.74410 0.09400
O 	O 	0.90597 0.36193 0.95253 -0.13000
C 	C 	0.93897 0.42273 0.01143 0.00300
O 	O 	0.85187 0.29513 0.16945 -0.39000
O 	O 	0.89207 0.25443 0.12183 -0.38600
C 	C 	0.96507 0.43473 0.97643 0.08600
C 	C 	0.90277 0.38723 0.12186 -0.03100
C 	C 	0.88167 0.30673 0.13911 0.32900
C 	C 	0.93207 0.40153 0.08855 -0.07000
H 	H 	0.94177 0.36263 0.07743 0.09400
O 	O 	0.57263 0.69527 0.28587 -0.13000
C 	C 	0.60563 0.75607 0.34477 0.00300
O 	O 	0.51853 0.62847 0.50279 -0.39000
O 	O 	0.55873 0.58777 0.45517 -0.38600
C 	C 	0.63173 0.76807 0.30977 0.08600
C 	C 	0.56943 0.72057 0.45520 -0.03100
C 	C 	0.54833 0.64007 0.47245 0.32900
C 	C 	0.59873 0.73487 0.42189 -0.07000
H 	H 	0.60843 0.69597 0.41077 0.09400
O 	O 	0.97140 0.21070 0.61920 -0.13000
C 	C 	0.91060 0.18290 0.67810 0.00300
O 	O 	0.03820 0.22340 0.83612 -0.39000
O 	O 	0.07890 0.30430 0.78850 -0.38600
C 	C 	0.89860 0.19700 0.64310 0.08600
C 	C 	0.94610 0.18220 0.78853 -0.03000
C 	C 	0.02660 0.24160 0.80578 0.32900
C 	C 	0.93180 0.19720 0.75522 -0.07000
H 	H 	0.97070 0.24580 0.74410 0.09400
O 	O 	0.63807 0.54403 0.95253 -0.13000
C 	C 	0.57727 0.51623 0.01143 0.00300
O 	O 	0.70487 0.55673 0.16945 -0.39000
O 	O 	0.74557 0.63763 0.12183 -0.38600
C 	C 	0.56527 0.53033 0.97643 0.08600
C 	C 	0.61277 0.51553 0.12186 -0.03100
C 	C 	0.69327 0.57493 0.13911 0.32900
C 	C 	0.59847 0.53053 0.08855 -0.07000
H 	H 	0.63737 0.57913 0.07743 0.09400
O 	O 	0.30473 0.87737 0.28587 -0.13000
C 	C 	0.24393 0.84957 0.34477 0.00300
O 	O 	0.37153 0.89007 0.50279 -0.39000
O 	O 	0.41223 0.97097 0.45517 -0.38600
C 	C 	0.23193 0.86367 0.30977 0.08600
C 	C 	0.27943 0.84887 0.45520 -0.03100
C 	C 	0.35993 0.90827 0.47245 0.32900
C 	C 	0.26513 0.86387 0.42189 -0.07000
H 	H 	0.30403 0.91247 0.41077 0.09400
O 	O 	0.76070 0.78930 0.38080 -0.13000
C 	C 	0.72770 0.81710 0.32190 0.00300
O 	O 	0.81480 0.77660 0.16388 -0.39000
O 	O 	0.77460 0.69570 0.21150 -0.38600
C 	C 	0.70160 0.80300 0.35690 0.08600
C 	C 	0.76390 0.81780 0.21147 -0.03100
C 	C 	0.78500 0.75840 0.19422 0.32900
C 	C 	0.73460 0.80280 0.24478 -0.07000
H 	H 	0.72490 0.75420 0.25590 0.09400
O 	O 	0.42737 0.12263 0.71413 -0.13000
C 	C 	0.39437 0.15043 0.65523 0.00300
O 	O 	0.48147 0.10993 0.49721 -0.39000
O 	O 	0.44127 0.02903 0.54483 -0.38600
C 	C 	0.36827 0.13633 0.69023 0.08600
C 	C 	0.43057 0.15113 0.54480 -0.03100
C 	C 	0.45167 0.09173 0.52755 0.32900
C 	C 	0.40127 0.13613 0.57811 -0.07000
H 	H 	0.39157 0.08753 0.58923 0.09400
O 	O 	0.09403 0.45597 0.04747 -0.13000
C 	C 	0.06103 0.48377 0.98857 0.00300
O 	O 	0.14813 0.44327 0.83055 -0.39000
O 	O 	0.10793 0.36237 0.87817 -0.38600
C 	C 	0.03493 0.46967 0.02357 0.08600
C 	C 	0.09723 0.48447 0.87814 -0.03100
C 	C 	0.11833 0.42507 0.86089 0.32900
C 	C 	0.06793 0.46947 0.91145 -0.07000
H 	H 	0.05823 0.42087 0.92257 0.09400
O 	O 	0.02860 0.23930 0.38080 -0.13000
C 	C 	0.08940 0.27230 0.32190 0.00300
O 	O 	0.96180 0.18520 0.16388 -0.39000
O 	O 	0.92110 0.22540 0.21150 -0.38600
C 	C 	0.10140 0.29840 0.35690 0.08600
C 	C 	0.05390 0.23610 0.21147 -0.03000
C 	C 	0.97340 0.21500 0.19422 0.32900
C 	C 	0.06820 0.26540 0.24478 -0.07000
H 	H 	0.02930 0.27510 0.25590 0.09400
O 	O 	0.69527 0.57263 0.71413 -0.13000
C 	C 	0.75607 0.60563 0.65523 0.00300
O 	O 	0.62847 0.51853 0.49721 -0.39000
O 	O 	0.58777 0.55873 0.54483 -0.38600
C 	C 	0.76807 0.63173 0.69023 0.08600
C 	C 	0.72057 0.56943 0.54480 -0.03100
C 	C 	0.64007 0.54833 0.52755 0.32900
C 	C 	0.73487 0.59873 0.57811 -0.07000
H 	H 	0.69597 0.60843 0.58923 0.09400
O 	O 	0.36193 0.90597 0.04747 -0.13000
C 	C 	0.42273 0.93897 0.98857 0.00300
O 	O 	0.29513 0.85187 0.83055 -0.39000
O 	O 	0.25443 0.89207 0.87817 -0.38600
C 	C 	0.43473 0.96507 0.02357 0.08600
C 	C 	0.38723 0.90277 0.87814 -0.03100
C 	C 	0.30673 0.88167 0.86089 0.32900
C 	C 	0.40153 0.93207 0.91145 -0.07000
H 	H 	0.36263 0.94177 0.92257 0.09400
O 	O 	0.21070 0.97140 0.38080 -0.13000
C 	C 	0.18290 0.91060 0.32190 0.00300
O 	O 	0.22340 0.03820 0.16388 -0.39000
O 	O 	0.30430 0.07890 0.21150 -0.38600
C 	C 	0.19700 0.89860 0.35690 0.08600
C 	C 	0.18220 0.94610 0.21147 -0.03000
C 	C 	0.24160 0.02660 0.19422 0.32900
C 	C 	0.19720 0.93180 0.24478 -0.07000
H 	H 	0.24580 0.97070 0.25590 0.09400
O 	O 	0.87737 0.30473 0.71413 -0.13000
C 	C 	0.84957 0.24393 0.65523 0.00300
O 	O 	0.89007 0.37153 0.49721 -0.39000
O 	O 	0.97097 0.41223 0.54483 -0.38600
C 	C 	0.86367 0.23193 0.69023 0.08600
C 	C 	0.84887 0.27943 0.54480 -0.03100
C 	C 	0.90827 0.35993 0.52755 0.32900
C 	C 	0.86387 0.26513 0.57811 -0.07000
H 	H 	0.91247 0.30403 0.58923 0.09400
O 	O 	0.54403 0.63807 0.04747 -0.13000
C 	C 	0.51623 0.57727 0.98857 0.00300
O 	O 	0.55673 0.70487 0.83055 -0.39000
O 	O 	0.63763 0.74557 0.87817 -0.38600
C 	C 	0.53033 0.56527 0.02357 0.08600
C 	C 	0.51553 0.61277 0.87814 -0.03100
C 	C 	0.57493 0.69327 0.86089 0.32900
C 	C 	0.53053 0.59847 0.91145 -0.07000
H 	H 	0.57913 0.63737 0.92257 0.09400
O 	O 	0.21070 0.23930 0.38080 -0.13000
C 	C 	0.18290 0.27230 0.32190 0.00300
O 	O 	0.22340 0.18520 0.16388 -0.39000
O 	O 	0.30430 0.22540 0.21150 -0.38600
C 	C 	0.19700 0.29840 0.35690 0.08600
C 	C 	0.18220 0.23610 0.21147 -0.03100
C 	C 	0.24160 0.21500 0.19422 0.32900
C 	C 	0.19720 0.26540 0.24478 -0.07000
H 	H 	0.24580 0.27510 0.25590 0.09400
O 	O 	0.87737 0.57263 0.71413 -0.13000
C 	C 	0.84957 0.60563 0.65523 0.00300
O 	O 	0.89007 0.51853 0.49721 -0.39000
O 	O 	0.97097 0.55873 0.54483 -0.38600
C 	C 	0.86367 0.63173 0.69023 0.08600
C 	C 	0.84887 0.56943 0.54480 -0.03100
C 	C 	0.90827 0.54833 0.52755 0.32900
C 	C 	0.86387 0.59873 0.57811 -0.07000
H 	H 	0.91247 0.60843 0.58923 0.09400
O 	O 	0.54403 0.90597 0.04747 -0.13000
C 	C 	0.51623 0.93897 0.98857 0.00300
O 	O 	0.55673 0.85187 0.83055 -0.39000
O 	O 	0.63763 0.89207 0.87817 -0.38600
C 	C 	0.53033 0.96507 0.02357 0.08600
C 	C 	0.51553 0.90277 0.87814 -0.03100
C 	C 	0.57493 0.88167 0.86089 0.32900
C 	C 	0.53053 0.93207 0.91145 -0.07000
H 	H 	0.57913 0.94177 0.92257 0.09400
O 	O 	0.76070 0.97140 0.38080 -0.13000
C 	C 	0.72770 0.91060 0.32190 0.00300
O 	O 	0.81480 0.03820 0.16388 -0.39000
O 	O 	0.77460 0.07890 0.21150 -0.38600
C 	C 	0.70160 0.89860 0.35690 0.08600
C 	C 	0.76390 0.94610 0.21147 -0.03000
C 	C 	0.78500 0.02660 0.19422 0.32900
C 	C 	0.73460 0.93180 0.24478 -0.07000
H 	H 	0.72490 0.97070 0.25590 0.09400
O 	O 	0.42737 0.30473 0.71413 -0.13000
C 	C 	0.39437 0.24393 0.65523 0.00300
O 	O 	0.48147 0.37153 0.49721 -0.39000
O 	O 	0.44127 0.41223 0.54483 -0.38600
C 	C 	0.36827 0.23193 0.69023 0.08600
C 	C 	0.43057 0.27943 0.54480 -0.03100
C 	C 	0.45167 0.35993 0.52755 0.32900
C 	C 	0.40127 0.26513 0.57811 -0.07000
H 	H 	0.39157 0.30403 0.58923 0.09400
O 	O 	0.09403 0.63807 0.04747 -0.13000
C 	C 	0.06103 0.57727 0.98857 0.00300
O 	O 	0.14813 0.70487 0.83055 -0.39000
O 	O 	0.10793 0.74557 0.87817 -0.38600
C 	C 	0.03493 0.56527 0.02357 0.08600
C 	C 	0.09723 0.61277 0.87814 -0.03100
C 	C 	0.11833 0.69327 0.86089 0.32900
C 	C 	0.06793 0.59847 0.91145 -0.07000
H 	H 	0.05823 0.63737 0.92257 0.09400
O 	O 	0.02860 0.78930 0.38080 -0.13000
C 	C 	0.08940 0.81710 0.32190 0.00300
O 	O 	0.96180 0.77660 0.16388 -0.39000
O 	O 	0.92110 0.69570 0.21150 -0.38600
C 	C 	0.10140 0.80300 0.35690 0.08600
C 	C 	0.05390 0.81780 0.21147 -0.03000
C 	C 	0.97340 0.75840 0.19422 0.32900
C 	C 	0.06820 0.80280 0.24478 -0.07000
H 	H 	0.02930 0.75420 0.25590 0.09400
O 	O 	0.69527 0.12263 0.71413 -0.13000
C 	C 	0.75607 0.15043 0.65523 0.00300
O 	O 	0.62847 0.10993 0.49721 -0.39000
O 	O 	0.58777 0.02903 0.54483 -0.38600
C 	C 	0.76807 0.13633 0.69023 0.08600
C 	C 	0.72057 0.15113 0.54480 -0.03100
C 	C 	0.64007 0.09173 0.52755 0.32900
C 	C 	0.73487 0.13613 0.57811 -0.07000
H 	H 	0.69597 0.08753 0.58923 0.09400
O 	O 	0.36193 0.45597 0.04747 -0.13000
C 	C 	0.42273 0.48377 0.98857 0.00300
O 	O 	0.29513 0.44327 0.83055 -0.39000
O 	O 	0.25443 0.36237 0.87817 -0.38600
C 	C 	0.43473 0.46967 0.02357 0.08600
C 	C 	0.38723 0.48447 0.87814 -0.03100
C 	C 	0.30673 0.42507 0.86089 0.32900
C 	C 	0.40153 0.46947 0.91145 -0.07000
H 	H 	0.36263 0.42087 0.92257 0.09400
O 	O 	0.23930 0.21070 0.61920 -0.13000
C 	C 	0.27230 0.18290 0.67810 0.00300
O 	O 	0.18520 0.22340 0.83612 -0.39000
O 	O 	0.22540 0.30430 0.78850 -0.38600
C 	C 	0.29840 0.19700 0.64310 0.08600
C 	C 	0.23610 0.18220 0.78853 -0.03100
C 	C 	0.21500 0.24160 0.80578 0.32900
C 	C 	0.26540 0.19720 0.75522 -0.07000
H 	H 	0.27510 0.24580 0.74410 0.09400
O 	O 	0.90597 0.54403 0.95253 -0.13000
C 	C 	0.93897 0.51623 0.01143 0.00300
O 	O 	0.85187 0.55673 0.16945 -0.39000
O 	O 	0.89207 0.63763 0.12183 -0.38600
C 	C 	0.96507 0.53033 0.97643 0.08600
C 	C 	0.90277 0.51553 0.12186 -0.03100
C 	C 	0.88167 0.57493 0.13911 0.32900
C 	C 	0.93207 0.53053 0.08855 -0.07000
H 	H 	0.94177 0.57913 0.07743 0.09400
O 	O 	0.57263 0.87737 0.28587 -0.13000
C 	C 	0.60563 0.84957 0.34477 0.00300
O 	O 	0.51853 0.89007 0.50279 -0.39000
O 	O 	0.55873 0.97097 0.45517 -0.38600
C 	C 	0.63173 0.86367 0.30977 0.08600
C 	C 	0.56943 0.84887 0.45520 -0.03100
C 	C 	0.54833 0.90827 0.47245 0.32900
C 	C 	0.59873 0.86387 0.42189 -0.07000
H 	H 	0.60843 0.91247 0.41077 0.09400
O 	O 	0.97140 0.76070 0.61920 -0.13000
C 	C 	0.91060 0.72770 0.67810 0.00300
O 	O 	0.03820 0.81480 0.83612 -0.39000
O 	O 	0.07890 0.77460 0.78850 -0.38600
C 	C 	0.89860 0.70160 0.64310 0.08600
C 	C 	0.94610 0.76390 0.78853 -0.03000
C 	C 	0.02660 0.78500 0.80578 0.32900
C 	C 	0.93180 0.73460 0.75522 -0.07000
H 	H 	0.97070 0.72490 0.74410 0.09400
O 	O 	0.63807 0.09403 0.95253 -0.13000
C 	C 	0.57727 0.06103 0.01143 0.00300
O 	O 	0.70487 0.14813 0.16945 -0.39000
O 	O 	0.74557 0.10793 0.12183 -0.38600
C 	C 	0.56527 0.03493 0.97643 0.08600
C 	C 	0.61277 0.09723 0.12186 -0.03100
C 	C 	0.69327 0.11833 0.13911 0.32900
C 	C 	0.59847 0.06793 0.08855 -0.07000
H 	H 	0.63737 0.05823 0.07743 0.09400
O 	O 	0.30473 0.42737 0.28587 -0.13000
C 	C 	0.24393 0.39437 0.34477 0.00300
O 	O 	0.37153 0.48147 0.50279 -0.39000
O 	O 	0.41223 0.44127 0.45517 -0.38600
C 	C 	0.23193 0.36827 0.30977 0.08600
C 	C 	0.27943 0.43057 0.45520 -0.03100
C 	C 	0.35993 0.45167 0.47245 0.32900
C 	C 	0.26513 0.40127 0.42189 -0.07000
H 	H 	0.30403 0.39157 0.41077 0.09400
O 	O 	0.78930 0.02860 0.61920 -0.13000
C 	C 	0.81710 0.08940 0.67810 0.00300
O 	O 	0.77660 0.96180 0.83612 -0.39000
O 	O 	0.69570 0.92110 0.78850 -0.38600
C 	C 	0.80300 0.10140 0.64310 0.08600
C 	C 	0.81780 0.05390 0.78853 -0.03000
C 	C 	0.75840 0.97340 0.80578 0.32900
C 	C 	0.80280 0.06820 0.75522 -0.07000
H 	H 	0.75420 0.02930 0.74410 0.09400
O 	O 	0.45597 0.36193 0.95253 -0.13000
C 	C 	0.48377 0.42273 0.01143 0.00300
O 	O 	0.44327 0.29513 0.16945 -0.39000
O 	O 	0.36237 0.25443 0.12183 -0.38600
C 	C 	0.46967 0.43473 0.97643 0.08600
C 	C 	0.48447 0.38723 0.12186 -0.03100
C 	C 	0.42507 0.30673 0.13911 0.32900
C 	C 	0.46947 0.40153 0.08855 -0.07000
H 	H 	0.42087 0.36263 0.07743 0.09400
O 	O 	0.12263 0.69527 0.28587 -0.13000
C 	C 	0.15043 0.75607 0.34477 0.00300
O 	O 	0.10993 0.62847 0.50279 -0.39000
O 	O 	0.02903 0.58777 0.45517 -0.38600
C 	C 	0.13633 0.76807 0.30977 0.08600
C 	C 	0.15113 0.72057 0.45520 -0.03100
C 	C 	0.09173 0.64007 0.47245 0.32900
C 	C 	0.13613 0.73487 0.42189 -0.07000
H 	H 	0.08753 0.69597 0.41077 0.09400
Cu	Cu	0.71431 0.85716 0.86087 0.90900
Cu	Cu	0.38098 0.19049 0.19420 0.90900
Cu	Cu	0.04764 0.52382 0.52754 0.90900
Cu	Cu	0.14285 0.85716 0.86087 0.90900
Cu	Cu	0.80951 0.19049 0.19420 0.90900
Cu	Cu	0.47618 0.52382 0.52754 0.90900
Cu	Cu	0.14285 0.28569 0.86087 0.90900
Cu	Cu	0.80951 0.61902 0.19420 0.90900
Cu	Cu	0.47618 0.95236 0.52754 0.90900
Cu	Cu	0.85716 0.71431 0.13913 0.90900
Cu	Cu	0.52382 0.04764 0.47246 0.90900
Cu	Cu	0.19049 0.38098 0.80580 0.90900
Cu	Cu	0.85715 0.14285 0.13913 0.90900
Cu	Cu	0.52382 0.47618 0.47246 0.90900
Cu	Cu	0.19049 0.80951 0.80580 0.90900
Cu	Cu	0.28569 0.14285 0.13913 0.90900
Cu	Cu	0.95236 0.47618 0.47246 0.90900
Cu	Cu	0.61902 0.80951 0.80580 0.90900
C 	C 	0.84555 0.69110 0.70120 -0.07100
C 	C 	0.88970 0.77940 0.80531 -0.01400
H 	H 	0.90000 0.80000 0.82770 0.07400
C 	C 	0.85965 0.71930 0.73810 0.09100
C 	C 	0.51222 0.02443 0.03453 -0.07100
C 	C 	0.55637 0.11273 0.13864 -0.01300
H 	H 	0.56667 0.13333 0.16103 0.07400
C 	C 	0.52632 0.05263 0.07143 0.09100
C 	C 	0.17888 0.35777 0.36787 -0.07100
C 	C 	0.22303 0.44607 0.47198 -0.01300
H 	H 	0.23333 0.46667 0.49437 0.07400
C 	C 	0.19298 0.38597 0.40477 0.09100
C 	C 	0.30890 0.15445 0.70120 -0.07100
C 	C 	0.22060 0.11030 0.80531 -0.01400
H 	H 	0.20000 0.10000 0.82770 0.07400
C 	C 	0.28070 0.14035 0.73810 0.09100
C 	C 	0.97557 0.48778 0.03453 -0.07100
C 	C 	0.88727 0.44363 0.13864 -0.01300
H 	H 	0.86667 0.43333 0.16103 0.07400
C 	C 	0.94737 0.47368 0.07143 0.09100
C 	C 	0.64223 0.82112 0.36787 -0.07100
C 	C 	0.55393 0.77697 0.47198 -0.01300
H 	H 	0.53333 0.76667 0.49437 0.07400
C 	C 	0.61403 0.80702 0.40477 0.09100
C 	C 	0.84555 0.15445 0.70120 -0.07100
C 	C 	0.88970 0.11030 0.80531 -0.01400
H 	H 	0.90000 0.10000 0.82770 0.07400
C 	C 	0.85965 0.14035 0.73810 0.09100
C 	C 	0.51222 0.48778 0.03453 -0.07100
C 	C 	0.55637 0.44363 0.13864 -0.01300
H 	H 	0.56667 0.43333 0.16103 0.07400
C 	C 	0.52632 0.47368 0.07143 0.09100
C 	C 	0.17888 0.82112 0.36787 -0.07100
C 	C 	0.22303 0.77697 0.47198 -0.01300
H 	H 	0.23333 0.76667 0.49437 0.07400
C 	C 	0.19298 0.80702 0.40477 0.09100
C 	C 	0.69110 0.84555 0.29880 -0.07100
C 	C 	0.77940 0.88970 0.19469 -0.01400
H 	H 	0.80000 0.90000 0.17230 0.07400
C 	C 	0.71930 0.85965 0.26190 0.09100
C 	C 	0.35777 0.17888 0.63213 -0.07100
C 	C 	0.44607 0.22303 0.52802 -0.01300
H 	H 	0.46667 0.23333 0.50563 0.07400
C 	C 	0.38597 0.19298 0.59523 0.09100
C 	C 	0.02443 0.51222 0.96547 -0.07100
C 	C 	0.11273 0.55637 0.86136 -0.01300
H 	H 	0.13333 0.56667 0.83897 0.07400
C 	C 	0.05263 0.52632 0.92857 0.09100
C 	C 	0.15445 0.30890 0.29880 -0.07100
C 	C 	0.11030 0.22060 0.19469 -0.01400
H 	H 	0.10000 0.20000 0.17230 0.07400
C 	C 	0.14035 0.28070 0.26190 0.09100
C 	C 	0.82112 0.64223 0.63213 -0.07100
C 	C 	0.77697 0.55393 0.52802 -0.01300
H 	H 	0.76667 0.53333 0.50563 0.07400
C 	C 	0.80702 0.61403 0.59523 0.09100
C 	C 	0.48778 0.97557 0.96547 -0.07100
C 	C 	0.44363 0.88727 0.86136 -0.01300
H 	H 	0.43333 0.86667 0.83897 0.07400
C 	C 	0.47368 0.94737 0.92857 0.09100
C 	C 	0.15445 0.84555 0.29880 -0.07100
C 	C 	0.11030 0.88970 0.19469 -0.01400
H 	H 	0.10000 0.90000 0.17230 0.07400
C 	C 	0.14035 0.85965 0.26190 0.09100
C 	C 	0.82112 0.17888 0.63213 -0.07100
C 	C 	0.77697 0.22303 0.52802 -0.01300
H 	H 	0.76667 0.23333 0.50563 0.07400
C 	C 	0.80702 0.19298 0.59523 0.09100
C 	C 	0.48778 0.51222 0.96547 -0.07100
C 	C 	0.44363 0.55637 0.86136 -0.01300
H 	H 	0.43333 0.56667 0.83897 0.07400
C 	C 	0.47368 0.52632 0.92857 0.09100
