data_crystal

_cell_length_a 10.00090
_cell_length_b 15.47200
_cell_length_c 18.56300
_cell_angle_alpha 90.00000
_cell_angle_beta  91.81100
_cell_angle_gamma 90.00000

_symmetry_space_group_name_	'P 1'
_symmetry_space_group_name_H-M	'P 1'

loop_
_symmetry_equiv_pos_as_xyz
  x,y,z

loop_
_atom_site_label
_atom_site_type_symbol
_atom_site_fract_x
_atom_site_fract_y
_atom_site_fract_z
_atom_site_charge
Co	Co	0.09124 0.20161 0.67983 1.17200
C 	C 	0.37410 0.19950 0.65140 0.35600
C 	C 	0.48890 0.18020 0.60410 0.00300
C 	C 	0.61820 0.19200 0.62970 -0.09100
H 	H 	0.63470 0.21140 0.67660 0.08700
C 	C 	0.72400 0.17470 0.58540 0.03500
C 	C 	0.70040 0.14220 0.51720 -0.22500
H 	H 	0.77170 0.13030 0.48770 0.12800
C 	C 	0.57160 0.12720 0.49260 0.28700
C 	C 	0.46610 0.14660 0.53600 -0.21400
H 	H 	0.37880 0.13680 0.51920 0.11500
C 	C 	0.86730 0.18820 0.61570 0.26800
C 	C 	0.16510 0.00880 0.66290 0.05700
H 	H 	0.22960 0.03160 0.63330 0.02100
C 	C 	0.15810 0.92130 0.67040 -0.07900
H 	H 	0.21930 0.88640 0.64750 0.07400
C 	C 	0.06180 0.88390 0.71170 -0.02700
C 	C 	0.97630 0.94220 0.74460 -0.08200
H 	H 	0.90920 0.92130 0.77350 0.05200
C 	C 	0.98930 0.02780 0.73550 0.05900
H 	H 	0.92960 0.06430 0.75780 0.00900
C 	C 	0.05200 0.78810 0.71830 0.24500
C 	C 	0.98900 0.75230 0.78440 -0.72500
H 	H 	0.89310 0.75790 0.77960 0.23300
H 	H 	0.02040 0.78370 0.82610 0.25100
H 	H 	0.01180 0.69230 0.78980 0.25000
C 	C 	0.12840 0.61160 0.63150 0.31400
C 	C 	0.18000 0.64760 0.56500 -0.86700
H 	H 	0.14490 0.70490 0.55780 0.30400
H 	H 	0.15210 0.61170 0.52500 0.28200
H 	H 	0.27560 0.64980 0.56840 0.28600
C 	C 	0.12040 0.51670 0.63990 -0.07100
C 	C 	0.15300 0.45900 0.59220 -0.06200
H 	H 	0.18080 0.47840 0.54770 0.03600
C 	C 	0.15000 0.37020 0.60400 0.05100
H 	H 	0.18260 0.33330 0.56930 0.00700
C 	C 	0.06900 0.39240 0.70660 0.06000
H 	H 	0.03550 0.37120 0.74920 0.00900
C 	C 	0.07900 0.48160 0.69960 -0.06200
H 	H 	0.05530 0.51690 0.73770 0.04800
N 	N 	0.08420 0.06300 0.69560 -0.21900
N 	N 	0.09890 0.74690 0.66890 -0.14500
N 	N 	0.09110 0.65550 0.67960 -0.17000
N 	N 	0.10280 0.33830 0.66070 -0.22400
O 	O 	0.25850 0.18660 0.62390 -0.43400
O 	O 	0.39610 0.22480 0.71360 -0.46800
O 	O 	0.88280 0.20930 0.67920 -0.38400
O 	O 	0.96340 0.17480 0.57570 -0.34300
O 	O 	0.55350 0.09240 0.42530 -0.45600
H 	H 	0.47490 0.07870 0.41890 0.25100
Co	Co	0.40876 0.20161 0.82017 1.17200
C 	C 	0.12590 0.19950 0.84860 0.35900
C 	C 	0.01110 0.18020 0.89590 -0.00600
C 	C 	0.88180 0.19200 0.87030 -0.08100
H 	H 	0.86530 0.21140 0.82340 0.08400
C 	C 	0.77600 0.17470 0.91460 0.02600
C 	C 	0.79960 0.14220 0.98280 -0.20900
H 	H 	0.72830 0.13030 0.01230 0.12100
C 	C 	0.92840 0.12720 0.00740 0.27600
C 	C 	0.03390 0.14660 0.96400 -0.20500
H 	H 	0.12120 0.13680 0.98080 0.11300
C 	C 	0.63270 0.18820 0.88430 0.27200
C 	C 	0.33490 0.00880 0.83710 0.05700
H 	H 	0.27040 0.03160 0.86670 0.02100
C 	C 	0.34190 0.92130 0.82960 -0.07900
H 	H 	0.28070 0.88640 0.85250 0.07300
C 	C 	0.43820 0.88390 0.78830 -0.02900
C 	C 	0.52370 0.94220 0.75540 -0.07900
H 	H 	0.59080 0.92130 0.72650 0.05000
C 	C 	0.51070 0.02780 0.76450 0.05400
H 	H 	0.57040 0.06430 0.74220 0.01000
C 	C 	0.44800 0.78810 0.78170 0.25000
C 	C 	0.51100 0.75230 0.71560 -0.74000
H 	H 	0.60690 0.75790 0.72040 0.23700
H 	H 	0.47960 0.78370 0.67390 0.25600
H 	H 	0.48820 0.69230 0.71020 0.25500
C 	C 	0.37160 0.61160 0.86850 0.31300
C 	C 	0.32000 0.64760 0.93500 -0.86600
H 	H 	0.35510 0.70490 0.94220 0.30400
H 	H 	0.34790 0.61170 0.97500 0.28100
H 	H 	0.22440 0.64980 0.93160 0.28500
C 	C 	0.37960 0.51670 0.86010 -0.07100
C 	C 	0.34700 0.45900 0.90780 -0.06200
H 	H 	0.31920 0.47840 0.95230 0.03600
C 	C 	0.35000 0.37020 0.89600 0.05100
H 	H 	0.31740 0.33330 0.93070 0.00700
C 	C 	0.43100 0.39240 0.79340 0.06000
H 	H 	0.46450 0.37120 0.75080 0.00900
C 	C 	0.42100 0.48160 0.80040 -0.06200
H 	H 	0.44470 0.51690 0.76230 0.04800
N 	N 	0.41580 0.06300 0.80440 -0.21800
N 	N 	0.40110 0.74690 0.83110 -0.14600
N 	N 	0.40890 0.65550 0.82040 -0.16900
N 	N 	0.39720 0.33830 0.83930 -0.22300
O 	O 	0.24150 0.18660 0.87610 -0.43500
O 	O 	0.10390 0.22480 0.78640 -0.46900
O 	O 	0.61720 0.20930 0.82080 -0.38500
O 	O 	0.53660 0.17480 0.92430 -0.34400
O 	O 	0.94650 0.09240 0.07470 -0.45500
H 	H 	0.02510 0.07870 0.08110 0.25100
Co	Co	0.90876 0.79839 0.32017 1.17200
C 	C 	0.62590 0.80050 0.34860 0.35600
C 	C 	0.51110 0.81980 0.39590 0.00300
C 	C 	0.38180 0.80800 0.37030 -0.09100
H 	H 	0.36530 0.78860 0.32340 0.08700
C 	C 	0.27600 0.82530 0.41460 0.03500
C 	C 	0.29960 0.85780 0.48280 -0.22500
H 	H 	0.22830 0.86970 0.51230 0.12800
C 	C 	0.42840 0.87280 0.50740 0.28700
C 	C 	0.53390 0.85340 0.46400 -0.21400
H 	H 	0.62120 0.86320 0.48080 0.11500
C 	C 	0.13270 0.81180 0.38430 0.26800
C 	C 	0.83490 0.99120 0.33710 0.05700
H 	H 	0.77040 0.96840 0.36670 0.02100
C 	C 	0.84190 0.07870 0.32960 -0.07900
H 	H 	0.78070 0.11360 0.35250 0.07400
C 	C 	0.93820 0.11610 0.28830 -0.02700
C 	C 	0.02370 0.05780 0.25540 -0.08200
H 	H 	0.09080 0.07870 0.22650 0.05200
C 	C 	0.01070 0.97220 0.26450 0.05900
H 	H 	0.07040 0.93570 0.24220 0.00900
C 	C 	0.94800 0.21190 0.28170 0.24500
C 	C 	0.01100 0.24770 0.21560 -0.72500
H 	H 	0.10690 0.24210 0.22040 0.23300
H 	H 	0.97960 0.21630 0.17390 0.25100
H 	H 	0.98820 0.30770 0.21020 0.25000
C 	C 	0.87160 0.38840 0.36850 0.31400
C 	C 	0.82000 0.35240 0.43500 -0.86700
H 	H 	0.85510 0.29510 0.44220 0.30400
H 	H 	0.84790 0.38830 0.47500 0.28200
H 	H 	0.72440 0.35020 0.43160 0.28600
C 	C 	0.87960 0.48330 0.36010 -0.07100
C 	C 	0.84700 0.54100 0.40780 -0.06200
H 	H 	0.81920 0.52160 0.45230 0.03600
C 	C 	0.85000 0.62980 0.39600 0.05100
H 	H 	0.81740 0.66670 0.43070 0.00700
C 	C 	0.93100 0.60760 0.29340 0.06000
H 	H 	0.96450 0.62880 0.25080 0.00900
C 	C 	0.92100 0.51840 0.30040 -0.06200
H 	H 	0.94470 0.48310 0.26230 0.04800
N 	N 	0.91580 0.93700 0.30440 -0.21900
N 	N 	0.90110 0.25310 0.33110 -0.14500
N 	N 	0.90890 0.34450 0.32040 -0.17000
N 	N 	0.89720 0.66170 0.33930 -0.22400
O 	O 	0.74150 0.81340 0.37610 -0.43400
O 	O 	0.60390 0.77520 0.28640 -0.46800
O 	O 	0.11720 0.79070 0.32080 -0.38400
O 	O 	0.03660 0.82520 0.42430 -0.34300
O 	O 	0.44650 0.90760 0.57470 -0.45600
H 	H 	0.52510 0.92130 0.58110 0.25100
Co	Co	0.59124 0.79839 0.17983 1.17200
C 	C 	0.87410 0.80050 0.15140 0.35900
C 	C 	0.98890 0.81980 0.10410 -0.00600
C 	C 	0.11820 0.80800 0.12970 -0.08100
H 	H 	0.13470 0.78860 0.17660 0.08400
C 	C 	0.22400 0.82530 0.08540 0.02600
C 	C 	0.20040 0.85780 0.01720 -0.20900
H 	H 	0.27170 0.86970 0.98770 0.12100
C 	C 	0.07160 0.87280 0.99260 0.27600
C 	C 	0.96610 0.85340 0.03600 -0.20500
H 	H 	0.87880 0.86320 0.01920 0.11300
C 	C 	0.36730 0.81180 0.11570 0.27200
C 	C 	0.66510 0.99120 0.16290 0.05700
H 	H 	0.72960 0.96840 0.13330 0.02100
C 	C 	0.65810 0.07870 0.17040 -0.07900
H 	H 	0.71930 0.11360 0.14750 0.07300
C 	C 	0.56180 0.11610 0.21170 -0.02900
C 	C 	0.47630 0.05780 0.24460 -0.07900
H 	H 	0.40920 0.07870 0.27350 0.05000
C 	C 	0.48930 0.97220 0.23550 0.05400
H 	H 	0.42960 0.93570 0.25780 0.01000
C 	C 	0.55200 0.21190 0.21830 0.25000
C 	C 	0.48900 0.24770 0.28440 -0.74000
H 	H 	0.39310 0.24210 0.27960 0.23700
H 	H 	0.52040 0.21630 0.32610 0.25600
H 	H 	0.51180 0.30770 0.28980 0.25500
C 	C 	0.62840 0.38840 0.13150 0.31300
C 	C 	0.68000 0.35240 0.06500 -0.86600
H 	H 	0.64490 0.29510 0.05780 0.30400
H 	H 	0.65210 0.38830 0.02500 0.28100
H 	H 	0.77560 0.35020 0.06840 0.28500
C 	C 	0.62040 0.48330 0.13990 -0.07100
C 	C 	0.65300 0.54100 0.09220 -0.06200
H 	H 	0.68080 0.52160 0.04770 0.03600
C 	C 	0.65000 0.62980 0.10400 0.05100
H 	H 	0.68260 0.66670 0.06930 0.00700
C 	C 	0.56900 0.60760 0.20660 0.06000
H 	H 	0.53550 0.62880 0.24920 0.00900
C 	C 	0.57900 0.51840 0.19960 -0.06200
H 	H 	0.55530 0.48310 0.23770 0.04800
N 	N 	0.58420 0.93700 0.19560 -0.21800
N 	N 	0.59890 0.25310 0.16890 -0.14600
N 	N 	0.59110 0.34450 0.17960 -0.16900
N 	N 	0.60280 0.66170 0.16070 -0.22300
O 	O 	0.75850 0.81340 0.12390 -0.43500
O 	O 	0.89610 0.77520 0.21360 -0.46900
O 	O 	0.38280 0.79070 0.17920 -0.38500
O 	O 	0.46340 0.82520 0.07570 -0.34400
O 	O 	0.05350 0.90760 0.92530 -0.45500
H 	H 	0.97490 0.92130 0.91890 0.25100
