data_crystal

_cell_length_a 18.29880
_cell_length_b 8.92900
_cell_length_c 15.53170
_cell_angle_alpha 90.00000
_cell_angle_beta  90.00000
_cell_angle_gamma 90.00000

_symmetry_space_group_name_	'P 1'
_symmetry_space_group_name_H-M	'P 1'

loop_
_symmetry_equiv_pos_as_xyz
  x,y,z

loop_
_atom_site_label
_atom_site_type_symbol
_atom_site_fract_x
_atom_site_fract_y
_atom_site_fract_z
_atom_site_charge
Cd	Cd	0.42416 0.27667 0.15501 1.21900
O 	O 	0.56415 0.33880 0.15510 -0.33300
O 	O 	0.82770 0.77050 0.06030 -0.37000
O 	O 	0.66890 0.79130 0.79480 -0.31800
C 	C 	0.79610 0.64970 0.07910 0.30200
C 	C 	0.72370 0.61470 0.03640 -0.05000
C 	C 	0.62590 0.70170 0.82760 0.32100
C 	C 	0.55020 0.39610 0.08470 0.30200
O 	O 	0.48851 0.38440 0.04900 -0.38500
C 	C 	0.70680 0.67370 0.95690 -0.00600
H 	H 	0.73980 0.73830 0.93040 0.06300
O 	O 	0.56941 0.65440 0.79060 -0.40500
O 	O 	0.82217 0.55750 0.13100 -0.34600
C 	C 	0.60770 0.48870 0.03860 -0.05100
C 	C 	0.59290 0.54450 0.95670 -0.00900
H 	H 	0.54960 0.51800 0.92920 0.06600
C 	C 	0.64210 0.63930 0.91550 -0.06600
C 	C 	0.67430 0.52130 0.07670 0.00000
H 	H 	0.68580 0.47990 0.13000 0.06500
Cd	Cd	0.57584 0.72333 0.65501 1.21900
O 	O 	0.43585 0.66120 0.65510 -0.33600
O 	O 	0.17230 0.22950 0.56030 -0.37400
O 	O 	0.33110 0.20870 0.29480 -0.31700
C 	C 	0.20390 0.35030 0.57910 0.31200
C 	C 	0.27630 0.38530 0.53640 -0.07700
C 	C 	0.37410 0.29830 0.32760 0.32900
C 	C 	0.44980 0.60390 0.58470 0.31000
O 	O 	0.51149 0.61560 0.54900 -0.39100
C 	C 	0.29320 0.32630 0.45690 0.02600
H 	H 	0.26020 0.26170 0.43040 0.05600
O 	O 	0.43059 0.34560 0.29060 -0.40600
O 	O 	0.17783 0.44250 0.63100 -0.34900
C 	C 	0.39230 0.51130 0.53860 -0.07900
C 	C 	0.40710 0.45550 0.45670 0.02300
H 	H 	0.45040 0.48200 0.42920 0.05900
C 	C 	0.35790 0.36070 0.41550 -0.08500
C 	C 	0.32570 0.47870 0.57670 0.02200
H 	H 	0.31420 0.52010 0.63000 0.05600
Cd	Cd	0.92416 0.72333 0.15501 1.22000
O 	O 	0.06415 0.66120 0.15510 -0.33200
O 	O 	0.32770 0.22950 0.06030 -0.36900
O 	O 	0.16890 0.20870 0.79480 -0.31700
C 	C 	0.29610 0.35030 0.07910 0.30300
C 	C 	0.22370 0.38530 0.03640 -0.04800
C 	C 	0.12590 0.29830 0.82760 0.32100
C 	C 	0.05020 0.60390 0.08470 0.30300
O 	O 	0.98851 0.61560 0.04900 -0.38600
C 	C 	0.20680 0.32630 0.95690 -0.00700
H 	H 	0.23980 0.26170 0.93040 0.06300
O 	O 	0.06941 0.34560 0.79060 -0.40500
O 	O 	0.32217 0.44250 0.13100 -0.34600
C 	C 	0.10770 0.51130 0.03860 -0.05100
C 	C 	0.09290 0.45550 0.95670 -0.01000
H 	H 	0.04960 0.48200 0.92920 0.06600
C 	C 	0.14210 0.36070 0.91550 -0.06500
C 	C 	0.17430 0.47870 0.07670 0.00000
H 	H 	0.18580 0.52010 0.13000 0.06500
Cd	Cd	0.07584 0.27667 0.65501 1.21900
O 	O 	0.93585 0.33880 0.65510 -0.33600
O 	O 	0.67230 0.77050 0.56030 -0.37400
O 	O 	0.83110 0.79130 0.29480 -0.31700
C 	C 	0.70390 0.64970 0.57910 0.31200
C 	C 	0.77630 0.61470 0.53640 -0.07700
C 	C 	0.87410 0.70170 0.32760 0.32900
C 	C 	0.94980 0.39610 0.58470 0.30900
O 	O 	0.01149 0.38440 0.54900 -0.39000
C 	C 	0.79320 0.67370 0.45690 0.02600
H 	H 	0.76020 0.73830 0.43040 0.05600
O 	O 	0.93059 0.65440 0.29060 -0.40600
O 	O 	0.67783 0.55750 0.63100 -0.34900
C 	C 	0.89230 0.48870 0.53860 -0.07900
C 	C 	0.90710 0.54450 0.45670 0.02300
H 	H 	0.95040 0.51800 0.42920 0.05900
C 	C 	0.85790 0.63930 0.41550 -0.08500
C 	C 	0.82570 0.52130 0.57670 0.02200
H 	H 	0.81420 0.47990 0.63000 0.05600
