data_crystal

_cell_length_a 18.88270
_cell_length_b 9.81140
_cell_length_c 19.50130
_cell_angle_alpha 90.00000
_cell_angle_beta  108.69200
_cell_angle_gamma 90.00000

_symmetry_space_group_name_	'P 1'
_symmetry_space_group_name_H-M	'P 1'

loop_
_symmetry_equiv_pos_as_xyz
  x,y,z

loop_
_atom_site_label
_atom_site_type_symbol
_atom_site_fract_x
_atom_site_fract_y
_atom_site_fract_z
_atom_site_charge
C 	C 	0.43398 0.27440 0.14011 0.10000
H 	H 	0.44910 0.30960 0.18800 -0.00400
C 	C 	0.47452 0.16830 0.12459 -0.17300
H 	H 	0.51620 0.13160 0.16140 0.09500
C 	C 	0.45411 0.11570 0.05486 0.14300
C 	C 	0.39287 0.17440 0.00412 -0.16600
H 	H 	0.37700 0.14190 0.95570 0.09300
C 	C 	0.35465 0.27970 0.02344 0.09600
H 	H 	0.31280 0.31820 0.98760 0.01300
C 	C 	0.49713 0.99800 0.03772 -0.16100
H 	H 	0.54820 0.99760 0.07310 0.07700
H 	H 	0.47250 0.91170 0.04380 0.08500
C 	C 	0.20978 0.60940 0.00620 0.28600
C 	C 	0.20017 0.67100 0.07411 -0.01000
C 	C 	0.14903 0.77150 0.07411 -0.05300
H 	H 	0.11530 0.80490 0.03000 0.05300
C 	C 	0.14804 0.82300 0.14035 0.01800
H 	H 	0.11340 0.89200 0.14210 0.03900
C 	C 	0.30178 0.27220 0.29645 -0.09700
C 	C 	0.24756 0.66960 0.19895 0.06900
H 	H 	0.28170 0.63400 0.24230 0.02500
C 	C 	0.29658 0.32780 0.22294 0.32000
Cu	Cu	0.31738 0.47899 0.11862 0.89600
N 	N 	0.37438 0.32980 0.09090 -0.23100
N 	N 	0.24837 0.62000 0.13555 -0.20300
O 	O 	0.26143 0.52129 0.01666 -0.36800
O 	O 	0.34504 0.41524 0.22069 -0.38900
O 	O 	0.16810 0.64617 0.94596 -0.24800
O 	O 	0.24484 0.28790 0.16894 -0.30000
C 	C 	0.06602 0.77440 0.35989 0.09900
H 	H 	0.05090 0.80960 0.31200 -0.00500
C 	C 	0.02548 0.66830 0.37541 -0.17500
H 	H 	0.98380 0.63160 0.33860 0.09400
C 	C 	0.04589 0.61570 0.44514 0.14000
C 	C 	0.10713 0.67440 0.49588 -0.16900
H 	H 	0.12300 0.64190 0.54430 0.09400
C 	C 	0.14535 0.77970 0.47656 0.09600
H 	H 	0.18720 0.81820 0.51240 0.01400
C 	C 	0.00287 0.49800 0.46228 -0.16000
H 	H 	0.95180 0.49760 0.42690 0.07700
H 	H 	0.02750 0.41170 0.45620 0.08500
C 	C 	0.29022 0.10940 0.49380 0.28800
C 	C 	0.29983 0.17100 0.42589 -0.01100
C 	C 	0.35097 0.27150 0.42589 -0.05200
H 	H 	0.38470 0.30490 0.47000 0.05400
C 	C 	0.35196 0.32300 0.35965 0.01800
H 	H 	0.38660 0.39200 0.35790 0.03900
C 	C 	0.19822 0.77220 0.20355 -0.09800
C 	C 	0.25244 0.16960 0.30105 0.06900
H 	H 	0.21830 0.13400 0.25770 0.02500
C 	C 	0.20342 0.82780 0.27706 0.32000
Cu	Cu	0.18262 0.97899 0.38138 0.89600
N 	N 	0.12562 0.82980 0.40910 -0.23100
N 	N 	0.25163 0.12000 0.36445 -0.20300
O 	O 	0.23857 0.02129 0.48334 -0.36800
O 	O 	0.15496 0.91524 0.27931 -0.38900
O 	O 	0.33190 0.14617 0.55404 -0.25000
O 	O 	0.25516 0.78790 0.33106 -0.30000
C 	C 	0.56602 0.72560 0.85989 0.09900
H 	H 	0.55090 0.69040 0.81200 -0.00500
C 	C 	0.52548 0.83170 0.87541 -0.17400
H 	H 	0.48380 0.86840 0.83860 0.09400
C 	C 	0.54589 0.88430 0.94514 0.14200
C 	C 	0.60713 0.82560 0.99588 -0.16700
H 	H 	0.62300 0.85810 0.04430 0.09300
C 	C 	0.64535 0.72030 0.97656 0.09600
H 	H 	0.68720 0.68180 0.01240 0.01300
C 	C 	0.50287 0.00200 0.96228 -0.16100
H 	H 	0.45180 0.00240 0.92690 0.07700
H 	H 	0.52750 0.08830 0.95620 0.08500
C 	C 	0.79022 0.39060 0.99380 0.28600
C 	C 	0.79983 0.32900 0.92589 -0.01000
C 	C 	0.85097 0.22850 0.92589 -0.05300
H 	H 	0.88470 0.19510 0.97000 0.05300
C 	C 	0.85196 0.17700 0.85965 0.01800
H 	H 	0.88660 0.10800 0.85790 0.03900
C 	C 	0.69822 0.72780 0.70355 -0.09700
C 	C 	0.75244 0.33040 0.80105 0.06900
H 	H 	0.71830 0.36600 0.75770 0.02500
C 	C 	0.70342 0.67220 0.77706 0.32000
Cu	Cu	0.68262 0.52101 0.88138 0.89600
N 	N 	0.62562 0.67020 0.90910 -0.23100
N 	N 	0.75163 0.38000 0.86445 -0.20300
O 	O 	0.73857 0.47871 0.98334 -0.36800
O 	O 	0.65496 0.58476 0.77931 -0.38900
O 	O 	0.83190 0.35383 0.05404 -0.24800
O 	O 	0.75516 0.71210 0.83106 -0.30000
C 	C 	0.93398 0.22560 0.64011 0.09900
H 	H 	0.94910 0.19040 0.68800 -0.00500
C 	C 	0.97452 0.33170 0.62459 -0.17500
H 	H 	0.01620 0.36840 0.66140 0.09400
C 	C 	0.95411 0.38430 0.55486 0.14000
C 	C 	0.89287 0.32560 0.50412 -0.16900
H 	H 	0.87700 0.35810 0.45570 0.09400
C 	C 	0.85465 0.22030 0.52344 0.09600
H 	H 	0.81280 0.18180 0.48760 0.01400
C 	C 	0.99713 0.50200 0.53772 -0.16000
H 	H 	0.04820 0.50240 0.57310 0.07700
H 	H 	0.97250 0.58830 0.54380 0.08500
C 	C 	0.70978 0.89060 0.50620 0.28800
C 	C 	0.70017 0.82900 0.57411 -0.01100
C 	C 	0.64903 0.72850 0.57411 -0.05200
H 	H 	0.61530 0.69510 0.53000 0.05400
C 	C 	0.64804 0.67700 0.64035 0.01800
H 	H 	0.61340 0.60800 0.64210 0.03900
C 	C 	0.80178 0.22780 0.79645 -0.09800
C 	C 	0.74756 0.83040 0.69895 0.06900
H 	H 	0.78170 0.86600 0.74230 0.02500
C 	C 	0.79658 0.17220 0.72294 0.32000
Cu	Cu	0.81738 0.02101 0.61862 0.89600
N 	N 	0.87438 0.17020 0.59090 -0.23100
N 	N 	0.74837 0.88000 0.63555 -0.20300
O 	O 	0.76143 0.97871 0.51666 -0.36800
O 	O 	0.84504 0.08476 0.72069 -0.38900
O 	O 	0.66810 0.85383 0.44596 -0.25000
O 	O 	0.74484 0.21210 0.66894 -0.30000
C 	C 	0.93398 0.77440 0.14011 0.09700
H 	H 	0.94910 0.80960 0.18800 -0.00400
C 	C 	0.97452 0.66830 0.12459 -0.17100
H 	H 	0.01620 0.63160 0.16140 0.09200
C 	C 	0.95411 0.61570 0.05486 0.13800
C 	C 	0.89287 0.67440 0.00412 -0.16600
H 	H 	0.87700 0.64190 0.95570 0.09300
C 	C 	0.85465 0.77970 0.02344 0.09400
H 	H 	0.81280 0.81820 0.98760 0.01400
C 	C 	0.99713 0.49800 0.03772 -0.15800
H 	H 	0.04820 0.49760 0.07310 0.07600
H 	H 	0.97250 0.41170 0.04380 0.08500
C 	C 	0.70978 0.10940 0.00620 0.29100
C 	C 	0.70017 0.17100 0.07411 -0.01100
C 	C 	0.64903 0.27150 0.07411 -0.05200
H 	H 	0.61530 0.30490 0.03000 0.05400
C 	C 	0.64804 0.32300 0.14035 0.01800
H 	H 	0.61340 0.39200 0.14210 0.03900
C 	C 	0.80178 0.77220 0.29645 -0.09800
C 	C 	0.74756 0.16960 0.19895 0.07000
H 	H 	0.78170 0.13400 0.24230 0.02500
C 	C 	0.79658 0.82780 0.22294 0.32000
Cu	Cu	0.81738 0.97899 0.11862 0.89600
N 	N 	0.87438 0.82980 0.09090 -0.23100
N 	N 	0.74837 0.12000 0.13555 -0.20300
O 	O 	0.76143 0.02129 0.01666 -0.36700
O 	O 	0.84504 0.91524 0.22069 -0.38900
O 	O 	0.66810 0.14617 0.94596 -0.25200
O 	O 	0.74484 0.78790 0.16894 -0.30000
C 	C 	0.56602 0.27440 0.35989 0.09900
H 	H 	0.55090 0.30960 0.31200 -0.00500
C 	C 	0.52548 0.16830 0.37541 -0.17400
H 	H 	0.48380 0.13160 0.33860 0.09400
C 	C 	0.54589 0.11570 0.44514 0.14000
C 	C 	0.60713 0.17440 0.49588 -0.16800
H 	H 	0.62300 0.14190 0.54430 0.09400
C 	C 	0.64535 0.27970 0.47656 0.09600
H 	H 	0.68720 0.31820 0.51240 0.01400
C 	C 	0.50287 0.99800 0.46228 -0.15900
H 	H 	0.45180 0.99760 0.42690 0.07700
H 	H 	0.52750 0.91170 0.45620 0.08500
C 	C 	0.79022 0.60940 0.49380 0.28800
C 	C 	0.79983 0.67100 0.42589 -0.01100
C 	C 	0.85097 0.77150 0.42589 -0.05200
H 	H 	0.88470 0.80490 0.47000 0.05400
C 	C 	0.85196 0.82300 0.35965 0.01800
H 	H 	0.88660 0.89200 0.35790 0.03900
C 	C 	0.69822 0.27220 0.20355 -0.09700
C 	C 	0.75244 0.66960 0.30105 0.06900
H 	H 	0.71830 0.63400 0.25770 0.02500
C 	C 	0.70342 0.32780 0.27706 0.32000
Cu	Cu	0.68262 0.47899 0.38138 0.89600
N 	N 	0.62562 0.32980 0.40910 -0.23100
N 	N 	0.75163 0.62000 0.36445 -0.20300
O 	O 	0.73857 0.52129 0.48334 -0.36800
O 	O 	0.65496 0.41524 0.27931 -0.38900
O 	O 	0.83190 0.64617 0.55404 -0.25000
O 	O 	0.75516 0.28790 0.33106 -0.30000
C 	C 	0.06602 0.22560 0.85989 0.09700
H 	H 	0.05090 0.19040 0.81200 -0.00400
C 	C 	0.02548 0.33170 0.87541 -0.17100
H 	H 	0.98380 0.36840 0.83860 0.09200
C 	C 	0.04589 0.38430 0.94514 0.13800
C 	C 	0.10713 0.32560 0.99588 -0.16600
H 	H 	0.12300 0.35810 0.04430 0.09300
C 	C 	0.14535 0.22030 0.97656 0.09400
H 	H 	0.18720 0.18180 0.01240 0.01400
C 	C 	0.00287 0.50200 0.96228 -0.15800
H 	H 	0.95180 0.50240 0.92690 0.07600
H 	H 	0.02750 0.58830 0.95620 0.08500
C 	C 	0.29022 0.89060 0.99380 0.29100
C 	C 	0.29983 0.82900 0.92589 -0.01100
C 	C 	0.35097 0.72850 0.92589 -0.05200
H 	H 	0.38470 0.69510 0.97000 0.05400
C 	C 	0.35196 0.67700 0.85965 0.01800
H 	H 	0.38660 0.60800 0.85790 0.03900
C 	C 	0.19822 0.22780 0.70355 -0.09800
C 	C 	0.25244 0.83040 0.80105 0.07000
H 	H 	0.21830 0.86600 0.75770 0.02500
C 	C 	0.20342 0.17220 0.77706 0.32000
Cu	Cu	0.18262 0.02101 0.88138 0.89600
N 	N 	0.12562 0.17020 0.90910 -0.23100
N 	N 	0.25163 0.88000 0.86445 -0.20300
O 	O 	0.23857 0.97871 0.98334 -0.36700
O 	O 	0.15496 0.08476 0.77931 -0.38900
O 	O 	0.33190 0.85383 0.05404 -0.25200
O 	O 	0.25516 0.21210 0.83106 -0.30000
C 	C 	0.43398 0.72560 0.64011 0.09900
H 	H 	0.44910 0.69040 0.68800 -0.00500
C 	C 	0.47452 0.83170 0.62459 -0.17400
H 	H 	0.51620 0.86840 0.66140 0.09400
C 	C 	0.45411 0.88430 0.55486 0.14000
C 	C 	0.39287 0.82560 0.50412 -0.16800
H 	H 	0.37700 0.85810 0.45570 0.09400
C 	C 	0.35465 0.72030 0.52344 0.09600
H 	H 	0.31280 0.68180 0.48760 0.01400
C 	C 	0.49713 0.00200 0.53772 -0.15900
H 	H 	0.54820 0.00240 0.57310 0.07700
H 	H 	0.47250 0.08830 0.54380 0.08500
C 	C 	0.20978 0.39060 0.50620 0.28800
C 	C 	0.20017 0.32900 0.57411 -0.01100
C 	C 	0.14903 0.22850 0.57411 -0.05200
H 	H 	0.11530 0.19510 0.53000 0.05400
C 	C 	0.14804 0.17700 0.64035 0.01800
H 	H 	0.11340 0.10800 0.64210 0.03900
C 	C 	0.30178 0.72780 0.79645 -0.09700
C 	C 	0.24756 0.33040 0.69895 0.06900
H 	H 	0.28170 0.36600 0.74230 0.02500
C 	C 	0.29658 0.67220 0.72294 0.32000
Cu	Cu	0.31738 0.52101 0.61862 0.89600
N 	N 	0.37438 0.67020 0.59090 -0.23100
N 	N 	0.24837 0.38000 0.63555 -0.20300
O 	O 	0.26143 0.47871 0.51666 -0.36800
O 	O 	0.34504 0.58476 0.72069 -0.38900
O 	O 	0.16810 0.35383 0.44596 -0.25000
O 	O 	0.24484 0.71210 0.66894 -0.30000
