data_crystal

_cell_length_a 20.07600
_cell_length_b 11.32900
_cell_length_c 23.93700
_cell_angle_alpha 90.00000
_cell_angle_beta  95.27200
_cell_angle_gamma 90.00000

_symmetry_space_group_name_	'P 1'
_symmetry_space_group_name_H-M	'P 1'

loop_
_symmetry_equiv_pos_as_xyz
  x,y,z

loop_
_atom_site_label
_atom_site_type_symbol
_atom_site_fract_x
_atom_site_fract_y
_atom_site_fract_z
_atom_site_charge
C 	C 	0.65490 0.54130 0.51440 0.08700
H 	H 	0.65470 0.46420 0.52780 -0.00500
C 	C 	0.71510 0.59950 0.51750 -0.12700
H 	H 	0.75390 0.56190 0.53250 0.08000
C 	C 	0.71790 0.71570 0.49810 0.05500
C 	C 	0.65800 0.76310 0.47490 -0.11800
H 	H 	0.65710 0.83910 0.46010 0.08400
C 	C 	0.59940 0.69790 0.47360 0.08400
H 	H 	0.55990 0.73270 0.45820 0.00300
N 	N 	0.59660 0.58710 0.49352 -0.24000
C 	C 	0.15490 0.04130 0.51440 0.01700
H 	H 	0.15470 0.96420 0.52780 0.03800
C 	C 	0.21510 0.09950 0.51750 -0.09200
H 	H 	0.25390 0.06190 0.53250 0.05900
C 	C 	0.21790 0.21570 0.49810 0.04300
C 	C 	0.15800 0.26310 0.47490 -0.11000
H 	H 	0.15710 0.33910 0.46010 0.07800
C 	C 	0.09940 0.19790 0.47360 0.07600
H 	H 	0.05990 0.23270 0.45820 -0.00900
N 	N 	0.09660 0.08710 0.49352 -0.23900
C 	C 	0.34510 0.45870 0.48560 0.09300
H 	H 	0.34530 0.53580 0.47220 -0.00600
C 	C 	0.28490 0.40050 0.48250 -0.13700
H 	H 	0.24610 0.43810 0.46750 0.08500
C 	C 	0.28210 0.28430 0.50190 0.07100
C 	C 	0.34200 0.23690 0.52510 -0.12700
H 	H 	0.34290 0.16090 0.53990 0.08200
C 	C 	0.40060 0.30210 0.52640 0.08800
H 	H 	0.44010 0.26730 0.54180 -0.00000
N 	N 	0.40340 0.41290 0.50648 -0.24200
C 	C 	0.84510 0.95870 0.48560 0.15400
H 	H 	0.84530 0.03580 0.47220 -0.04000
C 	C 	0.78490 0.90050 0.48250 -0.16600
H 	H 	0.74610 0.93810 0.46750 0.10200
C 	C 	0.78210 0.78430 0.50190 0.07900
C 	C 	0.84200 0.73690 0.52510 -0.13200
H 	H 	0.84290 0.66090 0.53990 0.08700
C 	C 	0.90060 0.80210 0.52640 0.09400
H 	H 	0.94010 0.76730 0.54180 0.01300
N 	N 	0.90340 0.91290 0.50648 -0.23600
Zn	Zn	0.50000 0.50000 0.50000 1.18700
Zn	Zn	0.00000 0.00000 0.50000 1.16200
C 	C 	0.34510 0.54130 0.98560 0.08100
H 	H 	0.34530 0.46420 0.97220 0.00800
C 	C 	0.28490 0.59950 0.98250 -0.03300
H 	H 	0.24610 0.56190 0.96750 0.05200
C 	C 	0.28210 0.71570 0.00190 -0.07100
C 	C 	0.34200 0.76310 0.02510 -0.05400
H 	H 	0.34290 0.83910 0.03990 0.05500
C 	C 	0.40060 0.69790 0.02640 0.04100
H 	H 	0.44010 0.73270 0.04180 0.01100
N 	N 	0.40340 0.58710 0.00648 -0.24700
C 	C 	0.84510 0.04130 0.98560 0.02000
H 	H 	0.84530 0.96420 0.97220 0.04600
C 	C 	0.78490 0.09950 0.98250 -0.00300
H 	H 	0.74610 0.06190 0.96750 0.03400
C 	C 	0.78210 0.21570 0.00190 -0.07900
C 	C 	0.84200 0.26310 0.02510 -0.04500
H 	H 	0.84290 0.33910 0.03990 0.05000
C 	C 	0.90060 0.19790 0.02640 0.03400
H 	H 	0.94010 0.23270 0.04180 0.02400
N 	N 	0.90340 0.08710 0.00648 -0.22900
C 	C 	0.65490 0.45870 0.01440 0.09900
H 	H 	0.65470 0.53580 0.02780 -0.01500
C 	C 	0.71510 0.40050 0.01750 -0.22900
H 	H 	0.75390 0.43810 0.03250 0.11100
C 	C 	0.71790 0.28430 0.99810 0.19300
C 	C 	0.65800 0.23690 0.97490 -0.18800
H 	H 	0.65710 0.16090 0.96010 0.11000
C 	C 	0.59940 0.30210 0.97360 0.13000
H 	H 	0.55990 0.26730 0.95820 -0.00800
N 	N 	0.59660 0.41290 0.99352 -0.23200
C 	C 	0.15490 0.95870 0.01440 0.17100
H 	H 	0.15470 0.03580 0.02780 -0.06000
C 	C 	0.21510 0.90050 0.01750 -0.26800
H 	H 	0.25390 0.93810 0.03250 0.13400
C 	C 	0.21790 0.78430 0.99810 0.20800
C 	C 	0.15800 0.73690 0.97490 -0.20200
H 	H 	0.15710 0.66090 0.96010 0.11700
C 	C 	0.09940 0.80210 0.97360 0.13900
H 	H 	0.05990 0.76730 0.95820 -0.01900
N 	N 	0.09660 0.91290 0.99352 -0.24500
Zn	Zn	0.50000 0.50000 -0.00000 1.17700
Zn	Zn	-0.00000 0.00000 -0.00000 1.15200
C 	C 	0.27920 0.33950 0.67100 0.38800
C 	C 	0.21050 0.34880 0.64220 -0.14000
C 	C 	0.20120 0.45040 0.60950 0.11900
H 	H 	0.23620 0.50410 0.60920 0.01200
C 	C 	0.14150 0.47440 0.57760 -0.25100
H 	H 	0.13630 0.54340 0.55660 0.14200
C 	C 	0.08960 0.39310 0.57760 0.26800
C 	C 	0.09630 0.29320 0.61030 -0.22700
H 	H 	0.06030 0.24160 0.61070 0.12200
C 	C 	0.15620 0.26740 0.64290 0.07400
C 	C 	0.15670 0.15240 0.67490 0.23900
C 	C 	0.97250 0.42230 0.56660 0.32800
C 	C 	0.96360 0.52020 0.60150 -0.24400
H 	H 	0.99700 0.57680 0.60740 0.15700
C 	C 	0.90560 0.53120 0.62640 0.08400
H 	H 	0.89980 0.59530 0.64980 0.02000
C 	C 	0.85390 0.44600 0.61720 -0.07100
C 	C 	0.79430 0.45200 0.64430 0.00600
H 	H 	0.78910 0.51260 0.66980 0.05900
C 	C 	0.74510 0.37270 0.63430 -0.08300
H 	H 	0.70670 0.37910 0.65300 0.08600
C 	C 	0.75050 0.27950 0.59570 0.04000
H 	H 	0.71560 0.22600 0.58840 0.03100
C 	C 	0.80870 0.26890 0.56880 -0.14400
H 	H 	0.81280 0.20730 0.54370 0.09100
C 	C 	0.86180 0.35010 0.57910 0.14300
C 	C 	0.92340 0.33900 0.55410 -0.22600
C 	C 	0.93610 0.23930 0.51520 0.40600
O 	O 	0.96678 0.15140 0.53713 -0.43000
O 	O 	0.91330 0.24670 0.46444 -0.29200
O 	O 	0.03223 0.41280 0.54135 -0.32800
O 	O 	0.19840 0.13870 0.71861 -0.18300
O 	O 	0.11460 0.07580 0.66006 -0.24800
O 	O 	0.28900 0.27380 0.71510 -0.46100
H 	H 	0.32720 0.28380 0.72960 0.28400
O 	O 	0.32570 0.39620 0.65290 -0.26900
C 	C 	0.77920 0.83950 0.67100 0.39500
C 	C 	0.71050 0.84880 0.64220 -0.14700
C 	C 	0.70120 0.95040 0.60950 0.15100
H 	H 	0.73620 0.00410 0.60920 -0.01600
C 	C 	0.64150 0.97440 0.57760 -0.21000
H 	H 	0.63630 0.04340 0.55660 0.11500
C 	C 	0.58960 0.89310 0.57760 0.26100
C 	C 	0.59630 0.79320 0.61030 -0.22000
H 	H 	0.56030 0.74160 0.61070 0.13700
C 	C 	0.65620 0.76740 0.64290 0.08200
C 	C 	0.65670 0.65240 0.67490 0.23600
C 	C 	0.47250 0.92230 0.56660 0.29400
C 	C 	0.46360 0.02020 0.60150 -0.25100
H 	H 	0.49700 0.07680 0.60740 0.13300
C 	C 	0.40560 0.03120 0.62640 0.05400
H 	H 	0.39980 0.09530 0.64980 0.01900
C 	C 	0.35390 0.94600 0.61720 -0.06600
C 	C 	0.29430 0.95200 0.64430 0.07700
H 	H 	0.28910 0.01260 0.66980 0.01500
C 	C 	0.24510 0.87270 0.63430 -0.12700
H 	H 	0.20670 0.87910 0.65300 0.10600
C 	C 	0.25050 0.77950 0.59570 0.06800
H 	H 	0.21560 0.72600 0.58840 0.02100
C 	C 	0.30870 0.76890 0.56880 -0.16000
H 	H 	0.31280 0.70730 0.54370 0.09900
C 	C 	0.36180 0.85010 0.57910 0.15000
C 	C 	0.42340 0.83900 0.55410 -0.22100
C 	C 	0.43610 0.73930 0.51520 0.39800
O 	O 	0.46678 0.65140 0.53713 -0.45300
O 	O 	0.41330 0.74670 0.46444 -0.30100
O 	O 	0.53223 0.91280 0.54135 -0.27500
O 	O 	0.69840 0.63870 0.71861 -0.17000
O 	O 	0.61460 0.57580 0.66006 -0.22500
O 	O 	0.78900 0.77380 0.71510 -0.46100
H 	H 	0.82720 0.78380 0.72960 0.29300
O 	O 	0.82570 0.89620 0.65290 -0.25500
C 	C 	0.72080 0.66050 0.32900 0.38900
C 	C 	0.78950 0.65120 0.35780 -0.13800
C 	C 	0.79880 0.54960 0.39050 0.11800
H 	H 	0.76380 0.49590 0.39080 0.01300
C 	C 	0.85850 0.52560 0.42240 -0.23800
H 	H 	0.86370 0.45660 0.44340 0.14400
C 	C 	0.91040 0.60690 0.42240 0.26700
C 	C 	0.90370 0.70680 0.38970 -0.21900
H 	H 	0.93970 0.75840 0.38930 0.15300
C 	C 	0.84380 0.73260 0.35710 0.08500
C 	C 	0.84330 0.84760 0.32510 0.23400
C 	C 	0.02750 0.57770 0.43340 0.18300
C 	C 	0.03640 0.47980 0.39850 -0.16600
H 	H 	0.00300 0.42320 0.39260 0.09000
C 	C 	0.09440 0.46880 0.37360 0.02000
H 	H 	0.10020 0.40470 0.35020 0.02900
C 	C 	0.14610 0.55400 0.38280 -0.03600
C 	C 	0.20570 0.54800 0.35570 -0.02500
H 	H 	0.21090 0.48740 0.33020 0.06700
C 	C 	0.25490 0.62730 0.36570 -0.05700
H 	H 	0.29330 0.62090 0.34700 0.07800
C 	C 	0.24950 0.72050 0.40430 0.01700
H 	H 	0.28440 0.77400 0.41160 0.04300
C 	C 	0.19130 0.73110 0.43120 -0.11900
H 	H 	0.18720 0.79270 0.45630 0.08600
C 	C 	0.13820 0.64990 0.42090 0.10800
C 	C 	0.07660 0.66100 0.44590 -0.18300
C 	C 	0.06390 0.76070 0.48480 0.37600
O 	O 	0.03322 0.84860 0.46287 -0.46000
O 	O 	0.08670 0.75330 0.53556 -0.30700
O 	O 	0.96777 0.58720 0.45865 -0.22600
O 	O 	0.80160 0.86130 0.28139 -0.16300
O 	O 	0.88540 0.92420 0.33994 -0.20300
O 	O 	0.71100 0.72620 0.28490 -0.45900
H 	H 	0.67280 0.71620 0.27040 0.28600
O 	O 	0.67430 0.60380 0.34710 -0.26800
C 	C 	0.22080 0.16050 0.32900 0.38200
C 	C 	0.28950 0.15120 0.35780 -0.13000
C 	C 	0.29880 0.04960 0.39050 0.08100
H 	H 	0.26380 0.99590 0.39080 0.04600
C 	C 	0.35850 0.02560 0.42240 -0.28000
H 	H 	0.36370 0.95660 0.44340 0.17200
C 	C 	0.41040 0.10690 0.42240 0.27400
C 	C 	0.40370 0.20680 0.38970 -0.22600
H 	H 	0.43970 0.25840 0.38930 0.13800
C 	C 	0.34380 0.23260 0.35710 0.07600
C 	C 	0.34330 0.34760 0.32510 0.23700
C 	C 	0.52750 0.07770 0.43340 0.21700
C 	C 	0.53640 0.97980 0.39850 -0.15900
H 	H 	0.50300 0.92320 0.39260 0.11300
C 	C 	0.59440 0.96880 0.37360 0.05000
H 	H 	0.60020 0.90470 0.35020 0.02900
C 	C 	0.64610 0.05400 0.38280 -0.04300
C 	C 	0.70570 0.04800 0.35570 -0.08900
H 	H 	0.71090 0.98740 0.33020 0.10700
C 	C 	0.75490 0.12730 0.36570 -0.01700
H 	H 	0.79330 0.12090 0.34700 0.06000
C 	C 	0.74950 0.22050 0.40430 -0.00800
H 	H 	0.78440 0.27400 0.41160 0.05100
C 	C 	0.69130 0.23110 0.43120 -0.10600
H 	H 	0.68720 0.29270 0.45630 0.07900
C 	C 	0.63820 0.14990 0.42090 0.10400
C 	C 	0.57660 0.16100 0.44590 -0.19000
C 	C 	0.56390 0.26070 0.48480 0.38600
O 	O 	0.53322 0.34860 0.46287 -0.45000
O 	O 	0.58670 0.25330 0.53556 -0.30100
O 	O 	0.46777 0.08720 0.45865 -0.27900
O 	O 	0.30160 0.36130 0.28139 -0.17500
O 	O 	0.38540 0.42420 0.33994 -0.22600
O 	O 	0.21100 0.22620 0.28490 -0.45900
H 	H 	0.17280 0.21620 0.27040 0.27700
O 	O 	0.17430 0.10380 0.34710 -0.28300
C 	C 	0.72080 0.33950 0.82900 0.38800
C 	C 	0.78950 0.34880 0.85780 -0.13600
C 	C 	0.79880 0.45040 0.89050 0.11900
H 	H 	0.76380 0.50410 0.89080 0.01600
C 	C 	0.85850 0.47440 0.92240 -0.23400
H 	H 	0.86370 0.54340 0.94340 0.14900
C 	C 	0.91040 0.39310 0.92240 0.26900
C 	C 	0.90370 0.29320 0.88970 -0.21500
H 	H 	0.93970 0.24160 0.88930 0.15100
C 	C 	0.84380 0.26740 0.85710 0.08200
C 	C 	0.84330 0.15240 0.82510 0.23700
C 	C 	0.02750 0.42230 0.93340 0.19400
C 	C 	0.03640 0.52020 0.89850 -0.17100
H 	H 	0.00300 0.57680 0.89260 0.09500
C 	C 	0.09440 0.53120 0.87360 0.02600
H 	H 	0.10020 0.59530 0.85020 0.02800
C 	C 	0.14610 0.44600 0.88280 -0.04300
C 	C 	0.20570 0.45200 0.85570 -0.01800
H 	H 	0.21090 0.51260 0.83020 0.06400
C 	C 	0.25490 0.37270 0.86570 -0.06500
H 	H 	0.29330 0.37910 0.84700 0.07900
C 	C 	0.24950 0.27950 0.90430 0.02500
H 	H 	0.28440 0.22600 0.91160 0.03800
C 	C 	0.19130 0.26890 0.93120 -0.12800
H 	H 	0.18720 0.20730 0.95630 0.09300
C 	C 	0.13820 0.35010 0.92090 0.11900
C 	C 	0.07660 0.33900 0.94590 -0.19500
C 	C 	0.06390 0.23930 0.98480 0.42200
O 	O 	0.03322 0.15140 0.96287 -0.47400
O 	O 	0.08670 0.24670 0.03556 -0.34600
O 	O 	0.96777 0.41280 0.95865 -0.21800
O 	O 	0.80160 0.13870 0.78139 -0.17500
O 	O 	0.88540 0.07580 0.83994 -0.22100
O 	O 	0.71100 0.27380 0.78490 -0.45900
H 	H 	0.67280 0.28380 0.77040 0.28400
O 	O 	0.67430 0.39620 0.84710 -0.26700
C 	C 	0.22080 0.83950 0.82900 0.39500
C 	C 	0.28950 0.84880 0.85780 -0.14900
C 	C 	0.29880 0.95040 0.89050 0.15800
H 	H 	0.26380 0.00410 0.89080 -0.01900
C 	C 	0.35850 0.97440 0.92240 -0.20800
H 	H 	0.36370 0.04340 0.94340 0.12000
C 	C 	0.41040 0.89310 0.92240 0.26500
C 	C 	0.40370 0.79320 0.88970 -0.21800
H 	H 	0.43970 0.74160 0.88930 0.13800
C 	C 	0.34380 0.76740 0.85710 0.08400
C 	C 	0.34330 0.65240 0.82510 0.23600
C 	C 	0.52750 0.92230 0.93340 0.30100
C 	C 	0.53640 0.02020 0.89850 -0.25300
H 	H 	0.50300 0.07680 0.89260 0.13500
C 	C 	0.59440 0.03120 0.87360 0.06000
H 	H 	0.60020 0.09530 0.85020 0.01700
C 	C 	0.64610 0.94600 0.88280 -0.07100
C 	C 	0.70570 0.95200 0.85570 0.07800
H 	H 	0.71090 0.01260 0.83020 0.01700
C 	C 	0.75490 0.87270 0.86570 -0.13100
H 	H 	0.79330 0.87910 0.84700 0.11200
C 	C 	0.74950 0.77950 0.90430 0.07600
H 	H 	0.78440 0.72600 0.91160 0.02400
C 	C 	0.69130 0.76890 0.93120 -0.16500
H 	H 	0.68720 0.70730 0.95630 0.10900
C 	C 	0.63820 0.85010 0.92090 0.16000
C 	C 	0.57660 0.83900 0.94590 -0.22900
C 	C 	0.56390 0.73930 0.98480 0.43900
O 	O 	0.53322 0.65140 0.96287 -0.45000
O 	O 	0.58670 0.74670 0.03556 -0.33200
O 	O 	0.46777 0.91280 0.95865 -0.26600
O 	O 	0.30160 0.63870 0.78139 -0.17300
O 	O 	0.38540 0.57580 0.83994 -0.22400
O 	O 	0.21100 0.77380 0.78490 -0.46000
H 	H 	0.17280 0.78380 0.77040 0.28300
O 	O 	0.17430 0.89620 0.84710 -0.26400
C 	C 	0.27920 0.66050 0.17100 0.39000
C 	C 	0.21050 0.65120 0.14220 -0.14300
C 	C 	0.20120 0.54960 0.10950 0.11800
H 	H 	0.23620 0.49590 0.10920 0.00900
C 	C 	0.14150 0.52560 0.07760 -0.25600
H 	H 	0.13630 0.45660 0.05660 0.13600
C 	C 	0.08960 0.60690 0.07760 0.26700
C 	C 	0.09630 0.70680 0.11030 -0.23200
H 	H 	0.06030 0.75840 0.11070 0.12600
C 	C 	0.15620 0.73260 0.14290 0.07800
C 	C 	0.15670 0.84760 0.17490 0.23500
C 	C 	0.97250 0.57770 0.06660 0.31800
C 	C 	0.96360 0.47980 0.10150 -0.23900
H 	H 	0.99700 0.42320 0.10740 0.15300
C 	C 	0.90560 0.46880 0.12640 0.07900
H 	H 	0.89980 0.40470 0.14980 0.02000
C 	C 	0.85390 0.55400 0.11720 -0.06500
C 	C 	0.79430 0.54800 0.14430 0.00000
H 	H 	0.78910 0.48740 0.16980 0.06100
C 	C 	0.74510 0.62730 0.13430 -0.07500
H 	H 	0.70670 0.62090 0.15300 0.08500
C 	C 	0.75050 0.72050 0.09570 0.03200
H 	H 	0.71560 0.77400 0.08840 0.03500
C 	C 	0.80870 0.73110 0.06880 -0.13700
H 	H 	0.81280 0.79270 0.04370 0.08500
C 	C 	0.86180 0.64990 0.07910 0.13300
C 	C 	0.92340 0.66100 0.05410 -0.21500
C 	C 	0.93610 0.76070 0.01520 0.36200
O 	O 	0.96678 0.84860 0.03713 -0.41500
O 	O 	0.91330 0.75330 0.96444 -0.25600
O 	O 	0.03223 0.58720 0.04135 -0.33700
O 	O 	0.19840 0.86130 0.21861 -0.16900
O 	O 	0.11460 0.92420 0.16006 -0.22600
O 	O 	0.28900 0.72620 0.21510 -0.46000
H 	H 	0.32720 0.71620 0.22960 0.28700
O 	O 	0.32570 0.60380 0.15290 -0.27000
C 	C 	0.77920 0.16050 0.17100 0.38300
C 	C 	0.71050 0.15120 0.14220 -0.13100
C 	C 	0.70120 0.04960 0.10950 0.08200
H 	H 	0.73620 0.99590 0.10920 0.04200
C 	C 	0.64150 0.02560 0.07760 -0.28200
H 	H 	0.63630 0.95660 0.05660 0.16600
C 	C 	0.58960 0.10690 0.07760 0.27100
C 	C 	0.59630 0.20680 0.11030 -0.22900
H 	H 	0.56030 0.25840 0.11070 0.13700
C 	C 	0.65620 0.23260 0.14290 0.07500
C 	C 	0.65670 0.34760 0.17490 0.23600
C 	C 	0.47250 0.07770 0.06660 0.20700
C 	C 	0.46360 0.97980 0.10150 -0.15400
H 	H 	0.49700 0.92320 0.10740 0.11000
C 	C 	0.40560 0.96880 0.12640 0.04300
H 	H 	0.39980 0.90470 0.14980 0.03100
C 	C 	0.35390 0.05400 0.11720 -0.03500
C 	C 	0.29430 0.04800 0.14430 -0.10600
H 	H 	0.28910 0.98740 0.16980 0.11400
C 	C 	0.24510 0.12730 0.13430 -0.00300
H 	H 	0.20670 0.12090 0.15300 0.04800
C 	C 	0.25050 0.22050 0.09570 -0.02400
H 	H 	0.21560 0.27400 0.08840 0.05000
C 	C 	0.30870 0.23110 0.06880 -0.09600
H 	H 	0.31280 0.29270 0.04370 0.06700
C 	C 	0.36180 0.14990 0.07910 0.08900
C 	C 	0.42340 0.16100 0.05410 -0.17900
C 	C 	0.43610 0.26070 0.01520 0.34300
O 	O 	0.46678 0.34860 0.03713 -0.44800
O 	O 	0.41330 0.25330 0.96444 -0.26900
O 	O 	0.53223 0.08720 0.04135 -0.28800
O 	O 	0.69840 0.36130 0.21861 -0.17200
O 	O 	0.61460 0.42420 0.16006 -0.22700
O 	O 	0.78900 0.22620 0.21510 -0.45900
H 	H 	0.82720 0.21620 0.22960 0.28800
O 	O 	0.82570 0.10380 0.15290 -0.27200
