data_crystal

_cell_length_a 7.49630
_cell_length_b 10.91050
_cell_length_c 11.46690
_cell_angle_alpha 111.74300
_cell_angle_beta  99.37100
_cell_angle_gamma 100.61600

_symmetry_space_group_name_	'P 1'
_symmetry_space_group_name_H-M	'P 1'

loop_
_symmetry_equiv_pos_as_xyz
  x,y,z

loop_
_atom_site_label
_atom_site_type_symbol
_atom_site_fract_x
_atom_site_fract_y
_atom_site_fract_z
_atom_site_charge
Gd	Gd	0.66302 0.75685 0.66520 1.25600
C 	C 	0.44030 0.56670 0.34030 0.46600
C 	C 	0.40330 0.62680 0.24360 -0.15800
C 	C 	0.43260 0.76830 0.28610 0.07100
H 	H 	0.48620 0.82590 0.37320 0.02300
C 	C 	0.38140 0.82220 0.19760 -0.11200
C 	C 	0.38590 0.97060 0.24430 0.30700
C 	C 	0.30790 0.73640 0.06690 0.02400
H 	H 	0.27550 0.77380 0.00820 0.02700
C 	C 	0.28190 0.59580 0.02220 -0.06400
C 	C 	0.32980 0.54150 0.11230 0.05200
H 	H 	0.31230 0.44750 0.08410 0.02200
C 	C 	0.19470 0.50750 0.88470 0.13000
O 	O 	0.49320 0.64700 0.45790 -0.48100
O 	O 	0.41170 0.43970 0.29850 -0.47300
O 	O 	0.47480 0.05530 0.35690 -0.36100
O 	O 	0.28820 0.00850 0.16890 -0.39200
N 	N 	0.11300 0.37340 0.83570 -0.09700
N 	N 	0.04400 0.33570 0.70850 -0.05600
N 	N 	0.08450 0.44130 0.68190 -0.07000
N 	N 	0.18080 0.55170 0.79060 -0.11400
Gd	Gd	0.33698 0.24315 0.33480 1.25600
C 	C 	0.55970 0.43330 0.65970 0.46600
C 	C 	0.59670 0.37320 0.75640 -0.15800
C 	C 	0.56740 0.23170 0.71390 0.07100
H 	H 	0.51380 0.17410 0.62680 0.02300
C 	C 	0.61860 0.17780 0.80240 -0.11200
C 	C 	0.61410 0.02940 0.75570 0.30700
C 	C 	0.69210 0.26360 0.93310 0.02400
H 	H 	0.72450 0.22620 0.99180 0.02700
C 	C 	0.71810 0.40420 0.97780 -0.06400
C 	C 	0.67020 0.45850 0.88770 0.05200
H 	H 	0.68770 0.55250 0.91590 0.02200
C 	C 	0.80530 0.49250 0.11530 0.13000
O 	O 	0.50680 0.35300 0.54210 -0.48100
O 	O 	0.58830 0.56030 0.70150 -0.47300
O 	O 	0.52520 0.94470 0.64310 -0.36100
O 	O 	0.71180 0.99150 0.83110 -0.39200
N 	N 	0.88700 0.62660 0.16430 -0.09700
N 	N 	0.95600 0.66430 0.29150 -0.05600
N 	N 	0.91550 0.55870 0.31810 -0.07000
N 	N 	0.81920 0.44830 0.20940 -0.11400
