data_crystal

_cell_length_a 6.59800
_cell_length_b 11.28880
_cell_length_c 12.43520
_cell_angle_alpha 66.96000
_cell_angle_beta  78.30500
_cell_angle_gamma 81.58100

_symmetry_space_group_name_	'P 1'
_symmetry_space_group_name_H-M	'P 1'

loop_
_symmetry_equiv_pos_as_xyz
  x,y,z

loop_
_atom_site_label
_atom_site_type_symbol
_atom_site_fract_x
_atom_site_fract_y
_atom_site_fract_z
_atom_site_charge
Pb	Pb	0.23482 0.56296 0.56003 1.23900
O 	O 	0.40100 0.59980 0.33840 -0.41600
O 	O 	0.05910 0.61500 0.39240 -0.45700
O 	O 	0.58430 0.68600 0.49880 -0.39600
O 	O 	0.27850 0.79190 0.46350 -0.36900
C 	C 	0.35940 0.61780 0.11230 0.03200
H 	H 	0.48900 0.59030 0.13570 0.03300
C 	C 	0.18830 0.63910 0.19210 -0.12400
C 	C 	0.47420 0.78730 0.45520 0.31600
C 	C 	0.89180 0.02280 0.29550 -0.05300
H 	H 	0.03540 0.02100 0.27400 0.06900
C 	C 	0.46010 0.03080 0.35940 0.00300
H 	H 	0.31650 0.03300 0.38070 0.05200
C 	C 	0.77160 0.13910 0.26540 -0.01600
C 	C 	0.55550 0.14360 0.29870 -0.05600
H 	H 	0.47750 0.22250 0.27970 0.06800
C 	C 	0.96810 0.70270 0.04320 -0.08100
H 	H 	0.83820 0.73040 0.02030 0.07400
C 	C 	0.99700 0.68150 0.15640 0.02400
H 	H 	0.88500 0.69610 0.20970 0.00700
C 	C 	0.79420 0.90920 0.35820 -0.00300
H 	H 	0.87310 0.83060 0.37970 0.05000
C 	C 	0.22170 0.61780 0.31350 0.33000
C 	C 	0.33390 0.63800 0.99900 -0.08200
H 	H 	0.44570 0.62270 0.94590 0.07400
C 	C 	0.57890 0.91190 0.38930 -0.07200
C 	C 	0.13820 0.68180 0.96420 0.00800
S 	S 	0.11080 0.71449 0.81638 0.27800
O 	O 	0.23120 0.61530 0.78040 -0.29700
O 	O 	0.89130 0.73650 0.80830 -0.23600
Pb	Pb	0.76518 0.43704 0.43997 1.24000
O 	O 	0.59900 0.40020 0.66160 -0.41500
O 	O 	0.94090 0.38500 0.60760 -0.45700
O 	O 	0.41570 0.31400 0.50120 -0.39600
O 	O 	0.72150 0.20810 0.53650 -0.36900
C 	C 	0.64060 0.38220 0.88770 0.03200
H 	H 	0.51100 0.40970 0.86430 0.03300
C 	C 	0.81170 0.36090 0.80790 -0.12400
C 	C 	0.52580 0.21270 0.54480 0.31600
C 	C 	0.10820 0.97720 0.70450 -0.05300
H 	H 	0.96460 0.97900 0.72600 0.06900
C 	C 	0.53990 0.96920 0.64060 0.00300
H 	H 	0.68350 0.96700 0.61930 0.05200
C 	C 	0.22840 0.86090 0.73460 -0.01600
C 	C 	0.44450 0.85640 0.70130 -0.05600
H 	H 	0.52250 0.77750 0.72030 0.06800
C 	C 	0.03190 0.29730 0.95680 -0.08100
H 	H 	0.16180 0.26960 0.97970 0.07400
C 	C 	0.00300 0.31850 0.84360 0.02400
H 	H 	0.11500 0.30390 0.79030 0.00700
C 	C 	0.20580 0.09080 0.64180 -0.00300
H 	H 	0.12690 0.16940 0.62030 0.05000
C 	C 	0.77830 0.38220 0.68650 0.33000
C 	C 	0.66610 0.36200 0.00100 -0.08200
H 	H 	0.55430 0.37730 0.05410 0.07400
C 	C 	0.42110 0.08810 0.61070 -0.07200
C 	C 	0.86180 0.31820 0.03580 0.00800
S 	S 	0.88920 0.28551 0.18362 0.27800
O 	O 	0.76880 0.38470 0.21960 -0.29700
O 	O 	0.10870 0.26350 0.19170 -0.23600
