data_crystal

_cell_length_a 11.11820
_cell_length_b 11.24230
_cell_length_c 11.69760
_cell_angle_alpha 65.31000
_cell_angle_beta  74.88900
_cell_angle_gamma 72.06700

_symmetry_space_group_name_	'P 1'
_symmetry_space_group_name_H-M	'P 1'

loop_
_symmetry_equiv_pos_as_xyz
  x,y,z

loop_
_atom_site_label
_atom_site_type_symbol
_atom_site_fract_x
_atom_site_fract_y
_atom_site_fract_z
_atom_site_charge
Zn	Zn	0.76391 0.97346 0.45231 1.20800
S 	S 	0.68466 0.27267 0.83280 -0.02400
S 	S 	0.57017 0.40151 0.70093 -0.03100
O 	O 	0.67330 0.03920 0.58990 -0.43200
O 	O 	0.83840 0.88930 0.67580 -0.32800
C 	C 	0.72760 0.90650 0.92000 -0.00600
H 	H 	0.81560 0.86330 0.91010 0.04600
C 	C 	0.66260 0.97020 0.81340 -0.05700
C 	C 	0.66450 0.90640 0.03770 -0.07500
H 	H 	0.70920 0.86490 0.10870 0.05600
C 	C 	0.73260 0.96430 0.68650 0.29900
C 	C 	0.53250 0.96840 0.05280 0.02600
C 	C 	0.53690 0.03280 0.82590 -0.04200
H 	H 	0.49480 0.07790 0.75310 0.06300
N 	N 	0.94620 0.91210 0.37230 -0.26900
C 	C 	0.04520 0.83780 0.43580 0.08800
H 	H 	0.03580 0.82640 0.52260 -0.00300
C 	C 	0.15910 0.77770 0.38180 -0.14700
H 	H 	0.22610 0.72480 0.43080 0.09000
C 	C 	0.96350 0.92960 0.24900 0.07400
H 	H 	0.89470 0.98250 0.20230 -0.01300
C 	C 	0.62820 0.55070 0.63550 0.09400
C 	C 	0.59560 0.78340 0.50840 0.08300
H 	H 	0.54330 0.86250 0.45750 0.00100
C 	C 	0.77870 0.67670 0.59890 0.08400
H 	H 	0.85820 0.67970 0.61250 -0.00700
C 	C 	0.55310 0.66720 0.56120 -0.14600
H 	H 	0.47310 0.66620 0.54710 0.09200
C 	C 	0.74270 0.55720 0.65480 -0.14900
H 	H 	0.79570 0.47950 0.70640 0.08600
N 	N 	0.70780 0.79140 0.52500 -0.25700
O 	O 	0.65920 0.07650 0.31240 -0.43000
O 	O 	0.77120 0.21330 0.30350 -0.32300
C 	C 	0.61250 0.30090 0.16540 -0.05600
C 	C 	0.68780 0.19140 0.26490 0.29200
C 	C 	0.55290 0.52170 0.00030 0.03100
C 	C 	0.64620 0.41650 0.09560 -0.04200
H 	H 	0.72150 0.43450 0.10270 0.05900
C 	C 	0.50000 0.27630 0.14970 0.00400
H 	H 	0.48150 0.19090 0.20140 0.05000
C 	C 	0.82450 0.20510 0.74500 0.08700
C 	C 	0.92530 0.12470 0.81320 -0.13800
H 	H 	0.91680 0.10810 0.90120 0.08000
C 	C 	0.58340 0.63560 0.93290 -0.08500
H 	H 	0.65710 0.65660 0.93980 0.06600
Zn	Zn	0.23609 0.02654 0.54769 1.20900
S 	S 	0.31534 0.72733 0.16720 -0.02300
S 	S 	0.42983 0.59849 0.29907 -0.03100
O 	O 	0.32670 0.96080 0.41010 -0.43200
O 	O 	0.16160 0.11070 0.32420 -0.32800
C 	C 	0.27240 0.09350 0.08000 -0.00600
H 	H 	0.18440 0.13670 0.08990 0.04600
C 	C 	0.33740 0.02980 0.18660 -0.05700
C 	C 	0.33550 0.09360 0.96230 -0.07500
H 	H 	0.29080 0.13510 0.89130 0.05600
C 	C 	0.26740 0.03570 0.31350 0.29900
C 	C 	0.46750 0.03160 0.94720 0.02600
C 	C 	0.46310 0.96720 0.17410 -0.04200
H 	H 	0.50520 0.92210 0.24690 0.06300
N 	N 	0.05380 0.08790 0.62770 -0.26900
C 	C 	0.95480 0.16220 0.56420 0.08800
H 	H 	0.96420 0.17360 0.47740 -0.00300
C 	C 	0.84090 0.22230 0.61820 -0.14700
H 	H 	0.77390 0.27520 0.56920 0.09000
C 	C 	0.03650 0.07040 0.75100 0.07400
H 	H 	0.10530 0.01750 0.79770 -0.01300
C 	C 	0.37180 0.44930 0.36450 0.09400
C 	C 	0.40440 0.21660 0.49160 0.08300
H 	H 	0.45670 0.13750 0.54250 0.00100
C 	C 	0.22130 0.32330 0.40110 0.08400
H 	H 	0.14180 0.32030 0.38750 -0.00700
C 	C 	0.44690 0.33280 0.43880 -0.14600
H 	H 	0.52690 0.33380 0.45290 0.09200
C 	C 	0.25730 0.44280 0.34520 -0.14900
H 	H 	0.20430 0.52050 0.29360 0.08600
N 	N 	0.29220 0.20860 0.47500 -0.25700
O 	O 	0.34080 0.92350 0.68760 -0.43000
O 	O 	0.22880 0.78670 0.69650 -0.32300
C 	C 	0.38750 0.69910 0.83460 -0.05600
C 	C 	0.31220 0.80860 0.73510 0.29200
C 	C 	0.44710 0.47830 0.99970 0.03100
C 	C 	0.35380 0.58350 0.90440 -0.04200
H 	H 	0.27850 0.56550 0.89730 0.05900
C 	C 	0.50000 0.72370 0.85030 0.00400
H 	H 	0.51850 0.80910 0.79860 0.05000
C 	C 	0.17550 0.79490 0.25500 0.08700
C 	C 	0.07470 0.87530 0.18680 -0.13800
H 	H 	0.08320 0.89190 0.09880 0.08000
C 	C 	0.41660 0.36440 0.06710 -0.08500
H 	H 	0.34290 0.34340 0.06020 0.06600
