data_crystal

_cell_length_a 8.31900
_cell_length_b 18.26100
_cell_length_c 30.92500
_cell_angle_alpha 90.00000
_cell_angle_beta  93.84000
_cell_angle_gamma 90.00000

_symmetry_space_group_name_	'P 1'
_symmetry_space_group_name_H-M	'P 1'

loop_
_symmetry_equiv_pos_as_xyz
  x,y,z

loop_
_atom_site_label
_atom_site_type_symbol
_atom_site_fract_x
_atom_site_fract_y
_atom_site_fract_z
_atom_site_charge
C 	C 	0.25420 0.84400 0.25330 0.01300
N 	N 	0.26060 0.72376 0.26000 -0.24600
C 	C 	0.12280 0.74780 0.27247 0.10400
N 	N 	0.11250 0.82076 0.26883 -0.13500
Co	Co	0.18129 0.11773 0.24760 1.16000
N 	N 	0.34840 0.05293 0.27873 -0.24700
N 	N 	0.55680 0.98236 0.29415 -0.13700
C 	C 	0.97540 0.86400 0.27702 0.10000
C 	C 	0.94730 0.92760 0.25541 -0.05300
H 	H 	0.02050 0.94400 0.23610 0.06400
C 	C 	0.81140 0.96810 0.26166 -0.09300
H 	H 	0.79420 0.01240 0.24730 0.10300
C 	C 	0.70310 0.94320 0.28872 0.12000
C 	C 	0.73200 0.88100 0.31190 -0.08400
H 	H 	0.65820 0.86460 0.33100 0.08000
C 	C 	0.87310 0.84190 0.30680 -0.06700
H 	H 	0.89730 0.80080 0.32380 0.08400
H 	H 	0.04270 0.71830 0.28260 0.00900
H 	H 	0.28320 0.89210 0.24790 0.04300
C 	C 	0.34240 0.78440 0.24769 0.00900
H 	H 	0.44420 0.78400 0.23700 0.04000
C 	C 	0.47940 0.02557 0.26414 0.10000
H 	H 	0.51460 0.03470 0.23670 0.02400
C 	C 	0.33980 0.02580 0.31944 0.00600
H 	H 	0.25760 0.03530 0.33760 0.03600
C 	C 	0.46850 0.98330 0.32931 0.01400
H 	H 	0.49240 0.95900 0.35540 0.04900
C 	C 	0.24580 0.34400 0.24670 0.01200
N 	N 	0.23940 0.22376 0.24000 -0.24800
C 	C 	0.37720 0.24780 0.22753 0.10400
N 	N 	0.38750 0.32076 0.23117 -0.13400
Co	Co	0.31871 0.61773 0.25240 1.16000
N 	N 	0.15160 0.55293 0.22127 -0.24600
N 	N 	0.94320 0.48236 0.20585 -0.12800
C 	C 	0.52460 0.36400 0.22298 0.10300
C 	C 	0.55270 0.42760 0.24459 -0.06600
H 	H 	0.47950 0.44400 0.26390 0.07100
C 	C 	0.68860 0.46810 0.23834 -0.08200
H 	H 	0.70580 0.51240 0.25270 0.09800
C 	C 	0.79690 0.44320 0.21128 0.11400
C 	C 	0.76800 0.38100 0.18810 -0.07900
H 	H 	0.84180 0.36460 0.16900 0.08000
C 	C 	0.62690 0.34190 0.19320 -0.07000
H 	H 	0.60270 0.30080 0.17620 0.08500
H 	H 	0.45730 0.21830 0.21740 0.01000
H 	H 	0.21680 0.39210 0.25210 0.04200
C 	C 	0.15760 0.28440 0.25231 0.00900
H 	H 	0.05580 0.28400 0.26300 0.03700
C 	C 	0.02060 0.52557 0.23586 0.08400
H 	H 	0.98540 0.53470 0.26330 0.03300
C 	C 	0.16020 0.52580 0.18056 0.00900
H 	H 	0.24240 0.53530 0.16240 0.03600
C 	C 	0.03150 0.48330 0.17069 0.00600
H 	H 	0.00760 0.45900 0.14460 0.05100
C 	C 	0.74580 0.15600 0.74670 0.01200
N 	N 	0.73940 0.27624 0.74000 -0.24700
C 	C 	0.87720 0.25220 0.72753 0.10300
N 	N 	0.88750 0.17924 0.73117 -0.13600
Co	Co	0.81871 0.88227 0.75240 1.15900
N 	N 	0.65160 0.94707 0.72127 -0.24800
N 	N 	0.44320 0.01764 0.70585 -0.13700
C 	C 	0.02460 0.13600 0.72298 0.10000
C 	C 	0.05270 0.07240 0.74459 -0.05300
H 	H 	0.97950 0.05600 0.76390 0.06400
C 	C 	0.18860 0.03190 0.73834 -0.09300
H 	H 	0.20580 0.98760 0.75270 0.10300
C 	C 	0.29690 0.05680 0.71128 0.12000
C 	C 	0.26800 0.11900 0.68810 -0.08400
H 	H 	0.34180 0.13540 0.66900 0.08000
C 	C 	0.12690 0.15810 0.69320 -0.06700
H 	H 	0.10270 0.19920 0.67620 0.08400
H 	H 	0.95730 0.28170 0.71740 0.00900
H 	H 	0.71680 0.10790 0.75210 0.04300
C 	C 	0.65760 0.21560 0.75231 0.00900
H 	H 	0.55580 0.21600 0.76300 0.04000
C 	C 	0.52060 0.97443 0.73586 0.10000
H 	H 	0.48540 0.96530 0.76330 0.02400
C 	C 	0.66020 0.97420 0.68056 0.00600
H 	H 	0.74240 0.96470 0.66240 0.03600
C 	C 	0.53150 0.01670 0.67069 0.01400
H 	H 	0.50760 0.04100 0.64460 0.04900
C 	C 	0.75420 0.65600 0.75330 0.01200
N 	N 	0.76060 0.77624 0.76000 -0.24800
C 	C 	0.62280 0.75220 0.77247 0.10400
N 	N 	0.61250 0.67924 0.76883 -0.13400
Co	Co	0.68129 0.38227 0.74760 1.16000
N 	N 	0.84840 0.44707 0.77873 -0.24600
N 	N 	0.05680 0.51764 0.79415 -0.12800
C 	C 	0.47540 0.63600 0.77702 0.10300
C 	C 	0.44730 0.57240 0.75541 -0.06600
H 	H 	0.52050 0.55600 0.73610 0.07100
C 	C 	0.31140 0.53190 0.76166 -0.08200
H 	H 	0.29420 0.48760 0.74730 0.09800
C 	C 	0.20310 0.55680 0.78872 0.11400
C 	C 	0.23200 0.61900 0.81190 -0.07900
H 	H 	0.15820 0.63540 0.83100 0.08000
C 	C 	0.37310 0.65810 0.80680 -0.07000
H 	H 	0.39730 0.69920 0.82380 0.08500
H 	H 	0.54270 0.78170 0.78260 0.01000
H 	H 	0.78320 0.60790 0.74790 0.04200
C 	C 	0.84240 0.71560 0.74769 0.00900
H 	H 	0.94420 0.71600 0.73700 0.03700
C 	C 	0.97940 0.47443 0.76414 0.08400
H 	H 	0.01460 0.46530 0.73670 0.03300
C 	C 	0.83980 0.47420 0.81944 0.00900
H 	H 	0.75760 0.46470 0.83760 0.03600
C 	C 	0.96850 0.51670 0.82931 0.00600
H 	H 	0.99240 0.54100 0.85540 0.05100
N 	N 	0.61850 0.22090 0.59310 -0.02900
N 	N 	0.26460 0.36570 0.67658 -0.02700
N 	N 	0.38280 0.42129 0.48896 -0.21500
H 	H 	0.46420 0.38120 0.48450 0.12000
O 	O 	0.67850 0.21010 0.55907 -0.09100
O 	O 	0.64760 0.18320 0.62540 -0.11600
O 	O 	0.28460 0.32120 0.70540 -0.13300
O 	O 	0.18970 0.42230 0.67973 -0.10100
O 	O 	0.20000 0.47300 0.53021 -0.21400
O 	O 	0.40900 0.55936 0.30254 -0.41100
O 	O 	0.17150 0.60024 0.31704 -0.33300
C 	C 	0.36090 0.37900 0.56236 0.09600
C 	C 	0.46720 0.32220 0.55963 -0.20000
H 	H 	0.51220 0.31160 0.53360 0.14200
C 	C 	0.50620 0.28100 0.59613 0.21600
C 	C 	0.44410 0.29430 0.63495 -0.26100
H 	H 	0.47280 0.26620 0.65930 0.14800
C 	C 	0.33830 0.35040 0.63628 0.21700
C 	C 	0.29480 0.39360 0.60181 -0.19600
H 	H 	0.22270 0.43200 0.60440 0.14400
C 	C 	0.30580 0.42890 0.52572 0.19200
C 	C 	0.35220 0.45758 0.44957 0.23700
C 	C 	0.46000 0.44550 0.41839 -0.23700
H 	H 	0.54680 0.41410 0.42440 0.13300
C 	C 	0.44140 0.47880 0.37893 0.13300
H 	H 	0.51570 0.47030 0.35830 0.02100
C 	C 	0.31140 0.52538 0.36946 -0.16600
C 	C 	0.20160 0.53510 0.40030 0.14900
H 	H 	0.11220 0.56470 0.39390 0.01900
C 	C 	0.22030 0.50240 0.44025 -0.23900
H 	H 	0.14540 0.51020 0.46080 0.16400
C 	C 	0.29430 0.56399 0.32770 0.34400
N 	N 	0.58140 0.89500 0.15162 -0.02000
N 	N 	0.59340 0.83560 0.99914 -0.02100
N 	N 	0.09050 0.72761 0.11362 -0.24400
H 	H 	0.18120 0.71590 0.13110 0.14800
O 	O 	0.50300 0.89950 0.18290 -0.12300
O 	O 	0.71800 0.91630 0.15020 -0.11500
O 	O 	0.73450 0.85450 0.00154 -0.11500
O 	O 	0.51770 0.81950 0.96630 -0.10200
O 	O 	0.02880 0.77333 0.04630 -0.22800
O 	O 	0.50220 0.62548 0.21691 -0.44400
O 	O 	0.36430 0.67019 0.15975 -0.32700
C 	C 	0.28840 0.79450 0.07800 0.06300
C 	C 	0.36090 0.82640 0.11516 -0.16900
H 	H 	0.31160 0.82450 0.14130 0.11100
C 	C 	0.50670 0.86080 0.11258 0.18400
C 	C 	0.58640 0.86530 0.07547 -0.22500
H 	H 	0.68520 0.88880 0.07460 0.14800
C 	C 	0.51100 0.83260 0.03953 0.19000
C 	C 	0.36610 0.79830 0.03981 -0.17500
H 	H 	0.31940 0.77760 0.01450 0.12400
C 	C 	0.12290 0.76320 0.07744 0.20000
C 	C 	0.93910 0.70740 0.12724 0.23900
C 	C 	0.93430 0.68890 0.17014 -0.22200
H 	H 	0.02890 0.68880 0.18800 0.10000
C 	C 	0.79120 0.67060 0.18686 0.13300
H 	H 	0.78960 0.65770 0.21590 0.01500
C 	C 	0.64810 0.67106 0.16081 -0.18100
C 	C 	0.65510 0.68800 0.11794 0.14900
H 	H 	0.56080 0.68750 0.10000 0.00400
C 	C 	0.79990 0.70590 0.10033 -0.24200
H 	H 	0.80270 0.71670 0.07100 0.15400
C 	C 	0.49310 0.65468 0.17986 0.38800
N 	N 	0.88150 0.72090 0.90690 -0.02700
N 	N 	0.23540 0.86570 0.82342 -0.02500
N 	N 	0.11720 0.92129 0.01104 -0.21600
H 	H 	0.03580 0.88120 0.01550 0.12000
O 	O 	0.82150 0.71010 0.94093 -0.09100
O 	O 	0.85240 0.68320 0.87460 -0.11700
O 	O 	0.21540 0.82120 0.79460 -0.13300
O 	O 	0.31030 0.92230 0.82027 -0.10200
O 	O 	0.30000 0.97300 0.96979 -0.21500
O 	O 	0.09100 0.05936 0.19746 -0.41400
O 	O 	0.32850 0.10024 0.18296 -0.33200
C 	C 	0.13910 0.87900 0.93764 0.08500
C 	C 	0.03280 0.82220 0.94037 -0.17700
H 	H 	0.98780 0.81160 0.96640 0.13200
C 	C 	0.99380 0.78100 0.90387 0.19700
C 	C 	0.05590 0.79430 0.86505 -0.24200
H 	H 	0.02720 0.76620 0.84070 0.14500
C 	C 	0.16170 0.85040 0.86372 0.20800
C 	C 	0.20520 0.89360 0.89819 -0.18500
H 	H 	0.27730 0.93200 0.89560 0.14000
C 	C 	0.19420 0.92890 0.97428 0.19700
C 	C 	0.14780 0.95758 0.05043 0.23900
C 	C 	0.04000 0.94550 0.08161 -0.23700
H 	H 	0.95320 0.91410 0.07560 0.13400
C 	C 	0.05860 0.97880 0.12107 0.13000
H 	H 	0.98430 0.97030 0.14170 0.02400
C 	C 	0.18860 0.02538 0.13054 -0.16600
C 	C 	0.29840 0.03510 0.09970 0.15000
H 	H 	0.38780 0.06470 0.10610 0.02000
C 	C 	0.27970 0.00240 0.05975 -0.24100
H 	H 	0.35460 0.01020 0.03920 0.16500
C 	C 	0.20570 0.06399 0.17230 0.34400
N 	N 	0.91860 0.39500 0.34838 -0.02100
N 	N 	0.90660 0.33560 0.50086 -0.02200
N 	N 	0.40950 0.22761 0.38638 -0.24200
H 	H 	0.31880 0.21590 0.36890 0.14700
O 	O 	0.99700 0.39950 0.31710 -0.12000
O 	O 	0.78200 0.41630 0.34980 -0.11500
O 	O 	0.76550 0.35450 0.49846 -0.11500
O 	O 	0.98230 0.31950 0.53370 -0.10300
O 	O 	0.47120 0.27333 0.45370 -0.22700
O 	O 	0.99780 0.12548 0.28309 -0.43300
O 	O 	0.13570 0.17019 0.34025 -0.32400
C 	C 	0.21160 0.29450 0.42200 0.06900
C 	C 	0.13910 0.32640 0.38484 -0.18000
H 	H 	0.18840 0.32450 0.35870 0.11400
C 	C 	0.99330 0.36080 0.38742 0.19400
C 	C 	0.91360 0.36530 0.42453 -0.23200
H 	H 	0.81480 0.38880 0.42540 0.15000
C 	C 	0.98900 0.33260 0.46047 0.19700
C 	C 	0.13390 0.29830 0.46019 -0.18300
H 	H 	0.18060 0.27760 0.48550 0.12700
C 	C 	0.37710 0.26320 0.42256 0.19800
C 	C 	0.56090 0.20740 0.37276 0.23600
C 	C 	0.56570 0.18890 0.32986 -0.22700
H 	H 	0.47110 0.18880 0.31200 0.10400
C 	C 	0.70880 0.17060 0.31314 0.13000
H 	H 	0.71040 0.15770 0.28410 0.01500
C 	C 	0.85190 0.17106 0.33919 -0.16900
C 	C 	0.84490 0.18800 0.38206 0.14200
H 	H 	0.93920 0.18750 0.40000 0.00700
C 	C 	0.70010 0.20590 0.39967 -0.23800
H 	H 	0.69730 0.21670 0.42900 0.15200
C 	C 	0.00690 0.15468 0.32014 0.37200
N 	N 	0.38150 0.77910 0.40690 -0.02900
N 	N 	0.73540 0.63430 0.32342 -0.02700
N 	N 	0.61720 0.57871 0.51104 -0.21500
H 	H 	0.53580 0.61880 0.51550 0.12000
O 	O 	0.32150 0.78990 0.44093 -0.09100
O 	O 	0.35240 0.81680 0.37460 -0.11600
O 	O 	0.71540 0.67880 0.29460 -0.13300
O 	O 	0.81030 0.57770 0.32027 -0.10100
O 	O 	0.80000 0.52700 0.46979 -0.21400
O 	O 	0.59100 0.44064 0.69746 -0.41100
O 	O 	0.82850 0.39976 0.68296 -0.33300
C 	C 	0.63910 0.62100 0.43764 0.09600
C 	C 	0.53280 0.67780 0.44037 -0.20000
H 	H 	0.48780 0.68840 0.46640 0.14200
C 	C 	0.49380 0.71900 0.40387 0.21600
C 	C 	0.55590 0.70570 0.36505 -0.26100
H 	H 	0.52720 0.73380 0.34070 0.14800
C 	C 	0.66170 0.64960 0.36372 0.21700
C 	C 	0.70520 0.60640 0.39819 -0.19600
H 	H 	0.77730 0.56800 0.39560 0.14400
C 	C 	0.69420 0.57110 0.47428 0.19200
C 	C 	0.64780 0.54242 0.55043 0.23700
C 	C 	0.54000 0.55450 0.58161 -0.23700
H 	H 	0.45320 0.58590 0.57560 0.13300
C 	C 	0.55860 0.52120 0.62107 0.13300
H 	H 	0.48430 0.52970 0.64170 0.02100
C 	C 	0.68860 0.47462 0.63054 -0.16600
C 	C 	0.79840 0.46490 0.59970 0.14900
H 	H 	0.88780 0.43530 0.60610 0.01900
C 	C 	0.77970 0.49760 0.55975 -0.23900
H 	H 	0.85460 0.48980 0.53920 0.16400
C 	C 	0.70570 0.43601 0.67230 0.34400
N 	N 	0.41860 0.10500 0.84838 -0.02000
N 	N 	0.40660 0.16440 0.00086 -0.02100
N 	N 	0.90950 0.27239 0.88638 -0.24400
H 	H 	0.81880 0.28410 0.86890 0.14800
O 	O 	0.49700 0.10050 0.81710 -0.12300
O 	O 	0.28200 0.08370 0.84980 -0.11500
O 	O 	0.26550 0.14550 0.99846 -0.11500
O 	O 	0.48230 0.18050 0.03370 -0.10200
O 	O 	0.97120 0.22667 0.95370 -0.22800
O 	O 	0.49780 0.37452 0.78309 -0.44400
O 	O 	0.63570 0.32981 0.84025 -0.32700
C 	C 	0.71160 0.20550 0.92200 0.06300
C 	C 	0.63910 0.17360 0.88484 -0.16900
H 	H 	0.68840 0.17550 0.85870 0.11100
C 	C 	0.49330 0.13920 0.88742 0.18400
C 	C 	0.41360 0.13470 0.92453 -0.22500
H 	H 	0.31480 0.11120 0.92540 0.14800
C 	C 	0.48900 0.16740 0.96047 0.19000
C 	C 	0.63390 0.20170 0.96019 -0.17500
H 	H 	0.68060 0.22240 0.98550 0.12400
C 	C 	0.87710 0.23680 0.92256 0.20000
C 	C 	0.06090 0.29260 0.87276 0.23900
C 	C 	0.06570 0.31110 0.82986 -0.22200
H 	H 	0.97110 0.31120 0.81200 0.10000
C 	C 	0.20880 0.32940 0.81314 0.13300
H 	H 	0.21040 0.34230 0.78410 0.01500
C 	C 	0.35190 0.32894 0.83919 -0.18100
C 	C 	0.34490 0.31200 0.88206 0.14900
H 	H 	0.43920 0.31250 0.90000 0.00400
C 	C 	0.20010 0.29410 0.89967 -0.24200
H 	H 	0.19730 0.28330 0.92900 0.15400
C 	C 	0.50690 0.34532 0.82014 0.38800
N 	N 	0.11850 0.27910 0.09310 -0.02700
N 	N 	0.76460 0.13430 0.17658 -0.02500
N 	N 	0.88280 0.07871 0.98896 -0.21600
H 	H 	0.96420 0.11880 0.98450 0.12000
O 	O 	0.17850 0.28990 0.05907 -0.09100
O 	O 	0.14760 0.31680 0.12540 -0.11700
O 	O 	0.78460 0.17880 0.20540 -0.13300
O 	O 	0.68970 0.07770 0.17973 -0.10200
O 	O 	0.70000 0.02700 0.03021 -0.21500
O 	O 	0.90900 0.94064 0.80254 -0.41400
O 	O 	0.67150 0.89976 0.81704 -0.33200
C 	C 	0.86090 0.12100 0.06236 0.08500
C 	C 	0.96720 0.17780 0.05963 -0.17700
H 	H 	0.01220 0.18840 0.03360 0.13200
C 	C 	0.00620 0.21900 0.09613 0.19700
C 	C 	0.94410 0.20570 0.13495 -0.24200
H 	H 	0.97280 0.23380 0.15930 0.14500
C 	C 	0.83830 0.14960 0.13628 0.20800
C 	C 	0.79480 0.10640 0.10181 -0.18500
H 	H 	0.72270 0.06800 0.10440 0.14000
C 	C 	0.80580 0.07110 0.02572 0.19700
C 	C 	0.85220 0.04242 0.94957 0.23900
C 	C 	0.96000 0.05450 0.91839 -0.23700
H 	H 	0.04680 0.08590 0.92440 0.13400
C 	C 	0.94140 0.02120 0.87893 0.13000
H 	H 	0.01570 0.02970 0.85830 0.02400
C 	C 	0.81140 0.97462 0.86946 -0.16600
C 	C 	0.70160 0.96490 0.90030 0.15000
H 	H 	0.61220 0.93530 0.89390 0.02000
C 	C 	0.72030 0.99760 0.94025 -0.24100
H 	H 	0.64540 0.98980 0.96080 0.16500
C 	C 	0.79430 0.93601 0.82770 0.34400
N 	N 	0.08140 0.60500 0.65162 -0.02100
N 	N 	0.09340 0.66440 0.49914 -0.02200
N 	N 	0.59050 0.77239 0.61362 -0.24200
H 	H 	0.68120 0.78410 0.63110 0.14700
O 	O 	0.00300 0.60050 0.68290 -0.12000
O 	O 	0.21800 0.58370 0.65020 -0.11500
O 	O 	0.23450 0.64550 0.50154 -0.11500
O 	O 	0.01770 0.68050 0.46630 -0.10300
O 	O 	0.52880 0.72667 0.54630 -0.22700
O 	O 	0.00220 0.87452 0.71691 -0.43300
O 	O 	0.86430 0.82981 0.65975 -0.32400
C 	C 	0.78840 0.70550 0.57800 0.06900
C 	C 	0.86090 0.67360 0.61516 -0.18000
H 	H 	0.81160 0.67550 0.64130 0.11400
C 	C 	0.00670 0.63920 0.61258 0.19400
C 	C 	0.08640 0.63470 0.57547 -0.23200
H 	H 	0.18520 0.61120 0.57460 0.15000
C 	C 	0.01100 0.66740 0.53953 0.19700
C 	C 	0.86610 0.70170 0.53981 -0.18300
H 	H 	0.81940 0.72240 0.51450 0.12700
C 	C 	0.62290 0.73680 0.57744 0.19800
C 	C 	0.43910 0.79260 0.62724 0.23600
C 	C 	0.43430 0.81110 0.67014 -0.22700
H 	H 	0.52890 0.81120 0.68800 0.10400
C 	C 	0.29120 0.82940 0.68686 0.13000
H 	H 	0.28960 0.84230 0.71590 0.01500
C 	C 	0.14810 0.82894 0.66081 -0.16900
C 	C 	0.15510 0.81200 0.61794 0.14200
H 	H 	0.06080 0.81250 0.60000 0.00700
C 	C 	0.29990 0.79410 0.60033 -0.23800
H 	H 	0.30270 0.78330 0.57100 0.15200
C 	C 	0.99310 0.84532 0.67986 0.37200
