data_crystal

_cell_length_a 12.21900
_cell_length_b 12.81500
_cell_length_c 20.58500
_cell_angle_alpha 95.18700
_cell_angle_beta  92.18400
_cell_angle_gamma 105.72400

_symmetry_space_group_name_	'P 1'
_symmetry_space_group_name_H-M	'P 1'

loop_
_symmetry_equiv_pos_as_xyz
  x,y,z

loop_
_atom_site_label
_atom_site_type_symbol
_atom_site_fract_x
_atom_site_fract_y
_atom_site_fract_z
_atom_site_charge
Cd	Cd	0.29108 0.68231 0.23629 1.20500
Cd	Cd	0.77683 0.54427 0.28985 1.19600
S 	S 	0.54351 0.17446 0.50112 -0.02600
S 	S 	0.37210 0.11449 0.48035 -0.03400
S 	S 	0.93323 0.11714 0.07024 -0.04400
S 	S 	0.06972 0.20991 0.02796 -0.02400
O 	O 	0.46140 0.79250 0.19160 -0.35000
O 	O 	0.29530 0.77060 0.13998 -0.40200
O 	O 	0.25900 0.57360 0.33290 -0.36900
O 	O 	0.43220 0.63160 0.29950 -0.39400
O 	O 	0.76190 0.42350 0.18712 -0.36600
O 	O 	0.86880 0.59690 0.19830 -0.38900
O 	O 	0.79470 0.72940 0.32480 -0.38500
O 	O 	0.88550 0.65370 0.38750 -0.39900
N 	N 	0.68900 0.41840 0.35680 -0.26000
N 	N 	0.32330 0.82920 0.31780 -0.23300
N 	N 	0.22520 0.51890 0.17040 -0.23900
N 	N 	0.04740 0.85160 0.16860 -0.13800
C 	C 	0.70990 0.32660 0.45150 -0.15500
H 	H 	0.75570 0.31420 0.48540 0.09100
C 	C 	0.59420 0.26880 0.44320 0.09300
C 	C 	0.52330 0.28860 0.39330 -0.16200
H 	H 	0.44530 0.25520 0.38770 0.09300
C 	C 	0.58410 0.36620 0.35130 0.10800
H 	H 	0.54140 0.37950 0.31620 -0.03200
C 	C 	0.75320 0.39850 0.41110 0.07300
H 	H 	0.82930 0.43820 0.41830 -0.01000
C 	C 	0.39470 0.81140 0.14540 0.30000
C 	C 	0.45140 0.89210 0.09620 -0.04700
C 	C 	0.56140 0.96480 0.11150 -0.00100
H 	H 	0.60230 0.96310 0.15020 0.04100
C 	C 	0.60510 0.03570 0.06940 -0.09200
H 	H 	0.67370 0.08730 0.08260 0.06700
C 	C 	0.55840 0.03940 0.00880 0.03500
C 	C 	0.39470 0.88880 0.03730 -0.06200
H 	H 	0.32410 0.83840 0.02740 0.06900
C 	C 	0.26600 0.50060 0.11030 0.07200
H 	H 	0.32460 0.55610 0.09720 -0.00300
C 	C 	0.22650 0.40490 0.06720 -0.14300
H 	H 	0.26100 0.39380 0.02860 0.08700
C 	C 	0.13220 0.32790 0.08610 0.08700
C 	C 	0.08740 0.34510 0.14750 -0.15300
H 	H 	0.02720 0.29190 0.16130 0.08800
C 	C 	0.13310 0.43910 0.18570 0.08300
H 	H 	0.10000 0.45050 0.22470 -0.02400
C 	C 	0.11850 0.91680 0.13040 0.06700
H 	H 	0.18890 0.90490 0.12280 0.02500
C 	C 	0.08790 0.00280 0.10180 -0.14600
H 	H 	0.14000 0.04960 0.07840 0.08800
C 	C 	0.98170 0.01630 0.10880 0.10500
C 	C 	0.91290 0.95210 0.14470 -0.16800
H 	H 	0.83980 0.95910 0.14970 0.09300
C 	C 	0.36550 0.58620 0.33570 0.31000
C 	C 	0.45180 0.99280 0.37890 -0.14700
H 	H 	0.52410 0.04140 0.38580 0.08800
C 	C 	0.42600 0.90370 0.33020 0.07800
H 	H 	0.48440 0.89520 0.30440 0.00900
C 	C 	0.35950 0.00350 0.41680 0.09500
C 	C 	0.25810 0.93090 0.40950 -0.15600
H 	H 	0.19980 0.93610 0.43630 0.09300
C 	C 	0.87660 0.48550 0.09860 -0.06200
C 	C 	0.97800 0.56620 0.07970 -0.04500
H 	H 	0.01060 0.62920 0.10760 0.05900
C 	C 	0.02770 0.54870 0.01840 0.01300
C 	C 	0.12240 0.63120 0.99920 -0.01700
C 	C 	0.83550 0.38530 0.05910 0.02600
C 	C 	0.83240 0.50180 0.16490 0.26600
C 	C 	0.40240 0.54340 0.40190 -0.04700
C 	C 	0.86410 0.73430 0.37380 0.32700
C 	C 	0.90230 0.84210 0.41630 -0.05900
C 	C 	0.87360 0.93520 0.39550 -0.03800
H 	H 	0.82990 0.92860 0.35660 0.06100
C 	C 	0.95950 0.84830 0.47210 -0.04200
H 	H 	0.96610 0.78440 0.48800 0.05700
C 	C 	0.94850 0.87310 0.17550 0.09400
H 	H 	0.89890 0.83270 0.20300 0.01400
C 	C 	0.24260 0.84220 0.35720 0.08000
H 	H 	0.17160 0.79130 0.35090 -0.01800
C 	C 	0.54010 0.53620 0.48960 0.03100
C 	C 	0.64790 0.58490 0.51220 -0.08700
H 	H 	0.69910 0.64080 0.49420 0.06600
C 	C 	0.90980 0.03430 0.43230 -0.00900
C 	C 	0.01370 0.95340 0.51050 0.00200
C 	C 	0.33020 0.46440 0.43150 -0.00600
H 	H 	0.25640 0.43920 0.41230 0.04700
C 	C 	0.53090 0.59390 0.42310 -0.06100
H 	H 	0.58680 0.64330 0.40330 0.05400
Cd	Cd	0.70892 0.31769 0.76371 1.20600
Cd	Cd	0.22317 0.45573 0.71015 1.19700
S 	S 	0.45649 0.82554 0.49888 -0.02500
S 	S 	0.62790 0.88551 0.51965 -0.03300
S 	S 	0.06677 0.88286 0.92976 -0.04300
S 	S 	0.93028 0.79009 0.97204 -0.02300
O 	O 	0.53860 0.20750 0.80840 -0.34900
O 	O 	0.70470 0.22940 0.86002 -0.40100
O 	O 	0.74100 0.42640 0.66710 -0.36800
O 	O 	0.56780 0.36840 0.70050 -0.39300
O 	O 	0.23810 0.57650 0.81288 -0.36500
O 	O 	0.13120 0.40310 0.80170 -0.38800
O 	O 	0.20530 0.27060 0.67520 -0.38400
O 	O 	0.11450 0.34630 0.61250 -0.39800
N 	N 	0.31100 0.58160 0.64320 -0.25900
N 	N 	0.67670 0.17080 0.68220 -0.23200
N 	N 	0.77480 0.48110 0.82960 -0.23900
N 	N 	0.95260 0.14840 0.83140 -0.13800
C 	C 	0.29010 0.67340 0.54850 -0.15500
H 	H 	0.24430 0.68580 0.51460 0.09100
C 	C 	0.40580 0.73120 0.55680 0.09300
C 	C 	0.47670 0.71140 0.60670 -0.16200
H 	H 	0.55470 0.74480 0.61230 0.09300
C 	C 	0.41590 0.63380 0.64870 0.10800
H 	H 	0.45860 0.62050 0.68380 -0.03200
C 	C 	0.24680 0.60150 0.58890 0.07300
H 	H 	0.17070 0.56180 0.58170 -0.01000
C 	C 	0.60530 0.18860 0.85460 0.30000
C 	C 	0.54860 0.10790 0.90380 -0.04700
C 	C 	0.43860 0.03520 0.88850 -0.00100
H 	H 	0.39770 0.03690 0.84980 0.04100
C 	C 	0.39490 0.96430 0.93060 -0.09200
H 	H 	0.32630 0.91270 0.91740 0.06700
C 	C 	0.44160 0.96060 0.99120 0.03500
C 	C 	0.60530 0.11120 0.96270 -0.06200
H 	H 	0.67590 0.16160 0.97260 0.06900
C 	C 	0.73400 0.49940 0.88970 0.07200
H 	H 	0.67540 0.44390 0.90280 -0.00300
C 	C 	0.77350 0.59510 0.93280 -0.14300
H 	H 	0.73900 0.60620 0.97140 0.08700
C 	C 	0.86780 0.67210 0.91390 0.08700
C 	C 	0.91260 0.65490 0.85250 -0.15300
H 	H 	0.97280 0.70810 0.83870 0.08800
C 	C 	0.86690 0.56090 0.81430 0.08300
H 	H 	0.90000 0.54950 0.77530 -0.02400
C 	C 	0.88150 0.08320 0.86960 0.06700
H 	H 	0.81110 0.09510 0.87720 0.02500
C 	C 	0.91210 0.99720 0.89820 -0.14600
H 	H 	0.86000 0.95040 0.92160 0.08800
C 	C 	0.01830 0.98370 0.89120 0.10500
C 	C 	0.08710 0.04790 0.85530 -0.16800
H 	H 	0.16020 0.04090 0.85030 0.09300
C 	C 	0.63450 0.41380 0.66430 0.31000
C 	C 	0.54820 0.00720 0.62110 -0.14700
H 	H 	0.47590 0.95860 0.61420 0.08800
C 	C 	0.57400 0.09630 0.66980 0.07800
H 	H 	0.51560 0.10480 0.69560 0.00900
C 	C 	0.64050 0.99650 0.58320 0.09500
C 	C 	0.74190 0.06910 0.59050 -0.15600
H 	H 	0.80020 0.06390 0.56370 0.09300
C 	C 	0.12340 0.51450 0.90140 -0.06200
C 	C 	0.02200 0.43380 0.92030 -0.04500
H 	H 	0.98940 0.37080 0.89240 0.05900
C 	C 	0.97230 0.45130 0.98160 0.01300
C 	C 	0.87760 0.36880 0.00080 -0.01700
C 	C 	0.16450 0.61470 0.94090 0.02600
C 	C 	0.16760 0.49820 0.83510 0.26600
C 	C 	0.59760 0.45660 0.59810 -0.04700
C 	C 	0.13590 0.26570 0.62620 0.32700
C 	C 	0.09770 0.15790 0.58370 -0.05900
C 	C 	0.12640 0.06480 0.60450 -0.03800
H 	H 	0.17010 0.07140 0.64340 0.06100
C 	C 	0.04050 0.15170 0.52790 -0.04200
H 	H 	0.03390 0.21560 0.51200 0.05700
C 	C 	0.05150 0.12690 0.82450 0.09400
H 	H 	0.10110 0.16730 0.79700 0.01400
C 	C 	0.75740 0.15780 0.64280 0.08000
H 	H 	0.82840 0.20870 0.64910 -0.01800
C 	C 	0.45990 0.46380 0.51040 0.03100
C 	C 	0.35210 0.41510 0.48780 -0.08700
H 	H 	0.30090 0.35920 0.50580 0.06600
C 	C 	0.09020 0.96570 0.56770 -0.00900
C 	C 	0.98630 0.04660 0.48950 0.00200
C 	C 	0.66980 0.53560 0.56850 -0.00600
H 	H 	0.74360 0.56080 0.58770 0.04700
C 	C 	0.46910 0.40610 0.57690 -0.06100
H 	H 	0.41320 0.35670 0.59670 0.05400
