data_crystal

_cell_length_a 10.38090
_cell_length_b 11.88490
_cell_length_c 14.27920
_cell_angle_alpha 107.44300
_cell_angle_beta  94.91100
_cell_angle_gamma 100.76500

_symmetry_space_group_name_	'P 1'
_symmetry_space_group_name_H-M	'P 1'

loop_
_symmetry_equiv_pos_as_xyz
  x,y,z

loop_
_atom_site_label
_atom_site_type_symbol
_atom_site_fract_x
_atom_site_fract_y
_atom_site_fract_z
_atom_site_charge
Cu	Cu	0.74960 0.53580 0.26239 0.85000
N 	N 	0.18010 0.59240 0.69620 -0.25300
N 	N 	0.07140 0.71870 0.66040 -0.14400
N 	N 	0.95160 0.76400 0.53010 -0.08900
N 	N 	0.86280 0.66980 0.46670 -0.06800
N 	N 	0.87350 0.67150 0.37700 -0.18900
N 	N 	0.69450 0.66980 0.21700 -0.19100
N 	N 	0.71510 0.67230 0.12860 -0.06800
N 	N 	0.67510 0.76670 0.11430 -0.08900
N 	N 	0.54360 0.72330 0.95510 -0.14400
N 	N 	0.37870 0.59550 0.84850 -0.25100
C 	C 	0.73130 0.36610 0.58780 -0.88600
H 	H 	0.68150 0.32270 0.52300 0.28500
H 	H 	0.67670 0.40990 0.62900 0.26900
H 	H 	0.75930 0.31010 0.61710 0.28300
C 	C 	0.85250 0.45460 0.57880 0.41000
H 	H 	0.82410 0.50720 0.54480 -0.09500
H 	H 	0.90900 0.40980 0.53910 -0.08000
C 	C 	0.93290 0.53240 0.68100 -0.46500
H 	H 	0.87850 0.58300 0.71740 0.14800
H 	H 	0.95100 0.47900 0.71770 0.13200
C 	C 	0.06100 0.61150 0.67840 0.22200
C 	C 	0.27070 0.69000 0.68880 -0.01000
H 	H 	0.36240 0.69950 0.69710 0.00500
C 	C 	0.20490 0.76820 0.66770 -0.00500
H 	H 	0.24180 0.84160 0.65950 0.03100
C 	C 	0.96830 0.77560 0.63610 0.01300
H 	H 	0.99050 0.86060 0.67560 0.03100
H 	H 	0.88550 0.73840 0.65230 0.02600
C 	C 	0.02480 0.82900 0.48050 0.06300
C 	C 	0.12760 0.93250 0.51040 -0.09600
H 	H 	0.16100 0.97360 0.57700 0.07100
C 	C 	0.17630 0.97010 0.43590 -0.02600
H 	H 	0.24620 0.03760 0.45240 0.03500
C 	C 	0.12410 0.90980 0.33520 -0.03000
H 	H 	0.15950 0.93960 0.28740 0.02800
C 	C 	0.02240 0.80820 0.30500 -0.10800
H 	H 	0.98860 0.76830 0.23830 0.04800
C 	C 	0.97280 0.76850 0.38000 0.04800
C 	C 	0.63720 0.76370 0.26100 0.04900
C 	C 	0.59020 0.79650 0.35310 -0.11000
H 	H 	0.59830 0.75460 0.39810 0.04300
C 	C 	0.53180 0.89370 0.37210 -0.03500
H 	H 	0.49710 0.91720 0.43100 0.02700
C 	C 	0.52250 0.95940 0.30530 -0.03400
H 	H 	0.48360 0.02580 0.32250 0.02800
C 	C 	0.56840 0.92930 0.21600 -0.09900
H 	H 	0.56230 0.97320 0.17240 0.06000
C 	C 	0.62540 0.82790 0.19450 0.05900
C 	C 	0.67360 0.78000 0.01490 0.00900
H 	H 	0.69500 0.86530 0.02130 0.02700
H 	H 	0.74030 0.74280 0.98220 0.02700
C 	C 	0.43450 0.77300 0.96840 0.00200
H 	H 	0.43190 0.84710 0.01380 0.02400
C 	C 	0.33320 0.69460 0.90370 -0.01600
H 	H 	0.24650 0.70440 0.89650 0.00800
C 	C 	0.50570 0.61490 0.88110 0.21800
C 	C 	0.59830 0.53470 0.84220 -0.46200
H 	H 	0.68000 0.58510 0.83600 0.14800
H 	H 	0.55860 0.48110 0.77610 0.13200
C 	C 	0.63300 0.45790 0.90500 0.40600
H 	H 	0.55190 0.41090 0.91560 -0.08000
H 	H 	0.68040 0.51050 0.96930 -0.09300
C 	C 	0.71850 0.37230 0.85530 -0.87000
H 	H 	0.75970 0.34330 0.90350 0.27700
H 	H 	0.78580 0.41480 0.82830 0.26300
H 	H 	0.66380 0.30500 0.80280 0.28100
Cu	Cu	0.25040 0.46420 0.73761 0.85000
N 	N 	0.81990 0.40760 0.30380 -0.25300
N 	N 	0.92860 0.28130 0.33960 -0.14400
N 	N 	0.04840 0.23600 0.46990 -0.08900
N 	N 	0.13720 0.33020 0.53330 -0.06800
N 	N 	0.12650 0.32850 0.62300 -0.18900
N 	N 	0.30550 0.33020 0.78300 -0.19100
N 	N 	0.28490 0.32770 0.87140 -0.06800
N 	N 	0.32490 0.23330 0.88570 -0.08900
N 	N 	0.45640 0.27670 0.04490 -0.14400
N 	N 	0.62130 0.40450 0.15150 -0.25100
C 	C 	0.26870 0.63390 0.41220 -0.88600
H 	H 	0.31850 0.67730 0.47700 0.28500
H 	H 	0.32330 0.59010 0.37100 0.26900
H 	H 	0.24070 0.68990 0.38290 0.28300
C 	C 	0.14750 0.54540 0.42120 0.41000
H 	H 	0.17590 0.49280 0.45520 -0.09500
H 	H 	0.09100 0.59020 0.46090 -0.08000
C 	C 	0.06710 0.46760 0.31900 -0.46500
H 	H 	0.12150 0.41700 0.28260 0.14800
H 	H 	0.04900 0.52100 0.28230 0.13200
C 	C 	0.93900 0.38850 0.32160 0.22200
C 	C 	0.72930 0.31000 0.31120 -0.01000
H 	H 	0.63760 0.30050 0.30290 0.00500
C 	C 	0.79510 0.23180 0.33230 -0.00500
H 	H 	0.75820 0.15840 0.34050 0.03100
C 	C 	0.03170 0.22440 0.36390 0.01300
H 	H 	0.00950 0.13940 0.32440 0.03100
H 	H 	0.11450 0.26160 0.34770 0.02600
C 	C 	0.97520 0.17100 0.51950 0.06300
C 	C 	0.87240 0.06750 0.48960 -0.09600
H 	H 	0.83900 0.02640 0.42300 0.07100
C 	C 	0.82370 0.02990 0.56410 -0.02600
H 	H 	0.75380 0.96240 0.54760 0.03500
C 	C 	0.87590 0.09020 0.66480 -0.03000
H 	H 	0.84050 0.06040 0.71260 0.02800
C 	C 	0.97760 0.19180 0.69500 -0.10800
H 	H 	0.01140 0.23170 0.76170 0.04800
C 	C 	0.02720 0.23150 0.62000 0.04800
C 	C 	0.36280 0.23630 0.73900 0.04900
C 	C 	0.40980 0.20350 0.64690 -0.11000
H 	H 	0.40170 0.24540 0.60190 0.04300
C 	C 	0.46820 0.10630 0.62790 -0.03500
H 	H 	0.50290 0.08280 0.56900 0.02700
C 	C 	0.47750 0.04060 0.69470 -0.03400
H 	H 	0.51640 0.97420 0.67750 0.02800
C 	C 	0.43160 0.07070 0.78400 -0.09900
H 	H 	0.43770 0.02680 0.82760 0.06000
C 	C 	0.37460 0.17210 0.80550 0.05900
C 	C 	0.32640 0.22000 0.98510 0.00900
H 	H 	0.30500 0.13470 0.97870 0.02700
H 	H 	0.25970 0.25720 0.01780 0.02700
C 	C 	0.56550 0.22700 0.03160 0.00200
H 	H 	0.56810 0.15290 0.98620 0.02400
C 	C 	0.66680 0.30540 0.09630 -0.01600
H 	H 	0.75350 0.29560 0.10350 0.00800
C 	C 	0.49430 0.38510 0.11890 0.21800
C 	C 	0.40170 0.46530 0.15780 -0.46200
H 	H 	0.32000 0.41490 0.16400 0.14800
H 	H 	0.44140 0.51890 0.22390 0.13200
C 	C 	0.36700 0.54210 0.09500 0.40600
H 	H 	0.44810 0.58910 0.08440 -0.08000
H 	H 	0.31960 0.48950 0.03070 -0.09300
C 	C 	0.28150 0.62770 0.14470 -0.87000
H 	H 	0.24030 0.65670 0.09650 0.27700
H 	H 	0.21420 0.58520 0.17170 0.26300
H 	H 	0.33620 0.69500 0.19720 0.28100
