data_crystal

_cell_length_a 15.46600
_cell_length_b 8.05570
_cell_length_c 18.44500
_cell_angle_alpha 90.00000
_cell_angle_beta  123.60500
_cell_angle_gamma 90.00000

_symmetry_space_group_name_	'P 1'
_symmetry_space_group_name_H-M	'P 1'

loop_
_symmetry_equiv_pos_as_xyz
  x,y,z

loop_
_atom_site_label
_atom_site_type_symbol
_atom_site_fract_x
_atom_site_fract_y
_atom_site_fract_z
_atom_site_charge
Cd	Cd	0.02571 0.61005 0.86584 1.21900
Br	Br	0.67401 0.79390 0.64821 -0.28100
C 	C 	0.84470 0.96870 0.79020 -0.20400
C 	C 	0.89330 0.05780 0.86820 0.10300
H 	H 	0.95940 0.10070 0.89140 0.00200
C 	C 	0.84450 0.08330 0.91150 -0.14100
C 	C 	0.74720 0.01390 0.87780 0.10400
H 	H 	0.71510 0.02670 0.90770 0.00900
C 	C 	0.69750 0.92670 0.80090 -0.21100
H 	H 	0.63190 0.88220 0.77840 0.12200
C 	C 	0.74640 0.90580 0.75720 0.21000
C 	C 	0.90070 0.94880 0.74410 0.41500
C 	C 	0.89460 0.18890 0.99240 0.31200
C 	C 	0.81960 0.39960 0.72870 0.09700
H 	H 	0.84630 0.37250 0.69580 0.00800
C 	C 	0.79890 0.49550 0.82330 0.11100
H 	H 	0.81180 0.55100 0.87260 -0.01500
C 	C 	0.64400 0.26470 0.63210 -0.14700
H 	H 	0.60700 0.19280 0.64840 0.09900
H 	H 	0.67500 0.19570 0.60930 0.10200
C 	C 	0.56830 0.38490 0.56240 0.09600
C 	C 	0.47990 0.43550 0.55750 -0.05300
H 	H 	0.46500 0.39180 0.59600 0.06400
C 	C 	0.58670 0.44940 0.50410 -0.06600
H 	H 	0.64510 0.41560 0.50560 0.07400
N 	N 	0.86840 0.48920 0.80150 -0.25000
N 	N 	0.71100 0.41730 0.76980 -0.09000
N 	N 	0.72670 0.35500 0.71010 -0.06800
O 	O 	0.96260 0.83250 0.76390 -0.43200
O 	O 	0.87940 0.05800 0.68780 -0.42900
O 	O 	0.97630 0.26810 0.01653 -0.39100
O 	O 	0.85270 0.19380 0.03530 -0.36800
Cd	Cd	0.97429 0.11005 0.63416 1.21700
Br	Br	0.32599 0.29390 0.85179 -0.28300
C 	C 	0.15530 0.46870 0.70980 -0.21100
C 	C 	0.10670 0.55780 0.63180 0.11100
H 	H 	0.04060 0.60070 0.60860 -0.00000
C 	C 	0.15550 0.58330 0.58850 -0.14800
C 	C 	0.25280 0.51390 0.62220 0.11400
H 	H 	0.28490 0.52670 0.59230 0.00700
C 	C 	0.30250 0.42670 0.69910 -0.21900
H 	H 	0.36810 0.38220 0.72160 0.12500
C 	C 	0.25360 0.40580 0.74280 0.21500
C 	C 	0.09930 0.44880 0.75590 0.41300
C 	C 	0.10540 0.68890 0.50760 0.32000
C 	C 	0.18040 0.89960 0.77130 0.09700
H 	H 	0.15370 0.87250 0.80420 0.00800
C 	C 	0.20110 0.99550 0.67670 0.10900
H 	H 	0.18820 0.05100 0.62740 -0.01300
C 	C 	0.35600 0.76470 0.86790 -0.14700
H 	H 	0.39300 0.69280 0.85160 0.09900
H 	H 	0.32500 0.69570 0.89070 0.10200
C 	C 	0.43170 0.88490 0.93760 0.09600
C 	C 	0.52010 0.93550 0.94250 -0.05300
H 	H 	0.53500 0.89180 0.90400 0.06400
C 	C 	0.41330 0.94940 0.99590 -0.06600
H 	H 	0.35490 0.91560 0.99440 0.07400
N 	N 	0.13160 0.98920 0.69850 -0.25000
N 	N 	0.28900 0.91730 0.73020 -0.08900
N 	N 	0.27330 0.85500 0.78990 -0.06700
O 	O 	0.03740 0.33250 0.73610 -0.43100
O 	O 	0.12060 0.55800 0.81220 -0.42600
O 	O 	0.02370 0.76810 0.48347 -0.39500
O 	O 	0.14730 0.69380 0.46470 -0.37100
Cd	Cd	0.97429 0.38995 0.13416 1.21800
Br	Br	0.32599 0.20610 0.35179 -0.28200
C 	C 	0.15530 0.03130 0.20980 -0.20500
C 	C 	0.10670 0.94220 0.13180 0.10200
H 	H 	0.04060 0.89930 0.10860 0.00100
C 	C 	0.15550 0.91670 0.08850 -0.14200
C 	C 	0.25280 0.98610 0.12220 0.10400
H 	H 	0.28490 0.97330 0.09230 0.00900
C 	C 	0.30250 0.07330 0.19910 -0.21100
H 	H 	0.36810 0.11780 0.22160 0.12200
C 	C 	0.25360 0.09420 0.24280 0.21000
C 	C 	0.09930 0.05120 0.25590 0.41500
C 	C 	0.10540 0.81110 0.00760 0.31200
C 	C 	0.18040 0.60040 0.27130 0.09700
H 	H 	0.15370 0.62750 0.30420 0.00800
C 	C 	0.20110 0.50450 0.17670 0.11100
H 	H 	0.18820 0.44900 0.12740 -0.01500
C 	C 	0.35600 0.73530 0.36790 -0.14700
H 	H 	0.39300 0.80720 0.35160 0.09900
H 	H 	0.32500 0.80430 0.39070 0.10200
C 	C 	0.43170 0.61510 0.43760 0.09600
C 	C 	0.52010 0.56450 0.44250 -0.05300
H 	H 	0.53500 0.60820 0.40400 0.06400
C 	C 	0.41330 0.55060 0.49590 -0.06600
H 	H 	0.35490 0.58440 0.49440 0.07400
N 	N 	0.13160 0.51080 0.19850 -0.25000
N 	N 	0.28900 0.58270 0.23020 -0.09000
N 	N 	0.27330 0.64500 0.28990 -0.06800
O 	O 	0.03740 0.16750 0.23610 -0.43200
O 	O 	0.12060 0.94200 0.31220 -0.42900
O 	O 	0.02370 0.73190 0.98347 -0.39100
O 	O 	0.14730 0.80620 0.96470 -0.36800
Cd	Cd	0.02571 0.88995 0.36584 1.21700
Br	Br	0.67401 0.70610 0.14821 -0.28300
C 	C 	0.84470 0.53130 0.29020 -0.21100
C 	C 	0.89330 0.44220 0.36820 0.11100
H 	H 	0.95940 0.39930 0.39140 -0.00000
C 	C 	0.84450 0.41670 0.41150 -0.14800
C 	C 	0.74720 0.48610 0.37780 0.11400
H 	H 	0.71510 0.47330 0.40770 0.00700
C 	C 	0.69750 0.57330 0.30090 -0.21900
H 	H 	0.63190 0.61780 0.27840 0.12500
C 	C 	0.74640 0.59420 0.25720 0.21500
C 	C 	0.90070 0.55120 0.24410 0.41300
C 	C 	0.89460 0.31110 0.49240 0.32000
C 	C 	0.81960 0.10040 0.22870 0.09700
H 	H 	0.84630 0.12750 0.19580 0.00800
C 	C 	0.79890 0.00450 0.32330 0.10900
H 	H 	0.81180 0.94900 0.37260 -0.01300
C 	C 	0.64400 0.23530 0.13210 -0.14700
H 	H 	0.60700 0.30720 0.14840 0.09900
H 	H 	0.67500 0.30430 0.10930 0.10200
C 	C 	0.56830 0.11510 0.06240 0.09600
C 	C 	0.47990 0.06450 0.05750 -0.05300
H 	H 	0.46500 0.10820 0.09600 0.06400
C 	C 	0.58670 0.05060 0.00410 -0.06600
H 	H 	0.64510 0.08440 0.00560 0.07400
N 	N 	0.86840 0.01080 0.30150 -0.25000
N 	N 	0.71100 0.08270 0.26980 -0.08900
N 	N 	0.72670 0.14500 0.21010 -0.06700
O 	O 	0.96260 0.66750 0.26390 -0.43100
O 	O 	0.87940 0.44200 0.18780 -0.42600
O 	O 	0.97630 0.23190 0.51653 -0.39500
O 	O 	0.85270 0.30620 0.53530 -0.37100
