data_crystal

_cell_length_a 8.39700
_cell_length_b 17.81200
_cell_length_c 31.25700
_cell_angle_alpha 90.00000
_cell_angle_beta  94.24000
_cell_angle_gamma 90.00000

_symmetry_space_group_name_	'P 1'
_symmetry_space_group_name_H-M	'P 1'

loop_
_symmetry_equiv_pos_as_xyz
  x,y,z

loop_
_atom_site_label
_atom_site_type_symbol
_atom_site_fract_x
_atom_site_fract_y
_atom_site_fract_z
_atom_site_charge
Zn	Zn	0.82742 0.12505 0.75377 1.21500
N 	N 	0.66130 0.06110 0.72209 -0.26200
N 	N 	0.44840 0.98840 0.70950 -0.12400
N 	N 	0.89230 0.82920 0.73487 -0.14200
N 	N 	0.73330 0.73310 0.73932 -0.25500
C 	C 	0.52960 0.03540 0.73899 0.08100
H 	H 	0.49780 0.04720 0.76610 0.02600
C 	C 	0.67070 0.03370 0.68332 0.03800
H 	H 	0.75430 0.04290 0.66610 0.02400
C 	C 	0.54180 0.99030 0.67176 -0.01500
H 	H 	0.51790 0.96670 0.64550 0.06200
C 	C 	0.30090 0.95270 0.71473 0.12200
C 	C 	0.25960 0.89380 0.68683 -0.06400
H 	H 	0.31640 0.88230 0.66330 0.07600
C 	C 	0.11710 0.85110 0.69796 -0.10800
H 	H 	0.09140 0.80760 0.68250 0.10000
C 	C 	0.02960 0.86930 0.72658 0.13100
C 	C 	0.06030 0.93510 0.74754 -0.07400
H 	H 	0.98960 0.95290 0.76670 0.07100
C 	C 	0.20360 0.97770 0.74015 -0.09500
H 	H 	0.22330 0.02320 0.75410 0.10300
C 	C 	0.87260 0.75530 0.72676 0.09600
H 	H 	0.94580 0.72470 0.71420 0.01300
C 	C 	0.66140 0.79280 0.75533 0.00900
H 	H 	0.56070 0.79370 0.76590 0.04100
C 	C 	0.76160 0.85100 0.75337 0.02100
H 	H 	0.74310 0.89920 0.76340 0.03700
Zn	Zn	0.67258 0.62505 0.74623 1.21500
N 	N 	0.83870 0.56110 0.77791 -0.26200
N 	N 	0.05160 0.48840 0.79050 -0.12200
N 	N 	0.60770 0.32920 0.76513 -0.14200
N 	N 	0.76670 0.23310 0.76068 -0.25700
C 	C 	0.97040 0.53540 0.76101 0.07400
H 	H 	0.00220 0.54720 0.73390 0.02900
C 	C 	0.82930 0.53370 0.81668 0.03800
H 	H 	0.74570 0.54290 0.83390 0.02300
C 	C 	0.95820 0.49030 0.82824 -0.01900
H 	H 	0.98210 0.46670 0.85450 0.06100
C 	C 	0.19910 0.45270 0.78527 0.11900
C 	C 	0.24040 0.39380 0.81317 -0.06300
H 	H 	0.18360 0.38230 0.83670 0.07500
C 	C 	0.38290 0.35110 0.80204 -0.10800
H 	H 	0.40860 0.30760 0.81750 0.10000
C 	C 	0.47040 0.36930 0.77342 0.13200
C 	C 	0.43970 0.43510 0.75246 -0.07800
H 	H 	0.51040 0.45290 0.73330 0.07400
C 	C 	0.29640 0.47770 0.75985 -0.09100
H 	H 	0.27670 0.52320 0.74590 0.10100
C 	C 	0.62740 0.25530 0.77324 0.09600
H 	H 	0.55420 0.22470 0.78580 0.01300
C 	C 	0.83860 0.29280 0.74467 0.00900
H 	H 	0.93930 0.29370 0.73410 0.04000
C 	C 	0.73840 0.35100 0.74663 0.02100
H 	H 	0.75690 0.39920 0.73660 0.03700
Zn	Zn	0.17258 0.87495 0.24623 1.21400
N 	N 	0.33870 0.93890 0.27791 -0.26300
N 	N 	0.55160 0.01160 0.29050 -0.12500
N 	N 	0.10770 0.17080 0.26513 -0.14300
N 	N 	0.26670 0.26690 0.26068 -0.25600
C 	C 	0.47040 0.96460 0.26101 0.08000
H 	H 	0.50220 0.95280 0.23390 0.02500
C 	C 	0.32930 0.96630 0.31668 0.03700
H 	H 	0.24570 0.95710 0.33390 0.02300
C 	C 	0.45820 0.00970 0.32824 -0.01600
H 	H 	0.48210 0.03330 0.35450 0.06100
C 	C 	0.69910 0.04730 0.28527 0.12100
C 	C 	0.74040 0.10620 0.31317 -0.06500
H 	H 	0.68360 0.11770 0.33670 0.07500
C 	C 	0.88290 0.14890 0.30204 -0.10800
H 	H 	0.90860 0.19240 0.31750 0.10000
C 	C 	0.97040 0.13070 0.27342 0.13100
C 	C 	0.93970 0.06490 0.25246 -0.07400
H 	H 	0.01040 0.04710 0.23330 0.07100
C 	C 	0.79640 0.02230 0.25985 -0.09500
H 	H 	0.77670 0.97680 0.24590 0.10300
C 	C 	0.12740 0.24470 0.27324 0.09600
H 	H 	0.05420 0.27530 0.28580 0.01300
C 	C 	0.33860 0.20720 0.24467 0.00900
H 	H 	0.43930 0.20630 0.23410 0.04100
C 	C 	0.23840 0.14900 0.24663 0.02100
H 	H 	0.25690 0.10080 0.23660 0.03700
Zn	Zn	0.32742 0.37495 0.25377 1.21500
N 	N 	0.16130 0.43890 0.22209 -0.26200
N 	N 	0.94840 0.51160 0.20950 -0.12200
N 	N 	0.39230 0.67080 0.23487 -0.14200
N 	N 	0.23330 0.76690 0.23932 -0.25700
C 	C 	0.02960 0.46460 0.23899 0.07400
H 	H 	0.99780 0.45280 0.26610 0.02900
C 	C 	0.17070 0.46630 0.18332 0.03800
H 	H 	0.25430 0.45710 0.16610 0.02300
C 	C 	0.04180 0.50970 0.17176 -0.01900
H 	H 	0.01790 0.53330 0.14550 0.06100
C 	C 	0.80090 0.54730 0.21473 0.11900
C 	C 	0.75960 0.60620 0.18683 -0.06300
H 	H 	0.81640 0.61770 0.16330 0.07500
C 	C 	0.61710 0.64890 0.19796 -0.10800
H 	H 	0.59140 0.69240 0.18250 0.10000
C 	C 	0.52960 0.63070 0.22658 0.13200
C 	C 	0.56030 0.56490 0.24754 -0.07800
H 	H 	0.48960 0.54710 0.26670 0.07400
C 	C 	0.70360 0.52230 0.24015 -0.09100
H 	H 	0.72330 0.47680 0.25410 0.10100
C 	C 	0.37260 0.74470 0.22676 0.09600
H 	H 	0.44580 0.77530 0.21420 0.01300
C 	C 	0.16140 0.70720 0.25533 0.00900
H 	H 	0.06070 0.70630 0.26590 0.04000
C 	C 	0.26160 0.64900 0.25337 0.02100
H 	H 	0.24310 0.60080 0.26340 0.03700
N 	N 	0.38700 0.21700 0.40820 -0.03100
N 	N 	0.74300 0.35500 0.32540 -0.02700
N 	N 	0.62130 0.42080 0.51060 -0.26500
H 	H 	0.54650 0.38770 0.50980 0.16100
O 	O 	0.33200 0.20280 0.44240 -0.08800
O 	O 	0.35900 0.17400 0.37820 -0.11100
O 	O 	0.72100 0.30570 0.29790 -0.13400
O 	O 	0.80800 0.41600 0.32320 -0.10600
O 	O 	0.80000 0.47200 0.46950 -0.23400
O 	O 	0.60460 0.56710 0.69490 -0.44300
O 	O 	0.83340 0.61330 0.67780 -0.31900
C 	C 	0.49770 0.27500 0.40693 0.18900
C 	C 	0.56380 0.28810 0.36814 -0.21600
H 	H 	0.53590 0.25780 0.34460 0.13500
C 	C 	0.67160 0.34660 0.36461 0.18500
C 	C 	0.71330 0.39200 0.39987 -0.15300
H 	H 	0.78540 0.43110 0.39750 0.12900
C 	C 	0.64720 0.37880 0.43865 0.05600
C 	C 	0.53940 0.32030 0.44218 -0.16400
H 	H 	0.49520 0.31150 0.46810 0.12400
C 	C 	0.69560 0.42980 0.47498 0.23000
C 	C 	0.65240 0.46020 0.55005 0.24300
C 	C 	0.78450 0.50500 0.55817 -0.23300
H 	H 	0.85850 0.51070 0.53770 0.16200
C 	C 	0.80560 0.54170 0.59745 0.13100
H 	H 	0.89440 0.57230 0.60310 0.02700
C 	C 	0.69380 0.53321 0.62914 -0.15100
C 	C 	0.56260 0.48190 0.61947 0.11600
H 	H 	0.48880 0.47320 0.63970 0.02700
C 	C 	0.54670 0.44590 0.58025 -0.23400
H 	H 	0.46400 0.41190 0.57440 0.13400
C 	C 	0.71320 0.57381 0.66925 0.35700
N 	N 	0.40090 0.82890 0.00030 -0.01900
N 	N 	0.40920 0.89580 0.85010 -0.01800
N 	N 	0.90180 0.72770 0.88410 -0.26400
H 	H 	0.82050 0.71460 0.86740 0.16600
O 	O 	0.47910 0.81220 0.03230 -0.10200
O 	O 	0.26150 0.84840 0.99880 -0.11600
O 	O 	0.27570 0.91790 0.85270 -0.11600
O 	O 	0.48520 0.90310 0.81940 -0.12200
O 	O 	0.96360 0.76890 0.95160 -0.22900
O 	O 	0.48560 0.63320 0.77850 -0.45400
O 	O 	0.62160 0.67370 0.83710 -0.33300
C 	C 	0.48150 0.82850 0.95950 0.19300
C 	C 	0.41030 0.86500 0.92620 -0.23300
H 	H 	0.31580 0.89160 0.92820 0.15200
C 	C 	0.48670 0.86060 0.88860 0.18400
C 	C 	0.63230 0.82830 0.88580 -0.16400
H 	H 	0.68270 0.83040 0.86030 0.11000
C 	C 	0.70590 0.79180 0.92200 0.05400
C 	C 	0.62870 0.79440 0.95980 -0.16600
H 	H 	0.67570 0.77330 0.98490 0.12200
C 	C 	0.86870 0.76260 0.92120 0.20900
C 	C 	0.05110 0.71050 0.86980 0.23700
C 	C 	0.05680 0.69450 0.82670 -0.21000
H 	H 	0.96220 0.69370 0.80930 0.09500
C 	C 	0.20020 0.67940 0.80860 0.11300
H 	H 	0.20320 0.67190 0.77920 0.02200
C 	C 	0.34130 0.67580 0.83630 -0.16400
C 	C 	0.33140 0.68710 0.87930 0.14900
H 	H 	0.42360 0.68410 0.89770 0.00300
C 	C 	0.18900 0.70280 0.89600 -0.24600
H 	H 	0.18540 0.70820 0.92550 0.15500
C 	C 	0.49610 0.65920 0.81710 0.38000
N 	N 	0.11300 0.71700 0.09180 -0.03000
N 	N 	0.75700 0.85500 0.17460 -0.02600
N 	N 	0.87870 0.92080 0.98940 -0.26600
H 	H 	0.95350 0.88770 0.99020 0.16100
O 	O 	0.16800 0.70280 0.05760 -0.08800
O 	O 	0.14100 0.67400 0.12180 -0.11200
O 	O 	0.77900 0.80570 0.20210 -0.13400
O 	O 	0.69200 0.91600 0.17680 -0.10600
O 	O 	0.70000 0.97200 0.03050 -0.23400
O 	O 	0.89540 0.06710 0.80510 -0.44400
O 	O 	0.66660 0.11330 0.82220 -0.31900
C 	C 	0.00230 0.77500 0.09307 0.18200
C 	C 	0.93620 0.78810 0.13186 -0.20900
H 	H 	0.96410 0.75780 0.15540 0.13400
C 	C 	0.82840 0.84660 0.13539 0.18200
C 	C 	0.78670 0.89200 0.10013 -0.14900
H 	H 	0.71460 0.93110 0.10250 0.12800
C 	C 	0.85280 0.87880 0.06135 0.05200
C 	C 	0.96060 0.82030 0.05782 -0.15500
H 	H 	0.00480 0.81150 0.03190 0.12000
C 	C 	0.80440 0.92980 0.02502 0.23200
C 	C 	0.84760 0.96020 0.94995 0.24300
C 	C 	0.71550 0.00500 0.94183 -0.23400
H 	H 	0.64150 0.01070 0.96230 0.16200
C 	C 	0.69440 0.04170 0.90255 0.13100
H 	H 	0.60560 0.07230 0.89690 0.02700
C 	C 	0.80620 0.03321 0.87086 -0.15100
C 	C 	0.93740 0.98190 0.88053 0.11500
H 	H 	0.01120 0.97320 0.86030 0.02800
C 	C 	0.95330 0.94590 0.91975 -0.23500
H 	H 	0.03600 0.91190 0.92560 0.13400
C 	C 	0.78680 0.07381 0.83075 0.35700
N 	N 	0.09910 0.32890 0.49970 -0.02000
N 	N 	0.09080 0.39580 0.64990 -0.01800
N 	N 	0.59820 0.22770 0.61590 -0.26400
H 	H 	0.67950 0.21460 0.63260 0.16600
O 	O 	0.02090 0.31220 0.46770 -0.10300
O 	O 	0.23850 0.34840 0.50120 -0.11600
O 	O 	0.22430 0.41790 0.64730 -0.11600
O 	O 	0.01480 0.40310 0.68060 -0.12100
O 	O 	0.53640 0.26890 0.54840 -0.22900
O 	O 	0.01440 0.13320 0.72150 -0.45300
O 	O 	0.87840 0.17370 0.66290 -0.33600
C 	C 	0.01850 0.32850 0.54050 0.19500
C 	C 	0.08970 0.36500 0.57380 -0.23600
H 	H 	0.18420 0.39160 0.57180 0.15300
C 	C 	0.01330 0.36060 0.61140 0.18800
C 	C 	0.86770 0.32830 0.61420 -0.16900
H 	H 	0.81730 0.33040 0.63970 0.11100
C 	C 	0.79410 0.29180 0.57800 0.05600
C 	C 	0.87130 0.29440 0.54020 -0.16900
H 	H 	0.82430 0.27330 0.51510 0.12300
C 	C 	0.63130 0.26260 0.57880 0.20800
C 	C 	0.44890 0.21050 0.63020 0.23800
C 	C 	0.44320 0.19450 0.67330 -0.21500
H 	H 	0.53780 0.19370 0.69070 0.09700
C 	C 	0.29980 0.17940 0.69140 0.11600
H 	H 	0.29680 0.17190 0.72080 0.02000
C 	C 	0.15870 0.17580 0.66370 -0.16600
C 	C 	0.16860 0.18710 0.62070 0.15100
H 	H 	0.07640 0.18410 0.60230 0.00300
C 	C 	0.31100 0.20280 0.60400 -0.24800
H 	H 	0.31460 0.20820 0.57450 0.15500
C 	C 	0.00390 0.15920 0.68290 0.38300
N 	N 	0.61300 0.78300 0.59180 -0.03100
N 	N 	0.25700 0.64500 0.67460 -0.02700
N 	N 	0.37870 0.57920 0.48940 -0.26500
H 	H 	0.45350 0.61230 0.49020 0.16100
O 	O 	0.66800 0.79720 0.55760 -0.08800
O 	O 	0.64100 0.82600 0.62180 -0.11100
O 	O 	0.27900 0.69430 0.70210 -0.13400
O 	O 	0.19200 0.58400 0.67680 -0.10600
O 	O 	0.20000 0.52800 0.53050 -0.23400
O 	O 	0.39540 0.43290 0.30510 -0.44300
O 	O 	0.16660 0.38670 0.32220 -0.31900
C 	C 	0.50230 0.72500 0.59307 0.18900
C 	C 	0.43620 0.71190 0.63186 -0.21600
H 	H 	0.46410 0.74220 0.65540 0.13500
C 	C 	0.32840 0.65340 0.63539 0.18500
C 	C 	0.28670 0.60800 0.60013 -0.15300
H 	H 	0.21460 0.56890 0.60250 0.12900
C 	C 	0.35280 0.62120 0.56135 0.05600
C 	C 	0.46060 0.67970 0.55782 -0.16400
H 	H 	0.50480 0.68850 0.53190 0.12400
C 	C 	0.30440 0.57020 0.52502 0.23000
C 	C 	0.34760 0.53980 0.44995 0.24300
C 	C 	0.21550 0.49500 0.44183 -0.23300
H 	H 	0.14150 0.48930 0.46230 0.16200
C 	C 	0.19440 0.45830 0.40255 0.13100
H 	H 	0.10560 0.42770 0.39690 0.02700
C 	C 	0.30620 0.46679 0.37086 -0.15100
C 	C 	0.43740 0.51810 0.38053 0.11600
H 	H 	0.51120 0.52680 0.36030 0.02700
C 	C 	0.45330 0.55410 0.41975 -0.23400
H 	H 	0.53600 0.58810 0.42560 0.13400
C 	C 	0.28680 0.42619 0.33075 0.35700
N 	N 	0.59910 0.17110 0.99970 -0.01900
N 	N 	0.59080 0.10420 0.14990 -0.01800
N 	N 	0.09820 0.27230 0.11590 -0.26400
H 	H 	0.17950 0.28540 0.13260 0.16600
O 	O 	0.52090 0.18780 0.96770 -0.10200
O 	O 	0.73850 0.15160 0.00120 -0.11600
O 	O 	0.72430 0.08210 0.14730 -0.11600
O 	O 	0.51480 0.09690 0.18060 -0.12200
O 	O 	0.03640 0.23110 0.04840 -0.22900
O 	O 	0.51440 0.36680 0.22150 -0.45400
O 	O 	0.37840 0.32630 0.16290 -0.33300
C 	C 	0.51850 0.17150 0.04050 0.19300
C 	C 	0.58970 0.13500 0.07380 -0.23300
H 	H 	0.68420 0.10840 0.07180 0.15200
C 	C 	0.51330 0.13940 0.11140 0.18400
C 	C 	0.36770 0.17170 0.11420 -0.16400
H 	H 	0.31730 0.16960 0.13970 0.11000
C 	C 	0.29410 0.20820 0.07800 0.05400
C 	C 	0.37130 0.20560 0.04020 -0.16600
H 	H 	0.32430 0.22670 0.01510 0.12200
C 	C 	0.13130 0.23740 0.07880 0.20900
C 	C 	0.94890 0.28950 0.13020 0.23700
C 	C 	0.94320 0.30550 0.17330 -0.21000
H 	H 	0.03780 0.30630 0.19070 0.09500
C 	C 	0.79980 0.32060 0.19140 0.11300
H 	H 	0.79680 0.32810 0.22080 0.02200
C 	C 	0.65870 0.32420 0.16370 -0.16400
C 	C 	0.66860 0.31290 0.12070 0.14900
H 	H 	0.57640 0.31590 0.10230 0.00300
C 	C 	0.81100 0.29720 0.10400 -0.24600
H 	H 	0.81460 0.29180 0.07450 0.15500
C 	C 	0.50390 0.34080 0.18290 0.38000
N 	N 	0.88700 0.28300 0.90820 -0.03000
N 	N 	0.24300 0.14500 0.82540 -0.02600
N 	N 	0.12130 0.07920 0.01060 -0.26600
H 	H 	0.04650 0.11230 0.00980 0.16100
O 	O 	0.83200 0.29720 0.94240 -0.08800
O 	O 	0.85900 0.32600 0.87820 -0.11200
O 	O 	0.22100 0.19430 0.79790 -0.13400
O 	O 	0.30800 0.08400 0.82320 -0.10600
O 	O 	0.30000 0.02800 0.96950 -0.23400
O 	O 	0.10460 0.93290 0.19490 -0.44400
O 	O 	0.33340 0.88670 0.17780 -0.31900
C 	C 	0.99770 0.22500 0.90693 0.18200
C 	C 	0.06380 0.21190 0.86814 -0.20900
H 	H 	0.03590 0.24220 0.84460 0.13400
C 	C 	0.17160 0.15340 0.86461 0.18200
C 	C 	0.21330 0.10800 0.89987 -0.14900
H 	H 	0.28540 0.06890 0.89750 0.12800
C 	C 	0.14720 0.12120 0.93865 0.05200
C 	C 	0.03940 0.17970 0.94218 -0.15500
H 	H 	0.99520 0.18850 0.96810 0.12000
C 	C 	0.19560 0.07020 0.97498 0.23200
C 	C 	0.15240 0.03980 0.05005 0.24300
C 	C 	0.28450 0.99500 0.05817 -0.23400
H 	H 	0.35850 0.98930 0.03770 0.16200
C 	C 	0.30560 0.95830 0.09745 0.13100
H 	H 	0.39440 0.92770 0.10310 0.02700
C 	C 	0.19380 0.96679 0.12914 -0.15100
C 	C 	0.06260 0.01810 0.11947 0.11500
H 	H 	0.98880 0.02680 0.13970 0.02800
C 	C 	0.04670 0.05410 0.08025 -0.23500
H 	H 	0.96400 0.08810 0.07440 0.13400
C 	C 	0.21320 0.92619 0.16925 0.35700
N 	N 	0.90090 0.67110 0.50030 -0.02000
N 	N 	0.90920 0.60420 0.35010 -0.01800
N 	N 	0.40180 0.77230 0.38410 -0.26400
H 	H 	0.32050 0.78540 0.36740 0.16600
O 	O 	0.97910 0.68780 0.53230 -0.10300
O 	O 	0.76150 0.65160 0.49880 -0.11600
O 	O 	0.77570 0.58210 0.35270 -0.11600
O 	O 	0.98520 0.59690 0.31940 -0.12100
O 	O 	0.46360 0.73110 0.45160 -0.22900
O 	O 	0.98560 0.86680 0.27850 -0.45300
O 	O 	0.12160 0.82630 0.33710 -0.33600
C 	C 	0.98150 0.67150 0.45950 0.19500
C 	C 	0.91030 0.63500 0.42620 -0.23600
H 	H 	0.81580 0.60840 0.42820 0.15300
C 	C 	0.98670 0.63940 0.38860 0.18800
C 	C 	0.13230 0.67170 0.38580 -0.16900
H 	H 	0.18270 0.66960 0.36030 0.11100
C 	C 	0.20590 0.70820 0.42200 0.05600
C 	C 	0.12870 0.70560 0.45980 -0.16900
H 	H 	0.17570 0.72670 0.48490 0.12300
C 	C 	0.36870 0.73740 0.42120 0.20800
C 	C 	0.55110 0.78950 0.36980 0.23800
C 	C 	0.55680 0.80550 0.32670 -0.21500
H 	H 	0.46220 0.80630 0.30930 0.09700
C 	C 	0.70020 0.82060 0.30860 0.11600
H 	H 	0.70320 0.82810 0.27920 0.02000
C 	C 	0.84130 0.82420 0.33630 -0.16600
C 	C 	0.83140 0.81290 0.37930 0.15100
H 	H 	0.92360 0.81590 0.39770 0.00300
C 	C 	0.68900 0.79720 0.39600 -0.24800
H 	H 	0.68540 0.79180 0.42550 0.15500
C 	C 	0.99610 0.84080 0.31710 0.38300
