data_crystal

_cell_length_a 8.50000
_cell_length_b 5.11000
_cell_length_c 8.76000
_cell_angle_alpha 88.80000
_cell_angle_beta  90.00000
_cell_angle_gamma 90.00000

_symmetry_space_group_name_	'P 1'
_symmetry_space_group_name_H-M	'P 1'

loop_
_symmetry_equiv_pos_as_xyz
  x,y,z

loop_
_atom_site_label
_atom_site_type_symbol
_atom_site_fract_x
_atom_site_fract_y
_atom_site_fract_z
_atom_site_charge
Al	Al	0.33210 0.02950 0.50230 2.41300
Al	Al	0.16560 0.52360 0.50240 2.41300
O 	O 	0.32210 0.71830 0.61150 -1.37800
O 	O 	0.83080 0.15580 0.60230 -1.35300
O 	O 	0.00160 0.63150 0.60440 -1.16600
O 	O 	0.52050 0.12930 0.60680 -1.12400
O 	O 	0.20290 0.21780 0.60520 -1.38300
O 	O 	0.68060 0.64910 0.60150 -1.40800
H 	H 	0.39900 0.65200 0.62400 0.58600
H 	H 	0.90500 0.07300 0.59800 0.55200
H 	H 	0.99700 0.63700 0.69000 0.37900
H 	H 	0.52900 0.30100 0.60700 0.31100
H 	H 	0.20700 0.22400 0.69600 0.55700
H 	H 	0.68500 0.66000 0.69000 0.53300
Al	Al	0.66790 0.97050 0.49770 2.40900
Al	Al	0.83440 0.47640 0.49760 2.40700
O 	O 	0.67790 0.28170 0.38850 -0.92900
O 	O 	0.16920 0.84420 0.39770 -0.73900
O 	O 	0.99840 0.36850 0.39560 -0.95300
O 	O 	0.47950 0.87070 0.39320 -1.27000
O 	O 	0.79710 0.78220 0.39480 -0.98100
O 	O 	0.31940 0.35090 0.39850 -1.16900
Si	Si	0.45745 0.57163 0.29469 2.30400
O 	O 	0.45776 0.56204 0.16368 -1.27500
H 	H 	0.56308 0.55972 0.08881 0.26400
