data_crystal

_cell_length_a 28.55000
_cell_length_b 7.85600
_cell_length_c 15.95000
_cell_angle_alpha 90.00000
_cell_angle_beta  104.98000
_cell_angle_gamma 90.00000

_symmetry_space_group_name_	'P 1'
_symmetry_space_group_name_H-M	'P 1'

loop_
_symmetry_equiv_pos_as_xyz
  x,y,z

loop_
_atom_site_label
_atom_site_type_symbol
_atom_site_fract_x
_atom_site_fract_y
_atom_site_fract_z
_atom_site_charge
Co	Co	0.16399 0.22975 0.18267 1.13700
O 	O 	0.19388 0.98810 0.18540 -0.40200
O 	O 	0.16099 0.07660 0.05260 -0.34500
O 	O 	0.17567 0.69850 0.80700 -0.43900
O 	O 	0.19311 0.42220 0.82950 -0.29100
N 	N 	0.22817 0.35710 0.16100 -0.36400
H 	H 	0.24620 0.28030 0.14130 0.14300
H 	H 	0.24620 0.39750 0.21190 0.14500
N 	N 	0.11157 0.40130 0.11670 -0.25700
N 	N 	0.01340 0.93600 0.02730 -0.07900
C 	C 	0.21630 0.49480 0.09980 0.10500
C 	C 	0.20750 0.65500 0.12920 -0.11900
H 	H 	0.21190 0.67390 0.18840 0.08300
C 	C 	0.19210 0.78830 0.07060 -0.01500
C 	C 	0.18540 0.76060 0.98190 -0.03400
H 	H 	0.17460 0.84870 0.94280 0.06500
C 	C 	0.19500 0.60000 0.95190 -0.03200
C 	C 	0.21040 0.46700 0.01190 -0.10800
H 	H 	0.21670 0.35970 0.99240 0.07800
C 	C 	0.18780 0.56830 0.85530 0.32900
C 	C 	0.18120 0.95990 0.10320 0.26800
C 	C 	0.09900 0.53380 0.15950 0.08200
H 	H 	0.11010 0.53600 0.21970 -0.00600
C 	C 	0.07040 0.66800 0.11840 -0.16000
H 	H 	0.06270 0.75710 0.15100 0.08900
C 	C 	0.05320 0.66980 0.02750 0.12200
C 	C 	0.06510 0.53610 0.98640 -0.17400
H 	H 	0.05370 0.53060 0.92630 0.09100
C 	C 	0.09390 0.40390 0.02960 0.09200
H 	H 	0.10120 0.31360 0.99730 -0.00100
C 	C 	0.02430 0.80970 0.98360 -0.05600
H 	H 	0.01350 0.80920 0.92340 0.05500
Co	Co	0.83601 0.22975 0.31733 1.13600
O 	O 	0.80612 0.98810 0.31460 -0.40300
O 	O 	0.83901 0.07660 0.44740 -0.34600
O 	O 	0.82433 0.69850 0.69300 -0.44000
O 	O 	0.80689 0.42220 0.67050 -0.29100
N 	N 	0.77183 0.35710 0.33900 -0.36400
H 	H 	0.75380 0.28030 0.35870 0.14300
H 	H 	0.75380 0.39750 0.28810 0.14500
N 	N 	0.88843 0.40130 0.38330 -0.25700
N 	N 	0.98660 0.93600 0.47270 -0.07900
C 	C 	0.78370 0.49480 0.40020 0.10500
C 	C 	0.79250 0.65500 0.37080 -0.11900
H 	H 	0.78810 0.67390 0.31160 0.08200
C 	C 	0.80790 0.78830 0.42940 -0.01500
C 	C 	0.81460 0.76060 0.51810 -0.03400
H 	H 	0.82540 0.84870 0.55720 0.06500
C 	C 	0.80500 0.60000 0.54810 -0.03200
C 	C 	0.78960 0.46700 0.48810 -0.10800
H 	H 	0.78330 0.35970 0.50760 0.07800
C 	C 	0.81220 0.56830 0.64470 0.32900
C 	C 	0.81880 0.95990 0.39680 0.26800
C 	C 	0.90100 0.53380 0.34050 0.08200
H 	H 	0.88990 0.53600 0.28030 -0.00600
C 	C 	0.92960 0.66800 0.38160 -0.16000
H 	H 	0.93730 0.75710 0.34900 0.08900
C 	C 	0.94680 0.66980 0.47250 0.12300
C 	C 	0.93490 0.53610 0.51360 -0.17400
H 	H 	0.94630 0.53060 0.57370 0.09100
C 	C 	0.90610 0.40390 0.47040 0.09200
H 	H 	0.89880 0.31360 0.50270 -0.00100
C 	C 	0.97570 0.80970 0.51640 -0.05600
H 	H 	0.98650 0.80920 0.57660 0.05600
Co	Co	0.83601 0.77025 0.81733 1.13600
O 	O 	0.80612 0.01190 0.81460 -0.40300
O 	O 	0.83901 0.92340 0.94740 -0.34600
O 	O 	0.82433 0.30150 0.19300 -0.44000
O 	O 	0.80689 0.57780 0.17050 -0.29100
N 	N 	0.77183 0.64290 0.83900 -0.36400
H 	H 	0.75380 0.71970 0.85870 0.14300
H 	H 	0.75380 0.60250 0.78810 0.14500
N 	N 	0.88843 0.59870 0.88330 -0.25700
N 	N 	0.98660 0.06400 0.97270 -0.07900
C 	C 	0.78370 0.50520 0.90020 0.10500
C 	C 	0.79250 0.34500 0.87080 -0.11900
H 	H 	0.78810 0.32610 0.81160 0.08300
C 	C 	0.80790 0.21170 0.92940 -0.01500
C 	C 	0.81460 0.23940 0.01810 -0.03400
H 	H 	0.82540 0.15130 0.05720 0.06500
C 	C 	0.80500 0.40000 0.04810 -0.03200
C 	C 	0.78960 0.53300 0.98810 -0.10800
H 	H 	0.78330 0.64030 0.00760 0.07800
C 	C 	0.81220 0.43170 0.14470 0.32900
C 	C 	0.81880 0.04010 0.89680 0.26800
C 	C 	0.90100 0.46620 0.84050 0.08200
H 	H 	0.88990 0.46400 0.78030 -0.00600
C 	C 	0.92960 0.33200 0.88160 -0.16000
H 	H 	0.93730 0.24290 0.84900 0.08900
C 	C 	0.94680 0.33020 0.97250 0.12200
C 	C 	0.93490 0.46390 0.01360 -0.17400
H 	H 	0.94630 0.46940 0.07370 0.09100
C 	C 	0.90610 0.59610 0.97040 0.09200
H 	H 	0.89880 0.68640 0.00270 -0.00100
C 	C 	0.97570 0.19030 0.01640 -0.05600
H 	H 	0.98650 0.19080 0.07660 0.05500
Co	Co	0.16399 0.77025 0.68267 1.13600
O 	O 	0.19388 0.01190 0.68540 -0.40300
O 	O 	0.16099 0.92340 0.55260 -0.34600
O 	O 	0.17567 0.30150 0.30700 -0.44000
O 	O 	0.19311 0.57780 0.32950 -0.29100
N 	N 	0.22817 0.64290 0.66100 -0.36400
H 	H 	0.24620 0.71970 0.64130 0.14300
H 	H 	0.24620 0.60250 0.71190 0.14500
N 	N 	0.11157 0.59870 0.61670 -0.25700
N 	N 	0.01340 0.06400 0.52730 -0.07900
C 	C 	0.21630 0.50520 0.59980 0.10500
C 	C 	0.20750 0.34500 0.62920 -0.11900
H 	H 	0.21190 0.32610 0.68840 0.08200
C 	C 	0.19210 0.21170 0.57060 -0.01500
C 	C 	0.18540 0.23940 0.48190 -0.03400
H 	H 	0.17460 0.15130 0.44280 0.06500
C 	C 	0.19500 0.40000 0.45190 -0.03200
C 	C 	0.21040 0.53300 0.51190 -0.10800
H 	H 	0.21670 0.64030 0.49240 0.07800
C 	C 	0.18780 0.43170 0.35530 0.32900
C 	C 	0.18120 0.04010 0.60320 0.26800
C 	C 	0.09900 0.46620 0.65950 0.08200
H 	H 	0.11010 0.46400 0.71970 -0.00600
C 	C 	0.07040 0.33200 0.61840 -0.16000
H 	H 	0.06270 0.24290 0.65100 0.08900
C 	C 	0.05320 0.33020 0.52750 0.12300
C 	C 	0.06510 0.46390 0.48640 -0.17400
H 	H 	0.05370 0.46940 0.42630 0.09100
C 	C 	0.09390 0.59610 0.52960 0.09200
H 	H 	0.10120 0.68640 0.49730 -0.00100
C 	C 	0.02430 0.19030 0.48360 -0.05600
H 	H 	0.01350 0.19080 0.42340 0.05600
Co	Co	0.66399 0.72975 0.18267 1.13600
O 	O 	0.69388 0.48810 0.18540 -0.40300
O 	O 	0.66099 0.57660 0.05260 -0.34600
O 	O 	0.67567 0.19850 0.80700 -0.44000
O 	O 	0.69311 0.92220 0.82950 -0.29100
N 	N 	0.72817 0.85710 0.16100 -0.36400
H 	H 	0.74620 0.78030 0.14130 0.14300
H 	H 	0.74620 0.89750 0.21190 0.14500
N 	N 	0.61157 0.90130 0.11670 -0.25700
N 	N 	0.51340 0.43600 0.02730 -0.07900
C 	C 	0.71630 0.99480 0.09980 0.10500
C 	C 	0.70750 0.15500 0.12920 -0.11900
H 	H 	0.71190 0.17390 0.18840 0.08300
C 	C 	0.69210 0.28830 0.07060 -0.01500
C 	C 	0.68540 0.26060 0.98190 -0.03400
H 	H 	0.67460 0.34870 0.94280 0.06500
C 	C 	0.69500 0.10000 0.95190 -0.03200
C 	C 	0.71040 0.96700 0.01190 -0.10800
H 	H 	0.71670 0.85970 0.99240 0.07800
C 	C 	0.68780 0.06830 0.85530 0.32900
C 	C 	0.68120 0.45990 0.10320 0.26800
C 	C 	0.59900 0.03380 0.15950 0.08200
H 	H 	0.61010 0.03600 0.21970 -0.00600
C 	C 	0.57040 0.16800 0.11840 -0.16000
H 	H 	0.56270 0.25710 0.15100 0.08900
C 	C 	0.55320 0.16980 0.02750 0.12300
C 	C 	0.56510 0.03610 0.98640 -0.17400
H 	H 	0.55370 0.03060 0.92630 0.09100
C 	C 	0.59390 0.90390 0.02960 0.09300
H 	H 	0.60120 0.81360 0.99730 -0.00100
C 	C 	0.52430 0.30970 0.98360 -0.05600
H 	H 	0.51350 0.30920 0.92340 0.05600
Co	Co	0.33601 0.72975 0.31733 1.13600
O 	O 	0.30612 0.48810 0.31460 -0.40300
O 	O 	0.33901 0.57660 0.44740 -0.34600
O 	O 	0.32433 0.19850 0.69300 -0.44000
O 	O 	0.30689 0.92220 0.67050 -0.29100
N 	N 	0.27183 0.85710 0.33900 -0.36400
H 	H 	0.25380 0.78030 0.35870 0.14300
H 	H 	0.25380 0.89750 0.28810 0.14500
N 	N 	0.38843 0.90130 0.38330 -0.25700
N 	N 	0.48660 0.43600 0.47270 -0.07900
C 	C 	0.28370 0.99480 0.40020 0.10500
C 	C 	0.29250 0.15500 0.37080 -0.11900
H 	H 	0.28810 0.17390 0.31160 0.08300
C 	C 	0.30790 0.28830 0.42940 -0.01500
C 	C 	0.31460 0.26060 0.51810 -0.03400
H 	H 	0.32540 0.34870 0.55720 0.06500
C 	C 	0.30500 0.10000 0.54810 -0.03200
C 	C 	0.28960 0.96700 0.48810 -0.10800
H 	H 	0.28330 0.85970 0.50760 0.07800
C 	C 	0.31220 0.06830 0.64470 0.32900
C 	C 	0.31880 0.45990 0.39680 0.26800
C 	C 	0.40100 0.03380 0.34050 0.08200
H 	H 	0.38990 0.03600 0.28030 -0.00600
C 	C 	0.42960 0.16800 0.38160 -0.16000
H 	H 	0.43730 0.25710 0.34900 0.08900
C 	C 	0.44680 0.16980 0.47250 0.12300
C 	C 	0.43490 0.03610 0.51360 -0.17400
H 	H 	0.44630 0.03060 0.57370 0.09100
C 	C 	0.40610 0.90390 0.47040 0.09200
H 	H 	0.39880 0.81360 0.50270 -0.00100
C 	C 	0.47570 0.30970 0.51640 -0.05600
H 	H 	0.48650 0.30920 0.57660 0.05600
Co	Co	0.33601 0.27025 0.81733 1.13600
O 	O 	0.30612 0.51190 0.81460 -0.40300
O 	O 	0.33901 0.42340 0.94740 -0.34600
O 	O 	0.32433 0.80150 0.19300 -0.44000
O 	O 	0.30689 0.07780 0.17050 -0.29100
N 	N 	0.27183 0.14290 0.83900 -0.36400
H 	H 	0.25380 0.21970 0.85870 0.14300
H 	H 	0.25380 0.10250 0.78810 0.14500
N 	N 	0.38843 0.09870 0.88330 -0.25700
N 	N 	0.48660 0.56400 0.97270 -0.07900
C 	C 	0.28370 0.00520 0.90020 0.10500
C 	C 	0.29250 0.84500 0.87080 -0.11900
H 	H 	0.28810 0.82610 0.81160 0.08300
C 	C 	0.30790 0.71170 0.92940 -0.01500
C 	C 	0.31460 0.73940 0.01810 -0.03400
H 	H 	0.32540 0.65130 0.05720 0.06500
C 	C 	0.30500 0.90000 0.04810 -0.03200
C 	C 	0.28960 0.03300 0.98810 -0.10800
H 	H 	0.28330 0.14030 0.00760 0.07800
C 	C 	0.31220 0.93170 0.14470 0.32900
C 	C 	0.31880 0.54010 0.89680 0.26800
C 	C 	0.40100 0.96620 0.84050 0.08200
H 	H 	0.38990 0.96400 0.78030 -0.00600
C 	C 	0.42960 0.83200 0.88160 -0.16000
H 	H 	0.43730 0.74290 0.84900 0.08900
C 	C 	0.44680 0.83020 0.97250 0.12300
C 	C 	0.43490 0.96390 0.01360 -0.17400
H 	H 	0.44630 0.96940 0.07370 0.09100
C 	C 	0.40610 0.09610 0.97040 0.09300
H 	H 	0.39880 0.18640 0.00270 -0.00100
C 	C 	0.47570 0.69030 0.01640 -0.05600
H 	H 	0.48650 0.69080 0.07660 0.05600
Co	Co	0.66399 0.27025 0.68267 1.13600
O 	O 	0.69388 0.51190 0.68540 -0.40300
O 	O 	0.66099 0.42340 0.55260 -0.34600
O 	O 	0.67567 0.80150 0.30700 -0.44000
O 	O 	0.69311 0.07780 0.32950 -0.29100
N 	N 	0.72817 0.14290 0.66100 -0.36400
H 	H 	0.74620 0.21970 0.64130 0.14300
H 	H 	0.74620 0.10250 0.71190 0.14500
N 	N 	0.61157 0.09870 0.61670 -0.25700
N 	N 	0.51340 0.56400 0.52730 -0.07900
C 	C 	0.71630 0.00520 0.59980 0.10500
C 	C 	0.70750 0.84500 0.62920 -0.11900
H 	H 	0.71190 0.82610 0.68840 0.08300
C 	C 	0.69210 0.71170 0.57060 -0.01500
C 	C 	0.68540 0.73940 0.48190 -0.03400
H 	H 	0.67460 0.65130 0.44280 0.06500
C 	C 	0.69500 0.90000 0.45190 -0.03200
C 	C 	0.71040 0.03300 0.51190 -0.10800
H 	H 	0.71670 0.14030 0.49240 0.07800
C 	C 	0.68780 0.93170 0.35530 0.32900
C 	C 	0.68120 0.54010 0.60320 0.26800
C 	C 	0.59900 0.96620 0.65950 0.08200
H 	H 	0.61010 0.96400 0.71970 -0.00600
C 	C 	0.57040 0.83200 0.61840 -0.16000
H 	H 	0.56270 0.74290 0.65100 0.08900
C 	C 	0.55320 0.83020 0.52750 0.12300
C 	C 	0.56510 0.96390 0.48640 -0.17400
H 	H 	0.55370 0.96940 0.42630 0.09100
C 	C 	0.59390 0.09610 0.52960 0.09200
H 	H 	0.60120 0.18640 0.49730 -0.00100
C 	C 	0.52430 0.69030 0.48360 -0.05600
H 	H 	0.51350 0.69080 0.42340 0.05600
