data_crystal

_cell_length_a 8.61600
_cell_length_b 9.49200
_cell_length_c 10.65900
_cell_angle_alpha 69.47800
_cell_angle_beta  80.58200
_cell_angle_gamma 79.79500

_symmetry_space_group_name_	'P 1'
_symmetry_space_group_name_H-M	'P 1'

loop_
_symmetry_equiv_pos_as_xyz
  x,y,z

loop_
_atom_site_label
_atom_site_type_symbol
_atom_site_fract_x
_atom_site_fract_y
_atom_site_fract_z
_atom_site_charge
Zn	Zn	0.48110 0.16090 0.93015 1.21600
C 	C 	0.27880 0.05130 0.17980 0.41100
C 	C 	0.14230 0.06950 0.28410 -0.15500
H 	H 	0.18840 0.08130 0.35740 0.08000
C 	C 	0.02440 0.21110 0.23250 -0.05100
H 	H 	0.95740 0.23100 0.30850 0.04200
H 	H 	0.08200 0.29730 0.18580 0.05300
C 	C 	0.92060 0.19440 0.13730 -0.07000
H 	H 	0.84320 0.28410 0.11130 0.06100
H 	H 	0.98610 0.18620 0.05630 0.06200
C 	C 	0.83540 0.05580 0.20250 -0.14600
H 	H 	0.77470 0.06820 0.28490 0.08900
C 	C 	0.95440 0.91450 0.24840 -0.06600
H 	H 	0.02180 0.89940 0.17070 0.05900
H 	H 	0.89820 0.82680 0.29200 0.05800
C 	C 	0.05650 0.92850 0.34620 -0.05800
H 	H 	0.13410 0.83880 0.37100 0.05100
H 	H 	0.99000 0.93420 0.42740 0.04400
C 	C 	0.71520 0.04120 0.12060 0.40200
C 	C 	0.37700 0.43000 0.70410 0.11500
H 	H 	0.31710 0.36340 0.69340 -0.01400
C 	C 	0.37320 0.57380 0.61140 -0.20100
H 	H 	0.31360 0.60200 0.53920 0.09900
C 	C 	0.45760 0.67500 0.62630 0.14300
C 	C 	0.54180 0.62820 0.73500 -0.19800
H 	H 	0.59770 0.69500 0.75010 0.11300
C 	C 	0.54310 0.48210 0.82160 0.11300
H 	H 	0.60360 0.45120 0.89350 -0.01300
C 	C 	0.45470 0.82930 0.52750 -0.06800
H 	H 	0.41250 0.85230 0.44660 0.07000
N 	N 	0.46150 0.38140 0.80790 -0.26500
N 	N 	0.50890 0.92940 0.55220 -0.07600
O 	O 	0.31710 0.16810 0.08860 -0.47200
O 	O 	0.34780 0.92050 0.19400 -0.47900
O 	O 	0.65370 0.15870 0.03760 -0.47100
O 	O 	0.68090 0.91070 0.14380 -0.47800
Zn	Zn	0.51890 0.83910 0.06985 1.21600
C 	C 	0.72120 0.94870 0.82020 0.41100
C 	C 	0.85770 0.93050 0.71590 -0.15500
H 	H 	0.81160 0.91870 0.64260 0.08000
C 	C 	0.97560 0.78890 0.76750 -0.05100
H 	H 	0.04260 0.76900 0.69150 0.04200
H 	H 	0.91800 0.70270 0.81420 0.05300
C 	C 	0.07940 0.80560 0.86270 -0.07000
H 	H 	0.15680 0.71590 0.88870 0.06100
H 	H 	0.01390 0.81380 0.94370 0.06200
C 	C 	0.16460 0.94420 0.79750 -0.14600
H 	H 	0.22530 0.93180 0.71510 0.08900
C 	C 	0.04560 0.08550 0.75160 -0.06600
H 	H 	0.97820 0.10060 0.82930 0.05900
H 	H 	0.10180 0.17320 0.70800 0.05800
C 	C 	0.94350 0.07150 0.65380 -0.05800
H 	H 	0.86590 0.16120 0.62900 0.05100
H 	H 	0.01000 0.06580 0.57260 0.04400
C 	C 	0.28480 0.95880 0.87940 0.40200
C 	C 	0.62300 0.57000 0.29590 0.11500
H 	H 	0.68290 0.63660 0.30660 -0.01400
C 	C 	0.62680 0.42620 0.38860 -0.20100
H 	H 	0.68640 0.39800 0.46080 0.09900
C 	C 	0.54240 0.32500 0.37370 0.14300
C 	C 	0.45820 0.37180 0.26500 -0.19800
H 	H 	0.40230 0.30500 0.24990 0.11300
C 	C 	0.45690 0.51790 0.17840 0.11300
H 	H 	0.39640 0.54880 0.10650 -0.01300
C 	C 	0.54530 0.17070 0.47250 -0.06800
H 	H 	0.58750 0.14770 0.55340 0.07000
N 	N 	0.53850 0.61860 0.19210 -0.26500
N 	N 	0.49110 0.07060 0.44780 -0.07600
O 	O 	0.68290 0.83190 0.91140 -0.47200
O 	O 	0.65220 0.07950 0.80600 -0.47900
O 	O 	0.34630 0.84130 0.96240 -0.47100
O 	O 	0.31910 0.08930 0.85620 -0.47800
