data_crystal

_cell_length_a 9.84160
_cell_length_b 11.21450
_cell_length_c 11.21450
_cell_angle_alpha 68.18300
_cell_angle_beta  72.99080
_cell_angle_gamma 107.00900

_symmetry_space_group_name_	'P 1'
_symmetry_space_group_name_H-M	'P 1'

loop_
_symmetry_equiv_pos_as_xyz
  x,y,z

loop_
_atom_site_label
_atom_site_type_symbol
_atom_site_fract_x
_atom_site_fract_y
_atom_site_fract_z
_atom_site_charge
Zn	Zn	0.62663 0.37663 0.24674 1.24000
Zn	Zn	0.12663 0.75326 0.62337 1.24000
Zn	Zn	0.87337 0.24674 0.37663 1.24000
Zn	Zn	0.37338 0.62338 0.75325 1.24000
Zn	Zn	0.75000 0.62337 0.62337 1.24000
Zn	Zn	0.25000 0.37663 0.37663 1.24000
H 	H 	0.54420 0.08230 0.61090 -0.16700
H 	H 	0.04420 0.38910 0.91770 -0.16800
H 	H 	0.43030 0.59440 0.02770 -0.81600
H 	H 	0.03810 0.08230 0.30680 -0.16800
H 	H 	0.33590 0.40560 0.62210 -0.81500
H 	H 	0.49510 0.34670 0.93020 -0.11000
H 	H 	0.85160 0.27690 0.65330 -0.10900
H 	H 	0.07470 0.72310 0.93020 -0.10900
H 	H 	0.50490 0.65330 0.06980 -0.11000
H 	H 	0.95580 0.61090 0.08230 -0.16800
H 	H 	0.34490 0.30680 0.61090 -0.16700
H 	H 	0.96190 0.91770 0.69320 -0.16800
H 	H 	0.45580 0.91770 0.38910 -0.16700
H 	H 	0.06970 0.02770 0.59440 -0.81400
H 	H 	0.14840 0.72310 0.34670 -0.10900
H 	H 	0.84490 0.38910 0.69320 -0.16700
H 	H 	0.42530 0.93020 0.72310 -0.10900
H 	H 	0.16410 0.62210 0.40560 -0.81400
H 	H 	0.04200 0.37790 0.02770 -0.82700
H 	H 	0.92530 0.27690 0.06980 -0.10900
H 	H 	0.35160 0.34670 0.72310 -0.10900
H 	H 	0.65510 0.69320 0.38910 -0.16700
H 	H 	0.00490 0.93020 0.34670 -0.10900
H 	H 	0.46190 0.30680 0.08230 -0.16700
H 	H 	0.45800 0.02770 0.37790 -0.81500
H 	H 	0.54200 0.97230 0.62210 -0.81500
H 	H 	0.57470 0.06980 0.27690 -0.10900
H 	H 	0.95800 0.62210 0.97230 -0.82700
H 	H 	0.99510 0.06980 0.65330 -0.10900
H 	H 	0.93030 0.97230 0.40560 -0.81400
H 	H 	0.64840 0.65330 0.27690 -0.10900
H 	H 	0.83590 0.37790 0.59440 -0.81400
H 	H 	0.56970 0.40560 0.97230 -0.81600
H 	H 	0.53810 0.69320 0.91770 -0.16700
H 	H 	0.66410 0.59440 0.37790 -0.81500
H 	H 	0.15510 0.61090 0.30680 -0.16700
C 	C 	0.70384 0.53018 0.41106 0.62600
C 	C 	0.29616 0.46982 0.58894 0.62600
C 	C 	0.11490 0.41106 0.05876 0.63100
C 	C 	0.88510 0.58894 0.94124 0.63100
C 	C 	0.67366 0.46982 0.94124 0.62500
C 	C 	0.17366 0.05876 0.53018 0.62500
C 	C 	0.79616 0.41106 0.53018 0.62600
C 	C 	0.20384 0.58894 0.46982 0.62600
C 	C 	0.38510 0.05876 0.41106 0.62600
C 	C 	0.61490 0.94124 0.58894 0.62600
C 	C 	0.82634 0.94124 0.46982 0.62500
C 	C 	0.32634 0.53018 0.05876 0.62500
N 	N 	0.28058 0.55875 0.63671 -0.32300
N 	N 	0.52450 0.36070 0.99100 0.72000
N 	N 	0.83620 0.35170 0.63930 0.71800
N 	N 	0.75000 0.51589 0.51589 -0.44000
N 	N 	0.27817 0.19546 0.44125 -0.32300
N 	N 	0.41729 0.19546 0.36329 -0.32300
N 	N 	0.97550 0.99100 0.36070 0.71800
N 	N 	0.66380 0.63930 0.35170 0.71800
N 	N 	0.71942 0.44125 0.36329 -0.32300
N 	N 	0.08271 0.36329 0.19546 -0.32500
N 	N 	0.98450 0.64830 0.99100 0.72800
N 	N 	0.01550 0.35170 0.00900 0.72800
N 	N 	0.33620 0.36070 0.64830 0.71800
N 	N 	0.91729 0.63671 0.80454 -0.32500
N 	N 	0.16380 0.64830 0.36070 0.71800
N 	N 	0.77817 0.55875 0.80454 -0.32400
N 	N 	0.23411 0.96822 0.51589 -0.43900
N 	N 	0.73411 0.48411 0.03178 -0.43900
N 	N 	0.22183 0.44125 0.19546 -0.32400
N 	N 	0.26589 0.51589 0.96822 -0.43900
N 	N 	0.72183 0.80454 0.55875 -0.32300
N 	N 	0.58271 0.80454 0.63671 -0.32300
N 	N 	0.51550 0.99100 0.64830 0.71900
N 	N 	0.48450 0.00900 0.35170 0.71900
N 	N 	0.47550 0.63930 0.00900 0.72000
N 	N 	0.02450 0.00900 0.63930 0.71800
N 	N 	0.21942 0.63671 0.55875 -0.32300
N 	N 	0.25000 0.48411 0.48411 -0.44000
N 	N 	0.78058 0.36329 0.44125 -0.32300
N 	N 	0.76589 0.03178 0.48411 -0.43900
F 	F 	0.75000 0.25492 0.25492 -0.66000
F 	F 	0.99508 0.74508 0.50984 -0.66100
F 	F 	0.00492 0.25492 0.49016 -0.66100
F 	F 	0.50492 0.50984 0.74508 -0.66000
F 	F 	0.25000 0.74508 0.74508 -0.66000
F 	F 	0.49508 0.49016 0.25492 -0.66000
