data_crystal

_cell_length_a 17.35500
_cell_length_b 17.35500
_cell_length_c 22.74000
_cell_angle_alpha 90.00000
_cell_angle_beta  90.00000
_cell_angle_gamma 90.00000

_symmetry_space_group_name_	'P 1'
_symmetry_space_group_name_H-M	'P 1'

loop_
_symmetry_equiv_pos_as_xyz
  x,y,z

loop_
_atom_site_label
_atom_site_type_symbol
_atom_site_fract_x
_atom_site_fract_y
_atom_site_fract_z
_atom_site_charge
N 	N 	0.37310 0.22910 0.45260 -0.27200
N 	N 	0.62630 0.23570 0.49960 -0.27100
C 	C 	0.43180 0.20270 0.46600 0.12600
C 	C 	0.49990 0.16500 0.48150 -0.14500
C 	C 	0.56710 0.20640 0.49100 0.12700
C 	C 	0.49980 0.08090 0.49140 0.06500
C 	C 	0.56590 0.04220 0.51010 -0.07400
C 	C 	0.56600 0.96370 0.51910 -0.06600
C 	C 	0.69340 0.28320 0.62450 0.07300
C 	C 	0.69080 0.28420 0.68510 -0.12900
C 	C 	0.28430 0.19550 0.57680 0.04500
C 	C 	0.28590 0.19260 0.63830 -0.09000
C 	C 	0.21340 0.19300 0.76680 -0.07600
C 	C 	0.21580 0.19290 0.82880 0.03100
H 	H 	0.61170 0.07070 0.51730 0.05100
H 	H 	0.65270 0.30660 0.60310 -0.01300
H 	H 	0.64920 0.30870 0.70480 0.07000
H 	H 	0.31040 0.15630 0.55550 -0.00500
H 	H 	0.31000 0.15090 0.65820 0.05400
H 	H 	0.18580 0.15390 0.74650 0.04900
H 	H 	0.19260 0.15150 0.84950 0.00100
H 	H 	0.61180 0.93930 0.53230 0.04900
N 	N 	0.12690 0.27090 0.45260 -0.27100
N 	N 	0.87370 0.26430 0.49960 -0.27000
C 	C 	0.06820 0.29730 0.46600 0.12700
C 	C 	0.00010 0.33500 0.48150 -0.14300
C 	C 	0.93290 0.29360 0.49100 0.12800
C 	C 	0.00020 0.41910 0.49140 0.06100
C 	C 	0.93410 0.45780 0.51010 -0.06700
C 	C 	0.93400 0.53630 0.51910 -0.07100
C 	C 	0.80660 0.21680 0.62450 0.07300
C 	C 	0.80920 0.21580 0.68510 -0.12900
C 	C 	0.21570 0.30450 0.57680 0.04500
C 	C 	0.21410 0.30740 0.63830 -0.09000
C 	C 	0.28660 0.30700 0.76680 -0.07500
C 	C 	0.28420 0.30710 0.82880 0.03200
H 	H 	0.88830 0.42930 0.51730 0.04900
H 	H 	0.84730 0.19340 0.60310 -0.01300
H 	H 	0.85080 0.19130 0.70480 0.07000
H 	H 	0.18960 0.34370 0.55550 -0.00500
H 	H 	0.19000 0.34910 0.65820 0.05500
H 	H 	0.31420 0.34610 0.74650 0.04900
H 	H 	0.30740 0.34850 0.84950 0.00100
H 	H 	0.88820 0.56070 0.53230 0.05000
N 	N 	0.27090 0.37310 0.45260 -0.27100
N 	N 	0.26430 0.62630 0.49960 -0.27000
C 	C 	0.29730 0.43180 0.46600 0.12700
C 	C 	0.33500 0.49990 0.48150 -0.14300
C 	C 	0.29360 0.56710 0.49100 0.12700
C 	C 	0.41910 0.49980 0.49140 0.06300
C 	C 	0.45780 0.56590 0.51010 -0.07000
C 	C 	0.53630 0.56600 0.51910 -0.07000
C 	C 	0.21680 0.69340 0.62450 0.07300
C 	C 	0.21580 0.69080 0.68510 -0.12900
C 	C 	0.30450 0.28430 0.57680 0.04500
C 	C 	0.30740 0.28590 0.63830 -0.09000
C 	C 	0.30700 0.21340 0.76680 -0.07600
C 	C 	0.30710 0.21580 0.82880 0.03100
H 	H 	0.42930 0.61170 0.51730 0.05000
H 	H 	0.19340 0.65270 0.60310 -0.01300
H 	H 	0.19130 0.64920 0.70480 0.07000
H 	H 	0.34370 0.31040 0.55550 -0.00500
H 	H 	0.34910 0.31000 0.65820 0.05500
H 	H 	0.34610 0.18580 0.74650 0.04900
H 	H 	0.34850 0.19260 0.84950 0.00100
H 	H 	0.56070 0.61180 0.53230 0.05000
N 	N 	0.22910 0.12690 0.45260 -0.27100
N 	N 	0.23570 0.87370 0.49960 -0.27000
C 	C 	0.20270 0.06820 0.46600 0.12700
C 	C 	0.16500 0.00010 0.48150 -0.14400
C 	C 	0.20640 0.93290 0.49100 0.12800
C 	C 	0.08090 0.00020 0.49140 0.06300
C 	C 	0.04220 0.93410 0.51010 -0.07100
C 	C 	0.96370 0.93400 0.51910 -0.06800
C 	C 	0.28320 0.80660 0.62450 0.07400
C 	C 	0.28420 0.80920 0.68510 -0.12900
C 	C 	0.19550 0.21570 0.57680 0.04500
C 	C 	0.19260 0.21410 0.63830 -0.09000
C 	C 	0.19300 0.28660 0.76680 -0.07600
C 	C 	0.19290 0.28420 0.82880 0.03100
H 	H 	0.07070 0.88830 0.51730 0.05100
H 	H 	0.30660 0.84730 0.60310 -0.01200
H 	H 	0.30870 0.85080 0.70480 0.07000
H 	H 	0.15630 0.18960 0.55550 -0.00500
H 	H 	0.15090 0.19000 0.65820 0.05400
H 	H 	0.15390 0.31420 0.74650 0.04900
H 	H 	0.15150 0.30740 0.84950 0.00100
H 	H 	0.93930 0.88820 0.53230 0.04900
N 	N 	0.62690 0.72910 0.04740 -0.27100
N 	N 	0.37370 0.73570 0.00040 -0.27600
C 	C 	0.56820 0.70270 0.03400 0.11000
C 	C 	0.50010 0.66500 0.01850 -0.11300
C 	C 	0.43290 0.70640 0.00900 0.10500
C 	C 	0.50020 0.58090 0.00860 -0.02900
C 	C 	0.43410 0.54220 0.98990 0.03900
C 	C 	0.43400 0.46370 0.98090 -0.14500
C 	C 	0.30660 0.78320 0.87550 0.07300
C 	C 	0.30920 0.78420 0.81490 -0.12600
C 	C 	0.71570 0.69550 0.92320 0.04400
C 	C 	0.71410 0.69260 0.86170 -0.08700
C 	C 	0.78660 0.69300 0.73320 -0.07700
C 	C 	0.78420 0.69290 0.67120 0.03200
H 	H 	0.38830 0.57070 0.98270 0.02400
H 	H 	0.34730 0.80660 0.89690 -0.00600
H 	H 	0.35080 0.80870 0.79520 0.07000
H 	H 	0.68960 0.65630 0.94450 0.00800
H 	H 	0.69000 0.65090 0.84180 0.05600
H 	H 	0.81420 0.65390 0.75350 0.05100
H 	H 	0.80740 0.65150 0.65050 0.00100
H 	H 	0.38820 0.43930 0.96770 0.07800
N 	N 	0.87310 0.77090 0.04740 -0.27000
N 	N 	0.12630 0.76430 0.00040 -0.27500
C 	C 	0.93180 0.79730 0.03400 0.11000
C 	C 	0.99990 0.83500 0.01850 -0.11300
C 	C 	0.06710 0.79360 0.00900 0.10400
C 	C 	0.99980 0.91910 0.00860 -0.02600
C 	C 	0.06590 0.95780 0.98990 0.03600
C 	C 	0.06600 0.03630 0.98090 -0.14500
C 	C 	0.19340 0.71680 0.87550 0.07300
C 	C 	0.19080 0.71580 0.81490 -0.12600
C 	C 	0.78430 0.80450 0.92320 0.04400
C 	C 	0.78590 0.80740 0.86170 -0.08700
C 	C 	0.71340 0.80700 0.73320 -0.07700
C 	C 	0.71580 0.80710 0.67120 0.03200
H 	H 	0.11170 0.92930 0.98270 0.02500
H 	H 	0.15270 0.69340 0.89690 -0.00600
H 	H 	0.14920 0.69130 0.79520 0.07000
H 	H 	0.81040 0.84370 0.94450 0.00800
H 	H 	0.81000 0.84910 0.84180 0.05600
H 	H 	0.68580 0.84610 0.75350 0.05100
H 	H 	0.69260 0.84850 0.65050 0.00100
H 	H 	0.11180 0.06070 0.96770 0.07800
N 	N 	0.72910 0.87310 0.04740 -0.27100
N 	N 	0.73570 0.12630 0.00040 -0.27500
C 	C 	0.70270 0.93180 0.03400 0.11000
C 	C 	0.66500 0.99990 0.01850 -0.11300
C 	C 	0.70640 0.06710 0.00900 0.10400
C 	C 	0.58090 0.99980 0.00860 -0.02500
C 	C 	0.54220 0.06590 0.98990 0.03400
C 	C 	0.46370 0.06600 0.98090 -0.14200
C 	C 	0.78320 0.19340 0.87550 0.07300
C 	C 	0.78420 0.19080 0.81490 -0.12600
C 	C 	0.69550 0.78430 0.92320 0.04400
C 	C 	0.69260 0.78590 0.86170 -0.08700
C 	C 	0.69300 0.71340 0.73320 -0.07700
C 	C 	0.69290 0.71580 0.67120 0.03200
H 	H 	0.57070 0.11170 0.98270 0.02600
H 	H 	0.80660 0.15270 0.89690 -0.00600
H 	H 	0.80870 0.14920 0.79520 0.07000
H 	H 	0.65630 0.81040 0.94450 0.00800
H 	H 	0.65090 0.81000 0.84180 0.05600
H 	H 	0.65390 0.68580 0.75350 0.05100
H 	H 	0.65150 0.69260 0.65050 0.00100
H 	H 	0.43930 0.11180 0.96770 0.07700
N 	N 	0.77090 0.62690 0.04740 -0.27000
N 	N 	0.76430 0.37370 0.00040 -0.27600
C 	C 	0.79730 0.56820 0.03400 0.10900
C 	C 	0.83500 0.50010 0.01850 -0.11300
C 	C 	0.79360 0.43290 0.00900 0.10500
C 	C 	0.91910 0.50020 0.00860 -0.03000
C 	C 	0.95780 0.43410 0.98990 0.04100
C 	C 	0.03630 0.43400 0.98090 -0.14800
C 	C 	0.71680 0.30660 0.87550 0.07300
C 	C 	0.71580 0.30920 0.81490 -0.12600
C 	C 	0.80450 0.71570 0.92320 0.04400
C 	C 	0.80740 0.71410 0.86170 -0.08700
C 	C 	0.80700 0.78660 0.73320 -0.07700
C 	C 	0.80710 0.78420 0.67120 0.03200
H 	H 	0.92930 0.38830 0.98270 0.02400
H 	H 	0.69340 0.34730 0.89690 -0.00600
H 	H 	0.69130 0.35080 0.79520 0.07000
H 	H 	0.84370 0.68960 0.94450 0.00800
H 	H 	0.84910 0.69000 0.84180 0.05600
H 	H 	0.84610 0.81420 0.75350 0.05100
H 	H 	0.84850 0.80740 0.65050 0.00100
H 	H 	0.06070 0.38820 0.96770 0.07900
N 	N 	0.62690 0.77090 0.54740 -0.27000
N 	N 	0.37370 0.76430 0.50040 -0.27000
C 	C 	0.56820 0.79730 0.53400 0.12700
C 	C 	0.50010 0.83500 0.51850 -0.14200
C 	C 	0.43290 0.79360 0.50900 0.12700
C 	C 	0.50020 0.91910 0.50860 0.06100
C 	C 	0.43410 0.95780 0.48990 -0.06600
C 	C 	0.43400 0.03630 0.48090 -0.07400
C 	C 	0.30660 0.71680 0.37550 0.07300
C 	C 	0.30920 0.71580 0.31490 -0.12800
C 	C 	0.71570 0.80450 0.42320 0.04500
C 	C 	0.71410 0.80740 0.36170 -0.09000
C 	C 	0.78660 0.80700 0.23320 -0.07500
C 	C 	0.78420 0.80710 0.17120 0.03100
H 	H 	0.38830 0.92930 0.48270 0.04900
H 	H 	0.34730 0.69340 0.39690 -0.01300
H 	H 	0.35080 0.69130 0.29520 0.06900
H 	H 	0.68960 0.84370 0.44450 -0.00500
H 	H 	0.69000 0.84910 0.34180 0.05400
H 	H 	0.81420 0.84610 0.25350 0.04900
H 	H 	0.80740 0.84850 0.15050 0.00100
H 	H 	0.38820 0.06070 0.46770 0.05100
N 	N 	0.87310 0.72910 0.54740 -0.27100
N 	N 	0.12630 0.73570 0.50040 -0.26900
C 	C 	0.93180 0.70270 0.53400 0.12700
C 	C 	0.99990 0.66500 0.51850 -0.14200
C 	C 	0.06710 0.70640 0.50900 0.12600
C 	C 	0.99980 0.58090 0.50860 0.06500
C 	C 	0.06590 0.54220 0.48990 -0.07200
C 	C 	0.06600 0.46370 0.48090 -0.06800
C 	C 	0.19340 0.78320 0.37550 0.07300
C 	C 	0.19080 0.78420 0.31490 -0.12800
C 	C 	0.78430 0.69550 0.42320 0.04500
C 	C 	0.78590 0.69260 0.36170 -0.09000
C 	C 	0.71340 0.69300 0.23320 -0.07600
C 	C 	0.71580 0.69290 0.17120 0.03100
H 	H 	0.11170 0.57070 0.48270 0.05100
H 	H 	0.15270 0.80660 0.39690 -0.01300
H 	H 	0.14920 0.80870 0.29520 0.06900
H 	H 	0.81040 0.65630 0.44450 -0.00500
H 	H 	0.81000 0.65090 0.34180 0.05400
H 	H 	0.68580 0.65390 0.25350 0.04900
H 	H 	0.69260 0.65150 0.15050 0.00100
H 	H 	0.11180 0.43930 0.46770 0.04900
N 	N 	0.72910 0.62690 0.54740 -0.27100
N 	N 	0.73570 0.37370 0.50040 -0.27000
C 	C 	0.70270 0.56820 0.53400 0.12700
C 	C 	0.66500 0.50010 0.51850 -0.14300
C 	C 	0.70640 0.43290 0.50900 0.12700
C 	C 	0.58090 0.50020 0.50860 0.06300
C 	C 	0.54220 0.43410 0.48990 -0.07000
C 	C 	0.46370 0.43400 0.48090 -0.07000
C 	C 	0.78320 0.30660 0.37550 0.07300
C 	C 	0.78420 0.30920 0.31490 -0.12800
C 	C 	0.69550 0.71570 0.42320 0.04500
C 	C 	0.69260 0.71410 0.36170 -0.09000
C 	C 	0.69300 0.78660 0.23320 -0.07500
C 	C 	0.69290 0.78420 0.17120 0.03100
H 	H 	0.57070 0.38830 0.48270 0.05000
H 	H 	0.80660 0.34730 0.39690 -0.01300
H 	H 	0.80870 0.35080 0.29520 0.06900
H 	H 	0.65630 0.68960 0.44450 -0.00500
H 	H 	0.65090 0.69000 0.34180 0.05400
H 	H 	0.65390 0.81420 0.25350 0.04900
H 	H 	0.65150 0.80740 0.15050 0.00100
H 	H 	0.43930 0.38820 0.46770 0.05000
N 	N 	0.77090 0.87310 0.54740 -0.27000
N 	N 	0.76430 0.12630 0.50040 -0.26900
C 	C 	0.79730 0.93180 0.53400 0.12700
C 	C 	0.83500 0.99990 0.51850 -0.14100
C 	C 	0.79360 0.06710 0.50900 0.12500
C 	C 	0.91910 0.99980 0.50860 0.06300
C 	C 	0.95780 0.06590 0.48990 -0.07000
C 	C 	0.03630 0.06600 0.48090 -0.07100
C 	C 	0.71680 0.19340 0.37550 0.07300
C 	C 	0.71580 0.19080 0.31490 -0.12800
C 	C 	0.80450 0.78430 0.42320 0.04500
C 	C 	0.80740 0.78590 0.36170 -0.09000
C 	C 	0.80700 0.71340 0.23320 -0.07500
C 	C 	0.80710 0.71580 0.17120 0.03100
H 	H 	0.92930 0.11170 0.48270 0.05000
H 	H 	0.69340 0.15270 0.39690 -0.01300
H 	H 	0.69130 0.14920 0.29520 0.06900
H 	H 	0.84370 0.81040 0.44450 -0.00500
H 	H 	0.84910 0.81000 0.34180 0.05400
H 	H 	0.84610 0.68580 0.25350 0.04900
H 	H 	0.84850 0.69260 0.15050 0.00100
H 	H 	0.06070 0.11180 0.46770 0.05000
N 	N 	0.37310 0.27090 0.95260 -0.27100
N 	N 	0.62630 0.26430 0.99960 -0.26100
C 	C 	0.43180 0.29730 0.96600 0.14400
C 	C 	0.49990 0.33500 0.98150 -0.17100
C 	C 	0.56710 0.29360 0.99100 0.14900
C 	C 	0.49980 0.41910 0.99140 0.15500
C 	C 	0.56590 0.45780 0.01010 -0.17800
C 	C 	0.56600 0.53630 0.01910 0.00600
C 	C 	0.69340 0.21680 0.12450 0.07300
C 	C 	0.69080 0.21580 0.18510 -0.13000
C 	C 	0.28430 0.30450 0.07680 0.04600
C 	C 	0.28590 0.30740 0.13830 -0.09400
C 	C 	0.21340 0.30700 0.26680 -0.07400
C 	C 	0.21580 0.30710 0.32880 0.03100
H 	H 	0.61170 0.42930 0.01730 0.07600
H 	H 	0.65270 0.19340 0.10310 -0.01800
H 	H 	0.64920 0.19130 0.20480 0.06800
H 	H 	0.31040 0.34370 0.05550 -0.01800
H 	H 	0.31000 0.34910 0.15820 0.05300
H 	H 	0.18580 0.34610 0.24650 0.04700
H 	H 	0.19260 0.34850 0.34950 0.00100
H 	H 	0.61180 0.56070 0.03230 0.02100
N 	N 	0.12690 0.22910 0.95260 -0.27100
N 	N 	0.87370 0.23570 0.99960 -0.26100
C 	C 	0.06820 0.20270 0.96600 0.14400
C 	C 	0.00010 0.16500 0.98150 -0.17200
C 	C 	0.93290 0.20640 0.99100 0.15000
C 	C 	0.00020 0.08090 0.99140 0.15200
C 	C 	0.93410 0.04220 0.01010 -0.17600
C 	C 	0.93400 0.96370 0.01910 0.00600
C 	C 	0.80660 0.28320 0.12450 0.07300
C 	C 	0.80920 0.28420 0.18510 -0.13000
C 	C 	0.21570 0.19550 0.07680 0.04600
C 	C 	0.21410 0.19260 0.13830 -0.09400
C 	C 	0.28660 0.19300 0.26680 -0.07400
C 	C 	0.28420 0.19290 0.32880 0.03100
H 	H 	0.88830 0.07070 0.01730 0.07600
H 	H 	0.84730 0.30660 0.10310 -0.01800
H 	H 	0.85080 0.30870 0.20480 0.06900
H 	H 	0.18960 0.15630 0.05550 -0.01700
H 	H 	0.19000 0.15090 0.15820 0.05300
H 	H 	0.31420 0.15390 0.24650 0.04700
H 	H 	0.30740 0.15150 0.34950 0.00100
H 	H 	0.88820 0.93930 0.03230 0.02100
N 	N 	0.27090 0.12690 0.95260 -0.27100
N 	N 	0.26430 0.87370 0.99960 -0.26100
C 	C 	0.29730 0.06820 0.96600 0.14400
C 	C 	0.33500 0.00010 0.98150 -0.17200
C 	C 	0.29360 0.93290 0.99100 0.15000
C 	C 	0.41910 0.00020 0.99140 0.15100
C 	C 	0.45780 0.93410 0.01010 -0.17300
C 	C 	0.53630 0.93400 0.01910 0.00300
C 	C 	0.21680 0.80660 0.12450 0.07300
C 	C 	0.21580 0.80920 0.18510 -0.13000
C 	C 	0.30450 0.21570 0.07680 0.04600
C 	C 	0.30740 0.21410 0.13830 -0.09400
C 	C 	0.30700 0.28660 0.26680 -0.07400
C 	C 	0.30710 0.28420 0.32880 0.03100
H 	H 	0.42930 0.88830 0.01730 0.07500
H 	H 	0.19340 0.84730 0.10310 -0.01800
H 	H 	0.19130 0.85080 0.20480 0.06900
H 	H 	0.34370 0.18960 0.05550 -0.01800
H 	H 	0.34910 0.19000 0.15820 0.05300
H 	H 	0.34610 0.31420 0.24650 0.04700
H 	H 	0.34850 0.30740 0.34950 0.00100
H 	H 	0.56070 0.88820 0.03230 0.02200
N 	N 	0.22910 0.37310 0.95260 -0.27100
N 	N 	0.23570 0.62630 0.99960 -0.26100
C 	C 	0.20270 0.43180 0.96600 0.14400
C 	C 	0.16500 0.49990 0.98150 -0.17200
C 	C 	0.20640 0.56710 0.99100 0.14900
C 	C 	0.08090 0.49980 0.99140 0.15600
C 	C 	0.04220 0.56590 0.01010 -0.17900
C 	C 	0.96370 0.56600 0.01910 0.00800
C 	C 	0.28320 0.69340 0.12450 0.07300
C 	C 	0.28420 0.69080 0.18510 -0.13000
C 	C 	0.19550 0.28430 0.07680 0.04600
C 	C 	0.19260 0.28590 0.13830 -0.09400
C 	C 	0.19300 0.21340 0.26680 -0.07400
C 	C 	0.19290 0.21580 0.32880 0.03100
H 	H 	0.07070 0.61170 0.01730 0.07700
H 	H 	0.30660 0.65270 0.10310 -0.01800
H 	H 	0.30870 0.64920 0.20480 0.06900
H 	H 	0.15630 0.31040 0.05550 -0.01800
H 	H 	0.15090 0.31000 0.15820 0.05300
H 	H 	0.15390 0.18580 0.24650 0.04700
H 	H 	0.15150 0.19260 0.34950 0.00100
H 	H 	0.93930 0.61180 0.03230 0.02100
Zn	Zn	0.25000 0.25000 0.45204 1.18400
N 	N 	0.25000 0.25000 0.54720 -0.26200
N 	N 	0.25000 0.25000 0.85880 -0.25300
C 	C 	0.25000 0.25000 0.67000 0.07900
C 	C 	0.25000 0.25000 0.73500 0.05100
Zn	Zn	0.75000 0.75000 0.04796 1.17900
N 	N 	0.75000 0.75000 0.95280 -0.25100
N 	N 	0.75000 0.75000 0.64120 -0.25300
C 	C 	0.75000 0.75000 0.83000 0.07300
C 	C 	0.75000 0.75000 0.76500 0.05400
Zn	Zn	0.75000 0.75000 0.54796 1.18400
N 	N 	0.75000 0.75000 0.45280 -0.26200
N 	N 	0.75000 0.75000 0.14120 -0.25300
C 	C 	0.75000 0.75000 0.33000 0.07900
C 	C 	0.75000 0.75000 0.26500 0.05000
Zn	Zn	0.25000 0.25000 0.95204 1.18800
N 	N 	0.25000 0.25000 0.04720 -0.27200
N 	N 	0.25000 0.25000 0.35880 -0.25200
C 	C 	0.25000 0.25000 0.17000 0.08400
C 	C 	0.25000 0.25000 0.23500 0.04700
Zn	Zn	0.75000 0.25000 0.50000 1.18500
Zn	Zn	0.25000 0.75000 0.50000 1.18500
Zn	Zn	0.25000 0.75000 -0.00000 1.17500
Zn	Zn	0.75000 0.25000 -0.00000 1.17500
N 	N 	0.75000 0.25000 0.59420 -0.25400
C 	C 	0.75000 0.25000 0.71690 0.05200
N 	N 	0.25000 0.75000 0.59420 -0.25400
C 	C 	0.25000 0.75000 0.71690 0.05200
N 	N 	0.25000 0.75000 0.90580 -0.24700
C 	C 	0.25000 0.75000 0.78310 0.05000
N 	N 	0.75000 0.25000 0.90580 -0.24700
C 	C 	0.75000 0.25000 0.78310 0.05000
N 	N 	0.25000 0.75000 0.40580 -0.25400
C 	C 	0.25000 0.75000 0.28310 0.05000
N 	N 	0.75000 0.25000 0.40580 -0.25400
C 	C 	0.75000 0.25000 0.28310 0.05000
N 	N 	0.75000 0.25000 0.09420 -0.25800
C 	C 	0.75000 0.25000 0.21690 0.05100
N 	N 	0.25000 0.75000 0.09420 -0.25800
C 	C 	0.25000 0.75000 0.21690 0.05100
