data_crystal

_cell_length_a 12.38410
_cell_length_b 12.38410
_cell_length_c 14.36130
_cell_angle_alpha 64.45820
_cell_angle_beta  64.45820
_cell_angle_gamma 89.99950

_symmetry_space_group_name_	'P 1'
_symmetry_space_group_name_H-M	'P 1'

loop_
_symmetry_equiv_pos_as_xyz
  x,y,z

loop_
_atom_site_label
_atom_site_type_symbol
_atom_site_fract_x
_atom_site_fract_y
_atom_site_fract_z
_atom_site_charge
Zn	Zn	0.50000 0.50000 -0.00000 1.17700
Zn	Zn	-0.00000 0.00000 -0.00000 1.14500
H 	H 	0.85620 0.74210 0.20960 0.01200
H 	H 	0.83260 0.95450 0.40780 0.08500
H 	H 	0.35620 0.54830 0.20960 -0.00500
H 	H 	0.25790 0.06580 0.79040 -0.00000
H 	H 	0.74040 0.54550 0.59220 0.05500
H 	H 	0.93420 0.04830 0.20960 -0.04500
H 	H 	0.04860 0.31920 -0.00000 0.08400
H 	H 	0.86230 0.74040 0.59220 0.06300
H 	H 	0.18080 0.45140 -0.00000 0.00200
H 	H 	0.54860 0.18080 -0.00000 0.00200
H 	H 	0.95140 0.68080 -0.00000 0.00600
H 	H 	0.13770 0.25960 0.40780 0.04300
H 	H 	0.68080 0.04860 -0.00000 0.08600
H 	H 	0.81920 0.54860 -0.00000 0.08700
H 	H 	0.04550 0.24040 0.59220 0.02300
H 	H 	0.16740 0.04550 0.59220 0.02000
H 	H 	0.24040 0.36230 0.59220 0.05000
H 	H 	0.95170 0.14380 0.79040 0.06800
H 	H 	0.43420 0.24210 0.20960 -0.00800
H 	H 	0.75790 0.64380 0.79040 0.02100
H 	H 	0.64380 0.45170 0.79040 0.01900
H 	H 	0.33260 0.13770 0.40780 0.04600
H 	H 	0.04830 0.85620 0.20960 -0.05100
H 	H 	0.74210 0.93420 0.20960 0.01500
H 	H 	0.66740 0.86230 0.59220 0.06100
H 	H 	0.45450 0.33260 0.40780 0.05500
H 	H 	0.36230 0.16740 0.59220 0.04900
H 	H 	0.45170 0.56580 0.79040 0.01800
H 	H 	0.24210 0.35620 0.20960 -0.00900
H 	H 	0.54550 0.66740 0.59220 0.05300
H 	H 	0.45140 0.81920 -0.00000 0.08700
H 	H 	0.31920 0.95140 -0.00000 0.00400
H 	H 	0.56580 0.75790 0.79040 0.02000
H 	H 	0.75960 0.63770 0.40780 0.05600
H 	H 	0.14380 0.25790 0.79040 0.00500
H 	H 	0.63770 0.83260 0.40780 0.06000
H 	H 	0.06580 0.95170 0.79040 0.06600
H 	H 	0.54830 0.43420 0.20960 -0.00400
H 	H 	0.95450 0.75960 0.40780 0.08400
H 	H 	0.25960 0.45450 0.40780 0.05300
C 	C 	0.78570 0.89600 0.25100 0.03300
C 	C 	0.39600 0.28570 0.25100 0.04200
C 	C 	0.52780 0.10690 -0.00000 0.04400
C 	C 	0.09260 0.20660 0.63080 -0.03600
C 	C 	0.71430 0.64700 0.74900 0.03900
C 	C 	0.97220 0.60690 -0.00000 0.09200
C 	C 	0.16260 0.09260 0.63080 -0.03400
C 	C 	0.08150 0.58150 -0.00000 -0.07900
C 	C 	0.28570 0.35300 0.25100 0.04200
C 	C 	0.28190 0.28190 0.43620 0.08400
C 	C 	0.33740 0.22340 0.36920 -0.09300
C 	C 	0.83740 0.90740 0.36920 -0.12400
C 	C 	0.72730 0.36560 -0.00000 0.14700
C 	C 	0.21430 0.10400 0.74900 0.05000
C 	C 	0.90740 0.79340 0.36920 -0.12900
C 	C 	0.22730 0.13440 -0.00000 0.09100
C 	C 	0.35300 0.46330 0.25100 0.04400
C 	C 	0.60690 0.02780 -0.00000 -0.24400
C 	C 	0.71810 0.71810 0.56380 0.03800
C 	C 	0.79340 0.72340 0.36920 -0.08600
C 	C 	0.53670 0.60400 0.74900 0.03600
C 	C 	0.46330 0.39600 0.25100 0.04500
C 	C 	0.20660 0.27660 0.63080 -0.07500
C 	C 	0.59260 0.66260 0.63080 -0.07300
C 	C 	0.66260 0.77660 0.63080 -0.07300
C 	C 	0.91850 0.41850 -0.00000 0.20800
C 	C 	0.60400 0.71430 0.74900 0.03800
C 	C 	0.89600 0.96330 0.25100 0.12400
C 	C 	0.39310 0.97220 -0.00000 0.09400
C 	C 	0.96330 0.85300 0.25100 0.13000
C 	C 	0.27270 0.63440 -0.00000 0.11000
C 	C 	0.63440 0.72730 -0.00000 0.15100
C 	C 	0.10400 0.03670 0.74900 -0.05300
C 	C 	0.77270 0.86560 -0.00000 0.16400
C 	C 	0.22340 0.29340 0.36920 -0.09200
C 	C 	0.66460 0.83540 -0.00000 -0.20700
C 	C 	0.10690 0.47220 -0.00000 0.04300
C 	C 	0.41850 0.08150 -0.00000 -0.08300
C 	C 	0.64700 0.53670 0.74900 0.03700
C 	C 	0.70660 0.59260 0.63080 -0.07300
C 	C 	0.83540 0.33540 -0.00000 -0.20900
C 	C 	0.21810 0.21810 0.56380 0.01700
C 	C 	0.13440 0.77270 -0.00000 0.10200
C 	C 	0.33540 0.16460 -0.00000 -0.11000
C 	C 	0.16460 0.66460 -0.00000 -0.10800
C 	C 	0.29340 0.40740 0.36920 -0.09200
C 	C 	0.47220 0.89310 -0.00000 -0.19700
C 	C 	0.72340 0.83740 0.36920 -0.08800
C 	C 	0.03670 0.14700 0.74900 -0.04900
C 	C 	0.89310 0.52780 -0.00000 -0.19500
C 	C 	0.78190 0.78190 0.43620 0.10000
C 	C 	0.58150 0.91850 -0.00000 0.20800
C 	C 	0.40740 0.33740 0.36920 -0.09200
C 	C 	0.77660 0.70660 0.63080 -0.07300
C 	C 	0.14700 0.21430 0.74900 0.04600
C 	C 	0.86560 0.22730 -0.00000 0.15500
C 	C 	0.27660 0.16260 0.63080 -0.07900
C 	C 	0.85300 0.78570 0.25100 0.03100
C 	C 	0.02780 0.39310 -0.00000 -0.24600
C 	C 	0.36560 0.27270 -0.00000 0.10500
N 	N 	0.85910 0.89710 -0.00000 -0.26700
N 	N 	0.40560 0.40560 0.18880 -0.26000
N 	N 	0.39710 0.35910 -0.00000 -0.27900
N 	N 	0.14090 0.10290 -0.00000 -0.29800
N 	N 	0.64090 0.39710 -0.00000 -0.29100
N 	N 	0.59440 0.59440 0.81120 -0.23900
N 	N 	0.10290 0.85910 -0.00000 -0.27200
N 	N 	0.60290 0.64090 -0.00000 -0.29200
N 	N 	0.09440 0.09440 0.81120 -0.22800
N 	N 	0.90560 0.90560 0.18880 -0.26100
N 	N 	0.35910 0.60290 -0.00000 -0.28000
N 	N 	0.89710 0.14090 -0.00000 -0.28900
