data_crystal

_cell_length_a 18.24860
_cell_length_b 18.24860
_cell_length_c 18.24860
_cell_angle_alpha 60.00000
_cell_angle_beta  60.00000
_cell_angle_gamma 60.00000

_symmetry_space_group_name_	'P 1'
_symmetry_space_group_name_H-M	'P 1'

loop_
_symmetry_equiv_pos_as_xyz
  x,y,z

loop_
_atom_site_label
_atom_site_type_symbol
_atom_site_fract_x
_atom_site_fract_y
_atom_site_fract_z
_atom_site_charge
Zn	Zn	0.11962 0.29346 0.29346 1.21100
Zn	Zn	0.70654 0.88038 0.70654 1.21100
Zn	Zn	0.29346 0.29346 0.11962 1.21100
Zn	Zn	0.29346 0.29346 0.29346 1.21100
Zn	Zn	0.88038 0.70654 0.70654 1.21100
Zn	Zn	0.29346 0.11962 0.29346 1.21100
Zn	Zn	0.70654 0.70654 0.88038 1.21100
Zn	Zn	0.70654 0.70654 0.70654 1.21100
H 	H 	0.15060 0.45640 0.45640 0.04900
H 	H 	0.84940 0.54360 0.06340 0.04900
H 	H 	0.45640 0.93660 0.45640 0.04900
H 	H 	0.54360 0.84940 0.06340 0.04900
H 	H 	0.84940 0.54360 0.54360 0.04900
H 	H 	0.45640 0.15060 0.93660 0.04900
H 	H 	0.45640 0.93660 0.15060 0.04900
H 	H 	0.06340 0.54360 0.54360 0.04900
H 	H 	0.45640 0.15060 0.45640 0.05000
H 	H 	0.93660 0.45640 0.45640 0.05000
H 	H 	0.93660 0.15060 0.45640 0.05000
H 	H 	0.45640 0.45640 0.15060 0.05000
H 	H 	0.06340 0.84940 0.54360 0.05000
H 	H 	0.06340 0.54360 0.84940 0.05000
H 	H 	0.54360 0.06340 0.84940 0.05000
H 	H 	0.54360 0.84940 0.54360 0.05000
H 	H 	0.15060 0.93660 0.45640 0.05000
H 	H 	0.54360 0.06340 0.54360 0.05000
H 	H 	0.93660 0.45640 0.15060 0.05000
H 	H 	0.84940 0.06340 0.54360 0.05000
H 	H 	0.45640 0.45640 0.93660 0.05000
H 	H 	0.54360 0.54360 0.06340 0.05000
H 	H 	0.15060 0.45640 0.93660 0.05000
H 	H 	0.54360 0.54360 0.84940 0.05000
C 	C 	0.89030 0.60970 0.60970 0.33200
C 	C 	0.55390 0.55390 0.94610 -0.08300
C 	C 	0.03650 0.91130 0.52610 -0.01600
C 	C 	0.47390 0.96350 0.08870 -0.01600
C 	C 	0.91130 0.52610 0.03650 -0.01600
C 	C 	0.47390 0.47390 0.08870 -0.01500
C 	C 	0.96350 0.08870 0.47390 -0.01600
C 	C 	0.39030 0.10970 0.39030 0.33200
C 	C 	0.44610 0.05390 0.44610 -0.08300
C 	C 	0.52610 0.52610 0.03650 -0.01600
C 	C 	0.52610 0.91130 0.03650 -0.01600
C 	C 	0.10970 0.10970 0.39030 0.33200
C 	C 	0.05390 0.44610 0.44610 -0.08300
C 	C 	0.55390 0.94610 0.55390 -0.08300
C 	C 	0.44610 0.05390 0.05390 -0.08200
C 	C 	0.94610 0.55390 0.55390 -0.08300
C 	C 	0.94610 0.55390 0.94610 -0.08200
C 	C 	0.39030 0.39030 0.10970 0.33200
C 	C 	0.03650 0.52610 0.52610 -0.01600
C 	C 	0.08870 0.47390 0.96350 -0.01600
C 	C 	0.47390 0.96350 0.47390 -0.01600
C 	C 	0.47390 0.47390 0.96350 -0.01600
C 	C 	0.60970 0.89030 0.60970 0.33200
C 	C 	0.94610 0.94610 0.55390 -0.08200
C 	C 	0.05390 0.05390 0.44610 -0.08200
C 	C 	0.39030 0.10970 0.10970 0.33200
C 	C 	0.03650 0.52610 0.91130 -0.01600
C 	C 	0.44610 0.44610 0.05390 -0.08300
C 	C 	0.10970 0.39030 0.39030 0.33200
C 	C 	0.89030 0.89030 0.60970 0.33200
C 	C 	0.60970 0.89030 0.89030 0.33200
C 	C 	0.96350 0.47390 0.47390 -0.01600
C 	C 	0.89030 0.60970 0.89030 0.33200
C 	C 	0.08870 0.47390 0.47390 -0.01500
C 	C 	0.91130 0.52610 0.52610 -0.01500
C 	C 	0.47390 0.08870 0.47390 -0.01500
C 	C 	0.47390 0.08870 0.96350 -0.01600
C 	C 	0.08870 0.96350 0.47390 -0.01600
C 	C 	0.10970 0.39030 0.10970 0.33200
C 	C 	0.96350 0.47390 0.08870 -0.01600
C 	C 	0.52610 0.52610 0.91130 -0.01500
C 	C 	0.60970 0.60970 0.89030 0.33200
C 	C 	0.52610 0.91130 0.52610 -0.01500
C 	C 	0.91130 0.03650 0.52610 -0.01600
C 	C 	0.52610 0.03650 0.91130 -0.01600
C 	C 	0.05390 0.44610 0.05390 -0.08200
C 	C 	0.55390 0.94610 0.94610 -0.08200
C 	C 	0.52610 0.03650 0.52610 -0.01600
O 	O 	0.63380 0.80300 0.92940 -0.48200
O 	O 	0.07060 0.19700 0.36620 -0.48200
O 	O 	0.80300 0.63380 0.63380 -0.48200
O 	O 	0.80300 0.92940 0.63380 -0.48200
O 	O 	0.36620 0.07060 0.19700 -0.48200
O 	O 	0.07060 0.36620 0.19700 -0.48200
O 	O 	0.63380 0.92940 0.63380 -0.48200
O 	O 	0.63380 0.80300 0.63380 -0.48200
O 	O 	0.36620 0.36620 0.19700 -0.48200
O 	O 	0.36620 0.07060 0.36620 -0.48200
O 	O 	0.75000 0.75000 0.75000 -0.96400
O 	O 	0.80300 0.63380 0.92940 -0.48200
O 	O 	0.92940 0.80300 0.63380 -0.48200
O 	O 	0.36620 0.19700 0.36620 -0.48200
O 	O 	0.63380 0.63380 0.80300 -0.48200
O 	O 	0.19700 0.36620 0.07060 -0.48200
O 	O 	0.63380 0.63380 0.92940 -0.48200
O 	O 	0.36620 0.36620 0.07060 -0.48200
O 	O 	0.63380 0.92940 0.80300 -0.48200
O 	O 	0.19700 0.07060 0.36620 -0.48200
O 	O 	0.36620 0.19700 0.07060 -0.48200
O 	O 	0.92940 0.63380 0.80300 -0.48200
O 	O 	0.25000 0.25000 0.25000 -0.96400
O 	O 	0.19700 0.36620 0.36620 -0.48200
O 	O 	0.92940 0.63380 0.63380 -0.48200
O 	O 	0.07060 0.36620 0.36620 -0.48200
