data_crystal

_cell_length_a 12.88900
_cell_length_b 13.16000
_cell_length_c 14.60830
_cell_angle_alpha 116.77100
_cell_angle_beta  113.32000
_cell_angle_gamma 90.00000

_symmetry_space_group_name_	'P 1'
_symmetry_space_group_name_H-M	'P 1'

loop_
_symmetry_equiv_pos_as_xyz
  x,y,z

loop_
_atom_site_label
_atom_site_type_symbol
_atom_site_fract_x
_atom_site_fract_y
_atom_site_fract_z
_atom_site_charge
Mn	Mn	0.21791 0.65608 0.42372 1.18500
Mn	Mn	0.71722 0.67508 0.42690 1.18900
Mn	Mn	0.28278 0.24818 0.57310 1.20200
Mn	Mn	0.50000 0.98092 -0.00000 1.11500
Mn	Mn	-0.00000 0.92882 -0.00000 1.11000
Mn	Mn	0.78209 0.23236 0.57628 1.21200
Mo	Mo	0.10188 0.01128 0.71780 1.08500
Mo	Mo	0.89812 0.29348 0.28220 1.07200
Mo	Mo	0.59995 0.61292 0.71812 1.05600
Mo	Mo	0.40005 0.89480 0.28188 1.02300
C 	C 	0.27030 0.01450 0.83260 -0.09200
C 	C 	0.44380 0.93110 0.17240 -0.23000
C 	C 	0.64600 0.62650 0.59680 -0.16000
C 	C 	0.76940 0.72880 0.83720 -0.13500
C 	C 	0.86370 0.33620 0.14540 -0.17400
C 	C 	0.04310 0.25880 0.38800 -0.20000
C 	C 	0.14870 0.87490 0.60180 -0.24700
C 	C 	0.94140 0.15010 0.16940 -0.15100
C 	C 	0.95690 0.87080 0.61200 -0.17600
C 	C 	0.54290 0.03770 0.39040 -0.09800
C 	C 	0.23060 0.89160 0.16280 -0.22400
C 	C 	0.62150 0.57630 0.85440 -0.15400
C 	C 	0.46250 0.46380 0.63060 -0.16400
C 	C 	0.18660 0.10670 0.66960 -0.13200
C 	C 	0.68900 0.47080 0.67400 -0.13800
C 	C 	0.13630 0.19080 0.85460 -0.13800
C 	C 	0.72970 0.18190 0.16740 -0.17500
C 	C 	0.81340 0.43710 0.33040 -0.15000
C 	C 	0.31100 0.79680 0.32600 -0.19500
C 	C 	0.85130 0.27310 0.39820 -0.14800
C 	C 	0.35400 0.02970 0.40320 -0.09400
C 	C 	0.45710 0.64730 0.60960 -0.17400
C 	C 	0.55620 0.75870 0.82760 -0.14800
C 	C 	0.53750 0.83320 0.36940 -0.21200
C 	C 	0.03790 0.43730 0.36160 -0.21300
C 	C 	0.96210 0.07570 0.63840 -0.09000
C 	C 	0.05860 0.98070 0.83060 -0.22600
C 	C 	0.37850 0.72190 0.14560 -0.21800
N 	N 	0.26580 0.74570 0.35060 -0.27700
N 	N 	0.87740 0.79740 0.55400 -0.25200
N 	N 	0.22620 0.16130 0.64340 -0.25600
N 	N 	0.15150 0.28200 0.92160 -0.07100
N 	N 	0.60650 0.79160 0.40940 -0.26800
N 	N 	0.77380 0.51790 0.35660 -0.27000
N 	N 	0.14480 0.89140 0.09880 -0.31800
N 	N 	0.12260 0.24340 0.44600 -0.24700
N 	N 	0.37680 0.66300 0.54780 -0.26400
N 	N 	0.10870 0.51750 0.40060 -0.26700
N 	N 	0.85520 0.79260 0.90120 -0.21700
N 	N 	0.73420 0.39510 0.64940 -0.25100
N 	N 	0.66940 0.63490 0.53340 -0.25400
N 	N 	0.89130 0.11690 0.59940 -0.25400
N 	N 	0.84850 0.36040 0.07840 -0.13700
N 	N 	0.36610 0.62490 0.07660 -0.15200
N 	N 	0.82520 0.26290 0.46200 -0.24200
N 	N 	0.03910 0.96310 0.89380 -0.23700
N 	N 	0.63390 0.54830 0.92340 -0.06500
N 	N 	0.39350 0.38220 0.59060 -0.25800
N 	N 	0.17480 0.80090 0.53800 -0.25300
N 	N 	0.33060 0.10150 0.46660 -0.25600
N 	N 	0.36210 0.01810 0.89700 -0.19800
N 	N 	0.96090 0.06930 0.10620 -0.25300
N 	N 	0.62320 0.11520 0.45220 -0.25900
N 	N 	0.63790 0.12110 0.10300 -0.27000
N 	N 	0.53920 0.83920 0.89000 -0.23300
N 	N 	0.46080 0.94920 0.11000 -0.31400
