data_crystal

_cell_length_a 12.91000
_cell_length_b 13.18000
_cell_length_c 14.59050
_cell_angle_alpha 116.85000
_cell_angle_beta  113.54600
_cell_angle_gamma 90.00000

_symmetry_space_group_name_	'P 1'
_symmetry_space_group_name_H-M	'P 1'

loop_
_symmetry_equiv_pos_as_xyz
  x,y,z

loop_
_atom_site_label
_atom_site_type_symbol
_atom_site_fract_x
_atom_site_fract_y
_atom_site_fract_z
_atom_site_charge
Mn	Mn	0.75000 0.97370 -0.00000 1.14800
Mn	Mn	0.53490 0.28096 0.57732 1.20100
Mn	Mn	0.03490 0.29636 0.57732 1.20600
Mn	Mn	0.96510 0.70364 0.42268 1.18100
Mn	Mn	0.25000 0.02630 -0.00000 1.16100
Mn	Mn	0.46510 0.71904 0.42268 1.18900
Mo	Mo	0.65034 0.33974 0.28316 1.05400
Mo	Mo	0.84966 0.05658 0.71684 1.05900
Mo	Mo	0.34966 0.66026 0.71684 1.05700
Mo	Mo	0.15034 0.94342 0.28316 1.05500
C 	C 	0.12200 0.76630 0.14660 -0.19900
C 	C 	0.89300 0.92260 0.59460 -0.18400
C 	C 	0.39300 0.67200 0.59460 -0.16700
C 	C 	0.78900 0.48710 0.36820 -0.18000
C 	C 	0.98060 0.93970 0.16640 -0.21500
C 	C 	0.01940 0.06030 0.83360 -0.11900
C 	C 	0.06360 0.84570 0.32840 -0.15700
C 	C 	0.19200 0.97450 0.17020 -0.19100
C 	C 	0.37800 0.61970 0.85340 -0.14700
C 	C 	0.21100 0.51290 0.63180 -0.16300
C 	C 	0.10700 0.07740 0.40540 -0.15600
C 	C 	0.56360 0.48270 0.32840 -0.16100
C 	C 	0.70500 0.91420 0.61040 -0.17400
C 	C 	0.71100 0.11890 0.63180 -0.16200
C 	C 	0.20500 0.69620 0.61040 -0.16200
C 	C 	0.30800 0.80430 0.82980 -0.14100
C 	C 	0.69200 0.19570 0.17020 -0.19200
C 	C 	0.43640 0.51730 0.67160 -0.14200
C 	C 	0.80800 0.02550 0.82980 -0.14100
C 	C 	0.51940 0.77330 0.83360 -0.13900
C 	C 	0.60700 0.32800 0.40540 -0.17100
C 	C 	0.62200 0.38030 0.14660 -0.20500
C 	C 	0.87800 0.23370 0.85340 -0.15300
C 	C 	0.28900 0.88110 0.36820 -0.18100
C 	C 	0.48060 0.22670 0.16640 -0.18600
C 	C 	0.93640 0.15430 0.67160 -0.14400
C 	C 	0.79500 0.30380 0.38960 -0.17100
C 	C 	0.29500 0.08580 0.38960 -0.16000
N 	N 	0.71000 0.11440 0.10680 -0.29700
N 	N 	0.60920 0.83470 0.89720 -0.22400
N 	N 	0.89100 0.32820 0.92040 -0.07200
N 	N 	0.39080 0.16530 0.10280 -0.29700
N 	N 	0.21000 0.99240 0.10680 -0.30300
N 	N 	0.97860 0.20740 0.64680 -0.26200
N 	N 	0.89080 0.93750 0.10280 -0.30200
N 	N 	0.62500 0.83960 0.55140 -0.25500
N 	N 	0.41700 0.68000 0.53000 -0.25200
N 	N 	0.58300 0.32000 0.47000 -0.25000
N 	N 	0.29000 0.88560 0.89320 -0.22600
N 	N 	0.10900 0.67180 0.07960 -0.14600
N 	N 	0.79000 0.00760 0.89320 -0.22100
N 	N 	0.47860 0.43940 0.64680 -0.25600
N 	N 	0.64150 0.16060 0.59220 -0.25800
N 	N 	0.10920 0.06250 0.89720 -0.22100
N 	N 	0.91700 0.85000 0.53000 -0.25600
N 	N 	0.87500 0.28820 0.44860 -0.26000
N 	N 	0.52140 0.56060 0.35320 -0.27000
N 	N 	0.02140 0.79260 0.35320 -0.26400
N 	N 	0.39100 0.59220 0.92040 -0.06800
N 	N 	0.85850 0.56840 0.40780 -0.26800
N 	N 	0.12500 0.71180 0.55140 -0.24900
N 	N 	0.08300 0.15000 0.47000 -0.24700
N 	N 	0.35850 0.83940 0.40780 -0.26400
N 	N 	0.60900 0.40780 0.07960 -0.15000
N 	N 	0.14150 0.43160 0.59220 -0.25500
N 	N 	0.37500 0.16040 0.44860 -0.25500
