data_crystal

_cell_length_a 11.02600
_cell_length_b 16.83800
_cell_length_c 22.41000
_cell_angle_alpha 90.00000
_cell_angle_beta  90.00000
_cell_angle_gamma 90.00000

_symmetry_space_group_name_	'P 1'
_symmetry_space_group_name_H-M	'P 1'

loop_
_symmetry_equiv_pos_as_xyz
  x,y,z

loop_
_atom_site_label
_atom_site_type_symbol
_atom_site_fract_x
_atom_site_fract_y
_atom_site_fract_z
_atom_site_charge
Zn	Zn	0.09424 0.55854 0.49111 1.21700
Zn	Zn	0.09424 0.94146 0.99111 1.21500
Zn	Zn	0.90576 0.94146 0.49111 1.21700
Zn	Zn	0.09424 0.44146 0.00889 1.21700
Zn	Zn	0.09424 0.05854 0.50889 1.21700
Zn	Zn	0.90576 0.55854 0.99111 1.21700
Zn	Zn	0.90576 0.44146 0.50889 1.21700
Zn	Zn	0.90576 0.05854 0.00889 1.21500
H 	H 	0.10040 0.24050 0.42660 -0.02900
H 	H 	0.47420 0.87150 0.50860 0.08900
H 	H 	0.57680 0.07180 0.72000 0.16100
H 	H 	0.41080 0.67110 0.19410 0.18400
H 	H 	0.35070 0.55340 0.51320 -0.00400
H 	H 	0.68680 0.58410 0.63150 -0.03500
H 	H 	0.57680 0.42820 0.22000 0.16100
H 	H 	0.89960 0.74050 0.07340 -0.02800
H 	H 	0.16190 0.22060 0.55820 -0.00400
H 	H 	0.68680 0.91590 0.13150 -0.03300
H 	H 	0.05580 0.32340 0.66240 -0.03100
H 	H 	0.16190 0.72060 0.44180 -0.00400
H 	H 	0.52580 0.37150 0.99140 0.09200
H 	H 	0.19630 0.34660 0.86390 0.17400
H 	H 	0.31320 0.58410 0.13150 -0.03400
H 	H 	0.94420 0.82340 0.83760 -0.03100
H 	H 	0.32730 0.19720 0.06090 0.09100
H 	H 	0.19630 0.15340 0.36390 0.17400
H 	H 	0.32730 0.80280 0.43910 0.09200
H 	H 	0.35070 0.94660 0.01320 0.00100
H 	H 	0.31720 0.48460 0.64280 -0.03100
H 	H 	0.94420 0.32340 0.16240 -0.03100
H 	H 	0.83810 0.72060 0.94180 -0.00400
H 	H 	0.84420 0.26960 0.24280 0.16000
H 	H 	0.47420 0.37150 0.49140 0.09000
H 	H 	0.47420 0.12850 0.99140 0.09400
H 	H 	0.57680 0.92820 0.78000 0.16000
H 	H 	0.68280 0.98460 0.85720 -0.03200
H 	H 	0.15580 0.76960 0.25720 0.16000
H 	H 	0.67270 0.69720 0.43910 0.09200
H 	H 	0.31720 0.51540 0.85720 -0.03100
H 	H 	0.15580 0.26960 0.74280 0.16000
H 	H 	0.58920 0.17110 0.30590 0.18500
H 	H 	0.57680 0.57180 0.28000 0.16100
H 	H 	0.80370 0.34660 0.36390 0.17400
H 	H 	0.32730 0.30280 0.56090 0.09200
H 	H 	0.41080 0.82890 0.69410 0.18500
H 	H 	0.42320 0.57180 0.78000 0.16100
H 	H 	0.64930 0.05340 0.98680 0.00100
H 	H 	0.15580 0.23040 0.24280 0.16000
H 	H 	0.05580 0.17660 0.16240 -0.03100
H 	H 	0.10040 0.25950 0.92660 -0.02800
H 	H 	0.68280 0.48460 0.14280 -0.03100
H 	H 	0.10040 0.74050 0.57340 -0.02800
H 	H 	0.31320 0.08410 0.86850 -0.03300
H 	H 	0.94420 0.67660 0.33760 -0.03100
H 	H 	0.89960 0.24050 0.92660 -0.02800
H 	H 	0.80370 0.15340 0.86390 0.17400
H 	H 	0.42320 0.92820 0.28000 0.16200
H 	H 	0.58920 0.67110 0.69410 0.18500
H 	H 	0.52580 0.62850 0.50860 0.09000
H 	H 	0.67270 0.30280 0.06090 0.09200
H 	H 	0.68280 0.01540 0.64280 -0.03100
H 	H 	0.67270 0.19720 0.56090 0.09200
H 	H 	0.64930 0.94660 0.51320 -0.00300
H 	H 	0.31720 0.01540 0.14280 -0.03200
H 	H 	0.84420 0.23040 0.74280 0.16000
H 	H 	0.47420 0.62850 0.00860 0.09200
H 	H 	0.83810 0.27940 0.55820 -0.00400
H 	H 	0.31320 0.41590 0.36850 -0.03400
H 	H 	0.84420 0.73040 0.25720 0.16000
H 	H 	0.64930 0.44660 0.48680 -0.00300
H 	H 	0.89960 0.75950 0.57340 -0.02800
H 	H 	0.41080 0.32890 0.30590 0.18500
H 	H 	0.84420 0.76960 0.75720 0.16000
H 	H 	0.32730 0.69720 0.93910 0.09200
H 	H 	0.68280 0.51540 0.35720 -0.03100
H 	H 	0.52580 0.12850 0.49140 0.09000
H 	H 	0.64930 0.55340 0.01320 -0.00300
H 	H 	0.42320 0.42820 0.72000 0.16100
H 	H 	0.05580 0.82340 0.33760 -0.03100
H 	H 	0.10040 0.75950 0.07340 -0.02800
H 	H 	0.58920 0.32890 0.80590 0.18500
H 	H 	0.89960 0.25950 0.42660 -0.02800
H 	H 	0.19630 0.84660 0.13610 0.17400
H 	H 	0.52580 0.87150 0.00860 0.09400
H 	H 	0.35070 0.05340 0.48680 -0.00300
H 	H 	0.83810 0.22060 0.05820 -0.00400
H 	H 	0.41080 0.17110 0.80590 0.18500
H 	H 	0.42320 0.07180 0.22000 0.16000
H 	H 	0.83810 0.77940 0.44180 -0.00400
H 	H 	0.16190 0.27940 0.05820 -0.00400
H 	H 	0.31720 0.98460 0.35720 -0.03100
H 	H 	0.19630 0.65340 0.63610 0.17400
H 	H 	0.16190 0.77940 0.94180 -0.00400
H 	H 	0.67270 0.80280 0.93910 0.09100
H 	H 	0.80370 0.84660 0.63610 0.17400
H 	H 	0.80370 0.65340 0.13610 0.17400
H 	H 	0.68680 0.41590 0.86850 -0.03400
H 	H 	0.31320 0.91590 0.63150 -0.03500
H 	H 	0.15580 0.73040 0.75720 0.16000
H 	H 	0.68680 0.08410 0.36850 -0.03500
H 	H 	0.35070 0.44660 0.98680 -0.00300
H 	H 	0.94420 0.17660 0.66240 -0.03100
H 	H 	0.58920 0.82890 0.19410 0.18500
H 	H 	0.05580 0.67660 0.83760 -0.03100
C 	C 	0.12850 0.15430 0.17500 0.22700
C 	C 	0.23550 0.70210 0.45660 0.10400
C 	C 	0.76450 0.79790 0.45660 0.10400
C 	C 	0.12850 0.65430 0.82500 0.22900
C 	C 	0.34630 0.18850 0.82930 -0.36300
C 	C 	0.29770 0.34580 0.74070 0.35500
C 	C 	0.81170 0.18700 0.72280 -0.35100
C 	C 	0.71170 0.63680 0.63280 0.23400
C 	C 	0.44380 0.77480 0.97110 0.07500
C 	C 	0.33560 0.74870 0.95350 -0.15500
C 	C 	0.55620 0.22520 0.02890 0.07500
C 	C 	0.55620 0.77480 0.47110 0.07300
C 	C 	0.23550 0.79790 0.95660 0.10400
C 	C 	0.10390 0.55430 0.90570 0.44800
C 	C 	0.71510 0.94120 0.83700 0.22200
C 	C 	0.34740 0.40840 0.70940 -0.34100
C 	C 	0.55620 0.27480 0.52890 0.07300
C 	C 	0.28490 0.44120 0.66300 0.22400
C 	C 	0.23550 0.20210 0.54340 0.10400
C 	C 	0.19300 0.33880 0.40390 -0.26900
C 	C 	0.65260 0.90840 0.79060 -0.34000
C 	C 	0.83830 0.74100 0.59830 0.23500
C 	C 	0.54760 0.14880 0.00500 -0.15000
C 	C 	0.54760 0.64880 0.99500 -0.14700
C 	C 	0.17380 0.41060 0.64540 -0.26000
C 	C 	0.28490 0.05880 0.16300 0.22200
C 	C 	0.54760 0.85120 0.49500 -0.14500
C 	C 	0.12520 0.39660 0.43960 0.44500
C 	C 	0.28830 0.13680 0.86720 0.23400
C 	C 	0.80700 0.33880 0.90390 -0.26900
C 	C 	0.34630 0.31150 0.32930 -0.36400
C 	C 	0.29770 0.15420 0.24070 0.35400
C 	C 	0.30820 0.26610 0.82630 0.37300
C 	C 	0.80700 0.16120 0.40390 -0.26900
C 	C 	0.65370 0.68850 0.67070 -0.36400
C 	C 	0.81170 0.68700 0.27720 -0.35100
C 	C 	0.82620 0.58940 0.35460 -0.26000
C 	C 	0.78180 0.29330 0.36410 -0.36600
C 	C 	0.29770 0.65420 0.75930 0.35500
C 	C 	0.54760 0.35120 0.50500 -0.14500
C 	C 	0.10390 0.94570 0.40570 0.44900
C 	C 	0.18830 0.31300 0.72280 -0.35100
C 	C 	0.65380 0.89550 0.49760 0.09700
C 	C 	0.21820 0.79330 0.13590 -0.36600
C 	C 	0.34620 0.39550 0.00240 0.09700
C 	C 	0.65370 0.18850 0.32930 -0.36400
C 	C 	0.76450 0.70210 0.95660 0.10400
C 	C 	0.71170 0.86320 0.13280 0.23400
C 	C 	0.19300 0.66120 0.09610 -0.26900
C 	C 	0.12850 0.34570 0.67500 0.22900
C 	C 	0.12520 0.60340 0.06040 0.44500
C 	C 	0.81170 0.31300 0.22280 -0.35100
C 	C 	0.65260 0.59160 0.29060 -0.34100
C 	C 	0.12850 0.84570 0.32500 0.22900
C 	C 	0.12520 0.89660 0.56040 0.44500
C 	C 	0.16170 0.74100 0.09830 0.23500
C 	C 	0.70230 0.15420 0.74070 0.35500
C 	C 	0.65370 0.81150 0.17070 -0.36300
C 	C 	0.69180 0.73390 0.17370 0.37300
C 	C 	0.87150 0.34570 0.17500 0.22900
C 	C 	0.29770 0.84580 0.25930 0.35500
C 	C 	0.21820 0.70670 0.63590 -0.36600
C 	C 	0.70230 0.84580 0.75930 0.35400
C 	C 	0.89610 0.55430 0.40570 0.44800
C 	C 	0.21820 0.29330 0.86410 -0.36500
C 	C 	0.71510 0.55880 0.33700 0.22400
C 	C 	0.87480 0.60340 0.56040 0.44500
C 	C 	0.69180 0.76610 0.67370 0.37400
C 	C 	0.23550 0.29790 0.04340 0.10400
C 	C 	0.71170 0.36320 0.86720 0.23400
C 	C 	0.87150 0.65430 0.32500 0.22900
C 	C 	0.78180 0.20670 0.86410 -0.36600
C 	C 	0.80700 0.83880 0.09610 -0.26800
C 	C 	0.65380 0.10450 0.00240 0.09100
C 	C 	0.87150 0.15430 0.67500 0.22900
C 	C 	0.89610 0.05430 0.59430 0.44900
C 	C 	0.17380 0.08940 0.14540 -0.25900
C 	C 	0.65370 0.31150 0.82930 -0.36400
C 	C 	0.65260 0.09160 0.70940 -0.34100
C 	C 	0.17380 0.58940 0.85460 -0.26000
C 	C 	0.28830 0.63680 0.13280 0.23400
C 	C 	0.16170 0.24100 0.90170 0.23400
C 	C 	0.87480 0.89660 0.06040 0.44400
C 	C 	0.87150 0.84570 0.82500 0.22700
C 	C 	0.45240 0.14880 0.50500 -0.14500
C 	C 	0.78180 0.79330 0.63590 -0.36600
C 	C 	0.66440 0.75130 0.95350 -0.15500
C 	C 	0.66440 0.74870 0.45350 -0.15400
C 	C 	0.44380 0.72520 0.47110 0.07300
C 	C 	0.30820 0.76610 0.17370 0.37400
C 	C 	0.70230 0.65420 0.25930 0.35500
C 	C 	0.65380 0.60450 0.99760 0.09700
C 	C 	0.65260 0.40840 0.20940 -0.34100
C 	C 	0.71510 0.44120 0.16300 0.22300
C 	C 	0.16170 0.75900 0.59830 0.23500
C 	C 	0.69180 0.26610 0.32630 0.37400
C 	C 	0.30820 0.73390 0.67370 0.37400
C 	C 	0.55620 0.72520 0.97110 0.07300
C 	C 	0.45240 0.35120 0.00500 -0.14700
C 	C 	0.21820 0.20670 0.36410 -0.36600
C 	C 	0.78180 0.70670 0.13590 -0.36500
C 	C 	0.44380 0.27480 0.02890 0.07300
C 	C 	0.28490 0.94120 0.33700 0.22400
C 	C 	0.87480 0.10340 0.43960 0.44500
C 	C 	0.19300 0.16120 0.90390 -0.26800
C 	C 	0.18830 0.18700 0.22280 -0.35000
C 	C 	0.16170 0.25900 0.40170 0.23500
C 	C 	0.83830 0.75900 0.09830 0.23400
C 	C 	0.45240 0.85120 0.99500 -0.15000
C 	C 	0.82620 0.91060 0.85460 -0.25900
C 	C 	0.17380 0.91060 0.35460 -0.26000
C 	C 	0.81170 0.81300 0.77720 -0.35000
C 	C 	0.18830 0.68700 0.77720 -0.35100
C 	C 	0.34630 0.81150 0.67070 -0.36400
C 	C 	0.66440 0.24870 0.54650 -0.15400
C 	C 	0.34620 0.89550 0.99760 0.09100
C 	C 	0.71170 0.13680 0.36720 0.23400
C 	C 	0.28830 0.36320 0.36720 0.23400
C 	C 	0.34620 0.60450 0.49760 0.09600
C 	C 	0.69180 0.23390 0.82630 0.37400
C 	C 	0.34620 0.10450 0.50240 0.09700
C 	C 	0.76450 0.29790 0.54340 0.10400
C 	C 	0.44380 0.22520 0.52890 0.07300
C 	C 	0.89610 0.44570 0.09430 0.44800
C 	C 	0.70230 0.34580 0.24070 0.35500
C 	C 	0.87480 0.39660 0.93960 0.44500
C 	C 	0.33560 0.75130 0.45350 -0.15400
C 	C 	0.45240 0.64880 0.49500 -0.14500
C 	C 	0.33560 0.25130 0.54650 -0.15400
C 	C 	0.34630 0.68850 0.17070 -0.36400
C 	C 	0.28490 0.55880 0.83700 0.22300
C 	C 	0.80700 0.66120 0.59610 -0.26900
C 	C 	0.10390 0.44570 0.59430 0.44800
C 	C 	0.83830 0.24100 0.40170 0.23500
C 	C 	0.65380 0.39550 0.50240 0.09600
C 	C 	0.19300 0.83880 0.59610 -0.26900
C 	C 	0.34740 0.59160 0.79060 -0.34100
C 	C 	0.82620 0.08940 0.64540 -0.26000
C 	C 	0.71510 0.05880 0.66300 0.22400
C 	C 	0.82620 0.41060 0.14540 -0.26000
C 	C 	0.76450 0.20210 0.04340 0.10400
C 	C 	0.83830 0.25900 0.90170 0.23500
C 	C 	0.89610 0.94570 0.90570 0.44200
C 	C 	0.10390 0.05430 0.09430 0.44200
C 	C 	0.66440 0.25130 0.04650 -0.15500
C 	C 	0.28830 0.86320 0.63280 0.23400
C 	C 	0.12520 0.10340 0.93960 0.44400
C 	C 	0.18830 0.81300 0.27720 -0.35100
C 	C 	0.34740 0.90840 0.29060 -0.34100
C 	C 	0.34740 0.09160 0.20940 -0.34000
C 	C 	0.33560 0.24870 0.04650 -0.15500
C 	C 	0.30820 0.23390 0.32630 0.37400
N 	N 	0.23990 0.13010 0.52050 -0.25800
N 	N 	0.23990 0.86990 0.97950 -0.25800
N 	N 	0.76010 0.63010 0.97950 -0.25800
N 	N 	0.76010 0.86990 0.47950 -0.25800
N 	N 	0.76010 0.36990 0.52050 -0.25800
N 	N 	0.23990 0.36990 0.02050 -0.25800
N 	N 	0.23990 0.63010 0.47950 -0.25800
N 	N 	0.76010 0.13010 0.02050 -0.25800
O 	O 	0.63510 0.31690 0.28770 -0.35000
O 	O 	0.85130 0.49490 0.43170 -0.48200
O 	O 	0.63510 0.81690 0.71230 -0.34900
O 	O 	0.16820 0.53490 0.05350 -0.47300
O 	O 	0.85130 0.50510 0.06830 -0.48200
O 	O 	0.00450 0.08510 0.08170 -0.47900
O 	O 	0.14870 0.49490 0.93170 -0.48200
O 	O 	0.85130 0.99490 0.56830 -0.48300
O 	O 	0.99550 0.91490 0.91830 -0.47900
O 	O 	0.02480 0.37430 0.46190 -0.47200
O 	O 	0.36490 0.31690 0.78770 -0.34900
O 	O 	0.16820 0.03490 0.94650 -0.47100
O 	O 	0.00450 0.58510 0.91830 -0.47900
O 	O 	0.83180 0.46510 0.94650 -0.47300
O 	O 	0.36490 0.81690 0.21230 -0.34900
O 	O 	0.16820 0.46510 0.44650 -0.47300
O 	O 	0.97520 0.62570 0.53810 -0.47200
O 	O 	0.14870 0.99490 0.06830 -0.47700
O 	O 	0.99550 0.08510 0.58170 -0.47900
O 	O 	0.97520 0.87430 0.03810 -0.47000
O 	O 	0.83180 0.03490 0.44650 -0.47400
O 	O 	0.83180 0.53490 0.55350 -0.47300
O 	O 	0.97520 0.37430 0.96190 -0.47100
O 	O 	0.00450 0.91490 0.41830 -0.47900
O 	O 	0.97520 0.12570 0.46190 -0.47200
O 	O 	0.36490 0.68310 0.71230 -0.35000
O 	O 	0.16820 0.96510 0.55350 -0.47400
O 	O 	0.36490 0.18310 0.28770 -0.34900
O 	O 	0.99550 0.58510 0.41830 -0.47900
O 	O 	0.02480 0.87430 0.53810 -0.47200
O 	O 	0.14870 0.00510 0.43170 -0.48300
O 	O 	0.14870 0.50510 0.56830 -0.48200
O 	O 	0.63510 0.18310 0.78770 -0.34900
O 	O 	0.02480 0.12570 0.96190 -0.47000
O 	O 	0.63510 0.68310 0.21230 -0.34900
O 	O 	0.83180 0.96510 0.05350 -0.47100
O 	O 	0.99550 0.41490 0.08170 -0.47900
O 	O 	0.00450 0.41490 0.58170 -0.47900
O 	O 	0.85130 0.00510 0.93170 -0.47700
O 	O 	0.02480 0.62570 0.03810 -0.47100
