data_crystal

_cell_length_a 21.62660
_cell_length_b 21.62660
_cell_length_c 21.62660
_cell_angle_alpha 60.00000
_cell_angle_beta  60.00000
_cell_angle_gamma 60.00000

_symmetry_space_group_name_	'P 1'
_symmetry_space_group_name_H-M	'P 1'

loop_
_symmetry_equiv_pos_as_xyz
  x,y,z

loop_
_atom_site_label
_atom_site_type_symbol
_atom_site_fract_x
_atom_site_fract_y
_atom_site_fract_z
_atom_site_charge
Ni	Ni	0.85849 0.04717 0.04717 1.06200
Ni	Ni	0.14151 0.95283 0.95283 1.05900
Ni	Ni	0.04717 0.04717 0.85849 1.06300
Ni	Ni	0.04717 0.85849 0.04717 1.06300
Ni	Ni	0.95283 0.14151 0.95283 1.05900
Ni	Ni	0.95283 0.95283 0.95283 1.05600
Ni	Ni	0.95283 0.95283 0.14151 1.05900
Ni	Ni	0.04717 0.04717 0.04717 1.06300
H 	H 	0.13071 0.97699 0.44615 0.07400
H 	H 	0.97699 0.13071 0.44615 0.07400
H 	H 	0.13071 0.44615 0.97699 0.07400
H 	H 	0.02301 0.55385 0.86929 0.07400
H 	H 	0.18880 0.06631 0.06631 0.06800
H 	H 	0.06631 0.67858 0.18880 0.06700
H 	H 	0.90500 0.09500 0.09500 0.10200
H 	H 	0.02301 0.86929 0.55385 0.07400
H 	H 	0.55385 0.86929 0.55385 0.07100
H 	H 	0.32142 0.93369 0.81120 0.06700
H 	H 	0.55385 0.86929 0.02301 0.07400
H 	H 	0.93369 0.93369 0.81120 0.06900
H 	H 	0.97699 0.44615 0.13071 0.07400
H 	H 	0.55385 0.02301 0.55385 0.07700
H 	H 	0.81120 0.93369 0.32142 0.06700
H 	H 	0.55385 0.02301 0.86929 0.07400
H 	H 	0.32142 0.81120 0.93369 0.06700
H 	H 	0.44615 0.97699 0.44615 0.07100
H 	H 	0.18880 0.67858 0.06631 0.06700
H 	H 	0.06631 0.06631 0.67858 0.06900
H 	H 	0.86929 0.02301 0.55385 0.07400
H 	H 	0.93369 0.81120 0.93369 0.06900
H 	H 	0.18880 0.06631 0.67858 0.06700
H 	H 	0.81120 0.32142 0.93369 0.06700
H 	H 	0.44615 0.44615 0.97699 0.07100
H 	H 	0.67858 0.06631 0.06631 0.06900
H 	H 	0.32142 0.93369 0.93369 0.06800
H 	H 	0.97699 0.44615 0.44615 0.07100
H 	H 	0.90500 0.90500 0.09500 0.10100
H 	H 	0.06631 0.18880 0.06631 0.06800
H 	H 	0.44615 0.13071 0.97699 0.07400
H 	H 	0.09500 0.90500 0.09500 0.10200
H 	H 	0.44615 0.13071 0.44615 0.07700
H 	H 	0.09500 0.90500 0.90500 0.10100
H 	H 	0.55385 0.55385 0.02301 0.07700
H 	H 	0.93369 0.32142 0.81120 0.06700
H 	H 	0.67858 0.06631 0.18880 0.06700
H 	H 	0.02301 0.55385 0.55385 0.07700
H 	H 	0.13071 0.44615 0.44615 0.07700
H 	H 	0.93369 0.93369 0.32142 0.06800
H 	H 	0.44615 0.44615 0.13071 0.07700
H 	H 	0.44615 0.97699 0.13071 0.07400
H 	H 	0.90500 0.09500 0.90500 0.10100
H 	H 	0.81120 0.93369 0.93369 0.06900
H 	H 	0.09500 0.09500 0.90500 0.10200
H 	H 	0.93369 0.81120 0.32142 0.06700
H 	H 	0.93369 0.32142 0.93369 0.06800
H 	H 	0.67858 0.18880 0.06631 0.06700
H 	H 	0.86929 0.55385 0.02301 0.07400
H 	H 	0.06631 0.18880 0.67858 0.06700
H 	H 	0.55385 0.55385 0.86929 0.07100
H 	H 	0.86929 0.55385 0.55385 0.07100
H 	H 	0.06631 0.06631 0.18880 0.06800
H 	H 	0.06631 0.67858 0.06631 0.06900
C 	C 	0.07765 0.46801 0.98633 -0.00800
C 	C 	0.40909 0.64267 0.93718 0.15600
C 	C 	0.72069 0.00000 -0.00000 0.14500
C 	C 	0.07765 0.98633 0.46801 -0.00800
C 	C 	0.64267 0.40909 0.01106 0.15500
C 	C 	0.93718 0.40909 0.64267 0.15600
C 	C 	0.96118 0.00683 0.46033 -0.02200
C 	C 	0.93718 0.64267 0.01106 0.15500
C 	C 	-0.00000 0.72069 -0.00000 0.14500
C 	C 	0.46033 0.96118 0.57166 -0.03300
C 	C 	0.96118 0.57166 0.46033 -0.03300
C 	C 	0.72170 0.20476 0.03677 -0.02300
C 	C 	0.01366 0.53199 0.92236 -0.00800
C 	C 	0.92235 0.01367 0.53199 -0.00800
C 	C 	0.96118 0.57166 0.00683 -0.02200
C 	C 	0.01366 0.92236 0.53199 -0.00800
C 	C 	0.27830 0.96323 0.79524 -0.03000
C 	C 	0.46802 0.46801 0.07764 -0.01600
C 	C 	0.20476 0.03677 0.03677 -0.02400
C 	C 	0.20476 0.03677 0.72170 -0.02300
C 	C 	0.00683 0.57166 0.46033 -0.01100
C 	C 	0.35733 0.06282 0.98894 0.15600
C 	C 	0.57166 0.96118 0.00683 -0.02200
C 	C 	0.92235 0.53199 0.01367 -0.00800
C 	C 	0.46802 0.98633 0.46801 -0.00000
C 	C 	0.72069 0.27931 -0.00000 0.13500
C 	C 	0.96118 0.46033 0.57166 -0.03300
C 	C 	0.27931 0.00000 -0.00000 0.14000
C 	C 	0.20476 0.72170 0.03677 -0.02300
C 	C 	0.42834 0.03882 0.99317 -0.02200
C 	C 	0.35733 0.98894 0.59091 0.15600
C 	C 	0.03677 0.20476 0.03677 -0.02400
C 	C 	0.99317 0.53967 0.03882 -0.02200
C 	C 	0.64267 0.93718 0.40909 0.15600
C 	C 	0.98894 0.06282 0.59091 0.15500
C 	C 	0.03677 0.72170 0.03677 -0.02500
C 	C 	0.57166 0.46033 0.00683 -0.01100
C 	C 	0.46802 0.07764 0.46801 -0.01600
C 	C 	0.99317 0.03882 0.53967 -0.02200
C 	C 	0.03882 0.53967 0.42834 -0.01100
C 	C 	0.40909 0.93718 0.64267 0.15600
C 	C 	0.06282 0.59091 0.98894 0.15500
C 	C 	0.98894 0.35733 0.59091 0.15600
C 	C 	0.72069 0.00000 0.27931 0.13500
C 	C 	0.79524 0.96323 0.27830 -0.03000
C 	C 	0.98634 0.46801 0.46801 -0.00000
C 	C 	0.57166 0.96118 0.46033 -0.03300
C 	C 	0.46033 0.00683 0.57166 -0.01100
C 	C 	0.98894 0.59091 0.35733 0.15600
C 	C 	0.40909 0.01106 0.64267 0.15500
C 	C 	0.53198 0.53199 0.01367 -0.01500
C 	C 	0.03677 0.03677 0.72170 -0.02500
C 	C 	0.35733 0.59091 0.98894 0.15600
C 	C 	0.93718 0.01106 0.64267 0.15500
C 	C 	0.01106 0.64267 0.93718 0.15500
C 	C 	0.53198 0.01367 0.53199 -0.01500
C 	C 	0.06282 0.35733 0.59091 0.15400
C 	C 	0.93718 0.01106 0.40909 0.15600
C 	C 	0.06282 0.59091 0.35733 0.15400
C 	C 	0.53198 0.92236 0.53199 -0.00100
C 	C 	0.06282 0.98894 0.59091 0.15500
C 	C 	0.96323 0.27830 0.79524 -0.03000
C 	C 	0.98634 0.07764 0.46801 -0.00800
C 	C 	0.57166 0.00683 0.96118 -0.02200
C 	C 	0.96323 0.27830 0.96323 -0.03600
C 	C 	0.59091 0.06282 0.98894 0.15500
C 	C 	0.00683 0.46033 0.96118 -0.02200
C 	C 	0.01106 0.93718 0.64267 0.15500
C 	C 	0.96323 0.79524 0.27830 -0.03000
C 	C 	0.42834 0.99317 0.03882 -0.02200
C 	C 	0.01106 0.40909 0.93718 0.15600
C 	C 	0.96118 0.00683 0.57166 -0.02200
C 	C 	0.93718 0.40909 0.01106 0.15600
C 	C 	0.64267 0.40909 0.93718 0.15600
C 	C 	0.03882 0.99317 0.53967 -0.02200
C 	C 	0.46033 0.57166 0.96118 -0.03300
C 	C 	0.57166 0.00683 0.46033 -0.01100
C 	C 	0.01366 0.53199 0.53199 -0.01500
C 	C 	0.98894 0.35733 0.06282 0.15600
C 	C 	0.53967 0.03882 0.42834 -0.01100
C 	C 	0.53967 0.03882 0.99317 -0.02200
C 	C 	0.59091 0.98894 0.35733 0.15600
C 	C 	0.96323 0.79524 0.96323 -0.04200
C 	C 	0.03677 0.72170 0.20476 -0.02300
C 	C 	0.72170 0.03677 0.03677 -0.02500
C 	C 	0.46033 0.96118 0.00683 -0.02200
C 	C 	0.96323 0.96323 0.27830 -0.03600
C 	C 	0.99317 0.03882 0.42834 -0.02200
C 	C 	0.03677 0.20476 0.72170 -0.02300
C 	C 	0.53967 0.99317 0.42834 -0.03300
C 	C 	0.07765 0.46801 0.46801 -0.01600
C 	C 	-0.00000 0.27931 -0.00000 0.14000
C 	C 	0.98894 0.06282 0.35733 0.15600
C 	C 	0.53967 0.42834 0.99317 -0.03300
C 	C 	0.99317 0.42834 0.53967 -0.03300
C 	C 	0.03882 0.53967 0.99317 -0.02200
C 	C 	0.42834 0.53967 0.03882 -0.01100
C 	C 	0.06282 0.98894 0.35733 0.15600
C 	C 	0.53198 0.01367 0.92236 -0.00800
C 	C 	0.46802 0.46801 0.98633 -0.00000
C 	C 	0.27931 0.00000 0.72069 0.13500
C 	C 	0.00000 0.27931 0.72069 0.13500
C 	C 	0.46802 0.98633 0.07764 -0.00800
C 	C 	0.64267 0.01106 0.93718 0.15500
C 	C 	0.99317 0.53967 0.42834 -0.03300
C 	C 	0.03882 0.99317 0.42834 -0.02200
C 	C 	0.42834 0.03882 0.53967 -0.01100
C 	C 	0.98634 0.46801 0.07764 -0.00800
C 	C 	-0.00000 0.72069 0.27931 0.13500
C 	C 	0.92235 0.53199 0.53199 -0.00100
C 	C 	0.42834 0.99317 0.53967 -0.03300
C 	C 	-0.00000 0.00000 0.27931 0.14000
C 	C 	0.27931 0.72069 -0.00000 0.13500
C 	C 	0.64267 0.01106 0.40909 0.15500
C 	C 	0.06282 0.35733 0.98894 0.15600
C 	C 	0.96323 0.96323 0.79524 -0.04200
C 	C 	0.99317 0.42834 0.03882 -0.02200
C 	C 	0.96118 0.46033 0.00683 -0.02200
C 	C 	0.03677 0.03677 0.20476 -0.02400
C 	C 	0.79524 0.27830 0.96323 -0.03000
C 	C 	0.01106 0.93718 0.40909 0.15600
C 	C 	0.46033 0.00683 0.96118 -0.02200
C 	C 	0.59091 0.98894 0.06282 0.15500
C 	C 	0.72170 0.03677 0.20476 -0.02300
C 	C 	0.53198 0.92236 0.01367 -0.00800
C 	C 	0.64267 0.93718 0.01106 0.15500
C 	C 	0.35733 0.59091 0.06282 0.15400
C 	C 	0.53198 0.53199 0.92236 -0.00100
C 	C 	0.42834 0.53967 0.99317 -0.03300
C 	C 	0.35733 0.98894 0.06282 0.15600
C 	C 	0.00683 0.57166 0.96118 -0.02200
C 	C 	0.59091 0.35733 0.98894 0.15600
C 	C 	0.01106 0.40909 0.64267 0.15500
C 	C 	0.79524 0.96323 0.96323 -0.04200
C 	C 	0.57166 0.46033 0.96118 -0.03300
C 	C 	0.40909 0.93718 0.01106 0.15600
C 	C 	0.00000 0.00000 0.72069 0.14500
C 	C 	0.01106 0.64267 0.40909 0.15500
C 	C 	0.59091 0.35733 0.06282 0.15400
C 	C 	0.27830 0.79524 0.96323 -0.03000
C 	C 	0.53967 0.42834 0.03882 -0.01100
C 	C 	0.03882 0.42834 0.99317 -0.02200
C 	C 	0.53967 0.99317 0.03882 -0.02200
C 	C 	0.27830 0.96323 0.96323 -0.03600
C 	C 	0.59091 0.06282 0.35733 0.15400
C 	C 	0.40909 0.01106 0.93718 0.15600
C 	C 	0.98894 0.59091 0.06282 0.15500
C 	C 	0.46033 0.57166 0.00683 -0.01100
C 	C 	0.00683 0.96118 0.57166 -0.02200
C 	C 	0.40909 0.64267 0.01106 0.15500
C 	C 	0.03882 0.42834 0.53967 -0.01100
C 	C 	0.00683 0.96118 0.46033 -0.02200
C 	C 	0.00683 0.46033 0.57166 -0.01100
C 	C 	0.93718 0.64267 0.40909 0.15600
C 	C 	0.35733 0.06282 0.59091 0.15400
C 	C 	0.46802 0.07764 0.98633 -0.00800
N 	N 	0.97727 0.20313 0.84232 -0.20600
N 	N 	0.15769 0.02272 0.02272 -0.20100
N 	N 	0.02273 0.15768 0.79687 -0.20200
N 	N 	0.65457 0.34543 -0.00000 -0.19500
N 	N 	0.20312 0.97728 0.84232 -0.20600
N 	N 	0.00000 0.65457 0.34543 -0.19500
N 	N 	0.84231 0.97728 0.97728 -0.20900
N 	N 	0.97727 0.97728 0.84232 -0.20900
N 	N 	0.97727 0.84232 0.20313 -0.20600
N 	N 	0.20312 0.97728 0.97728 -0.20700
N 	N 	0.97727 0.20313 0.97728 -0.20700
N 	N 	0.00000 0.34543 0.65457 -0.19500
N 	N 	0.97727 0.84232 0.97728 -0.20900
N 	N 	0.00000 0.00000 0.65457 -0.19500
N 	N 	0.79688 0.02272 0.02272 -0.19800
N 	N 	0.02273 0.79687 0.02272 -0.19800
N 	N 	0.65457 0.00000 -0.00000 -0.19500
N 	N 	0.34543 0.65457 -0.00000 -0.19500
N 	N 	0.20312 0.84232 0.97728 -0.20600
N 	N 	0.34543 0.00000 -0.00000 -0.19500
N 	N 	0.84231 0.97728 0.20313 -0.20600
N 	N 	0.15769 0.02272 0.79687 -0.20200
N 	N 	0.02273 0.79687 0.15768 -0.20200
N 	N 	0.34543 0.00000 0.65457 -0.19500
N 	N 	0.97727 0.97728 0.20313 -0.20700
N 	N 	0.02273 0.15768 0.02272 -0.20100
N 	N 	-0.00000 0.65457 -0.00000 -0.19500
N 	N 	0.84231 0.20313 0.97728 -0.20600
N 	N 	0.02273 0.02272 0.15768 -0.20100
N 	N 	0.79688 0.15768 0.02272 -0.20200
N 	N 	-0.00000 0.34543 -0.00000 -0.19500
N 	N 	0.79688 0.02272 0.15768 -0.20200
N 	N 	-0.00000 -0.00000 0.34543 -0.19500
N 	N 	0.02273 0.02272 0.79687 -0.19800
N 	N 	0.65457 -0.00000 0.34543 -0.19500
N 	N 	0.15769 0.79687 0.02272 -0.20200
O 	O 	0.12604 0.58187 0.31428 -0.16900
O 	O 	0.93930 0.93930 0.06070 -0.71400
O 	O 	0.87396 0.41813 0.68572 -0.17200
O 	O 	0.58187 0.12604 0.31428 -0.16900
O 	O 	0.41813 0.02219 0.68572 -0.16800
O 	O 	0.68572 0.87396 0.41813 -0.17200
O 	O 	0.68572 0.87396 0.02219 -0.16900
O 	O 	0.12604 0.58187 0.97781 -0.17100
O 	O 	0.41813 0.87396 0.68572 -0.17200
O 	O 	0.97781 0.12604 0.31428 -0.17100
O 	O 	0.58187 0.97781 0.12604 -0.17100
O 	O 	0.87396 0.41813 0.02219 -0.16900
O 	O 	0.12604 0.97781 0.31428 -0.17100
O 	O 	0.41813 0.02219 0.87396 -0.16900
O 	O 	0.68572 0.41813 0.87396 -0.17200
O 	O 	0.06070 0.06070 0.93930 -0.71000
O 	O 	0.31428 0.58187 0.97781 -0.17200
O 	O 	0.58187 0.31428 0.97781 -0.17200
O 	O 	0.31428 0.97781 0.12604 -0.17100
O 	O 	0.06070 0.93930 0.93930 -0.71400
O 	O 	0.87396 0.68572 0.41813 -0.17200
O 	O 	0.97781 0.58187 0.31428 -0.17200
O 	O 	0.97781 0.31428 0.58187 -0.17200
O 	O 	0.41813 0.68572 0.87396 -0.17200
O 	O 	0.68572 0.41813 0.02219 -0.16800
O 	O 	0.87396 0.68572 0.02219 -0.16900
O 	O 	0.31428 0.58187 0.12604 -0.16900
O 	O 	0.58187 0.31428 0.12604 -0.16900
O 	O 	0.12604 0.97781 0.58187 -0.17100
O 	O 	0.12604 0.31428 0.97781 -0.17100
O 	O 	0.02219 0.41813 0.87396 -0.16900
O 	O 	0.58187 0.97781 0.31428 -0.17200
O 	O 	0.12604 0.31428 0.58187 -0.16900
O 	O 	0.02219 0.68572 0.41813 -0.16800
O 	O 	0.93930 0.06070 0.93930 -0.71400
O 	O 	0.87396 0.02219 0.68572 -0.16900
O 	O 	0.97781 0.12604 0.58187 -0.17100
O 	O 	0.02219 0.87396 0.68572 -0.16900
O 	O 	0.68572 0.02219 0.87396 -0.16900
O 	O 	0.41813 0.68572 0.02219 -0.16800
O 	O 	0.31428 0.12604 0.97781 -0.17100
O 	O 	0.97781 0.58187 0.12604 -0.17100
O 	O 	0.06070 0.93930 0.06070 -0.71000
O 	O 	0.31428 0.12604 0.58187 -0.16900
O 	O 	0.58187 0.12604 0.97781 -0.17100
O 	O 	0.97781 0.31428 0.12604 -0.17100
O 	O 	0.93930 0.06070 0.06070 -0.71000
O 	O 	0.87396 0.02219 0.41813 -0.16900
O 	O 	0.31428 0.97781 0.58187 -0.17200
O 	O 	0.68572 0.02219 0.41813 -0.16800
O 	O 	0.02219 0.68572 0.87396 -0.16900
O 	O 	0.41813 0.87396 0.02219 -0.16900
O 	O 	0.02219 0.41813 0.68572 -0.16800
O 	O 	0.02219 0.87396 0.41813 -0.16900
