data_crystal

_cell_length_a 15.39440
_cell_length_b 15.39440
_cell_length_c 15.39440
_cell_angle_alpha 90.00000
_cell_angle_beta  90.00000
_cell_angle_gamma 90.00000

_symmetry_space_group_name_	'P 1'
_symmetry_space_group_name_H-M	'P 1'

loop_
_symmetry_equiv_pos_as_xyz
  x,y,z

loop_
_atom_site_label
_atom_site_type_symbol
_atom_site_fract_x
_atom_site_fract_y
_atom_site_fract_z
_atom_site_charge
C 	C 	0.34085 0.76983 0.76983 0.06100
C 	C 	0.69611 0.69611 0.80661 -0.07600
C 	C 	0.30389 0.80661 0.69611 -0.09900
C 	C 	0.30389 0.69611 0.80661 -0.09900
C 	C 	0.30389 0.19339 0.30389 -0.16200
C 	C 	0.88314 0.34677 0.34677 0.39200
C 	C 	0.30389 0.80661 0.30389 -0.12300
C 	C 	0.76983 0.23017 0.34085 0.07300
C 	C 	0.80661 0.69611 0.69611 -0.07700
C 	C 	0.30389 0.19339 0.69611 -0.14100
C 	C 	0.65915 0.23017 0.76983 0.06400
C 	C 	0.34085 0.76983 0.23017 0.07300
C 	C 	0.34677 0.65323 0.88314 0.38800
C 	C 	0.19339 0.69611 0.30389 -0.14100
C 	C 	0.34677 0.65323 0.11686 0.39800
C 	C 	0.19339 0.30389 0.30389 -0.16300
C 	C 	0.80661 0.69611 0.30389 -0.10000
C 	C 	0.23017 0.76983 0.65915 0.06400
C 	C 	0.30389 0.69611 0.19339 -0.14100
C 	C 	0.23017 0.76983 0.34085 0.07300
C 	C 	0.34677 0.34677 0.11686 0.40000
C 	C 	0.76983 0.76983 0.65915 0.05000
C 	C 	0.69611 0.69611 0.19339 -0.11800
C 	C 	0.34085 0.23017 0.76983 0.07300
C 	C 	0.19339 0.69611 0.69611 -0.11800
C 	C 	0.76983 0.65915 0.76983 0.05000
C 	C 	0.65323 0.11686 0.34677 0.39800
C 	C 	0.88314 0.65323 0.65323 0.38600
C 	C 	0.65323 0.34677 0.88314 0.38800
C 	C 	0.23017 0.65915 0.23017 0.07700
C 	C 	0.34677 0.34677 0.88314 0.39100
C 	C 	0.69611 0.80661 0.30389 -0.10000
C 	C 	0.23017 0.23017 0.65915 0.07700
C 	C 	0.65323 0.65323 0.88314 0.38600
C 	C 	0.11686 0.65323 0.65323 0.39500
C 	C 	0.19339 0.30389 0.69611 -0.14100
C 	C 	0.30389 0.30389 0.80661 -0.12300
C 	C 	0.65323 0.65323 0.11686 0.39500
C 	C 	0.34677 0.11686 0.65323 0.39800
C 	C 	0.65915 0.23017 0.23017 0.07700
C 	C 	0.69611 0.30389 0.80661 -0.10000
C 	C 	0.65915 0.76983 0.76983 0.05000
C 	C 	0.11686 0.34677 0.65323 0.39800
C 	C 	0.65323 0.34677 0.11686 0.39800
C 	C 	0.11686 0.65323 0.34677 0.39800
C 	C 	0.11686 0.34677 0.34677 0.40000
C 	C 	0.76983 0.34085 0.76983 0.06000
C 	C 	0.65323 0.88314 0.65323 0.38600
C 	C 	0.23017 0.34085 0.76983 0.07300
C 	C 	0.69611 0.19339 0.69611 -0.11800
C 	C 	0.69611 0.80661 0.69611 -0.07700
C 	C 	0.23017 0.23017 0.34085 0.08600
C 	C 	0.88314 0.34677 0.65323 0.38800
C 	C 	0.65915 0.76983 0.23017 0.06400
C 	C 	0.69611 0.30389 0.19339 -0.14100
C 	C 	0.34677 0.88314 0.65323 0.38800
C 	C 	0.76983 0.34085 0.23017 0.07300
C 	C 	0.88314 0.65323 0.34677 0.38800
C 	C 	0.76983 0.23017 0.65915 0.06400
C 	C 	0.23017 0.65915 0.76983 0.06400
C 	C 	0.34677 0.88314 0.34677 0.39100
C 	C 	0.65323 0.11686 0.65323 0.39500
C 	C 	0.30389 0.30389 0.19339 -0.16300
C 	C 	0.34085 0.23017 0.23017 0.08600
C 	C 	0.76983 0.76983 0.34085 0.06000
C 	C 	0.80661 0.30389 0.30389 -0.12300
C 	C 	0.65323 0.88314 0.34677 0.38800
C 	C 	0.69611 0.19339 0.30389 -0.14100
C 	C 	0.76983 0.65915 0.23017 0.06400
C 	C 	0.23017 0.34085 0.23017 0.08600
C 	C 	0.80661 0.30389 0.69611 -0.10000
C 	C 	0.34677 0.11686 0.34677 0.40000
Cl	Cl	0.50000 0.00000 0.50000 -0.75200
Cl	Cl	0.50000 0.50000 -0.00000 -0.75200
Cl	Cl	-0.00000 0.50000 0.50000 -0.75200
Cu	Cu	0.33514 0.50000 -0.00000 0.90800
Cu	Cu	-0.00000 0.33514 0.50000 0.90800
Cu	Cu	0.00000 0.50000 0.33514 0.90800
Cu	Cu	0.50000 0.66486 -0.00000 0.91200
Cu	Cu	0.50000 0.33514 -0.00000 0.90800
Cu	Cu	0.00000 0.50000 0.66486 0.91200
Cu	Cu	0.66486 0.00000 0.50000 0.91200
Cu	Cu	0.66486 0.50000 -0.00000 0.91200
Cu	Cu	0.50000 0.00000 0.66486 0.91200
Cu	Cu	0.00000 0.66486 0.50000 0.91200
Cu	Cu	0.50000 0.00000 0.33514 0.90800
Cu	Cu	0.33514 0.00000 0.50000 0.90800
H 	H 	0.39020 0.79450 0.79450 0.06600
H 	H 	0.20550 0.60980 0.79450 0.05000
H 	H 	0.79450 0.39020 0.79450 0.06600
H 	H 	0.39020 0.20550 0.79450 0.04300
H 	H 	0.60980 0.79450 0.79450 0.07300
H 	H 	0.20550 0.39020 0.20550 0.01900
H 	H 	0.20550 0.20550 0.60980 0.02600
H 	H 	0.39020 0.79450 0.20550 0.04300
H 	H 	0.20550 0.39020 0.79450 0.04300
H 	H 	0.20550 0.60980 0.20550 0.02600
H 	H 	0.79450 0.79450 0.60980 0.07300
H 	H 	0.79450 0.20550 0.60980 0.05000
H 	H 	0.20550 0.79450 0.39020 0.04300
H 	H 	0.60980 0.20550 0.79450 0.05000
H 	H 	0.39020 0.20550 0.20550 0.01900
H 	H 	0.79450 0.79450 0.39020 0.06600
H 	H 	0.79450 0.60980 0.79450 0.07300
H 	H 	0.79450 0.20550 0.39020 0.04300
H 	H 	0.20550 0.79450 0.60980 0.05000
H 	H 	0.79450 0.60980 0.20550 0.05000
H 	H 	0.79450 0.39020 0.20550 0.04300
H 	H 	0.20550 0.20550 0.39020 0.01900
H 	H 	0.60980 0.79450 0.20550 0.05000
H 	H 	0.60980 0.20550 0.20550 0.02600
O 	O 	0.58520 0.68796 0.91040 -0.31900
O 	O 	0.91040 0.31204 0.58520 -0.33300
O 	O 	0.91040 0.68796 0.41480 -0.32400
O 	O 	0.68796 0.91040 0.58520 -0.31900
O 	O 	0.08960 0.41480 0.31204 -0.42900
O 	O 	0.31204 0.08960 0.58520 -0.42500
O 	O 	0.68796 0.41480 0.08960 -0.41500
O 	O 	0.08960 0.68796 0.41480 -0.41500
O 	O 	0.41480 0.68796 0.91040 -0.32400
O 	O 	0.31204 0.58520 0.91040 -0.33300
O 	O 	0.08960 0.58520 0.31204 -0.42500
O 	O 	0.58520 0.08960 0.31204 -0.42500
O 	O 	0.41480 0.91040 0.31204 -0.33800
O 	O 	0.41480 0.08960 0.31204 -0.42900
O 	O 	0.31204 0.08960 0.41480 -0.42900
O 	O 	0.58520 0.31204 0.91040 -0.33300
O 	O 	0.58520 0.31204 0.08960 -0.42500
O 	O 	0.31204 0.41480 0.91040 -0.33800
O 	O 	0.58520 0.08960 0.68796 -0.41100
O 	O 	0.68796 0.58520 0.91040 -0.31900
O 	O 	0.41480 0.08960 0.68796 -0.41500
O 	O 	0.08960 0.41480 0.68796 -0.41500
O 	O 	0.08960 0.31204 0.58520 -0.42500
O 	O 	0.68796 0.08960 0.58520 -0.41100
O 	O 	0.58520 0.91040 0.68796 -0.31900
O 	O 	0.91040 0.31204 0.41480 -0.33800
O 	O 	0.41480 0.91040 0.68796 -0.32400
O 	O 	0.91040 0.58520 0.31204 -0.33300
O 	O 	0.08960 0.68796 0.58520 -0.41100
O 	O 	0.68796 0.91040 0.41480 -0.32400
O 	O 	0.41480 0.68796 0.08960 -0.41500
O 	O 	0.68796 0.58520 0.08960 -0.41100
O 	O 	0.91040 0.41480 0.31204 -0.33800
O 	O 	0.58520 0.68796 0.08960 -0.41100
O 	O 	0.31204 0.91040 0.41480 -0.33800
O 	O 	0.58520 0.91040 0.31204 -0.33300
O 	O 	0.31204 0.58520 0.08960 -0.42500
O 	O 	0.41480 0.31204 0.08960 -0.42900
O 	O 	0.31204 0.41480 0.08960 -0.42900
O 	O 	0.91040 0.41480 0.68796 -0.32400
O 	O 	0.91040 0.58520 0.68796 -0.31900
O 	O 	0.08960 0.31204 0.41480 -0.42900
O 	O 	0.68796 0.08960 0.41480 -0.41500
O 	O 	0.91040 0.68796 0.58520 -0.31900
O 	O 	0.08960 0.58520 0.68796 -0.41100
O 	O 	0.41480 0.31204 0.91040 -0.33800
O 	O 	0.68796 0.41480 0.91040 -0.32400
O 	O 	0.31204 0.91040 0.58520 -0.33300
