data_crystal

_cell_length_a 10.97330
_cell_length_b 10.97330
_cell_length_c 13.56400
_cell_angle_alpha 90.00000
_cell_angle_beta  90.00000
_cell_angle_gamma 106.26600

_symmetry_space_group_name_	'P 1'
_symmetry_space_group_name_H-M	'P 1'

loop_
_symmetry_equiv_pos_as_xyz
  x,y,z

loop_
_atom_site_label
_atom_site_type_symbol
_atom_site_fract_x
_atom_site_fract_y
_atom_site_fract_z
_atom_site_charge
Ca	Ca	0.67476 0.32524 0.75000 1.52100
Ca	Ca	0.32524 0.67476 0.25000 1.52100
Zn	Zn	0.80210 0.59270 0.92918 1.20000
Zn	Zn	0.40730 0.19790 0.57082 1.20000
Zn	Zn	0.19790 0.40730 0.42918 1.20000
Zn	Zn	0.59270 0.80210 0.07082 1.20000
H 	H 	0.31730 0.10590 0.25980 -0.00700
H 	H 	0.43800 0.86680 0.53450 -0.01200
H 	H 	0.47320 0.44440 0.12940 -0.00100
H 	H 	0.13320 0.56200 0.96550 -0.01200
H 	H 	0.52680 0.55560 0.62940 -0.00200
H 	H 	0.55560 0.52680 0.37060 -0.00200
H 	H 	0.10590 0.31730 0.74020 -0.00800
H 	H 	0.56200 0.13320 0.03450 -0.01200
H 	H 	0.89410 0.68270 0.24020 -0.00800
H 	H 	0.86680 0.43800 0.46550 -0.01300
H 	H 	0.68270 0.89410 0.75980 -0.00800
H 	H 	0.44440 0.47320 0.87060 -0.00100
C 	C 	0.03730 0.55990 0.33830 0.50300
C 	C 	0.51830 0.17150 0.07800 0.14100
C 	C 	0.53094 0.30006 0.07050 -0.19800
C 	C 	0.61931 0.37429 0.99330 0.43200
C 	C 	0.62850 0.84530 0.71300 0.13800
C 	C 	0.38069 0.62571 0.49330 0.43400
C 	C 	0.96270 0.44010 0.83830 0.50400
C 	C 	0.55990 0.03730 0.66170 0.50300
C 	C 	0.17150 0.51830 0.92200 0.14100
C 	C 	0.15470 0.37150 0.78700 0.13800
C 	C 	0.65164 0.68676 0.22710 0.43300
C 	C 	0.31324 0.34836 0.27290 0.43300
C 	C 	0.69994 0.46906 0.42950 -0.20100
C 	C 	0.38430 0.28510 0.20490 -0.20300
C 	C 	0.46422 0.35778 0.13420 0.13500
C 	C 	0.62571 0.38069 0.50670 0.43400
C 	C 	0.55870 0.90090 0.64980 -0.22800
C 	C 	0.30006 0.53094 0.92950 -0.19800
C 	C 	0.82850 0.48170 0.42200 0.14200
C 	C 	0.34836 0.31324 0.72710 0.43300
C 	C 	0.64222 0.53578 0.36580 0.13600
C 	C 	0.44130 0.09910 0.14980 -0.22700
C 	C 	0.48170 0.82850 0.57800 0.14200
C 	C 	0.09910 0.44130 0.85020 -0.22700
C 	C 	0.37150 0.15470 0.21300 0.13800
C 	C 	0.44010 0.96270 0.16170 0.50400
C 	C 	0.71490 0.61570 0.29510 -0.20300
C 	C 	0.61570 0.71490 0.70490 -0.20300
C 	C 	0.35778 0.46422 0.86580 0.13500
C 	C 	0.53578 0.64222 0.63420 0.13600
C 	C 	0.90090 0.55870 0.35020 -0.22800
C 	C 	0.46906 0.69994 0.57050 -0.20100
C 	C 	0.37429 0.61931 0.00670 0.43200
C 	C 	0.84530 0.62850 0.28700 0.13800
C 	C 	0.68676 0.65164 0.77290 0.43300
C 	C 	0.28510 0.38430 0.79510 -0.20300
O 	O 	0.46047 0.31599 0.73966 -0.52500
O 	O 	0.36585 0.89273 0.21997 -0.49300
O 	O 	0.49188 0.66660 0.98912 -0.50300
O 	O 	0.31792 0.64330 0.08062 -0.48900
O 	O 	0.50812 0.33340 0.48912 -0.50500
O 	O 	0.68208 0.35670 0.58062 -0.48900
O 	O 	0.25185 0.28415 0.34460 -0.51400
O 	O 	0.33340 0.50812 0.51088 -0.50500
O 	O 	0.31599 0.46047 0.26034 -0.52500
O 	O 	0.71585 0.74815 0.15540 -0.51400
O 	O 	0.66660 0.49188 0.01088 -0.50300
O 	O 	0.64330 0.31792 0.91938 -0.48900
O 	O 	0.28415 0.25185 0.65540 -0.51400
O 	O 	0.35670 0.68208 0.41938 -0.48900
O 	O 	0.08133 0.50851 0.40125 -0.53300
O 	O 	0.05866 0.46020 0.38363 -0.03500
O 	O 	0.50851 0.08133 0.59875 -0.53300
O 	O 	0.53953 0.68401 0.23966 -0.52500
O 	O 	0.74815 0.71585 0.84460 -0.51400
O 	O 	0.49149 0.91867 0.09875 -0.53700
O 	O 	0.10727 0.63415 0.28003 -0.49300
O 	O 	0.89273 0.36585 0.78003 -0.49300
O 	O 	0.91867 0.49149 0.90125 -0.53700
O 	O 	0.46020 0.05866 0.61637 -0.03500
O 	O 	0.94134 0.53980 0.88363 -0.03200
O 	O 	0.53980 0.94134 0.11637 -0.03200
O 	O 	0.68401 0.53953 0.76034 -0.52500
O 	O 	0.63415 0.10727 0.71997 -0.49300
