data_crystal

_cell_length_a 29.91540
_cell_length_b 29.91540
_cell_length_c 29.91540
_cell_angle_alpha 60.00000
_cell_angle_beta  60.00000
_cell_angle_gamma 60.00000

_symmetry_space_group_name_	'P 1'
_symmetry_space_group_name_H-M	'P 1'

loop_
_symmetry_equiv_pos_as_xyz
  x,y,z

loop_
_atom_site_label
_atom_site_type_symbol
_atom_site_fract_x
_atom_site_fract_y
_atom_site_fract_z
_atom_site_charge
Co	Co	0.26519 0.01149 0.73481 1.13200
Co	Co	0.63829 0.36171 0.01275 1.13800
Co	Co	0.01275 0.36171 0.98725 1.13800
Co	Co	0.01275 0.98725 0.63829 1.13800
Co	Co	0.01275 0.63829 0.36171 1.13800
Co	Co	0.01149 0.73481 0.26519 1.13200
Co	Co	0.98725 0.36171 0.63829 1.13800
Co	Co	0.36171 0.98725 0.01275 1.13800
Co	Co	0.01149 0.26519 0.98851 1.13200
Co	Co	0.98725 0.01275 0.36171 1.13800
Co	Co	0.73481 0.01149 0.98851 1.13200
Co	Co	0.73481 0.98851 0.26519 1.13200
Co	Co	0.73481 0.26519 0.01149 1.13200
Co	Co	0.63829 0.01275 0.98725 1.13800
Co	Co	0.98851 0.26519 0.73481 1.13200
Co	Co	0.26519 0.73481 0.98851 1.13200
Co	Co	0.36171 0.63829 0.98725 1.13800
Co	Co	0.63829 0.98725 0.36171 1.13800
Co	Co	0.98851 0.73481 0.01149 1.13200
Co	Co	0.98851 0.01149 0.26519 1.13200
Co	Co	0.01149 0.98851 0.73481 1.13200
Co	Co	0.98725 0.63829 0.01275 1.13800
Co	Co	0.36171 0.01275 0.63829 1.13800
Co	Co	0.26519 0.98851 0.01149 1.13200
H 	H 	0.98490 0.15950 0.67710 0.05500
H 	H 	0.30070 0.18450 0.55030 0.10700
H 	H 	0.83720 0.01580 0.68840 0.08100
H 	H 	0.24290 0.97970 0.30970 0.13700
H 	H 	0.16280 0.54140 0.98420 0.08100
H 	H 	0.67710 0.98490 0.15950 0.05500
H 	H 	0.26330 0.94810 0.38350 0.03200
H 	H 	0.96450 0.55030 0.18450 0.10800
H 	H 	0.75710 0.69030 0.53230 0.13700
H 	H 	0.03550 0.69930 0.44970 0.10800
H 	H 	0.69930 0.81550 0.44970 0.10700
H 	H 	0.69930 0.03550 0.81550 0.10800
H 	H 	0.84050 0.32290 0.01510 0.05500
H 	H 	0.30070 0.96450 0.18450 0.10800
H 	H 	0.31160 0.16280 0.98420 0.08100
H 	H 	0.81550 0.03550 0.44970 0.10800
H 	H 	0.69030 0.53230 0.75710 0.13700
H 	H 	0.69030 0.75710 0.02030 0.13700
H 	H 	0.30970 0.24290 0.97970 0.13700
H 	H 	0.45860 0.68840 0.01580 0.08100
H 	H 	0.05190 0.59490 0.61650 0.03200
H 	H 	0.67710 0.15950 0.17850 0.05500
H 	H 	0.16280 0.98420 0.31160 0.08100
H 	H 	0.61650 0.59490 0.73670 0.03200
H 	H 	0.40510 0.38350 0.94810 0.03200
H 	H 	0.24290 0.30970 0.46770 0.13700
H 	H 	0.98490 0.17850 0.15950 0.05500
H 	H 	0.73670 0.59490 0.05190 0.03200
H 	H 	0.75710 0.02030 0.69030 0.13700
H 	H 	0.84050 0.01510 0.82150 0.05500
H 	H 	0.15950 0.17850 0.67710 0.05500
H 	H 	0.97970 0.24290 0.46770 0.13700
H 	H 	0.02030 0.75710 0.53230 0.13700
H 	H 	0.01510 0.82150 0.84050 0.05500
H 	H 	0.01580 0.68840 0.83720 0.08100
H 	H 	0.96450 0.18450 0.30070 0.10800
H 	H 	0.55030 0.30070 0.18450 0.10700
H 	H 	0.69030 0.02030 0.53230 0.13700
H 	H 	0.17850 0.67710 0.15950 0.05500
H 	H 	0.69930 0.44970 0.03550 0.10800
H 	H 	0.30070 0.55030 0.96450 0.10800
H 	H 	0.18450 0.96450 0.55030 0.10800
H 	H 	0.98420 0.54140 0.31160 0.08100
H 	H 	0.18450 0.30070 0.96450 0.10800
H 	H 	0.82150 0.84050 0.01510 0.05500
H 	H 	0.96450 0.30070 0.55030 0.10800
H 	H 	0.40510 0.26330 0.38350 0.03200
H 	H 	0.03550 0.44970 0.81550 0.10800
H 	H 	0.05190 0.61650 0.73670 0.03200
H 	H 	0.32290 0.01510 0.84050 0.05500
H 	H 	0.68840 0.01580 0.45860 0.08100
H 	H 	0.46770 0.97970 0.24290 0.13700
H 	H 	0.68840 0.45860 0.83720 0.08100
H 	H 	0.97970 0.46770 0.30970 0.13700
H 	H 	0.61650 0.73670 0.05190 0.03100
H 	H 	0.30970 0.46770 0.24290 0.13600
H 	H 	0.26330 0.38350 0.40510 0.03100
H 	H 	0.01580 0.83720 0.45860 0.08000
H 	H 	0.68840 0.83720 0.01580 0.08000
H 	H 	0.61650 0.05190 0.59490 0.03100
H 	H 	0.67710 0.17850 0.98490 0.05400
H 	H 	0.59490 0.05190 0.73670 0.03100
H 	H 	0.75710 0.53230 0.02030 0.13600
H 	H 	0.17850 0.15950 0.98490 0.05400
H 	H 	0.15950 0.67710 0.98490 0.05400
H 	H 	0.59490 0.73670 0.61650 0.03100
H 	H 	0.38350 0.94810 0.40510 0.03100
H 	H 	0.81550 0.44970 0.69930 0.10600
H 	H 	0.53230 0.69030 0.02030 0.13600
H 	H 	0.94810 0.40510 0.38350 0.03100
H 	H 	0.94810 0.38350 0.26330 0.03100
H 	H 	0.44970 0.03550 0.69930 0.10700
H 	H 	0.81550 0.69930 0.03550 0.10700
H 	H 	0.40510 0.94810 0.26330 0.03100
H 	H 	0.98490 0.67710 0.17850 0.05400
H 	H 	0.01580 0.45860 0.68840 0.08000
H 	H 	0.38350 0.26330 0.94810 0.03100
H 	H 	0.54140 0.16280 0.31160 0.08000
H 	H 	0.26330 0.40510 0.94810 0.03100
H 	H 	0.15950 0.98490 0.17850 0.05400
H 	H 	0.73670 0.61650 0.59490 0.03100
H 	H 	0.32290 0.84050 0.82150 0.05400
H 	H 	0.94810 0.26330 0.40510 0.03100
H 	H 	0.55030 0.96450 0.30070 0.10700
H 	H 	0.53230 0.02030 0.75710 0.13600
H 	H 	0.59490 0.61650 0.05190 0.03100
H 	H 	0.02030 0.69030 0.75710 0.13600
H 	H 	0.73670 0.05190 0.61650 0.03100
H 	H 	0.45860 0.01580 0.83720 0.08000
H 	H 	0.01510 0.32290 0.82150 0.05400
H 	H 	0.46770 0.24290 0.30970 0.13600
H 	H 	0.98420 0.16280 0.54140 0.08000
H 	H 	0.31160 0.54140 0.16280 0.08000
H 	H 	0.44970 0.69930 0.81550 0.10600
H 	H 	0.24290 0.46770 0.97970 0.13600
H 	H 	0.82150 0.01510 0.32290 0.05400
H 	H 	0.32290 0.82150 0.01510 0.05400
H 	H 	0.98420 0.31160 0.16280 0.08000
H 	H 	0.31160 0.98420 0.54140 0.08000
H 	H 	0.46770 0.30970 0.97970 0.13600
H 	H 	0.18450 0.55030 0.30070 0.10600
H 	H 	0.55030 0.18450 0.96450 0.10700
H 	H 	0.54140 0.98420 0.16280 0.08000
H 	H 	0.82150 0.32290 0.84050 0.05400
H 	H 	0.54140 0.31160 0.98420 0.08000
H 	H 	0.45860 0.83720 0.68840 0.08000
H 	H 	0.01510 0.84050 0.32290 0.05400
H 	H 	0.97970 0.30970 0.24290 0.13600
H 	H 	0.44970 0.81550 0.03550 0.10700
H 	H 	0.03550 0.81550 0.69930 0.10700
H 	H 	0.02030 0.53230 0.69030 0.13600
H 	H 	0.17850 0.98490 0.67710 0.05400
H 	H 	0.84050 0.82150 0.32290 0.05400
H 	H 	0.53230 0.75710 0.69030 0.13600
H 	H 	0.83720 0.45860 0.01580 0.08000
H 	H 	0.83720 0.68840 0.45860 0.08000
H 	H 	0.16280 0.31160 0.54140 0.08000
H 	H 	0.38350 0.40510 0.26330 0.03100
H 	H 	0.30970 0.97970 0.46770 0.13600
H 	H 	0.05190 0.73670 0.59490 0.03100
C 	C 	0.23473 0.97483 0.17227 -0.04300
C 	C 	0.82130 0.35770 0.01810 -0.00700
C 	C 	0.38183 0.02517 0.76527 -0.04300
C 	C 	0.56160 0.27700 0.98060 -0.10000
C 	C 	0.09089 0.99529 0.27671 0.38700
C 	C 	0.03070 0.43370 0.79910 -0.10700
C 	C 	0.01810 0.80290 0.82130 -0.00700
C 	C 	0.63040 0.70200 0.04940 0.03600
C 	C 	0.03070 0.73650 0.43370 -0.10700
C 	C 	0.73650 0.43370 0.03070 -0.10700
C 	C 	0.29800 0.95060 0.36960 0.03600
C 	C 	0.05130 0.54090 0.72490 0.27100
C 	C 	0.38635 0.01535 0.84825 -0.05300
C 	C 	0.36289 0.72329 0.00471 0.38700
C 	C 	0.00471 0.72329 0.90911 0.38700
C 	C 	0.36960 0.29800 0.95060 0.03600
C 	C 	0.02517 0.38183 0.82773 -0.04300
C 	C 	0.98465 0.61365 0.24995 -0.05300
C 	C 	0.61817 0.17227 0.97483 -0.04300
C 	C 	0.94870 0.45910 0.27510 0.27100
C 	C 	0.76527 0.82773 0.38183 -0.04300
C 	C 	0.75005 0.38635 0.84825 -0.05300
C 	C 	0.23670 0.53950 0.97110 0.14400
C 	C 	0.00471 0.36289 0.72329 0.38700
C 	C 	0.46050 0.02890 0.76330 0.14400
C 	C 	0.95230 0.40250 0.31510 -0.10200
C 	C 	0.68490 0.59750 0.66990 -0.10200
C 	C 	0.19710 0.64230 0.17870 -0.00700
C 	C 	0.02890 0.76330 0.46050 0.14400
C 	C 	0.82773 0.02517 0.38183 -0.04300
C 	C 	0.76527 0.38183 0.02517 -0.04300
C 	C 	0.04940 0.70200 0.61820 0.03600
C 	C 	0.33010 0.31510 0.40250 -0.10200
C 	C 	0.27510 0.31710 0.94870 0.27100
C 	C 	0.61820 0.63040 0.04940 0.03600
C 	C 	0.17227 0.23473 0.97483 -0.04300
C 	C 	0.27700 0.18080 0.98060 -0.10000
C 	C 	0.25270 0.23670 0.97110 0.14400
C 	C 	0.99529 0.63711 0.27671 0.38700
C 	C 	0.45910 0.31710 0.27510 0.27100
C 	C 	0.04940 0.61820 0.63040 0.03600
C 	C 	0.09089 0.27671 0.63711 0.38700
C 	C 	0.24995 0.61365 0.15175 -0.05300
C 	C 	0.72329 0.36289 0.90911 0.38700
C 	C 	0.96930 0.56630 0.20090 -0.10700
C 	C 	0.97483 0.17227 0.23473 -0.04300
C 	C 	0.56630 0.96930 0.26350 -0.10700
C 	C 	0.68290 0.72490 0.54090 0.27100
C 	C 	0.73630 0.02510 0.88610 0.36600
C 	C 	0.38180 0.36960 0.95060 0.03600
C 	C 	0.04770 0.66990 0.59750 -0.10200
C 	C 	0.56160 0.98060 0.18080 -0.10000
C 	C 	0.76330 0.02890 0.74730 0.14400
C 	C 	0.20090 0.96930 0.56630 -0.10700
C 	C 	0.02510 0.73630 0.35250 0.36600
C 	C 	0.01940 0.72300 0.81920 -0.10000
C 	C 	0.26370 0.11390 0.64750 0.36600
C 	C 	0.64750 0.26370 0.11390 0.36600
C 	C 	0.01810 0.82130 0.35770 -0.00700
C 	C 	0.63040 0.04940 0.61820 0.03600
C 	C 	0.64230 0.17870 0.19710 -0.00700
C 	C 	0.97483 0.23473 0.61817 -0.04300
C 	C 	0.09089 0.63711 0.99529 0.38700
C 	C 	0.73650 0.03070 0.79910 -0.10700
C 	C 	0.74730 0.46050 0.76330 0.14400
C 	C 	0.98060 0.27700 0.18080 -0.10000
C 	C 	0.95060 0.38180 0.36960 0.03600
C 	C 	0.94870 0.31710 0.45910 0.27100
C 	C 	0.38635 0.75005 0.01535 -0.05300
C 	C 	0.20090 0.56630 0.26350 -0.10700
C 	C 	0.31710 0.27510 0.45910 0.27100
C 	C 	0.94870 0.27510 0.31710 0.27100
C 	C 	0.90911 0.72329 0.36289 0.38700
C 	C 	0.18080 0.98060 0.27700 -0.10000
C 	C 	0.35250 0.02510 0.73630 0.36600
C 	C 	0.35250 0.88610 0.02510 0.36600
C 	C 	0.54090 0.72490 0.05130 0.27100
C 	C 	0.72300 0.43840 0.81920 -0.10000
C 	C 	0.64750 0.11390 0.97490 0.36600
C 	C 	0.43370 0.03070 0.73650 -0.10700
C 	C 	0.25270 0.53950 0.23670 0.14400
C 	C 	0.19710 0.17870 0.98190 -0.00700
C 	C 	0.68490 0.66990 0.04770 -0.10200
C 	C 	0.88610 0.35250 0.73630 0.36600
C 	C 	0.35770 0.80290 0.01810 -0.00700
C 	C 	0.31510 0.95230 0.40250 -0.10200
C 	C 	0.72300 0.01940 0.43840 -0.10000
C 	C 	0.01940 0.81920 0.43840 -0.10000
C 	C 	0.61820 0.70200 0.63040 0.03600
C 	C 	0.56160 0.18080 0.27700 -0.10000
C 	C 	0.70200 0.61820 0.04940 0.03600
C 	C 	0.26370 0.64750 0.97490 0.36600
C 	C 	0.04770 0.59750 0.68490 -0.10200
C 	C 	0.02510 0.35250 0.88610 0.36600
C 	C 	0.63711 0.99529 0.09089 0.38700
C 	C 	0.95060 0.36960 0.29800 0.03600
C 	C 	0.01535 0.84825 0.38635 -0.05300
C 	C 	0.73630 0.88610 0.35250 0.36600
C 	C 	0.97490 0.11390 0.26370 0.36600
C 	C 	0.90911 0.36289 0.00471 0.38700
C 	C 	0.75005 0.84825 0.01535 -0.05300
C 	C 	0.27671 0.99529 0.63711 0.38700
C 	C 	0.35770 0.01810 0.82130 -0.00700
C 	C 	0.98465 0.24995 0.15175 -0.05300
C 	C 	0.82130 0.80290 0.35770 -0.00700
C 	C 	0.38183 0.76527 0.82773 -0.04300
C 	C 	0.17870 0.19710 0.64230 -0.00700
C 	C 	0.97490 0.26370 0.64750 0.36600
C 	C 	0.63040 0.61820 0.70200 0.03600
C 	C 	0.72490 0.05130 0.54090 0.27100
C 	C 	0.38180 0.95060 0.29800 0.03600
C 	C 	0.64230 0.98190 0.17870 -0.00700
C 	C 	0.81920 0.72300 0.43840 -0.10000
C 	C 	0.98190 0.19710 0.17870 -0.00700
C 	C 	0.23670 0.97110 0.25270 0.14400
C 	C 	0.84825 0.38635 0.01535 -0.05300
C 	C 	0.61365 0.98465 0.15175 -0.05300
C 	C 	0.97490 0.64750 0.11390 0.36600
C 	C 	0.45910 0.94870 0.31710 0.27100
C 	C 	0.73650 0.79910 0.43370 -0.10700
C 	C 	0.90911 0.00471 0.72329 0.38700
C 	C 	0.99529 0.09089 0.63711 0.38700
C 	C 	0.24995 0.98465 0.61365 -0.05300
C 	C 	0.03070 0.79910 0.73650 -0.10700
C 	C 	0.24995 0.15175 0.98465 -0.05300
C 	C 	0.66990 0.68490 0.59750 -0.10200
C 	C 	0.97110 0.25270 0.23670 0.14400
C 	C 	0.56630 0.26350 0.20090 -0.10700
C 	C 	0.72300 0.81920 0.01940 -0.10000
C 	C 	0.00471 0.90911 0.36289 0.38700
C 	C 	0.01535 0.75005 0.84825 -0.05300
C 	C 	0.70200 0.04940 0.63040 0.03600
C 	C 	0.73630 0.35250 0.02510 0.36600
C 	C 	0.01535 0.38635 0.75005 -0.05300
C 	C 	0.43840 0.81920 0.72300 -0.10000
C 	C 	0.95230 0.33010 0.40250 -0.10200
C 	C 	0.97110 0.53950 0.25270 0.14400
C 	C 	0.76330 0.46050 0.02890 0.14400
C 	C 	0.05130 0.72490 0.68290 0.27100
C 	C 	0.18080 0.27700 0.56160 -0.10000
C 	C 	0.17870 0.98190 0.19710 -0.00700
C 	C 	0.64750 0.97490 0.26370 0.36600
C 	C 	0.74730 0.76330 0.02890 0.14400
C 	C 	0.23670 0.25270 0.53950 0.14400
C 	C 	0.11390 0.97490 0.64750 0.36600
C 	C 	0.40250 0.95230 0.33010 -0.10200
C 	C 	0.31710 0.45910 0.94870 0.27100
C 	C 	0.81920 0.01940 0.72300 -0.10000
C 	C 	0.54090 0.05130 0.68290 0.27100
C 	C 	0.29800 0.38180 0.95060 0.03600
C 	C 	0.82773 0.76527 0.02517 -0.04300
C 	C 	0.02510 0.88610 0.73630 0.36600
C 	C 	0.54090 0.68290 0.72490 0.27100
C 	C 	0.72329 0.90911 0.00471 0.38700
C 	C 	0.15175 0.24995 0.61365 -0.05300
C 	C 	0.36289 0.00471 0.90911 0.38700
C 	C 	0.26350 0.20090 0.56630 -0.10700
C 	C 	0.02890 0.46050 0.74730 0.14400
C 	C 	0.29800 0.36960 0.38180 0.03600
C 	C 	0.15175 0.61365 0.98465 -0.05300
C 	C 	0.01810 0.35770 0.80290 -0.00700
C 	C 	0.82773 0.38183 0.76527 -0.04300
C 	C 	0.43840 0.72300 0.01940 -0.10000
C 	C 	0.96930 0.26350 0.56630 -0.10700
C 	C 	0.17870 0.64230 0.98190 -0.00700
C 	C 	0.61820 0.04940 0.70200 0.03600
C 	C 	0.59750 0.66990 0.68490 -0.10200
C 	C 	0.36960 0.95060 0.38180 0.03600
C 	C 	0.23473 0.61817 0.97483 -0.04300
C 	C 	0.53950 0.97110 0.23670 0.14400
C 	C 	0.80290 0.01810 0.35770 -0.00700
C 	C 	0.88610 0.02510 0.35250 0.36600
C 	C 	0.40250 0.33010 0.31510 -0.10200
C 	C 	0.79910 0.73650 0.03070 -0.10700
C 	C 	0.53950 0.23670 0.25270 0.14400
C 	C 	0.31510 0.33010 0.95230 -0.10200
C 	C 	0.17227 0.61817 0.23473 -0.04300
C 	C 	0.59750 0.68490 0.04770 -0.10200
C 	C 	0.11390 0.64750 0.26370 0.36600
C 	C 	0.04770 0.68490 0.66990 -0.10200
C 	C 	0.27700 0.56160 0.18080 -0.10000
C 	C 	0.76330 0.74730 0.46050 0.14400
C 	C 	0.61817 0.23473 0.17227 -0.04300
C 	C 	0.88610 0.73630 0.02510 0.36600
C 	C 	0.31710 0.94870 0.27510 0.27100
C 	C 	0.80290 0.82130 0.01810 -0.00700
C 	C 	0.38635 0.84825 0.75005 -0.05300
C 	C 	0.95230 0.31510 0.33010 -0.10200
C 	C 	0.35250 0.73630 0.88610 0.36600
C 	C 	0.46050 0.76330 0.74730 0.14400
C 	C 	0.53950 0.25270 0.97110 0.14400
C 	C 	0.15175 0.98465 0.24995 -0.05300
C 	C 	0.02517 0.82773 0.76527 -0.04300
C 	C 	0.81920 0.43840 0.01940 -0.10000
C 	C 	0.74730 0.02890 0.46050 0.14400
C 	C 	0.63711 0.27671 0.99529 0.38700
C 	C 	0.68290 0.54090 0.05130 0.27100
C 	C 	0.64230 0.19710 0.98190 -0.00700
C 	C 	0.98190 0.17870 0.64230 -0.00700
C 	C 	0.84825 0.75005 0.38635 -0.05300
C 	C 	0.38180 0.29800 0.36960 0.03600
C 	C 	0.79910 0.03070 0.43370 -0.10700
C 	C 	0.98060 0.56160 0.27700 -0.10000
C 	C 	0.26370 0.97490 0.11390 0.36600
C 	C 	0.46050 0.74730 0.02890 0.14400
C 	C 	0.61817 0.97483 0.23473 -0.04300
C 	C 	0.35770 0.82130 0.80290 -0.00700
C 	C 	0.76527 0.02517 0.82773 -0.04300
C 	C 	0.66990 0.04770 0.68490 -0.10200
C 	C 	0.01940 0.43840 0.72300 -0.10000
C 	C 	0.43840 0.01940 0.81920 -0.10000
C 	C 	0.02517 0.76527 0.38183 -0.04300
C 	C 	0.80290 0.35770 0.82130 -0.00700
C 	C 	0.63711 0.09089 0.27671 0.38700
C 	C 	0.96930 0.20090 0.26350 -0.10700
C 	C 	0.27671 0.09089 0.99529 0.38700
C 	C 	0.98190 0.64230 0.19710 -0.00700
C 	C 	0.38183 0.82773 0.02517 -0.04300
C 	C 	0.45910 0.27510 0.94870 0.27100
C 	C 	0.43370 0.73650 0.79910 -0.10700
C 	C 	0.33010 0.95230 0.31510 -0.10200
C 	C 	0.11390 0.26370 0.97490 0.36600
C 	C 	0.97483 0.61817 0.17227 -0.04300
C 	C 	0.95060 0.29800 0.38180 0.03600
C 	C 	0.18080 0.56160 0.98060 -0.10000
C 	C 	0.26350 0.96930 0.20090 -0.10700
C 	C 	0.72490 0.54090 0.68290 0.27100
C 	C 	0.59750 0.04770 0.66990 -0.10200
C 	C 	0.05130 0.68290 0.54090 0.27100
C 	C 	0.84825 0.01535 0.75005 -0.05300
C 	C 	0.75005 0.01535 0.38635 -0.05300
C 	C 	0.99529 0.27671 0.09089 0.38700
C 	C 	0.79910 0.43370 0.73650 -0.10700
C 	C 	0.27510 0.45910 0.31710 0.27100
C 	C 	0.20090 0.26350 0.96930 -0.10700
C 	C 	0.70200 0.63040 0.61820 0.03600
C 	C 	0.33010 0.40250 0.95230 -0.10200
C 	C 	0.40250 0.31510 0.95230 -0.10200
C 	C 	0.98465 0.15175 0.61365 -0.05300
C 	C 	0.97110 0.23670 0.53950 0.14400
C 	C 	0.72490 0.68290 0.05130 0.27100
C 	C 	0.36289 0.90911 0.72329 0.38700
C 	C 	0.25270 0.97110 0.53950 0.14400
C 	C 	0.17227 0.97483 0.61817 -0.04300
C 	C 	0.43370 0.79910 0.03070 -0.10700
C 	C 	0.26350 0.56630 0.96930 -0.10700
C 	C 	0.19710 0.98190 0.64230 -0.00700
C 	C 	0.68490 0.04770 0.59750 -0.10200
C 	C 	0.36960 0.38180 0.29800 0.03600
C 	C 	0.82130 0.01810 0.80290 -0.00700
C 	C 	0.56630 0.20090 0.96930 -0.10700
C 	C 	0.66990 0.59750 0.04770 -0.10200
C 	C 	0.72329 0.00471 0.36289 0.38700
C 	C 	0.61365 0.15175 0.24995 -0.05300
C 	C 	0.23473 0.17227 0.61817 -0.04300
C 	C 	0.04940 0.63040 0.70200 0.03600
C 	C 	0.27671 0.63711 0.09089 0.38700
C 	C 	0.98060 0.18080 0.56160 -0.10000
C 	C 	0.02890 0.74730 0.76330 0.14400
C 	C 	0.27700 0.98060 0.56160 -0.10000
C 	C 	0.61365 0.24995 0.98465 -0.05300
C 	C 	0.68290 0.05130 0.72490 0.27100
C 	C 	0.31510 0.40250 0.33010 -0.10200
C 	C 	0.27510 0.94870 0.45910 0.27100
N 	N 	0.28250 0.96770 0.48570 -0.25400
N 	N 	0.48570 0.26410 0.28250 -0.25400
N 	N 	0.28250 0.48570 0.26410 -0.25400
N 	N 	0.71750 0.03230 0.51430 -0.25400
N 	N 	0.26410 0.96770 0.28250 -0.25400
N 	N 	0.73590 0.51430 0.03230 -0.25400
N 	N 	0.26410 0.48570 0.96770 -0.25400
N 	N 	0.73590 0.03230 0.71750 -0.25400
N 	N 	0.28250 0.26410 0.96770 -0.25400
N 	N 	0.51430 0.71750 0.03230 -0.25400
N 	N 	0.03230 0.51430 0.71750 -0.25400
N 	N 	0.96770 0.28250 0.26410 -0.25400
N 	N 	0.96770 0.26410 0.48570 -0.25400
N 	N 	0.51430 0.73590 0.71750 -0.25400
N 	N 	0.96770 0.48570 0.28250 -0.25400
N 	N 	0.71750 0.51430 0.73590 -0.25400
N 	N 	0.48570 0.96770 0.26410 -0.25400
N 	N 	0.71750 0.73590 0.03230 -0.25400
N 	N 	0.73590 0.71750 0.51430 -0.25400
N 	N 	0.51430 0.03230 0.73590 -0.25400
N 	N 	0.03230 0.71750 0.73590 -0.25400
N 	N 	0.03230 0.73590 0.51430 -0.25400
N 	N 	0.26410 0.28250 0.48570 -0.25400
N 	N 	0.48570 0.28250 0.96770 -0.25400
O 	O 	0.93180 0.23900 0.35000 -0.25000
O 	O 	0.39037 0.67721 0.00159 -0.45700
O 	O 	0.75067 0.93195 0.00169 -0.46700
O 	O 	0.93083 0.39037 0.00159 -0.45700
O 	O 	0.67721 0.00159 0.39037 -0.45700
O 	O 	0.32279 0.99841 0.60963 -0.45700
O 	O 	0.90818 0.68792 0.02508 -0.45500
O 	O 	0.06820 0.65000 0.52080 -0.25000
O 	O 	0.47920 0.93180 0.35000 -0.25000
O 	O 	0.30474 0.90740 0.02396 -0.45400
O 	O 	0.24933 0.06805 0.99831 -0.46700
O 	O 	0.99841 0.06917 0.60963 -0.45700
O 	O 	0.62118 0.09182 0.97492 -0.45500
O 	O 	0.47920 0.35000 0.23900 -0.25000
O 	O 	0.69526 0.09260 0.97604 -0.45400
O 	O 	0.97492 0.09182 0.31208 -0.45500
O 	O 	0.23900 0.93180 0.47920 -0.25000
O 	O 	0.37882 0.68792 0.90818 -0.45500
O 	O 	0.93195 0.31569 0.00169 -0.46700
O 	O 	0.76390 0.90740 0.30474 -0.45400
O 	O 	0.09182 0.62118 0.31208 -0.45500
O 	O 	0.93195 0.75067 0.31569 -0.46800
O 	O 	0.90818 0.02508 0.37882 -0.45500
O 	O 	0.37882 0.02508 0.68792 -0.45500
O 	O 	0.39037 0.00159 0.93083 -0.45700
O 	O 	0.93083 0.00159 0.67721 -0.45700
O 	O 	0.68792 0.90818 0.37882 -0.45500
O 	O 	0.90818 0.37882 0.68792 -0.45500
O 	O 	0.23610 0.09260 0.69526 -0.45400
O 	O 	0.90740 0.02396 0.30474 -0.45400
O 	O 	0.97492 0.62118 0.09182 -0.45500
O 	O 	0.35000 0.47920 0.93180 -0.25000
O 	O 	0.97604 0.23610 0.69526 -0.45400
O 	O 	0.31569 0.93195 0.75067 -0.46800
O 	O 	0.00159 0.67721 0.93083 -0.45700
O 	O 	0.24933 0.99831 0.68431 -0.46700
O 	O 	0.23900 0.35000 0.93180 -0.25000
O 	O 	0.68431 0.24933 0.99831 -0.46700
O 	O 	0.23610 0.97604 0.09260 -0.45300
O 	O 	0.00159 0.93083 0.39037 -0.45700
O 	O 	0.97492 0.31208 0.62118 -0.45500
O 	O 	0.69526 0.97604 0.23610 -0.45400
O 	O 	0.76390 0.30474 0.02396 -0.45400
O 	O 	0.31569 0.00169 0.93195 -0.46700
O 	O 	0.09260 0.97604 0.69526 -0.45400
O 	O 	0.76390 0.02396 0.90740 -0.45300
O 	O 	0.67721 0.93083 0.00159 -0.45700
O 	O 	0.06917 0.60963 0.99841 -0.45700
O 	O 	0.09182 0.97492 0.62118 -0.45500
O 	O 	0.75067 0.31569 0.93195 -0.46800
O 	O 	0.06805 0.24933 0.68431 -0.46800
O 	O 	0.06805 0.68431 0.99831 -0.46700
O 	O 	0.68792 0.02508 0.90818 -0.45500
O 	O 	0.62118 0.97492 0.31208 -0.45500
O 	O 	0.31208 0.09182 0.62118 -0.45500
O 	O 	0.31208 0.97492 0.09182 -0.45500
O 	O 	0.39037 0.93083 0.67721 -0.45700
O 	O 	0.52080 0.65000 0.76100 -0.25000
O 	O 	0.69526 0.23610 0.09260 -0.45400
O 	O 	0.02396 0.90740 0.76390 -0.45300
O 	O 	0.52080 0.76100 0.06820 -0.25000
O 	O 	0.35000 0.93180 0.23900 -0.25000
O 	O 	0.90740 0.76390 0.02396 -0.45300
O 	O 	0.52080 0.06820 0.65000 -0.25000
O 	O 	0.60963 0.32279 0.99841 -0.45700
O 	O 	0.06820 0.76100 0.65000 -0.25000
O 	O 	0.76100 0.06820 0.52080 -0.25000
O 	O 	0.65000 0.76100 0.52080 -0.25000
O 	O 	0.37882 0.90818 0.02508 -0.45500
O 	O 	0.02508 0.90818 0.68792 -0.45500
O 	O 	0.60963 0.06917 0.32279 -0.45700
O 	O 	0.00169 0.93195 0.31569 -0.46700
O 	O 	0.09260 0.23610 0.97604 -0.45300
O 	O 	0.06917 0.99841 0.32279 -0.45700
O 	O 	0.68431 0.06805 0.24933 -0.46800
O 	O 	0.00169 0.31569 0.75067 -0.46700
O 	O 	0.62118 0.31208 0.09182 -0.45500
O 	O 	0.32279 0.60963 0.06917 -0.45700
O 	O 	0.90740 0.30474 0.76390 -0.45400
O 	O 	0.23610 0.69526 0.97604 -0.45400
O 	O 	0.00169 0.75067 0.93195 -0.46700
O 	O 	0.23900 0.47920 0.35000 -0.25000
O 	O 	0.30474 0.76390 0.90740 -0.45400
O 	O 	0.60963 0.99841 0.06917 -0.45700
O 	O 	0.02508 0.68792 0.37882 -0.45500
O 	O 	0.93195 0.00169 0.75067 -0.46700
O 	O 	0.76100 0.52080 0.65000 -0.25000
O 	O 	0.93083 0.67721 0.39037 -0.45700
O 	O 	0.06805 0.99831 0.24933 -0.46700
O 	O 	0.31208 0.62118 0.97492 -0.45500
O 	O 	0.65000 0.52080 0.06820 -0.25000
O 	O 	0.09260 0.69526 0.23610 -0.45400
O 	O 	0.65000 0.06820 0.76100 -0.25000
O 	O 	0.93180 0.47920 0.23900 -0.25000
O 	O 	0.02396 0.30474 0.90740 -0.45400
O 	O 	0.30474 0.02396 0.76390 -0.45400
O 	O 	0.99831 0.68431 0.24933 -0.46700
O 	O 	0.67721 0.39037 0.93083 -0.45700
O 	O 	0.99831 0.06805 0.68431 -0.46700
O 	O 	0.06820 0.52080 0.76100 -0.25000
O 	O 	0.99841 0.60963 0.32279 -0.45700
O 	O 	0.99841 0.32279 0.06917 -0.45700
O 	O 	0.76100 0.65000 0.06820 -0.25000
O 	O 	0.32279 0.06917 0.99841 -0.45700
O 	O 	0.06917 0.32279 0.60963 -0.45700
O 	O 	0.02508 0.37882 0.90818 -0.45500
O 	O 	0.24933 0.68431 0.06805 -0.46800
O 	O 	0.97604 0.69526 0.09260 -0.45400
O 	O 	0.31569 0.75067 0.00169 -0.46700
O 	O 	0.47920 0.23900 0.93180 -0.25000
O 	O 	0.09182 0.31208 0.97492 -0.45500
O 	O 	0.68431 0.99831 0.06805 -0.46700
O 	O 	0.35000 0.23900 0.47920 -0.25000
O 	O 	0.97604 0.09260 0.23610 -0.45300
O 	O 	0.93180 0.35000 0.47920 -0.25000
O 	O 	0.99831 0.24933 0.06805 -0.46700
O 	O 	0.00159 0.39037 0.67721 -0.45700
O 	O 	0.75067 0.00169 0.31569 -0.46700
O 	O 	0.68792 0.37882 0.02508 -0.45500
O 	O 	0.02396 0.76390 0.30474 -0.45400
