data_crystal

_cell_length_a 16.58430
_cell_length_b 16.59900
_cell_length_c 22.22520
_cell_angle_alpha 90.00000
_cell_angle_beta  90.00000
_cell_angle_gamma 90.00000

_symmetry_space_group_name_	'P 1'
_symmetry_space_group_name_H-M	'P 1'

loop_
_symmetry_equiv_pos_as_xyz
  x,y,z

loop_
_atom_site_label
_atom_site_type_symbol
_atom_site_fract_x
_atom_site_fract_y
_atom_site_fract_z
_atom_site_charge
O 	O 	0.08511 0.58394 0.45117 -0.51100
C 	C 	0.20110 0.70200 0.44630 0.11200
H 	H 	0.18110 0.68070 0.40950 0.00200
C 	C 	0.25900 0.76170 0.44430 -0.19200
H 	H 	0.27780 0.78290 0.40720 0.08800
N 	N 	0.05930 0.44030 0.06390 -0.24400
C 	C 	0.04710 0.55190 0.31240 0.04900
H 	H 	0.08010 0.59050 0.33210 0.00500
C 	C 	0.04750 0.54920 0.25330 -0.18200
H 	H 	0.08330 0.58400 0.23230 0.08900
C 	C 	0.03510 0.44380 0.12530 0.07700
C 	C 	0.04750 0.36130 0.15470 -0.06900
H 	H 	0.03630 0.34560 0.19490 0.01600
C 	C 	0.08030 0.31310 0.10670 -0.09500
H 	H 	0.08930 0.25670 0.10860 0.04000
C 	C 	0.09870 0.36670 0.05190 0.10200
O 	O 	0.91489 0.41606 0.45117 -0.47700
C 	C 	0.79890 0.29800 0.44630 0.10700
H 	H 	0.81890 0.31930 0.40950 0.00900
C 	C 	0.74100 0.23830 0.44430 -0.18600
H 	H 	0.72220 0.21710 0.40720 0.08300
N 	N 	0.94070 0.55970 0.06390 -0.24000
C 	C 	0.95290 0.44810 0.31240 0.11000
H 	H 	0.91990 0.40950 0.33210 -0.00100
C 	C 	0.95250 0.45080 0.25330 -0.12200
H 	H 	0.91670 0.41600 0.23230 0.07100
C 	C 	0.96490 0.55620 0.12530 0.22300
C 	C 	0.95250 0.63870 0.15470 -0.07400
H 	H 	0.96370 0.65440 0.19490 0.07400
C 	C 	0.91970 0.68690 0.10670 -0.06300
H 	H 	0.91070 0.74330 0.10860 0.06500
C 	C 	0.90130 0.63330 0.05190 0.11100
O 	O 	0.91489 0.58394 0.54883 -0.47600
C 	C 	0.79890 0.70200 0.55370 0.11000
H 	H 	0.81890 0.68070 0.59050 0.01200
C 	C 	0.74100 0.76170 0.55570 -0.18400
H 	H 	0.72220 0.78290 0.59280 0.09200
N 	N 	0.94070 0.44030 0.93610 -0.23700
C 	C 	0.95290 0.55190 0.68760 0.11100
H 	H 	0.91990 0.59050 0.66790 0.00200
C 	C 	0.95250 0.54920 0.74670 -0.12400
H 	H 	0.91670 0.58400 0.76770 0.07400
C 	C 	0.96490 0.44380 0.87470 0.21900
C 	C 	0.95250 0.36130 0.84530 -0.07300
H 	H 	0.96370 0.34560 0.80510 0.07100
C 	C 	0.91970 0.31310 0.89330 -0.06900
H 	H 	0.91070 0.25670 0.89140 0.06100
C 	C 	0.90130 0.36670 0.94810 0.12800
O 	O 	0.08511 0.41606 0.54883 -0.51200
C 	C 	0.20110 0.29800 0.55370 0.10900
H 	H 	0.18110 0.31930 0.59050 0.00000
C 	C 	0.25900 0.23830 0.55570 -0.19400
H 	H 	0.27780 0.21710 0.59280 0.08200
N 	N 	0.05930 0.55970 0.93610 -0.24000
C 	C 	0.04710 0.44810 0.68760 0.04900
H 	H 	0.08010 0.40950 0.66790 0.00300
C 	C 	0.04750 0.45080 0.74670 -0.18100
H 	H 	0.08330 0.41600 0.76770 0.08800
C 	C 	0.03510 0.55620 0.87470 0.07800
C 	C 	0.04750 0.63870 0.84530 -0.06500
H 	H 	0.03630 0.65440 0.80510 0.01900
C 	C 	0.08030 0.68690 0.89330 -0.09600
H 	H 	0.08930 0.74330 0.89140 0.05700
C 	C 	0.09870 0.63330 0.94810 0.12400
O 	O 	0.91489 0.41606 0.54883 -0.47700
C 	C 	0.79890 0.29800 0.55370 0.10700
H 	H 	0.81890 0.31930 0.59050 0.00900
C 	C 	0.74100 0.23830 0.55570 -0.18600
H 	H 	0.72220 0.21710 0.59280 0.08400
N 	N 	0.94070 0.55970 0.93610 -0.23700
C 	C 	0.95290 0.44810 0.68760 0.11000
H 	H 	0.91990 0.40950 0.66790 -0.00000
C 	C 	0.95250 0.45080 0.74670 -0.12400
H 	H 	0.91670 0.41600 0.76770 0.07300
C 	C 	0.96490 0.55620 0.87470 0.21900
C 	C 	0.95250 0.63870 0.84530 -0.07200
H 	H 	0.96370 0.65440 0.80510 0.07300
C 	C 	0.91970 0.68690 0.89330 -0.06700
H 	H 	0.91070 0.74330 0.89140 0.07100
C 	C 	0.90130 0.63330 0.94810 0.13000
O 	O 	0.08511 0.58394 0.54883 -0.51100
C 	C 	0.20110 0.70200 0.55370 0.11200
H 	H 	0.18110 0.68070 0.59050 0.00300
C 	C 	0.25900 0.76170 0.55570 -0.19200
H 	H 	0.27780 0.78290 0.59280 0.08900
N 	N 	0.05930 0.44030 0.93610 -0.24000
C 	C 	0.04710 0.55190 0.68760 0.05000
H 	H 	0.08010 0.59050 0.66790 0.00500
C 	C 	0.04750 0.54920 0.74670 -0.18100
H 	H 	0.08330 0.58400 0.76770 0.09000
C 	C 	0.03510 0.44380 0.87470 0.07800
C 	C 	0.04750 0.36130 0.84530 -0.06600
H 	H 	0.03630 0.34560 0.80510 0.01600
C 	C 	0.08030 0.31310 0.89330 -0.09800
H 	H 	0.08930 0.25670 0.89140 0.04700
C 	C 	0.09870 0.36670 0.94810 0.12300
O 	O 	0.08511 0.41606 0.45117 -0.51200
C 	C 	0.20110 0.29800 0.44630 0.10900
H 	H 	0.18110 0.31930 0.40950 -0.00000
C 	C 	0.25900 0.23830 0.44430 -0.19400
H 	H 	0.27780 0.21710 0.40720 0.08100
N 	N 	0.05930 0.55970 0.06390 -0.24400
C 	C 	0.04710 0.44810 0.31240 0.04900
H 	H 	0.08010 0.40950 0.33210 0.00300
C 	C 	0.04750 0.45080 0.25330 -0.18200
H 	H 	0.08330 0.41600 0.23230 0.08800
C 	C 	0.03510 0.55620 0.12530 0.07700
C 	C 	0.04750 0.63870 0.15470 -0.06800
H 	H 	0.03630 0.65440 0.19490 0.01900
C 	C 	0.08030 0.68690 0.10670 -0.09300
H 	H 	0.08930 0.74330 0.10860 0.05000
C 	C 	0.09870 0.63330 0.05190 0.10300
O 	O 	0.91489 0.58394 0.45117 -0.47600
C 	C 	0.79890 0.70200 0.44630 0.11000
H 	H 	0.81890 0.68070 0.40950 0.01100
C 	C 	0.74100 0.76170 0.44430 -0.18400
H 	H 	0.72220 0.78290 0.40720 0.09100
N 	N 	0.94070 0.44030 0.06390 -0.24000
C 	C 	0.95290 0.55190 0.31240 0.11100
H 	H 	0.91990 0.59050 0.33210 0.00200
C 	C 	0.95250 0.54920 0.25330 -0.12200
H 	H 	0.91670 0.58400 0.23230 0.07300
C 	C 	0.96490 0.44380 0.12530 0.22300
C 	C 	0.95250 0.36130 0.15470 -0.07600
H 	H 	0.96370 0.34560 0.19490 0.07100
C 	C 	0.91970 0.31310 0.10670 -0.06500
H 	H 	0.91070 0.25670 0.10860 0.05500
C 	C 	0.90130 0.36670 0.05190 0.10900
Zn	Zn	0.00000 0.50000 0.43483 1.21000
N 	N 	0.00000 0.50000 0.34750 -0.31600
C 	C 	-0.00000 0.50000 0.22100 0.26500
C 	C 	-0.00000 0.50000 0.15660 -0.39400
Zn	Zn	0.00000 0.50000 0.56517 1.21000
N 	N 	-0.00000 0.50000 0.65250 -0.31600
C 	C 	-0.00000 0.50000 0.77900 0.26500
C 	C 	-0.00000 0.50000 0.84340 -0.38900
Al	Al	0.50000 -0.00000 0.50000 2.35100
C 	C 	0.12800 0.35600 -0.00000 -0.16000
C 	C 	0.87200 0.64400 -0.00000 -0.14100
C 	C 	0.87200 0.35600 -0.00000 -0.14700
C 	C 	0.12800 0.64400 -0.00000 -0.15400
N 	N 	0.50000 0.88060 0.50000 -0.47600
N 	N 	0.50000 0.11940 0.50000 -0.49200
N 	N 	0.38030 -0.00000 0.50000 -0.51200
N 	N 	0.61970 -0.00000 0.50000 -0.51200
C 	C 	0.10880 0.60760 0.50000 0.48100
C 	C 	0.17090 0.67190 0.50000 -0.20100
C 	C 	0.28900 0.78970 0.50000 0.14600
C 	C 	0.35420 0.85450 0.50000 -0.19900
C 	C 	0.32880 0.93350 0.50000 0.10800
C 	C 	0.24720 0.95790 0.50000 -0.02100
H 	H 	0.20120 0.92380 0.50000 0.04000
C 	C 	0.43410 0.82900 0.50000 0.09800
C 	C 	0.45650 0.74680 0.50000 -0.09200
H 	H 	0.42170 0.70130 0.50000 0.06300
C 	C 	0.89120 0.39240 0.50000 0.47400
C 	C 	0.82910 0.32810 0.50000 -0.18700
C 	C 	0.71100 0.21030 0.50000 0.14400
C 	C 	0.64580 0.14550 0.50000 -0.20900
C 	C 	0.67120 0.06650 0.50000 0.10700
C 	C 	0.75280 0.04210 0.50000 -0.16500
H 	H 	0.79880 0.07620 0.50000 0.08400
C 	C 	0.56590 0.17100 0.50000 0.09200
C 	C 	0.54350 0.25320 0.50000 -0.09300
H 	H 	0.57830 0.29870 0.50000 0.06200
C 	C 	0.89120 0.60760 0.50000 0.47500
C 	C 	0.82910 0.67190 0.50000 -0.18500
C 	C 	0.71100 0.78970 0.50000 0.14500
C 	C 	0.64580 0.85450 0.50000 -0.19700
C 	C 	0.67120 0.93350 0.50000 0.11000
C 	C 	0.75280 0.95790 0.50000 -0.01700
H 	H 	0.79880 0.92380 0.50000 0.05300
C 	C 	0.56590 0.82900 0.50000 0.09800
C 	C 	0.54350 0.74680 0.50000 -0.09100
H 	H 	0.57830 0.70130 0.50000 0.06300
C 	C 	0.10880 0.39240 0.50000 0.48000
C 	C 	0.17090 0.32810 0.50000 -0.20300
C 	C 	0.28900 0.21030 0.50000 0.14500
C 	C 	0.35420 0.14550 0.50000 -0.21100
C 	C 	0.32880 0.06650 0.50000 0.10400
C 	C 	0.24720 0.04210 0.50000 -0.17000
H 	H 	0.20120 0.07620 0.50000 0.07100
C 	C 	0.43410 0.17100 0.50000 0.09200
C 	C 	0.45650 0.25320 0.50000 -0.09400
H 	H 	0.42170 0.29870 0.50000 0.06200
Zn	Zn	-0.00000 0.50000 -0.00000 1.21400
