data_crystal

_cell_length_a 18.50000
_cell_length_b 18.50000
_cell_length_c 19.40420
_cell_angle_alpha 61.52990
_cell_angle_beta  61.52990
_cell_angle_gamma 60.00000

_symmetry_space_group_name_	'P 1'
_symmetry_space_group_name_H-M	'P 1'

loop_
_symmetry_equiv_pos_as_xyz
  x,y,z

loop_
_atom_site_label
_atom_site_type_symbol
_atom_site_fract_x
_atom_site_fract_y
_atom_site_fract_z
_atom_site_charge
Cu	Cu	0.51169 0.95594 0.57431 0.97000
Cu	Cu	0.48831 0.04406 0.42569 0.97000
Cu	Cu	0.95806 0.51169 0.57431 0.96900
Cu	Cu	0.04194 0.48831 0.42569 0.96900
Cu	Cu	0.95594 0.95806 0.57431 0.96500
Cu	Cu	0.04406 0.04194 0.42569 0.96500
H 	H 	0.99169 0.26097 0.48383 0.04300
H 	H 	0.14400 0.98660 0.27103 0.04200
H 	H 	0.37209 0.09040 0.33694 0.02800
H 	H 	0.34456 0.39174 0.17842 0.03700
H 	H 	0.79943 0.62791 0.66306 0.02900
H 	H 	0.71035 0.75361 0.99090 0.05200
H 	H 	0.41372 0.56294 0.00557 0.07400
H 	H 	0.28965 0.24639 0.00910 0.05200
H 	H 	0.66682 0.78583 0.77883 0.04400
H 	H 	0.45486 0.28965 0.00910 0.05500
H 	H 	0.91472 0.65544 0.82158 0.03600
H 	H 	0.90960 0.79943 0.66306 0.02800
H 	H 	0.55160 0.27937 0.16384 0.06300
H 	H 	0.69968 0.40230 0.86897 0.05200
H 	H 	0.79642 0.38551 0.66716 0.06200
H 	H 	0.43152 0.74489 0.11597 0.05300
H 	H 	0.97095 0.30032 0.13103 0.05400
H 	H 	0.21417 0.23148 0.22117 0.04400
H 	H 	0.56294 0.01777 0.00557 0.07000
H 	H 	0.60929 0.21924 0.33560 0.05200
H 	H 	0.59837 0.14400 0.27103 0.03600
H 	H 	0.01340 0.40163 0.72897 0.03600
H 	H 	0.65544 0.60826 0.82158 0.03700
H 	H 	0.27937 0.00519 0.16384 0.06000
H 	H 	0.75361 0.54514 0.99090 0.05300
H 	H 	0.44840 0.72063 0.83616 0.06300
H 	H 	0.16413 0.39071 0.66440 0.05200
H 	H 	0.61449 0.84909 0.33284 0.06200
H 	H 	0.26351 0.99169 0.48383 0.04300
H 	H 	0.43706 0.98223 0.99443 0.07000
H 	H 	0.38551 0.15091 0.66716 0.06200
H 	H 	0.15091 0.79642 0.66716 0.06200
H 	H 	0.56848 0.25511 0.88403 0.05300
H 	H 	0.59770 0.97095 0.13103 0.05300
H 	H 	0.72063 0.99481 0.83616 0.06000
H 	H 	0.00831 0.73903 0.51617 0.04300
H 	H 	0.40230 0.02905 0.86897 0.05300
H 	H 	0.39071 0.78076 0.66440 0.05200
H 	H 	0.02905 0.69968 0.86897 0.05400
H 	H 	0.00519 0.55160 0.16384 0.06300
H 	H 	0.35168 0.35142 0.10693 0.02200
H 	H 	0.29238 0.56848 0.88403 0.05300
H 	H 	0.64858 0.81003 0.89307 0.02200
H 	H 	0.40163 0.85600 0.72897 0.03600
H 	H 	0.73903 0.73649 0.51617 0.04200
H 	H 	0.20358 0.61449 0.33284 0.06200
H 	H 	0.78076 0.16413 0.66440 0.05300
H 	H 	0.60826 0.91472 0.82158 0.03700
H 	H 	0.35142 0.18997 0.10693 0.02200
H 	H 	0.81003 0.64832 0.89307 0.02200
H 	H 	0.21924 0.83587 0.33560 0.05300
H 	H 	0.33318 0.21417 0.22117 0.04400
H 	H 	0.74489 0.70762 0.11597 0.05400
H 	H 	0.98660 0.59837 0.27103 0.03600
H 	H 	0.99481 0.44840 0.83616 0.06300
H 	H 	0.83587 0.60929 0.33560 0.05200
H 	H 	0.08528 0.34456 0.17842 0.03600
H 	H 	0.73649 0.00831 0.51617 0.04300
H 	H 	0.18997 0.35168 0.10693 0.02200
H 	H 	0.30032 0.59770 0.13103 0.05200
H 	H 	0.39174 0.08528 0.17842 0.03700
H 	H 	0.58628 0.43706 0.99443 0.07400
H 	H 	0.25511 0.29238 0.88403 0.05400
H 	H 	0.62791 0.90960 0.66306 0.02800
H 	H 	0.78583 0.76852 0.77883 0.04400
H 	H 	0.26097 0.26351 0.48383 0.04200
H 	H 	0.20057 0.37209 0.33694 0.02900
H 	H 	0.09040 0.20057 0.33694 0.02800
H 	H 	0.01777 0.41372 0.00557 0.06800
H 	H 	0.54514 0.71035 0.99090 0.05500
H 	H 	0.23148 0.33318 0.22117 0.04400
H 	H 	0.76852 0.66682 0.77883 0.04400
H 	H 	0.64832 0.64858 0.89307 0.02200
H 	H 	0.84909 0.20358 0.33284 0.06200
H 	H 	0.70762 0.43152 0.11597 0.05300
H 	H 	0.85600 0.01340 0.72897 0.04200
H 	H 	0.24639 0.45486 0.00910 0.05300
H 	H 	0.98223 0.58628 0.99443 0.06800
C 	C 	0.22468 0.57265 0.90824 -0.03400
C 	C 	0.16346 0.64153 0.86840 0.06800
C 	C 	0.42735 0.70557 0.09176 -0.03100
C 	C 	0.80191 0.49213 0.02060 -0.08100
C 	C 	0.05579 0.61367 0.45359 0.38600
C 	C 	0.58178 0.39794 0.97028 -0.08700
C 	C 	0.60206 0.95000 0.02972 -0.07700
C 	C 	0.16040 0.41372 0.29656 0.05000
C 	C 	0.60233 0.06738 0.46322 0.39100
C 	C 	0.33634 0.88909 0.56747 -0.11500
C 	C 	0.81266 0.21140 0.63734 -0.00200
C 	C 	0.51190 0.36781 0.01000 0.15500
C 	C 	0.11091 0.79290 0.43253 -0.11400
C 	C 	0.20710 0.33634 0.56747 -0.11600
C 	C 	0.32661 0.16346 0.86840 0.06800
C 	C 	0.07634 0.64629 0.89999 -0.03300
C 	C 	0.16048 0.03987 0.26092 0.04000
C 	C 	0.03987 0.53873 0.26092 0.05000
C 	C 	0.21938 0.72577 0.32501 0.05200
C 	C 	0.10098 0.67196 0.42641 -0.11600
C 	C 	0.17666 0.38938 0.23200 -0.08500
C 	C 	0.87068 0.83960 0.70344 0.04800
C 	C 	0.05129 0.51301 0.19858 -0.07000
C 	C 	0.20196 0.17666 0.23200 -0.08400
C 	C 	0.83952 0.96013 0.73908 0.04000
C 	C 	0.79804 0.82334 0.76800 -0.08400
C 	C 	0.88971 0.48810 0.99000 0.14800
C 	C 	0.46127 0.83952 0.73908 0.05000
C 	C 	0.73367 0.73276 0.46478 0.06500
C 	C 	0.56578 0.73927 0.81336 0.03900
C 	C 	0.48699 0.76288 0.80142 -0.07000
C 	C 	0.12159 0.39058 0.13609 0.02400
C 	C 	0.76288 0.94871 0.80142 -0.06700
C 	C 	0.35847 0.67339 0.13160 0.06500
C 	C 	0.37738 0.07634 0.89999 -0.03300
C 	C 	0.43422 0.26073 0.18664 0.03900
C 	C 	0.72577 0.72984 0.32501 0.05100
C 	C 	0.19935 0.89902 0.57359 -0.11500
C 	C 	0.18734 0.78860 0.36266 -0.00200
C 	C 	0.67196 0.80065 0.42641 -0.11600
C 	C 	0.86707 0.60233 0.46322 0.39100
C 	C 	0.12305 0.94421 0.54641 0.38500
C 	C 	0.68536 0.80191 0.02060 -0.07800
C 	C 	0.83960 0.58628 0.70344 0.05000
C 	C 	0.39058 0.35174 0.13609 0.02500
C 	C 	0.26724 0.93121 0.53522 0.06500
C 	C 	0.27423 0.27016 0.67499 0.05100
C 	C 	0.29443 0.22468 0.90824 -0.03500
C 	C 	0.67339 0.83654 0.13160 0.06800
C 	C 	0.64826 0.87841 0.86391 0.02500
C 	C 	0.92366 0.35371 0.10001 -0.03300
C 	C 	0.78860 0.66140 0.36266 -0.00200
C 	C 	0.41822 0.60206 0.02972 -0.08700
C 	C 	0.60942 0.64826 0.86391 0.02500
C 	C 	0.48810 0.63219 0.99000 0.15500
C 	C 	0.80065 0.10098 0.42641 -0.11500
C 	C 	0.58628 0.87068 0.70344 0.05000
C 	C 	0.11029 0.51190 0.01000 0.14800
C 	C 	0.32804 0.19935 0.57359 -0.11600
C 	C 	0.05000 0.58178 0.97028 -0.07600
C 	C 	0.96013 0.46127 0.73908 0.05000
C 	C 	0.79707 0.17760 0.35978 0.00300
C 	C 	0.50787 0.31464 0.97940 -0.08700
C 	C 	0.26073 0.11841 0.18664 0.03800
C 	C 	0.26633 0.26724 0.53522 0.06500
C 	C 	0.73276 0.06879 0.46478 0.06500
C 	C 	0.94421 0.38633 0.54641 0.38600
C 	C 	0.35371 0.62262 0.10001 -0.02900
C 	C 	0.36781 0.11029 0.01000 0.14500
C 	C 	0.33445 0.20293 0.64022 0.00300
C 	C 	0.35174 0.12159 0.13609 0.02500
C 	C 	0.27016 0.78062 0.67499 0.05200
C 	C 	0.94871 0.48699 0.80142 -0.07000
C 	C 	0.83654 0.35847 0.13160 0.06800
C 	C 	0.82240 0.33445 0.64022 0.00300
C 	C 	0.72984 0.21938 0.32501 0.05200
C 	C 	0.06738 0.86707 0.46322 0.39000
C 	C 	0.66366 0.11091 0.43253 -0.11500
C 	C 	0.88909 0.20710 0.56747 -0.11400
C 	C 	0.39794 0.05000 0.97028 -0.07700
C 	C 	0.66140 0.18734 0.36266 -0.00200
C 	C 	0.38633 0.12305 0.54641 0.38600
C 	C 	0.33860 0.81266 0.63734 -0.00200
C 	C 	0.64153 0.32661 0.86840 0.06500
C 	C 	0.41372 0.12932 0.29656 0.05000
C 	C 	0.87695 0.05579 0.45359 0.38500
C 	C 	0.95000 0.41822 0.02972 -0.07600
C 	C 	0.89902 0.32804 0.57359 -0.11600
C 	C 	0.93262 0.13293 0.53678 0.39000
C 	C 	0.38938 0.20196 0.23200 -0.08500
C 	C 	0.23712 0.05129 0.19858 -0.06700
C 	C 	0.51301 0.23712 0.19858 -0.07000
C 	C 	0.66555 0.79707 0.35978 0.00300
C 	C 	0.57265 0.29443 0.90824 -0.03100
C 	C 	0.39767 0.93262 0.53678 0.39100
C 	C 	0.70557 0.77532 0.09176 -0.03500
C 	C 	0.79290 0.66366 0.43253 -0.11600
C 	C 	0.49213 0.68536 0.02060 -0.08700
C 	C 	0.19809 0.50787 0.97940 -0.08100
C 	C 	0.61062 0.79804 0.76800 -0.08500
C 	C 	0.17760 0.66555 0.35978 0.00300
C 	C 	0.82334 0.61062 0.76800 -0.08500
C 	C 	0.61367 0.87695 0.45359 0.38600
C 	C 	0.87841 0.60942 0.86391 0.02400
C 	C 	0.73927 0.88159 0.81336 0.03800
C 	C 	0.13293 0.39767 0.53678 0.39100
C 	C 	0.63219 0.88971 0.99000 0.14500
C 	C 	0.20293 0.82240 0.64022 0.00300
C 	C 	0.64629 0.37738 0.89999 -0.02900
C 	C 	0.11841 0.43422 0.18664 0.03900
C 	C 	0.78062 0.27423 0.67499 0.05200
C 	C 	0.53873 0.16048 0.26092 0.05000
C 	C 	0.88159 0.56578 0.81336 0.03900
C 	C 	0.93121 0.26633 0.53522 0.06500
C 	C 	0.06879 0.73367 0.46478 0.06500
C 	C 	0.77532 0.42735 0.09176 -0.03400
C 	C 	0.62262 0.92366 0.10001 -0.03300
C 	C 	0.31464 0.19809 0.97940 -0.07800
C 	C 	0.12932 0.16040 0.29656 0.04800
C 	C 	0.21140 0.33860 0.63734 -0.00200
N 	N 	0.71178 0.27345 0.75227 -0.07800
N 	N 	0.51567 0.88679 0.68670 -0.18900
N 	N 	0.91084 0.51567 0.68670 -0.18900
N 	N 	0.70633 0.31402 0.79313 -0.08100
N 	N 	0.81348 0.29367 0.20687 -0.08200
N 	N 	0.08916 0.48433 0.31330 -0.18900
N 	N 	0.31402 0.18652 0.79313 -0.08200
N 	N 	0.28822 0.72655 0.24773 -0.07800
N 	N 	0.27345 0.26250 0.75227 -0.07800
N 	N 	0.68598 0.81348 0.20687 -0.08200
N 	N 	0.26250 0.71178 0.75227 -0.07800
N 	N 	0.72655 0.73750 0.24773 -0.07800
N 	N 	0.88679 0.91084 0.68670 -0.18900
N 	N 	0.18652 0.70633 0.79313 -0.08200
N 	N 	0.11321 0.08916 0.31330 -0.18900
N 	N 	0.48433 0.11321 0.31330 -0.18900
N 	N 	0.29367 0.68598 0.20687 -0.08100
N 	N 	0.73750 0.28822 0.24773 -0.07800
O 	O 	0.98799 0.13572 0.46535 -0.40900
O 	O 	0.87252 0.00319 0.52604 -0.41100
O 	O 	0.39163 0.08084 0.07717 -0.22300
O 	O 	0.05454 0.92589 0.59552 -0.41800
O 	O 	0.92589 0.42405 0.59552 -0.42100
O 	O 	0.12748 0.99681 0.47396 -0.41100
O 	O 	0.45036 0.39163 0.07717 -0.22500
O 	O 	0.58906 0.01201 0.53465 -0.41100
O 	O 	0.07411 0.57595 0.40448 -0.42100
O 	O 	0.91582 0.06435 0.58529 -0.42700
O 	O 	0.08084 0.45036 0.07717 -0.22300
O 	O 	0.43454 0.91582 0.58529 -0.42900
O 	O 	0.59825 0.87252 0.52604 -0.41500
O 	O 	0.56546 0.08418 0.41471 -0.42900
O 	O 	0.91916 0.54964 0.92283 -0.22300
O 	O 	0.40175 0.12748 0.47396 -0.41500
O 	O 	0.60837 0.91916 0.92283 -0.22300
O 	O 	0.93565 0.56546 0.41471 -0.42900
O 	O 	0.94546 0.07411 0.40448 -0.41800
O 	O 	0.86428 0.58906 0.53465 -0.41200
O 	O 	0.41094 0.98799 0.46535 -0.41100
O 	O 	0.99681 0.40175 0.47396 -0.41400
O 	O 	0.54964 0.60837 0.92283 -0.22500
O 	O 	0.42405 0.05454 0.59552 -0.42100
O 	O 	0.08418 0.93565 0.41471 -0.42700
O 	O 	0.13572 0.41094 0.46535 -0.41200
O 	O 	0.06435 0.43454 0.58529 -0.42900
O 	O 	0.01201 0.86428 0.53465 -0.40900
O 	O 	0.57595 0.94546 0.40448 -0.42100
O 	O 	0.00319 0.59825 0.52604 -0.41400
