data_crystal

_cell_length_a 14.81550
_cell_length_b 14.81530
_cell_length_c 14.81530
_cell_angle_alpha 109.47100
_cell_angle_beta  109.47100
_cell_angle_gamma 109.47100

_symmetry_space_group_name_	'P 1'
_symmetry_space_group_name_H-M	'P 1'

loop_
_symmetry_equiv_pos_as_xyz
  x,y,z

loop_
_atom_site_label
_atom_site_type_symbol
_atom_site_fract_x
_atom_site_fract_y
_atom_site_fract_z
_atom_site_charge
Zn	Zn	0.25000 0.50000 0.75000 1.16200
Zn	Zn	0.75000 0.50000 0.25000 1.16200
Zn	Zn	0.25000 0.75000 0.50000 1.16200
Zn	Zn	0.50000 0.75000 0.25000 1.16200
Zn	Zn	0.50000 0.25000 0.75000 1.16200
Zn	Zn	0.75000 0.25000 0.50000 1.16200
H 	H 	0.50116 0.68042 0.96632 0.09900
H 	H 	0.72018 0.56623 0.46367 -0.03300
H 	H 	0.69261 0.20545 0.24646 0.29100
H 	H 	0.75354 0.95899 0.44615 0.11900
H 	H 	0.49884 0.46516 0.17926 0.27700
H 	H 	0.22323 0.29794 0.75039 0.26100
H 	H 	0.27982 0.74349 0.84605 -0.03100
H 	H 	0.54755 0.47284 0.24961 0.25900
H 	H 	0.30739 0.51284 0.55385 0.28400
H 	H 	0.71410 0.03368 0.53484 0.18700
H 	H 	0.54755 0.24961 0.47284 0.25900
H 	H 	0.74349 0.84605 0.27982 -0.03100
H 	H 	0.52716 0.77677 0.07471 0.11200
H 	H 	0.79455 0.48716 0.04101 0.18700
H 	H 	0.24646 0.69261 0.20545 0.29200
H 	H 	0.55385 0.51284 0.30739 0.28500
H 	H 	0.69261 0.24646 0.20545 0.29200
H 	H 	0.84605 0.74349 0.27982 -0.03000
H 	H 	0.82074 0.28590 0.31958 0.27400
H 	H 	0.51284 0.55385 0.30739 0.28500
H 	H 	0.75039 0.22323 0.29794 0.26200
H 	H 	0.56623 0.46367 0.72018 -0.03200
H 	H 	0.89744 0.15395 0.43377 -0.00500
H 	H 	0.70206 0.92529 0.45245 0.14300
H 	H 	0.15395 0.43377 0.89744 -0.00500
H 	H 	0.29794 0.75039 0.22323 0.26200
H 	H 	0.07471 0.77677 0.52716 0.11200
H 	H 	0.56623 0.72018 0.46367 -0.03200
H 	H 	0.55385 0.30739 0.51284 0.28500
H 	H 	0.68042 0.50116 0.96632 0.10000
H 	H 	0.75354 0.44615 0.95899 0.12000
H 	H 	0.53633 0.25651 0.10256 -0.04500
H 	H 	0.10256 0.53633 0.25651 -0.04500
H 	H 	0.77677 0.52716 0.07471 0.11200
H 	H 	0.03368 0.71410 0.53484 0.18800
H 	H 	0.24646 0.20545 0.69261 0.29200
H 	H 	0.74349 0.27982 0.84605 -0.03000
H 	H 	0.95899 0.75354 0.44615 0.12000
H 	H 	0.30739 0.55385 0.51284 0.28500
H 	H 	0.82074 0.31958 0.28590 0.27400
H 	H 	0.20545 0.69261 0.24646 0.29200
H 	H 	0.68042 0.96632 0.50116 0.10000
H 	H 	0.27982 0.84605 0.74349 -0.03000
H 	H 	0.43377 0.89744 0.15395 -0.00500
H 	H 	0.51284 0.30739 0.55385 0.28500
H 	H 	0.20545 0.24646 0.69261 0.29200
H 	H 	0.77677 0.07471 0.52716 0.11200
H 	H 	0.31958 0.82074 0.28590 0.27400
H 	H 	0.53484 0.71410 0.03368 0.18800
H 	H 	0.45245 0.92529 0.70206 0.14300
H 	H 	0.46367 0.56623 0.72018 -0.03200
H 	H 	0.07471 0.52716 0.77677 0.11200
H 	H 	0.03368 0.53484 0.71410 0.18800
H 	H 	0.44615 0.95899 0.75354 0.12000
H 	H 	0.95899 0.44615 0.75354 0.12000
H 	H 	0.46367 0.72018 0.56623 -0.03200
H 	H 	0.44615 0.75354 0.95899 0.12000
H 	H 	0.31958 0.28590 0.82074 0.27400
H 	H 	0.28590 0.31958 0.82074 0.27400
H 	H 	0.45245 0.70206 0.92529 0.14300
H 	H 	0.89744 0.43377 0.15395 -0.00500
H 	H 	0.75039 0.29794 0.22323 0.26200
H 	H 	0.52716 0.07471 0.77677 0.11200
H 	H 	0.25651 0.53633 0.10256 -0.04500
H 	H 	0.04101 0.79455 0.48716 0.18700
H 	H 	0.50116 0.96632 0.68042 0.10000
H 	H 	0.24961 0.54755 0.47284 0.26000
H 	H 	0.92529 0.45245 0.70206 0.14300
H 	H 	0.43377 0.15395 0.89744 -0.00500
H 	H 	0.22323 0.75039 0.29794 0.26200
H 	H 	0.49884 0.17926 0.46516 0.27800
H 	H 	0.47284 0.54755 0.24961 0.26000
H 	H 	0.46516 0.49884 0.17926 0.27800
H 	H 	0.24961 0.47284 0.54755 0.26000
H 	H 	0.17926 0.49884 0.46516 0.27800
H 	H 	0.70206 0.45245 0.92529 0.14300
H 	H 	0.71410 0.53484 0.03368 0.18800
H 	H 	0.48716 0.79455 0.04101 0.18700
H 	H 	0.92529 0.70206 0.45245 0.14300
H 	H 	0.29794 0.22323 0.75039 0.26200
H 	H 	0.72018 0.46367 0.56623 -0.03200
H 	H 	0.47284 0.24961 0.54755 0.26000
H 	H 	0.53633 0.10256 0.25651 -0.04500
H 	H 	0.96632 0.50116 0.68042 0.10000
H 	H 	0.46516 0.17926 0.49884 0.27800
H 	H 	0.96632 0.68042 0.50116 0.10000
H 	H 	0.48716 0.04101 0.79455 0.18700
H 	H 	0.15395 0.89744 0.43377 -0.00500
H 	H 	0.84605 0.27982 0.74349 -0.03000
H 	H 	0.25651 0.10256 0.53633 -0.04500
H 	H 	0.53484 0.03368 0.71410 0.18800
H 	H 	0.10256 0.25651 0.53633 -0.04500
H 	H 	0.17926 0.46516 0.49884 0.27800
H 	H 	0.28590 0.82074 0.31958 0.27400
H 	H 	0.04101 0.48716 0.79455 0.18700
H 	H 	0.79455 0.04101 0.48716 0.18700
C 	C 	0.52892 0.24918 0.52892 -1.73600
C 	C 	0.75082 0.27974 0.27974 -1.74300
C 	C 	0.64190 0.00000 0.37546 0.33400
C 	C 	0.64190 0.37546 -0.00000 0.33400
C 	C 	0.49958 0.44332 0.72405 -0.04900
C 	C 	0.28074 0.05627 0.55669 0.01900
C 	C 	0.35810 0.73356 0.35810 0.48200
C 	C 	0.72405 0.44331 0.49958 -0.04900
C 	C 	0.37546 0.64190 -0.00000 0.33400
C 	C 	0.94374 0.22448 0.50043 -0.11100
C 	C 	0.62454 0.62454 0.26644 0.48500
C 	C 	-0.00000 0.64190 0.37546 0.33400
C 	C 	0.73356 0.35810 0.35810 0.48200
C 	C 	-0.00000 0.47108 0.72026 -0.97400
C 	C 	0.55669 0.05627 0.28074 0.01900
C 	C 	0.50042 0.94373 0.22447 -0.11100
C 	C 	0.72026 0.00000 0.47108 -0.97400
C 	C 	-0.00000 0.37546 0.64190 0.33400
C 	C 	0.27974 0.75082 0.27974 -1.74300
C 	C 	0.35810 0.35810 0.73356 0.48200
C 	C 	0.71926 0.27595 0.77552 -0.04100
C 	C 	0.72026 0.47108 -0.00000 -0.97400
C 	C 	0.94374 0.50043 0.22448 -0.11100
C 	C 	0.77553 0.71927 0.27595 -0.04100
C 	C 	0.52892 0.52892 0.24918 -1.73600
C 	C 	0.44331 0.72405 0.49957 -0.04900
C 	C 	0.22447 0.50042 0.94373 -0.11100
C 	C 	0.49958 0.72405 0.44332 -0.04900
C 	C 	0.27595 0.77553 0.71926 -0.04100
C 	C 	0.44331 0.49957 0.72405 -0.04900
C 	C 	0.55669 0.28074 0.05627 0.01900
C 	C 	0.50042 0.22447 0.94373 -0.11100
C 	C 	0.71926 0.77552 0.27595 -0.04100
C 	C 	0.47108 0.00000 0.72026 -0.97400
C 	C 	0.22447 0.94373 0.50042 -0.11100
C 	C 	0.05626 0.55668 0.28073 0.01900
C 	C 	0.26644 0.62454 0.62454 0.48500
C 	C 	0.72405 0.49958 0.44331 -0.04900
C 	C 	0.62454 0.26644 0.62454 0.48500
C 	C 	-0.00000 0.72026 0.47108 -0.97400
C 	C 	0.77553 0.27595 0.71927 -0.04100
C 	C 	0.05626 0.28073 0.55668 0.01900
C 	C 	0.24918 0.52892 0.52892 -1.73600
C 	C 	0.27974 0.27974 0.75082 -1.74300
C 	C 	0.47108 0.72026 -0.00000 -0.97400
C 	C 	0.27595 0.71926 0.77553 -0.04100
C 	C 	0.37546 0.00000 0.64190 0.33400
C 	C 	0.28074 0.55669 0.05627 0.01900
N 	N 	0.62158 0.71429 0.26941 -0.37800
N 	N 	0.09271 0.64784 0.37842 -0.35800
N 	N 	0.62158 0.26941 0.71429 -0.37800
N 	N 	0.44487 0.73058 0.35216 -0.38200
N 	N 	0.26942 0.62159 0.71429 -0.37800
N 	N 	0.71429 0.62158 0.26942 -0.37800
N 	N 	0.28571 0.55513 0.90729 -0.35300
N 	N 	0.71429 0.26942 0.62158 -0.37800
N 	N 	0.26942 0.71429 0.62159 -0.37800
N 	N 	0.73058 0.35216 0.44487 -0.38200
N 	N 	0.35217 0.44488 0.73059 -0.38200
N 	N 	0.55513 0.28571 0.90730 -0.35300
N 	N 	0.90729 0.55512 0.28571 -0.35300
N 	N 	0.64783 0.09270 0.37841 -0.35800
N 	N 	0.09271 0.37842 0.64784 -0.35800
N 	N 	0.37842 0.64784 0.09271 -0.35800
N 	N 	0.35217 0.73059 0.44488 -0.38200
N 	N 	0.37842 0.09271 0.64784 -0.35800
N 	N 	0.90729 0.28571 0.55512 -0.35300
N 	N 	0.64783 0.37841 0.09270 -0.35800
N 	N 	0.55513 0.90730 0.28571 -0.35300
N 	N 	0.73058 0.44487 0.35216 -0.38200
N 	N 	0.28571 0.90729 0.55513 -0.35300
N 	N 	0.44487 0.35216 0.73058 -0.38200
