data_crystal

_cell_length_a 6.96660
_cell_length_b 14.91450
_cell_length_c 14.91450
_cell_angle_alpha 62.37800
_cell_angle_beta  81.04260
_cell_angle_gamma 98.95740

_symmetry_space_group_name_	'P 1'
_symmetry_space_group_name_H-M	'P 1'

loop_
_symmetry_equiv_pos_as_xyz
  x,y,z

loop_
_atom_site_label
_atom_site_type_symbol
_atom_site_fract_x
_atom_site_fract_y
_atom_site_fract_z
_atom_site_charge
Fe	Fe	0.79508 0.25865 0.31651 1.23000
Fe	Fe	0.20492 0.74135 0.68349 1.23000
Fe	Fe	0.88841 0.68349 0.57516 1.22900
Fe	Fe	0.11159 0.31651 0.42484 1.22900
Fe	Fe	0.53643 0.42484 0.25865 1.22900
Fe	Fe	0.46357 0.57516 0.74135 1.22900
H 	H 	0.81590 0.46690 0.54570 0.08700
H 	H 	0.63840 0.45430 0.01260 0.08700
H 	H 	0.34900 0.98740 0.46690 0.08700
H 	H 	0.36160 0.54570 0.98740 0.08700
H 	H 	0.18410 0.53310 0.45430 0.08700
H 	H 	0.65100 0.01260 0.53310 0.08700
C 	C 	0.15750 0.08660 0.44810 -0.12800
C 	C 	0.86150 0.43320 0.10040 0.20300
C 	C 	0.07090 0.46530 0.08660 -0.12700
C 	C 	0.20830 0.53180 0.99000 -0.05600
C 	C 	0.67650 0.47820 0.53180 -0.05500
C 	C 	0.96190 0.10040 0.46640 0.20400
C 	C 	0.34440 0.17890 0.38890 0.39000
C 	C 	0.03810 0.89960 0.53360 0.20400
C 	C 	0.26670 0.61110 0.56780 0.38900
C 	C 	0.80170 0.01000 0.52180 -0.05500
C 	C 	0.73330 0.38890 0.43220 0.38900
C 	C 	0.84250 0.91340 0.55190 -0.12800
C 	C 	0.83450 0.56780 0.82110 0.38900
C 	C 	0.57170 0.53360 0.56680 0.20300
C 	C 	0.39440 0.55190 0.53470 -0.12700
C 	C 	0.79170 0.46820 0.01000 -0.05600
C 	C 	0.32350 0.52180 0.46820 -0.05500
C 	C 	0.92910 0.53470 0.91340 -0.12700
C 	C 	0.65560 0.82110 0.61110 0.39000
C 	C 	0.19830 0.99000 0.47820 -0.05500
C 	C 	0.42830 0.46640 0.43320 0.20300
C 	C 	0.16550 0.43220 0.17890 0.38900
C 	C 	0.60560 0.44810 0.46530 -0.12700
C 	C 	0.13850 0.56680 0.89960 0.20300
O 	O 	0.64240 0.53860 0.84320 -0.39500
O 	O 	0.51440 0.15680 0.38180 -0.39600
O 	O 	0.76340 0.55170 0.22900 -0.18400
O 	O 	0.78830 0.78070 0.44830 -0.18400
O 	O 	0.89620 0.38180 0.46140 -0.39500
O 	O 	0.83620 0.15530 0.26020 -0.16100
O 	O 	0.27490 0.63030 0.80290 -0.49300
O 	O 	0.66820 0.34130 0.38670 -0.49300
O 	O 	0.31910 0.41550 0.84470 -0.16100
O 	O 	0.48560 0.84320 0.61820 -0.39600
O 	O 	0.16380 0.84470 0.73980 -0.16100
O 	O 	0.35540 0.43320 0.36970 -0.49300
O 	O 	0.09640 0.26020 0.58450 -0.16100
O 	O 	0.99240 0.22900 0.21930 -0.18400
O 	O 	0.90360 0.73980 0.41550 -0.16100
O 	O 	0.72510 0.36970 0.19710 -0.49300
O 	O 	0.67310 0.72800 0.65870 -0.49300
O 	O 	0.05490 0.38670 0.27200 -0.49300
O 	O 	0.94510 0.61330 0.72800 -0.49300
O 	O 	0.68090 0.58450 0.15530 -0.16100
O 	O 	0.23660 0.44830 0.77100 -0.18400
O 	O 	0.64460 0.56680 0.63030 -0.49300
O 	O 	0.35760 0.46140 0.15680 -0.39500
O 	O 	0.33180 0.65870 0.61330 -0.49300
O 	O 	0.00760 0.77100 0.78070 -0.18400
O 	O 	0.21170 0.21930 0.55170 -0.18400
O 	O 	0.32690 0.27200 0.34130 -0.49300
O 	O 	0.07780 0.80290 0.56680 -0.49300
O 	O 	0.10380 0.61820 0.53860 -0.39500
O 	O 	0.92220 0.19710 0.43320 -0.49300
