data_crystal

_cell_length_a 15.69980
_cell_length_b 15.69980
_cell_length_c 15.69980
_cell_angle_alpha 71.99930
_cell_angle_beta  71.99930
_cell_angle_gamma 71.99930

_symmetry_space_group_name_	'P 1'
_symmetry_space_group_name_H-M	'P 1'

loop_
_symmetry_equiv_pos_as_xyz
  x,y,z

loop_
_atom_site_label
_atom_site_type_symbol
_atom_site_fract_x
_atom_site_fract_y
_atom_site_fract_z
_atom_site_charge
Cu	Cu	0.94595 0.51665 0.94445 0.90800
Cu	Cu	0.51665 0.94445 0.94595 0.90800
Cu	Cu	0.05405 0.48335 0.05555 0.90800
Cu	Cu	0.94445 0.94595 0.51665 0.90800
Cu	Cu	0.05555 0.05405 0.48335 0.90800
Cu	Cu	0.48335 0.05555 0.05405 0.90800
H 	H 	0.34480 0.12460 0.22820 0.02300
H 	H 	0.19890 0.59390 0.33080 0.03100
H 	H 	0.22820 0.34480 0.12460 0.02300
H 	H 	0.87870 0.24750 0.65450 0.09100
H 	H 	0.76060 0.12340 0.33740 0.09700
H 	H 	0.26130 0.96860 0.25070 0.07400
H 	H 	0.33740 0.76060 0.12340 0.09800
H 	H 	0.66260 0.23940 0.87660 0.09800
H 	H 	0.35290 0.71890 0.88530 0.03500
H 	H 	0.66920 0.80110 0.40610 0.03200
H 	H 	0.73870 0.03140 0.74930 0.07500
H 	H 	0.65520 0.87540 0.77180 0.02400
H 	H 	0.23940 0.87660 0.66260 0.09800
H 	H 	0.24750 0.65450 0.87870 0.09200
H 	H 	0.11470 0.64710 0.28110 0.03500
H 	H 	0.87660 0.66260 0.23940 0.09800
H 	H 	0.33080 0.19890 0.59390 0.03200
H 	H 	0.34380 0.18370 0.34860 0.06500
H 	H 	0.81620 0.91630 0.42110 0.04700
H 	H 	0.12340 0.33740 0.76060 0.09800
H 	H 	0.64710 0.28110 0.11470 0.03500
H 	H 	0.65450 0.87870 0.24750 0.09200
H 	H 	0.74930 0.73870 0.03140 0.07500
H 	H 	0.65140 0.65620 0.81630 0.06500
H 	H 	0.52930 0.75090 0.67660 0.05000
H 	H 	0.12460 0.22820 0.34480 0.02400
H 	H 	0.40610 0.66920 0.80110 0.03200
H 	H 	0.28110 0.11470 0.64710 0.03500
H 	H 	0.59390 0.33080 0.19890 0.03200
H 	H 	0.42110 0.81620 0.91630 0.04700
H 	H 	0.67660 0.52930 0.75090 0.05000
H 	H 	0.47070 0.24910 0.32340 0.05000
H 	H 	0.08370 0.57890 0.18380 0.04700
H 	H 	0.25070 0.26130 0.96860 0.07500
H 	H 	0.87540 0.77180 0.65520 0.02400
H 	H 	0.12130 0.75250 0.34550 0.09200
H 	H 	0.88530 0.35290 0.71890 0.03500
H 	H 	0.03140 0.74930 0.73870 0.07500
H 	H 	0.96860 0.25070 0.26130 0.07500
H 	H 	0.77180 0.65520 0.87540 0.02400
H 	H 	0.34550 0.12130 0.75250 0.09200
H 	H 	0.75250 0.34550 0.12130 0.09200
H 	H 	0.34860 0.34380 0.18370 0.06500
H 	H 	0.32340 0.47070 0.24910 0.05000
H 	H 	0.71890 0.88530 0.35290 0.03500
H 	H 	0.75090 0.67660 0.52930 0.05000
H 	H 	0.18380 0.08370 0.57890 0.04700
H 	H 	0.81630 0.65140 0.65620 0.06500
H 	H 	0.65620 0.81630 0.65140 0.06500
H 	H 	0.24910 0.32340 0.47070 0.05000
H 	H 	0.57890 0.18380 0.08370 0.04700
H 	H 	0.91630 0.42110 0.81620 0.04700
H 	H 	0.18370 0.34860 0.34380 0.06500
H 	H 	0.80110 0.40610 0.66920 0.03200
C 	C 	0.39140 0.18560 0.29370 -0.08000
C 	C 	0.60860 0.81440 0.70630 -0.08000
C 	C 	0.37960 0.92130 0.11220 0.32500
C 	C 	0.31080 0.87110 0.17390 -0.02700
C 	C 	0.17390 0.31080 0.87110 -0.02700
C 	C 	0.72320 0.53290 0.77570 -0.03100
C 	C 	0.21050 0.82890 0.70230 -0.10200
C 	C 	0.38560 0.72870 0.81940 0.02200
C 	C 	0.53360 0.22820 0.19980 0.01000
C 	C 	0.82390 0.12680 0.69200 -0.02700
C 	C 	0.12890 0.82610 0.68920 -0.02700
C 	C 	0.77570 0.72320 0.53290 -0.03100
C 	C 	0.07610 0.62210 0.88660 0.33900
C 	C 	0.88660 0.07610 0.62210 0.33900
C 	C 	0.69200 0.82390 0.12680 -0.02700
C 	C 	0.11340 0.92390 0.37790 0.33900
C 	C 	0.82610 0.68920 0.12890 -0.02700
C 	C 	0.74670 0.23350 0.23040 0.16900
C 	C 	0.07870 0.88780 0.62040 0.32500
C 	C 	0.15040 0.22060 0.39470 0.05000
C 	C 	0.11220 0.37960 0.92130 0.32500
C 	C 	0.77940 0.60530 0.84960 0.05000
C 	C 	0.08590 0.75560 0.74780 -0.02500
C 	C 	0.39470 0.15040 0.22060 0.05000
C 	C 	0.70630 0.60860 0.81440 -0.08000
C 	C 	0.76960 0.25330 0.76650 0.16900
C 	C 	0.46710 0.22430 0.27680 -0.03100
C 	C 	0.92130 0.11220 0.37960 0.32500
C 	C 	0.82890 0.70230 0.21050 -0.10200
C 	C 	0.77180 0.80020 0.46640 0.01000
C 	C 	0.88780 0.62040 0.07870 0.32500
C 	C 	0.17610 0.87320 0.30800 -0.02700
C 	C 	0.78950 0.17110 0.29770 -0.10200
C 	C 	0.81440 0.70630 0.60860 -0.08000
C 	C 	0.86360 0.47120 0.81340 0.00200
C 	C 	0.83280 0.21740 0.69660 -0.11400
C 	C 	0.47120 0.81340 0.86360 0.00200
C 	C 	0.75560 0.74780 0.08590 -0.02500
C 	C 	0.69660 0.83280 0.21740 -0.11400
C 	C 	0.25220 0.91410 0.24440 -0.02500
C 	C 	0.30800 0.17610 0.87320 -0.02700
C 	C 	0.60530 0.84960 0.77940 0.05000
C 	C 	0.92390 0.37790 0.11340 0.33900
C 	C 	0.18560 0.29370 0.39140 -0.08000
C 	C 	0.21740 0.69660 0.83280 -0.11400
C 	C 	0.19980 0.53360 0.22820 0.01000
C 	C 	0.29370 0.39140 0.18560 -0.08000
C 	C 	0.91410 0.24440 0.25220 -0.02500
C 	C 	0.30340 0.16720 0.78260 -0.11400
C 	C 	0.62040 0.07870 0.88780 0.32500
C 	C 	0.78260 0.30340 0.16720 -0.11400
C 	C 	0.61440 0.27130 0.18060 0.02200
C 	C 	0.16720 0.78260 0.30340 -0.11400
C 	C 	0.84960 0.77940 0.60530 0.05000
C 	C 	0.23350 0.23040 0.74670 0.16900
C 	C 	0.52880 0.18660 0.13640 0.00200
C 	C 	0.87320 0.30800 0.17610 -0.02700
C 	C 	0.18060 0.61440 0.27130 0.02200
C 	C 	0.53290 0.77570 0.72320 -0.03100
C 	C 	0.18660 0.13640 0.52880 0.00200
C 	C 	0.68920 0.12890 0.82610 -0.02700
C 	C 	0.62210 0.88660 0.07610 0.33900
C 	C 	0.12680 0.69200 0.82390 -0.02700
C 	C 	0.74780 0.08590 0.75560 -0.02500
C 	C 	0.29770 0.78950 0.17110 -0.10200
C 	C 	0.80020 0.46640 0.77180 0.01000
C 	C 	0.72870 0.81940 0.38560 0.02200
C 	C 	0.76650 0.76960 0.25330 0.16900
C 	C 	0.24440 0.25220 0.91410 -0.02500
C 	C 	0.22060 0.39470 0.15040 0.05000
C 	C 	0.81940 0.38560 0.72870 0.02200
C 	C 	0.27130 0.18060 0.61440 0.02200
C 	C 	0.13640 0.52880 0.18660 0.00200
C 	C 	0.23040 0.74670 0.23350 0.16900
C 	C 	0.22820 0.19980 0.53360 0.01000
C 	C 	0.87110 0.17390 0.31080 -0.02700
C 	C 	0.81340 0.86360 0.47120 0.00200
C 	C 	0.46640 0.77180 0.80020 0.01000
C 	C 	0.70230 0.21050 0.82890 -0.10200
C 	C 	0.25330 0.76650 0.76960 0.16900
C 	C 	0.17110 0.29770 0.78950 -0.10200
C 	C 	0.27680 0.46710 0.22430 -0.03100
C 	C 	0.22430 0.27680 0.46710 -0.03100
C 	C 	0.37790 0.11340 0.92390 0.33900
N 	N 	0.45840 0.14850 0.14200 -0.17000
N 	N 	0.14850 0.14200 0.45840 -0.17000
N 	N 	0.85150 0.85800 0.54160 -0.17000
N 	N 	0.54160 0.85150 0.85800 -0.17000
N 	N 	0.14200 0.45840 0.14850 -0.17000
N 	N 	0.85800 0.54160 0.85150 -0.17000
O 	O 	0.98680 0.38950 0.13370 -0.40200
O 	O 	0.86530 0.60300 0.01900 -0.39700
O 	O 	0.86630 0.01320 0.61050 -0.40200
O 	O 	0.61050 0.86630 0.01320 -0.40200
O 	O 	0.11070 0.58030 0.95770 -0.37200
O 	O 	0.42180 0.88880 0.03890 -0.38000
O 	O 	0.95770 0.11070 0.58030 -0.37200
O 	O 	0.96110 0.57820 0.11120 -0.38000
O 	O 	0.88930 0.41970 0.04230 -0.37200
O 	O 	0.79290 0.76600 0.33220 -0.21500
O 	O 	0.57820 0.11120 0.96110 -0.38000
O 	O 	0.01900 0.86530 0.60300 -0.39700
O 	O 	0.39700 0.98100 0.13470 -0.39700
O 	O 	0.33220 0.79290 0.76600 -0.21500
O 	O 	0.88880 0.03890 0.42180 -0.38000
O 	O 	0.13370 0.98680 0.38950 -0.40200
O 	O 	0.04230 0.88930 0.41970 -0.37200
O 	O 	0.41970 0.04230 0.88930 -0.37200
O 	O 	0.23400 0.66780 0.20710 -0.21500
O 	O 	0.13470 0.39700 0.98100 -0.39700
O 	O 	0.60300 0.01900 0.86530 -0.39700
O 	O 	0.58030 0.95770 0.11070 -0.37200
O 	O 	0.01320 0.61050 0.86630 -0.40200
O 	O 	0.38950 0.13370 0.98680 -0.40200
O 	O 	0.98100 0.13470 0.39700 -0.39700
O 	O 	0.76600 0.33220 0.79290 -0.21500
O 	O 	0.66780 0.20710 0.23400 -0.21500
O 	O 	0.03890 0.42180 0.88880 -0.38000
O 	O 	0.20710 0.23400 0.66780 -0.21500
O 	O 	0.11120 0.96110 0.57820 -0.38000
