data_crystal

_cell_length_a 7.30410
_cell_length_b 7.30410
_cell_length_c 8.16400
_cell_angle_alpha 90.00000
_cell_angle_beta  90.00000
_cell_angle_gamma 120.00000

_symmetry_space_group_name_	'P 1'
_symmetry_space_group_name_H-M	'P 1'

loop_
_symmetry_equiv_pos_as_xyz
  x,y,z

loop_
_atom_site_label
_atom_site_type_symbol
_atom_site_fract_x
_atom_site_fract_y
_atom_site_fract_z
_atom_site_charge
Zn	Zn	0.66667 0.33334 0.75000 1.24900
Zn	Zn	0.33333 0.66666 0.25000 1.24600
H 	H 	0.00000 0.56540 -0.00000 -0.06500
H 	H 	-0.00000 0.43460 0.50000 -0.09100
H 	H 	0.56540 0.00000 -0.00000 -0.06100
H 	H 	0.43460 0.43460 -0.00000 -0.08400
H 	H 	0.56540 0.56540 0.50000 -0.09400
H 	H 	0.43460 0.00000 0.50000 -0.08600
C 	C 	-0.00000 0.43790 -0.00000 0.24300
C 	C 	0.00000 0.56210 0.50000 0.38100
C 	C 	0.56210 0.00000 0.50000 0.34800
C 	C 	0.56210 0.56210 -0.00000 0.31400
C 	C 	0.43790 0.00000 -0.00000 0.20400
C 	C 	0.43790 0.43790 0.50000 0.46200
O 	O 	0.69500 0.11090 0.60480 -0.36000
O 	O 	0.41590 0.11090 0.89520 -0.27900
O 	O 	0.58410 0.69500 0.10480 -0.34600
O 	O 	0.58410 0.88910 0.39520 -0.31000
O 	O 	0.41590 0.30500 0.60480 -0.39700
O 	O 	0.11090 0.69500 0.39520 -0.36800
O 	O 	0.30500 0.88910 0.10480 -0.29700
O 	O 	0.88910 0.30500 0.89520 -0.24800
O 	O 	0.30500 0.41590 0.39520 -0.40400
O 	O 	0.11090 0.41590 0.10480 -0.36400
O 	O 	0.69500 0.58410 0.89520 -0.27100
O 	O 	0.88910 0.58410 0.60480 -0.32200
