data_crystal

_cell_length_a 7.28290
_cell_length_b 7.28290
_cell_length_c 8.16910
_cell_angle_alpha 90.00000
_cell_angle_beta  90.00000
_cell_angle_gamma 120.00000

_symmetry_space_group_name_	'P 1'
_symmetry_space_group_name_H-M	'P 1'

loop_
_symmetry_equiv_pos_as_xyz
  x,y,z

loop_
_atom_site_label
_atom_site_type_symbol
_atom_site_fract_x
_atom_site_fract_y
_atom_site_fract_z
_atom_site_charge
Zn	Zn	0.66667 0.33334 0.75000 1.25100
Zn	Zn	0.33333 0.66666 0.25000 1.24900
H 	H 	-0.00000 0.56540 -0.00000 -0.06500
H 	H 	0.00000 0.43460 0.50000 -0.09100
H 	H 	0.56540 0.00000 -0.00000 -0.06100
H 	H 	0.43460 0.43460 -0.00000 -0.08400
H 	H 	0.56540 0.56540 0.50000 -0.09300
H 	H 	0.43460 0.00000 0.50000 -0.08500
C 	C 	0.56280 0.00000 0.50000 0.34900
C 	C 	0.00000 0.56280 0.50000 0.38100
C 	C 	0.43720 0.43720 0.50000 0.46200
C 	C 	0.43720 0.00000 -0.00000 0.20400
C 	C 	0.00000 0.43720 -0.00000 0.24300
C 	C 	0.56280 0.56280 -0.00000 0.31400
O 	O 	0.11030 0.41550 0.10570 -0.36400
O 	O 	0.58450 0.88970 0.39430 -0.31000
O 	O 	0.41550 0.30520 0.60570 -0.39800
O 	O 	0.11030 0.69480 0.39430 -0.36900
O 	O 	0.88970 0.30520 0.89430 -0.24900
O 	O 	0.58450 0.69480 0.10570 -0.34700
O 	O 	0.30520 0.88970 0.10570 -0.29700
O 	O 	0.88970 0.58450 0.60570 -0.32300
O 	O 	0.69480 0.58450 0.89430 -0.27200
O 	O 	0.41550 0.11030 0.89430 -0.28000
O 	O 	0.30520 0.41550 0.39430 -0.40400
O 	O 	0.69480 0.11030 0.60570 -0.36100
