data_crystal

_cell_length_a 4.79820
_cell_length_b 14.65460
_cell_length_c 33.04540
_cell_angle_alpha 90.00000
_cell_angle_beta  90.00000
_cell_angle_gamma 92.67600

_symmetry_space_group_name_	'P 1'
_symmetry_space_group_name_H-M	'P 1'

loop_
_symmetry_equiv_pos_as_xyz
  x,y,z

loop_
_atom_site_label
_atom_site_type_symbol
_atom_site_fract_x
_atom_site_fract_y
_atom_site_fract_z
_atom_site_charge
Zn	Zn	0.79783 0.41020 0.47170 1.24700
Zn	Zn	0.79783 0.41020 0.02830 1.24700
Zn	Zn	0.20217 0.58980 0.97170 1.24700
Zn	Zn	0.20217 0.58980 0.52830 1.24700
H 	H 	0.82252 0.86785 0.15117 0.05000
H 	H 	0.68747 0.36073 0.37363 -0.01000
H 	H 	0.84605 0.90738 0.65622 0.08400
H 	H 	0.27718 0.45358 0.61553 -0.00200
H 	H 	0.67300 0.61223 0.17922 0.07800
H 	H 	0.66790 0.21133 0.84367 0.08100
H 	H 	0.72282 0.54642 0.11553 -0.00200
H 	H 	0.60895 0.27657 0.59272 0.00800
H 	H 	0.65785 0.01267 0.15122 0.04700
H 	H 	0.39105 0.72343 0.40728 0.00800
H 	H 	0.60895 0.27657 0.90728 0.00800
H 	H 	0.27718 0.45358 0.88447 -0.00200
H 	H 	0.72282 0.54642 0.38447 -0.00200
H 	H 	0.94865 0.34295 0.75000 0.04900
H 	H 	0.20792 0.72547 0.68303 0.07800
H 	H 	0.67300 0.61223 0.32078 0.07800
H 	H 	0.56685 0.77770 0.75000 0.04300
H 	H 	0.33210 0.78867 0.34367 0.08100
H 	H 	0.84605 0.90738 0.84378 0.08400
H 	H 	0.15395 0.09262 0.34378 0.08400
H 	H 	0.33210 0.78867 0.15633 0.08100
H 	H 	0.95990 0.82190 0.59960 0.00600
H 	H 	0.31253 0.63927 0.62637 -0.01000
H 	H 	0.65785 0.01267 0.34878 0.04700
H 	H 	0.43315 0.22230 0.25000 0.04300
H 	H 	0.39105 0.72343 0.09272 0.00800
H 	H 	0.05135 0.65705 0.25000 0.04900
H 	H 	0.68747 0.36073 0.12637 -0.01000
H 	H 	0.34215 0.98733 0.65122 0.04700
H 	H 	0.79208 0.27453 0.18303 0.07800
H 	H 	0.82252 0.86785 0.34883 0.05000
H 	H 	0.95990 0.82190 0.90040 0.00600
H 	H 	0.32700 0.38777 0.67922 0.07800
H 	H 	0.32700 0.38777 0.82078 0.07800
H 	H 	0.20792 0.72547 0.81697 0.07800
H 	H 	0.66790 0.21133 0.65633 0.08100
H 	H 	0.04010 0.17810 0.40040 0.00600
H 	H 	0.79208 0.27453 0.31697 0.07800
H 	H 	0.34215 0.98733 0.84878 0.04700
H 	H 	0.17748 0.13215 0.84883 0.05000
H 	H 	0.15395 0.09262 0.15622 0.08400
H 	H 	0.04010 0.17810 0.09960 0.00600
H 	H 	0.17748 0.13215 0.65117 0.05000
H 	H 	0.31253 0.63927 0.87363 -0.01000
C 	C 	0.69315 0.98490 0.25000 -0.01100
C 	C 	0.08337 0.59315 0.44515 0.50500
C 	C 	0.73383 0.85302 0.85042 -0.15100
C 	C 	0.93880 0.37170 0.59693 -0.21100
C 	C 	0.50405 0.16160 0.25000 -0.03400
C 	C 	0.54775 0.11970 0.21263 -0.03900
C 	C 	0.20635 0.10470 0.75000 -0.01200
C 	C 	0.98255 0.71800 0.25000 -0.04500
C 	C 	0.51320 0.82665 0.67520 0.08800
C 	C 	0.06120 0.62830 0.40307 -0.21100
C 	C 	0.91663 0.40685 0.55485 0.50500
C 	C 	0.27618 0.33398 0.42945 0.49300
C 	C 	0.84345 0.85060 0.28687 0.02400
C 	C 	0.20915 0.73813 0.14802 -0.14300
C 	C 	0.84345 0.85060 0.21313 0.02500
C 	C 	0.06093 0.23970 0.78745 -0.03500
C 	C 	0.79085 0.26187 0.85198 -0.14300
C 	C 	0.64263 0.02955 0.28688 0.02400
C 	C 	0.36090 0.74583 0.83445 -0.14800
C 	C 	0.35498 0.27815 0.39393 -0.21900
C 	C 	0.35737 0.97045 0.71312 0.02400
C 	C 	0.30883 0.01620 0.82310 -0.05600
C 	C 	0.79202 0.89660 0.17695 -0.05900
C 	C 	0.49595 0.83840 0.75000 -0.03400
C 	C 	0.42177 0.69505 0.63127 0.09700
C 	C 	0.64502 0.72185 0.89393 -0.21900
C 	C 	0.26617 0.14698 0.35042 -0.15100
C 	C 	0.72382 0.66602 0.92945 0.49300
C 	C 	0.54775 0.11970 0.28737 -0.03900
C 	C 	0.73383 0.85302 0.64958 -0.15100
C 	C 	0.69117 0.98380 0.17690 -0.05600
C 	C 	0.80063 0.80163 0.61590 0.09900
C 	C 	0.08337 0.59315 0.05485 0.50500
C 	C 	0.14558 0.40530 0.62358 0.09000
C 	C 	0.45225 0.88030 0.71263 -0.03900
C 	C 	0.35737 0.97045 0.78688 0.02400
C 	C 	0.93880 0.37170 0.90307 -0.21100
C 	C 	0.85442 0.59470 0.12358 0.09000
C 	C 	0.14558 0.40530 0.87642 0.09000
C 	C 	0.51320 0.82665 0.82480 0.08800
C 	C 	0.64502 0.72185 0.60607 -0.21900
C 	C 	0.48680 0.17335 0.32480 0.08800
C 	C 	0.20915 0.73813 0.35198 -0.14300
C 	C 	0.15655 0.14940 0.78687 0.02500
C 	C 	0.17587 0.36615 0.83830 -0.14300
C 	C 	0.24280 0.69907 0.11015 0.09400
C 	C 	0.99377 0.70895 0.32585 0.08000
C 	C 	0.17587 0.36615 0.66170 -0.14300
C 	C 	0.75720 0.30093 0.61015 0.09400
C 	C 	0.48680 0.17335 0.17520 0.08800
C 	C 	0.64263 0.02955 0.21312 0.02400
C 	C 	0.26617 0.14698 0.14958 -0.15100
C 	C 	0.42177 0.69505 0.86873 0.09700
C 	C 	0.99377 0.70895 0.17415 0.08000
C 	C 	0.85442 0.59470 0.37642 0.09000
C 	C 	0.63910 0.25417 0.33445 -0.14800
C 	C 	0.20798 0.10340 0.67695 -0.05900
C 	C 	0.93907 0.76030 0.21255 -0.03500
C 	C 	0.20798 0.10340 0.82305 -0.05900
C 	C 	0.79365 0.89530 0.25000 -0.01200
C 	C 	0.82413 0.63385 0.16170 -0.14300
C 	C 	0.36090 0.74583 0.66555 -0.14800
C 	C 	0.72382 0.66602 0.57055 0.49300
C 	C 	0.35498 0.27815 0.10607 -0.21900
C 	C 	0.45225 0.88030 0.78737 -0.03900
C 	C 	0.06120 0.62830 0.09693 -0.21100
C 	C 	0.00623 0.29105 0.67415 0.08000
C 	C 	0.82413 0.63385 0.33830 -0.14300
C 	C 	0.27618 0.33398 0.07055 0.49300
C 	C 	0.63910 0.25417 0.16555 -0.14800
C 	C 	0.91663 0.40685 0.94515 0.50500
C 	C 	0.75720 0.30093 0.88985 0.09400
C 	C 	0.30685 0.01510 0.75000 -0.01100
C 	C 	0.79085 0.26187 0.64802 -0.14300
C 	C 	0.19937 0.19837 0.38410 0.09900
C 	C 	0.19937 0.19837 0.11590 0.09900
C 	C 	0.69117 0.98380 0.32310 -0.05600
C 	C 	0.80063 0.80163 0.88410 0.09900
C 	C 	0.79202 0.89660 0.32305 -0.05900
C 	C 	0.06093 0.23970 0.71255 -0.03500
C 	C 	0.57823 0.30495 0.13127 0.09700
C 	C 	0.57823 0.30495 0.36873 0.09700
C 	C 	0.24280 0.69907 0.38985 0.09400
C 	C 	0.93907 0.76030 0.28745 -0.03500
C 	C 	0.01745 0.28200 0.75000 -0.04500
C 	C 	0.00623 0.29105 0.82585 0.08000
C 	C 	0.15655 0.14940 0.71313 0.02400
C 	C 	0.30883 0.01620 0.67690 -0.05600
O 	O 	0.24920 0.61517 0.02860 -0.50100
O 	O 	0.07558 0.46068 0.96312 -0.53500
O 	O 	0.42268 0.39498 0.44507 -0.50800
O 	O 	0.92442 0.53932 0.03688 -0.53500
O 	O 	0.24920 0.61517 0.47140 -0.50100
O 	O 	0.42268 0.39498 0.05493 -0.50800
O 	O 	0.75080 0.38483 0.97140 -0.50100
O 	O 	0.95083 0.66982 0.94590 -0.50800
O 	O 	0.04917 0.33018 0.44590 -0.50900
O 	O 	0.07558 0.46068 0.53688 -0.53500
O 	O 	0.95083 0.66982 0.55410 -0.50900
O 	O 	0.04917 0.33018 0.05410 -0.50800
O 	O 	0.75080 0.38483 0.52860 -0.50100
O 	O 	0.57732 0.60502 0.94507 -0.50800
O 	O 	0.57732 0.60502 0.55493 -0.50800
O 	O 	0.92442 0.53932 0.46312 -0.53500
