data_crystal

_cell_length_a 6.86900
_cell_length_b 21.69800
_cell_length_c 21.69800
_cell_angle_alpha 120.00000
_cell_angle_beta  90.00000
_cell_angle_gamma 90.00000

_symmetry_space_group_name_	'P 1'
_symmetry_space_group_name_H-M	'P 1'

loop_
_symmetry_equiv_pos_as_xyz
  x,y,z

loop_
_atom_site_label
_atom_site_type_symbol
_atom_site_fract_x
_atom_site_fract_y
_atom_site_fract_z
_atom_site_charge
Zn	Zn	0.49126 0.60639 0.27947 1.21300
Zn	Zn	0.84207 0.39361 0.67308 1.21300
Zn	Zn	0.17540 0.27947 0.60639 1.21400
Zn	Zn	0.50874 0.32692 0.72053 1.21400
Zn	Zn	0.15793 0.72053 0.32692 1.21400
Zn	Zn	0.82460 0.67308 0.39361 1.21400
H 	H 	0.79287 0.51120 0.39300 0.11200
H 	H 	0.01190 0.44620 0.45290 0.00900
H 	H 	0.87380 0.39300 0.51120 0.10900
H 	H 	0.54047 0.48880 0.88180 0.11200
H 	H 	0.20713 0.11820 0.60700 0.11200
H 	H 	0.65477 0.45290 0.44620 0.00700
H 	H 	0.13603 0.54280 0.45300 0.01700
H 	H 	0.46937 0.91020 0.45720 0.01700
H 	H 	0.34523 0.00670 0.55380 0.00700
H 	H 	0.32143 0.55380 0.00670 0.00700
H 	H 	0.98810 0.99330 0.54710 0.00900
H 	H 	0.67857 0.54710 0.99330 0.00700
H 	H 	0.12620 0.88180 0.48880 0.10900
H 	H 	0.80270 0.54700 0.08980 0.01600
H 	H 	0.53063 0.45300 0.54280 0.01700
H 	H 	0.19730 0.45720 0.91020 0.01600
H 	H 	0.45953 0.60700 0.11820 0.11200
H 	H 	0.86397 0.08980 0.54700 0.01700
C 	C 	0.21203 0.61380 0.17440 0.27600
C 	C 	0.37713 0.49060 0.45510 -0.05100
C 	C 	0.73047 0.09580 0.56020 0.06900
C 	C 	0.04380 0.54490 0.03550 -0.05100
C 	C 	0.34223 0.11320 0.59620 -0.23700
C 	C 	0.45463 0.17440 0.61380 0.27600
C 	C 	0.45193 0.39500 0.61790 0.43900
C 	C 	0.62287 0.03550 0.54490 -0.05100
C 	C 	0.34763 0.57090 0.40600 -0.27600
C 	C 	0.31903 0.40600 0.57090 -0.27500
C 	C 	0.60287 0.90420 0.46440 0.06700
C 	C 	0.12130 0.38620 0.56060 0.27400
C 	C 	0.54807 0.77710 0.38210 0.43900
C 	C 	0.24223 0.56380 0.04650 0.05400
C 	C 	0.28953 0.45510 0.49060 -0.04900
C 	C 	0.67557 0.48300 0.88680 -0.23800
C 	C 	0.90890 0.95350 0.51730 0.05100
C 	C 	0.09110 0.43620 0.48270 0.05100
C 	C 	0.88140 0.60500 0.22290 0.44000
C 	C 	0.26953 0.53560 0.43980 0.06900
C 	C 	0.57557 0.48270 0.43620 0.05400
C 	C 	0.78797 0.43940 0.82560 0.27700
C 	C 	0.65237 0.16490 0.59400 -0.27600
C 	C 	0.68097 0.83510 0.42910 -0.27500
C 	C 	0.87870 0.82560 0.43940 0.27400
C 	C 	0.75777 0.51730 0.95350 0.05400
C 	C 	0.06380 0.46440 0.90420 0.07000
C 	C 	0.39713 0.43980 0.53560 0.06700
C 	C 	0.65777 0.51700 0.40380 -0.23700
C 	C 	0.54537 0.56060 0.38620 0.27600
C 	C 	0.21473 0.61790 0.39500 0.44000
C 	C 	0.99110 0.88680 0.48300 -0.23200
C 	C 	0.00890 0.40380 0.51700 -0.23200
C 	C 	0.42443 0.04650 0.56380 0.05400
C 	C 	0.98570 0.42910 0.83510 -0.27800
C 	C 	0.32443 0.59620 0.11320 -0.23800
C 	C 	0.78527 0.22290 0.60500 0.44000
C 	C 	0.95620 0.50940 0.96450 -0.05200
C 	C 	0.11860 0.38210 0.77710 0.44100
C 	C 	0.01430 0.59400 0.16490 -0.27700
C 	C 	0.71047 0.96450 0.50940 -0.04900
C 	C 	0.93620 0.56020 0.09580 0.07000
O 	O 	0.72207 0.28621 0.63628 -0.57300
O 	O 	0.36433 0.23825 0.64900 -0.57100
O 	O 	0.62620 0.41793 0.62531 -0.48000
O 	O 	0.61127 0.71379 0.35007 -0.57300
O 	O 	0.94460 0.63628 0.28621 -0.57300
O 	O 	0.03100 0.35100 0.58925 -0.57000
O 	O 	0.95953 0.20738 0.58207 -0.48000
O 	O 	0.63567 0.58925 0.35100 -0.57100
O 	O 	0.05540 0.35007 0.71379 -0.57300
O 	O 	0.38873 0.36372 0.64993 -0.57300
O 	O 	0.27793 0.64993 0.36372 -0.57300
O 	O 	0.70713 0.58207 0.20738 -0.48000
O 	O 	0.04047 0.62531 0.41793 -0.47900
O 	O 	0.30233 0.64900 0.23825 -0.57100
O 	O 	0.37380 0.79262 0.37469 -0.48000
O 	O 	0.96900 0.76175 0.41075 -0.57000
O 	O 	0.29287 0.37469 0.79262 -0.48000
O 	O 	0.69767 0.41075 0.76175 -0.57200
