data_crystal

_cell_length_a 13.23400
_cell_length_b 13.82490
_cell_length_c 22.79470
_cell_angle_alpha 107.64300
_cell_angle_beta  106.87500
_cell_angle_gamma 90.00000

_symmetry_space_group_name_	'P 1'
_symmetry_space_group_name_H-M	'P 1'

loop_
_symmetry_equiv_pos_as_xyz
  x,y,z

loop_
_atom_site_label
_atom_site_type_symbol
_atom_site_fract_x
_atom_site_fract_y
_atom_site_fract_z
_atom_site_charge
Cd	Cd	0.15160 0.50000 -0.00000 1.20900
Cd	Cd	0.16582 0.23430 0.96696 1.23400
Cd	Cd	0.19886 0.76570 0.03304 1.19100
Cd	Cd	0.20740 0.00000 -0.00000 1.09500
H 	H 	0.92370 0.99020 0.76840 0.06800
H 	H 	0.17950 0.86960 0.85740 0.00600
H 	H 	0.53810 0.43040 0.36440 0.09800
H 	H 	0.11270 0.26780 0.66060 0.08500
H 	H 	0.04200 0.26570 0.24180 0.05400
H 	H 	0.30570 0.25920 0.39560 0.04500
H 	H 	0.69790 0.60560 0.64820 0.05600
H 	H 	0.43230 0.75300 0.23860 0.03700
H 	H 	0.83100 0.51740 0.88400 0.05200
H 	H 	0.34800 0.78360 0.89780 0.02200
H 	H 	0.24210 0.48350 0.81780 0.03800
H 	H 	0.83760 0.59780 0.51360 0.05600
H 	H 	0.15310 0.57480 0.16400 0.02500
H 	H 	0.90810 0.44610 0.73520 0.09900
H 	H 	0.75220 0.38820 0.23400 0.06100
H 	H 	0.04970 0.39440 0.35180 0.07000
H 	H 	0.38740 0.78120 0.80360 0.07800
H 	H 	0.42430 0.51650 0.18220 0.03100
H 	H 	0.45020 0.21640 0.10220 -0.00800
H 	H 	0.31270 0.44410 0.28840 0.05400
H 	H 	0.15530 0.00980 0.23160 0.00100
H 	H 	0.95110 0.75460 0.84720 0.03700
H 	H 	0.58380 0.21880 0.19640 0.06200
H 	H 	0.68010 0.49710 0.79520 0.06400
H 	H 	0.32210 0.13040 0.14260 -0.05900
H 	H 	0.18150 0.16670 0.31340 0.08100
H 	H 	0.98320 0.41770 0.43920 0.06200
H 	H 	0.86810 0.83330 0.68660 0.05600
H 	H 	0.17370 0.56960 0.63560 0.10100
H 	H 	0.34930 0.76950 0.42820 0.10500
H 	H 	0.32400 0.40220 0.48640 0.06300
H 	H 	0.98910 0.42520 0.83600 -0.00700
H 	H 	0.88490 0.50290 0.20480 0.05500
H 	H 	0.17290 0.55390 0.26480 0.07700
H 	H 	0.02430 0.55590 0.71160 0.08400
H 	H 	0.94700 0.48260 0.11600 0.03900
H 	H 	0.54400 0.58230 0.56080 0.07100
H 	H 	0.10390 0.24540 0.15280 0.03600
H 	H 	0.12380 0.71270 0.77560 0.05300
H 	H 	0.80020 0.73430 0.75820 0.06500
H 	H 	0.91010 0.74080 0.60440 0.06400
H 	H 	0.92110 0.23050 0.57180 0.08300
H 	H 	0.51820 0.61180 0.76600 0.06600
H 	H 	0.34820 0.28730 0.22440 0.08600
H 	H 	0.19370 0.24700 0.76140 0.02300
H 	H 	0.45210 0.73220 0.33940 0.07600
H 	H 	0.55780 0.51880 0.27620 0.07200
H 	H 	0.28160 0.48120 0.72380 0.07000
C 	C 	0.29080 0.66590 0.19180 -0.11200
C 	C 	0.11630 0.86220 0.82280 -0.01300
C 	C 	0.96610 0.40570 0.74060 -0.19400
C 	C 	0.95760 0.38620 0.23160 0.01100
C 	C 	0.75960 0.40800 0.32760 0.00200
C 	C 	0.73520 0.54940 0.80580 -0.07800
C 	C 	0.53870 0.58830 0.60240 -0.05400
C 	C 	0.79900 0.39420 0.27560 -0.08400
C 	C 	0.34420 0.70290 0.43160 -0.14000
C 	C 	0.91860 0.67420 0.60780 -0.07300
C 	C 	0.97580 0.39790 0.34560 -0.07400
C 	C 	0.39140 0.70020 0.30380 -0.10800
C 	C 	0.32910 0.50810 0.44120 0.04100
C 	C 	0.05950 0.29770 0.16340 -0.01300
C 	C 	0.42470 0.36620 0.13340 -0.11600
C 	C 	0.99830 0.66270 0.93640 0.22700
C 	C 	0.43200 0.59200 0.67240 -0.00100
C 	C 	0.02260 0.30970 0.21620 -0.06600
C 	C 	0.78860 0.43060 0.44040 -0.05200
C 	C 	0.84480 0.40690 0.50480 -0.02900
C 	C 	0.89610 0.70230 0.83660 0.00000
C 	C 	0.47210 0.27780 0.13760 0.04000
C 	C 	0.32170 0.41070 0.44620 -0.06000
C 	C 	0.34750 0.69050 0.49020 0.17500
C 	C 	0.55140 0.27920 0.19340 -0.11900
C 	C 	0.21260 0.95490 0.12500 0.37300
C 	C 	0.33450 0.72220 0.86240 0.03300
C 	C 	0.90720 0.38910 0.28460 0.02800
C 	C 	0.19450 0.06610 0.23020 0.09100
C 	C 	0.33820 0.63100 0.75480 0.04900
C 	C 	0.52340 0.60580 0.72440 -0.07400
C 	C 	0.26730 0.24180 0.27660 0.08600
C 	C 	0.96430 0.93390 0.76980 -0.02600
C 	C 	0.21380 0.60670 0.19960 0.04300
C 	C 	0.13580 0.28740 0.75620 0.07100
C 	C 	0.24140 0.57310 0.62940 -0.15500
C 	C 	0.93630 0.41170 0.39760 -0.04300
C 	C 	0.22550 0.59430 0.25940 -0.11100
C 	C 	0.45660 0.45600 0.18500 0.03100
C 	C 	0.06190 0.33730 0.06360 0.25100
C 	C 	0.92940 0.45060 0.19420 -0.07200
C 	C 	0.09900 0.33410 0.80820 -0.14500
C 	C 	0.27160 0.54400 0.81500 0.02500
C 	C 	0.34480 0.36930 0.07140 0.30700
C 	C 	0.63020 0.60210 0.65440 -0.04600
C 	C 	0.72600 0.61380 0.76840 0.03500
C 	C 	0.61200 0.42690 0.37060 -0.15600
C 	C 	0.34820 0.56940 0.55960 -0.05000
C 	C 	0.21000 0.15930 0.27880 -0.15600
C 	C 	0.82820 0.41680 0.38860 0.03200
C 	C 	0.14360 0.30790 0.87040 0.35800
C 	C 	0.27320 0.69210 0.12960 0.35500
C 	C 	0.33340 0.61800 0.37760 0.02200
C 	C 	0.08320 0.76900 0.77420 -0.05400
C 	C 	0.93120 0.84070 0.72120 -0.05800
C 	C 	0.58340 0.36900 0.24520 0.04900
C 	C 	0.23620 0.05530 0.17940 -0.21400
C 	C 	0.97410 0.66180 0.66660 0.04700
C 	C 	0.05680 0.94470 0.82060 -0.03700
C 	C 	0.96630 0.43860 0.14160 -0.02500
C 	C 	0.80640 0.69030 0.78380 -0.08100
C 	C 	0.32580 0.52060 0.38240 -0.00500
C 	C 	0.53600 0.45740 0.24100 -0.11100
C 	C 	0.87550 0.58930 0.55380 -0.03000
C 	C 	0.94340 0.47940 0.61760 0.03500
C 	C 	0.34000 0.59310 0.49520 -0.03900
C 	C 	0.29500 0.54260 0.75900 -0.10300
C 	C 	0.29350 0.13780 0.17720 0.09400
C 	C 	0.65150 0.41310 0.31860 0.02200
C 	C 	0.95580 0.38200 0.62240 -0.02300
C 	C 	0.43960 0.58320 0.61140 0.03900
C 	C 	0.85730 0.30950 0.50980 0.16000
C 	C 	0.30900 0.23100 0.22580 -0.16200
C 	C 	0.01420 0.39330 0.80040 0.11800
C 	C 	0.24910 0.56430 0.56860 0.18000
C 	C 	0.91260 0.29710 0.56840 -0.11900
C 	C 	0.82470 0.56140 0.85840 -0.00500
C 	C 	0.03130 0.36210 0.12600 -0.04300
C 	C 	0.37960 0.71260 0.24380 0.04000
C 	C 	0.99070 0.75820 0.72340 -0.00000
C 	C 	0.00290 0.35890 0.68860 0.11300
C 	C 	0.30750 0.33820 0.33340 -0.00600
C 	C 	0.88790 0.49190 0.55880 0.01300
C 	C 	0.31500 0.43560 0.32860 -0.06500
C 	C 	0.68050 0.43570 0.43140 0.17900
C 	C 	0.27340 0.63070 0.92860 0.29800
C 	C 	0.90530 0.63790 0.87400 -0.04200
C 	C 	0.31430 0.64110 0.31140 0.05600
C 	C 	0.08760 0.29980 0.69620 -0.15100
C 	C 	0.98640 0.56440 0.67140 -0.13000
C 	C 	0.29130 0.63380 0.86660 -0.09400
C 	C 	0.62260 0.61090 0.71540 0.01900
C 	C 	0.08760 0.04510 0.87500 0.25600
C 	C 	0.33290 0.58690 0.68140 0.02600
C 	C 	0.31080 0.32580 0.39220 -0.03600
C 	C 	0.35800 0.72080 0.80660 -0.10500
O 	O 	0.10630 0.34750 0.91520 -0.49800
O 	O 	0.30670 0.71910 0.97220 -0.38900
O 	O 	0.33450 0.28090 0.02780 -0.46900
O 	O 	0.14840 0.88220 0.11980 -0.38000
O 	O 	0.02080 0.58680 0.95960 -0.36400
O 	O 	0.06120 0.41320 0.04040 -0.44000
O 	O 	0.02610 0.75980 0.94880 -0.35000
O 	O 	0.64940 0.43300 0.48080 -0.20000
O 	O 	0.33060 0.76180 0.12500 -0.37100
O 	O 	0.84310 0.21890 0.46460 -0.19700
O 	O 	0.37850 0.78110 0.53540 -0.17900
O 	O 	0.07730 0.24020 0.05120 -0.43000
O 	O 	0.26210 0.93510 0.08300 -0.57600
O 	O 	0.17910 0.06490 0.91700 -0.53100
O 	O 	0.20560 0.23820 0.87500 -0.35300
O 	O 	0.30310 0.44950 0.06060 -0.42900
O 	O 	0.24250 0.55050 0.93940 -0.37700
O 	O 	0.16860 0.56700 0.51920 -0.19400
O 	O 	0.19110 0.65250 0.08480 -0.54200
O 	O 	0.02860 0.11780 0.88020 -0.34500
