data_crystal

_cell_length_a 18.94790
_cell_length_b 18.94790
_cell_length_c 35.91270
_cell_angle_alpha 90.00000
_cell_angle_beta  90.00000
_cell_angle_gamma 120.00000

_symmetry_space_group_name_	'P 1'
_symmetry_space_group_name_H-M	'P 1'

loop_
_symmetry_equiv_pos_as_xyz
  x,y,z

loop_
_atom_site_label
_atom_site_type_symbol
_atom_site_fract_x
_atom_site_fract_y
_atom_site_fract_z
_atom_site_charge
Zn	Zn	0.04939 0.52470 0.03360 1.22200
Zn	Zn	0.04939 0.52470 0.46640 1.22200
Zn	Zn	0.52469 0.47530 0.96640 1.22200
Zn	Zn	0.52469 0.47530 0.53360 1.22200
Zn	Zn	0.47531 0.95062 0.03360 1.22200
Zn	Zn	0.95061 0.47530 0.53360 1.22200
Zn	Zn	0.47531 0.52470 0.03360 1.22200
Zn	Zn	0.52469 0.04938 0.53360 1.22200
Zn	Zn	0.47531 0.52470 0.46640 1.22200
Zn	Zn	0.47531 0.95062 0.46640 1.22200
Zn	Zn	0.95061 0.47530 0.96640 1.22200
Zn	Zn	0.52469 0.04938 0.96640 1.22200
Cr	Cr	0.55008 0.27504 0.75000 1.55300
Cr	Cr	0.44992 0.72496 0.25000 1.55300
Cr	Cr	0.27504 0.72496 0.25000 1.55300
Cr	Cr	0.72496 0.27504 0.75000 1.55300
Cr	Cr	0.27504 0.55008 0.25000 1.55300
Cr	Cr	0.72496 0.44992 0.75000 1.55300
H 	H 	0.16810 0.83190 0.61570 0.08200
H 	H 	0.47460 0.23730 0.00300 0.03100
H 	H 	0.35050 0.90530 0.40870 0.01200
H 	H 	0.46670 0.14320 0.65180 0.06000
H 	H 	0.67650 0.14320 0.84820 0.06000
H 	H 	0.67650 0.14320 0.65180 0.06000
H 	H 	0.16810 0.83190 0.88430 0.08200
H 	H 	0.08470 0.70410 0.59010 0.01700
H 	H 	0.66380 0.83190 0.88430 0.08200
H 	H 	0.83190 0.66380 0.38430 0.08200
H 	H 	0.16810 0.33620 0.61570 0.08200
H 	H 	0.46670 0.14320 0.84820 0.06000
H 	H 	0.76270 0.23730 0.49700 0.03100
H 	H 	0.09470 0.64950 0.40870 0.01200
H 	H 	0.08470 0.38060 0.90990 0.01700
H 	H 	0.08470 0.70410 0.90990 0.01700
H 	H 	0.55480 0.90530 0.09130 0.01200
H 	H 	0.14320 0.46670 0.15180 0.06000
H 	H 	0.55480 0.90530 0.40870 0.01200
H 	H 	0.09470 0.64950 0.09130 0.01200
H 	H 	0.76270 0.23730 0.00300 0.03100
H 	H 	0.83190 0.66380 0.11570 0.08200
H 	H 	0.44520 0.35050 0.59130 0.01200
H 	H 	0.90530 0.55480 0.59130 0.01200
H 	H 	0.64950 0.55480 0.90870 0.01200
H 	H 	0.64950 0.09470 0.59130 0.01200
H 	H 	0.16810 0.33620 0.88430 0.08200
H 	H 	0.44520 0.09470 0.59130 0.01200
H 	H 	0.46670 0.32350 0.84820 0.06000
H 	H 	0.35050 0.90530 0.09130 0.01200
H 	H 	0.64950 0.55480 0.59130 0.01200
H 	H 	0.47460 0.23730 0.49700 0.03100
H 	H 	0.85680 0.32350 0.65180 0.06000
H 	H 	0.29590 0.38060 0.90990 0.01700
H 	H 	0.70410 0.61940 0.09010 0.01700
H 	H 	0.23730 0.76270 0.99700 0.03100
H 	H 	0.32350 0.85680 0.34820 0.06000
H 	H 	0.67650 0.53330 0.84820 0.06000
H 	H 	0.76270 0.52540 0.49700 0.03100
H 	H 	0.23730 0.76270 0.50300 0.03100
H 	H 	0.91530 0.29590 0.09010 0.01700
H 	H 	0.90530 0.35050 0.59130 0.01200
H 	H 	0.83190 0.16810 0.38430 0.08200
H 	H 	0.70410 0.08470 0.40990 0.01700
H 	H 	0.91530 0.61940 0.40990 0.01700
H 	H 	0.09470 0.44520 0.40870 0.01200
H 	H 	0.38060 0.29590 0.09010 0.01700
H 	H 	0.29590 0.91530 0.90990 0.01700
H 	H 	0.61940 0.91530 0.90990 0.01700
H 	H 	0.32350 0.46670 0.34820 0.06000
H 	H 	0.53330 0.85680 0.34820 0.06000
H 	H 	0.53330 0.67650 0.34820 0.06000
H 	H 	0.14320 0.67650 0.34820 0.06000
H 	H 	0.66380 0.83190 0.61570 0.08200
H 	H 	0.38060 0.08470 0.09010 0.01700
H 	H 	0.33620 0.16810 0.11570 0.08200
H 	H 	0.85680 0.53330 0.65180 0.06000
H 	H 	0.35050 0.44520 0.09130 0.01200
H 	H 	0.35050 0.44520 0.40870 0.01200
H 	H 	0.52540 0.76270 0.50300 0.03100
H 	H 	0.33620 0.16810 0.38430 0.08200
H 	H 	0.38060 0.08470 0.40990 0.01700
H 	H 	0.55480 0.64950 0.40870 0.01200
H 	H 	0.44520 0.09470 0.90870 0.01200
H 	H 	0.14320 0.67650 0.15180 0.06000
H 	H 	0.46670 0.32350 0.65180 0.06000
H 	H 	0.53330 0.67650 0.15180 0.06000
H 	H 	0.53330 0.85680 0.15180 0.06000
H 	H 	0.32350 0.46670 0.15180 0.06000
H 	H 	0.52540 0.76270 0.99700 0.03100
H 	H 	0.29590 0.38060 0.59010 0.01700
H 	H 	0.38060 0.29590 0.40990 0.01700
H 	H 	0.09470 0.44520 0.09130 0.01200
H 	H 	0.61940 0.70410 0.90990 0.01700
H 	H 	0.91530 0.61940 0.09010 0.01700
H 	H 	0.70410 0.08470 0.09010 0.01700
H 	H 	0.83190 0.16810 0.11570 0.08200
H 	H 	0.14320 0.46670 0.34820 0.06000
H 	H 	0.08470 0.38060 0.59010 0.01700
H 	H 	0.90530 0.55480 0.90870 0.01200
H 	H 	0.44520 0.35050 0.90870 0.01200
H 	H 	0.23730 0.47460 0.99700 0.03100
H 	H 	0.61940 0.91530 0.59010 0.01700
H 	H 	0.91530 0.29590 0.40990 0.01700
H 	H 	0.85680 0.53330 0.84820 0.06000
H 	H 	0.76270 0.52540 0.00300 0.03100
H 	H 	0.55480 0.64950 0.09130 0.01200
H 	H 	0.90530 0.35050 0.90870 0.01200
H 	H 	0.85680 0.32350 0.84820 0.06000
H 	H 	0.32350 0.85680 0.15180 0.06000
H 	H 	0.67650 0.53330 0.65180 0.06000
H 	H 	0.61940 0.70410 0.59010 0.01700
H 	H 	0.70410 0.61940 0.40990 0.01700
H 	H 	0.23730 0.47460 0.50300 0.03100
H 	H 	0.64950 0.09470 0.90870 0.01200
H 	H 	0.29590 0.91530 0.59010 0.01700
C 	C 	0.45390 0.35810 0.02595 0.42500
C 	C 	0.59247 0.18494 0.80366 0.40800
C 	C 	0.89470 0.50620 0.89625 0.05100
C 	C 	0.27800 0.84860 0.95638 -0.16200
C 	C 	0.42638 0.85276 0.15805 -0.06100
C 	C 	0.72200 0.57060 0.04362 -0.16200
C 	C 	0.74200 0.60890 0.42239 0.08900
C 	C 	0.50590 0.37230 0.86015 -0.04900
C 	C 	0.55170 0.77585 0.97343 0.10100
C 	C 	0.86690 0.60890 0.42239 0.08900
C 	C 	0.09580 0.64190 0.52595 0.42500
C 	C 	0.57060 0.72200 0.95638 -0.16200
C 	C 	0.40753 0.81506 0.19634 0.40800
C 	C 	0.81506 0.40753 0.69634 0.40800
C 	C 	0.37230 0.50590 0.13985 -0.04900
C 	C 	0.25800 0.86690 0.92239 0.08900
C 	C 	0.10530 0.61150 0.39625 0.05100
C 	C 	0.15140 0.72200 0.54362 -0.16100
C 	C 	0.86640 0.37230 0.86015 -0.04900
C 	C 	0.62770 0.49410 0.86015 -0.04900
C 	C 	0.50620 0.89470 0.10375 0.05100
C 	C 	0.57362 0.14724 0.65805 -0.06100
C 	C 	0.38850 0.89470 0.10375 0.05100
C 	C 	0.84860 0.27800 0.04362 -0.16200
C 	C 	0.18400 0.36800 0.59370 -0.14800
C 	C 	0.77585 0.22415 0.47343 0.10100
C 	C 	0.13360 0.50590 0.36015 -0.04900
C 	C 	0.15140 0.42940 0.95638 -0.16200
C 	C 	0.35810 0.45390 0.52595 0.42500
C 	C 	0.50590 0.13360 0.63985 -0.04900
C 	C 	0.57362 0.42638 0.84195 -0.06100
C 	C 	0.13360 0.50590 0.13985 -0.04900
C 	C 	0.77585 0.22415 0.02657 0.10100
C 	C 	0.22415 0.44830 0.52657 0.10100
C 	C 	0.49380 0.38850 0.89625 0.05100
C 	C 	0.13310 0.39110 0.57761 0.08900
C 	C 	0.84860 0.27800 0.45638 -0.16100
C 	C 	0.38850 0.89470 0.39625 0.05100
C 	C 	0.86640 0.49410 0.86015 -0.04900
C 	C 	0.15140 0.72200 0.95638 -0.16200
C 	C 	0.54610 0.64190 0.97405 0.42500
C 	C 	0.50620 0.89470 0.39625 0.05100
C 	C 	0.57060 0.72200 0.54362 -0.16100
C 	C 	0.89470 0.38850 0.60375 0.05100
C 	C 	0.49380 0.10530 0.89625 0.05100
C 	C 	0.10530 0.61150 0.10375 0.05100
C 	C 	0.35810 0.45390 0.97405 0.42500
C 	C 	0.62770 0.13360 0.86015 -0.04900
C 	C 	0.37230 0.50590 0.36015 -0.04900
C 	C 	0.40753 0.81506 0.30366 0.40800
C 	C 	0.25800 0.86690 0.57761 0.08900
C 	C 	0.86690 0.60890 0.07761 0.08900
C 	C 	0.59247 0.18494 0.69634 0.40800
C 	C 	0.13310 0.74200 0.57761 0.08900
C 	C 	0.27800 0.84860 0.54362 -0.16100
C 	C 	0.74200 0.60890 0.07761 0.08900
C 	C 	0.72200 0.57060 0.45638 -0.16100
C 	C 	0.25800 0.39110 0.92239 0.08900
C 	C 	0.42638 0.85276 0.34195 -0.06100
C 	C 	0.50620 0.61150 0.10375 0.05100
C 	C 	0.86640 0.37230 0.63985 -0.04900
C 	C 	0.45390 0.35810 0.47405 0.42500
C 	C 	0.74200 0.13310 0.07761 0.08900
C 	C 	0.90420 0.35810 0.47405 0.42500
C 	C 	0.49380 0.10530 0.60375 0.05100
C 	C 	0.81506 0.40753 0.80366 0.40800
C 	C 	0.42940 0.27800 0.04362 -0.16200
C 	C 	0.55170 0.77585 0.52657 0.10100
C 	C 	0.85276 0.42638 0.65805 -0.06100
C 	C 	0.54610 0.90420 0.52595 0.42500
C 	C 	0.45390 0.09580 0.02595 0.42500
C 	C 	0.57362 0.42638 0.65805 -0.06100
C 	C 	0.18400 0.36800 0.90630 -0.14800
C 	C 	0.49410 0.86640 0.36015 -0.04900
C 	C 	0.57060 0.84860 0.95638 -0.16200
C 	C 	0.60890 0.86690 0.92239 0.08900
C 	C 	0.84860 0.57060 0.04362 -0.16200
C 	C 	0.60890 0.86690 0.57761 0.08900
C 	C 	0.86640 0.49410 0.63985 -0.04900
C 	C 	0.77585 0.55170 0.02657 0.10100
C 	C 	0.18494 0.59247 0.30366 0.40800
C 	C 	0.81600 0.18400 0.40630 -0.14800
C 	C 	0.54610 0.90420 0.97405 0.42500
C 	C 	0.72200 0.15140 0.45638 -0.16100
C 	C 	0.64190 0.54610 0.47405 0.42500
C 	C 	0.64190 0.09580 0.47405 0.42500
C 	C 	0.42638 0.57362 0.34195 -0.06100
C 	C 	0.90420 0.54610 0.47405 0.42500
C 	C 	0.18400 0.81600 0.59370 -0.14800
C 	C 	0.35810 0.90420 0.52595 0.42500
C 	C 	0.89470 0.50620 0.60375 0.05100
C 	C 	0.61150 0.10530 0.60375 0.05100
C 	C 	0.40753 0.59247 0.30366 0.40800
C 	C 	0.49410 0.62770 0.13985 -0.04900
C 	C 	0.61150 0.10530 0.89625 0.05100
C 	C 	0.59247 0.40753 0.80366 0.40800
C 	C 	0.42940 0.15140 0.04362 -0.16200
C 	C 	0.14724 0.57362 0.15805 -0.06100
C 	C 	0.10530 0.49380 0.39625 0.05100
C 	C 	0.25800 0.39110 0.57761 0.08900
C 	C 	0.39110 0.13310 0.07761 0.08900
C 	C 	0.62770 0.49410 0.63985 -0.04900
C 	C 	0.62770 0.13360 0.63985 -0.04900
C 	C 	0.44830 0.22415 0.47343 0.10100
C 	C 	0.09580 0.45390 0.97405 0.42500
C 	C 	0.13360 0.62770 0.36015 -0.04900
C 	C 	0.09580 0.64190 0.97405 0.42500
C 	C 	0.54610 0.64190 0.52595 0.42500
C 	C 	0.37230 0.86640 0.36015 -0.04900
C 	C 	0.27800 0.42940 0.54362 -0.16100
C 	C 	0.81600 0.63200 0.09370 -0.14800
C 	C 	0.38850 0.49380 0.10375 0.05100
C 	C 	0.86690 0.25800 0.07761 0.08900
C 	C 	0.39110 0.25800 0.07761 0.08900
C 	C 	0.39110 0.25800 0.42239 0.08900
C 	C 	0.27800 0.42940 0.95638 -0.16200
C 	C 	0.86690 0.25800 0.42239 0.08900
C 	C 	0.38850 0.49380 0.39625 0.05100
C 	C 	0.81600 0.63200 0.40630 -0.14800
C 	C 	0.37230 0.86640 0.13985 -0.04900
C 	C 	0.57362 0.14724 0.84195 -0.06100
C 	C 	0.36800 0.18400 0.09370 -0.14800
C 	C 	0.13360 0.62770 0.13985 -0.04900
C 	C 	0.15140 0.42940 0.54362 -0.16100
C 	C 	0.89470 0.38850 0.89625 0.05100
C 	C 	0.44830 0.22415 0.02657 0.10100
C 	C 	0.39110 0.13310 0.42239 0.08900
C 	C 	0.77585 0.55170 0.47343 0.10100
C 	C 	0.18400 0.81600 0.90630 -0.14800
C 	C 	0.09580 0.45390 0.52595 0.42500
C 	C 	0.10530 0.49380 0.10375 0.05100
C 	C 	0.14724 0.57362 0.34195 -0.06100
C 	C 	0.63200 0.81600 0.90630 -0.14800
C 	C 	0.42940 0.15140 0.45638 -0.16100
C 	C 	0.13310 0.74200 0.92239 0.08900
C 	C 	0.49410 0.62770 0.36015 -0.04900
C 	C 	0.40753 0.59247 0.19634 0.40800
C 	C 	0.22415 0.44830 0.97343 0.10100
C 	C 	0.50590 0.37230 0.63985 -0.04900
C 	C 	0.49380 0.38850 0.60375 0.05100
C 	C 	0.59247 0.40753 0.69634 0.40800
C 	C 	0.90420 0.54610 0.02595 0.42500
C 	C 	0.60890 0.74200 0.92239 0.08900
C 	C 	0.63200 0.81600 0.59370 -0.14800
C 	C 	0.42638 0.57362 0.15805 -0.06100
C 	C 	0.13310 0.39110 0.92239 0.08900
C 	C 	0.64190 0.09580 0.02595 0.42500
C 	C 	0.35810 0.90420 0.97405 0.42500
C 	C 	0.64190 0.54610 0.02595 0.42500
C 	C 	0.72200 0.15140 0.04362 -0.16200
C 	C 	0.22415 0.77585 0.52657 0.10100
C 	C 	0.81600 0.18400 0.09370 -0.14800
C 	C 	0.18494 0.59247 0.19634 0.40800
C 	C 	0.50620 0.61150 0.39625 0.05100
C 	C 	0.84860 0.57060 0.45638 -0.16100
C 	C 	0.50590 0.13360 0.86015 -0.04900
C 	C 	0.36800 0.18400 0.40630 -0.14800
C 	C 	0.60890 0.74200 0.57761 0.08900
C 	C 	0.49410 0.86640 0.13985 -0.04900
C 	C 	0.61150 0.50620 0.89625 0.05100
C 	C 	0.85276 0.42638 0.84195 -0.06100
C 	C 	0.45390 0.09580 0.47405 0.42500
C 	C 	0.57060 0.84860 0.54362 -0.16100
C 	C 	0.61150 0.50620 0.60375 0.05100
C 	C 	0.42940 0.27800 0.45638 -0.16100
C 	C 	0.90420 0.35810 0.02595 0.42500
C 	C 	0.74200 0.13310 0.42239 0.08900
C 	C 	0.22415 0.77585 0.97343 0.10100
N 	N 	0.09262 0.54631 0.41412 -0.24100
N 	N 	0.45369 0.90738 0.08588 -0.24100
N 	N 	0.54631 0.09262 0.58588 -0.24100
N 	N 	0.54631 0.09262 0.91412 -0.24100
N 	N 	0.54631 0.45369 0.91412 -0.24100
N 	N 	0.45369 0.90738 0.41412 -0.24100
N 	N 	0.09262 0.54631 0.08588 -0.24100
N 	N 	0.54631 0.45369 0.58588 -0.24100
N 	N 	0.45369 0.54631 0.41412 -0.24100
N 	N 	0.90738 0.45369 0.91412 -0.24100
N 	N 	0.45369 0.54631 0.08588 -0.24100
N 	N 	0.90738 0.45369 0.58588 -0.24100
O 	O 	0.59180 0.03530 0.45613 -0.47900
O 	O 	0.45933 0.79994 0.21026 -0.51600
O 	O 	0.48277 0.11362 0.50637 -0.46600
O 	O 	0.96470 0.55650 0.04387 -0.47900
O 	O 	0.44350 0.40820 0.45613 -0.47900
O 	O 	0.65939 0.20006 0.71026 -0.51600
O 	O 	0.63085 0.11362 0.50637 -0.46600
O 	O 	0.11362 0.63085 0.00637 -0.46600
O 	O 	0.48277 0.36915 0.50637 -0.46600
O 	O 	0.36915 0.88638 0.49363 -0.46600
O 	O 	0.65939 0.45933 0.71026 -0.51600
O 	O 	0.45933 0.79994 0.28974 -0.51600
O 	O 	0.88638 0.36915 0.50637 -0.46600
O 	O 	0.33333 0.66666 0.25000 -0.81300
O 	O 	0.88638 0.36915 0.99363 -0.46600
O 	O 	0.79994 0.34061 0.71026 -0.51600
O 	O 	0.88638 0.51723 0.50637 -0.46600
O 	O 	0.44350 0.40820 0.04387 -0.47900
O 	O 	0.55650 0.59180 0.95613 -0.47900
O 	O 	0.96470 0.55650 0.45613 -0.47900
O 	O 	0.79994 0.34061 0.78974 -0.51600
O 	O 	0.59180 0.03530 0.04387 -0.47900
O 	O 	0.79994 0.45933 0.71026 -0.51600
O 	O 	0.65939 0.45933 0.78974 -0.51600
O 	O 	0.66667 0.33334 0.75000 -0.81300
O 	O 	0.55650 0.59180 0.54387 -0.47900
O 	O 	0.03530 0.44350 0.54387 -0.47900
O 	O 	0.11362 0.63085 0.49363 -0.46600
O 	O 	0.63085 0.51723 0.99363 -0.46600
O 	O 	0.59180 0.55650 0.04387 -0.47900
O 	O 	0.11362 0.48277 0.00637 -0.46600
O 	O 	0.55650 0.96470 0.54387 -0.47900
O 	O 	0.79994 0.45933 0.78974 -0.51600
O 	O 	0.03530 0.59180 0.54387 -0.47900
O 	O 	0.36915 0.88638 0.00637 -0.46600
O 	O 	0.20006 0.65939 0.28974 -0.51600
O 	O 	0.51723 0.88638 0.00637 -0.46600
O 	O 	0.54067 0.20006 0.71026 -0.51600
O 	O 	0.44350 0.03530 0.04387 -0.47900
O 	O 	0.96470 0.40820 0.04387 -0.47900
O 	O 	0.45933 0.65939 0.21026 -0.51600
O 	O 	0.54067 0.34061 0.78974 -0.51600
O 	O 	0.20006 0.54067 0.28974 -0.51600
O 	O 	0.40820 0.96470 0.54387 -0.47900
O 	O 	0.36915 0.48277 0.00637 -0.46600
O 	O 	0.03530 0.44350 0.95613 -0.47900
O 	O 	0.34061 0.79994 0.21026 -0.51600
O 	O 	0.51723 0.63085 0.49363 -0.46600
O 	O 	0.55650 0.96470 0.95613 -0.47900
O 	O 	0.03530 0.59180 0.95613 -0.47900
O 	O 	0.40820 0.44350 0.95613 -0.47900
O 	O 	0.88638 0.51723 0.99363 -0.46600
O 	O 	0.65939 0.20006 0.78974 -0.51600
O 	O 	0.63085 0.11362 0.99363 -0.46600
O 	O 	0.51723 0.63085 0.00637 -0.46600
O 	O 	0.34061 0.54067 0.21026 -0.51600
O 	O 	0.34061 0.79994 0.28974 -0.51600
O 	O 	0.48277 0.36915 0.99363 -0.46600
O 	O 	0.40820 0.96470 0.95613 -0.47900
O 	O 	0.36915 0.48277 0.49363 -0.46600
O 	O 	0.48277 0.11362 0.99363 -0.46600
O 	O 	0.20006 0.54067 0.21026 -0.51600
O 	O 	0.63085 0.51723 0.50637 -0.46600
O 	O 	0.45933 0.65939 0.28974 -0.51600
O 	O 	0.96470 0.40820 0.45613 -0.47900
O 	O 	0.44350 0.03530 0.45613 -0.47900
O 	O 	0.51723 0.88638 0.49363 -0.46600
O 	O 	0.20006 0.65939 0.21026 -0.51600
O 	O 	0.11362 0.48277 0.49363 -0.46600
O 	O 	0.59180 0.55650 0.45613 -0.47900
O 	O 	0.54067 0.34061 0.71026 -0.51600
O 	O 	0.54067 0.20006 0.78974 -0.51600
O 	O 	0.34061 0.54067 0.28974 -0.51600
O 	O 	0.40820 0.44350 0.54387 -0.47900
