data_crystal

_cell_length_a 9.91500
_cell_length_b 18.65000
_cell_length_c 20.34100
_cell_angle_alpha 88.70200
_cell_angle_beta  84.51400
_cell_angle_gamma 85.70300

_symmetry_space_group_name_	'P 1'
_symmetry_space_group_name_H-M	'P 1'

loop_
_symmetry_equiv_pos_as_xyz
  x,y,z

loop_
_atom_site_label
_atom_site_type_symbol
_atom_site_fract_x
_atom_site_fract_y
_atom_site_fract_z
_atom_site_charge
Cd	Cd	0.09998 0.54052 0.04446 1.24100
Cd	Cd	0.38519 0.04800 0.46244 1.24200
Cd	Cd	0.61481 0.95200 0.53756 1.24200
Cd	Cd	0.90002 0.45948 0.95554 1.24100
H 	H 	0.19780 0.80250 0.81110 0.08300
H 	H 	0.06570 0.38690 0.21500 0.03200
H 	H 	0.60020 0.18710 0.78390 0.09100
H 	H 	0.03760 0.30260 0.29730 0.08400
H 	H 	0.89440 0.81880 0.67520 0.05500
H 	H 	0.93430 0.61310 0.78500 0.03300
H 	H 	0.70590 0.17170 0.30630 0.05300
H 	H 	0.80220 0.19750 0.18890 0.08400
H 	H 	0.71540 0.70510 0.29030 0.09300
H 	H 	0.44260 0.44530 0.93320 0.05700
H 	H 	0.12130 0.94430 0.55260 0.06000
H 	H 	0.23720 0.32210 0.82390 0.04900
H 	H 	0.96240 0.69740 0.70270 0.08400
H 	H 	0.83700 0.28000 0.10560 0.03100
H 	H 	0.35330 0.69040 0.19710 0.04900
H 	H 	0.55740 0.55470 0.06680 0.05700
H 	H 	0.29520 0.21180 0.62670 0.02600
H 	H 	0.87870 0.05570 0.44740 0.06000
H 	H 	0.10560 0.18120 0.32480 0.05500
H 	H 	0.76280 0.67790 0.17610 0.04900
H 	H 	0.64670 0.30960 0.80290 0.04900
H 	H 	0.39210 0.89610 0.29850 0.02600
H 	H 	0.29410 0.82830 0.69370 0.05300
H 	H 	0.28460 0.29490 0.70970 0.09300
H 	H 	0.60790 0.10390 0.70150 0.02600
H 	H 	0.70480 0.78820 0.37330 0.02600
H 	H 	0.16300 0.72000 0.89440 0.03100
H 	H 	0.39980 0.81290 0.21610 0.09100
C 	C 	0.00380 0.70230 0.74190 -0.12800
C 	C 	0.97860 0.39530 0.09530 0.35600
C 	C 	0.43810 0.61910 0.12940 -0.09100
C 	C 	0.14200 0.76480 0.80590 -0.13200
C 	C 	0.22770 0.88750 0.61750 -0.08200
C 	C 	0.02140 0.60470 0.90470 0.35600
C 	C 	0.43620 0.67060 0.17670 0.00500
C 	C 	0.30710 0.59390 0.11160 0.34600
C 	C 	0.68140 0.61190 0.11430 -0.10600
C 	C 	0.81070 0.58090 0.07990 0.39500
C 	C 	0.08000 0.75990 0.74760 0.08400
C 	C 	0.97860 0.83680 0.66130 -0.01500
C 	C 	0.13670 0.08790 0.42240 0.32000
C 	C 	0.46360 0.09680 0.60050 0.38900
C 	C 	0.56380 0.32940 0.82330 0.00500
C 	C 	0.64740 0.74310 0.29220 -0.15200
C 	C 	0.31990 0.33650 0.83630 0.01200
C 	C 	0.35260 0.25690 0.70780 -0.15200
C 	C 	0.54280 0.14320 0.70270 0.08000
C 	C 	0.45240 0.15070 0.65530 -0.13900
C 	C 	0.85800 0.23520 0.19410 -0.13200
C 	C 	0.44140 0.40990 0.90110 0.04400
C 	C 	0.11270 0.91150 0.58730 0.02000
C 	C 	0.99620 0.29770 0.25810 -0.12800
C 	C 	0.12190 0.71520 0.85510 0.06400
C 	C 	0.90720 0.18610 0.30690 -0.02200
C 	C 	0.55960 0.69320 0.19400 -0.04000
C 	C 	0.36350 0.91160 0.58920 0.35600
C 	C 	0.01200 0.11330 0.39140 -0.06900
C 	C 	0.98620 0.65220 0.79100 0.05700
C 	C 	0.86330 0.91210 0.57760 0.32000
C 	C 	0.55860 0.59010 0.09890 0.04400
C 	C 	0.77230 0.11250 0.38250 -0.08200
C 	C 	0.44040 0.30680 0.80600 -0.04000
C 	C 	0.78300 0.15850 0.32870 -0.00600
C 	C 	0.01380 0.34780 0.20900 0.05700
C 	C 	0.46140 0.80700 0.24840 -0.15000
C 	C 	0.53860 0.19300 0.75160 -0.15000
C 	C 	0.54760 0.84930 0.34470 -0.13900
C 	C 	0.69290 0.40610 0.88840 0.34600
C 	C 	0.64180 0.79330 0.34150 0.08400
C 	C 	0.09280 0.81390 0.69310 -0.02200
C 	C 	0.88730 0.08850 0.41270 0.02000
C 	C 	0.63650 0.08840 0.41080 0.35600
C 	C 	0.18930 0.41910 0.92010 0.39500
C 	C 	0.45720 0.85680 0.29730 0.08000
C 	C 	0.87810 0.28480 0.14490 0.06400
C 	C 	0.44460 0.25180 0.75380 0.10500
C 	C 	0.53640 0.90320 0.39950 0.38900
C 	C 	0.98800 0.88670 0.60860 -0.06900
C 	C 	0.04410 0.65840 0.84960 -0.11500
C 	C 	0.56190 0.38090 0.87060 -0.09100
C 	C 	0.21700 0.84150 0.67130 -0.00600
C 	C 	0.95590 0.34160 0.15040 -0.11500
C 	C 	0.02140 0.16320 0.33870 -0.01500
C 	C 	0.92000 0.24010 0.25240 0.08400
C 	C 	0.35820 0.20670 0.65850 0.08400
C 	C 	0.68010 0.66350 0.16370 0.01200
C 	C 	0.55540 0.74820 0.24620 0.10500
C 	C 	0.31860 0.38810 0.88570 -0.10600
O 	O 	0.79760 0.40020 0.84590 -0.08800
O 	O 	0.06650 0.44070 0.10210 -0.41400
O 	O 	0.19750 0.46190 0.96480 -0.43800
O 	O 	0.90670 0.39030 0.04700 -0.40700
O 	O 	0.36920 0.94970 0.53780 -0.47000
O 	O 	0.46780 0.88950 0.61540 -0.36000
O 	O 	0.77030 0.86750 0.57700 -0.35000
O 	O 	0.31310 0.55290 0.06300 -0.37700
O 	O 	0.09330 0.60970 0.95300 -0.40700
O 	O 	0.80250 0.53810 0.03520 -0.43800
O 	O 	0.19730 0.62510 0.12670 -0.25000
O 	O 	0.80270 0.37490 0.87330 -0.25000
O 	O 	0.53220 0.11050 0.38460 -0.36000
O 	O 	0.22970 0.13250 0.42300 -0.35000
O 	O 	0.20240 0.59980 0.15410 -0.08800
O 	O 	0.08020 0.40300 0.90150 -0.41300
O 	O 	0.68690 0.44710 0.93700 -0.37700
O 	O 	0.62120 0.89180 0.44200 -0.40900
O 	O 	0.14910 0.02970 0.44720 -0.34800
O 	O 	0.93350 0.55930 0.89790 -0.41400
O 	O 	0.55700 0.04850 0.60080 -0.41900
O 	O 	0.63080 0.05030 0.46220 -0.47000
O 	O 	0.91980 0.59700 0.09850 -0.41300
O 	O 	0.37880 0.10820 0.55800 -0.40900
O 	O 	0.85090 0.97030 0.55280 -0.34800
O 	O 	0.44300 0.95150 0.39920 -0.41900
