data_crystal

_cell_length_a 16.58130
_cell_length_b 16.58130
_cell_length_c 40.86810
_cell_angle_alpha 78.29470
_cell_angle_beta  78.29470
_cell_angle_gamma 89.99800

_symmetry_space_group_name_	'P 1'
_symmetry_space_group_name_H-M	'P 1'

loop_
_symmetry_equiv_pos_as_xyz
  x,y,z

loop_
_atom_site_label
_atom_site_type_symbol
_atom_site_fract_x
_atom_site_fract_y
_atom_site_fract_z
_atom_site_charge
Zr	Zr	0.09388 0.34388 0.31224 3.22000
Zr	Zr	0.01848 0.48152 0.25000 3.17400
Zr	Zr	0.23152 0.26848 0.25000 3.17400
Zr	Zr	0.76848 0.51848 0.75000 3.17400
Zr	Zr	0.98152 0.51848 0.75000 3.17300
Zr	Zr	0.98152 0.73152 0.75000 3.17400
Zr	Zr	0.15612 0.40612 0.18776 3.22100
Zr	Zr	0.90612 0.65612 0.68776 3.22100
Zr	Zr	0.84388 0.59388 0.81224 3.22100
Zr	Zr	0.76848 0.73152 0.75000 3.17500
Zr	Zr	0.01848 0.26848 0.25000 3.17400
Zr	Zr	0.23152 0.48152 0.25000 3.17500
H 	H 	0.68070 0.42070 0.66520 -0.04800
H 	H 	0.88830 0.28880 0.93820 0.10600
H 	H 	0.20750 0.36860 0.39480 -0.01000
H 	H 	0.41410 0.65410 0.16520 -0.04800
H 	H 	0.01330 0.01540 0.96920 0.10900
H 	H 	0.79250 0.76340 0.60520 -0.01100
H 	H 	0.51750 0.01540 0.96920 0.11000
H 	H 	0.35140 0.86630 0.12100 0.04800
H 	H 	0.79250 0.63140 0.60520 -0.01100
H 	H 	0.51540 0.01750 0.46920 0.11100
H 	H 	0.27300 0.17350 0.43820 0.10600
H 	H 	0.21490 0.03010 0.46920 0.06100
H 	H 	0.48250 0.98460 0.03080 0.11000
H 	H 	0.81590 0.50070 0.46920 0.06100
H 	H 	0.31930 0.08590 0.33480 -0.04800
H 	H 	0.26340 0.60230 0.10520 -0.01000
H 	H 	0.48730 0.47240 0.37900 0.04900
H 	H 	0.31930 0.57930 0.33480 -0.04900
H 	H 	0.57140 0.50000 0.50000 0.11100
H 	H 	0.07930 0.81930 0.83480 -0.04600
H 	H 	0.78510 0.96990 0.53080 0.06200
H 	H 	0.27300 0.38830 0.43820 0.10600
H 	H 	0.36630 0.52760 0.62100 0.05000
H 	H 	0.42860 0.50000 0.50000 0.11100
H 	H 	0.61740 0.39910 0.62120 0.09600
H 	H 	0.26140 0.97970 0.62120 0.09600
H 	H 	0.78880 0.17350 0.43820 0.10600
H 	H 	0.10230 0.63140 0.60520 -0.01000
H 	H 	0.99930 0.28510 0.03080 0.05900
H 	H 	0.99930 0.68410 0.03080 0.06700
H 	H 	0.64860 0.98730 0.87900 0.04200
H 	H 	0.86860 0.39770 0.89480 -0.01100
H 	H 	0.51540 0.51330 0.46920 0.11100
H 	H 	0.02760 0.86630 0.12100 0.05200
H 	H 	0.88830 0.77300 0.93820 0.10100
H 	H 	0.92070 0.18070 0.16520 -0.04800
H 	H 	0.67350 0.77300 0.93820 0.10500
H 	H 	0.63370 0.14860 0.37900 0.05000
H 	H 	0.36630 0.85140 0.62100 0.04900
H 	H 	0.20750 0.23660 0.39480 -0.01000
H 	H 	0.41410 0.18070 0.16520 -0.04900
H 	H 	0.58590 0.81930 0.83480 -0.04800
H 	H 	0.84590 0.08590 0.33480 -0.04800
H 	H 	0.38260 0.60090 0.37880 0.09600
H 	H 	0.38260 0.02030 0.37880 0.09600
H 	H 	0.15410 0.42070 0.66520 -0.04800
H 	H 	0.98670 0.98460 0.03080 0.10900
H 	H 	0.11170 0.22700 0.06180 0.10400
H 	H 	0.00070 0.71490 0.96920 0.05400
H 	H 	0.73860 0.60090 0.37880 0.09600
H 	H 	0.92070 0.65410 0.16520 -0.05000
H 	H 	0.10230 0.76340 0.60520 -0.01000
H 	H 	0.48460 0.98250 0.53080 0.11000
H 	H 	0.81590 0.03010 0.46920 0.06000
H 	H 	0.10090 0.23860 0.87880 0.09600
H 	H 	0.89770 0.36860 0.39480 -0.01000
H 	H 	0.89910 0.11740 0.12120 0.09500
H 	H 	0.51270 0.52760 0.62100 0.05000
H 	H 	0.52030 0.23860 0.87880 0.09600
H 	H 	0.18410 0.96990 0.53080 0.06200
H 	H 	0.50000 0.07140 -0.00000 0.11200
H 	H 	0.47970 0.11740 0.12120 0.09700
H 	H 	0.26140 0.39910 0.62120 0.09600
H 	H 	0.15410 0.91410 0.66520 -0.04800
H 	H 	0.53010 0.31590 0.96920 0.06200
H 	H 	0.53010 0.71490 0.96920 0.06100
H 	H 	0.68070 0.91410 0.66520 -0.04900
H 	H 	0.97240 0.98730 0.87900 0.03400
H 	H 	-0.00000 0.07140 -0.00000 0.11100
H 	H 	0.26340 0.29250 0.10520 -0.01100
H 	H 	0.35140 0.01270 0.12100 0.05300
H 	H 	0.11170 0.71120 0.06180 0.10800
H 	H 	0.10090 0.88260 0.87880 0.09100
H 	H 	0.57140 0.00000 0.50000 0.11100
H 	H 	0.32650 0.22700 0.06180 0.10600
H 	H 	0.02760 0.01270 0.12100 0.04600
H 	H 	0.50000 0.92860 -0.00000 0.11000
H 	H 	0.32650 0.71120 0.06180 0.10600
H 	H 	0.89770 0.23660 0.39480 -0.01000
H 	H 	0.63370 0.47240 0.37900 0.05000
H 	H 	0.48460 0.48670 0.53080 0.11100
H 	H 	0.13140 0.60230 0.10520 -0.01200
H 	H 	0.73660 0.39770 0.89480 -0.01100
H 	H 	0.72700 0.61170 0.56180 0.10600
H 	H 	0.97240 0.13370 0.87900 0.05500
H 	H 	0.21120 0.61170 0.56180 0.10600
H 	H 	0.52030 0.88260 0.87880 0.09500
H 	H 	0.13140 0.29250 0.10520 -0.01000
H 	H 	0.46990 0.68410 0.03080 0.06000
H 	H 	0.78510 0.49930 0.53080 0.06100
H 	H 	0.61740 0.97970 0.62120 0.09600
H 	H 	0.78880 0.38830 0.43820 0.10600
H 	H 	0.84590 0.57930 0.33480 -0.04800
H 	H 	0.51270 0.85140 0.62100 0.05000
H 	H 	0.58590 0.34590 0.83480 -0.04800
H 	H 	-0.00000 0.92860 -0.00000 0.11100
H 	H 	0.00070 0.31590 0.96920 0.06200
H 	H 	0.07930 0.34590 0.83480 -0.04900
H 	H 	0.89910 0.76140 0.12120 0.09800
H 	H 	0.86860 0.70750 0.89480 -0.00800
H 	H 	0.21490 0.50070 0.46920 0.06100
H 	H 	0.67350 0.28880 0.93820 0.10600
H 	H 	0.18410 0.49930 0.53080 0.06100
H 	H 	0.72700 0.82650 0.56180 0.10600
H 	H 	0.64860 0.13370 0.87900 0.05300
H 	H 	0.46990 0.28510 0.03080 0.06100
H 	H 	0.73660 0.70750 0.89480 -0.01000
H 	H 	0.73860 0.02030 0.37880 0.09600
H 	H 	0.47970 0.76140 0.12120 0.09600
H 	H 	0.42860 0.00000 0.50000 0.11100
H 	H 	0.48730 0.14860 0.37900 0.05000
H 	H 	0.21120 0.82650 0.56180 0.10600
C 	C 	0.92719 0.78269 0.91722 -0.21600
C 	C 	0.02715 0.24265 0.13910 -0.28300
C 	C 	0.40768 0.74838 0.08744 0.17200
C 	C 	0.95674 0.72144 0.83252 0.60000
C 	C 	0.75162 0.09232 0.41256 0.17200
C 	C 	0.24346 0.41556 0.39148 0.16400
C 	C 	0.00232 0.17822 0.93856 -0.15600
C 	C 	0.74580 0.98340 0.51680 -0.09900
C 	C 	0.52768 0.18778 0.97244 0.13000
C 	C 	0.69296 0.36506 0.89148 0.16400
C 	C 	0.39739 0.50089 0.57122 0.12800
C 	C 	0.61678 0.94088 0.56144 -0.15800
C 	C 	0.38322 0.50232 0.43856 -0.15700
C 	C 	0.53139 0.50089 0.57122 0.12800
C 	C 	0.30943 0.10333 0.35594 0.16200
C 	C 	0.00232 0.88322 0.93856 -0.12600
C 	C 	0.04326 0.55396 0.16748 0.60200
C 	C 	0.62088 0.09118 0.89704 -0.09800
C 	C 	0.83463 0.10333 0.35594 0.16200
C 	C 	0.94701 0.15201 0.11798 -0.22600
C 	C 	0.00089 0.89739 0.07122 0.13600
C 	C 	0.95927 0.66537 0.14406 0.16600
C 	C 	0.07281 0.21731 0.08278 -0.22500
C 	C 	0.19991 0.84441 0.58278 -0.22800
C 	C 	0.92719 0.30009 0.91722 -0.22900
C 	C 	0.00089 0.03139 0.07122 0.12200
C 	C 	0.33582 0.09232 0.41256 0.17300
C 	C 	0.31222 0.50012 0.52756 0.13000
C 	C 	0.91556 0.74346 0.89148 0.15700
C 	C 	0.95927 0.19057 0.14406 0.16200
C 	C 	0.01792 0.98822 0.10296 -0.08300
C 	C 	0.16537 0.89667 0.64406 0.16200
C 	C 	0.00020 0.26260 0.98320 -0.09500
C 	C 	0.99768 0.82178 0.06144 -0.16900
C 	C 	0.43501 0.15201 0.11798 -0.23300
C 	C 	0.65559 0.78269 0.91722 -0.22800
C 	C 	0.48340 0.24580 0.01680 -0.08900
C 	C 	0.31222 0.97232 0.52756 0.12900
C 	C 	0.44088 0.11678 0.06144 -0.15900
C 	C 	0.99768 0.11678 0.06144 -0.14700
C 	C 	0.05396 0.54326 0.66748 0.60000
C 	C 	0.48822 0.51792 0.60296 -0.08900
C 	C 	0.13494 0.80704 0.60852 0.16300
C 	C 	0.60261 0.49911 0.42878 0.12800
C 	C 	0.60261 0.07211 0.42878 0.12800
C 	C 	0.86506 0.41556 0.39148 0.16400
C 	C 	0.74580 0.49980 0.51680 -0.09100
C 	C 	0.52768 0.83978 0.97244 0.12700
C 	C 	0.74265 0.83375 0.63910 -0.28200
C 	C 	0.46861 0.49911 0.42878 0.12800
C 	C 	0.99512 0.25162 0.91256 0.17100
C 	C 	0.48822 0.87912 0.60296 -0.09000
C 	C 	0.55912 0.88322 0.93856 -0.15400
C 	C 	0.32178 0.49768 0.56144 -0.15700
C 	C 	0.28926 0.55396 0.16748 0.60100
C 	C 	0.34799 0.06499 0.38202 -0.23200
C 	C 	0.08444 0.25654 0.10852 0.16200
C 	C 	0.13494 0.58444 0.60852 0.16400
C 	C 	0.71731 0.84441 0.58278 -0.22900
C 	C 	0.33978 0.49988 0.47244 0.13000
C 	C 	0.99911 0.10261 0.92878 0.13200
C 	C 	0.66625 0.75735 0.86090 -0.28100
C 	C 	0.56499 0.84799 0.88202 -0.23100
C 	C 	0.00012 0.81222 0.02756 0.14100
C 	C 	0.05299 0.26999 0.88202 -0.23100
C 	C 	0.74265 0.52715 0.63910 -0.28200
C 	C 	0.02715 0.61825 0.13910 -0.28500
C 	C 	0.33582 0.49512 0.41256 0.17300
C 	C 	0.68778 0.49988 0.47244 0.13000
C 	C 	0.04073 0.33463 0.85594 0.16600
C 	C 	0.56499 0.26999 0.88202 -0.23300
C 	C 	0.22144 0.45674 0.33252 0.60100
C 	C 	0.00012 0.16022 0.02756 0.12300
C 	C 	0.23001 0.44701 0.61798 -0.23200
C 	C 	0.99980 0.24580 0.01680 -0.08500
C 	C 	0.66418 0.50488 0.58744 0.17300
C 	C 	0.83463 0.54073 0.35594 0.16200
C 	C 	0.07281 0.69991 0.08278 -0.23500
C 	C 	0.77856 0.78926 0.66748 0.60100
C 	C 	0.40882 0.87912 0.60296 -0.08900
C 	C 	0.77856 0.54326 0.66748 0.60100
C 	C 	0.98208 0.01178 0.89704 -0.05800
C 	C 	0.80009 0.15559 0.41722 -0.22800
C 	C 	0.75654 0.80704 0.60852 0.16400
C 	C 	0.39667 0.19057 0.14406 0.16300
C 	C 	0.65201 0.93501 0.61798 -0.23300
C 	C 	0.75654 0.58444 0.60852 0.16400
C 	C 	0.67822 0.05912 0.43856 -0.15600
C 	C 	0.23740 0.49980 0.51680 -0.09200
C 	C 	0.57211 0.10261 0.92878 0.13100
C 	C 	0.30704 0.25654 0.10852 0.16400
C 	C 	0.39739 0.92789 0.57122 0.12800
C 	C 	0.94604 0.45674 0.33252 0.60100
C 	C 	0.66022 0.97232 0.52756 0.12900
C 	C 	0.25735 0.47285 0.36090 -0.28200
C 	C 	0.95674 0.44604 0.83252 0.60200
C 	C 	0.51660 0.75420 0.98320 -0.09300
C 	C 	0.99988 0.83978 0.97244 0.10500
C 	C 	0.55912 0.17822 0.93856 -0.15900
C 	C 	0.05396 0.78926 0.66748 0.60000
C 	C 	0.32178 0.94088 0.56144 -0.15700
C 	C 	0.66022 0.50012 0.52756 0.13000
C 	C 	0.33375 0.24265 0.13910 -0.28200
C 	C 	0.65559 0.30009 0.91722 -0.23000
C 	C 	0.71074 0.44604 0.83252 0.60100
C 	C 	0.08444 0.63494 0.10852 0.16800
C 	C 	0.30704 0.63494 0.10852 0.16400
C 	C 	0.91556 0.36506 0.89148 0.16500
C 	C 	0.25735 0.16625 0.36090 -0.28200
C 	C 	0.23740 0.98340 0.51680 -0.09300
C 	C 	0.04073 0.80943 0.85594 0.16000
C 	C 	0.67822 0.50232 0.43856 -0.15700
C 	C 	0.34441 0.69991 0.08278 -0.22900
C 	C 	0.00488 0.16418 0.08744 0.16400
C 	C 	0.86506 0.19296 0.39148 0.16300
C 	C 	0.28269 0.15559 0.41722 -0.22900
C 	C 	0.43501 0.73001 0.11798 -0.23200
C 	C 	0.76260 0.01660 0.48320 -0.08400
C 	C 	0.34799 0.55299 0.38202 -0.23200
C 	C 	0.61678 0.49768 0.56144 -0.15700
C 	C 	0.40768 0.16418 0.08744 0.17400
C 	C 	0.66418 0.90768 0.58744 0.17300
C 	C 	0.01792 0.90882 0.10296 -0.09600
C 	C 	0.60333 0.33463 0.85594 0.16200
C 	C 	0.00488 0.74838 0.08744 0.18100
C 	C 	0.97285 0.75735 0.86090 -0.28200
C 	C 	0.99911 0.96861 0.92878 0.09800
C 	C 	0.71731 0.57281 0.58278 -0.22900
C 	C 	0.47232 0.16022 0.02756 0.13000
C 	C 	0.68778 0.02768 0.47244 0.12800
C 	C 	0.11825 0.52715 0.63910 -0.28000
C 	C 	0.46861 0.07211 0.42878 0.12800
C 	C 	0.98208 0.09118 0.89704 -0.10600
C 	C 	0.53139 0.92789 0.57122 0.12800
C 	C 	0.59232 0.83582 0.91256 0.17100
C 	C 	0.37912 0.90882 0.10296 -0.08500
C 	C 	0.48340 0.73740 0.01680 -0.08900
C 	C 	0.28926 0.27856 0.16748 0.60100
C 	C 	0.94604 0.21074 0.33252 0.60000
C 	C 	0.94701 0.73001 0.11798 -0.23900
C 	C 	0.40882 0.51792 0.60296 -0.08900
C 	C 	0.38322 0.05912 0.43856 -0.15700
C 	C 	0.42789 0.03139 0.07122 0.13300
C 	C 	0.99512 0.83582 0.91256 0.14900
C 	C 	0.19991 0.57281 0.58278 -0.22900
C 	C 	0.05299 0.84799 0.88202 -0.21500
C 	C 	0.80009 0.42719 0.41722 -0.22900
C 	C 	0.71074 0.72144 0.83252 0.60100
C 	C 	0.23001 0.93501 0.61798 -0.23100
C 	C 	0.51178 0.48208 0.39704 -0.08900
C 	C 	0.33978 0.02768 0.47244 0.13000
C 	C 	0.33375 0.61825 0.13910 -0.28100
C 	C 	0.57211 0.96861 0.92878 0.11800
C 	C 	0.76260 0.50020 0.48320 -0.09200
C 	C 	0.28269 0.42719 0.41722 -0.22900
C 	C 	0.24838 0.50488 0.58744 0.17300
C 	C 	0.76999 0.55299 0.38202 -0.23200
C 	C 	0.99988 0.18778 0.97244 0.12900
C 	C 	0.11825 0.83375 0.63910 -0.28000
C 	C 	0.25420 0.01660 0.48320 -0.08900
C 	C 	0.69296 0.74346 0.89148 0.16300
C 	C 	0.69057 0.89667 0.64406 0.16200
C 	C 	0.60333 0.80943 0.85594 0.16100
C 	C 	0.88175 0.16625 0.36090 -0.28000
C 	C 	0.97285 0.38175 0.86090 -0.28500
C 	C 	0.51178 0.12088 0.39704 -0.09000
C 	C 	0.39667 0.66537 0.14406 0.16200
C 	C 	0.69057 0.45927 0.64406 0.16200
C 	C 	0.04326 0.27856 0.16748 0.60100
C 	C 	0.24838 0.90768 0.58744 0.17200
C 	C 	0.24346 0.19296 0.39148 0.16400
C 	C 	0.22144 0.21074 0.33252 0.60100
C 	C 	0.66625 0.38175 0.86090 -0.28200
C 	C 	0.76999 0.06499 0.38202 -0.23100
C 	C 	0.00020 0.75420 0.98320 -0.06800
C 	C 	0.59118 0.12088 0.39704 -0.08900
C 	C 	0.62088 0.01178 0.89704 -0.07400
C 	C 	0.51660 0.26260 0.98320 -0.09400
C 	C 	0.75162 0.49512 0.41256 0.17300
C 	C 	0.59118 0.48208 0.39704 -0.08900
C 	C 	0.25420 0.50020 0.48320 -0.09100
C 	C 	0.16537 0.45927 0.64406 0.16200
C 	C 	0.88175 0.47285 0.36090 -0.28100
C 	C 	0.99980 0.73740 0.01680 -0.11000
C 	C 	0.59232 0.25162 0.91256 0.17400
C 	C 	0.65201 0.44701 0.61798 -0.23200
C 	C 	0.30943 0.54073 0.35594 0.16200
C 	C 	0.34441 0.21731 0.08278 -0.23000
C 	C 	0.37912 0.98822 0.10296 -0.09700
C 	C 	0.44088 0.82178 0.06144 -0.15600
C 	C 	0.47232 0.81222 0.02756 0.12900
C 	C 	0.42789 0.89739 0.07122 0.12700
N 	N 	0.50000 0.12440 -0.00000 -0.21900
N 	N 	0.50000 0.87560 -0.00000 -0.21800
N 	N 	-0.00000 0.12440 -0.00000 -0.21800
N 	N 	0.62440 0.50000 0.50000 -0.21900
N 	N 	0.99415 0.97405 0.05190 -0.22300
N 	N 	0.47405 0.95395 0.55190 -0.22000
N 	N 	0.45395 0.97405 0.05190 -0.22200
N 	N 	0.37560 0.00000 0.50000 -0.21800
N 	N 	0.62440 0.00000 0.50000 -0.21800
N 	N 	0.54605 0.02595 0.94810 -0.21800
N 	N 	0.00585 0.02595 0.94810 -0.21400
N 	N 	0.37560 0.50000 0.50000 -0.21900
N 	N 	0.52595 0.04605 0.44810 -0.22000
N 	N 	0.47405 0.49415 0.55190 -0.22000
N 	N 	-0.00000 0.87560 -0.00000 -0.21500
N 	N 	0.52595 0.50585 0.44810 -0.22000
O 	O 	0.83970 0.59233 0.65886 -0.69200
O 	O 	0.26450 0.39221 0.21558 -1.14200
O 	O 	0.86150 0.70172 0.77700 -1.51500
O 	O 	0.90767 0.66030 0.84114 -0.69200
O 	O 	0.79828 0.63850 0.72300 -1.51400
O 	O 	0.74517 0.79269 0.69762 -0.79400
O 	O 	0.89221 0.76450 0.71558 -1.14300
O 	O 	0.83970 0.74881 0.65886 -0.69300
O 	O 	0.99856 0.25119 0.34114 -0.69000
O 	O 	0.10779 0.48008 0.28442 -1.14200
O 	O 	0.05721 0.50969 0.69762 -0.79200
O 	O 	0.13850 0.47872 0.22300 -1.51400
O 	O 	0.75119 0.66030 0.84114 -0.69200
O 	O 	0.02128 0.36150 0.27700 -1.51500
O 	O 	0.13850 0.29828 0.22300 -1.51500
O 	O 	0.01992 0.39221 0.21558 -1.14200
O 	O 	0.09233 0.33970 0.15886 -0.69200
O 	O 	0.70731 0.75483 0.80238 -0.79400
O 	O 	0.00969 0.55721 0.19762 -0.79400
O 	O 	0.24881 0.33970 0.15886 -0.69200
O 	O 	0.99031 0.44279 0.80238 -0.79500
O 	O 	0.89221 0.51992 0.71558 -1.14300
O 	O 	0.29269 0.55721 0.19762 -0.79400
O 	O 	0.05721 0.79269 0.69762 -0.79100
O 	O 	0.10779 0.23550 0.28442 -1.14200
O 	O 	0.86150 0.52128 0.77700 -1.51400
O 	O 	0.25483 0.20731 0.30238 -0.79400
O 	O 	0.29269 0.24517 0.19762 -0.79400
O 	O 	0.94279 0.20731 0.30238 -0.79200
O 	O 	0.16030 0.40767 0.34114 -0.69200
O 	O 	0.00144 0.59233 0.65886 -0.68900
O 	O 	0.74517 0.50969 0.69762 -0.79400
O 	O 	0.25483 0.49031 0.30238 -0.79400
O 	O 	0.90767 0.49856 0.84114 -0.69200
O 	O 	0.97872 0.63850 0.72300 -1.51600
O 	O 	0.73550 0.60779 0.78442 -1.14200
O 	O 	0.99856 0.40767 0.34114 -0.69000
O 	O 	0.00969 0.24517 0.19762 -0.79500
O 	O 	0.09233 0.50144 0.15886 -0.69200
O 	O 	0.24881 0.50144 0.15886 -0.69200
O 	O 	0.75119 0.49856 0.84114 -0.69200
O 	O 	0.98008 0.60779 0.78442 -1.14300
O 	O 	0.20172 0.36150 0.27700 -1.51400
O 	O 	0.16030 0.25119 0.34114 -0.69200
O 	O 	0.99031 0.75483 0.80238 -0.79600
O 	O 	0.94279 0.49031 0.30238 -0.79300
O 	O 	0.70731 0.44279 0.80238 -0.79400
O 	O 	0.00144 0.74881 0.65886 -0.68900
