data_crystal

_cell_length_a 19.03060
_cell_length_b 19.03060
_cell_length_c 36.24450
_cell_angle_alpha 90.00000
_cell_angle_beta  90.00000
_cell_angle_gamma 120.00000

_symmetry_space_group_name_	'P 1'
_symmetry_space_group_name_H-M	'P 1'

loop_
_symmetry_equiv_pos_as_xyz
  x,y,z

loop_
_atom_site_label
_atom_site_type_symbol
_atom_site_fract_x
_atom_site_fract_y
_atom_site_fract_z
_atom_site_charge
Zn	Zn	0.51999 0.48000 0.96340 1.21800
Zn	Zn	0.48001 0.52000 0.46340 1.21800
Zn	Zn	0.51999 0.03998 0.96340 1.21800
Zn	Zn	0.48001 0.96002 0.03660 1.21800
Zn	Zn	0.96001 0.48000 0.96340 1.21800
Zn	Zn	0.48001 0.96002 0.46340 1.21800
Zn	Zn	0.48001 0.52000 0.03660 1.21700
Zn	Zn	0.51999 0.03998 0.53660 1.21700
Zn	Zn	0.51999 0.48000 0.53660 1.21700
Zn	Zn	0.03999 0.52000 0.46340 1.21700
Zn	Zn	0.96001 0.48000 0.53660 1.21700
Zn	Zn	0.03999 0.52000 0.03660 1.21700
Cr	Cr	0.72483 0.27517 0.75000 1.55100
Cr	Cr	0.44966 0.72483 0.25000 1.55100
Cr	Cr	0.27517 0.55034 0.25000 1.55100
Cr	Cr	0.27517 0.72483 0.25000 1.55100
Cr	Cr	0.72483 0.44966 0.75000 1.55100
Cr	Cr	0.55034 0.27517 0.75000 1.55100
H 	H 	0.26120 0.87210 0.91210 0.05600
H 	H 	0.87210 0.26120 0.41210 0.05600
H 	H 	0.12790 0.73880 0.58790 0.05600
H 	H 	0.73880 0.12790 0.41210 0.05600
H 	H 	0.53510 0.67320 0.34670 0.06300
H 	H 	0.08410 0.44080 0.40530 0.01300
H 	H 	0.67320 0.53510 0.84670 0.06300
H 	H 	0.73880 0.61090 0.08790 0.05600
H 	H 	0.67320 0.13810 0.84670 0.06300
H 	H 	0.26120 0.38910 0.91210 0.05600
H 	H 	0.44080 0.08410 0.90530 0.01300
H 	H 	0.13810 0.46490 0.34670 0.06300
H 	H 	0.35670 0.91590 0.09470 0.01300
H 	H 	0.08410 0.64330 0.09470 0.01300
H 	H 	0.55920 0.64330 0.09470 0.01300
H 	H 	0.61090 0.87210 0.91210 0.05600
H 	H 	0.91590 0.55920 0.90530 0.01300
H 	H 	0.12790 0.73880 0.91210 0.05600
H 	H 	0.32680 0.86190 0.15330 0.06300
H 	H 	0.32680 0.46490 0.15330 0.06300
H 	H 	0.32680 0.46490 0.34670 0.06300
H 	H 	0.32680 0.86190 0.34670 0.06300
H 	H 	0.13810 0.67320 0.15330 0.06300
H 	H 	0.13810 0.67320 0.34670 0.06300
H 	H 	0.64330 0.55920 0.59470 0.01300
H 	H 	0.08410 0.64330 0.40530 0.01300
H 	H 	0.44080 0.35670 0.90530 0.01300
H 	H 	0.35670 0.91590 0.40530 0.01300
H 	H 	0.86190 0.32680 0.65330 0.06300
H 	H 	0.73880 0.61090 0.41210 0.05600
H 	H 	0.67320 0.13810 0.65330 0.06300
H 	H 	0.46490 0.13810 0.84670 0.06300
H 	H 	0.08410 0.44080 0.09470 0.01300
H 	H 	0.53510 0.67320 0.15330 0.06300
H 	H 	0.86190 0.32680 0.84670 0.06300
H 	H 	0.73880 0.12790 0.08790 0.05600
H 	H 	0.87210 0.26120 0.08790 0.05600
H 	H 	0.61090 0.73880 0.58790 0.05600
H 	H 	0.61090 0.73880 0.91210 0.05600
H 	H 	0.91590 0.35670 0.90530 0.01300
H 	H 	0.91590 0.35670 0.59470 0.01300
H 	H 	0.35670 0.44080 0.40530 0.01300
H 	H 	0.55920 0.91590 0.09470 0.01300
H 	H 	0.38910 0.26120 0.41210 0.05600
H 	H 	0.55920 0.64330 0.40530 0.01300
H 	H 	0.87210 0.61090 0.08790 0.05600
H 	H 	0.46490 0.32680 0.65330 0.06300
H 	H 	0.53510 0.86190 0.34670 0.06300
H 	H 	0.44080 0.08410 0.59470 0.01300
H 	H 	0.61090 0.87210 0.58790 0.05600
H 	H 	0.38910 0.12790 0.08790 0.05600
H 	H 	0.64330 0.08410 0.59470 0.01300
H 	H 	0.67320 0.53510 0.65330 0.06300
H 	H 	0.38910 0.12790 0.41210 0.05600
H 	H 	0.64330 0.08410 0.90530 0.01300
H 	H 	0.26120 0.87210 0.58790 0.05600
H 	H 	0.53510 0.86190 0.15330 0.06300
H 	H 	0.44080 0.35670 0.59470 0.01300
H 	H 	0.91590 0.55920 0.59470 0.01300
H 	H 	0.86190 0.53510 0.84670 0.06300
H 	H 	0.87210 0.61090 0.41210 0.05600
H 	H 	0.26120 0.38910 0.58790 0.05600
H 	H 	0.13810 0.46490 0.15330 0.06300
H 	H 	0.86190 0.53510 0.65330 0.06300
H 	H 	0.12790 0.38910 0.91210 0.05600
H 	H 	0.12790 0.38910 0.58790 0.05600
H 	H 	0.46490 0.32680 0.84670 0.06300
H 	H 	0.38910 0.26120 0.08790 0.05600
H 	H 	0.55920 0.91590 0.40530 0.01300
H 	H 	0.64330 0.55920 0.90530 0.01300
H 	H 	0.35670 0.44080 0.09470 0.01300
H 	H 	0.46490 0.13810 0.65330 0.06300
C 	C 	0.90399 0.51055 0.60657 0.05300
C 	C 	0.59260 0.75908 0.56886 -0.03300
C 	C 	0.51055 0.90399 0.39343 0.05300
C 	C 	0.39344 0.48945 0.10657 0.05300
C 	C 	0.83820 0.56137 0.03636 0.01800
C 	C 	0.42795 0.85590 0.34040 -0.06100
C 	C 	0.50316 0.37532 0.85816 -0.05000
C 	C 	0.62468 0.12784 0.64184 -0.05000
C 	C 	0.49684 0.62468 0.14184 -0.05000
C 	C 	0.09601 0.60656 0.39343 0.05300
C 	C 	0.35557 0.45736 0.52091 0.36800
C 	C 	0.59260 0.83352 0.56886 -0.03300
C 	C 	0.48945 0.09601 0.60657 0.05300
C 	C 	0.54264 0.89821 0.52091 0.36800
C 	C 	0.35557 0.45736 0.97909 0.36900
C 	C 	0.37532 0.50316 0.35816 -0.05000
C 	C 	0.54264 0.89821 0.97909 0.36900
C 	C 	0.10179 0.64443 0.97909 0.36900
C 	C 	0.50316 0.37532 0.64184 -0.05000
C 	C 	0.56137 0.83820 0.53636 0.01800
C 	C 	0.45736 0.35557 0.47909 0.36800
C 	C 	0.60656 0.09601 0.89343 0.05300
C 	C 	0.57205 0.42795 0.84040 -0.06100
C 	C 	0.10179 0.64443 0.52091 0.36800
C 	C 	0.45736 0.10179 0.02091 0.36900
C 	C 	0.12784 0.62468 0.35816 -0.05000
C 	C 	0.89821 0.35557 0.47909 0.36800
C 	C 	0.24092 0.40740 0.56886 -0.03300
C 	C 	0.43863 0.27683 0.46364 0.01800
C 	C 	0.51055 0.60656 0.39343 0.05300
C 	C 	0.37532 0.87216 0.35816 -0.05000
C 	C 	0.57205 0.14410 0.65960 -0.06100
C 	C 	0.37532 0.87216 0.14184 -0.05000
C 	C 	0.51055 0.60656 0.10657 0.05300
C 	C 	0.89821 0.35557 0.02091 0.36900
C 	C 	0.27683 0.43863 0.96364 0.01800
C 	C 	0.16648 0.75908 0.93114 -0.03300
C 	C 	0.43863 0.27683 0.03636 0.01800
C 	C 	0.48945 0.39344 0.89343 0.05300
C 	C 	0.50316 0.12784 0.85816 -0.05000
C 	C 	0.37532 0.50316 0.14184 -0.05000
C 	C 	0.16648 0.40740 0.93114 -0.03300
C 	C 	0.48945 0.09601 0.89343 0.05300
C 	C 	0.40724 0.81448 0.19661 0.41600
C 	C 	0.09601 0.60656 0.10657 0.05300
C 	C 	0.64443 0.54264 0.47909 0.36800
C 	C 	0.49684 0.62468 0.35816 -0.05000
C 	C 	0.16180 0.43863 0.53636 0.01800
C 	C 	0.42795 0.85590 0.15960 -0.06100
C 	C 	0.16648 0.40740 0.56886 -0.03300
C 	C 	0.83820 0.56137 0.46364 0.01800
C 	C 	0.12784 0.62468 0.14184 -0.05000
C 	C 	0.39344 0.48945 0.39343 0.05300
C 	C 	0.51055 0.90399 0.10657 0.05300
C 	C 	0.81448 0.40724 0.80339 0.41600
C 	C 	0.59260 0.83352 0.93114 -0.03300
C 	C 	0.49684 0.87216 0.35816 -0.05000
C 	C 	0.09601 0.48945 0.39343 0.05300
C 	C 	0.45736 0.10179 0.47909 0.36800
C 	C 	0.60656 0.51055 0.60657 0.05300
C 	C 	0.57205 0.42795 0.65960 -0.06100
C 	C 	0.83352 0.24092 0.43114 -0.03300
C 	C 	0.18552 0.59276 0.19661 0.41600
C 	C 	0.75908 0.59260 0.06886 -0.03300
C 	C 	0.59276 0.18552 0.69661 0.41600
C 	C 	0.72317 0.16180 0.46364 0.01800
C 	C 	0.24092 0.40740 0.93114 -0.03300
C 	C 	0.40740 0.16648 0.06886 -0.03300
C 	C 	0.45736 0.35557 0.02091 0.36900
C 	C 	0.87216 0.37532 0.85816 -0.05000
C 	C 	0.83352 0.59260 0.43114 -0.03300
C 	C 	0.87216 0.49684 0.64184 -0.05000
C 	C 	0.42795 0.57205 0.34040 -0.06100
C 	C 	0.40724 0.81448 0.30339 0.41600
C 	C 	0.14410 0.57205 0.15960 -0.06100
C 	C 	0.85590 0.42795 0.65960 -0.06100
C 	C 	0.60656 0.09601 0.60657 0.05300
C 	C 	0.59260 0.75908 0.93114 -0.03300
C 	C 	0.43863 0.16180 0.46364 0.01800
C 	C 	0.12784 0.50316 0.35816 -0.05000
C 	C 	0.56137 0.72317 0.53636 0.01800
C 	C 	0.75908 0.16648 0.43114 -0.03300
C 	C 	0.87216 0.37532 0.64184 -0.05000
C 	C 	0.56137 0.72317 0.96364 0.01800
C 	C 	0.72317 0.56137 0.46364 0.01800
C 	C 	0.10179 0.45736 0.52091 0.36800
C 	C 	0.50316 0.12784 0.64184 -0.05000
C 	C 	0.89821 0.54264 0.47909 0.36800
C 	C 	0.90399 0.51055 0.89343 0.05300
C 	C 	0.40724 0.59276 0.19661 0.41600
C 	C 	0.62468 0.49684 0.64184 -0.05000
C 	C 	0.64443 0.54264 0.02091 0.36900
C 	C 	0.62468 0.12784 0.85816 -0.05000
C 	C 	0.83820 0.27683 0.46364 0.01800
C 	C 	0.39344 0.90399 0.10657 0.05300
C 	C 	0.40740 0.24092 0.43114 -0.03300
C 	C 	0.35557 0.89821 0.52091 0.36800
C 	C 	0.40740 0.24092 0.06886 -0.03300
C 	C 	0.39344 0.90399 0.39343 0.05300
C 	C 	0.83820 0.27683 0.03636 0.01800
C 	C 	0.40724 0.59276 0.30339 0.41600
C 	C 	0.60656 0.51055 0.89343 0.05300
C 	C 	0.27683 0.83820 0.53636 0.01800
C 	C 	0.24092 0.83352 0.56886 -0.03300
C 	C 	0.81448 0.40724 0.69661 0.41600
C 	C 	0.89821 0.54264 0.02091 0.36900
C 	C 	0.59276 0.40724 0.80339 0.41600
C 	C 	0.72317 0.56137 0.03636 0.01800
C 	C 	0.16180 0.43863 0.96364 0.01800
C 	C 	0.90399 0.39344 0.89343 0.05300
C 	C 	0.59276 0.18552 0.80339 0.41600
C 	C 	0.62468 0.49684 0.85816 -0.05000
C 	C 	0.75908 0.16648 0.06886 -0.03300
C 	C 	0.16180 0.72317 0.53636 0.01800
C 	C 	0.12784 0.50316 0.14184 -0.05000
C 	C 	0.43863 0.16180 0.03636 0.01800
C 	C 	0.16180 0.72317 0.96364 0.01800
C 	C 	0.85590 0.42795 0.84040 -0.06100
C 	C 	0.59276 0.40724 0.69661 0.41600
C 	C 	0.14410 0.57205 0.34040 -0.06100
C 	C 	0.10179 0.45736 0.97909 0.36900
C 	C 	0.27683 0.83820 0.96364 0.01800
C 	C 	0.48945 0.39344 0.60657 0.05300
C 	C 	0.90399 0.39344 0.60657 0.05300
C 	C 	0.64443 0.10179 0.02091 0.36900
C 	C 	0.27683 0.43863 0.53636 0.01800
C 	C 	0.42795 0.57205 0.15960 -0.06100
C 	C 	0.35557 0.89821 0.97909 0.36900
C 	C 	0.83352 0.59260 0.06886 -0.03300
C 	C 	0.87216 0.49684 0.85816 -0.05000
C 	C 	0.16648 0.75908 0.56886 -0.03300
C 	C 	0.57205 0.14410 0.84040 -0.06100
C 	C 	0.40740 0.16648 0.43114 -0.03300
C 	C 	0.72317 0.16180 0.03636 0.01800
C 	C 	0.64443 0.10179 0.47909 0.36800
C 	C 	0.24092 0.83352 0.93114 -0.03300
C 	C 	0.54264 0.64443 0.52091 0.36800
C 	C 	0.75908 0.59260 0.43114 -0.03300
C 	C 	0.18552 0.59276 0.30339 0.41600
C 	C 	0.83352 0.24092 0.06886 -0.03300
C 	C 	0.54264 0.64443 0.97909 0.36900
C 	C 	0.56137 0.83820 0.96364 0.01800
C 	C 	0.09601 0.48945 0.10657 0.05300
C 	C 	0.49684 0.87216 0.14184 -0.05000
N 	N 	0.54088 0.45912 0.91103 -0.24100
N 	N 	0.45912 0.91824 0.41103 -0.24100
N 	N 	0.45912 0.91824 0.08897 -0.24100
N 	N 	0.54088 0.08176 0.91103 -0.24100
N 	N 	0.08176 0.54088 0.08897 -0.24100
N 	N 	0.45912 0.54088 0.08897 -0.24100
N 	N 	0.91824 0.45912 0.58897 -0.24100
N 	N 	0.91824 0.45912 0.91103 -0.24100
N 	N 	0.54088 0.45912 0.58897 -0.24100
N 	N 	0.45912 0.54088 0.41103 -0.24100
N 	N 	0.08176 0.54088 0.41103 -0.24100
N 	N 	0.54088 0.08176 0.58897 -0.24100
O 	O 	0.88953 0.51814 0.98857 -0.43400
O 	O 	0.37139 0.48186 0.48857 -0.43400
O 	O 	0.88953 0.51814 0.51143 -0.43400
O 	O 	0.79955 0.45861 0.71038 -0.51700
O 	O 	0.59899 0.55247 0.04280 -0.45300
O 	O 	0.11047 0.62861 0.48857 -0.43400
O 	O 	0.79955 0.45861 0.78962 -0.51700
O 	O 	0.65906 0.20045 0.71038 -0.51700
O 	O 	0.45861 0.79955 0.21038 -0.51700
O 	O 	0.34094 0.79955 0.21038 -0.51700
O 	O 	0.51814 0.88953 0.48857 -0.43400
O 	O 	0.45764 0.22882 0.48449 -0.14100
O 	O 	0.20045 0.65906 0.21038 -0.51700
O 	O 	0.77118 0.22882 0.01551 -0.14100
O 	O 	0.54139 0.34094 0.78962 -0.51700
O 	O 	0.62861 0.51814 0.51143 -0.43400
O 	O 	0.51814 0.62861 0.48857 -0.43400
O 	O 	0.48186 0.11047 0.51143 -0.43400
O 	O 	0.62861 0.11047 0.51143 -0.43400
O 	O 	0.62861 0.11047 0.98857 -0.43400
O 	O 	0.22882 0.77118 0.98449 -0.14100
O 	O 	0.33333 0.66666 0.25000 -0.81000
O 	O 	0.20045 0.65906 0.28962 -0.51700
O 	O 	0.45764 0.22882 0.01551 -0.14100
O 	O 	0.51814 0.88953 0.01143 -0.43400
O 	O 	0.34094 0.79955 0.28962 -0.51700
O 	O 	0.45861 0.79955 0.28962 -0.51700
O 	O 	0.11047 0.62861 0.01143 -0.43400
O 	O 	0.04652 0.44753 0.95720 -0.45300
O 	O 	0.59899 0.55247 0.45720 -0.45300
O 	O 	0.37139 0.48186 0.01143 -0.43400
O 	O 	0.65906 0.20045 0.78962 -0.51700
O 	O 	0.88953 0.37139 0.98857 -0.43400
O 	O 	0.66667 0.33334 0.75000 -0.81000
O 	O 	0.44753 0.40101 0.45720 -0.45300
O 	O 	0.48186 0.11047 0.98857 -0.43400
O 	O 	0.34094 0.54139 0.28962 -0.51700
O 	O 	0.11047 0.48186 0.01143 -0.43400
O 	O 	0.59899 0.04652 0.04280 -0.45300
O 	O 	0.04652 0.44753 0.54280 -0.45300
O 	O 	0.54236 0.77118 0.51551 -0.14100
O 	O 	0.77118 0.22882 0.48449 -0.14100
O 	O 	0.95348 0.40101 0.04280 -0.45300
O 	O 	0.79955 0.34094 0.78962 -0.51700
O 	O 	0.95348 0.55247 0.04280 -0.45300
O 	O 	0.79955 0.34094 0.71038 -0.51700
O 	O 	0.55247 0.95348 0.54280 -0.45300
O 	O 	0.77118 0.54236 0.48449 -0.14100
O 	O 	0.48186 0.37139 0.98857 -0.43400
O 	O 	0.20045 0.54139 0.21038 -0.51700
O 	O 	0.54139 0.34094 0.71038 -0.51700
O 	O 	0.44753 0.04652 0.04280 -0.45300
O 	O 	0.45861 0.65906 0.28962 -0.51700
O 	O 	0.37139 0.88953 0.48857 -0.43400
O 	O 	0.37139 0.88953 0.01143 -0.43400
O 	O 	0.48186 0.37139 0.51143 -0.43400
O 	O 	0.54139 0.20045 0.71038 -0.51700
O 	O 	0.45861 0.65906 0.21038 -0.51700
O 	O 	0.44753 0.04652 0.45720 -0.45300
O 	O 	0.54139 0.20045 0.78962 -0.51700
O 	O 	0.20045 0.54139 0.28962 -0.51700
O 	O 	0.40101 0.95348 0.95720 -0.45300
O 	O 	0.22882 0.45764 0.51551 -0.14100
O 	O 	0.95348 0.55247 0.45720 -0.45300
O 	O 	0.88953 0.37139 0.51143 -0.43400
O 	O 	0.51814 0.62861 0.01143 -0.43400
O 	O 	0.65906 0.45861 0.78962 -0.51700
O 	O 	0.04652 0.59899 0.95720 -0.45300
O 	O 	0.62861 0.51814 0.98857 -0.43400
O 	O 	0.65906 0.45861 0.71038 -0.51700
O 	O 	0.55247 0.95348 0.95720 -0.45300
O 	O 	0.22882 0.45764 0.98449 -0.14100
O 	O 	0.55247 0.59899 0.95720 -0.45300
O 	O 	0.59899 0.04652 0.45720 -0.45300
O 	O 	0.95348 0.40101 0.45720 -0.45300
O 	O 	0.11047 0.48186 0.48857 -0.43400
O 	O 	0.04652 0.59899 0.54280 -0.45300
O 	O 	0.34094 0.54139 0.21038 -0.51700
O 	O 	0.77118 0.54236 0.01551 -0.14100
O 	O 	0.54236 0.77118 0.98449 -0.14100
O 	O 	0.40101 0.44753 0.54280 -0.45300
O 	O 	0.22882 0.77118 0.51551 -0.14100
O 	O 	0.40101 0.44753 0.95720 -0.45300
O 	O 	0.44753 0.40101 0.04280 -0.45300
O 	O 	0.55247 0.59899 0.54280 -0.45300
O 	O 	0.40101 0.95348 0.54280 -0.45300
