data_crystal

_cell_length_a 9.53300
_cell_length_b 10.20370
_cell_length_c 10.20370
_cell_angle_alpha 109.86500
_cell_angle_beta  110.11800
_cell_angle_gamma 69.88180

_symmetry_space_group_name_	'P 1'
_symmetry_space_group_name_H-M	'P 1'

loop_
_symmetry_equiv_pos_as_xyz
  x,y,z

loop_
_atom_site_label
_atom_site_type_symbol
_atom_site_fract_x
_atom_site_fract_y
_atom_site_fract_z
_atom_site_charge
Mg	Mg	-0.00000 0.00000 -0.00000 1.41700
Mg	Mg	0.50000 0.00000 -0.00000 1.42400
H 	H 	0.14790 0.65790 0.90530 0.38500
H 	H 	0.13820 0.87020 0.32940 0.26000
H 	H 	0.36180 0.32940 0.87020 0.20800
H 	H 	0.85210 0.34210 0.09470 0.12700
H 	H 	0.63820 0.67060 0.12980 -0.03100
H 	H 	0.35210 0.90530 0.65790 0.40600
H 	H 	0.64790 0.09470 0.34210 0.10000
H 	H 	0.86180 0.12980 0.67060 -0.08300
C 	C 	0.58270 0.60171 0.07809 0.25100
C 	C 	0.65550 0.19586 0.95594 0.33300
C 	C 	0.07680 0.02036 0.64624 -0.77700
C 	C 	0.34130 0.54196 0.94024 0.71100
C 	C 	0.92320 0.97964 0.35376 0.43200
C 	C 	0.42320 0.64624 0.02036 -0.63200
C 	C 	0.65870 0.45804 0.05976 -0.22300
C 	C 	0.41730 0.39829 0.92191 -0.44500
C 	C 	0.84130 0.05976 0.45804 -0.32300
C 	C 	0.57680 0.35376 0.97964 0.27300
C 	C 	0.15870 0.94024 0.54196 0.80500
C 	C 	0.15550 0.04406 0.80414 0.63100
C 	C 	0.34450 0.80414 0.04406 0.59000
C 	C 	0.84450 0.95594 0.19586 0.28700
C 	C 	0.91730 0.07809 0.60171 0.43900
C 	C 	0.08270 0.92191 0.39829 -0.64100
O 	O 	0.18770 0.57240 0.87440 -0.57400
O 	O 	0.80180 0.16319 0.98441 -0.41900
O 	O 	0.81230 0.42760 0.12560 -0.27900
O 	O 	0.92380 0.90780 0.10732 -0.45700
O 	O 	0.31230 0.87440 0.57240 -0.59700
O 	O 	0.68770 0.12560 0.42760 -0.25600
O 	O 	0.30180 0.01559 0.83681 -0.64200
O 	O 	0.19820 0.83681 0.01559 -0.65600
O 	O 	0.57620 0.10732 0.90780 -0.50400
O 	O 	0.07620 0.09220 0.89268 -0.57500
O 	O 	0.69820 0.98441 0.16319 -0.42300
O 	O 	0.42380 0.89268 0.09220 -0.54200
