data_crystal

_cell_length_a 8.21690
_cell_length_b 8.21690
_cell_length_c 13.17050
_cell_angle_alpha 90.00000
_cell_angle_beta  90.00000
_cell_angle_gamma 120.00000

_symmetry_space_group_name_	'P 1'
_symmetry_space_group_name_H-M	'P 1'

loop_
_symmetry_equiv_pos_as_xyz
  x,y,z

loop_
_atom_site_label
_atom_site_type_symbol
_atom_site_fract_x
_atom_site_fract_y
_atom_site_fract_z
_atom_site_charge
Zn	Zn	0.66667 0.33334 0.41697 1.18700
Zn	Zn	0.33333 0.66666 0.91697 1.18700
Zn	Zn	0.66667 0.33334 0.08303 1.18700
Zn	Zn	0.33333 0.66666 0.58303 1.18700
C 	C 	0.54000 0.46000 0.01500 -0.26500
C 	C 	0.92000 0.46000 0.48500 -0.26500
C 	C 	0.46000 0.54000 0.51500 -0.26500
C 	C 	0.46000 0.92000 0.98500 -0.26500
C 	C 	0.66667 0.33334 0.20500 -0.39200
C 	C 	0.54000 0.08000 0.01500 -0.26500
C 	C 	0.08000 0.54000 0.98500 -0.26500
C 	C 	0.46000 0.54000 0.98500 -0.26500
C 	C 	0.54000 0.08000 0.48500 -0.26500
C 	C 	0.66667 0.33334 0.29500 -0.39200
C 	C 	0.92000 0.46000 0.01500 -0.26500
C 	C 	0.33333 0.66666 0.70500 -0.39200
C 	C 	0.33333 0.66666 0.79500 -0.39200
C 	C 	0.08000 0.54000 0.51500 -0.26500
C 	C 	0.46000 0.92000 0.51500 -0.26500
C 	C 	0.54000 0.46000 0.48500 -0.26500
