data_crystal

_cell_length_a 19.23430
_cell_length_b 19.23430
_cell_length_c 36.00900
_cell_angle_alpha 90.00000
_cell_angle_beta  90.00000
_cell_angle_gamma 120.00000

_symmetry_space_group_name_	'P 1'
_symmetry_space_group_name_H-M	'P 1'

loop_
_symmetry_equiv_pos_as_xyz
  x,y,z

loop_
_atom_site_label
_atom_site_type_symbol
_atom_site_fract_x
_atom_site_fract_y
_atom_site_fract_z
_atom_site_charge
H 	H 	0.28220 0.92240 0.91990 0.08300
H 	H 	0.90990 0.55500 0.59300 0.00600
H 	H 	0.23220 0.96460 0.88290 0.08300
H 	H 	0.67480 0.14230 0.84770 0.06200
C 	C 	0.10190 0.49310 0.39495 0.05300
C 	C 	0.79410 0.07770 0.13540 -0.16900
C 	C 	0.56700 0.72130 0.95909 -0.05200
C 	C 	0.90213 0.35763 0.02344 0.38200
C 	C 	0.37300 0.50550 0.14070 -0.05700
C 	C 	0.37880 0.12970 0.42920 -0.10200
O 	O 	0.63013 0.11332 0.99128 -0.45400
O 	O 	0.44493 0.40603 0.04242 -0.46500
O 	O 	0.34060 0.79788 0.21003 -0.51700
H 	H 	0.07760 0.35980 0.91990 0.09200
H 	H 	0.44500 0.35490 0.59300 0.01000
H 	H 	0.85770 0.53250 0.84770 0.06400
H 	H 	0.24590 0.33030 0.85120 0.08700
C 	C 	0.50690 0.60880 0.39495 0.05500
C 	C 	0.92230 0.71640 0.13540 -0.16700
C 	C 	0.27870 0.84570 0.95909 -0.05300
C 	C 	0.64237 0.54450 0.02344 0.38100
C 	C 	0.49450 0.86750 0.14070 -0.05700
C 	C 	0.87030 0.24910 0.42920 -0.10200
O 	O 	0.88668 0.51681 0.99128 -0.45300
O 	O 	0.59397 0.03890 0.04242 -0.46500
O 	O 	0.20212 0.54272 0.21003 -0.51700
H 	H 	0.93650 0.76020 0.34730 0.08800
H 	H 	0.64020 0.71780 0.91990 0.09200
H 	H 	0.64510 0.09010 0.59300 0.00900
H 	H 	0.46750 0.32520 0.84770 0.06100
H 	H 	0.66970 0.91560 0.85120 0.08800
C 	C 	0.39120 0.89810 0.39495 0.05400
C 	C 	0.28360 0.20590 0.13540 -0.16900
C 	C 	0.15430 0.43300 0.95909 -0.05200
C 	C 	0.45550 0.09787 0.02344 0.38100
C 	C 	0.13250 0.62700 0.14070 -0.05600
C 	C 	0.75090 0.62120 0.42920 -0.10200
O 	O 	0.48319 0.36987 0.99128 -0.45400
O 	O 	0.96110 0.55507 0.04242 -0.46500
O 	O 	0.45728 0.65940 0.21003 -0.51600
H 	H 	0.71780 0.07760 0.41990 0.09200
H 	H 	0.09010 0.44500 0.09300 0.01000
H 	H 	0.32520 0.85770 0.34770 0.06100
H 	H 	0.91560 0.24590 0.35120 0.08700
C 	C 	0.89810 0.50690 0.89495 0.05500
C 	C 	0.43300 0.27870 0.45909 -0.05200
C 	C 	0.09787 0.64237 0.52344 0.38100
C 	C 	0.62700 0.49450 0.64070 -0.05600
C 	C 	0.62120 0.87030 0.92920 -0.10200
O 	O 	0.36987 0.88668 0.49128 -0.45300
O 	O 	0.55507 0.59397 0.54242 -0.46500
O 	O 	0.65940 0.20212 0.71003 -0.51700
H 	H 	0.17630 0.93650 0.84730 0.08900
H 	H 	0.92240 0.64020 0.41990 0.08200
H 	H 	0.55500 0.64510 0.09300 0.01000
H 	H 	0.96460 0.73240 0.38290 0.08200
H 	H 	0.14230 0.46750 0.34770 0.06200
C 	C 	0.49310 0.39120 0.89495 0.05400
C 	C 	0.07770 0.28360 0.63540 -0.17000
C 	C 	0.72130 0.15430 0.45909 -0.05200
C 	C 	0.35763 0.45550 0.52344 0.38100
C 	C 	0.50550 0.13250 0.64070 -0.05500
C 	C 	0.12970 0.75090 0.92920 -0.10200
O 	O 	0.11332 0.48319 0.49128 -0.45300
O 	O 	0.40603 0.96110 0.54242 -0.46300
O 	O 	0.79788 0.45728 0.71003 -0.51700
H 	H 	0.35980 0.28220 0.41990 0.09100
H 	H 	0.35490 0.90990 0.09300 0.00900
H 	H 	0.53250 0.67480 0.34770 0.06500
H 	H 	0.33030 0.08440 0.35120 0.08700
C 	C 	0.60880 0.10190 0.89495 0.05300
C 	C 	0.71640 0.79410 0.63540 -0.16600
C 	C 	0.84570 0.56700 0.45909 -0.05300
C 	C 	0.54450 0.90213 0.52344 0.38100
C 	C 	0.86750 0.37300 0.64070 -0.05700
C 	C 	0.24910 0.37880 0.92920 -0.10200
O 	O 	0.51681 0.63013 0.49128 -0.45300
O 	O 	0.03890 0.44493 0.54242 -0.46500
O 	O 	0.54272 0.34060 0.71003 -0.51600
H 	H 	0.92240 0.28220 0.08010 0.09100
H 	H 	0.55500 0.90990 0.40700 0.01000
H 	H 	0.14230 0.67480 0.15230 0.06200
H 	H 	0.75410 0.08440 0.14880 0.08800
C 	C 	0.49310 0.10190 0.60505 0.05500
C 	C 	0.72130 0.56700 0.04091 -0.05200
C 	C 	0.35763 0.90213 0.97656 0.38200
C 	C 	0.50550 0.37300 0.85930 -0.05600
C 	C 	0.12970 0.37880 0.57080 -0.10200
O 	O 	0.11332 0.63013 0.00872 -0.45300
O 	O 	0.40603 0.44493 0.95758 -0.46500
O 	O 	0.79788 0.34060 0.78997 -0.51700
H 	H 	0.06350 0.82370 0.65270 0.08900
H 	H 	0.35980 0.07760 0.08010 0.09100
H 	H 	0.35490 0.44500 0.40700 0.00900
H 	H 	0.53250 0.85770 0.15230 0.06200
H 	H 	0.33030 0.24590 0.14880 0.08800
C 	C 	0.60880 0.50690 0.60505 0.05400
C 	C 	0.71640 0.92230 0.86460 -0.16900
C 	C 	0.84570 0.27870 0.04091 -0.05300
C 	C 	0.54450 0.64237 0.97656 0.38100
C 	C 	0.86750 0.49450 0.85930 -0.05500
C 	C 	0.24910 0.87030 0.57080 -0.10200
O 	O 	0.51681 0.88668 0.00872 -0.45300
O 	O 	0.03890 0.59397 0.95758 -0.46300
O 	O 	0.54272 0.20212 0.78997 -0.51700
H 	H 	0.71780 0.64020 0.08010 0.09100
H 	H 	0.09010 0.64510 0.40700 0.00600
H 	H 	0.32520 0.46750 0.15230 0.06200
H 	H 	0.91560 0.66970 0.14880 0.08700
C 	C 	0.89810 0.39120 0.60505 0.05300
C 	C 	0.20590 0.28360 0.86460 -0.16600
C 	C 	0.43300 0.15430 0.04091 -0.05300
C 	C 	0.09787 0.45550 0.97656 0.38100
C 	C 	0.62700 0.13250 0.85930 -0.05700
C 	C 	0.62120 0.75090 0.57080 -0.10200
O 	O 	0.36987 0.48319 0.00872 -0.45300
O 	O 	0.55507 0.96110 0.95758 -0.46500
O 	O 	0.65940 0.45728 0.78997 -0.51600
H 	H 	0.07760 0.71780 0.58010 0.08200
H 	H 	0.44500 0.09010 0.90700 0.00600
H 	H 	0.03540 0.76780 0.61710 0.08300
H 	H 	0.85770 0.32520 0.65230 0.06200
C 	C 	0.50690 0.89810 0.10505 0.05400
C 	C 	0.92230 0.20590 0.36460 -0.16900
C 	C 	0.27870 0.43300 0.54091 -0.05200
C 	C 	0.64237 0.09787 0.47656 0.38100
C 	C 	0.49450 0.62700 0.35930 -0.05600
C 	C 	0.87030 0.62120 0.07080 -0.10200
O 	O 	0.88668 0.36987 0.50872 -0.45300
O 	O 	0.59397 0.55507 0.45758 -0.46300
O 	O 	0.20212 0.65940 0.28997 -0.51800
H 	H 	0.64020 0.92240 0.58010 0.09100
H 	H 	0.64510 0.55500 0.90700 0.01000
H 	H 	0.46750 0.14230 0.65230 0.06400
H 	H 	0.66970 0.75410 0.64880 0.08700
C 	C 	0.39120 0.49310 0.10505 0.05400
C 	C 	0.28360 0.07770 0.36460 -0.16600
C 	C 	0.15430 0.72130 0.54091 -0.05300
C 	C 	0.45550 0.35763 0.47656 0.38100
C 	C 	0.13250 0.50550 0.35930 -0.05600
C 	C 	0.75090 0.12970 0.07080 -0.10200
O 	O 	0.48319 0.11332 0.50872 -0.45300
O 	O 	0.96110 0.40603 0.45758 -0.46500
O 	O 	0.45728 0.79788 0.28997 -0.51600
H 	H 	0.28220 0.35980 0.58010 0.09200
H 	H 	0.90990 0.35490 0.90700 0.00900
H 	H 	0.67480 0.53250 0.65230 0.06100
H 	H 	0.08440 0.33030 0.64880 0.08800
C 	C 	0.10190 0.60880 0.10505 0.05400
C 	C 	0.56700 0.84570 0.54091 -0.05200
C 	C 	0.90213 0.54450 0.47656 0.38100
C 	C 	0.37300 0.86750 0.35930 -0.05600
C 	C 	0.37880 0.24910 0.07080 -0.10200
O 	O 	0.63013 0.51681 0.50872 -0.45300
O 	O 	0.44493 0.03890 0.45758 -0.46500
O 	O 	0.34060 0.54272 0.28997 -0.51600
H 	H 	0.76020 0.82370 0.65270 0.08800
H 	H 	0.71780 0.07760 0.08010 0.08200
H 	H 	0.09010 0.44500 0.40700 0.00700
H 	H 	0.76780 0.03540 0.11710 0.08400
H 	H 	0.32520 0.85770 0.15230 0.06300
C 	C 	0.89810 0.50690 0.60505 0.05300
C 	C 	0.20590 0.92230 0.86460 -0.16700
C 	C 	0.43300 0.27870 0.04091 -0.05300
C 	C 	0.09787 0.64237 0.97656 0.38100
C 	C 	0.62700 0.49450 0.85930 -0.05500
C 	C 	0.62120 0.87030 0.57080 -0.10200
O 	O 	0.36987 0.88668 0.00872 -0.45300
O 	O 	0.55507 0.59397 0.95758 -0.46400
O 	O 	0.65940 0.20212 0.78997 -0.51700
H 	H 	0.92240 0.64020 0.08010 0.08200
H 	H 	0.55500 0.64510 0.40700 0.01000
H 	H 	0.96460 0.73240 0.11710 0.08300
H 	H 	0.14230 0.46750 0.15230 0.06400
C 	C 	0.49310 0.39120 0.60505 0.05400
C 	C 	0.72130 0.15430 0.04091 -0.05300
C 	C 	0.35763 0.45550 0.97656 0.38100
C 	C 	0.50550 0.13250 0.85930 -0.05700
C 	C 	0.12970 0.75090 0.57080 -0.10200
O 	O 	0.11332 0.48319 0.00872 -0.45300
O 	O 	0.40603 0.96110 0.95758 -0.46500
O 	O 	0.79788 0.45728 0.78997 -0.51600
H 	H 	0.06350 0.23980 0.65270 0.09100
H 	H 	0.35980 0.28220 0.08010 0.08200
H 	H 	0.35490 0.90990 0.40700 0.00600
H 	H 	0.26760 0.23220 0.11710 0.08400
H 	H 	0.53250 0.67480 0.15230 0.06400
C 	C 	0.60880 0.10190 0.60505 0.05400
C 	C 	0.84570 0.56700 0.04091 -0.05300
C 	C 	0.54450 0.90213 0.97656 0.38200
C 	C 	0.86750 0.37300 0.85930 -0.05500
C 	C 	0.24910 0.37880 0.57080 -0.10200
O 	O 	0.51681 0.63013 0.00872 -0.45300
O 	O 	0.03890 0.44493 0.95758 -0.46300
O 	O 	0.54272 0.34060 0.78997 -0.51700
H 	H 	0.23980 0.17630 0.15270 0.09000
H 	H 	0.28220 0.92240 0.58010 0.09200
H 	H 	0.90990 0.55500 0.90700 0.01000
H 	H 	0.67480 0.14230 0.65230 0.06400
H 	H 	0.08440 0.75410 0.64880 0.08700
C 	C 	0.10190 0.49310 0.10505 0.05400
C 	C 	0.56700 0.72130 0.54091 -0.05300
C 	C 	0.90213 0.35763 0.47656 0.38100
C 	C 	0.37300 0.50550 0.35930 -0.05600
C 	C 	0.37880 0.12970 0.07080 -0.10200
O 	O 	0.63013 0.11332 0.50872 -0.45300
O 	O 	0.44493 0.40603 0.45758 -0.46300
O 	O 	0.34060 0.79788 0.28997 -0.51700
H 	H 	0.82370 0.06350 0.15270 0.09000
H 	H 	0.07760 0.35980 0.58010 0.08200
H 	H 	0.44500 0.35490 0.90700 0.00600
H 	H 	0.03540 0.26760 0.61710 0.08500
H 	H 	0.85770 0.53250 0.65230 0.06100
C 	C 	0.50690 0.60880 0.10505 0.05400
C 	C 	0.92230 0.71640 0.36460 -0.16500
C 	C 	0.27870 0.84570 0.54091 -0.05200
C 	C 	0.64237 0.54450 0.47656 0.38100
C 	C 	0.49450 0.86750 0.35930 -0.05600
C 	C 	0.87030 0.24910 0.07080 -0.10200
O 	O 	0.88668 0.51681 0.50872 -0.45400
O 	O 	0.59397 0.03890 0.45758 -0.46300
O 	O 	0.20212 0.54272 0.28997 -0.51700
H 	H 	0.93650 0.76020 0.15270 0.08900
H 	H 	0.64020 0.71780 0.58010 0.08200
H 	H 	0.64510 0.09010 0.90700 0.00700
H 	H 	0.73240 0.76780 0.61710 0.08200
H 	H 	0.46750 0.32520 0.65230 0.06400
C 	C 	0.39120 0.89810 0.10505 0.05400
C 	C 	0.15430 0.43300 0.54091 -0.05300
C 	C 	0.45550 0.09787 0.47656 0.38100
C 	C 	0.13250 0.62700 0.35930 -0.05600
C 	C 	0.75090 0.62120 0.07080 -0.10200
O 	O 	0.48319 0.36987 0.50872 -0.45300
O 	O 	0.96110 0.55507 0.45758 -0.46600
O 	O 	0.45728 0.65940 0.28997 -0.51600
H 	H 	0.07760 0.71780 0.91990 0.09200
H 	H 	0.44500 0.09010 0.59300 0.01000
H 	H 	0.85770 0.32520 0.84770 0.06300
H 	H 	0.24590 0.91560 0.85120 0.08700
C 	C 	0.50690 0.89810 0.39495 0.05400
C 	C 	0.27870 0.43300 0.95909 -0.05300
C 	C 	0.64237 0.09787 0.02344 0.38200
C 	C 	0.49450 0.62700 0.14070 -0.05600
C 	C 	0.87030 0.62120 0.42920 -0.10200
O 	O 	0.88668 0.36987 0.99128 -0.45300
O 	O 	0.59397 0.55507 0.04242 -0.46400
O 	O 	0.20212 0.65940 0.21003 -0.51700
H 	H 	0.93650 0.17630 0.34730 0.09000
H 	H 	0.64020 0.92240 0.91990 0.08200
H 	H 	0.64510 0.55500 0.59300 0.00600
H 	H 	0.73240 0.96460 0.88290 0.08400
H 	H 	0.46750 0.14230 0.84770 0.06100
C 	C 	0.39120 0.49310 0.39495 0.05500
C 	C 	0.15430 0.72130 0.95909 -0.05200
C 	C 	0.45550 0.35763 0.02344 0.38100
C 	C 	0.13250 0.50550 0.14070 -0.05500
C 	C 	0.75090 0.12970 0.42920 -0.10200
O 	O 	0.48319 0.11332 0.99128 -0.45400
O 	O 	0.96110 0.40603 0.04242 -0.46400
O 	O 	0.45728 0.79788 0.21003 -0.51700
H 	H 	0.23980 0.06350 0.34730 0.08800
H 	H 	0.28220 0.35980 0.91990 0.08200
H 	H 	0.90990 0.35490 0.59300 0.00700
H 	H 	0.23220 0.26760 0.88290 0.08200
H 	H 	0.67480 0.53250 0.84770 0.06400
C 	C 	0.10190 0.60880 0.39495 0.05300
C 	C 	0.56700 0.84570 0.95909 -0.05300
C 	C 	0.90213 0.54450 0.02344 0.38200
C 	C 	0.37300 0.86750 0.14070 -0.05500
C 	C 	0.37880 0.24910 0.42920 -0.10200
O 	O 	0.63013 0.51681 0.99128 -0.45300
O 	O 	0.44493 0.03890 0.04242 -0.46400
O 	O 	0.34060 0.54272 0.21003 -0.51700
H 	H 	0.17630 0.23980 0.84730 0.08900
H 	H 	0.92240 0.28220 0.41990 0.08200
H 	H 	0.55500 0.90990 0.09300 0.00700
H 	H 	0.96460 0.23220 0.38290 0.08400
H 	H 	0.14230 0.67480 0.34770 0.06100
C 	C 	0.49310 0.10190 0.89495 0.05300
C 	C 	0.07770 0.79410 0.63540 -0.16700
C 	C 	0.72130 0.56700 0.45909 -0.05200
C 	C 	0.35763 0.90213 0.52344 0.38100
C 	C 	0.50550 0.37300 0.64070 -0.05500
C 	C 	0.12970 0.37880 0.92920 -0.10200
O 	O 	0.11332 0.63013 0.49128 -0.45300
O 	O 	0.40603 0.44493 0.54242 -0.46300
O 	O 	0.79788 0.34060 0.71003 -0.51700
H 	H 	0.35980 0.07760 0.41990 0.08200
H 	H 	0.35490 0.44500 0.09300 0.00700
H 	H 	0.26760 0.03540 0.38290 0.08200
H 	H 	0.53250 0.85770 0.34770 0.06500
C 	C 	0.60880 0.50690 0.89495 0.05400
C 	C 	0.84570 0.27870 0.45909 -0.05300
C 	C 	0.54450 0.64237 0.52344 0.38100
C 	C 	0.86750 0.49450 0.64070 -0.05700
C 	C 	0.24910 0.87030 0.92920 -0.10200
O 	O 	0.51681 0.88668 0.49128 -0.45300
O 	O 	0.03890 0.59397 0.54242 -0.46500
O 	O 	0.54272 0.20212 0.71003 -0.51600
H 	H 	0.76020 0.93650 0.84730 0.09000
H 	H 	0.71780 0.64020 0.41990 0.09200
H 	H 	0.09010 0.64510 0.09300 0.00700
H 	H 	0.32520 0.46750 0.34770 0.06400
H 	H 	0.91560 0.66970 0.35120 0.08600
C 	C 	0.89810 0.39120 0.89495 0.05400
C 	C 	0.43300 0.15430 0.45909 -0.05300
C 	C 	0.09787 0.45550 0.52344 0.38100
C 	C 	0.62700 0.13250 0.64070 -0.05500
C 	C 	0.62120 0.75090 0.92920 -0.10200
O 	O 	0.36987 0.48319 0.49128 -0.45300
O 	O 	0.55507 0.96110 0.54242 -0.46300
O 	O 	0.65940 0.45728 0.71003 -0.51700
Zn	Zn	0.04610 0.52305 0.03449 1.21800
Zn	Zn	0.47695 0.52305 0.03449 1.21800
Zn	Zn	0.47695 0.95390 0.03449 1.21800
Zn	Zn	0.95390 0.47695 0.53449 1.21700
Zn	Zn	0.52305 0.47695 0.53449 1.21800
Zn	Zn	0.52305 0.04610 0.53449 1.21800
Zn	Zn	0.52305 0.04610 0.96551 1.21700
Zn	Zn	0.52305 0.47695 0.96551 1.21800
Zn	Zn	0.95390 0.47695 0.96551 1.21700
Zn	Zn	0.47695 0.95390 0.46551 1.21800
Zn	Zn	0.47695 0.52305 0.46551 1.21800
Zn	Zn	0.04610 0.52305 0.46551 1.21800
Cr	Cr	0.44809 0.72404 0.25000 1.55100
Cr	Cr	0.27596 0.72404 0.25000 1.55100
Cr	Cr	0.27596 0.55191 0.25000 1.55100
Cr	Cr	0.55191 0.27596 0.75000 1.55100
Cr	Cr	0.72404 0.27596 0.75000 1.55100
Cr	Cr	0.72404 0.44809 0.75000 1.55100
H 	H 	0.76430 0.23570 0.99970 0.06100
C 	C 	0.17575 0.82425 0.58750 0.16600
H 	H 	0.76430 0.52860 0.99970 0.06200
C 	C 	0.17575 0.35150 0.58750 0.16600
H 	H 	0.47140 0.23570 0.99970 0.06100
C 	C 	0.64850 0.82425 0.58750 0.16600
H 	H 	0.23570 0.76430 0.49970 0.06100
C 	C 	0.82425 0.17575 0.08750 0.16500
H 	H 	0.23570 0.47140 0.49970 0.06100
C 	C 	0.82425 0.64850 0.08750 0.16600
H 	H 	0.52860 0.76430 0.49970 0.06200
C 	C 	0.35150 0.17575 0.08750 0.16500
H 	H 	0.23570 0.76430 0.00030 0.06100
C 	C 	0.82425 0.17575 0.41250 0.16600
H 	H 	0.52860 0.76430 0.00030 0.06100
C 	C 	0.35150 0.17575 0.41250 0.16600
H 	H 	0.23570 0.47140 0.00030 0.06100
C 	C 	0.82425 0.64850 0.41250 0.16600
H 	H 	0.76430 0.23570 0.50030 0.06100
C 	C 	0.17575 0.82425 0.91250 0.16600
H 	H 	0.47140 0.23570 0.50030 0.06200
C 	C 	0.64850 0.82425 0.91250 0.16600
H 	H 	0.76430 0.52860 0.50030 0.06100
C 	C 	0.17575 0.35150 0.91250 0.16600
C 	C 	0.85214 0.42607 0.84139 -0.05600
C 	C 	0.44900 0.22450 0.47635 0.00200
N 	N 	0.91158 0.45579 0.91295 -0.24300
O 	O 	0.30290 0.15145 0.38290 -0.18800
C 	C 	0.57393 0.42607 0.84139 -0.05600
C 	C 	0.77550 0.22450 0.47635 0.00200
N 	N 	0.54421 0.45579 0.91295 -0.24300
O 	O 	0.84855 0.15145 0.38290 -0.18700
C 	C 	0.57393 0.14786 0.84139 -0.05700
C 	C 	0.77550 0.55100 0.47635 0.00200
N 	N 	0.54421 0.08842 0.91295 -0.24300
O 	O 	0.84855 0.69710 0.38290 -0.18800
C 	C 	0.14786 0.57393 0.34139 -0.05700
C 	C 	0.55100 0.77550 0.97635 0.00200
N 	N 	0.08842 0.54421 0.41295 -0.24300
O 	O 	0.69710 0.84855 0.88290 -0.18700
C 	C 	0.42607 0.57393 0.34139 -0.05600
C 	C 	0.22450 0.77550 0.97635 0.00300
N 	N 	0.45579 0.54421 0.41295 -0.24300
O 	O 	0.15145 0.84855 0.88290 -0.18700
C 	C 	0.42607 0.85214 0.34139 -0.05600
C 	C 	0.22450 0.44900 0.97635 0.00200
N 	N 	0.45579 0.91158 0.41295 -0.24300
O 	O 	0.15145 0.30290 0.88290 -0.18800
C 	C 	0.42607 0.85214 0.15861 -0.05600
C 	C 	0.22450 0.44900 0.52365 0.00200
N 	N 	0.45579 0.91158 0.08705 -0.24300
O 	O 	0.15145 0.30290 0.61710 -0.18700
C 	C 	0.42607 0.57393 0.15861 -0.05600
C 	C 	0.22450 0.77550 0.52365 0.00200
N 	N 	0.45579 0.54421 0.08705 -0.24300
O 	O 	0.15145 0.84855 0.61710 -0.18700
C 	C 	0.14786 0.57393 0.15861 -0.05700
C 	C 	0.55100 0.77550 0.52365 0.00200
N 	N 	0.08842 0.54421 0.08705 -0.24300
O 	O 	0.69710 0.84855 0.61710 -0.18800
C 	C 	0.57393 0.14786 0.65861 -0.05600
C 	C 	0.77550 0.55100 0.02365 0.00200
N 	N 	0.54421 0.08842 0.58705 -0.24300
O 	O 	0.84855 0.69710 0.11710 -0.18800
C 	C 	0.57393 0.42607 0.65861 -0.05600
C 	C 	0.77550 0.22450 0.02365 0.00300
N 	N 	0.54421 0.45579 0.58705 -0.24300
O 	O 	0.84855 0.15145 0.11710 -0.18800
C 	C 	0.85214 0.42607 0.65861 -0.05700
C 	C 	0.44900 0.22450 0.02365 0.00200
N 	N 	0.91158 0.45579 0.58705 -0.24300
O 	O 	0.30290 0.15145 0.11710 -0.18800
C 	C 	0.40602 0.81204 0.19620 0.41200
C 	C 	0.18796 0.59398 0.19620 0.41200
C 	C 	0.40602 0.59398 0.19620 0.41200
C 	C 	0.59398 0.18796 0.69620 0.41200
C 	C 	0.81204 0.40602 0.69620 0.41200
C 	C 	0.59398 0.40602 0.69620 0.41200
C 	C 	0.81204 0.40602 0.80380 0.41200
C 	C 	0.59398 0.18796 0.80380 0.41200
C 	C 	0.59398 0.40602 0.80380 0.41200
C 	C 	0.18796 0.59398 0.30380 0.41200
C 	C 	0.40602 0.81204 0.30380 0.41200
C 	C 	0.40602 0.59398 0.30380 0.41200
O 	O 	0.33333 0.66667 0.25000 -0.81700
O 	O 	0.66667 0.33333 0.75000 -0.81700
