data_crystal

_cell_length_a 10.02700
_cell_length_b 18.42000
_cell_length_c 20.57700
_cell_angle_alpha 89.26900
_cell_angle_beta  84.18000
_cell_angle_gamma 88.40200

_symmetry_space_group_name_	'P 1'
_symmetry_space_group_name_H-M	'P 1'

loop_
_symmetry_equiv_pos_as_xyz
  x,y,z

loop_
_atom_site_label
_atom_site_type_symbol
_atom_site_fract_x
_atom_site_fract_y
_atom_site_fract_z
_atom_site_charge
Cd	Cd	0.39173 0.54705 0.95952 1.24300
Cd	Cd	0.60827 0.45295 0.04048 1.24300
Cd	Cd	0.10324 0.04402 0.54326 1.24100
Cd	Cd	0.89676 0.95598 0.45674 1.24100
H 	H 	0.63620 0.81260 0.31120 0.05000
H 	H 	0.60020 0.61160 0.19890 0.02800
H 	H 	0.57630 0.05240 0.56140 0.05400
H 	H 	0.76790 0.17450 0.68180 0.04900
H 	H 	0.11910 0.67950 0.81660 0.04800
H 	H 	0.09170 0.88230 0.70100 0.02800
H 	H 	0.42370 0.94760 0.43860 0.05400
H 	H 	0.90830 0.11770 0.29900 0.02800
H 	H 	0.72040 0.67110 0.81120 0.04700
H 	H 	0.30440 0.72020 0.12010 0.02800
H 	H 	0.27960 0.32890 0.18880 0.04700
H 	H 	0.92630 0.20220 0.21540 0.08600
H 	H 	0.20540 0.30580 0.30190 0.08500
H 	H 	0.88090 0.32050 0.18340 0.04800
H 	H 	0.59410 0.69590 0.28110 0.08600
H 	H 	0.79460 0.69420 0.69810 0.08500
H 	H 	0.10100 0.44790 0.05450 0.05400
H 	H 	0.40590 0.30410 0.71890 0.08600
H 	H 	0.23210 0.82550 0.31820 0.04900
H 	H 	0.39980 0.38840 0.80110 0.02800
H 	H 	0.29270 0.80360 0.20310 0.08600
H 	H 	0.18350 0.22330 0.38900 0.02900
H 	H 	0.89900 0.55210 0.94550 0.05400
H 	H 	0.81650 0.77670 0.61100 0.02900
H 	H 	0.36380 0.18740 0.68880 0.05000
H 	H 	0.70730 0.19640 0.79690 0.08600
H 	H 	0.69560 0.27980 0.87990 0.02800
H 	H 	0.07370 0.79780 0.78460 0.08600
C 	C 	0.69220 0.10880 0.61610 -0.10400
C 	C 	0.93120 0.73670 0.74950 0.09300
C 	C 	0.53770 0.65140 0.19930 0.07400
C 	C 	0.63640 0.28520 0.84680 0.07400
C 	C 	0.44020 0.75820 0.25190 0.09200
C 	C 	0.90460 0.58580 0.91010 0.03900
C 	C 	0.97030 0.38860 0.11550 -0.09000
C 	C 	0.17610 0.92050 0.41610 0.40300
C 	C 	0.06880 0.26330 0.25050 0.09300
C 	C 	0.46490 0.60420 0.09580 0.39000
C 	C 	0.42640 0.91240 0.40510 0.04100
C 	C 	0.53320 0.70090 0.24880 -0.13800
C 	C 	0.45460 0.65750 0.15030 -0.13700
C 	C 	0.95930 0.83680 0.64650 -0.13600
C 	C 	0.96750 0.15690 0.30060 0.07600
C 	C 	0.85700 0.73210 0.69850 -0.13700
C 	C 	0.79920 0.65670 0.83060 0.01100
C 	C 	0.57360 0.08760 0.59490 0.04100
C 	C 	0.43460 0.81170 0.30670 -0.03500
C 	C 	0.53510 0.39580 0.90420 0.39000
C 	C 	0.65420 0.58540 0.91360 0.39800
C 	C 	0.82390 0.07950 0.58390 0.40300
C 	C 	0.46680 0.29910 0.75120 -0.13800
C 	C 	0.55280 0.83290 0.32940 0.00300
C 	C 	0.86950 0.78130 0.64640 0.07000
C 	C 	0.64360 0.23560 0.79730 -0.13800
C 	C 	0.03490 0.66070 0.83310 0.00800
C 	C 	0.20990 0.39060 0.11610 -0.10500
C 	C 	0.97570 0.89080 0.59070 0.40200
C 	C 	0.79010 0.60940 0.88390 -0.10500
C 	C 	0.07770 0.31680 0.19470 -0.03900
C 	C 	0.67490 0.90790 0.40290 0.33100
C 	C 	0.15330 0.58550 0.91350 0.34800
C 	C 	0.02040 0.79350 0.74930 -0.13600
C 	C 	0.14300 0.26790 0.30150 -0.13700
C 	C 	0.55980 0.24180 0.74810 0.09200
C 	C 	0.03250 0.84310 0.69940 0.07600
C 	C 	0.02430 0.10920 0.40930 0.40200
C 	C 	0.36360 0.71480 0.15320 0.07400
C 	C 	0.32510 0.09210 0.59710 0.33100
C 	C 	0.97960 0.20650 0.25070 -0.13600
C 	C 	0.30780 0.89120 0.38390 -0.10400
C 	C 	0.44720 0.16710 0.67060 0.00300
C 	C 	0.56540 0.18830 0.69330 -0.03500
C 	C 	0.45000 0.11580 0.62090 -0.08800
C 	C 	0.84670 0.41450 0.08650 0.34800
C 	C 	0.46230 0.34860 0.80070 0.07400
C 	C 	0.92230 0.68320 0.80530 -0.03900
C 	C 	0.31290 0.84040 0.33380 0.00900
C 	C 	0.54540 0.34250 0.84970 -0.13700
C 	C 	0.20080 0.34330 0.16940 0.01100
C 	C 	0.13050 0.21870 0.35360 0.07000
C 	C 	0.96510 0.33930 0.16690 0.00800
C 	C 	0.34580 0.41460 0.08640 0.39800
C 	C 	0.02970 0.61140 0.88450 -0.09000
C 	C 	0.09540 0.41420 0.08990 0.03900
C 	C 	0.04070 0.16320 0.35350 -0.13600
C 	C 	0.35640 0.76440 0.20270 -0.13800
C 	C 	0.68710 0.15960 0.66620 0.00900
C 	C 	0.55000 0.88420 0.37910 -0.08800
O 	O 	0.25340 0.62580 0.90690 -0.36000
O 	O 	0.33020 0.04630 0.55520 -0.18700
O 	O 	0.66980 0.95370 0.44480 -0.18700
O 	O 	0.39410 0.61540 0.04979 -0.41400
O 	O 	0.05730 0.93970 0.59710 -0.42700
O 	O 	0.68700 0.96900 0.42670 -0.16800
O 	O 	0.18310 0.96720 0.45780 -0.44500
O 	O 	0.94270 0.06030 0.40290 -0.42700
O 	O 	0.45280 0.44810 0.89904 -0.41400
O 	O 	0.22610 0.13740 0.59600 -0.18200
O 	O 	0.44810 0.39280 0.10890 -0.38800
O 	O 	0.21450 0.11540 0.62490 -0.17200
O 	O 	0.74660 0.37420 0.09310 -0.36000
O 	O 	0.31300 0.03100 0.57330 -0.16800
O 	O 	0.09080 0.11770 0.45569 -0.42500
O 	O 	0.84010 0.47010 0.05680 -0.36100
O 	O 	0.54720 0.55190 0.10096 -0.41400
O 	O 	0.92890 0.10160 0.60050 -0.40800
O 	O 	0.55190 0.60720 0.89110 -0.38800
O 	O 	0.07110 0.89840 0.39950 -0.40800
O 	O 	0.34950 0.45580 0.03865 -0.47000
O 	O 	0.78550 0.88460 0.37510 -0.17200
O 	O 	0.15990 0.52990 0.94320 -0.36100
O 	O 	0.90920 0.88230 0.54431 -0.42500
O 	O 	0.60590 0.38460 0.95021 -0.41400
O 	O 	0.65050 0.54420 0.96135 -0.47000
O 	O 	0.77390 0.86260 0.40400 -0.18200
O 	O 	0.81690 0.03280 0.54220 -0.44500
