data_crystal

_cell_length_a 19.16920
_cell_length_b 19.16920
_cell_length_c 35.98600
_cell_angle_alpha 90.00000
_cell_angle_beta  90.00000
_cell_angle_gamma 120.00000

_symmetry_space_group_name_	'P 1'
_symmetry_space_group_name_H-M	'P 1'

loop_
_symmetry_equiv_pos_as_xyz
  x,y,z

loop_
_atom_site_label
_atom_site_type_symbol
_atom_site_fract_x
_atom_site_fract_y
_atom_site_fract_z
_atom_site_charge
H 	H 	0.10290 0.28430 0.87310 0.14000
H 	H 	0.07560 0.35740 0.58040 0.07800
H 	H 	0.85850 0.32550 0.84770 0.06200
H 	H 	0.55420 0.91020 0.40720 0.00300
C 	C 	0.72250 0.56960 0.04097 -0.04900
C 	C 	0.86770 0.49440 0.64069 -0.06200
C 	C 	0.54500 0.90290 0.97649 0.38000
C 	C 	0.39220 0.49400 0.10487 0.06200
C 	C 	0.24880 0.87230 0.57090 -0.10400
O 	O 	0.45756 0.79856 0.21015 -0.52100
O 	O 	0.96175 0.40575 0.04260 -0.46800
O 	O 	0.88676 0.36947 0.50864 -0.45500
H 	H 	0.71570 0.81860 0.87310 0.14100
H 	H 	0.64260 0.71820 0.58040 0.07900
H 	H 	0.67450 0.53300 0.84770 0.06200
H 	H 	0.08980 0.64400 0.40720 0.00300
C 	C 	0.43040 0.15290 0.04097 -0.04900
C 	C 	0.50560 0.37330 0.64069 -0.06200
C 	C 	0.09710 0.64210 0.97649 0.38000
C 	C 	0.50600 0.89820 0.10487 0.06200
C 	C 	0.12770 0.37650 0.57090 -0.10400
O 	O 	0.20144 0.65900 0.21015 -0.52100
O 	O 	0.59425 0.55600 0.04260 -0.46800
O 	O 	0.63053 0.51729 0.50864 -0.45500
H 	H 	0.18140 0.89710 0.87310 0.14100
H 	H 	0.28180 0.92440 0.58040 0.07900
H 	H 	0.46700 0.14150 0.84770 0.06200
H 	H 	0.35600 0.44580 0.40720 0.00300
C 	C 	0.84710 0.27750 0.04097 -0.04900
C 	C 	0.62670 0.13230 0.64069 -0.06200
C 	C 	0.35790 0.45500 0.97649 0.38000
C 	C 	0.10180 0.60780 0.10487 0.06200
C 	C 	0.62350 0.75120 0.57090 -0.10400
O 	O 	0.34100 0.54244 0.21015 -0.52100
O 	O 	0.44400 0.03825 0.04260 -0.46800
O 	O 	0.48271 0.11324 0.50864 -0.45500
H 	H 	0.89710 0.71570 0.37310 0.14100
H 	H 	0.92440 0.64260 0.08040 0.07900
H 	H 	0.14150 0.67450 0.34770 0.06200
H 	H 	0.44580 0.08980 0.90720 0.00300
C 	C 	0.27750 0.43040 0.54097 -0.04900
C 	C 	0.13230 0.50560 0.14069 -0.06200
C 	C 	0.45500 0.09710 0.47649 0.38000
C 	C 	0.60780 0.50600 0.60487 0.06200
C 	C 	0.75120 0.12770 0.07090 -0.10400
O 	O 	0.54244 0.20144 0.71015 -0.52100
O 	O 	0.03825 0.59425 0.54260 -0.46800
O 	O 	0.11324 0.63053 0.00864 -0.45600
H 	H 	0.28430 0.18140 0.37310 0.14100
H 	H 	0.35740 0.28180 0.08040 0.07900
H 	H 	0.32550 0.46700 0.34770 0.06200
H 	H 	0.91020 0.35600 0.90720 0.00300
C 	C 	0.56960 0.84710 0.54097 -0.04900
C 	C 	0.49440 0.62670 0.14069 -0.06200
C 	C 	0.90290 0.35790 0.47649 0.38000
C 	C 	0.49400 0.10180 0.60487 0.06200
C 	C 	0.87230 0.62350 0.07090 -0.10400
O 	O 	0.79856 0.34100 0.71015 -0.52100
O 	O 	0.40575 0.44400 0.54260 -0.46800
O 	O 	0.36947 0.48271 0.00864 -0.45500
H 	H 	0.81860 0.10290 0.37310 0.14100
H 	H 	0.71820 0.07560 0.08040 0.07900
H 	H 	0.53300 0.85850 0.34770 0.06200
H 	H 	0.64400 0.55420 0.90720 0.00300
C 	C 	0.15290 0.72250 0.54097 -0.04900
C 	C 	0.37330 0.86770 0.14069 -0.06200
C 	C 	0.64210 0.54500 0.47649 0.38000
C 	C 	0.89820 0.39220 0.60487 0.06200
C 	C 	0.37650 0.24880 0.07090 -0.10400
O 	O 	0.65900 0.45756 0.71015 -0.52100
O 	O 	0.55600 0.96175 0.54260 -0.46800
O 	O 	0.51729 0.88676 0.00864 -0.45600
H 	H 	0.28430 0.10290 0.12690 0.14100
H 	H 	0.35740 0.07560 0.41960 0.07900
H 	H 	0.32550 0.85850 0.15230 0.06200
H 	H 	0.91020 0.55420 0.59280 0.00300
C 	C 	0.56960 0.72250 0.95903 -0.04900
C 	C 	0.49440 0.86770 0.35931 -0.06200
C 	C 	0.90290 0.54500 0.02351 0.38000
C 	C 	0.49400 0.39220 0.89513 0.06200
C 	C 	0.87230 0.24880 0.42910 -0.10400
O 	O 	0.79856 0.45756 0.78985 -0.52100
O 	O 	0.40575 0.96175 0.95740 -0.46800
O 	O 	0.36947 0.88676 0.49136 -0.45500
H 	H 	0.81860 0.71570 0.12690 0.14100
H 	H 	0.71820 0.64260 0.41960 0.07900
H 	H 	0.53300 0.67450 0.15230 0.06200
H 	H 	0.64400 0.08980 0.59280 0.00300
C 	C 	0.15290 0.43040 0.95903 -0.04900
C 	C 	0.37330 0.50560 0.35931 -0.06200
C 	C 	0.64210 0.09710 0.02351 0.38000
C 	C 	0.89820 0.50600 0.89513 0.06200
C 	C 	0.37650 0.12770 0.42910 -0.10400
O 	O 	0.65900 0.20144 0.78985 -0.52100
O 	O 	0.55600 0.59425 0.95740 -0.46800
O 	O 	0.51729 0.63053 0.49136 -0.45500
H 	H 	0.89710 0.18140 0.12690 0.14100
H 	H 	0.92440 0.28180 0.41960 0.07900
H 	H 	0.14150 0.46700 0.15230 0.06200
H 	H 	0.44580 0.35600 0.59280 0.00300
C 	C 	0.27750 0.84710 0.95903 -0.04900
C 	C 	0.13230 0.62670 0.35931 -0.06200
C 	C 	0.45500 0.35790 0.02351 0.38000
C 	C 	0.60780 0.10180 0.89513 0.06200
C 	C 	0.75120 0.62350 0.42910 -0.10400
O 	O 	0.54244 0.34100 0.78985 -0.52100
O 	O 	0.03825 0.44400 0.95740 -0.46800
O 	O 	0.11324 0.48271 0.49136 -0.45500
H 	H 	0.71570 0.89710 0.62690 0.14100
H 	H 	0.64260 0.92440 0.91960 0.07900
H 	H 	0.67450 0.14150 0.65230 0.06200
H 	H 	0.08980 0.44580 0.09280 0.00300
C 	C 	0.43040 0.27750 0.45903 -0.04900
C 	C 	0.50560 0.13230 0.85931 -0.06200
C 	C 	0.09710 0.45500 0.52351 0.38000
C 	C 	0.50600 0.60780 0.39513 0.06200
C 	C 	0.12770 0.75120 0.92910 -0.10400
O 	O 	0.20144 0.54244 0.28985 -0.52100
O 	O 	0.59425 0.03825 0.45740 -0.46800
O 	O 	0.63053 0.11324 0.99136 -0.45600
H 	H 	0.18140 0.28430 0.62690 0.14100
H 	H 	0.28180 0.35740 0.91960 0.07900
H 	H 	0.46700 0.32550 0.65230 0.06200
H 	H 	0.35600 0.91020 0.09280 0.00300
C 	C 	0.84710 0.56960 0.45903 -0.04900
C 	C 	0.62670 0.49440 0.85931 -0.06200
C 	C 	0.35790 0.90290 0.52351 0.38000
C 	C 	0.10180 0.49400 0.39513 0.06200
C 	C 	0.62350 0.87230 0.92910 -0.10400
O 	O 	0.34100 0.79856 0.28985 -0.52100
O 	O 	0.44400 0.40575 0.45740 -0.46800
O 	O 	0.48271 0.36947 0.99136 -0.45500
H 	H 	0.10290 0.81860 0.62690 0.14100
H 	H 	0.07560 0.71820 0.91960 0.07900
H 	H 	0.85850 0.53300 0.65230 0.06200
H 	H 	0.55420 0.64400 0.09280 0.00300
C 	C 	0.72250 0.15290 0.45903 -0.04900
C 	C 	0.86770 0.37330 0.85931 -0.06200
C 	C 	0.54500 0.64210 0.52351 0.38000
C 	C 	0.39220 0.89820 0.39513 0.06200
C 	C 	0.24880 0.37650 0.92910 -0.10400
O 	O 	0.45756 0.65900 0.28985 -0.52100
O 	O 	0.96175 0.55600 0.45740 -0.46800
O 	O 	0.88676 0.51729 0.99136 -0.45600
H 	H 	0.89710 0.71570 0.12690 0.14100
H 	H 	0.92440 0.64260 0.41960 0.07900
H 	H 	0.14150 0.67450 0.15230 0.06200
H 	H 	0.44580 0.08980 0.59280 0.00300
C 	C 	0.27750 0.43040 0.95903 -0.04900
C 	C 	0.13230 0.50560 0.35931 -0.06200
C 	C 	0.45500 0.09710 0.02351 0.38000
C 	C 	0.60780 0.50600 0.89513 0.06200
C 	C 	0.75120 0.12770 0.42910 -0.10400
O 	O 	0.54244 0.20144 0.78985 -0.52100
O 	O 	0.03825 0.59425 0.95740 -0.46800
O 	O 	0.11324 0.63053 0.49136 -0.45500
H 	H 	0.28430 0.18140 0.12690 0.14100
H 	H 	0.35740 0.28180 0.41960 0.07900
H 	H 	0.32550 0.46700 0.15230 0.06200
H 	H 	0.91020 0.35600 0.59280 0.00300
C 	C 	0.56960 0.84710 0.95903 -0.04900
C 	C 	0.49440 0.62670 0.35931 -0.06200
C 	C 	0.90290 0.35790 0.02351 0.38000
C 	C 	0.49400 0.10180 0.89513 0.06200
C 	C 	0.87230 0.62350 0.42910 -0.10400
O 	O 	0.79856 0.34100 0.78985 -0.52100
O 	O 	0.40575 0.44400 0.95740 -0.46800
O 	O 	0.36947 0.48271 0.49136 -0.45500
H 	H 	0.81860 0.10290 0.12690 0.14100
H 	H 	0.71820 0.07560 0.41960 0.07900
H 	H 	0.53300 0.85850 0.15230 0.06200
H 	H 	0.64400 0.55420 0.59280 0.00300
C 	C 	0.15290 0.72250 0.95903 -0.04900
C 	C 	0.37330 0.86770 0.35931 -0.06200
C 	C 	0.64210 0.54500 0.02351 0.38000
C 	C 	0.89820 0.39220 0.89513 0.06200
C 	C 	0.37650 0.24880 0.42910 -0.10400
O 	O 	0.65900 0.45756 0.78985 -0.52100
O 	O 	0.55600 0.96175 0.95740 -0.46800
O 	O 	0.51729 0.88676 0.49136 -0.45500
H 	H 	0.10290 0.28430 0.62690 0.14100
H 	H 	0.07560 0.35740 0.91960 0.07900
H 	H 	0.85850 0.32550 0.65230 0.06200
H 	H 	0.55420 0.91020 0.09280 0.00300
C 	C 	0.72250 0.56960 0.45903 -0.04900
C 	C 	0.86770 0.49440 0.85931 -0.06200
C 	C 	0.54500 0.90290 0.52351 0.38000
C 	C 	0.39220 0.49400 0.39513 0.06200
C 	C 	0.24880 0.87230 0.92910 -0.10400
O 	O 	0.45756 0.79856 0.28985 -0.52100
O 	O 	0.96175 0.40575 0.45740 -0.46800
O 	O 	0.88676 0.36947 0.99136 -0.45600
H 	H 	0.71570 0.81860 0.62690 0.14100
H 	H 	0.64260 0.71820 0.91960 0.07900
H 	H 	0.67450 0.53300 0.65230 0.06200
H 	H 	0.08980 0.64400 0.09280 0.00300
C 	C 	0.43040 0.15290 0.45903 -0.04900
C 	C 	0.50560 0.37330 0.85931 -0.06200
C 	C 	0.09710 0.64210 0.52351 0.38000
C 	C 	0.50600 0.89820 0.39513 0.06200
C 	C 	0.12770 0.37650 0.92910 -0.10400
O 	O 	0.20144 0.65900 0.28985 -0.52100
O 	O 	0.59425 0.55600 0.45740 -0.46800
O 	O 	0.63053 0.51729 0.99136 -0.45500
H 	H 	0.18140 0.89710 0.62690 0.14100
H 	H 	0.28180 0.92440 0.91960 0.07900
H 	H 	0.46700 0.14150 0.65230 0.06200
H 	H 	0.35600 0.44580 0.09280 0.00300
C 	C 	0.84710 0.27750 0.45903 -0.04900
C 	C 	0.62670 0.13230 0.85931 -0.06200
C 	C 	0.35790 0.45500 0.52351 0.38000
C 	C 	0.10180 0.60780 0.39513 0.06200
C 	C 	0.62350 0.75120 0.92910 -0.10400
O 	O 	0.34100 0.54244 0.28985 -0.52100
O 	O 	0.44400 0.03825 0.45740 -0.46800
O 	O 	0.48271 0.11324 0.99136 -0.45600
H 	H 	0.71570 0.89710 0.87310 0.14100
H 	H 	0.64260 0.92440 0.58040 0.07900
H 	H 	0.67450 0.14150 0.84770 0.06200
H 	H 	0.08980 0.44580 0.40720 0.00300
C 	C 	0.43040 0.27750 0.04097 -0.04900
C 	C 	0.50560 0.13230 0.64069 -0.06200
C 	C 	0.09710 0.45500 0.97649 0.38000
C 	C 	0.50600 0.60780 0.10487 0.06200
C 	C 	0.12770 0.75120 0.57090 -0.10400
O 	O 	0.20144 0.54244 0.21015 -0.52100
O 	O 	0.59425 0.03825 0.04260 -0.46800
O 	O 	0.63053 0.11324 0.50864 -0.45500
H 	H 	0.18140 0.28430 0.87310 0.14100
H 	H 	0.28180 0.35740 0.58040 0.07900
H 	H 	0.46700 0.32550 0.84770 0.06200
H 	H 	0.35600 0.91020 0.40720 0.00300
C 	C 	0.84710 0.56960 0.04097 -0.04900
C 	C 	0.62670 0.49440 0.64069 -0.06200
C 	C 	0.35790 0.90290 0.97649 0.38000
C 	C 	0.10180 0.49400 0.10487 0.06200
C 	C 	0.62350 0.87230 0.57090 -0.10400
O 	O 	0.34100 0.79856 0.21015 -0.52100
O 	O 	0.44400 0.40575 0.04260 -0.46800
O 	O 	0.48271 0.36947 0.50864 -0.45500
H 	H 	0.10290 0.81860 0.87310 0.14100
H 	H 	0.07560 0.71820 0.58040 0.07900
H 	H 	0.85850 0.53300 0.84770 0.06200
H 	H 	0.55420 0.64400 0.40720 0.00300
C 	C 	0.72250 0.15290 0.04097 -0.04900
C 	C 	0.86770 0.37330 0.64069 -0.06200
C 	C 	0.54500 0.64210 0.97649 0.38000
C 	C 	0.39220 0.89820 0.10487 0.06200
C 	C 	0.24880 0.37650 0.57090 -0.10400
O 	O 	0.45756 0.65900 0.21015 -0.52100
O 	O 	0.96175 0.55600 0.04260 -0.46800
O 	O 	0.88676 0.51729 0.50864 -0.45500
H 	H 	0.28430 0.10290 0.37310 0.14100
H 	H 	0.35740 0.07560 0.08040 0.07900
H 	H 	0.32550 0.85850 0.34770 0.06200
H 	H 	0.91020 0.55420 0.90720 0.00300
C 	C 	0.56960 0.72250 0.54097 -0.04900
C 	C 	0.49440 0.86770 0.14069 -0.06200
C 	C 	0.90290 0.54500 0.47649 0.38000
C 	C 	0.49400 0.39220 0.60487 0.06200
C 	C 	0.87230 0.24880 0.07090 -0.10400
O 	O 	0.79856 0.45756 0.71015 -0.52100
O 	O 	0.40575 0.96175 0.54260 -0.46800
O 	O 	0.36947 0.88676 0.00864 -0.45600
H 	H 	0.81860 0.71570 0.37310 0.14100
H 	H 	0.71820 0.64260 0.08040 0.07900
H 	H 	0.53300 0.67450 0.34770 0.06200
H 	H 	0.64400 0.08980 0.90720 0.00300
C 	C 	0.15290 0.43040 0.54097 -0.04900
C 	C 	0.37330 0.50560 0.14069 -0.06200
C 	C 	0.64210 0.09710 0.47649 0.38000
C 	C 	0.89820 0.50600 0.60487 0.06200
C 	C 	0.37650 0.12770 0.07090 -0.10400
O 	O 	0.65900 0.20144 0.71015 -0.52100
O 	O 	0.55600 0.59425 0.54260 -0.46800
O 	O 	0.51729 0.63053 0.00864 -0.45500
H 	H 	0.89710 0.18140 0.37310 0.14100
H 	H 	0.92440 0.28180 0.08040 0.07900
H 	H 	0.14150 0.46700 0.34770 0.06200
H 	H 	0.44580 0.35600 0.90720 0.00300
C 	C 	0.27750 0.84710 0.54097 -0.04900
C 	C 	0.13230 0.62670 0.14069 -0.06200
C 	C 	0.45500 0.35790 0.47649 0.38000
C 	C 	0.60780 0.10180 0.60487 0.06200
C 	C 	0.75120 0.62350 0.07090 -0.10400
O 	O 	0.54244 0.34100 0.71015 -0.52100
O 	O 	0.03825 0.44400 0.54260 -0.46800
O 	O 	0.11324 0.48271 0.00864 -0.45600
Zn	Zn	0.04600 0.52300 0.46576 1.21700
Zn	Zn	0.47700 0.52300 0.46576 1.21700
Zn	Zn	0.47700 0.95400 0.46576 1.21700
Zn	Zn	0.95400 0.47700 0.96576 1.21700
Zn	Zn	0.52300 0.47700 0.96576 1.21700
Zn	Zn	0.52300 0.04600 0.96576 1.21700
Zn	Zn	0.52300 0.04600 0.53424 1.21700
Zn	Zn	0.52300 0.47700 0.53424 1.21700
Zn	Zn	0.95400 0.47700 0.53424 1.21700
Zn	Zn	0.47700 0.95400 0.03424 1.21700
Zn	Zn	0.47700 0.52300 0.03424 1.21700
Zn	Zn	0.04600 0.52300 0.03424 1.21700
Cr	Cr	0.72416 0.44832 0.75000 1.55200
Cr	Cr	0.55168 0.27584 0.75000 1.55200
Cr	Cr	0.72416 0.27584 0.75000 1.55200
Cr	Cr	0.27584 0.55168 0.25000 1.55200
Cr	Cr	0.44832 0.72416 0.25000 1.55200
Cr	Cr	0.27584 0.72416 0.25000 1.55200
H 	H 	0.76275 0.23725 0.00020 0.06400
C 	C 	0.17515 0.82485 0.58700 0.14300
N 	N 	0.54444 0.45556 0.91296 -0.24700
H 	H 	0.76275 0.52550 0.00020 0.06400
C 	C 	0.17515 0.35030 0.58700 0.14300
N 	N 	0.54444 0.08888 0.91296 -0.24700
H 	H 	0.47450 0.23725 0.00020 0.06400
C 	C 	0.64970 0.82485 0.58700 0.14300
N 	N 	0.91112 0.45556 0.91296 -0.24700
H 	H 	0.23725 0.76275 0.50020 0.06400
C 	C 	0.82485 0.17515 0.08700 0.14300
N 	N 	0.45556 0.54444 0.41296 -0.24700
H 	H 	0.23725 0.47450 0.50020 0.06400
C 	C 	0.82485 0.64970 0.08700 0.14300
N 	N 	0.45556 0.91112 0.41296 -0.24700
H 	H 	0.52550 0.76275 0.50020 0.06400
C 	C 	0.35030 0.17515 0.08700 0.14300
N 	N 	0.08888 0.54444 0.41296 -0.24700
H 	H 	0.23725 0.76275 0.99980 0.06400
C 	C 	0.82485 0.17515 0.41300 0.14300
N 	N 	0.45556 0.54444 0.08704 -0.24700
H 	H 	0.52550 0.76275 0.99980 0.06400
C 	C 	0.35030 0.17515 0.41300 0.14300
N 	N 	0.08888 0.54444 0.08704 -0.24700
H 	H 	0.23725 0.47450 0.99980 0.06400
C 	C 	0.82485 0.64970 0.41300 0.14300
N 	N 	0.45556 0.91112 0.08704 -0.24700
H 	H 	0.76275 0.23725 0.49980 0.06400
C 	C 	0.17515 0.82485 0.91300 0.14300
N 	N 	0.54444 0.45556 0.58704 -0.24700
H 	H 	0.47450 0.23725 0.49980 0.06400
C 	C 	0.64970 0.82485 0.91300 0.14300
N 	N 	0.91112 0.45556 0.58704 -0.24700
H 	H 	0.76275 0.52550 0.49980 0.06400
C 	C 	0.17515 0.35030 0.91300 0.14300
N 	N 	0.54444 0.08888 0.58704 -0.24700
C 	C 	0.85184 0.42592 0.84171 -0.05600
C 	C 	0.44920 0.22460 0.47645 -0.00700
N 	N 	0.30030 0.15015 0.11730 -0.30600
C 	C 	0.57408 0.42592 0.84171 -0.05600
C 	C 	0.77540 0.22460 0.47645 -0.00700
N 	N 	0.84985 0.15015 0.11730 -0.30600
C 	C 	0.57408 0.14816 0.84171 -0.05600
C 	C 	0.77540 0.55080 0.47645 -0.00700
N 	N 	0.84985 0.69970 0.11730 -0.30600
C 	C 	0.14816 0.57408 0.34171 -0.05600
C 	C 	0.55080 0.77540 0.97645 -0.00700
N 	N 	0.69970 0.84985 0.61730 -0.30600
C 	C 	0.42592 0.57408 0.34171 -0.05600
C 	C 	0.22460 0.77540 0.97645 -0.00700
N 	N 	0.15015 0.84985 0.61730 -0.30600
C 	C 	0.42592 0.85184 0.34171 -0.05600
C 	C 	0.22460 0.44920 0.97645 -0.00700
N 	N 	0.15015 0.30030 0.61730 -0.30600
C 	C 	0.42592 0.85184 0.15829 -0.05600
C 	C 	0.22460 0.44920 0.52355 -0.00700
N 	N 	0.15015 0.30030 0.88270 -0.30600
C 	C 	0.42592 0.57408 0.15829 -0.05600
C 	C 	0.22460 0.77540 0.52355 -0.00700
N 	N 	0.15015 0.84985 0.88270 -0.30600
C 	C 	0.14816 0.57408 0.15829 -0.05600
C 	C 	0.55080 0.77540 0.52355 -0.00700
N 	N 	0.69970 0.84985 0.88270 -0.30600
C 	C 	0.57408 0.14816 0.65829 -0.05600
C 	C 	0.77540 0.55080 0.02355 -0.00700
N 	N 	0.84985 0.69970 0.38270 -0.30600
C 	C 	0.57408 0.42592 0.65829 -0.05600
C 	C 	0.77540 0.22460 0.02355 -0.00700
N 	N 	0.84985 0.15015 0.38270 -0.30600
C 	C 	0.85184 0.42592 0.65829 -0.05600
C 	C 	0.44920 0.22460 0.02355 -0.00700
N 	N 	0.30030 0.15015 0.38270 -0.30600
C 	C 	0.40668 0.81336 0.19635 0.41700
C 	C 	0.18664 0.59332 0.19635 0.41700
C 	C 	0.40668 0.59332 0.19635 0.41700
C 	C 	0.59332 0.18664 0.69635 0.41700
C 	C 	0.81336 0.40668 0.69635 0.41700
C 	C 	0.59332 0.40668 0.69635 0.41700
C 	C 	0.81336 0.40668 0.80365 0.41700
C 	C 	0.59332 0.18664 0.80365 0.41700
C 	C 	0.59332 0.40668 0.80365 0.41700
C 	C 	0.18664 0.59332 0.30365 0.41700
C 	C 	0.40668 0.81336 0.30365 0.41700
C 	C 	0.40668 0.59332 0.30365 0.41700
O 	O 	0.66667 0.33333 0.75000 -0.81700
O 	O 	0.33333 0.66667 0.25000 -0.81700
