data_crystal

_cell_length_a 19.20950
_cell_length_b 19.20950
_cell_length_c 36.02450
_cell_angle_alpha 90.00000
_cell_angle_beta  90.00000
_cell_angle_gamma 120.00000

_symmetry_space_group_name_	'P 1'
_symmetry_space_group_name_H-M	'P 1'

loop_
_symmetry_equiv_pos_as_xyz
  x,y,z

loop_
_atom_site_label
_atom_site_type_symbol
_atom_site_fract_x
_atom_site_fract_y
_atom_site_fract_z
_atom_site_charge
H 	H 	0.92300 0.28470 0.41950 0.01300
H 	H 	0.32570 0.46750 0.15250 -0.02600
H 	H 	0.44560 0.35440 0.90750 -0.03200
C 	C 	0.74930 0.12800 0.07020 -0.05200
C 	C 	0.62670 0.13260 0.64070 -0.05800
C 	C 	0.90290 0.54610 0.47648 -0.04200
C 	C 	0.43000 0.15310 0.04055 -0.14100
C 	C 	0.49340 0.10250 0.60473 -0.05100
O 	O 	0.11378 0.48361 0.00836 -0.18100
O 	O 	0.59385 0.03796 0.04259 -0.28700
O 	O 	0.34079 0.54282 0.28975 -0.45200
Zn	Zn	0.52333 0.04666 0.96536 1.01300
Br	Br	0.85788 0.71576 0.12820 -0.23700
Cr	Cr	0.27580 0.55160 0.25000 1.38600
H 	H 	0.47200 0.23600 0.49970 0.05800
C 	C 	0.44748 0.22374 0.47621 -0.09700
C 	C 	0.40605 0.59395 0.19650 -0.16500
C 	C 	0.82440 0.17560 0.41450 -0.05300
C 	C 	0.42590 0.85180 0.34158 -0.02900
N 	N 	0.45535 0.91070 0.08733 -0.11100
O 	O 	0.33333 0.66667 0.25000 -0.45600
