data_crystal

_cell_length_a 12.48150
_cell_length_b 12.48150
_cell_length_c 12.48150
_cell_angle_alpha 90.00000
_cell_angle_beta  90.00000
_cell_angle_gamma 90.00000

_symmetry_space_group_name_	'P 1'
_symmetry_space_group_name_H-M	'P 1'

loop_
_symmetry_equiv_pos_as_xyz
  x,y,z

loop_
_atom_site_label
_atom_site_type_symbol
_atom_site_fract_x
_atom_site_fract_y
_atom_site_fract_z
_atom_site_charge
C 	C 	0.04880 0.34090 0.06810 -0.27100
N 	N 	0.07420 0.25940 0.08820 -0.27200
C 	C 	0.45120 0.65910 0.56810 -0.19900
N 	N 	0.42580 0.74060 0.58820 -0.26700
C 	C 	0.95120 0.84090 0.43190 -0.12800
N 	N 	0.92580 0.75940 0.41180 -0.27500
C 	C 	0.54880 0.15910 0.93190 -0.18800
N 	N 	0.57420 0.24060 0.91180 -0.26500
C 	C 	0.06810 0.04880 0.34090 -0.27000
N 	N 	0.08820 0.07420 0.25940 -0.27100
C 	C 	0.56810 0.45120 0.65910 -0.19800
N 	N 	0.58820 0.42580 0.74060 -0.26600
C 	C 	0.43190 0.95120 0.84090 -0.12700
N 	N 	0.41180 0.92580 0.75940 -0.27400
C 	C 	0.93190 0.54880 0.15910 -0.18800
N 	N 	0.91180 0.57420 0.24060 -0.26500
C 	C 	0.34090 0.06810 0.04880 -0.27000
N 	N 	0.25940 0.08820 0.07420 -0.27100
C 	C 	0.65910 0.56810 0.45120 -0.19800
N 	N 	0.74060 0.58820 0.42580 -0.26600
C 	C 	0.84090 0.43190 0.95120 -0.12700
N 	N 	0.75940 0.41180 0.92580 -0.27400
C 	C 	0.15910 0.93190 0.54880 -0.18800
N 	N 	0.24060 0.91180 0.57420 -0.26500
C 	C 	0.95120 0.65910 0.93190 -0.12000
N 	N 	0.92580 0.74060 0.91180 -0.26900
C 	C 	0.54880 0.34090 0.43190 -0.20700
N 	N 	0.57420 0.25940 0.41180 -0.26800
C 	C 	0.04880 0.15910 0.56810 -0.26100
N 	N 	0.07420 0.24060 0.58820 -0.26500
C 	C 	0.45120 0.84090 0.06810 -0.19600
N 	N 	0.42580 0.75940 0.08820 -0.27400
C 	C 	0.93190 0.95120 0.65910 -0.12000
N 	N 	0.91180 0.92580 0.74060 -0.26900
C 	C 	0.43190 0.54880 0.34090 -0.20700
N 	N 	0.41180 0.57420 0.25940 -0.26800
C 	C 	0.56810 0.04880 0.15910 -0.26100
N 	N 	0.58820 0.07420 0.24060 -0.26500
C 	C 	0.06810 0.45120 0.84090 -0.19600
N 	N 	0.08820 0.42580 0.75940 -0.27400
C 	C 	0.65910 0.93190 0.95120 -0.12000
N 	N 	0.74060 0.91180 0.92580 -0.26900
C 	C 	0.34090 0.43190 0.54880 -0.20700
N 	N 	0.25940 0.41180 0.57420 -0.26800
C 	C 	0.15910 0.56810 0.04880 -0.26100
N 	N 	0.24060 0.58820 0.07420 -0.26500
C 	C 	0.84090 0.06810 0.45120 -0.19600
N 	N 	0.75940 0.08820 0.42580 -0.27400
C 	C 	0.02620 0.02620 0.02620 -0.72600
Zn	Zn	0.10819 0.10819 0.10819 1.17600
C 	C 	0.47380 0.97380 0.52620 -0.19500
Zn	Zn	0.39181 0.89181 0.60819 1.17000
C 	C 	0.97380 0.52620 0.47380 -0.19500
Zn	Zn	0.89181 0.60819 0.39181 1.17000
C 	C 	0.52620 0.47380 0.97380 -0.19500
Zn	Zn	0.60819 0.39181 0.89181 1.17000
C 	C 	0.97380 0.97380 0.97380 0.06200
Zn	Zn	0.89181 0.89181 0.89181 1.16600
C 	C 	0.52620 0.02620 0.47380 -0.46600
Zn	Zn	0.60819 0.10819 0.39181 1.17300
C 	C 	0.02620 0.47380 0.52620 -0.46600
Zn	Zn	0.10819 0.39181 0.60819 1.17300
C 	C 	0.47380 0.52620 0.02620 -0.46600
Zn	Zn	0.39181 0.60819 0.10819 1.17300
Zn	Zn	0.50000 0.50000 0.50000 1.14200
Zn	Zn	-0.00000 0.50000 -0.00000 1.09900
Zn	Zn	0.50000 0.00000 -0.00000 1.09900
Zn	Zn	0.00000 0.00000 0.50000 1.09900
