data_crystal

_cell_length_a 16.79200
_cell_length_b 41.04650
_cell_length_c 41.04650
_cell_angle_alpha 120.00000
_cell_angle_beta  90.00000
_cell_angle_gamma 90.00000

_symmetry_space_group_name_	'P 1'
_symmetry_space_group_name_H-M	'P 1'

loop_
_symmetry_equiv_pos_as_xyz
  x,y,z

loop_
_atom_site_label
_atom_site_type_symbol
_atom_site_fract_x
_atom_site_fract_y
_atom_site_fract_z
_atom_site_charge
Zr	Zr	0.10288 0.45821 0.45821 3.22000
Zr	Zr	-0.00000 0.93330 0.46665 3.21200
Zr	Zr	0.89712 0.45821 -0.00000 3.22000
Zr	Zr	0.10288 0.00000 0.45821 3.21700
Zr	Zr	0.89712 0.54179 0.54179 3.22200
Zr	Zr	0.89712 0.00000 0.54179 3.22000
Zr	Zr	0.89712 0.00000 0.45821 3.22000
Zr	Zr	0.10288 0.54179 0.54179 3.22000
Zr	Zr	0.10288 0.45821 -0.00000 3.21700
Zr	Zr	0.89712 0.45821 0.45821 3.22300
Zr	Zr	0.10288 0.00000 0.54179 3.21800
Zr	Zr	0.10288 0.54179 -0.00000 3.21800
Zr	Zr	0.89712 0.54179 -0.00000 3.22100
Zr	Zr	0.00000 0.06670 0.53335 3.21400
Zr	Zr	0.00000 0.53335 0.46665 3.21400
Zr	Zr	-0.00000 0.53335 0.06670 3.21400
Zr	Zr	-0.00000 0.46665 0.93330 3.21300
Zr	Zr	0.00000 0.46665 0.53335 3.21400
H 	H 	0.85407 0.60174 -0.00000 0.16600
H 	H 	0.18268 0.78188 0.31295 0.04500
H 	H 	0.85407 0.39826 0.39826 0.16900
H 	H 	0.18268 0.68705 0.46893 0.04500
H 	H 	0.24925 0.00000 0.43964 0.16700
H 	H 	0.65592 0.13608 0.68579 0.05200
H 	H 	0.34408 0.54971 0.86392 0.05400
H 	H 	0.78158 0.75217 0.24783 0.04600
H 	H 	0.73205 0.54885 0.63453 0.03900
H 	H 	0.42820 0.33241 0.50126 0.04600
H 	H 	0.42820 0.66759 0.49874 0.04600
H 	H 	0.57180 0.49874 0.66759 0.04600
H 	H 	0.18268 0.46893 0.78188 0.04500
H 	H 	0.81732 0.21812 0.53107 0.05200
H 	H 	0.42820 0.83115 0.49874 0.04700
H 	H 	0.26795 0.91432 0.54885 0.04200
H 	H 	0.89288 0.53219 0.16769 0.04600
H 	H 	0.42820 0.50126 0.16885 0.04500
H 	H 	0.42820 0.33241 0.83115 0.04700
H 	H 	0.75075 0.00000 0.43964 0.16800
H 	H 	0.34408 0.86392 0.54971 0.05400
H 	H 	0.89288 0.16769 0.53219 0.04600
H 	H 	0.24925 0.00000 0.56036 0.16700
H 	H 	0.10712 0.83231 0.46781 0.03300
H 	H 	0.42820 0.16885 0.50126 0.04500
H 	H 	0.26795 0.54885 0.63453 0.03700
H 	H 	0.78158 0.50434 0.75217 0.04600
H 	H 	0.81732 0.46893 0.68705 0.05200
H 	H 	0.73205 0.45115 0.36547 0.03800
H 	H 	0.26795 0.36547 0.91432 0.04100
H 	H 	0.81732 0.31295 0.53107 0.05200
H 	H 	0.18268 0.31295 0.53107 0.04500
H 	H 	0.73205 0.45115 0.08568 0.03600
H 	H 	0.89288 0.46781 0.83231 0.04700
H 	H 	0.34408 0.68579 0.54971 0.05200
H 	H 	0.89288 0.83231 0.46781 0.04700
H 	H 	0.34408 0.31421 0.45029 0.05000
H 	H 	0.57180 0.16885 0.66759 0.04500
H 	H 	0.34408 0.45029 0.13608 0.04900
H 	H 	0.42820 0.16885 0.66759 0.04500
H 	H 	0.81732 0.21812 0.68705 0.05200
H 	H 	0.26795 0.45115 0.08568 0.03400
H 	H 	0.85407 0.00000 0.60174 0.16600
H 	H 	0.18268 0.21812 0.68705 0.04500
H 	H 	0.85407 0.39826 -0.00000 0.16500
H 	H 	0.42820 0.49874 0.66759 0.04600
H 	H 	0.89288 0.63550 0.16769 0.04700
H 	H 	0.10712 0.53219 0.16769 0.03200
H 	H 	0.73205 0.36547 0.91432 0.04400
H 	H 	0.10712 0.53219 0.36450 0.03200
H 	H 	0.73205 0.63453 0.54885 0.03900
H 	H 	0.81732 0.78188 0.31295 0.05200
H 	H 	0.89288 0.53219 0.36450 0.04600
H 	H 	0.26795 0.45115 0.36547 0.03500
H 	H 	0.42820 0.50126 0.33241 0.04600
H 	H 	0.34408 0.13608 0.68579 0.05000
H 	H 	0.18268 0.21812 0.53107 0.04500
H 	H 	0.89288 0.36450 0.53219 0.04600
H 	H 	0.14593 0.39826 0.39826 0.16800
H 	H 	0.26795 0.63453 0.08568 0.03400
H 	H 	0.57180 0.16885 0.50126 0.04500
H 	H 	0.10712 0.16769 0.53219 0.03200
H 	H 	0.57180 0.49874 0.83115 0.04700
H 	H 	0.34408 0.31421 0.86392 0.05300
H 	H 	0.73205 0.63453 0.08568 0.03700
H 	H 	0.78158 0.24783 0.49566 0.04500
H 	H 	0.10712 0.36450 0.53219 0.03200
H 	H 	0.18268 0.31295 0.78188 0.04500
H 	H 	0.75075 0.56036 0.56036 0.17300
H 	H 	0.24925 0.43964 -0.00000 0.16700
H 	H 	0.73205 0.54885 0.91432 0.04400
H 	H 	0.34408 0.45029 0.31421 0.05000
H 	H 	0.21842 0.75217 0.50434 0.03900
H 	H 	0.26795 0.08568 0.45115 0.03400
H 	H 	0.65592 0.31421 0.86392 0.05400
H 	H 	0.10712 0.63550 0.46781 0.03300
H 	H 	0.75075 0.00000 0.56036 0.16800
H 	H 	0.57180 0.83115 0.49874 0.04700
H 	H 	0.78158 0.24783 0.75217 0.04600
H 	H 	0.18268 0.68705 0.21812 0.04500
H 	H 	0.10712 0.16769 0.63550 0.03200
H 	H 	0.57180 0.33241 0.50126 0.04600
H 	H 	0.89288 0.46781 0.63550 0.04700
H 	H 	0.89288 0.83231 0.36450 0.04700
H 	H 	0.65592 0.68579 0.54971 0.05400
H 	H 	0.21842 0.49566 0.24783 0.03800
H 	H 	0.21842 0.50434 0.75217 0.03900
H 	H 	0.24925 0.56036 -0.00000 0.16700
H 	H 	0.81732 0.68705 0.46893 0.05200
H 	H 	0.65592 0.86392 0.31421 0.05400
H 	H 	0.10712 0.63550 0.16769 0.03200
H 	H 	0.73205 0.36547 0.45115 0.03800
H 	H 	0.57180 0.50126 0.16885 0.04500
H 	H 	0.34408 0.68579 0.13608 0.05000
H 	H 	0.65592 0.45029 0.31421 0.05200
H 	H 	0.81732 0.68705 0.21812 0.05200
H 	H 	0.57180 0.66759 0.49874 0.04600
H 	H 	0.65592 0.45029 0.13608 0.05100
H 	H 	0.65592 0.31421 0.45029 0.05200
H 	H 	0.18268 0.53107 0.21812 0.04500
H 	H 	0.42820 0.49874 0.83115 0.04700
H 	H 	0.75075 0.43964 -0.00000 0.16800
H 	H 	0.57180 0.50126 0.33241 0.04600
H 	H 	0.10712 0.83231 0.36450 0.03300
H 	H 	0.89288 0.36450 0.83231 0.04700
H 	H 	0.89288 0.16769 0.63550 0.04700
H 	H 	0.65592 0.86392 0.54971 0.05500
H 	H 	0.10712 0.46781 0.63550 0.03300
H 	H 	0.57180 0.83115 0.33241 0.04700
H 	H 	0.78158 0.49566 0.24783 0.04500
H 	H 	0.18268 0.46893 0.68705 0.04500
H 	H 	0.14593 0.00000 0.60174 0.16400
H 	H 	0.73205 0.08568 0.63453 0.03700
H 	H 	0.14593 0.60174 0.60174 0.16900
H 	H 	0.73205 0.91432 0.36547 0.04400
H 	H 	0.26795 0.54885 0.91432 0.04200
H 	H 	0.73205 0.91432 0.54885 0.04400
H 	H 	0.10712 0.36450 0.83231 0.03300
H 	H 	0.89288 0.63550 0.46781 0.04700
H 	H 	0.65592 0.68579 0.13608 0.05200
H 	H 	0.21842 0.75217 0.24783 0.03900
H 	H 	0.26795 0.36547 0.45115 0.03500
H 	H 	0.81732 0.53107 0.21812 0.05200
H 	H 	0.21842 0.24783 0.49566 0.03800
H 	H 	0.24925 0.43964 0.43964 0.17100
H 	H 	0.81732 0.46893 0.78188 0.05200
H 	H 	0.26795 0.91432 0.36547 0.04100
H 	H 	0.34408 0.86392 0.31421 0.05300
H 	H 	0.14593 0.00000 0.39826 0.16400
H 	H 	0.57180 0.66759 0.16885 0.04500
H 	H 	0.65592 0.54971 0.86392 0.05500
H 	H 	0.24925 0.56036 0.56036 0.17200
H 	H 	0.26795 0.08568 0.63453 0.03400
H 	H 	0.73205 0.08568 0.45115 0.03600
H 	H 	0.42820 0.66759 0.16885 0.04500
H 	H 	0.42820 0.83115 0.33241 0.04700
H 	H 	0.81732 0.53107 0.31295 0.05200
H 	H 	0.10712 0.46781 0.83231 0.03300
H 	H 	0.14593 0.60174 -0.00000 0.16400
H 	H 	0.85407 0.00000 0.39826 0.16500
H 	H 	0.78158 0.75217 0.50434 0.04600
H 	H 	0.18268 0.78188 0.46893 0.04500
H 	H 	0.75075 0.56036 -0.00000 0.16800
H 	H 	0.75075 0.43964 0.43964 0.17200
H 	H 	0.57180 0.33241 0.83115 0.04700
H 	H 	0.65592 0.13608 0.45029 0.05100
H 	H 	0.14593 0.39826 -0.00000 0.16400
H 	H 	0.34408 0.54971 0.68579 0.05200
H 	H 	0.81732 0.78188 0.46893 0.05200
H 	H 	0.34408 0.13608 0.45029 0.04900
H 	H 	0.85407 0.60174 0.60174 0.17100
H 	H 	0.65592 0.54971 0.68579 0.05400
H 	H 	0.26795 0.63453 0.54885 0.03700
H 	H 	0.21842 0.24783 0.75217 0.03900
H 	H 	0.81732 0.31295 0.78188 0.05200
H 	H 	0.18268 0.53107 0.31295 0.04500
C 	C 	0.32237 0.50769 0.78530 -0.01600
C 	C 	0.79678 0.18956 0.67634 -0.06700
C 	C 	0.72553 0.69151 0.18333 0.03600
C 	C 	0.70607 0.14421 0.67487 -0.06900
C 	C 	0.13339 0.49331 0.09024 0.45900
C 	C 	0.72553 0.49182 0.30849 0.03600
C 	C 	0.86661 0.90976 0.40307 0.45800
C 	C 	0.84108 0.51410 0.35431 0.03600
C 	C 	0.28282 0.50527 0.75263 -0.03700
C 	C 	0.54421 0.49481 0.30612 -0.04200
C 	C 	0.84108 0.48590 0.84021 0.03600
C 	C 	0.54421 0.50519 0.69388 -0.04100
C 	C 	0.67763 0.49231 0.21470 -0.01500
C 	C 	0.59043 0.72436 0.21498 0.01300
C 	C 	0.79678 0.81044 0.32366 -0.06600
C 	C 	0.17941 0.50786 0.62872 -0.12300
C 	C 	0.24817 0.53073 0.88567 0.03700
C 	C 	0.86661 0.59693 0.50669 0.45900
C 	C 	0.86661 0.90976 0.50669 0.45800
C 	C 	0.15892 0.48590 0.84021 0.03400
C 	C 	0.71718 0.49473 0.24737 -0.03700
C 	C 	0.27447 0.18333 0.49182 0.03500
C 	C 	0.75183 0.88567 0.53073 0.03800
C 	C 	0.59043 0.27564 0.78502 0.01300
C 	C 	0.70607 0.85579 0.32513 -0.06700
C 	C 	0.71718 0.50527 0.75263 -0.03700
C 	C 	0.32237 0.72239 0.50769 -0.01600
C 	C 	0.29393 0.46934 0.32513 -0.07300
C 	C 	0.17941 0.62872 0.12086 -0.12400
C 	C 	0.20322 0.67634 0.18956 -0.07300
C 	C 	0.17941 0.12086 0.62872 -0.12400
C 	C 	0.17941 0.62872 0.50786 -0.12300
C 	C 	0.13339 0.40307 0.90976 0.45800
C 	C 	0.45579 0.30612 0.81131 -0.04100
C 	C 	0.13339 0.09024 0.49331 0.45900
C 	C 	0.54699 0.75538 0.24463 -0.00500
C 	C 	0.29393 0.67487 0.14421 -0.07300
C 	C 	0.72553 0.18333 0.69151 0.03600
C 	C 	0.54421 0.69388 0.50519 -0.04100
C 	C 	0.84108 0.35431 0.84021 0.03600
C 	C 	0.20322 0.51322 0.18956 -0.07300
C 	C 	0.72553 0.49182 0.18333 0.03600
C 	C 	0.32237 0.78530 0.50769 -0.01600
C 	C 	0.20322 0.32366 0.51322 -0.07300
C 	C 	0.70607 0.53066 0.67487 -0.06900
C 	C 	0.40957 0.78502 0.27564 0.01300
C 	C 	0.70607 0.53066 0.85579 -0.06700
C 	C 	0.40957 0.49062 0.27564 0.01300
C 	C 	0.70607 0.46934 0.14421 -0.07000
C 	C 	0.79678 0.67634 0.18956 -0.06700
C 	C 	0.71718 0.75264 0.24737 -0.03700
C 	C 	0.45579 0.18869 0.69388 -0.04200
C 	C 	0.67763 0.72239 0.21470 -0.01400
C 	C 	0.86661 0.40307 0.49331 0.45900
C 	C 	0.67763 0.50769 0.72239 -0.01400
C 	C 	0.15892 0.35431 0.84021 0.03400
C 	C 	0.28282 0.49473 0.24737 -0.03800
C 	C 	0.54421 0.81131 0.30612 -0.04100
C 	C 	0.70607 0.67487 0.14421 -0.06900
C 	C 	0.45579 0.30612 0.49481 -0.04200
C 	C 	0.29393 0.85579 0.53066 -0.07000
C 	C 	0.84108 0.15979 0.51410 0.03600
C 	C 	0.15892 0.15979 0.64569 0.03400
C 	C 	0.84108 0.48590 0.64569 0.03700
C 	C 	0.67763 0.49231 0.27761 -0.01400
C 	C 	0.15892 0.51410 0.15979 0.03400
C 	C 	0.28282 0.24736 0.49473 -0.03800
C 	C 	0.40957 0.21498 0.72436 0.01300
C 	C 	0.75183 0.35494 0.88567 0.03700
C 	C 	0.54421 0.50519 0.81131 -0.04000
C 	C 	0.15892 0.48590 0.64569 0.03400
C 	C 	0.24817 0.88567 0.53073 0.03700
C 	C 	0.84108 0.84021 0.48590 0.03600
C 	C 	0.72553 0.30849 0.49182 0.03600
C 	C 	0.45579 0.49481 0.18869 -0.04300
C 	C 	0.82059 0.62872 0.50786 -0.11500
C 	C 	0.28282 0.24736 0.75263 -0.03800
C 	C 	0.40957 0.50938 0.72436 0.01300
C 	C 	0.82059 0.12086 0.62872 -0.11600
C 	C 	0.72553 0.30849 0.81667 0.03600
C 	C 	0.82059 0.62872 0.12086 -0.11600
C 	C 	0.79678 0.81044 0.48678 -0.06600
C 	C 	0.86661 0.50669 0.59693 0.45900
C 	C 	0.40957 0.50938 0.78502 0.01400
C 	C 	0.54421 0.30612 0.49481 -0.04200
C 	C 	0.86661 0.09024 0.49331 0.45900
C 	C 	0.86661 0.50669 0.90976 0.45800
C 	C 	0.15892 0.84021 0.48590 0.03400
C 	C 	0.45579 0.18869 0.49481 -0.04300
C 	C 	0.86661 0.49331 0.09024 0.45900
C 	C 	0.82059 0.37128 0.49214 -0.11600
C 	C 	0.32237 0.50769 0.72239 -0.01600
C 	C 	0.75183 0.88567 0.35494 0.03700
C 	C 	0.29393 0.46934 0.14421 -0.07300
C 	C 	0.54421 0.18869 0.69388 -0.04200
C 	C 	0.45579 0.50519 0.81131 -0.04100
C 	C 	0.20322 0.48678 0.81044 -0.07100
C 	C 	0.27447 0.69151 0.18333 0.03500
C 	C 	0.20322 0.18956 0.67634 -0.07300
C 	C 	0.82059 0.49214 0.12086 -0.11600
C 	C 	0.45579 0.69388 0.18869 -0.04200
C 	C 	0.13339 0.40307 0.49331 0.45900
C 	C 	0.29393 0.53066 0.67487 -0.07200
C 	C 	0.15892 0.35431 0.51410 0.03400
C 	C 	0.70607 0.46934 0.32513 -0.06900
C 	C 	0.59043 0.49062 0.21498 0.01300
C 	C 	0.45579 0.81131 0.50519 -0.04100
C 	C 	0.29393 0.85579 0.32513 -0.07100
C 	C 	0.45301 0.24462 0.75537 -0.00600
C 	C 	0.67763 0.78530 0.27761 -0.01400
C 	C 	0.75183 0.64506 0.53073 0.03700
C 	C 	0.84108 0.51410 0.15979 0.03600
C 	C 	0.86661 0.09024 0.59693 0.45900
C 	C 	0.17941 0.49214 0.37128 -0.12300
C 	C 	0.72553 0.81667 0.50818 0.03600
C 	C 	0.24817 0.88567 0.35494 0.03600
C 	C 	0.40957 0.27564 0.78502 0.01300
C 	C 	0.15892 0.64569 0.48590 0.03400
C 	C 	0.15892 0.84021 0.35431 0.03400
C 	C 	0.59043 0.72436 0.50938 0.01300
C 	C 	0.54699 0.75537 0.51075 -0.00500
C 	C 	0.40957 0.21498 0.49062 0.01300
C 	C 	0.24817 0.11433 0.64506 0.03600
C 	C 	0.79678 0.32366 0.51322 -0.06700
C 	C 	0.27447 0.69151 0.50818 0.03500
C 	C 	0.84108 0.15979 0.64569 0.03700
C 	C 	0.86661 0.40307 0.90976 0.45800
C 	C 	0.54699 0.48925 0.24463 -0.00600
C 	C 	0.79678 0.32366 0.81044 -0.06600
C 	C 	0.27447 0.81667 0.30849 0.03500
C 	C 	0.13339 0.59693 0.09024 0.45900
C 	C 	0.71718 0.24736 0.49472 -0.03700
C 	C 	0.24817 0.35494 0.88567 0.03600
C 	C 	0.13339 0.90976 0.40307 0.45800
C 	C 	0.27447 0.30849 0.81667 0.03500
C 	C 	0.79678 0.48678 0.81044 -0.06600
C 	C 	0.20322 0.81044 0.48678 -0.07100
C 	C 	0.59043 0.27564 0.49062 0.01300
C 	C 	0.29393 0.14421 0.67487 -0.07300
C 	C 	0.59043 0.78502 0.50938 0.01300
C 	C 	0.86661 0.49331 0.40307 0.45900
C 	C 	0.17941 0.12086 0.49214 -0.12400
C 	C 	0.84108 0.64569 0.48590 0.03700
C 	C 	0.70607 0.32513 0.46934 -0.06900
C 	C 	0.82059 0.87914 0.37128 -0.11200
C 	C 	0.27447 0.50818 0.69151 0.03500
C 	C 	0.27447 0.30849 0.49182 0.03500
C 	C 	0.84108 0.64569 0.15979 0.03700
C 	C 	0.67763 0.27761 0.49231 -0.01400
C 	C 	0.75183 0.11433 0.46927 0.03600
C 	C 	0.15892 0.64569 0.15979 0.03400
C 	C 	0.71718 0.24736 0.75263 -0.03700
C 	C 	0.13339 0.50669 0.59693 0.45900
C 	C 	0.29393 0.32513 0.85579 -0.07100
C 	C 	0.75183 0.53073 0.64506 0.03700
C 	C 	0.13339 0.59693 0.50669 0.45900
C 	C 	0.82059 0.37128 0.87914 -0.11200
C 	C 	0.54421 0.49481 0.18869 -0.04200
C 	C 	0.45579 0.81131 0.30612 -0.04100
C 	C 	0.27447 0.49182 0.18333 0.03500
C 	C 	0.24817 0.46927 0.11433 0.03500
C 	C 	0.67763 0.21470 0.49231 -0.01500
C 	C 	0.72553 0.81667 0.30849 0.03600
C 	C 	0.54421 0.69388 0.18869 -0.04200
C 	C 	0.54699 0.24462 0.75537 -0.00500
C 	C 	0.67763 0.72239 0.50769 -0.01400
C 	C 	0.24817 0.64506 0.11433 0.03600
C 	C 	0.59043 0.21498 0.49062 0.01300
C 	C 	0.59043 0.50938 0.72436 0.01300
C 	C 	0.67763 0.50769 0.78530 -0.01300
C 	C 	0.70607 0.67487 0.53066 -0.06900
C 	C 	0.72553 0.50818 0.81667 0.03600
C 	C 	0.70607 0.14421 0.46934 -0.07000
C 	C 	0.24817 0.35494 0.46927 0.03600
C 	C 	0.24817 0.64506 0.53073 0.03600
C 	C 	0.54421 0.81131 0.50519 -0.04000
C 	C 	0.24817 0.46927 0.35494 0.03600
C 	C 	0.27447 0.49182 0.30849 0.03500
C 	C 	0.82059 0.87914 0.50786 -0.11200
C 	C 	0.40957 0.72436 0.21498 0.01300
C 	C 	0.32237 0.27761 0.78530 -0.01700
C 	C 	0.75183 0.11433 0.64506 0.03700
C 	C 	0.24817 0.53073 0.64506 0.03600
C 	C 	0.17941 0.50786 0.87914 -0.12000
C 	C 	0.27447 0.18333 0.69151 0.03500
C 	C 	0.54699 0.51075 0.75538 -0.00500
C 	C 	0.86661 0.59693 0.09024 0.45900
C 	C 	0.13339 0.50669 0.90976 0.45800
C 	C 	0.54699 0.24462 0.48924 -0.00600
C 	C 	0.17941 0.87914 0.50786 -0.12000
C 	C 	0.40957 0.72436 0.50938 0.01300
C 	C 	0.59043 0.21498 0.72436 0.01300
C 	C 	0.54421 0.18869 0.49481 -0.04200
C 	C 	0.20322 0.51322 0.32366 -0.07300
C 	C 	0.79678 0.48678 0.67634 -0.06700
C 	C 	0.79678 0.67634 0.48678 -0.06700
C 	C 	0.54421 0.30612 0.81131 -0.04100
C 	C 	0.67763 0.21470 0.72239 -0.01400
C 	C 	0.29393 0.32513 0.46934 -0.07300
C 	C 	0.28282 0.75264 0.50528 -0.03700
C 	C 	0.59043 0.78502 0.27564 0.01300
C 	C 	0.82059 0.50786 0.87914 -0.11200
C 	C 	0.45301 0.75538 0.51075 -0.00600
C 	C 	0.40957 0.27564 0.49062 0.01300
C 	C 	0.84108 0.35431 0.51410 0.03600
C 	C 	0.72553 0.69151 0.50818 0.03600
C 	C 	0.82059 0.50786 0.62872 -0.11500
C 	C 	0.59043 0.50938 0.78502 0.01300
C 	C 	0.24817 0.11433 0.46927 0.03500
C 	C 	0.45579 0.50519 0.69388 -0.04200
C 	C 	0.40957 0.78502 0.50938 0.01400
C 	C 	0.72553 0.50818 0.69151 0.03600
C 	C 	0.45301 0.48925 0.24463 -0.00700
C 	C 	0.75183 0.46927 0.11433 0.03600
C 	C 	0.75183 0.64506 0.11433 0.03700
C 	C 	0.27447 0.50818 0.81667 0.03500
C 	C 	0.32237 0.78530 0.27761 -0.01700
C 	C 	0.70607 0.32513 0.85579 -0.06700
C 	C 	0.40957 0.49062 0.21498 0.01300
C 	C 	0.67763 0.78530 0.50769 -0.01300
C 	C 	0.79678 0.51322 0.18956 -0.06700
C 	C 	0.72553 0.18333 0.49182 0.03600
C 	C 	0.32237 0.49231 0.21470 -0.01700
C 	C 	0.82059 0.12086 0.49214 -0.11600
C 	C 	0.13339 0.90976 0.50669 0.45800
C 	C 	0.13339 0.09024 0.59693 0.45900
C 	C 	0.67763 0.27761 0.78530 -0.01400
C 	C 	0.71718 0.75263 0.50527 -0.03700
C 	C 	0.75183 0.35494 0.46927 0.03600
C 	C 	0.45579 0.49481 0.30612 -0.04200
C 	C 	0.82059 0.49214 0.37128 -0.11600
C 	C 	0.20322 0.32366 0.81044 -0.07200
C 	C 	0.29393 0.14421 0.46934 -0.07300
C 	C 	0.75183 0.53073 0.88567 0.03800
C 	C 	0.13339 0.49331 0.40307 0.45900
C 	C 	0.29393 0.67487 0.53066 -0.07200
C 	C 	0.75183 0.46927 0.35494 0.03600
C 	C 	0.15892 0.51410 0.35431 0.03400
C 	C 	0.32237 0.72239 0.21470 -0.01700
C 	C 	0.17941 0.37128 0.87914 -0.12000
C 	C 	0.20322 0.48678 0.67634 -0.07200
C 	C 	0.17941 0.37128 0.49214 -0.12300
C 	C 	0.32237 0.21470 0.72239 -0.01700
C 	C 	0.45301 0.24462 0.48925 -0.00700
C 	C 	0.28282 0.75263 0.24736 -0.03800
C 	C 	0.27447 0.81667 0.50818 0.03500
C 	C 	0.32237 0.21470 0.49231 -0.01700
C 	C 	0.20322 0.18956 0.51322 -0.07300
C 	C 	0.29393 0.53066 0.85579 -0.07000
C 	C 	0.20322 0.67634 0.48678 -0.07200
C 	C 	0.17941 0.87914 0.37128 -0.12000
C 	C 	0.84108 0.84021 0.35431 0.03600
C 	C 	0.32237 0.27761 0.49231 -0.01700
C 	C 	0.79678 0.51322 0.32366 -0.06700
C 	C 	0.79678 0.18956 0.51322 -0.06700
C 	C 	0.15892 0.15979 0.51410 0.03400
C 	C 	0.32237 0.49231 0.27761 -0.01700
C 	C 	0.20322 0.81044 0.32366 -0.07200
C 	C 	0.45301 0.51075 0.75537 -0.00600
C 	C 	0.45301 0.75537 0.24462 -0.00600
C 	C 	0.17941 0.49214 0.12086 -0.12400
C 	C 	0.45579 0.69388 0.50519 -0.04200
C 	C 	0.59043 0.49062 0.27564 0.01300
C 	C 	0.70607 0.85579 0.53066 -0.06700
O 	O 	0.10545 0.48302 0.96604 -1.26900
O 	O 	0.85000 0.41465 0.94533 -0.57600
O 	O 	0.07719 0.58103 0.09965 -0.61700
O 	O 	0.22834 0.46221 -0.00000 -0.59600
O 	O 	0.22834 0.00000 0.53779 -0.59600
O 	O 	0.10545 0.51698 0.03396 -1.28800
O 	O 	0.22834 0.00000 0.46221 -0.59600
O 	O 	0.89455 0.51698 0.03396 -1.27300
O 	O 	0.15000 0.58535 0.53068 -0.59700
O 	O 	0.07719 0.51862 0.41897 -0.61700
O 	O 	0.15000 0.05467 0.46932 -0.59900
O 	O 	0.89455 0.96604 0.48302 -1.25400
O 	O 	0.07719 0.90035 0.48138 -0.61600
O 	O 	0.15000 0.41465 0.94533 -0.58400
O 	O 	-0.00000 0.03397 0.47374 -1.29700
O 	O 	-0.00000 0.47374 0.43977 -1.29200
O 	O 	0.07719 0.09965 0.58103 -0.61700
O 	O 	0.89455 0.03396 0.51698 -1.27300
O 	O 	-0.00000 0.43977 0.47374 -1.29200
O 	O 	0.92281 0.58103 0.48138 -0.59100
O 	O 	0.90903 0.40701 -0.00000 -0.58800
O 	O 	0.77166 0.46221 -0.00000 -0.59600
O 	O 	0.00000 0.47374 0.03397 -1.29700
O 	O 	0.92281 0.41897 0.51862 -0.59100
O 	O 	0.90903 0.00000 0.59299 -0.58700
O 	O 	0.92281 0.09965 0.51862 -0.59100
O 	O 	0.92281 0.51862 0.09965 -0.59100
O 	O 	0.90903 0.59299 0.59299 -0.57700
O 	O 	0.15000 0.94533 0.41465 -0.58400
O 	O 	0.00000 0.96603 0.52626 -1.27800
O 	O 	0.92281 0.48138 0.58103 -0.59100
O 	O 	0.00000 0.52626 0.96603 -1.27800
O 	O 	0.77166 0.00000 0.53779 -0.59600
O 	O 	0.07719 0.48138 0.58103 -0.61700
O 	O 	0.85000 0.53068 0.94533 -0.57600
O 	O 	0.85000 0.46932 0.41465 -0.58900
O 	O 	0.85000 0.46932 0.05467 -0.59100
O 	O 	0.92281 0.41897 0.90035 -0.59000
O 	O 	0.85000 0.05467 0.58535 -0.59100
O 	O 	0.10545 0.48302 0.51698 -1.28200
O 	O 	0.09097 0.40701 -0.00000 -0.61500
O 	O 	-0.00000 0.96603 0.43977 -1.27800
O 	O 	0.90903 0.59299 -0.00000 -0.58700
O 	O 	0.92281 0.90035 0.48138 -0.59000
O 	O 	0.10545 0.03396 0.51698 -1.28800
O 	O 	0.85000 0.41465 0.46932 -0.58900
O 	O 	0.92281 0.51862 0.41897 -0.59100
O 	O 	0.09097 0.59299 -0.00000 -0.61400
O 	O 	0.15000 0.53068 0.94533 -0.58400
O 	O 	0.92281 0.48138 0.90035 -0.59000
O 	O 	0.07719 0.51862 0.09965 -0.61700
O 	O 	0.07719 0.48138 0.90035 -0.61600
O 	O 	0.10545 0.51698 0.48302 -1.28200
O 	O 	0.15000 0.58535 0.05467 -0.59900
O 	O 	0.15000 0.94533 0.53068 -0.58400
O 	O 	0.89455 0.48302 0.96604 -1.25400
O 	O 	0.15000 0.05467 0.58535 -0.59900
O 	O 	0.00000 0.56023 0.52626 -1.29100
O 	O 	0.89455 0.51698 0.48302 -1.26700
O 	O 	0.85000 0.58535 0.53068 -0.58900
O 	O 	0.89455 0.48302 0.51698 -1.26700
O 	O 	0.07719 0.41897 0.90035 -0.61600
O 	O 	0.92281 0.09965 0.58103 -0.59100
O 	O 	0.77166 0.53779 0.53779 -0.58600
O 	O 	0.07719 0.09965 0.51862 -0.61700
O 	O 	0.07719 0.41897 0.51862 -0.61700
O 	O 	0.15000 0.46932 0.05467 -0.59900
O 	O 	-0.00000 0.52626 0.56023 -1.29100
O 	O 	0.77166 0.53779 -0.00000 -0.59600
O 	O 	0.09097 0.59299 0.59299 -0.60400
O 	O 	0.85000 0.94533 0.53068 -0.57600
O 	O 	0.07719 0.90035 0.41897 -0.61600
O 	O 	0.22834 0.53779 0.53779 -0.58600
O 	O 	0.00000 0.56023 0.03397 -1.29700
O 	O 	0.09097 0.00000 0.40701 -0.61500
O 	O 	0.15000 0.53068 0.58535 -0.59700
O 	O 	0.22834 0.53779 -0.00000 -0.59600
O 	O 	0.77166 0.00000 0.46221 -0.59600
O 	O 	0.85000 0.58535 0.05467 -0.59100
O 	O 	0.90903 0.40701 0.40701 -0.57900
O 	O 	0.09097 0.40701 0.40701 -0.60600
O 	O 	0.90903 0.00000 0.40701 -0.58800
O 	O 	0.92281 0.58103 0.09965 -0.59100
O 	O 	0.85000 0.94533 0.41465 -0.57600
O 	O 	0.09097 0.00000 0.59299 -0.61400
O 	O 	0.77166 0.46221 0.46221 -0.58600
O 	O 	0.15000 0.41465 0.46932 -0.59700
O 	O 	0.85000 0.53068 0.58535 -0.58900
O 	O 	0.07719 0.58103 0.48138 -0.61700
O 	O 	0.15000 0.46932 0.41465 -0.59700
O 	O 	0.85000 0.05467 0.46932 -0.59100
O 	O 	0.22834 0.46221 0.46221 -0.58600
O 	O 	0.10545 0.96604 0.48302 -1.26900
O 	O 	-0.00000 0.03397 0.56023 -1.29700
O 	O 	0.00000 0.43977 0.96603 -1.27800
O 	O 	0.92281 0.90035 0.41897 -0.59000
