data_crystal

_cell_length_a 19.27700
_cell_length_b 19.27700
_cell_length_c 36.02300
_cell_angle_alpha 90.00000
_cell_angle_beta  90.00000
_cell_angle_gamma 120.00000

_symmetry_space_group_name_	'P 1'
_symmetry_space_group_name_H-M	'P 1'

loop_
_symmetry_equiv_pos_as_xyz
  x,y,z

loop_
_atom_site_label
_atom_site_type_symbol
_atom_site_fract_x
_atom_site_fract_y
_atom_site_fract_z
_atom_site_charge
H 	H 	0.14130 0.67390 0.15230 0.05900
H 	H 	0.89730 0.30830 0.40810 0.06400
H 	H 	0.55580 0.64430 0.09340 0.00900
C 	C 	0.84630 0.56900 0.04049 -0.07600
C 	C 	0.14380 0.41020 0.57820 -0.06000
C 	C 	0.50750 0.60830 0.10529 0.04800
C 	C 	0.86860 0.37380 0.85927 -0.05400
C 	C 	0.09806 0.45550 0.52340 0.38300
O 	O 	0.40659 0.96127 0.95763 -0.46700
O 	O 	0.20201 0.54310 0.28991 -0.52200
O 	O 	0.11339 0.62986 0.49136 -0.45400
H 	H 	0.32610 0.46740 0.15230 0.05900
H 	H 	0.69170 0.58900 0.40810 0.06400
H 	H 	0.35570 0.91150 0.09340 0.00800
C 	C 	0.43100 0.27730 0.04049 -0.07500
C 	C 	0.58980 0.73360 0.57820 -0.06000
C 	C 	0.39170 0.89920 0.10529 0.04800
C 	C 	0.62620 0.49480 0.85927 -0.05400
C 	C 	0.54450 0.64256 0.52340 0.38300
O 	O 	0.03873 0.44532 0.95763 -0.46700
O 	O 	0.45690 0.65891 0.28991 -0.52200
O 	O 	0.37014 0.48353 0.49136 -0.45400
H 	H 	0.53260 0.85870 0.15230 0.05900
H 	H 	0.41100 0.10270 0.40810 0.06400
H 	H 	0.08850 0.44420 0.09340 0.00800
C 	C 	0.72270 0.15370 0.04049 -0.07600
C 	C 	0.26640 0.85620 0.57820 -0.06000
C 	C 	0.10080 0.49250 0.10529 0.04800
C 	C 	0.50520 0.13140 0.85927 -0.05400
C 	C 	0.35744 0.90194 0.52340 0.38300
O 	O 	0.55468 0.59341 0.95763 -0.46700
O 	O 	0.34109 0.79799 0.28991 -0.52200
O 	O 	0.51647 0.88661 0.49136 -0.45400
H 	H 	0.85870 0.32610 0.65230 0.05900
H 	H 	0.10270 0.69170 0.90810 0.06500
H 	H 	0.44420 0.35570 0.59340 0.00900
C 	C 	0.15370 0.43100 0.54049 -0.07500
C 	C 	0.85620 0.58980 0.07820 -0.05900
C 	C 	0.49250 0.39170 0.60529 0.04900
C 	C 	0.13140 0.62620 0.35927 -0.05300
C 	C 	0.90194 0.54450 0.02340 0.38400
O 	O 	0.59341 0.03873 0.45763 -0.46600
O 	O 	0.79799 0.45690 0.78991 -0.52100
O 	O 	0.88661 0.37014 0.99136 -0.45300
H 	H 	0.67390 0.53260 0.65230 0.06000
H 	H 	0.30830 0.41100 0.90810 0.06500
H 	H 	0.64430 0.08850 0.59340 0.00900
C 	C 	0.56900 0.72270 0.54049 -0.07500
C 	C 	0.41020 0.26640 0.07820 -0.05900
C 	C 	0.60830 0.10080 0.60529 0.04900
C 	C 	0.37380 0.50520 0.35927 -0.05300
C 	C 	0.45550 0.35744 0.02340 0.38300
O 	O 	0.96127 0.55468 0.45763 -0.46600
O 	O 	0.54310 0.34109 0.78991 -0.52100
O 	O 	0.62986 0.51647 0.99136 -0.45300
H 	H 	0.46740 0.14130 0.65230 0.06000
H 	H 	0.58900 0.89730 0.90810 0.06500
H 	H 	0.91150 0.55580 0.59340 0.01000
C 	C 	0.27730 0.84630 0.54049 -0.07500
C 	C 	0.73360 0.14380 0.07820 -0.05900
C 	C 	0.89920 0.50750 0.60529 0.04900
C 	C 	0.49480 0.86860 0.35927 -0.05300
C 	C 	0.64256 0.09806 0.02340 0.38400
O 	O 	0.44532 0.40659 0.45763 -0.46600
O 	O 	0.65891 0.20201 0.78991 -0.52100
O 	O 	0.48353 0.11339 0.99136 -0.45300
H 	H 	0.67390 0.14130 0.84770 0.06000
H 	H 	0.30830 0.89730 0.59190 0.06500
H 	H 	0.64430 0.55580 0.90660 0.00900
C 	C 	0.56900 0.84630 0.95951 -0.07500
C 	C 	0.41020 0.14380 0.42180 -0.05900
C 	C 	0.60830 0.50750 0.89471 0.04900
C 	C 	0.37380 0.86860 0.14073 -0.05300
C 	C 	0.45550 0.09806 0.47660 0.38400
O 	O 	0.96127 0.40659 0.04237 -0.46600
O 	O 	0.54310 0.20201 0.71009 -0.52100
O 	O 	0.62986 0.11339 0.50864 -0.45300
H 	H 	0.46740 0.32610 0.84770 0.06000
H 	H 	0.58900 0.69170 0.59190 0.06500
H 	H 	0.91150 0.35570 0.90660 0.00900
C 	C 	0.27730 0.43100 0.95951 -0.07400
C 	C 	0.73360 0.58980 0.42180 -0.05900
C 	C 	0.89920 0.39170 0.89471 0.04900
C 	C 	0.49480 0.62620 0.14073 -0.05300
C 	C 	0.64256 0.54450 0.47660 0.38400
O 	O 	0.44532 0.03873 0.04237 -0.46600
O 	O 	0.65891 0.45690 0.71009 -0.52100
O 	O 	0.48353 0.37014 0.50864 -0.45300
H 	H 	0.85870 0.53260 0.84770 0.06000
H 	H 	0.10270 0.41100 0.59190 0.06500
H 	H 	0.44420 0.08850 0.90660 0.00900
C 	C 	0.15370 0.72270 0.95951 -0.07400
C 	C 	0.85620 0.26640 0.42180 -0.05900
C 	C 	0.49250 0.10080 0.89471 0.04900
C 	C 	0.13140 0.50520 0.14073 -0.05300
C 	C 	0.90194 0.35744 0.47660 0.38300
O 	O 	0.59341 0.55468 0.04237 -0.46600
O 	O 	0.79799 0.34109 0.71009 -0.52100
O 	O 	0.88661 0.51647 0.50864 -0.45300
H 	H 	0.32610 0.85870 0.34770 0.06000
H 	H 	0.69170 0.10270 0.09190 0.06500
H 	H 	0.35570 0.44420 0.40660 0.01000
C 	C 	0.43100 0.15370 0.45951 -0.07500
C 	C 	0.58980 0.85620 0.92180 -0.05900
C 	C 	0.39170 0.49250 0.39471 0.04900
C 	C 	0.62620 0.13140 0.64073 -0.05300
C 	C 	0.54450 0.90194 0.97660 0.38400
O 	O 	0.03873 0.59341 0.54237 -0.46600
O 	O 	0.45690 0.79799 0.21009 -0.52100
O 	O 	0.37014 0.88661 0.00864 -0.45300
H 	H 	0.53260 0.67390 0.34770 0.06000
H 	H 	0.41100 0.30830 0.09190 0.06500
H 	H 	0.08850 0.64430 0.40660 0.00900
C 	C 	0.72270 0.56900 0.45951 -0.07500
C 	C 	0.26640 0.41020 0.92180 -0.05900
C 	C 	0.10080 0.60830 0.39471 0.04900
C 	C 	0.50520 0.37380 0.64073 -0.05300
C 	C 	0.35744 0.45550 0.97660 0.38300
O 	O 	0.55468 0.96127 0.54237 -0.46600
O 	O 	0.34109 0.54310 0.21009 -0.52100
O 	O 	0.51647 0.62986 0.00864 -0.45300
H 	H 	0.14130 0.46740 0.34770 0.06000
H 	H 	0.89730 0.58900 0.09190 0.06500
H 	H 	0.55580 0.91150 0.40660 0.00900
C 	C 	0.84630 0.27730 0.45951 -0.07400
C 	C 	0.14380 0.73360 0.92180 -0.05900
C 	C 	0.50750 0.89920 0.39471 0.04900
C 	C 	0.86860 0.49480 0.64073 -0.05300
C 	C 	0.09806 0.64256 0.97660 0.38400
O 	O 	0.40659 0.44532 0.54237 -0.46600
O 	O 	0.20201 0.65891 0.21009 -0.52100
O 	O 	0.11339 0.48353 0.00864 -0.45300
H 	H 	0.85870 0.32610 0.84770 0.06000
H 	H 	0.10270 0.69170 0.59190 0.06500
H 	H 	0.44420 0.35570 0.90660 0.00900
C 	C 	0.15370 0.43100 0.95951 -0.07400
C 	C 	0.85620 0.58980 0.42180 -0.05900
C 	C 	0.49250 0.39170 0.89471 0.04900
C 	C 	0.13140 0.62620 0.14073 -0.05300
C 	C 	0.90194 0.54450 0.47660 0.38300
O 	O 	0.59341 0.03873 0.04237 -0.46600
O 	O 	0.79799 0.45690 0.71009 -0.52100
O 	O 	0.88661 0.37014 0.50864 -0.45300
H 	H 	0.67390 0.53260 0.84770 0.06000
H 	H 	0.30830 0.41100 0.59190 0.06500
H 	H 	0.64430 0.08850 0.90660 0.00900
C 	C 	0.56900 0.72270 0.95951 -0.07500
C 	C 	0.41020 0.26640 0.42180 -0.05900
C 	C 	0.60830 0.10080 0.89471 0.04900
C 	C 	0.37380 0.50520 0.14073 -0.05300
C 	C 	0.45550 0.35744 0.47660 0.38400
O 	O 	0.96127 0.55468 0.04237 -0.46600
O 	O 	0.54310 0.34109 0.71009 -0.52100
O 	O 	0.62986 0.51647 0.50864 -0.45300
H 	H 	0.46740 0.14130 0.84770 0.06000
H 	H 	0.58900 0.89730 0.59190 0.06600
H 	H 	0.91150 0.55580 0.90660 0.00900
C 	C 	0.27730 0.84630 0.95951 -0.07500
C 	C 	0.73360 0.14380 0.42180 -0.06000
C 	C 	0.89920 0.50750 0.89471 0.04900
C 	C 	0.49480 0.86860 0.14073 -0.05300
C 	C 	0.64256 0.09806 0.47660 0.38300
O 	O 	0.44532 0.40659 0.04237 -0.46600
O 	O 	0.65891 0.20201 0.71009 -0.52100
O 	O 	0.48353 0.11339 0.50864 -0.45300
H 	H 	0.14130 0.67390 0.34770 0.06000
H 	H 	0.89730 0.30830 0.09190 0.06500
H 	H 	0.55580 0.64430 0.40660 0.00900
C 	C 	0.84630 0.56900 0.45951 -0.07400
C 	C 	0.14380 0.41020 0.92180 -0.05900
C 	C 	0.50750 0.60830 0.39471 0.04900
C 	C 	0.86860 0.37380 0.64073 -0.05300
C 	C 	0.09806 0.45550 0.97660 0.38400
O 	O 	0.40659 0.96127 0.54237 -0.46600
O 	O 	0.20201 0.54310 0.21009 -0.52100
O 	O 	0.11339 0.62986 0.00864 -0.45300
H 	H 	0.32610 0.46740 0.34770 0.06000
H 	H 	0.69170 0.58900 0.09190 0.06500
H 	H 	0.35570 0.91150 0.40660 0.00900
C 	C 	0.43100 0.27730 0.45951 -0.07500
C 	C 	0.58980 0.73360 0.92180 -0.05800
C 	C 	0.39170 0.89920 0.39471 0.04900
C 	C 	0.62620 0.49480 0.64073 -0.05300
C 	C 	0.54450 0.64256 0.97660 0.38400
O 	O 	0.03873 0.44532 0.54237 -0.46600
O 	O 	0.45690 0.65891 0.21009 -0.52100
O 	O 	0.37014 0.48353 0.00864 -0.45300
H 	H 	0.53260 0.85870 0.34770 0.06000
H 	H 	0.41100 0.10270 0.09190 0.06500
H 	H 	0.08850 0.44420 0.40660 0.00900
C 	C 	0.72270 0.15370 0.45951 -0.07400
C 	C 	0.26640 0.85620 0.92180 -0.05900
C 	C 	0.10080 0.49250 0.39471 0.04900
C 	C 	0.50520 0.13140 0.64073 -0.05300
C 	C 	0.35744 0.90194 0.97660 0.38400
O 	O 	0.55468 0.59341 0.54237 -0.46600
O 	O 	0.34109 0.79799 0.21009 -0.52100
O 	O 	0.51647 0.88661 0.00864 -0.45300
H 	H 	0.32610 0.85870 0.15230 0.06000
H 	H 	0.69170 0.10270 0.40810 0.06500
H 	H 	0.35570 0.44420 0.09340 0.00900
C 	C 	0.43100 0.15370 0.04049 -0.07500
C 	C 	0.58980 0.85620 0.57820 -0.05900
C 	C 	0.39170 0.49250 0.10529 0.04900
C 	C 	0.62620 0.13140 0.85927 -0.05300
C 	C 	0.54450 0.90194 0.52340 0.38300
O 	O 	0.03873 0.59341 0.95763 -0.46600
O 	O 	0.45690 0.79799 0.28991 -0.52100
O 	O 	0.37014 0.88661 0.49136 -0.45300
H 	H 	0.53260 0.67390 0.15230 0.06000
H 	H 	0.41100 0.30830 0.40810 0.06500
H 	H 	0.08850 0.64430 0.09340 0.00900
C 	C 	0.72270 0.56900 0.04049 -0.07500
C 	C 	0.26640 0.41020 0.57820 -0.05900
C 	C 	0.10080 0.60830 0.10529 0.04900
C 	C 	0.50520 0.37380 0.85927 -0.05300
C 	C 	0.35744 0.45550 0.52340 0.38400
O 	O 	0.55468 0.96127 0.95763 -0.46600
O 	O 	0.34109 0.54310 0.28991 -0.52100
O 	O 	0.51647 0.62986 0.49136 -0.45300
H 	H 	0.14130 0.46740 0.15230 0.06000
H 	H 	0.89730 0.58900 0.40810 0.06600
H 	H 	0.55580 0.91150 0.09340 0.00900
C 	C 	0.84630 0.27730 0.04049 -0.07500
C 	C 	0.14380 0.73360 0.57820 -0.05900
C 	C 	0.50750 0.89920 0.10529 0.04900
C 	C 	0.86860 0.49480 0.85927 -0.05300
C 	C 	0.09806 0.64256 0.52340 0.38400
O 	O 	0.40659 0.44532 0.95763 -0.46600
O 	O 	0.20201 0.65891 0.28991 -0.52100
O 	O 	0.11339 0.48353 0.49136 -0.45300
H 	H 	0.67390 0.14130 0.65230 0.06000
H 	H 	0.30830 0.89730 0.90810 0.06500
H 	H 	0.64430 0.55580 0.59340 0.00900
C 	C 	0.56900 0.84630 0.54049 -0.07400
C 	C 	0.41020 0.14380 0.07820 -0.05900
C 	C 	0.60830 0.50750 0.60529 0.04900
C 	C 	0.37380 0.86860 0.35927 -0.05300
C 	C 	0.45550 0.09806 0.02340 0.38400
O 	O 	0.96127 0.40659 0.45763 -0.46600
O 	O 	0.54310 0.20201 0.78991 -0.52100
O 	O 	0.62986 0.11339 0.99136 -0.45300
H 	H 	0.46740 0.32610 0.65230 0.06000
H 	H 	0.58900 0.69170 0.90810 0.06500
H 	H 	0.91150 0.35570 0.59340 0.00900
C 	C 	0.27730 0.43100 0.54049 -0.07500
C 	C 	0.73360 0.58980 0.07820 -0.05800
C 	C 	0.89920 0.39170 0.60529 0.04900
C 	C 	0.49480 0.62620 0.35927 -0.05300
C 	C 	0.64256 0.54450 0.02340 0.38400
O 	O 	0.44532 0.03873 0.45763 -0.46600
O 	O 	0.65891 0.45690 0.78991 -0.52100
O 	O 	0.48353 0.37014 0.99136 -0.45300
H 	H 	0.85870 0.53260 0.65230 0.06000
H 	H 	0.10270 0.41100 0.90810 0.06500
H 	H 	0.44420 0.08850 0.59340 0.01000
C 	C 	0.15370 0.72270 0.54049 -0.07500
C 	C 	0.85620 0.26640 0.07820 -0.05800
C 	C 	0.49250 0.10080 0.60529 0.04900
C 	C 	0.13140 0.50520 0.35927 -0.05300
C 	C 	0.90194 0.35744 0.02340 0.38400
O 	O 	0.59341 0.55468 0.45763 -0.46600
O 	O 	0.79799 0.34109 0.78991 -0.52100
O 	O 	0.88661 0.51647 0.99136 -0.45300
Zn	Zn	0.52298 0.04595 0.53444 1.21800
N 	N 	0.54395 0.08790 0.91287 -0.24100
Zn	Zn	0.95405 0.47702 0.53444 1.21800
N 	N 	0.91210 0.45605 0.91287 -0.24100
Zn	Zn	0.52298 0.47702 0.53444 1.21800
N 	N 	0.54395 0.45605 0.91287 -0.24100
Zn	Zn	0.47702 0.95405 0.03444 1.21800
N 	N 	0.45605 0.91210 0.41287 -0.24100
Zn	Zn	0.04595 0.52298 0.03444 1.21800
N 	N 	0.08790 0.54395 0.41287 -0.24100
Zn	Zn	0.47702 0.52298 0.03444 1.21800
N 	N 	0.45605 0.54395 0.41287 -0.24100
Zn	Zn	0.04595 0.52298 0.46556 1.21800
N 	N 	0.08790 0.54395 0.08713 -0.24100
Zn	Zn	0.47702 0.95405 0.46556 1.21800
N 	N 	0.45605 0.91210 0.08713 -0.24100
Zn	Zn	0.47702 0.52298 0.46556 1.21800
N 	N 	0.45605 0.54395 0.08713 -0.24100
Zn	Zn	0.95405 0.47702 0.96556 1.21800
N 	N 	0.91210 0.45605 0.58713 -0.24100
Zn	Zn	0.52298 0.04595 0.96556 1.21800
N 	N 	0.54395 0.08790 0.58713 -0.24100
Zn	Zn	0.52298 0.47702 0.96556 1.21800
N 	N 	0.54395 0.45605 0.58713 -0.24100
Cr	Cr	0.27608 0.55216 0.25000 1.55000
Cr	Cr	0.44784 0.72392 0.25000 1.55000
Cr	Cr	0.27608 0.72392 0.25000 1.55000
Cr	Cr	0.72392 0.44784 0.75000 1.55000
Cr	Cr	0.55216 0.27608 0.75000 1.55000
Cr	Cr	0.72392 0.27608 0.75000 1.55000
H 	H 	0.76145 0.23855 0.49930 0.05500
C 	C 	0.19430 0.80570 0.90470 0.06600
C 	C 	0.77475 0.22525 0.02371 0.01900
H 	H 	0.76145 0.52290 0.49930 0.05500
C 	C 	0.19430 0.38860 0.90470 0.06600
C 	C 	0.77475 0.54950 0.02371 0.01900
H 	H 	0.47710 0.23855 0.49930 0.05500
C 	C 	0.61140 0.80570 0.90470 0.06500
C 	C 	0.45050 0.22525 0.02371 0.01900
H 	H 	0.23855 0.76145 0.99930 0.05500
C 	C 	0.80570 0.19430 0.40470 0.06600
C 	C 	0.22525 0.77475 0.52371 0.01900
H 	H 	0.23855 0.47710 0.99930 0.05500
C 	C 	0.80570 0.61140 0.40470 0.06600
C 	C 	0.22525 0.45050 0.52371 0.01900
H 	H 	0.52290 0.76145 0.99930 0.05500
C 	C 	0.38860 0.19430 0.40470 0.06500
C 	C 	0.54950 0.77475 0.52371 0.01900
H 	H 	0.23855 0.76145 0.50070 0.05500
C 	C 	0.80570 0.19430 0.09530 0.06500
C 	C 	0.22525 0.77475 0.97629 0.01900
H 	H 	0.52290 0.76145 0.50070 0.05500
C 	C 	0.38860 0.19430 0.09530 0.06600
C 	C 	0.54950 0.77475 0.97629 0.01900
H 	H 	0.23855 0.47710 0.50070 0.05500
C 	C 	0.80570 0.61140 0.09530 0.06500
C 	C 	0.22525 0.45050 0.97629 0.01900
H 	H 	0.76145 0.23855 0.00070 0.05500
C 	C 	0.19430 0.80570 0.59530 0.06500
C 	C 	0.77475 0.22525 0.47629 0.01900
H 	H 	0.47710 0.23855 0.00070 0.05500
C 	C 	0.61140 0.80570 0.59530 0.06600
C 	C 	0.45050 0.22525 0.47629 0.01900
H 	H 	0.76145 0.52290 0.00070 0.05500
C 	C 	0.19430 0.38860 0.59530 0.06500
C 	C 	0.77475 0.54950 0.47629 0.01900
C 	C 	0.81270 0.40635 0.80362 0.42000
C 	C 	0.59365 0.40635 0.80362 0.42000
C 	C 	0.59365 0.18730 0.80362 0.42000
C 	C 	0.18730 0.59365 0.30362 0.42000
C 	C 	0.40635 0.59365 0.30362 0.42000
C 	C 	0.40635 0.81270 0.30362 0.42000
C 	C 	0.40635 0.81270 0.19638 0.42000
C 	C 	0.40635 0.59365 0.19638 0.42000
C 	C 	0.18730 0.59365 0.19638 0.42000
C 	C 	0.59365 0.18730 0.69638 0.42000
C 	C 	0.59365 0.40635 0.69638 0.42000
C 	C 	0.81270 0.40635 0.69638 0.42000
C 	C 	0.64540 0.82270 0.63400 -0.17300
C 	C 	0.14680 0.57340 0.15864 -0.06200
C 	C 	0.17730 0.82270 0.63400 -0.17300
C 	C 	0.42660 0.57340 0.15864 -0.06200
C 	C 	0.17730 0.35460 0.63400 -0.17300
C 	C 	0.42660 0.85320 0.15864 -0.06200
C 	C 	0.35460 0.17730 0.13400 -0.17300
C 	C 	0.85320 0.42660 0.65864 -0.06200
C 	C 	0.82270 0.17730 0.13400 -0.17300
C 	C 	0.57340 0.42660 0.65864 -0.06200
C 	C 	0.82270 0.64540 0.13400 -0.17300
C 	C 	0.57340 0.14680 0.65864 -0.06200
C 	C 	0.82270 0.64540 0.36600 -0.17300
C 	C 	0.57340 0.14680 0.84136 -0.06200
C 	C 	0.82270 0.17730 0.36600 -0.17400
C 	C 	0.57340 0.42660 0.84136 -0.06200
C 	C 	0.35460 0.17730 0.36600 -0.17300
C 	C 	0.85320 0.42660 0.84136 -0.06200
C 	C 	0.17730 0.35460 0.86600 -0.17400
C 	C 	0.42660 0.85320 0.34136 -0.06200
C 	C 	0.17730 0.82270 0.86600 -0.17300
C 	C 	0.42660 0.57340 0.34136 -0.06200
C 	C 	0.64540 0.82270 0.86600 -0.17300
C 	C 	0.14680 0.57340 0.34136 -0.06200
O 	O 	0.66667 0.33333 0.75000 -0.81600
O 	O 	0.33333 0.66667 0.25000 -0.81600
H 	H 	0.70010 0.88539 0.63507 0.06100
H 	H 	0.66366 0.77681 0.64194 0.06000
H 	H 	0.59819 0.81877 0.65430 0.06000
H 	H 	0.14644 0.76452 0.65054 0.06000
H 	H 	0.13660 0.84977 0.63260 0.06200
H 	H 	0.23598 0.86668 0.64816 0.06000
H 	H 	0.16366 0.28986 0.63317 0.06200
H 	H 	0.12353 0.35674 0.64579 0.06000
H 	H 	0.23183 0.39145 0.65234 0.06000
H 	H 	0.33634 0.11315 0.14194 0.06000
H 	H 	0.29990 0.18529 0.13507 0.06100
H 	H 	0.40181 0.22058 0.15430 0.06000
H 	H 	0.87647 0.23322 0.14579 0.06000
H 	H 	0.83634 0.12619 0.13317 0.06200
H 	H 	0.76817 0.15962 0.15234 0.06000
H 	H 	0.86340 0.71316 0.13260 0.06200
H 	H 	0.85356 0.61808 0.15054 0.06000
H 	H 	0.76402 0.63071 0.14816 0.06000
H 	H 	0.77751 0.66471 0.35825 0.06000
H 	H 	0.81765 0.59782 0.34563 0.06000
H 	H 	0.88582 0.69942 0.36480 0.06100
H 	H 	0.79059 0.19578 0.34506 0.06000
H 	H 	0.80043 0.11054 0.36300 0.06100
H 	H 	0.88996 0.21270 0.36062 0.06100
H 	H 	0.35569 0.12283 0.35440 0.06000
H 	H 	0.39213 0.23141 0.34753 0.06000
H 	H 	0.29022 0.16478 0.36676 0.06200
H 	H 	0.19957 0.31011 0.86300 0.06100
H 	H 	0.20941 0.40520 0.84506 0.06000
H 	H 	0.11004 0.32274 0.86062 0.06100
H 	H 	0.18235 0.78018 0.84563 0.06000
H 	H 	0.22249 0.88720 0.85825 0.06000
H 	H 	0.11418 0.81360 0.86480 0.06100
H 	H 	0.60787 0.83928 0.84753 0.06000
H 	H 	0.64431 0.76714 0.85440 0.06000
H 	H 	0.70978 0.87456 0.86676 0.06200
