data_crystal

_cell_length_a 19.20400
_cell_length_b 19.20400
_cell_length_c 35.99800
_cell_angle_alpha 90.00000
_cell_angle_beta  90.00000
_cell_angle_gamma 120.00000

_symmetry_space_group_name_	'P 1'
_symmetry_space_group_name_H-M	'P 1'

loop_
_symmetry_equiv_pos_as_xyz
  x,y,z

loop_
_atom_site_label
_atom_site_type_symbol
_atom_site_fract_x
_atom_site_fract_y
_atom_site_fract_z
_atom_site_charge
H 	H 	0.60240 0.90630 0.90990 0.14200
H 	H 	0.09120 0.44570 0.09260 0.00400
H 	H 	0.20360 0.33820 0.86450 0.36100
H 	H 	0.53290 0.67440 0.34770 0.05800
C 	C 	0.89780 0.39120 0.60482 0.05300
C 	C 	0.35748 0.45520 0.52362 0.34300
C 	C 	0.73410 0.59380 0.42230 -0.28500
C 	C 	0.62660 0.13200 0.85937 -0.05600
C 	C 	0.84650 0.56830 0.04095 0.04200
O 	O 	0.51649 0.63005 0.00855 -0.44600
O 	O 	0.45739 0.65909 0.28989 -0.52100
O 	O 	0.03840 0.59422 0.54258 -0.45700
H 	H 	0.09370 0.69610 0.90990 0.14100
H 	H 	0.55430 0.64550 0.09260 0.00300
H 	H 	0.66180 0.86540 0.86450 0.36200
H 	H 	0.32560 0.85850 0.34770 0.05800
C 	C 	0.60880 0.50660 0.60482 0.05300
C 	C 	0.54480 0.90228 0.52362 0.34300
C 	C 	0.40620 0.14030 0.42230 -0.28500
C 	C 	0.86800 0.49460 0.85937 -0.05600
C 	C 	0.43170 0.27820 0.04095 0.04200
O 	O 	0.36995 0.88644 0.00855 -0.44600
O 	O 	0.34091 0.79830 0.28989 -0.52100
O 	O 	0.40578 0.44418 0.54258 -0.45700
H 	H 	0.30390 0.39760 0.90990 0.14100
H 	H 	0.35450 0.90880 0.09260 0.00300
H 	H 	0.13460 0.79640 0.86450 0.36200
H 	H 	0.14150 0.46710 0.34770 0.05800
C 	C 	0.49340 0.10220 0.60482 0.05300
C 	C 	0.09772 0.64252 0.52362 0.34300
C 	C 	0.85970 0.26590 0.42230 -0.28500
C 	C 	0.50540 0.37340 0.85937 -0.05600
C 	C 	0.72180 0.15350 0.04095 0.04200
O 	O 	0.11356 0.48351 0.00855 -0.44600
O 	O 	0.20170 0.54261 0.28989 -0.52100
O 	O 	0.55582 0.96160 0.54258 -0.45700
H 	H 	0.39760 0.09370 0.40990 0.14100
H 	H 	0.90880 0.55430 0.59260 0.00300
H 	H 	0.79640 0.66180 0.36450 0.36200
H 	H 	0.46710 0.32560 0.84770 0.05800
C 	C 	0.10220 0.60880 0.10482 0.05300
C 	C 	0.64252 0.54480 0.02362 0.34300
C 	C 	0.26590 0.40620 0.92230 -0.28500
C 	C 	0.37340 0.86800 0.35937 -0.05600
C 	C 	0.15350 0.43170 0.54095 0.04200
O 	O 	0.48351 0.36995 0.50855 -0.44600
O 	O 	0.54261 0.34091 0.78989 -0.52100
O 	O 	0.96160 0.40578 0.04258 -0.45700
H 	H 	0.90630 0.30390 0.40990 0.14100
H 	H 	0.44570 0.35450 0.59260 0.00300
H 	H 	0.33820 0.13460 0.36450 0.36200
H 	H 	0.67440 0.14150 0.84770 0.05800
C 	C 	0.39120 0.49340 0.10482 0.05300
C 	C 	0.45520 0.09772 0.02362 0.34300
C 	C 	0.59380 0.85970 0.92230 -0.28500
C 	C 	0.13200 0.50540 0.35937 -0.05600
C 	C 	0.56830 0.72180 0.54095 0.04200
O 	O 	0.63005 0.11356 0.50855 -0.44600
O 	O 	0.65909 0.20170 0.78989 -0.52100
O 	O 	0.59422 0.55582 0.04258 -0.45700
H 	H 	0.69610 0.60240 0.40990 0.14100
H 	H 	0.64550 0.09120 0.59260 0.00300
H 	H 	0.86540 0.20360 0.36450 0.36200
H 	H 	0.85850 0.53290 0.84770 0.05800
C 	C 	0.50660 0.89780 0.10482 0.05300
C 	C 	0.90228 0.35748 0.02362 0.34400
C 	C 	0.14030 0.73410 0.92230 -0.28500
C 	C 	0.49460 0.62660 0.35937 -0.05600
C 	C 	0.27820 0.84650 0.54095 0.04200
O 	O 	0.88644 0.51649 0.50855 -0.44600
O 	O 	0.79830 0.45739 0.78989 -0.52100
O 	O 	0.44418 0.03840 0.04258 -0.45700
H 	H 	0.90630 0.60240 0.09010 0.14100
H 	H 	0.44570 0.09120 0.90740 0.00300
H 	H 	0.33820 0.20360 0.13550 0.36100
H 	H 	0.67440 0.53290 0.65230 0.05800
C 	C 	0.39120 0.89780 0.39518 0.05300
C 	C 	0.45520 0.35748 0.47638 0.34300
C 	C 	0.59380 0.73410 0.57770 -0.28500
C 	C 	0.13200 0.62660 0.14063 -0.05600
C 	C 	0.56830 0.84650 0.95905 0.04200
O 	O 	0.63005 0.51649 0.99145 -0.44600
O 	O 	0.65909 0.45739 0.71011 -0.52100
O 	O 	0.59422 0.03840 0.45742 -0.45700
H 	H 	0.69610 0.09370 0.09010 0.14100
H 	H 	0.64550 0.55430 0.90740 0.00300
H 	H 	0.86540 0.66180 0.13550 0.36200
H 	H 	0.85850 0.32560 0.65230 0.05800
C 	C 	0.50660 0.60880 0.39518 0.05300
C 	C 	0.90228 0.54480 0.47638 0.34300
C 	C 	0.14030 0.40620 0.57770 -0.28500
C 	C 	0.49460 0.86800 0.14063 -0.05600
C 	C 	0.27820 0.43170 0.95905 0.04200
O 	O 	0.88644 0.36995 0.99145 -0.44600
O 	O 	0.79830 0.34091 0.71011 -0.52100
O 	O 	0.44418 0.40578 0.45742 -0.45700
H 	H 	0.39760 0.30390 0.09010 0.14100
H 	H 	0.90880 0.35450 0.90740 0.00300
H 	H 	0.79640 0.13460 0.13550 0.36200
H 	H 	0.46710 0.14150 0.65230 0.05800
C 	C 	0.10220 0.49340 0.39518 0.05300
C 	C 	0.64252 0.09772 0.47638 0.34300
C 	C 	0.26590 0.85970 0.57770 -0.28500
C 	C 	0.37340 0.50540 0.14063 -0.05600
C 	C 	0.15350 0.72180 0.95905 0.04200
O 	O 	0.48351 0.11356 0.99145 -0.44600
O 	O 	0.54261 0.20170 0.71011 -0.52100
O 	O 	0.96160 0.55582 0.45742 -0.45700
H 	H 	0.09370 0.39760 0.59010 0.14100
H 	H 	0.55430 0.90880 0.40740 0.00300
H 	H 	0.66180 0.79640 0.63550 0.36200
H 	H 	0.32560 0.46710 0.15230 0.05800
C 	C 	0.60880 0.10220 0.89518 0.05300
C 	C 	0.54480 0.64252 0.97638 0.34300
C 	C 	0.40620 0.26590 0.07770 -0.28500
C 	C 	0.86800 0.37340 0.64063 -0.05600
C 	C 	0.43170 0.15350 0.45905 0.04200
O 	O 	0.36995 0.48351 0.49145 -0.44600
O 	O 	0.34091 0.54261 0.21011 -0.52100
O 	O 	0.40578 0.96160 0.95742 -0.45700
H 	H 	0.30390 0.90630 0.59010 0.14100
H 	H 	0.35450 0.44570 0.40740 0.00300
H 	H 	0.13460 0.33820 0.63550 0.36200
H 	H 	0.14150 0.67440 0.15230 0.05800
C 	C 	0.49340 0.39120 0.89518 0.05300
C 	C 	0.09772 0.45520 0.97638 0.34300
C 	C 	0.85970 0.59380 0.07770 -0.28500
C 	C 	0.50540 0.13200 0.64063 -0.05600
C 	C 	0.72180 0.56830 0.45905 0.04200
O 	O 	0.11356 0.63005 0.49145 -0.44600
O 	O 	0.20170 0.65909 0.21011 -0.52100
O 	O 	0.55582 0.59422 0.95742 -0.45700
H 	H 	0.60240 0.69610 0.59010 0.14100
H 	H 	0.09120 0.64550 0.40740 0.00300
H 	H 	0.20360 0.86540 0.63550 0.36200
H 	H 	0.53290 0.85850 0.15230 0.05800
C 	C 	0.89780 0.50660 0.89518 0.05300
C 	C 	0.35748 0.90228 0.97638 0.34400
C 	C 	0.73410 0.14030 0.07770 -0.28500
C 	C 	0.62660 0.49460 0.64063 -0.05600
C 	C 	0.84650 0.27820 0.45905 0.04200
O 	O 	0.51649 0.88644 0.49145 -0.44600
O 	O 	0.45739 0.79830 0.21011 -0.52100
O 	O 	0.03840 0.44418 0.95742 -0.45700
H 	H 	0.39760 0.09370 0.09010 0.14100
H 	H 	0.90880 0.55430 0.90740 0.00300
H 	H 	0.79640 0.66180 0.13550 0.36100
H 	H 	0.46710 0.32560 0.65230 0.05800
C 	C 	0.10220 0.60880 0.39518 0.05300
C 	C 	0.64252 0.54480 0.47638 0.34300
C 	C 	0.26590 0.40620 0.57770 -0.28500
C 	C 	0.37340 0.86800 0.14063 -0.05600
C 	C 	0.15350 0.43170 0.95905 0.04200
O 	O 	0.48351 0.36995 0.99145 -0.44600
O 	O 	0.54261 0.34091 0.71011 -0.52100
O 	O 	0.96160 0.40578 0.45742 -0.45700
H 	H 	0.90630 0.30390 0.09010 0.14100
H 	H 	0.44570 0.35450 0.90740 0.00300
H 	H 	0.33820 0.13460 0.13550 0.36200
H 	H 	0.67440 0.14150 0.65230 0.05800
C 	C 	0.39120 0.49340 0.39518 0.05300
C 	C 	0.45520 0.09772 0.47638 0.34300
C 	C 	0.59380 0.85970 0.57770 -0.28500
C 	C 	0.13200 0.50540 0.14063 -0.05600
C 	C 	0.56830 0.72180 0.95905 0.04200
O 	O 	0.63005 0.11356 0.99145 -0.44600
O 	O 	0.65909 0.20170 0.71011 -0.52100
O 	O 	0.59422 0.55582 0.45742 -0.45700
H 	H 	0.69610 0.60240 0.09010 0.14100
H 	H 	0.64550 0.09120 0.90740 0.00300
H 	H 	0.86540 0.20360 0.13550 0.36200
H 	H 	0.85850 0.53290 0.65230 0.05800
C 	C 	0.50660 0.89780 0.39518 0.05300
C 	C 	0.90228 0.35748 0.47638 0.34300
C 	C 	0.14030 0.73410 0.57770 -0.28500
C 	C 	0.49460 0.62660 0.14063 -0.05600
C 	C 	0.27820 0.84650 0.95905 0.04200
O 	O 	0.88644 0.51649 0.99145 -0.44600
O 	O 	0.79830 0.45739 0.71011 -0.52100
O 	O 	0.44418 0.03840 0.45742 -0.45700
H 	H 	0.60240 0.90630 0.59010 0.14100
H 	H 	0.09120 0.44570 0.40740 0.00300
H 	H 	0.20360 0.33820 0.63550 0.36200
H 	H 	0.53290 0.67440 0.15230 0.05800
C 	C 	0.89780 0.39120 0.89518 0.05300
C 	C 	0.35748 0.45520 0.97638 0.34300
C 	C 	0.73410 0.59380 0.07770 -0.28500
C 	C 	0.62660 0.13200 0.64063 -0.05600
C 	C 	0.84650 0.56830 0.45905 0.04200
O 	O 	0.51649 0.63005 0.49145 -0.44600
O 	O 	0.45739 0.65909 0.21011 -0.52100
O 	O 	0.03840 0.59422 0.95742 -0.45700
H 	H 	0.09370 0.69610 0.59010 0.14100
H 	H 	0.55430 0.64550 0.40740 0.00300
H 	H 	0.66180 0.86540 0.63550 0.36200
H 	H 	0.32560 0.85850 0.15230 0.05800
C 	C 	0.60880 0.50660 0.89518 0.05300
C 	C 	0.54480 0.90228 0.97638 0.34300
C 	C 	0.40620 0.14030 0.07770 -0.28500
C 	C 	0.86800 0.49460 0.64063 -0.05600
C 	C 	0.43170 0.27820 0.45905 0.04200
O 	O 	0.36995 0.88644 0.49145 -0.44600
O 	O 	0.34091 0.79830 0.21011 -0.52100
O 	O 	0.40578 0.44418 0.95742 -0.45700
H 	H 	0.30390 0.39760 0.59010 0.14100
H 	H 	0.35450 0.90880 0.40740 0.00300
H 	H 	0.13460 0.79640 0.63550 0.36200
H 	H 	0.14150 0.46710 0.15230 0.05800
C 	C 	0.49340 0.10220 0.89518 0.05300
C 	C 	0.09772 0.64252 0.97638 0.34400
C 	C 	0.85970 0.26590 0.07770 -0.28500
C 	C 	0.50540 0.37340 0.64063 -0.05600
C 	C 	0.72180 0.15350 0.45905 0.04200
O 	O 	0.11356 0.48351 0.49145 -0.44600
O 	O 	0.20170 0.54261 0.21011 -0.52100
O 	O 	0.55582 0.96160 0.95742 -0.45700
H 	H 	0.09370 0.39760 0.90990 0.14100
H 	H 	0.55430 0.90880 0.09260 0.00300
H 	H 	0.66180 0.79640 0.86450 0.36100
H 	H 	0.32560 0.46710 0.34770 0.05800
C 	C 	0.60880 0.10220 0.60482 0.05300
C 	C 	0.54480 0.64252 0.52362 0.34300
C 	C 	0.40620 0.26590 0.42230 -0.28500
C 	C 	0.86800 0.37340 0.85937 -0.05600
C 	C 	0.43170 0.15350 0.04095 0.04200
O 	O 	0.36995 0.48351 0.00855 -0.44600
O 	O 	0.34091 0.54261 0.28989 -0.52100
O 	O 	0.40578 0.96160 0.54258 -0.45700
H 	H 	0.30390 0.90630 0.90990 0.14100
H 	H 	0.35450 0.44570 0.09260 0.00300
H 	H 	0.13460 0.33820 0.86450 0.36200
H 	H 	0.14150 0.67440 0.34770 0.05800
C 	C 	0.49340 0.39120 0.60482 0.05300
C 	C 	0.09772 0.45520 0.52362 0.34300
C 	C 	0.85970 0.59380 0.42230 -0.28500
C 	C 	0.50540 0.13200 0.85937 -0.05600
C 	C 	0.72180 0.56830 0.04095 0.04200
O 	O 	0.11356 0.63005 0.00855 -0.44600
O 	O 	0.20170 0.65909 0.28989 -0.52100
O 	O 	0.55582 0.59422 0.54258 -0.45700
H 	H 	0.60240 0.69610 0.90990 0.14100
H 	H 	0.09120 0.64550 0.09260 0.00300
H 	H 	0.20360 0.86540 0.86450 0.36200
H 	H 	0.53290 0.85850 0.34770 0.05800
C 	C 	0.89780 0.50660 0.60482 0.05300
C 	C 	0.35748 0.90228 0.52362 0.34300
C 	C 	0.73410 0.14030 0.42230 -0.28500
C 	C 	0.62660 0.49460 0.85937 -0.05600
C 	C 	0.84650 0.27820 0.04095 0.04200
O 	O 	0.51649 0.88644 0.00855 -0.44600
O 	O 	0.45739 0.79830 0.28989 -0.52100
O 	O 	0.03840 0.44418 0.54258 -0.45700
H 	H 	0.90630 0.60240 0.40990 0.14100
H 	H 	0.44570 0.09120 0.59260 0.00300
H 	H 	0.33820 0.20360 0.36450 0.36200
H 	H 	0.67440 0.53290 0.84770 0.05800
C 	C 	0.39120 0.89780 0.10482 0.05300
C 	C 	0.45520 0.35748 0.02362 0.34300
C 	C 	0.59380 0.73410 0.92230 -0.28500
C 	C 	0.13200 0.62660 0.35937 -0.05600
C 	C 	0.56830 0.84650 0.54095 0.04200
O 	O 	0.63005 0.51649 0.50855 -0.44600
O 	O 	0.65909 0.45739 0.78989 -0.52100
O 	O 	0.59422 0.03840 0.04258 -0.45700
H 	H 	0.69610 0.09370 0.40990 0.14100
H 	H 	0.64550 0.55430 0.59260 0.00300
H 	H 	0.86540 0.66180 0.36450 0.36200
H 	H 	0.85850 0.32560 0.84770 0.05800
C 	C 	0.50660 0.60880 0.10482 0.05300
C 	C 	0.90228 0.54480 0.02362 0.34300
C 	C 	0.14030 0.40620 0.92230 -0.28500
C 	C 	0.49460 0.86800 0.35937 -0.05600
C 	C 	0.27820 0.43170 0.54095 0.04200
O 	O 	0.88644 0.36995 0.50855 -0.44600
O 	O 	0.79830 0.34091 0.78989 -0.52100
O 	O 	0.44418 0.40578 0.04258 -0.45700
H 	H 	0.39760 0.30390 0.40990 0.14100
H 	H 	0.90880 0.35450 0.59260 0.00300
H 	H 	0.79640 0.13460 0.36450 0.36200
H 	H 	0.46710 0.14150 0.84770 0.05800
C 	C 	0.10220 0.49340 0.10482 0.05300
C 	C 	0.64252 0.09772 0.02362 0.34400
C 	C 	0.26590 0.85970 0.92230 -0.28500
C 	C 	0.37340 0.50540 0.35937 -0.05600
C 	C 	0.15350 0.72180 0.54095 0.04200
O 	O 	0.48351 0.11356 0.50855 -0.44600
O 	O 	0.54261 0.20170 0.78989 -0.52100
O 	O 	0.96160 0.55582 0.04258 -0.45700
Zn	Zn	0.95377 0.47689 0.96565 1.21600
H 	H 	0.47610 0.23805 0.00040 0.09200
C 	C 	0.81328 0.40664 0.69634 0.41700
Zn	Zn	0.52311 0.47689 0.96565 1.21600
H 	H 	0.76195 0.23805 0.00040 0.09200
C 	C 	0.59336 0.40664 0.69634 0.41700
Zn	Zn	0.52311 0.04623 0.96565 1.21600
H 	H 	0.76195 0.52390 0.00040 0.09200
C 	C 	0.59336 0.18672 0.69634 0.41700
Zn	Zn	0.04623 0.52311 0.46565 1.21600
H 	H 	0.52390 0.76195 0.50040 0.09200
C 	C 	0.18672 0.59336 0.19634 0.41700
Zn	Zn	0.47689 0.52311 0.46565 1.21600
H 	H 	0.23805 0.76195 0.50040 0.09200
C 	C 	0.40664 0.59336 0.19634 0.41700
Zn	Zn	0.47689 0.95377 0.46565 1.21600
H 	H 	0.23805 0.47610 0.50040 0.09200
C 	C 	0.40664 0.81328 0.19634 0.41700
Zn	Zn	0.47689 0.95377 0.03435 1.21600
H 	H 	0.23805 0.47610 0.99960 0.09200
C 	C 	0.40664 0.81328 0.30366 0.41700
Zn	Zn	0.47689 0.52311 0.03435 1.21600
H 	H 	0.23805 0.76195 0.99960 0.09200
C 	C 	0.40664 0.59336 0.30366 0.41700
Zn	Zn	0.04623 0.52311 0.03435 1.21600
H 	H 	0.52390 0.76195 0.99960 0.09200
C 	C 	0.18672 0.59336 0.30366 0.41700
Zn	Zn	0.52311 0.04623 0.53435 1.21600
H 	H 	0.76195 0.52390 0.49960 0.09200
C 	C 	0.59336 0.18672 0.80366 0.41700
Zn	Zn	0.52311 0.47689 0.53435 1.21600
H 	H 	0.76195 0.23805 0.49960 0.09200
C 	C 	0.59336 0.40664 0.80366 0.41700
Zn	Zn	0.95377 0.47689 0.53435 1.21600
H 	H 	0.47610 0.23805 0.49960 0.09200
C 	C 	0.81328 0.40664 0.80366 0.41700
Cr	Cr	0.27583 0.72417 0.25000 1.55100
Cr	Cr	0.27583 0.55166 0.25000 1.55100
Cr	Cr	0.44834 0.72417 0.25000 1.55100
Cr	Cr	0.72417 0.27583 0.75000 1.55100
Cr	Cr	0.72417 0.44834 0.75000 1.55100
Cr	Cr	0.55166 0.27583 0.75000 1.55100
C 	C 	0.57357 0.14714 0.65854 -0.06100
O 	O 	0.81635 0.63270 0.13190 -0.85800
C 	C 	0.85286 0.42643 0.65854 -0.06100
O 	O 	0.36730 0.18365 0.13190 -0.85800
C 	C 	0.57357 0.42643 0.65854 -0.06100
O 	O 	0.81635 0.18365 0.13190 -0.85800
C 	C 	0.42643 0.85286 0.15854 -0.06100
O 	O 	0.18365 0.36730 0.63190 -0.85800
C 	C 	0.14714 0.57357 0.15854 -0.06100
O 	O 	0.63270 0.81635 0.63190 -0.85800
C 	C 	0.42643 0.57357 0.15854 -0.06100
O 	O 	0.18365 0.81635 0.63190 -0.85800
C 	C 	0.14714 0.57357 0.34146 -0.06100
O 	O 	0.63270 0.81635 0.86810 -0.85800
C 	C 	0.42643 0.85286 0.34146 -0.06100
O 	O 	0.18365 0.36730 0.86810 -0.85800
C 	C 	0.42643 0.57357 0.34146 -0.06100
O 	O 	0.18365 0.81635 0.86810 -0.85800
C 	C 	0.85286 0.42643 0.84146 -0.06100
O 	O 	0.36730 0.18365 0.36810 -0.85800
C 	C 	0.57357 0.14714 0.84146 -0.06100
O 	O 	0.81635 0.63270 0.36810 -0.85800
C 	C 	0.57357 0.42643 0.84146 -0.06100
O 	O 	0.81635 0.18365 0.36810 -0.85800
C 	C 	0.22530 0.45060 0.52373 -0.09500
N 	N 	0.45580 0.91160 0.08714 -0.24500
C 	C 	0.54940 0.77470 0.52373 -0.09500
N 	N 	0.08840 0.54420 0.08714 -0.24500
C 	C 	0.22530 0.77470 0.52373 -0.09500
N 	N 	0.45580 0.54420 0.08714 -0.24500
C 	C 	0.77470 0.54940 0.02373 -0.09500
N 	N 	0.54420 0.08840 0.58714 -0.24500
C 	C 	0.45060 0.22530 0.02373 -0.09500
N 	N 	0.91160 0.45580 0.58714 -0.24500
C 	C 	0.77470 0.22530 0.02373 -0.09500
N 	N 	0.54420 0.45580 0.58714 -0.24500
C 	C 	0.45060 0.22530 0.47627 -0.09500
N 	N 	0.91160 0.45580 0.91286 -0.24500
C 	C 	0.77470 0.54940 0.47627 -0.09500
N 	N 	0.54420 0.08840 0.91286 -0.24500
C 	C 	0.77470 0.22530 0.47627 -0.09500
N 	N 	0.54420 0.45580 0.91286 -0.24500
C 	C 	0.54940 0.77470 0.97627 -0.09500
N 	N 	0.08840 0.54420 0.41286 -0.24500
C 	C 	0.22530 0.45060 0.97627 -0.09500
N 	N 	0.45580 0.91160 0.41286 -0.24500
C 	C 	0.22530 0.77470 0.97627 -0.09500
N 	N 	0.45580 0.54420 0.41286 -0.24500
C 	C 	0.80320 0.19680 0.09580 0.42000
C 	C 	0.80320 0.60640 0.09580 0.42000
C 	C 	0.39360 0.19680 0.09580 0.42000
C 	C 	0.19680 0.80320 0.59580 0.42000
C 	C 	0.19680 0.39360 0.59580 0.42000
C 	C 	0.60640 0.80320 0.59580 0.42000
C 	C 	0.19680 0.80320 0.90420 0.42000
C 	C 	0.60640 0.80320 0.90420 0.42000
C 	C 	0.19680 0.39360 0.90420 0.42000
C 	C 	0.80320 0.19680 0.40420 0.42000
C 	C 	0.39360 0.19680 0.40420 0.42000
C 	C 	0.80320 0.60640 0.40420 0.42000
O 	O 	0.33333 0.66667 0.25000 -0.81400
O 	O 	0.66667 0.33333 0.75000 -0.81400
