data_crystal

_cell_length_a 19.20870
_cell_length_b 19.20870
_cell_length_c 36.04200
_cell_angle_alpha 90.00000
_cell_angle_beta  90.00000
_cell_angle_gamma 120.00000

_symmetry_space_group_name_	'P 1'
_symmetry_space_group_name_H-M	'P 1'

loop_
_symmetry_equiv_pos_as_xyz
  x,y,z

loop_
_atom_site_label
_atom_site_type_symbol
_atom_site_fract_x
_atom_site_fract_y
_atom_site_fract_z
_atom_site_charge
H 	H 	0.61370 0.91210 0.91250 -0.01200
H 	H 	0.46780 0.14250 0.65270 0.03100
H 	H 	0.64700 0.09270 0.59260 0.03100
C 	C 	0.72250 0.57081 0.04023 -0.17300
C 	C 	0.35740 0.90283 0.97639 -0.08700
C 	C 	0.49330 0.10340 0.89514 -0.04800
C 	C 	0.26180 0.39780 0.92446 -0.11600
C 	C 	0.13330 0.62720 0.35916 -0.06200
O 	O 	0.40591 0.96147 0.54257 -0.15100
O 	O 	0.88643 0.36976 0.99164 -0.16900
O 	O 	0.65950 0.45735 0.71013 -0.14000
O 	O 	0.89060 0.22990 0.35320 -0.17500
Zn	Zn	0.47652 0.52348 0.03480 1.04000
H 	H 	0.76270 0.23730 0.00140 0.07100
C 	C 	0.77609 0.22391 0.02434 -0.11500
N 	N 	0.45533 0.54467 0.08725 -0.39000
Cr	Cr	0.44817 0.72408 0.25000 1.27600
C 	C 	0.18720 0.59360 0.30335 -0.07400
N 	N 	0.64960 0.82480 0.63280 -0.09100
C 	C 	0.57445 0.14890 0.65860 -0.02000
C 	C 	0.38280 0.19140 0.40660 -0.06000
O 	O 	0.33333 0.66667 0.25000 -0.56600
