data_crystal

_cell_length_a 39.38750
_cell_length_b 39.38750
_cell_length_c 16.48290
_cell_angle_alpha 90.00000
_cell_angle_beta  90.00000
_cell_angle_gamma 120.00000

_symmetry_space_group_name_	'P 1'
_symmetry_space_group_name_H-M	'P 1'

loop_
_symmetry_equiv_pos_as_xyz
  x,y,z

loop_
_atom_site_label
_atom_site_type_symbol
_atom_site_fract_x
_atom_site_fract_y
_atom_site_fract_z
_atom_site_charge
C 	C 	0.21865 0.50033 0.67475 -0.02000
C 	C 	0.25016 0.50004 0.71540 -0.03800
C 	C 	0.28144 0.49972 0.67374 -0.01800
C 	C 	0.28139 0.50052 0.58685 0.01300
C 	C 	0.24994 0.50058 0.54384 -0.00700
C 	C 	0.21898 0.50109 0.58782 0.01400
C 	C 	0.19001 0.50400 0.54339 -0.04100
C 	C 	0.18994 0.50433 0.45857 -0.04000
C 	C 	0.21886 0.50180 0.41318 0.01300
C 	C 	0.24989 0.50099 0.45628 -0.00700
C 	C 	0.31282 0.50297 0.54152 -0.04000
C 	C 	0.31276 0.50334 0.45677 -0.04000
C 	C 	0.28131 0.50138 0.41237 0.01300
C 	C 	0.28130 0.50142 0.32554 -0.01700
C 	C 	0.25000 0.50196 0.28470 -0.03700
C 	C 	0.21843 0.50171 0.32619 -0.01800
H 	H 	0.16726 0.50690 0.57373 0.04700
H 	H 	0.16716 0.50746 0.42901 0.04600
H 	H 	0.33846 0.50546 0.57105 0.04600
H 	H 	0.33831 0.50598 0.42645 0.04700
H 	H 	0.24985 0.49907 0.78113 0.04200
H 	H 	0.24967 0.50147 0.21894 0.04400
C 	C 	0.31291 0.49999 0.27532 0.04000
C 	C 	0.18528 0.50043 0.27626 0.04300
C 	C 	0.18563 0.49900 0.72524 0.04600
C 	C 	0.31338 0.49833 0.72328 0.03800
C 	C 	0.19283 0.52780 0.21375 -0.07900
C 	C 	0.16218 0.52626 0.16623 0.04900
C 	C 	0.12260 0.49713 0.17920 -0.13800
C 	C 	0.11532 0.46942 0.24123 0.04900
C 	C 	0.14601 0.47086 0.28809 -0.08000
C 	C 	0.32124 0.46934 0.28470 -0.07500
C 	C 	0.35072 0.46807 0.23844 0.03800
C 	C 	0.37272 0.49714 0.18007 -0.11000
C 	C 	0.36376 0.52738 0.16943 0.03600
C 	C 	0.33429 0.52869 0.21604 -0.07400
C 	C 	0.32330 0.46888 0.71119 -0.07300
C 	C 	0.35307 0.46786 0.75725 0.03400
C 	C 	0.37369 0.49586 0.81863 -0.11000
C 	C 	0.36300 0.52482 0.83168 0.03200
C 	C 	0.33347 0.52595 0.78506 -0.07300
C 	C 	0.19320 0.52658 0.78730 -0.08400
C 	C 	0.16252 0.52533 0.83432 0.05400
C 	C 	0.12292 0.49626 0.82130 -0.15400
C 	C 	0.11565 0.46825 0.75993 0.05700
C 	C 	0.14635 0.46943 0.71355 -0.08500
H 	H 	0.22265 0.55075 0.20198 0.05200
H 	H 	0.16967 0.54827 0.11962 0.04400
H 	H 	0.08571 0.44620 0.25377 0.04500
H 	H 	0.13899 0.44862 0.33395 0.05500
H 	H 	0.30490 0.44627 0.32836 0.05400
H 	H 	0.35625 0.44411 0.24862 0.03900
H 	H 	0.37978 0.55035 0.12541 0.04600
H 	H 	0.32850 0.55252 0.20642 0.05000
H 	H 	0.30796 0.44652 0.66563 0.05300
H 	H 	0.35966 0.44478 0.74474 0.04300
H 	H 	0.37761 0.54707 0.87779 0.04500
H 	H 	0.32655 0.54886 0.79689 0.04800
H 	H 	0.22303 0.54955 0.79891 0.05100
H 	H 	0.16999 0.54753 0.88048 0.03800
H 	H 	0.08603 0.44505 0.74736 0.03200
H 	H 	0.13931 0.44710 0.66790 0.05500
C 	C 	0.49980 0.71790 0.67654 -0.01900
C 	C 	0.49992 0.74936 0.71807 -0.03600
C 	C 	0.50053 0.78128 0.67737 -0.01900
C 	C 	0.50029 0.78124 0.59037 0.01400
C 	C 	0.50017 0.74994 0.54652 -0.00800
C 	C 	0.49936 0.71808 0.58966 0.01400
C 	C 	0.49656 0.68646 0.54447 -0.04100
C 	C 	0.49660 0.68665 0.45974 -0.04000
C 	C 	0.49927 0.71840 0.41529 0.01300
C 	C 	0.50010 0.75007 0.45897 -0.00600
C 	C 	0.49864 0.81088 0.54570 -0.04100
C 	C 	0.49862 0.81103 0.46075 -0.04000
C 	C 	0.50013 0.78149 0.41559 0.01200
C 	C 	0.50012 0.78167 0.32857 -0.01600
C 	C 	0.49952 0.74991 0.28744 -0.03800
C 	C 	0.49957 0.71849 0.32852 -0.01600
H 	H 	0.49348 0.66060 0.57412 0.04700
H 	H 	0.49368 0.66099 0.42943 0.04700
H 	H 	0.49658 0.83413 0.57597 0.04500
H 	H 	0.49664 0.83440 0.43081 0.04500
H 	H 	0.50065 0.74955 0.78382 0.04200
H 	H 	0.50009 0.75017 0.22168 0.04500
C 	C 	0.50148 0.81453 0.27768 0.03800
C 	C 	0.50092 0.68690 0.27840 0.03900
C 	C 	0.50102 0.68595 0.72621 0.04500
C 	C 	0.50224 0.81430 0.72831 0.04500
C 	C 	0.47258 0.66609 0.21815 -0.07300
C 	C 	0.47409 0.63699 0.17077 0.03500
C 	C 	0.50420 0.62787 0.18163 -0.10700
C 	C 	0.53287 0.64924 0.24112 0.03700
C 	C 	0.53138 0.67835 0.28818 -0.07300
C 	C 	0.53210 0.85359 0.28607 -0.07300
C 	C 	0.53401 0.88378 0.23667 0.03500
C 	C 	0.50561 0.87608 0.17615 -0.11100
C 	C 	0.47532 0.83683 0.16687 0.03400
C 	C 	0.47342 0.80663 0.21645 -0.07300
C 	C 	0.53257 0.85336 0.71839 -0.08300
C 	C 	0.53433 0.88394 0.76614 0.05300
C 	C 	0.50607 0.87671 0.82694 -0.15200
C 	C 	0.47627 0.83727 0.83827 0.05200
C 	C 	0.47450 0.80672 0.79000 -0.08300
C 	C 	0.47349 0.66591 0.78830 -0.08300
C 	C 	0.47479 0.63647 0.83506 0.05200
C 	C 	0.50382 0.62592 0.82169 -0.15100
C 	C 	0.53172 0.64662 0.76015 0.05300
C 	C 	0.53054 0.67621 0.71408 -0.08300
H 	H 	0.44892 0.67212 0.20826 0.05000
H 	H 	0.45141 0.62140 0.12595 0.04600
H 	H 	0.55668 0.64349 0.25152 0.04800
H 	H 	0.55418 0.69429 0.33261 0.05500
H 	H 	0.55480 0.86077 0.33093 0.05400
H 	H 	0.55789 0.91338 0.24628 0.04400
H 	H 	0.45272 0.82940 0.12167 0.04500
H 	H 	0.44968 0.77692 0.20733 0.05000
H 	H 	0.55507 0.86031 0.67319 0.05600
H 	H 	0.55803 0.91345 0.75478 0.04100
H 	H 	0.45381 0.82985 0.88380 0.03900
H 	H 	0.45099 0.77701 0.80034 0.05100
H 	H 	0.45057 0.67281 0.80022 0.05100
H 	H 	0.45265 0.62175 0.88136 0.04000
H 	H 	0.55489 0.64017 0.74737 0.04100
H 	H 	0.55285 0.69157 0.66844 0.05600
C 	C 	0.28141 0.78113 0.67423 -0.01900
C 	C 	0.25026 0.74922 0.71544 -0.03600
C 	C 	0.21876 0.71759 0.67448 -0.01900
C 	C 	0.21904 0.71752 0.58755 0.01400
C 	C 	0.24979 0.74933 0.54378 -0.00700
C 	C 	0.28114 0.78084 0.58711 0.01400
C 	C 	0.31213 0.81041 0.54176 -0.04100
C 	C 	0.31186 0.81036 0.45681 -0.04000
C 	C 	0.28066 0.78063 0.41219 0.01200
C 	C 	0.24959 0.74920 0.45611 -0.00600
C 	C 	0.19016 0.68568 0.54290 -0.04100
C 	C 	0.18999 0.68553 0.45810 -0.04000
C 	C 	0.21868 0.71723 0.41290 0.01300
C 	C 	0.21811 0.71702 0.32594 -0.01700
C 	C 	0.24934 0.74863 0.28448 -0.03700
C 	C 	0.28050 0.78069 0.32516 -0.01600
H 	H 	0.33755 0.83377 0.57148 0.04500
H 	H 	0.33703 0.83372 0.42642 0.04500
H 	H 	0.16758 0.65986 0.57308 0.04700
H 	H 	0.16729 0.65963 0.42836 0.04600
H 	H 	0.24997 0.74955 0.78119 0.04300
H 	H 	0.24884 0.74881 0.21873 0.04500
C 	C 	0.18514 0.68498 0.27591 0.04400
C 	C 	0.31175 0.81373 0.27399 0.03900
C 	C 	0.31303 0.81429 0.72487 0.04400
C 	C 	0.18573 0.68579 0.72482 0.04500
C 	C 	0.33216 0.80612 0.21284 -0.07300
C 	C 	0.36058 0.83653 0.16378 0.03500
C 	C 	0.36945 0.87576 0.17346 -0.11100
C 	C 	0.34845 0.88317 0.23376 0.03700
C 	C 	0.32004 0.85275 0.28266 -0.07400
C 	C 	0.14581 0.67511 0.28740 -0.08000
C 	C 	0.11528 0.64583 0.24028 0.05000
C 	C 	0.12276 0.62545 0.17839 -0.14100
C 	C 	0.16239 0.63602 0.16585 0.05000
C 	C 	0.19291 0.66523 0.21355 -0.08000
C 	C 	0.14646 0.67611 0.71322 -0.08300
C 	C 	0.11578 0.64670 0.75983 0.05500
C 	C 	0.12306 0.62603 0.82135 -0.14900
C 	C 	0.16266 0.63651 0.83422 0.05200
C 	C 	0.19332 0.66584 0.78699 -0.08200
C 	C 	0.33300 0.80672 0.78709 -0.08200
C 	C 	0.36181 0.83727 0.83545 0.05000
C 	C 	0.37178 0.87679 0.82381 -0.14800
C 	C 	0.35103 0.88406 0.76237 0.05200
C 	C 	0.32214 0.85347 0.71454 -0.08200
H 	H 	0.32636 0.77647 0.20351 0.05000
H 	H 	0.37595 0.82929 0.11872 0.04600
H 	H 	0.35409 0.91271 0.24369 0.04000
H 	H 	0.30440 0.85975 0.32754 0.05300
H 	H 	0.13862 0.69022 0.33319 0.05500
H 	H 	0.08562 0.63934 0.25261 0.04100
H 	H 	0.17002 0.62153 0.11941 0.04300
H 	H 	0.22279 0.67223 0.20203 0.05200
H 	H 	0.13941 0.69139 0.66755 0.05600
H 	H 	0.08617 0.64032 0.74732 0.04100
H 	H 	0.17013 0.62181 0.88046 0.03900
H 	H 	0.22315 0.67269 0.79857 0.05100
H 	H 	0.32655 0.77696 0.79790 0.05100
H 	H 	0.37659 0.82976 0.88144 0.03900
H 	H 	0.35705 0.91362 0.75069 0.04300
H 	H 	0.30677 0.86052 0.66909 0.05500
C 	C 	0.78363 0.50179 0.67460 -0.01900
C 	C 	0.75188 0.50141 0.71545 -0.03700
C 	C 	0.72060 0.50179 0.67423 -0.01700
C 	C 	0.72085 0.50178 0.58722 0.01300
C 	C 	0.75243 0.50211 0.54381 -0.00700
C 	C 	0.78351 0.50166 0.58754 0.01300
C 	C 	0.81283 0.49954 0.54272 -0.04100
C 	C 	0.81289 0.49949 0.45777 -0.04000
C 	C 	0.78365 0.50159 0.41264 0.01300
C 	C 	0.75251 0.50211 0.45614 -0.00600
C 	C 	0.68962 0.49993 0.54214 -0.04000
C 	C 	0.68972 0.49998 0.45726 -0.04000
C 	C 	0.72106 0.50186 0.41249 0.01200
C 	C 	0.72100 0.50195 0.32552 -0.01600
C 	C 	0.75224 0.50142 0.28450 -0.03700
C 	C 	0.78387 0.50163 0.32555 -0.01700
H 	H 	0.83586 0.49706 0.57291 0.04500
H 	H 	0.83596 0.49699 0.42782 0.04500
H 	H 	0.66413 0.49764 0.57207 0.04400
H 	H 	0.66432 0.49774 0.42706 0.04500
H 	H 	0.75205 0.50193 0.78120 0.04300
H 	H 	0.75249 0.50193 0.21875 0.04500
C 	C 	0.68944 0.50334 0.27485 0.03800
C 	C 	0.81670 0.50274 0.27461 0.04300
C 	C 	0.81650 0.50311 0.72563 0.04500
C 	C 	0.68883 0.50294 0.72479 0.03900
C 	C 	0.80868 0.47517 0.21220 -0.07800
C 	C 	0.83891 0.47677 0.16296 0.04700
C 	C 	0.87851 0.50625 0.17383 -0.13600
C 	C 	0.88621 0.53426 0.23557 0.04800
C 	C 	0.85596 0.53265 0.28437 -0.07900
C 	C 	0.68091 0.53388 0.28383 -0.07300
C 	C 	0.65208 0.53550 0.23574 0.03500
C 	C 	0.63089 0.50687 0.17595 -0.11000
C 	C 	0.64001 0.47672 0.16586 0.03400
C 	C 	0.66886 0.47511 0.21416 -0.07300
C 	C 	0.68001 0.53328 0.71570 -0.07500
C 	C 	0.65115 0.53478 0.76394 0.03600
C 	C 	0.63020 0.50625 0.82409 -0.11900
C 	C 	0.63957 0.47627 0.83424 0.03500
C 	C 	0.66845 0.47478 0.78575 -0.07500
C 	C 	0.80859 0.47554 0.78794 -0.08300
C 	C 	0.83890 0.47721 0.83693 0.05200
C 	C 	0.87846 0.50674 0.82583 -0.15300
C 	C 	0.88605 0.53480 0.76431 0.05300
C 	C 	0.85571 0.53313 0.71578 -0.08300
H 	H 	0.77882 0.45198 0.20185 0.05100
H 	H 	0.83110 0.45448 0.11685 0.04400
H 	H 	0.91587 0.55771 0.24678 0.04600
H 	H 	0.86333 0.55507 0.32998 0.05600
H 	H 	0.69667 0.55667 0.32838 0.05400
H 	H 	0.64630 0.55929 0.24589 0.04400
H 	H 	0.62453 0.45399 0.12107 0.04600
H 	H 	0.67486 0.45141 0.20463 0.05000
H 	H 	0.69561 0.55604 0.67102 0.05400
H 	H 	0.64521 0.55847 0.75374 0.04300
H 	H 	0.62430 0.45363 0.87930 0.04100
H 	H 	0.67466 0.45123 0.79544 0.04900
H 	H 	0.77877 0.45227 0.79833 0.05100
H 	H 	0.83119 0.45489 0.88292 0.03800
H 	H 	0.91567 0.55829 0.75299 0.03800
H 	H 	0.86296 0.55553 0.67019 0.05600
C 	C 	0.49644 0.28054 0.67303 -0.01600
C 	C 	0.49719 0.24935 0.71401 -0.03800
C 	C 	0.49756 0.21809 0.67273 -0.01700
C 	C 	0.49786 0.21851 0.58591 0.01300
C 	C 	0.49702 0.24945 0.54250 -0.00700
C 	C 	0.49689 0.28070 0.58606 0.01200
C 	C 	0.49888 0.31208 0.54116 -0.04000
C 	C 	0.49914 0.31223 0.45626 -0.04100
C 	C 	0.49738 0.28099 0.41133 0.01300
C 	C 	0.49717 0.24956 0.45497 -0.00700
C 	C 	0.50058 0.18957 0.54107 -0.04000
C 	C 	0.50056 0.18958 0.45638 -0.04000
C 	C 	0.49794 0.21860 0.41162 0.01200
C 	C 	0.49769 0.21826 0.32488 -0.01500
C 	C 	0.49792 0.24979 0.28346 -0.03800
C 	C 	0.49746 0.28111 0.32430 -0.01700
H 	H 	0.50113 0.33751 0.57120 0.04400
H 	H 	0.50152 0.33773 0.42623 0.04500
H 	H 	0.50354 0.16676 0.57099 0.04600
H 	H 	0.50348 0.16676 0.42639 0.04700
H 	H 	0.49654 0.24889 0.77976 0.04300
H 	H 	0.49746 0.24942 0.21770 0.04500
C 	C 	0.49671 0.18536 0.27522 0.03400
C 	C 	0.49633 0.31275 0.27337 0.04400
C 	C 	0.49502 0.31207 0.72373 0.03800
C 	C 	0.49688 0.18524 0.72249 0.03900
C 	C 	0.52424 0.33268 0.21178 -0.08000
C 	C 	0.52284 0.36154 0.16309 0.05000
C 	C 	0.49326 0.37153 0.17382 -0.14100
C 	C 	0.46485 0.35077 0.23456 0.05300
C 	C 	0.46624 0.32187 0.28278 -0.08100
C 	C 	0.46656 0.14615 0.28510 -0.06600
C 	C 	0.46573 0.11563 0.23872 0.02300
C 	C 	0.49472 0.12326 0.17984 -0.07500
C 	C 	0.52449 0.16264 0.16903 0.01900
C 	C 	0.52538 0.19312 0.21571 -0.06500
C 	C 	0.46697 0.14598 0.71231 -0.07600
C 	C 	0.46638 0.11545 0.75820 0.03700
C 	C 	0.49538 0.12298 0.81710 -0.12100
C 	C 	0.52488 0.16243 0.82853 0.03700
C 	C 	0.52553 0.19299 0.78224 -0.07600
C 	C 	0.52258 0.33161 0.78592 -0.07200
C 	C 	0.52118 0.36044 0.83441 0.03100
C 	C 	0.49202 0.37094 0.82281 -0.10800
C 	C 	0.46399 0.35077 0.76119 0.03500
C 	C 	0.46530 0.32171 0.71321 -0.07300
H 	H 	0.54756 0.32617 0.20179 0.05200
H 	H 	0.54541 0.37636 0.11763 0.04400
H 	H 	0.44129 0.35684 0.24551 0.03700
H 	H 	0.44360 0.30651 0.32780 0.05500
H 	H 	0.44355 0.13910 0.32910 0.05200
H 	H 	0.44214 0.08595 0.24896 0.04400
H 	H 	0.54740 0.17003 0.12463 0.05200
H 	H 	0.54883 0.22290 0.20582 0.04900
H 	H 	0.44395 0.13886 0.66830 0.05400
H 	H 	0.44295 0.08575 0.74740 0.04100
H 	H 	0.54777 0.16975 0.87298 0.04200
H 	H 	0.54880 0.22283 0.79252 0.04900
H 	H 	0.54564 0.32479 0.79665 0.04800
H 	H 	0.54347 0.37477 0.88055 0.04500
H 	H 	0.44079 0.35731 0.74970 0.04700
H 	H 	0.44293 0.30666 0.66752 0.05300
C 	C 	0.71889 0.21782 0.67576 -0.01900
C 	C 	0.75044 0.24926 0.71712 -0.03600
C 	C 	0.78227 0.28068 0.67624 -0.01900
C 	C 	0.78192 0.28077 0.58912 0.01400
C 	C 	0.75047 0.24952 0.54546 -0.00800
C 	C 	0.71880 0.21846 0.58887 0.01400
C 	C 	0.68703 0.18961 0.54397 -0.04100
C 	C 	0.68684 0.18979 0.45920 -0.04000
C 	C 	0.71837 0.21886 0.41431 0.01200
C 	C 	0.75025 0.24970 0.45782 -0.00600
C 	C 	0.81136 0.31203 0.54411 -0.04100
C 	C 	0.81121 0.31214 0.45915 -0.04000
C 	C 	0.78153 0.28106 0.41421 0.01200
C 	C 	0.78148 0.28127 0.32718 -0.01500
C 	C 	0.74947 0.25021 0.28620 -0.03800
C 	C 	0.71804 0.21870 0.32738 -0.01500
H 	H 	0.66130 0.16678 0.57392 0.04600
H 	H 	0.66104 0.16705 0.42923 0.04700
H 	H 	0.83468 0.33737 0.57413 0.04500
H 	H 	0.83445 0.33752 0.42904 0.04400
H 	H 	0.75075 0.24872 0.78285 0.04300
H 	H 	0.74955 0.24999 0.22043 0.04500
C 	C 	0.81445 0.31272 0.27632 0.03800
C 	C 	0.68611 0.18580 0.27714 0.03800
C 	C 	0.68701 0.18457 0.72550 0.04500
C 	C 	0.81540 0.31226 0.72712 0.04500
C 	C 	0.66556 0.19350 0.21644 -0.07100
C 	C 	0.63636 0.16299 0.16871 0.03400
C 	C 	0.62682 0.12363 0.17951 -0.10400
C 	C 	0.64790 0.11615 0.23949 0.03500
C 	C 	0.67709 0.14662 0.28688 -0.07200
C 	C 	0.85346 0.32099 0.28482 -0.07200
C 	C 	0.88385 0.34950 0.23611 0.03400
C 	C 	0.87641 0.37061 0.17612 -0.10600
C 	C 	0.83720 0.36179 0.16661 0.03200
C 	C 	0.80681 0.33326 0.21554 -0.07200
C 	C 	0.85462 0.32149 0.71673 -0.08300
C 	C 	0.88520 0.35042 0.76457 0.05500
C 	C 	0.87791 0.37117 0.82599 -0.15100
C 	C 	0.83835 0.36109 0.83766 0.05200
C 	C 	0.80780 0.33219 0.78939 -0.08200
C 	C 	0.66664 0.19192 0.78706 -0.08300
C 	C 	0.63699 0.16108 0.83330 0.05300
C 	C 	0.62657 0.12151 0.82004 -0.15400
C 	C 	0.64764 0.11444 0.75916 0.05300
C 	C 	0.67740 0.14532 0.71349 -0.08300
H 	H 	0.67190 0.22328 0.20636 0.05000
H 	H 	0.62104 0.17028 0.12360 0.04700
H 	H 	0.64192 0.08653 0.25000 0.04800
H 	H 	0.69279 0.13952 0.33144 0.05400
H 	H 	0.86047 0.30522 0.32937 0.05400
H 	H 	0.91338 0.35506 0.24581 0.04900
H 	H 	0.82995 0.37724 0.12174 0.04600
H 	H 	0.77715 0.32747 0.20635 0.05000
H 	H 	0.86171 0.30622 0.67114 0.05500
H 	H 	0.91479 0.35655 0.75278 0.03400
H 	H 	0.83081 0.37586 0.88362 0.03900
H 	H 	0.77802 0.32568 0.80023 0.05100
H 	H 	0.67339 0.22170 0.79886 0.05100
H 	H 	0.62201 0.16842 0.87912 0.03900
H 	H 	0.64130 0.08486 0.74646 0.03700
H 	H 	0.69296 0.13846 0.66814 0.05600
O 	O 	1.05554 0.46858 -0.15169 -0.63100
O 	O 	1.09945 0.52105 -0.07538 -0.60300
C 	C 	1.09137 0.49528 -0.13305 0.48300
O 	O 	0.94566 0.53420 -0.14619 -0.63600
O 	O 	0.90158 0.48080 -0.07237 -0.60500
C 	C 	0.90980 0.50748 -0.12810 0.47500
O 	O 	1.05571 0.58648 -0.15136 -0.61400
O 	O 	1.09955 0.57784 -0.07515 -0.60200
C 	C 	1.09151 0.59554 -0.13281 0.47900
O 	O 	0.94532 0.41096 -0.14657 -0.63000
O 	O 	0.90141 0.42057 -0.07266 -0.60200
C 	C 	0.90946 0.40193 -0.12835 0.47700
Zr	Zr	1.00044 0.45714 -0.10316 3.21500
O 	O 	0.99967 0.45964 -0.23140 -0.57300
O 	O 	1.00136 0.40402 -0.09501 -0.57500
Zr	Zr	1.00062 0.54280 -0.10312 3.21500
O 	O 	0.99968 0.53849 -0.23107 -0.57100
O 	O 	1.00359 0.59796 -0.10374 -0.60300
O 	O 	1.03573 0.51755 -0.11832 -1.31400
O 	O 	0.96605 0.48281 -0.11735 -1.61900
O 	O 	0.94535 0.41168 0.14572 -0.61900
O 	O 	0.90138 0.42084 0.07091 -0.59800
C 	C 	0.90958 0.40262 0.12710 0.44200
O 	O 	1.05554 0.58616 0.14994 -0.63600
O 	O 	1.09951 0.57765 0.07407 -0.60400
C 	C 	1.09136 0.59519 0.13185 0.46700
O 	O 	0.94565 0.53383 0.14515 -0.62000
O 	O 	0.90154 0.48053 0.07119 -0.60100
C 	C 	0.90978 0.50709 0.12723 0.45900
O 	O 	1.05527 0.46928 0.15126 -0.62200
O 	O 	1.09936 0.52123 0.07426 -0.60500
C 	C 	1.09114 0.49582 0.13264 0.46400
Zr	Zr	1.00036 0.45676 0.09992 3.21400
O 	O 	0.99981 0.45029 0.22731 -0.58100
O 	O 	1.00093 0.40397 0.08168 -0.57900
Zr	Zr	1.00048 0.54295 0.10052 3.21500
O 	O 	0.99787 0.54440 0.22863 -0.60200
O 	O 	1.00174 0.59694 0.08793 -0.60300
Zr	Zr	1.05999 0.52969 -0.00073 3.19500
Zr	Zr	0.94076 0.47023 -0.00093 3.19500
O 	O 	0.96642 0.48292 0.11533 -1.62900
O 	O 	1.03520 0.51721 0.11662 -1.34400
O 	O 	0.96460 0.43264 -0.00157 -1.31100
O 	O 	1.03539 0.56638 -0.00108 -1.62200
O 	O 	1.03546 0.46845 -0.00139 -1.61700
O 	O 	0.96489 0.53166 -0.00122 -1.33200
H 	H 	0.94891 0.47425 -0.16583 0.39900
H 	H 	1.05347 0.59511 -0.00108 0.39400
H 	H 	0.94952 0.47461 0.16415 0.37700
H 	H 	1.05367 0.45795 -0.00122 0.39600
H 	H 	0.98368 0.59630 -0.06483 0.21700
H 	H 	1.00230 0.60643 0.14384 0.19500
H 	H 	1.01539 0.53525 0.25004 0.18800
H 	H 	0.99415 0.46999 0.25082 0.16600
H 	H 	1.00240 0.39451 0.13654 0.19200
H 	H 	1.00217 0.39571 -0.15133 0.17800
H 	H 	0.99916 0.43577 -0.25203 0.18000
H 	H 	0.99951 0.56200 -0.25198 0.19500
O 	O 	0.41391 0.46923 0.15118 -0.62800
O 	O 	0.42279 0.52186 0.07493 -0.60100
C 	C 	0.40502 0.49604 0.13229 0.45200
O 	O 	0.58947 0.53442 0.14649 -0.63300
O 	O 	0.57986 0.48098 0.07242 -0.60200
C 	C 	0.59845 0.50768 0.12788 0.44500
O 	O 	0.53207 0.58684 0.15203 -0.61200
O 	O 	0.47981 0.57848 0.07541 -0.60300
C 	C 	0.50544 0.59591 0.13315 0.45200
O 	O 	0.46593 0.41134 0.14589 -0.63500
O 	O 	0.51963 0.42095 0.07277 -0.60500
C 	C 	0.49274 0.40229 0.12804 0.47000
Zr	Zr	0.45746 0.45768 0.10258 3.21400
O 	O 	0.46035 0.45974 0.23087 -0.57400
O 	O 	0.40332 0.40472 0.09332 -0.57700
Zr	Zr	0.54326 0.54322 0.10322 3.21500
O 	O 	0.53987 0.53879 0.23117 -0.57300
O 	O 	0.59549 0.59834 0.10377 -0.60500
O 	O 	0.48289 0.51810 0.11839 -1.31600
O 	O 	0.51751 0.48319 0.11733 -1.62000
O 	O 	0.46554 0.41143 -0.14704 -0.59200
O 	O 	0.52108 0.41977 -0.06831 -0.53200
C 	C 	0.49170 0.40139 -0.13005 0.37400
O 	O 	0.53139 0.58613 -0.15128 -0.62200
O 	O 	0.47944 0.57815 -0.07435 -0.61100
C 	C 	0.50491 0.59549 -0.13247 0.47700
O 	O 	0.58869 0.53367 -0.14621 -0.62600
O 	O 	0.57970 0.48077 -0.07097 -0.60400
C 	C 	0.59790 0.50713 -0.12727 0.45100
O 	O 	0.41374 0.46870 -0.15134 -0.60800
O 	O 	0.42189 0.52377 -0.07123 -0.53200
C 	C 	0.40407 0.49518 -0.13449 0.37600
Zr	Zr	0.45728 0.45746 -0.10072 3.21400
O 	O 	0.45588 0.45373 -0.22887 -0.59900
O 	O 	0.40356 0.40470 -0.08521 -0.57800
Zr	Zr	0.54347 0.54338 -0.10058 3.21400
O 	O 	0.54858 0.54860 -0.22833 -0.57900
O 	O 	0.59637 0.59692 -0.08495 -0.60300
Zr	Zr	0.47096 0.53041 0.00092 3.19300
Zr	Zr	0.53023 0.47065 0.00101 3.19300
O 	O 	0.51733 0.48312 -0.11538 -1.63400
O 	O 	0.48292 0.51792 -0.11668 -1.34800
O 	O 	0.46884 0.43321 0.00075 -1.31500
O 	O 	0.53223 0.56698 0.00118 -1.62200
O 	O 	0.43399 0.46927 0.00066 -1.62200
O 	O 	0.56777 0.53205 0.00125 -1.33100
H 	H 	0.52600 0.47454 0.16582 0.39900
H 	H 	0.54286 0.59571 0.00108 0.39400
H 	H 	0.52569 0.47415 -0.16351 0.37600
H 	H 	0.40532 0.45894 0.00041 0.39700
H 	H 	0.61415 0.59634 0.06661 0.21900
H 	H 	0.60561 0.60721 -0.14029 0.19800
H 	H 	0.53228 0.52205 -0.25113 0.16700
H 	H 	0.46608 0.48064 -0.24989 0.19000
H 	H 	0.39324 0.39553 -0.14057 0.19300
H 	H 	0.39392 0.39629 0.14946 0.17600
H 	H 	0.43682 0.43591 0.25110 0.17800
H 	H 	0.56362 0.56220 0.25219 0.19300
O 	O 	0.46782 0.05457 0.14841 -0.60300
O 	O 	0.52269 0.10150 0.06714 -0.52700
C 	C 	0.49416 0.09060 0.13060 0.35900
O 	O 	0.53335 -0.05512 0.14513 -0.63100
O 	O 	0.48021 -0.09927 0.07057 -0.59900
C 	C 	0.50669 -0.09092 0.12672 0.44500
O 	O 	0.58571 0.05470 0.14975 -0.61100
O 	O 	0.57752 0.09846 0.07217 -0.60000
C 	C 	0.59484 0.09039 0.13054 0.44800
O 	O 	0.41056 -0.05524 0.14274 -0.62700
O 	O 	0.42015 -0.09932 0.06927 -0.59800
C 	C 	0.40161 -0.09105 0.12464 0.44900
Zr	Zr	0.45681 -0.00021 0.09908 3.21400
O 	O 	0.45899 -0.00078 0.22739 -0.57400
O 	O 	0.40380 0.00084 0.08913 -0.57700
Zr	Zr	0.54220 -0.00023 0.10109 3.21500
O 	O 	0.53722 -0.00085 0.22890 -0.57400
O 	O 	0.59726 0.00256 0.10344 -0.60500
O 	O 	0.51714 0.03520 0.11452 -1.32000
O 	O 	0.48221 -0.03471 0.11452 -1.62100
O 	O 	0.41147 -0.05584 -0.14881 -0.61500
O 	O 	0.42075 -0.09967 -0.07406 -0.60100
C 	C 	0.40236 -0.09166 -0.13031 0.47200
O 	O 	0.58673 0.05406 -0.15264 -0.63700
O 	O 	0.57799 0.09809 -0.07776 -0.61400
C 	C 	0.59583 0.08992 -0.13468 0.47900
O 	O 	0.53382 -0.05600 -0.14603 -0.62000
O 	O 	0.48019 -0.09970 -0.07239 -0.60500
C 	C 	0.50692 -0.09175 -0.12776 0.47400
O 	O 	0.46864 0.05401 -0.15459 -0.63100
O 	O 	0.52029 0.09812 -0.07693 -0.60500
C 	C 	0.49482 0.08981 -0.13512 0.45500
Zr	Zr	0.45698 -0.00077 -0.10419 3.21400
O 	O 	0.45144 -0.00376 -0.23198 -0.59300
O 	O 	0.40422 0.00022 -0.08899 -0.57700
Zr	Zr	0.54313 -0.00085 -0.10293 3.21400
O 	O 	0.54529 -0.00427 -0.23077 -0.59600
O 	O 	0.59697 0.00028 -0.08848 -0.60300
Zr	Zr	0.52980 0.05894 -0.00349 3.19300
Zr	Zr	0.46998 -0.06015 -0.00178 3.19500
O 	O 	0.48309 -0.03477 -0.11836 -1.62900
O 	O 	0.51760 0.03404 -0.12063 -1.34800
O 	O 	0.43251 -0.03623 -0.00239 -1.31200
O 	O 	0.56633 0.03421 -0.00139 -1.62200
O 	O 	0.46858 0.03455 -0.00296 -1.62100
O 	O 	0.53140 -0.03616 -0.00044 -1.33000
H 	H 	0.47352 -0.05173 0.16320 0.39900
H 	H 	0.59506 0.05227 -0.00092 0.39400
H 	H 	0.47479 -0.05165 -0.16724 0.38500
H 	H 	0.45805 0.05272 -0.00298 0.39800
H 	H 	0.59580 -0.01728 0.06458 0.21700
H 	H 	0.60664 0.00048 -0.14407 0.19700
H 	H 	0.53613 0.01297 -0.25351 0.18600
H 	H 	0.47825 0.01105 -0.25439 0.18300
H 	H 	0.39479 0.00071 -0.14445 0.19400
H 	H 	0.39499 0.00127 0.14519 0.17600
H 	H 	0.43482 -0.00176 0.24762 0.17700
H 	H 	0.56043 -0.00133 0.25070 0.19300
