data_crystal

_cell_length_a 14.71620
_cell_length_b 14.71600
_cell_length_c 14.71600
_cell_angle_alpha 109.47100
_cell_angle_beta  109.47100
_cell_angle_gamma 109.47100

_symmetry_space_group_name_	'P 1'
_symmetry_space_group_name_H-M	'P 1'

loop_
_symmetry_equiv_pos_as_xyz
  x,y,z

loop_
_atom_site_label
_atom_site_type_symbol
_atom_site_fract_x
_atom_site_fract_y
_atom_site_fract_z
_atom_site_charge
Zn	Zn	0.25000 0.50000 0.75000 1.17300
Zn	Zn	0.75000 0.50000 0.25000 1.17300
Zn	Zn	0.75000 0.25000 0.50000 1.17300
Zn	Zn	0.50000 0.75000 0.25000 1.17300
Zn	Zn	0.25000 0.75000 0.50000 1.17300
Zn	Zn	0.50000 0.25000 0.75000 1.17300
H 	H 	0.71700 0.48640 0.95780 0.05900
H 	H 	0.41770 0.51880 0.65430 -0.00600
H 	H 	0.49450 0.46150 0.11560 0.11000
H 	H 	0.53850 0.03300 0.65410 0.10600
H 	H 	0.13550 0.89890 0.48120 0.01100
H 	H 	0.37890 0.34590 0.88440 0.10200
H 	H 	0.34360 0.81990 0.26850 0.08100
H 	H 	0.41770 0.65430 0.51880 -0.00500
H 	H 	0.73150 0.07510 0.55140 0.05100
H 	H 	0.65430 0.41770 0.51880 -0.00500
H 	H 	0.03300 0.53850 0.65410 0.10600
H 	H 	0.53850 0.65410 0.03300 0.10600
H 	H 	0.04220 0.52860 0.75920 0.09500
H 	H 	0.51360 0.47140 0.23060 0.10300
H 	H 	0.44860 0.52370 0.18010 0.08600
H 	H 	0.26850 0.81990 0.34360 0.08100
H 	H 	0.81990 0.34360 0.26850 0.08100
H 	H 	0.11560 0.49450 0.46150 0.11100
H 	H 	0.47140 0.51360 0.23060 0.10300
H 	H 	0.88440 0.34590 0.37890 0.10200
H 	H 	0.24080 0.28300 0.76940 0.10100
H 	H 	0.48120 0.13550 0.89890 0.01100
H 	H 	0.47140 0.23060 0.51360 0.10300
H 	H 	0.07510 0.73150 0.55140 0.05100
H 	H 	0.76340 0.86450 0.34570 -0.00900
H 	H 	0.04220 0.75920 0.52860 0.09500
H 	H 	0.89890 0.13550 0.48120 0.01100
H 	H 	0.76940 0.28300 0.24080 0.10100
H 	H 	0.34570 0.86450 0.76340 -0.00900
H 	H 	0.48640 0.95780 0.71700 0.06000
H 	H 	0.50550 0.62110 0.96700 0.05800
H 	H 	0.52370 0.44860 0.18010 0.08600
H 	H 	0.81990 0.26850 0.34360 0.08100
H 	H 	0.18010 0.44860 0.52370 0.08600
H 	H 	0.89890 0.48120 0.13550 0.01100
H 	H 	0.92490 0.65640 0.47630 0.06700
H 	H 	0.65410 0.53850 0.03300 0.10600
H 	H 	0.26850 0.34360 0.81990 0.08100
H 	H 	0.73150 0.55140 0.07510 0.05100
H 	H 	0.75920 0.04220 0.52860 0.09500
H 	H 	0.24080 0.76940 0.28300 0.10100
H 	H 	0.34360 0.26850 0.81990 0.08100
H 	H 	0.65640 0.92490 0.47630 0.06700
H 	H 	0.48640 0.71700 0.95780 0.06000
H 	H 	0.55140 0.07510 0.73150 0.05100
H 	H 	0.47630 0.65640 0.92490 0.06700
H 	H 	0.65410 0.03300 0.53850 0.10600
H 	H 	0.95780 0.71700 0.48640 0.06000
H 	H 	0.44860 0.18010 0.52370 0.08600
H 	H 	0.10110 0.58230 0.23660 -0.01200
H 	H 	0.23660 0.58230 0.10110 -0.01200
H 	H 	0.75920 0.52860 0.04220 0.09500
H 	H 	0.95780 0.48640 0.71700 0.06000
H 	H 	0.28300 0.24080 0.76940 0.10100
H 	H 	0.34570 0.76340 0.86450 -0.00900
H 	H 	0.51880 0.65430 0.41770 -0.00500
H 	H 	0.65640 0.47630 0.92490 0.06700
H 	H 	0.23660 0.10110 0.58230 -0.01200
H 	H 	0.34590 0.37890 0.88440 0.10200
H 	H 	0.65430 0.51880 0.41770 -0.00500
H 	H 	0.52860 0.75920 0.04220 0.09500
H 	H 	0.10110 0.23660 0.58230 -0.01200
H 	H 	0.52860 0.04220 0.75920 0.09500
H 	H 	0.96700 0.62110 0.50550 0.05800
H 	H 	0.46150 0.11560 0.49450 0.11100
H 	H 	0.71700 0.95780 0.48640 0.06000
H 	H 	0.50550 0.96700 0.62110 0.05800
H 	H 	0.86450 0.76340 0.34570 -0.00900
H 	H 	0.13550 0.48120 0.89890 0.01100
H 	H 	0.34590 0.88440 0.37890 0.10200
H 	H 	0.23060 0.47140 0.51360 0.10300
H 	H 	0.58230 0.10110 0.23660 -0.01200
H 	H 	0.48120 0.89890 0.13550 0.01100
H 	H 	0.62110 0.50550 0.96700 0.05800
H 	H 	0.47630 0.92490 0.65640 0.06700
H 	H 	0.88440 0.37890 0.34590 0.10200
H 	H 	0.76340 0.34570 0.86450 -0.00900
H 	H 	0.86450 0.34570 0.76340 -0.00900
H 	H 	0.52370 0.18010 0.44860 0.08600
H 	H 	0.07510 0.55140 0.73150 0.05100
H 	H 	0.92490 0.47630 0.65640 0.06700
H 	H 	0.28300 0.76940 0.24080 0.10100
H 	H 	0.51880 0.41770 0.65430 -0.00500
H 	H 	0.62110 0.96700 0.50550 0.05800
H 	H 	0.18010 0.52370 0.44860 0.08600
H 	H 	0.03300 0.65410 0.53850 0.10600
H 	H 	0.11560 0.46150 0.49450 0.11100
H 	H 	0.46150 0.49450 0.11560 0.11100
H 	H 	0.55140 0.73150 0.07510 0.05100
H 	H 	0.49450 0.11560 0.46150 0.11100
H 	H 	0.37890 0.88440 0.34590 0.10200
H 	H 	0.23060 0.51360 0.47140 0.10300
H 	H 	0.96700 0.50550 0.62110 0.05800
H 	H 	0.51360 0.23060 0.47140 0.10300
H 	H 	0.58230 0.23660 0.10110 -0.01200
H 	H 	0.76940 0.24080 0.28300 0.10100
C 	C 	0.62769 0.62769 0.24946 0.25200
C 	C 	0.78917 0.73091 0.31512 -0.02500
C 	C 	0.24946 0.62769 0.62769 0.25200
C 	C 	0.37823 0.75054 0.37823 0.24700
C 	C 	0.68488 0.47405 0.41579 -0.02500
C 	C 	0.26909 0.58421 0.05826 0.01400
C 	C 	0.48643 0.67531 -0.00000 -0.55800
C 	C 	0.81112 0.32469 0.32469 -0.68400
C 	C 	-0.00000 0.62177 0.37231 0.24000
C 	C 	0.52595 0.21083 0.94174 -0.06300
C 	C 	0.94174 0.52595 0.21083 -0.06300
C 	C 	0.47405 0.68488 0.41579 -0.02500
C 	C 	0.37231 0.62177 -0.00000 0.24000
C 	C 	0.18888 0.51357 0.51357 -0.70600
C 	C 	0.58421 0.05826 0.26909 0.01400
C 	C 	0.68488 0.41579 0.47405 -0.02500
C 	C 	0.51357 0.51357 0.18888 -0.70600
C 	C 	0.48643 0.00000 0.67531 -0.55800
C 	C 	-0.00000 0.37231 0.62177 0.24000
C 	C 	0.58421 0.26909 0.05826 0.01400
C 	C 	0.62177 -0.00000 0.37231 0.24000
C 	C 	0.67531 0.00000 0.48643 -0.55800
C 	C 	0.26909 0.05826 0.58421 0.01400
C 	C 	0.32469 0.32469 0.81112 -0.68400
C 	C 	0.94174 0.21083 0.52595 -0.06300
C 	C 	0.41579 0.68488 0.47405 -0.02500
C 	C 	0.67531 0.48643 -0.00000 -0.55800
C 	C 	0.51357 0.18888 0.51357 -0.70600
C 	C 	0.31512 0.73091 0.78917 -0.02500
C 	C 	0.37231 0.00000 0.62177 0.24000
C 	C 	0.21083 0.94174 0.52595 -0.06300
C 	C 	0.62769 0.24946 0.62769 0.25200
C 	C 	0.05826 0.58421 0.26909 0.01400
C 	C 	0.52595 0.94174 0.21083 -0.06300
C 	C 	0.41579 0.47405 0.68488 -0.02500
C 	C 	0.47405 0.41579 0.68488 -0.02500
C 	C 	0.75054 0.37823 0.37823 0.24700
C 	C 	0.78917 0.31512 0.73091 -0.02500
C 	C 	0.21083 0.52595 0.94174 -0.06300
C 	C 	0.05826 0.26909 0.58421 0.01400
C 	C 	0.32469 0.81112 0.32469 -0.68400
C 	C 	0.73091 0.31512 0.78917 -0.02500
C 	C 	-0.00000 0.67531 0.48643 -0.55800
C 	C 	0.62177 0.37231 -0.00000 0.24000
C 	C 	-0.00000 0.48643 0.67531 -0.55800
C 	C 	0.37823 0.37823 0.75054 0.24700
C 	C 	0.31512 0.78917 0.73091 -0.02500
C 	C 	0.73091 0.78917 0.31512 -0.02500
N 	N 	0.28205 0.90639 0.55926 -0.32800
N 	N 	0.62434 0.71795 0.27721 -0.32900
N 	N 	0.27721 0.71795 0.62434 -0.32900
N 	N 	0.27721 0.62434 0.71795 -0.32900
N 	N 	0.65287 0.37566 0.09361 -0.33100
N 	N 	0.37566 0.09361 0.65287 -0.33100
N 	N 	0.71795 0.62434 0.27721 -0.32900
N 	N 	0.34713 0.44074 0.72279 -0.32800
N 	N 	0.65287 0.09361 0.37566 -0.33100
N 	N 	0.72279 0.44074 0.34713 -0.32800
N 	N 	0.09361 0.65287 0.37566 -0.33100
N 	N 	0.62434 0.27721 0.71795 -0.32900
N 	N 	0.90639 0.55926 0.28205 -0.32800
N 	N 	0.34713 0.72279 0.44074 -0.32800
N 	N 	0.28205 0.55926 0.90639 -0.32800
N 	N 	0.55926 0.28205 0.90639 -0.32800
N 	N 	0.44074 0.34713 0.72279 -0.32800
N 	N 	0.09361 0.37566 0.65287 -0.33100
N 	N 	0.90639 0.28205 0.55926 -0.32800
N 	N 	0.55926 0.90639 0.28205 -0.32800
N 	N 	0.37566 0.65287 0.09361 -0.33100
N 	N 	0.44074 0.72279 0.34713 -0.32800
N 	N 	0.71795 0.27721 0.62434 -0.32900
N 	N 	0.72279 0.34713 0.44074 -0.32800
