data_crystal

_cell_length_a 24.97780
_cell_length_b 24.97780
_cell_length_c 24.97780
_cell_angle_alpha 60.00000
_cell_angle_beta  60.00000
_cell_angle_gamma 60.00000

_symmetry_space_group_name_	'P 1'
_symmetry_space_group_name_H-M	'P 1'

loop_
_symmetry_equiv_pos_as_xyz
  x,y,z

loop_
_atom_site_label
_atom_site_type_symbol
_atom_site_fract_x
_atom_site_fract_y
_atom_site_fract_z
_atom_site_charge
Zr	Zr	0.88373 0.52235 0.52235 3.25100
Zr	Zr	0.97765 0.47765 0.92843 3.25200
Zr	Zr	0.02235 0.07157 0.38373 3.24600
Zr	Zr	0.42843 0.47765 0.61627 3.25000
Zr	Zr	0.42843 0.61627 0.47765 3.25000
Zr	Zr	0.42843 0.47765 0.47765 3.25000
Zr	Zr	0.02235 0.38373 0.07157 3.24600
Zr	Zr	0.97765 0.47765 0.61627 3.25300
Zr	Zr	0.88373 0.52235 0.07157 3.25100
Zr	Zr	0.57157 0.38373 0.52235 3.25000
Zr	Zr	0.97765 0.61627 0.92843 3.25200
Zr	Zr	0.88373 0.07157 0.52235 3.25100
Zr	Zr	0.97765 0.61627 0.47765 3.25300
Zr	Zr	0.02235 0.52235 0.07157 3.24600
Zr	Zr	0.02235 0.52235 0.38373 3.24800
Zr	Zr	0.57157 0.52235 0.38373 3.25000
Zr	Zr	0.97765 0.92843 0.61627 3.25200
Zr	Zr	0.11627 0.47765 0.47765 3.25000
Zr	Zr	0.11627 0.92843 0.47765 3.25000
Zr	Zr	0.11627 0.47765 0.92843 3.25000
Zr	Zr	0.57157 0.52235 0.52235 3.25000
Zr	Zr	0.02235 0.07157 0.52235 3.24600
Zr	Zr	0.02235 0.38373 0.52235 3.24800
Zr	Zr	0.97765 0.92843 0.47765 3.25200
H 	H 	0.07540 0.74100 0.44260 0.02700
H 	H 	0.92460 0.25900 0.25900 0.03800
H 	H 	0.75900 0.25900 0.55740 0.03000
H 	H 	0.92460 0.55740 0.25900 0.03600
H 	H 	0.94260 0.57540 0.74100 0.03200
H 	H 	0.05740 0.25900 0.25900 0.02500
H 	H 	0.07540 0.44260 0.74100 0.02700
H 	H 	0.94260 0.74100 0.74100 0.03100
H 	H 	0.92460 0.25900 0.55740 0.03600
H 	H 	0.07540 0.74100 0.74100 0.02900
H 	H 	0.24100 0.44260 0.74100 0.02900
H 	H 	0.24100 0.44260 0.57540 0.02900
H 	H 	0.24100 0.74100 0.44260 0.02900
H 	H 	0.24100 0.74100 0.57540 0.02900
H 	H 	0.05740 0.25900 0.42460 0.02600
H 	H 	0.94260 0.74100 0.57540 0.03200
H 	H 	0.75900 0.55740 0.42460 0.03000
H 	H 	0.24100 0.57540 0.44260 0.02900
H 	H 	0.05740 0.42460 0.25900 0.02600
H 	H 	0.24100 0.57540 0.74100 0.02900
H 	H 	0.75900 0.42460 0.25900 0.03000
H 	H 	0.75900 0.25900 0.42460 0.03000
H 	H 	0.75900 0.42460 0.55740 0.03000
H 	H 	0.75900 0.55740 0.25900 0.03000
C 	C 	0.94210 0.65372 0.65372 -0.20100
C 	C 	0.15372 0.75046 0.44210 -0.20700
C 	C 	0.21812 0.62126 0.71812 0.10500
C 	C 	0.21812 0.71812 0.44250 0.10500
C 	C 	0.84628 0.24954 0.55790 -0.20000
C 	C 	0.68276 0.55280 0.38222 0.43000
C 	C 	0.94250 0.71812 0.71812 0.10500
C 	C 	0.31724 0.44720 0.61778 0.43100
C 	C 	0.05750 0.28188 0.37874 0.10500
C 	C 	0.78188 0.37874 0.28188 0.10200
C 	C 	0.84628 0.24954 0.34628 -0.19900
C 	C 	0.11778 0.44720 0.61778 0.43100
C 	C 	0.87874 0.28188 0.55750 0.10200
C 	C 	0.88222 0.55280 0.18276 0.42700
C 	C 	0.84628 0.34628 0.55790 -0.20000
C 	C 	0.11778 0.81724 0.61778 0.43100
C 	C 	0.21812 0.44250 0.62126 0.10500
C 	C 	0.25046 0.65372 0.65372 -0.20500
C 	C 	0.94250 0.71812 0.62126 0.10400
C 	C 	0.05280 0.38222 0.38222 0.43100
C 	C 	0.15372 0.65372 0.44210 -0.20700
C 	C 	0.15372 0.44210 0.65372 -0.20700
C 	C 	0.05750 0.37874 0.28188 0.10500
C 	C 	0.31724 0.61778 0.44720 0.43100
C 	C 	0.78188 0.37874 0.55750 0.10300
C 	C 	0.05280 0.18276 0.38222 0.43000
C 	C 	0.84628 0.34628 0.24954 -0.19900
C 	C 	0.78188 0.55750 0.28188 0.10200
C 	C 	0.21812 0.71812 0.62126 0.10500
C 	C 	0.15372 0.75046 0.65372 -0.20500
C 	C 	0.78188 0.55750 0.37874 0.10300
C 	C 	0.11778 0.61778 0.81724 0.43100
C 	C 	0.05790 0.34628 0.24954 -0.21000
C 	C 	0.74954 0.34628 0.34628 -0.20300
C 	C 	0.11778 0.61778 0.44720 0.43100
C 	C 	0.78188 0.28188 0.37874 0.10200
C 	C 	0.94210 0.65372 0.75046 -0.20200
C 	C 	0.21812 0.62126 0.44250 0.10500
C 	C 	0.11778 0.81724 0.44720 0.43200
C 	C 	0.88222 0.38222 0.18276 0.42600
C 	C 	0.88222 0.18276 0.55280 0.42700
C 	C 	0.88222 0.38222 0.55280 0.42900
C 	C 	0.15372 0.65372 0.75046 -0.20500
C 	C 	0.05280 0.38222 0.18276 0.43000
C 	C 	0.84628 0.55790 0.24954 -0.20000
C 	C 	0.94720 0.61778 0.61778 0.43000
C 	C 	0.21812 0.44250 0.71812 0.10500
C 	C 	0.84628 0.55790 0.34628 -0.20000
C 	C 	0.94250 0.62126 0.71812 0.10400
C 	C 	0.15372 0.44210 0.75046 -0.20700
C 	C 	0.94720 0.81724 0.61778 0.43100
C 	C 	0.74954 0.55790 0.34628 -0.20300
C 	C 	0.94210 0.75046 0.65372 -0.20200
C 	C 	0.12126 0.44250 0.71812 0.10500
C 	C 	0.11778 0.44720 0.81724 0.43200
C 	C 	0.05790 0.24954 0.34628 -0.21000
C 	C 	0.25046 0.65372 0.44210 -0.20600
C 	C 	0.25046 0.44210 0.65372 -0.20600
C 	C 	0.78188 0.28188 0.55750 0.10200
C 	C 	0.05790 0.34628 0.34628 -0.21000
C 	C 	0.12126 0.71812 0.44250 0.10500
C 	C 	0.05750 0.28188 0.28188 0.10400
C 	C 	0.68276 0.38222 0.38222 0.43000
C 	C 	0.68276 0.38222 0.55280 0.43000
C 	C 	0.94720 0.61778 0.81724 0.43100
C 	C 	0.31724 0.61778 0.61778 0.43100
C 	C 	0.12126 0.71812 0.71812 0.10500
C 	C 	0.88222 0.18276 0.38222 0.42600
C 	C 	0.87874 0.28188 0.28188 0.10100
C 	C 	0.88222 0.55280 0.38222 0.42900
C 	C 	0.87874 0.55750 0.28188 0.10200
C 	C 	0.74954 0.34628 0.55790 -0.20300
S 	S 	0.18980 0.31020 -0.00000 0.20300
S 	S 	0.55070 0.25710 0.59610 0.31400
S 	S 	0.81020 0.68980 0.50000 0.24000
S 	S 	0.81020 0.50000 0.68980 0.24000
S 	S 	0.09610 0.05070 0.25710 0.28400
S 	S 	0.90390 0.94930 0.74290 0.33000
S 	S 	0.90390 0.74290 0.40390 0.31600
S 	S 	0.75710 0.05070 0.59610 0.30000
S 	S 	0.24290 0.94930 0.40390 0.34800
S 	S 	0.50000 0.68980 0.31020 0.24000
S 	S 	0.00000 0.00000 0.31020 0.17200
S 	S 	0.90390 0.40390 0.74290 0.31600
S 	S 	0.50000 0.50000 0.31020 0.23800
S 	S 	0.81020 0.00000 0.50000 0.22000
S 	S 	0.90390 0.94930 0.40390 0.33300
S 	S 	0.18980 0.50000 0.31020 0.24000
S 	S 	0.81020 0.00000 0.68980 0.22300
S 	S 	0.81020 0.68980 -0.00000 0.22300
S 	S 	-0.00000 0.31020 -0.00000 0.17200
S 	S 	0.18980 0.50000 -0.00000 0.20500
S 	S 	0.50000 0.31020 0.68980 0.24000
S 	S 	0.44930 0.74290 0.40390 0.31400
S 	S 	-0.00000 0.68980 0.31020 0.22100
S 	S 	0.18980 0.00000 0.31020 0.20300
S 	S 	0.18980 0.00000 0.50000 0.20500
S 	S 	0.75710 0.59610 0.05070 0.30000
S 	S 	0.50000 0.31020 0.50000 0.23800
S 	S 	0.44930 0.40390 0.74290 0.31400
S 	S 	0.55070 0.59610 0.59610 0.31500
S 	S 	0.90390 0.40390 0.94930 0.33300
S 	S 	0.24290 0.40390 0.94930 0.34800
S 	S 	0.75710 0.59610 0.59610 0.31300
S 	S 	0.18980 0.31020 0.50000 0.24000
S 	S 	0.09610 0.25710 0.59610 0.31400
S 	S 	0.50000 0.50000 0.68980 0.24200
S 	S 	0.00000 0.00000 0.68980 0.18800
S 	S 	0.09610 0.59610 0.25710 0.31400
S 	S 	0.50000 0.68980 0.50000 0.24200
S 	S 	0.09610 0.59610 0.05070 0.28700
S 	S 	0.44930 0.40390 0.40390 0.31400
S 	S 	0.09610 0.25710 0.05070 0.28400
S 	S 	0.81020 0.50000 -0.00000 0.22000
S 	S 	0.24290 0.40390 0.40390 0.31500
S 	S 	0.55070 0.59610 0.25710 0.31400
S 	S 	0.09610 0.05070 0.59610 0.28700
S 	S 	-0.00000 0.31020 0.68980 0.22100
S 	S 	0.90390 0.74290 0.94930 0.33000
S 	S 	-0.00000 0.68980 -0.00000 0.18800
O 	O 	0.89540 0.32200 0.71020 -0.04500
O 	O 	0.21020 0.39540 0.07240 -0.05100
O 	O 	0.78980 0.60460 0.67800 -0.05300
O 	O 	0.87900 0.94420 0.69680 -0.20600
O 	O 	0.82200 0.39540 0.71020 -0.05300
O 	O 	0.06570 0.56570 0.40490 -0.33300
O 	O 	0.05160 0.97100 0.42580 -0.43200
O 	O 	0.10460 0.28980 0.92760 -0.04500
O 	O 	0.42760 0.28980 0.67800 -0.05300
O 	O 	0.41110 0.80830 0.39030 -0.14500
O 	O 	0.76320 0.63160 0.63160 -0.11700
O 	O 	0.11780 0.29960 0.06720 -0.26300
O 	O 	0.79960 0.61780 0.06720 -0.26600
O 	O 	0.88220 0.70040 0.48460 -0.26800
O 	O 	0.78980 0.67800 0.92760 -0.04900
O 	O 	0.23680 0.36840 0.02640 -0.13500
O 	O 	0.79960 0.06720 0.51540 -0.26600
O 	O 	0.10460 0.67800 0.92760 -0.04200
O 	O 	0.05861 0.84293 0.44975 -0.81000
O 	O 	0.90490 0.96370 0.56570 -0.24800
O 	O 	0.01540 0.06720 0.29960 -0.26100
O 	O 	0.65707 0.55025 0.35129 -0.80700
O 	O 	0.38810 0.53730 0.53730 8.30900
O 	O 	0.53630 0.59510 0.43430 -0.29700
O 	O 	0.47100 0.55160 0.42580 -0.48600
O 	O 	0.47100 0.42580 0.55160 -0.48600
O 	O 	0.53630 0.43430 0.43430 -0.29900
O 	O 	0.55580 0.30320 0.52000 -0.20600
O 	O 	0.94139 0.35129 0.15707 -0.79400
O 	O 	0.53630 0.43430 0.59510 -0.29700
O 	O 	0.87900 0.94420 0.48000 -0.20600
O 	O 	0.10970 0.08890 0.19170 -0.15300
O 	O 	0.42760 0.67800 0.60460 -0.05100
O 	O 	0.86840 0.02640 0.36840 -0.12400
O 	O 	0.79960 0.06720 0.61780 -0.26600
O 	O 	0.94975 0.55861 0.64871 -0.80300
O 	O 	0.79960 0.51540 0.61780 -0.26800
O 	O 	0.01540 0.29960 0.61780 -0.26500
O 	O 	0.86840 0.36840 0.73680 -0.11600
O 	O 	0.47360 0.63160 0.26320 -0.11700
O 	O 	0.93430 0.03630 0.43430 -0.27300
O 	O 	0.90490 0.56570 0.96370 -0.24800
O 	O 	0.05025 0.35129 0.44139 -0.81200
O 	O 	0.58890 0.60970 0.60970 -0.14600
O 	O 	0.10970 0.19170 0.60970 -0.15200
O 	O 	0.12100 0.30320 0.05580 -0.20600
O 	O 	0.65707 0.44139 0.35129 -0.80700
O 	O 	0.89030 0.80830 0.91110 -0.14200
O 	O 	0.10970 0.60970 0.19170 -0.15200
O 	O 	0.02820 0.91540 0.52820 -9.64800
O 	O 	0.98000 0.94420 0.69680 -0.20300
O 	O 	0.42760 0.28980 0.60460 -0.05400
O 	O 	0.89030 0.91110 0.39030 -0.14300
O 	O 	0.20040 0.93280 0.38220 -0.25100
O 	O 	0.44420 0.48000 0.69680 -0.20500
O 	O 	0.30830 0.39030 0.91110 -0.14900
O 	O 	0.57240 0.71020 0.39540 -0.05200
O 	O 	0.13160 0.97360 0.26320 -0.09200
O 	O 	0.43280 0.38220 0.70040 -0.26700
O 	O 	0.88220 0.48460 0.70040 -0.26800
O 	O 	0.23680 0.02640 0.36840 -0.13500
O 	O 	0.94840 0.44840 0.02900 -0.50700
O 	O 	0.05025 0.35129 0.15707 -0.81700
O 	O 	0.03730 0.53730 0.88810 8.29100
O 	O 	0.96270 0.46270 0.11190 8.42900
O 	O 	0.93430 0.59510 0.03630 -0.26800
O 	O 	0.87900 0.48000 0.69680 -0.20500
O 	O 	0.13160 0.26320 0.63160 -0.11700
O 	O 	0.76320 0.63160 0.97360 -0.10500
O 	O 	0.80320 0.52000 0.05580 -0.20500
O 	O 	0.98460 0.93280 0.38220 -0.24400
O 	O 	0.94139 0.15707 0.55025 -0.79600
O 	O 	0.46370 0.56570 0.40490 -0.29900
O 	O 	0.11780 0.29960 0.51540 -0.26600
O 	O 	0.10460 0.92760 0.67800 -0.04200
O 	O 	0.89030 0.39030 0.91110 -0.14300
O 	O 	0.21020 0.07240 0.39540 -0.05100
O 	O 	0.93430 0.43430 0.59510 -0.26000
O 	O 	0.96270 0.46270 0.46270 8.27400
O 	O 	0.20040 0.48460 0.93280 -0.25100
O 	O 	0.94139 0.55025 0.35129 -0.79600
O 	O 	0.05160 0.42580 0.55160 -0.45700
O 	O 	0.06570 0.96370 0.40490 -0.34100
O 	O 	0.92580 0.97100 0.55160 -0.52700
O 	O 	0.88220 0.48460 0.93280 -0.26000
O 	O 	0.55580 0.30320 0.62100 -0.20500
O 	O 	0.93430 0.43430 0.03630 -0.27300
O 	O 	0.65707 0.35129 0.44139 -0.80700
O 	O 	0.19680 0.94420 0.48000 -0.20700
O 	O 	0.12100 0.30320 0.52000 -0.20600
O 	O 	0.43280 0.70040 0.38220 -0.26700
O 	O 	0.20040 0.38220 0.93280 -0.25100
O 	O 	0.34293 0.55861 0.64871 -0.80700
O 	O 	0.94975 0.64871 0.84293 -0.80400
O 	O 	0.89540 0.71020 0.32200 -0.04500
O 	O 	0.34293 0.64871 0.44975 -0.80700
O 	O 	0.80320 0.62100 0.52000 -0.20500
O 	O 	0.88220 0.93280 0.70040 -0.26100
O 	O 	0.17800 0.92760 0.60460 -0.04400
O 	O 	0.41540 0.52820 0.52820 -9.66200
O 	O 	0.89030 0.80830 0.39030 -0.14200
O 	O 	0.57240 0.32200 0.39540 -0.05400
O 	O 	0.10460 0.92760 0.28980 -0.04500
O 	O 	0.82200 0.39540 0.07240 -0.05400
O 	O 	0.57240 0.32200 0.71020 -0.05300
O 	O 	0.89030 0.91110 0.80830 -0.14200
O 	O 	0.13160 0.63160 0.97360 -0.09200
O 	O 	0.07420 0.44840 0.02900 -0.37500
O 	O 	0.86840 0.02640 0.73680 -0.12300
O 	O 	0.44420 0.37900 0.69680 -0.20500
O 	O 	0.98460 0.38220 0.93280 -0.24400
O 	O 	0.05861 0.44975 0.84293 -0.81000
O 	O 	0.55580 0.62100 0.30320 -0.20500
O 	O 	0.94840 0.57420 0.44840 -0.51800
O 	O 	0.44420 0.37900 0.48000 -0.20600
O 	O 	0.87900 0.69680 0.94420 -0.20600
O 	O 	0.05160 0.55160 0.97100 -0.43900
O 	O 	0.14871 0.84293 0.44975 -0.80700
O 	O 	0.58890 0.60970 0.19170 -0.14900
O 	O 	0.52640 0.36840 0.36840 -0.11800
O 	O 	0.58890 0.19170 0.60970 -0.14900
O 	O 	0.85129 0.44139 0.15707 -0.80700
O 	O 	0.23680 0.36840 0.36840 -0.11700
O 	O 	0.19680 0.48000 0.94420 -0.20700
O 	O 	0.30830 0.39030 0.39030 -0.15000
O 	O 	0.56720 0.51540 0.29960 -0.26700
O 	O 	0.98460 0.93280 0.70040 -0.25000
O 	O 	0.02000 0.62100 0.30320 -0.21100
O 	O 	0.58460 0.47180 0.47180 -9.66600
O 	O 	0.82200 0.71020 0.07240 -0.05200
O 	O 	0.52640 0.36840 0.73680 -0.11600
O 	O 	0.13160 0.97360 0.63160 -0.09200
O 	O 	0.07420 0.02900 0.44840 -0.37500
O 	O 	0.97180 0.08460 0.47180 -9.77300
O 	O 	0.94840 0.57420 0.02900 -0.51300
O 	O 	0.80320 0.05580 0.52000 -0.20500
O 	O 	0.82200 0.07240 0.71020 -0.05200
O 	O 	0.94840 0.02900 0.44840 -0.50700
O 	O 	0.06570 0.96370 0.56570 -0.33300
O 	O 	0.05025 0.44139 0.15707 -0.81600
O 	O 	0.89540 0.07240 0.71020 -0.04200
O 	O 	0.98000 0.94420 0.37900 -0.20100
O 	O 	0.11780 0.51540 0.06720 -0.26300
O 	O 	0.44420 0.48000 0.37900 -0.20600
O 	O 	0.94975 0.84293 0.55861 -0.80300
O 	O 	0.98460 0.70040 0.38220 -0.25800
O 	O 	0.01540 0.29960 0.06720 -0.26100
O 	O 	0.06570 0.40490 0.56570 -0.33300
O 	O 	0.14871 0.55861 0.84293 -0.80600
O 	O 	0.78980 0.60460 0.92760 -0.04900
O 	O 	0.19680 0.37900 0.48000 -0.20600
O 	O 	0.34293 0.44975 0.55861 -0.80700
O 	O 	0.10460 0.28980 0.67800 -0.05400
O 	O 	0.55580 0.52000 0.30320 -0.20600
O 	O 	0.44420 0.69680 0.37900 -0.20500
O 	O 	0.80320 0.62100 0.05580 -0.20500
O 	O 	0.98000 0.69680 0.37900 -0.19900
O 	O 	0.05025 0.15707 0.35129 -0.81700
O 	O 	0.21020 0.07240 0.32200 -0.05100
O 	O 	0.01540 0.06720 0.61780 -0.26300
O 	O 	0.94139 0.55025 0.15707 -0.79600
O 	O 	0.05861 0.84293 0.64871 -0.80700
O 	O 	0.17800 0.60460 0.28980 -0.05400
O 	O 	0.05025 0.15707 0.44139 -0.81600
O 	O 	0.10460 0.67800 0.28980 -0.05400
O 	O 	0.17800 0.28980 0.92760 -0.04600
O 	O 	0.19680 0.94420 0.37900 -0.20700
O 	O 	0.65707 0.44139 0.55025 -0.80700
O 	O 	0.86840 0.73680 0.36840 -0.11600
O 	O 	0.97180 0.47180 0.08460 -9.77300
O 	O 	0.79960 0.51540 0.06720 -0.26600
O 	O 	0.07420 0.44840 0.44840 -0.41500
O 	O 	0.97180 0.47180 0.47180 -9.61400
O 	O 	0.89540 0.71020 0.07240 -0.04200
O 	O 	0.93430 0.59510 0.43430 -0.26000
O 	O 	0.12100 0.05580 0.30320 -0.20600
O 	O 	0.94975 0.64871 0.55861 -0.80300
O 	O 	0.03730 0.53730 0.53730 8.35200
O 	O 	0.56720 0.61780 0.51540 -0.26700
O 	O 	0.42760 0.60460 0.28980 -0.05400
O 	O 	0.11780 0.51540 0.29960 -0.26600
O 	O 	0.78980 0.67800 0.60460 -0.05300
O 	O 	0.02000 0.05580 0.62100 -0.21100
O 	O 	0.41110 0.39030 0.39030 -0.14900
O 	O 	0.05861 0.64871 0.44975 -0.81300
O 	O 	0.47360 0.26320 0.63160 -0.11700
O 	O 	0.02000 0.62100 0.05580 -0.21100
O 	O 	0.98460 0.38220 0.70040 -0.25800
O 	O 	0.82200 0.71020 0.39540 -0.05300
O 	O 	0.69170 0.60970 0.08890 -0.14700
O 	O 	0.94975 0.55861 0.84293 -0.80300
O 	O 	0.94139 0.15707 0.35129 -0.79400
O 	O 	0.85129 0.15707 0.44139 -0.80700
O 	O 	0.06570 0.56570 0.96370 -0.33300
O 	O 	0.94975 0.84293 0.64871 -0.80400
O 	O 	0.05025 0.44139 0.35129 -0.81200
O 	O 	0.85129 0.15707 0.55025 -0.80800
O 	O 	0.11780 0.06720 0.29960 -0.26300
O 	O 	0.80320 0.52000 0.62100 -0.20500
O 	O 	0.02000 0.30320 0.05580 -0.21400
O 	O 	0.42760 0.67800 0.28980 -0.05300
O 	O 	0.11780 0.06720 0.51540 -0.26300
O 	O 	0.02820 0.52820 0.52820 -9.71300
O 	O 	0.20040 0.48460 0.38220 -0.26600
O 	O 	0.17800 0.60460 0.92760 -0.04400
O 	O 	0.06570 0.40490 0.96370 -0.34100
O 	O 	0.87900 0.48000 0.94420 -0.20600
O 	O 	0.94840 0.02900 0.57420 -0.51300
O 	O 	0.20040 0.93280 0.48460 -0.25100
O 	O 	0.57240 0.39540 0.71020 -0.05200
O 	O 	0.43280 0.48460 0.38220 -0.26700
O 	O 	0.13160 0.63160 0.26320 -0.11700
O 	O 	0.21020 0.32200 0.39540 -0.05300
O 	O 	0.69170 0.08890 0.60970 -0.14700
O 	O 	0.52640 0.73680 0.36840 -0.11600
O 	O 	0.30830 0.91110 0.39030 -0.14900
O 	O 	0.09510 0.03630 0.43430 -0.42900
O 	O 	0.14871 0.55861 0.44975 -0.80800
O 	O 	0.19680 0.48000 0.37900 -0.20600
O 	O 	0.01540 0.61780 0.06720 -0.26300
O 	O 	0.80320 0.05580 0.62100 -0.20500
O 	O 	0.98000 0.69680 0.94420 -0.20300
O 	O 	0.12100 0.52000 0.30320 -0.20600
O 	O 	0.88220 0.70040 0.93280 -0.26100
O 	O 	0.17800 0.92760 0.28980 -0.04600
O 	O 	0.57240 0.39540 0.32200 -0.05400
O 	O 	0.85129 0.55025 0.15707 -0.80800
O 	O 	0.85129 0.44139 0.55025 -0.80500
O 	O 	0.98000 0.37900 0.94420 -0.20100
O 	O 	0.79960 0.61780 0.51540 -0.26800
O 	O 	0.56720 0.61780 0.29960 -0.26700
O 	O 	0.43280 0.70040 0.48460 -0.26700
O 	O 	0.09510 0.43430 0.43430 -0.37500
O 	O 	0.34293 0.64871 0.55861 -0.80700
O 	O 	0.34293 0.55861 0.44975 -0.80700
O 	O 	0.76320 0.97360 0.63160 -0.10500
O 	O 	0.65707 0.35129 0.55025 -0.80700
O 	O 	0.34293 0.44975 0.64871 -0.80700
O 	O 	0.69170 0.60970 0.60970 -0.14500
O 	O 	0.10970 0.08890 0.60970 -0.14700
O 	O 	0.21020 0.32200 0.07240 -0.05100
O 	O 	0.87900 0.69680 0.48000 -0.20500
O 	O 	0.56720 0.29960 0.51540 -0.26700
O 	O 	0.02000 0.30320 0.62100 -0.21100
O 	O 	0.85129 0.55025 0.44139 -0.80500
O 	O 	0.19680 0.37900 0.94420 -0.20700
O 	O 	0.41110 0.39030 0.80830 -0.14500
O 	O 	0.98000 0.37900 0.69680 -0.19900
O 	O 	0.89540 0.07240 0.32200 -0.04000
O 	O 	0.44420 0.69680 0.48000 -0.20500
O 	O 	0.10970 0.60970 0.08890 -0.14700
O 	O 	0.56720 0.51540 0.61780 -0.26700
O 	O 	0.46370 0.40490 0.56570 -0.29900
O 	O 	0.96270 0.11190 0.46270 8.42900
O 	O 	0.89030 0.39030 0.80830 -0.14200
O 	O 	0.43280 0.38220 0.48460 -0.26700
O 	O 	0.93430 0.03630 0.59510 -0.26800
O 	O 	0.02820 0.52820 0.91540 -9.64800
O 	O 	0.02000 0.05580 0.30320 -0.21400
O 	O 	0.86840 0.36840 0.02640 -0.12400
O 	O 	0.57240 0.71020 0.32200 -0.05300
O 	O 	0.01540 0.61780 0.29960 -0.26500
O 	O 	0.98460 0.70040 0.93280 -0.25000
O 	O 	0.05861 0.44975 0.64871 -0.81300
O 	O 	0.21020 0.39540 0.32200 -0.05300
O 	O 	0.14871 0.84293 0.55861 -0.80600
O 	O 	0.52900 0.44840 0.44840 -0.48700
O 	O 	0.47100 0.55160 0.55160 -0.48800
O 	O 	0.78980 0.92760 0.67800 -0.04900
O 	O 	0.05861 0.64871 0.84293 -0.80700
O 	O 	0.12100 0.05580 0.52000 -0.20500
O 	O 	0.92580 0.55160 0.97100 -0.52700
O 	O 	0.17800 0.28980 0.60460 -0.05400
O 	O 	0.94139 0.35129 0.55025 -0.79600
O 	O 	0.05160 0.55160 0.42580 -0.45700
O 	O 	0.14871 0.44975 0.84293 -0.80700
O 	O 	0.56720 0.29960 0.61780 -0.26700
O 	O 	0.89540 0.32200 0.07240 -0.04000
O 	O 	0.55580 0.52000 0.62100 -0.20500
O 	O 	0.92580 0.55160 0.55160 -0.56500
O 	O 	0.61190 0.46270 0.46270 8.31300
O 	O 	0.94840 0.44840 0.57420 -0.51800
O 	O 	0.55580 0.62100 0.52000 -0.20500
O 	O 	0.52900 0.57420 0.44840 -0.48900
O 	O 	0.82200 0.07240 0.39540 -0.05400
O 	O 	0.46370 0.56570 0.56570 -0.29700
O 	O 	0.13160 0.26320 0.97360 -0.09200
O 	O 	0.47360 0.63160 0.63160 -0.11600
O 	O 	0.88220 0.93280 0.48460 -0.26000
O 	O 	0.05160 0.42580 0.97100 -0.43200
O 	O 	0.78980 0.92760 0.60460 -0.04900
O 	O 	0.14871 0.44975 0.55861 -0.80800
O 	O 	0.42760 0.60460 0.67800 -0.05100
O 	O 	0.52900 0.44840 0.57420 -0.48900
O 	O 	0.10970 0.19170 0.08890 -0.15300
O 	O 	0.20040 0.38220 0.48460 -0.26600
O 	O 	0.86840 0.73680 0.02640 -0.12300
O 	O 	0.09510 0.43430 0.03630 -0.42900
O 	O 	0.03730 0.88810 0.53730 8.29100
O 	O 	0.12100 0.52000 0.05580 -0.20500
O 	O 	0.05160 0.97100 0.55160 -0.43900
O 	O 	0.90490 0.56570 0.56570 -0.21600
O 	O 	0.43280 0.48460 0.70040 -0.26700
O 	O 	0.65707 0.55025 0.44139 -0.80700
