data_crystal

_cell_length_a 8.53030
_cell_length_b 9.05310
_cell_length_c 11.99180
_cell_angle_alpha 90.00000
_cell_angle_beta  90.00000
_cell_angle_gamma 90.00000

_symmetry_space_group_name_	'P 1'
_symmetry_space_group_name_H-M	'P 1'

loop_
_symmetry_equiv_pos_as_xyz
  x,y,z

loop_
_atom_site_label
_atom_site_type_symbol
_atom_site_fract_x
_atom_site_fract_y
_atom_site_fract_z
_atom_site_charge
Mn	Mn	0.24916 0.25000 0.75000 1.33400
Mn	Mn	0.25084 0.25000 0.25000 1.33100
Mn	Mn	0.75084 0.75000 0.25000 1.33200
Mn	Mn	0.74916 0.75000 0.75000 1.33300
H 	H 	0.41780 0.56450 0.76800 -0.11900
H 	H 	0.08220 0.93550 0.26800 -0.12000
H 	H 	0.08220 0.56450 0.23200 -0.12900
H 	H 	0.25000 0.29260 0.50000 -0.11900
H 	H 	0.75000 0.70740 0.50000 -0.11900
H 	H 	0.91780 0.06450 0.73200 -0.11400
H 	H 	0.41780 0.93550 0.73200 -0.12100
H 	H 	0.58220 0.06450 0.26800 -0.12600
H 	H 	0.91780 0.43550 0.76800 -0.11800
H 	H 	0.25000 0.20740 -0.00000 -0.10200
H 	H 	0.75000 0.79260 -0.00000 -0.10300
H 	H 	0.58220 0.43550 0.23200 -0.12900
C 	C 	0.75000 0.68990 -0.00000 0.39200
C 	C 	0.98122 0.01555 0.78312 0.48500
C 	C 	0.51878 0.01555 0.21688 0.51200
C 	C 	0.25000 0.31010 -0.00000 0.38700
C 	C 	0.51878 0.48445 0.28312 0.51300
C 	C 	0.01878 0.98445 0.21688 0.49000
C 	C 	0.98122 0.48445 0.71688 0.50800
C 	C 	0.01878 0.51555 0.28312 0.51100
C 	C 	0.75000 0.81010 0.50000 0.49600
C 	C 	0.25000 0.18990 0.50000 0.49600
C 	C 	0.48122 0.51555 0.71688 0.51200
C 	C 	0.48122 0.98445 0.78312 0.50900
O 	O 	0.75545 0.87083 0.40768 -0.41200
O 	O 	0.74455 0.87083 0.59232 -0.41300
O 	O 	0.59623 0.58387 0.68019 -0.42400
O 	O 	0.90377 0.58387 0.31981 -0.42600
O 	O 	0.90377 0.91613 0.18019 -0.42300
O 	O 	0.09623 0.41613 0.68019 -0.42100
O 	O 	0.55652 0.61210 0.30856 -0.40900
O 	O 	0.09623 0.08387 0.81981 -0.39900
O 	O 	0.24455 0.12917 0.59232 -0.41200
O 	O 	0.44348 0.11210 0.80856 -0.39300
O 	O 	0.25545 0.37083 0.09232 -0.39800
O 	O 	0.24455 0.37083 0.90768 -0.34400
O 	O 	0.05652 0.11210 0.19144 -0.40500
O 	O 	0.94348 0.61210 0.69144 -0.40400
O 	O 	0.44348 0.38790 0.69144 -0.40500
O 	O 	0.05652 0.38790 0.30856 -0.40800
O 	O 	0.55652 0.88790 0.19144 -0.41400
O 	O 	0.74455 0.62917 0.90768 -0.34700
O 	O 	0.94348 0.88790 0.80856 -0.38400
O 	O 	0.59623 0.91613 0.81981 -0.41000
O 	O 	0.40377 0.08387 0.18019 -0.43300
O 	O 	0.25545 0.12917 0.40768 -0.41300
O 	O 	0.40377 0.41613 0.31981 -0.42700
O 	O 	0.75545 0.62917 0.09232 -0.39800
