data_crystal

_cell_length_a 25.91460
_cell_length_b 22.80970
_cell_length_c 19.70650
_cell_angle_alpha 90.00000
_cell_angle_beta  90.00000
_cell_angle_gamma 90.00000

_symmetry_space_group_name_	'P 1'
_symmetry_space_group_name_H-M	'P 1'

loop_
_symmetry_equiv_pos_as_xyz
  x,y,z

loop_
_atom_site_label
_atom_site_type_symbol
_atom_site_fract_x
_atom_site_fract_y
_atom_site_fract_z
_atom_site_charge
C 	C 	0.22135 0.20638 0.20841 0.06400
C 	C 	0.17837 0.22751 0.17187 -0.08400
C 	C 	0.14613 0.18989 0.13595 0.05200
C 	C 	0.15619 0.12958 0.13274 -0.12900
C 	C 	0.20100 0.10796 0.16415 0.05600
C 	C 	0.23350 0.14603 0.20133 -0.08800
C 	C 	0.25463 0.25181 0.24825 -0.07900
C 	C 	0.27900 0.28870 0.19151 0.06900
C 	C 	0.29648 0.22520 0.29507 0.06500
C 	C 	0.22178 0.28953 0.29698 0.06500
C 	C 	0.26330 0.34659 0.17605 -0.09400
C 	C 	0.29482 0.38255 0.13678 0.05800
C 	C 	0.34071 0.35997 0.11047 -0.13700
C 	C 	0.35045 0.29965 0.11375 0.06400
C 	C 	0.31884 0.26385 0.15248 -0.09100
C 	C 	0.34748 0.24812 0.29951 -0.08700
C 	C 	0.38501 0.22120 0.34014 0.05400
C 	C 	0.37160 0.17305 0.38000 -0.12600
C 	C 	0.31951 0.15590 0.38359 0.06100
C 	C 	0.28249 0.18174 0.34205 -0.08800
C 	C 	0.17257 0.27128 0.31797 -0.09100
C 	C 	0.14063 0.30923 0.35325 0.05300
C 	C 	0.15719 0.36604 0.37039 -0.14200
C 	C 	0.20879 0.38133 0.35959 0.05500
C 	C 	0.24131 0.34253 0.32467 -0.09000
H 	H 	0.16877 0.27370 0.17279 0.06100
H 	H 	0.11243 0.20810 0.11112 0.03800
H 	H 	0.20999 0.06164 0.16172 0.03900
H 	H 	0.26790 0.12792 0.22414 0.06500
H 	H 	0.22863 0.36547 0.19730 0.06000
H 	H 	0.28545 0.42862 0.13149 0.03700
H 	H 	0.38451 0.28098 0.09026 0.04400
H 	H 	0.32899 0.21804 0.15815 0.06500
H 	H 	0.35922 0.28608 0.27057 0.06500
H 	H 	0.42473 0.23578 0.33738 0.03700
H 	H 	0.30804 0.11945 0.41550 0.04000
H 	H 	0.24308 0.16613 0.34471 0.05900
H 	H 	0.15766 0.22834 0.30542 0.06200
H 	H 	0.10200 0.29444 0.36537 0.04400
H 	H 	0.22317 0.42385 0.37508 0.03800
H 	H 	0.28070 0.35582 0.31475 0.06000
C 	C 	0.72007 0.70475 0.19274 0.06900
C 	C 	0.68092 0.72734 0.15075 -0.09200
C 	C 	0.64886 0.68942 0.11566 0.06100
C 	C 	0.65751 0.62893 0.11874 -0.14400
C 	C 	0.70265 0.60726 0.14807 0.06400
C 	C 	0.73466 0.64544 0.18386 -0.09600
C 	C 	0.74354 0.74545 0.24662 -0.08100
C 	C 	0.77553 0.79007 0.20369 0.06300
C 	C 	0.77766 0.71188 0.29789 0.06400
C 	C 	0.70056 0.77272 0.29126 0.06700
C 	C 	0.76301 0.85015 0.19506 -0.08900
C 	C 	0.79515 0.88767 0.15667 0.05200
C 	C 	0.83996 0.86580 0.12545 -0.12900
C 	C 	0.85017 0.80556 0.12977 0.05800
C 	C 	0.81828 0.76843 0.16702 -0.08600
C 	C 	0.82700 0.73218 0.31594 -0.09000
C 	C 	0.85994 0.69719 0.35378 0.05600
C 	C 	0.84431 0.64144 0.37625 -0.12800
C 	C 	0.79266 0.62491 0.36821 0.05000
C 	C 	0.75916 0.66083 0.33097 -0.08800
C 	C 	0.64975 0.74901 0.29555 -0.09100
C 	C 	0.61126 0.77648 0.33410 0.06300
C 	C 	0.62351 0.82600 0.37221 -0.14300
C 	C 	0.67525 0.84442 0.37595 0.06000
C 	C 	0.71320 0.81807 0.33640 -0.09100
H 	H 	0.67142 0.77358 0.15166 0.06300
H 	H 	0.61543 0.70695 0.08958 0.02900
H 	H 	0.71119 0.56078 0.14724 0.03600
H 	H 	0.76884 0.62748 0.20738 0.06200
H 	H 	0.72876 0.86860 0.21786 0.06100
H 	H 	0.78608 0.93394 0.15356 0.03100
H 	H 	0.88393 0.78714 0.10529 0.04100
H 	H 	0.82818 0.72235 0.16935 0.06300
H 	H 	0.84127 0.77431 0.29921 0.06400
H 	H 	0.89865 0.71316 0.36320 0.05500
H 	H 	0.77895 0.58329 0.38754 0.04100
H 	H 	0.71978 0.64637 0.32336 0.05900
H 	H 	0.63889 0.70979 0.26837 0.06600
H 	H 	0.57184 0.76088 0.33147 0.03700
H 	H 	0.68581 0.88190 0.40678 0.02500
H 	H 	0.75233 0.83458 0.33923 0.05900
C 	C 	0.70327 0.22654 0.69687 0.06500
C 	C 	0.65247 0.24982 0.69078 -0.08800
C 	C 	0.61507 0.22217 0.65065 0.05300
C 	C 	0.62841 0.17275 0.61294 -0.12600
C 	C 	0.68040 0.15493 0.61086 0.06100
C 	C 	0.71727 0.18153 0.65193 -0.08900
C 	C 	0.74500 0.25426 0.74304 -0.08100
C 	C 	0.77897 0.28930 0.69306 0.06500
C 	C 	0.77715 0.20998 0.78614 0.06300
C 	C 	0.72017 0.29368 0.79705 0.07000
C 	C 	0.76001 0.34066 0.66104 -0.08800
C 	C 	0.79312 0.37737 0.62427 0.05000
C 	C 	0.84482 0.36138 0.61568 -0.12800
C 	C 	0.86097 0.30554 0.63727 0.05600
C 	C 	0.82845 0.26978 0.67473 -0.09000
C 	C 	0.81931 0.23208 0.82360 -0.08600
C 	C 	0.85061 0.19545 0.86232 0.05600
C 	C 	0.84047 0.13521 0.86715 -0.13000
C 	C 	0.79632 0.11287 0.83478 0.05100
C 	C 	0.76470 0.14992 0.79507 -0.08900
C 	C 	0.68052 0.26993 0.83729 -0.09600
C 	C 	0.64842 0.30675 0.87379 0.06500
C 	C 	0.65738 0.36723 0.87373 -0.15900
C 	C 	0.70267 0.38971 0.84570 0.06800
C 	C 	0.73476 0.35266 0.80852 -0.10000
H 	H 	0.64075 0.28876 0.71793 0.06300
H 	H 	0.57548 0.23733 0.65211 0.03600
H 	H 	0.69189 0.11755 0.58043 0.04200
H 	H 	0.75657 0.16545 0.65048 0.06000
H 	H 	0.72052 0.35457 0.66894 0.05900
H 	H 	0.77906 0.41909 0.60568 0.04000
H 	H 	0.89977 0.29005 0.62742 0.05500
H 	H 	0.84307 0.22762 0.69085 0.06500
H 	H 	0.82906 0.27820 0.82111 0.06200
H 	H 	0.88391 0.21423 0.88749 0.04500
H 	H 	0.78738 0.06657 0.83805 0.03500
H 	H 	0.73084 0.13118 0.77158 0.06400
H 	H 	0.67100 0.22375 0.83439 0.06300
H 	H 	0.61480 0.28847 0.89873 0.02600
H 	H 	0.71134 0.43610 0.84866 0.03200
H 	H 	0.76914 0.37124 0.78618 0.06100
C 	C 	0.22303 0.71056 0.69889 0.06500
C 	C 	0.17398 0.72984 0.67831 -0.09100
C 	C 	0.14160 0.69296 0.64219 0.05300
C 	C 	0.15759 0.63630 0.62364 -0.14100
C 	C 	0.20909 0.62020 0.63395 0.05500
C 	C 	0.24203 0.65791 0.66980 -0.09100
C 	C 	0.25616 0.74678 0.74889 -0.08200
C 	C 	0.29906 0.77317 0.70348 0.06700
C 	C 	0.27941 0.70863 0.80537 0.07000
C 	C 	0.22310 0.79234 0.78885 0.06500
C 	C 	0.28613 0.81681 0.65621 -0.09100
C 	C 	0.32399 0.84254 0.61597 0.06100
C 	C 	0.37593 0.82517 0.62113 -0.14300
C 	C 	0.38854 0.77710 0.66151 0.06100
C 	C 	0.35015 0.75018 0.70077 -0.09200
C 	C 	0.31854 0.73269 0.84631 -0.09600
C 	C 	0.34995 0.69603 0.88426 0.06700
C 	C 	0.34059 0.63558 0.88491 -0.15200
C 	C 	0.29514 0.61342 0.85688 0.06200
C 	C 	0.26384 0.65025 0.81835 -0.09800
C 	C 	0.17987 0.77135 0.82501 -0.09200
C 	C 	0.14716 0.80917 0.85988 0.05900
C 	C 	0.15700 0.86954 0.86241 -0.15700
C 	C 	0.20213 0.89102 0.83166 0.06000
C 	C 	0.23508 0.85276 0.79548 -0.09600
H 	H 	0.15947 0.77274 0.69179 0.06100
H 	H 	0.10309 0.70843 0.63052 0.04500
H 	H 	0.22305 0.57781 0.61738 0.03900
H 	H 	0.28129 0.64394 0.67938 0.06000
H 	H 	0.24683 0.83259 0.65230 0.05800
H 	H 	0.31321 0.87896 0.58361 0.02300
H 	H 	0.42817 0.76238 0.66542 0.03500
H 	H 	0.36129 0.71208 0.72985 0.06600
H 	H 	0.32855 0.77868 0.84246 0.06200
H 	H 	0.38364 0.71423 0.90911 0.03600
H 	H 	0.28602 0.56715 0.86024 0.03100
H 	H 	0.22954 0.63172 0.79574 0.06000
H 	H 	0.17032 0.72514 0.82427 0.06100
H 	H 	0.11326 0.79106 0.88435 0.02700
H 	H 	0.21099 0.93738 0.83372 0.02900
H 	H 	0.26961 0.87082 0.77297 0.06300
C 	C 	0.22152 0.20699 0.78513 0.06400
C 	C 	0.23360 0.14661 0.79204 -0.09200
C 	C 	0.20120 0.10858 0.82939 0.05800
C 	C 	0.15657 0.13029 0.86117 -0.14600
C 	C 	0.14662 0.19063 0.85818 0.05600
C 	C 	0.17875 0.22819 0.82203 -0.08900
C 	C 	0.25468 0.25237 0.74509 -0.08200
C 	C 	0.27919 0.28927 0.80170 0.07000
C 	C 	0.22171 0.29004 0.69648 0.06500
C 	C 	0.29639 0.22568 0.69813 0.06600
C 	C 	0.31893 0.26428 0.84080 -0.09600
C 	C 	0.35045 0.29992 0.87984 0.06700
C 	C 	0.34074 0.36024 0.88332 -0.15200
C 	C 	0.29501 0.38299 0.85676 0.06200
C 	C 	0.26357 0.34718 0.81719 -0.09800
C 	C 	0.24121 0.34294 0.66852 -0.09100
C 	C 	0.20867 0.38162 0.63347 0.05500
C 	C 	0.15705 0.36631 0.62286 -0.14200
C 	C 	0.14046 0.30961 0.64040 0.05300
C 	C 	0.17243 0.27177 0.67580 -0.09100
C 	C 	0.28220 0.18233 0.65112 -0.08900
C 	C 	0.31908 0.15637 0.60949 0.06100
C 	C 	0.37123 0.17328 0.61302 -0.12700
C 	C 	0.38483 0.22136 0.65289 0.05400
C 	C 	0.34745 0.24839 0.69364 -0.08800
H 	H 	0.26787 0.12844 0.76895 0.06500
H 	H 	0.21007 0.06223 0.83159 0.03400
H 	H 	0.11305 0.20889 0.88327 0.03000
H 	H 	0.16921 0.27441 0.82120 0.06000
H 	H 	0.32903 0.21846 0.83506 0.06400
H 	H 	0.38441 0.28114 0.90345 0.03800
H 	H 	0.28569 0.42906 0.86213 0.03200
H 	H 	0.22899 0.36618 0.79584 0.06000
H 	H 	0.28063 0.35622 0.67826 0.06000
H 	H 	0.22305 0.42406 0.61770 0.03800
H 	H 	0.10181 0.29479 0.62846 0.04500
H 	H 	0.15750 0.22890 0.68860 0.06200
H 	H 	0.24274 0.16688 0.64854 0.05900
H 	H 	0.30745 0.11998 0.57757 0.04000
H 	H 	0.42461 0.23575 0.65560 0.03600
H 	H 	0.35936 0.28626 0.72263 0.06400
C 	C 	0.71998 0.70406 0.80051 0.07000
C 	C 	0.73444 0.64471 0.80935 -0.10000
C 	C 	0.70248 0.60669 0.84545 0.06800
C 	C 	0.65753 0.62856 0.87507 -0.15900
C 	C 	0.64901 0.68906 0.87806 0.06500
C 	C 	0.68100 0.72681 0.84266 -0.09600
C 	C 	0.74351 0.74473 0.74668 -0.08200
C 	C 	0.77561 0.78914 0.78972 0.06400
C 	C 	0.70054 0.77215 0.70214 0.06700
C 	C 	0.77757 0.71121 0.69531 0.06500
C 	C 	0.81830 0.76727 0.82635 -0.08900
C 	C 	0.85020 0.80415 0.86390 0.05900
C 	C 	0.84011 0.86441 0.86849 -0.14000
C 	C 	0.79539 0.88650 0.83722 0.05300
C 	C 	0.76322 0.84922 0.79858 -0.09200
C 	C 	0.71322 0.81752 0.65703 -0.09100
C 	C 	0.67530 0.84388 0.61743 0.06100
C 	C 	0.62353 0.82553 0.62115 -0.14400
C 	C 	0.61124 0.77603 0.65928 0.06100
C 	C 	0.64970 0.74852 0.69784 -0.09200
C 	C 	0.75907 0.66018 0.66218 -0.08800
C 	C 	0.79254 0.62443 0.62468 0.05000
C 	C 	0.84413 0.64112 0.61643 -0.12800
C 	C 	0.85972 0.69685 0.63898 0.05600
C 	C 	0.82683 0.73167 0.67709 -0.09000
H 	H 	0.76849 0.62661 0.78566 0.06100
H 	H 	0.71090 0.56018 0.84630 0.03200
H 	H 	0.61571 0.70673 0.90432 0.02300
H 	H 	0.67160 0.77309 0.84174 0.06200
H 	H 	0.82811 0.72116 0.82381 0.06200
H 	H 	0.88387 0.78553 0.88837 0.04200
H 	H 	0.78641 0.93279 0.84049 0.03000
H 	H 	0.72905 0.86784 0.77576 0.06200
H 	H 	0.75236 0.83398 0.65423 0.05900
H 	H 	0.68592 0.88133 0.58660 0.02400
H 	H 	0.57180 0.76048 0.66192 0.03500
H 	H 	0.63879 0.70931 0.72503 0.06500
H 	H 	0.71973 0.64565 0.66989 0.05900
H 	H 	0.77886 0.58281 0.60531 0.04000
H 	H 	0.89838 0.71293 0.62943 0.05400
H 	H 	0.84107 0.77379 0.69389 0.06400
C 	C 	0.70313 0.22611 0.29641 0.06500
C 	C 	0.71695 0.18116 0.34152 -0.08900
C 	C 	0.67993 0.15473 0.38252 0.06000
C 	C 	0.62800 0.17271 0.38023 -0.13000
C 	C 	0.61483 0.22209 0.34237 0.05400
C 	C 	0.65237 0.24957 0.30231 -0.08800
C 	C 	0.74499 0.25358 0.25024 -0.08000
C 	C 	0.77901 0.28862 0.30016 0.06400
C 	C 	0.72032 0.29304 0.19612 0.06800
C 	C 	0.77703 0.20904 0.20732 0.06100
C 	C 	0.82858 0.26925 0.31833 -0.09000
C 	C 	0.86115 0.30517 0.35552 0.05600
C 	C 	0.84497 0.36102 0.37704 -0.12800
C 	C 	0.79321 0.37686 0.36867 0.05000
C 	C 	0.76006 0.34001 0.33215 -0.08800
C 	C 	0.73499 0.35201 0.18473 -0.09500
C 	C 	0.70283 0.38923 0.14790 0.06400
C 	C 	0.65739 0.36693 0.12009 -0.14400
C 	C 	0.64838 0.30645 0.11978 0.06100
C 	C 	0.68057 0.26946 0.15592 -0.09100
C 	C 	0.76446 0.14897 0.19866 -0.08700
C 	C 	0.79604 0.11166 0.15919 0.04900
C 	C 	0.84026 0.13377 0.12678 -0.12200
C 	C 	0.85054 0.19399 0.13135 0.05400
C 	C 	0.81926 0.23087 0.16980 -0.08500
H 	H 	0.75621 0.16496 0.34313 0.06000
H 	H 	0.69125 0.11735 0.41305 0.04000
H 	H 	0.57527 0.23735 0.34075 0.03600
H 	H 	0.64079 0.28852 0.27507 0.06400
H 	H 	0.84322 0.22709 0.30226 0.06200
H 	H 	0.90001 0.28979 0.36521 0.05400
H 	H 	0.77912 0.41858 0.38724 0.04000
H 	H 	0.72054 0.35385 0.32437 0.05900
H 	H 	0.76946 0.37047 0.20699 0.06100
H 	H 	0.71156 0.43562 0.14506 0.03700
H 	H 	0.61466 0.28831 0.09494 0.03200
H 	H 	0.67098 0.22329 0.15872 0.06300
H 	H 	0.73054 0.13041 0.22220 0.06100
H 	H 	0.78701 0.06538 0.15610 0.03600
H 	H 	0.88392 0.21257 0.10615 0.04200
H 	H 	0.82912 0.27697 0.17206 0.06200
C 	C 	0.22311 0.71107 0.29458 0.06500
C 	C 	0.24215 0.65834 0.32345 -0.09100
C 	C 	0.20922 0.62048 0.35912 0.05500
C 	C 	0.15772 0.63651 0.36949 -0.14100
C 	C 	0.14172 0.69324 0.35128 0.05300
C 	C 	0.17408 0.73028 0.31534 -0.09100
C 	C 	0.25613 0.74735 0.24451 -0.08100
C 	C 	0.29914 0.77368 0.28983 0.06700
C 	C 	0.22298 0.79295 0.20468 0.06300
C 	C 	0.27929 0.70920 0.18793 0.06800
C 	C 	0.35016 0.75050 0.29255 -0.09100
C 	C 	0.38866 0.77728 0.33178 0.06200
C 	C 	0.37620 0.82538 0.37219 -0.14300
C 	C 	0.32431 0.84297 0.37733 0.06100
C 	C 	0.28636 0.81739 0.33708 -0.09100
C 	C 	0.23497 0.85336 0.19795 -0.09100
C 	C 	0.20194 0.89163 0.16186 0.05700
C 	C 	0.15670 0.87018 0.13134 -0.14000
C 	C 	0.14682 0.80983 0.13403 0.05400
C 	C 	0.17962 0.77199 0.16876 -0.08700
C 	C 	0.26363 0.65085 0.17494 -0.09400
C 	C 	0.29498 0.61388 0.13667 0.05800
C 	C 	0.34058 0.63588 0.10888 -0.13600
C 	C 	0.35001 0.69633 0.10940 0.06300
C 	C 	0.31853 0.73313 0.14708 -0.09200
H 	H 	0.28140 0.64440 0.31376 0.06000
H 	H 	0.22320 0.57802 0.37546 0.03900
H 	H 	0.10321 0.70865 0.36304 0.04500
H 	H 	0.15956 0.77322 0.30205 0.06200
H 	H 	0.36118 0.71233 0.26350 0.06700
H 	H 	0.42823 0.76239 0.32787 0.03700
H 	H 	0.31365 0.87943 0.40969 0.02300
H 	H 	0.24711 0.83332 0.34102 0.05800
H 	H 	0.26957 0.87140 0.22028 0.06300
H 	H 	0.21087 0.93797 0.15964 0.03400
H 	H 	0.11285 0.79173 0.10972 0.03700
H 	H 	0.17004 0.72578 0.16956 0.06100
H 	H 	0.22923 0.63244 0.19745 0.06000
H 	H 	0.28579 0.56763 0.13337 0.03600
H 	H 	0.38380 0.71442 0.08467 0.04300
H 	H 	0.32861 0.77910 0.15088 0.06300
O 	O 	1.06915 0.10446 0.11862 -0.63200
O 	O 	1.12841 0.05174 0.05680 -0.59500
C 	C 	1.11612 0.09160 0.10156 0.46400
O 	O 	0.92720 -0.10924 0.11167 -0.62800
O 	O 	0.86795 -0.05382 0.05317 -0.59800
C 	C 	0.88022 -0.09596 0.09499 0.46600
O 	O 	1.06945 -0.10474 0.11799 -0.63200
O 	O 	1.12858 -0.05152 0.05653 -0.59700
C 	C 	1.11641 -0.09168 0.10091 0.47000
O 	O 	0.92730 0.10896 0.11215 -0.64800
O 	O 	0.86799 0.05383 0.05342 -0.59700
C 	C 	0.88034 0.09575 0.09556 0.46100
Zr	Zr	0.99833 0.07276 0.08163 3.21700
O 	O 	0.99633 0.06339 0.18828 -0.59100
O 	O 	1.00212 0.16530 0.08801 -0.59000
Zr	Zr	0.99832 -0.07284 0.08167 3.21700
O 	O 	0.99341 -0.06724 0.18879 -0.58200
O 	O 	1.00261 -0.16541 0.08664 -0.57300
O 	O 	1.04558 0.00002 0.09484 -1.33500
O 	O 	0.95209 0.00000 0.09398 -1.62700
O 	O 	0.92766 0.11162 -0.11635 -0.61700
O 	O 	0.86815 0.05411 -0.06117 -0.59700
C 	C 	0.88059 0.09726 -0.10156 0.46700
O 	O 	1.06971 -0.10584 -0.12387 -0.64300
O 	O 	1.12881 -0.05147 -0.06384 -0.60000
C 	C 	1.11667 -0.09228 -0.10740 0.48100
O 	O 	0.92750 -0.11181 -0.11584 -0.61500
O 	O 	0.86804 -0.05409 -0.06084 -0.59900
C 	C 	0.88041 -0.09742 -0.10096 0.47500
O 	O 	1.06948 0.10577 -0.12421 -0.64400
O 	O 	1.12869 0.05169 -0.06405 -0.59800
C 	C 	1.11644 0.09229 -0.10786 0.47200
Zr	Zr	0.99828 0.07259 -0.08975 3.21600
O 	O 	0.99271 0.06307 -0.19647 -0.58700
O 	O 	1.00053 0.16453 -0.10280 -0.54900
Zr	Zr	0.99829 -0.07263 -0.08978 3.21600
O 	O 	0.99272 -0.06300 -0.19648 -0.58800
O 	O 	1.00054 -0.16451 -0.10333 -0.54700
Zr	Zr	1.07720 0.00003 -0.00388 3.19500
Zr	Zr	0.91968 0.00000 -0.00392 3.19500
O 	O 	0.95180 -0.00003 -0.10204 -1.62800
O 	O 	1.04577 -0.00001 -0.10300 -1.34900
O 	O 	0.95252 0.08468 -0.00398 -1.34500
O 	O 	1.04314 -0.08391 -0.00396 -1.62900
O 	O 	1.04317 0.08392 -0.00394 -1.63000
O 	O 	0.95255 -0.08471 -0.00398 -1.34300
H 	H 	0.92832 -0.00004 0.13338 0.40300
H 	H 	1.06517 -0.11939 -0.00353 0.38200
H 	H 	0.92743 -0.00007 -0.14083 0.40600
H 	H 	1.06521 0.11938 -0.00344 0.38000
H 	H 	0.97976 -0.18114 0.05078 0.18600
H 	H 	1.00599 -0.18194 -0.05802 0.16400
H 	H 	1.02750 -0.05337 -0.21397 0.21100
H 	H 	1.02735 0.05275 -0.21392 0.21000
H 	H 	1.00551 0.18180 -0.05732 0.16200
H 	H 	0.97993 0.18123 0.05155 0.18600
H 	H 	0.99542 0.10370 0.20698 0.20200
H 	H 	1.02466 -0.04665 0.20514 0.22300
O 	O 	1.07168 0.60735 0.61527 -0.65200
O 	O 	1.13091 0.55504 0.55329 -0.60400
C 	C 	1.11842 0.59589 0.59641 0.46900
O 	O 	0.93097 0.38914 0.60546 -0.63400
O 	O 	0.87120 0.44638 0.55093 -0.60700
C 	C 	0.88405 0.40210 0.58911 0.47200
O 	O 	1.07154 0.39642 0.61548 -0.65400
O 	O 	1.13084 0.44833 0.55321 -0.60300
C 	C 	1.11824 0.40749 0.59633 0.47000
O 	O 	0.93065 0.61444 0.60538 -0.63200
O 	O 	0.87106 0.55682 0.55100 -0.60800
C 	C 	0.88373 0.60111 0.58924 0.47100
Zr	Zr	1.00075 0.57385 0.58242 3.21700
O 	O 	0.99446 0.56389 0.68897 -0.59200
O 	O 	1.00428 0.66549 0.59741 -0.55300
Zr	Zr	1.00080 0.43002 0.58255 3.21800
O 	O 	0.99450 0.44036 0.68905 -0.59200
O 	O 	1.00425 0.33843 0.59796 -0.55100
O 	O 	1.04869 0.50194 0.59581 -1.35200
O 	O 	0.95378 0.50190 0.59470 -1.63100
O 	O 	0.93083 0.61468 0.38736 -0.63100
O 	O 	0.87114 0.55688 0.44130 -0.60800
C 	C 	0.88387 0.60129 0.40329 0.47100
O 	O 	1.07169 0.39626 0.37738 -0.65300
O 	O 	1.13091 0.44826 0.43968 -0.60300
C 	C 	1.11837 0.40734 0.39664 0.47000
O 	O 	0.93111 0.38888 0.38726 -0.63300
O 	O 	0.87127 0.44627 0.44145 -0.60700
C 	C 	0.88417 0.40188 0.40347 0.47200
O 	O 	1.07182 0.60739 0.37747 -0.65200
O 	O 	1.13099 0.55505 0.43952 -0.60400
C 	C 	1.11854 0.59595 0.39644 0.46900
Zr	Zr	1.00085 0.57377 0.41001 3.21700
O 	O 	0.99465 0.56344 0.30350 -0.59100
O 	O 	1.00427 0.66529 0.39412 -0.55100
Zr	Zr	1.00089 0.42995 0.41004 3.21800
O 	O 	0.99470 0.44031 0.30353 -0.59100
O 	O 	1.00432 0.33840 0.39438 -0.55100
Zr	Zr	1.07933 0.50182 0.49635 3.19500
Zr	Zr	0.92248 0.50177 0.49618 3.19500
O 	O 	0.95386 0.50182 0.39771 -1.63100
O 	O 	1.04882 0.50186 0.39680 -1.35200
O 	O 	0.95596 0.58607 0.49618 -1.33900
O 	O 	1.04471 0.41816 0.49635 -1.62600
O 	O 	1.04474 0.58556 0.49626 -1.62600
O 	O 	0.95610 0.41761 0.49626 -1.34000
H 	H 	0.92888 0.50187 0.63290 0.40700
H 	H 	1.06518 0.38150 0.49642 0.37600
H 	H 	0.92895 0.50177 0.35951 0.40700
H 	H 	1.06531 0.62215 0.49632 0.37700
H 	H 	0.99875 0.32006 0.55312 0.16300
H 	H 	0.99957 0.31996 0.43933 0.16300
H 	H 	1.02979 0.44768 0.28560 0.20900
H 	H 	1.02976 0.55625 0.28556 0.20900
H 	H 	0.99970 0.68380 0.43906 0.16300
H 	H 	0.99783 0.68372 0.55272 0.16400
H 	H 	1.02948 0.55613 0.70693 0.20800
H 	H 	1.02953 0.44793 0.70703 0.20800
O 	O 	0.40664 -0.08010 0.37691 -0.65100
O 	O 	0.45115 -0.14835 0.43983 -0.59700
C 	C 	0.41532 -0.13311 0.39663 0.47200
O 	O 	0.59905 0.07761 0.38680 -0.65300
O 	O 	0.55004 0.14659 0.44225 -0.60200
C 	C 	0.58898 0.13085 0.40421 0.47400
O 	O 	0.59242 -0.07976 0.37619 -0.64600
O 	O 	0.54849 -0.14803 0.43987 -0.59700
C 	C 	0.58414 -0.13270 0.39640 0.47400
O 	O 	0.39976 0.07763 0.38787 -0.63400
O 	O 	0.44960 0.14670 0.44182 -0.60100
C 	C 	0.41036 0.13099 0.40432 0.47000
Zr	Zr	0.43696 -0.00064 0.41055 3.21800
O 	O 	0.44651 0.00646 0.30410 -0.58700
O 	O 	0.35634 -0.00460 0.39490 -0.54300
Zr	Zr	0.56264 -0.00072 0.41118 3.21800
O 	O 	0.55228 0.00287 0.30495 -0.58700
O 	O 	0.64361 -0.00425 0.39839 -0.56200
O 	O 	0.49984 -0.05559 0.39773 -1.34000
O 	O 	0.49988 0.05331 0.39858 -1.63000
O 	O 	0.39892 0.07769 0.60462 -0.63300
O 	O 	0.44943 0.14677 0.55176 -0.60100
C 	C 	0.40985 0.13109 0.58866 0.47000
O 	O 	0.59285 -0.08008 0.61663 -0.65600
O 	O 	0.54816 -0.14841 0.55413 -0.59800
C 	C 	0.58419 -0.13310 0.59701 0.47100
O 	O 	0.60020 0.07738 0.60485 -0.63300
O 	O 	0.54992 0.14662 0.55195 -0.60000
C 	C 	0.58948 0.13080 0.58884 0.47000
O 	O 	0.40596 -0.08014 0.61607 -0.65400
O 	O 	0.45106 -0.14845 0.55397 -0.59900
C 	C 	0.41493 -0.13319 0.59670 0.47100
Zr	Zr	0.43654 -0.00058 0.58302 3.21800
O 	O 	0.44578 0.00701 0.68946 -0.59200
O 	O 	0.35595 -0.00452 0.59900 -0.54300
Zr	Zr	0.56221 -0.00063 0.58358 3.21800
O 	O 	0.55187 0.00698 0.68983 -0.59300
O 	O 	0.64255 -0.00433 0.60158 -0.54000
Zr	Zr	0.49961 -0.09062 0.49709 3.19500
Zr	Zr	0.49963 0.08912 0.49700 3.19500
O 	O 	0.49937 0.05342 0.59551 -1.63200
O 	O 	0.49935 -0.05558 0.59658 -1.35500
O 	O 	0.42588 0.05013 0.49670 -1.34200
O 	O 	0.57289 -0.05055 0.49736 -1.62600
O 	O 	0.42631 -0.05046 0.49675 -1.62500
O 	O 	0.57330 0.05007 0.49732 -1.34400
H 	H 	0.50001 0.08146 0.36022 0.40500
H 	H 	0.60540 -0.07334 0.49707 0.37300
H 	H 	0.49932 0.08192 0.63352 0.40700
H 	H 	0.39381 -0.07326 0.49659 0.37400
H 	H 	0.65902 0.00386 0.44331 0.16400
H 	H 	0.65950 -0.00391 0.55665 0.15700
H 	H 	0.54726 -0.03305 0.70827 0.20900
H 	H 	0.45128 -0.03290 0.70781 0.20900
H 	H 	0.33960 -0.00127 0.55383 0.15800
H 	H 	0.34006 0.00025 0.43991 0.15900
H 	H 	0.45497 -0.03305 0.28652 0.22500
H 	H 	0.58736 0.00513 0.28518 0.20100
O 	O 	0.57049 0.60392 0.11452 -0.65100
O 	O 	0.62828 0.54848 0.05395 -0.61000
C 	C 	0.61680 0.59021 0.09561 0.47200
O 	O 	0.42813 0.38344 0.10283 -0.62700
O 	O 	0.36963 0.44433 0.05139 -0.61400
C 	C 	0.38152 0.39874 0.08717 0.47900
O 	O 	0.57038 0.39154 0.11477 -0.65200
O 	O 	0.62824 0.44677 0.05406 -0.61100
C 	C 	0.61670 0.40522 0.09596 0.47300
O 	O 	0.42803 0.61203 0.10235 -0.62600
O 	O 	0.36954 0.55090 0.05122 -0.61400
C 	C 	0.38142 0.59669 0.08664 0.47800
Zr	Zr	0.49876 0.57017 0.08346 3.21700
O 	O 	0.49222 0.56004 0.18990 -0.59800
O 	O 	0.50238 0.66152 0.10057 -0.55100
Zr	Zr	0.49875 0.42518 0.08346 3.21700
O 	O 	0.49221 0.43534 0.18991 -0.59700
O 	O 	0.50240 0.33381 0.10047 -0.55100
O 	O 	0.54620 0.49767 0.09679 -1.34900
O 	O 	0.45218 0.49768 0.09594 -1.62500
O 	O 	0.42803 0.61188 -0.10831 -0.62700
O 	O 	0.36955 0.55083 -0.05704 -0.61500
C 	C 	0.38143 0.59653 -0.09259 0.49000
O 	O 	0.57037 0.39166 -0.12061 -0.65200
O 	O 	0.62825 0.44681 -0.05982 -0.61200
C 	C 	0.61669 0.40535 -0.10183 0.48500
O 	O 	0.42814 0.38355 -0.10876 -0.62800
O 	O 	0.36964 0.44437 -0.05719 -0.61500
C 	C 	0.38154 0.39887 -0.09310 0.49100
O 	O 	0.57050 0.60376 -0.12040 -0.65200
O 	O 	0.62829 0.54837 -0.05975 -0.61200
C 	C 	0.61680 0.59001 -0.10152 0.48500
Zr	Zr	0.49877 0.57015 -0.08919 3.21700
O 	O 	0.49222 0.56010 -0.19565 -0.59500
O 	O 	0.50243 0.66153 -0.10606 -0.54900
Zr	Zr	0.49875 0.42517 -0.08916 3.21700
O 	O 	0.49221 0.43520 -0.19563 -0.59400
O 	O 	0.50245 0.33376 -0.10583 -0.54800
Zr	Zr	0.57640 0.49762 -0.00286 3.19700
Zr	Zr	0.42137 0.49762 -0.00286 3.19700
O 	O 	0.45220 0.49766 -0.10165 -1.62500
O 	O 	0.54619 0.49765 -0.10251 -1.34900
O 	O 	0.45433 0.58215 -0.00288 -1.34100
O 	O 	0.54261 0.41355 -0.00286 -1.62400
O 	O 	0.54262 0.58172 -0.00288 -1.62400
O 	O 	0.45428 0.41311 -0.00286 -1.34100
H 	H 	0.42702 0.49771 0.13385 0.40400
H 	H 	0.56342 0.37712 -0.00290 0.37500
H 	H 	0.42707 0.49769 -0.13960 0.40600
H 	H 	0.56336 0.61819 -0.00293 0.37500
H 	H 	0.49957 0.31506 0.05537 0.16200
H 	H 	0.49917 0.31511 -0.06073 0.16300
H 	H 	0.52732 0.44253 -0.21350 0.20700
H 	H 	0.52738 0.55317 -0.21355 0.20700
H 	H 	0.49942 0.68023 -0.06095 0.16200
H 	H 	0.49977 0.68030 0.05546 0.16100
H 	H 	0.52742 0.55335 0.20780 0.20500
H 	H 	0.52737 0.44240 0.20779 0.20500
