data_crystal

_cell_length_a 8.53890
_cell_length_b 9.05170
_cell_length_c 11.99890
_cell_angle_alpha 90.00000
_cell_angle_beta  90.00000
_cell_angle_gamma 90.00000

_symmetry_space_group_name_	'P 1'
_symmetry_space_group_name_H-M	'P 1'

loop_
_symmetry_equiv_pos_as_xyz
  x,y,z

loop_
_atom_site_label
_atom_site_type_symbol
_atom_site_fract_x
_atom_site_fract_y
_atom_site_fract_z
_atom_site_charge
Mn	Mn	0.24973 0.25000 0.75000 1.33500
Mn	Mn	0.25027 0.25000 0.25000 1.33300
Mn	Mn	0.74973 0.75000 0.75000 1.33400
Mn	Mn	0.75027 0.75000 0.25000 1.33200
H 	H 	0.41860 0.93560 0.73180 -0.12200
H 	H 	0.58140 0.43560 0.23180 -0.13000
H 	H 	0.25000 0.29310 0.50000 -0.11800
H 	H 	0.91860 0.43560 0.76820 -0.11900
H 	H 	0.41860 0.56440 0.76820 -0.12000
H 	H 	0.75000 0.70690 0.50000 -0.11800
H 	H 	0.75000 0.79310 -0.00000 -0.10200
H 	H 	0.25000 0.20690 -0.00000 -0.10200
H 	H 	0.08140 0.93560 0.26820 -0.12000
H 	H 	0.58140 0.06440 0.26820 -0.12700
H 	H 	0.91860 0.06440 0.73180 -0.11500
H 	H 	0.08140 0.56440 0.23180 -0.13000
C 	C 	0.98185 0.48462 0.71704 0.51100
C 	C 	0.48185 0.51538 0.71704 0.51500
C 	C 	0.51815 0.01538 0.21704 0.51500
C 	C 	0.51815 0.48462 0.28296 0.51600
C 	C 	0.75000 0.69030 -0.00000 0.39100
C 	C 	0.01815 0.51538 0.28296 0.51400
C 	C 	0.01815 0.98462 0.21704 0.49300
C 	C 	0.48185 0.98462 0.78296 0.51200
C 	C 	0.25000 0.19030 0.50000 0.49600
C 	C 	0.98185 0.01538 0.78296 0.48800
C 	C 	0.75000 0.80970 0.50000 0.49600
C 	C 	0.25000 0.30970 -0.00000 0.38600
O 	O 	0.59674 0.91622 0.81949 -0.41100
O 	O 	0.40326 0.08378 0.18051 -0.43400
O 	O 	0.74494 0.87033 0.59234 -0.41300
O 	O 	0.55627 0.88812 0.19164 -0.41600
O 	O 	0.09674 0.41622 0.68051 -0.42200
O 	O 	0.75506 0.87033 0.40766 -0.41200
O 	O 	0.44373 0.38812 0.69164 -0.40700
O 	O 	0.25506 0.37033 0.09234 -0.39800
O 	O 	0.74494 0.62967 0.90766 -0.34700
O 	O 	0.24494 0.12967 0.59234 -0.41200
O 	O 	0.09674 0.08378 0.81949 -0.39900
O 	O 	0.05627 0.11188 0.19164 -0.40700
O 	O 	0.25506 0.12967 0.40766 -0.41300
O 	O 	0.90326 0.91622 0.18051 -0.42400
O 	O 	0.40326 0.41622 0.31949 -0.42800
O 	O 	0.94373 0.88812 0.80836 -0.38600
O 	O 	0.44373 0.11188 0.80836 -0.39500
O 	O 	0.75506 0.62967 0.09234 -0.39800
O 	O 	0.24494 0.37033 0.90766 -0.34400
O 	O 	0.05627 0.38812 0.30836 -0.41000
O 	O 	0.55627 0.61188 0.30836 -0.41100
O 	O 	0.94373 0.61188 0.69164 -0.40500
O 	O 	0.59674 0.58378 0.68051 -0.42500
O 	O 	0.90326 0.58378 0.31949 -0.42700
