data_crystal

_cell_length_a 14.20890
_cell_length_b 14.20890
_cell_length_c 14.20890
_cell_angle_alpha 60.00000
_cell_angle_beta  60.00000
_cell_angle_gamma 60.00000

_symmetry_space_group_name_	'P 1'
_symmetry_space_group_name_H-M	'P 1'

loop_
_symmetry_equiv_pos_as_xyz
  x,y,z

loop_
_atom_site_label
_atom_site_type_symbol
_atom_site_fract_x
_atom_site_fract_y
_atom_site_fract_z
_atom_site_charge
Zn	Zn	0.19397 0.19397 0.41809 1.14100
Zn	Zn	0.19397 0.41809 0.19397 1.14100
Zn	Zn	0.41809 0.19397 0.19397 1.14100
Zn	Zn	0.80633 0.80633 0.80633 1.23600
Zn	Zn	0.80633 0.58101 0.80633 1.23600
Zn	Zn	0.80633 0.80633 0.58101 1.23600
Zn	Zn	0.19397 0.19397 0.19397 1.13800
Zn	Zn	0.58101 0.80633 0.80633 1.23600
H 	H 	0.02590 0.33710 0.61030 -0.06400
H 	H 	0.02670 0.02590 0.61030 -0.03600
H 	H 	0.02670 0.61030 0.33710 -0.06400
H 	H 	0.61030 0.33710 0.02670 -0.06400
H 	H 	0.02670 0.33710 0.02590 -0.04200
H 	H 	0.61030 0.02590 0.33710 -0.06400
H 	H 	0.02590 0.61030 0.02670 -0.03600
H 	H 	0.33710 0.02590 0.02670 -0.04200
H 	H 	0.33710 0.02670 0.61030 -0.06400
H 	H 	0.33710 0.61030 0.02590 -0.06400
H 	H 	0.61030 0.02670 0.02590 -0.03600
H 	H 	0.02590 0.02670 0.33710 -0.04200
C 	C 	0.57030 0.92970 0.92970 0.53900
C 	C 	0.04100 0.04060 0.53220 0.02700
C 	C 	0.53220 0.04060 0.38620 0.14200
C 	C 	0.57030 0.92970 0.57030 0.60200
C 	C 	0.99990 0.99990 0.50010 -0.10600
C 	C 	0.57030 0.57030 0.92970 0.60200
C 	C 	0.50010 0.99990 0.99990 -0.10600
C 	C 	0.04060 0.38620 0.53220 0.14200
C 	C 	0.04060 0.04100 0.38620 0.02700
C 	C 	0.38620 0.04060 0.04100 0.02700
C 	C 	0.92970 0.92970 0.57030 0.53900
C 	C 	0.53220 0.04100 0.04060 0.02700
C 	C 	0.04100 0.53220 0.38620 0.14200
C 	C 	0.99990 0.50010 0.50010 -0.26400
C 	C 	0.50010 0.99990 0.50010 -0.26400
C 	C 	0.38620 0.53220 0.04060 0.14200
C 	C 	0.92970 0.57030 0.92970 0.53900
C 	C 	0.99990 0.50010 0.99990 -0.10600
C 	C 	0.53220 0.38620 0.04100 0.14200
C 	C 	0.04100 0.38620 0.04060 0.02700
C 	C 	0.04060 0.53220 0.04100 0.02700
C 	C 	0.92970 0.57030 0.57030 0.60200
C 	C 	0.50010 0.50010 0.99990 -0.26400
C 	C 	0.38620 0.04100 0.53220 0.14200
N 	N 	0.10120 0.10140 0.44720 -0.28200
N 	N 	0.10120 0.35020 0.10140 -0.28300
N 	N 	0.35020 0.44720 0.10140 -0.30000
N 	N 	0.10140 0.44720 0.10120 -0.28200
N 	N 	0.10140 0.10120 0.35020 -0.28300
N 	N 	0.44720 0.35020 0.10120 -0.30000
N 	N 	0.35020 0.10140 0.10120 -0.28300
N 	N 	0.44720 0.10120 0.10140 -0.28200
N 	N 	0.10120 0.44720 0.35020 -0.30000
N 	N 	0.35020 0.10120 0.44720 -0.30000
N 	N 	0.44720 0.10140 0.35020 -0.30000
N 	N 	0.10140 0.35020 0.44720 -0.30000
O 	O 	0.53410 0.89550 0.67430 -0.58100
O 	O 	0.89610 0.53410 0.67430 -0.58100
O 	O 	0.89610 0.67430 0.89550 -0.55300
O 	O 	0.53410 0.67430 0.89610 -0.58100
O 	O 	0.89550 0.67430 0.53410 -0.58100
O 	O 	0.67430 0.89550 0.89610 -0.55300
O 	O 	0.67430 0.89610 0.53410 -0.58100
O 	O 	0.53410 0.89610 0.89550 -0.55600
O 	O 	0.25000 0.25000 0.25000 -1.01100
O 	O 	0.89550 0.89610 0.67430 -0.55300
O 	O 	0.89550 0.53410 0.89610 -0.55600
O 	O 	0.89610 0.89550 0.53410 -0.55600
O 	O 	0.67430 0.53410 0.89550 -0.58100
O 	O 	0.75000 0.75000 0.75000 -0.89500
