data_crystal

_cell_length_a 8.52200
_cell_length_b 9.05400
_cell_length_c 11.98770
_cell_angle_alpha 90.00000
_cell_angle_beta  90.00000
_cell_angle_gamma 90.00000

_symmetry_space_group_name_	'P 1'
_symmetry_space_group_name_H-M	'P 1'

loop_
_symmetry_equiv_pos_as_xyz
  x,y,z

loop_
_atom_site_label
_atom_site_type_symbol
_atom_site_fract_x
_atom_site_fract_y
_atom_site_fract_z
_atom_site_charge
Mn	Mn	0.24866 0.25000 0.75000 1.33400
Mn	Mn	0.75134 0.75000 0.25000 1.33200
Mn	Mn	0.25134 0.25000 0.25000 1.33200
Mn	Mn	0.74866 0.75000 0.75000 1.33400
H 	H 	0.58280 0.06430 0.26800 -0.12500
H 	H 	0.41720 0.56430 0.76800 -0.11800
H 	H 	0.41720 0.93570 0.73200 -0.12000
H 	H 	0.91720 0.06430 0.73200 -0.11400
H 	H 	0.58280 0.43570 0.23200 -0.12800
H 	H 	0.25000 0.20740 -0.00000 -0.10100
H 	H 	0.25000 0.29260 0.50000 -0.11700
H 	H 	0.08280 0.93570 0.26800 -0.11900
H 	H 	0.75000 0.79260 -0.00000 -0.10200
H 	H 	0.75000 0.70740 0.50000 -0.11700
H 	H 	0.91720 0.43570 0.76800 -0.11800
H 	H 	0.08280 0.56430 0.23200 -0.12800
C 	C 	0.75000 0.68990 -0.00000 0.38800
C 	C 	0.25000 0.31010 -0.00000 0.38400
C 	C 	0.01933 0.98457 0.21679 0.48700
C 	C 	0.48067 0.51543 0.71679 0.50900
C 	C 	0.51933 0.01543 0.21679 0.50900
C 	C 	0.48067 0.98457 0.78321 0.50600
C 	C 	0.98067 0.48457 0.71679 0.50500
C 	C 	0.51933 0.48457 0.28321 0.51000
C 	C 	0.01933 0.51543 0.28321 0.50800
C 	C 	0.75000 0.81010 0.50000 0.49200
C 	C 	0.25000 0.18990 0.50000 0.49200
C 	C 	0.98067 0.01543 0.78321 0.48300
O 	O 	0.24400 0.37113 0.90761 -0.34300
O 	O 	0.90415 0.58391 0.32009 -0.42400
O 	O 	0.25600 0.12887 0.40761 -0.41100
O 	O 	0.09585 0.08391 0.82009 -0.39800
O 	O 	0.25600 0.37113 0.09239 -0.39600
O 	O 	0.09585 0.41609 0.67991 -0.42000
O 	O 	0.75600 0.62887 0.09239 -0.39700
O 	O 	0.55691 0.61228 0.30868 -0.40900
O 	O 	0.75600 0.87113 0.40761 -0.41100
O 	O 	0.90415 0.91609 0.17991 -0.42200
O 	O 	0.44309 0.11228 0.80868 -0.39300
O 	O 	0.74400 0.87113 0.59239 -0.41100
O 	O 	0.40415 0.41609 0.32009 -0.42600
O 	O 	0.44309 0.38772 0.69132 -0.40400
O 	O 	0.55691 0.88772 0.19132 -0.41400
O 	O 	0.59585 0.58391 0.67991 -0.42300
O 	O 	0.94309 0.88772 0.80868 -0.38400
O 	O 	0.74400 0.62887 0.90761 -0.34600
O 	O 	0.24400 0.12887 0.59239 -0.41000
O 	O 	0.59585 0.91609 0.82009 -0.40900
O 	O 	0.94309 0.61228 0.69132 -0.40300
O 	O 	0.05691 0.38772 0.30868 -0.40800
O 	O 	0.40415 0.08391 0.17991 -0.43200
O 	O 	0.05691 0.11228 0.19132 -0.40400
