data_crystal

_cell_length_a 8.56110
_cell_length_b 9.04260
_cell_length_c 12.02040
_cell_angle_alpha 90.00000
_cell_angle_beta  90.00000
_cell_angle_gamma 90.00000

_symmetry_space_group_name_	'P 1'
_symmetry_space_group_name_H-M	'P 1'

loop_
_symmetry_equiv_pos_as_xyz
  x,y,z

loop_
_atom_site_label
_atom_site_type_symbol
_atom_site_fract_x
_atom_site_fract_y
_atom_site_fract_z
_atom_site_charge
Mn	Mn	0.24850 0.25000 0.25000 1.33300
Mn	Mn	0.75150 0.75000 0.75000 1.33400
Mn	Mn	0.74850 0.75000 0.25000 1.33300
Mn	Mn	0.25150 0.25000 0.75000 1.33500
H 	H 	0.07910 0.56460 0.23090 -0.13300
H 	H 	0.07910 0.93540 0.26910 -0.12400
H 	H 	0.42090 0.93540 0.73090 -0.12500
H 	H 	0.57910 0.06460 0.26910 -0.13000
H 	H 	0.75000 0.79430 -0.00000 -0.10500
H 	H 	0.75000 0.70570 0.50000 -0.12100
H 	H 	0.25000 0.29430 0.50000 -0.12100
H 	H 	0.92090 0.43540 0.76910 -0.12200
H 	H 	0.92090 0.06460 0.73090 -0.11800
H 	H 	0.57910 0.43540 0.23090 -0.13400
H 	H 	0.25000 0.20570 -0.00000 -0.10400
H 	H 	0.42090 0.56460 0.76910 -0.12300
C 	C 	0.01640 0.98446 0.21776 0.50400
C 	C 	0.01640 0.51554 0.28224 0.52500
C 	C 	0.98360 0.48446 0.71776 0.52200
C 	C 	0.51640 0.01554 0.21776 0.52700
C 	C 	0.25000 0.19140 0.50000 0.50600
C 	C 	0.25000 0.30860 -0.00000 0.39300
C 	C 	0.98360 0.01554 0.78224 0.49800
C 	C 	0.75000 0.80860 0.50000 0.50600
C 	C 	0.48360 0.51554 0.71776 0.52700
C 	C 	0.75000 0.69140 -0.00000 0.39800
C 	C 	0.48360 0.98446 0.78224 0.52300
C 	C 	0.51640 0.48446 0.28224 0.52800
O 	O 	0.75356 0.63086 0.09187 -0.40100
O 	O 	0.55517 0.61092 0.30792 -0.41600
O 	O 	0.59822 0.58331 0.68159 -0.42900
O 	O 	0.55517 0.88908 0.19208 -0.42100
O 	O 	0.44483 0.11092 0.80792 -0.39900
O 	O 	0.25356 0.36914 0.09187 -0.40000
O 	O 	0.90178 0.91669 0.18159 -0.42700
O 	O 	0.24644 0.36914 0.90813 -0.34500
O 	O 	0.59822 0.91669 0.81841 -0.41500
O 	O 	0.44483 0.38908 0.69208 -0.41100
O 	O 	0.74644 0.63086 0.90813 -0.34900
O 	O 	0.05517 0.11092 0.19208 -0.41100
O 	O 	0.40178 0.08331 0.18159 -0.43800
O 	O 	0.94483 0.88908 0.80792 -0.39000
O 	O 	0.09822 0.41669 0.68159 -0.42600
O 	O 	0.09822 0.08331 0.81841 -0.40300
O 	O 	0.24644 0.13086 0.59187 -0.41600
O 	O 	0.25356 0.13086 0.40813 -0.41600
O 	O 	0.74644 0.86914 0.59187 -0.41600
O 	O 	0.90178 0.58331 0.31841 -0.43100
O 	O 	0.05517 0.38908 0.30792 -0.41400
O 	O 	0.75356 0.86914 0.40813 -0.41600
O 	O 	0.40178 0.41669 0.31841 -0.43200
O 	O 	0.94483 0.61092 0.69208 -0.41000
