data_crystal

_cell_length_a 31.13420
_cell_length_b 31.13420
_cell_length_c 16.90890
_cell_angle_alpha 90.00000
_cell_angle_beta  90.00000
_cell_angle_gamma 120.00000

_symmetry_space_group_name_	'P 1'
_symmetry_space_group_name_H-M	'P 1'

loop_
_symmetry_equiv_pos_as_xyz
  x,y,z

loop_
_atom_site_label
_atom_site_type_symbol
_atom_site_fract_x
_atom_site_fract_y
_atom_site_fract_z
_atom_site_charge
O 	O 	0.25310 0.66285 0.42024 -0.45300
C 	C 	0.18330 0.55225 0.29574 0.03400
C 	C 	0.14750 0.53435 0.23504 -0.09200
H 	H 	0.19640 0.52785 0.31844 0.02800
H 	H 	0.13370 0.49685 0.21204 0.04600
O 	O 	0.33715 0.59025 0.42024 -0.45300
C 	C 	0.44775 0.63105 0.29574 0.03500
C 	C 	0.46565 0.61315 0.23504 -0.09300
H 	H 	0.47215 0.66855 0.31844 0.02800
H 	H 	0.50315 0.63685 0.21204 0.04600
O 	O 	0.40975 0.74690 0.42024 -0.45300
C 	C 	0.36895 0.81670 0.29574 0.03400
C 	C 	0.38685 0.85250 0.23504 -0.09300
H 	H 	0.33145 0.80360 0.31844 0.02800
H 	H 	0.36315 0.86630 0.21204 0.04600
O 	O 	0.74690 0.33715 0.42024 -0.45400
C 	C 	0.81670 0.44775 0.29574 0.03400
C 	C 	0.85250 0.46565 0.23504 -0.09300
H 	H 	0.80360 0.47215 0.31844 0.02800
H 	H 	0.86630 0.50315 0.21204 0.04700
O 	O 	0.66285 0.40975 0.42024 -0.45300
C 	C 	0.55225 0.36895 0.29574 0.03300
C 	C 	0.53435 0.38685 0.23504 -0.09300
H 	H 	0.52785 0.33145 0.31844 0.02700
H 	H 	0.49685 0.36315 0.21204 0.04600
O 	O 	0.59025 0.25310 0.42024 -0.45400
C 	C 	0.63105 0.18330 0.29574 0.03300
C 	C 	0.61315 0.14750 0.23504 -0.09300
H 	H 	0.66855 0.19640 0.31844 0.02700
H 	H 	0.63685 0.13370 0.21204 0.04600
O 	O 	0.66285 0.25310 0.57976 -0.45300
C 	C 	0.55225 0.18330 0.70426 0.03500
C 	C 	0.53435 0.14750 0.76496 -0.09200
H 	H 	0.52785 0.19640 0.68156 0.02900
H 	H 	0.49685 0.13370 0.78796 0.05000
O 	O 	0.59025 0.33715 0.57976 -0.45300
C 	C 	0.63105 0.44775 0.70426 0.03500
C 	C 	0.61315 0.46565 0.76496 -0.09200
H 	H 	0.66855 0.47215 0.68156 0.02900
H 	H 	0.63685 0.50315 0.78796 0.05000
O 	O 	0.74690 0.40975 0.57976 -0.45300
C 	C 	0.81670 0.36895 0.70426 0.03500
C 	C 	0.85250 0.38685 0.76496 -0.09200
H 	H 	0.80360 0.33145 0.68156 0.02900
H 	H 	0.86630 0.36315 0.78796 0.05000
O 	O 	0.33715 0.74690 0.57976 -0.45300
C 	C 	0.44775 0.81670 0.70426 0.03500
C 	C 	0.46565 0.85250 0.76496 -0.09200
H 	H 	0.47215 0.80360 0.68156 0.03000
H 	H 	0.50315 0.86630 0.78796 0.05100
O 	O 	0.40975 0.66285 0.57976 -0.45300
C 	C 	0.36895 0.55225 0.70426 0.03500
C 	C 	0.38685 0.53435 0.76496 -0.09200
H 	H 	0.33145 0.52785 0.68156 0.02900
H 	H 	0.36315 0.49685 0.78796 0.05000
O 	O 	0.25310 0.59025 0.57976 -0.45300
C 	C 	0.18330 0.63105 0.70426 0.03500
C 	C 	0.14750 0.61315 0.76496 -0.09200
H 	H 	0.19640 0.66855 0.68156 0.02900
H 	H 	0.13370 0.63685 0.78796 0.05000
O 	O 	0.74690 0.33715 0.57976 -0.45300
C 	C 	0.81670 0.44775 0.70426 0.03500
C 	C 	0.85250 0.46565 0.76496 -0.09200
H 	H 	0.80360 0.47215 0.68156 0.03000
H 	H 	0.86630 0.50315 0.78796 0.05100
O 	O 	0.66285 0.40975 0.57976 -0.45300
C 	C 	0.55225 0.36895 0.70426 0.03500
C 	C 	0.53435 0.38685 0.76496 -0.09200
H 	H 	0.52785 0.33145 0.68156 0.02900
H 	H 	0.49685 0.36315 0.78796 0.05000
O 	O 	0.59025 0.25310 0.57976 -0.45300
C 	C 	0.63105 0.18330 0.70426 0.03500
C 	C 	0.61315 0.14750 0.76496 -0.09200
H 	H 	0.66855 0.19640 0.68156 0.02900
H 	H 	0.63685 0.13370 0.78796 0.05000
O 	O 	0.25310 0.66285 0.57976 -0.45300
C 	C 	0.18330 0.55225 0.70426 0.03500
C 	C 	0.14750 0.53435 0.76496 -0.09200
H 	H 	0.19640 0.52785 0.68156 0.02900
H 	H 	0.13370 0.49685 0.78796 0.05000
O 	O 	0.33715 0.59025 0.57976 -0.45300
C 	C 	0.44775 0.63105 0.70426 0.03500
C 	C 	0.46565 0.61315 0.76496 -0.09200
H 	H 	0.47215 0.66855 0.68156 0.02900
H 	H 	0.50315 0.63685 0.78796 0.05000
O 	O 	0.40975 0.74690 0.57976 -0.45300
C 	C 	0.36895 0.81670 0.70426 0.03500
C 	C 	0.38685 0.85250 0.76496 -0.09200
H 	H 	0.33145 0.80360 0.68156 0.02900
H 	H 	0.36315 0.86630 0.78796 0.05000
O 	O 	0.33715 0.74690 0.42024 -0.45400
C 	C 	0.44775 0.81670 0.29574 0.03400
C 	C 	0.46565 0.85250 0.23504 -0.09300
H 	H 	0.47215 0.80360 0.31844 0.02800
H 	H 	0.50315 0.86630 0.21204 0.04700
O 	O 	0.40975 0.66285 0.42024 -0.45300
C 	C 	0.36895 0.55225 0.29574 0.03300
C 	C 	0.38685 0.53435 0.23504 -0.09300
H 	H 	0.33145 0.52785 0.31844 0.02700
H 	H 	0.36315 0.49685 0.21204 0.04600
O 	O 	0.25310 0.59025 0.42024 -0.45400
C 	C 	0.18330 0.63105 0.29574 0.03300
C 	C 	0.14750 0.61315 0.23504 -0.09300
H 	H 	0.19640 0.66855 0.31844 0.02700
H 	H 	0.13370 0.63685 0.21204 0.04600
O 	O 	0.66285 0.25310 0.42024 -0.45400
C 	C 	0.55225 0.18330 0.29574 0.03300
C 	C 	0.53435 0.14750 0.23504 -0.09300
H 	H 	0.52785 0.19640 0.31844 0.02700
H 	H 	0.49685 0.13370 0.21204 0.04500
O 	O 	0.59025 0.33715 0.42024 -0.45400
C 	C 	0.63105 0.44775 0.29574 0.03400
C 	C 	0.61315 0.46565 0.23504 -0.09300
H 	H 	0.66855 0.47215 0.31844 0.02800
H 	H 	0.63685 0.50315 0.21204 0.04600
O 	O 	0.74690 0.40975 0.42024 -0.45300
C 	C 	0.81670 0.36895 0.29574 0.03400
C 	C 	0.85250 0.38685 0.23504 -0.09300
H 	H 	0.80360 0.33145 0.31844 0.02800
H 	H 	0.86630 0.36315 0.21204 0.04600
Fe	Fe	0.29779 0.70221 0.50000 1.26800
Fe	Fe	0.29779 0.59559 0.50000 1.26800
Fe	Fe	0.40441 0.70221 0.50000 1.26800
Fe	Fe	0.70221 0.29779 0.50000 1.26800
Fe	Fe	0.70221 0.40441 0.50000 1.26800
Fe	Fe	0.59559 0.29779 0.50000 1.26800
O 	O 	0.33333 0.66667 0.50000 -0.62000
O 	O 	0.66667 0.33333 0.50000 -0.62000
Co	Co	-0.00000 0.50000 -0.00000 1.10500
Co	Co	0.50000 0.50000 -0.00000 1.10600
Co	Co	0.50000 0.00000 -0.00000 1.10500
C 	C 	0.23830 0.61915 0.39314 0.38800
C 	C 	0.20150 0.60075 0.32724 -0.12100
C 	C 	0.12930 0.56465 0.20474 0.07300
C 	C 	0.08990 0.54495 0.14224 -0.13100
C 	C 	0.10390 0.55195 0.06344 0.09300
C 	C 	0.15390 0.57695 0.04024 -0.09900
C 	C 	0.04010 0.52005 0.16424 0.08800
C 	C 	0.02550 0.51275 0.24304 -0.07500
H 	H 	0.18710 0.59355 0.07744 0.05100
H 	H 	0.04890 0.52445 0.29554 0.04800
C 	C 	0.38085 0.61915 0.39314 0.38800
C 	C 	0.39925 0.60075 0.32724 -0.12100
C 	C 	0.43535 0.56465 0.20474 0.07200
C 	C 	0.45505 0.54495 0.14224 -0.13000
C 	C 	0.44805 0.55195 0.06344 0.09300
C 	C 	0.42305 0.57695 0.04024 -0.09800
C 	C 	0.47995 0.52005 0.16424 0.08700
C 	C 	0.48725 0.51275 0.24304 -0.06800
H 	H 	0.40645 0.59355 0.07744 0.05100
H 	H 	0.47555 0.52445 0.29554 0.04700
C 	C 	0.38085 0.76170 0.39314 0.38800
C 	C 	0.39925 0.79850 0.32724 -0.12100
C 	C 	0.43535 0.87070 0.20474 0.07300
C 	C 	0.45505 0.91010 0.14224 -0.13000
C 	C 	0.44805 0.89610 0.06344 0.09400
C 	C 	0.42305 0.84610 0.04024 -0.09800
C 	C 	0.47995 0.95990 0.16424 0.09000
C 	C 	0.48725 0.97450 0.24304 -0.06100
H 	H 	0.40645 0.81290 0.07744 0.05100
H 	H 	0.47555 0.95110 0.29554 0.04700
C 	C 	0.76170 0.38085 0.39314 0.38800
C 	C 	0.79850 0.39925 0.32724 -0.12100
C 	C 	0.87070 0.43535 0.20474 0.07300
C 	C 	0.91010 0.45505 0.14224 -0.13000
C 	C 	0.89610 0.44805 0.06344 0.09400
C 	C 	0.84610 0.42305 0.04024 -0.09800
C 	C 	0.95990 0.47995 0.16424 0.09000
C 	C 	0.97450 0.48725 0.24304 -0.06100
H 	H 	0.81290 0.40645 0.07744 0.05100
H 	H 	0.95110 0.47555 0.29554 0.04700
C 	C 	0.61915 0.38085 0.39314 0.38800
C 	C 	0.60075 0.39925 0.32724 -0.12100
C 	C 	0.56465 0.43535 0.20474 0.07200
C 	C 	0.54495 0.45505 0.14224 -0.13000
C 	C 	0.55195 0.44805 0.06344 0.09300
C 	C 	0.57695 0.42305 0.04024 -0.09800
C 	C 	0.52005 0.47995 0.16424 0.08700
C 	C 	0.51275 0.48725 0.24304 -0.06800
H 	H 	0.59355 0.40645 0.07744 0.05100
H 	H 	0.52445 0.47555 0.29554 0.04700
C 	C 	0.61915 0.23830 0.39314 0.38800
C 	C 	0.60075 0.20150 0.32724 -0.12100
C 	C 	0.56465 0.12930 0.20474 0.07300
C 	C 	0.54495 0.08990 0.14224 -0.13100
C 	C 	0.55195 0.10390 0.06344 0.09300
C 	C 	0.57695 0.15390 0.04024 -0.09900
C 	C 	0.52005 0.04010 0.16424 0.08800
C 	C 	0.51275 0.02550 0.24304 -0.07500
H 	H 	0.59355 0.18710 0.07744 0.05100
H 	H 	0.52445 0.04890 0.29554 0.04800
C 	C 	0.61915 0.23830 0.60686 0.38800
C 	C 	0.60075 0.20150 0.67276 -0.12100
C 	C 	0.56465 0.12930 0.79526 0.07300
C 	C 	0.54495 0.08990 0.85776 -0.12800
C 	C 	0.55195 0.10390 0.93656 0.10000
C 	C 	0.57695 0.15390 0.95976 -0.03700
C 	C 	0.52005 0.04010 0.83576 0.09200
C 	C 	0.51275 0.02550 0.75696 -0.07400
H 	H 	0.59355 0.18710 0.92256 0.04500
H 	H 	0.52445 0.04890 0.70446 0.04800
C 	C 	0.61915 0.38085 0.60686 0.38800
C 	C 	0.60075 0.39925 0.67276 -0.12000
C 	C 	0.56465 0.43535 0.79526 0.07300
C 	C 	0.54495 0.45505 0.85776 -0.12700
C 	C 	0.55195 0.44805 0.93656 0.10000
C 	C 	0.57695 0.42305 0.95976 -0.03700
C 	C 	0.52005 0.47995 0.83576 0.09100
C 	C 	0.51275 0.48725 0.75696 -0.06700
H 	H 	0.59355 0.40645 0.92256 0.04500
H 	H 	0.52445 0.47555 0.70446 0.04800
C 	C 	0.76170 0.38085 0.60686 0.38800
C 	C 	0.79850 0.39925 0.67276 -0.12000
C 	C 	0.87070 0.43535 0.79526 0.07300
C 	C 	0.91010 0.45505 0.85776 -0.12700
C 	C 	0.89610 0.44805 0.93656 0.10100
C 	C 	0.84610 0.42305 0.95976 -0.03700
C 	C 	0.95990 0.47995 0.83576 0.09400
C 	C 	0.97450 0.48725 0.75696 -0.06000
H 	H 	0.81290 0.40645 0.92256 0.04500
H 	H 	0.95110 0.47555 0.70446 0.04700
C 	C 	0.38085 0.76170 0.60686 0.38800
C 	C 	0.39925 0.79850 0.67276 -0.12000
C 	C 	0.43535 0.87070 0.79526 0.07300
C 	C 	0.45505 0.91010 0.85776 -0.12700
C 	C 	0.44805 0.89610 0.93656 0.10100
C 	C 	0.42305 0.84610 0.95976 -0.03700
C 	C 	0.47995 0.95990 0.83576 0.09400
C 	C 	0.48725 0.97450 0.75696 -0.06000
H 	H 	0.40645 0.81290 0.92256 0.04500
H 	H 	0.47555 0.95110 0.70446 0.04700
C 	C 	0.38085 0.61915 0.60686 0.38800
C 	C 	0.39925 0.60075 0.67276 -0.12000
C 	C 	0.43535 0.56465 0.79526 0.07300
C 	C 	0.45505 0.54495 0.85776 -0.12700
C 	C 	0.44805 0.55195 0.93656 0.10000
C 	C 	0.42305 0.57695 0.95976 -0.03700
C 	C 	0.47995 0.52005 0.83576 0.09100
C 	C 	0.48725 0.51275 0.75696 -0.06700
H 	H 	0.40645 0.59355 0.92256 0.04500
H 	H 	0.47555 0.52445 0.70446 0.04800
C 	C 	0.23830 0.61915 0.60686 0.38800
C 	C 	0.20150 0.60075 0.67276 -0.12100
C 	C 	0.12930 0.56465 0.79526 0.07300
C 	C 	0.08990 0.54495 0.85776 -0.12800
C 	C 	0.10390 0.55195 0.93656 0.10000
C 	C 	0.15390 0.57695 0.95976 -0.03700
C 	C 	0.04010 0.52005 0.83576 0.09200
C 	C 	0.02550 0.51275 0.75696 -0.07400
H 	H 	0.18710 0.59355 0.92256 0.04500
H 	H 	0.04890 0.52445 0.70446 0.04800
N 	N 	0.07210 0.53605 -0.00000 -0.30200
N 	N 	0.46395 0.53605 -0.00000 -0.30200
N 	N 	0.46395 0.92790 -0.00000 -0.30000
N 	N 	0.92790 0.46395 -0.00000 -0.30000
N 	N 	0.53605 0.46395 -0.00000 -0.30200
N 	N 	0.53605 0.07210 -0.00000 -0.30200
N 	N 	-0.00000 0.50000 0.11394 -0.29600
N 	N 	0.50000 0.50000 0.11394 -0.29200
N 	N 	0.50000 -0.00000 0.11394 -0.29600
N 	N 	0.50000 0.00000 0.88606 -0.28800
N 	N 	0.50000 0.50000 0.88606 -0.28500
N 	N 	-0.00000 0.50000 0.88606 -0.28800
