data_crystal

_cell_length_a 8.55380
_cell_length_b 9.04570
_cell_length_c 12.00960
_cell_angle_alpha 90.00000
_cell_angle_beta  90.00000
_cell_angle_gamma 90.00000

_symmetry_space_group_name_	'P 1'
_symmetry_space_group_name_H-M	'P 1'

loop_
_symmetry_equiv_pos_as_xyz
  x,y,z

loop_
_atom_site_label
_atom_site_type_symbol
_atom_site_fract_x
_atom_site_fract_y
_atom_site_fract_z
_atom_site_charge
Mn	Mn	0.74906 0.75000 0.25000 1.33400
Mn	Mn	0.75094 0.75000 0.75000 1.33400
Mn	Mn	0.25094 0.25000 0.75000 1.33400
Mn	Mn	0.24906 0.25000 0.25000 1.33200
H 	H 	0.42000 0.93530 0.73140 -0.12400
H 	H 	0.75000 0.79380 -0.00000 -0.10500
H 	H 	0.08000 0.93530 0.26860 -0.12300
H 	H 	0.58000 0.06470 0.26860 -0.12900
H 	H 	0.08000 0.56470 0.23140 -0.13200
H 	H 	0.25000 0.20620 -0.00000 -0.10400
H 	H 	0.58000 0.43530 0.23140 -0.13200
H 	H 	0.75000 0.70620 0.50000 -0.12100
H 	H 	0.25000 0.29380 0.50000 -0.12100
H 	H 	0.42000 0.56470 0.76860 -0.12200
H 	H 	0.92000 0.06470 0.73140 -0.11700
H 	H 	0.92000 0.43530 0.76860 -0.12100
C 	C 	0.51698 0.48440 0.28254 0.52400
C 	C 	0.01698 0.51560 0.28254 0.52200
C 	C 	0.25000 0.19100 0.50000 0.50400
C 	C 	0.98302 0.48440 0.71746 0.51800
C 	C 	0.51698 0.01560 0.21746 0.52300
C 	C 	0.48302 0.51560 0.71746 0.52300
C 	C 	0.48302 0.98440 0.78254 0.51900
C 	C 	0.98302 0.01560 0.78254 0.49500
C 	C 	0.01698 0.98440 0.21746 0.50000
C 	C 	0.75000 0.69100 -0.00000 0.39700
C 	C 	0.25000 0.30900 -0.00000 0.39200
C 	C 	0.75000 0.80900 0.50000 0.50400
O 	O 	0.74612 0.86964 0.59196 -0.41500
O 	O 	0.75388 0.63036 0.09196 -0.40000
O 	O 	0.25388 0.36964 0.09196 -0.40000
O 	O 	0.44450 0.38875 0.69194 -0.40900
O 	O 	0.05550 0.38875 0.30806 -0.41300
O 	O 	0.40223 0.08362 0.18130 -0.43700
O 	O 	0.05550 0.11125 0.19194 -0.40900
O 	O 	0.09777 0.41638 0.68130 -0.42500
O 	O 	0.25388 0.13036 0.40804 -0.41500
O 	O 	0.55550 0.88875 0.19194 -0.41900
O 	O 	0.74612 0.63036 0.90804 -0.34900
O 	O 	0.75388 0.86964 0.40804 -0.41500
O 	O 	0.59777 0.58362 0.68130 -0.42800
O 	O 	0.94450 0.61125 0.69194 -0.40800
O 	O 	0.09777 0.08362 0.81870 -0.40200
O 	O 	0.90223 0.91638 0.18130 -0.42600
O 	O 	0.94450 0.88875 0.80806 -0.38800
O 	O 	0.24612 0.36964 0.90804 -0.34500
O 	O 	0.59777 0.91638 0.81870 -0.41400
O 	O 	0.40223 0.41638 0.31870 -0.43100
O 	O 	0.24612 0.13036 0.59196 -0.41500
O 	O 	0.90223 0.58362 0.31870 -0.43000
O 	O 	0.55550 0.61125 0.30806 -0.41400
O 	O 	0.44450 0.11125 0.80806 -0.39700
