data_crystal

_cell_length_a 16.56070
_cell_length_b 16.56070
_cell_length_c 16.56070
_cell_angle_alpha 68.70340
_cell_angle_beta  68.70340
_cell_angle_gamma 68.70340

_symmetry_space_group_name_	'P 1'
_symmetry_space_group_name_H-M	'P 1'

loop_
_symmetry_equiv_pos_as_xyz
  x,y,z

loop_
_atom_site_label
_atom_site_type_symbol
_atom_site_fract_x
_atom_site_fract_y
_atom_site_fract_z
_atom_site_charge
Cu	Cu	0.50599 0.07560 0.50599 0.90900
Cu	Cu	0.50599 0.50599 0.07560 0.90900
Cu	Cu	0.07560 0.50599 0.50599 0.90900
Cu	Cu	0.49401 0.92440 0.49401 0.90900
Cu	Cu	0.92440 0.49401 0.49401 0.90900
Cu	Cu	0.49401 0.49401 0.92440 0.90900
H 	H 	0.88760 0.42470 0.07340 0.00700
H 	H 	0.99980 0.21280 0.51810 0.06500
H 	H 	0.48190 0.78720 0.00020 0.06500
H 	H 	0.23020 0.23020 0.53040 0.05700
H 	H 	0.21280 0.51810 0.99980 0.06500
H 	H 	0.51810 0.21280 0.99980 0.06500
H 	H 	0.99980 0.51810 0.21280 0.06400
H 	H 	0.11240 0.57530 0.92660 0.00600
H 	H 	0.76980 0.46960 0.76980 0.05600
H 	H 	0.42470 0.88760 0.07340 0.00600
H 	H 	0.57530 0.92660 0.11240 0.00600
H 	H 	0.46960 0.76980 0.76980 0.05600
H 	H 	0.11240 0.92660 0.57530 0.00600
H 	H 	0.21280 0.99980 0.51810 0.06400
H 	H 	0.57530 0.11240 0.92660 0.00600
H 	H 	0.07340 0.88760 0.42470 0.00600
H 	H 	0.42470 0.07340 0.88760 0.00600
H 	H 	0.23020 0.53040 0.23020 0.05600
H 	H 	0.48190 0.00020 0.78720 0.06400
H 	H 	0.76980 0.76980 0.46960 0.05600
H 	H 	0.88760 0.07340 0.42470 0.00600
H 	H 	0.00020 0.78720 0.48190 0.06400
H 	H 	0.00020 0.48190 0.78720 0.06400
H 	H 	0.51810 0.99980 0.21280 0.06400
H 	H 	0.07340 0.42470 0.88760 0.00600
H 	H 	0.92660 0.57530 0.11240 0.00600
H 	H 	0.92660 0.11240 0.57530 0.00600
H 	H 	0.78720 0.00020 0.48190 0.06400
H 	H 	0.53040 0.23020 0.23020 0.05600
H 	H 	0.78720 0.48190 0.00020 0.06400
C 	C 	0.09820 0.51570 0.09820 0.01300
C 	C 	0.80270 0.80270 0.47370 0.02100
C 	C 	0.66542 0.48132 0.93242 0.35500
C 	C 	0.76313 0.89103 0.47663 -0.07400
C 	C 	0.54390 0.06860 0.95530 0.11400
C 	C 	0.51570 0.09820 0.09820 0.01300
C 	C 	0.48132 0.93242 0.66542 0.35500
C 	C 	0.51868 0.06758 0.33458 0.35500
C 	C 	0.51884 0.18644 0.05974 -0.02600
C 	C 	0.94026 0.48116 0.81356 -0.02600
C 	C 	0.23687 0.10897 0.52337 -0.07400
C 	C 	0.33458 0.51868 0.06758 0.35500
C 	C 	0.09820 0.09820 0.51570 0.01300
C 	C 	0.47663 0.89103 0.76313 -0.07400
C 	C 	0.04760 0.50740 0.04760 0.02600
C 	C 	0.76313 0.47663 0.89103 -0.07400
C 	C 	0.81356 0.94026 0.48116 -0.02600
C 	C 	0.52337 0.10897 0.23687 -0.07400
C 	C 	0.18644 0.51884 0.05974 -0.02600
C 	C 	0.47663 0.76313 0.89103 -0.07400
C 	C 	0.95240 0.95240 0.49260 0.02600
C 	C 	0.51884 0.05974 0.18644 -0.02600
C 	C 	0.48116 0.81356 0.94026 -0.02600
C 	C 	0.52337 0.23687 0.10897 -0.07400
C 	C 	0.04470 0.45610 0.93140 0.11400
C 	C 	0.93140 0.45610 0.04470 0.11400
C 	C 	0.93242 0.66542 0.48132 0.35500
C 	C 	0.06758 0.51868 0.33458 0.35500
C 	C 	0.81356 0.48116 0.94026 -0.02600
C 	C 	0.10897 0.52337 0.23687 -0.07400
C 	C 	0.06860 0.95530 0.54390 0.11400
C 	C 	0.93242 0.48132 0.66542 0.35500
C 	C 	0.54390 0.95530 0.06860 0.11400
C 	C 	0.89103 0.47663 0.76313 -0.07400
C 	C 	0.04760 0.04760 0.50740 0.02600
C 	C 	0.95530 0.54390 0.06860 0.11400
C 	C 	0.94026 0.81356 0.48116 -0.02600
C 	C 	0.06860 0.54390 0.95530 0.11400
C 	C 	0.05974 0.18644 0.51884 -0.02600
C 	C 	0.04470 0.93140 0.45610 0.11400
C 	C 	0.95530 0.06860 0.54390 0.11400
C 	C 	0.45610 0.04470 0.93140 0.11400
C 	C 	0.05974 0.51884 0.18644 -0.02600
C 	C 	0.66542 0.93242 0.48132 0.35500
C 	C 	0.50740 0.04760 0.04760 0.02600
C 	C 	0.49260 0.95240 0.95240 0.02600
C 	C 	0.93140 0.04470 0.45610 0.11400
C 	C 	0.90180 0.90180 0.48430 0.01300
C 	C 	0.80270 0.47370 0.80270 0.02100
C 	C 	0.48430 0.90180 0.90180 0.01300
C 	C 	0.90180 0.48430 0.90180 0.01300
C 	C 	0.10897 0.23687 0.52337 -0.07400
C 	C 	0.45610 0.93140 0.04470 0.11400
C 	C 	0.52630 0.19730 0.19730 0.02100
C 	C 	0.33458 0.06758 0.51868 0.35500
C 	C 	0.47370 0.80270 0.80270 0.02100
C 	C 	0.95240 0.49260 0.95240 0.02600
C 	C 	0.48116 0.94026 0.81356 -0.02600
C 	C 	0.89103 0.76313 0.47663 -0.07400
C 	C 	0.19730 0.19730 0.52630 0.02100
C 	C 	0.48132 0.66542 0.93242 0.35500
C 	C 	0.18644 0.05974 0.51884 -0.02600
C 	C 	0.06758 0.33458 0.51868 0.35500
C 	C 	0.19730 0.52630 0.19730 0.02100
C 	C 	0.23687 0.52337 0.10897 -0.07400
C 	C 	0.51868 0.33458 0.06758 0.35500
N 	N 	0.46790 0.09250 0.97740 -0.14400
N 	N 	0.97740 0.46790 0.09250 -0.14400
N 	N 	0.09250 0.46790 0.97740 -0.14400
N 	N 	0.90750 0.02260 0.53210 -0.14400
N 	N 	0.53210 0.02260 0.90750 -0.14400
N 	N 	0.97740 0.09250 0.46790 -0.14400
N 	N 	0.02260 0.90750 0.53210 -0.14400
N 	N 	0.02260 0.53210 0.90750 -0.14400
N 	N 	0.46790 0.97740 0.09250 -0.14400
N 	N 	0.90750 0.53210 0.02260 -0.14400
N 	N 	0.09250 0.97740 0.46790 -0.14400
N 	N 	0.53210 0.90750 0.02260 -0.14400
O 	O 	0.98778 0.51278 0.36658 -0.40500
O 	O 	0.37653 0.11583 0.52163 -0.40300
O 	O 	0.48722 0.01222 0.63342 -0.40500
O 	O 	0.51278 0.36658 0.98778 -0.40500
O 	O 	0.63342 0.01222 0.48722 -0.40500
O 	O 	0.47837 0.62347 0.88417 -0.40300
O 	O 	0.48722 0.63342 0.01222 -0.40500
O 	O 	0.98778 0.36658 0.51278 -0.40500
O 	O 	0.01222 0.48722 0.63342 -0.40500
O 	O 	0.36658 0.98778 0.51278 -0.40500
O 	O 	0.52163 0.11583 0.37653 -0.40300
O 	O 	0.51278 0.98778 0.36658 -0.40500
O 	O 	0.37653 0.52163 0.11583 -0.40300
O 	O 	0.52163 0.37653 0.11583 -0.40300
O 	O 	0.62347 0.47837 0.88417 -0.40300
O 	O 	0.62347 0.88417 0.47837 -0.40300
O 	O 	0.88417 0.47837 0.62347 -0.40300
O 	O 	0.11583 0.52163 0.37653 -0.40300
O 	O 	0.63342 0.48722 0.01222 -0.40500
O 	O 	0.01222 0.63342 0.48722 -0.40500
O 	O 	0.88417 0.62347 0.47837 -0.40300
O 	O 	0.36658 0.51278 0.98778 -0.40500
O 	O 	0.11583 0.37653 0.52163 -0.40300
O 	O 	0.47837 0.88417 0.62347 -0.40300
