data_crystal

_cell_length_a 17.80900
_cell_length_b 17.81200
_cell_length_c 17.83100
_cell_angle_alpha 90.03100
_cell_angle_beta  89.99900
_cell_angle_gamma 90.18200

_symmetry_space_group_name_	'P 1'
_symmetry_space_group_name_H-M	'P 1'

loop_
_symmetry_equiv_pos_as_xyz
  x,y,z

loop_
_atom_site_label
_atom_site_type_symbol
_atom_site_fract_x
_atom_site_fract_y
_atom_site_fract_z
_atom_site_charge
Zr	Zr	0.48933 0.86237 0.01100 3.24800
Zr	Zr	0.01060 0.86228 0.48896 3.23900
Zr	Zr	0.51067 0.13763 0.98900 3.24600
Zr	Zr	0.48907 0.51056 0.63770 3.23900
Zr	Zr	0.51050 0.36226 0.51123 3.23800
Zr	Zr	0.86232 0.98882 0.51041 3.24700
Zr	Zr	0.98902 0.48953 0.13765 3.24800
Zr	Zr	0.13761 0.48889 0.01054 3.24200
Zr	Zr	0.01098 0.51047 0.86235 3.24900
Zr	Zr	0.63767 0.98908 0.98952 3.24000
Zr	Zr	0.98940 0.13772 0.51104 3.23900
Zr	Zr	0.63777 0.51099 0.51040 3.23900
Zr	Zr	0.13768 0.01118 0.48959 3.24800
Zr	Zr	0.51093 0.48944 0.36230 3.23900
Zr	Zr	0.98939 0.36220 0.98894 3.24200
Zr	Zr	0.36223 0.48901 0.48960 3.23900
Zr	Zr	0.01095 0.98952 0.63764 3.23800
Zr	Zr	0.01061 0.63780 0.01106 3.24300
Zr	Zr	0.86239 0.51111 0.98946 3.24100
Zr	Zr	0.48950 0.63774 0.48877 3.23800
Zr	Zr	0.48893 0.98954 0.86231 3.24200
Zr	Zr	0.36233 0.01092 0.01048 3.24200
Zr	Zr	0.51107 0.01046 0.13769 3.24300
Zr	Zr	0.98905 0.01048 0.36236 3.23900
H 	H 	0.30660 0.01480 0.30390 0.11400
H 	H 	0.80590 0.19570 0.99250 0.11300
H 	H 	0.69500 0.99870 0.30720 0.10500
H 	H 	0.80530 0.00350 0.19140 0.12000
H 	H 	0.50120 0.80600 0.30430 0.11400
H 	H 	0.69460 0.19300 0.52140 0.12100
H 	H 	0.30540 0.80700 0.47860 0.11900
H 	H 	0.30500 0.00130 0.69280 0.11600
H 	H 	0.51650 0.30400 0.19420 0.10500
H 	H 	0.69380 0.30450 0.97710 0.10300
H 	H 	0.69260 0.69640 0.99870 0.10600
H 	H 	0.99930 0.30920 0.69410 0.10600
H 	H 	0.19350 0.01190 0.19740 0.11400
H 	H 	0.99940 0.80670 0.19520 0.12100
H 	H 	0.00060 0.19330 0.80480 0.12100
H 	H 	0.01070 0.69630 0.69160 0.11700
H 	H 	0.19200 0.19240 0.00210 0.10700
H 	H 	0.19470 0.99650 0.80860 0.09400
H 	H 	0.80800 0.80760 0.99790 0.08500
H 	H 	0.49620 0.69160 0.19540 0.11300
H 	H 	0.30640 0.49780 0.80840 0.10700
H 	H 	0.80450 0.30550 0.51200 0.10600
H 	H 	0.00070 0.69080 0.30590 0.10600
H 	H 	0.80730 0.69510 0.50160 0.10600
H 	H 	0.69160 0.51830 0.80420 0.11400
H 	H 	0.02120 0.80380 0.80810 0.11000
H 	H 	0.69410 0.80330 0.50310 0.11700
H 	H 	0.48730 0.80430 0.69380 0.11500
H 	H 	0.80650 0.98810 0.80260 0.11200
H 	H 	0.80500 0.52010 0.69540 0.10600
H 	H 	0.19270 0.30490 0.49840 0.10600
H 	H 	0.50380 0.30840 0.80460 0.11200
H 	H 	0.97880 0.19620 0.19190 0.11100
H 	H 	0.19340 0.50030 0.69100 0.12100
H 	H 	0.19410 0.80430 0.00750 0.11300
H 	H 	0.30740 0.30360 0.00130 0.11200
H 	H 	0.48350 0.69600 0.80580 0.10400
H 	H 	0.30620 0.69550 0.02290 0.10400
H 	H 	0.51270 0.19570 0.30620 0.11600
H 	H 	0.80660 0.49970 0.30900 0.12100
H 	H 	0.98930 0.30370 0.30840 0.11700
H 	H 	0.19500 0.47990 0.30460 0.10600
H 	H 	0.30590 0.19670 0.49690 0.11800
H 	H 	0.19550 0.69450 0.48800 0.10600
H 	H 	0.69360 0.50220 0.19160 0.10800
H 	H 	0.69340 0.98520 0.69610 0.11300
H 	H 	0.49880 0.19400 0.69570 0.11500
H 	H 	0.30840 0.48170 0.19580 0.11400
C 	C 	0.24500 0.71400 0.48500 -0.10700
C 	C 	0.21300 0.01500 0.24670 -0.13200
C 	C 	0.75700 0.50100 0.28970 -0.15500
C 	C 	0.69200 0.50300 0.34010 0.42100
C 	C 	0.48000 0.81000 0.84100 0.39300
C 	C 	0.49600 0.15960 0.80800 0.40500
C 	C 	0.78700 0.98500 0.75330 -0.13400
C 	C 	0.50400 0.66170 0.30920 0.40800
C 	C 	0.33970 0.30900 0.50600 0.43200
C 	C 	0.84000 0.80900 0.49800 0.39100
C 	C 	0.80920 0.50400 0.15980 0.38100
C 	C 	0.28800 0.48200 0.24500 -0.13300
C 	C 	0.28600 0.24600 0.50000 -0.15400
C 	C 	0.25670 0.49700 0.78910 -0.12100
C 	C 	0.00300 0.15800 0.69100 0.45400
C 	C 	0.31130 0.83700 0.02100 0.40800
C 	C 	0.74460 0.99800 0.28760 -0.11400
C 	C 	0.68790 0.33900 0.51700 0.40700
C 	C 	0.99700 0.84200 0.30900 0.45500
C 	C 	0.34000 0.48400 0.31000 0.39100
C 	C 	0.66030 0.69100 0.49400 0.43200
C 	C 	0.15890 0.31000 0.99800 0.42600
C 	C 	0.98200 0.18970 0.33900 0.40200
C 	C 	0.50000 0.71180 0.24450 -0.13700
C 	C 	0.01800 0.81030 0.66100 0.40200
C 	C 	0.48200 0.68870 0.66100 0.42400
C 	C 	0.49800 0.21310 0.74550 -0.14200
C 	C 	0.71200 0.51800 0.75500 -0.13300
C 	C 	0.78820 0.75800 -0.00000 -0.09900
C 	C 	0.50400 0.84040 0.19200 0.40500
C 	C 	0.78600 0.51900 0.74500 -0.11500
C 	C 	0.74440 0.21200 0.51900 -0.14800
C 	C 	0.16000 0.02000 0.31080 0.40600
C 	C 	0.21240 0.25540 0.49990 -0.11800
C 	C 	0.34000 0.19000 0.99500 0.41700
C 	C 	0.00200 0.29000 0.74400 -0.12700
C 	C 	0.75570 0.00000 0.21080 -0.15600
C 	C 	0.71190 0.74600 0.00100 -0.15100
C 	C 	0.24430 -0.00000 0.78920 -0.11300
C 	C 	0.81200 0.99600 0.34200 0.44000
C 	C 	0.65900 0.98200 0.81070 0.43500
C 	C 	0.28700 0.01600 0.25450 -0.13100
C 	C 	0.15800 0.48200 0.19030 0.39000
C 	C 	0.75700 0.21500 0.98600 -0.13200
C 	C 	0.48500 0.75500 0.71400 -0.13700
C 	C 	0.31210 0.66100 0.48300 0.40700
C 	C 	0.49600 0.33830 0.69080 0.40700
C 	C 	0.31000 0.00300 0.84160 0.43400
C 	C 	0.50000 0.28820 0.75550 -0.13700
C 	C 	0.98500 0.25500 0.28800 -0.14300
C 	C 	0.52000 0.19000 0.15900 0.39300
C 	C 	0.84200 0.51800 0.80970 0.39000
C 	C 	0.18850 0.65930 0.01500 0.38900
C 	C 	0.01500 0.74500 0.71200 -0.14400
C 	C 	0.84000 0.98000 0.68920 0.40500
C 	C 	0.25540 0.00200 0.71240 -0.13700
C 	C 	0.81040 0.15800 0.52000 0.46300
C 	C 	0.18960 0.84200 0.48000 0.46300
C 	C 	0.69000 0.99700 0.15840 0.43700
C 	C 	0.34100 0.01800 0.18930 0.43600
C 	C 	0.50200 0.78690 0.25450 -0.14300
C 	C 	0.99800 0.78800 0.24500 -0.15100
C 	C 	0.01700 0.68900 0.83880 0.38000
C 	C 	0.30800 0.49700 0.65990 0.42000
C 	C 	0.51500 0.24500 0.28600 -0.13700
C 	C 	0.00200 0.21200 0.75500 -0.15000
C 	C 	0.19080 0.49600 0.84020 0.38200
C 	C 	0.74330 0.50300 0.21090 -0.12000
C 	C 	0.78760 0.74460 0.50010 -0.11900
C 	C 	0.66000 0.81000 0.00500 0.43100
C 	C 	0.99500 0.65900 0.19200 0.42600
C 	C 	0.21400 0.48100 0.25500 -0.11400
C 	C 	0.24300 0.49900 0.71030 -0.15500
C 	C 	0.25560 0.78800 0.48100 -0.15000
C 	C 	0.16000 0.19100 0.50200 0.39100
C 	C 	0.51700 0.25400 0.21400 -0.11200
C 	C 	0.98300 0.31100 0.16120 0.38000
C 	C 	0.51800 0.31130 0.33900 0.42400
C 	C 	0.18800 0.00400 0.65800 0.46100
C 	C 	0.71400 0.75400 0.50000 -0.15400
C 	C 	0.81150 0.34070 0.98500 0.38800
C 	C 	0.98200 0.24500 0.21200 -0.12600
C 	C 	0.25600 0.71400 0.01800 -0.10100
C 	C 	0.84110 0.69000 0.00200 0.42500
C 	C 	0.01800 0.75500 0.78800 -0.12700
C 	C 	0.74400 0.28600 0.98200 -0.10200
C 	C 	0.68870 0.16300 0.97900 0.40700
C 	C 	0.71300 0.98400 0.74550 -0.13300
C 	C 	0.00500 0.34100 0.80800 0.42600
C 	C 	0.48300 0.74600 0.78600 -0.11300
C 	C 	0.75500 0.28600 0.51500 -0.10700
C 	C 	0.24300 0.78500 0.01400 -0.13200
C 	C 	0.28810 0.25400 0.99900 -0.14500
C 	C 	0.21180 0.24200 -0.00000 -0.13600
C 	C 	0.66000 0.51600 0.69000 0.39100
C 	C 	0.99800 0.71000 0.25600 -0.12700
O 	O 	0.42110 0.56680 0.40870 0.46200
O 	O 	0.00850 0.68880 0.12470 -0.64800
O 	O 	0.37730 0.69230 0.48000 -0.63600
O 	O 	0.94940 0.56850 0.93980 -2.69300
O 	O 	0.45080 0.43360 0.43990 -1.81600
O 	O 	0.59120 0.98170 0.78950 -0.64500
O 	O 	0.93460 0.05940 0.45010 -1.57500
O 	O 	0.48170 0.71140 0.59180 -0.62400
O 	O 	0.28890 0.90980 0.01810 -0.61500
O 	O 	0.93100 0.59000 0.92300 1.61500
O 	O 	0.12560 0.80830 0.48040 -0.65500
O 	O 	0.09090 0.01910 0.28950 -0.64600
O 	O 	0.19020 0.12340 0.49000 -0.64100
O 	O 	0.06900 0.41000 0.07700 1.61200
O 	O 	0.56600 0.59000 0.57960 0.71900
O 	O 	0.87440 0.19170 0.51960 -0.65400
O 	O 	0.06540 0.94060 0.54990 -1.57900
O 	O 	0.00720 0.09050 0.70880 -0.67400
O 	O 	0.09050 0.21080 0.50840 -0.64300
O 	O 	0.99150 0.31120 0.87530 -0.64800
O 	O 	0.56690 0.05860 0.04880 -1.49000
O 	O 	0.51830 0.28860 0.40820 -0.62300
O 	O 	0.59020 0.79120 0.00790 -0.67900
O 	O 	0.44960 0.06670 0.06070 -1.91900
O 	O 	0.50970 0.30890 0.62400 -0.63300
O 	O 	0.92000 0.58100 0.08200 0.59900
O 	O 	0.09050 0.92180 0.56560 0.49600
O 	O 	0.41080 0.57760 0.56510 0.26100
O 	O 	0.49090 0.40970 0.70890 -0.64300
O 	O 	0.69120 0.52050 0.62230 -0.63700
O 	O 	0.54920 0.56640 0.56010 -1.81600
O 	O 	0.90950 0.07820 0.43440 0.49600
O 	O 	0.57890 0.43320 0.59130 0.46200
O 	O 	0.90980 0.70930 0.00850 -0.67400
O 	O 	0.07840 0.93420 0.41160 0.85400
O 	O 	0.09020 0.29070 0.99150 -0.67800
O 	O 	0.08990 0.48110 0.21010 -0.65400
O 	O 	0.29040 0.59100 0.48010 -0.62500
O 	O 	0.69000 0.87570 0.99170 -0.68900
O 	O 	0.92160 0.06580 0.58840 0.85100
O 	O 	0.94140 0.45390 0.93270 -1.33400
O 	O 	0.70960 0.40900 0.51990 -0.62500
O 	O 	0.97950 0.37630 0.19260 -0.63900
O 	O 	0.56100 0.93800 0.06000 -2.83800
O 	O 	0.57830 0.06800 0.91000 0.19000
O 	O 	0.62310 0.00780 0.18910 -0.68500
O 	O 	0.49030 0.69110 0.37600 -0.63300
O 	O 	0.43310 0.94140 0.95120 -1.50000
O 	O 	0.97940 0.28930 0.09120 -0.63500
O 	O 	0.91010 0.51890 0.78990 -0.65400
O 	O 	0.79110 0.50820 0.08840 -0.65100
O 	O 	0.47980 0.62320 0.69020 -0.65500
O 	O 	0.42170 0.93200 0.09000 0.18500
O 	O 	0.81110 0.62400 0.99170 -0.69500
O 	O 	0.52020 0.37680 0.30980 -0.65500
O 	O 	0.98070 0.12290 0.30860 -0.65500
O 	O 	0.90910 0.98090 0.71050 -0.65000
O 	O 	0.92000 0.92100 0.41800 0.37500
O 	O 	0.62270 0.30770 0.52000 -0.63500
O 	O 	0.06100 0.43900 0.94000 -1.64100
O 	O 	0.94040 0.04920 0.56570 -1.92700
O 	O 	0.90960 0.42180 0.06550 0.82200
O 	O 	0.58920 0.42240 0.43490 0.26100
O 	O 	0.44060 0.54930 0.43340 -1.56000
O 	O 	0.20970 0.90820 0.48120 -0.67600
O 	O 	0.43310 0.09100 0.07800 0.86400
O 	O 	0.55940 0.45070 0.56660 -1.56000
O 	O 	0.93510 0.90800 0.57710 1.18700
O 	O 	0.59100 0.07790 0.06580 0.43400
O 	O 	0.19150 0.02130 0.37650 -0.64300
O 	O 	0.30880 0.47950 0.37770 -0.63700
O 	O 	0.31090 0.37610 0.49360 -0.65500
O 	O 	0.44300 0.94950 0.06620 -1.22300
O 	O 	0.70970 0.99270 0.09180 -0.67700
O 	O 	0.37690 0.50870 0.68970 -0.63700
O 	O 	0.09040 0.57820 0.93450 0.82100
O 	O 	0.94760 0.93300 0.55870 -2.25200
O 	O 	0.58000 0.92100 0.08100 1.76300
O 	O 	0.98340 0.21090 0.40870 -0.64800
O 	O 	0.40960 0.29060 0.50910 -0.66200
O 	O 	0.93380 0.43980 0.04980 -1.86700
O 	O 	0.44000 0.44100 0.55900 -1.48600
O 	O 	0.59040 0.70940 0.49090 -0.66300
O 	O 	0.07850 0.56590 0.08910 0.28000
O 	O 	0.92150 0.43410 0.91090 0.28400
O 	O 	0.49030 0.08970 0.79090 -0.66800
O 	O 	0.40970 0.48120 0.28880 -0.62900
O 	O 	0.49230 0.81020 0.12430 -0.64500
O 	O 	0.56000 0.55900 0.44100 -1.48600
O 	O 	0.99280 0.90950 0.29120 -0.67900
O 	O 	0.55040 0.93330 0.93930 -1.93600
O 	O 	0.20890 0.49180 0.91160 -0.65600
O 	O 	0.40900 0.92210 0.93420 0.43500
O 	O 	0.62410 0.19160 0.97920 -0.63800
O 	O 	0.99100 0.58870 0.20970 -0.64900
O 	O 	0.59030 0.51880 0.71120 -0.63000
O 	O 	0.06000 0.06100 0.55800 -1.41700
O 	O 	0.29150 0.49270 0.58910 -0.65800
O 	O 	0.00900 0.41130 0.79030 -0.64900
O 	O 	0.40880 0.01830 0.21050 -0.64100
O 	O 	0.55700 0.05050 0.93380 -1.22400
O 	O 	0.79030 0.09180 0.51880 -0.67000
O 	O 	0.00690 0.81020 0.37600 -0.66400
O 	O 	0.30860 0.01920 0.12470 -0.64000
O 	O 	0.43640 0.55890 0.54720 -1.36800
O 	O 	0.37590 0.80840 0.02080 -0.63600
O 	O 	0.48100 0.78980 0.90780 -0.64600
O 	O 	0.50910 0.59030 0.29110 -0.64300
O 	O 	0.94000 0.93900 0.44200 -1.42200
O 	O 	0.31000 0.12430 0.00830 -0.67700
O 	O 	0.80730 0.51990 0.87580 -0.63300
O 	O 	0.19270 0.48010 0.12420 -0.63200
O 	O 	0.02060 0.71070 0.90880 -0.64000
O 	O 	0.80850 0.97870 0.62350 -0.64700
O 	O 	0.58300 0.57900 0.42000 0.38500
O 	O 	0.51900 0.21020 0.09220 -0.64100
O 	O 	0.90950 0.78920 0.49160 -0.64300
O 	O 	0.06620 0.56020 0.95020 -1.87100
O 	O 	0.62310 0.49130 0.31030 -0.63600
O 	O 	0.40980 0.20880 0.99210 -0.68100
O 	O 	0.80980 0.87660 0.51000 -0.64200
O 	O 	0.52100 0.12170 0.19300 -0.62900
O 	O 	0.50970 0.91030 0.20910 -0.67300
O 	O 	0.71110 0.09020 0.98190 -0.61300
O 	O 	0.87710 0.00860 0.31030 -0.66300
O 	O 	0.87800 0.49280 0.19000 -0.64300
O 	O 	0.56690 0.90900 0.92200 0.87500
O 	O 	0.08000 0.41900 0.91800 0.60400
O 	O 	0.01930 0.87710 0.69140 -0.65700
O 	O 	0.50770 0.18980 0.87570 -0.64600
O 	O 	0.56360 0.44110 0.45280 -1.36800
O 	O 	0.01660 0.78910 0.59130 -0.64900
O 	O 	0.05240 0.06700 0.44130 -2.23700
O 	O 	0.02050 0.62370 0.80740 -0.64000
O 	O 	0.21110 0.58940 0.01870 -0.63100
O 	O 	0.43900 0.06200 0.94000 -2.84000
O 	O 	0.08000 0.07900 0.58200 0.37400
O 	O 	0.99310 0.18980 0.62400 -0.66300
O 	O 	0.12290 0.99140 0.68970 -0.67800
O 	O 	0.43400 0.41000 0.42040 0.72000
O 	O 	0.87710 0.31000 0.98130 -0.65600
O 	O 	0.12290 0.69000 0.01870 -0.65400
O 	O 	0.05960 0.95080 0.43430 -1.93700
O 	O 	0.79160 0.99060 0.40900 -0.66800
O 	O 	0.29030 0.00730 0.90820 -0.67600
O 	O 	0.18890 0.37600 0.00830 -0.68600
O 	O 	0.05060 0.43150 0.06020 -2.68500
O 	O 	0.37690 0.99220 0.81090 -0.69600
O 	O 	0.70850 0.50730 0.41090 -0.65800
O 	O 	0.69140 0.98080 0.87530 -0.64500
O 	O 	0.93900 0.56100 0.06000 -1.63300
O 	O 	0.20840 0.00940 0.59100 -0.66900
O 	O 	0.05860 0.54610 0.06730 -1.32800
O 	O 	0.78890 0.41060 0.98130 -0.63500
O 	O 	0.12200 0.50720 0.81000 -0.64300
O 	O 	0.41700 0.42100 0.58000 0.38500
O 	O 	0.06490 0.09200 0.42290 1.17500
O 	O 	0.47900 0.87830 0.80700 -0.63100
O 	O 	0.42000 0.07900 0.91900 1.76600
O 	O 	0.68910 0.62390 0.50640 -0.65500
