data_crystal

_cell_length_a 15.69610
_cell_length_b 17.22360
_cell_length_c 17.22340
_cell_angle_alpha 78.01650
_cell_angle_beta  62.89250
_cell_angle_gamma 62.89200

_symmetry_space_group_name_	'P 1'
_symmetry_space_group_name_H-M	'P 1'

loop_
_symmetry_equiv_pos_as_xyz
  x,y,z

loop_
_atom_site_label
_atom_site_type_symbol
_atom_site_fract_x
_atom_site_fract_y
_atom_site_fract_z
_atom_site_charge
Cu	Cu	0.83943 0.00000 -0.00000 0.82400
Cu	Cu	0.33943 0.00000 -0.00000 0.82100
H 	H 	0.79840 0.30600 0.97600 0.06700
H 	H 	0.05960 0.82790 0.61550 0.17200
H 	H 	0.31090 0.98100 0.59540 0.24500
H 	H 	0.52420 0.12680 0.30140 0.20700
H 	H 	0.60440 0.69400 0.97600 0.06600
H 	H 	0.52670 0.28330 0.10630 0.05400
H 	H 	0.17510 0.82790 0.38450 0.19600
H 	H 	0.88730 0.01900 0.40460 0.13900
H 	H 	0.29840 0.97600 0.30600 0.06200
H 	H 	0.98100 0.97750 0.31290 0.17300
H 	H 	0.41630 0.89370 0.71670 0.06900
H 	H 	0.79330 0.92380 0.62200 0.17900
H 	H 	0.41530 0.37800 0.92380 0.18300
H 	H 	0.33910 0.07620 0.37800 0.23300
H 	H 	0.27440 0.30600 0.02400 0.07700
H 	H 	0.04440 0.96870 0.84330 -0.07000
H 	H 	0.05870 0.12600 0.57760 0.01600
H 	H 	0.21710 0.07620 0.62200 0.23300
H 	H 	0.63630 0.42240 0.12600 0.03800
H 	H 	0.29390 0.68710 0.97750 0.17300
H 	H 	0.90630 0.40460 0.98100 0.24900
H 	H 	0.45240 0.69860 0.87320 0.20500
H 	H 	0.02420 0.30140 0.12680 0.17200
H 	H 	0.62200 0.12830 0.09170 -0.02900
H 	H 	0.40880 0.19650 0.35750 0.21900
H 	H 	0.77440 0.02400 0.30600 0.08100
H 	H 	0.96280 0.80350 0.64250 0.19200
H 	H 	0.40630 0.98100 0.40460 0.24600
H 	H 	0.27140 0.02250 0.68710 0.21200
H 	H 	0.32560 0.12680 0.69860 0.20900
H 	H 	0.21370 0.12830 0.90830 -0.02800
H 	H 	0.51310 0.03130 0.84330 -0.03300
H 	H 	0.84200 0.87170 0.90830 -0.01800
H 	H 	0.88750 0.61550 0.17210 0.21400
H 	H 	0.29330 0.62200 0.92380 0.18500
H 	H 	0.31000 0.71670 0.10630 0.05400
H 	H 	0.38770 0.96870 0.15670 -0.03700
H 	H 	0.02670 0.10630 0.28330 0.04800
H 	H 	0.85640 0.03130 0.15670 -0.04000
H 	H 	0.95850 0.31290 0.02250 0.21600
H 	H 	0.76230 0.87400 0.42240 0.04600
H 	H 	0.10440 0.97600 0.69400 0.10300
H 	H 	0.38730 0.40460 0.01900 0.14000
H 	H 	0.01310 0.84330 0.03130 -0.06900
H 	H 	0.91630 0.71670 0.89370 0.07400
H 	H 	0.81000 0.10630 0.71670 0.07500
H 	H 	0.26630 0.19650 0.64250 0.22000
H 	H 	0.63300 0.89370 0.28330 0.06900
H 	H 	0.35640 0.15670 0.03130 -0.04200
H 	H 	0.88770 0.15670 0.96870 -0.03600
H 	H 	0.54440 0.84330 0.96870 -0.02900
H 	H 	0.81090 0.59540 0.98100 0.24500
H 	H 	0.65100 0.30140 0.87320 0.20400
H 	H 	0.68470 0.87400 0.57760 0.04600
H 	H 	0.12200 0.09170 0.12830 -0.03000
H 	H 	0.71710 0.62200 0.07620 0.23300
H 	H 	0.13300 0.28330 0.89370 0.06400
H 	H 	0.00300 0.38450 0.17210 0.17500
H 	H 	0.15100 0.87320 0.30140 0.19700
H 	H 	0.79390 0.97750 0.68710 0.16700
H 	H 	0.75030 0.09170 0.87170 -0.02500
H 	H 	0.55870 0.57760 0.12600 0.03800
H 	H 	0.71370 0.90830 0.12830 -0.02800
H 	H 	0.26230 0.42240 0.87400 0.05300
H 	H 	0.18470 0.57760 0.87400 0.03400
H 	H 	0.29190 0.59540 0.01900 0.14200
H 	H 	0.13630 0.12600 0.42240 0.05000
H 	H 	0.95240 0.87320 0.69860 0.18600
H 	H 	0.55960 0.61550 0.82790 0.20300
H 	H 	0.91530 0.92380 0.37800 0.18000
H 	H 	0.90880 0.35750 0.19650 0.19800
H 	H 	0.46280 0.64250 0.80350 0.21000
H 	H 	0.60530 0.35750 0.80350 0.20900
H 	H 	0.67510 0.38450 0.82790 0.20200
H 	H 	0.79190 0.01900 0.59540 0.13800
H 	H 	0.76630 0.64250 0.19650 0.22100
H 	H 	0.77140 0.68710 0.02250 0.21200
H 	H 	0.48100 0.31290 0.97750 0.17200
H 	H 	0.83910 0.37800 0.07620 0.23500
H 	H 	0.50300 0.17210 0.38450 0.21000
H 	H 	0.82560 0.69860 0.12680 0.21000
H 	H 	0.08040 0.69400 0.02400 0.09800
H 	H 	0.45850 0.02250 0.31290 0.21000
H 	H 	0.25030 0.87170 0.09170 -0.01700
H 	H 	0.38750 0.17210 0.61550 0.21100
H 	H 	0.34200 0.90830 0.87170 -0.01700
H 	H 	0.58040 0.02400 0.69400 0.07900
H 	H 	0.10530 0.80350 0.35750 0.20000
C 	C 	0.75940 0.27130 0.99970 -0.12500
C 	C 	0.00770 0.03900 0.59100 -0.10700
C 	C 	0.59870 0.40900 0.03900 -0.02700
C 	C 	0.48840 0.00610 0.81850 0.08400
C 	C 	0.50770 0.59100 0.03900 -0.02500
C 	C 	0.62250 0.36020 0.85060 -0.61400
C 	C 	0.05470 0.08830 0.54730 0.00200
C 	C 	0.46710 0.69020 0.03640 0.03600
C 	C 	0.25940 0.99970 0.27130 -0.11900
C 	C 	0.52380 0.41790 0.92350 0.28500
C 	C 	0.02660 0.45400 0.01420 -0.15200
C 	C 	0.97310 0.36020 0.14940 -0.57000
C 	C 	0.93380 0.74230 0.92490 -0.15600
C 	C 	0.14300 0.54730 0.91170 -0.02500
C 	C 	0.65730 0.30980 0.03640 0.03500
C 	C 	0.98060 0.54600 0.01420 -0.07000
C 	C 	0.25910 0.27130 0.00030 -0.21900
C 	C 	0.82330 0.06650 0.83470 0.06500
C 	C 	0.50350 0.96360 0.69020 0.11800
C 	C 	0.65800 0.16530 0.06650 0.03400
C 	C 	0.03070 0.99970 0.72870 -0.24600
C 	C 	0.35870 0.74230 0.07510 -0.13000
C 	C 	0.15730 0.03640 0.30980 0.02300
C 	C 	0.40930 0.03520 0.37420 -0.71400
C 	C 	0.47310 0.14940 0.36020 -0.66000
C 	C 	0.13770 0.40900 0.96100 0.04400
C 	C 	0.63770 0.96100 0.40900 0.02200
C 	C 	0.44170 0.58210 0.92350 0.28800
C 	C 	0.38980 0.93350 0.83470 0.06000
C 	C 	0.53040 0.00030 0.72870 -0.21800
C 	C 	0.83330 0.63980 0.14940 -0.65600
C 	C 	0.94450 0.96480 0.37420 -0.47400
C 	C 	0.78350 0.62580 0.03520 -0.70600
C 	C 	0.33330 0.14940 0.63980 -0.66100
C 	C 	0.17610 0.25770 0.92490 -0.15000
C 	C 	0.53070 0.72870 0.99970 -0.12400
C 	C 	0.96710 0.03640 0.69020 0.13600
C 	C 	0.69370 0.96360 0.30980 0.12400
C 	C 	0.49450 0.81850 0.99390 0.11300
C 	C 	0.54670 0.96100 0.59100 0.02300
C 	C 	0.48060 0.01420 0.54600 -0.11400
C 	C 	0.98840 0.81850 0.00610 0.15800
C 	C 	0.94730 0.41790 0.07650 0.34300
C 	C 	0.19370 0.30980 0.96360 0.11400
C 	C 	0.99450 0.99390 0.81850 0.20600
C 	C 	0.04670 0.59100 0.96100 -0.01900
C 	C 	0.30690 0.18150 0.00610 0.07800
C 	C 	0.10100 0.07510 0.25770 -0.12600
C 	C 	0.94170 0.92350 0.58210 0.25300
C 	C 	0.00350 0.69020 0.96360 0.14100
C 	C 	0.32330 0.83470 0.06650 0.03400
C 	C 	0.31870 0.62580 0.96480 -0.49900
C 	C 	0.28350 0.03520 0.62580 -0.71200
C 	C 	0.60200 0.45270 0.08830 -0.05400
C 	C 	0.09870 0.03900 0.40900 0.00300
C 	C 	0.43380 0.92490 0.74230 -0.15200
C 	C 	0.31300 0.99390 0.18150 0.11300
C 	C 	0.72450 0.93350 0.16530 0.06300
C 	C 	0.12250 0.85060 0.36020 -0.60000
C 	C 	0.81870 0.96480 0.62580 -0.47700
C 	C 	0.55470 0.54730 0.08830 -0.05600
C 	C 	0.80690 0.00610 0.18150 0.08300
C 	C 	0.75910 0.00030 0.27130 -0.22500
C 	C 	0.54080 0.45400 0.98580 -0.04700
C 	C 	0.49480 0.54600 0.98580 -0.05000
C 	C 	0.81300 0.18150 0.99390 0.11900
C 	C 	0.88980 0.83470 0.93350 0.06900
C 	C 	0.44730 0.07650 0.41790 0.34400
C 	C 	0.90930 0.37420 0.03520 -0.71400
C 	C 	0.99480 0.98580 0.54600 0.01100
C 	C 	0.04080 0.98580 0.45400 -0.08400
C 	C 	0.36520 0.07650 0.58210 0.34400
C 	C 	0.86520 0.58210 0.07650 0.33400
C 	C 	0.64300 0.91170 0.54730 -0.05600
C 	C 	0.10200 0.08830 0.45270 -0.09700
C 	C 	0.60100 0.25770 0.07510 -0.13200
C 	C 	0.52660 0.01420 0.45400 -0.11500
C 	C 	0.67610 0.92490 0.25770 -0.15500
C 	C 	0.44450 0.37420 0.96480 -0.49400
C 	C 	0.69030 0.91170 0.45270 -0.05500
C 	C 	0.15800 0.06650 0.16530 0.03000
C 	C 	0.03040 0.72870 0.00030 -0.28300
C 	C 	0.85870 0.07510 0.74230 -0.18300
C 	C 	0.48270 0.63980 0.85060 -0.61700
C 	C 	0.19030 0.45270 0.91170 -0.08200
C 	C 	0.22450 0.16530 0.93350 0.05900
C 	C 	0.02380 0.92350 0.41790 0.26900
C 	C 	0.98270 0.85060 0.63980 -0.54400
N 	N 	0.46540 0.50000 0.88680 -0.12900
N 	N 	0.85220 0.50000 0.11320 -0.14200
N 	N 	0.91710 0.86980 0.97880 -0.23400
N 	N 	0.28690 0.13020 0.97880 -0.22400
N 	N 	0.89590 0.02120 0.86980 -0.27400
N 	N 	0.39590 0.86980 0.02120 -0.25300
N 	N 	0.78690 0.97880 0.13020 -0.22500
N 	N 	0.41710 0.97880 0.86980 -0.22000
N 	N 	0.35220 0.11320 0.50000 -0.14400
N 	N 	0.96540 0.88680 0.50000 -0.11800
N 	N 	0.76570 0.13020 0.02120 -0.26500
N 	N 	0.26570 0.02120 0.13020 -0.26400
O 	O 	0.43590 0.50000 0.82820 -0.15300
O 	O 	0.76410 0.50000 0.17180 -0.15700
O 	O 	0.26410 0.17180 0.50000 -0.15900
O 	O 	0.93590 0.82820 0.50000 -0.14900
