data_crystal

_cell_length_a 8.54710
_cell_length_b 9.04960
_cell_length_c 12.00460
_cell_angle_alpha 90.00000
_cell_angle_beta  90.00000
_cell_angle_gamma 90.00000

_symmetry_space_group_name_	'P 1'
_symmetry_space_group_name_H-M	'P 1'

loop_
_symmetry_equiv_pos_as_xyz
  x,y,z

loop_
_atom_site_label
_atom_site_type_symbol
_atom_site_fract_x
_atom_site_fract_y
_atom_site_fract_z
_atom_site_charge
Mn	Mn	0.74966 0.75000 0.25000 1.33300
Mn	Mn	0.24966 0.25000 0.25000 1.33200
Mn	Mn	0.75034 0.75000 0.75000 1.33400
Mn	Mn	0.25034 0.25000 0.75000 1.33400
H 	H 	0.91940 0.06470 0.73160 -0.11600
H 	H 	0.08060 0.93530 0.26840 -0.12100
H 	H 	0.25000 0.20640 -0.00000 -0.10300
H 	H 	0.58060 0.06470 0.26840 -0.12800
H 	H 	0.41940 0.56470 0.76840 -0.12100
H 	H 	0.58060 0.43530 0.23160 -0.13100
H 	H 	0.75000 0.70640 0.50000 -0.11900
H 	H 	0.91940 0.43530 0.76840 -0.12000
H 	H 	0.08060 0.56470 0.23160 -0.13100
H 	H 	0.25000 0.29360 0.50000 -0.11900
H 	H 	0.75000 0.79360 -0.00000 -0.10300
H 	H 	0.41940 0.93530 0.73160 -0.12200
C 	C 	0.25000 0.19090 0.50000 0.49900
C 	C 	0.51760 0.48432 0.28278 0.51800
C 	C 	0.48240 0.51568 0.71722 0.51700
C 	C 	0.75000 0.69090 -0.00000 0.39300
C 	C 	0.01760 0.51568 0.28278 0.51600
C 	C 	0.75000 0.80910 0.50000 0.49900
C 	C 	0.51760 0.01568 0.21722 0.51700
C 	C 	0.01760 0.98432 0.21722 0.49500
C 	C 	0.98240 0.48432 0.71722 0.51300
C 	C 	0.48240 0.98432 0.78278 0.51400
C 	C 	0.98240 0.01568 0.78278 0.49000
C 	C 	0.25000 0.30910 -0.00000 0.38800
O 	O 	0.24557 0.13000 0.59213 -0.41300
O 	O 	0.09710 0.08373 0.81917 -0.40100
O 	O 	0.44416 0.11170 0.80833 -0.39500
O 	O 	0.90290 0.91627 0.18083 -0.42500
O 	O 	0.94416 0.88830 0.80833 -0.38600
O 	O 	0.09710 0.41627 0.68083 -0.42300
O 	O 	0.05584 0.38830 0.30833 -0.41000
O 	O 	0.74557 0.63000 0.90787 -0.34800
O 	O 	0.24557 0.37000 0.90787 -0.34400
O 	O 	0.59710 0.91627 0.81917 -0.41200
O 	O 	0.05584 0.11170 0.19167 -0.40700
O 	O 	0.75443 0.87000 0.40787 -0.41300
O 	O 	0.90290 0.58373 0.31917 -0.42800
O 	O 	0.55584 0.88830 0.19167 -0.41600
O 	O 	0.74557 0.87000 0.59213 -0.41300
O 	O 	0.59710 0.58373 0.68083 -0.42600
O 	O 	0.25443 0.13000 0.40787 -0.41300
O 	O 	0.40290 0.08373 0.18083 -0.43500
O 	O 	0.94416 0.61170 0.69167 -0.40500
O 	O 	0.25443 0.37000 0.09213 -0.39800
O 	O 	0.40290 0.41627 0.31917 -0.43000
O 	O 	0.44416 0.38830 0.69167 -0.40700
O 	O 	0.75443 0.63000 0.09213 -0.39900
O 	O 	0.55584 0.61170 0.30833 -0.41100
