data_crystal

_cell_length_a 8.51640
_cell_length_b 9.05620
_cell_length_c 11.97720
_cell_angle_alpha 90.00000
_cell_angle_beta  90.00000
_cell_angle_gamma 90.00000

_symmetry_space_group_name_	'P 1'
_symmetry_space_group_name_H-M	'P 1'

loop_
_symmetry_equiv_pos_as_xyz
  x,y,z

loop_
_atom_site_label
_atom_site_type_symbol
_atom_site_fract_x
_atom_site_fract_y
_atom_site_fract_z
_atom_site_charge
Mn	Mn	0.25186 0.25000 0.25000 1.33000
Mn	Mn	0.75186 0.75000 0.25000 1.33000
Mn	Mn	0.74814 0.75000 0.75000 1.33200
Mn	Mn	0.24814 0.25000 0.75000 1.33300
H 	H 	0.75000 0.70760 0.50000 -0.11600
H 	H 	0.75000 0.79240 -0.00000 -0.10100
H 	H 	0.58350 0.43580 0.23230 -0.12800
H 	H 	0.25000 0.29240 0.50000 -0.11600
H 	H 	0.91650 0.06420 0.73230 -0.11400
H 	H 	0.08350 0.93580 0.26770 -0.11900
H 	H 	0.25000 0.20760 -0.00000 -0.10000
H 	H 	0.08350 0.56420 0.23230 -0.12800
H 	H 	0.41650 0.93580 0.73230 -0.12000
H 	H 	0.58350 0.06420 0.26770 -0.12500
H 	H 	0.41650 0.56420 0.76770 -0.11800
H 	H 	0.91650 0.43580 0.76770 -0.11800
C 	C 	0.48014 0.51534 0.71657 0.50900
C 	C 	0.51986 0.01534 0.21657 0.50900
C 	C 	0.01986 0.98466 0.21657 0.48700
C 	C 	0.75000 0.68970 -0.00000 0.38600
C 	C 	0.51986 0.48466 0.28343 0.51000
C 	C 	0.25000 0.18970 0.50000 0.48800
C 	C 	0.48014 0.98466 0.78343 0.50600
C 	C 	0.25000 0.31030 -0.00000 0.38100
C 	C 	0.98014 0.48466 0.71657 0.50500
C 	C 	0.75000 0.81030 0.50000 0.48800
C 	C 	0.98014 0.01534 0.78343 0.48300
C 	C 	0.01986 0.51534 0.28343 0.50800
O 	O 	0.25645 0.12847 0.40750 -0.40900
O 	O 	0.90452 0.91610 0.17962 -0.42100
O 	O 	0.09548 0.08390 0.82038 -0.39700
O 	O 	0.40452 0.41610 0.32038 -0.42600
O 	O 	0.55730 0.61229 0.30883 -0.40900
O 	O 	0.44270 0.38771 0.69117 -0.40400
O 	O 	0.25645 0.37153 0.09250 -0.39500
O 	O 	0.94270 0.61229 0.69117 -0.40300
O 	O 	0.09548 0.41610 0.67962 -0.42000
O 	O 	0.74355 0.62847 0.90750 -0.34500
O 	O 	0.05730 0.11229 0.19117 -0.40400
O 	O 	0.59548 0.58390 0.67962 -0.42200
O 	O 	0.24355 0.12847 0.59250 -0.40900
O 	O 	0.24355 0.37153 0.90750 -0.34200
O 	O 	0.05730 0.38771 0.30883 -0.40800
O 	O 	0.94270 0.88771 0.80883 -0.38400
O 	O 	0.74355 0.87153 0.59250 -0.40900
O 	O 	0.90452 0.58390 0.32038 -0.42400
O 	O 	0.75645 0.62847 0.09250 -0.39600
O 	O 	0.40452 0.08390 0.17962 -0.43100
O 	O 	0.55730 0.88771 0.19117 -0.41400
O 	O 	0.59548 0.91610 0.82038 -0.40800
O 	O 	0.44270 0.11229 0.80883 -0.39300
O 	O 	0.75645 0.87153 0.40750 -0.40900
