data_crystal

_cell_length_a 9.86010
_cell_length_b 12.73070
_cell_length_c 17.64780
_cell_angle_alpha 90.00000
_cell_angle_beta  90.00000
_cell_angle_gamma 90.00000

_symmetry_space_group_name_	'P 1'
_symmetry_space_group_name_H-M	'P 1'

loop_
_symmetry_equiv_pos_as_xyz
  x,y,z

loop_
_atom_site_label
_atom_site_type_symbol
_atom_site_fract_x
_atom_site_fract_y
_atom_site_fract_z
_atom_site_charge
Cu	Cu	0.00000 0.25000 0.16008 0.88900
Cu	Cu	0.50000 0.75000 0.66008 0.90800
H 	H 	0.57910 0.19930 0.01730 0.02600
H 	H 	0.36980 0.67800 0.81740 0.01300
H 	H 	0.63020 0.82200 0.81740 0.01500
H 	H 	0.63890 0.52670 0.69350 0.01500
H 	H 	0.42090 0.30070 0.01730 0.02200
H 	H 	0.03640 0.61960 0.41650 0.03300
H 	H 	0.86110 0.02670 0.19350 0.01500
H 	H 	0.60720 0.50250 0.48700 0.04600
H 	H 	0.78070 0.92210 0.88700 0.10300
H 	H 	0.13020 0.17800 0.31740 0.02300
H 	H 	0.86980 0.32200 0.31740 0.00500
H 	H 	0.53640 0.38040 0.91650 0.10800
H 	H 	0.39280 0.99750 0.48700 0.02000
H 	H 	0.89280 0.00250 0.98700 0.04700
H 	H 	0.21930 0.57790 0.88700 0.09300
H 	H 	0.13890 0.47330 0.19350 0.01200
H 	H 	0.10720 0.49750 0.98700 0.01700
H 	H 	0.46360 0.11960 0.91650 0.10200
H 	H 	0.07910 0.80070 0.51730 -0.01800
H 	H 	0.36110 0.97330 0.69350 0.01200
H 	H 	0.71930 0.42210 0.38700 0.08400
H 	H 	0.92090 0.69930 0.51730 0.06200
H 	H 	0.28070 0.07790 0.38700 0.10700
H 	H 	0.96360 0.88040 0.41650 0.17600
C 	C 	0.73980 0.97900 0.91330 -0.15800
C 	C 	0.88600 0.51510 0.39270 0.11800
C 	C 	0.19460 0.47320 0.97270 0.08200
C 	C 	0.44850 0.40380 0.93080 -0.16900
C 	C 	0.06940 0.12630 0.29860 0.04600
C 	C 	0.07630 0.45740 0.23270 0.09000
C 	C 	0.92370 0.04260 0.23270 0.11100
C 	C 	0.32140 0.83530 0.57500 0.34300
C 	C 	0.94850 0.59620 0.43080 -0.03000
C 	C 	0.11400 0.98490 0.39270 0.20000
C 	C 	0.37950 0.35700 0.99070 0.07800
C 	C 	0.74760 0.10930 0.01230 -0.10800
C 	C 	0.75240 0.60930 0.51230 -0.07900
C 	C 	0.80540 0.02680 0.97270 0.07100
C 	C 	0.67860 0.66470 0.57500 0.31300
C 	C 	0.05150 0.90380 0.43080 -0.29500
C 	C 	0.55150 0.09620 0.93080 -0.15800
C 	C 	0.61400 0.01510 0.89270 0.16300
C 	C 	0.24760 0.89070 0.51230 -0.16500
C 	C 	0.56940 0.87370 0.79860 0.09500
C 	C 	0.25240 0.39070 0.01230 -0.13100
C 	C 	0.87950 0.64300 0.49070 0.00300
C 	C 	0.42370 0.95740 0.73270 0.09800
C 	C 	0.23980 0.02100 0.41330 -0.19500
C 	C 	0.69460 0.52680 0.47270 0.03800
C 	C 	0.57630 0.54260 0.73270 0.09900
C 	C 	0.38600 0.48490 0.89270 0.16700
C 	C 	0.26020 0.52100 0.91330 -0.17300
C 	C 	0.17860 0.33530 0.07500 0.33200
C 	C 	0.76020 0.47900 0.41330 -0.12100
C 	C 	0.93060 0.37370 0.29860 0.14400
C 	C 	0.82140 0.16470 0.07500 0.32300
C 	C 	0.30540 0.97320 0.47270 0.10800
C 	C 	0.62050 0.14300 0.99070 0.06500
C 	C 	0.43060 0.62630 0.79860 0.09400
C 	C 	0.12050 0.85700 0.49070 0.14600
N 	N 	0.95270 0.46810 0.32940 -0.09600
N 	N 	0.04730 0.03190 0.32940 -0.13400
N 	N 	0.00780 0.36400 0.23740 -0.25500
N 	N 	0.50780 0.63600 0.73740 -0.22600
N 	N 	0.95290 0.97740 0.28770 -0.07000
N 	N 	0.54730 0.96810 0.82940 -0.11700
N 	N 	0.04710 0.52260 0.28770 -0.10800
N 	N 	0.45290 0.02260 0.78770 -0.08600
N 	N 	0.54710 0.47740 0.78770 -0.08700
N 	N 	0.49220 0.86400 0.73740 -0.22600
N 	N 	0.99220 0.13600 0.23740 -0.19300
N 	N 	0.45270 0.53190 0.82940 -0.11800
O 	O 	0.94870 0.14810 0.08041 -0.34400
O 	O 	0.44870 0.85190 0.58041 -0.37500
O 	O 	0.25870 0.77590 0.61790 -0.33400
O 	O 	0.74130 0.72410 0.61790 -0.31400
O 	O 	0.05130 0.35190 0.08041 -0.39000
O 	O 	0.75870 0.22410 0.11790 -0.31500
O 	O 	0.55130 0.64810 0.58041 -0.36700
O 	O 	0.24130 0.27590 0.11790 -0.32800
Cu	Cu	0.50000 0.25000 0.33992 0.90900
Cu	Cu	0.00000 0.75000 0.83992 0.88900
H 	H 	0.63890 0.02670 0.30650 0.01400
H 	H 	0.57910 0.69930 0.98270 0.02300
H 	H 	0.13890 0.97330 0.80650 0.01300
H 	H 	0.78070 0.42210 0.11300 0.10400
H 	H 	0.03640 0.11960 0.58350 0.03700
H 	H 	0.46360 0.61960 0.08350 0.10300
H 	H 	0.86110 0.52670 0.80650 0.01500
H 	H 	0.63020 0.32200 0.18260 0.01500
H 	H 	0.53640 0.88040 0.08350 0.10300
H 	H 	0.39280 0.49750 0.51300 0.01600
H 	H 	0.13020 0.67800 0.68260 0.02300
H 	H 	0.71930 0.92210 0.61300 0.08700
H 	H 	0.86980 0.82200 0.68260 0.00400
H 	H 	0.36110 0.47330 0.30650 0.01200
H 	H 	0.36980 0.17800 0.18260 0.01400
H 	H 	0.42090 0.80070 0.98270 0.02500
H 	H 	0.60720 0.00250 0.51300 0.04400
H 	H 	0.96360 0.38040 0.58350 0.17900
H 	H 	0.89280 0.50250 0.01300 0.04600
H 	H 	0.21930 0.07790 0.11300 0.08500
H 	H 	0.10720 0.99750 0.01300 0.02200
H 	H 	0.07910 0.30070 0.48270 -0.02000
H 	H 	0.92090 0.19930 0.48270 0.06000
H 	H 	0.28070 0.57790 0.61300 0.11300
C 	C 	0.88600 0.01510 0.60730 0.12600
C 	C 	0.19460 0.97320 0.02730 0.06000
C 	C 	0.12050 0.35700 0.50930 0.15400
C 	C 	0.26020 0.02100 0.08670 -0.14700
C 	C 	0.05150 0.40380 0.56920 -0.30300
C 	C 	0.93060 0.87370 0.70140 0.14500
C 	C 	0.76020 0.97900 0.58670 -0.13200
C 	C 	0.07630 0.95740 0.76730 0.08800
C 	C 	0.23980 0.52100 0.58670 -0.21500
C 	C 	0.17860 0.83530 0.92500 0.32700
C 	C 	0.24760 0.39070 0.48770 -0.17200
C 	C 	0.43060 0.12630 0.20140 0.09300
C 	C 	0.57630 0.04260 0.26730 0.10300
C 	C 	0.42370 0.45740 0.26730 0.10000
C 	C 	0.92370 0.54260 0.76730 0.10900
C 	C 	0.62050 0.64300 0.00930 0.07400
C 	C 	0.38600 0.98490 0.10730 0.14800
C 	C 	0.87950 0.14300 0.50930 0.01000
C 	C 	0.11400 0.48490 0.60730 0.21500
C 	C 	0.69460 0.02680 0.52730 0.04700
C 	C 	0.56940 0.37370 0.20140 0.09600
C 	C 	0.44850 0.90380 0.06920 -0.15600
C 	C 	0.61400 0.51510 0.10730 0.16400
C 	C 	0.82140 0.66470 0.92500 0.32500
C 	C 	0.67860 0.16470 0.42500 0.31500
C 	C 	0.32140 0.33530 0.42500 0.34600
C 	C 	0.55150 0.59620 0.06920 -0.16200
C 	C 	0.30540 0.47320 0.52730 0.12300
C 	C 	0.94850 0.09620 0.56920 -0.03900
C 	C 	0.06940 0.62630 0.70140 0.04500
C 	C 	0.75240 0.10930 0.48770 -0.08400
C 	C 	0.25240 0.89070 0.98770 -0.11900
C 	C 	0.37950 0.85700 0.00930 0.06600
C 	C 	0.74760 0.60930 0.98770 -0.11600
C 	C 	0.73980 0.47900 0.08670 -0.16000
C 	C 	0.80540 0.52680 0.02730 0.07600
N 	N 	0.49220 0.36400 0.26260 -0.22600
N 	N 	0.45290 0.52260 0.21230 -0.08800
N 	N 	0.04710 0.02260 0.71230 -0.10500
N 	N 	0.54730 0.46810 0.17060 -0.11600
N 	N 	0.00780 0.86400 0.76260 -0.25500
N 	N 	0.04730 0.53190 0.67060 -0.13900
N 	N 	0.95290 0.47740 0.71230 -0.06700
N 	N 	0.99220 0.63600 0.76260 -0.19200
N 	N 	0.95270 0.96810 0.67060 -0.09800
N 	N 	0.50780 0.13600 0.26260 -0.22600
N 	N 	0.54710 0.97740 0.21230 -0.09100
N 	N 	0.45270 0.03190 0.17060 -0.11200
O 	O 	0.55130 0.14810 0.41959 -0.36700
O 	O 	0.75870 0.72410 0.88210 -0.31600
O 	O 	0.24130 0.77590 0.88210 -0.32700
O 	O 	0.44870 0.35190 0.41959 -0.37500
O 	O 	0.94870 0.64810 0.91959 -0.34500
O 	O 	0.05130 0.85190 0.91959 -0.38900
O 	O 	0.25870 0.27590 0.38210 -0.33400
O 	O 	0.74130 0.22410 0.38210 -0.31400
