data_crystal

_cell_length_a 28.92020
_cell_length_b 28.92020
_cell_length_c 28.92020
_cell_angle_alpha 90.00000
_cell_angle_beta  90.00000
_cell_angle_gamma 90.00000

_symmetry_space_group_name_	'P 1'
_symmetry_space_group_name_H-M	'P 1'

loop_
_symmetry_equiv_pos_as_xyz
  x,y,z

loop_
_atom_site_label
_atom_site_type_symbol
_atom_site_fract_x
_atom_site_fract_y
_atom_site_fract_z
_atom_site_charge
C 	C 	0.52371 1.02081 -0.64501 -0.06000
C 	C 	0.47630 1.02030 -0.64496 -0.06000
C 	C 	0.46248 1.00627 -0.59833 0.09000
N 	N 	0.50033 0.99848 -0.57196 -0.13500
C 	C 	0.53794 1.00698 -0.59843 0.09000
C 	C 	0.41647 0.99820 -0.58421 -0.08600
C 	C 	0.40365 0.99055 -0.53760 0.10500
C 	C 	0.36098 0.97382 -0.52349 -0.06700
C 	C 	0.36102 0.97429 -0.47594 -0.06700
C 	C 	0.40374 0.99123 -0.46224 0.10600
N 	N 	0.42952 1.00111 -0.50004 -0.17800
C 	C 	0.41673 0.99959 -0.41582 -0.08600
C 	C 	0.46291 1.00701 -0.40189 0.09000
C 	C 	0.47713 1.02086 -0.35532 -0.06000
C 	C 	0.52454 1.02038 -0.35537 -0.06000
C 	C 	0.53837 1.00633 -0.40200 0.09000
N 	N 	0.50053 0.99852 -0.42836 -0.13500
C 	C 	0.58439 0.99828 -0.41611 -0.08600
C 	C 	0.59721 0.99061 -0.46271 0.10500
C 	C 	0.63989 0.97390 -0.47682 -0.06600
C 	C 	0.63985 0.97435 -0.52437 -0.06600
C 	C 	0.59712 0.99126 -0.53807 0.10700
N 	N 	0.57134 1.00114 -0.50028 -0.17700
C 	C 	0.58413 0.99959 -0.58450 -0.08500
H 	H 	0.54552 1.03001 -0.67399 0.04700
H 	H 	0.45423 1.02905 -0.67387 0.04700
H 	H 	0.54009 1.01889 -0.50012 0.10100
H 	H 	0.33258 0.96273 -0.54518 0.05000
H 	H 	0.33268 0.96362 -0.45396 0.05000
H 	H 	0.45533 1.03006 -0.32634 0.04700
H 	H 	0.54661 1.02915 -0.32646 0.04700
H 	H 	0.66820 0.96368 -0.54634 0.05000
H 	H 	0.46076 1.01887 -0.50021 0.10100
H 	H 	0.66830 0.96283 -0.45512 0.05000
C 	C 	-0.64441 1.51981 0.02422 -0.05900
C 	C 	-0.64436 1.47240 0.02374 -0.05900
C 	C 	-0.59773 1.45858 0.00969 0.09100
N 	N 	-0.57136 1.49642 0.00188 -0.13400
C 	C 	-0.59784 1.53404 0.01037 0.09100
C 	C 	-0.58362 1.41256 0.00164 -0.08500
C 	C 	-0.53701 1.39974 -0.00602 0.10700
C 	C 	-0.52290 1.35706 -0.02274 -0.06600
C 	C 	-0.47535 1.35710 -0.02228 -0.06600
C 	C 	-0.46165 1.39983 -0.00537 0.10700
N 	N 	-0.49945 1.42561 0.00451 -0.17700
C 	C 	-0.41522 1.41282 0.00296 -0.08500
C 	C 	-0.40129 1.45901 0.01036 0.09100
C 	C 	-0.35472 1.47324 0.02419 -0.05900
C 	C 	-0.35477 1.52065 0.02368 -0.05900
C 	C 	-0.40140 1.53447 0.00964 0.09100
N 	N 	-0.42777 1.49662 0.00185 -0.13400
C 	C 	-0.41552 1.58048 0.00157 -0.08500
C 	C 	-0.46212 1.59330 -0.00608 0.10600
C 	C 	-0.47624 1.63597 -0.02281 -0.06600
C 	C 	-0.52379 1.63593 -0.02234 -0.06600
C 	C 	-0.53748 1.59321 -0.00540 0.10700
N 	N 	-0.49969 1.56743 0.00447 -0.17700
C 	C 	-0.58391 1.58022 0.00295 -0.08500
H 	H 	-0.67338 1.54162 0.03342 0.04700
H 	H 	-0.67327 1.45034 0.03251 0.04700
H 	H 	-0.49952 1.53619 0.02224 0.10100
H 	H 	-0.54460 1.32865 -0.03381 0.05000
H 	H 	-0.45338 1.32875 -0.03295 0.05000
H 	H 	-0.32574 1.45144 0.03338 0.04700
H 	H 	-0.32586 1.54272 0.03242 0.04700
H 	H 	-0.54577 1.66427 -0.03302 0.04900
H 	H 	-0.49960 1.45686 0.02226 0.10100
H 	H 	-0.45454 1.66437 -0.03391 0.04900
C 	C 	-0.02355 0.64131 0.47572 -0.05900
C 	C 	-0.02404 0.64136 0.52313 -0.05900
C 	C 	-0.01019 0.59479 0.53736 0.09100
N 	N 	-0.00170 0.56831 0.49974 -0.13400
C 	C 	-0.00951 0.59468 0.46190 0.09100
C 	C 	-0.00277 0.58086 0.58354 -0.08500
C 	C 	0.00559 0.53444 0.59653 0.10700
C 	C 	0.02253 0.52074 0.63925 -0.06600
C 	C 	0.02300 0.47320 0.63929 -0.06600
C 	C 	0.00627 0.45908 0.59662 0.10600
N 	N 	-0.00429 0.49664 0.57075 -0.17700
C 	C 	-0.00139 0.41247 0.58380 -0.08500
C 	C 	-0.00945 0.39835 0.53779 0.09100
C 	C 	-0.02348 0.35172 0.52398 -0.05900
C 	C 	-0.02399 0.35167 0.47657 -0.05900
C 	C 	-0.01016 0.39824 0.46234 0.09100
N 	N 	-0.00167 0.42472 0.49995 -0.13400
C 	C 	-0.00277 0.41217 0.41615 -0.08500
C 	C 	0.00556 0.45860 0.40315 0.10700
C 	C 	0.02248 0.47230 0.36043 -0.06600
C 	C 	0.02293 0.51985 0.36039 -0.06600
C 	C 	0.00621 0.53396 0.40306 0.10600
N 	N 	-0.00432 0.49639 0.42894 -0.17700
C 	C 	-0.00145 0.58056 0.41588 -0.08500
H 	H 	-0.03232 0.67022 0.45365 0.04700
H 	H 	-0.03324 0.67034 0.54494 0.04700
H 	H 	-0.02207 0.49655 0.46018 0.10100
H 	H 	0.03321 0.54272 0.66759 0.04900
H 	H 	0.03409 0.45150 0.66770 0.04900
H 	H 	-0.03223 0.32280 0.54605 0.04700
H 	H 	-0.03319 0.32269 0.45477 0.04700
H 	H 	0.03401 0.54155 0.33198 0.05000
H 	H 	-0.02205 0.49647 0.53952 0.10100
H 	H 	0.03316 0.45032 0.33208 0.05000
O 	O 	-0.06215 0.99502 -0.11918 -0.64100
O 	O 	-0.06222 0.99809 0.11881 -0.64100
O 	O 	-0.11859 0.93394 -0.00179 -0.64100
O 	O 	-0.11854 1.05917 0.00142 -0.64100
O 	O 	-0.06218 1.11552 0.00145 -0.64000
O 	O 	-0.06227 0.87755 -0.00179 -0.64000
O 	O 	-0.11857 0.99812 0.06245 -0.64000
O 	O 	-0.11854 0.99500 -0.06286 -0.64000
Zr	Zr	-0.08094 0.99654 -0.00019 3.23700
O 	O 	-0.04152 1.03847 0.04180 -1.27600
O 	O 	-0.04153 0.95458 -0.04216 -1.27600
C 	C 	-0.10500 0.99428 -0.10570 0.48100
C 	C 	-0.10506 0.99887 0.10530 0.48100
C 	C 	-0.10511 0.89109 -0.00254 0.48100
C 	C 	-0.10502 1.10201 0.00220 0.48100
H 	H 	-0.06112 0.93502 0.06131 0.32300
O 	O 	-0.04137 0.95475 0.04158 -1.51000
H 	H 	-0.06103 1.05807 -0.06166 0.32300
O 	O 	-0.04131 1.03832 -0.04192 -1.51000
O 	O 	0.06301 0.99488 0.11886 -0.64100
O 	O 	0.06309 0.99814 -0.11912 -0.64100
O 	O 	0.00193 0.87750 0.06242 -0.64100
O 	O 	-0.00114 1.11548 0.06250 -0.64100
O 	O 	0.00206 1.11554 -0.06273 -0.64100
O 	O 	-0.00119 0.87755 -0.06282 -0.64100
O 	O 	0.11940 0.93386 0.00145 -0.64100
O 	O 	0.11945 1.05910 -0.00166 -0.64100
O 	O 	0.06304 0.87751 0.00140 -0.64000
O 	O 	0.06313 1.11548 -0.00167 -0.64000
O 	O 	0.00195 0.93381 0.11881 -0.64000
O 	O 	-0.00114 0.93392 -0.11917 -0.64000
O 	O 	0.00206 1.05922 -0.11912 -0.64000
O 	O 	-0.00118 1.05912 0.11885 -0.64000
O 	O 	0.11940 0.99488 0.06254 -0.64000
O 	O 	0.11944 0.99808 -0.06276 -0.64000
Zr	Zr	0.00041 0.99648 0.08121 3.23800
Zr	Zr	0.00046 0.99655 -0.08153 3.23700
Zr	Zr	0.00040 0.91515 -0.00019 3.23700
Zr	Zr	0.00046 1.07789 -0.00013 3.23800
Zr	Zr	0.08180 0.99649 -0.00013 3.23800
O 	O 	0.04243 1.03848 -0.04209 -1.27600
O 	O 	0.04237 0.95452 0.04181 -1.27600
C 	C 	0.10586 0.99413 0.10538 0.48100
C 	C 	0.10593 0.99887 -0.10561 0.48100
C 	C 	0.00267 0.89097 0.10527 0.48100
C 	C 	-0.00192 1.10197 0.10534 0.48100
C 	C 	0.00281 1.10206 -0.10559 0.48100
C 	C 	-0.00192 0.89107 -0.10566 0.48100
C 	C 	0.10588 0.89102 0.00219 0.48100
C 	C 	0.10597 1.10195 -0.00240 0.48100
H 	H 	0.06193 0.93502 -0.06166 0.32300
O 	O 	0.04220 0.95475 -0.04192 -1.51000
H 	H 	0.06193 1.05798 0.06139 0.32300
O 	O 	0.04220 1.03826 0.04164 -1.51000
C 	C 	0.31087 0.99466 0.31113 0.00900
C 	C 	0.30974 1.02855 0.34574 -0.03400
C 	C 	0.34405 1.02966 0.37983 -0.05700
C 	C 	0.37989 0.99688 0.37966 0.04300
C 	C 	0.38077 0.96285 0.34499 -0.05700
C 	C 	0.34646 0.96180 0.31089 -0.03400
C 	C 	0.27567 0.99375 0.27582 -0.00700
C 	C 	0.24622 0.99315 0.24623 -0.03200
C 	C 	0.21103 0.99269 0.21089 0.05600
C 	C 	0.22349 0.99256 0.16412 -0.08600
C 	C 	0.18938 0.99276 0.12980 0.05000
C 	C 	0.14215 0.99311 0.14177 -0.13900
C 	C 	0.13003 0.99295 0.18896 0.05000
C 	C 	0.16422 0.99276 0.22319 -0.08600
H 	H 	0.28240 1.05416 0.34630 0.03900
H 	H 	0.34284 1.05616 0.40628 0.04500
H 	H 	0.40804 0.93719 0.34442 0.04700
H 	H 	0.34771 0.93540 0.28433 0.03900
H 	H 	0.25961 0.99250 0.15416 0.05300
H 	H 	0.20008 0.99282 0.09392 0.03600
H 	H 	0.09411 0.99318 0.19954 0.03600
H 	H 	0.15413 0.99286 0.25927 0.05300
C 	C 	-0.31025 1.00006 0.31084 0.00900
C 	C 	-0.30978 1.03332 0.34606 -0.03400
C 	C 	-0.34410 1.03310 0.38016 -0.05700
C 	C 	-0.37928 0.99961 0.37936 0.04300
C 	C 	-0.37946 0.96619 0.34410 -0.05700
C 	C 	-0.34515 0.96647 0.31000 -0.03400
C 	C 	-0.27499 1.00041 0.27558 -0.00700
C 	C 	-0.24550 1.00063 0.24602 -0.03300
C 	C 	-0.21029 1.00075 0.21071 0.05600
C 	C 	-0.16349 1.00083 0.22305 -0.08600
C 	C 	-0.12928 1.00045 0.18885 0.05000
C 	C 	-0.14137 0.99996 0.14165 -0.13900
C 	C 	-0.18859 1.00012 0.12965 0.05000
C 	C 	-0.22272 1.00049 0.16394 -0.08600
H 	H 	-0.28296 1.05945 0.34710 0.03900
H 	H 	-0.34342 1.05912 0.40710 0.04500
H 	H 	-0.40619 0.93998 0.34307 0.04600
H 	H 	-0.34584 0.94052 0.28298 0.03900
H 	H 	-0.15343 1.00105 0.25914 0.05400
H 	H 	-0.09337 1.00039 0.19946 0.03600
H 	H 	-0.19927 0.99978 0.09376 0.03600
H 	H 	-0.25883 1.00044 0.15396 0.05300
C 	C 	-0.31002 0.99481 -0.31145 0.00900
C 	C 	-0.34559 0.96193 -0.31119 -0.03400
C 	C 	-0.37990 0.96297 -0.34529 -0.05700
C 	C 	-0.37903 0.99698 -0.37997 0.04300
C 	C 	-0.34321 1.02978 -0.38016 -0.05700
C 	C 	-0.30889 1.02869 -0.34606 -0.03400
C 	C 	-0.27481 0.99392 -0.27613 -0.00700
C 	C 	-0.24535 0.99333 -0.24655 -0.03200
C 	C 	-0.21016 0.99287 -0.21121 0.05600
C 	C 	-0.22263 0.99275 -0.16444 -0.08600
C 	C 	-0.18852 0.99294 -0.13012 0.05000
C 	C 	-0.14129 0.99328 -0.14208 -0.13900
C 	C 	-0.12916 0.99313 -0.18928 0.05000
C 	C 	-0.16336 0.99295 -0.22350 -0.08600
H 	H 	-0.34683 0.93555 -0.28463 0.03900
H 	H 	-0.40716 0.93729 -0.34472 0.04700
H 	H 	-0.34200 1.05627 -0.40661 0.04500
H 	H 	-0.28156 1.05431 -0.34663 0.03900
H 	H 	-0.25874 0.99268 -0.15448 0.05400
H 	H 	-0.19922 0.99300 -0.09424 0.03600
H 	H 	-0.09325 0.99335 -0.19986 0.03600
H 	H 	-0.15327 0.99304 -0.25958 0.05400
C 	C 	0.31111 1.00005 -0.31116 0.00900
C 	C 	0.34602 0.96647 -0.31030 -0.03400
C 	C 	0.38034 0.96620 -0.34441 -0.05700
C 	C 	0.38014 0.99960 -0.37968 0.04300
C 	C 	0.34495 1.03308 -0.38050 -0.05700
C 	C 	0.31063 1.03329 -0.34639 -0.03400
C 	C 	0.27585 1.00040 -0.27589 -0.00700
C 	C 	0.24637 1.00062 -0.24634 -0.03200
C 	C 	0.21115 1.00073 -0.21103 0.05600
C 	C 	0.22359 1.00043 -0.16426 -0.08600
C 	C 	0.18946 1.00006 -0.12996 0.05000
C 	C 	0.14224 0.99995 -0.14196 -0.13900
C 	C 	0.13014 1.00050 -0.18916 0.05000
C 	C 	0.16436 1.00087 -0.22336 -0.08600
H 	H 	0.34673 0.94054 -0.28328 0.03900
H 	H 	0.40708 0.94000 -0.34337 0.04700
H 	H 	0.34426 1.05908 -0.40744 0.04500
H 	H 	0.28380 1.05941 -0.34745 0.03900
H 	H 	0.25970 1.00033 -0.15428 0.05400
H 	H 	0.20014 0.99968 -0.09408 0.03600
H 	H 	0.09424 1.00048 -0.19977 0.03600
H 	H 	0.15429 1.00113 -0.25945 0.05300
C 	C 	0.31172 1.30696 -0.00184 0.00900
C 	C 	0.31147 1.34254 -0.03471 -0.03400
C 	C 	0.34557 1.37685 -0.03367 -0.05700
C 	C 	0.38025 1.37598 0.00034 0.04300
C 	C 	0.38043 1.34015 0.03314 -0.05700
C 	C 	0.34634 1.30584 0.03205 -0.03400
C 	C 	0.27641 1.27176 -0.00273 -0.00700
C 	C 	0.24682 1.24230 -0.00332 -0.03200
C 	C 	0.21149 1.20711 -0.00379 0.05600
C 	C 	0.22378 1.16030 -0.00372 -0.08600
C 	C 	0.18955 1.12611 -0.00354 0.05000
C 	C 	0.14236 1.13824 -0.00339 -0.13900
C 	C 	0.13040 1.18547 -0.00373 0.05000
C 	C 	0.16472 1.21958 -0.00391 -0.08600
H 	H 	0.28491 1.34378 -0.06110 0.03900
H 	H 	0.34499 1.40412 -0.05935 0.04700
H 	H 	0.40689 1.33895 0.05962 0.04500
H 	H 	0.34691 1.27851 0.05766 0.03900
H 	H 	0.25986 1.15021 -0.00362 0.05400
H 	H 	0.20014 1.09020 -0.00332 0.03600
H 	H 	0.09452 1.19617 -0.00367 0.03600
H 	H 	0.15476 1.25569 -0.00398 0.05400
C 	C 	0.31143 0.68584 0.00339 0.00900
C 	C 	0.34666 0.68632 0.03664 -0.03400
C 	C 	0.38076 0.65200 0.03643 -0.05700
C 	C 	0.37996 0.61681 0.00296 0.04300
C 	C 	0.34468 0.61661 -0.03045 -0.05700
C 	C 	0.31058 0.65092 -0.03018 -0.03400
C 	C 	0.27617 0.72109 0.00373 -0.00700
C 	C 	0.24661 0.75058 0.00395 -0.03200
C 	C 	0.21130 0.78580 0.00406 0.05600
C 	C 	0.22363 0.83259 0.00420 -0.08600
C 	C 	0.18943 0.86680 0.00382 0.05000
C 	C 	0.14224 0.85471 0.00327 -0.13900
C 	C 	0.13024 0.80749 0.00338 0.05000
C 	C 	0.16453 0.77336 0.00375 -0.08600
H 	H 	0.34771 0.71316 0.06275 0.03900
H 	H 	0.40771 0.65270 0.06244 0.04500
H 	H 	0.34364 0.58986 -0.05664 0.04700
H 	H 	0.28355 0.65021 -0.05611 0.03900
H 	H 	0.25972 0.84266 0.00445 0.05400
H 	H 	0.20004 0.90271 0.00380 0.03600
H 	H 	0.09435 0.79681 0.00300 0.03600
H 	H 	0.15455 0.73725 0.00366 0.05400
C 	C 	-0.31086 0.68608 -0.00198 0.00900
C 	C 	-0.34546 0.68721 0.03191 -0.03400
C 	C 	-0.37956 0.65290 0.03303 -0.05700
C 	C 	-0.37938 0.61706 0.00024 0.04300
C 	C 	-0.34471 0.61617 -0.03378 -0.05700
C 	C 	-0.31061 0.65048 -0.03484 -0.03400
C 	C 	-0.27554 0.72128 -0.00290 -0.00700
C 	C 	-0.24596 0.75074 -0.00350 -0.03300
C 	C 	-0.21062 0.78593 -0.00398 0.05600
C 	C 	-0.22291 0.83273 -0.00390 -0.08600
C 	C 	-0.18869 0.86692 -0.00371 0.05000
C 	C 	-0.14149 0.85480 -0.00356 -0.13900
C 	C 	-0.12953 0.80757 -0.00392 0.05000
C 	C 	-0.16385 0.77346 -0.00410 -0.08600
H 	H 	-0.34602 0.71455 0.05751 0.03900
H 	H 	-0.40600 0.65412 0.05952 0.04500
H 	H 	-0.34415 0.58890 -0.05945 0.04700
H 	H 	-0.28406 0.64924 -0.06124 0.03900
H 	H 	-0.25899 0.84282 -0.00380 0.05300
H 	H 	-0.19927 0.90284 -0.00348 0.03600
H 	H 	-0.09365 0.79687 -0.00385 0.03600
H 	H 	-0.15389 0.73734 -0.00417 0.05300
C 	C 	-0.31056 1.30720 0.00342 0.00900
C 	C 	-0.34578 1.30674 0.03668 -0.03400
C 	C 	-0.37989 1.34106 0.03647 -0.05700
C 	C 	-0.37909 1.37623 0.00298 0.04300
C 	C 	-0.34383 1.37642 -0.03044 -0.05700
C 	C 	-0.30972 1.34210 -0.03016 -0.03400
C 	C 	-0.27530 1.27194 0.00377 -0.00700
C 	C 	-0.24574 1.24246 0.00399 -0.03200
C 	C 	-0.21044 1.20724 0.00410 0.05600
C 	C 	-0.16367 1.21968 0.00384 -0.08600
C 	C 	-0.12937 1.18554 0.00346 0.05000
C 	C 	-0.14138 1.13833 0.00330 -0.13900
C 	C 	-0.18857 1.12623 0.00379 0.05000
C 	C 	-0.22277 1.16045 0.00418 -0.08600
H 	H 	-0.34682 1.27991 0.06281 0.03900
H 	H 	-0.40682 1.34037 0.06248 0.04500
H 	H 	-0.34279 1.40315 -0.05665 0.04600
H 	H 	-0.28271 1.34280 -0.05611 0.03900
H 	H 	-0.15368 1.25579 0.00379 0.05300
H 	H 	-0.09349 1.19622 0.00312 0.03600
H 	H 	-0.19918 1.09032 0.00373 0.03600
H 	H 	-0.25886 1.15038 0.00440 0.05400
C 	C 	-0.00320 1.30750 0.31053 0.00900
C 	C 	-0.03646 1.34272 0.31006 -0.03400
C 	C 	-0.03626 1.37683 0.34438 -0.05700
C 	C 	-0.00278 1.37603 0.37956 0.04300
C 	C 	0.03065 1.34078 0.37975 -0.05700
C 	C 	0.03038 1.30667 0.34544 -0.03400
C 	C 	-0.00353 1.27224 0.27527 -0.00700
C 	C 	-0.00374 1.24269 0.24578 -0.03300
C 	C 	-0.00384 1.20738 0.21057 0.05600
C 	C 	-0.00391 1.21972 0.16378 -0.08600
C 	C 	-0.00353 1.18552 0.12956 0.05000
C 	C 	-0.00302 1.13832 0.14165 -0.13900
C 	C 	-0.00319 1.12632 0.18887 0.05000
C 	C 	-0.00357 1.16061 0.22300 -0.08600
H 	H 	-0.06259 1.34376 0.28323 0.03900
H 	H 	-0.06228 1.40375 0.34369 0.04500
H 	H 	0.05685 1.33975 0.40649 0.04600
H 	H 	0.05633 1.27966 0.34614 0.03900
H 	H 	-0.00414 1.25581 0.15371 0.05400
H 	H 	-0.00346 1.19613 0.09365 0.03600
H 	H 	-0.00285 1.09043 0.19955 0.03600
H 	H 	-0.00352 1.15063 0.25911 0.05300
C 	C 	0.00220 1.30781 -0.31060 0.00900
C 	C 	0.03505 1.30757 -0.34619 -0.03400
C 	C 	0.03398 1.34167 -0.38050 -0.05700
C 	C 	-0.00005 1.37634 -0.37961 0.04300
C 	C 	-0.03283 1.37651 -0.34377 -0.05700
C 	C 	-0.03170 1.34241 -0.30945 -0.03400
C 	C 	0.00312 1.27250 -0.27539 -0.00700
C 	C 	0.00374 1.24291 -0.24594 -0.03300
C 	C 	0.00422 1.20757 -0.21075 0.05600
C 	C 	0.00435 1.16081 -0.22321 -0.08600
C 	C 	0.00417 1.12648 -0.18910 0.05000
C 	C 	0.00382 1.13845 -0.14188 -0.13900
C 	C 	0.00397 1.18564 -0.12975 0.05000
C 	C 	0.00415 1.21987 -0.16394 -0.08600
H 	H 	0.06145 1.28102 -0.34744 0.03900
H 	H 	0.05964 1.34110 -0.40778 0.04700
H 	H 	-0.05932 1.40295 -0.34255 0.04500
H 	H 	-0.05730 1.34297 -0.28211 0.03900
H 	H 	0.00441 1.15085 -0.25933 0.05300
H 	H 	0.00411 1.09060 -0.19981 0.03600
H 	H 	0.00375 1.19622 -0.09383 0.03600
H 	H 	0.00405 1.25595 -0.15385 0.05300
C 	C 	-0.00319 0.68553 -0.31085 0.00900
C 	C 	-0.03644 0.65030 -0.31036 -0.03400
C 	C 	-0.03624 0.61620 -0.34468 -0.05700
C 	C 	-0.00277 0.61700 -0.37987 0.04300
C 	C 	0.03064 0.65227 -0.38008 -0.05700
C 	C 	0.03038 0.68638 -0.34577 -0.03400
C 	C 	-0.00352 0.72079 -0.27559 -0.00700
C 	C 	-0.00373 0.75035 -0.24610 -0.03200
C 	C 	-0.00383 0.78566 -0.21089 0.05600
C 	C 	-0.00396 0.77332 -0.16409 -0.08600
C 	C 	-0.00357 0.80752 -0.12988 0.05000
C 	C 	-0.00302 0.85472 -0.14197 -0.13900
C 	C 	-0.00313 0.86672 -0.18919 0.05000
C 	C 	-0.00351 0.83243 -0.22332 -0.08600
H 	H 	-0.06255 0.64925 -0.28352 0.03900
H 	H 	-0.06225 0.58926 -0.34398 0.04500
H 	H 	0.05683 0.65331 -0.40683 0.04700
H 	H 	0.05631 0.71340 -0.34648 0.03900
H 	H 	-0.00422 0.73723 -0.15403 0.05400
H 	H 	-0.00355 0.79691 -0.09397 0.03600
H 	H 	-0.00275 0.90261 -0.19987 0.03600
H 	H 	-0.00343 0.84241 -0.25943 0.05400
C 	C 	0.00206 0.68522 0.31028 0.00900
C 	C 	-0.03183 0.65061 0.30915 -0.03400
C 	C 	-0.03293 0.61652 0.34347 -0.05700
C 	C 	-0.00014 0.61670 0.37930 0.04300
C 	C 	0.03388 0.65138 0.38018 -0.05700
C 	C 	0.03492 0.68547 0.34587 -0.03400
C 	C 	0.00296 0.72053 0.27508 -0.00700
C 	C 	0.00356 0.75012 0.24562 -0.03200
C 	C 	0.00404 0.78546 0.21043 0.05600
C 	C 	0.00397 0.77316 0.16362 -0.08600
C 	C 	0.00380 0.80739 0.12943 0.05000
C 	C 	0.00366 0.85459 0.14156 -0.13900
C 	C 	0.00400 0.86655 0.18879 0.05000
C 	C 	0.00417 0.83222 0.22290 -0.08600
H 	H 	-0.05744 0.65005 0.28182 0.03900
H 	H 	-0.05942 0.59006 0.34226 0.04500
H 	H 	0.05955 0.65195 0.40745 0.04700
H 	H 	0.06132 0.71203 0.34711 0.03900
H 	H 	0.00387 0.73709 0.15353 0.05400
H 	H 	0.00358 0.79681 0.09352 0.03600
H 	H 	0.00394 0.90243 0.19949 0.03600
H 	H 	0.00423 0.84218 0.25901 0.05400
