data_crystal

_cell_length_a 21.43000
_cell_length_b 21.43000
_cell_length_c 16.89000
_cell_angle_alpha 90.00000
_cell_angle_beta  90.00000
_cell_angle_gamma 120.00000

_symmetry_space_group_name_	'P 1'
_symmetry_space_group_name_H-M	'P 1'

loop_
_symmetry_equiv_pos_as_xyz
  x,y,z

loop_
_atom_site_label
_atom_site_type_symbol
_atom_site_fract_x
_atom_site_fract_y
_atom_site_fract_z
_atom_site_charge
O 	O 	0.95877 0.14560 0.07304 -0.58400
O 	O 	0.04102 0.14184 0.15560 -0.56400
C 	C 	0.00100 0.45600 0.32800 0.01400
C 	C 	0.99600 0.46670 0.24900 0.01000
C 	C 	0.99860 0.39080 0.34740 -0.02600
C 	C 	0.00200 0.37000 0.42500 0.00900
C 	C 	0.00400 0.31400 0.45992 -0.03800
C 	C 	0.00191 0.33957 0.28501 0.00700
C 	C 	0.94850 0.30352 0.22651 -0.07900
C 	C 	0.94851 0.24952 0.17722 0.01400
C 	C 	0.05508 0.31899 0.29108 -0.06300
C 	C 	0.00069 0.16911 0.13455 0.43000
C 	C 	0.00117 0.22841 0.18506 -0.11400
C 	C 	0.05478 0.26501 0.24262 0.02400
Zr	Zr	0.92834 0.92614 0.09253 3.19000
O 	O 	0.82917 0.83005 0.08285 -0.59500
O 	O 	0.87554 0.86613 0.19296 -0.58000
C 	C 	0.54400 0.54500 0.32800 0.09100
C 	C 	0.53330 0.52930 0.24900 -0.07000
C 	C 	0.60920 0.60780 0.34740 -0.11300
C 	C 	0.63000 0.63200 0.42500 0.05000
C 	C 	0.68600 0.69000 0.45992 -0.04900
C 	C 	0.66077 0.65229 0.28694 0.07900
C 	C 	0.73149 0.66607 0.29329 -0.09800
C 	C 	0.78432 0.71823 0.24623 0.06700
C 	C 	0.64201 0.68815 0.23089 -0.09700
C 	C 	0.82311 0.81731 0.15546 0.43100
C 	C 	0.76599 0.75530 0.19214 -0.14500
C 	C 	0.69508 0.73986 0.18267 0.05900
O 	O 	0.15119 0.96342 0.07203 -0.58300
C 	C 	0.45301 0.00142 0.32939 0.09300
C 	C 	0.47070 0.00400 0.24900 -0.08700
C 	C 	0.39220 0.00140 0.34740 -0.12500
C 	C 	0.36800 0.99800 0.42500 0.06600
C 	C 	0.31000 0.99600 0.45992 -0.05200
C 	C 	0.34393 0.00676 0.28802 0.05100
C 	C 	0.30766 0.04556 0.30529 -0.08200
C 	C 	0.25450 0.04565 0.25586 0.03000
C 	C 	0.32403 0.96933 0.21466 -0.07000
C 	C 	0.17329 0.00479 0.13389 0.42900
C 	C 	0.23325 0.00646 0.18486 -0.11600
C 	C 	0.27007 0.96910 0.16459 0.04500
O 	O 	0.04427 0.85486 0.07251 -0.60200
C 	C 	0.99900 0.54400 0.32800 0.16700
C 	C 	0.00400 0.53330 0.24900 -0.14300
C 	C 	0.00140 0.60920 0.34740 -0.17500
C 	C 	0.99800 0.63000 0.42500 0.08100
C 	C 	0.99600 0.68600 0.45992 -0.05800
C 	C 	0.99902 0.66069 0.28492 0.11400
C 	C 	0.05266 0.69604 0.22645 -0.15200
C 	C 	0.05335 0.75012 0.17676 0.02900
C 	C 	0.94644 0.68198 0.29071 -0.10400
C 	C 	0.00203 0.83113 0.13362 0.44400
C 	C 	0.00118 0.77187 0.18429 -0.12500
C 	C 	0.94750 0.73603 0.24190 0.06100
Zr	Zr	0.07378 0.07408 0.09276 3.18800
O 	O 	0.16849 0.17409 0.08207 -0.59700
C 	C 	0.45600 0.45500 0.32800 0.09200
C 	C 	0.46670 0.47070 0.24900 -0.06700
C 	C 	0.39080 0.39220 0.34740 -0.11300
C 	C 	0.37000 0.36800 0.42500 0.05000
C 	C 	0.31400 0.31000 0.45992 -0.05000
C 	C 	0.34485 0.34267 0.28674 0.08100
C 	C 	0.30264 0.36039 0.23912 -0.09700
C 	C 	0.25095 0.30803 0.19029 0.05800
C 	C 	0.33769 0.27432 0.28417 -0.09700
C 	C 	0.18092 0.18125 0.15468 0.43200
C 	C 	0.24243 0.23915 0.19061 -0.14400
C 	C 	0.28578 0.22216 0.23637 0.06200
O 	O 	0.85839 0.95629 0.15564 -0.55900
O 	O 	0.85177 0.03681 0.07286 -0.60700
C 	C 	0.54500 0.00100 0.32800 0.05900
C 	C 	0.52930 0.99600 0.24900 -0.03400
C 	C 	0.60780 0.99860 0.34740 -0.07500
C 	C 	0.63200 0.00200 0.42500 0.03100
C 	C 	0.69000 0.00400 0.45992 -0.04400
C 	C 	0.65819 0.99325 0.28518 0.05600
C 	C 	0.68257 0.94327 0.29531 -0.07300
C 	C 	0.73662 0.94343 0.24682 0.03200
C 	C 	0.69071 0.04330 0.22279 -0.08200
C 	C 	0.82940 0.99515 0.13461 0.45800
C 	C 	0.76964 0.99385 0.18533 -0.09900
C 	C 	0.74475 0.04320 0.17371 0.02700
O 	O 	0.04454 0.85505 0.92816 -0.58800
O 	O 	0.96188 0.85843 0.84620 -0.54000
C 	C 	0.99900 0.54400 0.67200 0.16200
C 	C 	0.00400 0.53330 0.75100 -0.13500
C 	C 	0.00140 0.60920 0.65260 -0.16800
C 	C 	0.99800 0.63000 0.57500 0.08000
C 	C 	0.99600 0.68600 0.54008 -0.05600
C 	C 	0.99919 0.66085 0.71513 0.10400
C 	C 	0.05261 0.69584 0.77395 -0.10800
C 	C 	0.05343 0.74996 0.82375 0.04900
C 	C 	0.94698 0.68263 0.70918 -0.09700
C 	C 	0.00243 0.83139 0.86690 0.44400
C 	C 	0.00160 0.77216 0.81606 -0.12300
C 	C 	0.94816 0.73670 0.75809 0.06000
Zr	Zr	0.07401 0.07395 0.90828 3.18900
O 	O 	0.17402 0.16894 0.91712 -0.58400
O 	O 	0.12590 0.13366 0.80755 -0.58800
C 	C 	0.45600 0.45500 0.67200 0.09100
C 	C 	0.46670 0.47070 0.75100 -0.06800
C 	C 	0.39080 0.39220 0.65260 -0.11300
C 	C 	0.37000 0.36800 0.57500 0.05100
C 	C 	0.31400 0.31000 0.54008 -0.04900
C 	C 	0.33973 0.34750 0.71305 0.08100
C 	C 	0.26887 0.33329 0.70717 -0.09800
C 	C 	0.21656 0.28081 0.75427 0.06800
C 	C 	0.35923 0.31191 0.76864 -0.09600
C 	C 	0.17906 0.18192 0.84463 0.43200
C 	C 	0.23561 0.24394 0.80780 -0.14300
C 	C 	0.30668 0.25989 0.81690 0.06400
O 	O 	0.85856 0.95638 0.84503 -0.55500
O 	O 	0.85188 0.03691 0.92782 -0.59000
C 	C 	0.54500 0.00100 0.67200 0.05800
C 	C 	0.52930 0.99600 0.75100 -0.03200
C 	C 	0.60780 0.99860 0.65260 -0.07400
C 	C 	0.63200 0.00200 0.57500 0.03100
C 	C 	0.69000 0.00400 0.54008 -0.04300
C 	C 	0.65832 0.99335 0.71490 0.05400
C 	C 	0.68290 0.94351 0.70480 -0.07100
C 	C 	0.73695 0.94371 0.75342 0.03100
C 	C 	0.69073 0.04333 0.77742 -0.08000
C 	C 	0.82958 0.99530 0.86598 0.45400
C 	C 	0.76984 0.99403 0.81506 -0.09300
C 	C 	0.74478 0.04328 0.82661 0.02900
O 	O 	0.95811 0.14564 0.92858 -0.56800
O 	O 	0.04111 0.14258 0.84687 -0.54600
C 	C 	0.00100 0.45600 0.67200 0.01900
C 	C 	0.99600 0.46670 0.75100 -0.01000
C 	C 	0.99860 0.39080 0.65260 -0.02400
C 	C 	0.00200 0.37000 0.57500 0.00800
C 	C 	0.00400 0.31400 0.54008 -0.03800
C 	C 	0.00155 0.33935 0.71519 0.00100
C 	C 	0.94884 0.30450 0.77476 -0.04300
C 	C 	0.94876 0.25069 0.82460 0.04400
C 	C 	0.05384 0.31765 0.70870 -0.06000
C 	C 	0.00029 0.16942 0.86737 0.42000
C 	C 	0.00064 0.22855 0.81638 -0.11100
C 	C 	0.05340 0.26388 0.75767 0.02800
Zr	Zr	0.92852 0.92619 0.90814 3.19100
O 	O 	0.82968 0.82964 0.91756 -0.58000
O 	O 	0.87565 0.86655 0.80747 -0.57900
C 	C 	0.54400 0.54500 0.67200 0.09200
C 	C 	0.53330 0.52930 0.75100 -0.06600
C 	C 	0.60920 0.60780 0.65260 -0.11100
C 	C 	0.63000 0.63200 0.57500 0.05000
C 	C 	0.68600 0.69000 0.54008 -0.04800
C 	C 	0.66093 0.65231 0.71307 0.08000
C 	C 	0.73179 0.66653 0.70625 -0.09700
C 	C 	0.78467 0.71870 0.75330 0.06600
C 	C 	0.64218 0.68779 0.76962 -0.09400
C 	C 	0.82343 0.81734 0.84485 0.42700
C 	C 	0.76632 0.75537 0.80792 -0.13900
C 	C 	0.69530 0.73949 0.81785 0.05900
O 	O 	0.14334 0.04266 0.84527 -0.55600
O 	O 	0.15249 0.96520 0.93056 -0.57000
C 	C 	0.45450 0.00436 0.67052 0.09100
C 	C 	0.47070 0.00400 0.75100 -0.07900
C 	C 	0.39220 0.00140 0.65260 -0.12000
C 	C 	0.36800 0.99800 0.57500 0.06400
C 	C 	0.31000 0.99600 0.54008 -0.04900
C 	C 	0.33991 0.00016 0.71253 0.04900
C 	C 	0.35744 0.03185 0.78933 -0.07500
C 	C 	0.30479 0.03374 0.84021 0.03400
C 	C 	0.26527 0.96864 0.69379 -0.06500
C 	C 	0.17393 0.00568 0.86806 0.43100
C 	C 	0.23188 0.00475 0.81665 -0.11400
C 	C 	0.21338 0.97107 0.74283 0.05300
Zr	Zr	0.06147 0.94333 0.00055 3.17900
Zr	Zr	0.94113 0.05712 0.00051 3.17900
N 	N 	-0.00000 0.50000 0.38400 -0.29600
N 	N 	0.50000 0.50000 0.38400 -0.28900
N 	N 	0.50000 0.00000 0.38400 -0.28500
N 	N 	0.00000 0.50000 0.61600 -0.29600
N 	N 	0.50000 0.50000 0.61600 -0.28900
N 	N 	0.50000 0.00000 0.61600 -0.28300
N 	N 	0.01000 0.41600 0.50000 -0.26200
N 	N 	0.58400 0.59400 0.50000 -0.26900
N 	N 	0.40600 0.99000 0.50000 -0.26800
N 	N 	0.99000 0.58400 0.50000 -0.27100
N 	N 	0.41600 0.40600 0.50000 -0.26900
N 	N 	0.59400 0.01000 0.50000 -0.26600
Fe	Fe	0.00000 0.50000 0.50000 1.11500
Fe	Fe	0.50000 0.50000 0.50000 1.12000
Fe	Fe	0.50000 -0.00000 0.50000 1.11600
O 	O 	0.96146 0.85813 0.15430 -0.54200
O 	O 	0.14370 0.04309 0.15513 -0.54900
O 	O 	0.13279 0.12886 0.19285 -0.58900
O 	O 	0.96558 0.03376 0.11655 -1.37700
O 	O 	0.87474 0.94295 0.00029 -1.40300
O 	O 	0.94762 0.87412 0.00037 -1.40600
O 	O 	0.12761 0.05744 0.00073 -1.41600
O 	O 	0.03686 0.96645 0.88454 -1.37800
O 	O 	0.05494 0.12616 0.00039 -1.41900
O 	O 	0.03657 0.96649 0.11623 -1.38600
O 	O 	0.96580 0.03379 0.88460 -1.37400
H 	H 	0.98722 0.42302 0.20453 0.02300
H 	H 	0.00554 0.27081 0.42195 0.03800
H 	H 	0.89394 0.27821 0.25741 0.04400
H 	H 	0.95319 0.34945 0.18816 0.04100
H 	H 	0.95025 0.26724 0.11323 0.04400
H 	H 	0.89575 0.19667 0.18537 0.04400
H 	H 	0.10035 0.34624 0.33633 0.03900
H 	H 	0.04631 0.21120 0.09655 -0.00400
H 	H 	0.09871 0.25022 0.24970 0.04700
H 	H 	0.57698 0.56419 0.20453 0.04700
H 	H 	0.72919 0.73473 0.42195 0.04700
H 	H 	0.74516 0.63426 0.33717 0.04700
H 	H 	0.84244 0.73064 0.25186 0.02200
H 	H 	0.58360 0.67477 0.22519 0.04800
H 	H 	0.68035 0.76893 0.13624 0.03200
H 	H 	0.43682 0.01154 0.20205 0.04200
H 	H 	0.26527 0.99446 0.42195 0.04900
H 	H 	0.32100 0.07900 0.36174 0.04000
H 	H 	0.22773 0.07812 0.27333 0.04500
H 	H 	0.35256 0.93882 0.19611 0.04400
H 	H 	0.25543 0.93820 0.10626 0.04300
H 	H 	0.01225 0.56339 0.19080 0.05000
H 	H 	0.99446 0.72919 0.42195 0.04900
H 	H 	0.10714 0.72098 0.25748 0.05600
H 	H 	0.04751 0.64973 0.18844 0.05100
H 	H 	0.05145 0.73205 0.11289 0.03600
H 	H 	0.10641 0.80269 0.18479 0.04000
H 	H 	0.90113 0.65525 0.33599 0.05000
H 	H 	0.90409 0.75158 0.24869 0.03600
H 	H 	0.43661 0.44885 0.19080 0.04600
H 	H 	0.27081 0.26527 0.42195 0.04500
H 	H 	0.31094 0.41723 0.24076 0.04700
H 	H 	0.21629 0.32166 0.15077 0.02800
H 	H 	0.37464 0.26208 0.32144 0.04700
H 	H 	0.27876 0.16582 0.23466 0.02700
H 	H 	0.55115 0.98775 0.19080 0.03900
H 	H 	0.73473 0.00554 0.42195 0.04300
H 	H 	0.65854 0.90082 0.34396 0.04500
H 	H 	0.75437 0.90203 0.25715 0.04800
H 	H 	0.67268 0.08445 0.21221 0.04200
H 	H 	0.78770 0.94880 0.09706 -0.00300
H 	H 	0.76932 0.08370 0.12326 0.04300
H 	H 	0.01278 0.57698 0.79547 0.05900
H 	H 	0.99438 0.73124 0.57383 0.04800
H 	H 	0.09567 0.67985 0.78104 0.05100
H 	H 	0.09661 0.77660 0.87132 0.04700
H 	H 	0.90183 0.65630 0.66366 0.04900
H 	H 	0.90503 0.75261 0.75110 0.03700
H 	H 	0.42302 0.43581 0.79547 0.05000
H 	H 	0.26876 0.26314 0.57383 0.04600
H 	H 	0.25477 0.36503 0.66366 0.04700
H 	H 	0.15827 0.26796 0.74915 0.02100
H 	H 	0.41783 0.32581 0.77388 0.05100
H 	H 	0.32197 0.23102 0.86301 0.03800
H 	H 	0.56419 0.98722 0.79547 0.04300
H 	H 	0.73686 0.00562 0.57383 0.04400
H 	H 	0.65906 0.90112 0.65607 0.04500
H 	H 	0.75483 0.90241 0.74308 0.04900
H 	H 	0.67258 0.08439 0.78800 0.04500
H 	H 	0.76923 0.08374 0.87711 0.05000
H 	H 	0.94079 0.42542 0.77496 0.03400
H 	H 	0.04074 0.46694 0.78776 0.02600
H 	H 	0.00562 0.26876 0.57383 0.03800
H 	H 	0.90573 0.32035 0.78243 0.03800
H 	H 	0.90611 0.22418 0.87273 0.04800
H 	H 	0.09853 0.34378 0.66265 0.03800
H 	H 	0.04553 0.21174 0.90558 0.00500
H 	H 	0.09660 0.24813 0.75011 0.04200
H 	H 	0.56339 0.55115 0.80920 0.05100
H 	H 	0.73124 0.73686 0.57383 0.04700
H 	H 	0.74556 0.63507 0.66199 0.04800
H 	H 	0.84286 0.73146 0.74723 0.02300
H 	H 	0.58371 0.67413 0.77576 0.05100
H 	H 	0.68053 0.76822 0.86468 0.03900
H 	H 	0.43595 0.00983 0.79823 0.04400
H 	H 	0.26314 0.99438 0.57383 0.04300
H 	H 	0.41503 0.05690 0.81233 0.04000
H 	H 	0.32105 0.05906 0.90154 0.03800
H 	H 	0.24865 0.93989 0.63421 0.04300
H 	H 	0.15495 0.94520 0.72245 0.04100
