data_crystal

_cell_length_a 17.06690
_cell_length_b 17.08940
_cell_length_c 17.08940
_cell_angle_alpha 90.24180
_cell_angle_beta  91.67980
_cell_angle_gamma 91.67980

_symmetry_space_group_name_	'P 1'
_symmetry_space_group_name_H-M	'P 1'

loop_
_symmetry_equiv_pos_as_xyz
  x,y,z

loop_
_atom_site_label
_atom_site_type_symbol
_atom_site_fract_x
_atom_site_fract_y
_atom_site_fract_z
_atom_site_charge
Zn	Zn	0.68302 0.78638 0.91648 1.21600
Zn	Zn	0.81383 0.78782 0.78782 1.21400
Zn	Zn	0.81417 0.91947 0.91947 1.21700
Zn	Zn	0.68302 0.91648 0.78638 1.21600
H 	H 	0.65490 0.40580 0.92620 0.06800
H 	H 	0.66130 0.15620 0.77860 0.02800
H 	H 	0.66090 0.29320 0.77680 0.07000
H 	H 	0.19960 0.94200 0.94200 0.07400
H 	H 	0.66090 0.77680 0.29320 0.06900
H 	H 	0.83680 0.55000 0.78120 0.02500
H 	H 	0.83970 0.93820 0.30180 0.06900
H 	H 	0.83680 0.78120 0.55000 0.02500
H 	H 	0.30400 0.76760 0.92940 0.09100
H 	H 	0.65580 0.92960 0.54280 0.02900
H 	H 	0.30400 0.92940 0.76760 0.09100
H 	H 	0.65490 0.92620 0.40580 0.06700
H 	H 	0.17930 0.77500 0.77500 0.06400
H 	H 	0.84020 0.94000 0.16500 0.03000
H 	H 	0.43560 0.76410 0.92670 0.00500
H 	H 	0.43560 0.92670 0.76410 0.00500
H 	H 	0.84020 0.16500 0.94000 0.03000
H 	H 	0.83970 0.30180 0.93820 0.06900
H 	H 	0.06500 0.94680 0.94680 0.03700
H 	H 	0.83590 0.41300 0.77780 0.06700
H 	H 	0.04430 0.78140 0.78140 0.02800
H 	H 	0.65580 0.54280 0.92960 0.02900
H 	H 	0.83590 0.77780 0.41300 0.06700
H 	H 	0.66130 0.77860 0.15620 0.02700
C 	C 	0.75080 0.85950 0.14770 -0.14100
C 	C 	0.79930 0.80860 0.43940 -0.10900
C 	C 	0.45120 0.85130 0.85130 -0.18000
C 	C 	0.75150 0.86050 0.06050 0.42700
C 	C 	0.80380 0.90690 0.19090 0.05100
C 	C 	0.79930 0.43940 0.80860 -0.10900
C 	C 	0.75080 0.14770 0.85950 -0.14100
C 	C 	0.75150 0.06050 0.86050 0.42700
C 	C 	0.75030 0.31040 0.85720 0.04500
C 	C 	0.79990 0.52070 0.81070 0.04600
C 	C 	0.74640 0.85570 0.55930 -0.13100
C 	C 	0.69730 0.26710 0.80990 -0.11300
C 	C 	0.79990 0.81070 0.52070 0.04600
C 	C 	0.07650 0.81450 0.81450 0.04600
C 	C 	0.69240 0.51640 0.89880 0.04300
C 	C 	0.75030 0.85720 0.31040 0.04500
C 	C 	0.40910 0.80140 0.89540 0.11300
C 	C 	0.69180 0.43510 0.89670 -0.10700
C 	C 	0.73850 0.85130 0.64570 0.40300
C 	C 	0.80380 0.19090 0.90690 0.05100
C 	C 	0.80350 0.90570 0.27230 -0.11200
C 	C 	0.53910 0.85030 0.85030 0.38400
C 	C 	0.73850 0.64570 0.85130 0.40300
C 	C 	0.08800 0.91160 0.91160 0.04300
C 	C 	0.69760 0.18580 0.81100 0.05300
C 	C 	0.74640 0.55930 0.85570 -0.13100
C 	C 	0.20290 0.85840 0.85840 0.02000
C 	C 	0.74530 0.85170 0.39650 0.04000
C 	C 	0.40910 0.89540 0.80140 0.11300
C 	C 	0.69760 0.81100 0.18580 0.05300
C 	C 	0.80350 0.27230 0.90570 -0.11200
C 	C 	0.95360 0.87120 0.87120 0.40300
C 	C 	0.15650 0.81020 0.81020 -0.10400
C 	C 	0.33120 0.80290 0.89610 -0.17900
C 	C 	0.04110 0.86460 0.86460 -0.12800
C 	C 	0.69730 0.80990 0.26710 -0.11300
C 	C 	0.74530 0.39650 0.85170 0.04000
C 	C 	0.69180 0.89670 0.43510 -0.10700
C 	C 	0.33120 0.89610 0.80290 -0.17900
C 	C 	0.16780 0.90870 0.90870 -0.09800
C 	C 	0.69240 0.89880 0.51640 0.04300
C 	C 	0.28990 0.85190 0.85190 0.10300
O 	O 	0.79080 0.81280 0.67940 -0.52700
O 	O 	0.92510 0.91220 0.91220 -0.54500
O 	O 	0.74870 0.85280 0.85280 -0.96700
O 	O 	0.91930 0.81660 0.81660 -0.50200
O 	O 	0.57440 0.80490 0.89890 -0.50500
O 	O 	0.79770 0.90470 0.03030 -0.52100
O 	O 	0.70340 0.81190 0.02590 -0.51200
O 	O 	0.79770 0.03030 0.90470 -0.52100
O 	O 	0.57440 0.89890 0.80490 -0.50500
O 	O 	0.79080 0.67940 0.81280 -0.52700
O 	O 	0.69550 0.67640 0.90080 -0.51300
O 	O 	0.70340 0.02590 0.81190 -0.51200
O 	O 	0.69550 0.90080 0.67640 -0.51300
Zn	Zn	0.31698 0.21362 0.08352 1.21500
Zn	Zn	0.18617 0.21218 0.21218 1.21300
Zn	Zn	0.31698 0.08352 0.21362 1.21500
Zn	Zn	0.18583 0.08053 0.08053 1.21600
H 	H 	0.34420 0.07040 0.45720 0.02900
H 	H 	0.33910 0.22320 0.70680 0.06900
H 	H 	0.56440 0.23590 0.07330 0.00500
H 	H 	0.80040 0.05800 0.05800 0.07300
H 	H 	0.56440 0.07330 0.23590 0.00500
H 	H 	0.33870 0.84380 0.22140 0.02700
H 	H 	0.34420 0.45720 0.07040 0.02900
H 	H 	0.16410 0.22220 0.58700 0.06700
H 	H 	0.16030 0.06180 0.69820 0.06900
H 	H 	0.15980 0.83500 0.06000 0.03000
H 	H 	0.15980 0.06000 0.83500 0.03000
H 	H 	0.82070 0.22500 0.22500 0.06400
H 	H 	0.33870 0.22140 0.84380 0.02700
H 	H 	0.34510 0.07380 0.59420 0.06700
H 	H 	0.16320 0.21880 0.45000 0.02500
H 	H 	0.69600 0.23240 0.07060 0.09100
H 	H 	0.16410 0.58700 0.22220 0.06700
H 	H 	0.93500 0.05320 0.05320 0.03700
H 	H 	0.16320 0.45000 0.21880 0.02500
H 	H 	0.95570 0.21860 0.21860 0.02800
H 	H 	0.16030 0.69820 0.06180 0.06900
H 	H 	0.69600 0.07060 0.23240 0.09100
H 	H 	0.34510 0.59420 0.07380 0.06700
H 	H 	0.33910 0.70680 0.22320 0.06900
C 	C 	0.04640 0.12880 0.12880 0.40300
C 	C 	0.54880 0.14870 0.14870 -0.18000
C 	C 	0.30820 0.56490 0.10330 -0.10700
C 	C 	0.71010 0.14810 0.14810 0.10300
C 	C 	0.20010 0.18930 0.47930 0.04600
C 	C 	0.95890 0.13540 0.13540 -0.12800
C 	C 	0.19620 0.09310 0.80910 0.05100
C 	C 	0.91200 0.08840 0.08840 0.04300
C 	C 	0.66880 0.10390 0.19710 -0.17900
C 	C 	0.25360 0.44070 0.14430 -0.13100
C 	C 	0.30760 0.10120 0.48360 0.04300
C 	C 	0.20070 0.56060 0.19140 -0.10900
C 	C 	0.30820 0.10330 0.56490 -0.10700
C 	C 	0.25470 0.60350 0.14830 0.04000
C 	C 	0.46090 0.14970 0.14970 0.38400
C 	C 	0.30270 0.19010 0.73290 -0.11300
C 	C 	0.19650 0.72770 0.09430 -0.11200
C 	C 	0.24850 0.13950 0.93950 0.42700
C 	C 	0.24850 0.93950 0.13950 0.42700
C 	C 	0.59090 0.19860 0.10460 0.11300
C 	C 	0.92350 0.18550 0.18550 0.04600
C 	C 	0.30240 0.18900 0.81420 0.05300
C 	C 	0.19620 0.80910 0.09310 0.05100
C 	C 	0.59090 0.10460 0.19860 0.11300
C 	C 	0.20010 0.47930 0.18930 0.04600
C 	C 	0.24970 0.68960 0.14280 0.04500
C 	C 	0.26150 0.14870 0.35430 0.40300
C 	C 	0.30760 0.48360 0.10120 0.04300
C 	C 	0.66880 0.19710 0.10390 -0.17900
C 	C 	0.20070 0.19140 0.56060 -0.10900
C 	C 	0.25470 0.14830 0.60350 0.04000
C 	C 	0.25360 0.14430 0.44070 -0.13100
C 	C 	0.30240 0.81420 0.18900 0.05300
C 	C 	0.83220 0.09130 0.09130 -0.09800
C 	C 	0.26150 0.35430 0.14870 0.40300
C 	C 	0.24920 0.85230 0.14050 -0.14100
C 	C 	0.84350 0.18980 0.18980 -0.10400
C 	C 	0.24920 0.14050 0.85230 -0.14100
C 	C 	0.79710 0.14160 0.14160 0.02000
C 	C 	0.19650 0.09430 0.72770 -0.11200
C 	C 	0.30270 0.73290 0.19010 -0.11300
C 	C 	0.24970 0.14280 0.68960 0.04500
O 	O 	0.29660 0.97410 0.18810 -0.51200
O 	O 	0.20920 0.18720 0.32060 -0.52700
O 	O 	0.30450 0.32360 0.09920 -0.51300
O 	O 	0.07490 0.08780 0.08780 -0.54500
O 	O 	0.20230 0.09530 0.96970 -0.52100
O 	O 	0.25130 0.14720 0.14720 -0.96700
O 	O 	0.29660 0.18810 0.97410 -0.51200
O 	O 	0.42560 0.19510 0.10110 -0.50500
O 	O 	0.42560 0.10110 0.19510 -0.50500
O 	O 	0.20920 0.32060 0.18720 -0.52700
O 	O 	0.30450 0.09920 0.32360 -0.51300
O 	O 	0.20230 0.96970 0.09530 -0.52100
O 	O 	0.08070 0.18340 0.18340 -0.50200
