data_crystal

_cell_length_a 25.34680
_cell_length_b 25.34680
_cell_length_c 25.34680
_cell_angle_alpha 90.00000
_cell_angle_beta  90.00000
_cell_angle_gamma 90.00000

_symmetry_space_group_name_	'P 1'
_symmetry_space_group_name_H-M	'P 1'

loop_
_symmetry_equiv_pos_as_xyz
  x,y,z

loop_
_atom_site_label
_atom_site_type_symbol
_atom_site_fract_x
_atom_site_fract_y
_atom_site_fract_z
_atom_site_charge
C 	C 	0.45685 0.99155 -0.61106 0.07300
C 	C 	0.47455 0.99203 -0.66567 -0.05800
H 	H 	0.45125 0.99286 -0.70143 0.04200
C 	C 	0.39191 0.98855 -0.54140 0.08500
C 	C 	0.33649 0.98304 -0.52572 -0.06600
H 	H 	0.30237 0.97972 -0.55115 0.04500
C 	C 	0.40645 0.99090 -0.59707 -0.11300
C 	C 	0.61115 0.99534 -0.54312 0.07300
C 	C 	0.66562 0.99978 -0.52555 -0.05700
H 	H 	0.70121 1.00222 -0.54903 0.04300
C 	C 	0.54160 0.99096 -0.60813 0.08500
C 	C 	0.52583 0.99068 -0.66379 -0.06600
H 	H 	0.55111 0.98990 -0.69816 0.04500
C 	C 	0.59729 0.99243 -0.59345 -0.11300
N 	N 	0.50124 0.99121 -0.57574 -0.27900
C 	C 	0.38911 0.98637 -0.45672 0.07400
C 	C 	0.33472 0.98152 -0.47442 -0.05700
H 	H 	0.29927 0.97699 -0.45105 0.04300
C 	C 	0.45850 0.99268 -0.39169 0.08600
C 	C 	0.47416 0.99499 -0.33604 -0.06500
H 	H 	0.44882 0.99495 -0.30170 0.04600
C 	C 	0.40292 0.98870 -0.40634 -0.11200
N 	N 	0.42430 0.98956 -0.50107 -0.27900
C 	C 	0.54314 0.99698 -0.38876 0.07400
C 	C 	0.52542 0.99691 -0.33415 -0.05600
H 	H 	0.54868 0.99821 -0.29838 0.04300
C 	C 	0.60815 0.99805 -0.45846 0.08600
C 	C 	0.66369 1.00156 -0.47428 -0.06500
H 	H 	0.69784 1.00572 -0.44901 0.04600
Ni	Ni	0.50005 0.99256 -0.49991 1.05100
C 	C 	0.59353 0.99818 -0.40274 -0.11200
N 	N 	0.49883 0.99415 -0.42407 -0.27900
N 	N 	0.57582 0.99534 -0.49875 -0.27900
C 	C 	-0.61081 1.44928 0.00543 0.07400
C 	C 	-0.66514 1.46702 0.01084 -0.05600
H 	H 	-0.70053 1.44369 0.01598 0.04400
C 	C 	-0.54155 1.38440 -0.00302 0.08600
C 	C 	-0.52607 1.32909 -0.01002 -0.06500
H 	H 	-0.55160 1.29505 -0.01329 0.04600
C 	C 	-0.59705 1.39891 0.00233 -0.11200
C 	C 	-0.54304 1.60357 -0.00025 0.07400
C 	C 	-0.52528 1.65815 -0.00130 -0.05600
H 	H 	-0.54854 1.69389 -0.00333 0.04300
C 	C 	-0.60804 1.53396 0.00263 0.08700
C 	C 	-0.66340 1.51830 0.00873 -0.06500
H 	H 	-0.69749 1.54375 0.01222 0.04600
C 	C 	-0.59346 1.58962 0.00012 -0.11200
N 	N 	-0.57568 1.49363 0.00161 -0.27900
C 	C 	-0.45693 1.38160 -0.00744 0.07400
C 	C 	-0.47481 1.32732 -0.01285 -0.05600
H 	H 	-0.45157 1.29195 -0.01858 0.04300
C 	C 	-0.39174 1.45085 -0.00119 0.08600
C 	C 	-0.33610 1.46642 0.00184 -0.06500
H 	H 	-0.30180 1.44103 0.00199 0.04500
C 	C 	-0.40650 1.39531 -0.00542 -0.11200
N 	N 	-0.50116 1.41672 -0.00251 -0.27900
C 	C 	-0.38875 1.53546 0.00390 0.07400
C 	C 	-0.33417 1.51766 0.00448 -0.05600
H 	H 	-0.29841 1.54089 0.00653 0.04300
C 	C 	-0.45833 1.60061 0.00260 0.08600
C 	C 	-0.47405 1.65628 0.00140 -0.06500
H 	H 	-0.44876 1.69064 0.00225 0.04600
Ni	Ni	-0.49989 1.49246 0.00030 1.05100
C 	C 	-0.40264 1.58588 0.00427 -0.11200
N 	N 	-0.42407 1.49122 0.00029 -0.27900
N 	N 	-0.49869 1.56826 0.00182 -0.27900
C 	C 	-0.00313 0.38129 0.45691 0.07400
C 	C 	-0.00853 0.32695 0.47461 -0.05700
H 	H 	-0.01268 0.29147 0.45121 0.04300
C 	C 	0.00310 0.45072 0.39196 0.08600
C 	C 	0.00861 0.46643 0.33654 -0.06500
H 	H 	0.01289 0.44105 0.30250 0.04600
C 	C 	0.00017 0.39507 0.40657 -0.11200
C 	C 	0.00341 0.44923 0.61103 0.07400
C 	C 	0.00895 0.46693 0.66536 -0.05700
H 	H 	0.01323 0.44354 0.70082 0.04300
C 	C 	-0.00294 0.38428 0.54162 0.08600
C 	C 	-0.00837 0.32885 0.52593 -0.06500
H 	H 	-0.01250 0.29480 0.55132 0.04600
C 	C 	0.00011 0.39890 0.59726 -0.11200
N 	N 	-0.00081 0.41654 0.50125 -0.27900
C 	C 	0.00310 0.53544 0.38897 0.07400
C 	C 	0.00866 0.51775 0.33464 -0.05700
H 	H 	0.01284 0.54116 0.29917 0.04300
C 	C 	-0.00350 0.60036 0.45839 0.08600
C 	C 	-0.00921 0.65576 0.47410 -0.06500
H 	H 	-0.01356 0.68979 0.44871 0.04600
C 	C 	-0.00039 0.58577 0.40275 -0.11200
N 	N 	0.00082 0.49109 0.42422 -0.27900
C 	C 	-0.00362 0.60335 0.54311 0.07400
C 	C 	-0.00933 0.65766 0.52542 -0.05700
H 	H 	-0.01365 0.69312 0.54882 0.04300
C 	C 	0.00310 0.53395 0.60805 0.08600
C 	C 	0.00874 0.51826 0.66346 -0.06500
H 	H 	0.01296 0.54365 0.69750 0.04600
Ni	Ni	-0.00006 0.49233 0.50001 1.05100
C 	C 	-0.00012 0.58959 0.59344 -0.11200
N 	N 	-0.00118 0.56811 0.49876 -0.27900
N 	N 	0.00094 0.49358 0.57579 -0.27900
O 	O 	-0.13603 0.99504 -0.07189 -0.63600
O 	O 	0.13617 0.98978 -0.07172 -0.63700
O 	O 	-0.00088 1.06384 -0.13631 -0.63700
O 	O 	0.00205 0.92028 -0.13589 -0.63700
O 	O 	0.00049 0.85600 -0.07149 -0.63800
O 	O 	-0.00178 1.12830 -0.07208 -0.63800
O 	O 	0.07181 0.99070 -0.13606 -0.63800
O 	O 	-0.07164 0.99357 -0.13621 -0.63700
Zr	Zr	0.00008 0.99217 -0.09312 3.23600
O 	O 	0.04785 0.94422 -0.04777 -1.27200
O 	O 	-0.04787 1.04024 -0.04808 -1.27300
C 	C 	-0.12061 0.99518 -0.12086 0.47300
C 	C 	0.12076 0.98943 -0.12071 0.47300
C 	C 	-0.00192 1.11284 -0.12102 0.47300
C 	C 	0.00188 0.87131 -0.12047 0.47200
H 	H 	0.07038 1.06224 -0.07013 0.31800
O 	O 	0.04773 1.03982 -0.04764 -1.50500
H 	H 	-0.07040 0.92226 -0.07003 0.31800
O 	O 	-0.04777 0.94473 -0.04757 -1.50500
O 	O 	0.13617 0.99318 0.07181 -0.63800
O 	O 	-0.13617 0.99157 0.07179 -0.63700
O 	O 	0.07181 1.12840 0.00112 -0.63800
O 	O 	0.07152 0.85607 -0.00192 -0.63600
O 	O 	-0.07211 0.85641 0.00275 -0.63700
O 	O 	-0.07179 1.12858 -0.00276 -0.63600
O 	O 	0.00199 1.06442 0.13594 -0.63800
O 	O 	-0.00104 0.92083 0.13634 -0.63700
O 	O 	0.00101 1.12869 0.07148 -0.63800
O 	O 	-0.00215 0.85639 0.07206 -0.63700
O 	O 	0.13615 1.06402 0.00224 -0.63600
O 	O 	-0.13614 1.06426 -0.00149 -0.63800
O 	O 	-0.13638 0.92086 0.00127 -0.63800
O 	O 	0.13597 0.92035 -0.00093 -0.63800
O 	O 	0.07184 0.99459 0.13617 -0.63700
O 	O 	-0.07176 0.99055 0.13612 -0.63700
Zr	Zr	0.09314 0.99218 0.00009 3.23600
Zr	Zr	-0.09319 0.99255 -0.00002 3.23600
Zr	Zr	-0.00001 1.08551 -0.00022 3.23600
Zr	Zr	-0.00026 0.89919 0.00019 3.23600
Zr	Zr	0.00004 0.99254 0.09317 3.23600
O 	O 	-0.04804 0.94466 0.04802 -1.27200
O 	O 	0.04794 1.04034 0.04782 -1.27200
C 	C 	0.12082 0.99449 0.12077 0.47200
C 	C 	-0.12075 0.99042 0.12075 0.47200
C 	C 	0.12078 1.11302 0.00246 0.47200
C 	C 	0.12053 0.87141 -0.00209 0.47200
C 	C 	-0.12105 0.87188 0.00289 0.47300
C 	C 	-0.12078 1.11320 -0.00302 0.47300
C 	C 	0.00217 1.11338 0.12048 0.47300
C 	C 	-0.00228 0.87184 0.12103 0.47200
H 	H 	-0.07012 1.06276 0.07000 0.31900
O 	O 	-0.04761 1.04016 0.04756 -1.50500
H 	H 	0.06996 0.92214 0.07027 0.31900
O 	O 	0.04750 0.94469 0.04773 -1.50600
C 	C 	0.28362 0.99293 0.28352 -0.01400
C 	C 	0.31730 0.94909 0.28891 -0.02500
C 	C 	0.35658 0.94816 0.32789 -0.06600
C 	C 	0.36382 0.99144 0.36181 0.05200
C 	C 	0.33018 1.03520 0.35665 -0.06600
C 	C 	0.29032 1.03582 0.31818 -0.02500
C 	C 	0.24192 0.99392 0.24177 0.03900
C 	C 	0.19050 1.01149 0.25318 -0.08000
C 	C 	0.15122 1.01156 0.21411 0.04400
C 	C 	0.16255 0.99488 0.16234 -0.13300
C 	C 	0.21419 0.97793 0.15083 0.04200
C 	C 	0.25319 0.97709 0.19010 -0.08000
H 	H 	0.38168 0.91376 0.33143 0.04300
H 	H 	0.33490 1.06896 0.38241 0.04200
H 	H 	0.11200 1.02501 0.22440 0.03500
H 	H 	0.22437 0.96461 0.11153 0.03200
H 	H 	0.26530 1.07029 0.31490 0.03300
H 	H 	0.18041 1.02437 0.29264 0.04800
H 	H 	0.31280 0.91518 0.26333 0.03200
H 	H 	0.29248 0.96378 0.17986 0.04800
C 	C 	-0.28273 0.99077 0.28431 -0.01400
C 	C 	-0.28897 0.94755 0.31864 -0.02500
C 	C 	-0.32805 0.94793 0.35785 -0.06600
C 	C 	-0.36133 0.99183 0.36420 0.05200
C 	C 	-0.35485 1.03526 0.33035 -0.06600
C 	C 	-0.31633 1.03456 0.29058 -0.02500
C 	C 	-0.24132 0.99024 0.24227 0.03900
C 	C 	-0.25286 1.00751 0.19079 -0.08000
C 	C 	-0.21404 1.00693 0.15131 0.04200
C 	C 	-0.16236 0.98986 0.16244 -0.13200
C 	C 	-0.15078 0.97282 0.21403 0.04400
C 	C 	-0.18984 0.97262 0.25328 -0.07900
H 	H 	-0.33231 0.91398 0.38345 0.04200
H 	H 	-0.37981 1.06966 0.33469 0.04300
H 	H 	-0.22438 1.02054 0.11214 0.03300
H 	H 	-0.11151 0.95927 0.22404 0.03800
H 	H 	-0.31222 1.06868 0.26520 0.03300
H 	H 	-0.29219 1.02092 0.18088 0.04800
H 	H 	-0.26406 0.91307 0.31462 0.03400
H 	H 	-0.17954 0.95945 0.29259 0.04900
C 	C 	-0.28371 0.99849 -0.28326 -0.01400
C 	C 	-0.29063 0.95487 -0.31692 -0.02500
C 	C 	-0.33049 0.95477 -0.35533 -0.06600
C 	C 	-0.36389 0.99858 -0.36157 0.05200
C 	C 	-0.35661 1.04251 -0.32850 -0.06600
C 	C 	-0.31731 1.04228 -0.28948 -0.02500
C 	C 	-0.24177 0.99818 -0.24175 0.03900
C 	C 	-0.25270 1.01543 -0.19014 -0.07900
C 	C 	-0.21359 1.01423 -0.15094 0.04300
C 	C 	-0.16222 0.99655 -0.16253 -0.13200
C 	C 	-0.15115 0.97989 -0.21435 0.04200
C 	C 	-0.19051 0.98028 -0.25330 -0.07900
H 	H 	-0.33536 0.92044 -0.38030 0.04200
H 	H 	-0.38165 1.07687 -0.33275 0.04300
H 	H 	-0.22353 1.02754 -0.11158 0.03800
H 	H 	-0.11215 0.96587 -0.22472 0.03400
H 	H 	-0.31270 1.07668 -0.26457 0.03400
H 	H 	-0.29186 1.02907 -0.17984 0.04800
H 	H 	-0.26574 0.92038 -0.31290 0.03300
H 	H 	-0.18067 0.96712 -0.29274 0.04800
C 	C 	0.28296 0.98773 -0.28407 -0.01400
C 	C 	0.31784 0.94488 -0.28993 -0.02500
C 	C 	0.35640 0.94496 -0.32970 -0.06600
C 	C 	0.36154 0.98824 -0.36399 0.05200
C 	C 	0.32711 1.03128 -0.35788 -0.06600
C 	C 	0.28806 1.03087 -0.31868 -0.02500
C 	C 	0.24135 0.98751 -0.24222 0.03900
C 	C 	0.18962 1.00407 -0.25365 -0.08000
C 	C 	0.15054 1.00413 -0.21448 0.04200
C 	C 	0.16226 0.98837 -0.16251 -0.13300
C 	C 	0.21408 0.97195 -0.15103 0.04400
C 	C 	0.25298 0.97114 -0.19046 -0.07900
H 	H 	0.38239 0.91129 -0.33374 0.04300
H 	H 	0.33045 1.06517 -0.38368 0.04200
H 	H 	0.11119 1.01718 -0.22482 0.03300
H 	H 	0.22453 0.95937 -0.11155 0.03700
H 	H 	0.26225 1.06470 -0.31493 0.03300
H 	H 	0.17921 1.01648 -0.29319 0.04700
H 	H 	0.31470 0.91088 -0.26425 0.03300
H 	H 	0.29250 0.95852 -0.18024 0.04900
C 	C 	0.28328 1.27627 0.00358 -0.01300
C 	C 	0.28679 1.31229 -0.03856 -0.02500
C 	C 	0.32573 1.35159 -0.03910 -0.06600
C 	C 	0.36166 1.35644 0.00287 0.05200
C 	C 	0.35831 1.32058 0.04502 -0.06600
C 	C 	0.31979 1.28075 0.04523 -0.02500
C 	C 	0.24161 1.23444 0.00399 0.03900
C 	C 	0.25357 1.18230 0.01888 -0.07900
C 	C 	0.21458 1.14293 0.01825 0.04300
C 	C 	0.16236 1.15480 0.00344 -0.13200
C 	C 	0.15033 1.20713 -0.01084 0.04200
C 	C 	0.18946 1.24627 -0.01089 -0.07900
H 	H 	0.32778 1.37848 -0.07224 0.04300
H 	H 	0.38558 1.32349 0.07778 0.04200
H 	H 	0.22534 1.10319 0.02965 0.03800
H 	H 	0.11067 1.21783 -0.02259 0.03500
H 	H 	0.31797 1.25395 0.07845 0.03300
H 	H 	0.29340 1.17173 0.03017 0.04800
H 	H 	0.25979 1.30959 -0.07156 0.03300
H 	H 	0.17874 1.28609 -0.02207 0.04800
C 	C 	0.28358 0.70889 -0.00157 -0.01400
C 	C 	0.28990 0.67399 -0.04433 -0.02500
C 	C 	0.32984 0.63560 -0.04389 -0.06600
C 	C 	0.36394 0.63077 -0.00044 0.05200
C 	C 	0.35707 0.66495 0.04270 -0.06600
C 	C 	0.31772 0.70384 0.04194 -0.02500
C 	C 	0.24179 0.75056 -0.00232 0.03900
C 	C 	0.25316 0.80232 0.01417 -0.08000
C 	C 	0.21408 0.84150 0.01364 0.04200
C 	C 	0.16227 0.82984 -0.00265 -0.13300
C 	C 	0.15084 0.77799 -0.01899 0.04400
C 	C 	0.19019 0.73898 -0.01923 -0.08000
H 	H 	0.33424 0.60961 -0.07752 0.04200
H 	H 	0.38249 0.66164 0.07688 0.04300
H 	H 	0.22436 0.88087 0.02667 0.03300
H 	H 	0.11147 0.76758 -0.03195 0.03700
H 	H 	0.31351 0.72960 0.07576 0.03300
H 	H 	0.29258 0.81269 0.02697 0.04800
H 	H 	0.26451 0.67702 -0.07855 0.03300
H 	H 	0.18002 0.69945 -0.03182 0.04900
C 	C 	-0.28299 0.70843 0.00532 -0.01400
C 	C 	-0.31493 0.70017 -0.03934 -0.02500
C 	C 	-0.35330 0.66028 -0.03972 -0.06600
C 	C 	-0.36134 0.62832 0.00486 0.05200
C 	C 	-0.32983 0.63677 0.04972 -0.06600
C 	C 	-0.29078 0.67606 0.04978 -0.02500
C 	C 	-0.24166 0.75051 0.00538 0.03900
C 	C 	-0.19050 0.74009 0.02422 -0.08000
C 	C 	-0.15139 0.77929 0.02321 0.04400
C 	C 	-0.16268 0.83026 0.00422 -0.13300
C 	C 	-0.21409 0.84086 -0.01392 0.04200
C 	C 	-0.25291 0.80137 -0.01379 -0.08000
H 	H 	-0.37693 0.65436 -0.07483 0.04200
H 	H 	-0.33537 0.61271 0.08459 0.04200
H 	H 	-0.11234 0.76976 0.03769 0.03500
H 	H 	-0.22418 0.87955 -0.02898 0.03400
H 	H 	-0.26713 0.68167 0.08491 0.03300
H 	H 	-0.18046 0.70124 0.03891 0.04800
H 	H 	-0.30960 0.72406 -0.07436 0.03300
H 	H 	-0.29201 0.81077 -0.02820 0.04800
C 	C 	-0.28424 1.27531 -0.00607 -0.01400
C 	C 	-0.28968 1.31044 -0.04877 -0.02500
C 	C 	-0.32949 1.34900 -0.04886 -0.06700
C 	C 	-0.36423 1.35383 -0.00592 0.05200
C 	C 	-0.35854 1.31912 0.03696 -0.06600
C 	C 	-0.31931 1.28012 0.03673 -0.02500
C 	C 	-0.24235 1.23372 -0.00602 0.03900
C 	C 	-0.25388 1.18198 0.01043 -0.08000
C 	C 	-0.21467 1.14294 0.01088 0.04200
C 	C 	-0.16257 1.15470 -0.00440 -0.13400
C 	C 	-0.15099 1.20652 -0.02075 0.04300
C 	C 	-0.19045 1.24540 -0.02193 -0.08000
H 	H 	-0.33316 1.37523 -0.08238 0.04200
H 	H 	-0.38466 1.32225 0.07063 0.04200
H 	H 	-0.22511 1.10358 0.02383 0.03300
H 	H 	-0.11141 1.21700 -0.03299 0.03500
H 	H 	-0.31588 1.25414 0.07046 0.03200
H 	H 	-0.29352 1.17152 0.02246 0.04800
H 	H 	-0.26364 1.30754 -0.08250 0.03300
H 	H 	-0.18014 1.28492 -0.03445 0.04800
C 	C 	0.00179 1.27544 0.28400 -0.01400
C 	C 	0.04381 1.27982 0.32006 -0.02500
C 	C 	0.04340 1.31874 0.35941 -0.06600
C 	C 	0.00065 1.35374 0.36418 0.05200
C 	C 	-0.04148 1.34932 0.32842 -0.06600
C 	C 	-0.04077 1.31086 0.28858 -0.02500
C 	C 	0.00232 1.23402 0.24195 0.03900
C 	C 	-0.01303 1.24603 0.18998 -0.07900
C 	C 	-0.01245 1.20718 0.15053 0.04300
C 	C 	0.00279 1.15504 0.16213 -0.13300
C 	C 	0.01801 1.14302 0.21419 0.04400
C 	C 	0.01812 1.18206 0.25345 -0.08000
H 	H 	0.07646 1.32155 0.38633 0.04300
H 	H 	-0.07492 1.37575 0.33138 0.04300
H 	H 	-0.02458 1.21792 0.11099 0.03500
H 	H 	0.03014 1.10340 0.22462 0.03500
H 	H 	-0.07396 1.30826 0.26181 0.03300
H 	H 	-0.02495 1.28574 0.17966 0.04800
H 	H 	0.07741 1.25359 0.31733 0.03300
H 	H 	0.02978 1.17135 0.29313 0.04800
C 	C 	-0.00132 1.27634 -0.28309 -0.01400
C 	C 	0.04123 1.28097 -0.31852 -0.02500
C 	C 	0.04188 1.32081 -0.35698 -0.06700
C 	C 	-0.00029 1.35651 -0.36140 0.05200
C 	C 	-0.04304 1.35168 -0.32640 -0.06600
C 	C 	-0.04339 1.31233 -0.28749 -0.02500
C 	C 	-0.00181 1.23430 -0.24166 0.03900
C 	C 	-0.01775 1.24578 -0.18974 -0.08000
C 	C 	-0.01770 1.20653 -0.15071 0.04400
C 	C 	-0.00240 1.15449 -0.16268 -0.13300
C 	C 	0.01306 1.14290 -0.21476 0.04300
C 	C 	0.01370 1.18235 -0.25361 -0.08000
H 	H 	0.07531 1.32381 -0.38342 0.04200
H 	H 	-0.07613 1.37857 -0.32921 0.04300
H 	H 	-0.02997 1.21694 -0.11112 0.03500
H 	H 	0.02531 1.10338 -0.22544 0.03300
H 	H 	-0.07699 1.30956 -0.26126 0.03300
H 	H 	-0.02951 1.28544 -0.17907 0.04800
H 	H 	0.07446 1.25425 -0.31592 0.03200
H 	H 	0.02575 1.17204 -0.29328 0.04800
C 	C 	0.00137 0.70924 -0.28400 -0.01400
C 	C 	-0.04100 0.67357 -0.28836 -0.02500
C 	C 	-0.04168 0.63512 -0.32821 -0.06600
C 	C 	0.00030 0.63093 -0.36417 0.05200
C 	C 	0.04288 0.66618 -0.35959 -0.06600
C 	C 	0.04324 0.70510 -0.32025 -0.02500
C 	C 	0.00187 0.75066 -0.24196 0.03900
C 	C 	0.01713 0.80275 -0.25360 -0.08000
C 	C 	0.01705 0.84178 -0.21434 0.04300
C 	C 	0.00240 0.82966 -0.16215 -0.13300
C 	C 	-0.01234 0.77739 -0.15041 0.04200
C 	C 	-0.01296 0.73854 -0.18986 -0.08000
H 	H 	-0.07498 0.60849 -0.33102 0.04200
H 	H 	0.07583 0.66356 -0.38667 0.04300
H 	H 	0.02876 0.88150 -0.22490 0.03700
H 	H 	-0.02401 0.76655 -0.11077 0.03400
H 	H 	0.07669 0.73154 -0.31769 0.03300
H 	H 	0.02837 0.81354 -0.29338 0.04800
H 	H 	-0.07407 0.67597 -0.26143 0.03300
H 	H 	-0.02447 0.69873 -0.17945 0.04800
C 	C 	-0.00206 0.70835 0.28312 -0.01400
C 	C 	-0.04396 0.67214 0.28736 -0.02500
C 	C 	-0.04355 0.63279 0.32628 -0.06600
C 	C 	-0.00089 0.62816 0.36142 0.05200
C 	C 	0.04113 0.66408 0.35714 -0.06600
C 	C 	0.04039 0.70393 0.31869 -0.02500
C 	C 	-0.00260 0.75040 0.24171 0.03900
C 	C 	0.01249 0.80244 0.25378 -0.08000
C 	C 	0.01194 0.84188 0.21492 0.04200
C 	C 	-0.00297 0.83019 0.16270 -0.13300
C 	C 	-0.01794 0.77808 0.15063 0.04400
C 	C 	-0.01810 0.73883 0.18967 -0.08000
H 	H 	-0.07652 0.60575 0.32897 0.04300
H 	H 	0.07449 0.66123 0.38368 0.04300
H 	H 	0.02385 0.88146 0.22572 0.03400
H 	H 	-0.02981 0.76758 0.11095 0.03500
H 	H 	0.07349 0.73082 0.31621 0.03300
H 	H 	0.02416 0.81281 0.29355 0.04800
H 	H 	-0.07748 0.67475 0.26101 0.03300
H 	H 	-0.02955 0.69910 0.17892 0.04800
