data_crystal

_cell_length_a 16.89000
_cell_length_b 21.43000
_cell_length_c 21.43000
_cell_angle_alpha 120.00000
_cell_angle_beta  90.00000
_cell_angle_gamma 90.00000

_symmetry_space_group_name_	'P 1'
_symmetry_space_group_name_H-M	'P 1'

loop_
_symmetry_equiv_pos_as_xyz
  x,y,z

loop_
_atom_site_label
_atom_site_type_symbol
_atom_site_fract_x
_atom_site_fract_y
_atom_site_fract_z
_atom_site_charge
Zr	Zr	-0.00000 0.93350 0.06770 2.43800
Zr	Zr	-0.00000 0.93230 0.86580 2.43600
Zr	Zr	0.00000 0.06650 0.93230 2.43700
Zr	Zr	0.89540 0.92230 0.92260 2.36600
Zr	Zr	0.00000 0.13420 0.06650 2.43500
Zr	Zr	0.89540 0.07740 0.99970 2.36600
Zr	Zr	0.00000 0.86580 0.93350 2.43600
Zr	Zr	0.10460 0.00030 0.07770 2.33400
Zr	Zr	0.10460 0.92230 0.92260 2.33500
Zr	Zr	0.89540 0.07770 0.07740 2.36600
Zr	Zr	0.10460 0.07740 0.99970 2.33700
Zr	Zr	-0.00000 0.06770 0.13420 2.43600
Zr	Zr	0.10460 0.07770 0.07740 2.33400
Zr	Zr	0.89540 0.00030 0.07770 2.36500
Zr	Zr	0.10460 0.92260 0.00030 2.33600
Zr	Zr	0.89540 0.92260 0.00030 2.36700
Zr	Zr	0.89540 0.99970 0.92230 2.36700
Zr	Zr	0.10460 0.99970 0.92230 2.33600
Fe	Fe	0.50000 0.50000 -0.00000 1.11400
Fe	Fe	0.50000 0.50000 0.50000 1.11500
Fe	Fe	0.50000 0.00000 0.50000 1.11400
H 	H 	0.70430 0.72250 0.60130 0.11500
H 	H 	0.70430 0.27750 0.39870 0.11400
H 	H 	0.70430 0.12120 0.72250 0.11500
H 	H 	0.82340 0.79450 0.07960 -0.00500
H 	H 	0.29570 0.87880 0.27750 0.10100
H 	H 	0.17660 0.20550 0.92040 -0.08000
H 	H 	0.20190 0.44440 0.44070 0.01000
H 	H 	0.79460 0.32490 0.13690 -0.03300
H 	H 	0.26690 0.72070 0.09520 0.09800
H 	H 	0.57170 0.27410 0.25950 -0.00900
H 	H 	0.70430 0.87880 0.27750 0.11500
H 	H 	0.20540 0.13690 0.81200 -0.09800
H 	H 	0.73310 0.09520 0.37450 0.11700
H 	H 	0.57170 0.72590 0.74050 -0.00700
H 	H 	0.82340 0.92040 0.71490 -0.00700
H 	H 	0.57170 0.01460 0.27410 -0.01100
H 	H 	0.42830 0.74050 0.01460 -0.00400
H 	H 	0.26690 0.09520 0.37450 0.09700
H 	H 	0.79460 0.13690 0.81200 -0.03200
H 	H 	0.29570 0.72250 0.60130 0.10100
H 	H 	0.26690 0.90480 0.62550 0.09700
H 	H 	0.29570 0.27750 0.39870 0.10000
H 	H 	0.79460 0.86310 0.18800 -0.03100
H 	H 	0.20540 0.32490 0.13690 -0.10000
H 	H 	0.57170 0.98540 0.72590 -0.00400
H 	H 	0.17660 0.79450 0.07960 -0.07600
H 	H 	0.20540 0.86310 0.18800 -0.09700
H 	H 	0.79810 0.99630 0.55560 0.11100
H 	H 	0.73310 0.37450 0.27930 0.11600
H 	H 	0.73310 0.27930 0.90480 0.11600
H 	H 	0.70430 0.39870 0.12120 0.11500
H 	H 	0.20190 0.00370 0.44440 0.00900
H 	H 	0.29570 0.60130 0.87880 0.10100
H 	H 	0.42830 0.25950 0.98540 0.00100
H 	H 	0.20190 0.55560 0.55930 0.01000
H 	H 	0.79460 0.18800 0.32490 -0.03200
H 	H 	0.79460 0.67510 0.86310 -0.03100
H 	H 	0.26690 0.37450 0.27930 0.09700
H 	H 	0.17660 0.92040 0.71490 -0.07700
H 	H 	0.57170 0.74050 0.01460 -0.00800
H 	H 	0.26690 0.27930 0.90480 0.09700
H 	H 	0.82340 0.71490 0.79450 -0.00500
H 	H 	0.79460 0.81200 0.67510 -0.03200
H 	H 	0.26690 0.62550 0.72070 0.09700
H 	H 	0.20540 0.67510 0.86310 -0.09800
H 	H 	0.82340 0.20550 0.92040 -0.00800
H 	H 	0.20540 0.18800 0.32490 -0.09900
H 	H 	0.20190 0.44070 0.99630 0.01500
H 	H 	0.73310 0.90480 0.62550 0.11600
H 	H 	0.17660 0.07960 0.28510 -0.07400
H 	H 	0.79810 0.00370 0.44440 0.10700
H 	H 	0.79810 0.55560 0.55930 0.10900
H 	H 	0.79810 0.44440 0.44070 0.10900
H 	H 	0.82340 0.28510 0.20550 -0.00600
H 	H 	0.79810 0.44070 0.99630 0.11100
H 	H 	0.20190 0.99630 0.55560 0.01300
H 	H 	0.42830 0.01460 0.27410 -0.00700
H 	H 	0.73310 0.72070 0.09520 0.11700
H 	H 	0.17660 0.71490 0.79450 -0.07700
H 	H 	0.29570 0.12120 0.72250 0.10100
H 	H 	0.73310 0.62550 0.72070 0.11600
H 	H 	0.29570 0.39870 0.12120 0.10100
H 	H 	0.42830 0.72590 0.74050 -0.00300
H 	H 	0.20540 0.81200 0.67510 -0.09800
H 	H 	0.42830 0.98540 0.72590 -0.00000
H 	H 	0.82340 0.07960 0.28510 -0.00300
H 	H 	0.57170 0.25950 0.98540 -0.00300
H 	H 	0.42830 0.27410 0.25950 -0.00500
H 	H 	0.70430 0.60130 0.87880 0.11500
H 	H 	0.17660 0.28510 0.20550 -0.07700
H 	H 	0.79810 0.55930 0.00370 0.10800
H 	H 	0.20190 0.55930 0.00370 0.01100
C 	C 	0.54008 0.29750 0.98830 -0.08900
C 	C 	0.28990 0.98850 0.33450 0.19800
C 	C 	0.81760 0.03010 0.77190 -0.39500
C 	C 	0.72850 0.35950 0.08040 -0.25800
C 	C 	0.71010 0.66550 0.65400 0.18100
C 	C 	0.20080 0.24470 0.96120 0.23500
C 	C 	0.81760 0.25820 0.03010 -0.40000
C 	C 	0.72850 0.91960 0.27910 -0.25200
C 	C 	0.67640 0.55030 0.55290 0.09000
C 	C 	0.71010 0.65400 0.98850 0.18400
C 	C 	0.71010 0.01150 0.66550 0.18000
C 	C 	0.21790 0.31570 0.08970 0.24000
C 	C 	0.79920 0.71650 0.75530 0.19500
C 	C 	0.35420 0.38810 0.00120 -0.18100
C 	C 	0.27150 0.27910 0.35950 -0.31400
C 	C 	0.67640 0.55290 0.00260 0.08100
C 	C 	0.75240 0.46940 0.46750 -0.07000
C 	C 	0.67640 0.44710 0.99740 0.10700
C 	C 	0.28990 0.66550 0.65400 0.19100
C 	C 	0.20080 0.96120 0.71650 0.22600
C 	C 	0.25450 0.66330 0.71140 -0.30700
C 	C 	0.21790 0.77400 0.68430 0.23700
C 	C 	0.64580 0.00120 0.61310 -0.16000
C 	C 	0.21790 0.22600 0.31570 0.23600
C 	C 	0.75240 0.99810 0.53060 -0.06800
C 	C 	0.78210 0.77400 0.68430 0.21600
C 	C 	0.72850 0.27910 0.35950 -0.25400
C 	C 	0.45992 0.69080 0.70250 -0.09200
C 	C 	0.64580 0.38810 0.00120 -0.16500
C 	C 	0.79920 0.24470 0.96120 0.20700
C 	C 	0.43040 0.35850 0.99310 0.08300
C 	C 	0.35420 0.38690 0.38810 -0.16200
C 	C 	0.86540 0.20450 0.03940 0.82400
C 	C 	0.21790 0.91030 0.22600 0.23400
C 	C 	0.13460 0.79550 0.96060 0.90100
C 	C 	0.20080 0.75530 0.03880 0.22000
C 	C 	0.32360 0.00260 0.44970 0.05700
C 	C 	0.35420 0.61190 0.99880 -0.14800
C 	C 	0.25450 0.28860 0.95190 -0.30300
C 	C 	0.24760 0.53250 0.00190 -0.10300
C 	C 	0.54008 0.01170 0.30920 -0.08200
C 	C 	0.54008 0.69080 0.70250 -0.08600
C 	C 	0.28990 0.34600 0.01150 0.18800
C 	C 	0.74550 0.71140 0.04810 -0.24900
C 	C 	0.25450 0.95190 0.66330 -0.30500
C 	C 	0.45992 0.01170 0.30920 -0.08800
C 	C 	0.72850 0.08040 0.72090 -0.25600
C 	C 	0.27150 0.08040 0.72090 -0.31500
C 	C 	0.20080 0.28350 0.24470 0.22100
C 	C 	0.79920 0.03880 0.28350 0.18600
C 	C 	0.75240 0.00190 0.46940 -0.07200
C 	C 	0.43040 0.63460 0.64150 0.06400
C 	C 	0.13460 0.16510 0.20450 0.90100
C 	C 	0.54008 0.30920 0.29750 -0.08600
C 	C 	0.43040 0.00690 0.36540 0.04800
C 	C 	0.43040 0.36540 0.35850 0.06400
C 	C 	0.56960 0.00690 0.36540 0.04600
C 	C 	0.45992 0.30920 0.29750 -0.09300
C 	C 	0.18240 0.74180 0.96990 -0.51300
C 	C 	0.24760 0.46940 0.46750 -0.10100
C 	C 	0.56960 0.35850 0.99310 0.07900
C 	C 	0.32360 0.44970 0.44710 0.06900
C 	C 	0.78210 0.31570 0.08970 0.21900
C 	C 	0.43040 0.99310 0.63460 0.07700
C 	C 	0.32360 0.55290 0.00260 0.06100
C 	C 	0.81760 0.77190 0.74180 -0.39000
C 	C 	0.86540 0.79550 0.96060 0.83600
C 	C 	0.35420 0.61310 0.61190 -0.16100
C 	C 	0.20080 0.71650 0.75530 0.22100
C 	C 	0.79920 0.28350 0.24470 0.19500
C 	C 	0.27150 0.64050 0.91960 -0.31200
C 	C 	0.86540 0.03940 0.83490 0.82800
C 	C 	0.67640 0.44970 0.44710 0.09000
C 	C 	0.18240 0.03010 0.77190 -0.51900
C 	C 	0.13460 0.83490 0.79550 0.90100
C 	C 	0.24760 0.46750 0.99810 -0.09900
C 	C 	0.32360 0.44710 0.99740 0.08700
C 	C 	0.74550 0.04810 0.33670 -0.25000
C 	C 	0.27150 0.35950 0.08040 -0.31700
C 	C 	0.75240 0.53060 0.53250 -0.07000
C 	C 	0.27150 0.72090 0.64050 -0.31400
C 	C 	0.28990 0.33450 0.34600 0.19100
C 	C 	0.25450 0.04810 0.33670 -0.31200
C 	C 	0.75240 0.46750 0.99810 -0.07000
C 	C 	0.81760 0.22810 0.25820 -0.39100
C 	C 	0.78210 0.08970 0.77400 0.21800
C 	C 	0.72850 0.64050 0.91960 -0.25300
C 	C 	0.35420 0.00120 0.61310 -0.17500
C 	C 	0.43040 0.64150 0.00690 0.05500
C 	C 	0.74550 0.28860 0.95190 -0.24200
C 	C 	0.64580 0.38690 0.38810 -0.14600
C 	C 	0.21790 0.68430 0.91030 0.23600
C 	C 	0.54008 0.98830 0.69080 -0.08900
C 	C 	0.67640 0.99740 0.55030 0.10300
C 	C 	0.24760 0.99810 0.53060 -0.09800
C 	C 	0.86540 0.96060 0.16510 0.84000
C 	C 	0.21790 0.08970 0.77400 0.23800
C 	C 	0.13460 0.20450 0.03940 0.88900
C 	C 	0.67640 0.00260 0.44970 0.07800
C 	C 	0.64580 0.61190 0.99880 -0.13200
C 	C 	0.79920 0.96120 0.71650 0.20100
C 	C 	0.56960 0.64150 0.00690 0.05100
C 	C 	0.18240 0.96990 0.22810 -0.50500
C 	C 	0.18240 0.77190 0.74180 -0.51800
C 	C 	0.72850 0.72090 0.64050 -0.25400
C 	C 	0.71010 0.34600 0.01150 0.17800
C 	C 	0.71010 0.33450 0.34600 0.18100
C 	C 	0.74550 0.66330 0.71140 -0.24500
C 	C 	0.32360 0.55030 0.55290 0.06900
C 	C 	0.20080 0.03880 0.28350 0.21000
C 	C 	0.64580 0.99880 0.38690 -0.12700
C 	C 	0.56960 0.36540 0.35850 0.06100
C 	C 	0.78210 0.22600 0.31570 0.21600
C 	C 	0.81760 0.74180 0.96990 -0.38500
C 	C 	0.18240 0.25820 0.03010 -0.52800
C 	C 	0.75240 0.53250 0.00190 -0.07300
C 	C 	0.35420 0.99880 0.38690 -0.14100
C 	C 	0.54008 0.70250 0.01170 -0.08200
C 	C 	0.25450 0.33670 0.28860 -0.30800
C 	C 	0.13460 0.03940 0.83490 0.89900
C 	C 	0.64580 0.61310 0.61190 -0.14600
C 	C 	0.13460 0.96060 0.16510 0.91100
C 	C 	0.79920 0.75530 0.03880 0.19100
C 	C 	0.45992 0.70250 0.01170 -0.08900
C 	C 	0.86540 0.83490 0.79550 0.83100
C 	C 	0.74550 0.95190 0.66330 -0.24300
C 	C 	0.28990 0.01150 0.66550 0.19200
C 	C 	0.45992 0.98830 0.69080 -0.09500
C 	C 	0.45992 0.29750 0.98830 -0.09600
C 	C 	0.81760 0.96990 0.22810 -0.38100
C 	C 	0.28990 0.65400 0.98850 0.19500
C 	C 	0.74550 0.33670 0.28860 -0.24500
C 	C 	0.25450 0.71140 0.04810 -0.31000
C 	C 	0.71010 0.98850 0.33450 0.18600
C 	C 	0.24760 0.53060 0.53250 -0.10100
C 	C 	0.32360 0.99740 0.55030 0.08300
C 	C 	0.86540 0.16510 0.20450 0.83200
C 	C 	0.56960 0.99310 0.63460 0.07400
C 	C 	0.27150 0.91960 0.27910 -0.31100
C 	C 	0.78210 0.68430 0.91030 0.21500
C 	C 	0.24760 0.00190 0.46940 -0.10100
C 	C 	0.18240 0.22810 0.25820 -0.52000
C 	C 	0.56960 0.63460 0.64150 0.06100
C 	C 	0.78210 0.91030 0.22600 0.21400
N 	N 	0.50000 0.58920 0.99500 -0.26000
N 	N 	0.50000 0.41080 0.00500 -0.27600
N 	N 	0.50000 0.59420 0.58920 -0.26700
N 	N 	0.61330 0.50000 0.50000 -0.27900
N 	N 	0.38670 0.50000 -0.00000 -0.28700
N 	N 	0.50000 0.40580 0.41080 -0.26800
N 	N 	0.50000 0.99500 0.40580 -0.25700
N 	N 	0.50000 0.00500 0.59420 -0.27300
N 	N 	0.38670 0.50000 0.50000 -0.28400
N 	N 	0.61330 0.00000 0.50000 -0.28200
N 	N 	0.38670 0.00000 0.50000 -0.28600
N 	N 	0.61330 0.50000 -0.00000 -0.28300
O 	O 	0.07590 0.99840 0.81520 -1.85000
O 	O 	0.92410 0.18320 0.99840 -1.50700
O 	O 	0.07590 0.81520 0.81680 -1.85500
O 	O 	0.13760 0.09790 0.17510 -2.40200
O 	O 	0.86240 0.09790 0.17510 -2.29000
O 	O 	0.07590 0.81680 0.00160 -1.85100
O 	O 	0.86240 0.92280 0.09790 -2.28800
O 	O 	0.13760 0.17510 0.07720 -2.40100
O 	O 	0.92410 0.18480 0.18320 -1.51500
O 	O 	0.86240 0.90210 0.82490 -2.28600
O 	O 	0.07590 0.00160 0.18480 -1.86300
O 	O 	0.92410 0.99840 0.81520 -1.51000
O 	O 	0.92410 0.00160 0.18480 -1.52300
O 	O 	0.92410 0.81520 0.81680 -1.51300
O 	O 	0.07590 0.18320 0.99840 -1.84000
O 	O 	0.13760 0.82490 0.92280 -2.39800
O 	O 	0.92410 0.81680 0.00160 -1.51800
O 	O 	0.13760 0.07720 0.90210 -2.39600
O 	O 	0.86240 0.07720 0.90210 -2.28700
O 	O 	0.86240 0.82490 0.92280 -2.28700
O 	O 	0.07590 0.18480 0.18320 -1.85600
O 	O 	0.13760 0.90210 0.82490 -2.39800
O 	O 	0.13760 0.92280 0.09790 -2.39800
O 	O 	0.86240 0.17510 0.07720 -2.29000
