data_crystal

_cell_length_a 25.33400
_cell_length_b 25.33400
_cell_length_c 25.33400
_cell_angle_alpha 90.00000
_cell_angle_beta  90.00000
_cell_angle_gamma 90.00000

_symmetry_space_group_name_	'P 1'
_symmetry_space_group_name_H-M	'P 1'

loop_
_symmetry_equiv_pos_as_xyz
  x,y,z

loop_
_atom_site_label
_atom_site_type_symbol
_atom_site_fract_x
_atom_site_fract_y
_atom_site_fract_z
_atom_site_charge
C 	C 	0.52621 0.97785 -0.66466 -0.06500
C 	C 	0.47214 0.97755 -0.66495 -0.06400
C 	C 	0.45568 0.98677 -0.61342 0.09500
N 	N 	0.49860 0.99404 -0.58218 -0.13700
C 	C 	0.54173 0.98832 -0.61330 0.09600
C 	C 	0.40208 0.99337 -0.59715 -0.09000
C 	C 	0.38743 1.00174 -0.54320 0.10500
C 	C 	0.33694 1.01461 -0.52582 -0.06500
C 	C 	0.33818 1.01539 -0.47167 -0.06600
C 	C 	0.38893 1.00179 -0.45656 0.10600
N 	N 	0.41859 0.99331 -0.50031 -0.17700
C 	C 	0.40508 0.99484 -0.40323 -0.08700
C 	C 	0.45837 0.98821 -0.38707 0.09700
C 	C 	0.47391 0.97774 -0.33572 -0.06400
C 	C 	0.52798 0.97752 -0.33543 -0.06300
C 	C 	0.54442 0.98680 -0.38696 0.09600
N 	N 	0.50149 0.99402 -0.41819 -0.13600
C 	C 	0.59800 0.99352 -0.40322 -0.08900
C 	C 	0.61264 1.00196 -0.45716 0.10500
C 	C 	0.66309 1.01495 -0.47453 -0.06500
C 	C 	0.66186 1.01573 -0.52868 -0.06600
C 	C 	0.61114 1.00201 -0.54381 0.10600
N 	N 	0.58149 0.99345 -0.50006 -0.17700
C 	C 	0.59501 0.99502 -0.59714 -0.08700
H 	H 	0.55115 0.97193 -0.69882 0.04800
H 	H 	0.44817 0.97249 -0.69987 0.04700
H 	H 	0.54413 0.97687 -0.49985 0.10300
H 	H 	0.30186 1.02141 -0.54907 0.04800
H 	H 	0.30485 1.02390 -0.44634 0.04900
H 	H 	0.44898 0.97175 -0.30156 0.04800
H 	H 	0.55197 0.97247 -0.30052 0.04800
H 	H 	0.69517 1.02433 -0.55401 0.04900
H 	H 	0.45600 0.97683 -0.50052 0.10300
H 	H 	0.69814 1.02185 -0.45127 0.04800
C 	C 	-0.52734 1.33038 0.02139 -0.06300
C 	C 	-0.47327 1.33120 0.02232 -0.06500
C 	C 	-0.45807 1.38230 0.01039 0.09700
N 	N 	-0.50133 1.41284 0.00295 -0.13600
C 	C 	-0.54411 1.38146 0.01028 0.09600
C 	C 	-0.40510 1.39862 0.00242 -0.08700
C 	C 	-0.39042 1.45178 -0.00736 0.10600
C 	C 	-0.34255 1.46676 -0.02915 -0.06600
C 	C 	-0.34222 1.52093 -0.03086 -0.06600
C 	C 	-0.38962 1.53809 -0.00929 0.10600
N 	N 	-0.41906 1.49547 0.00459 -0.17600
C 	C 	-0.40387 1.59216 -0.00244 -0.08900
C 	C 	-0.45740 1.60789 0.00489 0.09600
C 	C 	-0.47365 1.65763 0.02115 -0.06500
C 	C 	-0.52770 1.65738 0.02104 -0.06400
C 	C 	-0.54327 1.60708 0.00627 0.09600
N 	N 	-0.50020 1.57693 -0.00389 -0.13500
C 	C 	-0.59659 1.59093 0.00017 -0.08700
C 	C 	-0.61249 1.53759 -0.00710 0.10600
C 	C 	-0.66387 1.52187 -0.01721 -0.06600
C 	C 	-0.66435 1.46770 -0.01651 -0.06500
C 	C 	-0.61303 1.45090 -0.00643 0.10500
N 	N 	-0.58191 1.49418 -0.00019 -0.17800
C 	C 	-0.59772 1.39714 0.00217 -0.08900
H 	H 	-0.55099 1.29533 0.02691 0.04700
H 	H 	-0.44812 1.29746 0.02959 0.04800
H 	H 	-0.54350 1.49456 0.01368 0.10500
H 	H 	-0.31123 1.44125 -0.04305 0.04900
H 	H 	-0.31065 1.54490 -0.04677 0.04900
H 	H 	-0.44926 1.69079 0.03247 0.04800
H 	H 	-0.55248 1.69061 0.03123 0.04700
H 	H 	-0.69954 1.44395 -0.02062 0.04800
H 	H 	-0.45417 1.49617 0.02587 0.09900
H 	H 	-0.69822 1.54667 -0.02251 0.04800
C 	C 	0.03510 0.52250 0.65701 -0.06500
C 	C 	0.03624 0.46842 0.65690 -0.06500
C 	C 	0.01130 0.45214 0.61098 0.09500
N 	N 	-0.00428 0.49474 0.58249 -0.13300
C 	C 	0.00961 0.53788 0.61108 0.09500
C 	C 	0.00167 0.39871 0.59670 -0.08900
C 	C 	-0.00934 0.38487 0.54336 0.10600
C 	C 	-0.03573 0.33956 0.52754 -0.06600
C 	C 	-0.03568 0.33929 0.47331 -0.06600
C 	C 	-0.00925 0.38443 0.45704 0.10600
N 	N 	0.00582 0.41260 0.50010 -0.17600
C 	C 	0.00129 0.39796 0.40347 -0.08900
C 	C 	0.01160 0.45118 0.38887 0.09600
C 	C 	0.03405 0.46738 0.34158 -0.06500
C 	C 	0.03373 0.52154 0.34180 -0.06500
C 	C 	0.01188 0.53681 0.38949 0.09600
N 	N 	-0.00137 0.49382 0.41843 -0.13300
C 	C 	0.00106 0.58957 0.40420 -0.08800
C 	C 	-0.01108 0.60362 0.45689 0.10700
C 	C 	-0.03537 0.65024 0.47192 -0.06600
C 	C 	-0.03645 0.65058 0.52621 -0.06600
C 	C 	-0.01192 0.60452 0.54308 0.10700
N 	N 	0.00263 0.57568 0.50041 -0.17600
C 	C 	-0.00136 0.59103 0.59661 -0.08900
H 	H 	0.05205 0.54765 0.68709 0.04700
H 	H 	0.05417 0.44391 0.68694 0.04700
H 	H 	0.02569 0.54162 0.50094 0.10000
H 	H 	-0.05365 0.30989 0.55251 0.04900
H 	H 	-0.05368 0.30940 0.44866 0.04900
H 	H 	0.04931 0.44282 0.31015 0.04800
H 	H 	0.04816 0.54679 0.31051 0.04800
H 	H 	-0.05330 0.68145 0.55044 0.04900
H 	H 	0.02957 0.44621 0.50010 0.09900
H 	H 	-0.05074 0.68086 0.44639 0.04900
O 	O 	-0.07107 0.99398 -0.13675 -0.63700
O 	O 	-0.07222 0.99604 0.13548 -0.64000
O 	O 	-0.13618 0.92312 -0.00258 -0.63800
O 	O 	-0.13594 1.06671 0.00045 -0.63900
O 	O 	-0.07144 1.13095 0.00146 -0.63800
O 	O 	-0.07185 0.85876 -0.00256 -0.63900
O 	O 	-0.13635 0.99688 0.07087 -0.63900
O 	O 	-0.13577 0.99273 -0.07268 -0.63700
Zr	Zr	-0.09311 0.99486 -0.00071 3.23600
O 	O 	-0.04802 1.04271 0.04747 -1.27200
O 	O 	-0.04780 0.94691 -0.04850 -1.27300
C 	C 	-0.12011 0.99267 -0.12158 0.47400
C 	C 	-0.12111 0.99718 0.11990 0.47600
C 	C 	-0.12083 0.87412 -0.00348 0.47500
C 	C 	-0.12046 1.11566 0.00162 0.47500
H 	H 	-0.07057 0.92456 0.06951 0.32000
O 	O 	-0.04792 0.94711 0.04713 -1.50600
H 	H 	-0.06972 1.06514 -0.07066 0.32000
O 	O 	-0.04733 1.04256 -0.04804 -1.50700
O 	O 	0.07107 0.99357 0.13640 -0.63800
O 	O 	0.07233 0.99615 -0.13585 -0.63900
O 	O 	0.00118 0.85859 0.07136 -0.63700
O 	O 	-0.00137 1.13083 0.07165 -0.63800
O 	O 	0.00233 1.13094 -0.07191 -0.63800
O 	O 	-0.00145 0.85876 -0.07216 -0.63800
O 	O 	0.13597 0.92264 0.00269 -0.63700
O 	O 	0.13642 1.06615 -0.00018 -0.63800
O 	O 	0.07139 0.85841 0.00074 -0.63900
O 	O 	0.07215 1.13066 -0.00199 -0.63800
O 	O 	0.00122 0.92289 0.13577 -0.63800
O 	O 	-0.00140 0.92318 -0.13643 -0.63800
O 	O 	0.00236 1.06659 -0.13627 -0.63800
O 	O 	-0.00241 1.06637 0.13589 -0.63700
O 	O 	0.13581 0.99219 0.07238 -0.63700
O 	O 	0.13646 0.99653 -0.07121 -0.63800
Zr	Zr	-0.00037 0.99467 0.09286 3.23600
Zr	Zr	0.00043 0.99487 -0.09331 3.23600
Zr	Zr	-0.00013 0.90165 -0.00038 3.23600
Zr	Zr	0.00026 1.08788 -0.00017 3.23600
Zr	Zr	0.09321 0.99453 0.00039 3.23600
O 	O 	0.04835 1.04259 -0.04783 -1.27200
O 	O 	0.04767 0.94660 0.04796 -1.27300
C 	C 	0.12012 0.99216 0.12127 0.47300
C 	C 	0.12123 0.99705 -0.12025 0.47600
C 	C 	0.00184 0.87390 0.12038 0.47400
C 	C 	-0.00263 1.11540 0.12062 0.47400
C 	C 	0.00313 1.11558 -0.12091 0.47400
C 	C 	-0.00209 0.87417 -0.12113 0.47400
C 	C 	0.12034 0.87373 0.00243 0.47500
C 	C 	0.12109 1.11513 -0.00165 0.47400
H 	H 	0.07044 0.92460 -0.07014 0.31900
O 	O 	0.04785 0.94712 -0.04766 -1.50600
H 	H 	0.07001 1.06476 0.07041 0.32000
O 	O 	0.04758 1.04230 0.04773 -1.50800
C 	C 	0.28239 0.99188 0.28417 -0.01300
C 	C 	0.29067 1.03694 0.31549 -0.02400
C 	C 	0.33021 1.03763 0.35422 -0.06500
C 	C 	0.36189 0.99285 0.36350 0.05200
C 	C 	0.35331 0.94769 0.33216 -0.06500
C 	C 	0.31438 0.94736 0.29280 -0.02400
C 	C 	0.24068 0.99142 0.24255 0.04000
C 	C 	0.25163 0.97233 0.19158 -0.08000
C 	C 	0.21268 0.97278 0.15222 0.04500
C 	C 	0.16148 0.99140 0.16311 -0.13400
C 	C 	0.15039 1.00986 0.21434 0.04300
C 	C 	0.18963 1.01031 0.25339 -0.08000
H 	H 	0.33652 1.07352 0.37661 0.04700
H 	H 	0.37660 0.91237 0.33846 0.04600
H 	H 	0.22259 0.95819 0.11328 0.03500
H 	H 	0.11150 1.02471 0.22408 0.03300
H 	H 	0.30868 0.91191 0.26960 0.03500
H 	H 	0.29067 0.95785 0.18192 0.04900
H 	H 	0.26715 1.07209 0.30929 0.03400
H 	H 	0.17989 1.02493 0.29237 0.04900
C 	C 	-0.28397 0.99716 0.28213 -0.01200
C 	C 	-0.32266 1.03698 0.28416 -0.02500
C 	C 	-0.36165 1.03647 0.32340 -0.06200
C 	C 	-0.36322 0.99580 0.36107 0.04600
C 	C 	-0.32480 0.95590 0.35904 -0.06200
C 	C 	-0.28547 0.95669 0.32017 -0.02500
C 	C 	-0.24220 0.99780 0.24059 0.04000
C 	C 	-0.18948 0.98601 0.25330 -0.08000
C 	C 	-0.15024 0.98633 0.21434 0.04400
C 	C 	-0.16276 0.99794 0.16145 -0.13500
C 	C 	-0.21555 1.00974 0.14875 0.04500
C 	C 	-0.25470 1.00994 0.18787 -0.08000
H 	H 	-0.39072 1.06780 0.32444 0.04800
H 	H 	-0.32535 0.92411 0.38762 0.04700
H 	H 	-0.11010 0.97697 0.22566 0.03500
H 	H 	-0.22669 1.01899 0.10853 0.03700
H 	H 	-0.25662 0.92516 0.31938 0.03500
H 	H 	-0.17843 0.97705 0.29361 0.04900
H 	H 	-0.32227 1.06899 0.25584 0.03600
H 	H 	-0.29500 1.01876 0.17669 0.05000
C 	C 	-0.28237 0.99227 -0.28448 -0.01300
C 	C 	-0.29079 1.03735 -0.31574 -0.02400
C 	C 	-0.33030 1.03795 -0.35451 -0.06400
C 	C 	-0.36182 0.99308 -0.36388 0.05200
C 	C 	-0.35310 0.94790 -0.33259 -0.06400
C 	C 	-0.31419 0.94764 -0.29321 -0.02400
C 	C 	-0.24067 0.99189 -0.24283 0.04000
C 	C 	-0.25146 0.97235 -0.19199 -0.08000
C 	C 	-0.21251 0.97281 -0.15263 0.04500
C 	C 	-0.16148 0.99195 -0.16339 -0.13400
C 	C 	-0.15053 1.01089 -0.21447 0.04300
C 	C 	-0.18977 1.01129 -0.25353 -0.08000
H 	H 	-0.33671 1.07385 -0.37685 0.04700
H 	H 	-0.37627 0.91251 -0.33896 0.04700
H 	H 	-0.22226 0.95776 -0.11381 0.03600
H 	H 	-0.11176 1.02612 -0.22409 0.03300
H 	H 	-0.30837 0.91217 -0.27008 0.03500
H 	H 	-0.29038 0.95746 -0.18244 0.04900
H 	H 	-0.26742 1.07259 -0.30946 0.03500
H 	H 	-0.18013 1.02625 -0.29239 0.04900
C 	C 	0.28409 0.99692 -0.28247 -0.01200
C 	C 	0.28562 0.95642 -0.32047 -0.02500
C 	C 	0.32494 0.95565 -0.35935 -0.06200
C 	C 	0.36333 0.99559 -0.36143 0.04600
C 	C 	0.36173 1.03627 -0.32378 -0.06200
C 	C 	0.32274 1.03677 -0.28453 -0.02500
C 	C 	0.24233 0.99756 -0.24093 0.04000
C 	C 	0.25482 1.00974 -0.18821 -0.07900
C 	C 	0.21568 1.00957 -0.14909 0.04500
C 	C 	0.16288 0.99776 -0.16179 -0.13400
C 	C 	0.15037 0.98610 -0.21467 0.04400
C 	C 	0.18961 0.98574 -0.25363 -0.08000
H 	H 	0.32552 0.92384 -0.38792 0.04600
H 	H 	0.39077 1.06764 -0.32484 0.04700
H 	H 	0.22681 1.01885 -0.10888 0.03800
H 	H 	0.11023 0.97671 -0.22598 0.03500
H 	H 	0.32233 1.06880 -0.25623 0.03600
H 	H 	0.29512 1.01857 -0.17704 0.05000
H 	H 	0.25680 0.92487 -0.31966 0.03500
H 	H 	0.17857 0.97675 -0.29393 0.04900
C 	C 	0.28327 1.27790 -0.00005 -0.01300
C 	C 	0.29219 1.30989 -0.04449 -0.02400
C 	C 	0.33153 1.34879 -0.04387 -0.06400
C 	C 	0.36249 1.35742 0.00155 0.05200
C 	C 	0.35304 1.32561 0.04620 -0.06400
C 	C 	0.31429 1.28611 0.04524 -0.02400
C 	C 	0.24180 1.23609 -0.00092 0.04000
C 	C 	0.25263 1.18509 0.01811 -0.08000
C 	C 	0.21375 1.14571 0.01717 0.04300
C 	C 	0.16275 1.15661 -0.00197 -0.13400
C 	C 	0.15186 1.20774 -0.02079 0.04500
C 	C 	0.19105 1.24684 -0.02070 -0.08000
H 	H 	0.33822 1.37192 -0.07922 0.04700
H 	H 	0.37544 1.33169 0.08212 0.04600
H 	H 	0.22345 1.10687 0.03216 0.03400
H 	H 	0.11310 1.21744 -0.03598 0.03600
H 	H 	0.30792 1.26249 0.08029 0.03500
H 	H 	0.29146 1.17550 0.03320 0.04900
H 	H 	0.26931 1.30414 -0.08014 0.03500
H 	H 	0.18144 1.28584 -0.03534 0.04900
C 	C 	0.28227 0.71133 0.00246 -0.01300
C 	C 	0.29659 0.68646 -0.04505 -0.02500
C 	C 	0.33622 0.64787 -0.04580 -0.06200
C 	C 	0.36151 0.63253 0.00110 0.04600
C 	C 	0.34673 0.65680 0.04873 -0.06200
C 	C 	0.30795 0.69629 0.04931 -0.02500
C 	C 	0.24063 0.75278 0.00306 0.04100
C 	C 	0.24983 0.80184 0.02730 -0.08100
C 	C 	0.21098 0.84127 0.02678 0.04700
C 	C 	0.16161 0.83204 0.00310 -0.13500
C 	C 	0.15219 0.78264 -0.02044 0.04500
C 	C 	0.19146 0.74369 -0.02098 -0.08000
H 	H 	0.34704 0.62966 -0.08293 0.04700
H 	H 	0.36559 0.64539 0.08536 0.04600
H 	H 	0.21937 0.87883 0.04538 0.03500
H 	H 	0.11468 0.77441 -0.03925 0.03200
H 	H 	0.29741 0.71458 0.08649 0.03500
H 	H 	0.28747 0.80995 0.04588 0.05000
H 	H 	0.27763 0.69751 -0.08173 0.03500
H 	H 	0.18327 0.70614 -0.03972 0.04900
C 	C 	-0.28328 0.71065 -0.00579 -0.01300
C 	C 	-0.33010 0.71689 -0.03497 -0.02400
C 	C 	-0.36944 0.67799 -0.03422 -0.06400
C 	C 	-0.36342 0.63152 -0.00409 0.05200
C 	C 	-0.31605 0.62512 0.02451 -0.06400
C 	C 	-0.27674 0.66407 0.02376 -0.02400
C 	C 	-0.24162 0.75259 -0.00593 0.04000
C 	C 	-0.18770 0.73922 -0.00573 -0.08000
C 	C 	-0.14870 0.77848 -0.00521 0.04400
C 	C 	-0.16243 0.83235 -0.00486 -0.13300
C 	C 	-0.21637 0.84573 -0.00538 0.04400
C 	C 	-0.25536 0.80644 -0.00591 -0.08000
H 	H 	-0.40432 0.68386 -0.05826 0.04800
H 	H 	-0.31001 0.59053 0.04891 0.04600
H 	H 	-0.10768 0.76645 -0.00505 0.03600
H 	H 	-0.22864 0.88667 -0.00505 0.03600
H 	H 	-0.24163 0.65814 0.04737 0.03400
H 	H 	-0.17552 0.69827 -0.00654 0.04900
H 	H 	-0.33609 0.75162 -0.05914 0.03400
H 	H 	-0.29640 0.81833 -0.00536 0.04900
C 	C 	-0.28275 1.27894 0.00158 -0.01200
C 	C 	-0.32360 1.27801 -0.03610 -0.02500
C 	C 	-0.36287 1.31699 -0.03623 -0.06200
C 	C 	-0.36263 1.35746 0.00170 0.04600
C 	C 	-0.32167 1.35880 0.03905 -0.06200
C 	C 	-0.28213 1.32007 0.03895 -0.02500
C 	C 	-0.24115 1.23709 0.00199 0.04000
C 	C 	-0.18787 1.24996 0.01096 -0.08000
C 	C 	-0.14884 1.21071 0.01091 0.04500
C 	C 	-0.16204 1.15741 0.00228 -0.13400
C 	C 	-0.21544 1.14454 -0.00625 0.04400
C 	C 	-0.25438 1.18385 -0.00660 -0.07900
H 	H 	-0.39368 1.31552 -0.06583 0.04700
H 	H 	-0.32061 1.38967 0.06860 0.04600
H 	H 	-0.10824 1.22224 0.01769 0.03700
H 	H 	-0.22724 1.10402 -0.01303 0.03600
H 	H 	-0.25156 1.32176 0.06877 0.03500
H 	H 	-0.17621 1.29059 0.01722 0.04900
H 	H 	-0.32484 1.24743 -0.06593 0.03500
H 	H 	-0.29507 1.17243 -0.01298 0.04900
C 	C 	-0.00245 1.27784 0.28430 -0.01200
C 	C 	0.02212 1.26872 0.33329 -0.02400
C 	C 	0.02308 1.30790 0.37239 -0.06400
C 	C 	-0.00019 1.35779 0.36377 0.05200
C 	C 	-0.02513 1.36653 0.31470 -0.06400
C 	C 	-0.02625 1.32727 0.27574 -0.02400
C 	C 	-0.00308 1.23616 0.24229 0.04000
C 	C 	0.00166 1.24972 0.18859 -0.07900
C 	C 	0.00140 1.21076 0.14927 0.04300
C 	C 	-0.00341 1.15699 0.16243 -0.13300
C 	C 	-0.00831 1.14341 0.21611 0.04400
C 	C 	-0.00822 1.18240 0.25541 -0.07900
H 	H 	0.04362 1.29961 0.40896 0.04600
H 	H 	-0.04523 1.40343 0.30682 0.04700
H 	H 	0.00552 1.22289 0.10849 0.03600
H 	H 	-0.01236 1.10253 0.22792 0.03700
H 	H 	-0.04667 1.33545 0.23911 0.03400
H 	H 	0.00652 1.29051 0.17685 0.04900
H 	H 	0.04169 1.23157 0.34115 0.03400
H 	H 	-0.01283 1.17035 0.29615 0.04900
C 	C 	0.00327 1.27858 -0.28399 -0.01200
C 	C 	0.02598 1.26959 -0.33387 -0.02400
C 	C 	0.02527 1.30877 -0.37297 -0.06400
C 	C 	0.00203 1.35854 -0.36352 0.05200
C 	C 	-0.02088 1.36721 -0.31344 -0.06400
C 	C 	-0.02028 1.32796 -0.27445 -0.02400
C 	C 	0.00393 1.23670 -0.24219 0.04000
C 	C 	0.01056 1.24992 -0.18860 -0.08000
C 	C 	0.01054 1.21080 -0.14943 0.04400
C 	C 	0.00404 1.15722 -0.16266 -0.13300
C 	C 	-0.00222 1.14394 -0.21627 0.04300
C 	C 	-0.00235 1.18309 -0.25541 -0.07900
H 	H 	0.04451 1.30055 -0.41026 0.04600
H 	H 	-0.04081 1.40402 -0.30474 0.04700
H 	H 	0.01583 1.22264 -0.10870 0.03600
H 	H 	-0.00766 1.10323 -0.22811 0.03500
H 	H 	-0.03927 1.33604 -0.23704 0.03400
H 	H 	0.01639 1.29058 -0.17686 0.04800
H 	H 	0.04533 1.23248 -0.34249 0.03400
H 	H 	-0.00835 1.17132 -0.29605 0.04800
C 	C 	-0.00273 0.71117 -0.28419 -0.01200
C 	C 	-0.02615 0.66164 -0.27510 -0.02400
C 	C 	-0.02565 0.62234 -0.31405 -0.06400
C 	C 	-0.00191 0.63122 -0.36369 0.05200
C 	C 	0.02138 0.68104 -0.37264 -0.06400
C 	C 	0.02105 0.72024 -0.33357 -0.02400
C 	C 	-0.00292 0.75301 -0.24236 0.04000
C 	C 	-0.00866 0.80668 -0.25562 -0.07900
C 	C 	-0.00851 0.84583 -0.21647 0.04400
C 	C 	-0.00279 0.83249 -0.16283 -0.13300
C 	C 	0.00273 0.77881 -0.14953 0.04300
C 	C 	0.00276 0.73970 -0.18869 -0.08000
H 	H 	-0.04534 0.58531 -0.30573 0.04800
H 	H 	0.04147 0.68930 -0.40946 0.04600
H 	H 	-0.01313 0.88663 -0.22835 0.03700
H 	H 	0.00758 0.76687 -0.10877 0.03500
H 	H 	0.04047 0.75741 -0.34177 0.03400
H 	H 	-0.01397 0.81852 -0.29633 0.04900
H 	H 	-0.04580 0.65341 -0.23807 0.03500
H 	H 	0.00813 0.69899 -0.17688 0.04800
C 	C 	0.00183 0.71108 0.28345 -0.01200
C 	C 	-0.03080 0.66632 0.27862 -0.02500
C 	C 	-0.03122 0.62720 0.31775 -0.06200
C 	C 	0.00114 0.63163 0.36259 0.04600
C 	C 	0.03364 0.67630 0.36763 -0.06200
C 	C 	0.03395 0.71556 0.32861 -0.02500
C 	C 	0.00230 0.75281 0.24163 0.03900
C 	C 	0.00538 0.80662 0.25509 -0.07900
C 	C 	0.00539 0.84574 0.21593 0.04400
C 	C 	0.00250 0.83220 0.16208 -0.13300
C 	C 	-0.00029 0.77834 0.14863 0.04400
C 	C 	-0.00047 0.73926 0.18782 -0.07900
H 	H 	-0.05701 0.59341 0.31315 0.04700
H 	H 	0.05912 0.68055 0.40169 0.04600
H 	H 	0.00748 0.88669 0.22799 0.03700
H 	H 	-0.00248 0.76621 0.10770 0.03700
H 	H 	0.06003 0.74907 0.33341 0.03500
H 	H 	0.00691 0.81862 0.29608 0.04900
H 	H 	-0.05664 0.66188 0.24488 0.03400
H 	H 	-0.00216 0.69825 0.17589 0.04900
