data_crystal

_cell_length_a 19.46900
_cell_length_b 19.46900
_cell_length_c 20.68040
_cell_angle_alpha 90.00000
_cell_angle_beta  90.00000
_cell_angle_gamma 120.00000

_symmetry_space_group_name_	'P 1'
_symmetry_space_group_name_H-M	'P 1'

loop_
_symmetry_equiv_pos_as_xyz
  x,y,z

loop_
_atom_site_label
_atom_site_type_symbol
_atom_site_fract_x
_atom_site_fract_y
_atom_site_fract_z
_atom_site_charge
Mn	Mn	0.73046 0.37785 0.97551 1.24400
Mn	Mn	0.70781 0.43746 0.81206 1.29100
Mn	Mn	0.64739 0.26954 0.30885 1.25000
Mn	Mn	0.29219 0.56254 0.31206 1.29200
Mn	Mn	0.26954 0.62215 0.47551 1.25100
Mn	Mn	0.27035 0.70781 0.64539 1.29200
Mn	Mn	0.72965 0.29219 0.14539 1.29300
Mn	Mn	0.62215 0.35261 0.64218 1.25100
Mn	Mn	0.43746 0.72965 0.97873 1.28500
Mn	Mn	0.56254 0.27035 0.47873 1.29200
Mn	Mn	0.37785 0.64739 0.14218 1.25200
Mn	Mn	0.35261 0.73046 0.80885 1.25000
H 	H 	0.35880 0.22100 0.24617 0.08400
H 	H 	0.96710 0.25770 0.51940 0.08100
H 	H 	0.53750 0.88190 0.59527 0.01900
H 	H 	0.74290 0.54400 0.05367 0.00400
H 	H 	0.67420 0.93260 0.60067 0.07400
H 	H 	0.16670 0.22970 0.26037 0.07200
H 	H 	0.40380 0.04380 0.28193 0.02800
H 	H 	0.18460 0.10730 0.56037 0.07700
H 	H 	0.79070 0.63480 0.76407 0.02700
H 	H 	0.34440 0.46250 0.92860 0.03400
H 	H 	0.36520 0.15590 0.43073 0.02700
H 	H 	0.83000 0.68390 0.87020 0.01000
H 	H 	0.04380 0.64000 0.44860 0.02900
H 	H 	0.81540 0.89270 0.06037 0.08100
H 	H 	0.74030 0.04920 0.53050 0.07400
H 	H 	0.25710 0.45600 0.55367 -0.00200
H 	H 	0.04860 0.31650 0.94420 0.07800
H 	H 	0.89270 0.07730 0.22703 0.07700
H 	H 	0.19890 0.74290 0.88700 0.01800
H 	H 	0.30890 0.25970 0.86383 0.07200
H 	H 	0.65560 0.53750 0.42860 0.01900
H 	H 	0.31610 0.14610 0.53687 0.02000
H 	H 	0.50500 0.72870 0.74067 -0.00700
H 	H 	0.72870 0.22370 0.90733 -0.01100
H 	H 	0.88440 0.20370 0.39410 0.08300
H 	H 	0.92270 0.81540 0.89370 0.08600
H 	H 	0.25970 0.95080 0.03050 0.03100
H 	H 	0.64120 0.77900 0.74617 0.08300
H 	H 	0.44530 0.34380 0.85563 0.01500
H 	H 	0.22370 0.49500 0.07400 0.00800
H 	H 	0.07730 0.18460 0.39370 0.07700
H 	H 	0.27130 0.77630 0.40733 -0.00600
H 	H 	0.49500 0.27130 0.24067 -0.00600
H 	H 	0.95620 0.36000 0.94860 0.03100
H 	H 	0.74230 0.70940 0.18607 0.07900
H 	H 	0.31930 0.11560 0.72743 0.08300
H 	H 	0.04920 0.30890 0.69717 0.07400
H 	H 	0.86220 0.64120 0.57950 0.08400
H 	H 	0.59620 0.95620 0.78193 0.02800
H 	H 	0.80110 0.25710 0.38700 -0.00200
H 	H 	0.93700 0.16670 0.09370 0.07500
H 	H 	0.13780 0.35880 0.07950 0.07900
H 	H 	0.34380 0.89850 0.02230 0.08600
H 	H 	0.31650 0.26790 0.11087 0.07800
H 	H 	0.95080 0.69110 0.19717 0.07500
H 	H 	0.77030 0.93700 0.92703 0.06700
H 	H 	0.63480 0.84410 0.93073 0.02000
H 	H 	0.67200 0.06130 0.33033 0.02600
H 	H 	0.45600 0.19890 0.72033 -0.00300
H 	H 	0.11560 0.79630 0.89410 0.06000
H 	H 	0.85390 0.17000 0.20353 0.02000
H 	H 	0.54400 0.80110 0.22033 -0.00100
H 	H 	0.22100 0.86220 0.41283 0.08400
H 	H 	0.79630 0.68070 0.06077 0.08700
H 	H 	0.20370 0.31930 0.56077 0.08300
H 	H 	0.10730 0.92270 0.72703 0.07700
H 	H 	0.15590 0.79070 0.59740 0.02700
H 	H 	0.68070 0.88440 0.22743 0.08300
H 	H 	0.69110 0.74030 0.36383 0.07400
H 	H 	0.29060 0.03290 0.85273 0.07700
H 	H 	0.14610 0.83000 0.70353 0.01900
H 	H 	0.65620 0.10150 0.52230 0.01800
H 	H 	0.22970 0.06300 0.42703 0.07200
H 	H 	0.06300 0.83330 0.59370 0.07200
H 	H 	0.95140 0.68350 0.44420 0.07500
H 	H 	0.64000 0.59620 0.61527 0.02800
H 	H 	0.06740 0.74160 0.26733 0.07400
H 	H 	0.70940 0.96710 0.35273 0.07900
H 	H 	0.61070 0.67200 0.16367 0.02700
H 	H 	0.11810 0.65560 0.26193 0.02000
H 	H 	0.55470 0.65620 0.35563 0.01800
H 	H 	0.84410 0.20930 0.09740 0.02800
H 	H 	0.38930 0.32800 0.66367 0.02500
H 	H 	0.32800 0.93870 0.83033 0.02400
H 	H 	0.89850 0.55470 0.18897 0.01900
H 	H 	0.17000 0.31610 0.37020 0.01900
H 	H 	0.83330 0.77030 0.76037 0.07200
H 	H 	0.25770 0.29060 0.68607 0.07900
H 	H 	0.06130 0.38930 0.49700 0.02500
H 	H 	0.93260 0.25840 0.76733 0.07500
H 	H 	0.20930 0.36520 0.26407 0.02700
H 	H 	0.10150 0.44530 0.68897 0.01700
H 	H 	0.77900 0.13780 0.91283 0.07900
H 	H 	0.77630 0.50500 0.57400 -0.00700
H 	H 	0.68390 0.85390 0.03687 0.02600
H 	H 	0.32580 0.06740 0.10067 0.08000
H 	H 	0.93870 0.61070 0.99700 0.00500
H 	H 	0.73210 0.04860 0.77753 0.07500
H 	H 	0.36000 0.40380 0.11527 0.03200
H 	H 	0.25840 0.32580 0.93400 0.07000
H 	H 	0.46250 0.11810 0.09527 0.02200
H 	H 	0.88190 0.34440 0.76193 0.01900
H 	H 	0.74160 0.67420 0.43400 0.07500
H 	H 	0.03290 0.74230 0.01940 0.12200
H 	H 	0.68350 0.73210 0.61087 0.07500
H 	H 	0.26790 0.95140 0.27753 0.07600
C 	C 	0.23073 0.34544 0.23274 0.04400
C 	C 	0.99302 0.70568 0.47512 -0.12000
C 	C 	0.32012 0.36829 0.14425 0.05100
C 	C 	0.20320 0.14817 0.18008 -0.02200
C 	C 	0.57387 0.78875 0.24964 0.07200
C 	C 	0.17828 0.87841 0.96380 -0.01200
C 	C 	0.24711 0.90846 0.00139 0.01800
C 	C 	0.09154 0.33865 0.66806 -0.13400
C 	C 	0.70013 0.82172 0.29713 0.08200
C 	C 	0.12872 0.30438 0.40039 0.06000
C 	C 	0.21986 0.55260 0.61836 0.37000
C 	C 	0.76927 0.53928 0.54553 0.07500
C 	C 	0.41990 0.29713 0.83002 0.06000
C 	C 	0.05503 0.20320 0.01341 -0.02800
C 	C 	0.20531 0.26478 0.23044 -0.11900
C 	C 	0.12411 0.36577 0.43070 -0.14100
C 	C 	0.82434 0.12872 0.23372 0.06000
C 	C 	0.19955 0.70744 0.33422 -0.14900
C 	C 	0.79680 0.85183 0.68008 -0.02300
C 	C 	0.81461 0.53542 0.12108 -0.14600
C 	C 	0.92669 0.77379 0.91404 -0.16100
C 	C 	0.28734 0.99302 0.30845 -0.12200
C 	C 	0.86540 0.75786 0.50896 -0.02800
C 	C 	0.45021 0.26651 0.58180 0.39600
C 	C 	0.82993 0.95374 0.30386 -0.02600
C 	C 	0.63171 0.95183 0.81091 0.05200
C 	C 	0.36829 0.04817 0.31091 0.05200
C 	C 	0.28742 0.39706 0.18916 -0.12800
C 	C 	0.89101 0.25113 0.79553 -0.13500
C 	C 	0.67988 0.63171 0.64425 0.05200
C 	C 	0.94497 0.79680 0.51341 -0.02300
C 	C 	0.54979 0.73349 0.08180 0.39400
C 	C 	0.53542 0.72081 0.28774 -0.15000
C 	C 	0.23051 0.65170 0.32963 0.35300
C 	C 	0.34761 0.28363 0.64208 0.06200
C 	C 	0.79469 0.73522 0.73044 -0.11900
C 	C 	0.77379 0.84710 0.08071 -0.12800
C 	C 	0.46072 0.22999 0.21220 0.07500
C 	C 	0.73522 0.94053 0.89710 -0.12100
C 	C 	0.75786 0.89246 0.67563 -0.02800
C 	C 	0.09200 0.09231 0.00273 0.02200
C 	C 	0.86104 0.30239 0.79255 0.06100
C 	C 	0.42613 0.21125 0.74964 0.07200
C 	C 	0.86004 0.18885 0.83998 0.08300
C 	C 	0.87841 0.70013 0.13047 0.08300
C 	C 	0.00031 0.90800 0.33606 -0.00500
C 	C 	0.91337 0.78713 0.13826 -0.02200
C 	C 	0.77001 0.23073 0.87886 0.07400
C 	C 	0.51742 0.82673 0.85614 0.36900
C 	C 	0.67119 0.86004 0.67332 0.08400
C 	C 	0.00798 0.26940 0.48885 -0.13400
C 	C 	0.26651 0.81630 0.74846 0.39500
C 	C 	0.75834 0.12411 0.26403 -0.14000
C 	C 	0.22999 0.76927 0.37886 0.07400
C 	C 	0.20810 0.19644 0.62424 0.08000
C 	C 	0.17327 0.69069 0.52281 0.36900
C 	C 	0.71637 0.06398 0.30874 0.06200
C 	C 	0.13896 0.69761 0.29255 0.06100
C 	C 	0.75289 0.09154 0.50139 -0.13400
C 	C 	0.65527 0.83854 0.25400 -0.13800
C 	C 	0.88529 0.23073 0.06607 0.04700
C 	C 	0.13460 0.24214 0.00896 -0.02500
C 	C 	0.66726 0.21986 0.45169 0.37000
C 	C 	0.05947 0.79469 0.56377 -0.12100
C 	C 	0.58010 0.70287 0.33002 0.06100
C 	C 	0.72081 0.18539 0.45441 -0.15100
C 	C 	0.79971 0.17953 0.88197 -0.14000
C 	C 	0.78014 0.44740 0.11836 0.37000
C 	C 	0.70568 0.71266 0.64179 -0.12100
C 	C 	0.12624 0.91337 0.97159 0.00700
C 	C 	0.16146 0.81673 0.92067 -0.07000
C 	C 	0.30931 0.48258 0.18948 0.36800
C 	C 	0.14817 0.94497 0.34674 -0.02300
C 	C 	0.82673 0.30931 0.02281 0.39500
C 	C 	0.87619 0.82993 0.13720 -0.02500
C 	C 	0.10754 0.86540 0.34229 -0.02800
C 	C 	0.29713 0.87723 0.99669 -0.09500
C 	C 	0.57881 0.23051 0.16297 0.35300
C 	C 	0.27919 0.81461 0.95441 -0.08000
C 	C 	0.08663 0.21287 0.63826 -0.02700
C 	C 	0.89036 0.28742 0.02249 -0.10900
C 	C 	0.17566 0.87128 0.73372 0.06000
C 	C 	0.82047 0.62018 0.54864 -0.13900
C 	C 	0.39706 0.10964 0.35582 -0.12900
C 	C 	0.98834 0.79190 0.95757 0.11700
C 	C 	0.42119 0.76949 0.66297 0.35300
C 	C 	0.22621 0.15290 0.58071 -0.13100
C 	C 	0.29987 0.17828 0.79713 0.08100
C 	C 	0.26142 0.99202 0.82218 -0.13100
C 	C 	0.76949 0.34830 0.82963 0.35400
C 	C 	0.34473 0.16146 0.75400 -0.13800
C 	C 	0.37982 0.20029 0.21531 -0.13900
C 	C 	0.70744 0.50789 0.50089 -0.15000
C 	C 	0.17953 0.37982 0.04864 -0.12000
C 	C 	0.60294 0.89036 0.85582 -0.13200
C 	C 	0.63423 0.75834 0.09737 -0.13600
C 	C 	0.18370 0.45021 0.41513 0.39600
C 	C 	0.33274 0.78014 0.95169 0.34200
C 	C 	0.65456 0.88529 0.89940 0.04500
C 	C 	0.20029 0.82047 0.38197 -0.13800
C 	C 	0.73858 0.00798 0.32218 -0.13100
C 	C 	0.17007 0.04626 0.80386 -0.02600
C 	C 	0.99969 0.09200 0.83606 -0.00300
C 	C 	0.50789 0.80045 0.66756 -0.15000
C 	C 	0.30438 0.17566 0.56706 0.06000
C 	C 	0.82172 0.12159 0.46380 0.08200
C 	C 	0.09031 0.02371 0.99445 -0.02700
C 	C 	0.65170 0.42119 0.49630 0.35300
C 	C 	0.07331 0.22621 0.41404 -0.13200
C 	C 	0.29432 0.28734 0.14179 -0.12100
C 	C 	0.12159 0.29987 0.63047 0.08200
C 	C 	0.90800 0.90769 0.50273 -0.00300
C 	C 	0.93340 0.90969 0.32778 -0.00100
C 	C 	0.18885 0.32881 0.00665 0.09600
C 	C 	0.87376 0.08663 0.47159 -0.02600
C 	C 	0.90769 0.99969 0.66940 -0.00300
C 	C 	0.76371 0.76507 0.68433 0.07200
C 	C 	0.24166 0.87589 0.76403 -0.14000
C 	C 	0.11471 0.76927 0.56607 0.04500
C 	C 	0.13996 0.81115 0.33998 0.08300
C 	C 	0.81673 0.65527 0.08734 -0.13400
C 	C 	0.95183 0.32012 0.97758 0.03300
C 	C 	0.26478 0.05947 0.39710 -0.11800
C 	C 	0.73060 0.73858 0.15552 -0.13000
C 	C 	0.34830 0.57881 0.99630 0.28300
C 	C 	0.99202 0.73060 0.98885 -0.20500
C 	C 	0.10964 0.71258 0.52249 -0.12900
C 	C 	0.90846 0.66135 0.16806 -0.13100
C 	C 	0.12381 0.17007 0.63720 -0.02600
C 	C 	0.33865 0.24711 0.83472 -0.13500
C 	C 	0.12277 0.41990 0.66336 0.06100
C 	C 	0.80045 0.29256 0.83422 -0.15100
C 	C 	0.81630 0.54979 0.91513 0.40300
C 	C 	0.29256 0.49211 0.00089 -0.07300
C 	C 	0.80356 0.01166 0.29090 0.08000
C 	C 	0.36012 0.10899 0.12887 -0.13500
C 	C 	0.87723 0.58010 0.16336 0.06100
C 	C 	0.55260 0.33274 0.78502 0.37000
C 	C 	0.34544 0.11471 0.39940 0.04500
C 	C 	0.78512 0.57387 0.08298 0.07300
C 	C 	0.95374 0.12381 0.47053 -0.02500
C 	C 	0.01166 0.20810 0.45757 0.08000
C 	C 	0.44135 0.13896 0.12589 0.06300
C 	C 	0.04817 0.67988 0.47758 0.05000
C 	C 	0.28363 0.93602 0.80874 0.06100
C 	C 	0.79190 0.80356 0.12424 0.08100
C 	C 	0.78713 0.87376 0.30492 -0.02600
C 	C 	0.84710 0.07331 0.24737 -0.13100
C 	C 	0.25113 0.36012 0.96220 -0.14100
C 	C 	0.94053 0.20531 0.06377 -0.12300
C 	C 	0.19644 0.98834 0.79090 0.08000
C 	C 	0.44740 0.66726 0.28502 0.36900
C 	C 	0.36577 0.24166 0.59737 -0.14000
C 	C 	0.65239 0.71637 0.14208 0.06100
C 	C 	0.76927 0.65456 0.73274 0.04400
C 	C 	0.04626 0.87619 0.97053 -0.05200
C 	C 	0.87589 0.63423 0.93070 -0.16700
C 	C 	0.71258 0.60294 0.68916 -0.12900
C 	C 	0.06660 0.09031 0.82778 -0.00500
C 	C 	0.18539 0.46458 0.62108 -0.15100
C 	C 	0.93602 0.65239 0.97541 0.10200
C 	C 	0.00136 0.23629 0.01766 0.10000
C 	C 	0.18327 0.34473 0.58734 -0.13800
C 	C 	0.78875 0.21488 0.41631 0.07200
C 	C 	0.55865 0.86104 0.62589 0.06100
C 	C 	0.90969 0.97629 0.49445 -0.00300
C 	C 	0.97629 0.06660 0.66112 -0.00200
C 	C 	0.26940 0.26142 0.65552 -0.13100
C 	C 	0.63988 0.89101 0.62887 -0.13500
C 	C 	0.70287 0.12277 0.49669 0.06100
C 	C 	0.23073 0.46072 0.04553 0.04100
C 	C 	0.02371 0.93340 0.16112 -0.00300
C 	C 	0.71266 0.00698 0.80845 -0.12200
C 	C 	0.23629 0.23493 0.18433 0.07200
C 	C 	0.30239 0.44135 0.95922 0.00600
C 	C 	0.48258 0.17327 0.35614 0.36900
C 	C 	0.81115 0.67119 0.50665 0.08400
C 	C 	0.69761 0.55865 0.45922 0.06100
C 	C 	0.21287 0.12624 0.80492 -0.02600
C 	C 	0.24214 0.10754 0.17563 -0.02800
C 	C 	0.87128 0.69562 0.90039 0.08300
C 	C 	0.32881 0.13996 0.17332 0.08500
C 	C 	0.15290 0.92669 0.74737 -0.13100
C 	C 	0.21488 0.42613 0.58298 0.07200
C 	C 	0.06398 0.34761 0.47541 0.06300
C 	C 	0.85183 0.05503 0.84674 -0.02400
C 	C 	0.89246 0.13460 0.84229 -0.02900
C 	C 	0.69069 0.51742 0.68948 0.36900
C 	C 	0.46458 0.27919 0.78774 -0.15200
C 	C 	0.49211 0.19955 0.16756 -0.14900
C 	C 	0.23493 0.99864 0.35099 0.07200
C 	C 	0.09231 0.00031 0.16940 -0.00100
C 	C 	0.73349 0.18370 0.24846 0.39600
C 	C 	0.99864 0.76371 0.51766 0.07300
C 	C 	0.69562 0.82434 0.06706 0.05900
C 	C 	0.00698 0.29432 0.97512 -0.15100
C 	C 	0.62018 0.79971 0.71531 -0.13900
C 	C 	0.66135 0.75289 0.33472 -0.13400
C 	C 	0.76507 0.00136 0.85099 0.07100
C 	C 	0.53928 0.77001 0.71220 0.07500
C 	C 	0.74887 0.63988 0.46220 -0.13500
C 	C 	0.10899 0.74887 0.29553 -0.13400
C 	C 	0.83854 0.18327 0.42067 -0.13800
C 	C 	0.21125 0.78512 0.91631 0.00400
S 	S 	0.17609 0.01599 0.98775 -0.02800
S 	S 	0.09281 0.99376 0.34761 -0.00500
S 	S 	0.93270 0.93113 0.15611 0.00200
S 	S 	0.90095 0.90719 0.68095 -0.00300
S 	S 	0.90719 0.00624 0.84761 -0.00800
S 	S 	0.81924 0.81596 0.50561 -0.00600
S 	S 	0.00328 0.81924 0.33894 -0.00800
S 	S 	0.93113 0.99843 0.32277 -0.00200
S 	S 	0.98401 0.16010 0.65442 -0.00700
S 	S 	0.18404 0.00328 0.17228 -0.00100
S 	S 	0.09905 0.09281 0.18095 -0.00400
S 	S 	0.81596 0.99672 0.67228 -0.00600
S 	S 	0.99376 0.90095 0.51428 -0.00300
S 	S 	0.00624 0.09905 0.01428 0.00600
S 	S 	0.00157 0.93270 0.98944 -0.01100
S 	S 	0.99843 0.06730 0.48944 -0.00200
S 	S 	0.18076 0.18404 0.00561 0.00600
S 	S 	0.01599 0.83990 0.15442 -0.00400
S 	S 	0.06730 0.06887 0.65611 -0.00300
S 	S 	0.82391 0.98401 0.48775 -0.00800
S 	S 	0.99672 0.18076 0.83894 -0.01100
S 	S 	0.06887 0.00157 0.82277 -0.00300
S 	S 	0.16010 0.17609 0.82108 -0.01300
S 	S 	0.83990 0.82391 0.32108 -0.00800
O 	O 	0.80399 0.41537 0.15962 -0.46000
O 	O 	0.63687 0.46935 0.65262 -0.43200
O 	O 	0.31755 0.81473 0.78426 -0.46800
O 	O 	0.61138 0.19601 0.49295 -0.46200
O 	O 	0.77301 0.53809 0.86618 -0.48700
O 	O 	0.59359 0.32116 0.74382 -0.52300
O 	O 	0.50115 0.23187 0.39316 -0.48800
O 	O 	0.20771 0.60157 0.28441 -0.42200
O 	O 	0.32116 0.72757 0.91049 -0.51900
O 	O 	0.28110 0.65539 0.37067 -0.55900
O 	O 	0.81473 0.49718 0.95093 -0.47500
O 	O 	0.39386 0.79229 0.61775 -0.42300
O 	O 	0.50282 0.31755 0.61760 -0.46700
O 	O 	0.60614 0.20771 0.11775 -0.41800
O 	O 	0.53065 0.16752 0.31928 -0.43200
O 	O 	0.68245 0.18527 0.28426 -0.46700
O 	O 	0.71890 0.34461 0.87067 -0.56100
O 	O 	0.49885 0.76813 0.89316 -0.49200
O 	O 	0.76508 0.22699 0.19951 -0.48200
O 	O 	0.36313 0.53065 0.15262 -0.43000
O 	O 	0.40641 0.67884 0.24382 -0.52200
O 	O 	0.22699 0.46191 0.36618 -0.48300
O 	O 	0.19601 0.58463 0.65962 -0.46300
O 	O 	0.34461 0.62571 0.03734 -0.52300
O 	O 	0.73072 0.49885 0.72650 -0.48800
O 	O 	0.27243 0.59359 0.57716 -0.52200
O 	O 	0.65539 0.37429 0.53734 -0.55900
O 	O 	0.46191 0.23492 0.53285 -0.48300
O 	O 	0.39843 0.60614 0.95108 -0.41200
O 	O 	0.37429 0.71890 0.70401 -0.55900
O 	O 	0.76813 0.26928 0.05983 -0.48800
O 	O 	0.60157 0.39386 0.45108 -0.42200
O 	O 	0.16752 0.63687 0.48595 -0.43200
O 	O 	0.49718 0.68245 0.11760 -0.46300
O 	O 	0.26928 0.50115 0.22650 -0.48700
O 	O 	0.62571 0.28110 0.20401 -0.55800
O 	O 	0.41537 0.61138 0.32628 -0.46200
O 	O 	0.83248 0.36313 0.98595 -0.45600
O 	O 	0.67884 0.27243 0.41049 -0.52200
O 	O 	0.23187 0.73072 0.55983 -0.48800
O 	O 	0.72757 0.40641 0.07716 -0.51300
O 	O 	0.46935 0.83248 0.81928 -0.43300
O 	O 	0.53809 0.76508 0.03285 -0.47000
O 	O 	0.58463 0.38862 0.82628 -0.46500
O 	O 	0.38862 0.80399 0.99295 -0.46700
O 	O 	0.23492 0.77301 0.69951 -0.48300
O 	O 	0.79229 0.39843 0.78441 -0.42300
O 	O 	0.18527 0.50282 0.45093 -0.46700
