data_crystal

_cell_length_a 19.60000
_cell_length_b 19.60000
_cell_length_c 20.76000
_cell_angle_alpha 90.00000
_cell_angle_beta  90.00000
_cell_angle_gamma 120.00000

_symmetry_space_group_name_	'P 1'
_symmetry_space_group_name_H-M	'P 1'

loop_
_symmetry_equiv_pos_as_xyz
  x,y,z

loop_
_atom_site_label
_atom_site_type_symbol
_atom_site_fract_x
_atom_site_fract_y
_atom_site_fract_z
_atom_site_charge
Cd	Cd	0.65495 0.27308 0.90184 1.19400
Cd	Cd	0.56918 0.25956 0.07790 1.21800
Cd	Cd	0.61813 0.34505 0.23518 1.19500
Cd	Cd	0.74044 0.30962 0.74456 1.21700
Cd	Cd	0.30962 0.56918 0.91123 1.21600
Cd	Cd	0.43082 0.74044 0.57790 1.21700
Cd	Cd	0.25956 0.69038 0.24456 1.21700
Cd	Cd	0.69038 0.43082 0.41123 1.21700
Cd	Cd	0.34505 0.72692 0.40184 1.19400
Cd	Cd	0.72692 0.38187 0.56851 1.19300
Cd	Cd	0.38187 0.65495 0.73518 1.19300
Cd	Cd	0.27308 0.61813 0.06851 1.19400
H 	H 	0.12820 0.66050 0.85713 0.01900
H 	H 	0.66820 0.92340 0.19307 0.07200
H 	H 	0.31080 0.13860 0.11917 0.02300
H 	H 	0.18810 0.74790 0.47450 -0.00200
H 	H 	0.86140 0.17220 0.78583 0.02200
H 	H 	0.25520 0.33180 0.52640 0.07200
H 	H 	0.72350 0.97320 0.93723 0.07700
H 	H 	0.23340 0.87500 0.99813 0.08000
H 	H 	0.97320 0.24970 0.10390 0.07700
H 	H 	0.78130 0.62230 0.34937 0.03100
H 	H 	0.89480 0.19940 0.98140 0.07700
H 	H 	0.93130 0.17370 0.67950 0.07200
H 	H 	0.57330 0.65710 0.92833 0.01700
H 	H 	0.70910 0.74170 0.93743 0.07300
H 	H 	0.10520 0.80060 0.48140 0.08300
H 	H 	0.33180 0.07660 0.69307 0.07200
H 	H 	0.72470 0.03930 0.35983 0.07400
H 	H 	0.08380 0.42670 0.26167 0.01800
H 	H 	0.78990 0.50570 0.16310 0.00700
H 	H 	0.75760 0.93130 0.51283 0.07200
H 	H 	0.34290 0.91620 0.59500 0.01800
H 	H 	0.30460 0.10520 0.31473 0.08300
H 	H 	0.41020 0.05090 0.86293 0.03000
H 	H 	0.93790 0.62010 0.57940 0.02700
H 	H 	0.65710 0.08380 0.09500 0.01800
H 	H 	0.87180 0.33950 0.35713 0.02000
H 	H 	0.62010 0.68220 0.74607 0.02700
H 	H 	0.33950 0.46770 0.52380 0.02000
H 	H 	0.13860 0.82780 0.28583 0.02200
H 	H 	0.42670 0.34290 0.42833 0.01800
H 	H 	0.35840 0.23340 0.83147 0.08100
H 	H 	0.06870 0.82630 0.17950 0.07200
H 	H 	0.17370 0.24240 0.84617 0.07200
H 	H 	0.21010 0.49430 0.66310 0.00700
H 	H 	0.87500 0.64160 0.16480 0.08100
H 	H 	0.74170 0.03260 0.10410 0.07400
H 	H 	0.31460 0.27530 0.69317 0.07400
H 	H 	0.12500 0.35840 0.66480 0.08100
H 	H 	0.90340 0.08230 0.80993 0.07500
H 	H 	0.82110 0.90340 0.64327 0.07500
H 	H 	0.25830 0.96740 0.60410 0.07400
H 	H 	0.71580 0.21010 0.49643 0.00700
H 	H 	0.68540 0.72470 0.19317 0.07500
H 	H 	0.05090 0.64070 0.02960 0.03100
H 	H 	0.03930 0.31460 0.52650 0.07400
H 	H 	0.76660 0.12500 0.49813 0.08100
H 	H 	0.27530 0.96070 0.85983 0.07500
H 	H 	0.62230 0.84100 0.51603 0.03100
H 	H 	0.28420 0.78990 0.99643 0.00500
H 	H 	0.82630 0.75760 0.34617 0.07200
H 	H 	0.91770 0.82110 0.47660 0.07500
H 	H 	0.03260 0.29090 0.27077 0.07400
H 	H 	0.27650 0.02680 0.43723 0.07800
H 	H 	0.06210 0.37990 0.07940 0.03000
H 	H 	0.92340 0.25520 0.35973 0.07200
H 	H 	0.09660 0.91770 0.30993 0.07500
H 	H 	0.17220 0.31080 0.95250 0.02500
H 	H 	0.25210 0.44020 0.14117 -0.00200
H 	H 	0.91620 0.57330 0.76167 0.01700
H 	H 	0.75030 0.72350 0.77057 0.07800
H 	H 	0.96070 0.68540 0.02650 0.07600
H 	H 	0.81190 0.25210 0.97450 -0.00900
H 	H 	0.50570 0.71580 0.32977 0.00700
H 	H 	0.46770 0.12820 0.69047 0.02000
H 	H 	0.07660 0.74480 0.85973 0.07200
H 	H 	0.80060 0.69540 0.64807 0.08300
H 	H 	0.96740 0.70910 0.77077 0.07400
H 	H 	0.69540 0.89480 0.81473 0.08300
H 	H 	0.53230 0.87180 0.19047 0.02000
H 	H 	0.58980 0.94910 0.36293 0.03000
H 	H 	0.21870 0.37770 0.84937 0.03000
H 	H 	0.29090 0.25830 0.43743 0.07400
H 	H 	0.94910 0.35930 0.52960 0.03000
H 	H 	0.66050 0.53230 0.02380 0.02100
H 	H 	0.68220 0.06210 0.91273 0.02600
H 	H 	0.24240 0.06870 0.01283 0.07900
H 	H 	0.44020 0.18810 0.30783 -0.00200
H 	H 	0.35930 0.41020 0.69627 0.03000
H 	H 	0.15900 0.78130 0.18270 0.03100
H 	H 	0.02680 0.75030 0.60390 0.07800
H 	H 	0.64070 0.58980 0.19627 0.03100
H 	H 	0.19940 0.30460 0.14807 0.08400
H 	H 	0.55980 0.81190 0.80783 -0.00300
H 	H 	0.08230 0.17890 0.97660 0.07400
H 	H 	0.68920 0.86140 0.61917 0.02200
H 	H 	0.74790 0.55980 0.64117 -0.00300
H 	H 	0.82780 0.68920 0.45250 0.02200
H 	H 	0.84100 0.21870 0.68270 0.03100
H 	H 	0.17890 0.09660 0.14327 0.07500
H 	H 	0.64160 0.76660 0.33147 0.08100
H 	H 	0.24970 0.27650 0.27057 0.07800
H 	H 	0.37990 0.31780 0.24607 0.02700
H 	H 	0.31780 0.93790 0.41273 0.02700
H 	H 	0.74480 0.66820 0.02640 0.07300
H 	H 	0.37770 0.15900 0.01603 0.03600
H 	H 	0.49430 0.28420 0.82977 0.00600
C 	C 	0.84830 0.17970 0.42843 0.07900
C 	C 	0.92230 0.67890 0.74467 -0.13400
C 	C 	0.29830 0.16680 0.14967 0.05100
C 	C 	0.29390 0.89170 0.57280 0.05900
C 	C 	0.75100 0.01280 0.90573 -0.12900
C 	C 	0.50570 0.78780 0.25897 -0.13900
C 	C 	0.11200 0.28380 0.21227 0.08300
C 	C 	0.88070 0.07930 0.05480 -0.02600
C 	C 	0.72710 0.06610 0.89173 0.05600
C 	C 	0.05480 0.67870 0.06000 0.05000
C 	C 	0.90410 0.98710 0.25437 -0.00300
C 	C 	0.20630 0.15910 0.76597 -0.02400
C 	C 	0.75660 0.07770 0.07800 -0.13300
C 	C 	0.33140 0.15170 0.76177 0.08000
C 	C 	0.88080 0.12580 0.42853 -0.02700
C 	C 	0.01290 0.91700 0.92103 -0.00400
C 	C 	0.24900 0.98720 0.40573 -0.12800
C 	C 	0.40990 0.20230 0.33453 0.07100
C 	C 	0.10830 0.40220 0.23947 0.05900
C 	C 	0.32930 0.15260 0.33893 -0.13900
C 	C 	0.70730 0.59300 0.27307 -0.12100
C 	C 	0.49430 0.21220 0.75897 -0.14000
C 	C 	0.24340 0.92230 0.57800 -0.13400
C 	C 	0.78020 0.85780 0.66357 -0.12500
C 	C 	0.27290 0.93390 0.39173 0.05600
C 	C 	0.15710 0.03980 0.38743 -0.02400
C 	C 	0.21880 0.46140 0.63470 0.06400
C 	C 	0.21220 0.83180 0.96903 -0.13200
C 	C 	0.59010 0.79770 0.83453 0.07100
C 	C 	0.33610 0.58140 0.58970 0.35300
C 	C 	0.00130 0.70530 0.05810 -0.12200
C 	C 	0.40220 0.29390 0.40613 0.05900
C 	C 	0.21980 0.14220 0.16357 -0.12500
C 	C 	0.08300 0.09590 0.58770 -0.00300
C 	C 	0.18480 0.98370 0.37423 0.07600
C 	C 	0.11920 0.87420 0.92853 -0.02600
C 	C 	0.76200 0.64300 0.31737 0.03900
C 	C 	0.86850 0.70170 0.48300 0.05100
C 	C 	0.79890 0.81520 0.70757 0.07600
C 	C 	0.11430 0.70730 0.10640 -0.12100
C 	C 	0.70530 0.70400 0.22477 -0.12200
C 	C 	0.46140 0.24260 0.80137 0.06400
C 	C 	0.88570 0.29270 0.60640 -0.12200
C 	C 	0.79770 0.20760 0.00120 0.07800
C 	C 	0.23210 0.87420 0.34693 -0.12900
C 	C 	0.75470 0.33610 0.42303 0.35300
C 	C 	0.15000 0.70430 0.88553 0.05500
C 	C 	0.27270 0.82570 0.53520 -0.14700
C 	C 	0.25800 0.81520 0.33083 0.37800
C 	C 	0.81520 0.55720 0.49750 0.37800
C 	C 	0.20990 0.53490 0.20117 0.35700
C 	C 	0.78780 0.28210 0.42563 -0.13900
C 	C 	0.23930 0.24620 0.76887 0.07300
C 	C 	0.70400 0.99870 0.39143 -0.12200
C 	C 	0.78880 0.72350 0.31557 -0.11900
C 	C 	0.05280 0.08160 0.41183 -0.00200
C 	C 	0.29270 0.40700 0.77307 -0.12200
C 	C 	0.59300 0.88570 0.43973 -0.12100
C 	C 	0.70610 0.10830 0.07280 0.05900
C 	C 	0.17670 0.32930 0.17227 -0.13900
C 	C 	0.72350 0.93470 0.48223 -0.11900
C 	C 	0.82820 0.11200 0.04560 0.08100
C 	C 	0.00690 0.76070 0.10220 0.07300
C 	C 	0.79240 0.59010 0.66787 0.07100
C 	C 	0.14220 0.92240 0.33023 -0.12500
C 	C 	0.24530 0.66390 0.92303 0.35300
C 	C 	0.44700 0.27270 0.36853 -0.14700
C 	C 	0.84290 0.96020 0.88743 -0.02400
C 	C 	0.87420 0.64210 0.51360 -0.12900
C 	C 	0.55720 0.74200 0.66417 0.37800
C 	C 	0.15170 0.82030 0.92843 0.07900
C 	C 	0.35700 0.11900 0.98403 0.03300
C 	C 	0.03980 0.88270 0.55410 -0.02500
C 	C 	0.12580 0.35790 0.01360 -0.11300
C 	C 	0.95280 0.79370 0.09930 -0.02300
C 	C 	0.23800 0.35700 0.81737 0.03900
C 	C 	0.92240 0.78020 0.49690 -0.12500
C 	C 	0.75500 0.88080 0.26187 -0.02700
C 	C 	0.17500 0.68200 0.10710 0.35300
C 	C 	0.85780 0.07760 0.83023 -0.12500
C 	C 	0.35790 0.23210 0.18027 -0.12900
C 	C 	0.32130 0.37610 0.72667 0.04900
C 	C 	0.75380 0.99310 0.43553 0.07300
C 	C 	0.78120 0.53860 0.13470 0.06400
C 	C 	0.97120 0.05280 0.24517 -0.00300
C 	C 	0.15260 0.82330 0.50560 -0.13900
C 	C 	0.62390 0.94520 0.39333 0.04900
C 	C 	0.29570 0.44570 0.55220 0.05500
C 	C 	0.67870 0.62390 0.22667 0.04900
C 	C 	0.82500 0.31800 0.60710 0.35300
C 	C 	0.84090 0.04720 0.43263 -0.02400
C 	C 	0.44570 0.15000 0.71887 0.05500
C 	C 	0.63510 0.88040 0.22027 -0.12900
C 	C 	0.76070 0.75380 0.26887 0.07300
C 	C 	0.07770 0.32110 0.24467 -0.13400
C 	C 	0.13150 0.29830 0.98300 0.03900
C 	C 	0.17970 0.33140 0.59510 0.08000
C 	C 	0.82570 0.55300 0.70187 -0.14700
C 	C 	0.53490 0.32500 0.36783 0.35700
C 	C 	0.17180 0.88800 0.54560 0.08300
C 	C 	0.67890 0.75660 0.91133 -0.13400
C 	C 	0.31800 0.49300 0.77377 0.35300
C 	C 	0.75470 0.63510 0.05360 -0.12900
C 	C 	0.26180 0.24900 0.23907 -0.12800
C 	C 	0.32500 0.79010 0.53450 0.35700
C 	C 	0.21220 0.71790 0.92563 -0.14000
C 	C 	0.16820 0.38040 0.63570 -0.13200
C 	C 	0.44280 0.25800 0.16417 0.37800
C 	C 	0.07930 0.19860 0.22147 -0.02700
C 	C 	0.74200 0.18480 0.83083 0.37800
C 	C 	0.38040 0.21220 0.80237 -0.13200
C 	C 	0.72730 0.17430 0.03520 -0.14800
C 	C 	0.70430 0.55430 0.05220 0.05500
C 	C 	0.88800 0.71620 0.71227 0.08300
C 	C 	0.98720 0.73820 0.57240 -0.12800
C 	C 	0.15910 0.95280 0.93263 -0.02600
C 	C 	0.75740 0.21880 0.46803 0.06400
C 	C 	0.06610 0.33900 0.05840 0.04900
C 	C 	0.66100 0.72710 0.72507 0.05600
C 	C 	0.61960 0.78780 0.30237 -0.13200
C 	C 	0.82330 0.67070 0.67227 -0.13900
C 	C 	0.46510 0.67500 0.86783 0.35700
C 	C 	0.71620 0.82820 0.87893 0.08300
C 	C 	0.79010 0.46510 0.70117 0.35700
C 	C 	0.89170 0.59780 0.73947 0.05900
C 	C 	0.17430 0.44700 0.20187 -0.14600
C 	C 	0.04720 0.20630 0.59930 -0.02400
C 	C 	0.58140 0.24530 0.75637 0.35300
C 	C 	0.28380 0.17180 0.37893 0.08300
C 	C 	0.11960 0.75470 0.88693 -0.12900
C 	C 	0.99310 0.23930 0.60220 0.07300
C 	C 	0.36490 0.11960 0.72027 -0.12900
C 	C 	0.66390 0.41860 0.08970 0.35300
C 	C 	0.41860 0.75470 0.25637 0.35300
C 	C 	0.21120 0.27650 0.81557 -0.11900
C 	C 	0.24620 0.00690 0.93553 0.07600
C 	C 	0.91840 0.97120 0.07850 -0.00200
C 	C 	0.64210 0.76790 0.68027 -0.12900
C 	C 	0.55430 0.85000 0.21887 0.05500
C 	C 	0.92070 0.80140 0.72147 -0.02700
C 	C 	0.12580 0.24500 0.59520 -0.02700
C 	C 	0.83180 0.61960 0.13570 -0.13200
C 	C 	0.94720 0.91840 0.91183 -0.00200
C 	C 	0.06530 0.78880 0.14890 -0.11900
C 	C 	0.93390 0.66100 0.55840 0.05600
C 	C 	0.29600 0.00130 0.89143 -0.12300
C 	C 	0.82030 0.66860 0.09510 0.08000
C 	C 	0.76790 0.12580 0.84693 -0.13000
C 	C 	0.66860 0.84830 0.26177 0.07900
C 	C 	0.84740 0.17670 0.00560 -0.13100
C 	C 	0.32110 0.24340 0.41133 -0.13400
C 	C 	0.18480 0.44280 0.99750 0.36300
C 	C 	0.11930 0.92070 0.55480 -0.02700
C 	C 	0.64300 0.88100 0.48403 0.03900
C 	C 	0.20760 0.40990 0.16787 0.07100
C 	C 	0.93470 0.21120 0.64890 -0.11900
C 	C 	0.70170 0.83320 0.64967 0.05100
C 	C 	0.88270 0.84290 0.72077 -0.02400
C 	C 	0.83320 0.13150 0.81633 0.05100
C 	C 	0.94520 0.32130 0.56000 0.04900
C 	C 	0.71790 0.50570 0.09230 -0.13900
C 	C 	0.53860 0.75740 0.30137 0.06400
C 	C 	0.87420 0.75500 0.09520 -0.02700
C 	C 	0.02880 0.94720 0.74517 -0.00300
C 	C 	0.27650 0.06530 0.98223 -0.12600
C 	C 	0.99870 0.29470 0.55810 -0.12200
C 	C 	0.19860 0.11930 0.38813 -0.02700
C 	C 	0.08160 0.02880 0.57850 -0.00300
C 	C 	0.37610 0.05480 0.89333 0.04900
C 	C 	0.68200 0.50700 0.27377 0.35300
C 	C 	0.24500 0.11920 0.76187 -0.02700
C 	C 	0.49300 0.17500 0.94043 0.35200
C 	C 	0.96020 0.11730 0.05410 -0.02400
C 	C 	0.01630 0.20110 0.04090 0.07900
C 	C 	0.40700 0.11430 0.93973 -0.12000
C 	C 	0.01280 0.26180 0.07240 -0.12500
C 	C 	0.33900 0.27290 0.22507 0.05600
C 	C 	0.73820 0.75100 0.73907 -0.12800
C 	C 	0.91700 0.90410 0.08770 -0.00200
C 	C 	0.20230 0.79240 0.50120 0.07100
C 	C 	0.81520 0.01630 0.87423 0.07500
C 	C 	0.55300 0.72730 0.86853 -0.14700
C 	C 	0.24260 0.78120 0.96803 0.06300
C 	C 	0.67070 0.84740 0.83893 -0.13900
C 	C 	0.16680 0.86850 0.31633 0.05100
C 	C 	0.07760 0.21980 0.99690 -0.12700
C 	C 	0.79370 0.84090 0.26597 -0.02400
C 	C 	0.98370 0.79890 0.54090 0.07600
C 	C 	0.11900 0.76200 0.15070 0.04000
C 	C 	0.50700 0.82500 0.44043 0.35300
C 	C 	0.20110 0.18480 0.20757 0.07600
C 	C 	0.29470 0.29600 0.72477 -0.12200
C 	C 	0.88100 0.23800 0.65070 0.03900
C 	C 	0.78780 0.16820 0.46903 -0.13200
C 	C 	0.80140 0.88070 0.88813 -0.02700
C 	C 	0.28210 0.49430 0.59230 -0.13900
C 	C 	0.98710 0.08300 0.42103 -0.00300
C 	C 	0.09590 0.01290 0.75437 -0.00300
C 	C 	0.24530 0.36490 0.55360 -0.12900
C 	C 	0.88040 0.24530 0.38693 -0.12900
C 	C 	0.11730 0.15710 0.22077 -0.02400
C 	C 	0.67500 0.20990 0.03450 0.35800
C 	C 	0.85000 0.29570 0.38553 0.05500
C 	C 	0.59780 0.70610 0.90613 0.05800
S 	S 	0.14514 0.16712 0.40565 -0.00800
S 	S 	0.93746 0.94312 0.74003 -0.00200
S 	S 	0.06254 0.05688 0.24003 -0.00300
S 	S 	0.18711 0.01588 0.75829 -0.00700
S 	S 	0.81289 0.98412 0.25829 -0.00700
S 	S 	0.97802 0.14514 0.23899 -0.00800
S 	S 	0.16712 0.02198 0.57232 -0.00800
S 	S 	0.17123 0.18711 0.59162 -0.00700
S 	S 	0.99434 0.93746 0.57336 -0.00200
S 	S 	0.82877 0.81289 0.09162 -0.00500
S 	S 	0.99829 0.10314 0.59969 -0.00400
S 	S 	0.05688 0.99434 0.40669 -0.00300
S 	S 	0.85486 0.83288 0.90565 -0.01000
S 	S 	0.01588 0.82877 0.92495 -0.00900
S 	S 	0.89686 0.89515 0.26636 -0.00400
S 	S 	0.94312 0.00566 0.90669 -0.00500
S 	S 	0.10314 0.10485 0.76636 -0.00400
S 	S 	0.83288 0.97802 0.07232 -0.00600
S 	S 	0.98412 0.17123 0.42495 -0.00700
S 	S 	0.00566 0.06254 0.07336 -0.00100
S 	S 	0.10485 0.00171 0.93302 -0.00600
S 	S 	0.00171 0.89686 0.09969 -0.00300
S 	S 	0.89515 0.99829 0.43302 -0.00400
S 	S 	0.02198 0.85486 0.73899 -0.00800
O 	O 	0.77770 0.38800 0.38033 -0.40800
O 	O 	0.28310 0.51610 0.81047 -0.46200
O 	O 	0.53660 0.16550 0.90113 -0.41100
O 	O 	0.37500 0.70270 0.29697 -0.53100
O 	O 	0.22230 0.61200 0.88033 -0.40800
O 	O 	0.38760 0.82350 0.56700 -0.45600
O 	O 	0.72670 0.42360 0.67067 -0.49200
O 	O 	0.30310 0.72670 0.50400 -0.49200
O 	O 	0.81450 0.50530 0.53320 -0.45100
O 	O 	0.38800 0.61030 0.54700 -0.40800
O 	O 	0.42360 0.69690 0.83733 -0.49200
O 	O 	0.56410 0.38760 0.40033 -0.45600
O 	O 	0.49470 0.30920 0.19987 -0.45100
O 	O 	0.57640 0.30310 0.33733 -0.49200
O 	O 	0.51610 0.23300 0.97713 -0.46500
O 	O 	0.67230 0.37500 0.13030 -0.53100
O 	O 	0.32770 0.62500 0.63030 -0.53200
O 	O 	0.29730 0.67230 0.96363 -0.53400
O 	O 	0.77220 0.54580 0.44920 -0.46400
O 	O 	0.22780 0.45420 0.94920 -0.46100
O 	O 	0.77360 0.22780 0.78253 -0.46400
O 	O 	0.17650 0.56410 0.23367 -0.45600
O 	O 	0.18550 0.49470 0.03320 -0.44400
O 	O 	0.61200 0.38970 0.04700 -0.40600
O 	O 	0.62890 0.46340 0.23447 -0.41100
O 	O 	0.16550 0.62890 0.06780 -0.40900
O 	O 	0.38970 0.77770 0.21367 -0.40700
O 	O 	0.71690 0.48390 0.31047 -0.46200
O 	O 	0.83450 0.37110 0.56780 -0.41100
O 	O 	0.70270 0.32770 0.46363 -0.53200
O 	O 	0.69690 0.27330 0.00400 -0.48900
O 	O 	0.50530 0.69080 0.69987 -0.45100
O 	O 	0.61030 0.22230 0.71367 -0.40800
O 	O 	0.62500 0.29730 0.79697 -0.53200
O 	O 	0.76700 0.28310 0.64380 -0.46200
O 	O 	0.82350 0.43590 0.73367 -0.45600
O 	O 	0.61240 0.17650 0.06700 -0.45500
O 	O 	0.48390 0.76700 0.47713 -0.46200
O 	O 	0.54580 0.77360 0.61587 -0.46400
O 	O 	0.22640 0.77220 0.28253 -0.46400
O 	O 	0.30920 0.81450 0.36653 -0.45100
O 	O 	0.45420 0.22640 0.11587 -0.46300
O 	O 	0.46340 0.83450 0.40113 -0.41100
O 	O 	0.27330 0.57640 0.17067 -0.49100
O 	O 	0.23300 0.71690 0.14380 -0.46100
O 	O 	0.37110 0.53660 0.73447 -0.41100
O 	O 	0.43590 0.61240 0.90033 -0.45700
O 	O 	0.69080 0.18550 0.86653 -0.45200
