data_crystal

_cell_length_a 24.34800
_cell_length_b 24.34800
_cell_length_c 14.91800
_cell_angle_alpha 90.00000
_cell_angle_beta  90.00000
_cell_angle_gamma 90.00000

_symmetry_space_group_name_	'P 1'
_symmetry_space_group_name_H-M	'P 1'

loop_
_symmetry_equiv_pos_as_xyz
  x,y,z

loop_
_atom_site_label
_atom_site_type_symbol
_atom_site_fract_x
_atom_site_fract_y
_atom_site_fract_z
_atom_site_charge
O 	O 	0.07714 0.09999 0.16382 -0.62900
O 	O 	0.13882 0.05018 0.08021 -0.59400
C 	C 	0.12729 0.08849 0.13887 0.42900
O 	O 	-0.07682 -0.10510 0.15608 -0.59900
O 	O 	-0.13938 -0.05241 0.07960 -0.59300
C 	C 	-0.12719 -0.09297 0.13372 0.44700
O 	O 	0.07668 -0.10024 0.16456 -0.62300
O 	O 	0.13873 -0.05087 0.08127 -0.59600
C 	C 	0.12690 -0.08900 0.14015 0.43000
O 	O 	-0.07752 0.10469 0.15551 -0.60800
O 	O 	-0.13964 0.05169 0.07852 -0.59400
C 	C 	-0.12777 0.09241 0.13247 0.44500
Zr	Zr	-0.00057 0.06919 0.11770 3.21400
O 	O 	-0.00578 0.06659 0.25933 -0.61000
O 	O 	0.00161 0.15603 0.11439 -0.59700
Zr	Zr	-0.00048 -0.06774 0.12061 3.21400
O 	O 	-0.00576 -0.05583 0.26099 -0.60500
O 	O 	0.00216 -0.15350 0.14165 -0.56100
O 	O 	0.05016 0.00074 0.13626 -1.34800
O 	O 	-0.05003 0.00069 0.13499 -1.62300
O 	O 	-0.07747 0.10341 -0.14722 -0.59800
O 	O 	-0.13964 0.05136 -0.06850 -0.59200
C 	C 	-0.12773 0.09144 -0.12373 0.44800
O 	O 	0.07601 -0.10176 -0.15277 -0.61900
O 	O 	0.13823 -0.05020 -0.07354 -0.59300
C 	C 	0.12630 -0.08949 -0.13030 0.43800
O 	O 	-0.07730 -0.10491 -0.14551 -0.61000
O 	O 	-0.13971 -0.05278 -0.06771 -0.59300
C 	C 	-0.12758 -0.09302 -0.12253 0.45500
O 	O 	0.07653 0.09948 -0.15469 -0.61600
O 	O 	0.13861 0.04998 -0.07144 -0.59000
C 	C 	0.12680 0.08821 -0.13019 0.42900
Zr	Zr	-0.00070 0.06759 -0.10955 3.21400
O 	O 	-0.00592 0.05967 -0.25066 -0.59800
O 	O 	0.00213 0.15413 -0.11945 -0.57300
Zr	Zr	-0.00069 -0.06922 -0.10777 3.21400
O 	O 	-0.00602 -0.06169 -0.24896 -0.59600
O 	O 	0.00314 -0.15576 -0.11814 -0.57500
Zr	Zr	0.08334 -0.00042 0.00509 3.19400
Zr	Zr	-0.08444 -0.00046 0.00543 3.19300
O 	O 	-0.05022 -0.00092 -0.12427 -1.62500
O 	O 	0.04997 -0.00092 -0.12593 -1.34800
O 	O 	-0.04945 0.07883 0.00404 -1.33000
O 	O 	0.04660 -0.07892 0.00638 -1.62800
O 	O 	0.04690 0.07822 0.00397 -1.62500
O 	O 	-0.04900 -0.07966 0.00665 -1.34000
H 	H 	-0.07613 0.00098 0.18598 0.39800
H 	H 	0.06941 -0.11256 0.00629 0.37900
H 	H 	-0.07630 -0.00107 -0.17527 0.40100
H 	H 	0.06975 0.11184 0.00384 0.39000
H 	H 	0.00275 -0.17060 0.08161 0.16400
H 	H 	-0.01659 -0.17081 -0.06568 0.18000
H 	H 	0.03075 -0.05114 -0.27140 0.20600
H 	H 	0.03074 0.04844 -0.27273 0.20400
H 	H 	-0.00848 0.16851 -0.05986 0.19700
H 	H 	0.00155 0.16859 0.17764 0.19600
H 	H 	0.02864 0.04991 0.28178 0.20300
H 	H 	0.03201 -0.05025 0.28380 0.20300
O 	O 	0.39851 0.42183 0.34671 -0.63200
O 	O 	0.44771 0.35975 0.43050 -0.59500
C 	C 	0.40973 0.37159 0.37135 0.42800
O 	O 	0.60341 0.57474 0.35395 -0.60200
O 	O 	0.55148 0.63769 0.43096 -0.59400
C 	C 	0.59163 0.62519 0.37611 0.42900
O 	O 	0.59849 0.42149 0.34640 -0.62400
O 	O 	0.54902 0.35955 0.42974 -0.59700
C 	C 	0.58718 0.37130 0.37087 0.42200
O 	O 	0.39398 0.57627 0.35557 -0.60800
O 	O 	0.44715 0.63829 0.43247 -0.59600
C 	C 	0.40636 0.62648 0.37858 0.43600
Zr	Zr	0.42930 0.49927 0.39338 3.21400
O 	O 	0.43170 0.50466 0.25175 -0.61100
O 	O 	0.34246 0.49723 0.39704 -0.59800
Zr	Zr	0.56617 0.49867 0.39040 3.21400
O 	O 	0.55433 0.50380 0.24997 -0.60600
O 	O 	0.65198 0.49591 0.36990 -0.56500
O 	O 	0.49755 0.44828 0.37476 -1.34900
O 	O 	0.49792 0.54849 0.37603 -1.62400
O 	O 	0.39525 0.57616 0.65809 -0.59900
O 	O 	0.44742 0.63826 0.57939 -0.59300
C 	C 	0.40729 0.62640 0.63459 0.43100
O 	O 	0.60007 0.42224 0.66374 -0.62000
O 	O 	0.54840 0.36010 0.58450 -0.59300
C 	C 	0.58774 0.37198 0.64123 0.42200
O 	O 	0.60307 0.57552 0.65768 -0.61200
O 	O 	0.55153 0.63806 0.57903 -0.59500
C 	C 	0.59134 0.62583 0.63465 0.43000
O 	O 	0.39910 0.42220 0.66625 -0.61700
O 	O 	0.44823 0.35995 0.58271 -0.59200
C 	C 	0.41030 0.37188 0.64191 0.42100
Zr	Zr	0.43092 0.49933 0.62052 3.21400
O 	O 	0.43874 0.50473 0.76164 -0.60300
O 	O 	0.34436 0.49656 0.63021 -0.57700
Zr	Zr	0.56771 0.49899 0.61871 3.21400
O 	O 	0.56047 0.50410 0.75996 -0.60100
O 	O 	0.65431 0.49503 0.62805 -0.58300
Zr	Zr	0.49863 0.41506 0.50589 3.19400
Zr	Zr	0.49922 0.58296 0.50552 3.19300
O 	O 	0.49953 0.54867 0.63519 -1.62400
O 	O 	0.49929 0.44849 0.63687 -1.34900
O 	O 	0.41983 0.54816 0.50700 -1.33000
O 	O 	0.57722 0.45161 0.50461 -1.62800
O 	O 	0.42011 0.45172 0.50705 -1.62400
O 	O 	0.57831 0.54729 0.50428 -1.34000
H 	H 	0.49767 0.57453 0.32497 0.39700
H 	H 	0.61081 0.42873 0.50467 0.37800
H 	H 	0.49967 0.57468 0.68628 0.39800
H 	H 	0.38649 0.42885 0.50724 0.39000
H 	H 	0.66894 0.49518 0.43003 0.16200
H 	H 	0.66921 0.51612 0.57688 0.17900
H 	H 	0.54943 0.46745 0.78227 0.20200
H 	H 	0.45022 0.46818 0.78383 0.20100
H 	H 	0.33003 0.50759 0.57081 0.19700
H 	H 	0.32981 0.49736 0.33384 0.19500
H 	H 	0.44867 0.47042 0.22913 0.20300
H 	H 	0.54852 0.46604 0.22728 0.20200
C 	C 	0.25728 0.19991 0.23668 -0.00800
C 	C 	0.26743 0.16295 0.16453 0.03600
C 	C 	0.22597 0.12560 0.13586 -0.02100
C 	C 	0.17345 0.12414 0.17604 -0.08600
C 	C 	0.16422 0.16063 0.24804 0.01300
C 	C 	0.20527 0.19738 0.27790 -0.05100
C 	C 	0.29841 0.24338 0.26692 -0.00900
C 	C 	0.33349 0.23320 0.34044 -0.05200
C 	C 	0.37082 0.27342 0.37218 0.01100
C 	C 	0.37413 0.32590 0.33242 -0.08600
C 	C 	0.33951 0.33586 0.25812 -0.02000
C 	C 	0.30240 0.29566 0.22490 0.03700
H 	H 	0.23449 0.09856 0.07992 0.05800
H 	H 	0.12461 0.16144 0.28101 0.04500
H 	H 	0.39618 0.26378 0.42963 0.04600
H 	H 	0.34086 0.37564 0.22561 0.05400
H 	H 	0.19585 0.22507 0.33259 0.04600
H 	H 	0.33166 0.19386 0.37418 0.04400
C 	C 	0.32123 0.16263 0.11481 -0.18000
C 	C 	0.26760 0.31084 0.14512 -0.18100
H 	H 	0.31393 0.17308 0.04333 0.06600
H 	H 	0.33981 0.12105 0.11867 0.06700
H 	H 	0.35127 0.19240 0.14232 0.07100
H 	H 	0.29466 0.32125 0.08767 0.06700
H 	H 	0.24204 0.34720 0.16179 0.07100
H 	H 	0.23976 0.27735 0.12355 0.07200
C 	C 	0.74366 0.79562 0.23518 -0.00600
C 	C 	0.73090 0.83724 0.17131 0.03200
C 	C 	0.77239 0.87409 0.14067 -0.01700
C 	C 	0.82726 0.87055 0.17090 -0.09700
C 	C 	0.83905 0.82938 0.23474 0.01600
C 	C 	0.79825 0.79297 0.26615 -0.05400
C 	C 	0.70257 0.75247 0.26684 -0.01100
C 	C 	0.66312 0.76529 0.33317 -0.05100
C 	C 	0.62643 0.72511 0.36726 0.00900
C 	C 	0.62800 0.67023 0.33692 -0.07800
C 	C 	0.66699 0.65768 0.26972 -0.02300
C 	C 	0.70352 0.69761 0.23433 0.04100
H 	H 	0.76178 0.90493 0.09129 0.05300
H 	H 	0.88042 0.82467 0.26020 0.05200
H 	H 	0.59742 0.73692 0.41873 0.04600
H 	H 	0.66932 0.61612 0.24402 0.06700
H 	H 	0.80970 0.76165 0.31420 0.04700
H 	H 	0.66115 0.80664 0.35966 0.04200
C 	C 	0.67431 0.84294 0.13180 -0.17800
C 	C 	0.74247 0.67956 0.16151 -0.18300
H 	H 	0.67661 0.83802 0.05788 0.06600
H 	H 	0.65781 0.88437 0.14735 0.06300
H 	H 	0.64502 0.81199 0.15791 0.06900
H 	H 	0.71871 0.66178 0.10497 0.07100
H 	H 	0.77067 0.64770 0.18829 0.07300
H 	H 	0.76755 0.71365 0.13421 0.07300
C 	C 	0.74258 0.20119 0.77168 -0.00700
C 	C 	0.79611 0.20021 0.73338 0.03700
C 	C 	0.83693 0.16420 0.76750 -0.01600
C 	C 	0.82644 0.12732 0.83854 -0.09600
C 	C 	0.77283 0.12746 0.87455 0.01600
C 	C 	0.73194 0.16392 0.84222 -0.05500
C 	C 	0.69908 0.24265 0.74230 -0.00900
C 	C 	0.70762 0.29874 0.76062 -0.05000
C 	C 	0.67095 0.33953 0.73036 0.00800
C 	C 	0.62374 0.32642 0.67968 -0.08300
C 	C 	0.61409 0.27015 0.66273 -0.02300
C 	C 	0.65071 0.22844 0.69356 0.03500
H 	H 	0.87747 0.16506 0.73754 0.05900
H 	H 	0.76269 0.10018 0.92937 0.04100
H 	H 	0.68058 0.38196 0.74530 0.05600
H 	H 	0.57828 0.25844 0.62407 0.05600
H 	H 	0.69179 0.16353 0.87346 0.04000
H 	H 	0.74379 0.31128 0.79763 0.04600
C 	C 	0.81171 0.23630 0.65533 -0.18100
C 	C 	0.63690 0.16975 0.67129 -0.17900
H 	H 	0.82852 0.21052 0.60038 0.06900
H 	H 	0.84367 0.26602 0.67683 0.07100
H 	H 	0.77649 0.25949 0.62741 0.07200
H 	H 	0.63051 0.16551 0.59802 0.06200
H 	H 	0.59839 0.15795 0.70616 0.06500
H 	H 	0.66961 0.14055 0.69109 0.06800
C 	C 	0.25573 0.79938 0.76833 -0.00500
C 	C 	0.26988 0.84766 0.81736 0.03000
C 	C 	0.22812 0.88420 0.84826 -0.01700
C 	C 	0.17186 0.87456 0.83116 -0.10100
C 	C 	0.15882 0.82744 0.78021 0.01400
C 	C 	0.19965 0.79084 0.74984 -0.05400
C 	C 	0.29725 0.75593 0.73895 -0.01000
C 	C 	0.33464 0.76667 0.66858 -0.05000
C 	C 	0.37120 0.72585 0.63635 0.01100
C 	C 	0.37136 0.67222 0.67227 -0.07700
C 	C 	0.33439 0.66165 0.74316 -0.02200
C 	C 	0.29826 0.70239 0.77719 0.04100
H 	H 	0.23979 0.91993 0.88713 0.05000
H 	H 	0.11640 0.81782 0.76514 0.05200
H 	H 	0.39857 0.73606 0.58168 0.04700
H 	H 	0.33353 0.62110 0.77307 0.06500
H 	H 	0.18717 0.75473 0.71264 0.04900
H 	H 	0.33502 0.80684 0.63742 0.04000
C 	C 	0.32853 0.86144 0.83991 -0.17600
C 	C 	0.26208 0.68670 0.85506 -0.18200
H 	H 	0.33270 0.86749 0.91326 0.05800
H 	H 	0.34032 0.90012 0.80553 0.06200
H 	H 	0.35779 0.82886 0.81978 0.06600
H 	H 	0.28780 0.66990 0.91010 0.06900
H 	H 	0.23244 0.65468 0.83340 0.07300
H 	H 	0.23878 0.72186 0.88293 0.07100
C 	C 	0.25546 0.20070 0.76997 -0.00900
C 	C 	0.20074 0.20308 0.73683 0.03800
C 	C 	0.16046 0.16549 0.76799 -0.02200
C 	C 	0.17246 0.12429 0.83180 -0.09000
C 	C 	0.22726 0.12125 0.86237 0.01000
C 	C 	0.26785 0.15870 0.83208 -0.05400
C 	C 	0.29858 0.24342 0.74460 -0.01000
C 	C 	0.33911 0.23128 0.67983 -0.05100
C 	C 	0.37642 0.27175 0.64877 0.00900
C 	C 	0.37460 0.32625 0.68095 -0.08200
C 	C 	0.33502 0.33796 0.74760 -0.02300
C 	C 	0.29771 0.29770 0.77982 0.03600
H 	H 	0.11894 0.16921 0.74255 0.06100
H 	H 	0.23867 0.09058 0.91145 0.04200
H 	H 	0.40590 0.26057 0.59765 0.04700
H 	H 	0.33241 0.37920 0.77453 0.06100
H 	H 	0.30902 0.15565 0.85907 0.03900
H 	H 	0.34101 0.19044 0.65128 0.04300
C 	C 	0.18303 0.24530 0.66885 -0.18200
C 	C 	0.25739 0.31492 0.85113 -0.18000
H 	H 	0.15135 0.27244 0.69891 0.07100
H 	H 	0.16516 0.22428 0.60958 0.07100
H 	H 	0.21733 0.27134 0.64482 0.07300
H 	H 	0.22974 0.34712 0.82390 0.07000
H 	H 	0.28005 0.33198 0.90942 0.06400
H 	H 	0.23179 0.28050 0.87592 0.06800
C 	C 	0.74462 0.79564 0.77175 -0.00700
C 	C 	0.79965 0.79348 0.74020 0.03400
C 	C 	0.83967 0.83036 0.77409 -0.01600
C 	C 	0.82712 0.87067 0.83912 -0.10700
C 	C 	0.77208 0.87343 0.86849 0.01700
C 	C 	0.73171 0.83657 0.83553 -0.05700
C 	C 	0.70185 0.75335 0.74343 -0.01100
C 	C 	0.66268 0.76599 0.67666 -0.05100
C 	C 	0.62596 0.72576 0.64289 0.01000
C 	C 	0.62721 0.67109 0.67420 -0.08100
C 	C 	0.66557 0.65887 0.74248 -0.02300
C 	C 	0.70217 0.69882 0.77744 0.03800
H 	H 	0.88137 0.82698 0.74936 0.05700
H 	H 	0.76031 0.90343 0.91846 0.03700
H 	H 	0.59739 0.73728 0.59059 0.04700
H 	H 	0.66759 0.61748 0.76898 0.06400
H 	H 	0.69029 0.83926 0.86158 0.04000
H 	H 	0.66138 0.80704 0.64881 0.04200
C 	C 	0.81798 0.75225 0.67103 -0.18000
C 	C 	0.74114 0.68101 0.85037 -0.18100
H 	H 	0.84923 0.72453 0.70091 0.06900
H 	H 	0.83660 0.77412 0.61320 0.07000
H 	H 	0.78390 0.72671 0.64488 0.07300
H 	H 	0.76914 0.64887 0.82396 0.06900
H 	H 	0.71739 0.66370 0.90731 0.06600
H 	H 	0.76646 0.71515 0.87693 0.06900
C 	C 	0.25536 0.79993 0.24476 -0.00700
C 	C 	0.26802 0.83969 0.17769 0.03400
C 	C 	0.22686 0.87660 0.14610 -0.02000
C 	C 	0.17245 0.87515 0.17891 -0.09200
C 	C 	0.16074 0.83572 0.24568 0.01300
C 	C 	0.20115 0.79904 0.27758 -0.05100
C 	C 	0.29639 0.75738 0.27888 -0.00700
C 	C 	0.28997 0.70208 0.25330 -0.05000
C 	C 	0.32584 0.66064 0.28409 0.01500
C 	C 	0.37004 0.67241 0.34231 -0.08200
C 	C 	0.37690 0.72782 0.36799 -0.02000
C 	C 	0.34072 0.77000 0.33785 0.03500
H 	H 	0.23727 0.90571 0.09384 0.05500
H 	H 	0.11966 0.83248 0.27294 0.05200
H 	H 	0.31841 0.61885 0.26249 0.05100
H 	H 	0.41013 0.73846 0.41303 0.05600
H 	H 	0.18976 0.76921 0.32813 0.04900
H 	H 	0.25659 0.69073 0.20901 0.04800
C 	C 	0.32411 0.84315 0.13572 -0.17900
C 	C 	0.35044 0.82735 0.37200 -0.17800
H 	H 	0.34134 0.88486 0.14637 0.06300
H 	H 	0.32061 0.83531 0.06273 0.06500
H 	H 	0.35343 0.81287 0.16363 0.06900
H 	H 	0.39146 0.84177 0.34961 0.06300
H 	H 	0.34928 0.82729 0.44643 0.06500
H 	H 	0.31924 0.85706 0.34805 0.06900
C 	C 	0.74121 0.20215 0.23241 -0.00600
C 	C 	0.72860 0.15758 0.17392 0.03400
C 	C 	0.77084 0.12154 0.14363 -0.01700
C 	C 	0.82631 0.12872 0.16878 -0.09100
C 	C 	0.83808 0.17314 0.22655 0.01800
C 	C 	0.79657 0.20891 0.25743 -0.05200
C 	C 	0.69856 0.24305 0.26655 -0.00900
C 	C 	0.69863 0.29697 0.23250 -0.04900
C 	C 	0.66182 0.33728 0.26431 0.01100
C 	C 	0.62304 0.32574 0.33218 -0.08400
C 	C 	0.62240 0.27161 0.36622 -0.02200
C 	C 	0.65947 0.23056 0.33474 0.03500
H 	H 	0.76020 0.08813 0.09894 0.05600
H 	H 	0.87991 0.18081 0.24773 0.04600
H 	H 	0.66443 0.37816 0.23610 0.05400
H 	H 	0.59384 0.26135 0.41937 0.05600
H 	H 	0.80790 0.24248 0.30135 0.04600
H 	H 	0.72793 0.30823 0.18105 0.04900
C 	C 	0.67115 0.14742 0.14054 -0.17900
C 	C 	0.65696 0.17480 0.37805 -0.18000
H 	H 	0.65711 0.10634 0.16328 0.06500
H 	H 	0.67085 0.14847 0.06611 0.06800
H 	H 	0.64134 0.17845 0.16476 0.07100
H 	H 	0.61525 0.15718 0.36923 0.06400
H 	H 	0.66574 0.17898 0.45066 0.06400
H 	H 	0.68708 0.14546 0.34970 0.06900
