data_crystal

_cell_length_a 24.30500
_cell_length_b 24.30500
_cell_length_c 24.30500
_cell_angle_alpha 90.00000
_cell_angle_beta  90.00000
_cell_angle_gamma 90.00000

_symmetry_space_group_name_	'P 1'
_symmetry_space_group_name_H-M	'P 1'

loop_
_symmetry_equiv_pos_as_xyz
  x,y,z

loop_
_atom_site_label
_atom_site_type_symbol
_atom_site_fract_x
_atom_site_fract_y
_atom_site_fract_z
_atom_site_charge
C 	C 	0.38476 0.98896 -0.55525 0.00200
C 	C 	0.35648 0.98832 -0.50508 -0.05700
C 	C 	0.38462 0.98914 -0.45487 0.00100
C 	C 	0.44282 0.99051 -0.45445 0.00000
C 	C 	0.47201 0.99100 -0.50500 -0.00700
C 	C 	0.44292 0.99022 -0.55558 0.00100
C 	C 	0.47272 0.99009 -0.60516 -0.04100
C 	C 	0.52996 0.99124 -0.60512 -0.04100
C 	C 	0.55963 0.99200 -0.55549 -0.00000
C 	C 	0.53044 0.99197 -0.50496 -0.00700
C 	C 	0.47252 0.99121 -0.40483 -0.04100
C 	C 	0.52976 0.99292 -0.40479 -0.04100
C 	C 	0.55954 0.99305 -0.45438 0.00000
C 	C 	0.61769 0.99473 -0.45474 0.00100
C 	C 	0.64597 0.99459 -0.50491 -0.05800
C 	C 	0.61782 0.99287 -0.55509 0.00100
H 	H 	0.45206 0.98895 -0.64459 0.03900
H 	H 	0.55075 0.99145 -0.64450 0.03900
H 	H 	0.45176 0.99065 -0.36545 0.03900
H 	H 	0.55045 0.99405 -0.36538 0.03900
H 	H 	0.31186 0.98722 -0.50513 0.04400
H 	H 	0.69059 0.99565 -0.50487 0.04400
C 	C 	-0.61462 1.44073 -0.00729 0.00100
C 	C 	-0.64305 1.49080 -0.00566 -0.05700
C 	C 	-0.61507 1.54109 -0.00414 0.00000
C 	C 	-0.55688 1.54167 -0.00291 0.00000
C 	C 	-0.52751 1.49127 -0.00476 -0.00700
C 	C 	-0.55642 1.44062 -0.00727 0.00100
C 	C 	-0.52642 1.39126 -0.01044 -0.04100
C 	C 	-0.46915 1.39153 -0.01036 -0.04100
C 	C 	-0.43965 1.44116 -0.00699 0.00100
C 	C 	-0.46906 1.49152 -0.00442 -0.00700
C 	C 	-0.52738 1.59133 0.00016 -0.04100
C 	C 	-0.47011 1.59156 0.00075 -0.04100
C 	C 	-0.44016 1.54215 -0.00184 0.00000
C 	C 	-0.38197 1.54204 -0.00192 0.00000
C 	C 	-0.35349 1.49207 -0.00407 -0.05700
C 	C 	-0.38146 1.44182 -0.00682 0.00100
H 	H 	-0.54697 1.35187 -0.01337 0.03900
H 	H 	-0.44819 1.35234 -0.01315 0.03900
H 	H 	-0.54837 1.63056 0.00222 0.03900
H 	H 	-0.44949 1.63096 0.00317 0.03900
H 	H 	-0.68769 1.49061 -0.00610 0.04400
H 	H 	-0.30886 1.49230 -0.00414 0.04400
C 	C 	-0.00008 0.44242 0.37749 0.00100
C 	C 	-0.00094 0.49295 0.34986 -0.05700
C 	C 	-0.00130 0.54284 0.37863 0.00000
C 	C 	-0.00108 0.54256 0.43685 0.00000
C 	C 	-0.00063 0.49167 0.46544 -0.00700
C 	C 	-0.00061 0.44143 0.43571 0.00000
C 	C 	-0.00170 0.39151 0.46491 -0.04100
C 	C 	-0.00222 0.39088 0.52217 -0.04100
C 	C 	-0.00136 0.44014 0.55249 0.00000
C 	C 	-0.00068 0.49103 0.52391 -0.00700
C 	C 	-0.00190 0.59182 0.46716 -0.04100
C 	C 	-0.00153 0.59120 0.52443 -0.04100
C 	C 	-0.00061 0.54128 0.55363 -0.00000
C 	C 	-0.00018 0.54029 0.61186 0.00100
C 	C 	-0.00125 0.48976 0.63947 -0.05800
C 	C 	-0.00208 0.43987 0.61068 0.00100
H 	H 	-0.00249 0.35237 0.44369 0.03900
H 	H 	-0.00345 0.35127 0.54247 0.03900
H 	H 	-0.00287 0.63143 0.44685 0.03900
H 	H 	-0.00226 0.63035 0.54563 0.03900
H 	H 	-0.00099 0.49347 0.30523 0.04400
H 	H 	-0.00153 0.48922 0.68410 0.04400
O 	O 	-0.14075 0.99286 -0.08023 -0.63900
O 	O 	0.14345 0.98795 -0.08027 -0.63900
O 	O 	-0.00010 1.06459 -0.14763 -0.63500
O 	O 	0.00250 0.91464 -0.14593 -0.63600
O 	O 	0.00234 0.84939 -0.07727 -0.64400
O 	O 	-0.00041 1.13137 -0.08043 -0.64500
O 	O 	0.07548 0.98680 -0.14656 -0.64700
O 	O 	-0.07281 0.99230 -0.14654 -0.64700
Zr	Zr	0.00134 0.99011 -0.10195 3.23700
O 	O 	0.05142 0.94088 -0.05448 -1.27600
O 	O 	-0.04866 1.04040 -0.05553 -1.27600
C 	C 	-0.12390 0.99361 -0.13107 0.48200
C 	C 	0.12657 0.98591 -0.13107 0.48200
C 	C 	-0.00134 1.11558 -0.13135 0.48000
C 	C 	0.00300 0.86401 -0.12857 0.47900
H 	H 	0.07491 1.06312 -0.07926 0.32200
O 	O 	0.05157 1.03984 -0.05543 -1.51000
H 	H 	-0.07243 0.91767 -0.07737 0.32200
O 	O 	-0.04894 0.94152 -0.05425 -1.51000
O 	O 	0.14348 0.99327 0.07017 -0.63800
O 	O 	-0.14069 0.99100 0.07037 -0.63700
O 	O 	0.07568 1.13201 -0.00511 -0.64400
O 	O 	0.07459 0.84997 -0.00516 -0.64300
O 	O 	-0.07293 0.85061 -0.00112 -0.64400
O 	O 	-0.07194 1.13252 -0.00891 -0.64200
O 	O 	0.00343 1.06793 0.13562 -0.63500
O 	O 	-0.00103 0.91798 0.13732 -0.63400
O 	O 	0.00350 1.13318 0.06697 -0.64400
O 	O 	-0.00171 0.85117 0.07014 -0.64400
O 	O 	0.14372 1.06599 -0.00421 -0.64000
O 	O 	-0.14042 1.06693 -0.00763 -0.63900
O 	O 	-0.14100 0.91660 -0.00205 -0.64000
O 	O 	0.14315 0.91546 -0.00589 -0.63800
O 	O 	0.07547 0.99414 0.13637 -0.64900
O 	O 	-0.07257 0.99167 0.13647 -0.64700
Zr	Zr	0.09913 0.99091 -0.00508 3.23600
Zr	Zr	-0.09641 0.99161 -0.00500 3.23700
Zr	Zr	0.00173 1.08706 -0.00622 3.23900
Zr	Zr	0.00097 0.89550 -0.00405 3.23900
Zr	Zr	0.00143 0.99244 0.09170 3.23800
O 	O 	-0.04900 0.94248 0.04542 -1.27700
O 	O 	0.05189 1.04136 0.04430 -1.27600
C 	C 	0.12658 0.99440 0.12100 0.48200
C 	C 	-0.12371 0.99098 0.12120 0.48100
C 	C 	0.12682 1.11680 -0.00414 0.48100
C 	C 	0.12586 0.86478 -0.00600 0.48000
C 	C 	-0.12404 0.86586 -0.00014 0.48100
C 	C 	-0.12318 1.11758 -0.00944 0.48000
C 	C 	0.00414 1.11857 0.11826 0.47900
C 	C 	-0.00278 0.86702 0.12104 0.48000
H 	H 	-0.07162 1.06550 0.06715 0.32300
O 	O 	-0.04843 1.04140 0.04401 -1.51100
H 	H 	0.07420 0.91868 0.06894 0.32200
O 	O 	0.05116 0.94229 0.04514 -1.51100
C 	C 	0.28537 0.99251 0.29836 -0.03300
C 	C 	0.29088 0.94342 0.32820 -0.06200
C 	C 	0.32413 0.94058 0.37523 0.04300
C 	C 	0.35194 0.98836 0.39330 -0.01100
C 	C 	0.34696 1.03735 0.36314 -0.07400
C 	C 	0.31400 1.03999 0.31574 0.05500
C 	C 	0.24570 0.99402 0.25223 0.04900
C 	C 	0.18954 0.98831 0.26345 -0.08900
C 	C 	0.15121 0.98889 0.22082 0.04900
C 	C 	0.16821 0.99479 0.16572 -0.14200
C 	C 	0.22477 1.00031 0.15450 0.04800
C 	C 	0.26324 0.99994 0.19751 -0.08800
C 	C 	0.32858 0.88608 0.40451 -0.18200
H 	H 	0.36827 1.07385 0.37738 0.04600
H 	H 	0.10814 0.98425 0.23124 0.03400
H 	H 	0.23929 1.00483 0.11263 0.03300
C 	C 	0.30800 1.09391 0.28576 -0.18700
H 	H 	0.17536 0.98352 0.30545 0.05000
H 	H 	0.26864 0.90709 0.31489 0.04300
H 	H 	0.30663 1.00376 0.18814 0.04800
H 	H 	0.34266 0.85409 0.37508 0.06100
H 	H 	0.28759 0.87415 0.42078 0.06100
H 	H 	0.35817 0.88675 0.43919 0.06600
H 	H 	0.33118 1.12743 0.30645 0.06200
H 	H 	0.26397 1.10598 0.28424 0.06800
H 	H 	0.32407 1.08991 0.24323 0.06500
C 	C 	-0.28204 0.99556 0.29899 -0.03200
C 	C 	-0.30784 0.94651 0.31495 -0.06200
C 	C 	-0.34103 0.94427 0.36216 0.04400
C 	C 	-0.34919 0.99262 0.39356 -0.01100
C 	C 	-0.32456 1.04198 0.37671 -0.07300
C 	C 	-0.29104 1.04406 0.32975 0.05400
C 	C 	-0.24247 0.99421 0.25280 0.04900
C 	C 	-0.26027 0.98788 0.19823 -0.08800
C 	C 	-0.22195 0.98677 0.15507 0.04700
C 	C 	-0.16525 0.99139 0.16606 -0.14100
C 	C 	-0.14797 0.99690 0.22112 0.04800
C 	C 	-0.18613 0.99821 0.26389 -0.08900
C 	C 	-0.36554 0.88953 0.37793 -0.18300
H 	H 	-0.33127 1.07893 0.40080 0.04500
H 	H 	-0.23668 0.98225 0.11327 0.03300
H 	H 	-0.10478 1.00050 0.23145 0.03500
C 	C 	-0.26563 1.09802 0.31284 -0.18600
H 	H 	-0.30374 0.98428 0.18912 0.04900
H 	H 	-0.30059 0.90930 0.29141 0.04400
H 	H 	-0.17170 1.00232 0.30586 0.04900
H 	H 	-0.33213 0.85883 0.38326 0.06300
H 	H 	-0.39353 0.87530 0.34475 0.06200
H 	H 	-0.38926 0.89109 0.41683 0.06800
H 	H 	-0.27964 1.13239 0.33950 0.06100
H 	H 	-0.27741 1.10779 0.26979 0.06600
H 	H 	-0.22016 1.09557 0.31585 0.06500
C 	C 	-0.28272 0.99569 -0.30843 -0.03200
C 	C 	-0.29046 1.04447 -0.33829 -0.06200
C 	C 	-0.32380 1.04577 -0.38535 0.04400
C 	C 	-0.34948 0.99679 -0.40336 -0.01100
C 	C 	-0.34225 0.94809 -0.37323 -0.07400
C 	C 	-0.30913 0.94693 -0.32589 0.05500
C 	C 	-0.24313 0.99596 -0.26217 0.04900
C 	C 	-0.26038 0.98757 -0.20768 -0.08800
C 	C 	-0.22194 0.98732 -0.16468 0.04700
C 	C 	-0.16564 0.99541 -0.17562 -0.14100
C 	C 	-0.14897 1.00464 -0.23035 0.05000
C 	C 	-0.18731 1.00506 -0.27302 -0.08800
C 	C 	-0.33054 1.09994 -0.41480 -0.18200
H 	H 	-0.36191 0.91067 -0.38747 0.04600
H 	H 	-0.23621 0.98026 -0.12306 0.03200
H 	H 	-0.10611 1.01151 -0.24044 0.03600
C 	C 	-0.30052 0.89322 -0.29615 -0.18600
H 	H 	-0.30353 0.98128 -0.19851 0.04800
H 	H 	-0.26991 1.08178 -0.32500 0.04400
H 	H 	-0.17333 1.01191 -0.31480 0.05000
H 	H 	-0.29000 1.11379 -0.43067 0.06200
H 	H 	-0.34645 1.13126 -0.38559 0.06200
H 	H 	-0.35965 1.09777 -0.44983 0.06700
H 	H 	-0.31709 0.89610 -0.25372 0.06400
H 	H 	-0.25592 0.88345 -0.29437 0.06700
H 	H 	-0.32174 0.85865 -0.31718 0.06200
C 	C 	0.28549 0.97996 -0.30833 -0.03200
C 	C 	0.31019 1.03003 -0.32312 -0.06200
C 	C 	0.34290 1.03444 -0.37051 0.04300
C 	C 	0.35165 0.98734 -0.40354 -0.01100
C 	C 	0.32802 0.93705 -0.38812 -0.07400
C 	C 	0.29546 0.93258 -0.34071 0.05500
C 	C 	0.24586 0.97972 -0.26202 0.04800
C 	C 	0.19035 0.96798 -0.27217 -0.08900
C 	C 	0.15204 0.96947 -0.22948 0.04900
C 	C 	0.16832 0.98295 -0.17554 -0.14100
C 	C 	0.22414 0.99452 -0.16537 0.04700
C 	C 	0.26254 0.99331 -0.20841 -0.08800
C 	C 	0.36628 1.09010 -0.38471 -0.18200
H 	H 	0.33521 0.90091 -0.41329 0.04500
H 	H 	0.10950 0.96012 -0.23891 0.03500
H 	H 	0.23799 1.00532 -0.12442 0.03200
C 	C 	0.27302 0.87662 -0.32614 -0.18900
H 	H 	0.17663 0.95805 -0.31340 0.05000
H 	H 	0.30234 1.06643 -0.29853 0.04300
H 	H 	0.30522 1.00294 -0.19997 0.05000
H 	H 	0.39429 1.10377 -0.35131 0.06200
H 	H 	0.33227 1.12033 -0.38878 0.06200
H 	H 	0.38969 1.09021 -0.42382 0.06800
H 	H 	0.24237 0.86383 -0.35750 0.06300
H 	H 	0.25332 0.87553 -0.28503 0.07000
H 	H 	0.30709 0.84617 -0.32553 0.06300
C 	C 	0.28577 1.29431 -0.00572 -0.03200
C 	C 	0.28979 1.32588 -0.05388 -0.06200
C 	C 	0.32316 1.37288 -0.05618 0.04300
C 	C 	0.35266 1.38918 -0.00877 -0.01100
C 	C 	0.34920 1.35727 0.03924 -0.07400
C 	C 	0.31610 1.30993 0.04135 0.05500
C 	C 	0.24604 1.24814 -0.00454 0.04900
C 	C 	0.26362 1.19328 -0.00015 -0.08800
C 	C 	0.22513 1.15028 0.00019 0.04700
C 	C 	0.16846 1.16157 -0.00393 -0.14100
C 	C 	0.15139 1.21680 -0.00841 0.04800
C 	C 	0.18975 1.25945 -0.00889 -0.08800
C 	C 	0.32590 1.40407 -0.10973 -0.18200
H 	H 	0.37175 1.37016 0.07550 0.04600
H 	H 	0.23975 1.10833 0.00355 0.03200
H 	H 	0.10824 1.22731 -0.01184 0.03500
C 	C 	0.31171 1.27821 0.09442 -0.18700
H 	H 	0.30707 1.18379 0.00253 0.04800
H 	H 	0.26631 1.31393 -0.08990 0.04300
H 	H 	0.17548 1.30153 -0.01249 0.05000
H 	H 	0.28464 1.42101 -0.11961 0.06200
H 	H 	0.33863 1.37572 -0.14322 0.06100
H 	H 	0.35577 1.43851 -0.10887 0.06600
H 	H 	0.32767 1.23585 0.08859 0.06500
H 	H 	0.26805 1.27626 0.10775 0.06900
H 	H 	0.33586 1.29783 0.12789 0.06200
C 	C 	0.28361 0.68629 -0.00144 -0.03200
C 	C 	0.31160 0.67190 -0.04978 -0.06100
C 	C 	0.34527 0.62501 -0.05193 0.04200
C 	C 	0.35172 0.59233 -0.00417 -0.01100
C 	C 	0.32488 0.60759 0.04455 -0.07400
C 	C 	0.29087 0.65423 0.04652 0.05500
C 	C 	0.24408 0.73256 -0.00304 0.04900
C 	C 	0.18759 0.72158 -0.00109 -0.08800
C 	C 	0.14957 0.76452 -0.00242 0.04800
C 	C 	0.16716 0.81966 -0.00591 -0.14000
C 	C 	0.22401 0.83053 -0.00867 0.04700
C 	C 	0.26217 0.78722 -0.00750 -0.08700
C 	C 	0.37209 0.61091 -0.10605 -0.18200
H 	H 	0.33023 0.58252 0.08106 0.04600
H 	H 	0.10626 0.75429 -0.00043 0.03600
H 	H 	0.23901 0.87237 -0.01160 0.03400
C 	C 	0.26315 0.66945 0.09985 -0.18700
H 	H 	0.17293 0.67957 0.00149 0.04900
H 	H 	0.30576 0.69644 -0.08658 0.04400
H 	H 	0.30574 0.79629 -0.00954 0.05000
H 	H 	0.40039 0.64464 -0.11821 0.06100
H 	H 	0.33998 0.60623 -0.13821 0.06100
H 	H 	0.39600 0.57212 -0.10463 0.06600
H 	H 	0.21785 0.66612 0.09548 0.06600
H 	H 	0.27412 0.71231 0.11124 0.06700
H 	H 	0.27603 0.64198 0.13403 0.06200
C 	C 	-0.28203 0.68785 0.00611 -0.03300
C 	C 	-0.30675 0.67283 -0.04382 -0.06100
C 	C 	-0.34001 0.62580 -0.04770 0.04200
C 	C 	-0.34927 0.59351 -0.00019 -0.01100
C 	C 	-0.32590 0.60942 0.05008 -0.07400
C 	C 	-0.29238 0.65631 0.05386 0.05500
C 	C 	-0.24263 0.73427 0.00640 0.04900
C 	C 	-0.26021 0.78840 -0.00341 -0.08800
C 	C 	-0.22201 0.83163 -0.00485 0.04700
C 	C 	-0.16557 0.82114 0.00281 -0.14100
C 	C 	-0.14845 0.76662 0.01251 0.04900
C 	C 	-0.18653 0.72376 0.01409 -0.08900
C 	C 	-0.36347 0.61118 -0.10322 -0.18100
H 	H 	-0.33356 0.58467 0.08639 0.04600
H 	H 	-0.23656 0.87301 -0.01265 0.03100
H 	H 	-0.10543 0.75679 0.01864 0.03400
C 	C 	-0.26870 0.67240 0.10886 -0.18700
H 	H 	-0.30342 0.79708 -0.00999 0.04900
H 	H 	-0.29863 0.69702 -0.08043 0.04200
H 	H 	-0.17211 0.68209 0.02066 0.04800
H 	H 	-0.32942 0.60578 -0.13320 0.06000
H 	H 	-0.39062 0.64497 -0.11761 0.06100
H 	H 	-0.38785 0.57266 -0.10279 0.06500
H 	H 	-0.28030 0.71549 0.11865 0.06700
H 	H 	-0.22323 0.66880 0.10810 0.06500
H 	H 	-0.28429 0.64561 0.14244 0.06100
C 	C 	-0.28105 1.29600 -0.01013 -0.03200
C 	C 	-0.28777 1.32744 -0.05808 -0.06200
C 	C 	-0.32127 1.37441 -0.05864 0.04300
C 	C 	-0.34828 1.39068 -0.00976 -0.01100
C 	C 	-0.34202 1.35904 0.03810 -0.07400
C 	C 	-0.30864 1.31185 0.03856 0.05400
C 	C 	-0.24163 1.24952 -0.01108 0.04900
C 	C 	-0.18565 1.26017 -0.01956 -0.08800
C 	C 	-0.14755 1.21724 -0.01953 0.04900
C 	C 	-0.16462 1.16247 -0.01129 -0.14000
C 	C 	-0.22106 1.15176 -0.00395 0.04700
C 	C 	-0.25925 1.19498 -0.00388 -0.08800
C 	C 	-0.32680 1.40564 -0.11195 -0.18200
H 	H 	-0.36263 1.37199 0.07548 0.04600
H 	H 	-0.10456 1.22719 -0.02577 0.03500
H 	H 	-0.23567 1.11014 0.00229 0.03300
C 	C 	-0.30101 1.28061 0.09156 -0.18600
H 	H 	-0.17137 1.30197 -0.02553 0.04900
H 	H 	-0.26633 1.31541 -0.09532 0.04400
H 	H 	-0.30251 1.18592 0.00178 0.04800
H 	H 	-0.34192 1.37747 -0.14458 0.06200
H 	H 	-0.28598 1.42201 -0.12431 0.06100
H 	H 	-0.35601 1.44056 -0.10930 0.06500
H 	H 	-0.32279 1.30073 0.12634 0.06100
H 	H 	-0.25660 1.27847 0.10206 0.06600
H 	H 	-0.31763 1.23833 0.08727 0.06400
C 	C 	-0.00067 1.29743 0.27564 -0.03200
C 	C 	0.04743 1.31235 0.30376 -0.06200
C 	C 	0.04898 1.35924 0.33748 0.04300
C 	C 	0.00082 1.39138 0.34389 -0.01100
C 	C 	-0.04762 1.37564 0.31677 -0.07400
C 	C 	-0.04896 1.32903 0.28269 0.05400
C 	C 	0.00144 1.25108 0.23620 0.04900
C 	C 	0.00512 1.19642 0.25444 -0.08800
C 	C 	0.00633 1.15302 0.21638 0.04600
C 	C 	0.00439 1.16379 0.15947 -0.13900
C 	C 	0.00176 1.21894 0.14174 0.04700
C 	C 	0.00036 1.26197 0.17967 -0.08800
C 	C 	0.10287 1.37391 0.36443 -0.18200
H 	H 	-0.08443 1.40028 0.32204 0.04600
H 	H 	0.00856 1.11117 0.23149 0.03300
H 	H 	0.00038 1.22909 0.09838 0.03500
C 	C 	-0.10197 1.31334 0.25464 -0.18600
H 	H 	0.00641 1.18741 0.29806 0.04900
H 	H 	0.08450 1.28819 0.29803 0.04400
H 	H 	-0.00174 1.30398 0.16491 0.04900
H 	H 	0.13511 1.37873 0.33242 0.06200
H 	H 	0.11522 1.34041 0.39292 0.06200
H 	H 	0.10103 1.41280 0.38815 0.06700
H 	H 	-0.11315 1.27044 0.26566 0.06600
H 	H 	-0.09728 1.31655 0.20935 0.06500
H 	H 	-0.13644 1.34062 0.26716 0.06100
C 	C 	-0.00351 1.29262 -0.29084 -0.03200
C 	C 	-0.05203 1.32309 -0.29787 -0.06200
C 	C 	-0.05318 1.37042 -0.33085 0.04400
C 	C 	-0.00431 1.38811 -0.35698 -0.01100
C 	C 	0.04410 1.35732 -0.35058 -0.07400
C 	C 	0.04513 1.30972 -0.31776 0.05400
C 	C 	-0.00378 1.24633 -0.25117 0.04900
C 	C 	0.00435 1.19173 -0.26828 -0.08700
C 	C 	0.00459 1.14879 -0.22969 0.04600
C 	C 	-0.00326 1.15992 -0.17339 -0.14000
C 	C 	-0.01231 1.21475 -0.15689 0.04900
C 	C 	-0.01270 1.25731 -0.19535 -0.08800
C 	C 	-0.10709 1.40053 -0.33669 -0.18200
H 	H 	0.08145 1.37128 -0.37057 0.04500
H 	H 	0.01144 1.10710 -0.24383 0.03200
H 	H 	-0.01902 1.22502 -0.11406 0.03600
C 	C 	0.09861 1.27937 -0.30995 -0.18600
H 	H 	0.01043 1.18240 -0.31141 0.04800
H 	H 	-0.08924 1.31012 -0.27693 0.04400
H 	H 	-0.01938 1.29914 -0.18144 0.05000
H 	H 	-0.12023 1.41629 -0.29588 0.06100
H 	H 	-0.13895 1.37178 -0.35238 0.06200
H 	H 	-0.10490 1.43571 -0.36561 0.06700
H 	H 	0.09512 1.23710 -0.32679 0.06500
H 	H 	0.10886 1.27719 -0.26548 0.06700
H 	H 	0.13316 1.30019 -0.33142 0.06100
C 	C 	-0.00150 0.68516 -0.28607 -0.03200
C 	C 	0.04668 0.67053 -0.31423 -0.06200
C 	C 	0.04847 0.62371 -0.34804 0.04300
C 	C 	0.00049 0.59132 -0.35451 -0.01100
C 	C 	-0.04804 0.60679 -0.32740 -0.07300
C 	C 	-0.04964 0.65335 -0.29326 0.05400
C 	C 	0.00037 0.73150 -0.24657 0.04900
C 	C 	0.00518 0.78612 -0.26472 -0.08800
C 	C 	0.00630 0.82951 -0.22664 0.04600
C 	C 	0.00312 0.81878 -0.16978 -0.13900
C 	C 	-0.00062 0.76369 -0.15211 0.04800
C 	C 	-0.00189 0.72067 -0.19006 -0.08800
C 	C 	0.10244 0.60938 -0.37503 -0.18200
H 	H 	-0.08472 0.58198 -0.33274 0.04500
H 	H 	0.00950 0.87131 -0.24171 0.03300
H 	H 	-0.00293 0.75357 -0.10878 0.03500
C 	C 	-0.10284 0.66880 -0.26540 -0.18600
H 	H 	0.00747 0.79511 -0.30831 0.04900
H 	H 	0.08363 0.69487 -0.30845 0.04300
H 	H 	-0.00474 0.67870 -0.17532 0.04900
H 	H 	0.13471 0.60468 -0.34304 0.06200
H 	H 	0.11460 0.64302 -0.40345 0.06100
H 	H 	0.10080 0.57054 -0.39883 0.06700
H 	H 	-0.13720 0.64158 -0.27831 0.06100
H 	H 	-0.11400 0.71177 -0.27622 0.06700
H 	H 	-0.09843 0.66529 -0.22012 0.06600
C 	C 	-0.00983 0.69030 0.28067 -0.03200
C 	C 	0.03988 0.67567 0.30618 -0.06100
C 	C 	0.04404 0.62806 0.33864 0.04200
C 	C 	-0.00295 0.59459 0.34624 -0.01000
C 	C 	-0.05294 0.60992 0.32193 -0.07400
C 	C 	-0.05718 0.65757 0.28967 0.05500
C 	C 	-0.00961 0.73656 0.24092 0.04800
C 	C 	-0.02089 0.72622 0.18535 -0.08900
C 	C 	-0.01913 0.76876 0.14691 0.04900
C 	C 	-0.00580 0.82278 0.16305 -0.14000
C 	C 	0.00539 0.83318 0.21891 0.04700
C 	C 	0.00390 0.79025 0.25748 -0.08700
C 	C 	0.09937 0.61406 0.36290 -0.18100
H 	H 	-0.08904 0.58446 0.32830 0.04600
H 	H 	-0.02819 0.75912 0.10436 0.03500
H 	H 	0.01607 0.87420 0.23264 0.03100
C 	C 	-0.11286 0.67197 0.26642 -0.18900
H 	H 	-0.03071 0.68494 0.17168 0.04900
H 	H 	0.07627 0.70051 0.29910 0.04200
H 	H 	0.01319 0.79886 0.30020 0.04900
H 	H 	0.11232 0.64735 0.39137 0.06100
H 	H 	0.13022 0.61041 0.32940 0.06100
H 	H 	0.09932 0.57479 0.38606 0.06600
H 	H 	-0.12484 0.64091 0.23514 0.06200
H 	H 	-0.11393 0.71333 0.24726 0.07000
H 	H 	-0.14392 0.67190 0.29994 0.06300
