data_crystal

_cell_length_a 27.92930
_cell_length_b 27.92930
_cell_length_c 27.92930
_cell_angle_alpha 90.00000
_cell_angle_beta  90.00000
_cell_angle_gamma 90.00000

_symmetry_space_group_name_	'P 1'
_symmetry_space_group_name_H-M	'P 1'

loop_
_symmetry_equiv_pos_as_xyz
  x,y,z

loop_
_atom_site_label
_atom_site_type_symbol
_atom_site_fract_x
_atom_site_fract_y
_atom_site_fract_z
_atom_site_charge
C 	C 	0.54334 1.00484 -0.39894 -0.00900
C 	C 	0.49952 1.00315 -0.37461 -0.04800
C 	C 	0.45589 1.00241 -0.39923 -0.00900
C 	C 	0.45576 1.00290 -0.44995 0.00600
C 	C 	0.49985 1.00461 -0.47528 -0.00600
C 	C 	0.54381 1.00557 -0.44970 0.00700
C 	C 	0.58701 1.00612 -0.47556 -0.04000
C 	C 	0.58718 1.00594 -0.52547 -0.04000
C 	C 	0.54415 1.00535 -0.55161 0.00700
C 	C 	0.49999 1.00473 -0.52631 -0.00600
C 	C 	0.41276 1.00111 -0.47596 -0.04000
C 	C 	0.41287 1.00101 -0.52586 -0.04000
C 	C 	0.45598 1.00338 -0.55186 0.00700
C 	C 	0.45641 1.00305 -0.60270 -0.00700
C 	C 	0.50039 1.00286 -0.62691 -0.04700
C 	C 	0.54408 1.00415 -0.60235 -0.00700
H 	H 	0.62124 1.00617 -0.45740 0.04200
H 	H 	0.62152 1.00584 -0.54341 0.04200
H 	H 	0.37852 0.99925 -0.45788 0.04200
H 	H 	0.37866 0.99839 -0.54379 0.04200
H 	H 	0.49935 1.00270 -0.33577 0.04500
H 	H 	0.50066 1.00241 -0.66575 0.04400
C 	C 	-0.45703 1.60715 -0.00236 -0.00700
C 	C 	-0.50085 1.63149 -0.00233 -0.04700
C 	C 	-0.54460 1.60705 -0.00321 -0.00700
C 	C 	-0.54483 1.55630 -0.00323 0.00700
C 	C 	-0.50075 1.53090 -0.00271 -0.00600
C 	C 	-0.45670 1.55637 -0.00256 0.00700
C 	C 	-0.41360 1.53038 -0.00172 -0.04000
C 	C 	-0.41356 1.48055 -0.00206 -0.04000
C 	C 	-0.45663 1.45449 -0.00163 0.00700
C 	C 	-0.50071 1.47989 -0.00190 -0.00600
C 	C 	-0.58790 1.53026 -0.00287 -0.04000
C 	C 	-0.58786 1.48042 -0.00278 -0.04000
C 	C 	-0.54476 1.45443 -0.00177 0.00700
C 	C 	-0.54446 1.40367 -0.00157 -0.00700
C 	C 	-0.50064 1.37931 -0.00208 -0.04700
C 	C 	-0.45687 1.40372 -0.00183 -0.00700
H 	H 	-0.37928 1.54824 -0.00074 0.04200
H 	H 	-0.37920 1.46273 -0.00267 0.04200
H 	H 	-0.62225 1.54811 -0.00253 0.04200
H 	H 	-0.62218 1.46253 -0.00368 0.04200
H 	H 	-0.50090 1.67034 -0.00235 0.04400
H 	H 	-0.50061 1.34046 -0.00192 0.04400
C 	C 	0.00139 0.40355 0.45466 -0.00700
C 	C 	0.00150 0.37925 0.49850 -0.04700
C 	C 	0.00106 0.40370 0.54227 -0.00700
C 	C 	0.00104 0.45447 0.54244 0.00700
C 	C 	0.00045 0.47983 0.49834 -0.00600
C 	C 	0.00099 0.45433 0.45431 0.00700
C 	C 	0.00288 0.48029 0.41123 -0.04000
C 	C 	0.00274 0.53013 0.41115 -0.04000
C 	C 	0.00085 0.55621 0.45416 0.00700
C 	C 	0.00051 0.53085 0.49827 -0.00600
C 	C 	0.00341 0.48055 0.58543 -0.04000
C 	C 	0.00367 0.53039 0.58535 -0.04000
C 	C 	0.00142 0.55636 0.54229 0.00700
C 	C 	0.00186 0.60713 0.54195 -0.00700
C 	C 	0.00181 0.63143 0.49809 -0.04700
C 	C 	0.00108 0.60697 0.45434 -0.00700
H 	H 	0.00524 0.46238 0.37699 0.04200
H 	H 	0.00498 0.54796 0.37686 0.04200
H 	H 	0.00597 0.46272 0.61970 0.04200
H 	H 	0.00641 0.54829 0.61957 0.04200
H 	H 	0.00138 0.34040 0.49855 0.04400
H 	H 	0.00179 0.67028 0.49802 0.04400
O 	O 	-0.12216 1.00611 -0.06370 -0.60400
O 	O 	0.12063 1.00397 -0.06483 -0.60300
O 	O 	-0.00232 1.06780 -0.12305 -0.60900
O 	O 	0.00104 0.94269 -0.12294 -0.60700
O 	O 	0.00074 0.88383 -0.06458 -0.60600
O 	O 	-0.00287 1.12670 -0.06476 -0.60500
O 	O 	0.06187 1.00346 -0.12337 -0.60100
O 	O 	-0.06387 1.00754 -0.12273 -0.60100
Zr	Zr	-0.00081 1.00533 -0.08008 3.20500
O 	O 	0.04690 0.95770 -0.04948 -1.35800
O 	O 	-0.04840 1.05289 -0.04909 -1.35600
C 	C 	-0.10848 1.00758 -0.10844 0.45500
C 	C 	0.10659 1.00286 -0.10946 0.45400
C 	C 	-0.00340 1.11261 -0.10951 0.45400
C 	C 	0.00179 0.89787 -0.10932 0.45400
H 	H 	0.06680 1.07311 -0.06965 0.42100
O 	O 	0.04633 1.05263 -0.04906 -1.67500
H 	H 	-0.06826 0.93756 -0.06919 0.42100
O 	O 	-0.04774 0.95806 -0.04868 -1.67600
O 	O 	0.12107 1.00707 0.06019 -0.60700
O 	O 	-0.12150 1.00282 0.06159 -0.60200
O 	O 	0.06233 1.12681 -0.00006 -0.60500
O 	O 	0.06253 0.88399 -0.00391 -0.60500
O 	O 	-0.06342 0.88382 0.00004 -0.60600
O 	O 	-0.06372 1.12663 -0.00301 -0.60600
O 	O 	0.00202 1.06807 0.11951 -0.60900
O 	O 	-0.00132 0.94295 0.11969 -0.60900
O 	O 	0.00088 1.12689 0.06115 -0.60600
O 	O 	-0.00213 0.88401 0.06142 -0.60500
O 	O 	0.12062 1.06795 -0.00072 -0.60800
O 	O 	-0.12184 1.06762 -0.00271 -0.60800
O 	O 	-0.12167 0.94265 0.00036 -0.60900
O 	O 	0.12075 0.94296 -0.00366 -0.60700
O 	O 	0.06313 1.00721 0.11931 -0.60300
O 	O 	-0.06272 1.00451 0.12011 -0.60100
Zr	Zr	0.07771 1.00543 -0.00207 3.20500
Zr	Zr	-0.07878 1.00513 -0.00132 3.20500
Zr	Zr	-0.00067 1.08392 -0.00172 3.20500
Zr	Zr	-0.00048 0.92675 -0.00167 3.20500
Zr	Zr	-0.00009 1.00545 0.07670 3.20500
O 	O 	-0.04779 0.95763 0.04623 -1.35700
O 	O 	0.04724 1.05312 0.04565 -1.35600
C 	C 	0.10783 1.00792 0.10510 0.45300
C 	C 	-0.10745 1.00290 0.10626 0.45300
C 	C 	0.10709 1.11276 0.00038 0.45500
C 	C 	0.10725 0.89813 -0.00463 0.45500
C 	C 	-0.10817 0.89781 0.00089 0.45400
C 	C 	-0.10846 1.11250 -0.00350 0.45400
C 	C 	0.00232 1.11288 0.10589 0.45500
C 	C 	-0.00243 0.89812 0.10616 0.45500
H 	H 	-0.06797 1.07292 0.06625 0.42100
O 	O 	-0.04750 1.05247 0.04565 -1.67500
H 	H 	0.06749 0.93773 0.06567 0.42200
O 	O 	0.04685 0.95819 0.04525 -1.67500
C 	C 	0.33111 1.00510 0.30727 0.01600
C 	C 	0.36378 0.96712 0.30451 -0.04200
C 	C 	0.40395 0.96608 0.33447 -0.04100
C 	C 	0.41196 1.00293 0.36779 0.01200
C 	C 	0.37911 1.04101 0.37040 -0.04200
C 	C 	0.33881 1.04195 0.34047 -0.04100
C 	C 	0.29082 1.00686 0.27478 -0.01000
C 	C 	0.25797 1.00791 0.24654 -0.02900
C 	C 	0.21991 1.00865 0.21144 0.05100
C 	C 	0.23106 1.00471 0.16276 -0.08100
C 	C 	0.19467 1.00477 0.12835 0.04200
C 	C 	0.14626 1.00869 0.14200 -0.12000
C 	C 	0.13532 1.01280 0.19108 0.04200
C 	C 	0.17191 1.01281 0.22551 -0.08100
H 	H 	0.35851 0.93858 0.27877 0.04100
H 	H 	0.42907 0.93669 0.33142 0.04000
H 	H 	0.38504 1.07024 0.39518 0.04100
H 	H 	0.31405 1.07171 0.34279 0.04100
H 	H 	0.26798 1.00138 0.15133 0.05300
H 	H 	0.20458 1.00139 0.09102 0.04300
H 	H 	0.09853 1.01598 0.20291 0.04100
H 	H 	0.16274 1.01590 0.26307 0.05300
C 	C 	-0.33079 1.00358 0.30755 0.01600
C 	C 	-0.35857 0.96211 0.31281 -0.04100
C 	C 	-0.39866 0.96211 0.34295 -0.04100
C 	C 	-0.41130 1.00348 0.36859 0.01200
C 	C 	-0.38313 1.04488 0.36369 -0.04200
C 	C 	-0.34310 1.04491 0.33333 -0.04100
C 	C 	-0.29070 1.00389 0.27464 -0.01000
C 	C 	-0.25773 1.00366 0.24646 -0.02900
C 	C 	-0.21888 1.00295 0.21210 0.05200
C 	C 	-0.21325 0.96373 0.18122 -0.08100
C 	C 	-0.17673 0.96361 0.14679 0.05000
C 	C 	-0.14488 1.00233 0.14344 -0.12100
C 	C 	-0.15010 1.04126 0.17481 0.04400
C 	C 	-0.18716 1.04175 0.20870 -0.08000
H 	H 	-0.34962 0.92993 0.29309 0.04100
H 	H 	-0.42016 0.92998 0.34599 0.04000
H 	H 	-0.39270 1.07731 0.38267 0.04100
H 	H 	-0.32216 1.07734 0.32945 0.04100
H 	H 	-0.23730 0.93339 0.18353 0.05400
H 	H 	-0.17308 0.93320 0.12298 0.03900
H 	H 	-0.12626 1.07176 0.17222 0.02600
H 	H 	-0.19132 1.07253 0.23193 0.05300
C 	C 	-0.33168 1.00737 -0.30907 0.01600
C 	C 	-0.35889 0.96545 -0.31355 -0.04100
C 	C 	-0.39904 0.96445 -0.34353 -0.04100
C 	C 	-0.41225 1.00527 -0.36971 0.01200
C 	C 	-0.38467 1.04713 -0.36556 -0.04200
C 	C 	-0.34458 1.04817 -0.33537 -0.04100
C 	C 	-0.29155 1.00869 -0.27638 -0.01000
C 	C 	-0.25858 1.00905 -0.24829 -0.02900
C 	C 	-0.21988 1.00859 -0.21391 0.05300
C 	C 	-0.21320 0.96856 -0.18439 -0.08100
C 	C 	-0.17677 0.96834 -0.14997 0.04600
C 	C 	-0.14614 1.00786 -0.14523 -0.12300
C 	C 	-0.15237 1.04770 -0.17522 0.05100
C 	C 	-0.18936 1.04821 -0.20917 -0.08100
H 	H 	-0.34941 0.93369 -0.29339 0.04100
H 	H 	-0.42008 0.93197 -0.34608 0.04100
H 	H 	-0.39471 1.07911 -0.38505 0.04100
H 	H 	-0.32405 1.08091 -0.33205 0.04100
H 	H 	-0.23632 0.93760 -0.18780 0.05300
H 	H 	-0.17217 0.93720 -0.12728 0.02500
H 	H 	-0.12930 1.07867 -0.17163 0.03900
H 	H 	-0.19436 1.07957 -0.23145 0.05500
C 	C 	0.33055 1.00027 -0.30977 0.01500
C 	C 	0.35139 0.95722 -0.32512 -0.04100
C 	C 	0.39158 0.95785 -0.35521 -0.04200
C 	C 	0.41127 1.00155 -0.37037 0.01100
C 	C 	0.39003 1.04457 -0.35543 -0.04100
C 	C 	0.34988 1.04393 -0.32533 -0.04100
C 	C 	0.29040 0.99981 -0.27694 -0.01000
C 	C 	0.25729 0.99990 -0.24894 -0.02900
C 	C 	0.21820 1.00060 -0.21487 0.05300
C 	C 	0.19528 0.95795 -0.20142 -0.08200
C 	C 	0.15823 0.95870 -0.16751 0.05000
C 	C 	0.14398 1.00208 -0.14655 -0.12300
C 	C 	0.16680 1.04471 -0.16013 0.04600
C 	C 	0.20360 1.04399 -0.19423 -0.08100
H 	H 	0.33698 0.92320 -0.31330 0.04100
H 	H 	0.40779 0.92435 -0.36612 0.04100
H 	H 	0.40505 1.07858 -0.36648 0.04100
H 	H 	0.33433 1.07749 -0.31366 0.04100
H 	H 	0.20630 0.92410 -0.21683 0.05400
H 	H 	0.14116 0.92545 -0.15711 0.03600
H 	H 	0.15622 1.07846 -0.14420 0.02000
H 	H 	0.22092 1.07723 -0.20422 0.05300
C 	C 	0.32999 1.31447 0.00106 0.01600
C 	C 	0.33886 1.34634 0.03881 -0.04100
C 	C 	0.37933 1.37600 0.03778 -0.04200
C 	C 	0.41110 1.37436 -0.00124 0.01200
C 	C 	0.40196 1.34233 -0.03892 -0.04100
C 	C 	0.36163 1.31267 -0.03781 -0.04100
C 	C 	0.28956 1.28230 0.00263 -0.01000
C 	C 	0.25667 1.25419 0.00315 -0.02900
C 	C 	0.21869 1.21912 0.00288 0.05200
C 	C 	0.17147 1.23212 0.01379 -0.08100
C 	C 	0.13493 1.19768 0.01289 0.04400
C 	C 	0.14528 1.14971 0.00130 -0.12100
C 	C 	0.19289 1.13712 -0.00950 0.04200
C 	C 	0.22918 1.17156 -0.00881 -0.08100
H 	H 	0.31488 1.34783 0.06926 0.04200
H 	H 	0.38620 1.39985 0.06757 0.04100
H 	H 	0.42631 1.34011 -0.06902 0.04000
H 	H 	0.35542 1.28793 -0.06703 0.04100
H 	H 	0.16288 1.26881 0.02297 0.05400
H 	H 	0.09874 1.20850 0.02164 0.04400
H 	H 	0.20214 1.10066 -0.01893 0.04300
H 	H 	0.26550 1.16105 -0.01752 0.05300
C 	C 	0.32983 0.69618 -0.00568 0.01600
C 	C 	0.36078 0.69695 0.03378 -0.04100
C 	C 	0.40111 0.66729 0.03482 -0.04100
C 	C 	0.41091 0.63626 -0.00351 0.01200
C 	C 	0.37979 0.63554 -0.04307 -0.04200
C 	C 	0.33935 0.66525 -0.04405 -0.04100
C 	C 	0.28949 0.72847 -0.00718 -0.01000
C 	C 	0.25666 0.75666 -0.00761 -0.02900
C 	C 	0.21871 0.79177 -0.00718 0.05200
C 	C 	0.22842 0.83838 0.00842 -0.08100
C 	C 	0.19217 0.87287 0.00908 0.04300
C 	C 	0.14539 0.86121 -0.00558 -0.12200
C 	C 	0.13576 0.81420 -0.02100 0.04400
C 	C 	0.17228 0.77975 -0.02196 -0.08100
H 	H 	0.35405 0.72093 0.06352 0.04100
H 	H 	0.42495 0.66875 0.06537 0.04000
H 	H 	0.38718 0.61243 -0.07331 0.04100
H 	H 	0.31590 0.66454 -0.07494 0.04100
H 	H 	0.26409 0.84809 0.02019 0.05300
H 	H 	0.20069 0.90857 0.02162 0.04000
H 	H 	0.10020 0.80423 -0.03281 0.04300
H 	H 	0.16432 0.74383 -0.03423 0.05400
C 	C 	-0.33134 0.69619 -0.00119 0.01600
C 	C 	-0.36367 0.69733 0.03713 -0.04200
C 	C 	-0.40406 0.66775 0.03696 -0.04100
C 	C 	-0.41260 0.63647 -0.00148 0.01200
C 	C 	-0.38019 0.63554 -0.03999 -0.04200
C 	C 	-0.33965 0.66511 -0.03973 -0.04200
C 	C 	-0.29083 0.72830 -0.00147 -0.01100
C 	C 	-0.25788 0.75635 -0.00115 -0.03000
C 	C 	-0.21985 0.79136 -0.00036 0.05100
C 	C 	-0.23125 0.84011 0.00092 -0.08200
C 	C 	-0.19496 0.87453 0.00173 0.04200
C 	C 	-0.14642 0.86082 0.00124 -0.12300
C 	C 	-0.13522 0.81164 0.00017 0.04100
C 	C 	-0.17173 0.77718 -0.00063 -0.08200
H 	H 	-0.35793 0.72150 0.06692 0.04100
H 	H 	-0.42893 0.66944 0.06667 0.04000
H 	H 	-0.38659 0.61228 -0.07036 0.04100
H 	H 	-0.31515 0.66416 -0.06978 0.04100
H 	H 	-0.26832 0.85158 0.00121 0.05300
H 	H 	-0.20506 0.91196 0.00253 0.04500
H 	H 	-0.09831 0.79977 -0.00029 0.04000
H 	H 	-0.16242 0.73954 -0.00155 0.05200
C 	C 	-0.33123 1.31462 -0.00238 0.01600
C 	C 	-0.36319 1.31375 -0.04100 -0.04100
C 	C 	-0.40355 1.34338 -0.04104 -0.04100
C 	C 	-0.41240 1.37447 -0.00251 0.01200
C 	C 	-0.38031 1.37518 0.03627 -0.04200
C 	C 	-0.33981 1.34555 0.03622 -0.04200
C 	C 	-0.29082 1.28237 -0.00186 -0.01000
C 	C 	-0.25797 1.25421 -0.00198 -0.02900
C 	C 	-0.22002 1.21911 -0.00254 0.05100
C 	C 	-0.23150 1.17036 -0.00348 -0.08100
C 	C 	-0.19525 1.13586 -0.00412 0.04300
C 	C 	-0.14669 1.14952 -0.00382 -0.12200
C 	C 	-0.13543 1.19868 -0.00308 0.04200
C 	C 	-0.17187 1.23321 -0.00244 -0.08200
H 	H 	-0.35722 1.28971 -0.07086 0.04200
H 	H 	-0.42816 1.34186 -0.07097 0.04000
H 	H 	-0.38696 1.39830 0.06670 0.04100
H 	H 	-0.31558 1.34631 0.06650 0.04100
H 	H 	-0.26858 1.15895 -0.00366 0.05400
H 	H 	-0.20539 1.09845 -0.00469 0.04600
H 	H 	-0.09851 1.21052 -0.00279 0.04000
H 	H 	-0.16250 1.27084 -0.00179 0.05200
C 	C 	0.00230 1.31416 0.32917 0.01600
C 	C 	-0.03582 1.34586 0.33708 -0.04200
C 	C 	-0.03594 1.37559 0.37751 -0.04200
C 	C 	0.00228 1.37419 0.41024 0.01200
C 	C 	0.04035 1.34235 0.40205 -0.04100
C 	C 	0.04039 1.31263 0.36175 -0.04100
C 	C 	0.00186 1.28195 0.28873 -0.01000
C 	C 	0.00208 1.25392 0.25577 -0.02900
C 	C 	0.00288 1.21911 0.21754 0.05200
C 	C 	-0.01092 1.23173 0.17099 -0.08100
C 	C 	-0.01050 1.19743 0.13434 0.04200
C 	C 	0.00342 1.14993 0.14392 -0.12200
C 	C 	0.01749 1.13775 0.19076 0.04500
C 	C 	0.01732 1.17210 0.22718 -0.08200
H 	H 	-0.06567 1.34717 0.31235 0.04100
H 	H 	-0.06602 1.39930 0.38360 0.04100
H 	H 	0.06988 1.34033 0.42712 0.04000
H 	H 	0.06990 1.28804 0.35628 0.04100
H 	H 	-0.02229 1.26796 0.16308 0.05200
H 	H 	-0.02185 1.20787 0.09876 0.03800
H 	H 	0.02879 1.10165 0.19930 0.04400
H 	H 	0.02829 1.16190 0.26297 0.05400
C 	C 	-0.00169 1.31465 -0.33204 0.01600
C 	C 	-0.03881 1.34739 -0.34038 -0.04200
C 	C 	-0.03767 1.37703 -0.38085 -0.04200
C 	C 	0.00083 1.37450 -0.41319 0.01200
C 	C 	0.03794 1.34166 -0.40453 -0.04100
C 	C 	0.03671 1.31202 -0.36418 -0.04100
C 	C 	-0.00355 1.28241 -0.29167 -0.01000
C 	C 	-0.00442 1.25425 -0.25883 -0.02900
C 	C 	-0.00460 1.21911 -0.22092 0.05100
C 	C 	-0.01841 1.23150 -0.17429 -0.08100
C 	C 	-0.01800 1.19699 -0.13780 0.04400
C 	C 	-0.00406 1.14956 -0.14765 -0.12200
C 	C 	0.00959 1.13754 -0.19466 0.04200
C 	C 	0.00944 1.17206 -0.23087 -0.08100
H 	H 	-0.06889 1.34955 -0.31599 0.04100
H 	H 	-0.06703 1.40152 -0.38731 0.04100
H 	H 	0.06766 1.33877 -0.42927 0.04000
H 	H 	0.06546 1.28663 -0.35837 0.04100
H 	H 	-0.02947 1.26777 -0.16613 0.05300
H 	H 	-0.02898 1.20730 -0.10207 0.04200
H 	H 	0.02095 1.10151 -0.20341 0.04200
H 	H 	0.02043 1.16204 -0.26671 0.05400
C 	C 	0.00281 0.69655 -0.33256 0.01600
C 	C 	-0.03505 0.66449 -0.34021 -0.04100
C 	C 	-0.03517 0.63477 -0.38064 -0.04200
C 	C 	0.00281 0.63651 -0.41363 0.01200
C 	C 	0.04064 0.66871 -0.40569 -0.04100
C 	C 	0.04066 0.69844 -0.36540 -0.04100
C 	C 	0.00231 0.72878 -0.29213 -0.01000
C 	C 	0.00243 0.75681 -0.25916 -0.02900
C 	C 	0.00306 0.79161 -0.22092 0.05100
C 	C 	-0.01167 0.77917 -0.17459 -0.08100
C 	C 	-0.01149 0.81348 -0.13795 0.04100
C 	C 	0.00307 0.86082 -0.14733 -0.12200
C 	C 	0.01809 0.87282 -0.19391 0.04400
C 	C 	0.01819 0.83846 -0.23031 -0.08100
H 	H 	-0.06473 0.66291 -0.31528 0.04100
H 	H 	-0.06508 0.61079 -0.38653 0.04100
H 	H 	0.06998 0.67100 -0.43095 0.04000
H 	H 	0.06997 0.72331 -0.36013 0.04100
H 	H 	-0.02359 0.74307 -0.16687 0.05200
H 	H 	-0.02356 0.80320 -0.10256 0.03800
H 	H 	0.02997 0.90879 -0.20222 0.04600
H 	H 	0.02990 0.84851 -0.26590 0.05400
C 	C 	-0.00150 0.69602 0.32866 0.01600
C 	C 	-0.03906 0.66389 0.33739 -0.04100
C 	C 	-0.03799 0.63422 0.37784 -0.04200
C 	C 	0.00086 0.63616 0.40980 0.01200
C 	C 	0.03842 0.66837 0.40076 -0.04100
C 	C 	0.03728 0.69801 0.36041 -0.04100
C 	C 	-0.00323 0.72830 0.28832 -0.01000
C 	C 	-0.00395 0.75649 0.25549 -0.02900
C 	C 	-0.00393 0.79163 0.21758 0.05200
C 	C 	-0.01793 0.77933 0.17098 -0.08100
C 	C 	-0.01736 0.81382 0.13449 0.04500
C 	C 	-0.00308 0.86116 0.14430 -0.12200
C 	C 	0.01077 0.87310 0.19126 0.04400
C 	C 	0.01047 0.83858 0.22749 -0.08100
H 	H 	-0.06942 0.66223 0.31331 0.04100
H 	H 	-0.06766 0.61020 0.38461 0.04100
H 	H 	0.06843 0.67077 0.42520 0.04000
H 	H 	0.06638 0.72292 0.35429 0.04100
H 	H 	-0.02929 0.74314 0.16286 0.05300
H 	H 	-0.02854 0.80359 0.09880 0.04200
H 	H 	0.02238 0.90906 0.19998 0.04100
H 	H 	0.02159 0.84853 0.26330 0.05400
