data_crystal

_cell_length_a 17.08470
_cell_length_b 17.12010
_cell_length_c 17.12010
_cell_angle_alpha 90.08760
_cell_angle_beta  92.09200
_cell_angle_gamma 87.90800

_symmetry_space_group_name_	'P 1'
_symmetry_space_group_name_H-M	'P 1'

loop_
_symmetry_equiv_pos_as_xyz
  x,y,z

loop_
_atom_site_label
_atom_site_type_symbol
_atom_site_fract_x
_atom_site_fract_y
_atom_site_fract_z
_atom_site_charge
Zn	Zn	0.31605 0.41542 0.71530 1.21600
Zn	Zn	0.18405 0.41877 0.58123 1.21400
Zn	Zn	0.18578 0.28750 0.71250 1.21900
Zn	Zn	0.31605 0.28470 0.58458 1.21700
H 	H 	0.16800 0.28510 0.95270 0.02800
H 	H 	0.55910 0.42910 0.72990 -0.00700
H 	H 	0.33670 0.27700 0.34360 0.00200
H 	H 	0.34350 0.90400 0.57520 0.06600
H 	H 	0.95450 0.28030 0.71970 0.02800
H 	H 	0.68910 0.28250 0.55450 0.09900
H 	H 	0.34640 0.43170 0.96370 0.02900
H 	H 	0.16550 0.91220 0.70880 0.06500
H 	H 	0.68910 0.44550 0.71750 0.09900
H 	H 	0.16790 0.79920 0.56200 0.08700
H 	H 	0.16550 0.29120 0.08780 0.06500
H 	H 	0.92970 0.44620 0.55380 0.03400
H 	H 	0.34640 0.03630 0.56830 0.02900
H 	H 	0.34870 0.28350 0.21230 0.09000
H 	H 	0.34870 0.78770 0.71650 0.09000
H 	H 	0.70950 0.31340 0.68660 0.02000
H 	H 	0.55910 0.27010 0.57090 -0.00700
H 	H 	0.16360 0.43530 0.33530 0.00700
H 	H 	0.82140 0.26970 0.73030 0.06200
H 	H 	0.16360 0.66470 0.56470 0.00700
H 	H 	0.16790 0.43800 0.20080 0.08700
H 	H 	0.16800 0.04730 0.71490 0.02800
H 	H 	0.79650 0.43970 0.56030 0.07300
H 	H 	0.34350 0.42480 0.09600 0.06600
H 	H 	0.33670 0.65640 0.72300 0.00200
C 	C 	0.20480 0.31790 0.06190 -0.10600
C 	C 	0.46040 0.35020 0.64980 0.43900
C 	C 	0.30960 0.01230 0.60010 0.04100
C 	C 	0.25690 0.89560 0.64440 0.03500
C 	C 	0.25770 0.35780 0.85520 0.34900
C 	C 	0.30960 0.39990 0.98770 0.04100
C 	C 	0.25030 0.35520 0.35300 -0.20700
C 	C 	0.04430 0.36440 0.63560 0.39300
C 	C 	0.24860 0.35530 0.43990 0.45800
C 	C 	0.30180 0.68580 0.68880 0.12700
C 	C 	0.30760 0.76350 0.68790 -0.17600
C 	C 	0.95590 0.36350 0.63650 -0.12400
C 	C 	0.25270 0.80750 0.64470 0.08700
C 	C 	0.66420 0.31090 0.59490 -0.19800
C 	C 	0.58570 0.30770 0.60190 0.16000
C 	C 	0.25750 0.35650 0.94270 -0.11500
C 	C 	0.58570 0.39810 0.69230 0.16000
C 	C 	0.20480 0.93810 0.68210 -0.10600
C 	C 	0.20050 0.69010 0.59770 0.11200
C 	C 	0.30660 0.39610 0.06610 -0.10800
C 	C 	0.70760 0.35470 0.64530 0.09500
C 	C 	0.25270 0.35530 0.19250 0.08700
C 	C 	0.25690 0.35560 0.10440 0.03500
C 	C 	0.30180 0.31120 0.31420 0.12700
C 	C 	0.66420 0.40510 0.68910 -0.19800
C 	C 	0.25750 0.05730 0.64350 -0.11500
C 	C 	0.25030 0.64700 0.64480 -0.20700
C 	C 	0.54330 0.35200 0.64800 -0.25400
C 	C 	0.90780 0.41090 0.58910 0.04500
C 	C 	0.25770 0.14480 0.64220 0.34900
C 	C 	0.20050 0.40230 0.30990 0.11200
C 	C 	0.20480 0.31550 0.98110 0.04000
C 	C 	0.24860 0.56010 0.64470 0.45800
C 	C 	0.30660 0.93390 0.60390 -0.10800
C 	C 	0.20240 0.40330 0.22990 -0.16800
C 	C 	0.20480 0.01890 0.68450 0.04000
C 	C 	0.30760 0.31210 0.23650 -0.17600
C 	C 	0.92050 0.31260 0.68740 0.03900
C 	C 	0.84280 0.30510 0.69490 -0.09900
C 	C 	0.20240 0.77010 0.59670 -0.16800
C 	C 	0.82930 0.40680 0.59320 -0.09700
C 	C 	0.79520 0.35660 0.64340 0.01500
O 	O 	0.42610 0.39660 0.69706 -0.51200
O 	O 	0.08240 0.31730 0.68270 -0.53500
O 	O 	0.42610 0.30294 0.60340 -0.51200
O 	O 	0.20245 0.40184 0.47114 -0.52700
O 	O 	0.29410 0.30782 0.47558 -0.53100
O 	O 	0.07220 0.41070 0.58930 -0.49800
O 	O 	0.30490 0.17594 0.59874 -0.50100
O 	O 	0.20245 0.52886 0.59816 -0.52700
O 	O 	0.20690 0.18090 0.68970 -0.49800
O 	O 	0.30490 0.40126 0.82406 -0.50100
O 	O 	0.20690 0.31030 0.81910 -0.49800
O 	O 	0.25092 0.35164 0.64836 -0.95900
O 	O 	0.29410 0.52442 0.69218 -0.53100
Zn	Zn	0.68395 0.71530 0.41542 1.21700
Zn	Zn	0.81422 0.71250 0.28750 1.21900
Zn	Zn	0.81595 0.58123 0.41877 1.21500
Zn	Zn	0.68395 0.58458 0.28470 1.21700
H 	H 	0.66330 0.72300 0.65640 0.00200
H 	H 	0.04550 0.71970 0.28030 0.02800
H 	H 	0.83210 0.56200 0.79920 0.08700
H 	H 	0.29050 0.68660 0.31340 0.02000
H 	H 	0.65360 0.96370 0.43170 0.02900
H 	H 	0.66330 0.34360 0.27700 0.00200
H 	H 	0.31090 0.55450 0.28250 0.09900
H 	H 	0.31090 0.71750 0.44550 0.09900
H 	H 	0.65650 0.09600 0.42480 0.06600
H 	H 	0.17860 0.73030 0.26970 0.06200
H 	H 	0.65360 0.56830 0.03630 0.02900
H 	H 	0.83450 0.08780 0.29120 0.06500
H 	H 	0.20350 0.56030 0.43970 0.07300
H 	H 	0.83210 0.20080 0.43800 0.08700
H 	H 	0.83450 0.70880 0.91220 0.06500
H 	H 	0.65130 0.71650 0.78770 0.09000
H 	H 	0.83640 0.33530 0.43530 0.00700
H 	H 	0.65650 0.57520 0.90400 0.06600
H 	H 	0.83200 0.95270 0.28510 0.02800
H 	H 	0.44090 0.57090 0.27010 -0.00700
H 	H 	0.83200 0.71490 0.04730 0.02800
H 	H 	0.83640 0.56470 0.66470 0.00700
H 	H 	0.07030 0.55380 0.44620 0.03400
H 	H 	0.65130 0.21230 0.28350 0.09000
H 	H 	0.44090 0.72990 0.42910 -0.00700
C 	C 	0.04410 0.63650 0.36350 -0.12400
C 	C 	0.79520 0.68210 0.93810 -0.10600
C 	C 	0.75140 0.43990 0.35530 0.45800
C 	C 	0.33580 0.59490 0.31090 -0.19800
C 	C 	0.79520 0.06190 0.31790 -0.10600
C 	C 	0.79520 0.98110 0.31550 0.04000
C 	C 	0.79520 0.68450 0.01890 0.04000
C 	C 	0.74230 0.64220 0.14480 0.34900
C 	C 	0.45670 0.64800 0.35200 -0.25400
C 	C 	0.69340 0.06610 0.39610 -0.10800
C 	C 	0.29240 0.64530 0.35470 0.09500
C 	C 	0.69040 0.98770 0.39990 0.04100
C 	C 	0.79950 0.30990 0.40230 0.11200
C 	C 	0.69240 0.68790 0.76350 -0.17600
C 	C 	0.09220 0.58910 0.41090 0.04500
C 	C 	0.75140 0.64470 0.56010 0.45800
C 	C 	0.74730 0.64470 0.80750 0.08700
C 	C 	0.53960 0.64980 0.35020 0.43900
C 	C 	0.74310 0.64440 0.89560 0.03500
C 	C 	0.20480 0.64340 0.35660 0.01500
C 	C 	0.74230 0.85520 0.35780 0.34900
C 	C 	0.15720 0.69490 0.30510 -0.09900
C 	C 	0.74970 0.64480 0.64700 -0.20700
C 	C 	0.74730 0.19250 0.35530 0.08700
C 	C 	0.33580 0.68910 0.40510 -0.19800
C 	C 	0.74250 0.94270 0.35650 -0.11500
C 	C 	0.79760 0.22990 0.40330 -0.16800
C 	C 	0.41430 0.69230 0.39810 0.16000
C 	C 	0.79950 0.59770 0.69010 0.11200
C 	C 	0.74970 0.35300 0.35520 -0.20700
C 	C 	0.69040 0.60010 0.01230 0.04100
C 	C 	0.74250 0.64350 0.05730 -0.11500
C 	C 	0.69820 0.68880 0.68580 0.12700
C 	C 	0.69240 0.23650 0.31210 -0.17600
C 	C 	0.74310 0.10440 0.35560 0.03500
C 	C 	0.79760 0.59670 0.77010 -0.16800
C 	C 	0.69820 0.31420 0.31120 0.12700
C 	C 	0.17070 0.59320 0.40680 -0.09700
C 	C 	0.41430 0.60190 0.30770 0.16000
C 	C 	0.95570 0.63560 0.36440 0.39300
C 	C 	0.69340 0.60390 0.93390 -0.10800
C 	C 	0.07950 0.68740 0.31260 0.03900
O 	O 	0.79310 0.81910 0.31030 -0.49800
O 	O 	0.91760 0.68270 0.31730 -0.53500
O 	O 	0.69510 0.82406 0.40126 -0.50100
O 	O 	0.57390 0.69706 0.39660 -0.51200
O 	O 	0.79755 0.47114 0.40184 -0.52700
O 	O 	0.92780 0.58930 0.41070 -0.49800
O 	O 	0.74908 0.64836 0.35164 -0.95900
O 	O 	0.79755 0.59816 0.52886 -0.52700
O 	O 	0.57390 0.60340 0.30294 -0.51200
O 	O 	0.69510 0.59874 0.17594 -0.50100
O 	O 	0.70590 0.69218 0.52442 -0.53100
O 	O 	0.79310 0.68970 0.18090 -0.49800
O 	O 	0.70590 0.47558 0.30782 -0.53100
