data_crystal

_cell_length_a 13.85570
_cell_length_b 15.17780
_cell_length_c 16.23700
_cell_angle_alpha 102.73400
_cell_angle_beta  115.09600
_cell_angle_gamma 95.62100

_symmetry_space_group_name_	'P 1'
_symmetry_space_group_name_H-M	'P 1'

loop_
_symmetry_equiv_pos_as_xyz
  x,y,z

loop_
_atom_site_label
_atom_site_type_symbol
_atom_site_fract_x
_atom_site_fract_y
_atom_site_fract_z
_atom_site_charge
Zn	Zn	0.37494 0.87817 0.13975 1.19100
Zn	Zn	0.26253 0.70903 0.18016 1.19100
Zn	Zn	0.36792 0.37599 0.13940 1.22200
Zn	Zn	0.41346 0.57802 0.27427 1.22300
Zn	Zn	0.25418 0.20894 0.18127 1.22200
Zn	Zn	0.41164 0.07906 0.27599 1.22400
P 	P 	0.52228 0.29124 0.30353 0.52400
P 	P 	0.29124 0.03797 0.04076 0.51600
P 	P 	0.22236 0.41628 0.25458 0.51500
P 	P 	0.52764 0.79043 0.30149 0.52200
P 	P 	0.28328 0.53323 0.03634 0.51100
P 	P 	0.61654 0.02264 0.23111 0.48900
P 	P 	0.31036 0.70101 0.39532 0.49000
P 	P 	0.21804 0.91283 0.24316 0.51400
P 	P 	0.60686 0.51241 0.21811 0.49400
P 	P 	0.13770 0.24693 0.96350 0.51100
P 	P 	0.30858 0.19849 0.39711 0.49000
O 	O 	0.41540 0.79640 0.23000 -0.58600
O 	O 	0.07960 0.15050 0.91230 -0.18000
O 	O 	0.53060 0.69720 0.32010 -0.36700
O 	O 	0.31180 0.94950 0.22650 -0.56400
O 	O 	0.32000 0.57600 0.97550 -0.19700
O 	O 	0.41000 0.29620 0.23250 -0.54300
O 	O 	0.29410 0.63010 0.44350 -0.15400
O 	O 	0.31880 0.09940 0.13830 -0.53500
O 	O 	0.50000 0.48960 0.22190 -0.51000
O 	O 	0.30660 0.45100 0.22570 -0.54200
O 	O 	0.31220 0.43890 0.03500 -0.37000
O 	O 	0.52660 0.19920 0.32400 -0.36800
O 	O 	0.68660 0.45370 0.25680 -0.15900
O 	O 	0.19720 0.80990 0.23010 -0.39800
O 	O 	0.18850 0.28670 0.90710 -0.16200
O 	O 	0.67270 0.12250 0.29980 -0.15300
O 	O 	0.41230 0.27150 0.46350 -0.19800
O 	O 	0.26040 0.45980 0.36250 -0.16800
O 	O 	0.58130 0.50300 0.11240 -0.16900
O 	O 	0.36250 0.09120 0.00520 -0.18400
O 	O 	0.22470 0.26250 0.06470 -0.51400
O 	O 	0.17020 0.02430 0.96960 -0.18400
O 	O 	0.05320 0.30900 0.96170 -0.20200
O 	O 	0.20720 0.74610 0.37290 -0.14600
O 	O 	0.11590 0.94050 0.17350 -0.19200
O 	O 	0.60990 0.02750 0.13310 -0.16900
O 	O 	0.11500 0.45020 0.20120 -0.18000
O 	O 	0.30880 0.65680 0.30010 -0.51300
O 	O 	0.19700 0.31270 0.23660 -0.38300
O 	O 	0.66310 0.61440 0.27570 -0.15500
O 	O 	0.30510 0.15560 0.30090 -0.51200
O 	O 	0.29080 0.12500 0.44280 -0.15300
O 	O 	0.50360 0.99680 0.22230 -0.50500
O 	O 	0.55930 0.37310 0.39470 -0.17500
O 	O 	0.60700 0.30380 0.26520 -0.17400
O 	O 	0.41270 0.77650 0.46100 -0.19700
O 	O 	0.61330 0.80440 0.26390 -0.17100
O 	O 	0.31030 0.94140 0.03690 -0.41200
O 	O 	0.20810 0.24580 0.37820 -0.15200
O 	O 	0.56300 0.87190 0.39250 -0.17700
O 	O 	0.23750 0.95700 0.34560 -0.16300
O 	O 	0.69080 0.95920 0.26580 -0.15800
O 	O 	0.32370 0.59760 0.13600 -0.55300
O 	O 	0.15470 0.51720 0.98270 -0.19900
Zn	Zn	0.62506 0.12183 0.86025 1.19000
Zn	Zn	0.73747 0.29097 0.81984 1.19000
Zn	Zn	0.63208 0.62401 0.86060 1.22100
Zn	Zn	0.58654 0.42198 0.72573 1.22200
Zn	Zn	0.74582 0.79106 0.81873 1.22100
Zn	Zn	0.58836 0.92094 0.72401 1.22300
P 	P 	0.47772 0.70876 0.69647 0.52400
P 	P 	0.70876 0.96203 0.95924 0.51600
P 	P 	0.77764 0.58372 0.74542 0.51500
P 	P 	0.47236 0.20957 0.69851 0.52200
P 	P 	0.71672 0.46677 0.96366 0.51100
P 	P 	0.38346 0.97736 0.76889 0.48900
P 	P 	0.68964 0.29899 0.60468 0.49000
P 	P 	0.78196 0.08717 0.75684 0.51400
P 	P 	0.39314 0.48759 0.78189 0.49400
P 	P 	0.86230 0.75307 0.03650 0.51100
P 	P 	0.69142 0.80151 0.60289 0.49000
O 	O 	0.58460 0.20360 0.77000 -0.58600
O 	O 	0.92040 0.84950 0.08770 -0.18000
O 	O 	0.46940 0.30280 0.67990 -0.36700
O 	O 	0.68820 0.05050 0.77350 -0.56400
O 	O 	0.68000 0.42400 0.02450 -0.19700
O 	O 	0.59000 0.70380 0.76750 -0.54300
O 	O 	0.70590 0.36990 0.55650 -0.15400
O 	O 	0.68120 0.90060 0.86170 -0.53500
O 	O 	0.50000 0.51040 0.77810 -0.51000
O 	O 	0.69340 0.54900 0.77430 -0.54200
O 	O 	0.68780 0.56110 0.96500 -0.37000
O 	O 	0.47340 0.80080 0.67600 -0.36800
O 	O 	0.31340 0.54630 0.74320 -0.15900
O 	O 	0.80280 0.19010 0.76990 -0.39800
O 	O 	0.81150 0.71330 0.09290 -0.16200
O 	O 	0.32730 0.87750 0.70020 -0.15300
O 	O 	0.58770 0.72850 0.53650 -0.19800
O 	O 	0.73960 0.54020 0.63750 -0.16800
O 	O 	0.41870 0.49700 0.88760 -0.16900
O 	O 	0.63750 0.90880 0.99480 -0.18400
O 	O 	0.77530 0.73750 0.93530 -0.51400
O 	O 	0.82980 0.97570 0.03040 -0.18400
O 	O 	0.94680 0.69100 0.03830 -0.20200
O 	O 	0.79280 0.25390 0.62710 -0.14600
O 	O 	0.88410 0.05950 0.82650 -0.19200
O 	O 	0.39010 0.97250 0.86690 -0.16900
O 	O 	0.88500 0.54980 0.79880 -0.18000
O 	O 	0.69120 0.34320 0.69990 -0.51300
O 	O 	0.80300 0.68730 0.76340 -0.38300
O 	O 	0.33690 0.38560 0.72430 -0.15500
O 	O 	0.69490 0.84440 0.69910 -0.51200
O 	O 	0.70920 0.87500 0.55720 -0.15300
O 	O 	0.49640 0.00320 0.77770 -0.50500
O 	O 	0.44070 0.62690 0.60530 -0.17500
O 	O 	0.39300 0.69620 0.73480 -0.17400
O 	O 	0.58730 0.22350 0.53900 -0.19700
O 	O 	0.38670 0.19560 0.73610 -0.17100
O 	O 	0.68970 0.05860 0.96310 -0.41200
O 	O 	0.79190 0.75420 0.62180 -0.15200
O 	O 	0.43700 0.12810 0.60750 -0.17700
O 	O 	0.76250 0.04300 0.65440 -0.16300
O 	O 	0.30920 0.04080 0.73420 -0.15800
O 	O 	0.67630 0.40240 0.86400 -0.55300
O 	O 	0.84530 0.48280 0.01730 -0.19900
