data_crystal

_cell_length_a 26.54300
_cell_length_b 26.54340
_cell_length_c 26.54340
_cell_angle_alpha 60.02600
_cell_angle_beta  89.95500
_cell_angle_gamma 119.97400

_symmetry_space_group_name_	'P 1'
_symmetry_space_group_name_H-M	'P 1'

loop_
_symmetry_equiv_pos_as_xyz
  x,y,z

loop_
_atom_site_label
_atom_site_type_symbol
_atom_site_fract_x
_atom_site_fract_y
_atom_site_fract_z
_atom_site_charge
Co	Co	0.00000 0.50000 -0.00000 1.09500
Co	Co	0.50000 0.00000 -0.00000 1.09100
Co	Co	-0.00000 0.00000 0.50000 1.09600
Co	Co	-0.00000 0.50000 0.50000 1.13700
Co	Co	0.50000 0.50000 0.50000 1.12400
Co	Co	0.50000 0.50000 -0.00000 1.13400
H 	H 	0.28440 0.44390 0.54350 0.04100
H 	H 	0.96280 0.66500 0.51900 1.00400
H 	H 	0.61660 0.65340 0.90500 0.41000
H 	H 	0.96560 0.47900 0.70040 -0.44200
H 	H 	0.01200 0.52830 0.87290 -0.01300
H 	H 	0.54960 0.51360 0.38560 0.00500
H 	H 	0.01430 0.89050 0.60320 -0.02900
H 	H 	0.29960 0.33400 0.17940 -0.51900
H 	H 	0.02800 0.20430 0.50150 0.03300
H 	H 	0.10080 0.48640 0.96400 0.04100
H 	H 	0.38340 0.34660 0.09500 0.56600
H 	H 	0.38280 0.34570 0.55530 0.02300
H 	H 	0.12650 0.52470 0.48740 -0.38800
H 	H 	0.12480 0.62320 0.39680 1.36100
H 	H 	0.47220 0.45410 0.83530 -0.99100
H 	H 	0.17910 0.21310 0.48800 0.03900
H 	H 	0.51200 0.33290 0.70110 0.04100
H 	H 	0.03640 0.21400 0.29980 -0.00500
H 	H 	0.28050 0.83470 0.15320 0.02400
H 	H 	0.89980 0.93640 0.44980 0.02000
H 	H 	0.17630 0.47050 0.02800 0.03100
H 	H 	0.87290 0.88490 0.59880 0.02000
H 	H 	0.51900 0.48180 0.81600 1.19600
H 	H 	0.29420 0.79570 0.17630 0.04600
H 	H 	0.87040 0.46960 0.00780 -0.02000
H 	H 	0.45040 0.48640 0.61440 0.00600
H 	H 	0.16470 0.69250 0.28940 -0.89700
H 	H 	0.59880 0.47170 0.51630 0.01600
H 	H 	0.54350 0.82790 0.01260 0.03400
H 	H 	0.90810 0.34660 0.61870 -1.54800
H 	H 	0.15970 0.44260 0.54470 0.50700
H 	H 	0.01270 0.55740 0.28290 0.44500
H 	H 	0.96290 0.06190 0.38280 0.04000
H 	H 	0.03700 0.48430 0.90130 -0.02600
H 	H 	0.28940 0.45410 0.01810 -1.11500
H 	H 	0.15950 0.17210 0.28440 0.03800
H 	H 	0.49840 0.47840 0.12480 1.30000
H 	H 	0.59920 0.12180 0.87040 0.00500
H 	H 	0.89920 0.51360 0.03600 -0.02900
H 	H 	0.71560 0.55610 0.45650 0.04200
H 	H 	0.54750 0.83190 0.15920 0.08300
H 	H 	0.71560 0.70670 0.45250 0.08300
H 	H 	0.12710 0.11510 0.40120 0.01200
H 	H 	0.87350 0.47530 0.51260 -0.29500
H 	H 	0.55020 0.65040 0.38620 0.01400
H 	H 	0.59970 0.11910 0.00880 -0.03300
H 	H 	0.44580 0.43370 0.71950 0.02300
H 	H 	0.70110 0.21310 0.96600 0.05600
H 	H 	0.39680 0.52160 0.98000 1.68800
H 	H 	0.70040 0.66600 0.82060 -0.35500
H 	H 	0.00890 0.16810 0.28440 0.07500
H 	H 	0.03620 0.52200 0.17900 0.04100
H 	H 	0.38560 0.93520 0.10080 0.01600
H 	H 	0.52260 0.53040 0.59920 0.01000
H 	H 	0.96400 0.06480 0.54960 0.02600
H 	H 	0.82090 0.78690 0.51200 0.04600
H 	H 	0.45650 0.17210 0.98740 0.05000
H 	H 	0.98940 0.71000 0.84020 0.06200
H 	H 	0.60180 0.61390 0.87350 -0.27100
H 	H 	0.87210 0.88090 0.51940 0.00600
H 	H 	0.29780 0.48180 0.03720 1.30700
H 	H 	0.15980 0.17040 0.55020 0.05000
H 	H 	0.50630 0.10950 0.87620 -0.01700
H 	H 	0.98190 0.69250 0.47220 -0.80000
H 	H 	0.51260 0.38610 0.01210 -0.40200
H 	H 	0.48660 0.66600 0.03440 -0.42100
H 	H 	0.52780 0.54590 0.16470 -0.85500
H 	H 	0.48740 0.61390 0.98790 -0.27200
H 	H 	0.70220 0.51820 0.96280 0.93700
H 	H 	0.48800 0.66710 0.29890 0.04400
H 	H 	0.55270 0.93830 0.96300 0.03300
H 	H 	0.82100 0.78480 0.70100 0.05700
H 	H 	0.03660 0.65040 0.89980 -0.01300
H 	H 	0.70580 0.20430 0.82370 0.04600
H 	H 	0.17760 0.66380 0.03640 -0.00700
H 	H 	0.99120 0.39150 0.12790 0.02700
H 	H 	0.01210 0.16530 0.55420 0.01200
H 	H 	0.51940 0.39150 0.59970 0.00100
H 	H 	0.43850 0.47320 0.90810 -1.57500
H 	H 	0.98790 0.47530 0.39820 -0.29600
H 	H 	0.02000 0.62320 0.50160 1.21000
H 	H 	0.17940 0.47900 0.48660 -0.49900
H 	H 	0.39820 0.38610 0.12650 -0.40500
H 	H 	0.03600 0.93520 0.45040 -0.01100
H 	H 	0.96600 0.66710 0.82090 0.05800
H 	H 	0.84680 0.56630 0.98790 0.03800
H 	H 	0.12790 0.11910 0.48060 -0.00100
H 	H 	0.03720 0.33500 0.48100 1.26200
H 	H 	0.38620 0.93640 0.96340 0.05300
H 	H 	0.84080 0.29330 0.99110 0.08500
H 	H 	0.28290 0.29560 0.15970 0.51800
H 	H 	0.01210 0.52470 0.60180 -0.38600
H 	H 	0.18400 0.66500 0.29780 1.08900
H 	H 	0.55420 0.56630 0.28050 0.02500
H 	H 	0.84030 0.55740 0.45530 0.41800
H 	H 	0.12380 0.61750 0.98570 0.02300
H 	H 	0.61440 0.51570 0.44730 -0.00300
H 	H 	0.44160 0.34660 0.03680 0.47500
H 	H 	0.82370 0.52950 0.97200 0.06200
H 	H 	0.50150 0.52950 0.29420 0.04700
H 	H 	0.40030 0.88090 0.99120 0.03600
H 	H 	0.29980 0.33620 0.48620 0.01300
H 	H 	0.49370 0.89050 0.12380 -0.00300
H 	H 	0.61720 0.65430 0.44470 0.02300
H 	H 	0.55020 0.71000 0.27940 0.05300
H 	H 	0.15320 0.43370 0.01210 0.00900
H 	H 	0.98000 0.37680 0.49840 1.62300
H 	H 	0.61380 0.06360 0.03660 -0.02700
H 	H 	0.51340 0.33400 0.96560 -0.44800
H 	H 	0.49850 0.47050 0.70580 0.04600
H 	H 	0.09500 0.47840 0.55840 0.54900
H 	H 	0.61440 0.06480 0.89920 -0.00200
H 	H 	0.60320 0.47840 0.02000 1.11700
H 	H 	0.48370 0.88490 0.98800 0.05300
H 	H 	0.72060 0.17040 0.98940 0.06000
H 	H 	0.51630 0.11510 0.01200 -0.02300
H 	H 	0.99110 0.83190 0.71560 0.08800
H 	H 	0.83530 0.30750 0.71060 -0.97300
H 	H 	0.44470 0.06190 0.90100 0.01400
H 	H 	0.81600 0.33500 0.70220 1.17400
H 	H 	0.29900 0.47800 0.48580 0.05500
H 	H 	0.03470 0.65340 0.43850 -1.32700
H 	H 	0.96320 0.52160 0.38340 0.50800
H 	H 	0.15920 0.70670 0.00890 0.07700
H 	H 	0.71060 0.54590 0.98190 -0.73800
H 	H 	0.10020 0.06360 0.55020 0.00900
H 	H 	0.03680 0.47840 0.61660 0.47600
H 	H 	0.48580 0.78480 0.03620 0.04300
H 	H 	0.44980 0.34960 0.61380 0.01300
H 	H 	0.96340 0.34960 0.10020 0.04200
H 	H 	0.09870 0.06170 0.38560 -0.00900
H 	H 	0.82240 0.33620 0.96360 0.03700
H 	H 	0.50160 0.52160 0.87520 1.49400
H 	H 	0.12960 0.53040 0.99220 0.04200
H 	H 	0.70100 0.52200 0.51420 0.05300
H 	H 	0.00780 0.87820 0.52260 -0.00700
H 	H 	0.03710 0.93810 0.61720 0.00800
H 	H 	0.01060 0.29000 0.15980 0.04100
H 	H 	0.40120 0.52830 0.48370 0.01500
H 	H 	0.90100 0.34570 0.03710 -0.01000
H 	H 	0.03400 0.33290 0.17910 0.02700
H 	H 	0.61870 0.52680 0.03470 -1.24000
H 	H 	0.38130 0.47320 0.96530 -1.72100
H 	H 	0.90130 0.93830 0.61440 0.00500
H 	H 	0.84050 0.82790 0.71560 0.04500
H 	H 	0.39680 0.38250 0.49370 -0.01200
H 	H 	0.48100 0.51820 0.18400 1.04000
H 	H 	0.84020 0.82960 0.44980 0.05300
H 	H 	0.01810 0.30750 0.52780 -1.07200
H 	H 	0.38560 0.48430 0.55270 -0.00200
H 	H 	0.29890 0.78690 0.03400 0.03100
H 	H 	0.87620 0.38250 0.01430 -0.04500
H 	H 	0.70020 0.66380 0.51380 0.01500
H 	H 	0.55840 0.65340 0.96320 0.49600
H 	H 	0.96360 0.78600 0.70020 0.03300
H 	H 	0.00880 0.60850 0.87210 -0.02100
H 	H 	0.01260 0.55610 0.15950 0.03200
H 	H 	0.54470 0.70440 0.01270 0.43200
H 	H 	0.96300 0.51570 0.09870 0.02100
H 	H 	0.82060 0.52100 0.51340 -0.38400
H 	H 	0.98800 0.47170 0.12710 0.04500
H 	H 	0.96380 0.47800 0.82100 0.06800
H 	H 	0.55530 0.93810 0.09900 0.03400
H 	H 	0.71710 0.70440 0.84030 0.39900
H 	H 	0.40080 0.87820 0.12960 0.01800
H 	H 	0.45530 0.29560 0.98730 0.48400
H 	H 	0.17900 0.21520 0.29900 0.05100
H 	H 	0.98730 0.44260 0.71710 0.47900
H 	H 	0.87520 0.37680 0.60320 1.46800
H 	H 	0.48060 0.60850 0.40030 0.00300
H 	H 	0.28440 0.29330 0.54750 0.08000
H 	H 	0.09190 0.65340 0.38130 -1.43800
H 	H 	0.44980 0.29000 0.72060 0.05000
H 	H 	0.45250 0.16810 0.84080 0.08000
H 	H 	0.97200 0.79570 0.49850 0.05900
H 	H 	0.90500 0.52160 0.44160 0.43600
H 	H 	0.44730 0.06170 0.03700 -0.04100
H 	H 	0.51420 0.21520 0.96380 0.06700
H 	H 	0.03440 0.52100 0.29960 -0.43900
H 	H 	0.51380 0.21400 0.82240 0.01500
H 	H 	0.98570 0.10950 0.39680 0.01000
H 	H 	0.48620 0.78600 0.17760 0.01300
H 	H 	0.47740 0.46960 0.40080 0.01100
H 	H 	0.99220 0.12180 0.47740 0.03100
H 	H 	0.56150 0.52680 0.09190 -1.37400
H 	H 	0.60320 0.61750 0.50630 -0.01000
H 	H 	0.96530 0.34660 0.56150 -1.66300
H 	H 	0.09900 0.65430 0.96290 0.05400
H 	H 	0.98740 0.44390 0.84050 0.05100
H 	H 	0.71950 0.16530 0.84680 0.02400
H 	H 	0.27940 0.82960 0.01060 0.04400
H 	H 	0.98790 0.83470 0.44580 0.03500
C 	C 	0.12350 0.62300 0.50050 0.07400
C 	C 	0.50350 0.39980 0.62470 0.04000
C 	C 	0.52300 0.65380 0.13140 0.33900
C 	C 	0.87720 0.37730 0.12370 0.09000
C 	C 	0.63350 0.62700 0.46210 -0.02300
C 	C 	0.52810 0.56860 0.12330 3.67000
C 	C 	0.30360 0.84120 0.03440 -0.07200
C 	C 	0.08500 0.62340 0.36860 4.27500
C 	C 	0.72000 0.61970 0.90050 -0.58500
C 	C 	0.86000 0.36300 0.68700 -3.09200
C 	C 	0.91200 0.90530 0.63070 0.05100
C 	C 	0.88020 0.57510 0.96350 -0.03400
C 	C 	0.28010 0.38060 0.51870 0.01400
C 	C 	0.50210 0.87610 0.10040 0.07200
C 	C 	0.04050 0.34860 0.52810 4.53100
C 	C 	0.87720 0.34040 0.96680 -0.15500
C 	C 	0.50010 0.99910 0.87720 0.09300
C 	C 	0.12280 0.62270 0.87630 0.08800
C 	C 	0.46410 0.34190 0.96360 -1.59300
C 	C 	0.49940 0.60220 0.02360 1.36400
C 	C 	0.00780 0.09580 0.53580 -0.03300
C 	C 	0.13170 0.26320 0.52250 0.11400
C 	C 	0.50270 0.12620 0.97730 0.03600
C 	C 	0.95950 0.65140 0.47190 3.49000
C 	C 	0.30550 0.34190 0.12220 -1.75600
C 	C 	0.46580 0.15880 0.96340 -0.05300
C 	C 	0.53590 0.65810 0.03640 -1.45100
C 	C 	0.99300 0.62440 0.91120 0.04400
C 	C 	0.49990 0.00090 0.12280 0.08300
C 	C 	0.08650 0.45460 0.53890 -1.73500
C 	C 	0.48130 0.38190 0.71920 0.02000
C 	C 	0.10310 0.60600 0.37430 -4.90800
C 	C 	0.62440 0.12800 0.89520 0.01500
C 	C 	0.50150 0.18610 0.94900 -0.06900
C 	C 	0.63140 0.09580 0.99300 0.04000
C 	C 	0.97650 0.87610 0.62600 0.09300
C 	C 	0.36840 0.90420 0.08800 0.01100
C 	C 	0.12280 0.65960 0.03320 -0.18600
C 	C 	0.89650 0.87380 0.62350 -0.01500
C 	C 	0.86850 0.65420 0.86830 0.11000
C 	C 	0.36930 0.45730 0.53600 0.03800
C 	C 	0.91120 0.90420 0.46440 0.00500
C 	C 	0.63190 0.62540 0.91350 -1.27000
C 	C 	0.00700 0.37560 0.08880 -0.05400
C 	C 	0.52250 0.65420 0.21430 0.11300
C 	C 	0.51870 0.61810 0.28080 0.02200
C 	C 	0.69450 0.65810 0.87780 -1.29800
C 	C 	0.37400 0.39750 0.50210 0.08000
C 	C 	0.49700 0.54700 0.14000 -2.72300
C 	C 	0.62580 0.60220 0.89720 1.24500
C 	C 	0.86610 0.55280 0.95230 -0.08700
C 	C 	0.47750 0.34580 0.78570 0.11200
C 	C 	0.31540 0.45050 0.49850 -0.04600
C 	C 	0.53580 0.54360 0.36840 0.01500
C 	C 	0.62470 0.12820 0.97550 0.07400
C 	C 	0.05130 0.18500 0.31490 0.10600
C 	C 	0.04940 0.54890 0.31550 1.58500
C 	C 	0.78520 0.65380 0.86920 0.31000
C 	C 	0.68450 0.63510 0.86440 1.32700
C 	C 	0.37650 0.48000 0.49730 -0.00700
C 	C 	0.11980 0.42490 0.03650 -0.02000
C 	C 	0.28080 0.79950 0.10110 0.01100
C 	C 	0.89890 0.61810 0.90060 0.04500
C 	C 	0.49950 0.63510 0.04940 1.52900
C 	C 	0.13220 0.26360 0.21440 0.11400
C 	C 	0.53680 0.84400 0.12280 -0.16900
C 	C 	0.89950 0.79880 0.71990 0.02800
C 	C 	0.49650 0.60020 0.37530 0.03800
C 	C 	0.50290 0.52260 0.10310 -4.68600
C 	C 	0.30510 0.84370 0.11980 -0.02200
C 	C 	0.12220 0.42770 0.53590 -1.70500
C 	C 	0.47190 0.43140 0.87670 4.23800
C 	C 	0.03440 0.33800 0.12440 -0.08100
C 	C 	0.21440 0.34660 0.52200 0.11200
C 	C 	0.68510 0.63380 0.49990 0.06500
C 	C 	0.05100 0.54950 0.13510 -0.02300
C 	C 	0.53840 0.54640 0.08500 4.08500
C 	C 	0.03650 0.15630 0.53860 -0.02500
C 	C 	0.99330 0.45730 0.91200 0.07500
C 	C 	0.87560 0.84120 0.46240 -0.07200
C 	C 	0.53860 0.57510 0.30510 -0.02600
C 	C 	0.02270 0.52000 0.10350 -0.04500
C 	C 	0.02320 0.12800 0.49640 -0.01000
C 	C 	0.02450 0.39980 0.10370 0.01900
C 	C 	0.69490 0.15630 0.88020 -0.03200
C 	C 	0.89960 0.39750 0.97650 0.10900
C 	C 	0.86860 0.34660 0.86780 0.10800
C 	C 	0.71990 0.61940 0.48130 0.01500
C 	C 	0.89930 0.38060 0.89950 0.04200
C 	C 	0.49890 0.63430 0.31580 -0.02400
C 	C 	0.49710 0.47740 0.89690 -5.39800
C 	C 	0.00800 0.37660 0.53840 4.98300
C 	C 	0.96360 0.42770 0.69450 -1.57400
C 	C 	0.91350 0.54540 0.46110 -1.36300
C 	C 	0.10110 0.38190 0.09940 -0.00300
C 	C 	0.36650 0.37300 0.53790 -0.02900
C 	C 	0.13370 0.63380 0.05130 0.11400
C 	C 	0.86860 0.34560 0.78520 0.36500
C 	C 	0.14000 0.63700 0.31300 -2.85300
C 	C 	0.37560 0.87200 0.10480 0.00500
C 	C 	0.10030 0.62050 0.28000 -0.72200
C 	C 	0.49850 0.81390 0.05100 -0.02800
C 	C 	0.87780 0.84120 0.69300 -0.04000
C 	C 	0.31580 0.81470 0.04990 -0.00500
C 	C 	0.69640 0.15880 0.96560 -0.08300
C 	C 	0.53760 0.66200 0.30360 -0.07800
C 	C 	0.50110 0.36570 0.68420 -0.02200
C 	C 	0.21480 0.34620 0.13080 0.39800
C 	C 	0.13390 0.44720 0.04770 -0.03700
C 	C 	0.10350 0.12620 0.37650 -0.00300
C 	C 	0.86920 0.65440 0.47700 0.32400
C 	C 	0.53560 0.62440 0.36860 -0.00300
C 	C 	0.97730 0.48000 0.89650 0.02700
C 	C 	0.53890 0.62540 0.00650 -1.48100
C 	C 	0.03640 0.57230 0.30550 -1.50500
C 	C 	0.31490 0.36620 0.50010 0.06800
C 	C 	0.10370 0.12820 0.49650 0.04500
C 	C 	0.49730 0.87380 0.02270 -0.05300
C 	C 	0.13540 0.18530 0.49890 -0.01400
C 	C 	0.04990 0.36570 0.13540 0.00500
C 	C 	0.46110 0.37460 0.99350 -1.57300
C 	C 	0.95000 0.63700 0.50300 -2.61900
C 	C 	0.03320 0.15600 0.30720 -0.19200
C 	C 	0.10280 0.47700 0.49940 1.65900
C 	C 	0.46440 0.37560 0.63140 -0.00700
C 	C 	0.51870 0.79880 0.10070 0.00300
C 	C 	0.49990 0.18500 0.86630 0.06100
C 	C 	0.30810 0.43140 0.04050 4.70200
C 	C 	0.46420 0.45640 0.63160 0.00900
C 	C 	0.96350 0.84370 0.46140 -0.02800
C 	C 	0.96680 0.84400 0.69280 -0.15300
C 	C 	0.89630 0.87180 0.50350 0.03300
C 	C 	0.09940 0.20050 0.51870 0.00900
C 	C 	0.86830 0.73680 0.47750 0.11200
C 	C 	0.04770 0.18160 0.50510 -0.04300
C 	C 	0.95060 0.45110 0.68450 1.62500
C 	C 	0.12440 0.15880 0.53760 -0.08500
C 	C 	0.86440 0.54890 0.50050 1.41800
C 	C 	0.68460 0.54950 0.50150 -0.04800
C 	C 	0.49790 0.12390 0.89960 0.08100
C 	C 	0.68420 0.18530 0.95010 -0.04600
C 	C 	0.52200 0.73640 0.13140 0.11800
C 	C 	0.01970 0.39400 0.50290 -5.79700
C 	C 	0.91200 0.54360 0.99220 0.06800
C 	C 	0.87780 0.57230 0.46410 -1.37900
C 	C 	0.97550 0.60020 0.89630 0.05900
C 	C 	0.96560 0.66200 0.87560 -0.07600
C 	C 	0.53600 0.90530 0.00670 0.01100
C 	C 	0.47800 0.26360 0.86860 0.11000
C 	C 	0.13140 0.65440 0.21480 0.34800
C 	C 	0.63160 0.09580 0.91200 0.01200
C 	C 	0.49490 0.44720 0.68670 -0.06000
C 	C 	0.08800 0.45640 0.00780 -0.04300
C 	C 	0.03660 0.57080 0.12220 -0.04100
C 	C 	0.05000 0.36300 0.49700 -3.33300
C 	C 	0.62570 0.52260 0.98030 -4.10500
C 	C 	0.50010 0.81500 0.13370 0.07200
C 	C 	0.98030 0.60600 0.49710 -4.42800
C 	C 	0.31300 0.45300 0.05000 -3.45400
C 	C 	0.94900 0.45050 0.86490 -0.07300
C 	C 	0.86490 0.81390 0.68460 -0.05500
C 	C 	0.13510 0.18610 0.31540 -0.03800
C 	C 	0.91500 0.37660 0.63140 4.61400
C 	C 	0.89970 0.37950 0.72000 -0.76800
C 	C 	0.52020 0.61970 0.10030 -0.68800
C 	C 	0.68670 0.18160 0.86610 -0.06400
C 	C 	0.00650 0.09560 0.36650 -0.07000
C 	C 	0.48130 0.20120 0.89930 0.02700
C 	C 	0.99350 0.90440 0.63350 0.01600
C 	C 	0.90060 0.79950 0.48130 0.03200
C 	C 	0.86780 0.73640 0.78560 0.11400
C 	C 	0.36810 0.37460 0.08650 -1.79600
C 	C 	0.46160 0.45360 0.91500 4.69400
C 	C 	0.90050 0.62050 0.47980 -0.63600
C 	C 	0.62600 0.60250 0.49790 0.07400
C 	C 	0.86460 0.81470 0.50110 -0.03200
C 	C 	0.50360 0.48040 0.62440 0.01200
C 	C 	0.00670 0.54270 0.08800 0.00800
C 	C 	0.63070 0.54270 0.46400 0.04300
C 	C 	0.69300 0.57080 0.46580 -0.04400
C 	C 	0.46210 0.09560 0.91090 -0.02500
C 	C 	0.89720 0.52300 0.50060 1.32800
C 	C 	0.00650 0.54540 0.36810 -1.53700
C 	C 	0.12220 0.15880 0.30700 -0.05100
C 	C 	0.46240 0.33800 0.69640 -0.08000
C 	C 	0.69280 0.65960 0.46320 -0.17000
C 	C 	0.02360 0.52300 0.37420 1.42600
C 	C 	0.46320 0.15600 0.87720 -0.17600
C 	C 	0.69190 0.56860 0.95950 3.23800
C 	C 	0.36860 0.45360 0.00800 5.16200
C 	C 	0.50050 0.62400 0.87650 0.06800
C 	C 	0.87670 0.34860 0.69190 4.16300
C 	C 	0.28000 0.38030 0.09950 -0.89200
C 	C 	0.53420 0.84120 0.03660 -0.03700
C 	C 	0.09950 0.37950 0.52020 -0.85600
C 	C 	0.96340 0.42920 0.87780 -0.05000
C 	C 	0.99350 0.45460 0.63190 -1.55600
C 	C 	0.10070 0.61940 0.10050 -0.01100
C 	C 	0.46400 0.09470 0.99330 0.07500
C 	C 	0.08910 0.62700 0.00650 -0.07300
C 	C 	0.37430 0.47740 0.01970 -6.01800
C 	C 	0.50510 0.55280 0.31330 -0.06300
C 	C 	0.13150 0.34580 0.13170 0.11500
C 	C 	0.99220 0.90420 0.46420 0.05500
C 	C 	0.08800 0.09470 0.36930 0.02900
C 	C 	0.50300 0.45300 0.86000 -3.14800
C 	C 	0.49640 0.51960 0.37560 0.00800
C 	C 	0.12330 0.65140 0.30810 3.84700
C 	C 	0.87650 0.37700 0.49950 0.07000
C 	C 	0.13080 0.34560 0.52300 0.38900
C 	C 	0.10040 0.60250 0.02350 0.04500
C 	C 	0.86630 0.36620 0.94870 0.01400
C 	C 	0.37530 0.87180 0.02450 0.00700
C 	C 	0.37420 0.39780 0.10280 1.71300
C 	C 	0.63140 0.54640 0.99200 3.65300
C 	C 	0.53790 0.90440 0.08910 -0.02800
C 	C 	0.94870 0.81500 0.68510 0.02700
C 	C 	0.49950 0.37600 0.12350 0.07700
C 	C 	0.62350 0.52000 0.50270 -0.01200
C 	C 	0.47700 0.34620 0.86860 0.36700
C 	C 	0.97680 0.87200 0.50360 0.02800
C 	C 	0.87630 0.99910 0.50100 0.09400
C 	C 	0.78560 0.65340 0.47800 0.11600
C 	C 	0.31550 0.36490 0.13560 1.85600
C 	C 	0.89690 0.39400 0.62570 -5.30300
C 	C 	0.13560 0.45110 0.49950 1.79700
C 	C 	0.30720 0.34040 0.53680 -0.17500
C 	C 	0.50050 0.36490 0.95060 1.64100
C 	C 	0.21430 0.73680 0.13150 0.11500
C 	C 	0.12370 0.00090 0.49900 0.08300
C 	C 	0.68700 0.54700 0.95000 -2.44100
C 	C 	0.47980 0.38030 0.89970 -0.78200
C 	C 	0.78570 0.26320 0.86850 0.11100
C 	C 	0.50060 0.39780 0.97640 1.58500
C 	C 	0.08880 0.09580 0.53560 -0.01600
C 	C 	0.89520 0.51960 0.97680 0.03800
C 	C 	0.99200 0.62340 0.46160 3.91700
C 	C 	0.31330 0.81840 0.13390 -0.05900
C 	C 	0.49900 0.62270 0.50010 0.08900
C 	C 	0.95010 0.63430 0.86460 -0.05100
C 	C 	0.10050 0.20120 0.28010 -0.00000
C 	C 	0.36860 0.90420 0.00700 -0.04500
C 	C 	0.46140 0.42490 0.69490 -0.02700
C 	C 	0.50100 0.37730 0.49990 0.09000
C 	C 	0.97640 0.47700 0.62580 1.55700
C 	C 	0.30700 0.42920 0.53420 -0.04700
C 	C 	0.10480 0.48040 0.02320 -0.01700
C 	C 	0.95230 0.81840 0.49490 -0.07900
C 	C 	0.71920 0.20050 0.89890 0.03200
C 	C 	0.91090 0.37300 0.99350 0.02400
C 	C 	0.13140 0.65340 0.13220 0.12000
C 	C 	0.02350 0.12390 0.37400 0.05800
S 	S 	0.81970 0.99990 0.47900 -0.01600
S 	S 	0.52330 0.70270 0.82060 -0.02700
S 	S 	0.47860 0.66110 0.51930 -0.04000
S 	S 	0.18020 0.70130 0.81970 -0.02100
S 	S 	0.18250 0.00210 0.47860 -0.05600
S 	S 	0.18030 0.00010 0.52100 -0.04700
S 	S 	0.47890 0.99990 0.81980 -0.01500
S 	S 	0.47900 0.29870 0.52110 -0.04100
S 	S 	0.48070 0.00210 0.18040 -0.05700
S 	S 	0.52110 0.00010 0.18020 -0.04900
S 	S 	0.81750 0.99790 0.52140 -0.02200
S 	S 	0.82060 0.34390 0.47670 -0.03800
S 	S 	0.51930 0.99790 0.81960 -0.02100
S 	S 	0.18040 0.66110 0.81750 -0.04000
S 	S 	0.51850 0.33710 0.18140 -0.03200
S 	S 	0.52100 0.70130 0.47890 -0.02300
S 	S 	0.47670 0.29730 0.17940 -0.06200
S 	S 	0.17940 0.65610 0.52330 -0.05000
S 	S 	0.18140 0.69990 0.48150 -0.02500
S 	S 	0.81860 0.30010 0.51850 -0.04200
S 	S 	0.48150 0.66290 0.81860 -0.03600
S 	S 	0.52140 0.33890 0.48070 -0.03800
S 	S 	0.81960 0.33890 0.18250 -0.03700
S 	S 	0.81980 0.29870 0.18030 -0.04300
N 	N 	0.95933 0.55590 0.95817 -0.23100
N 	N 	0.09970 0.62200 0.18890 -0.18600
N 	N 	0.50024 0.00090 0.07826 -0.27200
N 	N 	0.40284 0.44450 0.51406 -0.23400
N 	N 	0.92060 0.42080 0.49980 -0.25000
N 	N 	0.49976 0.99910 0.92174 -0.23900
N 	N 	0.04067 0.44410 0.04183 -0.21800
N 	N 	0.18900 0.71030 0.18910 -0.20900
N 	N 	0.81100 0.28970 0.81090 -0.21200
N 	N 	0.89970 0.71080 0.81110 -0.15100
N 	N 	0.81090 0.62190 0.89940 -0.19600
N 	N 	0.92084 0.99910 0.50066 -0.24000
N 	N 	0.07916 0.00090 0.49934 -0.27100
N 	N 	0.10060 0.28970 0.52130 -0.22100
N 	N 	0.47810 0.28920 0.81110 -0.15600
N 	N 	0.81110 0.71080 0.47810 -0.15400
N 	N 	0.49934 0.57850 0.49976 -0.25800
N 	N 	0.51406 0.91690 0.04144 -0.21900
N 	N 	0.10030 0.28920 0.18890 -0.16100
N 	N 	0.49980 0.42040 0.07940 -0.25700
N 	N 	0.18910 0.37800 0.52230 -0.19000
N 	N 	0.95856 0.44450 0.95834 -0.23700
N 	N 	0.52130 0.62190 0.18900 -0.20600
N 	N 	0.04183 0.08250 0.51407 -0.22800
N 	N 	0.59657 0.08250 0.95933 -0.23400
N 	N 	0.18890 0.28860 0.18910 -0.19300
N 	N 	0.48594 0.08310 0.95856 -0.24100
N 	N 	0.51407 0.55590 0.40343 -0.22800
N 	N 	0.52190 0.71080 0.18890 -0.15600
N 	N 	0.04120 0.55490 0.40350 -0.16600
N 	N 	0.50020 0.57960 0.92060 -0.24800
N 	N 	0.81090 0.62200 0.47770 -0.17900
N 	N 	0.04166 0.08310 0.40284 -0.23400
N 	N 	0.95880 0.44510 0.59650 -0.17800
N 	N 	0.07940 0.57920 0.50020 -0.25600
N 	N 	0.81110 0.71140 0.81090 -0.17500
N 	N 	0.07826 0.57850 0.92084 -0.25400
N 	N 	0.95834 0.91690 0.59716 -0.22600
N 	N 	0.90030 0.37800 0.81110 -0.18300
N 	N 	0.18910 0.37810 0.10060 -0.22400
N 	N 	0.95817 0.91750 0.48593 -0.22100
N 	N 	0.48630 0.44470 0.95880 -0.18000
N 	N 	0.47870 0.37810 0.81100 -0.21400
N 	N 	0.95840 0.55490 0.48630 -0.17900
N 	N 	0.48593 0.44410 0.59657 -0.22800
N 	N 	0.59650 0.55530 0.95840 -0.18100
N 	N 	0.40350 0.44470 0.04160 -0.16400
N 	N 	0.18890 0.28920 0.52190 -0.15800
N 	N 	0.51370 0.55530 0.04120 -0.16500
N 	N 	0.92174 0.42150 0.07916 -0.25600
N 	N 	0.59716 0.55550 0.48594 -0.23300
N 	N 	0.04144 0.55550 0.04166 -0.22400
N 	N 	0.52230 0.71140 0.09970 -0.18300
N 	N 	0.89940 0.71030 0.47870 -0.20000
N 	N 	0.40343 0.91750 0.04067 -0.21400
N 	N 	0.18890 0.71080 0.10030 -0.15900
N 	N 	0.50066 0.42150 0.50024 -0.25900
N 	N 	0.04160 0.44510 0.51370 -0.16500
N 	N 	0.81110 0.28920 0.89970 -0.15300
N 	N 	0.47770 0.28860 0.90030 -0.18500
