data_crystal

_cell_length_a 15.18400
_cell_length_b 16.77750
_cell_length_c 16.77750
_cell_angle_alpha 120.00000
_cell_angle_beta  90.00000
_cell_angle_gamma 90.00000

_symmetry_space_group_name_	'P 1'
_symmetry_space_group_name_H-M	'P 1'

loop_
_symmetry_equiv_pos_as_xyz
  x,y,z

loop_
_atom_site_label
_atom_site_type_symbol
_atom_site_fract_x
_atom_site_fract_y
_atom_site_fract_z
_atom_site_charge
Ni	Ni	0.75000 0.47059 0.73529 1.13500
Ni	Ni	0.25000 0.73530 0.47060 1.13500
Ni	Ni	0.25000 0.73530 0.26471 1.13500
Ni	Ni	0.25000 0.52941 0.26471 1.13500
Ni	Ni	0.75000 0.26470 0.73529 1.13500
Ni	Ni	0.75000 0.26470 0.52940 1.13500
H 	H 	0.94840 0.05820 0.41150 0.05300
H 	H 	0.75000 0.22430 0.21070 0.08800
H 	H 	0.25000 0.21070 0.98640 0.08800
H 	H 	0.75000 0.78930 0.01360 0.08800
H 	H 	0.55160 0.58850 0.94180 0.05300
H 	H 	0.94840 0.35330 0.94180 0.05300
H 	H 	0.44840 0.41150 0.35330 0.05300
H 	H 	0.75000 0.06850 0.36780 0.00800
H 	H 	0.44840 0.41150 0.05820 0.05300
H 	H 	0.75000 0.06850 0.70070 0.00800
H 	H 	0.05160 0.94180 0.58850 0.05300
H 	H 	0.25000 0.93150 0.29930 0.00800
H 	H 	0.55160 0.35330 0.94180 0.05300
H 	H 	0.25000 0.70070 0.63220 0.00800
H 	H 	0.75000 0.98640 0.77570 0.08900
H 	H 	0.94840 0.05820 0.64670 0.05400
H 	H 	0.25000 0.21070 0.22430 0.08900
H 	H 	0.55160 0.05820 0.64670 0.05400
H 	H 	0.44840 0.94180 0.58850 0.05400
H 	H 	0.94840 0.58850 0.94180 0.05400
H 	H 	0.05160 0.41150 0.05820 0.05400
H 	H 	0.05160 0.41150 0.35330 0.05400
H 	H 	0.25000 0.36780 0.06850 0.00900
H 	H 	0.75000 0.29930 0.93150 0.00900
H 	H 	0.25000 0.77570 0.98640 0.08900
H 	H 	0.25000 0.93150 0.63220 0.00900
H 	H 	0.75000 0.78930 0.77570 0.08900
H 	H 	0.25000 0.01360 0.22430 0.08900
H 	H 	0.05160 0.94180 0.35330 0.05400
H 	H 	0.05160 0.64670 0.58850 0.05400
H 	H 	0.75000 0.63220 0.70070 0.00900
H 	H 	0.75000 0.63220 0.93150 0.00900
H 	H 	0.75000 0.98640 0.21070 0.08900
H 	H 	0.25000 0.77570 0.78930 0.08900
H 	H 	0.25000 0.01360 0.78930 0.08900
H 	H 	0.94840 0.58850 0.64670 0.05400
H 	H 	0.94840 0.35330 0.41150 0.05400
H 	H 	0.25000 0.70070 0.06850 0.00900
H 	H 	0.05160 0.64670 0.05820 0.05400
H 	H 	0.44840 0.64670 0.05820 0.05400
H 	H 	0.55160 0.05820 0.41150 0.05400
H 	H 	0.55160 0.35330 0.41150 0.05400
H 	H 	0.75000 0.22430 0.01360 0.08900
H 	H 	0.44840 0.64670 0.58850 0.05400
H 	H 	0.55160 0.58850 0.64670 0.05400
H 	H 	0.44840 0.94180 0.35330 0.05400
H 	H 	0.75000 0.29930 0.36780 0.00900
H 	H 	0.25000 0.36780 0.29930 0.00900
C 	C 	0.25000 0.95550 0.91100 0.10000
C 	C 	0.03126 0.44815 0.41319 -0.01500
C 	C 	0.13025 0.57319 0.42681 0.38700
C 	C 	0.46874 0.96504 0.55185 -0.01500
C 	C 	0.75000 0.80830 0.90415 0.06900
C 	C 	0.75000 0.66438 0.76472 0.09100
C 	C 	0.36975 0.57319 0.14638 0.38700
C 	C 	0.75000 0.75892 0.80928 -0.13800
C 	C 	0.25000 0.33562 0.10034 0.09100
C 	C 	0.63025 0.42681 0.85362 0.38700
C 	C 	0.86975 0.42681 0.85362 0.38700
C 	C 	0.25000 0.94964 0.19072 -0.13700
C 	C 	0.75000 0.09585 0.90415 0.06900
C 	C 	0.53126 0.41319 0.44815 -0.01500
C 	C 	0.25000 0.80928 0.75892 -0.13800
C 	C 	0.25000 0.90415 0.09585 0.06900
C 	C 	0.25000 0.89966 0.23528 0.09100
C 	C 	0.75000 0.04450 0.08900 0.10000
C 	C 	0.96874 0.03496 0.44815 -0.01500
C 	C 	0.43702 0.93024 0.46512 -0.07700
C 	C 	0.03126 0.58681 0.55185 -0.01500
C 	C 	0.25000 0.80928 0.05036 -0.13700
C 	C 	0.86975 0.42681 0.57319 0.38700
C 	C 	0.25000 0.33562 0.23528 0.09100
C 	C 	0.46874 0.58681 0.55185 -0.01500
C 	C 	0.75000 0.23528 0.89966 0.09100
C 	C 	0.75000 0.75892 0.94964 -0.13700
C 	C 	0.25000 0.08900 0.04450 0.10000
C 	C 	0.25000 0.76472 0.66438 0.09100
C 	C 	0.75000 0.05036 0.80928 -0.13700
C 	C 	0.75000 0.19072 0.24108 -0.13800
C 	C 	0.75000 0.23528 0.33562 0.09100
C 	C 	0.13025 0.57319 0.14638 0.38700
C 	C 	0.93702 0.06976 0.53488 -0.07700
C 	C 	0.13025 0.85362 0.42681 0.38700
C 	C 	0.03126 0.96504 0.55185 -0.01500
C 	C 	0.36975 0.57319 0.42681 0.38700
C 	C 	0.63025 0.42681 0.57319 0.38700
C 	C 	0.25000 0.90415 0.80830 0.06900
C 	C 	0.46874 0.44815 0.41319 -0.01500
C 	C 	0.75000 0.10034 0.76472 0.09100
C 	C 	0.56298 0.46512 0.93024 -0.07700
C 	C 	0.06298 0.53488 0.46512 -0.07700
C 	C 	0.46874 0.44815 0.03496 -0.01500
C 	C 	0.03126 0.96504 0.41319 -0.01500
C 	C 	0.25000 0.76472 0.10034 0.09100
C 	C 	0.75000 0.91100 0.95550 0.10000
C 	C 	0.25000 0.89966 0.66438 0.09100
C 	C 	0.25000 0.24108 0.19072 -0.13800
C 	C 	0.96874 0.41319 0.96504 -0.01500
C 	C 	0.75000 0.04450 0.95550 0.10000
C 	C 	0.63025 0.14638 0.57319 0.38700
C 	C 	0.75000 0.05036 0.24108 -0.13700
C 	C 	0.25000 0.24108 0.05036 -0.13700
C 	C 	0.86975 0.14638 0.57319 0.38700
C 	C 	0.46874 0.96504 0.41319 -0.01500
C 	C 	0.96874 0.55185 0.96504 -0.01500
C 	C 	0.03126 0.58681 0.03496 -0.01500
C 	C 	0.93702 0.46512 0.93024 -0.07700
C 	C 	0.53126 0.55185 0.58681 -0.01500
C 	C 	0.06298 0.53488 0.06976 -0.07700
C 	C 	0.93702 0.46512 0.53488 -0.07700
C 	C 	0.36975 0.85362 0.42681 0.38700
C 	C 	0.06298 0.93024 0.46512 -0.07700
C 	C 	0.75000 0.09585 0.19170 0.06900
C 	C 	0.25000 0.94964 0.75892 -0.13700
C 	C 	0.96874 0.03496 0.58681 -0.01500
C 	C 	0.56298 0.46512 0.53488 -0.07700
C 	C 	0.43702 0.53488 0.06976 -0.07700
C 	C 	0.53126 0.55185 0.96504 -0.01500
C 	C 	0.96874 0.41319 0.44815 -0.01500
C 	C 	0.75000 0.19072 0.94964 -0.13700
C 	C 	0.46874 0.58681 0.03496 -0.01500
C 	C 	0.96874 0.55185 0.58681 -0.01500
C 	C 	0.25000 0.19170 0.09585 0.06900
C 	C 	0.25000 0.95550 0.04450 0.10000
C 	C 	0.75000 0.10034 0.33562 0.09100
C 	C 	0.56298 0.06976 0.53488 -0.07700
C 	C 	0.75000 0.66438 0.89966 0.09100
C 	C 	0.53126 0.41319 0.96504 -0.01500
C 	C 	0.03126 0.44815 0.03496 -0.01500
C 	C 	0.43702 0.53488 0.46512 -0.07700
C 	C 	0.53126 0.03496 0.44815 -0.01500
C 	C 	0.53126 0.03496 0.58681 -0.01500
N 	N 	0.75000 0.61650 0.80825 -0.20700
N 	N 	0.25000 0.90608 0.95304 -0.13900
N 	N 	0.75000 0.19175 0.80825 -0.20700
N 	N 	0.25000 0.80825 0.19175 -0.20700
N 	N 	0.75000 0.19175 0.38350 -0.20700
N 	N 	0.75000 0.95304 0.04696 -0.13900
N 	N 	0.75000 0.09392 0.04696 -0.13900
N 	N 	0.75000 0.95304 0.90608 -0.13900
N 	N 	0.25000 0.80825 0.61650 -0.20700
N 	N 	0.25000 0.38350 0.19175 -0.20700
N 	N 	0.25000 0.04696 0.95304 -0.13900
N 	N 	0.25000 0.04696 0.09392 -0.13900
O 	O 	0.84535 0.17444 0.52095 -0.41200
O 	O 	0.15465 0.65349 0.47905 -0.41200
O 	O 	0.15465 0.52095 0.17444 -0.41200
O 	O 	0.15465 0.82556 0.47905 -0.41200
O 	O 	0.84535 0.34651 0.82556 -0.41200
O 	O 	0.34535 0.52095 0.17444 -0.41200
O 	O 	0.84535 0.34651 0.52095 -0.41200
O 	O 	0.34535 0.65349 0.17444 -0.41200
O 	O 	0.65465 0.47905 0.65349 -0.41200
O 	O 	0.65465 0.47905 0.82556 -0.41200
O 	O 	0.84535 0.17444 0.65349 -0.41200
O 	O 	0.34535 0.52095 0.34651 -0.41200
O 	O 	0.25000 0.66667 0.33334 -0.56100
O 	O 	0.15465 0.65349 0.17444 -0.41200
O 	O 	0.84535 0.47905 0.65349 -0.41200
O 	O 	0.34535 0.82556 0.34651 -0.41200
O 	O 	0.34535 0.82556 0.47905 -0.41200
O 	O 	0.65465 0.17444 0.52095 -0.41200
O 	O 	0.34535 0.65349 0.47905 -0.41200
O 	O 	0.15465 0.82556 0.34651 -0.41200
O 	O 	0.65465 0.17444 0.65349 -0.41200
O 	O 	0.84535 0.47905 0.82556 -0.41200
O 	O 	0.75000 0.33333 0.66666 -0.56100
O 	O 	0.65465 0.34651 0.52095 -0.41200
O 	O 	0.15465 0.52095 0.34651 -0.41200
O 	O 	0.65465 0.34651 0.82556 -0.41200
