data_crystal

_cell_length_a 7.18740
_cell_length_b 16.08600
_cell_length_c 16.08600
_cell_angle_alpha 62.17800
_cell_angle_beta  81.43460
_cell_angle_gamma 98.56540

_symmetry_space_group_name_	'P 1'
_symmetry_space_group_name_H-M	'P 1'

loop_
_symmetry_equiv_pos_as_xyz
  x,y,z

loop_
_atom_site_label
_atom_site_type_symbol
_atom_site_fract_x
_atom_site_fract_y
_atom_site_fract_z
_atom_site_charge
Fe	Fe	0.42258 0.41087 0.33158 1.10800
Fe	Fe	0.75416 0.33158 0.25755 1.10800
Fe	Fe	0.24584 0.66842 0.74245 1.10800
Fe	Fe	0.01171 0.25755 0.41087 1.10800
Fe	Fe	0.98829 0.74245 0.58913 1.10900
Fe	Fe	0.57742 0.58913 0.66842 1.10900
H 	H 	0.73540 0.54500 0.44340 0.05700
H 	H 	0.82120 0.55660 0.98840 0.05700
H 	H 	0.80960 0.98840 0.45500 0.05700
H 	H 	0.26460 0.45500 0.55660 0.05700
H 	H 	0.17880 0.44340 0.01160 0.05700
H 	H 	0.19040 0.01160 0.54500 0.05700
C 	C 	0.80040 0.59860 0.81760 0.40300
C 	C 	0.09190 0.54610 0.54560 -0.15200
C 	C 	0.31150 0.46700 0.00670 -0.04200
C 	C 	0.56070 0.48870 0.08430 0.06200
C 	C 	0.64500 0.08430 0.42700 0.06200
C 	C 	0.19960 0.40140 0.18240 0.40300
C 	C 	0.43930 0.51130 0.91570 0.06200
C 	C 	0.84450 0.52630 0.46700 -0.04200
C 	C 	0.45420 0.09170 0.45390 -0.15200
C 	C 	0.20180 0.58380 0.59860 0.40300
C 	C 	0.38200 0.18240 0.41620 0.40300
C 	C 	0.54580 0.90830 0.54610 -0.15200
C 	C 	0.92800 0.57300 0.51130 0.06200
C 	C 	0.68180 0.99330 0.47370 -0.04300
C 	C 	0.07200 0.42700 0.48870 0.06200
C 	C 	0.35500 0.91570 0.57300 0.06200
C 	C 	0.31820 0.00670 0.52630 -0.04300
C 	C 	0.15550 0.47370 0.53300 -0.04200
C 	C 	0.90810 0.45390 0.45440 -0.15200
C 	C 	0.68850 0.53300 0.99330 -0.04200
C 	C 	0.79820 0.41620 0.40140 0.40300
C 	C 	0.61800 0.81760 0.58380 0.40300
C 	C 	0.63750 0.54560 0.90830 -0.15200
C 	C 	0.36250 0.45440 0.09170 -0.15200
S 	S 	0.81897 0.66400 0.51329 -0.38600
S 	S 	0.84503 0.17729 0.33600 -0.38600
S 	S 	0.66774 0.48671 0.17729 -0.38600
S 	S 	0.15497 0.82271 0.66400 -0.38600
S 	S 	0.33226 0.51329 0.82271 -0.38600
S 	S 	0.18103 0.33600 0.48671 -0.38600
O 	O 	0.79817 0.83004 0.55763 -0.47200
O 	O 	0.23059 0.36929 0.26642 -0.57800
O 	O 	0.49701 0.26642 0.36429 -0.57800
O 	O 	0.86130 0.36429 0.36929 -0.57800
O 	O 	0.03187 0.38767 0.16996 -0.47200
O 	O 	0.96813 0.61233 0.83004 -0.47200
O 	O 	0.76941 0.63071 0.73358 -0.57800
O 	O 	0.13870 0.63571 0.63071 -0.57800
O 	O 	0.50299 0.73358 0.63571 -0.57800
O 	O 	0.64420 0.44237 0.38767 -0.47200
O 	O 	0.20183 0.16996 0.44237 -0.47200
O 	O 	0.35580 0.55763 0.61233 -0.47200
