data_crystal

_cell_length_a 8.47300
_cell_length_b 8.87030
_cell_length_c 15.96130
_cell_angle_alpha 88.11300
_cell_angle_beta  75.34900
_cell_angle_gamma 68.28500

_symmetry_space_group_name_	'P 1'
_symmetry_space_group_name_H-M	'P 1'

loop_
_symmetry_equiv_pos_as_xyz
  x,y,z

loop_
_atom_site_label
_atom_site_type_symbol
_atom_site_fract_x
_atom_site_fract_y
_atom_site_fract_z
_atom_site_charge
Li	Li	0.85020 0.79840 0.62670 0.56200
Li	Li	0.51810 0.79770 0.64660 0.55600
Li	Li	0.17500 0.81160 0.67540 0.56100
Li	Li	0.51260 0.80550 0.15050 0.56200
Zr	Zr	0.39310 0.26860 0.41320 3.19900
Zr	Zr	0.63030 0.34140 0.88900 3.19900
C 	C 	0.36180 0.02060 0.54910 0.21400
C 	C 	0.34500 0.05480 0.28180 0.11000
C 	C 	0.67820 0.55560 0.02020 0.20000
C 	C 	0.98320 0.06850 0.80020 0.19200
C 	C 	0.84780 0.05170 0.75630 0.22900
C 	C 	0.37690 0.17280 0.98150 0.29300
C 	C 	0.53790 0.10280 0.01980 0.16800
C 	C 	0.17540 0.55900 0.54560 0.28000
C 	C 	0.53810 0.03590 0.54700 0.20900
C 	C 	0.48030 0.62380 0.02510 0.23300
C 	C 	0.64690 0.43680 0.32070 0.22300
C 	C 	0.66370 0.58720 0.75210 0.26100
C 	C 	0.48590 0.50700 0.28240 0.28300
C 	C 	0.03990 0.54080 0.50220 0.21200
C 	C 	0.48740 0.57250 0.75400 0.25500
C 	C 	0.54270 0.98570 0.27750 0.36200
O 	O 	0.58530 0.06250 0.33070 -0.62900
O 	O 	0.46870 0.61370 0.23100 -0.24000
O 	O 	0.37240 0.43640 0.31180 -0.57600
O 	O 	0.64440 0.86870 0.22620 -0.24300
O 	O 	0.62910 0.94810 0.59390 -0.28800
O 	O 	0.44950 0.47150 0.80590 -0.50700
O 	O 	0.28640 0.98810 0.23700 -0.14000
O 	O 	0.76670 0.42750 0.96690 -0.47500
O 	O 	0.69170 0.15780 0.78340 -0.56500
O 	O 	0.70740 0.68860 0.70540 -0.34100
O 	O 	0.43770 0.54660 0.97210 -0.55100
O 	O 	0.10550 0.42010 0.44460 -0.49400
O 	O 	0.91790 0.18920 0.85780 -0.48500
O 	O 	0.88470 0.63810 0.52430 -0.23200
O 	O 	0.33170 0.45350 0.51830 -0.56900
O 	O 	0.55530 0.99590 0.07110 -0.18000
O 	O 	0.24720 0.13560 0.00750 -0.19100
O 	O 	0.77660 0.47410 0.29480 -0.13300
O 	O 	0.65120 0.17360 0.99050 -0.54000
O 	O 	0.37850 0.74050 0.07650 -0.21600
O 	O 	0.75030 0.49100 0.80030 -0.54900
O 	O 	0.13790 0.97040 0.77830 -0.20500
O 	O 	0.90140 0.93890 0.69890 -0.28700
O 	O 	0.12170 0.67210 0.60290 -0.33900
O 	O 	0.25670 0.18270 0.33520 -0.47900
O 	O 	0.62800 0.33680 0.38040 -0.50000
O 	O 	0.73690 0.62290 0.06460 -0.19700
O 	O 	0.39840 0.65800 0.70560 -0.33200
O 	O 	0.27360 0.11850 0.50200 -0.55300
O 	O 	0.57370 0.13940 0.49650 -0.50400
O 	O 	0.39600 0.27240 0.92160 -0.51600
O 	O 	0.32000 0.91730 0.59480 -0.30700
