data_crystal

_cell_length_a 20.29900
_cell_length_b 20.33100
_cell_length_c 20.33100
_cell_angle_alpha 90.00000
_cell_angle_beta  90.00000
_cell_angle_gamma 90.00000

_symmetry_space_group_name_	'P 1'
_symmetry_space_group_name_H-M	'P 1'

loop_
_symmetry_equiv_pos_as_xyz
  x,y,z

loop_
_atom_site_label
_atom_site_type_symbol
_atom_site_fract_x
_atom_site_fract_y
_atom_site_fract_z
_atom_site_charge
Na	Na	0.86500 0.81460 0.81460 0.56000
Na	Na	0.13500 0.81460 0.81460 0.55600
Na	Na	0.86500 0.18540 0.18540 0.56200
Na	Na	0.86500 0.18540 0.81460 0.56100
Na	Na	0.86500 0.81460 0.18540 0.56100
Na	Na	0.13500 0.18540 0.81460 0.55700
Na	Na	0.13500 0.81460 0.18540 0.55700
Na	Na	0.13500 0.18540 0.18540 0.55800
Cd	Cd	0.00000 0.90290 0.90290 1.14500
Cd	Cd	0.00000 0.09710 0.90290 1.15000
Cd	Cd	-0.00000 0.09710 0.09710 1.15400
Cd	Cd	0.00000 0.90290 0.09710 1.15100
Cd	Cd	0.50000 0.94812 0.50000 1.04500
Cd	Cd	0.50000 0.50000 0.05188 1.06100
Cd	Cd	0.50000 0.05188 0.50000 1.06100
Cd	Cd	0.50000 0.50000 0.94812 1.04500
H 	H 	0.22930 0.90040 0.75330 -0.03400
H 	H 	0.77070 0.90040 0.24670 -0.02700
H 	H 	0.22930 0.75330 0.09960 -0.03600
H 	H 	0.74490 0.00000 0.43950 0.05300
H 	H 	0.22930 0.09960 0.24670 -0.03400
H 	H 	0.31990 0.68200 0.09970 0.05300
H 	H 	0.74490 0.43950 -0.00000 0.05300
H 	H 	0.74490 0.00000 0.56050 0.05300
H 	H 	0.68010 0.09970 0.31800 0.05600
H 	H 	0.68010 0.68200 0.09970 0.05400
H 	H 	0.22930 0.75330 0.90040 -0.03400
H 	H 	0.68010 0.68200 0.90030 0.05400
H 	H 	0.56060 0.00000 0.74770 0.04900
H 	H 	0.31990 0.31800 0.09970 0.05400
H 	H 	0.25510 0.43950 -0.00000 0.04700
H 	H 	0.43940 0.00000 0.25230 0.05200
H 	H 	0.77070 0.75330 0.90040 -0.02900
H 	H 	0.25510 0.00000 0.43950 0.04700
H 	H 	0.77070 0.09960 0.75330 -0.03100
H 	H 	0.68010 0.31800 0.09970 0.05600
H 	H 	0.31990 0.09970 0.31800 0.05400
H 	H 	0.31990 0.09970 0.68200 0.05300
H 	H 	0.31990 0.68200 0.90030 0.05200
H 	H 	0.56060 0.74770 -0.00000 0.04900
H 	H 	0.68010 0.09970 0.68200 0.05400
H 	H 	0.56060 0.25230 -0.00000 0.05300
H 	H 	0.31990 0.31800 0.90030 0.05300
H 	H 	0.25510 0.00000 0.56050 0.04700
H 	H 	0.31990 0.90030 0.68200 0.05200
H 	H 	0.74490 0.56050 -0.00000 0.05300
H 	H 	0.68010 0.31800 0.90030 0.05500
H 	H 	0.68010 0.90030 0.68200 0.05400
H 	H 	0.22930 0.09960 0.75330 -0.03600
H 	H 	0.77070 0.24670 0.09960 -0.02900
H 	H 	0.77070 0.24670 0.90040 -0.02700
H 	H 	0.43940 0.00000 0.74770 0.04900
H 	H 	0.25510 0.56050 -0.00000 0.04700
H 	H 	0.43940 0.25230 -0.00000 0.05200
H 	H 	0.77070 0.09960 0.24670 -0.02900
H 	H 	0.43940 0.74770 -0.00000 0.04900
H 	H 	0.22930 0.24670 0.09960 -0.03400
H 	H 	0.22930 0.24670 0.90040 -0.03200
H 	H 	0.22930 0.90040 0.24670 -0.03200
H 	H 	0.68010 0.90030 0.31800 0.05500
H 	H 	0.56060 0.00000 0.25230 0.05300
H 	H 	0.77070 0.75330 0.09960 -0.03100
H 	H 	0.31990 0.90030 0.31800 0.05300
H 	H 	0.77070 0.90040 0.75330 -0.02900
C 	C 	0.30050 0.05924 0.30480 -0.16200
C 	C 	0.44519 0.64650 -0.00000 0.06000
C 	C 	0.24670 0.73750 0.05922 0.03700
C 	C 	0.69950 0.05924 0.30480 -0.16000
C 	C 	0.35650 0.55476 -0.00000 0.05700
C 	C 	0.67420 0.00000 0.32780 0.13500
C 	C 	0.38040 0.00000 0.37970 -0.17900
C 	C 	0.24670 0.26250 0.94078 0.01400
C 	C 	0.67420 0.32780 -0.00000 0.13500
C 	C 	0.53337 0.70970 -0.00000 -0.09200
C 	C 	0.16100 0.20160 -0.00000 0.14100
C 	C 	0.78160 0.24330 -0.00000 -0.07700
C 	C 	0.32580 0.00000 0.67220 0.13400
C 	C 	0.83900 0.20160 -0.00000 0.14500
C 	C 	0.83900 0.79840 -0.00000 0.14200
C 	C 	0.75330 0.26250 0.94078 0.01400
C 	C 	0.38040 0.37970 -0.00000 -0.17900
C 	C 	0.16100 -0.00000 0.79840 0.13800
C 	C 	0.69950 0.30480 0.94076 -0.18600
C 	C 	0.35650 0.00000 0.55476 0.05700
C 	C 	0.75330 0.94078 0.26250 0.01400
C 	C 	0.75330 0.73750 0.94078 0.01300
C 	C 	0.44519 0.00000 0.35350 0.06100
C 	C 	0.46663 0.29030 -0.00000 -0.09100
C 	C 	0.75330 0.73750 0.05922 0.03800
C 	C 	0.30050 0.30480 0.05924 -0.16200
C 	C 	0.38040 0.62030 -0.00000 -0.17900
C 	C 	0.53337 0.00000 0.70970 -0.09200
C 	C 	0.24670 0.73750 0.94078 0.01200
C 	C 	0.46663 0.00000 0.70970 -0.09200
C 	C 	0.55481 0.00000 0.64650 0.06000
C 	C 	0.61960 0.37970 -0.00000 -0.17800
C 	C 	0.21840 0.24330 -0.00000 -0.08100
C 	C 	0.64350 0.00000 0.44524 0.05800
C 	C 	0.78160 0.00000 0.75670 -0.07800
C 	C 	0.75330 0.05922 0.73750 0.03800
C 	C 	0.78160 0.00000 0.24330 -0.07700
C 	C 	0.69950 0.30480 0.05924 -0.16000
C 	C 	0.35650 0.44524 -0.00000 0.05700
C 	C 	0.67420 0.67220 -0.00000 0.13400
C 	C 	0.70690 0.53332 -0.00000 -0.09000
C 	C 	0.75330 0.94078 0.73750 0.01300
C 	C 	0.53337 0.00000 0.29030 -0.09000
C 	C 	0.44519 0.00000 0.64650 0.06000
C 	C 	0.61960 0.00000 0.62030 -0.17900
C 	C 	0.16100 0.00000 0.20160 0.14100
C 	C 	0.21840 0.00000 0.75670 -0.08300
C 	C 	0.64350 0.00000 0.55476 0.05800
C 	C 	0.83900 0.00000 0.20160 0.14500
C 	C 	0.46663 0.70970 -0.00000 -0.09200
C 	C 	0.75330 0.26250 0.05922 0.03900
C 	C 	0.24670 0.94078 0.26250 0.01400
C 	C 	0.30050 0.69520 0.05924 -0.16300
C 	C 	0.30050 0.94076 0.69520 -0.18900
C 	C 	0.32580 0.32780 -0.00000 0.13500
C 	C 	0.69950 0.69520 0.05924 -0.16100
C 	C 	0.24670 0.05922 0.73750 0.03700
C 	C 	0.21840 0.75670 -0.00000 -0.08300
C 	C 	0.32580 0.00000 0.32780 0.13500
C 	C 	0.83900 -0.00000 0.79840 0.14200
C 	C 	0.29310 0.00000 0.46668 -0.09200
C 	C 	0.61960 0.00000 0.37970 -0.17800
C 	C 	0.29310 0.53332 -0.00000 -0.09200
C 	C 	0.30050 0.05924 0.69520 -0.16300
C 	C 	0.67420 0.00000 0.67220 0.13400
C 	C 	0.38040 0.00000 0.62030 -0.17900
C 	C 	0.64350 0.55476 -0.00000 0.05800
C 	C 	0.24670 0.05922 0.26250 0.03900
C 	C 	0.70690 0.00000 0.53332 -0.09000
C 	C 	0.70690 0.46668 -0.00000 -0.09000
C 	C 	0.53337 0.29030 -0.00000 -0.09000
C 	C 	0.55481 0.35350 -0.00000 0.06100
C 	C 	0.24670 0.94078 0.73750 0.01200
C 	C 	0.78160 0.75670 -0.00000 -0.07800
C 	C 	0.69950 0.05924 0.69520 -0.16100
C 	C 	0.75330 0.05922 0.26250 0.03900
C 	C 	0.29310 0.46668 -0.00000 -0.09200
C 	C 	0.61960 0.62030 -0.00000 -0.17900
C 	C 	0.29310 0.00000 0.53332 -0.09200
C 	C 	0.30050 0.94076 0.30480 -0.18800
C 	C 	0.32580 0.67220 -0.00000 0.13400
C 	C 	0.44519 0.35350 -0.00000 0.06100
C 	C 	0.16100 0.79840 -0.00000 0.13800
C 	C 	0.21840 0.00000 0.24330 -0.08100
C 	C 	0.69950 0.69520 0.94076 -0.18700
C 	C 	0.69950 0.94076 0.30480 -0.18600
C 	C 	0.64350 0.44524 -0.00000 0.05800
C 	C 	0.30050 0.30480 0.94076 -0.18800
C 	C 	0.24670 0.26250 0.05922 0.03900
C 	C 	0.69950 0.94076 0.69520 -0.18700
C 	C 	0.70690 0.00000 0.46668 -0.09000
C 	C 	0.35650 0.00000 0.44524 0.05700
C 	C 	0.55481 0.00000 0.35350 0.06100
C 	C 	0.46663 0.00000 0.29030 -0.09100
C 	C 	0.55481 0.64650 -0.00000 0.06000
C 	C 	0.30050 0.69520 0.94076 -0.18900
N 	N 	0.50000 0.00000 0.60470 -0.35200
N 	N 	0.86960 0.05500 0.18160 -0.15200
N 	N 	0.13040 0.94500 0.81840 -0.17300
N 	N 	0.92062 0.14650 0.96788 -0.20100
N 	N 	0.13040 0.81840 0.94500 -0.17300
N 	N 	0.86960 0.18160 0.94500 -0.16600
N 	N 	0.86960 0.81840 0.05500 -0.15300
N 	N 	0.07938 0.03212 0.85350 -0.19300
N 	N 	0.07938 0.03212 0.14650 -0.19000
N 	N 	0.07938 0.85350 0.96788 -0.21900
N 	N 	0.92062 0.96788 0.85350 -0.20500
N 	N 	0.86960 0.05500 0.81840 -0.15300
N 	N 	0.13040 0.94500 0.18160 -0.17200
N 	N 	0.07938 0.14650 0.03212 -0.19000
N 	N 	0.86960 0.94500 0.81840 -0.16700
N 	N 	0.92062 0.96788 0.14650 -0.20100
N 	N 	0.86960 0.81840 0.94500 -0.16700
N 	N 	0.50000 0.60470 -0.00000 -0.35200
N 	N 	0.60170 0.00000 0.50000 -0.36600
N 	N 	0.13040 0.05500 0.18160 -0.15800
N 	N 	0.13040 0.18160 0.05500 -0.15800
N 	N 	0.92062 0.14650 0.03212 -0.17500
N 	N 	0.86960 0.94500 0.18160 -0.16600
N 	N 	0.39830 0.00000 0.50000 -0.36600
N 	N 	0.50000 0.39530 -0.00000 -0.35200
N 	N 	0.92062 0.85350 0.96788 -0.20500
N 	N 	0.92062 0.03212 0.85350 -0.17800
N 	N 	0.92062 0.03212 0.14650 -0.17500
N 	N 	0.39830 0.50000 -0.00000 -0.36600
N 	N 	0.07938 0.96788 0.14650 -0.21600
N 	N 	0.13040 0.05500 0.81840 -0.15900
N 	N 	0.60170 0.50000 -0.00000 -0.36600
N 	N 	0.07938 0.96788 0.85350 -0.21900
N 	N 	0.50000 -0.00000 0.39530 -0.35200
N 	N 	0.86960 0.18160 0.05500 -0.15200
N 	N 	0.13040 0.81840 0.05500 -0.15900
N 	N 	0.92062 0.85350 0.03212 -0.17800
N 	N 	0.13040 0.18160 0.94500 -0.17200
N 	N 	0.07938 0.14650 0.96788 -0.21600
N 	N 	0.07938 0.85350 0.03212 -0.19300
Cl	Cl	0.00000 0.82060 0.17940 -0.76700
Cl	Cl	-0.00000 0.17940 0.17940 -0.76000
Cl	Cl	0.00000 0.82060 0.82060 -0.77400
Cl	Cl	0.00000 0.17940 0.82060 -0.76700
