data_crystal

_cell_length_a 13.84890
_cell_length_b 13.84890
_cell_length_c 14.03030
_cell_angle_alpha 70.67890
_cell_angle_beta  67.43100
_cell_angle_gamma 106.02100

_symmetry_space_group_name_	'P 1'
_symmetry_space_group_name_H-M	'P 1'

loop_
_symmetry_equiv_pos_as_xyz
  x,y,z

loop_
_atom_site_label
_atom_site_type_symbol
_atom_site_fract_x
_atom_site_fract_y
_atom_site_fract_z
_atom_site_charge
Li	Li	0.31650 0.64480 0.93690 0.56400
Li	Li	0.06920 0.14740 0.68860 0.56200
Li	Li	0.68350 0.35520 0.06310 0.56500
Li	Li	0.93080 0.85260 0.31140 0.56300
Li	Li	0.83600 0.25780 0.81140 0.56300
Li	Li	0.41830 0.24660 0.43690 0.56600
Li	Li	0.58170 0.75340 0.56310 0.56600
Li	Li	0.16400 0.74220 0.18860 0.56300
Zr	Zr	0.87675 0.24999 0.37415 3.20300
Zr	Zr	0.12325 0.75001 0.62585 3.20300
Zr	Zr	0.37586 0.24910 0.87415 3.20300
Zr	Zr	0.62414 0.75090 0.12585 3.20300
C 	C 	0.27065 0.98721 0.01000 0.26600
C 	C 	0.38390 0.71494 0.15580 0.25900
C 	C 	0.17886 0.01458 0.08454 0.29500
C 	C 	0.09912 0.76340 0.41546 0.27200
C 	C 	0.36923 0.45762 0.90043 0.26100
C 	C 	0.64195 0.23034 0.40043 0.26100
C 	C 	0.00279 0.21935 0.51000 0.27800
C 	C 	0.72155 0.26624 0.26961 0.29600
C 	C 	0.72935 0.01279 0.99000 0.26600
C 	C 	0.34744 0.25483 0.66761 0.27200
C 	C 	0.07756 0.48495 0.16761 0.27900
C 	C 	0.00195 0.48692 0.74615 0.26100
C 	C 	0.61610 0.28506 0.84420 0.25900
C 	C 	0.46415 0.50884 0.76961 0.29500
C 	C 	0.99721 0.78065 0.49000 0.27800
C 	C 	0.35805 0.76966 0.59957 0.26100
C 	C 	0.65256 0.74517 0.33239 0.27200
C 	C 	0.99805 0.51308 0.25385 0.26100
C 	C 	0.12926 0.96030 0.65580 0.25100
C 	C 	0.53948 0.26055 0.97161 0.28400
C 	C 	0.46052 0.73945 0.02839 0.28400
C 	C 	0.76784 0.98891 0.47161 0.29800
C 	C 	0.87074 0.03970 0.34420 0.25100
C 	C 	0.23307 0.24810 0.75385 0.27200
C 	C 	0.76693 0.75190 0.24615 0.27200
C 	C 	0.63077 0.54238 0.09957 0.26100
C 	C 	0.92244 0.51505 0.83239 0.27900
C 	C 	0.90088 0.23660 0.58454 0.27200
C 	C 	0.27845 0.73376 0.73039 0.29600
C 	C 	0.53585 0.49116 0.23039 0.29500
C 	C 	0.23216 0.01109 0.52839 0.29800
C 	C 	0.82114 0.98542 0.91546 0.29500
O 	O 	0.91333 0.06410 0.82871 -0.29000
O 	O 	0.63434 0.73040 0.42914 -0.27600
O 	O 	0.04545 0.37629 0.20814 -0.52800
O 	O 	0.25932 0.88950 0.04200 -0.26900
O 	O 	0.72018 0.30949 0.80131 -0.26000
O 	O 	0.83333 0.24575 0.54356 -0.52900
O 	O 	0.76546 0.74537 0.15721 -0.56000
O 	O 	0.41557 0.24641 0.70814 -0.53200
O 	O 	0.56044 0.27790 0.78956 -0.51200
O 	O 	0.27982 0.69051 0.19869 -0.26000
O 	O 	0.97621 0.38912 0.76311 -0.25900
O 	O 	0.23454 0.25463 0.84279 -0.56000
O 	O 	0.08667 0.93590 0.17129 -0.29000
O 	O 	0.88920 0.97851 0.30131 -0.25800
O 	O 	0.35680 0.07675 0.91239 -0.56200
O 	O 	0.23701 0.93287 0.49946 -0.57400
O 	O 	0.15954 0.56348 0.07086 -0.27600
O 	O 	0.82367 0.27412 0.24445 -0.57900
O 	O 	0.31469 0.71771 0.79692 -0.29000
O 	O 	0.06746 0.85000 0.71044 -0.51300
O 	O 	0.84046 0.43652 0.92914 -0.27600
O 	O 	0.53744 0.20437 0.44413 -0.25700
O 	O 	0.09742 0.57733 0.65721 -0.55600
O 	O 	0.10719 0.75796 0.32871 -0.28000
O 	O 	0.29778 0.11341 0.46559 -0.28000
O 	O 	0.78931 0.87689 0.95644 -0.52800
O 	O 	0.21069 0.12311 0.04356 -0.52800
O 	O 	0.42100 0.73663 0.96559 -0.27600
O 	O 	0.70222 0.88659 0.53441 -0.28000
O 	O 	0.11080 0.02149 0.69869 -0.25800
O 	O 	0.95455 0.62371 0.79186 -0.52800
O 	O 	0.64850 0.48157 0.05587 -0.25900
O 	O 	0.35150 0.51843 0.94413 -0.25900
O 	O 	0.68654 0.65253 0.04309 -0.51700
O 	O 	0.06850 0.19868 0.54200 -0.27200
O 	O 	0.16667 0.75425 0.45644 -0.52900
O 	O 	0.98914 0.76919 0.58761 -0.55800
O 	O 	0.51463 0.61161 0.70308 -0.28800
O 	O 	0.31346 0.34747 0.95691 -0.51700
O 	O 	0.17633 0.72588 0.75555 -0.57900
O 	O 	0.48537 0.38839 0.29692 -0.28800
O 	O 	0.36566 0.26960 0.57086 -0.27600
O 	O 	0.51857 0.56812 0.25555 -0.57700
O 	O 	0.68531 0.28229 0.20308 -0.29000
O 	O 	0.43956 0.72210 0.21044 -0.51200
O 	O 	0.57900 0.26337 0.03441 -0.27600
O 	O 	0.69562 0.22963 0.45691 -0.51400
O 	O 	0.43233 0.23647 0.00054 -0.56500
O 	O 	0.46256 0.79563 0.55587 -0.25700
O 	O 	0.93254 0.15000 0.28956 -0.51300
O 	O 	0.30438 0.77037 0.54309 -0.51400
O 	O 	0.01086 0.23081 0.41239 -0.55800
O 	O 	0.56767 0.76353 0.99946 -0.56500
O 	O 	0.93150 0.80132 0.45800 -0.27200
O 	O 	0.15223 0.23932 0.73689 -0.26800
O 	O 	0.02379 0.61088 0.23689 -0.25900
O 	O 	0.48143 0.43188 0.74445 -0.57700
O 	O 	0.64320 0.92325 0.08761 -0.56200
O 	O 	0.84777 0.76068 0.26311 -0.26800
O 	O 	0.89281 0.24204 0.67129 -0.28000
O 	O 	0.90258 0.42267 0.34279 -0.55600
O 	O 	0.58443 0.75359 0.29186 -0.53200
O 	O 	0.74068 0.11050 0.95800 -0.26900
O 	O 	0.76299 0.06713 0.50054 -0.57400
