data_crystal

_cell_length_a 13.79950
_cell_length_b 13.79950
_cell_length_c 13.92850
_cell_angle_alpha 70.52870
_cell_angle_beta  67.24260
_cell_angle_gamma 105.84900

_symmetry_space_group_name_	'P 1'
_symmetry_space_group_name_H-M	'P 1'

loop_
_symmetry_equiv_pos_as_xyz
  x,y,z

loop_
_atom_site_label
_atom_site_type_symbol
_atom_site_fract_x
_atom_site_fract_y
_atom_site_fract_z
_atom_site_charge
Li	Li	0.08160 0.75440 0.06380 0.56500
Li	Li	0.33760 0.26020 0.31220 0.56300
Li	Li	0.18180 0.35460 0.56380 0.56500
Li	Li	0.42760 0.85020 0.81220 0.56300
Li	Li	0.81820 0.64540 0.43620 0.56500
Li	Li	0.57240 0.14980 0.18780 0.56300
Li	Li	0.66240 0.73980 0.68780 0.56400
Li	Li	0.91840 0.24560 0.93620 0.56600
Zr	Zr	0.37549 0.24909 0.87472 3.20200
Zr	Zr	0.12381 0.75020 0.62528 3.20300
Zr	Zr	0.62452 0.75091 0.12528 3.20200
Zr	Zr	0.87619 0.24979 0.37472 3.20300
C 	C 	0.11923 0.28764 0.34249 0.25900
C 	C 	0.03891 0.49014 0.72471 0.28700
C 	C 	0.36987 0.03828 0.84249 0.25100
C 	C 	0.96109 0.50986 0.27529 0.28700
C 	C 	0.49394 0.51355 0.75253 0.26700
C 	C 	0.03930 0.25695 0.47365 0.28900
C 	C 	0.78515 0.73638 0.22471 0.29000
C 	C 	0.50606 0.48645 0.24747 0.26700
C 	C 	0.26940 0.98705 0.97365 0.28900
C 	C 	0.13534 0.22357 0.90925 0.25800
C 	C 	0.15077 0.73983 0.83498 0.26900
C 	C 	0.73060 0.01295 0.02635 0.28900
C 	C 	0.96070 0.74305 0.52635 0.28900
C 	C 	0.73392 0.25353 0.25253 0.26700
C 	C 	0.59660 0.76179 0.91599 0.27200
C 	C 	0.88077 0.71236 0.65751 0.25900
C 	C 	0.86718 0.45541 0.40925 0.25900
C 	C 	0.21485 0.26362 0.77529 0.29000
C 	C 	0.13282 0.54459 0.59075 0.25900
C 	C 	0.50497 0.21866 0.00873 0.27900
C 	C 	0.86466 0.77643 0.09075 0.25800
C 	C 	0.57481 0.48575 0.66502 0.26900
C 	C 	0.40340 0.23821 0.08401 0.27200
C 	C 	0.42519 0.51425 0.33498 0.26900
C 	C 	0.63013 0.96172 0.15751 0.25100
C 	C 	0.22739 0.01370 0.49127 0.28100
C 	C 	0.49503 0.78134 0.99127 0.27900
C 	C 	0.26608 0.74647 0.74747 0.26700
C 	C 	0.84923 0.26017 0.16502 0.26900
C 	C 	0.67778 0.01259 0.58401 0.26600
C 	C 	0.77261 0.98630 0.50873 0.28100
C 	C 	0.32222 0.98741 0.41599 0.26600
O 	O 	0.22433 0.31570 0.29821 -0.26200
O 	O 	0.80759 0.77565 0.03630 -0.51600
O 	O 	0.51189 0.23022 0.91019 -0.56200
O 	O 	0.91721 0.24982 0.20599 -0.53200
O 	O 	0.68186 0.72790 0.25296 -0.57500
O 	O 	0.29132 0.87881 0.45615 -0.52900
O 	O 	0.97044 0.80575 0.04441 -0.25900
O 	O 	0.26446 0.74041 0.65735 -0.55400
O 	O 	0.39612 0.24405 0.17147 -0.27800
O 	O 	0.92108 0.74216 0.46212 -0.27700
O 	O 	0.73524 0.93509 0.99617 -0.55900
O 	O 	0.86816 0.27575 0.06671 -0.27500
O 	O 	0.01914 0.56518 0.75296 -0.57600
O 	O 	0.02956 0.19425 0.95559 -0.25900
O 	O 	0.26476 0.06491 0.00383 -0.55900
O 	O 	0.60224 0.57819 0.15735 -0.55500
O 	O 	0.13184 0.72425 0.93329 -0.27500
O 	O 	0.73554 0.25959 0.34265 -0.55400
O 	O 	0.14984 0.48515 0.54441 -0.25700
O 	O 	0.99047 0.38572 0.79107 -0.28300
O 	O 	0.34246 0.43487 0.43329 -0.27400
O 	O 	0.06244 0.28090 0.28780 -0.50800
O 	O 	0.98086 0.43482 0.24704 -0.57500
O 	O 	0.48042 0.38828 0.26432 -0.26400
O 	O 	0.34740 0.75526 0.76432 -0.26400
O 	O 	0.39776 0.42181 0.84265 -0.55500
O 	O 	0.51958 0.61172 0.73568 -0.26400
O 	O 	0.93126 0.23141 0.50383 -0.56900
O 	O 	0.31814 0.27210 0.74704 -0.57500
O 	O 	0.20428 0.88320 0.03788 -0.28000
O 	O 	0.93756 0.71910 0.71220 -0.50800
O 	O 	0.77567 0.68430 0.70179 -0.26200
O 	O 	0.41552 0.06759 0.32853 -0.27500
O 	O 	0.70868 0.12119 0.54385 -0.52900
O 	O 	0.33496 0.24747 0.04385 -0.52700
O 	O 	0.82321 0.71846 0.29107 -0.28600
O 	O 	0.79572 0.11680 0.96212 -0.28000
O 	O 	0.60388 0.75595 0.82853 -0.27800
O 	O 	0.23784 0.11142 0.45882 -0.27300
O 	O 	0.42976 0.80334 0.95882 -0.27200
O 	O 	0.43130 0.14976 0.78780 -0.51100
O 	O 	0.45581 0.62320 0.29401 -0.53200
O 	O 	0.76216 0.88858 0.54118 -0.27300
O 	O 	0.08279 0.75018 0.79401 -0.53200
O 	O 	0.85016 0.51485 0.45559 -0.25700
O 	O 	0.56870 0.85024 0.21220 -0.51100
O 	O 	0.38609 0.97746 0.79821 -0.25700
O 	O 	0.48811 0.76978 0.08981 -0.56200
O 	O 	0.00953 0.61428 0.20893 -0.28300
O 	O 	0.61391 0.02254 0.20179 -0.25700
O 	O 	0.54419 0.37680 0.70599 -0.53200
O 	O 	0.07892 0.25784 0.53788 -0.27700
O 	O 	0.19241 0.22435 0.96370 -0.51500
O 	O 	0.85959 0.07792 0.41019 -0.56100
O 	O 	0.06874 0.76859 0.49617 -0.56900
O 	O 	0.65260 0.24474 0.23568 -0.26400
O 	O 	0.58448 0.93241 0.67147 -0.27500
O 	O 	0.14041 0.92208 0.58981 -0.56100
O 	O 	0.18805 0.65611 0.53630 -0.51300
O 	O 	0.17679 0.28154 0.70893 -0.28600
O 	O 	0.81195 0.34389 0.46370 -0.51300
O 	O 	0.57024 0.19666 0.04118 -0.27200
O 	O 	0.65754 0.56513 0.56671 -0.27400
O 	O 	0.66504 0.75253 0.95615 -0.52700
