data_crystal

_cell_length_a 19.90500
_cell_length_b 20.55000
_cell_length_c 20.55000
_cell_angle_alpha 90.00000
_cell_angle_beta  90.00000
_cell_angle_gamma 90.00000

_symmetry_space_group_name_	'P 1'
_symmetry_space_group_name_H-M	'P 1'

loop_
_symmetry_equiv_pos_as_xyz
  x,y,z

loop_
_atom_site_label
_atom_site_type_symbol
_atom_site_fract_x
_atom_site_fract_y
_atom_site_fract_z
_atom_site_charge
Mn	Mn	0.50000 0.40588 0.59412 1.16500
Mn	Mn	0.50000 0.59412 0.59412 1.16600
Mn	Mn	-0.00000 0.50000 -0.00000 1.55200
Mn	Mn	0.50000 0.59412 0.40588 1.16600
Mn	Mn	0.00000 0.00000 0.50000 1.55300
Mn	Mn	0.50000 0.40588 0.40588 1.16600
H 	H 	0.72520 0.74910 0.59860 0.03400
H 	H 	0.81340 0.17550 0.40140 0.06100
H 	H 	0.74950 0.06120 0.50000 0.06000
H 	H 	0.06260 0.75650 0.50000 0.06800
H 	H 	0.72520 0.59860 0.25090 0.03200
H 	H 	0.00000 0.50000 0.05700 -0.35400
H 	H 	0.27480 0.74910 0.59860 0.03200
H 	H 	0.00000 0.50000 0.94300 -0.34200
H 	H 	0.81340 0.40140 0.17550 0.06100
H 	H 	0.18660 0.59860 0.17550 0.05800
H 	H 	0.18660 0.82450 0.40140 0.05900
H 	H 	0.81340 0.59860 0.82450 0.06500
H 	H 	0.18660 0.82450 0.59860 0.06100
H 	H 	0.81340 0.40140 0.82450 0.06400
H 	H 	0.74950 0.50000 0.06120 0.06000
H 	H 	0.00000 0.05700 0.50000 -0.35400
H 	H 	0.18660 0.17550 0.59860 0.05800
H 	H 	0.27480 0.74910 0.40140 0.03100
H 	H 	0.25050 0.06120 0.50000 0.06000
H 	H 	0.72520 0.74910 0.40140 0.03300
H 	H 	0.72520 0.25090 0.40140 0.03100
H 	H 	0.27480 0.40140 0.25090 0.02800
H 	H 	0.93740 0.24350 0.50000 0.04000
H 	H 	0.06260 0.50000 0.75650 0.06800
H 	H 	0.74950 0.93880 0.50000 0.04600
H 	H 	0.94160 0.50000 -0.00000 -0.34300
H 	H 	0.25050 0.50000 0.93880 0.04400
H 	H 	0.06260 0.50000 0.24350 0.06800
H 	H 	0.27480 0.59860 0.74910 0.03200
H 	H 	0.81340 0.82450 0.59860 0.06500
H 	H 	0.05840 0.00000 0.50000 -0.36400
H 	H 	0.81340 0.82450 0.40140 0.06400
H 	H 	0.81340 0.59860 0.17550 0.06300
H 	H 	0.25050 0.50000 0.06120 0.06000
H 	H 	0.18660 0.17550 0.40140 0.05600
H 	H 	0.00000 0.94300 0.50000 -0.34200
H 	H 	0.27480 0.25090 0.40140 0.02800
H 	H 	0.93740 0.50000 0.24350 0.04000
H 	H 	0.27480 0.40140 0.74910 0.03100
H 	H 	0.05840 0.50000 -0.00000 -0.36400
H 	H 	0.27480 0.25090 0.59860 0.03000
H 	H 	0.72520 0.40140 0.74910 0.03300
H 	H 	0.72520 0.59860 0.74910 0.03400
H 	H 	0.93740 0.50000 0.75650 0.04200
H 	H 	0.06260 0.24350 0.50000 0.06800
H 	H 	0.74950 0.50000 0.93880 0.04600
H 	H 	0.94160 0.00000 0.50000 -0.34300
H 	H 	0.72520 0.40140 0.25090 0.03100
H 	H 	0.81340 0.17550 0.59860 0.06300
H 	H 	0.27480 0.59860 0.25090 0.03000
H 	H 	0.18660 0.59860 0.82450 0.06100
H 	H 	0.18660 0.40140 0.82450 0.05900
H 	H 	0.72520 0.25090 0.59860 0.03200
H 	H 	0.93740 0.75650 0.50000 0.04200
H 	H 	0.18660 0.40140 0.17550 0.05600
H 	H 	0.25050 0.93880 0.50000 0.04400
C 	C 	0.12210 0.50000 0.11730 -0.07700
C 	C 	0.71540 0.50000 0.25618 -0.04100
C 	C 	0.20520 0.44137 0.19010 -0.10100
C 	C 	0.78760 0.50000 0.96680 -0.03500
C 	C 	0.74240 0.55860 0.76510 -0.00700
C 	C 	0.71540 0.74382 0.50000 -0.04000
C 	C 	0.78760 0.03320 0.50000 -0.10000
C 	C 	0.82001 0.50000 0.16675 0.06100
C 	C 	0.71540 0.25618 0.50000 -0.04100
C 	C 	0.28460 0.50000 0.25618 -0.04300
C 	C 	0.20520 0.19010 0.55863 -0.10100
C 	C 	0.85400 0.50000 0.94880 0.04800
C 	C 	0.17999 0.50000 0.83325 0.06200
C 	C 	0.20520 0.80990 0.55863 -0.09900
C 	C 	0.82001 0.50000 0.83325 0.06100
C 	C 	0.96570 0.20630 0.50000 -0.00600
C 	C 	0.14600 0.50000 0.94880 0.04400
C 	C 	0.79480 0.19010 0.55863 -0.09900
C 	C 	0.85400 0.94880 0.50000 0.04800
C 	C 	0.79480 0.44137 0.19010 -0.09900
C 	C 	0.78760 0.50000 0.03320 -0.10000
C 	C 	0.21240 0.50000 0.03320 -0.10500
C 	C 	0.96570 0.50000 0.79370 -0.00800
C 	C 	0.79480 0.80990 0.55863 -0.09700
C 	C 	0.25760 0.76510 0.44140 -0.00900
C 	C 	0.66150 0.50000 0.69780 0.11200
C 	C 	0.21240 0.03320 0.50000 -0.10500
C 	C 	0.25760 0.23490 0.44140 -0.01000
C 	C 	0.28460 0.74382 0.50000 -0.04100
C 	C 	0.33850 0.69780 0.50000 0.11100
C 	C 	0.20520 0.55863 0.19010 -0.10100
C 	C 	0.94530 0.50000 0.85740 0.04800
C 	C 	0.21240 0.50000 0.96680 -0.03300
C 	C 	0.85400 0.05120 0.50000 0.05000
C 	C 	0.94530 0.85740 0.50000 0.04800
C 	C 	0.14600 0.94880 0.50000 0.04400
C 	C 	0.74240 0.44140 0.76510 -0.00700
C 	C 	0.74240 0.55860 0.23490 -0.00800
C 	C 	0.87790 0.50000 0.88270 -0.06000
C 	C 	0.96570 0.50000 0.20630 -0.00600
C 	C 	0.33850 0.50000 0.69780 0.11100
C 	C 	0.14600 0.05120 0.50000 0.04500
C 	C 	0.74240 0.76510 0.55860 -0.00700
C 	C 	0.66150 0.69780 0.50000 0.11200
C 	C 	0.79480 0.55863 0.19010 -0.09900
C 	C 	0.33850 0.50000 0.30220 0.11000
C 	C 	0.21240 0.96680 0.50000 -0.03300
C 	C 	0.05470 0.14260 0.50000 0.05100
C 	C 	0.20520 0.80990 0.44137 -0.10000
C 	C 	0.28460 0.50000 0.74382 -0.04100
C 	C 	0.05470 0.50000 0.14260 0.05100
C 	C 	0.20520 0.19010 0.44137 -0.10100
C 	C 	0.66150 0.30220 0.50000 0.11100
C 	C 	0.03430 0.50000 0.20630 -0.13000
C 	C 	0.05470 0.50000 0.85740 0.05400
C 	C 	0.12210 0.50000 0.88270 -0.07100
C 	C 	0.66150 0.50000 0.30220 0.11100
C 	C 	0.12210 0.88270 0.50000 -0.07100
C 	C 	0.82001 0.16675 0.50000 0.06100
C 	C 	0.20520 0.44137 0.80990 -0.10000
C 	C 	0.25760 0.44140 0.23490 -0.01000
C 	C 	0.82001 0.83325 0.50000 0.06100
C 	C 	0.74240 0.23490 0.44140 -0.00800
C 	C 	0.33850 0.30220 0.50000 0.11000
C 	C 	0.87790 0.88270 0.50000 -0.06000
C 	C 	0.74240 0.23490 0.55860 -0.00800
C 	C 	0.03430 0.20630 0.50000 -0.13000
C 	C 	0.96570 0.79370 0.50000 -0.00800
C 	C 	0.87790 0.50000 0.11730 -0.06600
C 	C 	0.94530 0.14260 0.50000 0.04500
C 	C 	0.87790 0.11730 0.50000 -0.06600
C 	C 	0.25760 0.55860 0.76510 -0.00900
C 	C 	0.94530 0.50000 0.14260 0.04500
C 	C 	0.25760 0.44140 0.76510 -0.00900
C 	C 	0.17999 0.50000 0.16675 0.06200
C 	C 	0.71540 0.50000 0.74382 -0.04000
C 	C 	0.03430 0.79370 0.50000 -0.12600
C 	C 	0.79480 0.80990 0.44137 -0.09800
C 	C 	0.79480 0.44137 0.80990 -0.09800
C 	C 	0.74240 0.76510 0.44140 -0.00700
C 	C 	0.25760 0.55860 0.23490 -0.01000
C 	C 	0.79480 0.19010 0.44137 -0.09900
C 	C 	0.17999 0.83325 0.50000 0.06200
C 	C 	0.78760 0.96680 0.50000 -0.03500
C 	C 	0.20520 0.55863 0.80990 -0.09900
C 	C 	0.74240 0.44140 0.23490 -0.00800
C 	C 	0.85400 0.50000 0.05120 0.05000
C 	C 	0.28460 0.25618 0.50000 -0.04300
C 	C 	0.05470 0.85740 0.50000 0.05400
C 	C 	0.79480 0.55863 0.80990 -0.09700
C 	C 	0.17999 0.16675 0.50000 0.06200
C 	C 	0.12210 0.11730 0.50000 -0.07700
C 	C 	0.25760 0.23490 0.55860 -0.01000
C 	C 	0.14600 0.50000 0.05120 0.04500
C 	C 	0.25760 0.76510 0.55860 -0.00900
C 	C 	0.03430 0.50000 0.79370 -0.12600
N 	N 	0.42304 0.46732 0.64193 -0.21800
N 	N 	0.37158 0.32229 0.55430 -0.11600
N 	N 	0.57696 0.64193 0.46732 -0.21700
N 	N 	0.37158 0.44570 0.32229 -0.11600
N 	N 	0.57696 0.35807 0.46732 -0.21800
N 	N 	0.37158 0.67771 0.55430 -0.11500
N 	N 	0.42304 0.35807 0.53268 -0.21800
N 	N 	0.62842 0.32229 0.44570 -0.11600
N 	N 	0.37158 0.67771 0.44570 -0.11500
N 	N 	0.62842 0.44570 0.67771 -0.11500
N 	N 	0.62842 0.44570 0.32229 -0.11600
N 	N 	0.37158 0.32229 0.44570 -0.11600
N 	N 	-0.00000 0.50000 0.90020 -0.05700
N 	N 	0.42304 0.64193 0.46732 -0.21800
N 	N 	0.89740 0.00000 0.50000 -0.05000
N 	N 	-0.00000 0.50000 0.09980 -0.05800
N 	N 	0.42304 0.53268 0.35807 -0.21800
N 	N 	0.37158 0.55430 0.67771 -0.11500
N 	N 	0.62842 0.32229 0.55430 -0.11500
N 	N 	0.62842 0.55430 0.67771 -0.11400
N 	N 	0.42304 0.35807 0.46732 -0.21800
N 	N 	0.62842 0.67771 0.44570 -0.11500
N 	N 	0.57696 0.53268 0.64193 -0.21700
N 	N 	0.42304 0.46732 0.35807 -0.21800
N 	N 	0.10260 0.00000 0.50000 -0.05000
N 	N 	0.62842 0.55430 0.32229 -0.11500
N 	N 	0.62842 0.67771 0.55430 -0.11400
N 	N 	0.57696 0.53268 0.35807 -0.21800
N 	N 	0.57696 0.64193 0.53268 -0.21700
N 	N 	0.37158 0.55430 0.32229 -0.11600
N 	N 	0.57696 0.46732 0.35807 -0.21800
N 	N 	0.37158 0.44570 0.67771 -0.11500
N 	N 	-0.00000 0.09980 0.50000 -0.05800
N 	N 	0.42304 0.53268 0.64193 -0.21700
N 	N 	0.57696 0.46732 0.64193 -0.21700
N 	N 	0.42304 0.64193 0.53268 -0.21700
N 	N 	0.89740 0.50000 -0.00000 -0.05000
N 	N 	-0.00000 0.90020 0.50000 -0.05700
N 	N 	0.57696 0.35807 0.53268 -0.21800
N 	N 	0.10260 0.50000 -0.00000 -0.05000
