data_crystal

_cell_length_a 20.45200
_cell_length_b 27.84900
_cell_length_c 27.84900
_cell_angle_alpha 90.00000
_cell_angle_beta  90.00000
_cell_angle_gamma 90.00000

_symmetry_space_group_name_	'P 1'
_symmetry_space_group_name_H-M	'P 1'

loop_
_symmetry_equiv_pos_as_xyz
  x,y,z

loop_
_atom_site_label
_atom_site_type_symbol
_atom_site_fract_x
_atom_site_fract_y
_atom_site_fract_z
_atom_site_charge
Cd	Cd	0.12471 0.31509 0.45391 1.11400
Cd	Cd	0.50000 0.17969 0.67969 1.02700
Cd	Cd	0.12471 0.81509 0.04609 1.11400
Cd	Cd	0.87529 0.95391 0.81509 1.11700
Cd	Cd	0.87529 0.04609 0.18491 1.11700
Cd	Cd	0.87529 0.81509 0.04609 1.11700
Cd	Cd	0.00000 0.02540 0.09652 1.13400
Cd	Cd	0.87529 0.68491 0.54609 1.11700
Cd	Cd	0.12471 0.18491 0.95391 1.11300
Cd	Cd	0.12471 0.54609 0.31509 1.11300
Cd	Cd	0.87529 0.54609 0.31509 1.11600
Cd	Cd	-0.00000 0.52540 0.40348 1.13300
Cd	Cd	-0.00000 0.90348 0.02540 1.13300
Cd	Cd	0.00000 0.59652 0.52540 1.13300
Cd	Cd	0.87529 0.31509 0.45391 1.11600
Cd	Cd	0.50000 0.82031 0.32031 1.02600
Cd	Cd	0.50000 0.32031 0.17969 1.02600
Cd	Cd	0.87529 0.18491 0.95391 1.11600
Cd	Cd	0.00000 0.09652 0.97460 1.13300
Cd	Cd	0.87529 0.45391 0.68491 1.11600
Cd	Cd	0.50000 0.72150 0.77850 1.01200
Cd	Cd	0.50000 0.27850 0.22150 1.01200
Cd	Cd	0.12471 0.68491 0.54609 1.11300
Cd	Cd	0.50000 0.67969 0.82031 1.02600
Cd	Cd	-0.00000 0.97460 0.90348 1.13300
Cd	Cd	0.50000 0.77850 0.27850 1.01200
Cd	Cd	0.50000 0.22150 0.72150 1.01200
Cd	Cd	-0.00000 0.40348 0.47460 1.13300
Cd	Cd	0.12471 0.04609 0.18491 1.11300
Cd	Cd	0.12471 0.95391 0.81509 1.11300
Cd	Cd	0.00000 0.47460 0.59652 1.13300
Cd	Cd	0.12471 0.45391 0.68491 1.11300
H 	H 	0.67600 0.82210 0.15630 0.05100
H 	H 	0.68410 0.55930 0.74040 0.05500
H 	H 	0.56010 0.58840 0.66180 0.04200
H 	H 	0.22430 0.19780 0.03240 -0.09300
H 	H 	0.68410 0.94070 0.24040 0.05500
H 	H 	0.31590 0.44070 0.25960 0.05500
H 	H 	0.74320 0.17140 0.73730 0.03500
H 	H 	0.76760 0.84890 0.11370 -0.08700
H 	H 	0.32400 0.34370 0.67790 0.05100
H 	H 	0.22430 0.96760 0.19780 -0.09300
H 	H 	0.25680 0.82860 0.26270 0.03300
H 	H 	0.32400 0.84370 0.82210 0.05100
H 	H 	0.56010 0.08840 0.83820 0.04200
H 	H 	0.32400 0.15630 0.17790 0.05100
H 	H 	0.68410 0.24040 0.05930 0.05500
H 	H 	0.31590 0.74040 0.44070 0.05500
H 	H 	0.56010 0.41160 0.33820 0.04200
H 	H 	0.32400 0.67790 0.65630 0.05100
H 	H 	0.74320 0.82860 0.26270 0.03500
H 	H 	0.77570 0.19780 0.03240 -0.09200
H 	H 	0.77570 0.80220 0.96760 -0.09200
H 	H 	0.67600 0.84370 0.82210 0.05100
H 	H 	0.43990 0.83820 0.91160 0.04200
H 	H 	0.74320 0.76270 0.32860 0.03500
H 	H 	0.31590 0.24040 0.05930 0.05500
H 	H 	0.74320 0.32860 0.23730 0.03500
H 	H 	0.22430 0.53240 0.69780 -0.09300
H 	H 	0.76760 0.88630 0.84890 -0.08700
H 	H 	0.56010 0.33820 0.58840 0.04200
H 	H 	0.23240 0.38630 0.65110 -0.08800
H 	H 	0.25680 0.67140 0.76270 0.03300
H 	H 	0.67600 0.32210 0.34370 0.05100
H 	H 	0.23240 0.84890 0.11370 -0.08800
H 	H 	0.77570 0.53240 0.69780 -0.09200
H 	H 	0.25680 0.32860 0.23730 0.03300
H 	H 	0.22430 0.03240 0.80220 -0.09300
H 	H 	0.67600 0.17790 0.84370 0.05100
H 	H 	0.23240 0.15110 0.88630 -0.08800
H 	H 	0.31590 0.75960 0.94070 0.05500
H 	H 	0.23240 0.88630 0.84890 -0.08800
H 	H 	0.68410 0.25960 0.55930 0.05500
H 	H 	0.56010 0.83820 0.91160 0.04200
H 	H 	0.22430 0.69780 0.46760 -0.09300
H 	H 	0.76760 0.11370 0.15110 -0.08700
H 	H 	0.67600 0.15630 0.17790 0.05100
H 	H 	0.43990 0.66180 0.41160 0.04200
H 	H 	0.67600 0.34370 0.67790 0.05100
H 	H 	0.76760 0.65110 0.61370 -0.08700
H 	H 	0.23240 0.65110 0.61370 -0.08800
H 	H 	0.23240 0.34890 0.38630 -0.08800
H 	H 	0.68410 0.44070 0.25960 0.05500
H 	H 	0.31590 0.05930 0.75960 0.05500
H 	H 	0.32400 0.65630 0.32210 0.05100
H 	H 	0.43990 0.91160 0.16180 0.04200
H 	H 	0.67600 0.65630 0.32210 0.05100
H 	H 	0.77570 0.03240 0.80220 -0.09200
H 	H 	0.77570 0.46760 0.30220 -0.09200
H 	H 	0.43990 0.33820 0.58840 0.04200
H 	H 	0.76760 0.34890 0.38630 -0.08700
H 	H 	0.25680 0.23730 0.67140 0.03300
H 	H 	0.56010 0.16180 0.08840 0.04200
H 	H 	0.23240 0.11370 0.15110 -0.08800
H 	H 	0.25680 0.76270 0.32860 0.03300
H 	H 	0.31590 0.94070 0.24040 0.05500
H 	H 	0.32400 0.82210 0.15630 0.05100
H 	H 	0.32400 0.17790 0.84370 0.05100
H 	H 	0.32400 0.32210 0.34370 0.05100
H 	H 	0.22430 0.80220 0.96760 -0.09300
H 	H 	0.74320 0.23730 0.67140 0.03500
H 	H 	0.43990 0.58840 0.66180 0.04200
H 	H 	0.23240 0.61370 0.34890 -0.08800
H 	H 	0.74320 0.73730 0.82860 0.03500
H 	H 	0.56010 0.66180 0.41160 0.04200
H 	H 	0.31590 0.55930 0.74040 0.05500
H 	H 	0.77570 0.69780 0.46760 -0.09200
H 	H 	0.77570 0.30220 0.53240 -0.09200
H 	H 	0.68410 0.05930 0.75960 0.05500
H 	H 	0.22430 0.30220 0.53240 -0.09300
H 	H 	0.77570 0.96760 0.19780 -0.09200
H 	H 	0.43990 0.08840 0.83820 0.04200
H 	H 	0.22430 0.46760 0.30220 -0.09300
H 	H 	0.68410 0.74040 0.44070 0.05500
H 	H 	0.74320 0.26270 0.17140 0.03500
H 	H 	0.56010 0.91160 0.16180 0.04200
H 	H 	0.25680 0.73730 0.82860 0.03300
H 	H 	0.31590 0.25960 0.55930 0.05500
H 	H 	0.25680 0.17140 0.73730 0.03300
H 	H 	0.43990 0.41160 0.33820 0.04200
H 	H 	0.76760 0.15110 0.88630 -0.08700
H 	H 	0.67600 0.67790 0.65630 0.05100
H 	H 	0.76760 0.38630 0.65110 -0.08700
H 	H 	0.68410 0.75960 0.94070 0.05500
H 	H 	0.43990 0.16180 0.08840 0.04200
H 	H 	0.76760 0.61370 0.34890 -0.08700
H 	H 	0.74320 0.67140 0.76270 0.03500
H 	H 	0.25680 0.26270 0.17140 0.03300
C 	C 	0.30380 0.35160 0.33530 -0.19400
C 	C 	0.70100 0.92210 0.21470 -0.19400
C 	C 	0.75060 0.13240 0.86060 0.07300
C 	C 	0.38100 0.76540 0.85850 -0.18600
C 	C 	0.75060 0.36060 0.63240 0.07300
C 	C 	0.35740 0.82590 0.26930 0.05200
C 	C 	0.29900 0.71470 0.42210 -0.19500
C 	C 	0.21980 0.91080 0.15170 -0.16000
C 	C 	0.29900 0.78530 0.92210 -0.19500
C 	C 	0.24460 0.43800 0.31060 0.07400
C 	C 	0.15890 0.12570 0.07336 0.13700
C 	C 	0.70600 0.72210 0.81490 -0.10200
C 	C 	0.15890 0.62570 0.42664 0.13700
C 	C 	0.24940 0.63940 0.36760 0.07300
C 	C 	0.29400 0.18510 0.72210 -0.10200
C 	C 	0.21980 0.41080 0.34830 -0.16000
C 	C 	0.29400 0.68510 0.77790 -0.10200
C 	C 	0.46701 0.31510 0.60360 -0.09600
C 	C 	0.70100 0.28530 0.57790 -0.19400
C 	C 	0.61900 0.73460 0.35850 -0.18500
C 	C 	0.61900 0.14150 0.76540 -0.18500
C 	C 	0.69620 0.14840 0.83530 -0.19400
C 	C 	0.44590 0.87120 0.22340 0.05600
C 	C 	0.21980 0.65170 0.41080 -0.16000
C 	C 	0.55410 0.12880 0.77660 0.05700
C 	C 	0.61900 0.26540 0.64150 -0.18500
C 	C 	0.75060 0.36760 0.36060 0.07300
C 	C 	0.75060 0.63240 0.63940 0.07300
C 	C 	0.44590 0.72340 0.37120 0.05600
C 	C 	0.55410 0.72340 0.37120 0.05600
C 	C 	0.24460 0.68940 0.43800 0.07400
C 	C 	0.64260 0.23070 0.67410 0.05300
C 	C 	0.30380 0.85160 0.16470 -0.19400
C 	C 	0.44590 0.12880 0.77660 0.05600
C 	C 	0.69620 0.33530 0.64840 -0.19400
C 	C 	0.78020 0.84830 0.91080 -0.15900
C 	C 	0.69620 0.16470 0.14840 -0.19400
C 	C 	0.67140 0.79760 0.87890 0.12800
C 	C 	0.75060 0.13940 0.13240 0.07300
C 	C 	0.24460 0.18940 0.06200 0.07400
C 	C 	0.61900 0.64150 0.73460 -0.18500
C 	C 	0.46701 0.10360 0.81510 -0.09600
C 	C 	0.30380 0.64840 0.66470 -0.19400
C 	C 	0.21980 0.08920 0.84830 -0.16000
C 	C 	0.32860 0.79760 0.87890 0.12800
C 	C 	0.75540 0.18940 0.06200 0.07400
C 	C 	0.32860 0.70240 0.37890 0.12800
C 	C 	0.53299 0.89640 0.18490 -0.09500
C 	C 	0.61900 0.35850 0.26540 -0.18500
C 	C 	0.32860 0.37890 0.29760 0.12800
C 	C 	0.21980 0.15170 0.08920 -0.16000
C 	C 	0.24940 0.36760 0.36060 0.07300
C 	C 	0.67140 0.37890 0.29760 0.12800
C 	C 	0.75540 0.68940 0.43800 0.07400
C 	C 	0.32860 0.29760 0.62110 0.12800
C 	C 	0.24940 0.36060 0.63240 0.07300
C 	C 	0.67140 0.70240 0.37890 0.12800
C 	C 	0.84110 0.42664 0.37430 0.13800
C 	C 	0.44590 0.22340 0.12880 0.05600
C 	C 	0.46701 0.39640 0.31510 -0.09600
C 	C 	0.44590 0.77660 0.87120 0.05600
C 	C 	0.70600 0.68510 0.77790 -0.10200
C 	C 	0.38100 0.85850 0.23460 -0.18600
C 	C 	0.78020 0.34830 0.58920 -0.15900
C 	C 	0.29400 0.22210 0.68510 -0.10200
C 	C 	0.44590 0.37120 0.27660 0.05600
C 	C 	0.67140 0.12110 0.79760 0.12800
C 	C 	0.69620 0.83530 0.85160 -0.19400
C 	C 	0.15890 0.92664 0.12570 0.13700
C 	C 	0.21980 0.34830 0.58920 -0.16000
C 	C 	0.46701 0.68490 0.39640 -0.09600
C 	C 	0.69620 0.64840 0.66470 -0.19400
C 	C 	0.32860 0.12110 0.79760 0.12800
C 	C 	0.55410 0.87120 0.22340 0.05700
C 	C 	0.64260 0.82590 0.26930 0.05300
C 	C 	0.55410 0.37120 0.27660 0.05600
C 	C 	0.70600 0.18510 0.72210 -0.10200
C 	C 	0.84110 0.07336 0.87430 0.13800
C 	C 	0.70100 0.21470 0.07790 -0.19400
C 	C 	0.53299 0.31510 0.60360 -0.09600
C 	C 	0.38100 0.23460 0.14150 -0.18600
C 	C 	0.38100 0.35850 0.26540 -0.18600
C 	C 	0.70600 0.31490 0.22210 -0.10200
C 	C 	0.67140 0.20240 0.12110 0.12800
C 	C 	0.44590 0.27660 0.62880 0.05600
C 	C 	0.30380 0.83530 0.85160 -0.19400
C 	C 	0.70100 0.57790 0.71470 -0.19400
C 	C 	0.84110 0.87430 0.92664 0.13800
C 	C 	0.84110 0.92664 0.12570 0.13800
C 	C 	0.38100 0.64150 0.73460 -0.18600
C 	C 	0.32860 0.20240 0.12110 0.12800
C 	C 	0.35740 0.67410 0.76930 0.05200
C 	C 	0.53299 0.10360 0.81510 -0.09500
C 	C 	0.35740 0.26930 0.17410 0.05200
C 	C 	0.55410 0.77660 0.87120 0.05700
C 	C 	0.46701 0.81510 0.89640 -0.09600
C 	C 	0.64260 0.32590 0.23070 0.05300
C 	C 	0.30380 0.14840 0.83530 -0.19400
C 	C 	0.55410 0.22340 0.12880 0.05700
C 	C 	0.70100 0.42210 0.28530 -0.19400
C 	C 	0.15890 0.07336 0.87430 0.13700
C 	C 	0.24460 0.93800 0.18940 0.07400
C 	C 	0.44590 0.62880 0.72340 0.05600
C 	C 	0.64260 0.67410 0.76930 0.05300
C 	C 	0.70100 0.07790 0.78530 -0.19400
C 	C 	0.75540 0.81060 0.93800 0.07400
C 	C 	0.53299 0.68490 0.39640 -0.09600
C 	C 	0.64260 0.17410 0.73070 0.05300
C 	C 	0.53299 0.18490 0.10360 -0.09500
C 	C 	0.38100 0.14150 0.76540 -0.18600
C 	C 	0.24460 0.56200 0.68940 0.07400
C 	C 	0.35740 0.73070 0.82590 0.05200
C 	C 	0.35740 0.23070 0.67410 0.05200
C 	C 	0.24940 0.63240 0.63940 0.07300
C 	C 	0.15890 0.87430 0.92664 0.13700
C 	C 	0.78020 0.65170 0.41080 -0.15900
C 	C 	0.70600 0.81490 0.27790 -0.10200
C 	C 	0.35740 0.76930 0.32590 0.05200
C 	C 	0.69620 0.35160 0.33530 -0.19400
C 	C 	0.29400 0.27790 0.18510 -0.10200
C 	C 	0.75540 0.31060 0.56200 0.07400
C 	C 	0.30380 0.33530 0.64840 -0.19400
C 	C 	0.53299 0.60360 0.68490 -0.09600
C 	C 	0.78020 0.41080 0.34830 -0.15900
C 	C 	0.55410 0.27660 0.62880 0.05600
C 	C 	0.75060 0.86760 0.13940 0.07300
C 	C 	0.46701 0.60360 0.68490 -0.09600
C 	C 	0.29900 0.92210 0.21470 -0.19500
C 	C 	0.69620 0.85160 0.16470 -0.19400
C 	C 	0.61900 0.23460 0.14150 -0.18500
C 	C 	0.70100 0.71470 0.42210 -0.19400
C 	C 	0.84110 0.57336 0.62570 0.13800
C 	C 	0.70100 0.78530 0.92210 -0.19400
C 	C 	0.70600 0.27790 0.18510 -0.10200
C 	C 	0.38100 0.26540 0.64150 -0.18600
C 	C 	0.84110 0.62570 0.42664 0.13800
C 	C 	0.46701 0.89640 0.18490 -0.09600
C 	C 	0.24940 0.13940 0.13240 0.07300
C 	C 	0.53299 0.81510 0.89640 -0.09500
C 	C 	0.75060 0.63940 0.36760 0.07300
C 	C 	0.69620 0.66470 0.35160 -0.19400
C 	C 	0.64260 0.73070 0.82590 0.05300
C 	C 	0.29900 0.42210 0.28530 -0.19500
C 	C 	0.24460 0.06200 0.81060 0.07400
C 	C 	0.29900 0.07790 0.78530 -0.19500
C 	C 	0.24940 0.86760 0.13940 0.07300
C 	C 	0.24940 0.86060 0.86760 0.07300
C 	C 	0.67140 0.29760 0.62110 0.12800
C 	C 	0.35740 0.32590 0.23070 0.05200
C 	C 	0.29400 0.72210 0.81490 -0.10200
C 	C 	0.55410 0.62880 0.72340 0.05600
C 	C 	0.64260 0.26930 0.17410 0.05300
C 	C 	0.70600 0.22210 0.68510 -0.10200
C 	C 	0.24460 0.31060 0.56200 0.07400
C 	C 	0.38100 0.73460 0.35850 -0.18600
C 	C 	0.64260 0.76930 0.32590 0.05300
C 	C 	0.15890 0.57336 0.62570 0.13700
C 	C 	0.21980 0.58920 0.65170 -0.16000
C 	C 	0.78020 0.91080 0.15170 -0.15900
C 	C 	0.61900 0.76540 0.85850 -0.18500
C 	C 	0.21980 0.84830 0.91080 -0.16000
C 	C 	0.75540 0.06200 0.81060 0.07400
C 	C 	0.35740 0.17410 0.73070 0.05200
C 	C 	0.61900 0.85850 0.23460 -0.18500
C 	C 	0.84110 0.37430 0.57336 0.13800
C 	C 	0.29900 0.21470 0.07790 -0.19500
C 	C 	0.30380 0.16470 0.14840 -0.19400
C 	C 	0.15890 0.37430 0.57336 0.13700
C 	C 	0.29900 0.57790 0.71470 -0.19500
C 	C 	0.53299 0.39640 0.31510 -0.09600
C 	C 	0.78020 0.58920 0.65170 -0.15900
C 	C 	0.32860 0.87890 0.20240 0.12800
C 	C 	0.15890 0.42664 0.37430 0.13700
C 	C 	0.75540 0.56200 0.68940 0.07400
C 	C 	0.29900 0.28530 0.57790 -0.19500
C 	C 	0.75060 0.86060 0.86760 0.07300
C 	C 	0.29400 0.77790 0.31490 -0.10200
C 	C 	0.70600 0.77790 0.31490 -0.10200
C 	C 	0.67140 0.87890 0.20240 0.12800
C 	C 	0.24940 0.13240 0.86060 0.07300
C 	C 	0.29400 0.31490 0.22210 -0.10200
C 	C 	0.75540 0.93800 0.18940 0.07400
C 	C 	0.75540 0.43800 0.31060 0.07400
C 	C 	0.24460 0.81060 0.93800 0.07400
C 	C 	0.84110 0.12570 0.07336 0.13800
C 	C 	0.78020 0.08920 0.84830 -0.15900
C 	C 	0.32860 0.62110 0.70240 0.12800
C 	C 	0.46701 0.18490 0.10360 -0.09600
C 	C 	0.78020 0.15170 0.08920 -0.15900
C 	C 	0.29400 0.81490 0.27790 -0.10200
C 	C 	0.67140 0.62110 0.70240 0.12800
C 	C 	0.30380 0.66470 0.35160 -0.19400
N 	N 	0.13070 0.89980 0.09370 -0.21200
N 	N 	0.07920 0.39560 0.53250 -0.23300
N 	N 	0.39650 0.69520 0.80480 -0.36700
N 	N 	0.92080 0.46750 0.39560 -0.22900
N 	N 	0.50000 0.35440 0.25050 -0.38200
N 	N 	0.86870 0.03230 0.86580 -0.22300
N 	N 	0.13130 0.13420 0.03230 -0.22500
N 	N 	0.86930 0.09370 0.10020 -0.21000
N 	N 	0.13130 0.63420 0.46770 -0.22500
N 	N 	0.07920 0.60440 0.46750 -0.23300
N 	N 	0.13070 0.40630 0.60020 -0.21200
N 	N 	0.50000 0.74950 0.35440 -0.38200
N 	N 	0.86870 0.63420 0.46770 -0.22300
N 	N 	0.08000 0.57480 0.57900 -0.22900
N 	N 	0.50000 0.85440 0.24950 -0.38200
N 	N 	0.07920 0.10440 0.03250 -0.23300
N 	N 	0.50000 0.14560 0.75050 -0.38200
N 	N 	0.86870 0.36580 0.53230 -0.22300
N 	N 	0.39650 0.19520 0.69520 -0.36700
N 	N 	0.07920 0.46750 0.39560 -0.23300
N 	N 	0.60350 0.19520 0.69520 -0.36700
N 	N 	0.92000 0.07900 0.07480 -0.22500
N 	N 	0.92000 0.42520 0.42100 -0.22500
N 	N 	0.39650 0.80480 0.30480 -0.36700
N 	N 	0.50000 0.64560 0.74950 -0.38200
N 	N 	0.86930 0.39980 0.40630 -0.21000
N 	N 	0.08000 0.42100 0.57480 -0.22900
N 	N 	0.92000 0.92520 0.07900 -0.22500
N 	N 	0.39650 0.30480 0.19520 -0.36700
N 	N 	0.86930 0.59370 0.39980 -0.21000
N 	N 	0.92080 0.10440 0.03250 -0.22900
N 	N 	0.50000 0.24950 0.14560 -0.38200
N 	N 	0.08000 0.07480 0.92100 -0.22900
N 	N 	0.13130 0.36580 0.53230 -0.22500
N 	N 	0.92080 0.96750 0.10440 -0.22900
N 	N 	0.92000 0.57480 0.57900 -0.22500
N 	N 	0.13130 0.96770 0.13420 -0.22500
N 	N 	0.92080 0.89560 0.96750 -0.22900
N 	N 	0.13130 0.86580 0.96770 -0.22500
N 	N 	0.08000 0.42520 0.42100 -0.22900
N 	N 	0.86870 0.86580 0.96770 -0.22300
N 	N 	0.13070 0.39980 0.40630 -0.21200
N 	N 	0.86930 0.60020 0.59370 -0.21000
N 	N 	0.86930 0.90630 0.89980 -0.21000
N 	N 	0.92080 0.53250 0.60440 -0.22900
N 	N 	0.13130 0.03230 0.86580 -0.22500
N 	N 	0.08000 0.92520 0.07900 -0.22900
N 	N 	0.07920 0.53250 0.60440 -0.23300
N 	N 	0.07920 0.89560 0.96750 -0.23300
N 	N 	0.92000 0.42100 0.57480 -0.22500
N 	N 	0.07920 0.96750 0.10440 -0.23300
N 	N 	0.13070 0.60020 0.59370 -0.21200
N 	N 	0.92000 0.07480 0.92100 -0.22500
N 	N 	0.92000 0.57900 0.42520 -0.22500
N 	N 	0.86930 0.89980 0.09370 -0.21000
N 	N 	0.92080 0.03250 0.89560 -0.22900
N 	N 	0.92080 0.60440 0.46750 -0.22900
N 	N 	0.92000 0.92100 0.92520 -0.22500
N 	N 	0.50000 0.75050 0.85440 -0.38200
N 	N 	0.13070 0.59370 0.39980 -0.21200
N 	N 	0.13070 0.10020 0.90630 -0.21200
N 	N 	0.13070 0.90630 0.89980 -0.21200
N 	N 	0.60350 0.30480 0.19520 -0.36700
N 	N 	0.13070 0.09370 0.10020 -0.21200
N 	N 	0.13130 0.46770 0.36580 -0.22500
N 	N 	0.86870 0.13420 0.03230 -0.22300
N 	N 	0.86870 0.53230 0.63420 -0.22300
N 	N 	0.07920 0.03250 0.89560 -0.23300
N 	N 	0.86870 0.46770 0.36580 -0.22300
N 	N 	0.92080 0.39560 0.53250 -0.22900
N 	N 	0.13130 0.53230 0.63420 -0.22500
N 	N 	0.50000 0.25050 0.64560 -0.38200
N 	N 	0.86930 0.40630 0.60020 -0.21000
N 	N 	0.08000 0.57900 0.42520 -0.22900
N 	N 	0.60350 0.80480 0.30480 -0.36700
N 	N 	0.86930 0.10020 0.90630 -0.21000
N 	N 	0.60350 0.69520 0.80480 -0.36700
N 	N 	0.86870 0.96770 0.13420 -0.22300
N 	N 	0.08000 0.92100 0.92520 -0.22900
N 	N 	0.08000 0.07900 0.07480 -0.22900
Cl	Cl	0.00000 0.95120 0.81781 -1.03100
Cl	Cl	0.00000 0.04880 0.18219 -1.03100
Cl	Cl	-0.00000 0.54880 0.31781 -1.03100
Cl	Cl	0.00000 0.81781 0.04880 -1.03100
Cl	Cl	-0.00000 0.45120 0.68219 -1.03100
Cl	Cl	0.00000 0.31781 0.45120 -1.03100
Cl	Cl	0.00000 0.18219 0.95120 -1.03100
Cl	Cl	0.00000 0.68219 0.54880 -1.03100
