data_crystal

_cell_length_a 5.15940
_cell_length_b 11.02740
_cell_length_c 15.27400
_cell_angle_alpha 83.31000
_cell_angle_beta  87.65700
_cell_angle_gamma 83.12800

_symmetry_space_group_name_	'P 1'
_symmetry_space_group_name_H-M	'P 1'

loop_
_symmetry_equiv_pos_as_xyz
  x,y,z

loop_
_atom_site_label
_atom_site_type_symbol
_atom_site_fract_x
_atom_site_fract_y
_atom_site_fract_z
_atom_site_charge
C 	C 	0.97950 0.62540 0.49055 -0.07500
H 	H 	0.96460 0.71080 0.48420 0.07700
C 	C 	0.07720 0.56208 0.56894 0.01700
C 	C 	0.09660 0.43266 0.57848 -0.06300
C 	C 	0.18500 0.35600 0.66135 0.14200
C 	C 	0.40920 0.27190 0.66040 -0.20700
H 	H 	0.49940 0.26050 0.60750 0.09300
C 	C 	0.49800 0.20500 0.73822 0.11800
H 	H 	0.65160 0.15160 0.73730 -0.01900
C 	C 	0.36110 0.21700 0.81700 -0.20700
C 	C 	0.13240 0.29700 0.81692 0.14400
H 	H 	0.03490 0.30400 0.86900 0.00200
C 	C 	0.04860 0.36610 0.74008 -0.25500
H 	H 	0.89690 0.42070 0.74140 0.15000
C 	C 	0.46450 0.15020 0.90198 0.41100
C 	C 	0.15730 0.63353 0.63892 -0.03000
C 	C 	0.38580 0.59620 0.68448 -0.04300
H 	H 	0.49730 0.52900 0.66890 0.05500
C 	C 	0.44870 0.65820 0.75268 -0.01200
H 	H 	0.60210 0.63210 0.78280 0.07400
C 	C 	0.28550 0.75895 0.77679 -0.04500
C 	C 	0.06140 0.79890 0.72950 -0.10700
H 	H 	0.95240 0.86760 0.74390 0.13200
C 	C 	0.99980 0.73700 0.66113 0.04700
H 	H 	0.85020 0.76510 0.62940 0.03600
C 	C 	0.33870 0.82060 0.85421 0.43800
O 	O 	0.30480 0.14197 0.96794 -0.41900
O 	O 	0.69830 0.10958 0.90423 -0.44600
O 	O 	0.18180 0.89816 0.88325 -0.39200
O 	O 	0.56860 0.78465 0.88719 -0.49900
H 	H 	0.58690 0.82180 0.92960 0.36300
C 	C 	0.02050 0.37460 0.50945 -0.04000
H 	H 	0.03540 0.28920 0.51580 0.02100
C 	C 	0.92280 0.43792 0.43106 -0.06700
C 	C 	0.90340 0.56734 0.42152 0.03200
C 	C 	0.81500 0.64400 0.33865 0.02600
C 	C 	0.59080 0.72810 0.33960 -0.09600
H 	H 	0.50060 0.73950 0.39250 0.07500
C 	C 	0.50200 0.79500 0.26178 0.04400
H 	H 	0.34840 0.84840 0.26270 0.05200
C 	C 	0.63890 0.78300 0.18300 -0.11500
C 	C 	0.86760 0.70300 0.18308 0.01700
H 	H 	0.96510 0.69600 0.13100 0.03500
C 	C 	0.95140 0.63390 0.25992 -0.03400
H 	H 	0.10310 0.57930 0.25860 0.02400
C 	C 	0.53550 0.84980 0.09802 0.40800
C 	C 	0.84270 0.36647 0.36108 0.24800
C 	C 	0.61420 0.40380 0.31552 -0.30200
H 	H 	0.50270 0.47100 0.33110 0.13600
C 	C 	0.55130 0.34180 0.24732 0.23100
H 	H 	0.39790 0.36790 0.21720 -0.03600
C 	C 	0.71450 0.24105 0.22321 -0.33200
C 	C 	0.93860 0.20110 0.27050 0.35900
H 	H 	0.04760 0.13240 0.25610 -0.12700
C 	C 	0.00020 0.26300 0.33887 -0.41800
H 	H 	0.14980 0.23490 0.37060 0.15700
C 	C 	0.66130 0.17940 0.14579 0.52000
O 	O 	0.69520 0.85803 0.03206 -0.48500
O 	O 	0.30170 0.89042 0.09577 -0.44000
O 	O 	0.81820 0.10184 0.11675 -0.55300
O 	O 	0.43140 0.21535 0.11281 -0.55200
H 	H 	0.41310 0.17820 0.07040 0.25900
Ca	Ca	-0.00000 0.00000 -0.00000 1.47300
