data_crystal

_cell_length_a 8.42080
_cell_length_b 8.49330
_cell_length_c 16.31640
_cell_angle_alpha 89.15200
_cell_angle_beta  78.18500
_cell_angle_gamma 70.29500

_symmetry_space_group_name_	'P 1'
_symmetry_space_group_name_H-M	'P 1'

loop_
_symmetry_equiv_pos_as_xyz
  x,y,z

loop_
_atom_site_label
_atom_site_type_symbol
_atom_site_fract_x
_atom_site_fract_y
_atom_site_fract_z
_atom_site_charge
Li	Li	0.51670 0.77030 0.62740 0.55400
Li	Li	0.16380 0.82690 0.68350 0.56200
Li	Li	0.84600 0.79360 0.62300 0.56200
Li	Li	0.51610 0.80650 0.15070 0.56200
Zr	Zr	0.39920 0.27070 0.41500 3.19900
Zr	Zr	0.62300 0.34320 0.88760 3.19900
C 	C 	0.36830 0.17750 0.98190 0.28400
C 	C 	0.65750 0.43880 0.32600 0.21900
C 	C 	0.53510 0.03900 0.54970 0.22200
C 	C 	0.47680 0.62390 0.02430 0.22600
C 	C 	0.96730 0.06600 0.80890 0.20200
C 	C 	0.83590 0.04830 0.75980 0.24600
C 	C 	0.67340 0.56990 0.01690 0.20300
C 	C 	0.05060 0.54590 0.49260 0.22100
C 	C 	0.34770 0.04340 0.55900 0.22300
C 	C 	0.35380 0.04160 0.28590 0.15900
C 	C 	0.47670 0.57400 0.75370 0.26100
C 	C 	0.50460 0.49820 0.28090 0.28400
C 	C 	0.55000 0.98940 0.27940 0.31600
C 	C 	0.18080 0.57560 0.53900 0.27300
C 	C 	0.66180 0.57620 0.74420 0.25900
C 	C 	0.52510 0.11520 0.02400 0.22300
O 	O 	0.29110 0.95670 0.61130 -0.31200
O 	O 	0.57630 0.13900 0.49680 -0.52900
O 	O 	0.11590 0.42530 0.43580 -0.48000
O 	O 	0.49880 0.59350 0.22370 -0.23900
O 	O 	0.89620 0.63790 0.51260 -0.23200
O 	O 	0.62670 0.35620 0.39190 -0.49400
O 	O 	0.38430 0.43380 0.31170 -0.57100
O 	O 	0.26560 0.14210 0.50950 -0.55600
O 	O 	0.33800 0.47940 0.51190 -0.55600
O 	O 	0.29560 0.96920 0.24060 -0.16500
O 	O 	0.79160 0.46900 0.30040 -0.13200
O 	O 	0.90290 0.18720 0.86620 -0.48200
O 	O 	0.26570 0.16320 0.34200 -0.50700
O 	O 	0.64340 0.18070 0.99180 -0.53600
O 	O 	0.11870 0.96850 0.79120 -0.20800
O 	O 	0.65080 0.87820 0.22720 -0.23000
O 	O 	0.68290 0.15350 0.78310 -0.56000
O 	O 	0.12410 0.68670 0.59690 -0.33200
O 	O 	0.73300 0.64110 0.06220 -0.19800
O 	O 	0.59160 0.07320 0.33250 -0.60600
O 	O 	0.74560 0.48570 0.79540 -0.54900
O 	O 	0.62950 0.94320 0.59240 -0.30700
O 	O 	0.89050 0.93550 0.70220 -0.30300
O 	O 	0.43700 0.47850 0.80920 -0.52000
O 	O 	0.71460 0.66190 0.68960 -0.33900
O 	O 	0.38290 0.66140 0.70790 -0.34100
O 	O 	0.23250 0.15270 0.01150 -0.17700
O 	O 	0.39760 0.25690 0.91490 -0.51600
O 	O 	0.43280 0.54270 0.97130 -0.54000
O 	O 	0.37760 0.73450 0.07750 -0.21400
O 	O 	0.75980 0.44850 0.96070 -0.48400
O 	O 	0.53540 0.01760 0.08030 -0.24400
