data_crystal

_cell_length_a 20.60000
_cell_length_b 27.80900
_cell_length_c 27.80900
_cell_angle_alpha 90.00000
_cell_angle_beta  90.00000
_cell_angle_gamma 90.00000

_symmetry_space_group_name_	'P 1'
_symmetry_space_group_name_H-M	'P 1'

loop_
_symmetry_equiv_pos_as_xyz
  x,y,z

loop_
_atom_site_label
_atom_site_type_symbol
_atom_site_fract_x
_atom_site_fract_y
_atom_site_fract_z
_atom_site_charge
Cd	Cd	0.50000 0.01684 0.09887 1.13900
Cd	Cd	0.62378 0.53110 0.31253 1.11500
Cd	Cd	0.50000 0.59887 0.51684 1.13800
Cd	Cd	0.62378 0.31253 0.46890 1.11500
Cd	Cd	0.62378 0.18747 0.96890 1.11500
Cd	Cd	0.37622 0.81253 0.03110 1.11600
Cd	Cd	0.37622 0.96890 0.81253 1.11600
Cd	Cd	0.37622 0.46890 0.68747 1.11600
Cd	Cd	0.37622 0.68747 0.53110 1.11600
Cd	Cd	0.50000 0.90113 0.01684 1.13900
Cd	Cd	0.62378 0.68747 0.53110 1.11500
Cd	Cd	0.37622 0.31253 0.46890 1.11600
Cd	Cd	0.62378 0.03110 0.18747 1.11500
Cd	Cd	0.50000 0.09887 0.98316 1.13900
Cd	Cd	0.62378 0.96890 0.81253 1.11500
Cd	Cd	0.62378 0.81253 0.03110 1.11500
Cd	Cd	0.50000 0.98316 0.90113 1.13900
Cd	Cd	0.37622 0.03110 0.18747 1.11600
Cd	Cd	0.50000 0.40113 0.48316 1.13800
Cd	Cd	0.37622 0.18747 0.96890 1.11600
Cd	Cd	0.50000 0.51684 0.40113 1.13800
Cd	Cd	0.62378 0.46890 0.68747 1.11500
Cd	Cd	0.37622 0.53110 0.31253 1.11600
Cd	Cd	0.50000 0.48316 0.59887 1.13800
H 	H 	0.19010 0.73810 0.41850 0.06700
H 	H 	0.28270 0.19970 0.05160 -0.09000
H 	H 	0.80990 0.26190 0.58150 0.06500
H 	H 	0.71730 0.30030 0.55160 -0.09000
H 	H 	0.94010 0.34700 0.59340 0.05500
H 	H 	0.80990 0.91850 0.23810 0.06600
H 	H 	0.28270 0.05160 0.80030 -0.09000
H 	H 	0.05990 0.59340 0.65300 0.04300
H 	H 	0.28270 0.69970 0.44840 -0.09000
H 	H 	0.83160 0.36750 0.68060 0.06700
H 	H 	0.16840 0.68060 0.63250 0.07000
H 	H 	0.24130 0.81130 0.25000 0.03600
H 	H 	0.83160 0.63250 0.31940 0.06700
H 	H 	0.71730 0.55160 0.69970 -0.09000
H 	H 	0.16840 0.86750 0.81940 0.07000
H 	H 	0.71730 0.19970 0.05160 -0.09000
H 	H 	0.28270 0.80030 0.94840 -0.09000
H 	H 	0.73890 0.09400 0.15080 -0.07600
H 	H 	0.24130 0.25000 0.18870 0.03600
H 	H 	0.83160 0.68060 0.63250 0.06700
H 	H 	0.75870 0.75000 0.81130 0.03600
H 	H 	0.05990 0.84700 0.90660 0.04300
H 	H 	0.94010 0.59340 0.65300 0.05500
H 	H 	0.16840 0.81940 0.13250 0.07000
H 	H 	0.94560 0.22160 0.72160 0.12700
H 	H 	0.71730 0.80030 0.94840 -0.09000
H 	H 	0.75870 0.81130 0.25000 0.03600
H 	H 	0.71730 0.69970 0.44840 -0.09000
H 	H 	0.05440 0.27840 0.22160 0.13600
H 	H 	0.19010 0.58150 0.73810 0.06700
H 	H 	0.73890 0.84920 0.09400 -0.07600
H 	H 	0.05990 0.90660 0.15300 0.04300
H 	H 	0.73890 0.59400 0.34920 -0.07600
H 	H 	0.05440 0.72160 0.77840 0.13600
H 	H 	0.19010 0.08150 0.76190 0.06700
H 	H 	0.05440 0.77840 0.27840 0.13600
H 	H 	0.19010 0.76190 0.91850 0.06700
H 	H 	0.73890 0.90600 0.84920 -0.07600
H 	H 	0.94560 0.77840 0.27840 0.12700
H 	H 	0.26110 0.34920 0.40600 -0.07600
H 	H 	0.80990 0.58150 0.73810 0.06500
H 	H 	0.73890 0.65080 0.59400 -0.07600
H 	H 	0.28270 0.44840 0.30030 -0.09000
H 	H 	0.75870 0.25000 0.18870 0.03600
H 	H 	0.94010 0.65300 0.40660 0.05500
H 	H 	0.71730 0.05160 0.80030 -0.09000
H 	H 	0.28270 0.55160 0.69970 -0.09000
H 	H 	0.26110 0.65080 0.59400 -0.07600
H 	H 	0.75870 0.75000 0.31130 0.03600
H 	H 	0.75870 0.18870 0.75000 0.03600
H 	H 	0.94010 0.90660 0.15300 0.05500
H 	H 	0.24130 0.75000 0.31130 0.03600
H 	H 	0.73890 0.15080 0.90600 -0.07600
H 	H 	0.26110 0.90600 0.84920 -0.07500
H 	H 	0.71730 0.94840 0.19970 -0.09000
H 	H 	0.16840 0.18060 0.86750 0.07000
H 	H 	0.80990 0.23810 0.08150 0.06600
H 	H 	0.26110 0.15080 0.90600 -0.07500
H 	H 	0.19010 0.23810 0.08150 0.06700
H 	H 	0.24130 0.75000 0.81130 0.03600
H 	H 	0.94010 0.40660 0.34700 0.05500
H 	H 	0.16840 0.13250 0.18060 0.07000
H 	H 	0.94010 0.84700 0.90660 0.05500
H 	H 	0.24130 0.25000 0.68870 0.03600
H 	H 	0.28270 0.94840 0.19970 -0.09000
H 	H 	0.75870 0.31130 0.25000 0.03600
H 	H 	0.83160 0.81940 0.13250 0.06700
H 	H 	0.94560 0.72160 0.77840 0.12700
H 	H 	0.80990 0.76190 0.91850 0.06600
H 	H 	0.26110 0.59400 0.34920 -0.07600
H 	H 	0.26110 0.84920 0.09400 -0.07500
H 	H 	0.05990 0.15300 0.09340 0.04300
H 	H 	0.83160 0.13250 0.18060 0.06700
H 	H 	0.73890 0.34920 0.40600 -0.07600
H 	H 	0.28270 0.30030 0.55160 -0.09000
H 	H 	0.83160 0.18060 0.86750 0.06700
H 	H 	0.94010 0.15300 0.09340 0.05500
H 	H 	0.94560 0.27840 0.22160 0.12700
H 	H 	0.16840 0.31940 0.36750 0.07000
H 	H 	0.80990 0.73810 0.41850 0.06500
H 	H 	0.75870 0.25000 0.68870 0.03600
H 	H 	0.26110 0.09400 0.15080 -0.07500
H 	H 	0.71730 0.44840 0.30030 -0.09000
H 	H 	0.80990 0.08150 0.76190 0.06600
H 	H 	0.83160 0.86750 0.81940 0.06700
H 	H 	0.16840 0.63250 0.31940 0.07000
H 	H 	0.24130 0.18870 0.75000 0.03600
H 	H 	0.19010 0.91850 0.23810 0.06700
H 	H 	0.75870 0.68870 0.75000 0.03600
H 	H 	0.19010 0.26190 0.58150 0.06700
H 	H 	0.05990 0.34700 0.59340 0.04300
H 	H 	0.19010 0.41850 0.26190 0.06700
H 	H 	0.16840 0.36750 0.68060 0.07000
H 	H 	0.26110 0.40600 0.65080 -0.07600
H 	H 	0.05990 0.40660 0.34700 0.04300
H 	H 	0.24130 0.31130 0.25000 0.03600
H 	H 	0.83160 0.31940 0.36750 0.06700
H 	H 	0.05440 0.22160 0.72160 0.13600
H 	H 	0.05990 0.09340 0.84700 0.04300
H 	H 	0.94010 0.09340 0.84700 0.05500
H 	H 	0.24130 0.68870 0.75000 0.03600
H 	H 	0.80990 0.41850 0.26190 0.06500
H 	H 	0.05990 0.65300 0.40660 0.04300
H 	H 	0.73890 0.40600 0.65080 -0.07600
C 	C 	0.19160 0.35390 0.65440 -0.18700
C 	C 	0.05380 0.20560 0.14720 0.09800
C 	C 	0.24670 0.13670 0.87670 0.07300
C 	C 	0.25950 0.57780 0.68600 0.07700
C 	C 	0.28060 0.14320 0.09840 -0.16300
C 	C 	0.80840 0.65440 0.64610 -0.18800
C 	C 	0.88200 0.71650 0.34130 -0.13500
C 	C 	0.88200 0.21650 0.15870 -0.13500
C 	C 	0.11800 0.34130 0.28350 -0.13000
C 	C 	0.17050 0.86610 0.18890 0.12300
C 	C 	0.03280 0.67240 0.38690 -0.06200
C 	C 	0.86260 0.24730 0.69070 0.10800
C 	C 	0.96720 0.88690 0.17240 -0.11400
C 	C 	0.33840 0.41760 0.38210 0.14100
C 	C 	0.33840 0.88210 0.91760 0.14100
C 	C 	0.05380 0.79440 0.85280 0.09800
C 	C 	0.17050 0.81110 0.86610 0.12300
C 	C 	0.05380 0.14720 0.79440 0.09800
C 	C 	0.25950 0.68600 0.42220 0.07700
C 	C 	0.66160 0.91760 0.11790 0.14100
C 	C 	0.96720 0.67240 0.38690 -0.11500
C 	C 	0.20390 0.29730 0.23580 -0.09100
C 	C 	0.03280 0.88690 0.17240 -0.06300
C 	C 	0.80840 0.34560 0.35390 -0.18800
C 	C 	0.24670 0.63670 0.62330 0.07300
C 	C 	0.66160 0.11790 0.08240 0.14100
C 	C 	0.80840 0.35390 0.65440 -0.18800
C 	C 	0.20450 0.29120 0.59550 -0.18900
C 	C 	0.11800 0.65870 0.71650 -0.13000
C 	C 	0.74050 0.92220 0.18600 0.07700
C 	C 	0.79610 0.23580 0.70270 -0.09200
C 	C 	0.71940 0.09840 0.85680 -0.16300
C 	C 	0.33840 0.08240 0.88210 0.14100
C 	C 	0.66160 0.38210 0.58240 0.14100
C 	C 	0.13740 0.24730 0.69070 0.11000
C 	C 	0.13740 0.80930 0.25270 0.11000
C 	C 	0.79550 0.90450 0.20880 -0.19000
C 	C 	0.80840 0.14610 0.15440 -0.18800
C 	C 	0.82950 0.31110 0.63390 0.12200
C 	C 	0.03280 0.82760 0.88690 -0.06300
C 	C 	0.28060 0.35680 0.59840 -0.16300
C 	C 	0.20390 0.20270 0.73580 -0.09100
C 	C 	0.94620 0.14720 0.79440 0.10100
C 	C 	0.17050 0.63390 0.68890 0.12200
C 	C 	0.19160 0.34560 0.35390 -0.18700
C 	C 	0.33840 0.58240 0.61790 0.14100
C 	C 	0.88200 0.65870 0.71650 -0.13500
C 	C 	0.74050 0.57780 0.68600 0.07700
C 	C 	0.20390 0.73580 0.79730 -0.09100
C 	C 	0.80840 0.64610 0.34560 -0.18800
C 	C 	0.75330 0.62330 0.36330 0.07200
C 	C 	0.25950 0.92220 0.18600 0.07700
C 	C 	0.13740 0.74730 0.80930 0.11000
C 	C 	0.86260 0.80930 0.25270 0.10800
C 	C 	0.11800 0.28350 0.65870 -0.13000
C 	C 	0.82950 0.36610 0.31110 0.12200
C 	C 	0.20450 0.59550 0.70880 -0.18900
C 	C 	0.03280 0.17240 0.11310 -0.06300
C 	C 	0.03280 0.61310 0.67240 -0.06200
C 	C 	0.96720 0.82760 0.88690 -0.11400
C 	C 	0.79550 0.20880 0.09550 -0.19000
C 	C 	0.75330 0.37670 0.63670 0.07200
C 	C 	0.28060 0.09840 0.85680 -0.16300
C 	C 	0.24670 0.12330 0.13670 0.07300
C 	C 	0.74050 0.68600 0.42220 0.07700
C 	C 	0.03280 0.11310 0.82760 -0.06300
C 	C 	0.94620 0.85280 0.20560 0.10100
C 	C 	0.79550 0.59550 0.70880 -0.19000
C 	C 	0.33840 0.91760 0.11790 0.14100
C 	C 	0.79550 0.79120 0.90450 -0.19000
C 	C 	0.94620 0.64720 0.70560 0.10100
C 	C 	0.03280 0.32760 0.61310 -0.06200
C 	C 	0.96720 0.11310 0.82760 -0.11400
C 	C 	0.96720 0.61310 0.67240 -0.11500
C 	C 	0.20450 0.20880 0.09550 -0.18900
C 	C 	0.79550 0.09550 0.79120 -0.19000
C 	C 	0.75330 0.87670 0.86330 0.07200
C 	C 	0.66160 0.58240 0.61790 0.14100
C 	C 	0.71940 0.85680 0.90160 -0.16300
C 	C 	0.79550 0.29120 0.59550 -0.19000
C 	C 	0.19160 0.85390 0.84560 -0.18700
C 	C 	0.13740 0.30930 0.24730 0.11000
C 	C 	0.13740 0.69070 0.75270 0.11000
C 	C 	0.66160 0.61790 0.41760 0.14100
C 	C 	0.79610 0.70270 0.76420 -0.09200
C 	C 	0.74050 0.18600 0.07780 0.07700
C 	C 	0.82950 0.86610 0.18890 0.12300
C 	C 	0.82950 0.63390 0.68890 0.12200
C 	C 	0.86260 0.69070 0.75270 0.10800
C 	C 	0.74050 0.81400 0.92220 0.07700
C 	C 	0.96720 0.17240 0.11310 -0.11400
C 	C 	0.88200 0.78350 0.84130 -0.13500
C 	C 	0.82950 0.18890 0.13390 0.12300
C 	C 	0.71940 0.14320 0.09840 -0.16300
C 	C 	0.86260 0.30930 0.24730 0.10800
C 	C 	0.17050 0.68890 0.36610 0.12200
C 	C 	0.28060 0.64320 0.40160 -0.16300
C 	C 	0.24670 0.87670 0.86330 0.07300
C 	C 	0.88200 0.15870 0.78350 -0.13500
C 	C 	0.17050 0.31110 0.63390 0.12200
C 	C 	0.13740 0.75270 0.30930 0.11000
C 	C 	0.71940 0.35680 0.59840 -0.16300
C 	C 	0.33840 0.38210 0.58240 0.14100
C 	C 	0.94620 0.79440 0.85280 0.10100
C 	C 	0.79610 0.29730 0.23580 -0.09200
C 	C 	0.17050 0.18890 0.13390 0.12300
C 	C 	0.80840 0.84560 0.14610 -0.18800
C 	C 	0.05380 0.64720 0.70560 0.09800
C 	C 	0.82950 0.13390 0.81110 0.12300
C 	C 	0.11800 0.71650 0.34130 -0.13000
C 	C 	0.74050 0.42220 0.31400 0.07700
C 	C 	0.71940 0.40160 0.35680 -0.16300
C 	C 	0.96720 0.32760 0.61310 -0.11500
C 	C 	0.20390 0.79730 0.26420 -0.09100
C 	C 	0.74050 0.07780 0.81400 0.07700
C 	C 	0.05380 0.70560 0.35280 0.09800
C 	C 	0.20390 0.76420 0.29730 -0.09100
C 	C 	0.20450 0.90450 0.20880 -0.18900
C 	C 	0.79610 0.76420 0.29730 -0.09200
C 	C 	0.20390 0.23580 0.70270 -0.09100
C 	C 	0.25950 0.31400 0.57780 0.07700
C 	C 	0.24670 0.86330 0.12330 0.07300
C 	C 	0.24670 0.37670 0.63670 0.07300
C 	C 	0.94620 0.20560 0.14720 0.10100
C 	C 	0.74050 0.31400 0.57780 0.07700
C 	C 	0.79550 0.70880 0.40450 -0.19000
C 	C 	0.86260 0.19070 0.74730 0.10800
C 	C 	0.88200 0.34130 0.28350 -0.13500
C 	C 	0.33840 0.11790 0.08240 0.14100
C 	C 	0.11800 0.21650 0.15870 -0.13000
C 	C 	0.94620 0.35280 0.29440 0.10100
C 	C 	0.71940 0.64320 0.40160 -0.16300
C 	C 	0.71940 0.90160 0.14320 -0.16300
C 	C 	0.24670 0.62330 0.36330 0.07300
C 	C 	0.25950 0.07780 0.81400 0.07700
C 	C 	0.24670 0.36330 0.37670 0.07300
C 	C 	0.66160 0.88210 0.91760 0.14100
C 	C 	0.79610 0.20270 0.73580 -0.09200
C 	C 	0.96720 0.38690 0.32760 -0.11500
C 	C 	0.75330 0.13670 0.87670 0.07200
C 	C 	0.20450 0.40450 0.29120 -0.18900
C 	C 	0.28060 0.40160 0.35680 -0.16300
C 	C 	0.05380 0.85280 0.20560 0.09800
C 	C 	0.11800 0.15870 0.78350 -0.13000
C 	C 	0.86260 0.25270 0.19070 0.10800
C 	C 	0.13740 0.25270 0.19070 0.11000
C 	C 	0.79610 0.73580 0.79730 -0.09200
C 	C 	0.79610 0.79730 0.26420 -0.09200
C 	C 	0.03280 0.38690 0.32760 -0.06200
C 	C 	0.28060 0.90160 0.14320 -0.16300
C 	C 	0.25950 0.81400 0.92220 0.07700
C 	C 	0.79550 0.40450 0.29120 -0.19000
C 	C 	0.20390 0.26420 0.20270 -0.09100
C 	C 	0.82950 0.68890 0.36610 0.12200
C 	C 	0.94620 0.29440 0.64720 0.10100
C 	C 	0.28060 0.59840 0.64320 -0.16300
C 	C 	0.11800 0.84130 0.21650 -0.13000
C 	C 	0.86260 0.75270 0.30930 0.10800
C 	C 	0.79610 0.26420 0.20270 -0.09200
C 	C 	0.20450 0.70880 0.40450 -0.18900
C 	C 	0.20450 0.79120 0.90450 -0.18900
C 	C 	0.19160 0.84560 0.14610 -0.18700
C 	C 	0.05380 0.35280 0.29440 0.09800
C 	C 	0.20450 0.09550 0.79120 -0.18900
C 	C 	0.80840 0.15440 0.85390 -0.18800
C 	C 	0.75330 0.86330 0.12330 0.07200
C 	C 	0.82950 0.81110 0.86610 0.12300
C 	C 	0.75330 0.63670 0.62330 0.07200
C 	C 	0.20390 0.70270 0.76420 -0.09100
C 	C 	0.13740 0.19070 0.74730 0.11000
C 	C 	0.75330 0.12330 0.13670 0.07200
C 	C 	0.19160 0.64610 0.34560 -0.18700
C 	C 	0.86260 0.74730 0.80930 0.10800
C 	C 	0.66160 0.08240 0.88210 0.14100
C 	C 	0.80840 0.85390 0.84560 -0.18800
C 	C 	0.05380 0.29440 0.64720 0.09800
C 	C 	0.75330 0.36330 0.37670 0.07200
C 	C 	0.88200 0.84130 0.21650 -0.13500
C 	C 	0.17050 0.13390 0.81110 0.12300
C 	C 	0.17050 0.36610 0.31110 0.12200
C 	C 	0.66160 0.41760 0.38210 0.14100
C 	C 	0.28060 0.85680 0.90160 -0.16300
C 	C 	0.71940 0.59840 0.64320 -0.16300
C 	C 	0.19160 0.65440 0.64610 -0.18700
C 	C 	0.25950 0.42220 0.31400 0.07700
C 	C 	0.33840 0.61790 0.41760 0.14100
C 	C 	0.94620 0.70560 0.35280 0.10100
C 	C 	0.11800 0.78350 0.84130 -0.13000
C 	C 	0.88200 0.28350 0.65870 -0.13500
C 	C 	0.25950 0.18600 0.07780 0.07700
C 	C 	0.19160 0.14610 0.15440 -0.18700
C 	C 	0.19160 0.15440 0.85390 -0.18700
N 	N 	0.57910 0.09990 0.03970 -0.23000
N 	N 	0.36880 0.37130 0.54160 -0.21900
N 	N 	0.63240 0.58460 0.39530 -0.21100
N 	N 	0.57910 0.96030 0.09990 -0.23000
N 	N 	0.09700 0.72030 0.77970 -0.21800
N 	N 	0.57910 0.57320 0.42050 -0.22200
N 	N 	0.57910 0.07320 0.07950 -0.22200
N 	N 	0.36760 0.91540 0.89530 -0.21100
N 	N 	0.42090 0.40010 0.53970 -0.23000
N 	N 	0.00000 0.16690 0.77270 -0.14000
N 	N 	0.63120 0.37130 0.54160 -0.21900
N 	N 	0.00000 0.66690 0.72730 -0.14000
N 	N 	0.36760 0.10470 0.91540 -0.21100
N 	N 	0.63240 0.10470 0.91540 -0.21100
N 	N 	0.42090 0.57950 0.57320 -0.22200
N 	N 	0.90300 0.22030 0.72030 -0.21700
N 	N 	0.63120 0.04160 0.87130 -0.21900
N 	N 	0.36880 0.87130 0.95840 -0.21900
N 	N 	0.63120 0.54160 0.62870 -0.21900
N 	N 	0.36880 0.95840 0.12870 -0.21900
N 	N 	0.42090 0.03970 0.90010 -0.23000
N 	N 	0.63240 0.41540 0.60470 -0.21100
N 	N 	0.63120 0.45840 0.37130 -0.21900
N 	N 	0.36760 0.08460 0.10470 -0.21100
N 	N 	0.00000 0.77270 0.83310 -0.14000
N 	N 	0.42090 0.09990 0.03970 -0.23000
N 	N 	0.36760 0.41540 0.60470 -0.21100
N 	N 	0.57910 0.42050 0.42680 -0.22200
N 	N 	0.57910 0.40010 0.53970 -0.23100
N 	N 	0.42090 0.07320 0.07950 -0.22200
N 	N 	0.63120 0.12870 0.04160 -0.21900
N 	N 	0.63240 0.89530 0.08460 -0.21100
N 	N 	0.57910 0.59990 0.46030 -0.23100
N 	N 	-0.00000 0.22730 0.16690 -0.14000
N 	N 	0.57910 0.90010 0.96030 -0.23000
N 	N 	0.57910 0.57950 0.57320 -0.22200
N 	N 	0.42090 0.92680 0.92050 -0.22200
N 	N 	0.57910 0.53970 0.59990 -0.23100
N 	N 	0.63240 0.08460 0.10470 -0.21100
N 	N 	0.36880 0.62870 0.45840 -0.21900
N 	N 	0.00000 0.33310 0.27270 -0.14000
N 	N 	0.09700 0.27970 0.22030 -0.21800
N 	N 	0.36760 0.58460 0.39530 -0.21100
N 	N 	0.63240 0.91540 0.89530 -0.21100
N 	N 	0.42090 0.42050 0.42680 -0.22200
N 	N 	0.42090 0.59990 0.46030 -0.23000
N 	N 	0.36760 0.89530 0.08460 -0.21100
N 	N 	0.57910 0.07950 0.92680 -0.22200
N 	N 	0.57910 0.42680 0.57950 -0.22200
N 	N 	0.57910 0.46030 0.40010 -0.23100
N 	N 	0.42090 0.53970 0.59990 -0.23000
N 	N 	0.36880 0.04160 0.87130 -0.21900
N 	N 	0.63240 0.39530 0.41540 -0.21100
N 	N 	0.36880 0.54160 0.62870 -0.21900
N 	N 	0.09700 0.77970 0.27970 -0.21800
N 	N 	0.42090 0.96030 0.09990 -0.23000
N 	N 	0.63240 0.60470 0.58460 -0.21100
N 	N 	0.36760 0.60470 0.58460 -0.21100
N 	N 	0.90300 0.77970 0.27970 -0.21700
N 	N 	0.63120 0.95840 0.12870 -0.21900
N 	N 	0.36880 0.45840 0.37130 -0.21900
N 	N 	0.00000 0.72730 0.33310 -0.14000
N 	N 	0.42090 0.92050 0.07320 -0.22200
N 	N 	0.09700 0.22030 0.72030 -0.21800
N 	N 	0.42090 0.90010 0.96030 -0.23000
N 	N 	0.42090 0.57320 0.42050 -0.22200
N 	N 	0.42090 0.07950 0.92680 -0.22200
N 	N 	0.36880 0.12870 0.04160 -0.21900
N 	N 	0.42090 0.46030 0.40010 -0.23000
N 	N 	0.00000 0.83310 0.22730 -0.14000
N 	N 	0.42090 0.42680 0.57950 -0.22200
N 	N 	0.57910 0.92680 0.92050 -0.22200
N 	N 	0.57910 0.92050 0.07320 -0.22200
N 	N 	0.36760 0.39530 0.41540 -0.21100
N 	N 	0.63120 0.62870 0.45840 -0.21900
N 	N 	0.90300 0.72030 0.77970 -0.21700
N 	N 	0.90300 0.27970 0.22030 -0.21700
N 	N 	0.57910 0.03970 0.90010 -0.23000
N 	N 	0.63120 0.87130 0.95840 -0.21900
N 	N 	0.00000 0.27270 0.66690 -0.14000
Cl	Cl	0.50000 0.18537 0.96740 -1.02500
Cl	Cl	0.50000 0.96740 0.81463 -1.02500
Cl	Cl	0.50000 0.68537 0.53260 -1.02500
Cl	Cl	0.50000 0.03260 0.18537 -1.02500
Cl	Cl	0.50000 0.53260 0.31463 -1.02500
Cl	Cl	0.50000 0.31463 0.46740 -1.02500
Cl	Cl	0.50000 0.46740 0.68537 -1.02500
Cl	Cl	0.50000 0.81463 0.03260 -1.02500
