data_crystal

_cell_length_a 19.38300
_cell_length_b 21.59900
_cell_length_c 21.59900
_cell_angle_alpha 90.00000
_cell_angle_beta  90.00000
_cell_angle_gamma 90.00000

_symmetry_space_group_name_	'P 1'
_symmetry_space_group_name_H-M	'P 1'

loop_
_symmetry_equiv_pos_as_xyz
  x,y,z

loop_
_atom_site_label
_atom_site_type_symbol
_atom_site_fract_x
_atom_site_fract_y
_atom_site_fract_z
_atom_site_charge
Cd	Cd	-0.00000 0.09140 0.90860 1.15900
Cd	Cd	-0.00000 0.90860 0.09140 1.15900
Cd	Cd	0.86730 0.17320 0.82680 1.11900
Cd	Cd	0.86730 0.17320 0.17320 1.12100
Cd	Cd	-0.00000 0.09140 0.09140 1.16200
Cd	Cd	0.00000 0.90860 0.90860 1.15400
Cd	Cd	0.50000 0.50000 0.96239 1.00500
Cd	Cd	0.50000 0.50000 0.03761 1.02000
Cd	Cd	0.50000 0.96239 0.50000 1.00500
Cd	Cd	0.50000 0.03761 0.50000 1.02000
Cd	Cd	0.86730 0.82680 0.82680 1.11600
Cd	Cd	0.86730 0.82680 0.17320 1.11800
H 	H 	0.75640 0.00000 0.55660 0.05200
H 	H 	0.77610 0.09300 0.25520 -0.09000
H 	H 	0.31010 0.09310 0.32980 0.05700
H 	H 	0.68990 0.90690 0.67020 0.07200
H 	H 	0.68990 0.09310 0.32980 0.07300
H 	H 	0.31010 0.67020 0.09310 0.05600
H 	H 	0.22390 0.74480 0.90700 0.03400
H 	H 	0.24360 0.00000 0.55660 0.05900
H 	H 	0.68990 0.67020 0.09310 0.07200
H 	H 	0.77610 0.25520 0.09300 -0.09000
H 	H 	0.43670 0.73150 -0.00000 0.05600
H 	H 	0.77610 0.90700 0.25520 -0.08800
H 	H 	0.22390 0.09300 0.74480 0.03300
H 	H 	0.77610 0.90700 0.74480 -0.09000
H 	H 	0.75640 0.00000 0.44340 0.05200
H 	H 	0.68990 0.09310 0.67020 0.07200
H 	H 	0.31010 0.09310 0.67020 0.05600
H 	H 	0.75640 0.44340 -0.00000 0.05200
H 	H 	0.77610 0.25520 0.90700 -0.08800
H 	H 	0.43670 0.00000 0.26850 0.05900
H 	H 	0.31010 0.90690 0.67020 0.05600
H 	H 	0.31010 0.90690 0.32980 0.05700
H 	H 	0.43670 -0.00000 0.73150 0.05600
H 	H 	0.22390 0.74480 0.09300 0.03300
H 	H 	0.56330 -0.00000 0.73150 0.05100
H 	H 	0.68990 0.90690 0.32980 0.07200
H 	H 	0.31010 0.32980 0.90690 0.05700
H 	H 	0.22390 0.90700 0.74480 0.03400
H 	H 	0.22390 0.90700 0.25520 0.03600
H 	H 	0.68990 0.32980 0.90690 0.07200
H 	H 	0.22390 0.25520 0.09300 0.03500
H 	H 	0.56330 0.26850 -0.00000 0.05300
H 	H 	0.77610 0.09300 0.74480 -0.09100
H 	H 	0.56330 0.00000 0.26850 0.05300
H 	H 	0.77610 0.74480 0.09300 -0.09100
H 	H 	0.22390 0.25520 0.90700 0.03600
H 	H 	0.43670 0.26850 -0.00000 0.05900
H 	H 	0.31010 0.32980 0.09310 0.05700
H 	H 	0.24360 0.44340 -0.00000 0.05900
H 	H 	0.68990 0.32980 0.09310 0.07300
H 	H 	0.24360 0.55660 -0.00000 0.05900
H 	H 	0.22390 0.09300 0.25520 0.03500
H 	H 	0.24360 0.00000 0.44340 0.05900
H 	H 	0.68990 0.67020 0.90690 0.07200
H 	H 	0.75640 0.55660 -0.00000 0.05200
H 	H 	0.77610 0.74480 0.90700 -0.09000
H 	H 	0.56330 0.73150 -0.00000 0.05100
H 	H 	0.31010 0.67020 0.90690 0.05600
C 	C 	0.71770 0.46870 -0.00000 -0.10100
C 	C 	0.84080 0.80030 -0.00000 0.15200
C 	C 	0.46510 0.00000 0.30320 -0.09700
C 	C 	0.29270 0.31500 0.05578 -0.12700
C 	C 	0.78480 0.00000 0.24816 -0.14400
C 	C 	0.15920 -0.00000 0.19970 0.13600
C 	C 	0.21520 0.00000 0.24816 -0.01700
C 	C 	0.24110 0.94424 0.27030 -0.03000
C 	C 	0.55550 0.63760 -0.00000 0.07900
C 	C 	0.75890 0.05576 0.72970 0.09400
C 	C 	0.21520 0.75184 -0.00000 -0.01900
C 	C 	0.78480 0.24816 -0.00000 -0.14400
C 	C 	0.29270 0.94422 0.31500 -0.15000
C 	C 	0.29270 0.68500 0.05578 -0.12800
C 	C 	0.46510 0.30320 -0.00000 -0.09700
C 	C 	0.62480 0.61280 -0.00000 -0.19900
C 	C 	0.71770 -0.00000 0.46870 -0.10100
C 	C 	0.75890 0.27030 0.94424 0.07200
C 	C 	0.75890 0.72970 0.94424 0.07200
C 	C 	0.28230 0.46870 -0.00000 -0.09500
C 	C 	0.34820 0.55040 -0.00000 0.07300
C 	C 	0.65180 0.55040 -0.00000 0.07600
C 	C 	0.29270 0.31500 0.94422 -0.15000
C 	C 	0.29270 0.05578 0.31500 -0.12700
C 	C 	0.28230 0.53130 -0.00000 -0.09500
C 	C 	0.46510 0.69680 -0.00000 -0.09800
C 	C 	0.34820 0.00000 0.44960 0.07300
C 	C 	0.78480 0.75184 -0.00000 -0.14500
C 	C 	0.65180 0.44960 -0.00000 0.07600
C 	C 	0.31830 0.00000 0.33750 0.11400
C 	C 	0.21520 0.24816 -0.00000 -0.01700
C 	C 	0.84080 0.00000 0.80030 0.15200
C 	C 	0.75890 0.94424 0.27030 0.07200
C 	C 	0.70730 0.68500 0.94422 -0.24400
C 	C 	0.37520 0.00000 0.61280 -0.17700
C 	C 	0.37520 0.61280 -0.00000 -0.17700
C 	C 	0.24110 0.05576 0.72970 -0.00800
C 	C 	0.24110 0.05576 0.27030 -0.00800
C 	C 	0.68170 0.33750 -0.00000 0.17000
C 	C 	0.75890 0.72970 0.05576 0.09400
C 	C 	0.44450 -0.00000 0.36240 0.07500
C 	C 	0.75890 0.27030 0.05576 0.09500
C 	C 	0.68170 0.66250 -0.00000 0.17000
C 	C 	0.62480 0.00000 0.61280 -0.19900
C 	C 	0.70730 0.94422 0.68500 -0.24400
C 	C 	0.55550 -0.00000 0.36240 0.08000
C 	C 	0.68170 0.00000 0.33750 0.17000
C 	C 	0.21520 0.00000 0.75184 -0.01900
C 	C 	0.78480 0.00000 0.75184 -0.14500
C 	C 	0.53490 -0.00000 0.69680 -0.10200
C 	C 	0.70730 0.31500 0.05578 -0.22100
C 	C 	0.53490 0.00000 0.30320 -0.10100
C 	C 	0.44450 0.36240 -0.00000 0.07500
C 	C 	0.62480 -0.00000 0.38720 -0.19900
C 	C 	0.29270 0.94422 0.68500 -0.15100
C 	C 	0.29270 0.68500 0.94422 -0.15100
C 	C 	0.75890 0.05576 0.27030 0.09500
C 	C 	0.65180 0.00000 0.44960 0.07600
C 	C 	0.15920 0.00000 0.80030 0.13300
C 	C 	0.55550 0.00000 0.63760 0.07900
C 	C 	0.71770 0.00000 0.53130 -0.10100
C 	C 	0.24110 0.94424 0.72970 -0.03100
C 	C 	0.70730 0.05578 0.68500 -0.22100
C 	C 	0.53490 0.69680 -0.00000 -0.10200
C 	C 	0.70730 0.05578 0.31500 -0.22100
C 	C 	0.15920 0.19970 -0.00000 0.13600
C 	C 	0.24110 0.72970 0.05576 -0.00800
C 	C 	0.44450 0.63760 -0.00000 0.07400
C 	C 	0.24110 0.27030 0.05576 -0.00800
C 	C 	0.37520 -0.00000 0.38720 -0.17700
C 	C 	0.37520 0.38720 -0.00000 -0.17700
C 	C 	0.28230 0.00000 0.53130 -0.09500
C 	C 	0.28230 -0.00000 0.46870 -0.09500
C 	C 	0.31830 -0.00000 0.66250 0.11400
C 	C 	0.46510 -0.00000 0.69680 -0.09800
C 	C 	0.53490 0.30320 -0.00000 -0.10100
C 	C 	0.55550 0.36240 -0.00000 0.08000
C 	C 	0.70730 0.68500 0.05578 -0.22100
C 	C 	0.70730 0.94422 0.31500 -0.24300
C 	C 	0.34820 0.00000 0.55040 0.07300
C 	C 	0.65180 0.00000 0.55040 0.07600
C 	C 	0.29270 0.05578 0.68500 -0.12800
C 	C 	0.84080 0.19970 -0.00000 0.15500
C 	C 	0.31830 0.33750 -0.00000 0.11400
C 	C 	0.15920 0.80030 -0.00000 0.13300
C 	C 	0.34820 0.44960 -0.00000 0.07300
C 	C 	0.31830 0.66250 -0.00000 0.11400
C 	C 	0.24110 0.27030 0.94424 -0.03000
C 	C 	0.24110 0.72970 0.94424 -0.03100
C 	C 	0.68170 -0.00000 0.66250 0.17000
C 	C 	0.44450 0.00000 0.63760 0.07400
C 	C 	0.84080 -0.00000 0.19970 0.15500
C 	C 	0.75890 0.94424 0.72970 0.07200
C 	C 	0.62480 0.38720 -0.00000 -0.19900
C 	C 	0.71770 0.53130 -0.00000 -0.10100
C 	C 	0.70730 0.31500 0.94422 -0.24300
N 	N 	0.50000 0.00000 0.40200 -0.37300
N 	N 	0.86950 0.18000 0.94800 -0.23100
N 	N 	0.08122 0.85931 0.03062 -0.18000
N 	N 	0.13050 0.05200 0.18000 -0.10100
N 	N 	0.13050 0.05200 0.82000 -0.10300
N 	N 	0.13050 0.18000 0.05200 -0.10100
N 	N 	0.08122 0.03062 0.85931 -0.18000
N 	N 	0.13050 0.94800 0.18000 -0.11400
N 	N 	0.91878 0.03062 0.14069 -0.20900
N 	N 	0.86950 0.94800 0.82000 -0.23200
N 	N 	0.08122 0.96938 0.14069 -0.19900
N 	N 	0.13050 0.82000 0.05200 -0.10300
N 	N 	0.50000 0.40200 -0.00000 -0.37300
N 	N 	0.50000 0.59800 -0.00000 -0.37300
N 	N 	0.50000 -0.00000 0.59800 -0.37300
N 	N 	0.13050 0.82000 0.94800 -0.11500
N 	N 	0.13050 0.18000 0.94800 -0.11400
N 	N 	0.91878 0.14069 0.03062 -0.20900
N 	N 	0.91878 0.14069 0.96938 -0.23100
N 	N 	0.08122 0.14069 0.96938 -0.19900
N 	N 	0.91878 0.96938 0.85931 -0.23400
N 	N 	0.08122 0.85931 0.96938 -0.20200
N 	N 	0.86950 0.94800 0.18000 -0.23100
N 	N 	0.91878 0.85931 0.03062 -0.21200
N 	N 	0.86950 0.18000 0.05200 -0.21900
N 	N 	0.86950 0.82000 0.05200 -0.22000
N 	N 	0.13050 0.94800 0.82000 -0.11500
N 	N 	0.86950 0.05200 0.18000 -0.21900
N 	N 	0.08122 0.03062 0.14069 -0.17700
N 	N 	0.39140 0.00000 0.50000 -0.37300
N 	N 	0.86950 0.82000 0.94800 -0.23200
N 	N 	0.86950 0.05200 0.82000 -0.22000
N 	N 	0.91878 0.96938 0.14069 -0.23100
N 	N 	0.08122 0.14069 0.03062 -0.17700
N 	N 	0.91878 0.85931 0.96938 -0.23400
N 	N 	0.08122 0.96938 0.85931 -0.20200
N 	N 	0.91878 0.03062 0.85931 -0.21200
N 	N 	0.39140 0.50000 -0.00000 -0.37300
N 	N 	0.60860 0.50000 -0.00000 -0.37600
N 	N 	0.60860 0.00000 0.50000 -0.37600
Cl	Cl	0.00000 0.83070 0.16930 -0.74700
Cl	Cl	0.00000 0.16930 0.83070 -0.74700
Cl	Cl	0.00000 0.83070 0.83070 -0.75300
Cl	Cl	-0.00000 0.16930 0.16930 -0.74100
