data_crystal

_cell_length_a 16.00960
_cell_length_b 16.00930
_cell_length_c 16.00930
_cell_angle_alpha 108.73100
_cell_angle_beta  108.73200
_cell_angle_gamma 110.96200

_symmetry_space_group_name_	'P 1'
_symmetry_space_group_name_H-M	'P 1'

loop_
_symmetry_equiv_pos_as_xyz
  x,y,z

loop_
_atom_site_label
_atom_site_type_symbol
_atom_site_fract_x
_atom_site_fract_y
_atom_site_fract_z
_atom_site_charge
Ti	Ti	0.28907 0.57933 0.87045 3.09700
Ti	Ti	0.57626 0.70969 0.28285 3.10000
Ti	Ti	0.42210 0.29618 0.71754 3.10000
Ti	Ti	0.57361 0.29122 0.87121 3.10100
Ti	Ti	0.70455 0.57864 0.28246 3.10100
Ti	Ti	0.41863 0.70889 0.12955 3.09800
Ti	Ti	0.29341 0.42684 0.71715 3.10100
Ti	Ti	0.70240 0.42001 0.12879 3.10200
C 	C 	0.95932 0.43570 0.39715 0.01400
C 	C 	0.49496 -0.00655 0.90862 0.03300
C 	C 	0.90375 0.42512 0.90839 0.00700
C 	C 	0.80523 0.80847 0.39478 0.59700
C 	C 	0.19356 0.19749 0.60238 0.60600
C 	C 	0.56217 0.03855 0.60285 0.00700
C 	C 	0.08986 0.54290 -0.00000 -0.13200
C 	C 	0.45853 0.89907 0.90863 -0.06500
C 	C 	0.49705 0.84437 0.34376 0.57100
C 	C 	0.55820 0.08827 -0.00000 -0.14600
C 	C 	0.09360 0.09746 0.54480 -0.14700
C 	C 	0.49696 0.92418 0.42415 -0.14200
C 	C 	-0.00007 0.09519 0.52203 0.01500
C 	C 	0.90514 0.90839 0.45120 -0.15000
C 	C 	0.59117 0.59511 0.39761 0.60700
C 	C 	0.57162 0.48377 0.48015 0.02200
C 	C 	0.09147 0.00362 0.51985 0.01500
C 	C 	0.58638 0.08482 0.09137 0.04700
C 	C 	0.15329 0.50061 0.65625 0.57000
C 	C 	0.54995 0.99044 0.09136 -0.04900
C 	C 	0.43174 0.96256 0.39821 0.02500
C 	C 	0.43186 0.03793 0.47344 0.00800
C 	C 	0.48314 0.89564 -0.00000 0.04800
C 	C 	0.59101 0.18948 -0.00000 0.60300
C 	C 	0.56218 0.96330 0.52760 0.02400
C 	C 	0.43130 0.52626 0.52405 0.01900
C 	C 	0.99536 0.51673 0.09161 0.02100
C 	C 	0.07281 0.50003 0.57586 -0.14000
C 	C 	0.52503 0.43688 0.52625 0.01900
C 	C 	0.90177 0.44670 -0.00000 -0.13800
C 	C 	0.03352 0.56435 0.60179 0.01800
C 	C 	0.84013 0.50011 0.34281 0.56800
C 	C 	0.95842 0.56449 0.52656 0.01500
C 	C 	0.43493 0.79281 -0.00000 0.19200
C 	C 	0.90725 1.00221 0.47595 0.02500
C 	C 	0.99878 0.91063 0.47375 0.02600
C 	C 	0.54879 0.55266 0.45520 -0.15100
C 	C 	0.45395 0.45720 0.54881 -0.14600
C 	C 	-0.00365 0.47244 0.90839 0.00600
C 	C 	0.18937 0.58774 -0.00000 0.62000
C 	C 	0.03458 0.43570 0.47240 0.01800
C 	C 	0.47790 0.57315 0.47797 0.02200
C 	C 	0.49709 0.07708 0.57689 -0.13400
C 	C 	0.92019 0.50018 0.42311 -0.13700
C 	C 	0.80205 0.40442 -0.00000 0.62600
C 	C 	0.41045 0.41370 0.60523 0.59600
C 	C 	0.49732 0.15730 0.65719 0.56700
C 	C 	0.08796 0.56406 0.09161 0.02200
O 	O 	0.35150 0.43928 0.62889 -0.82700
O 	O 	0.64574 0.27284 0.08437 -0.81200
O 	O 	0.18436 0.55789 0.74855 -0.81500
O 	O 	0.37971 0.57811 0.81016 -1.02400
O 	O 	0.56137 0.18847 0.91563 -0.82700
O 	O 	0.75948 0.57037 0.18776 -1.01000
O 	O 	0.33691 0.72704 0.91630 -0.65800
O 	O 	0.43581 0.80935 0.25145 -0.81400
O 	O 	0.80342 0.43108 0.08410 -0.83400
O 	O 	0.80538 0.43929 0.25046 -0.80700
O 	O 	0.59704 0.39569 -0.00000 -1.01300
O 	O 	0.72261 0.81039 0.37112 -0.82700
O 	O 	0.18979 0.44425 0.63152 -0.80400
O 	O 	0.27618 0.19596 0.62692 -0.83100
O 	O 	0.39609 0.60540 -0.00000 -1.01600
O 	O 	0.44008 0.19289 0.63227 -0.80200
O 	O 	0.55492 0.18883 0.74955 -0.80800
O 	O 	0.42372 0.23676 0.80917 -1.01300
O 	O 	0.27214 0.64674 0.08450 -0.82400
O 	O 	0.71933 0.34698 0.91591 -0.84800
O 	O 	0.56418 0.65215 0.37169 -0.82700
O 	O 	0.61455 0.42759 0.19083 -1.00700
O 	O 	0.55827 0.81273 0.36848 -0.80400
O 	O 	0.56955 0.76795 0.18984 -1.01700
O 	O 	0.80780 0.56062 0.36773 -0.80200
O 	O 	0.64926 0.56904 0.37308 -0.83100
O 	O 	0.42063 0.81075 0.08371 -0.64300
O 	O 	0.23690 0.43014 0.81009 -1.02300
O 	O 	0.80637 0.72533 0.36926 -0.82200
O 	O 	0.19249 0.28046 0.62831 -0.82700
O 	O 	0.18763 0.56223 0.91550 -0.83900
O 	O 	0.43711 0.35607 0.63074 -0.82200
O 	O 	0.57172 0.38261 0.81224 -1.01600
O 	O 	0.39886 0.40274 0.79915 -1.00900
O 	O 	0.42680 0.62005 0.18991 -1.01600
O 	O 	0.59970 0.60358 0.20085 -1.00300
H 	H 	0.93188 0.38509 0.31839 0.05100
H 	H 	0.47186 -0.00805 0.83649 0.04100
H 	H 	0.83336 0.37246 0.83629 0.04900
H 	H 	0.61349 0.06669 0.68161 0.05000
H 	H 	0.40894 0.82844 0.83651 0.06600
H 	H 	-0.00181 0.16562 0.54082 0.04800
H 	H 	0.62494 0.46506 0.46311 0.04800
H 	H 	0.16183 0.00196 0.53689 0.04800
H 	H 	0.63544 0.15546 0.16351 0.04100
H 	H 	0.57250 0.99192 0.16348 0.06500
H 	H 	0.38045 0.93448 0.31946 0.05300
H 	H 	0.38064 0.06550 0.45040 0.05300
H 	H 	0.61343 0.93575 0.55063 0.04800
H 	H 	0.37788 0.54487 0.54095 0.04800
H 	H 	0.99708 0.53618 0.16372 0.04900
H 	H 	0.54544 0.38512 0.54491 0.04800
H 	H 	0.06098 0.61501 0.68054 0.05200
H 	H 	0.93024 0.61510 0.54960 0.05100
H 	H 	0.83693 1.00392 0.45906 0.04700
H 	H 	1.00054 0.84021 0.45509 0.04700
H 	H 	-0.00544 0.45326 0.83628 0.05000
H 	H 	0.06281 0.38513 0.44937 0.05000
H 	H 	0.45737 0.62480 0.45918 0.04700
H 	H 	0.15829 0.61699 0.16372 0.05000
