data_crystal

_cell_length_a 20.11730
_cell_length_b 20.11710
_cell_length_c 20.11710
_cell_angle_alpha 109.47100
_cell_angle_beta  109.47100
_cell_angle_gamma 109.47100

_symmetry_space_group_name_	'P 1'
_symmetry_space_group_name_H-M	'P 1'

loop_
_symmetry_equiv_pos_as_xyz
  x,y,z

loop_
_atom_site_label
_atom_site_type_symbol
_atom_site_fract_x
_atom_site_fract_y
_atom_site_fract_z
_atom_site_charge
Co	Co	0.50000 0.50000 0.50000 1.19500
Co	Co	0.00000 0.00000 0.50000 1.15900
Co	Co	-0.00000 0.50000 -0.00000 1.15900
Co	Co	0.50000 0.00000 -0.00000 1.15900
H 	H 	0.62020 0.10480 0.19680 0.04200
H 	H 	0.74510 0.66350 0.63600 0.03200
H 	H 	0.66360 0.81580 0.93680 0.10000
H 	H 	0.19680 0.62020 0.10480 0.04200
H 	H 	0.91840 0.25490 0.89090 0.03500
H 	H 	0.80320 0.37980 0.89520 0.04200
H 	H 	0.02750 0.66350 0.91840 -0.02400
H 	H 	0.06320 0.87900 0.72680 0.04200
H 	H 	0.89310 0.70060 0.27930 0.07600
H 	H 	0.42340 0.51540 0.62020 0.04400
H 	H 	0.89310 0.61380 0.19250 0.06300
H 	H 	0.91840 0.02750 0.66350 -0.02300
H 	H 	0.61380 0.19250 0.89310 0.06300
H 	H 	0.89090 0.63600 0.97250 0.09200
H 	H 	0.33640 0.27320 0.15220 0.06200
H 	H 	0.12100 0.27320 0.93680 0.09300
H 	H 	0.70060 0.27930 0.89310 0.07600
H 	H 	0.08160 0.74510 0.10910 0.02000
H 	H 	0.18420 0.06320 0.33640 0.02900
H 	H 	0.81580 0.93680 0.66360 0.10100
H 	H 	0.66350 0.91840 0.02750 -0.02300
H 	H 	0.10910 0.08160 0.74510 0.02000
H 	H 	0.19680 0.09200 0.57660 0.04300
H 	H 	0.15220 0.33640 0.27320 0.06200
H 	H 	0.74510 0.10910 0.08160 0.02000
H 	H 	0.15220 0.87900 0.81580 0.07300
H 	H 	0.72070 0.10690 0.29940 0.05800
H 	H 	0.63600 0.74510 0.66350 0.03300
H 	H 	0.33650 0.36400 0.25490 0.02300
H 	H 	0.62020 0.42340 0.51540 0.04400
H 	H 	0.61380 0.72070 0.42130 0.06300
H 	H 	0.70060 0.80750 0.42130 0.07500
H 	H 	0.81580 0.15220 0.87900 0.07300
H 	H 	0.48460 0.37980 0.57660 0.04200
H 	H 	0.97250 0.89090 0.63600 0.09200
H 	H 	0.42130 0.61380 0.72070 0.06300
H 	H 	0.10690 0.38620 0.80750 0.07100
H 	H 	0.08160 0.97250 0.33650 0.08400
H 	H 	0.72070 0.42130 0.61380 0.06300
H 	H 	0.33640 0.18420 0.06320 0.02900
H 	H 	0.29940 0.19250 0.57870 0.05800
H 	H 	0.57660 0.48460 0.37980 0.04200
H 	H 	0.10480 0.48460 0.90800 0.04100
H 	H 	0.09200 0.89520 0.51540 0.04400
H 	H 	0.27930 0.57870 0.38620 0.07100
H 	H 	0.80750 0.10690 0.38620 0.07100
H 	H 	0.19250 0.57870 0.29940 0.05800
H 	H 	0.84780 0.12100 0.18420 0.06000
H 	H 	0.12100 0.18420 0.84780 0.06000
H 	H 	0.38620 0.27930 0.57870 0.07100
H 	H 	0.89520 0.51540 0.09200 0.04400
H 	H 	0.93680 0.66360 0.81580 0.10100
H 	H 	0.57870 0.29940 0.19250 0.05800
H 	H 	0.66360 0.72680 0.84780 0.07000
H 	H 	0.02750 0.10910 0.36400 -0.04100
H 	H 	0.89090 0.91840 0.25490 0.03600
H 	H 	0.51540 0.62020 0.42340 0.04400
H 	H 	0.66350 0.63600 0.74510 0.03300
H 	H 	0.06320 0.33640 0.18420 0.02900
H 	H 	0.25490 0.89090 0.91840 0.03600
H 	H 	0.42340 0.80320 0.90800 0.04300
H 	H 	0.25490 0.33650 0.36400 0.02300
H 	H 	0.72680 0.84780 0.66360 0.07000
H 	H 	0.29940 0.72070 0.10690 0.05800
H 	H 	0.89520 0.80320 0.37980 0.04300
H 	H 	0.27930 0.89310 0.70060 0.07600
H 	H 	0.72680 0.06320 0.87900 0.04200
H 	H 	0.09200 0.57660 0.19680 0.04300
H 	H 	0.93680 0.12100 0.27320 0.09300
H 	H 	0.80750 0.42130 0.70060 0.07500
H 	H 	0.42130 0.70060 0.80750 0.07500
H 	H 	0.57660 0.19680 0.09200 0.04300
H 	H 	0.57870 0.38620 0.27930 0.07100
H 	H 	0.51540 0.09200 0.89520 0.04400
H 	H 	0.37980 0.57660 0.48460 0.04200
H 	H 	0.90800 0.42340 0.80320 0.04300
H 	H 	0.10910 0.36400 0.02750 -0.04100
H 	H 	0.48460 0.90800 0.10480 0.04100
H 	H 	0.97250 0.33650 0.08160 0.08400
H 	H 	0.87900 0.81580 0.15220 0.07300
H 	H 	0.37980 0.89520 0.80320 0.04300
H 	H 	0.36400 0.25490 0.33650 0.02300
H 	H 	0.10690 0.29940 0.72070 0.05800
H 	H 	0.87900 0.72680 0.06320 0.04200
H 	H 	0.84780 0.66360 0.72680 0.07000
H 	H 	0.80320 0.90800 0.42340 0.04300
H 	H 	0.33650 0.08160 0.97250 0.08400
H 	H 	0.10480 0.19680 0.62020 0.04300
H 	H 	0.18420 0.84780 0.12100 0.06000
H 	H 	0.63600 0.97250 0.89090 0.09200
H 	H 	0.27320 0.93680 0.12100 0.09300
H 	H 	0.90800 0.10480 0.48460 0.04100
H 	H 	0.36400 0.02750 0.10910 -0.04100
H 	H 	0.27320 0.15220 0.33640 0.06200
H 	H 	0.19250 0.89310 0.61380 0.06300
H 	H 	0.38620 0.80750 0.10690 0.07100
C 	C 	0.54103 0.74611 0.85866 0.07900
C 	C 	0.10524 0.19340 0.66530 0.01900
C 	C 	0.61433 0.63128 0.74045 0.05400
C 	C 	0.25389 0.79492 0.11255 0.02500
C 	C 	0.45897 0.25389 0.14134 0.00800
C 	C 	0.74407 0.27315 0.89188 -0.10300
C 	C 	0.87388 0.25955 0.89083 0.06900
C 	C 	0.19915 0.38564 0.31423 -0.12000
C 	C 	0.74407 0.85219 0.47092 -0.11600
C 	C 	0.74045 0.10917 0.12612 0.04500
C 	C 	0.47092 0.74407 0.85219 -0.11600
C 	C 	0.10812 0.25593 0.72685 -0.08400
C 	C 	0.18649 0.07141 0.38564 -0.04600
C 	C 	0.27315 0.89188 0.74407 -0.10300
C 	C 	0.66530 0.10524 0.19340 0.01900
C 	C 	0.19340 0.08816 0.52810 0.01300
C 	C 	0.14134 0.45897 0.25389 0.00800
C 	C 	0.25389 0.14134 0.45897 0.00800
C 	C 	0.61436 0.68577 0.80085 -0.09900
C 	C 	0.33470 0.52810 0.43994 0.03500
C 	C 	0.92859 0.11508 0.31423 -0.17700
C 	C 	0.08816 0.52810 0.19340 0.01300
C 	C 	0.88492 0.81351 0.19915 -0.11800
C 	C 	0.11255 0.31763 0.85866 0.07500
C 	C 	0.52908 0.25593 0.14781 -0.07100
C 	C 	0.63128 0.01695 0.89083 -0.03900
C 	C 	0.38567 0.36872 0.25955 0.05900
C 	C 	0.25955 0.89083 0.87388 0.06900
C 	C 	0.47190 0.56006 0.66530 0.02800
C 	C 	0.98305 0.61433 0.87388 0.16200
C 	C 	0.12612 0.01695 0.38567 -0.05500
C 	C 	0.72685 0.47092 0.61873 -0.08300
C 	C 	0.31423 0.92859 0.11508 -0.17700
C 	C 	0.61433 0.87388 0.98305 0.16200
C 	C 	0.88492 0.68577 0.07141 -0.04800
C 	C 	0.07141 0.38564 0.18649 -0.04600
C 	C 	0.80660 0.91184 0.47190 0.05000
C 	C 	0.74611 0.85866 0.54103 0.07900
C 	C 	0.19340 0.66530 0.10524 0.01900
C 	C 	0.85219 0.10812 0.38127 -0.11800
C 	C 	0.80660 0.33470 0.89476 0.04500
C 	C 	0.81351 0.92859 0.61436 -0.17000
C 	C 	0.25593 0.72685 0.10812 -0.08400
C 	C 	0.72685 0.10812 0.25593 -0.08400
C 	C 	0.47092 0.61873 0.72685 -0.08300
C 	C 	0.11508 0.18649 0.80085 -0.10100
C 	C 	0.31423 0.19915 0.38564 -0.12000
C 	C 	0.25955 0.38567 0.36872 0.05900
C 	C 	0.80085 0.61436 0.68577 -0.09900
C 	C 	0.20508 0.88745 0.74611 0.06300
C 	C 	0.74045 0.61433 0.63128 0.05400
C 	C 	0.52810 0.19340 0.08816 0.01300
C 	C 	0.33470 0.89476 0.80660 0.04500
C 	C 	0.81351 0.19915 0.88492 -0.11800
C 	C 	0.63128 0.74045 0.61433 0.05400
C 	C 	0.43994 0.91184 0.10524 0.04200
C 	C 	0.61873 0.14781 0.89188 -0.07200
C 	C 	0.88745 0.74611 0.20508 0.06300
C 	C 	0.61436 0.81351 0.92859 -0.17000
C 	C 	0.68237 0.79492 0.54103 0.03200
C 	C 	0.85866 0.11255 0.31763 0.07500
C 	C 	0.25593 0.14781 0.52908 -0.07100
C 	C 	0.89083 0.63128 0.01695 -0.03900
C 	C 	0.31763 0.20508 0.45897 0.05700
C 	C 	0.14134 0.88745 0.68237 0.01700
C 	C 	0.79492 0.11255 0.25389 0.02500
C 	C 	0.91184 0.10524 0.43994 0.04200
C 	C 	0.89476 0.56006 0.08816 0.02300
C 	C 	0.38567 0.12612 0.01695 -0.05500
C 	C 	0.01695 0.89083 0.63128 -0.03900
C 	C 	0.85866 0.54103 0.74611 0.07900
C 	C 	0.74611 0.20508 0.88745 0.06300
C 	C 	0.20508 0.45897 0.31763 0.05700
C 	C 	0.36872 0.25955 0.38567 0.05900
C 	C 	0.38564 0.31423 0.19915 -0.12000
C 	C 	0.18649 0.80085 0.11508 -0.10100
C 	C 	0.14781 0.89188 0.61873 -0.07200
C 	C 	0.12612 0.74045 0.10917 0.04500
C 	C 	0.38564 0.18649 0.07141 -0.04600
C 	C 	0.47190 0.80660 0.91184 0.05000
C 	C 	0.11508 0.31423 0.92859 -0.17700
C 	C 	0.89188 0.74407 0.27315 -0.10300
C 	C 	0.89188 0.61873 0.14781 -0.07200
C 	C 	0.10917 0.12612 0.74045 0.04500
C 	C 	0.80085 0.11508 0.18649 -0.10100
C 	C 	0.19915 0.88492 0.81351 -0.11800
C 	C 	0.10812 0.38127 0.85219 -0.11800
C 	C 	0.38127 0.27315 0.52908 -0.10400
C 	C 	0.68577 0.80085 0.61436 -0.09900
C 	C 	0.87388 0.98305 0.61433 0.16200
C 	C 	0.88745 0.68237 0.14134 0.01700
C 	C 	0.36872 0.98305 0.10917 0.16000
C 	C 	0.56006 0.08816 0.89476 0.02300
C 	C 	0.61873 0.72685 0.47092 -0.08300
C 	C 	0.68577 0.07141 0.88492 -0.04800
C 	C 	0.66530 0.47190 0.56006 0.02800
C 	C 	0.68237 0.14134 0.88745 0.01700
C 	C 	0.85219 0.47092 0.74407 -0.11600
C 	C 	0.56006 0.66530 0.47190 0.02800
C 	C 	0.98305 0.10917 0.36872 0.16000
C 	C 	0.52810 0.43994 0.33470 0.03500
C 	C 	0.79492 0.54103 0.68237 0.03200
C 	C 	0.52908 0.38127 0.27315 -0.10400
C 	C 	0.91184 0.47190 0.80660 0.05000
C 	C 	0.89083 0.87388 0.25955 0.06900
C 	C 	0.38127 0.85219 0.10812 -0.11800
C 	C 	0.27315 0.52908 0.38127 -0.10400
C 	C 	0.92859 0.61436 0.81351 -0.17000
C 	C 	0.08816 0.89476 0.56006 0.02300
C 	C 	0.10917 0.36872 0.98305 0.16000
C 	C 	0.11255 0.25389 0.79492 0.02500
C 	C 	0.89476 0.80660 0.33470 0.04500
C 	C 	0.07141 0.88492 0.68577 -0.04800
C 	C 	0.43994 0.33470 0.52810 0.03500
C 	C 	0.45897 0.31763 0.20508 0.05700
C 	C 	0.01695 0.38567 0.12612 -0.05500
C 	C 	0.14781 0.52908 0.25593 -0.07100
C 	C 	0.31763 0.85866 0.11255 0.07500
C 	C 	0.10524 0.43994 0.91184 0.04200
C 	C 	0.54103 0.68237 0.79492 0.03200
N 	N 	0.97412 0.54335 0.87091 -0.07000
N 	N 	0.02588 0.89679 0.56923 -0.06600
N 	N 	0.43077 0.97412 0.10321 -0.07100
N 	N 	0.89679 0.56923 0.02588 -0.06600
N 	N 	0.32756 0.45665 0.43077 -0.07000
N 	N 	0.43077 0.32756 0.45665 -0.07000
N 	N 	0.45665 0.43077 0.32756 -0.07000
N 	N 	0.56923 0.02588 0.89679 -0.06600
N 	N 	0.89679 0.87091 0.32756 -0.07000
N 	N 	0.67244 0.10321 0.12909 -0.06700
N 	N 	0.12909 0.67244 0.10321 -0.06700
N 	N 	0.12909 0.02588 0.45665 -0.06600
N 	N 	0.54335 0.87091 0.97412 -0.07000
N 	N 	0.87091 0.32756 0.89679 -0.07000
N 	N 	0.56923 0.67244 0.54335 -0.06600
N 	N 	0.10321 0.12909 0.67244 -0.06700
N 	N 	0.54335 0.56923 0.67244 -0.06600
N 	N 	0.97412 0.10321 0.43077 -0.07100
N 	N 	0.87091 0.97412 0.54335 -0.07000
N 	N 	0.10321 0.43077 0.97412 -0.07100
N 	N 	0.45665 0.12909 0.02588 -0.06600
N 	N 	0.67244 0.54335 0.56923 -0.06600
N 	N 	0.02588 0.45665 0.12909 -0.06600
N 	N 	0.32756 0.89679 0.87091 -0.07000
O 	O 	0.06738 0.96733 0.45227 -0.24600
O 	O 	0.89995 0.93262 0.38489 -0.23600
O 	O 	0.51506 0.61511 0.54773 -0.26300
O 	O 	0.48494 0.38489 0.45227 -0.26400
O 	O 	0.45227 0.06738 0.96733 -0.24600
O 	O 	0.61511 0.54773 0.51506 -0.26300
O 	O 	0.38489 0.89995 0.93262 -0.23600
O 	O 	0.45227 0.48494 0.38489 -0.26400
O 	O 	0.03267 0.10005 0.48494 -0.29300
O 	O 	0.61511 0.10005 0.06738 -0.28100
O 	O 	0.03267 0.54773 0.93262 -0.26900
O 	O 	0.06738 0.61511 0.10005 -0.28100
O 	O 	0.96733 0.89995 0.51506 -0.22500
O 	O 	0.54773 0.51506 0.61511 -0.26300
O 	O 	0.54773 0.93262 0.03267 -0.26900
O 	O 	0.10005 0.48494 0.03267 -0.29300
O 	O 	0.93262 0.03267 0.54773 -0.26900
O 	O 	0.48494 0.03267 0.10005 -0.29300
O 	O 	0.89995 0.51506 0.96733 -0.22500
O 	O 	0.93262 0.38489 0.89995 -0.23600
O 	O 	0.10005 0.06738 0.61511 -0.28100
O 	O 	0.38489 0.45227 0.48494 -0.26400
O 	O 	0.51506 0.96733 0.89995 -0.22500
O 	O 	0.96733 0.45227 0.06738 -0.24600
