data_crystal

_cell_length_a 20.06640
_cell_length_b 20.06620
_cell_length_c 20.06620
_cell_angle_alpha 109.47100
_cell_angle_beta  109.47100
_cell_angle_gamma 109.47100

_symmetry_space_group_name_	'P 1'
_symmetry_space_group_name_H-M	'P 1'

loop_
_symmetry_equiv_pos_as_xyz
  x,y,z

loop_
_atom_site_label
_atom_site_type_symbol
_atom_site_fract_x
_atom_site_fract_y
_atom_site_fract_z
_atom_site_charge
Co	Co	0.50000 0.50000 0.50000 1.19900
Co	Co	0.50000 0.00000 -0.00000 1.16200
Co	Co	0.00000 0.00000 0.50000 1.16200
Co	Co	-0.00000 0.50000 -0.00000 1.16200
H 	H 	0.51310 0.89020 0.09030 0.04400
H 	H 	0.25530 0.36000 0.33370 0.02600
H 	H 	0.10980 0.62290 0.20010 0.04400
H 	H 	0.89020 0.37710 0.79990 0.04500
H 	H 	0.14910 0.27260 0.33610 0.05800
H 	H 	0.10210 0.80330 0.38220 0.06700
H 	H 	0.10980 0.90970 0.48690 0.04500
H 	H 	0.92160 0.66630 0.02630 -0.01600
H 	H 	0.81300 0.87650 0.14910 0.06900
H 	H 	0.10470 0.02630 0.36000 -0.03400
H 	H 	0.70120 0.42110 0.80330 0.07100
H 	H 	0.28010 0.38220 0.57890 0.06700
H 	H 	0.74470 0.07840 0.10470 0.02000
H 	H 	0.90970 0.48690 0.10980 0.04400
H 	H 	0.33370 0.25530 0.36000 0.02500
H 	H 	0.87650 0.06350 0.72740 0.04100
H 	H 	0.07840 0.10470 0.74470 0.02000
H 	H 	0.62290 0.20010 0.10980 0.04300
H 	H 	0.10210 0.71990 0.29880 0.05600
H 	H 	0.48690 0.57720 0.37710 0.04300
H 	H 	0.07840 0.33370 0.97370 0.08000
H 	H 	0.48690 0.10980 0.90970 0.04400
H 	H 	0.57720 0.37710 0.48690 0.04300
H 	H 	0.09030 0.20010 0.57720 0.04200
H 	H 	0.64000 0.89530 0.97370 0.09100
H 	H 	0.89020 0.09030 0.51310 0.04300
H 	H 	0.93650 0.27260 0.12350 0.08600
H 	H 	0.29880 0.10210 0.71990 0.05600
H 	H 	0.42280 0.90970 0.79990 0.04500
H 	H 	0.51310 0.42280 0.62290 0.04400
H 	H 	0.42110 0.71990 0.61780 0.06100
H 	H 	0.33610 0.06350 0.18700 0.02800
H 	H 	0.37710 0.79990 0.89020 0.04400
H 	H 	0.66630 0.74470 0.64000 0.03500
H 	H 	0.02630 0.92160 0.66630 -0.01700
H 	H 	0.27260 0.33610 0.14910 0.05700
H 	H 	0.28010 0.70120 0.89790 0.07200
H 	H 	0.57890 0.19670 0.29880 0.05700
H 	H 	0.66630 0.02630 0.92160 -0.01700
H 	H 	0.64000 0.66630 0.74470 0.03500
H 	H 	0.09030 0.51310 0.89020 0.04300
H 	H 	0.12350 0.93650 0.27260 0.08600
H 	H 	0.29880 0.57890 0.19670 0.05700
H 	H 	0.61780 0.89790 0.19670 0.06200
H 	H 	0.71990 0.61780 0.42110 0.06100
H 	H 	0.57720 0.09030 0.20010 0.04200
H 	H 	0.66390 0.85090 0.72740 0.06700
H 	H 	0.72740 0.66390 0.85090 0.06700
H 	H 	0.72740 0.87650 0.06350 0.04100
H 	H 	0.89530 0.25530 0.92160 0.03900
H 	H 	0.19670 0.61780 0.89790 0.06200
H 	H 	0.10470 0.74470 0.07840 0.02000
H 	H 	0.18700 0.33610 0.06350 0.02800
H 	H 	0.27260 0.12350 0.93650 0.08600
H 	H 	0.85090 0.72740 0.66390 0.06700
H 	H 	0.36000 0.10470 0.02630 -0.03500
H 	H 	0.42110 0.80330 0.70120 0.07100
H 	H 	0.61780 0.42110 0.71990 0.06100
H 	H 	0.97370 0.64000 0.89530 0.09100
H 	H 	0.74470 0.64000 0.66630 0.03500
H 	H 	0.89790 0.19670 0.61780 0.06200
H 	H 	0.33370 0.97370 0.07840 0.08000
H 	H 	0.20010 0.10980 0.62290 0.04300
H 	H 	0.42280 0.62290 0.51310 0.04400
H 	H 	0.06350 0.72740 0.87650 0.04100
H 	H 	0.79990 0.42280 0.90970 0.04500
H 	H 	0.93650 0.81300 0.66390 0.09400
H 	H 	0.87650 0.14910 0.81300 0.06800
H 	H 	0.57890 0.28010 0.38220 0.06700
H 	H 	0.02630 0.36000 0.10470 -0.03500
H 	H 	0.90970 0.79990 0.42280 0.04500
H 	H 	0.79990 0.89020 0.37710 0.04400
H 	H 	0.20010 0.57720 0.09030 0.04200
H 	H 	0.36000 0.33370 0.25530 0.02500
H 	H 	0.37710 0.48690 0.57720 0.04300
H 	H 	0.38220 0.57890 0.28010 0.06700
H 	H 	0.12350 0.85090 0.18700 0.05600
H 	H 	0.33610 0.14910 0.27260 0.05700
H 	H 	0.62290 0.51310 0.42280 0.04400
H 	H 	0.14910 0.81300 0.87650 0.06800
H 	H 	0.80330 0.38220 0.10210 0.06600
H 	H 	0.97370 0.07840 0.33370 0.08000
H 	H 	0.92160 0.89530 0.25530 0.03900
H 	H 	0.85090 0.18700 0.12350 0.05600
H 	H 	0.80330 0.70120 0.42110 0.07100
H 	H 	0.81300 0.66390 0.93650 0.09400
H 	H 	0.66390 0.93650 0.81300 0.09400
H 	H 	0.38220 0.10210 0.80330 0.06600
H 	H 	0.89530 0.97370 0.64000 0.09100
H 	H 	0.06350 0.18700 0.33610 0.02800
H 	H 	0.25530 0.92160 0.89530 0.03900
H 	H 	0.71990 0.29880 0.10210 0.05600
H 	H 	0.19670 0.29880 0.57890 0.05700
H 	H 	0.89790 0.28010 0.70120 0.07200
H 	H 	0.18700 0.12350 0.85090 0.05600
H 	H 	0.70120 0.89790 0.28010 0.07200
C 	C 	0.20445 0.31788 0.45773 0.05500
C 	C 	0.89327 0.33292 0.80563 0.04500
C 	C 	0.62052 0.47144 0.72728 -0.08100
C 	C 	0.61556 0.74054 0.63324 0.04700
C 	C 	0.89270 0.01768 0.63324 -0.03700
C 	C 	0.63324 0.89270 0.01768 -0.03700
C 	C 	0.27272 0.74416 0.89324 -0.09800
C 	C 	0.33292 0.43965 0.52729 0.03500
C 	C 	0.25584 0.52856 0.14908 -0.07200
C 	C 	0.54227 0.86015 0.74672 0.07600
C 	C 	0.38594 0.19800 0.31374 -0.11300
C 	C 	0.56035 0.47271 0.66708 0.03000
C 	C 	0.68626 0.61406 0.80200 -0.09400
C 	C 	0.61406 0.80200 0.68626 -0.09400
C 	C 	0.68212 0.88657 0.13985 0.01900
C 	C 	0.85092 0.74416 0.47144 -0.10900
C 	C 	0.66708 0.56035 0.47271 0.03000
C 	C 	0.08764 0.19437 0.52729 0.01700
C 	C 	0.88426 0.19800 0.81206 -0.11000
C 	C 	0.91236 0.80563 0.47271 0.04800
C 	C 	0.52729 0.08764 0.19437 0.01700
C 	C 	0.13985 0.25328 0.45773 0.01100
C 	C 	0.10673 0.91236 0.43965 0.04000
C 	C 	0.61406 0.92780 0.81206 -0.15500
C 	C 	0.19437 0.10673 0.66708 0.02100
C 	C 	0.86015 0.74672 0.54227 0.07600
C 	C 	0.27272 0.37948 0.52856 -0.09900
C 	C 	0.25946 0.87502 0.89270 0.06000
C 	C 	0.33292 0.80563 0.89327 0.04500
C 	C 	0.80563 0.47271 0.91236 0.04800
C 	C 	0.72728 0.25584 0.10676 -0.08300
C 	C 	0.80200 0.18794 0.11574 -0.09600
C 	C 	0.10676 0.72728 0.25584 -0.08300
C 	C 	0.43965 0.10673 0.91236 0.04000
C 	C 	0.61556 0.98232 0.87502 0.14500
C 	C 	0.74416 0.89324 0.27272 -0.09800
C 	C 	0.74054 0.12498 0.10730 0.03800
C 	C 	0.68212 0.54227 0.79555 0.03400
C 	C 	0.98232 0.87502 0.61556 0.14500
C 	C 	0.31788 0.45773 0.20445 0.05500
C 	C 	0.87502 0.89270 0.25946 0.06000
C 	C 	0.19800 0.81206 0.88426 -0.11000
C 	C 	0.10730 0.98232 0.36676 0.14200
C 	C 	0.98232 0.36676 0.10730 0.14200
C 	C 	0.89324 0.27272 0.74416 -0.09800
C 	C 	0.92780 0.31374 0.11574 -0.16200
C 	C 	0.25946 0.36676 0.38444 0.05000
C 	C 	0.54227 0.79555 0.68212 0.03400
C 	C 	0.43965 0.52729 0.33292 0.03500
C 	C 	0.86015 0.31788 0.11343 0.07200
C 	C 	0.81206 0.61406 0.92780 -0.15500
C 	C 	0.07220 0.18794 0.38594 -0.04700
C 	C 	0.31374 0.38594 0.19800 -0.11300
C 	C 	0.10730 0.74054 0.12498 0.03800
C 	C 	0.36676 0.38444 0.25946 0.05000
C 	C 	0.85092 0.37948 0.10676 -0.11100
C 	C 	0.62052 0.89324 0.14908 -0.07100
C 	C 	0.88426 0.07220 0.68626 -0.04800
C 	C 	0.79555 0.68212 0.54227 0.03400
C 	C 	0.52856 0.14908 0.25584 -0.07200
C 	C 	0.01768 0.12498 0.38444 -0.05300
C 	C 	0.18794 0.11574 0.80200 -0.09600
C 	C 	0.92780 0.81206 0.61406 -0.15500
C 	C 	0.88657 0.13985 0.68212 0.01900
C 	C 	0.20445 0.74672 0.88657 0.06200
C 	C 	0.38594 0.07220 0.18794 -0.04700
C 	C 	0.19800 0.31374 0.38594 -0.11300
C 	C 	0.08764 0.56035 0.89327 0.02800
C 	C 	0.88657 0.20445 0.74672 0.06200
C 	C 	0.45773 0.20445 0.31788 0.05500
C 	C 	0.74672 0.54227 0.86015 0.07600
C 	C 	0.10676 0.85092 0.37948 -0.11100
C 	C 	0.36676 0.10730 0.98232 0.14200
C 	C 	0.11574 0.80200 0.18794 -0.09600
C 	C 	0.37948 0.52856 0.27272 -0.09900
C 	C 	0.91236 0.43965 0.10673 0.04000
C 	C 	0.63324 0.61556 0.74054 0.04700
C 	C 	0.19437 0.52729 0.08764 0.01700
C 	C 	0.47271 0.66708 0.56035 0.03000
C 	C 	0.66708 0.19437 0.10673 0.02100
C 	C 	0.14908 0.62052 0.89324 -0.07100
C 	C 	0.25584 0.10676 0.72728 -0.08300
C 	C 	0.45773 0.13985 0.25328 0.01100
C 	C 	0.72728 0.62052 0.47144 -0.08100
C 	C 	0.14908 0.25584 0.52856 -0.07200
C 	C 	0.47144 0.72728 0.62052 -0.08100
C 	C 	0.01768 0.63324 0.89270 -0.03700
C 	C 	0.18794 0.38594 0.07220 -0.04700
C 	C 	0.74054 0.63324 0.61556 0.04700
C 	C 	0.87502 0.61556 0.98232 0.14500
C 	C 	0.47144 0.85092 0.74416 -0.10900
C 	C 	0.52856 0.27272 0.37948 -0.09900
C 	C 	0.31788 0.11343 0.86015 0.07200
C 	C 	0.74672 0.88657 0.20445 0.06200
C 	C 	0.31374 0.11574 0.92780 -0.16200
C 	C 	0.11343 0.86015 0.31788 0.07200
C 	C 	0.56035 0.89327 0.08764 0.02800
C 	C 	0.13985 0.68212 0.88657 0.01900
C 	C 	0.74416 0.47144 0.85092 -0.10900
C 	C 	0.80563 0.89327 0.33292 0.04500
C 	C 	0.11574 0.92780 0.31374 -0.16200
C 	C 	0.07220 0.68626 0.88426 -0.04800
C 	C 	0.52729 0.33292 0.43965 0.03500
C 	C 	0.38444 0.01768 0.12498 -0.05300
C 	C 	0.38444 0.25946 0.36676 0.05000
C 	C 	0.89327 0.08764 0.56035 0.02800
C 	C 	0.25328 0.45773 0.13985 0.01100
C 	C 	0.68626 0.88426 0.07220 -0.04800
C 	C 	0.10673 0.66708 0.19437 0.02100
C 	C 	0.47271 0.91236 0.80563 0.04800
C 	C 	0.80200 0.68626 0.61406 -0.09400
C 	C 	0.81206 0.88426 0.19800 -0.11000
C 	C 	0.25328 0.11343 0.79555 0.02700
C 	C 	0.89270 0.25946 0.87502 0.06000
C 	C 	0.37948 0.10676 0.85092 -0.11100
C 	C 	0.12498 0.38444 0.01768 -0.05300
C 	C 	0.89324 0.14908 0.62052 -0.07100
C 	C 	0.12498 0.10730 0.74054 0.03800
C 	C 	0.79555 0.25328 0.11343 0.02700
C 	C 	0.11343 0.79555 0.25328 0.02700
N 	N 	0.02607 0.56885 0.89758 -0.06900
N 	N 	0.97393 0.43115 0.10242 -0.06800
N 	N 	0.10242 0.97393 0.43115 -0.06800
N 	N 	0.56885 0.89758 0.02607 -0.06900
N 	N 	0.32873 0.43115 0.45722 -0.07000
N 	N 	0.45722 0.02607 0.12849 -0.07000
N 	N 	0.87151 0.89758 0.32873 -0.06900
N 	N 	0.56885 0.54278 0.67127 -0.06700
N 	N 	0.43115 0.10242 0.97393 -0.06800
N 	N 	0.10242 0.67127 0.12849 -0.06800
N 	N 	0.43115 0.45722 0.32873 -0.07000
N 	N 	0.02607 0.12849 0.45722 -0.07000
N 	N 	0.12849 0.10242 0.67127 -0.06800
N 	N 	0.45722 0.32873 0.43115 -0.07000
N 	N 	0.87151 0.54278 0.97393 -0.06700
N 	N 	0.54278 0.67127 0.56885 -0.06700
N 	N 	0.32873 0.87151 0.89758 -0.06900
N 	N 	0.67127 0.12849 0.10242 -0.06800
N 	N 	0.97393 0.87151 0.54278 -0.06700
N 	N 	0.67127 0.56885 0.54278 -0.06700
N 	N 	0.54278 0.97393 0.87151 -0.06700
N 	N 	0.89758 0.32873 0.87151 -0.06900
N 	N 	0.12849 0.45722 0.02607 -0.07000
N 	N 	0.89758 0.02607 0.56885 -0.06900
O 	O 	0.10113 0.03376 0.48679 -0.29400
O 	O 	0.54697 0.61434 0.51321 -0.26300
O 	O 	0.93263 0.54697 0.03376 -0.26900
O 	O 	0.06737 0.45303 0.96624 -0.24500
O 	O 	0.96624 0.06737 0.45303 -0.24500
O 	O 	0.03376 0.48679 0.10113 -0.29400
O 	O 	0.61434 0.06737 0.10113 -0.28000
O 	O 	0.61434 0.51321 0.54697 -0.26300
O 	O 	0.03376 0.93263 0.54697 -0.26900
O 	O 	0.45303 0.38566 0.48679 -0.26400
O 	O 	0.51321 0.54697 0.61434 -0.26300
O 	O 	0.48679 0.10113 0.03376 -0.29400
O 	O 	0.93263 0.89887 0.38566 -0.23600
O 	O 	0.06737 0.10113 0.61434 -0.28000
O 	O 	0.45303 0.96624 0.06737 -0.24500
O 	O 	0.38566 0.48679 0.45303 -0.26400
O 	O 	0.89887 0.96624 0.51321 -0.22400
O 	O 	0.10113 0.61434 0.06737 -0.28000
O 	O 	0.54697 0.03376 0.93263 -0.26900
O 	O 	0.96624 0.51321 0.89887 -0.22400
O 	O 	0.48679 0.45303 0.38566 -0.26400
O 	O 	0.89887 0.38566 0.93263 -0.23600
O 	O 	0.38566 0.93263 0.89887 -0.23600
O 	O 	0.51321 0.89887 0.96624 -0.22400
