data_crystal

_cell_length_a 20.04830
_cell_length_b 20.04810
_cell_length_c 20.04810
_cell_angle_alpha 109.47100
_cell_angle_beta  109.47100
_cell_angle_gamma 109.47100

_symmetry_space_group_name_	'P 1'
_symmetry_space_group_name_H-M	'P 1'

loop_
_symmetry_equiv_pos_as_xyz
  x,y,z

loop_
_atom_site_label
_atom_site_type_symbol
_atom_site_fract_x
_atom_site_fract_y
_atom_site_fract_z
_atom_site_charge
Co	Co	0.50000 0.00000 -0.00000 1.16200
Co	Co	-0.00000 0.00000 0.50000 1.16200
Co	Co	-0.00000 0.50000 -0.00000 1.16200
Co	Co	0.50000 0.50000 0.50000 1.19800
H 	H 	0.57460 0.09320 0.19340 0.04500
H 	H 	0.84980 0.72600 0.66420 0.07100
H 	H 	0.18560 0.33580 0.06180 0.03000
H 	H 	0.66420 0.93820 0.81440 0.10400
H 	H 	0.63720 0.66630 0.74590 0.03400
H 	H 	0.09320 0.51860 0.89980 0.04700
H 	H 	0.27400 0.12380 0.93820 0.09600
H 	H 	0.38670 0.10910 0.81040 0.07500
H 	H 	0.42370 0.72240 0.61330 0.06400
H 	H 	0.61330 0.89090 0.18960 0.06400
H 	H 	0.27400 0.33580 0.15020 0.06300
H 	H 	0.10020 0.61880 0.19340 0.04300
H 	H 	0.33580 0.15020 0.27400 0.06300
H 	H 	0.81040 0.70130 0.42370 0.07800
H 	H 	0.29870 0.10910 0.72240 0.05900
H 	H 	0.33580 0.06180 0.18560 0.02900
H 	H 	0.15020 0.81440 0.87620 0.07400
H 	H 	0.90680 0.80660 0.42540 0.04200
H 	H 	0.89130 0.97090 0.63720 0.09300
H 	H 	0.38670 0.57630 0.27760 0.07300
H 	H 	0.63720 0.89130 0.97090 0.09300
H 	H 	0.36280 0.10870 0.02910 -0.04100
H 	H 	0.25410 0.36280 0.33370 0.02200
H 	H 	0.80660 0.89980 0.38120 0.04300
H 	H 	0.27760 0.70130 0.89090 0.07800
H 	H 	0.70130 0.42370 0.81040 0.07800
H 	H 	0.72600 0.87620 0.06180 0.04200
H 	H 	0.81440 0.66420 0.93820 0.10300
H 	H 	0.42540 0.61880 0.51860 0.04400
H 	H 	0.10910 0.72240 0.29870 0.05900
H 	H 	0.18960 0.29870 0.57630 0.05900
H 	H 	0.61880 0.19340 0.10020 0.04300
H 	H 	0.19340 0.10020 0.61880 0.04300
H 	H 	0.66420 0.84980 0.72600 0.07000
H 	H 	0.72240 0.61330 0.42370 0.06400
H 	H 	0.61880 0.51860 0.42540 0.04400
H 	H 	0.51860 0.89980 0.09320 0.04600
H 	H 	0.57630 0.27760 0.38670 0.07300
H 	H 	0.89980 0.09320 0.51860 0.04600
H 	H 	0.25410 0.92040 0.89130 0.03600
H 	H 	0.89980 0.38120 0.80660 0.04300
H 	H 	0.90680 0.48140 0.10020 0.04000
H 	H 	0.66630 0.02910 0.92040 -0.02400
H 	H 	0.97090 0.63720 0.89130 0.09300
H 	H 	0.19340 0.57460 0.09320 0.04400
H 	H 	0.57630 0.18960 0.29870 0.05900
H 	H 	0.10870 0.02910 0.36280 -0.04100
H 	H 	0.93820 0.81440 0.66420 0.10300
H 	H 	0.33370 0.97090 0.07960 0.08400
H 	H 	0.81040 0.38670 0.10910 0.07400
H 	H 	0.48140 0.10020 0.90680 0.04000
H 	H 	0.57460 0.38120 0.48140 0.04200
H 	H 	0.15020 0.27400 0.33580 0.06300
H 	H 	0.18960 0.61330 0.89090 0.06400
H 	H 	0.02910 0.36280 0.10870 -0.04100
H 	H 	0.38120 0.48140 0.57460 0.04200
H 	H 	0.87620 0.15020 0.81440 0.07400
H 	H 	0.72600 0.66420 0.84980 0.07000
H 	H 	0.33370 0.25410 0.36280 0.02200
H 	H 	0.87620 0.06180 0.72600 0.04200
H 	H 	0.07960 0.33370 0.97090 0.08400
H 	H 	0.84980 0.18560 0.12380 0.06000
H 	H 	0.42540 0.90680 0.80660 0.04200
H 	H 	0.70130 0.89090 0.27760 0.07800
H 	H 	0.81440 0.87620 0.15020 0.07400
H 	H 	0.09320 0.19340 0.57460 0.04400
H 	H 	0.89090 0.18960 0.61330 0.06400
H 	H 	0.80660 0.42540 0.90680 0.04200
H 	H 	0.07960 0.10870 0.74590 0.02000
H 	H 	0.92040 0.66630 0.02910 -0.02400
H 	H 	0.06180 0.18560 0.33580 0.02900
H 	H 	0.72240 0.29870 0.10910 0.05900
H 	H 	0.42370 0.81040 0.70130 0.07800
H 	H 	0.74590 0.63720 0.66630 0.03300
H 	H 	0.93820 0.27400 0.12380 0.09500
H 	H 	0.12380 0.93820 0.27400 0.09500
H 	H 	0.12380 0.84980 0.18560 0.06000
H 	H 	0.27760 0.38670 0.57630 0.07300
H 	H 	0.18560 0.12380 0.84980 0.06000
H 	H 	0.29870 0.57630 0.18960 0.05900
H 	H 	0.02910 0.92040 0.66630 -0.02400
H 	H 	0.61330 0.42370 0.72240 0.06400
H 	H 	0.06180 0.72600 0.87620 0.04200
H 	H 	0.51860 0.42540 0.61880 0.04400
H 	H 	0.74590 0.07960 0.10870 0.02000
H 	H 	0.48140 0.57460 0.38120 0.04200
H 	H 	0.97090 0.07960 0.33370 0.08400
H 	H 	0.92040 0.89130 0.25410 0.03600
H 	H 	0.10020 0.90680 0.48140 0.04000
H 	H 	0.89130 0.25410 0.92040 0.03600
H 	H 	0.38120 0.80660 0.89980 0.04300
H 	H 	0.10910 0.81040 0.38670 0.07400
H 	H 	0.10870 0.74590 0.07960 0.02000
H 	H 	0.89090 0.27760 0.70130 0.07800
H 	H 	0.66630 0.74590 0.63720 0.03300
H 	H 	0.36280 0.33370 0.25410 0.02200
C 	C 	0.52573 0.08734 0.19107 0.01500
C 	C 	0.25420 0.52660 0.14560 -0.07300
C 	C 	0.10373 0.66534 0.19107 0.02100
C 	C 	0.88366 0.19806 0.81340 -0.12200
C 	C 	0.10860 0.85440 0.38100 -0.12500
C 	C 	0.63140 0.61670 0.74110 0.05100
C 	C 	0.25172 0.11270 0.79522 0.02700
C 	C 	0.88730 0.20478 0.74828 0.06900
C 	C 	0.08734 0.56161 0.89627 0.02600
C 	C 	0.61670 0.74110 0.63140 0.05100
C 	C 	0.61670 0.98530 0.87560 0.16000
C 	C 	0.43839 0.52573 0.33466 0.03900
C 	C 	0.89140 0.27240 0.74580 -0.10900
C 	C 	0.13902 0.68252 0.88730 0.01800
C 	C 	0.38100 0.52660 0.27240 -0.11000
C 	C 	0.87560 0.61670 0.98530 0.16000
C 	C 	0.07026 0.68560 0.88366 -0.04800
C 	C 	0.38330 0.25890 0.36860 0.05700
C 	C 	0.61534 0.80194 0.68560 -0.10100
C 	C 	0.66534 0.19107 0.10373 0.02100
C 	C 	0.19107 0.52573 0.08734 0.01500
C 	C 	0.61534 0.92974 0.81340 -0.17400
C 	C 	0.31440 0.38466 0.19806 -0.12400
C 	C 	0.74110 0.12440 0.10970 0.04200
C 	C 	0.56161 0.89627 0.08734 0.02600
C 	C 	0.47427 0.66534 0.56161 0.03100
C 	C 	0.07026 0.18660 0.38466 -0.04600
C 	C 	0.27240 0.38100 0.52660 -0.11000
C 	C 	0.27240 0.74580 0.89140 -0.10900
C 	C 	0.11634 0.92974 0.31440 -0.18100
C 	C 	0.45650 0.20478 0.31748 0.06200
C 	C 	0.38330 0.01470 0.12440 -0.05800
C 	C 	0.79522 0.68252 0.54350 0.03500
C 	C 	0.61900 0.47340 0.72760 -0.08700
C 	C 	0.20478 0.31748 0.45650 0.06200
C 	C 	0.18660 0.11634 0.80194 -0.10200
C 	C 	0.25420 0.10860 0.72760 -0.08700
C 	C 	0.31440 0.11634 0.92974 -0.18100
C 	C 	0.61900 0.89140 0.14560 -0.07400
C 	C 	0.25172 0.45650 0.13902 0.00900
C 	C 	0.38100 0.10860 0.85440 -0.12500
C 	C 	0.33466 0.43839 0.52573 0.03900
C 	C 	0.86098 0.74828 0.54350 0.08600
C 	C 	0.52660 0.27240 0.38100 -0.11000
C 	C 	0.80194 0.18660 0.11634 -0.10200
C 	C 	0.08734 0.19107 0.52573 0.01500
C 	C 	0.66534 0.56161 0.47427 0.03100
C 	C 	0.68252 0.54350 0.79522 0.03500
C 	C 	0.91266 0.80893 0.47427 0.05500
C 	C 	0.25890 0.87560 0.89030 0.06700
C 	C 	0.72760 0.25420 0.10860 -0.08700
C 	C 	0.79522 0.25172 0.11270 0.02700
C 	C 	0.31748 0.45650 0.20478 0.06200
C 	C 	0.63140 0.89030 0.01470 -0.04200
C 	C 	0.80893 0.89627 0.33466 0.04900
C 	C 	0.18660 0.38466 0.07026 -0.04600
C 	C 	0.13902 0.25172 0.45650 0.00900
C 	C 	0.38466 0.07026 0.18660 -0.04600
C 	C 	0.54350 0.86098 0.74828 0.08600
C 	C 	0.47427 0.91266 0.80893 0.05500
C 	C 	0.89030 0.01470 0.63140 -0.04200
C 	C 	0.88730 0.13902 0.68252 0.01800
C 	C 	0.74580 0.47340 0.85440 -0.12300
C 	C 	0.68560 0.61534 0.80194 -0.10100
C 	C 	0.52660 0.14560 0.25420 -0.07300
C 	C 	0.98530 0.36860 0.10970 0.15900
C 	C 	0.81340 0.61534 0.92974 -0.17400
C 	C 	0.11634 0.80194 0.18660 -0.10200
C 	C 	0.36860 0.38330 0.25890 0.05700
C 	C 	0.86098 0.31748 0.11270 0.08100
C 	C 	0.74828 0.88730 0.20478 0.06900
C 	C 	0.19806 0.31440 0.38466 -0.12400
C 	C 	0.98530 0.87560 0.61670 0.16000
C 	C 	0.10970 0.74110 0.12440 0.04200
C 	C 	0.91266 0.43839 0.10373 0.04700
C 	C 	0.72760 0.61900 0.47340 -0.08700
C 	C 	0.85440 0.74580 0.47340 -0.12300
C 	C 	0.12440 0.38330 0.01470 -0.05800
C 	C 	0.89030 0.25890 0.87560 0.06700
C 	C 	0.38466 0.19806 0.31440 -0.12400
C 	C 	0.14560 0.25420 0.52660 -0.07300
C 	C 	0.88366 0.07026 0.68560 -0.04800
C 	C 	0.11270 0.86098 0.31748 0.08100
C 	C 	0.11270 0.79522 0.25172 0.02700
C 	C 	0.10970 0.98530 0.36860 0.15900
C 	C 	0.92974 0.81340 0.61534 -0.17400
C 	C 	0.47340 0.85440 0.74580 -0.12300
C 	C 	0.52573 0.33466 0.43839 0.03900
C 	C 	0.33466 0.80893 0.89627 0.04900
C 	C 	0.14560 0.61900 0.89140 -0.07400
C 	C 	0.19107 0.10373 0.66534 0.02100
C 	C 	0.01470 0.63140 0.89030 -0.04200
C 	C 	0.47340 0.72760 0.61900 -0.08700
C 	C 	0.20478 0.74828 0.88730 0.06900
C 	C 	0.89627 0.08734 0.56161 0.02600
C 	C 	0.45650 0.13902 0.25172 0.00900
C 	C 	0.54350 0.79522 0.68252 0.03500
C 	C 	0.87560 0.89030 0.25890 0.06700
C 	C 	0.19806 0.81340 0.88366 -0.12200
C 	C 	0.80194 0.68560 0.61534 -0.10100
C 	C 	0.80893 0.47427 0.91266 0.05500
C 	C 	0.74110 0.63140 0.61670 0.05100
C 	C 	0.25890 0.36860 0.38330 0.05700
C 	C 	0.31748 0.11270 0.86098 0.08100
C 	C 	0.89627 0.33466 0.80893 0.04900
C 	C 	0.36860 0.10970 0.98530 0.15900
C 	C 	0.89140 0.14560 0.61900 -0.07400
C 	C 	0.74828 0.54350 0.86098 0.08600
C 	C 	0.10373 0.91266 0.43839 0.04700
C 	C 	0.85440 0.38100 0.10860 -0.12500
C 	C 	0.81340 0.88366 0.19806 -0.12200
C 	C 	0.01470 0.12440 0.38330 -0.05800
C 	C 	0.10860 0.72760 0.25420 -0.08700
C 	C 	0.74580 0.89140 0.27240 -0.10900
C 	C 	0.56161 0.47427 0.66534 0.03100
C 	C 	0.68252 0.88730 0.13902 0.01800
C 	C 	0.12440 0.10970 0.74110 0.04200
C 	C 	0.68560 0.88366 0.07026 -0.04800
C 	C 	0.92974 0.31440 0.11634 -0.18100
C 	C 	0.43839 0.10373 0.91266 0.04700
N 	N 	0.12767 0.10422 0.67261 -0.06700
N 	N 	0.87233 0.89578 0.32739 -0.07000
N 	N 	0.45506 0.32739 0.43161 -0.07100
N 	N 	0.67261 0.12767 0.10422 -0.06700
N 	N 	0.32739 0.87233 0.89578 -0.07000
N 	N 	0.10422 0.97655 0.43161 -0.07200
N 	N 	0.67261 0.56839 0.54494 -0.06700
N 	N 	0.97655 0.43161 0.10422 -0.07200
N 	N 	0.87233 0.54494 0.97655 -0.07100
N 	N 	0.54494 0.67261 0.56839 -0.06700
N 	N 	0.89578 0.32739 0.87233 -0.07000
N 	N 	0.56839 0.54494 0.67261 -0.06700
N 	N 	0.10422 0.67261 0.12767 -0.06700
N 	N 	0.02345 0.56839 0.89578 -0.06700
N 	N 	0.89578 0.02345 0.56839 -0.06700
N 	N 	0.32739 0.43161 0.45506 -0.07100
N 	N 	0.12767 0.45506 0.02345 -0.06700
N 	N 	0.56839 0.89578 0.02345 -0.06700
N 	N 	0.43161 0.45506 0.32739 -0.07100
N 	N 	0.43161 0.10422 0.97655 -0.07200
N 	N 	0.02345 0.12767 0.45506 -0.06700
N 	N 	0.45506 0.02345 0.12767 -0.06700
N 	N 	0.54494 0.97655 0.87233 -0.07100
N 	N 	0.97655 0.87233 0.54494 -0.07100
O 	O 	0.96547 0.51261 0.89848 -0.22600
O 	O 	0.48739 0.45286 0.38587 -0.26500
O 	O 	0.54714 0.61413 0.51261 -0.26400
O 	O 	0.89848 0.96547 0.51261 -0.22600
O 	O 	0.54714 0.03453 0.93301 -0.26900
O 	O 	0.93301 0.54714 0.03453 -0.26900
O 	O 	0.03453 0.93301 0.54714 -0.26900
O 	O 	0.48739 0.10152 0.03453 -0.29400
O 	O 	0.51261 0.54714 0.61413 -0.26400
O 	O 	0.51261 0.89848 0.96547 -0.22600
O 	O 	0.03453 0.48739 0.10152 -0.29400
O 	O 	0.10152 0.61413 0.06699 -0.28200
O 	O 	0.06699 0.10152 0.61413 -0.28200
O 	O 	0.89848 0.38587 0.93301 -0.23700
O 	O 	0.38587 0.93301 0.89848 -0.23700
O 	O 	0.06699 0.45286 0.96547 -0.24700
O 	O 	0.96547 0.06699 0.45286 -0.24700
O 	O 	0.61413 0.06699 0.10152 -0.28200
O 	O 	0.45286 0.38587 0.48739 -0.26500
O 	O 	0.93301 0.89848 0.38587 -0.23700
O 	O 	0.61413 0.51261 0.54714 -0.26400
O 	O 	0.10152 0.03453 0.48739 -0.29400
O 	O 	0.38587 0.48739 0.45286 -0.26500
O 	O 	0.45286 0.96547 0.06699 -0.24700
