data_crystal

_cell_length_a 15.09560
_cell_length_b 15.50690
_cell_length_c 25.72710
_cell_angle_alpha 81.89670
_cell_angle_beta  73.16620
_cell_angle_gamma 60.87350

_symmetry_space_group_name_	'P 1'
_symmetry_space_group_name_H-M	'P 1'

loop_
_symmetry_equiv_pos_as_xyz
  x,y,z

loop_
_atom_site_label
_atom_site_type_symbol
_atom_site_fract_x
_atom_site_fract_y
_atom_site_fract_z
_atom_site_charge
Zn	Zn	0.39406 0.42180 0.82973 1.21600
Zn	Zn	0.18414 0.42180 0.67027 1.21600
Zn	Zn	0.28443 0.08146 0.83878 1.21800
Zn	Zn	0.71557 0.91854 0.16122 1.21800
Zn	Zn	0.63411 0.08146 0.66122 1.21800
Zn	Zn	0.36589 0.91854 0.33878 1.21800
Zn	Zn	0.60594 0.57820 0.17027 1.21700
Zn	Zn	0.81586 0.57820 0.32973 1.21700
Mo	Mo	0.58429 0.81934 0.11238 1.05300
Mo	Mo	0.15342 0.50628 0.79872 1.10200
Mo	Mo	0.41571 0.18066 0.88762 1.05300
Mo	Mo	0.55856 0.00208 0.29181 1.10000
Mo	Mo	0.84658 0.49372 0.20128 1.10200
Mo	Mo	0.45733 0.31830 0.60879 1.05200
Mo	Mo	0.40363 0.18066 0.61238 1.05300
Mo	Mo	0.09151 0.32226 0.79539 1.05000
Mo	Mo	0.18988 0.18496 0.72139 1.05000
Mo	Mo	0.54267 0.68170 0.39121 1.05200
Mo	Mo	0.77563 0.68170 0.10879 1.05200
Mo	Mo	0.59637 0.81934 0.38762 1.05300
Mo	Mo	0.22437 0.31830 0.89121 1.05200
Mo	Mo	0.90849 0.67774 0.20461 1.05000
Mo	Mo	0.56064 0.99792 0.79181 1.09900
Mo	Mo	0.34030 0.50628 0.70128 1.10200
Mo	Mo	0.41377 0.67774 0.29539 1.05000
Mo	Mo	0.81012 0.81504 0.27861 1.05000
Mo	Mo	0.58623 0.32226 0.70461 1.05000
Mo	Mo	0.62516 0.18496 0.77861 1.05000
Mo	Mo	0.37484 0.81504 0.22139 1.05000
Mo	Mo	0.65970 0.49372 0.29872 1.10200
Mo	Mo	0.43936 0.00208 0.20819 1.09900
Mo	Mo	0.44144 0.99792 0.70819 1.10000
H 	H 	0.60490 0.33580 0.97540 0.03600
H 	H 	0.04260 0.10320 0.43550 0.02900
H 	H 	0.04370 0.83560 0.99620 0.03500
H 	H 	0.62450 0.39740 0.04620 0.03200
H 	H 	0.14580 0.89680 0.93550 0.03000
H 	H 	0.95630 0.16440 0.00380 0.03500
H 	H 	0.02190 0.60260 0.54620 0.03200
H 	H 	0.12070 0.83560 0.50380 0.03400
H 	H 	0.95740 0.89680 0.56450 0.02900
H 	H 	0.85420 0.10320 0.06450 0.03000
H 	H 	0.94070 0.66420 0.47540 0.03600
H 	H 	0.05930 0.33580 0.52460 0.03600
H 	H 	0.39510 0.66420 0.02460 0.03600
H 	H 	0.87930 0.16440 0.49620 0.03400
H 	H 	0.37550 0.60260 0.95380 0.03200
H 	H 	0.97810 0.39740 0.45380 0.03200
C 	C 	0.97389 0.09822 0.00223 -0.04100
C 	C 	0.43720 0.59800 0.01505 -0.03700
C 	C 	0.02575 0.06150 0.46134 -0.03200
C 	C 	0.20362 0.91896 0.42281 0.31000
C 	C 	0.92789 0.09822 0.49777 -0.03600
C 	C 	0.51056 0.53648 0.04331 -0.08400
C 	C 	0.01290 0.56100 0.52792 -0.03200
C 	C 	0.06179 0.03662 0.96318 -0.07300
C 	C 	0.98710 0.43900 0.47208 -0.03200
C 	C 	0.04704 0.46352 0.54331 -0.08400
C 	C 	0.90050 0.57880 0.41119 0.31600
C 	C 	0.93821 0.96338 0.03682 -0.07300
C 	C 	0.57390 0.43900 0.02792 -0.03200
C 	C 	0.47930 0.42120 0.91119 0.31600
C 	C 	0.42610 0.56100 0.97208 -0.03200
C 	C 	0.90159 0.03662 0.53682 -0.08000
C 	C 	0.79638 0.08104 0.57719 0.31000
C 	C 	0.56280 0.40200 0.98495 -0.03700
C 	C 	0.09841 0.96338 0.46318 -0.08000
C 	C 	0.02611 0.90178 0.99777 -0.04100
C 	C 	0.09950 0.42120 0.58881 0.31600
C 	C 	0.07211 0.90178 0.50223 -0.03600
C 	C 	0.03520 0.40200 0.51505 -0.03700
C 	C 	0.97425 0.93850 0.53866 -0.03200
C 	C 	0.48944 0.46352 0.95669 -0.08400
C 	C 	0.12258 0.08104 0.92281 0.30800
C 	C 	0.91275 0.06150 0.03866 -0.03500
C 	C 	0.52070 0.57880 0.08881 0.31600
C 	C 	0.87742 0.91896 0.07719 0.30800
C 	C 	0.95296 0.53648 0.45669 -0.08400
C 	C 	0.08725 0.93850 0.96134 -0.03500
C 	C 	0.96480 0.59800 0.48495 -0.03700
O 	O 	0.46312 0.04076 0.63862 -0.59900
O 	O 	0.57788 0.98844 0.21254 -0.70900
O 	O 	0.16571 0.45978 0.86663 -0.59900
O 	O 	0.79358 0.97884 0.11109 -0.48000
O 	O 	0.43368 0.98844 0.28746 -0.71000
O 	O 	0.32030 0.32330 0.62556 -0.71800
O 	O 	0.29827 0.49300 0.78269 -0.71200
O 	O 	0.34416 0.95628 0.22197 -0.60000
O 	O 	0.79127 0.50700 0.28269 -0.71200
O 	O 	0.70173 0.50700 0.21731 -0.71200
O 	O 	0.67970 0.67670 0.37444 -0.71800
O 	O 	0.44309 0.81782 0.14017 -0.48500
O 	O 	0.93654 0.53678 0.20623 -0.59900
O 	O 	0.77242 0.02116 0.61109 -0.48100
O 	O 	0.10472 0.48176 0.61572 -0.48300
O 	O 	0.62549 0.54022 0.36663 -0.59800
O 	O 	0.50388 0.95924 0.13862 -0.59800
O 	O 	0.52988 0.32820 0.78347 -0.72600
O 	O 	0.47332 0.46322 0.70623 -0.59900
O 	O 	0.73909 0.81782 0.35983 -0.48600
O 	O 	0.42212 0.01156 0.78746 -0.70900
O 	O 	0.64360 0.67670 0.12556 -0.71800
O 	O 	0.37451 0.45978 0.63337 -0.59800
O 	O 	0.08868 0.17084 0.92485 -0.32500
O 	O 	0.55691 0.18218 0.85983 -0.48500
O 	O 	0.29445 0.17548 0.87862 -0.72300
O 	O 	0.49612 0.04076 0.86138 -0.59800
O 	O 	0.56632 0.01156 0.71254 -0.71000
O 	O 	0.89528 0.51824 0.38428 -0.48300
O 	O 	0.46993 0.82452 0.37862 -0.72300
O 	O 	0.41352 0.48176 0.88428 -0.48300
O 	O 	0.25952 0.82916 0.42485 -0.32600
O 	O 	0.46495 0.66770 0.09696 -0.32900
O 	O 	0.20873 0.49300 0.71731 -0.71200
O 	O 	0.86735 0.66770 0.40304 -0.33000
O 	O 	0.36136 0.82072 0.29853 -0.72100
O 	O 	0.41915 0.68034 0.37365 -0.48700
O 	O 	0.83429 0.54022 0.13337 -0.59900
O 	O 	0.06346 0.46322 0.79377 -0.59900
O 	O 	0.09949 0.31966 0.87365 -0.48700
O 	O 	0.26091 0.18218 0.64017 -0.48600
O 	O 	0.91132 0.82916 0.07515 -0.32500
O 	O 	0.20642 0.02116 0.88891 -0.48000
O 	O 	0.53505 0.33230 0.90304 -0.32900
O 	O 	0.81792 0.82072 0.20147 -0.72100
O 	O 	0.90051 0.68034 0.12635 -0.48700
O 	O 	0.35640 0.32330 0.87444 -0.71800
O 	O 	0.18208 0.17928 0.79853 -0.72100
O 	O 	0.22758 0.97884 0.38891 -0.48100
O 	O 	0.65584 0.04372 0.77803 -0.60000
O 	O 	0.69956 0.95628 0.27803 -0.60000
O 	O 	0.53007 0.17548 0.62138 -0.72300
O 	O 	0.85808 0.67180 0.28347 -0.72600
O 	O 	0.58085 0.31966 0.62635 -0.48700
O 	O 	0.70555 0.82452 0.12138 -0.72300
O 	O 	0.63864 0.17928 0.70147 -0.72100
O 	O 	0.58648 0.51824 0.11572 -0.48300
O 	O 	0.74048 0.17084 0.57515 -0.32600
O 	O 	0.14192 0.32820 0.71653 -0.72600
O 	O 	0.30044 0.04372 0.72197 -0.60000
O 	O 	0.52668 0.53678 0.29377 -0.59900
O 	O 	0.47012 0.67180 0.21653 -0.72600
O 	O 	0.13265 0.33230 0.59696 -0.33000
O 	O 	0.53688 0.95924 0.36138 -0.59900
