data_crystal

_cell_length_a 20.05760
_cell_length_b 20.05740
_cell_length_c 20.05740
_cell_angle_alpha 109.47100
_cell_angle_beta  109.47100
_cell_angle_gamma 109.47100

_symmetry_space_group_name_	'P 1'
_symmetry_space_group_name_H-M	'P 1'

loop_
_symmetry_equiv_pos_as_xyz
  x,y,z

loop_
_atom_site_label
_atom_site_type_symbol
_atom_site_fract_x
_atom_site_fract_y
_atom_site_fract_z
_atom_site_charge
Co	Co	0.50000 0.00000 -0.00000 1.16100
Co	Co	0.00000 0.50000 -0.00000 1.16100
Co	Co	0.50000 0.50000 0.50000 1.19700
Co	Co	0.00000 -0.00000 0.50000 1.16100
H 	H 	0.73050 0.84850 0.66540 0.07000
H 	H 	0.66550 0.92000 0.03210 -0.02000
H 	H 	0.18970 0.89220 0.61330 0.06300
H 	H 	0.88200 0.81690 0.15150 0.07400
H 	H 	0.61330 0.18970 0.89220 0.06300
H 	H 	0.89220 0.61330 0.18970 0.06300
H 	H 	0.03210 0.11210 0.36660 -0.03800
H 	H 	0.93490 0.66540 0.81690 0.10000
H 	H 	0.89830 0.80510 0.38120 0.04300
H 	H 	0.57640 0.29750 0.18970 0.05700
H 	H 	0.70250 0.81030 0.42360 0.07400
H 	H 	0.88200 0.73050 0.06510 0.04300
H 	H 	0.61330 0.72110 0.42360 0.06200
H 	H 	0.25450 0.33450 0.36660 0.02400
H 	H 	0.48290 0.38120 0.57610 0.04200
H 	H 	0.33460 0.18310 0.06510 0.03000
H 	H 	0.84850 0.66540 0.73050 0.06900
H 	H 	0.89220 0.70250 0.27890 0.07400
H 	H 	0.18310 0.84850 0.11800 0.05800
H 	H 	0.11800 0.26950 0.93490 0.09100
H 	H 	0.63340 0.96790 0.88790 0.09200
H 	H 	0.81030 0.10780 0.38670 0.07000
H 	H 	0.33460 0.26950 0.15150 0.06200
H 	H 	0.66540 0.81690 0.93490 0.10000
H 	H 	0.10780 0.38670 0.81030 0.07000
H 	H 	0.09320 0.57610 0.19490 0.04400
H 	H 	0.38120 0.89830 0.80510 0.04300
H 	H 	0.61880 0.42390 0.51710 0.04400
H 	H 	0.81690 0.93490 0.66540 0.10000
H 	H 	0.38120 0.57610 0.48290 0.04200
H 	H 	0.10170 0.48290 0.90680 0.04000
H 	H 	0.42390 0.51710 0.61880 0.04400
H 	H 	0.81690 0.15150 0.88200 0.07300
H 	H 	0.29750 0.18970 0.57640 0.05700
H 	H 	0.92000 0.03210 0.66550 -0.02100
H 	H 	0.51710 0.09320 0.89830 0.04600
H 	H 	0.57640 0.38670 0.27890 0.06900
H 	H 	0.57610 0.19490 0.09320 0.04400
H 	H 	0.63340 0.74550 0.66550 0.03400
H 	H 	0.18970 0.57640 0.29750 0.05700
H 	H 	0.26950 0.15150 0.33460 0.06200
H 	H 	0.72110 0.42360 0.61330 0.06200
H 	H 	0.36660 0.25450 0.33450 0.02400
H 	H 	0.03210 0.66550 0.92000 -0.02100
H 	H 	0.74550 0.11210 0.08000 0.02100
H 	H 	0.89830 0.51710 0.09320 0.04600
H 	H 	0.38670 0.81030 0.10780 0.07000
H 	H 	0.06510 0.33460 0.18310 0.03000
H 	H 	0.57610 0.48290 0.38120 0.04200
H 	H 	0.08000 0.96790 0.33450 0.08300
H 	H 	0.33450 0.36660 0.25450 0.02400
H 	H 	0.81030 0.42360 0.70250 0.07400
H 	H 	0.90680 0.42390 0.80510 0.04200
H 	H 	0.29750 0.72110 0.10780 0.05700
H 	H 	0.42360 0.70250 0.81030 0.07400
H 	H 	0.10780 0.29750 0.72110 0.05700
H 	H 	0.93490 0.11800 0.26950 0.09100
H 	H 	0.70250 0.27890 0.89220 0.07400
H 	H 	0.08000 0.74550 0.11210 0.02100
H 	H 	0.10170 0.19490 0.61880 0.04300
H 	H 	0.11210 0.36660 0.03210 -0.03800
H 	H 	0.96790 0.33450 0.08000 0.08300
H 	H 	0.74550 0.66550 0.63340 0.03400
H 	H 	0.11210 0.08000 0.74550 0.02100
H 	H 	0.80510 0.90680 0.42390 0.04200
H 	H 	0.15150 0.88200 0.81690 0.07300
H 	H 	0.88790 0.63340 0.96790 0.09200
H 	H 	0.19490 0.61880 0.10170 0.04300
H 	H 	0.51710 0.61880 0.42390 0.04400
H 	H 	0.92000 0.25450 0.88790 0.03700
H 	H 	0.73050 0.06510 0.88200 0.04300
H 	H 	0.18310 0.06510 0.33460 0.03000
H 	H 	0.72110 0.10780 0.29750 0.05700
H 	H 	0.27890 0.89220 0.70250 0.07400
H 	H 	0.15150 0.33460 0.26950 0.06200
H 	H 	0.36660 0.03210 0.11210 -0.03800
H 	H 	0.90680 0.10170 0.48290 0.04000
H 	H 	0.66540 0.73050 0.84850 0.06900
H 	H 	0.42360 0.61330 0.72110 0.06200
H 	H 	0.38670 0.27890 0.57640 0.06900
H 	H 	0.88790 0.92000 0.25450 0.03700
H 	H 	0.42390 0.80510 0.90680 0.04200
H 	H 	0.33450 0.08000 0.96790 0.08300
H 	H 	0.80510 0.38120 0.89830 0.04300
H 	H 	0.25450 0.88790 0.92000 0.03700
H 	H 	0.96790 0.88790 0.63340 0.09200
H 	H 	0.27890 0.57640 0.38670 0.06900
H 	H 	0.11800 0.18310 0.84850 0.05800
H 	H 	0.48290 0.90680 0.10170 0.04000
H 	H 	0.06510 0.88200 0.73050 0.04300
H 	H 	0.19490 0.09320 0.57610 0.04400
H 	H 	0.09320 0.89830 0.51710 0.04600
H 	H 	0.61880 0.10170 0.19490 0.04300
H 	H 	0.84850 0.11800 0.18310 0.05800
H 	H 	0.66550 0.63340 0.74550 0.03400
H 	H 	0.26950 0.93490 0.11800 0.09100
C 	C 	0.56100 0.66500 0.47260 0.02500
C 	C 	0.89210 0.61830 0.14520 -0.06800
C 	C 	0.52740 0.43900 0.33500 0.03300
C 	C 	0.13830 0.88790 0.68540 0.01600
C 	C 	0.80760 0.33500 0.89600 0.04300
C 	C 	0.12370 0.01360 0.38350 -0.05400
C 	C 	0.92750 0.61590 0.81360 -0.16700
C 	C 	0.25310 0.14520 0.52690 -0.06800
C 	C 	0.33500 0.89600 0.80760 0.04300
C 	C 	0.19240 0.08840 0.52740 0.00900
C 	C 	0.14520 0.89210 0.61830 -0.06800
C 	C 	0.92750 0.11390 0.31160 -0.17300
C 	C 	0.27380 0.52690 0.38170 -0.10000
C 	C 	0.54710 0.68540 0.79750 0.03200
C 	C 	0.66500 0.47260 0.56100 0.02500
C 	C 	0.38410 0.18640 0.07250 -0.04900
C 	C 	0.68540 0.79750 0.54710 0.03200
C 	C 	0.88790 0.68540 0.13830 0.01600
C 	C 	0.88990 0.63010 0.01360 -0.03700
C 	C 	0.11210 0.25040 0.79750 0.02400
C 	C 	0.25040 0.79750 0.11210 0.02400
C 	C 	0.11010 0.12370 0.74020 0.04200
C 	C 	0.79750 0.11210 0.25040 0.02400
C 	C 	0.31160 0.19770 0.38410 -0.12200
C 	C 	0.87630 0.98640 0.61650 0.15800
C 	C 	0.86170 0.11210 0.31460 0.07600
C 	C 	0.61830 0.14520 0.89210 -0.06800
C 	C 	0.36990 0.98640 0.11010 0.15500
C 	C 	0.52690 0.25310 0.14520 -0.06800
C 	C 	0.18640 0.07250 0.38410 -0.04900
C 	C 	0.01360 0.38350 0.12370 -0.05400
C 	C 	0.12370 0.74020 0.11010 0.04200
C 	C 	0.20250 0.88790 0.74960 0.06500
C 	C 	0.61590 0.68840 0.80230 -0.09800
C 	C 	0.08840 0.89600 0.56100 0.01900
C 	C 	0.20250 0.45290 0.31460 0.05800
C 	C 	0.61650 0.87630 0.98640 0.15800
C 	C 	0.72620 0.10790 0.25310 -0.08100
C 	C 	0.38350 0.36990 0.25980 0.05700
C 	C 	0.68840 0.07250 0.88610 -0.05100
C 	C 	0.74690 0.27380 0.89210 -0.10000
C 	C 	0.36990 0.25980 0.38350 0.05700
C 	C 	0.19770 0.88610 0.81360 -0.12000
C 	C 	0.56100 0.08840 0.89600 0.01900
C 	C 	0.87630 0.25980 0.88990 0.06800
C 	C 	0.43900 0.91160 0.10400 0.04200
C 	C 	0.45290 0.25040 0.13830 0.00700
C 	C 	0.47260 0.56100 0.66500 0.02500
C 	C 	0.52690 0.38170 0.27380 -0.10000
C 	C 	0.61830 0.72620 0.47310 -0.08000
C 	C 	0.81360 0.19770 0.88610 -0.12000
C 	C 	0.74960 0.20250 0.88790 0.06500
C 	C 	0.10400 0.19240 0.66500 0.01600
C 	C 	0.25040 0.13830 0.45290 0.00700
C 	C 	0.07250 0.88610 0.68840 -0.05100
C 	C 	0.88610 0.68840 0.07250 -0.05100
C 	C 	0.63010 0.01360 0.88990 -0.03700
C 	C 	0.08840 0.52740 0.19240 0.00900
C 	C 	0.80230 0.61590 0.68840 -0.09800
C 	C 	0.63010 0.74020 0.61650 0.05300
C 	C 	0.38170 0.85480 0.10790 -0.11500
C 	C 	0.10790 0.25310 0.72620 -0.08100
C 	C 	0.11390 0.18640 0.80230 -0.10000
C 	C 	0.25310 0.72620 0.10790 -0.08100
C 	C 	0.89210 0.74690 0.27380 -0.10000
C 	C 	0.54710 0.74960 0.86170 0.08100
C 	C 	0.52740 0.19240 0.08840 0.00900
C 	C 	0.11210 0.31460 0.86170 0.07600
C 	C 	0.88790 0.74960 0.20250 0.06500
C 	C 	0.45290 0.31460 0.20250 0.05800
C 	C 	0.89600 0.80760 0.33500 0.04300
C 	C 	0.38350 0.12370 0.01360 -0.05400
C 	C 	0.88990 0.87630 0.25980 0.06800
C 	C 	0.79750 0.54710 0.68540 0.03200
C 	C 	0.85480 0.10790 0.38170 -0.11500
C 	C 	0.01360 0.88990 0.63010 -0.03700
C 	C 	0.31460 0.86170 0.11210 0.07600
C 	C 	0.38170 0.27380 0.52690 -0.10000
C 	C 	0.74690 0.85480 0.47310 -0.11200
C 	C 	0.80230 0.11390 0.18640 -0.10000
C 	C 	0.33500 0.52740 0.43900 0.03300
C 	C 	0.61650 0.63010 0.74020 0.05300
C 	C 	0.07250 0.38410 0.18640 -0.04900
C 	C 	0.91160 0.47260 0.80760 0.05000
C 	C 	0.74960 0.86170 0.54710 0.08100
C 	C 	0.18640 0.80230 0.11390 -0.10000
C 	C 	0.43900 0.33500 0.52740 0.03300
C 	C 	0.11010 0.36990 0.98640 0.15500
C 	C 	0.47260 0.80760 0.91160 0.05000
C 	C 	0.89600 0.56100 0.08840 0.01900
C 	C 	0.25980 0.38350 0.36990 0.05700
C 	C 	0.98640 0.11010 0.36990 0.15500
C 	C 	0.72620 0.47310 0.61830 -0.08000
C 	C 	0.85480 0.47310 0.74690 -0.11200
C 	C 	0.10790 0.38170 0.85480 -0.11500
C 	C 	0.38410 0.31160 0.19770 -0.12200
C 	C 	0.74020 0.11010 0.12370 0.04200
C 	C 	0.66500 0.10400 0.19240 0.01600
C 	C 	0.98640 0.61650 0.87630 0.15800
C 	C 	0.31460 0.20250 0.45290 0.05800
C 	C 	0.47310 0.61830 0.72620 -0.08000
C 	C 	0.27380 0.89210 0.74690 -0.10000
C 	C 	0.74020 0.61650 0.63010 0.05300
C 	C 	0.13830 0.45290 0.25040 0.00700
C 	C 	0.91160 0.10400 0.43900 0.04200
C 	C 	0.68840 0.80230 0.61590 -0.09800
C 	C 	0.68540 0.13830 0.88790 0.01600
C 	C 	0.11390 0.31160 0.92750 -0.17300
C 	C 	0.81360 0.92750 0.61590 -0.16700
C 	C 	0.47310 0.74690 0.85480 -0.11200
C 	C 	0.80760 0.91160 0.47260 0.05000
C 	C 	0.14520 0.52690 0.25310 -0.06800
C 	C 	0.10400 0.43900 0.91160 0.04200
C 	C 	0.61590 0.81360 0.92750 -0.16700
C 	C 	0.25980 0.88990 0.87630 0.06800
C 	C 	0.88610 0.81360 0.19770 -0.12000
C 	C 	0.31160 0.92750 0.11390 -0.17300
C 	C 	0.19240 0.66500 0.10400 0.01600
C 	C 	0.19770 0.38410 0.31160 -0.12200
C 	C 	0.86170 0.54710 0.74960 0.08100
N 	N 	0.87240 0.32540 0.89640 -0.06900
N 	N 	0.67460 0.10360 0.12760 -0.06600
N 	N 	0.02400 0.89640 0.57100 -0.06400
N 	N 	0.54700 0.87240 0.97600 -0.07000
N 	N 	0.87240 0.97600 0.54700 -0.07000
N 	N 	0.10360 0.42900 0.97600 -0.07100
N 	N 	0.45300 0.42900 0.32540 -0.06900
N 	N 	0.57100 0.67460 0.54700 -0.06500
N 	N 	0.89640 0.87240 0.32540 -0.06900
N 	N 	0.02400 0.45300 0.12760 -0.06400
N 	N 	0.12760 0.02400 0.45300 -0.06400
N 	N 	0.42900 0.32540 0.45300 -0.06900
N 	N 	0.89640 0.57100 0.02400 -0.06400
N 	N 	0.97600 0.10360 0.42900 -0.07100
N 	N 	0.10360 0.12760 0.67460 -0.06600
N 	N 	0.97600 0.54700 0.87240 -0.07000
N 	N 	0.42900 0.97600 0.10360 -0.07100
N 	N 	0.54700 0.57100 0.67460 -0.06500
N 	N 	0.57100 0.02400 0.89640 -0.06400
N 	N 	0.32540 0.89640 0.87240 -0.06900
N 	N 	0.67460 0.54700 0.57100 -0.06500
N 	N 	0.12760 0.67460 0.10360 -0.06600
N 	N 	0.45300 0.12760 0.02400 -0.06400
N 	N 	0.32540 0.45300 0.42900 -0.06900
O 	O 	0.96700 0.45170 0.06710 -0.24700
O 	O 	0.10010 0.48470 0.03300 -0.29400
O 	O 	0.45170 0.48470 0.38460 -0.26500
O 	O 	0.51530 0.96700 0.89990 -0.22600
O 	O 	0.48470 0.38460 0.45170 -0.26500
O 	O 	0.54830 0.51530 0.61540 -0.26400
O 	O 	0.10010 0.06710 0.61540 -0.28200
O 	O 	0.89990 0.51530 0.96700 -0.22600
O 	O 	0.51530 0.61540 0.54830 -0.26400
O 	O 	0.61540 0.54830 0.51530 -0.26400
O 	O 	0.89990 0.93290 0.38460 -0.23700
O 	O 	0.93290 0.03300 0.54830 -0.27000
O 	O 	0.48470 0.03300 0.10010 -0.29400
O 	O 	0.03300 0.10010 0.48470 -0.29400
O 	O 	0.38460 0.45170 0.48470 -0.26500
O 	O 	0.38460 0.89990 0.93290 -0.23700
O 	O 	0.45170 0.06710 0.96700 -0.24700
O 	O 	0.54830 0.93290 0.03300 -0.27000
O 	O 	0.96700 0.89990 0.51530 -0.22600
O 	O 	0.06710 0.96700 0.45170 -0.24700
O 	O 	0.03300 0.54830 0.93290 -0.27000
O 	O 	0.93290 0.38460 0.89990 -0.23700
O 	O 	0.61540 0.10010 0.06710 -0.28200
O 	O 	0.06710 0.61540 0.10010 -0.28200
