data_crystal

_cell_length_a 28.57850
_cell_length_b 18.77960
_cell_length_c 32.17810
_cell_angle_alpha 90.00000
_cell_angle_beta  114.40000
_cell_angle_gamma 90.00000

_symmetry_space_group_name_	'P 1'
_symmetry_space_group_name_H-M	'P 1'

loop_
_symmetry_equiv_pos_as_xyz
  x,y,z

loop_
_atom_site_label
_atom_site_type_symbol
_atom_site_fract_x
_atom_site_fract_y
_atom_site_fract_z
_atom_site_charge
W 	W 	0.41964 0.84233 0.11823 0.50900
W 	W 	0.67831 0.66418 0.23498 0.50400
W 	W 	0.43899 0.44490 0.12322 0.49800
Fe	Fe	0.60671 0.92523 0.23431 1.03400
Fe	Fe	0.28432 0.62946 0.08995 1.03000
Fe	Fe	0.62914 0.38953 0.24735 1.02900
Fe	Fe	0.52691 0.65464 0.06832 1.03800
C 	C 	0.45260 0.76280 0.17050 -0.02700
N 	N 	0.47180 0.72300 0.19910 -0.23100
C 	C 	0.40900 0.88050 0.17680 -0.04000
N 	N 	0.40520 0.89910 0.20930 -0.26200
C 	C 	0.49420 0.87970 0.16450 -0.03400
N 	N 	0.53350 0.89770 0.19000 -0.26400
C 	C 	0.46510 0.77330 0.09700 -0.04500
N 	N 	0.48870 0.73330 0.08630 -0.26000
C 	C 	0.36200 0.76200 0.10700 -0.04200
N 	N 	0.33210 0.71860 0.10090 -0.25600
C 	C 	0.35060 0.90730 0.09490 -0.05900
N 	N 	0.31320 0.93920 0.08120 -0.12400
C 	C 	0.38200 0.83100 0.04500 -0.06200
N 	N 	0.35940 0.82530 0.00610 -0.15000
C 	C 	0.44040 0.93450 0.09260 -0.07100
N 	N 	0.45100 0.98750 0.08060 -0.11600
C 	C 	0.60740 0.65980 0.24320 -0.02800
N 	N 	0.56930 0.65350 0.24640 -0.23400
C 	C 	0.64960 0.76970 0.23290 -0.04000
N 	N 	0.63390 0.82600 0.23120 -0.26300
C 	C 	0.65800 0.55280 0.23560 -0.03900
N 	N 	0.64600 0.49580 0.23810 -0.25900
C 	C 	0.62030 0.65170 0.16730 -0.04600
N 	N 	0.58750 0.65050 0.13080 -0.26100
C 	C 	0.69880 0.64230 0.30590 -0.04300
N 	N 	0.70810 0.63090 0.34320 -0.26200
C 	C 	0.74100 0.60010 0.23620 -0.07000
N 	N 	0.77460 0.56540 0.23690 -0.15000
C 	C 	0.70460 0.71740 0.18840 -0.06000
N 	N 	0.72360 0.75410 0.17110 -0.09700
N 	N 	0.71450 0.73580 0.15790 -0.04100
C 	C 	0.74470 0.72800 0.27490 -0.06700
N 	N 	0.77940 0.76400 0.29530 -0.14800
C 	C 	0.46510 0.52570 0.17480 -0.03400
N 	N 	0.47750 0.57040 0.20190 -0.23400
C 	C 	0.51270 0.41400 0.17380 -0.03800
N 	N 	0.55300 0.39870 0.20020 -0.25700
C 	C 	0.40650 0.41870 0.17080 -0.04100
N 	N 	0.39000 0.40690 0.19720 -0.25700
C 	C 	0.46910 0.53050 0.09640 -0.03500
N 	N 	0.48740 0.57430 0.08340 -0.26200
C 	C 	0.37670 0.52010 0.10880 -0.03100
N 	N 	0.34450 0.55930 0.10180 -0.26200
C 	C 	0.43610 0.33090 0.12870 -0.06400
N 	N 	0.43500 0.27010 0.13180 -0.07000
C 	C 	0.41790 0.33700 0.11640 0.01800
N 	N 	0.40670 0.28000 0.11200 -0.07800
C 	C 	0.37460 0.41620 0.06070 0.07800
N 	N 	0.34200 0.40940 0.02320 -0.10200
C 	C 	0.38400 0.43400 0.05290 -0.10800
N 	N 	0.37000 0.44600 0.01960 -0.07600
C 	C 	0.47760 0.39730 0.08500 -0.05500
N 	N 	0.49830 0.37390 0.06390 -0.14900
W 	W 	0.58036 0.84233 0.38177 0.50800
W 	W 	0.32169 0.66418 0.26502 0.50300
W 	W 	0.56101 0.44490 0.37678 0.49700
Fe	Fe	0.39329 0.92523 0.26569 1.03300
Fe	Fe	0.71568 0.62946 0.41005 1.03000
Fe	Fe	0.37086 0.38953 0.25265 1.02800
Fe	Fe	0.47309 0.65464 0.43168 1.03700
C 	C 	0.54740 0.76280 0.32950 -0.02800
N 	N 	0.52820 0.72300 0.30090 -0.23100
C 	C 	0.59100 0.88050 0.32320 -0.03900
N 	N 	0.59480 0.89910 0.29070 -0.26200
C 	C 	0.50580 0.87970 0.33550 -0.03400
N 	N 	0.46650 0.89770 0.31000 -0.26400
C 	C 	0.53490 0.77330 0.40300 -0.04500
N 	N 	0.51130 0.73330 0.41370 -0.26000
C 	C 	0.63800 0.76200 0.39300 -0.04200
N 	N 	0.66790 0.71860 0.39910 -0.25600
C 	C 	0.64940 0.90730 0.40510 -0.05900
N 	N 	0.68680 0.93920 0.41880 -0.12300
C 	C 	0.61800 0.83100 0.45500 -0.06200
N 	N 	0.64060 0.82530 0.49390 -0.15000
C 	C 	0.55960 0.93450 0.40740 -0.07100
N 	N 	0.54900 0.98750 0.41940 -0.11600
C 	C 	0.39260 0.65980 0.25680 -0.02800
N 	N 	0.43070 0.65350 0.25360 -0.23400
C 	C 	0.35040 0.76970 0.26710 -0.04100
N 	N 	0.36610 0.82600 0.26880 -0.26300
C 	C 	0.34200 0.55280 0.26440 -0.03900
N 	N 	0.35400 0.49580 0.26190 -0.25900
C 	C 	0.37970 0.65170 0.33270 -0.04600
N 	N 	0.41250 0.65050 0.36920 -0.26100
C 	C 	0.30120 0.64230 0.19410 -0.04400
N 	N 	0.29190 0.63090 0.15680 -0.26300
C 	C 	0.25900 0.60010 0.26380 -0.07100
N 	N 	0.22540 0.56540 0.26310 -0.15200
C 	C 	0.29540 0.71740 0.31160 -0.06000
N 	N 	0.27640 0.75410 0.32890 -0.09800
N 	N 	0.28550 0.73580 0.34210 -0.04100
C 	C 	0.25530 0.72800 0.22510 -0.06800
N 	N 	0.22060 0.76400 0.20470 -0.15000
C 	C 	0.53490 0.52570 0.32520 -0.03400
N 	N 	0.52250 0.57040 0.29810 -0.23400
C 	C 	0.48730 0.41400 0.32620 -0.03800
N 	N 	0.44700 0.39870 0.29980 -0.25700
C 	C 	0.59350 0.41870 0.32920 -0.04100
N 	N 	0.61000 0.40690 0.30280 -0.25700
C 	C 	0.53090 0.53050 0.40360 -0.03500
N 	N 	0.51260 0.57430 0.41660 -0.26200
C 	C 	0.62330 0.52010 0.39120 -0.03100
N 	N 	0.65550 0.55930 0.39820 -0.26200
C 	C 	0.56390 0.33090 0.37130 -0.06300
N 	N 	0.56500 0.27010 0.36820 -0.07000
C 	C 	0.58210 0.33700 0.38360 0.01800
N 	N 	0.59330 0.28000 0.38800 -0.07700
C 	C 	0.62540 0.41620 0.43930 0.07800
N 	N 	0.65800 0.40940 0.47680 -0.10100
C 	C 	0.61600 0.43400 0.44710 -0.10700
N 	N 	0.63000 0.44600 0.48040 -0.07600
C 	C 	0.52240 0.39730 0.41500 -0.05500
N 	N 	0.50170 0.37390 0.43610 -0.14900
Fe	Fe	0.50000 0.64821 0.25000 1.15100
W 	W 	0.91964 0.34233 0.11823 0.50400
W 	W 	0.17831 0.16418 0.23498 0.50300
W 	W 	0.93899 0.94490 0.12322 0.50800
Fe	Fe	0.10671 0.42523 0.23431 1.03100
Fe	Fe	0.78432 0.12946 0.08995 1.03000
Fe	Fe	0.12914 0.88953 0.24735 1.02600
Fe	Fe	0.02691 0.15464 0.06832 1.02600
C 	C 	0.95260 0.26280 0.17050 -0.02500
N 	N 	0.97180 0.22300 0.19910 -0.22400
C 	C 	0.90900 0.38050 0.17680 -0.03700
N 	N 	0.90520 0.39910 0.20930 -0.26100
C 	C 	0.99420 0.37970 0.16450 -0.00900
N 	N 	0.03350 0.39770 0.19000 -0.28300
C 	C 	0.96510 0.27330 0.09700 -0.04100
N 	N 	0.98870 0.23330 0.08630 -0.25300
C 	C 	0.86200 0.26200 0.10700 -0.04100
N 	N 	0.83210 0.21860 0.10090 -0.25600
C 	C 	0.85060 0.40730 0.09490 -0.05800
N 	N 	0.81320 0.43920 0.08120 -0.12300
C 	C 	0.88200 0.33100 0.04500 -0.06000
N 	N 	0.85940 0.32530 0.00610 -0.14900
C 	C 	0.94040 0.43450 0.09260 -0.06800
N 	N 	0.95100 0.48750 0.08060 -0.11200
C 	C 	0.10740 0.15980 0.24320 -0.03100
N 	N 	0.06930 0.15350 0.24640 -0.23700
C 	C 	0.14960 0.26970 0.23290 -0.04200
N 	N 	0.13390 0.32600 0.23120 -0.26400
C 	C 	0.15800 0.05280 0.23560 -0.04000
N 	N 	0.14600 0.99580 0.23810 -0.26000
C 	C 	0.12030 0.15170 0.16730 -0.04900
N 	N 	0.08750 0.15050 0.13080 -0.26500
C 	C 	0.19880 0.14230 0.30590 -0.04300
N 	N 	0.20810 0.13090 0.34320 -0.26300
C 	C 	0.24100 0.10010 0.23620 -0.07100
N 	N 	0.27460 0.06540 0.23690 -0.15200
C 	C 	0.20460 0.21740 0.18840 -0.06100
N 	N 	0.22360 0.25410 0.17110 -0.09700
N 	N 	0.21450 0.23580 0.15790 -0.04200
C 	C 	0.24470 0.22800 0.27490 -0.06800
N 	N 	0.27940 0.26400 0.29530 -0.14900
C 	C 	0.96510 0.02570 0.17480 -0.02700
N 	N 	0.97750 0.07040 0.20190 -0.22700
C 	C 	0.01270 0.91400 0.17380 -0.06100
N 	N 	0.05300 0.89870 0.20020 -0.25600
C 	C 	0.90650 0.91870 0.17080 -0.03900
N 	N 	0.89000 0.90690 0.19720 -0.25600
C 	C 	0.96910 0.03050 0.09640 -0.03200
N 	N 	0.98740 0.07430 0.08340 -0.25500
C 	C 	0.87670 0.02010 0.10880 -0.03200
N 	N 	0.84450 0.05930 0.10180 -0.26100
C 	C 	0.93610 0.83090 0.12870 -0.06800
N 	N 	0.93500 0.77010 0.13180 -0.06400
C 	C 	0.91790 0.83700 0.11640 0.02600
N 	N 	0.90670 0.78000 0.11200 -0.08000
C 	C 	0.87460 0.91620 0.06070 0.07700
N 	N 	0.84200 0.90940 0.02320 -0.10100
C 	C 	0.88400 0.93400 0.05290 -0.10800
N 	N 	0.87000 0.94600 0.01960 -0.07500
C 	C 	0.97760 0.89730 0.08500 -0.04900
N 	N 	0.99830 0.87390 0.06390 -0.14400
W 	W 	0.08036 0.34233 0.38177 0.51200
W 	W 	0.82169 0.16418 0.26502 0.50300
W 	W 	0.06101 0.94490 0.37678 0.48600
Fe	Fe	0.89329 0.42523 0.26569 1.03600
Fe	Fe	0.21568 0.12946 0.41005 1.03000
Fe	Fe	0.87086 0.88953 0.25265 1.03000
Fe	Fe	0.97309 0.15464 0.43168 1.04700
C 	C 	0.04740 0.26280 0.32950 -0.03000
N 	N 	0.02820 0.22300 0.30090 -0.23400
C 	C 	0.09100 0.38050 0.32320 -0.04200
N 	N 	0.09480 0.39910 0.29070 -0.26400
C 	C 	0.00580 0.37970 0.33550 -0.05900
N 	N 	0.96650 0.39770 0.31000 -0.24400
C 	C 	0.03490 0.27330 0.40300 -0.04900
N 	N 	0.01130 0.23330 0.41370 -0.26600
C 	C 	0.13800 0.26200 0.39300 -0.04300
N 	N 	0.16790 0.21860 0.39910 -0.25600
C 	C 	0.14940 0.40730 0.40510 -0.06000
N 	N 	0.18680 0.43920 0.41880 -0.12400
C 	C 	0.11800 0.33100 0.45500 -0.06400
N 	N 	0.14060 0.32530 0.49390 -0.15200
C 	C 	0.05960 0.43450 0.40740 -0.07400
N 	N 	0.04900 0.48750 0.41940 -0.12000
C 	C 	0.89260 0.15980 0.25680 -0.02700
N 	N 	0.93070 0.15350 0.25360 -0.22800
C 	C 	0.85040 0.26970 0.26710 -0.03900
N 	N 	0.86610 0.32600 0.26880 -0.26200
C 	C 	0.84200 0.05280 0.26440 -0.03800
N 	N 	0.85400 0.99580 0.26190 -0.25800
C 	C 	0.87970 0.15170 0.33270 -0.04300
N 	N 	0.91250 0.15050 0.36920 -0.25700
C 	C 	0.80120 0.14230 0.19410 -0.04300
N 	N 	0.79190 0.13090 0.15680 -0.26300
C 	C 	0.75900 0.10010 0.26380 -0.07000
N 	N 	0.72540 0.06540 0.26310 -0.15100
C 	C 	0.79540 0.21740 0.31160 -0.05900
N 	N 	0.77640 0.25410 0.32890 -0.09800
N 	N 	0.78550 0.23580 0.34210 -0.04000
C 	C 	0.75530 0.22800 0.22510 -0.06700
N 	N 	0.72060 0.26400 0.20470 -0.14900
C 	C 	0.03490 0.02570 0.32520 -0.04000
N 	N 	0.02250 0.07040 0.29810 -0.23700
C 	C 	0.98730 0.91400 0.32620 -0.01500
N 	N 	0.94700 0.89870 0.29980 -0.25800
C 	C 	0.09350 0.91870 0.32920 -0.04400
N 	N 	0.11000 0.90690 0.30280 -0.25900
C 	C 	0.03090 0.03050 0.40360 -0.03800
N 	N 	0.01260 0.07430 0.41660 -0.26900
C 	C 	0.12330 0.02010 0.39120 -0.02900
N 	N 	0.15550 0.05930 0.39820 -0.26200
C 	C 	0.06390 0.83090 0.37130 -0.05900
N 	N 	0.06500 0.77010 0.36820 -0.07600
C 	C 	0.08210 0.83700 0.38360 0.01000
N 	N 	0.09330 0.78000 0.38800 -0.07600
C 	C 	0.12540 0.91620 0.43930 0.07800
N 	N 	0.15800 0.90940 0.47680 -0.10200
C 	C 	0.11600 0.93400 0.44710 -0.10600
N 	N 	0.13000 0.94600 0.48040 -0.07800
C 	C 	0.02240 0.89730 0.41500 -0.06200
N 	N 	0.00170 0.87390 0.43610 -0.15500
Fe	Fe	-0.00000 0.14821 0.25000 1.14000
W 	W 	0.58036 0.15767 0.88177 0.50800
W 	W 	0.32169 0.33582 0.76502 0.50300
W 	W 	0.56101 0.55510 0.87678 0.49700
Fe	Fe	0.39329 0.07477 0.76569 1.03300
Fe	Fe	0.71568 0.37054 0.91005 1.03000
Fe	Fe	0.37086 0.61047 0.75265 1.02800
Fe	Fe	0.47309 0.34536 0.93168 1.03700
C 	C 	0.54740 0.23720 0.82950 -0.02800
N 	N 	0.52820 0.27700 0.80090 -0.23100
C 	C 	0.59100 0.11950 0.82320 -0.03900
N 	N 	0.59480 0.10090 0.79070 -0.26200
C 	C 	0.50580 0.12030 0.83550 -0.03400
N 	N 	0.46650 0.10230 0.81000 -0.26400
C 	C 	0.53490 0.22670 0.90300 -0.04500
N 	N 	0.51130 0.26670 0.91370 -0.26000
C 	C 	0.63800 0.23800 0.89300 -0.04200
N 	N 	0.66790 0.28140 0.89910 -0.25600
C 	C 	0.64940 0.09270 0.90510 -0.05900
N 	N 	0.68680 0.06080 0.91880 -0.12300
C 	C 	0.61800 0.16900 0.95500 -0.06200
N 	N 	0.64060 0.17470 0.99390 -0.15100
C 	C 	0.55960 0.06550 0.90740 -0.07100
N 	N 	0.54900 0.01250 0.91940 -0.11600
C 	C 	0.39260 0.34020 0.75680 -0.02800
N 	N 	0.43070 0.34650 0.75360 -0.23400
C 	C 	0.35040 0.23030 0.76710 -0.04100
N 	N 	0.36610 0.17400 0.76880 -0.26300
C 	C 	0.34200 0.44720 0.76440 -0.03900
N 	N 	0.35400 0.50420 0.76190 -0.25900
C 	C 	0.37970 0.34830 0.83270 -0.04600
N 	N 	0.41250 0.34950 0.86920 -0.26100
C 	C 	0.30120 0.35770 0.69410 -0.04400
N 	N 	0.29190 0.36910 0.65680 -0.26300
C 	C 	0.25900 0.39990 0.76380 -0.07100
N 	N 	0.22540 0.43460 0.76310 -0.15200
C 	C 	0.29540 0.28260 0.81160 -0.06000
N 	N 	0.27640 0.24590 0.82890 -0.09800
N 	N 	0.28550 0.26420 0.84210 -0.04100
C 	C 	0.25530 0.27200 0.72510 -0.06800
N 	N 	0.22060 0.23600 0.70470 -0.15000
C 	C 	0.53490 0.47430 0.82520 -0.03400
N 	N 	0.52250 0.42960 0.79810 -0.23400
C 	C 	0.48730 0.58600 0.82620 -0.03800
N 	N 	0.44700 0.60130 0.79980 -0.25700
C 	C 	0.59350 0.58130 0.82920 -0.04100
N 	N 	0.61000 0.59310 0.80280 -0.25700
C 	C 	0.53090 0.46950 0.90360 -0.03500
N 	N 	0.51260 0.42570 0.91660 -0.26200
C 	C 	0.62330 0.47990 0.89120 -0.03100
N 	N 	0.65550 0.44070 0.89820 -0.26200
C 	C 	0.56390 0.66910 0.87130 -0.06400
N 	N 	0.56500 0.72990 0.86820 -0.07000
C 	C 	0.58210 0.66300 0.88360 0.01800
N 	N 	0.59330 0.72000 0.88800 -0.07800
C 	C 	0.62540 0.58380 0.93930 0.07800
N 	N 	0.65800 0.59060 0.97680 -0.10200
C 	C 	0.61600 0.56600 0.94710 -0.10700
N 	N 	0.63000 0.55400 0.98040 -0.07600
C 	C 	0.52240 0.60270 0.91500 -0.05500
N 	N 	0.50170 0.62610 0.93610 -0.15000
W 	W 	0.41964 0.15767 0.61823 0.50800
W 	W 	0.67831 0.33582 0.73498 0.50300
W 	W 	0.43899 0.55510 0.62322 0.49700
Fe	Fe	0.60671 0.07477 0.73431 1.03300
Fe	Fe	0.28432 0.37054 0.58995 1.02900
Fe	Fe	0.62914 0.61047 0.74735 1.02800
Fe	Fe	0.52691 0.34536 0.56832 1.03700
C 	C 	0.45260 0.23720 0.67050 -0.02800
N 	N 	0.47180 0.27700 0.69910 -0.23100
C 	C 	0.40900 0.11950 0.67680 -0.04000
N 	N 	0.40520 0.10090 0.70930 -0.26200
C 	C 	0.49420 0.12030 0.66450 -0.03400
N 	N 	0.53350 0.10230 0.69000 -0.26400
C 	C 	0.46510 0.22670 0.59700 -0.04500
N 	N 	0.48870 0.26670 0.58630 -0.26000
C 	C 	0.36200 0.23800 0.60700 -0.04200
N 	N 	0.33210 0.28140 0.60090 -0.25600
C 	C 	0.35060 0.09270 0.59490 -0.05900
N 	N 	0.31320 0.06080 0.58120 -0.12400
C 	C 	0.38200 0.16900 0.54500 -0.06200
N 	N 	0.35940 0.17470 0.50610 -0.15000
C 	C 	0.44040 0.06550 0.59260 -0.07100
N 	N 	0.45100 0.01250 0.58060 -0.11600
C 	C 	0.60740 0.34020 0.74320 -0.02800
N 	N 	0.56930 0.34650 0.74640 -0.23400
C 	C 	0.64960 0.23030 0.73290 -0.04000
N 	N 	0.63390 0.17400 0.73120 -0.26300
C 	C 	0.65800 0.44720 0.73560 -0.03900
N 	N 	0.64600 0.50420 0.73810 -0.25900
C 	C 	0.62030 0.34830 0.66730 -0.04600
N 	N 	0.58750 0.34950 0.63080 -0.26100
C 	C 	0.69880 0.35770 0.80590 -0.04300
N 	N 	0.70810 0.36910 0.84320 -0.26200
C 	C 	0.74100 0.39990 0.73620 -0.07000
N 	N 	0.77460 0.43460 0.73690 -0.15000
C 	C 	0.70460 0.28260 0.68840 -0.06000
N 	N 	0.72360 0.24590 0.67110 -0.09700
N 	N 	0.71450 0.26420 0.65790 -0.04100
C 	C 	0.74470 0.27200 0.77490 -0.06700
N 	N 	0.77940 0.23600 0.79530 -0.14800
C 	C 	0.46510 0.47430 0.67480 -0.03400
N 	N 	0.47750 0.42960 0.70190 -0.23400
C 	C 	0.51270 0.58600 0.67380 -0.03800
N 	N 	0.55300 0.60130 0.70020 -0.25700
C 	C 	0.40650 0.58130 0.67080 -0.04100
N 	N 	0.39000 0.59310 0.69720 -0.25700
C 	C 	0.46910 0.46950 0.59640 -0.03500
N 	N 	0.48740 0.42570 0.58340 -0.26200
C 	C 	0.37670 0.47990 0.60880 -0.03100
N 	N 	0.34450 0.44070 0.60180 -0.26200
C 	C 	0.43610 0.66910 0.62870 -0.06400
N 	N 	0.43500 0.72990 0.63180 -0.07000
C 	C 	0.41790 0.66300 0.61640 0.01800
N 	N 	0.40670 0.72000 0.61200 -0.07800
C 	C 	0.37460 0.58380 0.56070 0.07800
N 	N 	0.34200 0.59060 0.52320 -0.10200
C 	C 	0.38400 0.56600 0.55290 -0.10800
N 	N 	0.37000 0.55400 0.51960 -0.07600
C 	C 	0.47760 0.60270 0.58500 -0.05500
N 	N 	0.49830 0.62610 0.56390 -0.14900
Fe	Fe	0.50000 0.35179 0.75000 1.15100
W 	W 	0.08036 0.65767 0.88177 0.51200
W 	W 	0.82169 0.83582 0.76502 0.50300
W 	W 	0.06101 0.05510 0.87678 0.48600
Fe	Fe	0.89329 0.57477 0.76569 1.03500
Fe	Fe	0.21568 0.87054 0.91005 1.03000
Fe	Fe	0.87086 0.11047 0.75265 1.03000
Fe	Fe	0.97309 0.84536 0.93168 1.04600
C 	C 	0.04740 0.73720 0.82950 -0.03000
N 	N 	0.02820 0.77700 0.80090 -0.23400
C 	C 	0.09100 0.61950 0.82320 -0.04100
N 	N 	0.09480 0.60090 0.79070 -0.26400
C 	C 	0.00580 0.62030 0.83550 -0.05800
N 	N 	0.96650 0.60230 0.81000 -0.24500
C 	C 	0.03490 0.72670 0.90300 -0.04900
N 	N 	0.01130 0.76670 0.91370 -0.26600
C 	C 	0.13800 0.73800 0.89300 -0.04300
N 	N 	0.16790 0.78140 0.89910 -0.25600
C 	C 	0.14940 0.59270 0.90510 -0.06000
N 	N 	0.18680 0.56080 0.91880 -0.12400
C 	C 	0.11800 0.66900 0.95500 -0.06400
N 	N 	0.14060 0.67470 0.99390 -0.15200
C 	C 	0.05960 0.56550 0.90740 -0.07400
N 	N 	0.04900 0.51250 0.91940 -0.11900
C 	C 	0.89260 0.84020 0.75680 -0.02700
N 	N 	0.93070 0.84650 0.75360 -0.22800
C 	C 	0.85040 0.73030 0.76710 -0.03900
N 	N 	0.86610 0.67400 0.76880 -0.26200
C 	C 	0.84200 0.94720 0.76440 -0.03800
N 	N 	0.85400 0.00420 0.76190 -0.25800
C 	C 	0.87970 0.84830 0.83270 -0.04300
N 	N 	0.91250 0.84950 0.86920 -0.25700
C 	C 	0.80120 0.85770 0.69410 -0.04300
N 	N 	0.79190 0.86910 0.65680 -0.26300
C 	C 	0.75900 0.89990 0.76380 -0.07000
N 	N 	0.72540 0.93460 0.76310 -0.15100
C 	C 	0.79540 0.78260 0.81160 -0.05900
N 	N 	0.77640 0.74590 0.82890 -0.09800
N 	N 	0.78550 0.76420 0.84210 -0.04000
C 	C 	0.75530 0.77200 0.72510 -0.06700
N 	N 	0.72060 0.73600 0.70470 -0.14900
C 	C 	0.03490 0.97430 0.82520 -0.04000
N 	N 	0.02250 0.92960 0.79810 -0.23700
C 	C 	0.98730 0.08600 0.82620 -0.01700
N 	N 	0.94700 0.10130 0.79980 -0.25800
C 	C 	0.09350 0.08130 0.82920 -0.04300
N 	N 	0.11000 0.09310 0.80280 -0.25900
C 	C 	0.03090 0.96950 0.90360 -0.03800
N 	N 	0.01260 0.92570 0.91660 -0.26900
C 	C 	0.12330 0.97990 0.89120 -0.02900
N 	N 	0.15550 0.94070 0.89820 -0.26200
C 	C 	0.06390 0.16910 0.87130 -0.05900
N 	N 	0.06500 0.22990 0.86820 -0.07500
C 	C 	0.08210 0.16300 0.88360 0.01100
N 	N 	0.09330 0.22000 0.88800 -0.07600
C 	C 	0.12540 0.08380 0.93930 0.07800
N 	N 	0.15800 0.09060 0.97680 -0.10200
C 	C 	0.11600 0.06600 0.94710 -0.10600
N 	N 	0.13000 0.05400 0.98040 -0.07800
C 	C 	0.02240 0.10270 0.91500 -0.06100
N 	N 	0.00170 0.12610 0.93610 -0.15500
W 	W 	0.91964 0.65767 0.61823 0.50500
W 	W 	0.17831 0.83582 0.73498 0.50300
W 	W 	0.93899 0.05510 0.62322 0.50800
Fe	Fe	0.10671 0.57477 0.73431 1.03100
Fe	Fe	0.78432 0.87054 0.58995 1.03000
Fe	Fe	0.12914 0.11047 0.74735 1.02600
Fe	Fe	0.02691 0.84536 0.56832 1.02600
C 	C 	0.95260 0.73720 0.67050 -0.02500
N 	N 	0.97180 0.77700 0.69910 -0.22400
C 	C 	0.90900 0.61950 0.67680 -0.03700
N 	N 	0.90520 0.60090 0.70930 -0.26100
C 	C 	0.99420 0.62030 0.66450 -0.01000
N 	N 	0.03350 0.60230 0.69000 -0.28200
C 	C 	0.96510 0.72670 0.59700 -0.04200
N 	N 	0.98870 0.76670 0.58630 -0.25300
C 	C 	0.86200 0.73800 0.60700 -0.04100
N 	N 	0.83210 0.78140 0.60090 -0.25600
C 	C 	0.85060 0.59270 0.59490 -0.05800
N 	N 	0.81320 0.56080 0.58120 -0.12300
C 	C 	0.88200 0.66900 0.54500 -0.06000
N 	N 	0.85940 0.67470 0.50610 -0.14900
C 	C 	0.94040 0.56550 0.59260 -0.06800
N 	N 	0.95100 0.51250 0.58060 -0.11200
C 	C 	0.10740 0.84020 0.74320 -0.03100
N 	N 	0.06930 0.84650 0.74640 -0.23700
C 	C 	0.14960 0.73030 0.73290 -0.04200
N 	N 	0.13390 0.67400 0.73120 -0.26400
C 	C 	0.15800 0.94720 0.73560 -0.04000
N 	N 	0.14600 0.00420 0.73810 -0.26000
C 	C 	0.12030 0.84830 0.66730 -0.04900
N 	N 	0.08750 0.84950 0.63080 -0.26400
C 	C 	0.19880 0.85770 0.80590 -0.04300
N 	N 	0.20810 0.86910 0.84320 -0.26300
C 	C 	0.24100 0.89990 0.73620 -0.07100
N 	N 	0.27460 0.93460 0.73690 -0.15200
C 	C 	0.20460 0.78260 0.68840 -0.06100
N 	N 	0.22360 0.74590 0.67110 -0.09700
N 	N 	0.21450 0.76420 0.65790 -0.04200
C 	C 	0.24470 0.77200 0.77490 -0.06800
N 	N 	0.27940 0.73600 0.79530 -0.14900
C 	C 	0.96510 0.97430 0.67480 -0.02700
N 	N 	0.97750 0.92960 0.70190 -0.22700
C 	C 	0.01270 0.08600 0.67380 -0.06000
N 	N 	0.05300 0.10130 0.70020 -0.25600
C 	C 	0.90650 0.08130 0.67080 -0.03900
N 	N 	0.89000 0.09310 0.69720 -0.25600
C 	C 	0.96910 0.96950 0.59640 -0.03200
N 	N 	0.98740 0.92570 0.58340 -0.25500
C 	C 	0.87670 0.97990 0.60880 -0.03200
N 	N 	0.84450 0.94070 0.60180 -0.26100
C 	C 	0.93610 0.16910 0.62870 -0.06800
N 	N 	0.93500 0.22990 0.63180 -0.06400
C 	C 	0.91790 0.16300 0.61640 0.02600
N 	N 	0.90670 0.22000 0.61200 -0.08000
C 	C 	0.87460 0.08380 0.56070 0.07700
N 	N 	0.84200 0.09060 0.52320 -0.10100
C 	C 	0.88400 0.06600 0.55290 -0.10800
N 	N 	0.87000 0.05400 0.51960 -0.07500
C 	C 	0.97760 0.10270 0.58500 -0.04900
N 	N 	0.99830 0.12610 0.56390 -0.14400
Fe	Fe	0.00000 0.85179 0.75000 1.14100
