data_crystal

_cell_length_a 22.92000
_cell_length_b 22.92000
_cell_length_c 22.27000
_cell_angle_alpha 90.00000
_cell_angle_beta  90.00000
_cell_angle_gamma 120.00000

_symmetry_space_group_name_	'P 1'
_symmetry_space_group_name_H-M	'P 1'

loop_
_symmetry_equiv_pos_as_xyz
  x,y,z

loop_
_atom_site_label
_atom_site_type_symbol
_atom_site_fract_x
_atom_site_fract_y
_atom_site_fract_z
_atom_site_charge
I 	I 	0.84675 0.60946 0.83789 -0.68400
I 	I 	0.81050 0.44476 0.70891 -0.59000
Cu	Cu	0.84154 0.57577 0.72245 0.72600
Cu	Cu	0.76475 0.48131 0.80428 0.72200
N 	N 	0.93800 0.62660 0.68860 -0.18100
N 	N 	0.76520 0.42060 0.87330 -0.17400
C 	C 	0.94170 0.60150 0.62990 -0.05100
H 	H 	0.91420 0.60990 0.60200 0.03100
H 	H 	0.92310 0.55310 0.63230 0.03400
C 	C 	0.98610 0.62000 0.72820 -0.06900
H 	H 	0.97290 0.57280 0.73170 0.04000
H 	H 	0.98460 0.63650 0.76790 0.04000
C 	C 	0.96390 0.70090 0.68360 -0.05400
H 	H 	0.96870 0.72010 0.72340 0.02400
H 	H 	0.93200 0.70850 0.66120 -0.00500
C 	C 	0.73260 0.43020 0.92700 -0.07700
H 	H 	0.68760 0.42110 0.91720 0.03900
H 	H 	0.75860 0.47620 0.94140 0.03800
C 	C 	0.83220 0.43640 0.88900 -0.05600
H 	H 	0.85920 0.48420 0.89760 0.03200
H 	H 	0.85260 0.42650 0.85530 0.03600
C 	C 	0.72950 0.35100 0.85580 -0.05400
H 	H 	0.74860 0.34560 0.81880 0.03300
H 	H 	0.68270 0.33750 0.84820 0.03600
I 	I 	0.39054 0.23729 0.50456 -0.68500
I 	I 	0.55524 0.36574 0.37558 -0.59100
Cu	Cu	0.42423 0.26577 0.38912 0.72500
Cu	Cu	0.51869 0.28344 0.47095 0.72100
N 	N 	0.37340 0.31140 0.35527 -0.18200
N 	N 	0.57940 0.34460 0.53997 -0.17500
C 	C 	0.39850 0.34020 0.29657 -0.05300
H 	H 	0.39010 0.30430 0.26867 0.03000
H 	H 	0.44690 0.37000 0.29897 0.03400
C 	C 	0.38000 0.36610 0.39487 -0.06900
H 	H 	0.42720 0.40010 0.39837 0.04000
H 	H 	0.36350 0.34810 0.43457 0.04000
C 	C 	0.29910 0.26300 0.35027 -0.05500
H 	H 	0.27990 0.24860 0.39007 0.02400
H 	H 	0.29150 0.22350 0.32787 -0.00500
C 	C 	0.56980 0.30240 0.59367 -0.07700
H 	H 	0.57890 0.26650 0.58387 0.03900
H 	H 	0.52380 0.28240 0.60807 0.03800
C 	C 	0.56360 0.39580 0.55567 -0.05600
H 	H 	0.51580 0.37500 0.56427 0.03200
H 	H 	0.57350 0.42610 0.52197 0.03600
C 	C 	0.64900 0.37850 0.52247 -0.05400
H 	H 	0.65440 0.40300 0.48547 0.03300
H 	H 	0.66250 0.34520 0.51487 0.03600
I 	I 	0.76271 0.15325 0.17122 -0.68500
I 	I 	0.63426 0.18950 0.04224 -0.59100
Cu	Cu	0.73423 0.15846 0.05578 0.72500
Cu	Cu	0.71656 0.23525 0.13761 0.72100
N 	N 	0.68860 0.06200 0.02193 -0.18200
N 	N 	0.65540 0.23480 0.20663 -0.17500
C 	C 	0.65980 0.05830 0.96323 -0.05200
H 	H 	0.69570 0.08580 0.93533 0.03000
H 	H 	0.63000 0.07690 0.96563 0.03400
C 	C 	0.63390 0.01390 0.06153 -0.07000
H 	H 	0.59990 0.02710 0.06503 0.04000
H 	H 	0.65190 0.01540 0.10123 0.04000
C 	C 	0.73700 0.03610 0.01693 -0.05600
H 	H 	0.75140 0.03130 0.05673 0.02400
H 	H 	0.77650 0.06800 0.99453 -0.00400
C 	C 	0.69760 0.26740 0.26033 -0.07700
H 	H 	0.73350 0.31240 0.25053 0.03900
H 	H 	0.71760 0.24140 0.27473 0.03800
C 	C 	0.60420 0.16780 0.22233 -0.05600
H 	H 	0.62500 0.14080 0.23093 0.03100
H 	H 	0.57390 0.14740 0.18863 0.03600
C 	C 	0.62150 0.27050 0.18913 -0.05400
H 	H 	0.59700 0.25140 0.15213 0.03300
H 	H 	0.65480 0.31730 0.18153 0.03600
I 	I 	0.15325 0.39054 0.33789 -0.68500
I 	I 	0.18950 0.55524 0.20891 -0.59100
Cu	Cu	0.15846 0.42423 0.22245 0.72500
Cu	Cu	0.23525 0.51869 0.30428 0.72100
N 	N 	0.06200 0.37340 0.18860 -0.18200
N 	N 	0.23480 0.57940 0.37330 -0.17500
C 	C 	0.05830 0.39850 0.12990 -0.05200
H 	H 	0.08580 0.39010 0.10200 0.03000
H 	H 	0.07690 0.44690 0.13230 0.03400
C 	C 	0.01390 0.38000 0.22820 -0.06900
H 	H 	0.02710 0.42720 0.23170 0.03900
H 	H 	0.01540 0.36350 0.26790 0.04000
C 	C 	0.03610 0.29910 0.18360 -0.05400
H 	H 	0.03130 0.27990 0.22340 0.02400
H 	H 	0.06800 0.29150 0.16120 -0.00500
C 	C 	0.26740 0.56980 0.42700 -0.07700
H 	H 	0.31240 0.57890 0.41720 0.03900
H 	H 	0.24140 0.52380 0.44140 0.03800
C 	C 	0.16780 0.56360 0.38900 -0.05600
H 	H 	0.14080 0.51580 0.39760 0.03200
H 	H 	0.14740 0.57350 0.35530 0.03600
C 	C 	0.27050 0.64900 0.35580 -0.05400
H 	H 	0.25140 0.65440 0.31880 0.03300
H 	H 	0.31730 0.66250 0.34820 0.03600
I 	I 	0.60946 0.76271 0.00456 -0.68500
I 	I 	0.44476 0.63426 0.87558 -0.59100
Cu	Cu	0.57577 0.73423 0.88912 0.72500
Cu	Cu	0.48131 0.71656 0.97095 0.72100
N 	N 	0.62660 0.68860 0.85527 -0.18200
N 	N 	0.42060 0.65540 0.03997 -0.17500
C 	C 	0.60150 0.65980 0.79657 -0.05300
H 	H 	0.60990 0.69570 0.76867 0.03000
H 	H 	0.55310 0.63000 0.79897 0.03400
C 	C 	0.62000 0.63390 0.89487 -0.06900
H 	H 	0.57280 0.59990 0.89837 0.04000
H 	H 	0.63650 0.65190 0.93457 0.04000
C 	C 	0.70090 0.73700 0.85027 -0.05500
H 	H 	0.72010 0.75140 0.89007 0.02400
H 	H 	0.70850 0.77650 0.82787 -0.00500
C 	C 	0.43020 0.69760 0.09367 -0.07700
H 	H 	0.42110 0.73350 0.08387 0.03900
H 	H 	0.47620 0.71760 0.10807 0.03800
C 	C 	0.43640 0.60420 0.05567 -0.05600
H 	H 	0.48420 0.62500 0.06427 0.03200
H 	H 	0.42650 0.57390 0.02197 0.03600
C 	C 	0.35100 0.62150 0.02247 -0.05300
H 	H 	0.34560 0.59700 0.98547 0.03300
H 	H 	0.33750 0.65480 0.01487 0.03500
I 	I 	0.23729 0.84675 0.67122 -0.68500
I 	I 	0.36574 0.81050 0.54224 -0.59100
Cu	Cu	0.26577 0.84154 0.55578 0.72500
Cu	Cu	0.28344 0.76475 0.63761 0.72100
N 	N 	0.31140 0.93800 0.52193 -0.18200
N 	N 	0.34460 0.76520 0.70663 -0.17500
C 	C 	0.34020 0.94170 0.46323 -0.05300
H 	H 	0.30430 0.91420 0.43533 0.03000
H 	H 	0.37000 0.92310 0.46563 0.03400
C 	C 	0.36610 0.98610 0.56153 -0.06900
H 	H 	0.40010 0.97290 0.56503 0.04000
H 	H 	0.34810 0.98460 0.60123 0.04000
C 	C 	0.26300 0.96390 0.51693 -0.05500
H 	H 	0.24860 0.96870 0.55673 0.02400
H 	H 	0.22350 0.93200 0.49453 -0.00500
C 	C 	0.30240 0.73260 0.76033 -0.07700
H 	H 	0.26650 0.68760 0.75053 0.03900
H 	H 	0.28240 0.75860 0.77473 0.03800
C 	C 	0.39580 0.83220 0.72233 -0.05600
H 	H 	0.37500 0.85920 0.73093 0.03100
H 	H 	0.42610 0.85260 0.68863 0.03600
C 	C 	0.37850 0.72950 0.68913 -0.05400
H 	H 	0.40300 0.74860 0.65213 0.03300
H 	H 	0.34520 0.68270 0.68153 0.03600
I 	I 	0.60946 0.84675 0.82878 -0.68500
I 	I 	0.44476 0.81050 0.95776 -0.59100
Cu	Cu	0.57577 0.84154 0.94422 0.72500
Cu	Cu	0.48131 0.76475 0.86239 0.72100
N 	N 	0.62660 0.93800 0.97807 -0.18200
N 	N 	0.42060 0.76520 0.79337 -0.17500
C 	C 	0.60150 0.94170 0.03677 -0.05200
H 	H 	0.60990 0.91420 0.06467 0.03000
H 	H 	0.55310 0.92310 0.03437 0.03400
C 	C 	0.62000 0.98610 0.93847 -0.07000
H 	H 	0.57280 0.97290 0.93497 0.04000
H 	H 	0.63650 0.98460 0.89877 0.04000
C 	C 	0.70090 0.96390 0.98307 -0.05500
H 	H 	0.72010 0.96870 0.94327 0.02400
H 	H 	0.70850 0.93200 0.00547 -0.00400
C 	C 	0.43020 0.73260 0.73967 -0.07700
H 	H 	0.42110 0.68760 0.74947 0.03900
H 	H 	0.47620 0.75860 0.72527 0.03800
C 	C 	0.43640 0.83220 0.77767 -0.05600
H 	H 	0.48420 0.85920 0.76907 0.03100
H 	H 	0.42650 0.85260 0.81137 0.03600
C 	C 	0.35100 0.72950 0.81087 -0.05400
H 	H 	0.34560 0.74860 0.84787 0.03300
H 	H 	0.33750 0.68270 0.81847 0.03600
I 	I 	0.23729 0.39054 0.16211 -0.68500
I 	I 	0.36574 0.55524 0.29109 -0.59100
Cu	Cu	0.26577 0.42423 0.27755 0.72500
Cu	Cu	0.28344 0.51869 0.19572 0.72100
N 	N 	0.31140 0.37340 0.31140 -0.18200
N 	N 	0.34460 0.57940 0.12670 -0.17500
C 	C 	0.34020 0.39850 0.37010 -0.05300
H 	H 	0.30430 0.39010 0.39800 0.03000
H 	H 	0.37000 0.44690 0.36770 0.03400
C 	C 	0.36610 0.38000 0.27180 -0.06900
H 	H 	0.40010 0.42720 0.26830 0.04000
H 	H 	0.34810 0.36350 0.23210 0.04000
C 	C 	0.26300 0.29910 0.31640 -0.05500
H 	H 	0.24860 0.27990 0.27660 0.02400
H 	H 	0.22350 0.29150 0.33880 -0.00500
C 	C 	0.30240 0.56980 0.07300 -0.07700
H 	H 	0.26650 0.57890 0.08280 0.04000
H 	H 	0.28240 0.52380 0.05860 0.03800
C 	C 	0.39580 0.56360 0.11100 -0.05600
H 	H 	0.37500 0.51580 0.10240 0.03200
H 	H 	0.42610 0.57350 0.14470 0.03600
C 	C 	0.37850 0.64900 0.14420 -0.05400
H 	H 	0.40300 0.65440 0.18120 0.03300
H 	H 	0.34520 0.66250 0.15180 0.03600
I 	I 	0.15325 0.76271 0.49544 -0.68500
I 	I 	0.18950 0.63426 0.62442 -0.59100
Cu	Cu	0.15846 0.73423 0.61088 0.72500
Cu	Cu	0.23525 0.71656 0.52905 0.72100
N 	N 	0.06200 0.68860 0.64473 -0.18200
N 	N 	0.23480 0.65540 0.46003 -0.17500
C 	C 	0.05830 0.65980 0.70343 -0.05300
H 	H 	0.08580 0.69570 0.73133 0.03000
H 	H 	0.07690 0.63000 0.70103 0.03400
C 	C 	0.01390 0.63390 0.60513 -0.07000
H 	H 	0.02710 0.59990 0.60163 0.04000
H 	H 	0.01540 0.65190 0.56543 0.04000
C 	C 	0.03610 0.73700 0.64973 -0.05500
H 	H 	0.03130 0.75140 0.60993 0.02400
H 	H 	0.06800 0.77650 0.67213 -0.00500
C 	C 	0.26740 0.69760 0.40633 -0.07700
H 	H 	0.31240 0.73350 0.41613 0.03900
H 	H 	0.24140 0.71760 0.39193 0.03800
C 	C 	0.16780 0.60420 0.44433 -0.05600
H 	H 	0.14080 0.62500 0.43573 0.03100
H 	H 	0.14740 0.57390 0.47803 0.03600
C 	C 	0.27050 0.62150 0.47753 -0.05400
H 	H 	0.25140 0.59700 0.51453 0.03300
H 	H 	0.31730 0.65480 0.48513 0.03600
I 	I 	0.39054 0.15325 0.32878 -0.68500
I 	I 	0.55524 0.18950 0.45776 -0.59100
Cu	Cu	0.42423 0.15846 0.44422 0.72500
Cu	Cu	0.51869 0.23525 0.36239 0.72100
N 	N 	0.37340 0.06200 0.47807 -0.18200
N 	N 	0.57940 0.23480 0.29337 -0.17500
C 	C 	0.39850 0.05830 0.53677 -0.05200
H 	H 	0.39010 0.08580 0.56467 0.03000
H 	H 	0.44690 0.07690 0.53437 0.03400
C 	C 	0.38000 0.01390 0.43847 -0.06900
H 	H 	0.42720 0.02710 0.43497 0.04000
H 	H 	0.36350 0.01540 0.39877 0.04000
C 	C 	0.29910 0.03610 0.48307 -0.05500
H 	H 	0.27990 0.03130 0.44327 0.02400
H 	H 	0.29150 0.06800 0.50547 -0.00500
C 	C 	0.56980 0.26740 0.23967 -0.07700
H 	H 	0.57890 0.31240 0.24947 0.03900
H 	H 	0.52380 0.24140 0.22527 0.03800
C 	C 	0.56360 0.16780 0.27767 -0.05600
H 	H 	0.51580 0.14080 0.26907 0.03100
H 	H 	0.57350 0.14740 0.31137 0.03600
C 	C 	0.64900 0.27050 0.31087 -0.05400
H 	H 	0.65440 0.25140 0.34787 0.03300
H 	H 	0.66250 0.31730 0.31847 0.03600
I 	I 	0.76271 0.60946 0.66211 -0.68500
I 	I 	0.63426 0.44476 0.79109 -0.59100
Cu	Cu	0.73423 0.57577 0.77755 0.72500
Cu	Cu	0.71656 0.48131 0.69572 0.72100
N 	N 	0.68860 0.62660 0.81140 -0.18200
N 	N 	0.65540 0.42060 0.62670 -0.17500
C 	C 	0.65980 0.60150 0.87010 -0.05300
H 	H 	0.69570 0.60990 0.89800 0.03000
H 	H 	0.63000 0.55310 0.86770 0.03400
C 	C 	0.63390 0.62000 0.77180 -0.06900
H 	H 	0.59990 0.57280 0.76830 0.04000
H 	H 	0.65190 0.63650 0.73210 0.04000
C 	C 	0.73700 0.70090 0.81640 -0.05500
H 	H 	0.75140 0.72010 0.77660 0.02400
H 	H 	0.77650 0.70850 0.83880 -0.00500
C 	C 	0.69760 0.43020 0.57300 -0.07700
H 	H 	0.73350 0.42110 0.58280 0.03900
H 	H 	0.71760 0.47620 0.55860 0.03800
C 	C 	0.60420 0.43640 0.61100 -0.05600
H 	H 	0.62500 0.48420 0.60240 0.03200
H 	H 	0.57390 0.42650 0.64470 0.03600
C 	C 	0.62150 0.35100 0.64420 -0.05400
H 	H 	0.59700 0.34560 0.68120 0.03300
H 	H 	0.65480 0.33750 0.65180 0.03600
I 	I 	0.84675 0.23729 0.99544 -0.68400
I 	I 	0.81050 0.36574 0.12442 -0.59100
Cu	Cu	0.84154 0.26577 0.11088 0.72500
Cu	Cu	0.76475 0.28344 0.02905 0.72100
N 	N 	0.93800 0.31140 0.14473 -0.18200
N 	N 	0.76520 0.34460 0.96003 -0.17500
C 	C 	0.94170 0.34020 0.20343 -0.05300
H 	H 	0.91420 0.30430 0.23133 0.03000
H 	H 	0.92310 0.37000 0.20103 0.03400
C 	C 	0.98610 0.36610 0.10513 -0.07000
H 	H 	0.97290 0.40010 0.10163 0.04000
H 	H 	0.98460 0.34810 0.06543 0.04000
C 	C 	0.96390 0.26300 0.14973 -0.05500
H 	H 	0.96870 0.24860 0.10993 0.02400
H 	H 	0.93200 0.22350 0.17213 -0.00500
C 	C 	0.73260 0.30240 0.90633 -0.07700
H 	H 	0.68760 0.26650 0.91613 0.03900
H 	H 	0.75860 0.28240 0.89193 0.03800
C 	C 	0.83220 0.39580 0.94433 -0.05600
H 	H 	0.85920 0.37500 0.93573 0.03200
H 	H 	0.85260 0.42610 0.97803 0.03600
C 	C 	0.72950 0.37850 0.97753 -0.05300
H 	H 	0.74860 0.40300 0.01453 0.03300
H 	H 	0.68270 0.34520 0.98513 0.03500
Cu	Cu	0.08317 0.21976 0.39233 0.82400
N 	N 	0.14690 0.22530 0.45020 -0.27300
N 	N 	0.20340 0.19350 0.51030 -0.27200
C 	C 	0.12180 0.10630 0.44040 -0.15700
C 	C 	0.05050 0.07050 0.43690 0.03900
H 	H 	0.02660 0.09140 0.44930 -0.03300
C 	C 	0.15760 0.17600 0.46570 0.10300
C 	C 	0.22290 0.25770 0.52270 0.04600
C 	C 	0.18840 0.27870 0.48530 0.04900
C 	C 	0.20120 0.34460 0.48830 -0.12300
H 	H 	0.17820 0.35870 0.46330 0.05800
C 	C 	0.24850 0.38960 0.52880 -0.01700
H 	H 	0.25710 0.43370 0.53080 0.03100
C 	C 	0.28300 0.36860 0.56620 -0.02900
H 	H 	0.31470 0.39860 0.59330 0.03600
C 	C 	0.27020 0.30260 0.56320 -0.10700
H 	H 	0.29330 0.28850 0.58820 0.04400
Cu	Cu	0.78024 0.86341 0.05900 0.82400
N 	N 	0.77470 0.92160 0.11687 -0.27400
N 	N 	0.80650 0.00990 0.17697 -0.27300
C 	C 	0.89370 0.01550 0.10707 -0.16600
C 	C 	0.92950 0.98000 0.10357 0.05200
H 	H 	0.90860 0.93520 0.11597 -0.03800
C 	C 	0.82400 0.98160 0.13237 0.10600
C 	C 	0.74230 0.96520 0.18937 0.04500
C 	C 	0.72130 0.90970 0.15197 0.04900
C 	C 	0.65540 0.85660 0.15497 -0.12300
H 	H 	0.64130 0.81950 0.12997 0.05800
C 	C 	0.61040 0.85890 0.19547 -0.01700
H 	H 	0.56630 0.82340 0.19747 0.03100
C 	C 	0.63140 0.91440 0.23287 -0.02900
H 	H 	0.60140 0.91610 0.25997 0.03600
C 	C 	0.69740 0.96760 0.22987 -0.10700
H 	H 	0.71150 0.00480 0.25487 0.04400
Cu	Cu	0.13659 0.91683 0.72566 0.82400
N 	N 	0.07840 0.85310 0.78353 -0.27300
N 	N 	0.99010 0.79660 0.84363 -0.27200
C 	C 	0.98450 0.87820 0.77373 -0.15300
C 	C 	0.02000 0.94950 0.77023 0.03300
H 	H 	0.06480 0.97340 0.78263 -0.03100
C 	C 	0.01840 0.84240 0.79903 0.10100
C 	C 	0.03480 0.77710 0.85603 0.04600
C 	C 	0.09030 0.81160 0.81863 0.04900
C 	C 	0.14340 0.79880 0.82163 -0.12200
H 	H 	0.18050 0.82180 0.79663 0.05800
C 	C 	0.14110 0.75150 0.86213 -0.01800
H 	H 	0.17660 0.74290 0.86413 0.03100
C 	C 	0.08560 0.71700 0.89953 -0.02800
H 	H 	0.08390 0.68530 0.92663 0.03500
C 	C 	0.03240 0.72980 0.89653 -0.10900
H 	H 	0.99520 0.70670 0.92153 0.04500
Cu	Cu	0.91683 0.78024 0.89233 0.82400
N 	N 	0.85310 0.77470 0.95020 -0.27400
N 	N 	0.79660 0.80650 0.01030 -0.27200
C 	C 	0.87820 0.89370 0.94040 -0.15900
C 	C 	0.94950 0.92950 0.93690 0.04100
H 	H 	0.97340 0.90860 0.94930 -0.03400
C 	C 	0.84240 0.82400 0.96570 0.10400
C 	C 	0.77710 0.74230 0.02270 0.04500
C 	C 	0.81160 0.72130 0.98530 0.04900
C 	C 	0.79880 0.65540 0.98830 -0.12300
H 	H 	0.82180 0.64130 0.96330 0.05800
C 	C 	0.75150 0.61040 0.02880 -0.01700
H 	H 	0.74290 0.56630 0.03080 0.03100
C 	C 	0.71700 0.63140 0.06620 -0.02800
H 	H 	0.68530 0.60140 0.09330 0.03600
C 	C 	0.72980 0.69740 0.06320 -0.10700
H 	H 	0.70670 0.71150 0.08820 0.04400
Cu	Cu	0.21976 0.13659 0.55900 0.82400
N 	N 	0.22530 0.07840 0.61687 -0.27400
N 	N 	0.19350 0.99010 0.67697 -0.27300
C 	C 	0.10630 0.98450 0.60707 -0.16300
C 	C 	0.07050 0.02000 0.60357 0.04700
H 	H 	0.09140 0.06480 0.61597 -0.03600
C 	C 	0.17600 0.01840 0.63237 0.10500
C 	C 	0.25770 0.03480 0.68937 0.04500
C 	C 	0.27870 0.09030 0.65197 0.04900
C 	C 	0.34460 0.14340 0.65497 -0.12300
H 	H 	0.35870 0.18050 0.62997 0.05800
C 	C 	0.38960 0.14110 0.69547 -0.01700
H 	H 	0.43370 0.17660 0.69747 0.03000
C 	C 	0.36860 0.08560 0.73287 -0.02900
H 	H 	0.39860 0.08390 0.75997 0.03600
C 	C 	0.30260 0.03240 0.72987 -0.10600
H 	H 	0.28850 0.99520 0.75487 0.04400
Cu	Cu	0.86341 0.08317 0.22566 0.82400
N 	N 	0.92160 0.14690 0.28353 -0.27300
N 	N 	0.00990 0.20340 0.34363 -0.27200
C 	C 	0.01550 0.12180 0.27373 -0.15500
C 	C 	0.98000 0.05050 0.27023 0.03600
H 	H 	0.93520 0.02660 0.28263 -0.03200
C 	C 	0.98160 0.15760 0.29903 0.10200
C 	C 	0.96520 0.22290 0.35603 0.04500
C 	C 	0.90970 0.18840 0.31863 0.04900
C 	C 	0.85660 0.20120 0.32163 -0.12300
H 	H 	0.81950 0.17820 0.29663 0.05800
C 	C 	0.85890 0.24850 0.36213 -0.01700
H 	H 	0.82340 0.25710 0.36413 0.03100
C 	C 	0.91440 0.28300 0.39953 -0.02800
H 	H 	0.91610 0.31470 0.42663 0.03600
C 	C 	0.96760 0.27020 0.39653 -0.10700
H 	H 	0.00480 0.29330 0.42153 0.04400
Cu	Cu	0.21976 0.08317 0.27434 0.82400
N 	N 	0.22530 0.14690 0.21647 -0.27300
N 	N 	0.19350 0.20340 0.15637 -0.27200
C 	C 	0.10630 0.12180 0.22627 -0.15500
C 	C 	0.07050 0.05050 0.22977 0.03600
H 	H 	0.09140 0.02660 0.21737 -0.03200
C 	C 	0.17600 0.15760 0.20097 0.10300
C 	C 	0.25770 0.22290 0.14397 0.04600
C 	C 	0.27870 0.18840 0.18137 0.04900
C 	C 	0.34460 0.20120 0.17837 -0.12300
H 	H 	0.35870 0.17820 0.20337 0.05800
C 	C 	0.38960 0.24850 0.13787 -0.01700
H 	H 	0.43370 0.25710 0.13587 0.03100
C 	C 	0.36860 0.28300 0.10047 -0.02800
H 	H 	0.39860 0.31470 0.07337 0.03600
C 	C 	0.30260 0.27020 0.10347 -0.10700
H 	H 	0.28850 0.29330 0.07847 0.04400
Cu	Cu	0.86341 0.78024 0.60767 0.82400
N 	N 	0.92160 0.77470 0.54980 -0.27400
N 	N 	0.00990 0.80650 0.48970 -0.27300
C 	C 	0.01550 0.89370 0.55960 -0.16300
C 	C 	0.98000 0.92950 0.56310 0.04700
H 	H 	0.93520 0.90860 0.55070 -0.03600
C 	C 	0.98160 0.82400 0.53430 0.10500
C 	C 	0.96520 0.74230 0.47730 0.04600
C 	C 	0.90970 0.72130 0.51470 0.04900
C 	C 	0.85660 0.65540 0.51170 -0.12300
H 	H 	0.81950 0.64130 0.53670 0.05800
C 	C 	0.85890 0.61040 0.47120 -0.01700
H 	H 	0.82340 0.56630 0.46920 0.03100
C 	C 	0.91440 0.63140 0.43380 -0.02900
H 	H 	0.91610 0.60140 0.40670 0.03600
C 	C 	0.96760 0.69740 0.43680 -0.10700
H 	H 	0.00480 0.71150 0.41180 0.04400
Cu	Cu	0.91683 0.13659 0.94100 0.82400
N 	N 	0.85310 0.07840 0.88313 -0.27400
N 	N 	0.79660 0.99010 0.82303 -0.27300
C 	C 	0.87820 0.98450 0.89293 -0.15900
C 	C 	0.94950 0.02000 0.89643 0.04200
H 	H 	0.97340 0.06480 0.88403 -0.03400
C 	C 	0.84240 0.01840 0.86763 0.10400
C 	C 	0.77710 0.03480 0.81063 0.04500
C 	C 	0.81160 0.09030 0.84803 0.04900
C 	C 	0.79880 0.14340 0.84503 -0.12300
H 	H 	0.82180 0.18050 0.87003 0.05800
C 	C 	0.75150 0.14110 0.80453 -0.01700
H 	H 	0.74290 0.17660 0.80253 0.03000
C 	C 	0.71700 0.08560 0.76713 -0.02900
H 	H 	0.68530 0.08390 0.74003 0.03600
C 	C 	0.72980 0.03240 0.77013 -0.10700
H 	H 	0.70670 0.99520 0.74513 0.04400
Cu	Cu	0.78024 0.91683 0.77434 0.82400
N 	N 	0.77470 0.85310 0.71647 -0.27300
N 	N 	0.80650 0.79660 0.65637 -0.27200
C 	C 	0.89370 0.87820 0.72627 -0.15400
C 	C 	0.92950 0.94950 0.72977 0.03500
H 	H 	0.90860 0.97340 0.71737 -0.03200
C 	C 	0.82400 0.84240 0.70097 0.10200
C 	C 	0.74230 0.77710 0.64397 0.04600
C 	C 	0.72130 0.81160 0.68137 0.04900
C 	C 	0.65540 0.79880 0.67837 -0.12300
H 	H 	0.64130 0.82180 0.70337 0.05800
C 	C 	0.61040 0.75150 0.63787 -0.01700
H 	H 	0.56630 0.74290 0.63587 0.03100
C 	C 	0.63140 0.71700 0.60047 -0.02900
H 	H 	0.60140 0.68530 0.57337 0.03600
C 	C 	0.69740 0.72980 0.60347 -0.10700
H 	H 	0.71150 0.70670 0.57847 0.04400
Cu	Cu	0.13659 0.21976 0.10767 0.82400
N 	N 	0.07840 0.22530 0.04980 -0.27400
N 	N 	0.99010 0.19350 0.98970 -0.27300
C 	C 	0.98450 0.10630 0.05960 -0.16700
C 	C 	0.02000 0.07050 0.06310 0.05300
H 	H 	0.06480 0.09140 0.05070 -0.03800
C 	C 	0.01840 0.17600 0.03430 0.10700
C 	C 	0.03480 0.25770 0.97730 0.04500
C 	C 	0.09030 0.27870 0.01470 0.04900
C 	C 	0.14340 0.34460 0.01170 -0.12200
H 	H 	0.18050 0.35870 0.03670 0.05800
C 	C 	0.14110 0.38960 0.97120 -0.01800
H 	H 	0.17660 0.43370 0.96920 0.03100
C 	C 	0.08560 0.36860 0.93380 -0.02800
H 	H 	0.08390 0.39860 0.90670 0.03500
C 	C 	0.03240 0.30260 0.93680 -0.10800
H 	H 	0.99520 0.28850 0.91180 0.04500
Cu	Cu	0.08317 0.86341 0.44100 0.82400
N 	N 	0.14690 0.92160 0.38313 -0.27300
N 	N 	0.20340 0.00990 0.32303 -0.27200
C 	C 	0.12180 0.01550 0.39293 -0.15700
C 	C 	0.05050 0.98000 0.39643 0.03800
H 	H 	0.02660 0.93520 0.38403 -0.03300
C 	C 	0.15760 0.98160 0.36763 0.10300
C 	C 	0.22290 0.96520 0.31063 0.04500
C 	C 	0.18840 0.90970 0.34803 0.04900
C 	C 	0.20120 0.85660 0.34503 -0.12300
H 	H 	0.17820 0.81950 0.37003 0.05800
C 	C 	0.24850 0.85890 0.30453 -0.01700
H 	H 	0.25710 0.82340 0.30253 0.03100
C 	C 	0.28300 0.91440 0.26713 -0.02900
H 	H 	0.31470 0.91610 0.24003 0.03600
C 	C 	0.27020 0.96760 0.27013 -0.10700
H 	H 	0.29330 0.00480 0.24513 0.04400
C 	C 	0.15260 0.07630 0.41667 0.03400
H 	H 	0.19940 0.09970 0.41667 -0.03700
C 	C 	0.01780 0.00890 0.41667 -0.14800
H 	H 	0.97090 0.98545 0.41667 0.06300
C 	C 	0.92370 0.07630 0.08333 0.04400
H 	H 	0.90030 0.09970 0.08333 -0.04000
C 	C 	0.99110 0.00890 0.08333 -0.16600
H 	H 	0.01455 0.98545 0.08333 0.07000
C 	C 	0.92370 0.84740 0.75000 0.03100
H 	H 	0.90030 0.80060 0.75000 -0.03600
C 	C 	0.99110 0.98220 0.75000 -0.14300
H 	H 	0.01455 0.02910 0.75000 0.06100
C 	C 	0.84740 0.92370 0.91667 0.03700
H 	H 	0.80060 0.90030 0.91667 -0.03800
C 	C 	0.98220 0.99110 0.91667 -0.15200
H 	H 	0.02910 0.01455 0.91667 0.06400
C 	C 	0.07630 0.92370 0.58333 0.04100
H 	H 	0.09970 0.90030 0.58333 -0.03900
C 	C 	0.00890 0.99110 0.58333 -0.16000
H 	H 	0.98545 0.01455 0.58333 0.06700
C 	C 	0.07630 0.15260 0.25000 0.03300
H 	H 	0.09970 0.19940 0.25000 -0.03600
C 	C 	0.00890 0.01780 0.25000 -0.14600
H 	H 	0.98545 0.97090 0.25000 0.06200
