data_crystal

_cell_length_a 31.96300
_cell_length_b 31.96300
_cell_length_c 16.71350
_cell_angle_alpha 90.00000
_cell_angle_beta  90.00000
_cell_angle_gamma 120.00000

_symmetry_space_group_name_	'P 1'
_symmetry_space_group_name_H-M	'P 1'

loop_
_symmetry_equiv_pos_as_xyz
  x,y,z

loop_
_atom_site_label
_atom_site_type_symbol
_atom_site_fract_x
_atom_site_fract_y
_atom_site_fract_z
_atom_site_charge
O 	O 	0.25000 0.66030 0.41270 -0.43100
C 	C 	0.14400 0.53430 0.23810 -0.18700
H 	H 	0.13230 0.50320 0.21840 0.08900
C 	C 	0.17840 0.55120 0.29560 0.08800
H 	H 	0.19010 0.53180 0.31540 0.00800
O 	O 	0.33970 0.58970 0.41270 -0.43000
C 	C 	0.46570 0.60970 0.23810 -0.18500
H 	H 	0.49680 0.62910 0.21840 0.09000
C 	C 	0.44880 0.62720 0.29560 0.08800
H 	H 	0.46820 0.65830 0.31540 0.00900
O 	O 	0.41030 0.75000 0.41270 -0.43000
C 	C 	0.39030 0.85600 0.23810 -0.18500
H 	H 	0.37090 0.86770 0.21840 0.09000
C 	C 	0.37280 0.82160 0.29560 0.08900
H 	H 	0.34170 0.80990 0.31540 0.00900
O 	O 	0.75000 0.33970 0.41270 -0.43000
C 	C 	0.85600 0.46570 0.23810 -0.18500
H 	H 	0.86770 0.49680 0.21840 0.09100
C 	C 	0.82160 0.44880 0.29560 0.08900
H 	H 	0.80990 0.46820 0.31540 0.00900
O 	O 	0.66030 0.41030 0.41270 -0.43000
C 	C 	0.53430 0.39030 0.23810 -0.18500
H 	H 	0.50320 0.37090 0.21840 0.09000
C 	C 	0.55120 0.37280 0.29560 0.08800
H 	H 	0.53180 0.34170 0.31540 0.00900
O 	O 	0.58970 0.25000 0.41270 -0.43000
C 	C 	0.60970 0.14400 0.23810 -0.18600
H 	H 	0.62910 0.13230 0.21840 0.09000
C 	C 	0.62720 0.17840 0.29560 0.08900
H 	H 	0.65830 0.19010 0.31540 0.00900
O 	O 	0.66030 0.25000 0.58730 -0.42900
C 	C 	0.53430 0.14400 0.76190 -0.18400
H 	H 	0.50320 0.13230 0.78160 0.09300
C 	C 	0.55120 0.17840 0.70440 0.08900
H 	H 	0.53180 0.19010 0.68460 0.01000
O 	O 	0.58970 0.33970 0.58730 -0.42900
C 	C 	0.60970 0.46570 0.76190 -0.18300
H 	H 	0.62910 0.49680 0.78160 0.09400
C 	C 	0.62720 0.44880 0.70440 0.08900
H 	H 	0.65830 0.46820 0.68460 0.01100
O 	O 	0.75000 0.41030 0.58730 -0.42900
C 	C 	0.85600 0.39030 0.76190 -0.18300
H 	H 	0.86770 0.37090 0.78160 0.09400
C 	C 	0.82160 0.37280 0.70440 0.08900
H 	H 	0.80990 0.34170 0.68460 0.01100
O 	O 	0.33970 0.75000 0.58730 -0.42900
C 	C 	0.46570 0.85600 0.76190 -0.18300
H 	H 	0.49680 0.86770 0.78160 0.09400
C 	C 	0.44880 0.82160 0.70440 0.08900
H 	H 	0.46820 0.80990 0.68460 0.01100
O 	O 	0.41030 0.66030 0.58730 -0.42900
C 	C 	0.39030 0.53430 0.76190 -0.18300
H 	H 	0.37090 0.50320 0.78160 0.09300
C 	C 	0.37280 0.55120 0.70440 0.08900
H 	H 	0.34170 0.53180 0.68460 0.01000
O 	O 	0.25000 0.58970 0.58730 -0.42900
C 	C 	0.14400 0.60970 0.76190 -0.18400
H 	H 	0.13230 0.62910 0.78160 0.09300
C 	C 	0.17840 0.62720 0.70440 0.08900
H 	H 	0.19010 0.65830 0.68460 0.01000
O 	O 	0.75000 0.33970 0.58730 -0.42900
C 	C 	0.85600 0.46570 0.76190 -0.18300
H 	H 	0.86770 0.49680 0.78160 0.09400
C 	C 	0.82160 0.44880 0.70440 0.08900
H 	H 	0.80990 0.46820 0.68460 0.01100
O 	O 	0.66030 0.41030 0.58730 -0.42900
C 	C 	0.53430 0.39030 0.76190 -0.18300
H 	H 	0.50320 0.37090 0.78160 0.09300
C 	C 	0.55120 0.37280 0.70440 0.08900
H 	H 	0.53180 0.34170 0.68460 0.01000
O 	O 	0.58970 0.25000 0.58730 -0.42900
C 	C 	0.60970 0.14400 0.76190 -0.18400
H 	H 	0.62910 0.13230 0.78160 0.09300
C 	C 	0.62720 0.17840 0.70440 0.08900
H 	H 	0.65830 0.19010 0.68460 0.01000
O 	O 	0.25000 0.66030 0.58730 -0.42900
C 	C 	0.14400 0.53430 0.76190 -0.18400
H 	H 	0.13230 0.50320 0.78160 0.09300
C 	C 	0.17840 0.55120 0.70440 0.08900
H 	H 	0.19010 0.53180 0.68460 0.01000
O 	O 	0.33970 0.58970 0.58730 -0.42900
C 	C 	0.46570 0.60970 0.76190 -0.18300
H 	H 	0.49680 0.62910 0.78160 0.09400
C 	C 	0.44880 0.62720 0.70440 0.08900
H 	H 	0.46820 0.65830 0.68460 0.01100
O 	O 	0.41030 0.75000 0.58730 -0.42900
C 	C 	0.39030 0.85600 0.76190 -0.18300
H 	H 	0.37090 0.86770 0.78160 0.09400
C 	C 	0.37280 0.82160 0.70440 0.08900
H 	H 	0.34170 0.80990 0.68460 0.01100
O 	O 	0.33970 0.75000 0.41270 -0.43000
C 	C 	0.46570 0.85600 0.23810 -0.18500
H 	H 	0.49680 0.86770 0.21840 0.09100
C 	C 	0.44880 0.82160 0.29560 0.08900
H 	H 	0.46820 0.80990 0.31540 0.00900
O 	O 	0.41030 0.66030 0.41270 -0.43000
C 	C 	0.39030 0.53430 0.23810 -0.18500
H 	H 	0.37090 0.50320 0.21840 0.09000
C 	C 	0.37280 0.55120 0.29560 0.08800
H 	H 	0.34170 0.53180 0.31540 0.00900
O 	O 	0.25000 0.58970 0.41270 -0.43000
C 	C 	0.14400 0.60970 0.23810 -0.18600
H 	H 	0.13230 0.62910 0.21840 0.09000
C 	C 	0.17840 0.62720 0.29560 0.08900
H 	H 	0.19010 0.65830 0.31540 0.00900
O 	O 	0.66030 0.25000 0.41270 -0.43000
C 	C 	0.53430 0.14400 0.23810 -0.18600
H 	H 	0.50320 0.13230 0.21840 0.09000
C 	C 	0.55120 0.17840 0.29560 0.08800
H 	H 	0.53180 0.19010 0.31540 0.00800
O 	O 	0.58970 0.33970 0.41270 -0.43000
C 	C 	0.60970 0.46570 0.23810 -0.18500
H 	H 	0.62910 0.49680 0.21840 0.09000
C 	C 	0.62720 0.44880 0.29560 0.08800
H 	H 	0.65830 0.46820 0.31540 0.00900
O 	O 	0.75000 0.41030 0.41270 -0.43000
C 	C 	0.85600 0.39030 0.23810 -0.18500
H 	H 	0.86770 0.37090 0.21840 0.09000
C 	C 	0.82160 0.37280 0.29560 0.08900
H 	H 	0.80990 0.34170 0.31540 0.00900
Ni	Ni	0.29720 0.70280 0.50000 1.11900
Ni	Ni	0.29720 0.59440 0.50000 1.11900
Ni	Ni	0.40560 0.70280 0.50000 1.11900
Ni	Ni	0.70280 0.29720 0.50000 1.11900
Ni	Ni	0.70280 0.40560 0.50000 1.11900
Ni	Ni	0.59440 0.29720 0.50000 1.11900
C 	C 	0.10260 0.55130 0.06670 0.12000
C 	C 	0.03900 0.51950 0.16730 0.11100
C 	C 	0.08750 0.54375 0.14420 -0.17200
C 	C 	0.02470 0.51235 0.24640 -0.10500
H 	H 	0.04470 0.52235 0.29100 0.06800
C 	C 	0.14970 0.57485 0.04230 -0.13800
H 	H 	0.17680 0.58840 0.07530 0.07700
C 	C 	0.12540 0.56270 0.20750 0.14100
C 	C 	0.19640 0.59820 0.32500 -0.14300
C 	C 	0.23710 0.61855 0.38990 0.40200
C 	C 	0.44870 0.55130 0.06670 0.12000
C 	C 	0.48050 0.51950 0.16730 0.10800
C 	C 	0.45625 0.54375 0.14420 -0.17100
C 	C 	0.48765 0.51235 0.24640 -0.09500
H 	H 	0.47765 0.52235 0.29100 0.06500
C 	C 	0.42515 0.57485 0.04230 -0.13800
H 	H 	0.41160 0.58840 0.07530 0.07700
C 	C 	0.43730 0.56270 0.20750 0.14000
C 	C 	0.40180 0.59820 0.32500 -0.14300
C 	C 	0.38145 0.61855 0.38990 0.40200
C 	C 	0.44870 0.89740 0.06670 0.12000
C 	C 	0.48050 0.96100 0.16730 0.11000
C 	C 	0.45625 0.91250 0.14420 -0.17000
C 	C 	0.48765 0.97530 0.24640 -0.08500
H 	H 	0.47765 0.95530 0.29100 0.06300
C 	C 	0.42515 0.85030 0.04230 -0.13700
H 	H 	0.41160 0.82320 0.07530 0.07700
C 	C 	0.43730 0.87460 0.20750 0.14000
C 	C 	0.40180 0.80360 0.32500 -0.14300
C 	C 	0.38145 0.76290 0.38990 0.40200
C 	C 	0.89740 0.44870 0.06670 0.12000
C 	C 	0.96100 0.48050 0.16730 0.11000
C 	C 	0.91250 0.45625 0.14420 -0.17000
C 	C 	0.97530 0.48765 0.24640 -0.08500
H 	H 	0.95530 0.47765 0.29100 0.06300
C 	C 	0.85030 0.42515 0.04230 -0.13700
H 	H 	0.82320 0.41160 0.07530 0.07700
C 	C 	0.87460 0.43730 0.20750 0.14000
C 	C 	0.80360 0.40180 0.32500 -0.14300
C 	C 	0.76290 0.38145 0.38990 0.40200
C 	C 	0.55130 0.44870 0.06670 0.12000
C 	C 	0.51950 0.48050 0.16730 0.10800
C 	C 	0.54375 0.45625 0.14420 -0.17100
C 	C 	0.51235 0.48765 0.24640 -0.09500
H 	H 	0.52235 0.47765 0.29100 0.06500
C 	C 	0.57485 0.42515 0.04230 -0.13800
H 	H 	0.58840 0.41160 0.07530 0.07700
C 	C 	0.56270 0.43730 0.20750 0.14000
C 	C 	0.59820 0.40180 0.32500 -0.14300
C 	C 	0.61855 0.38145 0.38990 0.40200
C 	C 	0.55130 0.10260 0.06670 0.12000
C 	C 	0.51950 0.03900 0.16730 0.11100
C 	C 	0.54375 0.08750 0.14420 -0.17200
C 	C 	0.51235 0.02470 0.24640 -0.10500
H 	H 	0.52235 0.04470 0.29100 0.06800
C 	C 	0.57485 0.14970 0.04230 -0.13800
H 	H 	0.58840 0.17680 0.07530 0.07700
C 	C 	0.56270 0.12540 0.20750 0.14100
C 	C 	0.59820 0.19640 0.32500 -0.14300
C 	C 	0.61855 0.23710 0.38990 0.40200
C 	C 	0.55130 0.10260 0.93330 0.11700
C 	C 	0.51950 0.03900 0.83270 0.11300
C 	C 	0.54375 0.08750 0.85580 -0.16400
C 	C 	0.51235 0.02470 0.75360 -0.10300
H 	H 	0.52235 0.04470 0.70900 0.06800
C 	C 	0.57485 0.14970 0.95770 -0.05800
H 	H 	0.58840 0.17680 0.92470 0.05900
C 	C 	0.56270 0.12540 0.79250 0.14000
C 	C 	0.59820 0.19640 0.67500 -0.14100
C 	C 	0.61855 0.23710 0.61010 0.40300
C 	C 	0.55130 0.44870 0.93330 0.11600
C 	C 	0.51950 0.48050 0.83270 0.11000
C 	C 	0.54375 0.45625 0.85580 -0.16300
C 	C 	0.51235 0.48765 0.75360 -0.09400
H 	H 	0.52235 0.47765 0.70900 0.06600
C 	C 	0.57485 0.42515 0.95770 -0.05700
H 	H 	0.58840 0.41160 0.92470 0.05900
C 	C 	0.56270 0.43730 0.79250 0.13900
C 	C 	0.59820 0.40180 0.67500 -0.14100
C 	C 	0.61855 0.38145 0.61010 0.40300
C 	C 	0.89740 0.44870 0.93330 0.11700
C 	C 	0.96100 0.48050 0.83270 0.11200
C 	C 	0.91250 0.45625 0.85580 -0.16200
C 	C 	0.97530 0.48765 0.75360 -0.08500
H 	H 	0.95530 0.47765 0.70900 0.06400
C 	C 	0.85030 0.42515 0.95770 -0.05800
H 	H 	0.82320 0.41160 0.92470 0.05900
C 	C 	0.87460 0.43730 0.79250 0.13900
C 	C 	0.80360 0.40180 0.67500 -0.14100
C 	C 	0.76290 0.38145 0.61010 0.40300
C 	C 	0.44870 0.89740 0.93330 0.11700
C 	C 	0.48050 0.96100 0.83270 0.11200
C 	C 	0.45625 0.91250 0.85580 -0.16200
C 	C 	0.48765 0.97530 0.75360 -0.08500
H 	H 	0.47765 0.95530 0.70900 0.06400
C 	C 	0.42515 0.85030 0.95770 -0.05800
H 	H 	0.41160 0.82320 0.92470 0.05900
C 	C 	0.43730 0.87460 0.79250 0.13900
C 	C 	0.40180 0.80360 0.67500 -0.14100
C 	C 	0.38145 0.76290 0.61010 0.40300
C 	C 	0.44870 0.55130 0.93330 0.11600
C 	C 	0.48050 0.51950 0.83270 0.11000
C 	C 	0.45625 0.54375 0.85580 -0.16300
C 	C 	0.48765 0.51235 0.75360 -0.09400
H 	H 	0.47765 0.52235 0.70900 0.06600
C 	C 	0.42515 0.57485 0.95770 -0.05700
H 	H 	0.41160 0.58840 0.92470 0.05900
C 	C 	0.43730 0.56270 0.79250 0.13900
C 	C 	0.40180 0.59820 0.67500 -0.14100
C 	C 	0.38145 0.61855 0.61010 0.40300
C 	C 	0.10260 0.55130 0.93330 0.11700
C 	C 	0.03900 0.51950 0.83270 0.11300
C 	C 	0.08750 0.54375 0.85580 -0.16400
C 	C 	0.02470 0.51235 0.75360 -0.10300
H 	H 	0.04470 0.52235 0.70900 0.06800
C 	C 	0.14970 0.57485 0.95770 -0.05800
H 	H 	0.17680 0.58840 0.92470 0.05900
C 	C 	0.12540 0.56270 0.79250 0.14000
C 	C 	0.19640 0.59820 0.67500 -0.14100
C 	C 	0.23710 0.61855 0.61010 0.40300
N 	N 	0.07160 0.53580 -0.00000 -0.29900
N 	N 	0.46420 0.53580 -0.00000 -0.29800
N 	N 	0.46420 0.92840 -0.00000 -0.29700
N 	N 	0.92840 0.46420 -0.00000 -0.29700
N 	N 	0.53580 0.46420 -0.00000 -0.29800
N 	N 	0.53580 0.07160 -0.00000 -0.29900
Co	Co	-0.00000 0.50000 -0.00000 1.10100
Co	Co	0.50000 0.50000 -0.00000 1.10200
Co	Co	0.50000 0.00000 -0.00000 1.10100
O 	O 	0.33333 0.66667 0.50000 -0.56400
O 	O 	0.66667 0.33333 0.50000 -0.56400
N 	N 	-0.00000 0.50000 0.11550 -0.30200
N 	N 	0.50000 0.50000 0.11550 -0.29900
N 	N 	0.50000 -0.00000 0.11550 -0.30200
N 	N 	0.50000 -0.00000 0.88450 -0.29300
N 	N 	0.50000 0.50000 0.88450 -0.29000
N 	N 	-0.00000 0.50000 0.88450 -0.29300
