data_crystal

_cell_length_a 32.47710
_cell_length_b 32.47710
_cell_length_c 16.75590
_cell_angle_alpha 90.00000
_cell_angle_beta  90.00000
_cell_angle_gamma 120.00000

_symmetry_space_group_name_	'P 1'
_symmetry_space_group_name_H-M	'P 1'

loop_
_symmetry_equiv_pos_as_xyz
  x,y,z

loop_
_atom_site_label
_atom_site_type_symbol
_atom_site_fract_x
_atom_site_fract_y
_atom_site_fract_z
_atom_site_charge
O 	O 	0.75208 0.34180 0.59110 -0.46500
C 	C 	0.82380 0.37450 0.70410 0.08400
H 	H 	0.81280 0.34440 0.68300 0.01100
C 	C 	0.85850 0.39160 0.76420 -0.17000
H 	H 	0.86960 0.37230 0.78460 0.09300
O 	O 	0.65820 0.41028 0.59110 -0.46500
C 	C 	0.62550 0.44930 0.70410 0.08300
H 	H 	0.65560 0.46840 0.68300 0.01000
C 	C 	0.60840 0.46690 0.76420 -0.17100
H 	H 	0.62770 0.49730 0.78460 0.09300
O 	O 	0.58972 0.24792 0.59110 -0.46600
C 	C 	0.55070 0.17620 0.70410 0.08300
H 	H 	0.53160 0.18720 0.68300 0.01000
C 	C 	0.53310 0.14150 0.76420 -0.17100
H 	H 	0.50270 0.13040 0.78460 0.09300
O 	O 	0.24792 0.65820 0.59110 -0.46600
C 	C 	0.17620 0.62550 0.70410 0.08300
H 	H 	0.18720 0.65560 0.68300 0.01000
C 	C 	0.14150 0.60840 0.76420 -0.17100
H 	H 	0.13040 0.62770 0.78460 0.09300
O 	O 	0.34180 0.58972 0.59110 -0.46600
C 	C 	0.37450 0.55070 0.70410 0.08300
H 	H 	0.34440 0.53160 0.68300 0.01000
C 	C 	0.39160 0.53310 0.76420 -0.17100
H 	H 	0.37230 0.50270 0.78460 0.09300
O 	O 	0.41028 0.75208 0.59110 -0.46600
C 	C 	0.44930 0.82380 0.70410 0.08300
H 	H 	0.46840 0.81280 0.68300 0.01000
C 	C 	0.46690 0.85850 0.76420 -0.17100
H 	H 	0.49730 0.86960 0.78460 0.09200
O 	O 	0.34180 0.75208 0.40890 -0.46600
C 	C 	0.37450 0.82380 0.29590 0.08300
H 	H 	0.34440 0.81280 0.31700 0.01000
C 	C 	0.39160 0.85850 0.23580 -0.17100
H 	H 	0.37230 0.86960 0.21540 0.09200
O 	O 	0.41028 0.65820 0.40890 -0.46600
C 	C 	0.44930 0.62550 0.29590 0.08300
H 	H 	0.46840 0.65560 0.31700 0.01000
C 	C 	0.46690 0.60840 0.23580 -0.17100
H 	H 	0.49730 0.62770 0.21540 0.09200
O 	O 	0.24792 0.58972 0.40890 -0.46600
C 	C 	0.17620 0.55070 0.29590 0.08300
H 	H 	0.18720 0.53160 0.31700 0.01000
C 	C 	0.14150 0.53310 0.23580 -0.17100
H 	H 	0.13040 0.50270 0.21540 0.09200
O 	O 	0.65820 0.24792 0.40890 -0.46600
C 	C 	0.62550 0.17620 0.29590 0.08300
H 	H 	0.65560 0.18720 0.31700 0.01000
C 	C 	0.60840 0.14150 0.23580 -0.17100
H 	H 	0.62770 0.13040 0.21540 0.09200
O 	O 	0.58972 0.34180 0.40890 -0.46600
C 	C 	0.55070 0.37450 0.29590 0.08300
H 	H 	0.53160 0.34440 0.31700 0.01000
C 	C 	0.53310 0.39160 0.23580 -0.17100
H 	H 	0.50270 0.37230 0.21540 0.09200
O 	O 	0.75208 0.41028 0.40890 -0.46600
C 	C 	0.82380 0.44930 0.29590 0.08300
H 	H 	0.81280 0.46840 0.31700 0.01000
C 	C 	0.85850 0.46690 0.23580 -0.17100
H 	H 	0.86960 0.49730 0.21540 0.09200
O 	O 	0.24792 0.65820 0.40890 -0.46600
C 	C 	0.17620 0.62550 0.29590 0.08300
H 	H 	0.18720 0.65560 0.31700 0.01000
C 	C 	0.14150 0.60840 0.23580 -0.17100
H 	H 	0.13040 0.62770 0.21540 0.09200
O 	O 	0.34180 0.58972 0.40890 -0.46600
C 	C 	0.37450 0.55070 0.29590 0.08300
H 	H 	0.34440 0.53160 0.31700 0.01000
C 	C 	0.39160 0.53310 0.23580 -0.17100
H 	H 	0.37230 0.50270 0.21540 0.09200
O 	O 	0.41028 0.75208 0.40890 -0.46600
C 	C 	0.44930 0.82380 0.29590 0.08300
H 	H 	0.46840 0.81280 0.31700 0.01000
C 	C 	0.46690 0.85850 0.23580 -0.17100
H 	H 	0.49730 0.86960 0.21540 0.09200
O 	O 	0.75208 0.34180 0.40890 -0.46600
C 	C 	0.82380 0.37450 0.29590 0.08300
H 	H 	0.81280 0.34440 0.31700 0.01000
C 	C 	0.85850 0.39160 0.23580 -0.17100
H 	H 	0.86960 0.37230 0.21540 0.09200
O 	O 	0.65820 0.41028 0.40890 -0.46600
C 	C 	0.62550 0.44930 0.29590 0.08300
H 	H 	0.65560 0.46840 0.31700 0.01000
C 	C 	0.60840 0.46690 0.23580 -0.17100
H 	H 	0.62770 0.49730 0.21540 0.09200
O 	O 	0.58972 0.24792 0.40890 -0.46600
C 	C 	0.55070 0.17620 0.29590 0.08300
H 	H 	0.53160 0.18720 0.31700 0.01000
C 	C 	0.53310 0.14150 0.23580 -0.17100
H 	H 	0.50270 0.13040 0.21540 0.09200
O 	O 	0.65820 0.24792 0.59110 -0.46600
C 	C 	0.62550 0.17620 0.70410 0.08300
H 	H 	0.65560 0.18720 0.68300 0.01000
C 	C 	0.60840 0.14150 0.76420 -0.17100
H 	H 	0.62770 0.13040 0.78460 0.09300
O 	O 	0.58972 0.34180 0.59110 -0.46600
C 	C 	0.55070 0.37450 0.70410 0.08300
H 	H 	0.53160 0.34440 0.68300 0.01000
C 	C 	0.53310 0.39160 0.76420 -0.17100
H 	H 	0.50270 0.37230 0.78460 0.09300
O 	O 	0.75208 0.41028 0.59110 -0.46600
C 	C 	0.82380 0.44930 0.70410 0.08300
H 	H 	0.81280 0.46840 0.68300 0.01000
C 	C 	0.85850 0.46690 0.76420 -0.17100
H 	H 	0.86960 0.49730 0.78460 0.09200
O 	O 	0.34180 0.75208 0.59110 -0.46600
C 	C 	0.37450 0.82380 0.70410 0.08300
H 	H 	0.34440 0.81280 0.68300 0.01000
C 	C 	0.39160 0.85850 0.76420 -0.17100
H 	H 	0.37230 0.86960 0.78460 0.09200
O 	O 	0.41028 0.65820 0.59110 -0.46600
C 	C 	0.44930 0.62550 0.70410 0.08300
H 	H 	0.46840 0.65560 0.68300 0.01000
C 	C 	0.46690 0.60840 0.76420 -0.17100
H 	H 	0.49730 0.62770 0.78460 0.09300
O 	O 	0.24792 0.58972 0.59110 -0.46600
C 	C 	0.17620 0.55070 0.70410 0.08300
H 	H 	0.18720 0.53160 0.68300 0.01000
C 	C 	0.14150 0.53310 0.76420 -0.17100
H 	H 	0.13040 0.50270 0.78460 0.09300
N 	N 	0.93110 0.46555 -0.00000 -0.21900
N 	N 	0.53445 0.46555 -0.00000 -0.21900
N 	N 	0.53445 0.06890 -0.00000 -0.21900
N 	N 	0.06890 0.53445 -0.00000 -0.21900
N 	N 	0.46555 0.53445 -0.00000 -0.21900
N 	N 	0.46555 0.93110 -0.00000 -0.21900
Co	Co	-0.00000 0.49051 -0.00000 0.99500
O 	O 	0.00000 0.46070 -0.00000 -1.12700
O 	O 	0.00000 0.43060 -0.00000 0.35300
Co	Co	0.50949 0.50949 -0.00000 0.99500
O 	O 	0.53930 0.53930 -0.00000 -1.12700
O 	O 	0.56940 0.56940 -0.00000 0.35300
Co	Co	0.49051 0.00000 -0.00000 0.99500
O 	O 	0.46070 0.00000 -0.00000 -1.12700
O 	O 	0.43060 0.00000 -0.00000 0.35300
Co	Co	0.00000 0.50949 -0.00000 0.99500
O 	O 	0.00000 0.53930 -0.00000 -1.12700
O 	O 	0.00000 0.56940 -0.00000 0.35300
Co	Co	0.49051 0.49051 -0.00000 0.99500
O 	O 	0.46070 0.46070 -0.00000 -1.12700
O 	O 	0.43060 0.43060 -0.00000 0.35300
Co	Co	0.50949 0.00000 -0.00000 0.99500
O 	O 	0.53930 0.00000 -0.00000 -1.12700
O 	O 	0.56940 0.00000 -0.00000 0.35300
N 	N 	0.00000 0.50000 0.88570 -0.22300
N 	N 	0.50000 0.50000 0.88570 -0.22300
N 	N 	0.50000 0.00000 0.88570 -0.22300
N 	N 	0.50000 0.00000 0.11430 -0.22300
N 	N 	0.50000 0.50000 0.11430 -0.22300
N 	N 	-0.00000 0.50000 0.11430 -0.22300
C 	C 	0.76570 0.38285 0.61420 0.43200
C 	C 	0.80550 0.40275 0.67600 -0.15600
C 	C 	0.87660 0.43830 0.79350 0.12900
C 	C 	0.91410 0.45705 0.85560 -0.13800
C 	C 	0.96120 0.48060 0.83230 0.12100
C 	C 	0.90000 0.45000 0.93310 0.12200
C 	C 	0.97680 0.48840 0.75240 -0.08500
H 	H 	0.95740 0.47870 0.70750 0.06400
C 	C 	0.85210 0.42605 0.95830 -0.08600
H 	H 	0.82540 0.41270 0.92540 0.06600
C 	C 	0.61715 0.38285 0.61420 0.43200
C 	C 	0.59725 0.40275 0.67600 -0.15600
C 	C 	0.56170 0.43830 0.79350 0.12900
C 	C 	0.54295 0.45705 0.85560 -0.13800
C 	C 	0.51940 0.48060 0.83230 0.12100
C 	C 	0.55000 0.45000 0.93310 0.12200
C 	C 	0.51160 0.48840 0.75240 -0.08400
H 	H 	0.52130 0.47870 0.70750 0.06400
C 	C 	0.57395 0.42605 0.95830 -0.08600
H 	H 	0.58730 0.41270 0.92540 0.06600
C 	C 	0.61715 0.23430 0.61420 0.43200
C 	C 	0.59725 0.19450 0.67600 -0.15600
C 	C 	0.56170 0.12340 0.79350 0.12900
C 	C 	0.54295 0.08590 0.85560 -0.13800
C 	C 	0.51940 0.03880 0.83230 0.12100
C 	C 	0.55000 0.10000 0.93310 0.12200
C 	C 	0.51160 0.02320 0.75240 -0.08400
H 	H 	0.52130 0.04260 0.70750 0.06300
C 	C 	0.57395 0.14790 0.95830 -0.08600
H 	H 	0.58730 0.17460 0.92540 0.06600
C 	C 	0.23430 0.61715 0.61420 0.43200
C 	C 	0.19450 0.59725 0.67600 -0.15600
C 	C 	0.12340 0.56170 0.79350 0.12900
C 	C 	0.08590 0.54295 0.85560 -0.13800
C 	C 	0.03880 0.51940 0.83230 0.12100
C 	C 	0.10000 0.55000 0.93310 0.12200
C 	C 	0.02320 0.51160 0.75240 -0.08400
H 	H 	0.04260 0.52130 0.70750 0.06300
C 	C 	0.14790 0.57395 0.95830 -0.08600
H 	H 	0.17460 0.58730 0.92540 0.06600
C 	C 	0.38285 0.61715 0.61420 0.43200
C 	C 	0.40275 0.59725 0.67600 -0.15600
C 	C 	0.43830 0.56170 0.79350 0.12900
C 	C 	0.45705 0.54295 0.85560 -0.13800
C 	C 	0.48060 0.51940 0.83230 0.12100
C 	C 	0.45000 0.55000 0.93310 0.12200
C 	C 	0.48840 0.51160 0.75240 -0.08400
H 	H 	0.47870 0.52130 0.70750 0.06400
C 	C 	0.42605 0.57395 0.95830 -0.08600
H 	H 	0.41270 0.58730 0.92540 0.06600
C 	C 	0.38285 0.76570 0.61420 0.43200
C 	C 	0.40275 0.80550 0.67600 -0.15600
C 	C 	0.43830 0.87660 0.79350 0.12900
C 	C 	0.45705 0.91410 0.85560 -0.13800
C 	C 	0.48060 0.96120 0.83230 0.12100
C 	C 	0.45000 0.90000 0.93310 0.12200
C 	C 	0.48840 0.97680 0.75240 -0.08500
H 	H 	0.47870 0.95740 0.70750 0.06400
C 	C 	0.42605 0.85210 0.95830 -0.08600
H 	H 	0.41270 0.82540 0.92540 0.06600
C 	C 	0.38285 0.76570 0.38580 0.43200
C 	C 	0.40275 0.80550 0.32400 -0.15600
C 	C 	0.43830 0.87660 0.20650 0.12900
C 	C 	0.45705 0.91410 0.14440 -0.13800
C 	C 	0.48060 0.96120 0.16770 0.12100
C 	C 	0.45000 0.90000 0.06690 0.12200
C 	C 	0.48840 0.97680 0.24760 -0.08400
H 	H 	0.47870 0.95740 0.29250 0.06400
C 	C 	0.42605 0.85210 0.04170 -0.08700
H 	H 	0.41270 0.82540 0.07460 0.06600
C 	C 	0.38285 0.61715 0.38580 0.43200
C 	C 	0.40275 0.59725 0.32400 -0.15600
C 	C 	0.43830 0.56170 0.20650 0.12900
C 	C 	0.45705 0.54295 0.14440 -0.13800
C 	C 	0.48060 0.51940 0.16770 0.12100
C 	C 	0.45000 0.55000 0.06690 0.12200
C 	C 	0.48840 0.51160 0.24760 -0.08400
H 	H 	0.47870 0.52130 0.29250 0.06400
C 	C 	0.42605 0.57395 0.04170 -0.08700
H 	H 	0.41270 0.58730 0.07460 0.06700
C 	C 	0.23430 0.61715 0.38580 0.43200
C 	C 	0.19450 0.59725 0.32400 -0.15600
C 	C 	0.12340 0.56170 0.20650 0.12900
C 	C 	0.08590 0.54295 0.14440 -0.13800
C 	C 	0.03880 0.51940 0.16770 0.12100
C 	C 	0.10000 0.55000 0.06690 0.12200
C 	C 	0.02320 0.51160 0.24760 -0.08400
H 	H 	0.04260 0.52130 0.29250 0.06400
C 	C 	0.14790 0.57395 0.04170 -0.08700
H 	H 	0.17460 0.58730 0.07460 0.06700
C 	C 	0.61715 0.23430 0.38580 0.43200
C 	C 	0.59725 0.19450 0.32400 -0.15600
C 	C 	0.56170 0.12340 0.20650 0.12900
C 	C 	0.54295 0.08590 0.14440 -0.13800
C 	C 	0.51940 0.03880 0.16770 0.12100
C 	C 	0.55000 0.10000 0.06690 0.12200
C 	C 	0.51160 0.02320 0.24760 -0.08400
H 	H 	0.52130 0.04260 0.29250 0.06400
C 	C 	0.57395 0.14790 0.04170 -0.08700
H 	H 	0.58730 0.17460 0.07460 0.06700
C 	C 	0.61715 0.38285 0.38580 0.43200
C 	C 	0.59725 0.40275 0.32400 -0.15600
C 	C 	0.56170 0.43830 0.20650 0.12900
C 	C 	0.54295 0.45705 0.14440 -0.13800
C 	C 	0.51940 0.48060 0.16770 0.12100
C 	C 	0.55000 0.45000 0.06690 0.12200
C 	C 	0.51160 0.48840 0.24760 -0.08400
H 	H 	0.52130 0.47870 0.29250 0.06400
C 	C 	0.57395 0.42605 0.04170 -0.08700
H 	H 	0.58730 0.41270 0.07460 0.06700
C 	C 	0.76570 0.38285 0.38580 0.43200
C 	C 	0.80550 0.40275 0.32400 -0.15600
C 	C 	0.87660 0.43830 0.20650 0.12900
C 	C 	0.91410 0.45705 0.14440 -0.13800
C 	C 	0.96120 0.48060 0.16770 0.12100
C 	C 	0.90000 0.45000 0.06690 0.12200
C 	C 	0.97680 0.48840 0.24760 -0.08400
H 	H 	0.95740 0.47870 0.29250 0.06400
C 	C 	0.85210 0.42605 0.04170 -0.08700
H 	H 	0.82540 0.41270 0.07460 0.06600
Mn	Mn	0.70372 0.29628 0.50000 1.29900
Mn	Mn	0.70372 0.40744 0.50000 1.29900
Mn	Mn	0.59256 0.29628 0.50000 1.29900
Mn	Mn	0.29628 0.70372 0.50000 1.29900
Mn	Mn	0.29628 0.59256 0.50000 1.29900
Mn	Mn	0.40744 0.70372 0.50000 1.29900
O 	O 	0.66667 0.33333 0.50000 -0.63400
O 	O 	0.33333 0.66667 0.50000 -0.63400
