data_crystal

_cell_length_a 22.03540
_cell_length_b 22.03540
_cell_length_c 22.03540
_cell_angle_alpha 90.00000
_cell_angle_beta  90.00000
_cell_angle_gamma 90.00000

_symmetry_space_group_name_	'P 1'
_symmetry_space_group_name_H-M	'P 1'

loop_
_symmetry_equiv_pos_as_xyz
  x,y,z

loop_
_atom_site_label
_atom_site_type_symbol
_atom_site_fract_x
_atom_site_fract_y
_atom_site_fract_z
_atom_site_charge
Mg	Mg	0.17839 0.23958 0.30571 1.47500
C 	C 	0.98200 0.29410 0.07800 0.07700
C 	C 	0.93060 0.29580 0.11250 -0.04700
H 	H 	0.89320 0.29950 0.09340 0.06900
C 	C 	0.93270 0.29200 0.17490 -0.10000
C 	C 	0.98860 0.28520 0.20170 0.04000
H 	H 	0.99100 0.27960 0.24350 0.03800
C 	C 	0.04210 0.28660 0.16720 -0.09600
C 	C 	0.04020 0.28830 0.10650 -0.03900
H 	H 	0.07550 0.28580 0.08360 0.07000
C 	C 	0.87330 0.29180 0.20790 0.42900
C 	C 	0.10310 0.27790 0.19750 0.41400
O 	O 	0.82760 0.30990 0.17790 -0.51200
O 	O 	0.87390 0.27850 0.26330 -0.50600
O 	O 	0.14890 0.29230 0.16610 -0.49800
O 	O 	0.10520 0.25860 0.25170 -0.49100
N 	N 	0.97650 0.29590 0.01420 -0.08400
Mg	Mg	0.82161 0.76042 0.30571 1.47600
C 	C 	0.01800 0.70590 0.07800 0.07800
C 	C 	0.06940 0.70420 0.11250 -0.04600
H 	H 	0.10680 0.70050 0.09340 0.07000
C 	C 	0.06730 0.70800 0.17490 -0.09900
C 	C 	0.01140 0.71480 0.20170 0.04100
H 	H 	0.00900 0.72040 0.24350 0.03900
C 	C 	0.95790 0.71340 0.16720 -0.09500
C 	C 	0.95980 0.71170 0.10650 -0.03800
H 	H 	0.92450 0.71420 0.08360 0.07100
C 	C 	0.12670 0.70820 0.20790 0.43000
C 	C 	0.89690 0.72210 0.19750 0.41500
O 	O 	0.17240 0.69010 0.17790 -0.51100
O 	O 	0.12610 0.72150 0.26330 -0.50500
O 	O 	0.85110 0.70770 0.16610 -0.49700
O 	O 	0.89480 0.74140 0.25170 -0.49000
N 	N 	0.02350 0.70410 0.01420 -0.08400
Mg	Mg	0.82161 0.23958 0.69429 1.47600
C 	C 	0.01800 0.29410 0.92200 0.07800
C 	C 	0.06940 0.29580 0.88750 -0.04600
H 	H 	0.10680 0.29950 0.90660 0.07000
C 	C 	0.06730 0.29200 0.82510 -0.09900
C 	C 	0.01140 0.28520 0.79830 0.04100
H 	H 	0.00900 0.27960 0.75650 0.03900
C 	C 	0.95790 0.28660 0.83280 -0.09500
C 	C 	0.95980 0.28830 0.89350 -0.03800
H 	H 	0.92450 0.28580 0.91640 0.07100
C 	C 	0.12670 0.29180 0.79210 0.43000
C 	C 	0.89690 0.27790 0.80250 0.41500
O 	O 	0.17240 0.30990 0.82210 -0.51100
O 	O 	0.12610 0.27850 0.73670 -0.50500
O 	O 	0.85110 0.29230 0.83390 -0.49700
O 	O 	0.89480 0.25860 0.74830 -0.49000
N 	N 	0.02350 0.29590 0.98580 -0.08400
Mg	Mg	0.17839 0.76042 0.69429 1.47600
C 	C 	0.98200 0.70590 0.92200 0.07800
C 	C 	0.93060 0.70420 0.88750 -0.04600
H 	H 	0.89320 0.70050 0.90660 0.07000
C 	C 	0.93270 0.70800 0.82510 -0.09900
C 	C 	0.98860 0.71480 0.79830 0.04100
H 	H 	0.99100 0.72040 0.75650 0.03900
C 	C 	0.04210 0.71340 0.83280 -0.09500
C 	C 	0.04020 0.71170 0.89350 -0.03800
H 	H 	0.07550 0.71420 0.91640 0.07100
C 	C 	0.87330 0.70820 0.79210 0.43000
C 	C 	0.10310 0.72210 0.80250 0.41500
O 	O 	0.82760 0.69010 0.82210 -0.51100
O 	O 	0.87390 0.72150 0.73670 -0.50500
O 	O 	0.14890 0.70770 0.83390 -0.49700
O 	O 	0.10520 0.74140 0.74830 -0.49000
N 	N 	0.97650 0.70410 0.98580 -0.08400
Mg	Mg	0.30571 0.17839 0.23958 1.47600
C 	C 	0.07800 0.98200 0.29410 0.07800
C 	C 	0.11250 0.93060 0.29580 -0.04600
H 	H 	0.09340 0.89320 0.29950 0.07000
C 	C 	0.17490 0.93270 0.29200 -0.09900
C 	C 	0.20170 0.98860 0.28520 0.04100
H 	H 	0.24350 0.99100 0.27960 0.03900
C 	C 	0.16720 0.04210 0.28660 -0.09500
C 	C 	0.10650 0.04020 0.28830 -0.03800
H 	H 	0.08360 0.07550 0.28580 0.07100
C 	C 	0.20790 0.87330 0.29180 0.43000
C 	C 	0.19750 0.10310 0.27790 0.41500
O 	O 	0.17790 0.82760 0.30990 -0.51100
O 	O 	0.26330 0.87390 0.27850 -0.50500
O 	O 	0.16610 0.14890 0.29230 -0.49700
O 	O 	0.25170 0.10520 0.25860 -0.49000
N 	N 	0.01420 0.97650 0.29590 -0.08400
Mg	Mg	0.30571 0.82161 0.76042 1.47600
C 	C 	0.07800 0.01800 0.70590 0.07800
C 	C 	0.11250 0.06940 0.70420 -0.04600
H 	H 	0.09340 0.10680 0.70050 0.07000
C 	C 	0.17490 0.06730 0.70800 -0.09900
C 	C 	0.20170 0.01140 0.71480 0.04100
H 	H 	0.24350 0.00900 0.72040 0.03900
C 	C 	0.16720 0.95790 0.71340 -0.09500
C 	C 	0.10650 0.95980 0.71170 -0.03800
H 	H 	0.08360 0.92450 0.71420 0.07100
C 	C 	0.20790 0.12670 0.70820 0.43000
C 	C 	0.19750 0.89690 0.72210 0.41500
O 	O 	0.17790 0.17240 0.69010 -0.51100
O 	O 	0.26330 0.12610 0.72150 -0.50500
O 	O 	0.16610 0.85110 0.70770 -0.49700
O 	O 	0.25170 0.89480 0.74140 -0.49000
N 	N 	0.01420 0.02350 0.70410 -0.08400
Mg	Mg	0.69429 0.82161 0.23958 1.47600
C 	C 	0.92200 0.01800 0.29410 0.07800
C 	C 	0.88750 0.06940 0.29580 -0.04600
H 	H 	0.90660 0.10680 0.29950 0.07000
C 	C 	0.82510 0.06730 0.29200 -0.09900
C 	C 	0.79830 0.01140 0.28520 0.04100
H 	H 	0.75650 0.00900 0.27960 0.03900
C 	C 	0.83280 0.95790 0.28660 -0.09500
C 	C 	0.89350 0.95980 0.28830 -0.03800
H 	H 	0.91640 0.92450 0.28580 0.07100
C 	C 	0.79210 0.12670 0.29180 0.43000
C 	C 	0.80250 0.89690 0.27790 0.41500
O 	O 	0.82210 0.17240 0.30990 -0.51100
O 	O 	0.73670 0.12610 0.27850 -0.50500
O 	O 	0.83390 0.85110 0.29230 -0.49700
O 	O 	0.74830 0.89480 0.25860 -0.49000
N 	N 	0.98580 0.02350 0.29590 -0.08400
Mg	Mg	0.69429 0.17839 0.76042 1.47600
C 	C 	0.92200 0.98200 0.70590 0.07800
C 	C 	0.88750 0.93060 0.70420 -0.04600
H 	H 	0.90660 0.89320 0.70050 0.07000
C 	C 	0.82510 0.93270 0.70800 -0.09900
C 	C 	0.79830 0.98860 0.71480 0.04100
H 	H 	0.75650 0.99100 0.72040 0.03900
C 	C 	0.83280 0.04210 0.71340 -0.09500
C 	C 	0.89350 0.04020 0.71170 -0.03800
H 	H 	0.91640 0.07550 0.71420 0.07100
C 	C 	0.79210 0.87330 0.70820 0.43000
C 	C 	0.80250 0.10310 0.72210 0.41500
O 	O 	0.82210 0.82760 0.69010 -0.51100
O 	O 	0.73670 0.87390 0.72150 -0.50500
O 	O 	0.83390 0.14890 0.70770 -0.49700
O 	O 	0.74830 0.10520 0.74140 -0.49000
N 	N 	0.98580 0.97650 0.70410 -0.08400
Mg	Mg	0.23958 0.30571 0.17839 1.47600
C 	C 	0.29410 0.07800 0.98200 0.07800
C 	C 	0.29580 0.11250 0.93060 -0.04600
H 	H 	0.29950 0.09340 0.89320 0.07000
C 	C 	0.29200 0.17490 0.93270 -0.09900
C 	C 	0.28520 0.20170 0.98860 0.04100
H 	H 	0.27960 0.24350 0.99100 0.03900
C 	C 	0.28660 0.16720 0.04210 -0.09500
C 	C 	0.28830 0.10650 0.04020 -0.03800
H 	H 	0.28580 0.08360 0.07550 0.07100
C 	C 	0.29180 0.20790 0.87330 0.43000
C 	C 	0.27790 0.19750 0.10310 0.41500
O 	O 	0.30990 0.17790 0.82760 -0.51100
O 	O 	0.27850 0.26330 0.87390 -0.50500
O 	O 	0.29230 0.16610 0.14890 -0.49700
O 	O 	0.25860 0.25170 0.10520 -0.49000
N 	N 	0.29590 0.01420 0.97650 -0.08400
Mg	Mg	0.76042 0.30571 0.82161 1.47600
C 	C 	0.70590 0.07800 0.01800 0.07800
C 	C 	0.70420 0.11250 0.06940 -0.04600
H 	H 	0.70050 0.09340 0.10680 0.07000
C 	C 	0.70800 0.17490 0.06730 -0.09900
C 	C 	0.71480 0.20170 0.01140 0.04100
H 	H 	0.72040 0.24350 0.00900 0.03900
C 	C 	0.71340 0.16720 0.95790 -0.09500
C 	C 	0.71170 0.10650 0.95980 -0.03800
H 	H 	0.71420 0.08360 0.92450 0.07100
C 	C 	0.70820 0.20790 0.12670 0.43000
C 	C 	0.72210 0.19750 0.89690 0.41500
O 	O 	0.69010 0.17790 0.17240 -0.51100
O 	O 	0.72150 0.26330 0.12610 -0.50500
O 	O 	0.70770 0.16610 0.85110 -0.49700
O 	O 	0.74140 0.25170 0.89480 -0.49000
N 	N 	0.70410 0.01420 0.02350 -0.08400
Mg	Mg	0.23958 0.69429 0.82161 1.47600
C 	C 	0.29410 0.92200 0.01800 0.07800
C 	C 	0.29580 0.88750 0.06940 -0.04600
H 	H 	0.29950 0.90660 0.10680 0.07000
C 	C 	0.29200 0.82510 0.06730 -0.09900
C 	C 	0.28520 0.79830 0.01140 0.04100
H 	H 	0.27960 0.75650 0.00900 0.03900
C 	C 	0.28660 0.83280 0.95790 -0.09500
C 	C 	0.28830 0.89350 0.95980 -0.03800
H 	H 	0.28580 0.91640 0.92450 0.07100
C 	C 	0.29180 0.79210 0.12670 0.43000
C 	C 	0.27790 0.80250 0.89690 0.41500
O 	O 	0.30990 0.82210 0.17240 -0.51100
O 	O 	0.27850 0.73670 0.12610 -0.50500
O 	O 	0.29230 0.83390 0.85110 -0.49700
O 	O 	0.25860 0.74830 0.89480 -0.49000
N 	N 	0.29590 0.98580 0.02350 -0.08400
Mg	Mg	0.76042 0.69429 0.17839 1.47600
C 	C 	0.70590 0.92200 0.98200 0.07800
C 	C 	0.70420 0.88750 0.93060 -0.04600
H 	H 	0.70050 0.90660 0.89320 0.07000
C 	C 	0.70800 0.82510 0.93270 -0.09900
C 	C 	0.71480 0.79830 0.98860 0.04100
H 	H 	0.72040 0.75650 0.99100 0.03900
C 	C 	0.71340 0.83280 0.04210 -0.09500
C 	C 	0.71170 0.89350 0.04020 -0.03800
H 	H 	0.71420 0.91640 0.07550 0.07100
C 	C 	0.70820 0.79210 0.87330 0.43000
C 	C 	0.72210 0.80250 0.10310 0.41500
O 	O 	0.69010 0.82210 0.82760 -0.51100
O 	O 	0.72150 0.73670 0.87390 -0.50500
O 	O 	0.70770 0.83390 0.14890 -0.49700
O 	O 	0.74140 0.74830 0.10520 -0.49000
N 	N 	0.70410 0.98580 0.97650 -0.08400
Mg	Mg	0.73958 0.67839 0.80571 1.47600
C 	C 	0.79410 0.48200 0.57800 0.07800
C 	C 	0.79580 0.43060 0.61250 -0.04600
H 	H 	0.79950 0.39320 0.59340 0.07000
C 	C 	0.79200 0.43270 0.67490 -0.09900
C 	C 	0.78520 0.48860 0.70170 0.04100
H 	H 	0.77960 0.49100 0.74350 0.03900
C 	C 	0.78660 0.54210 0.66720 -0.09500
C 	C 	0.78830 0.54020 0.60650 -0.03800
H 	H 	0.78580 0.57550 0.58360 0.07100
C 	C 	0.79180 0.37330 0.70790 0.43000
C 	C 	0.77790 0.60310 0.69750 0.41500
O 	O 	0.80990 0.32760 0.67790 -0.51100
O 	O 	0.77850 0.37390 0.76330 -0.50500
O 	O 	0.79230 0.64890 0.66610 -0.49700
O 	O 	0.75860 0.60520 0.75170 -0.49000
N 	N 	0.79590 0.47650 0.51420 -0.08400
Mg	Mg	0.26042 0.32161 0.80571 1.47600
C 	C 	0.20590 0.51800 0.57800 0.07800
C 	C 	0.20420 0.56940 0.61250 -0.04600
H 	H 	0.20050 0.60680 0.59340 0.07000
C 	C 	0.20800 0.56730 0.67490 -0.09900
C 	C 	0.21480 0.51140 0.70170 0.04100
H 	H 	0.22040 0.50900 0.74350 0.03900
C 	C 	0.21340 0.45790 0.66720 -0.09500
C 	C 	0.21170 0.45980 0.60650 -0.03800
H 	H 	0.21420 0.42450 0.58360 0.07100
C 	C 	0.20820 0.62670 0.70790 0.43000
C 	C 	0.22210 0.39690 0.69750 0.41500
O 	O 	0.19010 0.67240 0.67790 -0.51100
O 	O 	0.22150 0.62610 0.76330 -0.50500
O 	O 	0.20770 0.35110 0.66610 -0.49700
O 	O 	0.24140 0.39480 0.75170 -0.49000
N 	N 	0.20410 0.52350 0.51420 -0.08400
Mg	Mg	0.73958 0.32161 0.19429 1.47600
C 	C 	0.79410 0.51800 0.42200 0.07800
C 	C 	0.79580 0.56940 0.38750 -0.04600
H 	H 	0.79950 0.60680 0.40660 0.07000
C 	C 	0.79200 0.56730 0.32510 -0.09900
C 	C 	0.78520 0.51140 0.29830 0.04100
H 	H 	0.77960 0.50900 0.25650 0.03900
C 	C 	0.78660 0.45790 0.33280 -0.09500
C 	C 	0.78830 0.45980 0.39350 -0.03800
H 	H 	0.78580 0.42450 0.41640 0.07100
C 	C 	0.79180 0.62670 0.29210 0.43000
C 	C 	0.77790 0.39690 0.30250 0.41500
O 	O 	0.80990 0.67240 0.32210 -0.51100
O 	O 	0.77850 0.62610 0.23670 -0.50500
O 	O 	0.79230 0.35110 0.33390 -0.49700
O 	O 	0.75860 0.39480 0.24830 -0.49000
N 	N 	0.79590 0.52350 0.48580 -0.08400
Mg	Mg	0.26042 0.67839 0.19429 1.47600
C 	C 	0.20590 0.48200 0.42200 0.07800
C 	C 	0.20420 0.43060 0.38750 -0.04600
H 	H 	0.20050 0.39320 0.40660 0.07000
C 	C 	0.20800 0.43270 0.32510 -0.09900
C 	C 	0.21480 0.48860 0.29830 0.04100
H 	H 	0.22040 0.49100 0.25650 0.03900
C 	C 	0.21340 0.54210 0.33280 -0.09500
C 	C 	0.21170 0.54020 0.39350 -0.03800
H 	H 	0.21420 0.57550 0.41640 0.07100
C 	C 	0.20820 0.37330 0.29210 0.43000
C 	C 	0.22210 0.60310 0.30250 0.41500
O 	O 	0.19010 0.32760 0.32210 -0.51100
O 	O 	0.22150 0.37390 0.23670 -0.50500
O 	O 	0.20770 0.64890 0.33390 -0.49700
O 	O 	0.24140 0.60520 0.24830 -0.49000
N 	N 	0.20410 0.47650 0.48580 -0.08400
Mg	Mg	0.67839 0.80571 0.73958 1.47600
C 	C 	0.48200 0.57800 0.79410 0.07800
C 	C 	0.43060 0.61250 0.79580 -0.04600
H 	H 	0.39320 0.59340 0.79950 0.07000
C 	C 	0.43270 0.67490 0.79200 -0.09900
C 	C 	0.48860 0.70170 0.78520 0.04100
H 	H 	0.49100 0.74350 0.77960 0.03900
C 	C 	0.54210 0.66720 0.78660 -0.09500
C 	C 	0.54020 0.60650 0.78830 -0.03800
H 	H 	0.57550 0.58360 0.78580 0.07100
C 	C 	0.37330 0.70790 0.79180 0.43000
C 	C 	0.60310 0.69750 0.77790 0.41500
O 	O 	0.32760 0.67790 0.80990 -0.51100
O 	O 	0.37390 0.76330 0.77850 -0.50500
O 	O 	0.64890 0.66610 0.79230 -0.49700
O 	O 	0.60520 0.75170 0.75860 -0.49000
N 	N 	0.47650 0.51420 0.79590 -0.08400
Mg	Mg	0.32161 0.80571 0.26042 1.47600
C 	C 	0.51800 0.57800 0.20590 0.07800
C 	C 	0.56940 0.61250 0.20420 -0.04600
H 	H 	0.60680 0.59340 0.20050 0.07000
C 	C 	0.56730 0.67490 0.20800 -0.09900
C 	C 	0.51140 0.70170 0.21480 0.04100
H 	H 	0.50900 0.74350 0.22040 0.03900
C 	C 	0.45790 0.66720 0.21340 -0.09500
C 	C 	0.45980 0.60650 0.21170 -0.03800
H 	H 	0.42450 0.58360 0.21420 0.07100
C 	C 	0.62670 0.70790 0.20820 0.43000
C 	C 	0.39690 0.69750 0.22210 0.41500
O 	O 	0.67240 0.67790 0.19010 -0.51100
O 	O 	0.62610 0.76330 0.22150 -0.50500
O 	O 	0.35110 0.66610 0.20770 -0.49700
O 	O 	0.39480 0.75170 0.24140 -0.49000
N 	N 	0.52350 0.51420 0.20410 -0.08400
Mg	Mg	0.32161 0.19429 0.73958 1.47600
C 	C 	0.51800 0.42200 0.79410 0.07800
C 	C 	0.56940 0.38750 0.79580 -0.04600
H 	H 	0.60680 0.40660 0.79950 0.07000
C 	C 	0.56730 0.32510 0.79200 -0.09900
C 	C 	0.51140 0.29830 0.78520 0.04100
H 	H 	0.50900 0.25650 0.77960 0.03900
C 	C 	0.45790 0.33280 0.78660 -0.09500
C 	C 	0.45980 0.39350 0.78830 -0.03800
H 	H 	0.42450 0.41640 0.78580 0.07100
C 	C 	0.62670 0.29210 0.79180 0.43000
C 	C 	0.39690 0.30250 0.77790 0.41500
O 	O 	0.67240 0.32210 0.80990 -0.51100
O 	O 	0.62610 0.23670 0.77850 -0.50500
O 	O 	0.35110 0.33390 0.79230 -0.49700
O 	O 	0.39480 0.24830 0.75860 -0.49000
N 	N 	0.52350 0.48580 0.79590 -0.08400
Mg	Mg	0.67839 0.19429 0.26042 1.47600
C 	C 	0.48200 0.42200 0.20590 0.07800
C 	C 	0.43060 0.38750 0.20420 -0.04600
H 	H 	0.39320 0.40660 0.20050 0.07000
C 	C 	0.43270 0.32510 0.20800 -0.09900
C 	C 	0.48860 0.29830 0.21480 0.04100
H 	H 	0.49100 0.25650 0.22040 0.03900
C 	C 	0.54210 0.33280 0.21340 -0.09500
C 	C 	0.54020 0.39350 0.21170 -0.03800
H 	H 	0.57550 0.41640 0.21420 0.07100
C 	C 	0.37330 0.29210 0.20820 0.43000
C 	C 	0.60310 0.30250 0.22210 0.41500
O 	O 	0.32760 0.32210 0.19010 -0.51100
O 	O 	0.37390 0.23670 0.22150 -0.50500
O 	O 	0.64890 0.33390 0.20770 -0.49700
O 	O 	0.60520 0.24830 0.24140 -0.49000
N 	N 	0.47650 0.48580 0.20410 -0.08400
Mg	Mg	0.80571 0.73958 0.67839 1.47600
C 	C 	0.57800 0.79410 0.48200 0.07800
C 	C 	0.61250 0.79580 0.43060 -0.04600
H 	H 	0.59340 0.79950 0.39320 0.07000
C 	C 	0.67490 0.79200 0.43270 -0.09900
C 	C 	0.70170 0.78520 0.48860 0.04100
H 	H 	0.74350 0.77960 0.49100 0.03900
C 	C 	0.66720 0.78660 0.54210 -0.09500
C 	C 	0.60650 0.78830 0.54020 -0.03800
H 	H 	0.58360 0.78580 0.57550 0.07100
C 	C 	0.70790 0.79180 0.37330 0.43000
C 	C 	0.69750 0.77790 0.60310 0.41500
O 	O 	0.67790 0.80990 0.32760 -0.51100
O 	O 	0.76330 0.77850 0.37390 -0.50500
O 	O 	0.66610 0.79230 0.64890 -0.49700
O 	O 	0.75170 0.75860 0.60520 -0.49000
N 	N 	0.51420 0.79590 0.47650 -0.08400
Mg	Mg	0.80571 0.26042 0.32161 1.47600
C 	C 	0.57800 0.20590 0.51800 0.07800
C 	C 	0.61250 0.20420 0.56940 -0.04600
H 	H 	0.59340 0.20050 0.60680 0.07000
C 	C 	0.67490 0.20800 0.56730 -0.09900
C 	C 	0.70170 0.21480 0.51140 0.04100
H 	H 	0.74350 0.22040 0.50900 0.03900
C 	C 	0.66720 0.21340 0.45790 -0.09500
C 	C 	0.60650 0.21170 0.45980 -0.03800
H 	H 	0.58360 0.21420 0.42450 0.07100
C 	C 	0.70790 0.20820 0.62670 0.43000
C 	C 	0.69750 0.22210 0.39690 0.41500
O 	O 	0.67790 0.19010 0.67240 -0.51100
O 	O 	0.76330 0.22150 0.62610 -0.50500
O 	O 	0.66610 0.20770 0.35110 -0.49700
O 	O 	0.75170 0.24140 0.39480 -0.49000
N 	N 	0.51420 0.20410 0.52350 -0.08400
Mg	Mg	0.19429 0.73958 0.32161 1.47600
C 	C 	0.42200 0.79410 0.51800 0.07800
C 	C 	0.38750 0.79580 0.56940 -0.04600
H 	H 	0.40660 0.79950 0.60680 0.07000
C 	C 	0.32510 0.79200 0.56730 -0.09900
C 	C 	0.29830 0.78520 0.51140 0.04100
H 	H 	0.25650 0.77960 0.50900 0.03900
C 	C 	0.33280 0.78660 0.45790 -0.09500
C 	C 	0.39350 0.78830 0.45980 -0.03800
H 	H 	0.41640 0.78580 0.42450 0.07100
C 	C 	0.29210 0.79180 0.62670 0.43000
C 	C 	0.30250 0.77790 0.39690 0.41500
O 	O 	0.32210 0.80990 0.67240 -0.51100
O 	O 	0.23670 0.77850 0.62610 -0.50500
O 	O 	0.33390 0.79230 0.35110 -0.49700
O 	O 	0.24830 0.75860 0.39480 -0.49000
N 	N 	0.48580 0.79590 0.52350 -0.08400
Mg	Mg	0.19429 0.26042 0.67839 1.47600
C 	C 	0.42200 0.20590 0.48200 0.07800
C 	C 	0.38750 0.20420 0.43060 -0.04600
H 	H 	0.40660 0.20050 0.39320 0.07000
C 	C 	0.32510 0.20800 0.43270 -0.09900
C 	C 	0.29830 0.21480 0.48860 0.04100
H 	H 	0.25650 0.22040 0.49100 0.03900
C 	C 	0.33280 0.21340 0.54210 -0.09500
C 	C 	0.39350 0.21170 0.54020 -0.03800
H 	H 	0.41640 0.21420 0.57550 0.07100
C 	C 	0.29210 0.20820 0.37330 0.43000
C 	C 	0.30250 0.22210 0.60310 0.41500
O 	O 	0.32210 0.19010 0.32760 -0.51100
O 	O 	0.23670 0.22150 0.37390 -0.50500
O 	O 	0.33390 0.20770 0.64890 -0.49700
O 	O 	0.24830 0.24140 0.60520 -0.49000
N 	N 	0.48580 0.20410 0.47650 -0.08400
O 	O 	0.24150 0.24150 0.24150 -0.76300
O 	O 	0.75850 0.75850 0.24150 -0.76300
O 	O 	0.75850 0.24150 0.75850 -0.76300
O 	O 	0.24150 0.75850 0.75850 -0.76300
O 	O 	0.74150 0.74150 0.74150 -0.76300
O 	O 	0.25850 0.25850 0.74150 -0.76300
O 	O 	0.74150 0.25850 0.25850 -0.76300
O 	O 	0.25850 0.74150 0.25850 -0.76300
