data_crystal

_cell_length_a 31.35000
_cell_length_b 31.35000
_cell_length_c 16.91030
_cell_angle_alpha 90.00000
_cell_angle_beta  90.00000
_cell_angle_gamma 120.00000

_symmetry_space_group_name_	'P 1'
_symmetry_space_group_name_H-M	'P 1'

loop_
_symmetry_equiv_pos_as_xyz
  x,y,z

loop_
_atom_site_label
_atom_site_type_symbol
_atom_site_fract_x
_atom_site_fract_y
_atom_site_fract_z
_atom_site_charge
O 	O 	0.25030 0.66050 0.41530 -0.45300
C 	C 	0.14590 0.53530 0.23620 -0.23400
H 	H 	0.13440 0.50380 0.21580 0.10500
C 	C 	0.18070 0.55250 0.29490 0.14200
H 	H 	0.19250 0.53270 0.31490 -0.01100
O 	O 	0.33950 0.58980 0.41530 -0.45200
C 	C 	0.46470 0.61060 0.23620 -0.23300
H 	H 	0.49620 0.63060 0.21580 0.10500
C 	C 	0.44750 0.62820 0.29490 0.14100
H 	H 	0.46730 0.65980 0.31490 -0.01000
O 	O 	0.41020 0.74970 0.41530 -0.45200
C 	C 	0.38940 0.85410 0.23620 -0.23300
H 	H 	0.36940 0.86560 0.21580 0.10500
C 	C 	0.37180 0.81930 0.29490 0.14200
H 	H 	0.34020 0.80750 0.31490 -0.01000
O 	O 	0.74970 0.33950 0.41530 -0.45200
C 	C 	0.85410 0.46470 0.23620 -0.23300
H 	H 	0.86560 0.49620 0.21580 0.10600
C 	C 	0.81930 0.44750 0.29490 0.14200
H 	H 	0.80750 0.46730 0.31490 -0.01000
O 	O 	0.66050 0.41020 0.41530 -0.45200
C 	C 	0.53530 0.38940 0.23620 -0.23300
H 	H 	0.50380 0.36940 0.21580 0.10500
C 	C 	0.55250 0.37180 0.29490 0.14100
H 	H 	0.53270 0.34020 0.31490 -0.01100
O 	O 	0.58980 0.25030 0.41530 -0.45300
C 	C 	0.61060 0.14590 0.23620 -0.23400
H 	H 	0.63060 0.13440 0.21580 0.10500
C 	C 	0.62820 0.18070 0.29490 0.14200
H 	H 	0.65980 0.19250 0.31490 -0.01100
O 	O 	0.66050 0.25030 0.58470 -0.45200
C 	C 	0.53530 0.14590 0.76380 -0.23100
H 	H 	0.50380 0.13440 0.78420 0.10800
C 	C 	0.55250 0.18070 0.70510 0.14200
H 	H 	0.53270 0.19250 0.68510 -0.00900
O 	O 	0.58980 0.33950 0.58470 -0.45200
C 	C 	0.61060 0.46470 0.76380 -0.23100
H 	H 	0.63060 0.49620 0.78420 0.10900
C 	C 	0.62820 0.44750 0.70510 0.14200
H 	H 	0.65980 0.46730 0.68510 -0.00800
O 	O 	0.74970 0.41020 0.58470 -0.45100
C 	C 	0.85410 0.38940 0.76380 -0.23100
H 	H 	0.86560 0.36940 0.78420 0.10900
C 	C 	0.81930 0.37180 0.70510 0.14200
H 	H 	0.80750 0.34020 0.68510 -0.00800
O 	O 	0.33950 0.74970 0.58470 -0.45100
C 	C 	0.46470 0.85410 0.76380 -0.23100
H 	H 	0.49620 0.86560 0.78420 0.10900
C 	C 	0.44750 0.81930 0.70510 0.14200
H 	H 	0.46730 0.80750 0.68510 -0.00800
O 	O 	0.41020 0.66050 0.58470 -0.45100
C 	C 	0.38940 0.53530 0.76380 -0.23100
H 	H 	0.36940 0.50380 0.78420 0.10800
C 	C 	0.37180 0.55250 0.70510 0.14200
H 	H 	0.34020 0.53270 0.68510 -0.00900
O 	O 	0.25030 0.58980 0.58470 -0.45200
C 	C 	0.14590 0.61060 0.76380 -0.23100
H 	H 	0.13440 0.63060 0.78420 0.10800
C 	C 	0.18070 0.62820 0.70510 0.14200
H 	H 	0.19250 0.65980 0.68510 -0.00900
O 	O 	0.74970 0.33950 0.58470 -0.45100
C 	C 	0.85410 0.46470 0.76380 -0.23100
H 	H 	0.86560 0.49620 0.78420 0.10900
C 	C 	0.81930 0.44750 0.70510 0.14200
H 	H 	0.80750 0.46730 0.68510 -0.00800
O 	O 	0.66050 0.41020 0.58470 -0.45100
C 	C 	0.53530 0.38940 0.76380 -0.23100
H 	H 	0.50380 0.36940 0.78420 0.10800
C 	C 	0.55250 0.37180 0.70510 0.14200
H 	H 	0.53270 0.34020 0.68510 -0.00900
O 	O 	0.58980 0.25030 0.58470 -0.45200
C 	C 	0.61060 0.14590 0.76380 -0.23100
H 	H 	0.63060 0.13440 0.78420 0.10800
C 	C 	0.62820 0.18070 0.70510 0.14200
H 	H 	0.65980 0.19250 0.68510 -0.00900
O 	O 	0.25030 0.66050 0.58470 -0.45200
C 	C 	0.14590 0.53530 0.76380 -0.23100
H 	H 	0.13440 0.50380 0.78420 0.10800
C 	C 	0.18070 0.55250 0.70510 0.14200
H 	H 	0.19250 0.53270 0.68510 -0.00900
O 	O 	0.33950 0.58980 0.58470 -0.45200
C 	C 	0.46470 0.61060 0.76380 -0.23100
H 	H 	0.49620 0.63060 0.78420 0.10900
C 	C 	0.44750 0.62820 0.70510 0.14200
H 	H 	0.46730 0.65980 0.68510 -0.00800
O 	O 	0.41020 0.74970 0.58470 -0.45100
C 	C 	0.38940 0.85410 0.76380 -0.23100
H 	H 	0.36940 0.86560 0.78420 0.10900
C 	C 	0.37180 0.81930 0.70510 0.14200
H 	H 	0.34020 0.80750 0.68510 -0.00800
O 	O 	0.33950 0.74970 0.41530 -0.45200
C 	C 	0.46470 0.85410 0.23620 -0.23300
H 	H 	0.49620 0.86560 0.21580 0.10600
C 	C 	0.44750 0.81930 0.29490 0.14200
H 	H 	0.46730 0.80750 0.31490 -0.01000
O 	O 	0.41020 0.66050 0.41530 -0.45200
C 	C 	0.38940 0.53530 0.23620 -0.23300
H 	H 	0.36940 0.50380 0.21580 0.10500
C 	C 	0.37180 0.55250 0.29490 0.14100
H 	H 	0.34020 0.53270 0.31490 -0.01100
O 	O 	0.25030 0.58980 0.41530 -0.45300
C 	C 	0.14590 0.61060 0.23620 -0.23400
H 	H 	0.13440 0.63060 0.21580 0.10500
C 	C 	0.18070 0.62820 0.29490 0.14200
H 	H 	0.19250 0.65980 0.31490 -0.01100
O 	O 	0.66050 0.25030 0.41530 -0.45200
C 	C 	0.53530 0.14590 0.23620 -0.23400
H 	H 	0.50380 0.13440 0.21580 0.10500
C 	C 	0.55250 0.18070 0.29490 0.14200
H 	H 	0.53270 0.19250 0.31490 -0.01100
O 	O 	0.58980 0.33950 0.41530 -0.45200
C 	C 	0.61060 0.46470 0.23620 -0.23300
H 	H 	0.63060 0.49620 0.21580 0.10500
C 	C 	0.62820 0.44750 0.29490 0.14100
H 	H 	0.65980 0.46730 0.31490 -0.01000
O 	O 	0.74970 0.41020 0.41530 -0.45200
C 	C 	0.85410 0.38940 0.23620 -0.23300
H 	H 	0.86560 0.36940 0.21580 0.10500
C 	C 	0.81930 0.37180 0.29490 0.14200
H 	H 	0.80750 0.34020 0.31490 -0.01000
Fe	Fe	0.29796 0.70204 0.50000 1.22800
Fe	Fe	0.29796 0.59592 0.50000 1.22700
Fe	Fe	0.40408 0.70204 0.50000 1.22800
Fe	Fe	0.70204 0.29796 0.50000 1.22800
Fe	Fe	0.70204 0.40408 0.50000 1.22800
Fe	Fe	0.59592 0.29796 0.50000 1.22700
Co	Co	-0.00000 0.49230 -0.00000 0.57000
Co	Co	0.50770 0.50770 -0.00000 0.57200
Co	Co	0.49230 0.00000 -0.00000 0.57000
Co	Co	-0.00000 0.50770 -0.00000 0.57100
Co	Co	0.49230 0.49230 -0.00000 0.57100
Co	Co	0.50770 0.00000 -0.00000 0.57100
O 	O 	0.33333 0.66667 0.50000 -0.64200
O 	O 	0.66667 0.33333 0.50000 -0.64200
C 	C 	0.04000 0.52000 0.16560 0.11500
C 	C 	0.10270 0.55135 0.06460 0.12500
C 	C 	0.08840 0.54420 0.14240 -0.19100
C 	C 	0.02440 0.51220 0.24570 -0.10600
H 	H 	0.04470 0.52235 0.29000 0.06700
C 	C 	0.15350 0.57675 0.03910 -0.14300
H 	H 	0.18110 0.59055 0.07170 0.07700
C 	C 	0.12770 0.56385 0.20730 0.18100
C 	C 	0.19790 0.59895 0.32390 -0.20400
C 	C 	0.23590 0.61795 0.38970 0.42900
C 	C 	0.48000 0.52000 0.16560 0.11200
C 	C 	0.44865 0.55135 0.06460 0.12500
C 	C 	0.45580 0.54420 0.14240 -0.18900
C 	C 	0.48780 0.51220 0.24570 -0.09300
H 	H 	0.47765 0.52235 0.29000 0.06300
C 	C 	0.42325 0.57675 0.03910 -0.14200
H 	H 	0.40945 0.59055 0.07170 0.07700
C 	C 	0.43615 0.56385 0.20730 0.18000
C 	C 	0.40105 0.59895 0.32390 -0.20300
C 	C 	0.38205 0.61795 0.38970 0.42900
C 	C 	0.48000 0.96000 0.16560 0.11300
C 	C 	0.44865 0.89730 0.06460 0.12500
C 	C 	0.45580 0.91160 0.14240 -0.18800
C 	C 	0.48780 0.97560 0.24570 -0.08100
H 	H 	0.47765 0.95530 0.29000 0.06000
C 	C 	0.42325 0.84650 0.03910 -0.14100
H 	H 	0.40945 0.81890 0.07170 0.07700
C 	C 	0.43615 0.87230 0.20730 0.18100
C 	C 	0.40105 0.80210 0.32390 -0.20300
C 	C 	0.38205 0.76410 0.38970 0.42900
C 	C 	0.96000 0.48000 0.16560 0.11300
C 	C 	0.89730 0.44865 0.06460 0.12500
C 	C 	0.91160 0.45580 0.14240 -0.18800
C 	C 	0.97560 0.48780 0.24570 -0.08100
H 	H 	0.95530 0.47765 0.29000 0.06000
C 	C 	0.84650 0.42325 0.03910 -0.14100
H 	H 	0.81890 0.40945 0.07170 0.07700
C 	C 	0.87230 0.43615 0.20730 0.18100
C 	C 	0.80210 0.40105 0.32390 -0.20300
C 	C 	0.76410 0.38205 0.38970 0.42900
C 	C 	0.52000 0.48000 0.16560 0.11200
C 	C 	0.55135 0.44865 0.06460 0.12500
C 	C 	0.54420 0.45580 0.14240 -0.18900
C 	C 	0.51220 0.48780 0.24570 -0.09300
H 	H 	0.52235 0.47765 0.29000 0.06300
C 	C 	0.57675 0.42325 0.03910 -0.14200
H 	H 	0.59055 0.40945 0.07170 0.07700
C 	C 	0.56385 0.43615 0.20730 0.18000
C 	C 	0.59895 0.40105 0.32390 -0.20300
C 	C 	0.61795 0.38205 0.38970 0.42900
C 	C 	0.52000 0.04000 0.16560 0.11500
C 	C 	0.55135 0.10270 0.06460 0.12500
C 	C 	0.54420 0.08840 0.14240 -0.19100
C 	C 	0.51220 0.02440 0.24570 -0.10600
H 	H 	0.52235 0.04470 0.29000 0.06700
C 	C 	0.57675 0.15350 0.03910 -0.14300
H 	H 	0.59055 0.18110 0.07170 0.07700
C 	C 	0.56385 0.12770 0.20730 0.18100
C 	C 	0.59895 0.19790 0.32390 -0.20400
C 	C 	0.61795 0.23590 0.38970 0.42900
C 	C 	0.52000 0.04000 0.83440 0.11700
C 	C 	0.55135 0.10270 0.93540 0.12000
C 	C 	0.54420 0.08840 0.85760 -0.18200
C 	C 	0.51220 0.02440 0.75430 -0.10400
H 	H 	0.52235 0.04470 0.71000 0.06700
C 	C 	0.57675 0.15350 0.96090 -0.04100
H 	H 	0.59055 0.18110 0.92830 0.05100
C 	C 	0.56385 0.12770 0.79270 0.18000
C 	C 	0.59895 0.19790 0.67610 -0.20200
C 	C 	0.61795 0.23590 0.61030 0.43000
C 	C 	0.52000 0.48000 0.83440 0.11400
C 	C 	0.55135 0.44865 0.93540 0.12000
C 	C 	0.54420 0.45580 0.85760 -0.18000
C 	C 	0.51220 0.48780 0.75430 -0.09100
H 	H 	0.52235 0.47765 0.71000 0.06400
C 	C 	0.57675 0.42325 0.96090 -0.04100
H 	H 	0.59055 0.40945 0.92830 0.05100
C 	C 	0.56385 0.43615 0.79270 0.17900
C 	C 	0.59895 0.40105 0.67610 -0.20100
C 	C 	0.61795 0.38205 0.61030 0.42900
C 	C 	0.96000 0.48000 0.83440 0.11500
C 	C 	0.89730 0.44865 0.93540 0.12000
C 	C 	0.91160 0.45580 0.85760 -0.18000
C 	C 	0.97560 0.48780 0.75430 -0.08000
H 	H 	0.95530 0.47765 0.71000 0.06100
C 	C 	0.84650 0.42325 0.96090 -0.04200
H 	H 	0.81890 0.40945 0.92830 0.05200
C 	C 	0.87230 0.43615 0.79270 0.17900
C 	C 	0.80210 0.40105 0.67610 -0.20100
C 	C 	0.76410 0.38205 0.61030 0.43000
C 	C 	0.48000 0.96000 0.83440 0.11500
C 	C 	0.44865 0.89730 0.93540 0.12000
C 	C 	0.45580 0.91160 0.85760 -0.18000
C 	C 	0.48780 0.97560 0.75430 -0.08000
H 	H 	0.47765 0.95530 0.71000 0.06100
C 	C 	0.42325 0.84650 0.96090 -0.04200
H 	H 	0.40945 0.81890 0.92830 0.05200
C 	C 	0.43615 0.87230 0.79270 0.17900
C 	C 	0.40105 0.80210 0.67610 -0.20100
C 	C 	0.38205 0.76410 0.61030 0.43000
C 	C 	0.48000 0.52000 0.83440 0.11400
C 	C 	0.44865 0.55135 0.93540 0.12000
C 	C 	0.45580 0.54420 0.85760 -0.18000
C 	C 	0.48780 0.51220 0.75430 -0.09100
H 	H 	0.47765 0.52235 0.71000 0.06400
C 	C 	0.42325 0.57675 0.96090 -0.04100
H 	H 	0.40945 0.59055 0.92830 0.05100
C 	C 	0.43615 0.56385 0.79270 0.17900
C 	C 	0.40105 0.59895 0.67610 -0.20100
C 	C 	0.38205 0.61795 0.61030 0.42900
C 	C 	0.04000 0.52000 0.83440 0.11700
C 	C 	0.10270 0.55135 0.93540 0.12000
C 	C 	0.08840 0.54420 0.85760 -0.18200
C 	C 	0.02440 0.51220 0.75430 -0.10400
H 	H 	0.04470 0.52235 0.71000 0.06700
C 	C 	0.15350 0.57675 0.96090 -0.04100
H 	H 	0.18110 0.59055 0.92830 0.05100
C 	C 	0.12770 0.56385 0.79270 0.18000
C 	C 	0.19790 0.59895 0.67610 -0.20200
C 	C 	0.23590 0.61795 0.61030 0.43000
N 	N 	0.00000 0.50000 0.11660 -0.30600
N 	N 	0.50000 0.50000 0.11660 -0.30200
N 	N 	0.50000 0.00000 0.11660 -0.30600
N 	N 	0.50000 0.00000 0.88340 -0.29700
N 	N 	0.50000 0.50000 0.88340 -0.29400
N 	N 	0.00000 0.50000 0.88340 -0.29700
N 	N 	0.07410 0.53705 -0.00000 -0.31100
N 	N 	0.46295 0.53705 -0.00000 -0.31000
N 	N 	0.46295 0.92590 -0.00000 -0.30800
N 	N 	0.92590 0.46295 -0.00000 -0.30800
N 	N 	0.53705 0.46295 -0.00000 -0.31000
N 	N 	0.53705 0.07410 -0.00000 -0.31100
