data_crystal

_cell_length_a 31.84800
_cell_length_b 31.84800
_cell_length_c 16.88300
_cell_angle_alpha 90.00000
_cell_angle_beta  90.00000
_cell_angle_gamma 120.00000

_symmetry_space_group_name_	'P 1'
_symmetry_space_group_name_H-M	'P 1'

loop_
_symmetry_equiv_pos_as_xyz
  x,y,z

loop_
_atom_site_label
_atom_site_type_symbol
_atom_site_fract_x
_atom_site_fract_y
_atom_site_fract_z
_atom_site_charge
O 	O 	0.25000 0.58990 0.41300 -0.51800
C 	C 	0.17940 0.55320 0.29550 0.15500
H 	H 	0.19180 0.53410 0.31390 -0.01200
C 	C 	0.14300 0.53450 0.24030 -0.23500
H 	H 	0.12960 0.50230 0.22450 0.11400
O 	O 	0.41010 0.66010 0.41300 -0.51800
C 	C 	0.44680 0.62620 0.29550 0.15500
H 	H 	0.46590 0.65770 0.31390 -0.01200
C 	C 	0.46550 0.60850 0.24030 -0.23500
H 	H 	0.49770 0.62730 0.22450 0.11300
O 	O 	0.33990 0.75000 0.41300 -0.51800
C 	C 	0.37380 0.82060 0.29550 0.15500
H 	H 	0.34230 0.80820 0.31390 -0.01200
C 	C 	0.39150 0.85700 0.24030 -0.23500
H 	H 	0.37270 0.87040 0.22450 0.11300
O 	O 	0.75000 0.41010 0.41300 -0.51700
C 	C 	0.82060 0.44680 0.29550 0.15600
H 	H 	0.80820 0.46590 0.31390 -0.01100
C 	C 	0.85700 0.46550 0.24030 -0.23400
H 	H 	0.87040 0.49770 0.22450 0.11400
O 	O 	0.58990 0.33990 0.41300 -0.51700
C 	C 	0.55320 0.37380 0.29550 0.15600
H 	H 	0.53410 0.34230 0.31390 -0.01100
C 	C 	0.53450 0.39150 0.24030 -0.23400
H 	H 	0.50230 0.37270 0.22450 0.11500
O 	O 	0.66010 0.25000 0.41300 -0.51700
C 	C 	0.62620 0.17940 0.29550 0.15600
H 	H 	0.65770 0.19180 0.31390 -0.01100
C 	C 	0.60850 0.14300 0.24030 -0.23400
H 	H 	0.62730 0.12960 0.22450 0.11400
O 	O 	0.58990 0.25000 0.58700 -0.51800
C 	C 	0.55320 0.17940 0.70450 0.15500
H 	H 	0.53410 0.19180 0.68610 -0.01200
C 	C 	0.53450 0.14300 0.75970 -0.23500
H 	H 	0.50230 0.12960 0.77550 0.11300
O 	O 	0.66010 0.41010 0.58700 -0.51800
C 	C 	0.62620 0.44680 0.70450 0.15500
H 	H 	0.65770 0.46590 0.68610 -0.01200
C 	C 	0.60850 0.46550 0.75970 -0.23500
H 	H 	0.62730 0.49770 0.77550 0.11300
O 	O 	0.75000 0.33990 0.58700 -0.51800
C 	C 	0.82060 0.37380 0.70450 0.15500
H 	H 	0.80820 0.34230 0.68610 -0.01200
C 	C 	0.85700 0.39150 0.75970 -0.23500
H 	H 	0.87040 0.37270 0.77550 0.11300
O 	O 	0.41010 0.75000 0.58700 -0.51800
C 	C 	0.44680 0.82060 0.70450 0.15500
H 	H 	0.46590 0.80820 0.68610 -0.01200
C 	C 	0.46550 0.85700 0.75970 -0.23500
H 	H 	0.49770 0.87040 0.77550 0.11200
O 	O 	0.33990 0.58990 0.58700 -0.51800
C 	C 	0.37380 0.55320 0.70450 0.15500
H 	H 	0.34230 0.53410 0.68610 -0.01200
C 	C 	0.39150 0.53450 0.75970 -0.23500
H 	H 	0.37270 0.50230 0.77550 0.11300
O 	O 	0.25000 0.66010 0.58700 -0.51800
C 	C 	0.17940 0.62620 0.70450 0.15500
H 	H 	0.19180 0.65770 0.68610 -0.01200
C 	C 	0.14300 0.60850 0.75970 -0.23500
H 	H 	0.12960 0.62730 0.77550 0.11300
O 	O 	0.75000 0.41010 0.58700 -0.51800
C 	C 	0.82060 0.44680 0.70450 0.15500
H 	H 	0.80820 0.46590 0.68610 -0.01200
C 	C 	0.85700 0.46550 0.75970 -0.23500
H 	H 	0.87040 0.49770 0.77550 0.11200
O 	O 	0.58990 0.33990 0.58700 -0.51800
C 	C 	0.55320 0.37380 0.70450 0.15500
H 	H 	0.53410 0.34230 0.68610 -0.01200
C 	C 	0.53450 0.39150 0.75970 -0.23500
H 	H 	0.50230 0.37270 0.77550 0.11300
O 	O 	0.66010 0.25000 0.58700 -0.51800
C 	C 	0.62620 0.17940 0.70450 0.15500
H 	H 	0.65770 0.19180 0.68610 -0.01200
C 	C 	0.60850 0.14300 0.75970 -0.23500
H 	H 	0.62730 0.12960 0.77550 0.11300
O 	O 	0.25000 0.58990 0.58700 -0.51800
C 	C 	0.17940 0.55320 0.70450 0.15500
H 	H 	0.19180 0.53410 0.68610 -0.01200
C 	C 	0.14300 0.53450 0.75970 -0.23500
H 	H 	0.12960 0.50230 0.77550 0.11300
O 	O 	0.41010 0.66010 0.58700 -0.51800
C 	C 	0.44680 0.62620 0.70450 0.15500
H 	H 	0.46590 0.65770 0.68610 -0.01200
C 	C 	0.46550 0.60850 0.75970 -0.23500
H 	H 	0.49770 0.62730 0.77550 0.11300
O 	O 	0.33990 0.75000 0.58700 -0.51800
C 	C 	0.37380 0.82060 0.70450 0.15500
H 	H 	0.34230 0.80820 0.68610 -0.01200
C 	C 	0.39150 0.85700 0.75970 -0.23500
H 	H 	0.37270 0.87040 0.77550 0.11300
O 	O 	0.41010 0.75000 0.41300 -0.51700
C 	C 	0.44680 0.82060 0.29550 0.15600
H 	H 	0.46590 0.80820 0.31390 -0.01100
C 	C 	0.46550 0.85700 0.24030 -0.23400
H 	H 	0.49770 0.87040 0.22450 0.11400
O 	O 	0.33990 0.58990 0.41300 -0.51700
C 	C 	0.37380 0.55320 0.29550 0.15600
H 	H 	0.34230 0.53410 0.31390 -0.01100
C 	C 	0.39150 0.53450 0.24030 -0.23400
H 	H 	0.37270 0.50230 0.22450 0.11500
O 	O 	0.25000 0.66010 0.41300 -0.51700
C 	C 	0.17940 0.62620 0.29550 0.15600
H 	H 	0.19180 0.65770 0.31390 -0.01100
C 	C 	0.14300 0.60850 0.24030 -0.23400
H 	H 	0.12960 0.62730 0.22450 0.11400
O 	O 	0.58990 0.25000 0.41300 -0.51700
C 	C 	0.55320 0.17940 0.29550 0.15600
H 	H 	0.53410 0.19180 0.31390 -0.01100
C 	C 	0.53450 0.14300 0.24030 -0.23400
H 	H 	0.50230 0.12960 0.22450 0.11500
O 	O 	0.66010 0.41010 0.41300 -0.51700
C 	C 	0.62620 0.44680 0.29550 0.15600
H 	H 	0.65770 0.46590 0.31390 -0.01100
C 	C 	0.60850 0.46550 0.24030 -0.23400
H 	H 	0.62730 0.49770 0.22450 0.11400
O 	O 	0.75000 0.33990 0.41300 -0.51700
C 	C 	0.82060 0.37380 0.29550 0.15600
H 	H 	0.80820 0.34230 0.31390 -0.01100
C 	C 	0.85700 0.39150 0.24030 -0.23400
H 	H 	0.87040 0.37270 0.22450 0.11400
Mg	Mg	0.29740 0.59480 0.50000 1.47500
Mg	Mg	0.40520 0.70260 0.50000 1.47500
Mg	Mg	0.29740 0.70260 0.50000 1.47500
Mg	Mg	0.70260 0.40520 0.50000 1.47500
Mg	Mg	0.59480 0.29740 0.50000 1.47500
Mg	Mg	0.70260 0.29740 0.50000 1.47500
C 	C 	0.04050 0.52025 0.17040 0.14500
C 	C 	0.08780 0.54390 0.14410 -0.15000
C 	C 	0.23630 0.61815 0.38940 0.47700
C 	C 	0.10250 0.55125 0.06500 0.11800
C 	C 	0.19770 0.59885 0.32400 -0.21800
C 	C 	0.12620 0.56310 0.20790 0.17600
C 	C 	0.15350 0.57675 0.03960 -0.05800
H 	H 	0.18060 0.59030 0.07240 0.05800
C 	C 	0.02490 0.51245 0.24800 -0.09500
H 	H 	0.04460 0.52230 0.29260 0.06800
C 	C 	0.47975 0.52025 0.17040 0.14600
C 	C 	0.45610 0.54390 0.14410 -0.15100
C 	C 	0.38185 0.61815 0.38940 0.47700
C 	C 	0.44875 0.55125 0.06500 0.11800
C 	C 	0.40115 0.59885 0.32400 -0.21800
C 	C 	0.43690 0.56310 0.20790 0.17600
C 	C 	0.42325 0.57675 0.03960 -0.05800
H 	H 	0.40970 0.59030 0.07240 0.05800
C 	C 	0.48755 0.51245 0.24800 -0.09900
H 	H 	0.47770 0.52230 0.29260 0.06900
C 	C 	0.47975 0.95950 0.17040 0.14500
C 	C 	0.45610 0.91220 0.14410 -0.15100
C 	C 	0.38185 0.76370 0.38940 0.47700
C 	C 	0.44875 0.89750 0.06500 0.11700
C 	C 	0.40115 0.80230 0.32400 -0.21800
C 	C 	0.43690 0.87380 0.20790 0.17600
C 	C 	0.42325 0.84650 0.03960 -0.05800
H 	H 	0.40970 0.81940 0.07240 0.05800
C 	C 	0.48755 0.97510 0.24800 -0.10200
H 	H 	0.47770 0.95540 0.29260 0.06900
C 	C 	0.95950 0.47975 0.17040 0.14500
C 	C 	0.91220 0.45610 0.14410 -0.15100
C 	C 	0.76370 0.38185 0.38940 0.47700
C 	C 	0.89750 0.44875 0.06500 0.11700
C 	C 	0.80230 0.40115 0.32400 -0.21800
C 	C 	0.87380 0.43690 0.20790 0.17600
C 	C 	0.84650 0.42325 0.03960 -0.05800
H 	H 	0.81940 0.40970 0.07240 0.05800
C 	C 	0.97510 0.48755 0.24800 -0.10200
H 	H 	0.95540 0.47770 0.29260 0.06900
C 	C 	0.52025 0.47975 0.17040 0.14600
C 	C 	0.54390 0.45610 0.14410 -0.15100
C 	C 	0.61815 0.38185 0.38940 0.47700
C 	C 	0.55125 0.44875 0.06500 0.11800
C 	C 	0.59885 0.40115 0.32400 -0.21800
C 	C 	0.56310 0.43690 0.20790 0.17600
C 	C 	0.57675 0.42325 0.03960 -0.05800
H 	H 	0.59030 0.40970 0.07240 0.05800
C 	C 	0.51245 0.48755 0.24800 -0.09900
H 	H 	0.52230 0.47770 0.29260 0.06900
C 	C 	0.52025 0.04050 0.17040 0.14500
C 	C 	0.54390 0.08780 0.14410 -0.15000
C 	C 	0.61815 0.23630 0.38940 0.47700
C 	C 	0.55125 0.10250 0.06500 0.11800
C 	C 	0.59885 0.19770 0.32400 -0.21800
C 	C 	0.56310 0.12620 0.20790 0.17600
C 	C 	0.57675 0.15350 0.03960 -0.05800
H 	H 	0.59030 0.18060 0.07240 0.05800
C 	C 	0.51245 0.02490 0.24800 -0.09500
H 	H 	0.52230 0.04460 0.29260 0.06800
C 	C 	0.52025 0.04050 0.82960 0.14200
C 	C 	0.54390 0.08780 0.85590 -0.15300
C 	C 	0.61815 0.23630 0.61060 0.47700
C 	C 	0.55125 0.10250 0.93500 0.11800
C 	C 	0.59885 0.19770 0.67600 -0.21800
C 	C 	0.56310 0.12620 0.79210 0.17600
C 	C 	0.57675 0.15350 0.96040 -0.10800
H 	H 	0.59030 0.18060 0.92760 0.07000
C 	C 	0.51245 0.02490 0.75200 -0.09600
H 	H 	0.52230 0.04460 0.70740 0.06800
C 	C 	0.52025 0.47975 0.82960 0.14300
C 	C 	0.54390 0.45610 0.85590 -0.15400
C 	C 	0.61815 0.38185 0.61060 0.47700
C 	C 	0.55125 0.44875 0.93500 0.11800
C 	C 	0.59885 0.40115 0.67600 -0.21900
C 	C 	0.56310 0.43690 0.79210 0.17600
C 	C 	0.57675 0.42325 0.96040 -0.10800
H 	H 	0.59030 0.40970 0.92760 0.07000
C 	C 	0.51245 0.48755 0.75200 -0.09900
H 	H 	0.52230 0.47770 0.70740 0.06800
C 	C 	0.95950 0.47975 0.82960 0.14300
C 	C 	0.91220 0.45610 0.85590 -0.15400
C 	C 	0.76370 0.38185 0.61060 0.47700
C 	C 	0.89750 0.44875 0.93500 0.11800
C 	C 	0.80230 0.40115 0.67600 -0.21900
C 	C 	0.87380 0.43690 0.79210 0.17600
C 	C 	0.84650 0.42325 0.96040 -0.10800
H 	H 	0.81940 0.40970 0.92760 0.07000
C 	C 	0.97510 0.48755 0.75200 -0.10200
H 	H 	0.95540 0.47770 0.70740 0.06900
C 	C 	0.47975 0.95950 0.82960 0.14300
C 	C 	0.45610 0.91220 0.85590 -0.15400
C 	C 	0.38185 0.76370 0.61060 0.47700
C 	C 	0.44875 0.89750 0.93500 0.11800
C 	C 	0.40115 0.80230 0.67600 -0.21900
C 	C 	0.43690 0.87380 0.79210 0.17600
C 	C 	0.42325 0.84650 0.96040 -0.10800
H 	H 	0.40970 0.81940 0.92760 0.07000
C 	C 	0.48755 0.97510 0.75200 -0.10200
H 	H 	0.47770 0.95540 0.70740 0.06900
C 	C 	0.47975 0.52025 0.82960 0.14300
C 	C 	0.45610 0.54390 0.85590 -0.15400
C 	C 	0.38185 0.61815 0.61060 0.47700
C 	C 	0.44875 0.55125 0.93500 0.11800
C 	C 	0.40115 0.59885 0.67600 -0.21900
C 	C 	0.43690 0.56310 0.79210 0.17600
C 	C 	0.42325 0.57675 0.96040 -0.10800
H 	H 	0.40970 0.59030 0.92760 0.07000
C 	C 	0.48755 0.51245 0.75200 -0.09900
H 	H 	0.47770 0.52230 0.70740 0.06800
C 	C 	0.04050 0.52025 0.82960 0.14200
C 	C 	0.08780 0.54390 0.85590 -0.15300
C 	C 	0.23630 0.61815 0.61060 0.47700
C 	C 	0.10250 0.55125 0.93500 0.11800
C 	C 	0.19770 0.59885 0.67600 -0.21800
C 	C 	0.12620 0.56310 0.79210 0.17600
C 	C 	0.15350 0.57675 0.96040 -0.10800
H 	H 	0.18060 0.59030 0.92760 0.07000
C 	C 	0.02490 0.51245 0.75200 -0.09600
H 	H 	0.04460 0.52230 0.70740 0.06800
N 	N 	-0.00000 0.50000 0.12150 -0.23100
H 	H 	-0.00000 0.50000 0.07050 0.15300
N 	N 	0.50000 0.50000 0.12150 -0.23200
H 	H 	0.50000 0.50000 0.07050 0.15300
N 	N 	0.50000 -0.00000 0.12150 -0.23100
H 	H 	0.50000 0.00000 0.07050 0.15300
N 	N 	0.50000 -0.00000 0.87850 -0.23100
H 	H 	0.50000 0.00000 0.92950 0.14500
N 	N 	0.50000 0.50000 0.87850 -0.23100
H 	H 	0.50000 0.50000 0.92950 0.14500
N 	N 	0.00000 0.50000 0.87850 -0.23100
H 	H 	0.00000 0.50000 0.92950 0.14500
N 	N 	0.07410 0.53705 -0.00000 -0.14300
N 	N 	0.46295 0.53705 -0.00000 -0.14300
N 	N 	0.46295 0.92590 -0.00000 -0.14300
N 	N 	0.92590 0.46295 -0.00000 -0.14300
N 	N 	0.53705 0.46295 -0.00000 -0.14300
N 	N 	0.53705 0.07410 -0.00000 -0.14300
O 	O 	0.33333 0.66667 0.50000 -0.77900
O 	O 	0.66667 0.33333 0.50000 -0.77900
