data_crystal

_cell_length_a 31.74020
_cell_length_b 31.74020
_cell_length_c 16.76890
_cell_angle_alpha 90.00000
_cell_angle_beta  90.00000
_cell_angle_gamma 120.00000

_symmetry_space_group_name_	'P 1'
_symmetry_space_group_name_H-M	'P 1'

loop_
_symmetry_equiv_pos_as_xyz
  x,y,z

loop_
_atom_site_label
_atom_site_type_symbol
_atom_site_fract_x
_atom_site_fract_y
_atom_site_fract_z
_atom_site_charge
O 	O 	0.25027 0.66020 0.91400 -0.39700
C 	C 	0.17850 0.55150 0.79720 0.08800
H 	H 	0.18860 0.53130 0.81970 0.01800
C 	C 	0.14470 0.53440 0.73590 -0.18000
H 	H 	0.13430 0.50380 0.71410 0.09300
O 	O 	0.33980 0.59007 0.91400 -0.39700
C 	C 	0.44850 0.62700 0.79720 0.08700
H 	H 	0.46870 0.65730 0.81970 0.01900
C 	C 	0.46560 0.61030 0.73590 -0.17900
H 	H 	0.49620 0.63050 0.71410 0.09400
O 	O 	0.40993 0.74973 0.91400 -0.39500
C 	C 	0.37300 0.82150 0.79720 0.08900
H 	H 	0.34270 0.81140 0.81970 0.02000
C 	C 	0.38970 0.85530 0.73590 -0.17800
H 	H 	0.36950 0.86570 0.71410 0.09500
O 	O 	0.74973 0.33980 0.91400 -0.39600
C 	C 	0.82150 0.44850 0.79720 0.08900
H 	H 	0.81140 0.46870 0.81970 0.02000
C 	C 	0.85530 0.46560 0.73590 -0.17800
H 	H 	0.86570 0.49620 0.71410 0.09500
O 	O 	0.66020 0.40993 0.91400 -0.39500
C 	C 	0.55150 0.37300 0.79720 0.08800
H 	H 	0.53130 0.34270 0.81970 0.02000
C 	C 	0.53440 0.38970 0.73590 -0.17800
H 	H 	0.50380 0.36950 0.71410 0.09400
O 	O 	0.59007 0.25027 0.91400 -0.39600
C 	C 	0.62700 0.17850 0.79720 0.08900
H 	H 	0.65730 0.18860 0.81970 0.02000
C 	C 	0.61030 0.14470 0.73590 -0.17900
H 	H 	0.63050 0.13430 0.71410 0.09400
O 	O 	0.66020 0.25027 0.08600 -0.45800
C 	C 	0.55150 0.17850 0.20280 0.09900
H 	H 	0.53130 0.18860 0.18030 -0.00400
C 	C 	0.53440 0.14470 0.26410 -0.19700
H 	H 	0.50380 0.13430 0.28590 0.09000
O 	O 	0.59007 0.33980 0.08600 -0.45800
C 	C 	0.62700 0.44850 0.20280 0.09800
H 	H 	0.65730 0.46870 0.18030 -0.00300
C 	C 	0.61030 0.46560 0.26410 -0.19700
H 	H 	0.63050 0.49620 0.28590 0.09100
O 	O 	0.74973 0.40993 0.08600 -0.45800
C 	C 	0.82150 0.37300 0.20280 0.09900
H 	H 	0.81140 0.34270 0.18030 -0.00300
C 	C 	0.85530 0.38970 0.26410 -0.19600
H 	H 	0.86570 0.36950 0.28590 0.09100
O 	O 	0.33980 0.74973 0.08600 -0.45800
C 	C 	0.44850 0.82150 0.20280 0.09900
H 	H 	0.46870 0.81140 0.18030 -0.00300
C 	C 	0.46560 0.85530 0.26410 -0.19600
H 	H 	0.49620 0.86570 0.28590 0.09200
O 	O 	0.40993 0.66020 0.08600 -0.45800
C 	C 	0.37300 0.55150 0.20280 0.09800
H 	H 	0.34270 0.53130 0.18030 -0.00400
C 	C 	0.38970 0.53440 0.26410 -0.19700
H 	H 	0.36950 0.50380 0.28590 0.09000
O 	O 	0.25027 0.59007 0.08600 -0.45800
C 	C 	0.17850 0.62700 0.20280 0.09900
H 	H 	0.18860 0.65730 0.18030 -0.00400
C 	C 	0.14470 0.61030 0.26410 -0.19700
H 	H 	0.13430 0.63050 0.28590 0.09100
O 	O 	0.74973 0.33980 0.08600 -0.45800
C 	C 	0.82150 0.44850 0.20280 0.09900
H 	H 	0.81140 0.46870 0.18030 -0.00300
C 	C 	0.85530 0.46560 0.26410 -0.19600
H 	H 	0.86570 0.49620 0.28590 0.09200
O 	O 	0.66020 0.40993 0.08600 -0.45800
C 	C 	0.55150 0.37300 0.20280 0.09800
H 	H 	0.53130 0.34270 0.18030 -0.00400
C 	C 	0.53440 0.38970 0.26410 -0.19700
H 	H 	0.50380 0.36950 0.28590 0.09000
O 	O 	0.59007 0.25027 0.08600 -0.45800
C 	C 	0.62700 0.17850 0.20280 0.09900
H 	H 	0.65730 0.18860 0.18030 -0.00400
C 	C 	0.61030 0.14470 0.26410 -0.19700
H 	H 	0.63050 0.13430 0.28590 0.09100
O 	O 	0.25027 0.66020 0.08600 -0.45800
C 	C 	0.17850 0.55150 0.20280 0.09900
H 	H 	0.18860 0.53130 0.18030 -0.00400
C 	C 	0.14470 0.53440 0.26410 -0.19700
H 	H 	0.13430 0.50380 0.28590 0.09000
O 	O 	0.33980 0.59007 0.08600 -0.45800
C 	C 	0.44850 0.62700 0.20280 0.09800
H 	H 	0.46870 0.65730 0.18030 -0.00300
C 	C 	0.46560 0.61030 0.26410 -0.19700
H 	H 	0.49620 0.63050 0.28590 0.09100
O 	O 	0.40993 0.74973 0.08600 -0.45800
C 	C 	0.37300 0.82150 0.20280 0.09900
H 	H 	0.34270 0.81140 0.18030 -0.00300
C 	C 	0.38970 0.85530 0.26410 -0.19600
H 	H 	0.36950 0.86570 0.28590 0.09100
O 	O 	0.33980 0.74973 0.91400 -0.39600
C 	C 	0.44850 0.82150 0.79720 0.08900
H 	H 	0.46870 0.81140 0.81970 0.02000
C 	C 	0.46560 0.85530 0.73590 -0.17800
H 	H 	0.49620 0.86570 0.71410 0.09500
O 	O 	0.40993 0.66020 0.91400 -0.39500
C 	C 	0.37300 0.55150 0.79720 0.08800
H 	H 	0.34270 0.53130 0.81970 0.02000
C 	C 	0.38970 0.53440 0.73590 -0.17800
H 	H 	0.36950 0.50380 0.71410 0.09400
O 	O 	0.25027 0.59007 0.91400 -0.39600
C 	C 	0.17850 0.62700 0.79720 0.08900
H 	H 	0.18860 0.65730 0.81970 0.02000
C 	C 	0.14470 0.61030 0.73590 -0.17900
H 	H 	0.13430 0.63050 0.71410 0.09400
O 	O 	0.66020 0.25027 0.91400 -0.39600
C 	C 	0.55150 0.17850 0.79720 0.08900
H 	H 	0.53130 0.18860 0.81970 0.01900
C 	C 	0.53440 0.14470 0.73590 -0.17900
H 	H 	0.50380 0.13430 0.71410 0.09400
O 	O 	0.59007 0.33980 0.91400 -0.39600
C 	C 	0.62700 0.44850 0.79720 0.08800
H 	H 	0.65730 0.46870 0.81970 0.02000
C 	C 	0.61030 0.46560 0.73590 -0.17800
H 	H 	0.63050 0.49620 0.71410 0.09500
O 	O 	0.74973 0.40993 0.91400 -0.39500
C 	C 	0.82150 0.37300 0.79720 0.08900
H 	H 	0.81140 0.34270 0.81970 0.02000
C 	C 	0.85530 0.38970 0.73590 -0.17800
H 	H 	0.86570 0.36950 0.71410 0.09500
Ni	Ni	0.29701 0.70299 -0.00000 1.09300
Ni	Ni	0.29701 0.59402 -0.00000 1.09300
Ni	Ni	0.40598 0.70299 -0.00000 1.09300
Ni	Ni	0.70299 0.29701 -0.00000 1.09300
Ni	Ni	0.70299 0.40598 -0.00000 1.09300
Ni	Ni	0.59402 0.29701 -0.00000 1.09300
Co	Co	-0.00000 0.50810 0.50000 0.58900
Co	Co	0.49190 0.49190 0.50000 0.58900
Co	Co	0.50810 -0.00000 0.50000 0.58900
Co	Co	0.00000 0.49190 0.50000 0.58900
Co	Co	0.50810 0.50810 0.50000 0.59000
Co	Co	0.49190 -0.00000 0.50000 0.58900
C 	C 	0.10240 0.55120 0.56720 0.10800
C 	C 	0.04040 0.52020 0.66740 0.10500
C 	C 	0.08810 0.54405 0.64380 -0.16800
C 	C 	0.15120 0.57560 0.54400 -0.09600
H 	H 	0.17820 0.58910 0.57730 0.06800
C 	C 	0.02430 0.51215 0.74770 -0.09700
H 	H 	0.04420 0.52210 0.79260 0.07600
C 	C 	0.12610 0.56305 0.70680 0.14300
C 	C 	0.19730 0.59865 0.82520 -0.14100
C 	C 	0.23680 0.61840 0.89070 0.41600
C 	C 	0.44880 0.55120 0.56720 0.10800
C 	C 	0.47980 0.52020 0.66740 0.10200
C 	C 	0.45595 0.54405 0.64380 -0.16600
C 	C 	0.42440 0.57560 0.54400 -0.09500
H 	H 	0.41090 0.58910 0.57730 0.06800
C 	C 	0.48785 0.51215 0.74770 -0.08400
H 	H 	0.47790 0.52210 0.79260 0.07200
C 	C 	0.43695 0.56305 0.70680 0.14200
C 	C 	0.40135 0.59865 0.82520 -0.14100
C 	C 	0.38160 0.61840 0.89070 0.41600
C 	C 	0.44880 0.89760 0.56720 0.10800
C 	C 	0.47980 0.95960 0.66740 0.10300
C 	C 	0.45595 0.91190 0.64380 -0.16500
C 	C 	0.42440 0.84880 0.54400 -0.09500
H 	H 	0.41090 0.82180 0.57730 0.06800
C 	C 	0.48785 0.97570 0.74770 -0.07200
H 	H 	0.47790 0.95580 0.79260 0.06900
C 	C 	0.43695 0.87390 0.70680 0.14300
C 	C 	0.40135 0.80270 0.82520 -0.14000
C 	C 	0.38160 0.76320 0.89070 0.41600
C 	C 	0.89760 0.44880 0.56720 0.10800
C 	C 	0.95960 0.47980 0.66740 0.10300
C 	C 	0.91190 0.45595 0.64380 -0.16500
C 	C 	0.84880 0.42440 0.54400 -0.09500
H 	H 	0.82180 0.41090 0.57730 0.06800
C 	C 	0.97570 0.48785 0.74770 -0.07200
H 	H 	0.95580 0.47790 0.79260 0.06900
C 	C 	0.87390 0.43695 0.70680 0.14300
C 	C 	0.80270 0.40135 0.82520 -0.14000
C 	C 	0.76320 0.38160 0.89070 0.41600
C 	C 	0.55120 0.44880 0.56720 0.10800
C 	C 	0.52020 0.47980 0.66740 0.10200
C 	C 	0.54405 0.45595 0.64380 -0.16600
C 	C 	0.57560 0.42440 0.54400 -0.09500
H 	H 	0.58910 0.41090 0.57730 0.06800
C 	C 	0.51215 0.48785 0.74770 -0.08400
H 	H 	0.52210 0.47790 0.79260 0.07200
C 	C 	0.56305 0.43695 0.70680 0.14200
C 	C 	0.59865 0.40135 0.82520 -0.14100
C 	C 	0.61840 0.38160 0.89070 0.41600
C 	C 	0.55120 0.10240 0.56720 0.10800
C 	C 	0.52020 0.04040 0.66740 0.10500
C 	C 	0.54405 0.08810 0.64380 -0.16800
C 	C 	0.57560 0.15120 0.54400 -0.09600
H 	H 	0.58910 0.17820 0.57730 0.06800
C 	C 	0.51215 0.02430 0.74770 -0.09700
H 	H 	0.52210 0.04420 0.79260 0.07600
C 	C 	0.56305 0.12610 0.70680 0.14300
C 	C 	0.59865 0.19730 0.82520 -0.14100
C 	C 	0.61840 0.23680 0.89070 0.41600
C 	C 	0.55120 0.10240 0.43280 0.10900
C 	C 	0.52020 0.04040 0.33260 0.10000
C 	C 	0.54405 0.08810 0.35620 -0.17300
C 	C 	0.57560 0.15120 0.45600 -0.09700
H 	H 	0.58910 0.17820 0.42270 0.06800
C 	C 	0.51215 0.02430 0.25230 -0.10400
H 	H 	0.52210 0.04420 0.20740 0.05500
C 	C 	0.56305 0.12610 0.29320 0.14800
C 	C 	0.59865 0.19730 0.17480 -0.17100
C 	C 	0.61840 0.23680 0.10930 0.42500
C 	C 	0.55120 0.44880 0.43280 0.10800
C 	C 	0.52020 0.47980 0.33260 0.09700
C 	C 	0.54405 0.45595 0.35620 -0.17100
C 	C 	0.57560 0.42440 0.45600 -0.09700
H 	H 	0.58910 0.41090 0.42270 0.06800
C 	C 	0.51215 0.48785 0.25230 -0.09100
H 	H 	0.52210 0.47790 0.20740 0.05200
C 	C 	0.56305 0.43695 0.29320 0.14800
C 	C 	0.59865 0.40135 0.17480 -0.17100
C 	C 	0.61840 0.38160 0.10930 0.42500
C 	C 	0.89760 0.44880 0.43280 0.10900
C 	C 	0.95960 0.47980 0.33260 0.09900
C 	C 	0.91190 0.45595 0.35620 -0.17100
C 	C 	0.84880 0.42440 0.45600 -0.09700
H 	H 	0.82180 0.41090 0.42270 0.06800
C 	C 	0.97570 0.48785 0.25230 -0.07900
H 	H 	0.95580 0.47790 0.20740 0.04900
C 	C 	0.87390 0.43695 0.29320 0.14800
C 	C 	0.80270 0.40135 0.17480 -0.17100
C 	C 	0.76320 0.38160 0.10930 0.42500
C 	C 	0.44880 0.89760 0.43280 0.10900
C 	C 	0.47980 0.95960 0.33260 0.09900
C 	C 	0.45595 0.91190 0.35620 -0.17100
C 	C 	0.42440 0.84880 0.45600 -0.09700
H 	H 	0.41090 0.82180 0.42270 0.06800
C 	C 	0.48785 0.97570 0.25230 -0.07900
H 	H 	0.47790 0.95580 0.20740 0.04900
C 	C 	0.43695 0.87390 0.29320 0.14800
C 	C 	0.40135 0.80270 0.17480 -0.17100
C 	C 	0.38160 0.76320 0.10930 0.42500
C 	C 	0.44880 0.55120 0.43280 0.10800
C 	C 	0.47980 0.52020 0.33260 0.09700
C 	C 	0.45595 0.54405 0.35620 -0.17100
C 	C 	0.42440 0.57560 0.45600 -0.09700
H 	H 	0.41090 0.58910 0.42270 0.06800
C 	C 	0.48785 0.51215 0.25230 -0.09100
H 	H 	0.47790 0.52210 0.20740 0.05200
C 	C 	0.43695 0.56305 0.29320 0.14800
C 	C 	0.40135 0.59865 0.17480 -0.17100
C 	C 	0.38160 0.61840 0.10930 0.42500
C 	C 	0.10240 0.55120 0.43280 0.10900
C 	C 	0.04040 0.52020 0.33260 0.10000
C 	C 	0.08810 0.54405 0.35620 -0.17300
C 	C 	0.15120 0.57560 0.45600 -0.09700
H 	H 	0.17820 0.58910 0.42270 0.06800
C 	C 	0.02430 0.51215 0.25230 -0.10400
H 	H 	0.04420 0.52210 0.20740 0.05500
C 	C 	0.12610 0.56305 0.29320 0.14800
C 	C 	0.19730 0.59865 0.17480 -0.17100
C 	C 	0.23680 0.61840 0.10930 0.42500
N 	N 	0.07180 0.53590 0.50000 -0.29500
N 	N 	0.46410 0.53590 0.50000 -0.29500
N 	N 	0.46410 0.92820 0.50000 -0.29300
N 	N 	0.92820 0.46410 0.50000 -0.29300
N 	N 	0.53590 0.46410 0.50000 -0.29500
N 	N 	0.53590 0.07180 0.50000 -0.29500
O 	O 	0.33333 0.66667 -0.00000 -0.59600
O 	O 	0.66667 0.33333 -0.00000 -0.59600
N 	N 	0.00000 0.50000 0.61560 -0.30200
N 	N 	0.50000 0.50000 0.61560 -0.29800
N 	N 	0.50000 -0.00000 0.61560 -0.30200
N 	N 	0.50000 -0.00000 0.38440 -0.30300
N 	N 	0.50000 0.50000 0.38440 -0.29900
N 	N 	-0.00000 0.50000 0.38440 -0.30300
