data_crystal

_cell_length_a 28.62860
_cell_length_b 19.00720
_cell_length_c 32.40630
_cell_angle_alpha 90.00000
_cell_angle_beta  114.32100
_cell_angle_gamma 90.00000

_symmetry_space_group_name_	'P 1'
_symmetry_space_group_name_H-M	'P 1'

loop_
_symmetry_equiv_pos_as_xyz
  x,y,z

loop_
_atom_site_label
_atom_site_type_symbol
_atom_site_fract_x
_atom_site_fract_y
_atom_site_fract_z
_atom_site_charge
W 	W 	0.41967 0.83773 0.11924 0.50500
W 	W 	0.67847 0.66030 0.23509 0.50500
W 	W 	0.43865 0.44559 0.12307 0.50200
Fe	Fe	0.60692 0.91843 0.23421 1.03200
Fe	Fe	0.28422 0.62817 0.09087 1.02800
Fe	Fe	0.62834 0.38856 0.24700 1.02500
Fe	Fe	0.52762 0.65314 0.06932 1.03300
C 	C 	0.45260 0.75870 0.17090 -0.02800
N 	N 	0.47150 0.71900 0.19920 -0.23200
C 	C 	0.40900 0.87450 0.17740 -0.03900
N 	N 	0.40450 0.89350 0.20890 -0.26200
C 	C 	0.49390 0.87390 0.16540 -0.03900
N 	N 	0.53360 0.89170 0.19110 -0.26300
C 	C 	0.46580 0.77070 0.09830 -0.04900
N 	N 	0.48980 0.73170 0.08700 -0.25900
C 	C 	0.36200 0.75870 0.10850 -0.04400
N 	N 	0.33160 0.71540 0.10180 -0.25800
C 	C 	0.35070 0.90200 0.09700 -0.05900
N 	N 	0.31380 0.93380 0.08390 -0.12400
C 	C 	0.38110 0.82710 0.04620 -0.05700
N 	N 	0.35860 0.82150 0.00840 -0.15000
C 	C 	0.44110 0.92940 0.09390 -0.06600
N 	N 	0.45310 0.97780 0.08090 -0.11800
C 	C 	0.60810 0.65630 0.24330 -0.03200
N 	N 	0.56980 0.65100 0.24660 -0.23100
C 	C 	0.64970 0.76500 0.23300 -0.04100
N 	N 	0.63420 0.82130 0.23140 -0.26600
C 	C 	0.65720 0.55070 0.23520 -0.03700
N 	N 	0.64630 0.49430 0.23820 -0.25700
C 	C 	0.62100 0.64860 0.16810 -0.04800
N 	N 	0.58800 0.64620 0.13180 -0.25800
C 	C 	0.69940 0.63890 0.30550 -0.04400
N 	N 	0.70830 0.62850 0.34260 -0.26100
C 	C 	0.74000 0.59540 0.23570 -0.07200
N 	N 	0.77380 0.56030 0.23660 -0.14800
C 	C 	0.70390 0.71270 0.18820 -0.06100
N 	N 	0.72440 0.74970 0.17100 -0.09800
N 	N 	0.71310 0.73040 0.15820 -0.04000
C 	C 	0.74520 0.72340 0.27450 -0.06500
N 	N 	0.77990 0.75830 0.29450 -0.14700
C 	C 	0.46540 0.52600 0.17480 -0.02800
N 	N 	0.47760 0.56870 0.20200 -0.23500
C 	C 	0.51180 0.41280 0.17310 -0.04100
N 	N 	0.55190 0.39780 0.19970 -0.25500
C 	C 	0.40700 0.41890 0.17120 -0.04000
N 	N 	0.39150 0.40730 0.19830 -0.25700
C 	C 	0.46860 0.53020 0.09680 -0.04100
N 	N 	0.48710 0.57370 0.08380 -0.25900
C 	C 	0.37700 0.51880 0.10960 -0.03900
N 	N 	0.34460 0.55840 0.10320 -0.25800
C 	C 	0.43320 0.33390 0.12700 -0.03400
N 	N 	0.43110 0.27180 0.12990 -0.07800
C 	C 	0.41380 0.33900 0.11210 -0.01300
N 	N 	0.40270 0.28170 0.10930 -0.07000
C 	C 	0.37580 0.42060 0.05970 0.00800
N 	N 	0.34490 0.41120 0.02440 -0.08300
C 	C 	0.38870 0.44120 0.05210 -0.04900
N 	N 	0.36180 0.44600 0.01670 -0.08200
C 	C 	0.47770 0.39820 0.08540 -0.05600
N 	N 	0.49800 0.37530 0.06410 -0.14900
W 	W 	0.58033 0.83773 0.38076 0.50600
W 	W 	0.32153 0.66030 0.26491 0.50600
W 	W 	0.56135 0.44559 0.37693 0.50300
Fe	Fe	0.39308 0.91843 0.26579 1.03300
Fe	Fe	0.71578 0.62817 0.40913 1.03000
Fe	Fe	0.37166 0.38856 0.25300 1.02500
Fe	Fe	0.47238 0.65314 0.43068 1.03400
C 	C 	0.54740 0.75870 0.32910 -0.02700
N 	N 	0.52850 0.71900 0.30080 -0.23100
C 	C 	0.59100 0.87450 0.32260 -0.03700
N 	N 	0.59550 0.89350 0.29110 -0.26000
C 	C 	0.50610 0.87390 0.33460 -0.03900
N 	N 	0.46640 0.89170 0.30890 -0.26300
C 	C 	0.53420 0.77070 0.40170 -0.04900
N 	N 	0.51020 0.73170 0.41300 -0.25900
C 	C 	0.63800 0.75870 0.39150 -0.04400
N 	N 	0.66840 0.71540 0.39820 -0.25700
C 	C 	0.64930 0.90200 0.40300 -0.05800
N 	N 	0.68620 0.93380 0.41610 -0.12300
C 	C 	0.61890 0.82710 0.45380 -0.05700
N 	N 	0.64140 0.82150 0.49160 -0.15000
C 	C 	0.55890 0.92940 0.40610 -0.06500
N 	N 	0.54690 0.97780 0.41910 -0.11800
C 	C 	0.39190 0.65630 0.25670 -0.03200
N 	N 	0.43020 0.65100 0.25340 -0.23100
C 	C 	0.35030 0.76500 0.26700 -0.04100
N 	N 	0.36580 0.82130 0.26860 -0.26600
C 	C 	0.34280 0.55070 0.26480 -0.03700
N 	N 	0.35370 0.49430 0.26180 -0.25700
C 	C 	0.37900 0.64860 0.33190 -0.04800
N 	N 	0.41200 0.64620 0.36820 -0.25900
C 	C 	0.30060 0.63890 0.19450 -0.04500
N 	N 	0.29170 0.62850 0.15740 -0.26200
C 	C 	0.26000 0.59540 0.26430 -0.07300
N 	N 	0.22620 0.56030 0.26340 -0.15100
C 	C 	0.29610 0.71270 0.31180 -0.06200
N 	N 	0.27560 0.74970 0.32900 -0.09900
N 	N 	0.28690 0.73040 0.34180 -0.04000
C 	C 	0.25480 0.72340 0.22550 -0.06600
N 	N 	0.22010 0.75830 0.20550 -0.15000
C 	C 	0.53460 0.52600 0.32520 -0.02800
N 	N 	0.52240 0.56870 0.29800 -0.23500
C 	C 	0.48820 0.41280 0.32690 -0.04100
N 	N 	0.44810 0.39780 0.30030 -0.25500
C 	C 	0.59300 0.41890 0.32880 -0.03900
N 	N 	0.60850 0.40730 0.30170 -0.25700
C 	C 	0.53140 0.53020 0.40320 -0.04100
N 	N 	0.51290 0.57370 0.41620 -0.25900
C 	C 	0.62300 0.51880 0.39040 -0.03800
N 	N 	0.65540 0.55840 0.39680 -0.25700
C 	C 	0.56680 0.33390 0.37300 -0.03300
N 	N 	0.56890 0.27180 0.37010 -0.07900
C 	C 	0.58620 0.33900 0.38790 -0.01400
N 	N 	0.59730 0.28170 0.39070 -0.06900
C 	C 	0.62420 0.42060 0.44030 0.00700
N 	N 	0.65510 0.41120 0.47560 -0.08200
C 	C 	0.61130 0.44120 0.44790 -0.04800
N 	N 	0.63820 0.44600 0.48330 -0.08200
C 	C 	0.52230 0.39820 0.41460 -0.05700
N 	N 	0.50200 0.37530 0.43590 -0.14900
Fe	Fe	0.50000 0.64566 0.25000 1.14900
W 	W 	0.91967 0.33773 0.11924 0.50200
W 	W 	0.17847 0.16030 0.23509 0.50600
W 	W 	0.93865 0.94559 0.12307 0.51400
Fe	Fe	0.10692 0.41843 0.23421 1.03000
Fe	Fe	0.78422 0.12817 0.09087 1.03000
Fe	Fe	0.12834 0.88856 0.24700 1.02300
Fe	Fe	0.02762 0.15314 0.06932 1.02400
C 	C 	0.95260 0.25870 0.17090 -0.02500
N 	N 	0.97150 0.21900 0.19920 -0.22500
C 	C 	0.90900 0.37450 0.17740 -0.03500
N 	N 	0.90450 0.39350 0.20890 -0.25900
C 	C 	0.99390 0.37390 0.16540 -0.01400
N 	N 	0.03360 0.39170 0.19110 -0.28200
C 	C 	0.96580 0.27070 0.09830 -0.04500
N 	N 	0.98980 0.23170 0.08700 -0.25200
C 	C 	0.86200 0.25870 0.10850 -0.04300
N 	N 	0.83160 0.21540 0.10180 -0.25700
C 	C 	0.85070 0.40200 0.09700 -0.05700
N 	N 	0.81380 0.43380 0.08390 -0.12300
C 	C 	0.88110 0.32710 0.04620 -0.05500
N 	N 	0.85860 0.32150 0.00840 -0.14900
C 	C 	0.94110 0.42940 0.09390 -0.06300
N 	N 	0.95310 0.47780 0.08090 -0.11400
C 	C 	0.10810 0.15630 0.24330 -0.03500
N 	N 	0.06980 0.15100 0.24660 -0.23400
C 	C 	0.14970 0.26500 0.23300 -0.04300
N 	N 	0.13420 0.32130 0.23140 -0.26700
C 	C 	0.15720 0.05070 0.23520 -0.03800
N 	N 	0.14630 0.99430 0.23820 -0.25800
C 	C 	0.12100 0.14860 0.16810 -0.05100
N 	N 	0.08800 0.14620 0.13180 -0.26200
C 	C 	0.19940 0.13890 0.30550 -0.04400
N 	N 	0.20830 0.12850 0.34260 -0.26100
C 	C 	0.24000 0.09540 0.23570 -0.07300
N 	N 	0.27380 0.06030 0.23660 -0.15000
C 	C 	0.20390 0.21270 0.18820 -0.06200
N 	N 	0.22440 0.24970 0.17100 -0.09900
N 	N 	0.21310 0.23040 0.15820 -0.04100
C 	C 	0.24520 0.22340 0.27450 -0.06500
N 	N 	0.27990 0.25830 0.29450 -0.14900
C 	C 	0.96540 0.02600 0.17480 -0.02200
N 	N 	0.97760 0.06870 0.20200 -0.22800
C 	C 	0.01180 0.91280 0.17310 -0.06300
N 	N 	0.05190 0.89780 0.19970 -0.25400
C 	C 	0.90700 0.91890 0.17120 -0.03700
N 	N 	0.89150 0.90730 0.19830 -0.25500
C 	C 	0.96860 0.03020 0.09680 -0.03700
N 	N 	0.98710 0.07370 0.08380 -0.25200
C 	C 	0.87700 0.01880 0.10960 -0.04000
N 	N 	0.84460 0.05840 0.10320 -0.25700
C 	C 	0.93320 0.83390 0.12700 -0.04100
N 	N 	0.93110 0.77180 0.12990 -0.07200
C 	C 	0.91380 0.83900 0.11210 -0.00300
N 	N 	0.90270 0.78170 0.10930 -0.07200
C 	C 	0.87580 0.92060 0.05970 0.01000
N 	N 	0.84490 0.91120 0.02440 -0.08300
C 	C 	0.88870 0.94120 0.05210 -0.05200
N 	N 	0.86180 0.94600 0.01670 -0.08000
C 	C 	0.97770 0.89820 0.08540 -0.05000
N 	N 	0.99800 0.87530 0.06410 -0.14300
W 	W 	0.08033 0.33773 0.38076 0.50900
W 	W 	0.82153 0.16030 0.26491 0.50600
W 	W 	0.06135 0.94559 0.37693 0.49200
Fe	Fe	0.89308 0.41843 0.26579 1.03600
Fe	Fe	0.21578 0.12817 0.40913 1.02900
Fe	Fe	0.87166 0.88856 0.25300 1.02800
Fe	Fe	0.97238 0.15314 0.43068 1.04500
C 	C 	0.04740 0.25870 0.32910 -0.03000
N 	N 	0.02850 0.21900 0.30080 -0.23500
C 	C 	0.09100 0.37450 0.32260 -0.04000
N 	N 	0.09550 0.39350 0.29110 -0.26200
C 	C 	0.00610 0.37390 0.33460 -0.06300
N 	N 	0.96640 0.39170 0.30890 -0.24400
C 	C 	0.03420 0.27070 0.40170 -0.05200
N 	N 	0.01020 0.23170 0.41300 -0.26600
C 	C 	0.13800 0.25870 0.39150 -0.04400
N 	N 	0.16840 0.21540 0.39820 -0.25800
C 	C 	0.14930 0.40200 0.40300 -0.05900
N 	N 	0.18620 0.43380 0.41610 -0.12400
C 	C 	0.11890 0.32710 0.45380 -0.05900
N 	N 	0.14140 0.32150 0.49160 -0.15200
C 	C 	0.05890 0.42940 0.40610 -0.06800
N 	N 	0.04690 0.47780 0.41910 -0.12200
C 	C 	0.89190 0.15630 0.25670 -0.03000
N 	N 	0.93020 0.15100 0.25340 -0.22500
C 	C 	0.85030 0.26500 0.26700 -0.03900
N 	N 	0.86580 0.32130 0.26860 -0.26400
C 	C 	0.84280 0.05070 0.26480 -0.03600
N 	N 	0.85370 0.99430 0.26180 -0.25600
C 	C 	0.87900 0.14860 0.33190 -0.04500
N 	N 	0.91200 0.14620 0.36820 -0.25500
C 	C 	0.80060 0.13890 0.19450 -0.04400
N 	N 	0.79170 0.12850 0.15740 -0.26100
C 	C 	0.76000 0.09540 0.26430 -0.07200
N 	N 	0.72620 0.06030 0.26340 -0.14900
C 	C 	0.79610 0.21270 0.31180 -0.06100
N 	N 	0.77560 0.24970 0.32900 -0.09900
N 	N 	0.78690 0.23040 0.34180 -0.03900
C 	C 	0.75480 0.22340 0.22550 -0.06500
N 	N 	0.72010 0.25830 0.20550 -0.14800
C 	C 	0.03460 0.02600 0.32520 -0.03500
N 	N 	0.02240 0.06870 0.29800 -0.23800
C 	C 	0.98820 0.91280 0.32690 -0.01900
N 	N 	0.94810 0.89780 0.30030 -0.25600
C 	C 	0.09300 0.91890 0.32880 -0.04200
N 	N 	0.10850 0.90730 0.30170 -0.25800
C 	C 	0.03140 0.03020 0.40320 -0.04400
N 	N 	0.01290 0.07370 0.41620 -0.26600
C 	C 	0.12300 0.01880 0.39040 -0.03700
N 	N 	0.15540 0.05840 0.39680 -0.25800
C 	C 	0.06680 0.83390 0.37300 -0.02600
N 	N 	0.06890 0.77180 0.37010 -0.08500
C 	C 	0.08620 0.83900 0.38790 -0.02400
N 	N 	0.09730 0.78170 0.39070 -0.06700
C 	C 	0.12420 0.92060 0.44030 0.00500
N 	N 	0.15510 0.91120 0.47560 -0.08200
C 	C 	0.11130 0.94120 0.44790 -0.04400
N 	N 	0.13820 0.94600 0.48330 -0.08400
C 	C 	0.02230 0.89820 0.41460 -0.06300
N 	N 	0.00200 0.87530 0.43590 -0.15400
Fe	Fe	0.00000 0.14566 0.25000 1.13900
W 	W 	0.58033 0.16227 0.88076 0.50600
W 	W 	0.32153 0.33970 0.76491 0.50600
W 	W 	0.56135 0.55441 0.87693 0.50300
Fe	Fe	0.39308 0.08157 0.76579 1.03300
Fe	Fe	0.71578 0.37183 0.90913 1.03000
Fe	Fe	0.37166 0.61144 0.75300 1.02500
Fe	Fe	0.47238 0.34686 0.93068 1.03400
C 	C 	0.54740 0.24130 0.82910 -0.02700
N 	N 	0.52850 0.28100 0.80080 -0.23100
C 	C 	0.59100 0.12550 0.82260 -0.03700
N 	N 	0.59550 0.10650 0.79110 -0.26100
C 	C 	0.50610 0.12610 0.83460 -0.03900
N 	N 	0.46640 0.10830 0.80890 -0.26300
C 	C 	0.53420 0.22930 0.90170 -0.04900
N 	N 	0.51020 0.26830 0.91300 -0.25900
C 	C 	0.63800 0.24130 0.89150 -0.04400
N 	N 	0.66840 0.28460 0.89820 -0.25800
C 	C 	0.64930 0.09800 0.90300 -0.05800
N 	N 	0.68620 0.06620 0.91610 -0.12300
C 	C 	0.61890 0.17290 0.95380 -0.05700
N 	N 	0.64140 0.17850 0.99160 -0.15100
C 	C 	0.55890 0.07060 0.90610 -0.06600
N 	N 	0.54690 0.02220 0.91910 -0.11800
C 	C 	0.39190 0.34370 0.75670 -0.03200
N 	N 	0.43020 0.34900 0.75340 -0.23100
C 	C 	0.35030 0.23500 0.76700 -0.04100
N 	N 	0.36580 0.17870 0.76860 -0.26600
C 	C 	0.34280 0.44930 0.76480 -0.03700
N 	N 	0.35370 0.50570 0.76180 -0.25700
C 	C 	0.37900 0.35140 0.83190 -0.04800
N 	N 	0.41200 0.35380 0.86820 -0.25900
C 	C 	0.30060 0.36110 0.69450 -0.04500
N 	N 	0.29170 0.37150 0.65740 -0.26200
C 	C 	0.26000 0.40460 0.76430 -0.07300
N 	N 	0.22620 0.43970 0.76340 -0.15100
C 	C 	0.29610 0.28730 0.81180 -0.06200
N 	N 	0.27560 0.25030 0.82900 -0.09900
N 	N 	0.28690 0.26960 0.84180 -0.04000
C 	C 	0.25480 0.27660 0.72550 -0.06600
N 	N 	0.22010 0.24170 0.70550 -0.15000
C 	C 	0.53460 0.47400 0.82520 -0.02800
N 	N 	0.52240 0.43130 0.79800 -0.23500
C 	C 	0.48820 0.58720 0.82690 -0.04100
N 	N 	0.44810 0.60220 0.80030 -0.25500
C 	C 	0.59300 0.58110 0.82880 -0.04000
N 	N 	0.60850 0.59270 0.80170 -0.25700
C 	C 	0.53140 0.46980 0.90320 -0.04100
N 	N 	0.51290 0.42630 0.91620 -0.25900
C 	C 	0.62300 0.48120 0.89040 -0.03800
N 	N 	0.65540 0.44160 0.89680 -0.25700
C 	C 	0.56680 0.66610 0.87300 -0.03300
N 	N 	0.56890 0.72820 0.87010 -0.07900
C 	C 	0.58620 0.66100 0.88790 -0.01400
N 	N 	0.59730 0.71830 0.89070 -0.06900
C 	C 	0.62420 0.57940 0.94030 0.00700
N 	N 	0.65510 0.58880 0.97560 -0.08300
C 	C 	0.61130 0.55880 0.94790 -0.04800
N 	N 	0.63820 0.55400 0.98330 -0.08200
C 	C 	0.52230 0.60180 0.91460 -0.05700
N 	N 	0.50200 0.62470 0.93590 -0.14900
W 	W 	0.41967 0.16227 0.61924 0.50600
W 	W 	0.67847 0.33970 0.73509 0.50600
W 	W 	0.43865 0.55441 0.62307 0.50300
Fe	Fe	0.60692 0.08157 0.73421 1.03300
Fe	Fe	0.28422 0.37183 0.59087 1.02900
Fe	Fe	0.62834 0.61144 0.74700 1.02600
Fe	Fe	0.52762 0.34686 0.56932 1.03400
C 	C 	0.45260 0.24130 0.67090 -0.02700
N 	N 	0.47150 0.28100 0.69920 -0.23100
C 	C 	0.40900 0.12550 0.67740 -0.03800
N 	N 	0.40450 0.10650 0.70890 -0.26100
C 	C 	0.49390 0.12610 0.66540 -0.03900
N 	N 	0.53360 0.10830 0.69110 -0.26300
C 	C 	0.46580 0.22930 0.59830 -0.04900
N 	N 	0.48980 0.26830 0.58700 -0.25900
C 	C 	0.36200 0.24130 0.60850 -0.04400
N 	N 	0.33160 0.28460 0.60180 -0.25800
C 	C 	0.35070 0.09800 0.59700 -0.05900
N 	N 	0.31380 0.06620 0.58390 -0.12400
C 	C 	0.38110 0.17290 0.54620 -0.05700
N 	N 	0.35860 0.17850 0.50840 -0.15000
C 	C 	0.44110 0.07060 0.59390 -0.06500
N 	N 	0.45310 0.02220 0.58090 -0.11800
C 	C 	0.60810 0.34370 0.74330 -0.03200
N 	N 	0.56980 0.34900 0.74660 -0.23100
C 	C 	0.64970 0.23500 0.73300 -0.04100
N 	N 	0.63420 0.17870 0.73140 -0.26600
C 	C 	0.65720 0.44930 0.73520 -0.03700
N 	N 	0.64630 0.50570 0.73820 -0.25700
C 	C 	0.62100 0.35140 0.66810 -0.04800
N 	N 	0.58800 0.35380 0.63180 -0.25800
C 	C 	0.69940 0.36110 0.80550 -0.04400
N 	N 	0.70830 0.37150 0.84260 -0.26100
C 	C 	0.74000 0.40460 0.73570 -0.07200
N 	N 	0.77380 0.43970 0.73660 -0.14900
C 	C 	0.70390 0.28730 0.68820 -0.06100
N 	N 	0.72440 0.25030 0.67100 -0.09800
N 	N 	0.71310 0.26960 0.65820 -0.04000
C 	C 	0.74520 0.27660 0.77450 -0.06500
N 	N 	0.77990 0.24170 0.79450 -0.14700
C 	C 	0.46540 0.47400 0.67480 -0.02800
N 	N 	0.47760 0.43130 0.70200 -0.23500
C 	C 	0.51180 0.58720 0.67310 -0.04100
N 	N 	0.55190 0.60220 0.69970 -0.25500
C 	C 	0.40700 0.58110 0.67120 -0.04000
N 	N 	0.39150 0.59270 0.69830 -0.25700
C 	C 	0.46860 0.46980 0.59680 -0.04100
N 	N 	0.48710 0.42630 0.58380 -0.25900
C 	C 	0.37700 0.48120 0.60960 -0.03900
N 	N 	0.34460 0.44160 0.60320 -0.25700
C 	C 	0.43320 0.66610 0.62700 -0.03400
N 	N 	0.43110 0.72820 0.62990 -0.07800
C 	C 	0.41380 0.66100 0.61210 -0.01400
N 	N 	0.40270 0.71830 0.60930 -0.07000
C 	C 	0.37580 0.57940 0.55970 0.00800
N 	N 	0.34490 0.58880 0.52440 -0.08300
C 	C 	0.38870 0.55880 0.55210 -0.04900
N 	N 	0.36180 0.55400 0.51670 -0.08200
C 	C 	0.47770 0.60180 0.58540 -0.05600
N 	N 	0.49800 0.62470 0.56410 -0.14900
Fe	Fe	0.50000 0.35434 0.75000 1.14900
W 	W 	0.08033 0.66227 0.88076 0.50900
W 	W 	0.82153 0.83970 0.76491 0.50600
W 	W 	0.06135 0.05441 0.87693 0.49200
Fe	Fe	0.89308 0.58157 0.76579 1.03500
Fe	Fe	0.21578 0.87183 0.90913 1.02900
Fe	Fe	0.87166 0.11144 0.75300 1.02700
Fe	Fe	0.97238 0.84686 0.93068 1.04400
C 	C 	0.04740 0.74130 0.82910 -0.03000
N 	N 	0.02850 0.78100 0.80080 -0.23500
C 	C 	0.09100 0.62550 0.82260 -0.03900
N 	N 	0.09550 0.60650 0.79110 -0.26200
C 	C 	0.00610 0.62610 0.83460 -0.06100
N 	N 	0.96640 0.60830 0.80890 -0.24500
C 	C 	0.03420 0.72930 0.90170 -0.05200
N 	N 	0.01020 0.76830 0.91300 -0.26600
C 	C 	0.13800 0.74130 0.89150 -0.04400
N 	N 	0.16840 0.78460 0.89820 -0.25800
C 	C 	0.14930 0.59800 0.90300 -0.05900
N 	N 	0.18620 0.56620 0.91610 -0.12400
C 	C 	0.11890 0.67290 0.95380 -0.05900
N 	N 	0.14140 0.67850 0.99160 -0.15200
C 	C 	0.05890 0.57060 0.90610 -0.06800
N 	N 	0.04690 0.52220 0.91910 -0.12200
C 	C 	0.89190 0.84370 0.75670 -0.03100
N 	N 	0.93020 0.84900 0.75340 -0.22500
C 	C 	0.85030 0.73500 0.76700 -0.03900
N 	N 	0.86580 0.67870 0.76860 -0.26500
C 	C 	0.84280 0.94930 0.76480 -0.03600
N 	N 	0.85370 0.00570 0.76180 -0.25600
C 	C 	0.87900 0.85140 0.83190 -0.04600
N 	N 	0.91200 0.85380 0.86820 -0.25500
C 	C 	0.80060 0.86110 0.69450 -0.04400
N 	N 	0.79170 0.87150 0.65740 -0.26100
C 	C 	0.76000 0.90460 0.76430 -0.07200
N 	N 	0.72620 0.93970 0.76340 -0.14900
C 	C 	0.79610 0.78730 0.81180 -0.06100
N 	N 	0.77560 0.75030 0.82900 -0.09900
N 	N 	0.78690 0.76960 0.84180 -0.03900
C 	C 	0.75480 0.77660 0.72550 -0.06500
N 	N 	0.72010 0.74170 0.70550 -0.14900
C 	C 	0.03460 0.97400 0.82520 -0.03400
N 	N 	0.02240 0.93130 0.79800 -0.23800
C 	C 	0.98820 0.08720 0.82690 -0.02000
N 	N 	0.94810 0.10220 0.80030 -0.25600
C 	C 	0.09300 0.08110 0.82880 -0.04200
N 	N 	0.10850 0.09270 0.80170 -0.25800
C 	C 	0.03140 0.96980 0.90320 -0.04400
N 	N 	0.01290 0.92630 0.91620 -0.26600
C 	C 	0.12300 0.98120 0.89040 -0.03700
N 	N 	0.15540 0.94160 0.89680 -0.25800
C 	C 	0.06680 0.16610 0.87300 -0.02600
N 	N 	0.06890 0.22820 0.87010 -0.08500
C 	C 	0.08620 0.16100 0.88790 -0.02400
N 	N 	0.09730 0.21830 0.89070 -0.06700
C 	C 	0.12420 0.07940 0.94030 0.00500
N 	N 	0.15510 0.08880 0.97560 -0.08200
C 	C 	0.11130 0.05880 0.94790 -0.04400
N 	N 	0.13820 0.05400 0.98330 -0.08400
C 	C 	0.02230 0.10180 0.91460 -0.06300
N 	N 	0.00200 0.12470 0.93590 -0.15400
W 	W 	0.91967 0.66227 0.61924 0.50200
W 	W 	0.17847 0.83970 0.73509 0.50600
W 	W 	0.93865 0.05441 0.62307 0.51400
Fe	Fe	0.10692 0.58157 0.73421 1.03100
Fe	Fe	0.78422 0.87183 0.59087 1.03000
Fe	Fe	0.12834 0.11144 0.74700 1.02300
Fe	Fe	0.02762 0.84686 0.56932 1.02400
C 	C 	0.95260 0.74130 0.67090 -0.02500
N 	N 	0.97150 0.78100 0.69920 -0.22500
C 	C 	0.90900 0.62550 0.67740 -0.03500
N 	N 	0.90450 0.60650 0.70890 -0.25900
C 	C 	0.99390 0.62610 0.66540 -0.01500
N 	N 	0.03360 0.60830 0.69110 -0.28100
C 	C 	0.96580 0.72930 0.59830 -0.04500
N 	N 	0.98980 0.76830 0.58700 -0.25300
C 	C 	0.86200 0.74130 0.60850 -0.04300
N 	N 	0.83160 0.78460 0.60180 -0.25700
C 	C 	0.85070 0.59800 0.59700 -0.05700
N 	N 	0.81380 0.56620 0.58390 -0.12300
C 	C 	0.88110 0.67290 0.54620 -0.05500
N 	N 	0.85860 0.67850 0.50840 -0.14900
C 	C 	0.94110 0.57060 0.59390 -0.06300
N 	N 	0.95310 0.52220 0.58090 -0.11400
C 	C 	0.10810 0.84370 0.74330 -0.03400
N 	N 	0.06980 0.84900 0.74660 -0.23400
C 	C 	0.14970 0.73500 0.73300 -0.04300
N 	N 	0.13420 0.67870 0.73140 -0.26700
C 	C 	0.15720 0.94930 0.73520 -0.03800
N 	N 	0.14630 0.00570 0.73820 -0.25800
C 	C 	0.12100 0.85140 0.66810 -0.05100
N 	N 	0.08800 0.85380 0.63180 -0.26200
C 	C 	0.19940 0.86110 0.80550 -0.04400
N 	N 	0.20830 0.87150 0.84260 -0.26100
C 	C 	0.24000 0.90460 0.73570 -0.07300
N 	N 	0.27380 0.93970 0.73660 -0.15000
C 	C 	0.20390 0.78730 0.68820 -0.06200
N 	N 	0.22440 0.75030 0.67100 -0.09900
N 	N 	0.21310 0.76960 0.65820 -0.04100
C 	C 	0.24520 0.77660 0.77450 -0.06500
N 	N 	0.27990 0.74170 0.79450 -0.14900
C 	C 	0.96540 0.97400 0.67480 -0.02200
N 	N 	0.97760 0.93130 0.70200 -0.22900
C 	C 	0.01180 0.08720 0.67310 -0.06300
N 	N 	0.05190 0.10220 0.69970 -0.25400
C 	C 	0.90700 0.08110 0.67120 -0.03700
N 	N 	0.89150 0.09270 0.69830 -0.25500
C 	C 	0.96860 0.96980 0.59680 -0.03800
N 	N 	0.98710 0.92630 0.58380 -0.25300
C 	C 	0.87700 0.98120 0.60960 -0.04000
N 	N 	0.84460 0.94160 0.60320 -0.25700
C 	C 	0.93320 0.16610 0.62700 -0.04000
N 	N 	0.93110 0.22820 0.62990 -0.07200
C 	C 	0.91380 0.16100 0.61210 -0.00400
N 	N 	0.90270 0.21830 0.60930 -0.07200
C 	C 	0.87580 0.07940 0.55970 0.01000
N 	N 	0.84490 0.08880 0.52440 -0.08300
C 	C 	0.88870 0.05880 0.55210 -0.05200
N 	N 	0.86180 0.05400 0.51670 -0.08000
C 	C 	0.97770 0.10180 0.58540 -0.05000
N 	N 	0.99800 0.12470 0.56410 -0.14300
Fe	Fe	0.00000 0.85434 0.75000 1.13900
