data_crystal

_cell_length_a 22.90100
_cell_length_b 22.90100
_cell_length_c 22.27200
_cell_angle_alpha 90.00000
_cell_angle_beta  90.00000
_cell_angle_gamma 120.00000

_symmetry_space_group_name_	'P 1'
_symmetry_space_group_name_H-M	'P 1'

loop_
_symmetry_equiv_pos_as_xyz
  x,y,z

loop_
_atom_site_label
_atom_site_type_symbol
_atom_site_fract_x
_atom_site_fract_y
_atom_site_fract_z
_atom_site_charge
I 	I 	0.76274 0.60953 0.83788 -0.68300
I 	I 	0.81052 0.44464 0.79101 -0.59000
Cu	Cu	0.71652 0.48121 0.80421 0.72200
Cu	Cu	0.84155 0.57580 0.77745 0.72600
N 	N 	0.65620 0.42140 0.87390 -0.17300
N 	N 	0.93790 0.62710 0.81160 -0.18000
C 	C 	0.60430 0.43710 0.88780 -0.05900
H 	H 	0.57400 0.42580 0.85380 0.03800
H 	H 	0.62450 0.48500 0.89550 0.03300
C 	C 	0.69730 0.43060 0.92680 -0.06700
H 	H 	0.71700 0.47660 0.94130 0.03700
H 	H 	0.73340 0.42190 0.91700 0.03700
C 	C 	0.62170 0.35130 0.85570 -0.06100
H 	H 	0.65470 0.33740 0.84800 0.03900
H 	H 	0.59740 0.34630 0.81870 0.03600
C 	C 	0.98580 0.61880 0.77130 -0.07200
H 	H 	0.98380 0.63430 0.73120 0.04200
H 	H 	0.97250 0.57150 0.76890 0.04200
C 	C 	0.94190 0.60120 0.87120 -0.05500
H 	H 	0.92290 0.55280 0.86860 0.03700
H 	H 	0.91490 0.60990 0.89940 0.03300
C 	C 	0.96300 0.70150 0.81810 -0.05400
H 	H 	0.93190 0.70820 0.84280 -0.00200
H 	H 	0.96520 0.72100 0.77890 0.02200
I 	I 	0.39047 0.15321 0.17121 -0.68400
I 	I 	0.55536 0.36588 0.12434 -0.59100
Cu	Cu	0.51879 0.23531 0.13754 0.72100
Cu	Cu	0.42420 0.26575 0.11078 0.72500
N 	N 	0.57860 0.23480 0.20723 -0.17400
N 	N 	0.37290 0.31080 0.14493 -0.18100
C 	C 	0.56290 0.16720 0.22113 -0.06000
H 	H 	0.57420 0.14820 0.18713 0.03700
H 	H 	0.51500 0.13950 0.22883 0.03200
C 	C 	0.56940 0.26670 0.26013 -0.06800
H 	H 	0.52340 0.24040 0.27463 0.03500
H 	H 	0.57810 0.31150 0.25033 0.03600
C 	C 	0.64870 0.27040 0.18903 -0.06200
H 	H 	0.66260 0.31730 0.18133 0.03800
H 	H 	0.65370 0.25110 0.15203 0.03500
C 	C 	0.38120 0.36700 0.10463 -0.07400
H 	H 	0.36570 0.34950 0.06453 0.04100
H 	H 	0.42850 0.40100 0.10223 0.04100
C 	C 	0.39880 0.34070 0.20453 -0.05600
H 	H 	0.44720 0.37010 0.20193 0.03600
H 	H 	0.39010 0.30500 0.23273 0.03300
C 	C 	0.29850 0.26150 0.15143 -0.05500
H 	H 	0.29180 0.22370 0.17613 -0.00300
H 	H 	0.27900 0.24420 0.11223 0.02100
I 	I 	0.84679 0.23726 0.50455 -0.68400
I 	I 	0.63412 0.18948 0.45768 -0.59100
Cu	Cu	0.76469 0.28348 0.47088 0.72100
Cu	Cu	0.73425 0.15845 0.44412 0.72500
N 	N 	0.76520 0.34380 0.54057 -0.17400
N 	N 	0.68920 0.06210 0.47827 -0.18100
C 	C 	0.83280 0.39570 0.55447 -0.06000
H 	H 	0.85180 0.42600 0.52047 0.03700
H 	H 	0.86050 0.37550 0.56217 0.03200
C 	C 	0.73330 0.30270 0.59347 -0.06800
H 	H 	0.75960 0.28300 0.60797 0.03500
H 	H 	0.68850 0.26660 0.58367 0.03600
C 	C 	0.72960 0.37830 0.52237 -0.06200
H 	H 	0.68270 0.34530 0.51467 0.03800
H 	H 	0.74890 0.40260 0.48537 0.03500
C 	C 	0.63300 0.01420 0.43797 -0.07400
H 	H 	0.65050 0.01620 0.39787 0.04100
H 	H 	0.59900 0.02750 0.43557 0.04100
C 	C 	0.65930 0.05810 0.53787 -0.05600
H 	H 	0.62990 0.07710 0.53527 0.03600
H 	H 	0.69500 0.08510 0.56607 0.03300
C 	C 	0.73850 0.03700 0.48477 -0.05500
H 	H 	0.77630 0.06810 0.50947 -0.00300
H 	H 	0.75580 0.03480 0.44557 0.02100
I 	I 	0.23726 0.39047 0.33788 -0.68400
I 	I 	0.18948 0.55536 0.29101 -0.59100
Cu	Cu	0.28348 0.51879 0.30421 0.72100
Cu	Cu	0.15845 0.42420 0.27745 0.72500
N 	N 	0.34380 0.57860 0.37390 -0.17400
N 	N 	0.06210 0.37290 0.31160 -0.18100
C 	C 	0.39570 0.56290 0.38780 -0.06000
H 	H 	0.42600 0.57420 0.35380 0.03700
H 	H 	0.37550 0.51500 0.39550 0.03200
C 	C 	0.30270 0.56940 0.42680 -0.06800
H 	H 	0.28300 0.52340 0.44130 0.03500
H 	H 	0.26660 0.57810 0.41700 0.03600
C 	C 	0.37830 0.64870 0.35570 -0.06200
H 	H 	0.34530 0.66260 0.34800 0.03800
H 	H 	0.40260 0.65370 0.31870 0.03500
C 	C 	0.01420 0.38120 0.27130 -0.07300
H 	H 	0.01620 0.36570 0.23120 0.04100
H 	H 	0.02750 0.42850 0.26890 0.04100
C 	C 	0.05810 0.39880 0.37120 -0.05600
H 	H 	0.07710 0.44720 0.36860 0.03600
H 	H 	0.08510 0.39010 0.39940 0.03200
C 	C 	0.03700 0.29850 0.31810 -0.05500
H 	H 	0.06810 0.29180 0.34280 -0.00300
H 	H 	0.03480 0.27900 0.27890 0.02100
I 	I 	0.60953 0.84679 0.67121 -0.68400
I 	I 	0.44464 0.63412 0.62434 -0.59100
Cu	Cu	0.48121 0.76469 0.63754 0.72100
Cu	Cu	0.57580 0.73425 0.61078 0.72500
N 	N 	0.42140 0.76520 0.70723 -0.17400
N 	N 	0.62710 0.68920 0.64493 -0.18100
C 	C 	0.43710 0.83280 0.72113 -0.06000
H 	H 	0.42580 0.85180 0.68713 0.03700
H 	H 	0.48500 0.86050 0.72883 0.03200
C 	C 	0.43060 0.73330 0.76013 -0.06800
H 	H 	0.47660 0.75960 0.77463 0.03500
H 	H 	0.42190 0.68850 0.75033 0.03600
C 	C 	0.35130 0.72960 0.68903 -0.06200
H 	H 	0.33740 0.68270 0.68133 0.03800
H 	H 	0.34630 0.74890 0.65203 0.03500
C 	C 	0.61880 0.63300 0.60463 -0.07400
H 	H 	0.63430 0.65050 0.56453 0.04100
H 	H 	0.57150 0.59900 0.60223 0.04100
C 	C 	0.60120 0.65930 0.70453 -0.05600
H 	H 	0.55280 0.62990 0.70193 0.03600
H 	H 	0.60990 0.69500 0.73273 0.03300
C 	C 	0.70150 0.73850 0.65143 -0.05500
H 	H 	0.70820 0.77630 0.67613 -0.00300
H 	H 	0.72100 0.75580 0.61223 0.02100
I 	I 	0.15321 0.76274 0.00455 -0.68400
I 	I 	0.36588 0.81052 0.95768 -0.59200
Cu	Cu	0.23531 0.71652 0.97088 0.72100
Cu	Cu	0.26575 0.84155 0.94412 0.72400
N 	N 	0.23480 0.65620 0.04057 -0.17400
N 	N 	0.31080 0.93790 0.97827 -0.18100
C 	C 	0.16720 0.60430 0.05447 -0.06000
H 	H 	0.14820 0.57400 0.02047 0.03700
H 	H 	0.13950 0.62450 0.06217 0.03200
C 	C 	0.26670 0.69730 0.09347 -0.06800
H 	H 	0.24040 0.71700 0.10797 0.03500
H 	H 	0.31150 0.73340 0.08367 0.03600
C 	C 	0.27040 0.62170 0.02237 -0.06100
H 	H 	0.31730 0.65470 0.01467 0.03800
H 	H 	0.25110 0.59740 0.98537 0.03500
C 	C 	0.36700 0.98580 0.93797 -0.07400
H 	H 	0.34950 0.98380 0.89787 0.04100
H 	H 	0.40100 0.97250 0.93557 0.04200
C 	C 	0.34070 0.94190 0.03787 -0.05500
H 	H 	0.37010 0.92290 0.03527 0.03600
H 	H 	0.30500 0.91490 0.06607 0.03200
C 	C 	0.26150 0.96300 0.98477 -0.05600
H 	H 	0.22370 0.93190 0.00947 -0.00200
H 	H 	0.24420 0.96520 0.94557 0.02200
I 	I 	0.60953 0.76274 0.49545 -0.68400
I 	I 	0.44464 0.81052 0.54232 -0.59100
Cu	Cu	0.48121 0.71652 0.52912 0.72100
Cu	Cu	0.57580 0.84155 0.55588 0.72500
N 	N 	0.42140 0.65620 0.45943 -0.17400
N 	N 	0.62710 0.93790 0.52173 -0.18100
C 	C 	0.43710 0.60430 0.44553 -0.06000
H 	H 	0.42580 0.57400 0.47953 0.03700
H 	H 	0.48500 0.62450 0.43783 0.03200
C 	C 	0.43060 0.69730 0.40653 -0.06800
H 	H 	0.47660 0.71700 0.39203 0.03500
H 	H 	0.42190 0.73340 0.41633 0.03600
C 	C 	0.35130 0.62170 0.47763 -0.06200
H 	H 	0.33740 0.65470 0.48533 0.03800
H 	H 	0.34630 0.59740 0.51463 0.03500
C 	C 	0.61880 0.98580 0.56203 -0.07300
H 	H 	0.63430 0.98380 0.60213 0.04100
H 	H 	0.57150 0.97250 0.56443 0.04100
C 	C 	0.60120 0.94190 0.46213 -0.05600
H 	H 	0.55280 0.92290 0.46473 0.03600
H 	H 	0.60990 0.91490 0.43393 0.03300
C 	C 	0.70150 0.96300 0.51523 -0.05500
H 	H 	0.70820 0.93190 0.49053 -0.00300
H 	H 	0.72100 0.96520 0.55443 0.02100
I 	I 	0.15321 0.39047 0.16212 -0.68400
I 	I 	0.36588 0.55536 0.20899 -0.59100
Cu	Cu	0.23531 0.51879 0.19579 0.72100
Cu	Cu	0.26575 0.42420 0.22255 0.72500
N 	N 	0.23480 0.57860 0.12610 -0.17400
N 	N 	0.31080 0.37290 0.18840 -0.18100
C 	C 	0.16720 0.56290 0.11220 -0.06000
H 	H 	0.14820 0.57420 0.14620 0.03700
H 	H 	0.13950 0.51500 0.10450 0.03200
C 	C 	0.26670 0.56940 0.07320 -0.06800
H 	H 	0.24040 0.52340 0.05870 0.03600
H 	H 	0.31150 0.57810 0.08300 0.03600
C 	C 	0.27040 0.64870 0.14430 -0.06200
H 	H 	0.31730 0.66260 0.15200 0.03800
H 	H 	0.25110 0.65370 0.18130 0.03500
C 	C 	0.36700 0.38120 0.22870 -0.07400
H 	H 	0.34950 0.36570 0.26880 0.04100
H 	H 	0.40100 0.42850 0.23110 0.04100
C 	C 	0.34070 0.39880 0.12880 -0.05600
H 	H 	0.37010 0.44720 0.13140 0.03600
H 	H 	0.30500 0.39010 0.10060 0.03300
C 	C 	0.26150 0.29850 0.18190 -0.05500
H 	H 	0.22370 0.29180 0.15720 -0.00300
H 	H 	0.24420 0.27900 0.22110 0.02100
I 	I 	0.23726 0.84679 0.82879 -0.68400
I 	I 	0.18948 0.63412 0.87566 -0.59100
Cu	Cu	0.28348 0.76469 0.86246 0.72100
Cu	Cu	0.15845 0.73425 0.88922 0.72500
N 	N 	0.34380 0.76520 0.79277 -0.17400
N 	N 	0.06210 0.68920 0.85507 -0.18100
C 	C 	0.39570 0.83280 0.77887 -0.06000
H 	H 	0.42600 0.85180 0.81287 0.03700
H 	H 	0.37550 0.86050 0.77117 0.03200
C 	C 	0.30270 0.73330 0.73987 -0.06800
H 	H 	0.28300 0.75960 0.72537 0.03500
H 	H 	0.26660 0.68850 0.74967 0.03600
C 	C 	0.37830 0.72960 0.81097 -0.06200
H 	H 	0.34530 0.68270 0.81867 0.03800
H 	H 	0.40260 0.74890 0.84797 0.03500
C 	C 	0.01420 0.63300 0.89537 -0.07400
H 	H 	0.01620 0.65050 0.93547 0.04100
H 	H 	0.02750 0.59900 0.89777 0.04100
C 	C 	0.05810 0.65930 0.79547 -0.05700
H 	H 	0.07710 0.62990 0.79807 0.03600
H 	H 	0.08510 0.69500 0.76727 0.03300
C 	C 	0.03700 0.73850 0.84857 -0.05500
H 	H 	0.06810 0.77630 0.82387 -0.00200
H 	H 	0.03480 0.75580 0.88777 0.02100
I 	I 	0.39047 0.23726 0.99545 -0.68400
I 	I 	0.55536 0.18948 0.04232 -0.59200
Cu	Cu	0.51879 0.28348 0.02912 0.72100
Cu	Cu	0.42420 0.15845 0.05588 0.72500
N 	N 	0.57860 0.34380 0.95943 -0.17400
N 	N 	0.37290 0.06210 0.02173 -0.18100
C 	C 	0.56290 0.39570 0.94553 -0.06000
H 	H 	0.57420 0.42600 0.97953 0.03700
H 	H 	0.51500 0.37550 0.93783 0.03200
C 	C 	0.56940 0.30270 0.90653 -0.06800
H 	H 	0.52340 0.28300 0.89203 0.03500
H 	H 	0.57810 0.26660 0.91633 0.03600
C 	C 	0.64870 0.37830 0.97763 -0.06100
H 	H 	0.66260 0.34530 0.98533 0.03800
H 	H 	0.65370 0.40260 0.01463 0.03500
C 	C 	0.38120 0.01420 0.06203 -0.07400
H 	H 	0.36570 0.01620 0.10213 0.04100
H 	H 	0.42850 0.02750 0.06443 0.04200
C 	C 	0.39880 0.05810 0.96213 -0.05500
H 	H 	0.44720 0.07710 0.96473 0.03600
H 	H 	0.39010 0.08510 0.93393 0.03200
C 	C 	0.29850 0.03700 0.01523 -0.05500
H 	H 	0.29180 0.06810 0.99053 -0.00200
H 	H 	0.27900 0.03480 0.05443 0.02100
I 	I 	0.84679 0.60953 0.66212 -0.68400
I 	I 	0.63412 0.44464 0.70899 -0.59100
Cu	Cu	0.76469 0.48121 0.69579 0.72100
Cu	Cu	0.73425 0.57580 0.72255 0.72500
N 	N 	0.76520 0.42140 0.62610 -0.17400
N 	N 	0.68920 0.62710 0.68840 -0.18100
C 	C 	0.83280 0.43710 0.61220 -0.06000
H 	H 	0.85180 0.42580 0.64620 0.03700
H 	H 	0.86050 0.48500 0.60450 0.03200
C 	C 	0.73330 0.43060 0.57320 -0.06800
H 	H 	0.75960 0.47660 0.55870 0.03500
H 	H 	0.68850 0.42190 0.58300 0.03600
C 	C 	0.72960 0.35130 0.64430 -0.06200
H 	H 	0.68270 0.33740 0.65200 0.03800
H 	H 	0.74890 0.34630 0.68130 0.03500
C 	C 	0.63300 0.61880 0.72870 -0.07400
H 	H 	0.65050 0.63430 0.76880 0.04100
H 	H 	0.59900 0.57150 0.73110 0.04100
C 	C 	0.65930 0.60120 0.62880 -0.05600
H 	H 	0.62990 0.55280 0.63140 0.03600
H 	H 	0.69500 0.60990 0.60060 0.03300
C 	C 	0.73850 0.70150 0.68190 -0.05500
H 	H 	0.77630 0.70820 0.65720 -0.00300
H 	H 	0.75580 0.72100 0.72110 0.02100
I 	I 	0.76274 0.15321 0.32879 -0.68400
I 	I 	0.81052 0.36588 0.37566 -0.59100
Cu	Cu	0.71652 0.23531 0.36246 0.72100
Cu	Cu	0.84155 0.26575 0.38922 0.72500
N 	N 	0.65620 0.23480 0.29277 -0.17400
N 	N 	0.93790 0.31080 0.35507 -0.18100
C 	C 	0.60430 0.16720 0.27887 -0.06000
H 	H 	0.57400 0.14820 0.31287 0.03700
H 	H 	0.62450 0.13950 0.27117 0.03200
C 	C 	0.69730 0.26670 0.23987 -0.06800
H 	H 	0.71700 0.24040 0.22537 0.03500
H 	H 	0.73340 0.31150 0.24967 0.03600
C 	C 	0.62170 0.27040 0.31097 -0.06200
H 	H 	0.65470 0.31730 0.31867 0.03800
H 	H 	0.59740 0.25110 0.34797 0.03500
C 	C 	0.98580 0.36700 0.39537 -0.07400
H 	H 	0.98380 0.34950 0.43547 0.04100
H 	H 	0.97250 0.40100 0.39777 0.04200
C 	C 	0.94190 0.34070 0.29547 -0.05700
H 	H 	0.92290 0.37010 0.29807 0.03600
H 	H 	0.91490 0.30500 0.26727 0.03300
C 	C 	0.96300 0.26150 0.34857 -0.05600
H 	H 	0.93190 0.22370 0.32387 -0.00200
H 	H 	0.96520 0.24420 0.38777 0.02200
Cu	Cu	0.13645 0.21976 0.39233 0.82500
N 	N 	0.22510 0.14540 0.28290 -0.27500
N 	N 	0.19430 0.20400 0.34340 -0.27000
C 	C 	0.10650 0.12140 0.27340 -0.13300
C 	C 	0.06960 0.04980 0.27060 0.01100
H 	H 	0.09010 0.02590 0.28400 -0.02200
C 	C 	0.17620 0.15700 0.29880 0.09200
C 	C 	0.27860 0.18820 0.31880 0.04200
C 	C 	0.25800 0.22370 0.35540 0.05400
C 	C 	0.30310 0.27140 0.39560 -0.11600
H 	H 	0.28930 0.29510 0.42000 0.04900
C 	C 	0.36880 0.28360 0.39920 -0.02100
H 	H 	0.39900 0.31550 0.42610 0.03300
C 	C 	0.38950 0.24810 0.36260 -0.02400
H 	H 	0.43350 0.25620 0.36510 0.03300
C 	C 	0.34440 0.20040 0.32250 -0.11400
H 	H 	0.35820 0.17660 0.29800 0.05500
Cu	Cu	0.78024 0.91669 0.72566 0.82500
N 	N 	0.85460 0.07970 0.61623 -0.27500
N 	N 	0.79600 0.99030 0.67673 -0.27000
C 	C 	0.87860 0.98510 0.60673 -0.13600
C 	C 	0.95020 0.01980 0.60393 0.01500
H 	H 	0.97410 0.06420 0.61733 -0.02300
C 	C 	0.84300 0.01920 0.63213 0.09300
C 	C 	0.81180 0.09040 0.65213 0.04200
C 	C 	0.77630 0.03430 0.68873 0.05400
C 	C 	0.72860 0.03170 0.72893 -0.11600
H 	H 	0.70490 0.99420 0.75333 0.04800
C 	C 	0.71640 0.08520 0.73253 -0.02100
H 	H 	0.68450 0.08350 0.75943 0.03300
C 	C 	0.75190 0.14140 0.69593 -0.02400
H 	H 	0.74380 0.17730 0.69843 0.03300
C 	C 	0.79960 0.14400 0.65583 -0.11400
H 	H 	0.82340 0.18160 0.63133 0.05500
Cu	Cu	0.08331 0.86355 0.05900 0.82500
N 	N 	0.92030 0.77490 0.94957 -0.27500
N 	N 	0.00970 0.80570 0.01007 -0.27000
C 	C 	0.01490 0.89350 0.94007 -0.14500
C 	C 	0.98020 0.93040 0.93727 0.02900
H 	H 	0.93580 0.90990 0.95067 -0.02800
C 	C 	0.98080 0.82380 0.96547 0.09600
C 	C 	0.90960 0.72140 0.98547 0.04200
C 	C 	0.96570 0.74200 0.02207 0.05400
C 	C 	0.96830 0.69690 0.06227 -0.11700
H 	H 	0.00580 0.71070 0.08667 0.04900
C 	C 	0.91480 0.63120 0.06587 -0.02000
H 	H 	0.91650 0.60100 0.09277 0.03300
C 	C 	0.85860 0.61050 0.02927 -0.02600
H 	H 	0.82270 0.56650 0.03177 0.03400
C 	C 	0.85600 0.65560 0.98917 -0.11300
H 	H 	0.81840 0.64180 0.96467 0.05500
Cu	Cu	0.86355 0.78024 0.89233 0.82500
N 	N 	0.77490 0.85460 0.78290 -0.27500
N 	N 	0.80570 0.79600 0.84340 -0.27000
C 	C 	0.89350 0.87860 0.77340 -0.13500
C 	C 	0.93040 0.95020 0.77060 0.01300
H 	H 	0.90990 0.97410 0.78400 -0.02200
C 	C 	0.82380 0.84300 0.79880 0.09300
C 	C 	0.72140 0.81180 0.81880 0.04200
C 	C 	0.74200 0.77630 0.85540 0.05400
C 	C 	0.69690 0.72860 0.89560 -0.11600
H 	H 	0.71070 0.70490 0.92000 0.04900
C 	C 	0.63120 0.71640 0.89920 -0.02100
H 	H 	0.60100 0.68450 0.92610 0.03300
C 	C 	0.61050 0.75190 0.86260 -0.02400
H 	H 	0.56650 0.74380 0.86510 0.03300
C 	C 	0.65560 0.79960 0.82250 -0.11400
H 	H 	0.64180 0.82340 0.79800 0.05500
Cu	Cu	0.21976 0.08331 0.22566 0.82500
N 	N 	0.14540 0.92030 0.11623 -0.27500
N 	N 	0.20400 0.00970 0.17673 -0.27100
C 	C 	0.12140 0.01490 0.10673 -0.13900
C 	C 	0.04980 0.98020 0.10393 0.01900
H 	H 	0.02590 0.93580 0.11733 -0.02400
C 	C 	0.15700 0.98080 0.13213 0.09400
C 	C 	0.18820 0.90960 0.15213 0.04200
C 	C 	0.22370 0.96570 0.18873 0.05400
C 	C 	0.27140 0.96830 0.22893 -0.11500
H 	H 	0.29510 0.00580 0.25333 0.04800
C 	C 	0.28360 0.91480 0.23253 -0.02100
H 	H 	0.31550 0.91650 0.25943 0.03300
C 	C 	0.24810 0.85860 0.19593 -0.02400
H 	H 	0.25620 0.82270 0.19843 0.03300
C 	C 	0.20040 0.85600 0.15583 -0.11400
H 	H 	0.17660 0.81840 0.13133 0.05500
Cu	Cu	0.91669 0.13645 0.55900 0.82500
N 	N 	0.07970 0.22510 0.44957 -0.27500
N 	N 	0.99030 0.19430 0.51007 -0.27100
C 	C 	0.98510 0.10650 0.44007 -0.14100
C 	C 	0.01980 0.06960 0.43727 0.02300
H 	H 	0.06420 0.09010 0.45067 -0.02600
C 	C 	0.01920 0.17620 0.46547 0.09500
C 	C 	0.09040 0.27860 0.48547 0.04200
C 	C 	0.03430 0.25800 0.52207 0.05400
C 	C 	0.03170 0.30310 0.56227 -0.11600
H 	H 	0.99420 0.28930 0.58667 0.04900
C 	C 	0.08520 0.36880 0.56587 -0.02100
H 	H 	0.08350 0.39900 0.59277 0.03300
C 	C 	0.14140 0.38950 0.52927 -0.02400
H 	H 	0.17730 0.43350 0.53177 0.03300
C 	C 	0.14400 0.34440 0.48917 -0.11400
H 	H 	0.18160 0.35820 0.46467 0.05500
Cu	Cu	0.21976 0.13645 0.94100 0.82500
N 	N 	0.14540 0.22510 0.05043 -0.27500
N 	N 	0.20400 0.19430 0.98993 -0.27000
C 	C 	0.12140 0.10650 0.05993 -0.13800
C 	C 	0.04980 0.06960 0.06273 0.01800
H 	H 	0.02590 0.09010 0.04933 -0.02400
C 	C 	0.15700 0.17620 0.03453 0.09400
C 	C 	0.18820 0.27860 0.01453 0.04100
C 	C 	0.22370 0.25800 0.97793 0.05400
C 	C 	0.27140 0.30310 0.93773 -0.11600
H 	H 	0.29510 0.28930 0.91333 0.04900
C 	C 	0.28360 0.36880 0.93413 -0.02100
H 	H 	0.31550 0.39900 0.90723 0.03300
C 	C 	0.24810 0.38950 0.97073 -0.02500
H 	H 	0.25620 0.43350 0.96823 0.03300
C 	C 	0.20040 0.34440 0.01083 -0.11400
H 	H 	0.17660 0.35820 0.03533 0.05500
Cu	Cu	0.91669 0.78024 0.60767 0.82500
N 	N 	0.07970 0.85460 0.71710 -0.27500
N 	N 	0.99030 0.79600 0.65660 -0.27000
C 	C 	0.98510 0.87860 0.72660 -0.13400
C 	C 	0.01980 0.95020 0.72940 0.01200
H 	H 	0.06420 0.97410 0.71600 -0.02200
C 	C 	0.01920 0.84300 0.70120 0.09200
C 	C 	0.09040 0.81180 0.68120 0.04200
C 	C 	0.03430 0.77630 0.64460 0.05400
C 	C 	0.03170 0.72860 0.60440 -0.11600
H 	H 	0.99420 0.70490 0.58000 0.04900
C 	C 	0.08520 0.71640 0.60080 -0.02100
H 	H 	0.08350 0.68450 0.57390 0.03300
C 	C 	0.14140 0.75190 0.63740 -0.02400
H 	H 	0.17730 0.74380 0.63490 0.03300
C 	C 	0.14400 0.79960 0.67750 -0.11400
H 	H 	0.18160 0.82340 0.70200 0.05500
Cu	Cu	0.86355 0.08331 0.27434 0.82500
N 	N 	0.77490 0.92030 0.38377 -0.27500
N 	N 	0.80570 0.00970 0.32327 -0.27100
C 	C 	0.89350 0.01490 0.39327 -0.14100
C 	C 	0.93040 0.98020 0.39607 0.02300
H 	H 	0.90990 0.93580 0.38267 -0.02600
C 	C 	0.82380 0.98080 0.36787 0.09500
C 	C 	0.72140 0.90960 0.34787 0.04200
C 	C 	0.74200 0.96570 0.31127 0.05400
C 	C 	0.69690 0.96830 0.27107 -0.11500
H 	H 	0.71070 0.00580 0.24667 0.04800
C 	C 	0.63120 0.91480 0.26747 -0.02100
H 	H 	0.60100 0.91650 0.24057 0.03300
C 	C 	0.61050 0.85860 0.30407 -0.02400
H 	H 	0.56650 0.82270 0.30157 0.03300
C 	C 	0.65560 0.85600 0.34417 -0.11400
H 	H 	0.64180 0.81840 0.36867 0.05500
Cu	Cu	0.78024 0.86355 0.44100 0.82500
N 	N 	0.85460 0.77490 0.55043 -0.27500
N 	N 	0.79600 0.80570 0.48993 -0.27000
C 	C 	0.87860 0.89350 0.55993 -0.13600
C 	C 	0.95020 0.93040 0.56273 0.01500
H 	H 	0.97410 0.90990 0.54933 -0.02300
C 	C 	0.84300 0.82380 0.53453 0.09300
C 	C 	0.81180 0.72140 0.51453 0.04200
C 	C 	0.77630 0.74200 0.47793 0.05400
C 	C 	0.72860 0.69690 0.43773 -0.11600
H 	H 	0.70490 0.71070 0.41333 0.04900
C 	C 	0.71640 0.63120 0.43413 -0.02100
H 	H 	0.68450 0.60100 0.40723 0.03300
C 	C 	0.75190 0.61050 0.47073 -0.02400
H 	H 	0.74380 0.56650 0.46823 0.03300
C 	C 	0.79960 0.65560 0.51083 -0.11400
H 	H 	0.82340 0.64180 0.53533 0.05500
Cu	Cu	0.08331 0.21976 0.10767 0.82500
N 	N 	0.92030 0.14540 0.21710 -0.27400
N 	N 	0.00970 0.20400 0.15660 -0.27000
C 	C 	0.01490 0.12140 0.22660 -0.13200
C 	C 	0.98020 0.04980 0.22940 0.01000
H 	H 	0.93580 0.02590 0.21600 -0.02100
C 	C 	0.98080 0.15700 0.20120 0.09100
C 	C 	0.90960 0.18820 0.18120 0.04100
C 	C 	0.96570 0.22370 0.14460 0.05400
C 	C 	0.96830 0.27140 0.10440 -0.11800
H 	H 	0.00580 0.29510 0.08000 0.05000
C 	C 	0.91480 0.28360 0.10080 -0.02000
H 	H 	0.91650 0.31550 0.07390 0.03200
C 	C 	0.85860 0.24810 0.13740 -0.02500
H 	H 	0.82270 0.25620 0.13490 0.03300
C 	C 	0.85600 0.20040 0.17750 -0.11400
H 	H 	0.81840 0.17660 0.20200 0.05500
Cu	Cu	0.13645 0.91669 0.77434 0.82500
N 	N 	0.22510 0.07970 0.88377 -0.27500
N 	N 	0.19430 0.99030 0.82327 -0.27100
C 	C 	0.10650 0.98510 0.89327 -0.14500
C 	C 	0.06960 0.01980 0.89607 0.02900
H 	H 	0.09010 0.06420 0.88267 -0.02800
C 	C 	0.17620 0.01920 0.86787 0.09600
C 	C 	0.27860 0.09040 0.84787 0.04200
C 	C 	0.25800 0.03430 0.81127 0.05400
C 	C 	0.30310 0.03170 0.77107 -0.11500
H 	H 	0.28930 0.99420 0.74667 0.04800
C 	C 	0.36880 0.08520 0.76747 -0.02100
H 	H 	0.39900 0.08350 0.74057 0.03300
C 	C 	0.38950 0.14140 0.80407 -0.02400
H 	H 	0.43350 0.17730 0.80157 0.03300
C 	C 	0.34440 0.14400 0.84417 -0.11400
H 	H 	0.35820 0.18160 0.86867 0.05500
C 	C 	0.07685 0.15370 0.25000 0.00400
H 	H 	0.10030 0.20060 0.25000 -0.02700
C 	C 	0.00810 0.01620 0.25000 -0.11800
H 	H 	0.98465 0.96930 0.25000 0.05300
C 	C 	0.84630 0.92315 0.58333 0.00700
H 	H 	0.79940 0.89970 0.58333 -0.02800
C 	C 	0.98380 0.99190 0.58333 -0.12300
H 	H 	0.03070 0.01535 0.58333 0.05500
C 	C 	0.07685 0.92315 0.91667 0.01500
H 	H 	0.10030 0.89970 0.91667 -0.03100
C 	C 	0.00810 0.99190 0.91667 -0.14100
H 	H 	0.98465 0.01535 0.91667 0.06100
C 	C 	0.92315 0.84630 0.75000 0.00500
H 	H 	0.89970 0.79940 0.75000 -0.02700
C 	C 	0.99190 0.98380 0.75000 -0.12100
H 	H 	0.01535 0.03070 0.75000 0.05400
C 	C 	0.15370 0.07685 0.08333 0.00900
H 	H 	0.20060 0.10030 0.08333 -0.02900
C 	C 	0.01620 0.00810 0.08333 -0.12800
H 	H 	0.96930 0.98465 0.08333 0.05600
C 	C 	0.92315 0.07685 0.41667 0.01200
H 	H 	0.89970 0.10030 0.41667 -0.02900
C 	C 	0.99190 0.00810 0.41667 -0.13400
H 	H 	0.01535 0.98465 0.41667 0.05800
