data_crystal

_cell_length_a 24.30700
_cell_length_b 24.52060
_cell_length_c 25.30720
_cell_angle_alpha 118.39300
_cell_angle_beta  111.78700
_cell_angle_gamma 93.76900

_symmetry_space_group_name_	'P 1'
_symmetry_space_group_name_H-M	'P 1'

loop_
_symmetry_equiv_pos_as_xyz
  x,y,z

loop_
_atom_site_label
_atom_site_type_symbol
_atom_site_fract_x
_atom_site_fract_y
_atom_site_fract_z
_atom_site_charge
Cu	Cu	0.48448 0.73717 0.84426 0.90300
Cu	Cu	0.53480 0.38954 0.75776 0.90300
Cu	Cu	0.48031 0.81420 0.95808 0.90300
Cu	Cu	0.45147 0.64802 0.15703 0.90300
Cu	Cu	0.78845 0.59275 0.44640 0.90600
Cu	Cu	0.43117 0.84069 0.58448 0.90400
Cu	Cu	0.77044 0.82658 0.78660 0.90200
Cu	Cu	0.88560 0.62178 0.43099 0.90600
Cu	Cu	0.41495 0.95453 0.61048 0.90500
Cu	Cu	0.86042 0.93485 0.88205 0.90400
Cu	Cu	0.17034 0.51644 0.28737 0.90500
Cu	Cu	0.05960 0.51722 0.21369 0.90400
O 	O 	0.39208 0.76318 0.90203 -0.40800
O 	O 	0.42040 0.86300 0.66388 -0.41100
O 	O 	0.51146 0.68233 0.88025 -0.39200
O 	O 	0.49944 0.74547 0.97323 -0.40500
O 	O 	0.54168 0.67580 0.19509 -0.39900
O 	O 	0.46052 0.87559 0.92989 -0.38600
O 	O 	0.54460 0.47354 0.83420 -0.40100
O 	O 	0.75313 0.62700 0.38930 -0.41200
O 	O 	0.47190 0.69870 0.30839 -0.40400
O 	O 	0.56944 0.79330 0.89273 -0.40700
O 	O 	0.54740 0.44020 0.90374 -0.39700
O 	O 	0.39833 0.68970 0.80979 -0.39600
O 	O 	0.45501 0.80400 0.82867 -0.40300
O 	O 	0.45480 0.72926 0.23481 -0.40400
O 	O 	0.74350 0.84640 0.85710 -0.40500
O 	O 	0.44110 0.83360 0.50885 -0.40700
O 	O 	0.50440 0.99070 0.67157 -0.39700
O 	O 	0.17170 0.21370 0.17810 -0.40800
O 	O 	0.40250 0.95790 0.68473 -0.40200
O 	O 	0.37432 0.59050 0.20500 -0.39500
O 	O 	0.51930 0.89230 0.64530 -0.39100
O 	O 	0.92341 0.59210 0.49170 -0.40800
O 	O 	0.04480 0.42420 0.16050 -0.42100
O 	O 	0.72345 0.88170 0.76430 -0.40100
O 	O 	0.34080 0.80830 0.52689 -0.39500
O 	O 	0.81190 0.82490 0.73190 -0.40500
O 	O 	0.83400 0.64820 0.37220 -0.40100
O 	O 	0.84060 0.56310 0.50230 -0.39400
O 	O 	0.14840 0.46810 0.64725 -0.39200
O 	O 	0.88990 0.91690 0.81540 -0.40000
O 	O 	0.55310 0.63830 0.26290 -0.39900
O 	O 	0.82460 0.68080 0.52648 -0.40000
O 	O 	0.81930 0.93990 0.93710 -0.41100
O 	O 	0.43260 0.93290 0.53412 -0.40600
O 	O 	0.36258 0.61190 0.12520 -0.40300
O 	O 	0.23328 0.49050 0.63450 -0.39900
O 	O 	0.19470 0.52500 0.22540 -0.40400
O 	O 	0.18290 0.61090 0.33750 -0.39900
O 	O 	0.57035 0.85420 0.99260 -0.39900
O 	O 	0.09620 0.12110 0.09400 -0.40300
O 	O 	0.90370 0.70840 0.50990 -0.39700
O 	O 	0.80230 0.97440 0.84350 -0.39400
O 	O 	0.32780 0.90590 0.54620 -0.40300
C 	C 	0.52450 0.64960 0.95770 -0.13300
O 	O 	0.13640 0.42140 0.22330 -0.40300
O 	O 	0.10200 0.52790 0.16370 -0.40600
O 	O 	0.96050 0.49290 0.72150 -0.39100
C 	C 	0.52990 0.59140 0.91500 0.11300
C 	C 	0.43370 0.90280 0.84870 -0.13600
C 	C 	0.42800 0.88740 0.78550 0.11100
O 	O 	0.86490 0.49230 0.65850 -0.39700
O 	O 	0.08780 0.61200 0.27530 -0.39300
C 	C 	0.46290 0.73860 0.29100 0.38000
C 	C 	0.54070 0.54560 0.93380 -0.13000
C 	C 	0.41380 0.93120 0.76530 -0.13300
C 	C 	0.65810 0.88130 0.98010 -0.13700
C 	C 	0.45170 0.85740 0.87030 0.36600
C 	C 	0.36970 0.71220 0.84510 0.38100
C 	C 	0.42640 0.96140 0.89090 0.07900
C 	C 	0.54350 0.48080 0.88700 0.37200
C 	C 	0.22180 0.57240 0.72750 -0.12200
C 	C 	0.70810 0.98020 0.77820 -0.13100
C 	C 	0.68340 0.86820 0.93640 0.11600
C 	C 	0.57390 0.66110 0.23550 0.37100
C 	C 	0.28190 0.61030 0.75410 0.11100
C 	C 	0.46080 0.80310 0.34050 -0.13800
C 	C 	0.18290 0.59400 0.75910 0.06600
C 	C 	0.60670 0.98440 0.72010 -0.12000
C 	C 	0.11860 0.18220 0.12930 0.38200
C 	C 	0.53820 0.62040 0.03870 -0.03200
C 	C 	0.30600 0.67270 0.81470 -0.14000
C 	C 	0.07950 0.21960 0.10910 -0.14400
C 	C 	0.89460 0.78480 0.60690 -0.12900
C 	C 	0.51120 0.69610 0.93510 0.36200
C 	C 	0.54490 0.55870 0.99720 0.06900
C 	C 	0.40690 0.98860 0.80560 0.07300
C 	C 	0.52860 0.66500 0.01940 0.06700
C 	C 	0.64500 0.94850 0.73440 0.11000
C 	C 	0.89670 0.56890 0.51370 0.37300
C 	C 	0.44870 0.86850 0.43910 -0.13000
C 	C 	0.94700 0.51320 0.63530 -0.12200
C 	C 	0.27330 0.57570 0.12950 -0.13800
C 	C 	0.41260 0.91590 0.69880 0.37900
C 	C 	0.77950 0.64370 0.36320 0.38200
C 	C 	0.67570 0.65490 0.30040 0.10700
C 	C 	0.06380 0.32280 0.13260 -0.13100
C 	C 	0.87410 0.71970 0.54370 0.37000
C 	C 	0.63960 0.67110 0.25390 -0.13900
C 	C 	0.08170 0.39610 0.17570 0.39100
C 	C 	0.46550 0.85310 0.32960 0.07000
C 	C 	0.86130 0.86600 0.75620 0.37000
C 	C 	0.20890 0.65690 0.81880 -0.03400
C 	C 	0.34170 0.59470 0.15520 0.37400
C 	C 	0.77130 0.89780 0.91400 0.38500
C 	C 	0.59510 0.83890 0.95440 0.38000
C 	C 	0.74150 0.90810 0.96050 -0.12700
C 	C 	0.26850 0.69710 0.84660 0.07200
C 	C 	0.53740 0.95430 0.67610 0.35500
C 	C 	0.24900 0.55880 0.16350 0.11600
C 	C 	0.90800 0.52990 0.59090 0.10900
C 	C 	0.41340 0.00520 0.87040 -0.04100
C 	C 	0.74730 0.94180 0.79660 0.36900
C 	C 	0.45420 0.81020 0.39570 0.11500
C 	C 	0.24520 0.81000 0.46080 -0.12800
C 	C 	0.02130 0.18620 0.05110 0.07200
C 	C 	0.89040 0.85480 0.70970 -0.12300
C 	C 	0.63090 0.05370 0.74920 0.06100
C 	C 	0.93370 0.54800 0.55890 -0.13200
C 	C 	0.19950 0.50500 0.66480 0.35100
C 	C 	0.73990 0.66250 0.31560 -0.12200
C 	C 	0.00730 0.51220 0.64520 0.06500
C 	C 	0.86430 0.79480 0.64710 0.10900
C 	C 	0.92180 0.49800 0.67470 0.35300
C 	C 	0.14330 0.63880 0.32230 0.36000
C 	C 	0.10100 0.28570 0.14930 0.11900
C 	C 	0.68920 0.93200 0.04880 0.07300
C 	C 	0.22370 0.74260 0.42090 0.11400
C 	C 	0.00390 0.29030 0.07400 0.06900
C 	C 	0.45270 0.92160 0.43030 0.07100
C 	C 	0.99570 0.54860 0.56840 0.06800
C 	C 	0.03080 0.52990 0.61000 -0.02800
C 	C 	0.31010 0.84570 0.51670 0.36600
C 	C 	0.45980 0.91170 0.37430 -0.03200
C 	C 	0.18480 0.54620 0.14200 -0.13300
C 	C 	0.15730 0.53180 0.18010 0.38400
C 	C 	0.98490 0.22330 0.03550 -0.03800
C 	C 	0.44000 0.87960 0.49970 0.37700
C 	C 	0.73550 0.04700 0.80840 0.06900
C 	C 	0.16330 0.71130 0.36650 -0.13300
C 	C 	0.66440 0.69530 0.22500 0.07100
C 	C 	0.69570 0.08300 0.79340 -0.03100
C 	C 	0.77530 0.96050 0.03020 0.06800
C 	C 	0.23600 0.57600 0.07230 0.07300
C 	C 	0.14460 0.54610 0.08480 0.07100
C 	C 	0.94270 0.90410 0.73110 0.06800
C 	C 	0.73070 0.70470 0.24240 -0.03000
C 	C 	0.94620 0.83250 0.62500 0.06800
C 	C 	0.17110 0.56340 0.05140 -0.03700
C 	C 	0.76710 0.68650 0.28680 0.06600
C 	C 	0.96910 0.89340 0.68750 -0.03100
C 	C 	0.74710 0.97140 0.07210 -0.03400
C 	C 	0.20710 0.84820 0.44810 0.06700
C 	C 	0.12410 0.74330 0.34790 0.07300
C 	C 	0.14460 0.81130 0.38750 -0.03000
Cu	Cu	0.51552 0.26283 0.15574 0.90400
Cu	Cu	0.46520 0.61046 0.24224 0.90400
Cu	Cu	0.51969 0.18580 0.04192 0.90400
Cu	Cu	0.54853 0.35198 0.84297 0.90400
Cu	Cu	0.21155 0.40725 0.55360 0.90700
Cu	Cu	0.56883 0.15931 0.41552 0.90500
Cu	Cu	0.22956 0.17342 0.21340 0.90200
Cu	Cu	0.11440 0.37822 0.56901 0.90600
Cu	Cu	0.58505 0.04547 0.38952 0.90500
Cu	Cu	0.13958 0.06515 0.11795 0.90400
Cu	Cu	0.82966 0.48356 0.71263 0.90500
Cu	Cu	0.94040 0.48278 0.78631 0.90400
O 	O 	0.60792 0.23682 0.09797 -0.40800
O 	O 	0.57960 0.13700 0.33612 -0.41100
O 	O 	0.48854 0.31767 0.11975 -0.39200
O 	O 	0.50056 0.25453 0.02677 -0.40500
O 	O 	0.45832 0.32420 0.80491 -0.39900
O 	O 	0.53948 0.12441 0.07011 -0.38600
O 	O 	0.45540 0.52646 0.16580 -0.40100
O 	O 	0.24687 0.37300 0.61070 -0.41200
O 	O 	0.52810 0.30130 0.69161 -0.40400
O 	O 	0.43056 0.20670 0.10727 -0.40700
O 	O 	0.45260 0.55980 0.09626 -0.39700
O 	O 	0.60167 0.31030 0.19021 -0.39600
O 	O 	0.54499 0.19600 0.17133 -0.40300
O 	O 	0.54520 0.27074 0.76519 -0.40400
O 	O 	0.25650 0.15360 0.14290 -0.40500
O 	O 	0.55890 0.16640 0.49115 -0.40700
O 	O 	0.49560 0.00930 0.32843 -0.39700
O 	O 	0.82830 0.78630 0.82190 -0.40800
O 	O 	0.59750 0.04210 0.31527 -0.40200
O 	O 	0.62568 0.40950 0.79500 -0.39500
O 	O 	0.48070 0.10770 0.35470 -0.39100
O 	O 	0.07659 0.40790 0.50830 -0.40800
O 	O 	0.95520 0.57580 0.83950 -0.42100
O 	O 	0.27655 0.11830 0.23570 -0.40100
O 	O 	0.65920 0.19170 0.47311 -0.39500
O 	O 	0.18810 0.17510 0.26810 -0.40500
O 	O 	0.16600 0.35180 0.62780 -0.40100
O 	O 	0.15940 0.43690 0.49770 -0.39400
O 	O 	0.85160 0.53190 0.35275 -0.39200
O 	O 	0.11010 0.08310 0.18460 -0.40000
O 	O 	0.44690 0.36170 0.73710 -0.39900
O 	O 	0.17540 0.31920 0.47352 -0.40000
O 	O 	0.18070 0.06010 0.06290 -0.41100
O 	O 	0.56740 0.06710 0.46588 -0.40600
O 	O 	0.63742 0.38810 0.87480 -0.40300
O 	O 	0.76672 0.50950 0.36550 -0.39900
O 	O 	0.80530 0.47500 0.77460 -0.40400
O 	O 	0.81710 0.38910 0.66250 -0.39900
O 	O 	0.42965 0.14580 0.00740 -0.39900
O 	O 	0.90380 0.87890 0.90600 -0.40300
O 	O 	0.09630 0.29160 0.49010 -0.39700
O 	O 	0.19770 0.02560 0.15650 -0.39400
O 	O 	0.67220 0.09410 0.45380 -0.40300
C 	C 	0.47550 0.35040 0.04230 -0.13300
O 	O 	0.86360 0.57860 0.77670 -0.40300
O 	O 	0.89800 0.47210 0.83630 -0.40600
O 	O 	0.03950 0.50710 0.27850 -0.39100
C 	C 	0.47010 0.40860 0.08500 0.11300
C 	C 	0.56630 0.09720 0.15130 -0.13600
C 	C 	0.57200 0.11260 0.21450 0.11100
O 	O 	0.13510 0.50770 0.34150 -0.39700
O 	O 	0.91220 0.38800 0.72470 -0.39300
C 	C 	0.53710 0.26140 0.70900 0.38000
C 	C 	0.45930 0.45440 0.06620 -0.13000
C 	C 	0.58620 0.06880 0.23470 -0.13300
C 	C 	0.34190 0.11870 0.01990 -0.13700
C 	C 	0.54830 0.14260 0.12970 0.36600
C 	C 	0.63030 0.28780 0.15490 0.38100
C 	C 	0.57360 0.03860 0.10910 0.07900
C 	C 	0.45650 0.51920 0.11300 0.37200
C 	C 	0.77820 0.42760 0.27250 -0.12200
C 	C 	0.29190 0.01980 0.22180 -0.13100
C 	C 	0.31660 0.13180 0.06360 0.11600
C 	C 	0.42610 0.33890 0.76450 0.37100
C 	C 	0.71810 0.38970 0.24590 0.11100
C 	C 	0.53920 0.19690 0.65950 -0.13800
C 	C 	0.81710 0.40600 0.24090 0.06600
C 	C 	0.39330 0.01560 0.27990 -0.12000
C 	C 	0.88140 0.81780 0.87070 0.38200
C 	C 	0.46180 0.37960 0.96130 -0.03200
C 	C 	0.69400 0.32730 0.18530 -0.14000
C 	C 	0.92050 0.78040 0.89090 -0.14400
C 	C 	0.10540 0.21520 0.39310 -0.12900
C 	C 	0.48880 0.30390 0.06490 0.36200
C 	C 	0.45510 0.44130 0.00280 0.06900
C 	C 	0.59310 0.01140 0.19440 0.07300
C 	C 	0.47140 0.33500 0.98060 0.06700
C 	C 	0.35500 0.05150 0.26560 0.11000
C 	C 	0.10330 0.43110 0.48630 0.37300
C 	C 	0.55130 0.13150 0.56090 -0.13000
C 	C 	0.05300 0.48680 0.36470 -0.12200
C 	C 	0.72670 0.42430 0.87050 -0.13800
C 	C 	0.58740 0.08410 0.30120 0.37900
C 	C 	0.22050 0.35630 0.63680 0.38200
C 	C 	0.32430 0.34510 0.69960 0.10700
C 	C 	0.93620 0.67720 0.86740 -0.13100
C 	C 	0.12590 0.28030 0.45630 0.37000
C 	C 	0.36040 0.32890 0.74610 -0.13900
C 	C 	0.91830 0.60390 0.82430 0.39100
C 	C 	0.53450 0.14690 0.67040 0.07000
C 	C 	0.13870 0.13400 0.24380 0.37000
C 	C 	0.79110 0.34310 0.18120 -0.03400
C 	C 	0.65830 0.40530 0.84480 0.37400
C 	C 	0.22870 0.10220 0.08600 0.38500
C 	C 	0.40490 0.16110 0.04560 0.38000
C 	C 	0.25850 0.09190 0.03950 -0.12700
C 	C 	0.73150 0.30290 0.15340 0.07200
C 	C 	0.46260 0.04570 0.32390 0.35500
C 	C 	0.75100 0.44120 0.83650 0.11600
C 	C 	0.09200 0.47010 0.40910 0.10900
C 	C 	0.58660 0.99480 0.12960 -0.04100
C 	C 	0.25270 0.05820 0.20340 0.36900
C 	C 	0.54580 0.18980 0.60430 0.11500
C 	C 	0.75480 0.19000 0.53920 -0.12800
C 	C 	0.97870 0.81380 0.94890 0.07200
C 	C 	0.10960 0.14520 0.29030 -0.12300
C 	C 	0.36910 0.94630 0.25080 0.06100
C 	C 	0.06630 0.45200 0.44110 -0.13200
C 	C 	0.80050 0.49500 0.33520 0.35100
C 	C 	0.26010 0.33750 0.68440 -0.12200
C 	C 	0.99270 0.48780 0.35480 0.06500
C 	C 	0.13570 0.20520 0.35290 0.10900
C 	C 	0.07820 0.50200 0.32530 0.35300
C 	C 	0.85670 0.36120 0.67770 0.36000
C 	C 	0.89900 0.71430 0.85070 0.11900
C 	C 	0.31080 0.06800 0.95120 0.07300
C 	C 	0.77630 0.25740 0.57910 0.11400
C 	C 	0.99610 0.70970 0.92600 0.06900
C 	C 	0.54730 0.07840 0.56970 0.07100
C 	C 	0.00430 0.45140 0.43160 0.06800
C 	C 	0.96920 0.47010 0.39000 -0.02800
C 	C 	0.68990 0.15430 0.48330 0.36600
C 	C 	0.54020 0.08830 0.62570 -0.03200
C 	C 	0.81520 0.45380 0.85800 -0.13300
C 	C 	0.84270 0.46820 0.81990 0.38400
C 	C 	0.01510 0.77670 0.96450 -0.03800
C 	C 	0.56000 0.12040 0.50030 0.37700
C 	C 	0.26450 0.95300 0.19160 0.06900
C 	C 	0.83670 0.28870 0.63350 -0.13300
C 	C 	0.33560 0.30470 0.77500 0.07100
C 	C 	0.30430 0.91700 0.20660 -0.03100
C 	C 	0.22470 0.03950 0.96980 0.06800
C 	C 	0.76400 0.42400 0.92770 0.07300
C 	C 	0.85540 0.45390 0.91520 0.07100
C 	C 	0.05730 0.09590 0.26890 0.06800
C 	C 	0.26930 0.29530 0.75760 -0.03000
C 	C 	0.05380 0.16750 0.37500 0.06800
C 	C 	0.82890 0.43660 0.94860 -0.03700
C 	C 	0.23290 0.31350 0.71320 0.06600
C 	C 	0.03090 0.10660 0.31250 -0.03100
C 	C 	0.25290 0.02860 0.92790 -0.03400
C 	C 	0.79290 0.15180 0.55190 0.06700
C 	C 	0.87590 0.25670 0.65210 0.07300
C 	C 	0.85540 0.18870 0.61250 -0.03000
