data_crystal

_cell_length_a 15.91600
_cell_length_b 18.83000
_cell_length_c 19.36400
_cell_angle_alpha 105.09400
_cell_angle_beta  103.90300
_cell_angle_gamma 91.78100

_symmetry_space_group_name_	'P 1'
_symmetry_space_group_name_H-M	'P 1'

loop_
_symmetry_equiv_pos_as_xyz
  x,y,z

loop_
_atom_site_label
_atom_site_type_symbol
_atom_site_fract_x
_atom_site_fract_y
_atom_site_fract_z
_atom_site_charge
C 	C 	0.44997 0.92026 0.67668 0.27500
C 	C 	0.46752 0.99111 0.73463 -0.02500
C 	C 	0.41625 0.04834 0.75133 0.01200
C 	C 	0.46709 0.10304 0.81409 -0.04900
C 	C 	0.54840 0.07730 0.83377 0.04800
C 	C 	0.62698 0.10669 0.89435 0.05800
C 	C 	0.64240 0.18079 0.93700 -0.10100
H 	H 	0.60140 0.21500 0.92770 0.06100
C 	C 	0.71841 0.20306 0.99290 -0.00200
H 	H 	0.73020 0.25310 0.02210 0.04400
C 	C 	0.77726 0.15268 0.00635 -0.09600
H 	H 	0.82980 0.16750 0.04450 0.05400
C 	C 	0.75761 0.07926 0.96239 0.05600
C 	C 	0.81403 0.02093 0.97207 0.03600
C 	C 	0.88450 0.01429 0.02888 -0.02400
C 	C 	0.91039 0.94216 0.00699 -0.00200
C 	C 	0.85523 0.90687 0.93783 -0.01100
C 	C 	0.84464 0.83076 0.89074 0.26600
C 	C 	0.32234 0.05001 0.71448 -0.01800
H 	H 	0.31090 0.02430 0.66110 0.03600
H 	H 	0.30980 0.10200 0.71930 0.02500
C 	C 	0.26182 0.01327 0.74805 -0.34500
H 	H 	0.27280 0.96140 0.74220 0.11000
H 	H 	0.20120 0.01590 0.72280 0.10900
H 	H 	0.27240 0.03890 0.80080 0.11200
C 	C 	0.43439 0.17358 0.85126 0.03300
H 	H 	0.46470 0.18830 0.90460 -0.01100
H 	H 	0.37150 0.16400 0.84670 0.00600
C 	C 	0.44802 0.23749 0.81885 -0.38500
H 	H 	0.51040 0.24920 0.82550 0.12100
H 	H 	0.42400 0.28100 0.84430 0.09600
H 	H 	0.41840 0.22330 0.76590 0.13900
C 	C 	0.92101 0.06921 0.10382 -0.00100
H 	H 	0.93250 0.11860 0.09720 0.02500
H 	H 	0.97690 0.05430 0.12850 0.02600
C 	C 	0.85788 0.07353 0.15282 -0.35400
H 	H 	0.80280 0.08890 0.12870 0.10500
H 	H 	0.88310 0.10960 0.20080 0.10000
H 	H 	0.84730 0.02490 0.16030 0.11300
C 	C 	0.98060 0.90797 0.05110 0.01300
H 	H 	0.02580 0.94740 0.08460 0.02200
H 	H 	0.00830 0.87400 0.01690 0.03400
C 	C 	0.94508 0.86527 0.09694 -0.38900
H 	H 	0.92050 0.89930 0.13280 0.12900
H 	H 	0.99230 0.84250 0.12330 0.13600
H 	H 	0.89970 0.82670 0.06410 0.14300
C 	C 	0.21323 0.76721 0.43342 0.36900
C 	C 	0.13583 0.79909 0.40153 -0.05200
C 	C 	0.10072 0.86509 0.42684 0.01400
C 	C 	0.02093 0.86390 0.37451 -0.05100
C 	C 	0.00951 0.79691 0.31899 0.04300
C 	C 	0.94154 0.76074 0.25150 0.06500
C 	C 	0.86981 0.79378 0.22088 -0.12500
H 	H 	0.86080 0.84290 0.24410 0.05900
C 	C 	0.81223 0.75297 0.15576 0.03400
H 	H 	0.76300 0.77420 0.13380 0.00300
C 	C 	0.82623 0.68128 0.12246 -0.12600
H 	H 	0.78770 0.65330 0.07720 0.07200
C 	C 	0.89833 0.65112 0.15693 0.06500
C 	C 	0.91949 0.57501 0.12983 0.04600
C 	C 	0.87328 0.51052 0.07829 -0.06200
C 	C 	0.92801 0.45276 0.08143 0.02700
C 	C 	0.00520 0.48376 0.13458 -0.06000
C 	C 	0.08158 0.45052 0.16626 0.36500
C 	C 	0.13894 0.92472 0.49761 0.01200
H 	H 	0.09090 0.94760 0.51660 0.01500
H 	H 	0.17220 0.90180 0.53490 0.02300
C 	C 	0.19780 0.98432 0.48962 -0.38800
H 	H 	0.24750 0.96270 0.47350 0.13900
H 	H 	0.21880 0.02170 0.53740 0.13200
H 	H 	0.16560 0.00740 0.45280 0.12800
C 	C 	0.96265 0.92542 0.37924 0.03200
H 	H 	0.96930 0.95170 0.43200 0.00900
H 	H 	0.90140 0.90390 0.35790 0.00600
C 	C 	0.98246 0.98084 0.33872 -0.39600
H 	H 	0.04380 0.00070 0.35810 0.12900
H 	H 	0.94550 0.02130 0.34640 0.12500
H 	H 	0.97080 0.95610 0.28570 0.12800
C 	C 	0.78344 0.50244 0.02798 0.06700
H 	H 	0.74820 0.53820 0.05260 0.03300
H 	H 	0.75560 0.45210 0.01970 0.01800
C 	C 	0.78307 0.51527 0.95295 -0.46800
H 	H 	0.80920 0.56540 0.96060 0.16500
H 	H 	0.72300 0.50930 0.92260 0.20500
H 	H 	0.81670 0.47930 0.92770 0.16300
C 	C 	0.90853 0.37373 0.03474 0.00000
H 	H 	0.84500 0.36310 0.01250 0.02400
H 	H 	0.92610 0.34060 0.06680 0.03100
C 	C 	0.95579 0.35721 0.97295 -0.39600
H 	H 	0.93810 0.38940 0.94070 0.14200
H 	H 	0.94070 0.30540 0.94390 0.13700
H 	H 	0.01880 0.36630 0.99480 0.14700
C 	C 	0.47357 0.74209 0.45457 0.38400
C 	C 	0.54838 0.74258 0.42309 -0.05900
C 	C 	0.61838 0.79484 0.43617 0.03500
C 	C 	0.67201 0.76230 0.38993 -0.06400
C 	C 	0.63285 0.69069 0.35018 0.05400
C 	C 	0.65486 0.63003 0.29444 0.04600
C 	C 	0.73785 0.62529 0.28207 -0.08800
H 	H 	0.78390 0.66270 0.30950 0.06100
C 	C 	0.75131 0.56469 0.22880 -0.00600
H 	H 	0.80710 0.56020 0.21930 0.03600
C 	C 	0.68325 0.51074 0.18939 -0.06800
H 	H 	0.69150 0.46910 0.15250 -0.03200
C 	C 	0.60229 0.51875 0.20499 -0.00200
C 	C 	0.32455 0.38440 0.18225 0.32900
C 	C 	0.63039 0.87290 0.48561 -0.02200
H 	H 	0.69240 0.89230 0.49860 0.02300
H 	H 	0.61460 0.87280 0.53200 0.04600
C 	C 	0.57416 0.92387 0.44792 -0.36900
H 	H 	0.58870 0.92320 0.40140 0.13300
H 	H 	0.58540 0.97440 0.48070 0.12500
H 	H 	0.51260 0.90650 0.43770 0.13500
C 	C 	0.75555 0.79922 0.38618 0.06100
H 	H 	0.75090 0.85300 0.39490 -0.00200
H 	H 	0.76390 0.77970 0.33590 0.00600
C 	C 	0.83480 0.78687 0.44287 -0.44100
H 	H 	0.82780 0.80760 0.49290 0.14800
H 	H 	0.88730 0.81140 0.43780 0.15000
H 	H 	0.84010 0.73380 0.43430 0.15900
C 	C 	0.31740 0.66919 0.59119 0.30500
C 	C 	0.27356 0.64514 0.64100 0.06500
C 	C 	0.26986 0.67542 0.71364 -0.35000
C 	C 	0.20497 0.63161 0.72724 0.09800
C 	C 	0.16967 0.57575 0.66164 0.00300
C 	C 	0.10092 0.51380 0.63787 0.08800
C 	C 	0.04150 0.50409 0.67857 -0.12500
H 	H 	0.04340 0.53850 0.72470 0.07100
C 	C 	0.98004 0.44319 0.64994 0.04500
H 	H 	0.93920 0.43560 0.67650 0.00900
C 	C 	0.97788 0.39324 0.58262 -0.12400
H 	H 	0.93580 0.35140 0.56250 0.07200
C 	C 	0.03948 0.40622 0.54515 0.07200
C 	C 	0.04513 0.35731 0.47378 0.04600
C 	C 	0.01595 0.28362 0.43432 -0.04400
C 	C 	0.04746 0.26768 0.36978 0.00800
C 	C 	0.09504 0.33185 0.37189 -0.04700
C 	C 	0.14029 0.35186 0.32152 0.36600
C 	C 	0.32562 0.74162 0.76830 0.89500
H 	H 	0.34160 0.77530 0.74080 0.20300
H 	H 	0.29080 0.76810 0.80110 0.06200
H 	H 	0.32590 0.73580 0.81610 -0.17700
H 	H 	0.38350 0.73510 0.76290 -0.10800
C 	C 	0.40280 0.72470 0.81290 -0.80400
H 	H 	0.38770 0.69420 0.84300 0.17600
H 	H 	0.43670 0.77070 0.84540 0.22700
H 	H 	0.43750 0.69760 0.78110 0.23500
C 	C 	0.31650 0.81370 0.77390 -1.91800
H 	H 	0.31980 0.82420 0.72760 0.51300
H 	H 	0.36320 0.84410 0.81480 0.56600
H 	H 	0.26000 0.82510 0.78350 0.55500
C 	C 	0.17739 0.64754 0.79854 -0.08700
H 	H 	0.22810 0.67080 0.84050 0.03100
H 	H 	0.15690 0.60050 0.80580 0.04400
C 	C 	0.10463 0.69905 0.79817 -0.30500
H 	H 	0.12470 0.74560 0.79070 0.09300
H 	H 	0.08920 0.70920 0.84560 0.10900
H 	H 	0.05350 0.67530 0.75800 0.11400
C 	C 	0.95768 0.22960 0.45133 0.02600
H 	H 	0.96530 0.24150 0.50550 0.01700
H 	H 	0.97410 0.17900 0.43420 0.00800
C 	C 	0.86251 0.23277 0.41310 -0.38800
H 	H 	0.84450 0.28140 0.43390 0.13400
H 	H 	0.82610 0.19420 0.42100 0.12100
H 	H 	0.85590 0.22480 0.35990 0.12200
C 	C 	0.03016 0.19563 0.31032 0.02000
H 	H 	0.01670 0.20620 0.26160 0.01800
H 	H 	0.97790 0.16780 0.31320 0.00300
C 	C 	0.10425 0.14671 0.31401 -0.40500
H 	H 	0.15410 0.17080 0.30440 0.15800
H 	H 	0.08520 0.09900 0.27660 0.13600
H 	H 	0.12130 0.13870 0.36330 0.13200
N 	N 	0.54658 0.00952 0.78550 -0.17800
H 	H 	0.59000 0.98170 0.78690 0.12900
N 	N 	0.68402 0.05737 0.90711 -0.12800
N 	N 	0.79785 0.95506 0.91803 -0.17400
H 	H 	0.75650 0.94520 0.87650 0.13000
N 	N 	0.07915 0.75892 0.33714 -0.16700
H 	H 	0.08660 0.71480 0.31110 0.12300
N 	N 	0.95403 0.69039 0.22018 -0.13200
N 	N 	0.99817 0.55725 0.16298 -0.16700
H 	H 	0.03870 0.58840 0.19760 0.11900
N 	N 	0.55795 0.68107 0.37034 -0.16700
H 	H 	0.52090 0.64100 0.35210 0.12000
N 	N 	0.58836 0.57729 0.25667 -0.11600
N 	N 	0.46493 0.45435 0.20272 -0.18500
C 	C 	0.52350 0.46604 0.16530 -0.28700
C 	C 	0.49741 0.42243 0.09470 -1.67300
C 	C 	0.42040 0.38044 0.08932 -0.58400
C 	C 	0.39810 0.40000 0.15760 0.04400
C 	C 	0.54080 0.42006 0.03333 0.39900
H 	H 	0.58000 0.46600 0.04650 0.58600
H 	H 	0.49570 0.41880 0.98770 -3.83800
C 	C 	0.59250 0.35474 0.01750 -3.72400
H 	H 	0.64290 0.35960 0.05970 -0.34600
H 	H 	0.61260 0.35310 0.97310 1.36400
H 	H 	0.55580 0.30910 0.00940 -0.46500
C 	C 	0.36590 0.32270 0.02300 0.09700
H 	H 	0.38270 0.32690 0.97820 0.04800
H 	H 	0.30390 0.33190 0.01680 0.00300
C 	C 	0.37650 0.24380 0.03060 -0.36900
H 	H 	0.43780 0.23470 0.03750 0.20300
H 	H 	0.34150 0.20800 0.98570 0.09700
H 	H 	0.35690 0.23860 0.07350 0.48000
C 	C 	0.53440 0.45110 0.16780 0.44600
C 	C 	0.51030 0.39460 0.10160 1.53400
C 	C 	0.42600 0.36030 0.09480 0.51300
C 	C 	0.40870 0.40430 0.16230 -0.04600
C 	C 	0.56070 0.36980 0.04270 0.15000
H 	H 	0.62290 0.37080 0.06790 1.46300
H 	H 	0.53930 0.31800 0.01420 1.35900
C 	C 	0.55310 0.41660 0.98970 3.73500
H 	H 	0.49200 0.41430 0.96290 2.55100
H 	H 	0.58760 0.39810 0.95430 -1.43500
H 	H 	0.57470 0.46800 0.01730 -1.46100
C 	C 	0.37630 0.29640 0.03080 -0.07000
H 	H 	0.39640 0.29620 0.98620 -0.04600
H 	H 	0.31360 0.30350 0.02000 0.02600
C 	C 	0.38890 0.22130 0.04780 -0.29800
H 	H 	0.45100 0.21430 0.05900 -0.04200
H 	H 	0.35730 0.18160 0.00460 0.10200
H 	H 	0.36640 0.22040 0.09040 -0.25200
N 	N 	0.21316 0.58479 0.61124 -0.18000
H 	H 	0.20370 0.55580 0.56590 0.12800
N 	N 	0.09880 0.46566 0.57218 -0.13200
N 	N 	0.09272 0.38463 0.43501 -0.16700
H 	H 	0.11840 0.42990 0.44860 0.12900
O 	O 	0.37617 0.90572 0.62951 -0.44800
O 	O 	0.50719 0.87607 0.67458 -0.31600
O 	O 	0.78147 0.80992 0.83412 -0.32800
O 	O 	0.89874 0.78588 0.90945 -0.42100
O 	O 	0.27064 0.80792 0.48704 -0.49900
O 	O 	0.21603 0.69841 0.40398 -0.49000
O 	O 	0.14234 0.49472 0.21578 -0.49300
O 	O 	0.08156 0.38134 0.14401 -0.49100
O 	O 	0.46964 0.79540 0.50858 -0.48500
O 	O 	0.41879 0.68569 0.42506 -0.50900
O 	O 	0.32454 0.42001 0.24815 -0.49900
O 	O 	0.26427 0.33696 0.13937 -0.48000
O 	O 	0.36300 0.73103 0.61328 -0.50100
O 	O 	0.30414 0.62465 0.52680 -0.48200
O 	O 	0.17342 0.41868 0.34089 -0.49100
O 	O 	0.14471 0.30311 0.26407 -0.48600
O 	O 	0.30857 0.54808 0.36370 -0.75800
Zn	Zn	0.37966 0.80786 0.56330 1.22200
Zn	Zn	0.31103 0.64187 0.43366 1.23000
Zn	Zn	0.23388 0.46852 0.28866 1.22900
Zn	Zn	0.15980 0.30563 0.16631 1.22600
H 	H 	0.36090 0.53780 0.36780 0.26400
H 	H 	0.46700 0.47540 0.24680 0.12600
C 	C 	0.55003 0.07974 0.32332 0.27400
C 	C 	0.53248 0.00889 0.26537 -0.02600
C 	C 	0.58375 0.95166 0.24867 0.01100
C 	C 	0.53291 0.89696 0.18591 -0.05000
C 	C 	0.45160 0.92270 0.16623 0.04700
C 	C 	0.37302 0.89331 0.10565 0.05700
C 	C 	0.35760 0.81921 0.06300 -0.10200
H 	H 	0.39860 0.78500 0.07230 0.06000
C 	C 	0.28159 0.79694 0.00710 -0.00300
H 	H 	0.26980 0.74690 0.97790 0.04300
C 	C 	0.22274 0.84732 0.99365 -0.09700
H 	H 	0.17020 0.83250 0.95550 0.05300
C 	C 	0.24239 0.92074 0.03761 0.05500
C 	C 	0.18597 0.97907 0.02793 0.03500
C 	C 	0.11550 0.98571 0.97112 -0.02500
C 	C 	0.08961 0.05784 0.99301 -0.00300
C 	C 	0.14477 0.09313 0.06217 -0.01200
C 	C 	0.15536 0.16924 0.10926 0.26500
C 	C 	0.67766 0.94999 0.28552 -0.01800
H 	H 	0.68910 0.97570 0.33890 0.03600
H 	H 	0.69020 0.89800 0.28070 0.02500
C 	C 	0.73818 0.98673 0.25195 -0.34500
H 	H 	0.72720 0.03860 0.25780 0.11000
H 	H 	0.79880 0.98410 0.27720 0.10900
H 	H 	0.72760 0.96110 0.19920 0.11200
C 	C 	0.56561 0.82642 0.14874 0.03300
H 	H 	0.53530 0.81170 0.09540 -0.01100
H 	H 	0.62850 0.83600 0.15330 0.00600
C 	C 	0.55198 0.76251 0.18115 -0.38500
H 	H 	0.48960 0.75080 0.17450 0.12100
H 	H 	0.57600 0.71900 0.15570 0.09600
H 	H 	0.58160 0.77670 0.23410 0.13900
C 	C 	0.07899 0.93079 0.89618 -0.00100
H 	H 	0.06750 0.88140 0.90280 0.02500
H 	H 	0.02310 0.94570 0.87150 0.02600
C 	C 	0.14212 0.92647 0.84718 -0.35400
H 	H 	0.19720 0.91110 0.87130 0.10500
H 	H 	0.11690 0.89040 0.79920 0.10000
H 	H 	0.15270 0.97510 0.83970 0.11300
C 	C 	0.01940 0.09203 0.94890 0.01300
H 	H 	0.97420 0.05260 0.91540 0.02200
H 	H 	0.99170 0.12600 0.98310 0.03400
C 	C 	0.05492 0.13473 0.90306 -0.38900
H 	H 	0.07950 0.10070 0.86720 0.12900
H 	H 	0.00770 0.15750 0.87670 0.13600
H 	H 	0.10030 0.17330 0.93590 0.14300
C 	C 	0.78677 0.23279 0.56658 0.36900
C 	C 	0.86417 0.20091 0.59847 -0.05200
C 	C 	0.89928 0.13491 0.57316 0.01400
C 	C 	0.97907 0.13610 0.62549 -0.05100
C 	C 	0.99049 0.20309 0.68101 0.04300
C 	C 	0.05846 0.23926 0.74850 0.06500
C 	C 	0.13019 0.20622 0.77912 -0.12500
H 	H 	0.13920 0.15710 0.75590 0.05900
C 	C 	0.18777 0.24703 0.84424 0.03400
H 	H 	0.23700 0.22580 0.86620 0.00300
C 	C 	0.17377 0.31872 0.87754 -0.12600
H 	H 	0.21230 0.34670 0.92280 0.07200
C 	C 	0.10167 0.34888 0.84307 0.06500
C 	C 	0.08051 0.42499 0.87017 0.04600
C 	C 	0.12672 0.48948 0.92171 -0.06200
C 	C 	0.07199 0.54724 0.91857 0.02700
C 	C 	0.99480 0.51624 0.86542 -0.06000
C 	C 	0.91842 0.54948 0.83374 0.36500
C 	C 	0.86106 0.07528 0.50239 0.01200
H 	H 	0.90910 0.05240 0.48340 0.01500
H 	H 	0.82780 0.09820 0.46510 0.02300
C 	C 	0.80220 0.01568 0.51038 -0.38800
H 	H 	0.75250 0.03730 0.52650 0.13900
H 	H 	0.78120 0.97830 0.46260 0.13200
H 	H 	0.83440 0.99260 0.54720 0.12800
C 	C 	0.03735 0.07458 0.62076 0.03200
H 	H 	0.03070 0.04830 0.56800 0.00900
H 	H 	0.09860 0.09610 0.64210 0.00600
C 	C 	0.01754 0.01916 0.66128 -0.39600
H 	H 	0.95620 0.99930 0.64190 0.12900
H 	H 	0.05450 0.97870 0.65360 0.12500
H 	H 	0.02920 0.04390 0.71430 0.12800
C 	C 	0.21656 0.49756 0.97202 0.06700
H 	H 	0.25180 0.46180 0.94740 0.03300
H 	H 	0.24440 0.54790 0.98030 0.01800
C 	C 	0.21693 0.48473 0.04705 -0.46800
H 	H 	0.19080 0.43460 0.03940 0.16500
H 	H 	0.27700 0.49070 0.07740 0.20500
H 	H 	0.18330 0.52070 0.07230 0.16300
C 	C 	0.09147 0.62627 0.96526 0.00000
H 	H 	0.15500 0.63690 0.98750 0.02400
H 	H 	0.07390 0.65940 0.93320 0.03100
C 	C 	0.04421 0.64279 0.02705 -0.39600
H 	H 	0.06190 0.61060 0.05930 0.14200
H 	H 	0.05930 0.69460 0.05610 0.13700
H 	H 	0.98120 0.63370 0.00520 0.14700
C 	C 	0.52643 0.25791 0.54543 0.38400
C 	C 	0.45162 0.25742 0.57691 -0.05900
C 	C 	0.38162 0.20516 0.56383 0.03500
C 	C 	0.32799 0.23770 0.61007 -0.06400
C 	C 	0.36715 0.30931 0.64982 0.05400
C 	C 	0.34514 0.36997 0.70556 0.04600
C 	C 	0.26215 0.37471 0.71793 -0.08800
H 	H 	0.21610 0.33730 0.69050 0.06100
C 	C 	0.24869 0.43531 0.77120 -0.00600
H 	H 	0.19290 0.43980 0.78070 0.03600
C 	C 	0.31675 0.48926 0.81061 -0.06800
H 	H 	0.30850 0.53090 0.84750 -0.03200
C 	C 	0.39771 0.48125 0.79501 -0.00200
C 	C 	0.67545 0.61560 0.81775 0.32900
C 	C 	0.36961 0.12710 0.51439 -0.02200
H 	H 	0.30760 0.10770 0.50140 0.02300
H 	H 	0.38540 0.12720 0.46800 0.04600
C 	C 	0.42584 0.07613 0.55208 -0.36900
H 	H 	0.41130 0.07680 0.59860 0.13300
H 	H 	0.41460 0.02560 0.51930 0.12500
H 	H 	0.48740 0.09350 0.56230 0.13500
C 	C 	0.24445 0.20078 0.61382 0.06100
H 	H 	0.24910 0.14700 0.60510 -0.00200
H 	H 	0.23610 0.22030 0.66410 0.00600
C 	C 	0.16520 0.21313 0.55713 -0.44100
H 	H 	0.17220 0.19240 0.50710 0.14800
H 	H 	0.11270 0.18860 0.56220 0.15000
H 	H 	0.15990 0.26620 0.56570 0.15900
C 	C 	0.68260 0.33081 0.40881 0.30500
C 	C 	0.72644 0.35486 0.35900 0.06500
C 	C 	0.73014 0.32458 0.28636 -0.35000
C 	C 	0.79503 0.36839 0.27276 0.09800
C 	C 	0.83033 0.42425 0.33836 0.00300
C 	C 	0.89908 0.48620 0.36213 0.08800
C 	C 	0.95850 0.49591 0.32143 -0.12500
H 	H 	0.95660 0.46150 0.27530 0.07100
C 	C 	0.01996 0.55681 0.35006 0.04500
H 	H 	0.06080 0.56440 0.32350 0.00900
C 	C 	0.02212 0.60676 0.41738 -0.12400
H 	H 	0.06420 0.64860 0.43750 0.07200
C 	C 	0.96052 0.59378 0.45485 0.07200
C 	C 	0.95487 0.64269 0.52622 0.04600
C 	C 	0.98405 0.71638 0.56568 -0.04400
C 	C 	0.95254 0.73232 0.63022 0.00800
C 	C 	0.90496 0.66815 0.62811 -0.04700
C 	C 	0.85971 0.64814 0.67848 0.36600
C 	C 	0.67438 0.25838 0.23170 0.89500
H 	H 	0.65840 0.22470 0.25920 0.20300
H 	H 	0.70920 0.23190 0.19890 0.06200
H 	H 	0.67410 0.26420 0.18390 -0.17700
H 	H 	0.61650 0.26490 0.23710 -0.10800
C 	C 	0.59720 0.27530 0.18710 -0.80400
H 	H 	0.61230 0.30580 0.15700 0.17600
H 	H 	0.56330 0.22930 0.15460 0.22700
H 	H 	0.56250 0.30240 0.21890 0.23500
C 	C 	0.68350 0.18630 0.22610 -1.91800
H 	H 	0.68020 0.17580 0.27240 0.51300
H 	H 	0.63680 0.15590 0.18520 0.56600
H 	H 	0.74000 0.17490 0.21650 0.55500
C 	C 	0.82261 0.35246 0.20146 -0.08700
H 	H 	0.77190 0.32920 0.15950 0.03100
H 	H 	0.84310 0.39950 0.19420 0.04400
C 	C 	0.89537 0.30095 0.20183 -0.30500
H 	H 	0.87530 0.25440 0.20930 0.09300
H 	H 	0.91080 0.29080 0.15440 0.10900
H 	H 	0.94650 0.32470 0.24200 0.11400
C 	C 	0.04232 0.77040 0.54867 0.02600
H 	H 	0.03470 0.75850 0.49450 0.01700
H 	H 	0.02590 0.82100 0.56580 0.00800
C 	C 	0.13749 0.76723 0.58690 -0.38800
H 	H 	0.15550 0.71860 0.56610 0.13400
H 	H 	0.17390 0.80580 0.57900 0.12100
H 	H 	0.14410 0.77520 0.64010 0.12200
C 	C 	0.96984 0.80437 0.68968 0.02000
H 	H 	0.98330 0.79380 0.73840 0.01800
H 	H 	0.02210 0.83220 0.68680 0.00300
C 	C 	0.89575 0.85329 0.68599 -0.40500
H 	H 	0.84590 0.82920 0.69560 0.15800
H 	H 	0.91480 0.90100 0.72340 0.13600
H 	H 	0.87870 0.86130 0.63670 0.13200
N 	N 	0.45342 0.99048 0.21450 -0.17800
H 	H 	0.41000 0.01830 0.21310 0.12900
N 	N 	0.31598 0.94263 0.09289 -0.12800
N 	N 	0.20215 0.04494 0.08197 -0.17400
H 	H 	0.24350 0.05480 0.12350 0.13000
N 	N 	0.92085 0.24108 0.66286 -0.16700
H 	H 	0.91340 0.28520 0.68890 0.12300
N 	N 	0.04597 0.30961 0.77982 -0.13200
N 	N 	0.00183 0.44275 0.83702 -0.16700
H 	H 	0.96130 0.41160 0.80240 0.11900
N 	N 	0.44205 0.31893 0.62966 -0.16700
H 	H 	0.47910 0.35900 0.64790 0.12000
N 	N 	0.41164 0.42271 0.74333 -0.11600
N 	N 	0.53507 0.54565 0.79728 -0.18500
C 	C 	0.47650 0.53396 0.83470 -0.28700
C 	C 	0.50259 0.57757 0.90530 -1.67300
C 	C 	0.57960 0.61956 0.91068 -0.58400
C 	C 	0.60190 0.60000 0.84240 0.04400
C 	C 	0.45920 0.57994 0.96667 0.39900
H 	H 	0.42000 0.53400 0.95350 0.58600
H 	H 	0.50430 0.58120 0.01230 -3.83800
C 	C 	0.40750 0.64526 0.98250 -3.72400
H 	H 	0.35710 0.64040 0.94030 -0.34600
H 	H 	0.38740 0.64690 0.02690 1.36400
H 	H 	0.44420 0.69090 0.99060 -0.46500
C 	C 	0.63410 0.67730 0.97700 0.09700
H 	H 	0.61730 0.67310 0.02180 0.04800
H 	H 	0.69610 0.66810 0.98320 0.00300
C 	C 	0.62350 0.75620 0.96940 -0.36900
H 	H 	0.56220 0.76530 0.96250 0.20300
H 	H 	0.65850 0.79200 0.01430 0.09700
H 	H 	0.64310 0.76140 0.92650 0.48000
C 	C 	0.46560 0.54890 0.83220 0.44600
C 	C 	0.48970 0.60540 0.89840 1.53400
C 	C 	0.57400 0.63970 0.90520 0.51300
C 	C 	0.59130 0.59570 0.83770 -0.04600
C 	C 	0.43930 0.63020 0.95730 0.15000
H 	H 	0.37710 0.62920 0.93210 1.46300
H 	H 	0.46070 0.68200 0.98580 1.35900
C 	C 	0.44690 0.58340 0.01030 3.73500
H 	H 	0.50800 0.58570 0.03710 2.55100
H 	H 	0.41240 0.60190 0.04570 -1.43500
H 	H 	0.42530 0.53200 0.98270 -1.46100
C 	C 	0.62370 0.70360 0.96920 -0.07000
H 	H 	0.60360 0.70380 0.01380 -0.04600
H 	H 	0.68640 0.69650 0.98000 0.02600
C 	C 	0.61110 0.77870 0.95220 -0.29800
H 	H 	0.54900 0.78570 0.94100 -0.04200
H 	H 	0.64270 0.81840 0.99540 0.10200
H 	H 	0.63360 0.77960 0.90960 -0.25200
N 	N 	0.78684 0.41521 0.38876 -0.18000
H 	H 	0.79630 0.44420 0.43410 0.12800
N 	N 	0.90120 0.53434 0.42782 -0.13200
N 	N 	0.90728 0.61537 0.56499 -0.16700
H 	H 	0.88160 0.57010 0.55140 0.12900
O 	O 	0.62383 0.09428 0.37049 -0.44800
O 	O 	0.49281 0.12393 0.32542 -0.31600
O 	O 	0.21853 0.19008 0.16588 -0.32800
O 	O 	0.10126 0.21412 0.09055 -0.42100
O 	O 	0.72936 0.19208 0.51296 -0.49900
O 	O 	0.78397 0.30159 0.59602 -0.49000
O 	O 	0.85766 0.50528 0.78422 -0.49300
O 	O 	0.91844 0.61866 0.85599 -0.49100
O 	O 	0.53036 0.20460 0.49142 -0.48500
O 	O 	0.58121 0.31431 0.57494 -0.50900
O 	O 	0.67546 0.57999 0.75185 -0.49900
O 	O 	0.73573 0.66304 0.86063 -0.48000
O 	O 	0.63700 0.26897 0.38672 -0.50100
O 	O 	0.69586 0.37535 0.47320 -0.48200
O 	O 	0.82658 0.58132 0.65911 -0.49100
O 	O 	0.85529 0.69689 0.73593 -0.48600
O 	O 	0.69143 0.45192 0.63630 -0.75800
Zn	Zn	0.62034 0.19214 0.43670 1.22200
Zn	Zn	0.68897 0.35813 0.56634 1.23000
Zn	Zn	0.76612 0.53148 0.71134 1.22900
Zn	Zn	0.84020 0.69437 0.83369 1.22600
H 	H 	0.63910 0.46220 0.63220 0.26400
H 	H 	0.53300 0.52460 0.75320 0.12600
