data_crystal

_cell_length_a 20.09600
_cell_length_b 20.09600
_cell_length_c 16.37200
_cell_angle_alpha 90.00000
_cell_angle_beta  90.00000
_cell_angle_gamma 120.00000

_symmetry_space_group_name_	'P 1'
_symmetry_space_group_name_H-M	'P 1'

loop_
_symmetry_equiv_pos_as_xyz
  x,y,z

loop_
_atom_site_label
_atom_site_type_symbol
_atom_site_fract_x
_atom_site_fract_y
_atom_site_fract_z
_atom_site_charge
O 	O 	0.22210 0.07830 0.05970 -0.29400
C 	C 	0.38240 0.23230 0.94770 0.11900
H 	H 	0.35510 0.24710 0.91070 0.01700
C 	C 	0.46210 0.27240 0.94820 -0.08300
H 	H 	0.48970 0.31470 0.91130 0.07200
C 	C 	0.06930 0.83910 0.30100 0.16700
H 	H 	0.11030 0.86320 0.26200 -0.40600
C 	C 	0.07810 0.80430 0.37030 0.35900
H 	H 	0.12530 0.80440 0.37940 -0.11000
C 	C 	0.01790 0.76810 0.42570 0.36400
C 	C 	0.94890 0.76650 0.41210 0.42900
H 	H 	0.90790 0.74240 0.45120 -0.04700
C 	C 	0.93970 0.80120 0.34290 0.27700
H 	H 	0.89240 0.80110 0.33390 -0.06100
O 	O 	0.92170 0.14380 0.05970 -0.23000
C 	C 	0.76770 0.15010 0.94770 0.10900
H 	H 	0.75290 0.10800 0.91070 0.00800
C 	C 	0.72760 0.18970 0.94820 -0.07800
H 	H 	0.68530 0.17500 0.91130 0.06400
C 	C 	0.16090 0.23020 0.30100 -0.31500
H 	H 	0.13680 0.24710 0.26200 0.29400
C 	C 	0.19570 0.27380 0.37030 0.09300
H 	H 	0.19560 0.32090 0.37940 0.01700
C 	C 	0.23190 0.24980 0.42570 -0.08900
C 	C 	0.23350 0.18240 0.41210 0.07400
H 	H 	0.25760 0.16550 0.45120 -0.01300
C 	C 	0.19880 0.13850 0.34290 -0.13100
H 	H 	0.19890 0.09130 0.33390 0.15400
O 	O 	0.85620 0.77790 0.05970 -0.27200
C 	C 	0.84990 0.61760 0.94770 0.10800
H 	H 	0.89200 0.64490 0.91070 0.04100
C 	C 	0.81030 0.53790 0.94820 -0.06800
H 	H 	0.82500 0.51030 0.91130 0.07800
C 	C 	0.76980 0.93070 0.30100 -0.23400
H 	H 	0.75290 0.88970 0.26200 0.32000
C 	C 	0.72620 0.92190 0.37030 -0.29900
H 	H 	0.67910 0.87470 0.37940 0.16500
C 	C 	0.75020 0.98210 0.42570 -0.24000
C 	C 	0.81760 0.05110 0.41210 -0.81100
H 	H 	0.83450 0.09210 0.45120 0.21000
C 	C 	0.86150 0.06030 0.34290 -0.05700
H 	H 	0.90870 0.10760 0.33390 0.02000
O 	O 	0.77790 0.92170 0.05970 -0.23200
C 	C 	0.61760 0.76770 0.94770 0.10600
H 	H 	0.64490 0.75290 0.91070 0.02500
C 	C 	0.53790 0.72760 0.94820 -0.07100
H 	H 	0.51030 0.68530 0.91130 0.07000
C 	C 	0.93070 0.16090 0.30100 -0.32300
H 	H 	0.88970 0.13680 0.26200 0.52300
C 	C 	0.92190 0.19570 0.37030 -0.33600
H 	H 	0.87470 0.19560 0.37940 0.18000
C 	C 	0.98210 0.23190 0.42570 -0.26800
C 	C 	0.05110 0.23350 0.41210 -0.66700
H 	H 	0.09210 0.25760 0.45120 0.16200
C 	C 	0.06030 0.19880 0.34290 -0.15900
H 	H 	0.10760 0.19890 0.33390 0.09000
O 	O 	0.07830 0.85620 0.05970 -0.29000
C 	C 	0.23230 0.84990 0.94770 0.11300
H 	H 	0.24710 0.89200 0.91070 0.03700
C 	C 	0.27240 0.81030 0.94820 -0.07200
H 	H 	0.31470 0.82500 0.91130 0.07900
C 	C 	0.83910 0.76980 0.30100 0.02100
H 	H 	0.86320 0.75290 0.26200 -0.17800
C 	C 	0.80430 0.72620 0.37030 0.03000
H 	H 	0.80440 0.67910 0.37940 0.02500
C 	C 	0.76810 0.75020 0.42570 0.09900
C 	C 	0.76650 0.81760 0.41210 -0.26500
H 	H 	0.74240 0.83450 0.45120 0.10600
C 	C 	0.80120 0.86150 0.34290 0.15300
H 	H 	0.80110 0.90870 0.33390 -0.03000
O 	O 	0.14380 0.22210 0.05970 -0.27300
C 	C 	0.15010 0.38240 0.94770 0.11800
H 	H 	0.10800 0.35510 0.91070 0.00500
C 	C 	0.18970 0.46210 0.94820 -0.08500
H 	H 	0.17500 0.48970 0.91130 0.06500
C 	C 	0.23020 0.06930 0.30100 -0.08100
H 	H 	0.24710 0.11030 0.26200 -0.13600
C 	C 	0.27380 0.07810 0.37030 0.45600
H 	H 	0.32090 0.12530 0.37940 -0.13300
C 	C 	0.24980 0.01790 0.42570 0.20100
C 	C 	0.18240 0.94890 0.41210 0.63000
H 	H 	0.16550 0.90790 0.45120 -0.12100
C 	C 	0.13850 0.93970 0.34290 0.09300
H 	H 	0.09130 0.89240 0.33390 0.05500
O 	O 	0.07830 0.22210 0.94030 -0.26600
C 	C 	0.23230 0.38240 0.05230 0.08100
H 	H 	0.24710 0.35510 0.08930 0.02000
C 	C 	0.27240 0.46210 0.05180 -0.12400
H 	H 	0.31470 0.48970 0.08870 0.07200
C 	C 	0.83910 0.06930 0.69900 0.16800
H 	H 	0.86320 0.11030 0.73800 -0.40600
C 	C 	0.80430 0.07810 0.62970 0.36100
H 	H 	0.80440 0.12530 0.62060 -0.11000
C 	C 	0.76810 0.01790 0.57430 0.36500
C 	C 	0.76650 0.94890 0.58790 0.42800
H 	H 	0.74240 0.90790 0.54880 -0.04700
C 	C 	0.80120 0.93970 0.65710 0.27600
H 	H 	0.80110 0.89240 0.66610 -0.06100
O 	O 	0.14380 0.92170 0.94030 -0.20400
C 	C 	0.15010 0.76770 0.05230 0.07000
H 	H 	0.10800 0.75290 0.08930 0.01000
C 	C 	0.18970 0.72760 0.05180 -0.12100
H 	H 	0.17500 0.68530 0.08870 0.06300
C 	C 	0.23020 0.16090 0.69900 -0.31400
H 	H 	0.24710 0.13680 0.73800 0.29400
C 	C 	0.27380 0.19570 0.62970 0.09400
H 	H 	0.32090 0.19560 0.62060 0.01700
C 	C 	0.24980 0.23190 0.57430 -0.08800
C 	C 	0.18240 0.23350 0.58790 0.07300
H 	H 	0.16550 0.25760 0.54880 -0.01300
C 	C 	0.13850 0.19880 0.65710 -0.13200
H 	H 	0.09130 0.19890 0.66610 0.15400
O 	O 	0.77790 0.85620 0.94030 -0.24500
C 	C 	0.61760 0.84990 0.05230 0.06900
H 	H 	0.64490 0.89200 0.08930 0.04200
C 	C 	0.53790 0.81030 0.05180 -0.11000
H 	H 	0.51030 0.82500 0.08870 0.07700
C 	C 	0.93070 0.76980 0.69900 -0.23300
H 	H 	0.88970 0.75290 0.73800 0.32000
C 	C 	0.92190 0.72620 0.62970 -0.29800
H 	H 	0.87470 0.67910 0.62060 0.16500
C 	C 	0.98210 0.75020 0.57430 -0.24000
C 	C 	0.05110 0.81760 0.58790 -0.81200
H 	H 	0.09210 0.83450 0.54880 0.21000
C 	C 	0.06030 0.86150 0.65710 -0.05700
H 	H 	0.10760 0.90870 0.66610 0.02000
O 	O 	0.92170 0.77790 0.94030 -0.20500
C 	C 	0.76770 0.61760 0.05230 0.06700
H 	H 	0.75290 0.64490 0.08930 0.02700
C 	C 	0.72760 0.53790 0.05180 -0.11400
H 	H 	0.68530 0.51030 0.08870 0.06900
C 	C 	0.16090 0.93070 0.69900 -0.32200
H 	H 	0.13680 0.88970 0.73800 0.52300
C 	C 	0.19570 0.92190 0.62970 -0.33500
H 	H 	0.19560 0.87470 0.62060 0.18000
C 	C 	0.23190 0.98210 0.57430 -0.26700
C 	C 	0.23350 0.05110 0.58790 -0.66800
H 	H 	0.25760 0.09210 0.54880 0.16200
C 	C 	0.19880 0.06030 0.65710 -0.16000
H 	H 	0.19890 0.10760 0.66610 0.09100
O 	O 	0.85620 0.07830 0.94030 -0.26400
C 	C 	0.84990 0.23230 0.05230 0.07400
H 	H 	0.89200 0.24710 0.08930 0.03900
C 	C 	0.81030 0.27240 0.05180 -0.11400
H 	H 	0.82500 0.31470 0.08870 0.07800
C 	C 	0.76980 0.83910 0.69900 0.02200
H 	H 	0.75290 0.86320 0.73800 -0.17900
C 	C 	0.72620 0.80430 0.62970 0.03200
H 	H 	0.67910 0.80440 0.62060 0.02500
C 	C 	0.75020 0.76810 0.57430 0.10000
C 	C 	0.81760 0.76650 0.58790 -0.26600
H 	H 	0.83450 0.74240 0.54880 0.10700
C 	C 	0.86150 0.80120 0.65710 0.15200
H 	H 	0.90870 0.80110 0.66610 -0.02900
O 	O 	0.22210 0.14380 0.94030 -0.24600
C 	C 	0.38240 0.15010 0.05230 0.07800
H 	H 	0.35510 0.10800 0.08930 0.00700
C 	C 	0.46210 0.18970 0.05180 -0.12700
H 	H 	0.48970 0.17500 0.08870 0.06400
C 	C 	0.06930 0.23020 0.69900 -0.08100
H 	H 	0.11030 0.24710 0.73800 -0.13600
C 	C 	0.07810 0.27380 0.62970 0.45800
H 	H 	0.12530 0.32090 0.62060 -0.13200
C 	C 	0.01790 0.24980 0.57430 0.20100
C 	C 	0.94890 0.18240 0.58790 0.62900
H 	H 	0.90790 0.16550 0.54880 -0.12000
C 	C 	0.93970 0.13850 0.65710 0.09200
H 	H 	0.89240 0.09130 0.66610 0.05600
O 	O 	0.77790 0.92170 0.94030 -0.20500
C 	C 	0.61760 0.76770 0.05230 0.06700
H 	H 	0.64490 0.75290 0.08930 0.02700
C 	C 	0.53790 0.72760 0.05180 -0.11400
H 	H 	0.51030 0.68530 0.08870 0.06900
C 	C 	0.93070 0.16090 0.69900 -0.32200
H 	H 	0.88970 0.13680 0.73800 0.52300
C 	C 	0.92190 0.19570 0.62970 -0.33500
H 	H 	0.87470 0.19560 0.62060 0.18000
C 	C 	0.98210 0.23190 0.57430 -0.26700
C 	C 	0.05110 0.23350 0.58790 -0.66800
H 	H 	0.09210 0.25760 0.54880 0.16200
C 	C 	0.06030 0.19880 0.65710 -0.16000
H 	H 	0.10760 0.19890 0.66610 0.09100
O 	O 	0.07830 0.85620 0.94030 -0.26400
C 	C 	0.23230 0.84990 0.05230 0.07400
H 	H 	0.24710 0.89200 0.08930 0.03900
C 	C 	0.27240 0.81030 0.05180 -0.11400
H 	H 	0.31470 0.82500 0.08870 0.07800
C 	C 	0.83910 0.76980 0.69900 0.02200
H 	H 	0.86320 0.75290 0.73800 -0.17900
C 	C 	0.80430 0.72620 0.62970 0.03200
H 	H 	0.80440 0.67910 0.62060 0.02500
C 	C 	0.76810 0.75020 0.57430 0.10000
C 	C 	0.76650 0.81760 0.58790 -0.26600
H 	H 	0.74240 0.83450 0.54880 0.10700
C 	C 	0.80120 0.86150 0.65710 0.15200
H 	H 	0.80110 0.90870 0.66610 -0.02900
O 	O 	0.14380 0.22210 0.94030 -0.24600
C 	C 	0.15010 0.38240 0.05230 0.07800
H 	H 	0.10800 0.35510 0.08930 0.00700
C 	C 	0.18970 0.46210 0.05180 -0.12700
H 	H 	0.17500 0.48970 0.08870 0.06400
C 	C 	0.23020 0.06930 0.69900 -0.08100
H 	H 	0.24710 0.11030 0.73800 -0.13600
C 	C 	0.27380 0.07810 0.62970 0.45800
H 	H 	0.32090 0.12530 0.62060 -0.13200
C 	C 	0.24980 0.01790 0.57430 0.20100
C 	C 	0.18240 0.94890 0.58790 0.62900
H 	H 	0.16550 0.90790 0.54880 -0.12000
C 	C 	0.13850 0.93970 0.65710 0.09200
H 	H 	0.09130 0.89240 0.66610 0.05600
O 	O 	0.22210 0.07830 0.94030 -0.26600
C 	C 	0.38240 0.23230 0.05230 0.08100
H 	H 	0.35510 0.24710 0.08930 0.02000
C 	C 	0.46210 0.27240 0.05180 -0.12400
H 	H 	0.48970 0.31470 0.08870 0.07200
C 	C 	0.06930 0.83910 0.69900 0.16800
H 	H 	0.11030 0.86320 0.73800 -0.40600
C 	C 	0.07810 0.80430 0.62970 0.36100
H 	H 	0.12530 0.80440 0.62060 -0.11000
C 	C 	0.01790 0.76810 0.57430 0.36500
C 	C 	0.94890 0.76650 0.58790 0.42800
H 	H 	0.90790 0.74240 0.54880 -0.04700
C 	C 	0.93970 0.80120 0.65710 0.27600
H 	H 	0.89240 0.80110 0.66610 -0.06100
O 	O 	0.92170 0.14380 0.94030 -0.20400
C 	C 	0.76770 0.15010 0.05230 0.07000
H 	H 	0.75290 0.10800 0.08930 0.01000
C 	C 	0.72760 0.18970 0.05180 -0.12100
H 	H 	0.68530 0.17500 0.08870 0.06300
C 	C 	0.16090 0.23020 0.69900 -0.31400
H 	H 	0.13680 0.24710 0.73800 0.29400
C 	C 	0.19570 0.27380 0.62970 0.09400
H 	H 	0.19560 0.32090 0.62060 0.01700
C 	C 	0.23190 0.24980 0.57430 -0.08800
C 	C 	0.23350 0.18240 0.58790 0.07300
H 	H 	0.25760 0.16550 0.54880 -0.01300
C 	C 	0.19880 0.13850 0.65710 -0.13200
H 	H 	0.19890 0.09130 0.66610 0.15400
O 	O 	0.85620 0.77790 0.94030 -0.24500
C 	C 	0.84990 0.61760 0.05230 0.06900
H 	H 	0.89200 0.64490 0.08930 0.04200
C 	C 	0.81030 0.53790 0.05180 -0.11000
H 	H 	0.82500 0.51030 0.08870 0.07700
C 	C 	0.76980 0.93070 0.69900 -0.23300
H 	H 	0.75290 0.88970 0.73800 0.32000
C 	C 	0.72620 0.92190 0.62970 -0.29800
H 	H 	0.67910 0.87470 0.62060 0.16500
C 	C 	0.75020 0.98210 0.57430 -0.24000
C 	C 	0.81760 0.05110 0.58790 -0.81200
H 	H 	0.83450 0.09210 0.54880 0.21000
C 	C 	0.86150 0.06030 0.65710 -0.05700
H 	H 	0.90870 0.10760 0.66610 0.02000
O 	O 	0.92170 0.77790 0.05970 -0.23200
C 	C 	0.76770 0.61760 0.94770 0.10600
H 	H 	0.75290 0.64490 0.91070 0.02500
C 	C 	0.72760 0.53790 0.94820 -0.07100
H 	H 	0.68530 0.51030 0.91130 0.07000
C 	C 	0.16090 0.93070 0.30100 -0.32300
H 	H 	0.13680 0.88970 0.26200 0.52300
C 	C 	0.19570 0.92190 0.37030 -0.33600
H 	H 	0.19560 0.87470 0.37940 0.18000
C 	C 	0.23190 0.98210 0.42570 -0.26800
C 	C 	0.23350 0.05110 0.41210 -0.66700
H 	H 	0.25760 0.09210 0.45120 0.16200
C 	C 	0.19880 0.06030 0.34290 -0.15900
H 	H 	0.19890 0.10760 0.33390 0.09000
O 	O 	0.85620 0.07830 0.05970 -0.29000
C 	C 	0.84990 0.23230 0.94770 0.11300
H 	H 	0.89200 0.24710 0.91070 0.03700
C 	C 	0.81030 0.27240 0.94820 -0.07200
H 	H 	0.82500 0.31470 0.91130 0.07900
C 	C 	0.76980 0.83910 0.30100 0.02100
H 	H 	0.75290 0.86320 0.26200 -0.17800
C 	C 	0.72620 0.80430 0.37030 0.03000
H 	H 	0.67910 0.80440 0.37940 0.02500
C 	C 	0.75020 0.76810 0.42570 0.09900
C 	C 	0.81760 0.76650 0.41210 -0.26500
H 	H 	0.83450 0.74240 0.45120 0.10600
C 	C 	0.86150 0.80120 0.34290 0.15300
H 	H 	0.90870 0.80110 0.33390 -0.03000
O 	O 	0.22210 0.14380 0.05970 -0.27300
C 	C 	0.38240 0.15010 0.94770 0.11800
H 	H 	0.35510 0.10800 0.91070 0.00500
C 	C 	0.46210 0.18970 0.94820 -0.08500
H 	H 	0.48970 0.17500 0.91130 0.06500
C 	C 	0.06930 0.23020 0.30100 -0.08100
H 	H 	0.11030 0.24710 0.26200 -0.13600
C 	C 	0.07810 0.27380 0.37030 0.45600
H 	H 	0.12530 0.32090 0.37940 -0.13300
C 	C 	0.01790 0.24980 0.42570 0.20100
C 	C 	0.94890 0.18240 0.41210 0.63000
H 	H 	0.90790 0.16550 0.45120 -0.12100
C 	C 	0.93970 0.13850 0.34290 0.09300
H 	H 	0.89240 0.09130 0.33390 0.05500
O 	O 	0.07830 0.22210 0.05970 -0.29300
C 	C 	0.23230 0.38240 0.94770 0.12000
H 	H 	0.24710 0.35510 0.91070 0.01800
C 	C 	0.27240 0.46210 0.94820 -0.08200
H 	H 	0.31470 0.48970 0.91130 0.07300
C 	C 	0.83910 0.06930 0.30100 0.16700
H 	H 	0.86320 0.11030 0.26200 -0.40600
C 	C 	0.80430 0.07810 0.37030 0.35900
H 	H 	0.80440 0.12530 0.37940 -0.11000
C 	C 	0.76810 0.01790 0.42570 0.36400
C 	C 	0.76650 0.94890 0.41210 0.42900
H 	H 	0.74240 0.90790 0.45120 -0.04700
C 	C 	0.80120 0.93970 0.34290 0.27700
H 	H 	0.80110 0.89240 0.33390 -0.06100
O 	O 	0.14380 0.92170 0.05970 -0.23000
C 	C 	0.15010 0.76770 0.94770 0.10900
H 	H 	0.10800 0.75290 0.91070 0.00800
C 	C 	0.18970 0.72760 0.94820 -0.07800
H 	H 	0.17500 0.68530 0.91130 0.06400
C 	C 	0.23020 0.16090 0.30100 -0.31500
H 	H 	0.24710 0.13680 0.26200 0.29400
C 	C 	0.27380 0.19570 0.37030 0.09300
H 	H 	0.32090 0.19560 0.37940 0.01700
C 	C 	0.24980 0.23190 0.42570 -0.08900
C 	C 	0.18240 0.23350 0.41210 0.07400
H 	H 	0.16550 0.25760 0.45120 -0.01300
C 	C 	0.13850 0.19880 0.34290 -0.13100
H 	H 	0.09130 0.19890 0.33390 0.15400
O 	O 	0.77790 0.85620 0.05970 -0.27200
C 	C 	0.61760 0.84990 0.94770 0.10800
H 	H 	0.64490 0.89200 0.91070 0.04100
C 	C 	0.53790 0.81030 0.94820 -0.06800
H 	H 	0.51030 0.82500 0.91130 0.07800
C 	C 	0.93070 0.76980 0.30100 -0.23400
H 	H 	0.88970 0.75290 0.26200 0.32000
C 	C 	0.92190 0.72620 0.37030 -0.29900
H 	H 	0.87470 0.67910 0.37940 0.16500
C 	C 	0.98210 0.75020 0.42570 -0.24000
C 	C 	0.05110 0.81760 0.41210 -0.81100
H 	H 	0.09210 0.83450 0.45120 0.21000
C 	C 	0.06030 0.86150 0.34290 -0.05700
H 	H 	0.10760 0.90870 0.33390 0.02000
Zr	Zr	0.10260 -0.00000 0.08530 3.87600
O 	O 	0.09320 -0.00000 0.04430 -3.05300
Zr	Zr	-0.00000 0.10260 0.08530 3.87600
O 	O 	-0.00000 0.09320 0.04430 -3.05300
Zr	Zr	0.89740 0.89740 0.08530 3.87300
O 	O 	0.90680 0.90680 0.04430 -2.95100
Zr	Zr	0.89740 -0.00000 0.08530 3.87400
O 	O 	0.90680 -0.00000 0.04430 -3.02500
Zr	Zr	-0.00000 0.89740 0.08530 3.87400
O 	O 	0.00000 0.90680 0.04430 -3.02500
Zr	Zr	0.10260 0.10260 0.08530 3.87700
O 	O 	0.09320 0.09320 0.04430 -3.01200
Zr	Zr	-0.00000 0.10260 0.91470 3.86900
O 	O 	0.00000 0.09320 0.95570 -3.00400
Zr	Zr	0.10260 -0.00000 0.91470 3.86900
O 	O 	0.09320 -0.00000 0.95570 -3.00400
Zr	Zr	0.89740 0.89740 0.91470 3.86600
O 	O 	0.90680 0.90680 0.95570 -2.90000
Zr	Zr	-0.00000 0.89740 0.91470 3.86700
O 	O 	0.00000 0.90680 0.95570 -2.97700
Zr	Zr	0.89740 -0.00000 0.91470 3.86700
O 	O 	0.90680 -0.00000 0.95570 -2.97700
Zr	Zr	0.10260 0.10260 0.91470 3.87000
O 	O 	0.09320 0.09320 0.95570 -2.96200
O 	O 	-0.00000 0.00000 0.12500 -0.69000
O 	O 	-0.00000 -0.00000 0.87500 -0.69300
C 	C 	0.25330 0.12665 -0.00000 0.67200
C 	C 	0.34170 0.17085 -0.00000 -0.31800
C 	C 	0.50280 0.25140 -0.00000 0.08300
C 	C 	0.58640 0.29320 -0.00000 -0.01600
C 	C 	0.87335 0.12665 -0.00000 0.64800
C 	C 	0.82915 0.17085 -0.00000 -0.29700
C 	C 	0.74860 0.25140 -0.00000 0.07200
C 	C 	0.70680 0.29320 -0.00000 -0.01000
C 	C 	0.87335 0.74670 -0.00000 0.63700
C 	C 	0.82915 0.65830 -0.00000 -0.28500
C 	C 	0.74860 0.49720 -0.00000 0.06400
C 	C 	0.70680 0.41360 -0.00000 -0.00600
C 	C 	0.74670 0.87335 -0.00000 0.63700
C 	C 	0.65830 0.82915 -0.00000 -0.28500
C 	C 	0.49720 0.74860 -0.00000 0.06400
C 	C 	0.41360 0.70680 -0.00000 -0.00600
C 	C 	0.12665 0.87335 -0.00000 0.64800
C 	C 	0.17085 0.82915 -0.00000 -0.29700
C 	C 	0.25140 0.74860 -0.00000 0.07200
C 	C 	0.29320 0.70680 -0.00000 -0.01000
C 	C 	0.12665 0.25330 -0.00000 0.67200
C 	C 	0.17085 0.34170 -0.00000 -0.31800
C 	C 	0.25140 0.50280 -0.00000 0.08300
C 	C 	0.29320 0.58640 -0.00000 -0.01600
C 	C 	0.62675 0.25350 -0.00000 -0.06300
H 	H 	0.59915 0.19830 -0.00000 0.03200
C 	C 	0.74650 0.37325 -0.00000 -0.06900
H 	H 	0.80170 0.40085 -0.00000 0.04800
C 	C 	0.62675 0.37325 -0.00000 -0.06600
H 	H 	0.59915 0.40085 -0.00000 0.03900
C 	C 	0.37325 0.74650 -0.00000 -0.06900
H 	H 	0.40085 0.80170 -0.00000 0.04800
C 	C 	0.25350 0.62675 -0.00000 -0.06300
H 	H 	0.19830 0.59915 -0.00000 0.03200
C 	C 	0.37325 0.62675 -0.00000 -0.06600
H 	H 	0.40085 0.59915 -0.00000 0.03900
O 	O 	0.07260 0.92740 0.18350 -0.54400
O 	O 	0.07260 0.14520 0.18350 -0.59900
O 	O 	0.85480 0.92740 0.18350 -0.56800
O 	O 	0.92740 0.07260 0.18350 -0.54400
O 	O 	0.92740 0.85480 0.18350 -0.56800
O 	O 	0.14520 0.07260 0.18350 -0.59900
O 	O 	0.92740 0.07260 0.81650 -0.54600
O 	O 	0.14520 0.07260 0.81650 -0.60100
O 	O 	0.92740 0.85480 0.81650 -0.57000
O 	O 	0.07260 0.92740 0.81650 -0.54600
O 	O 	0.85480 0.92740 0.81650 -0.57000
O 	O 	0.07260 0.14520 0.81650 -0.60100
C 	C 	0.00000 0.88123 0.20290 -0.14500
C 	C 	-0.00000 0.83743 0.28750 -0.03400
C 	C 	0.11877 0.11877 0.20290 -0.16900
C 	C 	0.16257 0.16257 0.28750 0.33400
C 	C 	0.88123 0.00000 0.20290 -0.14500
C 	C 	0.83743 -0.00000 0.28750 -0.03400
C 	C 	0.00000 0.11877 0.20290 -0.21100
C 	C 	-0.00000 0.16257 0.28750 0.13900
C 	C 	0.88123 0.88123 0.20290 -0.03100
C 	C 	0.83743 0.83743 0.28750 -0.00500
C 	C 	0.11877 0.00000 0.20290 -0.21100
C 	C 	0.16257 -0.00000 0.28750 0.13900
C 	C 	0.88123 -0.00000 0.79710 -0.14500
C 	C 	0.83743 -0.00000 0.71250 -0.03400
C 	C 	0.11877 0.11877 0.79710 -0.16900
C 	C 	0.16257 0.16257 0.71250 0.33400
C 	C 	0.00000 0.88123 0.79710 -0.14500
C 	C 	0.00000 0.83743 0.71250 -0.03400
C 	C 	0.11877 -0.00000 0.79710 -0.21100
C 	C 	0.16257 -0.00000 0.71250 0.13900
C 	C 	0.88123 0.88123 0.79710 -0.03100
C 	C 	0.83743 0.83743 0.71250 -0.00400
C 	C 	0.00000 0.11877 0.79710 -0.21100
C 	C 	-0.00000 0.16257 0.71250 0.13900
S 	S 	0.02640 0.71520 0.50000 1.18400
O 	O 	0.10400 0.71500 0.50000 -0.18700
O 	O 	0.96200 0.62900 0.50000 0.32000
S 	S 	0.28480 0.31120 0.50000 0.20500
O 	O 	0.28500 0.38900 0.50000 -0.10400
O 	O 	0.37100 0.33300 0.50000 -0.14400
S 	S 	0.68880 0.97360 0.50000 -0.98300
O 	O 	0.61100 0.89600 0.50000 -0.02300
O 	O 	0.66700 0.03800 0.50000 -0.52500
S 	S 	0.97360 0.28480 0.50000 -0.79200
O 	O 	0.89600 0.28500 0.50000 -0.03500
O 	O 	0.03800 0.37100 0.50000 -0.51100
S 	S 	0.71520 0.68880 0.50000 0.07500
O 	O 	0.71500 0.61100 0.50000 -0.10400
O 	O 	0.62900 0.66700 0.50000 -0.09200
S 	S 	0.31120 0.02640 0.50000 1.12600
O 	O 	0.38900 0.10400 0.50000 -0.17500
O 	O 	0.33300 0.96200 0.50000 0.25300
S 	S 	0.71520 0.02640 0.50000 1.18400
O 	O 	0.71500 0.10400 0.50000 -0.18700
O 	O 	0.62900 0.96200 0.50000 0.32000
S 	S 	0.31120 0.28480 0.50000 0.20500
O 	O 	0.38900 0.28500 0.50000 -0.10400
O 	O 	0.33300 0.37100 0.50000 -0.14400
S 	S 	0.97360 0.68880 0.50000 -0.98300
O 	O 	0.89600 0.61100 0.50000 -0.02300
O 	O 	0.03800 0.66700 0.50000 -0.52500
S 	S 	0.28480 0.97360 0.50000 -0.79200
O 	O 	0.28500 0.89600 0.50000 -0.03500
O 	O 	0.37100 0.03800 0.50000 -0.51100
S 	S 	0.68880 0.71520 0.50000 0.07500
O 	O 	0.61100 0.71500 0.50000 -0.10400
O 	O 	0.66700 0.62900 0.50000 -0.09200
S 	S 	0.02640 0.31120 0.50000 1.12600
O 	O 	0.10400 0.38900 0.50000 -0.17500
O 	O 	0.96200 0.33300 0.50000 0.25300
