data_crystal

_cell_length_a 22.95110
_cell_length_b 22.95110
_cell_length_c 15.89650
_cell_angle_alpha 90.00000
_cell_angle_beta  90.00000
_cell_angle_gamma 120.00000

_symmetry_space_group_name_	'P 1'
_symmetry_space_group_name_H-M	'P 1'

loop_
_symmetry_equiv_pos_as_xyz
  x,y,z

loop_
_atom_site_label
_atom_site_type_symbol
_atom_site_fract_x
_atom_site_fract_y
_atom_site_fract_z
_atom_site_charge
Zn	Zn	0.64116 0.88155 0.07530 0.98400
O 	O 	0.68280 0.83410 0.00570 -0.68100
O 	O 	0.59420 0.67850 0.04500 -0.49800
C 	C 	0.69000 0.89170 0.87810 -0.20000
O 	O 	0.63490 0.93140 0.17060 -0.59200
C 	C 	0.65300 0.77710 0.87510 -0.11900
H 	H 	0.64310 0.73750 0.90270 0.07700
C 	C 	0.67620 0.83470 0.92160 0.25800
C 	C 	0.57640 0.62780 0.08620 0.42400
O 	O 	0.53820 0.84260 0.03220 -0.34100
C 	C 	0.51640 0.84570 0.95710 0.07700
Zn	Zn	0.30783 0.21488 0.40863 0.98400
O 	O 	0.34947 0.16743 0.33903 -0.68100
O 	O 	0.26087 0.01183 0.37833 -0.53800
C 	C 	0.35667 0.22503 0.21143 -0.19300
O 	O 	0.30157 0.26473 0.50393 -0.60300
C 	C 	0.31967 0.11043 0.20843 -0.12500
H 	H 	0.30977 0.07083 0.23603 0.07200
C 	C 	0.34287 0.16803 0.25493 0.25400
C 	C 	0.24307 0.96113 0.41953 0.46800
O 	O 	0.20487 0.17593 0.36553 -0.34800
C 	C 	0.18307 0.17903 0.29043 0.06600
Zn	Zn	0.97449 0.54822 0.74197 0.99600
O 	O 	0.01613 0.50077 0.67237 -0.67600
O 	O 	0.92753 0.34517 0.71167 -0.48400
C 	C 	0.02333 0.55837 0.54477 -0.14500
O 	O 	0.96823 0.59807 0.83727 -0.59500
C 	C 	0.98633 0.44377 0.54177 -0.02200
H 	H 	0.97643 0.40417 0.56937 0.05500
C 	C 	0.00953 0.50137 0.58827 0.17400
C 	C 	0.90973 0.29447 0.75287 0.42300
O 	O 	0.87153 0.50927 0.69887 -0.33800
C 	C 	0.84973 0.51237 0.62377 0.07500
Zn	Zn	0.11845 0.75961 0.07530 0.98400
O 	O 	0.16590 0.84870 0.00570 -0.67700
O 	O 	0.32150 0.91570 0.04500 -0.49900
C 	C 	0.10830 0.79830 0.87810 -0.18000
O 	O 	0.06860 0.70350 0.17060 -0.61200
C 	C 	0.22290 0.87590 0.87510 -0.11300
H 	H 	0.26250 0.90560 0.90270 0.08100
C 	C 	0.16530 0.84150 0.92160 0.25000
C 	C 	0.37220 0.94860 0.08620 0.44100
O 	O 	0.15740 0.69560 0.03220 -0.34500
C 	C 	0.15430 0.67070 0.95710 0.06900
Zn	Zn	0.78512 0.09294 0.40863 0.98400
O 	O 	0.83257 0.18203 0.33903 -0.67900
O 	O 	0.98817 0.24903 0.37833 -0.45900
C 	C 	0.77497 0.13163 0.21143 -0.19200
O 	O 	0.73527 0.03683 0.50393 -0.60500
C 	C 	0.88957 0.20923 0.20843 -0.10900
H 	H 	0.92917 0.23893 0.23603 0.08000
C 	C 	0.83197 0.17483 0.25493 0.24900
C 	C 	0.03887 0.28193 0.41953 0.37700
O 	O 	0.82407 0.02893 0.36553 -0.33400
C 	C 	0.82097 0.00403 0.29043 0.01600
Zn	Zn	0.45178 0.42628 0.74197 0.98500
O 	O 	0.49923 0.51537 0.67237 -0.67900
O 	O 	0.65483 0.58237 0.71167 -0.49700
C 	C 	0.44163 0.46497 0.54477 -0.19000
O 	O 	0.40193 0.37017 0.83727 -0.60200
C 	C 	0.55623 0.54257 0.54177 -0.11600
H 	H 	0.59583 0.57227 0.56937 0.07600
C 	C 	0.49863 0.50817 0.58827 0.25100
C 	C 	0.70553 0.61527 0.75287 0.42300
O 	O 	0.49073 0.36227 0.69887 -0.34200
C 	C 	0.48763 0.33737 0.62377 0.07300
Zn	Zn	0.24039 0.35884 0.07530 0.98500
O 	O 	0.15130 0.31720 0.00570 -0.68300
O 	O 	0.08430 0.40580 0.04500 -0.49700
C 	C 	0.20170 0.31000 0.87810 -0.19100
O 	O 	0.29650 0.36510 0.17060 -0.60300
C 	C 	0.12410 0.34700 0.87510 -0.11600
H 	H 	0.09440 0.35690 0.90270 0.07000
C 	C 	0.15850 0.32380 0.92160 0.24700
C 	C 	0.05140 0.42360 0.08620 0.40700
O 	O 	0.30440 0.46180 0.03220 -0.34200
C 	C 	0.32930 0.48360 0.95710 0.07300
Zn	Zn	0.90706 0.69217 0.40863 0.98700
O 	O 	0.81797 0.65053 0.33903 -0.67800
O 	O 	0.75097 0.73913 0.37833 -0.49500
C 	C 	0.86837 0.64333 0.21143 -0.18400
O 	O 	0.96317 0.69843 0.50393 -0.59900
C 	C 	0.79077 0.68033 0.20843 -0.11300
H 	H 	0.76107 0.69023 0.23603 0.07600
C 	C 	0.82517 0.65713 0.25493 0.25000
C 	C 	0.71807 0.75693 0.41953 0.42600
O 	O 	0.97107 0.79513 0.36553 -0.34400
C 	C 	0.99597 0.81693 0.29043 0.13600
Zn	Zn	0.57372 0.02551 0.74197 0.97300
O 	O 	0.48463 0.98387 0.67237 -0.67900
O 	O 	0.41763 0.07247 0.71167 -0.50600
C 	C 	0.53503 0.97667 0.54477 -0.23500
O 	O 	0.62983 0.03177 0.83727 -0.61100
C 	C 	0.45743 0.01367 0.54177 -0.20900
H 	H 	0.42773 0.02357 0.56937 0.09800
C 	C 	0.49183 0.99047 0.58827 0.32800
C 	C 	0.38473 0.09027 0.75287 0.42500
O 	O 	0.63773 0.12847 0.69887 -0.34600
C 	C 	0.66263 0.15027 0.62377 0.07000
Zn	Zn	0.88155 0.64116 0.42470 0.98500
O 	O 	0.83410 0.68280 0.49430 -0.67900
O 	O 	0.67850 0.59420 0.45500 -0.49800
C 	C 	0.89170 0.69000 0.62190 -0.19900
O 	O 	0.93140 0.63490 0.32940 -0.59200
C 	C 	0.77710 0.65300 0.62490 -0.11900
H 	H 	0.73750 0.64310 0.59730 0.07800
C 	C 	0.83470 0.67620 0.57840 0.25800
C 	C 	0.62780 0.57640 0.41380 0.42400
O 	O 	0.84260 0.53820 0.46780 -0.34000
C 	C 	0.84570 0.51640 0.54290 0.07700
Zn	Zn	0.54822 0.97449 0.75803 0.99600
O 	O 	0.50077 0.01613 0.82763 -0.67600
O 	O 	0.34517 0.92753 0.78833 -0.48400
C 	C 	0.55837 0.02333 0.95523 -0.14600
O 	O 	0.59807 0.96823 0.66273 -0.59400
C 	C 	0.44377 0.98633 0.95823 -0.02300
H 	H 	0.40417 0.97643 0.93063 0.05500
C 	C 	0.50137 0.00953 0.91173 0.17400
C 	C 	0.29447 0.90973 0.74713 0.42300
O 	O 	0.50927 0.87153 0.80113 -0.33800
C 	C 	0.51237 0.84973 0.87623 0.07500
Zn	Zn	0.21488 0.30783 0.09137 0.98400
O 	O 	0.16743 0.34947 0.16097 -0.68100
O 	O 	0.01183 0.26087 0.12167 -0.53800
C 	C 	0.22503 0.35667 0.28857 -0.19300
O 	O 	0.26473 0.30157 0.99607 -0.60300
C 	C 	0.11043 0.31967 0.29157 -0.12500
H 	H 	0.07083 0.30977 0.26397 0.07200
C 	C 	0.16803 0.34287 0.24507 0.25400
C 	C 	0.96113 0.24307 0.08047 0.46900
O 	O 	0.17593 0.20487 0.13447 -0.34800
C 	C 	0.17903 0.18307 0.20957 0.06700
Zn	Zn	0.75961 0.11845 0.42470 0.98400
O 	O 	0.84870 0.16590 0.49430 -0.67600
O 	O 	0.91570 0.32150 0.45500 -0.49800
C 	C 	0.79830 0.10830 0.62190 -0.17900
O 	O 	0.70350 0.06860 0.32940 -0.61100
C 	C 	0.87590 0.22290 0.62490 -0.11200
H 	H 	0.90560 0.26250 0.59730 0.08100
C 	C 	0.84150 0.16530 0.57840 0.24900
C 	C 	0.94860 0.37220 0.41380 0.44200
O 	O 	0.69560 0.15740 0.46780 -0.34400
C 	C 	0.67070 0.15430 0.54290 0.06900
Zn	Zn	0.42628 0.45178 0.75803 0.98500
O 	O 	0.51537 0.49923 0.82763 -0.67900
O 	O 	0.58237 0.65483 0.78833 -0.49700
C 	C 	0.46497 0.44163 0.95523 -0.19000
O 	O 	0.37017 0.40193 0.66273 -0.60200
C 	C 	0.54257 0.55623 0.95823 -0.11600
H 	H 	0.57227 0.59583 0.93063 0.07600
C 	C 	0.50817 0.49863 0.91173 0.25100
C 	C 	0.61527 0.70553 0.74713 0.42300
O 	O 	0.36227 0.49073 0.80113 -0.34200
C 	C 	0.33737 0.48763 0.87623 0.07300
Zn	Zn	0.09294 0.78512 0.09137 0.98400
O 	O 	0.18203 0.83257 0.16097 -0.67900
O 	O 	0.24903 0.98817 0.12167 -0.46000
C 	C 	0.13163 0.77497 0.28857 -0.19200
O 	O 	0.03683 0.73527 0.99607 -0.60500
C 	C 	0.20923 0.88957 0.29157 -0.11000
H 	H 	0.23893 0.92917 0.26397 0.08000
C 	C 	0.17483 0.83197 0.24507 0.24900
C 	C 	0.28193 0.03887 0.08047 0.37800
O 	O 	0.02893 0.82407 0.13447 -0.33400
C 	C 	0.00403 0.82097 0.20957 0.01500
Zn	Zn	0.35884 0.24039 0.42470 0.98500
O 	O 	0.31720 0.15130 0.49430 -0.68300
O 	O 	0.40580 0.08430 0.45500 -0.49600
C 	C 	0.31000 0.20170 0.62190 -0.19100
O 	O 	0.36510 0.29650 0.32940 -0.60300
C 	C 	0.34700 0.12410 0.62490 -0.11600
H 	H 	0.35690 0.09440 0.59730 0.07000
C 	C 	0.32380 0.15850 0.57840 0.24700
C 	C 	0.42360 0.05140 0.41380 0.40600
O 	O 	0.46180 0.30440 0.46780 -0.34200
C 	C 	0.48360 0.32930 0.54290 0.07300
Zn	Zn	0.02551 0.57372 0.75803 0.97300
O 	O 	0.98387 0.48463 0.82763 -0.67900
O 	O 	0.07247 0.41763 0.78833 -0.50600
C 	C 	0.97667 0.53503 0.95523 -0.23500
O 	O 	0.03177 0.62983 0.66273 -0.61000
C 	C 	0.01367 0.45743 0.95823 -0.20700
H 	H 	0.02357 0.42773 0.93063 0.09800
C 	C 	0.99047 0.49183 0.91173 0.32700
C 	C 	0.09027 0.38473 0.74713 0.42500
O 	O 	0.12847 0.63773 0.80113 -0.34600
C 	C 	0.15027 0.66263 0.87623 0.07000
Zn	Zn	0.69217 0.90706 0.09137 0.98700
O 	O 	0.65053 0.81797 0.16097 -0.67800
O 	O 	0.73913 0.75097 0.12167 -0.49500
C 	C 	0.64333 0.86837 0.28857 -0.18400
O 	O 	0.69843 0.96317 0.99607 -0.60000
C 	C 	0.68033 0.79077 0.29157 -0.11300
H 	H 	0.69023 0.76107 0.26397 0.07600
C 	C 	0.65713 0.82517 0.24507 0.25000
C 	C 	0.75693 0.71807 0.08047 0.42600
O 	O 	0.79513 0.97107 0.13447 -0.34400
C 	C 	0.81693 0.99597 0.20957 0.13500
Zn	Zn	0.35884 0.11845 0.92470 0.98400
O 	O 	0.31720 0.16590 0.99430 -0.68000
O 	O 	0.40580 0.32150 0.95500 -0.49800
C 	C 	0.31000 0.10830 0.12190 -0.18000
O 	O 	0.36510 0.06860 0.82940 -0.61200
C 	C 	0.34700 0.22290 0.12490 -0.11200
H 	H 	0.35690 0.26250 0.09730 0.07500
C 	C 	0.32380 0.16530 0.07840 0.24500
C 	C 	0.42360 0.37220 0.91380 0.42400
O 	O 	0.46180 0.15740 0.96780 -0.34400
C 	C 	0.48360 0.15430 0.04290 0.06900
Zn	Zn	0.02551 0.45178 0.25803 0.97300
O 	O 	0.98387 0.49923 0.32763 -0.67900
O 	O 	0.07247 0.65483 0.28833 -0.50600
C 	C 	0.97667 0.44163 0.45523 -0.23500
O 	O 	0.03177 0.40193 0.16273 -0.61000
C 	C 	0.01367 0.55623 0.45823 -0.20900
H 	H 	0.02357 0.59583 0.43063 0.09800
C 	C 	0.99047 0.49863 0.41173 0.32800
C 	C 	0.09027 0.70553 0.24713 0.42400
O 	O 	0.12847 0.49073 0.30113 -0.34600
C 	C 	0.15027 0.48763 0.37623 0.07000
Zn	Zn	0.69217 0.78512 0.59137 0.98500
O 	O 	0.65053 0.83257 0.66097 -0.67800
O 	O 	0.73913 0.98817 0.62167 -0.45600
C 	C 	0.64333 0.77497 0.78857 -0.18700
O 	O 	0.69843 0.73527 0.49607 -0.60200
C 	C 	0.68033 0.88957 0.79157 -0.10700
H 	H 	0.69023 0.92917 0.76397 0.08000
C 	C 	0.65713 0.83197 0.74507 0.24800
C 	C 	0.75693 0.03887 0.58047 0.37900
O 	O 	0.79513 0.82407 0.63447 -0.33600
C 	C 	0.81693 0.82097 0.70957 0.07900
Zn	Zn	0.88155 0.24039 0.92470 0.98500
O 	O 	0.83410 0.15130 0.99430 -0.68300
O 	O 	0.67850 0.08430 0.95500 -0.49700
C 	C 	0.89170 0.20170 0.12190 -0.20100
O 	O 	0.93140 0.29650 0.82940 -0.59200
C 	C 	0.77710 0.12410 0.12490 -0.12000
H 	H 	0.73750 0.09440 0.09730 0.07200
C 	C 	0.83470 0.15850 0.07840 0.25500
C 	C 	0.62780 0.05140 0.91380 0.40700
O 	O 	0.84260 0.30440 0.96780 -0.34100
C 	C 	0.84570 0.32930 0.04290 0.07700
Zn	Zn	0.54822 0.57372 0.25803 0.98500
O 	O 	0.50077 0.48463 0.32763 -0.67900
O 	O 	0.34517 0.41763 0.28833 -0.49800
C 	C 	0.55837 0.53503 0.45523 -0.19000
O 	O 	0.59807 0.62983 0.16273 -0.60200
C 	C 	0.44377 0.45743 0.45823 -0.11600
H 	H 	0.40417 0.42773 0.43063 0.07600
C 	C 	0.50137 0.49183 0.41173 0.25100
C 	C 	0.29447 0.38473 0.24713 0.42500
O 	O 	0.50927 0.63773 0.30113 -0.34200
C 	C 	0.51237 0.66263 0.37623 0.07300
Zn	Zn	0.21488 0.90706 0.59137 0.98600
O 	O 	0.16743 0.81797 0.66097 -0.68000
O 	O 	0.01183 0.75097 0.62167 -0.53600
C 	C 	0.22503 0.86837 0.78857 -0.18700
O 	O 	0.26473 0.96317 0.49607 -0.60000
C 	C 	0.11043 0.79077 0.79157 -0.12100
H 	H 	0.07083 0.76107 0.76397 0.07200
C 	C 	0.16803 0.82517 0.74507 0.25300
C 	C 	0.96113 0.71807 0.58047 0.47000
O 	O 	0.17593 0.97107 0.63447 -0.35000
C 	C 	0.17903 0.99597 0.70957 0.13000
Zn	Zn	0.75961 0.64116 0.92470 0.98500
O 	O 	0.84870 0.68280 0.99430 -0.67700
O 	O 	0.91570 0.59420 0.95500 -0.49900
C 	C 	0.79830 0.69000 0.12190 -0.18900
O 	O 	0.70350 0.63490 0.82940 -0.60200
C 	C 	0.87590 0.65300 0.12490 -0.11600
H 	H 	0.90560 0.64310 0.09730 0.08200
C 	C 	0.84150 0.67620 0.07840 0.25600
C 	C 	0.94860 0.57640 0.91380 0.44100
O 	O 	0.69560 0.53820 0.96780 -0.34300
C 	C 	0.67070 0.51640 0.04290 0.07200
Zn	Zn	0.42628 0.97449 0.25803 0.99600
O 	O 	0.51537 0.01613 0.32763 -0.67600
O 	O 	0.58237 0.92753 0.28833 -0.48400
C 	C 	0.46497 0.02333 0.45523 -0.14500
O 	O 	0.37017 0.96823 0.16273 -0.59400
C 	C 	0.54257 0.98633 0.45823 -0.02200
H 	H 	0.57227 0.97643 0.43063 0.05400
C 	C 	0.50817 0.00953 0.41173 0.17400
C 	C 	0.61527 0.90973 0.24713 0.42200
O 	O 	0.36227 0.87153 0.30113 -0.33800
C 	C 	0.33737 0.84973 0.37623 0.07500
Zn	Zn	0.09294 0.30783 0.59137 0.98300
O 	O 	0.18203 0.34947 0.66097 -0.68000
O 	O 	0.24903 0.26087 0.62167 -0.50000
C 	C 	0.13163 0.35667 0.78857 -0.19500
O 	O 	0.03683 0.30157 0.49607 -0.60500
C 	C 	0.20923 0.31967 0.79157 -0.11900
H 	H 	0.23893 0.30977 0.76397 0.07600
C 	C 	0.17483 0.34287 0.74507 0.25200
C 	C 	0.28193 0.24307 0.58047 0.42200
O 	O 	0.02893 0.20487 0.63447 -0.34000
C 	C 	0.00403 0.18307 0.70957 0.01000
Zn	Zn	0.11845 0.35884 0.57530 0.98400
O 	O 	0.16590 0.31720 0.50570 -0.67900
O 	O 	0.32150 0.40580 0.54500 -0.49700
C 	C 	0.10830 0.31000 0.37810 -0.18000
O 	O 	0.06860 0.36510 0.67060 -0.61200
C 	C 	0.22290 0.34700 0.37510 -0.11200
H 	H 	0.26250 0.35690 0.40270 0.07500
C 	C 	0.16530 0.32380 0.42160 0.24400
C 	C 	0.37220 0.42360 0.58620 0.42400
O 	O 	0.15740 0.46180 0.53220 -0.34400
C 	C 	0.15430 0.48360 0.45710 0.06900
Zn	Zn	0.78512 0.69217 0.90863 0.98500
O 	O 	0.83257 0.65053 0.83903 -0.67800
O 	O 	0.98817 0.73913 0.87833 -0.45700
C 	C 	0.77497 0.64333 0.71143 -0.18700
O 	O 	0.73527 0.69843 0.00393 -0.60200
C 	C 	0.88957 0.68033 0.70843 -0.10700
H 	H 	0.92917 0.69023 0.73603 0.08000
C 	C 	0.83197 0.65713 0.75493 0.24800
C 	C 	0.03887 0.75693 0.91953 0.38000
O 	O 	0.82407 0.79513 0.86553 -0.33600
C 	C 	0.82097 0.81693 0.79043 0.07900
Zn	Zn	0.45178 0.02551 0.24197 0.97400
O 	O 	0.49923 0.98387 0.17237 -0.67900
O 	O 	0.65483 0.07247 0.21167 -0.50600
C 	C 	0.44163 0.97667 0.04477 -0.23500
O 	O 	0.40193 0.03177 0.33727 -0.61000
C 	C 	0.55623 0.01367 0.04177 -0.20700
H 	H 	0.59583 0.02357 0.06937 0.09800
C 	C 	0.49863 0.99047 0.08827 0.32700
C 	C 	0.70553 0.09027 0.25287 0.42300
O 	O 	0.49073 0.12847 0.19887 -0.34600
C 	C 	0.48763 0.15027 0.12377 0.07000
Zn	Zn	0.24039 0.88155 0.57530 0.98600
O 	O 	0.15130 0.83410 0.50570 -0.68300
O 	O 	0.08430 0.67850 0.54500 -0.49700
C 	C 	0.20170 0.89170 0.37810 -0.20000
O 	O 	0.29650 0.93140 0.67060 -0.59200
C 	C 	0.12410 0.77710 0.37510 -0.11900
H 	H 	0.09440 0.73750 0.40270 0.07200
C 	C 	0.15850 0.83470 0.42160 0.25400
C 	C 	0.05140 0.62780 0.58620 0.40600
O 	O 	0.30440 0.84260 0.53220 -0.34000
C 	C 	0.32930 0.84570 0.45710 0.07700
Zn	Zn	0.90706 0.21488 0.90863 0.98600
O 	O 	0.81797 0.16743 0.83903 -0.68000
O 	O 	0.75097 0.01183 0.87833 -0.53600
C 	C 	0.86837 0.22503 0.71143 -0.18700
O 	O 	0.96317 0.26473 0.00393 -0.60000
C 	C 	0.79077 0.11043 0.70843 -0.12200
H 	H 	0.76107 0.07083 0.73603 0.07200
C 	C 	0.82517 0.16803 0.75493 0.25300
C 	C 	0.71807 0.96113 0.91953 0.47000
O 	O 	0.97107 0.17593 0.86553 -0.35000
C 	C 	0.99597 0.17903 0.79043 0.13000
Zn	Zn	0.57372 0.54822 0.24197 0.98500
O 	O 	0.48463 0.50077 0.17237 -0.67900
O 	O 	0.41763 0.34517 0.21167 -0.49800
C 	C 	0.53503 0.55837 0.04477 -0.19000
O 	O 	0.62983 0.59807 0.33727 -0.60200
C 	C 	0.45743 0.44377 0.04177 -0.11600
H 	H 	0.42773 0.40417 0.06937 0.07600
C 	C 	0.49183 0.50137 0.08827 0.25100
C 	C 	0.38473 0.29447 0.25287 0.42500
O 	O 	0.63773 0.50927 0.19887 -0.34200
C 	C 	0.66263 0.51237 0.12377 0.07200
Zn	Zn	0.64116 0.75961 0.57530 0.98500
O 	O 	0.68280 0.84870 0.50570 -0.67600
O 	O 	0.59420 0.91570 0.54500 -0.49800
C 	C 	0.69000 0.79830 0.37810 -0.18900
O 	O 	0.63490 0.70350 0.67060 -0.60200
C 	C 	0.65300 0.87590 0.37510 -0.11600
H 	H 	0.64310 0.90560 0.40270 0.08200
C 	C 	0.67620 0.84150 0.42160 0.25500
C 	C 	0.57640 0.94860 0.58620 0.44100
O 	O 	0.53820 0.69560 0.53220 -0.34200
C 	C 	0.51640 0.67070 0.45710 0.07300
Zn	Zn	0.30783 0.09294 0.90863 0.98300
O 	O 	0.34947 0.18203 0.83903 -0.68000
O 	O 	0.26087 0.24903 0.87833 -0.50000
C 	C 	0.35667 0.13163 0.71143 -0.19500
O 	O 	0.30157 0.03683 0.00393 -0.60500
C 	C 	0.31967 0.20923 0.70843 -0.11900
H 	H 	0.30977 0.23893 0.73603 0.07600
C 	C 	0.34287 0.17483 0.75493 0.25200
C 	C 	0.24307 0.28193 0.91953 0.42200
O 	O 	0.20487 0.02893 0.86553 -0.34000
C 	C 	0.18307 0.00403 0.79043 0.00900
Zn	Zn	0.97449 0.42628 0.24197 0.99700
O 	O 	0.01613 0.51537 0.17237 -0.67600
O 	O 	0.92753 0.58237 0.21167 -0.48400
C 	C 	0.02333 0.46497 0.04477 -0.14600
O 	O 	0.96823 0.37017 0.33727 -0.59400
C 	C 	0.98633 0.54257 0.04177 -0.02200
H 	H 	0.97643 0.57227 0.06937 0.05500
C 	C 	0.00953 0.50817 0.08827 0.17400
C 	C 	0.90973 0.61527 0.25287 0.42200
O 	O 	0.87153 0.36227 0.19887 -0.33800
C 	C 	0.84973 0.33737 0.12377 0.07500
Zn	Zn	0.66667 0.76196 0.08333 1.23800
Zn	Zn	0.23804 0.90470 0.08333 1.23800
Zn	Zn	0.09530 0.33333 0.08333 1.23600
Zn	Zn	0.76196 0.66667 0.41667 1.23800
Zn	Zn	0.42863 0.00000 0.75000 1.22600
Zn	Zn	0.90470 0.23804 0.41667 1.23800
Zn	Zn	0.57137 0.57137 0.75000 1.23700
Zn	Zn	0.33333 0.09530 0.41667 1.23600
Zn	Zn	0.00000 0.42863 0.75000 1.22700
Zn	Zn	0.33333 0.23804 0.91667 1.23700
Zn	Zn	-0.00000 0.57137 0.25000 1.22600
Zn	Zn	0.76196 0.09530 0.91667 1.23600
Zn	Zn	0.42863 0.42863 0.25000 1.23700
Zn	Zn	0.90470 0.66667 0.91667 1.23800
Zn	Zn	0.57137 0.00000 0.25000 1.22600
Zn	Zn	0.23804 0.33333 0.58333 1.23700
Zn	Zn	0.09530 0.76196 0.58333 1.23600
Zn	Zn	0.66667 0.90470 0.58333 1.23900
