data_crystal

_cell_length_a 31.46890
_cell_length_b 31.46890
_cell_length_c 16.87140
_cell_angle_alpha 90.00000
_cell_angle_beta  90.00000
_cell_angle_gamma 120.00000

_symmetry_space_group_name_	'P 1'
_symmetry_space_group_name_H-M	'P 1'

loop_
_symmetry_equiv_pos_as_xyz
  x,y,z

loop_
_atom_site_label
_atom_site_type_symbol
_atom_site_fract_x
_atom_site_fract_y
_atom_site_fract_z
_atom_site_charge
O 	O 	0.34000 0.74954 0.08500 -0.49300
C 	C 	0.37120 0.81880 0.20480 0.10300
H 	H 	0.33960 0.80660 0.18510 -0.00700
C 	C 	0.38900 0.85510 0.26380 -0.19800
H 	H 	0.36960 0.86750 0.28290 0.09000
O 	O 	0.25046 0.59046 0.08500 -0.49200
C 	C 	0.18120 0.55240 0.20480 0.10400
H 	H 	0.19340 0.53300 0.18510 -0.00700
C 	C 	0.14490 0.53390 0.26380 -0.19900
H 	H 	0.13250 0.50210 0.28290 0.08900
O 	O 	0.40954 0.66000 0.08500 -0.49200
C 	C 	0.44760 0.62880 0.20480 0.10400
H 	H 	0.46700 0.66040 0.18510 -0.00700
C 	C 	0.46610 0.61100 0.26380 -0.19800
H 	H 	0.49790 0.63040 0.28290 0.09000
O 	O 	0.66000 0.25046 0.08500 -0.49200
C 	C 	0.62880 0.18120 0.20480 0.10400
H 	H 	0.66040 0.19340 0.18510 -0.00700
C 	C 	0.61100 0.14490 0.26380 -0.19900
H 	H 	0.63040 0.13250 0.28290 0.09000
O 	O 	0.74954 0.40954 0.08500 -0.49100
C 	C 	0.81880 0.44760 0.20480 0.10400
H 	H 	0.80660 0.46700 0.18510 -0.00600
C 	C 	0.85510 0.46610 0.26380 -0.19800
H 	H 	0.86750 0.49790 0.28290 0.09100
O 	O 	0.59046 0.34000 0.08500 -0.49200
C 	C 	0.55240 0.37120 0.20480 0.10400
H 	H 	0.53300 0.33960 0.18510 -0.00700
C 	C 	0.53390 0.38900 0.26380 -0.19800
H 	H 	0.50210 0.36960 0.28290 0.08900
O 	O 	0.74954 0.34000 0.91500 -0.42200
C 	C 	0.81880 0.37120 0.79520 0.09500
H 	H 	0.80660 0.33960 0.81490 0.01600
C 	C 	0.85510 0.38900 0.73620 -0.18000
H 	H 	0.86750 0.36960 0.71710 0.09500
O 	O 	0.59046 0.25046 0.91500 -0.42200
C 	C 	0.55240 0.18120 0.79520 0.09500
H 	H 	0.53300 0.19340 0.81490 0.01600
C 	C 	0.53390 0.14490 0.73620 -0.18100
H 	H 	0.50210 0.13250 0.71710 0.09400
O 	O 	0.66000 0.40954 0.91500 -0.42200
C 	C 	0.62880 0.44760 0.79520 0.09500
H 	H 	0.66040 0.46700 0.81490 0.01700
C 	C 	0.61100 0.46610 0.73620 -0.18000
H 	H 	0.63040 0.49790 0.71710 0.09500
O 	O 	0.25046 0.66000 0.91500 -0.42200
C 	C 	0.18120 0.62880 0.79520 0.09500
H 	H 	0.19340 0.66040 0.81490 0.01600
C 	C 	0.14490 0.61100 0.73620 -0.18100
H 	H 	0.13250 0.63040 0.71710 0.09500
O 	O 	0.40954 0.74954 0.91500 -0.42200
C 	C 	0.44760 0.81880 0.79520 0.09500
H 	H 	0.46700 0.80660 0.81490 0.01700
C 	C 	0.46610 0.85510 0.73620 -0.18000
H 	H 	0.49790 0.86750 0.71710 0.09600
O 	O 	0.34000 0.59046 0.91500 -0.42200
C 	C 	0.37120 0.55240 0.79520 0.09500
H 	H 	0.33960 0.53300 0.81490 0.01600
C 	C 	0.38900 0.53390 0.73620 -0.18000
H 	H 	0.36960 0.50210 0.71710 0.09500
O 	O 	0.66000 0.25046 0.91500 -0.42200
C 	C 	0.62880 0.18120 0.79520 0.09500
H 	H 	0.66040 0.19340 0.81490 0.01600
C 	C 	0.61100 0.14490 0.73620 -0.18100
H 	H 	0.63040 0.13250 0.71710 0.09500
O 	O 	0.74954 0.40954 0.91500 -0.42200
C 	C 	0.81880 0.44760 0.79520 0.09500
H 	H 	0.80660 0.46700 0.81490 0.01700
C 	C 	0.85510 0.46610 0.73620 -0.18000
H 	H 	0.86750 0.49790 0.71710 0.09600
O 	O 	0.59046 0.34000 0.91500 -0.42200
C 	C 	0.55240 0.37120 0.79520 0.09500
H 	H 	0.53300 0.33960 0.81490 0.01600
C 	C 	0.53390 0.38900 0.73620 -0.18000
H 	H 	0.50210 0.36960 0.71710 0.09500
O 	O 	0.34000 0.74954 0.91500 -0.42200
C 	C 	0.37120 0.81880 0.79520 0.09500
H 	H 	0.33960 0.80660 0.81490 0.01600
C 	C 	0.38900 0.85510 0.73620 -0.18000
H 	H 	0.36960 0.86750 0.71710 0.09500
O 	O 	0.25046 0.59046 0.91500 -0.42200
C 	C 	0.18120 0.55240 0.79520 0.09500
H 	H 	0.19340 0.53300 0.81490 0.01600
C 	C 	0.14490 0.53390 0.73620 -0.18100
H 	H 	0.13250 0.50210 0.71710 0.09400
O 	O 	0.40954 0.66000 0.91500 -0.42200
C 	C 	0.44760 0.62880 0.79520 0.09500
H 	H 	0.46700 0.66040 0.81490 0.01700
C 	C 	0.46610 0.61100 0.73620 -0.18000
H 	H 	0.49790 0.63040 0.71710 0.09500
O 	O 	0.25046 0.66000 0.08500 -0.49200
C 	C 	0.18120 0.62880 0.20480 0.10400
H 	H 	0.19340 0.66040 0.18510 -0.00700
C 	C 	0.14490 0.61100 0.26380 -0.19900
H 	H 	0.13250 0.63040 0.28290 0.09000
O 	O 	0.40954 0.74954 0.08500 -0.49100
C 	C 	0.44760 0.81880 0.20480 0.10400
H 	H 	0.46700 0.80660 0.18510 -0.00600
C 	C 	0.46610 0.85510 0.26380 -0.19800
H 	H 	0.49790 0.86750 0.28290 0.09100
O 	O 	0.34000 0.59046 0.08500 -0.49200
C 	C 	0.37120 0.55240 0.20480 0.10400
H 	H 	0.33960 0.53300 0.18510 -0.00700
C 	C 	0.38900 0.53390 0.26380 -0.19800
H 	H 	0.36960 0.50210 0.28290 0.08900
O 	O 	0.74954 0.34000 0.08500 -0.49200
C 	C 	0.81880 0.37120 0.20480 0.10400
H 	H 	0.80660 0.33960 0.18510 -0.00700
C 	C 	0.85510 0.38900 0.26380 -0.19800
H 	H 	0.86750 0.36960 0.28290 0.09000
O 	O 	0.59046 0.25046 0.08500 -0.49200
C 	C 	0.55240 0.18120 0.20480 0.10400
H 	H 	0.53300 0.19340 0.18510 -0.00700
C 	C 	0.53390 0.14490 0.26380 -0.19900
H 	H 	0.50210 0.13250 0.28290 0.08900
O 	O 	0.66000 0.40954 0.08500 -0.49200
C 	C 	0.62880 0.44760 0.20480 0.10400
H 	H 	0.66040 0.46700 0.18510 -0.00700
C 	C 	0.61100 0.46610 0.26380 -0.19800
H 	H 	0.63040 0.49790 0.28290 0.09000
Fe	Fe	0.29639 0.70361 -0.00000 1.17800
Fe	Fe	0.29639 0.59278 -0.00000 1.17800
Fe	Fe	0.40722 0.70361 -0.00000 1.17800
Fe	Fe	0.70361 0.29639 -0.00000 1.17800
Fe	Fe	0.70361 0.40722 -0.00000 1.17800
Fe	Fe	0.59278 0.29639 -0.00000 1.17800
Co	Co	0.49240 -0.00000 0.50000 0.57300
Co	Co	-0.00000 0.49240 0.50000 0.57300
Co	Co	0.50760 0.50760 0.50000 0.57500
Co	Co	0.50760 -0.00000 0.50000 0.57400
Co	Co	0.00000 0.50760 0.50000 0.57400
Co	Co	0.49240 0.49240 0.50000 0.57400
C 	C 	0.44830 0.89660 0.43560 0.10800
C 	C 	0.48055 0.96110 0.33190 0.10700
C 	C 	0.45545 0.91090 0.35710 -0.16500
C 	C 	0.42395 0.84790 0.45930 -0.09400
H 	H 	0.41025 0.82050 0.42640 0.06600
C 	C 	0.48745 0.97490 0.25410 -0.08900
H 	H 	0.47720 0.95440 0.21010 0.05200
C 	C 	0.43615 0.87230 0.29340 0.14600
C 	C 	0.40045 0.80090 0.17570 -0.19100
C 	C 	0.38155 0.76310 0.10870 0.46600
C 	C 	0.10340 0.55170 0.43560 0.10700
C 	C 	0.03890 0.51945 0.33190 0.10800
C 	C 	0.08910 0.54455 0.35710 -0.16800
C 	C 	0.15210 0.57605 0.45930 -0.09400
H 	H 	0.17950 0.58975 0.42640 0.06600
C 	C 	0.02510 0.51255 0.25410 -0.11200
H 	H 	0.04560 0.52280 0.21010 0.05700
C 	C 	0.12770 0.56385 0.29340 0.14700
C 	C 	0.19910 0.59955 0.17570 -0.19200
C 	C 	0.23690 0.61845 0.10870 0.46600
C 	C 	0.44830 0.55170 0.43560 0.10700
C 	C 	0.48055 0.51945 0.33190 0.10500
C 	C 	0.45545 0.54455 0.35710 -0.16600
C 	C 	0.42395 0.57605 0.45930 -0.09400
H 	H 	0.41025 0.58975 0.42640 0.06500
C 	C 	0.48745 0.51255 0.25410 -0.10000
H 	H 	0.47720 0.52280 0.21010 0.05400
C 	C 	0.43615 0.56385 0.29340 0.14600
C 	C 	0.40045 0.59955 0.17570 -0.19100
C 	C 	0.38155 0.61845 0.10870 0.46600
C 	C 	0.55170 0.10340 0.43560 0.10700
C 	C 	0.51945 0.03890 0.33190 0.10800
C 	C 	0.54455 0.08910 0.35710 -0.16800
C 	C 	0.57605 0.15210 0.45930 -0.09400
H 	H 	0.58975 0.17950 0.42640 0.06600
C 	C 	0.51255 0.02510 0.25410 -0.11200
H 	H 	0.52280 0.04560 0.21010 0.05700
C 	C 	0.56385 0.12770 0.29340 0.14700
C 	C 	0.59955 0.19910 0.17570 -0.19200
C 	C 	0.61845 0.23690 0.10870 0.46600
C 	C 	0.89660 0.44830 0.43560 0.10800
C 	C 	0.96110 0.48055 0.33190 0.10700
C 	C 	0.91090 0.45545 0.35710 -0.16500
C 	C 	0.84790 0.42395 0.45930 -0.09400
H 	H 	0.82050 0.41025 0.42640 0.06600
C 	C 	0.97490 0.48745 0.25410 -0.08900
H 	H 	0.95440 0.47720 0.21010 0.05200
C 	C 	0.87230 0.43615 0.29340 0.14600
C 	C 	0.80090 0.40045 0.17570 -0.19100
C 	C 	0.76310 0.38155 0.10870 0.46600
C 	C 	0.55170 0.44830 0.43560 0.10700
C 	C 	0.51945 0.48055 0.33190 0.10500
C 	C 	0.54455 0.45545 0.35710 -0.16600
C 	C 	0.57605 0.42395 0.45930 -0.09400
H 	H 	0.58975 0.41025 0.42640 0.06500
C 	C 	0.51255 0.48745 0.25410 -0.10000
H 	H 	0.52280 0.47720 0.21010 0.05400
C 	C 	0.56385 0.43615 0.29340 0.14600
C 	C 	0.59955 0.40045 0.17570 -0.19100
C 	C 	0.61845 0.38155 0.10870 0.46600
C 	C 	0.89660 0.44830 0.56440 0.10700
C 	C 	0.96110 0.48055 0.66810 0.11100
C 	C 	0.91090 0.45545 0.64290 -0.16000
C 	C 	0.84790 0.42395 0.54070 -0.09200
H 	H 	0.82050 0.41025 0.57360 0.06600
C 	C 	0.97490 0.48745 0.74590 -0.08100
H 	H 	0.95440 0.47720 0.78990 0.07400
C 	C 	0.87230 0.43615 0.70660 0.14100
C 	C 	0.80090 0.40045 0.82430 -0.15900
C 	C 	0.76310 0.38155 0.89130 0.45400
C 	C 	0.55170 0.10340 0.56440 0.10600
C 	C 	0.51945 0.03890 0.66810 0.11300
C 	C 	0.54455 0.08910 0.64290 -0.16200
C 	C 	0.57605 0.15210 0.54070 -0.09300
H 	H 	0.58975 0.17950 0.57360 0.06500
C 	C 	0.51255 0.02510 0.74590 -0.10400
H 	H 	0.52280 0.04560 0.78990 0.07900
C 	C 	0.56385 0.12770 0.70660 0.14200
C 	C 	0.59955 0.19910 0.82430 -0.16000
C 	C 	0.61845 0.23690 0.89130 0.45400
C 	C 	0.55170 0.44830 0.56440 0.10600
C 	C 	0.51945 0.48055 0.66810 0.11000
C 	C 	0.54455 0.45545 0.64290 -0.16000
C 	C 	0.57605 0.42395 0.54070 -0.09200
H 	H 	0.58975 0.41025 0.57360 0.06500
C 	C 	0.51255 0.48745 0.74590 -0.09200
H 	H 	0.52280 0.47720 0.78990 0.07600
C 	C 	0.56385 0.43615 0.70660 0.14100
C 	C 	0.59955 0.40045 0.82430 -0.15900
C 	C 	0.61845 0.38155 0.89130 0.45400
C 	C 	0.10340 0.55170 0.56440 0.10600
C 	C 	0.03890 0.51945 0.66810 0.11300
C 	C 	0.08910 0.54455 0.64290 -0.16200
C 	C 	0.15210 0.57605 0.54070 -0.09300
H 	H 	0.17950 0.58975 0.57360 0.06500
C 	C 	0.02510 0.51255 0.74590 -0.10400
H 	H 	0.04560 0.52280 0.78990 0.07900
C 	C 	0.12770 0.56385 0.70660 0.14200
C 	C 	0.19910 0.59955 0.82430 -0.16000
C 	C 	0.23690 0.61845 0.89130 0.45400
C 	C 	0.44830 0.89660 0.56440 0.10700
C 	C 	0.48055 0.96110 0.66810 0.11100
C 	C 	0.45545 0.91090 0.64290 -0.16000
C 	C 	0.42395 0.84790 0.54070 -0.09200
H 	H 	0.41025 0.82050 0.57360 0.06600
C 	C 	0.48745 0.97490 0.74590 -0.08100
H 	H 	0.47720 0.95440 0.78990 0.07400
C 	C 	0.43615 0.87230 0.70660 0.14100
C 	C 	0.40045 0.80090 0.82430 -0.15900
C 	C 	0.38155 0.76310 0.89130 0.45400
C 	C 	0.44830 0.55170 0.56440 0.10600
C 	C 	0.48055 0.51945 0.66810 0.11000
C 	C 	0.45545 0.54455 0.64290 -0.16000
C 	C 	0.42395 0.57605 0.54070 -0.09200
H 	H 	0.41025 0.58975 0.57360 0.06500
C 	C 	0.48745 0.51255 0.74590 -0.09200
H 	H 	0.47720 0.52280 0.78990 0.07600
C 	C 	0.43615 0.56385 0.70660 0.14100
C 	C 	0.40045 0.59955 0.82430 -0.15900
C 	C 	0.38155 0.61845 0.89130 0.45400
N 	N 	0.46380 0.92760 0.50000 -0.29500
N 	N 	0.07240 0.53620 0.50000 -0.29700
N 	N 	0.46380 0.53620 0.50000 -0.29600
N 	N 	0.53620 0.07240 0.50000 -0.29700
N 	N 	0.92760 0.46380 0.50000 -0.29500
N 	N 	0.53620 0.46380 0.50000 -0.29600
O 	O 	0.33333 0.66667 -0.00000 -0.61300
O 	O 	0.66667 0.33333 -0.00000 -0.61300
N 	N 	0.50000 -0.00000 0.38180 -0.29900
N 	N 	-0.00000 0.50000 0.38180 -0.29900
N 	N 	0.50000 0.50000 0.38180 -0.29500
N 	N 	0.00000 0.50000 0.61820 -0.29800
N 	N 	0.50000 0.00000 0.61820 -0.29800
N 	N 	0.50000 0.50000 0.61820 -0.29400
