data_crystal

_cell_length_a 32.13970
_cell_length_b 32.13970
_cell_length_c 16.69760
_cell_angle_alpha 90.00000
_cell_angle_beta  90.00000
_cell_angle_gamma 120.00000

_symmetry_space_group_name_	'P 1'
_symmetry_space_group_name_H-M	'P 1'

loop_
_symmetry_equiv_pos_as_xyz
  x,y,z

loop_
_atom_site_label
_atom_site_type_symbol
_atom_site_fract_x
_atom_site_fract_y
_atom_site_fract_z
_atom_site_charge
O 	O 	0.24994 0.66000 0.91230 -0.39500
C 	C 	0.17760 0.55150 0.79680 0.08300
H 	H 	0.18840 0.53190 0.81820 0.01900
C 	C 	0.14300 0.53430 0.73720 -0.17800
H 	H 	0.13170 0.50350 0.71700 0.09300
O 	O 	0.34000 0.58994 0.91230 -0.39500
C 	C 	0.44850 0.62610 0.79680 0.08300
H 	H 	0.46810 0.65650 0.81820 0.02000
C 	C 	0.46570 0.60870 0.73720 -0.17700
H 	H 	0.49650 0.62820 0.71700 0.09300
O 	O 	0.41006 0.75006 0.91230 -0.39400
C 	C 	0.37390 0.82240 0.79680 0.08400
H 	H 	0.34350 0.81160 0.81820 0.02100
C 	C 	0.39130 0.85700 0.73720 -0.17600
H 	H 	0.37180 0.86830 0.71700 0.09400
O 	O 	0.75006 0.34000 0.91230 -0.39400
C 	C 	0.82240 0.44850 0.79680 0.08400
H 	H 	0.81160 0.46810 0.81820 0.02100
C 	C 	0.85700 0.46570 0.73720 -0.17600
H 	H 	0.86830 0.49650 0.71700 0.09500
O 	O 	0.66000 0.41006 0.91230 -0.39400
C 	C 	0.55150 0.37390 0.79680 0.08400
H 	H 	0.53190 0.34350 0.81820 0.02000
C 	C 	0.53430 0.39130 0.73720 -0.17600
H 	H 	0.50350 0.37180 0.71700 0.09400
O 	O 	0.58994 0.24994 0.91230 -0.39500
C 	C 	0.62610 0.17760 0.79680 0.08400
H 	H 	0.65650 0.18840 0.81820 0.02000
C 	C 	0.60870 0.14300 0.73720 -0.17700
H 	H 	0.62820 0.13170 0.71700 0.09400
O 	O 	0.66000 0.24994 0.08770 -0.45800
C 	C 	0.55150 0.17760 0.20320 0.09400
H 	H 	0.53190 0.18840 0.18180 -0.00400
C 	C 	0.53430 0.14300 0.26280 -0.19600
H 	H 	0.50350 0.13170 0.28300 0.08900
O 	O 	0.58994 0.34000 0.08770 -0.45800
C 	C 	0.62610 0.44850 0.20320 0.09400
H 	H 	0.65650 0.46810 0.18180 -0.00300
C 	C 	0.60870 0.46570 0.26280 -0.19500
H 	H 	0.62820 0.49650 0.28300 0.09000
O 	O 	0.75006 0.41006 0.08770 -0.45700
C 	C 	0.82240 0.37390 0.20320 0.09400
H 	H 	0.81160 0.34350 0.18180 -0.00300
C 	C 	0.85700 0.39130 0.26280 -0.19500
H 	H 	0.86830 0.37180 0.28300 0.09000
O 	O 	0.34000 0.75006 0.08770 -0.45700
C 	C 	0.44850 0.82240 0.20320 0.09400
H 	H 	0.46810 0.81160 0.18180 -0.00300
C 	C 	0.46570 0.85700 0.26280 -0.19500
H 	H 	0.49650 0.86830 0.28300 0.09000
O 	O 	0.41006 0.66000 0.08770 -0.45700
C 	C 	0.37390 0.55150 0.20320 0.09400
H 	H 	0.34350 0.53190 0.18180 -0.00300
C 	C 	0.39130 0.53430 0.26280 -0.19500
H 	H 	0.37180 0.50350 0.28300 0.09000
O 	O 	0.24994 0.58994 0.08770 -0.45800
C 	C 	0.17760 0.62610 0.20320 0.09400
H 	H 	0.18840 0.65650 0.18180 -0.00300
C 	C 	0.14300 0.60870 0.26280 -0.19600
H 	H 	0.13170 0.62820 0.28300 0.09000
O 	O 	0.75006 0.34000 0.08770 -0.45700
C 	C 	0.82240 0.44850 0.20320 0.09400
H 	H 	0.81160 0.46810 0.18180 -0.00300
C 	C 	0.85700 0.46570 0.26280 -0.19500
H 	H 	0.86830 0.49650 0.28300 0.09000
O 	O 	0.66000 0.41006 0.08770 -0.45700
C 	C 	0.55150 0.37390 0.20320 0.09400
H 	H 	0.53190 0.34350 0.18180 -0.00300
C 	C 	0.53430 0.39130 0.26280 -0.19500
H 	H 	0.50350 0.37180 0.28300 0.09000
O 	O 	0.58994 0.24994 0.08770 -0.45800
C 	C 	0.62610 0.17760 0.20320 0.09400
H 	H 	0.65650 0.18840 0.18180 -0.00300
C 	C 	0.60870 0.14300 0.26280 -0.19600
H 	H 	0.62820 0.13170 0.28300 0.09000
O 	O 	0.24994 0.66000 0.08770 -0.45800
C 	C 	0.17760 0.55150 0.20320 0.09400
H 	H 	0.18840 0.53190 0.18180 -0.00400
C 	C 	0.14300 0.53430 0.26280 -0.19600
H 	H 	0.13170 0.50350 0.28300 0.08900
O 	O 	0.34000 0.58994 0.08770 -0.45800
C 	C 	0.44850 0.62610 0.20320 0.09400
H 	H 	0.46810 0.65650 0.18180 -0.00300
C 	C 	0.46570 0.60870 0.26280 -0.19500
H 	H 	0.49650 0.62820 0.28300 0.09000
O 	O 	0.41006 0.75006 0.08770 -0.45700
C 	C 	0.37390 0.82240 0.20320 0.09400
H 	H 	0.34350 0.81160 0.18180 -0.00300
C 	C 	0.39130 0.85700 0.26280 -0.19500
H 	H 	0.37180 0.86830 0.28300 0.09000
O 	O 	0.34000 0.75006 0.91230 -0.39400
C 	C 	0.44850 0.82240 0.79680 0.08400
H 	H 	0.46810 0.81160 0.81820 0.02100
C 	C 	0.46570 0.85700 0.73720 -0.17600
H 	H 	0.49650 0.86830 0.71700 0.09500
O 	O 	0.41006 0.66000 0.91230 -0.39400
C 	C 	0.37390 0.55150 0.79680 0.08400
H 	H 	0.34350 0.53190 0.81820 0.02000
C 	C 	0.39130 0.53430 0.73720 -0.17600
H 	H 	0.37180 0.50350 0.71700 0.09400
O 	O 	0.24994 0.58994 0.91230 -0.39500
C 	C 	0.17760 0.62610 0.79680 0.08400
H 	H 	0.18840 0.65650 0.81820 0.02000
C 	C 	0.14300 0.60870 0.73720 -0.17700
H 	H 	0.13170 0.62820 0.71700 0.09400
O 	O 	0.66000 0.24994 0.91230 -0.39400
C 	C 	0.55150 0.17760 0.79680 0.08400
H 	H 	0.53190 0.18840 0.81820 0.02000
C 	C 	0.53430 0.14300 0.73720 -0.17700
H 	H 	0.50350 0.13170 0.71700 0.09400
O 	O 	0.58994 0.34000 0.91230 -0.39400
C 	C 	0.62610 0.44850 0.79680 0.08400
H 	H 	0.65650 0.46810 0.81820 0.02100
C 	C 	0.60870 0.46570 0.73720 -0.17600
H 	H 	0.62820 0.49650 0.71700 0.09400
O 	O 	0.75006 0.41006 0.91230 -0.39400
C 	C 	0.82240 0.37390 0.79680 0.08400
H 	H 	0.81160 0.34350 0.81820 0.02100
C 	C 	0.85700 0.39130 0.73720 -0.17600
H 	H 	0.86830 0.37180 0.71700 0.09400
Co	Co	0.29705 0.70295 -0.00000 1.14800
Co	Co	0.29705 0.59410 -0.00000 1.14800
Co	Co	0.40590 0.70295 -0.00000 1.14800
Co	Co	0.70295 0.29705 -0.00000 1.14800
Co	Co	0.70295 0.40590 -0.00000 1.14800
Co	Co	0.59410 0.29705 -0.00000 1.14800
C 	C 	0.10060 0.55030 0.56700 0.10600
C 	C 	0.03930 0.51965 0.66900 0.10400
C 	C 	0.08700 0.54350 0.64370 -0.16200
C 	C 	0.15020 0.57510 0.54220 -0.08900
H 	H 	0.17700 0.58850 0.57540 0.06500
C 	C 	0.02340 0.51170 0.74980 -0.09500
H 	H 	0.04300 0.52150 0.79490 0.07600
C 	C 	0.12530 0.56265 0.70740 0.14100
C 	C 	0.19590 0.59795 0.82440 -0.13300
C 	C 	0.23610 0.61805 0.88910 0.39500
C 	C 	0.44970 0.55030 0.56700 0.10500
C 	C 	0.48035 0.51965 0.66900 0.10100
C 	C 	0.45650 0.54350 0.64370 -0.16000
C 	C 	0.42490 0.57510 0.54220 -0.08900
H 	H 	0.41150 0.58850 0.57540 0.06500
C 	C 	0.48830 0.51170 0.74980 -0.08200
H 	H 	0.47850 0.52150 0.79490 0.07200
C 	C 	0.43735 0.56265 0.70740 0.14100
C 	C 	0.40205 0.59795 0.82440 -0.13200
C 	C 	0.38195 0.61805 0.88910 0.39500
C 	C 	0.44970 0.89940 0.56700 0.10600
C 	C 	0.48035 0.96070 0.66900 0.10200
C 	C 	0.45650 0.91300 0.64370 -0.15900
C 	C 	0.42490 0.84980 0.54220 -0.08900
H 	H 	0.41150 0.82300 0.57540 0.06500
C 	C 	0.48830 0.97660 0.74980 -0.07100
H 	H 	0.47850 0.95700 0.79490 0.06900
C 	C 	0.43735 0.87470 0.70740 0.14100
C 	C 	0.40205 0.80410 0.82440 -0.13200
C 	C 	0.38195 0.76390 0.88910 0.39500
C 	C 	0.89940 0.44970 0.56700 0.10600
C 	C 	0.96070 0.48035 0.66900 0.10200
C 	C 	0.91300 0.45650 0.64370 -0.15900
C 	C 	0.84980 0.42490 0.54220 -0.08900
H 	H 	0.82300 0.41150 0.57540 0.06500
C 	C 	0.97660 0.48830 0.74980 -0.07100
H 	H 	0.95700 0.47850 0.79490 0.06900
C 	C 	0.87470 0.43735 0.70740 0.14100
C 	C 	0.80410 0.40205 0.82440 -0.13200
C 	C 	0.76390 0.38195 0.88910 0.39500
C 	C 	0.55030 0.44970 0.56700 0.10500
C 	C 	0.51965 0.48035 0.66900 0.10100
C 	C 	0.54350 0.45650 0.64370 -0.16000
C 	C 	0.57510 0.42490 0.54220 -0.08900
H 	H 	0.58850 0.41150 0.57540 0.06500
C 	C 	0.51170 0.48830 0.74980 -0.08200
H 	H 	0.52150 0.47850 0.79490 0.07200
C 	C 	0.56265 0.43735 0.70740 0.14100
C 	C 	0.59795 0.40205 0.82440 -0.13200
C 	C 	0.61805 0.38195 0.88910 0.39500
C 	C 	0.55030 0.10060 0.56700 0.10600
C 	C 	0.51965 0.03930 0.66900 0.10400
C 	C 	0.54350 0.08700 0.64370 -0.16200
C 	C 	0.57510 0.15020 0.54220 -0.08900
H 	H 	0.58850 0.17700 0.57540 0.06500
C 	C 	0.51170 0.02340 0.74980 -0.09500
H 	H 	0.52150 0.04300 0.79490 0.07600
C 	C 	0.56265 0.12530 0.70740 0.14100
C 	C 	0.59795 0.19590 0.82440 -0.13300
C 	C 	0.61805 0.23610 0.88910 0.39500
C 	C 	0.55030 0.10060 0.43300 0.10700
C 	C 	0.51965 0.03930 0.33100 0.10000
C 	C 	0.54350 0.08700 0.35630 -0.16700
C 	C 	0.57510 0.15020 0.45780 -0.09100
H 	H 	0.58850 0.17700 0.42460 0.06500
C 	C 	0.51170 0.02340 0.25020 -0.10200
H 	H 	0.52150 0.04300 0.20510 0.05400
C 	C 	0.56265 0.12530 0.29260 0.14700
C 	C 	0.59795 0.19590 0.17560 -0.16300
C 	C 	0.61805 0.23610 0.11090 0.40100
C 	C 	0.55030 0.44970 0.43300 0.10600
C 	C 	0.51965 0.48035 0.33100 0.09700
C 	C 	0.54350 0.45650 0.35630 -0.16600
C 	C 	0.57510 0.42490 0.45780 -0.09000
H 	H 	0.58850 0.41150 0.42460 0.06500
C 	C 	0.51170 0.48830 0.25020 -0.08900
H 	H 	0.52150 0.47850 0.20510 0.05000
C 	C 	0.56265 0.43735 0.29260 0.14600
C 	C 	0.59795 0.40205 0.17560 -0.16300
C 	C 	0.61805 0.38195 0.11090 0.40100
C 	C 	0.89940 0.44970 0.43300 0.10700
C 	C 	0.96070 0.48035 0.33100 0.09700
C 	C 	0.91300 0.45650 0.35630 -0.16500
C 	C 	0.84980 0.42490 0.45780 -0.09000
H 	H 	0.82300 0.41150 0.42460 0.06500
C 	C 	0.97660 0.48830 0.25020 -0.07800
H 	H 	0.95700 0.47850 0.20510 0.04700
C 	C 	0.87470 0.43735 0.29260 0.14600
C 	C 	0.80410 0.40205 0.17560 -0.16300
C 	C 	0.76390 0.38195 0.11090 0.40100
C 	C 	0.44970 0.89940 0.43300 0.10700
C 	C 	0.48035 0.96070 0.33100 0.09700
C 	C 	0.45650 0.91300 0.35630 -0.16500
C 	C 	0.42490 0.84980 0.45780 -0.09000
H 	H 	0.41150 0.82300 0.42460 0.06500
C 	C 	0.48830 0.97660 0.25020 -0.07800
H 	H 	0.47850 0.95700 0.20510 0.04700
C 	C 	0.43735 0.87470 0.29260 0.14600
C 	C 	0.40205 0.80410 0.17560 -0.16300
C 	C 	0.38195 0.76390 0.11090 0.40100
C 	C 	0.44970 0.55030 0.43300 0.10600
C 	C 	0.48035 0.51965 0.33100 0.09700
C 	C 	0.45650 0.54350 0.35630 -0.16600
C 	C 	0.42490 0.57510 0.45780 -0.09000
H 	H 	0.41150 0.58850 0.42460 0.06500
C 	C 	0.48830 0.51170 0.25020 -0.08900
H 	H 	0.47850 0.52150 0.20510 0.05000
C 	C 	0.43735 0.56265 0.29260 0.14600
C 	C 	0.40205 0.59795 0.17560 -0.16300
C 	C 	0.38195 0.61805 0.11090 0.40100
C 	C 	0.10060 0.55030 0.43300 0.10700
C 	C 	0.03930 0.51965 0.33100 0.10000
C 	C 	0.08700 0.54350 0.35630 -0.16700
C 	C 	0.15020 0.57510 0.45780 -0.09100
H 	H 	0.17700 0.58850 0.42460 0.06500
C 	C 	0.02340 0.51170 0.25020 -0.10200
H 	H 	0.04300 0.52150 0.20510 0.05400
C 	C 	0.12530 0.56265 0.29260 0.14700
C 	C 	0.19590 0.59795 0.17560 -0.16300
C 	C 	0.23610 0.61805 0.11090 0.40100
N 	N 	0.07090 0.53545 0.50000 -0.28800
N 	N 	0.46455 0.53545 0.50000 -0.28800
N 	N 	0.46455 0.92910 0.50000 -0.28600
N 	N 	0.92910 0.46455 0.50000 -0.28600
N 	N 	0.53545 0.46455 0.50000 -0.28800
N 	N 	0.53545 0.07090 0.50000 -0.28800
O 	O 	0.33333 0.66667 -0.00000 -0.62600
O 	O 	0.66667 0.33333 -0.00000 -0.62600
Co	Co	-0.00000 0.50000 0.50000 1.10500
Co	Co	0.50000 0.50000 0.50000 1.10700
Co	Co	0.50000 0.00000 0.50000 1.10500
N 	N 	-0.00000 0.50000 0.61710 -0.29100
N 	N 	0.50000 0.50000 0.61710 -0.28800
N 	N 	0.50000 0.00000 0.61710 -0.29100
N 	N 	0.50000 0.00000 0.38290 -0.29200
N 	N 	0.50000 0.50000 0.38290 -0.28900
N 	N 	-0.00000 0.50000 0.38290 -0.29200
