data_crystal

_cell_length_a 19.78300
_cell_length_b 21.51000
_cell_length_c 23.02300
_cell_angle_alpha 117.80600
_cell_angle_beta  111.82400
_cell_angle_gamma 90.02200

_symmetry_space_group_name_	'P 1'
_symmetry_space_group_name_H-M	'P 1'

loop_
_symmetry_equiv_pos_as_xyz
  x,y,z

loop_
_atom_site_label
_atom_site_type_symbol
_atom_site_fract_x
_atom_site_fract_y
_atom_site_fract_z
_atom_site_charge
Ir	Ir	0.52020 0.42330 0.34542 0.13200
Zr	Zr	0.99964 0.11476 0.50030 3.19800
Zr	Zr	0.08117 0.06648 0.63127 3.18100
Zr	Zr	0.88797 0.01146 0.52454 3.17900
P 	P 	0.80980 0.22980 0.96200 0.08400
Ir	Ir	0.87630 0.20100 0.90050 0.10200
P 	P 	0.39830 0.40550 0.31240 0.07700
O 	O 	0.98300 0.98400 0.58460 -1.31800
O 	O 	0.09890 0.08830 0.55660 -1.30200
O 	O 	0.91120 0.17690 0.52230 -0.69700
O 	O 	0.06400 0.22050 0.60150 -0.67800
O 	O 	0.77410 0.96890 0.42950 -0.77700
O 	O 	0.11730 0.19360 0.68450 -0.72000
O 	O 	0.08320 0.15710 0.48040 -0.71600
O 	O 	0.98550 0.09830 0.58420 -1.38300
O 	O 	0.84110 0.91970 0.53340 -0.64200
O 	O 	0.11820 0.99010 0.68180 -0.67100
O 	O 	0.10350 0.96670 0.55720 -1.22500
O 	O 	0.93830 0.11610 0.39740 -0.73900
O 	O 	0.83770 0.11210 0.53620 -0.70500
O 	O 	0.20960 0.07840 0.66530 -0.73800
C 	C 	0.09900 0.23400 0.66400 0.68200
C 	C 	0.71400 0.26900 0.58800 -0.04700
C 	C 	0.80100 0.34100 0.58600 -0.02600
C 	C 	0.70870 0.20980 0.89920 -0.03600
C 	C 	0.65570 0.23610 0.92530 0.00300
C 	C 	0.58050 0.20580 0.88100 -0.00200
C 	C 	0.55820 0.14910 0.81060 -0.01200
C 	C 	0.61120 0.12280 0.78460 -0.00200
C 	C 	0.68640 0.15310 0.82880 -0.02000
C 	C 	0.88400 0.08720 0.27830 -0.27100
C 	C 	0.83870 0.03710 0.20650 0.10300
C 	C 	0.82320 0.05560 0.15320 -0.04700
C 	C 	0.85310 0.12420 0.17180 0.03200
C 	C 	0.89830 0.17430 0.24350 -0.04600
C 	C 	0.91380 0.15580 0.29680 0.10600
C 	C 	0.81400 0.21780 0.55510 -0.21000
C 	C 	0.35500 0.34670 0.32980 -0.03900
C 	C 	0.40460 0.33000 0.37930 -0.01300
C 	C 	0.37700 0.29390 0.40550 -0.00500
C 	C 	0.30100 0.27450 0.38200 -0.00500
C 	C 	0.25180 0.29100 0.33300 -0.00600
C 	C 	0.27900 0.32700 0.30650 0.00500
C 	C 	0.24730 0.06450 0.63300 0.82400
C 	C 	0.20190 0.21440 0.98360 -0.00600
C 	C 	0.19960 0.22690 0.92890 0.00400
C 	C 	0.14680 0.18250 0.85830 -0.05900
C 	C 	0.09640 0.12570 0.84240 -0.06900
C 	C 	0.09870 0.11330 0.89710 -0.00100
C 	C 	0.15200 0.15760 0.96770 -0.00800
C 	C 	0.76100 0.21490 0.56750 0.10700
C 	C 	0.82380 0.19800 0.01900 -0.04600
C 	C 	0.83490 0.12900 0.00020 -0.00700
C 	C 	0.84960 0.10590 0.05000 -0.00500
C 	C 	0.85320 0.15200 0.11900 -0.00700
C 	C 	0.84210 0.22200 0.13710 -0.00300
C 	C 	0.82740 0.24460 0.08700 0.00800
C 	C 	0.32420 0.09080 0.67600 -0.31500
C 	C 	0.37730 0.07470 0.64810 0.12900
C 	C 	0.45270 0.09680 0.69470 -0.05800
C 	C 	0.47490 0.13500 0.76910 0.04200
C 	C 	0.42170 0.15110 0.79700 -0.05500
C 	C 	0.34640 0.12900 0.75050 0.12800
C 	C 	0.12970 0.13680 0.46260 0.56600
C 	C 	0.14410 0.45030 0.82740 0.03000
C 	C 	0.17510 0.39880 0.84270 -0.04500
C 	C 	0.16030 0.32840 0.78700 0.08700
C 	C 	0.11440 0.30940 0.71610 -0.24600
C 	C 	0.08330 0.36090 0.70090 0.10800
C 	C 	0.09820 0.43140 0.75650 -0.04600
C 	C 	0.74400 0.33600 0.59700 0.02200
C 	C 	0.18840 0.16160 0.44810 -0.17100
C 	C 	0.24790 0.14060 0.43070 0.06400
C 	C 	0.28470 0.18100 0.41480 -0.03600
C 	C 	0.26200 0.24300 0.41650 0.01800
C 	C 	0.20300 0.26420 0.43400 -0.02400
C 	C 	0.16580 0.22330 0.44980 0.05600
C 	C 	0.35200 0.35340 0.21100 -0.03900
C 	C 	0.37890 0.33360 0.15900 -0.00600
C 	C 	0.33100 0.29350 0.08570 -0.00700
C 	C 	0.25500 0.27310 0.06520 0.00100
C 	C 	0.22780 0.29300 0.11800 -0.01000
C 	C 	0.27600 0.33300 0.19050 0.00500
C 	C 	0.86480 0.16460 0.53810 0.62100
C 	C 	0.69640 0.39270 0.60590 -0.00700
C 	C 	0.61990 0.38610 0.58420 -0.00500
C 	C 	0.59130 0.44490 0.61800 -0.01300
C 	C 	0.63900 0.51030 0.67350 -0.03600
C 	C 	0.71580 0.51690 0.69510 0.00200
C 	C 	0.74440 0.45810 0.66140 -0.00600
C 	C 	0.15010 0.53080 0.87910 -0.00800
C 	C 	0.11450 0.57360 0.85230 -0.00200
C 	C 	0.12230 0.64620 0.89900 0.00200
C 	C 	0.16560 0.67590 0.97310 -0.04200
C 	C 	0.20110 0.63310 0.99990 -0.00400
C 	C 	0.19340 0.56050 0.95290 -0.00500
C 	C 	0.84800 0.27500 0.55700 0.07700
C 	C 	0.09800 0.92500 0.66200 0.70900
Ir	Ir	0.47980 0.57670 0.65458 0.13300
Zr	Zr	0.00036 0.88524 0.49970 3.19900
Zr	Zr	0.91883 0.93352 0.36873 3.18100
Zr	Zr	0.11203 0.98854 0.47546 3.17900
P 	P 	0.19020 0.77020 0.03800 0.08400
Ir	Ir	0.12370 0.79900 0.09950 0.10200
P 	P 	0.60170 0.59450 0.68760 0.07700
O 	O 	0.01700 0.01600 0.41540 -1.31800
O 	O 	0.90110 0.91170 0.44340 -1.30200
O 	O 	0.08880 0.82310 0.47770 -0.69700
O 	O 	0.93600 0.77950 0.39850 -0.67800
O 	O 	0.22590 0.03110 0.57050 -0.77700
O 	O 	0.88270 0.80640 0.31550 -0.72000
O 	O 	0.91680 0.84290 0.51960 -0.71600
O 	O 	0.01450 0.90170 0.41580 -1.38300
O 	O 	0.15890 0.08030 0.46660 -0.64200
O 	O 	0.88180 0.00990 0.31820 -0.67100
O 	O 	0.89650 0.03330 0.44280 -1.22500
O 	O 	0.06170 0.88390 0.60260 -0.73900
O 	O 	0.16230 0.88790 0.46380 -0.70500
O 	O 	0.79040 0.92160 0.33470 -0.73800
C 	C 	0.90100 0.76600 0.33600 0.68200
C 	C 	0.28600 0.73100 0.41200 -0.04700
C 	C 	0.19900 0.65900 0.41400 -0.02600
C 	C 	0.29130 0.79020 0.10080 -0.03600
C 	C 	0.34430 0.76390 0.07470 0.00300
C 	C 	0.41950 0.79420 0.11900 -0.00200
C 	C 	0.44180 0.85090 0.18940 -0.01200
C 	C 	0.38880 0.87720 0.21540 -0.00200
C 	C 	0.31360 0.84690 0.17120 -0.02000
C 	C 	0.11600 0.91280 0.72170 -0.27100
C 	C 	0.16130 0.96290 0.79350 0.10300
C 	C 	0.17680 0.94440 0.84680 -0.04700
C 	C 	0.14690 0.87580 0.82820 0.03200
C 	C 	0.10170 0.82570 0.75650 -0.04600
C 	C 	0.08620 0.84420 0.70320 0.10600
C 	C 	0.18600 0.78220 0.44490 -0.21000
C 	C 	0.64500 0.65330 0.67020 -0.03900
C 	C 	0.59540 0.67000 0.62070 -0.01300
C 	C 	0.62300 0.70610 0.59450 -0.00500
C 	C 	0.69900 0.72550 0.61800 -0.00500
C 	C 	0.74820 0.70900 0.66700 -0.00600
C 	C 	0.72100 0.67300 0.69350 0.00500
C 	C 	0.75270 0.93550 0.36700 0.82400
C 	C 	0.79810 0.78560 0.01640 -0.00600
C 	C 	0.80040 0.77310 0.07110 0.00400
C 	C 	0.85320 0.81750 0.14170 -0.05900
C 	C 	0.90360 0.87430 0.15760 -0.06900
C 	C 	0.90130 0.88670 0.10290 -0.00100
C 	C 	0.84800 0.84240 0.03230 -0.00800
C 	C 	0.23900 0.78510 0.43250 0.10700
C 	C 	0.17620 0.80200 0.98100 -0.04600
C 	C 	0.16510 0.87100 0.99980 -0.00700
C 	C 	0.15040 0.89410 0.95000 -0.00500
C 	C 	0.14680 0.84800 0.88100 -0.00700
C 	C 	0.15790 0.77800 0.86290 -0.00300
C 	C 	0.17260 0.75540 0.91300 0.00800
C 	C 	0.67580 0.90920 0.32400 -0.31500
C 	C 	0.62270 0.92530 0.35190 0.12900
C 	C 	0.54730 0.90320 0.30530 -0.05800
C 	C 	0.52510 0.86500 0.23090 0.04200
C 	C 	0.57830 0.84890 0.20300 -0.05500
C 	C 	0.65360 0.87100 0.24950 0.12800
C 	C 	0.87030 0.86320 0.53740 0.56600
C 	C 	0.85590 0.54970 0.17260 0.03000
C 	C 	0.82490 0.60120 0.15730 -0.04500
C 	C 	0.83970 0.67160 0.21300 0.08700
C 	C 	0.88560 0.69060 0.28390 -0.24600
C 	C 	0.91670 0.63910 0.29910 0.10800
C 	C 	0.90180 0.56860 0.24350 -0.04600
C 	C 	0.25600 0.66400 0.40300 0.02200
C 	C 	0.81160 0.83840 0.55190 -0.17100
C 	C 	0.75210 0.85940 0.56930 0.06400
C 	C 	0.71530 0.81900 0.58520 -0.03600
C 	C 	0.73800 0.75700 0.58350 0.01800
C 	C 	0.79700 0.73580 0.56600 -0.02400
C 	C 	0.83420 0.77670 0.55020 0.05600
C 	C 	0.64800 0.64660 0.78900 -0.03900
C 	C 	0.62110 0.66640 0.84100 -0.00600
C 	C 	0.66900 0.70650 0.91430 -0.00700
C 	C 	0.74500 0.72690 0.93480 0.00100
C 	C 	0.77220 0.70700 0.88200 -0.01000
C 	C 	0.72400 0.66700 0.80950 0.00500
C 	C 	0.13520 0.83540 0.46190 0.62100
C 	C 	0.30360 0.60730 0.39410 -0.00700
C 	C 	0.38010 0.61390 0.41580 -0.00500
C 	C 	0.40870 0.55510 0.38200 -0.01300
C 	C 	0.36100 0.48970 0.32650 -0.03600
C 	C 	0.28420 0.48310 0.30490 0.00200
C 	C 	0.25560 0.54190 0.33860 -0.00600
C 	C 	0.84990 0.46920 0.12090 -0.00800
C 	C 	0.88550 0.42640 0.14770 -0.00200
C 	C 	0.87770 0.35380 0.10100 0.00200
C 	C 	0.83440 0.32410 0.02690 -0.04200
C 	C 	0.79890 0.36690 0.00010 -0.00400
C 	C 	0.80660 0.43950 0.04710 -0.00500
C 	C 	0.15200 0.72500 0.44300 0.07700
C 	C 	0.90200 0.07500 0.33800 0.70900
