data_crystal

_cell_length_a 28.19910
_cell_length_b 28.19910
_cell_length_c 28.19910
_cell_angle_alpha 90.00000
_cell_angle_beta  90.00000
_cell_angle_gamma 90.00000

_symmetry_space_group_name_	'P 1'
_symmetry_space_group_name_H-M	'P 1'

loop_
_symmetry_equiv_pos_as_xyz
  x,y,z

loop_
_atom_site_label
_atom_site_type_symbol
_atom_site_fract_x
_atom_site_fract_y
_atom_site_fract_z
_atom_site_charge
H 	H 	0.26740 0.22210 0.10410 0.53000
H 	H 	0.24610 0.27120 0.11910 0.51400
H 	H 	0.21740 0.23760 0.08540 0.50700
H 	H 	0.73260 0.77790 0.10410 0.54100
H 	H 	0.75390 0.72880 0.11910 0.52500
H 	H 	0.78260 0.76240 0.08540 0.51800
H 	H 	0.73260 0.22210 0.89590 0.55100
H 	H 	0.75390 0.27120 0.88090 0.53400
H 	H 	0.78260 0.23760 0.91460 0.52900
H 	H 	0.26740 0.77790 0.89590 0.55100
H 	H 	0.24610 0.72880 0.88090 0.53400
H 	H 	0.21740 0.76240 0.91460 0.52900
H 	H 	0.10410 0.26740 0.22210 0.53100
H 	H 	0.11910 0.24610 0.27120 0.51500
H 	H 	0.08540 0.21740 0.23760 0.50800
H 	H 	0.10410 0.73260 0.77790 0.54200
H 	H 	0.11910 0.75390 0.72880 0.52600
H 	H 	0.08540 0.78260 0.76240 0.51900
H 	H 	0.89590 0.73260 0.22210 0.55200
H 	H 	0.88090 0.75390 0.27120 0.53500
H 	H 	0.91460 0.78260 0.23760 0.53000
H 	H 	0.89590 0.26740 0.77790 0.55200
H 	H 	0.88090 0.24610 0.72880 0.53500
H 	H 	0.91460 0.21740 0.76240 0.53000
H 	H 	0.22210 0.10410 0.26740 0.53100
H 	H 	0.27120 0.11910 0.24610 0.51500
H 	H 	0.23760 0.08540 0.21740 0.50800
H 	H 	0.77790 0.10410 0.73260 0.54200
H 	H 	0.72880 0.11910 0.75390 0.52600
H 	H 	0.76240 0.08540 0.78260 0.51900
H 	H 	0.22210 0.89590 0.73260 0.55200
H 	H 	0.27120 0.88090 0.75390 0.53500
H 	H 	0.23760 0.91460 0.78260 0.53000
H 	H 	0.77790 0.89590 0.26740 0.55200
H 	H 	0.72880 0.88090 0.24610 0.53500
H 	H 	0.76240 0.91460 0.21740 0.53000
H 	H 	0.22210 0.26740 0.89590 0.54800
H 	H 	0.27120 0.24610 0.88090 0.53100
H 	H 	0.23760 0.21740 0.91460 0.52600
H 	H 	0.77790 0.73260 0.89590 0.55500
H 	H 	0.72880 0.75390 0.88090 0.53900
H 	H 	0.76240 0.78260 0.91460 0.53300
H 	H 	0.22210 0.73260 0.10410 0.53700
H 	H 	0.27120 0.75390 0.11910 0.52100
H 	H 	0.23760 0.78260 0.08540 0.51400
H 	H 	0.77790 0.26740 0.10410 0.53700
H 	H 	0.72880 0.24610 0.11910 0.52100
H 	H 	0.76240 0.21740 0.08540 0.51400
H 	H 	0.26740 0.10410 0.77790 0.53700
H 	H 	0.24610 0.11910 0.72880 0.52100
H 	H 	0.21740 0.08540 0.76240 0.51400
H 	H 	0.73260 0.10410 0.22210 0.53700
H 	H 	0.75390 0.11910 0.27120 0.52100
H 	H 	0.78260 0.08540 0.23760 0.51400
H 	H 	0.73260 0.89590 0.77790 0.55500
H 	H 	0.75390 0.88090 0.72880 0.53900
H 	H 	0.78260 0.91460 0.76240 0.53300
H 	H 	0.26740 0.89590 0.22210 0.54800
H 	H 	0.24610 0.88090 0.27120 0.53100
H 	H 	0.21740 0.91460 0.23760 0.52600
H 	H 	0.10410 0.22210 0.73260 0.53700
H 	H 	0.11910 0.27120 0.75390 0.52100
H 	H 	0.08540 0.23760 0.78260 0.51400
H 	H 	0.10410 0.77790 0.26740 0.53700
H 	H 	0.11910 0.72880 0.24610 0.52100
H 	H 	0.08540 0.76240 0.21740 0.51400
H 	H 	0.89590 0.22210 0.26740 0.54800
H 	H 	0.88090 0.27120 0.24610 0.53100
H 	H 	0.91460 0.23760 0.21740 0.52600
H 	H 	0.89590 0.77790 0.73260 0.55500
H 	H 	0.88090 0.72880 0.75390 0.53900
H 	H 	0.91460 0.76240 0.78260 0.53300
H 	H 	0.73260 0.77790 0.89590 0.55500
H 	H 	0.75390 0.72880 0.88090 0.53900
H 	H 	0.78260 0.76240 0.91460 0.53300
H 	H 	0.26740 0.22210 0.89590 0.54800
H 	H 	0.24610 0.27120 0.88090 0.53100
H 	H 	0.21740 0.23760 0.91460 0.52600
H 	H 	0.26740 0.77790 0.10410 0.53700
H 	H 	0.24610 0.72880 0.11910 0.52100
H 	H 	0.21740 0.76240 0.08540 0.51400
H 	H 	0.73260 0.22210 0.10410 0.53700
H 	H 	0.75390 0.27120 0.11910 0.52100
H 	H 	0.78260 0.23760 0.08540 0.51400
H 	H 	0.89590 0.73260 0.77790 0.55500
H 	H 	0.88090 0.75390 0.72880 0.53900
H 	H 	0.91460 0.78260 0.76240 0.53300
H 	H 	0.89590 0.26740 0.22210 0.54800
H 	H 	0.88090 0.24610 0.27120 0.53100
H 	H 	0.91460 0.21740 0.23760 0.52600
H 	H 	0.10410 0.26740 0.77790 0.53700
H 	H 	0.11910 0.24610 0.72880 0.52100
H 	H 	0.08540 0.21740 0.76240 0.51400
H 	H 	0.10410 0.73260 0.22210 0.53700
H 	H 	0.11910 0.75390 0.27120 0.52100
H 	H 	0.08540 0.78260 0.23760 0.51400
H 	H 	0.77790 0.89590 0.73260 0.55500
H 	H 	0.72880 0.88090 0.75390 0.53900
H 	H 	0.76240 0.91460 0.78260 0.53300
H 	H 	0.22210 0.89590 0.26740 0.54800
H 	H 	0.27120 0.88090 0.24610 0.53100
H 	H 	0.23760 0.91460 0.21740 0.52600
H 	H 	0.77790 0.10410 0.26740 0.53700
H 	H 	0.72880 0.11910 0.24610 0.52100
H 	H 	0.76240 0.08540 0.21740 0.51400
H 	H 	0.22210 0.10410 0.73260 0.53700
H 	H 	0.27120 0.11910 0.75390 0.52100
H 	H 	0.23760 0.08540 0.78260 0.51400
H 	H 	0.77790 0.73260 0.10410 0.54200
H 	H 	0.72880 0.75390 0.11910 0.52600
H 	H 	0.76240 0.78260 0.08540 0.51900
H 	H 	0.22210 0.26740 0.10410 0.53100
H 	H 	0.27120 0.24610 0.11910 0.51500
H 	H 	0.23760 0.21740 0.08540 0.50800
H 	H 	0.77790 0.26740 0.89590 0.55200
H 	H 	0.72880 0.24610 0.88090 0.53500
H 	H 	0.76240 0.21740 0.91460 0.53000
H 	H 	0.22210 0.73260 0.89590 0.55200
H 	H 	0.27120 0.75390 0.88090 0.53500
H 	H 	0.23760 0.78260 0.91460 0.53000
H 	H 	0.73260 0.89590 0.22210 0.55200
H 	H 	0.75390 0.88090 0.27120 0.53500
H 	H 	0.78260 0.91460 0.23760 0.53000
H 	H 	0.26740 0.89590 0.77790 0.55200
H 	H 	0.24610 0.88090 0.72880 0.53500
H 	H 	0.21740 0.91460 0.76240 0.53000
H 	H 	0.26740 0.10410 0.22210 0.53100
H 	H 	0.24610 0.11910 0.27120 0.51500
H 	H 	0.21740 0.08540 0.23760 0.50800
H 	H 	0.73260 0.10410 0.77790 0.54200
H 	H 	0.75390 0.11910 0.72880 0.52600
H 	H 	0.78260 0.08540 0.76240 0.51900
H 	H 	0.89590 0.77790 0.26740 0.55200
H 	H 	0.88090 0.72880 0.24610 0.53500
H 	H 	0.91460 0.76240 0.21740 0.53000
H 	H 	0.89590 0.22210 0.73260 0.55200
H 	H 	0.88090 0.27120 0.75390 0.53500
H 	H 	0.91460 0.23760 0.78260 0.53000
H 	H 	0.10410 0.77790 0.73260 0.54200
H 	H 	0.11910 0.72880 0.75390 0.52600
H 	H 	0.08540 0.76240 0.78260 0.51900
H 	H 	0.10410 0.22210 0.26740 0.53100
H 	H 	0.11910 0.27120 0.24610 0.51500
H 	H 	0.08540 0.23760 0.21740 0.50800
Zr	Zr	0.41264 0.00000 -0.00000 3.21300
Zr	Zr	0.58736 0.00000 -0.00000 3.21300
Zr	Zr	-0.00000 0.41264 -0.00000 3.21300
Zr	Zr	0.00000 0.58736 -0.00000 3.21300
Zr	Zr	0.00000 0.00000 0.41264 3.21300
Zr	Zr	0.00000 0.00000 0.58736 3.21300
Zr	Zr	0.50000 0.06254 0.06254 3.18100
Zr	Zr	0.50000 0.93746 0.06254 3.18300
Zr	Zr	0.50000 0.06254 0.93746 3.18300
Zr	Zr	0.50000 0.93746 0.93746 3.18400
Zr	Zr	0.06254 0.50000 0.06254 3.18100
Zr	Zr	0.06254 0.50000 0.93746 3.18300
Zr	Zr	0.93746 0.50000 0.06254 3.18300
Zr	Zr	0.93746 0.50000 0.93746 3.18400
Zr	Zr	0.06254 0.06254 0.50000 3.18100
Zr	Zr	0.93746 0.06254 0.50000 3.18300
Zr	Zr	0.06254 0.93746 0.50000 3.18300
Zr	Zr	0.93746 0.93746 0.50000 3.18400
O 	O 	0.37330 0.04834 0.04834 -0.74700
O 	O 	0.42854 0.08755 0.08755 -0.87000
C 	C 	0.38520 0.07880 0.07880 0.82200
C 	C 	0.35110 0.10080 0.10080 -0.67900
C 	C 	0.30290 0.09460 0.09460 0.52900
H 	H 	0.29330 0.07230 0.07230 -0.16900
C 	C 	0.26700 0.11920 0.11920 -0.77700
H 	H 	0.23550 0.11240 0.11240 0.24400
C 	C 	0.27700 0.15220 0.15220 0.70900
C 	C 	0.32470 0.16240 0.16240 -0.71900
H 	H 	0.33310 0.18490 0.18490 0.21800
C 	C 	0.35930 0.13680 0.13680 0.44700
H 	H 	0.39080 0.14380 0.14380 -0.17900
C 	C 	0.23760 0.17650 0.17650 -1.22400
O 	O 	0.62670 0.95166 0.04834 -0.73600
O 	O 	0.57146 0.91245 0.08755 -0.86600
C 	C 	0.61480 0.92120 0.07880 0.82200
C 	C 	0.64890 0.89920 0.10080 -0.67900
C 	C 	0.69710 0.90540 0.09460 0.53600
H 	H 	0.70670 0.92770 0.07230 -0.16500
C 	C 	0.73300 0.88080 0.11920 -0.78700
H 	H 	0.76450 0.88760 0.11240 0.25100
C 	C 	0.72300 0.84780 0.15220 0.72400
C 	C 	0.67530 0.83760 0.16240 -0.73000
H 	H 	0.66690 0.81510 0.18490 0.22200
C 	C 	0.64070 0.86320 0.13680 0.45200
H 	H 	0.60920 0.85620 0.14380 -0.18000
C 	C 	0.76240 0.82350 0.17650 -1.25600
O 	O 	0.62670 0.04834 0.95166 -0.73600
O 	O 	0.57146 0.08755 0.91245 -0.86600
C 	C 	0.61480 0.07880 0.92120 0.82200
C 	C 	0.64890 0.10080 0.89920 -0.67900
C 	C 	0.69710 0.09460 0.90540 0.53600
H 	H 	0.70670 0.07230 0.92770 -0.16500
C 	C 	0.73300 0.11920 0.88080 -0.78700
H 	H 	0.76450 0.11240 0.88760 0.25100
C 	C 	0.72300 0.15220 0.84780 0.72400
C 	C 	0.67530 0.16240 0.83760 -0.73000
H 	H 	0.66690 0.18490 0.81510 0.22200
C 	C 	0.64070 0.13680 0.86320 0.45200
H 	H 	0.60920 0.14380 0.85620 -0.18000
C 	C 	0.76240 0.17650 0.82350 -1.25600
O 	O 	0.37330 0.95166 0.95166 -0.72800
O 	O 	0.42854 0.91245 0.91245 -0.86200
C 	C 	0.38520 0.92120 0.92120 0.82000
C 	C 	0.35110 0.89920 0.89920 -0.67600
C 	C 	0.30290 0.90540 0.90540 0.53600
H 	H 	0.29330 0.92770 0.92770 -0.16100
C 	C 	0.26700 0.88080 0.88080 -0.78600
H 	H 	0.23550 0.88760 0.88760 0.25200
C 	C 	0.27700 0.84780 0.84780 0.72600
C 	C 	0.32470 0.83760 0.83760 -0.72900
H 	H 	0.33310 0.81510 0.81510 0.22200
C 	C 	0.35930 0.86320 0.86320 0.45200
H 	H 	0.39080 0.85620 0.85620 -0.17900
C 	C 	0.23760 0.82350 0.82350 -1.26100
O 	O 	0.04834 0.37330 0.04834 -0.74700
O 	O 	0.08755 0.42854 0.08755 -0.87000
C 	C 	0.07880 0.38520 0.07880 0.82200
C 	C 	0.10080 0.35110 0.10080 -0.67900
C 	C 	0.09460 0.30290 0.09460 0.52900
H 	H 	0.07230 0.29330 0.07230 -0.16900
C 	C 	0.11920 0.26700 0.11920 -0.77700
H 	H 	0.11240 0.23550 0.11240 0.24400
C 	C 	0.15220 0.27700 0.15220 0.70900
C 	C 	0.16240 0.32470 0.16240 -0.71900
H 	H 	0.18490 0.33310 0.18490 0.21800
C 	C 	0.13680 0.35930 0.13680 0.44700
H 	H 	0.14380 0.39080 0.14380 -0.17900
C 	C 	0.17650 0.23760 0.17650 -1.22400
O 	O 	0.04834 0.62670 0.95166 -0.73600
O 	O 	0.08755 0.57146 0.91245 -0.86600
C 	C 	0.07880 0.61480 0.92120 0.82200
C 	C 	0.10080 0.64890 0.89920 -0.67900
C 	C 	0.09460 0.69710 0.90540 0.53600
H 	H 	0.07230 0.70670 0.92770 -0.16500
C 	C 	0.11920 0.73300 0.88080 -0.78700
H 	H 	0.11240 0.76450 0.88760 0.25100
C 	C 	0.15220 0.72300 0.84780 0.72400
C 	C 	0.16240 0.67530 0.83760 -0.73000
H 	H 	0.18490 0.66690 0.81510 0.22200
C 	C 	0.13680 0.64070 0.86320 0.45200
H 	H 	0.14380 0.60920 0.85620 -0.18000
C 	C 	0.17650 0.76240 0.82350 -1.25600
O 	O 	0.95166 0.62670 0.04834 -0.73600
O 	O 	0.91245 0.57146 0.08755 -0.86600
C 	C 	0.92120 0.61480 0.07880 0.82200
C 	C 	0.89920 0.64890 0.10080 -0.67900
C 	C 	0.90540 0.69710 0.09460 0.53600
H 	H 	0.92770 0.70670 0.07230 -0.16500
C 	C 	0.88080 0.73300 0.11920 -0.78700
H 	H 	0.88760 0.76450 0.11240 0.25100
C 	C 	0.84780 0.72300 0.15220 0.72400
C 	C 	0.83760 0.67530 0.16240 -0.73000
H 	H 	0.81510 0.66690 0.18490 0.22200
C 	C 	0.86320 0.64070 0.13680 0.45200
H 	H 	0.85620 0.60920 0.14380 -0.18000
C 	C 	0.82350 0.76240 0.17650 -1.25600
O 	O 	0.95166 0.37330 0.95166 -0.72800
O 	O 	0.91245 0.42854 0.91245 -0.86200
C 	C 	0.92120 0.38520 0.92120 0.82000
C 	C 	0.89920 0.35110 0.89920 -0.67600
C 	C 	0.90540 0.30290 0.90540 0.53600
H 	H 	0.92770 0.29330 0.92770 -0.16100
C 	C 	0.88080 0.26700 0.88080 -0.78600
H 	H 	0.88760 0.23550 0.88760 0.25200
C 	C 	0.84780 0.27700 0.84780 0.72600
C 	C 	0.83760 0.32470 0.83760 -0.72900
H 	H 	0.81510 0.33310 0.81510 0.22200
C 	C 	0.86320 0.35930 0.86320 0.45200
H 	H 	0.85620 0.39080 0.85620 -0.17900
C 	C 	0.82350 0.23760 0.82350 -1.26100
O 	O 	0.04834 0.04834 0.37330 -0.74700
O 	O 	0.08755 0.08755 0.42854 -0.87000
C 	C 	0.07880 0.07880 0.38520 0.82200
C 	C 	0.10080 0.10080 0.35110 -0.67900
C 	C 	0.09460 0.09460 0.30290 0.52900
H 	H 	0.07230 0.07230 0.29330 -0.16900
C 	C 	0.11920 0.11920 0.26700 -0.77700
H 	H 	0.11240 0.11240 0.23550 0.24400
C 	C 	0.15220 0.15220 0.27700 0.70900
C 	C 	0.16240 0.16240 0.32470 -0.71900
H 	H 	0.18490 0.18490 0.33310 0.21800
C 	C 	0.13680 0.13680 0.35930 0.44700
H 	H 	0.14380 0.14380 0.39080 -0.17900
C 	C 	0.17650 0.17650 0.23760 -1.22400
O 	O 	0.95166 0.04834 0.62670 -0.73600
O 	O 	0.91245 0.08755 0.57146 -0.86600
C 	C 	0.92120 0.07880 0.61480 0.82200
C 	C 	0.89920 0.10080 0.64890 -0.67900
C 	C 	0.90540 0.09460 0.69710 0.53600
H 	H 	0.92770 0.07230 0.70670 -0.16500
C 	C 	0.88080 0.11920 0.73300 -0.78700
H 	H 	0.88760 0.11240 0.76450 0.25100
C 	C 	0.84780 0.15220 0.72300 0.72400
C 	C 	0.83760 0.16240 0.67530 -0.73000
H 	H 	0.81510 0.18490 0.66690 0.22200
C 	C 	0.86320 0.13680 0.64070 0.45200
H 	H 	0.85620 0.14380 0.60920 -0.18000
C 	C 	0.82350 0.17650 0.76240 -1.25600
O 	O 	0.04834 0.95166 0.62670 -0.73600
O 	O 	0.08755 0.91245 0.57146 -0.86600
C 	C 	0.07880 0.92120 0.61480 0.82200
C 	C 	0.10080 0.89920 0.64890 -0.67900
C 	C 	0.09460 0.90540 0.69710 0.53600
H 	H 	0.07230 0.92770 0.70670 -0.16500
C 	C 	0.11920 0.88080 0.73300 -0.78700
H 	H 	0.11240 0.88760 0.76450 0.25100
C 	C 	0.15220 0.84780 0.72300 0.72400
C 	C 	0.16240 0.83760 0.67530 -0.73000
H 	H 	0.18490 0.81510 0.66690 0.22200
C 	C 	0.13680 0.86320 0.64070 0.45200
H 	H 	0.14380 0.85620 0.60920 -0.18000
C 	C 	0.17650 0.82350 0.76240 -1.25600
O 	O 	0.95166 0.95166 0.37330 -0.72800
O 	O 	0.91245 0.91245 0.42854 -0.86200
C 	C 	0.92120 0.92120 0.38520 0.82000
C 	C 	0.89920 0.89920 0.35110 -0.67600
C 	C 	0.90540 0.90540 0.30290 0.53600
H 	H 	0.92770 0.92770 0.29330 -0.16100
C 	C 	0.88080 0.88080 0.26700 -0.78600
H 	H 	0.88760 0.88760 0.23550 0.25200
C 	C 	0.84780 0.84780 0.27700 0.72600
C 	C 	0.83760 0.83760 0.32470 -0.72900
H 	H 	0.81510 0.81510 0.33310 0.22200
C 	C 	0.86320 0.86320 0.35930 0.45200
H 	H 	0.85620 0.85620 0.39080 -0.17900
C 	C 	0.82350 0.82350 0.23760 -1.26100
O 	O 	0.04834 0.37330 0.95166 -0.73600
O 	O 	0.08755 0.42854 0.91245 -0.86500
C 	C 	0.07880 0.38520 0.92120 0.82100
C 	C 	0.10080 0.35110 0.89920 -0.67700
C 	C 	0.09460 0.30290 0.90540 0.53300
H 	H 	0.07230 0.29330 0.92770 -0.16500
C 	C 	0.11920 0.26700 0.88080 -0.78200
H 	H 	0.11240 0.23550 0.88760 0.24800
C 	C 	0.15220 0.27700 0.84780 0.71800
C 	C 	0.16240 0.32470 0.83760 -0.72500
H 	H 	0.18490 0.33310 0.81510 0.22000
C 	C 	0.13680 0.35930 0.86320 0.45000
H 	H 	0.14380 0.39080 0.85620 -0.17900
C 	C 	0.17650 0.23760 0.82350 -1.24400
O 	O 	0.95166 0.62670 0.95166 -0.72800
O 	O 	0.91245 0.57146 0.91245 -0.86200
C 	C 	0.92120 0.61480 0.92120 0.82100
C 	C 	0.89920 0.64890 0.89920 -0.67800
C 	C 	0.90540 0.69710 0.90540 0.53800
H 	H 	0.92770 0.70670 0.92770 -0.16200
C 	C 	0.88080 0.73300 0.88080 -0.79100
H 	H 	0.88760 0.76450 0.88760 0.25400
C 	C 	0.84780 0.72300 0.84780 0.73000
C 	C 	0.83760 0.67530 0.83760 -0.73300
H 	H 	0.81510 0.66690 0.81510 0.22400
C 	C 	0.86320 0.64070 0.86320 0.45500
H 	H 	0.85620 0.60920 0.85620 -0.17900
C 	C 	0.82350 0.76240 0.82350 -1.27000
O 	O 	0.04834 0.62670 0.04834 -0.74700
O 	O 	0.08755 0.57146 0.08755 -0.87100
C 	C 	0.07880 0.61480 0.07880 0.82300
C 	C 	0.10080 0.64890 0.10080 -0.68200
C 	C 	0.09460 0.69710 0.09460 0.53300
H 	H 	0.07230 0.70670 0.07230 -0.16900
C 	C 	0.11920 0.73300 0.11920 -0.78300
H 	H 	0.11240 0.76450 0.11240 0.24700
C 	C 	0.15220 0.72300 0.15220 0.71700
C 	C 	0.16240 0.67530 0.16240 -0.72500
H 	H 	0.18490 0.66690 0.18490 0.22000
C 	C 	0.13680 0.64070 0.13680 0.45000
H 	H 	0.14380 0.60920 0.14380 -0.18100
C 	C 	0.17650 0.76240 0.17650 -1.23900
O 	O 	0.95166 0.37330 0.04834 -0.73600
O 	O 	0.91245 0.42854 0.08755 -0.86500
C 	C 	0.92120 0.38520 0.07880 0.82100
C 	C 	0.89920 0.35110 0.10080 -0.67700
C 	C 	0.90540 0.30290 0.09460 0.53300
H 	H 	0.92770 0.29330 0.07230 -0.16500
C 	C 	0.88080 0.26700 0.11920 -0.78200
H 	H 	0.88760 0.23550 0.11240 0.24800
C 	C 	0.84780 0.27700 0.15220 0.71800
C 	C 	0.83760 0.32470 0.16240 -0.72500
H 	H 	0.81510 0.33310 0.18490 0.22000
C 	C 	0.86320 0.35930 0.13680 0.45000
H 	H 	0.85620 0.39080 0.14380 -0.17900
C 	C 	0.82350 0.23760 0.17650 -1.24400
O 	O 	0.37330 0.04834 0.95166 -0.73600
O 	O 	0.42854 0.08755 0.91245 -0.86500
C 	C 	0.38520 0.07880 0.92120 0.82100
C 	C 	0.35110 0.10080 0.89920 -0.67700
C 	C 	0.30290 0.09460 0.90540 0.53300
H 	H 	0.29330 0.07230 0.92770 -0.16500
C 	C 	0.26700 0.11920 0.88080 -0.78200
H 	H 	0.23550 0.11240 0.88760 0.24800
C 	C 	0.27700 0.15220 0.84780 0.71800
C 	C 	0.32470 0.16240 0.83760 -0.72500
H 	H 	0.33310 0.18490 0.81510 0.22000
C 	C 	0.35930 0.13680 0.86320 0.45000
H 	H 	0.39080 0.14380 0.85620 -0.17900
C 	C 	0.23760 0.17650 0.82350 -1.24400
O 	O 	0.62670 0.04834 0.04834 -0.74700
O 	O 	0.57146 0.08755 0.08755 -0.87100
C 	C 	0.61480 0.07880 0.07880 0.82300
C 	C 	0.64890 0.10080 0.10080 -0.68200
C 	C 	0.69710 0.09460 0.09460 0.53300
H 	H 	0.70670 0.07230 0.07230 -0.16900
C 	C 	0.73300 0.11920 0.11920 -0.78300
H 	H 	0.76450 0.11240 0.11240 0.24700
C 	C 	0.72300 0.15220 0.15220 0.71700
C 	C 	0.67530 0.16240 0.16240 -0.72500
H 	H 	0.66690 0.18490 0.18490 0.22000
C 	C 	0.64070 0.13680 0.13680 0.45000
H 	H 	0.60920 0.14380 0.14380 -0.18100
C 	C 	0.76240 0.17650 0.17650 -1.23900
O 	O 	0.62670 0.95166 0.95166 -0.72800
O 	O 	0.57146 0.91245 0.91245 -0.86200
C 	C 	0.61480 0.92120 0.92120 0.82100
C 	C 	0.64890 0.89920 0.89920 -0.67800
C 	C 	0.69710 0.90540 0.90540 0.53800
H 	H 	0.70670 0.92770 0.92770 -0.16200
C 	C 	0.73300 0.88080 0.88080 -0.79100
H 	H 	0.76450 0.88760 0.88760 0.25400
C 	C 	0.72300 0.84780 0.84780 0.73000
C 	C 	0.67530 0.83760 0.83760 -0.73300
H 	H 	0.66690 0.81510 0.81510 0.22400
C 	C 	0.64070 0.86320 0.86320 0.45500
H 	H 	0.60920 0.85620 0.85620 -0.17900
C 	C 	0.76240 0.82350 0.82350 -1.27000
O 	O 	0.37330 0.95166 0.04834 -0.73600
O 	O 	0.42854 0.91245 0.08755 -0.86500
C 	C 	0.38520 0.92120 0.07880 0.82100
C 	C 	0.35110 0.89920 0.10080 -0.67700
C 	C 	0.30290 0.90540 0.09460 0.53300
H 	H 	0.29330 0.92770 0.07230 -0.16500
C 	C 	0.26700 0.88080 0.11920 -0.78200
H 	H 	0.23550 0.88760 0.11240 0.24800
C 	C 	0.27700 0.84780 0.15220 0.71800
C 	C 	0.32470 0.83760 0.16240 -0.72500
H 	H 	0.33310 0.81510 0.18490 0.22000
C 	C 	0.35930 0.86320 0.13680 0.45000
H 	H 	0.39080 0.85620 0.14380 -0.17900
C 	C 	0.23760 0.82350 0.17650 -1.24400
O 	O 	0.04834 0.04834 0.62670 -0.74700
O 	O 	0.08755 0.08755 0.57146 -0.87100
C 	C 	0.07880 0.07880 0.61480 0.82300
C 	C 	0.10080 0.10080 0.64890 -0.68200
C 	C 	0.09460 0.09460 0.69710 0.53300
H 	H 	0.07230 0.07230 0.70670 -0.16900
C 	C 	0.11920 0.11920 0.73300 -0.78300
H 	H 	0.11240 0.11240 0.76450 0.24700
C 	C 	0.15220 0.15220 0.72300 0.71700
C 	C 	0.16240 0.16240 0.67530 -0.72500
H 	H 	0.18490 0.18490 0.66690 0.22000
C 	C 	0.13680 0.13680 0.64070 0.45000
H 	H 	0.14380 0.14380 0.60920 -0.18100
C 	C 	0.17650 0.17650 0.76240 -1.23900
O 	O 	0.04834 0.95166 0.37330 -0.73600
O 	O 	0.08755 0.91245 0.42854 -0.86500
C 	C 	0.07880 0.92120 0.38520 0.82100
C 	C 	0.10080 0.89920 0.35110 -0.67700
C 	C 	0.09460 0.90540 0.30290 0.53300
H 	H 	0.07230 0.92770 0.29330 -0.16500
C 	C 	0.11920 0.88080 0.26700 -0.78200
H 	H 	0.11240 0.88760 0.23550 0.24800
C 	C 	0.15220 0.84780 0.27700 0.71800
C 	C 	0.16240 0.83760 0.32470 -0.72500
H 	H 	0.18490 0.81510 0.33310 0.22000
C 	C 	0.13680 0.86320 0.35930 0.45000
H 	H 	0.14380 0.85620 0.39080 -0.17900
C 	C 	0.17650 0.82350 0.23760 -1.24400
O 	O 	0.95166 0.04834 0.37330 -0.73600
O 	O 	0.91245 0.08755 0.42854 -0.86500
C 	C 	0.92120 0.07880 0.38520 0.82100
C 	C 	0.89920 0.10080 0.35110 -0.67700
C 	C 	0.90540 0.09460 0.30290 0.53300
H 	H 	0.92770 0.07230 0.29330 -0.16500
C 	C 	0.88080 0.11920 0.26700 -0.78200
H 	H 	0.88760 0.11240 0.23550 0.24800
C 	C 	0.84780 0.15220 0.27700 0.71800
C 	C 	0.83760 0.16240 0.32470 -0.72500
H 	H 	0.81510 0.18490 0.33310 0.22000
C 	C 	0.86320 0.13680 0.35930 0.45000
H 	H 	0.85620 0.14380 0.39080 -0.17900
C 	C 	0.82350 0.17650 0.23760 -1.24400
O 	O 	0.95166 0.95166 0.62670 -0.72800
O 	O 	0.91245 0.91245 0.57146 -0.86200
C 	C 	0.92120 0.92120 0.61480 0.82100
C 	C 	0.89920 0.89920 0.64890 -0.67800
C 	C 	0.90540 0.90540 0.69710 0.53800
H 	H 	0.92770 0.92770 0.70670 -0.16200
C 	C 	0.88080 0.88080 0.73300 -0.79100
H 	H 	0.88760 0.88760 0.76450 0.25400
C 	C 	0.84780 0.84780 0.72300 0.73000
C 	C 	0.83760 0.83760 0.67530 -0.73300
H 	H 	0.81510 0.81510 0.66690 0.22400
C 	C 	0.86320 0.86320 0.64070 0.45500
H 	H 	0.85620 0.85620 0.60920 -0.17900
C 	C 	0.82350 0.82350 0.76240 -1.27000
O 	O 	0.45820 0.00000 0.06200 -1.35100
O 	O 	0.54180 0.00000 0.06200 -1.35000
O 	O 	0.54180 0.00000 0.93800 -1.34300
O 	O 	0.45820 0.00000 0.93800 -1.34300
O 	O 	0.06200 0.45820 -0.00000 -1.35100
O 	O 	0.06200 0.54180 -0.00000 -1.35000
O 	O 	0.93800 0.54180 -0.00000 -1.34300
O 	O 	0.93800 0.45820 -0.00000 -1.34300
O 	O 	-0.00000 0.06200 0.45820 -1.35100
O 	O 	0.00000 0.06200 0.54180 -1.35000
O 	O 	-0.00000 0.93800 0.54180 -1.34300
O 	O 	0.00000 0.93800 0.45820 -1.34300
O 	O 	-0.00000 0.45820 0.93800 -1.34300
O 	O 	-0.00000 0.54180 0.93800 -1.34300
O 	O 	0.00000 0.54180 0.06200 -1.35000
O 	O 	-0.00000 0.45820 0.06200 -1.35100
O 	O 	0.45820 0.06200 -0.00000 -1.35100
O 	O 	0.54180 0.06200 -0.00000 -1.35000
O 	O 	0.54180 0.93800 -0.00000 -1.34300
O 	O 	0.45820 0.93800 -0.00000 -1.34300
O 	O 	0.06200 0.00000 0.54180 -1.35000
O 	O 	0.06200 0.00000 0.45820 -1.35100
O 	O 	0.93800 0.00000 0.45820 -1.34300
O 	O 	0.93800 0.00000 0.54180 -1.34300
C 	C 	0.21540 0.21540 0.15490 1.38300
C 	C 	0.23880 0.23880 0.11190 -3.18800
C 	C 	0.78460 0.78460 0.15490 1.41800
C 	C 	0.76120 0.76120 0.11190 -3.25400
C 	C 	0.78460 0.21540 0.84510 1.43100
C 	C 	0.76120 0.23880 0.88810 -3.30400
C 	C 	0.21540 0.78460 0.84510 1.43100
C 	C 	0.23880 0.76120 0.88810 -3.30400
C 	C 	0.15490 0.21540 0.21540 1.38300
C 	C 	0.11190 0.23880 0.23880 -3.18800
C 	C 	0.15490 0.78460 0.78460 1.41800
C 	C 	0.11190 0.76120 0.76120 -3.25400
C 	C 	0.84510 0.78460 0.21540 1.43100
C 	C 	0.88810 0.76120 0.23880 -3.30400
C 	C 	0.84510 0.21540 0.78460 1.43100
C 	C 	0.88810 0.23880 0.76120 -3.30400
C 	C 	0.21540 0.15490 0.21540 1.38300
C 	C 	0.23880 0.11190 0.23880 -3.18800
C 	C 	0.78460 0.15490 0.78460 1.41800
C 	C 	0.76120 0.11190 0.76120 -3.25400
C 	C 	0.21540 0.84510 0.78460 1.43100
C 	C 	0.23880 0.88810 0.76120 -3.30400
C 	C 	0.78460 0.84510 0.21540 1.43100
C 	C 	0.76120 0.88810 0.23880 -3.30400
C 	C 	0.21540 0.21540 0.84510 1.41600
C 	C 	0.23880 0.23880 0.88810 -3.27800
C 	C 	0.78460 0.78460 0.84510 1.44300
C 	C 	0.76120 0.76120 0.88810 -3.32400
C 	C 	0.21540 0.78460 0.15490 1.40200
C 	C 	0.23880 0.76120 0.11190 -3.22400
C 	C 	0.78460 0.21540 0.15490 1.40200
C 	C 	0.76120 0.23880 0.11190 -3.22400
C 	C 	0.21540 0.15490 0.78460 1.40200
C 	C 	0.23880 0.11190 0.76120 -3.22400
C 	C 	0.78460 0.15490 0.21540 1.40200
C 	C 	0.76120 0.11190 0.23880 -3.22400
C 	C 	0.78460 0.84510 0.78460 1.44300
C 	C 	0.76120 0.88810 0.76120 -3.32400
C 	C 	0.21540 0.84510 0.21540 1.41600
C 	C 	0.23880 0.88810 0.23880 -3.27800
C 	C 	0.15490 0.21540 0.78460 1.40200
C 	C 	0.11190 0.23880 0.76120 -3.22400
C 	C 	0.15490 0.78460 0.21540 1.40200
C 	C 	0.11190 0.76120 0.23880 -3.22400
C 	C 	0.84510 0.21540 0.21540 1.41600
C 	C 	0.88810 0.23880 0.23880 -3.27800
C 	C 	0.84510 0.78460 0.78460 1.44300
C 	C 	0.88810 0.76120 0.76120 -3.32400
