data_crystal

_cell_length_a 20.91190
_cell_length_b 16.52990
_cell_length_c 6.94960
_cell_angle_alpha 90.00000
_cell_angle_beta  98.14300
_cell_angle_gamma 90.00000

_symmetry_space_group_name_	'P 1'
_symmetry_space_group_name_H-M	'P 1'

loop_
_symmetry_equiv_pos_as_xyz
  x,y,z

loop_
_atom_site_label
_atom_site_type_symbol
_atom_site_fract_x
_atom_site_fract_y
_atom_site_fract_z
_atom_site_charge
C 	C 	0.22200 0.24400 0.16000 -0.15800
C 	C 	0.27800 0.28200 0.16000 0.31800
C 	C 	0.31100 0.28800 -0.00000 -0.02200
C 	C 	0.36200 0.34500 -0.00000 0.01500
C 	C 	0.37800 0.40300 0.13000 0.04100
C 	C 	0.40700 0.34400 0.88000 0.02200
F 	F 	0.30600 0.32400 0.32000 -0.47300
N 	N 	0.43200 0.44000 0.11000 -0.25600
N 	N 	0.44800 0.40400 0.92000 -0.23800
H 	H 	0.20256 0.23941 0.29527 0.12000
H 	H 	0.34883 0.41849 0.24241 0.06500
H 	H 	0.40925 0.29856 0.77187 0.02900
C 	C 	0.72200 0.74400 0.16000 -0.15500
C 	C 	0.77800 0.78200 0.16000 0.32200
C 	C 	0.81100 0.78800 -0.00000 -0.01500
C 	C 	0.86200 0.84500 -0.00000 0.02200
C 	C 	0.87800 0.90300 0.13000 0.04600
C 	C 	0.90700 0.84400 0.88000 0.02800
F 	F 	0.80600 0.82400 0.32000 -0.46600
N 	N 	0.93200 0.94000 0.11000 -0.23000
N 	N 	0.94800 0.90400 0.92000 -0.21000
H 	H 	0.70256 0.73941 0.29527 0.12500
H 	H 	0.84883 0.91849 0.24241 0.07100
H 	H 	0.90925 0.79856 0.77187 0.04500
C 	C 	0.77800 0.24400 0.34000 -0.15900
C 	C 	0.72200 0.28200 0.34000 0.32400
C 	C 	0.68900 0.28800 0.50000 -0.02500
C 	C 	0.63800 0.34500 0.50000 0.01600
C 	C 	0.62200 0.40300 0.37000 0.04200
C 	C 	0.59300 0.34400 0.62000 0.02500
F 	F 	0.69400 0.32400 0.18000 -0.46900
N 	N 	0.56800 0.44000 0.39000 -0.25700
N 	N 	0.55200 0.40400 0.58000 -0.23700
H 	H 	0.79744 0.23941 0.20473 0.12900
H 	H 	0.65117 0.41849 0.25759 0.06900
H 	H 	0.59075 0.29856 0.72813 0.02800
C 	C 	0.27800 0.74400 0.34000 -0.16100
C 	C 	0.22200 0.78200 0.34000 0.32000
C 	C 	0.18900 0.78800 0.50000 -0.03100
C 	C 	0.13800 0.84500 0.50000 0.01300
C 	C 	0.12200 0.90300 0.37000 0.03600
C 	C 	0.09300 0.84400 0.62000 0.01700
F 	F 	0.19400 0.82400 0.18000 -0.47400
N 	N 	0.06800 0.94000 0.39000 -0.26800
N 	N 	0.05200 0.90400 0.58000 -0.25300
H 	H 	0.29744 0.73941 0.20473 0.12400
H 	H 	0.15117 0.91849 0.25759 0.06600
H 	H 	0.09075 0.79856 0.72813 0.01400
C 	C 	0.77800 0.75600 0.84000 -0.16300
C 	C 	0.72200 0.71800 0.84000 0.32100
C 	C 	0.68900 0.71200 -0.00000 -0.02300
C 	C 	0.63800 0.65500 -0.00000 0.02000
C 	C 	0.62200 0.59700 0.87000 0.03700
C 	C 	0.59300 0.65600 0.12000 0.02400
F 	F 	0.69400 0.67600 0.68000 -0.46900
N 	N 	0.56800 0.56000 0.89000 -0.25700
N 	N 	0.55200 0.59600 0.08000 -0.23500
H 	H 	0.79744 0.76059 0.70473 0.12900
H 	H 	0.65117 0.58151 0.75759 0.06900
H 	H 	0.59075 0.70144 0.22813 0.02900
C 	C 	0.27800 0.25600 0.84000 -0.16400
C 	C 	0.22200 0.21800 0.84000 0.31800
C 	C 	0.18900 0.21200 -0.00000 -0.02900
C 	C 	0.13800 0.15500 -0.00000 0.01700
C 	C 	0.12200 0.09700 0.87000 0.03200
C 	C 	0.09300 0.15600 0.12000 0.01600
F 	F 	0.19400 0.17600 0.68000 -0.47500
N 	N 	0.06800 0.06000 0.89000 -0.26800
N 	N 	0.05200 0.09600 0.08000 -0.25100
H 	H 	0.29744 0.26059 0.70473 0.12400
H 	H 	0.15117 0.08151 0.75759 0.06600
H 	H 	0.09075 0.20144 0.22813 0.01500
C 	C 	0.22200 0.75600 0.66000 -0.15800
C 	C 	0.27800 0.71800 0.66000 0.31700
C 	C 	0.31100 0.71200 0.50000 -0.02400
C 	C 	0.36200 0.65500 0.50000 0.01200
C 	C 	0.37800 0.59700 0.63000 0.04100
C 	C 	0.40700 0.65600 0.38000 0.02500
F 	F 	0.30600 0.67600 0.82000 -0.47400
N 	N 	0.43200 0.56000 0.61000 -0.25800
N 	N 	0.44800 0.59600 0.42000 -0.23700
H 	H 	0.20256 0.76059 0.79527 0.11900
H 	H 	0.34883 0.58151 0.74241 0.06400
H 	H 	0.40925 0.70144 0.27187 0.02900
C 	C 	0.72200 0.25600 0.66000 -0.15600
C 	C 	0.77800 0.21800 0.66000 0.32200
C 	C 	0.81100 0.21200 0.50000 -0.01800
C 	C 	0.86200 0.15500 0.50000 0.01700
C 	C 	0.87800 0.09700 0.63000 0.04700
C 	C 	0.90700 0.15600 0.38000 0.03400
F 	F 	0.80600 0.17600 0.82000 -0.46700
N 	N 	0.93200 0.06000 0.61000 -0.23200
N 	N 	0.94800 0.09600 0.42000 -0.20800
H 	H 	0.70256 0.26059 0.79527 0.12400
H 	H 	0.84883 0.08151 0.74241 0.07000
H 	H 	0.90925 0.20144 0.27187 0.04500
Co	Co	0.50000 0.51610 0.25000 1.05600
Co	Co	-0.00000 0.01610 0.25000 1.01900
Co	Co	0.50000 0.48390 0.75000 1.05500
Co	Co	0.00000 0.98390 0.75000 1.01800
