data_crystal

_cell_length_a 32.03200
_cell_length_b 32.03200
_cell_length_c 16.70240
_cell_angle_alpha 90.00000
_cell_angle_beta  90.00000
_cell_angle_gamma 120.00000

_symmetry_space_group_name_	'P 1'
_symmetry_space_group_name_H-M	'P 1'

loop_
_symmetry_equiv_pos_as_xyz
  x,y,z

loop_
_atom_site_label
_atom_site_type_symbol
_atom_site_fract_x
_atom_site_fract_y
_atom_site_fract_z
_atom_site_charge
O 	O 	0.65920 0.25020 0.91280 -0.48600
C 	C 	0.53480 0.14320 0.73820 -0.24000
H 	H 	0.50370 0.13140 0.71870 0.11600
C 	C 	0.55220 0.17790 0.79690 0.15900
H 	H 	0.53240 0.18880 0.81790 -0.00500
O 	O 	0.74980 0.40900 0.91280 -0.48600
C 	C 	0.85680 0.39160 0.73820 -0.24000
H 	H 	0.86860 0.37230 0.71870 0.11600
C 	C 	0.82210 0.37430 0.79690 0.15900
H 	H 	0.81120 0.34360 0.81790 -0.00400
O 	O 	0.59100 0.34080 0.91280 -0.48700
C 	C 	0.60840 0.46520 0.73820 -0.23900
H 	H 	0.62770 0.49630 0.71870 0.11600
C 	C 	0.62570 0.44780 0.79690 0.15900
H 	H 	0.65640 0.46760 0.81790 -0.00400
O 	O 	0.34080 0.74980 0.91280 -0.48700
C 	C 	0.46520 0.85680 0.73820 -0.24000
H 	H 	0.49630 0.86860 0.71870 0.11700
C 	C 	0.44780 0.82210 0.79690 0.15900
H 	H 	0.46760 0.81120 0.81790 -0.00400
O 	O 	0.25020 0.59100 0.91280 -0.48700
C 	C 	0.14320 0.60840 0.73820 -0.24000
H 	H 	0.13140 0.62770 0.71870 0.11600
C 	C 	0.17790 0.62570 0.79690 0.15900
H 	H 	0.18880 0.65640 0.81790 -0.00400
O 	O 	0.40900 0.65920 0.91280 -0.48600
C 	C 	0.39160 0.53480 0.73820 -0.24000
H 	H 	0.37230 0.50370 0.71870 0.11600
C 	C 	0.37430 0.55220 0.79690 0.15900
H 	H 	0.34360 0.53240 0.81790 -0.00400
O 	O 	0.25020 0.65920 0.08720 -0.57000
C 	C 	0.14320 0.53480 0.26180 -0.26900
H 	H 	0.13140 0.50370 0.28130 0.11200
C 	C 	0.17790 0.55220 0.20310 0.17700
H 	H 	0.18880 0.53240 0.18210 -0.03700
O 	O 	0.40900 0.74980 0.08720 -0.57000
C 	C 	0.39160 0.85680 0.26180 -0.26900
H 	H 	0.37230 0.86860 0.28130 0.11300
C 	C 	0.37430 0.82210 0.20310 0.17700
H 	H 	0.34360 0.81120 0.18210 -0.03600
O 	O 	0.34080 0.59100 0.08720 -0.57000
C 	C 	0.46520 0.60840 0.26180 -0.26900
H 	H 	0.49630 0.62770 0.28130 0.11200
C 	C 	0.44780 0.62570 0.20310 0.17700
H 	H 	0.46760 0.65640 0.18210 -0.03600
O 	O 	0.74980 0.34080 0.08720 -0.57000
C 	C 	0.85680 0.46520 0.26180 -0.26900
H 	H 	0.86860 0.49630 0.28130 0.11300
C 	C 	0.82210 0.44780 0.20310 0.17800
H 	H 	0.81120 0.46760 0.18210 -0.03600
O 	O 	0.59100 0.25020 0.08720 -0.57000
C 	C 	0.60840 0.14320 0.26180 -0.26900
H 	H 	0.62770 0.13140 0.28130 0.11200
C 	C 	0.62570 0.17790 0.20310 0.17700
H 	H 	0.65640 0.18880 0.18210 -0.03600
O 	O 	0.65920 0.40900 0.08720 -0.57000
C 	C 	0.53480 0.39160 0.26180 -0.26900
H 	H 	0.50370 0.37230 0.28130 0.11200
C 	C 	0.55220 0.37430 0.20310 0.17700
H 	H 	0.53240 0.34360 0.18210 -0.03600
O 	O 	0.34080 0.74980 0.08720 -0.57000
C 	C 	0.46520 0.85680 0.26180 -0.26900
H 	H 	0.49630 0.86860 0.28130 0.11300
C 	C 	0.44780 0.82210 0.20310 0.17800
H 	H 	0.46760 0.81120 0.18210 -0.03600
O 	O 	0.25020 0.59100 0.08720 -0.57000
C 	C 	0.14320 0.60840 0.26180 -0.26900
H 	H 	0.13140 0.62770 0.28130 0.11200
C 	C 	0.17790 0.62570 0.20310 0.17700
H 	H 	0.18880 0.65640 0.18210 -0.03600
O 	O 	0.40900 0.65920 0.08720 -0.57000
C 	C 	0.39160 0.53480 0.26180 -0.26900
H 	H 	0.37230 0.50370 0.28130 0.11200
C 	C 	0.37430 0.55220 0.20310 0.17700
H 	H 	0.34360 0.53240 0.18210 -0.03600
O 	O 	0.65920 0.25020 0.08720 -0.57000
C 	C 	0.53480 0.14320 0.26180 -0.26900
H 	H 	0.50370 0.13140 0.28130 0.11200
C 	C 	0.55220 0.17790 0.20310 0.17700
H 	H 	0.53240 0.18880 0.18210 -0.03700
O 	O 	0.74980 0.40900 0.08720 -0.57000
C 	C 	0.85680 0.39160 0.26180 -0.26900
H 	H 	0.86860 0.37230 0.28130 0.11300
C 	C 	0.82210 0.37430 0.20310 0.17700
H 	H 	0.81120 0.34360 0.18210 -0.03600
O 	O 	0.59100 0.34080 0.08720 -0.57000
C 	C 	0.60840 0.46520 0.26180 -0.26900
H 	H 	0.62770 0.49630 0.28130 0.11200
C 	C 	0.62570 0.44780 0.20310 0.17700
H 	H 	0.65640 0.46760 0.18210 -0.03600
O 	O 	0.74980 0.34080 0.91280 -0.48700
C 	C 	0.85680 0.46520 0.73820 -0.24000
H 	H 	0.86860 0.49630 0.71870 0.11700
C 	C 	0.82210 0.44780 0.79690 0.15900
H 	H 	0.81120 0.46760 0.81790 -0.00400
O 	O 	0.59100 0.25020 0.91280 -0.48700
C 	C 	0.60840 0.14320 0.73820 -0.24000
H 	H 	0.62770 0.13140 0.71870 0.11600
C 	C 	0.62570 0.17790 0.79690 0.15900
H 	H 	0.65640 0.18880 0.81790 -0.00400
O 	O 	0.65920 0.40900 0.91280 -0.48600
C 	C 	0.53480 0.39160 0.73820 -0.24000
H 	H 	0.50370 0.37230 0.71870 0.11600
C 	C 	0.55220 0.37430 0.79690 0.15900
H 	H 	0.53240 0.34360 0.81790 -0.00400
O 	O 	0.25020 0.65920 0.91280 -0.48700
C 	C 	0.14320 0.53480 0.73820 -0.24000
H 	H 	0.13140 0.50370 0.71870 0.11600
C 	C 	0.17790 0.55220 0.79690 0.15900
H 	H 	0.18880 0.53240 0.81790 -0.00500
O 	O 	0.40900 0.74980 0.91280 -0.48600
C 	C 	0.39160 0.85680 0.73820 -0.24000
H 	H 	0.37230 0.86860 0.71870 0.11600
C 	C 	0.37430 0.82210 0.79690 0.15900
H 	H 	0.34360 0.81120 0.81790 -0.00400
O 	O 	0.34080 0.59100 0.91280 -0.48700
C 	C 	0.46520 0.60840 0.73820 -0.23900
H 	H 	0.49630 0.62770 0.71870 0.11600
C 	C 	0.44780 0.62570 0.79690 0.15900
H 	H 	0.46760 0.65640 0.81790 -0.00400
Mg	Mg	0.70262 0.29738 -0.00000 1.46600
Mg	Mg	0.70262 0.40524 -0.00000 1.46600
Mg	Mg	0.59476 0.29738 -0.00000 1.46500
Mg	Mg	0.29738 0.70262 -0.00000 1.46600
Mg	Mg	0.29738 0.59476 -0.00000 1.46500
Mg	Mg	0.40524 0.70262 -0.00000 1.46600
Co	Co	0.50730 0.00000 0.50000 0.57300
Co	Co	-0.00000 0.50730 0.50000 0.57300
Co	Co	0.49270 0.49270 0.50000 0.57300
Co	Co	0.49270 0.00000 0.50000 0.57200
Co	Co	-0.00000 0.49270 0.50000 0.57200
Co	Co	0.50730 0.50730 0.50000 0.57400
C 	C 	0.51985 0.03970 0.66670 0.11600
C 	C 	0.54340 0.08680 0.64480 -0.18400
C 	C 	0.55010 0.10020 0.56490 0.11300
C 	C 	0.51220 0.02440 0.74780 -0.09900
H 	H 	0.52210 0.04420 0.79270 0.07900
C 	C 	0.57515 0.15030 0.54070 -0.09000
H 	H 	0.58855 0.17710 0.57420 0.06400
C 	C 	0.56280 0.12560 0.70820 0.19200
C 	C 	0.59840 0.19680 0.82480 -0.21400
C 	C 	0.61820 0.23640 0.88890 0.51100
C 	C 	0.96030 0.48015 0.66670 0.11500
C 	C 	0.91320 0.45660 0.64480 -0.18200
C 	C 	0.89980 0.44990 0.56490 0.11400
C 	C 	0.97560 0.48780 0.74780 -0.07800
H 	H 	0.95580 0.47790 0.79270 0.07400
C 	C 	0.84970 0.42485 0.54070 -0.09000
H 	H 	0.82290 0.41145 0.57420 0.06400
C 	C 	0.87440 0.43720 0.70820 0.19100
C 	C 	0.80320 0.40160 0.82480 -0.21400
C 	C 	0.76360 0.38180 0.88890 0.51100
C 	C 	0.51985 0.48015 0.66670 0.11300
C 	C 	0.54340 0.45660 0.64480 -0.18200
C 	C 	0.55010 0.44990 0.56490 0.11300
C 	C 	0.51220 0.48780 0.74780 -0.08800
H 	H 	0.52210 0.47790 0.79270 0.07600
C 	C 	0.57515 0.42485 0.54070 -0.09000
H 	H 	0.58855 0.41145 0.57420 0.06400
C 	C 	0.56280 0.43720 0.70820 0.19100
C 	C 	0.59840 0.40160 0.82480 -0.21400
C 	C 	0.61820 0.38180 0.88890 0.51100
C 	C 	0.48015 0.96030 0.66670 0.11500
C 	C 	0.45660 0.91320 0.64480 -0.18200
C 	C 	0.44990 0.89980 0.56490 0.11400
C 	C 	0.48780 0.97560 0.74780 -0.07800
H 	H 	0.47790 0.95580 0.79270 0.07400
C 	C 	0.42485 0.84970 0.54070 -0.09000
H 	H 	0.41145 0.82290 0.57420 0.06400
C 	C 	0.43720 0.87440 0.70820 0.19100
C 	C 	0.40160 0.80320 0.82480 -0.21400
C 	C 	0.38180 0.76360 0.88890 0.51100
C 	C 	0.03970 0.51985 0.66670 0.11600
C 	C 	0.08680 0.54340 0.64480 -0.18400
C 	C 	0.10020 0.55010 0.56490 0.11300
C 	C 	0.02440 0.51220 0.74780 -0.09900
H 	H 	0.04420 0.52210 0.79270 0.07900
C 	C 	0.15030 0.57515 0.54070 -0.09000
H 	H 	0.17710 0.58855 0.57420 0.06400
C 	C 	0.12560 0.56280 0.70820 0.19200
C 	C 	0.19680 0.59840 0.82480 -0.21400
C 	C 	0.23640 0.61820 0.88890 0.51100
C 	C 	0.48015 0.51985 0.66670 0.11300
C 	C 	0.45660 0.54340 0.64480 -0.18200
C 	C 	0.44990 0.55010 0.56490 0.11300
C 	C 	0.48780 0.51220 0.74780 -0.08800
H 	H 	0.47790 0.52210 0.79270 0.07600
C 	C 	0.42485 0.57515 0.54070 -0.09000
H 	H 	0.41145 0.58855 0.57420 0.06400
C 	C 	0.43720 0.56280 0.70820 0.19100
C 	C 	0.40160 0.59840 0.82480 -0.21400
C 	C 	0.38180 0.61820 0.88890 0.51100
C 	C 	0.03970 0.51985 0.33330 0.11100
C 	C 	0.08680 0.54340 0.35520 -0.19300
C 	C 	0.10020 0.55010 0.43510 0.11500
C 	C 	0.02440 0.51220 0.25220 -0.10900
H 	H 	0.04420 0.52210 0.20730 0.05200
C 	C 	0.15030 0.57515 0.45930 -0.09300
H 	H 	0.17710 0.58855 0.42580 0.06400
C 	C 	0.12560 0.56280 0.29180 0.20300
C 	C 	0.19680 0.59840 0.17520 -0.26000
C 	C 	0.23640 0.61820 0.11110 0.52800
C 	C 	0.48015 0.96030 0.33330 0.11000
C 	C 	0.45660 0.91320 0.35520 -0.19100
C 	C 	0.44990 0.89980 0.43510 0.11500
C 	C 	0.48780 0.97560 0.25220 -0.08800
H 	H 	0.47790 0.95580 0.20730 0.04700
C 	C 	0.42485 0.84970 0.45930 -0.09300
H 	H 	0.41145 0.82290 0.42580 0.06500
C 	C 	0.43720 0.87440 0.29180 0.20300
C 	C 	0.40160 0.80320 0.17520 -0.26000
C 	C 	0.38180 0.76360 0.11110 0.52800
C 	C 	0.48015 0.51985 0.33330 0.10800
C 	C 	0.45660 0.54340 0.35520 -0.19100
C 	C 	0.44990 0.55010 0.43510 0.11400
C 	C 	0.48780 0.51220 0.25220 -0.09800
H 	H 	0.47790 0.52210 0.20730 0.04900
C 	C 	0.42485 0.57515 0.45930 -0.09300
H 	H 	0.41145 0.58855 0.42580 0.06400
C 	C 	0.43720 0.56280 0.29180 0.20200
C 	C 	0.40160 0.59840 0.17520 -0.26000
C 	C 	0.38180 0.61820 0.11110 0.52800
C 	C 	0.96030 0.48015 0.33330 0.11000
C 	C 	0.91320 0.45660 0.35520 -0.19100
C 	C 	0.89980 0.44990 0.43510 0.11500
C 	C 	0.97560 0.48780 0.25220 -0.08800
H 	H 	0.95580 0.47790 0.20730 0.04700
C 	C 	0.84970 0.42485 0.45930 -0.09300
H 	H 	0.82290 0.41145 0.42580 0.06500
C 	C 	0.87440 0.43720 0.29180 0.20300
C 	C 	0.80320 0.40160 0.17520 -0.26000
C 	C 	0.76360 0.38180 0.11110 0.52800
C 	C 	0.51985 0.03970 0.33330 0.11100
C 	C 	0.54340 0.08680 0.35520 -0.19300
C 	C 	0.55010 0.10020 0.43510 0.11500
C 	C 	0.51220 0.02440 0.25220 -0.10900
H 	H 	0.52210 0.04420 0.20730 0.05200
C 	C 	0.57515 0.15030 0.45930 -0.09300
H 	H 	0.58855 0.17710 0.42580 0.06400
C 	C 	0.56280 0.12560 0.29180 0.20300
C 	C 	0.59840 0.19680 0.17520 -0.26000
C 	C 	0.61820 0.23640 0.11110 0.52800
C 	C 	0.51985 0.48015 0.33330 0.10800
C 	C 	0.54340 0.45660 0.35520 -0.19100
C 	C 	0.55010 0.44990 0.43510 0.11400
C 	C 	0.51220 0.48780 0.25220 -0.09800
H 	H 	0.52210 0.47790 0.20730 0.04900
C 	C 	0.57515 0.42485 0.45930 -0.09300
H 	H 	0.58855 0.41145 0.42580 0.06400
C 	C 	0.56280 0.43720 0.29180 0.20200
C 	C 	0.59840 0.40160 0.17520 -0.26000
C 	C 	0.61820 0.38180 0.11110 0.52800
N 	N 	0.50000 0.00000 0.61580 -0.30400
N 	N 	-0.00000 0.50000 0.61580 -0.30400
N 	N 	0.50000 0.50000 0.61580 -0.30100
N 	N 	-0.00000 0.50000 0.38420 -0.30600
N 	N 	0.50000 0.00000 0.38420 -0.30600
N 	N 	0.50000 0.50000 0.38420 -0.30300
N 	N 	0.53590 0.07180 0.50000 -0.29800
N 	N 	0.92820 0.46410 0.50000 -0.29600
N 	N 	0.53590 0.46410 0.50000 -0.29700
N 	N 	0.46410 0.92820 0.50000 -0.29600
N 	N 	0.07180 0.53590 0.50000 -0.29800
N 	N 	0.46410 0.53590 0.50000 -0.29700
O 	O 	0.66667 0.33333 -0.00000 -0.83000
O 	O 	0.33333 0.66667 -0.00000 -0.83000
