data_crystal

_cell_length_a 22.22000
_cell_length_b 22.22000
_cell_length_c 22.48700
_cell_angle_alpha 90.00000
_cell_angle_beta  90.00000
_cell_angle_gamma 120.00000

_symmetry_space_group_name_	'P 1'
_symmetry_space_group_name_H-M	'P 1'

loop_
_symmetry_equiv_pos_as_xyz
  x,y,z

loop_
_atom_site_label
_atom_site_type_symbol
_atom_site_fract_x
_atom_site_fract_y
_atom_site_fract_z
_atom_site_charge
I 	I 	0.39077 0.23829 0.49576 -0.68500
I 	I 	0.56337 0.37383 0.62163 -0.58200
Cu	Cu	0.52290 0.28471 0.53072 0.71200
Cu	Cu	0.42842 0.26793 0.60888 0.71600
N 	N 	0.58190 0.34340 0.46010 -0.17400
N 	N 	0.37560 0.31210 0.64360 -0.18400
C 	C 	0.57020 0.29950 0.40810 -0.05600
H 	H 	0.52220 0.27900 0.39530 0.03200
H 	H 	0.57890 0.26210 0.41840 0.03200
C 	C 	0.56290 0.39530 0.44420 -0.06300
H 	H 	0.57250 0.42670 0.47740 0.03700
H 	H 	0.51360 0.37260 0.43570 0.03600
C 	C 	0.65670 0.38050 0.47700 -0.07600
H 	H 	0.67180 0.34720 0.48490 0.04400
H 	H 	0.66340 0.40740 0.51290 0.04100
C 	C 	0.29730 0.26290 0.64960 -0.05300
H 	H 	0.28900 0.22120 0.67030 -0.00600
H 	H 	0.27670 0.24960 0.61030 0.02700
C 	C 	0.40270 0.34020 0.70440 -0.06400
H 	H 	0.45300 0.36720 0.70320 0.03400
H 	H 	0.38950 0.30180 0.73180 0.03700
C 	C 	0.38690 0.37330 0.60600 -0.07500
H 	H 	0.37550 0.35880 0.56490 0.03900
H 	H 	0.43530 0.40930 0.60790 0.04600
I 	I 	0.76171 0.15248 0.82909 -0.68600
I 	I 	0.62617 0.18954 0.95496 -0.58400
Cu	Cu	0.71529 0.23819 0.86405 0.71100
Cu	Cu	0.73207 0.16049 0.94221 0.71500
N 	N 	0.65660 0.23850 0.79343 -0.17500
N 	N 	0.68790 0.06350 0.97693 -0.18400
C 	C 	0.70050 0.27070 0.74143 -0.05600
H 	H 	0.72100 0.24320 0.72863 0.03200
H 	H 	0.73790 0.31680 0.75173 0.03200
C 	C 	0.60470 0.16760 0.77753 -0.06300
H 	H 	0.57330 0.14580 0.81073 0.03700
H 	H 	0.62740 0.14100 0.76903 0.03600
C 	C 	0.61950 0.27620 0.81033 -0.07600
H 	H 	0.65280 0.32460 0.81823 0.04400
H 	H 	0.59260 0.25600 0.84623 0.04100
C 	C 	0.73710 0.03440 0.98293 -0.05500
H 	H 	0.77880 0.06780 0.00363 -0.00500
H 	H 	0.75040 0.02710 0.94363 0.02700
C 	C 	0.65980 0.06250 0.03773 -0.06300
H 	H 	0.63280 0.08580 0.03653 0.03400
H 	H 	0.69820 0.08770 0.06513 0.03700
C 	C 	0.62670 0.01360 0.93933 -0.07600
H 	H 	0.64120 0.01670 0.89823 0.04000
H 	H 	0.59070 0.02600 0.94123 0.04600
I 	I 	0.84752 0.60923 0.16243 -0.68600
I 	I 	0.81046 0.43663 0.28830 -0.58300
Cu	Cu	0.76181 0.47710 0.19739 0.71100
Cu	Cu	0.83951 0.57158 0.27555 0.71500
N 	N 	0.76150 0.41810 0.12677 -0.17500
N 	N 	0.93650 0.62440 0.31027 -0.18400
C 	C 	0.72930 0.42980 0.07477 -0.05600
H 	H 	0.75680 0.47780 0.06197 0.03200
H 	H 	0.68320 0.42110 0.08507 0.03200
C 	C 	0.83240 0.43710 0.11087 -0.06300
H 	H 	0.85420 0.42750 0.14407 0.03700
H 	H 	0.85900 0.48640 0.10237 0.03600
C 	C 	0.72380 0.34330 0.14367 -0.07600
H 	H 	0.67540 0.32820 0.15157 0.04400
H 	H 	0.74400 0.33660 0.17957 0.04100
C 	C 	0.96560 0.70270 0.31627 -0.05300
H 	H 	0.93220 0.71100 0.33697 -0.00600
H 	H 	0.97290 0.72330 0.27697 0.02700
C 	C 	0.93750 0.59730 0.37107 -0.06400
H 	H 	0.91420 0.54700 0.36987 0.03400
H 	H 	0.91230 0.61050 0.39847 0.03700
C 	C 	0.98640 0.61310 0.27267 -0.07400
H 	H 	0.98330 0.62450 0.23157 0.03900
H 	H 	0.97400 0.56470 0.27457 0.04600
I 	I 	0.60923 0.76171 0.99576 -0.68500
I 	I 	0.43663 0.62617 0.12163 -0.58300
Cu	Cu	0.47710 0.71529 0.03072 0.71100
Cu	Cu	0.57158 0.73207 0.10888 0.71500
N 	N 	0.41810 0.65660 0.96010 -0.17500
N 	N 	0.62440 0.68790 0.14360 -0.18400
C 	C 	0.42980 0.70050 0.90810 -0.05600
H 	H 	0.47780 0.72100 0.89530 0.03200
H 	H 	0.42110 0.73790 0.91840 0.03200
C 	C 	0.43710 0.60470 0.94420 -0.06300
H 	H 	0.42750 0.57330 0.97740 0.03700
H 	H 	0.48640 0.62740 0.93570 0.03600
C 	C 	0.34330 0.61950 0.97700 -0.07500
H 	H 	0.32820 0.65280 0.98490 0.04300
H 	H 	0.33660 0.59260 0.01290 0.04000
C 	C 	0.70270 0.73710 0.14960 -0.05300
H 	H 	0.71100 0.77880 0.17030 -0.00600
H 	H 	0.72330 0.75040 0.11030 0.02700
C 	C 	0.59730 0.65980 0.20440 -0.06400
H 	H 	0.54700 0.63280 0.20320 0.03400
H 	H 	0.61050 0.69820 0.23180 0.03700
C 	C 	0.61310 0.62670 0.10600 -0.07500
H 	H 	0.62450 0.64120 0.06490 0.03900
H 	H 	0.56470 0.59070 0.10790 0.04600
I 	I 	0.23829 0.84752 0.32909 -0.68600
I 	I 	0.37383 0.81046 0.45496 -0.58300
Cu	Cu	0.28471 0.76181 0.36405 0.71100
Cu	Cu	0.26793 0.83951 0.44221 0.71500
N 	N 	0.34340 0.76150 0.29343 -0.17500
N 	N 	0.31210 0.93650 0.47693 -0.18400
C 	C 	0.29950 0.72930 0.24143 -0.05600
H 	H 	0.27900 0.75680 0.22863 0.03200
H 	H 	0.26210 0.68320 0.25173 0.03200
C 	C 	0.39530 0.83240 0.27753 -0.06300
H 	H 	0.42670 0.85420 0.31073 0.03700
H 	H 	0.37260 0.85900 0.26903 0.03600
C 	C 	0.38050 0.72380 0.31033 -0.07600
H 	H 	0.34720 0.67540 0.31823 0.04400
H 	H 	0.40740 0.74400 0.34623 0.04100
C 	C 	0.26290 0.96560 0.48293 -0.05400
H 	H 	0.22120 0.93220 0.50363 -0.00600
H 	H 	0.24960 0.97290 0.44363 0.02700
C 	C 	0.34020 0.93750 0.53773 -0.06500
H 	H 	0.36720 0.91420 0.53653 0.03400
H 	H 	0.30180 0.91230 0.56513 0.03700
C 	C 	0.37330 0.98640 0.43933 -0.07500
H 	H 	0.35880 0.98330 0.39823 0.03900
H 	H 	0.40930 0.97400 0.44123 0.04600
I 	I 	0.15248 0.39077 0.66243 -0.68600
I 	I 	0.18954 0.56337 0.78830 -0.58300
Cu	Cu	0.23819 0.52290 0.69739 0.71100
Cu	Cu	0.16049 0.42842 0.77555 0.71500
N 	N 	0.23850 0.58190 0.62677 -0.17500
N 	N 	0.06350 0.37560 0.81027 -0.18400
C 	C 	0.27070 0.57020 0.57477 -0.05600
H 	H 	0.24320 0.52220 0.56197 0.03200
H 	H 	0.31680 0.57890 0.58507 0.03200
C 	C 	0.16760 0.56290 0.61087 -0.06300
H 	H 	0.14580 0.57250 0.64407 0.03700
H 	H 	0.14100 0.51360 0.60237 0.03600
C 	C 	0.27620 0.65670 0.64367 -0.07600
H 	H 	0.32460 0.67180 0.65157 0.04400
H 	H 	0.25600 0.66340 0.67957 0.04100
C 	C 	0.03440 0.29730 0.81627 -0.05300
H 	H 	0.06780 0.28900 0.83697 -0.00600
H 	H 	0.02710 0.27670 0.77697 0.02700
C 	C 	0.06250 0.40270 0.87107 -0.06400
H 	H 	0.08580 0.45300 0.86987 0.03400
H 	H 	0.08770 0.38950 0.89847 0.03700
C 	C 	0.01360 0.38690 0.77267 -0.07400
H 	H 	0.01670 0.37550 0.73157 0.03900
H 	H 	0.02600 0.43530 0.77457 0.04600
I 	I 	0.23829 0.39077 0.83757 -0.68600
I 	I 	0.37383 0.56337 0.71170 -0.58300
Cu	Cu	0.28471 0.52290 0.80261 0.71100
Cu	Cu	0.26793 0.42842 0.72445 0.71500
N 	N 	0.34340 0.58190 0.87323 -0.17500
N 	N 	0.31210 0.37560 0.68973 -0.18400
C 	C 	0.29950 0.57020 0.92523 -0.05600
H 	H 	0.27900 0.52220 0.93803 0.03200
H 	H 	0.26210 0.57890 0.91493 0.03200
C 	C 	0.39530 0.56290 0.88913 -0.06300
H 	H 	0.42670 0.57250 0.85593 0.03700
H 	H 	0.37260 0.51360 0.89763 0.03600
C 	C 	0.38050 0.65670 0.85633 -0.07600
H 	H 	0.34720 0.67180 0.84843 0.04400
H 	H 	0.40740 0.66340 0.82043 0.04100
C 	C 	0.26290 0.29730 0.68373 -0.05300
H 	H 	0.22120 0.28900 0.66303 -0.00600
H 	H 	0.24960 0.27670 0.72303 0.02700
C 	C 	0.34020 0.40270 0.62893 -0.06400
H 	H 	0.36720 0.45300 0.63013 0.03400
H 	H 	0.30180 0.38950 0.60153 0.03700
C 	C 	0.37330 0.38690 0.72733 -0.07500
H 	H 	0.35880 0.37550 0.76843 0.03900
H 	H 	0.40930 0.43530 0.72543 0.04600
I 	I 	0.15248 0.76171 0.50424 -0.68600
I 	I 	0.18954 0.62617 0.37837 -0.58300
Cu	Cu	0.23819 0.71529 0.46928 0.71100
Cu	Cu	0.16049 0.73207 0.39112 0.71500
N 	N 	0.23850 0.65660 0.53990 -0.17500
N 	N 	0.06350 0.68790 0.35640 -0.18400
C 	C 	0.27070 0.70050 0.59190 -0.05600
H 	H 	0.24320 0.72100 0.60470 0.03200
H 	H 	0.31680 0.73790 0.58160 0.03200
C 	C 	0.16760 0.60470 0.55580 -0.06300
H 	H 	0.14580 0.57330 0.52260 0.03700
H 	H 	0.14100 0.62740 0.56430 0.03600
C 	C 	0.27620 0.61950 0.52300 -0.07600
H 	H 	0.32460 0.65280 0.51510 0.04400
H 	H 	0.25600 0.59260 0.48710 0.04100
C 	C 	0.03440 0.73710 0.35040 -0.05400
H 	H 	0.06780 0.77880 0.32970 -0.00600
H 	H 	0.02710 0.75040 0.38970 0.02700
C 	C 	0.06250 0.65980 0.29560 -0.06500
H 	H 	0.08580 0.63280 0.29680 0.03400
H 	H 	0.08770 0.69820 0.26820 0.03700
C 	C 	0.01360 0.62670 0.39400 -0.07500
H 	H 	0.01670 0.64120 0.43510 0.03900
H 	H 	0.02600 0.59070 0.39210 0.04600
I 	I 	0.60923 0.84752 0.17091 -0.68600
I 	I 	0.43663 0.81046 0.04504 -0.58400
Cu	Cu	0.47710 0.76181 0.13595 0.71100
Cu	Cu	0.57158 0.83951 0.05779 0.71500
N 	N 	0.41810 0.76150 0.20657 -0.17500
N 	N 	0.62440 0.93650 0.02307 -0.18400
C 	C 	0.42980 0.72930 0.25857 -0.05600
H 	H 	0.47780 0.75680 0.27137 0.03200
H 	H 	0.42110 0.68320 0.24827 0.03200
C 	C 	0.43710 0.83240 0.22247 -0.06300
H 	H 	0.42750 0.85420 0.18927 0.03700
H 	H 	0.48640 0.85900 0.23097 0.03600
C 	C 	0.34330 0.72380 0.18967 -0.07600
H 	H 	0.32820 0.67540 0.18177 0.04400
H 	H 	0.33660 0.74400 0.15377 0.04100
C 	C 	0.70270 0.96560 0.01707 -0.05400
H 	H 	0.71100 0.93220 0.99637 -0.00500
H 	H 	0.72330 0.97290 0.05637 0.02700
C 	C 	0.59730 0.93750 0.96227 -0.06300
H 	H 	0.54700 0.91420 0.96347 0.03400
H 	H 	0.61050 0.91230 0.93487 0.03700
C 	C 	0.61310 0.98640 0.06067 -0.07600
H 	H 	0.62450 0.98330 0.10177 0.04000
H 	H 	0.56470 0.97400 0.05877 0.04600
I 	I 	0.76171 0.60923 0.33757 -0.68600
I 	I 	0.62617 0.43663 0.21170 -0.58300
Cu	Cu	0.71529 0.47710 0.30261 0.71100
Cu	Cu	0.73207 0.57158 0.22445 0.71500
N 	N 	0.65660 0.41810 0.37323 -0.17500
N 	N 	0.68790 0.62440 0.18973 -0.18400
C 	C 	0.70050 0.42980 0.42523 -0.05600
H 	H 	0.72100 0.47780 0.43803 0.03200
H 	H 	0.73790 0.42110 0.41493 0.03200
C 	C 	0.60470 0.43710 0.38913 -0.06300
H 	H 	0.57330 0.42750 0.35593 0.03700
H 	H 	0.62740 0.48640 0.39763 0.03600
C 	C 	0.61950 0.34330 0.35633 -0.07600
H 	H 	0.65280 0.32820 0.34843 0.04400
H 	H 	0.59260 0.33660 0.32043 0.04100
C 	C 	0.73710 0.70270 0.18373 -0.05300
H 	H 	0.77880 0.71100 0.16303 -0.00600
H 	H 	0.75040 0.72330 0.22303 0.02700
C 	C 	0.65980 0.59730 0.12893 -0.06400
H 	H 	0.63280 0.54700 0.13013 0.03400
H 	H 	0.69820 0.61050 0.10153 0.03700
C 	C 	0.62670 0.61310 0.22733 -0.07500
H 	H 	0.64120 0.62450 0.26843 0.03900
H 	H 	0.59070 0.56470 0.22543 0.04600
I 	I 	0.84752 0.23829 0.00424 -0.68500
I 	I 	0.81046 0.37383 0.87837 -0.58300
Cu	Cu	0.76181 0.28471 0.96928 0.71100
Cu	Cu	0.83951 0.26793 0.89112 0.71500
N 	N 	0.76150 0.34340 0.03990 -0.17500
N 	N 	0.93650 0.31210 0.85640 -0.18400
C 	C 	0.72930 0.29950 0.09190 -0.05600
H 	H 	0.75680 0.27900 0.10470 0.03200
H 	H 	0.68320 0.26210 0.08160 0.03200
C 	C 	0.83240 0.39530 0.05580 -0.06300
H 	H 	0.85420 0.42670 0.02260 0.03700
H 	H 	0.85900 0.37260 0.06430 0.03600
C 	C 	0.72380 0.38050 0.02300 -0.07500
H 	H 	0.67540 0.34720 0.01510 0.04300
H 	H 	0.74400 0.40740 0.98710 0.04000
C 	C 	0.96560 0.26290 0.85040 -0.05400
H 	H 	0.93220 0.22120 0.82970 -0.00600
H 	H 	0.97290 0.24960 0.88970 0.02700
C 	C 	0.93750 0.34020 0.79560 -0.06500
H 	H 	0.91420 0.36720 0.79680 0.03400
H 	H 	0.91230 0.30180 0.76820 0.03700
C 	C 	0.98640 0.37330 0.89400 -0.07600
H 	H 	0.98330 0.35880 0.93510 0.03900
H 	H 	0.97400 0.40930 0.89210 0.04600
I 	I 	0.39077 0.15248 0.67091 -0.68600
I 	I 	0.56337 0.18954 0.54504 -0.58300
Cu	Cu	0.52290 0.23819 0.63595 0.71100
Cu	Cu	0.42842 0.16049 0.55779 0.71500
N 	N 	0.58190 0.23850 0.70657 -0.17500
N 	N 	0.37560 0.06350 0.52307 -0.18400
C 	C 	0.57020 0.27070 0.75857 -0.05600
H 	H 	0.52220 0.24320 0.77137 0.03200
H 	H 	0.57890 0.31680 0.74827 0.03200
C 	C 	0.56290 0.16760 0.72247 -0.06300
H 	H 	0.57250 0.14580 0.68927 0.03700
H 	H 	0.51360 0.14100 0.73097 0.03600
C 	C 	0.65670 0.27620 0.68967 -0.07600
H 	H 	0.67180 0.32460 0.68177 0.04400
H 	H 	0.66340 0.25600 0.65377 0.04100
C 	C 	0.29730 0.03440 0.51707 -0.05300
H 	H 	0.28900 0.06780 0.49637 -0.00600
H 	H 	0.27670 0.02710 0.55637 0.02700
C 	C 	0.40270 0.06250 0.46227 -0.06400
H 	H 	0.45300 0.08580 0.46347 0.03400
H 	H 	0.38950 0.08770 0.43487 0.03700
C 	C 	0.38690 0.01360 0.56067 -0.07500
H 	H 	0.37550 0.01670 0.60177 0.03900
H 	H 	0.43530 0.02600 0.55877 0.04600
Cu	Cu	0.85862 0.77425 0.39303 0.82700
N 	N 	0.80110 0.79270 0.34330 -0.26500
N 	N 	0.76780 0.85040 0.28340 -0.27300
C 	C 	0.88890 0.87500 0.27360 -0.12000
C 	C 	0.92570 0.94910 0.27250 -0.02200
H 	H 	0.90430 0.97280 0.28710 -0.01100
C 	C 	0.81760 0.83900 0.29970 0.10300
C 	C 	0.73230 0.77270 0.35620 0.03500
C 	C 	0.71200 0.80820 0.31940 0.04600
C 	C 	0.64460 0.80010 0.32410 -0.11500
H 	H 	0.63150 0.82570 0.30000 0.05700
C 	C 	0.59810 0.75240 0.36600 -0.02400
H 	H 	0.55310 0.74460 0.36950 0.03400
C 	C 	0.62150 0.71700 0.40220 -0.02600
H 	H 	0.59090 0.68680 0.43060 0.03600
C 	C 	0.68710 0.72390 0.39890 -0.10200
H 	H 	0.70040 0.69830 0.42280 0.04500
Cu	Cu	0.22575 0.08437 0.72636 0.82700
N 	N 	0.20730 0.00840 0.67663 -0.26500
N 	N 	0.14960 0.91740 0.61673 -0.27300
C 	C 	0.12500 0.01390 0.60693 -0.12100
C 	C 	0.05090 0.97660 0.60583 -0.02100
H 	H 	0.02720 0.93150 0.62043 -0.01100
C 	C 	0.16100 0.97860 0.63303 0.10300
C 	C 	0.22730 0.95960 0.68953 0.03500
C 	C 	0.19180 0.90380 0.65273 0.04600
C 	C 	0.19990 0.84450 0.65743 -0.11500
H 	H 	0.17430 0.80580 0.63333 0.05700
C 	C 	0.24760 0.84570 0.69933 -0.02300
H 	H 	0.25540 0.80850 0.70283 0.03400
C 	C 	0.28300 0.90450 0.73553 -0.02700
H 	H 	0.31320 0.90410 0.76393 0.03600
C 	C 	0.27610 0.96320 0.73223 -0.10200
H 	H 	0.30170 0.00210 0.75613 0.04400
Cu	Cu	0.91563 0.14138 0.05970 0.82700
N 	N 	0.99160 0.19890 0.00997 -0.26500
N 	N 	0.08260 0.23220 0.95007 -0.27400
C 	C 	0.98610 0.11110 0.94027 -0.12700
C 	C 	0.02340 0.07430 0.93917 -0.01300
H 	H 	0.06850 0.09570 0.95377 -0.01300
C 	C 	0.02140 0.18240 0.96637 0.10500
C 	C 	0.04040 0.26770 0.02287 0.03500
C 	C 	0.09620 0.28800 0.98607 0.04600
C 	C 	0.15550 0.35540 0.99077 -0.11400
H 	H 	0.19420 0.36850 0.96667 0.05600
C 	C 	0.15430 0.40190 0.03267 -0.02500
H 	H 	0.19150 0.44690 0.03617 0.03500
C 	C 	0.09550 0.37850 0.06887 -0.02500
H 	H 	0.09590 0.40910 0.09727 0.03500
C 	C 	0.03680 0.31290 0.06557 -0.10400
H 	H 	0.99790 0.29960 0.08947 0.04500
Cu	Cu	0.14138 0.22575 0.89303 0.82700
N 	N 	0.19890 0.20730 0.84330 -0.26500
N 	N 	0.23220 0.14960 0.78340 -0.27300
C 	C 	0.11110 0.12500 0.77360 -0.12100
C 	C 	0.07430 0.05090 0.77250 -0.02100
H 	H 	0.09570 0.02720 0.78710 -0.01100
C 	C 	0.18240 0.16100 0.79970 0.10300
C 	C 	0.26770 0.22730 0.85620 0.03500
C 	C 	0.28800 0.19180 0.81940 0.04600
C 	C 	0.35540 0.19990 0.82410 -0.11500
H 	H 	0.36850 0.17430 0.80000 0.05700
C 	C 	0.40190 0.24760 0.86600 -0.02400
H 	H 	0.44690 0.25540 0.86950 0.03400
C 	C 	0.37850 0.28300 0.90220 -0.02600
H 	H 	0.40910 0.31320 0.93060 0.03600
C 	C 	0.31290 0.27610 0.89890 -0.10200
H 	H 	0.29960 0.30170 0.92280 0.04500
Cu	Cu	0.77425 0.91563 0.22636 0.82700
N 	N 	0.79270 0.99160 0.17663 -0.26600
N 	N 	0.85040 0.08260 0.11673 -0.27400
C 	C 	0.87500 0.98610 0.10693 -0.12400
C 	C 	0.94910 0.02340 0.10583 -0.01800
H 	H 	0.97280 0.06850 0.12043 -0.01200
C 	C 	0.83900 0.02140 0.13303 0.10500
C 	C 	0.77270 0.04040 0.18953 0.03500
C 	C 	0.80820 0.09620 0.15273 0.04600
C 	C 	0.80010 0.15550 0.15743 -0.11500
H 	H 	0.82570 0.19420 0.13333 0.05700
C 	C 	0.75240 0.15430 0.19933 -0.02300
H 	H 	0.74460 0.19150 0.20283 0.03400
C 	C 	0.71700 0.09550 0.23553 -0.02700
H 	H 	0.68680 0.09590 0.26393 0.03600
C 	C 	0.72390 0.03680 0.23223 -0.10200
H 	H 	0.69830 0.99790 0.25613 0.04400
Cu	Cu	0.08437 0.85862 0.55970 0.82700
N 	N 	0.00840 0.80110 0.50997 -0.26600
N 	N 	0.91740 0.76780 0.45007 -0.27400
C 	C 	0.01390 0.88890 0.44027 -0.12400
C 	C 	0.97660 0.92570 0.43917 -0.01700
H 	H 	0.93150 0.90430 0.45377 -0.01200
C 	C 	0.97860 0.81760 0.46637 0.10500
C 	C 	0.95960 0.73230 0.52287 0.03500
C 	C 	0.90380 0.71200 0.48607 0.04600
C 	C 	0.84450 0.64460 0.49077 -0.11500
H 	H 	0.80580 0.63150 0.46667 0.05700
C 	C 	0.84570 0.59810 0.53267 -0.02400
H 	H 	0.80850 0.55310 0.53617 0.03400
C 	C 	0.90450 0.62150 0.56887 -0.02600
H 	H 	0.90410 0.59090 0.59727 0.03600
C 	C 	0.96320 0.68710 0.56557 -0.10200
H 	H 	0.00210 0.70040 0.58947 0.04500
Cu	Cu	0.77425 0.85862 0.94030 0.82700
N 	N 	0.79270 0.80110 0.99003 -0.26500
N 	N 	0.85040 0.76780 0.04993 -0.27300
C 	C 	0.87500 0.88890 0.05973 -0.12300
C 	C 	0.94910 0.92570 0.06083 -0.01900
H 	H 	0.97280 0.90430 0.04623 -0.01200
C 	C 	0.83900 0.81760 0.03363 0.10400
C 	C 	0.77270 0.73230 0.97713 0.03600
C 	C 	0.80820 0.71200 0.01393 0.04600
C 	C 	0.80010 0.64460 0.00923 -0.11500
H 	H 	0.82570 0.63150 0.03333 0.05700
C 	C 	0.75240 0.59810 0.96733 -0.02400
H 	H 	0.74460 0.55310 0.96383 0.03400
C 	C 	0.71700 0.62150 0.93113 -0.02600
H 	H 	0.68680 0.59090 0.90273 0.03600
C 	C 	0.72390 0.68710 0.93443 -0.10300
H 	H 	0.69830 0.70040 0.91053 0.04500
Cu	Cu	0.08437 0.22575 0.60697 0.82700
N 	N 	0.00840 0.20730 0.65670 -0.26500
N 	N 	0.91740 0.14960 0.71660 -0.27300
C 	C 	0.01390 0.12500 0.72640 -0.12000
C 	C 	0.97660 0.05090 0.72750 -0.02200
H 	H 	0.93150 0.02720 0.71290 -0.01000
C 	C 	0.97860 0.16100 0.70030 0.10200
C 	C 	0.95960 0.22730 0.64380 0.03500
C 	C 	0.90380 0.19180 0.68060 0.04600
C 	C 	0.84450 0.19990 0.67590 -0.11500
H 	H 	0.80580 0.17430 0.70000 0.05700
C 	C 	0.84570 0.24760 0.63400 -0.02400
H 	H 	0.80850 0.25540 0.63050 0.03400
C 	C 	0.90450 0.28300 0.59780 -0.02600
H 	H 	0.90410 0.31320 0.56940 0.03600
C 	C 	0.96320 0.27610 0.60110 -0.10300
H 	H 	0.00210 0.30170 0.57720 0.04500
Cu	Cu	0.14138 0.91563 0.27364 0.82700
N 	N 	0.19890 0.99160 0.32337 -0.26600
N 	N 	0.23220 0.08260 0.38327 -0.27400
C 	C 	0.11110 0.98610 0.39307 -0.12400
C 	C 	0.07430 0.02340 0.39417 -0.01700
H 	H 	0.09570 0.06850 0.37957 -0.01200
C 	C 	0.18240 0.02140 0.36697 0.10500
C 	C 	0.26770 0.04040 0.31047 0.03500
C 	C 	0.28800 0.09620 0.34727 0.04600
C 	C 	0.35540 0.15550 0.34257 -0.11500
H 	H 	0.36850 0.19420 0.36667 0.05700
C 	C 	0.40190 0.15430 0.30067 -0.02300
H 	H 	0.44690 0.19150 0.29717 0.03400
C 	C 	0.37850 0.09550 0.26447 -0.02700
H 	H 	0.40910 0.09590 0.23607 0.03600
C 	C 	0.31290 0.03680 0.26777 -0.10100
H 	H 	0.29960 0.99790 0.24387 0.04400
Cu	Cu	0.22575 0.14138 0.44030 0.82700
N 	N 	0.20730 0.19890 0.49003 -0.26500
N 	N 	0.14960 0.23220 0.54993 -0.27300
C 	C 	0.12500 0.11110 0.55973 -0.12100
C 	C 	0.05090 0.07430 0.56083 -0.02000
H 	H 	0.02720 0.09570 0.54623 -0.01100
C 	C 	0.16100 0.18240 0.53363 0.10300
C 	C 	0.22730 0.26770 0.47713 0.03500
C 	C 	0.19180 0.28800 0.51393 0.04600
C 	C 	0.19990 0.35540 0.50923 -0.11500
H 	H 	0.17430 0.36850 0.53333 0.05700
C 	C 	0.24760 0.40190 0.46733 -0.02400
H 	H 	0.25540 0.44690 0.46383 0.03400
C 	C 	0.28300 0.37850 0.43113 -0.02600
H 	H 	0.31320 0.40910 0.40273 0.03600
C 	C 	0.27610 0.31290 0.43443 -0.10200
H 	H 	0.30170 0.29960 0.41053 0.04500
Cu	Cu	0.91563 0.77425 0.10697 0.82700
N 	N 	0.99160 0.79270 0.15670 -0.26500
N 	N 	0.08260 0.85040 0.21660 -0.27300
C 	C 	0.98610 0.87500 0.22640 -0.11900
C 	C 	0.02340 0.94910 0.22750 -0.02300
H 	H 	0.06850 0.97280 0.21290 -0.01000
C 	C 	0.02140 0.83900 0.20030 0.10200
C 	C 	0.04040 0.77270 0.14380 0.03500
C 	C 	0.09620 0.80820 0.18060 0.04600
C 	C 	0.15550 0.80010 0.17590 -0.11400
H 	H 	0.19420 0.82570 0.20000 0.05600
C 	C 	0.15430 0.75240 0.13400 -0.02400
H 	H 	0.19150 0.74460 0.13050 0.03500
C 	C 	0.09550 0.71700 0.09780 -0.02500
H 	H 	0.09590 0.68680 0.06940 0.03500
C 	C 	0.03680 0.72390 0.10110 -0.10400
H 	H 	0.99790 0.69830 0.07720 0.04600
Cu	Cu	0.85862 0.08437 0.77364 0.82700
N 	N 	0.80110 0.00840 0.82337 -0.26600
N 	N 	0.76780 0.91740 0.88327 -0.27400
C 	C 	0.88890 0.01390 0.89307 -0.12700
C 	C 	0.92570 0.97660 0.89417 -0.01300
H 	H 	0.90430 0.93150 0.87957 -0.01300
C 	C 	0.81760 0.97860 0.86697 0.10600
C 	C 	0.73230 0.95960 0.81047 0.03500
C 	C 	0.71200 0.90380 0.84727 0.04600
C 	C 	0.64460 0.84450 0.84257 -0.11500
H 	H 	0.63150 0.80580 0.86667 0.05700
C 	C 	0.59810 0.84570 0.80067 -0.02300
H 	H 	0.55310 0.80850 0.79717 0.03400
C 	C 	0.62150 0.90450 0.76447 -0.02700
H 	H 	0.59090 0.90410 0.73607 0.03600
C 	C 	0.68710 0.96320 0.76777 -0.10200
H 	H 	0.70040 0.00210 0.74387 0.04400
C 	C 	0.99350 0.98700 0.25000 -0.08300
H 	H 	0.01770 0.03540 0.25000 0.04100
C 	C 	0.92165 0.84330 0.25000 -0.00800
H 	H 	0.89750 0.79500 0.25000 -0.01800
C 	C 	0.01300 0.00650 0.58333 -0.08500
H 	H 	0.96460 0.98230 0.58333 0.04200
C 	C 	0.15670 0.07835 0.58333 -0.00600
H 	H 	0.20500 0.10250 0.58333 -0.01900
C 	C 	0.99350 0.00650 0.91667 -0.09500
H 	H 	0.01770 0.98230 0.91667 0.04600
C 	C 	0.92165 0.07835 0.91667 -0.00100
H 	H 	0.89750 0.10250 0.91667 -0.02100
C 	C 	0.00650 0.01300 0.75000 -0.08400
H 	H 	0.98230 0.96460 0.75000 0.04200
C 	C 	0.07835 0.15670 0.75000 -0.00700
H 	H 	0.10250 0.20500 0.75000 -0.01900
C 	C 	0.98700 0.99350 0.08333 -0.08800
H 	H 	0.03540 0.01770 0.08333 0.04300
C 	C 	0.84330 0.92165 0.08333 -0.00500
H 	H 	0.79500 0.89750 0.08333 -0.02000
C 	C 	0.00650 0.99350 0.41667 -0.09000
H 	H 	0.98230 0.01770 0.41667 0.04400
C 	C 	0.07835 0.92165 0.41667 -0.00400
H 	H 	0.10250 0.89750 0.41667 -0.02000
