data_crystal

_cell_length_a 22.91700
_cell_length_b 22.91700
_cell_length_c 15.90240
_cell_angle_alpha 90.00000
_cell_angle_beta  90.00000
_cell_angle_gamma 120.00000

_symmetry_space_group_name_	'P 1'
_symmetry_space_group_name_H-M	'P 1'

loop_
_symmetry_equiv_pos_as_xyz
  x,y,z

loop_
_atom_site_label
_atom_site_type_symbol
_atom_site_fract_x
_atom_site_fract_y
_atom_site_fract_z
_atom_site_charge
C 	C 	0.43950 0.46350 0.04540 -0.23100
C 	C 	0.37470 0.42310 0.08850 0.40900
C 	C 	0.16630 0.32550 0.92040 0.20600
C 	C 	0.22480 0.34850 0.87490 -0.15800
H 	H 	0.26300 0.36000 0.90000 0.07500
O 	O 	0.16580 0.31710 0.00550 -0.73900
O 	O 	0.32280 0.40860 0.04620 -0.52000
O 	O 	0.06930 0.36540 0.16970 -0.68700
Zn	Zn	0.12318 0.36583 0.07464 1.01100
C 	C 	0.10617 0.79683 0.37873 -0.21900
C 	C 	0.04137 0.75643 0.42183 0.36300
C 	C 	0.83297 0.65883 0.25373 0.21100
C 	C 	0.89147 0.68183 0.20823 -0.14800
H 	H 	0.92967 0.69333 0.23333 0.08100
O 	O 	0.83247 0.65043 0.33883 -0.73400
O 	O 	0.98947 0.74193 0.37953 -0.47600
O 	O 	0.73597 0.69873 0.50303 -0.67400
Zn	Zn	0.78985 0.69916 0.40797 1.01400
C 	C 	0.77283 0.13017 0.71207 -0.23200
C 	C 	0.70803 0.08977 0.75517 0.41000
C 	C 	0.49963 0.99217 0.58707 0.30700
C 	C 	0.55813 0.01517 0.54157 -0.28100
H 	H 	0.59633 0.02667 0.56667 0.11200
O 	O 	0.49913 0.98377 0.67217 -0.73700
O 	O 	0.65613 0.07527 0.71287 -0.52900
O 	O 	0.40263 0.03207 0.83637 -0.68200
Zn	Zn	0.45651 0.03250 0.74131 1.00100
C 	C 	0.53650 0.97600 0.04540 -0.29100
C 	C 	0.57690 0.95160 0.08850 0.43600
C 	C 	0.67450 0.84080 0.92040 0.21900
C 	C 	0.65150 0.87630 0.87490 -0.16100
H 	H 	0.64000 0.90300 0.90000 0.08300
O 	O 	0.68290 0.84870 0.00550 -0.73400
O 	O 	0.59140 0.91420 0.04620 -0.52200
O 	O 	0.63460 0.70390 0.16970 -0.67400
Zn	Zn	0.63417 0.75735 0.07464 1.01200
C 	C 	0.20317 0.30933 0.37873 -0.23100
C 	C 	0.24357 0.28493 0.42183 0.40900
C 	C 	0.34117 0.17413 0.25373 0.21300
C 	C 	0.31817 0.20963 0.20823 -0.16200
H 	H 	0.30667 0.23633 0.23333 0.07600
O 	O 	0.34957 0.18203 0.33883 -0.73800
O 	O 	0.25807 0.24753 0.37953 -0.52400
O 	O 	0.30127 0.03723 0.50303 -0.68000
Zn	Zn	0.30084 0.09068 0.40797 1.00800
C 	C 	0.86983 0.64267 0.71207 -0.22400
C 	C 	0.91023 0.61827 0.75517 0.40900
C 	C 	0.00783 0.50747 0.58707 0.12000
C 	C 	0.98483 0.54297 0.54157 -0.03800
H 	H 	0.97333 0.56967 0.56667 0.04100
O 	O 	0.01623 0.51537 0.67217 -0.73100
O 	O 	0.92473 0.58087 0.71287 -0.50500
O 	O 	0.96793 0.37057 0.83637 -0.66900
Zn	Zn	0.96750 0.42402 0.74131 1.02300
C 	C 	0.02400 0.56050 0.04540 -0.17400
C 	C 	0.04840 0.62530 0.08850 0.38500
C 	C 	0.15920 0.83370 0.92040 0.22100
C 	C 	0.12370 0.77520 0.87490 -0.16400
H 	H 	0.09700 0.73700 0.90000 0.07300
O 	O 	0.15130 0.83420 0.00550 -0.74200
O 	O 	0.08580 0.67720 0.04620 -0.51900
O 	O 	0.29610 0.93070 0.16970 -0.66400
Zn	Zn	0.24265 0.87682 0.07464 1.01300
C 	C 	0.69067 0.89383 0.37873 -0.23900
C 	C 	0.71507 0.95863 0.42183 0.45800
C 	C 	0.82587 0.16703 0.25373 0.21500
C 	C 	0.79037 0.10853 0.20823 -0.16600
H 	H 	0.76367 0.07033 0.23333 0.07100
O 	O 	0.81797 0.16753 0.33883 -0.73600
O 	O 	0.75247 0.01053 0.37953 -0.55800
O 	O 	0.96277 0.26403 0.50303 -0.67200
Zn	Zn	0.90932 0.21015 0.40797 1.01400
C 	C 	0.35733 0.22717 0.71207 -0.23400
C 	C 	0.38173 0.29197 0.75517 0.41100
C 	C 	0.49253 0.50037 0.58707 0.21400
C 	C 	0.45703 0.44187 0.54157 -0.16000
H 	H 	0.43033 0.40367 0.56667 0.07600
O 	O 	0.48463 0.50087 0.67217 -0.73600
O 	O 	0.41913 0.34387 0.71287 -0.52000
O 	O 	0.62943 0.59737 0.83637 -0.67500
Zn	Zn	0.57598 0.54349 0.74131 1.01200
C 	C 	0.46350 0.43950 0.45460 -0.23000
C 	C 	0.42310 0.37470 0.41150 0.41000
C 	C 	0.32550 0.16630 0.57960 0.20600
C 	C 	0.34850 0.22480 0.62510 -0.15700
H 	H 	0.36000 0.26300 0.60000 0.07400
O 	O 	0.31710 0.16580 0.49450 -0.73800
O 	O 	0.40860 0.32280 0.45380 -0.52000
O 	O 	0.36540 0.06930 0.33030 -0.68600
Zn	Zn	0.36583 0.12318 0.42536 1.01100
C 	C 	0.13017 0.77283 0.78793 -0.23100
C 	C 	0.08977 0.70803 0.74483 0.40900
C 	C 	0.99217 0.49963 0.91293 0.30300
C 	C 	0.01517 0.55813 0.95843 -0.27400
H 	H 	0.02667 0.59633 0.93333 0.11000
O 	O 	0.98377 0.49913 0.82783 -0.73700
O 	O 	0.07527 0.65613 0.78713 -0.52900
O 	O 	0.03207 0.40263 0.66363 -0.68100
Zn	Zn	0.03250 0.45651 0.75869 1.00100
C 	C 	0.79683 0.10617 0.12127 -0.22100
C 	C 	0.75643 0.04137 0.07817 0.36600
C 	C 	0.65883 0.83297 0.24627 0.21200
C 	C 	0.68183 0.89147 0.29177 -0.14900
H 	H 	0.69333 0.92967 0.26667 0.08100
O 	O 	0.65043 0.83247 0.16117 -0.73400
O 	O 	0.74193 0.98947 0.12047 -0.47800
O 	O 	0.69873 0.73597 0.99697 -0.67400
Zn	Zn	0.69916 0.78985 0.09203 1.01400
C 	C 	0.97600 0.53650 0.45460 -0.28900
C 	C 	0.95160 0.57690 0.41150 0.43600
C 	C 	0.84080 0.67450 0.57960 0.21800
C 	C 	0.87630 0.65150 0.62510 -0.16100
H 	H 	0.90300 0.64000 0.60000 0.08300
O 	O 	0.84870 0.68290 0.49450 -0.73300
O 	O 	0.91420 0.59140 0.45380 -0.52100
O 	O 	0.70390 0.63460 0.33030 -0.67400
Zn	Zn	0.75735 0.63417 0.42536 1.01200
C 	C 	0.64267 0.86983 0.78793 -0.22300
C 	C 	0.61827 0.91023 0.74483 0.40900
C 	C 	0.50747 0.00783 0.91293 0.11900
C 	C 	0.54297 0.98483 0.95843 -0.03500
H 	H 	0.56967 0.97333 0.93333 0.04000
O 	O 	0.51537 0.01623 0.82783 -0.73100
O 	O 	0.58087 0.92473 0.78713 -0.50400
O 	O 	0.37057 0.96793 0.66363 -0.66900
Zn	Zn	0.42402 0.96750 0.75869 1.02400
C 	C 	0.30933 0.20317 0.12127 -0.23200
C 	C 	0.28493 0.24357 0.07817 0.40900
C 	C 	0.17413 0.34117 0.24627 0.21300
C 	C 	0.20963 0.31817 0.29177 -0.16300
H 	H 	0.23633 0.30667 0.26667 0.07600
O 	O 	0.18203 0.34957 0.16117 -0.73900
O 	O 	0.24753 0.25807 0.12047 -0.52400
O 	O 	0.03723 0.30127 0.99697 -0.68000
Zn	Zn	0.09068 0.30084 0.09203 1.00800
C 	C 	0.56050 0.02400 0.45460 -0.17000
C 	C 	0.62530 0.04840 0.41150 0.38400
C 	C 	0.83370 0.15920 0.57960 0.21700
C 	C 	0.77520 0.12370 0.62510 -0.16200
H 	H 	0.73700 0.09700 0.60000 0.07100
O 	O 	0.83420 0.15130 0.49450 -0.73900
O 	O 	0.67720 0.08580 0.45380 -0.51800
O 	O 	0.93070 0.29610 0.33030 -0.66300
Zn	Zn	0.87682 0.24265 0.42536 1.01300
C 	C 	0.22717 0.35733 0.78793 -0.23400
C 	C 	0.29197 0.38173 0.74483 0.41100
C 	C 	0.50037 0.49253 0.91293 0.21400
C 	C 	0.44187 0.45703 0.95843 -0.16000
H 	H 	0.40367 0.43033 0.93333 0.07600
O 	O 	0.50087 0.48463 0.82783 -0.73700
O 	O 	0.34387 0.41913 0.78713 -0.52000
O 	O 	0.59737 0.62943 0.66363 -0.67500
Zn	Zn	0.54349 0.57598 0.75869 1.01200
C 	C 	0.89383 0.69067 0.12127 -0.24000
C 	C 	0.95863 0.71507 0.07817 0.46000
C 	C 	0.16703 0.82587 0.24627 0.21600
C 	C 	0.10853 0.79037 0.29177 -0.16800
H 	H 	0.07033 0.76367 0.26667 0.07200
O 	O 	0.16753 0.81797 0.16117 -0.73700
O 	O 	0.01053 0.75247 0.12047 -0.55900
O 	O 	0.26403 0.96277 0.99697 -0.67200
Zn	Zn	0.21015 0.90932 0.09203 1.01400
C 	C 	0.56050 0.53650 0.95460 -0.23000
C 	C 	0.62530 0.57690 0.91150 0.41000
C 	C 	0.83370 0.67450 0.07960 0.22200
C 	C 	0.77520 0.65150 0.12510 -0.16300
H 	H 	0.73700 0.64000 0.10000 0.07800
O 	O 	0.83420 0.68290 0.99450 -0.73600
O 	O 	0.67720 0.59140 0.95380 -0.52000
O 	O 	0.93070 0.63460 0.83030 -0.66300
Zn	Zn	0.87682 0.63417 0.92536 1.01300
C 	C 	0.22717 0.86983 0.28793 -0.22800
C 	C 	0.29197 0.91023 0.24483 0.41000
C 	C 	0.50037 0.00783 0.41293 0.12000
C 	C 	0.44187 0.98483 0.45843 -0.03800
H 	H 	0.40367 0.97333 0.43333 0.04100
O 	O 	0.50087 0.01623 0.32783 -0.73100
O 	O 	0.34387 0.92473 0.28713 -0.50500
O 	O 	0.59737 0.96793 0.16363 -0.66900
Zn	Zn	0.54349 0.96750 0.25869 1.02300
C 	C 	0.89383 0.20317 0.62127 -0.24100
C 	C 	0.95863 0.24357 0.57817 0.45700
C 	C 	0.16703 0.34117 0.74627 0.21500
C 	C 	0.10853 0.31817 0.79177 -0.17000
H 	H 	0.07033 0.30667 0.76667 0.07200
O 	O 	0.16753 0.34957 0.66117 -0.73900
O 	O 	0.01053 0.25807 0.62047 -0.56200
O 	O 	0.26403 0.30127 0.49697 -0.67700
Zn	Zn	0.21015 0.30084 0.59203 1.01000
C 	C 	0.46350 0.02400 0.95460 -0.17300
C 	C 	0.42310 0.04840 0.91150 0.38500
C 	C 	0.32550 0.15920 0.07960 0.21000
C 	C 	0.34850 0.12370 0.12510 -0.16000
H 	H 	0.36000 0.09700 0.10000 0.07000
O 	O 	0.31710 0.15130 0.99450 -0.74100
O 	O 	0.40860 0.08580 0.95380 -0.51800
O 	O 	0.36540 0.29610 0.83030 -0.67600
Zn	Zn	0.36583 0.24265 0.92536 1.01200
C 	C 	0.13017 0.35733 0.28793 -0.23600
C 	C 	0.08977 0.38173 0.24483 0.41100
C 	C 	0.99217 0.49253 0.41293 0.30600
C 	C 	0.01517 0.45703 0.45843 -0.28100
H 	H 	0.02667 0.43033 0.43333 0.11200
O 	O 	0.98377 0.48463 0.32783 -0.73700
O 	O 	0.07527 0.41913 0.28713 -0.53000
O 	O 	0.03207 0.62943 0.16363 -0.68200
Zn	Zn	0.03250 0.57598 0.25869 1.00000
C 	C 	0.79683 0.69067 0.62127 -0.22900
C 	C 	0.75643 0.71507 0.57817 0.41200
C 	C 	0.65883 0.82587 0.74627 0.21300
C 	C 	0.68183 0.79037 0.79177 -0.15600
H 	H 	0.69333 0.76367 0.76667 0.07600
O 	O 	0.65043 0.81797 0.66117 -0.73400
O 	O 	0.74193 0.75247 0.62047 -0.51500
O 	O 	0.69873 0.96277 0.49697 -0.67000
Zn	Zn	0.69916 0.90932 0.59203 1.01600
C 	C 	0.97600 0.43950 0.95460 -0.29100
C 	C 	0.95160 0.37470 0.91150 0.43700
C 	C 	0.84080 0.16630 0.07960 0.21400
C 	C 	0.87630 0.22480 0.12510 -0.16000
H 	H 	0.90300 0.26300 0.10000 0.08200
O 	O 	0.84870 0.16580 0.99450 -0.73700
O 	O 	0.91420 0.32280 0.95380 -0.52300
O 	O 	0.70390 0.06930 0.83030 -0.68600
Zn	Zn	0.75735 0.12318 0.92536 1.01000
C 	C 	0.64267 0.77283 0.28793 -0.22600
C 	C 	0.61827 0.70803 0.24483 0.41000
C 	C 	0.50747 0.49963 0.41293 0.21400
C 	C 	0.54297 0.55813 0.45843 -0.16000
H 	H 	0.56967 0.59633 0.43333 0.07600
O 	O 	0.51537 0.49913 0.32783 -0.73600
O 	O 	0.58087 0.65613 0.28713 -0.51900
O 	O 	0.37057 0.40263 0.16363 -0.67500
Zn	Zn	0.42402 0.45651 0.25869 1.01200
C 	C 	0.30933 0.10617 0.62127 -0.22000
C 	C 	0.28493 0.04137 0.57817 0.36100
C 	C 	0.17413 0.83297 0.74627 0.21100
C 	C 	0.20963 0.89147 0.79177 -0.15100
H 	H 	0.23633 0.92967 0.76667 0.08000
O 	O 	0.18203 0.83247 0.66117 -0.73600
O 	O 	0.24753 0.98947 0.62047 -0.48000
O 	O 	0.03723 0.73597 0.49697 -0.67800
Zn	Zn	0.09068 0.78985 0.59203 1.01000
C 	C 	0.53650 0.56050 0.54540 -0.23000
C 	C 	0.57690 0.62530 0.58850 0.41000
C 	C 	0.67450 0.83370 0.42040 0.22100
C 	C 	0.65150 0.77520 0.37490 -0.16300
H 	H 	0.64000 0.73700 0.40000 0.07800
O 	O 	0.68290 0.83420 0.50550 -0.73500
O 	O 	0.59140 0.67720 0.54620 -0.51900
O 	O 	0.63460 0.93070 0.66970 -0.66200
Zn	Zn	0.63417 0.87682 0.57464 1.01300
C 	C 	0.20317 0.89383 0.87873 -0.24200
C 	C 	0.24357 0.95863 0.92183 0.45900
C 	C 	0.34117 0.16703 0.75373 0.21500
C 	C 	0.31817 0.10853 0.70823 -0.17100
H 	H 	0.30667 0.07033 0.73333 0.07200
O 	O 	0.34957 0.16753 0.83883 -0.73900
O 	O 	0.25807 0.01053 0.87953 -0.56300
O 	O 	0.30127 0.26403 0.00303 -0.67700
Zn	Zn	0.30084 0.21015 0.90797 1.01000
C 	C 	0.86983 0.22717 0.21207 -0.22600
C 	C 	0.91023 0.29197 0.25517 0.40900
C 	C 	0.00783 0.50037 0.08707 0.12000
C 	C 	0.98483 0.44187 0.04157 -0.03500
H 	H 	0.97333 0.40367 0.06667 0.04000
O 	O 	0.01623 0.50087 0.17217 -0.73100
O 	O 	0.92473 0.34387 0.21287 -0.50400
O 	O 	0.96793 0.59737 0.33637 -0.66900
Zn	Zn	0.96750 0.54349 0.24131 1.02400
C 	C 	0.02400 0.46350 0.54540 -0.17000
C 	C 	0.04840 0.42310 0.58850 0.38400
C 	C 	0.15920 0.32550 0.42040 0.20900
C 	C 	0.12370 0.34850 0.37490 -0.15900
H 	H 	0.09700 0.36000 0.40000 0.07000
O 	O 	0.15130 0.31710 0.50550 -0.74000
O 	O 	0.08580 0.40860 0.54620 -0.51800
O 	O 	0.29610 0.36540 0.66970 -0.67600
Zn	Zn	0.24265 0.36583 0.57464 1.01200
C 	C 	0.69067 0.79683 0.87873 -0.22900
C 	C 	0.71507 0.75643 0.92183 0.41200
C 	C 	0.82587 0.65883 0.75373 0.21400
C 	C 	0.79037 0.68183 0.70823 -0.15700
H 	H 	0.76367 0.69333 0.73333 0.07700
O 	O 	0.81797 0.65043 0.83883 -0.73500
O 	O 	0.75247 0.74193 0.87953 -0.51500
O 	O 	0.96277 0.69873 0.00303 -0.67100
Zn	Zn	0.90932 0.69916 0.90797 1.01600
C 	C 	0.35733 0.13017 0.21207 -0.23600
C 	C 	0.38173 0.08977 0.25517 0.41100
C 	C 	0.49253 0.99217 0.08707 0.30300
C 	C 	0.45703 0.01517 0.04157 -0.27500
H 	H 	0.43033 0.02667 0.06667 0.11000
O 	O 	0.48463 0.98377 0.17217 -0.73700
O 	O 	0.41913 0.07527 0.21287 -0.52900
O 	O 	0.62943 0.03207 0.33637 -0.68100
Zn	Zn	0.57598 0.03250 0.24131 1.00100
C 	C 	0.43950 0.97600 0.54540 -0.29000
C 	C 	0.37470 0.95160 0.58850 0.43600
C 	C 	0.16630 0.84080 0.42040 0.21000
C 	C 	0.22480 0.87630 0.37490 -0.15800
H 	H 	0.26300 0.90300 0.40000 0.08100
O 	O 	0.16580 0.84870 0.50550 -0.73400
O 	O 	0.32280 0.91420 0.54620 -0.52100
O 	O 	0.06930 0.70390 0.66970 -0.68500
Zn	Zn	0.12318 0.75735 0.57464 1.01100
C 	C 	0.10617 0.30933 0.87873 -0.22100
C 	C 	0.04137 0.28493 0.92183 0.36400
C 	C 	0.83297 0.17413 0.75373 0.21100
C 	C 	0.89147 0.20963 0.70823 -0.15200
H 	H 	0.92967 0.23633 0.73333 0.08100
O 	O 	0.83247 0.18203 0.83883 -0.73600
O 	O 	0.98947 0.24753 0.87953 -0.48300
O 	O 	0.73597 0.03723 0.00303 -0.67800
Zn	Zn	0.78985 0.09068 0.90797 1.00900
C 	C 	0.77283 0.64267 0.21207 -0.22600
C 	C 	0.70803 0.61827 0.25517 0.40900
C 	C 	0.49963 0.50747 0.08707 0.21400
C 	C 	0.55813 0.54297 0.04157 -0.16000
H 	H 	0.59633 0.56967 0.06667 0.07600
O 	O 	0.49913 0.51537 0.17217 -0.73700
O 	O 	0.65613 0.58087 0.21287 -0.51900
O 	O 	0.40263 0.37057 0.33637 -0.67500
Zn	Zn	0.45651 0.42402 0.24131 1.01200
Zn	Zn	0.23820 0.33333 0.08333 1.21800
Zn	Zn	0.66667 0.90486 0.08333 1.22000
Zn	Zn	0.33333 0.23820 0.41667 1.21800
Zn	Zn	0.09514 0.76180 0.08333 1.21700
Zn	Zn	0.42847 0.42847 0.75000 1.21900
Zn	Zn	0.00000 0.57153 0.75000 1.20700
Zn	Zn	0.90486 0.66667 0.41667 1.22000
Zn	Zn	0.57153 0.00000 0.75000 1.20600
Zn	Zn	0.76180 0.09514 0.41667 1.21700
Zn	Zn	0.76180 0.66667 0.91667 1.21900
Zn	Zn	0.42847 0.00000 0.25000 1.20700
Zn	Zn	0.09514 0.33333 0.58333 1.21700
Zn	Zn	0.33333 0.09514 0.91667 1.21700
Zn	Zn	0.00000 0.42847 0.25000 1.20700
Zn	Zn	0.90486 0.23820 0.91667 1.22000
Zn	Zn	0.57153 0.57153 0.25000 1.21900
Zn	Zn	0.66667 0.76180 0.58333 1.21900
Zn	Zn	0.23820 0.90486 0.58333 1.22000
