data_crystal

_cell_length_a 22.52000
_cell_length_b 11.77870
_cell_length_c 11.61280
_cell_angle_alpha 90.00000
_cell_angle_beta  95.56000
_cell_angle_gamma 90.00000

_symmetry_space_group_name_	'P 1'
_symmetry_space_group_name_H-M	'P 1'

loop_
_symmetry_equiv_pos_as_xyz
  x,y,z

loop_
_atom_site_label
_atom_site_type_symbol
_atom_site_fract_x
_atom_site_fract_y
_atom_site_fract_z
_atom_site_charge
N 	N 	0.22350 0.42670 0.50640 -0.11400
N 	N 	0.27290 0.26230 0.76020 -0.12500
O 	O 	0.44710 0.42630 0.57330 -0.56400
O 	O 	0.42970 0.44240 0.38330 -0.52800
O 	O 	0.05270 0.32180 0.72900 -0.36900
O 	O 	0.06220 0.16240 0.83410 -0.48200
C 	C 	0.41330 0.43430 0.48280 0.47300
C 	C 	0.26180 0.37570 0.58790 0.03700
C 	C 	0.32360 0.37870 0.58300 -0.01200
H 	H 	0.34900 0.34530 0.64130 0.02400
C 	C 	0.34670 0.43190 0.49070 -0.12900
C 	C 	0.30720 0.48280 0.40590 -0.00300
H 	H 	0.32110 0.51780 0.34190 0.03000
C 	C 	0.24660 0.47980 0.41960 0.01000
H 	H 	0.22060 0.51720 0.36510 0.03800
C 	C 	0.08370 0.24120 0.78110 0.33800
C 	C 	0.23430 0.31360 0.67870 0.06100
C 	C 	0.17260 0.30880 0.68510 -0.05700
H 	H 	0.14720 0.34760 0.63070 0.06700
C 	C 	0.14930 0.24820 0.76970 -0.05000
C 	C 	0.18910 0.19420 0.85460 -0.06000
H 	H 	0.17490 0.15250 0.91420 0.05700
C 	C 	0.25000 0.20560 0.84600 0.03400
H 	H 	0.27630 0.17210 0.90270 0.03000
H 	H 	0.01730 0.31270 0.73780 0.02200
N 	N 	0.72350 0.92670 0.50640 -0.11100
N 	N 	0.77290 0.76230 0.76020 -0.11900
O 	O 	0.94710 0.92630 0.57330 -0.49800
O 	O 	0.92970 0.94240 0.38330 -0.47600
O 	O 	0.55270 0.82180 0.72900 -0.43600
O 	O 	0.56220 0.66240 0.83410 -0.45800
C 	C 	0.91330 0.93430 0.48280 0.45900
C 	C 	0.76180 0.87570 0.58790 0.04300
C 	C 	0.82360 0.87870 0.58300 -0.02200
H 	H 	0.84900 0.84530 0.64130 0.03700
C 	C 	0.84670 0.93190 0.49070 -0.11200
C 	C 	0.80720 0.98280 0.40590 -0.01000
H 	H 	0.82110 0.01780 0.34190 0.03600
C 	C 	0.74660 0.97980 0.41960 0.01600
H 	H 	0.72060 0.01720 0.36510 0.04100
C 	C 	0.58370 0.74120 0.78110 0.38000
C 	C 	0.73430 0.81360 0.67870 0.06000
C 	C 	0.67260 0.80880 0.68510 -0.05200
H 	H 	0.64720 0.84760 0.63070 0.07700
C 	C 	0.64930 0.74820 0.76970 -0.05500
C 	C 	0.68910 0.69420 0.85460 -0.05500
H 	H 	0.67490 0.65250 0.91420 0.05600
C 	C 	0.75000 0.70560 0.84600 0.03200
H 	H 	0.77630 0.67210 0.90270 0.03400
H 	H 	0.51730 0.81270 0.73780 0.19900
N 	N 	0.77650 0.42670 0.99360 -0.10500
N 	N 	0.72710 0.26230 0.73980 -0.12300
O 	O 	0.55290 0.42630 0.92670 -0.56300
O 	O 	0.57030 0.44240 0.11670 -0.52700
O 	O 	0.94730 0.32180 0.77100 -0.50000
O 	O 	0.93780 0.16240 0.66590 -0.41800
C 	C 	0.58670 0.43430 0.01720 0.47400
C 	C 	0.73820 0.37570 0.91210 0.03800
C 	C 	0.67640 0.37870 0.91700 -0.01200
H 	H 	0.65100 0.34530 0.85870 0.02400
C 	C 	0.65330 0.43190 0.00930 -0.12900
C 	C 	0.69280 0.48280 0.09410 -0.00200
H 	H 	0.67890 0.51780 0.15810 0.03000
C 	C 	0.75340 0.47980 0.08040 0.01100
H 	H 	0.77940 0.51720 0.13490 0.04900
C 	C 	0.91630 0.24120 0.71890 0.41800
C 	C 	0.76570 0.31360 0.82130 0.06300
C 	C 	0.82740 0.30880 0.81490 -0.05000
H 	H 	0.85280 0.34760 0.86930 0.09000
C 	C 	0.85070 0.24820 0.73030 -0.05500
C 	C 	0.81090 0.19420 0.64540 -0.05200
H 	H 	0.82510 0.15250 0.58580 0.06000
C 	C 	0.75000 0.20560 0.65400 0.03300
H 	H 	0.72370 0.17210 0.59730 0.03000
H 	H 	0.98270 0.31270 0.76220 0.37600
N 	N 	0.27650 0.92670 0.99360 -0.11100
N 	N 	0.22710 0.76230 0.73980 -0.12700
O 	O 	0.05290 0.92630 0.92670 -0.60900
O 	O 	0.07030 0.94240 0.11670 -0.55700
O 	O 	0.44730 0.82180 0.77100 -0.43600
O 	O 	0.43780 0.66240 0.66590 -0.45700
C 	C 	0.08670 0.93430 0.01720 0.48200
C 	C 	0.23820 0.87570 0.91210 0.03600
C 	C 	0.17640 0.87870 0.91700 -0.01100
H 	H 	0.15100 0.84530 0.85870 0.01600
C 	C 	0.15330 0.93190 0.00930 -0.13500
C 	C 	0.19280 0.98280 0.09410 0.00300
H 	H 	0.17890 0.01780 0.15810 0.02500
C 	C 	0.25340 0.97980 0.08040 0.01600
H 	H 	0.27940 0.01720 0.13490 0.04000
C 	C 	0.41630 0.74120 0.71890 0.37900
C 	C 	0.26570 0.81360 0.82130 0.06200
C 	C 	0.32740 0.80880 0.81490 -0.05400
H 	H 	0.35280 0.84760 0.86930 0.07800
C 	C 	0.35070 0.74820 0.73030 -0.05400
C 	C 	0.31090 0.69420 0.64540 -0.05700
H 	H 	0.32510 0.65250 0.58580 0.05700
C 	C 	0.25000 0.70560 0.65400 0.03300
H 	H 	0.22370 0.67210 0.59730 0.02500
H 	H 	0.48270 0.81270 0.76220 0.19900
N 	N 	0.77650 0.57330 0.49360 -0.10400
N 	N 	0.72710 0.73770 0.23980 -0.12300
O 	O 	0.55290 0.57370 0.42670 -0.56300
O 	O 	0.57030 0.55760 0.61670 -0.52700
O 	O 	0.94730 0.67820 0.27100 -0.50100
O 	O 	0.93780 0.83760 0.16590 -0.41700
C 	C 	0.58670 0.56570 0.51720 0.47500
C 	C 	0.73820 0.62430 0.41210 0.03800
C 	C 	0.67640 0.62130 0.41700 -0.01100
H 	H 	0.65100 0.65470 0.35870 0.02400
C 	C 	0.65330 0.56810 0.50930 -0.12900
C 	C 	0.69280 0.51720 0.59410 -0.00100
H 	H 	0.67890 0.48220 0.65810 0.03000
C 	C 	0.75340 0.52020 0.58040 0.01000
H 	H 	0.77940 0.48280 0.63490 0.04900
C 	C 	0.91630 0.75880 0.21890 0.41800
C 	C 	0.76570 0.68640 0.32130 0.06300
C 	C 	0.82740 0.69120 0.31490 -0.05100
H 	H 	0.85280 0.65240 0.36930 0.09100
C 	C 	0.85070 0.75180 0.23030 -0.05500
C 	C 	0.81090 0.80580 0.14540 -0.05200
H 	H 	0.82510 0.84750 0.08580 0.06000
C 	C 	0.75000 0.79440 0.15400 0.03300
H 	H 	0.72370 0.82790 0.09730 0.03100
H 	H 	0.98270 0.68730 0.26220 0.37800
N 	N 	0.27650 0.07330 0.49360 -0.10700
N 	N 	0.22710 0.23770 0.23980 -0.12800
O 	O 	0.05290 0.07370 0.42670 -0.60600
O 	O 	0.07030 0.05760 0.61670 -0.55700
O 	O 	0.44730 0.17820 0.27100 -0.43500
O 	O 	0.43780 0.33760 0.16590 -0.45700
C 	C 	0.08670 0.06570 0.51720 0.47900
C 	C 	0.23820 0.12430 0.41210 0.03400
C 	C 	0.17640 0.12130 0.41700 -0.00500
H 	H 	0.15100 0.15470 0.35870 0.01400
C 	C 	0.15330 0.06810 0.50930 -0.13900
C 	C 	0.19280 0.01720 0.59410 0.00500
H 	H 	0.17890 0.98220 0.65810 0.02500
C 	C 	0.25340 0.02020 0.58040 0.00800
H 	H 	0.27940 0.98280 0.63490 0.04400
C 	C 	0.41630 0.25880 0.21890 0.37900
C 	C 	0.26570 0.18640 0.32130 0.06300
C 	C 	0.32740 0.19120 0.31490 -0.05400
H 	H 	0.35280 0.15240 0.36930 0.07800
C 	C 	0.35070 0.25180 0.23030 -0.05300
C 	C 	0.31090 0.30580 0.14540 -0.05700
H 	H 	0.32510 0.34750 0.08580 0.05700
C 	C 	0.25000 0.29440 0.15400 0.03300
H 	H 	0.22370 0.32790 0.09730 0.02400
H 	H 	0.48270 0.18730 0.26220 0.19900
N 	N 	0.22350 0.57330 0.00640 -0.11300
N 	N 	0.27290 0.73770 0.26020 -0.12400
O 	O 	0.44710 0.57370 0.07330 -0.56200
O 	O 	0.42970 0.55760 0.88330 -0.52700
O 	O 	0.05270 0.67820 0.22900 -0.36700
O 	O 	0.06220 0.83760 0.33410 -0.48200
C 	C 	0.41330 0.56570 0.98280 0.47300
C 	C 	0.26180 0.62430 0.08790 0.03700
C 	C 	0.32360 0.62130 0.08300 -0.01000
H 	H 	0.34900 0.65470 0.14130 0.02400
C 	C 	0.34670 0.56810 0.99070 -0.13000
C 	C 	0.30720 0.51720 0.90590 -0.00200
H 	H 	0.32110 0.48220 0.84190 0.03000
C 	C 	0.24660 0.52020 0.91960 0.00900
H 	H 	0.22060 0.48280 0.86510 0.03800
C 	C 	0.08370 0.75880 0.28110 0.33800
C 	C 	0.23430 0.68640 0.17870 0.06100
C 	C 	0.17260 0.69120 0.18510 -0.05700
H 	H 	0.14720 0.65240 0.13070 0.06700
C 	C 	0.14930 0.75180 0.26970 -0.05000
C 	C 	0.18910 0.80580 0.35460 -0.06000
H 	H 	0.17490 0.84750 0.41420 0.05600
C 	C 	0.25000 0.79440 0.34600 0.03400
H 	H 	0.27630 0.82790 0.40270 0.02900
H 	H 	0.01730 0.68730 0.23780 0.02100
N 	N 	0.72350 0.07330 0.00640 -0.11300
N 	N 	0.77290 0.23770 0.26020 -0.11900
O 	O 	0.94710 0.07370 0.07330 -0.49900
O 	O 	0.92970 0.05760 0.88330 -0.47600
O 	O 	0.55270 0.17820 0.22900 -0.43600
O 	O 	0.56220 0.33760 0.33410 -0.45700
C 	C 	0.91330 0.06570 0.98280 0.45800
C 	C 	0.76180 0.12430 0.08790 0.04400
C 	C 	0.82360 0.12130 0.08300 -0.02500
H 	H 	0.84900 0.15470 0.14130 0.03800
C 	C 	0.84670 0.06810 0.99070 -0.11100
C 	C 	0.80720 0.01720 0.90590 -0.01000
H 	H 	0.82110 0.98220 0.84190 0.03500
C 	C 	0.74660 0.02020 0.91960 0.02100
H 	H 	0.72060 0.98280 0.86510 0.03800
C 	C 	0.58370 0.25880 0.28110 0.38000
C 	C 	0.73430 0.18640 0.17870 0.05900
C 	C 	0.67260 0.19120 0.18510 -0.05100
H 	H 	0.64720 0.15240 0.13070 0.07700
C 	C 	0.64930 0.25180 0.26970 -0.05500
C 	C 	0.68910 0.30580 0.35460 -0.05400
H 	H 	0.67490 0.34750 0.41420 0.05700
C 	C 	0.75000 0.29440 0.34600 0.03200
H 	H 	0.77630 0.32790 0.40270 0.03600
H 	H 	0.51730 0.18730 0.23780 0.19900
Ce	Ce	0.50000 0.49408 0.75000 2.12700
Ce	Ce	0.00000 0.99408 0.75000 2.06900
Ce	Ce	0.50000 0.50592 0.25000 2.12700
Ce	Ce	0.00000 0.00592 0.25000 2.06900
