data_crystal

_cell_length_a 10.06100
_cell_length_b 11.72190
_cell_length_c 13.68910
_cell_angle_alpha 66.93400
_cell_angle_beta  87.18200
_cell_angle_gamma 76.25700

_symmetry_space_group_name_	'P 1'
_symmetry_space_group_name_H-M	'P 1'

loop_
_symmetry_equiv_pos_as_xyz
  x,y,z

loop_
_atom_site_label
_atom_site_type_symbol
_atom_site_fract_x
_atom_site_fract_y
_atom_site_fract_z
_atom_site_charge
Ce	Ce	0.23519 0.52848 0.50339 2.08900
N 	N 	0.45810 0.17740 0.01460 -0.11600
N 	N 	0.80450 0.00380 0.02020 -0.12300
N 	N 	0.15080 0.55780 0.00510 -0.11600
O 	O 	0.43520 0.44250 0.62440 -0.57700
O 	O 	0.65830 0.34520 0.65770 -0.54400
O 	O 	0.79180 0.69070 0.39260 -0.48500
O 	O 	0.59760 0.83700 0.37280 -0.30000
O 	O 	0.08060 0.51090 0.38380 -0.60800
O 	O 	0.89610 0.47200 0.33690 -0.53800
C 	C 	0.53620 0.36260 0.68620 0.40900
C 	C 	0.57840 0.14250 0.97550 0.04500
C 	C 	0.60860 0.20010 0.86980 -0.03400
H 	H 	0.69420 0.17340 0.84650 0.05500
C 	C 	0.51060 0.29640 0.80050 -0.09500
C 	C 	0.38210 0.33480 0.84060 -0.03700
H 	H 	0.31290 0.40040 0.79640 0.04400
C 	C 	0.36380 0.27230 0.94570 0.02900
H 	H 	0.27950 0.29750 0.97160 0.03400
C 	C 	0.70750 0.79470 0.33760 0.32500
C 	C 	0.68040 0.03210 0.05420 0.07100
C 	C 	0.64610 0.96650 0.15640 -0.06700
H 	H 	0.55760 0.98860 0.17720 0.07400
C 	C 	0.74220 0.86840 0.22760 -0.05100
C 	C 	0.87490 0.83680 0.19270 -0.05400
H 	H 	0.94390 0.77250 0.23830 0.04300
C 	C 	0.89800 0.90550 0.08780 0.03000
H 	H 	0.98340 0.88220 0.06260 0.03200
C 	C 	0.00920 0.49830 0.31910 0.46300
C 	C 	0.03620 0.51230 0.03960 0.04400
C 	C 	0.98980 0.49390 0.13790 -0.02500
H 	H 	0.90940 0.46620 0.15700 0.05300
C 	C 	0.06180 0.51630 0.21130 -0.12400
C 	C 	0.17850 0.56120 0.17700 -0.01700
H 	H 	0.22950 0.57920 0.22170 0.02100
C 	C 	0.21730 0.57900 0.07470 0.01400
H 	H 	0.29670 0.60720 0.05330 0.03500
Ce	Ce	0.76481 0.47152 0.49661 2.09000
N 	N 	0.54190 0.82260 0.98540 -0.11500
N 	N 	0.19550 0.99620 0.97980 -0.12300
N 	N 	0.84920 0.44220 0.99490 -0.11600
O 	O 	0.56480 0.55750 0.37560 -0.57700
O 	O 	0.34170 0.65480 0.34230 -0.54400
O 	O 	0.20820 0.30930 0.60740 -0.48500
O 	O 	0.40240 0.16300 0.62720 -0.30000
O 	O 	0.91940 0.48910 0.61620 -0.60800
O 	O 	0.10390 0.52800 0.66310 -0.53800
C 	C 	0.46380 0.63740 0.31380 0.40900
C 	C 	0.42160 0.85750 0.02450 0.04500
C 	C 	0.39140 0.79990 0.13020 -0.03400
H 	H 	0.30580 0.82660 0.15350 0.05500
C 	C 	0.48940 0.70360 0.19950 -0.09500
C 	C 	0.61790 0.66520 0.15940 -0.03700
H 	H 	0.68710 0.59960 0.20360 0.04400
C 	C 	0.63620 0.72770 0.05430 0.02900
H 	H 	0.72050 0.70250 0.02840 0.03400
C 	C 	0.29250 0.20530 0.66240 0.32500
C 	C 	0.31960 0.96790 0.94580 0.07100
C 	C 	0.35390 0.03350 0.84360 -0.06700
H 	H 	0.44240 0.01140 0.82280 0.07400
C 	C 	0.25780 0.13160 0.77240 -0.05100
C 	C 	0.12510 0.16320 0.80730 -0.05400
H 	H 	0.05610 0.22750 0.76170 0.04300
C 	C 	0.10200 0.09450 0.91220 0.03000
H 	H 	0.01660 0.11780 0.93740 0.03200
C 	C 	0.99080 0.50170 0.68090 0.46300
C 	C 	0.96380 0.48770 0.96040 0.04400
C 	C 	0.01020 0.50610 0.86210 -0.02500
H 	H 	0.09060 0.53380 0.84300 0.05300
C 	C 	0.93820 0.48370 0.78870 -0.12400
C 	C 	0.82150 0.43880 0.82300 -0.01700
H 	H 	0.77050 0.42080 0.77830 0.02100
C 	C 	0.78270 0.42100 0.92530 0.01400
H 	H 	0.70330 0.39280 0.94670 0.03500
