data_crystal

_cell_length_a 10.32870
_cell_length_b 11.73660
_cell_length_c 20.33540
_cell_angle_alpha 90.00000
_cell_angle_beta  90.00000
_cell_angle_gamma 90.00000

_symmetry_space_group_name_	'P 1'
_symmetry_space_group_name_H-M	'P 1'

loop_
_symmetry_equiv_pos_as_xyz
  x,y,z

loop_
_atom_site_label
_atom_site_type_symbol
_atom_site_fract_x
_atom_site_fract_y
_atom_site_fract_z
_atom_site_charge
Zn	Zn	0.96092 0.42088 0.50681 1.21200
Zn	Zn	0.64691 0.32501 0.51018 1.23700
O 	O 	0.84480 0.27080 0.50718 -0.55200
O 	O 	0.96270 0.12310 0.47352 -0.43700
O 	O 	0.62470 0.16070 0.49312 -0.57500
C 	C 	0.85810 0.17120 0.48392 0.31500
C 	C 	0.73460 0.10720 0.46520 0.12700
H 	H 	0.74040 0.02770 0.48260 -0.02800
C 	C 	0.72490 0.10190 0.39000 -0.51900
H 	H 	0.64640 0.06030 0.37750 0.16200
H 	H 	0.80100 0.06250 0.37230 0.17800
H 	H 	0.72120 0.17940 0.37220 0.16800
O 	O 	0.87650 0.45780 0.42154 -0.51100
O 	O 	0.66490 0.41540 0.42778 -0.48100
C 	C 	0.76530 0.44720 0.39811 0.39700
C 	C 	0.74990 0.47610 0.32630 -0.09500
C 	C 	0.85680 0.51090 0.29000 -0.01900
H 	H 	0.93880 0.51830 0.31070 0.03700
C 	C 	0.84370 0.53520 0.22320 -0.01200
H 	H 	0.91740 0.55710 0.19830 0.03900
C 	C 	0.72500 0.52760 0.19310 -0.10100
C 	C 	0.61730 0.49250 0.22900 -0.01100
H 	H 	0.53500 0.48680 0.20830 0.03300
C 	C 	0.63080 0.46570 0.29540 -0.02000
H 	H 	0.55780 0.44010 0.31960 0.04200
C 	C 	0.71190 0.55550 0.12110 0.40800
O 	O 	0.60530 0.53570 0.09471 -0.51200
O 	O 	0.81100 0.59620 0.09416 -0.48400
Zn	Zn	0.53908 0.57912 0.00681 1.21100
Zn	Zn	0.85309 0.67499 0.01018 1.23500
O 	O 	0.65520 0.72920 0.00718 -0.55400
O 	O 	0.53730 0.87690 0.97352 -0.43800
O 	O 	0.87530 0.83930 0.99312 -0.57400
C 	C 	0.64190 0.82880 0.98392 0.31600
C 	C 	0.76540 0.89280 0.96520 0.12600
H 	H 	0.75960 0.97230 0.98260 -0.02700
C 	C 	0.77510 0.89810 0.89000 -0.51900
H 	H 	0.85360 0.93970 0.87750 0.16300
H 	H 	0.69900 0.93750 0.87230 0.17800
H 	H 	0.77880 0.82060 0.87220 0.16900
O 	O 	0.62350 0.54220 0.92154 -0.51000
O 	O 	0.83510 0.58460 0.92778 -0.48000
C 	C 	0.73470 0.55280 0.89811 0.39700
C 	C 	0.75010 0.52390 0.82630 -0.09500
C 	C 	0.64320 0.48910 0.79000 -0.01900
H 	H 	0.56120 0.48170 0.81070 0.03800
C 	C 	0.65630 0.46480 0.72320 -0.01200
H 	H 	0.58260 0.44290 0.69830 0.04000
C 	C 	0.77500 0.47240 0.69310 -0.10000
C 	C 	0.88270 0.50750 0.72900 -0.01100
H 	H 	0.96500 0.51320 0.70830 0.03300
C 	C 	0.86920 0.53430 0.79540 -0.02000
H 	H 	0.94220 0.55990 0.81960 0.04200
C 	C 	0.78810 0.44450 0.62110 0.40800
O 	O 	0.89470 0.46430 0.59471 -0.51100
O 	O 	0.68900 0.40380 0.59416 -0.48200
Zn	Zn	0.03908 0.92088 0.99319 1.21000
Zn	Zn	0.35309 0.82501 0.98982 1.23600
O 	O 	0.15520 0.77080 0.99282 -0.55500
O 	O 	0.03730 0.62310 0.02648 -0.43600
O 	O 	0.37530 0.66070 0.00688 -0.57500
C 	C 	0.14190 0.67120 0.01608 0.31700
C 	C 	0.26540 0.60720 0.03480 0.12600
H 	H 	0.25960 0.52770 0.01740 -0.02700
C 	C 	0.27510 0.60190 0.11000 -0.51900
H 	H 	0.35360 0.56030 0.12250 0.16200
H 	H 	0.19900 0.56250 0.12770 0.17900
H 	H 	0.27880 0.67940 0.12780 0.16900
O 	O 	0.12350 0.95780 0.07846 -0.50800
O 	O 	0.33510 0.91540 0.07222 -0.48000
C 	C 	0.23470 0.94720 0.10189 0.39600
C 	C 	0.25010 0.97610 0.17370 -0.09200
C 	C 	0.14320 0.01090 0.21000 -0.02200
H 	H 	0.06120 0.01830 0.18930 0.03900
C 	C 	0.15630 0.03520 0.27680 -0.01000
H 	H 	0.08260 0.05710 0.30170 0.04000
C 	C 	0.27500 0.02760 0.30690 -0.10300
C 	C 	0.38270 0.99250 0.27100 -0.00800
H 	H 	0.46500 0.98680 0.29170 0.03200
C 	C 	0.36920 0.96570 0.20460 -0.02200
H 	H 	0.44220 0.94010 0.18040 0.04200
C 	C 	0.28810 0.05550 0.37890 0.40800
O 	O 	0.39470 0.03570 0.40529 -0.51200
O 	O 	0.18900 0.09620 0.40584 -0.48200
Zn	Zn	0.46092 0.07912 0.49319 1.21100
Zn	Zn	0.14691 0.17499 0.48982 1.23700
O 	O 	0.34480 0.22920 0.49282 -0.55300
O 	O 	0.46270 0.37690 0.52648 -0.43700
O 	O 	0.12470 0.33930 0.50688 -0.57600
C 	C 	0.35810 0.32880 0.51608 0.31400
C 	C 	0.23460 0.39280 0.53480 0.12600
H 	H 	0.24040 0.47230 0.51740 -0.02800
C 	C 	0.22490 0.39810 0.61000 -0.51900
H 	H 	0.14640 0.43970 0.62250 0.16200
H 	H 	0.30100 0.43750 0.62770 0.17800
H 	H 	0.22120 0.32060 0.62780 0.16900
O 	O 	0.37650 0.04220 0.57846 -0.51100
O 	O 	0.16490 0.08460 0.57222 -0.48100
C 	C 	0.26530 0.05280 0.60189 0.39700
C 	C 	0.24990 0.02390 0.67370 -0.09400
C 	C 	0.35680 0.98910 0.71000 -0.02100
H 	H 	0.43880 0.98170 0.68930 0.03800
C 	C 	0.34370 0.96480 0.77680 -0.01000
H 	H 	0.41740 0.94290 0.80170 0.03900
C 	C 	0.22500 0.97240 0.80690 -0.10300
C 	C 	0.11730 0.00750 0.77100 -0.00900
H 	H 	0.03500 0.01320 0.79170 0.03200
C 	C 	0.13080 0.03430 0.70460 -0.02200
H 	H 	0.05780 0.05990 0.68040 0.04200
C 	C 	0.21190 0.94450 0.87890 0.40800
O 	O 	0.10530 0.96430 0.90529 -0.51300
O 	O 	0.31100 0.90380 0.90584 -0.48300
