data_crystal

_cell_length_a 8.15300
_cell_length_b 13.68020
_cell_length_c 13.68020
_cell_angle_alpha 120.00000
_cell_angle_beta  90.00000
_cell_angle_gamma 90.00000

_symmetry_space_group_name_	'P 1'
_symmetry_space_group_name_H-M	'P 1'

loop_
_symmetry_equiv_pos_as_xyz
  x,y,z

loop_
_atom_site_label
_atom_site_type_symbol
_atom_site_fract_x
_atom_site_fract_y
_atom_site_fract_z
_atom_site_charge
Mn	Mn	0.20692 0.33427 0.03788 1.24200
Mn	Mn	0.20692 0.70361 0.66573 1.24300
Mn	Mn	0.20692 0.96212 0.29639 1.24200
Mn	Mn	0.70692 0.66573 0.96212 1.26000
Mn	Mn	0.70692 0.29639 0.33427 1.26000
Mn	Mn	0.70692 0.03788 0.70361 1.25900
Cr	Cr	0.58960 0.66667 0.33334 1.46300
Cr	Cr	0.08960 0.33333 0.66666 1.42900
H 	H 	0.60950 0.25430 0.84810 0.08600
H 	H 	0.60580 0.19720 0.91420 0.13100
H 	H 	0.86920 0.28580 0.86600 0.06000
H 	H 	0.72410 0.39540 0.04340 0.01300
H 	H 	0.81630 0.32040 0.08280 0.03200
H 	H 	0.96020 0.48020 0.13320 0.10700
H 	H 	0.96860 0.45660 0.01720 0.11000
H 	H 	0.60950 0.59380 0.74570 0.08600
H 	H 	0.60580 0.71700 0.80280 0.13100
H 	H 	0.86920 0.58020 0.71420 0.06100
H 	H 	0.72410 0.64800 0.60460 0.01300
H 	H 	0.81630 0.76240 0.67960 0.03200
H 	H 	0.96020 0.65300 0.51980 0.10700
H 	H 	0.96860 0.56060 0.54340 0.10900
H 	H 	0.60950 0.15190 0.40620 0.08600
H 	H 	0.60580 0.08580 0.28300 0.13100
H 	H 	0.86920 0.13400 0.41980 0.06100
H 	H 	0.72410 0.95660 0.35200 0.01300
H 	H 	0.81630 0.91720 0.23760 0.03200
H 	H 	0.96020 0.86680 0.34700 0.10700
H 	H 	0.96860 0.98280 0.43940 0.11000
H 	H 	0.10950 0.74570 0.15190 0.05400
H 	H 	0.10580 0.80280 0.08580 0.10200
H 	H 	0.36920 0.71420 0.13400 0.04200
H 	H 	0.22410 0.60460 0.95660 -0.00100
H 	H 	0.31630 0.67960 0.91720 0.01700
H 	H 	0.46020 0.51980 0.86680 0.08400
H 	H 	0.46860 0.54340 0.98280 0.08900
H 	H 	0.10950 0.40620 0.25430 0.05500
H 	H 	0.10580 0.28300 0.19720 0.10400
H 	H 	0.36920 0.41980 0.28580 0.04100
H 	H 	0.22410 0.35200 0.39540 -0.00100
H 	H 	0.31630 0.23760 0.32040 0.01700
H 	H 	0.46020 0.34700 0.48020 0.08400
H 	H 	0.46860 0.43940 0.45660 0.08800
H 	H 	0.10950 0.84810 0.59380 0.05400
H 	H 	0.10580 0.91420 0.71700 0.10400
H 	H 	0.36920 0.86600 0.58020 0.04200
H 	H 	0.22410 0.04340 0.64800 0.00000
H 	H 	0.31630 0.08280 0.76240 0.01700
H 	H 	0.46020 0.13320 0.65300 0.08400
H 	H 	0.46860 0.01720 0.56060 0.08900
C 	C 	0.43910 0.55660 0.20260 -0.27600
C 	C 	0.82660 0.25410 0.91120 -0.18100
C 	C 	0.82210 0.35070 0.03220 0.00700
C 	C 	0.72110 0.67950 0.20980 -0.26800
C 	C 	0.94480 0.15860 0.89200 0.45400
C 	C 	0.43910 0.64600 0.44340 -0.27600
C 	C 	0.82660 0.65710 0.74590 -0.18200
C 	C 	0.82210 0.68150 0.64930 0.00600
C 	C 	0.72110 0.53030 0.32050 -0.26800
C 	C 	0.94480 0.73340 0.84140 0.46400
C 	C 	0.43910 0.79740 0.35400 -0.27700
C 	C 	0.82660 0.08880 0.34290 -0.18300
C 	C 	0.82210 0.96780 0.31850 0.00800
C 	C 	0.72110 0.79020 0.46970 -0.26800
C 	C 	0.94480 0.10800 0.26660 0.46200
C 	C 	0.93910 0.44340 0.79740 -0.22300
C 	C 	0.32660 0.74590 0.08880 -0.16100
C 	C 	0.32210 0.64930 0.96780 -0.00600
C 	C 	0.22110 0.32050 0.79020 -0.31100
C 	C 	0.44480 0.84140 0.10800 0.34900
C 	C 	0.93910 0.35400 0.55660 -0.22300
C 	C 	0.32660 0.34290 0.25410 -0.15800
C 	C 	0.32210 0.31850 0.35070 -0.00900
C 	C 	0.22110 0.46970 0.67950 -0.31200
C 	C 	0.44480 0.26660 0.15860 0.34800
C 	C 	0.93910 0.20260 0.64600 -0.22400
C 	C 	0.32660 0.91120 0.65710 -0.16100
C 	C 	0.32210 0.03220 0.68150 -0.00600
C 	C 	0.22110 0.20980 0.53030 -0.31100
C 	C 	0.44480 0.89200 0.73340 0.34800
N 	N 	0.66470 0.20710 0.86420 -0.31000
N 	N 	0.35360 0.49550 0.12940 -0.19600
N 	N 	0.76880 0.68040 0.12990 -0.17300
N 	N 	0.96820 0.42450 0.06080 -0.33100
N 	N 	0.66470 0.65710 0.79290 -0.31000
N 	N 	0.35360 0.63390 0.50450 -0.19600
N 	N 	0.76880 0.44950 0.31960 -0.17400
N 	N 	0.96820 0.63630 0.57550 -0.33100
N 	N 	0.66470 0.13580 0.34290 -0.30900
N 	N 	0.35360 0.87060 0.36610 -0.19600
N 	N 	0.76880 0.87010 0.55050 -0.17300
N 	N 	0.96820 0.93920 0.36370 -0.33000
N 	N 	0.16470 0.79290 0.13580 -0.30400
N 	N 	0.85360 0.50450 0.87060 -0.19000
N 	N 	0.26880 0.31960 0.87010 -0.18700
N 	N 	0.46820 0.57550 0.93920 -0.34100
N 	N 	0.16470 0.34290 0.20710 -0.30400
N 	N 	0.85360 0.36610 0.49550 -0.19000
N 	N 	0.26880 0.55050 0.68040 -0.18700
N 	N 	0.46820 0.36370 0.42450 -0.34000
N 	N 	0.16470 0.86420 0.65710 -0.30400
N 	N 	0.85360 0.12940 0.63390 -0.19000
N 	N 	0.26880 0.12990 0.44950 -0.18700
N 	N 	0.46820 0.06080 0.63630 -0.34100
O 	O 	0.06640 0.17970 0.95220 -0.50700
O 	O 	0.91030 0.05770 0.81310 -0.40700
O 	O 	0.06640 0.77250 0.82030 -0.51600
O 	O 	0.91030 0.75540 0.94230 -0.40700
O 	O 	0.06640 0.04780 0.22750 -0.51400
O 	O 	0.91030 0.18690 0.24460 -0.40600
O 	O 	0.56640 0.82030 0.04780 -0.41600
O 	O 	0.41030 0.94230 0.18690 -0.41500
O 	O 	0.56640 0.22750 0.17970 -0.41600
O 	O 	0.41030 0.24460 0.05770 -0.41500
O 	O 	0.56640 0.95220 0.77250 -0.41600
O 	O 	0.41030 0.81310 0.75540 -0.41400
