data_crystal

_cell_length_a 13.62060
_cell_length_b 13.62060
_cell_length_c 8.17510
_cell_angle_alpha 90.00000
_cell_angle_beta  90.00000
_cell_angle_gamma 120.00000

_symmetry_space_group_name_	'P 1'
_symmetry_space_group_name_H-M	'P 1'

loop_
_symmetry_equiv_pos_as_xyz
  x,y,z

loop_
_atom_site_label
_atom_site_type_symbol
_atom_site_fract_x
_atom_site_fract_y
_atom_site_fract_z
_atom_site_charge
Mn	Mn	0.29561 0.33426 0.54383 1.25800
O 	O 	0.22820 0.18040 0.40510 -0.42000
C 	C 	0.53030 0.32170 0.55370 -0.27900
C 	C 	0.35430 0.55610 0.77550 -0.26700
O 	O 	0.24430 0.05870 0.24650 -0.42000
C 	C 	0.26700 0.15880 0.28020 0.35000
N 	N 	0.34480 0.21010 0.00420 -0.32900
H 	H 	0.40890 0.25780 0.95050 0.09800
H 	H 	0.28520 0.20130 0.94510 0.14100
C 	C 	0.34400 0.25500 0.16720 -0.15400
H 	H 	0.42100 0.28680 0.21080 0.04200
N 	N 	0.36310 0.42510 0.30700 -0.34000
H 	H 	0.34650 0.48110 0.29950 0.08400
H 	H 	0.43910 0.45740 0.30760 0.08900
C 	C 	0.31850 0.35230 0.16100 -0.01800
H 	H 	0.35250 0.39750 0.06370 0.01700
H 	H 	0.23720 0.32160 0.15460 0.02300
N 	N 	0.44990 0.31930 0.60350 -0.18000
N 	N 	0.36600 0.49540 0.69160 -0.18600
Mn	Mn	0.66574 0.96135 0.54383 1.25800
O 	O 	0.81960 0.04780 0.40510 -0.41900
C 	C 	0.67830 0.20860 0.55370 -0.27800
C 	C 	0.44390 0.79820 0.77550 -0.26700
O 	O 	0.94130 0.18560 0.24650 -0.42000
C 	C 	0.84120 0.10820 0.28020 0.35000
N 	N 	0.78990 0.13470 0.00420 -0.33300
H 	H 	0.74220 0.15110 0.95050 0.10000
H 	H 	0.79870 0.08390 0.94510 0.14400
C 	C 	0.74500 0.08900 0.16720 -0.15500
H 	H 	0.71320 0.13420 0.21080 0.04200
N 	N 	0.57490 0.93800 0.30700 -0.34000
H 	H 	0.51890 0.86540 0.29950 0.08400
H 	H 	0.54260 0.98170 0.30760 0.09000
C 	C 	0.64770 0.96620 0.16100 -0.01700
H 	H 	0.60250 0.95500 0.06370 0.01600
H 	H 	0.67840 0.91560 0.15460 0.02300
N 	N 	0.68070 0.13060 0.60350 -0.18000
N 	N 	0.50460 0.87060 0.69160 -0.18600
Mn	Mn	0.03865 0.70439 0.54383 1.25800
O 	O 	0.95220 0.77180 0.40510 -0.41800
C 	C 	0.79140 0.46970 0.55370 -0.27800
C 	C 	0.20180 0.64570 0.77550 -0.26700
O 	O 	0.81440 0.75570 0.24650 -0.41900
C 	C 	0.89180 0.73300 0.28020 0.35000
N 	N 	0.86530 0.65520 0.00420 -0.33000
H 	H 	0.84890 0.59110 0.95050 0.09800
H 	H 	0.91610 0.71480 0.94510 0.14100
C 	C 	0.91100 0.65600 0.16720 -0.15500
H 	H 	0.86580 0.57900 0.21080 0.04200
N 	N 	0.06200 0.63690 0.30700 -0.34000
H 	H 	0.13460 0.65350 0.29950 0.08400
H 	H 	0.01830 0.56090 0.30760 0.08900
C 	C 	0.03380 0.68150 0.16100 -0.01700
H 	H 	0.04500 0.64750 0.06370 0.01700
H 	H 	0.08440 0.76280 0.15460 0.02400
N 	N 	0.86940 0.55010 0.60350 -0.18000
N 	N 	0.12940 0.63400 0.69160 -0.18600
Mn	Mn	0.70439 0.66574 0.04383 1.25500
O 	O 	0.77180 0.81960 0.90510 -0.41400
C 	C 	0.46970 0.67830 0.05370 -0.28400
C 	C 	0.64570 0.44390 0.27550 -0.27100
O 	O 	0.75570 0.94130 0.74650 -0.41800
C 	C 	0.73300 0.84120 0.78020 0.35100
N 	N 	0.65520 0.78990 0.50420 -0.31200
H 	H 	0.59110 0.74220 0.45050 0.08600
H 	H 	0.71480 0.79870 0.44510 0.12900
C 	C 	0.65600 0.74500 0.66720 -0.15500
H 	H 	0.57900 0.71320 0.71080 0.04400
N 	N 	0.63690 0.57490 0.80700 -0.33900
H 	H 	0.65350 0.51890 0.79950 0.08600
H 	H 	0.56090 0.54260 0.80760 0.09200
C 	C 	0.68150 0.64770 0.66100 -0.01800
H 	H 	0.64750 0.60250 0.56370 0.02000
H 	H 	0.76280 0.67840 0.65460 0.02600
N 	N 	0.55010 0.68070 0.10350 -0.18100
N 	N 	0.63400 0.50460 0.19160 -0.18700
Mn	Mn	0.33426 0.03865 0.04383 1.25500
O 	O 	0.18040 0.95220 0.90510 -0.41600
C 	C 	0.32170 0.79140 0.05370 -0.28300
C 	C 	0.55610 0.20180 0.27550 -0.27100
O 	O 	0.05870 0.81440 0.74650 -0.41900
C 	C 	0.15880 0.89180 0.78020 0.35100
N 	N 	0.21010 0.86530 0.50420 -0.31100
H 	H 	0.25780 0.84890 0.45050 0.08600
H 	H 	0.20130 0.91610 0.44510 0.12900
C 	C 	0.25500 0.91100 0.66720 -0.15700
H 	H 	0.28680 0.86580 0.71080 0.04500
N 	N 	0.42510 0.06200 0.80700 -0.33900
H 	H 	0.48110 0.13460 0.79950 0.08600
H 	H 	0.45740 0.01830 0.80760 0.09200
C 	C 	0.35230 0.03380 0.66100 -0.01500
H 	H 	0.39750 0.04500 0.56370 0.01900
H 	H 	0.32160 0.08440 0.65460 0.02500
N 	N 	0.31930 0.86940 0.10350 -0.18000
N 	N 	0.49540 0.12940 0.19160 -0.18800
Mn	Mn	0.96135 0.29561 0.04383 1.25400
O 	O 	0.04780 0.22820 0.90510 -0.41400
C 	C 	0.20860 0.53030 0.05370 -0.28300
C 	C 	0.79820 0.35430 0.27550 -0.27100
O 	O 	0.18560 0.24430 0.74650 -0.41700
C 	C 	0.10820 0.26700 0.78020 0.35100
N 	N 	0.13470 0.34480 0.50420 -0.31100
H 	H 	0.15110 0.40890 0.45050 0.08600
H 	H 	0.08390 0.28520 0.44510 0.12900
C 	C 	0.08900 0.34400 0.66720 -0.15600
H 	H 	0.13420 0.42100 0.71080 0.04500
N 	N 	0.93800 0.36310 0.80700 -0.33900
H 	H 	0.86540 0.34650 0.79950 0.08600
H 	H 	0.98170 0.43910 0.80760 0.09200
C 	C 	0.96620 0.31850 0.66100 -0.01500
H 	H 	0.95500 0.35250 0.56370 0.01900
H 	H 	0.91560 0.23720 0.65460 0.02500
N 	N 	0.13060 0.44990 0.10350 -0.18100
N 	N 	0.87060 0.36600 0.19160 -0.18800
Cr	Cr	0.33333 0.66667 0.92457 1.46900
Cr	Cr	0.66667 0.33333 0.42457 1.46600
