data_crystal

_cell_length_a 10.64700
_cell_length_b 11.47200
_cell_length_c 11.76400
_cell_angle_alpha 104.77800
_cell_angle_beta  106.93500
_cell_angle_gamma 95.96400

_symmetry_space_group_name_	'P 1'
_symmetry_space_group_name_H-M	'P 1'

loop_
_symmetry_equiv_pos_as_xyz
  x,y,z

loop_
_atom_site_label
_atom_site_type_symbol
_atom_site_fract_x
_atom_site_fract_y
_atom_site_fract_z
_atom_site_charge
Eu	Eu	0.89950 0.43986 0.12103 1.96700
O 	O 	0.74365 0.48339 0.22255 -0.49400
O 	O 	0.80361 0.51520 0.42781 -0.30000
O 	O 	0.05140 0.74347 0.80611 -0.47800
O 	O 	0.17560 0.91506 0.95240 -0.41100
H 	H 	0.23160 0.86360 0.97880 0.17600
O 	O 	0.90732 0.28804 0.94236 -0.51000
O 	O 	0.03835 0.34681 0.84042 -0.52500
O 	O 	0.12036 0.45979 0.12928 -0.55200
O 	O 	0.26526 0.51221 0.04001 -0.48900
C 	C 	0.71980 0.47840 0.32130 0.39900
C 	C 	0.57660 0.42810 0.30430 -0.17500
C 	C 	0.54130 0.35170 0.37130 0.10700
C 	C 	0.40640 0.31970 0.35700 -0.17300
H 	H 	0.38230 0.27070 0.40210 0.09800
C 	C 	0.30740 0.35850 0.27800 0.12100
H 	H 	0.21850 0.33770 0.27230 -0.00200
C 	C 	0.34130 0.42880 0.20690 -0.20900
C 	C 	0.47540 0.46200 0.22070 0.11700
H 	H 	0.49840 0.50830 0.17280 0.01000
C 	C 	0.23480 0.46970 0.11930 0.49700
C 	C 	0.63890 0.29700 0.45100 -0.01100
C 	C 	0.72730 0.23210 0.40640 -0.03500
H 	H 	0.73510 0.23250 0.32980 0.03900
C 	C 	0.80370 0.16680 0.47540 -0.04900
H 	H 	0.85970 0.12160 0.44310 0.05100
C 	C 	0.79740 0.16830 0.59260 -0.02000
C 	C 	0.71480 0.23820 0.63960 -0.03800
H 	H 	0.71290 0.24400 0.71930 0.04300
C 	C 	0.63480 0.29950 0.56850 -0.05200
H 	H 	0.57740 0.34320 0.60030 0.05300
C 	C 	0.87170 0.09050 0.66200 0.11600
C 	C 	0.86110 0.96610 0.60050 -0.17400
H 	H 	0.80910 0.93420 0.51690 0.09400
C 	C 	0.92590 0.88980 0.66140 0.10400
H 	H 	0.91680 0.80740 0.61900 0.00700
C 	C 	0.00470 0.93680 0.78590 -0.18600
C 	C 	0.01390 0.05920 0.84910 0.12400
H 	H 	0.06450 0.09010 0.93320 0.00900
C 	C 	0.94870 0.13630 0.78850 -0.19300
C 	C 	0.96580 0.26874 0.86280 0.51000
C 	C 	0.07810 0.85530 0.84890 0.43400
Eu	Eu	0.10050 0.56014 0.87897 1.96700
O 	O 	0.25635 0.51661 0.77745 -0.49400
O 	O 	0.19639 0.48480 0.57219 -0.30000
O 	O 	0.94860 0.25653 0.19389 -0.47800
O 	O 	0.82440 0.08494 0.04760 -0.41100
H 	H 	0.76840 0.13640 0.02120 0.17600
O 	O 	0.09268 0.71196 0.05764 -0.51000
O 	O 	0.96165 0.65319 0.15958 -0.52500
O 	O 	0.87964 0.54021 0.87072 -0.55200
O 	O 	0.73474 0.48779 0.95999 -0.48900
C 	C 	0.28020 0.52160 0.67870 0.39900
C 	C 	0.42340 0.57190 0.69570 -0.17500
C 	C 	0.45870 0.64830 0.62870 0.10700
C 	C 	0.59360 0.68030 0.64300 -0.17300
H 	H 	0.61770 0.72930 0.59790 0.09800
C 	C 	0.69260 0.64150 0.72200 0.12100
H 	H 	0.78150 0.66230 0.72770 -0.00200
C 	C 	0.65870 0.57120 0.79310 -0.20900
C 	C 	0.52460 0.53800 0.77930 0.11700
H 	H 	0.50160 0.49170 0.82720 0.01000
C 	C 	0.76520 0.53030 0.88070 0.49700
C 	C 	0.36110 0.70300 0.54900 -0.01100
C 	C 	0.27270 0.76790 0.59360 -0.03500
H 	H 	0.26490 0.76750 0.67020 0.03900
C 	C 	0.19630 0.83320 0.52460 -0.04900
H 	H 	0.14030 0.87840 0.55690 0.05100
C 	C 	0.20260 0.83170 0.40740 -0.02000
C 	C 	0.28520 0.76180 0.36040 -0.03800
H 	H 	0.28710 0.75600 0.28070 0.04300
C 	C 	0.36520 0.70050 0.43150 -0.05200
H 	H 	0.42260 0.65680 0.39970 0.05300
C 	C 	0.12830 0.90950 0.33800 0.11600
C 	C 	0.13890 0.03390 0.39950 -0.17400
H 	H 	0.19090 0.06580 0.48310 0.09400
C 	C 	0.07410 0.11020 0.33860 0.10400
H 	H 	0.08320 0.19260 0.38100 0.00700
C 	C 	0.99530 0.06320 0.21410 -0.18600
C 	C 	0.98610 0.94080 0.15090 0.12400
H 	H 	0.93550 0.90990 0.06680 0.00900
C 	C 	0.05130 0.86370 0.21150 -0.19300
C 	C 	0.03420 0.73126 0.13720 0.51000
C 	C 	0.92190 0.14470 0.15110 0.43400
