data_crystal

_cell_length_a 10.55900
_cell_length_b 11.37100
_cell_length_c 11.67100
_cell_angle_alpha 104.70000
_cell_angle_beta  106.81000
_cell_angle_gamma 96.12700

_symmetry_space_group_name_	'P 1'
_symmetry_space_group_name_H-M	'P 1'

loop_
_symmetry_equiv_pos_as_xyz
  x,y,z

loop_
_atom_site_label
_atom_site_type_symbol
_atom_site_fract_x
_atom_site_fract_y
_atom_site_fract_z
_atom_site_charge
Dy	Dy	0.10058 0.56096 0.37931 1.87700
O 	O 	0.25566 0.51720 0.28020 -0.48700
O 	O 	0.19622 0.48260 0.07423 -0.30100
O 	O 	0.94681 0.25718 0.69171 -0.48000
H 	H 	0.78710 0.13530 0.50660 0.22000
O 	O 	0.82250 0.08400 0.54570 -0.45400
O 	O 	0.09289 0.70928 0.55690 -0.51300
O 	O 	0.96132 0.65064 0.65969 -0.51000
O 	O 	0.88195 0.54143 0.36967 -0.54900
O 	O 	0.73867 0.48756 0.46148 -0.48700
C 	C 	0.28003 0.52080 0.18098 0.40900
C 	C 	0.42391 0.57162 0.19763 -0.18400
C 	C 	0.45850 0.64780 0.12990 0.11600
C 	C 	0.59400 0.68120 0.14400 -0.18300
H 	H 	0.61790 0.73110 0.09870 0.10100
C 	C 	0.69410 0.64260 0.22330 0.13300
H 	H 	0.78360 0.66400 0.22880 -0.00400
C 	C 	0.66024 0.57166 0.29461 -0.22100
C 	C 	0.52580 0.53749 0.28145 0.13000
H 	H 	0.50300 0.49060 0.32980 0.00800
C 	C 	0.76817 0.53057 0.38129 0.51300
C 	C 	0.36060 0.70280 0.05020 -0.01200
C 	C 	0.27150 0.76770 0.09440 -0.03600
H 	H 	0.26340 0.76760 0.17160 0.04300
C 	C 	0.19510 0.83260 0.02470 -0.04300
H 	H 	0.13820 0.87780 0.05690 0.05100
C 	C 	0.20180 0.83119 0.90729 -0.02600
C 	C 	0.28520 0.76050 0.86010 -0.03300
H 	H 	0.28700 0.75440 0.77960 0.04300
C 	C 	0.36540 0.69920 0.93160 -0.05300
H 	H 	0.42330 0.65500 0.89990 0.05400
C 	C 	0.12750 0.90895 0.83738 0.12800
C 	C 	0.13860 0.03430 0.89840 -0.18300
H 	H 	0.19130 0.06670 0.98240 0.09800
C 	C 	0.07390 0.11130 0.83760 0.11200
H 	H 	0.08320 0.19450 0.88000 0.00500
C 	C 	0.99480 0.06319 0.71260 -0.19800
C 	C 	0.98530 0.93983 0.64943 0.14600
H 	H 	0.93430 0.90850 0.56480 0.00500
C 	C 	0.05082 0.86267 0.71059 -0.21200
C 	C 	0.03371 0.72883 0.63653 0.51600
C 	C 	0.92030 0.14460 0.64940 0.45900
Dy	Dy	0.89942 0.43904 0.62069 1.87800
O 	O 	0.74434 0.48280 0.71980 -0.48600
O 	O 	0.80378 0.51740 0.92577 -0.30000
O 	O 	0.05319 0.74282 0.30829 -0.47900
H 	H 	0.21290 0.86470 0.49340 0.22000
O 	O 	0.17750 0.91600 0.45430 -0.45400
O 	O 	0.90711 0.29072 0.44310 -0.51300
O 	O 	0.03868 0.34936 0.34031 -0.51000
O 	O 	0.11805 0.45857 0.63033 -0.54900
O 	O 	0.26133 0.51244 0.53852 -0.48700
C 	C 	0.71997 0.47920 0.81902 0.40900
C 	C 	0.57609 0.42838 0.80237 -0.18400
C 	C 	0.54150 0.35220 0.87010 0.11600
C 	C 	0.40600 0.31880 0.85600 -0.18300
H 	H 	0.38210 0.26890 0.90130 0.10100
C 	C 	0.30590 0.35740 0.77670 0.13300
H 	H 	0.21640 0.33600 0.77120 -0.00400
C 	C 	0.33976 0.42834 0.70539 -0.22100
C 	C 	0.47420 0.46251 0.71855 0.13000
H 	H 	0.49700 0.50940 0.67020 0.00800
C 	C 	0.23183 0.46943 0.61871 0.51300
C 	C 	0.63940 0.29720 0.94980 -0.01200
C 	C 	0.72850 0.23230 0.90560 -0.03600
H 	H 	0.73660 0.23240 0.82840 0.04300
C 	C 	0.80490 0.16740 0.97530 -0.04300
H 	H 	0.86180 0.12220 0.94310 0.05100
C 	C 	0.79820 0.16881 0.09271 -0.02600
C 	C 	0.71480 0.23950 0.13990 -0.03300
H 	H 	0.71300 0.24560 0.22040 0.04300
C 	C 	0.63460 0.30080 0.06840 -0.05300
H 	H 	0.57670 0.34500 0.10010 0.05400
C 	C 	0.87250 0.09105 0.16262 0.12800
C 	C 	0.86140 0.96570 0.10160 -0.18300
H 	H 	0.80870 0.93330 0.01760 0.09800
C 	C 	0.92610 0.88870 0.16240 0.11200
H 	H 	0.91680 0.80550 0.12000 0.00500
C 	C 	0.00520 0.93681 0.28740 -0.19800
C 	C 	0.01470 0.06017 0.35057 0.14600
H 	H 	0.06570 0.09150 0.43520 0.00500
C 	C 	0.94918 0.13733 0.28941 -0.21200
C 	C 	0.96629 0.27117 0.36347 0.51600
C 	C 	0.07970 0.85540 0.35060 0.45900
