data_crystal

_cell_length_a 10.62010
_cell_length_b 11.40200
_cell_length_c 11.71300
_cell_angle_alpha 104.80400
_cell_angle_beta  106.88300
_cell_angle_gamma 95.88100

_symmetry_space_group_name_	'P 1'
_symmetry_space_group_name_H-M	'P 1'

loop_
_symmetry_equiv_pos_as_xyz
  x,y,z

loop_
_atom_site_label
_atom_site_type_symbol
_atom_site_fract_x
_atom_site_fract_y
_atom_site_fract_z
_atom_site_charge
Tb	Tb	0.39941 0.43949 0.62077 1.90700
O 	O 	0.24391 0.48332 0.72066 -0.48600
O 	O 	0.30382 0.51623 0.92639 -0.29800
O 	O 	0.55259 0.74292 0.30778 -0.47500
O 	O 	0.67750 0.91558 0.45365 -0.42400
H 	H 	0.72580 0.86100 0.47960 0.19300
O 	O 	0.53866 0.34828 0.34033 -0.51200
O 	O 	0.40719 0.28982 0.44267 -0.50900
O 	O 	0.61880 0.45873 0.62988 -0.54500
O 	O 	0.76257 0.51237 0.53918 -0.48600
C 	C 	0.21998 0.47890 0.81974 0.39900
C 	C 	0.07619 0.42830 0.80281 -0.17300
C 	C 	0.04159 0.35194 0.87045 0.10600
C 	C 	0.90607 0.31900 0.85640 -0.17100
H 	H 	0.88240 0.26980 0.90200 0.09700
C 	C 	0.80653 0.35743 0.77692 0.12100
H 	H 	0.71740 0.33590 0.77080 -0.00100
C 	C 	0.84039 0.42851 0.70612 -0.20900
C 	C 	0.97480 0.46237 0.71918 0.11600
H 	H 	0.99730 0.50890 0.67090 0.01200
C 	C 	0.73283 0.46927 0.61897 0.49800
C 	C 	0.13962 0.29732 0.95038 -0.00700
C 	C 	0.22820 0.23216 0.90584 -0.03800
H 	H 	0.23610 0.23240 0.82890 0.04200
C 	C 	0.30450 0.16702 0.97521 -0.04400
H 	H 	0.36090 0.12160 0.94300 0.05000
C 	C 	0.29784 0.16854 0.09292 -0.02400
C 	C 	0.21490 0.23881 0.13982 -0.03400
H 	H 	0.21290 0.24470 0.21990 0.04300
C 	C 	0.13474 0.30051 0.06874 -0.05500
H 	H 	0.07710 0.34450 0.10040 0.05500
C 	C 	0.37234 0.09065 0.16264 0.12100
C 	C 	0.36160 0.96560 0.10137 -0.17500
H 	H 	0.30960 0.93350 0.01740 0.09500
C 	C 	0.42590 0.88872 0.16197 0.10400
H 	H 	0.41630 0.80560 0.11960 0.00700
C 	C 	0.50523 0.93657 0.28713 -0.18900
C 	C 	0.51475 0.06001 0.35056 0.13700
H 	H 	0.56570 0.09130 0.43480 0.00800
C 	C 	0.44890 0.13698 0.28930 -0.20400
C 	C 	0.46636 0.27029 0.36340 0.50800
C 	C 	0.57920 0.85551 0.35025 0.44000
Tb	Tb	0.60059 0.56051 0.37923 1.90700
O 	O 	0.75609 0.51668 0.27934 -0.48600
O 	O 	0.69618 0.48377 0.07361 -0.29800
O 	O 	0.44741 0.25708 0.69222 -0.47500
O 	O 	0.32250 0.08442 0.54635 -0.42400
H 	H 	0.27420 0.13900 0.52040 0.19300
O 	O 	0.46134 0.65172 0.65967 -0.51200
O 	O 	0.59281 0.71018 0.55733 -0.50900
O 	O 	0.38120 0.54127 0.37012 -0.54500
O 	O 	0.23743 0.48763 0.46082 -0.48600
C 	C 	0.78002 0.52110 0.18026 0.39900
C 	C 	0.92381 0.57170 0.19719 -0.17300
C 	C 	0.95841 0.64806 0.12955 0.10600
C 	C 	0.09393 0.68100 0.14360 -0.17100
H 	H 	0.11760 0.73020 0.09800 0.09700
C 	C 	0.19347 0.64257 0.22308 0.12100
H 	H 	0.28260 0.66410 0.22920 -0.00100
C 	C 	0.15961 0.57149 0.29388 -0.20900
C 	C 	0.02520 0.53763 0.28082 0.11600
H 	H 	0.00270 0.49110 0.32910 0.01200
C 	C 	0.26717 0.53073 0.38103 0.49800
C 	C 	0.86038 0.70268 0.04962 -0.00700
C 	C 	0.77180 0.76784 0.09416 -0.03800
H 	H 	0.76390 0.76760 0.17110 0.04200
C 	C 	0.69550 0.83298 0.02479 -0.04400
H 	H 	0.63910 0.87840 0.05700 0.05000
C 	C 	0.70216 0.83146 0.90708 -0.02400
C 	C 	0.78510 0.76119 0.86018 -0.03400
H 	H 	0.78710 0.75530 0.78010 0.04300
C 	C 	0.86526 0.69949 0.93126 -0.05500
H 	H 	0.92290 0.65550 0.89960 0.05500
C 	C 	0.62766 0.90935 0.83736 0.12100
C 	C 	0.63840 0.03440 0.89863 -0.17500
H 	H 	0.69040 0.06650 0.98260 0.09500
C 	C 	0.57410 0.11128 0.83803 0.10400
H 	H 	0.58370 0.19440 0.88040 0.00700
C 	C 	0.49477 0.06343 0.71287 -0.18900
C 	C 	0.48525 0.93999 0.64944 0.13700
H 	H 	0.43430 0.90870 0.56520 0.00800
C 	C 	0.55110 0.86302 0.71070 -0.20400
C 	C 	0.53364 0.72971 0.63660 0.50800
C 	C 	0.42080 0.14449 0.64975 0.44000
