data_crystal

_cell_length_a 19.19980
_cell_length_b 19.19980
_cell_length_c 37.74700
_cell_angle_alpha 90.00000
_cell_angle_beta  90.00000
_cell_angle_gamma 120.00000

_symmetry_space_group_name_	'P 1'
_symmetry_space_group_name_H-M	'P 1'

loop_
_symmetry_equiv_pos_as_xyz
  x,y,z

loop_
_atom_site_label
_atom_site_type_symbol
_atom_site_fract_x
_atom_site_fract_y
_atom_site_fract_z
_atom_site_charge
O 	O 	0.21990 0.18250 0.15965 -0.47100
O 	O 	0.29550 0.22130 0.20854 -0.49700
C 	C 	0.23620 0.20870 0.19150 0.40900
C 	C 	0.17710 0.22880 0.20780 -0.11600
C 	C 	0.13270 0.35900 0.30830 -0.00900
C 	C 	0.19040 0.25920 0.24210 -0.00300
H 	H 	0.23760 0.26940 0.25350 0.04500
C 	C 	0.09050 0.27500 0.32220 -0.01000
O 	O 	0.88657 0.51583 0.49298 -0.47100
O 	O 	0.96217 0.55463 0.54187 -0.49700
C 	C 	0.90287 0.54203 0.52483 0.40900
C 	C 	0.84377 0.56213 0.54113 -0.11600
C 	C 	0.79937 0.69233 0.64163 -0.00900
C 	C 	0.85707 0.59253 0.57543 -0.00200
H 	H 	0.90427 0.60273 0.58683 0.04500
C 	C 	0.75717 0.60833 0.65553 -0.01000
O 	O 	0.55323 0.84917 0.82632 -0.47100
O 	O 	0.62883 0.88797 0.87521 -0.49700
C 	C 	0.56953 0.87537 0.85817 0.40900
C 	C 	0.51043 0.89547 0.87447 -0.11600
C 	C 	0.46603 0.02567 0.97497 -0.00800
C 	C 	0.52373 0.92587 0.90877 -0.00100
H 	H 	0.57093 0.93607 0.92017 0.04600
C 	C 	0.42383 0.94167 0.98887 -0.00900
O 	O 	0.81750 0.03740 0.15965 -0.47000
O 	O 	0.77870 0.07420 0.20854 -0.49600
C 	C 	0.79130 0.02750 0.19150 0.41000
C 	C 	0.77120 0.94830 0.20780 -0.11500
C 	C 	0.64100 0.77370 0.30830 -0.00800
C 	C 	0.74080 0.93120 0.24210 -0.00200
H 	H 	0.73060 0.96820 0.25350 0.04600
C 	C 	0.72500 0.81550 0.32220 -0.00900
O 	O 	0.48417 0.37073 0.49298 -0.47000
O 	O 	0.44537 0.40753 0.54187 -0.49600
C 	C 	0.45797 0.36083 0.52483 0.41000
C 	C 	0.43787 0.28163 0.54113 -0.11500
C 	C 	0.30767 0.10703 0.64163 -0.00800
C 	C 	0.40747 0.26453 0.57543 -0.00100
H 	H 	0.39727 0.30153 0.58683 0.04600
C 	C 	0.39167 0.14883 0.65553 -0.00900
O 	O 	0.15083 0.70407 0.82632 -0.47000
O 	O 	0.11203 0.74087 0.87521 -0.49600
C 	C 	0.12463 0.69417 0.85817 0.41000
C 	C 	0.10453 0.61497 0.87447 -0.11500
C 	C 	0.97433 0.44037 0.97497 -0.00800
C 	C 	0.07413 0.59787 0.90877 -0.00100
H 	H 	0.06393 0.63487 0.92017 0.04600
C 	C 	0.05833 0.48217 0.98887 -0.00900
O 	O 	0.96260 0.78010 0.15965 -0.47000
O 	O 	0.92580 0.70450 0.20854 -0.49600
C 	C 	0.97250 0.76380 0.19150 0.41000
C 	C 	0.05170 0.82290 0.20780 -0.11500
C 	C 	0.22630 0.86730 0.30830 -0.00800
C 	C 	0.06880 0.80960 0.24210 -0.00200
H 	H 	0.03180 0.76240 0.25350 0.04600
C 	C 	0.18450 0.90950 0.32220 -0.00900
O 	O 	0.62927 0.11343 0.49298 -0.47000
O 	O 	0.59247 0.03783 0.54187 -0.49600
C 	C 	0.63917 0.09713 0.52483 0.41000
C 	C 	0.71837 0.15623 0.54113 -0.11500
C 	C 	0.89297 0.20063 0.64163 -0.00800
C 	C 	0.73547 0.14293 0.57543 -0.00100
H 	H 	0.69847 0.09573 0.58683 0.04600
C 	C 	0.85117 0.24283 0.65553 -0.00900
O 	O 	0.29593 0.44677 0.82632 -0.47000
O 	O 	0.25913 0.37117 0.87521 -0.49600
C 	C 	0.30583 0.43047 0.85817 0.41000
C 	C 	0.38503 0.48957 0.87447 -0.11500
C 	C 	0.55963 0.53397 0.97497 -0.00800
C 	C 	0.40213 0.47627 0.90877 -0.00100
H 	H 	0.36513 0.42907 0.92017 0.04600
C 	C 	0.51783 0.57617 0.98887 -0.00900
O 	O 	0.18250 0.21990 0.84035 -0.47000
O 	O 	0.22130 0.29550 0.79146 -0.49600
C 	C 	0.20870 0.23620 0.80850 0.41000
C 	C 	0.22880 0.17710 0.79220 -0.11500
C 	C 	0.35900 0.13270 0.69170 -0.00800
C 	C 	0.25920 0.19040 0.75790 -0.00200
H 	H 	0.26940 0.23760 0.74650 0.04600
C 	C 	0.27500 0.09050 0.67780 -0.00900
O 	O 	0.84917 0.55323 0.17368 -0.47000
O 	O 	0.88797 0.62883 0.12479 -0.49600
C 	C 	0.87537 0.56953 0.14183 0.41000
C 	C 	0.89547 0.51043 0.12553 -0.11500
C 	C 	0.02567 0.46603 0.02503 -0.00800
C 	C 	0.92587 0.52373 0.09123 -0.00100
H 	H 	0.93607 0.57093 0.07983 0.04600
C 	C 	0.94167 0.42383 0.01113 -0.00900
O 	O 	0.51583 0.88657 0.50702 -0.47000
O 	O 	0.55463 0.96217 0.45813 -0.49600
C 	C 	0.54203 0.90287 0.47517 0.41000
C 	C 	0.56213 0.84377 0.45887 -0.11500
C 	C 	0.69233 0.79937 0.35837 -0.00800
C 	C 	0.59253 0.85707 0.42457 -0.00100
H 	H 	0.60273 0.90427 0.41317 0.04600
C 	C 	0.60833 0.75717 0.34447 -0.00900
O 	O 	0.03740 0.81750 0.84035 -0.47000
O 	O 	0.07420 0.77870 0.79146 -0.49600
C 	C 	0.02750 0.79130 0.80850 0.41000
C 	C 	0.94830 0.77120 0.79220 -0.11500
C 	C 	0.77370 0.64100 0.69170 -0.00800
C 	C 	0.93120 0.74080 0.75790 -0.00200
H 	H 	0.96820 0.73060 0.74650 0.04600
C 	C 	0.81550 0.72500 0.67780 -0.00900
O 	O 	0.70407 0.15083 0.17368 -0.47000
O 	O 	0.74087 0.11203 0.12479 -0.49600
C 	C 	0.69417 0.12463 0.14183 0.41000
C 	C 	0.61497 0.10453 0.12553 -0.11500
C 	C 	0.44037 0.97433 0.02503 -0.00800
C 	C 	0.59787 0.07413 0.09123 -0.00100
H 	H 	0.63487 0.06393 0.07983 0.04600
C 	C 	0.48217 0.05833 0.01113 -0.00900
O 	O 	0.37073 0.48417 0.50702 -0.47000
O 	O 	0.40753 0.44537 0.45813 -0.49600
C 	C 	0.36083 0.45797 0.47517 0.41000
C 	C 	0.28163 0.43787 0.45887 -0.11500
C 	C 	0.10703 0.30767 0.35837 -0.00800
C 	C 	0.26453 0.40747 0.42457 -0.00100
H 	H 	0.30153 0.39727 0.41317 0.04600
C 	C 	0.14883 0.39167 0.34447 -0.00900
O 	O 	0.78010 0.96260 0.84035 -0.47000
O 	O 	0.70450 0.92580 0.79146 -0.49600
C 	C 	0.76380 0.97250 0.80850 0.41000
C 	C 	0.82290 0.05170 0.79220 -0.11500
C 	C 	0.86730 0.22630 0.69170 -0.00800
C 	C 	0.80960 0.06880 0.75790 -0.00200
H 	H 	0.76240 0.03180 0.74650 0.04600
C 	C 	0.90950 0.18450 0.67780 -0.00900
O 	O 	0.44677 0.29593 0.17368 -0.47000
O 	O 	0.37117 0.25913 0.12479 -0.49600
C 	C 	0.43047 0.30583 0.14183 0.41000
C 	C 	0.48957 0.38503 0.12553 -0.11500
C 	C 	0.53397 0.55963 0.02503 -0.00800
C 	C 	0.47627 0.40213 0.09123 -0.00100
H 	H 	0.42907 0.36513 0.07983 0.04600
C 	C 	0.57617 0.51783 0.01113 -0.00900
O 	O 	0.11343 0.62927 0.50702 -0.47000
O 	O 	0.03783 0.59247 0.45813 -0.49600
C 	C 	0.09713 0.63917 0.47517 0.41000
C 	C 	0.15623 0.71837 0.45887 -0.11500
C 	C 	0.20063 0.89297 0.35837 -0.00800
C 	C 	0.14293 0.73547 0.42457 -0.00100
H 	H 	0.09573 0.69847 0.41317 0.04600
C 	C 	0.24283 0.85117 0.34447 -0.00900
O 	O 	0.78010 0.81750 0.84035 -0.47000
O 	O 	0.70450 0.77870 0.79146 -0.49600
C 	C 	0.76380 0.79130 0.80850 0.41000
C 	C 	0.82290 0.77120 0.79220 -0.11500
C 	C 	0.86730 0.64100 0.69170 -0.00800
C 	C 	0.80960 0.74080 0.75790 -0.00200
H 	H 	0.76240 0.73060 0.74650 0.04600
C 	C 	0.90950 0.72500 0.67780 -0.00900
O 	O 	0.44677 0.15083 0.17368 -0.47000
O 	O 	0.37117 0.11203 0.12479 -0.49600
C 	C 	0.43047 0.12463 0.14183 0.41000
C 	C 	0.48957 0.10453 0.12553 -0.11500
C 	C 	0.53397 0.97433 0.02503 -0.00800
C 	C 	0.47627 0.07413 0.09123 -0.00100
H 	H 	0.42907 0.06393 0.07983 0.04600
C 	C 	0.57617 0.05833 0.01113 -0.00900
O 	O 	0.11343 0.48417 0.50702 -0.47000
O 	O 	0.03783 0.44537 0.45813 -0.49600
C 	C 	0.09713 0.45797 0.47517 0.41000
C 	C 	0.15623 0.43787 0.45887 -0.11500
C 	C 	0.20063 0.30767 0.35837 -0.00800
C 	C 	0.14293 0.40747 0.42457 -0.00100
H 	H 	0.09573 0.39727 0.41317 0.04600
C 	C 	0.24283 0.39167 0.34447 -0.00900
O 	O 	0.18250 0.96260 0.84035 -0.47000
O 	O 	0.22130 0.92580 0.79146 -0.49600
C 	C 	0.20870 0.97250 0.80850 0.41000
C 	C 	0.22880 0.05170 0.79220 -0.11500
C 	C 	0.35900 0.22630 0.69170 -0.00800
C 	C 	0.25920 0.06880 0.75790 -0.00200
H 	H 	0.26940 0.03180 0.74650 0.04600
C 	C 	0.27500 0.18450 0.67780 -0.00900
O 	O 	0.84917 0.29593 0.17368 -0.47000
O 	O 	0.88797 0.25913 0.12479 -0.49600
C 	C 	0.87537 0.30583 0.14183 0.41000
C 	C 	0.89547 0.38503 0.12553 -0.11500
C 	C 	0.02567 0.55963 0.02503 -0.00800
C 	C 	0.92587 0.40213 0.09123 -0.00100
H 	H 	0.93607 0.36513 0.07983 0.04600
C 	C 	0.94167 0.51783 0.01113 -0.00900
O 	O 	0.51583 0.62927 0.50702 -0.47000
O 	O 	0.55463 0.59247 0.45813 -0.49600
C 	C 	0.54203 0.63917 0.47517 0.41000
C 	C 	0.56213 0.71837 0.45887 -0.11500
C 	C 	0.69233 0.89297 0.35837 -0.00800
C 	C 	0.59253 0.73547 0.42457 -0.00100
H 	H 	0.60273 0.69847 0.41317 0.04600
C 	C 	0.60833 0.85117 0.34447 -0.00900
O 	O 	0.03740 0.21990 0.84035 -0.47000
O 	O 	0.07420 0.29550 0.79146 -0.49600
C 	C 	0.02750 0.23620 0.80850 0.41000
C 	C 	0.94830 0.17710 0.79220 -0.11500
C 	C 	0.77370 0.13270 0.69170 -0.00800
C 	C 	0.93120 0.19040 0.75790 -0.00200
H 	H 	0.96820 0.23760 0.74650 0.04600
C 	C 	0.81550 0.09050 0.67780 -0.00900
O 	O 	0.70407 0.55323 0.17368 -0.47000
O 	O 	0.74087 0.62883 0.12479 -0.49600
C 	C 	0.69417 0.56953 0.14183 0.41000
C 	C 	0.61497 0.51043 0.12553 -0.11500
C 	C 	0.44037 0.46603 0.02503 -0.00800
C 	C 	0.59787 0.52373 0.09123 -0.00100
H 	H 	0.63487 0.57093 0.07983 0.04600
C 	C 	0.48217 0.42383 0.01113 -0.00900
O 	O 	0.37073 0.88657 0.50702 -0.47000
O 	O 	0.40753 0.96217 0.45813 -0.49600
C 	C 	0.36083 0.90287 0.47517 0.41000
C 	C 	0.28163 0.84377 0.45887 -0.11500
C 	C 	0.10703 0.79937 0.35837 -0.00800
C 	C 	0.26453 0.85707 0.42457 -0.00100
H 	H 	0.30153 0.90427 0.41317 0.04600
C 	C 	0.14883 0.75717 0.34447 -0.00900
O 	O 	0.81750 0.78010 0.15965 -0.47000
O 	O 	0.77870 0.70450 0.20854 -0.49600
C 	C 	0.79130 0.76380 0.19150 0.41000
C 	C 	0.77120 0.82290 0.20780 -0.11500
C 	C 	0.64100 0.86730 0.30830 -0.00800
C 	C 	0.74080 0.80960 0.24210 -0.00200
H 	H 	0.73060 0.76240 0.25350 0.04600
C 	C 	0.72500 0.90950 0.32220 -0.00900
O 	O 	0.48417 0.11343 0.49298 -0.47000
O 	O 	0.44537 0.03783 0.54187 -0.49600
C 	C 	0.45797 0.09713 0.52483 0.41000
C 	C 	0.43787 0.15623 0.54113 -0.11500
C 	C 	0.30767 0.20063 0.64163 -0.00800
C 	C 	0.40747 0.14293 0.57543 -0.00100
H 	H 	0.39727 0.09573 0.58683 0.04600
C 	C 	0.39167 0.24283 0.65553 -0.00900
O 	O 	0.15083 0.44677 0.82632 -0.47000
O 	O 	0.11203 0.37117 0.87521 -0.49600
C 	C 	0.12463 0.43047 0.85817 0.41000
C 	C 	0.10453 0.48957 0.87447 -0.11500
C 	C 	0.97433 0.53397 0.97497 -0.00800
C 	C 	0.07413 0.47627 0.90877 -0.00100
H 	H 	0.06393 0.42907 0.92017 0.04600
C 	C 	0.05833 0.57617 0.98887 -0.00900
O 	O 	0.96260 0.18250 0.15965 -0.47000
O 	O 	0.92580 0.22130 0.20854 -0.49600
C 	C 	0.97250 0.20870 0.19150 0.41000
C 	C 	0.05170 0.22880 0.20780 -0.11500
C 	C 	0.22630 0.35900 0.30830 -0.00800
C 	C 	0.06880 0.25920 0.24210 -0.00200
H 	H 	0.03180 0.26940 0.25350 0.04600
C 	C 	0.18450 0.27500 0.32220 -0.00900
O 	O 	0.62927 0.51583 0.49298 -0.47000
O 	O 	0.59247 0.55463 0.54187 -0.49600
C 	C 	0.63917 0.54203 0.52483 0.41000
C 	C 	0.71837 0.56213 0.54113 -0.11500
C 	C 	0.89297 0.69233 0.64163 -0.00800
C 	C 	0.73547 0.59253 0.57543 -0.00100
H 	H 	0.69847 0.60273 0.58683 0.04600
C 	C 	0.85117 0.60833 0.65553 -0.00900
O 	O 	0.29593 0.84917 0.82632 -0.47000
O 	O 	0.25913 0.88797 0.87521 -0.49600
C 	C 	0.30583 0.87537 0.85817 0.41000
C 	C 	0.38503 0.89547 0.87447 -0.11500
C 	C 	0.55963 0.02567 0.97497 -0.00800
C 	C 	0.40213 0.92587 0.90877 -0.00100
H 	H 	0.36513 0.93607 0.92017 0.04600
C 	C 	0.51783 0.94167 0.98887 -0.00900
O 	O 	0.21990 0.03740 0.15965 -0.47000
O 	O 	0.29550 0.07420 0.20854 -0.49600
C 	C 	0.23620 0.02750 0.19150 0.41000
C 	C 	0.17710 0.94830 0.20780 -0.11500
C 	C 	0.13270 0.77370 0.30830 -0.00800
C 	C 	0.19040 0.93120 0.24210 -0.00200
H 	H 	0.23760 0.96820 0.25350 0.04600
C 	C 	0.09050 0.81550 0.32220 -0.00900
O 	O 	0.88657 0.37073 0.49298 -0.47000
O 	O 	0.96217 0.40753 0.54187 -0.49600
C 	C 	0.90287 0.36083 0.52483 0.41000
C 	C 	0.84377 0.28163 0.54113 -0.11500
C 	C 	0.79937 0.10703 0.64163 -0.00800
C 	C 	0.85707 0.26453 0.57543 -0.00100
H 	H 	0.90427 0.30153 0.58683 0.04600
C 	C 	0.75717 0.14883 0.65553 -0.00900
O 	O 	0.55323 0.70407 0.82632 -0.47000
O 	O 	0.62883 0.74087 0.87521 -0.49600
C 	C 	0.56953 0.69417 0.85817 0.41000
C 	C 	0.51043 0.61497 0.87447 -0.11500
C 	C 	0.46603 0.44037 0.97497 -0.00800
C 	C 	0.52373 0.59787 0.90877 -0.00100
H 	H 	0.57093 0.63487 0.92017 0.04600
C 	C 	0.42383 0.48217 0.98887 -0.00900
Zn	Zn	0.28519 0.14260 0.13328 1.19800
Zn	Zn	0.95186 0.47593 0.46661 1.19800
Zn	Zn	0.61852 0.80926 0.79995 1.19800
Zn	Zn	0.85740 0.14260 0.13328 1.19800
Zn	Zn	0.52407 0.47593 0.46661 1.19800
Zn	Zn	0.19074 0.80926 0.79995 1.19800
Zn	Zn	0.85740 0.71481 0.13328 1.19800
Zn	Zn	0.52407 0.04814 0.46661 1.19800
Zn	Zn	0.19074 0.38148 0.79995 1.19800
Zn	Zn	0.14260 0.28519 0.86672 1.19800
Zn	Zn	0.80926 0.61852 0.20005 1.19800
Zn	Zn	0.47593 0.95186 0.53339 1.19800
Zn	Zn	0.14260 0.85740 0.86672 1.19800
Zn	Zn	0.80926 0.19074 0.20005 1.19800
Zn	Zn	0.47593 0.52407 0.53339 1.19800
Zn	Zn	0.71481 0.85740 0.86672 1.19800
Zn	Zn	0.38148 0.19074 0.20005 1.19800
Zn	Zn	0.04814 0.52407 0.53339 1.19800
C 	C 	0.10810 0.21620 0.19060 0.05800
H 	H 	0.09955 0.19910 0.16710 0.03500
C 	C 	0.15160 0.30320 0.29710 0.00400
C 	C 	0.13750 0.27500 0.26010 -0.00700
C 	C 	0.77477 0.54953 0.52393 0.05900
H 	H 	0.76622 0.53243 0.50043 0.03500
C 	C 	0.81827 0.63653 0.63043 0.00400
C 	C 	0.80417 0.60833 0.59343 -0.00800
C 	C 	0.44143 0.88287 0.85727 0.05900
H 	H 	0.43288 0.86577 0.83377 0.03500
C 	C 	0.48493 0.96987 0.96377 0.00300
C 	C 	0.47083 0.94167 0.92677 -0.00800
C 	C 	0.78380 0.89190 0.19060 0.05800
H 	H 	0.80090 0.90045 0.16710 0.03500
C 	C 	0.69680 0.84840 0.29710 0.00400
C 	C 	0.72500 0.86250 0.26010 -0.00700
C 	C 	0.45047 0.22523 0.52393 0.05900
H 	H 	0.46757 0.23378 0.50043 0.03500
C 	C 	0.36347 0.18173 0.63043 0.00400
C 	C 	0.39167 0.19583 0.59343 -0.00800
C 	C 	0.11713 0.55857 0.85727 0.05900
H 	H 	0.13423 0.56712 0.83377 0.03500
C 	C 	0.03013 0.51507 0.96377 0.00300
C 	C 	0.05833 0.52917 0.92677 -0.00800
C 	C 	0.10810 0.89190 0.19060 0.05800
H 	H 	0.09955 0.90045 0.16710 0.03500
C 	C 	0.15160 0.84840 0.29710 0.00400
C 	C 	0.13750 0.86250 0.26010 -0.00700
C 	C 	0.77477 0.22523 0.52393 0.05900
H 	H 	0.76622 0.23378 0.50043 0.03500
C 	C 	0.81827 0.18173 0.63043 0.00400
C 	C 	0.80417 0.19583 0.59343 -0.00800
C 	C 	0.44143 0.55857 0.85727 0.05900
H 	H 	0.43288 0.56712 0.83377 0.03500
C 	C 	0.48493 0.51507 0.96377 0.00400
C 	C 	0.47083 0.52917 0.92677 -0.00800
C 	C 	0.21620 0.10810 0.80940 0.05800
H 	H 	0.19910 0.09955 0.83290 0.03500
C 	C 	0.30320 0.15160 0.70290 0.00400
C 	C 	0.27500 0.13750 0.73990 -0.00700
C 	C 	0.88287 0.44143 0.14273 0.05900
H 	H 	0.86577 0.43288 0.16623 0.03500
C 	C 	0.96987 0.48493 0.03623 0.00300
C 	C 	0.94167 0.47083 0.07323 -0.00800
C 	C 	0.54953 0.77477 0.47607 0.05900
H 	H 	0.53243 0.76622 0.49957 0.03500
C 	C 	0.63653 0.81827 0.36957 0.00400
C 	C 	0.60833 0.80417 0.40657 -0.00800
C 	C 	0.89190 0.78380 0.80940 0.05800
H 	H 	0.90045 0.80090 0.83290 0.03500
C 	C 	0.84840 0.69680 0.70290 0.00400
C 	C 	0.86250 0.72500 0.73990 -0.00700
C 	C 	0.55857 0.11713 0.14273 0.05900
H 	H 	0.56712 0.13423 0.16623 0.03500
C 	C 	0.51507 0.03013 0.03623 0.00300
C 	C 	0.52917 0.05833 0.07323 -0.00800
C 	C 	0.22523 0.45047 0.47607 0.05900
H 	H 	0.23378 0.46757 0.49957 0.03500
C 	C 	0.18173 0.36347 0.36957 0.00400
C 	C 	0.19583 0.39167 0.40657 -0.00800
C 	C 	0.89190 0.10810 0.80940 0.05800
H 	H 	0.90045 0.09955 0.83290 0.03500
C 	C 	0.84840 0.15160 0.70290 0.00400
C 	C 	0.86250 0.13750 0.73990 -0.00700
C 	C 	0.55857 0.44143 0.14273 0.05900
H 	H 	0.56712 0.43288 0.16623 0.03500
C 	C 	0.51507 0.48493 0.03623 0.00400
C 	C 	0.52917 0.47083 0.07323 -0.00800
C 	C 	0.22523 0.77477 0.47607 0.05900
H 	H 	0.23378 0.76622 0.49957 0.03500
C 	C 	0.18173 0.81827 0.36957 0.00400
C 	C 	0.19583 0.80417 0.40657 -0.00800
