data_crystal

_cell_length_a 10.49600
_cell_length_b 12.39600
_cell_length_c 16.25400
_cell_angle_alpha 90.00000
_cell_angle_beta  90.00000
_cell_angle_gamma 90.00000

_symmetry_space_group_name_	'P 1'
_symmetry_space_group_name_H-M	'P 1'

loop_
_symmetry_equiv_pos_as_xyz
  x,y,z

loop_
_atom_site_label
_atom_site_type_symbol
_atom_site_fract_x
_atom_site_fract_y
_atom_site_fract_z
_atom_site_charge
C 	C 	0.32890 0.10540 0.98440 0.17300
C 	C 	0.35250 0.06290 0.11870 0.18100
C 	C 	0.08620 0.83800 0.83420 0.14300
C 	C 	0.00420 0.69980 0.75990 0.15900
C 	C 	0.44390 0.85810 0.81880 0.18900
C 	C 	0.58210 0.71860 0.79400 0.19400
Mn	Mn	0.22651 0.04889 0.79988 1.25200
N 	N 	0.28120 0.10980 0.92240 -0.29000
N 	N 	0.39090 0.11260 0.05240 -0.19100
N 	N 	0.32850 0.02290 0.17850 -0.28700
N 	N 	0.09750 0.92390 0.85710 -0.26600
N 	N 	0.08650 0.73610 0.81270 -0.18100
N 	N 	0.93750 0.66010 0.71310 -0.27900
N 	N 	0.38320 0.92900 0.80870 -0.29500
N 	N 	0.51650 0.77870 0.84420 -0.19600
N 	N 	0.64640 0.66530 0.76020 -0.30400
C 	C 	0.17110 0.89460 0.48440 0.17700
C 	C 	0.14750 0.93710 0.61870 0.18000
C 	C 	0.41380 0.16200 0.33420 0.14300
C 	C 	0.49580 0.30020 0.25990 0.15900
C 	C 	0.05610 0.14190 0.31880 0.18900
C 	C 	0.91790 0.28140 0.29400 0.19400
Mn	Mn	0.27349 0.95111 0.29988 1.25200
N 	N 	0.21880 0.89020 0.42240 -0.29000
N 	N 	0.10910 0.88740 0.55240 -0.19300
N 	N 	0.17150 0.97710 0.67850 -0.28800
N 	N 	0.40250 0.07610 0.35710 -0.26600
N 	N 	0.41350 0.26390 0.31270 -0.18100
N 	N 	0.56250 0.33990 0.21310 -0.27900
N 	N 	0.11680 0.07100 0.30870 -0.29500
N 	N 	0.98350 0.22130 0.34420 -0.19600
N 	N 	0.85360 0.33470 0.26020 -0.30400
C 	C 	0.67110 0.60540 0.51560 0.17700
C 	C 	0.64750 0.56290 0.38130 0.18000
C 	C 	0.91380 0.33800 0.66580 0.14300
C 	C 	0.99580 0.19980 0.74010 0.15900
C 	C 	0.55610 0.35810 0.68120 0.18900
C 	C 	0.41790 0.21860 0.70600 0.19400
Mn	Mn	0.77349 0.54889 0.70012 1.25300
N 	N 	0.71880 0.60980 0.57760 -0.29000
N 	N 	0.60910 0.61260 0.44760 -0.19300
N 	N 	0.67150 0.52290 0.32150 -0.28800
N 	N 	0.90250 0.42390 0.64290 -0.26700
N 	N 	0.91350 0.23610 0.68730 -0.18100
N 	N 	0.06250 0.16010 0.78690 -0.28000
N 	N 	0.61680 0.42900 0.69130 -0.29600
N 	N 	0.48350 0.27870 0.65580 -0.19600
N 	N 	0.35360 0.16530 0.73980 -0.30400
C 	C 	0.82890 0.39460 0.01560 0.17700
C 	C 	0.85250 0.43710 0.88130 0.18000
C 	C 	0.58620 0.66200 0.16580 0.14300
C 	C 	0.50420 0.80020 0.24010 0.15800
C 	C 	0.94390 0.64190 0.18120 0.18700
C 	C 	0.08210 0.78140 0.20600 0.19300
Mn	Mn	0.72651 0.45111 0.20012 1.25300
N 	N 	0.78120 0.39020 0.07760 -0.29000
N 	N 	0.89090 0.38740 0.94760 -0.19300
N 	N 	0.82850 0.47710 0.82150 -0.28800
N 	N 	0.59750 0.57610 0.14290 -0.26700
N 	N 	0.58650 0.76390 0.18730 -0.18200
N 	N 	0.43750 0.83990 0.28690 -0.27900
N 	N 	0.88320 0.57100 0.19130 -0.29600
N 	N 	0.01650 0.72130 0.15580 -0.19600
N 	N 	0.14640 0.83470 0.23980 -0.30400
