data_crystal

_cell_length_a 10.39100
_cell_length_b 15.81000
_cell_length_c 15.48200
_cell_angle_alpha 90.00000
_cell_angle_beta  127.56000
_cell_angle_gamma 90.00000

_symmetry_space_group_name_	'P 1'
_symmetry_space_group_name_H-M	'P 1'

loop_
_symmetry_equiv_pos_as_xyz
  x,y,z

loop_
_atom_site_label
_atom_site_type_symbol
_atom_site_fract_x
_atom_site_fract_y
_atom_site_fract_z
_atom_site_charge
Mn	Mn	0.41640 0.18386 0.18495 1.24600
C 	C 	0.47130 0.36180 0.32210 0.16500
N 	N 	0.44460 0.30300 0.27210 -0.28600
N 	N 	0.40270 0.38460 0.81000 -0.26100
N 	N 	0.60980 0.56180 0.39660 -0.28100
N 	N 	0.50260 0.42290 0.39250 -0.18100
N 	N 	0.68800 0.16330 0.30840 -0.26100
N 	N 	0.46450 0.25900 0.08490 -0.28700
C 	C 	0.56000 0.49610 0.39070 0.16400
C 	C 	0.49510 0.30380 0.04440 0.17100
N 	N 	0.14920 0.29700 0.57530 -0.27800
C 	C 	0.79910 0.18920 0.39710 0.14200
N 	N 	0.90200 0.20880 0.49750 -0.17500
C 	C 	0.03370 0.25530 0.53570 0.15000
N 	N 	0.54590 0.36310 0.00820 -0.17200
C 	C 	0.46450 0.37120 0.90090 0.14100
Mn	Mn	0.58360 0.68386 0.31505 1.24700
C 	C 	0.52870 0.86180 0.17790 0.16600
N 	N 	0.55540 0.80300 0.22790 -0.28500
N 	N 	0.59730 0.88460 0.69000 -0.26000
N 	N 	0.39020 0.06180 0.10340 -0.28100
N 	N 	0.49740 0.92290 0.10750 -0.18100
N 	N 	0.31200 0.66330 0.19160 -0.26100
N 	N 	0.53550 0.75900 0.41510 -0.28700
C 	C 	0.44000 0.99610 0.10930 0.16400
C 	C 	0.50490 0.80380 0.45560 0.17100
N 	N 	0.85080 0.79700 0.92470 -0.27800
C 	C 	0.20090 0.68920 0.10290 0.14200
N 	N 	0.09800 0.70880 0.00250 -0.17600
C 	C 	0.96630 0.75530 0.96430 0.15100
N 	N 	0.45410 0.86310 0.49180 -0.17200
C 	C 	0.53550 0.87120 0.59910 0.14100
Mn	Mn	0.58360 0.81614 0.81505 1.24700
C 	C 	0.52870 0.63820 0.67790 0.16600
N 	N 	0.55540 0.69700 0.72790 -0.28500
N 	N 	0.59730 0.61540 0.19000 -0.26000
N 	N 	0.39020 0.43820 0.60340 -0.28100
N 	N 	0.49740 0.57710 0.60750 -0.18100
N 	N 	0.31200 0.83670 0.69160 -0.26100
N 	N 	0.53550 0.74100 0.91510 -0.28700
C 	C 	0.44000 0.50390 0.60930 0.16400
C 	C 	0.50490 0.69620 0.95560 0.17100
N 	N 	0.85080 0.70300 0.42470 -0.27800
C 	C 	0.20090 0.81080 0.60290 0.14200
N 	N 	0.09800 0.79120 0.50250 -0.17500
C 	C 	0.96630 0.74470 0.46430 0.15000
N 	N 	0.45410 0.63690 0.99180 -0.17200
C 	C 	0.53550 0.62880 0.09910 0.14100
Mn	Mn	0.41640 0.31614 0.68495 1.24700
C 	C 	0.47130 0.13820 0.82210 0.16600
N 	N 	0.44460 0.19700 0.77210 -0.28500
N 	N 	0.40270 0.11540 0.31000 -0.26000
N 	N 	0.60980 0.93820 0.89660 -0.28100
N 	N 	0.50260 0.07710 0.89250 -0.18100
N 	N 	0.68800 0.33670 0.80840 -0.26100
N 	N 	0.46450 0.24100 0.58490 -0.28700
C 	C 	0.56000 0.00390 0.89070 0.16400
C 	C 	0.49510 0.19620 0.54440 0.17100
N 	N 	0.14920 0.20300 0.07530 -0.27800
C 	C 	0.79910 0.31080 0.89710 0.14200
N 	N 	0.90200 0.29120 0.99750 -0.17600
C 	C 	0.03370 0.24470 0.03570 0.15100
N 	N 	0.54590 0.13690 0.50820 -0.17200
C 	C 	0.46450 0.12880 0.40090 0.14100
