data_crystal

_cell_length_a 17.47220
_cell_length_b 17.47220
_cell_length_c 14.45080
_cell_angle_alpha 90.00000
_cell_angle_beta  90.00000
_cell_angle_gamma 90.00000

_symmetry_space_group_name_	'P 1'
_symmetry_space_group_name_H-M	'P 1'

loop_
_symmetry_equiv_pos_as_xyz
  x,y,z

loop_
_atom_site_label
_atom_site_type_symbol
_atom_site_fract_x
_atom_site_fract_y
_atom_site_fract_z
_atom_site_charge
Pb	Pb	0.03376 0.87644 0.39710 1.32100
Pb	Pb	0.59636 0.58766 0.25793 1.32600
O 	O 	0.09240 0.98940 0.41690 -0.42900
O 	O 	0.12340 0.08750 0.50600 -0.40500
O 	O 	0.95950 0.06070 0.11780 -0.41300
O 	O 	0.02450 0.14380 0.03310 -0.40300
O 	O 	0.16160 0.30160 0.28360 -0.19700
O 	O 	0.94120 0.79490 0.33730 -0.35000
O 	O 	0.04430 0.73750 0.38680 -0.35200
O 	O 	0.71260 0.65290 0.25350 -0.36100
O 	O 	0.71610 0.53080 0.22260 -0.34500
O 	O 	0.98540 0.45450 0.34190 -0.19700
O 	O 	0.63490 0.54620 0.39540 -0.41000
O 	O 	0.53350 0.56170 0.48390 -0.42800
O 	O 	0.52930 0.40520 0.77890 -0.43900
O 	O 	0.63280 0.42300 0.86290 -0.41600
O 	O 	0.83470 0.43930 0.59890 -0.19200
N 	N 	0.19870 0.32590 0.04150 -0.14400
N 	N 	0.93560 0.36840 0.18330 -0.13600
N 	N 	0.97500 0.29640 0.61180 -0.16900
C 	C 	0.09800 0.11270 0.34670 -0.05300
C 	C 	0.05890 0.08810 0.26930 -0.00600
H 	H 	0.03620 0.04000 0.26820 0.04000
C 	C 	0.05380 0.13630 0.19290 -0.05200
C 	C 	0.09020 0.20850 0.19470 -0.11500
H 	H 	0.08950 0.23960 0.14250 0.09400
C 	C 	0.12680 0.23270 0.27380 0.17000
C 	C 	0.13140 0.18430 0.35030 -0.10500
H 	H 	0.15680 0.20020 0.40350 0.08800
C 	C 	0.10380 0.05870 0.42860 0.37600
C 	C 	0.01030 0.11230 0.10890 0.35600
C 	C 	0.16410 0.35370 0.20710 -0.10300
H 	H 	0.17710 0.40430 0.22970 0.08300
H 	H 	0.11380 0.35650 0.17900 0.08100
C 	C 	0.22040 0.33060 0.13630 0.15600
C 	C 	0.29790 0.31570 0.15370 -0.24800
H 	H 	0.31660 0.31900 0.21380 0.13300
C 	C 	0.34470 0.29680 0.08490 0.21500
H 	H 	0.39480 0.28490 0.10110 -0.02900
C 	C 	0.32820 0.29310 0.99880 -0.26400
H 	H 	0.36420 0.28080 0.95380 0.12600
C 	C 	0.25430 0.30850 0.97810 0.13600
H 	H 	0.24010 0.30720 0.91610 0.00300
C 	C 	0.94150 0.65800 0.33160 0.00200
C 	C 	0.86880 0.65770 0.29590 -0.06100
H 	H 	0.84360 0.70360 0.28430 0.07600
C 	C 	0.83300 0.58820 0.27710 0.01000
C 	C 	0.86850 0.52060 0.29350 -0.15000
H 	H 	0.84290 0.47470 0.28310 0.10300
C 	C 	0.94340 0.52030 0.32600 0.19100
C 	C 	0.97990 0.58860 0.34740 -0.14200
H 	H 	0.02910 0.58840 0.37200 0.10100
C 	C 	0.97950 0.73240 0.35240 0.27800
C 	C 	0.75010 0.59080 0.24660 0.27000
C 	C 	0.94600 0.38380 0.35840 -0.08000
H 	H 	0.89920 0.39470 0.39210 0.06800
H 	H 	0.97780 0.35180 0.39760 0.07500
C 	C 	0.92600 0.33980 0.27260 0.13300
C 	C 	0.89620 0.26640 0.28040 -0.19700
H 	H 	0.88900 0.24440 0.33840 0.10900
C 	C 	0.87750 0.22660 0.20190 0.13700
H 	H 	0.85780 0.17750 0.20880 0.00000
C 	C 	0.88560 0.25310 0.11860 -0.20400
H 	H 	0.87230 0.22430 0.06690 0.09800
C 	C 	0.91320 0.32170 0.11110 0.11400
H 	H 	0.91840 0.34120 0.05160 0.01000
C 	C 	0.64200 0.50220 0.54920 -0.06800
C 	C 	0.60250 0.47910 0.63000 0.01200
H 	H 	0.54990 0.48670 0.63420 0.03500
C 	C 	0.64090 0.44570 0.70200 -0.07400
C 	C 	0.72070 0.43190 0.69650 -0.09700
H 	H 	0.74720 0.41030 0.74580 0.07800
C 	C 	0.75810 0.45170 0.61500 0.15100
C 	C 	0.71930 0.48620 0.54410 -0.09700
H 	H 	0.74580 0.49920 0.49060 0.09200
C 	C 	0.59990 0.53980 0.47160 0.38500
C 	C 	0.59850 0.42180 0.78720 0.39300
C 	C 	0.87330 0.38680 0.65730 -0.12000
H 	H 	0.84410 0.33980 0.66200 0.08100
H 	H 	0.87850 0.40830 0.71890 0.07800
C 	C 	0.94920 0.37070 0.61850 0.19600
C 	C 	0.99680 0.42700 0.58670 -0.30000
H 	H 	0.98240 0.47820 0.58700 0.15800
C 	C 	0.07040 0.40280 0.55290 0.32600
H 	H 	0.10360 0.44140 0.53410 -0.07000
C 	C 	0.09410 0.33780 0.54620 -0.42000
H 	H 	0.14210 0.32700 0.52150 0.18700
C 	C 	0.04900 0.28430 0.57530 0.23300
H 	H 	0.06660 0.23410 0.57190 -0.03700
Pb	Pb	0.96624 0.12356 0.89710 1.32000
Pb	Pb	0.40365 0.41234 0.75793 1.32500
O 	O 	0.90760 0.01060 0.91690 -0.43100
O 	O 	0.87660 0.91250 0.00600 -0.40100
O 	O 	0.04050 0.93930 0.61780 -0.41500
O 	O 	0.97550 0.85620 0.53310 -0.40500
O 	O 	0.83840 0.69840 0.78360 -0.19900
O 	O 	0.05880 0.20510 0.83730 -0.35100
O 	O 	0.95570 0.26250 0.88680 -0.35500
O 	O 	0.28740 0.34710 0.75350 -0.36200
O 	O 	0.28390 0.46920 0.72260 -0.34500
O 	O 	0.01460 0.54550 0.84190 -0.19700
O 	O 	0.36510 0.45380 0.89540 -0.41000
O 	O 	0.46650 0.43830 0.98390 -0.42900
O 	O 	0.47070 0.59480 0.27890 -0.43800
O 	O 	0.36720 0.57700 0.36290 -0.41400
O 	O 	0.16530 0.56070 0.09890 -0.19000
N 	N 	0.80130 0.67410 0.54150 -0.14300
N 	N 	0.06440 0.63160 0.68330 -0.13600
N 	N 	0.02500 0.70360 0.11180 -0.17200
C 	C 	0.90200 0.88730 0.84670 -0.05300
C 	C 	0.94110 0.91190 0.76930 -0.00600
H 	H 	0.96380 0.96000 0.76820 0.04000
C 	C 	0.94620 0.86370 0.69290 -0.05300
C 	C 	0.90980 0.79150 0.69470 -0.11600
H 	H 	0.91050 0.76040 0.64250 0.09400
C 	C 	0.87320 0.76730 0.77380 0.17100
C 	C 	0.86860 0.81570 0.85030 -0.10600
H 	H 	0.84320 0.79980 0.90350 0.08700
C 	C 	0.89620 0.94130 0.92860 0.37200
C 	C 	0.98970 0.88770 0.60890 0.35800
C 	C 	0.83590 0.64630 0.70710 -0.10000
H 	H 	0.82290 0.59570 0.72970 0.08200
H 	H 	0.88620 0.64350 0.67900 0.08000
C 	C 	0.77960 0.66940 0.63630 0.15000
C 	C 	0.70210 0.68430 0.65370 -0.23500
H 	H 	0.68340 0.68100 0.71380 0.12800
C 	C 	0.65530 0.70320 0.58490 0.19400
H 	H 	0.60520 0.71510 0.60110 -0.02300
C 	C 	0.67180 0.70690 0.49880 -0.24500
H 	H 	0.63580 0.71920 0.45380 0.12000
C 	C 	0.74570 0.69150 0.47810 0.13100
H 	H 	0.75990 0.69280 0.41610 0.00500
C 	C 	0.05850 0.34200 0.83160 -0.00100
C 	C 	0.13120 0.34230 0.79590 -0.06000
H 	H 	0.15640 0.29640 0.78430 0.07500
C 	C 	0.16700 0.41180 0.77710 0.00900
C 	C 	0.13150 0.47940 0.79350 -0.14900
H 	H 	0.15710 0.52530 0.78310 0.10300
C 	C 	0.05660 0.47970 0.82600 0.18900
C 	C 	0.02010 0.41140 0.84740 -0.13800
H 	H 	0.97090 0.41160 0.87200 0.09800
C 	C 	0.02050 0.26760 0.85240 0.28000
C 	C 	0.24990 0.40920 0.74660 0.27000
C 	C 	0.05400 0.61620 0.85840 -0.08000
H 	H 	0.10080 0.60530 0.89210 0.06700
H 	H 	0.02220 0.64820 0.89760 0.07400
C 	C 	0.07400 0.66020 0.77260 0.13300
C 	C 	0.10380 0.73360 0.78040 -0.19700
H 	H 	0.11100 0.75560 0.83840 0.10800
C 	C 	0.12250 0.77340 0.70190 0.13700
H 	H 	0.14220 0.82250 0.70880 0.00100
C 	C 	0.11440 0.74690 0.61860 -0.20300
H 	H 	0.12770 0.77570 0.56690 0.09700
C 	C 	0.08680 0.67830 0.61110 0.11300
H 	H 	0.08160 0.65880 0.55160 0.00800
C 	C 	0.35800 0.49780 0.04920 -0.06700
C 	C 	0.39750 0.52090 0.13000 0.01200
H 	H 	0.45010 0.51330 0.13420 0.03600
C 	C 	0.35910 0.55430 0.20200 -0.07400
C 	C 	0.27930 0.56810 0.19650 -0.09600
H 	H 	0.25280 0.58970 0.24580 0.07800
C 	C 	0.24190 0.54830 0.11500 0.14900
C 	C 	0.28070 0.51380 0.04410 -0.09100
H 	H 	0.25420 0.50080 0.99060 0.08800
C 	C 	0.40010 0.46020 0.97160 0.38300
C 	C 	0.40150 0.57820 0.28720 0.39200
C 	C 	0.12670 0.61320 0.15730 -0.12400
H 	H 	0.15590 0.66020 0.16200 0.08200
H 	H 	0.12150 0.59170 0.21890 0.08000
C 	C 	0.05080 0.62930 0.11850 0.20100
C 	C 	0.00320 0.57300 0.08670 -0.31000
H 	H 	0.01760 0.52180 0.08700 0.16100
C 	C 	0.92960 0.59720 0.05290 0.34100
H 	H 	0.89640 0.55860 0.03410 -0.07400
C 	C 	0.90590 0.66220 0.04620 -0.43500
H 	H 	0.85790 0.67300 0.02150 0.19300
C 	C 	0.95100 0.71570 0.07530 0.24300
H 	H 	0.93340 0.76590 0.07190 -0.04000
Pb	Pb	0.12356 0.03376 0.64710 1.32200
Pb	Pb	0.41234 0.59636 0.50793 1.32600
O 	O 	0.01060 0.09240 0.66690 -0.42800
O 	O 	0.91250 0.12340 0.75600 -0.40500
O 	O 	0.93930 0.95950 0.36780 -0.41600
O 	O 	0.85620 0.02450 0.28310 -0.40500
O 	O 	0.69840 0.16160 0.53360 -0.19800
O 	O 	0.20510 0.94120 0.58730 -0.35000
O 	O 	0.26250 0.04430 0.63680 -0.35200
O 	O 	0.34710 0.71260 0.50350 -0.36200
O 	O 	0.46920 0.71610 0.47260 -0.34500
O 	O 	0.54550 0.98540 0.59190 -0.19700
O 	O 	0.45380 0.63490 0.64540 -0.41000
O 	O 	0.43830 0.53350 0.73390 -0.42800
O 	O 	0.59480 0.52930 0.02890 -0.43800
O 	O 	0.57700 0.63280 0.11290 -0.41400
O 	O 	0.56070 0.83470 0.84890 -0.19200
N 	N 	0.67410 0.19870 0.29150 -0.14300
N 	N 	0.63160 0.93560 0.43330 -0.13700
N 	N 	0.70360 0.97500 0.86180 -0.16600
C 	C 	0.88730 0.09800 0.59670 -0.05300
C 	C 	0.91190 0.05890 0.51930 -0.00500
H 	H 	0.96000 0.03620 0.51820 0.04000
C 	C 	0.86370 0.05380 0.44290 -0.05300
C 	C 	0.79150 0.09020 0.44470 -0.11500
H 	H 	0.76040 0.08950 0.39250 0.09400
C 	C 	0.76730 0.12680 0.52380 0.17000
C 	C 	0.81570 0.13140 0.60030 -0.10500
H 	H 	0.79980 0.15680 0.65350 0.08800
C 	C 	0.94130 0.10380 0.67860 0.37500
C 	C 	0.88770 0.01030 0.35890 0.35900
C 	C 	0.64630 0.16410 0.45710 -0.10000
H 	H 	0.59570 0.17710 0.47970 0.08200
H 	H 	0.64350 0.11380 0.42900 0.08000
C 	C 	0.66940 0.22040 0.38630 0.15000
C 	C 	0.68430 0.29790 0.40370 -0.23600
H 	H 	0.68100 0.31660 0.46380 0.12900
C 	C 	0.70320 0.34470 0.33490 0.19500
H 	H 	0.71510 0.39480 0.35110 -0.02300
C 	C 	0.70690 0.32820 0.24880 -0.24500
H 	H 	0.71920 0.36420 0.20380 0.12000
C 	C 	0.69150 0.25430 0.22810 0.13100
H 	H 	0.69280 0.24010 0.16610 0.00500
C 	C 	0.34200 0.94150 0.58160 0.00200
C 	C 	0.34230 0.86880 0.54590 -0.06100
H 	H 	0.29640 0.84360 0.53430 0.07600
C 	C 	0.41180 0.83300 0.52710 0.01000
C 	C 	0.47940 0.86850 0.54350 -0.15000
H 	H 	0.52530 0.84290 0.53310 0.10300
C 	C 	0.47970 0.94340 0.57600 0.19100
C 	C 	0.41140 0.97990 0.59740 -0.14200
H 	H 	0.41160 0.02910 0.62200 0.10100
C 	C 	0.26760 0.97950 0.60240 0.27800
C 	C 	0.40920 0.75010 0.49660 0.27000
C 	C 	0.61620 0.94600 0.60840 -0.08100
H 	H 	0.60530 0.89920 0.64210 0.06800
H 	H 	0.64820 0.97780 0.64760 0.07500
C 	C 	0.66020 0.92600 0.52260 0.13300
C 	C 	0.73360 0.89620 0.53040 -0.19700
H 	H 	0.75560 0.88900 0.58840 0.10900
C 	C 	0.77340 0.87750 0.45190 0.13700
H 	H 	0.82250 0.85780 0.45880 0.00000
C 	C 	0.74690 0.88560 0.36860 -0.20400
H 	H 	0.77570 0.87230 0.31690 0.09700
C 	C 	0.67830 0.91320 0.36110 0.11300
H 	H 	0.65880 0.91840 0.30160 0.00800
C 	C 	0.49780 0.64200 0.79920 -0.07000
C 	C 	0.52090 0.60250 0.88000 0.01500
H 	H 	0.51330 0.54990 0.88420 0.03400
C 	C 	0.55430 0.64090 0.95200 -0.07900
C 	C 	0.56810 0.72070 0.94650 -0.09500
H 	H 	0.58970 0.74720 0.99580 0.07600
C 	C 	0.54830 0.75810 0.86500 0.15000
C 	C 	0.51380 0.71930 0.79410 -0.09500
H 	H 	0.50080 0.74580 0.74060 0.09200
C 	C 	0.46020 0.59990 0.72160 0.38600
C 	C 	0.57820 0.59850 0.03720 0.39700
C 	C 	0.61320 0.87330 0.90730 -0.11700
H 	H 	0.66020 0.84410 0.91200 0.08000
H 	H 	0.59170 0.87850 0.96890 0.07700
C 	C 	0.62930 0.94920 0.86850 0.19200
C 	C 	0.57300 0.99680 0.83670 -0.29100
H 	H 	0.52180 0.98240 0.83700 0.15500
C 	C 	0.59720 0.07040 0.80290 0.31200
H 	H 	0.55860 0.10360 0.78410 -0.06600
C 	C 	0.66220 0.09410 0.79620 -0.40700
H 	H 	0.67300 0.14210 0.77150 0.18100
C 	C 	0.71570 0.04900 0.82530 0.22300
H 	H 	0.76590 0.06660 0.82190 -0.03500
Pb	Pb	0.87644 0.96624 0.14710 1.32200
Pb	Pb	0.58766 0.40365 0.00793 1.32700
O 	O 	0.98940 0.90760 0.16690 -0.42700
O 	O 	0.08750 0.87660 0.25600 -0.40500
O 	O 	0.06070 0.04050 0.86780 -0.41700
O 	O 	0.14380 0.97550 0.78310 -0.40500
O 	O 	0.30160 0.83840 0.03360 -0.19600
O 	O 	0.79490 0.05880 0.08730 -0.34900
O 	O 	0.73750 0.95570 0.13680 -0.35100
O 	O 	0.65290 0.28740 0.00350 -0.35500
O 	O 	0.53080 0.28390 0.97260 -0.34400
O 	O 	0.45450 0.01460 0.09190 -0.19800
O 	O 	0.54620 0.36510 0.14540 -0.40900
O 	O 	0.56170 0.46650 0.23390 -0.42800
O 	O 	0.40520 0.47070 0.52890 -0.43800
O 	O 	0.42300 0.36720 0.61290 -0.41400
O 	O 	0.43930 0.16530 0.34890 -0.19200
N 	N 	0.32590 0.80130 0.79150 -0.14300
N 	N 	0.36840 0.06440 0.93330 -0.13800
N 	N 	0.29640 0.02500 0.36180 -0.16800
C 	C 	0.11270 0.90200 0.09670 -0.05300
C 	C 	0.08810 0.94110 0.01930 -0.00400
H 	H 	0.04000 0.96380 0.01820 0.04000
C 	C 	0.13630 0.94620 0.94290 -0.05400
C 	C 	0.20850 0.90980 0.94470 -0.11700
H 	H 	0.23960 0.91050 0.89250 0.09500
C 	C 	0.23270 0.87320 0.02380 0.17200
C 	C 	0.18430 0.86860 0.10030 -0.10600
H 	H 	0.20020 0.84320 0.15350 0.08900
C 	C 	0.05870 0.89620 0.17860 0.37400
C 	C 	0.11230 0.98970 0.85890 0.36100
C 	C 	0.35370 0.83590 0.95710 -0.10300
H 	H 	0.40430 0.82290 0.97970 0.08200
H 	H 	0.35650 0.88620 0.92900 0.08100
C 	C 	0.33060 0.77960 0.88630 0.15100
C 	C 	0.31570 0.70210 0.90370 -0.23600
H 	H 	0.31900 0.68340 0.96380 0.12800
C 	C 	0.29680 0.65530 0.83490 0.19400
H 	H 	0.28490 0.60520 0.85110 -0.02300
C 	C 	0.29310 0.67180 0.74880 -0.24500
H 	H 	0.28080 0.63580 0.70380 0.12000
C 	C 	0.30850 0.74570 0.72810 0.13100
H 	H 	0.30720 0.75990 0.66610 0.00500
C 	C 	0.65800 0.05850 0.08160 0.00600
C 	C 	0.65770 0.13120 0.04590 -0.06700
H 	H 	0.70360 0.15640 0.03430 0.07900
C 	C 	0.58820 0.16700 0.02710 0.02100
C 	C 	0.52060 0.13150 0.04350 -0.15600
H 	H 	0.47470 0.15710 0.03310 0.10700
C 	C 	0.52030 0.05660 0.07600 0.19500
C 	C 	0.58860 0.02010 0.09740 -0.14400
H 	H 	0.58840 0.97090 0.12200 0.10300
C 	C 	0.73240 0.02050 0.10240 0.27700
C 	C 	0.59080 0.24990 0.99660 0.25700
C 	C 	0.38380 0.05400 0.10840 -0.07900
H 	H 	0.39470 0.10080 0.14210 0.06700
H 	H 	0.35180 0.02220 0.14760 0.07500
C 	C 	0.33980 0.07400 0.02260 0.13200
C 	C 	0.26640 0.10380 0.03040 -0.18600
H 	H 	0.24440 0.11100 0.08840 0.10500
C 	C 	0.22660 0.12250 0.95190 0.12200
H 	H 	0.17750 0.14220 0.95880 0.00500
C 	C 	0.25310 0.11440 0.86860 -0.19200
H 	H 	0.22430 0.12770 0.81690 0.09300
C 	C 	0.32170 0.08680 0.86110 0.10600
H 	H 	0.34120 0.08160 0.80160 0.01000
C 	C 	0.50220 0.35800 0.29920 -0.06800
C 	C 	0.47910 0.39750 0.38000 0.01100
H 	H 	0.48670 0.45010 0.38420 0.03600
C 	C 	0.44570 0.35910 0.45200 -0.07300
C 	C 	0.43190 0.27930 0.44650 -0.09800
H 	H 	0.41030 0.25280 0.49580 0.07800
C 	C 	0.45170 0.24190 0.36500 0.15100
C 	C 	0.48620 0.28070 0.29410 -0.09700
H 	H 	0.49920 0.25420 0.24060 0.09200
C 	C 	0.53980 0.40010 0.22160 0.38500
C 	C 	0.42180 0.40150 0.53720 0.39200
C 	C 	0.38680 0.12670 0.40730 -0.11900
H 	H 	0.33980 0.15590 0.41200 0.08100
H 	H 	0.40830 0.12150 0.46890 0.07800
C 	C 	0.37070 0.05080 0.36850 0.19500
C 	C 	0.42700 0.00320 0.33670 -0.29700
H 	H 	0.47820 0.01760 0.33700 0.15700
C 	C 	0.40280 0.92960 0.30290 0.32100
H 	H 	0.44140 0.89640 0.28410 -0.06900
C 	C 	0.33780 0.90590 0.29620 -0.41600
H 	H 	0.32700 0.85790 0.27150 0.18500
C 	C 	0.28430 0.95100 0.32530 0.23000
H 	H 	0.23410 0.93340 0.32190 -0.03600
