data_crystal

_cell_length_a 27.31950
_cell_length_b 27.31950
_cell_length_c 27.31950
_cell_angle_alpha 90.00000
_cell_angle_beta  90.00000
_cell_angle_gamma 90.00000

_symmetry_space_group_name_	'P 1'
_symmetry_space_group_name_H-M	'P 1'

loop_
_symmetry_equiv_pos_as_xyz
  x,y,z

loop_
_atom_site_label
_atom_site_type_symbol
_atom_site_fract_x
_atom_site_fract_y
_atom_site_fract_z
_atom_site_charge
Ce	Ce	0.40251 0.00000 0.50000 2.15600
Ce	Ce	0.90251 0.00000 -0.00000 2.12400
Ce	Ce	0.90251 0.50000 0.50000 2.19000
Ce	Ce	0.59749 0.00000 0.50000 2.15600
Ce	Ce	0.09749 0.00000 -0.00000 2.12200
Ce	Ce	0.09749 0.50000 0.50000 2.18900
Ce	Ce	0.59749 0.50000 -0.00000 2.15600
Ce	Ce	0.40251 0.50000 -0.00000 2.15700
Ce	Ce	0.50000 0.40251 -0.00000 2.15700
Ce	Ce	0.50000 0.90251 0.50000 2.19100
Ce	Ce	0.50000 0.59749 -0.00000 2.15700
Ce	Ce	0.50000 0.09749 0.50000 2.19000
Ce	Ce	0.00000 0.09749 -0.00000 2.12300
Ce	Ce	0.00000 0.90251 -0.00000 2.12500
Ce	Ce	0.00000 0.50000 0.40251 2.15700
Ce	Ce	0.00000 0.00000 0.90251 2.12500
Ce	Ce	0.50000 0.50000 0.90251 2.19100
Ce	Ce	-0.00000 0.50000 0.59749 2.15700
Ce	Ce	0.00000 0.00000 0.09749 2.12300
Ce	Ce	0.50000 0.50000 0.09749 2.19000
Ce	Ce	0.50000 0.00000 0.59749 2.15700
Ce	Ce	0.50000 0.00000 0.40251 2.15700
Ce	Ce	0.00000 0.40251 0.50000 2.15700
Ce	Ce	-0.00000 0.59749 0.50000 2.15700
O 	O 	0.36342 0.00000 0.42183 -0.51600
C 	C 	0.29150 0.00000 0.35484 0.06000
C 	C 	0.25548 -0.00000 0.31806 -0.04400
N 	N 	0.31806 0.00000 0.25548 -0.12700
O 	O 	0.36342 0.50000 0.92183 -0.43800
C 	C 	0.29150 0.50000 0.85484 0.10800
C 	C 	0.25548 0.50000 0.81806 -0.01300
N 	N 	0.31806 0.50000 0.75548 -0.11600
O 	O 	0.86342 0.00000 0.92183 -0.46000
C 	C 	0.79150 0.00000 0.85484 0.09600
C 	C 	0.75548 0.00000 0.81806 -0.02300
N 	N 	0.81806 0.00000 0.75548 -0.11700
O 	O 	0.86342 0.50000 0.42183 -0.47900
C 	C 	0.79150 0.50000 0.35484 0.08800
C 	C 	0.75548 0.50000 0.31806 -0.02300
N 	N 	0.81806 0.50000 0.25548 -0.11200
O 	O 	0.63658 0.00000 0.42183 -0.51300
C 	C 	0.70850 0.00000 0.35484 0.06700
C 	C 	0.74452 -0.00000 0.31806 -0.02700
N 	N 	0.68194 0.00000 0.25548 -0.12500
O 	O 	0.63658 0.50000 0.92183 -0.43500
C 	C 	0.70850 0.50000 0.85484 0.11600
C 	C 	0.74452 0.50000 0.81806 0.00400
N 	N 	0.68194 0.50000 0.75548 -0.11500
O 	O 	0.13658 0.00000 0.92183 -0.46600
C 	C 	0.20850 0.00000 0.85484 0.08900
C 	C 	0.24452 0.00000 0.81806 -0.02500
N 	N 	0.18194 0.00000 0.75548 -0.12500
O 	O 	0.13658 0.50000 0.42183 -0.48600
C 	C 	0.20850 0.50000 0.35484 0.08100
C 	C 	0.24452 0.50000 0.31806 -0.02500
N 	N 	0.18194 0.50000 0.25548 -0.12100
O 	O 	0.63658 0.00000 0.57817 -0.51200
C 	C 	0.70850 0.00000 0.64516 0.07000
C 	C 	0.74452 0.00000 0.68194 -0.02600
N 	N 	0.68194 0.00000 0.74452 -0.11800
O 	O 	0.63658 0.50000 0.07817 -0.48800
C 	C 	0.70850 0.50000 0.14516 0.08300
C 	C 	0.74452 0.50000 0.18194 -0.01600
N 	N 	0.68194 0.50000 0.24452 -0.11700
O 	O 	0.13658 0.00000 0.07817 -0.52000
C 	C 	0.20850 0.00000 0.14516 0.05600
C 	C 	0.24452 0.00000 0.18194 -0.04400
N 	N 	0.18194 0.00000 0.24452 -0.12700
O 	O 	0.13658 0.50000 0.57817 -0.48600
C 	C 	0.20850 0.50000 0.64516 0.08400
C 	C 	0.24452 0.50000 0.68194 -0.02300
N 	N 	0.18194 0.50000 0.74452 -0.11400
O 	O 	0.36342 0.00000 0.57817 -0.51600
C 	C 	0.29150 0.00000 0.64516 0.06300
C 	C 	0.25548 0.00000 0.68194 -0.04200
N 	N 	0.31806 0.00000 0.74452 -0.12000
O 	O 	0.36342 0.50000 0.07817 -0.49200
C 	C 	0.29150 0.50000 0.14516 0.07500
C 	C 	0.25548 0.50000 0.18194 -0.03300
N 	N 	0.31806 0.50000 0.24452 -0.11800
O 	O 	0.86342 0.00000 0.07817 -0.51300
C 	C 	0.79150 0.00000 0.14516 0.06300
C 	C 	0.75548 0.00000 0.18194 -0.04200
N 	N 	0.81806 0.00000 0.24452 -0.11900
O 	O 	0.86342 0.50000 0.57817 -0.47900
C 	C 	0.79150 0.50000 0.64516 0.09100
C 	C 	0.75548 0.50000 0.68194 -0.02100
N 	N 	0.81806 0.50000 0.74452 -0.10500
O 	O 	0.42183 0.36342 -0.00000 -0.51600
C 	C 	0.35484 0.29150 -0.00000 0.06000
C 	C 	0.31806 0.25548 -0.00000 -0.04400
N 	N 	0.25548 0.31806 -0.00000 -0.12700
O 	O 	0.42183 0.86342 0.50000 -0.47900
C 	C 	0.35484 0.79150 0.50000 0.08800
C 	C 	0.31806 0.75548 0.50000 -0.02300
N 	N 	0.25548 0.81806 0.50000 -0.11200
O 	O 	0.92183 0.36342 0.50000 -0.43800
C 	C 	0.85484 0.29150 0.50000 0.10800
C 	C 	0.81806 0.25548 0.50000 -0.01300
N 	N 	0.75548 0.31806 0.50000 -0.11600
O 	O 	0.92183 0.86342 -0.00000 -0.46000
C 	C 	0.85484 0.79150 -0.00000 0.09600
C 	C 	0.81806 0.75548 -0.00000 -0.02300
N 	N 	0.75548 0.81806 -0.00000 -0.11700
O 	O 	0.42183 0.63658 -0.00000 -0.51300
C 	C 	0.35484 0.70850 -0.00000 0.06700
C 	C 	0.31806 0.74452 -0.00000 -0.02700
N 	N 	0.25548 0.68194 -0.00000 -0.12500
O 	O 	0.42183 0.13658 0.50000 -0.48600
C 	C 	0.35484 0.20850 0.50000 0.08100
C 	C 	0.31806 0.24452 0.50000 -0.02500
N 	N 	0.25548 0.18194 0.50000 -0.12100
O 	O 	0.92183 0.63658 0.50000 -0.43500
C 	C 	0.85484 0.70850 0.50000 0.11600
C 	C 	0.81806 0.74452 0.50000 0.00400
N 	N 	0.75548 0.68194 0.50000 -0.11500
O 	O 	0.92183 0.13658 -0.00000 -0.46600
C 	C 	0.85484 0.20850 -0.00000 0.08900
C 	C 	0.81806 0.24452 -0.00000 -0.02500
N 	N 	0.75548 0.18194 -0.00000 -0.12500
O 	O 	0.57817 0.63658 -0.00000 -0.51200
C 	C 	0.64516 0.70850 -0.00000 0.07000
C 	C 	0.68194 0.74452 -0.00000 -0.02600
N 	N 	0.74452 0.68194 -0.00000 -0.11800
O 	O 	0.57817 0.13658 0.50000 -0.48600
C 	C 	0.64516 0.20850 0.50000 0.08400
C 	C 	0.68194 0.24452 0.50000 -0.02300
N 	N 	0.74452 0.18194 0.50000 -0.11400
O 	O 	0.07817 0.63658 0.50000 -0.48800
C 	C 	0.14516 0.70850 0.50000 0.08300
C 	C 	0.18194 0.74452 0.50000 -0.01600
N 	N 	0.24452 0.68194 0.50000 -0.11700
O 	O 	0.07817 0.13658 -0.00000 -0.52000
C 	C 	0.14516 0.20850 -0.00000 0.05600
C 	C 	0.18194 0.24452 -0.00000 -0.04400
N 	N 	0.24452 0.18194 -0.00000 -0.12700
O 	O 	0.57817 0.36342 -0.00000 -0.51600
C 	C 	0.64516 0.29150 -0.00000 0.06300
C 	C 	0.68194 0.25548 -0.00000 -0.04200
N 	N 	0.74452 0.31806 -0.00000 -0.12000
O 	O 	0.57817 0.86342 0.50000 -0.47900
C 	C 	0.64516 0.79150 0.50000 0.09100
C 	C 	0.68194 0.75548 0.50000 -0.02100
N 	N 	0.74452 0.81806 0.50000 -0.10500
O 	O 	0.07817 0.36342 0.50000 -0.49200
C 	C 	0.14516 0.29150 0.50000 0.07500
C 	C 	0.18194 0.25548 0.50000 -0.03300
N 	N 	0.24452 0.31806 0.50000 -0.11800
O 	O 	0.07817 0.86342 -0.00000 -0.51300
C 	C 	0.14516 0.79150 -0.00000 0.06300
C 	C 	0.18194 0.75548 -0.00000 -0.04200
N 	N 	0.24452 0.81806 -0.00000 -0.11900
O 	O 	0.00000 0.42183 0.36342 -0.51600
C 	C 	0.00000 0.35484 0.29150 0.06000
C 	C 	0.00000 0.31806 0.25548 -0.04400
N 	N 	0.00000 0.25548 0.31806 -0.12700
O 	O 	0.00000 0.92183 0.86342 -0.46000
C 	C 	0.00000 0.85484 0.79150 0.09600
C 	C 	0.00000 0.81806 0.75548 -0.02300
N 	N 	0.00000 0.75548 0.81806 -0.11700
O 	O 	0.50000 0.42183 0.86342 -0.47900
C 	C 	0.50000 0.35484 0.79150 0.08800
C 	C 	0.50000 0.31806 0.75548 -0.02300
N 	N 	0.50000 0.25548 0.81806 -0.11200
O 	O 	0.50000 0.92183 0.36342 -0.43800
C 	C 	0.50000 0.85484 0.29150 0.10800
C 	C 	0.50000 0.81806 0.25548 -0.01300
N 	N 	0.50000 0.75548 0.31806 -0.11600
O 	O 	0.00000 0.42183 0.63658 -0.51300
C 	C 	-0.00000 0.35484 0.70850 0.06700
C 	C 	0.00000 0.31806 0.74452 -0.02700
N 	N 	0.00000 0.25548 0.68194 -0.12500
O 	O 	0.00000 0.92183 0.13658 -0.46600
C 	C 	0.00000 0.85484 0.20850 0.08900
C 	C 	0.00000 0.81806 0.24452 -0.02500
N 	N 	0.00000 0.75548 0.18194 -0.12500
O 	O 	0.50000 0.42183 0.13658 -0.48600
C 	C 	0.50000 0.35484 0.20850 0.08100
C 	C 	0.50000 0.31806 0.24452 -0.02500
N 	N 	0.50000 0.25548 0.18194 -0.12100
O 	O 	0.50000 0.92183 0.63658 -0.43500
C 	C 	0.50000 0.85484 0.70850 0.11600
C 	C 	0.50000 0.81806 0.74452 0.00400
N 	N 	0.50000 0.75548 0.68194 -0.11500
O 	O 	-0.00000 0.57817 0.63658 -0.51200
C 	C 	0.00000 0.64516 0.70850 0.07000
C 	C 	0.00000 0.68194 0.74452 -0.02600
N 	N 	0.00000 0.74452 0.68194 -0.11800
O 	O 	0.00000 0.07817 0.13658 -0.52000
C 	C 	0.00000 0.14516 0.20850 0.05600
C 	C 	0.00000 0.18194 0.24452 -0.04400
N 	N 	0.00000 0.24452 0.18194 -0.12700
O 	O 	0.50000 0.57817 0.13658 -0.48600
C 	C 	0.50000 0.64516 0.20850 0.08400
C 	C 	0.50000 0.68194 0.24452 -0.02300
N 	N 	0.50000 0.74452 0.18194 -0.11400
O 	O 	0.50000 0.07817 0.63658 -0.48800
C 	C 	0.50000 0.14516 0.70850 0.08300
C 	C 	0.50000 0.18194 0.74452 -0.01600
N 	N 	0.50000 0.24452 0.68194 -0.11700
O 	O 	0.00000 0.57817 0.36342 -0.51600
C 	C 	0.00000 0.64516 0.29150 0.06300
C 	C 	0.00000 0.68194 0.25548 -0.04200
N 	N 	0.00000 0.74452 0.31806 -0.12000
O 	O 	0.00000 0.07817 0.86342 -0.51300
C 	C 	0.00000 0.14516 0.79150 0.06300
C 	C 	0.00000 0.18194 0.75548 -0.04200
N 	N 	0.00000 0.24452 0.81806 -0.11900
O 	O 	0.50000 0.57817 0.86342 -0.47900
C 	C 	0.50000 0.64516 0.79150 0.09100
C 	C 	0.50000 0.68194 0.75548 -0.02100
N 	N 	0.50000 0.74452 0.81806 -0.10500
O 	O 	0.50000 0.07817 0.36342 -0.49200
C 	C 	0.50000 0.14516 0.29150 0.07500
C 	C 	0.50000 0.18194 0.25548 -0.03300
N 	N 	0.50000 0.24452 0.31806 -0.11800
O 	O 	0.00000 0.36342 0.57817 -0.51600
C 	C 	0.00000 0.29150 0.64516 0.09700
O 	O 	0.00000 0.86342 0.07817 -0.51400
C 	C 	0.00000 0.79150 0.14516 0.09800
O 	O 	0.50000 0.36342 0.07817 -0.49300
C 	C 	0.50000 0.29150 0.14516 0.11300
O 	O 	0.50000 0.86342 0.57817 -0.48000
C 	C 	0.50000 0.79150 0.64516 0.13000
O 	O 	-0.00000 0.63658 0.57817 -0.51300
C 	C 	0.00000 0.70850 0.64516 0.11000
O 	O 	0.00000 0.13658 0.07817 -0.52000
C 	C 	0.00000 0.20850 0.14516 0.09100
O 	O 	0.50000 0.63658 0.07817 -0.48900
C 	C 	0.50000 0.70850 0.14516 0.12500
O 	O 	0.50000 0.13658 0.57817 -0.48600
C 	C 	0.50000 0.20850 0.64516 0.12300
O 	O 	0.00000 0.63658 0.42183 -0.51400
C 	C 	0.00000 0.70850 0.35484 0.10700
O 	O 	0.00000 0.13658 0.92183 -0.46700
C 	C 	0.00000 0.20850 0.85484 0.12900
O 	O 	0.50000 0.63658 0.92183 -0.43600
C 	C 	0.50000 0.70850 0.85484 0.16300
O 	O 	0.50000 0.13658 0.42183 -0.48700
C 	C 	0.50000 0.20850 0.35484 0.12100
O 	O 	0.00000 0.36342 0.42183 -0.51700
C 	C 	0.00000 0.29150 0.35484 0.09500
O 	O 	0.00000 0.86342 0.92183 -0.46100
C 	C 	0.00000 0.79150 0.85484 0.13600
O 	O 	0.50000 0.36342 0.92183 -0.43900
C 	C 	0.50000 0.29150 0.85484 0.15100
O 	O 	0.50000 0.86342 0.42183 -0.48000
C 	C 	0.50000 0.79150 0.35484 0.12800
O 	O 	0.36342 0.42183 -0.00000 -0.51700
C 	C 	0.29150 0.35484 -0.00000 0.09500
O 	O 	0.36342 0.92183 0.50000 -0.43900
C 	C 	0.29150 0.85484 0.50000 0.15100
O 	O 	0.86342 0.42183 0.50000 -0.48000
C 	C 	0.79150 0.35484 0.50000 0.12800
O 	O 	0.86342 0.92183 -0.00000 -0.46100
C 	C 	0.79150 0.85484 -0.00000 0.13600
O 	O 	0.63658 0.42183 -0.00000 -0.51400
C 	C 	0.70850 0.35484 -0.00000 0.10700
O 	O 	0.63658 0.92183 0.50000 -0.43600
C 	C 	0.70850 0.85484 0.50000 0.16300
O 	O 	0.13658 0.42183 0.50000 -0.48700
C 	C 	0.20850 0.35484 0.50000 0.12100
O 	O 	0.13658 0.92183 -0.00000 -0.46700
C 	C 	0.20850 0.85484 -0.00000 0.12900
O 	O 	0.63658 0.57817 -0.00000 -0.51300
C 	C 	0.70850 0.64516 -0.00000 0.11000
O 	O 	0.63658 0.07817 0.50000 -0.48900
C 	C 	0.70850 0.14516 0.50000 0.12500
O 	O 	0.13658 0.57817 0.50000 -0.48600
C 	C 	0.20850 0.64516 0.50000 0.12300
O 	O 	0.13658 0.07817 -0.00000 -0.52000
C 	C 	0.20850 0.14516 -0.00000 0.09100
O 	O 	0.36342 0.57817 -0.00000 -0.51600
C 	C 	0.29150 0.64516 -0.00000 0.09700
O 	O 	0.36342 0.07817 0.50000 -0.49300
C 	C 	0.29150 0.14516 0.50000 0.11300
O 	O 	0.86342 0.57817 0.50000 -0.48000
C 	C 	0.79150 0.64516 0.50000 0.13000
O 	O 	0.86342 0.07817 -0.00000 -0.51400
C 	C 	0.79150 0.14516 -0.00000 0.09800
O 	O 	0.42183 0.00000 0.63658 -0.51400
C 	C 	0.35484 0.00000 0.70850 0.10700
O 	O 	0.42183 0.50000 0.13658 -0.48700
C 	C 	0.35484 0.50000 0.20850 0.12100
O 	O 	0.92183 0.00000 0.13658 -0.46700
C 	C 	0.85484 0.00000 0.20850 0.12900
O 	O 	0.92183 0.50000 0.63658 -0.43600
C 	C 	0.85484 0.50000 0.70850 0.16300
O 	O 	0.42183 0.00000 0.36342 -0.51700
C 	C 	0.35484 0.00000 0.29150 0.09500
O 	O 	0.42183 0.50000 0.86342 -0.48000
C 	C 	0.35484 0.50000 0.79150 0.12800
O 	O 	0.92183 0.00000 0.86342 -0.46100
C 	C 	0.85484 0.00000 0.79150 0.13600
O 	O 	0.92183 0.50000 0.36342 -0.43900
C 	C 	0.85484 0.50000 0.29150 0.15100
O 	O 	0.57817 0.00000 0.36342 -0.51600
C 	C 	0.64516 0.00000 0.29150 0.09700
O 	O 	0.57817 0.50000 0.86342 -0.48000
C 	C 	0.64516 0.50000 0.79150 0.13000
O 	O 	0.07817 0.00000 0.86342 -0.51400
C 	C 	0.14516 0.00000 0.79150 0.09800
O 	O 	0.07817 0.50000 0.36342 -0.49300
C 	C 	0.14516 0.50000 0.29150 0.11300
O 	O 	0.57817 0.00000 0.63658 -0.51300
C 	C 	0.64516 0.00000 0.70850 0.11000
O 	O 	0.57817 0.50000 0.13658 -0.48600
C 	C 	0.64516 0.50000 0.20850 0.12300
O 	O 	0.07817 0.00000 0.13658 -0.52000
C 	C 	0.14516 0.00000 0.20850 0.09100
O 	O 	0.07817 0.50000 0.63658 -0.48900
C 	C 	0.14516 0.50000 0.70850 0.12500
O 	O 	0.45088 0.04912 0.54912 -0.81100
O 	O 	0.54912 0.95088 0.54912 -0.74000
O 	O 	0.54912 0.04912 0.45088 -0.81100
O 	O 	0.45088 0.95088 0.45088 -0.74000
O 	O 	0.54912 0.45088 0.04912 -0.81100
O 	O 	0.54912 0.54912 0.95088 -0.74000
O 	O 	0.45088 0.54912 0.04912 -0.81100
O 	O 	0.45088 0.45088 0.95088 -0.74000
O 	O 	0.04912 0.54912 0.45088 -0.81100
O 	O 	0.04912 0.04912 0.95088 -0.76800
O 	O 	0.95088 0.54912 0.54912 -0.74000
O 	O 	0.95088 0.04912 0.04912 -0.76800
O 	O 	0.04912 0.45088 0.54912 -0.81100
O 	O 	0.04912 0.95088 0.04912 -0.76800
O 	O 	0.95088 0.45088 0.45088 -0.74000
O 	O 	0.95088 0.95088 0.95088 -0.63200
O 	O 	0.04912 0.45088 0.45088 -0.81100
O 	O 	0.04912 0.95088 0.95088 -0.69900
O 	O 	0.95088 0.54912 0.45088 -0.74000
O 	O 	0.95088 0.04912 0.95088 -0.69900
O 	O 	0.04912 0.54912 0.54912 -0.81100
O 	O 	0.04912 0.04912 0.04912 -0.84000
O 	O 	0.95088 0.45088 0.54912 -0.74000
O 	O 	0.95088 0.95088 0.04912 -0.69900
O 	O 	0.45088 0.54912 0.95088 -0.74000
O 	O 	0.54912 0.54912 0.04912 -0.81100
O 	O 	0.54912 0.45088 0.95088 -0.74000
O 	O 	0.45088 0.45088 0.04912 -0.81100
O 	O 	0.54912 0.04912 0.54912 -0.81100
O 	O 	0.54912 0.95088 0.45088 -0.74000
O 	O 	0.45088 0.04912 0.45088 -0.81100
O 	O 	0.45088 0.95088 0.54912 -0.74000
C 	C 	0.37854 0.00000 0.37854 0.44300
C 	C 	0.33963 0.00000 0.33963 -0.16000
C 	C 	0.26993 0.00000 0.26993 0.05400
C 	C 	0.37854 0.50000 0.87854 0.44900
C 	C 	0.33963 0.50000 0.83963 -0.15400
C 	C 	0.26993 0.50000 0.76993 0.06600
C 	C 	0.87854 0.00000 0.87854 0.44200
C 	C 	0.83963 0.00000 0.83963 -0.15400
C 	C 	0.76993 0.00000 0.76993 0.06400
C 	C 	0.87854 0.50000 0.37854 0.44900
C 	C 	0.83963 0.50000 0.33963 -0.15500
C 	C 	0.76993 0.50000 0.26993 0.06900
C 	C 	0.62146 0.00000 0.37854 0.44400
C 	C 	0.66037 0.00000 0.33963 -0.16000
C 	C 	0.73007 0.00000 0.26993 0.05500
C 	C 	0.62146 0.50000 0.87854 0.45000
C 	C 	0.66037 0.50000 0.83963 -0.15400
C 	C 	0.73007 0.50000 0.76993 0.06600
C 	C 	0.12146 0.00000 0.87854 0.44300
C 	C 	0.16037 0.00000 0.83963 -0.15600
C 	C 	0.23007 0.00000 0.76993 0.05600
C 	C 	0.12146 0.50000 0.37854 0.45000
C 	C 	0.16037 0.50000 0.33963 -0.15700
C 	C 	0.23007 0.50000 0.26993 0.06100
C 	C 	0.62146 0.00000 0.62146 0.44600
C 	C 	0.66037 0.00000 0.66037 -0.16200
C 	C 	0.73007 0.00000 0.73007 0.06100
C 	C 	0.62146 0.50000 0.12146 0.45200
C 	C 	0.66037 0.50000 0.16037 -0.15800
C 	C 	0.73007 0.50000 0.23007 0.06400
C 	C 	0.12146 0.00000 0.12146 0.44500
C 	C 	0.16037 0.00000 0.16037 -0.15900
C 	C 	0.23007 0.00000 0.23007 0.05400
C 	C 	0.12146 0.50000 0.62146 0.45200
C 	C 	0.16037 0.50000 0.66037 -0.15900
C 	C 	0.23007 0.50000 0.73007 0.06700
C 	C 	0.37854 0.00000 0.62146 0.44500
C 	C 	0.33963 0.00000 0.66037 -0.16200
C 	C 	0.26993 0.00000 0.73007 0.06000
C 	C 	0.37854 0.50000 0.12146 0.45100
C 	C 	0.33963 0.50000 0.16037 -0.15800
C 	C 	0.26993 0.50000 0.23007 0.06300
C 	C 	0.87854 0.00000 0.12146 0.44400
C 	C 	0.83963 0.00000 0.16037 -0.15800
C 	C 	0.76993 0.00000 0.23007 0.06200
C 	C 	0.87854 0.50000 0.62146 0.45100
C 	C 	0.83963 0.50000 0.66037 -0.15700
C 	C 	0.76993 0.50000 0.73007 0.07500
C 	C 	0.37854 0.37854 -0.00000 0.44300
C 	C 	0.33963 0.33963 -0.00000 -0.16000
C 	C 	0.26993 0.26993 -0.00000 0.05400
C 	C 	0.37854 0.87854 0.50000 0.44900
C 	C 	0.33963 0.83963 0.50000 -0.15500
C 	C 	0.26993 0.76993 0.50000 0.06900
C 	C 	0.87854 0.37854 0.50000 0.44900
C 	C 	0.83963 0.33963 0.50000 -0.15400
C 	C 	0.76993 0.26993 0.50000 0.06600
C 	C 	0.87854 0.87854 -0.00000 0.44200
C 	C 	0.83963 0.83963 -0.00000 -0.15400
C 	C 	0.76993 0.76993 -0.00000 0.06400
C 	C 	0.37854 0.62146 -0.00000 0.44400
C 	C 	0.33963 0.66037 -0.00000 -0.16000
C 	C 	0.26993 0.73007 -0.00000 0.05500
C 	C 	0.37854 0.12146 0.50000 0.45000
C 	C 	0.33963 0.16037 0.50000 -0.15700
C 	C 	0.26993 0.23007 0.50000 0.06100
C 	C 	0.87854 0.62146 0.50000 0.45000
C 	C 	0.83963 0.66037 0.50000 -0.15400
C 	C 	0.76993 0.73007 0.50000 0.06600
C 	C 	0.87854 0.12146 -0.00000 0.44300
C 	C 	0.83963 0.16037 -0.00000 -0.15600
C 	C 	0.76993 0.23007 -0.00000 0.05600
C 	C 	0.62146 0.62146 -0.00000 0.44600
C 	C 	0.66037 0.66037 -0.00000 -0.16200
C 	C 	0.73007 0.73007 -0.00000 0.06100
C 	C 	0.62146 0.12146 0.50000 0.45200
C 	C 	0.66037 0.16037 0.50000 -0.15900
C 	C 	0.73007 0.23007 0.50000 0.06700
C 	C 	0.12146 0.62146 0.50000 0.45200
C 	C 	0.16037 0.66037 0.50000 -0.15800
C 	C 	0.23007 0.73007 0.50000 0.06400
C 	C 	0.12146 0.12146 -0.00000 0.44500
C 	C 	0.16037 0.16037 -0.00000 -0.15900
C 	C 	0.23007 0.23007 -0.00000 0.05400
C 	C 	0.62146 0.37854 -0.00000 0.44500
C 	C 	0.66037 0.33963 -0.00000 -0.16200
C 	C 	0.73007 0.26993 -0.00000 0.06000
C 	C 	0.62146 0.87854 0.50000 0.45100
C 	C 	0.66037 0.83963 0.50000 -0.15700
C 	C 	0.73007 0.76993 0.50000 0.07500
C 	C 	0.12146 0.37854 0.50000 0.45100
C 	C 	0.16037 0.33963 0.50000 -0.15800
C 	C 	0.23007 0.26993 0.50000 0.06300
C 	C 	0.12146 0.87854 -0.00000 0.44400
C 	C 	0.16037 0.83963 -0.00000 -0.15800
C 	C 	0.23007 0.76993 -0.00000 0.06200
C 	C 	0.00000 0.37854 0.37854 0.44300
C 	C 	0.00000 0.33963 0.33963 -0.16000
C 	C 	0.00000 0.26993 0.26993 0.05400
C 	C 	0.00000 0.87854 0.87854 0.44200
C 	C 	0.00000 0.83963 0.83963 -0.15400
C 	C 	0.00000 0.76993 0.76993 0.06400
C 	C 	0.50000 0.37854 0.87854 0.44900
C 	C 	0.50000 0.33963 0.83963 -0.15500
C 	C 	0.50000 0.26993 0.76993 0.06900
C 	C 	0.50000 0.87854 0.37854 0.44900
C 	C 	0.50000 0.83963 0.33963 -0.15400
C 	C 	0.50000 0.76993 0.26993 0.06600
C 	C 	0.00000 0.37854 0.62146 0.44400
C 	C 	-0.00000 0.33963 0.66037 -0.16000
C 	C 	0.00000 0.26993 0.73007 0.05500
C 	C 	0.00000 0.87854 0.12146 0.44300
C 	C 	0.00000 0.83963 0.16037 -0.15600
C 	C 	0.00000 0.76993 0.23007 0.05600
C 	C 	0.50000 0.37854 0.12146 0.45000
C 	C 	0.50000 0.33963 0.16037 -0.15700
C 	C 	0.50000 0.26993 0.23007 0.06100
C 	C 	0.50000 0.87854 0.62146 0.45000
C 	C 	0.50000 0.83963 0.66037 -0.15400
C 	C 	0.50000 0.76993 0.73007 0.06600
C 	C 	0.00000 0.62146 0.62146 0.44600
C 	C 	0.00000 0.66037 0.66037 -0.16200
C 	C 	0.00000 0.73007 0.73007 0.06100
C 	C 	0.00000 0.12146 0.12146 0.44500
C 	C 	0.00000 0.16037 0.16037 -0.15900
C 	C 	0.00000 0.23007 0.23007 0.05400
C 	C 	0.50000 0.62146 0.12146 0.45200
C 	C 	0.50000 0.66037 0.16037 -0.15900
C 	C 	0.50000 0.73007 0.23007 0.06700
C 	C 	0.50000 0.12146 0.62146 0.45200
C 	C 	0.50000 0.16037 0.66037 -0.15800
C 	C 	0.50000 0.23007 0.73007 0.06400
C 	C 	0.00000 0.62146 0.37854 0.44500
C 	C 	-0.00000 0.66037 0.33963 -0.16200
C 	C 	0.00000 0.73007 0.26993 0.06000
C 	C 	0.00000 0.12146 0.87854 0.44400
C 	C 	0.00000 0.16037 0.83963 -0.15800
C 	C 	0.00000 0.23007 0.76993 0.06200
C 	C 	0.50000 0.62146 0.87854 0.45100
C 	C 	0.50000 0.66037 0.83963 -0.15700
C 	C 	0.50000 0.73007 0.76993 0.07500
C 	C 	0.50000 0.12146 0.37854 0.45100
C 	C 	0.50000 0.16037 0.33963 -0.15800
C 	C 	0.50000 0.23007 0.26993 0.06300
