data_crystal

_cell_length_a 20.12400
_cell_length_b 7.03120
_cell_length_c 17.22740
_cell_angle_alpha 90.00000
_cell_angle_beta  90.00000
_cell_angle_gamma 90.00000

_symmetry_space_group_name_	'P 1'
_symmetry_space_group_name_H-M	'P 1'

loop_
_symmetry_equiv_pos_as_xyz
  x,y,z

loop_
_atom_site_label
_atom_site_type_symbol
_atom_site_fract_x
_atom_site_fract_y
_atom_site_fract_z
_atom_site_charge
Cu	Cu	0.50856 0.84551 0.59478 0.91700
O 	O 	0.42778 0.70450 0.55876 -0.36100
O 	O 	0.50707 0.77990 0.48281 -0.40700
O 	O 	0.48812 0.63010 0.20139 -0.39400
O 	O 	0.40764 0.44270 0.16102 -0.28500
N 	N 	0.10176 0.41290 0.39683 -0.23600
C 	C 	0.45157 0.70690 0.49152 0.31200
C 	C 	0.43531 0.53550 0.21189 0.32700
C 	C 	0.41301 0.62700 0.42602 -0.09400
C 	C 	0.44345 0.61130 0.35367 -0.00500
H 	H 	0.48790 0.64400 0.34700 0.05800
C 	C 	0.40589 0.54570 0.29220 -0.07800
C 	C 	0.34023 0.50240 0.30228 -0.01000
H 	H 	0.31590 0.45770 0.26020 0.04900
C 	C 	0.30879 0.52310 0.37373 -0.04000
C 	C 	0.34796 0.58490 0.43535 -0.00200
H 	H 	0.32890 0.59750 0.48420 0.04900
C 	C 	0.23753 0.48900 0.38229 0.11200
C 	C 	0.19454 0.49540 0.31957 -0.16600
H 	H 	0.21130 0.52450 0.27070 0.09700
C 	C 	0.12903 0.46040 0.32773 0.09900
H 	H 	0.10170 0.46920 0.28440 0.01100
C 	C 	0.14247 0.40760 0.45853 0.09300
H 	H 	0.12480 0.37710 0.50680 0.01100
C 	C 	0.20864 0.44510 0.45313 -0.16300
H 	H 	0.23480 0.44130 0.49760 0.09600
Cu	Cu	0.00856 0.15449 0.90521 0.91500
O 	O 	0.92778 0.29550 0.94124 -0.35200
O 	O 	0.00707 0.22010 0.01719 -0.39600
O 	O 	0.98812 0.36990 0.29861 -0.39400
O 	O 	0.90764 0.55730 0.33898 -0.28400
N 	N 	0.60176 0.58710 0.10317 -0.23400
C 	C 	0.95157 0.29310 0.00848 0.29800
C 	C 	0.93531 0.46450 0.28811 0.32700
C 	C 	0.91301 0.37300 0.07398 -0.08800
C 	C 	0.94345 0.38870 0.14633 -0.00900
H 	H 	0.98790 0.35600 0.15300 0.05800
C 	C 	0.90589 0.45430 0.20780 -0.07600
C 	C 	0.84023 0.49760 0.19772 -0.01200
H 	H 	0.81590 0.54230 0.23980 0.05000
C 	C 	0.80879 0.47690 0.12627 -0.03700
C 	C 	0.84796 0.41510 0.06465 -0.00600
H 	H 	0.82890 0.40250 0.01580 0.05000
C 	C 	0.73753 0.51100 0.11771 0.10900
C 	C 	0.69454 0.50460 0.18043 -0.16400
H 	H 	0.71130 0.47550 0.22930 0.09600
C 	C 	0.62903 0.53960 0.17227 0.09800
H 	H 	0.60170 0.53080 0.21560 0.01100
C 	C 	0.64247 0.59240 0.04147 0.08800
H 	H 	0.62480 0.62290 0.99320 0.01500
C 	C 	0.70864 0.55490 0.04687 -0.15900
H 	H 	0.73480 0.55870 0.00240 0.09400
Cu	Cu	0.00856 0.34551 0.40522 0.91900
O 	O 	0.92778 0.20450 0.44124 -0.36000
O 	O 	0.00707 0.27990 0.51719 -0.40600
O 	O 	0.98812 0.13010 0.79861 -0.39000
O 	O 	0.90764 0.94270 0.83898 -0.28200
N 	N 	0.60176 0.91290 0.60317 -0.23500
C 	C 	0.95157 0.20690 0.50848 0.31300
C 	C 	0.93531 0.03550 0.78811 0.32600
C 	C 	0.91301 0.12700 0.57398 -0.09200
C 	C 	0.94345 0.11130 0.64633 -0.00700
H 	H 	0.98790 0.14400 0.65300 0.05900
C 	C 	0.90589 0.04570 0.70780 -0.07600
C 	C 	0.84023 0.00240 0.69772 -0.01200
H 	H 	0.81590 0.95770 0.73980 0.05100
C 	C 	0.80879 0.02310 0.62627 -0.03900
C 	C 	0.84796 0.08490 0.56465 -0.00300
H 	H 	0.82890 0.09750 0.51580 0.05000
C 	C 	0.73753 0.98900 0.61771 0.11100
C 	C 	0.69454 0.99540 0.68043 -0.16300
H 	H 	0.71130 0.02450 0.72930 0.09500
C 	C 	0.62903 0.96040 0.67227 0.09800
H 	H 	0.60170 0.96920 0.71560 0.01100
C 	C 	0.64247 0.90760 0.54147 0.09300
H 	H 	0.62480 0.87710 0.49320 0.01200
C 	C 	0.70864 0.94510 0.54687 -0.16200
H 	H 	0.73480 0.94130 0.50240 0.09600
Cu	Cu	0.50856 0.65449 0.09478 0.91800
O 	O 	0.42778 0.79550 0.05876 -0.35900
O 	O 	0.50707 0.72010 0.98281 -0.40600
O 	O 	0.48812 0.86990 0.70139 -0.39300
O 	O 	0.40764 0.05730 0.66102 -0.28400
N 	N 	0.10176 0.08710 0.89683 -0.23400
C 	C 	0.45157 0.79310 0.99152 0.31200
C 	C 	0.43531 0.96450 0.71189 0.32700
C 	C 	0.41301 0.87300 0.92602 -0.09200
C 	C 	0.44345 0.88870 0.85367 -0.00600
H 	H 	0.48790 0.85600 0.84700 0.05900
C 	C 	0.40589 0.95430 0.79220 -0.07700
C 	C 	0.34023 0.99760 0.80228 -0.01100
H 	H 	0.31590 0.04230 0.76020 0.05000
C 	C 	0.30879 0.97690 0.87373 -0.03700
C 	C 	0.34796 0.91510 0.93535 -0.00300
H 	H 	0.32890 0.90250 0.98420 0.05000
C 	C 	0.23753 0.01100 0.88229 0.10700
C 	C 	0.19454 0.00460 0.81957 -0.16200
H 	H 	0.21130 0.97550 0.77070 0.09600
C 	C 	0.12903 0.03960 0.82773 0.09700
H 	H 	0.10170 0.03080 0.78440 0.01100
C 	C 	0.14247 0.09240 0.95853 0.07900
H 	H 	0.12480 0.12290 0.00680 0.02000
C 	C 	0.20864 0.05490 0.95313 -0.15400
H 	H 	0.23480 0.05870 0.99760 0.09200
Cu	Cu	0.99144 0.65449 0.59478 0.91900
O 	O 	0.07222 0.79550 0.55876 -0.36000
O 	O 	0.99293 0.72010 0.48281 -0.40600
O 	O 	0.01188 0.86990 0.20139 -0.39000
O 	O 	0.09236 0.05730 0.16102 -0.28200
N 	N 	0.39824 0.08710 0.39683 -0.23500
C 	C 	0.04843 0.79310 0.49152 0.31300
C 	C 	0.06469 0.96450 0.21189 0.32600
C 	C 	0.08699 0.87300 0.42602 -0.09200
C 	C 	0.05655 0.88870 0.35367 -0.00700
H 	H 	0.01210 0.85600 0.34700 0.05900
C 	C 	0.09411 0.95430 0.29220 -0.07600
C 	C 	0.15977 0.99760 0.30228 -0.01200
H 	H 	0.18410 0.04230 0.26020 0.05100
C 	C 	0.19121 0.97690 0.37373 -0.03900
C 	C 	0.15204 0.91510 0.43535 -0.00300
H 	H 	0.17110 0.90250 0.48420 0.05000
C 	C 	0.26247 0.01100 0.38229 0.11100
C 	C 	0.30546 0.00460 0.31957 -0.16300
H 	H 	0.28870 0.97550 0.27070 0.09500
C 	C 	0.37097 0.03960 0.32773 0.09800
H 	H 	0.39830 0.03080 0.28440 0.01100
C 	C 	0.35753 0.09240 0.45853 0.09300
H 	H 	0.37520 0.12290 0.50680 0.01200
C 	C 	0.29136 0.05490 0.45313 -0.16200
H 	H 	0.26520 0.05870 0.49760 0.09600
Cu	Cu	0.49144 0.34551 0.90521 0.91800
O 	O 	0.57222 0.20450 0.94124 -0.35900
O 	O 	0.49293 0.27990 0.01719 -0.40600
O 	O 	0.51188 0.13010 0.29861 -0.39300
O 	O 	0.59236 0.94270 0.33898 -0.28400
N 	N 	0.89824 0.91290 0.10317 -0.23400
C 	C 	0.54843 0.20690 0.00848 0.31200
C 	C 	0.56469 0.03550 0.28811 0.32700
C 	C 	0.58699 0.12700 0.07398 -0.09200
C 	C 	0.55655 0.11130 0.14633 -0.00600
H 	H 	0.51210 0.14400 0.15300 0.05900
C 	C 	0.59411 0.04570 0.20780 -0.07700
C 	C 	0.65977 0.00240 0.19772 -0.01100
H 	H 	0.68410 0.95770 0.23980 0.05000
C 	C 	0.69121 0.02310 0.12627 -0.03700
C 	C 	0.65204 0.08490 0.06465 -0.00300
H 	H 	0.67110 0.09750 0.01580 0.05000
C 	C 	0.76247 0.98900 0.11771 0.10700
C 	C 	0.80546 0.99540 0.18043 -0.16200
H 	H 	0.78870 0.02450 0.22930 0.09600
C 	C 	0.87097 0.96040 0.17227 0.09700
H 	H 	0.89830 0.96920 0.21560 0.01100
C 	C 	0.85753 0.90760 0.04147 0.07900
H 	H 	0.87520 0.87710 0.99320 0.02000
C 	C 	0.79136 0.94510 0.04687 -0.15400
H 	H 	0.76520 0.94130 0.00240 0.09200
Cu	Cu	0.49144 0.15449 0.40522 0.91800
O 	O 	0.57222 0.29550 0.44124 -0.36000
O 	O 	0.49293 0.22010 0.51719 -0.40600
O 	O 	0.51188 0.36990 0.79861 -0.39300
O 	O 	0.59236 0.55730 0.83898 -0.28400
N 	N 	0.89824 0.58710 0.60317 -0.23500
C 	C 	0.54843 0.29310 0.50848 0.31300
C 	C 	0.56469 0.46450 0.78811 0.32800
C 	C 	0.58699 0.37300 0.57398 -0.09300
C 	C 	0.55655 0.38870 0.64633 -0.00500
H 	H 	0.51210 0.35600 0.65300 0.05800
C 	C 	0.59411 0.45430 0.70780 -0.07800
C 	C 	0.65977 0.49760 0.69772 -0.00900
H 	H 	0.68410 0.54230 0.73980 0.04900
C 	C 	0.69121 0.47690 0.62627 -0.04000
C 	C 	0.65204 0.41510 0.56465 -0.00200
H 	H 	0.67110 0.40250 0.51580 0.04900
C 	C 	0.76247 0.51100 0.61771 0.11200
C 	C 	0.80546 0.50460 0.68043 -0.16600
H 	H 	0.78870 0.47550 0.72930 0.09700
C 	C 	0.87097 0.53960 0.67227 0.09900
H 	H 	0.89830 0.53080 0.71560 0.01100
C 	C 	0.85753 0.59240 0.54147 0.09300
H 	H 	0.87520 0.62290 0.49320 0.01100
C 	C 	0.79136 0.55490 0.54687 -0.16300
H 	H 	0.76520 0.55870 0.50240 0.09600
Cu	Cu	0.99144 0.84551 0.09478 0.91500
O 	O 	0.07222 0.70450 0.05876 -0.35200
O 	O 	0.99293 0.77990 0.98281 -0.39600
O 	O 	0.01188 0.63010 0.70139 -0.39400
O 	O 	0.09236 0.44270 0.66102 -0.28400
N 	N 	0.39824 0.41290 0.89683 -0.23400
C 	C 	0.04843 0.70690 0.99152 0.29800
C 	C 	0.06469 0.53550 0.71189 0.32700
C 	C 	0.08699 0.62700 0.92602 -0.08800
C 	C 	0.05655 0.61130 0.85367 -0.00900
H 	H 	0.01210 0.64400 0.84700 0.05800
C 	C 	0.09411 0.54570 0.79220 -0.07600
C 	C 	0.15977 0.50240 0.80228 -0.01200
H 	H 	0.18410 0.45770 0.76020 0.05000
C 	C 	0.19121 0.52310 0.87373 -0.03700
C 	C 	0.15204 0.58490 0.93535 -0.00600
H 	H 	0.17110 0.59750 0.98420 0.05000
C 	C 	0.26247 0.48900 0.88229 0.10900
C 	C 	0.30546 0.49540 0.81957 -0.16400
H 	H 	0.28870 0.52450 0.77070 0.09600
C 	C 	0.37097 0.46040 0.82773 0.09800
H 	H 	0.39830 0.46920 0.78440 0.01100
C 	C 	0.35753 0.40760 0.95853 0.08800
H 	H 	0.37520 0.37710 0.00680 0.01500
C 	C 	0.29136 0.44510 0.95313 -0.15900
H 	H 	0.26520 0.44130 0.99760 0.09400
