data_crystal

_cell_length_a 14.72400
_cell_length_b 8.56100
_cell_length_c 13.26700
_cell_angle_alpha 90.00000
_cell_angle_beta  104.11000
_cell_angle_gamma 90.00000

_symmetry_space_group_name_	'P 1'
_symmetry_space_group_name_H-M	'P 1'

loop_
_symmetry_equiv_pos_as_xyz
  x,y,z

loop_
_atom_site_label
_atom_site_type_symbol
_atom_site_fract_x
_atom_site_fract_y
_atom_site_fract_z
_atom_site_charge
N 	N 	0.20370 0.13740 0.34670 -0.27700
N 	N 	0.29510 0.33940 0.13330 -0.27300
N 	N 	0.12620 0.93340 0.50940 -0.28500
N 	N 	0.37320 0.93480 0.48550 -0.28800
C 	C 	0.27220 0.19980 0.29150 -0.03900
C 	C 	0.22750 0.26620 0.18480 -0.05200
C 	C 	0.04240 0.03190 0.48310 -0.04300
C 	C 	0.45580 0.03570 0.50980 -0.04100
Li	Li	0.24830 0.04010 0.49300 0.54100
H 	H 	0.17500 0.04500 0.31200 0.06500
H 	H 	0.16100 0.21400 0.34300 0.09200
H 	H 	0.32400 0.42700 0.16800 0.06900
H 	H 	0.34000 0.26400 0.13400 0.08700
H 	H 	0.14000 0.89900 0.57300 0.08900
H 	H 	0.11200 0.83500 0.47700 0.07200
H 	H 	0.38800 0.84500 0.52200 0.08300
H 	H 	0.36100 0.89500 0.42100 0.08200
H 	H 	0.31500 0.29100 0.33900 0.01000
H 	H 	0.31400 0.10500 0.28700 0.01500
H 	H 	0.19100 0.17700 0.14000 0.01700
H 	H 	0.18500 0.35500 0.19000 0.02000
H 	H 	0.44000 0.14600 0.47400 0.01000
H 	H 	0.47200 0.06200 0.58600 0.01500
H 	H 	0.05800 0.14200 0.51000 0.01200
H 	H 	0.02000 0.04500 0.40300 0.01400
N 	N 	0.79630 0.63740 0.15330 -0.27600
N 	N 	0.70490 0.83940 0.36670 -0.27200
N 	N 	0.87380 0.43340 0.99060 -0.28200
N 	N 	0.62680 0.43480 0.01450 -0.28800
C 	C 	0.72780 0.69980 0.20850 -0.03800
C 	C 	0.77250 0.76620 0.31520 -0.05100
C 	C 	0.95760 0.53190 0.01690 -0.04500
C 	C 	0.54420 0.53570 0.99020 -0.03900
Li	Li	0.75170 0.54010 0.00700 0.54100
H 	H 	0.82500 0.54500 0.18800 0.06400
H 	H 	0.83900 0.71400 0.15700 0.09100
H 	H 	0.67600 0.92700 0.33200 0.06900
H 	H 	0.66000 0.76400 0.36600 0.08700
H 	H 	0.86000 0.39900 0.92700 0.08900
H 	H 	0.88800 0.33500 0.02300 0.07000
H 	H 	0.61200 0.34500 0.97800 0.08400
H 	H 	0.63900 0.39500 0.07900 0.08200
H 	H 	0.68500 0.79100 0.16100 0.01000
H 	H 	0.68600 0.60500 0.21300 0.01500
H 	H 	0.80900 0.67700 0.36000 0.01600
H 	H 	0.81500 0.85500 0.31000 0.02000
H 	H 	0.56000 0.64600 0.02600 0.01000
H 	H 	0.52800 0.56200 0.91400 0.01500
H 	H 	0.94200 0.64200 0.99000 0.01500
H 	H 	0.98000 0.54500 0.09700 0.01400
N 	N 	0.79630 0.86260 0.65330 -0.27600
N 	N 	0.70490 0.66060 0.86670 -0.27200
N 	N 	0.87380 0.06660 0.49060 -0.28400
N 	N 	0.62680 0.06520 0.51450 -0.28700
C 	C 	0.72780 0.80020 0.70850 -0.03800
C 	C 	0.77250 0.73380 0.81520 -0.05100
C 	C 	0.95760 0.96810 0.51690 -0.04200
C 	C 	0.54420 0.96430 0.49020 -0.04000
Li	Li	0.75170 0.95990 0.50700 0.54100
H 	H 	0.82500 0.95500 0.68800 0.06500
H 	H 	0.83900 0.78600 0.65700 0.09200
H 	H 	0.67600 0.57300 0.83200 0.06900
H 	H 	0.66000 0.73600 0.86600 0.08700
H 	H 	0.86000 0.10100 0.42700 0.08900
H 	H 	0.88800 0.16500 0.52300 0.07200
H 	H 	0.61200 0.15500 0.47800 0.08300
H 	H 	0.63900 0.10500 0.57900 0.08200
H 	H 	0.68500 0.70900 0.66100 0.01000
H 	H 	0.68600 0.89500 0.71300 0.01500
H 	H 	0.80900 0.82300 0.86000 0.01700
H 	H 	0.81500 0.64500 0.81000 0.02000
H 	H 	0.56000 0.85400 0.52600 0.01000
H 	H 	0.52800 0.93800 0.41400 0.01500
H 	H 	0.94200 0.85800 0.49000 0.01200
H 	H 	0.98000 0.95500 0.59700 0.01400
N 	N 	0.20370 0.36260 0.84670 -0.27600
N 	N 	0.29510 0.16060 0.63330 -0.27200
N 	N 	0.12620 0.56660 0.00940 -0.28200
N 	N 	0.37320 0.56520 0.98550 -0.28800
C 	C 	0.27220 0.30020 0.79150 -0.03800
C 	C 	0.22750 0.23380 0.68480 -0.05100
C 	C 	0.04240 0.46810 0.98310 -0.04500
C 	C 	0.45580 0.46430 0.00980 -0.03900
Li	Li	0.24830 0.45990 0.99300 0.54100
H 	H 	0.17500 0.45500 0.81200 0.06400
H 	H 	0.16100 0.28600 0.84300 0.09100
H 	H 	0.32400 0.07300 0.66800 0.06900
H 	H 	0.34000 0.23600 0.63400 0.08700
H 	H 	0.14000 0.60100 0.07300 0.08900
H 	H 	0.11200 0.66500 0.97700 0.07000
H 	H 	0.38800 0.65500 0.02200 0.08400
H 	H 	0.36100 0.60500 0.92100 0.08200
H 	H 	0.31500 0.20900 0.83900 0.01000
H 	H 	0.31400 0.39500 0.78700 0.01500
H 	H 	0.19100 0.32300 0.64000 0.01600
H 	H 	0.18500 0.14500 0.69000 0.02000
H 	H 	0.44000 0.35400 0.97400 0.01000
H 	H 	0.47200 0.43800 0.08600 0.01500
H 	H 	0.05800 0.35800 0.01000 0.01500
H 	H 	0.02000 0.45500 0.90300 0.01400
