data_crystal

_cell_length_a 10.21280
_cell_length_b 13.14500
_cell_length_c 18.35000
_cell_angle_alpha 90.00000
_cell_angle_beta  102.15100
_cell_angle_gamma 90.00000

_symmetry_space_group_name_	'P 1'
_symmetry_space_group_name_H-M	'P 1'

loop_
_symmetry_equiv_pos_as_xyz
  x,y,z

loop_
_atom_site_label
_atom_site_type_symbol
_atom_site_fract_x
_atom_site_fract_y
_atom_site_fract_z
_atom_site_charge
N 	N 	0.56013 0.99080 0.88220 -0.16600
N 	N 	0.80140 0.99548 0.93663 -0.22600
N 	N 	0.37497 0.93308 0.93919 -0.13500
N 	N 	0.97770 0.85590 0.04256 -0.25900
N 	N 	0.92586 0.05285 0.08979 -0.28800
C 	C 	0.89150 0.87038 0.09729 -0.11300
C 	C 	0.46576 0.96023 0.91650 0.18000
C 	C 	0.92946 0.77704 0.98589 0.15700
C 	C 	0.68656 0.99202 0.91528 0.20000
C 	C 	0.93358 0.96630 0.14177 0.03600
C 	C 	0.98717 0.14670 0.12554 -0.05400
C 	C 	0.01930 0.76616 0.93004 -0.28800
H 	H 	0.83900 0.79610 0.95930 -0.01200
H 	H 	0.87700 0.97570 0.17760 0.04400
H 	H 	0.79860 0.87750 0.06880 0.05200
H 	H 	0.84100 0.06590 0.07220 0.09200
H 	H 	0.02600 0.96180 0.17000 0.01300
H 	H 	0.89300 0.81090 0.13020 0.06500
H 	H 	0.11300 0.75760 0.95810 0.11700
H 	H 	0.92100 0.71150 0.01160 -0.03800
H 	H 	0.99500 0.70100 0.90170 0.13100
H 	H 	0.07600 0.13170 0.14550 0.00800
H 	H 	0.05600 0.83620 0.06830 0.08600
H 	H 	0.94300 0.16760 0.16660 0.04200
N 	N 	0.43987 0.00920 0.11780 -0.18400
N 	N 	0.19860 0.00452 0.06337 -0.29300
N 	N 	0.62503 0.06692 0.06081 -0.18600
N 	N 	0.02230 0.14410 0.95744 -0.23700
N 	N 	0.07414 0.94715 0.91021 -0.21400
C 	C 	0.10850 0.12962 0.90271 -0.04800
C 	C 	0.53424 0.03977 0.08350 0.10200
C 	C 	0.07054 0.22296 0.01411 -0.27600
C 	C 	0.31344 0.00798 0.08472 0.11800
C 	C 	0.06642 0.03370 0.85823 -0.21500
C 	C 	0.01283 0.85330 0.87446 -0.03000
C 	C 	0.98070 0.23384 0.06996 0.04000
H 	H 	0.16100 0.20390 0.04070 0.08500
H 	H 	0.12300 0.02430 0.82240 0.06300
H 	H 	0.20140 0.12250 0.93120 0.03800
H 	H 	0.15900 0.93410 0.92780 0.13600
H 	H 	0.97400 0.03820 0.83000 0.08000
H 	H 	0.10700 0.18910 0.86980 0.03200
H 	H 	0.88700 0.24240 0.04190 0.00100
H 	H 	0.07900 0.28850 0.98840 0.13500
H 	H 	0.00500 0.29900 0.09830 -0.01200
H 	H 	0.92400 0.86830 0.85450 0.06000
H 	H 	0.94400 0.16380 0.93170 0.11900
H 	H 	0.05700 0.83240 0.83340 0.03800
Ni	Ni	-0.00000 0.00000 -0.00000 1.00400
N 	N 	0.06013 0.49080 0.88220 -0.19600
N 	N 	0.30140 0.49548 0.93663 -0.25400
N 	N 	0.87497 0.43308 0.93919 -0.15500
N 	N 	0.47770 0.35590 0.04256 -0.30100
N 	N 	0.42586 0.55285 0.08979 -0.25300
C 	C 	0.39150 0.37038 0.09729 -0.06600
C 	C 	0.96576 0.46023 0.91650 0.18200
C 	C 	0.42946 0.27704 0.98589 0.12600
C 	C 	0.18656 0.49202 0.91528 0.16900
C 	C 	0.43358 0.46630 0.14177 -0.09800
C 	C 	0.48717 0.64670 0.12554 -0.09300
C 	C 	0.51930 0.26616 0.93004 -0.22900
H 	H 	0.33900 0.29610 0.95930 -0.00800
H 	H 	0.37700 0.47570 0.17760 0.05600
H 	H 	0.29860 0.37750 0.06880 0.02500
H 	H 	0.34100 0.56590 0.07220 0.10300
H 	H 	0.52600 0.46180 0.17000 0.04700
H 	H 	0.39300 0.31090 0.13020 0.04000
H 	H 	0.61300 0.25760 0.95810 0.09700
H 	H 	0.42100 0.21150 0.01160 -0.04300
H 	H 	0.49500 0.20100 0.90170 0.08500
H 	H 	0.57600 0.63170 0.14550 0.05600
H 	H 	0.55600 0.33620 0.06830 0.10300
H 	H 	0.44300 0.66760 0.16660 0.05700
N 	N 	0.93987 0.50920 0.11780 -0.15100
N 	N 	0.69860 0.50452 0.06337 -0.27300
N 	N 	0.12503 0.56692 0.06081 -0.16800
N 	N 	0.52230 0.64410 0.95744 -0.21500
N 	N 	0.57414 0.44715 0.91021 -0.26500
C 	C 	0.60850 0.62962 0.90271 -0.10100
C 	C 	0.03424 0.53977 0.08350 0.09400
C 	C 	0.57054 0.72296 0.01411 -0.19600
C 	C 	0.81344 0.50798 0.08472 0.15500
C 	C 	0.56642 0.53370 0.85823 -0.06900
C 	C 	0.51283 0.35330 0.87446 0.00400
C 	C 	0.48070 0.73384 0.06996 -0.06800
H 	H 	0.66100 0.70390 0.04070 0.06800
H 	H 	0.62300 0.52430 0.82240 0.04900
H 	H 	0.70140 0.62250 0.93120 0.06400
H 	H 	0.65900 0.43410 0.92780 0.12300
H 	H 	0.47400 0.53820 0.83000 0.03900
H 	H 	0.60700 0.68910 0.86980 0.05900
H 	H 	0.38700 0.74240 0.04190 0.03200
H 	H 	0.57900 0.78850 0.98840 0.12000
H 	H 	0.50500 0.79900 0.09830 0.05600
H 	H 	0.42400 0.36830 0.85450 0.02000
H 	H 	0.44400 0.66380 0.93170 0.10300
H 	H 	0.55700 0.33240 0.83340 0.02200
Ni	Ni	0.50000 0.50000 -0.00000 1.05000
N 	N 	0.43987 0.99080 0.61780 -0.16600
N 	N 	0.19860 0.99548 0.56337 -0.24200
N 	N 	0.62503 0.93308 0.56081 -0.14700
N 	N 	0.02230 0.85590 0.45744 -0.26500
N 	N 	0.07414 0.05285 0.41021 -0.29100
C 	C 	0.10850 0.87038 0.40271 -0.07900
C 	C 	0.53424 0.96023 0.58350 0.17100
C 	C 	0.07054 0.77704 0.51411 -0.09100
C 	C 	0.31344 0.99202 0.58472 0.19000
C 	C 	0.06642 0.96630 0.35823 -0.07500
C 	C 	0.01283 0.14670 0.37446 -0.06900
C 	C 	0.98070 0.76616 0.56996 -0.06000
H 	H 	0.16100 0.79610 0.54070 0.04600
H 	H 	0.12300 0.97570 0.32240 0.07200
H 	H 	0.20140 0.87750 0.43120 0.05600
H 	H 	0.15900 0.06590 0.42780 0.09900
H 	H 	0.97400 0.96180 0.33000 0.08000
H 	H 	0.10700 0.81090 0.36980 0.04500
H 	H 	0.88700 0.75760 0.54190 0.04600
H 	H 	0.07900 0.71150 0.48840 0.04800
H 	H 	0.00500 0.70100 0.59830 0.02700
H 	H 	0.92400 0.13170 0.35450 0.05600
H 	H 	0.94400 0.83620 0.43170 0.13300
H 	H 	0.05700 0.16760 0.33340 0.02700
N 	N 	0.56013 0.00920 0.38220 -0.18500
N 	N 	0.80140 0.00452 0.43663 -0.27600
N 	N 	0.37497 0.06692 0.43919 -0.17700
N 	N 	0.97770 0.14410 0.54256 -0.23800
N 	N 	0.92586 0.94715 0.58979 -0.22800
C 	C 	0.89150 0.12962 0.59729 -0.09700
C 	C 	0.46576 0.03977 0.41650 0.11000
C 	C 	0.92946 0.22296 0.48589 0.02700
C 	C 	0.68656 0.00798 0.41528 0.13200
C 	C 	0.93358 0.03370 0.64177 -0.06600
C 	C 	0.98717 0.85330 0.62554 -0.03400
C 	C 	0.01930 0.23384 0.43004 -0.24600
H 	H 	0.83900 0.20390 0.45930 0.01300
H 	H 	0.87700 0.02430 0.67760 0.02700
H 	H 	0.79860 0.12250 0.56880 0.03800
H 	H 	0.84100 0.93410 0.57220 0.12700
H 	H 	0.02600 0.03820 0.67000 -0.00600
H 	H 	0.89300 0.18910 0.63020 0.05800
H 	H 	0.11300 0.24240 0.45810 0.08400
H 	H 	0.92100 0.28850 0.51160 0.02900
H 	H 	0.99500 0.29900 0.40170 0.11900
H 	H 	0.07600 0.86830 0.64550 0.03200
H 	H 	0.05600 0.16380 0.56830 0.06700
H 	H 	0.94300 0.83240 0.66660 0.05300
Ni	Ni	-0.00000 -0.00000 0.50000 1.02400
N 	N 	0.93987 0.49080 0.61780 -0.15400
N 	N 	0.69860 0.49548 0.56337 -0.26600
N 	N 	0.12503 0.43308 0.56081 -0.16000
N 	N 	0.52230 0.35590 0.45744 -0.25700
N 	N 	0.57414 0.55285 0.41021 -0.26200
C 	C 	0.60850 0.37038 0.40271 -0.08600
C 	C 	0.03424 0.46023 0.58350 0.10500
C 	C 	0.57054 0.27704 0.51411 -0.04500
C 	C 	0.81344 0.49202 0.58472 0.16600
C 	C 	0.56642 0.46630 0.35823 -0.08300
C 	C 	0.51283 0.64670 0.37446 -0.03900
C 	C 	0.48070 0.26616 0.56996 -0.13600
H 	H 	0.66100 0.29610 0.54070 0.03200
H 	H 	0.62300 0.47570 0.32240 0.05300
H 	H 	0.70140 0.37750 0.43120 0.04700
H 	H 	0.65900 0.56590 0.42780 0.11500
H 	H 	0.47400 0.46180 0.33000 0.04100
H 	H 	0.60700 0.31090 0.36980 0.05000
H 	H 	0.38700 0.25760 0.54190 0.05400
H 	H 	0.57900 0.21150 0.48840 0.03900
H 	H 	0.50500 0.20100 0.59830 0.05300
H 	H 	0.42400 0.63170 0.35450 0.03600
H 	H 	0.44400 0.33620 0.43170 0.10000
H 	H 	0.55700 0.66760 0.33340 0.04200
N 	N 	0.06013 0.50920 0.38220 -0.19800
N 	N 	0.30140 0.50452 0.43663 -0.26700
N 	N 	0.87497 0.56692 0.43919 -0.16500
N 	N 	0.47770 0.64410 0.54256 -0.26100
N 	N 	0.42586 0.44715 0.58979 -0.25900
C 	C 	0.39150 0.62962 0.59729 -0.08300
C 	C 	0.96576 0.53977 0.41650 0.17700
C 	C 	0.42946 0.72296 0.48589 -0.03100
C 	C 	0.18656 0.50798 0.41528 0.15600
C 	C 	0.43358 0.53370 0.64177 -0.08600
C 	C 	0.48717 0.35330 0.62554 -0.05300
C 	C 	0.51930 0.73384 0.43004 -0.16000
H 	H 	0.33900 0.70390 0.45930 0.02800
H 	H 	0.37700 0.52430 0.67760 0.05300
H 	H 	0.29860 0.62250 0.56880 0.04300
H 	H 	0.34100 0.43410 0.57220 0.11100
H 	H 	0.52600 0.53820 0.67000 0.04400
H 	H 	0.39300 0.68910 0.63020 0.05100
H 	H 	0.61300 0.74240 0.45810 0.07400
H 	H 	0.42100 0.78850 0.51160 0.04100
H 	H 	0.49500 0.79900 0.40170 0.08700
H 	H 	0.57600 0.36830 0.64550 0.04000
H 	H 	0.55600 0.66380 0.56830 0.10500
H 	H 	0.44300 0.33240 0.66660 0.03800
Ni	Ni	0.50000 0.50000 0.50000 1.07000
