data_crystal

_cell_length_a 12.33050
_cell_length_b 15.50690
_cell_length_c 15.64120
_cell_angle_alpha 90.00000
_cell_angle_beta  90.00000
_cell_angle_gamma 90.00000

_symmetry_space_group_name_	'P 1'
_symmetry_space_group_name_H-M	'P 1'

loop_
_symmetry_equiv_pos_as_xyz
  x,y,z

loop_
_atom_site_label
_atom_site_type_symbol
_atom_site_fract_x
_atom_site_fract_y
_atom_site_fract_z
_atom_site_charge
Cu	Cu	-0.00000 0.00000 -0.00000 0.83700
Cu	Cu	0.50000 0.50000 0.50000 0.89700
Cu	Cu	0.15251 0.00000 0.19216 0.85200
Cu	Cu	0.84749 0.00000 0.80784 0.85900
Cu	Cu	0.34749 0.50000 0.69216 0.88300
Cu	Cu	0.65251 0.50000 0.30784 0.88200
H 	H 	0.77370 0.71620 0.09730 0.09600
H 	H 	0.67860 0.60050 0.15010 -0.02600
H 	H 	0.84240 0.60390 0.35850 0.01900
H 	H 	0.94330 0.71880 0.31120 0.10600
H 	H 	0.22630 0.71620 0.90270 0.11600
H 	H 	0.32140 0.60050 0.84990 -0.01800
H 	H 	0.15760 0.60390 0.64150 0.00900
H 	H 	0.05670 0.71880 0.68880 0.09500
H 	H 	0.72630 0.78380 0.59730 0.10600
H 	H 	0.82140 0.89950 0.65010 -0.00000
H 	H 	0.65760 0.89610 0.85850 0.04100
H 	H 	0.55670 0.78120 0.81120 0.10500
H 	H 	0.27370 0.78380 0.40270 0.10100
H 	H 	0.17860 0.89950 0.34990 -0.00800
H 	H 	0.34240 0.89610 0.14150 0.03300
H 	H 	0.44330 0.78120 0.18880 0.09400
H 	H 	0.22630 0.28380 0.90270 0.10900
H 	H 	0.32140 0.39950 0.84990 -0.01900
H 	H 	0.15760 0.39610 0.64150 0.00800
H 	H 	0.05670 0.28120 0.68880 0.08700
H 	H 	0.77370 0.28380 0.09730 0.08900
H 	H 	0.67860 0.39950 0.15010 -0.02600
H 	H 	0.84240 0.39610 0.35850 0.01800
H 	H 	0.94330 0.28120 0.31120 0.09800
H 	H 	0.27370 0.21620 0.40270 0.09300
H 	H 	0.17860 0.10050 0.34990 -0.04100
H 	H 	0.34240 0.10390 0.14150 0.00000
H 	H 	0.44330 0.21880 0.18880 0.08700
H 	H 	0.72630 0.21620 0.59730 0.09900
H 	H 	0.82140 0.10050 0.65010 -0.03200
H 	H 	0.65760 0.10390 0.85850 0.01100
H 	H 	0.55670 0.21880 0.81120 0.09800
C 	C 	0.93350 0.80540 0.16690 0.12700
C 	C 	0.87160 0.72990 0.19860 0.08100
C 	C 	0.79020 0.69430 0.15110 -0.15000
C 	C 	0.73240 0.62500 0.18390 0.10800
C 	C 	0.82770 0.62680 0.30480 0.09700
C 	C 	0.88940 0.69590 0.27640 -0.14100
C 	C 	0.06650 0.80540 0.83310 0.07200
C 	C 	0.12840 0.72990 0.80140 0.10200
C 	C 	0.20980 0.69430 0.84890 -0.16400
C 	C 	0.26760 0.62500 0.81610 0.11600
C 	C 	0.17230 0.62680 0.69520 0.10300
C 	C 	0.11060 0.69590 0.72360 -0.15900
C 	C 	0.56650 0.69460 0.66690 0.10000
C 	C 	0.62840 0.77010 0.69860 0.08800
C 	C 	0.70980 0.80570 0.65110 -0.14500
C 	C 	0.76760 0.87500 0.68390 0.11200
C 	C 	0.67230 0.87320 0.80480 0.10200
C 	C 	0.61060 0.80410 0.77640 -0.13800
C 	C 	0.43350 0.69460 0.33310 0.09600
C 	C 	0.37160 0.77010 0.30140 0.08300
C 	C 	0.29020 0.80570 0.34890 -0.14900
C 	C 	0.23240 0.87500 0.31610 0.10900
C 	C 	0.32770 0.87320 0.19520 0.09500
C 	C 	0.38940 0.80410 0.22360 -0.14100
C 	C 	0.06650 0.19460 0.83310 0.06100
C 	C 	0.12840 0.27010 0.80140 0.09400
C 	C 	0.20980 0.30570 0.84890 -0.16400
C 	C 	0.26760 0.37500 0.81610 0.11200
C 	C 	0.17230 0.37320 0.69520 0.09800
C 	C 	0.11060 0.30410 0.72360 -0.15800
C 	C 	0.93350 0.19460 0.16690 0.12100
C 	C 	0.87160 0.27010 0.19860 0.07100
C 	C 	0.79020 0.30570 0.15110 -0.14800
C 	C 	0.73240 0.37500 0.18390 0.10200
C 	C 	0.82770 0.37320 0.30480 0.09100
C 	C 	0.88940 0.30410 0.27640 -0.13900
C 	C 	0.43350 0.30540 0.33310 0.08900
C 	C 	0.37160 0.22990 0.30140 0.08100
C 	C 	0.29020 0.19430 0.34890 -0.16300
C 	C 	0.23240 0.12500 0.31610 0.10200
C 	C 	0.32770 0.12680 0.19520 0.08800
C 	C 	0.38940 0.19590 0.22360 -0.15400
C 	C 	0.56650 0.30540 0.66690 0.09300
C 	C 	0.62840 0.22990 0.69860 0.08600
C 	C 	0.70980 0.19430 0.65110 -0.15900
C 	C 	0.76760 0.12500 0.68390 0.10600
C 	C 	0.67230 0.12680 0.80480 0.09500
C 	C 	0.61060 0.19590 0.77640 -0.15100
N 	N 	0.98520 0.90816 0.09105 -0.09500
N 	N 	0.04000 0.90936 0.16389 -0.13800
N 	N 	0.00870 0.84487 0.21320 -0.11400
N 	N 	0.91640 0.84209 0.09141 -0.08100
N 	N 	0.74970 0.59244 0.25951 -0.23400
N 	N 	0.01480 0.90816 0.90895 -0.11500
N 	N 	0.96000 0.90936 0.83611 -0.10700
N 	N 	0.99130 0.84487 0.78680 -0.06600
N 	N 	0.08360 0.84209 0.90859 -0.06200
N 	N 	0.25030 0.59244 0.74049 -0.23700
N 	N 	0.51480 0.59184 0.59105 -0.13400
N 	N 	0.46000 0.59064 0.66389 -0.14400
N 	N 	0.49130 0.65513 0.71320 -0.09200
N 	N 	0.58360 0.65791 0.59141 -0.07800
N 	N 	0.75030 0.90756 0.75951 -0.21200
N 	N 	0.48520 0.59184 0.40895 -0.13500
N 	N 	0.54000 0.59064 0.33611 -0.14600
N 	N 	0.50870 0.65513 0.28680 -0.09600
N 	N 	0.41640 0.65791 0.40859 -0.08000
N 	N 	0.24970 0.90756 0.24049 -0.21200
N 	N 	0.01480 0.09184 0.90895 -0.14700
N 	N 	0.96000 0.09064 0.83611 -0.13600
N 	N 	0.99130 0.15513 0.78680 -0.07400
N 	N 	0.08360 0.15791 0.90859 -0.07200
N 	N 	0.25030 0.40756 0.74049 -0.23700
N 	N 	0.98520 0.09184 0.09105 -0.12500
N 	N 	0.04000 0.09064 0.16389 -0.17100
N 	N 	0.00870 0.15513 0.21320 -0.12500
N 	N 	0.91640 0.15791 0.09141 -0.09200
N 	N 	0.74970 0.40756 0.25951 -0.23400
N 	N 	0.48520 0.40816 0.40895 -0.13600
N 	N 	0.54000 0.40936 0.33611 -0.14700
N 	N 	0.50870 0.34487 0.28680 -0.09900
N 	N 	0.41640 0.34209 0.40859 -0.08300
N 	N 	0.24970 0.09244 0.24049 -0.24500
N 	N 	0.51480 0.40816 0.59105 -0.13500
N 	N 	0.46000 0.40936 0.66389 -0.14500
N 	N 	0.49130 0.34487 0.71320 -0.09400
N 	N 	0.58360 0.34209 0.59141 -0.08100
N 	N 	0.75030 0.09244 0.75951 -0.24300
Cl	Cl	0.21617 0.00000 0.03771 -0.56700
Cl	Cl	0.78383 0.00000 0.96229 -0.49000
Cl	Cl	0.28383 0.50000 0.53771 -0.48700
Cl	Cl	0.71617 0.50000 0.46229 -0.47300
