data_crystal

_cell_length_a 9.08970
_cell_length_b 9.20750
_cell_length_c 9.29140
_cell_angle_alpha 76.54600
_cell_angle_beta  87.29900
_cell_angle_gamma 89.41100

_symmetry_space_group_name_	'P 1'
_symmetry_space_group_name_H-M	'P 1'

loop_
_symmetry_equiv_pos_as_xyz
  x,y,z

loop_
_atom_site_label
_atom_site_type_symbol
_atom_site_fract_x
_atom_site_fract_y
_atom_site_fract_z
_atom_site_charge
P 	P 	0.31307 0.61869 0.59715 0.82100
P 	P 	0.88274 0.62792 0.82308 0.80100
P 	P 	0.14609 0.16829 0.64572 0.71300
Al	Al	0.06552 0.86764 0.58746 2.40200
Al	Al	0.66035 0.62558 0.57431 2.39800
Al	Al	0.11894 0.39120 0.84198 2.39700
F 	F 	0.10575 0.01415 0.41624 -0.91300
O 	O 	0.23836 0.76795 0.57013 -0.63900
O 	O 	0.99848 0.74450 0.76241 -0.67200
O 	O 	0.15159 0.99888 0.68785 -0.56900
O 	O 	0.74714 0.64290 0.73030 -0.74400
O 	O 	0.03237 0.23351 0.53359 -0.68100
O 	O 	0.94541 0.47048 0.83720 -0.79800
O 	O 	0.11800 0.22281 0.78965 -0.72100
O 	O 	0.24970 0.51027 0.73636 -0.80800
O 	O 	0.47539 0.63910 0.62300 -0.74700
O 	O 	0.30310 0.54790 0.46377 -0.79800
O 	O 	0.29997 0.23046 0.58094 -0.73500
O 	O 	0.82543 0.64430 0.97658 -0.70800
P 	P 	0.68693 0.38131 0.40285 0.82200
P 	P 	0.11726 0.37208 0.17692 0.80200
P 	P 	0.85391 0.83171 0.35428 0.71300
Al	Al	0.93448 0.13236 0.41254 2.40200
Al	Al	0.33965 0.37442 0.42569 2.39800
Al	Al	0.88106 0.60880 0.15802 2.39700
F 	F 	0.89425 0.98585 0.58376 -0.91300
O 	O 	0.76164 0.23205 0.42987 -0.63900
O 	O 	0.00152 0.25550 0.23759 -0.67200
O 	O 	0.84841 0.00112 0.31215 -0.56900
O 	O 	0.25286 0.35710 0.26970 -0.74400
O 	O 	0.96763 0.76649 0.46641 -0.68100
O 	O 	0.05459 0.52952 0.16280 -0.79800
O 	O 	0.88200 0.77719 0.21035 -0.72100
O 	O 	0.75030 0.48973 0.26364 -0.80800
O 	O 	0.52461 0.36090 0.37700 -0.74700
O 	O 	0.69690 0.45210 0.53623 -0.79800
O 	O 	0.70003 0.76954 0.41906 -0.73500
O 	O 	0.17457 0.35570 0.02342 -0.70800
