data_crystal

_cell_length_a 9.16200
_cell_length_b 9.29100
_cell_length_c 16.50400
_cell_angle_alpha 75.03800
_cell_angle_beta  75.24400
_cell_angle_gamma 83.86700

_symmetry_space_group_name_	'P 1'
_symmetry_space_group_name_H-M	'P 1'

loop_
_symmetry_equiv_pos_as_xyz
  x,y,z

loop_
_atom_site_label
_atom_site_type_symbol
_atom_site_fract_x
_atom_site_fract_y
_atom_site_fract_z
_atom_site_charge
P 	P 	0.66579 0.81787 0.47416 0.82000
P 	P 	0.31216 0.58007 0.69359 0.82900
P 	P 	0.13504 0.66364 0.46786 0.79600
P 	P 	0.02170 0.73660 0.99889 0.63500
P 	P 	0.14661 0.54750 0.22546 0.70200
Al	Al	0.31406 0.84940 0.53419 2.39800
Al	Al	0.89516 0.61120 0.37486 2.39700
Al	Al	0.66642 0.55460 0.63477 2.39900
Al	Al	0.07020 0.54860 0.85970 2.39700
O 	O 	0.49880 0.83990 0.47490 -0.80400
O 	O 	0.01830 0.71120 0.41660 -0.64200
O 	O 	0.07130 0.56340 0.55490 -0.80100
O 	O 	0.19220 0.80350 0.48040 -0.73500
O 	O 	0.73210 0.97040 0.45510 -0.74900
O 	O 	0.47840 0.53330 0.68760 -0.75700
O 	O 	0.07400 0.43840 0.19340 -0.72800
O 	O 	0.74230 0.73830 0.40410 -0.71200
O 	O 	0.68430 0.72790 0.56400 -0.81200
O 	O 	0.23690 0.46920 0.66870 -0.71900
O 	O 	0.24340 0.58780 0.78760 -0.73800
O 	O 	0.27330 0.58480 0.41910 -0.83400
O 	O 	0.02610 0.64440 0.27150 -0.70900
O 	O 	0.30090 0.73770 0.63740 -0.80000
O 	O 	0.25160 0.64720 0.14900 -0.21800
O 	O 	0.02890 0.68610 0.91700 -0.73400
O 	O 	0.92130 0.62940 0.07500 -0.73800
O 	O 	0.23700 0.45240 0.28700 -0.75100
O 	O 	0.18090 0.73270 0.01100 -0.22400
O 	O 	0.94790 0.89030 0.98780 -0.16800
P 	P 	0.33421 0.18213 0.52584 0.82000
P 	P 	0.68784 0.41993 0.30641 0.82900
P 	P 	0.86496 0.33636 0.53214 0.79600
P 	P 	0.97830 0.26340 0.00111 0.63500
P 	P 	0.85339 0.45250 0.77454 0.70200
Al	Al	0.68594 0.15060 0.46581 2.39800
Al	Al	0.10484 0.38880 0.62514 2.39700
Al	Al	0.33358 0.44540 0.36523 2.39900
Al	Al	0.92980 0.45140 0.14030 2.39700
O 	O 	0.50120 0.16010 0.52510 -0.80400
O 	O 	0.98170 0.28880 0.58340 -0.64200
O 	O 	0.92870 0.43660 0.44510 -0.80100
O 	O 	0.80780 0.19650 0.51960 -0.73500
O 	O 	0.26790 0.02960 0.54490 -0.74900
O 	O 	0.52160 0.46670 0.31240 -0.75700
O 	O 	0.92600 0.56160 0.80660 -0.72800
O 	O 	0.25770 0.26170 0.59590 -0.71200
O 	O 	0.31570 0.27210 0.43600 -0.81200
O 	O 	0.76310 0.53080 0.33130 -0.71900
O 	O 	0.75660 0.41220 0.21240 -0.73800
O 	O 	0.72670 0.41520 0.58090 -0.83400
O 	O 	0.97390 0.35560 0.72850 -0.70900
O 	O 	0.69910 0.26230 0.36260 -0.80000
O 	O 	0.74840 0.35280 0.85100 -0.21800
O 	O 	0.97110 0.31390 0.08300 -0.73400
O 	O 	0.07870 0.37060 0.92500 -0.73800
O 	O 	0.76300 0.54760 0.71300 -0.75100
O 	O 	0.81910 0.26730 0.98900 -0.22400
O 	O 	0.05210 0.10970 0.01220 -0.16800
