data_crystal

_cell_length_a 8.60100
_cell_length_b 14.22400
_cell_length_c 16.09800
_cell_angle_alpha 90.00000
_cell_angle_beta  90.00000
_cell_angle_gamma 90.00000

_symmetry_space_group_name_	'P 1'
_symmetry_space_group_name_H-M	'P 1'

loop_
_symmetry_equiv_pos_as_xyz
  x,y,z

loop_
_atom_site_label
_atom_site_type_symbol
_atom_site_fract_x
_atom_site_fract_y
_atom_site_fract_z
_atom_site_charge
Ag	Ag	0.94145 0.43042 0.37450 0.49000
Ag	Ag	0.55855 0.56958 0.87450 0.49000
Ag	Ag	0.05855 0.93042 0.12550 0.48900
Ag	Ag	0.44145 0.06958 0.62550 0.49000
H 	H 	0.28070 0.36700 0.25710 0.02600
H 	H 	0.14250 0.33200 0.18940 0.02500
H 	H 	0.36070 0.20640 0.26460 0.04700
H 	H 	0.38660 0.22540 0.17610 0.03500
H 	H 	0.84500 0.65800 0.37380 0.01500
H 	H 	0.91710 0.64250 0.26460 0.02800
H 	H 	0.63540 0.43390 0.21750 0.04800
H 	H 	0.61640 0.55000 0.19190 0.07300
H 	H 	0.89000 0.55160 0.15670 0.01800
H 	H 	0.86820 0.42300 0.14870 0.00500
H 	H 	0.82820 0.56800 0.56580 0.07200
H 	H 	0.66070 0.52590 0.53080 0.12000
H 	H 	0.58290 0.35950 0.44710 0.01300
H 	H 	0.57610 0.34640 0.54730 0.04100
H 	H 	0.79390 0.20930 0.46810 0.03600
H 	H 	0.61250 0.20050 0.49710 0.03200
H 	H 	0.29930 0.37020 0.42420 0.02500
H 	H 	0.35890 0.26840 0.39460 0.05600
H 	H 	0.21930 0.63300 0.75710 0.02500
H 	H 	0.35750 0.66800 0.68940 0.02400
H 	H 	0.13930 0.79360 0.76460 0.04600
H 	H 	0.11340 0.77460 0.67610 0.03500
H 	H 	0.65500 0.34200 0.87380 0.01500
H 	H 	0.58290 0.35750 0.76460 0.02800
H 	H 	0.86460 0.56610 0.71750 0.04800
H 	H 	0.88360 0.45000 0.69190 0.07300
H 	H 	0.61000 0.44840 0.65670 0.01800
H 	H 	0.63180 0.57700 0.64870 0.00500
H 	H 	0.67180 0.43200 0.06580 0.07300
H 	H 	0.83930 0.47410 0.03080 0.12100
H 	H 	0.91710 0.64050 0.94710 0.01300
H 	H 	0.92390 0.65360 0.04730 0.04100
H 	H 	0.70610 0.79070 0.96810 0.03500
H 	H 	0.88750 0.79950 0.99710 0.03100
H 	H 	0.20070 0.62980 0.92420 0.02500
H 	H 	0.14110 0.73160 0.89460 0.05600
H 	H 	0.71930 0.86700 0.24290 0.02500
H 	H 	0.85750 0.83200 0.31060 0.02500
H 	H 	0.63930 0.70640 0.23540 0.04600
H 	H 	0.61340 0.72540 0.32390 0.03500
H 	H 	0.15500 0.15800 0.12620 0.01500
H 	H 	0.08290 0.14250 0.23540 0.02800
H 	H 	0.36460 0.93390 0.28250 0.04800
H 	H 	0.38360 0.05000 0.30810 0.07300
H 	H 	0.11000 0.05160 0.34330 0.01900
H 	H 	0.13180 0.92300 0.35130 0.00500
H 	H 	0.17180 0.06800 0.93420 0.07300
H 	H 	0.33930 0.02590 0.96920 0.12000
H 	H 	0.41710 0.85950 0.05290 0.01300
H 	H 	0.42390 0.84640 0.95270 0.04100
H 	H 	0.20610 0.70930 0.03190 0.03500
H 	H 	0.38750 0.70050 0.00290 0.03100
H 	H 	0.70070 0.87020 0.07580 0.02500
H 	H 	0.64110 0.76840 0.10540 0.05600
H 	H 	0.78070 0.13300 0.74290 0.02500
H 	H 	0.64250 0.16800 0.81060 0.02400
H 	H 	0.86070 0.29360 0.73540 0.04600
H 	H 	0.88660 0.27460 0.82390 0.03500
H 	H 	0.34500 0.84200 0.62620 0.01500
H 	H 	0.41710 0.85750 0.73540 0.02800
H 	H 	0.13540 0.06610 0.78250 0.04800
H 	H 	0.11640 0.95000 0.80810 0.07300
H 	H 	0.39000 0.94840 0.84330 0.01900
H 	H 	0.36820 0.07700 0.85130 0.00500
H 	H 	0.32820 0.93200 0.43420 0.07200
H 	H 	0.16070 0.97410 0.46920 0.12000
H 	H 	0.08290 0.14050 0.55290 0.01400
H 	H 	0.07610 0.15360 0.45270 0.04100
H 	H 	0.29390 0.29070 0.53190 0.03600
H 	H 	0.11250 0.29950 0.50290 0.03200
H 	H 	0.79930 0.12980 0.57580 0.02400
H 	H 	0.85890 0.23160 0.60540 0.05500
C 	C 	0.21170 0.31090 0.24040 -0.07100
C 	C 	0.29470 0.22220 0.21410 -0.08300
C 	C 	0.82000 0.64450 0.30600 -0.06100
C 	C 	0.68400 0.49900 0.20770 -0.13800
C 	C 	0.81980 0.48640 0.14930 0.00200
C 	C 	0.73650 0.51940 0.55990 -0.23900
C 	C 	0.66490 0.33710 0.50260 -0.07100
C 	C 	0.71370 0.23500 0.50280 -0.09000
C 	C 	0.26940 0.30160 0.41340 -0.09800
C 	C 	0.28830 0.68910 0.74040 -0.07100
C 	C 	0.20530 0.77780 0.71410 -0.08300
C 	C 	0.68000 0.35550 0.80600 -0.06100
C 	C 	0.81600 0.50100 0.70770 -0.13800
C 	C 	0.68020 0.51360 0.64930 0.00100
C 	C 	0.76350 0.48060 0.05990 -0.23900
C 	C 	0.83510 0.66290 0.00260 -0.07100
C 	C 	0.78630 0.76500 0.00280 -0.08700
C 	C 	0.23060 0.69840 0.91340 -0.09900
C 	C 	0.78830 0.81090 0.25960 -0.07100
C 	C 	0.70530 0.72220 0.28590 -0.08300
C 	C 	0.18000 0.14450 0.19400 -0.06100
C 	C 	0.31600 0.99900 0.29230 -0.13900
C 	C 	0.18020 0.98640 0.35070 0.00100
C 	C 	0.26350 0.01940 0.94010 -0.23900
C 	C 	0.33510 0.83710 0.99740 -0.07200
C 	C 	0.28630 0.73500 0.99720 -0.08700
C 	C 	0.73060 0.80160 0.08660 -0.09900
C 	C 	0.71170 0.18910 0.75960 -0.07100
C 	C 	0.79470 0.27780 0.78590 -0.08300
C 	C 	0.32000 0.85550 0.69400 -0.06100
C 	C 	0.18400 0.00100 0.79230 -0.13900
C 	C 	0.31980 0.01360 0.85070 0.00100
C 	C 	0.23650 0.98060 0.44010 -0.23900
C 	C 	0.16490 0.16290 0.49740 -0.07100
C 	C 	0.21370 0.26500 0.49720 -0.09000
C 	C 	0.76940 0.19840 0.58660 -0.09800
S 	S 	0.11010 0.29620 0.33940 -0.13100
S 	S 	0.73110 0.52820 0.31470 -0.13500
S 	S 	0.82980 0.41150 0.52509 -0.08800
S 	S 	0.38990 0.70380 0.83940 -0.13100
S 	S 	0.76890 0.47180 0.81470 -0.13500
S 	S 	0.67020 0.58850 0.02509 -0.08800
S 	S 	0.88990 0.79620 0.16060 -0.13000
S 	S 	0.26890 0.02820 0.18530 -0.13400
S 	S 	0.17020 0.91150 0.97491 -0.08700
S 	S 	0.61010 0.20380 0.66060 -0.13200
S 	S 	0.23110 0.97180 0.68530 -0.13400
S 	S 	0.32980 0.08850 0.47491 -0.08800
