data_crystal

_cell_length_a 13.37700
_cell_length_b 13.37700
_cell_length_c 14.46200
_cell_angle_alpha 90.00000
_cell_angle_beta  90.00000
_cell_angle_gamma 120.00000

_symmetry_space_group_name_	'P 1'
_symmetry_space_group_name_H-M	'P 1'

loop_
_symmetry_equiv_pos_as_xyz
  x,y,z

loop_
_atom_site_label
_atom_site_type_symbol
_atom_site_fract_x
_atom_site_fract_y
_atom_site_fract_z
_atom_site_charge
Sm	Sm	0.66667 0.33334 0.33243 2.27500
Sm	Sm	0.33333 0.66666 0.16757 2.27600
Sm	Sm	0.33333 0.66666 0.66757 2.28100
Sm	Sm	0.66667 0.33334 0.83243 2.28100
Cu	Cu	0.50000 0.00000 0.50000 0.90000
Cu	Cu	0.50000 0.50000 0.50000 0.92900
Cu	Cu	-0.00000 0.50000 0.50000 0.89800
Cu	Cu	0.50000 0.00000 -0.00000 0.87300
Cu	Cu	-0.00000 0.50000 -0.00000 0.87100
Cu	Cu	0.50000 0.50000 -0.00000 0.90200
H 	H 	0.96080 0.25450 0.95000 0.10000
H 	H 	0.86240 0.18090 0.02110 0.02600
H 	H 	0.80650 0.26720 0.12830 0.14800
H 	H 	0.91430 0.31360 0.19350 0.16300
H 	H 	0.02380 0.34980 0.07870 0.02900
H 	H 	0.29370 0.03920 0.95000 0.03900
H 	H 	0.31850 0.13760 0.02110 0.00100
H 	H 	0.46070 0.19350 0.12830 0.14200
H 	H 	0.39930 0.08570 0.19350 0.12000
H 	H 	0.32600 0.97620 0.07870 0.15100
H 	H 	0.74550 0.70630 0.95000 0.09100
H 	H 	0.81910 0.68150 0.02110 0.04500
H 	H 	0.73280 0.53930 0.12830 0.15400
H 	H 	0.68640 0.60070 0.19350 0.15200
H 	H 	0.65020 0.67400 0.07870 0.09700
H 	H 	0.70630 0.74550 0.55000 0.13800
H 	H 	0.68150 0.81910 0.47890 0.14600
H 	H 	0.53930 0.73280 0.37170 0.16600
H 	H 	0.60070 0.68640 0.30650 0.15600
H 	H 	0.67400 0.65020 0.42130 0.09800
H 	H 	0.25450 0.96080 0.55000 0.14600
H 	H 	0.18090 0.86240 0.47890 0.12600
H 	H 	0.26720 0.80650 0.37170 0.16000
H 	H 	0.31360 0.91430 0.30650 0.16500
H 	H 	0.34980 0.02380 0.42130 0.03400
H 	H 	0.03920 0.29370 0.55000 0.08700
H 	H 	0.13760 0.31850 0.47890 0.10600
H 	H 	0.19350 0.46070 0.37170 0.15500
H 	H 	0.08570 0.39930 0.30650 0.12300
H 	H 	0.97620 0.32600 0.42130 0.15500
H 	H 	0.03920 0.74550 0.05000 0.14700
H 	H 	0.13760 0.81910 0.97890 0.22600
H 	H 	0.19350 0.73280 0.87170 0.17300
H 	H 	0.08570 0.68640 0.80650 0.13300
H 	H 	0.97620 0.65020 0.92130 0.15800
H 	H 	0.70630 0.96080 0.05000 0.20600
H 	H 	0.68150 0.86240 0.97890 0.24400
H 	H 	0.53930 0.80650 0.87170 0.17700
H 	H 	0.60070 0.91430 0.80650 0.17400
H 	H 	0.67400 0.02380 0.92130 0.04200
H 	H 	0.25450 0.29370 0.05000 0.15900
H 	H 	0.18090 0.31850 0.97890 0.21400
H 	H 	0.26720 0.46070 0.87170 0.16900
H 	H 	0.31360 0.39930 0.80650 0.14500
H 	H 	0.34980 0.32600 0.92130 0.09300
H 	H 	0.29370 0.25450 0.45000 0.11000
H 	H 	0.31850 0.18090 0.52110 0.10900
H 	H 	0.46070 0.26720 0.62830 0.15600
H 	H 	0.39930 0.31360 0.69350 0.14300
H 	H 	0.32600 0.34980 0.57870 0.09100
H 	H 	0.74550 0.03920 0.45000 0.10200
H 	H 	0.81910 0.13760 0.52110 0.12700
H 	H 	0.73280 0.19350 0.62830 0.16100
H 	H 	0.68640 0.08570 0.69350 0.13200
H 	H 	0.65020 0.97620 0.57870 0.15500
H 	H 	0.96080 0.70630 0.45000 0.16100
H 	H 	0.86240 0.68150 0.52110 0.14600
H 	H 	0.80650 0.53930 0.62830 0.16600
H 	H 	0.91430 0.60070 0.69350 0.17400
H 	H 	0.02380 0.67400 0.57870 0.03500
C 	C 	0.73010 0.18380 0.43140 0.39200
C 	C 	0.74560 0.09790 0.48990 -0.29400
C 	C 	0.87570 0.43780 0.15990 0.50100
C 	C 	0.88320 0.33200 0.13980 -0.38800
C 	C 	0.45370 0.26990 0.43140 0.39400
C 	C 	0.35230 0.25440 0.48990 -0.29300
C 	C 	0.56210 0.12430 0.15990 0.48600
C 	C 	0.44880 0.11680 0.13980 -0.37000
C 	C 	0.81620 0.54630 0.43140 0.41300
C 	C 	0.90210 0.64770 0.48990 -0.32700
C 	C 	0.56220 0.43790 0.15990 0.49700
C 	C 	0.66800 0.55120 0.13980 -0.38800
C 	C 	0.54630 0.81620 0.06860 0.45900
C 	C 	0.64770 0.90210 0.01010 -0.52100
C 	C 	0.43790 0.56220 0.34010 0.50400
C 	C 	0.55120 0.66800 0.36020 -0.39800
C 	C 	0.18380 0.73010 0.06860 0.43900
C 	C 	0.09790 0.74560 0.01010 -0.49300
C 	C 	0.43780 0.87570 0.34010 0.50800
C 	C 	0.33200 0.88320 0.36020 -0.39700
C 	C 	0.26990 0.45370 0.06860 0.44500
C 	C 	0.25440 0.35230 0.01010 -0.50100
C 	C 	0.12430 0.56210 0.34010 0.49300
C 	C 	0.11680 0.44880 0.36020 -0.38000
C 	C 	0.26990 0.81620 0.56860 0.40800
C 	C 	0.25440 0.90210 0.51010 -0.31400
C 	C 	0.12430 0.56220 0.84010 0.50100
C 	C 	0.11680 0.66800 0.86020 -0.39100
C 	C 	0.54630 0.73010 0.56860 0.40500
C 	C 	0.64770 0.74560 0.51010 -0.31800
C 	C 	0.43790 0.87570 0.84010 0.51500
C 	C 	0.55120 0.88320 0.86020 -0.40700
C 	C 	0.18380 0.45370 0.56860 0.38600
C 	C 	0.09790 0.35230 0.51010 -0.28100
C 	C 	0.43780 0.56210 0.84010 0.50700
C 	C 	0.33200 0.44880 0.86020 -0.39600
C 	C 	0.45370 0.18380 0.93140 0.33600
C 	C 	0.35230 0.09790 0.98990 -0.06900
C 	C 	0.56210 0.43780 0.65990 0.50100
C 	C 	0.44880 0.33200 0.63980 -0.39000
C 	C 	0.81620 0.26990 0.93140 0.36100
C 	C 	0.90210 0.25440 0.98990 -0.11300
C 	C 	0.56220 0.12430 0.65990 0.49600
C 	C 	0.66800 0.11680 0.63980 -0.38600
C 	C 	0.73010 0.54630 0.93140 0.35800
C 	C 	0.74560 0.64770 0.98990 -0.11700
C 	C 	0.87570 0.43790 0.65990 0.51000
C 	C 	0.88320 0.55120 0.63980 -0.40200
N 	N 	0.65260 0.04190 0.55870 -0.20400
N 	N 	0.38930 0.34740 0.55870 -0.15500
N 	N 	0.95810 0.61070 0.55870 -0.09000
N 	N 	0.61070 0.95810 0.94130 -0.04200
N 	N 	0.04190 0.65260 0.94130 -0.15200
N 	N 	0.34740 0.38930 0.94130 -0.09900
N 	N 	0.34740 0.95810 0.44130 -0.09500
N 	N 	0.61070 0.65260 0.44130 -0.15000
N 	N 	0.04190 0.38930 0.44130 -0.21100
N 	N 	0.38930 0.04190 0.05870 -0.25900
N 	N 	0.95810 0.34740 0.05870 -0.14000
N 	N 	0.65260 0.61070 0.05870 -0.19900
O 	O 	0.63910 0.18790 0.44170 -0.53900
O 	O 	0.75450 0.55950 0.37300 -0.40600
O 	O 	0.59770 0.07370 0.10770 -0.46700
O 	O 	0.81710 0.43580 0.22840 -0.53500
O 	O 	0.54880 0.36090 0.44170 -0.53700
O 	O 	0.80500 0.24550 0.37300 -0.40300
O 	O 	0.47600 0.40230 0.10770 -0.45000
O 	O 	0.61870 0.18290 0.22840 -0.54900
O 	O 	0.81210 0.45120 0.44170 -0.52900
O 	O 	0.44050 0.19500 0.37300 -0.41700
O 	O 	0.92630 0.52400 0.10770 -0.41200
O 	O 	0.56420 0.38130 0.22840 -0.54600
O 	O 	0.45120 0.81210 0.05830 -0.55700
O 	O 	0.19500 0.44050 0.12700 -0.43800
O 	O 	0.52400 0.92630 0.39230 -0.40600
O 	O 	0.38130 0.56420 0.27160 -0.54500
O 	O 	0.18790 0.63910 0.05830 -0.56800
O 	O 	0.55950 0.75450 0.12700 -0.42600
O 	O 	0.07370 0.59770 0.39230 -0.46000
O 	O 	0.43580 0.81710 0.27160 -0.53500
O 	O 	0.36090 0.54880 0.05830 -0.56500
O 	O 	0.24550 0.80500 0.12700 -0.42400
O 	O 	0.40230 0.47600 0.39230 -0.44100
O 	O 	0.18290 0.61870 0.27160 -0.54900
O 	O 	0.36090 0.81210 0.55830 -0.52900
O 	O 	0.24550 0.44050 0.62700 -0.41200
O 	O 	0.40230 0.92630 0.89230 -0.39100
O 	O 	0.18290 0.56420 0.77160 -0.55100
O 	O 	0.45120 0.63910 0.55830 -0.53800
O 	O 	0.19500 0.75450 0.62700 -0.41300
O 	O 	0.52400 0.59770 0.89230 -0.41800
O 	O 	0.38130 0.81710 0.77160 -0.53800
O 	O 	0.18790 0.54880 0.55830 -0.54000
O 	O 	0.55950 0.80500 0.62700 -0.40000
O 	O 	0.07370 0.47600 0.89230 -0.44200
O 	O 	0.43580 0.61870 0.77160 -0.54200
O 	O 	0.54880 0.18790 0.94170 -0.50500
O 	O 	0.80500 0.55950 0.87300 -0.37800
O 	O 	0.47600 0.07370 0.60770 -0.46000
O 	O 	0.61870 0.43580 0.72840 -0.54300
O 	O 	0.81210 0.36090 0.94170 -0.49600
O 	O 	0.44050 0.24550 0.87300 -0.38900
O 	O 	0.92630 0.40230 0.60770 -0.40700
O 	O 	0.56420 0.18290 0.72840 -0.55200
O 	O 	0.63910 0.45120 0.94170 -0.50500
O 	O 	0.75450 0.19500 0.87300 -0.39100
O 	O 	0.59770 0.52400 0.60770 -0.43600
O 	O 	0.81710 0.38130 0.72840 -0.53800
