data_crystal

_cell_length_a 7.95300
_cell_length_b 11.09920
_cell_length_c 11.09920
_cell_angle_alpha 65.51660
_cell_angle_beta  76.18160
_cell_angle_gamma 103.81800

_symmetry_space_group_name_	'P 1'
_symmetry_space_group_name_H-M	'P 1'

loop_
_symmetry_equiv_pos_as_xyz
  x,y,z

loop_
_atom_site_label
_atom_site_type_symbol
_atom_site_fract_x
_atom_site_fract_y
_atom_site_fract_z
_atom_site_charge
In	In	0.95190 0.59722 0.39772 1.97700
In	In	0.34962 0.39772 0.00506 2.00700
In	In	0.35468 0.00506 0.59722 1.99700
In	In	0.84962 0.99494 0.60228 1.97000
In	In	0.85468 0.40278 0.99494 1.97200
In	In	0.45190 0.60228 0.40278 2.00100
H 	H 	0.69920 0.66620 0.48920 0.37900
H 	H 	0.18840 0.48920 0.84460 0.39200
H 	H 	0.03300 0.84460 0.66620 0.43900
H 	H 	0.68840 0.15540 0.51080 0.36500
H 	H 	0.53300 0.33380 0.15540 0.37500
H 	H 	0.19920 0.51080 0.33380 0.39000
C 	C 	0.93140 0.57410 0.68210 0.22100
C 	C 	0.86220 0.41700 0.71700 0.22100
C 	C 	0.61350 0.68210 0.74380 0.22700
C 	C 	0.57920 0.71700 0.86600 0.24100
C 	C 	0.35730 0.74380 0.57410 0.24500
C 	C 	0.44520 0.86600 0.41700 0.25200
C 	C 	0.11350 0.25620 0.31790 0.18900
C 	C 	0.07920 0.13400 0.28300 0.45400
C 	C 	0.85730 0.42590 0.25620 0.21300
C 	C 	0.94520 0.58300 0.13400 0.22900
C 	C 	0.43140 0.31790 0.42590 0.23700
C 	C 	0.36220 0.28300 0.58300 0.23900
O 	O 	0.70990 0.63880 0.43060 -1.00600
O 	O 	0.99360 0.66990 0.55110 -0.55300
O 	O 	0.84470 0.39460 0.61930 -0.47100
O 	O 	0.32950 0.62000 0.59630 -0.42700
O 	O 	0.49380 0.83270 0.32480 -0.47000
O 	O 	0.14050 0.43060 0.93060 -0.92700
O 	O 	0.54470 0.55110 0.77900 -0.47700
O 	O 	0.46400 0.61930 0.98610 -0.43100
O 	O 	0.92580 0.59630 0.78370 -0.53400
O 	O 	0.81860 0.32480 0.84250 -0.52500
O 	O 	0.07110 0.93060 0.63880 -0.92600
O 	O 	0.32370 0.77900 0.66990 -0.44200
O 	O 	0.45010 0.98610 0.39460 -0.41600
O 	O 	0.70950 0.78370 0.62000 -0.47800
O 	O 	0.66110 0.84250 0.83270 -0.50700
O 	O 	0.64050 0.06940 0.56940 -1.01400
O 	O 	0.04470 0.22100 0.44890 -0.38500
O 	O 	0.96400 0.01390 0.38070 -0.61900
O 	O 	0.42580 0.21630 0.40370 -0.46300
O 	O 	0.31860 0.15750 0.67520 -0.45900
O 	O 	0.57110 0.36120 0.06940 -0.97900
O 	O 	0.82370 0.33010 0.22100 -0.51500
O 	O 	0.95010 0.60540 0.01390 -0.46900
O 	O 	0.20950 0.38000 0.21630 -0.41000
O 	O 	0.16110 0.16730 0.15750 -0.49100
O 	O 	0.20990 0.56940 0.36120 -0.92300
O 	O 	0.49360 0.44890 0.33010 -0.47500
O 	O 	0.34470 0.38070 0.60540 -0.40900
O 	O 	0.82950 0.40370 0.38000 -0.49600
O 	O 	0.99380 0.67520 0.16730 -0.53500
