data_crystal

_cell_length_a 7.11900
_cell_length_b 8.78300
_cell_length_c 15.06700
_cell_angle_alpha 79.61000
_cell_angle_beta  87.52000
_cell_angle_gamma 83.21000

_symmetry_space_group_name_	'P 1'
_symmetry_space_group_name_H-M	'P 1'

loop_
_symmetry_equiv_pos_as_xyz
  x,y,z

loop_
_atom_site_label
_atom_site_type_symbol
_atom_site_fract_x
_atom_site_fract_y
_atom_site_fract_z
_atom_site_charge
K 	K 	0.01373 0.55182 0.12751 0.66000
K 	K 	0.98627 0.44818 0.87249 0.66000
Gd	Gd	0.52396 0.39018 0.22509 1.49200
Gd	Gd	0.47604 0.60982 0.77491 1.49200
H 	H 	0.32460 0.49120 0.48610 0.06500
H 	H 	0.62660 0.03460 0.85420 0.03700
H 	H 	0.67540 0.50880 0.51390 0.06600
H 	H 	0.37340 0.96540 0.14580 0.03800
C 	C 	0.19360 0.49450 0.49190 -0.01000
C 	C 	0.09210 0.46630 0.42150 -0.03700
C 	C 	0.10440 0.52760 0.57090 -0.05100
C 	C 	0.20780 0.42920 0.34000 0.31500
C 	C 	0.22200 0.55860 0.64460 0.31800
C 	C 	0.48800 0.14930 0.94680 -0.04900
C 	C 	0.29860 0.26210 0.07030 0.38000
C 	C 	0.41030 0.12730 0.03510 -0.07900
C 	C 	0.57620 0.02090 0.91270 -0.00300
C 	C 	0.48770 0.30800 0.89100 0.30100
C 	C 	0.80640 0.50550 0.50810 -0.01000
C 	C 	0.90790 0.53370 0.57850 -0.03700
C 	C 	0.89560 0.47240 0.42910 -0.05100
C 	C 	0.79220 0.57080 0.66000 0.31500
C 	C 	0.77800 0.44140 0.35540 0.31800
C 	C 	0.51200 0.85070 0.05320 -0.04900
C 	C 	0.70140 0.73790 0.92970 0.38000
C 	C 	0.58970 0.87270 0.96490 -0.07900
C 	C 	0.42380 0.97910 0.08730 -0.00300
C 	C 	0.51230 0.69200 0.10900 0.30100
O 	O 	0.28770 0.29360 0.34228 -0.34900
O 	O 	0.23910 0.53780 0.27620 -0.39300
O 	O 	0.14590 0.59180 0.71631 -0.39400
O 	O 	0.39800 0.55280 0.63079 -0.37100
O 	O 	0.32000 0.27010 0.15227 -0.44300
O 	O 	0.19320 0.35440 0.01776 -0.36000
O 	O 	0.58440 0.40440 0.91417 -0.34800
O 	O 	0.39380 0.34260 0.81896 -0.38100
O 	O 	0.73080 0.34380 0.09740 -0.30100
O 	O 	0.71230 0.70640 0.65772 -0.34900
O 	O 	0.76090 0.46220 0.72380 -0.39300
O 	O 	0.85410 0.40820 0.28369 -0.39400
O 	O 	0.60200 0.44720 0.36921 -0.37100
O 	O 	0.68000 0.72990 0.84773 -0.44300
O 	O 	0.80680 0.64560 0.98224 -0.36000
O 	O 	0.41560 0.59560 0.08583 -0.34800
O 	O 	0.60620 0.65740 0.18104 -0.38100
O 	O 	0.26920 0.65620 0.90260 -0.30100
