data_crystal

_cell_length_a 18.00500
_cell_length_b 23.23500
_cell_length_c 23.73200
_cell_angle_alpha 90.00000
_cell_angle_beta  90.00000
_cell_angle_gamma 90.46000

_symmetry_space_group_name_	'P 1'
_symmetry_space_group_name_H-M	'P 1'

loop_
_symmetry_equiv_pos_as_xyz
  x,y,z

loop_
_atom_site_label
_atom_site_type_symbol
_atom_site_fract_x
_atom_site_fract_y
_atom_site_fract_z
_atom_site_charge
Cr	Cr	0.99259 0.14725 0.34799 1.49200
Cr	Cr	0.00741 0.35275 0.84799 1.47400
Cr	Cr	0.00741 0.85275 0.65201 1.47400
Cr	Cr	0.99259 0.64725 0.15201 1.49300
Cr	Cr	0.50000 0.50000 0.50000 1.47100
Cr	Cr	0.50000 0.00000 -0.00000 1.44200
Cr	Cr	0.00000 0.50000 0.50000 1.46300
Cr	Cr	-0.00000 0.00000 -0.00000 1.43500
Cu	Cu	0.74313 0.59892 0.44359 0.87200
Cu	Cu	0.87734 0.29351 0.48569 0.87400
Cu	Cu	0.91219 0.50928 0.71269 0.87000
Cu	Cu	0.25687 0.90108 0.94359 0.88100
Cu	Cu	0.12266 0.20649 0.98569 0.88800
Cu	Cu	0.08781 0.99072 0.21269 0.87900
Cu	Cu	0.25687 0.40108 0.55641 0.87200
Cu	Cu	0.12266 0.70649 0.51431 0.87200
Cu	Cu	0.08781 0.49072 0.28731 0.86600
Cu	Cu	0.74313 0.09892 0.05641 0.86300
Cu	Cu	0.87734 0.79351 0.01431 0.85600
Cu	Cu	0.91219 0.00928 0.78731 0.85600
H 	H 	0.65990 0.64270 0.54750 -0.15800
H 	H 	0.67130 0.71380 0.61620 0.40200
H 	H 	0.77430 0.75110 0.62210 -0.29200
H 	H 	0.86010 0.75760 0.55430 0.26100
H 	H 	0.88900 0.70760 0.43430 0.12000
H 	H 	0.90340 0.64590 0.45900 0.10100
H 	H 	0.89940 0.59570 0.38900 0.10300
H 	H 	0.88770 0.64420 0.34350 0.12300
H 	H 	0.86560 0.57440 0.26430 0.13400
H 	H 	0.78790 0.51570 0.22590 -0.04300
H 	H 	0.68240 0.48050 0.27000 0.11300
H 	H 	0.65910 0.52200 0.36330 -0.03200
H 	H 	0.81360 0.27360 0.36540 -0.01200
H 	H 	0.72740 0.31250 0.30700 0.08700
H 	H 	0.65130 0.38340 0.34290 -0.00100
H 	H 	0.66950 0.41870 0.43290 0.08800
H 	H 	0.81050 0.41660 0.50960 0.08800
H 	H 	0.73180 0.39610 0.53070 0.10700
H 	H 	0.82230 0.35710 0.62040 0.10800
H 	H 	0.88210 0.38560 0.58070 0.09200
H 	H 	0.92120 0.32170 0.68350 0.13400
H 	H 	0.00620 0.25050 0.69520 -0.05500
H 	H 	0.04120 0.18310 0.62390 0.12000
H 	H 	0.98880 0.20430 0.53330 -0.02200
H 	H 	0.81030 0.41140 0.74120 -0.03000
H 	H 	0.69340 0.37530 0.72160 0.12300
H 	H 	0.63760 0.42130 0.65470 -0.02100
H 	H 	0.67030 0.50800 0.61360 0.10300
H 	H 	0.84150 0.55620 0.60140 0.08200
H 	H 	0.78140 0.59550 0.62960 0.10000
H 	H 	0.91280 0.65640 0.65410 0.11600
H 	H 	0.94510 0.60360 0.62100 0.09800
H 	H 	0.04230 0.69060 0.68620 0.10400
H 	H 	0.14240 0.67240 0.74720 -0.00800
H 	H 	0.14060 0.59160 0.80410 0.09700
H 	H 	0.04970 0.52350 0.78870 -0.01600
H 	H 	0.77240 0.65300 0.40580 -0.03800
H 	H 	0.80430 0.30090 0.52930 -0.02000
H 	H 	0.86310 0.57050 0.71260 -0.01800
H 	H 	0.34010 0.85730 0.04750 -0.14900
H 	H 	0.32870 0.78620 0.11620 0.35800
H 	H 	0.22570 0.74890 0.12210 -0.25400
H 	H 	0.13990 0.74240 0.05430 0.22100
H 	H 	0.11100 0.79240 0.93430 0.09700
H 	H 	0.09660 0.85410 0.95900 0.08000
H 	H 	0.10060 0.90430 0.88900 0.08200
H 	H 	0.11230 0.85580 0.84350 0.10300
H 	H 	0.13440 0.92560 0.76430 0.10000
H 	H 	0.21210 0.98430 0.72590 0.00500
H 	H 	0.31760 0.01950 0.77000 0.04700
H 	H 	0.34090 0.97800 0.86330 -0.00400
H 	H 	0.18640 0.22640 0.86540 -0.01300
H 	H 	0.27260 0.18750 0.80700 0.09300
H 	H 	0.34870 0.11660 0.84290 -0.00900
H 	H 	0.33050 0.08130 0.93290 0.09900
H 	H 	0.18950 0.08340 0.00960 0.08200
H 	H 	0.26820 0.10390 0.03070 0.11100
H 	H 	0.17770 0.14290 0.12040 0.09500
H 	H 	0.11790 0.11440 0.08070 0.07200
H 	H 	0.07880 0.17830 0.18350 0.06600
H 	H 	0.99380 0.24950 0.19520 0.06800
H 	H 	0.95880 0.31690 0.12390 0.04200
H 	H 	0.01120 0.29570 0.03330 -0.00000
H 	H 	0.18970 0.08860 0.24120 -0.05400
H 	H 	0.30660 0.12470 0.22160 0.16200
H 	H 	0.36240 0.07870 0.15470 -0.07300
H 	H 	0.32970 0.99200 0.11360 0.17800
H 	H 	0.15850 0.94380 0.10140 0.09500
H 	H 	0.21860 0.90450 0.12960 0.11300
H 	H 	0.08720 0.84360 0.15410 0.09700
H 	H 	0.05490 0.89640 0.12100 0.07900
H 	H 	0.95770 0.80940 0.18620 0.08500
H 	H 	0.85760 0.82760 0.24720 0.00300
H 	H 	0.85940 0.90840 0.30410 0.10000
H 	H 	0.95030 0.97650 0.28870 -0.00700
H 	H 	0.22760 0.84700 0.90580 -0.02600
H 	H 	0.19570 0.19910 0.02930 -0.03300
H 	H 	0.13690 0.92950 0.21260 -0.01800
H 	H 	0.34010 0.35730 0.45250 -0.15400
H 	H 	0.32870 0.28620 0.38380 0.38800
H 	H 	0.22570 0.24890 0.37790 -0.28400
H 	H 	0.13990 0.24240 0.44570 0.24800
H 	H 	0.11100 0.29240 0.56570 0.10600
H 	H 	0.09660 0.35410 0.54100 0.08600
H 	H 	0.10060 0.40430 0.61100 0.08800
H 	H 	0.11230 0.35580 0.65650 0.11000
H 	H 	0.13440 0.42560 0.73570 0.12500
H 	H 	0.21210 0.48430 0.77410 -0.03600
H 	H 	0.31760 0.51950 0.73000 0.11500
H 	H 	0.34090 0.47800 0.63670 -0.03100
H 	H 	0.18640 0.72640 0.63460 -0.01100
H 	H 	0.27260 0.68750 0.69300 0.09000
H 	H 	0.34870 0.61660 0.65710 0.00100
H 	H 	0.33050 0.58130 0.56710 0.08800
H 	H 	0.18950 0.58340 0.49040 0.08700
H 	H 	0.26820 0.60390 0.46930 0.10600
H 	H 	0.17770 0.64290 0.37960 0.09500
H 	H 	0.11790 0.61440 0.41930 0.07700
H 	H 	0.07880 0.67830 0.31650 0.06300
H 	H 	0.99380 0.74950 0.30480 0.07600
H 	H 	0.95880 0.81690 0.37610 0.04300
H 	H 	0.01120 0.79570 0.46670 0.01700
H 	H 	0.18970 0.58860 0.25880 -0.03100
H 	H 	0.30660 0.62470 0.27840 0.12000
H 	H 	0.36240 0.57870 0.34530 -0.02100
H 	H 	0.32970 0.49200 0.38640 0.10200
H 	H 	0.15850 0.44380 0.39860 0.08000
H 	H 	0.21860 0.40450 0.37040 0.09800
H 	H 	0.08720 0.34360 0.34590 0.09700
H 	H 	0.05490 0.39640 0.37900 0.07700
H 	H 	0.95770 0.30940 0.31380 0.08500
H 	H 	0.85760 0.32760 0.25280 0.00200
H 	H 	0.85940 0.40840 0.19590 0.09000
H 	H 	0.95030 0.47650 0.21130 -0.01900
H 	H 	0.22760 0.34700 0.59420 -0.03700
H 	H 	0.19570 0.69910 0.47070 -0.01600
H 	H 	0.13690 0.42950 0.28740 -0.02000
H 	H 	0.65990 0.14270 0.95250 -0.16300
H 	H 	0.67130 0.21380 0.88380 0.43400
H 	H 	0.77430 0.25110 0.87790 -0.32300
H 	H 	0.86010 0.25760 0.94570 0.28800
H 	H 	0.88900 0.20760 0.06570 0.12700
H 	H 	0.90340 0.14590 0.04100 0.10700
H 	H 	0.89940 0.09570 0.11100 0.10800
H 	H 	0.88770 0.14420 0.15650 0.12900
H 	H 	0.86560 0.07440 0.23570 0.15900
H 	H 	0.78790 0.01570 0.27410 -0.08600
H 	H 	0.68240 0.98050 0.23000 0.18300
H 	H 	0.65910 0.02200 0.13670 -0.05900
H 	H 	0.81360 0.77360 0.13460 -0.01000
H 	H 	0.72740 0.81250 0.19300 0.08400
H 	H 	0.65130 0.88340 0.15710 0.00900
H 	H 	0.66950 0.91870 0.06710 0.07600
H 	H 	0.81050 0.91660 0.99040 0.09400
H 	H 	0.73180 0.89610 0.96930 0.10200
H 	H 	0.82230 0.85710 0.87960 0.11000
H 	H 	0.88210 0.88560 0.91930 0.10000
H 	H 	0.92120 0.82170 0.81650 0.13800
H 	H 	0.00620 0.75050 0.80480 -0.06100
H 	H 	0.04120 0.68310 0.87610 0.13000
H 	H 	0.98880 0.70430 0.96670 -0.00900
H 	H 	0.81030 0.91140 0.75880 -0.00600
H 	H 	0.69340 0.87530 0.77840 0.07800
H 	H 	0.63760 0.92130 0.84530 0.03500
H 	H 	0.67030 0.00800 0.88640 0.02200
H 	H 	0.84150 0.05620 0.89860 0.06600
H 	H 	0.78140 0.09550 0.87040 0.08300
H 	H 	0.91280 0.15640 0.84590 0.11500
H 	H 	0.94510 0.10360 0.87900 0.09500
H 	H 	0.04230 0.19060 0.81380 0.10300
H 	H 	0.14240 0.17240 0.75280 -0.00900
H 	H 	0.14060 0.09160 0.69590 0.08800
H 	H 	0.04970 0.02350 0.71130 -0.02800
H 	H 	0.77240 0.15300 0.09420 -0.05000
H 	H 	0.80430 0.80090 0.97070 -0.00200
H 	H 	0.86310 0.07050 0.78740 -0.02000
C 	C 	0.70230 0.66590 0.54750 0.51700
C 	C 	0.70870 0.70630 0.59020 -1.04500
C 	C 	0.76490 0.72950 0.58990 0.97700
C 	C 	0.82090 0.73140 0.55120 -0.64600
C 	C 	0.81610 0.68830 0.50280 0.24500
C 	C 	0.86500 0.67300 0.44870 -0.26100
C 	C 	0.86250 0.61840 0.36940 -0.26600
C 	C 	0.81140 0.58190 0.34000 0.19900
C 	C 	0.82400 0.56220 0.28430 -0.29800
C 	C 	0.77790 0.52800 0.26240 0.21500
C 	C 	0.71420 0.50690 0.28700 -0.24000
C 	C 	0.70250 0.53140 0.34400 0.14100
C 	C 	0.78570 0.30420 0.37880 0.09300
C 	C 	0.73310 0.32590 0.34370 -0.16900
C 	C 	0.68900 0.36840 0.36510 0.08900
C 	C 	0.69950 0.38940 0.41910 -0.17600
C 	C 	0.75740 0.36550 0.45370 0.13700
C 	C 	0.77620 0.38420 0.51100 -0.22400
C 	C 	0.85440 0.35050 0.58820 -0.24300
C 	C 	0.90770 0.30220 0.60140 0.19100
C 	C 	0.93500 0.29770 0.65410 -0.29200
C 	C 	0.98480 0.25440 0.65980 0.22200
C 	C 	0.00890 0.21340 0.61730 -0.27200
C 	C 	0.97580 0.22640 0.56440 0.13700
C 	C 	0.78100 0.43090 0.71530 0.13800
C 	C 	0.71350 0.40780 0.70430 -0.26000
C 	C 	0.68240 0.43710 0.66690 0.16600
C 	C 	0.70130 0.48970 0.63930 -0.21500
C 	C 	0.77370 0.51170 0.65530 0.14000
C 	C 	0.81580 0.56430 0.63640 -0.21300
C 	C 	0.92890 0.61690 0.65780 -0.24400
C 	C 	0.99260 0.61340 0.69950 0.18300
C 	C 	0.04520 0.65620 0.70610 -0.23600
C 	C 	0.10370 0.64590 0.74420 0.11500
C 	C 	0.10430 0.59730 0.77680 -0.18600
C 	C 	0.04920 0.55730 0.76770 0.09100
C 	C 	0.60040 0.53760 0.48280 -0.24900
C 	C 	0.55290 0.42550 0.52910 -0.25300
C 	C 	0.49940 0.46590 0.41790 -0.25000
C 	C 	0.88960 0.52410 0.48850 -0.24700
C 	C 	0.97290 0.41540 0.48250 -0.24900
C 	C 	0.97840 0.48640 0.58390 -0.25600
C 	C 	0.95130 0.20530 0.40500 -0.23300
C 	C 	0.06460 0.12260 0.40770 -0.29400
C 	C 	0.06850 0.20550 0.31690 -0.27600
C 	C 	0.91720 0.18030 0.29070 -0.25300
C 	C 	0.91810 0.08500 0.37150 -0.26000
C 	C 	0.96690 0.41030 0.79250 -0.23700
C 	C 	0.29770 0.83410 0.04750 0.45800
C 	C 	0.29130 0.79370 0.09020 -0.93500
C 	C 	0.23510 0.77050 0.08990 0.85500
C 	C 	0.17910 0.76860 0.05120 -0.57100
C 	C 	0.18390 0.81170 0.00280 0.17400
C 	C 	0.13500 0.82700 0.94870 -0.19100
C 	C 	0.13750 0.88160 0.86940 -0.22400
C 	C 	0.18860 0.91810 0.84000 0.15600
C 	C 	0.17600 0.93780 0.78430 -0.20700
C 	C 	0.22210 0.97200 0.76240 0.10300
C 	C 	0.28580 0.99310 0.78700 -0.10800
C 	C 	0.29750 0.96860 0.84400 0.08900
C 	C 	0.21430 0.19580 0.87880 0.10100
C 	C 	0.26690 0.17410 0.84370 -0.18200
C 	C 	0.31100 0.13160 0.86510 0.10700
C 	C 	0.30050 0.11060 0.91910 -0.20200
C 	C 	0.24260 0.13450 0.95370 0.18400
C 	C 	0.22380 0.11580 0.01100 -0.27900
C 	C 	0.14560 0.14950 0.08820 -0.20500
C 	C 	0.09230 0.19780 0.10140 0.11100
C 	C 	0.06500 0.20230 0.15410 -0.12300
C 	C 	0.01520 0.24560 0.15980 -0.05500
C 	C 	0.99110 0.28660 0.11730 -0.03500
C 	C 	0.02420 0.27360 0.06440 -0.00500
C 	C 	0.21900 0.06910 0.21530 0.19800
C 	C 	0.28650 0.09220 0.20430 -0.38000
C 	C 	0.31760 0.06290 0.16690 0.30000
C 	C 	0.29870 0.01030 0.13930 -0.39100
C 	C 	0.22630 0.98830 0.15530 0.24100
C 	C 	0.18420 0.93570 0.13640 -0.26300
C 	C 	0.07110 0.88310 0.15780 -0.20600
C 	C 	0.00740 0.88660 0.19950 0.11100
C 	C 	0.95480 0.84380 0.20610 -0.14800
C 	C 	0.89630 0.85410 0.24420 0.08500
C 	C 	0.89570 0.90270 0.27680 -0.17500
C 	C 	0.95080 0.94270 0.26770 0.13600
C 	C 	0.39960 0.96240 0.98280 -0.20400
C 	C 	0.44710 0.07450 0.02910 -0.28300
C 	C 	0.50060 0.03410 0.91790 -0.24300
C 	C 	0.11040 0.97590 0.98850 -0.21700
C 	C 	0.02710 0.08460 0.98250 -0.25800
C 	C 	0.02160 0.01360 0.08390 -0.30500
C 	C 	0.04870 0.29470 0.90500 -0.24700
C 	C 	0.93540 0.37740 0.90770 -0.25800
C 	C 	0.93150 0.29450 0.81690 -0.24900
C 	C 	0.08280 0.31970 0.79070 -0.26500
C 	C 	0.08190 0.41500 0.87150 -0.26600
C 	C 	0.03310 0.08970 0.29250 -0.27000
C 	C 	0.29770 0.33410 0.45250 0.50100
C 	C 	0.29130 0.29370 0.40980 -1.01700
C 	C 	0.23510 0.27050 0.41010 0.94500
C 	C 	0.17910 0.26860 0.44880 -0.62900
C 	C 	0.18390 0.31170 0.49720 0.23100
C 	C 	0.13500 0.32700 0.55130 -0.24700
C 	C 	0.13750 0.38160 0.63060 -0.25000
C 	C 	0.18860 0.41810 0.66000 0.18700
C 	C 	0.17600 0.43780 0.71570 -0.28700
C 	C 	0.22210 0.47200 0.73760 0.20400
C 	C 	0.28580 0.49310 0.71300 -0.23300
C 	C 	0.29750 0.46860 0.65600 0.13800
C 	C 	0.21430 0.69580 0.62120 0.09300
C 	C 	0.26690 0.67410 0.65630 -0.16800
C 	C 	0.31100 0.63160 0.63490 0.08900
C 	C 	0.30050 0.61060 0.58090 -0.17500
C 	C 	0.24260 0.63450 0.54630 0.13600
C 	C 	0.22380 0.61580 0.48900 -0.22100
C 	C 	0.14560 0.64950 0.41180 -0.19800
C 	C 	0.09230 0.69780 0.39860 0.10900
C 	C 	0.06500 0.70230 0.34590 -0.11200
C 	C 	0.01520 0.74560 0.34020 -0.07000
C 	C 	0.99110 0.78660 0.38270 -0.01600
C 	C 	0.02420 0.77360 0.43560 -0.01100
C 	C 	0.21900 0.56910 0.28470 0.13500
C 	C 	0.28650 0.59220 0.29570 -0.25900
C 	C 	0.31760 0.56290 0.33310 0.16300
C 	C 	0.29870 0.51030 0.36070 -0.21500
C 	C 	0.22630 0.48830 0.34470 0.13800
C 	C 	0.18420 0.43570 0.36360 -0.21000
C 	C 	0.07110 0.38310 0.34220 -0.20500
C 	C 	0.00740 0.38660 0.30050 0.10900
C 	C 	0.95480 0.34380 0.29390 -0.15000
C 	C 	0.89630 0.35410 0.25580 0.08200
C 	C 	0.89570 0.40270 0.22320 -0.17700
C 	C 	0.95080 0.44270 0.23230 0.13000
C 	C 	0.39960 0.46240 0.51720 -0.25000
C 	C 	0.44710 0.57450 0.47090 -0.25200
C 	C 	0.50060 0.53410 0.58210 -0.24900
C 	C 	0.11040 0.47590 0.51150 -0.26300
C 	C 	0.02710 0.58460 0.51750 -0.27800
C 	C 	0.02160 0.51360 0.41610 -0.28000
C 	C 	0.04870 0.79470 0.59500 -0.25200
C 	C 	0.93540 0.87740 0.59230 -0.26000
C 	C 	0.93150 0.79450 0.68310 -0.24900
C 	C 	0.08280 0.81970 0.70930 -0.26400
C 	C 	0.08190 0.91500 0.62850 -0.26600
C 	C 	0.03310 0.58970 0.20750 -0.26800
C 	C 	0.70230 0.16590 0.95250 0.56200
C 	C 	0.70870 0.20630 0.90980 -1.13100
C 	C 	0.76490 0.22950 0.91010 1.07100
C 	C 	0.82090 0.23140 0.94880 -0.70800
C 	C 	0.81610 0.18830 0.99720 0.30500
C 	C 	0.86500 0.17300 0.05130 -0.31900
C 	C 	0.86250 0.11840 0.13060 -0.29100
C 	C 	0.81140 0.08190 0.16000 0.23100
C 	C 	0.82400 0.06220 0.21570 -0.37900
C 	C 	0.77790 0.02800 0.23760 0.31800
C 	C 	0.71420 0.00690 0.21300 -0.36700
C 	C 	0.70250 0.03140 0.15600 0.19200
C 	C 	0.78570 0.80420 0.12120 0.08500
C 	C 	0.73310 0.82590 0.15630 -0.15400
C 	C 	0.68900 0.86840 0.13490 0.07100
C 	C 	0.69950 0.88940 0.08090 -0.14800
C 	C 	0.75740 0.86550 0.04630 0.08600
C 	C 	0.77620 0.88420 0.98900 -0.16300
C 	C 	0.85440 0.85050 0.91180 -0.24100
C 	C 	0.90770 0.80220 0.89860 0.19900
C 	C 	0.93500 0.79770 0.84590 -0.30000
C 	C 	0.98480 0.75440 0.84020 0.23900
C 	C 	0.00890 0.71340 0.88270 -0.28200
C 	C 	0.97580 0.72640 0.93560 0.14900
C 	C 	0.78100 0.93090 0.78470 0.07100
C 	C 	0.71350 0.90780 0.79570 -0.12900
C 	C 	0.68240 0.93710 0.83310 0.02000
C 	C 	0.70130 0.98970 0.86070 -0.02600
C 	C 	0.77370 0.01170 0.84470 0.02900
C 	C 	0.81580 0.06430 0.86360 -0.15600
C 	C 	0.92890 0.11690 0.84220 -0.24000
C 	C 	0.99260 0.11340 0.80050 0.17700
C 	C 	0.04520 0.15620 0.79390 -0.23200
C 	C 	0.10370 0.14590 0.75580 0.11100
C 	C 	0.10430 0.09730 0.72320 -0.18800
C 	C 	0.04920 0.05730 0.73230 0.08800
C 	C 	0.60040 0.03760 0.01720 -0.28200
C 	C 	0.55290 0.92550 0.97090 -0.20900
C 	C 	0.49940 0.96590 0.08210 -0.24500
C 	C 	0.88960 0.02410 0.01150 -0.28500
C 	C 	0.97290 0.91540 0.01750 -0.25700
C 	C 	0.97840 0.98640 0.91610 -0.21400
C 	C 	0.95130 0.70530 0.09500 -0.23800
C 	C 	0.06460 0.62260 0.09230 -0.29700
C 	C 	0.06850 0.70550 0.18310 -0.27800
C 	C 	0.91720 0.68030 0.20930 -0.25100
C 	C 	0.91810 0.58500 0.12850 -0.25900
C 	C 	0.96690 0.91030 0.70750 -0.23300
N 	N 	0.75030 0.65740 0.50760 -0.34800
N 	N 	0.81980 0.64920 0.40750 -0.10700
N 	N 	0.74850 0.56420 0.36710 -0.27300
N 	N 	0.80120 0.32310 0.43150 -0.24400
N 	N 	0.81030 0.33590 0.54020 -0.12900
N 	N 	0.92600 0.26960 0.55710 -0.26600
N 	N 	0.81000 0.47860 0.69310 -0.25500
N 	N 	0.86740 0.58080 0.67790 -0.13000
N 	N 	0.99610 0.56450 0.73090 -0.24100
N 	N 	0.65390 0.55850 0.47030 -0.16800
N 	N 	0.58150 0.38540 0.54620 -0.05200
N 	N 	0.50080 0.44870 0.37480 -0.04800
N 	N 	0.83070 0.53910 0.48070 -0.13200
N 	N 	0.95470 0.36850 0.47450 -0.13000
N 	N 	0.96450 0.47950 0.63000 -0.12500
N 	N 	0.92470 0.23860 0.43620 -0.17600
N 	N 	0.10230 0.11190 0.44470 -0.04700
N 	N 	0.10920 0.23530 0.29790 -0.04000
N 	N 	0.87490 0.20050 0.26140 -0.05300
N 	N 	0.87670 0.04890 0.38230 -0.05100
N 	N 	0.94570 0.44650 0.76260 -0.16700
N 	N 	0.24970 0.84260 0.00760 -0.34000
N 	N 	0.18020 0.85080 0.90750 -0.12600
N 	N 	0.25150 0.93580 0.86710 -0.25100
N 	N 	0.19880 0.17690 0.93150 -0.24800
N 	N 	0.18970 0.16410 0.04020 -0.13100
N 	N 	0.07400 0.23040 0.05710 -0.24000
N 	N 	0.19000 0.02140 0.19310 -0.30100
N 	N 	0.13260 0.91920 0.17790 -0.12600
N 	N 	0.00390 0.93550 0.23090 -0.25500
N 	N 	0.34610 0.94150 0.97030 -0.16700
N 	N 	0.41850 0.11460 0.04620 -0.05500
N 	N 	0.49920 0.05130 0.87480 -0.05200
N 	N 	0.16930 0.96090 0.98070 -0.12400
N 	N 	0.04530 0.13150 0.97450 -0.12800
N 	N 	0.03550 0.02050 0.13000 -0.13200
N 	N 	0.07530 0.26140 0.93620 -0.17100
N 	N 	0.89770 0.38810 0.94470 -0.03200
N 	N 	0.89080 0.26470 0.79790 -0.04100
N 	N 	0.12510 0.29950 0.76140 -0.04900
N 	N 	0.12330 0.45110 0.88230 -0.04000
N 	N 	0.05430 0.05350 0.26260 -0.17800
N 	N 	0.24970 0.34260 0.49240 -0.34300
N 	N 	0.18020 0.35080 0.59250 -0.11300
N 	N 	0.25150 0.43580 0.63290 -0.27100
N 	N 	0.19880 0.67690 0.56850 -0.24400
N 	N 	0.18970 0.66410 0.45980 -0.13600
N 	N 	0.07400 0.73040 0.44290 -0.22800
N 	N 	0.19000 0.52140 0.30690 -0.25600
N 	N 	0.13260 0.41920 0.32210 -0.13500
N 	N 	0.00390 0.43550 0.26910 -0.25800
N 	N 	0.34610 0.44150 0.52970 -0.16800
N 	N 	0.41850 0.61460 0.45380 -0.05100
N 	N 	0.49920 0.55130 0.62520 -0.04500
N 	N 	0.16930 0.46090 0.51930 -0.12900
N 	N 	0.04530 0.63150 0.52550 -0.13300
N 	N 	0.03550 0.52050 0.37000 -0.12700
N 	N 	0.07530 0.76140 0.56380 -0.17700
N 	N 	0.89770 0.88810 0.55530 -0.03700
N 	N 	0.89080 0.76470 0.70210 -0.04000
N 	N 	0.12510 0.79950 0.73860 -0.04800
N 	N 	0.12330 0.95110 0.61770 -0.03900
N 	N 	0.05430 0.55350 0.23740 -0.17000
N 	N 	0.75030 0.15740 0.99240 -0.35100
N 	N 	0.81980 0.14920 0.09250 -0.09400
N 	N 	0.74850 0.06420 0.13290 -0.29300
N 	N 	0.80120 0.82310 0.06850 -0.24000
N 	N 	0.81030 0.83590 0.95980 -0.13400
N 	N 	0.92600 0.76960 0.94290 -0.25800
N 	N 	0.81000 0.97860 0.80690 -0.20700
N 	N 	0.86740 0.08080 0.82210 -0.14100
N 	N 	0.99610 0.06450 0.76910 -0.24600
N 	N 	0.65390 0.05850 0.02970 -0.17300
N 	N 	0.58150 0.88540 0.95380 -0.05100
N 	N 	0.50080 0.94870 0.12520 -0.04400
N 	N 	0.83070 0.03910 0.01930 -0.13900
N 	N 	0.95470 0.86850 0.02550 -0.13800
N 	N 	0.96450 0.97950 0.87000 -0.12300
N 	N 	0.92470 0.73860 0.06380 -0.18300
N 	N 	0.10230 0.61190 0.05530 -0.05100
N 	N 	0.10920 0.73530 0.20210 -0.04000
N 	N 	0.87490 0.70050 0.23860 -0.05200
N 	N 	0.87670 0.54890 0.11770 -0.05000
N 	N 	0.94570 0.94650 0.73740 -0.15900
