data_crystal

_cell_length_a 9.35250
_cell_length_b 10.91700
_cell_length_c 24.17500
_cell_angle_alpha 90.00000
_cell_angle_beta  90.00000
_cell_angle_gamma 90.00000

_symmetry_space_group_name_	'P 1'
_symmetry_space_group_name_H-M	'P 1'

loop_
_symmetry_equiv_pos_as_xyz
  x,y,z

loop_
_atom_site_label
_atom_site_type_symbol
_atom_site_fract_x
_atom_site_fract_y
_atom_site_fract_z
_atom_site_charge
Co	Co	0.24004 0.23011 0.03775 1.20300
O 	O 	0.33140 0.39700 0.05210 -0.38900
O 	O 	0.32040 0.26828 0.95797 -0.28300
O 	O 	0.05920 0.32310 0.00815 -0.41800
N 	N 	0.15100 0.22730 0.11580 -0.22600
C 	C 	0.33290 0.46150 0.00987 0.31700
C 	C 	0.30980 0.39970 0.95339 0.05600
H 	H 	0.38260 0.42910 0.92750 0.04200
C 	C 	0.16200 0.42970 0.93041 -0.42200
H 	H 	0.15910 0.40540 0.89180 0.17200
H 	H 	0.14860 0.51780 0.93180 0.17500
C 	C 	0.03770 0.36860 0.96053 0.45500
C 	C 	0.09770 0.33090 0.13743 0.07600
H 	H 	0.10190 0.40250 0.11660 0.01400
C 	C 	0.03660 0.33550 0.18957 -0.12600
H 	H 	0.99900 0.40850 0.20300 0.07400
C 	C 	0.03200 0.22970 0.22162 0.05500
C 	C 	0.08700 0.12310 0.19863 -0.13000
H 	H 	0.08560 0.05030 0.21860 0.07700
C 	C 	0.14400 0.12590 0.14554 0.08100
H 	H 	0.17870 0.05350 0.13030 0.01400
O 	O 	0.35350 0.57550 0.00830 -0.37400
O 	O 	0.91930 0.36970 0.93686 -0.42900
Ni	Ni	0.25996 0.73011 0.03775 1.13100
Co	Co	0.25996 0.26989 0.53775 1.20200
O 	O 	0.16860 0.10300 0.55210 -0.38900
O 	O 	0.17960 0.23172 0.45797 -0.28200
O 	O 	0.44080 0.17690 0.50815 -0.41900
N 	N 	0.34900 0.27270 0.61580 -0.22600
C 	C 	0.16710 0.03850 0.50987 0.31600
C 	C 	0.19020 0.10030 0.45339 0.05700
H 	H 	0.11740 0.07090 0.42750 0.04200
C 	C 	0.33800 0.07030 0.43041 -0.42300
H 	H 	0.34090 0.09460 0.39180 0.17300
H 	H 	0.35140 0.98220 0.43180 0.17600
C 	C 	0.46230 0.13140 0.46053 0.45700
C 	C 	0.40230 0.16910 0.63743 0.07700
H 	H 	0.39810 0.09750 0.61660 0.01400
C 	C 	0.46340 0.16450 0.68957 -0.12700
H 	H 	0.50100 0.09150 0.70300 0.07500
C 	C 	0.46800 0.27030 0.72162 0.05500
C 	C 	0.41300 0.37690 0.69863 -0.13000
H 	H 	0.41440 0.44970 0.71860 0.07700
C 	C 	0.35600 0.37410 0.64554 0.08100
H 	H 	0.32130 0.44650 0.63030 0.01300
O 	O 	0.14650 0.92450 0.50830 -0.37400
O 	O 	0.58070 0.13030 0.43686 -0.43000
Ni	Ni	0.24004 0.76989 0.53775 1.13100
Co	Co	0.75996 0.23011 0.46226 1.20200
O 	O 	0.66860 0.39700 0.44790 -0.38900
O 	O 	0.67960 0.26828 0.54203 -0.28200
O 	O 	0.94080 0.32310 0.49185 -0.41900
N 	N 	0.84900 0.22730 0.38420 -0.22600
C 	C 	0.66710 0.46150 0.49013 0.31600
C 	C 	0.69020 0.39970 0.54661 0.05700
H 	H 	0.61740 0.42910 0.57250 0.04200
C 	C 	0.83800 0.42970 0.56959 -0.42400
H 	H 	0.84090 0.40540 0.60820 0.17300
H 	H 	0.85140 0.51780 0.56820 0.17600
C 	C 	0.96230 0.36860 0.53947 0.45800
C 	C 	0.90230 0.33090 0.36257 0.07700
H 	H 	0.89810 0.40250 0.38340 0.01400
C 	C 	0.96340 0.33550 0.31043 -0.12800
H 	H 	0.00100 0.40850 0.29700 0.07500
C 	C 	0.96800 0.22970 0.27838 0.05500
C 	C 	0.91300 0.12310 0.30137 -0.13000
H 	H 	0.91440 0.05030 0.28140 0.07700
C 	C 	0.85600 0.12590 0.35446 0.08100
H 	H 	0.82130 0.05350 0.36970 0.01300
O 	O 	0.64650 0.57550 0.49170 -0.37400
O 	O 	0.08070 0.36970 0.56314 -0.43000
Ni	Ni	0.74004 0.73011 0.46226 1.13100
Co	Co	0.74004 0.26989 0.96226 1.20200
O 	O 	0.83140 0.10300 0.94790 -0.38900
O 	O 	0.82040 0.23172 0.04203 -0.28300
O 	O 	0.55920 0.17690 0.99185 -0.42000
N 	N 	0.65100 0.27270 0.88420 -0.22600
C 	C 	0.83290 0.03850 0.99013 0.31500
C 	C 	0.80980 0.10030 0.04661 0.05700
H 	H 	0.88260 0.07090 0.07250 0.04200
C 	C 	0.66200 0.07030 0.06959 -0.42200
H 	H 	0.65910 0.09460 0.10820 0.17300
H 	H 	0.64860 0.98220 0.06820 0.17500
C 	C 	0.53770 0.13140 0.03947 0.45800
C 	C 	0.59770 0.16910 0.86257 0.07700
H 	H 	0.60190 0.09750 0.88340 0.01400
C 	C 	0.53660 0.16450 0.81043 -0.12700
H 	H 	0.49900 0.09150 0.79700 0.07500
C 	C 	0.53200 0.27030 0.77838 0.05500
C 	C 	0.58700 0.37690 0.80137 -0.13000
H 	H 	0.58560 0.44970 0.78140 0.07700
C 	C 	0.64400 0.37410 0.85446 0.08100
H 	H 	0.67870 0.44650 0.86970 0.01300
O 	O 	0.85350 0.92450 0.99170 -0.37300
O 	O 	0.41930 0.13030 0.06314 -0.43000
Ni	Ni	0.75996 0.76989 0.96226 1.13100
O 	O 	0.66860 0.60300 0.94790 -0.38000
O 	O 	0.67960 0.73172 0.04203 -0.27300
O 	O 	0.94080 0.67690 0.99185 -0.40500
N 	N 	0.84900 0.77270 0.88420 -0.21700
C 	C 	0.66710 0.53850 0.99013 0.32000
C 	C 	0.69020 0.60030 0.04661 0.05400
H 	H 	0.61740 0.57090 0.07250 0.04300
C 	C 	0.83800 0.57030 0.06959 -0.41600
H 	H 	0.84090 0.59460 0.10820 0.17100
H 	H 	0.85140 0.48220 0.06820 0.17300
C 	C 	0.96230 0.63140 0.03947 0.45000
C 	C 	0.90230 0.66910 0.86257 0.07600
H 	H 	0.89810 0.59750 0.88340 0.01600
C 	C 	0.96340 0.66450 0.81043 -0.12600
H 	H 	0.00100 0.59150 0.79700 0.07400
C 	C 	0.96800 0.77030 0.77838 0.05500
C 	C 	0.91300 0.87690 0.80137 -0.12900
H 	H 	0.91440 0.94970 0.78140 0.07700
C 	C 	0.85600 0.87410 0.85446 0.08000
H 	H 	0.82130 0.94650 0.86970 0.01600
O 	O 	0.64650 0.42450 0.99170 -0.38600
O 	O 	0.08070 0.63030 0.06314 -0.41700
O 	O 	0.83140 0.89700 0.44790 -0.38000
O 	O 	0.82040 0.76828 0.54203 -0.27200
O 	O 	0.55920 0.82310 0.49185 -0.40600
N 	N 	0.65100 0.72730 0.38420 -0.21800
C 	C 	0.83290 0.96150 0.49013 0.32000
C 	C 	0.80980 0.89970 0.54661 0.05500
H 	H 	0.88260 0.92910 0.57250 0.04300
C 	C 	0.66200 0.92970 0.56959 -0.41700
H 	H 	0.65910 0.90540 0.60820 0.17100
H 	H 	0.64860 0.01780 0.56820 0.17300
C 	C 	0.53770 0.86860 0.53947 0.45200
C 	C 	0.59770 0.83090 0.36257 0.07600
H 	H 	0.60190 0.90250 0.38340 0.01600
C 	C 	0.53660 0.83550 0.31043 -0.12700
H 	H 	0.49900 0.90850 0.29700 0.07400
C 	C 	0.53200 0.72970 0.27838 0.05500
C 	C 	0.58700 0.62310 0.30137 -0.12900
H 	H 	0.58560 0.55030 0.28140 0.07700
C 	C 	0.64400 0.62590 0.35446 0.08000
H 	H 	0.67870 0.55350 0.36970 0.01500
O 	O 	0.85350 0.07550 0.49170 -0.38600
O 	O 	0.41930 0.86970 0.56314 -0.41800
O 	O 	0.33140 0.60300 0.55210 -0.38000
O 	O 	0.32040 0.73172 0.45797 -0.27200
O 	O 	0.05920 0.67690 0.50815 -0.40700
N 	N 	0.15100 0.77270 0.61580 -0.21800
C 	C 	0.33290 0.53850 0.50987 0.32000
C 	C 	0.30980 0.60030 0.45339 0.05500
H 	H 	0.38260 0.57090 0.42750 0.04300
C 	C 	0.16200 0.57030 0.43041 -0.41700
H 	H 	0.15910 0.59460 0.39180 0.17100
H 	H 	0.14860 0.48220 0.43180 0.17300
C 	C 	0.03770 0.63140 0.46053 0.45200
C 	C 	0.09770 0.66910 0.63743 0.07700
H 	H 	0.10190 0.59750 0.61660 0.01600
C 	C 	0.03660 0.66450 0.68957 -0.12700
H 	H 	0.99900 0.59150 0.70300 0.07500
C 	C 	0.03200 0.77030 0.72162 0.05500
C 	C 	0.08700 0.87690 0.69863 -0.12900
H 	H 	0.08560 0.94970 0.71860 0.07700
C 	C 	0.14400 0.87410 0.64554 0.08000
H 	H 	0.17870 0.94650 0.63030 0.01500
O 	O 	0.35350 0.42450 0.50830 -0.38600
O 	O 	0.91930 0.63030 0.43686 -0.41800
O 	O 	0.16860 0.89700 0.05210 -0.38000
O 	O 	0.17960 0.76828 0.95797 -0.27200
O 	O 	0.44080 0.82310 0.00815 -0.40700
N 	N 	0.34900 0.72730 0.11580 -0.21800
C 	C 	0.16710 0.96150 0.00987 0.31800
C 	C 	0.19020 0.89970 0.95339 0.05600
H 	H 	0.11740 0.92910 0.92750 0.04300
C 	C 	0.33800 0.92970 0.93041 -0.41600
H 	H 	0.34090 0.90540 0.89180 0.17100
H 	H 	0.35140 0.01780 0.93180 0.17200
C 	C 	0.46230 0.86860 0.96053 0.45200
C 	C 	0.40230 0.83090 0.13743 0.07600
H 	H 	0.39810 0.90250 0.11660 0.01600
C 	C 	0.46340 0.83550 0.18957 -0.12700
H 	H 	0.50100 0.90850 0.20300 0.07400
C 	C 	0.46800 0.72970 0.22162 0.05500
C 	C 	0.41300 0.62310 0.19863 -0.12900
H 	H 	0.41440 0.55030 0.21860 0.07700
C 	C 	0.35600 0.62590 0.14554 0.08000
H 	H 	0.32130 0.55350 0.13030 0.01500
O 	O 	0.14650 0.07550 0.00830 -0.38400
O 	O 	0.58070 0.86970 0.93686 -0.41800
