data_crystal

_cell_length_a 9.35820
_cell_length_b 10.95300
_cell_length_c 24.37000
_cell_angle_alpha 90.00000
_cell_angle_beta  90.00000
_cell_angle_gamma 90.00000

_symmetry_space_group_name_	'P 1'
_symmetry_space_group_name_H-M	'P 1'

loop_
_symmetry_equiv_pos_as_xyz
  x,y,z

loop_
_atom_site_label
_atom_site_type_symbol
_atom_site_fract_x
_atom_site_fract_y
_atom_site_fract_z
_atom_site_charge
Co	Co	0.75735 0.27013 0.96162 1.19600
Co	Co	0.74265 0.22987 0.46162 1.19600
Co	Co	0.24265 0.27013 0.53838 1.19600
Co	Co	0.25735 0.22987 0.03838 1.19600
Co	Co	0.24265 0.72987 0.03838 1.19600
Co	Co	0.25735 0.77013 0.53838 1.19600
Co	Co	0.75735 0.72987 0.46162 1.19600
Co	Co	0.74265 0.77013 0.96162 1.19600
H 	H 	0.61550 0.06540 0.07150 0.04000
H 	H 	0.84980 0.98000 0.06730 0.17700
H 	H 	0.83810 0.09210 0.10680 0.17700
H 	H 	0.90050 0.09830 0.88220 0.01100
H 	H 	0.00300 0.09040 0.79730 0.07600
H 	H 	0.91270 0.44680 0.78060 0.07900
H 	H 	0.81640 0.44290 0.86650 0.01000
H 	H 	0.88450 0.43460 0.57150 0.03900
H 	H 	0.65020 0.52000 0.56730 0.17900
H 	H 	0.66190 0.40790 0.60680 0.17800
H 	H 	0.59950 0.40170 0.38220 0.01100
H 	H 	0.49700 0.40960 0.29730 0.07600
H 	H 	0.58730 0.05320 0.28060 0.07900
H 	H 	0.68360 0.05710 0.36650 0.01000
H 	H 	0.38450 0.06540 0.42850 0.04000
H 	H 	0.15020 0.98000 0.43270 0.17800
H 	H 	0.16190 0.09210 0.39320 0.17800
H 	H 	0.09950 0.09830 0.61780 0.01100
H 	H 	0.99700 0.09040 0.70270 0.07700
H 	H 	0.08730 0.44680 0.71940 0.07800
H 	H 	0.18360 0.44290 0.63350 0.01000
H 	H 	0.11550 0.43460 0.92850 0.03900
H 	H 	0.34980 0.52000 0.93270 0.17800
H 	H 	0.33810 0.40790 0.89320 0.17700
H 	H 	0.40050 0.40170 0.11780 0.01100
H 	H 	0.50300 0.40960 0.20270 0.07600
H 	H 	0.41270 0.05320 0.21940 0.07900
H 	H 	0.31640 0.05710 0.13350 0.01000
H 	H 	0.38450 0.93460 0.92850 0.04000
H 	H 	0.15020 0.02000 0.93270 0.17700
H 	H 	0.16190 0.90790 0.89320 0.17700
H 	H 	0.09950 0.90170 0.11780 0.01100
H 	H 	0.99700 0.90960 0.20270 0.07600
H 	H 	0.08730 0.55320 0.21940 0.07900
H 	H 	0.18360 0.55710 0.13350 0.01000
H 	H 	0.11550 0.56540 0.42850 0.03900
H 	H 	0.34980 0.48000 0.43270 0.17900
H 	H 	0.33810 0.59210 0.39320 0.17800
H 	H 	0.40050 0.59830 0.61780 0.01100
H 	H 	0.50300 0.59040 0.70270 0.07600
H 	H 	0.41270 0.94680 0.71940 0.07900
H 	H 	0.31640 0.94290 0.63350 0.01000
H 	H 	0.61550 0.93460 0.57150 0.04000
H 	H 	0.84980 0.02000 0.56730 0.17800
H 	H 	0.83810 0.90790 0.60680 0.17800
H 	H 	0.90050 0.90170 0.38220 0.01100
H 	H 	0.00300 0.90960 0.29730 0.07700
H 	H 	0.91270 0.55320 0.28060 0.07800
H 	H 	0.81640 0.55710 0.36650 0.01000
H 	H 	0.88450 0.56540 0.07150 0.03900
H 	H 	0.65020 0.48000 0.06730 0.17800
H 	H 	0.66190 0.59210 0.10680 0.17700
H 	H 	0.59950 0.59830 0.88220 0.01100
H 	H 	0.49700 0.59040 0.79730 0.07600
H 	H 	0.58730 0.94680 0.78060 0.07900
H 	H 	0.68360 0.94290 0.86650 0.01000
C 	C 	0.66450 0.03590 0.98961 0.31500
C 	C 	0.68770 0.09610 0.04584 0.06600
C 	C 	0.83570 0.06770 0.06857 -0.43700
C 	C 	0.95860 0.12770 0.03953 0.45800
C 	C 	0.90350 0.16930 0.86129 0.08300
C 	C 	0.96450 0.16320 0.81018 -0.13300
C 	C 	0.96770 0.26870 0.77787 0.05700
C 	C 	0.91150 0.37420 0.80035 -0.13500
C 	C 	0.85370 0.37100 0.85213 0.08400
C 	C 	0.83550 0.46410 0.48961 0.31600
C 	C 	0.81230 0.40390 0.54584 0.06500
C 	C 	0.66430 0.43230 0.56857 -0.43900
C 	C 	0.54140 0.37230 0.53953 0.45900
C 	C 	0.59650 0.33070 0.36129 0.08300
C 	C 	0.53550 0.33680 0.31018 -0.13400
C 	C 	0.53230 0.23130 0.27787 0.05700
C 	C 	0.58850 0.12580 0.30035 -0.13600
C 	C 	0.64630 0.12900 0.35213 0.08400
C 	C 	0.33550 0.03590 0.51039 0.31600
C 	C 	0.31230 0.09610 0.45416 0.06500
C 	C 	0.16430 0.06770 0.43143 -0.43900
C 	C 	0.04140 0.12770 0.46047 0.45900
C 	C 	0.09650 0.16930 0.63871 0.08300
C 	C 	0.03550 0.16320 0.68982 -0.13400
C 	C 	0.03230 0.26870 0.72213 0.05700
C 	C 	0.08850 0.37420 0.69965 -0.13600
C 	C 	0.14630 0.37100 0.64787 0.08400
C 	C 	0.16450 0.46410 0.01039 0.31700
C 	C 	0.18770 0.40390 0.95416 0.06500
C 	C 	0.33570 0.43230 0.93143 -0.43900
C 	C 	0.45860 0.37230 0.96047 0.45800
C 	C 	0.40350 0.33070 0.13871 0.08300
C 	C 	0.46450 0.33680 0.18982 -0.13400
C 	C 	0.46770 0.23130 0.22213 0.05700
C 	C 	0.41150 0.12580 0.19965 -0.13600
C 	C 	0.35370 0.12900 0.14787 0.08400
C 	C 	0.33550 0.96410 0.01039 0.31500
C 	C 	0.31230 0.90390 0.95416 0.06600
C 	C 	0.16430 0.93230 0.93143 -0.43700
C 	C 	0.04140 0.87230 0.96047 0.45800
C 	C 	0.09650 0.83070 0.13871 0.08300
C 	C 	0.03550 0.83680 0.18982 -0.13300
C 	C 	0.03230 0.73130 0.22213 0.05700
C 	C 	0.08850 0.62580 0.19965 -0.13500
C 	C 	0.14630 0.62900 0.14787 0.08400
C 	C 	0.16450 0.53590 0.51039 0.31600
C 	C 	0.18770 0.59610 0.45416 0.06500
C 	C 	0.33570 0.56770 0.43143 -0.43900
C 	C 	0.45860 0.62770 0.46047 0.45900
C 	C 	0.40350 0.66930 0.63871 0.08300
C 	C 	0.46450 0.66320 0.68982 -0.13400
C 	C 	0.46770 0.76870 0.72213 0.05700
C 	C 	0.41150 0.87420 0.69965 -0.13600
C 	C 	0.35370 0.87100 0.64787 0.08400
C 	C 	0.66450 0.96410 0.48961 0.31600
C 	C 	0.68770 0.90390 0.54584 0.06500
C 	C 	0.83570 0.93230 0.56857 -0.43900
C 	C 	0.95860 0.87230 0.53953 0.45900
C 	C 	0.90350 0.83070 0.36129 0.08300
C 	C 	0.96450 0.83680 0.31018 -0.13400
C 	C 	0.96770 0.73130 0.27787 0.05700
C 	C 	0.91150 0.62580 0.30035 -0.13600
C 	C 	0.85370 0.62900 0.35213 0.08400
C 	C 	0.83550 0.53590 0.98961 0.31700
C 	C 	0.81230 0.59610 0.04584 0.06500
C 	C 	0.66430 0.56770 0.06857 -0.43900
C 	C 	0.54140 0.62770 0.03953 0.45800
C 	C 	0.59650 0.66930 0.86129 0.08300
C 	C 	0.53550 0.66320 0.81018 -0.13400
C 	C 	0.53230 0.76870 0.77787 0.05700
C 	C 	0.58850 0.87420 0.80035 -0.13600
C 	C 	0.64630 0.87100 0.85213 0.08400
N 	N 	0.84810 0.27090 0.88286 -0.22500
N 	N 	0.65190 0.22910 0.38286 -0.22500
N 	N 	0.15190 0.27090 0.61714 -0.22500
N 	N 	0.34810 0.22910 0.11714 -0.22500
N 	N 	0.15190 0.72910 0.11714 -0.22500
N 	N 	0.34810 0.77090 0.61714 -0.22500
N 	N 	0.84810 0.72910 0.38286 -0.22500
N 	N 	0.65190 0.77090 0.88286 -0.22500
O 	O 	0.66500 0.10160 0.94748 -0.38400
O 	O 	0.64610 0.92306 0.99076 -0.39000
O 	O 	0.67500 0.22612 0.04214 -0.28000
O 	O 	0.93840 0.17235 0.99163 -0.41300
O 	O 	0.07690 0.12920 0.06333 -0.42900
O 	O 	0.83500 0.39840 0.44748 -0.38400
O 	O 	0.85390 0.57694 0.49076 -0.39100
O 	O 	0.82500 0.27388 0.54214 -0.28000
O 	O 	0.56160 0.32765 0.49163 -0.41400
O 	O 	0.42310 0.37080 0.56333 -0.43000
O 	O 	0.33500 0.10160 0.55252 -0.38400
O 	O 	0.35390 0.92306 0.50924 -0.39100
O 	O 	0.32500 0.22612 0.45786 -0.27900
O 	O 	0.06160 0.17235 0.50837 -0.41400
O 	O 	0.92310 0.12920 0.43667 -0.43000
O 	O 	0.16500 0.39840 0.05252 -0.38400
O 	O 	0.14610 0.57694 0.00924 -0.39100
O 	O 	0.17500 0.27388 0.95786 -0.28000
O 	O 	0.43840 0.32765 0.00837 -0.41300
O 	O 	0.57690 0.37080 0.93667 -0.43000
O 	O 	0.33500 0.89840 0.05252 -0.38400
O 	O 	0.35390 0.07694 0.00924 -0.39000
O 	O 	0.32500 0.77388 0.95786 -0.28000
O 	O 	0.06160 0.82765 0.00837 -0.41300
O 	O 	0.92310 0.87080 0.93667 -0.42900
O 	O 	0.16500 0.60160 0.55252 -0.38400
O 	O 	0.14610 0.42306 0.50924 -0.39100
O 	O 	0.17500 0.72612 0.45786 -0.28000
O 	O 	0.43840 0.67235 0.50837 -0.41400
O 	O 	0.57690 0.62920 0.43667 -0.43000
O 	O 	0.66500 0.89840 0.44748 -0.38400
O 	O 	0.64610 0.07694 0.49076 -0.39100
O 	O 	0.67500 0.77388 0.54214 -0.27900
O 	O 	0.93840 0.82765 0.49163 -0.41400
O 	O 	0.07690 0.87080 0.56333 -0.43000
O 	O 	0.83500 0.60160 0.94748 -0.38400
O 	O 	0.85390 0.42306 0.99076 -0.39100
O 	O 	0.82500 0.72612 0.04214 -0.28000
O 	O 	0.56160 0.67235 0.99163 -0.41300
O 	O 	0.42310 0.62920 0.06333 -0.43000
