data_crystal

_cell_length_a 15.15600
_cell_length_b 15.65700
_cell_length_c 26.96700
_cell_angle_alpha 81.60300
_cell_angle_beta  78.04200
_cell_angle_gamma 73.52900

_symmetry_space_group_name_	'P 1'
_symmetry_space_group_name_H-M	'P 1'

loop_
_symmetry_equiv_pos_as_xyz
  x,y,z

loop_
_atom_site_label
_atom_site_type_symbol
_atom_site_fract_x
_atom_site_fract_y
_atom_site_fract_z
_atom_site_charge
Nd	Nd	0.86609 0.22797 0.79243 2.12800
Nd	Nd	0.95499 0.85588 0.32552 1.86600
Nd	Nd	0.13391 0.77203 0.20757 2.12800
Nd	Nd	0.04501 0.14412 0.67448 1.86600
H 	H 	0.83450 0.55840 0.76870 0.02400
H 	H 	0.82700 0.69320 0.79640 0.09200
H 	H 	0.90760 0.56900 0.92830 0.09300
H 	H 	0.91640 0.43430 0.89920 0.02000
H 	H 	0.94760 0.73560 0.15700 -0.04100
H 	H 	0.87220 0.70980 0.10020 0.12300
H 	H 	0.63090 0.87000 0.16530 0.12100
H 	H 	0.70970 0.89910 0.22250 -0.01700
H 	H 	0.77030 0.63320 0.37000 0.01100
H 	H 	0.69300 0.53410 0.41970 0.09800
H 	H 	0.78700 0.57750 0.54130 0.09900
H 	H 	0.86290 0.67530 0.49030 0.00300
H 	H 	0.47270 0.65170 0.17200 0.01000
H 	H 	0.39020 0.88810 0.09610 -0.00200
H 	H 	0.83520 0.01400 0.82510 -0.02400
H 	H 	0.78960 0.90130 0.87960 0.11800
H 	H 	0.54400 0.63000 0.49990 0.05900
H 	H 	0.60350 0.36380 0.51210 0.06000
H 	H 	0.85050 0.39800 0.52730 0.12400
H 	H 	0.90630 0.31940 0.59890 -0.04100
H 	H 	0.64620 0.36000 0.67390 -0.02700
H 	H 	0.59170 0.44190 0.60370 0.13000
H 	H 	0.83660 0.83700 0.02810 0.05300
H 	H 	0.90020 0.81140 0.94670 0.05900
H 	H 	0.71590 0.68100 0.93870 0.06400
H 	H 	0.65030 0.70260 0.02000 0.06200
H 	H 	0.62750 0.65470 0.14340 0.10300
H 	H 	0.54180 0.89160 0.06570 0.10700
H 	H 	0.99310 0.71820 0.80510 0.10800
H 	H 	0.03810 0.83150 0.74710 0.00200
H 	H 	0.16550 0.44160 0.23130 0.02400
H 	H 	0.17300 0.30680 0.20360 0.09200
H 	H 	0.09240 0.43100 0.07170 0.09300
H 	H 	0.08360 0.56570 0.10080 0.02000
H 	H 	0.05240 0.26440 0.84300 -0.04100
H 	H 	0.12780 0.29020 0.89980 0.12300
H 	H 	0.36910 0.13000 0.83470 0.12100
H 	H 	0.29030 0.10090 0.77750 -0.01700
H 	H 	0.22970 0.36680 0.63000 0.01100
H 	H 	0.30700 0.46590 0.58030 0.09800
H 	H 	0.21300 0.42250 0.45870 0.09900
H 	H 	0.13710 0.32470 0.50970 0.00300
H 	H 	0.52730 0.34830 0.82800 0.01000
H 	H 	0.60980 0.11190 0.90390 -0.00200
H 	H 	0.16480 0.98600 0.17490 -0.02400
H 	H 	0.21040 0.09870 0.12040 0.11800
H 	H 	0.45600 0.37000 0.50010 0.05900
H 	H 	0.39650 0.63620 0.48790 0.06000
H 	H 	0.14950 0.60200 0.47270 0.12400
H 	H 	0.09370 0.68060 0.40110 -0.04100
H 	H 	0.35380 0.64000 0.32610 -0.02700
H 	H 	0.40830 0.55810 0.39630 0.13000
H 	H 	0.16340 0.16300 0.97190 0.05300
H 	H 	0.09980 0.18860 0.05330 0.05900
H 	H 	0.28410 0.31900 0.06130 0.06400
H 	H 	0.34970 0.29740 0.98000 0.06200
H 	H 	0.37250 0.34530 0.85660 0.10300
H 	H 	0.45820 0.10840 0.93430 0.10700
H 	H 	0.00690 0.28180 0.19490 0.10800
H 	H 	0.96190 0.16850 0.25290 0.00200
C 	C 	0.87170 0.39380 0.81950 0.28900
C 	C 	0.87310 0.48110 0.83420 -0.10600
C 	C 	0.84800 0.56080 0.80050 0.06000
C 	C 	0.84470 0.64080 0.81730 -0.17300
C 	C 	0.86640 0.64650 0.86360 0.14500
C 	C 	0.89330 0.56710 0.89670 -0.16700
C 	C 	0.89670 0.48700 0.87900 0.06400
C 	C 	0.88290 0.83720 0.23620 0.45600
C 	C 	0.83560 0.81860 0.19680 -0.24200
C 	C 	0.88420 0.76290 0.15850 0.18200
C 	C 	0.83970 0.74920 0.12450 -0.26300
C 	C 	0.74300 0.79280 0.12370 0.20500
C 	C 	0.69500 0.84500 0.16270 -0.25200
C 	C 	0.74160 0.86030 0.19780 0.16200
C 	C 	0.87660 0.72370 0.39050 0.35600
C 	C 	0.82640 0.66100 0.42360 -0.15800
C 	C 	0.77440 0.62090 0.40440 0.09400
C 	C 	0.72680 0.56200 0.43420 -0.19000
C 	C 	0.73050 0.54520 0.48670 0.15700
C 	C 	0.78340 0.58830 0.50680 -0.19400
C 	C 	0.82960 0.64610 0.47630 0.09000
C 	C 	0.31690 0.76890 0.15570 0.34000
C 	C 	0.48680 0.70050 0.15090 0.10000
C 	C 	0.41650 0.77000 0.13640 -0.15300
C 	C 	0.43830 0.84060 0.10560 0.11200
C 	C 	0.97210 0.00800 0.74080 0.38400
C 	C 	0.94050 0.93510 0.78170 -0.18500
C 	C 	0.86710 0.95470 0.82050 0.13400
C 	C 	0.83980 0.88710 0.85310 -0.24700
C 	C 	0.59090 0.49420 0.50880 0.10100
C 	C 	0.52700 0.57730 0.50030 -0.08500
C 	C 	0.56180 0.41950 0.50750 -0.09100
C 	C 	0.71420 0.43650 0.55890 0.22400
C 	C 	0.80880 0.39340 0.55750 -0.26900
C 	C 	0.84250 0.34380 0.60010 0.18300
C 	C 	0.68850 0.36860 0.64450 0.19900
C 	C 	0.65580 0.41910 0.60230 -0.28100
C 	C 	0.81900 0.28230 0.68820 0.46200
C 	C 	0.78100 0.33130 0.64380 -0.27800
C 	C 	0.73850 0.76700 0.03460 0.08300
C 	C 	0.81310 0.80370 0.01070 -0.07500
C 	C 	0.84930 0.78910 0.96200 -0.08800
C 	C 	0.81720 0.74430 0.93320 0.09000
C 	C 	0.74060 0.71170 0.95700 -0.08100
C 	C 	0.70220 0.72370 0.00550 -0.07600
C 	C 	0.57950 0.70260 0.13420 -0.19700
C 	C 	0.60040 0.77740 0.10330 0.17200
C 	C 	0.52910 0.84380 0.08810 -0.21800
C 	C 	0.88420 0.80140 0.84720 0.19200
C 	C 	0.96110 0.77780 0.80820 -0.21400
C 	C 	0.98890 0.84530 0.77410 0.10000
C 	C 	0.12830 0.60620 0.18050 0.28900
C 	C 	0.12690 0.51890 0.16580 -0.10600
C 	C 	0.15200 0.43920 0.19950 0.06000
C 	C 	0.15530 0.35920 0.18270 -0.17300
C 	C 	0.13360 0.35350 0.13640 0.14500
C 	C 	0.10670 0.43290 0.10330 -0.16700
C 	C 	0.10330 0.51300 0.12100 0.06400
C 	C 	0.11710 0.16280 0.76380 0.45600
C 	C 	0.16440 0.18140 0.80320 -0.24200
C 	C 	0.11580 0.23710 0.84150 0.18200
C 	C 	0.16030 0.25080 0.87550 -0.26300
C 	C 	0.25700 0.20720 0.87630 0.20500
C 	C 	0.30500 0.15500 0.83730 -0.25200
C 	C 	0.25840 0.13970 0.80220 0.16200
C 	C 	0.12340 0.27630 0.60950 0.35600
C 	C 	0.17360 0.33900 0.57640 -0.15800
C 	C 	0.22560 0.37910 0.59560 0.09400
C 	C 	0.27320 0.43800 0.56580 -0.19000
C 	C 	0.26950 0.45480 0.51330 0.15700
C 	C 	0.21660 0.41170 0.49320 -0.19400
C 	C 	0.17040 0.35390 0.52370 0.09000
C 	C 	0.68310 0.23110 0.84430 0.34000
C 	C 	0.51320 0.29950 0.84910 0.10000
C 	C 	0.58350 0.23000 0.86360 -0.15300
C 	C 	0.56170 0.15940 0.89440 0.11200
C 	C 	0.02790 0.99200 0.25920 0.38400
C 	C 	0.05950 0.06490 0.21830 -0.18500
C 	C 	0.13290 0.04530 0.17950 0.13400
C 	C 	0.16020 0.11290 0.14690 -0.24700
C 	C 	0.40910 0.50580 0.49120 0.10100
C 	C 	0.47300 0.42270 0.49970 -0.08500
C 	C 	0.43820 0.58050 0.49250 -0.09100
C 	C 	0.28580 0.56350 0.44110 0.22400
C 	C 	0.19120 0.60660 0.44250 -0.26900
C 	C 	0.15750 0.65620 0.39990 0.18300
C 	C 	0.31150 0.63140 0.35550 0.19900
C 	C 	0.34420 0.58090 0.39770 -0.28100
C 	C 	0.18100 0.71770 0.31180 0.46200
C 	C 	0.21900 0.66870 0.35620 -0.27800
C 	C 	0.26150 0.23300 0.96540 0.08300
C 	C 	0.18690 0.19630 0.98930 -0.07500
C 	C 	0.15070 0.21090 0.03800 -0.08800
C 	C 	0.18280 0.25570 0.06680 0.09000
C 	C 	0.25940 0.28830 0.04300 -0.08100
C 	C 	0.29780 0.27630 0.99450 -0.07600
C 	C 	0.42050 0.29740 0.86580 -0.19700
C 	C 	0.39960 0.22260 0.89670 0.17200
C 	C 	0.47090 0.15620 0.91190 -0.21800
C 	C 	0.11580 0.19860 0.15280 0.19200
C 	C 	0.03890 0.22220 0.19180 -0.21400
C 	C 	0.01110 0.15470 0.22590 0.10000
N 	N 	0.86100 0.72970 0.88180 -0.17700
N 	N 	0.69700 0.77900 0.08720 -0.18400
N 	N 	0.67790 0.48840 0.51730 -0.19300
N 	N 	0.13900 0.27030 0.11820 -0.17700
N 	N 	0.30300 0.22100 0.91280 -0.18400
N 	N 	0.32210 0.51160 0.48270 -0.19300
O 	O 	0.85450 0.39110 0.77360 -0.39500
O 	O 	0.88960 0.32410 0.85050 -0.44500
O 	O 	0.84150 0.89590 0.26560 -0.47600
O 	O 	0.96440 0.79040 0.23950 -0.60600
O 	O 	0.92640 0.76030 0.40830 -0.45600
O 	O 	0.86700 0.74100 0.34540 -0.43800
O 	O 	0.92780 0.09040 0.75111 -0.61700
O 	O 	0.04250 0.98780 0.70760 -0.48900
O 	O 	0.25630 0.84340 0.16250 -0.46300
O 	O 	0.29600 0.69620 0.16440 -0.41700
O 	O 	0.90280 0.26160 0.69130 -0.61900
O 	O 	0.76130 0.26460 0.72820 -0.46300
O 	O 	0.14550 0.60890 0.22640 -0.39500
O 	O 	0.11040 0.67590 0.14950 -0.44500
O 	O 	0.15850 0.10410 0.73440 -0.47600
O 	O 	0.03560 0.20960 0.76050 -0.60600
O 	O 	0.07360 0.23970 0.59170 -0.45600
O 	O 	0.13300 0.25900 0.65460 -0.43800
O 	O 	0.07220 0.90960 0.24889 -0.61700
O 	O 	0.95750 0.01220 0.29240 -0.48900
O 	O 	0.74370 0.15660 0.83750 -0.46300
O 	O 	0.70400 0.30380 0.83560 -0.41700
O 	O 	0.09720 0.73840 0.30870 -0.61900
O 	O 	0.23870 0.73540 0.27180 -0.46300
