data_crystal

_cell_length_a 13.98990
_cell_length_b 13.98990
_cell_length_c 14.93600
_cell_angle_alpha 90.00000
_cell_angle_beta  90.00000
_cell_angle_gamma 120.00000

_symmetry_space_group_name_	'P 1'
_symmetry_space_group_name_H-M	'P 1'

loop_
_symmetry_equiv_pos_as_xyz
  x,y,z

loop_
_atom_site_label
_atom_site_type_symbol
_atom_site_fract_x
_atom_site_fract_y
_atom_site_fract_z
_atom_site_charge
As	As	0.32532 0.86313 0.48033 0.57800
Fe	Fe	0.53674 0.87024 0.59595 1.26100
O 	O 	0.40950 0.82100 0.51955 -0.40800
O 	O 	0.37670 0.99940 0.48302 -0.32700
O 	O 	0.20280 0.80720 0.53243 -0.34200
O 	O 	0.29870 0.82320 0.37021 -0.40200
H 	H 	0.31240 0.77360 0.36090 0.24800
O 	O 	0.46570 0.74650 0.67909 -0.36300
O 	O 	0.48680 0.95740 0.68377 -0.28000
O 	O 	0.67130 0.94550 0.68899 -0.24100
As	As	0.13687 0.46219 0.48033 0.57200
Fe	Fe	0.12976 0.66650 0.59595 1.25000
O 	O 	0.17900 0.58850 0.51955 -0.41600
O 	O 	0.00060 0.37730 0.48302 -0.37100
O 	O 	0.19280 0.39560 0.53243 -0.34500
O 	O 	0.17680 0.47550 0.37021 -0.41400
H 	H 	0.22640 0.53880 0.36090 0.25000
O 	O 	0.25350 0.71920 0.67909 -0.36400
O 	O 	0.04260 0.52940 0.68377 -0.31500
O 	O 	0.05450 0.72580 0.68899 -0.27500
As	As	0.53781 0.67468 0.48033 0.57700
Fe	Fe	0.33350 0.46326 0.59595 1.25500
O 	O 	0.41150 0.59050 0.51955 -0.41100
O 	O 	0.62270 0.62330 0.48302 -0.34500
O 	O 	0.60440 0.79720 0.53243 -0.33000
O 	O 	0.52450 0.70130 0.37021 -0.40400
H 	H 	0.46120 0.68760 0.36090 0.24900
O 	O 	0.28080 0.53430 0.67909 -0.36700
O 	O 	0.47060 0.51320 0.68377 -0.31000
O 	O 	0.27420 0.32870 0.68899 -0.28500
As	As	0.86313 0.32532 0.01967 0.57600
Fe	Fe	0.87024 0.53674 0.90405 1.26300
O 	O 	0.82100 0.40950 0.98045 -0.40600
O 	O 	0.99940 0.37670 0.01698 -0.32900
O 	O 	0.80720 0.20280 0.96757 -0.34000
O 	O 	0.82320 0.29870 0.12979 -0.40200
H 	H 	0.77360 0.31240 0.13910 0.24800
O 	O 	0.74650 0.46570 0.82091 -0.36300
O 	O 	0.95740 0.48680 0.81623 -0.27800
O 	O 	0.94550 0.67130 0.81101 -0.23900
As	As	0.46219 0.13687 0.01967 0.57100
Fe	Fe	0.66650 0.12976 0.90405 1.25000
O 	O 	0.58850 0.17900 0.98045 -0.41500
O 	O 	0.37730 0.00060 0.01698 -0.37100
O 	O 	0.39560 0.19280 0.96757 -0.34400
O 	O 	0.47550 0.17680 0.12979 -0.41400
H 	H 	0.53880 0.22640 0.13910 0.25000
O 	O 	0.71920 0.25350 0.82091 -0.36400
O 	O 	0.52940 0.04260 0.81623 -0.31400
O 	O 	0.72580 0.05450 0.81101 -0.27500
As	As	0.67468 0.53781 0.01967 0.57600
Fe	Fe	0.46326 0.33350 0.90405 1.25500
O 	O 	0.59050 0.41150 0.98045 -0.41100
O 	O 	0.62330 0.62270 0.01698 -0.34500
O 	O 	0.79720 0.60440 0.96757 -0.32900
O 	O 	0.70130 0.52450 0.12979 -0.40500
H 	H 	0.68760 0.46120 0.13910 0.24900
O 	O 	0.53430 0.28080 0.82091 -0.36700
O 	O 	0.51320 0.47060 0.81623 -0.31000
O 	O 	0.32870 0.27420 0.81101 -0.28500
As	As	0.67468 0.13687 0.51967 0.57300
Fe	Fe	0.46326 0.12976 0.40405 1.24900
O 	O 	0.59050 0.17900 0.48045 -0.41600
O 	O 	0.62330 0.00060 0.51698 -0.36800
O 	O 	0.79720 0.19280 0.46757 -0.33600
O 	O 	0.70130 0.17680 0.62979 -0.41000
H 	H 	0.68760 0.22640 0.63910 0.25000
O 	O 	0.53430 0.25350 0.32091 -0.36600
O 	O 	0.51320 0.04260 0.31623 -0.31300
O 	O 	0.32870 0.05450 0.31101 -0.28300
As	As	0.86313 0.53781 0.51967 0.58000
Fe	Fe	0.87024 0.33350 0.40405 1.26200
O 	O 	0.82100 0.41150 0.48045 -0.40700
O 	O 	0.99940 0.62270 0.51698 -0.32500
O 	O 	0.80720 0.60440 0.46757 -0.33300
O 	O 	0.82320 0.52450 0.62979 -0.39800
H 	H 	0.77360 0.46120 0.63910 0.24800
O 	O 	0.74650 0.28080 0.32091 -0.36600
O 	O 	0.95740 0.47060 0.31623 -0.27900
O 	O 	0.94550 0.27420 0.31101 -0.24900
As	As	0.46219 0.32532 0.51967 0.57500
Fe	Fe	0.66650 0.53674 0.40405 1.25600
O 	O 	0.58850 0.40950 0.48045 -0.41100
O 	O 	0.37730 0.37670 0.51698 -0.35100
O 	O 	0.39560 0.20280 0.46757 -0.34800
O 	O 	0.47550 0.29870 0.62979 -0.41300
H 	H 	0.53880 0.31240 0.63910 0.25000
O 	O 	0.71920 0.46570 0.32091 -0.36300
O 	O 	0.52940 0.48680 0.31623 -0.31300
O 	O 	0.72580 0.67130 0.31101 -0.26900
As	As	0.13687 0.67468 0.98033 0.57100
Fe	Fe	0.12976 0.46326 0.09595 1.25000
O 	O 	0.17900 0.59050 0.01955 -0.41400
O 	O 	0.00060 0.62330 0.98302 -0.36900
O 	O 	0.19280 0.79720 0.03243 -0.33400
O 	O 	0.17680 0.70130 0.87021 -0.41000
H 	H 	0.22640 0.68760 0.86090 0.25000
O 	O 	0.25350 0.53430 0.17909 -0.36600
O 	O 	0.04260 0.51320 0.18377 -0.31300
O 	O 	0.05450 0.32870 0.18899 -0.28300
As	As	0.53781 0.86313 0.98033 0.57800
Fe	Fe	0.33350 0.87024 0.09595 1.26200
O 	O 	0.41150 0.82100 0.01955 -0.40600
O 	O 	0.62270 0.99940 0.98302 -0.32600
O 	O 	0.60440 0.80720 0.03243 -0.33200
O 	O 	0.52450 0.82320 0.87021 -0.39800
H 	H 	0.46120 0.77360 0.86090 0.24700
O 	O 	0.28080 0.74650 0.17909 -0.36500
O 	O 	0.47060 0.95740 0.18377 -0.27700
O 	O 	0.27420 0.94550 0.18899 -0.24700
As	As	0.32532 0.46219 0.98033 0.57500
Fe	Fe	0.53674 0.66650 0.09595 1.25600
O 	O 	0.40950 0.58850 0.01955 -0.41100
O 	O 	0.37670 0.37730 0.98302 -0.35000
O 	O 	0.20280 0.39560 0.03243 -0.34700
O 	O 	0.29870 0.47550 0.87021 -0.41300
H 	H 	0.31240 0.53880 0.86090 0.24900
O 	O 	0.46570 0.71920 0.17909 -0.36300
O 	O 	0.48680 0.52940 0.18377 -0.31300
O 	O 	0.67130 0.72580 0.18899 -0.26900
As	As	0.33333 0.66667 0.70826 0.43400
As	As	0.66667 0.33333 0.79174 0.43400
As	As	0.66667 0.33333 0.29174 0.43400
As	As	0.33333 0.66667 0.20826 0.43400
C 	C 	0.54940 0.00000 0.75000 0.19900
C 	C 	0.65920 0.00000 0.75000 0.20400
C 	C 	-0.00000 0.54940 0.75000 0.19800
C 	C 	-0.00000 0.65920 0.75000 0.20200
C 	C 	0.45060 0.45060 0.75000 0.23100
C 	C 	0.34080 0.34080 0.75000 0.24000
C 	C 	0.45060 0.00000 0.25000 0.19700
C 	C 	0.34080 0.00000 0.25000 0.20400
C 	C 	-0.00000 0.45060 0.25000 0.19800
C 	C 	-0.00000 0.34080 0.25000 0.20600
C 	C 	0.54940 0.54940 0.25000 0.23300
C 	C 	0.65920 0.65920 0.25000 0.23700
