data_crystal

_cell_length_a 15.66500
_cell_length_b 14.61600
_cell_length_c 12.30700
_cell_angle_alpha 90.00000
_cell_angle_beta  108.31000
_cell_angle_gamma 90.00000

_symmetry_space_group_name_	'P 1'
_symmetry_space_group_name_H-M	'P 1'

loop_
_symmetry_equiv_pos_as_xyz
  x,y,z

loop_
_atom_site_label
_atom_site_type_symbol
_atom_site_fract_x
_atom_site_fract_y
_atom_site_fract_z
_atom_site_charge
Mn	Mn	0.79807 0.91930 0.32488 1.19300
N 	N 	0.85046 0.84599 0.20290 -0.26200
N 	N 	0.70229 0.80048 0.32100 -0.22800
N 	N 	0.39102 0.62768 0.99110 -0.24100
N 	N 	0.37580 0.54119 0.30740 -0.24600
N 	N 	0.48714 0.86727 0.43110 -0.10600
N 	N 	0.90830 0.82380 0.06370 -0.22300
H 	H 	0.95100 0.82490 0.03370 0.12600
C 	C 	0.90490 0.87140 0.15150 0.02200
H 	H 	0.94120 0.92260 0.17570 0.00800
C 	C 	0.83350 0.77270 0.02810 0.08000
H 	H 	0.81250 0.73810 0.96150 -0.02600
C 	C 	0.79620 0.78360 0.11290 -0.11700
H 	H 	0.74320 0.75560 0.11430 0.04700
H 	H 	0.42190 0.33220 0.00200 0.03000
C 	C 	0.37930 0.38360 0.12350 0.09100
H 	H 	0.37920 0.44630 0.11110 -0.05400
C 	C 	0.41160 0.23720 0.13010 -0.06600
H 	H 	0.43260 0.18050 0.11530 0.03500
C 	C 	0.37830 0.25770 0.21500 0.06500
H 	H 	0.37490 0.21800 0.27260 -0.03200
C 	C 	0.63337 0.76524 0.29760 -0.13600
C 	C 	0.42854 0.65293 0.08100 -0.12500
C 	C 	0.41871 0.59882 0.28810 -0.13700
C 	C 	0.49220 0.81134 0.36790 -0.16800
Mn	Mn	0.29807 0.41930 0.32488 1.18600
N 	N 	0.35046 0.34599 0.20290 -0.26800
N 	N 	0.20229 0.30048 0.32100 -0.23100
N 	N 	0.89102 0.12768 0.99110 -0.24100
N 	N 	0.87580 0.04119 0.30740 -0.24500
N 	N 	0.98714 0.36727 0.43110 -0.09500
N 	N 	0.40830 0.32380 0.06370 -0.22300
H 	H 	0.45100 0.32490 0.03370 0.08800
C 	C 	0.40490 0.37140 0.15150 0.02500
H 	H 	0.44120 0.42260 0.17570 -0.01400
C 	C 	0.33350 0.27270 0.02810 0.08400
H 	H 	0.31250 0.23810 0.96150 -0.03100
C 	C 	0.29620 0.28360 0.11290 -0.11400
H 	H 	0.24320 0.25560 0.11430 0.04300
H 	H 	0.92190 0.83220 0.00200 0.00900
C 	C 	0.87930 0.88360 0.12350 0.09700
H 	H 	0.87920 0.94630 0.11110 -0.05200
C 	C 	0.91160 0.73720 0.13010 -0.05300
H 	H 	0.93260 0.68050 0.11530 0.04800
C 	C 	0.87830 0.75770 0.21500 0.07500
H 	H 	0.87490 0.71800 0.27260 -0.01900
C 	C 	0.13337 0.26524 0.29760 -0.15100
C 	C 	0.92854 0.15293 0.08100 -0.06200
C 	C 	0.91871 0.09882 0.28810 -0.09000
C 	C 	0.99220 0.31134 0.36790 -0.10500
Mn	Mn	0.20193 0.91930 0.17512 1.18500
N 	N 	0.14954 0.84599 0.29710 -0.27100
N 	N 	0.29771 0.80048 0.17900 -0.23200
N 	N 	0.60898 0.62768 0.50890 -0.23700
N 	N 	0.62420 0.54119 0.19260 -0.24300
N 	N 	0.51286 0.86727 0.06890 -0.10600
N 	N 	0.09170 0.82380 0.43630 -0.22000
H 	H 	0.04900 0.82490 0.46630 0.04600
C 	C 	0.09510 0.87140 0.34850 0.02900
H 	H 	0.05880 0.92260 0.32430 -0.03700
C 	C 	0.16650 0.77270 0.47190 0.06700
H 	H 	0.18750 0.73810 0.53850 -0.02500
C 	C 	0.20380 0.78360 0.38710 -0.09900
H 	H 	0.25680 0.75560 0.38570 0.03800
H 	H 	0.57810 0.33220 0.49800 0.03200
C 	C 	0.62070 0.38360 0.37650 0.09000
H 	H 	0.62080 0.44630 0.38890 -0.05000
C 	C 	0.58840 0.23720 0.36990 -0.06300
H 	H 	0.56740 0.18050 0.38470 0.03300
C 	C 	0.62170 0.25770 0.28500 0.06100
H 	H 	0.62510 0.21800 0.22740 -0.03000
C 	C 	0.36663 0.76524 0.20240 -0.13800
C 	C 	0.57146 0.65293 0.41900 -0.12400
C 	C 	0.58129 0.59882 0.21190 -0.13500
C 	C 	0.50780 0.81134 0.13210 -0.16800
Mn	Mn	0.70193 0.41930 0.17512 1.19200
N 	N 	0.64954 0.34599 0.29710 -0.26600
N 	N 	0.79771 0.30048 0.17900 -0.23200
N 	N 	0.10898 0.12768 0.50890 -0.24300
N 	N 	0.12420 0.04119 0.19260 -0.24500
N 	N 	0.01286 0.36727 0.06890 -0.11900
N 	N 	0.59170 0.32380 0.43630 -0.22200
H 	H 	0.54900 0.32490 0.46630 0.08600
C 	C 	0.59510 0.37140 0.34850 0.02700
H 	H 	0.55880 0.42260 0.32430 -0.01400
C 	C 	0.66650 0.27270 0.47190 0.07500
H 	H 	0.68750 0.23810 0.53850 -0.02600
C 	C 	0.70380 0.28360 0.38710 -0.10800
H 	H 	0.75680 0.25560 0.38570 0.04400
H 	H 	0.07810 0.83220 0.49800 0.05300
C 	C 	0.12070 0.88360 0.37650 0.08300
H 	H 	0.12080 0.94630 0.38890 -0.05300
C 	C 	0.08840 0.73720 0.36990 -0.07100
H 	H 	0.06740 0.68050 0.38470 0.01800
C 	C 	0.12170 0.75770 0.28500 0.04700
H 	H 	0.12510 0.71800 0.22740 -0.04200
C 	C 	0.86663 0.26524 0.20240 -0.10900
C 	C 	0.07146 0.15293 0.41900 -0.17000
C 	C 	0.08129 0.09882 0.21190 -0.16600
C 	C 	0.00780 0.31134 0.13210 -0.21500
Mn	Mn	0.20193 0.08070 0.67512 1.18500
N 	N 	0.14954 0.15401 0.79710 -0.27100
N 	N 	0.29771 0.19952 0.67900 -0.23200
N 	N 	0.60898 0.37232 0.00890 -0.23500
N 	N 	0.62420 0.45881 0.69260 -0.24300
N 	N 	0.51286 0.13273 0.56890 -0.10600
N 	N 	0.09170 0.17620 0.93630 -0.21800
H 	H 	0.04900 0.17510 0.96630 0.04400
C 	C 	0.09510 0.12860 0.84850 0.02900
H 	H 	0.05880 0.07740 0.82430 -0.03700
C 	C 	0.16650 0.22730 0.97190 0.05500
H 	H 	0.18750 0.26190 0.03850 -0.01800
C 	C 	0.20380 0.21640 0.88710 -0.09400
H 	H 	0.25680 0.24440 0.88570 0.03700
H 	H 	0.57810 0.66780 0.99800 0.03100
C 	C 	0.62070 0.61640 0.87650 0.09000
H 	H 	0.62080 0.55370 0.88890 -0.05100
C 	C 	0.58840 0.76280 0.86990 -0.06300
H 	H 	0.56740 0.81950 0.88470 0.03300
C 	C 	0.62170 0.74230 0.78500 0.06100
H 	H 	0.62510 0.78200 0.72740 -0.03000
C 	C 	0.36663 0.23476 0.70240 -0.13800
C 	C 	0.57146 0.34707 0.91900 -0.12700
C 	C 	0.58129 0.40118 0.71190 -0.13500
C 	C 	0.50780 0.18866 0.63210 -0.16800
Mn	Mn	0.70193 0.58070 0.67512 1.19200
N 	N 	0.64954 0.65401 0.79710 -0.26600
N 	N 	0.79771 0.69952 0.67900 -0.23200
N 	N 	0.10898 0.87232 0.00890 -0.24200
N 	N 	0.12420 0.95881 0.69260 -0.24600
N 	N 	0.01286 0.63273 0.56890 -0.12100
N 	N 	0.59170 0.67620 0.93630 -0.22200
H 	H 	0.54900 0.67510 0.96630 0.08600
C 	C 	0.59510 0.62860 0.84850 0.02600
H 	H 	0.55880 0.57740 0.82430 -0.01400
C 	C 	0.66650 0.72730 0.97190 0.07500
H 	H 	0.68750 0.76190 0.03850 -0.02600
C 	C 	0.70380 0.71640 0.88710 -0.10800
H 	H 	0.75680 0.74440 0.88570 0.04400
H 	H 	0.07810 0.16780 0.99800 0.05200
C 	C 	0.12070 0.11640 0.87650 0.08300
H 	H 	0.12080 0.05370 0.88890 -0.05400
C 	C 	0.08840 0.26280 0.86990 -0.06700
H 	H 	0.06740 0.31950 0.88470 0.01600
C 	C 	0.12170 0.24230 0.78500 0.04300
H 	H 	0.12510 0.28200 0.72740 -0.04100
C 	C 	0.86663 0.73476 0.70240 -0.10900
C 	C 	0.07146 0.84707 0.91900 -0.16900
C 	C 	0.08129 0.90118 0.71190 -0.16600
C 	C 	0.00780 0.68866 0.63210 -0.21700
Mn	Mn	0.79807 0.08070 0.82488 1.19200
N 	N 	0.85046 0.15401 0.70290 -0.26300
N 	N 	0.70229 0.19952 0.82100 -0.22800
N 	N 	0.39102 0.37232 0.49110 -0.23900
N 	N 	0.37580 0.45881 0.80740 -0.24700
N 	N 	0.48714 0.13273 0.93110 -0.10700
N 	N 	0.90830 0.17620 0.56370 -0.22300
H 	H 	0.95100 0.17510 0.53370 0.12700
C 	C 	0.90490 0.12860 0.65150 0.02300
H 	H 	0.94120 0.07740 0.67570 0.00900
C 	C 	0.83350 0.22730 0.52810 0.08100
H 	H 	0.81250 0.26190 0.46150 -0.02600
C 	C 	0.79620 0.21640 0.61290 -0.11800
H 	H 	0.74320 0.24440 0.61430 0.04700
H 	H 	0.42190 0.66780 0.50200 0.03000
C 	C 	0.37930 0.61640 0.62350 0.09100
H 	H 	0.37920 0.55370 0.61110 -0.05400
C 	C 	0.41160 0.76280 0.63010 -0.06200
H 	H 	0.43260 0.81950 0.61530 0.03300
C 	C 	0.37830 0.74230 0.71500 0.06100
H 	H 	0.37490 0.78200 0.77260 -0.03100
C 	C 	0.63337 0.23476 0.79760 -0.13600
C 	C 	0.42854 0.34707 0.58100 -0.12600
C 	C 	0.41871 0.40118 0.78810 -0.13800
C 	C 	0.49220 0.18866 0.86790 -0.16900
Mn	Mn	0.29807 0.58070 0.82488 1.18600
N 	N 	0.35046 0.65401 0.70290 -0.26800
N 	N 	0.20229 0.69952 0.82100 -0.23100
N 	N 	0.89102 0.87232 0.49110 -0.23700
N 	N 	0.87580 0.95881 0.80740 -0.24500
N 	N 	0.98714 0.63273 0.93110 -0.09600
N 	N 	0.40830 0.67620 0.56370 -0.22100
H 	H 	0.45100 0.67510 0.53370 0.08700
C 	C 	0.40490 0.62860 0.65150 0.02500
H 	H 	0.44120 0.57740 0.67570 -0.01400
C 	C 	0.33350 0.72730 0.52810 0.07200
H 	H 	0.31250 0.76190 0.46150 -0.02400
C 	C 	0.29620 0.71640 0.61290 -0.10900
H 	H 	0.24320 0.74440 0.61430 0.04200
H 	H 	0.92190 0.16780 0.50200 0.00900
C 	C 	0.87930 0.11640 0.62350 0.09700
H 	H 	0.87920 0.05370 0.61110 -0.05100
C 	C 	0.91160 0.26280 0.63010 -0.05300
H 	H 	0.93260 0.31950 0.61530 0.04800
C 	C 	0.87830 0.24230 0.71500 0.07500
H 	H 	0.87490 0.28200 0.77260 -0.02000
C 	C 	0.13337 0.73476 0.79760 -0.15100
C 	C 	0.92854 0.84707 0.58100 -0.06600
C 	C 	0.91871 0.90118 0.78810 -0.09100
C 	C 	0.99220 0.68866 0.86790 -0.10500
Mo	Mo	0.50000 0.70589 0.25000 1.06700
Mo	Mo	0.00000 0.20589 0.25000 1.02300
Mo	Mo	0.50000 0.29411 0.75000 1.06700
Mo	Mo	-0.00000 0.79411 0.75000 1.02300
