data_crystal

_cell_length_a 7.10720
_cell_length_b 9.40940
_cell_length_c 11.78470
_cell_angle_alpha 71.60200
_cell_angle_beta  78.16500
_cell_angle_gamma 70.29600

_symmetry_space_group_name_	'P 1'
_symmetry_space_group_name_H-M	'P 1'

loop_
_symmetry_equiv_pos_as_xyz
  x,y,z

loop_
_atom_site_label
_atom_site_type_symbol
_atom_site_fract_x
_atom_site_fract_y
_atom_site_fract_z
_atom_site_charge
Ga	Ga	0.46521 0.37565 0.83957 2.10400
P 	P 	0.64571 0.09833 0.69775 0.29600
P 	P 	0.30990 0.73427 0.67125 0.52300
P 	P 	0.71292 0.54714 0.90563 0.50900
F 	F 	0.20580 0.08870 0.50998 -0.99500
F 	F 	0.52540 0.18820 0.96434 -0.63300
F 	F 	0.22080 0.33810 0.83680 -0.64300
O 	O 	0.70920 0.42100 0.85150 -0.42600
O 	O 	0.40090 0.55730 0.70070 -0.47100
O 	O 	0.68250 0.50240 0.04160 -0.49400
O 	O 	0.61080 0.25610 0.72200 -0.41300
O 	O 	0.86660 0.03430 0.65400 -0.53000
O 	O 	0.46940 0.81990 0.63100 -0.37300
O 	O 	0.49990 0.10700 0.61640 -0.57800
O 	O 	0.15730 0.78880 0.58030 -0.44300
O 	O 	0.91430 0.59010 0.85710 -0.09700
H 	H 	0.58600 0.68900 0.86100 0.03100
H 	H 	0.21900 0.77300 0.76800 0.01100
H 	H 	0.60900 0.99400 0.80700 0.29700
H 	H 	0.02800 0.52200 0.85600 0.09800
Ga	Ga	0.53479 0.62435 0.16043 2.10700
P 	P 	0.35429 0.90167 0.30225 0.76300
P 	P 	0.69010 0.26573 0.32875 0.51700
P 	P 	0.28708 0.45286 0.09437 0.52100
F 	F 	0.79420 0.91130 0.49002 -0.59700
F 	F 	0.47460 0.81180 0.03566 -0.50700
F 	F 	0.77920 0.66190 0.16320 -0.52400
O 	O 	0.29080 0.57900 0.14850 -0.48100
O 	O 	0.59910 0.44270 0.29930 -0.45800
O 	O 	0.31750 0.49760 0.95840 -0.47500
O 	O 	0.38920 0.74390 0.27800 -0.44200
O 	O 	0.13340 0.96570 0.34600 -0.39200
O 	O 	0.53060 0.18010 0.36900 -0.59000
O 	O 	0.50010 0.89300 0.38360 -0.36400
O 	O 	0.84270 0.21120 0.41970 -0.45600
O 	O 	0.08570 0.40990 0.14290 -0.68900
H 	H 	0.41400 0.31100 0.13900 -0.02900
H 	H 	0.78100 0.22700 0.23200 -0.03900
H 	H 	0.39100 0.00600 0.19300 -0.21000
H 	H 	0.97200 0.47800 0.14400 0.54400
Ga	Ga	0.00000 -0.00000 0.50000 1.99500
Ga	Ga	0.50000 -0.00000 0.50000 2.03300
