data_crystal

_cell_length_a 7.70530
_cell_length_b 7.70530
_cell_length_c 14.81550
_cell_angle_alpha 90.00000
_cell_angle_beta  90.00000
_cell_angle_gamma 120.00000

_symmetry_space_group_name_	'P 1'
_symmetry_space_group_name_H-M	'P 1'

loop_
_symmetry_equiv_pos_as_xyz
  x,y,z

loop_
_atom_site_label
_atom_site_type_symbol
_atom_site_fract_x
_atom_site_fract_y
_atom_site_fract_z
_atom_site_charge
La	La	0.66667 0.33334 0.75000 1.36100
La	La	0.33333 0.66666 0.25000 1.33800
Cr	Cr	-0.00000 -0.00000 0.50000 1.32800
Cr	Cr	-0.00000 0.00000 -0.00000 1.27800
C 	C 	0.25160 0.10920 0.58070 -0.42800
C 	C 	0.85760 0.74840 0.58070 -0.10000
C 	C 	0.89080 0.14240 0.58070 -0.26300
C 	C 	0.74840 0.89080 0.08070 -0.14700
C 	C 	0.14240 0.25160 0.08070 -0.47700
C 	C 	0.10920 0.85760 0.08070 -0.29300
C 	C 	0.74840 0.89080 0.41930 -0.09600
C 	C 	0.14240 0.25160 0.41930 -0.42500
C 	C 	0.10920 0.85760 0.41930 -0.24300
C 	C 	0.25160 0.10920 0.91930 -0.35200
C 	C 	0.85760 0.74840 0.91930 -0.03100
C 	C 	0.89080 0.14240 0.91930 -0.19000
N 	N 	0.38970 0.16980 0.62540 -0.18700
N 	N 	0.78010 0.61030 0.62540 -0.19100
N 	N 	0.83020 0.21990 0.62540 -0.18200
N 	N 	0.61030 0.83020 0.12540 -0.18900
N 	N 	0.21990 0.38970 0.12540 -0.18500
N 	N 	0.16980 0.78010 0.12540 -0.19700
N 	N 	0.61030 0.83020 0.37460 -0.18600
N 	N 	0.21990 0.38970 0.37460 -0.18200
N 	N 	0.16980 0.78010 0.37460 -0.19400
N 	N 	0.38970 0.16980 0.87460 -0.19000
N 	N 	0.78010 0.61030 0.87460 -0.19300
N 	N 	0.83020 0.21990 0.87460 -0.18400
