data_crystal

_cell_length_a 6.26720
_cell_length_b 8.62040
_cell_length_c 12.93600
_cell_angle_alpha 105.31400
_cell_angle_beta  90.43900
_cell_angle_gamma 105.08100

_symmetry_space_group_name_	'P 1'
_symmetry_space_group_name_H-M	'P 1'

loop_
_symmetry_equiv_pos_as_xyz
  x,y,z

loop_
_atom_site_label
_atom_site_type_symbol
_atom_site_fract_x
_atom_site_fract_y
_atom_site_fract_z
_atom_site_charge
Nd	Nd	0.80913 0.66646 0.07490 2.49500
Nd	Nd	0.55756 0.02780 0.25762 2.29000
Nd	Nd	0.19087 0.33354 0.92510 2.49500
Nd	Nd	0.44244 0.97220 0.74238 2.29000
H 	H 	0.98030 0.96950 0.29530 0.20000
H 	H 	0.01970 0.03050 0.70470 0.20000
C 	C 	0.94470 0.05190 0.04560 0.31100
C 	C 	0.54260 0.30210 0.12840 0.32300
C 	C 	0.73120 0.39470 0.21830 0.26900
C 	C 	0.40540 0.91840 0.47870 0.26300
C 	C 	0.05530 0.94810 0.95440 0.31100
C 	C 	0.45740 0.69790 0.87160 0.32300
C 	C 	0.26880 0.60530 0.78170 0.26900
C 	C 	0.59460 0.08160 0.52130 0.26300
N 	N 	0.28430 0.70750 0.13140 0.13200
N 	N 	0.71570 0.29250 0.86860 0.13200
O 	O 	0.82740 0.97120 0.10350 -0.61300
O 	O 	0.97910 0.20390 0.05540 -0.51100
O 	O 	0.44170 0.15630 0.12550 -0.52300
O 	O 	0.50460 0.38410 0.06580 -0.60800
O 	O 	0.76530 0.31420 0.28210 -0.47900
O 	O 	0.83590 0.54020 0.22210 -0.44900
O 	O 	0.35840 0.86970 0.37950 -0.43400
O 	O 	0.31630 0.84930 0.54780 -0.44600
O 	O 	0.20060 0.83180 0.16230 -0.51900
O 	O 	0.16040 0.56690 0.07530 -0.54200
O 	O 	0.49000 0.73220 0.16050 -0.57800
O 	O 	0.85870 0.89790 0.29480 -0.58100
O 	O 	0.17260 0.02880 0.89650 -0.61300
O 	O 	0.02090 0.79610 0.94460 -0.51100
O 	O 	0.55830 0.84370 0.87450 -0.52300
O 	O 	0.49540 0.61590 0.93420 -0.60800
O 	O 	0.23470 0.68580 0.71790 -0.47900
O 	O 	0.16410 0.45980 0.77790 -0.44900
O 	O 	0.64160 0.13030 0.62050 -0.43400
O 	O 	0.68370 0.15070 0.45220 -0.44600
O 	O 	0.79940 0.16820 0.83770 -0.51900
O 	O 	0.83960 0.43310 0.92470 -0.54200
O 	O 	0.51000 0.26780 0.83950 -0.57800
O 	O 	0.14130 0.10210 0.70520 -0.58100
