data_crystal

_cell_length_a 7.30580
_cell_length_b 7.30580
_cell_length_c 8.18970
_cell_angle_alpha 90.00000
_cell_angle_beta  90.00000
_cell_angle_gamma 120.00000

_symmetry_space_group_name_	'P 1'
_symmetry_space_group_name_H-M	'P 1'

loop_
_symmetry_equiv_pos_as_xyz
  x,y,z

loop_
_atom_site_label
_atom_site_type_symbol
_atom_site_fract_x
_atom_site_fract_y
_atom_site_fract_z
_atom_site_charge
O 	O 	0.89045 0.30738 0.89444 -0.24000
O 	O 	0.69262 0.58307 0.89444 -0.25800
O 	O 	0.41693 0.10955 0.89444 -0.27000
O 	O 	0.10955 0.69262 0.39444 -0.34400
O 	O 	0.30738 0.41693 0.39444 -0.37400
O 	O 	0.58307 0.89045 0.39444 -0.29300
O 	O 	0.30738 0.89045 0.10556 -0.28600
O 	O 	0.58307 0.69262 0.10556 -0.32600
O 	O 	0.10955 0.41693 0.10556 -0.34600
O 	O 	0.69262 0.10955 0.60556 -0.33900
O 	O 	0.41693 0.30738 0.60556 -0.36700
O 	O 	0.89045 0.58307 0.60556 -0.30300
Co	Co	0.66667 0.33333 0.75000 1.20100
Co	Co	0.33333 0.66667 0.25000 1.19800
C 	C 	-0.00000 0.43900 -0.00000 0.19100
H 	H 	-0.00000 0.59200 -0.00000 -0.02500
C 	C 	0.56100 0.56100 -0.00000 0.24300
H 	H 	0.40800 0.40800 -0.00000 -0.03400
C 	C 	0.43900 0.00000 -0.00000 0.16200
H 	H 	0.59200 0.00000 -0.00000 -0.02700
C 	C 	0.00000 0.56100 0.50000 0.29500
H 	H 	0.00000 0.40800 0.50000 -0.03100
C 	C 	0.43900 0.43900 0.50000 0.35500
H 	H 	0.59200 0.59200 0.50000 -0.02100
C 	C 	0.56100 0.00000 0.50000 0.27000
H 	H 	0.40800 0.00000 0.50000 -0.03100
