data_crystal

_cell_length_a 7.28910
_cell_length_b 7.28910
_cell_length_c 8.04700
_cell_angle_alpha 90.00000
_cell_angle_beta  90.00000
_cell_angle_gamma 120.00000

_symmetry_space_group_name_	'P 1'
_symmetry_space_group_name_H-M	'P 1'

loop_
_symmetry_equiv_pos_as_xyz
  x,y,z

loop_
_atom_site_label
_atom_site_type_symbol
_atom_site_fract_x
_atom_site_fract_y
_atom_site_fract_z
_atom_site_charge
O 	O 	0.69030 0.11070 0.10610 -0.32600
O 	O 	0.88930 0.57960 0.10610 -0.26600
O 	O 	0.42040 0.30970 0.10610 -0.36200
O 	O 	0.30970 0.88930 0.60610 -0.32500
O 	O 	0.11070 0.42040 0.60610 -0.35900
O 	O 	0.57960 0.69030 0.60610 -0.35100
O 	O 	0.11070 0.69030 0.89390 -0.24800
O 	O 	0.57960 0.88930 0.89390 -0.21300
O 	O 	0.30970 0.42040 0.89390 -0.28600
O 	O 	0.88930 0.30970 0.39390 -0.30600
O 	O 	0.42040 0.11070 0.39390 -0.37200
O 	O 	0.69030 0.57960 0.39390 -0.35700
Ni	Ni	0.66667 0.33333 0.25000 1.14200
Ni	Ni	0.33333 0.66667 0.75000 1.14600
C 	C 	0.55860 0.00000 -0.00000 0.23400
H 	H 	0.43100 0.00000 -0.00000 -0.06500
C 	C 	0.00000 0.55860 -0.00000 0.19400
H 	H 	-0.00000 0.43100 -0.00000 -0.05700
C 	C 	0.44140 0.44140 -0.00000 0.31200
H 	H 	0.56900 0.56900 -0.00000 -0.06600
C 	C 	0.44140 0.00000 0.50000 0.38100
H 	H 	0.56900 0.00000 0.50000 -0.08000
C 	C 	-0.00000 0.44140 0.50000 0.34600
H 	H 	0.00000 0.56900 0.50000 -0.07500
C 	C 	0.55860 0.55860 0.50000 0.45900
H 	H 	0.43100 0.43100 0.50000 -0.10000
