data_crystal

_cell_length_a 7.28640
_cell_length_b 7.28640
_cell_length_c 8.05250
_cell_angle_alpha 90.00000
_cell_angle_beta  90.00000
_cell_angle_gamma 120.00000

_symmetry_space_group_name_	'P 1'
_symmetry_space_group_name_H-M	'P 1'

loop_
_symmetry_equiv_pos_as_xyz
  x,y,z

loop_
_atom_site_label
_atom_site_type_symbol
_atom_site_fract_x
_atom_site_fract_y
_atom_site_fract_z
_atom_site_charge
O 	O 	0.69110 0.11160 0.10613 -0.32600
O 	O 	0.88840 0.57950 0.10613 -0.26600
O 	O 	0.42050 0.30890 0.10613 -0.35900
O 	O 	0.30890 0.88840 0.60613 -0.32100
O 	O 	0.11160 0.42050 0.60613 -0.35500
O 	O 	0.57950 0.69110 0.60613 -0.34600
O 	O 	0.11160 0.69110 0.89387 -0.24700
O 	O 	0.57950 0.88840 0.89387 -0.21300
O 	O 	0.30890 0.42050 0.89387 -0.28400
O 	O 	0.88840 0.30890 0.39387 -0.30300
O 	O 	0.42050 0.11160 0.39387 -0.36800
O 	O 	0.69110 0.57950 0.39387 -0.35200
Ni	Ni	0.66667 0.33333 0.25000 1.14200
Ni	Ni	0.33333 0.66667 0.75000 1.14500
C 	C 	0.55800 0.00000 -0.00000 0.22900
H 	H 	0.43030 0.00000 -0.00000 -0.06200
C 	C 	-0.00000 0.55800 -0.00000 0.19000
H 	H 	-0.00000 0.43030 -0.00000 -0.05500
C 	C 	0.44200 0.44200 -0.00000 0.30400
H 	H 	0.56970 0.56970 -0.00000 -0.06300
C 	C 	0.44200 0.00000 0.50000 0.37000
H 	H 	0.56970 0.00000 0.50000 -0.07500
C 	C 	0.00000 0.44200 0.50000 0.33700
H 	H 	0.00000 0.56970 0.50000 -0.07200
C 	C 	0.55800 0.55800 0.50000 0.44500
H 	H 	0.43030 0.43030 0.50000 -0.09500
