data_crystal

_cell_length_a 7.26100
_cell_length_b 7.26100
_cell_length_c 8.08110
_cell_angle_alpha 90.00000
_cell_angle_beta  90.00000
_cell_angle_gamma 120.00000

_symmetry_space_group_name_	'P 1'
_symmetry_space_group_name_H-M	'P 1'

loop_
_symmetry_equiv_pos_as_xyz
  x,y,z

loop_
_atom_site_label
_atom_site_type_symbol
_atom_site_fract_x
_atom_site_fract_y
_atom_site_fract_z
_atom_site_charge
O 	O 	0.69150 0.11140 0.10668 -0.32000
O 	O 	0.88860 0.58010 0.10668 -0.26300
O 	O 	0.41990 0.30850 0.10668 -0.35300
O 	O 	0.30850 0.88860 0.60668 -0.31700
O 	O 	0.11140 0.41990 0.60668 -0.35000
O 	O 	0.58010 0.69150 0.60668 -0.34000
O 	O 	0.11140 0.69150 0.89332 -0.24700
O 	O 	0.58010 0.88860 0.89332 -0.21300
O 	O 	0.30850 0.41990 0.89332 -0.28100
O 	O 	0.88860 0.30850 0.39332 -0.30000
O 	O 	0.41990 0.11140 0.39332 -0.36200
O 	O 	0.69150 0.58010 0.39332 -0.34500
Ni	Ni	0.66667 0.33333 0.25000 1.14100
Ni	Ni	0.33333 0.66667 0.75000 1.14400
C 	C 	0.55640 0.00000 -0.00000 0.22100
H 	H 	0.42830 0.00000 -0.00000 -0.05800
C 	C 	0.00000 0.55640 -0.00000 0.18400
H 	H 	-0.00000 0.42830 -0.00000 -0.05200
C 	C 	0.44360 0.44360 -0.00000 0.29100
H 	H 	0.57170 0.57170 -0.00000 -0.05800
C 	C 	0.44360 0.00000 0.50000 0.35500
H 	H 	0.57170 0.00000 0.50000 -0.07000
C 	C 	0.00000 0.44360 0.50000 0.32300
H 	H 	0.00000 0.57170 0.50000 -0.06700
C 	C 	0.55640 0.55640 0.50000 0.42600
H 	H 	0.42830 0.42830 0.50000 -0.08900
