data_crystal

_cell_length_a 7.68270
_cell_length_b 7.72690
_cell_length_c 18.09200
_cell_angle_alpha 90.00000
_cell_angle_beta  94.44300
_cell_angle_gamma 90.00000

_symmetry_space_group_name_	'P 1'
_symmetry_space_group_name_H-M	'P 1'

loop_
_symmetry_equiv_pos_as_xyz
  x,y,z

loop_
_atom_site_label
_atom_site_type_symbol
_atom_site_fract_x
_atom_site_fract_y
_atom_site_fract_z
_atom_site_charge
Fe	Fe	0.11372 0.58491 0.36100 1.19300
Fe	Fe	0.77657 0.33346 0.31126 1.19600
P 	P 	0.94077 0.94720 0.30810 0.57200
H 	H 	0.83120 0.88320 0.29850 -0.15300
O 	O 	0.05990 0.83740 0.36021 -0.40500
O 	O 	0.27800 0.37040 0.37566 -0.34100
O 	O 	0.90220 0.47140 0.41036 -0.46000
O 	O 	0.01970 0.97070 0.23357 -0.53400
O 	O 	0.81650 0.37850 0.51862 -0.32100
O 	O 	0.33910 0.65040 0.29279 -0.41300
O 	O 	0.89680 0.11660 0.34358 -0.40300
O 	O 	0.54720 0.27920 0.36289 -0.32100
O 	O 	0.60570 0.54290 0.27504 -0.34600
C 	C 	0.42540 0.38310 0.35093 0.23100
C 	C 	0.91700 0.45470 0.48000 0.26000
C 	C 	0.45990 0.54030 0.30099 0.24200
Fe	Fe	0.88628 0.08491 0.13900 1.19400
Fe	Fe	0.22343 0.83346 0.18874 1.19700
P 	P 	0.05923 0.44720 0.19190 0.57600
H 	H 	0.16880 0.38320 0.20150 -0.15300
O 	O 	0.94010 0.33740 0.13979 -0.40600
O 	O 	0.72200 0.87040 0.12434 -0.34000
O 	O 	0.09780 0.97140 0.08964 -0.45900
O 	O 	0.98030 0.47070 0.26643 -0.53600
O 	O 	0.18350 0.87850 0.98138 -0.32200
O 	O 	0.66090 0.15040 0.20721 -0.41300
O 	O 	0.10320 0.61660 0.15642 -0.40400
O 	O 	0.45280 0.77920 0.13711 -0.32100
O 	O 	0.39430 0.04290 0.22496 -0.34700
C 	C 	0.57460 0.88310 0.14907 0.23200
C 	C 	0.08300 0.95470 0.02000 0.26100
C 	C 	0.54010 0.04030 0.19901 0.24100
Fe	Fe	0.88628 0.41509 0.63900 1.19400
Fe	Fe	0.22343 0.66654 0.68874 1.19700
P 	P 	0.05923 0.05280 0.69190 0.57300
H 	H 	0.16880 0.11680 0.70150 -0.15200
O 	O 	0.94010 0.16260 0.63979 -0.40400
O 	O 	0.72200 0.62960 0.62434 -0.34000
O 	O 	0.09780 0.52860 0.58964 -0.46000
O 	O 	0.98030 0.02930 0.76643 -0.53400
O 	O 	0.18350 0.62150 0.48138 -0.32100
O 	O 	0.66090 0.34960 0.70721 -0.41300
O 	O 	0.10320 0.88340 0.65642 -0.40300
O 	O 	0.45280 0.72080 0.63711 -0.32100
O 	O 	0.39430 0.45710 0.72496 -0.34600
C 	C 	0.57460 0.61690 0.64907 0.23100
C 	C 	0.08300 0.54530 0.52000 0.26000
C 	C 	0.54010 0.45970 0.69901 0.24200
Fe	Fe	0.11372 0.91509 0.86100 1.19400
Fe	Fe	0.77657 0.16654 0.81126 1.19700
P 	P 	0.94077 0.55280 0.80810 0.57600
H 	H 	0.83120 0.61680 0.79850 -0.15300
O 	O 	0.05990 0.66260 0.86021 -0.40600
O 	O 	0.27800 0.12960 0.87566 -0.34000
O 	O 	0.90220 0.02860 0.91036 -0.45900
O 	O 	0.01970 0.52930 0.73357 -0.53600
O 	O 	0.81650 0.12150 0.01862 -0.32200
O 	O 	0.33910 0.84960 0.79279 -0.41300
O 	O 	0.89680 0.38340 0.84358 -0.40400
O 	O 	0.54720 0.22080 0.86289 -0.32100
O 	O 	0.60570 0.95710 0.77504 -0.34700
C 	C 	0.42540 0.11690 0.85093 0.23200
C 	C 	0.91700 0.04530 0.98000 0.26100
C 	C 	0.45990 0.95970 0.80099 0.24100
