data_crystal

_cell_length_a 18.65600
_cell_length_b 18.65600
_cell_length_c 9.37800
_cell_angle_alpha 90.00000
_cell_angle_beta  90.00000
_cell_angle_gamma 90.00000

_symmetry_space_group_name_	'P 1'
_symmetry_space_group_name_H-M	'P 1'

loop_
_symmetry_equiv_pos_as_xyz
  x,y,z

loop_
_atom_site_label
_atom_site_type_symbol
_atom_site_fract_x
_atom_site_fract_y
_atom_site_fract_z
_atom_site_charge
P 	P 	0.06709 0.83381 0.09038 0.82300
O 	O 	0.99760 0.84250 0.00380 -0.82400
O 	O 	0.05700 0.87060 0.23440 -0.78700
O 	O 	0.13070 0.86620 0.01000 -0.83200
O 	O 	0.08280 0.75540 0.11860 -0.77800
Al	Al	0.95449 0.83422 0.84140 2.39600
P 	P 	0.83429 0.95085 0.83970 0.78200
O 	O 	0.87250 0.87710 0.84380 -0.77000
O 	O 	0.84220 0.98570 0.98850 -0.83400
O 	O 	0.75480 0.93850 0.80300 -0.76400
O 	O 	0.86640 0.99930 0.72090 -0.81900
Al	Al	0.16654 0.93612 0.91440 2.39900
P 	P 	0.05613 0.93438 0.66366 0.81300
O 	O 	0.12510 0.94000 0.75170 -0.79100
O 	O 	0.01620 0.00570 0.67690 -0.82700
O 	O 	0.00980 0.87140 0.71150 -0.82200
O 	O 	0.07780 0.92180 0.50770 -0.77000
Al	Al	0.06386 0.94801 0.33450 2.39800
P 	P 	0.43291 0.66619 0.09038 0.83400
O 	O 	0.50240 0.65750 0.00380 -0.83800
O 	O 	0.44300 0.62940 0.23440 -0.78300
O 	O 	0.36930 0.63380 0.01000 -0.83100
O 	O 	0.41720 0.74460 0.11860 -0.77600
Al	Al	0.54551 0.66578 0.84140 2.39700
P 	P 	0.66571 0.54915 0.83970 0.78200
O 	O 	0.62750 0.62290 0.84380 -0.77000
O 	O 	0.65780 0.51430 0.98850 -0.83400
O 	O 	0.74520 0.56150 0.80300 -0.76400
O 	O 	0.63360 0.50070 0.72090 -0.82200
Al	Al	0.33346 0.56388 0.91440 2.39900
P 	P 	0.44387 0.56562 0.66366 0.82400
O 	O 	0.37490 0.56000 0.75170 -0.78900
O 	O 	0.48380 0.49430 0.67690 -0.84100
O 	O 	0.49020 0.62860 0.71150 -0.81800
O 	O 	0.42220 0.57820 0.50770 -0.76700
Al	Al	0.43614 0.55199 0.33450 2.39900
P 	P 	0.66619 0.06709 0.09038 0.82700
O 	O 	0.65750 0.99760 0.00380 -0.82900
O 	O 	0.62940 0.05700 0.23440 -0.78400
O 	O 	0.63380 0.13070 0.01000 -0.83100
O 	O 	0.74460 0.08280 0.11860 -0.77800
Al	Al	0.66578 0.95449 0.84140 2.39700
P 	P 	0.54915 0.83429 0.83970 0.78200
O 	O 	0.62290 0.87250 0.84380 -0.77100
O 	O 	0.51430 0.84220 0.98850 -0.83500
O 	O 	0.56150 0.75480 0.80300 -0.76400
O 	O 	0.50070 0.86640 0.72090 -0.82200
Al	Al	0.56388 0.16654 0.91440 2.39900
P 	P 	0.56562 0.05613 0.66366 0.82400
O 	O 	0.56000 0.12510 0.75170 -0.78800
O 	O 	0.49430 0.01620 0.67690 -0.83900
O 	O 	0.62860 0.00980 0.71150 -0.81900
O 	O 	0.57820 0.07780 0.50770 -0.76800
Al	Al	0.55199 0.06386 0.33450 2.39900
P 	P 	0.83381 0.43291 0.09038 0.83400
O 	O 	0.84250 0.50240 0.00380 -0.83600
O 	O 	0.87060 0.44300 0.23440 -0.78200
O 	O 	0.86620 0.36930 0.01000 -0.82900
O 	O 	0.75540 0.41720 0.11860 -0.77600
Al	Al	0.83422 0.54551 0.84140 2.39700
P 	P 	0.95085 0.66571 0.83970 0.78200
O 	O 	0.87710 0.62750 0.84380 -0.77100
O 	O 	0.98570 0.65780 0.98850 -0.83600
O 	O 	0.93850 0.74520 0.80300 -0.76400
O 	O 	0.99930 0.63360 0.72090 -0.82200
Al	Al	0.93612 0.33346 0.91440 2.39900
P 	P 	0.93438 0.44387 0.66366 0.82200
O 	O 	0.94000 0.37490 0.75170 -0.79100
O 	O 	0.00570 0.48380 0.67690 -0.83800
O 	O 	0.87140 0.49020 0.71150 -0.81900
O 	O 	0.92180 0.42220 0.50770 -0.76700
Al	Al	0.94801 0.43614 0.33450 2.39900
P 	P 	0.93291 0.16619 0.90962 0.82400
O 	O 	0.00240 0.15750 0.99620 -0.82300
O 	O 	0.94300 0.12940 0.76560 -0.78600
O 	O 	0.86930 0.13380 0.99000 -0.83100
O 	O 	0.91720 0.24460 0.88140 -0.77700
Al	Al	0.04551 0.16578 0.15860 2.39700
P 	P 	0.16571 0.04915 0.16030 0.78200
O 	O 	0.12750 0.12290 0.15620 -0.77000
O 	O 	0.15780 0.01430 0.01150 -0.83400
O 	O 	0.24520 0.06150 0.19700 -0.76400
O 	O 	0.13360 0.00070 0.27910 -0.81900
Al	Al	0.83346 0.06388 0.08560 2.39900
P 	P 	0.94387 0.06562 0.33634 0.81300
O 	O 	0.87490 0.06000 0.24830 -0.79100
O 	O 	0.98380 0.99430 0.32310 -0.82700
O 	O 	0.99020 0.12860 0.28850 -0.82200
O 	O 	0.92220 0.07820 0.49230 -0.77000
Al	Al	0.93614 0.05199 0.66550 2.39800
P 	P 	0.56709 0.33381 0.90962 0.83400
O 	O 	0.49760 0.34250 0.99620 -0.83800
O 	O 	0.55700 0.37060 0.76560 -0.78300
O 	O 	0.63070 0.36620 0.99000 -0.83100
O 	O 	0.58280 0.25540 0.88140 -0.77600
Al	Al	0.45449 0.33422 0.15860 2.39700
P 	P 	0.33429 0.45085 0.16030 0.78200
O 	O 	0.37250 0.37710 0.15620 -0.77000
O 	O 	0.34220 0.48570 0.01150 -0.83400
O 	O 	0.25480 0.43850 0.19700 -0.76400
O 	O 	0.36640 0.49930 0.27910 -0.82200
Al	Al	0.66654 0.43612 0.08560 2.39900
P 	P 	0.55613 0.43438 0.33634 0.82400
O 	O 	0.62510 0.44000 0.24830 -0.78900
O 	O 	0.51620 0.50570 0.32310 -0.84100
O 	O 	0.50980 0.37140 0.28850 -0.81800
O 	O 	0.57780 0.42180 0.49230 -0.76700
Al	Al	0.56386 0.44801 0.66550 2.39900
P 	P 	0.33381 0.93291 0.90962 0.82700
O 	O 	0.34250 0.00240 0.99620 -0.82900
O 	O 	0.37060 0.94300 0.76560 -0.78400
O 	O 	0.36620 0.86930 0.99000 -0.83100
O 	O 	0.25540 0.91720 0.88140 -0.77800
Al	Al	0.33422 0.04551 0.15860 2.39700
P 	P 	0.45085 0.16571 0.16030 0.78200
O 	O 	0.37710 0.12750 0.15620 -0.77100
O 	O 	0.48570 0.15780 0.01150 -0.83500
O 	O 	0.43850 0.24520 0.19700 -0.76400
O 	O 	0.49930 0.13360 0.27910 -0.82200
Al	Al	0.43612 0.83346 0.08560 2.39900
P 	P 	0.43438 0.94387 0.33634 0.82400
O 	O 	0.44000 0.87490 0.24830 -0.78800
O 	O 	0.50570 0.98380 0.32310 -0.83900
O 	O 	0.37140 0.99020 0.28850 -0.81900
O 	O 	0.42180 0.92220 0.49230 -0.76800
Al	Al	0.44801 0.93614 0.66550 2.39900
P 	P 	0.16619 0.56709 0.90962 0.83400
O 	O 	0.15750 0.49760 0.99620 -0.83600
O 	O 	0.12940 0.55700 0.76560 -0.78200
O 	O 	0.13380 0.63070 0.99000 -0.82900
O 	O 	0.24460 0.58280 0.88140 -0.77600
Al	Al	0.16578 0.45449 0.15860 2.39700
P 	P 	0.04915 0.33429 0.16030 0.78200
O 	O 	0.12290 0.37250 0.15620 -0.77100
O 	O 	0.01430 0.34220 0.01150 -0.83600
O 	O 	0.06150 0.25480 0.19700 -0.76400
O 	O 	0.00070 0.36640 0.27910 -0.82200
Al	Al	0.06388 0.66654 0.08560 2.39900
P 	P 	0.06562 0.55613 0.33634 0.82200
O 	O 	0.06000 0.62510 0.24830 -0.79100
O 	O 	0.99430 0.51620 0.32310 -0.83800
O 	O 	0.12860 0.50980 0.28850 -0.81900
O 	O 	0.07820 0.57780 0.49230 -0.76700
Al	Al	0.05199 0.56386 0.66550 2.39900
