data_crystal

_cell_length_a 18.90560
_cell_length_b 18.90560
_cell_length_c 18.90560
_cell_angle_alpha 90.00000
_cell_angle_beta  90.00000
_cell_angle_gamma 90.00000

_symmetry_space_group_name_	'P 1'
_symmetry_space_group_name_H-M	'P 1'

loop_
_symmetry_equiv_pos_as_xyz
  x,y,z

loop_
_atom_site_label
_atom_site_type_symbol
_atom_site_fract_x
_atom_site_fract_y
_atom_site_fract_z
_atom_site_charge
P 	P 	0.07081 0.55166 0.66723 0.83800
Al	Al	0.95436 0.43172 0.66597 2.39100
O 	O 	0.99970 0.51430 0.66020 -0.83200
O 	O 	0.06440 0.62110 0.62950 -0.77200
O 	O 	0.08660 0.56650 0.74450 -0.77800
O 	O 	0.12940 0.50790 0.63670 -0.84900
P 	P 	0.42919 0.94834 0.66723 0.84200
Al	Al	0.54564 0.06828 0.66597 2.39000
O 	O 	0.50030 0.98570 0.66020 -0.83400
O 	O 	0.43560 0.87890 0.62950 -0.77000
O 	O 	0.41340 0.93350 0.74450 -0.77400
O 	O 	0.37060 0.99210 0.63670 -0.85000
P 	P 	0.42919 0.55166 0.83277 0.84200
Al	Al	0.54564 0.43172 0.83403 2.39100
O 	O 	0.50030 0.51430 0.83980 -0.83700
O 	O 	0.43560 0.62110 0.87050 -0.77000
O 	O 	0.41340 0.56650 0.75550 -0.77500
O 	O 	0.37060 0.50790 0.86330 -0.85000
P 	P 	0.07081 0.94834 0.83277 0.82100
Al	Al	0.95436 0.06828 0.83403 2.38900
O 	O 	0.99970 0.98570 0.83980 -0.80600
O 	O 	0.06440 0.87890 0.87050 -0.77600
O 	O 	0.08660 0.93350 0.75550 -0.77900
O 	O 	0.12940 0.99210 0.86330 -0.85100
P 	P 	0.66723 0.07081 0.55166 0.83800
Al	Al	0.66597 0.95436 0.43172 2.39100
O 	O 	0.66020 0.99970 0.51430 -0.83200
O 	O 	0.62950 0.06440 0.62110 -0.77200
O 	O 	0.74450 0.08660 0.56650 -0.77800
O 	O 	0.63670 0.12940 0.50790 -0.84900
P 	P 	0.66723 0.42919 0.94834 0.84200
Al	Al	0.66597 0.54564 0.06828 2.39000
O 	O 	0.66020 0.50030 0.98570 -0.83400
O 	O 	0.62950 0.43560 0.87890 -0.77000
O 	O 	0.74450 0.41340 0.93350 -0.77400
O 	O 	0.63670 0.37060 0.99210 -0.85000
P 	P 	0.83277 0.42919 0.55166 0.84200
Al	Al	0.83403 0.54564 0.43172 2.39100
O 	O 	0.83980 0.50030 0.51430 -0.83700
O 	O 	0.87050 0.43560 0.62110 -0.77000
O 	O 	0.75550 0.41340 0.56650 -0.77500
O 	O 	0.86330 0.37060 0.50790 -0.85000
P 	P 	0.83277 0.07081 0.94834 0.82100
Al	Al	0.83403 0.95436 0.06828 2.38900
O 	O 	0.83980 0.99970 0.98570 -0.80600
O 	O 	0.87050 0.06440 0.87890 -0.77600
O 	O 	0.75550 0.08660 0.93350 -0.77900
O 	O 	0.86330 0.12940 0.99210 -0.85100
P 	P 	0.55166 0.66723 0.07081 0.83800
Al	Al	0.43172 0.66597 0.95436 2.39100
O 	O 	0.51430 0.66020 0.99970 -0.83200
O 	O 	0.62110 0.62950 0.06440 -0.77200
O 	O 	0.56650 0.74450 0.08660 -0.77800
O 	O 	0.50790 0.63670 0.12940 -0.84900
P 	P 	0.94834 0.66723 0.42919 0.84200
Al	Al	0.06828 0.66597 0.54564 2.39000
O 	O 	0.98570 0.66020 0.50030 -0.83400
O 	O 	0.87890 0.62950 0.43560 -0.77000
O 	O 	0.93350 0.74450 0.41340 -0.77400
O 	O 	0.99210 0.63670 0.37060 -0.85000
P 	P 	0.55166 0.83277 0.42919 0.84200
Al	Al	0.43172 0.83403 0.54564 2.39100
O 	O 	0.51430 0.83980 0.50030 -0.83700
O 	O 	0.62110 0.87050 0.43560 -0.77000
O 	O 	0.56650 0.75550 0.41340 -0.77500
O 	O 	0.50790 0.86330 0.37060 -0.85000
P 	P 	0.94834 0.83277 0.07081 0.82100
Al	Al	0.06828 0.83403 0.95436 2.38900
O 	O 	0.98570 0.83980 0.99970 -0.80600
O 	O 	0.87890 0.87050 0.06440 -0.77600
O 	O 	0.93350 0.75550 0.08660 -0.77900
O 	O 	0.99210 0.86330 0.12940 -0.85100
P 	P 	0.55166 0.07081 0.83277 0.83300
Al	Al	0.43172 0.95436 0.83403 2.39100
O 	O 	0.51430 0.99970 0.83980 -0.82700
O 	O 	0.62110 0.06440 0.87050 -0.77600
O 	O 	0.56650 0.08660 0.75550 -0.77700
O 	O 	0.50790 0.12940 0.86330 -0.85100
P 	P 	0.94834 0.42919 0.83277 0.84200
Al	Al	0.06828 0.54564 0.83403 2.39000
O 	O 	0.98570 0.50030 0.83980 -0.83100
O 	O 	0.87890 0.43560 0.87050 -0.76900
O 	O 	0.93350 0.41340 0.75550 -0.77500
O 	O 	0.99210 0.37060 0.86330 -0.84700
P 	P 	0.55166 0.42919 0.66723 0.84200
Al	Al	0.43172 0.54564 0.66597 2.39100
O 	O 	0.51430 0.50030 0.66020 -0.83700
O 	O 	0.62110 0.43560 0.62950 -0.77000
O 	O 	0.56650 0.41340 0.74450 -0.77500
O 	O 	0.50790 0.37060 0.63670 -0.84900
P 	P 	0.94834 0.07081 0.66723 0.82600
Al	Al	0.06828 0.95436 0.66597 2.38900
O 	O 	0.98570 0.99970 0.66020 -0.81500
O 	O 	0.87890 0.06440 0.62950 -0.77400
O 	O 	0.93350 0.08660 0.74450 -0.77900
O 	O 	0.99210 0.12940 0.63670 -0.85300
P 	P 	0.07081 0.66723 0.94834 0.82600
Al	Al	0.95436 0.66597 0.06828 2.38900
O 	O 	0.99970 0.66020 0.98570 -0.81500
O 	O 	0.06440 0.62950 0.87890 -0.77400
O 	O 	0.08660 0.74450 0.93350 -0.77900
O 	O 	0.12940 0.63670 0.99210 -0.85300
P 	P 	0.42919 0.66723 0.55166 0.84200
Al	Al	0.54564 0.66597 0.43172 2.39100
O 	O 	0.50030 0.66020 0.51430 -0.83700
O 	O 	0.43560 0.62950 0.62110 -0.77000
O 	O 	0.41340 0.74450 0.56650 -0.77500
O 	O 	0.37060 0.63670 0.50790 -0.84900
P 	P 	0.42919 0.83277 0.94834 0.84200
Al	Al	0.54564 0.83403 0.06828 2.39000
O 	O 	0.50030 0.83980 0.98570 -0.83100
O 	O 	0.43560 0.87050 0.87890 -0.76900
O 	O 	0.41340 0.75550 0.93350 -0.77500
O 	O 	0.37060 0.86330 0.99210 -0.84700
P 	P 	0.07081 0.83277 0.55166 0.83300
Al	Al	0.95436 0.83403 0.43172 2.39100
O 	O 	0.99970 0.83980 0.51430 -0.82700
O 	O 	0.06440 0.87050 0.62110 -0.77600
O 	O 	0.08660 0.75550 0.56650 -0.77700
O 	O 	0.12940 0.86330 0.50790 -0.85100
P 	P 	0.66723 0.55166 0.42919 0.84200
Al	Al	0.66597 0.43172 0.54564 2.39100
O 	O 	0.66020 0.51430 0.50030 -0.83700
O 	O 	0.62950 0.62110 0.43560 -0.77000
O 	O 	0.74450 0.56650 0.41340 -0.77500
O 	O 	0.63670 0.50790 0.37060 -0.84900
P 	P 	0.66723 0.94834 0.07081 0.82600
Al	Al	0.66597 0.06828 0.95436 2.38900
O 	O 	0.66020 0.98570 0.99970 -0.81500
O 	O 	0.62950 0.87890 0.06440 -0.77400
O 	O 	0.74450 0.93350 0.08660 -0.77900
O 	O 	0.63670 0.99210 0.12940 -0.85300
P 	P 	0.83277 0.55166 0.07081 0.83300
Al	Al	0.83403 0.43172 0.95436 2.39100
O 	O 	0.83980 0.51430 0.99970 -0.82700
O 	O 	0.87050 0.62110 0.06440 -0.77600
O 	O 	0.75550 0.56650 0.08660 -0.77700
O 	O 	0.86330 0.50790 0.12940 -0.85100
P 	P 	0.83277 0.94834 0.42919 0.84200
Al	Al	0.83403 0.06828 0.54564 2.39000
O 	O 	0.83980 0.98570 0.50030 -0.83100
O 	O 	0.87050 0.87890 0.43560 -0.76900
O 	O 	0.75550 0.93350 0.41340 -0.77500
O 	O 	0.86330 0.99210 0.37060 -0.84700
P 	P 	0.92919 0.44834 0.33277 0.83800
Al	Al	0.04564 0.56828 0.33403 2.39100
O 	O 	0.00030 0.48570 0.33980 -0.83200
O 	O 	0.93560 0.37890 0.37050 -0.77200
O 	O 	0.91340 0.43350 0.25550 -0.77800
O 	O 	0.87060 0.49210 0.36330 -0.84900
P 	P 	0.57081 0.05166 0.33277 0.84200
Al	Al	0.45436 0.93172 0.33403 2.39000
O 	O 	0.49970 0.01430 0.33980 -0.83400
O 	O 	0.56440 0.12110 0.37050 -0.77000
O 	O 	0.58660 0.06650 0.25550 -0.77400
O 	O 	0.62940 0.00790 0.36330 -0.85000
P 	P 	0.57081 0.44834 0.16723 0.84200
Al	Al	0.45436 0.56828 0.16597 2.39100
O 	O 	0.49970 0.48570 0.16020 -0.83700
O 	O 	0.56440 0.37890 0.12950 -0.77000
O 	O 	0.58660 0.43350 0.24450 -0.77500
O 	O 	0.62940 0.49210 0.13670 -0.85000
P 	P 	0.92919 0.05166 0.16723 0.82100
Al	Al	0.04564 0.93172 0.16597 2.38900
O 	O 	0.00030 0.01430 0.16020 -0.80600
O 	O 	0.93560 0.12110 0.12950 -0.77600
O 	O 	0.91340 0.06650 0.24450 -0.77900
O 	O 	0.87060 0.00790 0.13670 -0.85100
P 	P 	0.33277 0.92919 0.44834 0.83800
Al	Al	0.33403 0.04564 0.56828 2.39100
O 	O 	0.33980 0.00030 0.48570 -0.83200
O 	O 	0.37050 0.93560 0.37890 -0.77200
O 	O 	0.25550 0.91340 0.43350 -0.77800
O 	O 	0.36330 0.87060 0.49210 -0.84900
P 	P 	0.33277 0.57081 0.05166 0.84200
Al	Al	0.33403 0.45436 0.93172 2.39000
O 	O 	0.33980 0.49970 0.01430 -0.83400
O 	O 	0.37050 0.56440 0.12110 -0.77000
O 	O 	0.25550 0.58660 0.06650 -0.77400
O 	O 	0.36330 0.62940 0.00790 -0.85000
P 	P 	0.16723 0.57081 0.44834 0.84200
Al	Al	0.16597 0.45436 0.56828 2.39100
O 	O 	0.16020 0.49970 0.48570 -0.83700
O 	O 	0.12950 0.56440 0.37890 -0.77000
O 	O 	0.24450 0.58660 0.43350 -0.77500
O 	O 	0.13670 0.62940 0.49210 -0.85000
P 	P 	0.16723 0.92919 0.05166 0.82100
Al	Al	0.16597 0.04564 0.93172 2.38900
O 	O 	0.16020 0.00030 0.01430 -0.80600
O 	O 	0.12950 0.93560 0.12110 -0.77600
O 	O 	0.24450 0.91340 0.06650 -0.77900
O 	O 	0.13670 0.87060 0.00790 -0.85100
P 	P 	0.44834 0.33277 0.92919 0.83800
Al	Al	0.56828 0.33403 0.04564 2.39100
O 	O 	0.48570 0.33980 0.00030 -0.83200
O 	O 	0.37890 0.37050 0.93560 -0.77200
O 	O 	0.43350 0.25550 0.91340 -0.77800
O 	O 	0.49210 0.36330 0.87060 -0.84900
P 	P 	0.05166 0.33277 0.57081 0.84200
Al	Al	0.93172 0.33403 0.45436 2.39000
O 	O 	0.01430 0.33980 0.49970 -0.83400
O 	O 	0.12110 0.37050 0.56440 -0.77000
O 	O 	0.06650 0.25550 0.58660 -0.77400
O 	O 	0.00790 0.36330 0.62940 -0.85000
P 	P 	0.44834 0.16723 0.57081 0.84200
Al	Al	0.56828 0.16597 0.45436 2.39100
O 	O 	0.48570 0.16020 0.49970 -0.83700
O 	O 	0.37890 0.12950 0.56440 -0.77000
O 	O 	0.43350 0.24450 0.58660 -0.77500
O 	O 	0.49210 0.13670 0.62940 -0.85000
P 	P 	0.05166 0.16723 0.92919 0.82100
Al	Al	0.93172 0.16597 0.04564 2.38900
O 	O 	0.01430 0.16020 0.00030 -0.80600
O 	O 	0.12110 0.12950 0.93560 -0.77600
O 	O 	0.06650 0.24450 0.91340 -0.77900
O 	O 	0.00790 0.13670 0.87060 -0.85100
P 	P 	0.44834 0.92919 0.16723 0.83300
Al	Al	0.56828 0.04564 0.16597 2.39100
O 	O 	0.48570 0.00030 0.16020 -0.82700
O 	O 	0.37890 0.93560 0.12950 -0.77600
O 	O 	0.43350 0.91340 0.24450 -0.77700
O 	O 	0.49210 0.87060 0.13670 -0.85100
P 	P 	0.05166 0.57081 0.16723 0.84200
Al	Al	0.93172 0.45436 0.16597 2.39000
O 	O 	0.01430 0.49970 0.16020 -0.83100
O 	O 	0.12110 0.56440 0.12950 -0.76900
O 	O 	0.06650 0.58660 0.24450 -0.77500
O 	O 	0.00790 0.62940 0.13670 -0.84700
P 	P 	0.44834 0.57081 0.33277 0.84200
Al	Al	0.56828 0.45436 0.33403 2.39100
O 	O 	0.48570 0.49970 0.33980 -0.83700
O 	O 	0.37890 0.56440 0.37050 -0.77000
O 	O 	0.43350 0.58660 0.25550 -0.77500
O 	O 	0.49210 0.62940 0.36330 -0.84900
P 	P 	0.05166 0.92919 0.33277 0.82600
Al	Al	0.93172 0.04564 0.33403 2.38900
O 	O 	0.01430 0.00030 0.33980 -0.81500
O 	O 	0.12110 0.93560 0.37050 -0.77400
O 	O 	0.06650 0.91340 0.25550 -0.77900
O 	O 	0.00790 0.87060 0.36330 -0.85300
P 	P 	0.92919 0.33277 0.05166 0.82600
Al	Al	0.04564 0.33403 0.93172 2.38900
O 	O 	0.00030 0.33980 0.01430 -0.81500
O 	O 	0.93560 0.37050 0.12110 -0.77400
O 	O 	0.91340 0.25550 0.06650 -0.77900
O 	O 	0.87060 0.36330 0.00790 -0.85300
P 	P 	0.57081 0.33277 0.44834 0.84200
Al	Al	0.45436 0.33403 0.56828 2.39100
O 	O 	0.49970 0.33980 0.48570 -0.83700
O 	O 	0.56440 0.37050 0.37890 -0.77000
O 	O 	0.58660 0.25550 0.43350 -0.77500
O 	O 	0.62940 0.36330 0.49210 -0.84900
P 	P 	0.57081 0.16723 0.05166 0.84200
Al	Al	0.45436 0.16597 0.93172 2.39000
O 	O 	0.49970 0.16020 0.01430 -0.83100
O 	O 	0.56440 0.12950 0.12110 -0.76900
O 	O 	0.58660 0.24450 0.06650 -0.77500
O 	O 	0.62940 0.13670 0.00790 -0.84700
P 	P 	0.92919 0.16723 0.44834 0.83300
Al	Al	0.04564 0.16597 0.56828 2.39100
O 	O 	0.00030 0.16020 0.48570 -0.82700
O 	O 	0.93560 0.12950 0.37890 -0.77600
O 	O 	0.91340 0.24450 0.43350 -0.77700
O 	O 	0.87060 0.13670 0.49210 -0.85100
P 	P 	0.33277 0.44834 0.57081 0.84200
Al	Al	0.33403 0.56828 0.45436 2.39100
O 	O 	0.33980 0.48570 0.49970 -0.83700
O 	O 	0.37050 0.37890 0.56440 -0.77000
O 	O 	0.25550 0.43350 0.58660 -0.77500
O 	O 	0.36330 0.49210 0.62940 -0.84900
P 	P 	0.33277 0.05166 0.92919 0.82600
Al	Al	0.33403 0.93172 0.04564 2.38900
O 	O 	0.33980 0.01430 0.00030 -0.81500
O 	O 	0.37050 0.12110 0.93560 -0.77400
O 	O 	0.25550 0.06650 0.91340 -0.77900
O 	O 	0.36330 0.00790 0.87060 -0.85300
P 	P 	0.16723 0.44834 0.92919 0.83300
Al	Al	0.16597 0.56828 0.04564 2.39100
O 	O 	0.16020 0.48570 0.00030 -0.82700
O 	O 	0.12950 0.37890 0.93560 -0.77600
O 	O 	0.24450 0.43350 0.91340 -0.77700
O 	O 	0.13670 0.49210 0.87060 -0.85100
P 	P 	0.16723 0.05166 0.57081 0.84200
Al	Al	0.16597 0.93172 0.45436 2.39000
O 	O 	0.16020 0.01430 0.49970 -0.83100
O 	O 	0.12950 0.12110 0.56440 -0.76900
O 	O 	0.24450 0.06650 0.58660 -0.77500
O 	O 	0.13670 0.00790 0.62940 -0.84700
