data_crystal

_cell_length_a 7.35780
_cell_length_b 21.99690
_cell_length_c 20.34470
_cell_angle_alpha 90.00000
_cell_angle_beta  90.00000
_cell_angle_gamma 90.00000

_symmetry_space_group_name_	'P 1'
_symmetry_space_group_name_H-M	'P 1'

loop_
_symmetry_equiv_pos_as_xyz
  x,y,z

loop_
_atom_site_label
_atom_site_type_symbol
_atom_site_fract_x
_atom_site_fract_y
_atom_site_fract_z
_atom_site_charge
Cu	Cu	0.57112 0.58738 0.67419 0.83800
Cu	Cu	0.42888 0.91262 0.67419 0.83400
Cu	Cu	0.57112 0.41262 0.82581 0.83800
Cu	Cu	0.42888 0.08738 0.82581 0.84000
Cu	Cu	0.42888 0.41262 0.32581 0.83600
Cu	Cu	0.57112 0.08738 0.32581 0.84000
Cu	Cu	0.42888 0.58738 0.17419 0.83600
Cu	Cu	0.57112 0.91262 0.17419 0.83500
Cu	Cu	0.50000 0.50000 0.50000 0.88900
Cu	Cu	0.50000 -0.00000 0.50000 0.87000
Cu	Cu	0.50000 0.50000 -0.00000 0.87300
Cu	Cu	0.50000 0.00000 -0.00000 0.85300
Cu	Cu	0.00000 0.75000 0.18000 0.83100
Cu	Cu	0.00000 0.25000 0.32000 0.83200
Cu	Cu	0.00000 0.25000 0.82000 0.83300
Cu	Cu	0.00000 0.75000 0.68000 0.83200
H 	H 	0.20490 0.53180 0.69910 -0.03800
H 	H 	0.93180 0.51520 0.64810 0.11500
H 	H 	0.10820 0.61670 0.49830 0.08900
H 	H 	0.37290 0.63190 0.55440 -0.03300
H 	H 	0.47090 0.56900 0.37600 0.02500
H 	H 	0.46530 0.65150 0.29810 0.07000
H 	H 	0.61360 0.71180 0.22560 -0.04200
H 	H 	0.08060 0.66430 0.29480 -0.06600
H 	H 	0.94650 0.60520 0.37500 0.12000
H 	H 	0.79510 0.96820 0.69910 0.02000
H 	H 	0.06820 0.98480 0.64810 0.00600
H 	H 	0.89180 0.88330 0.49830 0.04700
H 	H 	0.62710 0.86810 0.55440 -0.00200
H 	H 	0.52910 0.93100 0.37600 0.03300
H 	H 	0.53470 0.84850 0.29810 0.06400
H 	H 	0.38640 0.78820 0.22560 -0.03800
H 	H 	0.91940 0.83570 0.29480 -0.00200
H 	H 	0.05350 0.89480 0.37500 0.09300
H 	H 	0.20490 0.46820 0.80090 -0.02900
H 	H 	0.93180 0.48480 0.85190 0.10100
H 	H 	0.10820 0.38330 0.00170 0.01900
H 	H 	0.37290 0.36810 0.94560 -0.00200
H 	H 	0.47090 0.43100 0.12400 0.02300
H 	H 	0.46530 0.34850 0.20190 0.06900
H 	H 	0.61360 0.28820 0.27440 -0.04100
H 	H 	0.08060 0.33570 0.20520 -0.06700
H 	H 	0.94650 0.39480 0.12500 0.11900
H 	H 	0.79510 0.03180 0.80090 0.00900
H 	H 	0.06820 0.01520 0.85190 -0.02600
H 	H 	0.89180 0.11670 0.00170 -0.02900
H 	H 	0.62710 0.13190 0.94560 0.03000
H 	H 	0.52910 0.06900 0.12400 0.00900
H 	H 	0.53470 0.15150 0.20190 0.06000
H 	H 	0.38640 0.21180 0.27440 -0.03500
H 	H 	0.91940 0.16430 0.20520 -0.00300
H 	H 	0.05350 0.10520 0.12500 0.07800
H 	H 	0.79510 0.46820 0.30090 0.01200
H 	H 	0.06820 0.48480 0.35190 -0.00500
H 	H 	0.89180 0.38330 0.50170 0.04300
H 	H 	0.62710 0.36810 0.44560 -0.00100
H 	H 	0.52910 0.43100 0.62400 0.02100
H 	H 	0.53470 0.34850 0.70190 0.06200
H 	H 	0.38640 0.28820 0.77440 -0.03500
H 	H 	0.91940 0.33570 0.70520 -0.00100
H 	H 	0.05350 0.39480 0.62500 0.08600
H 	H 	0.20490 0.03180 0.30090 -0.04600
H 	H 	0.93180 0.01520 0.35190 0.10300
H 	H 	0.10820 0.11670 0.50170 0.08600
H 	H 	0.37290 0.13190 0.44560 -0.03200
H 	H 	0.47090 0.06900 0.62400 0.01500
H 	H 	0.46530 0.15150 0.70190 0.06800
H 	H 	0.61360 0.21180 0.77440 -0.04000
H 	H 	0.08060 0.16430 0.70520 -0.06600
H 	H 	0.94650 0.10520 0.62500 0.11200
H 	H 	0.79510 0.53180 0.19910 0.00400
H 	H 	0.06820 0.51520 0.14810 0.00900
H 	H 	0.89180 0.61670 0.99830 0.11300
H 	H 	0.62710 0.63190 0.05440 -0.03200
H 	H 	0.52910 0.56900 0.87600 0.02500
H 	H 	0.53470 0.65150 0.79810 0.06400
H 	H 	0.38640 0.71180 0.72560 -0.03600
H 	H 	0.91940 0.66430 0.79480 -0.00100
H 	H 	0.05350 0.60520 0.87500 0.08700
H 	H 	0.20490 0.96820 0.19910 -0.03400
H 	H 	0.93180 0.98480 0.14810 0.13600
H 	H 	0.10820 0.88330 0.99830 0.15900
H 	H 	0.37290 0.86810 0.05440 -0.06300
H 	H 	0.47090 0.93100 0.87600 0.04000
H 	H 	0.46530 0.84850 0.79810 0.07200
H 	H 	0.61360 0.78820 0.72560 -0.04200
H 	H 	0.08060 0.83570 0.79480 -0.06400
H 	H 	0.94650 0.89480 0.87500 0.12800
C 	C 	0.59610 0.52022 0.73185 -0.20100
C 	C 	0.18490 0.54919 0.65806 0.11600
C 	C 	0.02050 0.53850 0.62755 -0.25100
C 	C 	0.98950 0.56282 0.56633 0.11700
C 	C 	0.12490 0.59875 0.53920 -0.20300
C 	C 	0.28360 0.60759 0.57320 0.06300
C 	C 	0.81550 0.55033 0.53092 0.13200
C 	C 	0.58460 0.58116 0.39107 -0.04900
C 	C 	0.68710 0.62169 0.34608 0.13300
C 	C 	0.59140 0.65401 0.29954 -0.22000
C 	C 	0.68160 0.68959 0.25566 0.09600
C 	C 	0.95440 0.66240 0.29660 0.15600
C 	C 	0.87540 0.62600 0.34470 -0.21600
C 	C 	0.18710 0.69635 0.15290 -0.20000
C 	C 	0.40390 0.97978 0.73185 -0.12500
C 	C 	0.81510 0.95081 0.65806 -0.00400
C 	C 	0.97950 0.96150 0.62755 0.01500
C 	C 	0.01050 0.93718 0.56633 -0.08500
C 	C 	0.87510 0.90125 0.53920 -0.02900
C 	C 	0.71640 0.89241 0.57320 -0.01800
C 	C 	0.18450 0.94967 0.53092 0.19300
C 	C 	0.41540 0.91884 0.39107 -0.03400
C 	C 	0.31290 0.87831 0.34608 0.10800
C 	C 	0.40860 0.84599 0.29954 -0.19900
C 	C 	0.31840 0.81041 0.25566 0.08100
C 	C 	0.04560 0.83760 0.29660 0.05000
C 	C 	0.12460 0.87400 0.34470 -0.15800
C 	C 	0.81290 0.80365 0.15290 -0.18000
C 	C 	0.59610 0.47978 0.76815 -0.20000
C 	C 	0.18490 0.45081 0.84194 0.09300
C 	C 	0.02050 0.46150 0.87245 -0.20900
C 	C 	0.98950 0.43718 0.93367 0.05900
C 	C 	0.12490 0.40125 0.96080 -0.07500
C 	C 	0.28360 0.39241 0.92680 0.00300
C 	C 	0.81550 0.44967 0.96908 0.19000
C 	C 	0.58460 0.41884 0.10893 -0.05100
C 	C 	0.68710 0.37831 0.15392 0.13100
C 	C 	0.59140 0.34599 0.20046 -0.22000
C 	C 	0.68160 0.31041 0.24434 0.09500
C 	C 	0.95440 0.33760 0.20340 0.15400
C 	C 	0.87540 0.37400 0.15530 -0.21600
C 	C 	0.18710 0.30365 0.34710 -0.19500
C 	C 	0.40390 0.02022 0.76815 -0.27900
C 	C 	0.81510 0.04919 0.84194 -0.03900
C 	C 	0.97950 0.03850 0.87245 0.05100
C 	C 	0.01050 0.06282 0.93367 -0.15800
C 	C 	0.87510 0.09875 0.96080 0.09600
C 	C 	0.71640 0.10759 0.92680 -0.08800
C 	C 	0.18450 0.05033 0.96908 0.24600
C 	C 	0.41540 0.08116 0.10893 -0.04100
C 	C 	0.31290 0.12169 0.15392 0.09400
C 	C 	0.40860 0.15401 0.20046 -0.19400
C 	C 	0.31840 0.18959 0.24434 0.07700
C 	C 	0.04560 0.16240 0.20340 0.04300
C 	C 	0.12460 0.12600 0.15530 -0.15600
C 	C 	0.81290 0.19635 0.34710 -0.17500
C 	C 	0.40390 0.47978 0.26815 -0.20200
C 	C 	0.81510 0.45081 0.34194 -0.01300
C 	C 	0.97950 0.46150 0.37245 0.01700
C 	C 	0.01050 0.43718 0.43367 -0.09700
C 	C 	0.87510 0.40125 0.46080 -0.02800
C 	C 	0.71640 0.39241 0.42680 -0.02600
C 	C 	0.18450 0.44967 0.46908 0.19100
C 	C 	0.41540 0.41884 0.60893 -0.03600
C 	C 	0.31290 0.37831 0.65392 0.10100
C 	C 	0.40860 0.34599 0.70046 -0.19600
C 	C 	0.31840 0.31041 0.74434 0.07900
C 	C 	0.04560 0.33760 0.70340 0.04600
C 	C 	0.12460 0.37400 0.65530 -0.15600
C 	C 	0.81290 0.30365 0.84710 -0.17000
C 	C 	0.59610 0.02022 0.26815 -0.28000
C 	C 	0.18490 0.04919 0.34194 0.10900
C 	C 	0.02050 0.03850 0.37245 -0.24900
C 	C 	0.98950 0.06282 0.43367 0.10700
C 	C 	0.12490 0.09875 0.46080 -0.20200
C 	C 	0.28360 0.10759 0.42680 0.05700
C 	C 	0.81550 0.05033 0.46908 0.13000
C 	C 	0.58460 0.08116 0.60893 -0.05200
C 	C 	0.68710 0.12169 0.65392 0.12700
C 	C 	0.59140 0.15401 0.70046 -0.21700
C 	C 	0.68160 0.18959 0.74434 0.09400
C 	C 	0.95440 0.16240 0.70340 0.15200
C 	C 	0.87540 0.12600 0.65530 -0.21400
C 	C 	0.18710 0.19635 0.84710 -0.19000
C 	C 	0.40390 0.52022 0.23185 -0.20300
C 	C 	0.81510 0.54919 0.15806 0.01100
C 	C 	0.97950 0.53850 0.12755 -0.02400
C 	C 	0.01050 0.56282 0.06633 -0.03900
C 	C 	0.87510 0.59875 0.03920 -0.15400
C 	C 	0.71640 0.60759 0.07320 0.03500
C 	C 	0.18450 0.55033 0.03092 0.13400
C 	C 	0.41540 0.58116 0.89107 -0.03500
C 	C 	0.31290 0.62169 0.84608 0.10400
C 	C 	0.40860 0.65401 0.79954 -0.19600
C 	C 	0.31840 0.68959 0.75566 0.08000
C 	C 	0.04560 0.66240 0.79660 0.04700
C 	C 	0.12460 0.62600 0.84470 -0.15600
C 	C 	0.81290 0.69635 0.65290 -0.17500
C 	C 	0.59610 0.97978 0.23185 -0.12100
C 	C 	0.18490 0.95081 0.15806 0.14300
C 	C 	0.02050 0.96150 0.12755 -0.28200
C 	C 	0.98950 0.93718 0.06633 0.17700
C 	C 	0.12490 0.90125 0.03920 -0.32100
C 	C 	0.28360 0.89241 0.07320 0.12600
C 	C 	0.81550 0.94967 0.03092 0.08000
C 	C 	0.58460 0.91884 0.89107 -0.04700
C 	C 	0.68710 0.87831 0.84608 0.14100
C 	C 	0.59140 0.84599 0.79954 -0.22200
C 	C 	0.68160 0.81041 0.75566 0.09900
C 	C 	0.95440 0.83760 0.79660 0.15800
C 	C 	0.87540 0.87400 0.84470 -0.21600
C 	C 	0.18710 0.80365 0.65290 -0.19500
N 	N 	0.31630 0.58300 0.63211 -0.26100
N 	N 	0.79440 0.57789 0.47465 -0.12200
N 	N 	0.62950 0.56065 0.44704 -0.17400
N 	N 	0.86130 0.69432 0.25340 -0.24300
N 	N 	0.28850 0.65671 0.15319 -0.21400
N 	N 	0.68370 0.91700 0.63211 -0.21900
N 	N 	0.20560 0.92211 0.47465 -0.13300
N 	N 	0.37050 0.93935 0.44704 -0.16600
N 	N 	0.13870 0.80568 0.25340 -0.23000
N 	N 	0.71150 0.84329 0.15319 -0.21500
N 	N 	0.31630 0.41700 0.86789 -0.24500
N 	N 	0.79440 0.42211 0.02535 -0.14900
N 	N 	0.62950 0.43935 0.05296 -0.18000
N 	N 	0.86130 0.30568 0.24660 -0.24200
N 	N 	0.28850 0.34329 0.34681 -0.21400
N 	N 	0.68370 0.08300 0.86789 -0.20400
N 	N 	0.20560 0.07789 0.02535 -0.16800
N 	N 	0.37050 0.06065 0.05296 -0.19100
N 	N 	0.13870 0.19432 0.24660 -0.22900
N 	N 	0.71150 0.15671 0.34681 -0.21400
N 	N 	0.68370 0.41700 0.36789 -0.21900
N 	N 	0.20560 0.42211 0.52535 -0.13800
N 	N 	0.37050 0.43935 0.55296 -0.17800
N 	N 	0.13870 0.30568 0.74660 -0.22900
N 	N 	0.71150 0.34329 0.84681 -0.21400
N 	N 	0.31630 0.08300 0.36789 -0.26100
N 	N 	0.79440 0.07789 0.52535 -0.12500
N 	N 	0.62950 0.06065 0.55296 -0.18100
N 	N 	0.86130 0.19432 0.74660 -0.24100
N 	N 	0.28850 0.15671 0.84681 -0.21300
N 	N 	0.68370 0.58300 0.13211 -0.23600
N 	N 	0.20560 0.57789 0.97465 -0.11000
N 	N 	0.37050 0.56065 0.94704 -0.16700
N 	N 	0.13870 0.69432 0.75340 -0.22900
N 	N 	0.71150 0.65671 0.65319 -0.21500
N 	N 	0.31630 0.91700 0.13211 -0.27500
N 	N 	0.79440 0.92211 0.97465 -0.09100
N 	N 	0.62950 0.93935 0.94704 -0.15200
N 	N 	0.86130 0.80568 0.75340 -0.24300
N 	N 	0.28850 0.84329 0.65319 -0.21400
O 	O 	0.70420 0.51255 0.55688 -0.39600
O 	O 	0.29580 0.98745 0.55688 -0.39100
O 	O 	0.70420 0.48745 0.94312 -0.39500
O 	O 	0.29580 0.01255 0.94312 -0.42900
O 	O 	0.29580 0.48745 0.44312 -0.41400
O 	O 	0.70420 0.01255 0.44312 -0.41200
O 	O 	0.29580 0.51255 0.05688 -0.40900
O 	O 	0.70420 0.98745 0.05688 -0.36800
