data_crystal

_cell_length_a 8.68000
_cell_length_b 11.08630
_cell_length_c 25.09030
_cell_angle_alpha 90.00000
_cell_angle_beta  90.00000
_cell_angle_gamma 101.55000

_symmetry_space_group_name_	'P 1'
_symmetry_space_group_name_H-M	'P 1'

loop_
_symmetry_equiv_pos_as_xyz
  x,y,z

loop_
_atom_site_label
_atom_site_type_symbol
_atom_site_fract_x
_atom_site_fract_y
_atom_site_fract_z
_atom_site_charge
Yb	Yb	0.80809 0.85878 0.59485 1.32200
Yb	Yb	0.19191 0.14122 0.09485 1.32100
Yb	Yb	0.19191 0.14122 0.40515 1.32200
Yb	Yb	0.80809 0.85878 0.90515 1.32100
H 	H 	0.06920 0.51430 0.62390 -0.00000
H 	H 	0.19420 0.38180 0.57800 -0.00100
H 	H 	0.53810 0.01910 0.70420 -0.00900
H 	H 	0.93080 0.48570 0.12390 -0.00000
H 	H 	0.80580 0.61820 0.07800 -0.00100
H 	H 	0.46190 0.98090 0.20420 -0.00900
H 	H 	0.93080 0.48570 0.37610 -0.00000
H 	H 	0.80580 0.61820 0.42200 -0.00100
H 	H 	0.46190 0.98090 0.29580 -0.00900
H 	H 	0.06920 0.51430 0.87610 -0.00000
H 	H 	0.19420 0.38180 0.92200 -0.00100
H 	H 	0.53810 0.01910 0.79580 -0.00900
Ru	Ru	0.38786 0.16443 0.61099 0.92500
Ru	Ru	0.61214 0.83557 0.11099 0.92500
Ru	Ru	0.61214 0.83557 0.38901 0.92500
Ru	Ru	0.38786 0.16443 0.88901 0.92500
Ru	Ru	0.01155 0.57290 0.75000 0.93000
Ru	Ru	0.98845 0.42710 0.25000 0.93000
C 	C 	0.26390 0.30430 0.69390 0.00800
C 	C 	0.18950 0.38490 0.72160 0.01100
C 	C 	0.11890 0.46140 0.64320 0.00800
C 	C 	0.19420 0.37960 0.61500 -0.01000
C 	C 	0.48630 0.07260 0.72210 0.01000
C 	C 	0.34320 0.22240 0.72230 0.01800
C 	C 	0.19230 0.03260 0.61320 -0.17600
C 	C 	0.51330 0.03860 0.59640 -0.17200
C 	C 	0.65780 0.81390 0.46580 -0.17700
C 	C 	0.58950 0.29060 0.60020 -0.15900
C 	C 	0.92620 0.66690 0.69330 -0.15700
C 	C 	0.73610 0.69570 0.19390 0.00800
C 	C 	0.81050 0.61510 0.22160 0.01100
C 	C 	0.88110 0.53860 0.14320 0.00800
C 	C 	0.80580 0.62040 0.11500 -0.01000
C 	C 	0.51370 0.92740 0.22210 0.01000
C 	C 	0.65680 0.77760 0.22230 0.01800
C 	C 	0.80770 0.96740 0.11320 -0.17500
C 	C 	0.48670 0.96140 0.09640 -0.17200
C 	C 	0.34220 0.18610 0.96580 -0.17700
C 	C 	0.41050 0.70940 0.10020 -0.15900
C 	C 	0.07380 0.33310 0.19330 -0.15700
C 	C 	0.73610 0.69570 0.30610 0.00800
C 	C 	0.81050 0.61510 0.27840 0.01100
C 	C 	0.88110 0.53860 0.35680 0.00800
C 	C 	0.80580 0.62040 0.38500 -0.01000
C 	C 	0.51370 0.92740 0.27790 0.01000
C 	C 	0.65680 0.77760 0.27770 0.01800
C 	C 	0.80770 0.96740 0.38680 -0.17600
C 	C 	0.48670 0.96140 0.40360 -0.17200
C 	C 	0.34220 0.18610 0.53420 -0.17700
C 	C 	0.41050 0.70940 0.39980 -0.15900
C 	C 	0.07380 0.33310 0.30670 -0.15700
C 	C 	0.26390 0.30430 0.80610 0.00800
C 	C 	0.18950 0.38490 0.77840 0.01100
C 	C 	0.11890 0.46140 0.85680 0.00800
C 	C 	0.19420 0.37960 0.88500 -0.01000
C 	C 	0.48630 0.07260 0.77790 0.01000
C 	C 	0.34320 0.22240 0.77770 0.01800
C 	C 	0.19230 0.03260 0.88680 -0.17500
C 	C 	0.51330 0.03860 0.90360 -0.17200
C 	C 	0.65780 0.81390 0.03420 -0.17700
C 	C 	0.58950 0.29060 0.89980 -0.15900
C 	C 	0.92620 0.66690 0.80670 -0.15700
C 	C 	0.82010 0.43810 0.75000 -0.15900
C 	C 	0.20160 0.70820 0.75000 -0.17100
C 	C 	0.17990 0.56190 0.25000 -0.15900
C 	C 	0.79840 0.29180 0.25000 -0.17100
N 	N 	0.26540 0.29900 0.63960 -0.20000
N 	N 	0.11580 0.46600 0.69550 -0.19700
N 	N 	0.41420 0.14720 0.69390 -0.19900
N 	N 	0.07950 0.95390 0.61200 -0.23800
N 	N 	0.59240 0.96570 0.59130 -0.23700
N 	N 	0.68640 0.80380 0.51000 -0.24100
N 	N 	0.70570 0.35740 0.59010 -0.10100
N 	N 	0.88180 0.71990 0.65920 -0.24100
N 	N 	0.73460 0.70100 0.13960 -0.20000
N 	N 	0.88420 0.53400 0.19550 -0.19700
N 	N 	0.58580 0.85280 0.19390 -0.19900
N 	N 	0.92050 0.04610 0.11200 -0.23800
N 	N 	0.40760 0.03430 0.09130 -0.23700
N 	N 	0.31360 0.19620 0.01000 -0.24200
N 	N 	0.29430 0.64260 0.09010 -0.10100
N 	N 	0.11820 0.28010 0.15920 -0.24100
N 	N 	0.73460 0.70100 0.36040 -0.20000
N 	N 	0.88420 0.53400 0.30450 -0.19700
N 	N 	0.58580 0.85280 0.30610 -0.19900
N 	N 	0.92050 0.04610 0.38800 -0.23800
N 	N 	0.40760 0.03430 0.40870 -0.23700
N 	N 	0.31360 0.19620 0.49000 -0.24100
N 	N 	0.29430 0.64260 0.40990 -0.10100
N 	N 	0.11820 0.28010 0.34080 -0.24100
N 	N 	0.26540 0.29900 0.86040 -0.20000
N 	N 	0.11580 0.46600 0.80450 -0.19700
N 	N 	0.41420 0.14720 0.80610 -0.19900
N 	N 	0.07950 0.95390 0.88800 -0.23800
N 	N 	0.59240 0.96570 0.90870 -0.23700
N 	N 	0.68640 0.80380 0.99000 -0.24200
N 	N 	0.70570 0.35740 0.90990 -0.10100
N 	N 	0.88180 0.71990 0.84080 -0.24100
N 	N 	0.71290 0.35790 0.75000 -0.07700
N 	N 	0.31000 0.79150 0.75000 -0.09600
N 	N 	0.28710 0.64210 0.25000 -0.07700
N 	N 	0.69000 0.20850 0.25000 -0.09600
