data_crystal

_cell_length_a 12.39000
_cell_length_b 13.79500
_cell_length_c 13.83000
_cell_angle_alpha 115.76900
_cell_angle_beta  93.91400
_cell_angle_gamma 106.91800

_symmetry_space_group_name_	'P 1'
_symmetry_space_group_name_H-M	'P 1'

loop_
_symmetry_equiv_pos_as_xyz
  x,y,z

loop_
_atom_site_label
_atom_site_type_symbol
_atom_site_fract_x
_atom_site_fract_y
_atom_site_fract_z
_atom_site_charge
Eu	Eu	0.67393 0.52536 0.53212 1.76900
Eu	Eu	0.32607 0.47464 0.46788 1.76900
H 	H 	0.56920 0.17300 0.50550 0.05500
H 	H 	0.19640 0.92120 0.36200 0.03000
H 	H 	0.24390 0.09480 0.35980 0.05900
H 	H 	0.69150 0.59460 0.32800 0.03800
H 	H 	0.78180 0.64730 0.20660 0.03300
H 	H 	0.38910 0.44090 0.10150 0.06800
H 	H 	0.03300 0.90010 0.75960 0.06700
H 	H 	0.13350 0.07970 0.78500 0.02300
H 	H 	0.89350 0.81570 0.45070 0.07700
H 	H 	0.43080 0.82700 0.49450 0.05500
H 	H 	0.80360 0.07880 0.63800 0.03000
H 	H 	0.75610 0.90520 0.64020 0.05900
H 	H 	0.30850 0.40540 0.67200 0.03800
H 	H 	0.21820 0.35270 0.79340 0.03300
H 	H 	0.61090 0.55910 0.89850 0.06800
H 	H 	0.96700 0.09990 0.24040 0.06700
H 	H 	0.86650 0.92030 0.21500 0.02300
H 	H 	0.10650 0.18430 0.54930 0.07700
C 	C 	0.44590 0.27060 0.43910 0.42900
C 	C 	0.41150 0.15370 0.43470 -0.08200
C 	C 	0.49240 0.12330 0.47690 -0.04100
C 	C 	0.45800 0.01750 0.47620 0.05200
C 	C 	0.27250 0.97250 0.39200 0.03000
C 	C 	0.30000 0.07740 0.39030 -0.03700
C 	C 	0.46640 0.48300 0.30630 0.40000
C 	C 	0.52980 0.51340 0.22850 -0.08400
C 	C 	0.64880 0.57480 0.25990 -0.03400
C 	C 	0.70260 0.60590 0.18580 0.02000
C 	C 	0.52960 0.51480 0.05570 0.05400
C 	C 	0.46830 0.48220 0.12430 -0.04800
C 	C 	0.87200 0.72130 0.58220 0.30200
C 	C 	0.94920 0.83720 0.60180 -0.02400
C 	C 	0.02400 0.91820 0.70280 -0.08200
C 	C 	0.08440 0.02560 0.71670 0.04900
C 	C 	0.00510 0.98050 0.54250 0.06100
C 	C 	0.94110 0.86870 0.52010 -0.07800
C 	C 	0.55410 0.72940 0.56090 0.42900
C 	C 	0.58850 0.84630 0.56530 -0.08200
C 	C 	0.50760 0.87670 0.52310 -0.04100
C 	C 	0.54200 0.98250 0.52380 0.05200
C 	C 	0.72750 0.02750 0.60800 0.03000
C 	C 	0.70000 0.92260 0.60970 -0.03700
C 	C 	0.53360 0.51700 0.69370 0.40000
C 	C 	0.47020 0.48660 0.77150 -0.08400
C 	C 	0.35120 0.42520 0.74010 -0.03400
C 	C 	0.29740 0.39410 0.81420 0.02000
C 	C 	0.47040 0.48520 0.94430 0.05400
C 	C 	0.53170 0.51780 0.87570 -0.04800
C 	C 	0.12800 0.27870 0.41780 0.30200
C 	C 	0.05080 0.16280 0.39820 -0.02400
C 	C 	0.97600 0.08180 0.29720 -0.08200
C 	C 	0.91560 0.97440 0.28330 0.04900
C 	C 	0.99490 0.01950 0.45750 0.06100
C 	C 	0.05890 0.13130 0.47990 -0.07800
N 	N 	0.34750 0.94170 0.43330 -0.12000
N 	N 	0.64410 0.57820 0.08610 -0.11600
N 	N 	0.07780 0.05820 0.63940 -0.12400
N 	N 	0.65250 0.05830 0.56670 -0.12000
N 	N 	0.35590 0.42180 0.91390 -0.11600
N 	N 	0.92220 0.94180 0.36060 -0.12400
O 	O 	0.55250 0.33160 0.47610 -0.49700
O 	O 	0.36740 0.29770 0.40940 -0.44800
O 	O 	0.52630 0.49490 0.39110 -0.54000
O 	O 	0.35950 0.45060 0.28630 -0.44100
O 	O 	0.85930 0.70010 0.66020 -0.38200
O 	O 	0.81760 0.64850 0.48460 -0.43800
O 	O 	0.44750 0.66840 0.52390 -0.49700
O 	O 	0.63260 0.70230 0.59060 -0.44800
O 	O 	0.47370 0.50510 0.60890 -0.54000
O 	O 	0.64050 0.54940 0.71370 -0.44100
O 	O 	0.14070 0.29990 0.33980 -0.38200
O 	O 	0.18240 0.35150 0.51540 -0.43800
