data_crystal

_cell_length_a 13.65200
_cell_length_b 13.65200
_cell_length_c 40.64800
_cell_angle_alpha 90.00000
_cell_angle_beta  90.00000
_cell_angle_gamma 120.00000

_symmetry_space_group_name_	'P 1'
_symmetry_space_group_name_H-M	'P 1'

loop_
_symmetry_equiv_pos_as_xyz
  x,y,z

loop_
_atom_site_label
_atom_site_type_symbol
_atom_site_fract_x
_atom_site_fract_y
_atom_site_fract_z
_atom_site_charge
N 	N 	0.69910 0.25840 0.42900 -0.25400
C 	C 	0.78230 0.24860 0.41540 0.10000
H 	H 	0.84130 0.31090 0.40500 -0.02800
C 	C 	0.78260 0.14780 0.41620 -0.17400
H 	H 	0.84230 0.14390 0.40650 0.09400
C 	C 	0.69710 0.05310 0.43100 0.10700
C 	C 	0.60910 0.06440 0.44460 -0.18500
H 	H 	0.54700 0.00370 0.45450 0.09000
C 	C 	0.61860 0.16980 0.44250 0.12200
H 	H 	0.56050 0.17730 0.45190 -0.03500
C 	C 	0.69600 0.94610 0.43170 -0.02400
N 	N 	0.70870 0.55880 0.42910 -0.25200
C 	C 	0.77170 0.64080 0.45130 0.09700
H 	H 	0.81860 0.62880 0.46530 -0.02500
C 	C 	0.77030 0.73910 0.45430 -0.17900
H 	H 	0.81410 0.79270 0.47000 0.09700
C 	C 	0.70010 0.75680 0.43260 0.12000
C 	C 	0.64020 0.67720 0.40890 -0.18800
H 	H 	0.59860 0.69000 0.39310 0.09600
C 	C 	0.64340 0.57790 0.40920 0.10700
H 	H 	0.59690 0.52100 0.39460 -0.03000
C 	C 	0.69570 0.85890 0.43250 -0.04200
N 	N 	0.58710 0.30560 0.71320 -0.26200
C 	C 	0.51980 0.33020 0.69700 0.12500
H 	H 	0.46520 0.33730 0.70870 -0.04300
C 	C 	0.52540 0.34670 0.66300 -0.21500
H 	H 	0.47780 0.36730 0.65250 0.09800
C 	C 	0.60090 0.33210 0.64580 0.14700
C 	C 	0.67070 0.30630 0.66250 -0.21400
H 	H 	0.72460 0.29690 0.65120 0.10500
C 	C 	0.66280 0.29370 0.69620 0.12500
H 	H 	0.71190 0.27630 0.70720 -0.04100
C 	C 	0.62550 0.36360 0.58140 -0.03900
N 	N 	0.68030 0.39660 0.47900 -0.25000
C 	C 	0.59950 0.41180 0.49280 0.09700
H 	H 	0.55380 0.42700 0.47920 -0.02600
C 	C 	0.58150 0.40580 0.52650 -0.17800
H 	H 	0.52740 0.42060 0.53540 0.08900
C 	C 	0.64420 0.37770 0.54670 0.11900
C 	C 	0.72680 0.36370 0.53200 -0.19400
H 	H 	0.77210 0.34590 0.54490 0.09500
C 	C 	0.74330 0.37520 0.49930 0.11600
H 	H 	0.80200 0.36770 0.49040 -0.03400
C 	C 	0.61150 0.34840 0.61090 -0.06100
Cu	Cu	0.70942 0.41237 0.42940 0.85100
N 	N 	0.74160 0.44070 0.76233 -0.25800
C 	C 	0.75140 0.53370 0.74873 0.10600
H 	H 	0.68910 0.53040 0.73833 -0.03200
C 	C 	0.85220 0.63480 0.74953 -0.18800
H 	H 	0.85610 0.69840 0.73983 0.09700
C 	C 	0.94690 0.64400 0.76433 0.12800
C 	C 	0.93560 0.54470 0.77793 -0.19800
H 	H 	0.99630 0.54330 0.78783 0.09800
C 	C 	0.83020 0.44880 0.77583 0.12900
H 	H 	0.82270 0.38320 0.78523 -0.03700
C 	C 	0.05390 0.74990 0.76503 -0.04800
N 	N 	0.44120 0.14990 0.76243 -0.25200
C 	C 	0.35920 0.13090 0.78463 0.09600
H 	H 	0.37120 0.18980 0.79863 -0.02700
C 	C 	0.26090 0.03120 0.78763 -0.18400
H 	H 	0.20730 0.02140 0.80333 0.09300
C 	C 	0.24320 0.94330 0.76593 0.11700
C 	C 	0.32280 0.96300 0.74223 -0.17400
H 	H 	0.31000 0.90860 0.72643 0.09200
C 	C 	0.42210 0.06550 0.74253 0.09300
H 	H 	0.47900 0.07590 0.72793 -0.02700
C 	C 	0.14110 0.83680 0.76583 -0.03400
N 	N 	0.69440 0.28150 0.04653 -0.26000
C 	C 	0.66980 0.18960 0.03033 0.12100
H 	H 	0.66270 0.12790 0.04203 -0.04200
C 	C 	0.65330 0.17870 0.99633 -0.20900
H 	H 	0.63270 0.11050 0.98583 0.09500
C 	C 	0.66790 0.26880 0.97913 0.14300
C 	C 	0.69370 0.36440 0.99583 -0.20700
H 	H 	0.70310 0.42770 0.98453 0.10300
C 	C 	0.70630 0.36910 0.02953 0.12000
H 	H 	0.72370 0.43560 0.04053 -0.04000
C 	C 	0.63640 0.26190 0.91473 -0.04000
N 	N 	0.60340 0.28370 0.81233 -0.25000
C 	C 	0.58820 0.18770 0.82613 0.09700
H 	H 	0.57300 0.12680 0.81253 -0.02600
C 	C 	0.59420 0.17570 0.85983 -0.17900
H 	H 	0.57940 0.10680 0.86873 0.08900
C 	C 	0.62230 0.26650 0.88003 0.12000
C 	C 	0.63630 0.36310 0.86533 -0.19400
H 	H 	0.65410 0.42620 0.87823 0.09400
C 	C 	0.62480 0.36810 0.83263 0.11600
H 	H 	0.63230 0.43430 0.82373 -0.03500
C 	C 	0.65160 0.26310 0.94423 -0.05800
Cu	Cu	0.58763 0.29705 0.76273 0.85100
N 	N 	0.55930 0.30090 0.09567 -0.25700
C 	C 	0.46630 0.21770 0.08207 0.10200
H 	H 	0.46960 0.15870 0.07167 -0.03200
C 	C 	0.36520 0.21740 0.08287 -0.18300
H 	H 	0.30160 0.15770 0.07317 0.09300
C 	C 	0.35600 0.30290 0.09767 0.11800
C 	C 	0.45530 0.39090 0.11127 -0.19300
H 	H 	0.45670 0.45300 0.12117 0.09400
C 	C 	0.55120 0.38140 0.10917 0.12500
H 	H 	0.61680 0.43950 0.11857 -0.03600
C 	C 	0.25010 0.30400 0.09837 -0.04100
N 	N 	0.85010 0.29130 0.09577 -0.25300
C 	C 	0.86910 0.22830 0.11797 0.09200
H 	H 	0.81020 0.18140 0.13197 -0.02500
C 	C 	0.96880 0.22970 0.12097 -0.16800
H 	H 	0.97860 0.18590 0.13667 0.09200
C 	C 	0.05670 0.29990 0.09927 0.10900
C 	C 	0.03700 0.35980 0.07557 -0.19100
H 	H 	0.09140 0.40140 0.05977 0.09600
C 	C 	0.93450 0.35660 0.07587 0.11200
H 	H 	0.92410 0.40310 0.06127 -0.03000
C 	C 	0.16320 0.30430 0.09917 -0.03700
N 	N 	0.71850 0.41290 0.37987 -0.26100
C 	C 	0.81040 0.48020 0.36367 0.12600
H 	H 	0.87210 0.53480 0.37537 -0.04100
C 	C 	0.82130 0.47460 0.32967 -0.21500
H 	H 	0.88950 0.52220 0.31917 0.09900
C 	C 	0.73120 0.39910 0.31247 0.14700
C 	C 	0.63560 0.32930 0.32917 -0.21300
H 	H 	0.57230 0.27540 0.31787 0.10400
C 	C 	0.63090 0.33720 0.36287 0.12500
H 	H 	0.56440 0.28810 0.37387 -0.04200
C 	C 	0.73810 0.37450 0.24807 -0.03900
N 	N 	0.71630 0.31970 0.14567 -0.25000
C 	C 	0.81230 0.40050 0.15947 0.09800
H 	H 	0.87320 0.44620 0.14587 -0.02400
C 	C 	0.82430 0.41850 0.19317 -0.17800
H 	H 	0.89320 0.47260 0.20207 0.09100
C 	C 	0.73350 0.35580 0.21337 0.11900
C 	C 	0.63690 0.27320 0.19867 -0.19400
H 	H 	0.57380 0.22790 0.21157 0.09300
C 	C 	0.63190 0.25670 0.16597 0.11500
H 	H 	0.56570 0.19800 0.15707 -0.03600
C 	C 	0.73690 0.38850 0.27757 -0.06000
Cu	Cu	0.70295 0.29058 0.09607 0.85100
C 	C 	0.10720 0.19710 0.01180 0.09400
H 	H 	0.04270 0.19300 0.02090 -0.02700
C 	C 	0.20440 0.29800 0.01060 -0.17000
H 	H 	0.20420 0.36340 0.01680 0.09000
C 	C 	0.62440 0.67870 0.97520 -0.17100
H 	H 	0.57410 0.66290 0.95790 0.08700
C 	C 	0.72680 0.78230 0.97710 0.08700
H 	H 	0.74030 0.83760 0.96150 -0.02100
N 	N 	0.95800 0.95980 0.95100 -0.25200
C 	C 	0.96700 0.05030 0.93550 0.10100
H 	H 	0.96510 0.10620 0.94800 -0.03000
C 	C 	0.97910 0.06530 0.90200 -0.18200
H 	H 	0.98940 0.13160 0.89240 0.09200
C 	C 	0.97580 0.98020 0.88290 0.11200
C 	C 	0.96220 0.88330 0.89820 -0.17600
H 	H 	0.95810 0.82350 0.88610 0.08800
C 	C 	0.95490 0.87900 0.93280 0.10400
H 	H 	0.94730 0.81510 0.94330 -0.03000
C 	C 	0.98540 0.99350 0.84750 -0.03500
C 	C 	0.80290 0.91010 0.34513 0.09800
H 	H 	0.80700 0.84970 0.35423 -0.02300
C 	C 	0.70200 0.90640 0.34393 -0.16100
H 	H 	0.63660 0.84080 0.35013 0.08800
C 	C 	0.32130 0.94570 0.30853 -0.16300
H 	H 	0.33710 0.91120 0.29123 0.08500
C 	C 	0.21770 0.94450 0.31043 0.09100
H 	H 	0.16240 0.90270 0.29483 -0.02300
N 	N 	0.04020 0.99820 0.28433 -0.25200
C 	C 	0.94970 0.91670 0.26883 0.10900
H 	H 	0.89380 0.85890 0.28133 -0.03300
C 	C 	0.93470 0.91380 0.23533 -0.18300
H 	H 	0.86840 0.85780 0.22573 0.09300
C 	C 	0.01980 0.99560 0.21623 0.12100
C 	C 	0.11670 0.07890 0.23153 -0.18800
H 	H 	0.17650 0.13460 0.21943 0.09000
C 	C 	0.12100 0.07590 0.26613 0.09600
H 	H 	0.18490 0.13220 0.27663 -0.03100
C 	C 	0.00650 0.99190 0.18083 -0.05100
C 	C 	0.08990 0.89280 0.67847 0.09300
H 	H 	0.15030 0.95730 0.68757 -0.02100
C 	C 	0.09360 0.79560 0.67727 -0.16600
H 	H 	0.15920 0.79580 0.68347 0.08900
C 	C 	0.05430 0.37560 0.64187 -0.17000
H 	H 	0.08880 0.42590 0.62457 0.08500
C 	C 	0.05550 0.27320 0.64377 0.08200
H 	H 	0.09730 0.25970 0.62817 -0.02100
N 	N 	0.00180 0.04200 0.61767 -0.25900
C 	C 	0.08330 0.03300 0.60217 0.09600
H 	H 	0.14110 0.03490 0.61467 -0.03200
C 	C 	0.08620 0.02090 0.56867 -0.17600
H 	H 	0.14220 0.01060 0.55907 0.08600
C 	C 	0.00440 0.02420 0.54957 0.09600
C 	C 	0.92110 0.03780 0.56487 -0.16400
H 	H 	0.86540 0.04190 0.55277 0.08400
C 	C 	0.92410 0.04510 0.59947 0.10700
H 	H 	0.86780 0.05270 0.60997 -0.03200
C 	C 	0.00810 0.01460 0.51417 -0.04600
C 	C 	0.19710 0.10720 0.98820 0.09600
H 	H 	0.19300 0.04270 0.97910 -0.02700
C 	C 	0.29800 0.20440 0.98940 -0.16800
H 	H 	0.36340 0.20420 0.98320 0.09000
C 	C 	0.67870 0.62440 0.02480 -0.17300
H 	H 	0.66290 0.57410 0.04210 0.08700
C 	C 	0.78230 0.72680 0.02290 0.08500
H 	H 	0.83760 0.74030 0.03850 -0.02100
N 	N 	0.95980 0.95800 0.04900 -0.25300
C 	C 	0.05030 0.96700 0.06450 0.10100
H 	H 	0.10620 0.96510 0.05200 -0.03100
C 	C 	0.06530 0.97910 0.09800 -0.18200
H 	H 	0.13160 0.98940 0.10760 0.09200
C 	C 	0.98020 0.97580 0.11710 0.11200
C 	C 	0.88330 0.96220 0.10180 -0.17600
H 	H 	0.82350 0.95810 0.11390 0.08800
C 	C 	0.87900 0.95490 0.06720 0.10400
H 	H 	0.81510 0.94730 0.05670 -0.03100
C 	C 	0.99350 0.98540 0.15250 -0.03500
C 	C 	0.91010 0.80290 0.65487 0.09800
H 	H 	0.84970 0.80700 0.64577 -0.02300
C 	C 	0.90640 0.70200 0.65607 -0.16100
H 	H 	0.84080 0.63660 0.64987 0.08800
C 	C 	0.94570 0.32130 0.69147 -0.16300
H 	H 	0.91120 0.33710 0.70877 0.08500
C 	C 	0.94450 0.21770 0.68957 0.09100
H 	H 	0.90270 0.16240 0.70517 -0.02300
N 	N 	0.99820 0.04020 0.71567 -0.25200
C 	C 	0.91670 0.94970 0.73117 0.10900
H 	H 	0.85890 0.89380 0.71867 -0.03300
C 	C 	0.91380 0.93470 0.76467 -0.18300
H 	H 	0.85780 0.86840 0.77427 0.09300
C 	C 	0.99560 0.01980 0.78377 0.12100
C 	C 	0.07890 0.11670 0.76847 -0.18900
H 	H 	0.13460 0.17650 0.78057 0.09000
C 	C 	0.07590 0.12100 0.73387 0.09600
H 	H 	0.13220 0.18490 0.72337 -0.03100
C 	C 	0.99190 0.00650 0.81917 -0.05100
C 	C 	0.89280 0.08990 0.32153 0.09300
H 	H 	0.95730 0.15030 0.31243 -0.02100
C 	C 	0.79560 0.09360 0.32273 -0.16600
H 	H 	0.79580 0.15920 0.31653 0.08900
C 	C 	0.37560 0.05430 0.35813 -0.17000
H 	H 	0.42590 0.08880 0.37543 0.08500
C 	C 	0.27320 0.05550 0.35623 0.08200
H 	H 	0.25970 0.09730 0.37183 -0.02100
N 	N 	0.04200 0.00180 0.38233 -0.25900
C 	C 	0.03300 0.08330 0.39783 0.09600
H 	H 	0.03490 0.14110 0.38533 -0.03200
C 	C 	0.02090 0.08620 0.43133 -0.17600
H 	H 	0.01060 0.14220 0.44093 0.08600
C 	C 	0.02420 0.00440 0.45043 0.09600
C 	C 	0.03780 0.92110 0.43513 -0.16400
H 	H 	0.04190 0.86540 0.44723 0.08400
C 	C 	0.04510 0.92410 0.40053 0.10700
H 	H 	0.05270 0.86780 0.39003 -0.03200
C 	C 	0.01460 0.00810 0.48583 -0.04600
Cu	Cu	0.95251 0.95251 -0.00000 0.85500
N 	N 	0.10260 0.10260 -0.00000 -0.24400
C 	C 	0.30460 0.30460 -0.00000 0.10300
C 	C 	0.41310 0.41310 -0.00000 -0.02900
C 	C 	0.49710 0.49710 -0.00000 -0.04400
C 	C 	0.60160 0.60160 -0.00000 0.10700
N 	N 	0.80540 0.80540 -0.00000 -0.24900
Cu	Cu	0.04749 0.00000 0.33333 0.84900
N 	N 	0.89740 0.00000 0.33333 -0.24000
C 	C 	0.69540 0.00000 0.33333 0.09700
C 	C 	0.58690 0.00000 0.33333 -0.02900
C 	C 	0.50290 0.00000 0.33333 -0.04400
C 	C 	0.39840 0.00000 0.33333 0.09900
N 	N 	0.19460 0.00000 0.33333 -0.25300
Cu	Cu	0.00000 0.04749 0.66667 0.84900
N 	N 	0.00000 0.89740 0.66667 -0.24000
C 	C 	0.00000 0.69540 0.66667 0.09700
C 	C 	0.00000 0.58690 0.66667 -0.02900
C 	C 	0.00000 0.50290 0.66667 -0.04400
C 	C 	-0.00000 0.39840 0.66667 0.09900
N 	N 	-0.00000 0.19460 0.66667 -0.25300
N 	N 	0.25840 0.69910 0.57100 -0.25500
C 	C 	0.24860 0.78230 0.58460 0.09900
H 	H 	0.31090 0.84130 0.59500 -0.02900
C 	C 	0.14780 0.78260 0.58380 -0.17500
H 	H 	0.14390 0.84230 0.59350 0.09300
C 	C 	0.05310 0.69710 0.56900 0.10600
C 	C 	0.06440 0.60910 0.55540 -0.18600
H 	H 	0.00370 0.54700 0.54550 0.08900
C 	C 	0.16980 0.61860 0.55750 0.12100
H 	H 	0.17730 0.56050 0.54810 -0.03600
C 	C 	0.94610 0.69600 0.56830 -0.02500
N 	N 	0.55880 0.70870 0.57090 -0.25300
C 	C 	0.64080 0.77170 0.54870 0.09700
H 	H 	0.62880 0.81860 0.53470 -0.02500
C 	C 	0.73910 0.77030 0.54570 -0.17900
H 	H 	0.79270 0.81410 0.53000 0.09700
C 	C 	0.75680 0.70010 0.56740 0.12000
C 	C 	0.67720 0.64020 0.59110 -0.18800
H 	H 	0.69000 0.59860 0.60690 0.09600
C 	C 	0.57790 0.64340 0.59080 0.10700
H 	H 	0.52100 0.59690 0.60540 -0.03000
C 	C 	0.85890 0.69570 0.56750 -0.04200
N 	N 	0.30560 0.58710 0.28680 -0.26200
C 	C 	0.33020 0.51980 0.30300 0.12500
H 	H 	0.33730 0.46520 0.29130 -0.04300
C 	C 	0.34670 0.52540 0.33700 -0.21500
H 	H 	0.36730 0.47780 0.34750 0.09800
C 	C 	0.33210 0.60090 0.35420 0.14700
C 	C 	0.30630 0.67070 0.33750 -0.21400
H 	H 	0.29690 0.72460 0.34880 0.10500
C 	C 	0.29370 0.66280 0.30380 0.12500
H 	H 	0.27630 0.71190 0.29280 -0.04100
C 	C 	0.36360 0.62550 0.41860 -0.03900
N 	N 	0.39660 0.68030 0.52100 -0.25000
C 	C 	0.41180 0.59950 0.50720 0.09700
H 	H 	0.42700 0.55380 0.52080 -0.02600
C 	C 	0.40580 0.58150 0.47350 -0.17800
H 	H 	0.42060 0.52740 0.46460 0.08900
C 	C 	0.37770 0.64420 0.45330 0.11900
C 	C 	0.36370 0.72680 0.46800 -0.19400
H 	H 	0.34590 0.77210 0.45510 0.09500
C 	C 	0.37520 0.74330 0.50070 0.11600
H 	H 	0.36770 0.80200 0.50960 -0.03400
C 	C 	0.34840 0.61150 0.38910 -0.06100
Cu	Cu	0.41237 0.70942 0.57060 0.85100
N 	N 	0.44070 0.74160 0.23767 -0.25800
C 	C 	0.53370 0.75140 0.25127 0.10600
H 	H 	0.53040 0.68910 0.26167 -0.03200
C 	C 	0.63480 0.85220 0.25047 -0.18800
H 	H 	0.69840 0.85610 0.26017 0.09700
C 	C 	0.64400 0.94690 0.23567 0.12800
C 	C 	0.54470 0.93560 0.22207 -0.19800
H 	H 	0.54330 0.99630 0.21217 0.09800
C 	C 	0.44880 0.83020 0.22417 0.12900
H 	H 	0.38320 0.82270 0.21477 -0.03700
C 	C 	0.74990 0.05390 0.23497 -0.04800
N 	N 	0.14990 0.44120 0.23757 -0.25200
C 	C 	0.13090 0.35920 0.21537 0.09600
H 	H 	0.18980 0.37120 0.20137 -0.02700
C 	C 	0.03120 0.26090 0.21237 -0.18400
H 	H 	0.02140 0.20730 0.19667 0.09300
C 	C 	0.94330 0.24320 0.23407 0.11700
C 	C 	0.96300 0.32280 0.25777 -0.17400
H 	H 	0.90860 0.31000 0.27357 0.09200
C 	C 	0.06550 0.42210 0.25747 0.09300
H 	H 	0.07590 0.47900 0.27207 -0.02700
C 	C 	0.83680 0.14110 0.23417 -0.03400
N 	N 	0.28150 0.69440 0.95347 -0.26300
C 	C 	0.18960 0.66980 0.96967 0.13000
H 	H 	0.12790 0.66270 0.95797 -0.04500
C 	C 	0.17870 0.65330 0.00367 -0.22100
H 	H 	0.11050 0.63270 0.01417 0.09900
C 	C 	0.26880 0.66790 0.02087 0.15100
C 	C 	0.36440 0.69370 0.00417 -0.21900
H 	H 	0.42770 0.70310 0.01547 0.10600
C 	C 	0.36910 0.70630 0.97047 0.13000
H 	H 	0.43560 0.72370 0.95947 -0.04200
C 	C 	0.26190 0.63640 0.08527 -0.03800
N 	N 	0.28370 0.60340 0.18767 -0.25000
C 	C 	0.18770 0.58820 0.17387 0.09700
H 	H 	0.12680 0.57300 0.18747 -0.02600
C 	C 	0.17570 0.59420 0.14017 -0.17800
H 	H 	0.10680 0.57940 0.13127 0.08800
C 	C 	0.26650 0.62230 0.11997 0.11800
C 	C 	0.36310 0.63630 0.13467 -0.19300
H 	H 	0.42620 0.65410 0.12177 0.09400
C 	C 	0.36810 0.62480 0.16737 0.11500
H 	H 	0.43430 0.63230 0.17627 -0.03500
C 	C 	0.26310 0.65160 0.05577 -0.06200
Cu	Cu	0.29705 0.58763 0.23727 0.85100
N 	N 	0.30090 0.55930 0.90433 -0.25700
C 	C 	0.21770 0.46630 0.91793 0.10300
H 	H 	0.15870 0.46960 0.92833 -0.03200
C 	C 	0.21740 0.36520 0.91713 -0.18300
H 	H 	0.15770 0.30160 0.92683 0.09300
C 	C 	0.30290 0.35600 0.90233 0.11800
C 	C 	0.39090 0.45530 0.88873 -0.19300
H 	H 	0.45300 0.45670 0.87883 0.09400
C 	C 	0.38140 0.55120 0.89083 0.12500
H 	H 	0.43950 0.61680 0.88143 -0.03600
C 	C 	0.30400 0.25010 0.90163 -0.04100
N 	N 	0.29130 0.85010 0.90423 -0.25300
C 	C 	0.22830 0.86910 0.88203 0.09200
H 	H 	0.18140 0.81020 0.86803 -0.02500
C 	C 	0.22970 0.96880 0.87903 -0.16800
H 	H 	0.18590 0.97860 0.86333 0.09200
C 	C 	0.29990 0.05670 0.90073 0.10900
C 	C 	0.35980 0.03700 0.92443 -0.19100
H 	H 	0.40140 0.09140 0.94023 0.09600
C 	C 	0.35660 0.93450 0.92413 0.11200
H 	H 	0.40310 0.92410 0.93873 -0.03000
C 	C 	0.30430 0.16320 0.90083 -0.03700
N 	N 	0.41290 0.71850 0.62013 -0.26100
C 	C 	0.48020 0.81040 0.63633 0.12600
H 	H 	0.53480 0.87210 0.62463 -0.04100
C 	C 	0.47460 0.82130 0.67033 -0.21500
H 	H 	0.52220 0.88950 0.68083 0.09900
C 	C 	0.39910 0.73120 0.68753 0.14700
C 	C 	0.32930 0.63560 0.67083 -0.21300
H 	H 	0.27540 0.57230 0.68213 0.10400
C 	C 	0.33720 0.63090 0.63713 0.12500
H 	H 	0.28810 0.56440 0.62613 -0.04200
C 	C 	0.37450 0.73810 0.75193 -0.03900
N 	N 	0.31970 0.71630 0.85433 -0.25000
C 	C 	0.40050 0.81230 0.84053 0.09800
H 	H 	0.44620 0.87320 0.85413 -0.02400
C 	C 	0.41850 0.82430 0.80683 -0.17800
H 	H 	0.47260 0.89320 0.79793 0.09100
C 	C 	0.35580 0.73350 0.78663 0.11900
C 	C 	0.27320 0.63690 0.80133 -0.19400
H 	H 	0.22790 0.57380 0.78843 0.09300
C 	C 	0.25670 0.63190 0.83403 0.11500
H 	H 	0.19800 0.56570 0.84293 -0.03600
C 	C 	0.38850 0.73690 0.72243 -0.06000
Cu	Cu	0.29058 0.70295 0.90393 0.85100
