data_crystal

_cell_length_a 9.17680
_cell_length_b 12.72290
_cell_length_c 16.48300
_cell_angle_alpha 68.53000
_cell_angle_beta  83.28500
_cell_angle_gamma 73.25900

_symmetry_space_group_name_	'P 1'
_symmetry_space_group_name_H-M	'P 1'

loop_
_symmetry_equiv_pos_as_xyz
  x,y,z

loop_
_atom_site_label
_atom_site_type_symbol
_atom_site_fract_x
_atom_site_fract_y
_atom_site_fract_z
_atom_site_charge
Fe	Fe	0.94514 0.55459 0.12999 1.20800
Fe	Fe	0.97130 0.06611 0.12269 1.25200
Fe	Fe	0.31144 0.19092 0.24756 1.27100
Fe	Fe	0.31093 0.68775 0.25197 1.26700
Fe	Fe	0.96282 0.44117 0.38236 1.26200
Fe	Fe	0.96301 0.94138 0.38258 1.26100
P 	P 	0.09340 0.30870 0.07950 0.57700
P 	P 	0.65930 0.52230 0.26290 0.54400
P 	P 	0.12570 0.87760 0.07970 0.50300
P 	P 	0.22750 0.93910 0.28010 0.52700
P 	P 	0.21940 0.43770 0.27545 0.51400
P 	P 	0.05270 0.65910 0.40090 0.57400
P 	P 	0.04710 0.16370 0.40290 0.58000
P 	P 	0.67080 0.04400 0.25280 0.32800
P 	P 	0.69770 0.10830 0.25420 0.29800
O 	O 	0.00370 0.21760 0.10640 -0.39700
O 	O 	0.24190 0.26170 0.13050 -0.40100
O 	O 	0.99460 0.41890 0.09500 -0.41200
O 	O 	0.14090 0.33790 0.98240 -0.39400
O 	O 	0.74560 0.52930 0.17650 -0.37300
O 	O 	0.52470 0.62870 0.25160 -0.38300
O 	O 	0.75690 0.50830 0.33540 -0.37900
O 	O 	0.59690 0.41080 0.28950 -0.16500
O 	O 	0.16950 0.99090 0.06900 -0.33800
O 	O 	0.12570 0.85750 0.99390 -0.35900
O 	O 	0.96770 0.89690 0.12310 -0.34800
O 	O 	0.24020 0.76750 0.13550 -0.38600
O 	O 	0.31400 0.03280 0.24950 -0.35500
O 	O 	0.32700 0.83730 0.25520 -0.35700
O 	O 	0.19250 0.90190 0.37940 -0.35100
O 	O 	0.06420 0.98550 0.24300 -0.47500
O 	O 	0.05340 0.46610 0.24360 -0.49700
O 	O 	0.32880 0.34250 0.24680 -0.35100
O 	O 	0.27440 0.54850 0.23500 -0.37200
O 	O 	0.19480 0.40000 0.37510 -0.34600
O 	O 	0.21320 0.65710 0.36180 -0.41200
O 	O 	0.96600 0.60700 0.35740 -0.37900
O 	O 	0.96010 0.78510 0.38660 -0.38100
O 	O 	0.07430 0.58710 0.49750 -0.39800
O 	O 	0.19440 0.17230 0.35010 -0.42000
O 	O 	0.94450 0.28610 0.39420 -0.37500
O 	O 	0.95540 0.10530 0.36990 -0.36800
O 	O 	0.09410 0.09330 0.49720 -0.39000
O 	O 	0.76620 0.08720 0.17210 -0.38800
O 	O 	0.52820 0.13960 0.25390 -0.37700
O 	O 	0.75640 0.99820 0.33690 -0.37000
O 	O 	0.61500 0.94320 0.24400 -0.14200
O 	O 	0.64300 0.87200 0.24700 0.01300
O 	O 	0.73400 0.21100 0.26400 -0.14400
O 	O 	0.78400 0.26200 0.23900 0.00300
Fe	Fe	0.05486 0.44541 0.87001 1.20900
Fe	Fe	0.02870 0.93389 0.87731 1.25300
Fe	Fe	0.68856 0.80908 0.75244 1.27100
Fe	Fe	0.68907 0.31225 0.74803 1.26700
Fe	Fe	0.03718 0.55883 0.61764 1.26200
Fe	Fe	0.03699 0.05862 0.61742 1.26100
P 	P 	0.90660 0.69130 0.92050 0.57700
P 	P 	0.34070 0.47770 0.73710 0.54400
P 	P 	0.87430 0.12240 0.92030 0.50300
P 	P 	0.77250 0.06090 0.71990 0.52700
P 	P 	0.78060 0.56230 0.72455 0.51400
P 	P 	0.94730 0.34090 0.59910 0.57400
P 	P 	0.95290 0.83630 0.59710 0.58000
P 	P 	0.32920 0.95600 0.74720 0.32800
P 	P 	0.30230 0.89170 0.74580 0.29800
O 	O 	0.99630 0.78240 0.89360 -0.39700
O 	O 	0.75810 0.73830 0.86950 -0.40100
O 	O 	0.00540 0.58110 0.90500 -0.41200
O 	O 	0.85910 0.66210 0.01760 -0.39400
O 	O 	0.25440 0.47070 0.82350 -0.37300
O 	O 	0.47530 0.37130 0.74840 -0.38300
O 	O 	0.24310 0.49170 0.66460 -0.37900
O 	O 	0.40310 0.58920 0.71050 -0.16500
O 	O 	0.83050 0.00910 0.93100 -0.33800
O 	O 	0.87430 0.14250 0.00610 -0.35900
O 	O 	0.03230 0.10310 0.87690 -0.34800
O 	O 	0.75980 0.23250 0.86450 -0.38600
O 	O 	0.68600 0.96720 0.75050 -0.35500
O 	O 	0.67300 0.16270 0.74480 -0.35700
O 	O 	0.80750 0.09810 0.62060 -0.35100
O 	O 	0.93580 0.01450 0.75700 -0.47500
O 	O 	0.94660 0.53390 0.75640 -0.49700
O 	O 	0.67120 0.65750 0.75320 -0.35100
O 	O 	0.72560 0.45150 0.76500 -0.37200
O 	O 	0.80520 0.60000 0.62490 -0.34600
O 	O 	0.78680 0.34290 0.63820 -0.41200
O 	O 	0.03400 0.39300 0.64260 -0.37900
O 	O 	0.03990 0.21490 0.61340 -0.38100
O 	O 	0.92570 0.41290 0.50250 -0.39800
O 	O 	0.80560 0.82770 0.64990 -0.42000
O 	O 	0.05550 0.71390 0.60580 -0.37500
O 	O 	0.04460 0.89470 0.63010 -0.36800
O 	O 	0.90590 0.90670 0.50280 -0.39000
O 	O 	0.23380 0.91280 0.82790 -0.38800
O 	O 	0.47180 0.86040 0.74610 -0.37700
O 	O 	0.24360 0.00180 0.66310 -0.37000
O 	O 	0.38500 0.05680 0.75600 -0.14200
O 	O 	0.35700 0.12800 0.75300 0.01300
O 	O 	0.26600 0.78900 0.73600 -0.14400
O 	O 	0.21600 0.73800 0.76100 0.00300
