data_crystal

_cell_length_a 36.81500
_cell_length_b 6.98050
_cell_length_c 6.20240
_cell_angle_alpha 90.00000
_cell_angle_beta  97.42000
_cell_angle_gamma 90.00000

_symmetry_space_group_name_	'P 1'
_symmetry_space_group_name_H-M	'P 1'

loop_
_symmetry_equiv_pos_as_xyz
  x,y,z

loop_
_atom_site_label
_atom_site_type_symbol
_atom_site_fract_x
_atom_site_fract_y
_atom_site_fract_z
_atom_site_charge
O 	O 	0.34620 0.44660 0.51530 -0.21800
O 	O 	0.20069 0.19060 0.21290 -0.44000
O 	O 	0.22415 0.34500 0.62230 -0.62200
N 	N 	0.45313 0.48300 0.09500 -0.11600
C 	C 	0.44920 0.42500 0.30370 0.06400
H 	H 	0.47050 0.38390 0.40130 -0.04900
C 	C 	0.41500 0.42400 0.37300 -0.08800
H 	H 	0.41170 0.37230 0.51370 0.05600
C 	C 	0.38860 0.54460 0.02560 -0.01100
H 	H 	0.36710 0.57120 0.92290 0.05300
C 	C 	0.42290 0.55100 0.95770 0.06400
H 	H 	0.42590 0.60220 0.81620 -0.02700
C 	C 	0.17364 0.41480 0.97310 0.01100
C 	C 	0.13990 0.40520 0.05440 -0.03600
H 	H 	0.13870 0.35580 0.19800 0.04000
C 	C 	0.10799 0.46770 0.92670 0.01600
H 	H 	0.08490 0.46160 0.98270 0.08000
C 	C 	0.10974 0.53910 0.71740 0.01500
H 	H 	0.08770 0.57760 0.62810 0.00500
C 	C 	0.14350 0.55460 0.63740 0.13600
H 	H 	0.14440 0.60370 0.49350 -0.03000
C 	C 	0.20650 0.35900 0.12900 0.28000
O 	O 	0.84620 0.94660 0.51530 -0.28900
O 	O 	0.70069 0.69060 0.21290 -0.43700
O 	O 	0.72415 0.84500 0.62230 -0.63200
N 	N 	0.95313 0.98300 0.09500 0.05200
C 	C 	0.94920 0.92500 0.30370 0.10200
H 	H 	0.97050 0.88390 0.40130 -0.07000
C 	C 	0.91500 0.92400 0.37300 -0.42200
H 	H 	0.91170 0.87230 0.51370 0.15600
C 	C 	0.88860 0.04460 0.02560 -0.60300
H 	H 	0.86710 0.07120 0.92290 0.24200
C 	C 	0.92290 0.05100 0.95770 -0.73500
H 	H 	0.92590 0.10220 0.81620 0.21800
C 	C 	0.67364 0.91480 0.97310 -0.02300
C 	C 	0.63990 0.90520 0.05440 -0.12800
H 	H 	0.63870 0.85580 0.19800 0.06900
C 	C 	0.60799 0.96770 0.92670 0.07300
H 	H 	0.58490 0.96160 0.98270 -0.09500
C 	C 	0.60974 0.03910 0.71740 -0.28900
H 	H 	0.58770 0.07760 0.62810 0.10200
C 	C 	0.64350 0.05460 0.63740 -0.44200
H 	H 	0.64440 0.10370 0.49350 0.14900
C 	C 	0.70650 0.85900 0.12900 0.27800
O 	O 	0.65380 0.44660 0.48470 -0.22300
O 	O 	0.79931 0.19060 0.78710 -0.44100
O 	O 	0.77585 0.34500 0.37770 -0.61700
N 	N 	0.54687 0.48300 0.90500 -0.10000
C 	C 	0.55080 0.42500 0.69630 0.04400
H 	H 	0.52950 0.38390 0.59870 -0.04200
C 	C 	0.58500 0.42400 0.62700 -0.06300
H 	H 	0.58830 0.37230 0.48630 0.04400
C 	C 	0.61140 0.54460 0.97440 0.04600
H 	H 	0.63290 0.57120 0.07710 0.01900
C 	C 	0.57710 0.55100 0.04230 -0.00100
H 	H 	0.57410 0.60220 0.18380 -0.01100
C 	C 	0.82636 0.41480 0.02690 -0.05900
C 	C 	0.86010 0.40520 0.94560 0.03600
H 	H 	0.86130 0.35580 0.80200 0.01900
C 	C 	0.89201 0.46770 0.07330 -0.02300
H 	H 	0.91510 0.46160 0.01730 0.07100
C 	C 	0.89026 0.53910 0.28260 0.01900
H 	H 	0.91230 0.57760 0.37190 0.00400
C 	C 	0.85650 0.55460 0.36260 0.08800
H 	H 	0.85560 0.60370 0.50650 -0.01300
C 	C 	0.79350 0.35900 0.87100 0.32400
O 	O 	0.15380 0.94660 0.48470 -0.30900
O 	O 	0.29931 0.69060 0.78710 -0.43800
O 	O 	0.27585 0.84500 0.37770 -0.63600
N 	N 	0.04687 0.98300 0.90500 0.09300
C 	C 	0.05080 0.92500 0.69630 0.09200
H 	H 	0.02950 0.88390 0.59870 -0.07000
C 	C 	0.08500 0.92400 0.62700 -0.44900
H 	H 	0.08830 0.87230 0.48630 0.16100
C 	C 	0.11140 0.04460 0.97440 -0.65100
H 	H 	0.13290 0.07120 0.07710 0.23900
C 	C 	0.07710 0.05100 0.04230 -0.89600
H 	H 	0.07410 0.10220 0.18380 0.26300
C 	C 	0.32636 0.91480 0.02690 -0.09000
C 	C 	0.36010 0.90520 0.94560 -0.08200
H 	H 	0.36130 0.85580 0.80200 0.05700
C 	C 	0.39201 0.96770 0.07330 0.04500
H 	H 	0.41510 0.96160 0.01730 -0.10700
C 	C 	0.39026 0.03910 0.28260 -0.34400
H 	H 	0.41230 0.07760 0.37190 0.11700
C 	C 	0.35650 0.05460 0.36260 -0.60900
H 	H 	0.35560 0.10370 0.50650 0.20300
C 	C 	0.29350 0.85900 0.87100 0.31200
O 	O 	0.65380 0.55340 0.48470 -0.25100
O 	O 	0.79931 0.80940 0.78710 -0.44400
O 	O 	0.77585 0.65500 0.37770 -0.62000
N 	N 	0.54687 0.51700 0.90500 -0.10800
C 	C 	0.55080 0.57500 0.69630 -0.07200
H 	H 	0.52950 0.61610 0.59870 -0.00900
C 	C 	0.58500 0.57600 0.62700 0.02000
H 	H 	0.58830 0.62770 0.48630 0.01000
C 	C 	0.61140 0.45540 0.97440 -0.02700
H 	H 	0.63290 0.42880 0.07710 0.04400
C 	C 	0.57710 0.44900 0.04230 -0.05600
H 	H 	0.57410 0.39780 0.18380 0.00400
C 	C 	0.82636 0.58520 0.02690 -0.05100
C 	C 	0.86010 0.59480 0.94560 -0.02600
H 	H 	0.86130 0.64420 0.80200 0.03100
C 	C 	0.89201 0.53230 0.07330 -0.02800
H 	H 	0.91510 0.53840 0.01730 -0.05700
C 	C 	0.89026 0.46090 0.28260 -0.06900
H 	H 	0.91230 0.42240 0.37190 0.03300
C 	C 	0.85650 0.44540 0.36260 -0.08200
H 	H 	0.85560 0.39630 0.50650 0.03900
C 	C 	0.79350 0.64100 0.87100 0.32100
O 	O 	0.15380 0.05340 0.48470 -0.17600
O 	O 	0.29931 0.30940 0.78710 -0.43800
O 	O 	0.27585 0.15500 0.37770 -0.61600
N 	N 	0.04687 0.01700 0.90500 -0.30600
C 	C 	0.05080 0.07500 0.69630 -0.11100
H 	H 	0.02950 0.11610 0.59870 0.01200
C 	C 	0.08500 0.07600 0.62700 0.37900
H 	H 	0.08830 0.12770 0.48630 -0.10000
C 	C 	0.11140 0.95540 0.97440 0.64600
H 	H 	0.13290 0.92880 0.07710 -0.16900
C 	C 	0.07710 0.94900 0.04230 0.84800
H 	H 	0.07410 0.89780 0.18380 -0.27500
C 	C 	0.32636 0.08520 0.02690 -0.02700
C 	C 	0.36010 0.09480 0.94560 0.09600
H 	H 	0.36130 0.14420 0.80200 -0.00700
C 	C 	0.39201 0.03230 0.07330 -0.09900
H 	H 	0.41510 0.03840 0.01730 0.12200
C 	C 	0.39026 0.96090 0.28260 0.29900
H 	H 	0.41230 0.92240 0.37190 -0.08200
C 	C 	0.35650 0.94540 0.36260 0.60300
H 	H 	0.35560 0.89630 0.50650 -0.17300
C 	C 	0.29350 0.14100 0.87100 0.31900
O 	O 	0.34620 0.55340 0.51530 -0.25300
O 	O 	0.20069 0.80940 0.21290 -0.44400
O 	O 	0.22415 0.65500 0.62230 -0.62600
N 	N 	0.45313 0.51700 0.09500 -0.12600
C 	C 	0.44920 0.57500 0.30370 -0.08400
H 	H 	0.47050 0.61610 0.40130 -0.00600
C 	C 	0.41500 0.57600 0.37300 0.01600
H 	H 	0.41170 0.62770 0.51370 0.01300
C 	C 	0.38860 0.45540 0.02560 -0.10400
H 	H 	0.36710 0.42880 0.92290 0.08600
C 	C 	0.42290 0.44900 0.95770 -0.01300
H 	H 	0.42590 0.39780 0.81620 -0.00600
C 	C 	0.17364 0.58520 0.97310 0.01200
C 	C 	0.13990 0.59480 0.05440 -0.10700
H 	H 	0.13870 0.64420 0.19800 0.05500
C 	C 	0.10799 0.53230 0.92670 0.01600
H 	H 	0.08490 0.53840 0.98270 -0.07500
C 	C 	0.10974 0.46090 0.71740 -0.10300
H 	H 	0.08770 0.42240 0.62810 0.04400
C 	C 	0.14350 0.44540 0.63740 -0.09000
H 	H 	0.14440 0.39630 0.49350 0.03800
C 	C 	0.20650 0.64100 0.12900 0.27900
O 	O 	0.84620 0.05340 0.51530 -0.18800
O 	O 	0.70069 0.30940 0.21290 -0.43500
O 	O 	0.72415 0.15500 0.62230 -0.61800
N 	N 	0.95313 0.01700 0.09500 -0.29600
C 	C 	0.94920 0.07500 0.30370 -0.11500
H 	H 	0.97050 0.11610 0.40130 0.01600
C 	C 	0.91500 0.07600 0.37300 0.33000
H 	H 	0.91170 0.12770 0.51370 -0.08100
C 	C 	0.88860 0.95540 0.02560 0.47200
H 	H 	0.86710 0.92880 0.92290 -0.10000
C 	C 	0.92290 0.94900 0.95770 0.79100
H 	H 	0.92590 0.89780 0.81620 -0.25400
C 	C 	0.67364 0.08520 0.97310 0.04000
C 	C 	0.63990 0.09480 0.05440 -0.01000
H 	H 	0.63870 0.14420 0.19800 0.02500
C 	C 	0.60799 0.03230 0.92670 -0.04400
H 	H 	0.58490 0.03840 0.98270 0.10200
C 	C 	0.60974 0.96090 0.71740 0.20600
H 	H 	0.58770 0.92240 0.62810 -0.05300
C 	C 	0.64350 0.94540 0.63740 0.47900
H 	H 	0.64440 0.89630 0.49350 -0.13600
C 	C 	0.70650 0.14100 0.12900 0.27400
Eu	Eu	0.27998 0.50000 0.47900 2.15800
O 	O 	0.31920 0.50000 0.19270 -0.42900
O 	O 	0.23280 0.50000 0.16270 -0.50700
C 	C 	0.38468 0.50000 0.23410 -0.02500
C 	C 	0.34780 0.50000 0.31800 0.32700
C 	C 	0.17539 0.50000 0.76390 -0.17800
C 	C 	0.20990 0.50000 0.66790 0.51700
Eu	Eu	0.77998 0.00000 0.47900 2.18400
O 	O 	0.81920 -0.00000 0.19270 -0.42600
O 	O 	0.73280 -0.00000 0.16270 -0.50100
C 	C 	0.88468 0.00000 0.23410 0.00200
C 	C 	0.84780 0.00000 0.31800 0.33100
C 	C 	0.67539 -0.00000 0.76390 -0.16300
C 	C 	0.70990 -0.00000 0.66790 0.52300
Eu	Eu	0.72002 0.50000 0.52100 2.16200
O 	O 	0.68080 0.50000 0.80730 -0.42100
O 	O 	0.76720 0.50000 0.83730 -0.51600
C 	C 	0.61532 0.50000 0.76590 -0.07100
C 	C 	0.65220 0.50000 0.68200 0.34600
C 	C 	0.82461 0.50000 0.23610 -0.12700
C 	C 	0.79010 0.50000 0.33210 0.49100
Eu	Eu	0.22002 -0.00000 0.52100 2.19900
O 	O 	0.18080 0.00000 0.80730 -0.41700
O 	O 	0.26720 -0.00000 0.83730 -0.50500
C 	C 	0.11532 0.00000 0.76590 -0.03500
C 	C 	0.15220 0.00000 0.68200 0.35200
C 	C 	0.32461 -0.00000 0.23610 -0.10900
C 	C 	0.29010 -0.00000 0.33210 0.50500
Cu	Cu	0.50000 0.50000 -0.00000 0.78500
Cu	Cu	-0.00000 0.00000 -0.00000 0.79300
