data_crystal

_cell_length_a 36.84000
_cell_length_b 7.00630
_cell_length_c 6.19880
_cell_angle_alpha 90.00000
_cell_angle_beta  97.45000
_cell_angle_gamma 90.00000

_symmetry_space_group_name_	'P 1'
_symmetry_space_group_name_H-M	'P 1'

loop_
_symmetry_equiv_pos_as_xyz
  x,y,z

loop_
_atom_site_label
_atom_site_type_symbol
_atom_site_fract_x
_atom_site_fract_y
_atom_site_fract_z
_atom_site_charge
O 	O 	0.34670 0.44100 0.51200 -0.24900
O 	O 	0.20050 0.19020 0.21140 -0.44000
O 	O 	0.22410 0.34690 0.62060 -0.64300
C 	C 	0.44970 0.43200 0.30200 0.00200
H 	H 	0.47010 0.37000 0.39000 -0.03200
C 	C 	0.41510 0.42400 0.36900 -0.05900
H 	H 	0.41120 0.35000 0.49300 0.04400
C 	C 	0.38800 0.54200 0.01800 -0.17500
C 	C 	0.42310 0.55200 0.95600 -0.10800
H 	H 	0.42540 0.58000 0.80600 0.02700
C 	C 	0.17331 0.42110 0.96910 0.02300
C 	C 	0.13980 0.41010 0.05100 -0.06600
H 	H 	0.13870 0.35810 0.19270 0.05900
C 	C 	0.10800 0.47510 0.92630 0.05000
H 	H 	0.08500 0.46770 0.98250 0.12700
C 	C 	0.10960 0.55110 0.71980 -0.06500
H 	H 	0.08780 0.59570 0.63430 0.02900
C 	C 	0.14310 0.56200 0.63780 0.00700
H 	H 	0.14410 0.61230 0.49520 0.00800
C 	C 	0.20630 0.36100 0.12570 0.27300
O 	O 	0.84670 0.94100 0.51200 -0.22400
O 	O 	0.70050 0.69020 0.21140 -0.44600
O 	O 	0.72410 0.84690 0.62060 -0.62900
C 	C 	0.94970 0.93200 0.30200 -0.00800
H 	H 	0.97010 0.87000 0.39000 -0.02600
C 	C 	0.91510 0.92400 0.36900 -0.08700
H 	H 	0.91120 0.85000 0.49300 0.05400
C 	C 	0.88800 0.04200 0.01800 -0.47700
C 	C 	0.92310 0.05200 0.95600 -0.48300
H 	H 	0.92540 0.08000 0.80600 0.14200
C 	C 	0.67331 0.92110 0.96910 0.04500
C 	C 	0.63980 0.91010 0.05100 -0.09100
H 	H 	0.63870 0.85810 0.19270 0.06000
C 	C 	0.60800 0.97510 0.92630 0.04600
H 	H 	0.58500 0.96770 0.98250 0.15600
C 	C 	0.60960 0.05110 0.71980 -0.12300
H 	H 	0.58780 0.09570 0.63430 0.04800
C 	C 	0.64310 0.06200 0.63780 -0.08100
H 	H 	0.64410 0.11230 0.49520 0.03500
C 	C 	0.70630 0.86100 0.12570 0.28600
O 	O 	0.65330 0.44100 0.48800 -0.25300
O 	O 	0.79950 0.19020 0.78860 -0.44300
O 	O 	0.77590 0.34690 0.37940 -0.64000
C 	C 	0.55030 0.43200 0.69800 -0.00300
H 	H 	0.52990 0.37000 0.61000 -0.03000
C 	C 	0.58490 0.42400 0.63100 -0.04200
H 	H 	0.58880 0.35000 0.50700 0.03600
C 	C 	0.61200 0.54200 0.98200 -0.09700
C 	C 	0.57690 0.55200 0.04400 -0.15300
H 	H 	0.57460 0.58000 0.19400 0.03800
C 	C 	0.82669 0.42110 0.03090 -0.04700
C 	C 	0.86020 0.41010 0.94900 0.01600
H 	H 	0.86130 0.35810 0.80730 0.03600
C 	C 	0.89200 0.47510 0.07370 0.00800
H 	H 	0.91500 0.46770 0.01750 0.13200
C 	C 	0.89040 0.55110 0.28020 -0.04400
H 	H 	0.91220 0.59570 0.36570 0.02200
C 	C 	0.85690 0.56200 0.36220 -0.01300
H 	H 	0.85590 0.61230 0.50480 0.01700
C 	C 	0.79370 0.36100 0.87430 0.31700
O 	O 	0.15330 0.94100 0.48800 -0.22700
O 	O 	0.29950 0.69020 0.78860 -0.44600
O 	O 	0.27590 0.84690 0.37940 -0.62600
C 	C 	0.05030 0.93200 0.69800 -0.01600
H 	H 	0.02990 0.87000 0.61000 -0.02600
C 	C 	0.08490 0.92400 0.63100 -0.07400
H 	H 	0.08880 0.85000 0.50700 0.04600
C 	C 	0.11200 0.04200 0.98200 -0.41700
C 	C 	0.07690 0.05200 0.04400 -0.51100
H 	H 	0.07460 0.08000 0.19400 0.14600
C 	C 	0.32669 0.92110 0.03090 -0.00600
C 	C 	0.36020 0.91010 0.94900 -0.03200
H 	H 	0.36130 0.85810 0.80730 0.04500
C 	C 	0.39200 0.97510 0.07370 0.00400
H 	H 	0.41500 0.96770 0.01750 0.18700
C 	C 	0.39040 0.05110 0.28020 -0.10200
H 	H 	0.41220 0.09570 0.36570 0.04100
C 	C 	0.35690 0.06200 0.36220 -0.10600
H 	H 	0.35590 0.11230 0.50480 0.04600
C 	C 	0.29370 0.86100 0.87430 0.32200
O 	O 	0.65330 0.55900 0.48800 -0.25500
O 	O 	0.79950 0.80980 0.78860 -0.43900
O 	O 	0.77590 0.65310 0.37940 -0.63700
C 	C 	0.55030 0.56800 0.69800 0.00200
H 	H 	0.52990 0.63000 0.61000 -0.02900
C 	C 	0.58490 0.57600 0.63100 -0.00600
H 	H 	0.58880 0.65000 0.50700 0.02200
C 	C 	0.61200 0.45800 0.98200 0.12700
C 	C 	0.57690 0.44800 0.04400 0.09800
H 	H 	0.57460 0.42000 0.19400 -0.03800
C 	C 	0.82669 0.57890 0.03090 -0.05100
C 	C 	0.86020 0.58990 0.94900 -0.00600
H 	H 	0.86130 0.64190 0.80730 0.02000
C 	C 	0.89200 0.52490 0.07370 -0.05500
H 	H 	0.91500 0.53230 0.01750 -0.11800
C 	C 	0.89040 0.44890 0.28020 -0.01400
H 	H 	0.91220 0.40430 0.36570 0.02200
C 	C 	0.85690 0.43800 0.36220 0.02600
H 	H 	0.85590 0.38770 0.50480 0.01000
C 	C 	0.79370 0.63900 0.87430 0.31600
O 	O 	0.15330 0.05900 0.48800 -0.27000
O 	O 	0.29950 0.30980 0.78860 -0.44800
O 	O 	0.27590 0.15310 0.37940 -0.63800
C 	C 	0.05030 0.06800 0.69800 0.01500
H 	H 	0.02990 0.13000 0.61000 -0.03400
C 	C 	0.08490 0.07600 0.63100 0.03700
H 	H 	0.08880 0.15000 0.50700 0.00800
C 	C 	0.11200 0.95800 0.98200 0.46600
C 	C 	0.07690 0.94800 0.04400 0.45400
H 	H 	0.07460 0.92000 0.19400 -0.14300
C 	C 	0.32669 0.07890 0.03090 -0.08200
C 	C 	0.36020 0.08990 0.94900 0.03600
H 	H 	0.36130 0.14190 0.80730 0.01400
C 	C 	0.39200 0.02490 0.07370 -0.04600
H 	H 	0.41500 0.03230 0.01750 -0.17600
C 	C 	0.39040 0.94890 0.28020 0.03700
H 	H 	0.41220 0.90430 0.36570 0.00400
C 	C 	0.35690 0.93800 0.36220 0.13400
H 	H 	0.35590 0.88770 0.50480 -0.02300
C 	C 	0.29370 0.13900 0.87430 0.32300
O 	O 	0.34670 0.55900 0.51200 -0.25200
O 	O 	0.20050 0.80980 0.21140 -0.43700
O 	O 	0.22410 0.65310 0.62060 -0.64000
C 	C 	0.44970 0.56800 0.30200 0.01000
H 	H 	0.47010 0.63000 0.39000 -0.03200
C 	C 	0.41510 0.57600 0.36900 -0.02100
H 	H 	0.41120 0.65000 0.49300 0.02900
C 	C 	0.38800 0.45800 0.01800 0.07300
C 	C 	0.42310 0.44800 0.95600 0.16500
H 	H 	0.42540 0.42000 0.80600 -0.05400
C 	C 	0.17331 0.57890 0.96910 0.01200
C 	C 	0.13980 0.58990 0.05100 -0.08000
H 	H 	0.13870 0.64190 0.19270 0.04100
C 	C 	0.10800 0.52490 0.92630 -0.01100
H 	H 	0.08500 0.53230 0.98250 -0.12300
C 	C 	0.10960 0.44890 0.71980 -0.03500
H 	H 	0.08780 0.40430 0.63430 0.02900
C 	C 	0.14310 0.43800 0.63780 0.05000
H 	H 	0.14410 0.38770 0.49520 0.00000
C 	C 	0.20630 0.63900 0.12570 0.27400
O 	O 	0.84670 0.05900 0.51200 -0.26800
O 	O 	0.70050 0.30980 0.21140 -0.44600
O 	O 	0.72410 0.15310 0.62060 -0.64100
C 	C 	0.94970 0.06800 0.30200 0.02000
H 	H 	0.97010 0.13000 0.39000 -0.03300
C 	C 	0.91510 0.07600 0.36900 0.02200
H 	H 	0.91120 0.15000 0.49300 0.01700
C 	C 	0.88800 0.95800 0.01800 0.39800
C 	C 	0.92310 0.94800 0.95600 0.53600
H 	H 	0.92540 0.92000 0.80600 -0.16500
C 	C 	0.67331 0.07890 0.96910 0.00000
C 	C 	0.63980 0.08990 0.05100 -0.06000
H 	H 	0.63870 0.14190 0.19270 0.04100
C 	C 	0.60800 0.02490 0.92630 -0.00300
H 	H 	0.58500 0.03230 0.98250 -0.15400
C 	C 	0.60960 0.94890 0.71980 0.01700
H 	H 	0.58780 0.90430 0.63430 0.01200
C 	C 	0.64310 0.93800 0.63780 0.15200
H 	H 	0.64410 0.88770 0.49520 -0.03100
C 	C 	0.70630 0.13900 0.12570 0.27500
Sm	Sm	0.28005 0.50000 0.47849 2.29200
O 	O 	0.31920 0.50000 0.19180 -0.44100
O 	O 	0.23270 0.50000 0.16630 -0.52600
N 	N 	0.45390 0.50000 0.09700 -0.27500
C 	C 	0.38520 0.50000 0.23600 -0.03000
H 	H 	0.36820 0.50000 0.90900 0.10300
C 	C 	0.34860 0.50000 0.31700 0.34100
C 	C 	0.17491 0.50000 0.76250 -0.18800
C 	C 	0.20940 0.50000 0.66470 0.53200
Sm	Sm	0.78005 -0.00000 0.47849 2.25800
O 	O 	0.81920 -0.00000 0.19180 -0.44300
O 	O 	0.73270 0.00000 0.16630 -0.53700
N 	N 	0.95390 -0.00000 0.09700 -0.27700
C 	C 	0.88520 -0.00000 0.23600 -0.05000
H 	H 	0.86820 -0.00000 0.90900 0.09100
C 	C 	0.84860 0.00000 0.31700 0.33600
C 	C 	0.67491 -0.00000 0.76250 -0.20700
C 	C 	0.70940 -0.00000 0.66470 0.51800
Sm	Sm	0.71995 0.50000 0.52151 2.29600
O 	O 	0.68080 0.50000 0.80820 -0.43400
O 	O 	0.76730 0.50000 0.83370 -0.53600
N 	N 	0.54610 0.50000 0.90300 -0.23700
C 	C 	0.61480 0.50000 0.76400 -0.07400
H 	H 	0.63180 0.50000 0.09100 0.04100
C 	C 	0.65140 0.50000 0.68300 0.35900
C 	C 	0.82509 0.50000 0.23750 -0.13400
C 	C 	0.79060 0.50000 0.33530 0.50600
Sm	Sm	0.21995 -0.00000 0.52151 2.26300
O 	O 	0.18080 -0.00000 0.80820 -0.43400
O 	O 	0.26730 -0.00000 0.83370 -0.54500
N 	N 	0.04610 0.00000 0.90300 -0.24100
C 	C 	0.11480 -0.00000 0.76400 -0.09100
H 	H 	0.13180 -0.00000 0.09100 0.02900
C 	C 	0.15140 -0.00000 0.68300 0.35300
C 	C 	0.32509 -0.00000 0.23750 -0.15500
C 	C 	0.29060 -0.00000 0.33530 0.49200
Cu	Cu	0.50000 0.50000 -0.00000 0.79300
Cu	Cu	-0.00000 0.00000 -0.00000 0.78800
