data_crystal

_cell_length_a 36.99700
_cell_length_b 7.05510
_cell_length_c 6.20450
_cell_angle_alpha 90.00000
_cell_angle_beta  97.75000
_cell_angle_gamma 90.00000

_symmetry_space_group_name_	'P 1'
_symmetry_space_group_name_H-M	'P 1'

loop_
_symmetry_equiv_pos_as_xyz
  x,y,z

loop_
_atom_site_label
_atom_site_type_symbol
_atom_site_fract_x
_atom_site_fract_y
_atom_site_fract_z
_atom_site_charge
O 	O 	0.15250 0.05790 0.48570 -0.23300
O 	O 	0.30001 0.30730 0.79120 -0.49400
O 	O 	0.27595 0.15320 0.37710 -0.68600
C 	C 	0.05020 0.06750 0.69130 0.01300
H 	H 	0.02910 0.11130 0.59570 -0.03800
C 	C 	0.08420 0.07130 0.62370 -0.11000
H 	H 	0.08690 0.11360 0.47880 0.05400
C 	C 	0.11452 0.01440 0.76350 -0.03900
C 	C 	0.11080 0.95130 0.97020 -0.14200
H 	H 	0.13180 0.90810 0.06650 0.07400
C 	C 	0.07670 0.95010 0.03840 -0.20800
H 	H 	0.07430 0.91390 0.18570 0.05400
C 	C 	0.32740 0.08670 0.03280 0.10800
C 	C 	0.36080 0.09720 0.95400 0.49000
H 	H 	0.36210 0.14890 0.81180 -0.13600
C 	C 	0.39230 0.03290 0.08060 -0.44000
H 	H 	0.41530 0.03730 0.02500 1.08800
C 	C 	0.39036 0.96240 0.28710 1.67800
H 	H 	0.41230 0.92320 0.37720 -0.53700
C 	C 	0.35700 0.94810 0.36500 2.80300
H 	H 	0.35600 0.90110 0.50970 -0.86600
C 	C 	0.29370 0.14700 0.87500 0.31500
O 	O 	0.65250 0.55790 0.48570 -0.35200
O 	O 	0.80001 0.80730 0.79120 -0.52900
O 	O 	0.77595 0.65320 0.37710 -0.71300
C 	C 	0.55020 0.56750 0.69130 -0.41700
H 	H 	0.52910 0.61130 0.59570 0.08200
C 	C 	0.58420 0.57130 0.62370 -0.19500
H 	H 	0.58690 0.61360 0.47880 0.06400
C 	C 	0.61452 0.51440 0.76350 0.16800
C 	C 	0.61080 0.45130 0.97020 -1.56800
H 	H 	0.63180 0.40810 0.06650 0.50400
C 	C 	0.57670 0.45010 0.03840 -1.62600
H 	H 	0.57430 0.41390 0.18570 0.47200
C 	C 	0.82740 0.58670 0.03280 -0.05400
C 	C 	0.86080 0.59720 0.95400 0.00700
H 	H 	0.86210 0.64890 0.81180 0.02400
C 	C 	0.89230 0.53290 0.08060 -0.02500
H 	H 	0.91530 0.53730 0.02500 0.03000
C 	C 	0.89036 0.46240 0.28710 -0.01900
H 	H 	0.91230 0.42320 0.37720 0.01700
C 	C 	0.85700 0.44810 0.36500 0.02400
H 	H 	0.85600 0.40110 0.50970 0.00000
C 	C 	0.79370 0.64700 0.87500 0.33600
O 	O 	0.84750 0.05790 0.51430 -0.23100
O 	O 	0.69999 0.30730 0.20880 -0.49100
O 	O 	0.72405 0.15320 0.62290 -0.69000
C 	C 	0.94980 0.06750 0.30870 0.00700
H 	H 	0.97090 0.11130 0.40430 -0.03300
C 	C 	0.91580 0.07130 0.37630 -0.13000
H 	H 	0.91310 0.11360 0.52120 0.06400
C 	C 	0.88548 0.01440 0.23650 -0.01300
C 	C 	0.88920 0.95130 0.02980 -0.26500
H 	H 	0.86820 0.90810 0.93350 0.12800
C 	C 	0.92330 0.95010 0.96160 -0.18400
H 	H 	0.92570 0.91390 0.81430 0.04900
C 	C 	0.67260 0.08670 0.96720 0.18700
C 	C 	0.63920 0.09720 0.04600 0.41100
H 	H 	0.63790 0.14890 0.18820 -0.11200
C 	C 	0.60770 0.03290 0.91940 -0.41000
H 	H 	0.58470 0.03730 0.97500 1.10700
C 	C 	0.60964 0.96240 0.71290 1.68600
H 	H 	0.58770 0.92320 0.62280 -0.53900
C 	C 	0.64300 0.94810 0.63500 2.86600
H 	H 	0.64400 0.90110 0.49030 -0.88800
C 	C 	0.70630 0.14700 0.12500 0.27000
O 	O 	0.34750 0.55790 0.51430 -0.34900
O 	O 	0.19999 0.80730 0.20880 -0.52500
O 	O 	0.22405 0.65320 0.62290 -0.71600
C 	C 	0.44980 0.56750 0.30870 -0.40200
H 	H 	0.47090 0.61130 0.40430 0.07600
C 	C 	0.41580 0.57130 0.37630 -0.20200
H 	H 	0.41310 0.61360 0.52120 0.06900
C 	C 	0.38548 0.51440 0.23650 0.18100
C 	C 	0.38920 0.45130 0.02980 -1.59600
H 	H 	0.36820 0.40810 0.93350 0.53300
C 	C 	0.42330 0.45010 0.96160 -1.53400
H 	H 	0.42570 0.41390 0.81430 0.44700
C 	C 	0.17260 0.58670 0.96720 0.00900
C 	C 	0.13920 0.59720 0.04600 -0.06900
H 	H 	0.13790 0.64890 0.18820 0.04700
C 	C 	0.10770 0.53290 0.91940 0.01900
H 	H 	0.08470 0.53730 0.97500 0.01800
C 	C 	0.10964 0.46240 0.71290 -0.04400
H 	H 	0.08770 0.42320 0.62280 0.02500
C 	C 	0.14300 0.44810 0.63500 0.03600
H 	H 	0.14400 0.40110 0.49030 -0.00600
C 	C 	0.20630 0.64700 0.12500 0.29700
O 	O 	0.84750 0.94210 0.51430 -0.32500
O 	O 	0.69999 0.69270 0.20880 -0.48700
O 	O 	0.72405 0.84680 0.62290 -0.79900
C 	C 	0.94980 0.93250 0.30870 0.01100
H 	H 	0.97090 0.88870 0.40430 -0.02500
C 	C 	0.91580 0.92870 0.37630 0.04600
H 	H 	0.91310 0.88640 0.52120 0.00900
C 	C 	0.88548 0.98560 0.23650 -0.01400
C 	C 	0.88920 0.04870 0.02980 0.13600
H 	H 	0.86820 0.09190 0.93350 0.02500
C 	C 	0.92330 0.04990 0.96160 0.25700
H 	H 	0.92570 0.08610 0.81430 -0.08700
C 	C 	0.67260 0.91330 0.96720 -0.25200
C 	C 	0.63920 0.90280 0.04600 -0.51600
H 	H 	0.63790 0.85110 0.18820 0.19000
C 	C 	0.60770 0.96710 0.91940 0.41300
H 	H 	0.58470 0.96270 0.97500 -1.09300
C 	C 	0.60964 0.03760 0.71290 -1.73300
H 	H 	0.58770 0.07680 0.62280 0.57500
C 	C 	0.64300 0.05190 0.63500 -2.92100
H 	H 	0.64400 0.09890 0.49030 0.91700
C 	C 	0.70630 0.85300 0.12500 0.26700
O 	O 	0.34750 0.44210 0.51430 -0.18400
O 	O 	0.19999 0.19270 0.20880 -0.49600
O 	O 	0.22405 0.34680 0.62290 -0.70300
C 	C 	0.44980 0.43250 0.30870 0.41500
H 	H 	0.47090 0.38870 0.40430 -0.13900
C 	C 	0.41580 0.42870 0.37630 0.11700
H 	H 	0.41310 0.38640 0.52120 0.00400
C 	C 	0.38548 0.48560 0.23650 -0.20100
C 	C 	0.38920 0.54870 0.02980 1.46900
H 	H 	0.36820 0.59190 0.93350 -0.38100
C 	C 	0.42330 0.54990 0.96160 1.59900
H 	H 	0.42570 0.58610 0.81430 -0.48400
C 	C 	0.17260 0.41330 0.96720 0.01600
C 	C 	0.13920 0.40280 0.04600 -0.07800
H 	H 	0.13790 0.35110 0.18820 0.04600
C 	C 	0.10770 0.46710 0.91940 0.01400
H 	H 	0.08470 0.46270 0.97500 -0.01400
C 	C 	0.10964 0.53760 0.71290 -0.05200
H 	H 	0.08770 0.57680 0.62280 0.02800
C 	C 	0.14300 0.55190 0.63500 0.02500
H 	H 	0.14400 0.59890 0.49030 -0.00000
C 	C 	0.20630 0.35300 0.12500 0.29700
O 	O 	0.15250 0.94210 0.48570 -0.32600
O 	O 	0.30001 0.69270 0.79120 -0.48900
O 	O 	0.27595 0.84680 0.37710 -0.79300
C 	C 	0.05020 0.93250 0.69130 -0.00600
H 	H 	0.02910 0.88870 0.59570 -0.02300
C 	C 	0.08420 0.92870 0.62370 0.04900
H 	H 	0.08690 0.88640 0.47880 0.00500
C 	C 	0.11452 0.98560 0.76350 -0.02200
C 	C 	0.11080 0.04870 0.97020 0.14200
H 	H 	0.13180 0.09190 0.06650 0.00000
C 	C 	0.07670 0.04990 0.03840 0.17500
H 	H 	0.07430 0.08610 0.18570 -0.06600
C 	C 	0.32740 0.91330 0.03280 -0.30400
C 	C 	0.36080 0.90280 0.95400 -0.44300
H 	H 	0.36210 0.85110 0.81180 0.16800
C 	C 	0.39230 0.96710 0.08060 0.36000
H 	H 	0.41530 0.96270 0.02500 -1.06400
C 	C 	0.39036 0.03760 0.28710 -1.68600
H 	H 	0.41230 0.07680 0.37720 0.56000
C 	C 	0.35700 0.05190 0.36500 -2.89600
H 	H 	0.35600 0.09890 0.50970 0.91200
C 	C 	0.29370 0.85300 0.87500 0.30300
O 	O 	0.65250 0.44210 0.48570 -0.18500
O 	O 	0.80001 0.19270 0.79120 -0.49900
O 	O 	0.77595 0.34680 0.37710 -0.70000
C 	C 	0.55020 0.43250 0.69130 0.42000
H 	H 	0.52910 0.38870 0.59570 -0.13900
C 	C 	0.58420 0.42870 0.62370 0.13300
H 	H 	0.58690 0.38640 0.47880 -0.00400
C 	C 	0.61452 0.48560 0.76350 -0.22300
C 	C 	0.61080 0.54870 0.97020 1.57500
H 	H 	0.63180 0.59190 0.06650 -0.43300
C 	C 	0.57670 0.54990 0.03840 1.58300
H 	H 	0.57430 0.58610 0.18570 -0.48100
C 	C 	0.82740 0.41330 0.03280 -0.05300
C 	C 	0.86080 0.40280 0.95400 -0.00100
H 	H 	0.86210 0.35110 0.81180 0.02400
C 	C 	0.89230 0.46710 0.08060 -0.02600
H 	H 	0.91530 0.46270 0.02500 -0.01600
C 	C 	0.89036 0.53760 0.28710 -0.03800
H 	H 	0.91230 0.57680 0.37720 0.02400
C 	C 	0.85700 0.55190 0.36500 -0.00300
H 	H 	0.85600 0.59890 0.50970 0.01100
C 	C 	0.79370 0.35300 0.87500 0.33900
Nd	Nd	0.21959 0.00000 0.52149 2.62800
O 	O 	0.17930 -0.00000 0.80790 -0.46300
O 	O 	0.26750 -0.00000 0.84110 -0.51100
N 	N 	0.04642 -0.00000 0.89870 -0.24300
C 	C 	0.15080 0.00000 0.67800 0.38200
C 	C 	0.32548 0.00000 0.23810 0.01400
C 	C 	0.29030 -0.00000 0.33180 0.59400
Nd	Nd	0.71959 0.50000 0.52149 2.49300
O 	O 	0.67930 0.50000 0.80790 -0.46200
O 	O 	0.76750 0.50000 0.84110 -0.56400
N 	N 	0.54642 0.50000 0.89870 -0.23500
C 	C 	0.65080 0.50000 0.67800 0.36200
C 	C 	0.82548 0.50000 0.23810 -0.15000
C 	C 	0.79030 0.50000 0.33180 0.53000
Nd	Nd	0.78041 -0.00000 0.47851 2.62800
O 	O 	0.82070 -0.00000 0.19210 -0.47200
O 	O 	0.73250 -0.00000 0.15890 -0.50500
N 	N 	0.95358 -0.00000 0.10130 -0.27800
C 	C 	0.84920 0.00000 0.32200 0.36800
C 	C 	0.67452 0.00000 0.76190 -0.03400
C 	C 	0.70970 0.00000 0.66820 0.61900
Nd	Nd	0.28041 0.50000 0.47851 2.48900
O 	O 	0.32070 0.50000 0.19210 -0.47100
O 	O 	0.23250 0.50000 0.15890 -0.55700
N 	N 	0.45358 0.50000 0.10130 -0.27100
C 	C 	0.34920 0.50000 0.32200 0.34700
C 	C 	0.17452 0.50000 0.76190 -0.20100
C 	C 	0.20970 0.50000 0.66820 0.55300
Cu	Cu	-0.00000 0.00000 -0.00000 0.78300
Cu	Cu	0.50000 0.50000 -0.00000 0.79000
