data_crystal

_cell_length_a 24.08700
_cell_length_b 5.38120
_cell_length_c 6.66000
_cell_angle_alpha 90.00000
_cell_angle_beta  90.00000
_cell_angle_gamma 90.00000

_symmetry_space_group_name_	'P 1'
_symmetry_space_group_name_H-M	'P 1'

loop_
_symmetry_equiv_pos_as_xyz
  x,y,z

loop_
_atom_site_label
_atom_site_type_symbol
_atom_site_fract_x
_atom_site_fract_y
_atom_site_fract_z
_atom_site_charge
O 	O 	0.68270 0.45760 0.18550 -0.70000
O 	O 	0.55030 0.93760 0.68860 -0.23500
O 	O 	0.31730 0.54240 0.18550 -0.69700
O 	O 	0.44970 0.06240 0.68860 -0.25100
O 	O 	0.81730 0.95760 0.31450 -0.68500
O 	O 	0.94970 0.43760 0.81140 -0.12400
O 	O 	0.18270 0.04240 0.31450 -0.69700
O 	O 	0.05030 0.56240 0.81140 -0.13400
O 	O 	0.31730 0.54240 0.81450 -0.53800
O 	O 	0.44970 0.06240 0.31140 -0.32700
O 	O 	0.68270 0.45760 0.81450 -0.54000
O 	O 	0.55030 0.93760 0.31140 -0.31000
O 	O 	0.18270 0.04240 0.68550 -0.60700
O 	O 	0.05030 0.56240 0.18860 -0.27200
O 	O 	0.81730 0.95760 0.68550 -0.59500
O 	O 	0.94970 0.43760 0.18860 -0.26200
Zr	Zr	0.68410 0.45000 0.50000 3.21500
P 	P 	0.58720 0.95770 0.50000 0.66800
O 	O 	0.62800 0.74300 0.50000 -0.69300
O 	O 	0.61760 0.20500 0.50000 -0.67700
Zr	Zr	0.31590 0.55000 0.50000 3.21400
P 	P 	0.41280 0.04230 0.50000 0.63700
O 	O 	0.37200 0.25700 0.50000 -0.69500
O 	O 	0.38240 0.79500 0.50000 -0.64700
Zr	Zr	0.81590 0.95000 -0.00000 3.20100
P 	P 	0.91280 0.45770 -0.00000 0.53900
O 	O 	0.87200 0.24300 -0.00000 -0.71700
O 	O 	0.88240 0.70500 -0.00000 -0.72500
Zr	Zr	0.18410 0.05000 -0.00000 3.19800
P 	P 	0.08720 0.54230 -0.00000 0.53900
O 	O 	0.12800 0.75700 -0.00000 -0.70400
O 	O 	0.11760 0.29500 -0.00000 -0.73400
P 	P 	0.72070 0.44370 -0.00000 0.65800
O 	O 	0.76110 0.65950 -0.00000 -0.83000
O 	O 	0.75260 0.19750 -0.00000 -0.81300
P 	P 	0.27930 0.55630 -0.00000 0.65800
O 	O 	0.23890 0.34050 -0.00000 -0.83500
O 	O 	0.24740 0.80250 -0.00000 -0.79600
P 	P 	0.77930 0.94370 0.50000 0.76800
O 	O 	0.73890 0.15950 0.50000 -0.73700
O 	O 	0.74740 0.69750 0.50000 -0.75800
P 	P 	0.22070 0.05630 0.50000 0.74200
O 	O 	0.26110 0.84050 0.50000 -0.71000
O 	O 	0.25260 0.30250 0.50000 -0.75900
H 	H 	0.50000 0.00000 0.31140 0.18500
H 	H 	0.00000 0.50000 0.18860 0.16800
H 	H 	0.50000 -0.00000 0.68860 0.20700
H 	H 	0.00000 0.50000 0.81140 0.20700
