data_crystal

_cell_length_a 11.65750
_cell_length_b 10.10530
_cell_length_c 14.87900
_cell_angle_alpha 90.00000
_cell_angle_beta  91.63300
_cell_angle_gamma 90.00000

_symmetry_space_group_name_	'P 1'
_symmetry_space_group_name_H-M	'P 1'

loop_
_symmetry_equiv_pos_as_xyz
  x,y,z

loop_
_atom_site_label
_atom_site_type_symbol
_atom_site_fract_x
_atom_site_fract_y
_atom_site_fract_z
_atom_site_charge
Mn	Mn	0.73947 0.59944 0.31509 1.32600
Mn	Mn	0.24317 0.58462 0.86883 1.30800
O 	O 	0.09858 0.66260 0.93979 -0.76000
O 	O 	0.68612 0.52880 0.02157 -0.68600
O 	O 	0.85165 0.57600 0.19750 -0.63500
O 	O 	0.62704 0.49810 0.21960 -0.57200
O 	O 	0.51900 0.28760 0.00203 -0.51400
O 	O 	0.69174 0.79190 0.25249 -0.57800
O 	O 	0.10660 0.87960 0.90936 -0.66600
O 	O 	0.65347 0.23670 0.10685 -0.60600
O 	O 	0.46123 0.49770 0.14117 -0.47200
O 	O 	0.68420 0.92470 0.13167 -0.42200
O 	O 	0.01290 0.61160 0.12341 -0.61500
O 	O 	0.84620 0.60740 0.96224 -0.36400
C 	C 	0.94770 0.63100 0.18600 0.73400
C 	C 	0.66940 0.81720 0.17000 0.53200
C 	C 	0.57350 0.20810 0.04950 0.48100
C 	C 	0.51860 0.50920 0.21170 0.46300
C 	C 	0.06540 0.78230 0.94730 1.34600
C 	C 	0.74120 0.60280 0.96780 0.60400
H 	H 	0.01880 0.78220 0.97770 -0.60100
H 	H 	0.55400 0.11310 0.04210 -0.15500
H 	H 	0.64570 0.74900 0.13440 -0.15900
H 	H 	0.47810 0.51300 0.27040 -0.08200
H 	H 	0.69190 0.66420 0.92730 -0.07400
H 	H 	0.97940 0.68170 0.23190 -0.16500
Mn	Mn	0.76053 0.09944 0.18491 1.29300
Mn	Mn	0.25683 0.08462 0.63117 1.27500
O 	O 	0.40142 0.16260 0.56021 -0.84600
O 	O 	0.81388 0.02880 0.47843 -0.59500
O 	O 	0.64835 0.07600 0.30250 -0.65000
O 	O 	0.87296 0.99810 0.28040 -0.45400
O 	O 	0.98100 0.78760 0.49797 -0.34100
O 	O 	0.80826 0.29190 0.24751 -0.58900
O 	O 	0.39340 0.37960 0.59064 -0.73900
O 	O 	0.84653 0.73670 0.39315 -0.55000
O 	O 	0.03877 0.99770 0.35883 -0.43400
O 	O 	0.81580 0.42470 0.36833 -0.44500
O 	O 	0.48710 0.11160 0.37659 -0.49000
O 	O 	0.65380 0.10740 0.53776 -0.44900
C 	C 	0.55230 0.13100 0.31400 0.55200
C 	C 	0.83060 0.31720 0.33000 0.53600
C 	C 	0.92650 0.70810 0.45050 0.44500
C 	C 	0.98140 0.00920 0.28830 0.48000
C 	C 	0.43460 0.28230 0.55270 1.47200
C 	C 	0.75880 0.10280 0.53220 0.44200
H 	H 	0.48120 0.28220 0.52230 -0.68500
H 	H 	0.94600 0.61310 0.45790 -0.04700
H 	H 	0.85430 0.24900 0.36560 -0.13400
H 	H 	0.02190 0.01300 0.22960 -0.21300
H 	H 	0.80810 0.16420 0.57270 -0.05000
H 	H 	0.52060 0.18170 0.26810 -0.16100
Mn	Mn	0.26053 0.40056 0.68491 1.32100
Mn	Mn	0.75683 0.41538 0.13117 1.31000
O 	O 	0.90142 0.33740 0.06021 -0.81800
O 	O 	0.31388 0.47120 0.97843 -0.42900
O 	O 	0.14835 0.42400 0.80250 -0.54000
O 	O 	0.37296 0.50190 0.78040 -0.56500
O 	O 	0.48100 0.71240 0.99797 -0.35900
O 	O 	0.30826 0.20810 0.74751 -0.60600
O 	O 	0.89340 0.12040 0.09064 -0.77300
O 	O 	0.34653 0.76330 0.89315 -0.55000
O 	O 	0.53877 0.50230 0.85883 -0.40200
O 	O 	0.31580 0.07530 0.86833 -0.49900
O 	O 	0.98710 0.38840 0.87659 -0.24300
O 	O 	0.15380 0.39260 0.03776 -0.46100
C 	C 	0.05230 0.36900 0.81400 0.31900
C 	C 	0.33060 0.18280 0.83000 0.53600
C 	C 	0.42650 0.79190 0.95050 0.43900
C 	C 	0.48140 0.49080 0.78830 0.44600
C 	C 	0.93460 0.21770 0.05270 1.48600
C 	C 	0.25880 0.39720 0.03220 0.26600
H 	H 	0.98120 0.21780 0.02230 -0.70400
H 	H 	0.44600 0.88690 0.95790 -0.01300
H 	H 	0.35430 0.25100 0.86560 -0.12700
H 	H 	0.52190 0.48700 0.72960 -0.06400
H 	H 	0.30810 0.33580 0.07270 -0.05300
H 	H 	0.02060 0.31830 0.76810 -0.10300
Mn	Mn	0.23947 0.90056 0.81509 1.35200
Mn	Mn	0.74317 0.91538 0.36883 1.34100
O 	O 	0.59858 0.83740 0.43979 -0.75200
O 	O 	0.18612 0.97120 0.52157 -0.51100
O 	O 	0.35165 0.92400 0.69750 -0.52900
O 	O 	0.12704 0.00190 0.71960 -0.68500
O 	O 	0.01900 0.21240 0.50203 -0.52000
O 	O 	0.19174 0.70810 0.75249 -0.59500
O 	O 	0.60660 0.62040 0.40936 -0.70800
O 	O 	0.15347 0.26330 0.60685 -0.60400
O 	O 	0.96123 0.00230 0.64117 -0.42600
O 	O 	0.18420 0.57530 0.63167 -0.47800
O 	O 	0.51290 0.88840 0.62341 -0.38600
O 	O 	0.34620 0.89260 0.46224 -0.38800
C 	C 	0.44770 0.86900 0.68600 0.50800
C 	C 	0.16940 0.68280 0.67000 0.53100
C 	C 	0.07350 0.29190 0.54950 0.47100
C 	C 	0.01860 0.99080 0.71170 0.43600
C 	C 	0.56540 0.71770 0.44730 1.38700
C 	C 	0.24120 0.89720 0.46780 0.43200
H 	H 	0.51880 0.71780 0.47770 -0.63600
H 	H 	0.05400 0.38690 0.54210 -0.11900
H 	H 	0.14570 0.75100 0.63440 -0.15100
H 	H 	0.97810 0.98700 0.77040 0.05800
H 	H 	0.19190 0.83580 0.42730 -0.07500
H 	H 	0.47940 0.81830 0.73190 -0.11000
Mn	Mn	-0.00000 0.50000 -0.00000 1.25000
Mn	Mn	0.50000 0.00000 0.50000 1.29800
Mn	Mn	0.50000 0.50000 -0.00000 1.27300
Mn	Mn	0.00000 0.00000 0.50000 1.23100
