data_crystal

_cell_length_a 10.15100
_cell_length_b 11.69540
_cell_length_c 14.91620
_cell_angle_alpha 91.64200
_cell_angle_beta  90.00000
_cell_angle_gamma 90.00000

_symmetry_space_group_name_	'P 1'
_symmetry_space_group_name_H-M	'P 1'

loop_
_symmetry_equiv_pos_as_xyz
  x,y,z

loop_
_atom_site_label
_atom_site_type_symbol
_atom_site_fract_x
_atom_site_fract_y
_atom_site_fract_z
_atom_site_charge
Mn	Mn	0.10269 0.76039 0.18599 1.29900
Mn	Mn	0.91740 0.74321 0.36901 1.35100
Mn	Mn	0.60269 0.73961 0.31401 1.31600
Mn	Mn	0.41740 0.75679 0.13099 1.30400
Mn	Mn	0.89731 0.23961 0.81401 1.33000
Mn	Mn	0.08260 0.25679 0.63099 1.25500
Mn	Mn	0.39731 0.26039 0.68599 1.31200
Mn	Mn	0.58260 0.24321 0.86901 1.30300
Mn	Mn	-0.00000 0.50000 0.50000 1.27700
Mn	Mn	0.50000 0.00000 -0.00000 1.25200
Mn	Mn	-0.00000 0.00000 0.50000 1.25500
Mn	Mn	0.50000 0.50000 -0.00000 1.27700
H 	H 	0.24730 0.85520 0.37140 -0.07800
H 	H 	0.83890 0.19120 0.42930 -0.06800
H 	H 	0.01300 0.01690 0.23320 -0.27700
H 	H 	0.38460 0.05140 0.54380 -0.10300
H 	H 	0.19660 0.52300 0.26410 -0.09500
H 	H 	0.70590 0.49800 0.48500 -0.07100
H 	H 	0.74730 0.64480 0.12860 -0.10400
H 	H 	0.33890 0.30880 0.07070 -0.05900
H 	H 	0.51300 0.48310 0.26680 -0.11800
H 	H 	0.88460 0.44860 0.95620 -0.01500
H 	H 	0.69660 0.97700 0.23590 -0.07700
H 	H 	0.20590 0.00200 0.01500 -0.20300
H 	H 	0.75270 0.14480 0.62860 -0.09600
H 	H 	0.16110 0.80880 0.57070 -0.08300
H 	H 	0.98700 0.98310 0.76680 0.05100
H 	H 	0.61540 0.94860 0.45620 -0.06400
H 	H 	0.80340 0.47700 0.73590 -0.06500
H 	H 	0.29410 0.50200 0.51500 -0.08100
H 	H 	0.25270 0.35520 0.87140 -0.07100
H 	H 	0.66110 0.69120 0.92930 -0.09300
H 	H 	0.48700 0.51690 0.73320 -0.10400
H 	H 	0.11540 0.55140 0.04380 -0.15200
H 	H 	0.30340 0.02300 0.76410 -0.08200
H 	H 	0.79410 0.99800 0.98500 0.05300
C 	C 	0.32150 0.82940 0.32944 0.45500
C 	C 	0.13130 0.55240 0.31473 0.45100
C 	C 	0.01330 0.98008 0.28962 0.78100
C 	C 	0.28950 0.07350 0.55150 0.46800
C 	C 	0.72020 0.56570 0.44537 0.44400
C 	C 	0.89990 0.24216 0.46728 0.45900
C 	C 	0.82150 0.67060 0.17056 0.45100
C 	C 	0.63130 0.94760 0.18527 0.54200
C 	C 	0.51330 0.51992 0.21038 0.52000
C 	C 	0.78950 0.42650 0.94850 0.44500
C 	C 	0.22020 0.93430 0.05463 0.56500
C 	C 	0.39990 0.25784 0.03272 0.29100
C 	C 	0.67850 0.17060 0.67056 0.45200
C 	C 	0.86870 0.44760 0.68527 0.44200
C 	C 	0.98670 0.01992 0.71038 0.24700
C 	C 	0.71050 0.92650 0.44850 0.45800
C 	C 	0.27980 0.43430 0.55463 0.46200
C 	C 	0.10010 0.75784 0.53272 0.45900
C 	C 	0.17850 0.32940 0.82944 0.45700
C 	C 	0.36870 0.05240 0.81473 0.34400
C 	C 	0.48670 0.48008 0.78962 0.50000
C 	C 	0.21050 0.57350 0.05150 0.48200
C 	C 	0.77980 0.06570 0.94537 0.33900
C 	C 	0.60010 0.74216 0.96728 0.62800
O 	O 	0.29583 0.80660 0.24818 -0.57000
O 	O 	0.83909 0.59870 0.43906 -0.53400
O 	O 	0.97161 0.18624 0.52102 -0.51900
O 	O 	0.26108 0.15360 0.60717 -0.61000
O 	O 	0.07801 0.64874 0.30339 -0.61500
O 	O 	0.00284 0.87254 0.28166 -0.70100
O 	O 	0.00070 0.03714 0.35912 -0.64100
O 	O 	0.62407 0.60713 0.40734 -0.45000
O 	O 	0.42893 0.81504 0.36733 -0.44200
O 	O 	0.89537 0.34637 0.46262 -0.42000
O 	O 	0.11130 0.48822 0.37675 -0.48400
O 	O 	0.21121 0.01833 0.50420 -0.49500
O 	O 	0.79583 0.69340 0.25182 -0.55200
O 	O 	0.33909 0.90130 0.06094 -0.61700
O 	O 	0.47161 0.31376 0.97898 -0.44400
O 	O 	0.76108 0.34640 0.89283 -0.55500
O 	O 	0.57801 0.85126 0.19661 -0.59600
O 	O 	0.50284 0.62746 0.21834 -0.59600
O 	O 	0.50070 0.46286 0.14088 -0.49100
O 	O 	0.12407 0.89287 0.09266 -0.52100
O 	O 	0.92893 0.68496 0.13267 -0.40700
O 	O 	0.39537 0.15363 0.03738 -0.47100
O 	O 	0.61130 0.01178 0.12325 -0.54900
O 	O 	0.71121 0.48167 0.99580 -0.36600
O 	O 	0.70417 0.19340 0.75182 -0.58000
O 	O 	0.16091 0.40130 0.56094 -0.61100
O 	O 	0.02839 0.81376 0.47898 -0.61400
O 	O 	0.73892 0.84640 0.39283 -0.55500
O 	O 	0.92199 0.35126 0.69661 -0.53100
O 	O 	0.99716 0.12746 0.71834 -0.48300
O 	O 	0.99930 0.96286 0.64088 -0.27500
O 	O 	0.37593 0.39287 0.59266 -0.46000
O 	O 	0.57107 0.18496 0.63267 -0.46000
O 	O 	0.10463 0.65363 0.53738 -0.48800
O 	O 	0.88870 0.51178 0.62325 -0.39800
O 	O 	0.78879 0.98167 0.49580 -0.37900
O 	O 	0.20417 0.30660 0.74818 -0.59900
O 	O 	0.66091 0.09870 0.93906 -0.52100
O 	O 	0.52839 0.68624 0.02102 -0.69700
O 	O 	0.23892 0.65360 0.10717 -0.61000
O 	O 	0.42199 0.14874 0.80339 -0.54800
O 	O 	0.49716 0.37254 0.78166 -0.58800
O 	O 	0.49930 0.53714 0.85912 -0.42800
O 	O 	0.87593 0.10713 0.90734 -0.38700
O 	O 	0.07107 0.31504 0.86733 -0.49700
O 	O 	0.60463 0.84637 0.96262 -0.42900
O 	O 	0.38870 0.98822 0.87675 -0.32100
O 	O 	0.28879 0.51833 0.00420 -0.51300
