data_crystal

_cell_length_a 10.13090
_cell_length_b 11.68290
_cell_length_c 14.89520
_cell_angle_alpha 91.62500
_cell_angle_beta  90.00000
_cell_angle_gamma 90.00000

_symmetry_space_group_name_	'P 1'
_symmetry_space_group_name_H-M	'P 1'

loop_
_symmetry_equiv_pos_as_xyz
  x,y,z

loop_
_atom_site_label
_atom_site_type_symbol
_atom_site_fract_x
_atom_site_fract_y
_atom_site_fract_z
_atom_site_charge
Mn	Mn	0.10133 0.76050 0.18548 1.29700
Mn	Mn	0.58347 0.24323 0.86900 1.30400
Mn	Mn	0.60133 0.73950 0.31452 1.31700
Mn	Mn	0.08347 0.25677 0.63100 1.24900
Mn	Mn	0.89867 0.23950 0.81452 1.33300
Mn	Mn	0.41653 0.75677 0.13100 1.30400
Mn	Mn	0.39867 0.26050 0.68548 1.31200
Mn	Mn	0.91653 0.74323 0.36900 1.35500
Mn	Mn	0.50000 0.00000 -0.00000 1.23400
Mn	Mn	0.00000 0.50000 0.50000 1.27000
Mn	Mn	0.50000 0.50000 -0.00000 1.27500
Mn	Mn	0.00000 -0.00000 0.50000 1.22800
H 	H 	0.24820 0.86190 0.37060 -0.07200
H 	H 	0.88560 0.44670 0.95720 -0.01100
H 	H 	0.34020 0.30850 0.07610 -0.05500
H 	H 	0.20330 0.99500 0.01030 -0.11100
H 	H 	0.30940 0.02410 0.76710 -0.09600
H 	H 	0.48130 0.51900 0.73320 -0.09800
H 	H 	0.74820 0.63810 0.12940 -0.10300
H 	H 	0.38560 0.05330 0.54280 -0.11900
H 	H 	0.84020 0.19150 0.42390 -0.06900
H 	H 	0.70330 0.50500 0.48970 -0.07800
H 	H 	0.80940 0.47590 0.73290 -0.09100
H 	H 	0.98130 0.98100 0.76680 0.05800
H 	H 	0.75180 0.13810 0.62940 -0.10000
H 	H 	0.11440 0.55330 0.04280 -0.16100
H 	H 	0.65980 0.69150 0.92390 -0.07100
H 	H 	0.79670 0.00500 0.98970 -0.05300
H 	H 	0.69060 0.97590 0.23290 -0.12600
H 	H 	0.51870 0.48100 0.26680 -0.11700
H 	H 	0.25180 0.36190 0.87060 -0.07200
H 	H 	0.61440 0.94670 0.45720 -0.05300
H 	H 	0.15980 0.80850 0.57610 -0.05300
H 	H 	0.29670 0.49500 0.51030 -0.09100
H 	H 	0.19060 0.52410 0.26710 -0.13200
H 	H 	0.01870 0.01900 0.23320 -0.29200
C 	C 	0.36930 0.05210 0.81413 0.30600
C 	C 	0.31980 0.82980 0.32965 0.45100
C 	C 	0.79040 0.42630 0.94936 0.44700
C 	C 	0.21960 0.93450 0.05405 0.47900
C 	C 	0.48860 0.48040 0.78916 0.49400
C 	C 	0.39930 0.25780 0.03280 0.27600
C 	C 	0.86930 0.44790 0.68587 0.47900
C 	C 	0.81980 0.67020 0.17035 0.44800
C 	C 	0.29040 0.07370 0.55064 0.47900
C 	C 	0.71960 0.56550 0.44595 0.45500
C 	C 	0.98860 0.01960 0.71084 0.34300
C 	C 	0.89930 0.24220 0.46720 0.43400
C 	C 	0.63070 0.94790 0.18587 0.66300
C 	C 	0.68020 0.17020 0.67035 0.45000
C 	C 	0.20960 0.57370 0.05064 0.48800
C 	C 	0.78040 0.06550 0.94595 0.44900
C 	C 	0.51140 0.51960 0.21084 0.51400
C 	C 	0.60070 0.74220 0.96720 0.60400
C 	C 	0.13070 0.55210 0.31413 0.50000
C 	C 	0.18020 0.32980 0.82965 0.45500
C 	C 	0.70960 0.92630 0.44936 0.45200
C 	C 	0.28040 0.43450 0.55405 0.47700
C 	C 	0.01140 0.98040 0.28916 0.68900
C 	C 	0.10070 0.75780 0.53280 0.44500
O 	O 	0.47178 0.31387 0.97893 -0.43900
O 	O 	0.29441 0.80685 0.24786 -0.56400
O 	O 	0.76207 0.34655 0.89320 -0.55300
O 	O 	0.33845 0.90140 0.06071 -0.58700
O 	O 	0.49899 0.37271 0.78123 -0.58700
O 	O 	0.50070 0.53766 0.85892 -0.42100
O 	O 	0.12276 0.89304 0.09201 -0.49000
O 	O 	0.38900 0.98780 0.87648 -0.27300
O 	O 	0.42314 0.14863 0.80294 -0.54300
O 	O 	0.42699 0.81516 0.36791 -0.43400
O 	O 	0.71152 0.48132 0.99666 -0.36300
O 	O 	0.39461 0.15370 0.03742 -0.48800
O 	O 	0.97178 0.18613 0.52107 -0.51100
O 	O 	0.79441 0.69315 0.25214 -0.54700
O 	O 	0.26207 0.15345 0.60680 -0.61700
O 	O 	0.83845 0.59860 0.43929 -0.53000
O 	O 	0.99899 0.12729 0.71877 -0.49900
O 	O 	0.00070 0.96234 0.64108 -0.42900
O 	O 	0.62276 0.60696 0.40799 -0.45000
O 	O 	0.88900 0.51220 0.62352 -0.39600
O 	O 	0.92314 0.35137 0.69706 -0.53100
O 	O 	0.92699 0.68484 0.13209 -0.39400
O 	O 	0.21152 0.01868 0.50334 -0.52500
O 	O 	0.89461 0.34630 0.46258 -0.41000
O 	O 	0.52822 0.68613 0.02107 -0.69000
O 	O 	0.70559 0.19315 0.75214 -0.58100
O 	O 	0.23793 0.65345 0.10680 -0.61200
O 	O 	0.66155 0.09860 0.93929 -0.55200
O 	O 	0.50101 0.62729 0.21877 -0.59400
O 	O 	0.49930 0.46234 0.14108 -0.49000
O 	O 	0.87724 0.10696 0.90799 -0.41800
O 	O 	0.61100 0.01220 0.12352 -0.60900
O 	O 	0.57686 0.85137 0.19706 -0.62100
O 	O 	0.57301 0.18484 0.63209 -0.46400
O 	O 	0.28848 0.51868 0.00334 -0.51800
O 	O 	0.60539 0.84630 0.96258 -0.39700
O 	O 	0.02822 0.81387 0.47893 -0.60200
O 	O 	0.20559 0.30685 0.74786 -0.60100
O 	O 	0.73793 0.84655 0.39320 -0.54800
O 	O 	0.16155 0.40140 0.56071 -0.62100
O 	O 	0.00101 0.87271 0.28123 -0.68200
O 	O 	0.99930 0.03766 0.35892 -0.46700
O 	O 	0.37724 0.39304 0.59201 -0.46300
O 	O 	0.11100 0.48780 0.37648 -0.50400
O 	O 	0.07686 0.64863 0.30294 -0.63500
O 	O 	0.07301 0.31516 0.86791 -0.50700
O 	O 	0.78848 0.98132 0.49666 -0.34900
O 	O 	0.10539 0.65370 0.53742 -0.48300
