data_crystal

_cell_length_a 17.51910
_cell_length_b 17.51910
_cell_length_c 15.16300
_cell_angle_alpha 90.00000
_cell_angle_beta  90.00000
_cell_angle_gamma 90.00000

_symmetry_space_group_name_	'P 1'
_symmetry_space_group_name_H-M	'P 1'

loop_
_symmetry_equiv_pos_as_xyz
  x,y,z

loop_
_atom_site_label
_atom_site_type_symbol
_atom_site_fract_x
_atom_site_fract_y
_atom_site_fract_z
_atom_site_charge
Co	Co	0.90112 0.14164 0.96851 1.17900
C 	C 	0.05260 0.12510 0.90330 0.22200
C 	C 	0.00680 0.14630 0.82170 0.17200
H 	H 	0.01990 0.11020 0.77300 -0.02600
C 	C 	0.02920 0.22710 0.79430 -0.56200
H 	H 	0.00180 0.24110 0.74040 0.18100
H 	H 	0.08430 0.22910 0.78340 0.20000
H 	H 	0.01590 0.26290 0.84150 0.18700
C 	C 	0.73690 0.14220 0.88910 0.38900
C 	C 	0.65370 0.13250 0.91170 -0.12400
C 	C 	0.63160 0.12450 0.99930 0.03700
H 	H 	0.66890 0.12660 0.04470 0.02500
C 	C 	0.55510 0.11330 0.02060 -0.09700
H 	H 	0.54050 0.10630 0.08040 0.05800
C 	C 	0.49970 0.11240 0.95430 0.03000
C 	C 	0.52210 0.12120 0.86710 -0.09900
H 	H 	0.48480 0.12090 0.82160 0.05900
C 	C 	0.59870 0.13060 0.84590 0.03500
H 	H 	0.61350 0.13560 0.78600 0.02500
C 	C 	0.41710 0.10430 0.97670 0.06200
C 	C 	0.36680 0.06650 0.92110 -0.13300
H 	H 	0.38510 0.04330 0.86860 0.07200
C 	C 	0.29010 0.06270 0.94180 0.07800
H 	H 	0.25680 0.03680 0.90250 -0.01400
C 	C 	0.30910 0.12960 0.06950 0.07500
H 	H 	0.28920 0.15190 0.12170 -0.01700
C 	C 	0.38630 0.13540 0.05380 -0.13300
H 	H 	0.41850 0.16040 0.09510 0.07300
N 	N 	0.26057 0.09398 0.01492 -0.23800
O 	O 	0.12363 0.11371 0.89667 -0.36900
O 	O 	0.01969 0.12207 0.97695 -0.45700
O 	O 	0.92794 0.13972 0.84133 -0.55700
O 	O 	0.75235 0.14610 0.80792 -0.47300
O 	O 	0.78401 0.14492 0.95070 -0.44800
Co	Co	0.09888 0.85836 0.96851 1.17900
C 	C 	0.94740 0.87490 0.90330 0.22200
C 	C 	0.99320 0.85370 0.82170 0.17200
H 	H 	0.98010 0.88980 0.77300 -0.02600
C 	C 	0.97080 0.77290 0.79430 -0.56200
H 	H 	0.99820 0.75890 0.74040 0.18100
H 	H 	0.91570 0.77090 0.78340 0.20000
H 	H 	0.98410 0.73710 0.84150 0.18700
C 	C 	0.26310 0.85780 0.88910 0.38900
C 	C 	0.34630 0.86750 0.91170 -0.12400
C 	C 	0.36840 0.87550 0.99930 0.03700
H 	H 	0.33110 0.87340 0.04470 0.02500
C 	C 	0.44490 0.88670 0.02060 -0.09700
H 	H 	0.45950 0.89370 0.08040 0.05800
C 	C 	0.50030 0.88760 0.95430 0.03000
C 	C 	0.47790 0.87880 0.86710 -0.09900
H 	H 	0.51520 0.87910 0.82160 0.05900
C 	C 	0.40130 0.86940 0.84590 0.03500
H 	H 	0.38650 0.86440 0.78600 0.02500
C 	C 	0.58290 0.89570 0.97670 0.06200
C 	C 	0.63320 0.93350 0.92110 -0.13300
H 	H 	0.61490 0.95670 0.86860 0.07200
C 	C 	0.70990 0.93730 0.94180 0.07800
H 	H 	0.74320 0.96320 0.90250 -0.01400
C 	C 	0.69090 0.87040 0.06950 0.07500
H 	H 	0.71080 0.84810 0.12170 -0.01700
C 	C 	0.61370 0.86460 0.05380 -0.13300
H 	H 	0.58150 0.83960 0.09510 0.07300
N 	N 	0.73943 0.90602 0.01492 -0.23800
O 	O 	0.87637 0.88629 0.89667 -0.36900
O 	O 	0.98031 0.87793 0.97695 -0.45700
O 	O 	0.07206 0.86028 0.84133 -0.55700
O 	O 	0.24765 0.85390 0.80792 -0.47300
O 	O 	0.21599 0.85508 0.95070 -0.44800
Co	Co	0.14164 0.09888 0.03149 1.17900
C 	C 	0.12510 0.94740 0.09670 0.22200
C 	C 	0.14630 0.99320 0.17830 0.17200
H 	H 	0.11020 0.98010 0.22700 -0.02600
C 	C 	0.22710 0.97080 0.20570 -0.56200
H 	H 	0.24110 0.99820 0.25960 0.18100
H 	H 	0.22910 0.91570 0.21660 0.20000
H 	H 	0.26290 0.98410 0.15850 0.18700
C 	C 	0.14220 0.26310 0.11090 0.38900
C 	C 	0.13250 0.34630 0.08830 -0.12400
C 	C 	0.12450 0.36840 0.00070 0.03700
H 	H 	0.12660 0.33110 0.95530 0.02500
C 	C 	0.11330 0.44490 0.97940 -0.09700
H 	H 	0.10630 0.45950 0.91960 0.05800
C 	C 	0.11240 0.50030 0.04570 0.03000
C 	C 	0.12120 0.47790 0.13290 -0.09900
H 	H 	0.12090 0.51520 0.17840 0.05900
C 	C 	0.13060 0.40130 0.15410 0.03500
H 	H 	0.13560 0.38650 0.21400 0.02500
C 	C 	0.10430 0.58290 0.02330 0.06200
C 	C 	0.06650 0.63320 0.07890 -0.13300
H 	H 	0.04330 0.61490 0.13140 0.07200
C 	C 	0.06270 0.70990 0.05820 0.07800
H 	H 	0.03680 0.74320 0.09750 -0.01400
C 	C 	0.12960 0.69090 0.93050 0.07500
H 	H 	0.15190 0.71080 0.87830 -0.01700
C 	C 	0.13540 0.61370 0.94620 -0.13300
H 	H 	0.16040 0.58150 0.90490 0.07300
N 	N 	0.09398 0.73943 0.98508 -0.23800
O 	O 	0.11371 0.87637 0.10333 -0.36900
O 	O 	0.12207 0.98031 0.02305 -0.45700
O 	O 	0.13972 0.07206 0.15867 -0.55700
O 	O 	0.14610 0.24765 0.19208 -0.47300
O 	O 	0.14492 0.21599 0.04930 -0.44800
Co	Co	0.85836 0.90112 0.03149 1.17900
C 	C 	0.87490 0.05260 0.09670 0.22200
C 	C 	0.85370 0.00680 0.17830 0.17200
H 	H 	0.88980 0.01990 0.22700 -0.02600
C 	C 	0.77290 0.02920 0.20570 -0.56200
H 	H 	0.75890 0.00180 0.25960 0.18100
H 	H 	0.77090 0.08430 0.21660 0.20000
H 	H 	0.73710 0.01590 0.15850 0.18700
C 	C 	0.85780 0.73690 0.11090 0.38900
C 	C 	0.86750 0.65370 0.08830 -0.12400
C 	C 	0.87550 0.63160 0.00070 0.03700
H 	H 	0.87340 0.66890 0.95530 0.02500
C 	C 	0.88670 0.55510 0.97940 -0.09700
H 	H 	0.89370 0.54050 0.91960 0.05800
C 	C 	0.88760 0.49970 0.04570 0.03000
C 	C 	0.87880 0.52210 0.13290 -0.09900
H 	H 	0.87910 0.48480 0.17840 0.05900
C 	C 	0.86940 0.59870 0.15410 0.03500
H 	H 	0.86440 0.61350 0.21400 0.02500
C 	C 	0.89570 0.41710 0.02330 0.06200
C 	C 	0.93350 0.36680 0.07890 -0.13300
H 	H 	0.95670 0.38510 0.13140 0.07200
C 	C 	0.93730 0.29010 0.05820 0.07800
H 	H 	0.96320 0.25680 0.09750 -0.01400
C 	C 	0.87040 0.30910 0.93050 0.07500
H 	H 	0.84810 0.28920 0.87830 -0.01700
C 	C 	0.86460 0.38630 0.94620 -0.13300
H 	H 	0.83960 0.41850 0.90490 0.07300
N 	N 	0.90602 0.26057 0.98508 -0.23800
O 	O 	0.88629 0.12363 0.10333 -0.36900
O 	O 	0.87793 0.01969 0.02305 -0.45700
O 	O 	0.86028 0.92794 0.15867 -0.55700
O 	O 	0.85390 0.75235 0.19208 -0.47300
O 	O 	0.85508 0.78401 0.04930 -0.44800
Co	Co	0.90112 0.85836 0.46851 1.17900
C 	C 	0.05260 0.87490 0.40330 0.22200
C 	C 	0.00680 0.85370 0.32170 0.17200
H 	H 	0.01990 0.88980 0.27300 -0.02600
C 	C 	0.02920 0.77290 0.29430 -0.56100
H 	H 	0.00180 0.75890 0.24040 0.18000
H 	H 	0.08430 0.77090 0.28340 0.20000
H 	H 	0.01590 0.73710 0.34150 0.18700
C 	C 	0.73690 0.85780 0.38910 0.38900
C 	C 	0.65370 0.86750 0.41170 -0.12400
C 	C 	0.63160 0.87550 0.49930 0.03700
H 	H 	0.66890 0.87340 0.54470 0.02500
C 	C 	0.55510 0.88670 0.52060 -0.09700
H 	H 	0.54050 0.89370 0.58040 0.05800
C 	C 	0.49970 0.88760 0.45430 0.03000
C 	C 	0.52210 0.87880 0.36710 -0.09900
H 	H 	0.48480 0.87910 0.32160 0.05900
C 	C 	0.59870 0.86940 0.34590 0.03500
H 	H 	0.61350 0.86440 0.28600 0.02500
C 	C 	0.41710 0.89570 0.47670 0.06200
C 	C 	0.36680 0.93350 0.42110 -0.13200
H 	H 	0.38510 0.95670 0.36860 0.07200
C 	C 	0.29010 0.93730 0.44180 0.07800
H 	H 	0.25680 0.96320 0.40250 -0.01400
C 	C 	0.30910 0.87040 0.56950 0.07500
H 	H 	0.28920 0.84810 0.62170 -0.01700
C 	C 	0.38630 0.86460 0.55380 -0.13300
H 	H 	0.41850 0.83960 0.59510 0.07300
N 	N 	0.26057 0.90602 0.51492 -0.23800
O 	O 	0.12363 0.88629 0.39667 -0.36900
O 	O 	0.01969 0.87793 0.47695 -0.45700
O 	O 	0.92794 0.86028 0.34133 -0.55700
O 	O 	0.75235 0.85390 0.30792 -0.47300
O 	O 	0.78401 0.85508 0.45070 -0.44800
Co	Co	0.09888 0.14164 0.46851 1.17900
C 	C 	0.94740 0.12510 0.40330 0.22200
C 	C 	0.99320 0.14630 0.32170 0.17200
H 	H 	0.98010 0.11020 0.27300 -0.02600
C 	C 	0.97080 0.22710 0.29430 -0.56100
H 	H 	0.99820 0.24110 0.24040 0.18000
H 	H 	0.91570 0.22910 0.28340 0.20000
H 	H 	0.98410 0.26290 0.34150 0.18700
C 	C 	0.26310 0.14220 0.38910 0.38900
C 	C 	0.34630 0.13250 0.41170 -0.12400
C 	C 	0.36840 0.12450 0.49930 0.03700
H 	H 	0.33110 0.12660 0.54470 0.02500
C 	C 	0.44490 0.11330 0.52060 -0.09700
H 	H 	0.45950 0.10630 0.58040 0.05800
C 	C 	0.50030 0.11240 0.45430 0.03000
C 	C 	0.47790 0.12120 0.36710 -0.09900
H 	H 	0.51520 0.12090 0.32160 0.05900
C 	C 	0.40130 0.13060 0.34590 0.03500
H 	H 	0.38650 0.13560 0.28600 0.02500
C 	C 	0.58290 0.10430 0.47670 0.06200
C 	C 	0.63320 0.06650 0.42110 -0.13200
H 	H 	0.61490 0.04330 0.36860 0.07200
C 	C 	0.70990 0.06270 0.44180 0.07800
H 	H 	0.74320 0.03680 0.40250 -0.01400
C 	C 	0.69090 0.12960 0.56950 0.07500
H 	H 	0.71080 0.15190 0.62170 -0.01700
C 	C 	0.61370 0.13540 0.55380 -0.13300
H 	H 	0.58150 0.16040 0.59510 0.07300
N 	N 	0.73943 0.09398 0.51492 -0.23800
O 	O 	0.87637 0.11371 0.39667 -0.36900
O 	O 	0.98031 0.12207 0.47695 -0.45700
O 	O 	0.07206 0.13972 0.34133 -0.55700
O 	O 	0.24765 0.14610 0.30792 -0.47300
O 	O 	0.21599 0.14492 0.45070 -0.44800
Co	Co	0.14164 0.90112 0.53149 1.17900
C 	C 	0.12510 0.05260 0.59670 0.22200
C 	C 	0.14630 0.00680 0.67830 0.17200
H 	H 	0.11020 0.01990 0.72700 -0.02600
C 	C 	0.22710 0.02920 0.70570 -0.56100
H 	H 	0.24110 0.00180 0.75960 0.18000
H 	H 	0.22910 0.08430 0.71660 0.20000
H 	H 	0.26290 0.01590 0.65850 0.18700
C 	C 	0.14220 0.73690 0.61090 0.38900
C 	C 	0.13250 0.65370 0.58830 -0.12400
C 	C 	0.12450 0.63160 0.50070 0.03700
H 	H 	0.12660 0.66890 0.45530 0.02500
C 	C 	0.11330 0.55510 0.47940 -0.09700
H 	H 	0.10630 0.54050 0.41960 0.05800
C 	C 	0.11240 0.49970 0.54570 0.03000
C 	C 	0.12120 0.52210 0.63290 -0.09900
H 	H 	0.12090 0.48480 0.67840 0.05900
C 	C 	0.13060 0.59870 0.65410 0.03500
H 	H 	0.13560 0.61350 0.71400 0.02500
C 	C 	0.10430 0.41710 0.52330 0.06200
C 	C 	0.06650 0.36680 0.57890 -0.13200
H 	H 	0.04330 0.38510 0.63140 0.07200
C 	C 	0.06270 0.29010 0.55820 0.07800
H 	H 	0.03680 0.25680 0.59750 -0.01400
C 	C 	0.12960 0.30910 0.43050 0.07500
H 	H 	0.15190 0.28920 0.37830 -0.01700
C 	C 	0.13540 0.38630 0.44620 -0.13300
H 	H 	0.16040 0.41850 0.40490 0.07300
N 	N 	0.09398 0.26057 0.48508 -0.23800
O 	O 	0.11371 0.12363 0.60333 -0.36900
O 	O 	0.12207 0.01969 0.52305 -0.45700
O 	O 	0.13972 0.92794 0.65867 -0.55700
O 	O 	0.14610 0.75235 0.69208 -0.47300
O 	O 	0.14492 0.78401 0.54930 -0.44800
Co	Co	0.85836 0.09888 0.53149 1.17900
C 	C 	0.87490 0.94740 0.59670 0.22200
C 	C 	0.85370 0.99320 0.67830 0.17200
H 	H 	0.88980 0.98010 0.72700 -0.02600
C 	C 	0.77290 0.97080 0.70570 -0.56100
H 	H 	0.75890 0.99820 0.75960 0.18000
H 	H 	0.77090 0.91570 0.71660 0.20000
H 	H 	0.73710 0.98410 0.65850 0.18700
C 	C 	0.85780 0.26310 0.61090 0.38900
C 	C 	0.86750 0.34630 0.58830 -0.12400
C 	C 	0.87550 0.36840 0.50070 0.03700
H 	H 	0.87340 0.33110 0.45530 0.02500
C 	C 	0.88670 0.44490 0.47940 -0.09700
H 	H 	0.89370 0.45950 0.41960 0.05800
C 	C 	0.88760 0.50030 0.54570 0.03000
C 	C 	0.87880 0.47790 0.63290 -0.09900
H 	H 	0.87910 0.51520 0.67840 0.05900
C 	C 	0.86940 0.40130 0.65410 0.03500
H 	H 	0.86440 0.38650 0.71400 0.02500
C 	C 	0.89570 0.58290 0.52330 0.06200
C 	C 	0.93350 0.63320 0.57890 -0.13200
H 	H 	0.95670 0.61490 0.63140 0.07200
C 	C 	0.93730 0.70990 0.55820 0.07800
H 	H 	0.96320 0.74320 0.59750 -0.01400
C 	C 	0.87040 0.69090 0.43050 0.07500
H 	H 	0.84810 0.71080 0.37830 -0.01700
C 	C 	0.86460 0.61370 0.44620 -0.13300
H 	H 	0.83960 0.58150 0.40490 0.07300
N 	N 	0.90602 0.73943 0.48508 -0.23800
O 	O 	0.88629 0.87637 0.60333 -0.36900
O 	O 	0.87793 0.98031 0.52305 -0.45700
O 	O 	0.86028 0.07206 0.65867 -0.55700
O 	O 	0.85390 0.24765 0.69208 -0.47300
O 	O 	0.85508 0.21599 0.54930 -0.44800
Co	Co	0.85290 0.14710 0.75000 1.17500
Co	Co	0.14710 0.85290 0.75000 1.17500
Co	Co	0.14710 0.14710 0.25000 1.17500
Co	Co	0.85290 0.85290 0.25000 1.17500
