data_crystal

_cell_length_a 17.52070
_cell_length_b 17.52070
_cell_length_c 15.12610
_cell_angle_alpha 90.00000
_cell_angle_beta  90.00000
_cell_angle_gamma 90.00000

_symmetry_space_group_name_	'P 1'
_symmetry_space_group_name_H-M	'P 1'

loop_
_symmetry_equiv_pos_as_xyz
  x,y,z

loop_
_atom_site_label
_atom_site_type_symbol
_atom_site_fract_x
_atom_site_fract_y
_atom_site_fract_z
_atom_site_charge
Co	Co	0.89933 0.14093 0.96933 1.17900
C 	C 	0.05070 0.12550 0.90260 0.21500
C 	C 	0.00450 0.14590 0.82240 0.17400
H 	H 	0.01760 0.10980 0.77350 -0.02600
C 	C 	0.02660 0.22640 0.79460 -0.56200
H 	H 	0.99900 0.24020 0.74050 0.17700
H 	H 	0.08170 0.22860 0.78350 0.19900
H 	H 	0.01340 0.26230 0.84180 0.18500
C 	C 	0.73540 0.14100 0.88880 0.37500
C 	C 	0.65250 0.13100 0.91090 -0.12200
C 	C 	0.63070 0.12100 0.99720 0.03600
H 	H 	0.66800 0.12150 0.04270 0.02400
C 	C 	0.55460 0.11010 0.01820 -0.09500
H 	H 	0.54040 0.10060 0.07780 0.05600
C 	C 	0.49810 0.11300 0.95210 0.02400
C 	C 	0.52120 0.12410 0.86530 -0.09500
H 	H 	0.48400 0.12580 0.81970 0.05800
C 	C 	0.59790 0.13280 0.84420 0.03100
H 	H 	0.61300 0.14000 0.78440 0.02700
C 	C 	0.41600 0.10550 0.97480 0.06900
C 	C 	0.36560 0.06970 0.91810 -0.13800
H 	H 	0.38360 0.04630 0.86540 0.07400
C 	C 	0.28850 0.06810 0.93870 0.08200
H 	H 	0.25440 0.04510 0.89780 -0.01500
C 	C 	0.30920 0.13000 0.06870 0.07800
H 	H 	0.29010 0.15100 0.12220 -0.01800
C 	C 	0.38660 0.13470 0.05200 -0.13900
H 	H 	0.41950 0.15810 0.09390 0.07500
N 	N 	0.26000 0.09710 0.01280 -0.24000
O 	O 	0.12163 0.11350 0.89640 -0.36900
O 	O 	0.01782 0.12223 0.97720 -0.45100
O 	O 	0.92585 0.13949 0.84150 -0.55800
O 	O 	0.75099 0.14810 0.80700 -0.46700
O 	O 	0.78275 0.14188 0.95110 -0.44500
Co	Co	0.10067 0.85907 0.96933 1.18000
C 	C 	0.94930 0.87450 0.90260 0.21600
C 	C 	0.99550 0.85410 0.82240 0.17500
H 	H 	0.98240 0.89020 0.77350 -0.02500
C 	C 	0.97340 0.77360 0.79460 -0.56100
H 	H 	0.00100 0.75980 0.74050 0.17800
H 	H 	0.91830 0.77140 0.78350 0.20000
H 	H 	0.98660 0.73770 0.84180 0.18600
C 	C 	0.26460 0.85900 0.88880 0.37600
C 	C 	0.34750 0.86900 0.91090 -0.12100
C 	C 	0.36930 0.87900 0.99720 0.03700
H 	H 	0.33200 0.87850 0.04270 0.02500
C 	C 	0.44540 0.88990 0.01820 -0.09400
H 	H 	0.45960 0.89940 0.07780 0.05700
C 	C 	0.50190 0.88700 0.95210 0.02500
C 	C 	0.47880 0.87590 0.86530 -0.09400
H 	H 	0.51600 0.87420 0.81970 0.05800
C 	C 	0.40210 0.86720 0.84420 0.03100
H 	H 	0.38700 0.86000 0.78440 0.02700
C 	C 	0.58400 0.89450 0.97480 0.06900
C 	C 	0.63440 0.93030 0.91810 -0.13800
H 	H 	0.61640 0.95370 0.86540 0.07400
C 	C 	0.71150 0.93190 0.93870 0.08200
H 	H 	0.74560 0.95490 0.89780 -0.01500
C 	C 	0.69080 0.87000 0.06870 0.07800
H 	H 	0.70990 0.84900 0.12220 -0.01800
C 	C 	0.61340 0.86530 0.05200 -0.13900
H 	H 	0.58050 0.84190 0.09390 0.07500
N 	N 	0.74000 0.90290 0.01280 -0.24000
O 	O 	0.87837 0.88650 0.89640 -0.36900
O 	O 	0.98218 0.87777 0.97720 -0.45100
O 	O 	0.07415 0.86051 0.84150 -0.55800
O 	O 	0.24901 0.85190 0.80700 -0.46700
O 	O 	0.21725 0.85812 0.95110 -0.44500
Co	Co	0.14093 0.10067 0.03067 1.18000
C 	C 	0.12550 0.94930 0.09740 0.21600
C 	C 	0.14590 0.99550 0.17760 0.17500
H 	H 	0.10980 0.98240 0.22650 -0.02500
C 	C 	0.22640 0.97340 0.20540 -0.56100
H 	H 	0.24020 0.00100 0.25950 0.17800
H 	H 	0.22860 0.91830 0.21650 0.20000
H 	H 	0.26230 0.98660 0.15820 0.18600
C 	C 	0.14100 0.26460 0.11120 0.37600
C 	C 	0.13100 0.34750 0.08910 -0.12100
C 	C 	0.12100 0.36930 0.00280 0.03700
H 	H 	0.12150 0.33200 0.95730 0.02500
C 	C 	0.11010 0.44540 0.98180 -0.09400
H 	H 	0.10060 0.45960 0.92220 0.05700
C 	C 	0.11300 0.50190 0.04790 0.02500
C 	C 	0.12410 0.47880 0.13470 -0.09400
H 	H 	0.12580 0.51600 0.18030 0.05800
C 	C 	0.13280 0.40210 0.15580 0.03100
H 	H 	0.14000 0.38700 0.21560 0.02700
C 	C 	0.10550 0.58400 0.02520 0.06900
C 	C 	0.06970 0.63440 0.08190 -0.13800
H 	H 	0.04630 0.61640 0.13460 0.07400
C 	C 	0.06810 0.71150 0.06130 0.08200
H 	H 	0.04510 0.74560 0.10220 -0.01500
C 	C 	0.13000 0.69080 0.93130 0.07800
H 	H 	0.15100 0.70990 0.87780 -0.01800
C 	C 	0.13470 0.61340 0.94800 -0.13900
H 	H 	0.15810 0.58050 0.90610 0.07500
N 	N 	0.09710 0.74000 0.98720 -0.24000
O 	O 	0.11350 0.87837 0.10360 -0.36900
O 	O 	0.12223 0.98218 0.02280 -0.45100
O 	O 	0.13949 0.07415 0.15850 -0.55800
O 	O 	0.14810 0.24901 0.19300 -0.46700
O 	O 	0.14188 0.21725 0.04890 -0.44500
Co	Co	0.85907 0.89933 0.03067 1.18000
C 	C 	0.87450 0.05070 0.09740 0.21600
C 	C 	0.85410 0.00450 0.17760 0.17500
H 	H 	0.89020 0.01760 0.22650 -0.02500
C 	C 	0.77360 0.02660 0.20540 -0.56100
H 	H 	0.75980 0.99900 0.25950 0.17800
H 	H 	0.77140 0.08170 0.21650 0.20000
H 	H 	0.73770 0.01340 0.15820 0.18600
C 	C 	0.85900 0.73540 0.11120 0.37600
C 	C 	0.86900 0.65250 0.08910 -0.12100
C 	C 	0.87900 0.63070 0.00280 0.03700
H 	H 	0.87850 0.66800 0.95730 0.02500
C 	C 	0.88990 0.55460 0.98180 -0.09400
H 	H 	0.89940 0.54040 0.92220 0.05700
C 	C 	0.88700 0.49810 0.04790 0.02500
C 	C 	0.87590 0.52120 0.13470 -0.09400
H 	H 	0.87420 0.48400 0.18030 0.05800
C 	C 	0.86720 0.59790 0.15580 0.03100
H 	H 	0.86000 0.61300 0.21560 0.02700
C 	C 	0.89450 0.41600 0.02520 0.06900
C 	C 	0.93030 0.36560 0.08190 -0.13800
H 	H 	0.95370 0.38360 0.13460 0.07400
C 	C 	0.93190 0.28850 0.06130 0.08200
H 	H 	0.95490 0.25440 0.10220 -0.01500
C 	C 	0.87000 0.30920 0.93130 0.07800
H 	H 	0.84900 0.29010 0.87780 -0.01800
C 	C 	0.86530 0.38660 0.94800 -0.13900
H 	H 	0.84190 0.41950 0.90610 0.07500
N 	N 	0.90290 0.26000 0.98720 -0.24000
O 	O 	0.88650 0.12163 0.10360 -0.36900
O 	O 	0.87777 0.01782 0.02280 -0.45100
O 	O 	0.86051 0.92585 0.15850 -0.55800
O 	O 	0.85190 0.75099 0.19300 -0.46700
O 	O 	0.85812 0.78275 0.04890 -0.44500
Co	Co	0.89933 0.85907 0.46933 1.18000
C 	C 	0.05070 0.87450 0.40260 0.21600
C 	C 	0.00450 0.85410 0.32240 0.17500
H 	H 	0.01760 0.89020 0.27350 -0.02500
C 	C 	0.02660 0.77360 0.29460 -0.56100
H 	H 	0.99900 0.75980 0.24050 0.17800
H 	H 	0.08170 0.77140 0.28350 0.20000
H 	H 	0.01340 0.73770 0.34180 0.18600
C 	C 	0.73540 0.85900 0.38880 0.37600
C 	C 	0.65250 0.86900 0.41090 -0.12100
C 	C 	0.63070 0.87900 0.49720 0.03700
H 	H 	0.66800 0.87850 0.54270 0.02500
C 	C 	0.55460 0.88990 0.51820 -0.09500
H 	H 	0.54040 0.89940 0.57780 0.05700
C 	C 	0.49810 0.88700 0.45210 0.02500
C 	C 	0.52120 0.87590 0.36530 -0.09400
H 	H 	0.48400 0.87420 0.31970 0.05800
C 	C 	0.59790 0.86720 0.34420 0.03100
H 	H 	0.61300 0.86000 0.28440 0.02700
C 	C 	0.41600 0.89450 0.47480 0.06900
C 	C 	0.36560 0.93030 0.41810 -0.13800
H 	H 	0.38360 0.95370 0.36540 0.07400
C 	C 	0.28850 0.93190 0.43870 0.08200
H 	H 	0.25440 0.95490 0.39780 -0.01500
C 	C 	0.30920 0.87000 0.56870 0.07800
H 	H 	0.29010 0.84900 0.62220 -0.01800
C 	C 	0.38660 0.86530 0.55200 -0.13900
H 	H 	0.41950 0.84190 0.59390 0.07500
N 	N 	0.26000 0.90290 0.51280 -0.24000
O 	O 	0.12163 0.88650 0.39640 -0.36900
O 	O 	0.01782 0.87777 0.47720 -0.45100
O 	O 	0.92585 0.86051 0.34150 -0.55800
O 	O 	0.75099 0.85190 0.30700 -0.46700
O 	O 	0.78275 0.85812 0.45110 -0.44500
Co	Co	0.10067 0.14093 0.46933 1.18000
C 	C 	0.94930 0.12550 0.40260 0.21600
C 	C 	0.99550 0.14590 0.32240 0.17500
H 	H 	0.98240 0.10980 0.27350 -0.02500
C 	C 	0.97340 0.22640 0.29460 -0.56100
H 	H 	0.00100 0.24020 0.24050 0.17800
H 	H 	0.91830 0.22860 0.28350 0.20000
H 	H 	0.98660 0.26230 0.34180 0.18600
C 	C 	0.26460 0.14100 0.38880 0.37600
C 	C 	0.34750 0.13100 0.41090 -0.12100
C 	C 	0.36930 0.12100 0.49720 0.03700
H 	H 	0.33200 0.12150 0.54270 0.02500
C 	C 	0.44540 0.11010 0.51820 -0.09500
H 	H 	0.45960 0.10060 0.57780 0.05700
C 	C 	0.50190 0.11300 0.45210 0.02500
C 	C 	0.47880 0.12410 0.36530 -0.09400
H 	H 	0.51600 0.12580 0.31970 0.05800
C 	C 	0.40210 0.13280 0.34420 0.03100
H 	H 	0.38700 0.14000 0.28440 0.02700
C 	C 	0.58400 0.10550 0.47480 0.06900
C 	C 	0.63440 0.06970 0.41810 -0.13800
H 	H 	0.61640 0.04630 0.36540 0.07400
C 	C 	0.71150 0.06810 0.43870 0.08200
H 	H 	0.74560 0.04510 0.39780 -0.01500
C 	C 	0.69080 0.13000 0.56870 0.07800
H 	H 	0.70990 0.15100 0.62220 -0.01800
C 	C 	0.61340 0.13470 0.55200 -0.13900
H 	H 	0.58050 0.15810 0.59390 0.07500
N 	N 	0.74000 0.09710 0.51280 -0.24000
O 	O 	0.87837 0.11350 0.39640 -0.36900
O 	O 	0.98218 0.12223 0.47720 -0.45100
O 	O 	0.07415 0.13949 0.34150 -0.55800
O 	O 	0.24901 0.14810 0.30700 -0.46700
O 	O 	0.21725 0.14188 0.45110 -0.44500
Co	Co	0.14093 0.89933 0.53067 1.18000
C 	C 	0.12550 0.05070 0.59740 0.21600
C 	C 	0.14590 0.00450 0.67760 0.17500
H 	H 	0.10980 0.01760 0.72650 -0.02500
C 	C 	0.22640 0.02660 0.70540 -0.56100
H 	H 	0.24020 0.99900 0.75950 0.17800
H 	H 	0.22860 0.08170 0.71650 0.20000
H 	H 	0.26230 0.01340 0.65820 0.18600
C 	C 	0.14100 0.73540 0.61120 0.37600
C 	C 	0.13100 0.65250 0.58910 -0.12100
C 	C 	0.12100 0.63070 0.50280 0.03700
H 	H 	0.12150 0.66800 0.45730 0.02500
C 	C 	0.11010 0.55460 0.48180 -0.09500
H 	H 	0.10060 0.54040 0.42220 0.05700
C 	C 	0.11300 0.49810 0.54790 0.02500
C 	C 	0.12410 0.52120 0.63470 -0.09400
H 	H 	0.12580 0.48400 0.68030 0.05800
C 	C 	0.13280 0.59790 0.65580 0.03100
H 	H 	0.14000 0.61300 0.71560 0.02700
C 	C 	0.10550 0.41600 0.52520 0.06900
C 	C 	0.06970 0.36560 0.58190 -0.13800
H 	H 	0.04630 0.38360 0.63460 0.07400
C 	C 	0.06810 0.28850 0.56130 0.08200
H 	H 	0.04510 0.25440 0.60220 -0.01500
C 	C 	0.13000 0.30920 0.43130 0.07800
H 	H 	0.15100 0.29010 0.37780 -0.01800
C 	C 	0.13470 0.38660 0.44800 -0.13900
H 	H 	0.15810 0.41950 0.40610 0.07500
N 	N 	0.09710 0.26000 0.48720 -0.24000
O 	O 	0.11350 0.12163 0.60360 -0.36900
O 	O 	0.12223 0.01782 0.52280 -0.45100
O 	O 	0.13949 0.92585 0.65850 -0.55800
O 	O 	0.14810 0.75099 0.69300 -0.46700
O 	O 	0.14188 0.78275 0.54890 -0.44500
Co	Co	0.85907 0.10067 0.53067 1.18000
C 	C 	0.87450 0.94930 0.59740 0.21600
C 	C 	0.85410 0.99550 0.67760 0.17500
H 	H 	0.89020 0.98240 0.72650 -0.02500
C 	C 	0.77360 0.97340 0.70540 -0.56100
H 	H 	0.75980 0.00100 0.75950 0.17800
H 	H 	0.77140 0.91830 0.71650 0.20000
H 	H 	0.73770 0.98660 0.65820 0.18600
C 	C 	0.85900 0.26460 0.61120 0.37600
C 	C 	0.86900 0.34750 0.58910 -0.12100
C 	C 	0.87900 0.36930 0.50280 0.03700
H 	H 	0.87850 0.33200 0.45730 0.02500
C 	C 	0.88990 0.44540 0.48180 -0.09500
H 	H 	0.89940 0.45960 0.42220 0.05700
C 	C 	0.88700 0.50190 0.54790 0.02500
C 	C 	0.87590 0.47880 0.63470 -0.09400
H 	H 	0.87420 0.51600 0.68030 0.05800
C 	C 	0.86720 0.40210 0.65580 0.03100
H 	H 	0.86000 0.38700 0.71560 0.02700
C 	C 	0.89450 0.58400 0.52520 0.06900
C 	C 	0.93030 0.63440 0.58190 -0.13800
H 	H 	0.95370 0.61640 0.63460 0.07400
C 	C 	0.93190 0.71150 0.56130 0.08200
H 	H 	0.95490 0.74560 0.60220 -0.01500
C 	C 	0.87000 0.69080 0.43130 0.07800
H 	H 	0.84900 0.70990 0.37780 -0.01800
C 	C 	0.86530 0.61340 0.44800 -0.13900
H 	H 	0.84190 0.58050 0.40610 0.07500
N 	N 	0.90290 0.74000 0.48720 -0.24000
O 	O 	0.88650 0.87837 0.60360 -0.36900
O 	O 	0.87777 0.98218 0.52280 -0.45100
O 	O 	0.86051 0.07415 0.65850 -0.55800
O 	O 	0.85190 0.24901 0.69300 -0.46700
O 	O 	0.85812 0.21725 0.54890 -0.44500
Co	Co	0.85164 0.14836 0.75000 1.17700
Co	Co	0.14836 0.85164 0.75000 1.17700
Co	Co	0.14836 0.14836 0.25000 1.17700
Co	Co	0.85164 0.85164 0.25000 1.17700
