data_crystal

_cell_length_a 13.22460
_cell_length_b 17.89230
_cell_length_c 11.08360
_cell_angle_alpha 90.00000
_cell_angle_beta  89.80100
_cell_angle_gamma 90.00000

_symmetry_space_group_name_	'P 1'
_symmetry_space_group_name_H-M	'P 1'

loop_
_symmetry_equiv_pos_as_xyz
  x,y,z

loop_
_atom_site_label
_atom_site_type_symbol
_atom_site_fract_x
_atom_site_fract_y
_atom_site_fract_z
_atom_site_charge
Al	Al	0.11620 0.23720 0.24160 2.39600
O 	O 	0.94270 0.68350 0.61880 -0.61700
O 	O 	0.16390 0.16180 0.13650 -0.59400
O 	O 	0.10000 0.33310 0.32620 -0.62300
O 	O 	0.32730 0.79460 0.88760 -0.62600
Al	Al	0.13100 0.73380 0.75440 2.39600
O 	O 	0.00670 0.72200 0.83340 -0.84100
O 	O 	0.25590 0.73900 0.68120 -0.88200
O 	O 	0.16400 0.81080 0.86660 -0.65500
O 	O 	0.94410 0.29630 0.35050 -0.69500
O 	O 	0.09600 0.66090 0.62770 -0.57100
O 	O 	0.33040 0.16190 0.14320 -0.56800
C 	C 	0.15190 0.93229 0.02421 0.05300
C 	C 	0.16401 0.99873 0.10900 0.01900
C 	C 	0.34420 0.01490 0.04815 0.04100
C 	C 	0.33296 0.94865 0.96308 0.04300
C 	C 	0.25383 0.89276 0.00731 -0.12400
C 	C 	0.24167 0.05369 0.06078 -0.08200
C 	C 	0.24575 0.82762 0.92199 0.50800
C 	C 	0.24678 0.12458 0.13319 0.43800
C 	C 	0.92416 0.51503 0.54113 0.02000
C 	C 	0.91688 0.45108 0.45121 0.04200
C 	C 	0.10064 0.46684 0.40521 0.05900
C 	C 	0.10823 0.53197 0.49350 0.04600
C 	C 	0.00553 0.57167 0.50606 -0.11100
C 	C 	0.01932 0.41135 0.44369 -0.11500
C 	C 	0.01041 0.63439 0.59662 0.48500
C 	C 	0.01567 0.34285 0.36494 0.53400
O 	O 	0.17600 0.27720 0.09700 -0.53400
Al	Al	0.37460 0.72730 0.76090 2.40100
O 	O 	0.56060 0.16300 0.35840 -0.63100
O 	O 	0.32950 0.64860 0.85970 -0.66500
O 	O 	0.40610 0.79790 0.64700 -0.62700
O 	O 	0.15720 0.64740 0.86160 -0.59700
Al	Al	0.37220 0.23400 0.26490 2.39900
O 	O 	0.49310 0.23250 0.18940 -0.88100
O 	O 	0.24180 0.25470 0.31150 -0.86800
O 	O 	0.33070 0.30520 0.14090 -0.53300
O 	O 	0.56840 0.81750 0.63950 -0.56400
O 	O 	0.39350 0.16200 0.38090 -0.68800
C 	C 	0.33633 0.42983 0.00755 0.04600
C 	C 	0.32464 0.49364 0.91755 0.04300
C 	C 	0.14473 0.51255 0.97751 0.06100
C 	C 	0.15557 0.44896 0.06778 0.01000
C 	C 	0.23408 0.39138 0.02789 -0.06100
C 	C 	0.24759 0.55040 0.96150 -0.10500
C 	C 	0.24177 0.32891 0.11832 0.38500
C 	C 	0.24297 0.61899 0.88348 0.47700
C 	C 	0.56905 0.01841 0.46434 0.04500
C 	C 	0.57581 0.95475 0.55486 0.04600
C 	C 	0.39042 0.96738 0.59336 0.02600
C 	C 	0.38327 0.03220 0.50445 0.05300
C 	C 	0.48496 0.07367 0.49581 -0.11800
C 	C 	0.47452 0.91326 0.55847 -0.09500
C 	C 	0.48066 0.13614 0.40475 0.52800
C 	C 	0.47810 0.84497 0.63771 0.47000
Al	Al	0.88380 0.73720 0.75840 2.39500
O 	O 	0.05730 0.18350 0.38120 -0.61700
O 	O 	0.83610 0.66180 0.86350 -0.59400
O 	O 	0.90000 0.83310 0.67380 -0.62300
O 	O 	0.67270 0.29460 0.11240 -0.62600
Al	Al	0.86900 0.23380 0.24560 2.39600
O 	O 	0.99330 0.22200 0.16660 -0.84100
O 	O 	0.74410 0.23900 0.31880 -0.88200
O 	O 	0.83600 0.31080 0.13340 -0.65500
O 	O 	0.05590 0.79630 0.64950 -0.69400
O 	O 	0.90400 0.16090 0.37230 -0.57000
O 	O 	0.66960 0.66190 0.85680 -0.56800
C 	C 	0.84810 0.43229 0.97579 0.05300
C 	C 	0.83599 0.49873 0.89100 0.02200
C 	C 	0.65580 0.51490 0.95185 0.03900
C 	C 	0.66704 0.44865 0.03692 0.04400
C 	C 	0.74617 0.39276 0.99269 -0.12200
C 	C 	0.75833 0.55369 0.93922 -0.08400
C 	C 	0.75425 0.32762 0.07801 0.50600
C 	C 	0.75322 0.62458 0.86681 0.43800
C 	C 	0.07584 0.01503 0.45887 0.02100
C 	C 	0.08312 0.95108 0.54879 0.04100
C 	C 	0.89936 0.96684 0.59479 0.05300
C 	C 	0.89177 0.03197 0.50650 0.05200
C 	C 	0.99447 0.07167 0.49394 -0.10900
C 	C 	0.98068 0.91135 0.55631 -0.11600
C 	C 	0.98959 0.13439 0.40338 0.48600
C 	C 	0.98433 0.84285 0.63506 0.53300
O 	O 	0.82400 0.77720 0.90300 -0.53400
Al	Al	0.62540 0.22730 0.23910 2.40100
O 	O 	0.43940 0.66300 0.64160 -0.63100
O 	O 	0.67050 0.14860 0.14030 -0.66400
O 	O 	0.59390 0.29790 0.35300 -0.62700
O 	O 	0.84280 0.14740 0.13840 -0.59600
Al	Al	0.62780 0.73400 0.73510 2.39900
O 	O 	0.50690 0.73250 0.81060 -0.88100
O 	O 	0.75820 0.75470 0.68850 -0.86800
O 	O 	0.66930 0.80520 0.85910 -0.53300
O 	O 	0.43160 0.31750 0.36050 -0.56400
O 	O 	0.60650 0.66200 0.61910 -0.68800
C 	C 	0.66367 0.92983 0.99245 0.04700
C 	C 	0.67536 0.99364 0.08245 0.03700
C 	C 	0.85527 0.01255 0.02249 0.06600
C 	C 	0.84443 0.94896 0.93222 0.00600
C 	C 	0.76592 0.89138 0.97211 -0.06100
C 	C 	0.75241 0.05040 0.03850 -0.10100
C 	C 	0.75823 0.82891 0.88168 0.38500
C 	C 	0.75703 0.11899 0.11652 0.47600
C 	C 	0.43095 0.51841 0.53566 0.04000
C 	C 	0.42419 0.45475 0.44514 0.05100
C 	C 	0.60958 0.46738 0.40664 0.02900
C 	C 	0.61673 0.53220 0.49555 0.05000
C 	C 	0.51504 0.57367 0.50419 -0.11800
C 	C 	0.52548 0.41326 0.44153 -0.09600
C 	C 	0.51934 0.63614 0.59525 0.52800
C 	C 	0.52190 0.34497 0.36229 0.47000
