data_crystal

_cell_length_a 6.61030
_cell_length_b 17.89840
_cell_length_c 11.09890
_cell_angle_alpha 90.00000
_cell_angle_beta  91.24610
_cell_angle_gamma 90.00000

_symmetry_space_group_name_	'P 1'
_symmetry_space_group_name_H-M	'P 1'

loop_
_symmetry_equiv_pos_as_xyz
  x,y,z

loop_
_atom_site_label
_atom_site_type_symbol
_atom_site_fract_x
_atom_site_fract_y
_atom_site_fract_z
_atom_site_charge
Al	Al	0.22970 0.22389 0.25430 2.39300
O 	O 	0.98740 0.22100 0.15510 -0.82400
O 	O 	0.82400 0.64920 0.62070 -0.60900
O 	O 	0.36450 0.14520 0.16830 -0.70400
O 	O 	0.16600 0.30830 0.35570 -0.64700
O 	O 	0.67140 0.79650 0.85850 -0.59200
Al	Al	0.24570 0.72322 0.75430 2.39800
O 	O 	0.49710 0.73240 0.67930 -0.77900
O 	O 	0.36370 0.79573 0.86050 -0.60700
O 	O 	0.88480 0.29850 0.34400 -0.69300
O 	O 	0.68150 0.13970 0.15750 -0.69100
O 	O 	0.18180 0.65050 0.63680 -0.64700
C 	C 	0.32103 0.94358 0.95644 0.03500
C 	C 	0.33283 0.00499 0.05082 0.05800
C 	C 	0.70338 0.01674 0.01976 0.07500
C 	C 	0.68886 0.95637 0.92428 0.02000
C 	C 	0.52012 0.90130 0.95041 -0.09000
C 	C 	0.50545 0.05897 0.02702 -0.16300
C 	C 	0.51601 0.84025 0.85751 0.46800
C 	C 	0.51191 0.12283 0.11526 0.63400
C 	C 	0.84598 0.51030 0.56757 0.04800
C 	C 	0.82168 0.44130 0.48900 0.04500
C 	C 	0.16799 0.45824 0.41621 0.05100
C 	C 	0.19568 0.52875 0.49219 0.04900
C 	C 	0.99478 0.56649 0.51694 -0.07700
C 	C 	0.02489 0.40370 0.47570 -0.15500
C 	C 	0.00909 0.63377 0.59867 0.43500
C 	C 	0.01624 0.32925 0.41261 0.56900
Al	Al	0.77030 0.72389 0.74570 2.39200
O 	O 	0.01260 0.72100 0.84490 -0.82500
O 	O 	0.17600 0.14920 0.37930 -0.61000
O 	O 	0.63550 0.64520 0.83170 -0.70300
O 	O 	0.83400 0.80830 0.64430 -0.64700
O 	O 	0.32860 0.29650 0.14150 -0.59200
Al	Al	0.75430 0.22322 0.24570 2.39800
O 	O 	0.50290 0.23240 0.32070 -0.77900
O 	O 	0.63630 0.29573 0.13950 -0.60700
O 	O 	0.11520 0.79850 0.65600 -0.69200
O 	O 	0.31850 0.63970 0.84250 -0.69100
O 	O 	0.81820 0.15050 0.36320 -0.64700
C 	C 	0.67897 0.44358 0.04356 0.03400
C 	C 	0.66717 0.50499 0.94918 0.05800
C 	C 	0.29662 0.51674 0.98024 0.07500
C 	C 	0.31114 0.45637 0.07572 0.02100
C 	C 	0.47988 0.40130 0.04959 -0.09000
C 	C 	0.49455 0.55897 0.97298 -0.16300
C 	C 	0.48399 0.34025 0.14249 0.46800
C 	C 	0.48809 0.62283 0.88474 0.63400
C 	C 	0.15402 0.01030 0.43243 0.04700
C 	C 	0.17832 0.94130 0.51100 0.04700
C 	C 	0.83201 0.95824 0.58379 0.05000
C 	C 	0.80432 0.02875 0.50781 0.05000
C 	C 	0.00522 0.06649 0.48306 -0.07800
C 	C 	0.97511 0.90370 0.52430 -0.15600
C 	C 	0.99091 0.13377 0.40133 0.43700
C 	C 	0.98376 0.82925 0.58739 0.56900
