data_crystal

_cell_length_a 27.63000
_cell_length_b 13.81180
_cell_length_c 17.36040
_cell_angle_alpha 90.00000
_cell_angle_beta  99.31600
_cell_angle_gamma 90.00000

_symmetry_space_group_name_	'P 1'
_symmetry_space_group_name_H-M	'P 1'

loop_
_symmetry_equiv_pos_as_xyz
  x,y,z

loop_
_atom_site_label
_atom_site_type_symbol
_atom_site_fract_x
_atom_site_fract_y
_atom_site_fract_z
_atom_site_charge
W 	W 	0.63971 0.45005 0.62301 0.25800
Cu	Cu	0.68901 0.28035 0.62181 0.83100
Cu	Cu	0.58944 0.38682 0.73645 0.83000
Cu	Cu	0.71143 0.51308 0.73649 0.82700
S 	S 	0.72128 0.43395 0.62383 -0.48100
S 	S 	0.60612 0.30232 0.62859 -0.46200
S 	S 	0.62799 0.53490 0.72956 -0.49000
N 	N 	0.52290 0.39880 0.75170 0.09900
C 	C 	0.51820 0.38650 0.74300 -0.30200
N 	N 	0.76026 0.08200 0.16850 -0.23300
N 	N 	0.74851 0.12360 0.72140 -0.19600
N 	N 	0.68093 0.22450 0.50610 -0.22300
N 	N 	0.62394 0.31080 0.83460 -0.24100
C 	C 	0.72523 0.18130 0.68490 -0.17700
C 	C 	0.65810 0.24500 0.82870 0.07200
H 	H 	0.66460 0.22950 0.77800 -0.04400
C 	C 	0.70118 0.20040 0.11270 -0.11600
H 	H 	0.67960 0.25140 0.12110 0.05400
C 	C 	0.68485 0.19740 0.89160 -0.12600
H 	H 	0.70910 0.15140 0.88380 0.06000
C 	C 	0.63212 0.11180 0.27690 0.04600
C 	C 	0.64260 0.01710 0.25670 -0.12600
H 	H 	0.66130 0.97590 0.29410 0.06100
C 	C 	0.67593 0.21760 0.96670 0.05100
C 	C 	0.72936 0.15380 0.17520 0.06300
H 	H 	0.72630 0.17480 0.22630 -0.02300
C 	C 	0.64964 0.15140 0.35550 0.04600
C 	C 	0.76470 0.05510 0.09590 0.06400
H 	H 	0.78740 0.00540 0.08950 -0.01800
C 	C 	0.70521 0.17050 0.03670 0.04500
C 	C 	0.65390 0.09140 0.42180 -0.12100
H 	H 	0.64600 0.02450 0.41670 0.07400
C 	C 	0.73770 0.09600 0.02920 -0.11900
H 	H 	0.74160 0.07310 0.97900 0.06700
C 	C 	0.67770 0.28090 0.44250 0.05500
H 	H 	0.68630 0.34720 0.44930 -0.01500
C 	C 	0.64030 0.28560 0.97280 -0.12800
H 	H 	0.63310 0.30280 0.02270 0.05800
C 	C 	0.66250 0.24710 0.36770 -0.13200
H 	H 	0.66080 0.29000 0.32450 0.06200
C 	C 	0.62580 0.98340 0.18200 0.06900
H 	H 	0.63370 0.91900 0.16940 -0.00200
C 	C 	0.60460 0.16730 0.21870 -0.12500
H 	H 	0.59640 0.23240 0.22890 0.06900
C 	C 	0.58930 0.12690 0.14610 0.07000
H 	H 	0.57060 0.16610 0.10730 0.01000
C 	C 	0.61500 0.32930 0.90620 0.06600
H 	H 	0.58990 0.37460 0.91210 -0.02300
N 	N 	0.59920 0.03670 0.12720 -0.13000
C 	C 	0.66950 0.13110 0.49400 0.06500
H 	H 	0.67250 0.08960 0.53810 -0.00400
W 	W 	0.13971 0.95005 0.62301 0.25800
Cu	Cu	0.18901 0.78035 0.62181 0.83000
Cu	Cu	0.08944 0.88682 0.73645 0.82900
Cu	Cu	0.21143 0.01308 0.73649 0.82600
S 	S 	0.22128 0.93395 0.62383 -0.48200
S 	S 	0.10612 0.80232 0.62859 -0.46300
S 	S 	0.12799 0.03490 0.72956 -0.49100
N 	N 	0.02290 0.89880 0.75170 0.09800
C 	C 	0.01820 0.88650 0.74300 -0.30300
N 	N 	0.26026 0.58200 0.16850 -0.23500
N 	N 	0.24851 0.62360 0.72140 -0.19700
N 	N 	0.18093 0.72450 0.50610 -0.22400
N 	N 	0.12394 0.81080 0.83460 -0.24200
C 	C 	0.22523 0.68130 0.68490 -0.17800
C 	C 	0.15810 0.74500 0.82870 0.07000
H 	H 	0.16460 0.72950 0.77800 -0.04400
C 	C 	0.20118 0.70040 0.11270 -0.11700
H 	H 	0.17960 0.75140 0.12110 0.05400
C 	C 	0.18485 0.69740 0.89160 -0.12600
H 	H 	0.20910 0.65140 0.88380 0.06000
C 	C 	0.13212 0.61180 0.27690 0.04800
C 	C 	0.14260 0.51710 0.25670 -0.13000
H 	H 	0.16130 0.47590 0.29410 0.06300
C 	C 	0.17593 0.71760 0.96670 0.05100
C 	C 	0.22936 0.65380 0.17520 0.06300
H 	H 	0.22630 0.67480 0.22630 -0.02400
C 	C 	0.14964 0.65140 0.35550 0.04500
C 	C 	0.26470 0.55510 0.09590 0.06500
H 	H 	0.28740 0.50540 0.08950 -0.01900
C 	C 	0.20521 0.67050 0.03670 0.04600
C 	C 	0.15390 0.59140 0.42180 -0.12100
H 	H 	0.14600 0.52450 0.41670 0.07400
C 	C 	0.23770 0.59600 0.02920 -0.12300
H 	H 	0.24160 0.57310 0.97900 0.06900
C 	C 	0.17770 0.78090 0.44250 0.05500
H 	H 	0.18630 0.84720 0.44930 -0.01500
C 	C 	0.14030 0.78560 0.97280 -0.12400
H 	H 	0.13310 0.80280 0.02270 0.05500
C 	C 	0.16250 0.74710 0.36770 -0.13100
H 	H 	0.16080 0.79000 0.32450 0.06200
C 	C 	0.12580 0.48340 0.18200 0.07300
H 	H 	0.13370 0.41900 0.16940 -0.00400
C 	C 	0.10460 0.66730 0.21870 -0.12700
H 	H 	0.09640 0.73240 0.22890 0.07000
C 	C 	0.08930 0.62690 0.14610 0.07000
H 	H 	0.07060 0.66610 0.10730 0.00900
C 	C 	0.11500 0.82930 0.90620 0.06500
H 	H 	0.08990 0.87460 0.91210 -0.02200
N 	N 	0.09920 0.53670 0.12720 -0.13100
C 	C 	0.16950 0.63110 0.49400 0.06500
H 	H 	0.17250 0.58960 0.53810 -0.00400
W 	W 	0.36029 0.45005 0.87699 0.25700
Cu	Cu	0.31099 0.28035 0.87819 0.83000
Cu	Cu	0.41056 0.38682 0.76355 0.82900
Cu	Cu	0.28857 0.51308 0.76351 0.82700
S 	S 	0.27872 0.43395 0.87617 -0.48200
S 	S 	0.39388 0.30232 0.87141 -0.46400
S 	S 	0.37201 0.53490 0.77044 -0.49100
N 	N 	0.47710 0.39880 0.74830 0.09800
C 	C 	0.48180 0.38650 0.75700 -0.30300
N 	N 	0.23974 0.08200 0.33150 -0.23500
N 	N 	0.25149 0.12360 0.77860 -0.19700
N 	N 	0.31907 0.22450 0.99390 -0.22600
N 	N 	0.37606 0.31080 0.66540 -0.24200
C 	C 	0.27477 0.18130 0.81510 -0.17800
C 	C 	0.34190 0.24500 0.67130 0.07100
H 	H 	0.33540 0.22950 0.72200 -0.04500
C 	C 	0.29882 0.20040 0.38730 -0.11700
H 	H 	0.32040 0.25140 0.37890 0.05400
C 	C 	0.31515 0.19740 0.60840 -0.12600
H 	H 	0.29090 0.15140 0.61620 0.06000
C 	C 	0.36788 0.11180 0.22310 0.04600
C 	C 	0.35740 0.01710 0.24330 -0.12600
H 	H 	0.33870 0.97590 0.20590 0.06100
C 	C 	0.32407 0.21760 0.53330 0.05100
C 	C 	0.27064 0.15380 0.32480 0.06300
H 	H 	0.27370 0.17480 0.27370 -0.02400
C 	C 	0.35036 0.15140 0.14450 0.04800
C 	C 	0.23530 0.05510 0.40410 0.06500
H 	H 	0.21260 0.00540 0.41050 -0.01800
C 	C 	0.29479 0.17050 0.46330 0.04600
C 	C 	0.34610 0.09140 0.07820 -0.12300
H 	H 	0.35400 0.02450 0.08330 0.07500
C 	C 	0.26230 0.09600 0.47080 -0.12200
H 	H 	0.25840 0.07310 0.52100 0.06900
C 	C 	0.32230 0.28090 0.05750 0.05700
H 	H 	0.31370 0.34720 0.05070 -0.01600
C 	C 	0.35970 0.28560 0.52720 -0.12600
H 	H 	0.36690 0.30280 0.47730 0.05700
C 	C 	0.33750 0.24710 0.13230 -0.13300
H 	H 	0.33920 0.29000 0.17550 0.06300
C 	C 	0.37420 0.98340 0.31800 0.07000
H 	H 	0.36630 0.91900 0.33060 -0.00300
C 	C 	0.39540 0.16730 0.28130 -0.12500
H 	H 	0.40360 0.23240 0.27110 0.06900
C 	C 	0.41070 0.12690 0.35390 0.06900
H 	H 	0.42940 0.16610 0.39270 0.01000
C 	C 	0.38500 0.32930 0.59380 0.06500
H 	H 	0.41010 0.37460 0.58790 -0.02200
N 	N 	0.40080 0.03670 0.37280 -0.13000
C 	C 	0.33050 0.13110 0.00600 0.06900
H 	H 	0.32750 0.08960 0.96190 -0.00600
W 	W 	0.86029 0.95005 0.87699 0.25800
Cu	Cu	0.81099 0.78035 0.87819 0.83000
Cu	Cu	0.91056 0.88682 0.76355 0.82900
Cu	Cu	0.78857 0.01308 0.76351 0.82600
S 	S 	0.77872 0.93395 0.87617 -0.48100
S 	S 	0.89388 0.80232 0.87141 -0.46300
S 	S 	0.87201 0.03490 0.77044 -0.49200
N 	N 	0.97710 0.89880 0.74830 0.09800
C 	C 	0.98180 0.88650 0.75700 -0.30300
N 	N 	0.73974 0.58200 0.33150 -0.23500
N 	N 	0.75149 0.62360 0.77860 -0.19700
N 	N 	0.81907 0.72450 0.99390 -0.22300
N 	N 	0.87606 0.81080 0.66540 -0.24200
C 	C 	0.77477 0.68130 0.81510 -0.17800
C 	C 	0.84190 0.74500 0.67130 0.07100
H 	H 	0.83540 0.72950 0.72200 -0.04500
C 	C 	0.79882 0.70040 0.38730 -0.11700
H 	H 	0.82040 0.75140 0.37890 0.05400
C 	C 	0.81515 0.69740 0.60840 -0.12600
H 	H 	0.79090 0.65140 0.61620 0.06000
C 	C 	0.86788 0.61180 0.22310 0.04800
C 	C 	0.85740 0.51710 0.24330 -0.13000
H 	H 	0.83870 0.47590 0.20590 0.06300
C 	C 	0.82407 0.71760 0.53330 0.05100
C 	C 	0.77064 0.65380 0.32480 0.06300
H 	H 	0.77370 0.67480 0.27370 -0.02400
C 	C 	0.85036 0.65140 0.14450 0.04400
C 	C 	0.73530 0.55510 0.40410 0.06500
H 	H 	0.71260 0.50540 0.41050 -0.01900
C 	C 	0.79479 0.67050 0.46330 0.04600
C 	C 	0.84610 0.59140 0.07820 -0.11900
H 	H 	0.85400 0.52450 0.08330 0.07300
C 	C 	0.76230 0.59600 0.47080 -0.12200
H 	H 	0.75840 0.57310 0.52100 0.06900
C 	C 	0.82230 0.78090 0.05750 0.05400
H 	H 	0.81370 0.84720 0.05070 -0.01500
C 	C 	0.85970 0.78560 0.52720 -0.12600
H 	H 	0.86690 0.80280 0.47730 0.05700
C 	C 	0.83750 0.74710 0.13230 -0.13000
H 	H 	0.83920 0.79000 0.17550 0.06200
C 	C 	0.87420 0.48340 0.31800 0.07300
H 	H 	0.86630 0.41900 0.33060 -0.00400
C 	C 	0.89540 0.66730 0.28130 -0.12700
H 	H 	0.90360 0.73240 0.27110 0.07000
C 	C 	0.91070 0.62690 0.35390 0.07000
H 	H 	0.92940 0.66610 0.39270 0.01000
C 	C 	0.88500 0.82930 0.59380 0.06600
H 	H 	0.91010 0.87460 0.58790 -0.02200
N 	N 	0.90080 0.53670 0.37280 -0.13100
C 	C 	0.83050 0.63110 0.00600 0.06200
H 	H 	0.82750 0.58960 0.96190 -0.00300
W 	W 	0.36029 0.54995 0.37699 0.25700
Cu	Cu	0.31099 0.71965 0.37819 0.83000
Cu	Cu	0.41056 0.61318 0.26355 0.82900
Cu	Cu	0.28857 0.48692 0.26351 0.82600
S 	S 	0.27872 0.56605 0.37617 -0.48200
S 	S 	0.39388 0.69768 0.37141 -0.46300
S 	S 	0.37201 0.46510 0.27044 -0.49100
N 	N 	0.47710 0.60120 0.24830 0.09800
C 	C 	0.48180 0.61350 0.25700 -0.30300
N 	N 	0.23974 0.91800 0.83150 -0.23400
N 	N 	0.25149 0.87640 0.27860 -0.19700
N 	N 	0.31907 0.77550 0.49390 -0.22400
N 	N 	0.37606 0.68920 0.16540 -0.24200
C 	C 	0.27477 0.81870 0.31510 -0.17800
C 	C 	0.34190 0.75500 0.17130 0.07100
H 	H 	0.33540 0.77050 0.22200 -0.04500
C 	C 	0.29882 0.79960 0.88730 -0.11600
H 	H 	0.32040 0.74860 0.87890 0.05400
C 	C 	0.31515 0.80260 0.10840 -0.12600
H 	H 	0.29090 0.84860 0.11620 0.06000
C 	C 	0.36788 0.88820 0.72310 0.04600
C 	C 	0.35740 0.98290 0.74330 -0.12600
H 	H 	0.33870 0.02410 0.70590 0.06100
C 	C 	0.32407 0.78240 0.03330 0.05100
C 	C 	0.27064 0.84620 0.82480 0.06300
H 	H 	0.27370 0.82520 0.77370 -0.02300
C 	C 	0.35036 0.84860 0.64450 0.04600
C 	C 	0.23530 0.94490 0.90410 0.06400
H 	H 	0.21260 0.99460 0.91050 -0.01800
C 	C 	0.29479 0.82950 0.96330 0.04500
C 	C 	0.34610 0.90860 0.57820 -0.12100
H 	H 	0.35400 0.97550 0.58330 0.07400
C 	C 	0.26230 0.90400 0.97080 -0.11900
H 	H 	0.25840 0.92690 0.02100 0.06700
C 	C 	0.32230 0.71910 0.55750 0.05500
H 	H 	0.31370 0.65280 0.55070 -0.01500
C 	C 	0.35970 0.71440 0.02720 -0.12800
H 	H 	0.36690 0.69720 0.97730 0.05800
C 	C 	0.33750 0.75290 0.63230 -0.13200
H 	H 	0.33920 0.71000 0.67550 0.06200
C 	C 	0.37420 0.01660 0.81800 0.06900
H 	H 	0.36630 0.08100 0.83060 -0.00200
C 	C 	0.39540 0.83270 0.78130 -0.12500
H 	H 	0.40360 0.76760 0.77110 0.06900
C 	C 	0.41070 0.87310 0.85390 0.07000
H 	H 	0.42940 0.83390 0.89270 0.01000
C 	C 	0.38500 0.67070 0.09380 0.06600
H 	H 	0.41010 0.62540 0.08790 -0.02300
N 	N 	0.40080 0.96330 0.87280 -0.13000
C 	C 	0.33050 0.86890 0.50600 0.06500
H 	H 	0.32750 0.91040 0.46190 -0.00400
W 	W 	0.86029 0.04995 0.37699 0.25800
Cu	Cu	0.81099 0.21965 0.37819 0.83000
Cu	Cu	0.91056 0.11318 0.26355 0.82900
Cu	Cu	0.78857 0.98692 0.26351 0.82600
S 	S 	0.77872 0.06605 0.37617 -0.48200
S 	S 	0.89388 0.19768 0.37141 -0.46300
S 	S 	0.87201 0.96510 0.27044 -0.49100
N 	N 	0.97710 0.10120 0.24830 0.09800
C 	C 	0.98180 0.11350 0.25700 -0.30300
N 	N 	0.73974 0.41800 0.83150 -0.23500
N 	N 	0.75149 0.37640 0.27860 -0.19700
N 	N 	0.81907 0.27550 0.49390 -0.22400
N 	N 	0.87606 0.18920 0.16540 -0.24200
C 	C 	0.77477 0.31870 0.31510 -0.17800
C 	C 	0.84190 0.25500 0.17130 0.07000
H 	H 	0.83540 0.27050 0.22200 -0.04400
C 	C 	0.79882 0.29960 0.88730 -0.11700
H 	H 	0.82040 0.24860 0.87890 0.05400
C 	C 	0.81515 0.30260 0.10840 -0.12600
H 	H 	0.79090 0.34860 0.11620 0.06000
C 	C 	0.86788 0.38820 0.72310 0.04800
C 	C 	0.85740 0.48290 0.74330 -0.13000
H 	H 	0.83870 0.52410 0.70590 0.06300
C 	C 	0.82407 0.28240 0.03330 0.05100
C 	C 	0.77064 0.34620 0.82480 0.06300
H 	H 	0.77370 0.32520 0.77370 -0.02400
C 	C 	0.85036 0.34860 0.64450 0.04500
C 	C 	0.73530 0.44490 0.90410 0.06500
H 	H 	0.71260 0.49460 0.91050 -0.01900
C 	C 	0.79479 0.32950 0.96330 0.04600
C 	C 	0.84610 0.40860 0.57820 -0.12100
H 	H 	0.85400 0.47550 0.58330 0.07400
C 	C 	0.76230 0.40400 0.97080 -0.12300
H 	H 	0.75840 0.42690 0.02100 0.06900
C 	C 	0.82230 0.21910 0.55750 0.05500
H 	H 	0.81370 0.15280 0.55070 -0.01500
C 	C 	0.85970 0.21440 0.02720 -0.12400
H 	H 	0.86690 0.19720 0.97730 0.05500
C 	C 	0.83750 0.25290 0.63230 -0.13100
H 	H 	0.83920 0.21000 0.67550 0.06200
C 	C 	0.87420 0.51660 0.81800 0.07300
H 	H 	0.86630 0.58100 0.83060 -0.00400
C 	C 	0.89540 0.33270 0.78130 -0.12700
H 	H 	0.90360 0.26760 0.77110 0.07000
C 	C 	0.91070 0.37310 0.85390 0.07000
H 	H 	0.92940 0.33390 0.89270 0.00900
C 	C 	0.88500 0.17070 0.09380 0.06500
H 	H 	0.91010 0.12540 0.08790 -0.02200
N 	N 	0.90080 0.46330 0.87280 -0.13100
C 	C 	0.83050 0.36890 0.50600 0.06500
H 	H 	0.82750 0.41040 0.46190 -0.00400
W 	W 	0.63971 0.54995 0.12301 0.25700
Cu	Cu	0.68901 0.71965 0.12181 0.83000
Cu	Cu	0.58944 0.61318 0.23645 0.82900
Cu	Cu	0.71143 0.48692 0.23649 0.82700
S 	S 	0.72128 0.56605 0.12383 -0.48200
S 	S 	0.60612 0.69768 0.12859 -0.46400
S 	S 	0.62799 0.46510 0.22956 -0.49100
N 	N 	0.52290 0.60120 0.25170 0.09800
C 	C 	0.51820 0.61350 0.24300 -0.30300
N 	N 	0.76026 0.91800 0.66850 -0.23500
N 	N 	0.74851 0.87640 0.22140 -0.19700
N 	N 	0.68093 0.77550 0.00610 -0.22600
N 	N 	0.62394 0.68920 0.33460 -0.24200
C 	C 	0.72523 0.81870 0.18490 -0.17800
C 	C 	0.65810 0.75500 0.32870 0.07100
H 	H 	0.66460 0.77050 0.27800 -0.04500
C 	C 	0.70118 0.79960 0.61270 -0.11700
H 	H 	0.67960 0.74860 0.62110 0.05400
C 	C 	0.68485 0.80260 0.39160 -0.12600
H 	H 	0.70910 0.84860 0.38380 0.06000
C 	C 	0.63212 0.88820 0.77690 0.04600
C 	C 	0.64260 0.98290 0.75670 -0.12600
H 	H 	0.66130 0.02410 0.79410 0.06100
C 	C 	0.67593 0.78240 0.46670 0.05100
C 	C 	0.72936 0.84620 0.67520 0.06300
H 	H 	0.72630 0.82520 0.72630 -0.02400
C 	C 	0.64964 0.84860 0.85550 0.04800
C 	C 	0.76470 0.94490 0.59590 0.06500
H 	H 	0.78740 0.99460 0.58950 -0.01800
C 	C 	0.70521 0.82950 0.53670 0.04600
C 	C 	0.65390 0.90860 0.92180 -0.12300
H 	H 	0.64600 0.97550 0.91670 0.07500
C 	C 	0.73770 0.90400 0.52920 -0.12200
H 	H 	0.74160 0.92690 0.47900 0.06900
C 	C 	0.67770 0.71910 0.94250 0.05700
H 	H 	0.68630 0.65280 0.94930 -0.01600
C 	C 	0.64030 0.71440 0.47280 -0.12600
H 	H 	0.63310 0.69720 0.52270 0.05700
C 	C 	0.66250 0.75290 0.86770 -0.13300
H 	H 	0.66080 0.71000 0.82450 0.06300
C 	C 	0.62580 0.01660 0.68200 0.07000
H 	H 	0.63370 0.08100 0.66940 -0.00300
C 	C 	0.60460 0.83270 0.71870 -0.12500
H 	H 	0.59640 0.76760 0.72890 0.06900
C 	C 	0.58930 0.87310 0.64610 0.06900
H 	H 	0.57060 0.83390 0.60730 0.01000
C 	C 	0.61500 0.67070 0.40620 0.06500
H 	H 	0.58990 0.62540 0.41210 -0.02200
N 	N 	0.59920 0.96330 0.62720 -0.13000
C 	C 	0.66950 0.86890 0.99400 0.06900
H 	H 	0.67250 0.91040 0.03810 -0.00600
W 	W 	0.13971 0.04995 0.12301 0.25800
Cu	Cu	0.18901 0.21965 0.12181 0.83000
Cu	Cu	0.08944 0.11318 0.23645 0.82900
Cu	Cu	0.21143 0.98692 0.23649 0.82600
S 	S 	0.22128 0.06605 0.12383 -0.48100
S 	S 	0.10612 0.19768 0.12859 -0.46300
S 	S 	0.12799 0.96510 0.22956 -0.49200
N 	N 	0.02290 0.10120 0.25170 0.09800
C 	C 	0.01820 0.11350 0.24300 -0.30300
N 	N 	0.26026 0.41800 0.66850 -0.23500
N 	N 	0.24851 0.37640 0.22140 -0.19700
N 	N 	0.18093 0.27550 0.00610 -0.22300
N 	N 	0.12394 0.18920 0.33460 -0.24200
C 	C 	0.22523 0.31870 0.18490 -0.17800
C 	C 	0.15810 0.25500 0.32870 0.07100
H 	H 	0.16460 0.27050 0.27800 -0.04500
C 	C 	0.20118 0.29960 0.61270 -0.11700
H 	H 	0.17960 0.24860 0.62110 0.05400
C 	C 	0.18485 0.30260 0.39160 -0.12600
H 	H 	0.20910 0.34860 0.38380 0.06000
C 	C 	0.13212 0.38820 0.77690 0.04800
C 	C 	0.14260 0.48290 0.75670 -0.13000
H 	H 	0.16130 0.52410 0.79410 0.06300
C 	C 	0.17593 0.28240 0.46670 0.05100
C 	C 	0.22936 0.34620 0.67520 0.06300
H 	H 	0.22630 0.32520 0.72630 -0.02400
C 	C 	0.14964 0.34860 0.85550 0.04400
C 	C 	0.26470 0.44490 0.59590 0.06500
H 	H 	0.28740 0.49460 0.58950 -0.01900
C 	C 	0.20521 0.32950 0.53670 0.04600
C 	C 	0.15390 0.40860 0.92180 -0.11900
H 	H 	0.14600 0.47550 0.91670 0.07300
C 	C 	0.23770 0.40400 0.52920 -0.12200
H 	H 	0.24160 0.42690 0.47900 0.06900
C 	C 	0.17770 0.21910 0.94250 0.05400
H 	H 	0.18630 0.15280 0.94930 -0.01500
C 	C 	0.14030 0.21440 0.47280 -0.12600
H 	H 	0.13310 0.19720 0.52270 0.05700
C 	C 	0.16250 0.25290 0.86770 -0.13000
H 	H 	0.16080 0.21000 0.82450 0.06200
C 	C 	0.12580 0.51660 0.68200 0.07300
H 	H 	0.13370 0.58100 0.66940 -0.00400
C 	C 	0.10460 0.33270 0.71870 -0.12700
H 	H 	0.09640 0.26760 0.72890 0.07000
C 	C 	0.08930 0.37310 0.64610 0.07000
H 	H 	0.07060 0.33390 0.60730 0.01000
C 	C 	0.11500 0.17070 0.40620 0.06600
H 	H 	0.08990 0.12540 0.41210 -0.02200
N 	N 	0.09920 0.46330 0.62720 -0.13100
C 	C 	0.16950 0.36890 0.99400 0.06200
H 	H 	0.17250 0.41040 0.03810 -0.00300
