data_crystal

_cell_length_a 27.72000
_cell_length_b 13.30160
_cell_length_c 20.32700
_cell_angle_alpha 90.00000
_cell_angle_beta  96.44800
_cell_angle_gamma 90.00000

_symmetry_space_group_name_	'P 1'
_symmetry_space_group_name_H-M	'P 1'

loop_
_symmetry_equiv_pos_as_xyz
  x,y,z

loop_
_atom_site_label
_atom_site_type_symbol
_atom_site_fract_x
_atom_site_fract_y
_atom_site_fract_z
_atom_site_charge
W 	W 	0.85623 0.47097 0.85893 0.26600
Cu	Cu	0.91189 0.54475 0.76889 0.83200
Cu	Cu	0.80922 0.64932 0.86964 0.82700
Cu	Cu	0.78742 0.41981 0.75882 0.82700
S 	S 	0.87006 0.39461 0.76407 -0.48600
S 	S 	0.77551 0.48961 0.85952 -0.48600
S 	S 	0.89175 0.62348 0.86262 -0.47200
N 	N 	0.75190 0.81160 0.78530 -0.19600
N 	N 	0.81810 0.70730 0.96800 -0.23500
N 	N 	0.90040 0.01590 0.38370 -0.12700
N 	N 	0.88490 0.63500 0.69010 -0.24900
N 	N 	0.73260 0.97240 0.31740 -0.24100
C 	C 	0.80350 0.79910 0.98070 0.09000
H 	H 	0.78380 0.83470 0.94720 -0.01600
C 	C 	0.84640 0.66020 0.01720 0.09600
H 	H 	0.85870 0.59530 0.00910 -0.02800
C 	C 	0.85780 0.70340 0.07860 -0.19100
H 	H 	0.87590 0.66440 0.11190 0.08500
C 	C 	0.84520 0.79500 0.09420 0.13800
C 	C 	0.77330 0.75290 0.81820 -0.17600
C 	C 	0.89930 0.61890 0.62970 0.07400
H 	H 	0.92380 0.57020 0.62530 -0.02000
C 	C 	0.85040 0.70310 0.69420 0.09400
H 	H 	0.83980 0.71530 0.73630 -0.05000
C 	C 	0.82960 0.75620 0.64190 -0.16100
H 	H 	0.80490 0.80390 0.64790 0.07700
C 	C 	0.84390 0.74140 0.58020 0.09800
C 	C 	0.76550 0.89910 0.31350 0.06500
H 	H 	0.77340 0.88000 0.27100 -0.02200
C 	C 	0.72160 0.99270 0.37740 0.07900
H 	H 	0.69730 0.04190 0.38170 -0.02000
N 	N 	0.98060 0.54110 0.75700 0.07300
C 	C 	0.97990 0.52200 0.75450 -0.28000
C 	C 	0.74320 0.94710 0.43490 -0.14400
H 	H 	0.73420 0.96690 0.47680 0.07400
C 	C 	0.91250 0.92380 0.36670 0.07100
H 	H 	0.93010 0.88300 0.39940 0.01000
C 	C 	0.86260 0.03350 0.27410 -0.11500
H 	H 	0.83990 0.07390 0.24270 0.04900
C 	C 	0.87410 0.93800 0.25530 0.06700
C 	C 	0.86240 0.83250 0.16020 -0.13900
H 	H 	0.88360 0.78710 0.18530 0.07700
C 	C 	0.81630 0.84590 0.04260 -0.17800
H 	H 	0.80540 0.91230 0.04980 0.08600
C 	C 	0.90080 0.88290 0.30330 -0.13700
H 	H 	0.91140 0.81720 0.29370 0.07400
C 	C 	0.85600 0.90380 0.18740 -0.02600
H 	H 	0.83520 0.95050 0.16270 0.03600
C 	C 	0.77790 0.87270 0.43130 0.08700
C 	C 	0.88000 0.67040 0.57460 -0.15100
H 	H 	0.89110 0.65760 0.53290 0.07000
C 	C 	0.68500 0.69810 0.52770 -0.03600
C 	C 	0.79180 0.83930 0.50440 0.00400
C 	C 	0.78840 0.84980 0.36900 -0.13700
H 	H 	0.81180 0.79930 0.36330 0.06200
C 	C 	0.86990 0.06500 0.34460 0.01800
C 	C 	0.88100 0.07600 0.32920 0.04100
C 	C 	0.83160 0.77890 0.51180 -0.01200
C 	C 	0.80790 0.81390 0.53500 -0.03000
W 	W 	0.35623 0.97097 0.85893 0.26800
Cu	Cu	0.41189 0.04475 0.76889 0.83300
Cu	Cu	0.30922 0.14932 0.86964 0.82800
Cu	Cu	0.28742 0.91981 0.75882 0.82800
S 	S 	0.37006 0.89461 0.76407 -0.48500
S 	S 	0.27551 0.98961 0.85952 -0.48400
S 	S 	0.39175 0.12348 0.86262 -0.47200
N 	N 	0.25190 0.31160 0.78530 -0.19500
N 	N 	0.31810 0.20730 0.96800 -0.23400
N 	N 	0.40040 0.51590 0.38370 -0.12600
N 	N 	0.38490 0.13500 0.69010 -0.24800
N 	N 	0.23260 0.47240 0.31740 -0.24000
C 	C 	0.30350 0.29910 0.98070 0.09000
H 	H 	0.28380 0.33470 0.94720 -0.01500
C 	C 	0.34640 0.16020 0.01720 0.09700
H 	H 	0.35870 0.09530 0.00910 -0.02700
C 	C 	0.35780 0.20340 0.07860 -0.19000
H 	H 	0.37590 0.16440 0.11190 0.08400
C 	C 	0.34520 0.29500 0.09420 0.13700
C 	C 	0.27330 0.25290 0.81820 -0.17600
C 	C 	0.39930 0.11890 0.62970 0.07400
H 	H 	0.42380 0.07020 0.62530 -0.02000
C 	C 	0.35040 0.20310 0.69420 0.09400
H 	H 	0.33980 0.21530 0.73630 -0.05000
C 	C 	0.32960 0.25620 0.64190 -0.16100
H 	H 	0.30490 0.30390 0.64790 0.07700
C 	C 	0.34390 0.24140 0.58020 0.09800
C 	C 	0.26550 0.39910 0.31350 0.06500
H 	H 	0.27340 0.38000 0.27100 -0.02200
C 	C 	0.22160 0.49270 0.37740 0.07900
H 	H 	0.19730 0.54190 0.38170 -0.02100
N 	N 	0.48060 0.04110 0.75700 0.07300
C 	C 	0.47990 0.02200 0.75450 -0.28000
C 	C 	0.24320 0.44710 0.43490 -0.14400
H 	H 	0.23420 0.46690 0.47680 0.07400
C 	C 	0.41250 0.42380 0.36670 0.07200
H 	H 	0.43010 0.38300 0.39940 0.01000
C 	C 	0.36260 0.53350 0.27410 -0.11700
H 	H 	0.33990 0.57390 0.24270 0.05000
C 	C 	0.37410 0.43800 0.25530 0.06800
C 	C 	0.36240 0.33250 0.16020 -0.13700
H 	H 	0.38360 0.28710 0.18530 0.07600
C 	C 	0.31630 0.34590 0.04260 -0.17500
H 	H 	0.30540 0.41230 0.04980 0.08600
C 	C 	0.40080 0.38290 0.30330 -0.13800
H 	H 	0.41140 0.31720 0.29370 0.07400
C 	C 	0.35600 0.40380 0.18740 -0.02800
H 	H 	0.33520 0.45050 0.16270 0.03700
C 	C 	0.27790 0.37270 0.43130 0.08700
C 	C 	0.38000 0.17040 0.57460 -0.15100
H 	H 	0.39110 0.15760 0.53290 0.07000
C 	C 	0.18500 0.19810 0.52770 -0.03600
C 	C 	0.29180 0.33930 0.50440 0.00400
C 	C 	0.28840 0.34980 0.36900 -0.13700
H 	H 	0.31180 0.29930 0.36330 0.06200
C 	C 	0.36990 0.56500 0.34460 0.01800
C 	C 	0.38100 0.57600 0.32920 0.04100
C 	C 	0.33160 0.27890 0.51180 -0.01200
C 	C 	0.30790 0.31390 0.53500 -0.03000
W 	W 	0.14377 0.47097 0.64107 0.26700
Cu	Cu	0.08811 0.54475 0.73111 0.83300
Cu	Cu	0.19078 0.64932 0.63036 0.82800
Cu	Cu	0.21258 0.41981 0.74118 0.82800
S 	S 	0.12994 0.39461 0.73593 -0.48500
S 	S 	0.22449 0.48961 0.64048 -0.48500
S 	S 	0.10825 0.62348 0.63738 -0.47100
N 	N 	0.24810 0.81160 0.71470 -0.19500
N 	N 	0.18190 0.70730 0.53200 -0.23400
N 	N 	0.09960 0.01590 0.11630 -0.12500
N 	N 	0.11510 0.63500 0.80990 -0.24800
N 	N 	0.26740 0.97240 0.18260 -0.24000
C 	C 	0.19650 0.79910 0.51930 0.09000
H 	H 	0.21620 0.83470 0.55280 -0.01500
C 	C 	0.15360 0.66020 0.48280 0.09700
H 	H 	0.14130 0.59530 0.49090 -0.02800
C 	C 	0.14220 0.70340 0.42140 -0.19100
H 	H 	0.12410 0.66440 0.38810 0.08400
C 	C 	0.15480 0.79500 0.40580 0.13800
C 	C 	0.22670 0.75290 0.68180 -0.17600
C 	C 	0.10070 0.61890 0.87030 0.07400
H 	H 	0.07620 0.57020 0.87470 -0.02000
C 	C 	0.14960 0.70310 0.80580 0.09400
H 	H 	0.16020 0.71530 0.76370 -0.05000
C 	C 	0.17040 0.75620 0.85810 -0.16100
H 	H 	0.19510 0.80390 0.85210 0.07700
C 	C 	0.15610 0.74140 0.91980 0.09800
C 	C 	0.23450 0.89910 0.18650 0.06500
H 	H 	0.22660 0.88000 0.22900 -0.02200
C 	C 	0.27840 0.99270 0.12260 0.07800
H 	H 	0.30270 0.04190 0.11830 -0.02000
N 	N 	0.01940 0.54110 0.74300 0.07300
C 	C 	0.02010 0.52200 0.74550 -0.28000
C 	C 	0.25680 0.94710 0.06510 -0.14300
H 	H 	0.26580 0.96690 0.02320 0.07400
C 	C 	0.08750 0.92380 0.13330 0.07100
H 	H 	0.06990 0.88300 0.10060 0.01000
C 	C 	0.13740 0.03350 0.22590 -0.11500
H 	H 	0.16010 0.07390 0.25730 0.04900
C 	C 	0.12590 0.93800 0.24470 0.06700
C 	C 	0.13760 0.83250 0.33980 -0.13900
H 	H 	0.11640 0.78710 0.31470 0.07700
C 	C 	0.18370 0.84590 0.45740 -0.17600
H 	H 	0.19460 0.91230 0.45020 0.08600
C 	C 	0.09920 0.88290 0.19670 -0.13600
H 	H 	0.08860 0.81720 0.20630 0.07300
C 	C 	0.14400 0.90380 0.31260 -0.02600
H 	H 	0.16480 0.95050 0.33730 0.03600
C 	C 	0.22210 0.87270 0.06870 0.08700
C 	C 	0.12000 0.67040 0.92540 -0.15100
H 	H 	0.10890 0.65760 0.96710 0.07000
C 	C 	0.31500 0.69810 0.97230 -0.03700
C 	C 	0.20820 0.83930 0.99560 0.00200
C 	C 	0.21160 0.84980 0.13100 -0.13700
H 	H 	0.18820 0.79930 0.13670 0.06200
C 	C 	0.13010 0.06500 0.15540 0.01800
C 	C 	0.11900 0.07600 0.17080 0.04100
C 	C 	0.16840 0.77890 0.98820 -0.01400
C 	C 	0.19210 0.81390 0.96500 -0.02600
W 	W 	0.64377 0.97097 0.64107 0.26700
Cu	Cu	0.58811 0.04475 0.73111 0.83300
Cu	Cu	0.69078 0.14932 0.63036 0.82800
Cu	Cu	0.71258 0.91981 0.74118 0.82800
S 	S 	0.62994 0.89461 0.73593 -0.48500
S 	S 	0.72449 0.98961 0.64048 -0.48500
S 	S 	0.60825 0.12348 0.63738 -0.47100
N 	N 	0.74810 0.31160 0.71470 -0.19500
N 	N 	0.68190 0.20730 0.53200 -0.23400
N 	N 	0.59960 0.51590 0.11630 -0.12600
N 	N 	0.61510 0.13500 0.80990 -0.24800
N 	N 	0.76740 0.47240 0.18260 -0.24000
C 	C 	0.69650 0.29910 0.51930 0.09000
H 	H 	0.71620 0.33470 0.55280 -0.01500
C 	C 	0.65360 0.16020 0.48280 0.09700
H 	H 	0.64130 0.09530 0.49090 -0.02800
C 	C 	0.64220 0.20340 0.42140 -0.19000
H 	H 	0.62410 0.16440 0.38810 0.08400
C 	C 	0.65480 0.29500 0.40580 0.13700
C 	C 	0.72670 0.25290 0.68180 -0.17600
C 	C 	0.60070 0.11890 0.87030 0.07400
H 	H 	0.57620 0.07020 0.87470 -0.02000
C 	C 	0.64960 0.20310 0.80580 0.09400
H 	H 	0.66020 0.21530 0.76370 -0.05000
C 	C 	0.67040 0.25620 0.85810 -0.16100
H 	H 	0.69510 0.30390 0.85210 0.07700
C 	C 	0.65610 0.24140 0.91980 0.09800
C 	C 	0.73450 0.39910 0.18650 0.06500
H 	H 	0.72660 0.38000 0.22900 -0.02200
C 	C 	0.77840 0.49270 0.12260 0.07900
H 	H 	0.80270 0.54190 0.11830 -0.02100
N 	N 	0.51940 0.04110 0.74300 0.07300
C 	C 	0.52010 0.02200 0.74550 -0.28000
C 	C 	0.75680 0.44710 0.06510 -0.14400
H 	H 	0.76580 0.46690 0.02320 0.07400
C 	C 	0.58750 0.42380 0.13330 0.07200
H 	H 	0.56990 0.38300 0.10060 0.01000
C 	C 	0.63740 0.53350 0.22590 -0.11700
H 	H 	0.66010 0.57390 0.25730 0.05000
C 	C 	0.62590 0.43800 0.24470 0.06800
C 	C 	0.63760 0.33250 0.33980 -0.13700
H 	H 	0.61640 0.28710 0.31470 0.07600
C 	C 	0.68370 0.34590 0.45740 -0.17600
H 	H 	0.69460 0.41230 0.45020 0.08600
C 	C 	0.59920 0.38290 0.19670 -0.13700
H 	H 	0.58860 0.31720 0.20630 0.07400
C 	C 	0.64400 0.40380 0.31260 -0.02800
H 	H 	0.66480 0.45050 0.33730 0.03700
C 	C 	0.72210 0.37270 0.06870 0.08700
C 	C 	0.62000 0.17040 0.92540 -0.15100
H 	H 	0.60890 0.15760 0.96710 0.06900
C 	C 	0.81500 0.19810 0.97230 -0.03500
C 	C 	0.70820 0.33930 0.99560 0.00600
C 	C 	0.71160 0.34980 0.13100 -0.13600
H 	H 	0.68820 0.29930 0.13670 0.06200
C 	C 	0.63010 0.56500 0.15540 0.01800
C 	C 	0.61900 0.57600 0.17080 0.04100
C 	C 	0.66840 0.27890 0.98820 -0.01100
C 	C 	0.69210 0.31390 0.96500 -0.03200
W 	W 	0.14377 0.52903 0.14107 0.26700
Cu	Cu	0.08811 0.45525 0.23111 0.83300
Cu	Cu	0.19078 0.35068 0.13036 0.82800
Cu	Cu	0.21258 0.58019 0.24118 0.82800
S 	S 	0.12994 0.60539 0.23593 -0.48500
S 	S 	0.22449 0.51039 0.14048 -0.48500
S 	S 	0.10825 0.37652 0.13738 -0.47100
N 	N 	0.24810 0.18840 0.21470 -0.19500
N 	N 	0.18190 0.29270 0.03200 -0.23400
N 	N 	0.09960 0.98410 0.61630 -0.12600
N 	N 	0.11510 0.36500 0.30990 -0.24800
N 	N 	0.26740 0.02760 0.68260 -0.24000
C 	C 	0.19650 0.20090 0.01930 0.09100
H 	H 	0.21620 0.16530 0.05280 -0.01500
C 	C 	0.15360 0.33980 0.98280 0.09600
H 	H 	0.14130 0.40470 0.99090 -0.02800
C 	C 	0.14220 0.29660 0.92140 -0.19100
H 	H 	0.12410 0.33560 0.88810 0.08500
C 	C 	0.15480 0.20500 0.90580 0.13800
C 	C 	0.22670 0.24710 0.18180 -0.17600
C 	C 	0.10070 0.38110 0.37030 0.07400
H 	H 	0.07620 0.42980 0.37470 -0.02000
C 	C 	0.14960 0.29690 0.30580 0.09400
H 	H 	0.16020 0.28470 0.26370 -0.05000
C 	C 	0.17040 0.24380 0.35810 -0.16100
H 	H 	0.19510 0.19610 0.35210 0.07700
C 	C 	0.15610 0.25860 0.41980 0.09800
C 	C 	0.23450 0.10090 0.68650 0.06500
H 	H 	0.22660 0.12000 0.72900 -0.02200
C 	C 	0.27840 0.00730 0.62260 0.07900
H 	H 	0.30270 0.95810 0.61830 -0.02000
N 	N 	0.01940 0.45890 0.24300 0.07300
C 	C 	0.02010 0.47800 0.24550 -0.28000
C 	C 	0.25680 0.05290 0.56510 -0.14400
H 	H 	0.26580 0.03310 0.52320 0.07400
C 	C 	0.08750 0.07620 0.63330 0.07100
H 	H 	0.06990 0.11700 0.60060 0.01000
C 	C 	0.13740 0.96650 0.72590 -0.11500
H 	H 	0.16010 0.92610 0.75730 0.04900
C 	C 	0.12590 0.06200 0.74470 0.06700
C 	C 	0.13760 0.16750 0.83980 -0.13900
H 	H 	0.11640 0.21290 0.81470 0.07700
C 	C 	0.18370 0.15410 0.95740 -0.17800
H 	H 	0.19460 0.08770 0.95020 0.08600
C 	C 	0.09920 0.11710 0.69670 -0.13700
H 	H 	0.08860 0.18280 0.70630 0.07400
C 	C 	0.14400 0.09620 0.81260 -0.02600
H 	H 	0.16480 0.04950 0.83730 0.03600
C 	C 	0.22210 0.12730 0.56870 0.08700
C 	C 	0.12000 0.32960 0.42540 -0.15100
H 	H 	0.10890 0.34240 0.46710 0.07000
C 	C 	0.31500 0.30190 0.47230 -0.03600
C 	C 	0.20820 0.16070 0.49560 0.00400
C 	C 	0.21160 0.15020 0.63100 -0.13700
H 	H 	0.18820 0.20070 0.63670 0.06200
C 	C 	0.13010 0.93500 0.65540 0.01800
C 	C 	0.11900 0.92400 0.67080 0.04100
C 	C 	0.16840 0.22110 0.48820 -0.01200
C 	C 	0.19210 0.18610 0.46500 -0.03000
W 	W 	0.64377 0.02903 0.14107 0.26800
Cu	Cu	0.58811 0.95525 0.23111 0.83300
Cu	Cu	0.69078 0.85068 0.13036 0.82800
Cu	Cu	0.71258 0.08019 0.24118 0.82800
S 	S 	0.62994 0.10539 0.23593 -0.48500
S 	S 	0.72449 0.01039 0.14048 -0.48400
S 	S 	0.60825 0.87652 0.13738 -0.47200
N 	N 	0.74810 0.68840 0.21470 -0.19500
N 	N 	0.68190 0.79270 0.03200 -0.23400
N 	N 	0.59960 0.48410 0.61630 -0.12600
N 	N 	0.61510 0.86500 0.30990 -0.24800
N 	N 	0.76740 0.52760 0.68260 -0.24000
C 	C 	0.69650 0.70090 0.01930 0.09000
H 	H 	0.71620 0.66530 0.05280 -0.01500
C 	C 	0.65360 0.83980 0.98280 0.09700
H 	H 	0.64130 0.90470 0.99090 -0.02700
C 	C 	0.64220 0.79660 0.92140 -0.19000
H 	H 	0.62410 0.83560 0.88810 0.08400
C 	C 	0.65480 0.70500 0.90580 0.13700
C 	C 	0.72670 0.74710 0.18180 -0.17600
C 	C 	0.60070 0.88110 0.37030 0.07400
H 	H 	0.57620 0.92980 0.37470 -0.02000
C 	C 	0.64960 0.79690 0.30580 0.09400
H 	H 	0.66020 0.78470 0.26370 -0.05000
C 	C 	0.67040 0.74380 0.35810 -0.16100
H 	H 	0.69510 0.69610 0.35210 0.07700
C 	C 	0.65610 0.75860 0.41980 0.09800
C 	C 	0.73450 0.60090 0.68650 0.06500
H 	H 	0.72660 0.62000 0.72900 -0.02200
C 	C 	0.77840 0.50730 0.62260 0.07900
H 	H 	0.80270 0.45810 0.61830 -0.02100
N 	N 	0.51940 0.95890 0.24300 0.07300
C 	C 	0.52010 0.97800 0.24550 -0.28000
C 	C 	0.75680 0.55290 0.56510 -0.14400
H 	H 	0.76580 0.53310 0.52320 0.07400
C 	C 	0.58750 0.57620 0.63330 0.07200
H 	H 	0.56990 0.61700 0.60060 0.01000
C 	C 	0.63740 0.46650 0.72590 -0.11700
H 	H 	0.66010 0.42610 0.75730 0.05000
C 	C 	0.62590 0.56200 0.74470 0.06800
C 	C 	0.63760 0.66750 0.83980 -0.13700
H 	H 	0.61640 0.71290 0.81470 0.07600
C 	C 	0.68370 0.65410 0.95740 -0.17500
H 	H 	0.69460 0.58770 0.95020 0.08600
C 	C 	0.59920 0.61710 0.69670 -0.13800
H 	H 	0.58860 0.68280 0.70630 0.07400
C 	C 	0.64400 0.59620 0.81260 -0.02800
H 	H 	0.66480 0.54950 0.83730 0.03700
C 	C 	0.72210 0.62730 0.56870 0.08700
C 	C 	0.62000 0.82960 0.42540 -0.15100
H 	H 	0.60890 0.84240 0.46710 0.07000
C 	C 	0.81500 0.80190 0.47230 -0.03600
C 	C 	0.70820 0.66070 0.49560 0.00400
C 	C 	0.71160 0.65020 0.63100 -0.13700
H 	H 	0.68820 0.70070 0.63670 0.06200
C 	C 	0.63010 0.43500 0.65540 0.01800
C 	C 	0.61900 0.42400 0.67080 0.04100
C 	C 	0.66840 0.72110 0.48820 -0.01200
C 	C 	0.69210 0.68610 0.46500 -0.03000
W 	W 	0.85623 0.52903 0.35893 0.26700
Cu	Cu	0.91189 0.45525 0.26889 0.83300
Cu	Cu	0.80922 0.35068 0.36964 0.82800
Cu	Cu	0.78742 0.58019 0.25882 0.82800
S 	S 	0.87006 0.60539 0.26407 -0.48500
S 	S 	0.77551 0.51039 0.35952 -0.48500
S 	S 	0.89175 0.37652 0.36262 -0.47100
N 	N 	0.75190 0.18840 0.28530 -0.19500
N 	N 	0.81810 0.29270 0.46800 -0.23400
N 	N 	0.90040 0.98410 0.88370 -0.12500
N 	N 	0.88490 0.36500 0.19010 -0.24800
N 	N 	0.73260 0.02760 0.81740 -0.24000
C 	C 	0.80350 0.20090 0.48070 0.09000
H 	H 	0.78380 0.16530 0.44720 -0.01500
C 	C 	0.84640 0.33980 0.51720 0.09700
H 	H 	0.85870 0.40470 0.50910 -0.02800
C 	C 	0.85780 0.29660 0.57860 -0.19100
H 	H 	0.87590 0.33560 0.61190 0.08400
C 	C 	0.84520 0.20500 0.59420 0.13800
C 	C 	0.77330 0.24710 0.31820 -0.17600
C 	C 	0.89930 0.38110 0.12970 0.07400
H 	H 	0.92380 0.42980 0.12530 -0.02000
C 	C 	0.85040 0.29690 0.19420 0.09400
H 	H 	0.83980 0.28470 0.23630 -0.05000
C 	C 	0.82960 0.24380 0.14190 -0.16100
H 	H 	0.80490 0.19610 0.14790 0.07700
C 	C 	0.84390 0.25860 0.08020 0.09800
C 	C 	0.76550 0.10090 0.81350 0.06500
H 	H 	0.77340 0.12000 0.77100 -0.02200
C 	C 	0.72160 0.00730 0.87740 0.07800
H 	H 	0.69730 0.95810 0.88170 -0.02000
N 	N 	0.98060 0.45890 0.25700 0.07300
C 	C 	0.97990 0.47800 0.25450 -0.28000
C 	C 	0.74320 0.05290 0.93490 -0.14300
H 	H 	0.73420 0.03310 0.97680 0.07400
C 	C 	0.91250 0.07620 0.86670 0.07100
H 	H 	0.93010 0.11700 0.89940 0.01000
C 	C 	0.86260 0.96650 0.77410 -0.11500
H 	H 	0.83990 0.92610 0.74270 0.04900
C 	C 	0.87410 0.06200 0.75530 0.06700
C 	C 	0.86240 0.16750 0.66020 -0.13900
H 	H 	0.88360 0.21290 0.68530 0.07700
C 	C 	0.81630 0.15410 0.54260 -0.17600
H 	H 	0.80540 0.08770 0.54980 0.08600
C 	C 	0.90080 0.11710 0.80330 -0.13600
H 	H 	0.91140 0.18280 0.79370 0.07300
C 	C 	0.85600 0.09620 0.68740 -0.02600
H 	H 	0.83520 0.04950 0.66270 0.03600
C 	C 	0.77790 0.12730 0.93130 0.08700
C 	C 	0.88000 0.32960 0.07460 -0.15100
H 	H 	0.89110 0.34240 0.03290 0.07000
C 	C 	0.68500 0.30190 0.02770 -0.03700
C 	C 	0.79180 0.16070 0.00440 0.00200
C 	C 	0.78840 0.15020 0.86900 -0.13700
H 	H 	0.81180 0.20070 0.86330 0.06200
C 	C 	0.86990 0.93500 0.84460 0.01800
C 	C 	0.88100 0.92400 0.82920 0.04100
C 	C 	0.83160 0.22110 0.01180 -0.01400
C 	C 	0.80790 0.18610 0.03500 -0.02600
W 	W 	0.35623 0.02903 0.35893 0.26700
Cu	Cu	0.41189 0.95525 0.26889 0.83300
Cu	Cu	0.30922 0.85068 0.36964 0.82800
Cu	Cu	0.28742 0.08019 0.25882 0.82800
S 	S 	0.37006 0.10539 0.26407 -0.48500
S 	S 	0.27551 0.01039 0.35952 -0.48500
S 	S 	0.39175 0.87652 0.36262 -0.47100
N 	N 	0.25190 0.68840 0.28530 -0.19500
N 	N 	0.31810 0.79270 0.46800 -0.23400
N 	N 	0.40040 0.48410 0.88370 -0.12600
N 	N 	0.38490 0.86500 0.19010 -0.24800
N 	N 	0.23260 0.52760 0.81740 -0.24000
C 	C 	0.30350 0.70090 0.48070 0.09000
H 	H 	0.28380 0.66530 0.44720 -0.01500
C 	C 	0.34640 0.83980 0.51720 0.09700
H 	H 	0.35870 0.90470 0.50910 -0.02800
C 	C 	0.35780 0.79660 0.57860 -0.19000
H 	H 	0.37590 0.83560 0.61190 0.08400
C 	C 	0.34520 0.70500 0.59420 0.13700
C 	C 	0.27330 0.74710 0.31820 -0.17600
C 	C 	0.39930 0.88110 0.12970 0.07400
H 	H 	0.42380 0.92980 0.12530 -0.02000
C 	C 	0.35040 0.79690 0.19420 0.09400
H 	H 	0.33980 0.78470 0.23630 -0.05000
C 	C 	0.32960 0.74380 0.14190 -0.16100
H 	H 	0.30490 0.69610 0.14790 0.07700
C 	C 	0.34390 0.75860 0.08020 0.09800
C 	C 	0.26550 0.60090 0.81350 0.06500
H 	H 	0.27340 0.62000 0.77100 -0.02200
C 	C 	0.22160 0.50730 0.87740 0.07900
H 	H 	0.19730 0.45810 0.88170 -0.02100
N 	N 	0.48060 0.95890 0.25700 0.07300
C 	C 	0.47990 0.97800 0.25450 -0.28000
C 	C 	0.24320 0.55290 0.93490 -0.14400
H 	H 	0.23420 0.53310 0.97680 0.07400
C 	C 	0.41250 0.57620 0.86670 0.07200
H 	H 	0.43010 0.61700 0.89940 0.01000
C 	C 	0.36260 0.46650 0.77410 -0.11700
H 	H 	0.33990 0.42610 0.74270 0.05000
C 	C 	0.37410 0.56200 0.75530 0.06800
C 	C 	0.36240 0.66750 0.66020 -0.13700
H 	H 	0.38360 0.71290 0.68530 0.07600
C 	C 	0.31630 0.65410 0.54260 -0.17600
H 	H 	0.30540 0.58770 0.54980 0.08600
C 	C 	0.40080 0.61710 0.80330 -0.13700
H 	H 	0.41140 0.68280 0.79370 0.07400
C 	C 	0.35600 0.59620 0.68740 -0.02800
H 	H 	0.33520 0.54950 0.66270 0.03700
C 	C 	0.27790 0.62730 0.93130 0.08700
C 	C 	0.38000 0.82960 0.07460 -0.15100
H 	H 	0.39110 0.84240 0.03290 0.06900
C 	C 	0.18500 0.80190 0.02770 -0.03500
C 	C 	0.29180 0.66070 0.00440 0.00600
C 	C 	0.28840 0.65020 0.86900 -0.13600
H 	H 	0.31180 0.70070 0.86330 0.06200
C 	C 	0.36990 0.43500 0.84460 0.01800
C 	C 	0.38100 0.42400 0.82920 0.04100
C 	C 	0.33160 0.72110 0.01180 -0.01100
C 	C 	0.30790 0.68610 0.03500 -0.03200
