data_crystal

_cell_length_a 22.69600
_cell_length_b 12.69600
_cell_length_c 16.12600
_cell_angle_alpha 90.00000
_cell_angle_beta  90.00000
_cell_angle_gamma 90.00000

_symmetry_space_group_name_	'P 1'
_symmetry_space_group_name_H-M	'P 1'

loop_
_symmetry_equiv_pos_as_xyz
  x,y,z

loop_
_atom_site_label
_atom_site_type_symbol
_atom_site_fract_x
_atom_site_fract_y
_atom_site_fract_z
_atom_site_charge
Fe	Fe	0.51950 0.28810 0.11868 1.08100
Fe	Fe	0.26261 0.39886 0.00064 1.09900
N 	N 	0.48950 0.11730 0.13710 -0.23000
N 	N 	0.58975 0.19230 0.06630 -0.24100
N 	N 	0.62910 0.02950 0.05730 -0.09700
N 	N 	0.67060 0.10110 0.03290 -0.20700
N 	N 	0.74080 0.26640 0.00320 -0.24100
N 	N 	0.67167 0.38860 0.02500 -0.11700
N 	N 	0.72420 0.43790 0.00770 -0.22500
N 	N 	0.29190 0.37770 0.86720 -0.21900
N 	N 	0.35310 0.35880 0.00850 -0.24200
N 	N 	0.43650 0.30720 0.94500 -0.11000
N 	N 	0.44652 0.30910 0.02820 -0.20600
N 	N 	0.34720 0.36750 0.20060 -0.15100
N 	N 	0.44325 0.33170 0.19590 -0.21100
N 	N 	0.42740 0.33710 0.27810 -0.22700
C 	C 	0.43800 0.08330 0.16550 0.08700
H 	H 	0.41160 0.13300 0.18570 -0.01600
C 	C 	0.42130 0.97950 0.16710 -0.15000
H 	H 	0.38480 0.96010 0.18840 0.07100
C 	C 	0.45920 0.90500 0.13690 0.06300
H 	H 	0.44850 0.83430 0.13630 -0.00200
C 	C 	0.51380 0.93660 0.10710 -0.13500
H 	H 	0.54100 0.88780 0.08760 0.08300
C 	C 	0.52640 0.04430 0.10740 0.06000
C 	C 	0.58230 0.08700 0.07600 0.06100
C 	C 	0.64580 0.19630 0.04040 0.06200
C 	C 	0.68360 0.28670 0.02200 0.04100
C 	C 	0.76410 0.36290 0.99690 0.09300
H 	H 	0.80370 0.37590 0.98630 -0.02500
C 	C 	0.25880 0.38840 0.79960 0.07200
H 	H 	0.21990 0.41010 0.80610 -0.00900
C 	C 	0.27920 0.36910 0.72060 -0.13400
H 	H 	0.25480 0.37660 0.67470 0.05700
C 	C 	0.33780 0.33810 0.71190 0.03400
H 	H 	0.35320 0.32470 0.65950 0.00500
C 	C 	0.37290 0.32710 0.78120 -0.11800
H 	H 	0.41220 0.30760 0.77620 0.06500
C 	C 	0.34820 0.34600 0.85840 0.04500
C 	C 	0.38140 0.33680 0.93660 0.06500
C 	C 	0.39640 0.33950 0.06430 0.05000
C 	C 	0.39430 0.35030 0.15400 0.04600
C 	C 	0.37090 0.35950 0.27650 0.09300
H 	H 	0.34890 0.36900 0.32450 -0.01400
Fe	Fe	0.98050 0.21190 0.61868 1.07900
Fe	Fe	0.23739 0.10114 0.50064 1.09800
N 	N 	0.01050 0.38270 0.63710 -0.22900
N 	N 	0.91025 0.30770 0.56630 -0.24300
N 	N 	0.87090 0.47050 0.55730 -0.09900
N 	N 	0.82940 0.39890 0.53290 -0.20900
N 	N 	0.75920 0.23360 0.50320 -0.24300
N 	N 	0.82833 0.11140 0.52500 -0.11700
N 	N 	0.77580 0.06210 0.50770 -0.22600
N 	N 	0.20810 0.12230 0.36720 -0.21900
N 	N 	0.14690 0.14120 0.50850 -0.24200
N 	N 	0.06350 0.19280 0.44500 -0.11000
N 	N 	0.05348 0.19090 0.52820 -0.20600
N 	N 	0.15280 0.13250 0.70060 -0.15100
N 	N 	0.05675 0.16830 0.69590 -0.21000
N 	N 	0.07260 0.16290 0.77810 -0.22700
C 	C 	0.06200 0.41670 0.66550 0.08400
H 	H 	0.08840 0.36700 0.68570 -0.01500
C 	C 	0.07870 0.52050 0.66710 -0.14500
H 	H 	0.11520 0.53990 0.68840 0.07000
C 	C 	0.04080 0.59500 0.63690 0.06000
H 	H 	0.05150 0.66570 0.63630 -0.00100
C 	C 	0.98620 0.56340 0.60710 -0.13100
H 	H 	0.95900 0.61220 0.58760 0.08200
C 	C 	0.97360 0.45570 0.60740 0.05700
C 	C 	0.91770 0.41300 0.57600 0.06200
C 	C 	0.85420 0.30370 0.54040 0.06200
C 	C 	0.81640 0.21330 0.52200 0.04100
C 	C 	0.73590 0.13710 0.49690 0.09700
H 	H 	0.69630 0.12410 0.48630 -0.02600
C 	C 	0.24120 0.11160 0.29960 0.07200
H 	H 	0.28010 0.08990 0.30610 -0.00900
C 	C 	0.22080 0.13090 0.22060 -0.13500
H 	H 	0.24520 0.12340 0.17470 0.05700
C 	C 	0.16220 0.16190 0.21190 0.03400
H 	H 	0.14680 0.17530 0.15950 0.00500
C 	C 	0.12710 0.17290 0.28120 -0.11800
H 	H 	0.08780 0.19240 0.27620 0.06500
C 	C 	0.15180 0.15400 0.35840 0.04500
C 	C 	0.11860 0.16320 0.43660 0.06500
C 	C 	0.10360 0.16050 0.56430 0.05000
C 	C 	0.10570 0.14970 0.65400 0.04600
C 	C 	0.12910 0.14050 0.77650 0.09300
H 	H 	0.15110 0.13100 0.82450 -0.01400
Fe	Fe	0.48050 0.28810 0.38132 1.08000
Fe	Fe	0.73739 0.39886 0.49936 1.09800
N 	N 	0.51050 0.11730 0.36290 -0.23000
N 	N 	0.41025 0.19230 0.43370 -0.24300
N 	N 	0.37090 0.02950 0.44270 -0.09900
N 	N 	0.32940 0.10110 0.46710 -0.20900
N 	N 	0.25920 0.26640 0.49680 -0.24300
N 	N 	0.32833 0.38860 0.47500 -0.11700
N 	N 	0.27580 0.43790 0.49230 -0.22600
N 	N 	0.70810 0.37770 0.63280 -0.21900
N 	N 	0.64690 0.35880 0.49150 -0.24200
N 	N 	0.56350 0.30720 0.55500 -0.11000
N 	N 	0.55348 0.30910 0.47180 -0.20600
N 	N 	0.65280 0.36750 0.29940 -0.15100
N 	N 	0.55675 0.33170 0.30410 -0.21100
N 	N 	0.57260 0.33710 0.22190 -0.22700
C 	C 	0.56200 0.08330 0.33450 0.08500
H 	H 	0.58840 0.13300 0.31430 -0.01600
C 	C 	0.57870 0.97950 0.33290 -0.14700
H 	H 	0.61520 0.96010 0.31160 0.07000
C 	C 	0.54080 0.90500 0.36310 0.06000
H 	H 	0.55150 0.83430 0.36370 -0.00100
C 	C 	0.48620 0.93660 0.39290 -0.13200
H 	H 	0.45900 0.88780 0.41240 0.08200
C 	C 	0.47360 0.04430 0.39260 0.05800
C 	C 	0.41770 0.08700 0.42400 0.06100
C 	C 	0.35420 0.19630 0.45960 0.06200
C 	C 	0.31640 0.28670 0.47800 0.04100
C 	C 	0.23590 0.36290 0.50310 0.09700
H 	H 	0.19630 0.37590 0.51370 -0.02600
C 	C 	0.74120 0.38840 0.70040 0.07200
H 	H 	0.78010 0.41010 0.69390 -0.00900
C 	C 	0.72080 0.36910 0.77940 -0.13500
H 	H 	0.74520 0.37660 0.82530 0.05700
C 	C 	0.66220 0.33810 0.78810 0.03400
H 	H 	0.64680 0.32470 0.84050 0.00400
C 	C 	0.62710 0.32710 0.71880 -0.11800
H 	H 	0.58780 0.30760 0.72380 0.06500
C 	C 	0.65180 0.34600 0.64160 0.04500
C 	C 	0.61860 0.33680 0.56340 0.06500
C 	C 	0.60360 0.33950 0.43570 0.05000
C 	C 	0.60570 0.35030 0.34600 0.04600
C 	C 	0.62910 0.35950 0.22350 0.09300
H 	H 	0.65110 0.36900 0.17550 -0.01400
Fe	Fe	0.01950 0.21190 0.88132 1.08100
Fe	Fe	0.76261 0.10114 0.99936 1.09700
N 	N 	0.98950 0.38270 0.86290 -0.23100
N 	N 	0.08975 0.30770 0.93370 -0.24200
N 	N 	0.12910 0.47050 0.94270 -0.09800
N 	N 	0.17060 0.39890 0.96710 -0.20800
N 	N 	0.24080 0.23360 0.99680 -0.24200
N 	N 	0.17167 0.11140 0.97500 -0.11700
N 	N 	0.22420 0.06210 0.99230 -0.22600
N 	N 	0.79190 0.12230 0.13280 -0.21800
N 	N 	0.85310 0.14120 0.99150 -0.24400
N 	N 	0.93650 0.19280 0.05500 -0.10900
N 	N 	0.94652 0.19090 0.97180 -0.20800
N 	N 	0.84720 0.13250 0.79940 -0.15100
N 	N 	0.94325 0.16830 0.80410 -0.21100
N 	N 	0.92740 0.16290 0.72190 -0.22700
C 	C 	0.93800 0.41670 0.83450 0.08100
H 	H 	0.91160 0.36700 0.81430 -0.01500
C 	C 	0.92130 0.52050 0.83290 -0.14200
H 	H 	0.88480 0.53990 0.81160 0.06800
C 	C 	0.95920 0.59500 0.86310 0.05300
H 	H 	0.94850 0.66570 0.86370 0.00100
C 	C 	0.01380 0.56340 0.89290 -0.12500
H 	H 	0.04100 0.61220 0.91240 0.08100
C 	C 	0.02640 0.45570 0.89260 0.05800
C 	C 	0.08230 0.41300 0.92400 0.06200
C 	C 	0.14580 0.30370 0.95960 0.06200
C 	C 	0.18360 0.21330 0.97800 0.04100
C 	C 	0.26410 0.13710 0.00310 0.09700
H 	H 	0.30370 0.12410 0.01370 -0.02600
C 	C 	0.75880 0.11160 0.20040 0.07200
H 	H 	0.71990 0.08990 0.19390 -0.00900
C 	C 	0.77920 0.13090 0.27940 -0.13400
H 	H 	0.75480 0.12340 0.32530 0.05700
C 	C 	0.83780 0.16190 0.28810 0.03400
H 	H 	0.85320 0.17530 0.34050 0.00500
C 	C 	0.87290 0.17290 0.21880 -0.11700
H 	H 	0.91220 0.19240 0.22380 0.06600
C 	C 	0.84820 0.15400 0.14160 0.04500
C 	C 	0.88140 0.16320 0.06340 0.06800
C 	C 	0.89640 0.16050 0.93570 0.05000
C 	C 	0.89430 0.14970 0.84600 0.04600
C 	C 	0.87090 0.14050 0.72350 0.09300
H 	H 	0.84890 0.13100 0.67550 -0.01400
Fe	Fe	0.48050 0.71190 0.88132 1.08000
Fe	Fe	0.73739 0.60114 0.99936 1.09800
N 	N 	0.51050 0.88270 0.86290 -0.23100
N 	N 	0.41025 0.80770 0.93370 -0.24200
N 	N 	0.37090 0.97050 0.94270 -0.09800
N 	N 	0.32940 0.89890 0.96710 -0.20800
N 	N 	0.25920 0.73360 0.99680 -0.24100
N 	N 	0.32833 0.61140 0.97500 -0.11700
N 	N 	0.27580 0.56210 0.99230 -0.22500
N 	N 	0.70810 0.62230 0.13280 -0.21900
N 	N 	0.64690 0.64120 0.99150 -0.24200
N 	N 	0.56350 0.69280 0.05500 -0.11000
N 	N 	0.55348 0.69090 0.97180 -0.20600
N 	N 	0.65280 0.63250 0.79940 -0.15100
N 	N 	0.55675 0.66830 0.80410 -0.21100
N 	N 	0.57260 0.66290 0.72190 -0.22700
C 	C 	0.56200 0.91670 0.83450 0.08700
H 	H 	0.58840 0.86700 0.81430 -0.01600
C 	C 	0.57870 0.02050 0.83290 -0.15000
H 	H 	0.61520 0.03990 0.81160 0.07100
C 	C 	0.54080 0.09500 0.86310 0.06300
H 	H 	0.55150 0.16570 0.86370 -0.00200
C 	C 	0.48620 0.06340 0.89290 -0.13500
H 	H 	0.45900 0.11220 0.91240 0.08300
C 	C 	0.47360 0.95570 0.89260 0.06000
C 	C 	0.41770 0.91300 0.92400 0.06100
C 	C 	0.35420 0.80370 0.95960 0.06200
C 	C 	0.31640 0.71330 0.97800 0.04100
C 	C 	0.23590 0.63710 0.00310 0.09300
H 	H 	0.19630 0.62410 0.01370 -0.02500
C 	C 	0.74120 0.61160 0.20040 0.07200
H 	H 	0.78010 0.58990 0.19390 -0.00900
C 	C 	0.72080 0.63090 0.27940 -0.13400
H 	H 	0.74520 0.62340 0.32530 0.05700
C 	C 	0.66220 0.66190 0.28810 0.03400
H 	H 	0.64680 0.67530 0.34050 0.00500
C 	C 	0.62710 0.67290 0.21880 -0.11800
H 	H 	0.58780 0.69240 0.22380 0.06500
C 	C 	0.65180 0.65400 0.14160 0.04500
C 	C 	0.61860 0.66320 0.06340 0.06500
C 	C 	0.60360 0.66050 0.93570 0.05000
C 	C 	0.60570 0.64970 0.84600 0.04600
C 	C 	0.62910 0.64050 0.72350 0.09300
H 	H 	0.65110 0.63100 0.67550 -0.01400
Fe	Fe	0.01950 0.78810 0.38132 1.07900
Fe	Fe	0.76261 0.89886 0.49936 1.09800
N 	N 	0.98950 0.61730 0.36290 -0.22900
N 	N 	0.08975 0.69230 0.43370 -0.24300
N 	N 	0.12910 0.52950 0.44270 -0.09900
N 	N 	0.17060 0.60110 0.46710 -0.20900
N 	N 	0.24080 0.76640 0.49680 -0.24300
N 	N 	0.17167 0.88860 0.47500 -0.11700
N 	N 	0.22420 0.93790 0.49230 -0.22600
N 	N 	0.79190 0.87770 0.63280 -0.21900
N 	N 	0.85310 0.85880 0.49150 -0.24200
N 	N 	0.93650 0.80720 0.55500 -0.11000
N 	N 	0.94652 0.80910 0.47180 -0.20600
N 	N 	0.84720 0.86750 0.29940 -0.15100
N 	N 	0.94325 0.83170 0.30410 -0.21000
N 	N 	0.92740 0.83710 0.22190 -0.22700
C 	C 	0.93800 0.58330 0.33450 0.08400
H 	H 	0.91160 0.63300 0.31430 -0.01500
C 	C 	0.92130 0.47950 0.33290 -0.14500
H 	H 	0.88480 0.46010 0.31160 0.07000
C 	C 	0.95920 0.40500 0.36310 0.06000
H 	H 	0.94850 0.33430 0.36370 -0.00100
C 	C 	0.01380 0.43660 0.39290 -0.13100
H 	H 	0.04100 0.38780 0.41240 0.08200
C 	C 	0.02640 0.54430 0.39260 0.05700
C 	C 	0.08230 0.58700 0.42400 0.06200
C 	C 	0.14580 0.69630 0.45960 0.06200
C 	C 	0.18360 0.78670 0.47800 0.04100
C 	C 	0.26410 0.86290 0.50310 0.09700
H 	H 	0.30370 0.87590 0.51370 -0.02600
C 	C 	0.75880 0.88840 0.70040 0.07200
H 	H 	0.71990 0.91010 0.69390 -0.00900
C 	C 	0.77920 0.86910 0.77940 -0.13500
H 	H 	0.75480 0.87660 0.82530 0.05700
C 	C 	0.83780 0.83810 0.78810 0.03400
H 	H 	0.85320 0.82470 0.84050 0.00500
C 	C 	0.87290 0.82710 0.71880 -0.11800
H 	H 	0.91220 0.80760 0.72380 0.06500
C 	C 	0.84820 0.84600 0.64160 0.04500
C 	C 	0.88140 0.83680 0.56340 0.06500
C 	C 	0.89640 0.83950 0.43570 0.05000
C 	C 	0.89430 0.85030 0.34600 0.04600
C 	C 	0.87090 0.85950 0.22350 0.09300
H 	H 	0.84890 0.86900 0.17550 -0.01400
Fe	Fe	0.51950 0.71190 0.61868 1.08000
Fe	Fe	0.26261 0.60114 0.50064 1.09800
N 	N 	0.48950 0.88270 0.63710 -0.23000
N 	N 	0.58975 0.80770 0.56630 -0.24300
N 	N 	0.62910 0.97050 0.55730 -0.09900
N 	N 	0.67060 0.89890 0.53290 -0.20900
N 	N 	0.74080 0.73360 0.50320 -0.24300
N 	N 	0.67167 0.61140 0.52500 -0.11700
N 	N 	0.72420 0.56210 0.50770 -0.22600
N 	N 	0.29190 0.62230 0.36720 -0.21900
N 	N 	0.35310 0.64120 0.50850 -0.24200
N 	N 	0.43650 0.69280 0.44500 -0.11000
N 	N 	0.44652 0.69090 0.52820 -0.20600
N 	N 	0.34720 0.63250 0.70060 -0.15100
N 	N 	0.44325 0.66830 0.69590 -0.21100
N 	N 	0.42740 0.66290 0.77810 -0.22700
C 	C 	0.43800 0.91670 0.66550 0.08500
H 	H 	0.41160 0.86700 0.68570 -0.01600
C 	C 	0.42130 0.02050 0.66710 -0.14700
H 	H 	0.38480 0.03990 0.68840 0.07000
C 	C 	0.45920 0.09500 0.63690 0.06000
H 	H 	0.44850 0.16570 0.63630 -0.00100
C 	C 	0.51380 0.06340 0.60710 -0.13200
H 	H 	0.54100 0.11220 0.58760 0.08200
C 	C 	0.52640 0.95570 0.60740 0.05800
C 	C 	0.58230 0.91300 0.57600 0.06100
C 	C 	0.64580 0.80370 0.54040 0.06200
C 	C 	0.68360 0.71330 0.52200 0.04100
C 	C 	0.76410 0.63710 0.49690 0.09700
H 	H 	0.80370 0.62410 0.48630 -0.02600
C 	C 	0.25880 0.61160 0.29960 0.07200
H 	H 	0.21990 0.58990 0.30610 -0.00900
C 	C 	0.27920 0.63090 0.22060 -0.13500
H 	H 	0.25480 0.62340 0.17470 0.05700
C 	C 	0.33780 0.66190 0.21190 0.03400
H 	H 	0.35320 0.67530 0.15950 0.00400
C 	C 	0.37290 0.67290 0.28120 -0.11800
H 	H 	0.41220 0.69240 0.27620 0.06500
C 	C 	0.34820 0.65400 0.35840 0.04500
C 	C 	0.38140 0.66320 0.43660 0.06500
C 	C 	0.39640 0.66050 0.56430 0.05000
C 	C 	0.39430 0.64970 0.65400 0.04600
C 	C 	0.37090 0.64050 0.77650 0.09300
H 	H 	0.34890 0.63100 0.82450 -0.01400
Fe	Fe	0.98050 0.78810 0.11868 1.08100
Fe	Fe	0.23739 0.89886 0.00064 1.09700
N 	N 	0.01050 0.61730 0.13710 -0.23100
N 	N 	0.91025 0.69230 0.06630 -0.24200
N 	N 	0.87090 0.52950 0.05730 -0.09800
N 	N 	0.82940 0.60110 0.03290 -0.20800
N 	N 	0.75920 0.76640 0.00320 -0.24200
N 	N 	0.82833 0.88860 0.02500 -0.11700
N 	N 	0.77580 0.93790 0.00770 -0.22600
N 	N 	0.20810 0.87770 0.86720 -0.21800
N 	N 	0.14690 0.85880 0.00850 -0.24400
N 	N 	0.06350 0.80720 0.94500 -0.10900
N 	N 	0.05348 0.80910 0.02820 -0.20800
N 	N 	0.15280 0.86750 0.20060 -0.15100
N 	N 	0.05675 0.83170 0.19590 -0.21100
N 	N 	0.07260 0.83710 0.27810 -0.22700
C 	C 	0.06200 0.58330 0.16550 0.08100
H 	H 	0.08840 0.63300 0.18570 -0.01500
C 	C 	0.07870 0.47950 0.16710 -0.14200
H 	H 	0.11520 0.46010 0.18840 0.06800
C 	C 	0.04080 0.40500 0.13690 0.05300
H 	H 	0.05150 0.33430 0.13630 0.00100
C 	C 	0.98620 0.43660 0.10710 -0.12500
H 	H 	0.95900 0.38780 0.08760 0.08100
C 	C 	0.97360 0.54430 0.10740 0.05800
C 	C 	0.91770 0.58700 0.07600 0.06200
C 	C 	0.85420 0.69630 0.04040 0.06200
C 	C 	0.81640 0.78670 0.02200 0.04100
C 	C 	0.73590 0.86290 0.99690 0.09700
H 	H 	0.69630 0.87590 0.98630 -0.02600
C 	C 	0.24120 0.88840 0.79960 0.07200
H 	H 	0.28010 0.91010 0.80610 -0.00900
C 	C 	0.22080 0.86910 0.72060 -0.13400
H 	H 	0.24520 0.87660 0.67470 0.05700
C 	C 	0.16220 0.83810 0.71190 0.03400
H 	H 	0.14680 0.82470 0.65950 0.00500
C 	C 	0.12710 0.82710 0.78120 -0.11700
H 	H 	0.08780 0.80760 0.77620 0.06600
C 	C 	0.15180 0.84600 0.85840 0.04500
C 	C 	0.11860 0.83680 0.93660 0.06800
C 	C 	0.10360 0.83950 0.06430 0.05000
C 	C 	0.10570 0.85030 0.15400 0.04600
C 	C 	0.12910 0.85950 0.27650 0.09300
H 	H 	0.15110 0.86900 0.32450 -0.01400
