data_crystal

_cell_length_a 15.64500
_cell_length_b 15.64500
_cell_length_c 19.75000
_cell_angle_alpha 90.00000
_cell_angle_beta  90.00000
_cell_angle_gamma 90.00000

_symmetry_space_group_name_	'P 1'
_symmetry_space_group_name_H-M	'P 1'

loop_
_symmetry_equiv_pos_as_xyz
  x,y,z

loop_
_atom_site_label
_atom_site_type_symbol
_atom_site_fract_x
_atom_site_fract_y
_atom_site_fract_z
_atom_site_charge
N 	N 	0.06777 0.18031 0.04619 -0.21400
C 	C 	0.02823 0.14756 0.99136 -0.15500
H 	H 	0.96890 0.15030 0.98920 0.10300
C 	C 	0.07165 0.11020 0.93849 0.03000
H 	H 	0.04200 0.08800 0.90170 -0.01600
C 	C 	0.15991 0.10613 0.94066 -0.11200
H 	H 	0.19030 0.08220 0.90490 0.05600
C 	C 	0.20261 0.13821 0.99702 0.02400
C 	C 	0.15343 0.17433 0.04816 -0.02100
H 	H 	0.18150 0.19570 0.08610 0.00400
N 	N 	0.56777 0.68031 0.54619 -0.24000
C 	C 	0.52823 0.64756 0.49136 0.03900
H 	H 	0.46890 0.65030 0.48920 -0.01300
C 	C 	0.57165 0.61020 0.43849 -0.08400
H 	H 	0.54200 0.58800 0.40170 0.05000
C 	C 	0.65991 0.60613 0.44066 -0.04500
H 	H 	0.69030 0.58220 0.40490 0.03800
C 	C 	0.70261 0.63821 0.49702 0.00400
C 	C 	0.65343 0.67433 0.54816 -0.00400
H 	H 	0.68150 0.69570 0.58610 0.00100
N 	N 	0.43223 0.81969 0.54619 -0.24500
C 	C 	0.47177 0.85244 0.49136 0.04700
H 	H 	0.53110 0.84970 0.48920 -0.01500
C 	C 	0.42835 0.88980 0.43849 -0.10100
H 	H 	0.45800 0.91200 0.40170 0.05600
C 	C 	0.34009 0.89387 0.44066 -0.02000
H 	H 	0.30970 0.91780 0.40490 0.02700
C 	C 	0.29739 0.86179 0.49702 -0.03500
C 	C 	0.34657 0.82567 0.54816 0.01400
H 	H 	0.31850 0.80430 0.58610 -0.00700
N 	N 	0.93223 0.31969 0.04619 -0.26100
C 	C 	0.97177 0.35244 0.99136 0.24400
H 	H 	0.03110 0.34970 0.98920 -0.13000
C 	C 	0.92835 0.38980 0.93849 -0.21500
H 	H 	0.95800 0.41200 0.90170 0.12400
C 	C 	0.84009 0.39387 0.94066 0.04800
H 	H 	0.80970 0.41780 0.90490 0.00900
C 	C 	0.79739 0.36179 0.99702 -0.05500
C 	C 	0.84657 0.32567 0.04816 0.03100
H 	H 	0.81850 0.30430 0.08610 -0.00700
N 	N 	0.06969 0.81777 0.29619 -0.25300
C 	C 	0.10244 0.77823 0.24136 0.03600
H 	H 	0.09970 0.71890 0.23920 -0.02600
C 	C 	0.13980 0.82165 0.18849 -0.10000
H 	H 	0.16200 0.79200 0.15170 0.05100
C 	C 	0.14387 0.90991 0.19066 -0.03700
H 	H 	0.16780 0.94030 0.15490 0.03000
C 	C 	0.11179 0.95261 0.24702 -0.02200
C 	C 	0.07567 0.90343 0.29816 -0.00100
H 	H 	0.05430 0.93150 0.33610 -0.01600
N 	N 	0.56969 0.31777 0.79619 -0.24200
C 	C 	0.60244 0.27823 0.74136 0.04300
H 	H 	0.59970 0.21890 0.73920 -0.01400
C 	C 	0.63980 0.32165 0.68849 -0.09100
H 	H 	0.66200 0.29200 0.65170 0.05400
C 	C 	0.64387 0.40991 0.69066 -0.03200
H 	H 	0.66780 0.44030 0.65490 0.03500
C 	C 	0.61179 0.45261 0.74702 -0.01400
C 	C 	0.57567 0.40343 0.79816 0.00500
H 	H 	0.55430 0.43150 0.83610 -0.00300
N 	N 	0.43031 0.18223 0.79619 -0.24200
C 	C 	0.39756 0.22177 0.74136 0.04300
H 	H 	0.40030 0.28110 0.73920 -0.01400
C 	C 	0.36020 0.17835 0.68849 -0.09300
H 	H 	0.33800 0.20800 0.65170 0.05200
C 	C 	0.35613 0.09009 0.69066 -0.03300
H 	H 	0.33220 0.05970 0.65490 0.03000
C 	C 	0.38821 0.04739 0.74702 -0.01700
C 	C 	0.42433 0.09657 0.79816 0.00500
H 	H 	0.44570 0.06850 0.83610 -0.00300
N 	N 	0.93031 0.68223 0.29619 -0.22300
C 	C 	0.89756 0.72177 0.24136 0.05000
H 	H 	0.90030 0.78110 0.23920 0.00000
C 	C 	0.86020 0.67835 0.18849 -0.08400
H 	H 	0.83800 0.70800 0.15170 0.05500
C 	C 	0.85613 0.59009 0.19066 -0.02900
H 	H 	0.83220 0.55970 0.15490 0.03500
C 	C 	0.88821 0.54739 0.24702 -0.00800
C 	C 	0.92433 0.59657 0.29816 0.01100
H 	H 	0.94570 0.56850 0.33610 0.01300
N 	N 	0.43223 0.18031 0.95381 -0.24500
C 	C 	0.47177 0.14756 0.00864 0.04700
H 	H 	0.53110 0.15030 0.01080 -0.01600
C 	C 	0.42835 0.11020 0.06151 -0.10000
H 	H 	0.45800 0.08800 0.09830 0.05600
C 	C 	0.34009 0.10613 0.05934 -0.02000
H 	H 	0.30970 0.08220 0.09510 0.02700
C 	C 	0.29739 0.13821 0.00298 -0.03500
C 	C 	0.34657 0.17433 0.95184 0.01400
H 	H 	0.31850 0.19570 0.91390 -0.00700
N 	N 	0.93223 0.68031 0.45381 -0.26200
C 	C 	0.97177 0.64756 0.50864 0.24800
H 	H 	0.03110 0.65030 0.51080 -0.13200
C 	C 	0.92835 0.61020 0.56151 -0.21700
H 	H 	0.95800 0.58800 0.59830 0.12500
C 	C 	0.84009 0.60613 0.55934 0.04900
H 	H 	0.80970 0.58220 0.59510 0.00900
C 	C 	0.79739 0.63821 0.50298 -0.05500
C 	C 	0.84657 0.67433 0.45184 0.03200
H 	H 	0.81850 0.69570 0.41390 -0.00700
N 	N 	0.06777 0.81969 0.45381 -0.21500
C 	C 	0.02823 0.85244 0.50864 -0.15900
H 	H 	0.96890 0.84970 0.51080 0.10500
C 	C 	0.07165 0.88980 0.56151 0.03100
H 	H 	0.04200 0.91200 0.59830 -0.01700
C 	C 	0.15991 0.89387 0.55934 -0.11300
H 	H 	0.19030 0.91780 0.59510 0.05600
C 	C 	0.20261 0.86179 0.50298 0.02500
C 	C 	0.15343 0.82567 0.45184 -0.02200
H 	H 	0.18150 0.80430 0.41390 0.00400
N 	N 	0.56777 0.31969 0.95381 -0.24000
C 	C 	0.52823 0.35244 0.00864 0.03800
H 	H 	0.46890 0.34970 0.01080 -0.01300
C 	C 	0.57165 0.38980 0.06151 -0.08400
H 	H 	0.54200 0.41200 0.09830 0.05000
C 	C 	0.65991 0.39387 0.05934 -0.04500
H 	H 	0.69030 0.41780 0.09510 0.03800
C 	C 	0.70261 0.36179 0.00298 0.00400
C 	C 	0.65343 0.32567 0.95184 -0.00400
H 	H 	0.68150 0.30430 0.91390 0.00100
N 	N 	0.43031 0.81777 0.70381 -0.24200
C 	C 	0.39756 0.77823 0.75864 0.04300
H 	H 	0.40030 0.71890 0.76080 -0.01400
C 	C 	0.36020 0.82165 0.81151 -0.09300
H 	H 	0.33800 0.79200 0.84830 0.05200
C 	C 	0.35613 0.90991 0.80934 -0.03300
H 	H 	0.33220 0.94030 0.84510 0.03000
C 	C 	0.38821 0.95261 0.75298 -0.01600
C 	C 	0.42433 0.90343 0.70184 0.00500
H 	H 	0.44570 0.93150 0.66390 -0.00300
N 	N 	0.93031 0.31777 0.20381 -0.22300
C 	C 	0.89756 0.27823 0.25864 0.05000
H 	H 	0.90030 0.21890 0.26080 0.00000
C 	C 	0.86020 0.32165 0.31151 -0.08400
H 	H 	0.83800 0.29200 0.34830 0.05500
C 	C 	0.85613 0.40991 0.30934 -0.02900
H 	H 	0.83220 0.44030 0.34510 0.03500
C 	C 	0.88821 0.45261 0.25298 -0.00800
C 	C 	0.92433 0.40343 0.20184 0.01100
H 	H 	0.94570 0.43150 0.16390 0.01300
N 	N 	0.06969 0.18223 0.20381 -0.25300
C 	C 	0.10244 0.22177 0.25864 0.03600
H 	H 	0.09970 0.28110 0.26080 -0.02600
C 	C 	0.13980 0.17835 0.31151 -0.10000
H 	H 	0.16200 0.20800 0.34830 0.05100
C 	C 	0.14387 0.09009 0.30934 -0.03700
H 	H 	0.16780 0.05970 0.34510 0.03000
C 	C 	0.11179 0.04739 0.25298 -0.02200
C 	C 	0.07567 0.09657 0.20184 -0.00100
H 	H 	0.05430 0.06850 0.16390 -0.01600
N 	N 	0.56969 0.68223 0.70381 -0.24200
C 	C 	0.60244 0.72177 0.75864 0.04300
H 	H 	0.59970 0.78110 0.76080 -0.01400
C 	C 	0.63980 0.67835 0.81151 -0.09100
H 	H 	0.66200 0.70800 0.84830 0.05400
C 	C 	0.64387 0.59009 0.80934 -0.03200
H 	H 	0.66780 0.55970 0.84510 0.03500
C 	C 	0.61179 0.54739 0.75298 -0.01400
C 	C 	0.57567 0.59657 0.70184 0.00500
H 	H 	0.55430 0.56850 0.66390 -0.00300
Co	Co	-0.00000 0.25000 0.12500 1.03300
Co	Co	0.50000 0.75000 0.62500 1.06400
Co	Co	-0.00000 0.75000 0.37500 1.03300
Co	Co	0.50000 0.25000 0.87500 1.06400
N 	N 	0.93223 0.81969 0.95381 -0.26100
C 	C 	0.97177 0.85244 0.00864 0.24300
H 	H 	0.03110 0.84970 0.01080 -0.12900
C 	C 	0.92835 0.88980 0.06151 -0.21400
H 	H 	0.95800 0.91200 0.09830 0.12300
C 	C 	0.84009 0.89387 0.05934 0.04700
H 	H 	0.80970 0.91780 0.09510 0.00900
C 	C 	0.79739 0.86179 0.00298 -0.05500
C 	C 	0.84657 0.82567 0.95184 0.03100
H 	H 	0.81850 0.80430 0.91390 -0.00700
N 	N 	0.43223 0.31969 0.45381 -0.24500
C 	C 	0.47177 0.35244 0.50864 0.04700
H 	H 	0.53110 0.34970 0.51080 -0.01500
C 	C 	0.42835 0.38980 0.56151 -0.10100
H 	H 	0.45800 0.41200 0.59830 0.05600
C 	C 	0.34009 0.39387 0.55934 -0.02000
H 	H 	0.30970 0.41780 0.59510 0.02700
C 	C 	0.29739 0.36179 0.50298 -0.03500
C 	C 	0.34657 0.32567 0.45184 0.01400
H 	H 	0.31850 0.30430 0.41390 -0.00700
N 	N 	0.56777 0.18031 0.45381 -0.24000
C 	C 	0.52823 0.14756 0.50864 0.03900
H 	H 	0.46890 0.15030 0.51080 -0.01300
C 	C 	0.57165 0.11020 0.56151 -0.08400
H 	H 	0.54200 0.08800 0.59830 0.05000
C 	C 	0.65991 0.10613 0.55934 -0.04500
H 	H 	0.69030 0.08220 0.59510 0.03800
C 	C 	0.70261 0.13821 0.50298 0.00400
C 	C 	0.65343 0.17433 0.45184 -0.00400
H 	H 	0.68150 0.19570 0.41390 0.00100
N 	N 	0.06777 0.68031 0.95381 -0.21500
C 	C 	0.02823 0.64756 0.00864 -0.15800
H 	H 	0.96890 0.65030 0.01080 0.10400
C 	C 	0.07165 0.61020 0.06151 0.03100
H 	H 	0.04200 0.58800 0.09830 -0.01700
C 	C 	0.15991 0.60613 0.05934 -0.11300
H 	H 	0.19030 0.58220 0.09510 0.05600
C 	C 	0.20261 0.63821 0.00298 0.02500
C 	C 	0.15343 0.67433 0.95184 -0.02100
H 	H 	0.18150 0.69570 0.91390 0.00400
N 	N 	0.93031 0.18223 0.70381 -0.22300
C 	C 	0.89756 0.22177 0.75864 0.05000
H 	H 	0.90030 0.28110 0.76080 0.00100
C 	C 	0.86020 0.17835 0.81151 -0.08400
H 	H 	0.83800 0.20800 0.84830 0.05500
C 	C 	0.85613 0.09009 0.80934 -0.02900
H 	H 	0.83220 0.05970 0.84510 0.03500
C 	C 	0.88821 0.04739 0.75298 -0.00800
C 	C 	0.92433 0.09657 0.70184 0.01100
H 	H 	0.94570 0.06850 0.66390 0.01300
N 	N 	0.43031 0.68223 0.20381 -0.24200
C 	C 	0.39756 0.72177 0.25864 0.04300
H 	H 	0.40030 0.78110 0.26080 -0.01400
C 	C 	0.36020 0.67835 0.31151 -0.09300
H 	H 	0.33800 0.70800 0.34830 0.05200
C 	C 	0.35613 0.59009 0.30934 -0.03300
H 	H 	0.33220 0.55970 0.34510 0.03000
C 	C 	0.38821 0.54739 0.25298 -0.01600
C 	C 	0.42433 0.59657 0.20184 0.00500
H 	H 	0.44570 0.56850 0.16390 -0.00300
N 	N 	0.56969 0.81777 0.20381 -0.24200
C 	C 	0.60244 0.77823 0.25864 0.04300
H 	H 	0.59970 0.71890 0.26080 -0.01400
C 	C 	0.63980 0.82165 0.31151 -0.09100
H 	H 	0.66200 0.79200 0.34830 0.05400
C 	C 	0.64387 0.90991 0.30934 -0.03200
H 	H 	0.66780 0.94030 0.34510 0.03500
C 	C 	0.61179 0.95261 0.25298 -0.01400
C 	C 	0.57567 0.90343 0.20184 0.00500
H 	H 	0.55430 0.93150 0.16390 -0.00300
N 	N 	0.06969 0.31777 0.70381 -0.25300
C 	C 	0.10244 0.27823 0.75864 0.03600
H 	H 	0.09970 0.21890 0.76080 -0.02600
C 	C 	0.13980 0.32165 0.81151 -0.10000
H 	H 	0.16200 0.29200 0.84830 0.05100
C 	C 	0.14387 0.40991 0.80934 -0.03700
H 	H 	0.16780 0.44030 0.84510 0.03000
C 	C 	0.11179 0.45261 0.75298 -0.02200
C 	C 	0.07567 0.40343 0.70184 -0.00100
H 	H 	0.05430 0.43150 0.66390 -0.01600
N 	N 	0.56777 0.81969 0.04619 -0.24000
C 	C 	0.52823 0.85244 0.99136 0.03800
H 	H 	0.46890 0.84970 0.98920 -0.01300
C 	C 	0.57165 0.88980 0.93849 -0.08400
H 	H 	0.54200 0.91200 0.90170 0.05000
C 	C 	0.65991 0.89387 0.94066 -0.04500
H 	H 	0.69030 0.91780 0.90490 0.03800
C 	C 	0.70261 0.86179 0.99702 0.00400
C 	C 	0.65343 0.82567 0.04816 -0.00400
H 	H 	0.68150 0.80430 0.08610 0.00100
N 	N 	0.06777 0.31969 0.54619 -0.21400
C 	C 	0.02823 0.35244 0.49136 -0.16100
H 	H 	0.96890 0.34970 0.48920 0.10600
C 	C 	0.07165 0.38980 0.43849 0.03200
H 	H 	0.04200 0.41200 0.40170 -0.01800
C 	C 	0.15991 0.39387 0.44066 -0.11400
H 	H 	0.19030 0.41780 0.40490 0.05700
C 	C 	0.20261 0.36179 0.49702 0.02500
C 	C 	0.15343 0.32567 0.54816 -0.02200
H 	H 	0.18150 0.30430 0.58610 0.00400
N 	N 	0.93223 0.18031 0.54619 -0.26100
C 	C 	0.97177 0.14756 0.49136 0.24600
H 	H 	0.03110 0.15030 0.48920 -0.13100
C 	C 	0.92835 0.11020 0.43849 -0.21600
H 	H 	0.95800 0.08800 0.40170 0.12400
C 	C 	0.84009 0.10613 0.44066 0.04800
H 	H 	0.80970 0.08220 0.40490 0.00900
C 	C 	0.79739 0.13821 0.49702 -0.05500
C 	C 	0.84657 0.17433 0.54816 0.03100
H 	H 	0.81850 0.19570 0.58610 -0.00700
N 	N 	0.43223 0.68031 0.04619 -0.24500
C 	C 	0.47177 0.64756 0.99136 0.04700
H 	H 	0.53110 0.65030 0.98920 -0.01600
C 	C 	0.42835 0.61020 0.93849 -0.10000
H 	H 	0.45800 0.58800 0.90170 0.05600
C 	C 	0.34009 0.60613 0.94066 -0.02000
H 	H 	0.30970 0.58220 0.90490 0.02700
C 	C 	0.29739 0.63821 0.99702 -0.03500
C 	C 	0.34657 0.67433 0.04816 0.01400
H 	H 	0.31850 0.69570 0.08610 -0.00700
N 	N 	0.56969 0.18223 0.29619 -0.24200
C 	C 	0.60244 0.22177 0.24136 0.04300
H 	H 	0.59970 0.28110 0.23920 -0.01400
C 	C 	0.63980 0.17835 0.18849 -0.09200
H 	H 	0.66200 0.20800 0.15170 0.05400
C 	C 	0.64387 0.09009 0.19066 -0.03100
H 	H 	0.66780 0.05970 0.15490 0.03500
C 	C 	0.61179 0.04739 0.24702 -0.01400
C 	C 	0.57567 0.09657 0.29816 0.00500
H 	H 	0.55430 0.06850 0.33610 -0.00300
N 	N 	0.06969 0.68223 0.79619 -0.25300
C 	C 	0.10244 0.72177 0.74136 0.03500
H 	H 	0.09970 0.78110 0.73920 -0.02600
C 	C 	0.13980 0.67835 0.68849 -0.10000
H 	H 	0.16200 0.70800 0.65170 0.05100
C 	C 	0.14387 0.59009 0.69066 -0.03700
H 	H 	0.16780 0.55970 0.65490 0.03000
C 	C 	0.11179 0.54739 0.74702 -0.02200
C 	C 	0.07567 0.59657 0.79816 -0.00100
H 	H 	0.05430 0.56850 0.83610 -0.01600
N 	N 	0.93031 0.81777 0.79619 -0.22300
C 	C 	0.89756 0.77823 0.74136 0.05000
H 	H 	0.90030 0.71890 0.73920 0.00100
C 	C 	0.86020 0.82165 0.68849 -0.08400
H 	H 	0.83800 0.79200 0.65170 0.05500
C 	C 	0.85613 0.90991 0.69066 -0.02900
H 	H 	0.83220 0.94030 0.65490 0.03500
C 	C 	0.88821 0.95261 0.74702 -0.00800
C 	C 	0.92433 0.90343 0.79816 0.01100
H 	H 	0.94570 0.93150 0.83610 0.01300
N 	N 	0.43031 0.31777 0.29619 -0.24200
C 	C 	0.39756 0.27823 0.24136 0.04300
H 	H 	0.40030 0.21890 0.23920 -0.01400
C 	C 	0.36020 0.32165 0.18849 -0.09300
H 	H 	0.33800 0.29200 0.15170 0.05200
C 	C 	0.35613 0.40991 0.19066 -0.03300
H 	H 	0.33220 0.44030 0.15490 0.03000
C 	C 	0.38821 0.45261 0.24702 -0.01600
C 	C 	0.42433 0.40343 0.29816 0.00500
H 	H 	0.44570 0.43150 0.33610 -0.00300
Co	Co	-0.00000 0.75000 0.87500 1.03300
Co	Co	0.50000 0.25000 0.37500 1.06400
Co	Co	0.00000 0.25000 0.62500 1.03300
Co	Co	0.50000 0.75000 0.12500 1.06400
