data_crystal

_cell_length_a 10.00100
_cell_length_b 15.55080
_cell_length_c 15.55080
_cell_angle_alpha 84.06500
_cell_angle_beta  71.24280
_cell_angle_gamma 71.24270

_symmetry_space_group_name_	'P 1'
_symmetry_space_group_name_H-M	'P 1'

loop_
_symmetry_equiv_pos_as_xyz
  x,y,z

loop_
_atom_site_label
_atom_site_type_symbol
_atom_site_fract_x
_atom_site_fract_y
_atom_site_fract_z
_atom_site_charge
Cu	Cu	0.12874 0.26113 0.99859 0.89000
Cu	Cu	0.38846 0.73887 0.00141 0.89300
Cu	Cu	0.37733 0.50141 0.76113 0.89700
Cu	Cu	0.63987 0.49859 0.23887 0.89800
Cu	Cu	0.38846 0.00141 0.73887 0.89200
Cu	Cu	0.12874 0.99859 0.26113 0.88900
Cu	Cu	0.63987 0.23887 0.49859 0.89800
Cu	Cu	0.37733 0.76113 0.50141 0.89700
H 	H 	0.85010 0.20550 0.01550 0.13500
H 	H 	0.94710 0.33130 0.85950 0.23000
H 	H 	0.89780 0.48160 0.30760 0.12400
H 	H 	0.24860 0.31340 0.14100 0.13200
H 	H 	0.07110 0.79450 0.98450 0.12700
H 	H 	0.13790 0.66870 0.14050 0.10200
H 	H 	0.68700 0.51840 0.69240 0.16400
H 	H 	0.70300 0.68660 0.85900 0.16400
H 	H 	0.11560 0.48450 0.70550 0.14200
H 	H 	0.05660 0.64050 0.83130 0.08300
H 	H 	0.45540 0.19240 0.98160 0.15700
H 	H 	0.63960 0.35900 0.81340 0.15700
H 	H 	0.30560 0.51550 0.29450 0.15700
H 	H 	0.52840 0.35950 0.16870 0.11900
H 	H 	0.62940 0.80760 0.01840 0.15400
H 	H 	0.81200 0.64100 0.18660 0.16300
H 	H 	0.07110 0.98450 0.79450 0.12700
H 	H 	0.13790 0.14050 0.66870 0.10200
H 	H 	0.68700 0.69240 0.51840 0.16400
H 	H 	0.70300 0.85900 0.68660 0.16400
H 	H 	0.85010 0.01550 0.20550 0.13500
H 	H 	0.94710 0.85950 0.33130 0.23000
H 	H 	0.89780 0.30760 0.48160 0.12400
H 	H 	0.24860 0.14100 0.31340 0.13200
H 	H 	0.30560 0.29450 0.51550 0.15700
H 	H 	0.52840 0.16870 0.35950 0.11900
H 	H 	0.62940 0.01840 0.80760 0.15400
H 	H 	0.81200 0.18660 0.64100 0.16300
H 	H 	0.11560 0.70550 0.48450 0.14200
H 	H 	0.05660 0.83130 0.64050 0.08300
H 	H 	0.45540 0.98160 0.19240 0.15700
H 	H 	0.63960 0.81340 0.35900 0.15700
C 	C 	0.89432 0.16893 0.05623 -0.04100
C 	C 	0.01804 0.27664 0.83668 -0.26300
C 	C 	0.91949 0.38922 0.12820 0.30900
C 	C 	0.94086 0.44668 0.25500 -0.01500
C 	C 	0.08770 0.40220 0.22880 0.27900
C 	C 	0.14850 0.34670 0.15630 -0.11400
C 	C 	0.11948 0.83107 0.94377 -0.10800
C 	C 	0.13136 0.72336 0.16332 -0.11500
C 	C 	0.43691 0.61078 0.87180 0.23600
C 	C 	0.64254 0.55332 0.74500 -0.16600
C 	C 	0.71870 0.59780 0.77120 0.42500
C 	C 	0.65150 0.65330 0.84370 -0.16600
C 	C 	0.20055 0.44377 0.66893 -0.15300
C 	C 	0.10472 0.66332 0.77664 -0.07400
C 	C 	0.29769 0.37180 0.88922 0.23600
C 	C 	0.44586 0.24500 0.94668 -0.16400
C 	C 	0.56650 0.27120 0.90220 0.41800
C 	C 	0.55480 0.34370 0.84670 -0.16600
C 	C 	0.31325 0.55623 0.33107 -0.15500
C 	C 	0.54468 0.33668 0.22336 -0.11500
C 	C 	0.55871 0.62820 0.11078 0.23500
C 	C 	0.63754 0.75500 0.05332 -0.16400
C 	C 	0.73990 0.72880 0.09780 0.42300
C 	C 	0.74520 0.65630 0.15330 -0.16400
C 	C 	0.11948 0.94377 0.83107 -0.10800
C 	C 	0.13136 0.16332 0.72336 -0.11500
C 	C 	0.43691 0.87180 0.61078 0.23600
C 	C 	0.64254 0.74500 0.55332 -0.16600
C 	C 	0.71870 0.77120 0.59780 0.42500
C 	C 	0.65150 0.84370 0.65330 -0.16600
C 	C 	0.89432 0.05623 0.16893 -0.04100
C 	C 	0.01804 0.83668 0.27664 -0.26300
C 	C 	0.91949 0.12820 0.38922 0.30900
C 	C 	0.94086 0.25500 0.44668 -0.01500
C 	C 	0.08770 0.22880 0.40220 0.27900
C 	C 	0.14850 0.15630 0.34670 -0.11400
C 	C 	0.31325 0.33107 0.55623 -0.15500
C 	C 	0.54468 0.22336 0.33668 -0.11500
C 	C 	0.55871 0.11078 0.62820 0.23500
C 	C 	0.63754 0.05332 0.75500 -0.16400
C 	C 	0.73990 0.09780 0.72880 0.42300
C 	C 	0.74520 0.15330 0.65630 -0.16400
C 	C 	0.20055 0.66893 0.44377 -0.15300
C 	C 	0.10472 0.77664 0.66332 -0.07400
C 	C 	0.29769 0.88922 0.37180 0.23600
C 	C 	0.44586 0.94668 0.24500 -0.16400
C 	C 	0.56650 0.90220 0.27120 0.41800
C 	C 	0.55480 0.84670 0.34370 -0.16600
C 	C 	0.08340 0.12400 0.12400 0.22000
C 	C 	0.83360 0.10570 0.10570 0.35700
C 	C 	0.33140 0.87600 0.87600 0.23100
C 	C 	0.04500 0.89430 0.89430 0.30800
C 	C 	0.45740 0.37600 0.62400 0.22600
C 	C 	0.18930 0.39430 0.60570 0.40900
C 	C 	0.45740 0.62400 0.37600 0.22600
C 	C 	0.18930 0.60570 0.39430 0.40900
C 	C 	0.21650 0.15230 0.84770 0.22700
C 	C 	0.02250 0.24250 0.75750 0.36700
C 	C 	0.21650 0.84770 0.15230 0.22700
C 	C 	0.02250 0.75750 0.24250 0.36700
C 	C 	0.31420 0.65230 0.65230 0.23600
C 	C 	0.03000 0.74250 0.74250 0.28500
C 	C 	0.61880 0.34770 0.34770 0.23600
C 	C 	0.51500 0.25750 0.25750 0.39600
N 	N 	0.01626 0.17905 0.06543 -0.25100
N 	N 	0.11253 0.23317 0.88077 -0.18200
N 	N 	0.06758 0.33850 0.10614 -0.24900
N 	N 	0.85673 0.44044 0.20490 -0.22600
N 	N 	0.26074 0.82095 0.93457 -0.20100
N 	N 	0.22647 0.76683 0.11923 -0.20000
N 	N 	0.51222 0.66150 0.89386 -0.18900
N 	N 	0.50207 0.55956 0.79510 -0.19700
N 	N 	0.33169 0.43457 0.67905 -0.19500
N 	N 	0.24330 0.61923 0.73317 -0.21000
N 	N 	0.42372 0.39386 0.83850 -0.19300
N 	N 	0.31163 0.29510 0.94044 -0.19900
N 	N 	0.44531 0.56543 0.32095 -0.19400
N 	N 	0.59570 0.38077 0.26683 -0.19800
N 	N 	0.65608 0.60614 0.16150 -0.19200
N 	N 	0.54717 0.70490 0.05956 -0.19900
N 	N 	0.26074 0.93457 0.82095 -0.20100
N 	N 	0.22647 0.11923 0.76683 -0.20000
N 	N 	0.51222 0.89386 0.66150 -0.18900
N 	N 	0.50207 0.79510 0.55956 -0.19700
N 	N 	0.01626 0.06543 0.17905 -0.25100
N 	N 	0.11253 0.88077 0.23317 -0.18200
N 	N 	0.06758 0.10614 0.33850 -0.24900
N 	N 	0.85673 0.20490 0.44044 -0.22600
N 	N 	0.44531 0.32095 0.56543 -0.19400
N 	N 	0.59570 0.26683 0.38077 -0.19800
N 	N 	0.65608 0.16150 0.60614 -0.19200
N 	N 	0.54717 0.05956 0.70490 -0.19900
N 	N 	0.33169 0.67905 0.43457 -0.19500
N 	N 	0.24330 0.73317 0.61923 -0.21000
N 	N 	0.42372 0.83850 0.39386 -0.19300
N 	N 	0.31163 0.94044 0.29510 -0.19900
O 	O 	0.84646 0.38470 0.07898 -0.28200
O 	O 	0.31014 0.61530 0.92102 -0.28400
O 	O 	0.17544 0.42102 0.88470 -0.29900
O 	O 	0.48116 0.57898 0.11530 -0.28300
O 	O 	0.31014 0.92102 0.61530 -0.28400
O 	O 	0.84646 0.07898 0.38470 -0.28200
O 	O 	0.48116 0.11530 0.57898 -0.28300
O 	O 	0.17544 0.88470 0.42102 -0.29900
O 	O 	0.20249 0.12891 0.12891 -0.27200
O 	O 	0.46031 0.87109 0.87109 -0.25800
O 	O 	0.58140 0.37109 0.62891 -0.26100
O 	O 	0.58140 0.62891 0.37109 -0.26100
O 	O 	0.30090 0.10890 0.89110 -0.28600
O 	O 	0.30090 0.89110 0.10890 -0.28600
O 	O 	0.44200 0.60890 0.60890 -0.28100
O 	O 	0.65980 0.39110 0.39110 -0.27900
F 	F 	0.17200 0.41166 0.27754 -0.41000
F 	F 	0.86120 0.58834 0.72246 -0.39200
F 	F 	0.69954 0.22246 0.91166 -0.40900
F 	F 	0.83366 0.77754 0.08834 -0.40100
F 	F 	0.86120 0.72246 0.58834 -0.39200
F 	F 	0.17200 0.27754 0.41166 -0.41000
F 	F 	0.83366 0.08834 0.77754 -0.40100
F 	F 	0.69954 0.91166 0.22246 -0.40900
F 	F 	0.71140 0.09520 0.09520 -0.38200
F 	F 	0.90180 0.90480 0.90480 -0.31800
F 	F 	0.05660 0.40480 0.59520 -0.42400
F 	F 	0.05660 0.59520 0.40480 -0.42400
F 	F 	0.92350 0.28602 0.71398 -0.37500
F 	F 	0.92350 0.71398 0.28602 -0.37500
F 	F 	0.88748 0.78602 0.78602 -0.35800
F 	F 	0.45952 0.21398 0.21398 -0.42700
