data_crystal

_cell_length_a 13.51500
_cell_length_b 16.18190
_cell_length_c 16.18190
_cell_angle_alpha 79.95700
_cell_angle_beta  65.31700
_cell_angle_gamma 65.31710

_symmetry_space_group_name_	'P 1'
_symmetry_space_group_name_H-M	'P 1'

loop_
_symmetry_equiv_pos_as_xyz
  x,y,z

loop_
_atom_site_label
_atom_site_type_symbol
_atom_site_fract_x
_atom_site_fract_y
_atom_site_fract_z
_atom_site_charge
Cd	Cd	0.58834 0.79197 0.79444 1.19500
H 	H 	0.45420 0.00370 0.73930 -0.00400
H 	H 	0.74690 0.58880 0.76560 0.03400
H 	H 	0.46530 0.16420 0.60020 0.05700
H 	H 	0.57660 0.70340 0.00420 -0.00900
H 	H 	0.36460 0.14920 0.68740 0.05400
H 	H 	0.80510 0.41300 0.76720 0.06300
H 	H 	0.62230 0.87320 0.45960 0.06500
H 	H 	0.96340 0.28480 0.58720 0.04500
H 	H 	0.64130 0.56760 0.07320 0.06100
H 	H 	0.22310 0.09440 0.71980 0.08600
H 	H 	0.33290 0.38510 0.63610 0.00800
H 	H 	0.34970 0.20140 0.52480 0.12700
H 	H 	0.15450 0.43760 0.62120 0.08600
H 	H 	0.19290 0.28730 0.88410 0.00800
H 	H 	0.15430 0.27250 0.52370 0.08700
H 	H 	0.03150 0.10570 0.77970 0.02300
H 	H 	0.51320 0.02890 0.47470 0.04700
H 	H 	0.00990 0.34670 0.87370 0.09000
H 	H 	0.95670 0.45220 0.68200 0.12600
H 	H 	0.86860 0.36280 0.83420 0.06200
H 	H 	0.64750 0.78830 0.58370 0.01200
H 	H 	0.76720 0.43520 0.98480 0.05200
C 	C 	0.52310 0.99393 0.52487 -0.03300
C 	C 	0.39860 0.29410 0.77170 0.30800
C 	C 	0.40763 0.13635 0.62279 -0.06800
C 	C 	0.62585 0.65144 0.96846 0.04300
C 	C 	0.85133 0.20149 0.72785 0.28800
C 	C 	0.47238 0.03449 0.60975 0.01000
C 	C 	0.28179 0.33091 0.76211 -0.13600
C 	C 	0.17167 0.13267 0.69239 -0.15800
C 	C 	0.84898 0.41812 0.79932 -0.08100
C 	C 	0.07462 0.35278 0.82498 -0.17800
C 	C 	0.66450 0.57029 0.01031 -0.07500
C 	C 	0.12995 0.23930 0.57580 -0.15100
C 	C 	0.18462 0.31868 0.83188 0.07100
C 	C 	0.73970 0.49093 0.95747 -0.04800
C 	C 	0.77175 0.49773 0.86377 0.02700
C 	C 	0.21211 0.18253 0.61565 0.15100
C 	C 	0.01571 0.24556 0.61342 0.01600
C 	C 	0.60205 0.85035 0.59075 0.04200
C 	C 	0.97465 0.19566 0.68924 -0.08400
C 	C 	0.58823 0.90107 0.51587 -0.07800
C 	C 	0.26884 0.37623 0.68309 0.07200
C 	C 	0.72658 0.58367 0.82817 -0.00900
C 	C 	0.06139 0.39610 0.74512 0.15500
C 	C 	0.16144 0.40794 0.67438 -0.18100
C 	C 	0.05618 0.13942 0.72822 0.03500
C 	C 	0.48879 0.97782 0.68200 0.00200
N 	N 	0.55242 0.88711 0.67365 -0.21600
N 	N 	0.32589 0.17814 0.57788 -0.20100
N 	N 	0.95783 0.42628 0.73286 -0.19500
N 	N 	0.65569 0.65953 0.87849 -0.21300
O 	O 	0.47951 0.32222 0.72016 -0.35100
O 	O 	0.41601 0.23282 0.83096 -0.40400
O 	O 	0.77812 0.25475 0.69349 -0.36200
O 	O 	0.81899 0.15065 0.79577 -0.36900
Cd	Cd	0.61969 0.20556 0.79197 1.19400
H 	H 	0.86280 0.22030 0.10570 0.01100
H 	H 	0.79110 0.92680 0.56760 0.05700
H 	H 	0.44890 0.47520 0.20140 0.12900
H 	H 	0.66430 0.23440 0.58880 0.03400
H 	H 	0.72000 0.99580 0.70340 -0.00200
H 	H 	0.51980 0.11590 0.28730 0.00600
H 	H 	0.78190 0.23280 0.41300 0.06500
H 	H 	0.59110 0.31800 0.45220 0.12400
H 	H 	0.37050 0.39980 0.16420 0.05700
H 	H 	0.48620 0.31260 0.14920 0.05300
H 	H 	0.54210 0.26070 0.00370 -0.00600
H 	H 	0.79760 0.01520 0.43520 0.05500
H 	H 	0.76860 0.16580 0.36280 0.06100
H 	H 	0.40790 0.37880 0.43760 0.09000
H 	H 	0.68250 0.28020 0.09440 0.10100
H 	H 	0.50450 0.54040 0.87320 0.06500
H 	H 	0.64340 0.12630 0.34670 0.09700
H 	H 	0.56420 0.41630 0.78830 0.01100
H 	H 	0.45790 0.52530 0.02890 0.04600
H 	H 	0.75180 0.41280 0.28480 0.01000
H 	H 	0.57320 0.47630 0.27250 0.10600
H 	H 	0.28200 0.36390 0.38510 0.00600
C 	C 	0.76937 0.04253 0.49093 -0.05800
C 	C 	0.45602 0.37721 0.13635 -0.06500
C 	C 	0.48297 0.47513 0.99393 -0.03000
C 	C 	0.82969 0.31076 0.19566 -0.14800
C 	C 	0.54760 0.40925 0.85035 0.04300
C 	C 	0.30730 0.22830 0.29410 0.31000
C 	C 	0.51070 0.48413 0.90107 -0.08000
C 	C 	0.49670 0.16812 0.31868 0.07800
C 	C 	0.57260 0.17502 0.35278 -0.18700
C 	C 	0.35493 0.31691 0.37623 0.07900
C 	C 	0.73052 0.13623 0.49773 0.03200
C 	C 	0.73873 0.38658 0.24556 0.09900
C 	C 	0.69566 0.30761 0.13267 -0.19700
C 	C 	0.54251 0.25488 0.39610 0.17000
C 	C 	0.68975 0.17183 0.58367 -0.01200
C 	C 	0.49313 0.39025 0.03449 0.00800
C 	C 	0.63075 0.42420 0.23930 -0.20200
C 	C 	0.94718 0.27215 0.20149 0.32100
C 	C 	0.38730 0.23789 0.33091 -0.14000
C 	C 	0.60536 0.38435 0.18253 0.18100
C 	C 	0.73290 0.20068 0.41812 -0.08300
C 	C 	0.76521 0.98969 0.57029 -0.05800
C 	C 	0.72271 0.03154 0.65144 0.03000
C 	C 	0.80440 0.27178 0.13942 0.09000
C 	C 	0.43062 0.32562 0.40794 -0.18900
C 	C 	0.53339 0.31800 0.97782 0.00400
N 	N 	0.56047 0.32635 0.88711 -0.21600
N 	N 	0.49597 0.42212 0.17814 -0.20800
N 	N 	0.68478 0.12151 0.65953 -0.21100
N 	N 	0.61589 0.26714 0.42628 -0.20300
O 	O 	0.96713 0.30651 0.25475 -0.36500
O 	O 	0.35117 0.16904 0.23282 -0.40500
O 	O 	0.03036 0.20423 0.15065 -0.38800
O 	O 	0.19827 0.27984 0.32222 -0.35200
Cd	Cd	0.17475 0.20803 0.20555 1.19300
H 	H 	0.35410 0.61490 0.36390 0.00700
H 	H 	0.98530 0.58700 0.23280 0.07900
H 	H 	0.09090 0.54780 0.31800 0.12000
H 	H 	0.01950 0.21170 0.41630 0.00200
H 	H 	0.21330 0.56240 0.37880 0.08900
H 	H 	0.91690 0.89430 0.22030 0.03000
H 	H 	0.22970 0.83580 0.39980 0.05700
H 	H 	0.20120 0.85080 0.31260 0.05400
H 	H 	0.18720 0.56480 0.01520 0.05400
H 	H 	0.28210 0.43240 0.92680 0.05400
H 	H 	0.03730 0.90560 0.28020 0.06400
H 	H 	0.19720 0.99630 0.26070 -0.00500
H 	H 	0.01680 0.97110 0.52530 0.03900
H 	H 	0.07590 0.79860 0.47520 0.12300
H 	H 	0.28420 0.29660 0.99580 -0.00300
H 	H 	0.83540 0.71520 0.41280 0.02500
H 	H 	0.36430 0.71270 0.11590 0.00700
H 	H 	0.95050 0.72750 0.47630 0.09100
H 	H 	0.10130 0.41120 0.23440 0.03300
H 	H 	0.06560 0.63720 0.16580 0.06300
H 	H 	0.95510 0.12680 0.54040 0.08400
H 	H 	0.23030 0.65330 0.12630 0.09600
C 	C 	0.92382 0.86058 0.27178 0.03700
C 	C 	0.01029 0.81747 0.38435 0.12000
C 	C 	0.18810 0.50907 0.04253 -0.06500
C 	C 	0.16677 0.86365 0.37721 -0.06900
C 	C 	0.24510 0.42971 0.98969 -0.05700
C 	C 	0.24376 0.59206 0.32562 -0.18700
C 	C 	0.94505 0.76070 0.42420 -0.14500
C 	C 	0.85955 0.80434 0.31076 -0.11100
C 	C 	0.99673 0.86733 0.30761 -0.11400
C 	C 	0.46440 0.70590 0.22830 0.30900
C 	C 	0.24575 0.34856 0.03154 0.02700
C 	C 	0.25238 0.64722 0.17502 -0.18500
C 	C 	0.37481 0.66909 0.23789 -0.13900
C 	C 	0.33518 0.68132 0.16812 0.07600
C 	C 	0.06642 0.58188 0.20068 -0.10900
C 	C 	0.04190 0.00607 0.47513 -0.01900
C 	C 	0.32816 0.62377 0.31691 0.07600
C 	C 	0.00517 0.09893 0.48413 -0.11300
C 	C 	0.20261 0.60390 0.25488 0.16600
C 	C 	0.87469 0.75444 0.38658 0.05600
C 	C 	0.13325 0.50227 0.13623 0.03700
C 	C 	0.78067 0.79851 0.27215 0.29600
C 	C 	0.04315 0.14965 0.40925 0.05700
C 	C 	0.14861 0.02218 0.31800 0.00200
C 	C 	0.11662 0.96551 0.39025 0.00600
C 	C 	0.13842 0.41633 0.17183 -0.01800
N 	N 	0.11697 0.57372 0.26714 -0.19900
N 	N 	0.11318 0.11289 0.32635 -0.22000
N 	N 	0.08191 0.82186 0.42212 -0.19600
N 	N 	0.19371 0.34047 0.12151 -0.21100
O 	O 	0.47979 0.76718 0.16904 -0.40400
O 	O 	0.72636 0.74525 0.30651 -0.36400
O 	O 	0.76541 0.84935 0.20423 -0.37200
O 	O 	0.52189 0.67778 0.27984 -0.35100
Cd	Cd	0.61723 0.79444 0.20802 1.19400
H 	H 	0.05710 0.71980 0.90560 0.09600
H 	H 	0.36130 0.68200 0.54780 0.12400
H 	H 	0.42770 0.76720 0.58700 0.06200
H 	H 	0.44940 0.58720 0.71520 0.01100
H 	H 	0.48750 0.76560 0.41120 0.03300
H 	H 	0.32200 0.52370 0.72750 0.10500
H 	H 	0.01210 0.47470 0.97110 0.03100
H 	H 	0.12550 0.52480 0.79860 0.12900
H 	H 	0.93450 0.60020 0.83580 0.05500
H 	H 	0.18880 0.77970 0.89430 0.00800
H 	H 	0.11640 0.87370 0.65330 0.10200
H 	H 	0.91810 0.45960 0.12680 0.07200
H 	H 	0.80650 0.73930 0.99630 -0.00300
H 	H 	0.41920 0.00420 0.29660 -0.00800
H 	H 	0.24800 0.98480 0.56480 0.05000
H 	H 	0.03100 0.63610 0.61490 0.00800
H 	H 	0.29720 0.83420 0.63720 0.05800
H 	H 	0.28550 0.07320 0.43240 0.06000
H 	H 	0.94800 0.68740 0.85080 0.05200
H 	H 	0.92300 0.88410 0.71270 0.00300
H 	H 	0.76880 0.58370 0.21170 0.00900
H 	H 	0.22430 0.62120 0.56240 0.08900
C 	C 	0.35170 0.79932 0.58188 -0.07900
C 	C 	0.82970 0.77170 0.70590 0.30800
C 	C 	0.42082 0.72785 0.79851 0.30800
C 	C 	0.95610 0.76211 0.66909 -0.13000
C 	C 	0.17224 0.61565 0.81747 0.17800
C 	C 	0.30283 0.95747 0.50907 -0.04900
C 	C 	0.16418 0.67438 0.59206 -0.18600
C 	C 	0.36448 0.86377 0.50227 0.02500
C 	C 	0.21560 0.72822 0.86058 0.08600
C 	C 	0.33611 0.68924 0.80434 -0.14500
C 	C 	0.96958 0.62279 0.86365 -0.05000
C 	C 	0.98350 0.83188 0.68132 0.09500
C 	C 	0.37087 0.61342 0.75444 0.09600
C 	C 	0.95203 0.52487 0.00607 -0.00600
C 	C 	0.19349 0.74512 0.60390 0.17300
C 	C 	0.32519 0.01031 0.42971 -0.07200
C 	C 	0.04807 0.68309 0.62377 0.06200
C 	C 	0.80720 0.59075 0.14965 0.05000
C 	C 	0.91787 0.60975 0.96551 0.00400
C 	C 	0.10040 0.82498 0.64722 -0.20500
C 	C 	0.82921 0.68200 0.02218 0.00200
C 	C 	0.89590 0.51587 0.09893 -0.09200
C 	C 	0.40569 0.96846 0.34856 0.04000
C 	C 	0.13594 0.69239 0.86733 -0.19600
C 	C 	0.44525 0.82817 0.41633 -0.00900
C 	C 	0.29425 0.57580 0.76070 -0.20000
N 	N 	0.09623 0.57788 0.82186 -0.21400
N 	N 	0.77393 0.67365 0.11289 -0.21700
N 	N 	0.30931 0.73286 0.57372 -0.20400
N 	N 	0.46582 0.87849 0.34047 -0.21300
O 	O 	0.75303 0.83096 0.76718 -0.40300
O 	O 	0.38524 0.79577 0.84935 -0.37700
O 	O 	0.80033 0.72016 0.67778 -0.34800
O 	O 	0.52839 0.69349 0.74525 -0.36700
