data_crystal

_cell_length_a 21.53730
_cell_length_b 21.53730
_cell_length_c 8.87530
_cell_angle_alpha 90.00000
_cell_angle_beta  90.00000
_cell_angle_gamma 120.00000

_symmetry_space_group_name_	'P 1'
_symmetry_space_group_name_H-M	'P 1'

loop_
_symmetry_equiv_pos_as_xyz
  x,y,z

loop_
_atom_site_label
_atom_site_type_symbol
_atom_site_fract_x
_atom_site_fract_y
_atom_site_fract_z
_atom_site_charge
Cu	Cu	0.29680 0.17445 0.46447 0.87600
C 	C 	0.26583 0.00983 0.75000 0.19300
C 	C 	0.24627 0.03249 0.53040 -0.00200
C 	C 	0.21595 0.03069 0.37960 0.27400
N 	N 	0.30355 0.08123 0.73430 -0.21900
N 	N 	0.26587 0.97481 0.87730 -0.32900
H 	H 	0.29110 0.99860 0.95370 0.14200
H 	H 	0.24070 0.92880 0.88150 0.13600
N 	N 	0.29009 0.09467 0.59010 -0.18000
N 	N 	0.23016 0.97703 0.62350 -0.22900
O 	O 	0.23797 0.09324 0.32510 -0.37700
O 	O 	0.17315 0.97309 0.32210 -0.28700
Cu	Cu	0.96347 0.50779 0.79780 0.87600
C 	C 	0.93250 0.34316 0.08333 0.20100
C 	C 	0.91294 0.36582 0.86373 -0.00100
C 	C 	0.88262 0.36402 0.71293 0.27300
N 	N 	0.97022 0.41456 0.06763 -0.21800
N 	N 	0.93254 0.30814 0.21063 -0.33100
H 	H 	0.95777 0.33193 0.28703 0.14100
H 	H 	0.90737 0.26213 0.21483 0.13600
N 	N 	0.95676 0.42800 0.92343 -0.18200
N 	N 	0.89683 0.31036 0.95683 -0.23300
O 	O 	0.90464 0.42657 0.65843 -0.37700
O 	O 	0.83982 0.30642 0.65543 -0.28500
Cu	Cu	0.63013 0.84112 0.13114 0.87600
C 	C 	0.59916 0.67650 0.41667 0.19700
C 	C 	0.57960 0.69916 0.19707 0.00100
C 	C 	0.54928 0.69736 0.04627 0.26900
N 	N 	0.63688 0.74790 0.40097 -0.22000
N 	N 	0.59920 0.64148 0.54397 -0.33000
H 	H 	0.62443 0.66527 0.62037 0.14000
H 	H 	0.57403 0.59547 0.54817 0.13500
N 	N 	0.62342 0.76134 0.25677 -0.18000
N 	N 	0.56349 0.64370 0.29017 -0.23000
O 	O 	0.57130 0.75991 0.99177 -0.37400
O 	O 	0.50648 0.63976 0.98877 -0.28300
Cu	Cu	0.82555 0.12235 0.46447 0.87700
C 	C 	0.99017 0.25600 0.75000 0.19400
C 	C 	0.96751 0.21378 0.53040 -0.00100
C 	C 	0.96931 0.18526 0.37960 0.27500
N 	N 	0.91877 0.22232 0.73430 -0.22000
N 	N 	0.02519 0.29106 0.87730 -0.32900
H 	H 	0.00140 0.29250 0.95370 0.14100
H 	H 	0.07120 0.31190 0.88150 0.13500
N 	N 	0.90533 0.19542 0.59010 -0.18000
N 	N 	0.02297 0.25313 0.62350 -0.22900
O 	O 	0.90676 0.14473 0.32510 -0.37700
O 	O 	0.02691 0.20006 0.32210 -0.28600
Cu	Cu	0.49221 0.45568 0.79780 0.87700
C 	C 	0.65684 0.58933 0.08333 0.19800
C 	C 	0.63418 0.54711 0.86373 -0.00100
C 	C 	0.63598 0.51859 0.71293 0.27300
N 	N 	0.58544 0.55565 0.06763 -0.22000
N 	N 	0.69186 0.62439 0.21063 -0.33100
H 	H 	0.66807 0.62583 0.28703 0.14000
H 	H 	0.73787 0.64523 0.21483 0.13500
N 	N 	0.57200 0.52875 0.92343 -0.18000
N 	N 	0.68964 0.58646 0.95683 -0.23100
O 	O 	0.57343 0.47806 0.65843 -0.37700
O 	O 	0.69358 0.53339 0.65543 -0.28500
Cu	Cu	0.15888 0.78901 0.13114 0.87500
C 	C 	0.32350 0.92267 0.41667 0.19700
C 	C 	0.30084 0.88045 0.19707 0.00200
C 	C 	0.30264 0.85193 0.04627 0.26100
N 	N 	0.25210 0.88899 0.40097 -0.22000
N 	N 	0.35852 0.95773 0.54397 -0.33100
H 	H 	0.33473 0.95917 0.62037 0.14100
H 	H 	0.40453 0.97857 0.54817 0.13600
N 	N 	0.23866 0.86209 0.25677 -0.18100
N 	N 	0.35630 0.91980 0.29017 -0.23100
O 	O 	0.24009 0.81140 0.99177 -0.37000
O 	O 	0.36024 0.86673 0.98877 -0.27800
Cu	Cu	0.87765 0.70320 0.46447 0.87700
C 	C 	0.74400 0.73417 0.75000 0.19700
C 	C 	0.78622 0.75373 0.53040 -0.00000
C 	C 	0.81474 0.78405 0.37960 0.27300
N 	N 	0.77768 0.69645 0.73430 -0.22000
N 	N 	0.70894 0.73413 0.87730 -0.33000
H 	H 	0.70750 0.70890 0.95370 0.14000
H 	H 	0.68810 0.75930 0.88150 0.13500
N 	N 	0.80458 0.70991 0.59010 -0.18000
N 	N 	0.74687 0.76984 0.62350 -0.23000
O 	O 	0.85527 0.76203 0.32510 -0.37700
O 	O 	0.79994 0.82685 0.32210 -0.28500
Cu	Cu	0.54432 0.03653 0.79780 0.87600
C 	C 	0.41067 0.06750 0.08333 0.19900
C 	C 	0.45289 0.08706 0.86373 -0.00100
C 	C 	0.48141 0.11738 0.71293 0.27300
N 	N 	0.44435 0.02978 0.06763 -0.21800
N 	N 	0.37561 0.06746 0.21063 -0.33100
H 	H 	0.37417 0.04223 0.28703 0.14100
H 	H 	0.35477 0.09263 0.21483 0.13600
N 	N 	0.47125 0.04324 0.92343 -0.18200
N 	N 	0.41354 0.10317 0.95683 -0.23200
O 	O 	0.52194 0.09536 0.65843 -0.37700
O 	O 	0.46661 0.16018 0.65543 -0.28500
Cu	Cu	0.21099 0.36987 0.13114 0.87600
C 	C 	0.07733 0.40084 0.41667 0.19700
C 	C 	0.11955 0.42040 0.19707 0.00100
C 	C 	0.14807 0.45072 0.04627 0.26600
N 	N 	0.11101 0.36312 0.40097 -0.22000
N 	N 	0.04227 0.40080 0.54397 -0.33100
H 	H 	0.04083 0.37557 0.62037 0.14100
H 	H 	0.02143 0.42597 0.54817 0.13600
N 	N 	0.13791 0.37658 0.25677 -0.18100
N 	N 	0.08020 0.43651 0.29017 -0.23100
O 	O 	0.18860 0.42870 0.99177 -0.37300
O 	O 	0.13327 0.49352 0.98877 -0.28000
Cu	Cu	0.70320 0.82555 0.53553 0.87700
C 	C 	0.73417 0.99017 0.25000 0.19400
C 	C 	0.75373 0.96751 0.46960 -0.00100
C 	C 	0.78405 0.96931 0.62040 0.27500
N 	N 	0.69645 0.91877 0.26570 -0.21900
N 	N 	0.73413 0.02519 0.12270 -0.32900
H 	H 	0.70890 0.00140 0.04630 0.14200
H 	H 	0.75930 0.07120 0.11850 0.13600
N 	N 	0.70991 0.90533 0.40990 -0.18000
N 	N 	0.76984 0.02297 0.37650 -0.22900
O 	O 	0.76203 0.90676 0.67490 -0.37700
O 	O 	0.82685 0.02691 0.67790 -0.28700
Cu	Cu	0.36987 0.15888 0.86886 0.87600
C 	C 	0.40084 0.32350 0.58333 0.19700
C 	C 	0.42040 0.30084 0.80293 0.00100
C 	C 	0.45072 0.30264 0.95373 0.26900
N 	N 	0.36312 0.25210 0.59903 -0.22000
N 	N 	0.40080 0.35852 0.45603 -0.33000
H 	H 	0.37557 0.33473 0.37963 0.14000
H 	H 	0.42597 0.40453 0.45183 0.13500
N 	N 	0.37658 0.23866 0.74323 -0.18000
N 	N 	0.43651 0.35630 0.70983 -0.23000
O 	O 	0.42870 0.24009 0.00823 -0.37400
O 	O 	0.49352 0.36024 0.01123 -0.28300
Cu	Cu	0.03653 0.49221 0.20220 0.87600
C 	C 	0.06750 0.65684 0.91667 0.20100
C 	C 	0.08706 0.63418 0.13627 -0.00100
C 	C 	0.11738 0.63598 0.28707 0.27300
N 	N 	0.02978 0.58544 0.93237 -0.21800
N 	N 	0.06746 0.69186 0.78937 -0.33100
H 	H 	0.04223 0.66807 0.71297 0.14100
H 	H 	0.09263 0.73787 0.78517 0.13600
N 	N 	0.04324 0.57200 0.07657 -0.18200
N 	N 	0.10317 0.68964 0.04317 -0.23300
O 	O 	0.09536 0.57343 0.34157 -0.37700
O 	O 	0.16018 0.69358 0.34457 -0.28500
Cu	Cu	0.17445 0.87765 0.53553 0.87700
C 	C 	0.00983 0.74400 0.25000 0.19400
C 	C 	0.03249 0.78622 0.46960 -0.00100
C 	C 	0.03069 0.81474 0.62040 0.27500
N 	N 	0.08123 0.77768 0.26570 -0.22000
N 	N 	0.97481 0.70894 0.12270 -0.32900
H 	H 	0.99860 0.70750 0.04630 0.14100
H 	H 	0.92880 0.68810 0.11850 0.13500
N 	N 	0.09467 0.80458 0.40990 -0.18000
N 	N 	0.97703 0.74687 0.37650 -0.22900
O 	O 	0.09324 0.85527 0.67490 -0.37700
O 	O 	0.97309 0.79994 0.67790 -0.28600
Cu	Cu	0.84112 0.21099 0.86886 0.87500
C 	C 	0.67650 0.07733 0.58333 0.19700
C 	C 	0.69916 0.11955 0.80293 0.00200
C 	C 	0.69736 0.14807 0.95373 0.26100
N 	N 	0.74790 0.11101 0.59903 -0.22000
N 	N 	0.64148 0.04227 0.45603 -0.33100
H 	H 	0.66527 0.04083 0.37963 0.14100
H 	H 	0.59547 0.02143 0.45183 0.13600
N 	N 	0.76134 0.13791 0.74323 -0.18100
N 	N 	0.64370 0.08020 0.70983 -0.23100
O 	O 	0.75991 0.18860 0.00823 -0.37000
O 	O 	0.63976 0.13327 0.01123 -0.27800
Cu	Cu	0.50779 0.54432 0.20220 0.87700
C 	C 	0.34316 0.41067 0.91667 0.19800
C 	C 	0.36582 0.45289 0.13627 -0.00100
C 	C 	0.36402 0.48141 0.28707 0.27300
N 	N 	0.41456 0.44435 0.93237 -0.22000
N 	N 	0.30814 0.37561 0.78937 -0.33100
H 	H 	0.33193 0.37417 0.71297 0.14000
H 	H 	0.26213 0.35477 0.78517 0.13500
N 	N 	0.42800 0.47125 0.07657 -0.18000
N 	N 	0.31036 0.41354 0.04317 -0.23100
O 	O 	0.42657 0.52194 0.34157 -0.37700
O 	O 	0.30642 0.46661 0.34457 -0.28500
Cu	Cu	0.12235 0.29680 0.53553 0.87700
C 	C 	0.25600 0.26583 0.25000 0.19700
C 	C 	0.21378 0.24627 0.46960 -0.00000
C 	C 	0.18526 0.21595 0.62040 0.27300
N 	N 	0.22232 0.30355 0.26570 -0.22000
N 	N 	0.29106 0.26587 0.12270 -0.33000
H 	H 	0.29250 0.29110 0.04630 0.14000
H 	H 	0.31190 0.24070 0.11850 0.13500
N 	N 	0.19542 0.29009 0.40990 -0.18000
N 	N 	0.25313 0.23016 0.37650 -0.23000
O 	O 	0.14473 0.23797 0.67490 -0.37700
O 	O 	0.20006 0.17315 0.67790 -0.28500
Cu	Cu	0.78901 0.63013 0.86886 0.87600
C 	C 	0.92267 0.59916 0.58333 0.19700
C 	C 	0.88045 0.57960 0.80293 0.00100
C 	C 	0.85193 0.54928 0.95373 0.26600
N 	N 	0.88899 0.63688 0.59903 -0.22000
N 	N 	0.95773 0.59920 0.45603 -0.33100
H 	H 	0.95917 0.62443 0.37963 0.14100
H 	H 	0.97857 0.57403 0.45183 0.13600
N 	N 	0.86209 0.62342 0.74323 -0.18100
N 	N 	0.91980 0.56349 0.70983 -0.23100
O 	O 	0.81140 0.57130 0.00823 -0.37300
O 	O 	0.86673 0.50648 0.01123 -0.28000
Cu	Cu	0.45568 0.96347 0.20220 0.87600
C 	C 	0.58933 0.93250 0.91667 0.19900
C 	C 	0.54711 0.91294 0.13627 -0.00100
C 	C 	0.51859 0.88262 0.28707 0.27300
N 	N 	0.55565 0.97022 0.93237 -0.21800
N 	N 	0.62439 0.93254 0.78937 -0.33100
H 	H 	0.62583 0.95777 0.71297 0.14100
H 	H 	0.64523 0.90737 0.78517 0.13600
N 	N 	0.52875 0.95676 0.07657 -0.18200
N 	N 	0.58646 0.89683 0.04317 -0.23200
O 	O 	0.47806 0.90464 0.34157 -0.37700
O 	O 	0.53339 0.83982 0.34457 -0.28500
