data_crystal

_cell_length_a 6.65790
_cell_length_b 15.25820
_cell_length_c 15.25820
_cell_angle_alpha 120.00000
_cell_angle_beta  90.00000
_cell_angle_gamma 90.00000

_symmetry_space_group_name_	'P 1'
_symmetry_space_group_name_H-M	'P 1'

loop_
_symmetry_equiv_pos_as_xyz
  x,y,z

loop_
_atom_site_label
_atom_site_type_symbol
_atom_site_fract_x
_atom_site_fract_y
_atom_site_fract_z
_atom_site_charge
Cu	Cu	0.51160 0.91582 0.86431 0.80500
Cu	Cu	0.21649 0.75758 0.46937 0.80800
Cu	Cu	0.51160 0.94849 0.08418 0.78800
Cu	Cu	0.21649 0.71179 0.24242 0.80900
Cu	Cu	0.51160 0.13569 0.05151 0.80300
Cu	Cu	0.21649 0.53063 0.28821 0.81000
Cu	Cu	0.85710 0.00000 -0.00000 0.81100
Cu	Cu	0.87310 0.66667 0.33334 0.81700
H 	H 	0.09790 0.88810 0.77470 0.08700
H 	H 	0.09560 0.79690 0.66310 0.09900
H 	H 	0.33500 0.97320 0.72980 -0.07600
H 	H 	0.61700 0.87410 0.67450 0.02200
H 	H 	0.64270 0.78940 0.56030 0.03600
H 	H 	0.36040 0.70320 0.58540 0.03100
H 	H 	0.55650 0.70360 0.64340 0.05900
H 	H 	0.11410 0.02590 0.64520 0.31200
H 	H 	0.97670 0.99860 0.71150 0.27400
H 	H 	0.99810 0.92260 0.59510 0.25300
H 	H 	0.24050 0.78020 0.84720 0.12400
H 	H 	0.11710 0.72350 0.74740 0.15500
H 	H 	0.43350 0.61030 0.69940 -0.12700
H 	H 	0.20360 0.65340 0.86740 0.25800
H 	H 	0.34490 0.55520 0.80730 0.25600
H 	H 	0.53980 0.89640 0.48690 0.10400
H 	H 	0.32910 0.95040 0.51360 0.08600
H 	H 	0.58590 0.03070 0.68410 -0.02800
H 	H 	0.52160 0.11600 0.56170 0.18800
H 	H 	0.62470 0.17230 0.67200 0.17800
H 	H 	0.09790 0.88660 0.11190 0.07300
H 	H 	0.09560 0.86620 0.20310 0.08900
H 	H 	0.33500 0.75660 0.02680 -0.07200
H 	H 	0.61700 0.80040 0.12590 0.02200
H 	H 	0.64270 0.77090 0.21060 0.03700
H 	H 	0.36040 0.88220 0.29680 0.02200
H 	H 	0.55650 0.93980 0.29640 0.04200
H 	H 	0.11410 0.61930 0.97410 0.29500
H 	H 	0.97670 0.71290 0.00140 0.25300
H 	H 	0.99810 0.67250 0.07740 0.23500
H 	H 	0.24050 0.06700 0.21980 0.10600
H 	H 	0.11710 0.02390 0.27650 0.14800
H 	H 	0.43350 0.08910 0.38970 -0.09800
H 	H 	0.20360 0.21400 0.34660 0.23200
H 	H 	0.34490 0.25210 0.44480 0.23500
H 	H 	0.53980 0.59050 0.10360 0.10600
H 	H 	0.32910 0.56320 0.04960 0.08800
H 	H 	0.58590 0.65340 0.96930 -0.02800
H 	H 	0.52160 0.44570 0.88400 0.18900
H 	H 	0.62470 0.49970 0.82770 0.17900
H 	H 	0.09790 0.22530 0.11340 0.07500
H 	H 	0.09560 0.33690 0.13380 0.08300
H 	H 	0.33500 0.27020 0.24340 -0.04200
H 	H 	0.61700 0.32550 0.19960 0.03000
H 	H 	0.64270 0.43970 0.22910 0.04000
H 	H 	0.36040 0.41460 0.11780 0.02100
H 	H 	0.55650 0.35660 0.06020 0.04100
H 	H 	0.11410 0.35480 0.38070 0.22600
H 	H 	0.97670 0.28850 0.28710 0.22800
H 	H 	0.99810 0.40490 0.32750 0.19900
H 	H 	0.24050 0.15280 0.93300 0.11700
H 	H 	0.11710 0.25260 0.97610 0.15100
H 	H 	0.43350 0.30060 0.91090 -0.10300
H 	H 	0.20360 0.13260 0.78600 0.24400
H 	H 	0.34490 0.19270 0.74790 0.24200
H 	H 	0.53980 0.51310 0.40950 0.09200
H 	H 	0.32910 0.48640 0.43680 0.08000
H 	H 	0.58590 0.31590 0.34660 -0.01300
H 	H 	0.52160 0.43830 0.55430 0.16100
H 	H 	0.62470 0.32800 0.50030 0.15500
C 	C 	0.17890 0.84980 0.71440 -0.26800
C 	C 	0.25310 0.91980 0.67630 0.25200
C 	C 	0.54750 0.82200 0.61560 -0.07900
C 	C 	0.45390 0.74610 0.63840 -0.09800
C 	C 	0.06700 0.97190 0.65490 -0.86300
C 	C 	0.25260 0.73920 0.77430 -0.38900
C 	C 	0.34480 0.64570 0.75280 0.42900
C 	C 	0.29290 0.61520 0.81500 -0.66400
C 	C 	0.44400 0.93320 0.54110 -0.29400
C 	C 	0.54150 0.03020 0.62600 0.24300
C 	C 	0.56510 0.11510 0.61920 -0.45900
C 	C 	0.17890 0.86460 0.15020 -0.25300
C 	C 	0.25310 0.75650 0.08020 0.23400
C 	C 	0.54750 0.79360 0.17800 -0.08500
C 	C 	0.45390 0.89230 0.25390 -0.08800
C 	C 	0.06700 0.68300 0.02810 -0.81100
C 	C 	0.25260 0.03510 0.26080 -0.31800
C 	C 	0.34480 0.10710 0.35430 0.37200
C 	C 	0.29290 0.19980 0.38480 -0.60400
C 	C 	0.44400 0.60790 0.06680 -0.29900
C 	C 	0.54150 0.59580 0.96980 0.24900
C 	C 	0.56510 0.50410 0.88490 -0.46300
C 	C 	0.17890 0.28560 0.13540 -0.23200
C 	C 	0.25310 0.32370 0.24350 0.19100
C 	C 	0.54750 0.38440 0.20640 -0.08700
C 	C 	0.45390 0.36160 0.10770 -0.08500
C 	C 	0.06700 0.34510 0.31700 -0.66300
C 	C 	0.25260 0.22570 0.96490 -0.32900
C 	C 	0.34480 0.24720 0.89290 0.38900
C 	C 	0.29290 0.18500 0.80020 -0.62200
C 	C 	0.44400 0.45890 0.39210 -0.22900
C 	C 	0.54150 0.37400 0.40420 0.16200
C 	C 	0.56510 0.38080 0.49590 -0.39800
Br	Br	0.71304 0.82821 0.93727 -0.69700
Br	Br	0.98873 0.62527 0.46107 -0.70200
Br	Br	0.71304 0.10906 0.17179 -0.71000
Br	Br	0.98873 0.83580 0.37473 -0.71800
Br	Br	0.71304 0.06273 0.89094 -0.66300
Br	Br	0.98873 0.53893 0.16420 -0.71800
Br	Br	0.22160 0.00000 -0.00000 -0.79700
Br	Br	0.48980 0.66667 0.33334 -0.79900
N 	N 	0.34650 0.80530 0.73710 -0.10600
N 	N 	0.37610 0.86650 0.58680 -0.20000
N 	N 	0.34650 0.93180 0.19470 -0.13100
N 	N 	0.37610 0.72030 0.13350 -0.19600
N 	N 	0.34650 0.26290 0.06820 -0.13200
N 	N 	0.37610 0.41320 0.27970 -0.19400
