data_crystal

_cell_length_a 10.45600
_cell_length_b 20.01700
_cell_length_c 8.10770
_cell_angle_alpha 90.00000
_cell_angle_beta  102.60200
_cell_angle_gamma 90.00000

_symmetry_space_group_name_	'P 1'
_symmetry_space_group_name_H-M	'P 1'

loop_
_symmetry_equiv_pos_as_xyz
  x,y,z

loop_
_atom_site_label
_atom_site_type_symbol
_atom_site_fract_x
_atom_site_fract_y
_atom_site_fract_z
_atom_site_charge
N 	N 	0.65150 0.15722 0.99050 -0.21900
C 	C 	0.71000 0.10032 0.94460 0.14600
H 	H 	0.79000 0.10320 0.91280 -0.02300
C 	C 	0.65160 0.04173 0.94610 -0.23300
H 	H 	0.69170 0.00420 0.91260 0.11800
C 	C 	0.53170 0.03355 0.99600 0.24500
C 	C 	0.47530 0.09380 0.04500 -0.28800
H 	H 	0.39610 0.09190 0.07920 0.11100
C 	C 	0.53470 0.15210 0.04210 0.08500
H 	H 	0.49680 0.19040 0.07550 -0.05200
O 	O 	0.91360 0.20160 0.14660 -0.47100
N 	N 	0.15150 0.65722 0.99050 -0.20000
C 	C 	0.21000 0.60032 0.94460 0.11700
H 	H 	0.29000 0.60320 0.91280 -0.01300
C 	C 	0.15160 0.54173 0.94610 -0.18800
H 	H 	0.19170 0.50420 0.91260 0.10500
C 	C 	0.03170 0.53355 0.99600 0.17900
C 	C 	0.97530 0.59380 0.04500 -0.19000
H 	H 	0.89610 0.59190 0.07920 0.08100
C 	C 	0.03470 0.65210 0.04210 -0.00600
H 	H 	0.99680 0.69040 0.07550 -0.00900
O 	O 	0.41360 0.70160 0.14660 -0.48600
N 	N 	0.34850 0.15722 0.50950 -0.23700
C 	C 	0.29000 0.10032 0.55540 0.06700
H 	H 	0.21000 0.10320 0.58720 -0.00800
C 	C 	0.34840 0.04173 0.55390 -0.11900
H 	H 	0.30830 0.00420 0.58740 0.06900
C 	C 	0.46830 0.03355 0.50400 0.03100
C 	C 	0.52470 0.09380 0.45500 -0.12600
H 	H 	0.60390 0.09190 0.42080 0.06400
C 	C 	0.46530 0.15210 0.45790 0.06700
H 	H 	0.50320 0.19040 0.42450 -0.03100
O 	O 	0.08640 0.20160 0.35340 -0.46800
N 	N 	0.84850 0.65722 0.50950 -0.25700
C 	C 	0.79000 0.60032 0.55540 0.11000
H 	H 	0.71000 0.60320 0.58720 -0.01900
C 	C 	0.84840 0.54173 0.55390 -0.18500
H 	H 	0.80830 0.50420 0.58740 0.09900
C 	C 	0.96830 0.53355 0.50400 0.13500
C 	C 	0.02470 0.59380 0.45500 -0.24000
H 	H 	0.10390 0.59190 0.42080 0.10400
C 	C 	0.96530 0.65210 0.45790 0.16300
H 	H 	0.00320 0.69040 0.42450 -0.07300
O 	O 	0.58640 0.70160 0.35340 -0.46900
N 	N 	0.34850 0.84278 0.00950 -0.25400
C 	C 	0.29000 0.89968 0.05540 -0.00200
H 	H 	0.21000 0.89680 0.08720 -0.00000
C 	C 	0.34840 0.95827 0.05390 -0.02800
H 	H 	0.30830 0.99580 0.08740 0.02900
C 	C 	0.46830 0.96645 0.00400 -0.14200
C 	C 	0.52470 0.90620 0.95500 0.01400
H 	H 	0.60390 0.90810 0.92080 0.03200
C 	C 	0.46530 0.84790 0.95790 0.06500
H 	H 	0.50320 0.80960 0.92450 -0.00900
O 	O 	0.08640 0.79840 0.85340 -0.42600
N 	N 	0.84850 0.34278 0.00950 -0.26700
C 	C 	0.79000 0.39968 0.05540 0.02600
H 	H 	0.71000 0.39680 0.08720 -0.00900
C 	C 	0.84840 0.45827 0.05390 -0.07000
H 	H 	0.80830 0.49580 0.08740 0.04200
C 	C 	0.96830 0.46645 0.00400 -0.07900
C 	C 	0.02470 0.40620 0.95500 -0.07300
H 	H 	0.10390 0.40810 0.92080 0.05800
C 	C 	0.96530 0.34790 0.95790 0.13900
H 	H 	0.00320 0.30960 0.92450 -0.04400
O 	O 	0.58640 0.29840 0.85340 -0.42900
N 	N 	0.65150 0.84278 0.49050 -0.24100
C 	C 	0.71000 0.89968 0.44460 0.07700
H 	H 	0.79000 0.89680 0.41280 -0.01600
C 	C 	0.65160 0.95827 0.44610 -0.14200
H 	H 	0.69170 0.99580 0.41260 0.07800
C 	C 	0.53170 0.96645 0.49600 0.07100
C 	C 	0.47530 0.90620 0.54500 -0.14800
H 	H 	0.39610 0.90810 0.57920 0.08000
C 	C 	0.53470 0.84790 0.54210 0.08200
H 	H 	0.49680 0.80960 0.57550 -0.03100
O 	O 	0.91360 0.79840 0.64660 -0.44000
N 	N 	0.15150 0.34278 0.49050 -0.22100
C 	C 	0.21000 0.39968 0.44460 0.03400
H 	H 	0.29000 0.39680 0.41280 -0.00500
C 	C 	0.15160 0.45827 0.44610 -0.07600
H 	H 	0.19170 0.49580 0.41260 0.04800
C 	C 	0.03170 0.46645 0.49600 -0.03200
C 	C 	0.97530 0.40620 0.54500 -0.03600
H 	H 	0.89610 0.40810 0.57920 0.04000
C 	C 	0.03470 0.34790 0.54210 -0.01300
H 	H 	0.99680 0.30960 0.57550 0.01100
O 	O 	0.41360 0.29840 0.64660 -0.45500
C 	C 	0.00000 0.23200 0.25000 0.44900
H 	H 	0.00000 0.27840 0.25000 -0.17500
C 	C 	0.50000 0.73200 0.25000 0.47300
H 	H 	0.50000 0.77840 0.25000 -0.17800
C 	C 	0.00000 0.76800 0.75000 0.43800
H 	H 	0.00000 0.72160 0.75000 -0.15300
C 	C 	0.50000 0.26800 0.75000 0.46000
H 	H 	0.50000 0.22160 0.75000 -0.15600
Ni	Ni	0.75000 0.25000 -0.00000 1.01800
Ni	Ni	0.25000 0.25000 0.50000 1.04100
Ni	Ni	0.25000 0.75000 -0.00000 1.01600
Ni	Ni	0.75000 0.75000 0.50000 1.04300
