data_crystal

_cell_length_a 10.47600
_cell_length_b 20.20500
_cell_length_c 8.10900
_cell_angle_alpha 90.00000
_cell_angle_beta  102.26500
_cell_angle_gamma 90.00000

_symmetry_space_group_name_	'P 1'
_symmetry_space_group_name_H-M	'P 1'

loop_
_symmetry_equiv_pos_as_xyz
  x,y,z

loop_
_atom_site_label
_atom_site_type_symbol
_atom_site_fract_x
_atom_site_fract_y
_atom_site_fract_z
_atom_site_charge
C 	C 	0.79190 0.40012 0.05050 0.04000
H 	H 	0.71080 0.39660 0.07930 -0.01900
C 	C 	0.84650 0.45715 0.05310 -0.08700
H 	H 	0.80610 0.49480 0.08380 0.04500
C 	C 	0.96780 0.46665 0.00300 -0.07500
C 	C 	0.02420 0.40642 0.95540 -0.09400
H 	H 	0.10440 0.40990 0.92410 0.06600
C 	C 	0.96850 0.34955 0.95990 0.16700
H 	H 	0.00900 0.31160 0.93130 -0.05500
N 	N 	0.85110 0.34447 0.00610 -0.27700
O 	O 	0.91150 0.20153 0.15010 -0.53600
C 	C 	0.29190 0.90012 0.05050 0.00400
H 	H 	0.21080 0.89660 0.07930 -0.00600
C 	C 	0.34650 0.95715 0.05310 -0.03300
H 	H 	0.30610 0.99480 0.08380 0.02900
C 	C 	0.46780 0.96665 0.00300 -0.14900
C 	C 	0.52420 0.90642 0.95540 0.01100
H 	H 	0.60440 0.90990 0.92410 0.03300
C 	C 	0.46850 0.84955 0.95990 0.07600
H 	H 	0.50900 0.81160 0.93130 -0.01400
N 	N 	0.35110 0.84447 0.00610 -0.25900
O 	O 	0.41150 0.70153 0.15010 -0.55500
C 	C 	0.20810 0.40012 0.44950 0.04000
H 	H 	0.28920 0.39660 0.42070 -0.01000
C 	C 	0.15350 0.45715 0.44690 -0.08000
H 	H 	0.19390 0.49480 0.41620 0.04700
C 	C 	0.03220 0.46665 0.49700 -0.04200
C 	C 	0.97580 0.40642 0.54460 -0.02800
H 	H 	0.89560 0.40990 0.57590 0.03600
C 	C 	0.03150 0.34955 0.54010 -0.01600
H 	H 	0.99100 0.31160 0.56870 0.01000
N 	N 	0.14890 0.34447 0.49390 -0.22200
O 	O 	0.08850 0.20153 0.34990 -0.53300
C 	C 	0.70810 0.90012 0.44950 0.09600
H 	H 	0.78920 0.89660 0.42070 -0.02500
C 	C 	0.65350 0.95715 0.44690 -0.15900
H 	H 	0.69390 0.99480 0.41620 0.08300
C 	C 	0.53220 0.96665 0.49700 0.07600
C 	C 	0.47580 0.90642 0.54460 -0.16500
H 	H 	0.39560 0.90990 0.57590 0.08500
C 	C 	0.53150 0.84955 0.54010 0.10100
H 	H 	0.49100 0.81160 0.56870 -0.04000
N 	N 	0.64890 0.84447 0.49390 -0.24900
O 	O 	0.58850 0.70153 0.34990 -0.53600
C 	C 	0.20810 0.59988 0.94950 0.13600
H 	H 	0.28920 0.60340 0.92070 -0.02000
C 	C 	0.15350 0.54285 0.94690 -0.20200
H 	H 	0.19390 0.50520 0.91620 0.10900
C 	C 	0.03220 0.53335 0.99700 0.18100
C 	C 	0.97580 0.59358 0.04460 -0.19400
H 	H 	0.89560 0.59010 0.07590 0.08100
C 	C 	0.03150 0.65045 0.04010 -0.00200
H 	H 	0.99100 0.68840 0.06870 -0.01400
N 	N 	0.14890 0.65553 0.99390 -0.20200
O 	O 	0.08850 0.79847 0.84990 -0.48700
C 	C 	0.70810 0.09988 0.94950 0.17500
H 	H 	0.78920 0.10340 0.92070 -0.03400
C 	C 	0.65350 0.04285 0.94690 -0.25800
H 	H 	0.69390 0.00520 0.91620 0.12700
C 	C 	0.53220 0.03335 0.99700 0.25900
C 	C 	0.47580 0.09358 0.04460 -0.31500
H 	H 	0.39560 0.09010 0.07590 0.11800
C 	C 	0.53150 0.15045 0.04010 0.11000
H 	H 	0.49100 0.18840 0.06870 -0.06500
N 	N 	0.64890 0.15553 0.99390 -0.22700
O 	O 	0.58850 0.29847 0.84990 -0.49200
C 	C 	0.79190 0.59988 0.55050 0.13900
H 	H 	0.71080 0.60340 0.57930 -0.03200
C 	C 	0.84650 0.54285 0.55310 -0.21200
H 	H 	0.80610 0.50520 0.58380 0.10800
C 	C 	0.96780 0.53335 0.50300 0.15200
C 	C 	0.02420 0.59358 0.45540 -0.27700
H 	H 	0.10440 0.59010 0.42410 0.11500
C 	C 	0.96850 0.65045 0.45990 0.20300
H 	H 	0.00900 0.68840 0.43130 -0.09000
N 	N 	0.85110 0.65553 0.50610 -0.27000
O 	O 	0.91150 0.79847 0.65010 -0.50100
C 	C 	0.29190 0.09988 0.55050 0.08300
H 	H 	0.21080 0.10340 0.57930 -0.01600
C 	C 	0.34650 0.04285 0.55310 -0.13300
H 	H 	0.30610 0.00520 0.58380 0.07300
C 	C 	0.46780 0.03335 0.50300 0.03400
C 	C 	0.52420 0.09358 0.45540 -0.13900
H 	H 	0.60440 0.09010 0.42410 0.06700
C 	C 	0.46850 0.15045 0.45990 0.08400
H 	H 	0.50900 0.18840 0.43130 -0.04000
N 	N 	0.35110 0.15553 0.50610 -0.24300
O 	O 	0.41150 0.29847 0.65010 -0.51900
C 	C 	0.00000 0.22720 0.25000 0.57800
H 	H 	0.00000 0.27320 0.25000 -0.22300
C 	C 	0.50000 0.72720 0.25000 0.60800
H 	H 	0.50000 0.77320 0.25000 -0.22700
C 	C 	0.00000 0.77280 0.75000 0.56100
H 	H 	0.00000 0.72680 0.75000 -0.19800
C 	C 	0.50000 0.27280 0.75000 0.58800
H 	H 	0.50000 0.22680 0.75000 -0.20300
Co	Co	0.75000 0.25000 -0.00000 1.07900
Co	Co	0.25000 0.25000 0.50000 1.10400
Co	Co	0.25000 0.75000 -0.00000 1.07600
Co	Co	0.75000 0.75000 0.50000 1.10600
