data_crystal

_cell_length_a 15.07210
_cell_length_b 24.76940
_cell_length_c 15.17070
_cell_angle_alpha 90.00000
_cell_angle_beta  110.54100
_cell_angle_gamma 90.00000

_symmetry_space_group_name_	'P 1'
_symmetry_space_group_name_H-M	'P 1'

loop_
_symmetry_equiv_pos_as_xyz
  x,y,z

loop_
_atom_site_label
_atom_site_type_symbol
_atom_site_fract_x
_atom_site_fract_y
_atom_site_fract_z
_atom_site_charge
Ni	Ni	0.39621 0.52227 0.10812 1.06100
C 	C 	0.20950 0.49590 0.13010 0.07200
H 	H 	0.24830 0.48430 0.18940 -0.01900
C 	C 	0.11070 0.49040 0.10400 -0.13500
H 	H 	0.08480 0.47780 0.14740 0.07200
C 	C 	0.05270 0.50350 0.01440 0.05500
C 	C 	0.09450 0.52250 0.95600 -0.12700
H 	H 	0.05710 0.53170 0.89480 0.07100
C 	C 	0.19270 0.52890 0.98420 0.06000
H 	H 	0.21960 0.54130 0.94140 0.00800
C 	C 	0.32270 0.63630 0.08070 0.07800
C 	C 	0.32230 0.69180 0.08190 -0.14300
H 	H 	0.26520 0.71010 0.05620 0.07400
C 	C 	0.40400 0.72020 0.11980 0.06600
C 	C 	0.47970 0.69170 0.15050 -0.14200
H 	H 	0.53810 0.70910 0.17280 0.07500
C 	C 	0.47680 0.63320 0.15150 0.07900
H 	H 	0.53230 0.61410 0.18210 -0.00200
C 	C 	0.54650 0.49830 0.04400 0.20500
C 	C 	0.49530 0.47960 0.29830 0.06100
H 	H 	0.51720 0.45560 0.26340 -0.01000
C 	C 	0.52070 0.47280 0.39420 -0.12700
H 	H 	0.56160 0.44470 0.42260 0.07100
C 	C 	0.48900 0.50540 0.44990 0.05400
C 	C 	0.43340 0.54870 0.40190 -0.14400
H 	H 	0.41050 0.57350 0.43480 0.07600
C 	C 	0.41230 0.55500 0.30700 0.09600
H 	H 	0.37740 0.58520 0.27820 -0.01700
N 	N 	0.43800 0.52130 0.25470 -0.24700
N 	N 	0.24850 0.51720 0.07300 -0.24400
N 	N 	0.39850 0.60660 0.11070 -0.24200
O 	O 	0.62040 0.48270 0.03480 -0.36800
O 	O 	0.53660 0.51260 0.12010 -0.36700
Ni	Ni	0.60379 0.02227 0.89188 1.06100
C 	C 	0.79050 0.99590 0.86990 0.07200
H 	H 	0.75170 0.98430 0.81060 -0.01900
C 	C 	0.88930 0.99040 0.89600 -0.13400
H 	H 	0.91520 0.97780 0.85260 0.07200
C 	C 	0.94730 0.00350 0.98560 0.05300
C 	C 	0.90550 0.02250 0.04400 -0.12500
H 	H 	0.94290 0.03170 0.10520 0.07100
C 	C 	0.80730 0.02890 0.01580 0.06000
H 	H 	0.78040 0.04130 0.05860 0.00900
C 	C 	0.67730 0.13630 0.91930 0.07800
C 	C 	0.67770 0.19180 0.91810 -0.14300
H 	H 	0.73480 0.21010 0.94380 0.07400
C 	C 	0.59600 0.22020 0.88020 0.06600
C 	C 	0.52030 0.19170 0.84950 -0.14200
H 	H 	0.46190 0.20910 0.82720 0.07500
C 	C 	0.52320 0.13320 0.84850 0.07800
H 	H 	0.46770 0.11410 0.81790 -0.00200
C 	C 	0.45350 0.99830 0.95600 0.20500
C 	C 	0.50470 0.97960 0.70170 0.06200
H 	H 	0.48280 0.95560 0.73660 -0.01000
C 	C 	0.47930 0.97280 0.60580 -0.12700
H 	H 	0.43840 0.94470 0.57740 0.07100
C 	C 	0.51100 0.00540 0.55010 0.05400
C 	C 	0.56660 0.04870 0.59810 -0.14400
H 	H 	0.58950 0.07350 0.56520 0.07600
C 	C 	0.58770 0.05500 0.69300 0.09600
H 	H 	0.62260 0.08520 0.72180 -0.01700
N 	N 	0.56200 0.02130 0.74530 -0.24700
N 	N 	0.75150 0.01720 0.92700 -0.24500
N 	N 	0.60150 0.10660 0.88930 -0.24200
O 	O 	0.37960 0.98270 0.96520 -0.36800
O 	O 	0.46340 0.01260 0.87990 -0.36800
Ni	Ni	0.60379 0.47773 0.89188 1.06100
C 	C 	0.79050 0.50410 0.86990 0.07200
H 	H 	0.75170 0.51570 0.81060 -0.01900
C 	C 	0.88930 0.50960 0.89600 -0.13500
H 	H 	0.91520 0.52220 0.85260 0.07200
C 	C 	0.94730 0.49650 0.98560 0.05500
C 	C 	0.90550 0.47750 0.04400 -0.12700
H 	H 	0.94290 0.46830 0.10520 0.07100
C 	C 	0.80730 0.47110 0.01580 0.06000
H 	H 	0.78040 0.45870 0.05860 0.00800
C 	C 	0.67730 0.36370 0.91930 0.07800
C 	C 	0.67770 0.30820 0.91810 -0.14300
H 	H 	0.73480 0.28990 0.94380 0.07400
C 	C 	0.59600 0.27980 0.88020 0.06600
C 	C 	0.52030 0.30830 0.84950 -0.14200
H 	H 	0.46190 0.29090 0.82720 0.07500
C 	C 	0.52320 0.36680 0.84850 0.07900
H 	H 	0.46770 0.38590 0.81790 -0.00200
C 	C 	0.45350 0.50170 0.95600 0.20500
C 	C 	0.50470 0.52040 0.70170 0.06100
H 	H 	0.48280 0.54440 0.73660 -0.01000
C 	C 	0.47930 0.52720 0.60580 -0.12700
H 	H 	0.43840 0.55530 0.57740 0.07100
C 	C 	0.51100 0.49460 0.55010 0.05400
C 	C 	0.56660 0.45130 0.59810 -0.14400
H 	H 	0.58950 0.42650 0.56520 0.07600
C 	C 	0.58770 0.44500 0.69300 0.09600
H 	H 	0.62260 0.41480 0.72180 -0.01700
N 	N 	0.56200 0.47870 0.74530 -0.24700
N 	N 	0.75150 0.48280 0.92700 -0.24400
N 	N 	0.60150 0.39340 0.88930 -0.24200
O 	O 	0.37960 0.51730 0.96520 -0.36800
O 	O 	0.46340 0.48740 0.87990 -0.36700
Ni	Ni	0.39621 0.97773 0.10812 1.06100
C 	C 	0.20950 0.00410 0.13010 0.07200
H 	H 	0.24830 0.01570 0.18940 -0.01900
C 	C 	0.11070 0.00960 0.10400 -0.13400
H 	H 	0.08480 0.02220 0.14740 0.07200
C 	C 	0.05270 0.99650 0.01440 0.05300
C 	C 	0.09450 0.97750 0.95600 -0.12500
H 	H 	0.05710 0.96830 0.89480 0.07100
C 	C 	0.19270 0.97110 0.98420 0.06000
H 	H 	0.21960 0.95870 0.94140 0.00900
C 	C 	0.32270 0.86370 0.08070 0.07800
C 	C 	0.32230 0.80820 0.08190 -0.14300
H 	H 	0.26520 0.78990 0.05620 0.07400
C 	C 	0.40400 0.77980 0.11980 0.06600
C 	C 	0.47970 0.80830 0.15050 -0.14200
H 	H 	0.53810 0.79090 0.17280 0.07500
C 	C 	0.47680 0.86680 0.15150 0.07800
H 	H 	0.53230 0.88590 0.18210 -0.00200
C 	C 	0.54650 0.00170 0.04400 0.20500
C 	C 	0.49530 0.02040 0.29830 0.06200
H 	H 	0.51720 0.04440 0.26340 -0.01000
C 	C 	0.52070 0.02720 0.39420 -0.12700
H 	H 	0.56160 0.05530 0.42260 0.07100
C 	C 	0.48900 0.99460 0.44990 0.05400
C 	C 	0.43340 0.95130 0.40190 -0.14400
H 	H 	0.41050 0.92650 0.43480 0.07600
C 	C 	0.41230 0.94500 0.30700 0.09600
H 	H 	0.37740 0.91480 0.27820 -0.01700
N 	N 	0.43800 0.97870 0.25470 -0.24700
N 	N 	0.24850 0.98280 0.07300 -0.24500
N 	N 	0.39850 0.89340 0.11070 -0.24200
O 	O 	0.62040 0.01730 0.03480 -0.36800
O 	O 	0.53660 0.98740 0.12010 -0.36800
