data_crystal

_cell_length_a 6.66020
_cell_length_b 11.69410
_cell_length_c 22.78800
_cell_angle_alpha 90.00000
_cell_angle_beta  90.00000
_cell_angle_gamma 90.00000

_symmetry_space_group_name_	'P 1'
_symmetry_space_group_name_H-M	'P 1'

loop_
_symmetry_equiv_pos_as_xyz
  x,y,z

loop_
_atom_site_label
_atom_site_type_symbol
_atom_site_fract_x
_atom_site_fract_y
_atom_site_fract_z
_atom_site_charge
Th	Th	0.76700 0.40413 0.86201 0.02200
Th	Th	0.73300 0.59587 0.36201 0.02200
Th	Th	0.23300 0.90413 0.63799 0.02200
Th	Th	0.26700 0.09587 0.13799 0.02200
H 	H 	0.75160 0.97050 0.03060 0.07200
H 	H 	0.74290 0.09790 0.86890 0.04900
H 	H 	0.21080 0.46920 0.77520 0.06400
H 	H 	0.39870 0.41740 0.69610 0.09700
H 	H 	0.73810 0.94280 0.92880 0.08700
H 	H 	0.28940 0.27970 0.63470 0.05100
H 	H 	0.74840 0.02950 0.53060 0.07200
H 	H 	0.75710 0.90210 0.36890 0.04900
H 	H 	0.28920 0.53080 0.27520 0.06400
H 	H 	0.10130 0.58260 0.19610 0.09700
H 	H 	0.76190 0.05720 0.42880 0.08600
H 	H 	0.21060 0.72030 0.13470 0.05000
H 	H 	0.24840 0.47050 0.46940 0.07200
H 	H 	0.25710 0.59790 0.63110 0.04900
H 	H 	0.78920 0.96920 0.72480 0.06400
H 	H 	0.60130 0.91740 0.80390 0.09700
H 	H 	0.26190 0.44280 0.57120 0.08700
H 	H 	0.71060 0.77970 0.86530 0.05100
H 	H 	0.25160 0.52950 0.96940 0.07200
H 	H 	0.24290 0.40210 0.13110 0.04900
H 	H 	0.71080 0.03080 0.22480 0.06400
H 	H 	0.89870 0.08260 0.30390 0.09700
H 	H 	0.23810 0.55720 0.07120 0.08700
H 	H 	0.78940 0.22030 0.36530 0.05000
C 	C 	0.75400 0.23180 0.98690 0.04300
C 	C 	0.76600 0.35430 0.00540 0.26400
C 	C 	0.76100 0.14200 0.02690 -0.05000
C 	C 	0.76000 0.15550 0.09200 0.29500
C 	C 	0.75200 0.03270 0.00530 0.03200
C 	C 	0.74500 0.10940 0.90930 0.08500
C 	C 	0.16370 0.41120 0.75100 0.08100
C 	C 	0.27700 0.38120 0.70310 -0.09900
C 	C 	0.74400 0.01610 0.94460 -0.08300
C 	C 	0.72300 0.22450 0.74610 0.26200
C 	C 	0.91700 0.28120 0.72720 0.04500
C 	C 	0.02300 0.24690 0.67790 -0.05400
C 	C 	0.21300 0.30090 0.66690 0.03800
C 	C 	0.94670 0.15970 0.63500 0.28700
C 	C 	0.74600 0.76820 0.48690 0.04300
C 	C 	0.73400 0.64570 0.50540 0.26400
C 	C 	0.73900 0.85800 0.52690 -0.05000
C 	C 	0.74000 0.84450 0.59200 0.29500
C 	C 	0.74800 0.96730 0.50530 0.03300
C 	C 	0.75500 0.89060 0.40930 0.08400
C 	C 	0.33630 0.58880 0.25100 0.08200
C 	C 	0.22300 0.61880 0.20310 -0.10000
C 	C 	0.75600 0.98390 0.44460 -0.08300
C 	C 	0.77700 0.77550 0.24610 0.26100
C 	C 	0.58300 0.71880 0.22720 0.04700
C 	C 	0.47700 0.75310 0.17790 -0.05700
C 	C 	0.28700 0.69910 0.16690 0.04000
C 	C 	0.55330 0.84030 0.13500 0.29000
C 	C 	0.24600 0.73180 0.51310 0.04300
C 	C 	0.23400 0.85430 0.49460 0.26400
C 	C 	0.23900 0.64200 0.47310 -0.05000
C 	C 	0.24000 0.65550 0.40800 0.29500
C 	C 	0.24800 0.53270 0.49470 0.03300
C 	C 	0.25500 0.60940 0.59070 0.08500
C 	C 	0.83630 0.91120 0.74900 0.08200
C 	C 	0.72300 0.88120 0.79690 -0.09900
C 	C 	0.25600 0.51610 0.55540 -0.08400
C 	C 	0.27700 0.72450 0.75390 0.26200
C 	C 	0.08300 0.78120 0.77280 0.04500
C 	C 	0.97700 0.74690 0.82210 -0.05300
C 	C 	0.78700 0.80090 0.83310 0.03800
C 	C 	0.05330 0.65970 0.86500 0.28600
C 	C 	0.25400 0.26820 0.01310 0.04300
C 	C 	0.26600 0.14570 0.99460 0.26400
C 	C 	0.26100 0.35800 0.97310 -0.05100
C 	C 	0.26000 0.34450 0.90800 0.29500
C 	C 	0.25200 0.46730 0.99470 0.03300
C 	C 	0.24500 0.39060 0.09070 0.08500
C 	C 	0.66370 0.08880 0.24900 0.08200
C 	C 	0.77700 0.11880 0.29690 -0.10000
C 	C 	0.24400 0.48390 0.05540 -0.08400
C 	C 	0.22300 0.27550 0.25390 0.26100
C 	C 	0.41700 0.21880 0.27280 0.04700
C 	C 	0.52300 0.25310 0.32210 -0.05700
C 	C 	0.71300 0.19910 0.33310 0.04000
C 	C 	0.44670 0.34030 0.36500 0.29000
N 	N 	0.74900 0.21650 0.92900 -0.07700
N 	N 	0.98950 0.36140 0.76460 -0.07900
N 	N 	0.75100 0.78350 0.42900 -0.07700
N 	N 	0.51050 0.63860 0.26460 -0.08000
N 	N 	0.25100 0.71650 0.57100 -0.07700
N 	N 	0.01050 0.86140 0.73540 -0.08000
N 	N 	0.24900 0.28350 0.07100 -0.07800
N 	N 	0.48950 0.13860 0.23540 -0.08000
O 	O 	0.77040 0.42790 0.96390 -0.16200
O 	O 	0.77390 0.37810 0.05780 -0.19600
O 	O 	0.63940 0.15980 0.71280 -0.20300
O 	O 	0.66970 0.25130 0.79920 -0.16200
O 	O 	0.58910 0.16860 0.11670 -0.16400
O 	O 	0.00610 0.05780 0.63900 -0.17400
O 	O 	0.91770 0.14430 0.11970 -0.17300
O 	O 	0.82860 0.19340 0.59490 -0.19400
O 	O 	0.72960 0.57210 0.46390 -0.16300
O 	O 	0.72610 0.62190 0.55780 -0.19700
O 	O 	0.86060 0.84020 0.21280 -0.20300
O 	O 	0.83030 0.74870 0.29920 -0.16200
O 	O 	0.91090 0.83140 0.61670 -0.16400
O 	O 	0.49390 0.94220 0.13900 -0.17700
O 	O 	0.58230 0.85570 0.61970 -0.17300
O 	O 	0.67140 0.80660 0.09490 -0.19400
O 	O 	0.22960 0.92790 0.53610 -0.16300
O 	O 	0.22610 0.87810 0.44220 -0.19700
O 	O 	0.36060 0.65980 0.78720 -0.20400
O 	O 	0.33030 0.75130 0.70080 -0.16300
O 	O 	0.41090 0.66860 0.38330 -0.16400
O 	O 	0.99390 0.55780 0.86100 -0.17400
O 	O 	0.08230 0.64430 0.38030 -0.17300
O 	O 	0.17140 0.69340 0.90510 -0.19400
O 	O 	0.27040 0.07210 0.03610 -0.16300
O 	O 	0.27390 0.12190 0.94220 -0.19700
O 	O 	0.13940 0.34020 0.28720 -0.20300
O 	O 	0.16970 0.24870 0.20080 -0.16200
O 	O 	0.08910 0.33140 0.88330 -0.16500
O 	O 	0.50610 0.44220 0.36100 -0.17700
O 	O 	0.41770 0.35570 0.88030 -0.17300
O 	O 	0.32860 0.30660 0.40510 -0.19400
