data_crystal

_cell_length_a 7.24530
_cell_length_b 9.42180
_cell_length_c 14.09170
_cell_angle_alpha 78.31390
_cell_angle_beta  75.10340
_cell_angle_gamma 67.38760

_symmetry_space_group_name_	'P 1'
_symmetry_space_group_name_H-M	'P 1'

loop_
_symmetry_equiv_pos_as_xyz
  x,y,z

loop_
_atom_site_label
_atom_site_type_symbol
_atom_site_fract_x
_atom_site_fract_y
_atom_site_fract_z
_atom_site_charge
Th	Th	0.22720 0.75000 0.25000 0.01800
Th	Th	0.77280 0.25000 0.75000 0.01800
H 	H 	0.82110 0.49350 0.92810 0.08900
H 	H 	0.80470 0.37680 0.47640 0.06800
H 	H 	0.24270 0.00650 0.57190 0.09000
H 	H 	0.65790 0.12320 0.02360 0.06700
H 	H 	0.17890 0.50650 0.07190 0.08900
H 	H 	0.19530 0.62320 0.52360 0.06800
H 	H 	0.75730 0.99350 0.42810 0.09000
H 	H 	0.34210 0.87680 0.97640 0.06700
C 	C 	0.57840 0.58090 0.03470 0.01500
C 	C 	0.65960 0.67970 0.07350 0.28000
C 	C 	0.68960 0.49480 0.95640 0.02900
C 	C 	0.88480 0.42620 0.48780 0.03900
C 	C 	0.96930 0.51290 0.40890 0.02200
C 	C 	0.94940 0.51690 0.30450 0.28600
C 	C 	0.19400 0.91910 0.46530 0.01700
C 	C 	0.41280 0.82030 0.42650 0.27900
C 	C 	0.14080 0.00520 0.54360 0.02500
C 	C 	0.79880 0.07380 0.01220 0.04100
C 	C 	0.89110 0.98710 0.09110 0.02000
C 	C 	0.77080 0.98310 0.19550 0.28700
C 	C 	0.42160 0.41910 0.96530 0.01500
C 	C 	0.34040 0.32030 0.92650 0.28000
C 	C 	0.31040 0.50520 0.04360 0.02900
C 	C 	0.11520 0.57380 0.51220 0.03900
C 	C 	0.03070 0.48710 0.59110 0.02200
C 	C 	0.05060 0.48310 0.69550 0.28600
C 	C 	0.80600 0.08090 0.53470 0.01700
C 	C 	0.58720 0.17970 0.57350 0.27900
C 	C 	0.85920 0.99480 0.45640 0.02500
C 	C 	0.20120 0.92620 0.98780 0.04100
C 	C 	0.10890 0.01290 0.90890 0.02000
C 	C 	0.22920 0.01690 0.80450 0.28700
N 	N 	0.38860 0.58609 0.07931 -0.06600
N 	N 	0.08427 0.58776 0.42110 -0.06600
N 	N 	0.05400 0.91391 0.42069 -0.06600
N 	N 	0.09313 0.91224 0.07890 -0.06500
N 	N 	0.61140 0.41391 0.92069 -0.06600
N 	N 	0.91573 0.41224 0.57890 -0.06600
N 	N 	0.94600 0.08609 0.57931 -0.06600
N 	N 	0.90687 0.08776 0.92110 -0.06500
O 	O 	0.53421 0.75851 0.14227 -0.15800
O 	O 	0.83208 0.68106 0.03718 -0.19700
O 	O 	0.84944 0.44404 0.29068 -0.18400
O 	O 	0.04781 0.58849 0.23889 -0.16500
O 	O 	0.43499 0.74149 0.35773 -0.15800
O 	O 	0.55032 0.81894 0.46282 -0.19600
O 	O 	0.58416 0.05596 0.20932 -0.18400
O 	O 	0.87519 0.91151 0.26111 -0.16700
O 	O 	0.46579 0.24149 0.85773 -0.15800
O 	O 	0.16792 0.31894 0.96282 -0.19700
O 	O 	0.15056 0.55596 0.70932 -0.18400
O 	O 	0.95219 0.41151 0.76111 -0.16500
O 	O 	0.56501 0.25851 0.64227 -0.15800
O 	O 	0.44968 0.18106 0.53718 -0.19600
O 	O 	0.41584 0.94404 0.79068 -0.18400
O 	O 	0.12481 0.08849 0.73889 -0.16700
