data_crystal

_cell_length_a 9.51500
_cell_length_b 12.29700
_cell_length_c 9.46100
_cell_angle_alpha 91.03000
_cell_angle_beta  98.65800
_cell_angle_gamma 93.71400

_symmetry_space_group_name_	'P 1'
_symmetry_space_group_name_H-M	'P 1'

loop_
_symmetry_equiv_pos_as_xyz
  x,y,z

loop_
_atom_site_label
_atom_site_type_symbol
_atom_site_fract_x
_atom_site_fract_y
_atom_site_fract_z
_atom_site_charge
Zn	Zn	0.31430 0.44883 0.09360 1.20700
Zn	Zn	0.90450 0.03307 0.67850 1.20400
Zn	Zn	0.59740 0.14753 0.10440 1.23300
Zn	Zn	0.09900 0.64878 0.58580 1.23400
P 	P 	0.66190 0.40230 0.16190 0.57100
P 	P 	0.83880 0.08800 0.35370 0.53400
P 	P 	0.69890 0.96980 0.88950 0.54400
P 	P 	0.11420 0.52600 0.29420 0.54300
O 	O 	0.50870 0.42850 0.15460 -0.50800
O 	O 	0.26730 0.52530 0.26280 -0.43200
O 	O 	0.74520 0.49220 0.09090 -0.49600
O 	O 	0.72970 0.97480 0.73640 -0.44500
O 	O 	0.92760 0.04250 0.24390 -0.48400
O 	O 	0.84010 0.00600 0.47570 -0.46900
O 	O 	0.63160 0.06980 0.93290 -0.48500
O 	O 	0.68400 0.09180 0.28280 -0.45500
O 	O 	0.60920 0.86420 0.90750 -0.46200
O 	O 	0.67650 0.29470 0.08350 -0.49000
O 	O 	0.09800 0.62960 0.37890 -0.45100
O 	O 	0.07520 0.42440 0.36880 -0.49400
O 	O 	0.72520 0.40020 0.31980 -0.46200
O 	O 	0.90950 0.19570 0.41670 -0.51000
O 	O 	0.02300 0.53290 0.14310 -0.39600
O 	O 	0.84770 0.95690 0.98430 -0.38800
H 	H 	0.92000 0.50700 0.14000 0.18200
H 	H 	0.86000 0.99400 0.08200 0.17500
Zn	Zn	0.68570 0.55117 0.90640 1.20700
Zn	Zn	0.09550 0.96693 0.32150 1.20400
Zn	Zn	0.40260 0.85247 0.89560 1.23300
Zn	Zn	0.90100 0.35122 0.41420 1.23400
P 	P 	0.33810 0.59770 0.83810 0.57100
P 	P 	0.16120 0.91200 0.64630 0.53400
P 	P 	0.30110 0.03020 0.11050 0.54400
P 	P 	0.88580 0.47400 0.70580 0.54300
O 	O 	0.49130 0.57150 0.84540 -0.50800
O 	O 	0.73270 0.47470 0.73720 -0.43200
O 	O 	0.25480 0.50780 0.90910 -0.49600
O 	O 	0.27030 0.02520 0.26360 -0.44500
O 	O 	0.07240 0.95750 0.75610 -0.48400
O 	O 	0.15990 0.99400 0.52430 -0.46900
O 	O 	0.36840 0.93020 0.06710 -0.48500
O 	O 	0.31600 0.90820 0.71720 -0.45500
O 	O 	0.39080 0.13580 0.09250 -0.46200
O 	O 	0.32350 0.70530 0.91650 -0.49000
O 	O 	0.90200 0.37040 0.62110 -0.45100
O 	O 	0.92480 0.57560 0.63120 -0.49400
O 	O 	0.27480 0.59980 0.68020 -0.46200
O 	O 	0.09050 0.80430 0.58330 -0.51000
O 	O 	0.97700 0.46710 0.85690 -0.39600
O 	O 	0.15230 0.04310 0.01570 -0.38800
H 	H 	0.08000 0.49300 0.86000 0.18200
H 	H 	0.14000 0.00600 0.91800 0.17500
