data_crystal

_cell_length_a 14.01400
_cell_length_b 26.96300
_cell_length_c 7.57600
_cell_angle_alpha 90.00000
_cell_angle_beta  90.00000
_cell_angle_gamma 91.74000

_symmetry_space_group_name_	'P 1'
_symmetry_space_group_name_H-M	'P 1'

loop_
_symmetry_equiv_pos_as_xyz
  x,y,z

loop_
_atom_site_label
_atom_site_type_symbol
_atom_site_fract_x
_atom_site_fract_y
_atom_site_fract_z
_atom_site_charge
Cd	Cd	0.27484 0.13543 0.88104 1.18000
N 	N 	0.25440 0.07960 0.09900 -0.19900
N 	N 	0.24880 0.07790 0.65550 -0.18700
N 	N 	0.32590 0.19980 0.09000 -0.15900
N 	N 	0.12340 0.16800 0.87150 -0.18500
N 	N 	0.44100 0.12570 0.83700 -0.23000
N 	N 	0.31780 0.19260 0.65250 -0.20600
C 	C 	0.25200 0.04920 0.20230 -0.27900
C 	C 	0.24940 0.04860 0.54960 -0.27900
C 	C 	0.39190 0.21880 0.15290 -0.24000
C 	C 	0.07540 0.19830 0.82590 -0.26300
C 	C 	0.47380 0.15700 0.69400 0.02000
C 	C 	0.41910 0.19080 0.62600 -0.06200
C 	C 	0.57950 0.15740 0.65600 -0.07600
Cd	Cd	0.27484 0.63543 0.38104 1.18100
N 	N 	0.25440 0.57960 0.59900 -0.20000
N 	N 	0.24880 0.57790 0.15550 -0.18500
N 	N 	0.32590 0.69980 0.59000 -0.15900
N 	N 	0.12340 0.66800 0.37150 -0.18300
N 	N 	0.44100 0.62570 0.33700 -0.22600
N 	N 	0.31780 0.69260 0.15250 -0.20500
C 	C 	0.25200 0.54920 0.70230 -0.26000
C 	C 	0.24940 0.54860 0.04960 -0.25700
C 	C 	0.39190 0.71880 0.65290 -0.24000
C 	C 	0.07540 0.69830 0.32590 -0.26100
C 	C 	0.47380 0.65700 0.19400 0.02100
C 	C 	0.41910 0.69080 0.12600 -0.06100
C 	C 	0.57950 0.65740 0.15600 -0.07400
Cd	Cd	0.22516 0.86457 0.88104 1.18300
N 	N 	0.24560 0.92040 0.09900 -0.20200
N 	N 	0.25120 0.92210 0.65550 -0.18600
N 	N 	0.17410 0.80020 0.09000 -0.15600
N 	N 	0.37660 0.83200 0.87150 -0.17900
N 	N 	0.05900 0.87430 0.83700 -0.23200
N 	N 	0.18220 0.80740 0.65250 -0.20800
C 	C 	0.24800 0.95080 0.20230 -0.22500
C 	C 	0.25060 0.95140 0.54960 -0.22400
C 	C 	0.10810 0.78120 0.15290 -0.26000
C 	C 	0.42460 0.80170 0.82590 -0.23000
C 	C 	0.02620 0.84300 0.69400 -0.05100
C 	C 	0.08090 0.80920 0.62600 -0.06300
C 	C 	0.92050 0.84260 0.65600 0.00100
Cd	Cd	0.22516 0.36457 0.38104 1.18100
N 	N 	0.24560 0.42040 0.59900 -0.20100
N 	N 	0.25120 0.42210 0.15550 -0.18400
N 	N 	0.17410 0.30020 0.59000 -0.15700
N 	N 	0.37660 0.33200 0.37150 -0.18100
N 	N 	0.05900 0.37430 0.33700 -0.23600
N 	N 	0.18220 0.30740 0.15250 -0.20800
C 	C 	0.24800 0.45080 0.70230 -0.26100
C 	C 	0.25060 0.45140 0.04960 -0.25700
C 	C 	0.10810 0.28120 0.65290 -0.26300
C 	C 	0.42460 0.30170 0.32590 -0.23100
C 	C 	0.02620 0.34300 0.19400 -0.04900
C 	C 	0.08090 0.30920 0.12600 -0.06300
C 	C 	0.92050 0.34260 0.15600 -0.00700
Cd	Cd	0.72516 0.86457 0.11896 1.18600
N 	N 	0.74560 0.92040 0.90100 -0.19700
N 	N 	0.75120 0.92210 0.34450 -0.18200
N 	N 	0.67410 0.80020 0.91000 -0.15700
N 	N 	0.87660 0.83200 0.12850 -0.18000
N 	N 	0.55900 0.87430 0.16300 -0.22100
N 	N 	0.68220 0.80740 0.34750 -0.20400
C 	C 	0.74800 0.95080 0.79770 -0.21000
C 	C 	0.75060 0.95140 0.45040 -0.21000
C 	C 	0.60810 0.78120 0.84710 -0.23800
C 	C 	0.92460 0.80170 0.17410 -0.18300
C 	C 	0.52620 0.84300 0.30600 0.02300
C 	C 	0.58090 0.80920 0.37400 -0.06100
C 	C 	0.42050 0.84260 0.34400 -0.07100
Cd	Cd	0.72516 0.36457 0.61896 1.18500
N 	N 	0.74560 0.42040 0.40100 -0.19500
N 	N 	0.75120 0.42210 0.84450 -0.18000
N 	N 	0.67410 0.30020 0.41000 -0.15700
N 	N 	0.87660 0.33200 0.62850 -0.18200
N 	N 	0.55900 0.37430 0.66300 -0.22600
N 	N 	0.68220 0.30740 0.84750 -0.20400
C 	C 	0.74800 0.45080 0.29770 -0.24600
C 	C 	0.75060 0.45140 0.95040 -0.24300
C 	C 	0.60810 0.28120 0.34710 -0.23900
C 	C 	0.92460 0.30170 0.67410 -0.18100
C 	C 	0.52620 0.34300 0.80600 0.02200
C 	C 	0.58090 0.30920 0.87400 -0.06100
C 	C 	0.42050 0.34260 0.84400 -0.07500
Cd	Cd	0.77484 0.13543 0.11896 1.18300
N 	N 	0.75440 0.07960 0.90100 -0.19600
N 	N 	0.74880 0.07790 0.34450 -0.18300
N 	N 	0.82590 0.19980 0.91000 -0.16400
N 	N 	0.62340 0.16800 0.12850 -0.18200
N 	N 	0.94100 0.12570 0.16300 -0.22000
N 	N 	0.81780 0.19260 0.34750 -0.20300
C 	C 	0.75200 0.04920 0.79770 -0.26400
C 	C 	0.74940 0.04860 0.45040 -0.26500
C 	C 	0.89190 0.21880 0.84710 -0.19800
C 	C 	0.57540 0.19830 0.17410 -0.23100
C 	C 	0.97380 0.15700 0.30600 0.09100
C 	C 	0.91910 0.19080 0.37400 -0.05600
C 	C 	0.07950 0.15740 0.34400 -0.14400
Cd	Cd	0.77484 0.63543 0.61896 1.18500
N 	N 	0.75440 0.57960 0.40100 -0.19500
N 	N 	0.74880 0.57790 0.84450 -0.18200
N 	N 	0.82590 0.69980 0.41000 -0.16400
N 	N 	0.62340 0.66800 0.62850 -0.18000
N 	N 	0.94100 0.62570 0.66300 -0.21500
N 	N 	0.81780 0.69260 0.84750 -0.20200
C 	C 	0.75200 0.54920 0.29770 -0.24500
C 	C 	0.74940 0.54860 0.95040 -0.24300
C 	C 	0.89190 0.71880 0.34710 -0.20000
C 	C 	0.57540 0.69830 0.67410 -0.23000
C 	C 	0.97380 0.65700 0.80600 0.09600
C 	C 	0.91910 0.69080 0.87400 -0.05500
C 	C 	0.07950 0.65740 0.84400 -0.14600
Ni	Ni	0.25000 0.00000 0.37440 1.02300
Ni	Ni	0.25000 0.50000 0.87440 1.04500
Ni	Ni	0.75000 0.00000 0.62560 1.02700
Ni	Ni	0.75000 0.50000 0.12560 1.05000
Ni	Ni	0.50000 0.25000 0.25000 1.05900
Ni	Ni	0.00000 0.75000 0.25000 1.02800
Ni	Ni	0.50000 0.75000 0.75000 1.06000
Ni	Ni	0.00000 0.25000 0.75000 1.02600
