data_crystal

_cell_length_a 13.96100
_cell_length_b 26.99800
_cell_length_c 7.58900
_cell_angle_alpha 90.00000
_cell_angle_beta  90.00000
_cell_angle_gamma 89.16000

_symmetry_space_group_name_	'P 1'
_symmetry_space_group_name_H-M	'P 1'

loop_
_symmetry_equiv_pos_as_xyz
  x,y,z

loop_
_atom_site_label
_atom_site_type_symbol
_atom_site_fract_x
_atom_site_fract_y
_atom_site_fract_z
_atom_site_charge
Cd	Cd	0.28625 0.13455 0.87667 1.17900
N 	N 	0.26340 0.07890 0.09040 -0.20300
N 	N 	0.26200 0.07800 0.64920 -0.18700
N 	N 	0.33240 0.19860 0.08700 -0.15800
N 	N 	0.13300 0.16880 0.87000 -0.18500
N 	N 	0.32440 0.19220 0.64800 -0.20500
N 	N 	0.45290 0.12460 0.83380 -0.23200
C 	C 	0.25770 0.04870 0.19500 -0.27700
C 	C 	0.25750 0.04850 0.54200 -0.28000
C 	C 	0.39550 0.21810 0.15100 -0.23800
C 	C 	0.08130 0.19900 0.82600 -0.26300
C 	C 	0.42850 0.19200 0.62800 -0.06200
C 	C 	0.48230 0.15290 0.68500 0.01600
C 	C 	0.59030 0.15520 0.65200 -0.07400
Cd	Cd	0.28625 0.63455 0.37667 1.18200
N 	N 	0.26340 0.57890 0.59040 -0.20300
N 	N 	0.26200 0.57800 0.14920 -0.18500
N 	N 	0.33240 0.69860 0.58700 -0.15800
N 	N 	0.13300 0.66880 0.37000 -0.18300
N 	N 	0.32440 0.69220 0.14800 -0.20400
N 	N 	0.45290 0.62460 0.33380 -0.22800
C 	C 	0.25770 0.54870 0.69500 -0.25800
C 	C 	0.25750 0.54850 0.04200 -0.25700
C 	C 	0.39550 0.71810 0.65100 -0.23700
C 	C 	0.08130 0.69900 0.32600 -0.26100
C 	C 	0.42850 0.69200 0.12800 -0.06100
C 	C 	0.48230 0.65290 0.18500 0.01800
C 	C 	0.59030 0.65520 0.15200 -0.07200
Cd	Cd	0.21375 0.86545 0.87667 1.18300
N 	N 	0.23660 0.92110 0.09040 -0.20400
N 	N 	0.23800 0.92200 0.64920 -0.18700
N 	N 	0.16760 0.80140 0.08700 -0.15500
N 	N 	0.36700 0.83120 0.87000 -0.17900
N 	N 	0.17560 0.80780 0.64800 -0.20600
N 	N 	0.04710 0.87540 0.83380 -0.23600
C 	C 	0.24230 0.95130 0.19500 -0.22300
C 	C 	0.24250 0.95150 0.54200 -0.22600
C 	C 	0.10450 0.78190 0.15100 -0.25800
C 	C 	0.41870 0.80100 0.82600 -0.23000
C 	C 	0.07150 0.80800 0.62800 -0.06900
C 	C 	0.01770 0.84710 0.68500 -0.05000
C 	C 	0.90970 0.84480 0.65200 0.00100
Cd	Cd	0.21375 0.36545 0.37667 1.18100
N 	N 	0.23660 0.42110 0.59040 -0.20300
N 	N 	0.23800 0.42200 0.14920 -0.18500
N 	N 	0.16760 0.30140 0.58700 -0.15700
N 	N 	0.36700 0.33120 0.37000 -0.18000
N 	N 	0.17560 0.30780 0.14800 -0.20600
N 	N 	0.04710 0.37540 0.33380 -0.24000
C 	C 	0.24230 0.45130 0.69500 -0.25900
C 	C 	0.24250 0.45150 0.04200 -0.25800
C 	C 	0.10450 0.28190 0.65100 -0.26100
C 	C 	0.41870 0.30100 0.32600 -0.23000
C 	C 	0.07150 0.30800 0.12800 -0.06800
C 	C 	0.01770 0.34710 0.18500 -0.04800
C 	C 	0.90970 0.34480 0.15200 -0.00700
Cd	Cd	0.71375 0.86545 0.12333 1.18600
N 	N 	0.73660 0.92110 0.90960 -0.19900
N 	N 	0.73800 0.92200 0.35080 -0.18300
N 	N 	0.66760 0.80140 0.91300 -0.15600
N 	N 	0.86700 0.83120 0.13000 -0.18000
N 	N 	0.67560 0.80780 0.35200 -0.20300
N 	N 	0.54710 0.87540 0.16620 -0.22300
C 	C 	0.74230 0.95130 0.80500 -0.20800
C 	C 	0.74250 0.95150 0.45800 -0.21100
C 	C 	0.60450 0.78190 0.84900 -0.23600
C 	C 	0.91870 0.80100 0.17400 -0.18200
C 	C 	0.57150 0.80800 0.37200 -0.06100
C 	C 	0.51770 0.84710 0.31500 0.02100
C 	C 	0.40970 0.84480 0.34800 -0.06900
Cd	Cd	0.71375 0.36545 0.62333 1.18500
N 	N 	0.73660 0.42110 0.40960 -0.19800
N 	N 	0.73800 0.42200 0.85080 -0.18100
N 	N 	0.66760 0.30140 0.41300 -0.15700
N 	N 	0.86700 0.33120 0.63000 -0.18200
N 	N 	0.67560 0.30780 0.85200 -0.20300
N 	N 	0.54710 0.37540 0.66620 -0.22800
C 	C 	0.74230 0.45130 0.30500 -0.24400
C 	C 	0.74250 0.45150 0.95800 -0.24500
C 	C 	0.60450 0.28190 0.34900 -0.23700
C 	C 	0.91870 0.30100 0.67400 -0.18100
C 	C 	0.57150 0.30800 0.87200 -0.06100
C 	C 	0.51770 0.34710 0.81500 0.01900
C 	C 	0.40970 0.34480 0.84800 -0.07300
Cd	Cd	0.78625 0.13455 0.12333 1.18300
N 	N 	0.76340 0.07890 0.90960 -0.19800
N 	N 	0.76200 0.07800 0.35080 -0.18300
N 	N 	0.83240 0.19860 0.91300 -0.16300
N 	N 	0.63300 0.16880 0.13000 -0.18100
N 	N 	0.82440 0.19220 0.35200 -0.20200
N 	N 	0.95290 0.12460 0.16620 -0.22100
C 	C 	0.75770 0.04870 0.80500 -0.26200
C 	C 	0.75750 0.04850 0.45800 -0.26500
C 	C 	0.89550 0.21810 0.84900 -0.19400
C 	C 	0.58130 0.19900 0.17400 -0.23100
C 	C 	0.92850 0.19200 0.37200 -0.05000
C 	C 	0.98230 0.15290 0.31500 0.08400
C 	C 	0.09030 0.15520 0.34800 -0.14000
Cd	Cd	0.78625 0.63455 0.62333 1.18500
N 	N 	0.76340 0.57890 0.40960 -0.19700
N 	N 	0.76200 0.57800 0.85080 -0.18200
N 	N 	0.83240 0.69860 0.41300 -0.16300
N 	N 	0.63300 0.66880 0.63000 -0.18000
N 	N 	0.82440 0.69220 0.85200 -0.20200
N 	N 	0.95290 0.62460 0.66620 -0.21600
C 	C 	0.75770 0.54870 0.30500 -0.24300
C 	C 	0.75750 0.54850 0.95800 -0.24400
C 	C 	0.89550 0.71810 0.34900 -0.19600
C 	C 	0.58130 0.69900 0.67400 -0.23000
C 	C 	0.92850 0.69200 0.87200 -0.05000
C 	C 	0.98230 0.65290 0.81500 0.08900
C 	C 	0.09030 0.65520 0.84800 -0.14200
Ni	Ni	0.25000 0.00000 0.36790 1.02300
Ni	Ni	0.25000 0.50000 0.86790 1.04600
Ni	Ni	0.75000 0.00000 0.63210 1.02700
Ni	Ni	0.75000 0.50000 0.13210 1.05000
Ni	Ni	0.50000 0.25000 0.25000 1.06000
Ni	Ni	0.00000 0.75000 0.25000 1.02800
Ni	Ni	0.50000 0.75000 0.75000 1.06000
Ni	Ni	0.00000 0.25000 0.75000 1.02600
