data_crystal

_cell_length_a 13.96100
_cell_length_b 26.99800
_cell_length_c 7.58900
_cell_angle_alpha 90.00000
_cell_angle_beta  90.00000
_cell_angle_gamma 90.84000

_symmetry_space_group_name_	'P 1'
_symmetry_space_group_name_H-M	'P 1'

loop_
_symmetry_equiv_pos_as_xyz
  x,y,z

loop_
_atom_site_label
_atom_site_type_symbol
_atom_site_fract_x
_atom_site_fract_y
_atom_site_fract_z
_atom_site_charge
Cd	Cd	0.21375 0.13454 0.12333 1.18000
N 	N 	0.23660 0.07890 0.90960 -0.20300
N 	N 	0.23800 0.07790 0.35080 -0.19100
N 	N 	0.36700 0.16880 0.13000 -0.18200
N 	N 	0.16760 0.19860 0.91300 -0.15600
N 	N 	0.17560 0.19210 0.35100 -0.20800
N 	N 	0.04710 0.12460 0.16630 -0.24400
C 	C 	0.24240 0.04870 0.80500 -0.27700
C 	C 	0.25750 0.04850 0.45800 -0.27900
C 	C 	0.41870 0.19900 0.17400 -0.23200
C 	C 	0.10450 0.21810 0.84900 -0.25900
C 	C 	0.07150 0.19210 0.37200 -0.06900
C 	C 	0.01770 0.15290 0.31500 -0.05300
C 	C 	0.90960 0.15510 0.34800 -0.00400
Cd	Cd	0.21375 0.63454 0.62333 1.18200
N 	N 	0.23660 0.57890 0.40960 -0.20300
N 	N 	0.23800 0.57790 0.85080 -0.18900
N 	N 	0.36700 0.66880 0.63000 -0.18000
N 	N 	0.16760 0.69860 0.41300 -0.15600
N 	N 	0.17560 0.69210 0.85100 -0.20600
N 	N 	0.04710 0.62460 0.66630 -0.24000
C 	C 	0.24240 0.54870 0.30500 -0.25900
C 	C 	0.25750 0.54850 0.95800 -0.25700
C 	C 	0.41870 0.69900 0.67400 -0.23000
C 	C 	0.10450 0.71810 0.34900 -0.26100
C 	C 	0.07150 0.69210 0.87200 -0.06800
C 	C 	0.01770 0.65290 0.81500 -0.04800
C 	C 	0.90960 0.65510 0.84800 -0.00600
Cd	Cd	0.28625 0.86546 0.12333 1.18400
N 	N 	0.26340 0.92110 0.90960 -0.20300
N 	N 	0.26200 0.92210 0.35080 -0.18900
N 	N 	0.13300 0.83120 0.13000 -0.18100
N 	N 	0.33240 0.80140 0.91300 -0.15700
N 	N 	0.32440 0.80790 0.35100 -0.20500
N 	N 	0.45290 0.87540 0.16630 -0.22400
C 	C 	0.25760 0.95130 0.80500 -0.22200
C 	C 	0.24250 0.95150 0.45800 -0.22800
C 	C 	0.08130 0.80100 0.17400 -0.26100
C 	C 	0.39550 0.78190 0.84900 -0.23600
C 	C 	0.42850 0.80790 0.37200 -0.06100
C 	C 	0.48230 0.84710 0.31500 0.02000
C 	C 	0.59040 0.84490 0.34800 -0.06600
Cd	Cd	0.28625 0.36546 0.62333 1.18200
N 	N 	0.26340 0.42110 0.40960 -0.20200
N 	N 	0.26200 0.42210 0.85080 -0.18800
N 	N 	0.13300 0.33120 0.63000 -0.18200
N 	N 	0.33240 0.30140 0.41300 -0.15800
N 	N 	0.32440 0.30790 0.85100 -0.20500
N 	N 	0.45290 0.37540 0.66630 -0.22800
C 	C 	0.25760 0.45130 0.30500 -0.25700
C 	C 	0.24250 0.45150 0.95800 -0.26000
C 	C 	0.08130 0.30100 0.67400 -0.26000
C 	C 	0.39550 0.28190 0.34900 -0.23700
C 	C 	0.42850 0.30790 0.87200 -0.06100
C 	C 	0.48230 0.34710 0.81500 0.01800
C 	C 	0.59040 0.34490 0.84800 -0.07000
Cd	Cd	0.78625 0.86546 0.87667 1.18700
N 	N 	0.76340 0.92110 0.09040 -0.19800
N 	N 	0.76200 0.92210 0.64920 -0.18500
N 	N 	0.63300 0.83120 0.87000 -0.17800
N 	N 	0.83240 0.80140 0.08700 -0.16200
N 	N 	0.82440 0.80790 0.64900 -0.20200
N 	N 	0.95290 0.87540 0.83370 -0.21200
C 	C 	0.75760 0.95130 0.19500 -0.20700
C 	C 	0.74250 0.95150 0.54200 -0.21400
C 	C 	0.58130 0.80100 0.82600 -0.22900
C 	C 	0.89550 0.78190 0.15100 -0.19300
C 	C 	0.92850 0.80790 0.62800 -0.05000
C 	C 	0.98230 0.84710 0.68500 0.08700
C 	C 	0.09040 0.84490 0.65200 -0.13100
Cd	Cd	0.78625 0.36546 0.37667 1.18600
N 	N 	0.76340 0.42110 0.59040 -0.19700
N 	N 	0.76200 0.42210 0.14920 -0.18400
N 	N 	0.63300 0.33120 0.37000 -0.17900
N 	N 	0.83240 0.30140 0.58700 -0.16200
N 	N 	0.82440 0.30790 0.14900 -0.20200
N 	N 	0.95290 0.37540 0.33370 -0.21600
C 	C 	0.75760 0.45130 0.69500 -0.24200
C 	C 	0.74250 0.45150 0.04200 -0.24700
C 	C 	0.58130 0.30100 0.32600 -0.23000
C 	C 	0.89550 0.28190 0.65100 -0.19600
C 	C 	0.92850 0.30790 0.12800 -0.05000
C 	C 	0.98230 0.34710 0.18500 0.08800
C 	C 	0.09040 0.34490 0.15200 -0.13900
Cd	Cd	0.71375 0.13454 0.87667 1.18300
N 	N 	0.73660 0.07890 0.09040 -0.19900
N 	N 	0.73800 0.07790 0.64920 -0.18700
N 	N 	0.86700 0.16880 0.87000 -0.18300
N 	N 	0.66760 0.19860 0.08700 -0.15700
N 	N 	0.67560 0.19210 0.64900 -0.20500
N 	N 	0.54710 0.12460 0.83370 -0.23200
C 	C 	0.74240 0.04870 0.19500 -0.26300
C 	C 	0.75750 0.04850 0.54200 -0.26400
C 	C 	0.91870 0.19900 0.82600 -0.18400
C 	C 	0.60450 0.21810 0.15100 -0.23700
C 	C 	0.57150 0.19210 0.62800 -0.06100
C 	C 	0.51770 0.15290 0.68500 0.01600
C 	C 	0.40960 0.15510 0.65200 -0.07300
Cd	Cd	0.71375 0.63454 0.37667 1.18500
N 	N 	0.73660 0.57890 0.59040 -0.19800
N 	N 	0.73800 0.57790 0.14920 -0.18500
N 	N 	0.86700 0.66880 0.37000 -0.18100
N 	N 	0.66760 0.69860 0.58700 -0.15700
N 	N 	0.67560 0.69210 0.14900 -0.20400
N 	N 	0.54710 0.62460 0.33370 -0.22800
C 	C 	0.74240 0.54870 0.69500 -0.24300
C 	C 	0.75750 0.54850 0.04200 -0.24400
C 	C 	0.91870 0.69900 0.32600 -0.18100
C 	C 	0.60450 0.71810 0.65100 -0.23700
C 	C 	0.57150 0.69210 0.12800 -0.06100
C 	C 	0.51770 0.65290 0.18500 0.01800
C 	C 	0.40960 0.65510 0.15200 -0.07200
Ni	Ni	0.25000 0.00000 0.63210 1.02500
Ni	Ni	0.25000 0.50000 0.13210 1.04700
Ni	Ni	0.75000 0.00000 0.36790 1.02900
Ni	Ni	0.75000 0.50000 0.86790 1.05100
Ni	Ni	0.50000 0.25000 0.25000 1.06000
Ni	Ni	-0.00000 0.75000 0.25000 1.02600
Ni	Ni	0.50000 0.75000 0.75000 1.06000
Ni	Ni	-0.00000 0.25000 0.75000 1.02800
