data_crystal

_cell_length_a 14.07500
_cell_length_b 27.02600
_cell_length_c 7.61200
_cell_angle_alpha 90.00000
_cell_angle_beta  90.00000
_cell_angle_gamma 89.82000

_symmetry_space_group_name_	'P 1'
_symmetry_space_group_name_H-M	'P 1'

loop_
_symmetry_equiv_pos_as_xyz
  x,y,z

loop_
_atom_site_label
_atom_site_type_symbol
_atom_site_fract_x
_atom_site_fract_y
_atom_site_fract_z
_atom_site_charge
Cd	Cd	0.28403 0.13462 0.87387 1.17800
N 	N 	0.26140 0.07860 0.08680 -0.20400
N 	N 	0.25920 0.07860 0.64470 -0.18800
N 	N 	0.13270 0.16920 0.86700 -0.18600
N 	N 	0.32420 0.19320 0.65160 -0.20700
N 	N 	0.45080 0.12470 0.83140 -0.23000
C 	C 	0.25630 0.04870 0.19250 -0.27700
C 	C 	0.25550 0.04860 0.53840 -0.28200
C 	C 	0.08120 0.19950 0.82340 -0.26300
C 	C 	0.42620 0.19200 0.62900 -0.06200
C 	C 	0.48290 0.15860 0.69600 0.01900
C 	C 	0.58880 0.15900 0.66110 -0.07400
N 	N 	0.33250 0.69740 0.58840 -0.15900
C 	C 	0.39550 0.71740 0.65210 -0.23400
Cd	Cd	0.21597 0.86538 0.87387 1.18200
N 	N 	0.23860 0.92140 0.08680 -0.20400
N 	N 	0.24080 0.92140 0.64470 -0.18700
N 	N 	0.36730 0.83080 0.86700 -0.17900
N 	N 	0.17580 0.80680 0.65160 -0.20800
N 	N 	0.04920 0.87530 0.83140 -0.23300
C 	C 	0.24370 0.95130 0.19250 -0.22300
C 	C 	0.24450 0.95140 0.53840 -0.22800
C 	C 	0.41880 0.80050 0.82340 -0.23100
C 	C 	0.07380 0.80800 0.62900 -0.06300
C 	C 	0.01710 0.84140 0.69600 -0.05200
C 	C 	0.91120 0.84100 0.66110 0.00200
N 	N 	0.16750 0.30260 0.58840 -0.15700
C 	C 	0.10450 0.28260 0.65210 -0.25800
N 	N 	0.66750 0.80260 0.91160 -0.15700
C 	C 	0.60450 0.78260 0.84790 -0.23300
Cd	Cd	0.71597 0.36538 0.62613 1.18400
N 	N 	0.73860 0.42140 0.41320 -0.19800
N 	N 	0.74080 0.42140 0.85530 -0.18100
N 	N 	0.86730 0.33080 0.63300 -0.18200
N 	N 	0.67580 0.30680 0.84840 -0.20400
N 	N 	0.54920 0.37530 0.66860 -0.22600
C 	C 	0.74370 0.45130 0.30750 -0.24300
C 	C 	0.74450 0.45140 0.96160 -0.24700
C 	C 	0.91880 0.30050 0.67660 -0.18300
C 	C 	0.57380 0.30800 0.87100 -0.06100
C 	C 	0.51710 0.34140 0.80400 0.02000
C 	C 	0.41120 0.34100 0.83890 -0.07300
N 	N 	0.83250 0.19740 0.91160 -0.16300
C 	C 	0.89550 0.21740 0.84790 -0.19200
Cd	Cd	0.78403 0.63462 0.62613 1.18400
N 	N 	0.76140 0.57860 0.41320 -0.19800
N 	N 	0.75920 0.57860 0.85530 -0.18200
N 	N 	0.63270 0.66920 0.63300 -0.18000
N 	N 	0.82420 0.69320 0.84840 -0.20200
N 	N 	0.95080 0.62470 0.66860 -0.21400
C 	C 	0.75630 0.54870 0.30750 -0.24300
C 	C 	0.75550 0.54860 0.96160 -0.24600
C 	C 	0.58120 0.69950 0.67660 -0.23100
C 	C 	0.92620 0.69200 0.87100 -0.05600
C 	C 	0.98290 0.65860 0.80400 0.09500
C 	C 	0.08880 0.65900 0.83890 -0.14300
Ni	Ni	0.25000 0.00000 0.36530 1.02400
Ni	Ni	0.75000 0.50000 0.13470 1.05000
Ni	Ni	0.50000 0.75000 0.75000 1.05900
Ni	Ni	0.00000 0.25000 0.75000 1.02500
N 	N 	0.33250 0.19740 0.08840 -0.15900
C 	C 	0.39550 0.21740 0.15210 -0.23500
Cd	Cd	0.28403 0.63462 0.37387 1.18100
N 	N 	0.26140 0.57860 0.58680 -0.20300
N 	N 	0.25920 0.57860 0.14470 -0.18600
N 	N 	0.13270 0.66920 0.36700 -0.18300
N 	N 	0.32420 0.69320 0.15160 -0.20500
N 	N 	0.45080 0.62470 0.33140 -0.22600
C 	C 	0.25630 0.54870 0.69250 -0.25800
C 	C 	0.25550 0.54860 0.03840 -0.26000
C 	C 	0.08120 0.69950 0.32340 -0.26100
C 	C 	0.42620 0.69200 0.12900 -0.06100
C 	C 	0.48290 0.65860 0.19600 0.02000
C 	C 	0.58880 0.65900 0.16110 -0.07100
N 	N 	0.16750 0.80260 0.08840 -0.15600
C 	C 	0.10450 0.78260 0.15210 -0.25500
Cd	Cd	0.21597 0.36538 0.37387 1.18100
N 	N 	0.23860 0.42140 0.58680 -0.20300
N 	N 	0.24080 0.42140 0.14470 -0.18500
N 	N 	0.36730 0.33080 0.36700 -0.18100
N 	N 	0.17580 0.30680 0.15160 -0.20800
N 	N 	0.04920 0.37530 0.33140 -0.23700
C 	C 	0.24370 0.45130 0.69250 -0.25900
C 	C 	0.24450 0.45140 0.03840 -0.26000
C 	C 	0.41880 0.30050 0.32340 -0.23200
C 	C 	0.07380 0.30800 0.12900 -0.06300
C 	C 	0.01710 0.34140 0.19600 -0.05000
C 	C 	0.91120 0.34100 0.16110 -0.00600
Cd	Cd	0.71597 0.86538 0.12613 1.18600
N 	N 	0.73860 0.92140 0.91320 -0.19900
N 	N 	0.74080 0.92140 0.35530 -0.18300
N 	N 	0.86730 0.83080 0.13300 -0.18000
N 	N 	0.67580 0.80680 0.34840 -0.20400
N 	N 	0.54920 0.87530 0.16860 -0.22100
C 	C 	0.74370 0.95130 0.80750 -0.20800
C 	C 	0.74450 0.95140 0.46160 -0.21300
C 	C 	0.91880 0.80050 0.17660 -0.18400
C 	C 	0.57380 0.80800 0.37100 -0.06100
C 	C 	0.51710 0.84140 0.30400 0.02200
C 	C 	0.41120 0.84100 0.33890 -0.06900
N 	N 	0.66750 0.30260 0.41160 -0.15800
C 	C 	0.60450 0.28260 0.34790 -0.23400
Cd	Cd	0.78403 0.13462 0.12613 1.18200
N 	N 	0.76140 0.07860 0.91320 -0.19800
N 	N 	0.75920 0.07860 0.35530 -0.18300
N 	N 	0.63270 0.16920 0.13300 -0.18200
N 	N 	0.82420 0.19320 0.34840 -0.20300
N 	N 	0.95080 0.12470 0.16860 -0.21900
C 	C 	0.75630 0.04870 0.80750 -0.26200
C 	C 	0.75550 0.04860 0.46160 -0.26700
C 	C 	0.58120 0.19950 0.17660 -0.23200
C 	C 	0.92620 0.19200 0.37100 -0.05600
C 	C 	0.98290 0.15860 0.30400 0.09000
C 	C 	0.08880 0.15900 0.33890 -0.14000
N 	N 	0.83250 0.69740 0.41160 -0.16300
C 	C 	0.89550 0.71740 0.34790 -0.19400
Ni	Ni	0.25000 0.50000 0.86530 1.04600
Ni	Ni	0.75000 0.00000 0.63470 1.02800
Ni	Ni	0.50000 0.25000 0.25000 1.05800
Ni	Ni	-0.00000 0.75000 0.25000 1.02700
