data_crystal

_cell_length_a 14.10400
_cell_length_b 26.79900
_cell_length_c 7.65700
_cell_angle_alpha 90.00000
_cell_angle_beta  90.00000
_cell_angle_gamma 90.00000

_symmetry_space_group_name_	'P 1'
_symmetry_space_group_name_H-M	'P 1'

loop_
_symmetry_equiv_pos_as_xyz
  x,y,z

loop_
_atom_site_label
_atom_site_type_symbol
_atom_site_fract_x
_atom_site_fract_y
_atom_site_fract_z
_atom_site_charge
Cd	Cd	0.21640 0.11507 0.12340 1.16800
N 	N 	0.24100 0.17160 0.89700 -0.16900
N 	N 	0.24140 0.17110 0.33500 -0.20900
N 	N 	0.16540 0.05270 0.33600 -0.16600
N 	N 	0.36860 0.08070 0.11900 -0.18500
N 	N 	0.17560 0.05600 0.90300 -0.19800
N 	N 	0.05210 0.12750 0.07800 -0.27500
C 	C 	0.24350 0.20090 0.78700 -0.24800
C 	C 	0.24540 0.20130 0.44200 -0.26100
C 	C 	0.10410 0.03280 0.40100 -0.28300
C 	C 	0.41830 0.05020 0.07500 -0.27900
C 	C 	0.07400 0.05970 0.87400 -0.07700
C 	C 	0.02000 0.09400 0.93900 -0.00800
C 	C 	0.91310 0.09430 0.90800 0.00800
Cd	Cd	0.28360 0.88493 0.62340 1.18500
N 	N 	0.25900 0.82840 0.39700 -0.18500
N 	N 	0.25860 0.82890 0.83500 -0.20300
N 	N 	0.33460 0.94730 0.83600 -0.15900
N 	N 	0.13140 0.91930 0.61900 -0.18000
N 	N 	0.32440 0.94400 0.40300 -0.20100
N 	N 	0.44790 0.87250 0.57800 -0.22300
C 	C 	0.25650 0.79910 0.28700 -0.27700
C 	C 	0.25460 0.79870 0.94200 -0.21800
C 	C 	0.39590 0.96720 0.90100 -0.16200
C 	C 	0.08170 0.94980 0.57500 -0.22800
C 	C 	0.42600 0.94030 0.37400 -0.05400
C 	C 	0.48000 0.90600 0.43900 0.01300
C 	C 	0.58690 0.90570 0.40800 -0.06600
Cd	Cd	0.78360 0.61507 0.87660 1.19700
N 	N 	0.75900 0.67160 0.10300 -0.19900
N 	N 	0.75860 0.67110 0.66500 -0.19200
N 	N 	0.83460 0.55270 0.66400 -0.16000
N 	N 	0.63140 0.58070 0.88100 -0.17400
N 	N 	0.82440 0.55600 0.09700 -0.22000
N 	N 	0.94790 0.62750 0.92200 -0.18200
C 	C 	0.75650 0.70090 0.21300 -0.25500
C 	C 	0.75460 0.70130 0.55800 -0.24100
C 	C 	0.89590 0.53280 0.59900 -0.18700
C 	C 	0.58170 0.55020 0.92500 -0.19300
C 	C 	0.92600 0.55970 0.12600 -0.06100
C 	C 	0.98000 0.59400 0.06100 0.05600
C 	C 	0.08690 0.59430 0.09200 -0.16500
Cd	Cd	0.71640 0.38493 0.37660 1.18300
N 	N 	0.74100 0.32840 0.60300 -0.18300
N 	N 	0.74140 0.32890 0.16500 -0.19700
N 	N 	0.66540 0.44730 0.16400 -0.16200
N 	N 	0.86860 0.41930 0.38100 -0.18300
N 	N 	0.67560 0.44400 0.59700 -0.20200
N 	N 	0.55210 0.37250 0.42200 -0.22800
C 	C 	0.74350 0.29910 0.71300 -0.22700
C 	C 	0.74540 0.29870 0.05800 -0.28000
C 	C 	0.60410 0.46720 0.09900 -0.25700
C 	C 	0.91830 0.44980 0.42500 -0.18900
C 	C 	0.57400 0.44030 0.62600 -0.05000
C 	C 	0.52000 0.40600 0.56100 0.01800
C 	C 	0.41310 0.40570 0.59200 -0.06200
Cd	Cd	0.78360 0.88493 0.87660 1.19900
N 	N 	0.75900 0.82840 0.10300 -0.19800
N 	N 	0.75860 0.82890 0.66500 -0.19100
N 	N 	0.83460 0.94730 0.66400 -0.16000
N 	N 	0.63140 0.91930 0.88100 -0.17700
N 	N 	0.82440 0.94400 0.09700 -0.21200
N 	N 	0.94790 0.87250 0.92200 -0.18200
C 	C 	0.75650 0.79910 0.21300 -0.25400
C 	C 	0.75460 0.79870 0.55800 -0.24100
C 	C 	0.89590 0.96720 0.59900 -0.15500
C 	C 	0.58170 0.94980 0.92500 -0.16300
C 	C 	0.92600 0.94030 0.12600 -0.04400
C 	C 	0.98000 0.90600 0.06100 0.05100
C 	C 	0.08690 0.90570 0.09200 -0.15200
Cd	Cd	0.71640 0.11507 0.37660 1.18200
N 	N 	0.74100 0.17160 0.60300 -0.18300
N 	N 	0.74140 0.17110 0.16500 -0.19800
N 	N 	0.66540 0.05270 0.16400 -0.16500
N 	N 	0.86860 0.08070 0.38100 -0.18300
N 	N 	0.67560 0.05600 0.59700 -0.21000
N 	N 	0.55210 0.12750 0.42200 -0.22900
C 	C 	0.74350 0.20090 0.71300 -0.22700
C 	C 	0.74540 0.20130 0.05800 -0.28000
C 	C 	0.60410 0.03280 0.09900 -0.27800
C 	C 	0.91830 0.05020 0.42500 -0.20600
C 	C 	0.57400 0.05970 0.62600 -0.06600
C 	C 	0.52000 0.09400 0.56100 0.02200
C 	C 	0.41310 0.09430 0.59200 -0.07200
Cd	Cd	0.21640 0.38493 0.12340 1.16800
N 	N 	0.24100 0.32840 0.89700 -0.16800
N 	N 	0.24140 0.32890 0.33500 -0.20900
N 	N 	0.16540 0.44730 0.33600 -0.16400
N 	N 	0.36860 0.41930 0.11900 -0.18500
N 	N 	0.17560 0.44400 0.90300 -0.19000
N 	N 	0.05210 0.37250 0.07800 -0.27400
C 	C 	0.24350 0.29910 0.78700 -0.24800
C 	C 	0.24540 0.29870 0.44200 -0.26100
C 	C 	0.10410 0.46720 0.40100 -0.26200
C 	C 	0.41830 0.44980 0.07500 -0.26000
C 	C 	0.07400 0.44030 0.87400 -0.06100
C 	C 	0.02000 0.40600 0.93900 -0.01200
C 	C 	0.91310 0.40570 0.90800 0.01800
Cd	Cd	0.28360 0.61507 0.62340 1.18400
N 	N 	0.25900 0.67160 0.39700 -0.18600
N 	N 	0.25860 0.67110 0.83500 -0.20300
N 	N 	0.33460 0.55270 0.83600 -0.16000
N 	N 	0.13140 0.58070 0.61900 -0.17700
N 	N 	0.32440 0.55600 0.40300 -0.21000
N 	N 	0.44790 0.62750 0.57800 -0.22500
C 	C 	0.25650 0.70090 0.28700 -0.27700
C 	C 	0.25460 0.70130 0.94200 -0.21800
C 	C 	0.39590 0.53280 0.90100 -0.19400
C 	C 	0.08170 0.55020 0.57500 -0.25900
C 	C 	0.42600 0.55970 0.37400 -0.07200
C 	C 	0.48000 0.59400 0.43900 0.01800
C 	C 	0.58690 0.59430 0.40800 -0.07800
Ni	Ni	0.24640 0.25000 0.61450 1.04900
Ni	Ni	0.25360 0.75000 0.11450 1.02300
Ni	Ni	0.75360 0.75000 0.38550 1.05100
Ni	Ni	0.74640 0.25000 0.88550 1.07500
Ni	Ni	0.00000 0.00000 0.50000 1.00400
Ni	Ni	0.50000 0.00000 -0.00000 1.01200
Ni	Ni	-0.00000 0.50000 0.50000 1.02500
Ni	Ni	0.50000 0.50000 -0.00000 1.03300
