data_crystal

_cell_length_a 14.18300
_cell_length_b 26.98300
_cell_length_c 7.61500
_cell_angle_alpha 90.00000
_cell_angle_beta  90.00000
_cell_angle_gamma 90.00000

_symmetry_space_group_name_	'P 1'
_symmetry_space_group_name_H-M	'P 1'

loop_
_symmetry_equiv_pos_as_xyz
  x,y,z

loop_
_atom_site_label
_atom_site_type_symbol
_atom_site_fract_x
_atom_site_fract_y
_atom_site_fract_z
_atom_site_charge
Cd	Cd	0.21721 0.11490 0.12333 1.16700
N 	N 	0.24000 0.17110 0.89400 -0.16800
N 	N 	0.24370 0.17120 0.33500 -0.20800
N 	N 	0.36680 0.07960 0.11700 -0.18700
N 	N 	0.17530 0.05620 0.90300 -0.19700
N 	N 	0.05260 0.12650 0.07900 -0.27400
C 	C 	0.24070 0.20090 0.78900 -0.24500
C 	C 	0.24650 0.20110 0.44100 -0.26200
C 	C 	0.41830 0.05000 0.07400 -0.27500
C 	C 	0.07500 0.05780 0.87600 -0.07400
C 	C 	0.02200 0.09420 0.93800 -0.00800
C 	C 	0.91510 0.09290 0.90600 0.00600
N 	N 	0.33450 0.94690 0.83900 -0.15800
C 	C 	0.39680 0.96700 0.90100 -0.16500
Cd	Cd	0.78279 0.61490 0.87667 1.19600
N 	N 	0.76000 0.67110 0.10600 -0.19900
N 	N 	0.75630 0.67120 0.66500 -0.19100
N 	N 	0.63320 0.57960 0.88300 -0.17700
N 	N 	0.82470 0.55620 0.09700 -0.22100
N 	N 	0.94740 0.62650 0.92100 -0.18200
C 	C 	0.75930 0.70090 0.21100 -0.25100
C 	C 	0.75350 0.70110 0.55900 -0.24200
C 	C 	0.58170 0.55000 0.92600 -0.19000
C 	C 	0.92500 0.55780 0.12400 -0.05600
C 	C 	0.97800 0.59420 0.06200 0.05100
C 	C 	0.08490 0.59290 0.09400 -0.16500
N 	N 	0.66550 0.44690 0.16100 -0.16200
C 	C 	0.60320 0.46700 0.09900 -0.25800
Cd	Cd	0.78279 0.88510 0.87667 1.19800
N 	N 	0.76000 0.82890 0.10600 -0.19800
N 	N 	0.75630 0.82880 0.66500 -0.19100
N 	N 	0.63320 0.92040 0.88300 -0.18000
N 	N 	0.82470 0.94380 0.09700 -0.21400
N 	N 	0.94740 0.87350 0.92100 -0.18100
C 	C 	0.75930 0.79910 0.21100 -0.25100
C 	C 	0.75350 0.79890 0.55900 -0.24100
C 	C 	0.58170 0.95000 0.92600 -0.16200
C 	C 	0.92500 0.94220 0.12400 -0.03800
C 	C 	0.97800 0.90580 0.06200 0.04600
C 	C 	0.08490 0.90710 0.09400 -0.15200
N 	N 	0.66550 0.05310 0.16100 -0.16500
C 	C 	0.60320 0.03300 0.09900 -0.27800
Cd	Cd	0.21721 0.38510 0.12333 1.16700
N 	N 	0.24000 0.32890 0.89400 -0.16900
N 	N 	0.24370 0.32880 0.33500 -0.20800
N 	N 	0.36680 0.42040 0.11700 -0.18800
N 	N 	0.17530 0.44380 0.90300 -0.19000
N 	N 	0.05260 0.37350 0.07900 -0.27300
C 	C 	0.24070 0.29910 0.78900 -0.24500
C 	C 	0.24650 0.29890 0.44100 -0.26100
C 	C 	0.41830 0.45000 0.07400 -0.25700
C 	C 	0.07500 0.44220 0.87600 -0.05800
C 	C 	0.02200 0.40580 0.93800 -0.01200
C 	C 	0.91510 0.40710 0.90600 0.01600
N 	N 	0.33450 0.55310 0.83900 -0.15900
C 	C 	0.39680 0.53300 0.90100 -0.19600
Ni	Ni	0.24580 0.25000 0.61390 1.04500
Ni	Ni	0.75420 0.75000 0.38610 1.04600
Ni	Ni	0.50000 0.00000 -0.00000 1.01200
Ni	Ni	0.50000 0.50000 -0.00000 1.03300
N 	N 	0.16550 0.05310 0.33900 -0.16600
C 	C 	0.10320 0.03300 0.40100 -0.28400
Cd	Cd	0.28279 0.88510 0.62333 1.18400
N 	N 	0.26000 0.82890 0.39400 -0.18500
N 	N 	0.25630 0.82880 0.83500 -0.20200
N 	N 	0.13320 0.92040 0.61700 -0.18200
N 	N 	0.32470 0.94380 0.40300 -0.20300
N 	N 	0.44740 0.87350 0.57900 -0.22200
C 	C 	0.25930 0.79910 0.28900 -0.27300
C 	C 	0.25350 0.79890 0.94100 -0.21800
C 	C 	0.08170 0.95000 0.57400 -0.22600
C 	C 	0.42500 0.94220 0.37600 -0.04900
C 	C 	0.47800 0.90580 0.43800 0.01000
C 	C 	0.58490 0.90710 0.40600 -0.06800
N 	N 	0.83450 0.55310 0.66100 -0.16000
C 	C 	0.89680 0.53300 0.59900 -0.18800
Cd	Cd	0.71721 0.38510 0.37667 1.18200
N 	N 	0.74000 0.32890 0.60600 -0.18200
N 	N 	0.74370 0.32880 0.16500 -0.19600
N 	N 	0.86680 0.42040 0.38300 -0.18600
N 	N 	0.67530 0.44380 0.59700 -0.20300
N 	N 	0.55260 0.37350 0.42100 -0.22700
C 	C 	0.74070 0.29910 0.71100 -0.22400
C 	C 	0.74650 0.29890 0.05900 -0.28000
C 	C 	0.91830 0.45000 0.42600 -0.18600
C 	C 	0.57500 0.44220 0.62400 -0.04700
C 	C 	0.52200 0.40580 0.56200 0.01600
C 	C 	0.41510 0.40710 0.59400 -0.06300
N 	N 	0.83450 0.94690 0.66100 -0.15900
C 	C 	0.89680 0.96700 0.59900 -0.15800
Cd	Cd	0.71721 0.11490 0.37667 1.18100
N 	N 	0.74000 0.17110 0.60600 -0.18300
N 	N 	0.74370 0.17120 0.16500 -0.19700
N 	N 	0.86680 0.07960 0.38300 -0.18600
N 	N 	0.67530 0.05620 0.59700 -0.21000
N 	N 	0.55260 0.12650 0.42100 -0.22800
C 	C 	0.74070 0.20090 0.71100 -0.22400
C 	C 	0.74650 0.20110 0.05900 -0.28100
C 	C 	0.91830 0.05000 0.42600 -0.20300
C 	C 	0.57500 0.05780 0.62400 -0.06300
C 	C 	0.52200 0.09420 0.56200 0.02000
C 	C 	0.41510 0.09290 0.59400 -0.07300
N 	N 	0.16550 0.44690 0.33900 -0.16300
C 	C 	0.10320 0.46700 0.40100 -0.26300
Cd	Cd	0.28279 0.61490 0.62333 1.18200
N 	N 	0.26000 0.67110 0.39400 -0.18500
N 	N 	0.25630 0.67120 0.83500 -0.20300
N 	N 	0.13320 0.57960 0.61700 -0.17900
N 	N 	0.32470 0.55620 0.40300 -0.21100
N 	N 	0.44740 0.62650 0.57900 -0.22400
C 	C 	0.25930 0.70090 0.28900 -0.27400
C 	C 	0.25350 0.70110 0.94100 -0.21900
C 	C 	0.08170 0.55000 0.57400 -0.25600
C 	C 	0.42500 0.55780 0.37600 -0.06800
C 	C 	0.47800 0.59420 0.43800 0.01400
C 	C 	0.58490 0.59290 0.40600 -0.07900
Ni	Ni	0.25420 0.75000 0.11390 1.01900
Ni	Ni	0.74580 0.25000 0.88610 1.07100
Ni	Ni	0.00000 0.00000 0.50000 1.00400
Ni	Ni	0.00000 0.50000 0.50000 1.02500
