data_crystal

_cell_length_a 14.06100
_cell_length_b 27.19200
_cell_length_c 7.59000
_cell_angle_alpha 90.00000
_cell_angle_beta  90.00000
_cell_angle_gamma 90.00000

_symmetry_space_group_name_	'P 1'
_symmetry_space_group_name_H-M	'P 1'

loop_
_symmetry_equiv_pos_as_xyz
  x,y,z

loop_
_atom_site_label
_atom_site_type_symbol
_atom_site_fract_x
_atom_site_fract_y
_atom_site_fract_z
_atom_site_charge
Cd	Cd	0.21473 0.11592 0.12150 1.16800
N 	N 	0.24000 0.17200 0.89300 -0.16800
N 	N 	0.24700 0.17240 0.32900 -0.20800
N 	N 	0.16000 0.05670 0.33900 -0.16700
N 	N 	0.36100 0.07690 0.11600 -0.18900
N 	N 	0.17200 0.05690 0.90000 -0.19600
N 	N 	0.05100 0.12710 0.07500 -0.27600
C 	C 	0.24300 0.20190 0.78600 -0.24900
C 	C 	0.25100 0.20140 0.43600 -0.25800
C 	C 	0.10100 0.03550 0.40300 -0.28000
C 	C 	0.41500 0.04850 0.07200 -0.27400
C 	C 	0.07300 0.05700 0.88000 -0.06500
C 	C 	0.01600 0.09100 0.94100 -0.01800
C 	C 	0.91000 0.09220 0.90900 0.00800
Cd	Cd	0.28527 0.88408 0.62150 1.18500
N 	N 	0.26000 0.82800 0.39300 -0.18500
N 	N 	0.25300 0.82760 0.82900 -0.20300
N 	N 	0.34000 0.94330 0.83900 -0.16100
N 	N 	0.13900 0.92310 0.61600 -0.18200
N 	N 	0.32800 0.94310 0.40000 -0.20200
N 	N 	0.44900 0.87290 0.57500 -0.22600
C 	C 	0.25700 0.79810 0.28600 -0.27800
C 	C 	0.24900 0.79860 0.93600 -0.21600
C 	C 	0.39900 0.96450 0.90300 -0.16200
C 	C 	0.08500 0.95150 0.57200 -0.22600
C 	C 	0.42700 0.94300 0.38000 -0.04400
C 	C 	0.48400 0.90900 0.44100 0.00600
C 	C 	0.59000 0.90780 0.40900 -0.06700
Cd	Cd	0.78527 0.61592 0.87850 1.19700
N 	N 	0.76000 0.67200 0.10700 -0.19900
N 	N 	0.75300 0.67240 0.67100 -0.19100
N 	N 	0.84000 0.55670 0.66100 -0.16200
N 	N 	0.63900 0.57690 0.88400 -0.17800
N 	N 	0.82800 0.55690 0.10000 -0.21900
N 	N 	0.94900 0.62710 0.92500 -0.18500
C 	C 	0.75700 0.70190 0.21400 -0.25600
C 	C 	0.74900 0.70140 0.56400 -0.23900
C 	C 	0.89900 0.53550 0.59700 -0.18500
C 	C 	0.58500 0.54850 0.92800 -0.19000
C 	C 	0.92700 0.55700 0.12000 -0.05500
C 	C 	0.98400 0.59100 0.05900 0.05200
C 	C 	0.09000 0.59220 0.09100 -0.16600
Cd	Cd	0.71473 0.38408 0.37850 1.18300
N 	N 	0.74000 0.32800 0.60700 -0.18200
N 	N 	0.74700 0.32760 0.17100 -0.19600
N 	N 	0.66000 0.44330 0.16100 -0.16400
N 	N 	0.86100 0.42310 0.38400 -0.18700
N 	N 	0.67200 0.44310 0.60000 -0.20100
N 	N 	0.55100 0.37290 0.42500 -0.23000
C 	C 	0.74300 0.29810 0.71400 -0.22800
C 	C 	0.75100 0.29860 0.06400 -0.27700
C 	C 	0.60100 0.46450 0.09700 -0.25600
C 	C 	0.91500 0.45150 0.42800 -0.18600
C 	C 	0.57300 0.44300 0.62000 -0.04200
C 	C 	0.51600 0.40900 0.55900 0.01100
C 	C 	0.41000 0.40780 0.59100 -0.06200
Cd	Cd	0.78527 0.88408 0.87850 1.19800
N 	N 	0.76000 0.82800 0.10700 -0.19800
N 	N 	0.75300 0.82760 0.67100 -0.19100
N 	N 	0.84000 0.94330 0.66100 -0.16200
N 	N 	0.63900 0.92310 0.88400 -0.18100
N 	N 	0.82800 0.94310 0.10000 -0.21200
N 	N 	0.94900 0.87290 0.92500 -0.18500
C 	C 	0.75700 0.79810 0.21400 -0.25600
C 	C 	0.74900 0.79860 0.56400 -0.23900
C 	C 	0.89900 0.96450 0.59700 -0.15500
C 	C 	0.58500 0.95150 0.92800 -0.16100
C 	C 	0.92700 0.94300 0.12000 -0.03700
C 	C 	0.98400 0.90900 0.05900 0.04800
C 	C 	0.09000 0.90780 0.09100 -0.15300
Cd	Cd	0.71473 0.11592 0.37850 1.18200
N 	N 	0.74000 0.17200 0.60700 -0.18300
N 	N 	0.74700 0.17240 0.17100 -0.19600
N 	N 	0.66000 0.05670 0.16100 -0.16600
N 	N 	0.86100 0.07690 0.38400 -0.18800
N 	N 	0.67200 0.05690 0.60000 -0.20800
N 	N 	0.55100 0.12710 0.42500 -0.23100
C 	C 	0.74300 0.20190 0.71400 -0.22800
C 	C 	0.75100 0.20140 0.06400 -0.27700
C 	C 	0.60100 0.03550 0.09700 -0.27500
C 	C 	0.91500 0.04850 0.42800 -0.20300
C 	C 	0.57300 0.05700 0.62000 -0.05700
C 	C 	0.51600 0.09100 0.55900 0.01500
C 	C 	0.41000 0.09220 0.59100 -0.07200
Cd	Cd	0.21473 0.38408 0.12150 1.16800
N 	N 	0.24000 0.32800 0.89300 -0.16900
N 	N 	0.24700 0.32760 0.32900 -0.20800
N 	N 	0.16000 0.44330 0.33900 -0.16500
N 	N 	0.36100 0.42310 0.11600 -0.18900
N 	N 	0.17200 0.44310 0.90000 -0.19000
N 	N 	0.05100 0.37290 0.07500 -0.27500
C 	C 	0.24300 0.29810 0.78600 -0.24900
C 	C 	0.25100 0.29860 0.43600 -0.25800
C 	C 	0.10100 0.46450 0.40300 -0.26100
C 	C 	0.41500 0.45150 0.07200 -0.25700
C 	C 	0.07300 0.44300 0.88000 -0.04900
C 	C 	0.01600 0.40900 0.94100 -0.02200
C 	C 	0.91000 0.40780 0.90900 0.01800
Cd	Cd	0.28527 0.61592 0.62150 1.18300
N 	N 	0.26000 0.67200 0.39300 -0.18600
N 	N 	0.25300 0.67240 0.82900 -0.20300
N 	N 	0.34000 0.55670 0.83900 -0.16100
N 	N 	0.13900 0.57690 0.61600 -0.18000
N 	N 	0.32800 0.55690 0.40000 -0.20900
N 	N 	0.44900 0.62710 0.57500 -0.22700
C 	C 	0.25700 0.70190 0.28600 -0.27800
C 	C 	0.24900 0.70140 0.93600 -0.21600
C 	C 	0.39900 0.53550 0.90300 -0.19300
C 	C 	0.08500 0.54850 0.57200 -0.25500
C 	C 	0.42700 0.55700 0.38000 -0.06200
C 	C 	0.48400 0.59100 0.44100 0.01000
C 	C 	0.59000 0.59220 0.40900 -0.07900
Ni	Ni	0.25010 0.25000 0.61040 1.04600
Ni	Ni	0.24990 0.75000 0.11040 1.01900
Ni	Ni	0.74990 0.75000 0.38960 1.04700
Ni	Ni	0.75010 0.25000 0.88960 1.07200
Ni	Ni	0.00000 0.00000 0.50000 1.00500
Ni	Ni	0.50000 0.00000 -0.00000 1.01200
Ni	Ni	0.00000 0.50000 0.50000 1.02500
Ni	Ni	0.50000 0.50000 -0.00000 1.03300
