data_crystal

_cell_length_a 17.95720
_cell_length_b 17.95720
_cell_length_c 17.95720
_cell_angle_alpha 96.28130
_cell_angle_beta  96.28130
_cell_angle_gamma 96.28130

_symmetry_space_group_name_	'P 1'
_symmetry_space_group_name_H-M	'P 1'

loop_
_symmetry_equiv_pos_as_xyz
  x,y,z

loop_
_atom_site_label
_atom_site_type_symbol
_atom_site_fract_x
_atom_site_fract_y
_atom_site_fract_z
_atom_site_charge
Cd	Cd	0.97549 0.49438 0.68799 1.21700
Cd	Cd	0.12597 0.12597 0.12597 1.19900
Cd	Cd	0.02451 0.50562 0.31201 1.18500
Cd	Cd	0.49438 0.68799 0.97549 1.21600
Cd	Cd	0.00000 0.50000 0.50000 1.23000
Cd	Cd	0.50562 0.31201 0.02451 1.18500
Cd	Cd	0.68799 0.97549 0.49438 1.21600
Cd	Cd	0.31201 0.02451 0.50562 1.18500
Cd	Cd	-0.00000 0.00000 -0.00000 1.19900
Cd	Cd	0.50000 0.50000 -0.00000 1.23000
Cd	Cd	0.87403 0.87403 0.87403 1.20400
Cd	Cd	0.50000 0.00000 0.50000 1.23000
H 	H 	0.36810 0.47090 0.61710 0.12400
H 	H 	0.92450 0.92010 0.15870 0.02200
H 	H 	0.50650 0.62790 0.56700 -0.00500
H 	H 	0.26940 0.96910 0.74590 0.06900
H 	H 	0.28930 0.82980 0.66460 0.12400
H 	H 	0.64040 0.76680 0.35640 0.03600
H 	H 	0.89830 0.60160 0.14750 0.09900
H 	H 	0.62790 0.56700 0.50650 -0.00500
H 	H 	0.63190 0.52910 0.38290 0.12500
H 	H 	0.32310 0.79360 0.37890 0.04600
H 	H 	0.14750 0.89830 0.60160 0.09900
H 	H 	0.73380 0.03160 0.77190 0.06000
H 	H 	0.60160 0.14750 0.89830 0.09900
H 	H 	0.62110 0.67690 0.20640 0.04500
H 	H 	0.96840 0.22810 0.26620 0.08100
H 	H 	0.77190 0.73380 0.03160 0.06000
H 	H 	0.17870 0.86030 0.37890 0.04400
H 	H 	0.73060 0.03090 0.25410 0.17500
H 	H 	0.79360 0.37890 0.32310 0.04600
H 	H 	0.11700 0.19240 0.79680 -0.05000
H 	H 	0.57290 0.88550 0.28960 0.05200
H 	H 	0.56700 0.50650 0.62790 -0.00500
H 	H 	0.33720 0.49050 0.10330 0.08300
H 	H 	0.17020 0.33540 0.71070 0.12000
H 	H 	0.70700 0.08440 0.88840 0.01200
H 	H 	0.10330 0.33720 0.49050 0.08300
H 	H 	0.33980 0.68710 0.84140 0.01800
H 	H 	0.15860 0.66020 0.31290 0.00700
H 	H 	0.35960 0.23320 0.64360 0.03600
H 	H 	0.69660 0.79460 0.17430 0.03900
H 	H 	0.96910 0.74590 0.26940 0.06900
H 	H 	0.70560 0.17040 0.54710 0.02900
H 	H 	0.37890 0.32310 0.79360 0.04600
H 	H 	0.66020 0.31290 0.15860 0.00700
H 	H 	0.92010 0.15870 0.92450 0.02200
H 	H 	0.18870 0.69540 0.47530 0.05100
H 	H 	0.20540 0.82570 0.30340 0.05400
H 	H 	0.54190 0.09440 0.67450 0.09000
H 	H 	0.45290 0.29440 0.82960 0.03200
H 	H 	0.03160 0.77190 0.73380 0.06000
H 	H 	0.42710 0.11450 0.71040 0.03900
H 	H 	0.56520 0.17390 0.55380 0.09400
H 	H 	0.71070 0.17020 0.33540 0.12000
H 	H 	0.82960 0.45290 0.29440 0.03200
H 	H 	0.47530 0.18870 0.69540 0.05100
H 	H 	0.10170 0.39840 0.85250 0.09500
H 	H 	0.79460 0.17430 0.69660 0.03900
H 	H 	0.50950 0.89670 0.66280 0.10000
H 	H 	0.39840 0.85250 0.10170 0.09500
H 	H 	0.69540 0.47530 0.18870 0.05100
H 	H 	0.72990 0.78020 0.44640 0.12000
H 	H 	0.55360 0.27010 0.21980 0.11500
H 	H 	0.27570 0.44980 0.40300 0.07500
H 	H 	0.55380 0.56520 0.17390 0.09400
H 	H 	0.08360 0.73240 0.86900 0.15300
H 	H 	0.84130 0.07550 0.07990 0.12900
H 	H 	0.26620 0.96840 0.22810 0.08100
H 	H 	0.66460 0.28930 0.82980 0.12400
H 	H 	0.49350 0.37210 0.43300 -0.00300
H 	H 	0.44640 0.72990 0.78020 0.12000
H 	H 	0.40300 0.27570 0.44980 0.07500
H 	H 	0.15870 0.92450 0.92010 0.02200
H 	H 	0.20320 0.88300 0.80760 0.06600
H 	H 	0.68710 0.84140 0.33980 0.01800
H 	H 	0.44980 0.40300 0.27570 0.07500
H 	H 	0.38290 0.63190 0.52910 0.12500
H 	H 	0.64360 0.35960 0.23320 0.03600
H 	H 	0.33540 0.71070 0.17020 0.12000
H 	H 	0.73240 0.86900 0.08360 0.15300
H 	H 	0.86030 0.37890 0.17870 0.04400
H 	H 	0.11160 0.29300 0.91560 0.00900
H 	H 	0.90560 0.32550 0.45810 0.10000
H 	H 	0.13100 0.91640 0.26760 0.06800
H 	H 	0.29300 0.91560 0.11160 0.00900
H 	H 	0.35640 0.64040 0.76680 0.03600
H 	H 	0.19180 0.25500 0.45840 -0.02000
H 	H 	0.20640 0.62110 0.67690 0.04500
H 	H 	0.79680 0.11700 0.19240 -0.05000
H 	H 	0.17040 0.54710 0.70560 0.02900
H 	H 	0.84140 0.33980 0.68710 0.01800
H 	H 	0.67450 0.54190 0.09440 0.09000
H 	H 	0.82980 0.66460 0.28930 0.12400
H 	H 	0.52470 0.81130 0.30460 0.05200
H 	H 	0.29440 0.82960 0.45290 0.03200
H 	H 	0.11450 0.71040 0.42710 0.03900
H 	H 	0.91640 0.26760 0.13100 0.06800
H 	H 	0.71040 0.42710 0.11450 0.03900
H 	H 	0.25410 0.73060 0.03090 0.17500
H 	H 	0.74500 0.54160 0.80820 -0.01200
H 	H 	0.47090 0.61710 0.36810 0.12400
H 	H 	0.54160 0.80820 0.74500 -0.01200
H 	H 	0.86900 0.08360 0.73240 0.15300
H 	H 	0.37210 0.43300 0.49350 -0.00300
H 	H 	0.30340 0.20540 0.82570 0.05400
H 	H 	0.21980 0.55360 0.27010 0.11500
H 	H 	0.17390 0.55380 0.56520 0.09400
H 	H 	0.45810 0.90560 0.32550 0.10000
H 	H 	0.23320 0.64360 0.35960 0.03600
H 	H 	0.13970 0.62110 0.82130 0.02900
H 	H 	0.17430 0.69660 0.79460 0.03900
H 	H 	0.07990 0.84130 0.07550 0.12900
H 	H 	0.66280 0.50950 0.89670 0.10000
H 	H 	0.25500 0.45840 0.19180 -0.02000
H 	H 	0.43300 0.49350 0.37210 -0.00300
H 	H 	0.76680 0.35640 0.64040 0.03600
H 	H 	0.37890 0.17870 0.86030 0.04400
H 	H 	0.78020 0.44640 0.72990 0.12000
H 	H 	0.82130 0.13970 0.62110 0.02900
H 	H 	0.88840 0.70700 0.08440 0.01200
H 	H 	0.82570 0.30340 0.20540 0.05400
H 	H 	0.07550 0.07990 0.84130 0.12900
H 	H 	0.22810 0.26620 0.96840 0.08100
H 	H 	0.61710 0.36810 0.47090 0.12400
H 	H 	0.30460 0.52470 0.81130 0.05200
H 	H 	0.43480 0.82610 0.44620 0.09600
H 	H 	0.09440 0.67450 0.54190 0.09000
H 	H 	0.31290 0.15860 0.66020 0.00700
H 	H 	0.32550 0.45810 0.90560 0.10000
H 	H 	0.59700 0.72430 0.55020 0.08000
H 	H 	0.45840 0.19180 0.25500 -0.02000
H 	H 	0.52910 0.38290 0.63190 0.12500
H 	H 	0.82610 0.44620 0.43480 0.09600
H 	H 	0.88300 0.80760 0.20320 0.06600
H 	H 	0.08440 0.88840 0.70700 0.01200
H 	H 	0.28960 0.57290 0.88550 0.05200
H 	H 	0.27010 0.21980 0.55360 0.11500
H 	H 	0.67690 0.20640 0.62110 0.04500
H 	H 	0.44620 0.43480 0.82610 0.09600
H 	H 	0.54710 0.70560 0.17040 0.02900
H 	H 	0.80760 0.20320 0.88300 0.06600
H 	H 	0.26760 0.13100 0.91640 0.06800
H 	H 	0.72430 0.55020 0.59700 0.08000
H 	H 	0.88550 0.28960 0.57290 0.05200
H 	H 	0.55020 0.59700 0.72430 0.08000
H 	H 	0.80820 0.74500 0.54160 -0.01200
H 	H 	0.91560 0.11160 0.29300 0.00900
H 	H 	0.62110 0.82130 0.13970 0.02900
H 	H 	0.85250 0.10170 0.39840 0.09500
H 	H 	0.89670 0.66280 0.50950 0.10000
H 	H 	0.81130 0.30460 0.52470 0.05200
H 	H 	0.74590 0.26940 0.96910 0.06900
H 	H 	0.49050 0.10330 0.33720 0.08300
H 	H 	0.19240 0.79680 0.11700 -0.05000
H 	H 	0.03090 0.25410 0.73060 0.17500
C 	C 	0.14830 0.38970 0.87580 -0.19300
C 	C 	0.34480 0.17740 0.81440 -0.00600
C 	C 	0.21200 0.43950 0.87450 0.21700
C 	C 	0.27200 0.64090 0.22840 0.24700
C 	C 	0.67960 0.47180 0.86540 -0.13400
C 	C 	0.25370 0.08150 0.89430 -0.04400
C 	C 	0.87450 0.21200 0.43950 0.21700
C 	C 	0.92540 0.60330 0.37890 0.30200
C 	C 	0.24560 0.61430 0.78910 0.00800
C 	C 	0.34270 0.60170 0.12910 0.03500
C 	C 	0.50310 0.47440 0.21520 -0.00000
C 	C 	0.39830 0.87090 0.65730 0.05000
C 	C 	0.78590 0.47070 0.44930 -0.18400
C 	C 	0.95780 0.89700 0.18930 0.08200
C 	C 	0.65450 0.02780 0.63570 0.31400
C 	C 	0.05420 0.99910 0.18040 0.44300
C 	C 	0.21090 0.75440 0.38570 0.01300
C 	C 	0.94490 0.22420 0.30950 -0.10000
C 	C 	0.52560 0.78480 0.49690 0.00800
C 	C 	0.03180 0.93120 0.21010 -0.17500
C 	C 	0.89700 0.18930 0.95780 0.08200
C 	C 	0.53270 0.54660 0.72590 -0.11900
C 	C 	0.94580 0.00090 0.81960 0.14300
C 	C 	0.96820 0.06880 0.78990 0.17100
C 	C 	0.21420 0.93320 0.82860 -0.07900
C 	C 	0.71750 0.57560 0.09300 -0.15400
C 	C 	0.85170 0.61030 0.12420 -0.18800
C 	C 	0.94160 0.17400 0.72390 0.38100
C 	C 	0.21660 0.58120 0.70750 0.01500
C 	C 	0.60170 0.12910 0.34270 0.03500
C 	C 	0.37890 0.92540 0.60330 0.30200
C 	C 	0.84900 0.48630 0.58060 0.29400
C 	C 	0.98430 0.79310 0.25530 -0.03500
C 	C 	0.51370 0.41940 0.15100 0.30100
C 	C 	0.34550 0.97220 0.36430 0.31600
C 	C 	0.82600 0.27610 0.05840 0.09500
C 	C 	0.76640 0.74950 0.43430 -0.25000
C 	C 	0.55160 0.83490 0.26760 0.00600
C 	C 	0.72940 0.48040 0.39680 0.23000
C 	C 	0.38570 0.21090 0.75440 0.01300
C 	C 	0.30950 0.94490 0.22420 -0.10000
C 	C 	0.43430 0.76640 0.74950 -0.25000
C 	C 	0.65520 0.82260 0.18560 0.03200
C 	C 	0.65730 0.39830 0.87090 0.05000
C 	C 	0.05840 0.82600 0.27610 0.09500
C 	C 	0.63890 0.05940 0.71150 -0.02000
C 	C 	0.81200 0.72830 0.49150 0.11700
C 	C 	0.41940 0.15100 0.51370 0.30100
C 	C 	0.58060 0.84900 0.48630 0.29400
C 	C 	0.67430 0.08740 0.84520 0.04800
C 	C 	0.44930 0.78590 0.47070 -0.18400
C 	C 	0.58120 0.70750 0.21660 0.01500
C 	C 	0.50800 0.33160 0.45690 0.09000
C 	C 	0.09300 0.71750 0.57560 -0.15400
C 	C 	0.50850 0.18800 0.27170 0.10400
C 	C 	0.44840 0.16510 0.73240 0.00700
C 	C 	0.54310 0.49200 0.66840 0.09600
C 	C 	0.07460 0.39670 0.62110 0.30700
C 	C 	0.82260 0.18560 0.65520 0.03200
C 	C 	0.15100 0.51370 0.41940 0.30100
C 	C 	0.47070 0.44930 0.78590 -0.18400
C 	C 	0.52930 0.55070 0.21410 -0.17900
C 	C 	0.49150 0.81200 0.72830 0.11700
C 	C 	0.17400 0.72390 0.94160 0.38100
C 	C 	0.31970 0.66050 0.17490 -0.18700
C 	C 	0.41880 0.29250 0.78340 0.01200
C 	C 	0.66740 0.78990 0.31920 0.03200
C 	C 	0.15480 0.32570 0.91260 0.06400
C 	C 	0.26760 0.55160 0.83490 0.00600
C 	C 	0.20690 0.74470 0.01570 -0.39500
C 	C 	0.17140 0.78580 0.06680 0.24100
C 	C 	0.27410 0.46730 0.45340 -0.11200
C 	C 	0.62110 0.07460 0.39670 0.30700
C 	C 	0.78990 0.96820 0.06880 0.17100
C 	C 	0.46730 0.45340 0.27410 -0.11200
C 	C 	0.38970 0.87580 0.14830 -0.19300
C 	C 	0.12550 0.78800 0.56050 0.20800
C 	C 	0.68080 0.33260 0.21010 0.03200
C 	C 	0.61430 0.78910 0.24560 0.00800
C 	C 	0.12910 0.34270 0.60170 0.03500
C 	C 	0.77580 0.69050 0.05510 -0.09200
C 	C 	0.33950 0.82510 0.68030 -0.19000
C 	C 	0.74950 0.43430 0.76640 -0.25000
C 	C 	0.82510 0.68030 0.33950 -0.19000
C 	C 	0.78910 0.24560 0.61430 0.00800
C 	C 	0.72830 0.49150 0.81200 0.11700
C 	C 	0.28850 0.36110 0.94060 -0.00100
C 	C 	0.66840 0.54310 0.49200 0.09600
C 	C 	0.56050 0.12550 0.78800 0.20800
C 	C 	0.39680 0.72940 0.48040 0.23000
C 	C 	0.81070 0.04220 0.10300 -0.29700
C 	C 	0.25530 0.98430 0.79310 -0.03500
C 	C 	0.49200 0.66840 0.54310 0.09600
C 	C 	0.18930 0.95780 0.89700 0.08200
C 	C 	0.69050 0.05510 0.77580 -0.09200
C 	C 	0.77160 0.72800 0.35910 0.25400
C 	C 	0.47180 0.86540 0.67960 -0.13400
C 	C 	0.36110 0.94060 0.28850 -0.00100
C 	C 	0.27170 0.50850 0.18800 0.10400
C 	C 	0.00090 0.81960 0.94580 0.14300
C 	C 	0.91850 0.10570 0.74630 -0.32200
C 	C 	0.22420 0.30950 0.94490 -0.10000
C 	C 	0.93320 0.82860 0.21420 -0.07900
C 	C 	0.25050 0.56570 0.23360 -0.24900
C 	C 	0.78580 0.06680 0.17140 0.24100
C 	C 	0.08150 0.89430 0.25370 -0.04400
C 	C 	0.66980 0.51970 0.41890 -0.21800
C 	C 	0.74470 0.01570 0.20690 -0.39500
C 	C 	0.93120 0.21010 0.03180 -0.17500
C 	C 	0.55070 0.21410 0.52930 -0.17900
C 	C 	0.42440 0.90700 0.28250 -0.15800
C 	C 	0.12420 0.85170 0.61030 -0.18800
C 	C 	0.72590 0.53270 0.54660 -0.11900
C 	C 	0.45340 0.27410 0.46730 -0.11200
C 	C 	0.66050 0.17490 0.31970 -0.18700
C 	C 	0.31920 0.66740 0.78990 0.03200
C 	C 	0.81960 0.94580 0.00090 0.14300
C 	C 	0.32040 0.52820 0.13460 -0.13000
C 	C 	0.35910 0.77160 0.72800 0.25400
C 	C 	0.81440 0.34480 0.17740 -0.00600
C 	C 	0.60320 0.27060 0.51960 0.22700
C 	C 	0.18040 0.05420 0.99910 0.44300
C 	C 	0.86540 0.67960 0.47180 -0.13400
C 	C 	0.72800 0.35910 0.77160 0.25400
C 	C 	0.89430 0.25370 0.08150 -0.04400
C 	C 	0.39670 0.62110 0.07460 0.30700
C 	C 	0.45690 0.50800 0.33160 0.09000
C 	C 	0.21010 0.03180 0.93120 -0.17500
C 	C 	0.33160 0.45690 0.50800 0.09000
C 	C 	0.48030 0.58110 0.33020 -0.21400
C 	C 	0.18560 0.65520 0.82260 0.03200
C 	C 	0.56570 0.23360 0.25050 -0.24900
C 	C 	0.47440 0.21520 0.50310 -0.00000
C 	C 	0.73240 0.44840 0.16510 0.00700
C 	C 	0.33260 0.21010 0.68080 0.03200
C 	C 	0.61030 0.12420 0.85170 -0.18800
C 	C 	0.71150 0.63890 0.05940 -0.02000
C 	C 	0.06880 0.78990 0.96820 0.17100
C 	C 	0.05510 0.77580 0.69050 -0.09200
C 	C 	0.90700 0.28250 0.42440 -0.15800
C 	C 	0.10300 0.81070 0.04220 -0.29700
C 	C 	0.22840 0.27200 0.64090 0.24700
C 	C 	0.06680 0.17140 0.78580 0.24100
C 	C 	0.02780 0.63570 0.65450 0.31400
C 	C 	0.79310 0.25530 0.98430 -0.03500
C 	C 	0.78480 0.49690 0.52560 0.00800
C 	C 	0.27060 0.51960 0.60320 0.22700
C 	C 	0.33020 0.48030 0.58110 -0.21400
C 	C 	0.83490 0.26760 0.55160 0.00600
C 	C 	0.68030 0.33950 0.82510 -0.19000
C 	C 	0.41890 0.66980 0.51970 -0.21800
C 	C 	0.87580 0.14830 0.38970 -0.19300
C 	C 	0.57560 0.09300 0.71750 -0.15400
C 	C 	0.82860 0.21420 0.93320 -0.07900
C 	C 	0.13460 0.32040 0.52820 -0.13000
C 	C 	0.78990 0.31920 0.66740 0.03200
C 	C 	0.54660 0.72590 0.53270 -0.11900
C 	C 	0.64090 0.22840 0.27200 0.24700
C 	C 	0.70750 0.21660 0.58120 0.01500
C 	C 	0.51970 0.41890 0.66980 -0.21800
C 	C 	0.74630 0.91850 0.10570 -0.32200
C 	C 	0.87090 0.65730 0.39830 0.05000
C 	C 	0.05940 0.71150 0.63890 -0.02000
C 	C 	0.17740 0.81440 0.34480 -0.00600
C 	C 	0.97220 0.36430 0.34550 0.31600
C 	C 	0.78340 0.41880 0.29250 0.01200
C 	C 	0.10570 0.74630 0.91850 -0.32200
C 	C 	0.48630 0.58060 0.84900 0.29400
C 	C 	0.21410 0.52930 0.55070 -0.17900
C 	C 	0.91260 0.15480 0.32570 0.06400
C 	C 	0.04220 0.10300 0.81070 -0.29700
C 	C 	0.28250 0.42440 0.90700 -0.15800
C 	C 	0.94060 0.28850 0.36110 -0.00100
C 	C 	0.18800 0.27170 0.50850 0.10400
C 	C 	0.43950 0.87450 0.21200 0.21700
C 	C 	0.27610 0.05840 0.82600 0.09500
C 	C 	0.84520 0.67430 0.08740 0.04800
C 	C 	0.75440 0.38570 0.21090 0.01300
C 	C 	0.72390 0.94160 0.17400 0.38100
C 	C 	0.21520 0.50310 0.47440 -0.00000
C 	C 	0.23360 0.25050 0.56570 -0.24900
C 	C 	0.99910 0.18040 0.05420 0.44300
C 	C 	0.78800 0.56050 0.12550 0.20800
C 	C 	0.36430 0.34550 0.97220 0.31600
C 	C 	0.52820 0.13460 0.32040 -0.13000
C 	C 	0.16510 0.73240 0.44840 0.00700
C 	C 	0.01570 0.20690 0.74470 -0.39500
C 	C 	0.51960 0.60320 0.27060 0.22700
C 	C 	0.49690 0.52560 0.78480 0.00800
C 	C 	0.48040 0.39680 0.72940 0.23000
C 	C 	0.60330 0.37890 0.92540 0.30200
C 	C 	0.17490 0.31970 0.66050 -0.18700
C 	C 	0.08740 0.84520 0.67430 0.04800
C 	C 	0.58110 0.33020 0.48030 -0.21400
C 	C 	0.63570 0.65450 0.02780 0.31400
C 	C 	0.32570 0.91260 0.15480 0.06400
C 	C 	0.29250 0.78340 0.41880 0.01200
C 	C 	0.21010 0.68080 0.33260 0.03200
O 	O 	0.21590 0.68310 0.89910 -0.26800
O 	O 	0.67940 0.05300 0.40440 -0.46500
O 	O 	0.98780 0.37640 0.28300 -0.39400
O 	O 	0.35140 0.14810 0.48770 -0.42000
O 	O 	0.42460 0.38830 0.96150 -0.48300
O 	O 	0.89910 0.21590 0.68310 -0.26800
O 	O 	0.12840 0.01290 0.02280 -0.55100
O 	O 	0.90290 0.45240 0.56030 -0.46600
O 	O 	0.09710 0.54760 0.43970 -0.49100
O 	O 	0.02280 0.12840 0.01290 -0.55100
O 	O 	0.30100 0.72750 0.74830 -0.24300
O 	O 	0.87160 0.98710 0.97720 -0.36800
O 	O 	0.79860 0.49880 0.16190 -0.23200
O 	O 	0.71700 0.01220 0.62360 -0.42200
O 	O 	0.04670 0.41040 0.54860 -0.44200
O 	O 	0.41040 0.54860 0.04670 -0.44200
O 	O 	0.68310 0.89910 0.21590 -0.26800
O 	O 	0.16190 0.79860 0.49880 -0.23200
O 	O 	0.45140 0.95330 0.58960 -0.40900
O 	O 	0.83810 0.20140 0.50120 -0.23200
O 	O 	0.45860 0.31960 0.72490 -0.22700
O 	O 	0.27250 0.25170 0.69900 -0.24400
O 	O 	0.45240 0.56030 0.90290 -0.46600
O 	O 	0.25170 0.69900 0.27250 -0.24400
O 	O 	0.01220 0.62360 0.71700 -0.42200
O 	O 	0.78410 0.31690 0.10090 -0.21000
O 	O 	0.38830 0.96150 0.42460 -0.48300
O 	O 	0.14810 0.48770 0.35140 -0.42000
O 	O 	0.54140 0.68040 0.27510 -0.22700
O 	O 	0.56030 0.90290 0.45240 -0.46600
O 	O 	0.20480 0.11960 0.03530 -0.47700
O 	O 	0.11960 0.03530 0.20480 -0.47700
O 	O 	0.79520 0.88040 0.96470 -0.33700
O 	O 	0.31960 0.72490 0.45860 -0.22700
O 	O 	0.05300 0.40440 0.67940 -0.46500
O 	O 	0.94700 0.59560 0.32060 -0.43500
O 	O 	0.40440 0.67940 0.05300 -0.46500
O 	O 	0.59560 0.32060 0.94700 -0.43500
O 	O 	0.37640 0.28300 0.98780 -0.39400
O 	O 	0.97720 0.87160 0.98710 -0.36800
O 	O 	0.68040 0.27510 0.54140 -0.22700
O 	O 	0.28300 0.98780 0.37640 -0.39400
O 	O 	0.10090 0.78410 0.31690 -0.21000
O 	O 	0.49880 0.16190 0.79860 -0.23200
O 	O 	0.58960 0.45140 0.95330 -0.40900
O 	O 	0.62360 0.71700 0.01220 -0.42200
O 	O 	0.32060 0.94700 0.59560 -0.43500
O 	O 	0.72490 0.45860 0.31960 -0.22700
O 	O 	0.85190 0.51230 0.64860 -0.40100
O 	O 	0.96150 0.42460 0.38830 -0.48300
O 	O 	0.27510 0.54140 0.68040 -0.22700
O 	O 	0.43970 0.09710 0.54760 -0.49100
O 	O 	0.69900 0.27250 0.25170 -0.24400
O 	O 	0.74830 0.30100 0.72750 -0.24300
O 	O 	0.50120 0.83810 0.20140 -0.23200
O 	O 	0.96470 0.79520 0.88040 -0.33700
O 	O 	0.64860 0.85190 0.51230 -0.40100
O 	O 	0.03530 0.20480 0.11960 -0.47700
O 	O 	0.48770 0.35140 0.14810 -0.42000
O 	O 	0.98710 0.97720 0.87160 -0.36800
O 	O 	0.54760 0.43970 0.09710 -0.49100
O 	O 	0.31690 0.10090 0.78410 -0.21000
O 	O 	0.61170 0.03850 0.57540 -0.50800
O 	O 	0.01290 0.02280 0.12840 -0.55100
O 	O 	0.03850 0.57540 0.61170 -0.50800
O 	O 	0.20140 0.50120 0.83810 -0.23200
O 	O 	0.54860 0.04670 0.41040 -0.44200
O 	O 	0.57540 0.61170 0.03850 -0.50800
O 	O 	0.88040 0.96470 0.79520 -0.33700
O 	O 	0.95330 0.58960 0.45140 -0.40900
O 	O 	0.51230 0.64860 0.85190 -0.40100
O 	O 	0.72750 0.74830 0.30100 -0.24300
