data_crystal

_cell_length_a 16.25270
_cell_length_b 12.35880
_cell_length_c 17.44710
_cell_angle_alpha 90.00000
_cell_angle_beta  114.65700
_cell_angle_gamma 90.00000

_symmetry_space_group_name_	'P 1'
_symmetry_space_group_name_H-M	'P 1'

loop_
_symmetry_equiv_pos_as_xyz
  x,y,z

loop_
_atom_site_label
_atom_site_type_symbol
_atom_site_fract_x
_atom_site_fract_y
_atom_site_fract_z
_atom_site_charge
Cu	Cu	0.38111 0.39912 0.12487 0.79100
Cu	Cu	0.46858 0.33072 0.04226 0.79200
Cu	Cu	0.92410 0.38380 0.07140 0.43300
N 	N 	0.02890 0.37460 0.04950 -0.29800
N 	N 	0.27410 0.36360 0.02180 -0.29200
N 	N 	0.35450 0.30730 0.94690 -0.29000
N 	N 	0.36990 0.18900 0.72650 -0.24400
N 	N 	0.50420 0.69280 0.38010 -0.26200
N 	N 	0.49010 0.48770 0.18250 -0.28900
N 	N 	0.56960 0.42250 0.10820 -0.29700
N 	N 	0.81350 0.39160 0.08060 -0.29400
C 	C 	0.09740 0.44080 0.09090 0.09500
H 	H 	0.09080 0.49080 0.12780 -0.06200
C 	C 	0.17800 0.43920 0.08200 -0.25700
H 	H 	0.22480 0.48590 0.11370 0.05300
C 	C 	0.18910 0.36680 0.02480 0.15100
C 	C 	0.11720 0.30290 0.98120 -0.23600
H 	H 	0.12040 0.25420 0.94200 0.09100
C 	C 	0.03810 0.30880 0.99410 0.09300
H 	H 	0.98970 0.26440 0.96220 -0.06300
C 	C 	0.27690 0.32410 0.95180 0.07100
H 	H 	0.22310 0.30810 0.90570 -0.00900
C 	C 	0.43740 0.18090 0.80300 0.10200
H 	H 	0.49050 0.14730 0.80770 -0.03000
C 	C 	0.43360 0.21930 0.87580 -0.20900
H 	H 	0.48360 0.21260 0.92730 0.04800
C 	C 	0.35440 0.26830 0.87170 0.14200
C 	C 	0.28540 0.28280 0.79090 -0.19800
H 	H 	0.23290 0.32010 0.78360 0.08500
C 	C 	0.29590 0.24140 0.72210 0.09700
H 	H 	0.24850 0.25050 0.66920 -0.02400
C 	C 	0.42970 0.68360 0.30830 0.09400
H 	H 	0.37960 0.72490 0.30240 -0.03200
C 	C 	0.42250 0.61710 0.24280 -0.21400
H 	H 	0.36880 0.61430 0.19410 0.06000
C 	C 	0.49660 0.55350 0.25010 0.14200
C 	C 	0.57350 0.55920 0.32600 -0.19200
H 	H 	0.62390 0.51690 0.33460 0.08400
C 	C 	0.57390 0.62810 0.38800 0.07100
H 	H 	0.62550 0.63020 0.43850 -0.03200
C 	C 	0.56400 0.48210 0.16890 0.04800
H 	H 	0.61440 0.52190 0.20360 0.00800
C 	C 	0.73180 0.37070 0.01710 0.08900
H 	H 	0.72950 0.34720 0.96560 -0.06400
C 	C 	0.65160 0.38320 0.02590 -0.25000
H 	H 	0.59680 0.36880 0.98040 0.05100
C 	C 	0.65250 0.41690 0.10170 0.14700
C 	C 	0.73660 0.43470 0.16770 -0.21700
H 	H 	0.74060 0.45430 0.22060 0.09100
C 	C 	0.81370 0.42320 0.15470 0.10300
H 	H 	0.86910 0.43800 0.19930 -0.05800
Cu	Cu	0.91140 0.36750 0.04670 0.38900
Cu	Cu	0.61889 0.89912 0.37513 0.79000
Cu	Cu	0.53142 0.83072 0.45774 0.79100
Cu	Cu	0.07590 0.88380 0.42860 0.43100
N 	N 	0.97110 0.87460 0.45050 -0.30300
N 	N 	0.72590 0.86360 0.47820 -0.29400
N 	N 	0.64550 0.80730 0.55310 -0.29100
N 	N 	0.63010 0.68900 0.77350 -0.24500
N 	N 	0.49580 0.19280 0.11990 -0.26300
N 	N 	0.50990 0.98770 0.31750 -0.28900
N 	N 	0.43040 0.92250 0.39180 -0.29800
N 	N 	0.18650 0.89160 0.41940 -0.29400
C 	C 	0.90260 0.94080 0.40910 0.09600
H 	H 	0.90920 0.99080 0.37220 -0.06200
C 	C 	0.82200 0.93920 0.41800 -0.25800
H 	H 	0.77520 0.98590 0.38630 0.05400
C 	C 	0.81090 0.86680 0.47520 0.15100
C 	C 	0.88280 0.80290 0.51880 -0.24000
H 	H 	0.87960 0.75420 0.55800 0.09300
C 	C 	0.96190 0.80880 0.50590 0.10400
H 	H 	0.01030 0.76440 0.53780 -0.07000
C 	C 	0.72310 0.82410 0.54820 0.07100
H 	H 	0.77690 0.80810 0.59430 -0.00900
C 	C 	0.56260 0.68090 0.69700 0.10200
H 	H 	0.50950 0.64730 0.69230 -0.03000
C 	C 	0.56640 0.71930 0.62420 -0.20900
H 	H 	0.51640 0.71260 0.57270 0.04800
C 	C 	0.64560 0.76830 0.62830 0.14200
C 	C 	0.71460 0.78280 0.70910 -0.19800
H 	H 	0.76710 0.82010 0.71640 0.08500
C 	C 	0.70410 0.74140 0.77790 0.09700
H 	H 	0.75150 0.75050 0.83080 -0.02400
C 	C 	0.57030 0.18360 0.19170 0.09400
H 	H 	0.62040 0.22490 0.19760 -0.03200
C 	C 	0.57750 0.11710 0.25720 -0.21300
H 	H 	0.63120 0.11430 0.30590 0.05900
C 	C 	0.50340 0.05350 0.24990 0.14100
C 	C 	0.42650 0.05920 0.17400 -0.19100
H 	H 	0.37610 0.01690 0.16540 0.08400
C 	C 	0.42610 0.12810 0.11200 0.07000
H 	H 	0.37450 0.13020 0.06150 -0.03200
C 	C 	0.43600 0.98210 0.33110 0.04800
H 	H 	0.38560 0.02190 0.29640 0.00800
C 	C 	0.26820 0.87070 0.48290 0.09200
H 	H 	0.27050 0.84720 0.53440 -0.06600
C 	C 	0.34840 0.88320 0.47410 -0.25000
H 	H 	0.40320 0.86880 0.51960 0.05000
C 	C 	0.34750 0.91690 0.39830 0.14700
C 	C 	0.26340 0.93470 0.33230 -0.21700
H 	H 	0.25940 0.95430 0.27940 0.09100
C 	C 	0.18630 0.92320 0.34530 0.10300
H 	H 	0.13090 0.93800 0.30070 -0.05800
Cu	Cu	0.08860 0.86750 0.45330 0.39100
Cu	Cu	0.61889 0.60088 0.87513 0.79000
Cu	Cu	0.53142 0.66928 0.95774 0.79100
Cu	Cu	0.07590 0.61620 0.92860 0.43200
N 	N 	0.97110 0.62540 0.95050 -0.29900
N 	N 	0.72590 0.63640 0.97820 -0.29300
N 	N 	0.64550 0.69270 0.05310 -0.29100
N 	N 	0.63010 0.81100 0.27350 -0.24500
N 	N 	0.49580 0.30720 0.61990 -0.26300
N 	N 	0.50990 0.51230 0.81750 -0.29000
N 	N 	0.43040 0.57750 0.89180 -0.29800
N 	N 	0.18650 0.60840 0.91940 -0.29400
C 	C 	0.90260 0.55920 0.90910 0.09500
H 	H 	0.90920 0.50920 0.87220 -0.06200
C 	C 	0.82200 0.56080 0.91800 -0.25700
H 	H 	0.77520 0.51410 0.88630 0.05300
C 	C 	0.81090 0.63320 0.97520 0.15100
C 	C 	0.88280 0.69710 0.01880 -0.23600
H 	H 	0.87960 0.74580 0.05800 0.09100
C 	C 	0.96190 0.69120 0.00590 0.09300
H 	H 	0.01030 0.73560 0.03780 -0.06300
C 	C 	0.72310 0.67590 0.04820 0.07100
H 	H 	0.77690 0.69190 0.09430 -0.00900
C 	C 	0.56260 0.81910 0.19700 0.10200
H 	H 	0.50950 0.85270 0.19230 -0.03000
C 	C 	0.56640 0.78070 0.12420 -0.20900
H 	H 	0.51640 0.78740 0.07270 0.04800
C 	C 	0.64560 0.73170 0.12830 0.14200
C 	C 	0.71460 0.71720 0.20910 -0.19800
H 	H 	0.76710 0.67990 0.21640 0.08500
C 	C 	0.70410 0.75860 0.27790 0.09700
H 	H 	0.75150 0.74950 0.33080 -0.02400
C 	C 	0.57030 0.31640 0.69170 0.09400
H 	H 	0.62040 0.27510 0.69760 -0.03200
C 	C 	0.57750 0.38290 0.75720 -0.21400
H 	H 	0.63120 0.38570 0.80590 0.06000
C 	C 	0.50340 0.44650 0.74990 0.14200
C 	C 	0.42650 0.44080 0.67400 -0.19200
H 	H 	0.37610 0.48310 0.66540 0.08400
C 	C 	0.42610 0.37190 0.61200 0.07100
H 	H 	0.37450 0.36980 0.56150 -0.03200
C 	C 	0.43600 0.51790 0.83110 0.04800
H 	H 	0.38560 0.47810 0.79640 0.00800
C 	C 	0.26820 0.62930 0.98290 0.08900
H 	H 	0.27050 0.65280 0.03440 -0.06400
C 	C 	0.34840 0.61680 0.97410 -0.25000
H 	H 	0.40320 0.63120 0.01960 0.05100
C 	C 	0.34750 0.58310 0.89830 0.14700
C 	C 	0.26340 0.56530 0.83230 -0.21700
H 	H 	0.25940 0.54570 0.77940 0.09100
C 	C 	0.18630 0.57680 0.84530 0.10300
H 	H 	0.13090 0.56200 0.80070 -0.05800
Cu	Cu	0.08860 0.63250 0.95330 0.38900
Cu	Cu	0.38111 0.10088 0.62487 0.79000
Cu	Cu	0.46858 0.16928 0.54226 0.79100
Cu	Cu	0.92410 0.11620 0.57140 0.43100
N 	N 	0.02890 0.12540 0.54950 -0.30300
N 	N 	0.27410 0.13640 0.52180 -0.29400
N 	N 	0.35450 0.19270 0.44690 -0.29100
N 	N 	0.36990 0.31100 0.22650 -0.24500
N 	N 	0.50420 0.80720 0.88010 -0.26300
N 	N 	0.49010 0.01230 0.68250 -0.28900
N 	N 	0.56960 0.07750 0.60820 -0.29800
N 	N 	0.81350 0.10840 0.58060 -0.29400
C 	C 	0.09740 0.05920 0.59090 0.09600
H 	H 	0.09080 0.00920 0.62780 -0.06200
C 	C 	0.17800 0.06080 0.58200 -0.25800
H 	H 	0.22480 0.01410 0.61370 0.05400
C 	C 	0.18910 0.13320 0.52480 0.15100
C 	C 	0.11720 0.19710 0.48120 -0.24000
H 	H 	0.12040 0.24580 0.44200 0.09300
C 	C 	0.03810 0.19120 0.49410 0.10400
H 	H 	0.98970 0.23560 0.46220 -0.07000
C 	C 	0.27690 0.17590 0.45180 0.07100
H 	H 	0.22310 0.19190 0.40570 -0.00900
C 	C 	0.43740 0.31910 0.30300 0.10200
H 	H 	0.49050 0.35270 0.30770 -0.03000
C 	C 	0.43360 0.28070 0.37580 -0.20900
H 	H 	0.48360 0.28740 0.42730 0.04800
C 	C 	0.35440 0.23170 0.37170 0.14200
C 	C 	0.28540 0.21720 0.29090 -0.19800
H 	H 	0.23290 0.17990 0.28360 0.08500
C 	C 	0.29590 0.25860 0.22210 0.09700
H 	H 	0.24850 0.24950 0.16920 -0.02400
C 	C 	0.42970 0.81640 0.80830 0.09400
H 	H 	0.37960 0.77510 0.80240 -0.03200
C 	C 	0.42250 0.88290 0.74280 -0.21300
H 	H 	0.36880 0.88570 0.69410 0.05900
C 	C 	0.49660 0.94650 0.75010 0.14100
C 	C 	0.57350 0.94080 0.82600 -0.19100
H 	H 	0.62390 0.98310 0.83460 0.08400
C 	C 	0.57390 0.87190 0.88800 0.07000
H 	H 	0.62550 0.86980 0.93850 -0.03200
C 	C 	0.56400 0.01790 0.66890 0.04800
H 	H 	0.61440 0.97810 0.70360 0.00800
C 	C 	0.73180 0.12930 0.51710 0.09200
H 	H 	0.72950 0.15280 0.46560 -0.06600
C 	C 	0.65160 0.11680 0.52590 -0.25000
H 	H 	0.59680 0.13120 0.48040 0.05000
C 	C 	0.65250 0.08310 0.60170 0.14700
C 	C 	0.73660 0.06530 0.66770 -0.21700
H 	H 	0.74060 0.04570 0.72060 0.09100
C 	C 	0.81370 0.07680 0.65470 0.10300
H 	H 	0.86910 0.06200 0.69930 -0.05800
Cu	Cu	0.91140 0.13250 0.54670 0.39100
