data_crystal

_cell_length_a 13.13000
_cell_length_b 13.76190
_cell_length_c 13.85920
_cell_angle_alpha 114.00200
_cell_angle_beta  112.31200
_cell_angle_gamma 100.91900

_symmetry_space_group_name_	'P 1'
_symmetry_space_group_name_H-M	'P 1'

loop_
_symmetry_equiv_pos_as_xyz
  x,y,z

loop_
_atom_site_label
_atom_site_type_symbol
_atom_site_fract_x
_atom_site_fract_y
_atom_site_fract_z
_atom_site_charge
Mn	Mn	0.38508 0.14073 0.87046 1.17800
Mn	Mn	0.23290 0.80474 0.35454 1.18600
Mn	Mn	0.37836 0.45020 0.64546 1.18600
Mn	Mn	0.76710 0.19526 0.64546 1.18600
Mn	Mn	0.98538 0.72973 0.87046 1.17700
Mn	Mn	0.01462 0.27027 0.12954 1.17700
Mn	Mn	0.62164 0.54980 0.35454 1.18500
Mn	Mn	0.61492 0.85927 0.12954 1.17700
W 	W 	0.77104 0.52104 0.04208 0.48100
W 	W 	0.37907 0.12907 0.25814 0.47100
W 	W 	0.62093 0.87093 0.74186 0.47100
W 	W 	0.22896 0.47896 0.95792 0.48100
C 	C 	0.22916 0.17564 0.19900 -0.06900
C 	C 	0.53016 0.97664 0.80100 -0.06800
C 	C 	0.48709 0.30067 0.31356 -0.06900
C 	C 	0.25741 0.44771 0.80724 -0.06500
C 	C 	0.77084 0.82436 0.80100 -0.06900
C 	C 	0.37246 0.24132 0.41858 -0.06900
C 	C 	0.74453 0.68023 0.10666 -0.06100
C 	C 	0.61736 0.49634 0.88672 -0.05800
C 	C 	0.95017 0.64047 0.19276 -0.06700
C 	C 	0.13784 0.38747 0.01542 -0.05800
C 	C 	0.62658 0.87052 0.89944 -0.05700
C 	C 	0.74259 0.55229 0.19276 -0.06500
C 	C 	0.86216 0.61253 0.98458 -0.05800
C 	C 	0.86213 0.42643 0.10666 -0.06100
C 	C 	0.62242 0.37205 0.98458 -0.05800
C 	C 	0.37342 0.12948 0.10056 -0.05700
C 	C 	0.62754 0.75868 0.58142 -0.06900
C 	C 	0.45388 0.82274 0.58142 -0.06900
C 	C 	0.22714 0.97108 0.10056 -0.05500
C 	C 	0.76936 0.39038 0.88672 -0.05700
C 	C 	0.37758 0.62795 0.01542 -0.05800
C 	C 	0.54612 0.17726 0.41858 -0.06900
C 	C 	0.51291 0.69933 0.68644 -0.06900
C 	C 	0.38264 0.50366 0.11328 -0.05800
C 	C 	0.77286 0.02892 0.89944 -0.05500
C 	C 	0.25547 0.31977 0.89334 -0.06100
C 	C 	0.46984 0.02336 0.19900 -0.06800
C 	C 	0.23064 0.60962 0.11328 -0.05700
C 	C 	0.04983 0.35953 0.80724 -0.06700
C 	C 	0.13787 0.57357 0.89334 -0.06100
C 	C 	0.67353 0.98711 0.68644 -0.07100
C 	C 	0.32647 0.01289 0.31356 -0.07100
N 	N 	0.46369 0.52105 0.19976 -0.27300
N 	N 	0.04757 0.70362 0.27002 -0.30300
N 	N 	0.48161 0.03238 0.83138 -0.29400
N 	N 	0.53631 0.47895 0.80024 -0.27300
N 	N 	0.70254 0.05328 0.66182 -0.30000
N 	N 	0.72953 0.76371 0.13964 -0.29200
N 	N 	0.15023 0.20100 0.16862 -0.29400
N 	N 	0.54072 0.39146 0.33818 -0.30100
N 	N 	0.45928 0.60854 0.66182 -0.30100
N 	N 	0.37156 0.30401 0.50228 -0.30600
N 	N 	0.91011 0.37593 0.13964 -0.29100
N 	N 	0.27755 0.43360 0.72998 -0.30600
N 	N 	0.14399 0.88846 0.01782 -0.28400
N 	N 	0.08653 0.33641 0.04282 -0.27900
N 	N 	0.62844 0.69599 0.49772 -0.30600
N 	N 	0.08989 0.62407 0.86036 -0.29100
N 	N 	0.45629 0.70641 0.04282 -0.27900
N 	N 	0.62617 0.87064 0.98218 -0.28500
N 	N 	0.91347 0.66359 0.95718 -0.27900
N 	N 	0.72245 0.56640 0.27002 -0.30600
N 	N 	0.76393 0.32129 0.80024 -0.27300
N 	N 	0.37383 0.12936 0.01782 -0.28500
N 	N 	0.51839 0.96762 0.16862 -0.29400
N 	N 	0.95243 0.29638 0.72998 -0.30300
N 	N 	0.23607 0.67871 0.19976 -0.27300
N 	N 	0.54371 0.29359 0.95718 -0.27900
N 	N 	0.36928 0.80173 0.49772 -0.30600
N 	N 	0.84977 0.79900 0.83138 -0.29400
N 	N 	0.85601 0.11154 0.98218 -0.28400
N 	N 	0.63072 0.19827 0.50228 -0.30600
N 	N 	0.27047 0.23629 0.86036 -0.29200
N 	N 	0.29746 0.94672 0.33818 -0.30000
