data_crystal

_cell_length_a 10.49440
_cell_length_b 22.94300
_cell_length_c 22.94300
_cell_angle_alpha 90.00000
_cell_angle_beta  90.00000
_cell_angle_gamma 90.00000

_symmetry_space_group_name_	'P 1'
_symmetry_space_group_name_H-M	'P 1'

loop_
_symmetry_equiv_pos_as_xyz
  x,y,z

loop_
_atom_site_label
_atom_site_type_symbol
_atom_site_fract_x
_atom_site_fract_y
_atom_site_fract_z
_atom_site_charge
Ag	Ag	0.81050 0.59393 0.16480 0.50200
Ag	Ag	0.06050 0.33520 0.09393 0.50100
Ag	Ag	0.31050 0.40607 0.83520 0.50100
Ag	Ag	0.56050 0.66480 0.90607 0.50100
H 	H 	0.09920 0.17610 0.75850 0.19700
H 	H 	0.80740 0.27390 0.07080 0.09100
H 	H 	0.71620 0.51080 0.88210 0.25000
H 	H 	0.86500 0.88070 0.03490 0.21600
H 	H 	0.81140 0.14800 0.89490 0.20800
H 	H 	0.13930 0.65800 0.84670 0.22300
H 	H 	0.73160 0.25780 0.28170 0.19200
H 	H 	0.84920 0.25850 0.32390 0.20400
H 	H 	0.87110 0.27130 0.19660 0.09100
H 	H 	0.82750 0.45290 0.75710 0.20900
H 	H 	0.67730 0.46820 0.05370 0.16500
H 	H 	0.12110 0.30340 0.77130 0.09100
H 	H 	0.96120 0.40620 0.91510 0.18700
H 	H 	0.07750 0.74290 0.95290 0.20400
H 	H 	0.63930 0.34200 0.15330 0.22300
H 	H 	0.17550 0.28610 0.98630 0.17500
H 	H 	0.64780 0.92100 0.00040 0.11000
H 	H 	0.23760 0.69690 0.66720 0.19700
H 	H 	0.46120 0.59380 0.08490 0.18500
H 	H 	0.05740 0.42920 0.77390 0.09100
H 	H 	0.11500 0.46510 0.38070 0.21500
H 	H 	0.73760 0.30310 0.33280 0.19600
H 	H 	0.85010 0.71130 0.87060 0.09100
H 	H 	0.55740 0.57080 0.22610 0.09100
H 	H 	0.86780 0.51020 0.72470 0.20400
H 	H 	0.31140 0.85200 0.10510 0.21000
H 	H 	0.34920 0.74150 0.67610 0.20400
H 	H 	0.06170 0.71540 0.83550 0.20200
H 	H 	0.86460 0.82120 0.06850 0.20900
H 	H 	0.06470 0.46270 0.22160 0.17000
H 	H 	0.48760 0.83280 0.19690 0.19700
H 	H 	0.42550 0.51370 0.78610 0.17500
H 	H 	0.55230 0.44940 0.31110 0.22600
H 	H 	0.31170 0.66450 0.21540 0.20200
H 	H 	0.21620 0.48920 0.11790 0.25000
H 	H 	0.84450 0.82220 0.00080 0.19800
H 	H 	0.36460 0.17880 0.93150 0.20700
H 	H 	0.96620 0.61790 0.01080 0.24200
H 	H 	0.79330 0.47210 0.09660 0.15900
H 	H 	0.81470 0.72160 0.03730 0.17500
H 	H 	0.57750 0.25710 0.04710 0.20600
H 	H 	0.06140 0.60510 0.64800 0.21000
H 	H 	0.31740 0.71250 0.16680 0.20800
H 	H 	0.24980 0.33990 0.96160 0.16300
H 	H 	0.16650 0.44910 0.06740 0.22400
H 	H 	0.59450 0.50080 0.67780 0.19600
H 	H 	0.66650 0.55090 0.93260 0.22400
H 	H 	0.61780 0.22470 0.98980 0.20000
H 	H 	0.79570 0.51730 0.93960 0.24800
H 	H 	0.14780 0.07900 0.99960 0.11000
H 	H 	0.92550 0.48630 0.21390 0.17300
H 	H 	0.23160 0.74220 0.71830 0.19200
H 	H 	0.86300 0.21200 0.89140 0.22300
H 	H 	0.62110 0.69660 0.22870 0.09100
H 	H 	0.30230 0.81110 0.05060 0.22600
H 	H 	0.54330 0.59660 0.02790 0.15800
H 	H 	0.71120 0.41510 0.09380 0.18600
H 	H 	0.11460 0.43150 0.32120 0.20800
H 	H 	0.28200 0.48630 0.21950 0.20800
H 	H 	0.04330 0.40340 0.97210 0.16000
H 	H 	0.09450 0.49920 0.32220 0.19600
H 	H 	0.49980 0.53840 0.83990 0.16200
H 	H 	0.56140 0.39490 0.35200 0.21000
H 	H 	0.04570 0.56040 0.01730 0.23700
H 	H 	0.31470 0.27840 0.96270 0.17300
H 	H 	0.38930 0.65330 0.15800 0.22200
H 	H 	0.99980 0.46160 0.16010 0.16100
H 	H 	0.89780 0.49960 0.42100 0.11000
H 	H 	0.74980 0.66010 0.03840 0.16400
H 	H 	0.41650 0.43260 0.94910 0.22400
H 	H 	0.03200 0.71950 0.01370 0.20100
H 	H 	0.10010 0.62940 0.21130 0.09100
H 	H 	0.21120 0.58490 0.90620 0.18600
H 	H 	0.36300 0.78800 0.10860 0.22500
H 	H 	0.81740 0.28750 0.83320 0.20800
H 	H 	0.29330 0.52790 0.90340 0.15800
H 	H 	0.34450 0.17780 0.99920 0.19500
H 	H 	0.81170 0.33550 0.78460 0.20200
H 	H 	0.80230 0.18890 0.94940 0.22500
H 	H 	0.61460 0.56850 0.67880 0.20700
H 	H 	0.92730 0.44630 0.96820 0.16500
H 	H 	0.29570 0.48270 0.06040 0.24800
H 	H 	0.91650 0.56740 0.05090 0.21600
H 	H 	0.11300 0.60860 0.71200 0.22500
H 	H 	0.88930 0.34670 0.84200 0.22200
H 	H 	0.30740 0.72610 0.92920 0.09000
H 	H 	0.06740 0.66680 0.78750 0.20800
H 	H 	0.61500 0.53490 0.61930 0.21400
H 	H 	0.59920 0.82390 0.24150 0.20500
H 	H 	0.56170 0.28460 0.16450 0.20300
H 	H 	0.56470 0.53730 0.77840 0.17300
H 	H 	0.98160 0.21830 0.75780 0.18300
H 	H 	0.42730 0.55370 0.03180 0.16400
H 	H 	0.11780 0.77530 0.01020 0.19700
H 	H 	0.98760 0.16720 0.80310 0.18700
H 	H 	0.05230 0.55060 0.68890 0.22700
H 	H 	0.78200 0.51370 0.78050 0.20800
H 	H 	0.36500 0.11930 0.96510 0.21400
H 	H 	0.39780 0.50040 0.57900 0.10900
H 	H 	0.46620 0.38210 0.98920 0.25000
H 	H 	0.53200 0.28050 0.98630 0.20400
H 	H 	0.37110 0.72870 0.80340 0.09100
H 	H 	0.60010 0.37060 0.78870 0.09100
H 	H 	0.32750 0.54710 0.24290 0.20900
H 	H 	0.67550 0.71390 0.01370 0.17600
H 	H 	0.56740 0.33320 0.21250 0.20800
H 	H 	0.48160 0.78170 0.24220 0.19300
H 	H 	0.35010 0.28870 0.12940 0.09100
H 	H 	0.17730 0.53180 0.94630 0.16500
H 	H 	0.36780 0.48980 0.27530 0.20400
H 	H 	0.54570 0.43960 0.98270 0.24800
H 	H 	0.61300 0.39140 0.28800 0.22500
C 	C 	0.93230 0.39570 0.21410 0.17900
C 	C 	0.85070 0.49310 0.76210 -0.70000
C 	C 	0.03690 0.19560 0.78220 -0.61500
C 	C 	0.43330 0.54570 0.65220 0.20700
C 	C 	0.93330 0.45430 0.34780 0.20800
C 	C 	0.85590 0.32670 0.26330 0.21200
C 	C 	0.99670 0.53680 0.84520 -0.10000
C 	C 	0.35590 0.67330 0.73670 0.21300
C 	C 	0.18230 0.28590 0.89570 0.18000
C 	C 	0.96530 0.49700 0.79870 0.22800
C 	C 	0.55680 0.38810 0.91490 0.29500
C 	C 	0.95900 0.40870 0.95680 -0.57900
C 	C 	0.11870 0.51840 0.85980 0.16300
C 	C 	0.56460 0.32590 0.17130 -0.69300
C 	C 	0.23180 0.56390 0.65790 0.27200
C 	C 	0.81460 0.32870 0.82590 -0.69200
C 	C 	0.44350 0.35500 0.14500 0.26200
C 	C 	0.62430 0.77020 0.11960 -0.12800
C 	C 	0.10590 0.23670 0.82670 0.20700
C 	C 	0.32790 0.15750 0.96340 -0.65800
C 	C 	0.80680 0.58510 0.88810 0.29500
C 	C 	0.12430 0.22980 0.88040 -0.12500
C 	C 	0.92980 0.58630 0.86460 -0.19800
C 	C 	0.21530 0.70130 0.99700 0.22500
C 	C 	0.17980 0.63540 0.08630 -0.19400
C 	C 	0.73180 0.43610 0.34210 0.27200
C 	C 	0.34300 0.58260 0.68420 -0.14300
C 	C 	0.23570 0.29880 0.95750 -0.59000
C 	C 	0.61870 0.48160 0.14020 0.16200
C 	C 	0.43230 0.60430 0.78590 0.18000
C 	C 	0.59300 0.81580 0.08260 -0.14300
C 	C 	0.85300 0.17860 0.91610 -0.71800
C 	C 	0.30680 0.41490 0.11190 0.29500
C 	C 	0.99100 0.58740 0.03720 -0.79500
C 	C 	0.74670 0.34520 0.96320 -0.10000
C 	C 	0.67980 0.36460 0.91370 -0.19900
C 	C 	0.70900 0.45680 0.09130 -0.57500
C 	C 	0.49670 0.46320 0.15480 -0.10000
C 	C 	0.87430 0.38040 0.27020 -0.12700
C 	C 	0.98570 0.45750 0.20120 -0.58300
C 	C 	0.71530 0.29870 0.00300 0.22700
C 	C 	0.10300 0.58390 0.67860 -0.72400
C 	C 	0.24670 0.65480 0.03680 -0.10100
C 	C 	0.68330 0.84780 0.04570 0.20800
C 	C 	0.48180 0.84210 0.06390 0.27200
C 	C 	0.46530 0.50300 0.20130 0.22900
C 	C 	0.73570 0.70120 0.04250 -0.59200
C 	C 	0.24100 0.46280 0.08740 -0.82600
C 	C 	0.36870 0.64020 0.01840 0.16100
C 	C 	0.48570 0.54250 0.79880 -0.58900
C 	C 	0.74100 0.53720 0.91260 -0.82600
C 	C 	0.42980 0.41370 0.13540 -0.19900
C 	C 	0.28690 0.71780 0.69560 -0.64200
C 	C 	0.94350 0.64500 0.85500 0.26100
C 	C 	0.69350 0.35500 0.85500 0.26100
C 	C 	0.98180 0.15790 0.93610 0.26700
C 	C 	0.60300 0.41610 0.32140 -0.72400
C 	C 	0.07790 0.46340 0.34250 -0.66100
C 	C 	0.09300 0.18420 0.91740 -0.14000
C 	C 	0.20900 0.54320 0.90870 -0.57500
C 	C 	0.68230 0.71410 0.10430 0.18100
C 	C 	0.86870 0.35980 0.98160 0.16000
C 	C 	0.06460 0.67410 0.82870 -0.69200
C 	C 	0.37430 0.61960 0.72980 -0.12800
C 	C 	0.45900 0.59130 0.04320 -0.57400
C 	C 	0.60590 0.76330 0.17330 0.21300
C 	C 	0.35300 0.82140 0.08390 -0.72400
C 	C 	0.53690 0.80440 0.21780 -0.64200
C 	C 	0.18330 0.15220 0.95430 0.20600
C 	C 	0.82790 0.84250 0.03660 -0.66300
C 	C 	0.60070 0.26210 0.00690 -0.68800
C 	C 	0.05680 0.61190 0.08510 0.28200
C 	C 	0.10070 0.73790 0.99310 -0.68100
C 	C 	0.31460 0.67130 0.17410 -0.69100
C 	C 	0.57790 0.53660 0.65750 -0.65900
C 	C 	0.19350 0.64500 0.14500 0.26000
C 	C 	0.78690 0.28220 0.30440 -0.64100
C 	C 	0.35070 0.50690 0.23790 -0.70100
C 	C 	0.49100 0.41260 0.96280 -0.82600
C 	C 	0.84300 0.41740 0.31580 -0.14400
N 	N 	0.94270 0.35170 0.18020 -0.18500
N 	N 	0.35560 0.32600 0.12640 -0.23800
N 	N 	0.90660 0.32940 0.02780 -0.17600
N 	N 	0.44270 0.64830 0.81980 -0.18500
N 	N 	0.19270 0.31980 0.85170 -0.18500
N 	N 	0.13520 0.29030 0.80580 -0.20400
N 	N 	0.38520 0.69420 0.79030 -0.20600
N 	N 	0.86690 0.48040 0.39200 -0.19900
N 	N 	0.11690 0.10800 0.98040 -0.19700
N 	N 	0.85560 0.67400 0.87360 -0.23700
N 	N 	0.36690 0.51960 0.60800 -0.19900
N 	N 	0.05930 0.45950 0.79590 -0.21200
N 	N 	0.60560 0.37360 0.82600 -0.23700
N 	N 	0.74160 0.46980 0.38080 -0.16400
N 	N 	0.01640 0.60020 0.13920 -0.20900
N 	N 	0.63520 0.70970 0.19420 -0.20600
N 	N 	0.51640 0.39980 0.86080 -0.21000
N 	N 	0.61690 0.89200 0.01960 -0.19900
N 	N 	0.24160 0.53020 0.61920 -0.16400
N 	N 	0.40660 0.67060 0.97220 -0.17800
N 	N 	0.49160 0.88080 0.03020 -0.16400
N 	N 	0.30930 0.70410 0.95950 -0.21100
N 	N 	0.26640 0.36080 0.10020 -0.21000
N 	N 	0.80930 0.29590 0.04050 -0.21200
N 	N 	0.55930 0.54050 0.20410 -0.21200
N 	N 	0.15660 0.47220 0.82940 -0.17800
N 	N 	0.69270 0.68020 0.14830 -0.18500
N 	N 	0.76640 0.63920 0.89980 -0.21000
N 	N 	0.99160 0.11920 0.96980 -0.16500
N 	N 	0.88520 0.30580 0.20970 -0.20600
N 	N 	0.65660 0.52780 0.17060 -0.17800
N 	N 	0.10560 0.62640 0.17400 -0.23700
Ag	Ag	0.43950 0.90607 0.66480 0.50200
Ag	Ag	0.18950 0.16480 0.59393 0.50300
Ag	Ag	0.93950 0.09393 0.33520 0.50200
Ag	Ag	0.68950 0.83520 0.40607 0.50200
H 	H 	0.26840 0.28170 0.25780 0.19200
H 	H 	0.13540 0.06850 0.82120 0.20900
H 	H 	0.40080 0.24150 0.82390 0.20500
H 	H 	0.19770 0.94940 0.18890 0.22500
H 	H 	0.67250 0.24290 0.54710 0.20900
H 	H 	0.07450 0.21390 0.48630 0.17300
H 	H 	0.89990 0.21130 0.62940 0.09100
H 	H 	0.68860 0.10510 0.85200 0.21000
H 	H 	0.38700 0.28800 0.39140 0.22500
H 	H 	0.38500 0.61930 0.53490 0.21400
H 	H 	0.53380 0.98920 0.38210 0.25000
H 	H 	0.86070 0.84670 0.65800 0.22300
H 	H 	0.90550 0.32220 0.49920 0.19600
H 	H 	0.78880 0.90620 0.58490 0.18600
H 	H 	0.18260 0.83320 0.28750 0.20800
H 	H 	0.38220 0.98980 0.22470 0.20000
H 	H 	0.93530 0.22160 0.46270 0.17000
H 	H 	0.51840 0.24220 0.78170 0.19300
H 	H 	0.94770 0.68890 0.55060 0.22700
H 	H 	0.68530 0.96270 0.27840 0.17300
H 	H 	0.69260 0.92920 0.72610 0.09000
H 	H 	0.46800 0.98630 0.28050 0.20400
H 	H 	0.87890 0.77130 0.30340 0.09100
H 	H 	0.11070 0.84200 0.34670 0.22200
H 	H 	0.63700 0.10860 0.78800 0.22500
H 	H 	0.28880 0.09380 0.41510 0.18600
H 	H 	0.68260 0.16680 0.71250 0.20800
H 	H 	0.65080 0.67610 0.74150 0.20400
H 	H 	0.01840 0.75780 0.21830 0.18300
H 	H 	0.19260 0.07080 0.27390 0.09100
H 	H 	0.82450 0.98630 0.28610 0.17500
H 	H 	0.20430 0.93960 0.51730 0.24800
H 	H 	0.13220 0.72470 0.51020 0.20400
H 	H 	0.94260 0.77390 0.42920 0.09100
H 	H 	0.82270 0.94630 0.53180 0.16500
H 	H 	0.88540 0.32120 0.43150 0.20800
H 	H 	0.88220 0.01020 0.77530 0.19700
H 	H 	0.78380 0.11790 0.48920 0.25000
H 	H 	0.15080 0.32390 0.25850 0.20400
H 	H 	0.70670 0.90340 0.52790 0.15800
H 	H 	0.25020 0.03840 0.66010 0.16400
H 	H 	0.01240 0.80310 0.16720 0.18700
H 	H 	0.43830 0.16450 0.28460 0.20300
H 	H 	0.20670 0.09660 0.47210 0.15900
H 	H 	0.95670 0.97210 0.40340 0.16000
H 	H 	0.18530 0.03730 0.72160 0.17500
H 	H 	0.88500 0.38070 0.46510 0.21500
H 	H 	0.53880 0.08490 0.59380 0.18500
H 	H 	0.76840 0.71830 0.74220 0.19200
H 	H 	0.42250 0.04710 0.25710 0.20600
H 	H 	0.93830 0.83550 0.71540 0.20200
H 	H 	0.62890 0.80340 0.72870 0.09100
H 	H 	0.43530 0.77840 0.53730 0.17300
H 	H 	0.18830 0.78460 0.33550 0.20200
H 	H 	0.28380 0.88210 0.51080 0.25000
H 	H 	0.88700 0.71200 0.60860 0.22500
H 	H 	0.00020 0.16010 0.46160 0.16100
H 	H 	0.39990 0.78870 0.37060 0.09100
H 	H 	0.08350 0.05090 0.56740 0.21600
H 	H 	0.33350 0.93260 0.55090 0.22400
H 	H 	0.14990 0.87060 0.71130 0.09100
H 	H 	0.58350 0.94910 0.43260 0.22400
H 	H 	0.10220 0.42100 0.49960 0.11000
H 	H 	0.65550 0.99920 0.17780 0.19500
H 	H 	0.45670 0.02790 0.59660 0.15800
H 	H 	0.90080 0.75850 0.17610 0.19700
H 	H 	0.63500 0.96510 0.11930 0.21400
H 	H 	0.15550 0.00080 0.82220 0.19800
H 	H 	0.13500 0.03490 0.88070 0.21600
H 	H 	0.07270 0.96820 0.44630 0.16500
H 	H 	0.71800 0.21950 0.48630 0.20800
H 	H 	0.17250 0.75710 0.45290 0.20900
H 	H 	0.68830 0.21540 0.66450 0.20200
H 	H 	0.57450 0.78610 0.51370 0.17500
H 	H 	0.63540 0.93150 0.17880 0.20700
H 	H 	0.32450 0.01370 0.71390 0.17600
H 	H 	0.03380 0.01080 0.61790 0.24200
H 	H 	0.40550 0.67780 0.50080 0.19600
H 	H 	0.57270 0.03180 0.55370 0.16400
H 	H 	0.96800 0.01370 0.71950 0.20100
H 	H 	0.44260 0.22610 0.57080 0.09100
H 	H 	0.03880 0.91510 0.40620 0.18700
H 	H 	0.18860 0.89490 0.14800 0.20800
H 	H 	0.76240 0.66720 0.69690 0.19700
H 	H 	0.13700 0.89140 0.21200 0.22300
H 	H 	0.95430 0.01730 0.56040 0.23700
H 	H 	0.75020 0.96160 0.33990 0.16300
H 	H 	0.64990 0.12940 0.28870 0.09100
H 	H 	0.43860 0.35200 0.39490 0.21000
H 	H 	0.69770 0.05060 0.81110 0.22600
H 	H 	0.51240 0.19690 0.83280 0.19700
H 	H 	0.70430 0.06040 0.48270 0.24800
H 	H 	0.35220 0.00040 0.92100 0.11000
H 	H 	0.50020 0.83990 0.53840 0.16200
H 	H 	0.83350 0.06740 0.44910 0.22400
H 	H 	0.45430 0.98270 0.43960 0.24800
H 	H 	0.63220 0.27530 0.48980 0.20400
H 	H 	0.93260 0.78750 0.66680 0.20800
H 	H 	0.93860 0.64800 0.60510 0.21000
H 	H 	0.37890 0.22870 0.69660 0.09100
H 	H 	0.60220 0.57900 0.50040 0.10900
H 	H 	0.85220 0.99960 0.07900 0.11000
H 	H 	0.43260 0.21250 0.33320 0.20800
H 	H 	0.26240 0.33280 0.30310 0.19600
H 	H 	0.44770 0.31110 0.44940 0.22600
H 	H 	0.92250 0.95290 0.74290 0.20400
H 	H 	0.38540 0.67880 0.56850 0.20700
H 	H 	0.61070 0.15800 0.65330 0.22200
H 	H 	0.32270 0.05370 0.46820 0.16500
H 	H 	0.12890 0.19660 0.27130 0.09100
H 	H 	0.21800 0.78050 0.51370 0.20800
H 	H 	0.36070 0.15330 0.34200 0.22300
C 	C 	0.87570 0.88040 0.22980 -0.12500
C 	C 	0.01820 0.93610 0.15790 0.26700
C 	C 	0.14930 0.76210 0.49310 -0.70000
C 	C 	0.05650 0.85500 0.64500 0.26100
C 	C 	0.89700 0.67860 0.58390 -0.72400
C 	C 	0.26430 0.04250 0.70120 -0.59200
C 	C 	0.17210 0.03660 0.84250 -0.66300
C 	C 	0.89410 0.82670 0.23670 0.20700
C 	C 	0.90700 0.91740 0.18420 -0.14000
C 	C 	0.18540 0.82590 0.32870 -0.69200
C 	C 	0.56670 0.65220 0.54570 0.20700
C 	C 	0.79100 0.90870 0.54320 -0.57500
C 	C 	0.69320 0.11190 0.41490 0.29500
C 	C 	0.78470 0.99700 0.70130 0.22500
C 	C 	0.14410 0.26330 0.32670 0.21200
C 	C 	0.50900 0.96280 0.41260 -0.82600
C 	C 	0.30650 0.85500 0.35500 0.26100
C 	C 	0.39700 0.32140 0.41610 -0.72400
C 	C 	0.31670 0.04570 0.84780 0.20800
C 	C 	0.00900 0.03720 0.58740 -0.79500
C 	C 	0.75900 0.08740 0.46280 -0.82600
C 	C 	0.88130 0.85980 0.51840 0.16300
C 	C 	0.14700 0.91610 0.17860 -0.71800
C 	C 	0.81670 0.95430 0.15220 0.20600
C 	C 	0.28470 0.00300 0.29870 0.22700
C 	C 	0.46310 0.21780 0.80440 -0.64200
C 	C 	0.54100 0.04320 0.59130 -0.57400
C 	C 	0.81770 0.89570 0.28590 0.18000
C 	C 	0.51430 0.79880 0.54250 -0.58900
C 	C 	0.71310 0.69560 0.71780 -0.64200
C 	C 	0.51820 0.06390 0.84210 0.27200
C 	C 	0.64700 0.08390 0.82140 -0.72400
C 	C 	0.12570 0.27020 0.38040 -0.12700
C 	C 	0.64410 0.73670 0.67330 0.21300
C 	C 	0.89930 0.99310 0.73790 -0.68100
C 	C 	0.62570 0.72980 0.61960 -0.12800
C 	C 	0.37570 0.11960 0.77020 -0.12800
C 	C 	0.03470 0.79870 0.49700 0.22800
C 	C 	0.13130 0.98160 0.35980 0.16000
C 	C 	0.67210 0.96340 0.15750 -0.65800
C 	C 	0.01430 0.20120 0.45750 -0.58300
C 	C 	0.19320 0.88810 0.58510 0.29500
C 	C 	0.76820 0.65790 0.56390 0.27200
C 	C 	0.53470 0.20130 0.50300 0.22900
C 	C 	0.65700 0.68420 0.58260 -0.14300
C 	C 	0.55650 0.14500 0.35500 0.26200
C 	C 	0.64930 0.23790 0.50690 -0.70100
C 	C 	0.31770 0.10430 0.71410 0.18100
C 	C 	0.39410 0.17330 0.76330 0.21300
C 	C 	0.94320 0.08510 0.61190 0.28200
C 	C 	0.07020 0.86460 0.58630 -0.19800
C 	C 	0.04100 0.95680 0.40870 -0.57900
C 	C 	0.21310 0.30440 0.28220 -0.64100
C 	C 	0.06770 0.21410 0.39570 0.17900
C 	C 	0.75330 0.03680 0.65480 -0.10100
C 	C 	0.42210 0.65750 0.53660 -0.65900
C 	C 	0.44320 0.91490 0.38810 0.29500
C 	C 	0.25330 0.96320 0.34520 -0.10000
C 	C 	0.38130 0.14020 0.48160 0.16200
C 	C 	0.40700 0.08260 0.81580 -0.14300
C 	C 	0.50330 0.15480 0.46320 -0.10000
C 	C 	0.80650 0.14500 0.64500 0.26000
C 	C 	0.39930 0.00690 0.26210 -0.68800
C 	C 	0.00330 0.84520 0.53680 -0.10000
C 	C 	0.96310 0.78220 0.19560 -0.61500
C 	C 	0.92210 0.34250 0.46340 -0.66100
C 	C 	0.93540 0.82870 0.67410 -0.69200
C 	C 	0.76430 0.95750 0.29880 -0.59000
C 	C 	0.43540 0.17130 0.32590 -0.69300
C 	C 	0.68540 0.17410 0.67130 -0.69100
C 	C 	0.25900 0.91260 0.53720 -0.82600
C 	C 	0.06670 0.34780 0.45430 0.20800
C 	C 	0.15700 0.31580 0.41740 -0.14400
C 	C 	0.63130 0.01840 0.64020 0.16100
C 	C 	0.29100 0.09130 0.45680 -0.57500
C 	C 	0.82020 0.08630 0.63540 -0.19400
C 	C 	0.57020 0.13540 0.41370 -0.19900
C 	C 	0.56770 0.78590 0.60430 0.18000
C 	C 	0.26820 0.34210 0.43610 0.27200
C 	C 	0.32020 0.91370 0.36460 -0.19900
N 	N 	0.80730 0.85170 0.31980 -0.18500
N 	N 	0.38310 0.01960 0.89200 -0.19900
N 	N 	0.88310 0.98040 0.10800 -0.19700
N 	N 	0.34340 0.17060 0.52780 -0.17800
N 	N 	0.64440 0.12640 0.32600 -0.23800
N 	N 	0.09340 0.02780 0.32940 -0.17600
N 	N 	0.84340 0.82940 0.47220 -0.17800
N 	N 	0.89440 0.17400 0.62640 -0.23700
N 	N 	0.94070 0.79590 0.45950 -0.21200
N 	N 	0.39440 0.82600 0.37360 -0.23700
N 	N 	0.14440 0.87360 0.67400 -0.23700
N 	N 	0.59340 0.97220 0.67060 -0.17800
N 	N 	0.25840 0.38080 0.46980 -0.16400
N 	N 	0.05730 0.18020 0.35170 -0.18500
N 	N 	0.61480 0.79030 0.69420 -0.20600
N 	N 	0.98360 0.13920 0.60020 -0.20900
N 	N 	0.48360 0.86080 0.39980 -0.21000
N 	N 	0.63310 0.60800 0.51960 -0.19900
N 	N 	0.00840 0.96980 0.11920 -0.16500
N 	N 	0.50840 0.03020 0.88080 -0.16400
N 	N 	0.86480 0.80580 0.29030 -0.20400
N 	N 	0.13310 0.39200 0.48040 -0.19900
N 	N 	0.69070 0.95950 0.70410 -0.21100
N 	N 	0.30730 0.14830 0.68020 -0.18500
N 	N 	0.44070 0.20410 0.54050 -0.21200
N 	N 	0.75840 0.61920 0.53020 -0.16400
N 	N 	0.36480 0.19420 0.70970 -0.20600
N 	N 	0.55730 0.81980 0.64830 -0.18500
N 	N 	0.11480 0.20970 0.30580 -0.20600
N 	N 	0.73360 0.10020 0.36080 -0.21000
N 	N 	0.19070 0.04050 0.29590 -0.21200
N 	N 	0.23360 0.89980 0.63920 -0.21000
