data_crystal

_cell_length_a 9.24900
_cell_length_b 9.80700
_cell_length_c 10.73000
_cell_angle_alpha 68.00000
_cell_angle_beta  84.47000
_cell_angle_gamma 62.05000

_symmetry_space_group_name_	'P 1'
_symmetry_space_group_name_H-M	'P 1'

loop_
_symmetry_equiv_pos_as_xyz
  x,y,z

loop_
_atom_site_label
_atom_site_type_symbol
_atom_site_fract_x
_atom_site_fract_y
_atom_site_fract_z
_atom_site_charge
La	La	0.22478 0.04374 0.98423 1.56000
La	La	0.77522 0.95626 0.01577 1.56000
H 	H 	0.36230 0.12590 0.37180 0.14700
H 	H 	0.53380 0.97560 0.37730 0.14100
H 	H 	0.63280 0.16210 0.24610 0.02700
H 	H 	0.57640 0.18910 0.38120 0.01600
H 	H 	0.32890 0.42470 0.26480 0.02100
H 	H 	0.38220 0.39670 0.12920 0.03000
H 	H 	0.60090 0.45030 0.13370 0.13700
H 	H 	0.56560 0.46030 0.27640 0.13200
H 	H 	0.83180 0.09610 0.65100 0.14000
H 	H 	0.88600 0.22920 0.56050 0.13400
H 	H 	0.08660 0.88170 0.62690 0.02100
H 	H 	0.13370 0.01780 0.53120 0.01600
H 	H 	0.63770 0.87410 0.62820 0.14700
H 	H 	0.46620 0.02440 0.62270 0.14100
H 	H 	0.36720 0.83790 0.75390 0.02700
H 	H 	0.42360 0.81090 0.61880 0.01600
H 	H 	0.67110 0.57530 0.73520 0.02100
H 	H 	0.61780 0.60330 0.87080 0.03000
H 	H 	0.39910 0.54970 0.86630 0.13700
H 	H 	0.43440 0.53970 0.72360 0.13200
H 	H 	0.16820 0.90390 0.34900 0.14000
H 	H 	0.11400 0.77080 0.43950 0.13400
H 	H 	0.91340 0.11830 0.37310 0.02100
H 	H 	0.86630 0.98220 0.46880 0.01600
C 	C 	0.40040 0.08780 0.19500 0.44000
C 	C 	0.45640 0.08860 0.32150 -0.39900
C 	C 	0.53780 0.20020 0.29530 0.00900
C 	C 	0.42260 0.38410 0.21510 -0.00700
C 	C 	0.51410 0.48540 0.19060 -0.35800
C 	C 	0.40790 0.67140 0.12530 0.37200
C 	C 	0.01370 0.09380 0.74860 0.38100
C 	C 	0.92580 0.11590 0.62520 -0.36000
C 	C 	0.04240 0.99430 0.56020 0.01000
C 	C 	0.59960 0.91220 0.80500 0.44000
C 	C 	0.54360 0.91140 0.67850 -0.39900
C 	C 	0.46220 0.79980 0.70470 0.00900
C 	C 	0.57740 0.61590 0.78490 -0.00700
C 	C 	0.48590 0.51460 0.80940 -0.35800
C 	C 	0.59210 0.32860 0.87470 0.37200
C 	C 	0.98630 0.90620 0.25140 0.38100
C 	C 	0.07420 0.88410 0.37480 -0.36000
C 	C 	0.95760 0.00570 0.43980 0.01000
O 	O 	0.25190 0.12230 0.17640 -0.44300
O 	O 	0.50050 0.05100 0.10990 -0.47600
O 	O 	0.42170 0.76590 0.17270 -0.40000
O 	O 	0.30810 0.73370 0.02250 -0.39100
O 	O 	0.12740 0.13360 0.73380 -0.42500
O 	O 	0.97770 0.03170 0.86550 -0.47500
O 	O 	0.74810 0.87770 0.82360 -0.44300
O 	O 	0.49950 0.94900 0.89010 -0.47600
O 	O 	0.57830 0.23410 0.82730 -0.40000
O 	O 	0.69190 0.26630 0.97750 -0.39100
O 	O 	0.87260 0.86640 0.26620 -0.42500
O 	O 	0.02230 0.96830 0.13450 -0.47500
