data_crystal

_cell_length_a 9.23900
_cell_length_b 9.79000
_cell_length_c 10.70900
_cell_angle_alpha 68.04000
_cell_angle_beta  84.49000
_cell_angle_gamma 62.01000

_symmetry_space_group_name_	'P 1'
_symmetry_space_group_name_H-M	'P 1'

loop_
_symmetry_equiv_pos_as_xyz
  x,y,z

loop_
_atom_site_label
_atom_site_type_symbol
_atom_site_fract_x
_atom_site_fract_y
_atom_site_fract_z
_atom_site_charge
La	La	0.77530 0.45620 0.01590 1.58500
La	La	0.22470 0.54380 0.98410 1.58500
H 	H 	0.11300 0.26800 0.43600 0.13200
H 	H 	0.17000 0.40200 0.34800 0.13900
H 	H 	0.86700 0.48300 0.46800 0.03100
H 	H 	0.91500 0.61900 0.37100 0.02400
H 	H 	0.36100 0.61900 0.37400 0.14400
H 	H 	0.53800 0.47300 0.37400 0.13900
H 	H 	0.63400 0.66100 0.24800 0.02000
H 	H 	0.57700 0.68700 0.38600 0.01200
H 	H 	0.38100 0.89800 0.12800 0.02900
H 	H 	0.32500 0.92400 0.26300 0.02100
H 	H 	0.56700 0.95800 0.27600 0.13000
H 	H 	0.59800 0.95700 0.12500 0.12500
H 	H 	0.88700 0.73200 0.56400 0.13200
H 	H 	0.83000 0.59800 0.65200 0.13900
H 	H 	0.13300 0.51700 0.53200 0.03100
H 	H 	0.08500 0.38100 0.62900 0.02400
H 	H 	0.63900 0.38100 0.62600 0.14400
H 	H 	0.46200 0.52700 0.62600 0.13900
H 	H 	0.36600 0.33900 0.75200 0.02000
H 	H 	0.42300 0.31300 0.61400 0.01200
H 	H 	0.61900 0.10200 0.87200 0.02900
H 	H 	0.67500 0.07600 0.73700 0.02100
H 	H 	0.43300 0.04200 0.72400 0.13000
H 	H 	0.40200 0.04300 0.87500 0.12500
C 	C 	0.98670 0.40530 0.25200 0.40200
C 	C 	0.07460 0.38370 0.37480 -0.36400
C 	C 	0.95760 0.50520 0.43980 -0.00800
C 	C 	0.40020 0.58800 0.19480 0.44400
C 	C 	0.45640 0.58860 0.32190 -0.39600
C 	C 	0.53700 0.70060 0.29500 0.01900
C 	C 	0.42280 0.88390 0.21520 -0.01400
C 	C 	0.51460 0.98520 0.19050 -0.34300
C 	C 	0.40740 0.17120 0.12500 0.37100
C 	C 	0.01330 0.59470 0.74800 0.40200
C 	C 	0.92540 0.61630 0.62520 -0.36400
C 	C 	0.04240 0.49480 0.56020 -0.00800
C 	C 	0.59980 0.41200 0.80520 0.44400
C 	C 	0.54360 0.41140 0.67810 -0.39600
C 	C 	0.46300 0.29940 0.70500 0.01900
C 	C 	0.57720 0.11610 0.78480 -0.01400
C 	C 	0.48540 0.01480 0.80950 -0.34300
C 	C 	0.59260 0.82880 0.87500 0.37100
O 	O 	0.02200 0.46820 0.13460 -0.48800
O 	O 	0.87250 0.36580 0.26630 -0.42800
O 	O 	0.50100 0.55100 0.11020 -0.48900
O 	O 	0.42200 0.26560 0.17300 -0.39700
O 	O 	0.25240 0.62200 0.17680 -0.45000
O 	O 	0.30850 0.23290 0.02270 -0.39000
O 	O 	0.97800 0.53180 0.86540 -0.48800
O 	O 	0.12750 0.63420 0.73370 -0.42800
O 	O 	0.49900 0.44900 0.88980 -0.48900
O 	O 	0.57800 0.73440 0.82700 -0.39700
O 	O 	0.74760 0.37800 0.82320 -0.45000
O 	O 	0.69150 0.76710 0.97730 -0.39000
