data_crystal

_cell_length_a 11.99400
_cell_length_b 12.36700
_cell_length_c 12.55200
_cell_angle_alpha 90.00000
_cell_angle_beta  116.36000
_cell_angle_gamma 90.00000

_symmetry_space_group_name_	'P 1'
_symmetry_space_group_name_H-M	'P 1'

loop_
_symmetry_equiv_pos_as_xyz
  x,y,z

loop_
_atom_site_label
_atom_site_type_symbol
_atom_site_fract_x
_atom_site_fract_y
_atom_site_fract_z
_atom_site_charge
C 	C 	0.37860 0.81480 0.13860 -0.18600
C 	C 	0.25390 0.84620 0.07450 0.11200
N 	N 	0.15340 0.87700 0.03050 -0.30200
C 	C 	0.44640 0.86570 0.24940 0.13300
N 	N 	0.49520 0.91230 0.33720 -0.24400
C 	C 	0.43120 0.73110 0.10210 0.11600
N 	N 	0.47510 0.66230 0.07180 -0.29500
N 	N 	0.08770 0.03990 0.21340 -0.24100
C 	C 	0.22240 0.01670 0.27530 -0.13800
C 	C 	0.02540 0.96920 0.26920 0.00200
C 	C 	0.06940 0.15550 0.23820 -0.08800
N 	N 	0.27810 0.03620 0.40590 -0.22900
C 	C 	0.20870 0.96530 0.45430 0.08600
C 	C 	0.25170 0.15110 0.42400 0.00000
N 	N 	0.07470 0.98940 0.39750 -0.06200
N 	N 	0.11780 0.17570 0.36640 -0.10400
C 	C 	0.05560 0.10310 0.41640 -0.14500
H 	H 	0.23670 0.93290 0.26050 0.07600
H 	H 	0.26920 0.06770 0.23800 -0.01100
H 	H 	0.04100 0.88540 0.25540 -0.00900
H 	H 	0.92670 0.98570 0.22710 0.06500
H 	H 	0.97120 0.17400 0.19520 0.04400
H 	H 	0.11760 0.20730 0.20310 0.00100
H 	H 	0.24530 0.97880 0.54890 0.03400
H 	H 	0.22210 0.88170 0.43810 0.00100
H 	H 	0.29780 0.20350 0.38710 0.01000
H 	H 	0.28780 0.16620 0.51820 -0.00100
H 	H 	0.95700 0.12010 0.37420 0.07400
H 	H 	0.09270 0.11790 0.51080 0.02500
C 	C 	0.62140 0.31480 0.36140 -0.19000
C 	C 	0.74610 0.34620 0.42550 0.11900
N 	N 	0.84660 0.37700 0.46950 -0.27900
C 	C 	0.55360 0.36570 0.25060 0.10900
N 	N 	0.50480 0.41230 0.16280 -0.28600
C 	C 	0.56880 0.23110 0.39790 0.11900
N 	N 	0.52490 0.16230 0.42820 -0.29000
N 	N 	0.91230 0.53990 0.28660 -0.20800
C 	C 	0.77760 0.51670 0.22470 0.00200
C 	C 	0.97460 0.46920 0.23080 0.09300
C 	C 	0.93060 0.65550 0.26180 0.09400
N 	N 	0.72190 0.53620 0.09410 -0.18600
C 	C 	0.79130 0.46530 0.04570 -0.11500
C 	C 	0.74830 0.65110 0.07600 -0.11600
N 	N 	0.92530 0.48940 0.10250 -0.10200
N 	N 	0.88220 0.67570 0.13360 -0.10900
C 	C 	0.94440 0.60310 0.08360 -0.01000
H 	H 	0.76330 0.43290 0.23950 -0.01200
H 	H 	0.73080 0.56770 0.26200 -0.01300
H 	H 	0.95900 0.38540 0.24460 -0.00700
H 	H 	0.07330 0.48570 0.27290 -0.06000
H 	H 	0.02880 0.67400 0.30480 -0.04900
H 	H 	0.88240 0.70730 0.29690 -0.00300
H 	H 	0.75470 0.47880 0.95110 0.09400
H 	H 	0.77790 0.38170 0.06190 0.01200
H 	H 	0.70220 0.70350 0.11290 0.03400
H 	H 	0.71220 0.66620 0.98180 0.10100
H 	H 	0.04300 0.62010 0.12580 -0.02300
H 	H 	0.90730 0.61790 0.98920 0.09900
C 	C 	0.62140 0.18520 0.86140 -0.18800
C 	C 	0.74610 0.15380 0.92550 0.13500
N 	N 	0.84660 0.12300 0.96950 -0.26100
C 	C 	0.55360 0.13430 0.75060 0.11200
N 	N 	0.50480 0.08770 0.66280 -0.29400
C 	C 	0.56880 0.26890 0.89790 0.14900
N 	N 	0.52490 0.33770 0.92820 -0.25400
N 	N 	0.91230 0.96010 0.78660 -0.15900
C 	C 	0.77760 0.98330 0.72470 0.13300
C 	C 	0.97460 0.03080 0.73080 0.01200
C 	C 	0.93060 0.84450 0.76180 0.09300
N 	N 	0.72190 0.96380 0.59410 -0.15600
C 	C 	0.79130 0.03470 0.54570 -0.07200
C 	C 	0.74830 0.84890 0.57600 0.01100
N 	N 	0.92530 0.01060 0.60250 -0.15100
N 	N 	0.88220 0.82430 0.63360 -0.13300
C 	C 	0.94440 0.89690 0.58360 0.17500
H 	H 	0.76330 0.06710 0.73950 -0.08300
H 	H 	0.73080 0.93230 0.76200 -0.01300
H 	H 	0.95900 0.11460 0.74460 0.01500
H 	H 	0.07330 0.01430 0.77290 -0.06100
H 	H 	0.02880 0.82600 0.80480 -0.01800
H 	H 	0.88240 0.79270 0.79690 0.00800
H 	H 	0.75470 0.02120 0.45110 -0.00800
H 	H 	0.77790 0.11830 0.56190 0.02400
H 	H 	0.70220 0.79650 0.61290 0.01400
H 	H 	0.71220 0.83380 0.48180 0.02200
H 	H 	0.04300 0.87990 0.62580 -0.02800
H 	H 	0.90730 0.88210 0.48920 0.01800
C 	C 	0.37860 0.68520 0.63860 -0.18800
C 	C 	0.25390 0.65380 0.57450 0.12700
N 	N 	0.15340 0.62300 0.53050 -0.30400
C 	C 	0.44640 0.63430 0.74940 0.13500
N 	N 	0.49520 0.58770 0.83720 -0.25300
C 	C 	0.43120 0.76890 0.60210 0.14500
N 	N 	0.47510 0.83770 0.57180 -0.25900
N 	N 	0.08770 0.46010 0.71340 -0.20100
C 	C 	0.22240 0.48330 0.77530 -0.00000
C 	C 	0.02540 0.53080 0.76920 -0.08300
C 	C 	0.06940 0.34450 0.73820 -0.08000
N 	N 	0.27810 0.46380 0.90590 -0.20000
C 	C 	0.20870 0.53470 0.95430 0.13000
C 	C 	0.25170 0.34890 0.92400 0.13400
N 	N 	0.07470 0.51060 0.89750 -0.11400
N 	N 	0.11780 0.32430 0.86640 -0.12900
C 	C 	0.05560 0.39690 0.91640 0.06300
H 	H 	0.23670 0.56710 0.76050 -0.00300
H 	H 	0.26920 0.43230 0.73800 -0.01500
H 	H 	0.04100 0.61460 0.75540 0.01000
H 	H 	0.92670 0.51430 0.72710 0.05800
H 	H 	0.97120 0.32600 0.69520 0.06600
H 	H 	0.11760 0.29270 0.70310 0.00700
H 	H 	0.24530 0.52120 0.04890 -0.07000
H 	H 	0.22210 0.61830 0.93810 0.01200
H 	H 	0.29780 0.29650 0.88710 -0.01000
H 	H 	0.28780 0.33380 0.01820 -0.08500
H 	H 	0.95700 0.37990 0.87420 0.06100
H 	H 	0.09270 0.38210 0.01080 -0.06500
Cd	Cd	0.50000 0.00000 0.50000 1.16000
Cd	Cd	0.50000 0.50000 -0.00000 1.16300
Cd	Cd	-0.00000 0.00000 -0.00000 1.07000
Cd	Cd	0.00000 0.50000 0.50000 1.13400
