data_crystal

_cell_length_a 20.43500
_cell_length_b 20.43500
_cell_length_c 20.43500
_cell_angle_alpha 90.00000
_cell_angle_beta  90.00000
_cell_angle_gamma 90.00000

_symmetry_space_group_name_	'P 1'
_symmetry_space_group_name_H-M	'P 1'

loop_
_symmetry_equiv_pos_as_xyz
  x,y,z

loop_
_atom_site_label
_atom_site_type_symbol
_atom_site_fract_x
_atom_site_fract_y
_atom_site_fract_z
_atom_site_charge
Nd	Nd	0.25768 0.35613 0.01998 1.69900
O 	O 	0.35550 0.30280 0.06460 -0.51700
O 	O 	0.42310 0.21810 0.08010 -0.48800
O 	O 	0.12330 0.21140 0.91480 -0.49800
O 	O 	0.16800 0.29710 0.96620 -0.50800
N 	N 	0.26940 0.23080 0.00450 -0.19500
C 	C 	0.37060 0.24260 0.05990 0.37400
C 	C 	0.32210 0.19870 0.02700 -0.08900
C 	C 	0.32880 0.13230 0.02280 -0.00500
C 	C 	0.28010 0.09590 0.99260 -0.05900
C 	C 	0.22560 0.12870 0.96860 -0.01000
C 	C 	0.22160 0.19590 0.97470 -0.09000
C 	C 	0.16630 0.23690 0.94980 0.37900
Nd	Nd	0.24232 0.64387 0.51998 1.70300
O 	O 	0.14450 0.69720 0.56460 -0.51600
O 	O 	0.07690 0.78190 0.58010 -0.48600
O 	O 	0.37670 0.78860 0.41480 -0.49700
O 	O 	0.33200 0.70290 0.46620 -0.50800
N 	N 	0.23060 0.76920 0.50450 -0.19300
C 	C 	0.12940 0.75740 0.55990 0.37400
C 	C 	0.17790 0.80130 0.52700 -0.08900
C 	C 	0.17120 0.86770 0.52280 -0.00200
C 	C 	0.21990 0.90410 0.49260 -0.06200
C 	C 	0.27440 0.87130 0.46860 -0.00900
C 	C 	0.27840 0.80410 0.47470 -0.09200
C 	C 	0.33370 0.76310 0.44980 0.38000
Nd	Nd	0.74232 0.85613 0.48002 1.70200
O 	O 	0.64450 0.80280 0.43540 -0.51700
O 	O 	0.57690 0.71810 0.41990 -0.48700
O 	O 	0.87670 0.71140 0.58520 -0.49700
O 	O 	0.83200 0.79710 0.53380 -0.50800
N 	N 	0.73060 0.73080 0.49550 -0.19300
C 	C 	0.62940 0.74260 0.44010 0.37400
C 	C 	0.67790 0.69870 0.47300 -0.09000
C 	C 	0.67120 0.63230 0.47720 -0.00200
C 	C 	0.71990 0.59590 0.50740 -0.06300
C 	C 	0.77440 0.62870 0.53140 -0.00900
C 	C 	0.77840 0.69590 0.52530 -0.09200
C 	C 	0.83370 0.73690 0.55020 0.38000
Nd	Nd	0.75768 0.14387 0.98002 1.70400
O 	O 	0.85550 0.19720 0.93540 -0.51700
O 	O 	0.92310 0.28190 0.91990 -0.48700
O 	O 	0.62330 0.28860 0.08520 -0.49700
O 	O 	0.66800 0.20290 0.03380 -0.50900
N 	N 	0.76940 0.26920 0.99550 -0.19300
C 	C 	0.87060 0.25740 0.94010 0.37400
C 	C 	0.82210 0.30130 0.97300 -0.08900
C 	C 	0.82880 0.36770 0.97720 -0.00300
C 	C 	0.78010 0.40410 0.00740 -0.06100
C 	C 	0.72560 0.37130 0.03140 -0.00900
C 	C 	0.72160 0.30410 0.02530 -0.09200
C 	C 	0.66630 0.26310 0.05020 0.38000
Nd	Nd	0.01998 0.25768 0.35613 1.70000
O 	O 	0.06460 0.35550 0.30280 -0.51600
O 	O 	0.08010 0.42310 0.21810 -0.48700
O 	O 	0.91480 0.12330 0.21140 -0.49700
O 	O 	0.96620 0.16800 0.29710 -0.50700
N 	N 	0.00450 0.26940 0.23080 -0.19400
C 	C 	0.05990 0.37060 0.24260 0.37400
C 	C 	0.02700 0.32210 0.19870 -0.08900
C 	C 	0.02280 0.32880 0.13230 -0.00500
C 	C 	0.99260 0.28010 0.09590 -0.05900
C 	C 	0.96860 0.22560 0.12870 -0.01000
C 	C 	0.97470 0.22160 0.19590 -0.09000
C 	C 	0.94980 0.16630 0.23690 0.37900
Nd	Nd	0.51998 0.24232 0.64387 1.70300
O 	O 	0.56460 0.14450 0.69720 -0.51600
O 	O 	0.58010 0.07690 0.78190 -0.48600
O 	O 	0.41480 0.37670 0.78860 -0.49700
O 	O 	0.46620 0.33200 0.70290 -0.50800
N 	N 	0.50450 0.23060 0.76920 -0.19300
C 	C 	0.55990 0.12940 0.75740 0.37400
C 	C 	0.52700 0.17790 0.80130 -0.08900
C 	C 	0.52280 0.17120 0.86770 -0.00200
C 	C 	0.49260 0.21990 0.90410 -0.06200
C 	C 	0.46860 0.27440 0.87130 -0.00900
C 	C 	0.47470 0.27840 0.80410 -0.09200
C 	C 	0.44980 0.33370 0.76310 0.38000
Nd	Nd	0.48002 0.74232 0.85613 1.70200
O 	O 	0.43540 0.64450 0.80280 -0.51700
O 	O 	0.41990 0.57690 0.71810 -0.48700
O 	O 	0.58520 0.87670 0.71140 -0.49700
O 	O 	0.53380 0.83200 0.79710 -0.50800
N 	N 	0.49550 0.73060 0.73080 -0.19300
C 	C 	0.44010 0.62940 0.74260 0.37400
C 	C 	0.47300 0.67790 0.69870 -0.09000
C 	C 	0.47720 0.67120 0.63230 -0.00200
C 	C 	0.50740 0.71990 0.59590 -0.06300
C 	C 	0.53140 0.77440 0.62870 -0.00900
C 	C 	0.52530 0.77840 0.69590 -0.09200
C 	C 	0.55020 0.83370 0.73690 0.38000
Nd	Nd	0.98002 0.75768 0.14387 1.70400
O 	O 	0.93540 0.85550 0.19720 -0.51700
O 	O 	0.91990 0.92310 0.28190 -0.48700
O 	O 	0.08520 0.62330 0.28860 -0.49700
O 	O 	0.03380 0.66800 0.20290 -0.50900
N 	N 	0.99550 0.76940 0.26920 -0.19300
C 	C 	0.94010 0.87060 0.25740 0.37400
C 	C 	0.97300 0.82210 0.30130 -0.08900
C 	C 	0.97720 0.82880 0.36770 -0.00300
C 	C 	0.00740 0.78010 0.40410 -0.06100
C 	C 	0.03140 0.72560 0.37130 -0.00900
C 	C 	0.02530 0.72160 0.30410 -0.09200
C 	C 	0.05020 0.66630 0.26310 0.38000
Nd	Nd	0.35613 0.01998 0.25768 1.70000
O 	O 	0.30280 0.06460 0.35550 -0.51600
O 	O 	0.21810 0.08010 0.42310 -0.48700
O 	O 	0.21140 0.91480 0.12330 -0.49700
O 	O 	0.29710 0.96620 0.16800 -0.50700
N 	N 	0.23080 0.00450 0.26940 -0.19400
C 	C 	0.24260 0.05990 0.37060 0.37400
C 	C 	0.19870 0.02700 0.32210 -0.08900
C 	C 	0.13230 0.02280 0.32880 -0.00500
C 	C 	0.09590 0.99260 0.28010 -0.05900
C 	C 	0.12870 0.96860 0.22560 -0.01000
C 	C 	0.19590 0.97470 0.22160 -0.09000
C 	C 	0.23690 0.94980 0.16630 0.37900
Nd	Nd	0.64387 0.51998 0.24232 1.70300
O 	O 	0.69720 0.56460 0.14450 -0.51600
O 	O 	0.78190 0.58010 0.07690 -0.48600
O 	O 	0.78860 0.41480 0.37670 -0.49700
O 	O 	0.70290 0.46620 0.33200 -0.50800
N 	N 	0.76920 0.50450 0.23060 -0.19300
C 	C 	0.75740 0.55990 0.12940 0.37400
C 	C 	0.80130 0.52700 0.17790 -0.08900
C 	C 	0.86770 0.52280 0.17120 -0.00200
C 	C 	0.90410 0.49260 0.21990 -0.06200
C 	C 	0.87130 0.46860 0.27440 -0.00900
C 	C 	0.80410 0.47470 0.27840 -0.09200
C 	C 	0.76310 0.44980 0.33370 0.38000
Nd	Nd	0.85613 0.48002 0.74232 1.70200
O 	O 	0.80280 0.43540 0.64450 -0.51700
O 	O 	0.71810 0.41990 0.57690 -0.48700
O 	O 	0.71140 0.58520 0.87670 -0.49700
O 	O 	0.79710 0.53380 0.83200 -0.50800
N 	N 	0.73080 0.49550 0.73060 -0.19300
C 	C 	0.74260 0.44010 0.62940 0.37400
C 	C 	0.69870 0.47300 0.67790 -0.09000
C 	C 	0.63230 0.47720 0.67120 -0.00200
C 	C 	0.59590 0.50740 0.71990 -0.06300
C 	C 	0.62870 0.53140 0.77440 -0.00900
C 	C 	0.69590 0.52530 0.77840 -0.09200
C 	C 	0.73690 0.55020 0.83370 0.38000
Nd	Nd	0.14387 0.98002 0.75768 1.70400
O 	O 	0.19720 0.93540 0.85550 -0.51700
O 	O 	0.28190 0.91990 0.92310 -0.48700
O 	O 	0.28860 0.08520 0.62330 -0.49700
O 	O 	0.20290 0.03380 0.66800 -0.50900
N 	N 	0.26920 0.99550 0.76940 -0.19300
C 	C 	0.25740 0.94010 0.87060 0.37400
C 	C 	0.30130 0.97300 0.82210 -0.08900
C 	C 	0.36770 0.97720 0.82880 -0.00300
C 	C 	0.40410 0.00740 0.78010 -0.06100
C 	C 	0.37130 0.03140 0.72560 -0.00900
C 	C 	0.30410 0.02530 0.72160 -0.09200
C 	C 	0.26310 0.05020 0.66630 0.38000
Nd	Nd	0.74232 0.64387 0.98002 1.70000
O 	O 	0.64450 0.69720 0.93540 -0.51600
O 	O 	0.57690 0.78190 0.91990 -0.48700
O 	O 	0.87670 0.78860 0.08520 -0.49700
O 	O 	0.83200 0.70290 0.03380 -0.50700
N 	N 	0.73060 0.76920 0.99550 -0.19400
C 	C 	0.62940 0.75740 0.94010 0.37400
C 	C 	0.67790 0.80130 0.97300 -0.08900
C 	C 	0.67120 0.86770 0.97720 -0.00500
C 	C 	0.71990 0.90410 0.00740 -0.05900
C 	C 	0.77440 0.87130 0.03140 -0.01000
C 	C 	0.77840 0.80410 0.02530 -0.09000
C 	C 	0.83370 0.76310 0.05020 0.37900
Nd	Nd	0.75768 0.35613 0.48002 1.70300
O 	O 	0.85550 0.30280 0.43540 -0.51600
O 	O 	0.92310 0.21810 0.41990 -0.48600
O 	O 	0.62330 0.21140 0.58520 -0.49700
O 	O 	0.66800 0.29710 0.53380 -0.50800
N 	N 	0.76940 0.23080 0.49550 -0.19300
C 	C 	0.87060 0.24260 0.44010 0.37400
C 	C 	0.82210 0.19870 0.47300 -0.08900
C 	C 	0.82880 0.13230 0.47720 -0.00200
C 	C 	0.78010 0.09590 0.50740 -0.06200
C 	C 	0.72560 0.12870 0.53140 -0.00900
C 	C 	0.72160 0.19590 0.52530 -0.09200
C 	C 	0.66630 0.23690 0.55020 0.38000
Nd	Nd	0.25768 0.14387 0.51998 1.70200
O 	O 	0.35550 0.19720 0.56460 -0.51700
O 	O 	0.42310 0.28190 0.58010 -0.48700
O 	O 	0.12330 0.28860 0.41480 -0.49700
O 	O 	0.16800 0.20290 0.46620 -0.50800
N 	N 	0.26940 0.26920 0.50450 -0.19300
C 	C 	0.37060 0.25740 0.55990 0.37400
C 	C 	0.32210 0.30130 0.52700 -0.09000
C 	C 	0.32880 0.36770 0.52280 -0.00200
C 	C 	0.28010 0.40410 0.49260 -0.06300
C 	C 	0.22560 0.37130 0.46860 -0.00900
C 	C 	0.22160 0.30410 0.47470 -0.09200
C 	C 	0.16630 0.26310 0.44980 0.38000
Nd	Nd	0.24232 0.85613 0.01998 1.70400
O 	O 	0.14450 0.80280 0.06460 -0.51700
O 	O 	0.07690 0.71810 0.08010 -0.48700
O 	O 	0.37670 0.71140 0.91480 -0.49700
O 	O 	0.33200 0.79710 0.96620 -0.50900
N 	N 	0.23060 0.73080 0.00450 -0.19300
C 	C 	0.12940 0.74260 0.05990 0.37400
C 	C 	0.17790 0.69870 0.02700 -0.08900
C 	C 	0.17120 0.63230 0.02280 -0.00300
C 	C 	0.21990 0.59590 0.99260 -0.06100
C 	C 	0.27440 0.62870 0.96860 -0.00900
C 	C 	0.27840 0.69590 0.97470 -0.09200
C 	C 	0.33370 0.73690 0.94980 0.38000
Nd	Nd	0.98002 0.74232 0.64387 1.70000
O 	O 	0.93540 0.64450 0.69720 -0.51600
O 	O 	0.91990 0.57690 0.78190 -0.48700
O 	O 	0.08520 0.87670 0.78860 -0.49700
O 	O 	0.03380 0.83200 0.70290 -0.50700
N 	N 	0.99550 0.73060 0.76920 -0.19400
C 	C 	0.94010 0.62940 0.75740 0.37400
C 	C 	0.97300 0.67790 0.80130 -0.08900
C 	C 	0.97720 0.67120 0.86770 -0.00500
C 	C 	0.00740 0.71990 0.90410 -0.05900
C 	C 	0.03140 0.77440 0.87130 -0.01000
C 	C 	0.02530 0.77840 0.80410 -0.09000
C 	C 	0.05020 0.83370 0.76310 0.37900
Nd	Nd	0.48002 0.75768 0.35613 1.70300
O 	O 	0.43540 0.85550 0.30280 -0.51600
O 	O 	0.41990 0.92310 0.21810 -0.48600
O 	O 	0.58520 0.62330 0.21140 -0.49700
O 	O 	0.53380 0.66800 0.29710 -0.50800
N 	N 	0.49550 0.76940 0.23080 -0.19300
C 	C 	0.44010 0.87060 0.24260 0.37400
C 	C 	0.47300 0.82210 0.19870 -0.08900
C 	C 	0.47720 0.82880 0.13230 -0.00200
C 	C 	0.50740 0.78010 0.09590 -0.06200
C 	C 	0.53140 0.72560 0.12870 -0.00900
C 	C 	0.52530 0.72160 0.19590 -0.09200
C 	C 	0.55020 0.66630 0.23690 0.38000
Nd	Nd	0.51998 0.25768 0.14387 1.70200
O 	O 	0.56460 0.35550 0.19720 -0.51700
O 	O 	0.58010 0.42310 0.28190 -0.48700
O 	O 	0.41480 0.12330 0.28860 -0.49700
O 	O 	0.46620 0.16800 0.20290 -0.50800
N 	N 	0.50450 0.26940 0.26920 -0.19300
C 	C 	0.55990 0.37060 0.25740 0.37400
C 	C 	0.52700 0.32210 0.30130 -0.09000
C 	C 	0.52280 0.32880 0.36770 -0.00200
C 	C 	0.49260 0.28010 0.40410 -0.06300
C 	C 	0.46860 0.22560 0.37130 -0.00900
C 	C 	0.47470 0.22160 0.30410 -0.09200
C 	C 	0.44980 0.16630 0.26310 0.38000
Nd	Nd	0.01998 0.24232 0.85613 1.70400
O 	O 	0.06460 0.14450 0.80280 -0.51700
O 	O 	0.08010 0.07690 0.71810 -0.48700
O 	O 	0.91480 0.37670 0.71140 -0.49700
O 	O 	0.96620 0.33200 0.79710 -0.50900
N 	N 	0.00450 0.23060 0.73080 -0.19300
C 	C 	0.05990 0.12940 0.74260 0.37400
C 	C 	0.02700 0.17790 0.69870 -0.08900
C 	C 	0.02280 0.17120 0.63230 -0.00300
C 	C 	0.99260 0.21990 0.59590 -0.06100
C 	C 	0.96860 0.27440 0.62870 -0.00900
C 	C 	0.97470 0.27840 0.69590 -0.09200
C 	C 	0.94980 0.33370 0.73690 0.38000
Nd	Nd	0.64387 0.98002 0.74232 1.70000
O 	O 	0.69720 0.93540 0.64450 -0.51600
O 	O 	0.78190 0.91990 0.57690 -0.48700
O 	O 	0.78860 0.08520 0.87670 -0.49700
O 	O 	0.70290 0.03380 0.83200 -0.50700
N 	N 	0.76920 0.99550 0.73060 -0.19400
C 	C 	0.75740 0.94010 0.62940 0.37400
C 	C 	0.80130 0.97300 0.67790 -0.08900
C 	C 	0.86770 0.97720 0.67120 -0.00500
C 	C 	0.90410 0.00740 0.71990 -0.05900
C 	C 	0.87130 0.03140 0.77440 -0.01000
C 	C 	0.80410 0.02530 0.77840 -0.09000
C 	C 	0.76310 0.05020 0.83370 0.37900
Nd	Nd	0.35613 0.48002 0.75768 1.70300
O 	O 	0.30280 0.43540 0.85550 -0.51600
O 	O 	0.21810 0.41990 0.92310 -0.48600
O 	O 	0.21140 0.58520 0.62330 -0.49700
O 	O 	0.29710 0.53380 0.66800 -0.50800
N 	N 	0.23080 0.49550 0.76940 -0.19300
C 	C 	0.24260 0.44010 0.87060 0.37400
C 	C 	0.19870 0.47300 0.82210 -0.08900
C 	C 	0.13230 0.47720 0.82880 -0.00200
C 	C 	0.09590 0.50740 0.78010 -0.06200
C 	C 	0.12870 0.53140 0.72560 -0.00900
C 	C 	0.19590 0.52530 0.72160 -0.09200
C 	C 	0.23690 0.55020 0.66630 0.38000
Nd	Nd	0.14387 0.51998 0.25768 1.70200
O 	O 	0.19720 0.56460 0.35550 -0.51700
O 	O 	0.28190 0.58010 0.42310 -0.48700
O 	O 	0.28860 0.41480 0.12330 -0.49700
O 	O 	0.20290 0.46620 0.16800 -0.50800
N 	N 	0.26920 0.50450 0.26940 -0.19300
C 	C 	0.25740 0.55990 0.37060 0.37400
C 	C 	0.30130 0.52700 0.32210 -0.09000
C 	C 	0.36770 0.52280 0.32880 -0.00200
C 	C 	0.40410 0.49260 0.28010 -0.06300
C 	C 	0.37130 0.46860 0.22560 -0.00900
C 	C 	0.30410 0.47470 0.22160 -0.09200
C 	C 	0.26310 0.44980 0.16630 0.38000
Nd	Nd	0.85613 0.01998 0.24232 1.70400
O 	O 	0.80280 0.06460 0.14450 -0.51700
O 	O 	0.71810 0.08010 0.07690 -0.48700
O 	O 	0.71140 0.91480 0.37670 -0.49700
O 	O 	0.79710 0.96620 0.33200 -0.50900
N 	N 	0.73080 0.00450 0.23060 -0.19300
C 	C 	0.74260 0.05990 0.12940 0.37400
C 	C 	0.69870 0.02700 0.17790 -0.08900
C 	C 	0.63230 0.02280 0.17120 -0.00300
C 	C 	0.59590 0.99260 0.21990 -0.06100
C 	C 	0.62870 0.96860 0.27440 -0.00900
C 	C 	0.69590 0.97470 0.27840 -0.09200
C 	C 	0.73690 0.94980 0.33370 0.38000
