data_crystal

_cell_length_a 9.41700
_cell_length_b 9.75400
_cell_length_c 11.00200
_cell_angle_alpha 80.51000
_cell_angle_beta  71.64000
_cell_angle_gamma 61.68000

_symmetry_space_group_name_	'P 1'
_symmetry_space_group_name_H-M	'P 1'

loop_
_symmetry_equiv_pos_as_xyz
  x,y,z

loop_
_atom_site_label
_atom_site_type_symbol
_atom_site_fract_x
_atom_site_fract_y
_atom_site_fract_z
_atom_site_charge
P 	P 	0.62890 0.26130 0.28490 0.53600
P 	P 	0.01000 0.59700 0.17350 0.48700
P 	P 	0.12280 0.11920 0.41850 0.48600
O 	O 	0.13850 0.54790 0.24990 -0.56800
O 	O 	0.18980 0.22600 0.32900 -0.51000
O 	O 	0.45930 0.31970 0.25720 -0.46600
O 	O 	0.59480 0.28760 0.42500 -0.58700
O 	O 	0.24970 0.95160 0.37900 -0.52200
O 	O 	0.95110 0.15590 0.40480 -0.57100
O 	O 	0.71750 0.35260 0.20030 -0.51400
O 	O 	0.90640 0.50430 0.21650 -0.50500
O 	O 	0.10790 0.56510 0.03200 -0.48300
O 	O 	0.10800 0.14770 0.55630 -0.57100
O 	O 	0.73370 0.08970 0.25340 -0.50600
O 	O 	0.88810 0.77110 0.19560 -0.51700
Sn	Sn	0.22400 0.39590 0.39730 1.19800
Sn	Sn	0.71080 0.27520 0.55940 1.18500
Sn	Sn	0.97210 0.29920 0.12840 1.23000
Sn	Sn	0.97190 0.91330 0.25300 1.19800
P 	P 	0.37110 0.73870 0.71510 0.53600
P 	P 	0.99000 0.40300 0.82650 0.48700
P 	P 	0.87720 0.88080 0.58150 0.48600
O 	O 	0.86150 0.45210 0.75010 -0.56800
O 	O 	0.81020 0.77400 0.67100 -0.51000
O 	O 	0.54070 0.68030 0.74280 -0.46600
O 	O 	0.40520 0.71240 0.57500 -0.58700
O 	O 	0.75030 0.04840 0.62100 -0.52200
O 	O 	0.04890 0.84410 0.59520 -0.57100
O 	O 	0.28250 0.64740 0.79970 -0.51400
O 	O 	0.09360 0.49570 0.78350 -0.50500
O 	O 	0.89210 0.43490 0.96800 -0.48300
O 	O 	0.89200 0.85230 0.44370 -0.57100
O 	O 	0.26630 0.91030 0.74660 -0.50600
O 	O 	0.11190 0.22890 0.80440 -0.51700
Sn	Sn	0.77600 0.60410 0.60270 1.19800
Sn	Sn	0.28920 0.72480 0.44060 1.18500
Sn	Sn	0.02790 0.70080 0.87160 1.23000
Sn	Sn	0.02810 0.08670 0.74700 1.19800
