data_crystal

_cell_length_a 6.67300
_cell_length_b 14.04400
_cell_length_c 23.82500
_cell_angle_alpha 90.00000
_cell_angle_beta  90.00000
_cell_angle_gamma 90.00000

_symmetry_space_group_name_	'P 1'
_symmetry_space_group_name_H-M	'P 1'

loop_
_symmetry_equiv_pos_as_xyz
  x,y,z

loop_
_atom_site_label
_atom_site_type_symbol
_atom_site_fract_x
_atom_site_fract_y
_atom_site_fract_z
_atom_site_charge
Ce	Ce	0.88144 0.70566 0.63392 2.09100
Ce	Ce	0.38144 0.79434 0.86608 2.09400
Ce	Ce	0.61856 0.70566 0.36608 2.09400
Ce	Ce	0.11856 0.79434 0.13392 2.09000
Ce	Ce	0.11856 0.29434 0.36608 2.09100
Ce	Ce	0.61856 0.20566 0.13392 2.09400
Ce	Ce	0.38144 0.29434 0.63392 2.09500
Ce	Ce	0.88144 0.20566 0.86608 2.09100
H 	H 	0.91800 0.91600 0.61100 0.39000
H 	H 	0.41800 0.58400 0.88900 0.39200
H 	H 	0.58200 0.91600 0.38900 0.39200
H 	H 	0.08200 0.58400 0.11100 0.39000
H 	H 	0.08200 0.08400 0.38900 0.39000
H 	H 	0.58200 0.41600 0.11100 0.39200
H 	H 	0.41800 0.08400 0.61100 0.39200
H 	H 	0.91800 0.41600 0.88900 0.39000
C 	C 	0.02220 0.89060 0.73230 0.12700
C 	C 	0.05590 0.93280 0.78780 0.03500
C 	C 	0.01310 0.02720 0.76610 0.14100
C 	C 	0.98810 0.98720 0.70940 -0.00600
C 	C 	0.86170 0.70390 0.49110 0.24800
C 	C 	0.52220 0.60940 0.76770 0.10600
C 	C 	0.55590 0.56720 0.71220 0.04000
C 	C 	0.51310 0.47280 0.73390 0.11900
C 	C 	0.48810 0.51280 0.79060 0.02600
C 	C 	0.36170 0.79610 0.00890 0.24600
C 	C 	0.47780 0.89060 0.26770 0.10600
C 	C 	0.44410 0.93280 0.21220 0.04000
C 	C 	0.48690 0.02720 0.23390 0.11900
C 	C 	0.51190 0.98720 0.29060 0.02600
C 	C 	0.63830 0.70390 0.50890 0.24700
C 	C 	0.97780 0.60940 0.23230 0.12800
C 	C 	0.94410 0.56720 0.28780 0.03500
C 	C 	0.98690 0.47280 0.26610 0.14100
C 	C 	0.01190 0.51280 0.20940 -0.00600
C 	C 	0.13830 0.79610 0.99110 0.25000
C 	C 	0.97780 0.10940 0.26770 0.12700
C 	C 	0.94410 0.06720 0.21220 0.03500
C 	C 	0.98690 0.97280 0.23390 0.14100
C 	C 	0.01190 0.01280 0.29060 -0.00600
C 	C 	0.13830 0.29610 0.50890 0.24800
C 	C 	0.47780 0.39060 0.23230 0.10600
C 	C 	0.44410 0.43280 0.28780 0.04000
C 	C 	0.48690 0.52720 0.26610 0.11900
C 	C 	0.51190 0.48720 0.20940 0.02600
C 	C 	0.63830 0.20390 0.99110 0.24600
C 	C 	0.52220 0.10940 0.73230 0.10600
C 	C 	0.55590 0.06720 0.78780 0.04000
C 	C 	0.51310 0.97280 0.76610 0.11900
C 	C 	0.48810 0.01280 0.70940 0.02600
C 	C 	0.36170 0.29610 0.49110 0.24700
C 	C 	0.02220 0.39060 0.76770 0.12800
C 	C 	0.05590 0.43280 0.71220 0.03500
C 	C 	0.01310 0.52720 0.73390 0.14100
C 	C 	0.98810 0.48720 0.79060 -0.00600
C 	C 	0.86170 0.20390 0.00890 0.25000
O 	O 	0.02440 0.80820 0.71310 -0.42100
O 	O 	0.10580 0.90380 0.83560 -0.42800
O 	O 	0.00450 0.10990 0.78590 -0.43700
O 	O 	0.95580 0.02080 0.66220 -0.20400
O 	O 	0.98790 0.70660 0.52920 -0.42900
O 	O 	0.89530 0.69990 0.43930 -0.43800
O 	O 	0.87930 0.87180 0.59590 -0.66200
O 	O 	0.52440 0.69180 0.78690 -0.42300
O 	O 	0.60580 0.59620 0.66440 -0.43500
O 	O 	0.50450 0.39010 0.71410 -0.44000
O 	O 	0.45580 0.47920 0.83780 -0.20600
O 	O 	0.48790 0.79340 0.97080 -0.42700
O 	O 	0.39530 0.80010 0.06070 -0.44000
O 	O 	0.37930 0.62820 0.90410 -0.66000
O 	O 	0.47560 0.80820 0.28690 -0.42300
O 	O 	0.39420 0.90380 0.16440 -0.43500
O 	O 	0.49550 0.10990 0.21410 -0.44000
O 	O 	0.54420 0.02080 0.33780 -0.20600
O 	O 	0.51210 0.70660 0.47080 -0.42700
O 	O 	0.60470 0.69990 0.56070 -0.44000
O 	O 	0.62070 0.87180 0.40410 -0.66000
O 	O 	0.97560 0.69180 0.21310 -0.42100
O 	O 	0.89420 0.59620 0.33560 -0.42800
O 	O 	0.99550 0.39010 0.28590 -0.43700
O 	O 	0.04420 0.47920 0.16220 -0.20400
O 	O 	0.01210 0.79340 0.02920 -0.43000
O 	O 	0.10470 0.80010 0.93930 -0.43800
O 	O 	0.12070 0.62820 0.09590 -0.66300
O 	O 	0.97560 0.19180 0.28690 -0.42100
O 	O 	0.89420 0.09620 0.16440 -0.42800
O 	O 	0.99550 0.89010 0.21410 -0.43700
O 	O 	0.04420 0.97920 0.33780 -0.20400
O 	O 	0.01210 0.29340 0.47080 -0.42900
O 	O 	0.10470 0.30010 0.56070 -0.43800
O 	O 	0.12070 0.12820 0.40410 -0.66200
O 	O 	0.47560 0.30820 0.21310 -0.42300
O 	O 	0.39420 0.40380 0.33560 -0.43500
O 	O 	0.49550 0.60990 0.28590 -0.44000
O 	O 	0.54420 0.52080 0.16220 -0.20600
O 	O 	0.51210 0.20660 0.02920 -0.42700
O 	O 	0.60470 0.19990 0.93930 -0.44000
O 	O 	0.62070 0.37180 0.09590 -0.66000
O 	O 	0.52440 0.19180 0.71310 -0.42300
O 	O 	0.60580 0.09620 0.83560 -0.43500
O 	O 	0.50450 0.89010 0.78590 -0.44000
O 	O 	0.45580 0.97920 0.66220 -0.20600
O 	O 	0.48790 0.29340 0.52920 -0.42700
O 	O 	0.39530 0.30010 0.43930 -0.44000
O 	O 	0.37930 0.12820 0.59590 -0.66000
O 	O 	0.02440 0.30820 0.78690 -0.42100
O 	O 	0.10580 0.40380 0.66440 -0.42800
O 	O 	0.00450 0.60990 0.71410 -0.43700
O 	O 	0.95580 0.52080 0.83780 -0.20400
O 	O 	0.98790 0.20660 0.97080 -0.43000
O 	O 	0.89530 0.19990 0.06070 -0.43800
O 	O 	0.87930 0.37180 0.90410 -0.66300
