data_crystal

_cell_length_a 9.25710
_cell_length_b 11.82300
_cell_length_c 16.86100
_cell_angle_alpha 90.00000
_cell_angle_beta  90.00000
_cell_angle_gamma 90.00000

_symmetry_space_group_name_	'P 1'
_symmetry_space_group_name_H-M	'P 1'

loop_
_symmetry_equiv_pos_as_xyz
  x,y,z

loop_
_atom_site_label
_atom_site_type_symbol
_atom_site_fract_x
_atom_site_fract_y
_atom_site_fract_z
_atom_site_charge
Co	Co	0.83368 0.54162 0.11346 1.16900
C 	C 	0.81150 0.38280 0.11190 -0.20100
N 	N 	0.64980 0.54610 0.96267 -0.12800
N 	N 	0.88340 0.79640 0.11489 -0.13200
C 	C 	0.86080 0.70130 0.11429 -0.18900
C 	C 	0.66140 0.55970 0.17292 -0.20200
C 	C 	0.01070 0.52660 0.05774 -0.20200
C 	C 	0.72290 0.54790 0.01789 -0.18500
C 	C 	0.93090 0.52490 0.21232 -0.18200
N 	N 	0.80540 0.28600 0.11100 -0.05400
N 	N 	0.97930 0.50920 0.27326 -0.13100
N 	N 	0.55910 0.57060 0.21013 -0.04700
N 	N 	0.11990 0.51930 0.02574 -0.05700
Li	Li	0.47660 0.54900 0.88460 0.54200
Co	Co	0.66632 0.45838 0.61346 1.16900
C 	C 	0.68850 0.61720 0.61190 -0.20100
N 	N 	0.85020 0.45390 0.46267 -0.12900
N 	N 	0.61660 0.20360 0.61489 -0.13200
C 	C 	0.63920 0.29870 0.61429 -0.18800
C 	C 	0.83860 0.44030 0.67292 -0.20200
C 	C 	0.48930 0.47340 0.55774 -0.20300
C 	C 	0.77710 0.45210 0.51789 -0.18400
C 	C 	0.56910 0.47510 0.71232 -0.18200
N 	N 	0.69460 0.71400 0.61100 -0.05500
N 	N 	0.52070 0.49080 0.77326 -0.13100
N 	N 	0.94090 0.42940 0.71013 -0.04700
N 	N 	0.38010 0.48070 0.52574 -0.05700
Li	Li	0.02340 0.45100 0.38460 0.54200
Co	Co	0.16632 0.04162 0.38654 1.16800
C 	C 	0.18850 0.88280 0.38810 -0.20000
N 	N 	0.35020 0.04610 0.53733 -0.12900
N 	N 	0.11660 0.29640 0.38511 -0.13200
C 	C 	0.13920 0.20130 0.38571 -0.18900
C 	C 	0.33860 0.05970 0.32708 -0.20300
C 	C 	0.98930 0.02660 0.44226 -0.20000
C 	C 	0.27710 0.04790 0.48211 -0.18500
C 	C 	0.06910 0.02490 0.28768 -0.18300
N 	N 	0.19460 0.78600 0.38900 -0.05500
N 	N 	0.02070 0.00920 0.22674 -0.13200
N 	N 	0.44090 0.07060 0.28987 -0.04700
N 	N 	0.88010 0.01930 0.47426 -0.05700
Li	Li	0.52340 0.04900 0.61540 0.54200
Co	Co	0.33368 0.95838 0.88654 1.16900
C 	C 	0.31150 0.11720 0.88810 -0.20300
N 	N 	0.14980 0.95390 0.03733 -0.12700
N 	N 	0.38340 0.70360 0.88511 -0.13200
C 	C 	0.36080 0.79870 0.88571 -0.18800
C 	C 	0.16140 0.94030 0.82708 -0.20200
C 	C 	0.51070 0.97340 0.94226 -0.20200
C 	C 	0.22290 0.95210 0.98211 -0.18500
C 	C 	0.43090 0.97510 0.78768 -0.18100
N 	N 	0.30540 0.21400 0.88900 -0.05500
N 	N 	0.47930 0.99080 0.72674 -0.13100
N 	N 	0.05910 0.92940 0.78987 -0.04700
N 	N 	0.61990 0.98070 0.97426 -0.05700
Li	Li	0.97660 0.95100 0.11540 0.54200
