data_crystal

_cell_length_a 9.05700
_cell_length_b 12.60600
_cell_length_c 14.62300
_cell_angle_alpha 89.54700
_cell_angle_beta  86.53000
_cell_angle_gamma 72.51200

_symmetry_space_group_name_	'P 1'
_symmetry_space_group_name_H-M	'P 1'

loop_
_symmetry_equiv_pos_as_xyz
  x,y,z

loop_
_atom_site_label
_atom_site_type_symbol
_atom_site_fract_x
_atom_site_fract_y
_atom_site_fract_z
_atom_site_charge
Fe	Fe	0.18119 0.06253 0.23973 1.20000
Al	Al	0.03642 0.80503 0.39430 2.37700
Al	Al	0.04650 0.36635 0.11213 2.39200
Al	Al	0.05890 0.85310 0.12075 2.39500
Al	Al	0.68940 0.19076 0.25222 2.39300
Al	Al	0.06260 0.37223 0.36106 2.38800
Al	Al	0.68050 0.68620 0.26290 2.39600
P 	P 	0.32880 0.23759 0.21860 0.66100
P 	P 	0.76730 0.92576 0.27050 0.74400
P 	P 	0.86180 0.61968 0.43349 0.70800
P 	P 	0.78630 0.42220 0.21626 0.65700
P 	P 	0.31850 0.80577 0.25652 0.72800
P 	P 	0.96080 0.63374 0.10442 0.85000
P 	P 	0.96230 0.13032 0.09852 0.78800
P 	P 	0.91730 0.17070 0.40200 0.66300
O 	O 	0.25280 0.31970 0.14380 -0.62900
O 	O 	0.95770 0.38910 0.24570 -0.87100
O 	O 	0.71590 0.67570 0.38220 -0.69400
O 	O 	0.94780 0.28250 0.40480 -0.66400
O 	O 	0.06050 0.51320 0.12320 -0.67100
O 	O 	0.79840 0.15070 0.14350 -0.70900
O 	O 	0.22280 0.25830 0.30620 -0.73900
O 	O 	0.90770 0.49540 0.41390 -0.64700
O 	O 	0.07100 0.01790 0.13390 -0.68400
O 	O 	0.24760 0.81840 0.16400 -0.73500
O 	O 	0.03570 0.21780 0.12600 -0.74900
O 	O 	0.68780 0.53350 0.25440 -0.58200
O 	O 	0.90000 0.64330 0.00920 -0.68400
O 	O 	0.82120 0.64460 0.53560 -0.64300
O 	O 	0.82000 0.42190 0.11080 -0.54700
O 	O 	0.70630 0.33770 0.24680 -0.59800
O 	O 	0.66870 0.04540 0.26770 -0.60000
O 	O 	0.99510 0.66490 0.39800 -0.72200
O 	O 	0.66120 0.85140 0.26600 -0.53300
O 	O 	0.48660 0.25100 0.23360 -0.65500
O 	O 	0.95350 0.12060 0.99590 -0.72900
O 	O 	0.34900 0.11740 0.18750 -0.40700
O 	O 	0.06460 0.70810 0.11480 -0.72900
O 	O 	0.88300 0.89900 0.18840 -0.77800
O 	O 	0.84930 0.90440 0.36000 -0.72200
O 	O 	0.82130 0.66990 0.17210 -0.77100
O 	O 	0.75370 0.18550 0.37020 -0.63800
O 	O 	0.48140 0.72410 0.24370 -0.67300
O 	O 	0.91950 0.12630 0.50110 -0.39700
O 	O 	0.03850 0.08570 0.34250 -0.55900
O 	O 	0.22220 0.75860 0.32470 -0.76100
O 	O 	0.32030 0.91880 0.28830 -0.45300
Fe	Fe	0.96358 0.19497 0.60570 1.25000
Fe	Fe	0.81881 0.93747 0.76027 1.20500
Al	Al	0.95350 0.63365 0.88787 2.39500
Al	Al	0.94110 0.14690 0.87925 2.39800
Al	Al	0.31060 0.80924 0.74778 2.39300
Al	Al	0.93740 0.62777 0.63894 2.39200
Al	Al	0.31950 0.31380 0.73710 2.39500
P 	P 	0.67120 0.76241 0.78140 0.66100
P 	P 	0.23270 0.07424 0.72950 0.71800
P 	P 	0.13820 0.38032 0.56651 0.67600
P 	P 	0.21370 0.57780 0.78374 0.65800
P 	P 	0.68150 0.19423 0.74348 0.68800
P 	P 	0.03920 0.36626 0.89558 0.75900
P 	P 	0.03770 0.86968 0.90148 0.69700
P 	P 	0.08270 0.82930 0.59800 0.63900
O 	O 	0.74720 0.68030 0.85620 -0.62100
O 	O 	0.04230 0.61090 0.75430 -0.90800
O 	O 	0.28410 0.32430 0.61780 -0.67900
O 	O 	0.05220 0.71750 0.59520 -0.73100
O 	O 	0.93950 0.48680 0.87680 -0.60900
O 	O 	0.20160 0.84930 0.85650 -0.70800
O 	O 	0.77720 0.74170 0.69380 -0.72500
O 	O 	0.09230 0.50460 0.58610 -0.67200
O 	O 	0.92900 0.98210 0.86610 -0.63300
O 	O 	0.75240 0.18160 0.83600 -0.71100
O 	O 	0.96430 0.78220 0.87400 -0.68600
O 	O 	0.31220 0.46650 0.74560 -0.58300
O 	O 	0.10000 0.35670 0.99080 -0.69100
O 	O 	0.17880 0.35540 0.46440 -0.64400
O 	O 	0.18000 0.57810 0.88920 -0.56600
O 	O 	0.29370 0.66230 0.75320 -0.60200
O 	O 	0.33130 0.95460 0.73230 -0.60800
O 	O 	0.00490 0.33510 0.60200 -0.52100
O 	O 	0.33880 0.14860 0.73400 -0.52300
O 	O 	0.51340 0.74900 0.76640 -0.65500
O 	O 	0.04650 0.87940 0.00410 -0.74800
O 	O 	0.65100 0.88260 0.81250 -0.40900
O 	O 	0.93540 0.29190 0.88520 -0.66200
O 	O 	0.11700 0.10100 0.81160 -0.77800
O 	O 	0.15070 0.09560 0.64000 -0.48900
O 	O 	0.17870 0.33010 0.82790 -0.76100
O 	O 	0.24630 0.81450 0.62980 -0.64300
O 	O 	0.51860 0.27590 0.75630 -0.66900
O 	O 	0.08050 0.87370 0.49890 -0.66200
O 	O 	0.96150 0.91430 0.65750 -0.49100
O 	O 	0.77780 0.24140 0.67530 -0.48000
O 	O 	0.67970 0.08120 0.71170 -0.42300
