data_crystal

_cell_length_a 9.53000
_cell_length_b 10.16800
_cell_length_c 13.02600
_cell_angle_alpha 111.00500
_cell_angle_beta  105.56900
_cell_angle_gamma 90.49700

_symmetry_space_group_name_	'P 1'
_symmetry_space_group_name_H-M	'P 1'

loop_
_symmetry_equiv_pos_as_xyz
  x,y,z

loop_
_atom_site_label
_atom_site_type_symbol
_atom_site_fract_x
_atom_site_fract_y
_atom_site_fract_z
_atom_site_charge
C 	C 	0.59370 0.22500 0.84770 -0.04000
C 	C 	0.57180 0.30870 0.78180 0.00500
H 	H 	0.53750 0.26650 0.70210 0.06600
C 	C 	0.60150 0.45670 0.83560 -0.07600
C 	C 	0.66080 0.51530 0.95410 -0.03200
H 	H 	0.68340 0.61320 0.98980 0.07300
C 	C 	0.64850 0.28740 0.96540 -0.04900
H 	H 	0.65920 0.22990 0.00800 0.07900
C 	C 	0.68850 0.43240 0.02320 0.03400
C 	C 	0.75160 0.49700 0.14220 -0.01100
C 	C 	0.81020 0.54600 0.24400 -0.00400
C 	C 	0.87820 0.60620 0.36270 0.02100
C 	C 	0.79550 0.65690 0.44160 -0.03200
H 	H 	0.69450 0.65470 0.41410 0.06300
C 	C 	0.86170 0.70900 0.55780 -0.07800
C 	C 	0.01350 0.71740 0.60110 0.02700
H 	H 	0.05840 0.75430 0.68000 0.05500
C 	C 	0.09790 0.66970 0.52450 -0.08500
C 	C 	0.02840 0.61070 0.40910 -0.02100
H 	H 	0.08430 0.57170 0.35940 0.06400
C 	C 	0.56130 0.06610 0.78880 0.30400
C 	C 	0.57230 0.54490 0.76630 0.37200
C 	C 	0.76880 0.75620 0.63880 0.36200
C 	C 	0.26070 0.67530 0.56860 0.39600
O 	O 	0.57560 0.99180 0.85000 -0.39000
O 	O 	0.52750 0.01030 0.68290 -0.31800
O 	O 	0.59960 0.68000 0.81860 -0.43500
O 	O 	0.52440 0.48430 0.65980 -0.44400
O 	O 	0.82570 0.84130 0.73710 -0.30300
O 	O 	0.63350 0.71230 0.59930 -0.53800
O 	O 	0.32390 0.75640 0.66970 -0.45400
O 	O 	0.32160 0.59600 0.49900 -0.46800
Zn	Zn	0.54071 0.79745 0.72617 1.23800
C 	C 	0.40630 0.77500 0.15230 -0.04100
C 	C 	0.42820 0.69130 0.21820 0.00400
H 	H 	0.46250 0.73350 0.29790 0.06500
C 	C 	0.39850 0.54330 0.16440 -0.07700
C 	C 	0.33920 0.48470 0.04590 -0.03300
H 	H 	0.31660 0.38680 0.01020 0.07200
C 	C 	0.35150 0.71260 0.03460 -0.04900
H 	H 	0.34080 0.77010 0.99200 0.07900
C 	C 	0.31150 0.56760 0.97680 0.03400
C 	C 	0.24840 0.50300 0.85780 -0.01100
C 	C 	0.18980 0.45400 0.75600 -0.00400
C 	C 	0.12180 0.39380 0.63730 0.02100
C 	C 	0.20450 0.34310 0.55840 -0.03200
H 	H 	0.30550 0.34530 0.58590 0.06300
C 	C 	0.13830 0.29100 0.44220 -0.07800
C 	C 	0.98650 0.28260 0.39890 0.02700
H 	H 	0.94160 0.24570 0.32000 0.05500
C 	C 	0.90210 0.33030 0.47550 -0.08500
C 	C 	0.97160 0.38930 0.59090 -0.02100
H 	H 	0.91570 0.42830 0.64060 0.06400
C 	C 	0.43870 0.93390 0.21120 0.30400
C 	C 	0.42770 0.45510 0.23370 0.37200
C 	C 	0.23120 0.24380 0.36120 0.36200
C 	C 	0.73930 0.32470 0.43140 0.39600
O 	O 	0.42440 0.00820 0.15000 -0.39000
O 	O 	0.47250 0.98970 0.31710 -0.31800
O 	O 	0.40040 0.32000 0.18140 -0.43500
O 	O 	0.47560 0.51570 0.34020 -0.44400
O 	O 	0.17430 0.15870 0.26290 -0.30300
O 	O 	0.36650 0.28770 0.40070 -0.53800
O 	O 	0.67610 0.24360 0.33030 -0.45400
O 	O 	0.67840 0.40400 0.50100 -0.46800
Zn	Zn	0.45929 0.20255 0.27383 1.23800
Zn	Zn	0.50000 0.50000 0.50000 1.24400
