data_crystal

_cell_length_a 7.79670
_cell_length_b 13.69390
_cell_length_c 17.23110
_cell_angle_alpha 89.85700
_cell_angle_beta  90.00000
_cell_angle_gamma 90.00000

_symmetry_space_group_name_	'P 1'
_symmetry_space_group_name_H-M	'P 1'

loop_
_symmetry_equiv_pos_as_xyz
  x,y,z

loop_
_atom_site_label
_atom_site_type_symbol
_atom_site_fract_x
_atom_site_fract_y
_atom_site_fract_z
_atom_site_charge
Cu	Cu	0.73280 0.75310 0.75200 0.84000
Cu	Cu	0.26720 0.24690 0.24800 0.82000
Cu	Cu	0.23280 0.74690 0.74800 0.82800
Cu	Cu	0.50000 0.50000 -0.00000 0.83400
Cu	Cu	0.50000 0.50000 0.50000 0.77400
Cu	Cu	-0.00000 0.00000 -0.00000 0.67500
Cu	Cu	-0.00000 0.00000 0.50000 0.80400
Cu	Cu	0.76720 0.25310 0.25200 0.83200
H 	H 	0.26300 0.11230 0.40240 -0.06300
H 	H 	0.25000 0.93870 0.40780 0.18300
H 	H 	0.72770 0.64830 0.89870 -0.02500
H 	H 	0.77230 0.14830 0.39870 -0.08300
H 	H 	0.73290 0.86200 0.91340 -0.01800
H 	H 	0.26710 0.13800 0.08660 -0.07400
H 	H 	0.76880 0.14190 0.10390 -0.11800
H 	H 	0.23120 0.85810 0.89610 -0.01700
H 	H 	0.23290 0.63800 0.58660 -0.06100
H 	H 	0.22770 0.85170 0.60130 -0.01000
H 	H 	0.73120 0.64190 0.60390 -0.06000
H 	H 	0.27230 0.35170 0.10130 -0.06900
H 	H 	0.76710 0.36200 0.41340 -0.04100
H 	H 	0.26880 0.35810 0.39610 -0.08400
H 	H 	0.75000 0.56130 0.09220 0.16800
H 	H 	0.73700 0.88770 0.59760 -0.02200
H 	H 	0.75000 0.06130 0.59220 0.13400
H 	H 	0.25000 0.43870 0.90780 0.15000
H 	H 	0.76300 0.38770 0.09760 -0.04600
H 	H 	0.23700 0.61230 0.90240 -0.04200
C 	C 	0.11760 0.85050 0.60920 0.02100
C 	C 	0.65330 0.35880 0.11420 0.06300
C 	C 	0.35370 0.65050 0.60680 0.05000
C 	C 	0.62550 0.64870 0.61230 0.09000
C 	C 	0.61760 0.64950 0.89080 0.10200
C 	C 	0.37450 0.35130 0.38770 0.09100
C 	C 	0.64630 0.34950 0.39320 0.05100
C 	C 	0.85370 0.84950 0.89320 0.08000
C 	C 	0.12550 0.85130 0.88770 0.02100
C 	C 	0.87450 0.14870 0.11230 0.16600
C 	C 	0.84670 0.85880 0.61420 0.08500
C 	C 	0.38240 0.35050 0.10920 0.08300
C 	C 	0.14630 0.15050 0.10680 0.02300
C 	C 	0.34670 0.64120 0.88580 0.07200
C 	C 	0.88240 0.14950 0.39080 0.16900
C 	C 	0.15330 0.14120 0.38580 0.04800
N 	N 	0.00610 0.11050 0.07180 -0.35200
N 	N 	0.57550 0.70700 0.66850 -0.22300
N 	N 	0.89870 0.79200 0.83460 -0.18900
N 	N 	0.48450 0.60460 0.92450 -0.22600
N 	N 	0.01550 0.10460 0.42450 -0.30900
N 	N 	0.98450 0.89540 0.57550 -0.17600
N 	N 	0.60130 0.29200 0.33460 -0.21900
N 	N 	0.39410 0.70210 0.83040 -0.22000
N 	N 	0.57070 0.70840 0.83380 -0.22100
N 	N 	0.50610 0.38950 0.42820 -0.28800
N 	N 	0.49390 0.61050 0.57180 -0.28400
N 	N 	0.92930 0.20840 0.33380 -0.21400
N 	N 	0.39870 0.70800 0.66540 -0.21700
N 	N 	0.92450 0.20700 0.16850 -0.21800
N 	N 	0.60590 0.29790 0.16960 -0.22500
N 	N 	0.42450 0.29300 0.33150 -0.23200
N 	N 	0.10590 0.20210 0.33040 -0.25200
N 	N 	0.99390 0.88950 0.92820 -0.18600
N 	N 	0.89410 0.79790 0.66960 -0.19400
N 	N 	0.10130 0.20800 0.16540 -0.24800
N 	N 	0.51550 0.39540 0.07550 -0.26500
N 	N 	0.07070 0.79160 0.66620 -0.23900
N 	N 	0.42930 0.29160 0.16620 -0.23200
N 	N 	0.07550 0.79300 0.83150 -0.23600
O 	O 	0.33410 0.41430 0.93940 -0.40800
O 	O 	0.16590 0.91430 0.43940 -0.43500
O 	O 	0.83410 0.08570 0.56060 -0.43900
O 	O 	0.66590 0.58570 0.06060 -0.47700
