data_crystal

_cell_length_a 21.68190
_cell_length_b 21.68190
_cell_length_c 7.07940
_cell_angle_alpha 90.00000
_cell_angle_beta  90.00000
_cell_angle_gamma 120.00000

_symmetry_space_group_name_	'P 1'
_symmetry_space_group_name_H-M	'P 1'

loop_
_symmetry_equiv_pos_as_xyz
  x,y,z

loop_
_atom_site_label
_atom_site_type_symbol
_atom_site_fract_x
_atom_site_fract_y
_atom_site_fract_z
_atom_site_charge
Mn	Mn	0.60964 0.27167 0.14546 1.27000
O 	O 	0.65949 0.23870 0.95910 -0.60300
O 	O 	0.64384 0.28230 0.59490 -0.59700
O 	O 	0.59350 0.20226 0.37860 -0.50000
C 	C 	0.63190 0.17980 0.87070 0.30600
C 	C 	0.61120 0.16490 0.68120 -0.32300
C 	C 	0.57610 0.09580 0.61670 0.10600
C 	C 	0.56340 0.03860 0.71400 -0.07200
C 	C 	0.58780 0.04980 0.89710 0.05900
C 	C 	0.61330 0.11440 0.98720 -0.23700
C 	C 	0.61770 0.21910 0.54210 0.47800
H 	H 	0.58266 0.00968 0.96495 0.00500
H 	H 	0.62577 0.11883 0.11707 0.10300
H 	H 	0.56208 0.08548 0.48814 0.00100
Mn	Mn	0.72833 0.33797 0.81213 1.27200
O 	O 	0.76130 0.42079 0.62577 -0.60300
O 	O 	0.71770 0.36154 0.26157 -0.59600
O 	O 	0.79774 0.39124 0.04527 -0.49900
C 	C 	0.82020 0.45210 0.53737 0.30800
C 	C 	0.83510 0.44630 0.34787 -0.32400
C 	C 	0.90420 0.48030 0.28337 0.10800
C 	C 	0.96140 0.52480 0.38067 -0.07400
C 	C 	0.95020 0.53800 0.56377 0.06300
C 	C 	0.88560 0.49890 0.65387 -0.24200
C 	C 	0.78090 0.39860 0.20877 0.47900
H 	H 	0.99032 0.57298 0.63162 0.00300
H 	H 	0.88117 0.50694 0.78374 0.10600
H 	H 	0.91452 0.47660 0.15481 0.00100
Mn	Mn	0.66203 0.39036 0.47879 1.27200
O 	O 	0.57921 0.34051 0.29243 -0.60300
O 	O 	0.63846 0.35616 0.92823 -0.59600
O 	O 	0.60876 0.40650 0.71193 -0.49900
C 	C 	0.54790 0.36810 0.20403 0.30800
C 	C 	0.55370 0.38880 0.01453 -0.32600
C 	C 	0.51970 0.42390 0.95003 0.10900
C 	C 	0.47520 0.43660 0.04733 -0.07400
C 	C 	0.46200 0.41220 0.23043 0.06300
C 	C 	0.50110 0.38670 0.32053 -0.24300
C 	C 	0.60140 0.38230 0.87543 0.48000
H 	H 	0.42702 0.41734 0.29828 0.00300
H 	H 	0.49306 0.37423 0.45040 0.10600
H 	H 	0.52340 0.43792 0.82147 0.00000
Mn	Mn	0.27167 0.60964 0.85454 1.27100
O 	O 	0.23870 0.65949 0.04090 -0.60200
O 	O 	0.28230 0.64384 0.40510 -0.59600
O 	O 	0.20226 0.59350 0.62140 -0.49900
C 	C 	0.17980 0.63190 0.12930 0.30600
C 	C 	0.16490 0.61120 0.31880 -0.32300
C 	C 	0.09580 0.57610 0.38330 0.10600
C 	C 	0.03860 0.56340 0.28600 -0.07200
C 	C 	0.04980 0.58780 0.10290 0.05900
C 	C 	0.11440 0.61330 0.01280 -0.23700
C 	C 	0.21910 0.61770 0.45790 0.47800
H 	H 	0.00968 0.58266 0.03505 0.00500
H 	H 	0.11883 0.62577 0.88293 0.10300
H 	H 	0.08548 0.56208 0.51186 0.00100
Mn	Mn	0.33797 0.72833 0.18787 1.27200
O 	O 	0.42079 0.76130 0.37423 -0.60300
O 	O 	0.36154 0.71770 0.73843 -0.59600
O 	O 	0.39124 0.79774 0.95473 -0.49900
C 	C 	0.45210 0.82020 0.46263 0.30800
C 	C 	0.44630 0.83510 0.65213 -0.32400
C 	C 	0.48030 0.90420 0.71663 0.10800
C 	C 	0.52480 0.96140 0.61933 -0.07400
C 	C 	0.53800 0.95020 0.43623 0.06300
C 	C 	0.49890 0.88560 0.34613 -0.24200
C 	C 	0.39860 0.78090 0.79123 0.47900
H 	H 	0.57298 0.99032 0.36838 0.00300
H 	H 	0.50694 0.88117 0.21626 0.10600
H 	H 	0.47660 0.91452 0.84519 0.00100
Mn	Mn	0.39036 0.66203 0.52121 1.27200
O 	O 	0.34051 0.57921 0.70757 -0.60300
O 	O 	0.35616 0.63846 0.07177 -0.59600
O 	O 	0.40650 0.60876 0.28807 -0.49900
C 	C 	0.36810 0.54790 0.79597 0.30800
C 	C 	0.38880 0.55370 0.98547 -0.32600
C 	C 	0.42390 0.51970 0.04997 0.10900
C 	C 	0.43660 0.47520 0.95267 -0.07400
C 	C 	0.41220 0.46200 0.76957 0.06300
C 	C 	0.38670 0.50110 0.67947 -0.24300
C 	C 	0.38230 0.60140 0.12457 0.48000
H 	H 	0.41734 0.42702 0.70172 0.00300
H 	H 	0.37423 0.49306 0.54960 0.10600
H 	H 	0.43792 0.52340 0.17853 0.00000
