data_crystal

_cell_length_a 25.40840
_cell_length_b 25.40840
_cell_length_c 25.40840
_cell_angle_alpha 90.00000
_cell_angle_beta  90.00000
_cell_angle_gamma 90.00000

_symmetry_space_group_name_	'P 1'
_symmetry_space_group_name_H-M	'P 1'

loop_
_symmetry_equiv_pos_as_xyz
  x,y,z

loop_
_atom_site_label
_atom_site_type_symbol
_atom_site_fract_x
_atom_site_fract_y
_atom_site_fract_z
_atom_site_charge
C 	C 	0.63970 0.67510 0.95950 -0.02800
H 	H 	0.61480 0.67490 0.93100 0.06400
C 	C 	0.67870 0.71400 0.96140 0.08400
H 	H 	0.67940 0.74100 0.93490 0.03100
C 	C 	0.36030 0.32490 0.95950 -0.03300
H 	H 	0.38520 0.32510 0.93100 0.06100
C 	C 	0.32130 0.28600 0.96140 0.09400
H 	H 	0.32060 0.25900 0.93490 0.01900
C 	C 	0.36030 0.67510 0.04050 -0.08400
H 	H 	0.38520 0.67490 0.06900 0.05100
C 	C 	0.32130 0.71400 0.03860 0.03000
H 	H 	0.32060 0.74100 0.06510 0.01500
C 	C 	0.63970 0.32490 0.04050 -0.08700
H 	H 	0.61480 0.32510 0.06900 0.04900
C 	C 	0.67870 0.28600 0.03860 0.02800
H 	H 	0.67940 0.25900 0.06510 0.01000
C 	C 	0.95950 0.63970 0.67510 -0.02800
H 	H 	0.93100 0.61480 0.67490 0.06400
C 	C 	0.96140 0.67870 0.71400 0.08400
H 	H 	0.93490 0.67940 0.74100 0.03100
C 	C 	0.95950 0.36030 0.32490 -0.03300
H 	H 	0.93100 0.38520 0.32510 0.06100
C 	C 	0.96140 0.32130 0.28600 0.09400
H 	H 	0.93490 0.32060 0.25900 0.01900
C 	C 	0.04050 0.36030 0.67510 -0.08400
H 	H 	0.06900 0.38520 0.67490 0.05100
C 	C 	0.03860 0.32130 0.71400 0.03000
H 	H 	0.06510 0.32060 0.74100 0.01600
C 	C 	0.04050 0.63970 0.32490 -0.08600
H 	H 	0.06900 0.61480 0.32510 0.05000
C 	C 	0.03860 0.67870 0.28600 0.02900
H 	H 	0.06510 0.67940 0.25900 0.01100
C 	C 	0.67510 0.95950 0.63970 -0.02700
H 	H 	0.67490 0.93100 0.61480 0.06500
C 	C 	0.71400 0.96140 0.67870 0.08500
H 	H 	0.74100 0.93490 0.67940 0.03200
C 	C 	0.32490 0.95950 0.36030 -0.03200
H 	H 	0.32510 0.93100 0.38520 0.06200
C 	C 	0.28600 0.96140 0.32130 0.09500
H 	H 	0.25900 0.93490 0.32060 0.02000
C 	C 	0.67510 0.04050 0.36030 -0.08300
H 	H 	0.67490 0.06900 0.38520 0.05200
C 	C 	0.71400 0.03860 0.32130 0.03100
H 	H 	0.74100 0.06510 0.32060 0.01600
C 	C 	0.32490 0.04050 0.63970 -0.08600
H 	H 	0.32510 0.06900 0.61480 0.05000
C 	C 	0.28600 0.03860 0.67870 0.02900
H 	H 	0.25900 0.06510 0.67940 0.01100
C 	C 	0.67510 0.63970 0.04050 -0.08200
H 	H 	0.67490 0.61480 0.06900 0.05300
C 	C 	0.71400 0.67870 0.03860 0.02600
H 	H 	0.74100 0.67940 0.06510 0.02000
C 	C 	0.32490 0.36030 0.04050 -0.08800
H 	H 	0.32510 0.38520 0.06900 0.04900
C 	C 	0.28600 0.32130 0.03860 0.03400
H 	H 	0.25900 0.32060 0.06510 0.00700
C 	C 	0.67510 0.36030 0.95950 -0.02900
H 	H 	0.67490 0.38520 0.93100 0.06500
C 	C 	0.71400 0.32130 0.96140 0.09100
H 	H 	0.74100 0.32060 0.93490 0.02900
C 	C 	0.32490 0.63970 0.95950 -0.03100
H 	H 	0.32510 0.61480 0.93100 0.06300
C 	C 	0.28600 0.67870 0.96140 0.09000
H 	H 	0.25900 0.67940 0.93490 0.02400
C 	C 	0.63970 0.95950 0.32490 -0.03100
H 	H 	0.61480 0.93100 0.32510 0.06300
C 	C 	0.67870 0.96140 0.28600 0.09000
H 	H 	0.67940 0.93490 0.25900 0.02400
C 	C 	0.36030 0.95950 0.67510 -0.02900
H 	H 	0.38520 0.93100 0.67490 0.06500
C 	C 	0.32130 0.96140 0.71400 0.09100
H 	H 	0.32060 0.93490 0.74100 0.02900
C 	C 	0.36030 0.04050 0.32490 -0.08800
H 	H 	0.38520 0.06900 0.32510 0.04900
C 	C 	0.32130 0.03860 0.28600 0.03400
H 	H 	0.32060 0.06510 0.25900 0.00700
C 	C 	0.63970 0.04050 0.67510 -0.08200
H 	H 	0.61480 0.06900 0.67490 0.05300
C 	C 	0.67870 0.03860 0.71400 0.02600
H 	H 	0.67940 0.06510 0.74100 0.02000
C 	C 	0.95950 0.67510 0.36030 -0.02900
H 	H 	0.93100 0.67490 0.38520 0.06500
C 	C 	0.96140 0.71400 0.32130 0.09100
H 	H 	0.93490 0.74100 0.32060 0.02900
C 	C 	0.95950 0.32490 0.63970 -0.03100
H 	H 	0.93100 0.32510 0.61480 0.06300
C 	C 	0.96140 0.28600 0.67870 0.09000
H 	H 	0.93490 0.25900 0.67940 0.02400
C 	C 	0.04050 0.67510 0.63970 -0.08200
H 	H 	0.06900 0.67490 0.61480 0.05300
C 	C 	0.03860 0.71400 0.67870 0.02600
H 	H 	0.06510 0.74100 0.67940 0.02000
C 	C 	0.04050 0.32490 0.36030 -0.08800
H 	H 	0.06900 0.32510 0.38520 0.04900
C 	C 	0.03860 0.28600 0.32130 0.03400
H 	H 	0.06510 0.25900 0.32060 0.00700
C 	C 	0.36030 0.32490 0.04050 -0.08800
H 	H 	0.38520 0.32510 0.06900 0.04900
C 	C 	0.32130 0.28600 0.03860 0.03400
H 	H 	0.32060 0.25900 0.06510 0.00700
C 	C 	0.63970 0.67510 0.04050 -0.08200
H 	H 	0.61480 0.67490 0.06900 0.05300
C 	C 	0.67870 0.71400 0.03860 0.02600
H 	H 	0.67940 0.74100 0.06510 0.02000
C 	C 	0.63970 0.32490 0.95950 -0.03100
H 	H 	0.61480 0.32510 0.93100 0.06300
C 	C 	0.67870 0.28600 0.96140 0.09000
H 	H 	0.67940 0.25900 0.93490 0.02400
C 	C 	0.36030 0.67510 0.95950 -0.02900
H 	H 	0.38520 0.67490 0.93100 0.06500
C 	C 	0.32130 0.71400 0.96140 0.09100
H 	H 	0.32060 0.74100 0.93490 0.02900
C 	C 	0.04050 0.36030 0.32490 -0.08800
H 	H 	0.06900 0.38520 0.32510 0.04900
C 	C 	0.03860 0.32130 0.28600 0.03400
H 	H 	0.06510 0.32060 0.25900 0.00700
C 	C 	0.04050 0.63970 0.67510 -0.08200
H 	H 	0.06900 0.61480 0.67490 0.05300
C 	C 	0.03860 0.67870 0.71400 0.02600
H 	H 	0.06510 0.67940 0.74100 0.02000
C 	C 	0.95950 0.63970 0.32490 -0.03100
H 	H 	0.93100 0.61480 0.32510 0.06300
C 	C 	0.96140 0.67870 0.28600 0.09000
H 	H 	0.93490 0.67940 0.25900 0.02400
C 	C 	0.95950 0.36030 0.67510 -0.02900
H 	H 	0.93100 0.38520 0.67490 0.06500
C 	C 	0.96140 0.32130 0.71400 0.09100
H 	H 	0.93490 0.32060 0.74100 0.02900
C 	C 	0.32490 0.04050 0.36030 -0.08800
H 	H 	0.32510 0.06900 0.38520 0.04900
C 	C 	0.28600 0.03860 0.32130 0.03400
H 	H 	0.25900 0.06510 0.32060 0.00700
C 	C 	0.67510 0.04050 0.63970 -0.08200
H 	H 	0.67490 0.06900 0.61480 0.05300
C 	C 	0.71400 0.03860 0.67870 0.02600
H 	H 	0.74100 0.06510 0.67940 0.02000
C 	C 	0.32490 0.95950 0.63970 -0.03100
H 	H 	0.32510 0.93100 0.61480 0.06300
C 	C 	0.28600 0.96140 0.67870 0.09000
H 	H 	0.25900 0.93490 0.67940 0.02400
C 	C 	0.67510 0.95950 0.36030 -0.02900
H 	H 	0.67490 0.93100 0.38520 0.06500
C 	C 	0.71400 0.96140 0.32130 0.09100
H 	H 	0.74100 0.93490 0.32060 0.02900
C 	C 	0.32490 0.36030 0.95950 -0.03200
H 	H 	0.32510 0.38520 0.93100 0.06200
C 	C 	0.28600 0.32130 0.96140 0.09500
H 	H 	0.25900 0.32060 0.93490 0.02000
C 	C 	0.67510 0.63970 0.95950 -0.02700
H 	H 	0.67490 0.61480 0.93100 0.06500
C 	C 	0.71400 0.67870 0.96140 0.08500
H 	H 	0.74100 0.67940 0.93490 0.03200
C 	C 	0.32490 0.63970 0.04050 -0.08600
H 	H 	0.32510 0.61480 0.06900 0.05000
C 	C 	0.28600 0.67870 0.03860 0.02900
H 	H 	0.25900 0.67940 0.06510 0.01100
C 	C 	0.67510 0.36030 0.04050 -0.08300
H 	H 	0.67490 0.38520 0.06900 0.05200
C 	C 	0.71400 0.32130 0.03860 0.03100
H 	H 	0.74100 0.32060 0.06510 0.01600
C 	C 	0.36030 0.04050 0.67510 -0.08300
H 	H 	0.38520 0.06900 0.67490 0.05200
C 	C 	0.32130 0.03860 0.71400 0.03100
H 	H 	0.32060 0.06510 0.74100 0.01600
C 	C 	0.63970 0.04050 0.32490 -0.08600
H 	H 	0.61480 0.06900 0.32510 0.05000
C 	C 	0.67870 0.03860 0.28600 0.02900
H 	H 	0.67940 0.06510 0.25900 0.01100
C 	C 	0.63970 0.95950 0.67510 -0.02700
H 	H 	0.61480 0.93100 0.67490 0.06500
C 	C 	0.67870 0.96140 0.71400 0.08500
H 	H 	0.67940 0.93490 0.74100 0.03200
C 	C 	0.36030 0.95950 0.32490 -0.03200
H 	H 	0.38520 0.93100 0.32510 0.06200
C 	C 	0.32130 0.96140 0.28600 0.09500
H 	H 	0.32060 0.93490 0.25900 0.02000
C 	C 	0.04050 0.32490 0.63970 -0.08600
H 	H 	0.06900 0.32510 0.61480 0.05000
C 	C 	0.03860 0.28600 0.67870 0.02900
H 	H 	0.06510 0.25900 0.67940 0.01100
C 	C 	0.04050 0.67510 0.36030 -0.08300
H 	H 	0.06900 0.67490 0.38520 0.05200
C 	C 	0.03860 0.71400 0.32130 0.03100
H 	H 	0.06510 0.74100 0.32060 0.01600
C 	C 	0.95950 0.32490 0.36030 -0.03200
H 	H 	0.93100 0.32510 0.38520 0.06200
C 	C 	0.96140 0.28600 0.32130 0.09500
H 	H 	0.93490 0.25900 0.32060 0.02000
C 	C 	0.95950 0.67510 0.63970 -0.02700
H 	H 	0.93100 0.67490 0.61480 0.06500
C 	C 	0.96140 0.71400 0.67870 0.08500
H 	H 	0.93490 0.74100 0.67940 0.03200
Zr	Zr	-0.00000 0.90239 -0.00000 3.19800
Zr	Zr	-0.00000 0.09761 -0.00000 3.19800
Zr	Zr	-0.00000 -0.00000 0.90239 3.19800
Zr	Zr	-0.00000 -0.00000 0.09761 3.19800
Zr	Zr	0.90239 0.00000 -0.00000 3.19800
Zr	Zr	0.09761 0.00000 -0.00000 3.19800
Zn	Zn	0.50000 0.50000 -0.00000 1.15900
Zn	Zn	0.00000 0.50000 0.50000 1.15900
Zn	Zn	0.50000 0.00000 0.50000 1.15900
O 	O 	0.95200 0.95200 0.95200 -1.11600
O 	O 	0.04800 0.04800 0.95200 -1.23100
O 	O 	0.04800 0.95200 0.04800 -1.23100
O 	O 	0.95200 0.04800 0.04800 -1.23100
O 	O 	0.95200 0.95200 0.04800 -1.17100
O 	O 	0.04800 0.04800 0.04800 -1.29600
O 	O 	0.95200 0.04800 0.95200 -1.17100
O 	O 	0.04800 0.95200 0.95200 -1.17100
O 	O 	0.92360 0.85990 -0.00000 -0.62400
C 	C 	0.84680 0.78160 -0.00000 0.21700
H 	H 	0.88190 0.77120 -0.00000 -0.01900
C 	C 	0.80730 0.74420 -0.00000 -0.32300
H 	H 	0.81670 0.70890 -0.00000 0.13700
C 	C 	0.61210 0.54320 -0.00000 0.07400
C 	C 	0.66640 0.52640 -0.00000 -0.08700
H 	H 	0.69580 0.54810 -0.00000 0.04500
O 	O 	0.07640 0.14010 -0.00000 -0.67900
C 	C 	0.15320 0.21840 -0.00000 0.24600
H 	H 	0.11810 0.22880 -0.00000 -0.05700
C 	C 	0.19270 0.25580 -0.00000 -0.36700
H 	H 	0.18330 0.29110 -0.00000 0.13500
C 	C 	0.38790 0.45680 -0.00000 0.07300
C 	C 	0.33360 0.47360 -0.00000 -0.08900
H 	H 	0.30420 0.45190 -0.00000 0.03800
O 	O 	0.07640 0.85990 -0.00000 -0.67200
C 	C 	0.15320 0.78160 -0.00000 0.23100
H 	H 	0.11810 0.77120 -0.00000 -0.04900
C 	C 	0.19270 0.74420 -0.00000 -0.34600
H 	H 	0.18330 0.70890 -0.00000 0.13000
C 	C 	0.38790 0.54320 -0.00000 0.07300
C 	C 	0.33360 0.52640 -0.00000 -0.08900
H 	H 	0.30420 0.54810 -0.00000 0.03900
O 	O 	0.92360 0.14010 -0.00000 -0.62900
C 	C 	0.84680 0.21840 -0.00000 0.23200
H 	H 	0.88190 0.22880 -0.00000 -0.02600
C 	C 	0.80730 0.25580 -0.00000 -0.34200
H 	H 	0.81670 0.29110 -0.00000 0.14200
C 	C 	0.61210 0.45680 -0.00000 0.07400
C 	C 	0.66640 0.47360 -0.00000 -0.08700
H 	H 	0.69580 0.45190 -0.00000 0.04500
O 	O 	0.00000 0.92360 0.85990 -0.62400
C 	C 	0.00000 0.84680 0.78160 0.21700
H 	H 	0.00000 0.88190 0.77120 -0.01900
C 	C 	0.00000 0.80730 0.74420 -0.32300
H 	H 	0.00000 0.81670 0.70890 0.13700
C 	C 	0.00000 0.61210 0.54320 0.07400
C 	C 	0.00000 0.66640 0.52640 -0.08700
H 	H 	0.00000 0.69580 0.54810 0.04500
O 	O 	-0.00000 0.07640 0.14010 -0.67900
C 	C 	0.00000 0.15320 0.21840 0.24600
H 	H 	0.00000 0.11810 0.22880 -0.05700
C 	C 	-0.00000 0.19270 0.25580 -0.36700
H 	H 	-0.00000 0.18330 0.29110 0.13500
C 	C 	0.00000 0.38790 0.45680 0.07300
C 	C 	0.00000 0.33360 0.47360 -0.08900
H 	H 	-0.00000 0.30420 0.45190 0.03800
O 	O 	-0.00000 0.07640 0.85990 -0.67200
C 	C 	-0.00000 0.15320 0.78160 0.23100
H 	H 	-0.00000 0.11810 0.77120 -0.04900
C 	C 	0.00000 0.19270 0.74420 -0.34600
H 	H 	0.00000 0.18330 0.70890 0.13000
C 	C 	0.00000 0.38790 0.54320 0.07300
C 	C 	0.00000 0.33360 0.52640 -0.08900
H 	H 	-0.00000 0.30420 0.54810 0.03900
O 	O 	0.00000 0.92360 0.14010 -0.62900
C 	C 	0.00000 0.84680 0.21840 0.23200
H 	H 	0.00000 0.88190 0.22880 -0.02600
C 	C 	0.00000 0.80730 0.25580 -0.34200
H 	H 	0.00000 0.81670 0.29110 0.14200
C 	C 	-0.00000 0.61210 0.45680 0.07400
C 	C 	0.00000 0.66640 0.47360 -0.08700
H 	H 	0.00000 0.69580 0.45190 0.04500
O 	O 	0.85990 0.00000 0.92360 -0.62400
C 	C 	0.78160 0.00000 0.84680 0.21700
H 	H 	0.77120 0.00000 0.88190 -0.01900
C 	C 	0.74420 0.00000 0.80730 -0.32300
H 	H 	0.70890 -0.00000 0.81670 0.13700
C 	C 	0.54320 0.00000 0.61210 0.07400
C 	C 	0.52640 0.00000 0.66640 -0.08700
H 	H 	0.54810 0.00000 0.69580 0.04500
O 	O 	0.14010 0.00000 0.07640 -0.67900
C 	C 	0.21840 0.00000 0.15320 0.24600
H 	H 	0.22880 0.00000 0.11810 -0.05700
C 	C 	0.25580 0.00000 0.19270 -0.36700
H 	H 	0.29110 0.00000 0.18330 0.13500
C 	C 	0.45680 0.00000 0.38790 0.07300
C 	C 	0.47360 0.00000 0.33360 -0.08900
H 	H 	0.45190 -0.00000 0.30420 0.03800
O 	O 	0.85990 0.00000 0.07640 -0.67200
C 	C 	0.78160 0.00000 0.15320 0.23100
H 	H 	0.77120 0.00000 0.11810 -0.04900
C 	C 	0.74420 0.00000 0.19270 -0.34600
H 	H 	0.70890 0.00000 0.18330 0.13000
C 	C 	0.54320 0.00000 0.38790 0.07300
C 	C 	0.52640 0.00000 0.33360 -0.08900
H 	H 	0.54810 -0.00000 0.30420 0.03900
O 	O 	0.14010 0.00000 0.92360 -0.62900
C 	C 	0.21840 0.00000 0.84680 0.23200
H 	H 	0.22880 0.00000 0.88190 -0.02600
C 	C 	0.25580 0.00000 0.80730 -0.34200
H 	H 	0.29110 -0.00000 0.81670 0.14200
C 	C 	0.45680 0.00000 0.61210 0.07400
C 	C 	0.47360 0.00000 0.66640 -0.08700
H 	H 	0.45190 0.00000 0.69580 0.04500
O 	O 	0.85990 0.92360 -0.00000 -0.62400
C 	C 	0.78160 0.84680 -0.00000 0.21700
H 	H 	0.77120 0.88190 -0.00000 -0.01900
C 	C 	0.74420 0.80730 -0.00000 -0.32300
H 	H 	0.70890 0.81670 -0.00000 0.13700
C 	C 	0.54320 0.61210 -0.00000 0.07400
C 	C 	0.52640 0.66640 -0.00000 -0.08700
H 	H 	0.54810 0.69580 -0.00000 0.04500
O 	O 	0.14010 0.07640 -0.00000 -0.67900
C 	C 	0.21840 0.15320 -0.00000 0.24600
H 	H 	0.22880 0.11810 -0.00000 -0.05700
C 	C 	0.25580 0.19270 -0.00000 -0.36700
H 	H 	0.29110 0.18330 -0.00000 0.13500
C 	C 	0.45680 0.38790 -0.00000 0.07300
C 	C 	0.47360 0.33360 -0.00000 -0.08900
H 	H 	0.45190 0.30420 -0.00000 0.03800
O 	O 	0.85990 0.07640 -0.00000 -0.67200
C 	C 	0.78160 0.15320 -0.00000 0.23100
H 	H 	0.77120 0.11810 -0.00000 -0.04900
C 	C 	0.74420 0.19270 -0.00000 -0.34600
H 	H 	0.70890 0.18330 -0.00000 0.13000
C 	C 	0.54320 0.38790 -0.00000 0.07300
C 	C 	0.52640 0.33360 -0.00000 -0.08900
H 	H 	0.54810 0.30420 -0.00000 0.03900
O 	O 	0.14010 0.92360 -0.00000 -0.62900
C 	C 	0.21840 0.84680 -0.00000 0.23200
H 	H 	0.22880 0.88190 -0.00000 -0.02600
C 	C 	0.25580 0.80730 -0.00000 -0.34200
H 	H 	0.29110 0.81670 -0.00000 0.14200
C 	C 	0.45680 0.61210 -0.00000 0.07400
C 	C 	0.47360 0.66640 -0.00000 -0.08700
H 	H 	0.45190 0.69580 -0.00000 0.04500
O 	O 	0.92360 0.00000 0.14010 -0.62900
C 	C 	0.84680 0.00000 0.21840 0.23200
H 	H 	0.88190 0.00000 0.22880 -0.02600
C 	C 	0.80730 -0.00000 0.25580 -0.34200
H 	H 	0.81670 0.00000 0.29110 0.14200
C 	C 	0.61210 0.00000 0.45680 0.07400
C 	C 	0.66640 0.00000 0.47360 -0.08700
H 	H 	0.69580 0.00000 0.45190 0.04500
O 	O 	0.07640 0.00000 0.85990 -0.67200
C 	C 	0.15320 -0.00000 0.78160 0.23100
H 	H 	0.11810 0.00000 0.77120 -0.04900
C 	C 	0.19270 0.00000 0.74420 -0.34600
H 	H 	0.18330 0.00000 0.70890 0.13000
C 	C 	0.38790 0.00000 0.54320 0.07300
C 	C 	0.33360 0.00000 0.52640 -0.08900
H 	H 	0.30420 0.00000 0.54810 0.03900
O 	O 	0.07640 0.00000 0.14010 -0.67900
C 	C 	0.15320 0.00000 0.21840 0.24600
H 	H 	0.11810 0.00000 0.22880 -0.05700
C 	C 	0.19270 -0.00000 0.25580 -0.36700
H 	H 	0.18330 0.00000 0.29110 0.13500
C 	C 	0.38790 0.00000 0.45680 0.07300
C 	C 	0.33360 0.00000 0.47360 -0.08900
H 	H 	0.30420 0.00000 0.45190 0.03800
O 	O 	0.92360 0.00000 0.85990 -0.62400
C 	C 	0.84680 -0.00000 0.78160 0.21700
H 	H 	0.88190 0.00000 0.77120 -0.01900
C 	C 	0.80730 0.00000 0.74420 -0.32300
H 	H 	0.81670 0.00000 0.70890 0.13700
C 	C 	0.61210 0.00000 0.54320 0.07400
C 	C 	0.66640 0.00000 0.52640 -0.08700
H 	H 	0.69580 0.00000 0.54810 0.04500
O 	O 	-0.00000 0.85990 0.07640 -0.67200
C 	C 	-0.00000 0.78160 0.15320 0.23100
H 	H 	-0.00000 0.77120 0.11810 -0.04900
C 	C 	0.00000 0.74420 0.19270 -0.34600
H 	H 	0.00000 0.70890 0.18330 0.13000
C 	C 	0.00000 0.54320 0.38790 0.07300
C 	C 	0.00000 0.52640 0.33360 -0.08900
H 	H 	-0.00000 0.54810 0.30420 0.03900
O 	O 	0.00000 0.14010 0.92360 -0.62900
C 	C 	0.00000 0.21840 0.84680 0.23200
H 	H 	-0.00000 0.22880 0.88190 -0.02600
C 	C 	0.00000 0.25580 0.80730 -0.34200
H 	H 	0.00000 0.29110 0.81670 0.14200
C 	C 	-0.00000 0.45680 0.61210 0.07400
C 	C 	-0.00000 0.47360 0.66640 -0.08700
H 	H 	0.00000 0.45190 0.69580 0.04500
O 	O 	0.00000 0.85990 0.92360 -0.62400
C 	C 	0.00000 0.78160 0.84680 0.21700
H 	H 	0.00000 0.77120 0.88190 -0.01900
C 	C 	0.00000 0.74420 0.80730 -0.32300
H 	H 	0.00000 0.70890 0.81670 0.13700
C 	C 	0.00000 0.54320 0.61210 0.07400
C 	C 	0.00000 0.52640 0.66640 -0.08700
H 	H 	-0.00000 0.54810 0.69580 0.04500
O 	O 	0.00000 0.14010 0.07640 -0.67900
C 	C 	0.00000 0.21840 0.15320 0.24600
H 	H 	0.00000 0.22880 0.11810 -0.05700
C 	C 	-0.00000 0.25580 0.19270 -0.36700
H 	H 	-0.00000 0.29110 0.18330 0.13500
C 	C 	0.00000 0.45680 0.38790 0.07300
C 	C 	0.00000 0.47360 0.33360 -0.08900
H 	H 	-0.00000 0.45190 0.30420 0.03800
C 	C 	0.87590 0.87590 -0.00000 0.53200
C 	C 	0.83410 0.83410 -0.00000 -0.25700
C 	C 	0.75640 0.75640 -0.00000 0.28000
C 	C 	0.71700 0.71700 -0.00000 -0.25800
C 	C 	0.59590 0.59590 -0.00000 -0.13200
C 	C 	0.63700 0.63700 -0.00000 0.01500
C 	C 	0.12410 0.12410 -0.00000 0.55100
C 	C 	0.16590 0.16590 -0.00000 -0.30800
C 	C 	0.24360 0.24360 -0.00000 0.31000
C 	C 	0.28300 0.28300 -0.00000 -0.28800
C 	C 	0.40410 0.40410 -0.00000 -0.13400
C 	C 	0.36300 0.36300 -0.00000 0.01900
C 	C 	0.12410 0.87590 -0.00000 0.54100
C 	C 	0.16590 0.83410 -0.00000 -0.28200
C 	C 	0.24360 0.75640 -0.00000 0.29400
C 	C 	0.28300 0.71700 -0.00000 -0.27300
C 	C 	0.40410 0.59590 -0.00000 -0.13300
C 	C 	0.36300 0.63700 -0.00000 0.01700
C 	C 	0.87590 0.12410 -0.00000 0.54100
C 	C 	0.83410 0.16590 -0.00000 -0.28200
C 	C 	0.75640 0.24360 -0.00000 0.29400
C 	C 	0.71700 0.28300 -0.00000 -0.27300
C 	C 	0.59590 0.40410 -0.00000 -0.13300
C 	C 	0.63700 0.36300 -0.00000 0.01700
C 	C 	0.00000 0.87590 0.87590 0.53200
C 	C 	-0.00000 0.83410 0.83410 -0.25700
C 	C 	0.00000 0.75640 0.75640 0.28000
C 	C 	-0.00000 0.71700 0.71700 -0.25800
C 	C 	0.00000 0.59590 0.59590 -0.13200
C 	C 	0.00000 0.63700 0.63700 0.01500
C 	C 	0.00000 0.12410 0.12410 0.55100
C 	C 	0.00000 0.16590 0.16590 -0.30800
C 	C 	0.00000 0.24360 0.24360 0.31000
C 	C 	0.00000 0.28300 0.28300 -0.28800
C 	C 	0.00000 0.40410 0.40410 -0.13400
C 	C 	0.00000 0.36300 0.36300 0.01900
C 	C 	-0.00000 0.12410 0.87590 0.54100
C 	C 	-0.00000 0.16590 0.83410 -0.28200
C 	C 	0.00000 0.24360 0.75640 0.29400
C 	C 	-0.00000 0.28300 0.71700 -0.27300
C 	C 	0.00000 0.40410 0.59590 -0.13300
C 	C 	0.00000 0.36300 0.63700 0.01700
C 	C 	-0.00000 0.87590 0.12410 0.54100
C 	C 	-0.00000 0.83410 0.16590 -0.28200
C 	C 	0.00000 0.75640 0.24360 0.29400
C 	C 	-0.00000 0.71700 0.28300 -0.27300
C 	C 	0.00000 0.59590 0.40410 -0.13300
C 	C 	0.00000 0.63700 0.36300 0.01700
C 	C 	0.87590 0.00000 0.87590 0.53200
C 	C 	0.83410 -0.00000 0.83410 -0.25700
C 	C 	0.75640 0.00000 0.75640 0.28000
C 	C 	0.71700 -0.00000 0.71700 -0.25800
C 	C 	0.59590 0.00000 0.59590 -0.13200
C 	C 	0.63700 0.00000 0.63700 0.01500
C 	C 	0.12410 0.00000 0.12410 0.55100
C 	C 	0.16590 0.00000 0.16590 -0.30800
C 	C 	0.24360 0.00000 0.24360 0.31000
C 	C 	0.28300 0.00000 0.28300 -0.28800
C 	C 	0.40410 0.00000 0.40410 -0.13400
C 	C 	0.36300 0.00000 0.36300 0.01900
C 	C 	0.87590 0.00000 0.12410 0.54100
C 	C 	0.83410 0.00000 0.16590 -0.28200
C 	C 	0.75640 0.00000 0.24360 0.29400
C 	C 	0.71700 0.00000 0.28300 -0.27300
C 	C 	0.59590 0.00000 0.40410 -0.13300
C 	C 	0.63700 0.00000 0.36300 0.01700
C 	C 	0.12410 0.00000 0.87590 0.54100
C 	C 	0.16590 -0.00000 0.83410 -0.28200
C 	C 	0.24360 0.00000 0.75640 0.29400
C 	C 	0.28300 -0.00000 0.71700 -0.27300
C 	C 	0.40410 0.00000 0.59590 -0.13300
C 	C 	0.36300 0.00000 0.63700 0.01700
N 	N 	0.58010 0.50000 -0.00000 -0.29300
N 	N 	0.41990 0.50000 -0.00000 -0.29300
N 	N 	0.00000 0.58010 0.50000 -0.29300
N 	N 	0.00000 0.41990 0.50000 -0.29300
N 	N 	0.50000 0.00000 0.58010 -0.29300
N 	N 	0.50000 -0.00000 0.41990 -0.29300
N 	N 	0.50000 0.58010 -0.00000 -0.29300
N 	N 	0.50000 0.41990 -0.00000 -0.29300
N 	N 	0.58010 0.00000 0.50000 -0.29300
N 	N 	0.41990 0.00000 0.50000 -0.29300
N 	N 	0.00000 0.50000 0.41990 -0.29300
N 	N 	0.00000 0.50000 0.58010 -0.29300
