data_crystal

_cell_length_a 25.36690
_cell_length_b 25.36690
_cell_length_c 25.36690
_cell_angle_alpha 90.00000
_cell_angle_beta  90.00000
_cell_angle_gamma 90.00000

_symmetry_space_group_name_	'P 1'
_symmetry_space_group_name_H-M	'P 1'

loop_
_symmetry_equiv_pos_as_xyz
  x,y,z

loop_
_atom_site_label
_atom_site_type_symbol
_atom_site_fract_x
_atom_site_fract_y
_atom_site_fract_z
_atom_site_charge
C 	C 	0.63810 0.67520 0.95800 -0.02700
H 	H 	0.61320 0.67500 0.92950 0.06600
C 	C 	0.67920 0.71470 0.96180 0.08600
H 	H 	0.67990 0.74170 0.93530 0.03300
C 	C 	0.36190 0.32480 0.95800 -0.03100
H 	H 	0.38680 0.32500 0.92950 0.06300
C 	C 	0.32080 0.28530 0.96180 0.09500
H 	H 	0.32010 0.25830 0.93530 0.02100
C 	C 	0.36190 0.67520 0.04200 -0.08300
H 	H 	0.38680 0.67500 0.07050 0.05300
C 	C 	0.32080 0.71470 0.03820 0.02700
H 	H 	0.32010 0.74170 0.06470 0.01900
C 	C 	0.63810 0.32480 0.04200 -0.08500
H 	H 	0.61320 0.32500 0.07050 0.05100
C 	C 	0.67920 0.28530 0.03820 0.02600
H 	H 	0.67990 0.25830 0.06470 0.01300
C 	C 	0.95800 0.63810 0.67520 -0.02700
H 	H 	0.92950 0.61320 0.67500 0.06600
C 	C 	0.96180 0.67920 0.71470 0.08600
H 	H 	0.93530 0.67990 0.74170 0.03300
C 	C 	0.95800 0.36190 0.32480 -0.03100
H 	H 	0.92950 0.38680 0.32500 0.06300
C 	C 	0.96180 0.32080 0.28530 0.09500
H 	H 	0.93530 0.32010 0.25830 0.02100
C 	C 	0.04200 0.36190 0.67520 -0.08300
H 	H 	0.07050 0.38680 0.67500 0.05300
C 	C 	0.03820 0.32080 0.71470 0.02700
H 	H 	0.06470 0.32010 0.74170 0.01900
C 	C 	0.04200 0.63810 0.32480 -0.08500
H 	H 	0.07050 0.61320 0.32500 0.05100
C 	C 	0.03820 0.67920 0.28530 0.02600
H 	H 	0.06470 0.67990 0.25830 0.01300
C 	C 	0.67520 0.95800 0.63810 -0.02700
H 	H 	0.67500 0.92950 0.61320 0.06600
C 	C 	0.71470 0.96180 0.67920 0.08600
H 	H 	0.74170 0.93530 0.67990 0.03300
C 	C 	0.32480 0.95800 0.36190 -0.03100
H 	H 	0.32500 0.92950 0.38680 0.06300
C 	C 	0.28530 0.96180 0.32080 0.09500
H 	H 	0.25830 0.93530 0.32010 0.02100
C 	C 	0.67520 0.04200 0.36190 -0.08300
H 	H 	0.67500 0.07050 0.38680 0.05300
C 	C 	0.71470 0.03820 0.32080 0.02700
H 	H 	0.74170 0.06470 0.32010 0.01900
C 	C 	0.32480 0.04200 0.63810 -0.08500
H 	H 	0.32500 0.07050 0.61320 0.05100
C 	C 	0.28530 0.03820 0.67920 0.02600
H 	H 	0.25830 0.06470 0.67990 0.01300
C 	C 	0.67520 0.63810 0.04200 -0.08100
H 	H 	0.67500 0.61320 0.07050 0.05400
C 	C 	0.71470 0.67920 0.03820 0.02300
H 	H 	0.74170 0.67990 0.06470 0.02200
C 	C 	0.32480 0.36190 0.04200 -0.08700
H 	H 	0.32500 0.38680 0.07050 0.05000
C 	C 	0.28530 0.32080 0.03820 0.03000
H 	H 	0.25830 0.32010 0.06470 0.01000
C 	C 	0.67520 0.36190 0.95800 -0.02800
H 	H 	0.67500 0.38680 0.92950 0.06500
C 	C 	0.71470 0.32080 0.96180 0.09100
H 	H 	0.74170 0.32010 0.93530 0.03000
C 	C 	0.32480 0.63810 0.95800 -0.03000
H 	H 	0.32500 0.61320 0.92950 0.06300
C 	C 	0.28530 0.67920 0.96180 0.09000
H 	H 	0.25830 0.67990 0.93530 0.02500
C 	C 	0.63810 0.95800 0.32480 -0.03000
H 	H 	0.61320 0.92950 0.32500 0.06300
C 	C 	0.67920 0.96180 0.28530 0.09000
H 	H 	0.67990 0.93530 0.25830 0.02500
C 	C 	0.36190 0.95800 0.67520 -0.02800
H 	H 	0.38680 0.92950 0.67500 0.06500
C 	C 	0.32080 0.96180 0.71470 0.09100
H 	H 	0.32010 0.93530 0.74170 0.03000
C 	C 	0.36190 0.04200 0.32480 -0.08700
H 	H 	0.38680 0.07050 0.32500 0.05000
C 	C 	0.32080 0.03820 0.28530 0.03000
H 	H 	0.32010 0.06470 0.25830 0.01000
C 	C 	0.63810 0.04200 0.67520 -0.08100
H 	H 	0.61320 0.07050 0.67500 0.05400
C 	C 	0.67920 0.03820 0.71470 0.02300
H 	H 	0.67990 0.06470 0.74170 0.02200
C 	C 	0.95800 0.67520 0.36190 -0.02800
H 	H 	0.92950 0.67500 0.38680 0.06500
C 	C 	0.96180 0.71470 0.32080 0.09100
H 	H 	0.93530 0.74170 0.32010 0.03000
C 	C 	0.95800 0.32480 0.63810 -0.03000
H 	H 	0.92950 0.32500 0.61320 0.06300
C 	C 	0.96180 0.28530 0.67920 0.09000
H 	H 	0.93530 0.25830 0.67990 0.02500
C 	C 	0.04200 0.67520 0.63810 -0.08100
H 	H 	0.07050 0.67500 0.61320 0.05400
C 	C 	0.03820 0.71470 0.67920 0.02300
H 	H 	0.06470 0.74170 0.67990 0.02200
C 	C 	0.04200 0.32480 0.36190 -0.08700
H 	H 	0.07050 0.32500 0.38680 0.05000
C 	C 	0.03820 0.28530 0.32080 0.03000
H 	H 	0.06470 0.25830 0.32010 0.01000
C 	C 	0.36190 0.32480 0.04200 -0.08700
H 	H 	0.38680 0.32500 0.07050 0.05000
C 	C 	0.32080 0.28530 0.03820 0.03000
H 	H 	0.32010 0.25830 0.06470 0.01000
C 	C 	0.63810 0.67520 0.04200 -0.08100
H 	H 	0.61320 0.67500 0.07050 0.05400
C 	C 	0.67920 0.71470 0.03820 0.02300
H 	H 	0.67990 0.74170 0.06470 0.02200
C 	C 	0.63810 0.32480 0.95800 -0.03000
H 	H 	0.61320 0.32500 0.92950 0.06300
C 	C 	0.67920 0.28530 0.96180 0.09000
H 	H 	0.67990 0.25830 0.93530 0.02500
C 	C 	0.36190 0.67520 0.95800 -0.02800
H 	H 	0.38680 0.67500 0.92950 0.06500
C 	C 	0.32080 0.71470 0.96180 0.09100
H 	H 	0.32010 0.74170 0.93530 0.03000
C 	C 	0.04200 0.36190 0.32480 -0.08700
H 	H 	0.07050 0.38680 0.32500 0.05000
C 	C 	0.03820 0.32080 0.28530 0.03000
H 	H 	0.06470 0.32010 0.25830 0.01000
C 	C 	0.04200 0.63810 0.67520 -0.08100
H 	H 	0.07050 0.61320 0.67500 0.05400
C 	C 	0.03820 0.67920 0.71470 0.02300
H 	H 	0.06470 0.67990 0.74170 0.02200
C 	C 	0.95800 0.63810 0.32480 -0.03000
H 	H 	0.92950 0.61320 0.32500 0.06300
C 	C 	0.96180 0.67920 0.28530 0.09000
H 	H 	0.93530 0.67990 0.25830 0.02500
C 	C 	0.95800 0.36190 0.67520 -0.02800
H 	H 	0.92950 0.38680 0.67500 0.06500
C 	C 	0.96180 0.32080 0.71470 0.09100
H 	H 	0.93530 0.32010 0.74170 0.03000
C 	C 	0.32480 0.04200 0.36190 -0.08700
H 	H 	0.32500 0.07050 0.38680 0.05000
C 	C 	0.28530 0.03820 0.32080 0.03000
H 	H 	0.25830 0.06470 0.32010 0.01000
C 	C 	0.67520 0.04200 0.63810 -0.08100
H 	H 	0.67500 0.07050 0.61320 0.05400
C 	C 	0.71470 0.03820 0.67920 0.02300
H 	H 	0.74170 0.06470 0.67990 0.02200
C 	C 	0.32480 0.95800 0.63810 -0.03000
H 	H 	0.32500 0.92950 0.61320 0.06300
C 	C 	0.28530 0.96180 0.67920 0.09000
H 	H 	0.25830 0.93530 0.67990 0.02500
C 	C 	0.67520 0.95800 0.36190 -0.02800
H 	H 	0.67500 0.92950 0.38680 0.06500
C 	C 	0.71470 0.96180 0.32080 0.09100
H 	H 	0.74170 0.93530 0.32010 0.03000
C 	C 	0.32480 0.36190 0.95800 -0.03100
H 	H 	0.32500 0.38680 0.92950 0.06300
C 	C 	0.28530 0.32080 0.96180 0.09500
H 	H 	0.25830 0.32010 0.93530 0.02100
C 	C 	0.67520 0.63810 0.95800 -0.02700
H 	H 	0.67500 0.61320 0.92950 0.06600
C 	C 	0.71470 0.67920 0.96180 0.08600
H 	H 	0.74170 0.67990 0.93530 0.03300
C 	C 	0.32480 0.63810 0.04200 -0.08500
H 	H 	0.32500 0.61320 0.07050 0.05100
C 	C 	0.28530 0.67920 0.03820 0.02600
H 	H 	0.25830 0.67990 0.06470 0.01300
C 	C 	0.67520 0.36190 0.04200 -0.08300
H 	H 	0.67500 0.38680 0.07050 0.05300
C 	C 	0.71470 0.32080 0.03820 0.02700
H 	H 	0.74170 0.32010 0.06470 0.01900
C 	C 	0.36190 0.04200 0.67520 -0.08300
H 	H 	0.38680 0.07050 0.67500 0.05300
C 	C 	0.32080 0.03820 0.71470 0.02700
H 	H 	0.32010 0.06470 0.74170 0.01900
C 	C 	0.63810 0.04200 0.32480 -0.08500
H 	H 	0.61320 0.07050 0.32500 0.05100
C 	C 	0.67920 0.03820 0.28530 0.02600
H 	H 	0.67990 0.06470 0.25830 0.01300
C 	C 	0.63810 0.95800 0.67520 -0.02700
H 	H 	0.61320 0.92950 0.67500 0.06600
C 	C 	0.67920 0.96180 0.71470 0.08600
H 	H 	0.67990 0.93530 0.74170 0.03300
C 	C 	0.36190 0.95800 0.32480 -0.03100
H 	H 	0.38680 0.92950 0.32500 0.06300
C 	C 	0.32080 0.96180 0.28530 0.09500
H 	H 	0.32010 0.93530 0.25830 0.02100
C 	C 	0.04200 0.32480 0.63810 -0.08500
H 	H 	0.07050 0.32500 0.61320 0.05100
C 	C 	0.03820 0.28530 0.67920 0.02600
H 	H 	0.06470 0.25830 0.67990 0.01300
C 	C 	0.04200 0.67520 0.36190 -0.08300
H 	H 	0.07050 0.67500 0.38680 0.05300
C 	C 	0.03820 0.71470 0.32080 0.02700
H 	H 	0.06470 0.74170 0.32010 0.01900
C 	C 	0.95800 0.32480 0.36190 -0.03100
H 	H 	0.92950 0.32500 0.38680 0.06300
C 	C 	0.96180 0.28530 0.32080 0.09500
H 	H 	0.93530 0.25830 0.32010 0.02100
C 	C 	0.95800 0.67520 0.63810 -0.02700
H 	H 	0.92950 0.67500 0.61320 0.06600
C 	C 	0.96180 0.71470 0.67920 0.08600
H 	H 	0.93530 0.74170 0.67990 0.03300
Zr	Zr	-0.00000 0.90218 -0.00000 3.19500
Zr	Zr	-0.00000 0.09782 -0.00000 3.19500
Zr	Zr	-0.00000 0.00000 0.90218 3.19500
Zr	Zr	0.00000 0.00000 0.09782 3.19500
Zr	Zr	0.90218 0.00000 -0.00000 3.19500
Zr	Zr	0.09782 0.00000 -0.00000 3.19500
Co	Co	0.50000 0.50000 -0.00000 1.09900
Co	Co	0.00000 0.50000 0.50000 1.09900
Co	Co	0.50000 0.00000 0.50000 1.09900
O 	O 	0.95157 0.95157 0.95157 -1.11900
O 	O 	0.04843 0.04843 0.95157 -1.23400
O 	O 	0.04843 0.95157 0.04843 -1.23400
O 	O 	0.95157 0.04843 0.04843 -1.23400
O 	O 	0.95157 0.95157 0.04843 -1.17400
O 	O 	0.04843 0.04843 0.04843 -1.29900
O 	O 	0.95157 0.04843 0.95157 -1.17400
O 	O 	0.04843 0.95157 0.95157 -1.17400
O 	O 	0.92379 0.85908 -0.00000 -0.61200
C 	C 	0.84670 0.78140 -0.00000 0.16700
H 	H 	0.88200 0.77130 -0.00000 -0.00100
C 	C 	0.80700 0.74260 -0.00000 -0.27700
H 	H 	0.81640 0.70720 -0.00000 0.12100
C 	C 	0.61000 0.54330 -0.00000 0.08200
C 	C 	0.66400 0.52690 -0.00000 -0.09000
H 	H 	0.69350 0.54880 -0.00000 0.04600
O 	O 	0.07621 0.14092 -0.00000 -0.66700
C 	C 	0.15330 0.21860 -0.00000 0.19000
H 	H 	0.11800 0.22870 -0.00000 -0.03600
C 	C 	0.19300 0.25740 -0.00000 -0.31400
H 	H 	0.18360 0.29280 -0.00000 0.11700
C 	C 	0.39000 0.45670 -0.00000 0.08100
C 	C 	0.33600 0.47310 -0.00000 -0.09200
H 	H 	0.30650 0.45120 -0.00000 0.04000
O 	O 	0.07621 0.85908 -0.00000 -0.66100
C 	C 	0.15330 0.78140 -0.00000 0.17800
H 	H 	0.11800 0.77130 -0.00000 -0.03000
C 	C 	0.19300 0.74260 -0.00000 -0.29700
H 	H 	0.18360 0.70720 -0.00000 0.11300
C 	C 	0.39000 0.54330 -0.00000 0.08100
C 	C 	0.33600 0.52690 -0.00000 -0.09200
H 	H 	0.30650 0.54880 -0.00000 0.04000
O 	O 	0.92379 0.14092 -0.00000 -0.61600
C 	C 	0.84670 0.21860 -0.00000 0.17900
H 	H 	0.88200 0.22870 -0.00000 -0.00600
C 	C 	0.80700 0.25740 -0.00000 -0.29200
H 	H 	0.81640 0.29280 -0.00000 0.12500
C 	C 	0.61000 0.45670 -0.00000 0.08200
C 	C 	0.66400 0.47310 -0.00000 -0.09000
H 	H 	0.69350 0.45120 -0.00000 0.04600
O 	O 	0.00000 0.92379 0.85908 -0.61200
C 	C 	-0.00000 0.84670 0.78140 0.16700
H 	H 	0.00000 0.88200 0.77130 -0.00100
C 	C 	0.00000 0.80700 0.74260 -0.27700
H 	H 	0.00000 0.81640 0.70720 0.12100
C 	C 	0.00000 0.61000 0.54330 0.08200
C 	C 	0.00000 0.66400 0.52690 -0.09000
H 	H 	0.00000 0.69350 0.54880 0.04600
O 	O 	0.00000 0.07621 0.14092 -0.66700
C 	C 	0.00000 0.15330 0.21860 0.19000
H 	H 	0.00000 0.11800 0.22870 -0.03600
C 	C 	0.00000 0.19300 0.25740 -0.31400
H 	H 	0.00000 0.18360 0.29280 0.11700
C 	C 	0.00000 0.39000 0.45670 0.08100
C 	C 	0.00000 0.33600 0.47310 -0.09200
H 	H 	0.00000 0.30650 0.45120 0.04000
O 	O 	0.00000 0.07621 0.85908 -0.66100
C 	C 	0.00000 0.15330 0.78140 0.17800
H 	H 	-0.00000 0.11800 0.77130 -0.03000
C 	C 	0.00000 0.19300 0.74260 -0.29700
H 	H 	0.00000 0.18360 0.70720 0.11300
C 	C 	0.00000 0.39000 0.54330 0.08100
C 	C 	0.00000 0.33600 0.52690 -0.09200
H 	H 	0.00000 0.30650 0.54880 0.04000
O 	O 	0.00000 0.92379 0.14092 -0.61600
C 	C 	-0.00000 0.84670 0.21860 0.17900
H 	H 	0.00000 0.88200 0.22870 -0.00600
C 	C 	0.00000 0.80700 0.25740 -0.29200
H 	H 	0.00000 0.81640 0.29280 0.12500
C 	C 	0.00000 0.61000 0.45670 0.08200
C 	C 	0.00000 0.66400 0.47310 -0.09000
H 	H 	-0.00000 0.69350 0.45120 0.04600
O 	O 	0.85908 0.00000 0.92379 -0.61200
C 	C 	0.78140 0.00000 0.84670 0.16700
H 	H 	0.77130 0.00000 0.88200 -0.00100
C 	C 	0.74260 0.00000 0.80700 -0.27700
H 	H 	0.70720 0.00000 0.81640 0.12100
C 	C 	0.54330 0.00000 0.61000 0.08200
C 	C 	0.52690 0.00000 0.66400 -0.09000
H 	H 	0.54880 0.00000 0.69350 0.04600
O 	O 	0.14092 0.00000 0.07621 -0.66700
C 	C 	0.21860 0.00000 0.15330 0.19000
H 	H 	0.22870 0.00000 0.11800 -0.03600
C 	C 	0.25740 0.00000 0.19300 -0.31400
H 	H 	0.29280 0.00000 0.18360 0.11700
C 	C 	0.45670 0.00000 0.39000 0.08100
C 	C 	0.47310 0.00000 0.33600 -0.09200
H 	H 	0.45120 -0.00000 0.30650 0.04000
O 	O 	0.85908 0.00000 0.07621 -0.66100
C 	C 	0.78140 0.00000 0.15330 0.17800
H 	H 	0.77130 0.00000 0.11800 -0.03000
C 	C 	0.74260 0.00000 0.19300 -0.29700
H 	H 	0.70720 0.00000 0.18360 0.11300
C 	C 	0.54330 0.00000 0.39000 0.08100
C 	C 	0.52690 0.00000 0.33600 -0.09200
H 	H 	0.54880 -0.00000 0.30650 0.04000
O 	O 	0.14092 0.00000 0.92379 -0.61600
C 	C 	0.21860 0.00000 0.84670 0.17900
H 	H 	0.22870 0.00000 0.88200 -0.00600
C 	C 	0.25740 0.00000 0.80700 -0.29200
H 	H 	0.29280 0.00000 0.81640 0.12500
C 	C 	0.45670 0.00000 0.61000 0.08200
C 	C 	0.47310 0.00000 0.66400 -0.09000
H 	H 	0.45120 0.00000 0.69350 0.04600
O 	O 	0.85908 0.92379 -0.00000 -0.61200
C 	C 	0.78140 0.84670 -0.00000 0.16700
H 	H 	0.77130 0.88200 -0.00000 -0.00100
C 	C 	0.74260 0.80700 -0.00000 -0.27700
H 	H 	0.70720 0.81640 -0.00000 0.12100
C 	C 	0.54330 0.61000 -0.00000 0.08200
C 	C 	0.52690 0.66400 -0.00000 -0.09000
H 	H 	0.54880 0.69350 -0.00000 0.04600
O 	O 	0.14092 0.07621 -0.00000 -0.66700
C 	C 	0.21860 0.15330 -0.00000 0.19000
H 	H 	0.22870 0.11800 -0.00000 -0.03600
C 	C 	0.25740 0.19300 -0.00000 -0.31400
H 	H 	0.29280 0.18360 -0.00000 0.11700
C 	C 	0.45670 0.39000 -0.00000 0.08100
C 	C 	0.47310 0.33600 -0.00000 -0.09200
H 	H 	0.45120 0.30650 -0.00000 0.04000
O 	O 	0.85908 0.07621 -0.00000 -0.66100
C 	C 	0.78140 0.15330 -0.00000 0.17800
H 	H 	0.77130 0.11800 -0.00000 -0.03000
C 	C 	0.74260 0.19300 -0.00000 -0.29700
H 	H 	0.70720 0.18360 -0.00000 0.11300
C 	C 	0.54330 0.39000 -0.00000 0.08100
C 	C 	0.52690 0.33600 -0.00000 -0.09200
H 	H 	0.54880 0.30650 -0.00000 0.04000
O 	O 	0.14092 0.92379 -0.00000 -0.61600
C 	C 	0.21860 0.84670 -0.00000 0.17900
H 	H 	0.22870 0.88200 -0.00000 -0.00600
C 	C 	0.25740 0.80700 -0.00000 -0.29200
H 	H 	0.29280 0.81640 -0.00000 0.12500
C 	C 	0.45670 0.61000 -0.00000 0.08200
C 	C 	0.47310 0.66400 -0.00000 -0.09000
H 	H 	0.45120 0.69350 -0.00000 0.04600
O 	O 	0.92379 0.00000 0.14092 -0.61600
C 	C 	0.84670 0.00000 0.21860 0.17900
H 	H 	0.88200 0.00000 0.22870 -0.00600
C 	C 	0.80700 0.00000 0.25740 -0.29200
H 	H 	0.81640 0.00000 0.29280 0.12500
C 	C 	0.61000 -0.00000 0.45670 0.08200
C 	C 	0.66400 0.00000 0.47310 -0.09000
H 	H 	0.69350 -0.00000 0.45120 0.04600
O 	O 	0.07621 0.00000 0.85908 -0.66100
C 	C 	0.15330 0.00000 0.78140 0.17800
H 	H 	0.11800 0.00000 0.77130 -0.03000
C 	C 	0.19300 0.00000 0.74260 -0.29700
H 	H 	0.18360 0.00000 0.70720 0.11300
C 	C 	0.39000 0.00000 0.54330 0.08100
C 	C 	0.33600 0.00000 0.52690 -0.09200
H 	H 	0.30650 0.00000 0.54880 0.04000
O 	O 	0.07621 0.00000 0.14092 -0.66700
C 	C 	0.15330 0.00000 0.21860 0.19000
H 	H 	0.11800 0.00000 0.22870 -0.03600
C 	C 	0.19300 0.00000 0.25740 -0.31400
H 	H 	0.18360 0.00000 0.29280 0.11700
C 	C 	0.39000 -0.00000 0.45670 0.08100
C 	C 	0.33600 0.00000 0.47310 -0.09200
H 	H 	0.30650 -0.00000 0.45120 0.04000
O 	O 	0.92379 0.00000 0.85908 -0.61200
C 	C 	0.84670 0.00000 0.78140 0.16700
H 	H 	0.88200 0.00000 0.77130 -0.00100
C 	C 	0.80700 0.00000 0.74260 -0.27700
H 	H 	0.81640 0.00000 0.70720 0.12100
C 	C 	0.61000 0.00000 0.54330 0.08200
C 	C 	0.66400 0.00000 0.52690 -0.09000
H 	H 	0.69350 0.00000 0.54880 0.04600
O 	O 	0.00000 0.85908 0.07621 -0.66100
C 	C 	0.00000 0.78140 0.15330 0.17800
H 	H 	-0.00000 0.77130 0.11800 -0.03000
C 	C 	0.00000 0.74260 0.19300 -0.29700
H 	H 	0.00000 0.70720 0.18360 0.11300
C 	C 	0.00000 0.54330 0.39000 0.08100
C 	C 	0.00000 0.52690 0.33600 -0.09200
H 	H 	0.00000 0.54880 0.30650 0.04000
O 	O 	0.00000 0.14092 0.92379 -0.61600
C 	C 	-0.00000 0.21860 0.84670 0.17900
H 	H 	0.00000 0.22870 0.88200 -0.00600
C 	C 	0.00000 0.25740 0.80700 -0.29200
H 	H 	0.00000 0.29280 0.81640 0.12500
C 	C 	0.00000 0.45670 0.61000 0.08200
C 	C 	-0.00000 0.47310 0.66400 -0.09000
H 	H 	-0.00000 0.45120 0.69350 0.04600
O 	O 	0.00000 0.85908 0.92379 -0.61200
C 	C 	-0.00000 0.78140 0.84670 0.16700
H 	H 	0.00000 0.77130 0.88200 -0.00100
C 	C 	0.00000 0.74260 0.80700 -0.27700
H 	H 	0.00000 0.70720 0.81640 0.12100
C 	C 	0.00000 0.54330 0.61000 0.08200
C 	C 	-0.00000 0.52690 0.66400 -0.09000
H 	H 	0.00000 0.54880 0.69350 0.04600
O 	O 	0.00000 0.14092 0.07621 -0.66700
C 	C 	0.00000 0.21860 0.15330 0.19000
H 	H 	0.00000 0.22870 0.11800 -0.03600
C 	C 	0.00000 0.25740 0.19300 -0.31400
H 	H 	0.00000 0.29280 0.18360 0.11700
C 	C 	0.00000 0.45670 0.39000 0.08100
C 	C 	0.00000 0.47310 0.33600 -0.09200
H 	H 	0.00000 0.45120 0.30650 0.04000
C 	C 	0.87570 0.87570 -0.00000 0.49700
C 	C 	0.83400 0.83400 -0.00000 -0.21700
C 	C 	0.75570 0.75570 -0.00000 0.24600
C 	C 	0.71730 0.71730 -0.00000 -0.25400
C 	C 	0.59510 0.59510 -0.00000 -0.13500
C 	C 	0.63600 0.63600 -0.00000 0.01400
C 	C 	0.12430 0.12430 -0.00000 0.51400
C 	C 	0.16600 0.16600 -0.00000 -0.26200
C 	C 	0.24430 0.24430 -0.00000 0.27000
C 	C 	0.28270 0.28270 -0.00000 -0.28100
C 	C 	0.40490 0.40490 -0.00000 -0.13800
C 	C 	0.36400 0.36400 -0.00000 0.01700
C 	C 	0.12430 0.87570 -0.00000 0.50500
C 	C 	0.16600 0.83400 -0.00000 -0.23900
C 	C 	0.24430 0.75570 -0.00000 0.25800
C 	C 	0.28270 0.71730 -0.00000 -0.26700
C 	C 	0.40490 0.59510 -0.00000 -0.13700
C 	C 	0.36400 0.63600 -0.00000 0.01500
C 	C 	0.87570 0.12430 -0.00000 0.50500
C 	C 	0.83400 0.16600 -0.00000 -0.23900
C 	C 	0.75570 0.24430 -0.00000 0.25800
C 	C 	0.71730 0.28270 -0.00000 -0.26700
C 	C 	0.59510 0.40490 -0.00000 -0.13700
C 	C 	0.63600 0.36400 -0.00000 0.01500
C 	C 	0.00000 0.87570 0.87570 0.49700
C 	C 	0.00000 0.83400 0.83400 -0.21700
C 	C 	0.00000 0.75570 0.75570 0.24600
C 	C 	0.00000 0.71730 0.71730 -0.25400
C 	C 	-0.00000 0.59510 0.59510 -0.13500
C 	C 	0.00000 0.63600 0.63600 0.01400
C 	C 	0.00000 0.12430 0.12430 0.51400
C 	C 	0.00000 0.16600 0.16600 -0.26200
C 	C 	0.00000 0.24430 0.24430 0.27000
C 	C 	0.00000 0.28270 0.28270 -0.28100
C 	C 	0.00000 0.40490 0.40490 -0.13800
C 	C 	0.00000 0.36400 0.36400 0.01700
C 	C 	0.00000 0.12430 0.87570 0.50500
C 	C 	0.00000 0.16600 0.83400 -0.23900
C 	C 	-0.00000 0.24430 0.75570 0.25800
C 	C 	-0.00000 0.28270 0.71730 -0.26700
C 	C 	-0.00000 0.40490 0.59510 -0.13700
C 	C 	-0.00000 0.36400 0.63600 0.01500
C 	C 	0.00000 0.87570 0.12430 0.50500
C 	C 	-0.00000 0.83400 0.16600 -0.23900
C 	C 	-0.00000 0.75570 0.24430 0.25800
C 	C 	-0.00000 0.71730 0.28270 -0.26700
C 	C 	0.00000 0.59510 0.40490 -0.13700
C 	C 	-0.00000 0.63600 0.36400 0.01500
C 	C 	0.87570 0.00000 0.87570 0.49700
C 	C 	0.83400 0.00000 0.83400 -0.21700
C 	C 	0.75570 0.00000 0.75570 0.24600
C 	C 	0.71730 0.00000 0.71730 -0.25400
C 	C 	0.59510 0.00000 0.59510 -0.13500
C 	C 	0.63600 0.00000 0.63600 0.01400
C 	C 	0.12430 0.00000 0.12430 0.51400
C 	C 	0.16600 0.00000 0.16600 -0.26200
C 	C 	0.24430 0.00000 0.24430 0.27000
C 	C 	0.28270 0.00000 0.28270 -0.28100
C 	C 	0.40490 0.00000 0.40490 -0.13800
C 	C 	0.36400 0.00000 0.36400 0.01700
C 	C 	0.87570 0.00000 0.12430 0.50500
C 	C 	0.83400 0.00000 0.16600 -0.23900
C 	C 	0.75570 0.00000 0.24430 0.25800
C 	C 	0.71730 0.00000 0.28270 -0.26700
C 	C 	0.59510 0.00000 0.40490 -0.13700
C 	C 	0.63600 0.00000 0.36400 0.01500
C 	C 	0.12430 0.00000 0.87570 0.50500
C 	C 	0.16600 0.00000 0.83400 -0.23900
C 	C 	0.24430 0.00000 0.75570 0.25800
C 	C 	0.28270 0.00000 0.71730 -0.26700
C 	C 	0.40490 0.00000 0.59510 -0.13700
C 	C 	0.36400 0.00000 0.63600 0.01500
N 	N 	0.57780 0.50000 -0.00000 -0.28800
N 	N 	0.42220 0.50000 -0.00000 -0.28900
N 	N 	0.00000 0.57780 0.50000 -0.28800
N 	N 	0.00000 0.42220 0.50000 -0.28900
N 	N 	0.50000 0.00000 0.57780 -0.28800
N 	N 	0.50000 0.00000 0.42220 -0.28900
N 	N 	0.50000 0.57780 -0.00000 -0.28800
N 	N 	0.50000 0.42220 -0.00000 -0.28900
N 	N 	0.57780 0.00000 0.50000 -0.28800
N 	N 	0.42220 0.00000 0.50000 -0.28900
N 	N 	0.00000 0.50000 0.42220 -0.28900
N 	N 	0.00000 0.50000 0.57780 -0.28800
