data_crystal

_cell_length_a 6.85870
_cell_length_b 11.20330
_cell_length_c 11.20330
_cell_angle_alpha 76.00220
_cell_angle_beta  72.17550
_cell_angle_gamma 72.17580

_symmetry_space_group_name_	'P 1'
_symmetry_space_group_name_H-M	'P 1'

loop_
_symmetry_equiv_pos_as_xyz
  x,y,z

loop_
_atom_site_label
_atom_site_type_symbol
_atom_site_fract_x
_atom_site_fract_y
_atom_site_fract_z
_atom_site_charge
Cr	Cr	0.00000 0.00000 0.50000 1.52900
Cr	Cr	0.50000 0.00000 0.50000 1.55100
H 	H 	0.85896 0.38816 0.49534 0.02100
H 	H 	0.35896 0.99534 0.88816 -0.07500
H 	H 	0.25754 0.38816 0.49534 -0.00100
H 	H 	0.75754 0.99534 0.88816 -0.07100
H 	H 	0.64104 0.00466 0.11184 0.13400
H 	H 	0.14104 0.61184 0.50466 0.04100
H 	H 	0.24246 0.00466 0.11184 0.13800
H 	H 	0.74246 0.61184 0.50466 0.06000
C 	C 	0.67691 0.43782 0.49558 0.13100
C 	C 	0.63137 0.24021 0.49705 0.55800
C 	C 	0.82309 0.00442 0.06218 -0.60400
C 	C 	0.36863 0.75979 0.50295 0.45700
C 	C 	0.06455 0.99609 0.87481 -0.93600
C 	C 	0.32309 0.56218 0.50442 -0.03100
C 	C 	0.56455 0.37481 0.49609 -0.30800
C 	C 	0.13137 0.99705 0.74021 0.79800
C 	C 	0.88969 0.99558 0.93782 0.73100
C 	C 	0.43545 0.62519 0.50391 -0.10700
C 	C 	0.61031 0.56218 0.50442 -0.02700
C 	C 	0.93545 0.00391 0.12519 0.55400
C 	C 	0.17691 0.99558 0.93782 0.72000
C 	C 	0.11031 0.00442 0.06218 -0.67800
C 	C 	0.38969 0.43782 0.49558 0.12700
C 	C 	0.86863 0.00295 0.25979 0.20700
O 	O 	0.48520 0.82359 0.50353 -0.39400
O 	O 	0.18768 0.82359 0.50353 -0.40700
O 	O 	0.51480 0.17641 0.49647 -0.54700
O 	O 	0.68768 0.00353 0.32359 -0.45100
O 	O 	0.31232 0.99647 0.67641 -0.48400
O 	O 	0.01480 0.99647 0.67641 -0.50000
O 	O 	0.81232 0.17641 0.49647 -0.52500
O 	O 	0.75000 0.96815 0.53185 -0.45900
O 	O 	0.25000 0.03185 0.46815 -0.73000
O 	O 	0.98520 0.00353 0.32359 -0.42200
