data_crystal

_cell_length_a 6.84700
_cell_length_b 11.19120
_cell_length_c 11.19120
_cell_angle_alpha 71.93010
_cell_angle_beta  72.18710
_cell_angle_gamma 72.18710

_symmetry_space_group_name_	'P 1'
_symmetry_space_group_name_H-M	'P 1'

loop_
_symmetry_equiv_pos_as_xyz
  x,y,z

loop_
_atom_site_label
_atom_site_type_symbol
_atom_site_fract_x
_atom_site_fract_y
_atom_site_fract_z
_atom_site_charge
Cr	Cr	-0.00000 0.00000 0.50000 1.46100
Cr	Cr	0.50000 0.00000 0.50000 1.55000
H 	H 	0.74600 0.00100 0.88700 0.09000
H 	H 	0.75400 0.61300 0.49900 0.09400
H 	H 	0.86600 0.38700 0.50100 0.09700
H 	H 	0.36600 0.00100 0.88700 0.10100
H 	H 	0.25400 0.99900 0.11300 -0.00100
H 	H 	0.13400 0.61300 0.49900 -0.00900
H 	H 	0.63400 0.99900 0.11300 -0.00700
H 	H 	0.24600 0.38700 0.50100 -0.00700
C 	C 	0.43100 0.63300 0.50500 -0.13600
C 	C 	0.64200 0.22700 0.48900 0.55300
C 	C 	0.13500 0.99900 0.06700 0.25200
C 	C 	0.70100 0.43300 0.50100 0.02600
C 	C 	0.35800 0.77300 0.51100 0.56000
C 	C 	0.14200 0.98900 0.72700 0.43500
C 	C 	0.29900 0.56700 0.49900 0.00900
C 	C 	0.20100 0.00100 0.93300 -0.42400
C 	C 	0.86500 0.00100 0.93300 -0.21600
C 	C 	0.93100 0.00500 0.13300 -0.45600
C 	C 	0.79900 0.99900 0.06700 0.43200
C 	C 	0.06900 0.99500 0.86700 0.21200
C 	C 	0.56900 0.36700 0.49500 -0.13500
C 	C 	0.85800 0.01100 0.27300 0.67000
C 	C 	0.63500 0.56700 0.49900 0.03000
C 	C 	0.36500 0.43300 0.50100 0.00500
O 	O 	0.81900 0.17800 0.49200 -0.48200
O 	O 	0.68100 0.00800 0.32200 -0.63900
O 	O 	0.31900 0.99200 0.67800 -0.39500
O 	O 	0.48900 0.82200 0.50800 -0.46000
O 	O 	0.25000 0.05000 0.45000 -0.71400
O 	O 	0.01100 0.99200 0.67800 -0.49100
O 	O 	0.98900 0.00800 0.32200 -0.51400
O 	O 	0.18100 0.82200 0.50800 -0.53100
O 	O 	0.51100 0.17800 0.49200 -0.58100
O 	O 	0.75000 0.95000 0.55000 -0.37900
