data_crystal

_cell_length_a 18.70020
_cell_length_b 18.70020
_cell_length_c 18.70020
_cell_angle_alpha 60.00000
_cell_angle_beta  60.00000
_cell_angle_gamma 60.00000

_symmetry_space_group_name_	'P 1'
_symmetry_space_group_name_H-M	'P 1'

loop_
_symmetry_equiv_pos_as_xyz
  x,y,z

loop_
_atom_site_label
_atom_site_type_symbol
_atom_site_fract_x
_atom_site_fract_y
_atom_site_fract_z
_atom_site_charge
Zn	Zn	0.50000 0.50000 0.07960 1.20200
Zn	Zn	0.50000 0.50000 0.92040 1.20200
Zn	Zn	0.50000 0.07960 0.92040 1.20200
Zn	Zn	0.92040 0.50000 0.07960 1.20200
Zn	Zn	0.50000 0.92040 0.07960 1.20200
Zn	Zn	0.92040 0.07960 0.50000 1.20200
Zn	Zn	0.92040 0.50000 0.50000 1.20200
Zn	Zn	0.50000 0.92040 0.50000 1.20200
Zn	Zn	0.07960 0.50000 0.92040 1.20200
Zn	Zn	0.07960 0.92040 0.50000 1.20200
Zn	Zn	0.07960 0.50000 0.50000 1.20200
Zn	Zn	0.50000 0.07960 0.50000 1.20200
H 	H 	0.98870 0.77110 0.46910 0.01100
H 	H 	0.01130 0.22890 0.22890 0.01200
H 	H 	0.98870 0.77110 0.77110 0.01200
H 	H 	0.01130 0.22890 0.53090 0.01100
H 	H 	0.77110 0.98870 0.46910 0.01100
H 	H 	0.46910 0.98870 0.77110 0.01100
H 	H 	0.22890 0.01130 0.22890 0.01200
H 	H 	0.77110 0.98870 0.77110 0.01200
H 	H 	0.77110 0.46910 0.98870 0.01100
H 	H 	0.22890 0.22890 0.53090 0.01200
H 	H 	0.77110 0.46910 0.77110 0.01200
H 	H 	0.53090 0.22890 0.01130 0.01100
H 	H 	0.77110 0.77110 0.46910 0.01200
H 	H 	0.98870 0.46910 0.77110 0.01100
H 	H 	0.22890 0.53090 0.01130 0.01100
H 	H 	0.77110 0.77110 0.98870 0.01200
H 	H 	0.01130 0.53090 0.22890 0.01100
H 	H 	0.46910 0.77110 0.77110 0.01200
H 	H 	0.53090 0.22890 0.22890 0.01200
H 	H 	0.46910 0.77110 0.98870 0.01100
H 	H 	0.22890 0.01130 0.53090 0.01100
H 	H 	0.22890 0.53090 0.22890 0.01200
H 	H 	0.53090 0.01130 0.22890 0.01100
H 	H 	0.22890 0.22890 0.01130 0.01200
C 	C 	0.06920 0.33620 0.06920 0.42400
C 	C 	0.47000 0.88640 0.75720 -0.18400
C 	C 	0.47000 0.88640 0.88640 -0.18100
C 	C 	0.52540 0.06920 0.33620 0.44900
C 	C 	0.11360 0.53000 0.24280 -0.18400
C 	C 	0.06920 0.52540 0.33620 0.44900
C 	C 	0.92970 0.80030 0.80030 0.10800
C 	C 	0.19970 0.19970 0.07030 0.10800
C 	C 	0.93080 0.93080 0.66380 0.42400
C 	C 	0.53030 0.19970 0.19970 0.11900
C 	C 	0.80030 0.46970 0.92970 0.11700
C 	C 	0.66380 0.93080 0.47460 0.44900
C 	C 	0.80030 0.80030 0.46970 0.11900
C 	C 	0.46970 0.80030 0.80030 0.11900
C 	C 	0.75720 0.88640 0.47000 -0.18400
C 	C 	0.06920 0.06920 0.33620 0.42400
C 	C 	0.19970 0.07030 0.19970 0.10800
C 	C 	0.88640 0.47000 0.75720 -0.18400
C 	C 	0.06920 0.52540 0.06920 0.43400
C 	C 	0.46970 0.80030 0.92970 0.11700
C 	C 	0.88640 0.88640 0.47000 -0.18100
C 	C 	0.11360 0.24280 0.53000 -0.18400
C 	C 	0.75720 0.88640 0.88640 -0.17600
C 	C 	0.33620 0.06920 0.06920 0.42400
C 	C 	0.75720 0.47000 0.88640 -0.18400
C 	C 	0.24280 0.11360 0.11360 -0.17600
C 	C 	0.52540 0.33620 0.06920 0.44900
C 	C 	0.88640 0.75720 0.47000 -0.18400
C 	C 	0.19970 0.53030 0.07030 0.11700
C 	C 	0.47000 0.75720 0.88640 -0.18400
C 	C 	0.11360 0.11360 0.24280 -0.17600
C 	C 	0.07030 0.19970 0.53030 0.11700
C 	C 	0.66380 0.47460 0.93080 0.44900
C 	C 	0.88640 0.88640 0.75720 -0.17600
C 	C 	0.80030 0.46970 0.80030 0.11900
C 	C 	0.06920 0.33620 0.52540 0.44900
C 	C 	0.80030 0.80030 0.92970 0.10800
C 	C 	0.11360 0.24280 0.11360 -0.17600
C 	C 	0.53030 0.19970 0.07030 0.11700
C 	C 	0.19970 0.53030 0.19970 0.11900
C 	C 	0.80030 0.92970 0.80030 0.10800
C 	C 	0.33620 0.52540 0.06920 0.44900
C 	C 	0.24280 0.11360 0.53000 -0.18400
C 	C 	0.92970 0.46970 0.80030 0.11700
C 	C 	0.92970 0.80030 0.46970 0.11700
C 	C 	0.93080 0.47460 0.66380 0.44900
C 	C 	0.07030 0.19970 0.19970 0.10800
C 	C 	0.47460 0.66380 0.93080 0.44900
C 	C 	0.53030 0.07030 0.19970 0.11700
C 	C 	0.53000 0.11360 0.24280 -0.18400
C 	C 	0.19970 0.19970 0.53030 0.11900
C 	C 	0.80030 0.92970 0.46970 0.11700
C 	C 	0.19970 0.07030 0.53030 0.11700
C 	C 	0.11360 0.53000 0.11360 -0.18100
C 	C 	0.93080 0.66380 0.47460 0.44900
C 	C 	0.93080 0.66380 0.93080 0.42400
C 	C 	0.46970 0.92970 0.80030 0.11700
C 	C 	0.06920 0.06920 0.52540 0.43400
C 	C 	0.93080 0.47460 0.93080 0.43400
C 	C 	0.33620 0.06920 0.52540 0.44900
C 	C 	0.11360 0.11360 0.53000 -0.18100
C 	C 	0.88640 0.75720 0.88640 -0.17600
C 	C 	0.93080 0.93080 0.47460 0.43400
C 	C 	0.07030 0.53030 0.19970 0.11700
C 	C 	0.52540 0.06920 0.06920 0.43400
C 	C 	0.88640 0.47000 0.88640 -0.18100
C 	C 	0.47460 0.93080 0.66380 0.44900
C 	C 	0.47460 0.93080 0.93080 0.43400
C 	C 	0.53000 0.11360 0.11360 -0.18100
C 	C 	0.66380 0.93080 0.93080 0.42400
C 	C 	0.53000 0.24280 0.11360 -0.18400
C 	C 	0.24280 0.53000 0.11360 -0.18400
O 	O 	0.47750 0.88830 0.62770 -0.49900
O 	O 	0.47750 0.62770 0.00650 -0.49700
O 	O 	0.99350 0.11170 0.37230 -0.48500
O 	O 	0.62770 0.00650 0.47750 -0.49700
O 	O 	0.99350 0.37230 0.52250 -0.49700
O 	O 	0.37230 0.99350 0.11170 -0.48500
O 	O 	0.47750 0.88830 0.00650 -0.49000
O 	O 	0.88830 0.00650 0.62770 -0.48500
O 	O 	0.00650 0.62770 0.88830 -0.48500
O 	O 	0.37230 0.11170 0.99350 -0.48500
O 	O 	0.62770 0.88830 0.00650 -0.48500
O 	O 	0.11170 0.99350 0.37230 -0.48500
O 	O 	0.52250 0.99350 0.11170 -0.49000
O 	O 	0.88830 0.47750 0.00650 -0.49000
O 	O 	0.11170 0.99350 0.52250 -0.49000
O 	O 	0.37230 0.11170 0.52250 -0.49900
O 	O 	0.52250 0.37230 0.11170 -0.49900
O 	O 	0.52250 0.37230 0.99350 -0.49700
O 	O 	0.88830 0.47750 0.62770 -0.49900
O 	O 	0.62770 0.47750 0.00650 -0.49700
O 	O 	0.99350 0.52250 0.11170 -0.49000
O 	O 	0.99350 0.37230 0.11170 -0.48500
O 	O 	0.47750 0.00650 0.88830 -0.49000
O 	O 	0.47750 0.00650 0.62770 -0.49700
O 	O 	0.99350 0.11170 0.52250 -0.49000
O 	O 	0.00650 0.88830 0.62770 -0.48500
O 	O 	0.00650 0.62770 0.47750 -0.49700
O 	O 	0.99350 0.52250 0.37230 -0.49700
O 	O 	0.11170 0.52250 0.37230 -0.49900
O 	O 	0.62770 0.00650 0.88830 -0.48500
O 	O 	0.00650 0.47750 0.88830 -0.49000
O 	O 	0.00650 0.88830 0.47750 -0.49000
O 	O 	0.00650 0.47750 0.62770 -0.49700
O 	O 	0.37230 0.99350 0.52250 -0.49700
O 	O 	0.88830 0.62770 0.00650 -0.48500
O 	O 	0.11170 0.52250 0.99350 -0.49000
O 	O 	0.11170 0.37230 0.52250 -0.49900
O 	O 	0.52250 0.11170 0.99350 -0.49000
O 	O 	0.11170 0.37230 0.99350 -0.48500
O 	O 	0.88830 0.00650 0.47750 -0.49000
O 	O 	0.52250 0.11170 0.37230 -0.49900
O 	O 	0.62770 0.47750 0.88830 -0.49900
O 	O 	0.88830 0.62770 0.47750 -0.49900
O 	O 	0.47750 0.62770 0.88830 -0.49900
O 	O 	0.52250 0.99350 0.37230 -0.49700
O 	O 	0.37230 0.52250 0.99350 -0.49700
O 	O 	0.62770 0.88830 0.47750 -0.49900
O 	O 	0.37230 0.52250 0.11170 -0.49900
