data_crystal

_cell_length_a 22.36080
_cell_length_b 22.36080
_cell_length_c 22.36080
_cell_angle_alpha 109.47100
_cell_angle_beta  109.47100
_cell_angle_gamma 109.47100

_symmetry_space_group_name_	'P 1'
_symmetry_space_group_name_H-M	'P 1'

loop_
_symmetry_equiv_pos_as_xyz
  x,y,z

loop_
_atom_site_label
_atom_site_type_symbol
_atom_site_fract_x
_atom_site_fract_y
_atom_site_fract_z
_atom_site_charge
Zn	Zn	0.53840 0.53840 0.03840 1.21500
Zn	Zn	0.50000 0.30480 0.50000 1.19600
Zn	Zn	-0.00000 0.50000 0.30480 1.18800
Zn	Zn	0.50000 0.46160 0.50000 1.22100
Zn	Zn	0.80480 0.00000 -0.00000 1.17700
Zn	Zn	0.96160 0.00000 -0.00000 1.20900
Zn	Zn	0.03840 0.03840 0.53840 1.21000
Zn	Zn	0.00000 0.50000 0.46160 1.21100
Zn	Zn	-0.00000 0.50000 0.80480 1.18400
Zn	Zn	0.50000 0.80480 0.50000 1.19600
Zn	Zn	0.50000 0.96160 0.50000 1.22600
Zn	Zn	0.46160 0.00000 -0.00000 1.20300
Zn	Zn	0.30480 0.00000 -0.00000 1.17700
Zn	Zn	-0.00000 0.50000 0.96160 1.21800
Zn	Zn	0.69520 0.69520 0.19520 1.19600
Zn	Zn	0.19520 0.19520 0.69520 1.19500
H 	H 	0.81390 0.56370 0.52180 0.11600
H 	H 	0.46390 0.49580 0.67770 -0.03300
H 	H 	0.25020 0.95810 0.43630 0.10100
H 	H 	0.92380 0.47330 0.06990 0.10500
H 	H 	0.07620 0.54950 0.64610 0.03500
H 	H 	0.32310 0.08610 0.67940 -0.04200
H 	H 	0.74980 0.70790 0.68610 0.11100
H 	H 	0.86520 0.40460 0.50820 0.06900
H 	H 	0.78620 0.32230 0.81810 -0.02500
H 	H 	0.93810 0.05090 0.88680 0.10000
H 	H 	0.99580 0.96390 0.17770 -0.10200
H 	H 	0.35090 0.61360 0.96950 0.12200
H 	H 	0.64610 0.04950 0.07620 0.04300
H 	H 	0.92420 0.08890 0.55750 0.11500
H 	H 	0.85700 0.89640 0.49180 0.06800
H 	H 	0.53140 0.94250 0.36670 0.09000
H 	H 	0.46810 0.50420 0.18190 -0.03500
H 	H 	0.96860 0.33530 0.41110 0.12200
H 	H 	0.40460 0.00820 0.36520 -0.00900
H 	H 	0.88140 0.64410 0.03050 0.14500
H 	H 	0.32060 0.90670 0.14370 0.00500
H 	H 	0.14370 0.40670 0.32060 -0.04000
H 	H 	0.43870 0.50190 0.85180 0.05000
H 	H 	0.14300 0.03940 0.13480 0.06600
H 	H 	0.35590 0.88640 0.23730 0.08800
H 	H 	0.96950 0.11360 0.35090 0.16400
H 	H 	0.42380 0.06990 0.47330 0.08600
H 	H 	0.56320 0.06130 0.41310 0.04900
H 	H 	0.43810 0.88680 0.05090 0.09200
H 	H 	0.94910 0.33590 0.88720 0.08000
H 	H 	0.83590 0.44910 0.38720 0.10100
H 	H 	0.05750 0.92420 0.58890 0.13400
H 	H 	0.40670 0.82060 0.64370 -0.06900
H 	H 	0.44870 0.61280 0.06190 0.09600
H 	H 	0.00190 0.93870 0.35180 -0.03500
H 	H 	0.55750 0.58890 0.92420 0.11500
H 	H 	0.56130 0.06320 0.91310 0.03700
H 	H 	0.99810 0.93680 0.84990 0.13500
H 	H 	0.73700 0.91390 0.59330 -0.02800
H 	H 	0.64820 0.08690 0.15010 0.06100
H 	H 	0.41310 0.56130 0.56320 0.04900
H 	H 	0.37570 0.93380 0.36450 0.01200
H 	H 	0.00420 0.96810 0.68190 0.04900
H 	H 	0.01120 0.63550 0.56930 0.06800
H 	H 	0.59540 0.60360 0.46060 0.06600
H 	H 	0.43630 0.45810 0.25020 0.11000
H 	H 	0.49580 0.17770 0.96390 -0.11600
H 	H 	0.31810 0.78620 0.82230 -0.02800
H 	H 	0.58890 0.42420 0.05750 0.13000
H 	H 	0.99180 0.85700 0.39640 0.15700
H 	H 	0.90460 0.36520 0.00820 -0.02500
H 	H 	0.71380 0.53190 0.53610 -0.03100
H 	H 	0.97820 0.79210 0.54190 0.22700
H 	H 	0.07580 0.16470 0.13330 0.09700
H 	H 	0.03140 0.36670 0.94250 0.07000
H 	H 	0.53940 0.64300 0.63480 0.06600
H 	H 	0.93680 0.34990 0.49810 0.04600
H 	H 	0.56990 0.92380 0.97330 0.04500
H 	H 	0.88720 0.83590 0.94910 0.08300
H 	H 	0.24980 0.68610 0.70790 0.11000
H 	H 	0.05130 0.11320 0.16410 0.08500
H 	H 	0.85630 0.26300 0.67690 -0.02800
H 	H 	0.35180 0.43870 0.00190 -0.03700
H 	H 	0.11320 0.66410 0.55130 0.09800
H 	H 	0.90340 0.85390 0.43010 0.04000
H 	H 	0.51120 0.56930 0.63550 0.06100
H 	H 	0.57620 0.64610 0.54950 0.04000
H 	H 	0.08610 0.17940 0.82310 -0.00900
H 	H 	0.05810 0.12430 0.98880 0.05300
H 	H 	0.46060 0.10360 0.59540 0.06600
H 	H 	0.44910 0.88720 0.33590 0.07700
H 	H 	0.50420 0.68190 0.96810 0.07000
H 	H 	0.93070 0.94190 0.56620 0.07400
H 	H 	0.06620 0.93070 0.44190 0.12800
H 	H 	0.02670 0.45050 0.09660 0.04000
H 	H 	0.86450 0.37570 0.43380 0.06500
H 	H 	0.52180 0.06370 0.81390 0.17200
H 	H 	0.68610 0.20790 0.74980 0.10900
H 	H 	0.36450 0.43380 0.37570 0.06000
H 	H 	0.85590 0.23730 0.88640 0.12500
H 	H 	0.06320 0.41310 0.06130 0.05100
H 	H 	0.79210 0.04190 0.47820 0.12300
H 	H 	0.17690 0.85630 0.76300 -0.03200
H 	H 	0.53190 0.03610 0.21380 0.03500
H 	H 	0.31390 0.52180 0.56370 0.11200
H 	H 	0.14610 0.07620 0.04950 0.04100
H 	H 	0.85180 0.00190 0.43870 -0.01900
H 	H 	0.61280 0.56190 0.94870 0.11300
H 	H 	0.52670 0.09660 0.45050 0.04000
H 	H 	0.55810 0.98880 0.12430 0.05500
H 	H 	0.84990 0.43680 0.99810 0.13600
H 	H 	0.70790 0.18610 0.24980 0.10700
H 	H 	0.59660 0.02670 0.95050 0.02900
H 	H 	0.94250 0.86670 0.03140 0.07700
H 	H 	0.03050 0.14410 0.88140 0.11000
H 	H 	0.82230 0.28620 0.31810 -0.02900
H 	H 	0.02180 0.81390 0.06370 0.07600
H 	H 	0.76300 0.35630 0.17690 -0.03500
H 	H 	0.91110 0.96860 0.83530 0.11800
H 	H 	0.56190 0.44870 0.11280 0.12800
H 	H 	0.89640 0.99180 0.35700 0.13800
H 	H 	0.03610 0.71380 0.03190 -0.04900
H 	H 	0.23730 0.38640 0.35590 0.13000
H 	H 	0.40340 0.43010 0.85390 0.04200
H 	H 	0.36670 0.44250 0.53140 0.10800
H 	H 	0.10360 0.09540 0.96060 0.05300
H 	H 	0.56620 0.44190 0.93070 0.07200
H 	H 	0.55130 0.16410 0.11320 0.09700
H 	H 	0.36520 0.50820 0.40460 0.06500
H 	H 	0.64410 0.53050 0.38140 0.13100
H 	H 	0.93870 0.85180 0.50190 0.05000
H 	H 	0.44250 0.03140 0.86670 0.10400
H 	H 	0.75020 0.43630 0.95810 0.09900
H 	H 	0.54190 0.29210 0.97820 0.23000
H 	H 	0.68190 0.46810 0.00420 -0.02700
H 	H 	0.00820 0.86520 0.90460 -0.02300
H 	H 	0.56370 0.02180 0.31390 0.01500
H 	H 	0.56930 0.13550 0.01120 0.06600
H 	H 	0.08890 0.05750 0.42420 0.12500
H 	H 	0.13330 0.66470 0.07580 0.09700
H 	H 	0.09660 0.95050 0.02670 0.03200
H 	H 	0.96390 0.67770 0.49580 -0.11200
H 	H 	0.88640 0.73730 0.85590 0.12500
H 	H 	0.15010 0.58690 0.64820 0.05100
H 	H 	0.91390 0.09330 0.23700 -0.07000
H 	H 	0.62430 0.55810 0.48880 0.06100
H 	H 	0.28620 0.81810 0.32230 -0.02700
H 	H 	0.50820 0.90460 0.86520 0.07200
H 	H 	0.43680 0.49810 0.34990 0.04800
H 	H 	0.54950 0.14610 0.57620 0.03700
H 	H 	0.06370 0.31390 0.02180 0.07100
H 	H 	0.16470 0.63330 0.57580 0.10800
H 	H 	0.94870 0.06190 0.61280 0.10900
H 	H 	0.04950 0.57620 0.14610 0.04400
H 	H 	0.33590 0.38720 0.44910 0.09900
H 	H 	0.61360 0.46950 0.85090 0.13700
H 	H 	0.26270 0.61860 0.14910 0.12400
H 	H 	0.41390 0.23700 0.09330 -0.09100
H 	H 	0.35390 0.40340 0.93010 -0.02000
H 	H 	0.90670 0.64370 0.82060 -0.02500
H 	H 	0.33530 0.91110 0.46860 0.10700
H 	H 	0.21380 0.53610 0.53190 -0.03200
H 	H 	0.11860 0.76270 0.64910 0.12500
H 	H 	0.63550 0.06930 0.51120 0.05200
H 	H 	0.66470 0.57580 0.63330 0.10800
H 	H 	0.64910 0.26270 0.11860 0.12400
H 	H 	0.64370 0.32060 0.40670 -0.03600
H 	H 	0.03190 0.21380 0.03610 -0.05200
H 	H 	0.38720 0.94910 0.83590 0.10900
H 	H 	0.32230 0.31810 0.28620 -0.03000
H 	H 	0.09330 0.73700 0.41390 -0.08800
H 	H 	0.93010 0.90340 0.35390 -0.01900
H 	H 	0.43380 0.87570 0.86450 0.06400
H 	H 	0.12430 0.48880 0.55810 0.06100
H 	H 	0.73730 0.35590 0.38640 0.13200
H 	H 	0.13550 0.51120 0.06930 0.04600
H 	H 	0.13480 0.53940 0.14300 0.05700
H 	H 	0.86670 0.53140 0.44250 0.11200
H 	H 	0.38140 0.03050 0.64410 0.13900
H 	H 	0.06990 0.97330 0.92380 0.10500
H 	H 	0.29210 0.47820 0.04190 0.12200
H 	H 	0.95810 0.93630 0.75020 0.04500
H 	H 	0.85090 0.96950 0.61360 0.12900
H 	H 	0.63480 0.14300 0.53940 0.06200
H 	H 	0.83530 0.46860 0.91110 0.10800
H 	H 	0.04190 0.97820 0.29210 0.21600
H 	H 	0.06930 0.01120 0.13550 0.05300
H 	H 	0.06130 0.91310 0.06320 0.04000
H 	H 	0.58690 0.14820 0.65010 0.04800
H 	H 	0.42420 0.55750 0.08890 0.10800
H 	H 	0.46860 0.41110 0.33530 0.10700
H 	H 	0.60360 0.96060 0.09540 0.05200
H 	H 	0.63330 0.07580 0.66470 0.10200
H 	H 	0.45050 0.59660 0.52670 0.04000
H 	H 	0.18190 0.00420 0.46810 -0.03200
H 	H 	0.87570 0.36450 0.93380 -0.00200
H 	H 	0.39640 0.35700 0.99180 0.15500
H 	H 	0.82310 0.67940 0.08610 -0.04100
H 	H 	0.03940 0.63480 0.64300 0.07600
H 	H 	0.50190 0.35180 0.93870 0.04800
H 	H 	0.17770 0.46390 0.99580 -0.03700
H 	H 	0.94190 0.06620 0.43070 0.11100
H 	H 	0.76270 0.14910 0.61860 0.12600
H 	H 	0.38640 0.85590 0.73730 0.16700
H 	H 	0.16410 0.61320 0.05130 0.08600
H 	H 	0.67770 0.99580 0.46390 -0.03600
H 	H 	0.14820 0.15010 0.08690 0.06100
H 	H 	0.82060 0.14370 0.90670 -0.02800
H 	H 	0.98880 0.62430 0.05810 0.05300
H 	H 	0.67690 0.76300 0.85630 -0.02800
H 	H 	0.35700 0.49180 0.89640 0.06300
H 	H 	0.14910 0.11860 0.26270 0.12100
H 	H 	0.67940 0.58610 0.32310 -0.03400
H 	H 	0.06190 0.11280 0.44870 0.11800
H 	H 	0.34990 0.99810 0.43680 0.11700
H 	H 	0.96060 0.59540 0.10360 0.05700
H 	H 	0.91310 0.56320 0.56130 0.03700
H 	H 	0.95050 0.52670 0.59660 0.03100
H 	H 	0.49810 0.84990 0.93680 0.04600
H 	H 	0.11280 0.94870 0.56190 0.13700
H 	H 	0.44190 0.43070 0.06620 0.12100
H 	H 	0.49180 0.39640 0.85700 0.06900
H 	H 	0.46950 0.35090 0.11360 0.18400
H 	H 	0.85390 0.93010 0.40340 -0.00500
H 	H 	0.05090 0.38680 0.43810 0.09000
H 	H 	0.35630 0.67690 0.26300 -0.03200
H 	H 	0.47820 0.54190 0.79210 0.11300
H 	H 	0.08690 0.65010 0.14820 0.05900
H 	H 	0.38680 0.93810 0.55090 0.10300
H 	H 	0.58610 0.82310 0.17940 0.01100
H 	H 	0.55090 0.43810 0.38680 0.09900
H 	H 	0.17940 0.32310 0.58610 0.01000
H 	H 	0.47330 0.56990 0.42380 0.03900
H 	H 	0.43010 0.35390 0.90340 0.03700
H 	H 	0.97330 0.42380 0.56990 0.04100
H 	H 	0.14410 0.38140 0.53050 0.08400
H 	H 	0.61320 0.55130 0.66410 0.10000
H 	H 	0.88680 0.55090 0.93810 0.10600
H 	H 	0.96810 0.18190 0.50420 0.07200
H 	H 	0.66410 0.05130 0.61320 0.08900
H 	H 	0.53610 0.03190 0.71380 -0.11000
H 	H 	0.64300 0.13480 0.03940 0.07400
H 	H 	0.65010 0.64820 0.58690 0.05000
H 	H 	0.20790 0.24980 0.18610 0.10500
H 	H 	0.18610 0.74980 0.20790 0.10600
H 	H 	0.45810 0.75020 0.93630 0.03900
H 	H 	0.26300 0.17690 0.35630 -0.03600
H 	H 	0.93380 0.86450 0.87570 0.00000
H 	H 	0.53050 0.88140 0.14410 0.09000
H 	H 	0.61860 0.64910 0.76270 0.13000
H 	H 	0.09540 0.46060 0.60360 0.06000
H 	H 	0.41110 0.83530 0.96860 0.11900
H 	H 	0.11360 0.85090 0.46950 0.18600
H 	H 	0.43070 0.56620 0.94190 0.06200
H 	H 	0.93630 0.25020 0.45810 0.03400
H 	H 	0.23700 0.59330 0.91390 -0.02800
H 	H 	0.57580 0.13330 0.16470 0.10400
H 	H 	0.59330 0.41390 0.73700 -0.03700
H 	H 	0.48880 0.05810 0.62430 0.06000
H 	H 	0.81810 0.82230 0.78620 -0.02400
C 	C 	0.39720 0.80140 0.38560 0.49900
C 	C 	0.63250 0.58640 0.64970 -0.25500
C 	C 	0.56330 0.54610 0.91360 -0.26700
C 	C 	0.39480 0.48530 0.41270 -0.12400
C 	C 	0.50450 0.51100 0.22330 0.16600
C 	C 	0.76660 0.18440 0.65880 -0.29300
C 	C 	0.54440 0.06210 0.44650 -0.09600
C 	C 	0.60520 0.09050 0.51790 -0.11500
C 	C 	0.00360 0.78130 0.51830 -0.53700
C 	C 	0.45390 0.86750 0.01720 -0.23500
C 	C 	0.66280 0.21510 0.17590 0.22500
C 	C 	0.02560 0.10780 0.84120 -0.25800
C 	C 	0.19390 0.82370 0.75240 0.19400
C 	C 	0.87020 0.17630 0.92870 0.18600
C 	C 	0.06330 0.91360 0.54610 -0.36000
C 	C 	0.49350 0.48900 0.71230 0.17200
C 	C 	0.58420 0.69860 0.09580 0.45600
C 	C 	0.94150 0.07130 0.24760 0.30600
C 	C 	0.27670 0.78120 0.78770 0.16100
C 	C 	0.77670 0.78770 0.78120 0.16100
C 	C 	0.69860 0.59580 0.08420 0.49700
C 	C 	0.61440 0.91580 0.51160 0.50600
C 	C 	0.08640 0.13250 0.14970 -0.24700
C 	C 	0.38440 0.43790 0.98230 0.13800
C 	C 	0.67630 0.37020 0.42870 0.20400
C 	C 	0.30140 0.89720 0.88560 0.49400
C 	C 	0.51770 0.90210 0.95560 -0.04200
C 	C 	0.09790 0.55350 0.61560 -0.08200
C 	C 	0.48210 0.07260 0.58730 -0.13600
C 	C 	0.01720 0.36750 0.45390 -0.23900
C 	C 	0.49640 0.01470 0.77770 -0.44000
C 	C 	0.88560 0.39720 0.30140 0.49600
C 	C 	0.01470 0.27770 0.99640 -0.22400
C 	C 	0.95390 0.01720 0.86750 -0.23700
C 	C 	0.86750 0.51720 0.95390 -0.24800
C 	C 	0.83720 0.01310 0.55230 0.21300
C 	C 	0.01160 0.61440 0.41580 0.50800
C 	C 	0.82370 0.25240 0.69390 0.19200
C 	C 	0.47440 0.31560 0.08220 -0.47600
C 	C 	0.48900 0.21230 0.99350 0.43500
C 	C 	0.92200 0.16590 0.97330 -0.22000
C 	C 	0.28770 0.27670 0.28120 0.16000
C 	C 	0.27770 0.49640 0.51470 -0.26600
C 	C 	0.57800 0.55130 0.24390 -0.25300
C 	C 	0.42740 0.40950 0.01470 -0.34200
C 	C 	0.78130 0.01830 0.50360 -0.30400
C 	C 	0.94870 0.02670 0.19260 -0.37700
C 	C 	0.90950 0.92740 0.51470 -0.12500
C 	C 	0.59050 0.10520 0.01790 -0.18100
C 	C 	0.46080 0.94770 0.28490 0.10500
C 	C 	0.26660 0.65880 0.18440 -0.29400
C 	C 	0.80610 0.62980 0.05850 0.21900
C 	C 	0.98280 0.35030 0.93670 -0.17100
C 	C 	0.04440 0.44650 0.06210 -0.13200
C 	C 	0.51100 0.72330 0.00450 -0.07000
C 	C 	0.03920 0.32410 0.48690 0.08200
C 	C 	0.82410 0.53920 0.98690 0.26400
C 	C 	0.09580 0.19860 0.58420 0.45300
C 	C 	0.41780 0.89220 0.73340 -0.41000
C 	C 	0.78120 0.28770 0.77670 0.15900
C 	C 	0.55850 0.80610 0.12980 0.07400
C 	C 	0.76300 0.48530 0.98170 -0.21900
C 	C 	0.48170 0.76300 0.98530 -0.04100
C 	C 	0.56210 0.04440 0.94650 -0.03400
C 	C 	0.25610 0.83410 0.80740 -0.24500
C 	C 	0.95560 0.40210 0.51770 -0.04200
C 	C 	0.88440 0.98230 0.43790 0.09300
C 	C 	0.12980 0.30610 0.55850 0.06600
C 	C 	0.55130 0.74390 0.07800 -0.13300
C 	C 	0.96080 0.28490 0.94770 0.22400
C 	C 	0.99640 0.77770 0.01470 -0.22300
C 	C 	0.48280 0.93670 0.35030 -0.17600
C 	C 	0.41360 0.56330 0.04610 -0.26400
C 	C 	0.05850 0.12980 0.80610 0.12100
C 	C 	0.51160 0.41580 0.61440 0.50300
C 	C 	0.08220 0.81560 0.47440 -0.47300
C 	C 	0.42870 0.87020 0.67630 0.30300
C 	C 	0.98690 0.03920 0.82410 0.15700
C 	C 	0.48530 0.91270 0.89480 -0.13400
C 	C 	0.59580 0.58420 0.19860 0.50100
C 	C 	0.17590 0.71510 0.66280 0.22600
C 	C 	0.64970 0.08640 0.63250 -0.24800
C 	C 	0.98170 0.98530 0.76300 -0.05000
C 	C 	0.41270 0.98530 0.39480 0.05200
C 	C 	0.90420 0.10280 0.98840 0.54500
C 	C 	0.30740 0.25610 0.33410 -0.24800
C 	C 	0.21230 0.49350 0.98900 0.21700
C 	C 	0.51470 0.42740 0.90950 -0.13700
C 	C 	0.19860 0.08420 0.59580 0.49800
C 	C 	0.48230 0.38440 0.93790 -0.05000
C 	C 	0.30610 0.05850 0.62980 0.21400
C 	C 	0.01830 0.00360 0.28130 -0.52700
C 	C 	0.34120 0.02560 0.60780 -0.34800
C 	C 	0.17630 0.42870 0.37020 0.20400
C 	C 	0.51310 0.33720 0.05230 0.38900
C 	C 	0.98900 0.99350 0.21230 0.42700
C 	C 	0.01100 0.00450 0.72330 -0.06200
C 	C 	0.45560 0.51770 0.40210 -0.07600
C 	C 	0.57130 0.44150 0.74760 0.20800
C 	C 	0.08420 0.09580 0.69860 0.46300
C 	C 	0.48530 0.48170 0.26300 -0.26500
C 	C 	0.28120 0.77670 0.28770 0.16000
C 	C 	0.47330 0.92200 0.66590 -0.34400
C 	C 	0.10780 0.34120 0.52560 -0.16500
C 	C 	0.98530 0.89480 0.91270 0.09400
C 	C 	0.51790 0.59050 0.60520 -0.12500
C 	C 	0.13250 0.64970 0.58640 -0.25700
C 	C 	0.23700 0.72230 0.71870 -0.26000
C 	C 	0.97330 0.66590 0.92200 -0.21700
C 	C 	0.61560 0.05350 0.09790 -0.13400
C 	C 	0.41580 0.11440 0.01160 0.50800
C 	C 	0.52670 0.44870 0.69260 -0.25500
C 	C 	0.08730 0.48210 0.57260 -0.12000
C 	C 	0.80140 0.88560 0.89720 0.49300
C 	C 	0.32370 0.69390 0.25240 0.19200
C 	C 	0.44650 0.56210 0.54440 -0.07600
C 	C 	0.01790 0.60520 0.59050 -0.18300
C 	C 	0.42200 0.97330 0.16590 -0.12800
C 	C 	0.50360 0.51830 0.78130 -0.27000
C 	C 	0.28130 0.50360 0.01830 -0.30800
C 	C 	0.98210 0.58730 0.07260 -0.08300
C 	C 	0.78770 0.28120 0.27670 0.16100
C 	C 	0.01770 0.95560 0.90210 -0.27300
C 	C 	0.58220 0.47440 0.81560 -0.31200
C 	C 	0.98530 0.26300 0.48170 -0.02800
C 	C 	0.78490 0.46080 0.44770 0.23300
C 	C 	0.94770 0.78490 0.96080 0.22400
C 	C 	0.16280 0.17590 0.21510 0.21900
C 	C 	0.07800 0.24390 0.55130 -0.13000
C 	C 	0.71510 0.16280 0.67590 0.22100
C 	C 	0.91780 0.73340 0.89220 -0.27500
C 	C 	0.11560 0.09790 0.05350 -0.13400
C 	C 	0.05130 0.07800 0.74390 -0.16200
C 	C 	0.01470 0.90950 0.42740 -0.34600
C 	C 	0.28490 0.44770 0.46080 0.23200
C 	C 	0.89480 0.41270 0.48530 -0.13500
C 	C 	0.65880 0.68440 0.76660 -0.29700
C 	C 	0.51830 0.28130 0.00360 -0.54600
C 	C 	0.89720 0.38560 0.80140 0.49600
C 	C 	0.44150 0.24760 0.07130 0.35400
C 	C 	0.48840 0.90420 0.60280 0.53700
C 	C 	0.02670 0.69260 0.44870 -0.40300
C 	C 	0.72230 0.21870 0.73700 -0.25500
C 	C 	0.69260 0.94870 0.52670 -0.25500
C 	C 	0.01310 0.05230 0.33720 0.32300
C 	C 	0.53920 0.48690 0.32410 0.23000
C 	C 	0.00450 0.22330 0.51100 -0.08400
C 	C 	0.40420 0.98840 0.10280 0.49900
C 	C 	0.81560 0.97440 0.58220 -0.26800
C 	C 	0.25240 0.19390 0.32370 0.19200
C 	C 	0.75610 0.80740 0.83410 -0.24000
C 	C 	0.21510 0.67590 0.16280 0.21900
C 	C 	0.83410 0.30740 0.75610 -0.24100
C 	C 	0.48690 0.82410 0.03920 0.09000
C 	C 	0.72330 0.50450 0.01100 0.11500
C 	C 	0.52560 0.84120 0.10780 -0.17100
C 	C 	0.44770 0.96080 0.78490 0.34300
C 	C 	0.37020 0.92870 0.17630 0.08100
C 	C 	0.07130 0.74760 0.44150 0.35100
C 	C 	0.35030 0.43670 0.48280 -0.25700
C 	C 	0.19260 0.52670 0.94870 -0.25500
C 	C 	0.22230 0.73700 0.21870 -0.25500
C 	C 	0.09050 0.01790 0.10520 -0.15500
C 	C 	0.07260 0.08730 0.98210 -0.07500
C 	C 	0.77770 0.51470 0.49640 -0.26600
C 	C 	0.54610 0.41360 0.06330 -0.35800
C 	C 	0.04610 0.06330 0.41360 -0.34200
C 	C 	0.14970 0.63250 0.08640 -0.24600
C 	C 	0.23340 0.41780 0.39220 -0.30800
C 	C 	0.18440 0.15880 0.26660 -0.29600
C 	C 	0.32410 0.98690 0.53920 0.25600
C 	C 	0.57260 0.98210 0.08730 -0.06800
C 	C 	0.26300 0.98170 0.48530 -0.23200
C 	C 	0.51470 0.99640 0.27770 -0.03800
C 	C 	0.10280 0.48840 0.40420 0.50300
C 	C 	0.66590 0.42200 0.47330 -0.25300
C 	C 	0.51720 0.45390 0.36750 -0.25600
C 	C 	0.97440 0.08220 0.31560 -0.38700
C 	C 	0.05350 0.59790 0.11560 -0.12400
C 	C 	0.74390 0.57800 0.05130 -0.25000
C 	C 	0.21870 0.23700 0.22230 -0.25800
C 	C 	0.15880 0.76660 0.68440 -0.29900
C 	C 	0.00650 0.71880 0.99550 0.14500
C 	C 	0.50650 0.99550 0.71880 0.35500
C 	C 	0.99350 0.71230 0.48900 0.42500
C 	C 	0.90210 0.45560 0.01770 -0.29200
C 	C 	0.73700 0.71870 0.72230 -0.25700
C 	C 	0.71880 0.49550 0.50650 0.17000
C 	C 	0.36750 0.95390 0.51720 -0.25100
C 	C 	0.33720 0.55230 0.01310 0.20000
C 	C 	0.68440 0.26660 0.15880 -0.29900
C 	C 	0.91270 0.39480 0.98530 0.09900
C 	C 	0.91360 0.04610 0.56330 -0.27200
C 	C 	0.59790 0.61560 0.55350 -0.07600
C 	C 	0.92870 0.67630 0.87020 0.18500
C 	C 	0.24390 0.05130 0.57800 -0.25400
C 	C 	0.55350 0.11560 0.59790 -0.07100
C 	C 	0.58640 0.14970 0.13250 -0.25600
C 	C 	0.33410 0.75610 0.30740 -0.24500
C 	C 	0.84120 0.60780 0.02560 -0.36000
C 	C 	0.75240 0.32370 0.19390 0.19400
C 	C 	0.31560 0.58220 0.97440 -0.25400
C 	C 	0.73340 0.39220 0.41780 -0.30700
C 	C 	0.43790 0.48230 0.88440 -0.08100
C 	C 	0.99550 0.21880 0.00650 0.15100
C 	C 	0.74760 0.94150 0.57130 0.19400
C 	C 	0.22330 0.01100 0.50450 0.12700
C 	C 	0.71870 0.22230 0.23700 -0.26000
C 	C 	0.43670 0.98280 0.85030 -0.27400
C 	C 	0.06210 0.94650 0.04440 -0.07400
C 	C 	0.55230 0.51310 0.83720 0.24000
C 	C 	0.16590 0.47330 0.42200 -0.25500
C 	C 	0.62980 0.55850 0.30610 0.20100
C 	C 	0.69390 0.75240 0.82370 0.19400
C 	C 	0.80740 0.33410 0.25610 -0.24600
C 	C 	0.21880 0.50650 0.49550 0.17000
C 	C 	0.93790 0.88440 0.48230 -0.05500
C 	C 	0.39220 0.91780 0.23340 -0.17000
C 	C 	0.58730 0.57260 0.48210 -0.12400
C 	C 	0.71230 0.98900 0.49350 0.21200
C 	C 	0.60280 0.40420 0.48840 0.50200
C 	C 	0.98840 0.60280 0.90420 0.54000
C 	C 	0.67590 0.66280 0.71510 0.22600
C 	C 	0.92740 0.01470 0.40950 -0.28800
C 	C 	0.85030 0.48280 0.43670 -0.25900
C 	C 	0.91580 0.01160 0.11440 0.51000
C 	C 	0.60780 0.52560 0.34120 -0.30500
C 	C 	0.40210 0.01770 0.45560 -0.24900
C 	C 	0.89220 0.23340 0.91780 -0.27600
C 	C 	0.40950 0.51470 0.92740 -0.11000
C 	C 	0.49550 0.00650 0.21880 -0.04600
C 	C 	0.94650 0.54440 0.56210 -0.01600
C 	C 	0.10520 0.51790 0.09050 -0.10100
C 	C 	0.93670 0.85030 0.98280 -0.17800
C 	C 	0.44870 0.19260 0.02670 -0.40900
C 	C 	0.98230 0.93790 0.38440 0.15300
C 	C 	0.11440 0.51160 0.91580 0.50800
C 	C 	0.05230 0.83720 0.51310 0.38700
C 	C 	0.24760 0.57130 0.94150 0.18800
C 	C 	0.38560 0.30140 0.39720 0.50000
N 	N 	0.98280 0.41350 0.99090 -0.14600
N 	N 	0.56930 0.57740 0.58650 -0.14600
N 	N 	0.00810 0.01720 0.93070 -0.14800
N 	N 	0.93070 0.51720 0.00810 -0.13600
N 	N 	0.00910 0.92260 0.49190 -0.12000
N 	N 	0.91350 0.48280 0.49090 -0.14700
N 	N 	0.01720 0.43070 0.50810 -0.16700
N 	N 	0.50810 0.93070 0.01720 -0.16700
N 	N 	0.08650 0.56930 0.07740 -0.15200
N 	N 	0.07740 0.06930 0.08650 -0.14700
N 	N 	0.42260 0.50910 0.99190 -0.15800
N 	N 	0.50910 0.49190 0.92260 -0.13700
N 	N 	0.49090 0.98280 0.91350 -0.13300
N 	N 	0.48280 0.99090 0.41350 -0.16300
N 	N 	0.58650 0.07740 0.56930 -0.15300
N 	N 	0.41350 0.49090 0.48280 -0.14600
N 	N 	0.99090 0.91350 0.98280 -0.15000
N 	N 	0.99190 0.00910 0.42260 -0.14100
N 	N 	0.57740 0.08650 0.06930 -0.13900
N 	N 	0.06930 0.58650 0.57740 -0.14200
N 	N 	0.92260 0.99190 0.50910 -0.14700
N 	N 	0.43070 0.00810 0.51720 -0.13600
N 	N 	0.51720 0.50810 0.43070 -0.14600
N 	N 	0.49190 0.42260 0.00910 -0.12600
O 	O 	0.42710 0.35820 0.40850 -0.54400
O 	O 	0.43050 0.76790 0.39780 -0.53600
O 	O 	0.23210 0.12990 0.66260 -0.53800
O 	O 	0.55030 0.56890 0.14180 -0.54700
O 	O 	0.60220 0.87010 0.53270 -0.53400
O 	O 	0.56890 0.64180 0.05030 -0.54300
O 	O 	0.01860 0.59150 0.94970 -0.56900
O 	O 	0.85820 0.92710 0.90850 -0.52000
O 	O 	0.83740 0.06950 0.96730 -0.53800
O 	O 	0.12990 0.16260 0.73210 -0.53000
O 	O 	0.40850 0.85820 0.42710 -0.54100
O 	O 	0.90850 0.42710 0.85820 -0.52900
O 	O 	0.37010 0.10220 0.03270 -0.55100
O 	O 	0.03270 0.60220 0.37010 -0.54400
O 	O 	0.44970 0.01860 0.09150 -0.57000
O 	O 	0.09150 0.51860 0.44970 -0.54900
O 	O 	0.62990 0.73210 0.16260 -0.52500
O 	O 	0.64180 0.55030 0.06890 -0.55100
O 	O 	0.07290 0.48140 0.93110 -0.54600
O 	O 	0.10220 0.53270 0.87010 -0.54200
O 	O 	0.92710 0.40850 0.35820 -0.53000
O 	O 	0.33740 0.96730 0.06950 -0.53400
O 	O 	0.93110 0.98140 0.07290 -0.52000
O 	O 	0.98140 0.57290 0.43110 -0.51600
O 	O 	0.05030 0.14180 0.56890 -0.54500
O 	O 	0.14180 0.06890 0.55030 -0.55300
O 	O 	0.93050 0.39780 0.76790 -0.52100
O 	O 	0.35820 0.90850 0.92710 -0.52400
O 	O 	0.57290 0.93110 0.48140 -0.53800
O 	O 	0.16260 0.23210 0.62990 -0.52700
O 	O 	0.43110 0.07290 0.98140 -0.52000
O 	O 	0.59150 0.44970 0.51860 -0.54400
O 	O 	0.53270 0.37010 0.60220 -0.53700
O 	O 	0.26790 0.93050 0.89780 -0.51700
O 	O 	0.39780 0.26790 0.43050 -0.53800
O 	O 	0.76790 0.89780 0.93050 -0.51200
O 	O 	0.87010 0.03270 0.10220 -0.54800
O 	O 	0.06890 0.05030 0.64180 -0.55000
O 	O 	0.66260 0.62990 0.23210 -0.53500
O 	O 	0.06950 0.46730 0.33740 -0.54600
O 	O 	0.96730 0.56950 0.83740 -0.53200
O 	O 	0.73210 0.66260 0.12990 -0.53500
O 	O 	0.48140 0.43110 0.57290 -0.54400
O 	O 	0.51860 0.94970 0.59150 -0.54400
O 	O 	0.94970 0.09150 0.01860 -0.57500
O 	O 	0.56950 0.33740 0.46730 -0.53800
O 	O 	0.46730 0.83740 0.56950 -0.54300
O 	O 	0.89780 0.43050 0.26790 -0.52600
