data_crystal

_cell_length_a 20.25100
_cell_length_b 20.25100
_cell_length_c 20.25100
_cell_angle_alpha 90.00000
_cell_angle_beta  90.00000
_cell_angle_gamma 90.00000

_symmetry_space_group_name_	'P 1'
_symmetry_space_group_name_H-M	'P 1'

loop_
_symmetry_equiv_pos_as_xyz
  x,y,z

loop_
_atom_site_label
_atom_site_type_symbol
_atom_site_fract_x
_atom_site_fract_y
_atom_site_fract_z
_atom_site_charge
Zn	Zn	0.16237 0.16237 0.16237 1.17400
Zn	Zn	0.26359 0.26359 0.26359 1.29400
O 	O 	0.32400 0.32400 0.32400 0.41200
Zn	Zn	0.83763 0.83763 0.16237 1.18100
Zn	Zn	0.73641 0.73641 0.26359 1.29400
O 	O 	0.67600 0.67600 0.32400 0.40900
Zn	Zn	0.83763 0.16237 0.83763 1.18000
Zn	Zn	0.73641 0.26359 0.73641 1.29300
O 	O 	0.67600 0.32400 0.67600 0.40800
Zn	Zn	0.16237 0.83763 0.83763 1.18000
Zn	Zn	0.26359 0.73641 0.73641 1.29300
O 	O 	0.32400 0.67600 0.67600 0.40800
Zn	Zn	0.16237 0.16237 0.83763 1.17700
Zn	Zn	0.26359 0.26359 0.73641 1.29300
O 	O 	0.32400 0.32400 0.67600 0.40900
Zn	Zn	0.83763 0.83763 0.83763 1.18400
Zn	Zn	0.73641 0.73641 0.73641 1.29300
O 	O 	0.67600 0.67600 0.67600 0.40600
Zn	Zn	0.16237 0.83763 0.16237 1.17700
Zn	Zn	0.26359 0.73641 0.26359 1.29300
O 	O 	0.32400 0.67600 0.32400 0.40900
Zn	Zn	0.83763 0.16237 0.16237 1.17700
Zn	Zn	0.73641 0.26359 0.26359 1.29300
O 	O 	0.67600 0.32400 0.32400 0.40900
O 	O 	0.17950 0.28290 0.28290 -0.55100
O 	O 	0.05780 0.42940 0.42940 -0.46600
O 	O 	0.11880 0.22350 0.22350 -0.60100
C 	C 	0.05830 0.33910 0.33910 0.10400
H 	H 	0.09850 0.35620 0.35620 0.04300
C 	C 	0.06070 0.29050 0.29050 -0.22500
C 	C 	0.12580 0.26530 0.26530 0.57200
O 	O 	0.28400 0.33800 0.33800 -0.28800
O 	O 	0.82050 0.71710 0.28290 -0.54600
O 	O 	0.94220 0.57060 0.42940 -0.44300
O 	O 	0.88120 0.77650 0.22350 -0.58400
C 	C 	0.94170 0.66090 0.33910 0.13200
H 	H 	0.90150 0.64380 0.35620 0.03900
C 	C 	0.93930 0.70950 0.29050 -0.20000
C 	C 	0.87420 0.73470 0.26530 0.56800
O 	O 	0.71600 0.66200 0.33800 -0.28600
O 	O 	0.82050 0.28290 0.71710 -0.54600
O 	O 	0.94220 0.42940 0.57060 -0.44300
O 	O 	0.88120 0.22350 0.77650 -0.58400
C 	C 	0.94170 0.33910 0.66090 0.13200
H 	H 	0.90150 0.35620 0.64380 0.03900
C 	C 	0.93930 0.29050 0.70950 -0.20000
C 	C 	0.87420 0.26530 0.73470 0.56800
O 	O 	0.71600 0.33800 0.66200 -0.28600
O 	O 	0.17950 0.71710 0.71710 -0.54800
O 	O 	0.05780 0.57060 0.57060 -0.46500
O 	O 	0.11880 0.77650 0.77650 -0.59200
C 	C 	0.05830 0.66090 0.66090 0.10300
H 	H 	0.09850 0.64380 0.64380 0.04500
C 	C 	0.06070 0.70950 0.70950 -0.21900
C 	C 	0.12580 0.73470 0.73470 0.57100
O 	O 	0.28400 0.66200 0.66200 -0.28600
O 	O 	0.28290 0.17950 0.28290 -0.55100
O 	O 	0.42940 0.05780 0.42940 -0.46600
O 	O 	0.22350 0.11880 0.22350 -0.60100
C 	C 	0.33910 0.05830 0.33910 0.10400
H 	H 	0.35620 0.09850 0.35620 0.04300
C 	C 	0.29050 0.06070 0.29050 -0.22500
C 	C 	0.26530 0.12580 0.26530 0.57200
O 	O 	0.33800 0.28400 0.33800 -0.28800
O 	O 	0.28290 0.82050 0.71710 -0.54600
O 	O 	0.42940 0.94220 0.57060 -0.44300
O 	O 	0.22350 0.88120 0.77650 -0.58400
C 	C 	0.33910 0.94170 0.66090 0.13200
H 	H 	0.35620 0.90150 0.64380 0.03900
C 	C 	0.29050 0.93930 0.70950 -0.20000
C 	C 	0.26530 0.87420 0.73470 0.56800
O 	O 	0.33800 0.71600 0.66200 -0.28600
O 	O 	0.71710 0.82050 0.28290 -0.54600
O 	O 	0.57060 0.94220 0.42940 -0.44300
O 	O 	0.77650 0.88120 0.22350 -0.58400
C 	C 	0.66090 0.94170 0.33910 0.13200
H 	H 	0.64380 0.90150 0.35620 0.03900
C 	C 	0.70950 0.93930 0.29050 -0.20000
C 	C 	0.73470 0.87420 0.26530 0.56800
O 	O 	0.66200 0.71600 0.33800 -0.28600
O 	O 	0.71710 0.17950 0.71710 -0.54800
O 	O 	0.57060 0.05780 0.57060 -0.46500
O 	O 	0.77650 0.11880 0.77650 -0.59200
C 	C 	0.66090 0.05830 0.66090 0.10300
H 	H 	0.64380 0.09850 0.64380 0.04500
C 	C 	0.70950 0.06070 0.70950 -0.21900
C 	C 	0.73470 0.12580 0.73470 0.57100
O 	O 	0.66200 0.28400 0.66200 -0.28600
O 	O 	0.28290 0.28290 0.17950 -0.55100
O 	O 	0.42940 0.42940 0.05780 -0.46600
O 	O 	0.22350 0.22350 0.11880 -0.60100
C 	C 	0.33910 0.33910 0.05830 0.10400
H 	H 	0.35620 0.35620 0.09850 0.04300
C 	C 	0.29050 0.29050 0.06070 -0.22500
C 	C 	0.26530 0.26530 0.12580 0.57200
O 	O 	0.33800 0.33800 0.28400 -0.28800
O 	O 	0.71710 0.28290 0.82050 -0.54600
O 	O 	0.57060 0.42940 0.94220 -0.44300
O 	O 	0.77650 0.22350 0.88120 -0.58400
C 	C 	0.66090 0.33910 0.94170 0.13200
H 	H 	0.64380 0.35620 0.90150 0.03900
C 	C 	0.70950 0.29050 0.93930 -0.20000
C 	C 	0.73470 0.26530 0.87420 0.56800
O 	O 	0.66200 0.33800 0.71600 -0.28600
O 	O 	0.28290 0.71710 0.82050 -0.54600
O 	O 	0.42940 0.57060 0.94220 -0.44300
O 	O 	0.22350 0.77650 0.88120 -0.58400
C 	C 	0.33910 0.66090 0.94170 0.13200
H 	H 	0.35620 0.64380 0.90150 0.03900
C 	C 	0.29050 0.70950 0.93930 -0.20000
C 	C 	0.26530 0.73470 0.87420 0.56800
O 	O 	0.33800 0.66200 0.71600 -0.28600
O 	O 	0.71710 0.71710 0.17950 -0.54800
O 	O 	0.57060 0.57060 0.05780 -0.46500
O 	O 	0.77650 0.77650 0.11880 -0.59200
C 	C 	0.66090 0.66090 0.05830 0.10300
H 	H 	0.64380 0.64380 0.09850 0.04500
C 	C 	0.70950 0.70950 0.06070 -0.21900
C 	C 	0.73470 0.73470 0.12580 0.57100
O 	O 	0.66200 0.66200 0.28400 -0.28600
O 	O 	0.28290 0.17950 0.71710 -0.55000
O 	O 	0.42940 0.05780 0.57060 -0.46500
O 	O 	0.22350 0.11880 0.77650 -0.59700
C 	C 	0.33910 0.05830 0.66090 0.10400
H 	H 	0.35620 0.09850 0.64380 0.04400
C 	C 	0.29050 0.06070 0.70950 -0.22200
C 	C 	0.26530 0.12580 0.73470 0.57200
O 	O 	0.33800 0.28400 0.66200 -0.28700
O 	O 	0.71710 0.82050 0.71710 -0.54500
O 	O 	0.57060 0.94220 0.57060 -0.44300
O 	O 	0.77650 0.88120 0.77650 -0.58000
C 	C 	0.66090 0.94170 0.66090 0.13100
H 	H 	0.64380 0.90150 0.64380 0.04000
C 	C 	0.70950 0.93930 0.70950 -0.19600
C 	C 	0.73470 0.87420 0.73470 0.56800
O 	O 	0.66200 0.71600 0.66200 -0.28500
O 	O 	0.28290 0.82050 0.28290 -0.54700
O 	O 	0.42940 0.94220 0.42940 -0.44400
O 	O 	0.22350 0.88120 0.22350 -0.58800
C 	C 	0.33910 0.94170 0.33910 0.13200
H 	H 	0.35620 0.90150 0.35620 0.03900
C 	C 	0.29050 0.93930 0.29050 -0.20300
C 	C 	0.26530 0.87420 0.26530 0.56900
O 	O 	0.33800 0.71600 0.33800 -0.28700
O 	O 	0.71710 0.17950 0.28290 -0.55000
O 	O 	0.57060 0.05780 0.42940 -0.46500
O 	O 	0.77650 0.11880 0.22350 -0.59700
C 	C 	0.66090 0.05830 0.33910 0.10400
H 	H 	0.64380 0.09850 0.35620 0.04400
C 	C 	0.70950 0.06070 0.29050 -0.22200
C 	C 	0.73470 0.12580 0.26530 0.57200
O 	O 	0.66200 0.28400 0.33800 -0.28700
O 	O 	0.17950 0.28290 0.71710 -0.55000
O 	O 	0.05780 0.42940 0.57060 -0.46500
O 	O 	0.11880 0.22350 0.77650 -0.59700
C 	C 	0.05830 0.33910 0.66090 0.10400
H 	H 	0.09850 0.35620 0.64380 0.04400
C 	C 	0.06070 0.29050 0.70950 -0.22200
C 	C 	0.12580 0.26530 0.73470 0.57200
O 	O 	0.28400 0.33800 0.66200 -0.28700
O 	O 	0.82050 0.28290 0.28290 -0.54700
O 	O 	0.94220 0.42940 0.42940 -0.44400
O 	O 	0.88120 0.22350 0.22350 -0.58800
C 	C 	0.94170 0.33910 0.33910 0.13200
H 	H 	0.90150 0.35620 0.35620 0.03900
C 	C 	0.93930 0.29050 0.29050 -0.20300
C 	C 	0.87420 0.26530 0.26530 0.56900
O 	O 	0.71600 0.33800 0.33800 -0.28700
O 	O 	0.82050 0.71710 0.71710 -0.54500
O 	O 	0.94220 0.57060 0.57060 -0.44300
O 	O 	0.88120 0.77650 0.77650 -0.58000
C 	C 	0.94170 0.66090 0.66090 0.13100
H 	H 	0.90150 0.64380 0.64380 0.04000
C 	C 	0.93930 0.70950 0.70950 -0.19600
C 	C 	0.87420 0.73470 0.73470 0.56800
O 	O 	0.71600 0.66200 0.66200 -0.28500
O 	O 	0.17950 0.71710 0.28290 -0.55000
O 	O 	0.05780 0.57060 0.42940 -0.46500
O 	O 	0.11880 0.77650 0.22350 -0.59700
C 	C 	0.05830 0.66090 0.33910 0.10400
H 	H 	0.09850 0.64380 0.35620 0.04400
C 	C 	0.06070 0.70950 0.29050 -0.22200
C 	C 	0.12580 0.73470 0.26530 0.57200
O 	O 	0.28400 0.66200 0.33800 -0.28700
O 	O 	0.28290 0.28290 0.82050 -0.54700
O 	O 	0.42940 0.42940 0.94220 -0.44400
O 	O 	0.22350 0.22350 0.88120 -0.58800
C 	C 	0.33910 0.33910 0.94170 0.13200
H 	H 	0.35620 0.35620 0.90150 0.03900
C 	C 	0.29050 0.29050 0.93930 -0.20300
C 	C 	0.26530 0.26530 0.87420 0.56900
O 	O 	0.33800 0.33800 0.71600 -0.28700
O 	O 	0.28290 0.71710 0.17950 -0.55000
O 	O 	0.42940 0.57060 0.05780 -0.46500
O 	O 	0.22350 0.77650 0.11880 -0.59700
C 	C 	0.33910 0.66090 0.05830 0.10400
H 	H 	0.35620 0.64380 0.09850 0.04400
C 	C 	0.29050 0.70950 0.06070 -0.22200
C 	C 	0.26530 0.73470 0.12580 0.57200
O 	O 	0.33800 0.66200 0.28400 -0.28700
O 	O 	0.71710 0.28290 0.17950 -0.55000
O 	O 	0.57060 0.42940 0.05780 -0.46500
O 	O 	0.77650 0.22350 0.11880 -0.59700
C 	C 	0.66090 0.33910 0.05830 0.10400
H 	H 	0.64380 0.35620 0.09850 0.04400
C 	C 	0.70950 0.29050 0.06070 -0.22200
C 	C 	0.73470 0.26530 0.12580 0.57200
O 	O 	0.66200 0.33800 0.28400 -0.28700
O 	O 	0.71710 0.71710 0.82050 -0.54500
O 	O 	0.57060 0.57060 0.94220 -0.44300
O 	O 	0.77650 0.77650 0.88120 -0.58000
C 	C 	0.66090 0.66090 0.94170 0.13100
H 	H 	0.64380 0.64380 0.90150 0.04000
C 	C 	0.70950 0.70950 0.93930 -0.19600
C 	C 	0.73470 0.73470 0.87420 0.56800
O 	O 	0.66200 0.66200 0.71600 -0.28500
O 	O 	0.28190 0.37700 0.28190 -0.05100
O 	O 	0.71810 0.62300 0.28190 -0.04900
O 	O 	0.71810 0.37700 0.71810 -0.04700
O 	O 	0.28190 0.62300 0.71810 -0.04900
O 	O 	0.28190 0.28190 0.37700 -0.05100
O 	O 	0.28190 0.71810 0.62300 -0.04900
O 	O 	0.71810 0.71810 0.37700 -0.04700
O 	O 	0.71810 0.28190 0.62300 -0.04900
O 	O 	0.37700 0.28190 0.28190 -0.05100
O 	O 	0.62300 0.28190 0.71810 -0.04900
O 	O 	0.37700 0.71810 0.71810 -0.04700
O 	O 	0.62300 0.71810 0.28190 -0.04900
O 	O 	0.37700 0.28190 0.71810 -0.04900
O 	O 	0.62300 0.71810 0.71810 -0.04700
O 	O 	0.37700 0.71810 0.28190 -0.04900
O 	O 	0.62300 0.28190 0.28190 -0.05100
O 	O 	0.28190 0.28190 0.62300 -0.05100
O 	O 	0.71810 0.28190 0.37700 -0.04900
O 	O 	0.71810 0.71810 0.62300 -0.04700
O 	O 	0.28190 0.71810 0.37700 -0.04900
O 	O 	0.28190 0.37700 0.71810 -0.04900
O 	O 	0.28190 0.62300 0.28190 -0.05100
O 	O 	0.71810 0.37700 0.28190 -0.04900
O 	O 	0.71810 0.62300 0.71810 -0.04700
Zn	Zn	0.07310 0.50000 0.50000 1.19100
Zn	Zn	0.92690 0.50000 0.50000 1.19500
Zn	Zn	0.50000 0.07310 0.50000 1.19100
Zn	Zn	0.50000 0.92690 0.50000 1.19500
Zn	Zn	0.50000 0.50000 0.07310 1.19100
Zn	Zn	0.50000 0.50000 0.92690 1.19500
C 	C 	0.00000 0.36300 0.36300 -0.12700
C 	C 	0.00000 0.26610 0.26610 0.11700
H 	H 	0.00000 0.23300 0.23300 -0.03700
C 	C 	0.00000 0.42050 0.42050 0.34400
C 	C 	0.00000 0.63700 0.36300 -0.12500
C 	C 	0.00000 0.73390 0.26610 0.11600
H 	H 	-0.00000 0.76700 0.23300 -0.03300
C 	C 	0.00000 0.57950 0.42050 0.34400
C 	C 	0.00000 0.36300 0.63700 -0.12500
C 	C 	-0.00000 0.26610 0.73390 0.11600
H 	H 	-0.00000 0.23300 0.76700 -0.03300
C 	C 	0.00000 0.42050 0.57950 0.34400
C 	C 	0.00000 0.63700 0.63700 -0.12300
C 	C 	0.00000 0.73390 0.73390 0.11500
H 	H 	-0.00000 0.76700 0.76700 -0.02900
C 	C 	0.00000 0.57950 0.57950 0.34400
C 	C 	0.36300 0.00000 0.36300 -0.12700
C 	C 	0.26610 0.00000 0.26610 0.11700
H 	H 	0.23300 0.00000 0.23300 -0.03700
C 	C 	0.42050 0.00000 0.42050 0.34400
C 	C 	0.36300 0.00000 0.63700 -0.12500
C 	C 	0.26610 0.00000 0.73390 0.11600
H 	H 	0.23300 0.00000 0.76700 -0.03300
C 	C 	0.42050 0.00000 0.57950 0.34400
C 	C 	0.63700 0.00000 0.36300 -0.12500
C 	C 	0.73390 0.00000 0.26610 0.11600
H 	H 	0.76700 0.00000 0.23300 -0.03300
C 	C 	0.57950 0.00000 0.42050 0.34400
C 	C 	0.63700 0.00000 0.63700 -0.12300
C 	C 	0.73390 0.00000 0.73390 0.11500
H 	H 	0.76700 0.00000 0.76700 -0.02900
C 	C 	0.57950 0.00000 0.57950 0.34400
C 	C 	0.36300 0.36300 -0.00000 -0.12700
C 	C 	0.26610 0.26610 -0.00000 0.11700
H 	H 	0.23300 0.23300 -0.00000 -0.03700
C 	C 	0.42050 0.42050 -0.00000 0.34400
C 	C 	0.63700 0.36300 -0.00000 -0.12500
C 	C 	0.73390 0.26610 -0.00000 0.11600
H 	H 	0.76700 0.23300 -0.00000 -0.03300
C 	C 	0.57950 0.42050 -0.00000 0.34400
C 	C 	0.36300 0.63700 -0.00000 -0.12500
C 	C 	0.26610 0.73390 -0.00000 0.11600
H 	H 	0.23300 0.76700 -0.00000 -0.03300
C 	C 	0.42050 0.57950 -0.00000 0.34400
C 	C 	0.63700 0.63700 -0.00000 -0.12300
C 	C 	0.73390 0.73390 -0.00000 0.11500
H 	H 	0.76700 0.76700 -0.00000 -0.02900
C 	C 	0.57950 0.57950 -0.00000 0.34400
