data_crystal

_cell_length_a 9.88240
_cell_length_b 11.54800
_cell_length_c 15.64800
_cell_angle_alpha 89.78400
_cell_angle_beta  76.44100
_cell_angle_gamma 75.60300

_symmetry_space_group_name_	'P 1'
_symmetry_space_group_name_H-M	'P 1'

loop_
_symmetry_equiv_pos_as_xyz
  x,y,z

loop_
_atom_site_label
_atom_site_type_symbol
_atom_site_fract_x
_atom_site_fract_y
_atom_site_fract_z
_atom_site_charge
Zn	Zn	0.15965 0.97354 0.97675 1.21500
O 	O 	0.16025 0.85651 0.07343 -0.45800
O 	O 	0.92141 0.89373 0.09997 -0.46600
O 	O 	0.88267 0.14338 0.10536 -0.46700
O 	O 	0.12352 0.10575 0.07072 -0.45700
N 	N 	0.36558 0.96364 0.91130 -0.26500
C 	C 	0.00022 0.15542 0.11732 0.39900
C 	C 	0.99358 0.23526 0.19481 -0.13800
C 	C 	0.10768 0.28499 0.19600 0.06700
H 	H 	0.18680 0.27100 0.14790 0.02400
C 	C 	0.10420 0.35543 0.26851 -0.13400
H 	H 	0.17990 0.39000 0.26820 0.07900
C 	C 	0.98780 0.37474 0.34192 0.07600
C 	C 	0.87500 0.32375 0.34075 -0.13700
H 	H 	0.79760 0.33510 0.38970 0.07800
C 	C 	0.87640 0.25591 0.26709 0.06400
H 	H 	0.79870 0.22440 0.26630 0.01800
C 	C 	0.99040 0.44284 0.42264 -0.01400
C 	C 	0.02660 0.61163 0.49691 -0.06400
H 	H 	0.04530 0.68680 0.49460 0.05500
C 	C 	0.01652 0.55710 0.41991 -0.01700
C 	C 	0.42860 0.05100 0.92182 0.11500
H 	H 	0.38560 0.10680 0.96920 -0.00800
C 	C 	0.55490 0.06200 0.86535 -0.19400
H 	H 	0.59640 0.12280 0.87600 0.10500
C 	C 	0.61980 0.98163 0.79236 0.15000
C 	C 	0.74490 0.99977 0.72706 -0.13000
H 	H 	0.80040 0.04540 0.74420 0.08300
C 	C 	0.55700 0.88829 0.78402 -0.18900
H 	H 	0.59930 0.82980 0.73830 0.09700
C 	C 	0.43180 0.88270 0.84380 0.10500
H 	H 	0.39140 0.81970 0.83690 -0.00900
C 	C 	0.02528 0.62624 0.33843 0.08300
C 	C 	0.15410 0.64707 0.29302 -0.14800
H 	H 	0.23750 0.61560 0.31200 0.08100
C 	C 	0.03960 0.84429 0.11570 0.39700
C 	C 	0.03670 0.76465 0.19193 -0.14600
C 	C 	0.90750 0.74340 0.23728 0.07100
H 	H 	0.82360 0.77660 0.21920 0.02200
C 	C 	0.90260 0.67280 0.30963 -0.14300
H 	H 	0.81610 0.65700 0.33860 0.08300
C 	C 	0.16010 0.71446 0.21936 0.07100
H 	H 	0.24780 0.72590 0.18830 0.01600
C 	C 	0.78290 0.95394 0.64417 -0.02600
H 	H 	0.73220 0.90150 0.63060 0.04000
C 	C 	0.89597 0.97731 0.57228 0.03100
C 	C 	0.90210 0.93953 0.48602 -0.05400
H 	H 	0.83640 0.89860 0.47650 0.05000
C 	C 	0.99650 0.03820 0.58508 -0.06900
H 	H 	0.99500 0.06370 0.64170 0.05800
Zn	Zn	0.84035 0.02646 0.02325 1.21500
O 	O 	0.83975 0.14349 0.92657 -0.45800
O 	O 	0.07859 0.10627 0.90003 -0.46600
O 	O 	0.11733 0.85662 0.89464 -0.46700
O 	O 	0.87648 0.89425 0.92928 -0.45700
N 	N 	0.63442 0.03636 0.08870 -0.26500
C 	C 	0.99978 0.84458 0.88268 0.39900
C 	C 	0.00642 0.76474 0.80519 -0.13800
C 	C 	0.89232 0.71501 0.80400 0.06700
H 	H 	0.81320 0.72900 0.85210 0.02400
C 	C 	0.89580 0.64457 0.73149 -0.13400
H 	H 	0.82010 0.61000 0.73180 0.07900
C 	C 	0.01220 0.62526 0.65808 0.07600
C 	C 	0.12500 0.67625 0.65925 -0.13700
H 	H 	0.20240 0.66490 0.61030 0.07800
C 	C 	0.12360 0.74409 0.73291 0.06400
H 	H 	0.20130 0.77560 0.73370 0.01800
C 	C 	0.00960 0.55716 0.57736 -0.01400
C 	C 	0.97340 0.38837 0.50309 -0.06400
H 	H 	0.95470 0.31320 0.50540 0.05500
C 	C 	0.98348 0.44290 0.58009 -0.01700
C 	C 	0.57140 0.94900 0.07818 0.11500
H 	H 	0.61440 0.89320 0.03080 -0.00800
C 	C 	0.44510 0.93800 0.13465 -0.19400
H 	H 	0.40360 0.87720 0.12400 0.10500
C 	C 	0.38020 0.01837 0.20764 0.15000
C 	C 	0.25510 0.00023 0.27294 -0.13000
H 	H 	0.19960 0.95460 0.25580 0.08300
C 	C 	0.44300 0.11171 0.21598 -0.18900
H 	H 	0.40070 0.17020 0.26170 0.09700
C 	C 	0.56820 0.11730 0.15620 0.10500
H 	H 	0.60860 0.18030 0.16310 -0.00900
C 	C 	0.97472 0.37376 0.66157 0.08300
C 	C 	0.84590 0.35293 0.70698 -0.14800
H 	H 	0.76250 0.38440 0.68800 0.08100
C 	C 	0.96040 0.15571 0.88430 0.39700
C 	C 	0.96330 0.23535 0.80807 -0.14600
C 	C 	0.09250 0.25660 0.76272 0.07100
H 	H 	0.17640 0.22340 0.78080 0.02200
C 	C 	0.09740 0.32720 0.69037 -0.14300
H 	H 	0.18390 0.34300 0.66140 0.08300
C 	C 	0.83990 0.28554 0.78064 0.07100
H 	H 	0.75220 0.27410 0.81170 0.01600
C 	C 	0.21710 0.04606 0.35583 -0.02600
H 	H 	0.26780 0.09850 0.36940 0.04000
C 	C 	0.10403 0.02269 0.42772 0.03100
C 	C 	0.09790 0.06047 0.51398 -0.05400
H 	H 	0.16360 0.10140 0.52350 0.05000
C 	C 	0.00350 0.96180 0.41492 -0.06900
H 	H 	0.00500 0.93630 0.35830 0.05800
