data_crystal

_cell_length_a 11.38200
_cell_length_b 11.38200
_cell_length_c 11.73400
_cell_angle_alpha 90.00000
_cell_angle_beta  90.00000
_cell_angle_gamma 120.00000

_symmetry_space_group_name_	'P 1'
_symmetry_space_group_name_H-M	'P 1'

loop_
_symmetry_equiv_pos_as_xyz
  x,y,z

loop_
_atom_site_label
_atom_site_type_symbol
_atom_site_fract_x
_atom_site_fract_y
_atom_site_fract_z
_atom_site_charge
Np	Np	0.50744 0.89648 0.75000 0.03400
Np	Np	0.38904 0.49256 0.75000 0.03400
Np	Np	0.10352 0.61096 0.75000 0.03600
Np	Np	0.49256 0.10352 0.25000 0.03500
Np	Np	0.61096 0.50744 0.25000 0.03500
Np	Np	0.89648 0.38904 0.25000 0.03600
C 	C 	0.49930 0.93690 0.47560 0.23000
C 	C 	0.43760 0.50070 0.47560 0.23000
C 	C 	0.06310 0.56240 0.47560 0.23000
C 	C 	0.50070 0.06310 0.97560 0.22800
C 	C 	0.56240 0.49930 0.97560 0.22900
C 	C 	0.93690 0.43760 0.97560 0.22700
C 	C 	0.50070 0.06310 0.52440 0.23000
C 	C 	0.56240 0.49930 0.52440 0.23000
C 	C 	0.93690 0.43760 0.52440 0.23000
C 	C 	0.49930 0.93690 0.02440 0.22800
C 	C 	0.43760 0.50070 0.02440 0.22900
C 	C 	0.06310 0.56240 0.02440 0.22700
O 	O 	0.50430 0.85600 0.54420 -0.12300
O 	O 	0.51010 0.07600 0.63160 -0.11500
O 	O 	0.35170 0.49570 0.54420 -0.12300
O 	O 	0.56590 0.48990 0.63160 -0.11500
O 	O 	0.14400 0.64830 0.54420 -0.12300
O 	O 	0.92400 0.43410 0.63160 -0.11500
O 	O 	0.49570 0.14400 0.04420 -0.12100
O 	O 	0.48990 0.92400 0.13160 -0.11500
O 	O 	0.64830 0.50430 0.04420 -0.12300
O 	O 	0.43410 0.51010 0.13160 -0.11500
O 	O 	0.85600 0.35170 0.04420 -0.12100
O 	O 	0.07600 0.56590 0.13160 -0.11500
O 	O 	0.49570 0.14400 0.45580 -0.12300
O 	O 	0.48990 0.92400 0.36840 -0.11500
O 	O 	0.64830 0.50430 0.45580 -0.12300
O 	O 	0.43410 0.51010 0.36840 -0.11500
O 	O 	0.85600 0.35170 0.45580 -0.12300
O 	O 	0.07600 0.56590 0.36840 -0.11500
O 	O 	0.50430 0.85600 0.95580 -0.12100
O 	O 	0.51010 0.07600 0.86840 -0.11500
O 	O 	0.35170 0.49570 0.95580 -0.12300
O 	O 	0.56590 0.48990 0.86840 -0.11500
O 	O 	0.14400 0.64830 0.95580 -0.12100
O 	O 	0.92400 0.43410 0.86840 -0.11500
O 	O 	0.31660 0.81290 0.75000 -0.01800
O 	O 	0.49630 0.68340 0.75000 -0.01900
O 	O 	0.18710 0.50370 0.75000 -0.01800
O 	O 	0.68340 0.18710 0.25000 -0.01800
O 	O 	0.50370 0.31660 0.25000 -0.01900
O 	O 	0.81290 0.49630 0.25000 -0.01800
