data_crystal

_cell_length_a 16.27990
_cell_length_b 7.22140
_cell_length_c 24.27160
_cell_angle_alpha 90.00000
_cell_angle_beta  116.41900
_cell_angle_gamma 90.00000

_symmetry_space_group_name_	'P 1'
_symmetry_space_group_name_H-M	'P 1'

loop_
_symmetry_equiv_pos_as_xyz
  x,y,z

loop_
_atom_site_label
_atom_site_type_symbol
_atom_site_fract_x
_atom_site_fract_y
_atom_site_fract_z
_atom_site_charge
Co	Co	0.44146 0.16272 0.98468 1.15600
F 	F 	0.94483 0.33180 0.88846 -0.45500
F 	F 	0.91190 0.47310 0.80375 -0.49900
F 	F 	0.82643 0.25380 0.80654 -0.52500
F 	F 	0.94566 0.74510 0.88884 -0.46200
F 	F 	0.92151 0.59540 0.95639 -0.43100
F 	F 	0.83314 0.81981 0.90781 -0.50700
O 	O 	0.51880 0.29850 0.95171 -0.44000
O 	O 	0.52486 0.77140 0.57305 -0.45300
O 	O 	0.61477 0.02160 0.59776 -0.44200
O 	O 	0.61142 0.05230 0.98107 -0.45500
N 	N 	0.32734 0.32460 0.96340 -0.22700
N 	N 	0.21971 0.53240 0.91657 -0.12800
C 	C 	0.03993 0.75500 0.77963 0.08000
C 	C 	0.06064 0.94080 0.79518 0.13800
C 	C 	0.13343 0.99780 0.84916 -0.04000
H 	H 	0.14630 0.12270 0.85830 0.10000
C 	C 	0.18627 0.86120 0.88896 -0.07000
H 	H 	0.23570 0.89370 0.92590 0.08500
C 	C 	0.16604 0.67500 0.87405 0.14700
C 	C 	0.09396 0.61930 0.81961 -0.09300
H 	H 	0.08210 0.49440 0.81010 0.16100
C 	C 	0.30334 0.47020 0.92697 0.11300
H 	H 	0.33960 0.52340 0.91050 0.00300
C 	C 	0.25588 0.29340 0.97784 0.03300
H 	H 	0.25370 0.19930 0.00330 0.06700
C 	C 	0.18931 0.42010 0.94935 0.00400
H 	H 	0.13380 0.42950 0.95150 0.15100
C 	C 	0.58765 0.20850 0.95598 0.41900
C 	C 	0.64635 0.29440 0.92938 -0.24200
C 	C 	0.62506 0.46550 0.90082 0.22600
H 	H 	0.57440 0.53070 0.89870 -0.02200
C 	C 	0.67899 0.54000 0.87540 -0.35000
H 	H 	0.66360 0.65460 0.85590 0.18500
C 	C 	0.75523 0.44710 0.87851 0.41900
C 	C 	0.77775 0.27770 0.90869 -0.34400
H 	H 	0.82980 0.21480 0.91240 0.28100
C 	C 	0.72357 0.20210 0.93328 0.25100
H 	H 	0.73900 0.08760 0.95280 0.00100
C 	C 	0.81508 0.54080 0.85158 -0.54200
C 	C 	0.75499 0.63810 0.78984 0.40800
C 	C 	0.59065 0.86780 0.60976 0.42100
C 	C 	0.64634 0.78910 0.67323 -0.23400
C 	C 	0.71855 0.88880 0.71723 0.22500
H 	H 	0.73070 0.00770 0.70800 0.01100
C 	C 	0.77286 0.81420 0.77460 -0.33800
H 	H 	0.82170 0.88230 0.80320 0.26200
C 	C 	0.68195 0.53920 0.74581 -0.33900
H 	H 	0.66870 0.42150 0.75530 0.18800
C 	C 	0.62882 0.61310 0.68827 0.21900
H 	H 	0.58080 0.54410 0.65930 -0.01900
C 	C 	0.87941 0.67560 0.90115 0.98500
C 	C 	0.87497 0.39840 0.83790 0.99400
Co	Co	0.55854 0.16272 0.51532 1.15700
F 	F 	0.05517 0.33180 0.61154 -0.44700
F 	F 	0.08810 0.47310 0.69625 -0.49400
F 	F 	0.17357 0.25380 0.69346 -0.52300
F 	F 	0.05434 0.74510 0.61116 -0.45500
F 	F 	0.07849 0.59540 0.54361 -0.42500
F 	F 	0.16686 0.81981 0.59219 -0.50500
O 	O 	0.48120 0.29850 0.54829 -0.44000
O 	O 	0.47514 0.77140 0.92695 -0.45300
O 	O 	0.38523 0.02160 0.90224 -0.44200
O 	O 	0.38858 0.05230 0.51893 -0.45600
N 	N 	0.67266 0.32460 0.53660 -0.22700
N 	N 	0.78029 0.53240 0.58343 -0.12800
C 	C 	0.96007 0.75500 0.72037 0.05300
C 	C 	0.93936 0.94080 0.70482 0.13600
C 	C 	0.86657 0.99780 0.65084 -0.04400
H 	H 	0.85370 0.12270 0.64170 0.09900
C 	C 	0.81373 0.86120 0.61104 -0.06600
H 	H 	0.76430 0.89370 0.57410 0.08300
C 	C 	0.83396 0.67500 0.62595 0.14000
C 	C 	0.90604 0.61930 0.68039 -0.08000
H 	H 	0.91790 0.49440 0.68990 0.15200
C 	C 	0.69666 0.47020 0.57303 0.11200
H 	H 	0.66040 0.52340 0.58950 0.00300
C 	C 	0.74412 0.29340 0.52216 0.03100
H 	H 	0.74630 0.19930 0.49670 0.06600
C 	C 	0.81069 0.42010 0.55065 0.00300
H 	H 	0.86620 0.42950 0.54850 0.14700
C 	C 	0.41235 0.20850 0.54402 0.41900
C 	C 	0.35365 0.29440 0.57062 -0.24200
C 	C 	0.37494 0.46550 0.59918 0.22700
H 	H 	0.42560 0.53070 0.60130 -0.02200
C 	C 	0.32101 0.54000 0.62460 -0.35000
H 	H 	0.33640 0.65460 0.64410 0.18500
C 	C 	0.24477 0.44710 0.62149 0.41900
C 	C 	0.22225 0.27770 0.59131 -0.34400
H 	H 	0.17020 0.21480 0.58760 0.28200
C 	C 	0.27643 0.20210 0.56672 0.25200
H 	H 	0.26100 0.08760 0.54720 0.00100
C 	C 	0.18492 0.54080 0.64842 -0.54100
C 	C 	0.24501 0.63810 0.71016 0.40700
C 	C 	0.40935 0.86780 0.89024 0.42100
C 	C 	0.35366 0.78910 0.82677 -0.23400
C 	C 	0.28145 0.88880 0.78277 0.22500
H 	H 	0.26930 0.00770 0.79200 0.01100
C 	C 	0.22714 0.81420 0.72540 -0.33800
H 	H 	0.17830 0.88230 0.69680 0.26300
C 	C 	0.31805 0.53920 0.75419 -0.33900
H 	H 	0.33130 0.42150 0.74470 0.18800
C 	C 	0.37118 0.61310 0.81173 0.21900
H 	H 	0.41920 0.54410 0.84070 -0.01900
C 	C 	0.12059 0.67560 0.59885 0.98400
C 	C 	0.12503 0.39840 0.66210 0.99300
Co	Co	0.55854 0.83728 0.01532 1.15700
F 	F 	0.05517 0.66820 0.11154 -0.44700
F 	F 	0.08810 0.52690 0.19625 -0.49300
F 	F 	0.17357 0.74620 0.19346 -0.52300
F 	F 	0.05434 0.25490 0.11116 -0.45500
F 	F 	0.07849 0.40460 0.04361 -0.42500
F 	F 	0.16686 0.18019 0.09219 -0.50500
O 	O 	0.48120 0.70150 0.04829 -0.44000
O 	O 	0.47514 0.22860 0.42695 -0.45300
O 	O 	0.38523 0.97840 0.40224 -0.44200
O 	O 	0.38858 0.94770 0.01893 -0.45600
N 	N 	0.67266 0.67540 0.03660 -0.22700
N 	N 	0.78029 0.46760 0.08343 -0.12800
C 	C 	0.96007 0.24500 0.22037 0.05100
C 	C 	0.93936 0.05920 0.20482 0.13500
C 	C 	0.86657 0.00220 0.15084 -0.04500
H 	H 	0.85370 0.87730 0.14170 0.09900
C 	C 	0.81373 0.13880 0.11104 -0.06600
H 	H 	0.76430 0.10630 0.07410 0.08300
C 	C 	0.83396 0.32500 0.12595 0.13900
C 	C 	0.90604 0.38070 0.18039 -0.07900
H 	H 	0.91790 0.50560 0.18990 0.15100
C 	C 	0.69666 0.52980 0.07303 0.11200
H 	H 	0.66040 0.47660 0.08950 0.00300
C 	C 	0.74412 0.70660 0.02216 0.02800
H 	H 	0.74630 0.80070 0.99670 0.06900
C 	C 	0.81069 0.57990 0.05065 0.00500
H 	H 	0.86620 0.57050 0.04850 0.14600
C 	C 	0.41235 0.79150 0.04402 0.41900
C 	C 	0.35365 0.70560 0.07062 -0.24200
C 	C 	0.37494 0.53450 0.09918 0.22700
H 	H 	0.42560 0.46930 0.10130 -0.02200
C 	C 	0.32101 0.46000 0.12460 -0.35000
H 	H 	0.33640 0.34540 0.14410 0.18500
C 	C 	0.24477 0.55290 0.12149 0.41900
C 	C 	0.22225 0.72230 0.09131 -0.34400
H 	H 	0.17020 0.78520 0.08760 0.28200
C 	C 	0.27643 0.79790 0.06672 0.25200
H 	H 	0.26100 0.91240 0.04720 0.00100
C 	C 	0.18492 0.45920 0.14842 -0.54100
C 	C 	0.24501 0.36190 0.21016 0.40800
C 	C 	0.40935 0.13220 0.39024 0.42100
C 	C 	0.35366 0.21090 0.32677 -0.23500
C 	C 	0.28145 0.11120 0.28277 0.22500
H 	H 	0.26930 0.99230 0.29200 0.01100
C 	C 	0.22714 0.18580 0.22540 -0.33800
H 	H 	0.17830 0.11770 0.19680 0.26300
C 	C 	0.31805 0.46080 0.25419 -0.33900
H 	H 	0.33130 0.57850 0.24470 0.18800
C 	C 	0.37118 0.38690 0.31173 0.21900
H 	H 	0.41920 0.45590 0.34070 -0.01900
C 	C 	0.12059 0.32440 0.09885 0.98400
C 	C 	0.12503 0.60160 0.16210 0.99300
Co	Co	0.44146 0.83728 0.48468 1.15700
F 	F 	0.94483 0.66820 0.38846 -0.45400
F 	F 	0.91190 0.52690 0.30375 -0.49800
F 	F 	0.82643 0.74620 0.30654 -0.52400
F 	F 	0.94566 0.25490 0.38884 -0.46200
F 	F 	0.92151 0.40460 0.45639 -0.43100
F 	F 	0.83314 0.18019 0.40781 -0.50700
O 	O 	0.51880 0.70150 0.45171 -0.44000
O 	O 	0.52486 0.22860 0.07305 -0.45400
O 	O 	0.61477 0.97840 0.09776 -0.44200
O 	O 	0.61142 0.94770 0.48107 -0.45600
N 	N 	0.32734 0.67540 0.46340 -0.22700
N 	N 	0.21971 0.46760 0.41657 -0.12800
C 	C 	0.03993 0.24500 0.27963 0.08300
C 	C 	0.06064 0.05920 0.29518 0.13700
C 	C 	0.13343 0.00220 0.34916 -0.03900
H 	H 	0.14630 0.87730 0.35830 0.10000
C 	C 	0.18627 0.13880 0.38896 -0.07100
H 	H 	0.23570 0.10630 0.42590 0.08500
C 	C 	0.16604 0.32500 0.37405 0.14800
C 	C 	0.09396 0.38070 0.31961 -0.09400
H 	H 	0.08210 0.50560 0.31010 0.16200
C 	C 	0.30334 0.52980 0.42697 0.11300
H 	H 	0.33960 0.47660 0.41050 0.00300
C 	C 	0.25588 0.70660 0.47784 0.03200
H 	H 	0.25370 0.80070 0.50330 0.06700
C 	C 	0.18931 0.57990 0.44935 0.00400
H 	H 	0.13380 0.57050 0.45150 0.15100
C 	C 	0.58765 0.79150 0.45598 0.41900
C 	C 	0.64635 0.70560 0.42938 -0.24200
C 	C 	0.62506 0.53450 0.40082 0.22600
H 	H 	0.57440 0.46930 0.39870 -0.02200
C 	C 	0.67899 0.46000 0.37540 -0.35000
H 	H 	0.66360 0.34540 0.35590 0.18500
C 	C 	0.75523 0.55290 0.37851 0.41900
C 	C 	0.77775 0.72230 0.40869 -0.34400
H 	H 	0.82980 0.78520 0.41240 0.28100
C 	C 	0.72357 0.79790 0.43328 0.25100
H 	H 	0.73900 0.91240 0.45280 0.00100
C 	C 	0.81508 0.45920 0.35158 -0.54200
C 	C 	0.75499 0.36190 0.28984 0.40700
C 	C 	0.59065 0.13220 0.10976 0.42100
C 	C 	0.64634 0.21090 0.17323 -0.23400
C 	C 	0.71855 0.11120 0.21723 0.22400
H 	H 	0.73070 0.99230 0.20800 0.01100
C 	C 	0.77286 0.18580 0.27460 -0.33800
H 	H 	0.82170 0.11770 0.30320 0.26200
C 	C 	0.68195 0.46080 0.24581 -0.33900
H 	H 	0.66870 0.57850 0.25530 0.18800
C 	C 	0.62882 0.38690 0.18827 0.21900
H 	H 	0.58080 0.45590 0.15930 -0.01900
C 	C 	0.87941 0.32440 0.40115 0.98500
C 	C 	0.87497 0.60160 0.33790 0.99400
O 	O 	0.00000 0.05730 0.75000 -0.14000
O 	O 	-0.00000 0.94270 0.25000 -0.13900
