data_crystal

_cell_length_a 14.11290
_cell_length_b 14.79030
_cell_length_c 21.16020
_cell_angle_alpha 90.00000
_cell_angle_beta  107.64500
_cell_angle_gamma 90.00000

_symmetry_space_group_name_	'P 1'
_symmetry_space_group_name_H-M	'P 1'

loop_
_symmetry_equiv_pos_as_xyz
  x,y,z

loop_
_atom_site_label
_atom_site_type_symbol
_atom_site_fract_x
_atom_site_fract_y
_atom_site_fract_z
_atom_site_charge
Cd	Cd	0.92195 0.56246 0.31704 1.22800
Cd	Cd	0.28544 0.06477 0.55116 1.22000
O 	O 	0.17720 0.18010 0.53430 -0.37200
O 	O 	0.15450 0.32420 0.50270 -0.35600
O 	O 	0.41980 0.91020 0.29830 -0.38900
O 	O 	0.56460 0.94450 0.36920 -0.49100
O 	O 	0.75910 0.55730 0.31890 -0.36300
C 	C 	0.50350 0.88680 0.33730 0.35300
C 	C 	0.37000 0.81810 0.41580 -0.01700
H 	H 	0.42650 0.85210 0.43600 0.05300
C 	C 	0.46930 0.72230 0.35940 0.08400
C 	C 	0.19650 0.78620 0.39950 0.01900
H 	H 	0.13770 0.79840 0.40920 0.05600
C 	C 	0.28060 0.83830 0.42790 -0.06600
C 	C 	0.37550 0.74810 0.37410 -0.01000
C 	C 	0.53010 0.78790 0.34230 -0.13700
C 	C 	0.61990 0.76100 0.33270 0.03600
H 	H 	0.66190 0.80450 0.32390 0.02000
C 	C 	0.28930 0.69820 0.34440 -0.01600
H 	H 	0.29150 0.65160 0.31550 0.04500
C 	C 	0.20010 0.71690 0.35730 -0.08700
C 	C 	0.11130 0.65790 0.32590 0.33900
C 	C 	0.64730 0.67010 0.33600 -0.08600
C 	C 	0.27410 0.91730 0.47160 0.29800
C 	C 	0.49940 0.63150 0.36340 -0.11200
H 	H 	0.45960 0.58750 0.37380 0.07200
C 	C 	0.58590 0.60670 0.35220 0.02600
H 	H 	0.60410 0.54600 0.35550 0.04500
O 	O 	0.19190 0.94680 0.47490 -0.35900
O 	O 	0.12230 0.58900 0.29550 -0.44900
O 	O 	0.02960 0.68070 0.33500 -0.39200
O 	O 	0.35390 0.95780 0.50090 -0.39300
C 	C 	0.20080 0.25120 0.51060 0.22500
O 	O 	0.80630 0.70230 0.32310 -0.30200
C 	C 	0.74390 0.64230 0.32560 0.27900
Cd	Cd	0.42195 0.06246 0.31704 1.22900
Cd	Cd	0.78544 0.56477 0.55116 1.22100
O 	O 	0.67720 0.68010 0.53430 -0.37200
O 	O 	0.65450 0.82420 0.50270 -0.35600
O 	O 	0.91980 0.41020 0.29830 -0.38900
O 	O 	0.06460 0.44450 0.36920 -0.49100
O 	O 	0.25910 0.05730 0.31890 -0.36300
C 	C 	0.00350 0.38680 0.33730 0.35200
C 	C 	0.87000 0.31810 0.41580 -0.01700
H 	H 	0.92650 0.35210 0.43600 0.05300
C 	C 	0.96930 0.22230 0.35940 0.08400
C 	C 	0.69650 0.28620 0.39950 0.01900
H 	H 	0.63770 0.29840 0.40920 0.05600
C 	C 	0.78060 0.33830 0.42790 -0.06600
C 	C 	0.87550 0.24810 0.37410 -0.01000
C 	C 	0.03010 0.28790 0.34230 -0.13700
C 	C 	0.11990 0.26100 0.33270 0.03600
H 	H 	0.16190 0.30450 0.32390 0.02000
C 	C 	0.78930 0.19820 0.34440 -0.01600
H 	H 	0.79150 0.15160 0.31550 0.04600
C 	C 	0.70010 0.21690 0.35730 -0.08700
C 	C 	0.61130 0.15790 0.32590 0.33900
C 	C 	0.14730 0.17010 0.33600 -0.08600
C 	C 	0.77410 0.41730 0.47160 0.29800
C 	C 	0.99940 0.13150 0.36340 -0.11200
H 	H 	0.95960 0.08750 0.37380 0.07200
C 	C 	0.08590 0.10670 0.35220 0.02500
H 	H 	0.10410 0.04600 0.35550 0.04500
O 	O 	0.69190 0.44680 0.47490 -0.35900
O 	O 	0.62230 0.08900 0.29550 -0.44900
O 	O 	0.52960 0.18070 0.33500 -0.39200
O 	O 	0.85390 0.45780 0.50090 -0.39300
C 	C 	0.70080 0.75120 0.51060 0.22500
O 	O 	0.30630 0.20230 0.32310 -0.30200
C 	C 	0.24390 0.14230 0.32560 0.27900
Cd	Cd	0.07805 0.56246 0.18296 1.22900
Cd	Cd	0.71456 0.06477 0.94884 1.22000
O 	O 	0.82280 0.18010 0.96570 -0.37300
O 	O 	0.84550 0.32420 0.99730 -0.35700
O 	O 	0.58020 0.91020 0.20170 -0.39000
O 	O 	0.43540 0.94450 0.13080 -0.49100
O 	O 	0.24090 0.55730 0.18110 -0.36300
C 	C 	0.49650 0.88680 0.16270 0.35300
C 	C 	0.63000 0.81810 0.08420 -0.01700
H 	H 	0.57350 0.85210 0.06400 0.05200
C 	C 	0.53070 0.72230 0.14060 0.08400
C 	C 	0.80350 0.78620 0.10050 0.01900
H 	H 	0.86230 0.79840 0.09080 0.05600
C 	C 	0.71940 0.83830 0.07210 -0.06600
C 	C 	0.62450 0.74810 0.12590 -0.01000
C 	C 	0.46990 0.78790 0.15770 -0.13700
C 	C 	0.38010 0.76100 0.16730 0.03600
H 	H 	0.33810 0.80450 0.17610 0.02000
C 	C 	0.71070 0.69820 0.15560 -0.01600
H 	H 	0.70850 0.65160 0.18450 0.04500
C 	C 	0.79990 0.71690 0.14270 -0.08700
C 	C 	0.88870 0.65790 0.17410 0.33900
C 	C 	0.35270 0.67010 0.16400 -0.08600
C 	C 	0.72590 0.91730 0.02840 0.29700
C 	C 	0.50060 0.63150 0.13660 -0.11200
H 	H 	0.54040 0.58750 0.12620 0.07200
C 	C 	0.41410 0.60670 0.14780 0.02600
H 	H 	0.39590 0.54600 0.14450 0.04400
O 	O 	0.80810 0.94680 0.02510 -0.35900
O 	O 	0.87770 0.58900 0.20450 -0.44900
O 	O 	0.97040 0.68070 0.16500 -0.39200
O 	O 	0.64610 0.95780 0.99910 -0.39300
C 	C 	0.79920 0.25120 0.98940 0.22400
O 	O 	0.19370 0.70230 0.17690 -0.30200
C 	C 	0.25610 0.64230 0.17440 0.27900
Cd	Cd	0.57805 0.06246 0.18296 1.22900
Cd	Cd	0.21456 0.56477 0.94884 1.22100
O 	O 	0.32280 0.68010 0.96570 -0.37300
O 	O 	0.34550 0.82420 0.99730 -0.35600
O 	O 	0.08020 0.41020 0.20170 -0.39000
O 	O 	0.93540 0.44450 0.13080 -0.49100
O 	O 	0.74090 0.05730 0.18110 -0.36200
C 	C 	0.99650 0.38680 0.16270 0.35300
C 	C 	0.13000 0.31810 0.08420 -0.01700
H 	H 	0.07350 0.35210 0.06400 0.05200
C 	C 	0.03070 0.22230 0.14060 0.08400
C 	C 	0.30350 0.28620 0.10050 0.01900
H 	H 	0.36230 0.29840 0.09080 0.05600
C 	C 	0.21940 0.33830 0.07210 -0.06600
C 	C 	0.12450 0.24810 0.12590 -0.01000
C 	C 	0.96990 0.28790 0.15770 -0.13700
C 	C 	0.88010 0.26100 0.16730 0.03600
H 	H 	0.83810 0.30450 0.17610 0.02000
C 	C 	0.21070 0.19820 0.15560 -0.01600
H 	H 	0.20850 0.15160 0.18450 0.04500
C 	C 	0.29990 0.21690 0.14270 -0.08700
C 	C 	0.38870 0.15790 0.17410 0.33900
C 	C 	0.85270 0.17010 0.16400 -0.08600
C 	C 	0.22590 0.41730 0.02840 0.29700
C 	C 	0.00060 0.13150 0.13660 -0.11300
H 	H 	0.04040 0.08750 0.12620 0.07300
C 	C 	0.91410 0.10670 0.14780 0.02700
H 	H 	0.89590 0.04600 0.14450 0.04500
O 	O 	0.30810 0.44680 0.02510 -0.35900
O 	O 	0.37770 0.08900 0.20450 -0.44900
O 	O 	0.47040 0.18070 0.16500 -0.39200
O 	O 	0.14610 0.45780 0.99910 -0.39300
C 	C 	0.29920 0.75120 0.98940 0.22500
O 	O 	0.69370 0.20230 0.17690 -0.30200
C 	C 	0.75610 0.14230 0.17440 0.27900
Cd	Cd	0.07805 0.43754 0.68296 1.22900
Cd	Cd	0.71456 0.93523 0.44884 1.22100
O 	O 	0.82280 0.81990 0.46570 -0.37200
O 	O 	0.84550 0.67580 0.49730 -0.35600
O 	O 	0.58020 0.08980 0.70170 -0.38900
O 	O 	0.43540 0.05550 0.63080 -0.49100
O 	O 	0.24090 0.44270 0.68110 -0.36300
C 	C 	0.49650 0.11320 0.66270 0.35300
C 	C 	0.63000 0.18190 0.58420 -0.01700
H 	H 	0.57350 0.14790 0.56400 0.05300
C 	C 	0.53070 0.27770 0.64060 0.08400
C 	C 	0.80350 0.21380 0.60050 0.01900
H 	H 	0.86230 0.20160 0.59080 0.05600
C 	C 	0.71940 0.16170 0.57210 -0.06600
C 	C 	0.62450 0.25190 0.62590 -0.01000
C 	C 	0.46990 0.21210 0.65770 -0.13700
C 	C 	0.38010 0.23900 0.66730 0.03600
H 	H 	0.33810 0.19550 0.67610 0.02000
C 	C 	0.71070 0.30180 0.65560 -0.01600
H 	H 	0.70850 0.34840 0.68450 0.04500
C 	C 	0.79990 0.28310 0.64270 -0.08700
C 	C 	0.88870 0.34210 0.67410 0.33900
C 	C 	0.35270 0.32990 0.66400 -0.08600
C 	C 	0.72590 0.08270 0.52840 0.29800
C 	C 	0.50060 0.36850 0.63660 -0.11200
H 	H 	0.54040 0.41250 0.62620 0.07200
C 	C 	0.41410 0.39330 0.64780 0.02600
H 	H 	0.39590 0.45400 0.64450 0.04500
O 	O 	0.80810 0.05320 0.52510 -0.35900
O 	O 	0.87770 0.41100 0.70450 -0.44900
O 	O 	0.97040 0.31930 0.66500 -0.39200
O 	O 	0.64610 0.04220 0.49910 -0.39300
C 	C 	0.79920 0.74880 0.48940 0.22500
O 	O 	0.19370 0.29770 0.67690 -0.30200
C 	C 	0.25610 0.35770 0.67440 0.27900
Cd	Cd	0.57805 0.93754 0.68296 1.22900
Cd	Cd	0.21456 0.43523 0.44884 1.22100
O 	O 	0.32280 0.31990 0.46570 -0.37200
O 	O 	0.34550 0.17580 0.49730 -0.35600
O 	O 	0.08020 0.58980 0.70170 -0.38900
O 	O 	0.93540 0.55550 0.63080 -0.49100
O 	O 	0.74090 0.94270 0.68110 -0.36300
C 	C 	0.99650 0.61320 0.66270 0.35200
C 	C 	0.13000 0.68190 0.58420 -0.01700
H 	H 	0.07350 0.64790 0.56400 0.05300
C 	C 	0.03070 0.77770 0.64060 0.08400
C 	C 	0.30350 0.71380 0.60050 0.01900
H 	H 	0.36230 0.70160 0.59080 0.05600
C 	C 	0.21940 0.66170 0.57210 -0.06600
C 	C 	0.12450 0.75190 0.62590 -0.01000
C 	C 	0.96990 0.71210 0.65770 -0.13700
C 	C 	0.88010 0.73900 0.66730 0.03600
H 	H 	0.83810 0.69550 0.67610 0.02000
C 	C 	0.21070 0.80180 0.65560 -0.01600
H 	H 	0.20850 0.84840 0.68450 0.04600
C 	C 	0.29990 0.78310 0.64270 -0.08700
C 	C 	0.38870 0.84210 0.67410 0.33900
C 	C 	0.85270 0.82990 0.66400 -0.08600
C 	C 	0.22590 0.58270 0.52840 0.29800
C 	C 	0.00060 0.86850 0.63660 -0.11200
H 	H 	0.04040 0.91250 0.62620 0.07200
C 	C 	0.91410 0.89330 0.64780 0.02500
H 	H 	0.89590 0.95400 0.64450 0.04500
O 	O 	0.30810 0.55320 0.52510 -0.35900
O 	O 	0.37770 0.91100 0.70450 -0.44900
O 	O 	0.47040 0.81930 0.66500 -0.39200
O 	O 	0.14610 0.54220 0.49910 -0.39300
C 	C 	0.29920 0.24880 0.48940 0.22500
O 	O 	0.69370 0.79770 0.67690 -0.30200
C 	C 	0.75610 0.85770 0.67440 0.27900
Cd	Cd	0.92195 0.43754 0.81704 1.22900
Cd	Cd	0.28544 0.93523 0.05116 1.22000
O 	O 	0.17720 0.81990 0.03430 -0.37300
O 	O 	0.15450 0.67580 0.00270 -0.35700
O 	O 	0.41980 0.08980 0.79830 -0.39000
O 	O 	0.56460 0.05550 0.86920 -0.49100
O 	O 	0.75910 0.44270 0.81890 -0.36300
C 	C 	0.50350 0.11320 0.83730 0.35300
C 	C 	0.37000 0.18190 0.91580 -0.01700
H 	H 	0.42650 0.14790 0.93600 0.05200
C 	C 	0.46930 0.27770 0.85940 0.08400
C 	C 	0.19650 0.21380 0.89950 0.01900
H 	H 	0.13770 0.20160 0.90920 0.05600
C 	C 	0.28060 0.16170 0.92790 -0.06600
C 	C 	0.37550 0.25190 0.87410 -0.01000
C 	C 	0.53010 0.21210 0.84230 -0.13700
C 	C 	0.61990 0.23900 0.83270 0.03600
H 	H 	0.66190 0.19550 0.82390 0.02000
C 	C 	0.28930 0.30180 0.84440 -0.01600
H 	H 	0.29150 0.34840 0.81550 0.04500
C 	C 	0.20010 0.28310 0.85730 -0.08700
C 	C 	0.11130 0.34210 0.82590 0.33900
C 	C 	0.64730 0.32990 0.83600 -0.08600
C 	C 	0.27410 0.08270 0.97160 0.29700
C 	C 	0.49940 0.36850 0.86340 -0.11200
H 	H 	0.45960 0.41250 0.87380 0.07200
C 	C 	0.58590 0.39330 0.85220 0.02600
H 	H 	0.60410 0.45400 0.85550 0.04400
O 	O 	0.19190 0.05320 0.97490 -0.35900
O 	O 	0.12230 0.41100 0.79550 -0.44900
O 	O 	0.02960 0.31930 0.83500 -0.39200
O 	O 	0.35390 0.04220 0.00090 -0.39300
C 	C 	0.20080 0.74880 0.01060 0.22400
O 	O 	0.80630 0.29770 0.82310 -0.30200
C 	C 	0.74390 0.35770 0.82560 0.27900
Cd	Cd	0.42195 0.93754 0.81704 1.22900
Cd	Cd	0.78544 0.43523 0.05116 1.22100
O 	O 	0.67720 0.31990 0.03430 -0.37300
O 	O 	0.65450 0.17580 0.00270 -0.35600
O 	O 	0.91980 0.58980 0.79830 -0.39000
O 	O 	0.06460 0.55550 0.86920 -0.49100
O 	O 	0.25910 0.94270 0.81890 -0.36200
C 	C 	0.00350 0.61320 0.83730 0.35300
C 	C 	0.87000 0.68190 0.91580 -0.01700
H 	H 	0.92650 0.64790 0.93600 0.05200
C 	C 	0.96930 0.77770 0.85940 0.08400
C 	C 	0.69650 0.71380 0.89950 0.01900
H 	H 	0.63770 0.70160 0.90920 0.05600
C 	C 	0.78060 0.66170 0.92790 -0.06600
C 	C 	0.87550 0.75190 0.87410 -0.01000
C 	C 	0.03010 0.71210 0.84230 -0.13700
C 	C 	0.11990 0.73900 0.83270 0.03600
H 	H 	0.16190 0.69550 0.82390 0.02000
C 	C 	0.78930 0.80180 0.84440 -0.01600
H 	H 	0.79150 0.84840 0.81550 0.04500
C 	C 	0.70010 0.78310 0.85730 -0.08700
C 	C 	0.61130 0.84210 0.82590 0.33900
C 	C 	0.14730 0.82990 0.83600 -0.08600
C 	C 	0.77410 0.58270 0.97160 0.29700
C 	C 	0.99940 0.86850 0.86340 -0.11300
H 	H 	0.95960 0.91250 0.87380 0.07300
C 	C 	0.08590 0.89330 0.85220 0.02700
H 	H 	0.10410 0.95400 0.85550 0.04500
O 	O 	0.69190 0.55320 0.97490 -0.35900
O 	O 	0.62230 0.91100 0.79550 -0.44900
O 	O 	0.52960 0.81930 0.83500 -0.39200
O 	O 	0.85390 0.54220 0.00090 -0.39300
C 	C 	0.70080 0.24880 0.01060 0.22500
O 	O 	0.30630 0.79770 0.82310 -0.30200
C 	C 	0.24390 0.85770 0.82560 0.27900
