data_crystal

_cell_length_a 14.15220
_cell_length_b 21.22730
_cell_length_c 22.70750
_cell_angle_alpha 90.00000
_cell_angle_beta  121.72300
_cell_angle_gamma 90.00000

_symmetry_space_group_name_	'P 1'
_symmetry_space_group_name_H-M	'P 1'

loop_
_symmetry_equiv_pos_as_xyz
  x,y,z

loop_
_atom_site_label
_atom_site_type_symbol
_atom_site_fract_x
_atom_site_fract_y
_atom_site_fract_z
_atom_site_charge
C 	C 	0.34810 0.73090 0.66340 0.07400
C 	C 	0.25950 0.68940 0.64080 -0.15200
H 	H 	0.22630 0.68420 0.66660 0.09900
C 	C 	0.22050 0.65580 0.57980 0.02900
H 	H 	0.16120 0.62810 0.56470 0.03900
C 	C 	0.27010 0.66360 0.54120 -0.12000
H 	H 	0.24400 0.64110 0.50040 0.07700
C 	C 	0.35870 0.70500 0.56380 0.02500
H 	H 	0.39190 0.71020 0.53800 0.02000
C 	C 	0.39770 0.73860 0.62480 -0.14700
H 	H 	0.45690 0.76640 0.63990 0.06800
Cd	Cd	0.10008 0.09126 0.59803 1.22300
Cd	Cd	0.79212 0.97766 0.48943 1.22400
F 	F 	0.93400 0.11250 0.85420 -0.83000
F 	F 	0.11200 0.11980 0.88370 -0.78000
F 	F 	0.57250 0.88480 0.88050 -0.81600
F 	F 	0.45010 0.84750 0.89740 -0.76800
O 	O 	0.06220 0.40877 0.97000 -0.50900
O 	O 	0.06850 0.32440 0.03000 -0.46300
O 	O 	0.92060 0.06436 0.56257 -0.53200
O 	O 	0.82070 0.01290 0.59560 -0.43300
O 	O 	0.15720 0.98364 0.58611 -0.52500
O 	O 	0.16930 0.01558 0.68240 -0.45400
O 	O 	0.71450 0.59225 0.89040 -0.50000
O 	O 	0.68730 0.61800 0.97460 -0.41500
N 	N 	0.17880 0.16080 0.69050 -0.25200
N 	N 	0.62150 0.47140 0.93560 -0.25900
N 	N 	0.00690 0.21680 0.85950 -0.48200
N 	N 	0.96820 0.14170 0.76510 -0.47000
N 	N 	0.39600 0.86550 0.77820 -0.50200
N 	N 	0.52280 0.77760 0.84600 -0.50600
C 	C 	0.57650 0.45290 0.97090 0.13200
H 	H 	0.61900 0.45560 0.01890 -0.02000
C 	C 	0.46740 0.42910 0.93970 -0.27000
H 	H 	0.43860 0.41860 0.96700 0.13300
C 	C 	0.40440 0.42140 0.87010 0.25200
C 	C 	0.45180 0.43820 0.83320 -0.28000
H 	H 	0.41350 0.43180 0.78560 0.12500
C 	C 	0.55720 0.46470 0.86700 0.14500
H 	H 	0.58480 0.47880 0.84010 -0.03500
C 	C 	0.28740 0.39120 0.83540 -0.40600
H 	H 	0.23590 0.42150 0.83500 0.14000
H 	H 	0.26230 0.38090 0.78770 0.14300
C 	C 	0.28590 0.33350 0.87130 0.20500
H 	H 	0.21000 0.31850 0.84950 -0.04300
H 	H 	0.31130 0.34390 0.91900 -0.03600
C 	C 	0.35780 0.28120 0.87040 -0.39300
H 	H 	0.38420 0.25530 0.91140 0.13400
H 	H 	0.42210 0.29960 0.87240 0.14200
C 	C 	0.29700 0.23980 0.80670 0.22700
C 	C 	0.28180 0.25630 0.74280 -0.25400
H 	H 	0.31210 0.29340 0.73810 0.10900
C 	C 	0.22040 0.21660 0.68600 0.11200
H 	H 	0.20770 0.22910 0.64310 -0.02300
C 	C 	0.19730 0.14470 0.75270 0.12900
H 	H 	0.17180 0.10570 0.75720 -0.02400
C 	C 	0.25220 0.18290 0.81070 -0.26400
H 	H 	0.25900 0.17050 0.85200 0.13900
C 	C 	0.88590 0.05670 0.60370 0.42700
C 	C 	0.91900 0.10280 0.66060 -0.40400
C 	C 	0.94930 0.08770 0.72830 0.47700
C 	C 	0.96580 0.02390 0.75930 -0.98200
H 	H 	0.93840 0.02330 0.79010 0.35200
H 	H 	0.04350 0.01380 0.78470 0.32000
H 	H 	0.92620 0.99350 0.72320 0.31300
C 	C 	0.91700 0.16860 0.65500 0.29600
C 	C 	0.94820 0.19240 0.72080 -0.00900
C 	C 	0.88450 0.20520 0.59060 -0.83900
H 	H 	0.94980 0.22260 0.59400 0.26900
H 	H 	0.83510 0.23870 0.58540 0.28100
H 	H 	0.84790 0.17770 0.55120 0.26800
C 	C 	0.95770 0.25530 0.74520 -0.06200
C 	C 	0.93320 0.30740 0.69850 0.09100
C 	C 	0.83250 0.33780 0.66980 -0.16200
H 	H 	0.78040 0.32460 0.68030 0.09200
C 	C 	0.80800 0.38970 0.62380 0.04900
H 	H 	0.73930 0.40970 0.60260 0.02400
C 	C 	0.88620 0.40850 0.61210 -0.15200
H 	H 	0.87110 0.44350 0.58390 0.09200
C 	C 	0.99330 0.37840 0.64010 0.05200
H 	H 	0.04610 0.39240 0.63040 0.00300
C 	C 	0.01070 0.32710 0.68240 -0.18300
H 	H 	0.07700 0.30490 0.70090 0.08600
C 	C 	0.98740 0.26660 0.81420 -0.00700
C 	C 	0.00500 0.32330 0.85050 0.29600
C 	C 	0.99890 0.38840 0.82430 -0.81400
H 	H 	0.03290 0.38940 0.79720 0.25800
H 	H 	0.03740 0.41680 0.86270 0.27400
H 	H 	0.92260 0.40100 0.79610 0.27700
C 	C 	0.03210 0.30670 0.91770 -0.39400
C 	C 	0.03120 0.24010 0.92130 0.48200
C 	C 	0.05790 0.20030 0.98170 -1.08400
H 	H 	0.06120 0.15690 0.97090 0.38000
H 	H 	0.00140 0.20540 0.99260 0.35100
H 	H 	0.12850 0.21270 0.02070 0.35800
C 	C 	0.05590 0.34970 0.97560 0.43400
C 	C 	0.19350 0.97640 0.65000 0.46000
C 	C 	0.26540 0.92270 0.68860 -0.41200
C 	C 	0.34030 0.92160 0.76130 0.48400
C 	C 	0.36060 0.97340 0.81140 -1.04800
H 	H 	0.30280 0.97320 0.82150 0.35400
H 	H 	0.36110 0.01320 0.79140 0.34100
H 	H 	0.43110 0.96690 0.85330 0.38100
C 	C 	0.27820 0.86580 0.66190 0.34100
C 	C 	0.22010 0.84680 0.58790 -0.89700
H 	H 	0.27370 0.83970 0.57490 0.28500
H 	H 	0.17010 0.87970 0.55970 0.30000
H 	H 	0.17890 0.80880 0.58140 0.29600
C 	C 	0.35760 0.83040 0.71770 -0.04000
C 	C 	0.48540 0.74390 0.78510 -0.03300
C 	C 	0.59760 0.74140 0.90070 0.49500
C 	C 	0.65690 0.76120 0.97490 -1.08100
H 	H 	0.69270 0.80100 0.98010 0.38000
H 	H 	0.71170 0.73010 0.00300 0.35900
H 	H 	0.60450 0.76520 0.98940 0.36900
C 	C 	0.60720 0.68350 0.87470 -0.39700
C 	C 	0.67420 0.62840 0.91610 0.43300
C 	C 	0.53770 0.68570 0.80190 0.33100
C 	C 	0.52150 0.63440 0.75220 -0.88800
H 	H 	0.44460 0.63250 0.71590 0.30100
H 	H 	0.54350 0.59480 0.77620 0.30300
H 	H 	0.56600 0.64300 0.73260 0.29400
C 	C 	0.39910 0.76820 0.71740 -0.05400
B 	B 	0.00330 0.14690 0.84110 1.80500
B 	B 	0.48520 0.84280 0.84810 1.85800
C 	C 	0.65190 0.23090 0.83660 0.07200
C 	C 	0.74050 0.18940 0.85920 -0.15200
H 	H 	0.77370 0.18420 0.83340 0.09800
C 	C 	0.77950 0.15580 0.92020 0.02700
H 	H 	0.83880 0.12810 0.93530 0.04000
C 	C 	0.72990 0.16360 0.95880 -0.12100
H 	H 	0.75600 0.14110 0.99960 0.07500
C 	C 	0.64130 0.20500 0.93620 0.02300
H 	H 	0.60810 0.21020 0.96200 0.01900
C 	C 	0.60230 0.23860 0.87520 -0.14800
H 	H 	0.54310 0.26640 0.86010 0.06700
Cd	Cd	0.89992 0.59126 0.90197 1.22400
Cd	Cd	0.20788 0.47766 0.01057 1.22500
F 	F 	0.06600 0.61250 0.64580 -0.83800
F 	F 	0.88800 0.61980 0.61630 -0.78200
F 	F 	0.42750 0.38480 0.61950 -0.81700
F 	F 	0.54990 0.34750 0.60260 -0.76900
O 	O 	0.93780 0.90877 0.53000 -0.51000
O 	O 	0.93150 0.82440 0.47000 -0.46300
O 	O 	0.07940 0.56436 0.93743 -0.53700
O 	O 	0.17930 0.51290 0.90440 -0.44100
O 	O 	0.84280 0.48364 0.91389 -0.52600
O 	O 	0.83070 0.51558 0.81760 -0.44600
O 	O 	0.28550 0.09225 0.60960 -0.50200
O 	O 	0.31270 0.11800 0.52540 -0.41600
N 	N 	0.82120 0.66080 0.80950 -0.25200
N 	N 	0.37850 0.97140 0.56440 -0.25800
N 	N 	0.99310 0.71680 0.64050 -0.48500
N 	N 	0.03180 0.64170 0.73490 -0.48000
N 	N 	0.60400 0.36550 0.72180 -0.50300
N 	N 	0.47720 0.27760 0.65400 -0.50600
C 	C 	0.42350 0.95290 0.52910 0.13300
H 	H 	0.38100 0.95560 0.48110 -0.02000
C 	C 	0.53260 0.92910 0.56030 -0.27100
H 	H 	0.56140 0.91860 0.53300 0.13300
C 	C 	0.59560 0.92140 0.62990 0.25100
C 	C 	0.54820 0.93820 0.66680 -0.28100
H 	H 	0.58650 0.93180 0.71440 0.12500
C 	C 	0.44280 0.96470 0.63300 0.14500
H 	H 	0.41520 0.97880 0.65990 -0.03400
C 	C 	0.71260 0.89120 0.66460 -0.40700
H 	H 	0.76410 0.92150 0.66500 0.14100
H 	H 	0.73770 0.88090 0.71230 0.14300
C 	C 	0.71410 0.83350 0.62870 0.20600
H 	H 	0.79000 0.81850 0.65050 -0.04200
H 	H 	0.68870 0.84390 0.58100 -0.03600
C 	C 	0.64220 0.78120 0.62960 -0.39300
H 	H 	0.61580 0.75530 0.58860 0.13400
H 	H 	0.57790 0.79960 0.62760 0.14200
C 	C 	0.70300 0.73980 0.69330 0.22700
C 	C 	0.71820 0.75630 0.75720 -0.25500
H 	H 	0.68790 0.79340 0.76190 0.10900
C 	C 	0.77960 0.71660 0.81400 0.11200
H 	H 	0.79230 0.72910 0.85690 -0.02300
C 	C 	0.80270 0.64470 0.74730 0.13000
H 	H 	0.82820 0.60570 0.74280 -0.02400
C 	C 	0.74780 0.68290 0.68930 -0.26400
H 	H 	0.74100 0.67050 0.64800 0.13900
C 	C 	0.11410 0.55670 0.89630 0.43200
C 	C 	0.08100 0.60280 0.83940 -0.42000
C 	C 	0.05070 0.58770 0.77170 0.50600
C 	C 	0.03420 0.52390 0.74070 -1.09100
H 	H 	0.06160 0.52330 0.70990 0.38100
H 	H 	0.95650 0.51380 0.71530 0.36000
H 	H 	0.07380 0.49350 0.77680 0.35100
C 	C 	0.08300 0.66860 0.84500 0.29900
C 	C 	0.05180 0.69240 0.77920 -0.00500
C 	C 	0.11550 0.70520 0.90940 -0.84500
H 	H 	0.05020 0.72260 0.90600 0.27100
H 	H 	0.16490 0.73870 0.91460 0.28300
H 	H 	0.15210 0.67770 0.94880 0.27000
C 	C 	0.04230 0.75530 0.75480 -0.08000
C 	C 	0.06680 0.80740 0.80150 0.12300
C 	C 	0.16750 0.83780 0.83020 -0.18900
H 	H 	0.21960 0.82460 0.81970 0.10200
C 	C 	0.19200 0.88970 0.87620 0.08300
H 	H 	0.26070 0.90970 0.89740 0.01400
C 	C 	0.11380 0.90850 0.88790 -0.18600
H 	H 	0.12890 0.94350 0.91610 0.10800
C 	C 	0.00670 0.87840 0.85990 0.10300
H 	H 	0.95390 0.89240 0.86960 -0.01800
C 	C 	0.98930 0.82710 0.81760 -0.22600
H 	H 	0.92300 0.80490 0.79910 0.10100
C 	C 	0.01260 0.76660 0.68580 0.01300
C 	C 	0.99500 0.82330 0.64950 0.25700
C 	C 	0.00110 0.88840 0.67570 -0.71300
H 	H 	0.96710 0.88940 0.70280 0.22600
H 	H 	0.96260 0.91680 0.63730 0.24000
H 	H 	0.07740 0.90100 0.70390 0.25000
C 	C 	0.96790 0.80670 0.58230 -0.37900
C 	C 	0.96880 0.74010 0.57870 0.47600
C 	C 	0.94210 0.70030 0.51830 -1.07400
H 	H 	0.93880 0.65690 0.52910 0.37800
H 	H 	0.99860 0.70540 0.50740 0.34900
H 	H 	0.87150 0.71270 0.47930 0.35400
C 	C 	0.94410 0.84970 0.52440 0.42900
C 	C 	0.80650 0.47640 0.85000 0.45000
C 	C 	0.73460 0.42270 0.81140 -0.41200
C 	C 	0.65970 0.42160 0.73870 0.48600
C 	C 	0.63940 0.47340 0.68860 -1.06700
H 	H 	0.69720 0.47320 0.67850 0.35600
H 	H 	0.63890 0.51320 0.70860 0.34900
H 	H 	0.56890 0.46690 0.64670 0.38500
C 	C 	0.72180 0.36580 0.83810 0.34000
C 	C 	0.77990 0.34680 0.91210 -0.89400
H 	H 	0.72630 0.33970 0.92510 0.28400
H 	H 	0.82990 0.37970 0.94030 0.29900
H 	H 	0.82110 0.30880 0.91860 0.29500
C 	C 	0.64240 0.33040 0.78230 -0.03900
C 	C 	0.51460 0.24390 0.71490 -0.03300
C 	C 	0.40240 0.24140 0.59930 0.49700
C 	C 	0.34310 0.26120 0.52510 -1.08600
H 	H 	0.30730 0.30100 0.51990 0.38100
H 	H 	0.28830 0.23010 0.49700 0.36100
H 	H 	0.39550 0.26520 0.51060 0.37000
C 	C 	0.39280 0.18350 0.62530 -0.39800
C 	C 	0.32580 0.12840 0.58390 0.43400
C 	C 	0.46230 0.18570 0.69810 0.33200
C 	C 	0.47850 0.13440 0.74780 -0.88800
H 	H 	0.55540 0.13250 0.78410 0.30100
H 	H 	0.45650 0.09480 0.72380 0.30300
H 	H 	0.43400 0.14300 0.76740 0.29400
C 	C 	0.60090 0.26820 0.78260 -0.05400
B 	B 	0.99670 0.64690 0.65890 1.82000
B 	B 	0.51480 0.34280 0.65190 1.85900
C 	C 	0.65190 0.26910 0.33660 0.07300
C 	C 	0.74050 0.31060 0.35920 -0.15300
H 	H 	0.77370 0.31580 0.33340 0.09800
C 	C 	0.77950 0.34420 0.42020 0.02800
H 	H 	0.83880 0.37190 0.43530 0.03800
C 	C 	0.72990 0.33640 0.45880 -0.12100
H 	H 	0.75600 0.35890 0.49960 0.07600
C 	C 	0.64130 0.29500 0.43620 0.02400
H 	H 	0.60810 0.28980 0.46200 0.01900
C 	C 	0.60230 0.26140 0.37520 -0.14800
H 	H 	0.54310 0.23360 0.36010 0.06700
Cd	Cd	0.89992 0.90874 0.40197 1.22200
Cd	Cd	0.20788 0.02234 0.51057 1.22300
F 	F 	0.06600 0.88750 0.14580 -0.83100
F 	F 	0.88800 0.88020 0.11630 -0.78100
F 	F 	0.42750 0.11520 0.11950 -0.81700
F 	F 	0.54990 0.15250 0.10260 -0.76800
O 	O 	0.93780 0.59123 0.03000 -0.50900
O 	O 	0.93150 0.67560 0.97000 -0.46300
O 	O 	0.07940 0.93564 0.43743 -0.53200
O 	O 	0.17930 0.98710 0.40440 -0.43300
O 	O 	0.84280 0.01636 0.41389 -0.52500
O 	O 	0.83070 0.98442 0.31760 -0.45400
O 	O 	0.28550 0.40775 0.10960 -0.50000
O 	O 	0.31270 0.38200 0.02540 -0.41500
N 	N 	0.82120 0.83920 0.30950 -0.25200
N 	N 	0.37850 0.52860 0.06440 -0.25900
N 	N 	0.99310 0.78320 0.14050 -0.48200
N 	N 	0.03180 0.85830 0.23490 -0.47000
N 	N 	0.60400 0.13450 0.22180 -0.50200
N 	N 	0.47720 0.22240 0.15400 -0.50600
C 	C 	0.42350 0.54710 0.02910 0.13200
H 	H 	0.38100 0.54440 0.98110 -0.02000
C 	C 	0.53260 0.57090 0.06030 -0.27000
H 	H 	0.56140 0.58140 0.03300 0.13300
C 	C 	0.59560 0.57860 0.12990 0.25200
C 	C 	0.54820 0.56180 0.16680 -0.28000
H 	H 	0.58650 0.56820 0.21440 0.12500
C 	C 	0.44280 0.53530 0.13300 0.14500
H 	H 	0.41520 0.52120 0.15990 -0.03500
C 	C 	0.71260 0.60880 0.16460 -0.40600
H 	H 	0.76410 0.57850 0.16500 0.14000
H 	H 	0.73770 0.61910 0.21230 0.14300
C 	C 	0.71410 0.66650 0.12870 0.20500
H 	H 	0.79000 0.68150 0.15050 -0.04300
H 	H 	0.68870 0.65610 0.08100 -0.03600
C 	C 	0.64220 0.71880 0.12960 -0.39300
H 	H 	0.61580 0.74470 0.08860 0.13400
H 	H 	0.57790 0.70040 0.12760 0.14200
C 	C 	0.70300 0.76020 0.19330 0.22700
C 	C 	0.71820 0.74370 0.25720 -0.25400
H 	H 	0.68790 0.70660 0.26190 0.10900
C 	C 	0.77960 0.78340 0.31400 0.11200
H 	H 	0.79230 0.77090 0.35690 -0.02300
C 	C 	0.80270 0.85530 0.24730 0.12900
H 	H 	0.82820 0.89430 0.24280 -0.02400
C 	C 	0.74780 0.81710 0.18930 -0.26400
H 	H 	0.74100 0.82950 0.14800 0.13900
C 	C 	0.11410 0.94330 0.39630 0.42700
C 	C 	0.08100 0.89720 0.33940 -0.40400
C 	C 	0.05070 0.91230 0.27170 0.47700
C 	C 	0.03420 0.97610 0.24070 -0.98200
H 	H 	0.06160 0.97670 0.20990 0.35200
H 	H 	0.95650 0.98620 0.21530 0.32000
H 	H 	0.07380 0.00650 0.27680 0.31300
C 	C 	0.08300 0.83140 0.34500 0.29600
C 	C 	0.05180 0.80760 0.27920 -0.00900
C 	C 	0.11550 0.79480 0.40940 -0.83900
H 	H 	0.05020 0.77740 0.40600 0.26900
H 	H 	0.16490 0.76130 0.41460 0.28100
H 	H 	0.15210 0.82230 0.44880 0.26800
C 	C 	0.04230 0.74470 0.25480 -0.06200
C 	C 	0.06680 0.69260 0.30150 0.09100
C 	C 	0.16750 0.66220 0.33020 -0.16200
H 	H 	0.21960 0.67540 0.31970 0.09200
C 	C 	0.19200 0.61030 0.37620 0.04900
H 	H 	0.26070 0.59030 0.39740 0.02400
C 	C 	0.11380 0.59150 0.38790 -0.15200
H 	H 	0.12890 0.55650 0.41610 0.09200
C 	C 	0.00670 0.62160 0.35990 0.05200
H 	H 	0.95390 0.60760 0.36960 0.00300
C 	C 	0.98930 0.67290 0.31760 -0.18300
H 	H 	0.92300 0.69510 0.29910 0.08600
C 	C 	0.01260 0.73340 0.18580 -0.00700
C 	C 	0.99500 0.67670 0.14950 0.29600
C 	C 	0.00110 0.61160 0.17570 -0.81400
H 	H 	0.96710 0.61060 0.20280 0.25800
H 	H 	0.96260 0.58320 0.13730 0.27400
H 	H 	0.07740 0.59900 0.20390 0.27700
C 	C 	0.96790 0.69330 0.08230 -0.39400
C 	C 	0.96880 0.75990 0.07870 0.48200
C 	C 	0.94210 0.79970 0.01830 -1.08400
H 	H 	0.93880 0.84310 0.02910 0.38000
H 	H 	0.99860 0.79460 0.00740 0.35100
H 	H 	0.87150 0.78730 0.97930 0.35800
C 	C 	0.94410 0.65030 0.02440 0.43400
C 	C 	0.80650 0.02360 0.35000 0.46000
C 	C 	0.73460 0.07730 0.31140 -0.41200
C 	C 	0.65970 0.07840 0.23870 0.48400
C 	C 	0.63940 0.02660 0.18860 -1.04800
H 	H 	0.69720 0.02680 0.17850 0.35400
H 	H 	0.63890 0.98680 0.20860 0.34100
H 	H 	0.56890 0.03310 0.14670 0.38100
C 	C 	0.72180 0.13420 0.33810 0.34100
C 	C 	0.77990 0.15320 0.41210 -0.89700
H 	H 	0.72630 0.16030 0.42510 0.28500
H 	H 	0.82990 0.12030 0.44030 0.30000
H 	H 	0.82110 0.19120 0.41860 0.29600
C 	C 	0.64240 0.16960 0.28230 -0.04000
C 	C 	0.51460 0.25610 0.21490 -0.03300
C 	C 	0.40240 0.25860 0.09930 0.49500
C 	C 	0.34310 0.23880 0.02510 -1.08100
H 	H 	0.30730 0.19900 0.01990 0.38000
H 	H 	0.28830 0.26990 0.99700 0.35900
H 	H 	0.39550 0.23480 0.01060 0.36900
C 	C 	0.39280 0.31650 0.12530 -0.39700
C 	C 	0.32580 0.37160 0.08390 0.43300
C 	C 	0.46230 0.31430 0.19810 0.33100
C 	C 	0.47850 0.36560 0.24780 -0.88800
H 	H 	0.55540 0.36750 0.28410 0.30100
H 	H 	0.45650 0.40520 0.22380 0.30300
H 	H 	0.43400 0.35700 0.26740 0.29400
C 	C 	0.60090 0.23180 0.28260 -0.05400
B 	B 	0.99670 0.85310 0.15890 1.80500
B 	B 	0.51480 0.15720 0.15190 1.85800
C 	C 	0.34810 0.76910 0.16340 0.07200
C 	C 	0.25950 0.81060 0.14080 -0.15200
H 	H 	0.22630 0.81580 0.16660 0.09800
C 	C 	0.22050 0.84420 0.07980 0.02700
H 	H 	0.16120 0.87190 0.06470 0.04000
C 	C 	0.27010 0.83640 0.04120 -0.12100
H 	H 	0.24400 0.85890 0.00040 0.07500
C 	C 	0.35870 0.79500 0.06380 0.02300
H 	H 	0.39190 0.78980 0.03800 0.01900
C 	C 	0.39770 0.76140 0.12480 -0.14800
H 	H 	0.45690 0.73360 0.13990 0.06700
Cd	Cd	0.10008 0.40874 0.09803 1.22400
Cd	Cd	0.79212 0.52234 0.98943 1.22500
F 	F 	0.93400 0.38750 0.35420 -0.83800
F 	F 	0.11200 0.38020 0.38370 -0.78200
F 	F 	0.57250 0.61520 0.38050 -0.81700
F 	F 	0.45010 0.65250 0.39740 -0.76900
O 	O 	0.06220 0.09123 0.47000 -0.51000
O 	O 	0.06850 0.17560 0.53000 -0.46300
O 	O 	0.92060 0.43564 0.06257 -0.53700
O 	O 	0.82070 0.48710 0.09560 -0.44100
O 	O 	0.15720 0.51636 0.08611 -0.52600
O 	O 	0.16930 0.48442 0.18240 -0.44600
O 	O 	0.71450 0.90775 0.39040 -0.50200
O 	O 	0.68730 0.88200 0.47460 -0.41600
N 	N 	0.17880 0.33920 0.19050 -0.25200
N 	N 	0.62150 0.02860 0.43560 -0.25800
N 	N 	0.00690 0.28320 0.35950 -0.48500
N 	N 	0.96820 0.35830 0.26510 -0.48000
N 	N 	0.39600 0.63450 0.27820 -0.50300
N 	N 	0.52280 0.72240 0.34600 -0.50600
C 	C 	0.57650 0.04710 0.47090 0.13300
H 	H 	0.61900 0.04440 0.51890 -0.02000
C 	C 	0.46740 0.07090 0.43970 -0.27100
H 	H 	0.43860 0.08140 0.46700 0.13300
C 	C 	0.40440 0.07860 0.37010 0.25100
C 	C 	0.45180 0.06180 0.33320 -0.28100
H 	H 	0.41350 0.06820 0.28560 0.12500
C 	C 	0.55720 0.03530 0.36700 0.14500
H 	H 	0.58480 0.02120 0.34010 -0.03400
C 	C 	0.28740 0.10880 0.33540 -0.40700
H 	H 	0.23590 0.07850 0.33500 0.14100
H 	H 	0.26230 0.11910 0.28770 0.14300
C 	C 	0.28590 0.16650 0.37130 0.20600
H 	H 	0.21000 0.18150 0.34950 -0.04200
H 	H 	0.31130 0.15610 0.41900 -0.03600
C 	C 	0.35780 0.21880 0.37040 -0.39300
H 	H 	0.38420 0.24470 0.41140 0.13400
H 	H 	0.42210 0.20040 0.37240 0.14200
C 	C 	0.29700 0.26020 0.30670 0.22700
C 	C 	0.28180 0.24370 0.24280 -0.25500
H 	H 	0.31210 0.20660 0.23810 0.10900
C 	C 	0.22040 0.28340 0.18600 0.11200
H 	H 	0.20770 0.27090 0.14310 -0.02300
C 	C 	0.19730 0.35530 0.25270 0.13000
H 	H 	0.17180 0.39430 0.25720 -0.02400
C 	C 	0.25220 0.31710 0.31070 -0.26400
H 	H 	0.25900 0.32950 0.35200 0.13900
C 	C 	0.88590 0.44330 0.10370 0.43200
C 	C 	0.91900 0.39720 0.16060 -0.42000
C 	C 	0.94930 0.41230 0.22830 0.50600
C 	C 	0.96580 0.47610 0.25930 -1.09100
H 	H 	0.93840 0.47670 0.29010 0.38100
H 	H 	0.04350 0.48620 0.28470 0.36000
H 	H 	0.92620 0.50650 0.22320 0.35100
C 	C 	0.91700 0.33140 0.15500 0.29900
C 	C 	0.94820 0.30760 0.22080 -0.00500
C 	C 	0.88450 0.29480 0.09060 -0.84500
H 	H 	0.94980 0.27740 0.09400 0.27100
H 	H 	0.83510 0.26130 0.08540 0.28300
H 	H 	0.84790 0.32230 0.05120 0.27000
C 	C 	0.95770 0.24470 0.24520 -0.08000
C 	C 	0.93320 0.19260 0.19850 0.12300
C 	C 	0.83250 0.16220 0.16980 -0.18900
H 	H 	0.78040 0.17540 0.18030 0.10200
C 	C 	0.80800 0.11030 0.12380 0.08300
H 	H 	0.73930 0.09030 0.10260 0.01400
C 	C 	0.88620 0.09150 0.11210 -0.18600
H 	H 	0.87110 0.05650 0.08390 0.10800
C 	C 	0.99330 0.12160 0.14010 0.10300
H 	H 	0.04610 0.10760 0.13040 -0.01800
C 	C 	0.01070 0.17290 0.18240 -0.22600
H 	H 	0.07700 0.19510 0.20090 0.10100
C 	C 	0.98740 0.23340 0.31420 0.01300
C 	C 	0.00500 0.17670 0.35050 0.25700
C 	C 	0.99890 0.11160 0.32430 -0.71300
H 	H 	0.03290 0.11060 0.29720 0.22600
H 	H 	0.03740 0.08320 0.36270 0.24000
H 	H 	0.92260 0.09900 0.29610 0.25000
C 	C 	0.03210 0.19330 0.41770 -0.37900
C 	C 	0.03120 0.25990 0.42130 0.47600
C 	C 	0.05790 0.29970 0.48170 -1.07400
H 	H 	0.06120 0.34310 0.47090 0.37800
H 	H 	0.00140 0.29460 0.49260 0.34900
H 	H 	0.12850 0.28730 0.52070 0.35400
C 	C 	0.05590 0.15030 0.47560 0.42900
C 	C 	0.19350 0.52360 0.15000 0.45000
C 	C 	0.26540 0.57730 0.18860 -0.41200
C 	C 	0.34030 0.57840 0.26130 0.48600
C 	C 	0.36060 0.52660 0.31140 -1.06700
H 	H 	0.30280 0.52680 0.32150 0.35600
H 	H 	0.36110 0.48680 0.29140 0.34900
H 	H 	0.43110 0.53310 0.35330 0.38500
C 	C 	0.27820 0.63420 0.16190 0.34000
C 	C 	0.22010 0.65320 0.08790 -0.89400
H 	H 	0.27370 0.66030 0.07490 0.28400
H 	H 	0.17010 0.62030 0.05970 0.29900
H 	H 	0.17890 0.69120 0.08140 0.29500
C 	C 	0.35760 0.66960 0.21770 -0.03900
C 	C 	0.48540 0.75610 0.28510 -0.03300
C 	C 	0.59760 0.75860 0.40070 0.49700
C 	C 	0.65690 0.73880 0.47490 -1.08600
H 	H 	0.69270 0.69900 0.48010 0.38100
H 	H 	0.71170 0.76990 0.50300 0.36100
H 	H 	0.60450 0.73480 0.48940 0.37000
C 	C 	0.60720 0.81650 0.37470 -0.39800
C 	C 	0.67420 0.87160 0.41610 0.43400
C 	C 	0.53770 0.81430 0.30190 0.33200
C 	C 	0.52150 0.86560 0.25220 -0.88800
H 	H 	0.44460 0.86750 0.21590 0.30100
H 	H 	0.54350 0.90520 0.27620 0.30300
H 	H 	0.56600 0.85700 0.23260 0.29400
C 	C 	0.39910 0.73180 0.21740 -0.05400
B 	B 	0.00330 0.35310 0.34110 1.82000
B 	B 	0.48520 0.65720 0.34810 1.85900
