data_crystal

_cell_length_a 9.24700
_cell_length_b 9.97000
_cell_length_c 15.02500
_cell_angle_alpha 100.15100
_cell_angle_beta  91.37200
_cell_angle_gamma 91.77600

_symmetry_space_group_name_	'P 1'
_symmetry_space_group_name_H-M	'P 1'

loop_
_symmetry_equiv_pos_as_xyz
  x,y,z

loop_
_atom_site_label
_atom_site_type_symbol
_atom_site_fract_x
_atom_site_fract_y
_atom_site_fract_z
_atom_site_charge
Co	Co	0.06792 0.84395 0.80653 1.10300
Co	Co	0.82937 0.61331 0.06252 1.17100
P 	P 	0.11377 0.71019 0.99383 0.49800
O 	O 	0.13870 0.57550 0.93437 -0.47800
O 	O 	0.05080 0.80820 0.93805 -0.53300
O 	O 	0.02320 0.69710 0.07560 -0.50300
O 	O 	0.08400 0.99760 0.13207 -0.51700
O 	O 	0.21360 0.96330 0.25120 -0.29800
O 	O 	0.74320 0.04480 0.15950 -0.50400
O 	O 	0.80680 0.91530 0.03119 -0.45700
O 	O 	0.72450 0.62970 0.95098 -0.39700
O 	O 	0.64930 0.76210 0.85726 -0.24900
N 	N 	0.71140 0.67730 0.17000 -0.25200
N 	N 	0.62640 0.80990 0.28710 -0.10200
N 	N 	0.39780 0.59900 0.68440 -0.10000
N 	N 	0.19970 0.68730 0.74350 -0.24500
C 	C 	0.28680 0.78390 0.03430 -0.10900
C 	C 	0.31200 0.89100 0.10790 -0.11100
C 	C 	0.45360 0.94060 0.12610 0.16900
H 	H 	0.47300 0.00920 0.17790 -0.03500
C 	C 	0.56770 0.89500 0.07240 -0.18300
C 	C 	0.54120 0.78930 0.99890 0.00100
C 	C 	0.40230 0.73490 0.98160 0.03000
H 	H 	0.38480 0.66170 0.93240 0.02300
C 	C 	0.19430 0.95280 0.16850 0.38000
C 	C 	0.71710 0.95710 0.08900 0.45900
C 	C 	0.64980 0.72900 0.93200 0.31900
C 	C 	0.74230 0.77990 0.23650 0.09700
H 	H 	0.83410 0.82620 0.24710 -0.00000
C 	C 	0.56910 0.63990 0.17910 0.00700
H 	H 	0.51640 0.56800 0.14070 0.01600
C 	C 	0.51600 0.72150 0.25110 0.00300
H 	H 	0.42050 0.71810 0.27260 0.03800
C 	C 	0.62010 0.91550 0.36830 -0.12800
H 	H 	0.53770 0.97470 0.36230 0.09600
H 	H 	0.71030 0.97290 0.37570 0.07900
C 	C 	0.60160 0.84780 0.44990 0.08200
C 	C 	0.46500 0.80510 0.46980 -0.08200
H 	H 	0.38300 0.83050 0.43810 0.06200
C 	C 	0.44650 0.72550 0.53540 -0.05200
H 	H 	0.35190 0.69440 0.54730 0.04500
C 	C 	0.56360 0.69080 0.58390 0.05200
C 	C 	0.70220 0.73960 0.56660 -0.04600
H 	H 	0.78400 0.71960 0.60080 0.04600
C 	C 	0.71900 0.81670 0.49980 -0.08100
H 	H 	0.81300 0.84900 0.48790 0.07100
C 	C 	0.54530 0.59940 0.65260 -0.11800
H 	H 	0.56970 0.50540 0.62540 0.07200
H 	H 	0.61310 0.63080 0.70460 0.08700
C 	C 	0.34060 0.70440 0.73900 0.07800
H 	H 	0.39510 0.78150 0.77020 0.02400
C 	C 	0.28590 0.51070 0.65130 -0.01900
H 	H 	0.29180 0.42730 0.61010 0.03900
C 	C 	0.16590 0.56480 0.68840 0.00000
H 	H 	0.07130 0.52430 0.67800 -0.01700
Co	Co	0.93208 0.15605 0.19347 1.12500
Co	Co	0.17063 0.38669 0.93748 1.16100
P 	P 	0.88623 0.28981 0.00617 0.37500
O 	O 	0.86130 0.42450 0.06563 -0.44800
O 	O 	0.94920 0.19180 0.06195 -0.50800
O 	O 	0.97680 0.30290 0.92440 -0.36100
O 	O 	0.91600 0.00240 0.86793 -0.46900
O 	O 	0.78640 0.03670 0.74880 -0.29300
O 	O 	0.25680 0.95520 0.84050 -0.39700
O 	O 	0.19320 0.08470 0.96881 -0.43700
O 	O 	0.27550 0.37030 0.04902 -0.47400
O 	O 	0.35070 0.23790 0.14274 -0.29800
N 	N 	0.28860 0.32270 0.83000 -0.25700
N 	N 	0.37360 0.19010 0.71290 -0.11400
N 	N 	0.60220 0.40100 0.31560 -0.10200
N 	N 	0.80030 0.31270 0.25650 -0.23400
C 	C 	0.71320 0.21610 0.96570 0.01200
C 	C 	0.68800 0.10900 0.89210 -0.04900
C 	C 	0.54640 0.05940 0.87390 -0.09100
H 	H 	0.52700 0.99080 0.82210 0.12100
C 	C 	0.43230 0.10500 0.92760 0.02200
C 	C 	0.45880 0.21070 0.00110 -0.14000
C 	C 	0.59770 0.26510 0.01840 -0.05500
H 	H 	0.61520 0.33830 0.06760 0.04100
C 	C 	0.80570 0.04720 0.83150 0.34500
C 	C 	0.28290 0.04290 0.91100 0.27800
C 	C 	0.35020 0.27100 0.06800 0.34600
C 	C 	0.25770 0.22010 0.76350 0.09200
H 	H 	0.16590 0.17380 0.75290 -0.04500
C 	C 	0.43090 0.36010 0.82090 0.01800
H 	H 	0.48360 0.43200 0.85930 0.02700
C 	C 	0.48400 0.27850 0.74890 -0.00100
H 	H 	0.57950 0.28190 0.72740 0.04700
C 	C 	0.37990 0.08450 0.63170 -0.09000
H 	H 	0.46230 0.02530 0.63770 0.05300
H 	H 	0.28970 0.02710 0.62430 0.02500
C 	C 	0.39840 0.15220 0.55010 0.03800
C 	C 	0.53500 0.19490 0.53020 -0.07100
H 	H 	0.61700 0.16950 0.56190 0.05400
C 	C 	0.55350 0.27450 0.46460 -0.07200
H 	H 	0.64810 0.30560 0.45270 0.05600
C 	C 	0.43640 0.30920 0.41610 0.05000
C 	C 	0.29780 0.26040 0.43340 -0.06900
H 	H 	0.21600 0.28040 0.39920 0.01400
C 	C 	0.28100 0.18330 0.50020 -0.07100
H 	H 	0.18700 0.15100 0.51210 0.02100
C 	C 	0.45470 0.40060 0.34740 -0.11200
H 	H 	0.43030 0.49460 0.37460 0.06300
H 	H 	0.38690 0.36920 0.29540 0.07100
C 	C 	0.65940 0.29560 0.26100 0.07500
H 	H 	0.60490 0.21850 0.22980 0.02200
C 	C 	0.71410 0.48930 0.34870 -0.00800
H 	H 	0.70820 0.57270 0.38990 0.04400
C 	C 	0.83410 0.43520 0.31160 0.00300
H 	H 	0.92870 0.47570 0.32200 0.02400
Co	Co	-0.00000 0.00000 -0.00000 1.11200
