data_crystal

_cell_length_a 10.10320
_cell_length_b 9.22990
_cell_length_c 31.77300
_cell_angle_alpha 90.00000
_cell_angle_beta  107.48600
_cell_angle_gamma 90.00000

_symmetry_space_group_name_	'P 1'
_symmetry_space_group_name_H-M	'P 1'

loop_
_symmetry_equiv_pos_as_xyz
  x,y,z

loop_
_atom_site_label
_atom_site_type_symbol
_atom_site_fract_x
_atom_site_fract_y
_atom_site_fract_z
_atom_site_charge
Co	Co	0.09958 0.90351 0.21953 1.08300
Co	Co	0.67981 0.15545 0.09389 1.17000
Co	Co	0.11460 0.01311 0.62488 1.17700
Co	Co	0.54788 0.17972 0.65698 1.16200
Co	Co	0.13184 0.92954 0.52967 1.10300
P 	P 	0.82890 0.13150 0.62781 0.44000
P 	P 	0.39980 0.89410 0.62170 0.43500
C 	C 	0.87120 0.30150 0.60740 -0.05000
C 	C 	0.92530 0.32320 0.57200 -0.06900
C 	C 	0.96270 0.46310 0.56310 0.00200
H 	H 	0.99380 0.47830 0.53810 0.08000
C 	C 	0.95600 0.58020 0.58960 0.00600
C 	C 	0.90560 0.55840 0.62530 -0.07800
C 	C 	0.86180 0.42250 0.63320 0.00700
H 	H 	0.82390 0.41010 0.65690 0.03400
C 	C 	0.94670 0.20090 0.54300 0.42500
C 	C 	0.00800 0.72610 0.58120 0.28200
C 	C 	0.89480 0.67190 0.65890 0.34300
C 	C 	0.35660 0.72360 0.64150 -0.05700
C 	C 	0.30250 0.70340 0.67710 -0.08200
C 	C 	0.26300 0.56720 0.68640 0.02600
H 	H 	0.23170 0.55420 0.71150 0.04000
C 	C 	0.26790 0.44820 0.66000 -0.08900
C 	C 	0.32140 0.46800 0.62410 -0.07400
C 	C 	0.36670 0.60400 0.61600 -0.00800
H 	H 	0.40560 0.61580 0.59250 0.03100
C 	C 	0.28410 0.82610 0.70690 0.35700
C 	C 	0.21810 0.30130 0.66810 0.36700
C 	C 	0.33530 0.35230 0.59210 0.33900
C 	C 	0.50790 0.29790 0.74110 0.09800
H 	H 	0.46770 0.21260 0.74870 -0.02500
C 	C 	0.61230 0.44920 0.71050 0.00800
H 	H 	0.65970 0.48770 0.69140 0.02100
C 	C 	0.58400 0.52270 0.74290 0.00100
H 	H 	0.60560 0.62110 0.75080 0.04300
C 	C 	0.45930 0.46040 0.79880 -0.16800
H 	H 	0.40770 0.37550 0.80470 0.07100
H 	H 	0.39340 0.54230 0.79010 0.09300
C 	C 	0.57330 0.49980 0.84020 0.17200
C 	C 	0.62650 0.39760 0.87220 -0.23300
H 	H 	0.58880 0.30250 0.86890 0.10200
C 	C 	0.73520 0.43250 0.90950 0.18100
C 	C 	0.78860 0.56990 0.91480 -0.21800
H 	H 	0.86330 0.59360 0.94020 0.13100
C 	C 	0.73360 0.67390 0.88330 0.13000
H 	H 	0.77060 0.76930 0.88730 -0.00700
C 	C 	0.62570 0.64180 0.84580 -0.21100
H 	H 	0.58780 0.71430 0.82440 0.10800
C 	C 	0.79260 0.32150 0.94530 -0.17500
H 	H 	0.78040 0.22330 0.93220 0.07700
H 	H 	0.89320 0.33840 0.95890 0.09600
C 	C 	0.72560 0.22140 0.00840 0.07100
H 	H 	0.76390 0.12790 0.00740 -0.00000
C 	C 	0.65990 0.44580 0.99220 -0.00300
H 	H 	0.64300 0.53790 0.97830 0.04500
C 	C 	0.62660 0.40410 0.02880 0.01600
H 	H 	0.58180 0.46340 0.04480 0.01700
C 	C 	0.00280 0.63000 0.25780 -0.06500
H 	H 	0.04420 0.56890 0.24120 0.04500
C 	C 	0.93250 0.81830 0.28500 -0.00100
H 	H 	0.91550 0.91640 0.29080 0.01300
C 	C 	0.89680 0.70010 0.30540 0.00800
H 	H 	0.85030 0.69990 0.32730 0.03700
C 	C 	0.93870 0.43260 0.30210 -0.06000
H 	H 	0.91800 0.36720 0.27620 0.07600
H 	H 	0.86370 0.42170 0.31600 0.06400
C 	C 	0.07470 0.38960 0.33460 0.03700
C 	C 	0.10920 0.42960 0.37790 -0.14700
H 	H 	0.04490 0.48490 0.38780 0.05600
C 	C 	0.16860 0.31100 0.32010 -0.13000
H 	H 	0.14600 0.28290 0.29000 0.05900
C 	C 	0.29550 0.27310 0.34920 0.04000
H 	H 	0.35980 0.21910 0.33900 0.01400
C 	C 	0.32970 0.31290 0.39290 -0.14700
H 	H 	0.41730 0.28620 0.41260 0.07600
C 	C 	0.23750 0.39130 0.40840 0.09700
C 	C 	0.27590 0.43020 0.45650 -0.13700
H 	H 	0.21230 0.37920 0.46990 0.06800
H 	H 	0.37110 0.39480 0.47120 0.07500
C 	C 	0.21340 0.64660 0.49400 0.06600
H 	H 	0.16650 0.59440 0.51100 0.00800
C 	C 	0.32970 0.69560 0.44830 -0.01600
H 	H 	0.38000 0.68760 0.42750 0.03600
C 	C 	0.30270 0.81750 0.46680 -0.00300
H 	H 	0.33010 0.91160 0.46060 -0.00100
N 	N 	0.56230 0.30800 0.70890 -0.25400
N 	N 	0.51700 0.42630 0.76230 -0.10100
N 	N 	0.66680 0.26570 0.03900 -0.24800
N 	N 	0.72230 0.32990 0.97920 -0.09000
N 	N 	0.99720 0.77230 0.25460 -0.17500
N 	N 	0.94210 0.58260 0.28750 -0.05800
N 	N 	0.23010 0.78840 0.49590 -0.24600
N 	N 	0.27060 0.58380 0.46500 -0.10100
O 	O 	0.75690 0.03630 0.58830 -0.43100
O 	O 	0.73950 0.16110 0.65723 -0.45900
O 	O 	0.96850 0.06990 0.65512 -0.48400
O 	O 	0.01490 0.08840 0.56040 -0.57500
O 	O 	0.90290 0.22020 0.50170 -0.29300
O 	O 	0.04060 0.74610 0.54620 -0.45200
O 	O 	0.01350 0.81770 0.61081 -0.45800
O 	O 	0.78410 0.75140 0.64870 -0.43400
O 	O 	0.98130 0.66910 0.69570 -0.23800
O 	O 	0.48880 0.86300 0.59190 -0.46300
O 	O 	0.47240 0.98790 0.66119 -0.43800
O 	O 	0.25950 0.95620 0.59430 -0.52100
O 	O 	0.21640 0.93890 0.68950 -0.51600
O 	O 	0.33490 0.80880 0.74710 -0.30700
O 	O 	0.18030 0.28480 0.70224 -0.46400
O 	O 	0.21760 0.20670 0.64060 -0.47000
O 	O 	0.44410 0.27500 0.60170 -0.44200
O 	O 	0.24740 0.35030 0.55500 -0.28800
Co	Co	0.09958 0.09649 0.71953 1.08200
Co	Co	0.67981 0.84455 0.59389 1.16900
Co	Co	0.11460 0.98689 0.12488 1.17700
Co	Co	0.54788 0.82028 0.15698 1.16200
Co	Co	0.13184 0.07046 0.02967 1.10100
P 	P 	0.82890 0.86850 0.12781 0.44000
P 	P 	0.39980 0.10590 0.12170 0.43500
C 	C 	0.87120 0.69850 0.10740 -0.05000
C 	C 	0.92530 0.67680 0.07200 -0.07000
C 	C 	0.96270 0.53690 0.06310 0.00200
H 	H 	0.99380 0.52170 0.03810 0.07900
C 	C 	0.95600 0.41980 0.08960 0.00500
C 	C 	0.90560 0.44160 0.12530 -0.07700
C 	C 	0.86180 0.57750 0.13320 0.00600
H 	H 	0.82390 0.58990 0.15690 0.03400
C 	C 	0.94670 0.79910 0.04300 0.42500
C 	C 	0.00800 0.27390 0.08120 0.28200
C 	C 	0.89480 0.32810 0.15890 0.34300
C 	C 	0.35660 0.27640 0.14150 -0.05700
C 	C 	0.30250 0.29660 0.17710 -0.08200
C 	C 	0.26300 0.43280 0.18640 0.02600
H 	H 	0.23170 0.44580 0.21150 0.04000
C 	C 	0.26790 0.55180 0.16000 -0.08900
C 	C 	0.32140 0.53200 0.12410 -0.07500
C 	C 	0.36670 0.39600 0.11600 -0.00700
H 	H 	0.40560 0.38420 0.09250 0.03000
C 	C 	0.28410 0.17390 0.20690 0.35700
C 	C 	0.21810 0.69870 0.16810 0.36700
C 	C 	0.33530 0.64770 0.09210 0.33900
C 	C 	0.50790 0.70210 0.24110 0.09800
H 	H 	0.46770 0.78740 0.24870 -0.02500
C 	C 	0.61230 0.55080 0.21050 0.00800
H 	H 	0.65970 0.51230 0.19140 0.02100
C 	C 	0.58400 0.47730 0.24290 0.00100
H 	H 	0.60560 0.37890 0.25080 0.04300
C 	C 	0.45930 0.53960 0.29880 -0.16800
H 	H 	0.40770 0.62450 0.30470 0.07100
H 	H 	0.39340 0.45770 0.29010 0.09300
C 	C 	0.57330 0.50020 0.34020 0.17200
C 	C 	0.62650 0.60240 0.37220 -0.23200
H 	H 	0.58880 0.69750 0.36890 0.10200
C 	C 	0.73520 0.56750 0.40950 0.18000
C 	C 	0.78860 0.43010 0.41480 -0.21700
H 	H 	0.86330 0.40640 0.44020 0.13000
C 	C 	0.73360 0.32610 0.38330 0.12900
H 	H 	0.77060 0.23070 0.38730 -0.00800
C 	C 	0.62570 0.35820 0.34580 -0.21000
H 	H 	0.58780 0.28570 0.32440 0.10800
C 	C 	0.79260 0.67850 0.44530 -0.17500
H 	H 	0.78040 0.77670 0.43220 0.07600
H 	H 	0.89320 0.66160 0.45890 0.09500
C 	C 	0.72560 0.77860 0.50840 0.07700
H 	H 	0.76390 0.87210 0.50740 -0.00100
C 	C 	0.65990 0.55420 0.49220 -0.01300
H 	H 	0.64300 0.46210 0.47830 0.04700
C 	C 	0.62660 0.59590 0.52880 0.02500
H 	H 	0.58180 0.53660 0.54480 0.01500
C 	C 	0.00280 0.37000 0.75780 -0.06500
H 	H 	0.04420 0.43110 0.74120 0.04500
C 	C 	0.93250 0.18170 0.78500 -0.00100
H 	H 	0.91550 0.08360 0.79080 0.01300
C 	C 	0.89680 0.29990 0.80540 0.00800
H 	H 	0.85030 0.30010 0.82730 0.03700
C 	C 	0.93870 0.56740 0.80210 -0.06100
H 	H 	0.91800 0.63280 0.77620 0.07600
H 	H 	0.86370 0.57830 0.81600 0.06500
C 	C 	0.07470 0.61040 0.83460 0.03700
C 	C 	0.10920 0.57040 0.87790 -0.14700
H 	H 	0.04490 0.51510 0.88780 0.05600
C 	C 	0.16860 0.68900 0.82010 -0.13000
H 	H 	0.14600 0.71710 0.79000 0.05900
C 	C 	0.29550 0.72690 0.84920 0.04100
H 	H 	0.35980 0.78090 0.83900 0.01400
C 	C 	0.32970 0.68710 0.89290 -0.14800
H 	H 	0.41730 0.71380 0.91260 0.07700
C 	C 	0.23750 0.60870 0.90840 0.09800
C 	C 	0.27590 0.56980 0.95650 -0.13800
H 	H 	0.21230 0.62080 0.96990 0.07000
H 	H 	0.37110 0.60520 0.97120 0.07600
C 	C 	0.21340 0.35340 0.99400 0.07500
H 	H 	0.16650 0.40560 0.01100 0.00200
C 	C 	0.32970 0.30440 0.94830 -0.01500
H 	H 	0.38000 0.31240 0.92750 0.03700
C 	C 	0.30270 0.18250 0.96680 -0.00200
H 	H 	0.33010 0.08840 0.96060 -0.00100
N 	N 	0.56230 0.69200 0.20890 -0.25400
N 	N 	0.51700 0.57370 0.26230 -0.10100
N 	N 	0.66680 0.73430 0.53900 -0.25000
N 	N 	0.72230 0.67010 0.47920 -0.09200
N 	N 	0.99720 0.22770 0.75460 -0.17500
N 	N 	0.94210 0.41740 0.78750 -0.05800
N 	N 	0.23010 0.21160 0.99590 -0.24600
N 	N 	0.27060 0.41620 0.96500 -0.10200
O 	O 	0.75690 0.96370 0.08830 -0.43100
O 	O 	0.73950 0.83890 0.15723 -0.45900
O 	O 	0.96850 0.93010 0.15512 -0.48400
O 	O 	0.01490 0.91160 0.06040 -0.57500
O 	O 	0.90290 0.77980 0.00170 -0.29600
O 	O 	0.04060 0.25390 0.04620 -0.45300
O 	O 	0.01350 0.18230 0.11081 -0.45800
O 	O 	0.78410 0.24860 0.14870 -0.43300
O 	O 	0.98130 0.33090 0.19570 -0.23800
O 	O 	0.48880 0.13700 0.09190 -0.46400
O 	O 	0.47240 0.01210 0.16119 -0.43800
O 	O 	0.25950 0.04380 0.09430 -0.52200
O 	O 	0.21640 0.06110 0.18950 -0.51600
O 	O 	0.33490 0.19120 0.24710 -0.30700
O 	O 	0.18030 0.71520 0.20224 -0.46400
O 	O 	0.21760 0.79330 0.14060 -0.47000
O 	O 	0.44410 0.72500 0.10170 -0.44300
O 	O 	0.24740 0.64970 0.05500 -0.29000
