data_crystal

_cell_length_a 9.68270
_cell_length_b 27.68600
_cell_length_c 9.10500
_cell_angle_alpha 90.00000
_cell_angle_beta  121.79400
_cell_angle_gamma 90.00000

_symmetry_space_group_name_	'P 1'
_symmetry_space_group_name_H-M	'P 1'

loop_
_symmetry_equiv_pos_as_xyz
  x,y,z

loop_
_atom_site_label
_atom_site_type_symbol
_atom_site_fract_x
_atom_site_fract_y
_atom_site_fract_z
_atom_site_charge
Nd	Nd	0.97432 0.50916 0.99873 1.44300
O 	O 	0.12400 0.48330 0.29900 -0.45000
O 	O 	0.26100 0.46150 0.57000 -0.44300
O 	O 	0.82500 0.48390 0.69700 -0.56700
O 	O 	0.70000 0.46010 0.42900 -0.42900
C 	C 	0.25200 0.46740 0.43300 0.49000
C 	C 	0.38800 0.45720 0.42100 -0.37100
H 	H 	0.38550 0.47850 0.33300 0.14800
H 	H 	0.37950 0.42340 0.38160 0.14400
C 	C 	0.54900 0.46360 0.59000 -0.11500
H 	H 	0.56780 0.43510 0.66390 0.03200
H 	H 	0.54160 0.49230 0.64990 0.05600
C 	C 	0.70100 0.46990 0.56700 0.36600
O 	O 	0.90600 0.58370 0.82600 -0.36400
O 	O 	0.05900 0.58610 0.17200 -0.37600
C 	C 	0.93400 0.62540 0.90400 -0.02900
C 	C 	0.03500 0.62490 0.10600 0.56000
Nd	Nd	0.99200 0.74104 0.99735 1.46200
O 	O 	0.89400 0.66620 0.82600 -0.36000
O 	O 	0.08600 0.66460 0.17300 -0.38000
O 	O 	0.14600 0.76660 0.29900 -0.45000
O 	O 	0.28700 0.79140 0.56900 -0.43400
O 	O 	0.70600 0.79020 0.42900 -0.51500
O 	O 	0.84400 0.76530 0.69700 -0.64700
C 	C 	0.14700 0.78040 0.43200 0.36500
C 	C 	0.98800 0.78600 0.42200 -0.04000
H 	H 	0.92770 0.81270 0.34080 0.02300
H 	H 	0.92420 0.75610 0.36930 0.02300
C 	C 	0.98500 0.79530 0.58000 -0.80600
H 	H 	0.07340 0.77650 0.67650 0.30200
H 	H 	0.00800 0.82990 0.61010 0.30500
C 	C 	0.83600 0.78340 0.56600 0.63400
Nd	Nd	0.47432 0.00916 0.99873 1.73000
O 	O 	0.62400 0.98330 0.29900 -0.58000
O 	O 	0.76100 0.96150 0.57000 -0.53800
O 	O 	0.32500 0.98390 0.69700 -0.57600
O 	O 	0.20000 0.96010 0.42900 -0.42300
C 	C 	0.75200 0.96740 0.43300 0.56100
C 	C 	0.88800 0.95720 0.42100 -0.53800
H 	H 	0.88550 0.97850 0.33300 0.15900
H 	H 	0.87950 0.92340 0.38160 0.15600
C 	C 	0.04900 0.96360 0.59000 0.02600
H 	H 	0.06780 0.93510 0.66390 0.01100
H 	H 	0.04160 0.99230 0.64990 0.03500
C 	C 	0.20100 0.96990 0.56700 0.35400
O 	O 	0.40600 0.08370 0.82600 -0.37200
O 	O 	0.55900 0.08610 0.17200 -0.43700
C 	C 	0.43400 0.12540 0.90400 0.06500
C 	C 	0.53500 0.12490 0.10600 0.47800
Nd	Nd	0.49200 0.24104 0.99735 1.70800
O 	O 	0.39400 0.16620 0.82600 -0.36400
O 	O 	0.58600 0.16460 0.17300 -0.42700
O 	O 	0.64600 0.26660 0.29900 -0.50500
O 	O 	0.78700 0.29140 0.56900 -0.44800
O 	O 	0.20600 0.29020 0.42900 -0.40900
O 	O 	0.34400 0.26530 0.69700 -0.56900
C 	C 	0.64700 0.28040 0.43200 0.36800
C 	C 	0.48800 0.28600 0.42200 -0.19000
H 	H 	0.42770 0.31270 0.34080 0.09200
H 	H 	0.42420 0.25610 0.36930 0.08400
C 	C 	0.48500 0.29530 0.58000 -0.28300
H 	H 	0.57340 0.27650 0.67650 0.08800
H 	H 	0.50800 0.32990 0.61010 0.08700
C 	C 	0.33600 0.28340 0.56600 0.45700
Nd	Nd	0.97432 0.49084 0.49873 1.79300
O 	O 	0.12400 0.51670 0.79900 -0.47900
O 	O 	0.26100 0.53850 0.07000 -0.25900
O 	O 	0.82500 0.51610 0.19700 -0.58900
O 	O 	0.70000 0.53990 0.92900 -0.54700
C 	C 	0.25200 0.53260 0.93300 0.32600
C 	C 	0.38800 0.54280 0.92100 -0.42700
H 	H 	0.38550 0.52150 0.83300 0.12800
H 	H 	0.37950 0.57660 0.88160 0.11200
C 	C 	0.54900 0.53640 0.09000 -0.04400
H 	H 	0.56780 0.56490 0.16390 0.04000
H 	H 	0.54160 0.50770 0.14990 0.06300
C 	C 	0.70100 0.53010 0.06700 0.54500
O 	O 	0.90600 0.41630 0.32600 -0.36900
O 	O 	0.05900 0.41390 0.67200 -0.42600
C 	C 	0.93400 0.37460 0.40400 0.09900
C 	C 	0.03500 0.37510 0.60600 0.45100
Nd	Nd	0.99200 0.25896 0.49735 1.81600
O 	O 	0.89400 0.33380 0.32600 -0.36400
O 	O 	0.08600 0.33540 0.67300 -0.43000
O 	O 	0.14600 0.23340 0.79900 -0.48900
O 	O 	0.28700 0.20860 0.06900 -0.26300
O 	O 	0.70600 0.20980 0.92900 -0.64700
O 	O 	0.84400 0.23470 0.19700 -0.66700
C 	C 	0.14700 0.21960 0.93200 0.24300
C 	C 	0.98800 0.21400 0.92200 -0.15700
H 	H 	0.92770 0.18730 0.84080 0.00900
H 	H 	0.92420 0.24390 0.86930 0.01600
C 	C 	0.98500 0.20470 0.08000 -0.71100
H 	H 	0.07340 0.22350 0.17650 0.29600
H 	H 	0.00800 0.17010 0.11010 0.31500
C 	C 	0.83600 0.21660 0.06600 0.81700
Nd	Nd	0.47432 0.99084 0.49873 2.06500
O 	O 	0.62400 0.01670 0.79900 -0.60000
O 	O 	0.76100 0.03850 0.07000 -0.33500
O 	O 	0.32500 0.01610 0.19700 -0.59100
O 	O 	0.20000 0.03990 0.92900 -0.53600
C 	C 	0.75200 0.03260 0.93300 0.37900
C 	C 	0.88800 0.04280 0.92100 -0.58800
H 	H 	0.88550 0.02150 0.83300 0.14000
H 	H 	0.87950 0.07660 0.88160 0.12000
C 	C 	0.04900 0.03640 0.09000 0.09700
H 	H 	0.06780 0.06490 0.16390 0.02000
H 	H 	0.04160 0.00770 0.14990 0.04600
C 	C 	0.20100 0.03010 0.06700 0.53100
O 	O 	0.40600 0.91630 0.32600 -0.38000
O 	O 	0.55900 0.91390 0.67200 -0.49100
C 	C 	0.43400 0.87460 0.40400 0.20200
C 	C 	0.53500 0.87510 0.60600 0.35600
Nd	Nd	0.49200 0.75896 0.49735 2.07400
O 	O 	0.39400 0.83380 0.32600 -0.37300
O 	O 	0.58600 0.83540 0.67300 -0.48100
O 	O 	0.64600 0.73340 0.79900 -0.54500
O 	O 	0.78700 0.70860 0.06900 -0.27100
O 	O 	0.20600 0.70980 0.92900 -0.53500
O 	O 	0.34400 0.73470 0.19700 -0.59400
C 	C 	0.64700 0.71960 0.93200 0.22900
C 	C 	0.48800 0.71400 0.92200 -0.27400
H 	H 	0.42770 0.68730 0.84080 0.07000
H 	H 	0.42420 0.74390 0.86930 0.07000
C 	C 	0.48500 0.70470 0.08000 -0.22200
H 	H 	0.57340 0.72350 0.17650 0.09400
H 	H 	0.50800 0.67010 0.11010 0.10700
C 	C 	0.33600 0.71660 0.06600 0.63800
