data_crystal

_cell_length_a 6.82230
_cell_length_b 15.26890
_cell_length_c 14.91090
_cell_angle_alpha 90.00000
_cell_angle_beta  90.00000
_cell_angle_gamma 90.00000

_symmetry_space_group_name_	'P 1'
_symmetry_space_group_name_H-M	'P 1'

loop_
_symmetry_equiv_pos_as_xyz
  x,y,z

loop_
_atom_site_label
_atom_site_type_symbol
_atom_site_fract_x
_atom_site_fract_y
_atom_site_fract_z
_atom_site_charge
O 	O 	0.63540 0.34148 0.82931 -0.50200
O 	O 	0.30810 0.34159 0.84020 -0.51100
C 	C 	0.47600 0.36797 0.86210 0.42700
C 	C 	0.48820 0.43681 0.93332 -0.08500
C 	C 	0.66990 0.46728 0.96138 -0.00900
H 	H 	0.78370 0.44510 0.93560 0.05800
C 	C 	0.68210 0.53052 0.02752 -0.01000
H 	H 	0.80390 0.55120 0.04580 0.05400
O 	O 	0.86460 0.65852 0.32931 -0.50300
O 	O 	0.19190 0.65841 0.34020 -0.51100
C 	C 	0.02400 0.63203 0.36210 0.42800
C 	C 	0.01180 0.56319 0.43332 -0.08500
C 	C 	0.83010 0.53272 0.46138 -0.01000
H 	H 	0.71630 0.55490 0.43560 0.05800
C 	C 	0.81790 0.46948 0.52752 -0.00900
H 	H 	0.69610 0.44880 0.54580 0.05400
O 	O 	0.36460 0.84148 0.17069 -0.50200
O 	O 	0.69190 0.84159 0.15980 -0.51100
C 	C 	0.52400 0.86797 0.13790 0.42700
C 	C 	0.51180 0.93681 0.06668 -0.08500
C 	C 	0.33010 0.96728 0.03862 -0.00900
H 	H 	0.21630 0.94510 0.06440 0.05800
C 	C 	0.31790 0.03052 0.97248 -0.01000
H 	H 	0.19610 0.05120 0.95420 0.05400
O 	O 	0.13540 0.15852 0.67069 -0.50300
O 	O 	0.80810 0.15841 0.65980 -0.51100
C 	C 	0.97600 0.13203 0.63790 0.42800
C 	C 	0.98820 0.06319 0.56668 -0.08500
C 	C 	0.16990 0.03272 0.53862 -0.01100
H 	H 	0.28370 0.05490 0.56440 0.05800
C 	C 	0.18210 0.96948 0.47248 -0.00800
H 	H 	0.30390 0.94880 0.45420 0.05400
O 	O 	0.36460 0.65852 0.17069 -0.50200
O 	O 	0.69190 0.65841 0.15980 -0.51100
C 	C 	0.52400 0.63203 0.13790 0.42700
C 	C 	0.51180 0.56319 0.06668 -0.08500
C 	C 	0.33010 0.53272 0.03862 -0.00900
H 	H 	0.21630 0.55490 0.06440 0.05800
C 	C 	0.31790 0.46948 0.97248 -0.01000
H 	H 	0.19610 0.44880 0.95420 0.05400
O 	O 	0.13540 0.34148 0.67069 -0.50300
O 	O 	0.80810 0.34159 0.65980 -0.51100
C 	C 	0.97600 0.36797 0.63790 0.42800
C 	C 	0.98820 0.43681 0.56668 -0.08500
C 	C 	0.16990 0.46728 0.53862 -0.01000
H 	H 	0.28370 0.44510 0.56440 0.05800
C 	C 	0.18210 0.53052 0.47248 -0.00900
H 	H 	0.30390 0.55120 0.45420 0.05400
O 	O 	0.63540 0.15852 0.82931 -0.50200
O 	O 	0.30810 0.15841 0.84020 -0.51100
C 	C 	0.47600 0.13203 0.86210 0.42700
C 	C 	0.48820 0.06319 0.93332 -0.08500
C 	C 	0.66990 0.03272 0.96138 -0.00900
H 	H 	0.78370 0.05490 0.93560 0.05800
C 	C 	0.68210 0.96948 0.02752 -0.01000
H 	H 	0.80390 0.94880 0.04580 0.05400
O 	O 	0.86460 0.84148 0.32931 -0.50300
O 	O 	0.19190 0.84159 0.34020 -0.51100
C 	C 	0.02400 0.86797 0.36210 0.42800
C 	C 	0.01180 0.93681 0.43332 -0.08500
C 	C 	0.83010 0.96728 0.46138 -0.01100
H 	H 	0.71630 0.94510 0.43560 0.05800
C 	C 	0.81790 0.03052 0.52752 -0.00800
H 	H 	0.69610 0.05120 0.54580 0.05400
V 	V 	0.18782 0.25000 0.76202 1.83200
O 	O 	0.97000 0.25000 0.80487 -0.67600
V 	V 	0.31218 0.75000 0.26202 1.83300
O 	O 	0.53000 0.75000 0.30487 -0.67700
V 	V 	0.81218 0.75000 0.23798 1.83200
O 	O 	0.03000 0.75000 0.19513 -0.67600
V 	V 	0.68782 0.25000 0.73798 1.83300
O 	O 	0.47000 0.25000 0.69513 -0.67700
