data_crystal

_cell_length_a 6.79800
_cell_length_b 13.28500
_cell_length_c 16.45700
_cell_angle_alpha 90.00000
_cell_angle_beta  90.00000
_cell_angle_gamma 90.00000

_symmetry_space_group_name_	'P 1'
_symmetry_space_group_name_H-M	'P 1'

loop_
_symmetry_equiv_pos_as_xyz
  x,y,z

loop_
_atom_site_label
_atom_site_type_symbol
_atom_site_fract_x
_atom_site_fract_y
_atom_site_fract_z
_atom_site_charge
C 	C 	0.77470 0.60950 0.90450 0.42200
C 	C 	0.75920 0.53490 0.83650 -0.08000
C 	C 	0.92860 0.48970 0.80650 -0.01200
H 	H 	0.04930 0.50230 0.83110 0.05700
C 	C 	0.57840 0.51260 0.80240 -0.01200
H 	H 	0.46440 0.53960 0.82480 0.05900
C 	C 	0.56620 0.45070 0.73560 -0.00600
H 	H 	0.44440 0.43750 0.71220 0.05400
C 	C 	0.91770 0.42550 0.73990 -0.00900
H 	H 	0.03090 0.39470 0.72020 0.05900
C 	C 	0.73700 0.40750 0.70260 -0.09100
C 	C 	0.72580 0.34580 0.62740 0.43500
O 	O 	0.28370 0.68960 0.00960 -0.67700
O 	O 	0.88340 0.31380 0.59850 -0.50800
O 	O 	0.61460 0.64640 0.92940 -0.50200
O 	O 	0.55660 0.33070 0.59820 -0.51200
O 	O 	0.94420 0.63200 0.92980 -0.51000
V 	V 	0.06409 0.73509 0.00142 1.83400
C 	C 	0.72530 0.39050 0.40450 0.42000
C 	C 	0.74080 0.46510 0.33650 -0.07800
C 	C 	0.57140 0.51030 0.30650 -0.01700
H 	H 	0.45070 0.49770 0.33110 0.05800
C 	C 	0.92160 0.48740 0.30240 -0.01900
H 	H 	0.03560 0.46040 0.32480 0.06100
C 	C 	0.93380 0.54930 0.23560 0.00200
H 	H 	0.05560 0.56250 0.21220 0.05000
C 	C 	0.58230 0.57450 0.23990 -0.00100
H 	H 	0.46910 0.60530 0.22020 0.05400
C 	C 	0.76300 0.59250 0.20260 -0.09500
C 	C 	0.77420 0.65420 0.12740 0.43700
O 	O 	0.21630 0.31040 0.50960 -0.67600
O 	O 	0.61660 0.68620 0.09850 -0.50600
O 	O 	0.88540 0.35360 0.42940 -0.50200
O 	O 	0.94340 0.66930 0.09820 -0.51000
O 	O 	0.55580 0.36800 0.42980 -0.51100
V 	V 	0.43591 0.26491 0.50142 1.83500
C 	C 	0.22530 0.10950 0.59550 0.42100
C 	C 	0.24080 0.03490 0.66350 -0.08000
C 	C 	0.07140 0.98970 0.69350 -0.01000
H 	H 	0.95070 0.00230 0.66890 0.05200
C 	C 	0.42160 0.01260 0.69760 -0.01200
H 	H 	0.53560 0.03960 0.67520 0.05800
C 	C 	0.43380 0.95070 0.76440 -0.00700
H 	H 	0.55560 0.93750 0.78780 0.05400
C 	C 	0.08230 0.92550 0.76010 -0.00900
H 	H 	0.96910 0.89470 0.77980 0.05900
C 	C 	0.26300 0.90750 0.79740 -0.09000
C 	C 	0.27420 0.84580 0.87260 0.43500
O 	O 	0.71630 0.18960 0.49040 -0.67800
O 	O 	0.11660 0.81380 0.90150 -0.50700
O 	O 	0.38540 0.14640 0.57060 -0.50200
O 	O 	0.44340 0.83070 0.90180 -0.51200
O 	O 	0.05580 0.13200 0.57020 -0.50800
V 	V 	0.93591 0.23509 0.49858 1.83400
C 	C 	0.27470 0.89050 0.09550 0.41600
C 	C 	0.25920 0.96510 0.16350 -0.06700
C 	C 	0.42860 0.01030 0.19350 -0.02600
H 	H 	0.54930 0.99770 0.16890 0.06100
C 	C 	0.07840 0.98740 0.19760 -0.04200
H 	H 	0.96440 0.96040 0.17520 0.07200
C 	C 	0.06620 0.04930 0.26440 0.02100
H 	H 	0.94440 0.06250 0.28780 0.04200
C 	C 	0.41770 0.07450 0.26010 0.00800
H 	H 	0.53090 0.10530 0.27980 0.05100
C 	C 	0.23700 0.09250 0.29740 -0.10500
C 	C 	0.22580 0.15420 0.37260 0.44000
O 	O 	0.78370 0.81040 0.99040 -0.67700
O 	O 	0.38340 0.18620 0.40150 -0.50800
O 	O 	0.11460 0.85360 0.07060 -0.50200
O 	O 	0.05660 0.16930 0.40180 -0.51100
O 	O 	0.44420 0.86800 0.07020 -0.50900
V 	V 	0.56409 0.76491 0.99858 1.83500
