data_crystal

_cell_length_a 6.79990
_cell_length_b 12.70020
_cell_length_c 16.68020
_cell_angle_alpha 90.00000
_cell_angle_beta  90.00000
_cell_angle_gamma 90.00000

_symmetry_space_group_name_	'P 1'
_symmetry_space_group_name_H-M	'P 1'

loop_
_symmetry_equiv_pos_as_xyz
  x,y,z

loop_
_atom_site_label
_atom_site_type_symbol
_atom_site_fract_x
_atom_site_fract_y
_atom_site_fract_z
_atom_site_charge
C 	C 	0.77370 0.90280 0.91146 0.42600
C 	C 	0.75940 0.98070 0.84470 -0.07900
C 	C 	0.57710 0.99990 0.80930 -0.01400
H 	H 	0.46340 0.97130 0.83130 0.05900
C 	C 	0.56640 0.06170 0.74140 -0.00500
H 	H 	0.44520 0.07440 0.71740 0.05400
C 	C 	0.92830 0.02730 0.81400 -0.01800
H 	H 	0.04900 0.01690 0.83900 0.06000
C 	C 	0.91570 0.08940 0.74570 -0.01000
H 	H 	0.02830 0.12070 0.72490 0.06000
C 	C 	0.73600 0.10500 0.70874 -0.08900
C 	C 	0.72540 0.16280 0.63098 0.43100
O 	O 	0.28250 0.81331 0.01264 -0.67400
O 	O 	0.55770 0.17480 0.60049 -0.51400
O 	O 	0.94200 0.87963 0.93690 -0.51200
O 	O 	0.88520 0.19260 0.60073 -0.50600
O 	O 	0.61410 0.86356 0.93584 -0.50200
V 	V 	0.06350 0.76592 0.00184 1.83300
C 	C 	0.72630 0.09720 0.41146 0.42300
C 	C 	0.74060 0.01930 0.34470 -0.07400
C 	C 	0.92290 0.00010 0.30930 -0.03600
H 	H 	0.03660 0.02870 0.33130 0.06900
C 	C 	0.93360 0.93830 0.24140 0.01800
H 	H 	0.05480 0.92560 0.21740 0.04300
C 	C 	0.57170 0.97270 0.31400 -0.02100
H 	H 	0.45100 0.98310 0.33900 0.05800
C 	C 	0.58430 0.91060 0.24570 0.00400
H 	H 	0.47170 0.87930 0.22490 0.05300
C 	C 	0.76400 0.89500 0.20874 -0.10100
C 	C 	0.77460 0.83720 0.13098 0.43500
O 	O 	0.21750 0.18669 0.51264 -0.67300
O 	O 	0.94230 0.82520 0.10049 -0.51200
O 	O 	0.55800 0.12037 0.43690 -0.51200
O 	O 	0.61480 0.80740 0.10073 -0.50500
O 	O 	0.88590 0.13644 0.43584 -0.50300
V 	V 	0.43650 0.23408 0.50184 1.83400
C 	C 	0.22630 0.40280 0.58854 0.42800
C 	C 	0.24060 0.48070 0.65530 -0.08700
C 	C 	0.42290 0.49990 0.69070 -0.01000
H 	H 	0.53660 0.47130 0.66870 0.05700
C 	C 	0.43360 0.56170 0.75860 -0.00800
H 	H 	0.55480 0.57440 0.78260 0.05500
C 	C 	0.07170 0.52730 0.68600 -0.00500
H 	H 	0.95100 0.51690 0.66100 0.05200
C 	C 	0.08430 0.58940 0.75430 -0.00900
H 	H 	0.97170 0.62070 0.77510 0.05700
C 	C 	0.26400 0.60500 0.79126 -0.08800
C 	C 	0.27460 0.66280 0.86902 0.43100
O 	O 	0.71750 0.31331 0.48736 -0.67500
O 	O 	0.44230 0.67480 0.89951 -0.51400
O 	O 	0.05800 0.37963 0.56310 -0.51100
O 	O 	0.11480 0.69260 0.89927 -0.50500
O 	O 	0.38590 0.36356 0.56416 -0.50300
V 	V 	0.93650 0.26592 0.49816 1.83300
C 	C 	0.27370 0.59720 0.08854 0.42600
C 	C 	0.25940 0.51930 0.15530 -0.08200
C 	C 	0.07710 0.50010 0.19070 -0.01900
H 	H 	0.96340 0.52870 0.16870 0.06200
C 	C 	0.06640 0.43830 0.25860 -0.00100
H 	H 	0.94520 0.42560 0.28260 0.05200
C 	C 	0.42830 0.47270 0.18600 -0.01300
H 	H 	0.54900 0.48310 0.16100 0.05600
C 	C 	0.41570 0.41060 0.25430 -0.00300
H 	H 	0.52830 0.37930 0.27510 0.05600
C 	C 	0.23600 0.39500 0.29126 -0.09200
C 	C 	0.22540 0.33720 0.36902 0.43200
O 	O 	0.78250 0.68669 0.98736 -0.67400
O 	O 	0.05770 0.32520 0.39951 -0.51300
O 	O 	0.44200 0.62037 0.06310 -0.51200
O 	O 	0.38520 0.30740 0.39927 -0.50400
O 	O 	0.11410 0.63644 0.06416 -0.50300
V 	V 	0.56350 0.73408 0.99816 1.83400
