data_crystal

_cell_length_a 6.80550
_cell_length_b 13.44750
_cell_length_c 16.18090
_cell_angle_alpha 90.00000
_cell_angle_beta  90.00000
_cell_angle_gamma 90.00000

_symmetry_space_group_name_	'P 1'
_symmetry_space_group_name_H-M	'P 1'

loop_
_symmetry_equiv_pos_as_xyz
  x,y,z

loop_
_atom_site_label
_atom_site_type_symbol
_atom_site_fract_x
_atom_site_fract_y
_atom_site_fract_z
_atom_site_charge
C 	C 	0.22430 0.60960 0.40430 0.43000
C 	C 	0.24020 0.53430 0.33790 -0.08700
C 	C 	0.41920 0.51180 0.30210 -0.00900
H 	H 	0.53310 0.54100 0.32250 0.05900
C 	C 	0.43100 0.44830 0.23810 -0.00200
H 	H 	0.55320 0.43300 0.21580 0.05400
C 	C 	0.07140 0.48930 0.30710 -0.00900
H 	H 	0.95010 0.50220 0.33120 0.05300
C 	C 	0.08450 0.42530 0.24050 0.00000
H 	H 	0.97120 0.39580 0.21980 0.05400
C 	C 	0.26230 0.40490 0.20470 -0.09900
C 	C 	0.27690 0.34430 0.12950 0.43600
O 	O 	0.28350 0.18980 0.99000 -0.67300
O 	O 	0.11570 0.31260 0.09960 -0.50300
O 	O 	0.05640 0.63210 0.43020 -0.51200
O 	O 	0.44280 0.32840 0.09910 -0.51900
O 	O 	0.38450 0.64730 0.42860 -0.50300
V 	V 	0.06454 0.23546 0.99852 1.83500
C 	C 	0.27570 0.39040 0.90430 0.42700
C 	C 	0.25980 0.46570 0.83790 -0.08200
C 	C 	0.08080 0.48820 0.80210 -0.01900
H 	H 	0.96690 0.45900 0.82250 0.06200
C 	C 	0.06900 0.55170 0.73810 0.00500
H 	H 	0.94680 0.56700 0.71580 0.04900
C 	C 	0.42860 0.51070 0.80710 -0.01800
H 	H 	0.54990 0.49780 0.83120 0.05800
C 	C 	0.41550 0.57470 0.74050 0.00600
H 	H 	0.52880 0.60420 0.71980 0.05300
C 	C 	0.23770 0.59510 0.70470 -0.10400
C 	C 	0.22310 0.65570 0.62950 0.43700
O 	O 	0.21650 0.81020 0.49000 -0.67200
O 	O 	0.38430 0.68740 0.59960 -0.50400
O 	O 	0.44360 0.36790 0.93020 -0.51200
O 	O 	0.05720 0.67160 0.59910 -0.51800
O 	O 	0.11550 0.35270 0.92860 -0.50300
V 	V 	0.43546 0.76454 0.49852 1.83600
C 	C 	0.77570 0.10960 0.09570 0.42900
C 	C 	0.75980 0.03430 0.16210 -0.08600
C 	C 	0.58080 0.01180 0.19790 -0.01000
H 	H 	0.46690 0.04100 0.17750 0.05800
C 	C 	0.56900 0.94830 0.26190 -0.00400
H 	H 	0.44680 0.93300 0.28420 0.05300
C 	C 	0.92860 0.98930 0.19290 -0.01300
H 	H 	0.04990 0.00220 0.16880 0.05500
C 	C 	0.91550 0.92530 0.25950 -0.00700
H 	H 	0.02880 0.89580 0.28020 0.06000
C 	C 	0.73770 0.90490 0.29530 -0.09700
C 	C 	0.72310 0.84430 0.37050 0.43400
O 	O 	0.71650 0.68980 0.51000 -0.67300
O 	O 	0.88430 0.81260 0.40040 -0.50500
O 	O 	0.94360 0.13210 0.06980 -0.51200
O 	O 	0.55720 0.82840 0.40090 -0.51900
O 	O 	0.61550 0.14730 0.07140 -0.50300
V 	V 	0.93546 0.73546 0.50148 1.83500
C 	C 	0.72430 0.89040 0.59570 0.42300
C 	C 	0.74020 0.96570 0.66210 -0.07200
C 	C 	0.91920 0.98820 0.69790 -0.04200
H 	H 	0.03310 0.95900 0.67750 0.07100
C 	C 	0.93100 0.05170 0.76190 0.02900
H 	H 	0.05320 0.06700 0.78420 0.03900
C 	C 	0.57140 0.01070 0.69290 -0.02800
H 	H 	0.45010 0.99780 0.66880 0.06100
C 	C 	0.58450 0.07470 0.75950 0.01700
H 	H 	0.47120 0.10420 0.78020 0.04900
C 	C 	0.76230 0.09510 0.79530 -0.11600
C 	C 	0.77690 0.15570 0.87050 0.44200
O 	O 	0.78350 0.31020 0.01000 -0.67300
O 	O 	0.61570 0.18740 0.90040 -0.50400
O 	O 	0.55640 0.86790 0.56980 -0.51200
O 	O 	0.94280 0.17160 0.90090 -0.51800
O 	O 	0.88450 0.85270 0.57140 -0.50300
V 	V 	0.56454 0.26454 0.00148 1.83600
