data_crystal

_cell_length_a 13.92600
_cell_length_b 16.59000
_cell_length_c 16.18100
_cell_angle_alpha 90.00000
_cell_angle_beta  110.29600
_cell_angle_gamma 90.00000

_symmetry_space_group_name_	'P 1'
_symmetry_space_group_name_H-M	'P 1'

loop_
_symmetry_equiv_pos_as_xyz
  x,y,z

loop_
_atom_site_label
_atom_site_type_symbol
_atom_site_fract_x
_atom_site_fract_y
_atom_site_fract_z
_atom_site_charge
Cd	Cd	0.29152 0.49907 0.14202 1.23800
Cd	Cd	0.41891 0.50416 0.37350 1.23300
O 	O 	0.26894 0.57761 0.31720 -0.43000
O 	O 	0.16677 0.55185 0.17982 -0.44300
O 	O 	0.83909 0.62677 0.36021 -0.29400
O 	O 	0.69717 0.90443 0.23198 -0.43300
O 	O 	0.54441 0.87243 0.13729 -0.37100
O 	O 	0.47610 0.51847 0.25054 -0.43200
O 	O 	0.38976 0.61400 0.16068 -0.36400
O 	O 	0.34638 0.39060 0.08587 -0.35900
O 	O 	0.17953 0.39858 0.05386 -0.32300
O 	O 	0.49016 0.11780 0.08315 -0.37300
O 	O 	0.39290 0.01991 0.00380 -0.43300
O 	O 	0.03597 0.14084 0.89910 -0.30400
O 	O 	0.93420 0.09200 0.49139 -0.49300
H 	H 	0.90450 0.08210 0.43910 0.30100
O 	O 	0.77977 0.06690 0.49827 -0.39800
C 	C 	0.18100 0.57138 0.25870 0.41600
C 	C 	0.09850 0.59620 0.37090 0.20500
H 	H 	0.16260 0.59120 0.41450 -0.02200
C 	C 	0.01440 0.60980 0.39500 -0.31600
H 	H 	0.02140 0.61280 0.45420 0.17500
C 	C 	0.92000 0.61870 0.33050 0.33500
C 	C 	0.90930 0.61480 0.24260 -0.32000
H 	H 	0.84540 0.62240 0.19930 0.15400
C 	C 	0.99360 0.59970 0.21910 0.19700
H 	H 	0.98630 0.59590 0.15980 -0.01300
C 	C 	0.09000 0.58990 0.28360 -0.23000
C 	C 	0.74540 0.65680 0.30370 0.23000
C 	C 	0.73700 0.73690 0.27790 -0.17400
H 	H 	0.79440 0.77010 0.29450 0.11000
C 	C 	0.64180 0.76690 0.22710 0.01500
C 	C 	0.55710 0.71700 0.20540 -0.06900
H 	H 	0.49350 0.73680 0.17050 0.09400
C 	C 	0.56570 0.63750 0.23500 0.01800
C 	C 	0.66130 0.60690 0.28400 -0.17000
H 	H 	0.66850 0.55360 0.30310 0.11700
C 	C 	0.62800 0.85360 0.19800 0.28100
C 	C 	0.47100 0.58720 0.21490 0.28100
C 	C 	0.25750 0.36210 0.05270 0.25900
C 	C 	0.24440 0.27910 0.01350 0.03500
C 	C 	0.14680 0.24930 0.96760 -0.18500
H 	H 	0.08980 0.28230 0.95650 0.13200
C 	C 	0.13550 0.17040 0.93870 0.24100
C 	C 	0.21910 0.11920 0.95610 -0.17700
H 	H 	0.21030 0.06610 0.93650 0.10700
C 	C 	0.31620 0.14870 0.00342 0.01500
C 	C 	0.32870 0.22870 0.03070 -0.07600
H 	H 	0.39400 0.24860 0.06060 0.09400
C 	C 	0.40540 0.09230 0.03070 0.27500
C 	C 	0.99980 0.12860 0.80880 0.34400
C 	C 	0.89750 0.10780 0.77170 -0.31800
H 	H 	0.85720 0.10290 0.80690 0.16500
C 	C 	0.85620 0.09470 0.68280 0.21100
H 	H 	0.78760 0.08030 0.65780 -0.01900
C 	C 	0.91490 0.10250 0.62940 -0.23800
C 	C 	0.01740 0.12170 0.66790 0.21300
H 	H 	0.05830 0.12540 0.63330 -0.00500
C 	C 	0.05930 0.13560 0.75730 -0.33700
H 	H 	0.12800 0.14970 0.78270 0.16000
C 	C 	0.86940 0.08570 0.53410 0.45900
Cd	Cd	0.70848 0.99907 0.35798 1.23900
Cd	Cd	0.58109 0.00416 0.12650 1.23400
O 	O 	0.73106 0.07761 0.18280 -0.42900
O 	O 	0.83323 0.05185 0.32018 -0.44200
O 	O 	0.16091 0.12677 0.13979 -0.29400
O 	O 	0.30283 0.40443 0.26802 -0.43200
O 	O 	0.45559 0.37243 0.36271 -0.37000
O 	O 	0.52390 0.01847 0.24946 -0.43000
O 	O 	0.61024 0.11400 0.33932 -0.36200
O 	O 	0.65362 0.89060 0.41413 -0.35800
O 	O 	0.82047 0.89858 0.44614 -0.32300
O 	O 	0.50984 0.61780 0.41685 -0.37200
O 	O 	0.60710 0.51991 0.49620 -0.43300
O 	O 	0.96403 0.64084 0.60090 -0.29800
O 	O 	0.06580 0.59200 0.00861 -0.49100
H 	H 	0.09550 0.58210 0.06090 0.30000
O 	O 	0.22023 0.56690 0.00173 -0.39700
C 	C 	0.81900 0.07138 0.24130 0.41800
C 	C 	0.90150 0.09620 0.12910 0.21100
H 	H 	0.83740 0.09120 0.08550 -0.02400
C 	C 	0.98560 0.10980 0.10500 -0.32400
H 	H 	0.97860 0.11280 0.04580 0.17700
C 	C 	0.08000 0.11870 0.16950 0.34000
C 	C 	0.09070 0.11480 0.25740 -0.32500
H 	H 	0.15460 0.12240 0.30070 0.15600
C 	C 	0.00640 0.09970 0.28090 0.20400
H 	H 	0.01370 0.09590 0.34020 -0.01500
C 	C 	0.91000 0.08990 0.21640 -0.23500
C 	C 	0.25460 0.15680 0.19630 0.23100
C 	C 	0.26300 0.23690 0.22210 -0.17400
H 	H 	0.20560 0.27010 0.20550 0.11000
C 	C 	0.35820 0.26690 0.27290 0.01500
C 	C 	0.44290 0.21700 0.29460 -0.06900
H 	H 	0.50650 0.23680 0.32950 0.09400
C 	C 	0.43430 0.13750 0.26500 0.01900
C 	C 	0.33870 0.10690 0.21600 -0.17100
H 	H 	0.33150 0.05360 0.19690 0.11700
C 	C 	0.37200 0.35360 0.30200 0.28100
C 	C 	0.52900 0.08720 0.28510 0.28100
C 	C 	0.74250 0.86210 0.44730 0.26000
C 	C 	0.75560 0.77910 0.48650 0.03200
C 	C 	0.85320 0.74930 0.53240 -0.18100
H 	H 	0.91020 0.78230 0.54350 0.13100
C 	C 	0.86450 0.67040 0.56130 0.23800
C 	C 	0.78090 0.61920 0.54390 -0.17300
H 	H 	0.78970 0.56610 0.56350 0.10600
C 	C 	0.68380 0.64870 0.49658 0.01300
C 	C 	0.67130 0.72870 0.46930 -0.07300
H 	H 	0.60600 0.74860 0.43940 0.09400
C 	C 	0.59460 0.59230 0.46930 0.27600
C 	C 	0.00020 0.62860 0.69120 0.33300
C 	C 	0.10250 0.60780 0.72830 -0.31200
H 	H 	0.14280 0.60290 0.69310 0.16200
C 	C 	0.14380 0.59470 0.81720 0.20700
H 	H 	0.21240 0.58030 0.84220 -0.01900
C 	C 	0.08510 0.60250 0.87060 -0.23900
C 	C 	0.98260 0.62170 0.83210 0.21200
H 	H 	0.94170 0.62540 0.86670 -0.00500
C 	C 	0.94070 0.63560 0.74270 -0.32800
H 	H 	0.87200 0.64970 0.71730 0.15700
C 	C 	0.13060 0.58570 0.96590 0.45300
Cd	Cd	0.70848 0.50093 0.85798 1.23900
Cd	Cd	0.58109 0.49584 0.62650 1.23400
O 	O 	0.73106 0.42239 0.68280 -0.42900
O 	O 	0.83323 0.44815 0.82018 -0.44200
O 	O 	0.16091 0.37323 0.63979 -0.29300
O 	O 	0.30283 0.09557 0.76802 -0.43200
O 	O 	0.45559 0.12757 0.86271 -0.37000
O 	O 	0.52390 0.48153 0.74946 -0.43100
O 	O 	0.61024 0.38600 0.83932 -0.36300
O 	O 	0.65362 0.60940 0.91413 -0.35800
O 	O 	0.82047 0.60142 0.94614 -0.32200
O 	O 	0.50984 0.88220 0.91685 -0.37200
O 	O 	0.60710 0.98009 0.99620 -0.43300
O 	O 	0.96403 0.85916 0.10090 -0.30400
O 	O 	0.06580 0.90800 0.50861 -0.49300
H 	H 	0.09550 0.91790 0.56090 0.30100
O 	O 	0.22023 0.93310 0.50173 -0.39800
C 	C 	0.81900 0.42862 0.74130 0.41600
C 	C 	0.90150 0.40380 0.62910 0.20500
H 	H 	0.83740 0.40880 0.58550 -0.02200
C 	C 	0.98560 0.39020 0.60500 -0.31600
H 	H 	0.97860 0.38720 0.54580 0.17500
C 	C 	0.08000 0.38130 0.66950 0.33500
C 	C 	0.09070 0.38520 0.75740 -0.32000
H 	H 	0.15460 0.37760 0.80070 0.15400
C 	C 	0.00640 0.40030 0.78090 0.19700
H 	H 	0.01370 0.40410 0.84020 -0.01300
C 	C 	0.91000 0.41010 0.71640 -0.23000
C 	C 	0.25460 0.34320 0.69630 0.23000
C 	C 	0.26300 0.26310 0.72210 -0.17400
H 	H 	0.20560 0.22990 0.70550 0.11000
C 	C 	0.35820 0.23310 0.77290 0.01500
C 	C 	0.44290 0.28300 0.79460 -0.06900
H 	H 	0.50650 0.26320 0.82950 0.09400
C 	C 	0.43430 0.36250 0.76500 0.01800
C 	C 	0.33870 0.39310 0.71600 -0.17000
H 	H 	0.33150 0.44640 0.69690 0.11700
C 	C 	0.37200 0.14640 0.80200 0.28100
C 	C 	0.52900 0.41280 0.78510 0.28100
C 	C 	0.74250 0.63790 0.94730 0.25900
C 	C 	0.75560 0.72090 0.98650 0.03500
C 	C 	0.85320 0.75070 0.03240 -0.18500
H 	H 	0.91020 0.71770 0.04350 0.13200
C 	C 	0.86450 0.82960 0.06130 0.24100
C 	C 	0.78090 0.88080 0.04390 -0.17700
H 	H 	0.78970 0.93390 0.06350 0.10700
C 	C 	0.68380 0.85130 0.99658 0.01500
C 	C 	0.67130 0.77130 0.96930 -0.07600
H 	H 	0.60600 0.75140 0.93940 0.09400
C 	C 	0.59460 0.90770 0.96930 0.27500
C 	C 	0.00020 0.87140 0.19120 0.34400
C 	C 	0.10250 0.89220 0.22830 -0.31800
H 	H 	0.14280 0.89710 0.19310 0.16500
C 	C 	0.14380 0.90530 0.31720 0.21100
H 	H 	0.21240 0.91970 0.34220 -0.01900
C 	C 	0.08510 0.89750 0.37060 -0.23800
C 	C 	0.98260 0.87830 0.33210 0.21300
H 	H 	0.94170 0.87460 0.36670 -0.00500
C 	C 	0.94070 0.86440 0.24270 -0.33700
H 	H 	0.87200 0.85030 0.21730 0.16000
C 	C 	0.13060 0.91430 0.46590 0.45900
Cd	Cd	0.29152 0.00093 0.64202 1.23900
Cd	Cd	0.41891 0.99584 0.87350 1.23400
O 	O 	0.26894 0.92239 0.81720 -0.42900
O 	O 	0.16677 0.94815 0.67982 -0.44200
O 	O 	0.83909 0.87323 0.86021 -0.29400
O 	O 	0.69717 0.59557 0.73198 -0.43200
O 	O 	0.54441 0.62757 0.63729 -0.37000
O 	O 	0.47610 0.98153 0.75054 -0.43000
O 	O 	0.38976 0.88600 0.66068 -0.36200
O 	O 	0.34638 0.10940 0.58587 -0.35800
O 	O 	0.17953 0.10142 0.55386 -0.32300
O 	O 	0.49016 0.38220 0.58315 -0.37200
O 	O 	0.39290 0.48009 0.50380 -0.43300
O 	O 	0.03597 0.35916 0.39910 -0.29800
O 	O 	0.93420 0.40800 0.99139 -0.49100
H 	H 	0.90450 0.41790 0.93910 0.30000
O 	O 	0.77977 0.43310 0.99827 -0.39700
C 	C 	0.18100 0.92862 0.75870 0.41800
C 	C 	0.09850 0.90380 0.87090 0.21100
H 	H 	0.16260 0.90880 0.91450 -0.02400
C 	C 	0.01440 0.89020 0.89500 -0.32400
H 	H 	0.02140 0.88720 0.95420 0.17700
C 	C 	0.92000 0.88130 0.83050 0.34000
C 	C 	0.90930 0.88520 0.74260 -0.32500
H 	H 	0.84540 0.87760 0.69930 0.15600
C 	C 	0.99360 0.90030 0.71910 0.20400
H 	H 	0.98630 0.90410 0.65980 -0.01500
C 	C 	0.09000 0.91010 0.78360 -0.23500
C 	C 	0.74540 0.84320 0.80370 0.23100
C 	C 	0.73700 0.76310 0.77790 -0.17400
H 	H 	0.79440 0.72990 0.79450 0.11000
C 	C 	0.64180 0.73310 0.72710 0.01500
C 	C 	0.55710 0.78300 0.70540 -0.06900
H 	H 	0.49350 0.76320 0.67050 0.09400
C 	C 	0.56570 0.86250 0.73500 0.01900
C 	C 	0.66130 0.89310 0.78400 -0.17100
H 	H 	0.66850 0.94640 0.80310 0.11700
C 	C 	0.62800 0.64640 0.69800 0.28100
C 	C 	0.47100 0.91280 0.71490 0.28100
C 	C 	0.25750 0.13790 0.55270 0.26000
C 	C 	0.24440 0.22090 0.51350 0.03200
C 	C 	0.14680 0.25070 0.46760 -0.18100
H 	H 	0.08980 0.21770 0.45650 0.13100
C 	C 	0.13550 0.32960 0.43870 0.23800
C 	C 	0.21910 0.38080 0.45610 -0.17300
H 	H 	0.21030 0.43390 0.43650 0.10600
C 	C 	0.31620 0.35130 0.50342 0.01300
C 	C 	0.32870 0.27130 0.53070 -0.07300
H 	H 	0.39400 0.25140 0.56060 0.09400
C 	C 	0.40540 0.40770 0.53070 0.27600
C 	C 	0.99980 0.37140 0.30880 0.33300
C 	C 	0.89750 0.39220 0.27170 -0.31200
H 	H 	0.85720 0.39710 0.30690 0.16200
C 	C 	0.85620 0.40530 0.18280 0.20700
H 	H 	0.78760 0.41970 0.15780 -0.01900
C 	C 	0.91490 0.39750 0.12940 -0.23900
C 	C 	0.01740 0.37830 0.16790 0.21200
H 	H 	0.05830 0.37460 0.13330 -0.00500
C 	C 	0.05930 0.36440 0.25730 -0.32800
H 	H 	0.12800 0.35030 0.28270 0.15700
C 	C 	0.86940 0.41430 0.03410 0.45300
