data_crystal

_cell_length_a 9.63000
_cell_length_b 10.09160
_cell_length_c 11.73350
_cell_angle_alpha 87.95800
_cell_angle_beta  67.63800
_cell_angle_gamma 68.18100

_symmetry_space_group_name_	'P 1'
_symmetry_space_group_name_H-M	'P 1'

loop_
_symmetry_equiv_pos_as_xyz
  x,y,z

loop_
_atom_site_label
_atom_site_type_symbol
_atom_site_fract_x
_atom_site_fract_y
_atom_site_fract_z
_atom_site_charge
Pr	Pr	0.29076 0.96267 0.02245 2.06400
O 	O 	0.47650 0.17290 0.17300 -0.47100
O 	O 	0.25350 0.14230 0.18360 -0.47000
O 	O 	0.54930 0.27980 0.93120 -0.45900
O 	O 	0.44220 0.12180 0.92500 -0.62500
O 	O 	0.16930 0.79880 -0.00000 -0.44500
O 	O 	0.98350 0.86120 0.91820 -0.54300
N 	N 	0.09480 0.34740 0.61070 -0.11900
C 	C 	0.43910 0.24740 0.91820 0.36900
C 	C 	0.30700 0.36330 0.89240 -0.15700
C 	C 	0.22390 0.32550 0.83380 0.00900
C 	C 	0.10250 0.43130 0.80850 -0.04300
C 	C 	0.06060 0.57610 0.84200 0.05200
C 	C 	0.14320 0.61330 0.90280 -0.16200
C 	C 	0.26530 0.50730 0.92870 0.08800
C 	C 	0.09440 0.76940 0.94310 0.36700
C 	C 	0.00710 0.38970 0.74770 0.02200
C 	C 	0.24750 0.33810 0.54710 0.03500
C 	C 	0.32460 0.28900 0.42050 0.02700
C 	C 	0.24670 0.24720 0.36240 -0.11200
C 	C 	0.08640 0.26040 0.42870 0.02800
C 	C 	0.01150 0.31210 0.55460 0.03100
C 	C 	0.33640 0.18080 0.22580 0.43400
Pr	Pr	0.70924 0.03733 0.97755 2.01600
O 	O 	0.52350 0.82710 0.82700 -0.52100
O 	O 	0.74650 0.85770 0.81640 -0.50500
O 	O 	0.45070 0.72020 0.06880 -0.40700
O 	O 	0.55780 0.87820 0.07500 -0.57000
O 	O 	0.83070 0.20120 -0.00000 -0.47200
O 	O 	0.01650 0.13880 0.08180 -0.49100
N 	N 	0.90520 0.65260 0.38930 -0.12200
C 	C 	0.56090 0.75260 0.08180 0.37800
C 	C 	0.69300 0.63670 0.10760 -0.15200
C 	C 	0.77610 0.67450 0.16620 0.03800
C 	C 	0.89750 0.56870 0.19150 -0.04100
C 	C 	0.93940 0.42390 0.15800 0.07200
C 	C 	0.85680 0.38670 0.09720 -0.16800
C 	C 	0.73470 0.49270 0.07130 0.14700
C 	C 	0.90560 0.23060 0.05690 0.42200
C 	C 	0.99290 0.61030 0.25230 0.03900
C 	C 	0.75250 0.66190 0.45290 0.03200
C 	C 	0.67540 0.71100 0.57950 0.02200
C 	C 	0.75330 0.75280 0.63760 -0.11800
C 	C 	0.91360 0.73960 0.57130 0.01900
C 	C 	0.98850 0.68790 0.44540 0.02500
C 	C 	0.66360 0.81920 0.77420 0.43700
