data_crystal

_cell_length_a 18.62800
_cell_length_b 6.87420
_cell_length_c 19.10100
_cell_angle_alpha 90.00000
_cell_angle_beta  118.77000
_cell_angle_gamma 90.00000

_symmetry_space_group_name_	'P 1'
_symmetry_space_group_name_H-M	'P 1'

loop_
_symmetry_equiv_pos_as_xyz
  x,y,z

loop_
_atom_site_label
_atom_site_type_symbol
_atom_site_fract_x
_atom_site_fract_y
_atom_site_fract_z
_atom_site_charge
O 	O 	0.99156 0.38635 0.39640 -0.24200
O 	O 	0.06342 0.32720 0.33384 -0.44000
O 	O 	0.42018 0.58170 0.60160 -0.43900
O 	O 	0.36287 0.47100 0.47716 -0.30800
N 	N 	0.12275 0.52270 0.52456 -0.23800
C 	C 	0.13299 0.46270 0.46297 -0.02300
C 	C 	0.20789 0.46280 0.46526 -0.01100
H 	H 	0.21250 0.42170 0.42120 0.03400
C 	C 	0.27660 0.52500 0.53410 -0.08700
C 	C 	0.26621 0.58510 0.59769 -0.02600
H 	H 	0.31080 0.62720 0.64480 -0.00500
C 	C 	0.18875 0.58200 0.59040 0.02800
H 	H 	0.18240 0.62340 0.63350 -0.00400
C 	C 	0.05723 0.38680 0.39153 0.10000
C 	C 	0.35996 0.52540 0.53790 0.35600
O 	O 	0.49156 0.88635 0.39640 -0.44300
O 	O 	0.56342 0.82720 0.33384 -0.41700
O 	O 	0.92018 0.08170 0.60160 -0.38900
O 	O 	0.86287 0.97100 0.47716 -0.18900
N 	N 	0.62275 0.02270 0.52456 -0.24600
C 	C 	0.63299 0.96270 0.46297 -0.02800
C 	C 	0.70789 0.96280 0.46526 0.10100
H 	H 	0.71250 0.92170 0.42120 0.02100
C 	C 	0.77660 0.02500 0.53410 -0.16000
C 	C 	0.76621 0.08510 0.59769 -0.00400
H 	H 	0.81080 0.12720 0.64480 -0.01200
C 	C 	0.68875 0.08200 0.59040 -0.00100
H 	H 	0.68240 0.12340 0.63350 0.00300
C 	C 	0.55723 0.88680 0.39153 0.33200
C 	C 	0.85996 0.02540 0.53790 0.27400
O 	O 	0.00844 0.38635 0.10360 -0.68300
O 	O 	0.93658 0.32720 0.16616 -0.43500
O 	O 	0.57982 0.58170 0.89840 -0.44900
O 	O 	0.63713 0.47100 0.02284 -0.37100
N 	N 	0.87725 0.52270 0.97544 -0.12400
C 	C 	0.86701 0.46270 0.03703 -0.15100
C 	C 	0.79211 0.46280 0.03474 -0.01700
H 	H 	0.78750 0.42170 0.07880 0.03500
C 	C 	0.72340 0.52500 0.96590 -0.05400
C 	C 	0.73379 0.58510 0.90231 -0.01400
H 	H 	0.68920 0.62720 0.85520 -0.00600
C 	C 	0.81125 0.58200 0.90960 0.03300
H 	H 	0.81760 0.62340 0.86650 0.02200
C 	C 	0.94277 0.38680 0.10847 0.56200
C 	C 	0.64004 0.52540 0.96210 0.42700
O 	O 	0.50844 0.88635 0.10360 -0.45100
O 	O 	0.43658 0.82720 0.16616 -0.42000
O 	O 	0.07982 0.08170 0.89840 -0.52100
O 	O 	0.13713 0.97100 0.02284 -0.32500
N 	N 	0.37725 0.02270 0.97544 -0.20400
C 	C 	0.36701 0.96270 0.03703 -0.06600
C 	C 	0.29211 0.96280 0.03474 0.04300
H 	H 	0.28750 0.92170 0.07880 0.03100
C 	C 	0.22340 0.02500 0.96590 -0.12500
C 	C 	0.23379 0.08510 0.90231 -0.00200
H 	H 	0.18920 0.12720 0.85520 -0.04300
C 	C 	0.31125 0.08200 0.90960 0.00400
H 	H 	0.31760 0.12340 0.86650 -0.00300
C 	C 	0.44277 0.88680 0.10847 0.33600
C 	C 	0.14004 0.02540 0.96210 0.37100
O 	O 	0.00844 0.61365 0.60360 -0.65700
O 	O 	0.93658 0.67280 0.66616 -0.40100
O 	O 	0.57982 0.41830 0.39840 -0.47200
O 	O 	0.63713 0.52900 0.52284 -0.29500
N 	N 	0.87725 0.47730 0.47544 -0.16200
C 	C 	0.86701 0.53730 0.53703 -0.11200
C 	C 	0.79211 0.53720 0.53474 0.06400
H 	H 	0.78750 0.57830 0.57880 0.03100
C 	C 	0.72340 0.47500 0.46590 -0.12400
C 	C 	0.73379 0.41490 0.40231 0.00200
H 	H 	0.68920 0.37280 0.35520 -0.03600
C 	C 	0.81125 0.41800 0.40960 0.00400
H 	H 	0.81760 0.37660 0.36650 0.00800
C 	C 	0.94277 0.61320 0.60847 0.56400
C 	C 	0.64004 0.47460 0.46210 0.36300
O 	O 	0.50844 0.11365 0.60360 -0.48000
O 	O 	0.43658 0.17280 0.66616 -0.43400
O 	O 	0.07982 0.91830 0.39840 -0.50300
O 	O 	0.13713 0.02900 0.52284 -0.40600
N 	N 	0.37725 0.97730 0.47544 -0.16800
C 	C 	0.36701 0.03730 0.53703 -0.11200
C 	C 	0.29211 0.03720 0.53474 -0.05000
H 	H 	0.28750 0.07830 0.57880 0.04400
C 	C 	0.22340 0.97500 0.46590 -0.04400
C 	C 	0.23379 0.91490 0.40231 -0.02400
H 	H 	0.18920 0.87280 0.35520 -0.02100
C 	C 	0.31125 0.91800 0.40960 0.03600
H 	H 	0.31760 0.87660 0.36650 -0.00200
C 	C 	0.44277 0.11320 0.60847 0.33500
C 	C 	0.14004 0.97460 0.46210 0.44000
O 	O 	0.99156 0.61365 0.89640 -0.20800
O 	O 	0.06342 0.67280 0.83384 -0.40600
O 	O 	0.42018 0.41830 0.10160 -0.46200
O 	O 	0.36287 0.52900 0.97716 -0.23200
N 	N 	0.12275 0.47730 0.02456 -0.27100
C 	C 	0.13299 0.53730 0.96297 0.01800
C 	C 	0.20789 0.53720 0.96526 0.06900
H 	H 	0.21250 0.57830 0.92120 0.02900
C 	C 	0.27660 0.47500 0.03410 -0.15700
C 	C 	0.26621 0.41490 0.09769 -0.01000
H 	H 	0.31080 0.37280 0.14480 -0.03500
C 	C 	0.18875 0.41800 0.09040 -0.00300
H 	H 	0.18240 0.37660 0.13350 -0.01600
C 	C 	0.05723 0.61320 0.89153 0.10100
C 	C 	0.35996 0.47460 0.03790 0.29200
O 	O 	0.49156 0.11365 0.89640 -0.46000
O 	O 	0.56342 0.17280 0.83384 -0.43100
O 	O 	0.92018 0.91830 0.10160 -0.36900
O 	O 	0.86287 0.02900 0.97716 -0.26700
N 	N 	0.62275 0.97730 0.02456 -0.20100
C 	C 	0.63299 0.03730 0.96297 -0.06900
C 	C 	0.70789 0.03720 0.96526 0.00600
H 	H 	0.71250 0.07830 0.92120 0.03500
C 	C 	0.77660 0.97500 0.03410 -0.07500
C 	C 	0.76621 0.91490 0.09769 -0.02700
H 	H 	0.81080 0.87280 0.14480 0.01100
C 	C 	0.68875 0.91800 0.09040 0.03300
H 	H 	0.68240 0.87660 0.13350 0.00500
C 	C 	0.55723 0.11320 0.89153 0.33000
C 	C 	0.85996 0.97460 0.03790 0.34700
Sr	Sr	0.00000 0.01264 0.25000 1.44700
Sr	Sr	0.50000 0.51264 0.25000 1.49400
Sr	Sr	0.00000 0.98736 0.75000 1.47700
Sr	Sr	0.50000 0.48736 0.75000 1.50100
Co	Co	0.00000 0.50000 0.50000 1.03300
Co	Co	0.50000 -0.00000 0.50000 1.08400
Co	Co	-0.00000 0.50000 -0.00000 1.00800
Co	Co	0.50000 0.00000 -0.00000 1.05400
