data_crystal

_cell_length_a 17.46110
_cell_length_b 17.46110
_cell_length_c 17.46110
_cell_angle_alpha 90.00000
_cell_angle_beta  90.00000
_cell_angle_gamma 90.00000

_symmetry_space_group_name_	'P 1'
_symmetry_space_group_name_H-M	'P 1'

loop_
_symmetry_equiv_pos_as_xyz
  x,y,z

loop_
_atom_site_label
_atom_site_type_symbol
_atom_site_fract_x
_atom_site_fract_y
_atom_site_fract_z
_atom_site_charge
Co	Co	0.14404 0.37903 0.01180 1.15600
C 	C 	0.73110 0.26770 0.96590 0.06700
H 	H 	0.71510 0.27070 0.91520 0.00500
C 	C 	0.74690 0.23180 0.08150 0.10900
H 	H 	0.74310 0.20320 0.12630 -0.03700
C 	C 	0.77910 0.31790 0.00120 -0.10700
C 	C 	0.81780 0.38680 0.97510 0.35200
C 	C 	0.26310 0.57220 0.07710 0.07700
H 	H 	0.26300 0.62280 0.09370 -0.01900
C 	C 	0.29990 0.46230 0.03760 0.09500
H 	H 	0.33170 0.42220 0.02270 -0.05100
C 	C 	0.19890 0.52770 0.06710 -0.12600
C 	C 	0.11840 0.53910 0.07520 0.39500
N 	N 	0.78780 0.29320 0.07550 -0.23700
N 	N 	0.71040 0.21330 0.01560 -0.25900
N 	N 	0.32620 0.53140 0.05920 -0.28900
N 	N 	0.22460 0.45710 0.03980 -0.23200
H 	H 	0.54950 0.51480 0.00240 0.10500
O 	O 	0.82060 0.40360 0.90610 -0.45700
O 	O 	0.84910 0.42830 0.02910 -0.51700
O 	O 	0.09190 0.59970 0.10180 -0.47600
O 	O 	0.07700 0.48130 0.05480 -0.53600
Co	Co	0.35596 0.62097 0.51180 1.15500
C 	C 	0.76890 0.73230 0.46590 0.06600
H 	H 	0.78490 0.72930 0.41520 0.00400
C 	C 	0.75310 0.76820 0.58150 0.10800
H 	H 	0.75690 0.79680 0.62630 -0.03700
C 	C 	0.72090 0.68210 0.50120 -0.10600
C 	C 	0.68220 0.61320 0.47510 0.35200
C 	C 	0.23690 0.42780 0.57710 0.07700
H 	H 	0.23700 0.37720 0.59370 -0.01900
C 	C 	0.20010 0.53770 0.53760 0.09500
H 	H 	0.16830 0.57780 0.52270 -0.05100
C 	C 	0.30110 0.47230 0.56710 -0.12600
C 	C 	0.38160 0.46090 0.57520 0.39500
N 	N 	0.71220 0.70680 0.57550 -0.23700
N 	N 	0.78960 0.78670 0.51560 -0.25900
N 	N 	0.17380 0.46860 0.55920 -0.28900
N 	N 	0.27540 0.54290 0.53980 -0.23200
H 	H 	0.95050 0.48520 0.50240 0.10500
O 	O 	0.67940 0.59640 0.40610 -0.45700
O 	O 	0.65090 0.57170 0.52910 -0.51700
O 	O 	0.40810 0.40030 0.60180 -0.47600
O 	O 	0.42300 0.51870 0.55480 -0.53500
Co	Co	0.85596 0.87903 0.48820 1.15500
C 	C 	0.26890 0.76770 0.53410 0.06600
H 	H 	0.28490 0.77070 0.58480 0.00400
C 	C 	0.25310 0.73180 0.41850 0.10800
H 	H 	0.25690 0.70320 0.37370 -0.03700
C 	C 	0.22090 0.81790 0.49880 -0.10600
C 	C 	0.18220 0.88680 0.52490 0.35200
C 	C 	0.73690 0.07220 0.42290 0.07700
H 	H 	0.73700 0.12280 0.40630 -0.01900
C 	C 	0.70010 0.96230 0.46240 0.09500
H 	H 	0.66830 0.92220 0.47730 -0.05100
C 	C 	0.80110 0.02770 0.43290 -0.12600
C 	C 	0.88160 0.03910 0.42480 0.39500
N 	N 	0.21220 0.79320 0.42450 -0.23700
N 	N 	0.28960 0.71330 0.48440 -0.25900
N 	N 	0.67380 0.03140 0.44080 -0.28900
N 	N 	0.77540 0.95710 0.46020 -0.23200
H 	H 	0.45050 0.01480 0.49760 0.10500
O 	O 	0.17940 0.90360 0.59390 -0.45700
O 	O 	0.15090 0.92830 0.47090 -0.51700
O 	O 	0.90810 0.09970 0.39820 -0.47500
O 	O 	0.92300 0.98130 0.44520 -0.53600
Co	Co	0.64404 0.12097 0.98820 1.15600
C 	C 	0.23110 0.23230 0.03410 0.06200
H 	H 	0.21510 0.22930 0.08480 0.00500
C 	C 	0.24690 0.26820 0.91850 0.10800
H 	H 	0.24310 0.29680 0.87370 -0.03700
C 	C 	0.27910 0.18210 0.99880 -0.10300
C 	C 	0.31780 0.11320 0.02490 0.34900
C 	C 	0.76310 0.92780 0.92290 0.07700
H 	H 	0.76300 0.87720 0.90630 -0.01900
C 	C 	0.79990 0.03770 0.96240 0.09600
H 	H 	0.83170 0.07780 0.97730 -0.05100
C 	C 	0.69890 0.97230 0.93290 -0.12600
C 	C 	0.61840 0.96090 0.92480 0.39400
N 	N 	0.28780 0.20680 0.92450 -0.23700
N 	N 	0.21040 0.28670 0.98440 -0.25800
N 	N 	0.82620 0.96860 0.94080 -0.29000
N 	N 	0.72460 0.04290 0.96020 -0.23100
H 	H 	0.04950 0.98520 0.99760 0.10700
O 	O 	0.32060 0.09640 0.09390 -0.45600
O 	O 	0.34910 0.07170 0.97090 -0.51500
O 	O 	0.59190 0.90030 0.89820 -0.47600
O 	O 	0.57700 0.01870 0.94520 -0.53500
Co	Co	0.01180 0.14404 0.37903 1.15500
C 	C 	0.96590 0.73110 0.26770 0.06600
H 	H 	0.91520 0.71510 0.27070 0.00400
C 	C 	0.08150 0.74690 0.23180 0.10800
H 	H 	0.12630 0.74310 0.20320 -0.03700
C 	C 	0.00120 0.77910 0.31790 -0.10700
C 	C 	0.97510 0.81780 0.38680 0.35200
C 	C 	0.07710 0.26310 0.57220 0.07700
H 	H 	0.09370 0.26300 0.62280 -0.01900
C 	C 	0.03760 0.29990 0.46230 0.09500
H 	H 	0.02270 0.33170 0.42220 -0.05100
C 	C 	0.06710 0.19890 0.52770 -0.12600
C 	C 	0.07520 0.11840 0.53910 0.39500
N 	N 	0.07550 0.78780 0.29320 -0.23700
N 	N 	0.01560 0.71040 0.21330 -0.25900
N 	N 	0.05920 0.32620 0.53140 -0.28900
N 	N 	0.03980 0.22460 0.45710 -0.23200
H 	H 	0.00240 0.54950 0.51480 0.10500
O 	O 	0.90610 0.82060 0.40360 -0.45700
O 	O 	0.02910 0.84910 0.42830 -0.51700
O 	O 	0.10180 0.09190 0.59970 -0.47600
O 	O 	0.05480 0.07700 0.48130 -0.53600
Co	Co	0.51180 0.35596 0.62097 1.15500
C 	C 	0.46590 0.76890 0.73230 0.06600
H 	H 	0.41520 0.78490 0.72930 0.00400
C 	C 	0.58150 0.75310 0.76820 0.10800
H 	H 	0.62630 0.75690 0.79680 -0.03700
C 	C 	0.50120 0.72090 0.68210 -0.10600
C 	C 	0.47510 0.68220 0.61320 0.35200
C 	C 	0.57710 0.23690 0.42780 0.07700
H 	H 	0.59370 0.23700 0.37720 -0.01900
C 	C 	0.53760 0.20010 0.53770 0.09500
H 	H 	0.52270 0.16830 0.57780 -0.05100
C 	C 	0.56710 0.30110 0.47230 -0.12600
C 	C 	0.57520 0.38160 0.46090 0.39500
N 	N 	0.57550 0.71220 0.70680 -0.23700
N 	N 	0.51560 0.78960 0.78670 -0.25900
N 	N 	0.55920 0.17380 0.46860 -0.28900
N 	N 	0.53980 0.27540 0.54290 -0.23200
H 	H 	0.50240 0.95050 0.48520 0.10500
O 	O 	0.40610 0.67940 0.59640 -0.45700
O 	O 	0.52910 0.65090 0.57170 -0.51700
O 	O 	0.60180 0.40810 0.40030 -0.47600
O 	O 	0.55480 0.42300 0.51870 -0.53500
Co	Co	0.48820 0.85596 0.87903 1.15500
C 	C 	0.53410 0.26890 0.76770 0.06600
H 	H 	0.58480 0.28490 0.77070 0.00400
C 	C 	0.41850 0.25310 0.73180 0.10800
H 	H 	0.37370 0.25690 0.70320 -0.03700
C 	C 	0.49880 0.22090 0.81790 -0.10600
C 	C 	0.52490 0.18220 0.88680 0.35200
C 	C 	0.42290 0.73690 0.07220 0.07700
H 	H 	0.40630 0.73700 0.12280 -0.01900
C 	C 	0.46240 0.70010 0.96230 0.09500
H 	H 	0.47730 0.66830 0.92220 -0.05100
C 	C 	0.43290 0.80110 0.02770 -0.12600
C 	C 	0.42480 0.88160 0.03910 0.39500
N 	N 	0.42450 0.21220 0.79320 -0.23700
N 	N 	0.48440 0.28960 0.71330 -0.25900
N 	N 	0.44080 0.67380 0.03140 -0.28900
N 	N 	0.46020 0.77540 0.95710 -0.23200
H 	H 	0.49760 0.45050 0.01480 0.10500
O 	O 	0.59390 0.17940 0.90360 -0.45700
O 	O 	0.47090 0.15090 0.92830 -0.51700
O 	O 	0.39820 0.90810 0.09970 -0.47500
O 	O 	0.44520 0.92300 0.98130 -0.53600
Co	Co	0.98820 0.64404 0.12097 1.15600
C 	C 	0.03410 0.23110 0.23230 0.06200
H 	H 	0.08480 0.21510 0.22930 0.00500
C 	C 	0.91850 0.24690 0.26820 0.10800
H 	H 	0.87370 0.24310 0.29680 -0.03700
C 	C 	0.99880 0.27910 0.18210 -0.10300
C 	C 	0.02490 0.31780 0.11320 0.34900
C 	C 	0.92290 0.76310 0.92780 0.07700
H 	H 	0.90630 0.76300 0.87720 -0.01900
C 	C 	0.96240 0.79990 0.03770 0.09600
H 	H 	0.97730 0.83170 0.07780 -0.05100
C 	C 	0.93290 0.69890 0.97230 -0.12600
C 	C 	0.92480 0.61840 0.96090 0.39400
N 	N 	0.92450 0.28780 0.20680 -0.23700
N 	N 	0.98440 0.21040 0.28670 -0.25800
N 	N 	0.94080 0.82620 0.96860 -0.29000
N 	N 	0.96020 0.72460 0.04290 -0.23100
H 	H 	0.99760 0.04950 0.98520 0.10700
O 	O 	0.09390 0.32060 0.09640 -0.45600
O 	O 	0.97090 0.34910 0.07170 -0.51500
O 	O 	0.89820 0.59190 0.90030 -0.47600
O 	O 	0.94520 0.57700 0.01870 -0.53500
Co	Co	0.37903 0.01180 0.14404 1.15500
C 	C 	0.26770 0.96590 0.73110 0.06600
H 	H 	0.27070 0.91520 0.71510 0.00400
C 	C 	0.23180 0.08150 0.74690 0.10800
H 	H 	0.20320 0.12630 0.74310 -0.03700
C 	C 	0.31790 0.00120 0.77910 -0.10700
C 	C 	0.38680 0.97510 0.81780 0.35200
C 	C 	0.57220 0.07710 0.26310 0.07700
H 	H 	0.62280 0.09370 0.26300 -0.01900
C 	C 	0.46230 0.03760 0.29990 0.09500
H 	H 	0.42220 0.02270 0.33170 -0.05100
C 	C 	0.52770 0.06710 0.19890 -0.12600
C 	C 	0.53910 0.07520 0.11840 0.39500
N 	N 	0.29320 0.07550 0.78780 -0.23700
N 	N 	0.21330 0.01560 0.71040 -0.25900
N 	N 	0.53140 0.05920 0.32620 -0.28900
N 	N 	0.45710 0.03980 0.22460 -0.23200
H 	H 	0.51480 0.00240 0.54950 0.10500
O 	O 	0.40360 0.90610 0.82060 -0.45700
O 	O 	0.42830 0.02910 0.84910 -0.51700
O 	O 	0.59970 0.10180 0.09190 -0.47600
O 	O 	0.48130 0.05480 0.07700 -0.53600
Co	Co	0.62097 0.51180 0.35596 1.15500
C 	C 	0.73230 0.46590 0.76890 0.06600
H 	H 	0.72930 0.41520 0.78490 0.00400
C 	C 	0.76820 0.58150 0.75310 0.10800
H 	H 	0.79680 0.62630 0.75690 -0.03700
C 	C 	0.68210 0.50120 0.72090 -0.10600
C 	C 	0.61320 0.47510 0.68220 0.35200
C 	C 	0.42780 0.57710 0.23690 0.07700
H 	H 	0.37720 0.59370 0.23700 -0.01900
C 	C 	0.53770 0.53760 0.20010 0.09500
H 	H 	0.57780 0.52270 0.16830 -0.05100
C 	C 	0.47230 0.56710 0.30110 -0.12600
C 	C 	0.46090 0.57520 0.38160 0.39500
N 	N 	0.70680 0.57550 0.71220 -0.23700
N 	N 	0.78670 0.51560 0.78960 -0.25900
N 	N 	0.46860 0.55920 0.17380 -0.28900
N 	N 	0.54290 0.53980 0.27540 -0.23200
H 	H 	0.48520 0.50240 0.95050 0.10500
O 	O 	0.59640 0.40610 0.67940 -0.45700
O 	O 	0.57170 0.52910 0.65090 -0.51700
O 	O 	0.40030 0.60180 0.40810 -0.47600
O 	O 	0.51870 0.55480 0.42300 -0.53500
Co	Co	0.87903 0.48820 0.85596 1.15500
C 	C 	0.76770 0.53410 0.26890 0.06600
H 	H 	0.77070 0.58480 0.28490 0.00400
C 	C 	0.73180 0.41850 0.25310 0.10800
H 	H 	0.70320 0.37370 0.25690 -0.03700
C 	C 	0.81790 0.49880 0.22090 -0.10600
C 	C 	0.88680 0.52490 0.18220 0.35200
C 	C 	0.07220 0.42290 0.73690 0.07700
H 	H 	0.12280 0.40630 0.73700 -0.01900
C 	C 	0.96230 0.46240 0.70010 0.09500
H 	H 	0.92220 0.47730 0.66830 -0.05100
C 	C 	0.02770 0.43290 0.80110 -0.12600
C 	C 	0.03910 0.42480 0.88160 0.39500
N 	N 	0.79320 0.42450 0.21220 -0.23700
N 	N 	0.71330 0.48440 0.28960 -0.25900
N 	N 	0.03140 0.44080 0.67380 -0.28900
N 	N 	0.95710 0.46020 0.77540 -0.23200
H 	H 	0.01480 0.49760 0.45050 0.10500
O 	O 	0.90360 0.59390 0.17940 -0.45700
O 	O 	0.92830 0.47090 0.15090 -0.51700
O 	O 	0.09970 0.39820 0.90810 -0.47500
O 	O 	0.98130 0.44520 0.92300 -0.53600
Co	Co	0.12097 0.98820 0.64404 1.15600
C 	C 	0.23230 0.03410 0.23110 0.06200
H 	H 	0.22930 0.08480 0.21510 0.00500
C 	C 	0.26820 0.91850 0.24690 0.10800
H 	H 	0.29680 0.87370 0.24310 -0.03700
C 	C 	0.18210 0.99880 0.27910 -0.10300
C 	C 	0.11320 0.02490 0.31780 0.34900
C 	C 	0.92780 0.92290 0.76310 0.07700
H 	H 	0.87720 0.90630 0.76300 -0.01900
C 	C 	0.03770 0.96240 0.79990 0.09600
H 	H 	0.07780 0.97730 0.83170 -0.05100
C 	C 	0.97230 0.93290 0.69890 -0.12600
C 	C 	0.96090 0.92480 0.61840 0.39400
N 	N 	0.20680 0.92450 0.28780 -0.23700
N 	N 	0.28670 0.98440 0.21040 -0.25800
N 	N 	0.96860 0.94080 0.82620 -0.29000
N 	N 	0.04290 0.96020 0.72460 -0.23100
H 	H 	0.98520 0.99760 0.04950 0.10700
O 	O 	0.09640 0.09390 0.32060 -0.45600
O 	O 	0.07170 0.97090 0.34910 -0.51500
O 	O 	0.90030 0.89820 0.59190 -0.47600
O 	O 	0.01870 0.94520 0.57700 -0.53500
Co	Co	0.43604 0.56396 0.06396 1.09600
N 	N 	0.50110 0.49890 0.99890 -0.46300
Co	Co	0.06396 0.43604 0.56396 1.09600
N 	N 	0.99890 0.50110 0.49890 -0.46300
Co	Co	0.56396 0.06396 0.43604 1.09600
N 	N 	0.49890 0.99890 0.50110 -0.46300
Co	Co	0.93604 0.93604 0.93604 1.09600
N 	N 	0.00110 0.00110 0.00110 -0.46800
Co	Co	0.96325 0.46325 0.03675 1.19000
Co	Co	0.86090 0.36090 0.13910 1.12800
Co	Co	0.53675 0.53675 0.53675 1.18900
Co	Co	0.63910 0.63910 0.63910 1.12800
Co	Co	0.03675 0.96325 0.46325 1.19000
Co	Co	0.13910 0.86090 0.36090 1.12800
Co	Co	0.46325 0.03675 0.96325 1.19000
Co	Co	0.36090 0.13910 0.86090 1.12800
