data_crystal

_cell_length_a 17.52790
_cell_length_b 17.52790
_cell_length_c 17.52790
_cell_angle_alpha 90.00000
_cell_angle_beta  90.00000
_cell_angle_gamma 90.00000

_symmetry_space_group_name_	'P 1'
_symmetry_space_group_name_H-M	'P 1'

loop_
_symmetry_equiv_pos_as_xyz
  x,y,z

loop_
_atom_site_label
_atom_site_type_symbol
_atom_site_fract_x
_atom_site_fract_y
_atom_site_fract_z
_atom_site_charge
Co	Co	0.87133 0.10553 0.23826 1.15300
N 	N 	0.79240 0.02570 0.21110 -0.23600
O 	O 	0.76964 0.17342 0.19427 -0.54400
N 	N 	0.96180 0.03730 0.26530 -0.26000
O 	O 	0.93080 0.15590 0.15410 -0.45400
O 	O 	0.85460 0.15220 0.34035 -0.48200
C 	C 	0.78520 0.95190 0.21460 0.09500
C 	C 	0.72310 0.05200 0.18120 -0.12100
C 	C 	0.71280 0.13430 0.17320 0.40000
C 	C 	0.01800 0.01810 0.21560 0.05000
C 	C 	0.97980 0.00050 0.32910 0.10800
C 	C 	0.93140 0.22540 0.13810 0.34800
N 	N 	0.71810 0.92550 0.19040 -0.29500
H 	H 	0.82540 0.91950 0.23380 -0.05800
C 	C 	0.67840 0.98910 0.16860 0.06700
O 	O 	0.90124 0.27904 0.17816 -0.52000
C 	C 	0.06750 0.97020 0.25110 -0.09500
H 	H 	0.02220 0.03320 0.16630 0.00800
N 	N 	0.04290 0.95970 0.32470 -0.23900
H 	H 	0.95150 0.00170 0.37430 -0.03900
H 	H 	0.63020 0.99020 0.15110 -0.01800
Co	Co	0.62867 0.89447 0.73826 1.15400
N 	N 	0.70760 0.97430 0.71110 -0.23500
O 	O 	0.73036 0.82658 0.69427 -0.54300
N 	N 	0.53820 0.96270 0.76530 -0.25900
O 	O 	0.56920 0.84410 0.65410 -0.45300
O 	O 	0.64540 0.84780 0.84035 -0.48100
C 	C 	0.71480 0.04810 0.71460 0.09600
C 	C 	0.77690 0.94800 0.68120 -0.12000
C 	C 	0.78720 0.86570 0.67320 0.40000
C 	C 	0.48200 0.98190 0.71560 0.05100
C 	C 	0.52020 0.99950 0.82910 0.10700
C 	C 	0.56860 0.77460 0.63810 0.34900
N 	N 	0.78190 0.07450 0.69040 -0.29500
H 	H 	0.67460 0.08050 0.73380 -0.05800
C 	C 	0.82160 0.01090 0.66860 0.06800
O 	O 	0.59876 0.72096 0.67816 -0.52000
C 	C 	0.43250 0.02980 0.75110 -0.09500
H 	H 	0.47780 0.96680 0.66630 0.00800
N 	N 	0.45710 0.04030 0.82470 -0.23900
H 	H 	0.54850 0.99830 0.87430 -0.03900
H 	H 	0.86980 0.00980 0.65110 -0.01900
Co	Co	0.12867 0.60553 0.26174 1.15400
N 	N 	0.20760 0.52570 0.28890 -0.23500
O 	O 	0.23036 0.67342 0.30573 -0.54300
N 	N 	0.03820 0.53730 0.23470 -0.25900
O 	O 	0.06920 0.65590 0.34590 -0.45300
O 	O 	0.14540 0.65220 0.15965 -0.48100
C 	C 	0.21480 0.45190 0.28540 0.09600
C 	C 	0.27690 0.55200 0.31880 -0.12000
C 	C 	0.28720 0.63430 0.32680 0.40000
C 	C 	0.98200 0.51810 0.28440 0.05100
C 	C 	0.02020 0.50050 0.17090 0.10700
C 	C 	0.06860 0.72540 0.36190 0.34900
N 	N 	0.28190 0.42550 0.30960 -0.29500
H 	H 	0.17460 0.41950 0.26620 -0.05800
C 	C 	0.32160 0.48910 0.33140 0.06800
O 	O 	0.09876 0.77904 0.32184 -0.52000
C 	C 	0.93250 0.47020 0.24890 -0.09500
H 	H 	0.97780 0.53320 0.33370 0.00700
N 	N 	0.95710 0.45970 0.17530 -0.23900
H 	H 	0.04850 0.50170 0.12570 -0.03900
H 	H 	0.36980 0.49020 0.34890 -0.01800
Co	Co	0.37133 0.39447 0.76174 1.15400
N 	N 	0.29240 0.47430 0.78890 -0.23500
O 	O 	0.26964 0.32658 0.80573 -0.54300
N 	N 	0.46180 0.46270 0.73470 -0.25900
O 	O 	0.43080 0.34410 0.84590 -0.45300
O 	O 	0.35460 0.34780 0.65965 -0.48100
C 	C 	0.28520 0.54810 0.78540 0.09600
C 	C 	0.22310 0.44800 0.81880 -0.12000
C 	C 	0.21280 0.36570 0.82680 0.40000
C 	C 	0.51800 0.48190 0.78440 0.05100
C 	C 	0.47980 0.49950 0.67090 0.10800
C 	C 	0.43140 0.27460 0.86190 0.34900
N 	N 	0.21810 0.57450 0.80960 -0.29500
H 	H 	0.32540 0.58050 0.76620 -0.05800
C 	C 	0.17840 0.51090 0.83140 0.06800
O 	O 	0.40124 0.22096 0.82184 -0.52000
C 	C 	0.56750 0.52980 0.74890 -0.09500
H 	H 	0.52220 0.46680 0.83370 0.00700
N 	N 	0.54290 0.54030 0.67530 -0.23900
H 	H 	0.45150 0.49830 0.62570 -0.03900
H 	H 	0.13020 0.50980 0.84890 -0.01800
Co	Co	0.23826 0.87133 0.10553 1.15400
N 	N 	0.21110 0.79240 0.02570 -0.23500
O 	O 	0.19427 0.76964 0.17342 -0.54300
N 	N 	0.26530 0.96180 0.03730 -0.25900
O 	O 	0.15410 0.93080 0.15590 -0.45300
O 	O 	0.34035 0.85460 0.15220 -0.48100
C 	C 	0.21460 0.78520 0.95190 0.09600
C 	C 	0.18120 0.72310 0.05200 -0.12000
C 	C 	0.17320 0.71280 0.13430 0.40000
C 	C 	0.21560 0.01800 0.01810 0.05000
C 	C 	0.32910 0.97980 0.00050 0.10800
C 	C 	0.13810 0.93140 0.22540 0.34800
N 	N 	0.19040 0.71810 0.92550 -0.29500
H 	H 	0.23380 0.82540 0.91950 -0.05800
C 	C 	0.16860 0.67840 0.98910 0.06700
O 	O 	0.17816 0.90124 0.27904 -0.52000
C 	C 	0.25110 0.06750 0.97020 -0.09500
H 	H 	0.16630 0.02220 0.03320 0.00800
N 	N 	0.32470 0.04290 0.95970 -0.23900
H 	H 	0.37430 0.95150 0.00170 -0.03900
H 	H 	0.15110 0.63020 0.99020 -0.01800
Co	Co	0.73826 0.62867 0.89447 1.15400
N 	N 	0.71110 0.70760 0.97430 -0.23500
O 	O 	0.69427 0.73036 0.82658 -0.54300
N 	N 	0.76530 0.53820 0.96270 -0.25900
O 	O 	0.65410 0.56920 0.84410 -0.45300
O 	O 	0.84035 0.64540 0.84780 -0.48100
C 	C 	0.71460 0.71480 0.04810 0.09600
C 	C 	0.68120 0.77690 0.94800 -0.12000
C 	C 	0.67320 0.78720 0.86570 0.40000
C 	C 	0.71560 0.48200 0.98190 0.05100
C 	C 	0.82910 0.52020 0.99950 0.10700
C 	C 	0.63810 0.56860 0.77460 0.34900
N 	N 	0.69040 0.78190 0.07450 -0.29500
H 	H 	0.73380 0.67460 0.08050 -0.05800
C 	C 	0.66860 0.82160 0.01090 0.06800
O 	O 	0.67816 0.59876 0.72096 -0.52000
C 	C 	0.75110 0.43250 0.02980 -0.09500
H 	H 	0.66630 0.47780 0.96680 0.00800
N 	N 	0.82470 0.45710 0.04030 -0.23900
H 	H 	0.87430 0.54850 0.99830 -0.03900
H 	H 	0.65110 0.86980 0.00980 -0.01900
Co	Co	0.26174 0.12867 0.60553 1.15400
N 	N 	0.28890 0.20760 0.52570 -0.23500
O 	O 	0.30573 0.23036 0.67342 -0.54300
N 	N 	0.23470 0.03820 0.53730 -0.25900
O 	O 	0.34590 0.06920 0.65590 -0.45300
O 	O 	0.15965 0.14540 0.65220 -0.48100
C 	C 	0.28540 0.21480 0.45190 0.09600
C 	C 	0.31880 0.27690 0.55200 -0.12000
C 	C 	0.32680 0.28720 0.63430 0.40000
C 	C 	0.28440 0.98200 0.51810 0.05100
C 	C 	0.17090 0.02020 0.50050 0.10700
C 	C 	0.36190 0.06860 0.72540 0.34900
N 	N 	0.30960 0.28190 0.42550 -0.29500
H 	H 	0.26620 0.17460 0.41950 -0.05800
C 	C 	0.33140 0.32160 0.48910 0.06800
O 	O 	0.32184 0.09876 0.77904 -0.52000
C 	C 	0.24890 0.93250 0.47020 -0.09500
H 	H 	0.33370 0.97780 0.53320 0.00700
N 	N 	0.17530 0.95710 0.45970 -0.23900
H 	H 	0.12570 0.04850 0.50170 -0.03900
H 	H 	0.34890 0.36980 0.49020 -0.01800
Co	Co	0.76174 0.37133 0.39447 1.15400
N 	N 	0.78890 0.29240 0.47430 -0.23500
O 	O 	0.80573 0.26964 0.32658 -0.54300
N 	N 	0.73470 0.46180 0.46270 -0.25900
O 	O 	0.84590 0.43080 0.34410 -0.45300
O 	O 	0.65965 0.35460 0.34780 -0.48100
C 	C 	0.78540 0.28520 0.54810 0.09600
C 	C 	0.81880 0.22310 0.44800 -0.12000
C 	C 	0.82680 0.21280 0.36570 0.40000
C 	C 	0.78440 0.51800 0.48190 0.05100
C 	C 	0.67090 0.47980 0.49950 0.10800
C 	C 	0.86190 0.43140 0.27460 0.34900
N 	N 	0.80960 0.21810 0.57450 -0.29500
H 	H 	0.76620 0.32540 0.58050 -0.05800
C 	C 	0.83140 0.17840 0.51090 0.06800
O 	O 	0.82184 0.40124 0.22096 -0.52000
C 	C 	0.74890 0.56750 0.52980 -0.09500
H 	H 	0.83370 0.52220 0.46680 0.00700
N 	N 	0.67530 0.54290 0.54030 -0.23900
H 	H 	0.62570 0.45150 0.49830 -0.03900
H 	H 	0.84890 0.13020 0.50980 -0.01800
Co	Co	0.10553 0.23826 0.87133 1.15400
N 	N 	0.02570 0.21110 0.79240 -0.23500
O 	O 	0.17342 0.19427 0.76964 -0.54300
N 	N 	0.03730 0.26530 0.96180 -0.25900
O 	O 	0.15590 0.15410 0.93080 -0.45300
O 	O 	0.15220 0.34035 0.85460 -0.48100
C 	C 	0.95190 0.21460 0.78520 0.09600
C 	C 	0.05200 0.18120 0.72310 -0.12000
C 	C 	0.13430 0.17320 0.71280 0.40000
C 	C 	0.01810 0.21560 0.01800 0.05000
C 	C 	0.00050 0.32910 0.97980 0.10800
C 	C 	0.22540 0.13810 0.93140 0.34800
N 	N 	0.92550 0.19040 0.71810 -0.29500
H 	H 	0.91950 0.23380 0.82540 -0.05800
C 	C 	0.98910 0.16860 0.67840 0.06700
O 	O 	0.27904 0.17816 0.90124 -0.52000
C 	C 	0.97020 0.25110 0.06750 -0.09500
H 	H 	0.03320 0.16630 0.02220 0.00800
N 	N 	0.95970 0.32470 0.04290 -0.23900
H 	H 	0.00170 0.37430 0.95150 -0.03900
H 	H 	0.99020 0.15110 0.63020 -0.01800
Co	Co	0.89447 0.73826 0.62867 1.15400
N 	N 	0.97430 0.71110 0.70760 -0.23500
O 	O 	0.82658 0.69427 0.73036 -0.54300
N 	N 	0.96270 0.76530 0.53820 -0.25900
O 	O 	0.84410 0.65410 0.56920 -0.45300
O 	O 	0.84780 0.84035 0.64540 -0.48100
C 	C 	0.04810 0.71460 0.71480 0.09600
C 	C 	0.94800 0.68120 0.77690 -0.12000
C 	C 	0.86570 0.67320 0.78720 0.40000
C 	C 	0.98190 0.71560 0.48200 0.05100
C 	C 	0.99950 0.82910 0.52020 0.10700
C 	C 	0.77460 0.63810 0.56860 0.34900
N 	N 	0.07450 0.69040 0.78190 -0.29500
H 	H 	0.08050 0.73380 0.67460 -0.05800
C 	C 	0.01090 0.66860 0.82160 0.06800
O 	O 	0.72096 0.67816 0.59876 -0.52000
C 	C 	0.02980 0.75110 0.43250 -0.09500
H 	H 	0.96680 0.66630 0.47780 0.00800
N 	N 	0.04030 0.82470 0.45710 -0.23900
H 	H 	0.99830 0.87430 0.54850 -0.03900
H 	H 	0.00980 0.65110 0.86980 -0.01900
Co	Co	0.60553 0.26174 0.12867 1.15400
N 	N 	0.52570 0.28890 0.20760 -0.23500
O 	O 	0.67342 0.30573 0.23036 -0.54300
N 	N 	0.53730 0.23470 0.03820 -0.25900
O 	O 	0.65590 0.34590 0.06920 -0.45300
O 	O 	0.65220 0.15965 0.14540 -0.48100
C 	C 	0.45190 0.28540 0.21480 0.09600
C 	C 	0.55200 0.31880 0.27690 -0.12000
C 	C 	0.63430 0.32680 0.28720 0.40000
C 	C 	0.51810 0.28440 0.98200 0.05100
C 	C 	0.50050 0.17090 0.02020 0.10700
C 	C 	0.72540 0.36190 0.06860 0.34900
N 	N 	0.42550 0.30960 0.28190 -0.29500
H 	H 	0.41950 0.26620 0.17460 -0.05800
C 	C 	0.48910 0.33140 0.32160 0.06800
O 	O 	0.77904 0.32184 0.09876 -0.52000
C 	C 	0.47020 0.24890 0.93250 -0.09500
H 	H 	0.53320 0.33370 0.97780 0.00700
N 	N 	0.45970 0.17530 0.95710 -0.23900
H 	H 	0.50170 0.12570 0.04850 -0.03900
H 	H 	0.49020 0.34890 0.36980 -0.01800
Co	Co	0.39447 0.76174 0.37133 1.15400
N 	N 	0.47430 0.78890 0.29240 -0.23500
O 	O 	0.32658 0.80573 0.26964 -0.54300
N 	N 	0.46270 0.73470 0.46180 -0.25900
O 	O 	0.34410 0.84590 0.43080 -0.45300
O 	O 	0.34780 0.65965 0.35460 -0.48100
C 	C 	0.54810 0.78540 0.28520 0.09600
C 	C 	0.44800 0.81880 0.22310 -0.12000
C 	C 	0.36570 0.82680 0.21280 0.40000
C 	C 	0.48190 0.78440 0.51800 0.05100
C 	C 	0.49950 0.67090 0.47980 0.10800
C 	C 	0.27460 0.86190 0.43140 0.34900
N 	N 	0.57450 0.80960 0.21810 -0.29500
H 	H 	0.58050 0.76620 0.32540 -0.05800
C 	C 	0.51090 0.83140 0.17840 0.06800
O 	O 	0.22096 0.82184 0.40124 -0.52000
C 	C 	0.52980 0.74890 0.56750 -0.09500
H 	H 	0.46680 0.83370 0.52220 0.00700
N 	N 	0.54030 0.67530 0.54290 -0.23900
H 	H 	0.49830 0.62570 0.45150 -0.03900
H 	H 	0.50980 0.84890 0.13020 -0.01800
Co	Co	0.78704 0.28704 0.21296 1.18800
Co	Co	0.88895 0.38895 0.11105 1.12800
Co	Co	0.71296 0.71296 0.71296 1.18800
Co	Co	0.61105 0.61105 0.61105 1.12800
Co	Co	0.21296 0.78704 0.28704 1.18800
Co	Co	0.11105 0.88895 0.38895 1.12800
Co	Co	0.28704 0.21296 0.78704 1.18800
Co	Co	0.38895 0.11105 0.88895 1.12800
Co	Co	0.68409 0.81591 0.18409 1.05500
Co	Co	0.81591 0.18409 0.68409 1.05500
Co	Co	0.31591 0.31591 0.31591 1.05500
Co	Co	0.18409 0.68409 0.81591 1.05500
