data_crystal

_cell_length_a 19.67860
_cell_length_b 22.77030
_cell_length_c 14.83440
_cell_angle_alpha 90.00000
_cell_angle_beta  104.14700
_cell_angle_gamma 90.00000

_symmetry_space_group_name_	'P 1'
_symmetry_space_group_name_H-M	'P 1'

loop_
_symmetry_equiv_pos_as_xyz
  x,y,z

loop_
_atom_site_label
_atom_site_type_symbol
_atom_site_fract_x
_atom_site_fract_y
_atom_site_fract_z
_atom_site_charge
Mn	Mn	0.03055 0.56962 0.53378 1.28700
Mn	Mn	0.05714 0.56069 0.78814 1.23900
O 	O 	0.03715 0.47835 0.58640 -0.57400
O 	O 	0.09472 0.48328 0.73610 -0.48200
O 	O 	0.17863 0.39166 0.72260 -0.25700
O 	O 	0.87964 0.45045 0.51640 -0.45000
O 	O 	0.89170 0.39300 0.64130 -0.30700
O 	O 	0.78568 0.45090 0.69070 -0.28000
O 	O 	0.93947 0.90900 0.08170 -0.49900
O 	O 	0.95240 0.93560 0.22730 -0.54900
O 	O 	0.09510 0.89191 0.15970 -0.54900
O 	O 	0.15790 0.89330 0.30320 -0.47400
O 	O 	0.19978 0.83328 0.10580 -0.28300
O 	O 	0.80262 0.89089 0.06370 -0.25500
C 	C 	0.08220 0.45970 0.65820 0.42200
C 	C 	0.12230 0.40540 0.64290 -0.21300
H 	H 	0.09030 0.37230 0.62970 0.08100
H 	H 	0.14150 0.41140 0.58930 0.10500
C 	C 	0.23670 0.42610 0.73740 0.47200
C 	C 	0.29080 0.41050 0.81330 -0.58400
H 	H 	0.28500 0.37880 0.85030 0.22000
C 	C 	0.35320 0.44180 0.83440 0.53900
C 	C 	0.36110 0.48931 0.77770 -0.47600
C 	C 	0.30710 0.50420 0.70220 0.56700
C 	C 	0.24460 0.47340 0.68150 -0.59600
H 	H 	0.20840 0.48410 0.63110 0.24200
C 	C 	0.31560 0.55360 0.63720 -1.10600
H 	H 	0.27020 0.56650 0.60270 0.36400
H 	H 	0.34190 0.53980 0.59480 0.33900
H 	H 	0.33990 0.58580 0.67280 0.35900
C 	C 	0.41160 0.42270 0.91420 -1.07400
H 	H 	0.43310 0.45650 0.94800 0.33200
H 	H 	0.44590 0.40140 0.89100 0.32000
H 	H 	0.39320 0.39770 0.95480 0.33200
C 	C 	0.42620 0.52635 0.79960 0.21500
C 	C 	0.48570 0.50820 0.77460 -0.32000
H 	H 	0.48510 0.47200 0.74550 0.11600
C 	C 	0.54670 0.54120 0.79040 0.21800
C 	C 	0.54830 0.59670 0.83320 -0.11000
C 	C 	0.48810 0.61630 0.86120 0.02200
C 	C 	0.42660 0.58052 0.84420 -0.10800
C 	C 	0.36690 0.60160 0.87440 -0.04800
H 	H 	0.32650 0.57870 0.86350 0.03800
C 	C 	0.36790 0.65410 0.91860 -0.04300
H 	H 	0.32840 0.66630 0.93740 0.03100
C 	C 	0.42880 0.69103 0.93670 -0.11400
C 	C 	0.48870 0.67160 0.90810 0.02000
C 	C 	0.55060 0.70690 0.92570 -0.11100
C 	C 	0.60970 0.68600 0.89520 -0.05100
H 	H 	0.65020 0.70870 0.90610 0.03000
C 	C 	0.60830 0.63390 0.85070 -0.04800
H 	H 	0.64750 0.62210 0.83100 0.03200
C 	C 	0.55150 0.76040 0.97430 0.21200
C 	C 	0.49200 0.77800 0.00090 -0.32400
H 	H 	0.49310 0.81360 0.03180 0.11800
C 	C 	0.43060 0.74490 0.98400 0.22000
C 	C 	0.31170 0.80520 0.85630 -1.12300
H 	H 	0.26530 0.81630 0.82310 0.35900
H 	H 	0.32510 0.76980 0.83020 0.34500
H 	H 	0.34400 0.83610 0.85150 0.34500
C 	C 	0.36940 0.76710 0.01760 -0.49100
C 	C 	0.36950 0.76110 0.10990 0.55500
C 	C 	0.42980 0.73190 0.17700 -1.04800
H 	H 	0.42330 0.73490 0.23900 0.31500
H 	H 	0.47280 0.75080 0.17420 0.31800
H 	H 	0.43170 0.69120 0.16070 0.31300
C 	C 	0.31340 0.78330 0.14200 -0.59400
H 	H 	0.31390 0.78080 0.20470 0.21000
C 	C 	0.25700 0.80920 0.08010 0.48700
C 	C 	0.25750 0.81530 0.98960 -0.63800
H 	H 	0.21980 0.83330 0.94880 0.25900
C 	C 	0.31310 0.79520 0.95700 0.59600
C 	C 	0.20500 0.83750 0.20150 -0.16100
H 	H 	0.25070 0.85280 0.23250 0.07200
H 	H 	0.20020 0.79880 0.22650 0.06900
C 	C 	0.14820 0.87790 0.22020 0.39900
C 	C 	0.61650 0.79600 0.00010 -0.45300
C 	C 	0.63490 0.83430 0.93590 0.54000
C 	C 	0.69710 0.86550 0.96100 -0.57600
H 	H 	0.70950 0.89060 0.91820 0.23000
C 	C 	0.74130 0.85980 0.04950 0.45500
C 	C 	0.72270 0.82350 0.11390 -0.56000
H 	H 	0.75180 0.82040 0.17340 0.21200
C 	C 	0.66050 0.79120 0.09020 0.52300
C 	C 	0.64180 0.75220 0.16240 -1.04600
H 	H 	0.68300 0.74470 0.21100 0.32500
H 	H 	0.62330 0.71580 0.13430 0.32000
H 	H 	0.60730 0.77140 0.18790 0.31100
C 	C 	0.58710 0.84280 0.84150 -1.06300
H 	H 	0.60490 0.87370 0.80970 0.32500
H 	H 	0.54110 0.85310 0.84770 0.31800
H 	H 	0.58460 0.80710 0.80650 0.32100
C 	C 	0.84600 0.89260 0.15450 -0.18900
H 	H 	0.84890 0.85370 0.18190 0.07300
H 	H 	0.82590 0.91890 0.19250 0.09500
C 	C 	0.91970 0.91400 0.15270 0.47000
C 	C 	0.60940 0.51820 0.76180 -0.47700
C 	C 	0.61940 0.53070 0.67380 0.57100
C 	C 	0.67830 0.50820 0.64800 -0.60200
H 	H 	0.68520 0.51660 0.58960 0.22500
C 	C 	0.72600 0.47360 0.70890 0.48800
C 	C 	0.71540 0.46120 0.79470 -0.61000
H 	H 	0.74740 0.43740 0.83500 0.22600
C 	C 	0.65810 0.48310 0.82300 0.56600
C 	C 	0.64850 0.46850 0.91760 -1.09900
H 	H 	0.68810 0.44640 0.95140 0.33800
H 	H 	0.60660 0.44570 0.91140 0.33600
H 	H 	0.64460 0.50420 0.95050 0.34100
C 	C 	0.56760 0.56710 0.60710 -1.10700
H 	H 	0.58200 0.57090 0.55010 0.33900
H 	H 	0.56490 0.60540 0.63330 0.34500
H 	H 	0.52240 0.54870 0.59500 0.33500
C 	C 	0.79590 0.46180 0.60100 -0.13600
H 	H 	0.79830 0.50380 0.59180 0.08800
H 	H 	0.75600 0.44670 0.55470 0.05500
C 	C 	0.86280 0.43310 0.58730 0.36000
Mn	Mn	0.96945 0.06962 0.96622 1.28300
Mn	Mn	0.94286 0.06069 0.71186 1.23600
O 	O 	0.96285 0.97835 0.91360 -0.57100
O 	O 	0.90528 0.98328 0.76390 -0.48000
O 	O 	0.82137 0.89166 0.77740 -0.25500
O 	O 	0.12036 0.95045 0.98360 -0.45000
O 	O 	0.10830 0.89300 0.85870 -0.30700
O 	O 	0.21432 0.95090 0.80930 -0.27900
O 	O 	0.06053 0.40900 0.41830 -0.50200
O 	O 	0.04760 0.43560 0.27270 -0.55300
O 	O 	0.90490 0.39191 0.34030 -0.54600
O 	O 	0.84210 0.39330 0.19680 -0.47200
O 	O 	0.80022 0.33328 0.39420 -0.28300
O 	O 	0.19738 0.39089 0.43630 -0.25500
C 	C 	0.91780 0.95970 0.84180 0.42100
C 	C 	0.87770 0.90540 0.85710 -0.21400
H 	H 	0.90970 0.87230 0.87030 0.08100
H 	H 	0.85850 0.91140 0.91070 0.10500
C 	C 	0.76330 0.92610 0.76260 0.46300
C 	C 	0.70920 0.91050 0.68670 -0.57400
H 	H 	0.71500 0.87880 0.64970 0.21600
C 	C 	0.64680 0.94180 0.66560 0.52800
C 	C 	0.63890 0.98931 0.72230 -0.46000
C 	C 	0.69290 0.00420 0.79780 0.54600
C 	C 	0.75540 0.97340 0.81850 -0.57800
H 	H 	0.79160 0.98410 0.86890 0.23700
C 	C 	0.68440 0.05360 0.86280 -1.08100
H 	H 	0.72980 0.06650 0.89730 0.35600
H 	H 	0.65810 0.03980 0.90520 0.33100
H 	H 	0.66010 0.08580 0.82720 0.35200
C 	C 	0.58840 0.92270 0.58580 -1.06200
H 	H 	0.56690 0.95650 0.55200 0.32800
H 	H 	0.55410 0.90140 0.60900 0.31700
H 	H 	0.60680 0.89770 0.54520 0.32800
C 	C 	0.57380 0.02635 0.70040 0.20900
C 	C 	0.51430 0.00820 0.72540 -0.32000
H 	H 	0.51490 0.97200 0.75450 0.11600
C 	C 	0.45330 0.04120 0.70960 0.21700
C 	C 	0.45170 0.09670 0.66680 -0.11000
C 	C 	0.51190 0.11630 0.63880 0.02200
C 	C 	0.57340 0.08052 0.65580 -0.10600
C 	C 	0.63310 0.10160 0.62560 -0.04800
H 	H 	0.67350 0.07870 0.63650 0.03700
C 	C 	0.63210 0.15410 0.58140 -0.04400
H 	H 	0.67160 0.16630 0.56260 0.03100
C 	C 	0.57120 0.19103 0.56330 -0.11100
C 	C 	0.51130 0.17160 0.59190 0.01800
C 	C 	0.44940 0.20690 0.57430 -0.10800
C 	C 	0.39030 0.18600 0.60480 -0.05300
H 	H 	0.34980 0.20870 0.59390 0.03100
C 	C 	0.39170 0.13390 0.64930 -0.04700
H 	H 	0.35250 0.12210 0.66900 0.03200
C 	C 	0.44850 0.26040 0.52570 0.20600
C 	C 	0.50800 0.27800 0.49910 -0.31600
H 	H 	0.50690 0.31360 0.46820 0.11600
C 	C 	0.56940 0.24490 0.51600 0.21300
C 	C 	0.68830 0.30520 0.64370 -1.11800
H 	H 	0.73470 0.31630 0.67690 0.35700
H 	H 	0.67490 0.26980 0.66980 0.34300
H 	H 	0.65600 0.33610 0.64850 0.34300
C 	C 	0.63060 0.26710 0.48240 -0.48400
C 	C 	0.63050 0.26110 0.39010 0.55300
C 	C 	0.57020 0.23190 0.32300 -1.04600
H 	H 	0.57670 0.23490 0.26100 0.31400
H 	H 	0.52720 0.25080 0.32580 0.31800
H 	H 	0.56830 0.19120 0.33930 0.31200
C 	C 	0.68660 0.28330 0.35800 -0.59400
H 	H 	0.68610 0.28080 0.29530 0.20900
C 	C 	0.74300 0.30920 0.41990 0.49000
C 	C 	0.74250 0.31530 0.51040 -0.64100
H 	H 	0.78020 0.33330 0.55120 0.25900
C 	C 	0.68690 0.29520 0.54300 0.59200
C 	C 	0.79500 0.33750 0.29850 -0.16000
H 	H 	0.74930 0.35280 0.26750 0.07200
H 	H 	0.79980 0.29880 0.27350 0.06900
C 	C 	0.85180 0.37790 0.27980 0.39900
C 	C 	0.38350 0.29600 0.49990 -0.44900
C 	C 	0.36510 0.33430 0.56410 0.53600
C 	C 	0.30290 0.36550 0.53900 -0.57400
H 	H 	0.29050 0.39060 0.58180 0.22900
C 	C 	0.25870 0.35980 0.45050 0.45400
C 	C 	0.27730 0.32350 0.38610 -0.55800
H 	H 	0.24820 0.32040 0.32660 0.21200
C 	C 	0.33950 0.29120 0.40980 0.52000
C 	C 	0.35820 0.25220 0.33760 -1.04300
H 	H 	0.31700 0.24470 0.28900 0.32400
H 	H 	0.37670 0.21580 0.36570 0.32000
H 	H 	0.39270 0.27140 0.31210 0.31000
C 	C 	0.41290 0.34280 0.65850 -1.05800
H 	H 	0.39510 0.37370 0.69030 0.32400
H 	H 	0.45890 0.35310 0.65230 0.31600
H 	H 	0.41540 0.30710 0.69350 0.32000
C 	C 	0.15400 0.39260 0.34550 -0.19000
H 	H 	0.15110 0.35370 0.31810 0.07300
H 	H 	0.17410 0.41890 0.30750 0.09500
C 	C 	0.08030 0.41400 0.34730 0.47000
C 	C 	0.39060 0.01820 0.73820 -0.47700
C 	C 	0.38060 0.03070 0.82620 0.57000
C 	C 	0.32170 0.00820 0.85200 -0.60000
H 	H 	0.31480 0.01660 0.91040 0.22400
C 	C 	0.27400 0.97360 0.79110 0.48700
C 	C 	0.28460 0.96120 0.70530 -0.61100
H 	H 	0.25260 0.93740 0.66500 0.22600
C 	C 	0.34190 0.98310 0.67700 0.56800
C 	C 	0.35150 0.96850 0.58240 -1.10800
H 	H 	0.31190 0.94640 0.54860 0.34100
H 	H 	0.39340 0.94570 0.58860 0.33900
H 	H 	0.35540 0.00420 0.54950 0.34600
C 	C 	0.43240 0.06710 0.89290 -1.10500
H 	H 	0.41800 0.07090 0.94990 0.33800
H 	H 	0.43510 0.10540 0.86670 0.34400
H 	H 	0.47760 0.04870 0.90500 0.33400
C 	C 	0.20410 0.96180 0.89900 -0.14100
H 	H 	0.20170 0.00380 0.90820 0.09000
H 	H 	0.24400 0.94670 0.94530 0.05800
C 	C 	0.13720 0.93310 0.91270 0.36100
Mn	Mn	0.96945 0.43038 0.46622 1.28700
Mn	Mn	0.94286 0.43931 0.21186 1.23900
O 	O 	0.96285 0.52165 0.41360 -0.57400
O 	O 	0.90528 0.51672 0.26390 -0.48200
O 	O 	0.82137 0.60834 0.27740 -0.25700
O 	O 	0.12036 0.54955 0.48360 -0.45000
O 	O 	0.10830 0.60700 0.35870 -0.30700
O 	O 	0.21432 0.54910 0.30930 -0.28000
O 	O 	0.06053 0.09100 0.91830 -0.49900
O 	O 	0.04760 0.06440 0.77270 -0.54900
O 	O 	0.90490 0.10809 0.84030 -0.54900
O 	O 	0.84210 0.10670 0.69680 -0.47400
O 	O 	0.80022 0.16672 0.89420 -0.28300
O 	O 	0.19738 0.10911 0.93630 -0.25500
C 	C 	0.91780 0.54030 0.34180 0.42200
C 	C 	0.87770 0.59460 0.35710 -0.21300
H 	H 	0.90970 0.62770 0.37030 0.08100
H 	H 	0.85850 0.58860 0.41070 0.10500
C 	C 	0.76330 0.57390 0.26260 0.47200
C 	C 	0.70920 0.58950 0.18670 -0.58400
H 	H 	0.71500 0.62120 0.14970 0.22000
C 	C 	0.64680 0.55820 0.16560 0.53900
C 	C 	0.63890 0.51069 0.22230 -0.47600
C 	C 	0.69290 0.49580 0.29780 0.56700
C 	C 	0.75540 0.52660 0.31850 -0.59600
H 	H 	0.79160 0.51590 0.36890 0.24200
C 	C 	0.68440 0.44640 0.36280 -1.10600
H 	H 	0.72980 0.43350 0.39730 0.36400
H 	H 	0.65810 0.46020 0.40520 0.33900
H 	H 	0.66010 0.41420 0.32720 0.35900
C 	C 	0.58840 0.57730 0.08580 -1.07400
H 	H 	0.56690 0.54350 0.05200 0.33200
H 	H 	0.55410 0.59860 0.10900 0.32000
H 	H 	0.60680 0.60230 0.04520 0.33200
C 	C 	0.57380 0.47365 0.20040 0.21500
C 	C 	0.51430 0.49180 0.22540 -0.32000
H 	H 	0.51490 0.52800 0.25450 0.11600
C 	C 	0.45330 0.45880 0.20960 0.21800
C 	C 	0.45170 0.40330 0.16680 -0.11000
C 	C 	0.51190 0.38370 0.13880 0.02200
C 	C 	0.57340 0.41948 0.15580 -0.10800
C 	C 	0.63310 0.39840 0.12560 -0.04800
H 	H 	0.67350 0.42130 0.13650 0.03800
C 	C 	0.63210 0.34590 0.08140 -0.04300
H 	H 	0.67160 0.33370 0.06260 0.03100
C 	C 	0.57120 0.30897 0.06330 -0.11400
C 	C 	0.51130 0.32840 0.09190 0.02000
C 	C 	0.44940 0.29310 0.07430 -0.11100
C 	C 	0.39030 0.31400 0.10480 -0.05100
H 	H 	0.34980 0.29130 0.09390 0.03000
C 	C 	0.39170 0.36610 0.14930 -0.04800
H 	H 	0.35250 0.37790 0.16900 0.03200
C 	C 	0.44850 0.23960 0.02570 0.21200
C 	C 	0.50800 0.22200 0.99910 -0.32400
H 	H 	0.50690 0.18640 0.96820 0.11800
C 	C 	0.56940 0.25510 0.01600 0.22000
C 	C 	0.68830 0.19480 0.14370 -1.12300
H 	H 	0.73470 0.18370 0.17690 0.35900
H 	H 	0.67490 0.23020 0.16980 0.34500
H 	H 	0.65600 0.16390 0.14850 0.34500
C 	C 	0.63060 0.23290 0.98240 -0.49100
C 	C 	0.63050 0.23890 0.89010 0.55500
C 	C 	0.57020 0.26810 0.82300 -1.04800
H 	H 	0.57670 0.26510 0.76100 0.31500
H 	H 	0.52720 0.24920 0.82580 0.31800
H 	H 	0.56830 0.30880 0.83930 0.31300
C 	C 	0.68660 0.21670 0.85800 -0.59400
H 	H 	0.68610 0.21920 0.79530 0.21000
C 	C 	0.74300 0.19080 0.91990 0.48700
C 	C 	0.74250 0.18470 0.01040 -0.63800
H 	H 	0.78020 0.16670 0.05120 0.25900
C 	C 	0.68690 0.20480 0.04300 0.59600
C 	C 	0.79500 0.16250 0.79850 -0.16100
H 	H 	0.74930 0.14720 0.76750 0.07200
H 	H 	0.79980 0.20120 0.77350 0.06900
C 	C 	0.85180 0.12210 0.77980 0.39900
C 	C 	0.38350 0.20400 0.99990 -0.45300
C 	C 	0.36510 0.16570 0.06410 0.54000
C 	C 	0.30290 0.13450 0.03900 -0.57600
H 	H 	0.29050 0.10940 0.08180 0.23000
C 	C 	0.25870 0.14020 0.95050 0.45500
C 	C 	0.27730 0.17650 0.88610 -0.56000
H 	H 	0.24820 0.17960 0.82660 0.21200
C 	C 	0.33950 0.20880 0.90980 0.52300
C 	C 	0.35820 0.24780 0.83760 -1.04600
H 	H 	0.31700 0.25530 0.78900 0.32500
H 	H 	0.37670 0.28420 0.86570 0.32000
H 	H 	0.39270 0.22860 0.81210 0.31100
C 	C 	0.41290 0.15720 0.15850 -1.06300
H 	H 	0.39510 0.12630 0.19030 0.32500
H 	H 	0.45890 0.14690 0.15230 0.31800
H 	H 	0.41540 0.19290 0.19350 0.32100
C 	C 	0.15400 0.10740 0.84550 -0.18900
H 	H 	0.15110 0.14630 0.81810 0.07300
H 	H 	0.17410 0.08110 0.80750 0.09500
C 	C 	0.08030 0.08600 0.84730 0.47000
C 	C 	0.39060 0.48180 0.23820 -0.47700
C 	C 	0.38060 0.46930 0.32620 0.57100
C 	C 	0.32170 0.49180 0.35200 -0.60200
H 	H 	0.31480 0.48340 0.41040 0.22500
C 	C 	0.27400 0.52640 0.29110 0.48800
C 	C 	0.28460 0.53880 0.20530 -0.61000
H 	H 	0.25260 0.56260 0.16500 0.22600
C 	C 	0.34190 0.51690 0.17700 0.56600
C 	C 	0.35150 0.53150 0.08240 -1.09900
H 	H 	0.31190 0.55360 0.04860 0.33800
H 	H 	0.39340 0.55430 0.08860 0.33600
H 	H 	0.35540 0.49580 0.04950 0.34100
C 	C 	0.43240 0.43290 0.39290 -1.10700
H 	H 	0.41800 0.42910 0.44990 0.33900
H 	H 	0.43510 0.39460 0.36670 0.34500
H 	H 	0.47760 0.45130 0.40500 0.33500
C 	C 	0.20410 0.53820 0.39900 -0.13600
H 	H 	0.20170 0.49620 0.40820 0.08800
H 	H 	0.24400 0.55330 0.44530 0.05500
C 	C 	0.13720 0.56690 0.41270 0.36000
Mn	Mn	0.03055 0.93038 0.03378 1.28300
Mn	Mn	0.05714 0.93931 0.28814 1.23600
O 	O 	0.03715 0.02165 0.08640 -0.57100
O 	O 	0.09472 0.01672 0.23610 -0.48000
O 	O 	0.17863 0.10834 0.22260 -0.25500
O 	O 	0.87964 0.04955 0.01640 -0.45000
O 	O 	0.89170 0.10700 0.14130 -0.30700
O 	O 	0.78568 0.04910 0.19070 -0.27900
O 	O 	0.93947 0.59100 0.58170 -0.50200
O 	O 	0.95240 0.56440 0.72730 -0.55300
O 	O 	0.09510 0.60809 0.65970 -0.54600
O 	O 	0.15790 0.60670 0.80320 -0.47200
O 	O 	0.19978 0.66672 0.60580 -0.28300
O 	O 	0.80262 0.60911 0.56370 -0.25500
C 	C 	0.08220 0.04030 0.15820 0.42100
C 	C 	0.12230 0.09460 0.14290 -0.21400
H 	H 	0.09030 0.12770 0.12970 0.08100
H 	H 	0.14150 0.08860 0.08930 0.10500
C 	C 	0.23670 0.07390 0.23740 0.46300
C 	C 	0.29080 0.08950 0.31330 -0.57400
H 	H 	0.28500 0.12120 0.35030 0.21600
C 	C 	0.35320 0.05820 0.33440 0.52800
C 	C 	0.36110 0.01069 0.27770 -0.46000
C 	C 	0.30710 0.99580 0.20220 0.54600
C 	C 	0.24460 0.02660 0.18150 -0.57800
H 	H 	0.20840 0.01590 0.13110 0.23700
C 	C 	0.31560 0.94640 0.13720 -1.08100
H 	H 	0.27020 0.93350 0.10270 0.35600
H 	H 	0.34190 0.96020 0.09480 0.33100
H 	H 	0.33990 0.91420 0.17280 0.35200
C 	C 	0.41160 0.07730 0.41420 -1.06200
H 	H 	0.43310 0.04350 0.44800 0.32800
H 	H 	0.44590 0.09860 0.39100 0.31700
H 	H 	0.39320 0.10230 0.45480 0.32800
C 	C 	0.42620 0.97365 0.29960 0.20900
C 	C 	0.48570 0.99180 0.27460 -0.32000
H 	H 	0.48510 0.02800 0.24550 0.11600
C 	C 	0.54670 0.95880 0.29040 0.21700
C 	C 	0.54830 0.90330 0.33320 -0.11000
C 	C 	0.48810 0.88370 0.36120 0.02200
C 	C 	0.42660 0.91948 0.34420 -0.10600
C 	C 	0.36690 0.89840 0.37440 -0.04800
H 	H 	0.32650 0.92130 0.36350 0.03700
C 	C 	0.36790 0.84590 0.41860 -0.04400
H 	H 	0.32840 0.83370 0.43740 0.03100
C 	C 	0.42880 0.80897 0.43670 -0.11100
C 	C 	0.48870 0.82840 0.40810 0.01800
C 	C 	0.55060 0.79310 0.42570 -0.10800
C 	C 	0.60970 0.81400 0.39520 -0.05300
H 	H 	0.65020 0.79130 0.40610 0.03100
C 	C 	0.60830 0.86610 0.35070 -0.04700
H 	H 	0.64750 0.87790 0.33100 0.03200
C 	C 	0.55150 0.73960 0.47430 0.20600
C 	C 	0.49200 0.72200 0.50090 -0.31600
H 	H 	0.49310 0.68640 0.53180 0.11600
C 	C 	0.43060 0.75510 0.48400 0.21300
C 	C 	0.31170 0.69480 0.35630 -1.11800
H 	H 	0.26530 0.68370 0.32310 0.35700
H 	H 	0.32510 0.73020 0.33020 0.34300
H 	H 	0.34400 0.66390 0.35150 0.34300
C 	C 	0.36940 0.73290 0.51760 -0.48400
C 	C 	0.36950 0.73890 0.60990 0.55300
C 	C 	0.42980 0.76810 0.67700 -1.04600
H 	H 	0.42330 0.76510 0.73900 0.31400
H 	H 	0.47280 0.74920 0.67420 0.31800
H 	H 	0.43170 0.80880 0.66070 0.31200
C 	C 	0.31340 0.71670 0.64200 -0.59400
H 	H 	0.31390 0.71920 0.70470 0.20900
C 	C 	0.25700 0.69080 0.58010 0.49000
C 	C 	0.25750 0.68470 0.48960 -0.64100
H 	H 	0.21980 0.66670 0.44880 0.25900
C 	C 	0.31310 0.70480 0.45700 0.59200
C 	C 	0.20500 0.66250 0.70150 -0.16000
H 	H 	0.25070 0.64720 0.73250 0.07200
H 	H 	0.20020 0.70120 0.72650 0.06900
C 	C 	0.14820 0.62210 0.72020 0.39900
C 	C 	0.61650 0.70400 0.50010 -0.44900
C 	C 	0.63490 0.66570 0.43590 0.53600
C 	C 	0.69710 0.63450 0.46100 -0.57400
H 	H 	0.70950 0.60940 0.41820 0.22900
C 	C 	0.74130 0.64020 0.54950 0.45400
C 	C 	0.72270 0.67650 0.61390 -0.55800
H 	H 	0.75180 0.67960 0.67340 0.21200
C 	C 	0.66050 0.70880 0.59020 0.52000
C 	C 	0.64180 0.74780 0.66240 -1.04300
H 	H 	0.68300 0.75530 0.71100 0.32400
H 	H 	0.62330 0.78420 0.63430 0.32000
H 	H 	0.60730 0.72860 0.68790 0.31000
C 	C 	0.58710 0.65720 0.34150 -1.05800
H 	H 	0.60490 0.62630 0.30970 0.32400
H 	H 	0.54110 0.64690 0.34770 0.31600
H 	H 	0.58460 0.69290 0.30650 0.32000
C 	C 	0.84600 0.60740 0.65450 -0.19000
H 	H 	0.84890 0.64630 0.68190 0.07300
H 	H 	0.82590 0.58110 0.69250 0.09500
C 	C 	0.91970 0.58600 0.65270 0.47000
C 	C 	0.60940 0.98180 0.26180 -0.47700
C 	C 	0.61940 0.96930 0.17380 0.57000
C 	C 	0.67830 0.99180 0.14800 -0.60000
H 	H 	0.68520 0.98340 0.08960 0.22400
C 	C 	0.72600 0.02640 0.20890 0.48700
C 	C 	0.71540 0.03880 0.29470 -0.61100
H 	H 	0.74740 0.06260 0.33500 0.22600
C 	C 	0.65810 0.01690 0.32300 0.56800
C 	C 	0.64850 0.03150 0.41760 -1.10800
H 	H 	0.68810 0.05360 0.45140 0.34100
H 	H 	0.60660 0.05430 0.41140 0.33900
H 	H 	0.64460 0.99580 0.45050 0.34600
C 	C 	0.56760 0.93290 0.10710 -1.10500
H 	H 	0.58200 0.92910 0.05010 0.33800
H 	H 	0.56490 0.89460 0.13330 0.34400
H 	H 	0.52240 0.95130 0.09500 0.33400
C 	C 	0.79590 0.03820 0.10100 -0.14100
H 	H 	0.79830 0.99620 0.09180 0.09000
H 	H 	0.75600 0.05330 0.05470 0.05800
C 	C 	0.86280 0.06690 0.08730 0.36100
