data_crystal

_cell_length_a 27.68170
_cell_length_b 10.26940
_cell_length_c 20.63560
_cell_angle_alpha 90.00000
_cell_angle_beta  123.24100
_cell_angle_gamma 90.00000

_symmetry_space_group_name_	'P 1'
_symmetry_space_group_name_H-M	'P 1'

loop_
_symmetry_equiv_pos_as_xyz
  x,y,z

loop_
_atom_site_label
_atom_site_type_symbol
_atom_site_fract_x
_atom_site_fract_y
_atom_site_fract_z
_atom_site_charge
Cd	Cd	0.82489 0.79745 0.54825 1.21900
Cd	Cd	0.95707 0.97830 0.63539 1.17100
O 	O 	0.90568 0.79110 0.54060 -0.48900
O 	O 	0.73838 0.15100 0.04436 -0.49500
O 	O 	0.70076 0.46540 0.02978 -0.43900
N 	N 	0.92844 0.88470 0.71203 -0.20000
O 	O 	0.66450 0.06420 0.93786 -0.37000
N 	N 	0.95504 0.87800 0.78883 -0.22400
O 	O 	0.94788 0.95390 0.52036 -0.42200
N 	N 	0.87910 0.81760 0.67614 -0.21700
O 	O 	0.63171 0.58120 0.92985 -0.48100
C 	C 	0.87331 0.76490 0.73193 0.06200
C 	C 	0.76169 0.91540 0.12435 -0.00600
H 	H 	0.78070 0.99070 0.15140 0.03500
C 	C 	0.81513 0.79750 0.25007 0.08900
C 	C 	0.72126 0.92300 0.04529 -0.09600
C 	C 	0.91463 0.85660 0.49614 0.34500
C 	C 	0.69223 0.81180 0.00395 0.04100
H 	H 	0.66440 0.81680 0.95110 0.03100
C 	C 	0.77457 0.79840 0.16434 -0.04400
C 	C 	0.70719 0.05250 0.00559 0.30900
C 	C 	0.70505 0.69360 0.04203 -0.10700
C 	C 	0.74589 0.68700 0.12162 0.00600
H 	H 	0.75420 0.60690 0.14670 0.04200
C 	C 	0.67616 0.57100 0.99676 0.36800
C 	C 	0.92150 0.80290 0.80328 0.06000
C 	C 	0.80615 0.71990 0.29720 -0.14700
H 	H 	0.77680 0.65820 0.27480 0.08400
C 	C 	0.92737 0.76600 0.87350 -0.10700
H 	H 	0.95900 0.79170 0.92150 0.06800
C 	C 	0.83996 0.73210 0.37720 0.06200
H 	H 	0.83330 0.67850 0.40780 0.00900
C 	C 	0.88386 0.82440 0.41169 -0.14000
C 	C 	0.89558 0.89630 0.36477 0.06200
H 	H 	0.92640 0.95440 0.38720 0.00500
C 	C 	0.86199 0.88250 0.28516 -0.15400
H 	H 	0.87080 0.93050 0.25470 0.06800
C 	C 	0.83019 0.68560 0.72680 -0.10800
H 	H 	0.79860 0.65800 0.67930 0.06500
C 	C 	0.83686 0.65100 0.79470 -0.01700
H 	H 	0.80890 0.59850 0.79320 0.03900
C 	C 	0.88442 0.69120 0.86740 -0.01800
H 	H 	0.88650 0.66610 0.91210 0.03800
Cd	Cd	0.32489 0.29745 0.54825 1.22000
Cd	Cd	0.45707 0.47830 0.63539 1.17200
O 	O 	0.40568 0.29110 0.54060 -0.48900
O 	O 	0.23838 0.65100 0.04436 -0.49500
O 	O 	0.20076 0.96540 0.02978 -0.43900
N 	N 	0.42844 0.38470 0.71203 -0.20000
O 	O 	0.16450 0.56420 0.93786 -0.37300
N 	N 	0.45504 0.37800 0.78883 -0.22400
O 	O 	0.44788 0.45390 0.52036 -0.42200
N 	N 	0.37910 0.31760 0.67614 -0.21700
O 	O 	0.13171 0.08120 0.92985 -0.48100
C 	C 	0.37331 0.26490 0.73193 0.06200
C 	C 	0.26169 0.41540 0.12435 -0.00400
H 	H 	0.28070 0.49070 0.15140 0.03300
C 	C 	0.31513 0.29750 0.25007 0.08900
C 	C 	0.22126 0.42300 0.04529 -0.10000
C 	C 	0.41463 0.35660 0.49614 0.34500
C 	C 	0.19223 0.31180 0.00395 0.03700
H 	H 	0.16440 0.31680 0.95110 0.03500
C 	C 	0.27457 0.29840 0.16434 -0.04500
C 	C 	0.20719 0.55250 0.00559 0.31600
C 	C 	0.20505 0.19360 0.04203 -0.11100
C 	C 	0.24589 0.18700 0.12162 0.00800
H 	H 	0.25420 0.10690 0.14670 0.04100
C 	C 	0.17616 0.07100 0.99676 0.37300
C 	C 	0.42150 0.30290 0.80328 0.06100
C 	C 	0.30615 0.21990 0.29720 -0.14700
H 	H 	0.27680 0.15820 0.27480 0.08400
C 	C 	0.42737 0.26600 0.87350 -0.10700
H 	H 	0.45900 0.29170 0.92150 0.06800
C 	C 	0.33996 0.23210 0.37720 0.06300
H 	H 	0.33330 0.17850 0.40780 0.00900
C 	C 	0.38386 0.32440 0.41169 -0.14000
C 	C 	0.39558 0.39630 0.36477 0.06200
H 	H 	0.42640 0.45440 0.38720 0.00400
C 	C 	0.36199 0.38250 0.28516 -0.15400
H 	H 	0.37080 0.43050 0.25470 0.06800
C 	C 	0.33019 0.18560 0.72680 -0.10700
H 	H 	0.29860 0.15800 0.67930 0.06500
C 	C 	0.33686 0.15100 0.79470 -0.01700
H 	H 	0.30890 0.09850 0.79320 0.04000
C 	C 	0.38442 0.19120 0.86740 -0.01800
H 	H 	0.38650 0.16610 0.91210 0.03800
Cd	Cd	0.17511 0.79745 0.95175 1.22000
Cd	Cd	0.04293 0.97830 0.86461 1.17100
O 	O 	0.09432 0.79110 0.95940 -0.49100
O 	O 	0.26162 0.15100 0.45564 -0.49600
O 	O 	0.29924 0.46540 0.47022 -0.43900
N 	N 	0.07156 0.88470 0.78797 -0.20000
O 	O 	0.33550 0.06420 0.56214 -0.37300
N 	N 	0.04496 0.87800 0.71117 -0.22400
O 	O 	0.05212 0.95390 0.97964 -0.42500
N 	N 	0.12090 0.81760 0.82386 -0.21700
O 	O 	0.36829 0.58120 0.57015 -0.48200
C 	C 	0.12669 0.76490 0.76807 0.06200
C 	C 	0.23831 0.91540 0.37565 -0.00400
H 	H 	0.21930 0.99070 0.34860 0.03400
C 	C 	0.18487 0.79750 0.24993 0.09000
C 	C 	0.27874 0.92300 0.45471 -0.10000
C 	C 	0.08537 0.85660 0.00386 0.35000
C 	C 	0.30777 0.81180 0.49605 0.03900
H 	H 	0.33560 0.81680 0.54890 0.03400
C 	C 	0.22543 0.79840 0.33566 -0.04500
C 	C 	0.29281 0.05250 0.49441 0.31600
C 	C 	0.29495 0.69360 0.45797 -0.10800
C 	C 	0.25411 0.68700 0.37838 0.00700
H 	H 	0.24580 0.60690 0.35330 0.04200
C 	C 	0.32384 0.57100 0.50324 0.36900
C 	C 	0.07850 0.80290 0.69672 0.06000
C 	C 	0.19385 0.71990 0.20280 -0.14800
H 	H 	0.22320 0.65820 0.22520 0.08500
C 	C 	0.07263 0.76600 0.62650 -0.10700
H 	H 	0.04100 0.79170 0.57850 0.06800
C 	C 	0.16004 0.73210 0.12280 0.06400
H 	H 	0.16670 0.67850 0.09220 0.00800
C 	C 	0.11614 0.82440 0.08831 -0.14200
C 	C 	0.10442 0.89630 0.13523 0.06300
H 	H 	0.07360 0.95440 0.11280 0.00500
C 	C 	0.13801 0.88250 0.21484 -0.15500
H 	H 	0.12920 0.93050 0.24530 0.06800
C 	C 	0.16981 0.68560 0.77320 -0.10700
H 	H 	0.20140 0.65800 0.82070 0.06500
C 	C 	0.16314 0.65100 0.70530 -0.01700
H 	H 	0.19110 0.59850 0.70680 0.03900
C 	C 	0.11558 0.69120 0.63260 -0.01800
H 	H 	0.11350 0.66610 0.58790 0.03800
Cd	Cd	0.67511 0.29745 0.95175 1.22100
Cd	Cd	0.54293 0.47830 0.86461 1.17200
O 	O 	0.59432 0.29110 0.95940 -0.48800
O 	O 	0.76162 0.65100 0.45564 -0.49600
O 	O 	0.79924 0.96540 0.47022 -0.43900
N 	N 	0.57156 0.38470 0.78797 -0.20000
O 	O 	0.83550 0.56420 0.56214 -0.37300
N 	N 	0.54496 0.37800 0.71117 -0.22400
O 	O 	0.55212 0.45390 0.97964 -0.42100
N 	N 	0.62090 0.31760 0.82386 -0.21700
O 	O 	0.86829 0.08120 0.57015 -0.48100
C 	C 	0.62669 0.26490 0.76807 0.06200
C 	C 	0.73831 0.41540 0.37565 -0.00400
H 	H 	0.71930 0.49070 0.34860 0.03300
C 	C 	0.68487 0.29750 0.24993 0.08900
C 	C 	0.77874 0.42300 0.45471 -0.10000
C 	C 	0.58537 0.35660 0.00386 0.34300
C 	C 	0.80777 0.31180 0.49605 0.03900
H 	H 	0.83560 0.31680 0.54890 0.03400
C 	C 	0.72543 0.29840 0.33566 -0.04500
C 	C 	0.79281 0.55250 0.49441 0.31600
C 	C 	0.79495 0.19360 0.45797 -0.10800
C 	C 	0.75411 0.18700 0.37838 0.00700
H 	H 	0.74580 0.10690 0.35330 0.04200
C 	C 	0.82384 0.07100 0.50324 0.36900
C 	C 	0.57850 0.30290 0.69672 0.06000
C 	C 	0.69385 0.21990 0.20280 -0.14700
H 	H 	0.72320 0.15820 0.22520 0.08400
C 	C 	0.57263 0.26600 0.62650 -0.10700
H 	H 	0.54100 0.29170 0.57850 0.06800
C 	C 	0.66004 0.23210 0.12280 0.06200
H 	H 	0.66670 0.17850 0.09220 0.00800
C 	C 	0.61614 0.32440 0.08831 -0.14000
C 	C 	0.60442 0.39630 0.13523 0.06200
H 	H 	0.57360 0.45440 0.11280 0.00400
C 	C 	0.63801 0.38250 0.21484 -0.15400
H 	H 	0.62920 0.43050 0.24530 0.06800
C 	C 	0.66981 0.18560 0.77320 -0.10700
H 	H 	0.70140 0.15800 0.82070 0.06500
C 	C 	0.66314 0.15100 0.70530 -0.01700
H 	H 	0.69110 0.09850 0.70680 0.04000
C 	C 	0.61558 0.19120 0.63260 -0.01800
H 	H 	0.61350 0.16610 0.58790 0.03800
Cd	Cd	0.17511 0.20255 0.45175 1.22000
Cd	Cd	0.04293 0.02170 0.36461 1.17200
O 	O 	0.09432 0.20890 0.45940 -0.48900
O 	O 	0.26162 0.84900 0.95564 -0.49500
O 	O 	0.29924 0.53460 0.97022 -0.43900
N 	N 	0.07156 0.11530 0.28797 -0.20000
O 	O 	0.33550 0.93580 0.06214 -0.37000
N 	N 	0.04496 0.12200 0.21117 -0.22400
O 	O 	0.05212 0.04610 0.47964 -0.42200
N 	N 	0.12090 0.18240 0.32386 -0.21700
O 	O 	0.36829 0.41880 0.07015 -0.48100
C 	C 	0.12669 0.23510 0.26807 0.06200
C 	C 	0.23831 0.08460 0.87565 -0.00600
H 	H 	0.21930 0.00930 0.84860 0.03500
C 	C 	0.18487 0.20250 0.74993 0.08900
C 	C 	0.27874 0.07700 0.95471 -0.09600
C 	C 	0.08537 0.14340 0.50386 0.34500
C 	C 	0.30777 0.18820 0.99605 0.04100
H 	H 	0.33560 0.18320 0.04890 0.03100
C 	C 	0.22543 0.20160 0.83566 -0.04400
C 	C 	0.29281 0.94750 0.99441 0.30900
C 	C 	0.29495 0.30640 0.95797 -0.10700
C 	C 	0.25411 0.31300 0.87838 0.00600
H 	H 	0.24580 0.39310 0.85330 0.04200
C 	C 	0.32384 0.42900 0.00324 0.36800
C 	C 	0.07850 0.19710 0.19672 0.06000
C 	C 	0.19385 0.28010 0.70280 -0.14700
H 	H 	0.22320 0.34180 0.72520 0.08400
C 	C 	0.07263 0.23400 0.12650 -0.10700
H 	H 	0.04100 0.20830 0.07850 0.06800
C 	C 	0.16004 0.26790 0.62280 0.06200
H 	H 	0.16670 0.32150 0.59220 0.00900
C 	C 	0.11614 0.17560 0.58831 -0.14000
C 	C 	0.10442 0.10370 0.63523 0.06200
H 	H 	0.07360 0.04560 0.61280 0.00500
C 	C 	0.13801 0.11750 0.71484 -0.15400
H 	H 	0.12920 0.06950 0.74530 0.06800
C 	C 	0.16981 0.31440 0.27320 -0.10800
H 	H 	0.20140 0.34200 0.32070 0.06500
C 	C 	0.16314 0.34900 0.20530 -0.01700
H 	H 	0.19110 0.40150 0.20680 0.03900
C 	C 	0.11558 0.30880 0.13260 -0.01800
H 	H 	0.11350 0.33390 0.08790 0.03800
Cd	Cd	0.67511 0.70255 0.45175 1.22000
Cd	Cd	0.54293 0.52170 0.36461 1.17200
O 	O 	0.59432 0.70890 0.45940 -0.48900
O 	O 	0.76162 0.34900 0.95564 -0.49500
O 	O 	0.79924 0.03460 0.97022 -0.43900
N 	N 	0.57156 0.61530 0.28797 -0.20000
O 	O 	0.83550 0.43580 0.06214 -0.37300
N 	N 	0.54496 0.62200 0.21117 -0.22400
O 	O 	0.55212 0.54610 0.47964 -0.42200
N 	N 	0.62090 0.68240 0.32386 -0.21700
O 	O 	0.86829 0.91880 0.07015 -0.48100
C 	C 	0.62669 0.73510 0.26807 0.06200
C 	C 	0.73831 0.58460 0.87565 -0.00400
H 	H 	0.71930 0.50930 0.84860 0.03300
C 	C 	0.68487 0.70250 0.74993 0.08900
C 	C 	0.77874 0.57700 0.95471 -0.10000
C 	C 	0.58537 0.64340 0.50386 0.34500
C 	C 	0.80777 0.68820 0.99605 0.03700
H 	H 	0.83560 0.68320 0.04890 0.03500
C 	C 	0.72543 0.70160 0.83566 -0.04500
C 	C 	0.79281 0.44750 0.99441 0.31600
C 	C 	0.79495 0.80640 0.95797 -0.11100
C 	C 	0.75411 0.81300 0.87838 0.00800
H 	H 	0.74580 0.89310 0.85330 0.04100
C 	C 	0.82384 0.92900 0.00324 0.37300
C 	C 	0.57850 0.69710 0.19672 0.06100
C 	C 	0.69385 0.78010 0.70280 -0.14700
H 	H 	0.72320 0.84180 0.72520 0.08400
C 	C 	0.57263 0.73400 0.12650 -0.10700
H 	H 	0.54100 0.70830 0.07850 0.06800
C 	C 	0.66004 0.76790 0.62280 0.06300
H 	H 	0.66670 0.82150 0.59220 0.00900
C 	C 	0.61614 0.67560 0.58831 -0.14000
C 	C 	0.60442 0.60370 0.63523 0.06200
H 	H 	0.57360 0.54560 0.61280 0.00400
C 	C 	0.63801 0.61750 0.71484 -0.15400
H 	H 	0.62920 0.56950 0.74530 0.06800
C 	C 	0.66981 0.81440 0.27320 -0.10700
H 	H 	0.70140 0.84200 0.32070 0.06500
C 	C 	0.66314 0.84900 0.20530 -0.01700
H 	H 	0.69110 0.90150 0.20680 0.04000
C 	C 	0.61558 0.80880 0.13260 -0.01800
H 	H 	0.61350 0.83390 0.08790 0.03800
Cd	Cd	0.82489 0.20255 0.04825 1.22000
Cd	Cd	0.95707 0.02170 0.13539 1.17100
O 	O 	0.90568 0.20890 0.04060 -0.49100
O 	O 	0.73838 0.84900 0.54436 -0.49600
O 	O 	0.70076 0.53460 0.52978 -0.43900
N 	N 	0.92844 0.11530 0.21203 -0.20000
O 	O 	0.66450 0.93580 0.43786 -0.37300
N 	N 	0.95504 0.12200 0.28883 -0.22400
O 	O 	0.94788 0.04610 0.02036 -0.42500
N 	N 	0.87910 0.18240 0.17614 -0.21700
O 	O 	0.63171 0.41880 0.42985 -0.48200
C 	C 	0.87331 0.23510 0.23193 0.06200
C 	C 	0.76169 0.08460 0.62435 -0.00400
H 	H 	0.78070 0.00930 0.65140 0.03400
C 	C 	0.81513 0.20250 0.75007 0.09000
C 	C 	0.72126 0.07700 0.54529 -0.10000
C 	C 	0.91463 0.14340 0.99614 0.35000
C 	C 	0.69223 0.18820 0.50395 0.03900
H 	H 	0.66440 0.18320 0.45110 0.03400
C 	C 	0.77457 0.20160 0.66434 -0.04500
C 	C 	0.70719 0.94750 0.50559 0.31600
C 	C 	0.70505 0.30640 0.54203 -0.10800
C 	C 	0.74589 0.31300 0.62162 0.00700
H 	H 	0.75420 0.39310 0.64670 0.04200
C 	C 	0.67616 0.42900 0.49676 0.36900
C 	C 	0.92150 0.19710 0.30328 0.06000
C 	C 	0.80615 0.28010 0.79720 -0.14800
H 	H 	0.77680 0.34180 0.77480 0.08500
C 	C 	0.92737 0.23400 0.37350 -0.10700
H 	H 	0.95900 0.20830 0.42150 0.06800
C 	C 	0.83996 0.26790 0.87720 0.06400
H 	H 	0.83330 0.32150 0.90780 0.00800
C 	C 	0.88386 0.17560 0.91169 -0.14200
C 	C 	0.89558 0.10370 0.86477 0.06300
H 	H 	0.92640 0.04560 0.88720 0.00500
C 	C 	0.86199 0.11750 0.78516 -0.15500
H 	H 	0.87080 0.06950 0.75470 0.06800
C 	C 	0.83019 0.31440 0.22680 -0.10700
H 	H 	0.79860 0.34200 0.17930 0.06500
C 	C 	0.83686 0.34900 0.29470 -0.01700
H 	H 	0.80890 0.40150 0.29320 0.03900
C 	C 	0.88442 0.30880 0.36740 -0.01800
H 	H 	0.88650 0.33390 0.41210 0.03800
Cd	Cd	0.32489 0.70255 0.04825 1.22100
Cd	Cd	0.45707 0.52170 0.13539 1.17200
O 	O 	0.40568 0.70890 0.04060 -0.48800
O 	O 	0.23838 0.34900 0.54436 -0.49600
O 	O 	0.20076 0.03460 0.52978 -0.43900
N 	N 	0.42844 0.61530 0.21203 -0.20000
O 	O 	0.16450 0.43580 0.43786 -0.37300
N 	N 	0.45504 0.62200 0.28883 -0.22400
O 	O 	0.44788 0.54610 0.02036 -0.42100
N 	N 	0.37910 0.68240 0.17614 -0.21700
O 	O 	0.13171 0.91880 0.42985 -0.48100
C 	C 	0.37331 0.73510 0.23193 0.06200
C 	C 	0.26169 0.58460 0.62435 -0.00400
H 	H 	0.28070 0.50930 0.65140 0.03300
C 	C 	0.31513 0.70250 0.75007 0.08900
C 	C 	0.22126 0.57700 0.54529 -0.10000
C 	C 	0.41463 0.64340 0.99614 0.34300
C 	C 	0.19223 0.68820 0.50395 0.03900
H 	H 	0.16440 0.68320 0.45110 0.03400
C 	C 	0.27457 0.70160 0.66434 -0.04500
C 	C 	0.20719 0.44750 0.50559 0.31600
C 	C 	0.20505 0.80640 0.54203 -0.10800
C 	C 	0.24589 0.81300 0.62162 0.00700
H 	H 	0.25420 0.89310 0.64670 0.04200
C 	C 	0.17616 0.92900 0.49676 0.36900
C 	C 	0.42150 0.69710 0.30328 0.06000
C 	C 	0.30615 0.78010 0.79720 -0.14700
H 	H 	0.27680 0.84180 0.77480 0.08400
C 	C 	0.42737 0.73400 0.37350 -0.10700
H 	H 	0.45900 0.70830 0.42150 0.06800
C 	C 	0.33996 0.76790 0.87720 0.06200
H 	H 	0.33330 0.82150 0.90780 0.00800
C 	C 	0.38386 0.67560 0.91169 -0.14000
C 	C 	0.39558 0.60370 0.86477 0.06200
H 	H 	0.42640 0.54560 0.88720 0.00400
C 	C 	0.36199 0.61750 0.78516 -0.15400
H 	H 	0.37080 0.56950 0.75470 0.06800
C 	C 	0.33019 0.81440 0.22680 -0.10700
H 	H 	0.29860 0.84200 0.17930 0.06500
C 	C 	0.33686 0.84900 0.29470 -0.01700
H 	H 	0.30890 0.90150 0.29320 0.04000
C 	C 	0.38442 0.80880 0.36740 -0.01800
H 	H 	0.38650 0.83390 0.41210 0.03800
