data_crystal

_cell_length_a 23.01940
_cell_length_b 23.01940
_cell_length_c 12.73540
_cell_angle_alpha 90.00000
_cell_angle_beta  90.00000
_cell_angle_gamma 120.00000

_symmetry_space_group_name_	'P 1'
_symmetry_space_group_name_H-M	'P 1'

loop_
_symmetry_equiv_pos_as_xyz
  x,y,z

loop_
_atom_site_label
_atom_site_type_symbol
_atom_site_fract_x
_atom_site_fract_y
_atom_site_fract_z
_atom_site_charge
C 	C 	0.89600 0.24280 0.44480 0.40200
C 	C 	0.93450 0.25500 0.34490 -0.14300
C 	C 	0.78000 0.31080 0.61550 0.42000
C 	C 	0.72056 0.32092 0.60940 -0.19600
C 	C 	0.65610 0.26770 0.60770 0.13000
H 	H 	0.64850 0.22410 0.60540 -0.02100
C 	C 	0.99210 0.41680 0.54060 0.03600
H 	H 	0.95300 0.40890 0.50680 -0.00400
C 	C 	0.04920 0.43070 0.47910 -0.05400
H 	H 	0.04670 0.42860 0.40620 0.01600
C 	C 	0.10700 0.44700 0.52920 -0.07200
H 	H 	0.14530 0.45880 0.48970 0.05600
C 	C 	0.11090 0.44690 0.63970 0.04100
C 	C 	0.05120 0.42990 0.69700 0.00900
C 	C 	0.16900 0.46230 0.69480 -0.06100
H 	H 	0.20810 0.47260 0.65850 0.06800
C 	C 	0.00460 0.28320 0.34420 0.07600
H 	H 	0.02790 0.29200 0.40720 0.03800
Co	Co	0.84542 0.23688 0.62146 1.23700
N 	N 	0.99277 0.41458 0.64370 -0.24100
H 	H 	0.86860 0.26790 0.80210 -0.15100
O 	O 	0.92730 0.26145 0.52810 -0.42100
O 	O 	0.83743 0.21397 0.44890 -0.39800
O 	O 	0.76678 0.25019 0.61390 -0.46200
O 	O 	0.83646 0.35869 0.62850 -0.50500
O 	O 	0.14299 0.34168 0.33830 -0.44800
O 	O 	0.92680 0.47510 0.77700 1.03300
H 	H 	0.94030 0.50150 0.72420 -1.16300
H 	H 	0.88950 0.47010 0.79790 -0.79000
H 	H 	0.87430 0.26690 0.80580 -0.11600
O 	O 	0.89680 0.47360 0.76800 -0.33200
H 	H 	0.88060 0.47110 0.82900 0.71600
C 	C 	0.75720 0.65320 0.44480 0.40300
C 	C 	0.74500 0.67950 0.34490 -0.14300
C 	C 	0.68920 0.46920 0.61550 0.42000
C 	C 	0.67908 0.39964 0.60940 -0.19600
C 	C 	0.73230 0.38840 0.60770 0.13000
H 	H 	0.77590 0.42440 0.60540 -0.02100
C 	C 	0.58320 0.57530 0.54060 0.03600
H 	H 	0.59110 0.54410 0.50680 -0.00400
C 	C 	0.56930 0.61850 0.47910 -0.05400
H 	H 	0.57140 0.61810 0.40620 0.01700
C 	C 	0.55300 0.66000 0.52920 -0.07100
H 	H 	0.54120 0.68650 0.48970 0.05600
C 	C 	0.55310 0.66400 0.63970 0.04100
C 	C 	0.57010 0.62130 0.69700 0.00900
C 	C 	0.53770 0.70670 0.69480 -0.06000
H 	H 	0.52740 0.73550 0.65850 0.06800
C 	C 	0.71680 0.72140 0.34420 0.07600
H 	H 	0.70800 0.73590 0.40720 0.03700
Co	Co	0.76312 0.60854 0.62146 1.23700
N 	N 	0.58542 0.57819 0.64370 -0.24100
H 	H 	0.73210 0.60070 0.80210 -0.15100
O 	O 	0.73855 0.66585 0.52810 -0.42100
O 	O 	0.78603 0.62346 0.44890 -0.39800
O 	O 	0.74981 0.51659 0.61390 -0.46200
O 	O 	0.64131 0.47777 0.62850 -0.50500
O 	O 	0.65832 0.80131 0.33830 -0.44800
O 	O 	0.52490 0.45170 0.77700 1.03300
H 	H 	0.49850 0.43880 0.72420 -1.16300
H 	H 	0.52990 0.41940 0.79790 -0.79100
H 	H 	0.73310 0.60740 0.80580 -0.11600
O 	O 	0.52640 0.42320 0.76800 -0.33200
H 	H 	0.52890 0.40950 0.82900 0.71600
C 	C 	0.34680 0.10400 0.44480 0.40300
C 	C 	0.32050 0.06550 0.34490 -0.14200
C 	C 	0.53080 0.22000 0.61550 0.42000
C 	C 	0.60036 0.27944 0.60940 -0.19600
C 	C 	0.61160 0.34390 0.60770 0.13000
H 	H 	0.57560 0.35150 0.60540 -0.02100
C 	C 	0.42470 0.00790 0.54060 0.03600
H 	H 	0.45590 0.04700 0.50680 -0.00400
C 	C 	0.38150 0.95080 0.47910 -0.05400
H 	H 	0.38190 0.95330 0.40620 0.01600
C 	C 	0.34000 0.89300 0.52920 -0.07200
H 	H 	0.31350 0.85470 0.48970 0.05600
C 	C 	0.33600 0.88910 0.63970 0.04100
C 	C 	0.37870 0.94880 0.69700 0.00900
C 	C 	0.29330 0.83100 0.69480 -0.06100
H 	H 	0.26450 0.79190 0.65850 0.06900
C 	C 	0.27860 0.99540 0.34420 0.07500
H 	H 	0.26410 0.97210 0.40720 0.03800
Co	Co	0.39146 0.15458 0.62146 1.23700
N 	N 	0.42181 0.00723 0.64370 -0.24100
H 	H 	0.39930 0.13140 0.80210 -0.15100
O 	O 	0.33415 0.07270 0.52810 -0.42100
O 	O 	0.37654 0.16257 0.44890 -0.39800
O 	O 	0.48341 0.23322 0.61390 -0.46200
O 	O 	0.52223 0.16354 0.62850 -0.50500
O 	O 	0.19869 0.85701 0.33830 -0.44800
O 	O 	0.54830 0.07320 0.77700 1.03300
H 	H 	0.56120 0.05970 0.72420 -1.16300
H 	H 	0.58060 0.11050 0.79790 -0.79000
H 	H 	0.39260 0.12570 0.80580 -0.11600
O 	O 	0.57680 0.10320 0.76800 -0.33200
H 	H 	0.59050 0.11940 0.82900 0.71600
C 	C 	0.10400 0.75720 0.94480 0.40400
C 	C 	0.06550 0.74500 0.84490 -0.14200
C 	C 	0.22000 0.68920 0.11550 0.42000
C 	C 	0.27944 0.67908 0.10940 -0.19600
C 	C 	0.34390 0.73230 0.10770 0.13000
H 	H 	0.35150 0.77590 0.10540 -0.02100
C 	C 	0.00790 0.58320 0.04060 0.03700
H 	H 	0.04700 0.59110 0.00680 -0.00400
C 	C 	0.95080 0.56930 0.97910 -0.05600
H 	H 	0.95330 0.57140 0.90620 0.01700
C 	C 	0.89300 0.55300 0.02920 -0.06900
H 	H 	0.85470 0.54120 0.98970 0.05500
C 	C 	0.88910 0.55310 0.13970 0.04000
C 	C 	0.94880 0.57010 0.19700 0.01000
C 	C 	0.83100 0.53770 0.19480 -0.05900
H 	H 	0.79190 0.52740 0.15850 0.06800
C 	C 	0.99540 0.71680 0.84420 0.07600
H 	H 	0.97210 0.70800 0.90720 0.03700
Co	Co	0.15458 0.76312 0.12146 1.23700
N 	N 	0.00723 0.58542 0.14370 -0.24200
H 	H 	0.13140 0.73210 0.30210 -0.15100
O 	O 	0.07270 0.73855 0.02810 -0.42200
O 	O 	0.16257 0.78603 0.94890 -0.39800
O 	O 	0.23322 0.74981 0.11390 -0.46200
O 	O 	0.16354 0.64131 0.12850 -0.50500
O 	O 	0.85701 0.65832 0.83830 -0.44800
O 	O 	0.07320 0.52490 0.27700 1.03300
H 	H 	0.05970 0.49850 0.22420 -1.16300
H 	H 	0.11050 0.52990 0.29790 -0.79100
H 	H 	0.12570 0.73310 0.30580 -0.11600
O 	O 	0.10320 0.52640 0.26800 -0.33200
H 	H 	0.11940 0.52890 0.32900 0.71700
C 	C 	0.24280 0.34680 0.94480 0.40300
C 	C 	0.25500 0.32050 0.84490 -0.14300
C 	C 	0.31080 0.53080 0.11550 0.42000
C 	C 	0.32092 0.60036 0.10940 -0.19600
C 	C 	0.26770 0.61160 0.10770 0.13000
H 	H 	0.22410 0.57560 0.10540 -0.02100
C 	C 	0.41680 0.42470 0.04060 0.03600
H 	H 	0.40890 0.45590 0.00680 -0.00400
C 	C 	0.43070 0.38150 0.97910 -0.05500
H 	H 	0.42860 0.38190 0.90620 0.01700
C 	C 	0.44700 0.34000 0.02920 -0.07100
H 	H 	0.45880 0.31350 0.98970 0.05500
C 	C 	0.44690 0.33600 0.13970 0.04000
C 	C 	0.42990 0.37870 0.19700 0.01000
C 	C 	0.46230 0.29330 0.19480 -0.06000
H 	H 	0.47260 0.26450 0.15850 0.06800
C 	C 	0.28320 0.27860 0.84420 0.07600
H 	H 	0.29200 0.26410 0.90720 0.03700
Co	Co	0.23688 0.39146 0.12146 1.23700
N 	N 	0.41458 0.42181 0.14370 -0.24100
H 	H 	0.26790 0.39930 0.30210 -0.15100
O 	O 	0.26145 0.33415 0.02810 -0.42100
O 	O 	0.21397 0.37654 0.94890 -0.39800
O 	O 	0.25019 0.48341 0.11390 -0.46200
O 	O 	0.35869 0.52223 0.12850 -0.50500
O 	O 	0.34168 0.19869 0.83830 -0.44800
O 	O 	0.47510 0.54830 0.27700 1.03300
H 	H 	0.50150 0.56120 0.22420 -1.16300
H 	H 	0.47010 0.58060 0.29790 -0.79100
H 	H 	0.26690 0.39260 0.30580 -0.11600
O 	O 	0.47360 0.57680 0.26800 -0.33200
H 	H 	0.47110 0.59050 0.32900 0.71700
C 	C 	0.65320 0.89600 0.94480 0.40300
C 	C 	0.67950 0.93450 0.84490 -0.14200
C 	C 	0.46920 0.78000 0.11550 0.42000
C 	C 	0.39964 0.72056 0.10940 -0.19600
C 	C 	0.38840 0.65610 0.10770 0.13000
H 	H 	0.42440 0.64850 0.10540 -0.02100
C 	C 	0.57530 0.99210 0.04060 0.03700
H 	H 	0.54410 0.95300 0.00680 -0.00400
C 	C 	0.61850 0.04920 0.97910 -0.05700
H 	H 	0.61810 0.04670 0.90620 0.01800
C 	C 	0.66000 0.10700 0.02920 -0.06800
H 	H 	0.68650 0.14530 0.98970 0.05400
C 	C 	0.66400 0.11090 0.13970 0.03900
C 	C 	0.62130 0.05120 0.19700 0.01000
C 	C 	0.70670 0.16900 0.19480 -0.05900
H 	H 	0.73550 0.20810 0.15850 0.06800
C 	C 	0.72140 0.00460 0.84420 0.07500
H 	H 	0.73590 0.02790 0.90720 0.03800
Co	Co	0.60854 0.84542 0.12146 1.23700
N 	N 	0.57819 0.99277 0.14370 -0.24200
H 	H 	0.60070 0.86860 0.30210 -0.15100
O 	O 	0.66585 0.92730 0.02810 -0.42100
O 	O 	0.62346 0.83743 0.94890 -0.39800
O 	O 	0.51659 0.76678 0.11390 -0.46200
O 	O 	0.47777 0.83646 0.12850 -0.50500
O 	O 	0.80131 0.14299 0.83830 -0.44800
O 	O 	0.45170 0.92680 0.27700 1.03300
H 	H 	0.43880 0.94030 0.22420 -1.16300
H 	H 	0.41940 0.88950 0.29790 -0.79100
H 	H 	0.60740 0.87430 0.30580 -0.11600
O 	O 	0.42320 0.89680 0.26800 -0.33200
H 	H 	0.40950 0.88060 0.32900 0.71700
C 	C 	0.10400 0.75720 0.55520 0.40300
C 	C 	0.06550 0.74500 0.65510 -0.14200
C 	C 	0.22000 0.68920 0.38450 0.42000
C 	C 	0.27944 0.67908 0.39060 -0.19600
C 	C 	0.34390 0.73230 0.39230 0.13000
H 	H 	0.35150 0.77590 0.39460 -0.02100
C 	C 	0.00790 0.58320 0.45940 0.03600
H 	H 	0.04700 0.59110 0.49320 -0.00400
C 	C 	0.95080 0.56930 0.52090 -0.05400
H 	H 	0.95330 0.57140 0.59380 0.01600
C 	C 	0.89300 0.55300 0.47080 -0.07200
H 	H 	0.85470 0.54120 0.51030 0.05600
C 	C 	0.88910 0.55310 0.36030 0.04100
C 	C 	0.94880 0.57010 0.30300 0.00900
C 	C 	0.83100 0.53770 0.30520 -0.06100
H 	H 	0.79190 0.52740 0.34150 0.06800
C 	C 	0.99540 0.71680 0.65580 0.07600
H 	H 	0.97210 0.70800 0.59280 0.03800
Co	Co	0.15458 0.76312 0.37854 1.23700
N 	N 	0.00723 0.58542 0.35630 -0.24100
H 	H 	0.13140 0.73210 0.19790 -0.15100
O 	O 	0.07270 0.73855 0.47190 -0.42100
O 	O 	0.16257 0.78603 0.55110 -0.39800
O 	O 	0.23322 0.74981 0.38610 -0.46200
O 	O 	0.16354 0.64131 0.37150 -0.50500
O 	O 	0.85701 0.65832 0.66170 -0.44800
O 	O 	0.07320 0.52490 0.22300 1.03300
H 	H 	0.05970 0.49850 0.27580 -1.16300
H 	H 	0.11050 0.52990 0.20210 -0.79000
H 	H 	0.12570 0.73310 0.19420 -0.11600
O 	O 	0.10320 0.52640 0.23200 -0.33200
H 	H 	0.11940 0.52890 0.17100 0.71600
C 	C 	0.24280 0.34680 0.55520 0.40300
C 	C 	0.25500 0.32050 0.65510 -0.14300
C 	C 	0.31080 0.53080 0.38450 0.42000
C 	C 	0.32092 0.60036 0.39060 -0.19600
C 	C 	0.26770 0.61160 0.39230 0.13000
H 	H 	0.22410 0.57560 0.39460 -0.02100
C 	C 	0.41680 0.42470 0.45940 0.03600
H 	H 	0.40890 0.45590 0.49320 -0.00400
C 	C 	0.43070 0.38150 0.52090 -0.05400
H 	H 	0.42860 0.38190 0.59380 0.01700
C 	C 	0.44700 0.34000 0.47080 -0.07100
H 	H 	0.45880 0.31350 0.51030 0.05600
C 	C 	0.44690 0.33600 0.36030 0.04100
C 	C 	0.42990 0.37870 0.30300 0.00900
C 	C 	0.46230 0.29330 0.30520 -0.06000
H 	H 	0.47260 0.26450 0.34150 0.06800
C 	C 	0.28320 0.27860 0.65580 0.07600
H 	H 	0.29200 0.26410 0.59280 0.03700
Co	Co	0.23688 0.39146 0.37854 1.23700
N 	N 	0.41458 0.42181 0.35630 -0.24100
H 	H 	0.26790 0.39930 0.19790 -0.15100
O 	O 	0.26145 0.33415 0.47190 -0.42100
O 	O 	0.21397 0.37654 0.55110 -0.39800
O 	O 	0.25019 0.48341 0.38610 -0.46200
O 	O 	0.35869 0.52223 0.37150 -0.50500
O 	O 	0.34168 0.19869 0.66170 -0.44800
O 	O 	0.47510 0.54830 0.22300 1.03300
H 	H 	0.50150 0.56120 0.27580 -1.16300
H 	H 	0.47010 0.58060 0.20210 -0.79100
H 	H 	0.26690 0.39260 0.19420 -0.11600
O 	O 	0.47360 0.57680 0.23200 -0.33200
H 	H 	0.47110 0.59050 0.17100 0.71600
C 	C 	0.65320 0.89600 0.55520 0.40300
C 	C 	0.67950 0.93450 0.65510 -0.14200
C 	C 	0.46920 0.78000 0.38450 0.42000
C 	C 	0.39964 0.72056 0.39060 -0.19600
C 	C 	0.38840 0.65610 0.39230 0.13000
H 	H 	0.42440 0.64850 0.39460 -0.02100
C 	C 	0.57530 0.99210 0.45940 0.03600
H 	H 	0.54410 0.95300 0.49320 -0.00400
C 	C 	0.61850 0.04920 0.52090 -0.05400
H 	H 	0.61810 0.04670 0.59380 0.01600
C 	C 	0.66000 0.10700 0.47080 -0.07200
H 	H 	0.68650 0.14530 0.51030 0.05600
C 	C 	0.66400 0.11090 0.36030 0.04100
C 	C 	0.62130 0.05120 0.30300 0.00900
C 	C 	0.70670 0.16900 0.30520 -0.06100
H 	H 	0.73550 0.20810 0.34150 0.06900
C 	C 	0.72140 0.00460 0.65580 0.07500
H 	H 	0.73590 0.02790 0.59280 0.03800
Co	Co	0.60854 0.84542 0.37854 1.23700
N 	N 	0.57819 0.99277 0.35630 -0.24100
H 	H 	0.60070 0.86860 0.19790 -0.15100
O 	O 	0.66585 0.92730 0.47190 -0.42100
O 	O 	0.62346 0.83743 0.55110 -0.39800
O 	O 	0.51659 0.76678 0.38610 -0.46200
O 	O 	0.47777 0.83646 0.37150 -0.50500
O 	O 	0.80131 0.14299 0.66170 -0.44800
O 	O 	0.45170 0.92680 0.22300 1.03300
H 	H 	0.43880 0.94030 0.27580 -1.16300
H 	H 	0.41940 0.88950 0.20210 -0.79000
H 	H 	0.60740 0.87430 0.19420 -0.11600
O 	O 	0.42320 0.89680 0.23200 -0.33200
H 	H 	0.40950 0.88060 0.17100 0.71600
C 	C 	0.89600 0.24280 0.05520 0.40400
C 	C 	0.93450 0.25500 0.15510 -0.14200
C 	C 	0.78000 0.31080 0.88450 0.42000
C 	C 	0.72056 0.32092 0.89060 -0.19600
C 	C 	0.65610 0.26770 0.89230 0.13000
H 	H 	0.64850 0.22410 0.89460 -0.02100
C 	C 	0.99210 0.41680 0.95940 0.03700
H 	H 	0.95300 0.40890 0.99320 -0.00400
C 	C 	0.04920 0.43070 0.02090 -0.05600
H 	H 	0.04670 0.42860 0.09380 0.01700
C 	C 	0.10700 0.44700 0.97080 -0.06900
H 	H 	0.14530 0.45880 0.01030 0.05500
C 	C 	0.11090 0.44690 0.86030 0.04000
C 	C 	0.05120 0.42990 0.80300 0.01000
C 	C 	0.16900 0.46230 0.80520 -0.05900
H 	H 	0.20810 0.47260 0.84150 0.06800
C 	C 	0.00460 0.28320 0.15580 0.07600
H 	H 	0.02790 0.29200 0.09280 0.03700
Co	Co	0.84542 0.23688 0.87854 1.23700
N 	N 	0.99277 0.41458 0.85630 -0.24200
H 	H 	0.86860 0.26790 0.69790 -0.15100
O 	O 	0.92730 0.26145 0.97190 -0.42200
O 	O 	0.83743 0.21397 0.05110 -0.39800
O 	O 	0.76678 0.25019 0.88610 -0.46200
O 	O 	0.83646 0.35869 0.87150 -0.50500
O 	O 	0.14299 0.34168 0.16170 -0.44800
O 	O 	0.92680 0.47510 0.72300 1.03300
H 	H 	0.94030 0.50150 0.77580 -1.16300
H 	H 	0.88950 0.47010 0.70210 -0.79100
H 	H 	0.87430 0.26690 0.69420 -0.11600
O 	O 	0.89680 0.47360 0.73200 -0.33200
H 	H 	0.88060 0.47110 0.67100 0.71700
C 	C 	0.75720 0.65320 0.05520 0.40300
C 	C 	0.74500 0.67950 0.15510 -0.14300
C 	C 	0.68920 0.46920 0.88450 0.42000
C 	C 	0.67908 0.39964 0.89060 -0.19600
C 	C 	0.73230 0.38840 0.89230 0.13000
H 	H 	0.77590 0.42440 0.89460 -0.02100
C 	C 	0.58320 0.57530 0.95940 0.03600
H 	H 	0.59110 0.54410 0.99320 -0.00400
C 	C 	0.56930 0.61850 0.02090 -0.05500
H 	H 	0.57140 0.61810 0.09380 0.01700
C 	C 	0.55300 0.66000 0.97080 -0.07100
H 	H 	0.54120 0.68650 0.01030 0.05500
C 	C 	0.55310 0.66400 0.86030 0.04000
C 	C 	0.57010 0.62130 0.80300 0.01000
C 	C 	0.53770 0.70670 0.80520 -0.06000
H 	H 	0.52740 0.73550 0.84150 0.06800
C 	C 	0.71680 0.72140 0.15580 0.07600
H 	H 	0.70800 0.73590 0.09280 0.03700
Co	Co	0.76312 0.60854 0.87854 1.23700
N 	N 	0.58542 0.57819 0.85630 -0.24100
H 	H 	0.73210 0.60070 0.69790 -0.15100
O 	O 	0.73855 0.66585 0.97190 -0.42100
O 	O 	0.78603 0.62346 0.05110 -0.39800
O 	O 	0.74981 0.51659 0.88610 -0.46200
O 	O 	0.64131 0.47777 0.87150 -0.50500
O 	O 	0.65832 0.80131 0.16170 -0.44800
O 	O 	0.52490 0.45170 0.72300 1.03300
H 	H 	0.49850 0.43880 0.77580 -1.16300
H 	H 	0.52990 0.41940 0.70210 -0.79100
H 	H 	0.73310 0.60740 0.69420 -0.11600
O 	O 	0.52640 0.42320 0.73200 -0.33200
H 	H 	0.52890 0.40950 0.67100 0.71700
C 	C 	0.34680 0.10400 0.05520 0.40300
C 	C 	0.32050 0.06550 0.15510 -0.14200
C 	C 	0.53080 0.22000 0.88450 0.42000
C 	C 	0.60036 0.27944 0.89060 -0.19600
C 	C 	0.61160 0.34390 0.89230 0.13000
H 	H 	0.57560 0.35150 0.89460 -0.02100
C 	C 	0.42470 0.00790 0.95940 0.03700
H 	H 	0.45590 0.04700 0.99320 -0.00400
C 	C 	0.38150 0.95080 0.02090 -0.05700
H 	H 	0.38190 0.95330 0.09380 0.01800
C 	C 	0.34000 0.89300 0.97080 -0.06800
H 	H 	0.31350 0.85470 0.01030 0.05400
C 	C 	0.33600 0.88910 0.86030 0.03900
C 	C 	0.37870 0.94880 0.80300 0.01000
C 	C 	0.29330 0.83100 0.80520 -0.05900
H 	H 	0.26450 0.79190 0.84150 0.06800
C 	C 	0.27860 0.99540 0.15580 0.07500
H 	H 	0.26410 0.97210 0.09280 0.03800
Co	Co	0.39146 0.15458 0.87854 1.23700
N 	N 	0.42181 0.00723 0.85630 -0.24200
H 	H 	0.39930 0.13140 0.69790 -0.15100
O 	O 	0.33415 0.07270 0.97190 -0.42100
O 	O 	0.37654 0.16257 0.05110 -0.39800
O 	O 	0.48341 0.23322 0.88610 -0.46200
O 	O 	0.52223 0.16354 0.87150 -0.50500
O 	O 	0.19869 0.85701 0.16170 -0.44800
O 	O 	0.54830 0.07320 0.72300 1.03300
H 	H 	0.56120 0.05970 0.77580 -1.16300
H 	H 	0.58060 0.11050 0.70210 -0.79100
H 	H 	0.39260 0.12570 0.69420 -0.11600
O 	O 	0.57680 0.10320 0.73200 -0.33200
H 	H 	0.59050 0.11940 0.67100 0.71700
C 	C 	0.89790 0.24000 0.25000 0.07000
H 	H 	0.85150 0.22090 0.25000 0.03500
C 	C 	0.11270 0.32870 0.25000 0.37900
C 	C 	0.03890 0.29780 0.25000 -0.15400
C 	C 	0.76000 0.65790 0.25000 0.07000
H 	H 	0.77910 0.63060 0.25000 0.03400
C 	C 	0.67130 0.78400 0.25000 0.37900
C 	C 	0.70220 0.74110 0.25000 -0.15400
C 	C 	0.34210 0.10210 0.25000 0.07000
H 	H 	0.36940 0.14850 0.25000 0.03500
C 	C 	0.21600 0.88730 0.25000 0.37900
C 	C 	0.25890 0.96110 0.25000 -0.15400
C 	C 	0.10210 0.76000 0.75000 0.07000
H 	H 	0.14850 0.77910 0.75000 0.03500
C 	C 	0.88730 0.67130 0.75000 0.37900
C 	C 	0.96110 0.70220 0.75000 -0.15400
C 	C 	0.24000 0.34210 0.75000 0.07000
H 	H 	0.22090 0.36940 0.75000 0.03400
C 	C 	0.32870 0.21600 0.75000 0.37900
C 	C 	0.29780 0.25890 0.75000 -0.15400
C 	C 	0.65790 0.89790 0.75000 0.07000
H 	H 	0.63060 0.85150 0.75000 0.03500
C 	C 	0.78400 0.11270 0.75000 0.37900
C 	C 	0.74110 0.03890 0.75000 -0.15400
Co	Co	0.91106 0.38541 0.75000 1.07100
O 	O 	0.89405 0.28770 0.75000 -0.22900
H 	H 	0.92640 0.51460 0.75000 1.42400
Co	Co	0.61459 0.52565 0.75000 1.07100
O 	O 	0.71230 0.60635 0.75000 -0.22900
H 	H 	0.48540 0.41180 0.75000 1.42400
Co	Co	0.47435 0.08894 0.75000 1.07100
O 	O 	0.39365 0.10595 0.75000 -0.22900
H 	H 	0.58820 0.07360 0.75000 1.42400
Co	Co	0.08894 0.61459 0.25000 1.07100
O 	O 	0.10595 0.71230 0.25000 -0.22900
H 	H 	0.07360 0.48540 0.25000 1.42400
Co	Co	0.38541 0.47435 0.25000 1.07100
O 	O 	0.28770 0.39365 0.25000 -0.22900
H 	H 	0.51460 0.58820 0.25000 1.42400
Co	Co	0.52565 0.91106 0.25000 1.07100
O 	O 	0.60635 0.89405 0.25000 -0.22900
H 	H 	0.41180 0.92640 0.25000 1.42400
