data_crystal

_cell_length_a 12.28210
_cell_length_b 14.42600
_cell_length_c 12.57330
_cell_angle_alpha 90.00000
_cell_angle_beta  113.90900
_cell_angle_gamma 90.00000

_symmetry_space_group_name_	'P 1'
_symmetry_space_group_name_H-M	'P 1'

loop_
_symmetry_equiv_pos_as_xyz
  x,y,z

loop_
_atom_site_label
_atom_site_type_symbol
_atom_site_fract_x
_atom_site_fract_y
_atom_site_fract_z
_atom_site_charge
C 	C 	0.92640 0.25480 0.28690 -0.10800
C 	C 	0.03310 0.25240 0.27370 0.02700
H 	H 	0.09040 0.29740 0.30960 0.04100
C 	C 	0.05570 0.18370 0.20780 -0.15900
C 	C 	0.96890 0.11730 0.15430 0.09500
H 	H 	0.98330 0.07060 0.11060 0.01100
C 	C 	0.86080 0.11970 0.16510 -0.13300
C 	C 	0.84030 0.18800 0.23290 0.05800
H 	H 	0.76880 0.18890 0.24200 0.02200
C 	C 	0.90430 0.33140 0.35670 0.38500
C 	C 	0.16890 0.18700 0.18910 0.33700
C 	C 	0.76440 0.05120 0.09800 0.31400
C 	C 	0.89490 0.50860 0.73290 0.09900
H 	H 	0.84210 0.54150 0.66940 0.02900
C 	C 	0.91110 0.53440 0.84320 -0.20000
H 	H 	0.86910 0.58460 0.85390 0.12600
C 	C 	0.99000 0.48610 0.93930 0.25000
C 	C 	0.04970 0.41090 0.91730 -0.23000
H 	H 	0.10270 0.37640 0.97900 0.11700
C 	C 	0.03050 0.38760 0.80510 0.07600
H 	H 	0.07090 0.33760 0.79150 -0.01000
Co	Co	0.75977 0.36257 0.50355 1.13500
N 	N 	0.95430 0.43620 0.71570 -0.06700
O 	O 	0.80830 0.33034 0.36880 -0.47300
O 	O 	0.98630 0.39114 0.39730 -0.41300
O 	O 	0.23860 0.25370 0.23370 -0.29700
O 	O 	0.18430 0.12485 0.12640 -0.43500
O 	O 	0.78870 0.99878 0.02990 -0.39000
O 	O 	0.66890 0.05237 0.11100 -0.42000
O 	O 	0.93460 0.41111 0.60580 -0.45600
H 	H 	0.98300 0.35500 0.61750 0.14100
C 	C 	0.57360 0.75480 0.21310 -0.14800
C 	C 	0.46690 0.75240 0.22630 0.06900
H 	H 	0.40960 0.79740 0.19040 0.03100
C 	C 	0.44430 0.68370 0.29220 -0.12800
C 	C 	0.53110 0.61730 0.34570 0.06300
H 	H 	0.51670 0.57060 0.38940 0.03300
C 	C 	0.63920 0.61970 0.33490 -0.13400
C 	C 	0.65970 0.68800 0.26710 0.07600
H 	H 	0.73120 0.68890 0.25800 0.02100
C 	C 	0.59570 0.83140 0.14330 0.39700
C 	C 	0.33110 0.68700 0.31090 0.33300
C 	C 	0.73560 0.55120 0.40200 0.37300
C 	C 	0.60510 0.00860 0.76710 0.04400
H 	H 	0.65790 0.04150 0.83060 0.04300
C 	C 	0.58890 0.03440 0.65680 -0.20500
H 	H 	0.63090 0.08460 0.64610 0.11000
C 	C 	0.51000 0.98610 0.56070 0.19400
C 	C 	0.45030 0.91090 0.58270 -0.17600
H 	H 	0.39730 0.87640 0.52100 0.08200
C 	C 	0.46950 0.88760 0.69490 0.08300
H 	H 	0.42910 0.83760 0.70850 -0.00600
Co	Co	0.74023 0.86257 0.99645 1.15700
N 	N 	0.54570 0.93620 0.78430 -0.05800
O 	O 	0.69170 0.83034 0.13120 -0.47700
O 	O 	0.51370 0.89114 0.10270 -0.42900
O 	O 	0.26140 0.75370 0.26630 -0.29500
O 	O 	0.31570 0.62485 0.37360 -0.40600
O 	O 	0.71130 0.49878 0.47010 -0.42600
O 	O 	0.83110 0.55237 0.38900 -0.40100
O 	O 	0.56540 0.91111 0.89420 -0.43800
H 	H 	0.51700 0.85500 0.88250 0.13700
C 	C 	0.07360 0.74520 0.71310 -0.18000
C 	C 	0.96690 0.74760 0.72630 0.10600
H 	H 	0.90960 0.70260 0.69040 0.03200
C 	C 	0.94430 0.81630 0.79220 -0.08800
C 	C 	0.03110 0.88270 0.84570 0.02600
H 	H 	0.01670 0.92940 0.88940 0.05400
C 	C 	0.13920 0.88030 0.83490 -0.12600
C 	C 	0.15970 0.81200 0.76710 0.08600
H 	H 	0.23120 0.81110 0.75800 0.01900
C 	C 	0.09570 0.66860 0.64330 0.40900
C 	C 	0.83110 0.81300 0.81090 0.32900
C 	C 	0.23560 0.94880 0.90200 0.40200
C 	C 	0.10510 0.49140 0.26710 -0.05000
H 	H 	0.15790 0.45850 0.33060 0.07200
C 	C 	0.08890 0.46560 0.15680 0.03100
H 	H 	0.13090 0.41540 0.14610 0.01200
C 	C 	0.01000 0.51390 0.06070 -0.17900
C 	C 	0.95030 0.58910 0.08270 0.05400
H 	H 	0.89730 0.62360 0.02100 -0.01700
C 	C 	0.96950 0.61240 0.19490 -0.01200
H 	H 	0.92910 0.66240 0.20850 0.03100
Co	Co	0.24023 0.63743 0.49645 1.13600
N 	N 	0.04570 0.56380 0.28430 -0.04800
O 	O 	0.19170 0.66966 0.63120 -0.47500
O 	O 	0.01370 0.60886 0.60270 -0.45200
O 	O 	0.76140 0.74630 0.76630 -0.27700
O 	O 	0.81570 0.87515 0.87360 -0.37900
O 	O 	0.21130 0.00122 0.97010 -0.43000
O 	O 	0.33110 0.94763 0.88900 -0.39000
O 	O 	0.06540 0.58889 0.39420 -0.47000
H 	H 	0.01700 0.64500 0.38250 0.12400
C 	C 	0.42640 0.24520 0.78690 -0.13900
C 	C 	0.53310 0.24760 0.77370 0.06500
H 	H 	0.59040 0.20260 0.80960 0.04400
C 	C 	0.55570 0.31630 0.70780 -0.11800
C 	C 	0.46890 0.38270 0.65430 0.06200
H 	H 	0.48330 0.42940 0.61060 0.03600
C 	C 	0.36080 0.38030 0.66510 -0.13200
C 	C 	0.34030 0.31200 0.73290 0.07400
H 	H 	0.26880 0.31110 0.74200 0.02000
C 	C 	0.40430 0.16860 0.85670 0.39400
C 	C 	0.66890 0.31300 0.68910 0.33300
C 	C 	0.26440 0.44880 0.59800 0.37500
C 	C 	0.39490 0.99140 0.23290 0.02100
H 	H 	0.34210 0.95850 0.16940 0.05500
C 	C 	0.41110 0.96560 0.34320 0.03100
H 	H 	0.36910 0.91540 0.35390 0.03200
C 	C 	0.49000 0.01390 0.43930 -0.11500
C 	C 	0.54970 0.08910 0.41730 -0.01400
H 	H 	0.60270 0.12360 0.47900 0.01500
C 	C 	0.53050 0.11240 0.30510 -0.02000
H 	H 	0.57090 0.16240 0.29150 0.02400
Co	Co	0.25977 0.13743 0.00355 1.10600
N 	N 	0.45430 0.06380 0.21570 -0.06100
O 	O 	0.30830 0.16966 0.86880 -0.46100
O 	O 	0.48630 0.10886 0.89730 -0.41700
O 	O 	0.73860 0.24630 0.73370 -0.27800
O 	O 	0.68430 0.37515 0.62640 -0.40200
O 	O 	0.28870 0.50122 0.52990 -0.42900
O 	O 	0.16890 0.44763 0.61100 -0.41900
O 	O 	0.43460 0.08889 0.10580 -0.48600
H 	H 	0.48300 0.14500 0.11750 0.12900
Co	Co	0.00000 0.50000 0.50000 1.18200
Co	Co	0.50000 0.00000 -0.00000 1.15200
