data_crystal

_cell_length_a 12.17610
_cell_length_b 14.33600
_cell_length_c 12.55520
_cell_angle_alpha 90.00000
_cell_angle_beta  113.22000
_cell_angle_gamma 90.00000

_symmetry_space_group_name_	'P 1'
_symmetry_space_group_name_H-M	'P 1'

loop_
_symmetry_equiv_pos_as_xyz
  x,y,z

loop_
_atom_site_label
_atom_site_type_symbol
_atom_site_fract_x
_atom_site_fract_y
_atom_site_fract_z
_atom_site_charge
Ni	Ni	0.73837 0.63743 0.49530 1.08200
O 	O 	0.69160 0.66857 0.62900 -0.45300
O 	O 	0.56640 0.58756 0.39760 -0.45600
O 	O 	0.31350 0.87697 0.87460 -0.37800
O 	O 	0.71020 0.00384 0.96610 -0.42900
C 	C 	0.59370 0.66770 0.64120 0.38900
N 	N 	0.54690 0.56240 0.28570 -0.04800
C 	C 	0.57300 0.74480 0.71310 -0.12700
O 	O 	0.51060 0.60957 0.60010 -0.42100
C 	C 	0.46960 0.61190 0.19770 0.00000
C 	C 	0.60610 0.49060 0.26650 0.00200
O 	O 	0.83376 0.94638 0.88920 -0.36400
C 	C 	0.46560 0.74760 0.72670 0.05700
C 	C 	0.66030 0.81220 0.76580 0.07000
H 	H 	0.42830 0.66140 0.21250 0.02200
C 	C 	0.45120 0.58980 0.08580 -0.04200
C 	C 	0.59030 0.46490 0.15560 -0.03700
H 	H 	0.65900 0.45710 0.32920 0.06100
H 	H 	0.40790 0.70230 0.69170 0.04200
C 	C 	0.44320 0.81760 0.79230 -0.10200
C 	C 	0.64030 0.88070 0.83480 -0.12000
H 	H 	0.73160 0.81140 0.75500 0.03000
H 	H 	0.39910 0.62570 0.02530 0.01400
C 	C 	0.51000 0.51340 0.06090 -0.05300
H 	H 	0.63330 0.41510 0.14410 0.04300
C 	C 	0.53050 0.88370 0.84620 0.05700
C 	C 	0.32820 0.81350 0.81230 0.33100
C 	C 	0.73600 0.94960 0.90100 0.41300
H 	H 	0.51610 0.93050 0.89040 0.05800
O 	O 	0.25750 0.74835 0.76590 -0.28500
H 	H 	0.51730 0.64380 0.38620 0.13800
Ni	Ni	0.76163 0.13743 0.00470 1.05400
O 	O 	0.80840 0.16857 0.87100 -0.44000
O 	O 	0.93360 0.08756 0.10240 -0.47000
O 	O 	0.18650 0.37697 0.62540 -0.40500
O 	O 	0.78980 0.50384 0.53390 -0.41700
C 	C 	0.90630 0.16770 0.85880 0.36900
N 	N 	0.95310 0.06240 0.21430 -0.06000
C 	C 	0.92700 0.24480 0.78690 -0.07400
O 	O 	0.98940 0.10957 0.89990 -0.37700
C 	C 	0.03040 0.11190 0.30230 -0.01000
C 	C 	0.89390 0.99060 0.23350 0.07400
O 	O 	0.66624 0.44638 0.61080 -0.39600
C 	C 	0.03440 0.24760 0.77330 0.00200
C 	C 	0.83970 0.31220 0.73420 0.05300
H 	H 	0.07170 0.16140 0.28750 0.01400
C 	C 	0.04880 0.08980 0.41420 -0.11700
C 	C 	0.90970 0.96490 0.34440 -0.04000
H 	H 	0.84100 0.95710 0.17080 0.04500
H 	H 	0.09210 0.20230 0.80830 0.05600
C 	C 	0.05680 0.31760 0.70770 -0.13800
C 	C 	0.85970 0.38070 0.66520 -0.12400
H 	H 	0.76840 0.31140 0.74500 0.03200
H 	H 	0.10090 0.12570 0.47470 0.04800
C 	C 	0.99000 0.01340 0.43910 0.01700
H 	H 	0.86670 0.91510 0.35590 0.06300
C 	C 	0.96950 0.38370 0.65380 0.10200
C 	C 	0.17180 0.31350 0.68770 0.33400
C 	C 	0.76400 0.44960 0.59900 0.37900
H 	H 	0.98390 0.43050 0.60960 0.03700
O 	O 	0.24250 0.24835 0.73410 -0.28500
H 	H 	0.98270 0.14380 0.11380 0.14400
Ni	Ni	0.26163 0.36257 0.50470 1.07600
O 	O 	0.30840 0.33143 0.37100 -0.46700
O 	O 	0.43360 0.41244 0.60240 -0.45400
O 	O 	0.68650 0.12303 0.12540 -0.41800
O 	O 	0.28980 0.99616 0.03390 -0.38300
C 	C 	0.40630 0.33230 0.35880 0.38600
N 	N 	0.45310 0.43760 0.71430 -0.07100
C 	C 	0.42700 0.25520 0.28690 -0.13600
O 	O 	0.48940 0.39043 0.39990 -0.42400
C 	C 	0.53040 0.38810 0.80230 0.06900
C 	C 	0.39390 0.50940 0.73350 0.06400
O 	O 	0.16624 0.05362 0.11080 -0.41500
C 	C 	0.53440 0.25240 0.27330 0.05500
C 	C 	0.33970 0.18780 0.23420 0.05700
H 	H 	0.57170 0.33860 0.78750 0.00400
C 	C 	0.54880 0.41020 0.91420 -0.14300
C 	C 	0.40970 0.53510 0.84440 -0.14000
H 	H 	0.34100 0.54290 0.67080 0.03900
H 	H 	0.59210 0.29770 0.30830 0.04000
C 	C 	0.55680 0.18240 0.20770 -0.12000
C 	C 	0.35970 0.11930 0.16520 -0.12400
H 	H 	0.26840 0.18860 0.24500 0.02000
H 	H 	0.60090 0.37430 0.97470 0.08900
C 	C 	0.49000 0.48660 0.93910 0.13500
H 	H 	0.36670 0.58490 0.85590 0.10000
C 	C 	0.46950 0.11630 0.15380 0.04500
C 	C 	0.67180 0.18650 0.18770 0.32800
C 	C 	0.26400 0.05040 0.09900 0.30900
H 	H 	0.48390 0.06950 0.10960 0.02000
O 	O 	0.74250 0.25165 0.23410 -0.28600
H 	H 	0.48270 0.35620 0.61380 0.13600
Ni	Ni	0.23837 0.86257 0.99530 1.09800
O 	O 	0.19160 0.83143 0.12900 -0.46900
O 	O 	0.06640 0.91244 0.89760 -0.43200
O 	O 	0.81350 0.62303 0.37460 -0.38700
O 	O 	0.21020 0.49616 0.46610 -0.42500
C 	C 	0.09370 0.83230 0.14120 0.39800
N 	N 	0.04690 0.93760 0.78570 -0.06200
C 	C 	0.07300 0.75520 0.21310 -0.17700
O 	O 	0.01060 0.89043 0.10010 -0.43500
C 	C 	0.96960 0.88810 0.69770 0.07900
C 	C 	0.10610 0.00940 0.76650 -0.00000
O 	O 	0.33376 0.55362 0.38920 -0.40000
C 	C 	0.96560 0.75240 0.22670 0.09800
C 	C 	0.16030 0.68780 0.26580 0.07400
H 	H 	0.92830 0.83860 0.71250 0.01000
C 	C 	0.95120 0.91020 0.58580 -0.08000
C 	C 	0.09030 0.03510 0.65560 -0.14900
H 	H 	0.15900 0.04290 0.82920 0.05400
H 	H 	0.90790 0.79770 0.19170 0.03000
C 	C 	0.94320 0.68240 0.29230 -0.08400
C 	C 	0.14030 0.61930 0.33480 -0.12400
H 	H 	0.23160 0.68860 0.25500 0.01800
H 	H 	0.89910 0.87430 0.52530 0.05500
C 	C 	0.01000 0.98660 0.56090 0.07400
H 	H 	0.13330 0.08490 0.64410 0.08400
C 	C 	0.03050 0.61630 0.34620 0.00800
C 	C 	0.82820 0.68650 0.31230 0.32300
C 	C 	0.23600 0.55040 0.40100 0.37200
H 	H 	0.01610 0.56950 0.39040 0.04200
O 	O 	0.75750 0.75165 0.26590 -0.28400
H 	H 	0.01730 0.85620 0.88620 0.12800
Ni	Ni	0.50000 0.50000 0.50000 1.13300
Ni	Ni	-0.00000 0.00000 -0.00000 1.07500
