data_crystal

_cell_length_a 9.03620
_cell_length_b 17.48400
_cell_length_c 24.77200
_cell_angle_alpha 69.71700
_cell_angle_beta  84.87300
_cell_angle_gamma 82.90400

_symmetry_space_group_name_	'P 1'
_symmetry_space_group_name_H-M	'P 1'

loop_
_symmetry_equiv_pos_as_xyz
  x,y,z

loop_
_atom_site_label
_atom_site_type_symbol
_atom_site_fract_x
_atom_site_fract_y
_atom_site_fract_z
_atom_site_charge
Ba	Ba	0.74853 0.81612 0.68982 2.02400
Ba	Ba	0.24832 0.73573 0.76987 2.07100
O 	O 	0.54310 0.78310 0.78870 -0.53100
O 	O 	0.64570 0.71100 0.64020 -0.45900
O 	O 	0.35100 0.81830 0.83900 -0.40000
O 	O 	0.45070 0.77260 0.67300 -0.54800
O 	O 	0.59510 0.01760 0.74010 -0.53400
H 	H 	0.68010 0.99680 0.73630 0.30800
O 	O 	0.09850 0.87440 0.87950 -0.52100
H 	H 	0.08830 0.86500 0.91430 0.28100
O 	O 	0.85100 0.94270 0.71770 -0.46300
O 	O 	0.39660 0.77500 0.19020 -0.12500
O 	O 	0.45470 0.60590 0.77880 -0.52500
O 	O 	0.52760 0.70120 0.12480 -0.15600
O 	O 	0.54510 0.95090 0.68330 -0.50300
O 	O 	0.09990 0.07840 0.95700 -0.14900
C 	C 	0.50700 0.72650 0.64650 0.39000
O 	O 	0.89360 0.43700 0.54520 -0.12900
O 	O 	0.39990 0.49850 0.76000 -0.54800
H 	H 	0.31600 0.52320 0.75770 0.31300
O 	O 	0.40020 0.28720 0.69570 -0.13000
C 	C 	0.36300 0.59670 0.56990 -0.01700
O 	O 	0.54480 0.20660 0.63520 -0.15900
O 	O 	0.96320 0.21160 0.96570 -0.17800
C 	C 	0.45580 0.45980 0.55870 0.02300
O 	O 	0.03360 0.30380 0.53790 -0.15600
C 	C 	0.63430 0.91290 0.92300 -0.02200
C 	C 	0.40500 0.68730 0.62110 -0.17300
C 	C 	0.48720 0.81300 0.82580 0.38100
C 	C 	0.78540 0.89810 0.91430 0.03400
H 	H 	0.85040 0.91680 0.93290 0.02900
C 	C 	0.24500 0.96620 0.71280 0.10100
H 	H 	0.28320 0.92220 0.70120 -0.06300
C 	C 	0.45830 0.63280 0.59380 0.01800
H 	H 	0.56080 0.61930 0.59090 0.03000
C 	C 	0.02280 0.25010 0.69700 0.02700
C 	C 	0.21040 0.61420 0.57630 0.01600
H 	H 	0.14520 0.58870 0.56260 0.05400
C 	C 	0.59130 0.84170 0.85800 -0.16300
C 	C 	0.13420 0.10420 0.74080 -0.01500
C 	C 	0.52550 0.91300 0.02040 0.03400
C 	C 	0.42970 0.54640 0.53440 -0.02900
C 	C 	0.25210 0.70760 0.62510 0.10100
H 	H 	0.21460 0.74620 0.64210 -0.06500
C 	C 	0.95250 0.32530 0.70130 0.02600
C 	C 	0.09080 0.98170 0.72160 -0.16500
C 	C 	0.53840 0.88390 0.89500 0.01500
H 	H 	0.43590 0.89310 0.90150 0.04200
C 	C 	0.54380 0.04400 0.94170 0.02800
C 	C 	0.52760 0.41510 0.52380 0.02800
C 	C 	0.98880 0.92510 0.71390 0.39600
C 	C 	0.56850 0.95840 0.96330 -0.03500
C 	C 	0.06810 0.18400 0.74750 -0.03000
C 	C 	0.75470 0.56890 0.76640 0.11500
H 	H 	0.71780 0.61950 0.76930 -0.05200
C 	C 	0.04140 0.19370 0.80150 0.02600
C 	C 	0.74420 0.82770 0.84970 0.12900
H 	H 	0.78190 0.79950 0.82500 -0.06100
C 	C 	0.03770 0.05210 0.73400 0.01500
H 	H 	0.93520 0.06490 0.73790 0.03300
C 	C 	0.90620 0.54970 0.76200 -0.16400
C 	C 	0.28530 0.08560 0.73530 0.02100
H 	H 	0.35030 0.11930 0.74070 0.05300
C 	C 	0.97210 0.26870 0.80610 0.02800
C 	C 	0.86150 0.41540 0.76060 -0.01600
C 	C 	0.92810 0.33430 0.75610 -0.03000
C 	C 	0.95960 0.47190 0.75970 0.01300
H 	H 	0.06210 0.45760 0.75750 0.03300
C 	C 	0.15450 0.67070 0.60380 -0.16500
C 	C 	0.93240 0.38010 0.59740 0.09600
C 	C 	0.41050 0.41670 0.61750 -0.12500
H 	H 	0.36120 0.44570 0.64010 0.08700
C 	C 	0.00560 0.30550 0.59310 0.09400
C 	C 	0.43490 0.82620 0.13500 0.08700
C 	C 	0.43880 0.33440 0.64020 0.09100
C 	C 	0.05120 0.24270 0.64160 -0.12400
H 	H 	0.10140 0.19470 0.63810 0.08000
C 	C 	0.55800 0.32680 0.55030 -0.12800
H 	H 	0.60660 0.29620 0.52870 0.08200
C 	C 	0.41110 0.90900 0.11530 -0.12500
H 	H 	0.36410 0.93560 0.13980 0.08900
C 	C 	0.64600 0.16270 0.60700 -0.18700
H 	H 	0.60090 0.15970 0.57420 0.07600
H 	H 	0.67150 0.10830 0.63310 0.09100
H 	H 	0.73510 0.19030 0.59430 0.08900
C 	C 	0.08590 0.12910 0.85370 -0.13500
H 	H 	0.13320 0.08010 0.85100 0.09200
C 	C 	0.71120 0.43550 0.76420 0.02100
H 	H 	0.64560 0.39800 0.76500 0.05300
C 	C 	0.54980 0.82590 0.04450 -0.13500
H 	H 	0.59660 0.79700 0.02140 0.08400
C 	C 	0.50380 0.99170 0.71390 0.46300
C 	C 	0.33000 0.32840 0.73260 -0.30100
H 	H 	0.23570 0.35590 0.71790 0.13300
H 	H 	0.39260 0.36790 0.73450 0.15300
H 	H 	0.31420 0.28950 0.77050 0.14700
C 	C 	0.34160 0.01680 0.72160 -0.16200
C 	C 	0.99000 0.21020 0.91120 0.09900
C 	C 	0.06220 0.13640 0.90590 0.10000
C 	C 	0.65510 0.51370 0.76670 -0.18200
C 	C 	0.16460 0.00150 0.95520 -0.24200
H 	H 	0.10120 0.98090 0.93540 0.11600
H 	H 	0.17590 0.96380 0.99370 0.12300
H 	H 	0.26070 0.00760 0.93510 0.11600
C 	C 	0.50750 0.78410 0.09910 0.10500
C 	C 	0.90860 0.38930 0.64910 -0.13100
H 	H 	0.86220 0.43880 0.65120 0.09000
C 	C 	0.84280 0.85470 0.87740 -0.21200
C 	C 	0.00370 0.83650 0.86410 0.50200
C 	C 	0.82560 0.51320 0.54570 -0.29800
H 	H 	0.80300 0.54760 0.50720 0.14600
H 	H 	0.89220 0.53860 0.56080 0.15400
H 	H 	0.73500 0.50560 0.56960 0.13100
C 	C 	0.32740 0.81430 0.22890 -0.30900
H 	H 	0.23700 0.84620 0.21330 0.13600
H 	H 	0.39410 0.84950 0.23420 0.15700
H 	H 	0.30450 0.77360 0.26540 0.14900
C 	C 	0.94520 0.27510 0.86230 -0.12400
H 	H 	0.89720 0.32330 0.86620 0.08100
C 	C 	0.51610 0.28850 0.60640 0.10100
C 	C 	0.49460 0.54270 0.76930 0.48900
C 	C 	0.13300 0.23740 0.53200 -0.19900
H 	H 	0.15990 0.24740 0.49190 0.09300
H 	H 	0.08500 0.18780 0.54760 0.08100
H 	H 	0.22110 0.23220 0.55240 0.09200
C 	C 	0.62900 0.65820 0.09610 -0.20800
H 	H 	0.58380 0.65680 0.06280 0.08500
H 	H 	0.65240 0.60330 0.12160 0.09900
H 	H 	0.71810 0.68540 0.08440 0.09700
O 	O 	0.04520 0.86340 0.70260 -0.54500
O 	O 	0.95370 0.68450 0.75390 -0.52900
O 	O 	0.90110 0.64250 0.61190 -0.52900
H 	H 	0.81460 0.65990 0.61730 0.30600
O 	O 	0.95030 0.76140 0.61780 -0.51000
O 	O 	0.14640 0.59110 0.76210 -0.45500
O 	O 	0.04290 0.79030 0.83860 -0.51800
C 	C 	0.01040 0.61220 0.75860 0.38600
C 	C 	0.99240 0.69680 0.61190 0.45900
C 	C 	0.85900 0.26950 0.97640 -0.14900
H 	H 	0.76550 0.26740 0.96160 0.07900
H 	H 	0.89230 0.32290 0.95780 0.06700
H 	H 	0.84640 0.25860 0.01720 0.06400
Ba	Ba	0.25147 0.18388 0.31018 2.02300
Ba	Ba	0.75168 0.26427 0.23013 2.07000
O 	O 	0.45690 0.21690 0.21130 -0.53200
O 	O 	0.35430 0.28900 0.35980 -0.46000
O 	O 	0.64900 0.18170 0.16100 -0.40100
O 	O 	0.54930 0.22740 0.32700 -0.54900
O 	O 	0.40490 0.98240 0.25990 -0.53500
H 	H 	0.31990 0.00320 0.26370 0.30700
O 	O 	0.90150 0.12560 0.12050 -0.52200
H 	H 	0.91170 0.13500 0.08570 0.28000
O 	O 	0.14900 0.05730 0.28230 -0.46400
O 	O 	0.60340 0.22500 0.80980 -0.12600
O 	O 	0.54530 0.39410 0.22120 -0.52500
O 	O 	0.47240 0.29880 0.87520 -0.15600
O 	O 	0.45490 0.04910 0.31670 -0.50300
O 	O 	0.90010 0.92160 0.04300 -0.14900
C 	C 	0.49300 0.27350 0.35350 0.39000
O 	O 	0.10640 0.56300 0.45480 -0.12900
O 	O 	0.60010 0.50150 0.24000 -0.54800
H 	H 	0.68400 0.47680 0.24230 0.31300
O 	O 	0.59980 0.71280 0.30430 -0.13000
C 	C 	0.63700 0.40330 0.43010 -0.01700
O 	O 	0.45520 0.79340 0.36480 -0.15900
O 	O 	0.03680 0.78840 0.03430 -0.17800
C 	C 	0.54420 0.54020 0.44130 0.02300
O 	O 	0.96640 0.69620 0.46210 -0.15600
C 	C 	0.36570 0.08710 0.07700 -0.02200
C 	C 	0.59500 0.31270 0.37890 -0.17300
C 	C 	0.51280 0.18700 0.17420 0.38100
C 	C 	0.21460 0.10190 0.08570 0.03400
H 	H 	0.14960 0.08320 0.06710 0.02900
C 	C 	0.75500 0.03380 0.28720 0.10100
H 	H 	0.71680 0.07780 0.29880 -0.06300
C 	C 	0.54170 0.36720 0.40620 0.01800
H 	H 	0.43920 0.38070 0.40910 0.03000
C 	C 	0.97720 0.74990 0.30300 0.02700
C 	C 	0.78960 0.38580 0.42370 0.01600
H 	H 	0.85480 0.41130 0.43740 0.05400
C 	C 	0.40870 0.15830 0.14200 -0.16300
C 	C 	0.86580 0.89580 0.25920 -0.01500
C 	C 	0.47450 0.08700 0.97960 0.03400
C 	C 	0.57030 0.45360 0.46560 -0.02900
C 	C 	0.74790 0.29240 0.37490 0.10100
H 	H 	0.78540 0.25380 0.35790 -0.06500
C 	C 	0.04750 0.67470 0.29870 0.02600
C 	C 	0.90920 0.01830 0.27840 -0.16500
C 	C 	0.46160 0.11610 0.10500 0.01500
H 	H 	0.56410 0.10690 0.09850 0.04200
C 	C 	0.45620 0.95600 0.05830 0.02800
C 	C 	0.47240 0.58490 0.47620 0.02800
C 	C 	0.01120 0.07490 0.28610 0.39600
C 	C 	0.43150 0.04160 0.03670 -0.03500
C 	C 	0.93190 0.81600 0.25250 -0.03000
C 	C 	0.24530 0.43110 0.23360 0.11500
H 	H 	0.28220 0.38050 0.23070 -0.05200
C 	C 	0.95860 0.80630 0.19850 0.02600
C 	C 	0.25580 0.17230 0.15030 0.12900
H 	H 	0.21810 0.20050 0.17500 -0.06100
C 	C 	0.96230 0.94790 0.26600 0.01500
H 	H 	0.06480 0.93510 0.26210 0.03300
C 	C 	0.09380 0.45030 0.23800 -0.16400
C 	C 	0.71470 0.91440 0.26470 0.02100
H 	H 	0.64970 0.88070 0.25930 0.05300
C 	C 	0.02790 0.73130 0.19390 0.02800
C 	C 	0.13850 0.58460 0.23940 -0.01600
C 	C 	0.07190 0.66570 0.24390 -0.03000
C 	C 	0.04040 0.52810 0.24030 0.01300
H 	H 	0.93790 0.54240 0.24250 0.03300
C 	C 	0.84550 0.32930 0.39620 -0.16500
C 	C 	0.06760 0.61990 0.40260 0.09600
C 	C 	0.58950 0.58330 0.38250 -0.12500
H 	H 	0.63880 0.55430 0.35990 0.08700
C 	C 	0.99440 0.69450 0.40690 0.09400
C 	C 	0.56510 0.17380 0.86500 0.08700
C 	C 	0.56120 0.66560 0.35980 0.09100
C 	C 	0.94880 0.75730 0.35840 -0.12400
H 	H 	0.89860 0.80530 0.36190 0.08000
C 	C 	0.44200 0.67320 0.44970 -0.12800
H 	H 	0.39340 0.70380 0.47130 0.08200
C 	C 	0.58890 0.09100 0.88470 -0.12500
H 	H 	0.63590 0.06440 0.86020 0.08900
C 	C 	0.35400 0.83730 0.39300 -0.18700
H 	H 	0.39910 0.84030 0.42580 0.07600
H 	H 	0.32850 0.89170 0.36690 0.09100
H 	H 	0.26490 0.80970 0.40570 0.08900
C 	C 	0.91410 0.87090 0.14630 -0.13500
H 	H 	0.86680 0.91990 0.14900 0.09200
C 	C 	0.28880 0.56450 0.23580 0.02100
H 	H 	0.35440 0.60200 0.23500 0.05300
C 	C 	0.45020 0.17410 0.95550 -0.13500
H 	H 	0.40340 0.20300 0.97860 0.08400
C 	C 	0.49620 0.00830 0.28610 0.46300
C 	C 	0.67000 0.67160 0.26740 -0.30100
H 	H 	0.76430 0.64410 0.28210 0.13300
H 	H 	0.60740 0.63210 0.26550 0.15300
H 	H 	0.68580 0.71050 0.22950 0.14700
C 	C 	0.65840 0.98320 0.27840 -0.16200
C 	C 	0.01000 0.78980 0.08880 0.09900
C 	C 	0.93780 0.86360 0.09410 0.10000
C 	C 	0.34490 0.48630 0.23330 -0.18200
C 	C 	0.83540 0.99850 0.04480 -0.24200
H 	H 	0.89880 0.01910 0.06460 0.11600
H 	H 	0.82410 0.03620 0.00630 0.12300
H 	H 	0.73930 0.99240 0.06490 0.11600
C 	C 	0.49250 0.21590 0.90090 0.10500
C 	C 	0.09140 0.61070 0.35090 -0.13100
H 	H 	0.13780 0.56120 0.34880 0.09000
C 	C 	0.15720 0.14530 0.12260 -0.21200
C 	C 	0.99630 0.16350 0.13590 0.50200
C 	C 	0.17440 0.48680 0.45430 -0.29800
H 	H 	0.19700 0.45240 0.49280 0.14600
H 	H 	0.10780 0.46140 0.43920 0.15400
H 	H 	0.26500 0.49440 0.43040 0.13100
C 	C 	0.67260 0.18570 0.77110 -0.30900
H 	H 	0.76300 0.15380 0.78670 0.13600
H 	H 	0.60590 0.15050 0.76580 0.15700
H 	H 	0.69550 0.22640 0.73460 0.14900
C 	C 	0.05480 0.72490 0.13770 -0.12400
H 	H 	0.10280 0.67670 0.13380 0.08100
C 	C 	0.48390 0.71150 0.39360 0.10100
C 	C 	0.50540 0.45730 0.23070 0.48900
C 	C 	0.86700 0.76260 0.46800 -0.19900
H 	H 	0.84010 0.75260 0.50810 0.09300
H 	H 	0.91500 0.81220 0.45240 0.08100
H 	H 	0.77890 0.76780 0.44760 0.09200
C 	C 	0.37100 0.34180 0.90390 -0.20800
H 	H 	0.41620 0.34320 0.93720 0.08500
H 	H 	0.34760 0.39670 0.87840 0.09900
H 	H 	0.28190 0.31460 0.91560 0.09700
O 	O 	0.95480 0.13660 0.29740 -0.54500
O 	O 	0.04630 0.31550 0.24610 -0.52900
O 	O 	0.09890 0.35750 0.38810 -0.52900
H 	H 	0.18540 0.34010 0.38270 0.30600
O 	O 	0.04970 0.23860 0.38220 -0.51000
O 	O 	0.85360 0.40890 0.23790 -0.45500
O 	O 	0.95710 0.20970 0.16140 -0.51800
C 	C 	0.98960 0.38780 0.24140 0.38600
C 	C 	0.00760 0.30320 0.38810 0.45900
C 	C 	0.14100 0.73050 0.02360 -0.14900
H 	H 	0.23450 0.73260 0.03840 0.07900
H 	H 	0.10770 0.67710 0.04220 0.06700
H 	H 	0.15360 0.74140 0.98280 0.06400
