data_crystal

_cell_length_a 9.94280
_cell_length_b 10.43940
_cell_length_c 14.57790
_cell_angle_alpha 107.05000
_cell_angle_beta  109.12700
_cell_angle_gamma 90.07900

_symmetry_space_group_name_	'P 1'
_symmetry_space_group_name_H-M	'P 1'

loop_
_symmetry_equiv_pos_as_xyz
  x,y,z

loop_
_atom_site_label
_atom_site_type_symbol
_atom_site_fract_x
_atom_site_fract_y
_atom_site_fract_z
_atom_site_charge
Cd	Cd	0.10428 0.29784 0.20177 1.22700
O 	O 	0.89740 0.18510 0.06970 -0.46900
O 	O 	0.40930 0.04020 0.79130 -0.23500
O 	O 	0.85310 0.31580 0.20130 -0.31300
O 	O 	0.18400 0.49250 0.33780 -0.36100
O 	O 	0.33480 0.29820 0.18980 -0.39200
C 	C 	0.80850 0.23840 0.11410 0.34700
O 	O 	0.09910 0.51600 0.18500 -0.37500
C 	C 	0.40860 0.19680 0.04730 -0.15800
C 	C 	0.55430 0.23280 0.10350 0.06300
H 	H 	0.58480 0.27590 0.17360 0.04400
C 	C 	0.60920 0.13880 0.94960 -0.00700
H 	H 	0.67680 0.11910 0.91740 0.05200
C 	C 	0.65190 0.20370 0.05420 -0.13500
O 	O 	0.17210 0.17780 0.05160 -0.54100
C 	C 	0.36380 0.13390 0.94310 0.01000
H 	H 	0.26650 0.11200 0.90590 0.04300
O 	O 	0.08600 0.97100 0.14990 -0.43000
C 	C 	0.15160 0.56540 0.27960 0.28000
O 	O 	0.36720 0.97070 0.57470 -0.17600
C 	C 	0.46250 0.10320 0.89330 0.11200
C 	C 	0.12860 0.02840 0.24270 0.29100
C 	C 	0.29830 0.22560 0.10050 0.38700
O 	O 	0.14080 0.15090 0.28590 -0.43700
C 	C 	0.14630 0.79670 0.26540 -0.05100
H 	H 	0.09880 0.75860 0.19560 0.06400
C 	C 	0.19080 0.71620 0.32750 -0.00200
C 	C 	0.26480 0.76780 0.42950 -0.12600
H 	H 	0.29510 0.71080 0.46900 0.09800
C 	C 	0.17420 0.93730 0.30970 -0.01300
C 	C 	0.51110 0.98270 0.74070 0.12600
H 	H 	0.57550 0.93400 0.78080 0.00700
H 	H 	0.56780 0.05470 0.73620 -0.00000
C 	C 	0.24620 0.99330 0.41420 -0.05000
H 	H 	0.26190 0.08640 0.44370 0.05300
C 	C 	0.29490 0.90940 0.47480 0.16200
C 	C 	0.43300 0.88990 0.63660 -0.05900
H 	H 	0.49900 0.83670 0.60920 0.06500
H 	H 	0.36110 0.82900 0.63870 0.07200
Cd	Cd	0.89572 0.70216 0.79823 1.25800
O 	O 	0.10260 0.81490 0.93030 -0.48400
O 	O 	0.59070 0.95980 0.20870 -0.16400
O 	O 	0.14690 0.68420 0.79870 -0.35800
O 	O 	0.81600 0.50750 0.66220 -0.32700
O 	O 	0.66520 0.70180 0.81020 -0.36200
C 	C 	0.19150 0.76160 0.88590 0.29800
O 	O 	0.90090 0.48400 0.81500 -0.30600
C 	C 	0.59140 0.80320 0.95270 0.07800
C 	C 	0.44570 0.76720 0.89650 -0.10300
H 	H 	0.41520 0.72410 0.82640 0.09800
C 	C 	0.39080 0.86120 0.05040 -0.23300
H 	H 	0.32320 0.88090 0.08260 0.11600
C 	C 	0.34810 0.79630 0.94580 0.07400
O 	O 	0.82790 0.82220 0.94840 -0.42300
C 	C 	0.63620 0.86610 0.05690 -0.23400
H 	H 	0.73350 0.88800 0.09410 0.14400
O 	O 	0.91400 0.02900 0.85010 -0.43700
C 	C 	0.84840 0.43460 0.72040 0.26700
O 	O 	0.63280 0.02930 0.42530 -0.24400
C 	C 	0.53750 0.89680 0.10670 0.24900
C 	C 	0.87140 0.97160 0.75730 0.41900
C 	C 	0.70170 0.77440 0.89950 0.31200
O 	O 	0.85920 0.84910 0.71410 -0.41700
C 	C 	0.85370 0.20330 0.73460 -0.06400
H 	H 	0.90120 0.24140 0.80440 0.10600
C 	C 	0.80920 0.28380 0.67250 0.04800
C 	C 	0.73520 0.23220 0.57050 -0.17500
H 	H 	0.70490 0.28920 0.53100 0.12400
C 	C 	0.82580 0.06270 0.69030 -0.00600
C 	C 	0.48890 0.01730 0.25930 -0.14800
H 	H 	0.42450 0.06600 0.21920 0.06800
H 	H 	0.43220 0.94530 0.26380 0.12200
C 	C 	0.75380 0.00670 0.58580 -0.19900
H 	H 	0.73810 0.91360 0.55630 0.15900
C 	C 	0.70510 0.09060 0.52520 0.24300
C 	C 	0.56700 0.11010 0.36340 0.09300
H 	H 	0.50100 0.16330 0.39080 0.01100
H 	H 	0.63890 0.17100 0.36130 0.03400
Cd	Cd	-0.00000 0.00000 -0.00000 1.19000
