data_crystal

_cell_length_a 7.11600
_cell_length_b 13.98700
_cell_length_c 14.91600
_cell_angle_alpha 90.00000
_cell_angle_beta  101.59900
_cell_angle_gamma 90.00000

_symmetry_space_group_name_	'P 1'
_symmetry_space_group_name_H-M	'P 1'

loop_
_symmetry_equiv_pos_as_xyz
  x,y,z

loop_
_atom_site_label
_atom_site_type_symbol
_atom_site_fract_x
_atom_site_fract_y
_atom_site_fract_z
_atom_site_charge
Mn	Mn	0.23350 0.56536 0.03251 1.27400
O 	O 	0.79120 0.95547 0.37491 -0.48500
O 	O 	0.78200 0.53735 0.07534 -0.46200
O 	O 	0.03150 0.85750 0.43840 -0.47800
O 	O 	0.51060 0.61846 0.02513 -0.47200
C 	C 	0.74180 0.78140 0.12910 0.04500
C 	C 	0.74010 0.68250 0.14940 -0.13200
C 	C 	0.84570 0.81580 0.29370 -0.11200
C 	C 	0.85440 0.71910 0.30990 -0.01500
H 	H 	0.89640 0.69720 0.36940 0.04000
C 	C 	0.67230 0.60760 0.07770 0.36900
C 	C 	0.79290 0.84930 0.20140 0.04000
C 	C 	0.70110 0.81490 0.03700 -0.09400
H 	H 	0.66930 0.77140 0.98920 0.07000
C 	C 	0.80150 0.65230 0.23880 -0.01900
H 	H 	0.80790 0.58730 0.25200 0.03500
C 	C 	0.79900 0.94800 0.17850 -0.07900
H 	H 	0.83100 0.99340 0.22460 0.06100
C 	C 	0.89320 0.88250 0.37490 0.40400
C 	C 	0.70830 0.90980 0.01820 -0.01600
H 	H 	0.67970 0.93040 0.95770 0.03000
C 	C 	0.75770 0.97630 0.08810 -0.03400
H 	H 	0.76290 0.04090 0.07370 0.03700
Mn	Mn	0.76650 0.06536 0.46749 1.27400
O 	O 	0.20880 0.45547 0.12509 -0.48600
O 	O 	0.21800 0.03735 0.42466 -0.46500
O 	O 	0.96850 0.35750 0.06160 -0.47300
O 	O 	0.48940 0.11846 0.47487 -0.47200
C 	C 	0.25820 0.28140 0.37090 0.04800
C 	C 	0.25990 0.18250 0.35060 -0.13400
C 	C 	0.15430 0.31580 0.20630 -0.10900
C 	C 	0.14560 0.21910 0.19010 -0.01800
H 	H 	0.10360 0.19720 0.13060 0.03900
C 	C 	0.32770 0.10760 0.42230 0.37000
C 	C 	0.20710 0.34930 0.29860 0.03600
C 	C 	0.29890 0.31490 0.46300 -0.10000
H 	H 	0.33070 0.27140 0.51080 0.07400
C 	C 	0.19850 0.15230 0.26120 -0.01800
H 	H 	0.19210 0.08730 0.24800 0.03300
C 	C 	0.20100 0.44800 0.32150 -0.07400
H 	H 	0.16900 0.49340 0.27540 0.05800
C 	C 	0.10680 0.38250 0.12510 0.39600
C 	C 	0.29170 0.40980 0.48180 -0.01500
H 	H 	0.32030 0.43040 0.54230 0.03200
C 	C 	0.24230 0.47630 0.41190 -0.04100
H 	H 	0.23710 0.54090 0.42630 0.04000
Mn	Mn	0.76650 0.43464 0.96749 1.27300
O 	O 	0.20880 0.04453 0.62509 -0.48600
O 	O 	0.21800 0.46265 0.92466 -0.46300
O 	O 	0.96850 0.14250 0.56160 -0.47900
O 	O 	0.48940 0.38154 0.97487 -0.47200
C 	C 	0.25820 0.21860 0.87090 0.04500
C 	C 	0.25990 0.31750 0.85060 -0.13200
C 	C 	0.15430 0.18420 0.70630 -0.11200
C 	C 	0.14560 0.28090 0.69010 -0.01500
H 	H 	0.10360 0.30280 0.63060 0.04000
C 	C 	0.32770 0.39240 0.92230 0.36900
C 	C 	0.20710 0.15070 0.79860 0.04000
C 	C 	0.29890 0.18510 0.96300 -0.09400
H 	H 	0.33070 0.22860 0.01080 0.07000
C 	C 	0.19850 0.34770 0.76120 -0.01900
H 	H 	0.19210 0.41270 0.74800 0.03500
C 	C 	0.20100 0.05200 0.82150 -0.07900
H 	H 	0.16900 0.00660 0.77540 0.06100
C 	C 	0.10680 0.11750 0.62510 0.40400
C 	C 	0.29170 0.09020 0.98180 -0.01600
H 	H 	0.32030 0.06960 0.04230 0.03000
C 	C 	0.24230 0.02370 0.91190 -0.03400
H 	H 	0.23710 0.95910 0.92630 0.03700
Mn	Mn	0.23350 0.93464 0.53251 1.27400
O 	O 	0.79120 0.54453 0.87491 -0.48600
O 	O 	0.78200 0.96265 0.57534 -0.46500
O 	O 	0.03150 0.64250 0.93840 -0.47300
O 	O 	0.51060 0.88154 0.52513 -0.47200
C 	C 	0.74180 0.71860 0.62910 0.04800
C 	C 	0.74010 0.81750 0.64940 -0.13400
C 	C 	0.84570 0.68420 0.79370 -0.10900
C 	C 	0.85440 0.78090 0.80990 -0.01800
H 	H 	0.89640 0.80280 0.86940 0.03900
C 	C 	0.67230 0.89240 0.57770 0.37000
C 	C 	0.79290 0.65070 0.70140 0.03600
C 	C 	0.70110 0.68510 0.53700 -0.10000
H 	H 	0.66930 0.72860 0.48920 0.07400
C 	C 	0.80150 0.84770 0.73880 -0.01800
H 	H 	0.80790 0.91270 0.75200 0.03300
C 	C 	0.79900 0.55200 0.67850 -0.07400
H 	H 	0.83100 0.50660 0.72460 0.05800
C 	C 	0.89320 0.61750 0.87490 0.39600
C 	C 	0.70830 0.59020 0.51820 -0.01500
H 	H 	0.67970 0.56960 0.45770 0.03200
C 	C 	0.75770 0.52370 0.58810 -0.04100
H 	H 	0.76290 0.45910 0.57370 0.04000
