data_crystal

_cell_length_a 8.91470
_cell_length_b 9.72970
_cell_length_c 9.51790
_cell_angle_alpha 90.00000
_cell_angle_beta  115.74500
_cell_angle_gamma 90.00000

_symmetry_space_group_name_	'P 1'
_symmetry_space_group_name_H-M	'P 1'

loop_
_symmetry_equiv_pos_as_xyz
  x,y,z

loop_
_atom_site_label
_atom_site_type_symbol
_atom_site_fract_x
_atom_site_fract_y
_atom_site_fract_z
_atom_site_charge
Zn	Zn	0.82463 0.05862 0.06330 1.18100
O 	O 	0.67450 0.97140 0.17310 -0.37500
O 	O 	0.40940 0.92270 0.10860 -0.41400
N 	N 	0.89830 0.21200 0.22330 -0.29000
N 	N 	0.02740 0.39200 0.36430 -0.25300
N 	N 	0.90690 0.35310 0.40840 -0.24100
C 	C 	0.52410 0.96870 0.08160 0.22800
C 	C 	0.01770 0.30560 0.25390 0.10900
H 	H 	0.08620 0.30950 0.20310 -0.03200
C 	C 	0.83470 0.24490 0.32370 0.10100
H 	H 	0.74920 0.19640 0.33220 -0.02200
Zn	Zn	0.17537 0.55862 0.43670 1.19000
O 	O 	0.32550 0.47140 0.32690 -0.37800
O 	O 	0.59060 0.42270 0.39140 -0.41800
N 	N 	0.10170 0.71200 0.27670 -0.28300
N 	N 	0.97260 0.89200 0.13570 -0.24900
N 	N 	0.09310 0.85310 0.09160 -0.23700
C 	C 	0.47590 0.46870 0.41840 0.22500
C 	C 	0.98230 0.80560 0.24610 0.10100
H 	H 	0.91380 0.80950 0.29690 -0.02800
C 	C 	0.16530 0.74490 0.17630 0.10300
H 	H 	0.25080 0.69640 0.16780 -0.01900
Zn	Zn	0.17537 0.94138 0.93670 1.18200
O 	O 	0.32550 0.02860 0.82690 -0.37400
O 	O 	0.59060 0.07730 0.89140 -0.41400
N 	N 	0.10170 0.78800 0.77670 -0.29000
N 	N 	0.97260 0.60800 0.63570 -0.25300
N 	N 	0.09310 0.64690 0.59160 -0.24100
C 	C 	0.47590 0.03130 0.91840 0.22800
C 	C 	0.98230 0.69440 0.74610 0.10900
H 	H 	0.91380 0.69050 0.79690 -0.03200
C 	C 	0.16530 0.75510 0.67630 0.10100
H 	H 	0.25080 0.80360 0.66780 -0.02200
Zn	Zn	0.82463 0.44138 0.56330 1.19000
O 	O 	0.67450 0.52860 0.67310 -0.37800
O 	O 	0.40940 0.57730 0.60860 -0.41800
N 	N 	0.89830 0.28800 0.72330 -0.28300
N 	N 	0.02740 0.10800 0.86430 -0.24900
N 	N 	0.90690 0.14690 0.90840 -0.23700
C 	C 	0.52410 0.53130 0.58160 0.22500
C 	C 	0.01770 0.19440 0.75390 0.10100
H 	H 	0.08620 0.19050 0.70310 -0.02800
C 	C 	0.83470 0.25510 0.82370 0.10300
H 	H 	0.74920 0.30360 0.83220 -0.01900
