data_crystal

_cell_length_a 16.60520
_cell_length_b 16.07390
_cell_length_c 10.28190
_cell_angle_alpha 90.00000
_cell_angle_beta  94.40000
_cell_angle_gamma 90.00000

_symmetry_space_group_name_	'P 1'
_symmetry_space_group_name_H-M	'P 1'

loop_
_symmetry_equiv_pos_as_xyz
  x,y,z

loop_
_atom_site_label
_atom_site_type_symbol
_atom_site_fract_x
_atom_site_fract_y
_atom_site_fract_z
_atom_site_charge
Tb	Tb	0.03811 0.62257 0.54304 2.22000
O 	O 	0.35713 0.32015 0.44561 -1.44000
H 	H 	0.34800 0.34300 0.40100 1.02000
C 	C 	0.30887 0.33277 0.54370 0.71300
C 	C 	0.32135 0.28826 0.66130 -0.42500
C 	C 	0.26866 0.30206 0.75850 0.23400
H 	H 	0.27590 0.27110 0.83730 -0.01400
C 	C 	0.20596 0.35938 0.74440 -0.21300
C 	C 	0.19688 0.40606 0.62850 0.15300
C 	C 	0.24726 0.39183 0.52990 -0.46400
H 	H 	0.23980 0.42290 0.45130 0.16900
C 	C 	0.38902 0.22786 0.68930 0.62600
O 	O 	0.42014 0.19291 0.59651 -0.49400
O 	O 	0.41002 0.21506 0.80829 -0.55100
C 	C 	0.15015 0.36828 0.85010 0.37000
O 	O 	0.15708 0.32078 0.94732 -0.42400
O 	O 	0.09438 0.42327 0.84079 -0.49100
C 	C 	0.13658 0.47433 0.60650 0.30500
O 	O 	0.06771 0.46091 0.54841 -0.52300
O 	O 	0.15686 0.54701 0.64085 -0.42200
H 	H 	0.96700 0.52400 0.72300 0.58000
Tb	Tb	0.53810 0.12257 0.54304 2.06900
O 	O 	0.85713 0.82015 0.44561 -1.46400
H 	H 	0.84800 0.84300 0.40100 1.02400
C 	C 	0.80887 0.83277 0.54370 0.71200
C 	C 	0.82135 0.78826 0.66130 -0.43400
C 	C 	0.76866 0.80206 0.75850 0.23400
H 	H 	0.77590 0.77110 0.83730 -0.01700
C 	C 	0.70596 0.85938 0.74440 -0.22100
C 	C 	0.69688 0.90606 0.62850 0.14100
C 	C 	0.74726 0.89183 0.52990 -0.46500
H 	H 	0.73980 0.92290 0.45130 0.16400
C 	C 	0.88902 0.72786 0.68930 0.62400
O 	O 	0.92014 0.69291 0.59651 -0.55100
O 	O 	0.91002 0.71506 0.80829 -0.56200
C 	C 	0.65015 0.86828 0.85010 0.37200
O 	O 	0.65708 0.82078 0.94732 -0.42300
O 	O 	0.59438 0.92327 0.84079 -0.52000
C 	C 	0.63658 0.97433 0.60650 0.32100
O 	O 	0.56771 0.96091 0.54841 -0.58800
O 	O 	0.65686 0.04701 0.64085 -0.42100
H 	H 	0.46700 0.02400 0.72300 0.85100
Tb	Tb	0.96189 0.62257 0.95696 1.84200
O 	O 	0.64287 0.32015 0.05439 -1.44600
H 	H 	0.65200 0.34300 0.09900 1.02500
C 	C 	0.69113 0.33277 0.95630 0.71300
C 	C 	0.67865 0.28826 0.83870 -0.42400
C 	C 	0.73134 0.30206 0.74150 0.23000
H 	H 	0.72410 0.27110 0.66270 -0.01800
C 	C 	0.79404 0.35938 0.75560 -0.21600
C 	C 	0.80312 0.40606 0.87150 0.12800
C 	C 	0.75274 0.39183 0.97010 -0.44400
H 	H 	0.76020 0.42290 0.04870 0.15900
C 	C 	0.61098 0.22786 0.81070 0.62500
O 	O 	0.57986 0.19291 0.90349 -0.49300
O 	O 	0.58998 0.21506 0.69171 -0.55100
C 	C 	0.84985 0.36828 0.64990 0.36300
O 	O 	0.84292 0.32078 0.55268 -0.41800
O 	O 	0.90562 0.42327 0.65921 -0.51100
C 	C 	0.86342 0.47433 0.89350 0.33900
O 	O 	0.93229 0.46091 0.95159 -0.62800
O 	O 	0.84314 0.54701 0.85915 -0.40600
H 	H 	0.03300 0.52400 0.77700 0.69200
Tb	Tb	0.46189 0.12257 0.95696 2.07800
O 	O 	0.14287 0.82015 0.05439 -1.43300
H 	H 	0.15200 0.84300 0.09900 1.02800
C 	C 	0.19113 0.83277 0.95630 0.71800
C 	C 	0.17865 0.78826 0.83870 -0.41100
C 	C 	0.23134 0.80206 0.74150 0.23100
H 	H 	0.22410 0.77110 0.66270 -0.01400
C 	C 	0.29404 0.85938 0.75560 -0.21200
C 	C 	0.30312 0.90606 0.87150 0.13400
C 	C 	0.25274 0.89183 0.97010 -0.42700
H 	H 	0.26020 0.92290 0.04870 0.15100
C 	C 	0.11098 0.72786 0.81070 0.62000
O 	O 	0.07986 0.69291 0.90349 -0.43600
O 	O 	0.08998 0.71506 0.69171 -0.54400
C 	C 	0.34985 0.86828 0.64990 0.37300
O 	O 	0.34292 0.82078 0.55268 -0.42800
O 	O 	0.40562 0.92327 0.65921 -0.52400
C 	C 	0.36342 0.97433 0.89350 0.32800
O 	O 	0.43229 0.96091 0.95159 -0.58000
O 	O 	0.34314 0.04701 0.85915 -0.41700
H 	H 	0.53300 0.02400 0.77700 0.85100
Tb	Tb	0.96189 0.37743 0.45696 1.82900
O 	O 	0.64287 0.67985 0.55439 -1.43600
H 	H 	0.65200 0.65700 0.59900 1.02100
C 	C 	0.69113 0.66723 0.45630 0.70900
C 	C 	0.67865 0.71174 0.33870 -0.42400
C 	C 	0.73134 0.69794 0.24150 0.23100
H 	H 	0.72410 0.72890 0.16270 -0.02000
C 	C 	0.79404 0.64062 0.25560 -0.21800
C 	C 	0.80312 0.59394 0.37150 0.13000
C 	C 	0.75274 0.60817 0.47010 -0.45400
H 	H 	0.76020 0.57710 0.54870 0.16600
C 	C 	0.61098 0.77214 0.31070 0.62300
O 	O 	0.57986 0.80709 0.40349 -0.49300
O 	O 	0.58998 0.78494 0.19171 -0.55000
C 	C 	0.84985 0.63172 0.14990 0.36400
O 	O 	0.84292 0.67922 0.05268 -0.42300
O 	O 	0.90562 0.57673 0.15921 -0.51400
C 	C 	0.86342 0.52567 0.39350 0.33900
O 	O 	0.93229 0.53909 0.45159 -0.63300
O 	O 	0.84314 0.45299 0.35915 -0.40700
H 	H 	0.03300 0.47600 0.27700 0.69500
Tb	Tb	0.46189 0.87743 0.45696 2.06900
O 	O 	0.14287 0.17985 0.55439 -1.40500
H 	H 	0.15200 0.15700 0.59900 1.01500
C 	C 	0.19113 0.16723 0.45630 0.70600
C 	C 	0.17865 0.21174 0.33870 -0.41100
C 	C 	0.23134 0.19794 0.24150 0.23200
H 	H 	0.22410 0.22890 0.16270 -0.01600
C 	C 	0.29404 0.14062 0.25560 -0.21500
C 	C 	0.30312 0.09394 0.37150 0.14100
C 	C 	0.25274 0.10817 0.47010 -0.45100
H 	H 	0.26020 0.07710 0.54870 0.16900
C 	C 	0.11098 0.27214 0.31070 0.61800
O 	O 	0.07986 0.30709 0.40349 -0.44000
O 	O 	0.08998 0.28494 0.19171 -0.54300
C 	C 	0.34985 0.13172 0.14990 0.37400
O 	O 	0.34292 0.17922 0.05268 -0.43300
O 	O 	0.40562 0.07673 0.15921 -0.52700
C 	C 	0.36342 0.02567 0.39350 0.32200
O 	O 	0.43229 0.03909 0.45159 -0.58800
O 	O 	0.34314 0.95299 0.35915 -0.41500
H 	H 	0.53300 0.97600 0.27700 0.84900
Tb	Tb	0.03811 0.37743 0.04304 2.19800
O 	O 	0.35713 0.67985 0.94561 -1.41600
H 	H 	0.34800 0.65700 0.90100 1.00900
C 	C 	0.30887 0.66723 0.04370 0.70200
C 	C 	0.32135 0.71174 0.16130 -0.42400
C 	C 	0.26866 0.69794 0.25850 0.23400
H 	H 	0.27590 0.72890 0.33730 -0.01600
C 	C 	0.20596 0.64062 0.24440 -0.21600
C 	C 	0.19688 0.59394 0.12850 0.15700
C 	C 	0.24726 0.60817 0.02990 -0.48200
H 	H 	0.23980 0.57710 0.95130 0.18200
C 	C 	0.38902 0.77214 0.18930 0.62300
O 	O 	0.42014 0.80709 0.09651 -0.49700
O 	O 	0.41002 0.78494 0.30829 -0.55100
C 	C 	0.15015 0.63172 0.35010 0.37100
O 	O 	0.15708 0.67922 0.44732 -0.43100
O 	O 	0.09438 0.57673 0.34079 -0.49700
C 	C 	0.13658 0.52567 0.10650 0.30200
O 	O 	0.06771 0.53909 0.04841 -0.53000
O 	O 	0.15686 0.45299 0.14085 -0.42300
H 	H 	0.96700 0.47600 0.22300 0.58700
Tb	Tb	0.53810 0.87743 0.04304 2.04400
O 	O 	0.85713 0.17985 0.94561 -1.45700
H 	H 	0.84800 0.15700 0.90100 1.02000
C 	C 	0.80887 0.16723 0.04370 0.70900
C 	C 	0.82135 0.21174 0.16130 -0.43400
C 	C 	0.76866 0.19794 0.25850 0.23300
H 	H 	0.77590 0.22890 0.33730 -0.01900
C 	C 	0.70596 0.14062 0.24440 -0.22200
C 	C 	0.69688 0.09394 0.12850 0.14000
C 	C 	0.74726 0.10817 0.02990 -0.46700
H 	H 	0.73980 0.07710 0.95130 0.16700
C 	C 	0.88902 0.27214 0.18930 0.62200
O 	O 	0.92014 0.30709 0.09651 -0.54800
O 	O 	0.91002 0.28494 0.30829 -0.56100
C 	C 	0.65015 0.13172 0.35010 0.37300
O 	O 	0.65708 0.17922 0.44732 -0.43100
O 	O 	0.59438 0.07673 0.34079 -0.52600
C 	C 	0.63658 0.02567 0.10650 0.32400
O 	O 	0.56771 0.03909 0.04841 -0.59000
O 	O 	0.65686 0.95299 0.14085 -0.42400
H 	H 	0.46700 0.97600 0.22300 0.84800
O 	O 	0.00000 0.55200 0.75000 -1.44500
O 	O 	0.50000 0.05200 0.75000 -1.89800
O 	O 	0.00000 0.44800 0.25000 -1.45500
O 	O 	0.50000 0.94800 0.25000 -1.89300
