data_crystal

_cell_length_a 14.77760
_cell_length_b 12.40940
_cell_length_c 29.95540
_cell_angle_alpha 90.00000
_cell_angle_beta  115.57200
_cell_angle_gamma 90.00000

_symmetry_space_group_name_	'P 1'
_symmetry_space_group_name_H-M	'P 1'

loop_
_symmetry_equiv_pos_as_xyz
  x,y,z

loop_
_atom_site_label
_atom_site_type_symbol
_atom_site_fract_x
_atom_site_fract_y
_atom_site_fract_z
_atom_site_charge
Zn	Zn	0.74719 0.00315 0.76000 1.23400
Zn	Zn	0.37716 0.68318 0.82478 1.15400
O 	O 	0.83860 0.86010 0.73245 -0.32000
O 	O 	0.83671 0.89330 0.80465 -0.42200
O 	O 	0.38260 0.80210 0.25697 -0.51900
O 	O 	0.09350 0.60250 0.72688 -0.33600
O 	O 	0.61180 0.56160 0.22593 -0.48100
O 	O 	0.54570 0.46060 0.15705 -0.50900
O 	O 	0.23938 0.59420 0.79309 -0.58100
O 	O 	0.27264 0.89620 0.19324 -0.46900
C 	C 	0.87370 0.84870 0.77793 0.29500
C 	C 	0.96680 0.78220 0.80446 -0.04800
C 	C 	0.01180 0.77660 0.85498 -0.08100
H 	H 	0.98190 0.81030 0.87290 0.07000
C 	C 	0.33610 0.82290 0.21169 0.39400
C 	C 	0.35710 0.75290 0.17642 -0.11500
C 	C 	0.43790 0.68120 0.19481 0.03900
H 	H 	0.47880 0.67870 0.22860 0.02600
C 	C 	0.29810 0.75830 0.12571 -0.03500
H 	H 	0.24470 0.80650 0.11360 0.05000
C 	C 	0.31640 0.69430 0.09274 0.01900
C 	C 	0.25620 0.70350 0.03847 -0.09100
C 	C 	0.26500 0.79670 0.01399 0.07800
C 	C 	0.19290 0.61970 0.01175 0.06800
C 	C 	0.54490 0.53840 0.18370 0.39900
C 	C 	0.45770 0.61430 0.16335 -0.11600
C 	C 	0.39680 0.61930 0.11237 -0.03300
H 	H 	0.40910 0.57320 0.09110 0.03900
C 	C 	0.14400 0.62140 0.77086 0.31300
C 	C 	0.10020 0.67640 0.80140 -0.08800
C 	C 	0.01090 0.73130 0.77716 -0.01100
H 	H 	0.98020 0.73440 0.74280 0.05400
C 	C 	0.14680 0.67320 0.85263 -0.07300
H 	H 	0.20840 0.63890 0.86880 0.02700
C 	C 	0.10170 0.72130 0.88000 0.04700
C 	C 	0.15260 0.71710 0.93579 -0.12400
C 	C 	0.14100 0.62610 0.96025 0.11400
C 	C 	0.21330 0.80350 0.96255 0.10100
C 	C 	0.22130 0.90330 0.93583 -0.55900
H 	H 	0.22460 0.96570 0.95540 0.17600
H 	H 	0.16350 0.90850 0.90450 0.19200
H 	H 	0.28080 0.89940 0.93050 0.16300
C 	C 	0.06970 0.53770 0.93015 -0.59600
H 	H 	0.00550 0.54810 0.93030 0.19200
H 	H 	0.09620 0.46880 0.94440 0.19200
H 	H 	0.06230 0.54020 0.89670 0.20800
C 	C 	0.32870 0.89100 0.04281 -0.53400
H 	H 	0.33060 0.94460 0.02010 0.16100
H 	H 	0.39560 0.86650 0.06320 0.17400
H 	H 	0.30020 0.92160 0.06330 0.17900
C 	C 	0.17720 0.52240 0.03892 -0.52300
H 	H 	0.19960 0.53960 0.07330 0.18000
H 	H 	0.21490 0.46220 0.03570 0.16600
H 	H 	0.10720 0.50410 0.02480 0.16300
Zn	Zn	0.25281 0.50315 0.74000 1.23300
Zn	Zn	0.62284 0.18318 0.67522 1.15200
O 	O 	0.16140 0.36010 0.76755 -0.32100
O 	O 	0.16329 0.39330 0.69535 -0.42300
O 	O 	0.61740 0.30210 0.24303 -0.52000
O 	O 	0.90650 0.10250 0.77312 -0.33700
O 	O 	0.38820 0.06160 0.27407 -0.48000
O 	O 	0.45430 0.96060 0.34295 -0.50900
O 	O 	0.76062 0.09420 0.70691 -0.58100
O 	O 	0.72736 0.39620 0.30676 -0.46900
C 	C 	0.12630 0.34870 0.72207 0.29500
C 	C 	0.03320 0.28220 0.69554 -0.04800
C 	C 	0.98820 0.27660 0.64502 -0.08100
H 	H 	0.01810 0.31030 0.62710 0.07000
C 	C 	0.66390 0.32290 0.28831 0.39400
C 	C 	0.64290 0.25290 0.32358 -0.11500
C 	C 	0.56210 0.18120 0.30519 0.03900
H 	H 	0.52120 0.17870 0.27140 0.02600
C 	C 	0.70190 0.25830 0.37429 -0.03500
H 	H 	0.75530 0.30650 0.38640 0.05000
C 	C 	0.68360 0.19430 0.40726 0.01900
C 	C 	0.74380 0.20350 0.46153 -0.09100
C 	C 	0.73500 0.29670 0.48601 0.07900
C 	C 	0.80710 0.11970 0.48825 0.06800
C 	C 	0.45510 0.03840 0.31630 0.40000
C 	C 	0.54230 0.11430 0.33665 -0.11600
C 	C 	0.60320 0.11930 0.38763 -0.03300
H 	H 	0.59090 0.07320 0.40890 0.03900
C 	C 	0.85600 0.12140 0.72914 0.31300
C 	C 	0.89980 0.17640 0.69860 -0.08700
C 	C 	0.98910 0.23130 0.72284 -0.01200
H 	H 	0.01980 0.23440 0.75720 0.05400
C 	C 	0.85320 0.17320 0.64737 -0.07300
H 	H 	0.79160 0.13890 0.63120 0.02700
C 	C 	0.89830 0.22130 0.62000 0.04700
C 	C 	0.84740 0.21710 0.56421 -0.12300
C 	C 	0.85900 0.12610 0.53975 0.11400
C 	C 	0.78670 0.30350 0.53745 0.10000
C 	C 	0.77870 0.40330 0.56417 -0.55700
H 	H 	0.77540 0.46570 0.54460 0.17500
H 	H 	0.83650 0.40850 0.59550 0.19100
H 	H 	0.71920 0.39940 0.56950 0.16200
C 	C 	0.93030 0.03770 0.56985 -0.59500
H 	H 	0.99450 0.04810 0.56970 0.19200
H 	H 	0.90380 0.96880 0.55560 0.19200
H 	H 	0.93770 0.04020 0.60330 0.20800
C 	C 	0.67130 0.39100 0.45719 -0.53500
H 	H 	0.66940 0.44460 0.47990 0.16100
H 	H 	0.60440 0.36650 0.43680 0.17500
H 	H 	0.69980 0.42160 0.43670 0.17900
C 	C 	0.82280 0.02240 0.46108 -0.52200
H 	H 	0.80040 0.03960 0.42670 0.18000
H 	H 	0.78510 0.96220 0.46430 0.16600
H 	H 	0.89280 0.00410 0.47520 0.16300
Zn	Zn	0.25281 0.99685 0.24000 1.23300
Zn	Zn	0.62284 0.31682 0.17522 1.15300
O 	O 	0.16140 0.13990 0.26755 -0.32100
O 	O 	0.16329 0.10670 0.19535 -0.42300
O 	O 	0.61740 0.19790 0.74303 -0.52000
O 	O 	0.90650 0.39750 0.27312 -0.33700
O 	O 	0.38820 0.43840 0.77407 -0.48100
O 	O 	0.45430 0.53940 0.84295 -0.50900
O 	O 	0.76062 0.40580 0.20691 -0.58100
O 	O 	0.72736 0.10380 0.80676 -0.46900
C 	C 	0.12630 0.15130 0.22207 0.29500
C 	C 	0.03320 0.21780 0.19554 -0.04800
C 	C 	0.98820 0.22340 0.14502 -0.08100
H 	H 	0.01810 0.18970 0.12710 0.07000
C 	C 	0.66390 0.17710 0.78831 0.39400
C 	C 	0.64290 0.24710 0.82358 -0.11500
C 	C 	0.56210 0.31880 0.80519 0.03900
H 	H 	0.52120 0.32130 0.77140 0.02600
C 	C 	0.70190 0.24170 0.87429 -0.03500
H 	H 	0.75530 0.19350 0.88640 0.05000
C 	C 	0.68360 0.30570 0.90726 0.01900
C 	C 	0.74380 0.29650 0.96153 -0.09100
C 	C 	0.73500 0.20330 0.98601 0.07800
C 	C 	0.80710 0.38030 0.98825 0.06800
C 	C 	0.45510 0.46160 0.81630 0.39900
C 	C 	0.54230 0.38570 0.83665 -0.11600
C 	C 	0.60320 0.38070 0.88763 -0.03300
H 	H 	0.59090 0.42680 0.90890 0.03900
C 	C 	0.85600 0.37860 0.22914 0.31300
C 	C 	0.89980 0.32360 0.19860 -0.08800
C 	C 	0.98910 0.26870 0.22284 -0.01100
H 	H 	0.01980 0.26560 0.25720 0.05400
C 	C 	0.85320 0.32680 0.14737 -0.07300
H 	H 	0.79160 0.36110 0.13120 0.02700
C 	C 	0.89830 0.27870 0.12000 0.04700
C 	C 	0.84740 0.28290 0.06421 -0.12400
C 	C 	0.85900 0.37390 0.03975 0.11400
C 	C 	0.78670 0.19650 0.03745 0.10100
C 	C 	0.77870 0.09670 0.06417 -0.55900
H 	H 	0.77540 0.03430 0.04460 0.17600
H 	H 	0.83650 0.09150 0.09550 0.19200
H 	H 	0.71920 0.10060 0.06950 0.16300
C 	C 	0.93030 0.46230 0.06985 -0.59600
H 	H 	0.99450 0.45190 0.06970 0.19200
H 	H 	0.90380 0.53120 0.05560 0.19200
H 	H 	0.93770 0.45980 0.10330 0.20800
C 	C 	0.67130 0.10900 0.95719 -0.53400
H 	H 	0.66940 0.05540 0.97990 0.16100
H 	H 	0.60440 0.13350 0.93680 0.17400
H 	H 	0.69980 0.07840 0.93670 0.17900
C 	C 	0.82280 0.47760 0.96108 -0.52300
H 	H 	0.80040 0.46040 0.92670 0.18000
H 	H 	0.78510 0.53780 0.96430 0.16600
H 	H 	0.89280 0.49590 0.97520 0.16300
Zn	Zn	0.74719 0.49685 0.26000 1.23300
Zn	Zn	0.37716 0.81682 0.32478 1.15200
O 	O 	0.83860 0.63990 0.23245 -0.32100
O 	O 	0.83671 0.60670 0.30465 -0.42300
O 	O 	0.38260 0.69790 0.75697 -0.52000
O 	O 	0.09350 0.89750 0.22688 -0.33700
O 	O 	0.61180 0.93840 0.72593 -0.48000
O 	O 	0.54570 0.03940 0.65705 -0.50900
O 	O 	0.23938 0.90580 0.29309 -0.58100
O 	O 	0.27264 0.60380 0.69324 -0.46900
C 	C 	0.87370 0.65130 0.27793 0.29500
C 	C 	0.96680 0.71780 0.30446 -0.04800
C 	C 	0.01180 0.72340 0.35498 -0.08100
H 	H 	0.98190 0.68970 0.37290 0.07000
C 	C 	0.33610 0.67710 0.71169 0.39400
C 	C 	0.35710 0.74710 0.67642 -0.11500
C 	C 	0.43790 0.81880 0.69481 0.03900
H 	H 	0.47880 0.82130 0.72860 0.02600
C 	C 	0.29810 0.74170 0.62571 -0.03500
H 	H 	0.24470 0.69350 0.61360 0.05000
C 	C 	0.31640 0.80570 0.59274 0.01900
C 	C 	0.25620 0.79650 0.53847 -0.09100
C 	C 	0.26500 0.70330 0.51399 0.07900
C 	C 	0.19290 0.88030 0.51175 0.06800
C 	C 	0.54490 0.96160 0.68370 0.40000
C 	C 	0.45770 0.88570 0.66335 -0.11600
C 	C 	0.39680 0.88070 0.61237 -0.03300
H 	H 	0.40910 0.92680 0.59110 0.03900
C 	C 	0.14400 0.87860 0.27086 0.31300
C 	C 	0.10020 0.82360 0.30140 -0.08700
C 	C 	0.01090 0.76870 0.27716 -0.01200
H 	H 	0.98020 0.76560 0.24280 0.05400
C 	C 	0.14680 0.82680 0.35263 -0.07300
H 	H 	0.20840 0.86110 0.36880 0.02700
C 	C 	0.10170 0.77870 0.38000 0.04700
C 	C 	0.15260 0.78290 0.43579 -0.12300
C 	C 	0.14100 0.87390 0.46025 0.11400
C 	C 	0.21330 0.69650 0.46255 0.10000
C 	C 	0.22130 0.59670 0.43583 -0.55700
H 	H 	0.22460 0.53430 0.45540 0.17500
H 	H 	0.16350 0.59150 0.40450 0.19100
H 	H 	0.28080 0.60060 0.43050 0.16200
C 	C 	0.06970 0.96230 0.43015 -0.59500
H 	H 	0.00550 0.95190 0.43030 0.19200
H 	H 	0.09620 0.03120 0.44440 0.19200
H 	H 	0.06230 0.95980 0.39670 0.20800
C 	C 	0.32870 0.60900 0.54281 -0.53500
H 	H 	0.33060 0.55540 0.52010 0.16100
H 	H 	0.39560 0.63350 0.56320 0.17500
H 	H 	0.30020 0.57840 0.56330 0.17900
C 	C 	0.17720 0.97760 0.53892 -0.52200
H 	H 	0.19960 0.96040 0.57330 0.18000
H 	H 	0.21490 0.03780 0.53570 0.16600
H 	H 	0.10720 0.99590 0.52480 0.16300
