data_crystal

_cell_length_a 24.30800
_cell_length_b 9.36400
_cell_length_c 19.13090
_cell_angle_alpha 90.00000
_cell_angle_beta  125.63600
_cell_angle_gamma 90.00000

_symmetry_space_group_name_	'P 1'
_symmetry_space_group_name_H-M	'P 1'

loop_
_symmetry_equiv_pos_as_xyz
  x,y,z

loop_
_atom_site_label
_atom_site_type_symbol
_atom_site_fract_x
_atom_site_fract_y
_atom_site_fract_z
_atom_site_charge
O 	O 	0.62315 0.46520 0.37229 -0.31900
O 	O 	0.57286 0.67580 0.34033 -0.34000
O 	O 	0.53089 0.54050 0.66387 -0.38800
O 	O 	0.54353 0.76820 0.70250 -0.27000
C 	C 	0.62379 0.59690 0.38313 0.28600
C 	C 	0.55090 0.66610 0.66683 0.32100
C 	C 	0.73495 0.68560 0.42668 -0.03500
H 	H 	0.72460 0.64090 0.37690 0.05900
C 	C 	0.69011 0.67130 0.44869 -0.04100
C 	C 	0.70520 0.73630 0.52448 0.01600
C 	C 	0.66134 0.72130 0.55521 0.07000
C 	C 	0.62844 0.59320 0.54605 -0.10800
H 	H 	0.63120 0.51750 0.51680 0.08800
C 	C 	0.59180 0.57760 0.57998 0.03700
H 	H 	0.56960 0.49190 0.57240 0.04300
C 	C 	0.58755 0.68790 0.62525 -0.08600
C 	C 	0.61882 0.81670 0.63275 0.03500
H 	H 	0.61510 0.89280 0.66100 0.04400
C 	C 	0.65549 0.83340 0.59862 -0.10700
H 	H 	0.67640 0.92020 0.60470 0.08100
O 	O 	0.12315 0.96520 0.37229 -0.33500
O 	O 	0.07286 0.17580 0.34033 -0.36900
O 	O 	0.03089 0.04050 0.66387 -0.41900
O 	O 	0.04353 0.26820 0.70250 -0.30000
C 	C 	0.12379 0.09690 0.38313 0.29200
C 	C 	0.05090 0.16610 0.66683 0.32600
C 	C 	0.23495 0.18560 0.42668 -0.03400
H 	H 	0.22460 0.14090 0.37690 0.05500
C 	C 	0.19011 0.17130 0.44869 -0.04700
C 	C 	0.20520 0.23630 0.52448 0.01200
C 	C 	0.16134 0.22130 0.55521 0.07100
C 	C 	0.12844 0.09320 0.54605 -0.12200
H 	H 	0.13120 0.01750 0.51680 0.08400
C 	C 	0.09180 0.07760 0.57998 0.04200
H 	H 	0.06960 0.99190 0.57240 0.02400
C 	C 	0.08755 0.18790 0.62525 -0.10600
C 	C 	0.11882 0.31670 0.63275 0.04000
H 	H 	0.11510 0.39280 0.66100 0.03300
C 	C 	0.15549 0.33340 0.59862 -0.12000
H 	H 	0.17640 0.42020 0.60470 0.07900
O 	O 	0.37685 0.46520 0.12771 -0.31800
O 	O 	0.42714 0.67580 0.15967 -0.33800
O 	O 	0.46911 0.54050 0.83613 -0.39100
O 	O 	0.45647 0.76820 0.79750 -0.27200
C 	C 	0.37621 0.59690 0.11687 0.28000
C 	C 	0.44910 0.66610 0.83317 0.32200
C 	C 	0.26505 0.68560 0.07332 -0.05300
H 	H 	0.27540 0.64090 0.12310 0.06300
C 	C 	0.30989 0.67130 0.05131 -0.01900
C 	C 	0.29480 0.73630 0.97552 -0.01100
C 	C 	0.33866 0.72130 0.94479 0.07700
C 	C 	0.37156 0.59320 0.95395 -0.11700
H 	H 	0.36880 0.51750 0.98320 0.08700
C 	C 	0.40820 0.57760 0.92002 0.04100
H 	H 	0.43040 0.49190 0.92760 0.03900
C 	C 	0.41245 0.68790 0.87475 -0.09200
C 	C 	0.38118 0.81670 0.86725 0.03900
H 	H 	0.38490 0.89280 0.83900 0.04100
C 	C 	0.34451 0.83340 0.90138 -0.11600
H 	H 	0.32360 0.92020 0.89530 0.08200
O 	O 	0.87685 0.96520 0.12771 -0.29700
O 	O 	0.92714 0.17580 0.15967 -0.30100
O 	O 	0.96911 0.04050 0.83613 -0.35300
O 	O 	0.95647 0.26820 0.79750 -0.23800
C 	C 	0.87621 0.09690 0.11687 0.27500
C 	C 	0.94910 0.16610 0.83317 0.31700
C 	C 	0.76505 0.18560 0.07332 -0.05500
H 	H 	0.77540 0.14090 0.12310 0.06700
C 	C 	0.80989 0.17130 0.05131 -0.01200
C 	C 	0.79480 0.23630 0.97552 -0.00800
C 	C 	0.83866 0.22130 0.94479 0.07700
C 	C 	0.87156 0.09320 0.95395 -0.10400
H 	H 	0.86880 0.01750 0.98320 0.09100
C 	C 	0.90820 0.07760 0.92002 0.03700
H 	H 	0.93040 0.99190 0.92760 0.05800
C 	C 	0.91245 0.18790 0.87475 -0.07200
C 	C 	0.88118 0.31670 0.86725 0.03400
H 	H 	0.88490 0.39280 0.83900 0.05200
C 	C 	0.84451 0.33340 0.90138 -0.10400
H 	H 	0.82360 0.42020 0.89530 0.08400
O 	O 	0.37685 0.53480 0.62771 -0.32200
O 	O 	0.42714 0.32420 0.65967 -0.34200
O 	O 	0.46911 0.45950 0.33613 -0.38900
O 	O 	0.45647 0.23180 0.29750 -0.27000
C 	C 	0.37621 0.40310 0.61687 0.28700
C 	C 	0.44910 0.33390 0.33317 0.32100
C 	C 	0.26505 0.31440 0.57332 -0.03600
H 	H 	0.27540 0.35910 0.62310 0.05600
C 	C 	0.30989 0.32870 0.55131 -0.04300
C 	C 	0.29480 0.26370 0.47552 0.01400
C 	C 	0.33866 0.27870 0.44479 0.06900
C 	C 	0.37156 0.40680 0.45395 -0.10800
H 	H 	0.36880 0.48250 0.48320 0.08700
C 	C 	0.40820 0.42240 0.42002 0.03700
H 	H 	0.43040 0.50810 0.42760 0.04300
C 	C 	0.41245 0.31210 0.37475 -0.08600
C 	C 	0.38118 0.18330 0.36725 0.03500
H 	H 	0.38490 0.10720 0.33900 0.04400
C 	C 	0.34451 0.16660 0.40138 -0.10800
H 	H 	0.32360 0.07980 0.39530 0.08000
O 	O 	0.87685 0.03480 0.62771 -0.30100
O 	O 	0.92714 0.82420 0.65967 -0.30600
O 	O 	0.96911 0.95950 0.33613 -0.35000
O 	O 	0.95647 0.73180 0.29750 -0.23600
C 	C 	0.87621 0.90310 0.61687 0.28000
C 	C 	0.94910 0.83390 0.33317 0.31500
C 	C 	0.76505 0.81440 0.57332 -0.03600
H 	H 	0.77540 0.85910 0.62310 0.06000
C 	C 	0.80989 0.82870 0.55131 -0.03700
C 	C 	0.79480 0.76370 0.47552 0.01800
C 	C 	0.83866 0.77870 0.44479 0.06800
C 	C 	0.87156 0.90680 0.45395 -0.09300
H 	H 	0.86880 0.98250 0.48320 0.09200
C 	C 	0.90820 0.92240 0.42002 0.03100
H 	H 	0.93040 0.00810 0.42760 0.06400
C 	C 	0.91245 0.81210 0.37475 -0.06500
C 	C 	0.88118 0.68330 0.36725 0.02900
H 	H 	0.88490 0.60720 0.33900 0.05600
C 	C 	0.84451 0.66660 0.40138 -0.09500
H 	H 	0.82360 0.57980 0.39530 0.08200
O 	O 	0.62315 0.53480 0.87229 -0.32400
O 	O 	0.57286 0.32420 0.84033 -0.34500
O 	O 	0.53089 0.45950 0.16387 -0.38700
O 	O 	0.54353 0.23180 0.20250 -0.26800
C 	C 	0.62379 0.40310 0.88313 0.29300
C 	C 	0.55090 0.33390 0.16683 0.32000
C 	C 	0.73495 0.31440 0.92668 -0.01700
H 	H 	0.72460 0.35910 0.87690 0.05200
C 	C 	0.69011 0.32870 0.94869 -0.06600
C 	C 	0.70520 0.26370 0.02448 0.04100
C 	C 	0.66134 0.27870 0.05521 0.06100
C 	C 	0.62844 0.40680 0.04605 -0.09900
H 	H 	0.63120 0.48250 0.01680 0.08900
C 	C 	0.59180 0.42240 0.07998 0.03300
H 	H 	0.56960 0.50810 0.07240 0.04700
C 	C 	0.58755 0.31210 0.12525 -0.08100
C 	C 	0.61882 0.18330 0.13275 0.03100
H 	H 	0.61510 0.10720 0.16100 0.04700
C 	C 	0.65549 0.16660 0.09862 -0.09900
H 	H 	0.67640 0.07980 0.10470 0.07900
O 	O 	0.12315 0.03480 0.87229 -0.33800
O 	O 	0.07286 0.82420 0.84033 -0.37400
O 	O 	0.03089 0.95950 0.16387 -0.41700
O 	O 	0.04353 0.73180 0.20250 -0.29800
C 	C 	0.12379 0.90310 0.88313 0.29700
C 	C 	0.05090 0.83390 0.16683 0.32400
C 	C 	0.23495 0.81440 0.92668 -0.01700
H 	H 	0.22460 0.85910 0.87690 0.04900
C 	C 	0.19011 0.82870 0.94869 -0.07100
C 	C 	0.20520 0.76370 0.02448 0.03700
C 	C 	0.16134 0.77870 0.05521 0.06200
C 	C 	0.12844 0.90680 0.04605 -0.11300
H 	H 	0.13120 0.98250 0.01680 0.08500
C 	C 	0.09180 0.92240 0.07998 0.03700
H 	H 	0.06960 0.00810 0.07240 0.02900
C 	C 	0.08755 0.81210 0.12525 -0.10000
C 	C 	0.11882 0.68330 0.13275 0.03500
H 	H 	0.11510 0.60720 0.16100 0.03600
C 	C 	0.15549 0.66660 0.09862 -0.11100
H 	H 	0.17640 0.57980 0.10470 0.07800
Cd	Cd	0.50000 0.49656 0.25000 1.24700
Cd	Cd	0.00000 0.99656 0.25000 1.22000
Cd	Cd	0.50000 0.50344 0.75000 1.24700
Cd	Cd	0.00000 0.00344 0.75000 1.22000
