data_crystal

_cell_length_a 28.28600
_cell_length_b 9.88760
_cell_length_c 10.49940
_cell_angle_alpha 90.00000
_cell_angle_beta  108.08300
_cell_angle_gamma 90.00000

_symmetry_space_group_name_	'P 1'
_symmetry_space_group_name_H-M	'P 1'

loop_
_symmetry_equiv_pos_as_xyz
  x,y,z

loop_
_atom_site_label
_atom_site_type_symbol
_atom_site_fract_x
_atom_site_fract_y
_atom_site_fract_z
_atom_site_charge
O 	O 	0.53150 0.64160 0.67990 -0.49100
O 	O 	0.59808 0.74540 0.79620 -0.35000
C 	C 	0.55420 0.74990 0.72400 0.35000
C 	C 	0.52690 0.87970 0.69540 -0.06100
C 	C 	0.47500 0.88130 0.64310 0.05900
H 	H 	0.45800 0.79950 0.62540 0.02200
C 	C 	0.36960 0.10680 0.47970 -0.04800
H 	H 	0.38820 0.17720 0.46080 0.04900
C 	C 	0.31650 0.10600 0.42220 -0.02600
H 	H 	0.30020 0.17310 0.36310 0.04700
C 	C 	0.31180 0.90400 0.54880 0.04700
H 	H 	0.29280 0.83690 0.57190 0.03200
C 	C 	0.36490 0.89600 0.60410 -0.04700
H 	H 	0.37990 0.82890 0.66570 0.06500
O 	O 	0.03150 0.14160 0.67990 -0.51800
O 	O 	0.09808 0.24540 0.79620 -0.37400
C 	C 	0.05420 0.24990 0.72400 0.38900
C 	C 	0.02690 0.37970 0.69540 -0.18500
C 	C 	0.97500 0.38130 0.64310 0.08500
H 	H 	0.95800 0.29950 0.62540 0.01200
C 	C 	0.86960 0.60680 0.47970 -0.04800
H 	H 	0.88820 0.67720 0.46080 0.05900
C 	C 	0.81650 0.60600 0.42220 -0.04000
H 	H 	0.80020 0.67310 0.36310 0.06300
C 	C 	0.81180 0.40400 0.54880 -0.04100
H 	H 	0.79280 0.33690 0.57190 0.05100
C 	C 	0.86490 0.39600 0.60410 -0.04800
H 	H 	0.87990 0.32890 0.66570 0.05800
O 	O 	0.46850 0.64160 0.32010 -0.49100
O 	O 	0.40192 0.74540 0.20380 -0.34900
C 	C 	0.44580 0.74990 0.27600 0.35000
C 	C 	0.47310 0.87970 0.30460 -0.06100
C 	C 	0.52500 0.88130 0.35690 0.05900
H 	H 	0.54200 0.79950 0.37460 0.02200
C 	C 	0.63040 0.10680 0.52030 -0.04800
H 	H 	0.61180 0.17720 0.53920 0.04900
C 	C 	0.68350 0.10600 0.57780 -0.02600
H 	H 	0.69980 0.17310 0.63690 0.04700
C 	C 	0.68820 0.90400 0.45120 0.04700
H 	H 	0.70720 0.83690 0.42810 0.03200
C 	C 	0.63510 0.89600 0.39590 -0.04700
H 	H 	0.62010 0.82890 0.33430 0.06500
O 	O 	0.96850 0.14160 0.32010 -0.48800
O 	O 	0.90192 0.24540 0.20380 -0.36000
C 	C 	0.94580 0.24990 0.27600 0.34300
C 	C 	0.97310 0.37970 0.30460 -0.04800
C 	C 	0.02500 0.38130 0.35690 -0.07200
H 	H 	0.04200 0.29950 0.37460 0.05500
C 	C 	0.13040 0.60680 0.52030 -0.02300
H 	H 	0.11180 0.67720 0.53920 0.04900
C 	C 	0.18350 0.60600 0.57780 -0.05400
H 	H 	0.19980 0.67310 0.63690 0.06800
C 	C 	0.18820 0.40400 0.45120 -0.05300
H 	H 	0.20720 0.33690 0.42810 0.05400
C 	C 	0.13510 0.39600 0.39590 -0.03200
H 	H 	0.12010 0.32890 0.33430 0.05000
O 	O 	0.46850 0.35840 0.32010 -0.49500
O 	O 	0.40192 0.25460 0.20380 -0.36900
C 	C 	0.44580 0.25010 0.27600 0.35600
C 	C 	0.47310 0.12030 0.30460 -0.10100
C 	C 	0.52500 0.11870 0.35690 0.00600
H 	H 	0.54200 0.20050 0.37460 0.03300
C 	C 	0.63040 0.89320 0.52030 0.01200
H 	H 	0.61180 0.82280 0.53920 0.03700
C 	C 	0.68350 0.89400 0.57780 -0.02000
H 	H 	0.69980 0.82690 0.63690 0.05900
C 	C 	0.68820 0.09600 0.45120 -0.02900
H 	H 	0.70720 0.16310 0.42810 0.04300
C 	C 	0.63510 0.10400 0.39590 -0.05300
H 	H 	0.62010 0.17110 0.33430 0.05400
O 	O 	0.96850 0.85840 0.32010 -0.44400
O 	O 	0.90192 0.75460 0.20380 -0.33500
C 	C 	0.94580 0.75010 0.27600 0.33300
C 	C 	0.97310 0.62030 0.30460 -0.03900
C 	C 	0.02500 0.61870 0.35690 -0.07600
H 	H 	0.04200 0.70050 0.37460 0.06600
C 	C 	0.13040 0.39320 0.52030 -0.02800
H 	H 	0.11180 0.32280 0.53920 0.04200
C 	C 	0.18350 0.39400 0.57780 -0.05100
H 	H 	0.19980 0.32690 0.63690 0.05600
C 	C 	0.18820 0.59600 0.45120 -0.04900
H 	H 	0.20720 0.66310 0.42810 0.06200
C 	C 	0.13510 0.60400 0.39590 -0.03600
H 	H 	0.12010 0.67110 0.33430 0.06200
O 	O 	0.53150 0.35840 0.67990 -0.49500
O 	O 	0.59808 0.25460 0.79620 -0.36900
C 	C 	0.55420 0.25010 0.72400 0.35600
C 	C 	0.52690 0.12030 0.69540 -0.10100
C 	C 	0.47500 0.11870 0.64310 0.00600
H 	H 	0.45800 0.20050 0.62540 0.03300
C 	C 	0.36960 0.89320 0.47970 0.01200
H 	H 	0.38820 0.82280 0.46080 0.03700
C 	C 	0.31650 0.89400 0.42220 -0.02000
H 	H 	0.30020 0.82690 0.36310 0.06000
C 	C 	0.31180 0.09600 0.54880 -0.02900
H 	H 	0.29280 0.16310 0.57190 0.04300
C 	C 	0.36490 0.10400 0.60410 -0.05300
H 	H 	0.37990 0.17110 0.66570 0.05400
O 	O 	0.03150 0.85840 0.67990 -0.47200
O 	O 	0.09808 0.75460 0.79620 -0.34900
C 	C 	0.05420 0.75010 0.72400 0.37900
C 	C 	0.02690 0.62030 0.69540 -0.17600
C 	C 	0.97500 0.61870 0.64310 0.08000
H 	H 	0.95800 0.70050 0.62540 0.02300
C 	C 	0.86960 0.39320 0.47970 -0.05300
H 	H 	0.88820 0.32280 0.46080 0.05300
C 	C 	0.81650 0.39400 0.42220 -0.03700
H 	H 	0.80020 0.32690 0.36310 0.05100
C 	C 	0.81180 0.59600 0.54880 -0.03700
H 	H 	0.79280 0.66310 0.57190 0.05800
C 	C 	0.86490 0.60400 0.60410 -0.05200
H 	H 	0.87990 0.67110 0.66570 0.07000
Cd	Cd	0.50000 0.50000 0.50000 1.24600
Cd	Cd	0.00000 0.00000 0.50000 1.22500
Cd	Cd	0.60066 0.50000 0.79285 1.24200
Cd	Cd	0.10066 0.00000 0.79285 1.23200
Cd	Cd	0.39934 0.50000 0.20715 1.24200
Cd	Cd	0.89934 -0.00000 0.20715 1.23200
O 	O 	0.07270 -0.00000 0.46200 -0.47000
O 	O 	0.13960 0.00000 0.64150 -0.45800
O 	O 	0.09150 0.00000 0.00790 -0.36100
O 	O 	0.16790 0.00000 0.98910 -0.35400
C 	C 	0.11850 0.00000 0.52020 0.38400
C 	C 	0.13780 0.00000 0.06050 0.27300
C 	C 	0.15140 0.00000 0.43000 -0.08600
C 	C 	0.12860 0.00000 0.29060 -0.01200
H 	H 	0.09420 0.00000 0.25330 0.05400
C 	C 	0.16070 0.00000 0.20810 -0.04900
C 	C 	0.21280 0.00000 0.26550 -0.06300
H 	H 	0.23310 0.00000 0.21080 0.06600
C 	C 	0.23370 0.00000 0.40350 0.01600
C 	C 	0.20320 0.00000 0.48990 -0.05100
H 	H 	0.21730 0.00000 0.58250 0.05300
C 	C 	0.55160 0.00000 0.72410 -0.02500
H 	H 	0.58590 0.00000 0.76400 0.05300
C 	C 	0.44830 0.00000 0.61700 -0.07700
C 	C 	0.39360 0.00000 0.56190 -0.00000
C 	C 	0.28990 0.00000 0.46390 -0.06100
O 	O 	0.57270 0.50000 0.46200 -0.44700
O 	O 	0.63960 0.50000 0.64150 -0.44200
O 	O 	0.59150 0.50000 0.00790 -0.34200
O 	O 	0.66790 0.50000 0.98910 -0.33800
C 	C 	0.61850 0.50000 0.52020 0.38600
C 	C 	0.63780 0.50000 0.06050 0.27400
C 	C 	0.65140 0.50000 0.43000 -0.07900
C 	C 	0.62860 0.50000 0.29060 -0.00700
H 	H 	0.59420 0.50000 0.25330 0.06400
C 	C 	0.66070 0.50000 0.20810 -0.04200
C 	C 	0.71280 0.50000 0.26550 -0.04600
H 	H 	0.73310 0.50000 0.21080 0.07100
C 	C 	0.73370 0.50000 0.40350 0.00000
C 	C 	0.70320 0.50000 0.48990 -0.03400
H 	H 	0.71730 0.50000 0.58250 0.06000
C 	C 	0.05160 0.50000 0.72410 0.11100
H 	H 	0.08590 0.50000 0.76400 0.02500
C 	C 	0.94830 0.50000 0.61700 -0.08000
C 	C 	0.89360 0.50000 0.56190 0.07100
C 	C 	0.78990 0.50000 0.46390 0.03500
O 	O 	0.92730 0.00000 0.53800 -0.45500
O 	O 	0.86040 0.00000 0.35850 -0.45600
O 	O 	0.90850 0.00000 0.99210 -0.35300
O 	O 	0.83210 0.00000 0.01090 -0.35100
C 	C 	0.88150 0.00000 0.47980 0.38000
C 	C 	0.86220 0.00000 0.93950 0.26800
C 	C 	0.84860 0.00000 0.57000 -0.08000
C 	C 	0.87140 0.00000 0.70940 -0.01700
H 	H 	0.90580 0.00000 0.74670 0.06200
C 	C 	0.83930 0.00000 0.79190 -0.04400
C 	C 	0.78720 0.00000 0.73450 -0.06600
H 	H 	0.76690 0.00000 0.78920 0.06700
C 	C 	0.76630 0.00000 0.59650 0.01900
C 	C 	0.79680 0.00000 0.51010 -0.05400
H 	H 	0.78270 0.00000 0.41750 0.05500
C 	C 	0.44840 -0.00000 0.27590 -0.02500
H 	H 	0.41410 0.00000 0.23600 0.05300
C 	C 	0.55170 0.00000 0.38300 -0.07700
C 	C 	0.60640 0.00000 0.43810 -0.00000
C 	C 	0.71010 0.00000 0.53610 -0.06200
O 	O 	0.42730 0.50000 0.53800 -0.44700
O 	O 	0.36040 0.50000 0.35850 -0.44200
O 	O 	0.40850 0.50000 0.99210 -0.34300
O 	O 	0.33210 0.50000 0.01090 -0.33700
C 	C 	0.38150 0.50000 0.47980 0.38600
C 	C 	0.36220 0.50000 0.93950 0.27400
C 	C 	0.34860 0.50000 0.57000 -0.08100
C 	C 	0.37140 0.50000 0.70940 -0.00500
H 	H 	0.40580 0.50000 0.74670 0.06300
C 	C 	0.33930 0.50000 0.79190 -0.04400
C 	C 	0.28720 0.50000 0.73450 -0.04100
H 	H 	0.26690 0.50000 0.78920 0.06900
C 	C 	0.26630 0.50000 0.59650 -0.00800
C 	C 	0.29680 0.50000 0.51010 -0.03000
H 	H 	0.28270 0.50000 0.41750 0.05800
C 	C 	0.94840 0.50000 0.27590 -0.00300
H 	H 	0.91410 0.50000 0.23600 0.06400
C 	C 	0.05170 0.50000 0.38300 0.02900
C 	C 	0.10640 0.50000 0.43810 0.01200
C 	C 	0.21010 0.50000 0.53610 0.05400
