data_crystal

_cell_length_a 15.71660
_cell_length_b 15.71660
_cell_length_c 32.13700
_cell_angle_alpha 90.00000
_cell_angle_beta  90.00000
_cell_angle_gamma 90.00000

_symmetry_space_group_name_	'P 1'
_symmetry_space_group_name_H-M	'P 1'

loop_
_symmetry_equiv_pos_as_xyz
  x,y,z

loop_
_atom_site_label
_atom_site_type_symbol
_atom_site_fract_x
_atom_site_fract_y
_atom_site_fract_z
_atom_site_charge
Cd	Cd	0.27199 0.72829 0.07957 1.24800
O 	O 	0.30940 0.58650 0.10950 -0.33800
O 	O 	0.19400 0.65030 0.12890 -0.37500
O 	O 	0.25940 0.34040 0.28920 -0.35000
O 	O 	0.13130 0.30380 0.26630 -0.29200
O 	O 	0.72210 0.64850 0.13360 -0.33800
O 	O 	0.84280 0.70150 0.11120 -0.33700
O 	O 	0.69540 0.39070 0.95790 -0.36700
O 	O 	0.82560 0.35170 0.96980 -0.33000
C 	C 	0.24600 0.59670 0.13060 0.34200
C 	C 	0.19690 0.34500 0.26310 0.28600
C 	C 	0.22980 0.51740 0.16240 -0.05800
C 	C 	0.15030 0.48400 0.16930 0.04100
C 	C 	0.13910 0.42860 0.20260 -0.06200
H 	H 	0.08540 0.40600 0.20770 0.07300
C 	C 	0.20620 0.40640 0.22840 -0.02300
C 	C 	0.28840 0.43810 0.22010 -0.04100
H 	H 	0.33470 0.42350 0.23660 0.07400
C 	C 	0.29780 0.49290 0.18570 -0.00600
H 	H 	0.35170 0.51270 0.17870 0.05900
C 	C 	0.78420 0.65020 0.11020 0.31200
C 	C 	0.76210 0.39720 0.97650 0.31500
C 	C 	0.78130 0.58080 0.07600 -0.06000
C 	C 	0.85080 0.52520 0.06840 0.03900
C 	C 	0.84390 0.47080 0.03500 -0.05900
H 	H 	0.89020 0.43670 0.02810 0.07200
C 	C 	0.76690 0.46440 0.00990 -0.03100
C 	C 	0.70100 0.51680 0.01920 -0.03400
H 	H 	0.65120 0.51520 0.00360 0.06900
C 	C 	0.70880 0.57280 0.05240 -0.00600
H 	H 	0.66240 0.60700 0.05900 0.05800
C 	C 	0.07530 0.50280 0.14330 0.02600
C 	C 	0.08140 0.50500 0.10020 -0.04500
H 	H 	0.13420 0.49990 0.08740 0.06700
C 	C 	0.00850 0.51480 0.07590 -0.04400
H 	H 	0.01420 0.51370 0.04710 0.05900
C 	C 	0.92920 0.52600 0.09230 0.02100
C 	C 	0.92300 0.52750 0.13740 -0.04100
H 	H 	0.87040 0.53540 0.15010 0.06400
C 	C 	0.99420 0.51730 0.16120 -0.04700
H 	H 	0.98940 0.51990 0.19000 0.06100
Cd	Cd	0.72801 0.27171 0.57957 1.24800
O 	O 	0.69060 0.41350 0.60950 -0.33800
O 	O 	0.80600 0.34970 0.62890 -0.37500
O 	O 	0.74060 0.65960 0.78920 -0.35000
O 	O 	0.86870 0.69620 0.76630 -0.29200
O 	O 	0.27790 0.35150 0.63360 -0.33800
O 	O 	0.15720 0.29850 0.61120 -0.33700
O 	O 	0.30460 0.60930 0.45790 -0.36700
O 	O 	0.17440 0.64830 0.46980 -0.33000
C 	C 	0.75400 0.40330 0.63060 0.34200
C 	C 	0.80310 0.65500 0.76310 0.28600
C 	C 	0.77020 0.48260 0.66240 -0.05800
C 	C 	0.84970 0.51600 0.66930 0.04100
C 	C 	0.86090 0.57140 0.70260 -0.06200
H 	H 	0.91460 0.59400 0.70770 0.07300
C 	C 	0.79380 0.59360 0.72840 -0.02300
C 	C 	0.71160 0.56190 0.72010 -0.04100
H 	H 	0.66530 0.57650 0.73660 0.07400
C 	C 	0.70220 0.50710 0.68570 -0.00600
H 	H 	0.64830 0.48730 0.67870 0.05900
C 	C 	0.21580 0.34980 0.61020 0.31200
C 	C 	0.23790 0.60280 0.47650 0.31500
C 	C 	0.21870 0.41920 0.57600 -0.06000
C 	C 	0.14920 0.47480 0.56840 0.03900
C 	C 	0.15610 0.52920 0.53500 -0.05900
H 	H 	0.10980 0.56330 0.52810 0.07200
C 	C 	0.23310 0.53560 0.50990 -0.03100
C 	C 	0.29900 0.48320 0.51920 -0.03400
H 	H 	0.34880 0.48480 0.50360 0.06900
C 	C 	0.29120 0.42720 0.55240 -0.00600
H 	H 	0.33760 0.39300 0.55900 0.05800
C 	C 	0.92470 0.49720 0.64330 0.02600
C 	C 	0.91860 0.49500 0.60020 -0.04500
H 	H 	0.86580 0.50010 0.58740 0.06700
C 	C 	0.99150 0.48520 0.57590 -0.04500
H 	H 	0.98580 0.48630 0.54710 0.05900
C 	C 	0.07080 0.47400 0.59230 0.02200
C 	C 	0.07700 0.47250 0.63740 -0.04100
H 	H 	0.12960 0.46460 0.65010 0.06400
C 	C 	0.00580 0.48270 0.66120 -0.04600
H 	H 	0.01060 0.48010 0.69000 0.06100
Cd	Cd	0.77171 0.77199 0.82957 1.24800
O 	O 	0.91350 0.80940 0.85950 -0.33800
O 	O 	0.84970 0.69400 0.87890 -0.37500
O 	O 	0.15960 0.75940 0.03920 -0.35000
O 	O 	0.19620 0.63130 0.01630 -0.29300
O 	O 	0.85150 0.22210 0.88360 -0.33800
O 	O 	0.79850 0.34280 0.86120 -0.33700
O 	O 	0.10930 0.19540 0.70790 -0.36700
O 	O 	0.14830 0.32560 0.71980 -0.33000
C 	C 	0.90330 0.74600 0.88060 0.34200
C 	C 	0.15500 0.69690 0.01310 0.28600
C 	C 	0.98260 0.72980 0.91240 -0.05600
C 	C 	0.01600 0.65030 0.91930 0.03900
C 	C 	0.07140 0.63910 0.95260 -0.06100
H 	H 	0.09400 0.58540 0.95770 0.07200
C 	C 	0.09360 0.70620 0.97840 -0.02400
C 	C 	0.06190 0.78840 0.97010 -0.03900
H 	H 	0.07650 0.83470 0.98660 0.07300
C 	C 	0.00710 0.79780 0.93570 -0.00900
H 	H 	0.98730 0.85170 0.92870 0.06000
C 	C 	0.84980 0.28420 0.86020 0.31200
C 	C 	0.10280 0.26210 0.72650 0.31500
C 	C 	0.91920 0.28130 0.82600 -0.06000
C 	C 	0.97480 0.35080 0.81840 0.03900
C 	C 	0.02920 0.34390 0.78500 -0.06000
H 	H 	0.06330 0.39020 0.77810 0.07200
C 	C 	0.03560 0.26690 0.75990 -0.03000
C 	C 	0.98320 0.20100 0.76920 -0.03500
H 	H 	0.98480 0.15120 0.75360 0.06900
C 	C 	0.92720 0.20880 0.80240 -0.00600
H 	H 	0.89300 0.16240 0.80900 0.05800
C 	C 	0.99720 0.57530 0.89330 0.02600
C 	C 	0.99500 0.58140 0.85020 -0.04500
H 	H 	0.00010 0.63420 0.83740 0.06600
C 	C 	0.98520 0.50850 0.82590 -0.04400
H 	H 	0.98630 0.51420 0.79710 0.05900
C 	C 	0.97400 0.42920 0.84230 0.02100
C 	C 	0.97250 0.42300 0.88740 -0.04000
H 	H 	0.96460 0.37040 0.90010 0.06400
C 	C 	0.98270 0.49420 0.91120 -0.04700
H 	H 	0.98010 0.48940 0.94000 0.06100
Cd	Cd	0.22829 0.22801 0.32957 1.24800
O 	O 	0.08650 0.19060 0.35950 -0.33800
O 	O 	0.15030 0.30600 0.37890 -0.37500
O 	O 	0.84040 0.24060 0.53920 -0.35000
O 	O 	0.80380 0.36870 0.51630 -0.29300
O 	O 	0.14850 0.77790 0.38360 -0.33800
O 	O 	0.20150 0.65720 0.36120 -0.33700
O 	O 	0.89070 0.80460 0.20790 -0.36700
O 	O 	0.85170 0.67440 0.21980 -0.33000
C 	C 	0.09670 0.25400 0.38060 0.34200
C 	C 	0.84500 0.30310 0.51310 0.28600
C 	C 	0.01740 0.27020 0.41240 -0.05600
C 	C 	0.98400 0.34970 0.41930 0.03900
C 	C 	0.92860 0.36090 0.45260 -0.06100
H 	H 	0.90600 0.41460 0.45770 0.07200
C 	C 	0.90640 0.29380 0.47840 -0.02400
C 	C 	0.93810 0.21160 0.47010 -0.03900
H 	H 	0.92350 0.16530 0.48660 0.07300
C 	C 	0.99290 0.20220 0.43570 -0.00900
H 	H 	0.01270 0.14830 0.42870 0.06000
C 	C 	0.15020 0.71580 0.36020 0.31200
C 	C 	0.89720 0.73790 0.22650 0.31500
C 	C 	0.08080 0.71870 0.32600 -0.06000
C 	C 	0.02520 0.64920 0.31840 0.03900
C 	C 	0.97080 0.65610 0.28500 -0.06000
H 	H 	0.93670 0.60980 0.27810 0.07200
C 	C 	0.96440 0.73310 0.25990 -0.03000
C 	C 	0.01680 0.79900 0.26920 -0.03500
H 	H 	0.01520 0.84880 0.25360 0.06900
C 	C 	0.07280 0.79120 0.30240 -0.00600
H 	H 	0.10700 0.83760 0.30900 0.05800
C 	C 	0.00280 0.42470 0.39330 0.02600
C 	C 	0.00500 0.41860 0.35020 -0.04500
H 	H 	0.99990 0.36580 0.33740 0.06600
C 	C 	0.01480 0.49150 0.32590 -0.04400
H 	H 	0.01370 0.48580 0.29710 0.05900
C 	C 	0.02600 0.57080 0.34230 0.02100
C 	C 	0.02750 0.57700 0.38740 -0.04100
H 	H 	0.03540 0.62960 0.40010 0.06400
C 	C 	0.01730 0.50580 0.41120 -0.04700
H 	H 	0.01990 0.51060 0.44000 0.06100
Cd	Cd	0.22801 0.22829 0.67043 1.24800
O 	O 	0.19060 0.08650 0.64050 -0.33800
O 	O 	0.30600 0.15030 0.62110 -0.37500
O 	O 	0.24060 0.84040 0.46080 -0.35000
O 	O 	0.36870 0.80380 0.48370 -0.29300
O 	O 	0.77790 0.14850 0.61640 -0.33800
O 	O 	0.65720 0.20150 0.63880 -0.33700
O 	O 	0.80460 0.89070 0.79210 -0.36700
O 	O 	0.67440 0.85170 0.78020 -0.33000
C 	C 	0.25400 0.09670 0.61940 0.34200
C 	C 	0.30310 0.84500 0.48690 0.28600
C 	C 	0.27020 0.01740 0.58760 -0.05600
C 	C 	0.34970 0.98400 0.58070 0.03900
C 	C 	0.36090 0.92860 0.54740 -0.06100
H 	H 	0.41460 0.90600 0.54230 0.07200
C 	C 	0.29380 0.90640 0.52160 -0.02400
C 	C 	0.21160 0.93810 0.52990 -0.03900
H 	H 	0.16530 0.92350 0.51340 0.07300
C 	C 	0.20220 0.99290 0.56430 -0.00900
H 	H 	0.14830 0.01270 0.57130 0.06000
C 	C 	0.71580 0.15020 0.63980 0.31200
C 	C 	0.73790 0.89720 0.77350 0.31500
C 	C 	0.71870 0.08080 0.67400 -0.06000
C 	C 	0.64920 0.02520 0.68160 0.03900
C 	C 	0.65610 0.97080 0.71500 -0.06000
H 	H 	0.60980 0.93670 0.72190 0.07200
C 	C 	0.73310 0.96440 0.74010 -0.03000
C 	C 	0.79900 0.01680 0.73080 -0.03500
H 	H 	0.84880 0.01520 0.74640 0.06900
C 	C 	0.79120 0.07280 0.69760 -0.00600
H 	H 	0.83760 0.10700 0.69100 0.05800
C 	C 	0.42470 0.00280 0.60670 0.02600
C 	C 	0.41860 0.00500 0.64980 -0.04500
H 	H 	0.36580 0.99990 0.66260 0.06600
C 	C 	0.49150 0.01480 0.67410 -0.04400
H 	H 	0.48580 0.01370 0.70290 0.05900
C 	C 	0.57080 0.02600 0.65770 0.02100
C 	C 	0.57700 0.02750 0.61260 -0.04100
H 	H 	0.62960 0.03540 0.59990 0.06400
C 	C 	0.50580 0.01730 0.58880 -0.04700
H 	H 	0.51060 0.01990 0.56000 0.06100
Cd	Cd	0.77199 0.77171 0.17043 1.24800
O 	O 	0.80940 0.91350 0.14050 -0.33800
O 	O 	0.69400 0.84970 0.12110 -0.37500
O 	O 	0.75940 0.15960 0.96080 -0.35000
O 	O 	0.63130 0.19620 0.98370 -0.29300
O 	O 	0.22210 0.85150 0.11640 -0.33800
O 	O 	0.34280 0.79850 0.13880 -0.33700
O 	O 	0.19540 0.10930 0.29210 -0.36700
O 	O 	0.32560 0.14830 0.28020 -0.33000
C 	C 	0.74600 0.90330 0.11940 0.34200
C 	C 	0.69690 0.15500 0.98690 0.28600
C 	C 	0.72980 0.98260 0.08760 -0.05600
C 	C 	0.65030 0.01600 0.08070 0.03900
C 	C 	0.63910 0.07140 0.04740 -0.06100
H 	H 	0.58540 0.09400 0.04230 0.07200
C 	C 	0.70620 0.09360 0.02160 -0.02400
C 	C 	0.78840 0.06190 0.02990 -0.03900
H 	H 	0.83470 0.07650 0.01340 0.07300
C 	C 	0.79780 0.00710 0.06430 -0.00900
H 	H 	0.85170 0.98730 0.07130 0.06000
C 	C 	0.28420 0.84980 0.13980 0.31200
C 	C 	0.26210 0.10280 0.27350 0.31500
C 	C 	0.28130 0.91920 0.17400 -0.06000
C 	C 	0.35080 0.97480 0.18160 0.03900
C 	C 	0.34390 0.02920 0.21500 -0.06000
H 	H 	0.39020 0.06330 0.22190 0.07200
C 	C 	0.26690 0.03560 0.24010 -0.03000
C 	C 	0.20100 0.98320 0.23080 -0.03500
H 	H 	0.15120 0.98480 0.24640 0.06900
C 	C 	0.20880 0.92720 0.19760 -0.00600
H 	H 	0.16240 0.89300 0.19100 0.05800
C 	C 	0.57530 0.99720 0.10670 0.02600
C 	C 	0.58140 0.99500 0.14980 -0.04500
H 	H 	0.63420 0.00010 0.16260 0.06600
C 	C 	0.50850 0.98520 0.17410 -0.04400
H 	H 	0.51420 0.98630 0.20290 0.05900
C 	C 	0.42920 0.97400 0.15770 0.02100
C 	C 	0.42300 0.97250 0.11260 -0.04000
H 	H 	0.37040 0.96460 0.09990 0.06400
C 	C 	0.49420 0.98270 0.08880 -0.04700
H 	H 	0.48940 0.98010 0.06000 0.06100
Cd	Cd	0.72829 0.27199 0.92043 1.24800
O 	O 	0.58650 0.30940 0.89050 -0.33800
O 	O 	0.65030 0.19400 0.87110 -0.37500
O 	O 	0.34040 0.25940 0.71080 -0.35000
O 	O 	0.30380 0.13130 0.73370 -0.29200
O 	O 	0.64850 0.72210 0.86640 -0.33800
O 	O 	0.70150 0.84280 0.88880 -0.33700
O 	O 	0.39070 0.69540 0.04210 -0.36700
O 	O 	0.35170 0.82560 0.03020 -0.33000
C 	C 	0.59670 0.24600 0.86940 0.34200
C 	C 	0.34500 0.19690 0.73690 0.28600
C 	C 	0.51740 0.22980 0.83760 -0.05800
C 	C 	0.48400 0.15030 0.83070 0.04100
C 	C 	0.42860 0.13910 0.79740 -0.06200
H 	H 	0.40600 0.08540 0.79230 0.07300
C 	C 	0.40640 0.20620 0.77160 -0.02300
C 	C 	0.43810 0.28840 0.77990 -0.04100
H 	H 	0.42350 0.33470 0.76340 0.07400
C 	C 	0.49290 0.29780 0.81430 -0.00600
H 	H 	0.51270 0.35170 0.82130 0.05900
C 	C 	0.65020 0.78420 0.88980 0.31200
C 	C 	0.39720 0.76210 0.02350 0.31500
C 	C 	0.58080 0.78130 0.92400 -0.06000
C 	C 	0.52520 0.85080 0.93160 0.03900
C 	C 	0.47080 0.84390 0.96500 -0.05900
H 	H 	0.43670 0.89020 0.97190 0.07200
C 	C 	0.46440 0.76690 0.99010 -0.03100
C 	C 	0.51680 0.70100 0.98080 -0.03400
H 	H 	0.51520 0.65120 0.99640 0.06900
C 	C 	0.57280 0.70880 0.94760 -0.00600
H 	H 	0.60700 0.66240 0.94100 0.05800
C 	C 	0.50280 0.07530 0.85670 0.02600
C 	C 	0.50500 0.08140 0.89980 -0.04500
H 	H 	0.49990 0.13420 0.91260 0.06700
C 	C 	0.51480 0.00850 0.92410 -0.04400
H 	H 	0.51370 0.01420 0.95290 0.05900
C 	C 	0.52600 0.92920 0.90770 0.02100
C 	C 	0.52750 0.92300 0.86260 -0.04100
H 	H 	0.53540 0.87040 0.84990 0.06400
C 	C 	0.51730 0.99420 0.83880 -0.04700
H 	H 	0.51990 0.98940 0.81000 0.06100
Cd	Cd	0.27171 0.72801 0.42043 1.24800
O 	O 	0.41350 0.69060 0.39050 -0.33800
O 	O 	0.34970 0.80600 0.37110 -0.37500
O 	O 	0.65960 0.74060 0.21080 -0.35000
O 	O 	0.69620 0.86870 0.23370 -0.29200
O 	O 	0.35150 0.27790 0.36640 -0.33800
O 	O 	0.29850 0.15720 0.38880 -0.33700
O 	O 	0.60930 0.30460 0.54210 -0.36700
O 	O 	0.64830 0.17440 0.53020 -0.33000
C 	C 	0.40330 0.75400 0.36940 0.34200
C 	C 	0.65500 0.80310 0.23690 0.28600
C 	C 	0.48260 0.77020 0.33760 -0.05800
C 	C 	0.51600 0.84970 0.33070 0.04100
C 	C 	0.57140 0.86090 0.29740 -0.06200
H 	H 	0.59400 0.91460 0.29230 0.07300
C 	C 	0.59360 0.79380 0.27160 -0.02300
C 	C 	0.56190 0.71160 0.27990 -0.04100
H 	H 	0.57650 0.66530 0.26340 0.07400
C 	C 	0.50710 0.70220 0.31430 -0.00600
H 	H 	0.48730 0.64830 0.32130 0.05900
C 	C 	0.34980 0.21580 0.38980 0.31200
C 	C 	0.60280 0.23790 0.52350 0.31500
C 	C 	0.41920 0.21870 0.42400 -0.06000
C 	C 	0.47480 0.14920 0.43160 0.03900
C 	C 	0.52920 0.15610 0.46500 -0.05900
H 	H 	0.56330 0.10980 0.47190 0.07200
C 	C 	0.53560 0.23310 0.49010 -0.03100
C 	C 	0.48320 0.29900 0.48080 -0.03400
H 	H 	0.48480 0.34880 0.49640 0.06900
C 	C 	0.42720 0.29120 0.44760 -0.00600
H 	H 	0.39300 0.33760 0.44100 0.05800
C 	C 	0.49720 0.92470 0.35670 0.02600
C 	C 	0.49500 0.91860 0.39980 -0.04500
H 	H 	0.50010 0.86580 0.41260 0.06700
C 	C 	0.48520 0.99150 0.42410 -0.04500
H 	H 	0.48630 0.98580 0.45290 0.05900
C 	C 	0.47400 0.07080 0.40770 0.02200
C 	C 	0.47250 0.07700 0.36260 -0.04100
H 	H 	0.46460 0.12960 0.34990 0.06400
C 	C 	0.48270 0.00580 0.33880 -0.04600
H 	H 	0.48010 0.01060 0.31000 0.06100
