data_crystal

_cell_length_a 17.43700
_cell_length_b 10.02000
_cell_length_c 17.90200
_cell_angle_alpha 90.00000
_cell_angle_beta  117.90300
_cell_angle_gamma 90.00000

_symmetry_space_group_name_	'P 1'
_symmetry_space_group_name_H-M	'P 1'

loop_
_symmetry_equiv_pos_as_xyz
  x,y,z

loop_
_atom_site_label
_atom_site_type_symbol
_atom_site_fract_x
_atom_site_fract_y
_atom_site_fract_z
_atom_site_charge
Zn	Zn	0.87593 0.85985 0.80651 1.15400
Zn	Zn	0.65217 0.34939 0.67922 1.18000
O 	O 	0.76160 0.27830 0.64480 -0.30700
N 	N 	0.95620 0.83180 0.93190 -0.31300
N 	N 	0.55940 0.30330 0.56020 -0.35700
N 	N 	0.53540 0.17290 0.53560 -0.07800
N 	N 	0.97490 0.69990 0.96060 -0.12800
N 	N 	0.71430 0.52740 0.69700 -0.29500
N 	N 	0.75960 0.70770 0.66300 -0.10900
N 	N 	0.70890 0.60230 0.63160 -0.10800
N 	N 	0.80120 0.69920 0.74940 -0.30500
N 	N 	0.05890 0.90750 0.71900 -0.30000
N 	N 	0.95890 0.90550 0.76140 -0.34300
N 	N 	0.79450 0.00670 0.79470 -0.27000
N 	N 	0.71100 0.19400 0.75700 -0.27700
N 	N 	0.06940 0.01490 0.76860 -0.02900
N 	N 	0.01200 0.01480 0.79430 -0.02300
C 	C 	0.77180 0.58530 0.76650 0.30100
C 	C 	0.75690 0.93120 0.90990 -0.18300
H 	H 	0.79100 0.85470 0.92510 0.03300
C 	C 	0.79780 0.53150 0.85310 -0.84400
H 	H 	0.83920 0.59060 0.89460 0.25100
H 	H 	0.82340 0.44480 0.85860 0.24600
H 	H 	0.74750 0.52470 0.86160 0.24900
C 	C 	0.65800 0.08150 0.92820 0.13200
H 	H 	0.62670 0.10250 0.95680 -0.02300
C 	C 	0.70800 0.96370 0.94940 -0.18300
H 	H 	0.70790 0.90710 0.99050 0.03700
C 	C 	0.98980 0.84330 0.71550 0.23900
C 	C 	0.76560 0.11390 0.74360 0.06800
C 	C 	0.75440 0.01630 0.84600 0.11300
C 	C 	0.79040 0.14480 0.67480 0.04000
H 	H 	0.85380 0.14160 0.69930 0.01600
C 	C 	0.70340 0.13310 0.82370 0.05000
C 	C 	0.65450 0.16680 0.86560 -0.17700
H 	H 	0.62100 0.24400 0.85160 0.06700
C 	C 	0.75120 0.04580 0.60140 -0.15400
H 	H 	0.76930 0.06850 0.55990 0.08800
H 	H 	0.68900 0.04940 0.57610 0.08500
H 	H 	0.77050 0.95720 0.62200 -0.02900
C 	C 	0.95120 0.71530 0.66700 -0.80200
H 	H 	0.90180 0.69010 0.67390 0.24200
H 	H 	0.99390 0.64560 0.68840 0.23600
H 	H 	0.93360 0.72920 0.60820 0.24600
H 	H 	0.54920 0.56070 0.55000 0.36200
H 	H 	0.44760 0.56070 0.49900 0.37400
H 	H 	0.50320 0.56070 0.45100 0.36700
H 	H 	0.96370 0.08970 0.94370 0.04200
H 	H 	0.05810 0.08970 0.01930 0.10200
H 	H 	0.97820 0.08970 0.03700 0.08100
Zn	Zn	0.37593 0.35985 0.80651 1.17100
Zn	Zn	0.15217 0.84939 0.67922 1.16400
O 	O 	0.26160 0.77830 0.64480 -0.36800
N 	N 	0.45620 0.33180 0.93190 -0.34200
N 	N 	0.05940 0.80330 0.56020 -0.30500
N 	N 	0.03540 0.67290 0.53560 -0.07400
N 	N 	0.47490 0.19990 0.96060 -0.09800
N 	N 	0.21430 0.02740 0.69700 -0.23600
N 	N 	0.25960 0.20770 0.66300 -0.09700
N 	N 	0.20890 0.10230 0.63160 -0.07100
N 	N 	0.30120 0.19920 0.74940 -0.27500
N 	N 	0.55890 0.40750 0.71900 -0.27900
N 	N 	0.45890 0.40550 0.76140 -0.29900
N 	N 	0.29450 0.50670 0.79470 -0.28000
N 	N 	0.21100 0.69400 0.75700 -0.27000
N 	N 	0.56940 0.51490 0.76860 -0.09200
N 	N 	0.51200 0.51480 0.79430 -0.09900
C 	C 	0.27180 0.08530 0.76650 0.21100
C 	C 	0.25690 0.43120 0.90990 -0.11100
H 	H 	0.29100 0.35470 0.92510 0.02800
C 	C 	0.29780 0.03150 0.85310 -0.38000
H 	H 	0.33920 0.09060 0.89460 0.13300
H 	H 	0.32340 0.94480 0.85860 0.03600
H 	H 	0.24750 0.02470 0.86160 0.14500
C 	C 	0.15800 0.58150 0.92820 -0.03600
H 	H 	0.12670 0.60250 0.95680 0.01800
C 	C 	0.20800 0.46370 0.94940 -0.03600
H 	H 	0.20790 0.40710 0.99050 0.01400
C 	C 	0.48980 0.34330 0.71550 0.29400
C 	C 	0.26560 0.61390 0.74360 -0.00000
C 	C 	0.25440 0.51630 0.84600 0.01800
C 	C 	0.29040 0.64480 0.67480 0.22000
H 	H 	0.35380 0.64160 0.69930 -0.06100
C 	C 	0.20340 0.63310 0.82370 0.03900
C 	C 	0.15450 0.66680 0.86560 -0.11800
H 	H 	0.12100 0.74400 0.85160 0.04100
C 	C 	0.25120 0.54580 0.60140 -0.67600
H 	H 	0.26930 0.56850 0.55990 0.21800
H 	H 	0.18900 0.54940 0.57610 0.22400
H 	H 	0.27050 0.45720 0.62200 0.19800
C 	C 	0.45120 0.21530 0.66700 -0.88600
H 	H 	0.40180 0.19010 0.67390 0.28000
H 	H 	0.49390 0.14560 0.68840 0.28400
H 	H 	0.43360 0.22920 0.60820 0.28500
H 	H 	0.04920 0.06070 0.55000 0.22800
H 	H 	0.94760 0.06070 0.49900 0.22500
H 	H 	0.00320 0.06070 0.45100 0.24300
H 	H 	0.46370 0.58970 0.94370 0.23000
H 	H 	0.55810 0.58970 0.01930 0.27000
H 	H 	0.47820 0.58970 0.03700 0.26700
Zn	Zn	0.12407 0.85985 0.19349 1.15600
Zn	Zn	0.34783 0.34939 0.32078 1.17900
O 	O 	0.23840 0.27830 0.35520 -0.30000
N 	N 	0.04380 0.83180 0.06810 -0.28200
N 	N 	0.44060 0.30330 0.43980 -0.35700
N 	N 	0.46460 0.17290 0.46440 -0.07800
N 	N 	0.02510 0.69990 0.03940 -0.06200
N 	N 	0.28570 0.52740 0.30300 -0.29800
N 	N 	0.24040 0.70770 0.33700 -0.10900
N 	N 	0.29110 0.60230 0.36840 -0.10700
N 	N 	0.19880 0.69920 0.25060 -0.30800
N 	N 	0.94110 0.90750 0.28100 -0.33400
N 	N 	0.04110 0.90550 0.23860 -0.33000
N 	N 	0.20550 0.00670 0.20530 -0.26800
N 	N 	0.28900 0.19400 0.24300 -0.27700
N 	N 	0.93060 0.01490 0.23140 -0.03700
N 	N 	0.98800 0.01480 0.20570 -0.05500
C 	C 	0.22820 0.58530 0.23350 0.32300
C 	C 	0.24310 0.93120 0.09010 -0.18100
H 	H 	0.20900 0.85470 0.07490 0.04700
C 	C 	0.20220 0.53150 0.14690 -0.91100
H 	H 	0.16080 0.59060 0.10540 0.28900
H 	H 	0.17660 0.44480 0.14140 0.28200
H 	H 	0.25250 0.52470 0.13840 0.28200
C 	C 	0.34200 0.08150 0.07180 0.14200
H 	H 	0.37330 0.10250 0.04320 -0.00400
C 	C 	0.29200 0.96370 0.05060 -0.17500
H 	H 	0.29210 0.90710 0.00950 0.06000
C 	C 	0.01020 0.84330 0.28450 0.31300
C 	C 	0.23440 0.11390 0.25640 0.07700
C 	C 	0.24560 0.01630 0.15400 0.12100
C 	C 	0.20960 0.14480 0.32520 0.02600
H 	H 	0.14620 0.14160 0.30070 0.03200
C 	C 	0.29660 0.13310 0.17630 0.05300
C 	C 	0.34550 0.16680 0.13440 -0.17000
H 	H 	0.37900 0.24400 0.14840 0.07200
C 	C 	0.24880 0.04580 0.39860 -0.12700
H 	H 	0.23070 0.06850 0.44010 0.08400
H 	H 	0.31100 0.04940 0.42390 0.07700
H 	H 	0.22950 0.95720 0.37800 -0.03900
C 	C 	0.04880 0.71530 0.33300 -0.89100
H 	H 	0.09820 0.69010 0.32610 0.27200
H 	H 	0.00610 0.64560 0.31160 0.28300
H 	H 	0.06640 0.72920 0.39180 0.28200
H 	H 	0.45080 0.56070 0.45000 0.36200
H 	H 	0.55240 0.56070 0.50100 0.37300
H 	H 	0.49680 0.56070 0.54900 0.36700
H 	H 	0.03630 0.08970 0.05630 0.07700
H 	H 	0.94190 0.08970 0.98070 0.05600
H 	H 	0.02180 0.08970 0.96300 0.07600
Zn	Zn	0.62407 0.35985 0.19349 1.17200
Zn	Zn	0.84783 0.84939 0.32078 1.16200
O 	O 	0.73840 0.77830 0.35520 -0.36700
N 	N 	0.54380 0.33180 0.06810 -0.32600
N 	N 	0.94060 0.80330 0.43980 -0.32100
N 	N 	0.96460 0.67290 0.46440 -0.10500
N 	N 	0.52510 0.19990 0.03940 -0.06200
N 	N 	0.78570 0.02740 0.30300 -0.24100
N 	N 	0.74040 0.20770 0.33700 -0.10000
N 	N 	0.79110 0.10230 0.36840 -0.07500
N 	N 	0.69880 0.19920 0.25060 -0.27800
N 	N 	0.44110 0.40750 0.28100 -0.27900
N 	N 	0.54110 0.40550 0.23860 -0.29800
N 	N 	0.70550 0.50670 0.20530 -0.28000
N 	N 	0.78900 0.69400 0.24300 -0.27100
N 	N 	0.43060 0.51490 0.23140 -0.08900
N 	N 	0.48800 0.51480 0.20570 -0.09400
C 	C 	0.72820 0.08530 0.23350 0.22700
C 	C 	0.74310 0.43120 0.09010 -0.10900
H 	H 	0.70900 0.35470 0.07490 0.03900
C 	C 	0.70220 0.03150 0.14690 -0.44100
H 	H 	0.66080 0.09060 0.10540 0.16400
H 	H 	0.67660 0.94480 0.14140 0.06700
H 	H 	0.75250 0.02470 0.13840 0.17300
C 	C 	0.84200 0.58150 0.07180 -0.03500
H 	H 	0.87330 0.60250 0.04320 0.03000
C 	C 	0.79200 0.46370 0.05060 -0.02900
H 	H 	0.79210 0.40710 0.00950 0.03500
C 	C 	0.51020 0.34330 0.28450 0.29500
C 	C 	0.73440 0.61390 0.25640 0.00100
C 	C 	0.74560 0.51630 0.15400 0.02000
C 	C 	0.70960 0.64480 0.32520 0.21400
H 	H 	0.64620 0.64160 0.30070 -0.05800
C 	C 	0.79660 0.63310 0.17630 0.03500
C 	C 	0.84550 0.66680 0.13440 -0.11300
H 	H 	0.87900 0.74400 0.14840 0.03500
C 	C 	0.74880 0.54580 0.39860 -0.66300
H 	H 	0.73070 0.56850 0.44010 0.21300
H 	H 	0.81100 0.54940 0.42390 0.21500
H 	H 	0.72950 0.45720 0.37800 0.19200
C 	C 	0.54880 0.21530 0.33300 -0.88600
H 	H 	0.59820 0.19010 0.32610 0.28000
H 	H 	0.50610 0.14560 0.31160 0.28400
H 	H 	0.56640 0.22920 0.39180 0.28400
H 	H 	0.95080 0.06070 0.45000 0.16900
H 	H 	0.05240 0.06070 0.50100 0.20300
H 	H 	0.99680 0.06070 0.54900 0.17600
H 	H 	0.53630 0.58970 0.05630 0.20500
H 	H 	0.44190 0.58970 0.98070 0.20000
H 	H 	0.52180 0.58970 0.96300 0.19900
C 	C 	0.50000 0.37860 0.50000 0.62100
C 	C 	0.50000 0.52870 0.50000 -2.22000
C 	C 	0.00000 0.87860 0.50000 0.32100
C 	C 	0.00000 0.02870 0.50000 -1.16700
C 	C 	-0.00000 0.90560 -0.00000 0.18800
C 	C 	-0.00000 0.05780 -0.00000 -0.40000
C 	C 	0.50000 0.40560 -0.00000 0.47300
C 	C 	0.50000 0.55780 -0.00000 -1.40700
