data_crystal

_cell_length_a 5.50670
_cell_length_b 10.51190
_cell_length_c 28.17940
_cell_angle_alpha 90.00000
_cell_angle_beta  90.00000
_cell_angle_gamma 90.00000

_symmetry_space_group_name_	'P 1'
_symmetry_space_group_name_H-M	'P 1'

loop_
_symmetry_equiv_pos_as_xyz
  x,y,z

loop_
_atom_site_label
_atom_site_type_symbol
_atom_site_fract_x
_atom_site_fract_y
_atom_site_fract_z
_atom_site_charge
Cu	Cu	0.76643 0.51906 0.24051 0.76000
C 	C 	0.51910 0.40560 0.16075 0.07100
H 	H 	0.42180 0.37480 0.18520 -0.07200
C 	C 	0.44850 0.38390 0.11476 -0.15000
H 	H 	0.30540 0.34020 0.10830 0.08900
C 	C 	0.59340 0.42780 0.07792 0.05200
C 	C 	0.80750 0.48900 0.08931 -0.13900
H 	H 	0.91200 0.51640 0.06550 0.09400
C 	C 	0.86480 0.50910 0.13628 0.07100
H 	H 	0.00790 0.55180 0.14360 -0.04600
C 	C 	0.50810 0.40400 0.02965 0.15300
C 	C 	0.50660 0.39420 0.95518 0.15100
C 	C 	0.49030 0.37190 0.82444 0.07200
H 	H 	0.38550 0.33900 0.80160 -0.07600
C 	C 	0.43230 0.35670 0.87122 -0.15600
H 	H 	0.29140 0.31380 0.87990 0.09000
C 	C 	0.58610 0.40590 0.90552 0.05100
C 	C 	0.79930 0.46310 0.89141 -0.14100
H 	H 	0.90950 0.49340 0.91370 0.09200
C 	C 	0.84600 0.47450 0.84341 0.06200
H 	H 	0.98990 0.51300 0.83380 -0.05000
N 	N 	0.72170 0.46930 0.17209 -0.28000
N 	N 	0.30210 0.35690 0.01835 -0.09500
N 	N 	0.30060 0.35000 0.96885 -0.09500
N 	N 	0.69160 0.43210 0.80993 -0.28100
O 	O 	0.65140 0.43170 0.99154 -0.22600
Cu	Cu	0.73357 0.48094 0.74051 0.76000
C 	C 	0.98090 0.59440 0.66075 0.04900
H 	H 	0.07820 0.62520 0.68520 -0.06200
C 	C 	0.05150 0.61610 0.61476 -0.12500
H 	H 	0.19460 0.65980 0.60830 0.08200
C 	C 	0.90660 0.57220 0.57792 0.03700
C 	C 	0.69250 0.51100 0.58931 -0.12800
H 	H 	0.58800 0.48360 0.56550 0.09000
C 	C 	0.63520 0.49090 0.63628 0.06000
H 	H 	0.49210 0.44820 0.64360 -0.04100
C 	C 	0.99190 0.59600 0.52965 0.15200
C 	C 	0.99340 0.60580 0.45518 0.14600
C 	C 	0.00970 0.62810 0.32444 0.07300
H 	H 	0.11450 0.66100 0.30160 -0.07600
C 	C 	0.06770 0.64330 0.37122 -0.14900
H 	H 	0.20860 0.68620 0.37990 0.08900
C 	C 	0.91390 0.59410 0.40552 0.04600
C 	C 	0.70070 0.53690 0.39141 -0.13900
H 	H 	0.59050 0.50660 0.41370 0.09000
C 	C 	0.65400 0.52550 0.34341 0.06000
H 	H 	0.51010 0.48700 0.33380 -0.05000
N 	N 	0.77830 0.53070 0.67209 -0.27500
N 	N 	0.19790 0.64310 0.51835 -0.09100
N 	N 	0.19940 0.65000 0.46885 -0.09100
N 	N 	0.80840 0.56790 0.30993 -0.28200
O 	O 	0.84860 0.56830 0.49154 -0.22600
Cu	Cu	0.23357 0.01906 0.25949 0.75800
C 	C 	0.48090 0.90560 0.33925 0.06600
H 	H 	0.57820 0.87480 0.31480 -0.07000
C 	C 	0.55150 0.88390 0.38524 -0.14200
H 	H 	0.69460 0.84020 0.39170 0.08600
C 	C 	0.40660 0.92780 0.42208 0.04200
C 	C 	0.19250 0.98900 0.41069 -0.11400
H 	H 	0.08800 0.01640 0.43450 0.08400
C 	C 	0.13520 0.00910 0.36372 0.05200
H 	H 	0.99210 0.05180 0.35640 -0.04200
C 	C 	0.49190 0.90400 0.47035 0.15800
C 	C 	0.49340 0.89420 0.54482 0.15100
C 	C 	0.50970 0.87190 0.67556 0.07200
H 	H 	0.61450 0.83900 0.69840 -0.07600
C 	C 	0.56770 0.85670 0.62878 -0.15600
H 	H 	0.70860 0.81380 0.62010 0.08900
C 	C 	0.41390 0.90590 0.59448 0.05100
C 	C 	0.20070 0.96310 0.60859 -0.13900
H 	H 	0.09050 0.99340 0.58630 0.09200
C 	C 	0.15400 0.97450 0.65659 0.05900
H 	H 	0.01010 0.01300 0.66620 -0.04800
N 	N 	0.27830 0.96930 0.32791 -0.27300
N 	N 	0.69790 0.85690 0.48165 -0.09500
N 	N 	0.69940 0.85000 0.53115 -0.09600
N 	N 	0.30840 0.93210 0.69007 -0.28100
O 	O 	0.34860 0.93170 0.50846 -0.22600
Cu	Cu	0.26643 0.98094 0.75949 0.75800
C 	C 	0.01910 0.09440 0.83925 0.04900
H 	H 	0.92180 0.12520 0.81480 -0.06200
C 	C 	0.94850 0.11610 0.88524 -0.12300
H 	H 	0.80540 0.15980 0.89170 0.08100
C 	C 	0.09340 0.07220 0.92208 0.03100
C 	C 	0.30750 0.01100 0.91069 -0.10800
H 	H 	0.41200 0.98360 0.93450 0.08100
C 	C 	0.36480 0.99090 0.86372 0.04400
H 	H 	0.50790 0.94820 0.85640 -0.03700
C 	C 	0.00810 0.09600 0.97035 0.15600
C 	C 	0.00660 0.10580 0.04482 0.14700
C 	C 	0.99030 0.12810 0.17556 0.07200
H 	H 	0.88550 0.16100 0.19840 -0.07600
C 	C 	0.93230 0.14330 0.12878 -0.15000
H 	H 	0.79140 0.18620 0.12010 0.08900
C 	C 	0.08610 0.09410 0.09448 0.04600
C 	C 	0.29930 0.03690 0.10859 -0.13600
H 	H 	0.40950 0.00660 0.08630 0.08900
C 	C 	0.34600 0.02550 0.15659 0.05400
H 	H 	0.48990 0.98700 0.16620 -0.04600
N 	N 	0.22170 0.03070 0.82791 -0.27000
N 	N 	0.80210 0.14310 0.98165 -0.09200
N 	N 	0.80060 0.15000 0.03115 -0.09200
N 	N 	0.19160 0.06790 0.19007 -0.28000
O 	O 	0.15140 0.06830 0.00846 -0.22700
