data_crystal

_cell_length_a 14.33910
_cell_length_b 14.33910
_cell_length_c 14.33910
_cell_angle_alpha 60.00000
_cell_angle_beta  60.00000
_cell_angle_gamma 60.00000

_symmetry_space_group_name_	'P 1'
_symmetry_space_group_name_H-M	'P 1'

loop_
_symmetry_equiv_pos_as_xyz
  x,y,z

loop_
_atom_site_label
_atom_site_type_symbol
_atom_site_fract_x
_atom_site_fract_y
_atom_site_fract_z
_atom_site_charge
Ti	Ti	0.11693 0.88307 0.11693 3.12000
Ti	Ti	0.88307 0.11693 0.88307 3.11700
Ti	Ti	0.11693 0.11693 0.88307 3.12000
Ti	Ti	0.88307 0.88307 0.11693 3.11700
Ti	Ti	0.88307 0.11693 0.11693 3.12000
Ti	Ti	0.11693 0.88307 0.88307 3.11600
H 	H 	0.59485 0.84315 0.41917 0.04700
H 	H 	0.09304 0.72088 0.09304 0.33700
H 	H 	0.84315 0.41917 0.59485 0.04700
H 	H 	0.09304 0.09304 0.72088 0.33700
H 	H 	0.59485 0.14283 0.41917 0.04500
H 	H 	0.84315 0.14283 0.59485 0.04500
H 	H 	0.84315 0.41917 0.14283 0.04400
H 	H 	0.41917 0.14283 0.59485 0.04500
H 	H 	0.14283 0.41917 0.84315 0.04400
H 	H 	0.41917 0.84315 0.59485 0.04700
H 	H 	0.84315 0.59485 0.41917 0.04700
H 	H 	0.14283 0.84315 0.41917 0.04400
H 	H 	0.41917 0.84315 0.14283 0.04400
H 	H 	0.59485 0.41917 0.14283 0.04500
H 	H 	0.59485 0.14283 0.84315 0.04500
H 	H 	0.59485 0.41917 0.84315 0.04700
H 	H 	0.14283 0.59485 0.84315 0.04500
H 	H 	0.14283 0.84315 0.59485 0.04500
H 	H 	0.41917 0.14283 0.84315 0.04400
H 	H 	0.72088 0.09304 0.09304 0.33700
H 	H 	0.59485 0.84315 0.14283 0.04500
H 	H 	0.14283 0.41917 0.59485 0.04500
H 	H 	0.14283 0.59485 0.41917 0.04500
H 	H 	0.84315 0.14283 0.41917 0.04400
H 	H 	0.84315 0.59485 0.14283 0.04500
H 	H 	0.41917 0.59485 0.14283 0.04500
H 	H 	0.09304 0.09304 0.09304 0.34600
H 	H 	0.41917 0.59485 0.84315 0.04700
C 	C 	0.55561 0.45873 0.07765 0.04500
C 	C 	0.70546 0.99588 0.30278 0.45000
C 	C 	0.07765 0.55561 0.45873 0.04500
C 	C 	0.45873 0.55561 0.90801 0.01000
C 	C 	0.07765 0.45873 0.90801 0.03900
C 	C 	0.45873 0.07765 0.90801 0.03900
C 	C 	0.99332 0.60390 0.99332 -0.16400
C 	C 	0.99332 0.99332 0.60390 -0.16400
C 	C 	0.60390 0.99332 0.40946 -0.14500
C 	C 	0.99588 0.30278 0.70546 0.45000
C 	C 	0.45873 0.90801 0.55561 0.01000
C 	C 	0.90801 0.07765 0.55561 0.03400
C 	C 	0.07765 0.90801 0.45873 0.03900
C 	C 	0.99332 0.60390 0.40946 -0.14500
C 	C 	0.55561 0.07765 0.45873 0.04500
C 	C 	0.30278 0.99588 0.70546 0.45000
C 	C 	0.70546 0.30278 0.99588 0.45000
C 	C 	0.07765 0.55561 0.90801 0.03400
C 	C 	0.40946 0.99332 0.60390 -0.14500
C 	C 	0.45873 0.90801 0.07765 0.03900
C 	C 	0.07765 0.45873 0.55561 0.04500
C 	C 	0.90801 0.55561 0.45873 0.01000
C 	C 	0.45873 0.07765 0.55561 0.04500
C 	C 	0.99332 0.40946 0.60390 -0.14500
C 	C 	0.30278 0.99588 0.99588 0.41500
C 	C 	0.40946 0.99332 0.99332 -0.16600
C 	C 	0.55561 0.45873 0.90801 0.01000
C 	C 	0.55561 0.07765 0.90801 0.03400
C 	C 	0.30278 0.70546 0.99588 0.45000
C 	C 	0.99588 0.70546 0.99588 0.43700
C 	C 	0.90801 0.55561 0.07765 0.03400
C 	C 	0.07765 0.90801 0.55561 0.03400
C 	C 	0.99332 0.40946 0.99332 -0.16600
C 	C 	0.60390 0.40946 0.99332 -0.14500
C 	C 	0.55561 0.90801 0.07765 0.03400
C 	C 	0.99588 0.99588 0.30278 0.41500
C 	C 	0.90801 0.07765 0.45873 0.03900
C 	C 	0.45873 0.55561 0.07765 0.04500
C 	C 	0.99588 0.30278 0.99588 0.41500
C 	C 	0.55561 0.90801 0.45873 0.01000
C 	C 	0.90801 0.45873 0.55561 0.01000
C 	C 	0.99588 0.70546 0.30278 0.45000
C 	C 	0.90801 0.45873 0.07765 0.03900
C 	C 	0.40946 0.60390 0.99332 -0.14500
C 	C 	0.70546 0.99588 0.99588 0.43700
C 	C 	0.99588 0.99588 0.70546 0.43700
C 	C 	0.99332 0.99332 0.40946 -0.16600
C 	C 	0.60390 0.99332 0.99332 -0.16400
O 	O 	0.07720 0.26112 0.74370 -0.60900
O 	O 	0.91798 0.07720 0.26112 -0.61400
O 	O 	0.74370 0.91798 0.26112 -0.64400
O 	O 	0.07720 0.74370 0.26112 -0.60900
O 	O 	0.07720 0.91798 0.74370 -0.62400
O 	O 	0.91798 0.26112 0.07720 -0.61400
O 	O 	0.95107 0.14679 0.95107 -1.42400
O 	O 	0.91798 0.74370 0.26112 -0.64400
O 	O 	0.26112 0.91798 0.74370 -0.64400
O 	O 	0.14679 0.95107 0.95107 -1.42400
O 	O 	0.91798 0.74370 0.07720 -0.62400
O 	O 	0.26112 0.74370 0.91798 -0.64400
O 	O 	0.74370 0.07720 0.26112 -0.60900
O 	O 	0.80407 0.06531 0.06531 -1.17600
O 	O 	0.26112 0.74370 0.07720 -0.60900
O 	O 	0.07720 0.74370 0.91798 -0.62400
O 	O 	0.91798 0.26112 0.74370 -0.64400
O 	O 	0.26112 0.07720 0.74370 -0.60900
O 	O 	0.26112 0.07720 0.91798 -0.61400
O 	O 	0.26112 0.91798 0.07720 -0.61400
O 	O 	0.91798 0.07720 0.74370 -0.62400
O 	O 	0.74370 0.07720 0.91798 -0.62400
O 	O 	0.07720 0.26112 0.91798 -0.61400
O 	O 	0.06531 0.80407 0.06531 -1.17600
O 	O 	0.95107 0.95107 0.14679 -1.42400
O 	O 	0.06531 0.06531 0.80407 -1.17600
O 	O 	0.06531 0.06531 0.06531 -1.14000
O 	O 	0.07720 0.91798 0.26112 -0.61400
O 	O 	0.74370 0.26112 0.07720 -0.60900
O 	O 	0.74370 0.91798 0.07720 -0.62400
O 	O 	0.95107 0.95107 0.95107 -1.43100
O 	O 	0.74370 0.26112 0.91798 -0.64400
