data_crystal

_cell_length_a 14.38580
_cell_length_b 14.76160
_cell_length_c 14.76160
_cell_angle_alpha 61.62910
_cell_angle_beta  60.83870
_cell_angle_gamma 60.83860

_symmetry_space_group_name_	'P 1'
_symmetry_space_group_name_H-M	'P 1'

loop_
_symmetry_equiv_pos_as_xyz
  x,y,z

loop_
_atom_site_label
_atom_site_type_symbol
_atom_site_fract_x
_atom_site_fract_y
_atom_site_fract_z
_atom_site_charge
C 	C 	0.90999 0.55445 0.07727 0.03300
C 	C 	0.91108 0.45944 0.07820 0.03800
C 	C 	0.90999 0.07725 0.55445 0.03200
C 	C 	0.99556 0.31006 0.69882 0.41500
C 	C 	0.46924 0.90182 0.06378 0.04400
C 	C 	0.45829 0.55445 0.07727 0.04200
C 	C 	0.99358 0.99594 0.41196 -0.17300
C 	C 	0.99459 0.59951 0.41131 -0.13700
C 	C 	0.42058 0.98452 0.98450 -0.18900
C 	C 	0.91068 0.55186 0.45928 0.00300
C 	C 	0.55294 0.46104 0.91202 0.00900
C 	C 	0.91068 0.45928 0.55186 0.00300
C 	C 	0.56515 0.06379 0.90181 0.03900
C 	C 	0.41181 0.99411 0.60277 -0.15300
C 	C 	0.99459 0.41131 0.59951 -0.13700
C 	C 	0.07288 0.55610 0.91110 0.03100
C 	C 	0.55286 0.91206 0.46100 0.00900
C 	C 	0.56516 0.90182 0.06378 0.03900
C 	C 	0.99646 0.99886 0.30828 0.41700
C 	C 	0.99243 0.70261 0.99551 0.43300
C 	C 	0.55128 0.45944 0.07820 0.04300
C 	C 	0.07818 0.55186 0.45928 0.03600
C 	C 	0.99242 0.99554 0.70262 0.43300
C 	C 	0.30942 0.99554 0.70262 0.44500
C 	C 	0.99129 0.60279 0.99407 -0.17000
C 	C 	0.07408 0.91206 0.46100 0.03600
C 	C 	0.30945 0.70261 0.99551 0.44500
C 	C 	0.41185 0.60279 0.99407 -0.15300
C 	C 	0.55130 0.07816 0.45944 0.04300
C 	C 	0.07400 0.46104 0.91202 0.03600
C 	C 	0.31112 0.99248 0.99246 0.44700
C 	C 	0.61040 0.98452 0.98450 -0.18800
C 	C 	0.91110 0.07816 0.45944 0.03700
C 	C 	0.46925 0.06379 0.90181 0.04400
C 	C 	0.99643 0.30827 0.99889 0.41700
C 	C 	0.07818 0.45928 0.55186 0.03600
C 	C 	0.99352 0.41196 0.99598 -0.17300
C 	C 	0.99557 0.69881 0.31005 0.41500
C 	C 	0.45831 0.07725 0.55445 0.04300
C 	C 	0.45982 0.91114 0.55608 0.00900
C 	C 	0.70394 0.99248 0.99246 0.46700
C 	C 	0.69640 0.99886 0.30828 0.44800
C 	C 	0.69641 0.30827 0.99889 0.44800
C 	C 	0.07296 0.91114 0.55608 0.03100
C 	C 	0.59854 0.41196 0.99598 -0.15400
C 	C 	0.45992 0.55612 0.91108 0.00900
C 	C 	0.59852 0.99594 0.41196 -0.15400
C 	C 	0.99131 0.99411 0.60277 -0.17000
H 	H 	0.84515 0.42297 0.58815 0.03800
H 	H 	0.41982 0.59218 0.14090 0.03700
H 	H 	0.71248 0.09624 0.09628 0.30700
H 	H 	0.84707 0.14085 0.59221 0.03600
H 	H 	0.09176 0.09560 0.72088 0.31200
H 	H 	0.13715 0.84859 0.42313 0.03600
H 	H 	0.42879 0.12541 0.84109 0.03500
H 	H 	0.42265 0.84701 0.59515 0.03800
H 	H 	0.58831 0.42029 0.14245 0.03600
H 	H 	0.60471 0.12541 0.84109 0.03600
H 	H 	0.41987 0.14085 0.59221 0.03700
H 	H 	0.13507 0.59521 0.84691 0.03600
H 	H 	0.84513 0.58815 0.42299 0.03800
H 	H 	0.59113 0.84859 0.42313 0.03800
H 	H 	0.60474 0.84110 0.12536 0.03600
H 	H 	0.42281 0.59521 0.84691 0.03800
H 	H 	0.09500 0.09624 0.09628 0.31400
H 	H 	0.84710 0.59218 0.14090 0.03600
H 	H 	0.14373 0.42297 0.58815 0.03700
H 	H 	0.58837 0.14237 0.42031 0.03700
H 	H 	0.84895 0.42029 0.14245 0.03500
H 	H 	0.59127 0.42319 0.84853 0.03800
H 	H 	0.09177 0.72089 0.09557 0.31200
H 	H 	0.14373 0.58815 0.42299 0.03700
H 	H 	0.42880 0.84110 0.12536 0.03600
H 	H 	0.13519 0.84701 0.59515 0.03600
H 	H 	0.84895 0.14237 0.42031 0.03500
H 	H 	0.13701 0.42319 0.84853 0.03600
O 	O 	0.91756 0.73744 0.26974 -0.62300
O 	O 	0.26851 0.74091 0.07381 -0.61500
O 	O 	0.07534 0.92364 0.26658 -0.63200
O 	O 	0.73450 0.07732 0.26720 -0.62000
O 	O 	0.07526 0.73742 0.26976 -0.58900
O 	O 	0.91677 0.74091 0.07381 -0.62900
O 	O 	0.26822 0.74180 0.91966 -0.65500
O 	O 	0.73444 0.92364 0.26658 -0.66000
O 	O 	0.06732 0.06904 0.06906 -1.09100
O 	O 	0.73931 0.92143 0.07203 -0.66600
O 	O 	0.14651 0.95277 0.95279 -1.38200
O 	O 	0.73449 0.26655 0.92367 -0.66100
O 	O 	0.06569 0.80025 0.06837 -1.17400
O 	O 	0.91675 0.07381 0.74093 -0.62900
O 	O 	0.73929 0.07205 0.92145 -0.66600
O 	O 	0.91755 0.26975 0.73745 -0.62300
O 	O 	0.79458 0.06904 0.06906 -1.12300
O 	O 	0.94793 0.95277 0.95279 -1.38900
O 	O 	0.26820 0.91968 0.74180 -0.65500
O 	O 	0.06568 0.06838 0.80026 -1.17400
O 	O 	0.26721 0.07205 0.92145 -0.65600
O 	O 	0.07032 0.74180 0.91966 -0.63600
O 	O 	0.07525 0.26975 0.73745 -0.59000
O 	O 	0.07032 0.91968 0.74180 -0.63600
O 	O 	0.26724 0.92144 0.07202 -0.65600
O 	O 	0.73448 0.26718 0.07738 -0.62000
O 	O 	0.26851 0.07381 0.74093 -0.61500
O 	O 	0.92096 0.26718 0.07738 -0.62400
O 	O 	0.92098 0.07732 0.26720 -0.62400
O 	O 	0.07529 0.26655 0.92367 -0.63200
O 	O 	0.94785 0.15131 0.95299 -1.42900
O 	O 	0.94786 0.95298 0.15130 -1.42900
Zr	Zr	0.87732 0.12200 0.88148 3.21100
Zr	Zr	0.11920 0.12200 0.88148 3.21400
Zr	Zr	0.87791 0.12207 0.12211 3.21500
Zr	Zr	0.11922 0.88146 0.12198 3.21400
Zr	Zr	0.11883 0.88117 0.88117 3.21100
Zr	Zr	0.87734 0.88146 0.12198 3.21100
