data_crystal

_cell_length_a 14.62220
_cell_length_b 14.62220
_cell_length_c 14.62220
_cell_angle_alpha 93.40190
_cell_angle_beta  118.05600
_cell_angle_gamma 118.05600

_symmetry_space_group_name_	'P 1'
_symmetry_space_group_name_H-M	'P 1'

loop_
_symmetry_equiv_pos_as_xyz
  x,y,z

loop_
_atom_site_label
_atom_site_type_symbol
_atom_site_fract_x
_atom_site_fract_y
_atom_site_fract_z
_atom_site_charge
C 	C 	0.37528 0.90516 0.92376 -0.12900
C 	C 	0.69542 0.99810 0.69352 0.38300
C 	C 	0.01752 0.60285 0.00483 -0.00500
C 	C 	0.52634 0.45422 0.43546 0.04300
C 	C 	0.62658 0.54934 0.08288 -0.00700
C 	C 	0.01864 0.47016 0.09486 -0.00400
C 	C 	0.40198 0.41468 0.39716 -0.16600
C 	C 	0.01878 0.56457 0.09091 -0.10100
C 	C 	0.98248 0.99519 0.39717 -0.09600
C 	C 	0.62470 0.07621 0.09487 0.06500
C 	C 	0.70152 0.00087 0.01219 0.59300
C 	C 	0.98140 0.90516 0.52988 0.04700
C 	C 	0.52632 0.07208 0.09092 -0.01800
C 	C 	0.29848 0.98780 0.99916 0.28100
C 	C 	0.30458 0.30646 0.00188 0.53300
C 	C 	0.59802 0.60285 0.58533 -0.08900
C 	C 	0.01132 0.70067 0.99917 0.30300
C 	C 	0.69544 0.69734 0.00190 0.48600
C 	C 	0.98126 0.90912 0.43546 0.07100
C 	C 	0.59804 0.99520 0.01272 -0.10700
C 	C 	0.47366 0.56457 0.54579 -0.02200
C 	C 	0.37342 0.45630 0.92274 -0.04800
C 	C 	0.46646 0.54934 0.92276 -0.08900
C 	C 	0.98866 0.98781 0.68933 0.45300
C 	C 	0.01752 0.41468 0.01270 -0.17700
C 	C 	0.01860 0.54849 0.92377 -0.16800
C 	C 	0.40198 0.98729 0.00483 0.04000
C 	C 	0.53356 0.07720 0.45062 0.06300
C 	C 	0.46646 0.91706 0.54364 -0.03000
C 	C 	0.01876 0.45422 0.92788 -0.05800
C 	C 	0.62470 0.54847 0.52987 -0.00100
C 	C 	0.98134 0.07622 0.45152 0.08800
C 	C 	0.59454 0.59724 0.00270 -0.01000
C 	C 	0.53356 0.45630 0.08288 0.03200
C 	C 	0.47366 0.90912 0.92786 -0.03700
C 	C 	0.62658 0.07720 0.54364 0.02500
C 	C 	0.29852 0.31069 0.29935 0.52800
C 	C 	0.30458 0.99810 0.30268 0.44300
C 	C 	0.98246 0.98729 0.58531 -0.05700
C 	C 	0.40548 0.40817 0.00269 -0.08600
C 	C 	0.40548 0.99727 0.40273 -0.17100
C 	C 	0.37342 0.91706 0.45060 0.00900
C 	C 	0.01134 0.31069 0.01217 0.57500
C 	C 	0.59454 0.99727 0.59179 -0.09600
C 	C 	0.37530 0.47016 0.45152 0.01900
C 	C 	0.98868 0.00087 0.29935 0.53400
C 	C 	0.98116 0.07208 0.54576 0.06800
C 	C 	0.70150 0.70067 0.68935 0.47000
H 	H 	0.18606 0.08871 0.90265 0.22300
H 	H 	0.01860 0.40906 0.86576 -0.06400
H 	H 	0.72574 0.13984 0.58018 0.11400
H 	H 	0.98174 0.14166 0.41928 0.13500
H 	H 	0.72238 0.14166 0.15992 0.10100
H 	H 	0.55966 0.13984 0.41410 0.06100
H 	H 	0.18608 0.09736 0.28342 0.22700
H 	H 	0.01858 0.60956 0.15284 -0.04000
H 	H 	0.44034 0.85443 0.58015 0.01300
H 	H 	0.45676 0.84722 0.86574 0.01100
H 	H 	0.54328 0.40904 0.39044 0.06000
H 	H 	0.01820 0.43748 0.15988 -0.06500
H 	H 	0.45672 0.60956 0.59098 0.01900
H 	H 	0.72572 0.58583 0.14547 0.12000
H 	H 	0.81394 0.71662 0.90268 0.35600
H 	H 	0.27762 0.84015 0.85831 -0.00900
H 	H 	0.44036 0.58583 0.86011 0.02100
H 	H 	0.98148 0.84722 0.39046 0.13800
H 	H 	0.55966 0.41976 0.14548 0.06700
H 	H 	0.54324 0.13419 0.15287 0.08300
H 	H 	0.27760 0.43748 0.41928 -0.03400
H 	H 	0.72240 0.58073 0.56255 0.11300
H 	H 	0.01818 0.58073 0.85833 -0.03800
H 	H 	0.98132 0.13419 0.59095 0.14200
H 	H 	0.98184 0.84015 0.56253 0.14100
H 	H 	0.81394 0.09736 0.91128 0.35800
H 	H 	0.27428 0.85443 0.41409 -0.04000
H 	H 	0.27428 0.41976 0.86010 -0.03200
O 	O 	0.86710 0.06977 0.93685 -0.98700
O 	O 	0.00656 0.73385 0.91917 -0.85000
O 	O 	0.66776 0.92420 0.93266 -0.78900
O 	O 	0.99344 0.08087 0.26617 -0.42100
O 	O 	0.65920 0.73585 0.92565 -0.66600
O 	O 	0.18982 0.26644 0.92562 -0.79000
O 	O 	0.18530 0.27272 0.26614 -0.78000
O 	O 	0.13290 0.06314 0.93024 -1.36600
O 	O 	0.99154 0.92420 0.25644 -0.48100
O 	O 	0.65920 0.92336 0.73356 -0.60500
O 	O 	0.00658 0.27272 0.08742 -0.87200
O 	O 	0.18980 0.92336 0.26416 -0.73500
O 	O 	0.18528 0.91256 0.91916 -0.75800
O 	O 	0.34082 0.07437 0.26417 -0.57900
O 	O 	0.09758 0.14895 0.05137 -1.49800
O 	O 	0.00842 0.74354 0.07582 -0.82000
O 	O 	0.81470 0.08087 0.08743 -0.52300
O 	O 	0.66772 0.74354 0.73512 -0.69700
O 	O 	0.13292 0.06977 0.20267 -1.34200
O 	O 	0.86710 0.79736 0.93026 -1.00600
O 	O 	0.81468 0.73385 0.72729 -0.50700
O 	O 	0.33224 0.06734 0.07582 -0.57900
O 	O 	0.99340 0.91256 0.72728 -0.41300
O 	O 	0.99152 0.06734 0.73510 -0.43300
O 	O 	0.33228 0.26492 0.25644 -0.69900
O 	O 	0.34082 0.26644 0.07662 -0.61200
O 	O 	0.00848 0.26492 0.93264 -0.97000
O 	O 	0.09758 0.94864 0.04622 -1.51200
O 	O 	0.81020 0.73585 0.07665 -0.46600
O 	O 	0.81020 0.07437 0.73355 -0.43000
O 	O 	0.90242 0.94864 0.85106 -1.20000
O 	O 	0.90242 0.95380 0.05138 -1.15000
Zr	Zr	0.00000 0.11844 0.88156 3.13800
Zr	Zr	0.00000 0.87559 0.87559 3.13000
Zr	Zr	-0.00000 0.12443 0.12443 3.14200
Zr	Zr	-0.00000 0.88158 0.11844 3.13900
Zr	Zr	0.23688 0.11844 0.11844 3.21800
Zr	Zr	0.76314 0.88158 0.88158 3.20800
