data_crystal

_cell_length_a 14.75470
_cell_length_b 14.75470
_cell_length_c 14.75470
_cell_angle_alpha 60.00000
_cell_angle_beta  60.00000
_cell_angle_gamma 60.00000

_symmetry_space_group_name_	'P 1'
_symmetry_space_group_name_H-M	'P 1'

loop_
_symmetry_equiv_pos_as_xyz
  x,y,z

loop_
_atom_site_label
_atom_site_type_symbol
_atom_site_fract_x
_atom_site_fract_y
_atom_site_fract_z
_atom_site_charge
C 	C 	0.30002 0.00454 0.69090 0.44800
C 	C 	0.44556 0.53970 0.08974 0.01000
C 	C 	0.53970 0.08974 0.44558 0.01000
C 	C 	0.00454 0.30002 0.00454 0.43600
C 	C 	0.00692 0.39864 0.58754 -0.15200
C 	C 	0.00454 0.69090 0.00454 0.41500
C 	C 	0.92500 0.53970 0.08974 0.03600
C 	C 	0.53970 0.08974 0.92500 0.03600
C 	C 	0.00454 0.69090 0.30002 0.44700
C 	C 	0.53970 0.44558 0.92500 0.04200
C 	C 	0.69090 0.00454 0.00454 0.41500
C 	C 	0.92500 0.53970 0.44558 0.04200
C 	C 	0.30002 0.69090 0.00454 0.44700
C 	C 	0.58754 0.39864 0.00692 -0.15200
C 	C 	0.08974 0.53970 0.44558 0.00900
C 	C 	0.08974 0.53970 0.92500 0.03600
C 	C 	0.39865 0.00691 0.00691 -0.17000
C 	C 	0.69090 0.30002 0.00454 0.44700
C 	C 	0.39864 0.00692 0.58754 -0.15200
C 	C 	0.58754 0.00692 0.39864 -0.15200
C 	C 	0.00454 0.30002 0.69090 0.44700
C 	C 	0.00692 0.58754 0.39864 -0.15200
C 	C 	0.00691 0.58755 0.00691 -0.17200
C 	C 	0.69090 0.00454 0.30002 0.44700
C 	C 	0.08974 0.92500 0.53970 0.03600
C 	C 	0.39864 0.58754 0.00692 -0.15200
C 	C 	0.92500 0.44558 0.08974 0.03200
C 	C 	0.44556 0.08974 0.53970 0.00900
C 	C 	0.92500 0.44558 0.53970 0.04200
C 	C 	0.08974 0.44558 0.92500 0.03200
C 	C 	0.08974 0.44558 0.53970 0.00900
C 	C 	0.92500 0.08974 0.53970 0.03600
C 	C 	0.44556 0.53970 0.92500 0.04200
C 	C 	0.58755 0.00691 0.00691 -0.17200
C 	C 	0.00691 0.00691 0.39865 -0.17000
C 	C 	0.92500 0.08974 0.44556 0.03200
C 	C 	0.53970 0.92500 0.44558 0.04200
C 	C 	0.00454 0.00454 0.30002 0.43500
C 	C 	0.53970 0.44558 0.08974 0.00900
C 	C 	0.00691 0.00691 0.58755 -0.17200
C 	C 	0.53970 0.92500 0.08974 0.03600
C 	C 	0.44556 0.92500 0.08974 0.03200
C 	C 	0.44556 0.92500 0.53970 0.04200
C 	C 	0.30002 0.00454 0.00454 0.43500
C 	C 	0.00691 0.39865 0.00691 -0.17000
C 	C 	0.00454 0.00454 0.69090 0.41500
C 	C 	0.44556 0.08974 0.92500 0.03200
C 	C 	0.08974 0.92500 0.44558 0.03200
H 	H 	0.57791 0.15295 0.86167 0.03600
H 	H 	0.86166 0.40746 0.57792 0.03700
H 	H 	0.90558 0.90558 0.28324 0.31100
H 	H 	0.86167 0.15295 0.40745 0.03600
H 	H 	0.57792 0.15294 0.40746 0.03800
H 	H 	0.15294 0.40746 0.86166 0.03600
H 	H 	0.57792 0.86166 0.15294 0.03600
H 	H 	0.86166 0.57792 0.15294 0.03600
H 	H 	0.86166 0.57792 0.40746 0.03700
H 	H 	0.28325 0.90559 0.90557 0.31000
H 	H 	0.15294 0.86168 0.40746 0.03600
H 	H 	0.57792 0.86166 0.40746 0.03700
H 	H 	0.15294 0.86168 0.57792 0.03600
H 	H 	0.90558 0.90558 0.90558 0.31800
H 	H 	0.15294 0.40746 0.57792 0.03800
H 	H 	0.40745 0.15295 0.86167 0.03600
H 	H 	0.40746 0.57792 0.86166 0.03700
H 	H 	0.40746 0.15294 0.57792 0.03800
H 	H 	0.90559 0.28325 0.90557 0.31000
H 	H 	0.15294 0.57792 0.40746 0.03800
H 	H 	0.86167 0.15295 0.57791 0.03600
H 	H 	0.15294 0.57792 0.86166 0.03600
H 	H 	0.86166 0.40746 0.15294 0.03600
H 	H 	0.40746 0.86168 0.15294 0.03600
H 	H 	0.40746 0.86168 0.57792 0.03700
H 	H 	0.57792 0.40746 0.15294 0.03800
H 	H 	0.40746 0.57792 0.15294 0.03800
H 	H 	0.57792 0.40746 0.86166 0.03700
O 	O 	0.26174 0.73228 0.08000 -0.65500
O 	O 	0.93249 0.20253 0.93249 -1.15000
O 	O 	0.08000 0.26174 0.73228 -0.65500
O 	O 	0.92598 0.08000 0.26174 -0.63500
O 	O 	0.26174 0.08000 0.73228 -0.65500
O 	O 	0.04964 0.04964 0.85108 -1.40800
O 	O 	0.92598 0.26174 0.73228 -0.62100
O 	O 	0.73228 0.26174 0.08000 -0.65500
O 	O 	0.26174 0.92598 0.08000 -0.63500
O 	O 	0.04964 0.04964 0.04966 -1.41400
O 	O 	0.26174 0.73228 0.92598 -0.62100
O 	O 	0.73228 0.92598 0.08000 -0.62500
O 	O 	0.92598 0.26174 0.08000 -0.63500
O 	O 	0.08000 0.92598 0.26174 -0.63500
O 	O 	0.93249 0.93249 0.20253 -1.15000
O 	O 	0.08000 0.73228 0.26174 -0.65500
O 	O 	0.08000 0.92598 0.73228 -0.62500
O 	O 	0.73228 0.08000 0.26174 -0.65500
O 	O 	0.93249 0.93249 0.93249 -1.11700
O 	O 	0.08000 0.26174 0.92598 -0.63500
O 	O 	0.73228 0.08000 0.92598 -0.62500
O 	O 	0.85107 0.04965 0.04965 -1.40800
O 	O 	0.26174 0.92598 0.73228 -0.62100
O 	O 	0.92598 0.73228 0.26174 -0.62100
O 	O 	0.73228 0.92598 0.26174 -0.62100
O 	O 	0.26174 0.08000 0.92598 -0.63500
O 	O 	0.73228 0.26174 0.92598 -0.62100
O 	O 	0.20253 0.93249 0.93249 -1.15000
O 	O 	0.92598 0.08000 0.73228 -0.62500
O 	O 	0.04965 0.85107 0.04965 -1.40800
O 	O 	0.92598 0.73228 0.08000 -0.62500
O 	O 	0.08000 0.73228 0.92598 -0.62500
Zr	Zr	0.87956 0.12044 0.87956 3.21400
Zr	Zr	0.12044 0.12044 0.87956 3.21200
Zr	Zr	0.87956 0.12044 0.12044 3.21200
Zr	Zr	0.87956 0.87956 0.12044 3.21400
Zr	Zr	0.12044 0.87956 0.87956 3.21400
Zr	Zr	0.12044 0.87956 0.12044 3.21200
