data_crystal

_cell_length_a 14.87750
_cell_length_b 14.87750
_cell_length_c 14.87750
_cell_angle_alpha 60.00000
_cell_angle_beta  60.00000
_cell_angle_gamma 60.00000

_symmetry_space_group_name_	'P 1'
_symmetry_space_group_name_H-M	'P 1'

loop_
_symmetry_equiv_pos_as_xyz
  x,y,z

loop_
_atom_site_label
_atom_site_type_symbol
_atom_site_fract_x
_atom_site_fract_y
_atom_site_fract_z
_atom_site_charge
Hf	Hf	0.12089 0.87911 0.12089 1.43300
Hf	Hf	0.12089 0.87911 0.87911 1.45100
Hf	Hf	0.87911 0.87911 0.12089 1.45100
Hf	Hf	0.87911 0.12089 0.12089 1.43300
Hf	Hf	0.87911 0.12089 0.87911 1.45100
Hf	Hf	0.12089 0.12089 0.87911 1.43300
H 	H 	0.86270 0.57744 0.15148 0.04400
H 	H 	0.40838 0.57744 0.86270 0.04600
H 	H 	0.57744 0.40838 0.15148 0.04600
H 	H 	0.15148 0.57744 0.86270 0.04300
H 	H 	0.15148 0.40838 0.57744 0.04600
H 	H 	0.40838 0.86270 0.15148 0.04300
H 	H 	0.86270 0.15148 0.40838 0.04300
H 	H 	0.57744 0.40838 0.86270 0.04500
H 	H 	0.40838 0.86270 0.57744 0.04500
H 	H 	0.28560 0.90480 0.90480 0.21000
H 	H 	0.57744 0.15148 0.40838 0.04600
H 	H 	0.86270 0.15148 0.57744 0.04300
H 	H 	0.57744 0.86270 0.15148 0.04300
H 	H 	0.90480 0.28560 0.90480 0.21000
H 	H 	0.86270 0.40838 0.15148 0.04300
H 	H 	0.15148 0.86270 0.40838 0.04300
H 	H 	0.90480 0.90480 0.90480 0.21600
H 	H 	0.57744 0.15148 0.86270 0.04300
H 	H 	0.90480 0.90480 0.28560 0.21000
H 	H 	0.15148 0.57744 0.40838 0.04600
H 	H 	0.86270 0.57744 0.40838 0.04500
H 	H 	0.40838 0.15148 0.86270 0.04300
H 	H 	0.86270 0.40838 0.57744 0.04500
H 	H 	0.57744 0.86270 0.40838 0.04500
H 	H 	0.40838 0.57744 0.15148 0.04600
H 	H 	0.15148 0.86270 0.57744 0.04300
H 	H 	0.15148 0.40838 0.86270 0.04300
H 	H 	0.40838 0.15148 0.57744 0.04600
C 	C 	0.44609 0.53949 0.92557 0.02500
C 	C 	0.00434 0.30142 0.00434 0.28200
C 	C 	0.92557 0.53949 0.44609 0.02500
C 	C 	0.08885 0.92557 0.44609 0.02100
C 	C 	0.00675 0.00675 0.39939 -0.12600
C 	C 	0.92557 0.08885 0.44609 0.02100
C 	C 	0.53949 0.92557 0.44609 0.02500
C 	C 	0.44609 0.08885 0.92557 0.02100
C 	C 	0.53949 0.44609 0.08885 -0.00400
C 	C 	0.08885 0.53949 0.92557 0.02300
C 	C 	0.58711 0.00675 0.39939 -0.10300
C 	C 	0.53949 0.08885 0.44609 -0.00400
C 	C 	0.58711 0.39939 0.00675 -0.10300
C 	C 	0.68990 0.00434 0.00434 0.27600
C 	C 	0.00434 0.68990 0.00434 0.27600
C 	C 	0.00434 0.00434 0.68990 0.27600
C 	C 	0.30142 0.00434 0.68990 0.30600
C 	C 	0.53949 0.92557 0.08885 0.02300
C 	C 	0.68990 0.30142 0.00434 0.30600
C 	C 	0.08885 0.44609 0.92557 0.02100
C 	C 	0.92557 0.53949 0.08885 0.02300
C 	C 	0.92557 0.08885 0.53949 0.02300
C 	C 	0.39939 0.00675 0.00675 -0.12600
C 	C 	0.00675 0.39939 0.58711 -0.10300
C 	C 	0.00675 0.39939 0.00675 -0.12600
C 	C 	0.39939 0.00675 0.58711 -0.10300
C 	C 	0.08885 0.44609 0.53949 -0.00400
C 	C 	0.39939 0.58711 0.00675 -0.10300
C 	C 	0.53949 0.44609 0.92557 0.02500
C 	C 	0.58711 0.00675 0.00675 -0.12700
C 	C 	0.00675 0.58711 0.39939 -0.10300
C 	C 	0.00675 0.00675 0.58711 -0.12700
C 	C 	0.08885 0.53949 0.44609 -0.00400
C 	C 	0.00675 0.58711 0.00675 -0.12700
C 	C 	0.92557 0.44609 0.08885 0.02100
C 	C 	0.08885 0.92557 0.53949 0.02300
C 	C 	0.44609 0.92557 0.53949 0.02500
C 	C 	0.30142 0.68990 0.00434 0.30600
C 	C 	0.44609 0.92557 0.08885 0.02100
C 	C 	0.53949 0.08885 0.92557 0.02300
C 	C 	0.00434 0.30142 0.68990 0.30600
C 	C 	0.44609 0.08885 0.53949 -0.00400
C 	C 	0.44609 0.53949 0.08885 -0.00400
C 	C 	0.30142 0.00434 0.00434 0.28200
C 	C 	0.68990 0.00434 0.30142 0.30600
C 	C 	0.92557 0.44609 0.53949 0.02500
C 	C 	0.00434 0.00434 0.30142 0.28200
C 	C 	0.00434 0.68990 0.30142 0.30600
O 	O 	0.72998 0.26446 0.07968 -0.37200
O 	O 	0.84550 0.05150 0.05150 -0.62400
O 	O 	0.26446 0.92588 0.07968 -0.34700
O 	O 	0.07968 0.26446 0.72998 -0.37200
O 	O 	0.72998 0.07968 0.92588 -0.34400
O 	O 	0.26446 0.92588 0.72998 -0.34400
O 	O 	0.26446 0.07968 0.72998 -0.37200
O 	O 	0.92588 0.07968 0.26446 -0.34700
O 	O 	0.05150 0.05150 0.05150 -0.63600
O 	O 	0.72998 0.07968 0.26446 -0.37200
O 	O 	0.92588 0.07968 0.72998 -0.34400
O 	O 	0.72998 0.26446 0.92588 -0.34400
O 	O 	0.93147 0.20559 0.93147 -0.53800
O 	O 	0.92588 0.26446 0.72998 -0.34400
O 	O 	0.26446 0.72998 0.92588 -0.34400
O 	O 	0.07968 0.72998 0.92588 -0.34400
O 	O 	0.07968 0.26446 0.92588 -0.34700
O 	O 	0.26446 0.07968 0.92588 -0.34700
O 	O 	0.05150 0.84550 0.05150 -0.62400
O 	O 	0.92588 0.72998 0.26446 -0.34400
O 	O 	0.72998 0.92588 0.07968 -0.34400
O 	O 	0.07968 0.92588 0.72998 -0.34400
O 	O 	0.20559 0.93147 0.93147 -0.53800
O 	O 	0.92588 0.72998 0.07968 -0.34400
O 	O 	0.72998 0.92588 0.26446 -0.34400
O 	O 	0.26446 0.72998 0.07968 -0.37200
O 	O 	0.05150 0.05150 0.84550 -0.62400
O 	O 	0.07968 0.72998 0.26446 -0.37200
O 	O 	0.93147 0.93147 0.93147 -0.52100
O 	O 	0.93147 0.93147 0.20559 -0.53800
O 	O 	0.07968 0.92588 0.26446 -0.34700
O 	O 	0.92588 0.26446 0.07968 -0.34700
