data_crystal

_cell_length_a 7.99730
_cell_length_b 9.77430
_cell_length_c 10.86270
_cell_angle_alpha 87.19400
_cell_angle_beta  84.67900
_cell_angle_gamma 74.74400

_symmetry_space_group_name_	'P 1'
_symmetry_space_group_name_H-M	'P 1'

loop_
_symmetry_equiv_pos_as_xyz
  x,y,z

loop_
_atom_site_label
_atom_site_type_symbol
_atom_site_fract_x
_atom_site_fract_y
_atom_site_fract_z
_atom_site_charge
Cu	Cu	0.87713 0.92944 0.01304 0.92200
C 	C 	0.01440 0.98760 0.62790 -0.03000
C 	C 	0.11630 0.88200 0.54990 -0.04600
C 	C 	0.89960 0.10380 0.57730 0.00600
C 	C 	0.02090 0.98400 0.76660 0.33200
C 	C 	0.24860 0.75490 0.59720 0.33500
C 	C 	0.37520 0.63080 0.00860 -0.03500
C 	C 	0.54870 0.62190 0.02810 -0.03100
C 	C 	0.32860 0.50860 0.98180 -0.01500
C 	C 	0.23770 0.77010 0.01030 0.33100
C 	C 	0.60840 0.74470 0.07160 0.30500
O 	O 	0.91090 0.93300 0.82990 -0.35000
O 	O 	0.12580 0.04410 0.80750 -0.36500
O 	O 	0.35510 0.68990 0.51300 -0.41600
O 	O 	0.24860 0.72700 0.70970 -0.25800
O 	O 	0.08180 0.76550 0.02340 -0.37500
O 	O 	0.28960 0.88190 0.99560 -0.34900
O 	O 	0.56680 0.77830 0.18100 -0.23200
O 	O 	0.70300 0.79890 0.99480 -0.28400
H 	H 	0.82240 0.18200 0.62860 0.05500
H 	H 	0.21590 0.51280 0.96610 0.06600
Cu	Cu	0.12287 0.07056 0.98696 0.92100
C 	C 	0.98560 0.01240 0.37210 -0.03100
C 	C 	0.88370 0.11800 0.45010 -0.04700
C 	C 	0.10040 0.89620 0.42270 0.00600
C 	C 	0.97910 0.01600 0.23340 0.33200
C 	C 	0.75140 0.24510 0.40280 0.33500
C 	C 	0.62480 0.36920 0.99140 -0.03500
C 	C 	0.45130 0.37810 0.97190 -0.03100
C 	C 	0.67140 0.49140 0.01820 -0.01500
C 	C 	0.76230 0.22990 0.98970 0.33100
C 	C 	0.39160 0.25530 0.92840 0.30500
O 	O 	0.08910 0.06700 0.17010 -0.35000
O 	O 	0.87420 0.95590 0.19250 -0.36500
O 	O 	0.64490 0.31010 0.48700 -0.41600
O 	O 	0.75140 0.27300 0.29030 -0.25800
O 	O 	0.91820 0.23450 0.97660 -0.37500
O 	O 	0.71040 0.11810 0.00440 -0.34900
O 	O 	0.43320 0.22170 0.81900 -0.23200
O 	O 	0.29700 0.20110 0.00520 -0.28400
H 	H 	0.17760 0.81800 0.37140 0.05500
H 	H 	0.78410 0.48720 0.03390 0.06600
Cu	Cu	0.50000 0.50000 0.50000 0.87100
