data_crystal

_cell_length_a 13.68610
_cell_length_b 13.68610
_cell_length_c 16.38300
_cell_angle_alpha 67.07070
_cell_angle_beta  67.07070
_cell_angle_gamma 75.64970

_symmetry_space_group_name_	'P 1'
_symmetry_space_group_name_H-M	'P 1'

loop_
_symmetry_equiv_pos_as_xyz
  x,y,z

loop_
_atom_site_label
_atom_site_type_symbol
_atom_site_fract_x
_atom_site_fract_y
_atom_site_fract_z
_atom_site_charge
Eu	Eu	0.83237 0.54586 0.50184 1.82400
Eu	Eu	0.45414 0.16763 0.99816 1.79900
Eu	Eu	0.16763 0.45414 0.49816 1.82400
Eu	Eu	0.54586 0.83237 0.00184 1.79900
H 	H 	0.22350 0.33850 0.24300 0.04900
H 	H 	0.08170 0.34590 0.06690 0.10300
H 	H 	0.91350 0.45330 0.28470 0.05600
H 	H 	0.08000 0.12800 0.65280 0.06500
H 	H 	0.66150 0.77650 0.25700 0.04900
H 	H 	0.65410 0.91830 0.43310 0.10400
H 	H 	0.54670 0.08650 0.21530 0.05500
H 	H 	0.87200 0.92000 0.84720 0.06200
H 	H 	0.77650 0.66150 0.75700 0.05000
H 	H 	0.91830 0.65410 0.93310 0.10400
H 	H 	0.08650 0.54670 0.71530 0.05600
H 	H 	0.92000 0.87200 0.34720 0.06500
H 	H 	0.33850 0.22350 0.74300 0.04900
H 	H 	0.34590 0.08170 0.56690 0.10400
H 	H 	0.45330 0.91350 0.78470 0.05500
H 	H 	0.12800 0.08000 0.15280 0.06200
H 	H 	0.76900 0.23100 0.75000 -0.00000
H 	H 	0.23100 0.76900 0.25000 -0.00000
C 	C 	0.06373 0.42751 0.35930 0.45900
C 	C 	0.26928 0.28090 0.09210 0.29900
C 	C 	0.06842 0.40130 0.27650 -0.10800
C 	C 	0.16325 0.35505 0.22490 0.01700
C 	C 	0.16875 0.33339 0.14690 -0.04200
C 	C 	0.07880 0.35820 0.11980 -0.06000
C 	C 	0.98533 0.40135 0.17270 0.09400
C 	C 	0.97774 0.42380 0.25060 -0.03100
C 	C 	0.95061 0.30825 0.62260 0.47300
C 	C 	0.01033 0.11485 0.69080 0.00600
C 	C 	0.92711 0.19677 0.68960 -0.14900
C 	C 	0.57249 0.93627 0.14070 0.44500
C 	C 	0.71910 0.73072 0.40790 0.29900
C 	C 	0.59870 0.93158 0.22350 -0.11200
C 	C 	0.64495 0.83675 0.27510 0.01700
C 	C 	0.66661 0.83125 0.35310 -0.04200
C 	C 	0.64180 0.92120 0.38020 -0.06600
C 	C 	0.59865 0.01467 0.32730 0.09700
C 	C 	0.57620 0.02226 0.24940 -0.02300
C 	C 	0.69175 0.04939 0.87740 0.46000
C 	C 	0.88515 0.98967 0.80920 0.02400
C 	C 	0.80323 0.07289 0.81040 -0.15600
C 	C 	0.93627 0.57249 0.64070 0.45900
C 	C 	0.73072 0.71910 0.90790 0.29900
C 	C 	0.93158 0.59870 0.72350 -0.10800
C 	C 	0.83675 0.64495 0.77510 0.01700
C 	C 	0.83125 0.66661 0.85310 -0.04200
C 	C 	0.92120 0.64180 0.88020 -0.06000
C 	C 	0.01467 0.59865 0.82730 0.09400
C 	C 	0.02226 0.57620 0.74940 -0.03100
C 	C 	0.04939 0.69175 0.37740 0.47300
C 	C 	0.98967 0.88515 0.30920 0.00600
C 	C 	0.07289 0.80323 0.31040 -0.14900
C 	C 	0.42751 0.06373 0.85930 0.44500
C 	C 	0.28090 0.26928 0.59210 0.29900
C 	C 	0.40130 0.06842 0.77650 -0.11200
C 	C 	0.35505 0.16325 0.72490 0.01700
C 	C 	0.33339 0.16875 0.64690 -0.04200
C 	C 	0.35820 0.07880 0.61980 -0.06600
C 	C 	0.40135 0.98533 0.67270 0.09700
C 	C 	0.42380 0.97774 0.75060 -0.02300
C 	C 	0.30825 0.95061 0.12260 0.46000
C 	C 	0.11485 0.01033 0.19080 0.02400
C 	C 	0.19677 0.92711 0.18960 -0.15600
C 	C 	0.98670 0.01330 0.75000 0.03300
C 	C 	0.82440 0.17560 0.75000 0.08800
C 	C 	0.01330 0.98670 0.25000 0.03300
C 	C 	0.17560 0.82440 0.25000 0.08800
N 	N 	0.88936 0.42320 0.14550 -0.00400
N 	N 	0.57680 0.11064 0.35450 -0.00500
N 	N 	0.11064 0.57680 0.85450 -0.00400
N 	N 	0.42320 0.88936 0.64550 -0.00500
N 	N 	0.07470 0.92530 0.75000 -0.00100
N 	N 	0.92530 0.07470 0.25000 -0.00100
O 	O 	0.34734 0.24616 0.12254 -0.41400
O 	O 	0.04717 0.32429 0.58599 -0.47900
O 	O 	0.97576 0.46862 0.40228 -0.52600
O 	O 	0.14792 0.40730 0.37908 -0.47700
O 	O 	0.87268 0.37512 0.60892 -0.51600
O 	O 	0.90103 0.42233 0.06816 -0.10400
O 	O 	0.27198 0.27314 0.01724 -0.37000
O 	O 	0.80298 0.44176 0.20150 -0.11800
O 	O 	0.05173 0.83385 0.79075 -0.10100
O 	O 	0.75384 0.65266 0.37746 -0.41800
O 	O 	0.67571 0.95283 0.91401 -0.46400
O 	O 	0.53138 0.02424 0.09772 -0.50900
O 	O 	0.59270 0.85208 0.12092 -0.47300
O 	O 	0.62488 0.12732 0.89108 -0.51300
O 	O 	0.57767 0.09897 0.43184 -0.10400
O 	O 	0.72686 0.72802 0.48276 -0.37600
O 	O 	0.55824 0.19702 0.29850 -0.11700
O 	O 	0.16615 0.94827 0.70925 -0.10000
O 	O 	0.65266 0.75384 0.87746 -0.41400
O 	O 	0.95283 0.67571 0.41401 -0.47900
O 	O 	0.02424 0.53138 0.59772 -0.52600
O 	O 	0.85208 0.59270 0.62092 -0.47700
O 	O 	0.12732 0.62488 0.39108 -0.51600
O 	O 	0.09897 0.57767 0.93184 -0.10400
O 	O 	0.72802 0.72686 0.98276 -0.37000
O 	O 	0.19702 0.55824 0.79850 -0.11800
O 	O 	0.94827 0.16615 0.20925 -0.10100
O 	O 	0.24616 0.34734 0.62254 -0.41800
O 	O 	0.32429 0.04717 0.08599 -0.46400
O 	O 	0.46862 0.97576 0.90228 -0.50900
O 	O 	0.40730 0.14792 0.87908 -0.47300
O 	O 	0.37512 0.87268 0.10892 -0.51300
O 	O 	0.42233 0.90103 0.56816 -0.10400
O 	O 	0.27314 0.27198 0.51724 -0.37600
O 	O 	0.44176 0.80298 0.70150 -0.11700
O 	O 	0.83385 0.05173 0.29075 -0.10000
