data_crystal

_cell_length_a 13.78660
_cell_length_b 13.78660
_cell_length_c 16.52200
_cell_angle_alpha 67.08740
_cell_angle_beta  67.08740
_cell_angle_gamma 75.50610

_symmetry_space_group_name_	'P 1'
_symmetry_space_group_name_H-M	'P 1'

loop_
_symmetry_equiv_pos_as_xyz
  x,y,z

loop_
_atom_site_label
_atom_site_type_symbol
_atom_site_fract_x
_atom_site_fract_y
_atom_site_fract_z
_atom_site_charge
Pr	Pr	0.83158 0.54600 0.50254 2.03400
Pr	Pr	0.45400 0.16842 0.99746 2.02900
Pr	Pr	0.16842 0.45400 0.49746 2.03400
Pr	Pr	0.54600 0.83158 0.00254 2.02900
H 	H 	0.91330 0.45210 0.28600 0.05400
H 	H 	0.07800 0.34760 0.06800 0.10600
H 	H 	0.22220 0.34060 0.24050 0.05500
H 	H 	0.92010 0.87430 0.34670 0.07100
H 	H 	0.54790 0.08670 0.21400 0.05300
H 	H 	0.65240 0.92200 0.43200 0.10600
H 	H 	0.65940 0.77780 0.25950 0.05400
H 	H 	0.12570 0.07990 0.15330 0.06800
H 	H 	0.08670 0.54790 0.71400 0.05400
H 	H 	0.92200 0.65240 0.93200 0.10600
H 	H 	0.77780 0.65940 0.75950 0.05500
H 	H 	0.07990 0.12570 0.65330 0.07100
H 	H 	0.45210 0.91330 0.78600 0.05300
H 	H 	0.34760 0.07800 0.56800 0.10600
H 	H 	0.34060 0.22220 0.74050 0.05400
H 	H 	0.87430 0.92010 0.84670 0.06800
H 	H 	0.22910 0.77090 0.25000 0.00600
H 	H 	0.77090 0.22910 0.75000 0.00600
C 	C 	0.06580 0.42580 0.35810 0.42300
C 	C 	0.06790 0.40230 0.27570 -0.09200
C 	C 	0.97700 0.42380 0.25120 -0.04200
C 	C 	0.98280 0.40240 0.17420 0.09800
C 	C 	0.07600 0.36000 0.12010 -0.06300
C 	C 	0.16640 0.33660 0.14580 -0.03600
C 	C 	0.16190 0.35710 0.22320 0.00800
C 	C 	0.26600 0.28540 0.08990 0.28800
C 	C 	0.04940 0.69400 0.37600 0.44600
C 	C 	0.07140 0.80520 0.31040 -0.12800
C 	C 	0.98930 0.88710 0.30880 -0.00800
C 	C 	0.57420 0.93420 0.14190 0.41100
C 	C 	0.59770 0.93210 0.22430 -0.09900
C 	C 	0.57620 0.02300 0.24880 -0.03300
C 	C 	0.59760 0.01720 0.32580 0.10100
C 	C 	0.64000 0.92400 0.37990 -0.07000
C 	C 	0.66340 0.83360 0.35420 -0.03700
C 	C 	0.64290 0.83810 0.27680 0.00900
C 	C 	0.71460 0.73400 0.41010 0.28900
C 	C 	0.30600 0.95060 0.12400 0.43400
C 	C 	0.19480 0.92860 0.18960 -0.13700
C 	C 	0.11290 0.01070 0.19120 0.01300
C 	C 	0.93420 0.57420 0.64190 0.42300
C 	C 	0.93210 0.59770 0.72430 -0.09200
C 	C 	0.02300 0.57620 0.74880 -0.04200
C 	C 	0.01720 0.59760 0.82580 0.09800
C 	C 	0.92400 0.64000 0.87990 -0.06300
C 	C 	0.83360 0.66340 0.85420 -0.03600
C 	C 	0.83810 0.64290 0.77680 0.00800
C 	C 	0.73400 0.71460 0.91010 0.28800
C 	C 	0.95060 0.30600 0.62400 0.44600
C 	C 	0.92860 0.19480 0.68960 -0.12800
C 	C 	0.01070 0.11290 0.69120 -0.00800
C 	C 	0.42580 0.06580 0.85810 0.41100
C 	C 	0.40230 0.06790 0.77570 -0.09900
C 	C 	0.42380 0.97700 0.75120 -0.03300
C 	C 	0.40240 0.98280 0.67420 0.10100
C 	C 	0.36000 0.07600 0.62010 -0.07000
C 	C 	0.33660 0.16640 0.64580 -0.03700
C 	C 	0.35710 0.16190 0.72320 0.00900
C 	C 	0.28540 0.26600 0.58990 0.28900
C 	C 	0.69400 0.04940 0.87600 0.43400
C 	C 	0.80520 0.07140 0.81040 -0.13700
C 	C 	0.88710 0.98930 0.80880 0.01300
C 	C 	0.17400 0.82600 0.25000 0.06700
C 	C 	0.01220 0.98780 0.25000 0.04200
C 	C 	0.82600 0.17400 0.75000 0.06700
C 	C 	0.98780 0.01220 0.75000 0.04200
N 	N 	0.88760 0.42440 0.14770 -0.00600
N 	N 	0.57560 0.11240 0.35230 -0.00600
N 	N 	0.11240 0.57560 0.85230 -0.00600
N 	N 	0.42440 0.88760 0.64770 -0.00600
N 	N 	0.92510 0.07490 0.25000 -0.00500
N 	N 	0.07490 0.92510 0.75000 -0.00500
O 	O 	0.80160 0.44180 0.20500 -0.12300
O 	O 	0.89740 0.42420 0.07140 -0.10600
O 	O 	0.97869 0.46709 0.40250 -0.55500
O 	O 	0.15033 0.40533 0.37590 -0.49400
O 	O 	0.34460 0.25240 0.12020 -0.44300
O 	O 	0.26830 0.27590 0.01700 -0.39700
O 	O 	0.95371 0.67831 0.41270 -0.50100
O 	O 	0.12703 0.62803 0.38890 -0.54200
O 	O 	0.83310 0.05310 0.29050 -0.10000
O 	O 	0.55820 0.19840 0.29500 -0.12200
O 	O 	0.57580 0.10260 0.42860 -0.10600
O 	O 	0.53291 0.02131 0.09750 -0.54200
O 	O 	0.59467 0.84967 0.12410 -0.49400
O 	O 	0.74760 0.65540 0.37980 -0.44600
O 	O 	0.72410 0.73170 0.48300 -0.40100
O 	O 	0.32169 0.04629 0.08730 -0.48800
O 	O 	0.37197 0.87297 0.11110 -0.54200
O 	O 	0.94690 0.16690 0.20950 -0.10100
O 	O 	0.19840 0.55820 0.79500 -0.12300
O 	O 	0.10260 0.57580 0.92860 -0.10600
O 	O 	0.02131 0.53291 0.59750 -0.55500
O 	O 	0.84967 0.59467 0.62410 -0.49400
O 	O 	0.65540 0.74760 0.87980 -0.44300
O 	O 	0.73170 0.72410 0.98300 -0.39700
O 	O 	0.04629 0.32169 0.58730 -0.50100
O 	O 	0.87297 0.37197 0.61110 -0.54200
O 	O 	0.16690 0.94690 0.70950 -0.10000
O 	O 	0.44180 0.80160 0.70500 -0.12200
O 	O 	0.42420 0.89740 0.57140 -0.10600
O 	O 	0.46709 0.97869 0.90250 -0.54200
O 	O 	0.40533 0.15033 0.87590 -0.49400
O 	O 	0.25240 0.34460 0.62020 -0.44600
O 	O 	0.27590 0.26830 0.51700 -0.40100
O 	O 	0.67831 0.95371 0.91270 -0.48800
O 	O 	0.62803 0.12703 0.88890 -0.54200
O 	O 	0.05310 0.83310 0.79050 -0.10100
