data_crystal

_cell_length_a 13.72170
_cell_length_b 13.72170
_cell_length_c 16.41990
_cell_angle_alpha 67.08040
_cell_angle_beta  67.08040
_cell_angle_gamma 75.65020

_symmetry_space_group_name_	'P 1'
_symmetry_space_group_name_H-M	'P 1'

loop_
_symmetry_equiv_pos_as_xyz
  x,y,z

loop_
_atom_site_label
_atom_site_type_symbol
_atom_site_fract_x
_atom_site_fract_y
_atom_site_fract_z
_atom_site_charge
Sm	Sm	0.16744 0.45402 0.99825 1.86700
Sm	Sm	0.54598 0.83256 0.50175 1.89400
Sm	Sm	0.83256 0.54598 0.00175 1.86800
Sm	Sm	0.45402 0.16744 0.49825 1.89500
H 	H 	0.33690 0.22150 0.24600 0.05000
H 	H 	0.45360 0.91720 0.28320 0.05900
H 	H 	0.34390 0.08010 0.07020 0.11100
H 	H 	0.07230 0.12450 0.15610 0.07600
H 	H 	0.77850 0.66310 0.25400 0.04900
H 	H 	0.08280 0.54640 0.21680 0.05800
H 	H 	0.91990 0.65610 0.42980 0.11100
H 	H 	0.87550 0.92770 0.34390 0.08200
H 	H 	0.66310 0.77850 0.75400 0.05000
H 	H 	0.54640 0.08280 0.71680 0.05900
H 	H 	0.65610 0.91990 0.92980 0.11100
H 	H 	0.92770 0.87550 0.84390 0.07600
H 	H 	0.22150 0.33690 0.74600 0.04900
H 	H 	0.91720 0.45360 0.78320 0.05800
H 	H 	0.08010 0.34390 0.57020 0.11100
H 	H 	0.12450 0.07230 0.65610 0.08200
H 	H 	0.77020 0.22980 0.25000 0.00100
H 	H 	0.22980 0.77020 0.75000 0.00100
C 	C 	0.42707 0.06371 0.35894 0.46000
C 	C 	0.40134 0.06856 0.27614 -0.10500
C 	C 	0.33345 0.16839 0.14715 -0.03400
C 	C 	0.28130 0.26906 0.09214 0.29600
C 	C 	0.35811 0.07853 0.12004 -0.07600
C 	C 	0.92674 0.19704 0.18991 -0.14300
C 	C 	0.95022 0.30776 0.12307 0.46100
C 	C 	0.00971 0.11491 0.19103 -0.01000
C 	C 	0.35500 0.16262 0.22498 0.01300
C 	C 	0.42348 0.97806 0.25064 -0.04300
C 	C 	0.40121 0.98581 0.17291 0.10200
C 	C 	0.93629 0.57293 0.14106 0.44500
C 	C 	0.93144 0.59866 0.22386 -0.11000
C 	C 	0.83161 0.66655 0.35285 -0.03400
C 	C 	0.73094 0.71870 0.40786 0.29700
C 	C 	0.92147 0.64189 0.37996 -0.08300
C 	C 	0.80296 0.07326 0.31009 -0.13400
C 	C 	0.69224 0.04978 0.37693 0.47400
C 	C 	0.88509 0.99029 0.30897 -0.03300
C 	C 	0.83738 0.64500 0.27502 0.01300
C 	C 	0.02194 0.57652 0.24936 -0.03400
C 	C 	0.01419 0.59879 0.32709 0.10600
C 	C 	0.57293 0.93629 0.64106 0.46000
C 	C 	0.59866 0.93144 0.72386 -0.10500
C 	C 	0.66655 0.83161 0.85285 -0.03400
C 	C 	0.71870 0.73094 0.90786 0.29600
C 	C 	0.64189 0.92147 0.87996 -0.07600
C 	C 	0.07326 0.80296 0.81009 -0.14300
C 	C 	0.04978 0.69224 0.87693 0.46100
C 	C 	0.99029 0.88509 0.80897 -0.01000
C 	C 	0.64500 0.83738 0.77502 0.01300
C 	C 	0.57652 0.02194 0.74936 -0.04300
C 	C 	0.59879 0.01419 0.82709 0.10200
C 	C 	0.06371 0.42707 0.85894 0.44500
C 	C 	0.06856 0.40134 0.77614 -0.11000
C 	C 	0.16839 0.33345 0.64715 -0.03400
C 	C 	0.26906 0.28130 0.59214 0.29700
C 	C 	0.07853 0.35811 0.62004 -0.08300
C 	C 	0.19704 0.92674 0.68991 -0.13400
C 	C 	0.30776 0.95022 0.62307 0.47400
C 	C 	0.11491 0.00971 0.69103 -0.03300
C 	C 	0.16262 0.35500 0.72498 0.01300
C 	C 	0.97806 0.42348 0.75064 -0.03400
C 	C 	0.98581 0.40121 0.67291 0.10600
C 	C 	0.82408 0.17592 0.25000 0.07500
C 	C 	0.98656 0.01344 0.25000 0.05600
C 	C 	0.17592 0.82408 0.75000 0.07500
C 	C 	0.01344 0.98656 0.75000 0.05600
N 	N 	0.42351 0.88981 0.14563 -0.00500
N 	N 	0.11019 0.57649 0.35437 -0.00600
N 	N 	0.57649 0.11019 0.85437 -0.00500
N 	N 	0.88981 0.42351 0.64563 -0.00600
N 	N 	0.07394 0.92606 0.25000 -0.00500
N 	N 	0.92606 0.07394 0.75000 -0.00500
O 	O 	0.04634 0.32388 0.08672 -0.47300
O 	O 	0.40670 0.14802 0.37879 -0.48500
O 	O 	0.27290 0.27152 0.01779 -0.37800
O 	O 	0.87253 0.37467 0.10943 -0.52300
O 	O 	0.46806 0.97628 0.40228 -0.53900
O 	O 	0.24678 0.34664 0.12286 -0.42100
O 	O 	0.44207 0.80387 0.20143 -0.12100
O 	O 	0.42199 0.90149 0.06874 -0.10500
O 	O 	0.16520 0.94862 0.20880 -0.10200
O 	O 	0.67612 0.95366 0.41328 -0.48900
O 	O 	0.85198 0.59330 0.12121 -0.48200
O 	O 	0.72848 0.72710 0.48221 -0.38400
O 	O 	0.62533 0.12747 0.39057 -0.52700
O 	O 	0.02372 0.53194 0.09772 -0.52100
O 	O 	0.65336 0.75322 0.37714 -0.42600
O 	O 	0.19613 0.55793 0.29857 -0.12000
O 	O 	0.09851 0.57801 0.43126 -0.10500
O 	O 	0.05138 0.83480 0.29120 -0.10100
O 	O 	0.95366 0.67612 0.91328 -0.47300
O 	O 	0.59330 0.85198 0.62121 -0.48500
O 	O 	0.72710 0.72848 0.98221 -0.37800
O 	O 	0.12747 0.62533 0.89057 -0.52300
O 	O 	0.53194 0.02372 0.59772 -0.53900
O 	O 	0.75322 0.65336 0.87714 -0.42100
O 	O 	0.55793 0.19613 0.79857 -0.12100
O 	O 	0.57801 0.09851 0.93126 -0.10500
O 	O 	0.83480 0.05138 0.79120 -0.10200
O 	O 	0.32388 0.04634 0.58672 -0.48900
O 	O 	0.14802 0.40670 0.87879 -0.48200
O 	O 	0.27152 0.27290 0.51779 -0.38400
O 	O 	0.37467 0.87253 0.60943 -0.52700
O 	O 	0.97628 0.46806 0.90228 -0.52100
O 	O 	0.34664 0.24678 0.62286 -0.42600
O 	O 	0.80387 0.44207 0.70143 -0.12000
O 	O 	0.90149 0.42199 0.56874 -0.10500
O 	O 	0.94862 0.16520 0.70880 -0.10100
