data_crystal

_cell_length_a 12.71370
_cell_length_b 13.33010
_cell_length_c 13.40340
_cell_angle_alpha 64.67600
_cell_angle_beta  61.81000
_cell_angle_gamma 84.07900

_symmetry_space_group_name_	'P 1'
_symmetry_space_group_name_H-M	'P 1'

loop_
_symmetry_equiv_pos_as_xyz
  x,y,z

loop_
_atom_site_label
_atom_site_type_symbol
_atom_site_fract_x
_atom_site_fract_y
_atom_site_fract_z
_atom_site_charge
W 	W 	0.85169 0.26308 0.54495 1.01300
W 	W 	0.97449 0.74266 0.76313 1.05000
W 	W 	0.82595 0.96526 0.75227 0.98200
W 	W 	0.00382 0.20566 0.70131 0.65500
W 	W 	0.85080 0.01618 0.29184 1.01400
W 	W 	0.82791 0.82173 0.59619 0.98000
O 	O 	0.90800 0.40770 0.48310 -0.47900
O 	O 	0.82650 0.08810 0.62030 -0.38700
O 	O 	0.86390 0.69940 0.73180 -0.42100
O 	O 	0.83520 0.95850 0.47250 -0.39600
O 	O 	0.73930 0.87180 0.72890 -0.41500
O 	O 	0.86290 0.81440 0.85650 -0.39100
O 	O 	0.03600 0.21970 0.51540 -0.43500
O 	O 	0.09990 0.84200 0.73560 -0.43100
O 	O 	0.84660 0.85510 0.34090 -0.44800
O 	O 	0.96070 0.02630 0.74270 -0.36300
O 	O 	0.96060 0.90170 0.61600 -0.29200
O 	O 	0.85210 0.22520 0.70350 -0.41200
O 	O 	0.89570 0.26440 0.38830 -0.40100
O 	O 	0.89920 0.04490 0.13120 -0.49200
N 	N 	0.85560 0.49010 0.65840 -0.21100
C 	C 	0.86050 0.47010 0.76090 0.03400
H 	H 	0.93320 0.45650 0.76220 0.00500
O 	O 	0.45060 0.53770 0.87360 -0.35000
N 	N 	0.65440 0.48970 0.86760 -0.17400
C 	C 	0.74680 0.50650 0.66060 0.03100
H 	H 	0.73930 0.51750 0.59100 0.00400
O 	O 	0.51450 0.55000 0.68090 -0.24000
C 	C 	0.64730 0.50660 0.76720 -0.06100
C 	C 	0.75960 0.46900 0.86770 -0.00100
H 	H 	0.76550 0.45370 0.93920 0.04700
C 	C 	0.53060 0.52930 0.77370 0.27100
Cu	Cu	0.98900 0.99700 0.00900 0.59000
O 	O 	0.85880 0.91000 0.03770 -0.33800
W 	W 	0.14831 0.73692 0.45505 0.98200
W 	W 	0.02551 0.25734 0.23687 0.92500
W 	W 	0.17405 0.03474 0.24773 0.96300
W 	W 	0.99618 0.79434 0.29869 0.70400
W 	W 	0.14920 0.98382 0.70816 0.97500
W 	W 	0.17209 0.17827 0.40381 0.97100
O 	O 	0.09200 0.59230 0.51690 -0.49900
O 	O 	0.17350 0.91190 0.37970 -0.40800
O 	O 	0.13610 0.30060 0.26820 -0.42400
O 	O 	0.16480 0.04150 0.52750 -0.39400
O 	O 	0.26070 0.12820 0.27110 -0.42800
O 	O 	0.13710 0.18560 0.14350 -0.42700
O 	O 	0.96400 0.78030 0.48460 -0.40700
O 	O 	0.90010 0.15800 0.26440 -0.40800
O 	O 	0.15340 0.14490 0.65910 -0.42900
O 	O 	0.03930 0.97370 0.25730 -0.43400
O 	O 	0.03940 0.09830 0.38400 -0.30200
O 	O 	0.14790 0.77480 0.29650 -0.46000
O 	O 	0.10430 0.73560 0.61170 -0.43600
O 	O 	0.10080 0.95510 0.86880 -0.44800
N 	N 	0.14440 0.50990 0.34160 -0.22200
C 	C 	0.13950 0.52990 0.23910 0.02300
H 	H 	0.06680 0.54350 0.23780 -0.02700
O 	O 	0.54940 0.46230 0.12640 -0.41600
N 	N 	0.34560 0.51030 0.13240 -0.20200
C 	C 	0.25320 0.49350 0.33940 0.02900
H 	H 	0.26070 0.48250 0.40900 0.00200
O 	O 	0.48550 0.45000 0.31910 -0.25300
C 	C 	0.35270 0.49340 0.23280 -0.07700
C 	C 	0.24040 0.53100 0.13230 -0.01300
H 	H 	0.23450 0.54630 0.06080 -0.00300
C 	C 	0.46940 0.47070 0.22630 0.27300
Cu	Cu	0.01100 0.00300 0.99100 0.25500
O 	O 	0.14120 0.09000 0.96230 -0.24300
Cu	Cu	0.00000 0.50000 0.50000 0.86700
Cu	Cu	0.50000 0.50000 -0.00000 0.85300
