data_crystal

_cell_length_a 12.62610
_cell_length_b 12.62610
_cell_length_c 29.23400
_cell_angle_alpha 90.00000
_cell_angle_beta  90.00000
_cell_angle_gamma 90.00000

_symmetry_space_group_name_	'P 1'
_symmetry_space_group_name_H-M	'P 1'

loop_
_symmetry_equiv_pos_as_xyz
  x,y,z

loop_
_atom_site_label
_atom_site_type_symbol
_atom_site_fract_x
_atom_site_fract_y
_atom_site_fract_z
_atom_site_charge
O 	O 	0.51270 0.88070 0.31660 -0.34700
O 	O 	0.37170 0.90360 0.27580 -0.42200
C 	C 	0.36730 0.76780 0.33200 -0.12300
C 	C 	0.42330 0.85570 0.30700 0.34000
C 	C 	0.40600 0.72550 0.37180 0.12900
H 	H 	0.46710 0.75620 0.38540 0.03400
O 	O 	0.48320 0.64130 0.45060 -0.53200
O 	O 	0.81330 0.58000 0.51820 -0.16300
O 	O 	0.48730 0.11930 0.31660 -0.45500
O 	O 	0.62830 0.09640 0.27580 -0.51500
C 	C 	0.63270 0.23220 0.33200 -0.15200
C 	C 	0.57670 0.14430 0.30700 0.36600
C 	C 	0.59400 0.27450 0.37180 0.13700
H 	H 	0.53290 0.24380 0.38540 0.00500
O 	O 	0.51680 0.35870 0.45060 -0.53600
O 	O 	0.18670 0.42000 0.51820 -0.22000
O 	O 	0.11930 0.51270 0.81660 -0.44400
O 	O 	0.09640 0.37170 0.77580 -0.53600
C 	C 	0.23220 0.36730 0.83200 -0.17000
C 	C 	0.14430 0.42330 0.80700 0.36700
C 	C 	0.27450 0.40600 0.87180 0.14100
H 	H 	0.24380 0.46710 0.88540 0.00800
O 	O 	0.35870 0.48320 0.95060 -0.49900
O 	O 	0.42000 0.81330 0.01820 -0.23000
O 	O 	0.88070 0.48730 0.81660 -0.35000
O 	O 	0.90360 0.62830 0.77580 -0.39600
C 	C 	0.76780 0.63270 0.83200 -0.08600
C 	C 	0.85570 0.57670 0.80700 0.33500
C 	C 	0.72550 0.59400 0.87180 0.10500
H 	H 	0.75620 0.53290 0.88540 0.04400
O 	O 	0.64130 0.51680 0.95060 -0.48100
O 	O 	0.58000 0.18670 0.01820 -0.27000
O 	O 	0.48730 0.88070 0.18340 -0.35400
O 	O 	0.62830 0.90360 0.22420 -0.39800
C 	C 	0.63270 0.76780 0.16800 -0.09300
C 	C 	0.57670 0.85570 0.19300 0.33600
C 	C 	0.59400 0.72550 0.12820 0.10900
H 	H 	0.53290 0.75620 0.11460 0.03900
O 	O 	0.51680 0.64130 0.04940 -0.51500
O 	O 	0.18670 0.58000 0.98180 -0.12800
O 	O 	0.51270 0.11930 0.18340 -0.44800
O 	O 	0.37170 0.09640 0.22420 -0.53800
C 	C 	0.36730 0.23220 0.16800 -0.17700
C 	C 	0.42330 0.14430 0.19300 0.36800
C 	C 	0.40600 0.27450 0.12820 0.14400
H 	H 	0.46710 0.24380 0.11460 0.00300
O 	O 	0.48320 0.35870 0.04940 -0.53200
O 	O 	0.81330 0.42000 0.98180 -0.08800
O 	O 	0.88070 0.51270 0.68340 -0.34600
O 	O 	0.90360 0.37170 0.72420 -0.42000
C 	C 	0.76780 0.36730 0.66800 -0.12200
C 	C 	0.85570 0.42330 0.69300 0.34100
C 	C 	0.72550 0.40600 0.62820 0.12900
H 	H 	0.75620 0.46710 0.61460 0.03400
O 	O 	0.64130 0.48320 0.54940 -0.53200
O 	O 	0.58000 0.81330 0.48180 -0.16300
O 	O 	0.11930 0.48730 0.68340 -0.45500
O 	O 	0.09640 0.62830 0.72420 -0.51400
C 	C 	0.23220 0.63270 0.66800 -0.15100
C 	C 	0.14430 0.57670 0.69300 0.36600
C 	C 	0.27450 0.59400 0.62820 0.13600
H 	H 	0.24380 0.53290 0.61460 0.00500
O 	O 	0.35870 0.51680 0.54940 -0.53600
O 	O 	0.42000 0.18670 0.48180 -0.22000
O 	O 	0.48730 0.11930 0.68340 -0.45500
O 	O 	0.62830 0.09640 0.72420 -0.51400
C 	C 	0.63270 0.23220 0.66800 -0.15100
C 	C 	0.57670 0.14430 0.69300 0.36600
C 	C 	0.59400 0.27450 0.62820 0.13600
H 	H 	0.53290 0.24380 0.61460 0.00500
O 	O 	0.51680 0.35870 0.54940 -0.53600
O 	O 	0.18670 0.42000 0.48180 -0.22000
O 	O 	0.51270 0.88070 0.68340 -0.34600
O 	O 	0.37170 0.90360 0.72420 -0.42000
C 	C 	0.36730 0.76780 0.66800 -0.12200
C 	C 	0.42330 0.85570 0.69300 0.34100
C 	C 	0.40600 0.72550 0.62820 0.12900
H 	H 	0.46710 0.75620 0.61460 0.03400
O 	O 	0.48320 0.64130 0.54940 -0.53200
O 	O 	0.81330 0.58000 0.48180 -0.16300
O 	O 	0.88070 0.48730 0.18340 -0.35400
O 	O 	0.90360 0.62830 0.22420 -0.39800
C 	C 	0.76780 0.63270 0.16800 -0.09300
C 	C 	0.85570 0.57670 0.19300 0.33600
C 	C 	0.72550 0.59400 0.12820 0.10900
H 	H 	0.75620 0.53290 0.11460 0.03900
O 	O 	0.64130 0.51680 0.04940 -0.51500
O 	O 	0.58000 0.18670 0.98180 -0.12800
O 	O 	0.11930 0.51270 0.18340 -0.44800
O 	O 	0.09640 0.37170 0.22420 -0.53800
C 	C 	0.23220 0.36730 0.16800 -0.17700
C 	C 	0.14430 0.42330 0.19300 0.36800
C 	C 	0.27450 0.40600 0.12820 0.14400
H 	H 	0.24380 0.46710 0.11460 0.00300
O 	O 	0.35870 0.48320 0.04940 -0.53200
O 	O 	0.42000 0.81330 0.98180 -0.08800
O 	O 	0.51270 0.11930 0.81660 -0.44400
O 	O 	0.37170 0.09640 0.77580 -0.53600
C 	C 	0.36730 0.23220 0.83200 -0.17000
C 	C 	0.42330 0.14430 0.80700 0.36700
C 	C 	0.40600 0.27450 0.87180 0.14100
H 	H 	0.46710 0.24380 0.88540 0.00800
O 	O 	0.48320 0.35870 0.95060 -0.49900
O 	O 	0.81330 0.42000 0.01820 -0.23000
O 	O 	0.48730 0.88070 0.81660 -0.35000
O 	O 	0.62830 0.90360 0.77580 -0.39600
C 	C 	0.63270 0.76780 0.83200 -0.08600
C 	C 	0.57670 0.85570 0.80700 0.33500
C 	C 	0.59400 0.72550 0.87180 0.10500
H 	H 	0.53290 0.75620 0.88540 0.04400
O 	O 	0.51680 0.64130 0.95060 -0.48100
O 	O 	0.18670 0.58000 0.01820 -0.27000
O 	O 	0.11930 0.48730 0.31660 -0.45500
O 	O 	0.09640 0.62830 0.27580 -0.51500
C 	C 	0.23220 0.63270 0.33200 -0.15200
C 	C 	0.14430 0.57670 0.30700 0.36600
C 	C 	0.27450 0.59400 0.37180 0.13700
H 	H 	0.24380 0.53290 0.38540 0.00500
O 	O 	0.35870 0.51680 0.45060 -0.53600
O 	O 	0.42000 0.18670 0.51820 -0.22000
O 	O 	0.88070 0.51270 0.31660 -0.34600
O 	O 	0.90360 0.37170 0.27580 -0.42100
C 	C 	0.76780 0.36730 0.33200 -0.12200
C 	C 	0.85570 0.42330 0.30700 0.34100
C 	C 	0.72550 0.40600 0.37180 0.12900
H 	H 	0.75620 0.46710 0.38540 0.03400
O 	O 	0.64130 0.48320 0.45060 -0.53200
O 	O 	0.58000 0.81330 0.51820 -0.16300
Eu	Eu	0.62749 0.62749 0.50000 2.07000
Eu	Eu	0.37251 0.37251 0.50000 1.98800
Eu	Eu	0.37251 0.62749 -0.00000 1.88200
Eu	Eu	0.62749 0.37251 -0.00000 1.88200
In	In	0.50000 0.00000 0.25000 1.95900
In	In	0.00000 0.50000 0.75000 1.95900
In	In	0.50000 0.00000 0.75000 1.95900
In	In	-0.00000 0.50000 0.25000 1.95900
C 	C 	0.35920 0.64080 0.39250 -0.23000
C 	C 	0.27870 0.72130 0.31180 0.07900
H 	H 	0.25020 0.74980 0.28440 0.05100
C 	C 	0.40440 0.59560 0.43440 0.55600
C 	C 	0.64080 0.35920 0.39250 -0.23000
C 	C 	0.72130 0.27870 0.31180 0.07900
H 	H 	0.74980 0.25020 0.28440 0.05100
C 	C 	0.59560 0.40440 0.43440 0.55600
C 	C 	0.35920 0.35920 0.89250 -0.24100
C 	C 	0.27870 0.27870 0.81180 0.09400
H 	H 	0.25020 0.25020 0.78440 0.02300
C 	C 	0.40440 0.40440 0.93440 0.53900
C 	C 	0.64080 0.64080 0.89250 -0.18200
C 	C 	0.72130 0.72130 0.81180 0.05300
H 	H 	0.74980 0.74980 0.78440 0.08400
C 	C 	0.59560 0.59560 0.93440 0.53100
C 	C 	0.64080 0.64080 0.10750 -0.19500
C 	C 	0.72130 0.72130 0.18820 0.05500
H 	H 	0.74980 0.74980 0.21560 0.08200
C 	C 	0.59560 0.59560 0.06560 0.53600
C 	C 	0.35920 0.35920 0.10750 -0.25300
C 	C 	0.27870 0.27870 0.18820 0.09600
H 	H 	0.25020 0.25020 0.21560 0.02100
C 	C 	0.40440 0.40440 0.06560 0.54300
C 	C 	0.64080 0.35920 0.60750 -0.23000
C 	C 	0.72130 0.27870 0.68820 0.07800
H 	H 	0.74980 0.25020 0.71560 0.05200
C 	C 	0.59560 0.40440 0.56560 0.55600
C 	C 	0.35920 0.64080 0.60750 -0.23000
C 	C 	0.27870 0.72130 0.68820 0.07800
H 	H 	0.25020 0.74980 0.71560 0.05200
C 	C 	0.40440 0.59560 0.56560 0.55600
