data_crystal

_cell_length_a 10.27760
_cell_length_b 18.33900
_cell_length_c 22.78800
_cell_angle_alpha 90.00000
_cell_angle_beta  90.00000
_cell_angle_gamma 90.00000

_symmetry_space_group_name_	'P 1'
_symmetry_space_group_name_H-M	'P 1'

loop_
_symmetry_equiv_pos_as_xyz
  x,y,z

loop_
_atom_site_label
_atom_site_type_symbol
_atom_site_fract_x
_atom_site_fract_y
_atom_site_fract_z
_atom_site_charge
U 	U 	0.95532 0.74066 0.97453 0.07600
U 	U 	0.12499 0.53169 0.11667 0.05700
U 	U 	0.75685 0.74037 0.74596 0.06000
S 	S 	0.14870 0.73230 0.10550 0.62700
S 	S 	0.24130 0.61470 0.97940 0.62100
S 	S 	0.98950 0.64420 0.83650 0.64300
O 	O 	0.09100 0.66290 0.11410 -0.18900
O 	O 	0.07790 0.77420 0.05900 -0.16600
O 	O 	0.28220 0.71810 0.08650 -0.17300
O 	O 	0.94220 0.65580 0.89700 -0.16300
O 	O 	0.99800 0.57240 0.19660 -0.14200
O 	O 	0.87840 0.64480 0.79490 -0.16400
O 	O 	0.14690 0.77270 0.16100 -0.17300
O 	O 	0.23850 0.56890 0.92580 -0.16500
O 	O 	0.05590 0.57390 0.83150 -0.18700
O 	O 	0.08370 0.70410 0.82140 -0.18000
O 	O 	0.13300 0.66830 0.97930 -0.17700
O 	O 	0.35900 0.65850 0.97780 -0.16500
O 	O 	0.23900 0.57280 0.03220 -0.18100
O 	O 	0.89000 0.66170 0.25200 -0.16100
U 	U 	0.45532 0.24066 0.97453 0.06200
U 	U 	0.62499 0.03169 0.11667 0.06400
U 	U 	0.25685 0.24037 0.74596 0.05200
S 	S 	0.64870 0.23230 0.10550 0.62200
S 	S 	0.74130 0.11470 0.97940 0.61800
S 	S 	0.48950 0.14420 0.83650 0.58300
O 	O 	0.59100 0.16290 0.11410 -0.18000
O 	O 	0.57790 0.27420 0.05900 -0.15400
O 	O 	0.78220 0.21810 0.08650 -0.16900
O 	O 	0.44220 0.15580 0.89700 -0.16200
O 	O 	0.49800 0.07240 0.19660 -0.18200
O 	O 	0.37840 0.14480 0.79490 -0.16100
O 	O 	0.64690 0.27270 0.16100 -0.16500
O 	O 	0.73850 0.06890 0.92580 -0.16000
O 	O 	0.55590 0.07390 0.83150 -0.15700
O 	O 	0.58370 0.20410 0.82140 -0.15200
O 	O 	0.63300 0.16830 0.97930 -0.16700
O 	O 	0.85900 0.15850 0.97780 -0.15700
O 	O 	0.73900 0.07280 0.03220 -0.17700
O 	O 	0.39000 0.16170 0.25200 -0.19200
U 	U 	0.04468 0.25934 0.47453 0.04900
U 	U 	0.87501 0.46831 0.61667 0.06800
U 	U 	0.24315 0.25963 0.24596 0.05400
S 	S 	0.85130 0.26770 0.60550 0.62000
S 	S 	0.75870 0.38530 0.47940 0.61900
S 	S 	0.01050 0.35580 0.33650 0.52200
O 	O 	0.90900 0.33710 0.61410 -0.17100
O 	O 	0.92210 0.22580 0.55900 -0.14200
O 	O 	0.71780 0.28190 0.58650 -0.17100
O 	O 	0.05780 0.34420 0.39700 -0.15800
O 	O 	0.00200 0.42760 0.69660 -0.18300
O 	O 	0.12160 0.35520 0.29490 -0.15300
O 	O 	0.85310 0.22730 0.66100 -0.16000
O 	O 	0.76150 0.43110 0.42580 -0.16100
O 	O 	0.94410 0.42610 0.33150 -0.12900
O 	O 	0.91630 0.29590 0.32140 -0.12500
O 	O 	0.86700 0.33170 0.47930 -0.15900
O 	O 	0.64100 0.34150 0.47780 -0.16400
O 	O 	0.76100 0.42720 0.53220 -0.17800
O 	O 	0.11000 0.33830 0.75200 -0.18200
U 	U 	0.54468 0.75934 0.47453 0.06200
U 	U 	0.37501 0.96831 0.61667 0.06200
U 	U 	0.74315 0.75963 0.24596 0.05800
S 	S 	0.35130 0.76770 0.60550 0.62300
S 	S 	0.25870 0.88530 0.47940 0.62200
S 	S 	0.51050 0.85580 0.33650 0.58300
O 	O 	0.40900 0.83710 0.61410 -0.18000
O 	O 	0.42210 0.72580 0.55900 -0.15500
O 	O 	0.21780 0.78190 0.58650 -0.17500
O 	O 	0.55780 0.84420 0.39700 -0.15900
O 	O 	0.50200 0.92760 0.69660 -0.18000
O 	O 	0.62160 0.85520 0.29490 -0.15700
O 	O 	0.35310 0.72730 0.66100 -0.16700
O 	O 	0.26150 0.93110 0.42580 -0.16700
O 	O 	0.44410 0.92610 0.33150 -0.15800
O 	O 	0.41630 0.79590 0.32140 -0.15500
O 	O 	0.36700 0.83170 0.47930 -0.16900
O 	O 	0.14100 0.84150 0.47780 -0.17200
O 	O 	0.26100 0.92720 0.53220 -0.18200
O 	O 	0.61000 0.83830 0.75200 -0.18800
U 	U 	0.04468 0.74066 0.52547 0.04900
U 	U 	0.87501 0.53169 0.38333 0.06800
U 	U 	0.24315 0.74037 0.75404 0.05400
S 	S 	0.85130 0.73230 0.39450 0.62000
S 	S 	0.75870 0.61470 0.52060 0.61900
S 	S 	0.01050 0.64420 0.66350 0.52200
O 	O 	0.90900 0.66290 0.38590 -0.17100
O 	O 	0.92210 0.77420 0.44100 -0.14200
O 	O 	0.71780 0.71810 0.41350 -0.17100
O 	O 	0.05780 0.65580 0.60300 -0.15800
O 	O 	0.00200 0.57240 0.30340 -0.18300
O 	O 	0.12160 0.64480 0.70510 -0.15300
O 	O 	0.85310 0.77270 0.33900 -0.16000
O 	O 	0.76150 0.56890 0.57420 -0.16100
O 	O 	0.94410 0.57390 0.66850 -0.12900
O 	O 	0.91630 0.70410 0.67860 -0.12500
O 	O 	0.86700 0.66830 0.52070 -0.15900
O 	O 	0.64100 0.65850 0.52220 -0.16400
O 	O 	0.76100 0.57280 0.46780 -0.17800
O 	O 	0.11000 0.66170 0.24800 -0.18200
U 	U 	0.54468 0.24066 0.52547 0.06200
U 	U 	0.37501 0.03169 0.38333 0.06200
U 	U 	0.74315 0.24037 0.75404 0.05800
S 	S 	0.35130 0.23230 0.39450 0.62300
S 	S 	0.25870 0.11470 0.52060 0.62200
S 	S 	0.51050 0.14420 0.66350 0.58300
O 	O 	0.40900 0.16290 0.38590 -0.18000
O 	O 	0.42210 0.27420 0.44100 -0.15500
O 	O 	0.21780 0.21810 0.41350 -0.17500
O 	O 	0.55780 0.15580 0.60300 -0.15900
O 	O 	0.50200 0.07240 0.30340 -0.18000
O 	O 	0.62160 0.14480 0.70510 -0.15700
O 	O 	0.35310 0.27270 0.33900 -0.16700
O 	O 	0.26150 0.06890 0.57420 -0.16700
O 	O 	0.44410 0.07390 0.66850 -0.15800
O 	O 	0.41630 0.20410 0.67860 -0.15500
O 	O 	0.36700 0.16830 0.52070 -0.16900
O 	O 	0.14100 0.15850 0.52220 -0.17200
O 	O 	0.26100 0.07280 0.46780 -0.18200
O 	O 	0.61000 0.16170 0.24800 -0.18800
U 	U 	0.95532 0.25934 0.02547 0.07500
U 	U 	0.12499 0.46831 0.88333 0.05600
U 	U 	0.75685 0.25963 0.25404 0.05900
S 	S 	0.14870 0.26770 0.89450 0.62600
S 	S 	0.24130 0.38530 0.02060 0.62100
S 	S 	0.98950 0.35580 0.16350 0.64300
O 	O 	0.09100 0.33710 0.88590 -0.18900
O 	O 	0.07790 0.22580 0.94100 -0.16600
O 	O 	0.28220 0.28190 0.91350 -0.17300
O 	O 	0.94220 0.34420 0.10300 -0.16300
O 	O 	0.99800 0.42760 0.80340 -0.14200
O 	O 	0.87840 0.35520 0.20510 -0.16400
O 	O 	0.14690 0.22730 0.83900 -0.17300
O 	O 	0.23850 0.43110 0.07420 -0.16500
O 	O 	0.05590 0.42610 0.16850 -0.18700
O 	O 	0.08370 0.29590 0.17860 -0.18000
O 	O 	0.13300 0.33170 0.02070 -0.17700
O 	O 	0.35900 0.34150 0.02220 -0.16500
O 	O 	0.23900 0.42720 0.96780 -0.18100
O 	O 	0.89000 0.33830 0.74800 -0.16100
U 	U 	0.45532 0.75934 0.02547 0.06200
U 	U 	0.62499 0.96831 0.88333 0.06400
U 	U 	0.25685 0.75963 0.25404 0.05200
S 	S 	0.64870 0.76770 0.89450 0.62200
S 	S 	0.74130 0.88530 0.02060 0.61800
S 	S 	0.48950 0.85580 0.16350 0.58300
O 	O 	0.59100 0.83710 0.88590 -0.18000
O 	O 	0.57790 0.72580 0.94100 -0.15400
O 	O 	0.78220 0.78190 0.91350 -0.16900
O 	O 	0.44220 0.84420 0.10300 -0.16200
O 	O 	0.49800 0.92760 0.80340 -0.18200
O 	O 	0.37840 0.85520 0.20510 -0.16100
O 	O 	0.64690 0.72730 0.83900 -0.16500
O 	O 	0.73850 0.93110 0.07420 -0.16000
O 	O 	0.55590 0.92610 0.16850 -0.15700
O 	O 	0.58370 0.79590 0.17860 -0.15200
O 	O 	0.63300 0.83170 0.02070 -0.16700
O 	O 	0.85900 0.84150 0.02220 -0.15700
O 	O 	0.73900 0.92720 0.96780 -0.17700
O 	O 	0.39000 0.83830 0.74800 -0.19200
S 	S 	0.00000 0.61470 0.25000 0.61300
S 	S 	0.50000 0.11470 0.25000 0.68300
S 	S 	0.00000 0.38530 0.75000 0.61300
S 	S 	0.50000 0.88530 0.75000 0.68300
