data_crystal

_cell_length_a 9.45860
_cell_length_b 26.76900
_cell_length_c 32.37700
_cell_angle_alpha 90.00000
_cell_angle_beta  90.00000
_cell_angle_gamma 90.00000

_symmetry_space_group_name_	'P 1'
_symmetry_space_group_name_H-M	'P 1'

loop_
_symmetry_equiv_pos_as_xyz
  x,y,z

loop_
_atom_site_label
_atom_site_type_symbol
_atom_site_fract_x
_atom_site_fract_y
_atom_site_fract_z
_atom_site_charge
U 	U 	0.23852 0.72561 0.85142 0.05100
U 	U 	0.73679 0.60866 0.90215 0.05300
U 	U 	0.72399 0.94587 0.65460 0.05400
U 	U 	0.75430 0.80358 0.54572 0.05500
U 	U 	0.77411 0.76195 0.70847 0.05400
S 	S 	0.47460 0.71278 0.76708 0.62500
S 	S 	0.01410 0.71523 0.76107 0.56100
S 	S 	0.95740 0.84024 0.63385 0.58700
S 	S 	0.54060 0.82888 0.64097 0.60300
S 	S 	0.01360 0.70195 0.91923 0.55800
S 	S 	0.51220 0.52631 0.84142 0.59400
S 	S 	0.51120 0.68911 0.92531 0.60400
S 	S 	0.95750 0.77665 0.47441 0.60100
S 	S 	0.97440 0.53172 0.84389 0.59200
O 	O 	0.09510 0.74030 0.79460 -0.14900
O 	O 	0.41680 0.73850 0.80410 -0.15800
O 	O 	0.59160 0.54320 0.87830 -0.15500
O 	O 	0.48800 0.63610 0.91500 -0.16000
O 	O 	0.90370 0.88590 0.65730 -0.14700
O 	O 	0.99090 0.72130 0.87650 -0.14500
O 	O 	0.38890 0.82750 0.63660 -0.15900
O 	O 	0.92110 0.84330 0.59020 -0.15800
O 	O 	0.58410 0.87390 0.66300 -0.16300
O 	O 	0.89510 0.79410 0.65160 -0.15600
O 	O 	0.45860 0.70290 0.96520 -0.16300
O 	O 	0.17280 0.69740 0.92220 -0.14700
O 	O 	0.59170 0.78430 0.66450 -0.15400
O 	O 	0.45220 0.72200 0.89270 -0.15500
O 	O 	0.80470 0.76480 0.47890 -0.15600
O 	O 	0.85780 0.71870 0.77090 -0.14000
O 	O 	0.35830 0.53380 0.84910 -0.15100
O 	O 	0.05880 0.66300 0.75620 -0.14700
O 	O 	0.07850 0.49530 0.85940 -0.15600
O 	O 	0.02640 0.74470 0.72190 -0.14300
O 	O 	0.66750 0.69420 0.92400 -0.15900
O 	O 	0.98970 0.80450 0.51210 -0.15700
O 	O 	0.96180 0.73440 0.95140 -0.14700
O 	O 	0.57910 0.74880 0.75020 -0.15700
O 	O 	0.36280 0.70430 0.73750 -0.17200
O 	O 	0.91210 0.55490 0.88310 -0.14100
O 	O 	0.61130 0.82920 0.60030 -0.16400
O 	O 	0.55460 0.55270 0.80470 -0.16100
O 	O 	0.03610 0.72820 0.47530 -0.15000
O 	O 	0.94920 0.65100 0.92360 -0.14000
O 	O 	0.85970 0.50600 0.82190 -0.16000
O 	O 	0.04490 0.56980 0.82020 -0.16500
O 	O 	0.99220 0.80480 0.43840 -0.17200
O 	O 	0.54200 0.66770 0.77890 -0.17500
O 	O 	0.52730 0.47130 0.83880 -0.15100
O 	O 	0.10910 0.83810 0.63760 -0.15200
U 	U 	0.26148 0.27439 0.35142 0.05100
U 	U 	0.76321 0.39134 0.40215 0.05000
U 	U 	0.77601 0.05413 0.15460 0.05300
U 	U 	0.74570 0.19642 0.04572 0.05500
U 	U 	0.72589 0.23805 0.20847 0.05300
S 	S 	0.02540 0.28722 0.26708 0.62800
S 	S 	0.48590 0.28477 0.26107 0.56200
S 	S 	0.54260 0.15976 0.13385 0.58800
S 	S 	0.95940 0.17112 0.14097 0.60500
S 	S 	0.48640 0.29805 0.41923 0.57300
S 	S 	0.98780 0.47369 0.34142 0.59000
S 	S 	0.98880 0.31089 0.42531 0.58500
S 	S 	0.54250 0.22335 0.97441 0.60300
S 	S 	0.52560 0.46828 0.34389 0.58800
O 	O 	0.40490 0.25970 0.29460 -0.14800
O 	O 	0.08320 0.26150 0.30410 -0.15800
O 	O 	0.90840 0.45680 0.37830 -0.15600
O 	O 	0.01200 0.36390 0.41500 -0.15300
O 	O 	0.59630 0.11410 0.15730 -0.14700
O 	O 	0.50910 0.27870 0.37650 -0.15100
O 	O 	0.11110 0.17250 0.13660 -0.16100
O 	O 	0.57890 0.15670 0.09020 -0.15800
O 	O 	0.91590 0.12610 0.16300 -0.16300
O 	O 	0.60490 0.20590 0.15160 -0.15600
O 	O 	0.04140 0.29710 0.46520 -0.15500
O 	O 	0.32720 0.30260 0.42220 -0.14800
O 	O 	0.90830 0.21570 0.16450 -0.15500
O 	O 	0.04780 0.27800 0.39270 -0.14800
O 	O 	0.69530 0.23520 0.97890 -0.15600
O 	O 	0.64220 0.28130 0.27090 -0.14100
O 	O 	0.14170 0.46620 0.34910 -0.14900
O 	O 	0.44120 0.33700 0.25620 -0.14800
O 	O 	0.42150 0.50470 0.35940 -0.15400
O 	O 	0.47360 0.25530 0.22190 -0.14400
O 	O 	0.83250 0.30580 0.42400 -0.15700
O 	O 	0.51030 0.19550 0.01210 -0.15700
O 	O 	0.53820 0.26560 0.45140 -0.15400
O 	O 	0.92090 0.25120 0.25020 -0.15800
O 	O 	0.13720 0.29570 0.23750 -0.17200
O 	O 	0.58790 0.44510 0.38310 -0.14100
O 	O 	0.88870 0.17080 0.10030 -0.16300
O 	O 	0.94540 0.44730 0.30470 -0.16100
O 	O 	0.46390 0.27180 0.97530 -0.15200
O 	O 	0.55080 0.34900 0.42360 -0.14600
O 	O 	0.64030 0.49400 0.32190 -0.15900
O 	O 	0.45510 0.43020 0.32020 -0.16300
O 	O 	0.50780 0.19520 0.93840 -0.17100
O 	O 	0.95800 0.33230 0.27890 -0.17700
O 	O 	0.97270 0.52870 0.33880 -0.15200
O 	O 	0.39090 0.16190 0.13760 -0.15300
U 	U 	0.76148 0.22561 0.64858 0.05000
U 	U 	0.26321 0.10866 0.59785 0.05200
U 	U 	0.27601 0.44587 0.84540 0.05300
U 	U 	0.24570 0.30358 0.95428 0.05400
U 	U 	0.22589 0.26195 0.79153 0.05300
S 	S 	0.52540 0.21278 0.73292 0.62400
S 	S 	0.98590 0.21523 0.73893 0.56000
S 	S 	0.04260 0.34024 0.86615 0.58600
S 	S 	0.45940 0.32888 0.85903 0.60200
S 	S 	0.98640 0.20195 0.58077 0.55600
S 	S 	0.48780 0.02631 0.65858 0.59300
S 	S 	0.48880 0.18911 0.57469 0.60300
S 	S 	0.04250 0.27665 0.02559 0.60000
S 	S 	0.02560 0.03172 0.65611 0.59300
O 	O 	0.90490 0.24030 0.70540 -0.14900
O 	O 	0.58320 0.23850 0.69590 -0.15800
O 	O 	0.40840 0.04320 0.62170 -0.15500
O 	O 	0.51200 0.13610 0.58500 -0.16000
O 	O 	0.09630 0.38590 0.84270 -0.14700
O 	O 	0.00910 0.22130 0.62350 -0.14400
O 	O 	0.61110 0.32750 0.86340 -0.15900
O 	O 	0.07890 0.34330 0.90980 -0.15800
O 	O 	0.41590 0.37390 0.83700 -0.16300
O 	O 	0.10490 0.29410 0.84840 -0.15600
O 	O 	0.54140 0.20290 0.53480 -0.16300
O 	O 	0.82720 0.19740 0.57780 -0.14700
O 	O 	0.40830 0.28430 0.83550 -0.15400
O 	O 	0.54780 0.22200 0.60730 -0.15500
O 	O 	0.19530 0.26480 0.02110 -0.15600
O 	O 	0.14220 0.21870 0.72910 -0.13900
O 	O 	0.64170 0.03380 0.65090 -0.15200
O 	O 	0.94120 0.16300 0.74380 -0.14700
O 	O 	0.92150 0.99530 0.64060 -0.15600
O 	O 	0.97360 0.24470 0.77810 -0.14300
O 	O 	0.33250 0.19420 0.57600 -0.15900
O 	O 	0.01030 0.30450 0.98790 -0.15700
O 	O 	0.03820 0.23440 0.54860 -0.14700
O 	O 	0.42090 0.24880 0.74980 -0.15700
O 	O 	0.63720 0.20430 0.76250 -0.17200
O 	O 	0.08790 0.05490 0.61690 -0.14100
O 	O 	0.38870 0.32920 0.89970 -0.16400
O 	O 	0.44540 0.05270 0.69530 -0.16100
O 	O 	0.96390 0.22820 0.02470 -0.15000
O 	O 	0.05080 0.15100 0.57640 -0.14000
O 	O 	0.14030 0.00600 0.67810 -0.16000
O 	O 	0.95510 0.06980 0.67980 -0.16600
O 	O 	0.00780 0.30480 0.06160 -0.17200
O 	O 	0.45800 0.16770 0.72110 -0.17500
O 	O 	0.47270 0.97130 0.66120 -0.15100
O 	O 	0.89090 0.33810 0.86240 -0.15200
U 	U 	0.73852 0.77439 0.14858 0.05100
U 	U 	0.23679 0.89134 0.09785 0.05000
U 	U 	0.22399 0.55413 0.34540 0.05400
U 	U 	0.25430 0.69642 0.45428 0.05500
U 	U 	0.27411 0.73805 0.29153 0.05300
S 	S 	0.97460 0.78722 0.23292 0.62800
S 	S 	0.51410 0.78477 0.23893 0.56200
S 	S 	0.45740 0.65976 0.36615 0.58800
S 	S 	0.04060 0.67112 0.35903 0.60500
S 	S 	0.51360 0.79805 0.08077 0.57300
S 	S 	0.01220 0.97369 0.15858 0.58900
S 	S 	0.01120 0.81089 0.07469 0.58500
S 	S 	0.45750 0.72335 0.52559 0.60300
S 	S 	0.47440 0.96828 0.15611 0.58800
O 	O 	0.59510 0.75970 0.20540 -0.14800
O 	O 	0.91680 0.76150 0.19590 -0.15800
O 	O 	0.09160 0.95680 0.12170 -0.15600
O 	O 	0.98800 0.86390 0.08500 -0.15300
O 	O 	0.40370 0.61410 0.34270 -0.14700
O 	O 	0.49090 0.77870 0.12350 -0.15100
O 	O 	0.88890 0.67250 0.36340 -0.16100
O 	O 	0.42110 0.65670 0.40980 -0.15800
O 	O 	0.08410 0.62610 0.33700 -0.16300
O 	O 	0.39510 0.70590 0.34840 -0.15600
O 	O 	0.95860 0.79710 0.03480 -0.15500
O 	O 	0.67280 0.80260 0.07780 -0.14800
O 	O 	0.09170 0.71570 0.33550 -0.15500
O 	O 	0.95220 0.77800 0.10730 -0.14800
O 	O 	0.30470 0.73520 0.52110 -0.15500
O 	O 	0.35780 0.78130 0.22910 -0.14100
O 	O 	0.85830 0.96620 0.15090 -0.14900
O 	O 	0.55880 0.83700 0.24380 -0.14800
O 	O 	0.57850 0.00470 0.14060 -0.15400
O 	O 	0.52640 0.75530 0.27810 -0.14400
O 	O 	0.16750 0.80580 0.07600 -0.15700
O 	O 	0.48970 0.69550 0.48790 -0.15700
O 	O 	0.46180 0.76560 0.04860 -0.15400
O 	O 	0.07910 0.75120 0.24980 -0.15800
O 	O 	0.86280 0.79570 0.26250 -0.17200
O 	O 	0.41210 0.94510 0.11690 -0.14100
O 	O 	0.11130 0.67080 0.39970 -0.16300
O 	O 	0.05460 0.94730 0.19530 -0.16100
O 	O 	0.53610 0.77180 0.52470 -0.15200
O 	O 	0.44920 0.84900 0.07640 -0.14600
O 	O 	0.35970 0.99400 0.17810 -0.16000
O 	O 	0.54490 0.93020 0.17980 -0.16300
O 	O 	0.49220 0.69520 0.56160 -0.17100
O 	O 	0.04200 0.83230 0.22110 -0.17700
O 	O 	0.02730 0.02870 0.16120 -0.15100
O 	O 	0.60910 0.66190 0.36240 -0.15300
