data_crystal

_cell_length_a 8.74980
_cell_length_b 8.74980
_cell_length_c 19.02900
_cell_angle_alpha 90.00000
_cell_angle_beta  90.00000
_cell_angle_gamma 120.00000

_symmetry_space_group_name_	'P 1'
_symmetry_space_group_name_H-M	'P 1'

loop_
_symmetry_equiv_pos_as_xyz
  x,y,z

loop_
_atom_site_label
_atom_site_type_symbol
_atom_site_fract_x
_atom_site_fract_y
_atom_site_fract_z
_atom_site_charge
Fe	Fe	-0.00000 0.00000 0.50000 1.08200
Fe	Fe	0.66667 0.33333 0.83333 1.17500
Fe	Fe	0.33333 0.66667 0.16667 1.17400
K 	K 	0.33333 0.66667 0.66667 0.63900
K 	K 	-0.00000 0.00000 -0.00000 0.59400
K 	K 	0.66667 0.33333 0.33333 0.63800
N 	N 	0.17005 0.34010 0.58933 -0.10700
C 	C 	0.10600 0.21200 0.55711 -0.26200
N 	N 	0.83672 0.67343 0.92266 -0.06100
C 	C 	0.77267 0.54533 0.89044 -0.17600
N 	N 	0.50338 0.00677 0.25600 -0.17900
C 	C 	0.43933 0.87867 0.22378 -0.10500
N 	N 	0.65990 0.82995 0.58933 -0.10600
C 	C 	0.78800 0.89400 0.55711 -0.10000
N 	N 	0.32657 0.16328 0.92266 -0.11800
C 	C 	0.45467 0.22733 0.89044 -0.20700
N 	N 	0.99323 0.49662 0.25600 -0.03100
C 	C 	0.12133 0.56067 0.22378 -0.29000
N 	N 	0.17005 0.82995 0.58933 -0.10700
C 	C 	0.10600 0.89400 0.55711 -0.17400
N 	N 	0.83672 0.16328 0.92266 -0.08900
C 	C 	0.77267 0.22733 0.89044 -0.19200
N 	N 	0.50338 0.49662 0.25600 -0.10300
C 	C 	0.43933 0.56067 0.22378 -0.20100
N 	N 	0.34010 0.17005 0.41067 -0.10800
C 	C 	0.21200 0.10600 0.44289 -0.26300
N 	N 	0.00677 0.50338 0.74400 -0.17300
C 	C 	0.87867 0.43933 0.77622 -0.10800
N 	N 	0.67343 0.83672 0.07734 -0.07800
C 	C 	0.54533 0.77267 0.10956 -0.19000
N 	N 	0.82995 0.65990 0.41067 -0.10700
C 	C 	0.89400 0.78800 0.44289 -0.10000
N 	N 	0.49662 0.99323 0.74400 -0.02500
C 	C 	0.56067 0.12133 0.77622 -0.29100
N 	N 	0.16328 0.32657 0.07734 -0.13600
C 	C 	0.22733 0.45467 0.10956 -0.22100
N 	N 	0.82995 0.17005 0.41067 -0.10800
C 	C 	0.89400 0.10600 0.44289 -0.17900
N 	N 	0.49662 0.50338 0.74400 -0.10100
C 	C 	0.56067 0.43933 0.77622 -0.19700
N 	N 	0.16328 0.83672 0.07734 -0.10400
C 	C 	0.22733 0.77267 0.10956 -0.20500
