data_crystal

_cell_length_a 13.46200
_cell_length_b 8.76700
_cell_length_c 15.12500
_cell_angle_alpha 90.00000
_cell_angle_beta  111.93000
_cell_angle_gamma 90.00000

_symmetry_space_group_name_	'P 1'
_symmetry_space_group_name_H-M	'P 1'

loop_
_symmetry_equiv_pos_as_xyz
  x,y,z

loop_
_atom_site_label
_atom_site_type_symbol
_atom_site_fract_x
_atom_site_fract_y
_atom_site_fract_z
_atom_site_charge
C 	C 	0.16530 0.08150 0.92510 -0.12800
C 	C 	0.16550 0.40300 0.90960 -0.12700
C 	C 	0.33740 0.23200 0.92280 -0.11500
N 	N 	0.11970 0.97550 0.88510 -0.11700
N 	N 	0.11900 0.49480 0.85520 -0.11900
N 	N 	0.38670 0.21660 0.87570 -0.10400
C 	C 	0.66530 0.58150 0.92510 -0.10800
C 	C 	0.66550 0.90300 0.90960 -0.11000
C 	C 	0.83740 0.73200 0.92280 -0.09800
N 	N 	0.61970 0.47550 0.88510 -0.10000
N 	N 	0.61900 0.99480 0.85520 -0.10200
N 	N 	0.88670 0.71660 0.87570 -0.08300
C 	C 	0.83470 0.08150 0.57490 -0.18100
C 	C 	0.83450 0.40300 0.59040 -0.18000
C 	C 	0.66260 0.23200 0.57720 -0.19300
N 	N 	0.88030 0.97550 0.61490 -0.08400
N 	N 	0.88100 0.49480 0.64480 -0.07900
N 	N 	0.61330 0.21660 0.62430 -0.09800
C 	C 	0.33470 0.58150 0.57490 -0.19800
C 	C 	0.33450 0.90300 0.59040 -0.19800
C 	C 	0.16260 0.73200 0.57720 -0.21000
N 	N 	0.38030 0.47550 0.61490 -0.10400
N 	N 	0.38100 0.99480 0.64480 -0.10000
N 	N 	0.11330 0.71660 0.62430 -0.11600
C 	C 	0.83470 0.91850 0.07490 -0.23800
C 	C 	0.83450 0.59700 0.09040 -0.23600
C 	C 	0.66260 0.76800 0.07720 -0.24800
N 	N 	0.88030 0.02450 0.11490 -0.09700
N 	N 	0.88100 0.50520 0.14480 -0.08800
N 	N 	0.61330 0.78340 0.12430 -0.11000
C 	C 	0.33470 0.41850 0.07490 -0.25500
C 	C 	0.33450 0.09700 0.09040 -0.25200
C 	C 	0.16260 0.26800 0.07720 -0.26400
N 	N 	0.38030 0.52450 0.11490 -0.11800
N 	N 	0.38100 0.00520 0.14480 -0.10900
N 	N 	0.11330 0.28340 0.12430 -0.12700
C 	C 	0.16530 0.91850 0.42510 -0.21500
C 	C 	0.16550 0.59700 0.40960 -0.21400
C 	C 	0.33740 0.76800 0.42280 -0.20300
N 	N 	0.11970 0.02450 0.38510 -0.12300
N 	N 	0.11900 0.50520 0.35520 -0.12000
N 	N 	0.38670 0.78340 0.37570 -0.10700
C 	C 	0.66530 0.41850 0.42510 -0.19700
C 	C 	0.66550 0.09700 0.40960 -0.19700
C 	C 	0.83740 0.26800 0.42280 -0.18600
N 	N 	0.61970 0.52450 0.38510 -0.10600
N 	N 	0.61900 0.00520 0.35520 -0.10300
N 	N 	0.88670 0.28340 0.37570 -0.08600
Fe	Fe	0.25000 0.25000 -0.00000 1.09500
Fe	Fe	0.75000 0.25000 0.50000 1.17100
Fe	Fe	0.75000 0.75000 -0.00000 1.09500
Fe	Fe	0.25000 0.75000 0.50000 1.16900
K 	K 	0.00000 0.75156 0.75000 0.62600
K 	K 	0.50000 0.25156 0.75000 0.64400
K 	K 	0.00000 0.24844 0.25000 0.61700
K 	K 	0.50000 0.74844 0.25000 0.63400
