data_crystal

_cell_length_a 8.76320
_cell_length_b 8.76320
_cell_length_c 18.81970
_cell_angle_alpha 90.00000
_cell_angle_beta  90.00000
_cell_angle_gamma 120.00000

_symmetry_space_group_name_	'P 1'
_symmetry_space_group_name_H-M	'P 1'

loop_
_symmetry_equiv_pos_as_xyz
  x,y,z

loop_
_atom_site_label
_atom_site_type_symbol
_atom_site_fract_x
_atom_site_fract_y
_atom_site_fract_z
_atom_site_charge
Fe	Fe	0.66667 0.33333 0.33333 1.16900
Fe	Fe	0.33333 0.66667 0.66667 1.16900
Fe	Fe	-0.00000 0.00000 -0.00000 1.04000
K 	K 	-0.00000 0.00000 0.50000 0.60300
K 	K 	0.66667 0.33333 0.83333 0.64200
K 	K 	0.33333 0.66667 0.16667 0.63600
N 	N 	0.83660 0.16340 0.42360 -0.10100
C 	C 	0.77320 0.22680 0.39120 -0.19800
N 	N 	0.50327 0.49673 0.75693 -0.10100
C 	C 	0.43987 0.56013 0.72453 -0.19500
N 	N 	0.16993 0.83007 0.09027 -0.11300
C 	C 	0.10653 0.89347 0.05787 -0.19600
N 	N 	0.83660 0.67320 0.42360 -0.07200
C 	C 	0.77320 0.54640 0.39120 -0.18200
N 	N 	0.50327 0.00653 0.75693 -0.17900
C 	C 	0.43987 0.87973 0.72453 -0.09800
N 	N 	0.16993 0.33987 0.09027 -0.11300
C 	C 	0.10653 0.21307 0.05787 -0.28800
N 	N 	0.32680 0.16340 0.42360 -0.12900
C 	C 	0.45360 0.22680 0.39120 -0.21300
N 	N 	0.99347 0.49673 0.75693 -0.03300
C 	C 	0.12027 0.56013 0.72453 -0.28000
N 	N 	0.66013 0.83007 0.09027 -0.11200
C 	C 	0.78693 0.89347 0.05787 -0.12700
N 	N 	0.16340 0.83660 0.57640 -0.09700
C 	C 	0.22680 0.77320 0.60880 -0.19500
N 	N 	0.83007 0.16993 0.90973 -0.10800
C 	C 	0.89347 0.10653 0.94213 -0.13500
N 	N 	0.49673 0.50327 0.24307 -0.10500
C 	C 	0.56013 0.43987 0.27547 -0.20000
N 	N 	0.67320 0.83660 0.57640 -0.07100
C 	C 	0.54640 0.77320 0.60880 -0.18100
N 	N 	0.33987 0.16993 0.90973 -0.10800
C 	C 	0.21307 0.10653 0.94213 -0.21300
N 	N 	0.00653 0.50327 0.24307 -0.17400
C 	C 	0.87973 0.43987 0.27547 -0.11400
N 	N 	0.16340 0.32680 0.57640 -0.12800
C 	C 	0.22680 0.45360 0.60880 -0.21200
N 	N 	0.83007 0.66013 0.90973 -0.10700
C 	C 	0.89347 0.78693 0.94213 -0.05700
N 	N 	0.49673 0.99347 0.24307 -0.02500
C 	C 	0.56013 0.12027 0.27547 -0.29900
