data_crystal

_cell_length_a 21.22400
_cell_length_b 21.22400
_cell_length_c 7.71000
_cell_angle_alpha 90.00000
_cell_angle_beta  90.00000
_cell_angle_gamma 120.00000

_symmetry_space_group_name_	'P 1'
_symmetry_space_group_name_H-M	'P 1'

loop_
_symmetry_equiv_pos_as_xyz
  x,y,z

loop_
_atom_site_label
_atom_site_type_symbol
_atom_site_fract_x
_atom_site_fract_y
_atom_site_fract_z
_atom_site_charge
O 	O 	0.09170 0.13150 0.29840 -0.49000
O 	O 	0.62680 0.42430 0.96380 -0.50100
Zn	Zn	0.63313 0.36689 0.14908 1.22800
Zn	Zn	0.03350 0.06697 0.48212 1.22700
C 	C 	0.65680 0.44730 0.82100 0.46400
C 	C 	0.87550 0.88480 0.14350 0.45700
C 	C 	0.55240 0.34300 0.47860 0.47400
O 	O 	0.93420 0.90650 0.22740 -0.51700
C 	C 	0.11460 0.12500 0.15270 0.45000
O 	O 	0.57490 0.37240 0.33490 -0.50000
O 	O 	0.57280 0.30550 0.56090 -0.52400
O 	O 	0.09280 0.06530 0.07130 -0.51700
O 	O 	0.69440 0.42640 0.73790 -0.52100
O 	O 	0.86850 0.90850 0.00130 -0.49300
C 	C 	0.49590 0.35650 0.56600 -0.24700
C 	C 	0.80670 0.82960 0.23290 -0.22900
C 	C 	0.64360 0.50350 0.72920 -0.24000
C 	C 	0.17070 0.19370 0.06340 -0.23800
C 	C 	0.41930 0.34290 0.81200 -0.30900
H 	H 	0.40370 0.32640 0.92420 0.17700
C 	C 	0.66940 0.52880 0.56600 0.22100
H 	H 	0.69520 0.51070 0.50690 -0.02300
C 	C 	0.19500 0.19340 0.89540 0.22000
H 	H 	0.17600 0.14990 0.83400 -0.02400
F 	F 	0.33540 0.48320 0.01220 -0.34600
C 	C 	0.74090 0.80170 0.14690 0.22500
H 	H 	0.74010 0.81840 0.03580 0.03200
C 	C 	0.80740 0.80520 0.40130 0.20100
H 	H 	0.85100 0.82400 0.46220 -0.01700
C 	C 	0.60630 0.53070 0.81850 0.23300
H 	H 	0.58970 0.51440 0.93010 0.02800
F 	F 	0.26150 0.36650 0.55710 -0.49800
C 	C 	0.19950 0.25970 0.15150 0.24600
H 	H 	0.18390 0.26060 0.26370 0.02500
C 	C 	0.47210 0.33100 0.73160 0.21300
H 	H 	0.49100 0.30590 0.79030 -0.02000
F 	F 	0.33130 0.48080 0.61980 -0.34500
C 	C 	0.67660 0.72350 0.38680 0.38200
C 	C 	0.24730 0.25760 0.81960 -0.32500
H 	H 	0.26360 0.25700 0.70800 0.18300
C 	C 	0.65790 0.58120 0.48660 -0.31700
H 	H 	0.67520 0.59720 0.37510 0.18000
F 	F 	0.63340 0.73860 0.74080 -0.47100
C 	C 	0.27570 0.32320 0.90990 0.39000
C 	C 	0.59360 0.58300 0.74210 -0.31400
H 	H 	0.56720 0.60010 0.80240 0.29200
F 	F 	0.40570 0.43910 0.07490 -0.48300
C 	C 	0.60710 0.66660 0.48380 -0.48800
C 	C 	0.74200 0.75220 0.47790 -0.30700
H 	H 	0.74240 0.73620 0.59000 0.17700
C 	C 	0.33290 0.39420 0.81370 -0.47800
F 	F 	0.51710 0.66420 0.28510 -0.35900
F 	F 	0.51960 0.66920 0.67810 -0.35300
C 	C 	0.46820 0.39420 0.48020 0.25500
H 	H 	0.48500 0.41190 0.36930 0.02200
F 	F 	0.56140 0.59480 0.22380 -0.48100
C 	C 	0.41690 0.40600 0.55380 -0.33100
H 	H 	0.39910 0.43160 0.49290 0.29700
F 	F 	0.43220 0.51360 0.86230 -0.39300
C 	C 	0.67570 0.74940 0.22140 -0.31000
H 	H 	0.63210 0.73200 0.16140 0.29200
C 	C 	0.54250 0.62360 0.35200 0.96200
F 	F 	0.48640 0.56780 0.43630 -0.39000
C 	C 	0.25040 0.32310 0.07480 -0.33500
H 	H 	0.26810 0.36670 0.13470 0.29800
F 	F 	0.23390 0.41420 0.76770 -0.39600
C 	C 	0.58570 0.70930 0.61000 0.95400
C 	C 	0.39060 0.38010 0.72000 0.38000
C 	C 	0.62000 0.61000 0.57640 0.38800
C 	C 	0.28890 0.41260 0.68400 0.97700
F 	F 	0.58550 0.76620 0.53030 -0.38700
C 	C 	0.37720 0.45760 0.94600 0.95900
O 	O 	0.86850 0.96020 0.63173 -0.48900
O 	O 	0.57570 0.20250 0.29713 -0.49900
Zn	Zn	0.63311 0.26624 0.48241 1.22700
Zn	Zn	0.93303 0.96653 0.81545 1.22700
C 	C 	0.55270 0.20950 0.15433 0.46300
C 	C 	0.11520 0.99070 0.47683 0.45800
C 	C 	0.65700 0.20940 0.81193 0.47400
O 	O 	0.09350 0.02770 0.56073 -0.51900
C 	C 	0.87500 0.98960 0.48603 0.45100
O 	O 	0.62760 0.20250 0.66823 -0.50000
O 	O 	0.69450 0.26730 0.89423 -0.52400
O 	O 	0.93470 0.02750 0.40463 -0.52000
O 	O 	0.57360 0.26800 0.07123 -0.52100
O 	O 	0.09150 0.96000 0.33463 -0.49100
C 	C 	0.64350 0.13940 0.89933 -0.24700
C 	C 	0.17040 0.97710 0.56623 -0.21100
C 	C 	0.49650 0.14010 0.06253 -0.23800
C 	C 	0.80630 0.97700 0.39673 -0.22600
C 	C 	0.65710 0.07640 0.14533 -0.30800
H 	H 	0.67360 0.07730 0.25753 0.17600
C 	C 	0.47120 0.14060 0.89933 0.21700
H 	H 	0.48930 0.18450 0.84023 -0.02200
C 	C 	0.80660 0.00160 0.22873 0.19800
H 	H 	0.85010 0.02610 0.16733 -0.01700
F 	F 	0.51680 0.85220 0.34553 -0.34600
C 	C 	0.19830 0.93920 0.48023 0.21100
H 	H 	0.18160 0.92170 0.36913 0.03800
C 	C 	0.19480 0.00220 0.73463 0.17100
H 	H 	0.17600 0.02700 0.79553 -0.00800
C 	C 	0.46930 0.07560 0.15183 0.23400
H 	H 	0.48560 0.07530 0.26343 0.02700
F 	F 	0.63350 0.89500 0.89043 -0.49600
C 	C 	0.74030 0.93980 0.48483 0.23600
H 	H 	0.73940 0.92330 0.59703 0.02900
C 	C 	0.66900 0.14110 0.06493 0.21200
H 	H 	0.69410 0.18510 0.12363 -0.02000
F 	F 	0.51920 0.85050 0.95313 -0.34400
C 	C 	0.27650 0.95310 0.72013 0.36600
C 	C 	0.74240 0.98970 0.15293 -0.30000
H 	H 	0.74300 0.00660 0.04133 0.17200
C 	C 	0.41880 0.07670 0.81993 -0.31300
H 	H 	0.40280 0.07800 0.70843 0.17700
F 	F 	0.26140 0.89480 0.07413 -0.46900
C 	C 	0.67680 0.95250 0.24323 0.38000
C 	C 	0.41700 0.01060 0.07543 -0.31800
H 	H 	0.39990 0.96710 0.13573 0.29600
F 	F 	0.56090 0.96660 0.40823 -0.48100
C 	C 	0.33340 0.94050 0.81713 -0.47900
C 	C 	0.24780 0.98980 0.81123 -0.27500
H 	H 	0.26380 0.00620 0.92333 0.16300
C 	C 	0.60580 0.93870 0.14703 -0.47200
F 	F 	0.33580 0.85290 0.61843 -0.35900
F 	F 	0.33080 0.85040 0.01143 -0.35300
C 	C 	0.60580 0.07400 0.81353 0.25800
H 	H 	0.58810 0.07310 0.70263 0.02000
F 	F 	0.40520 0.96660 0.55713 -0.47800
C 	C 	0.59400 0.01090 0.88713 -0.33800
H 	H 	0.56840 0.96750 0.82623 0.30200
F 	F 	0.48640 0.91860 0.19563 -0.39200
C 	C 	0.25060 0.92630 0.55473 -0.29500
H 	H 	0.26800 0.90010 0.49473 0.28700
C 	C 	0.37640 0.91890 0.68533 0.96000
F 	F 	0.43220 0.91860 0.76963 -0.38900
C 	C 	0.67690 0.92730 0.40813 -0.32500
H 	H 	0.63330 0.90140 0.46803 0.29500
F 	F 	0.58580 0.81970 0.10103 -0.39500
C 	C 	0.29070 0.87640 0.94333 0.95000
C 	C 	0.61990 0.01050 0.05333 0.37600
C 	C 	0.39000 0.01000 0.90973 0.38200
C 	C 	0.58740 0.87630 0.01733 0.97400
F 	F 	0.23380 0.81930 0.86363 -0.38600
C 	C 	0.54240 0.91960 0.27933 0.95900
O 	O 	0.03980 0.90830 0.96507 -0.48800
O 	O 	0.79750 0.37320 0.63047 -0.49900
Zn	Zn	0.73376 0.36687 0.81575 1.22800
Zn	Zn	0.03347 0.96650 0.14879 1.22800
C 	C 	0.79050 0.34320 0.48767 0.46400
C 	C 	0.00930 0.12450 0.81017 0.45700
C 	C 	0.79060 0.44760 0.14527 0.47500
O 	O 	0.97230 0.06580 0.89407 -0.52000
C 	C 	0.01040 0.88540 0.81937 0.45200
O 	O 	0.79750 0.42510 0.00157 -0.50100
O 	O 	0.73270 0.42720 0.22757 -0.52400
O 	O 	0.97250 0.90720 0.73797 -0.51900
O 	O 	0.73200 0.30560 0.40457 -0.52100
O 	O 	0.04000 0.13150 0.66797 -0.49200
C 	C 	0.86060 0.50410 0.23267 -0.25000
C 	C 	0.02290 0.19330 0.89957 -0.21400
C 	C 	0.85990 0.35640 0.39587 -0.24200
C 	C 	0.02300 0.82930 0.73007 -0.22200
C 	C 	0.92360 0.58070 0.47867 -0.30900
H 	H 	0.92270 0.59630 0.59087 0.17700
C 	C 	0.85940 0.33060 0.23267 0.22100
H 	H 	0.81550 0.30480 0.17357 -0.02400
C 	C 	0.99840 0.80500 0.56207 0.19200
H 	H 	0.97390 0.82400 0.50067 -0.01500
F 	F 	0.14780 0.66460 0.67887 -0.34600
C 	C 	0.06080 0.25910 0.81357 0.21200
H 	H 	0.07830 0.25990 0.70247 0.03700
C 	C 	0.99780 0.19260 0.06797 0.17700
H 	H 	0.97300 0.14900 0.12887 -0.01000
C 	C 	0.92440 0.39370 0.48517 0.23700
H 	H 	0.92470 0.41030 0.59677 0.02600
F 	F 	0.10500 0.73850 0.22377 -0.49700
C 	C 	0.06020 0.80050 0.81817 0.23300
H 	H 	0.07670 0.81610 0.93037 0.03000
C 	C 	0.85890 0.52790 0.39827 0.21500
H 	H 	0.81490 0.50900 0.45697 -0.02100
F 	F 	0.14950 0.66870 0.28647 -0.34500
C 	C 	0.04690 0.32340 0.05347 0.36700
C 	C 	0.01030 0.75270 0.48627 -0.29400
H 	H 	0.99340 0.73640 0.37467 0.16900
C 	C 	0.92330 0.34210 0.15327 -0.31600
H 	H 	0.92200 0.32480 0.04177 0.17800
F 	F 	0.10520 0.36660 0.40747 -0.47000
C 	C 	0.04750 0.72430 0.57657 0.37700
C 	C 	0.98940 0.40640 0.40877 -0.32100
H 	H 	0.03290 0.43280 0.46907 0.29700
F 	F 	0.03340 0.59430 0.74157 -0.48100
C 	C 	0.05950 0.39290 0.15047 -0.48000
C 	C 	0.01020 0.25800 0.14457 -0.28100
H 	H 	0.99380 0.25760 0.25667 0.16600
C 	C 	0.06130 0.66710 0.48037 -0.47100
F 	F 	0.14710 0.48290 0.95177 -0.35800
F 	F 	0.14960 0.48040 0.34477 -0.35300
C 	C 	0.92600 0.53180 0.14687 0.26100
H 	H 	0.92690 0.51500 0.03597 0.01900
F 	F 	0.03340 0.43860 0.89047 -0.47800
C 	C 	0.98910 0.58310 0.22047 -0.34100
H 	H 	0.03250 0.60090 0.15957 0.30200
F 	F 	0.08140 0.56780 0.52897 -0.39200
C 	C 	0.07370 0.32430 0.88807 -0.29500
H 	H 	0.09990 0.36790 0.82807 0.28800
C 	C 	0.08110 0.45750 0.01867 0.95800
F 	F 	0.08140 0.51360 0.10297 -0.38900
C 	C 	0.07270 0.74960 0.74147 -0.32200
H 	H 	0.09860 0.73190 0.80137 0.29400
F 	F 	0.18030 0.76610 0.43437 -0.39500
C 	C 	0.12360 0.41430 0.27667 0.95200
C 	C 	0.98950 0.60940 0.38667 0.37800
C 	C 	0.99000 0.38000 0.24307 0.38600
C 	C 	0.12370 0.71110 0.35067 0.97600
F 	F 	0.18070 0.41450 0.19697 -0.38700
C 	C 	0.08040 0.62280 0.61267 0.95900
