data_crystal

_cell_length_a 9.42040
_cell_length_b 9.42040
_cell_length_c 16.44900
_cell_angle_alpha 88.51210
_cell_angle_beta  88.51210
_cell_angle_gamma 83.72220

_symmetry_space_group_name_	'P 1'
_symmetry_space_group_name_H-M	'P 1'

loop_
_symmetry_equiv_pos_as_xyz
  x,y,z

loop_
_atom_site_label
_atom_site_type_symbol
_atom_site_fract_x
_atom_site_fract_y
_atom_site_fract_z
_atom_site_charge
Cu	Cu	0.49409 0.13507 0.00207 0.74400
Cu	Cu	0.86493 0.50591 0.49793 0.80000
Cu	Cu	0.50591 0.86493 0.99793 0.81100
Cu	Cu	0.13507 0.49409 0.50207 0.75500
Cu	Cu	-0.00000 0.00000 -0.00000 0.63000
Cu	Cu	-0.00000 0.00000 0.50000 0.64100
Cu	Cu	0.63460 0.36540 0.25000 0.74000
Cu	Cu	0.36540 0.63460 0.75000 0.74300
Cu	Cu	0.59840 0.40160 0.75000 0.71800
Cu	Cu	0.40160 0.59840 0.25000 0.71400
C 	C 	0.68180 0.96200 0.98860 -0.30800
C 	C 	0.57050 0.28450 0.16070 -0.41200
C 	C 	0.51340 0.24120 0.90170 -0.30600
C 	C 	0.03800 0.31820 0.51140 -0.45000
C 	C 	0.71550 0.42950 0.33930 -0.38500
C 	C 	0.75880 0.48660 0.59830 -0.27000
C 	C 	0.31820 0.03800 0.01140 -0.46600
C 	C 	0.42950 0.71550 0.83930 -0.37800
C 	C 	0.48660 0.75880 0.09830 -0.28800
C 	C 	0.96200 0.68180 0.48860 -0.32200
C 	C 	0.28450 0.57050 0.66070 -0.40500
C 	C 	0.24120 0.51340 0.40170 -0.32700
N 	N 	0.80140 0.97580 0.98650 -0.19200
N 	N 	0.54160 0.22980 0.10110 -0.23900
N 	N 	0.53390 0.30550 0.84270 -0.28400
N 	N 	0.02420 0.19860 0.51350 -0.28300
N 	N 	0.77020 0.45840 0.39890 -0.21200
N 	N 	0.69450 0.46610 0.65730 -0.27900
N 	N 	0.19860 0.02420 0.01350 -0.28700
N 	N 	0.45840 0.77020 0.89890 -0.20700
N 	N 	0.46610 0.69450 0.15730 -0.27900
N 	N 	0.97580 0.80140 0.48650 -0.19900
N 	N 	0.22980 0.54160 0.60110 -0.23400
N 	N 	0.30550 0.53390 0.34270 -0.28400
