data_crystal

_cell_length_a 11.47000
_cell_length_b 7.78200
_cell_length_c 6.94500
_cell_angle_alpha 90.00000
_cell_angle_beta  105.29000
_cell_angle_gamma 90.00000

_symmetry_space_group_name_	'P 1'
_symmetry_space_group_name_H-M	'P 1'

loop_
_symmetry_equiv_pos_as_xyz
  x,y,z

loop_
_atom_site_label
_atom_site_type_symbol
_atom_site_fract_x
_atom_site_fract_y
_atom_site_fract_z
_atom_site_charge
N 	N 	0.94420 0.21990 0.19070 -0.16100
C 	C 	0.96350 0.32900 0.30710 -0.08600
N 	N 	0.05580 0.21990 0.80930 -0.17100
C 	C 	0.03650 0.32900 0.69290 -0.32900
N 	N 	0.05580 0.78010 0.80930 -0.14500
C 	C 	0.03650 0.67100 0.69290 -0.31300
N 	N 	0.94420 0.78010 0.19070 -0.13500
C 	C 	0.96350 0.67100 0.30710 -0.07200
Cd	Cd	-0.00000 0.00000 -0.00000 1.06600
Ni	Ni	0.00000 0.50000 0.50000 0.96300
N 	N 	0.19010 0.00000 0.21480 -0.28800
C 	C 	0.20780 0.00000 0.43190 -0.09300
C 	C 	0.33780 -0.00000 0.54990 -0.01100
C 	C 	0.35670 -0.00000 0.77410 -0.03600
C 	C 	0.48780 0.00000 0.88930 0.11600
N 	N 	0.80990 -0.00000 0.78520 -0.15300
C 	C 	0.79220 0.00000 0.56810 0.04000
C 	C 	0.66220 0.00000 0.45010 -0.01700
C 	C 	0.64330 -0.00000 0.22590 -0.02900
C 	C 	0.51220 -0.00000 0.11070 -0.14600
