data_crystal

_cell_length_a 8.01400
_cell_length_b 9.74000
_cell_length_c 7.74400
_cell_angle_alpha 102.32000
_cell_angle_beta  93.38000
_cell_angle_gamma 75.90000

_symmetry_space_group_name_	'P 1'
_symmetry_space_group_name_H-M	'P 1'

loop_
_symmetry_equiv_pos_as_xyz
  x,y,z

loop_
_atom_site_label
_atom_site_type_symbol
_atom_site_fract_x
_atom_site_fract_y
_atom_site_fract_z
_atom_site_charge
Mn	Mn	0.03196 0.25126 0.15892 1.30400
Mn	Mn	0.30922 0.11955 0.81271 1.28900
P 	P 	0.73268 0.08984 0.92682 0.52900
O 	O 	0.15950 0.33910 0.97170 -0.46500
O 	O 	0.80610 0.21060 0.03750 -0.39100
O 	O 	0.10600 0.51440 0.81650 -0.34200
O 	O 	0.94540 0.21990 0.41040 -0.33300
O 	O 	0.24030 0.28300 0.34660 -0.35600
O 	O 	0.80470 0.94590 0.98480 -0.56600
O 	O 	0.06050 0.15370 0.65930 -0.33900
O 	O 	0.36010 0.20710 0.58670 -0.35200
O 	O 	0.53940 0.13350 0.93020 -0.44600
O 	O 	0.78830 0.06670 0.72750 -0.24100
C 	C 	0.06530 0.19920 0.52040 0.22400
C 	C 	0.23710 0.23330 0.48170 0.22900
C 	C 	0.07660 0.45820 0.93750 0.25600
Mn	Mn	0.96804 0.74874 0.84108 1.30400
Mn	Mn	0.69078 0.88045 0.18729 1.28900
P 	P 	0.26732 0.91016 0.07318 0.52900
O 	O 	0.84050 0.66090 0.02830 -0.46500
O 	O 	0.19390 0.78940 0.96250 -0.39100
O 	O 	0.89400 0.48560 0.18350 -0.34200
O 	O 	0.05460 0.78010 0.58960 -0.33300
O 	O 	0.75970 0.71700 0.65340 -0.35600
O 	O 	0.19530 0.05410 0.01520 -0.56600
O 	O 	0.93950 0.84630 0.34070 -0.33900
O 	O 	0.63990 0.79290 0.41330 -0.35200
O 	O 	0.46060 0.86650 0.06980 -0.44600
O 	O 	0.21170 0.93330 0.27250 -0.24100
C 	C 	0.93470 0.80080 0.47960 0.22400
C 	C 	0.76290 0.76670 0.51830 0.22900
C 	C 	0.92340 0.54180 0.06250 0.25600
