data_crystal

_cell_length_a 30.41800
_cell_length_b 16.30200
_cell_length_c 21.78000
_cell_angle_alpha 90.00000
_cell_angle_beta  133.83000
_cell_angle_gamma 90.00000

_symmetry_space_group_name_	'P 1'
_symmetry_space_group_name_H-M	'P 1'

loop_
_symmetry_equiv_pos_as_xyz
  x,y,z

loop_
_atom_site_label
_atom_site_type_symbol
_atom_site_fract_x
_atom_site_fract_y
_atom_site_fract_z
_atom_site_charge
C 	C 	0.31110 0.93280 0.88240 -0.07300
C 	C 	0.28190 0.86170 0.87030 -0.00100
H 	H 	0.27240 0.82200 0.83190 0.02200
C 	C 	0.26730 0.85120 0.91750 -0.08600
H 	H 	0.24850 0.80310 0.91230 0.04300
C 	C 	0.28080 0.91300 0.97300 0.00800
H 	H 	0.26900 0.90870 0.00240 0.01300
C 	C 	0.31220 0.98040 0.98240 -0.08500
C 	C 	0.33020 0.95450 0.83710 0.38500
C 	C 	0.33630 0.05050 0.04530 0.42500
C 	C 	0.06850 0.24200 0.63070 -0.09000
C 	C 	0.04750 0.17680 0.57450 0.00300
H 	H 	0.00750 0.17380 0.52200 0.01300
C 	C 	0.09080 0.11590 0.60210 -0.07500
H 	H 	0.07970 0.07270 0.56580 0.04200
C 	C 	0.14960 0.11880 0.68210 -0.01100
H 	H 	0.17700 0.07620 0.70150 0.02900
C 	C 	0.16640 0.18670 0.73230 -0.05300
C 	C 	0.02970 0.31500 0.60630 0.42400
C 	C 	0.23230 0.20110 0.81860 0.40200
N 	N 	0.32610 0.99210 0.93620 -0.18200
N 	N 	0.12660 0.24600 0.70800 -0.16800
O 	O 	0.04870 0.37250 0.65940 -0.25800
O 	O 	0.44220 0.87800 0.85870 -0.23700
O 	O 	0.23960 0.26690 0.85380 -0.45100
O 	O 	0.36070 0.10820 0.04390 -0.49200
O 	O 	0.35740 0.02010 0.85350 -0.50100
O 	O 	0.27180 0.14950 0.84310 -0.47100
O 	O 	0.97370 0.30970 0.54480 -0.52200
O 	O 	0.32490 0.04610 0.09060 -0.48300
O 	O 	0.31690 0.90240 0.78220 -0.46400
O 	O 	0.17140 0.27680 0.89490 -0.18400
O 	O 	0.37100 0.21600 0.14600 -0.20900
Eu	Eu	0.37898 0.11961 0.95473 1.60500
Eu	Eu	0.15985 0.37126 0.80110 1.68300
C 	C 	0.81110 0.43280 0.88240 -0.07100
C 	C 	0.78190 0.36170 0.87030 -0.00300
H 	H 	0.77240 0.32200 0.83190 0.02300
C 	C 	0.76730 0.35120 0.91750 -0.08200
H 	H 	0.74850 0.30310 0.91230 0.04100
C 	C 	0.78080 0.41300 0.97300 0.00100
H 	H 	0.76900 0.40870 0.00240 0.01800
C 	C 	0.81220 0.48040 0.98240 -0.08400
C 	C 	0.83020 0.45450 0.83710 0.38300
C 	C 	0.83630 0.55050 0.04530 0.42600
C 	C 	0.56850 0.74200 0.63070 -0.09000
C 	C 	0.54750 0.67680 0.57450 0.00300
H 	H 	0.50750 0.67380 0.52200 0.01400
C 	C 	0.59080 0.61590 0.60210 -0.07500
H 	H 	0.57970 0.57270 0.56580 0.04200
C 	C 	0.64960 0.61880 0.68210 -0.01100
H 	H 	0.67700 0.57620 0.70150 0.02900
C 	C 	0.66640 0.68670 0.73230 -0.05300
C 	C 	0.52970 0.81500 0.60630 0.42400
C 	C 	0.73230 0.70110 0.81860 0.40200
N 	N 	0.82610 0.49210 0.93620 -0.18300
N 	N 	0.62660 0.74600 0.70800 -0.16800
O 	O 	0.54870 0.87250 0.65940 -0.25800
O 	O 	0.94220 0.37800 0.85870 -0.23600
O 	O 	0.73960 0.76690 0.85380 -0.45100
O 	O 	0.86070 0.60820 0.04390 -0.49100
O 	O 	0.85740 0.52010 0.85350 -0.50000
O 	O 	0.77180 0.64950 0.84310 -0.47100
O 	O 	0.47370 0.80970 0.54480 -0.52200
O 	O 	0.82490 0.54610 0.09060 -0.48300
O 	O 	0.81690 0.40240 0.78220 -0.46400
O 	O 	0.67140 0.77680 0.89490 -0.18400
O 	O 	0.87100 0.71600 0.14600 -0.20900
Eu	Eu	0.87898 0.61961 0.95473 1.60300
Eu	Eu	0.65985 0.87126 0.80110 1.68300
C 	C 	0.68890 0.93280 0.61760 -0.07200
C 	C 	0.71810 0.86170 0.62970 -0.00200
H 	H 	0.72760 0.82200 0.66810 0.02300
C 	C 	0.73270 0.85120 0.58250 -0.08400
H 	H 	0.75150 0.80310 0.58770 0.04100
C 	C 	0.71920 0.91300 0.52700 0.00400
H 	H 	0.73100 0.90870 0.49760 0.01600
C 	C 	0.68780 0.98040 0.51760 -0.08400
C 	C 	0.66980 0.95450 0.66290 0.38400
C 	C 	0.66370 0.05050 0.45470 0.42500
C 	C 	0.93150 0.24200 0.86930 -0.08900
C 	C 	0.95250 0.17680 0.92550 0.00200
H 	H 	0.99250 0.17380 0.97800 0.01300
C 	C 	0.90920 0.11590 0.89790 -0.07500
H 	H 	0.92030 0.07270 0.93420 0.04100
C 	C 	0.85040 0.11880 0.81790 -0.01100
H 	H 	0.82300 0.07620 0.79850 0.02900
C 	C 	0.83360 0.18670 0.76770 -0.05300
C 	C 	0.97030 0.31500 0.89370 0.42100
C 	C 	0.76770 0.20110 0.68140 0.40200
N 	N 	0.67390 0.99210 0.56380 -0.18300
N 	N 	0.87340 0.24600 0.79200 -0.16800
O 	O 	0.95130 0.37250 0.84060 -0.25900
O 	O 	0.55780 0.87800 0.64130 -0.23800
O 	O 	0.76040 0.26690 0.64620 -0.45100
O 	O 	0.63930 0.10820 0.45610 -0.49200
O 	O 	0.64260 0.02010 0.64650 -0.50100
O 	O 	0.72820 0.14950 0.65690 -0.47100
O 	O 	0.02630 0.30970 0.95520 -0.51900
O 	O 	0.67510 0.04610 0.40940 -0.48400
O 	O 	0.68310 0.90240 0.71780 -0.46400
O 	O 	0.82860 0.27680 0.60510 -0.18400
O 	O 	0.62900 0.21600 0.35400 -0.20900
Eu	Eu	0.62102 0.11961 0.54527 1.60500
Eu	Eu	0.84015 0.37126 0.69890 1.68200
C 	C 	0.18890 0.43280 0.61760 -0.07200
C 	C 	0.21810 0.36170 0.62970 -0.00200
H 	H 	0.22760 0.32200 0.66810 0.02300
C 	C 	0.23270 0.35120 0.58250 -0.08400
H 	H 	0.25150 0.30310 0.58770 0.04100
C 	C 	0.21920 0.41300 0.52700 0.00400
H 	H 	0.23100 0.40870 0.49760 0.01600
C 	C 	0.18780 0.48040 0.51760 -0.08400
C 	C 	0.16980 0.45450 0.66290 0.38300
C 	C 	0.16370 0.55050 0.45470 0.42500
C 	C 	0.43150 0.74200 0.86930 -0.08900
C 	C 	0.45250 0.67680 0.92550 0.00300
H 	H 	0.49250 0.67380 0.97800 0.01400
C 	C 	0.40920 0.61590 0.89790 -0.07500
H 	H 	0.42030 0.57270 0.93420 0.04200
C 	C 	0.35040 0.61880 0.81790 -0.01100
H 	H 	0.32300 0.57620 0.79850 0.02900
C 	C 	0.33360 0.68670 0.76770 -0.05300
C 	C 	0.47030 0.81500 0.89370 0.42400
C 	C 	0.26770 0.70110 0.68140 0.40200
N 	N 	0.17390 0.49210 0.56380 -0.18300
N 	N 	0.37340 0.74600 0.79200 -0.16800
O 	O 	0.45130 0.87250 0.84060 -0.25800
O 	O 	0.05780 0.37800 0.64130 -0.23800
O 	O 	0.26040 0.76690 0.64620 -0.45100
O 	O 	0.13930 0.60820 0.45610 -0.49200
O 	O 	0.14260 0.52010 0.64650 -0.50000
O 	O 	0.22820 0.64950 0.65690 -0.47100
O 	O 	0.52630 0.80970 0.95520 -0.52100
O 	O 	0.17510 0.54610 0.40940 -0.48400
O 	O 	0.18310 0.40240 0.71780 -0.46400
O 	O 	0.32860 0.77680 0.60510 -0.18400
O 	O 	0.12900 0.71600 0.35400 -0.21000
Eu	Eu	0.12102 0.61961 0.54527 1.60500
Eu	Eu	0.34015 0.87126 0.69890 1.68300
C 	C 	0.68890 0.06720 0.11760 -0.07200
C 	C 	0.71810 0.13830 0.12970 0.00000
H 	H 	0.72760 0.17800 0.16810 0.02200
C 	C 	0.73270 0.14880 0.08250 -0.08600
H 	H 	0.75150 0.19690 0.08770 0.04300
C 	C 	0.71920 0.08700 0.02700 0.00800
H 	H 	0.73100 0.09130 0.99760 0.01300
C 	C 	0.68780 0.01960 0.01760 -0.08500
C 	C 	0.66980 0.04550 0.16290 0.38500
C 	C 	0.66370 0.94950 0.95470 0.42500
C 	C 	0.93150 0.75800 0.36930 -0.09000
C 	C 	0.95250 0.82320 0.42550 0.00300
H 	H 	0.99250 0.82620 0.47800 0.01300
C 	C 	0.90920 0.88410 0.39790 -0.07500
H 	H 	0.92030 0.92730 0.43420 0.04200
C 	C 	0.85040 0.88120 0.31790 -0.01100
H 	H 	0.82300 0.92380 0.29850 0.02900
C 	C 	0.83360 0.81330 0.26770 -0.05300
C 	C 	0.97030 0.68500 0.39370 0.42400
C 	C 	0.76770 0.79890 0.18140 0.40200
N 	N 	0.67390 0.00790 0.06380 -0.18200
N 	N 	0.87340 0.75400 0.29200 -0.16800
O 	O 	0.95130 0.62750 0.34060 -0.25800
O 	O 	0.55780 0.12200 0.14130 -0.23700
O 	O 	0.76040 0.73310 0.14620 -0.45100
O 	O 	0.63930 0.89180 0.95610 -0.49200
O 	O 	0.64260 0.97990 0.14650 -0.50100
O 	O 	0.72820 0.85050 0.15690 -0.47100
O 	O 	0.02630 0.69030 0.45520 -0.52200
O 	O 	0.67510 0.95390 0.90940 -0.48300
O 	O 	0.68310 0.09760 0.21780 -0.46400
O 	O 	0.82860 0.72320 0.10510 -0.18400
O 	O 	0.62900 0.78400 0.85400 -0.20900
Eu	Eu	0.62102 0.88039 0.04527 1.60500
Eu	Eu	0.84015 0.62874 0.19890 1.68300
C 	C 	0.18890 0.56720 0.11760 -0.07100
C 	C 	0.21810 0.63830 0.12970 -0.00300
H 	H 	0.22760 0.67800 0.16810 0.02300
C 	C 	0.23270 0.64880 0.08250 -0.08200
H 	H 	0.25150 0.69690 0.08770 0.04100
C 	C 	0.21920 0.58700 0.02700 0.00100
H 	H 	0.23100 0.59130 0.99760 0.01800
C 	C 	0.18780 0.51960 0.01760 -0.08400
C 	C 	0.16980 0.54550 0.16290 0.38300
C 	C 	0.16370 0.44950 0.95470 0.42600
C 	C 	0.43150 0.25800 0.36930 -0.09000
C 	C 	0.45250 0.32320 0.42550 0.00300
H 	H 	0.49250 0.32620 0.47800 0.01400
C 	C 	0.40920 0.38410 0.39790 -0.07500
H 	H 	0.42030 0.42730 0.43420 0.04200
C 	C 	0.35040 0.38120 0.31790 -0.01100
H 	H 	0.32300 0.42380 0.29850 0.02900
C 	C 	0.33360 0.31330 0.26770 -0.05300
C 	C 	0.47030 0.18500 0.39370 0.42400
C 	C 	0.26770 0.29890 0.18140 0.40200
N 	N 	0.17390 0.50790 0.06380 -0.18300
N 	N 	0.37340 0.25400 0.29200 -0.16800
O 	O 	0.45130 0.12750 0.34060 -0.25800
O 	O 	0.05780 0.62200 0.14130 -0.23600
O 	O 	0.26040 0.23310 0.14620 -0.45100
O 	O 	0.13930 0.39180 0.95610 -0.49100
O 	O 	0.14260 0.47990 0.14650 -0.50000
O 	O 	0.22820 0.35050 0.15690 -0.47100
O 	O 	0.52630 0.19030 0.45520 -0.52200
O 	O 	0.17510 0.45390 0.90940 -0.48300
O 	O 	0.18310 0.59760 0.21780 -0.46400
O 	O 	0.32860 0.22320 0.10510 -0.18400
O 	O 	0.12900 0.28400 0.85400 -0.20900
Eu	Eu	0.12102 0.38039 0.04527 1.60300
Eu	Eu	0.34015 0.12874 0.19890 1.68300
C 	C 	0.31110 0.06720 0.38240 -0.07200
C 	C 	0.28190 0.13830 0.37030 -0.00200
H 	H 	0.27240 0.17800 0.33190 0.02300
C 	C 	0.26730 0.14880 0.41750 -0.08400
H 	H 	0.24850 0.19690 0.41230 0.04100
C 	C 	0.28080 0.08700 0.47300 0.00400
H 	H 	0.26900 0.09130 0.50240 0.01600
C 	C 	0.31220 0.01960 0.48240 -0.08400
C 	C 	0.33020 0.04550 0.33710 0.38400
C 	C 	0.33630 0.94950 0.54530 0.42500
C 	C 	0.06850 0.75800 0.13070 -0.08900
C 	C 	0.04750 0.82320 0.07450 0.00200
H 	H 	0.00750 0.82620 0.02200 0.01300
C 	C 	0.09080 0.88410 0.10210 -0.07500
H 	H 	0.07970 0.92730 0.06580 0.04100
C 	C 	0.14960 0.88120 0.18210 -0.01100
H 	H 	0.17700 0.92380 0.20150 0.02900
C 	C 	0.16640 0.81330 0.23230 -0.05300
C 	C 	0.02970 0.68500 0.10630 0.42100
C 	C 	0.23230 0.79890 0.31860 0.40200
N 	N 	0.32610 0.00790 0.43620 -0.18300
N 	N 	0.12660 0.75400 0.20800 -0.16800
O 	O 	0.04870 0.62750 0.15940 -0.25900
O 	O 	0.44220 0.12200 0.35870 -0.23800
O 	O 	0.23960 0.73310 0.35380 -0.45100
O 	O 	0.36070 0.89180 0.54390 -0.49200
O 	O 	0.35740 0.97990 0.35350 -0.50100
O 	O 	0.27180 0.85050 0.34310 -0.47100
O 	O 	0.97370 0.69030 0.04480 -0.51900
O 	O 	0.32490 0.95390 0.59060 -0.48400
O 	O 	0.31690 0.09760 0.28220 -0.46400
O 	O 	0.17140 0.72320 0.39490 -0.18400
O 	O 	0.37100 0.78400 0.64600 -0.20900
Eu	Eu	0.37898 0.88039 0.45473 1.60500
Eu	Eu	0.15985 0.62874 0.30110 1.68200
C 	C 	0.81110 0.56720 0.38240 -0.07200
C 	C 	0.78190 0.63830 0.37030 -0.00200
H 	H 	0.77240 0.67800 0.33190 0.02300
C 	C 	0.76730 0.64880 0.41750 -0.08400
H 	H 	0.74850 0.69690 0.41230 0.04100
C 	C 	0.78080 0.58700 0.47300 0.00400
H 	H 	0.76900 0.59130 0.50240 0.01600
C 	C 	0.81220 0.51960 0.48240 -0.08400
C 	C 	0.83020 0.54550 0.33710 0.38300
C 	C 	0.83630 0.44950 0.54530 0.42500
C 	C 	0.56850 0.25800 0.13070 -0.08900
C 	C 	0.54750 0.32320 0.07450 0.00300
H 	H 	0.50750 0.32620 0.02200 0.01400
C 	C 	0.59080 0.38410 0.10210 -0.07500
H 	H 	0.57970 0.42730 0.06580 0.04200
C 	C 	0.64960 0.38120 0.18210 -0.01100
H 	H 	0.67700 0.42380 0.20150 0.02900
C 	C 	0.66640 0.31330 0.23230 -0.05300
C 	C 	0.52970 0.18500 0.10630 0.42400
C 	C 	0.73230 0.29890 0.31860 0.40200
N 	N 	0.82610 0.50790 0.43620 -0.18300
N 	N 	0.62660 0.25400 0.20800 -0.16800
O 	O 	0.54870 0.12750 0.15940 -0.25800
O 	O 	0.94220 0.62200 0.35870 -0.23800
O 	O 	0.73960 0.23310 0.35380 -0.45100
O 	O 	0.86070 0.39180 0.54390 -0.49200
O 	O 	0.85740 0.47990 0.35350 -0.50000
O 	O 	0.77180 0.35050 0.34310 -0.47100
O 	O 	0.47370 0.19030 0.04480 -0.52100
O 	O 	0.82490 0.45390 0.59060 -0.48400
O 	O 	0.81690 0.59760 0.28220 -0.46400
O 	O 	0.67140 0.22320 0.39490 -0.18400
O 	O 	0.87100 0.28400 0.64600 -0.21000
Eu	Eu	0.87898 0.38039 0.45473 1.60500
Eu	Eu	0.65985 0.12874 0.30110 1.68300
