data_crystal

_cell_length_a 19.21000
_cell_length_b 19.21000
_cell_length_c 6.91580
_cell_angle_alpha 90.00000
_cell_angle_beta  90.00000
_cell_angle_gamma 90.00000

_symmetry_space_group_name_	'P 1'
_symmetry_space_group_name_H-M	'P 1'

loop_
_symmetry_equiv_pos_as_xyz
  x,y,z

loop_
_atom_site_label
_atom_site_type_symbol
_atom_site_fract_x
_atom_site_fract_y
_atom_site_fract_z
_atom_site_charge
O 	O 	0.63198 0.19197 0.73350 -0.50700
O 	O 	0.53227 0.43386 0.26150 -0.42000
O 	O 	0.48410 0.38177 0.51240 -0.41500
C 	C 	0.55650 0.31241 0.07240 0.06500
H 	H 	0.56590 0.35510 0.00830 0.04300
C 	C 	0.52472 0.31270 0.25460 -0.15700
C 	C 	0.51203 0.38111 0.35080 0.37300
O 	O 	0.86802 0.30803 0.73350 -0.50700
O 	O 	0.96773 0.06614 0.26150 -0.42000
O 	O 	0.01590 0.11823 0.51240 -0.41600
C 	C 	0.94350 0.18759 0.07240 0.06300
H 	H 	0.93410 0.14490 0.00830 0.04200
C 	C 	0.97528 0.18730 0.25460 -0.15800
C 	C 	0.98797 0.11889 0.35080 0.37400
O 	O 	0.30803 0.63198 0.73350 -0.50800
O 	O 	0.06614 0.53227 0.26150 -0.42000
O 	O 	0.11823 0.48410 0.51240 -0.41600
C 	C 	0.18759 0.55650 0.07240 0.06400
H 	H 	0.14490 0.56590 0.00830 0.04200
C 	C 	0.18730 0.52472 0.25460 -0.15800
C 	C 	0.11889 0.51203 0.35080 0.37300
O 	O 	0.19197 0.86802 0.73350 -0.50800
O 	O 	0.43386 0.96773 0.26150 -0.42100
O 	O 	0.38177 0.01590 0.51240 -0.41600
C 	C 	0.31241 0.94350 0.07240 0.06300
H 	H 	0.35510 0.93410 0.00830 0.04200
C 	C 	0.31270 0.97528 0.25460 -0.15800
C 	C 	0.38111 0.98797 0.35080 0.37300
O 	O 	0.36802 0.69197 0.26650 -0.50800
O 	O 	0.46773 0.93386 0.73850 -0.42000
O 	O 	0.51590 0.88177 0.48760 -0.41600
C 	C 	0.44350 0.81241 0.92760 0.06400
H 	H 	0.43410 0.85510 0.99170 0.04200
C 	C 	0.47528 0.81270 0.74540 -0.15800
C 	C 	0.48797 0.88111 0.64920 0.37300
O 	O 	0.13198 0.80803 0.26650 -0.50800
O 	O 	0.03227 0.56614 0.73850 -0.42100
O 	O 	0.98410 0.61823 0.48760 -0.41600
C 	C 	0.05650 0.68759 0.92760 0.06300
H 	H 	0.06590 0.64490 0.99170 0.04200
C 	C 	0.02472 0.68730 0.74540 -0.15800
C 	C 	0.01203 0.61889 0.64920 0.37300
O 	O 	0.69197 0.13198 0.26650 -0.50700
O 	O 	0.93386 0.03227 0.73850 -0.42000
O 	O 	0.88177 0.98410 0.48760 -0.41600
C 	C 	0.81241 0.05650 0.92760 0.06300
H 	H 	0.85510 0.06590 0.99170 0.04200
C 	C 	0.81270 0.02472 0.74540 -0.15800
C 	C 	0.88111 0.01203 0.64920 0.37400
O 	O 	0.80803 0.36802 0.26650 -0.50800
O 	O 	0.56614 0.46773 0.73850 -0.42100
O 	O 	0.61823 0.51590 0.48760 -0.41600
C 	C 	0.68759 0.44350 0.92760 0.06400
H 	H 	0.64490 0.43410 0.99170 0.04200
C 	C 	0.68730 0.47528 0.74540 -0.15800
C 	C 	0.61889 0.48797 0.64920 0.37300
O 	O 	0.36802 0.80803 0.26650 -0.50800
O 	O 	0.46773 0.56614 0.73850 -0.42100
O 	O 	0.51590 0.61823 0.48760 -0.41600
C 	C 	0.44350 0.68759 0.92760 0.06400
H 	H 	0.43410 0.64490 0.99170 0.04200
C 	C 	0.47528 0.68730 0.74540 -0.15800
C 	C 	0.48797 0.61889 0.64920 0.37300
O 	O 	0.13198 0.69197 0.26650 -0.50700
O 	O 	0.03227 0.93386 0.73850 -0.42000
O 	O 	0.98410 0.88177 0.48760 -0.41600
C 	C 	0.05650 0.81241 0.92760 0.06300
H 	H 	0.06590 0.85510 0.99170 0.04200
C 	C 	0.02472 0.81270 0.74540 -0.15800
C 	C 	0.01203 0.88111 0.64920 0.37400
O 	O 	0.69197 0.36802 0.26650 -0.50800
O 	O 	0.93386 0.46773 0.73850 -0.42000
O 	O 	0.88177 0.51590 0.48760 -0.41600
C 	C 	0.81241 0.44350 0.92760 0.06400
H 	H 	0.85510 0.43410 0.99170 0.04200
C 	C 	0.81270 0.47528 0.74540 -0.15800
C 	C 	0.88111 0.48797 0.64920 0.37300
O 	O 	0.80803 0.13198 0.26650 -0.50800
O 	O 	0.56614 0.03227 0.73850 -0.42100
O 	O 	0.61823 0.98410 0.48760 -0.41600
C 	C 	0.68759 0.05650 0.92760 0.06300
H 	H 	0.64490 0.06590 0.99170 0.04200
C 	C 	0.68730 0.02472 0.74540 -0.15800
C 	C 	0.61889 0.01203 0.64920 0.37300
O 	O 	0.63198 0.30803 0.73350 -0.50800
O 	O 	0.53227 0.06614 0.26150 -0.42000
O 	O 	0.48410 0.11823 0.51240 -0.41600
C 	C 	0.55650 0.18759 0.07240 0.06400
H 	H 	0.56590 0.14490 0.00830 0.04200
C 	C 	0.52472 0.18730 0.25460 -0.15800
C 	C 	0.51203 0.11889 0.35080 0.37300
O 	O 	0.86802 0.19197 0.73350 -0.50800
O 	O 	0.96773 0.43386 0.26150 -0.42100
O 	O 	0.01590 0.38177 0.51240 -0.41600
C 	C 	0.94350 0.31241 0.07240 0.06300
H 	H 	0.93410 0.35510 0.00830 0.04200
C 	C 	0.97528 0.31270 0.25460 -0.15800
C 	C 	0.98797 0.38111 0.35080 0.37300
O 	O 	0.30803 0.86802 0.73350 -0.50700
O 	O 	0.06614 0.96773 0.26150 -0.42000
O 	O 	0.11823 0.01590 0.51240 -0.41600
C 	C 	0.18759 0.94350 0.07240 0.06300
H 	H 	0.14490 0.93410 0.00830 0.04200
C 	C 	0.18730 0.97528 0.25460 -0.15800
C 	C 	0.11889 0.98797 0.35080 0.37400
O 	O 	0.19197 0.63198 0.73350 -0.50800
O 	O 	0.43386 0.53227 0.26150 -0.42100
O 	O 	0.38177 0.48410 0.51240 -0.41600
C 	C 	0.31241 0.55650 0.07240 0.06400
H 	H 	0.35510 0.56590 0.00830 0.04200
C 	C 	0.31270 0.52472 0.25460 -0.15800
C 	C 	0.38111 0.51203 0.35080 0.37300
Cu	Cu	0.67264 0.17264 0.50000 0.80800
Cu	Cu	0.82736 0.32736 0.50000 0.80800
Cu	Cu	0.32736 0.67264 0.50000 0.80800
Cu	Cu	0.17264 0.82736 0.50000 0.80800
Cu	Cu	0.32736 0.82736 0.50000 0.80800
Cu	Cu	0.17264 0.67264 0.50000 0.80800
Cu	Cu	0.67264 0.32736 0.50000 0.80800
Cu	Cu	0.82736 0.17264 0.50000 0.80800
Cu	Cu	0.53003 0.53003 0.35189 0.91000
Cu	Cu	0.96997 0.96997 0.35189 0.90900
Cu	Cu	0.96997 0.53003 0.35189 0.91000
Cu	Cu	0.53003 0.96997 0.35189 0.91000
Cu	Cu	0.46997 0.03003 0.64811 0.91000
Cu	Cu	0.03003 0.46997 0.64811 0.91000
Cu	Cu	0.03003 0.03003 0.64811 0.90900
Cu	Cu	0.46997 0.46997 0.64811 0.91000
C 	C 	0.61530 0.25000 0.80180 0.40100
C 	C 	0.57420 0.25000 0.98550 -0.15400
C 	C 	0.50920 0.25000 0.34680 0.04400
H 	H 	0.48840 0.25000 0.47140 0.03600
C 	C 	0.88470 0.25000 0.80180 0.40100
C 	C 	0.92580 0.25000 0.98550 -0.15200
C 	C 	0.99080 0.25000 0.34680 0.04500
H 	H 	0.01160 0.25000 0.47140 0.03600
C 	C 	0.25000 0.61530 0.80180 0.40100
C 	C 	0.25000 0.57420 0.98550 -0.15400
C 	C 	0.25000 0.50920 0.34680 0.04400
H 	H 	0.25000 0.48840 0.47140 0.03600
C 	C 	0.25000 0.88470 0.80180 0.40100
C 	C 	0.25000 0.92580 0.98550 -0.15200
C 	C 	0.25000 0.99080 0.34680 0.04500
H 	H 	0.25000 0.01160 0.47140 0.03600
C 	C 	0.38470 0.75000 0.19820 0.40100
C 	C 	0.42580 0.75000 0.01450 -0.15400
C 	C 	0.49080 0.75000 0.65320 0.04400
H 	H 	0.51160 0.75000 0.52860 0.03600
C 	C 	0.11530 0.75000 0.19820 0.40100
C 	C 	0.07420 0.75000 0.01450 -0.15200
C 	C 	0.00920 0.75000 0.65320 0.04500
H 	H 	0.98840 0.75000 0.52860 0.03600
C 	C 	0.75000 0.11530 0.19820 0.40100
C 	C 	0.75000 0.07420 0.01450 -0.15200
C 	C 	0.75000 0.00920 0.65320 0.04500
H 	H 	0.75000 0.98840 0.52860 0.03600
C 	C 	0.75000 0.38470 0.19820 0.40100
C 	C 	0.75000 0.42580 0.01450 -0.15400
C 	C 	0.75000 0.49080 0.65320 0.04400
H 	H 	0.75000 0.51160 0.52860 0.03600
