data_crystal

_cell_length_a 7.29930
_cell_length_b 19.36150
_cell_length_c 26.09840
_cell_angle_alpha 90.00000
_cell_angle_beta  90.00000
_cell_angle_gamma 90.00000

_symmetry_space_group_name_	'P 1'
_symmetry_space_group_name_H-M	'P 1'

loop_
_symmetry_equiv_pos_as_xyz
  x,y,z

loop_
_atom_site_label
_atom_site_type_symbol
_atom_site_fract_x
_atom_site_fract_y
_atom_site_fract_z
_atom_site_charge
Ba	Ba	0.12795 0.69239 0.98982 1.84200
O 	O 	0.55130 0.12890 0.40570 -0.39200
O 	O 	0.67020 0.23200 0.41890 -0.53100
O 	O 	0.00380 0.82630 0.99680 -0.64400
O 	O 	0.27670 0.81620 0.03270 -0.58500
O 	O 	0.07360 0.55070 0.00360 -0.34800
O 	O 	0.92650 0.50100 0.93930 -0.22300
C 	C 	0.64600 0.18080 0.39130 0.38600
C 	C 	0.71430 0.18190 0.33750 -0.15500
C 	C 	0.79830 0.23910 0.31820 0.07500
H 	H 	0.81560 0.27720 0.33930 -0.00700
C 	C 	0.85910 0.24170 0.26750 -0.13500
H 	H 	0.91880 0.28100 0.25560 0.07900
C 	C 	0.83160 0.18630 0.23460 0.04900
C 	C 	0.73980 0.12790 0.25380 -0.12400
H 	H 	0.72180 0.08990 0.23250 0.06600
C 	C 	0.67640 0.12550 0.30320 0.04800
H 	H 	0.60910 0.08770 0.31440 0.02400
C 	C 	0.00350 0.49960 0.98480 0.19100
C 	C 	0.98960 0.43310 0.01300 0.10400
C 	C 	0.93010 0.37200 0.99000 -0.23700
H 	H 	0.89390 0.37240 0.95580 0.10700
C 	C 	0.92440 0.31160 0.01700 0.10100
H 	H 	0.88960 0.27110 0.00060 0.00300
C 	C 	0.97080 0.30980 0.06990 -0.07500
C 	C 	0.02790 0.37140 0.09240 0.02300
H 	H 	0.05920 0.37170 0.12700 0.02200
C 	C 	0.03930 0.43220 0.06450 -0.12000
H 	H 	0.08010 0.47240 0.08020 0.07100
C 	C 	0.95430 0.24560 0.10040 0.09700
C 	C 	0.00190 0.18300 0.07780 -0.12500
H 	H 	0.02960 0.18140 0.04300 0.08000
C 	C 	0.00830 0.12220 0.10710 0.02400
C 	C 	0.95440 0.12560 0.15800 -0.10700
H 	H 	0.95360 0.08530 0.17740 0.06000
C 	C 	0.90190 0.18710 0.18090 0.04500
C 	C 	0.90380 0.24700 0.15110 -0.13600
H 	H 	0.87010 0.28880 0.16590 0.08100
C 	C 	0.05430 0.05480 0.08290 0.11700
C 	C 	0.15800 0.00550 0.11050 -0.20600
H 	H 	0.20540 0.01700 0.14250 0.09300
C 	C 	0.18950 0.94060 0.09040 0.15200
H 	H 	0.26070 0.90900 0.10840 -0.05200
C 	C 	0.01990 0.97120 0.01610 0.25200
H 	H 	0.97260 0.95960 0.98410 -0.09800
C 	C 	0.99230 0.03710 0.03480 -0.24000
H 	H 	0.93150 0.06970 0.01490 0.12800
C 	C 	0.11500 0.92240 0.04320 -0.30100
C 	C 	0.13390 0.85020 0.02390 0.51300
Ba	Ba	0.87205 0.30761 0.48982 1.92100
O 	O 	0.44870 0.87110 0.90570 -0.39300
O 	O 	0.32980 0.76800 0.91890 -0.52300
O 	O 	0.99620 0.17370 0.49680 -0.61200
O 	O 	0.72330 0.18380 0.53270 -0.60100
O 	O 	0.92640 0.44930 0.50360 -0.43600
O 	O 	0.07350 0.49900 0.43930 -0.24600
C 	C 	0.35400 0.81920 0.89130 0.38400
C 	C 	0.28570 0.81810 0.83750 -0.15700
C 	C 	0.20170 0.76090 0.81820 0.07900
H 	H 	0.18440 0.72280 0.83930 -0.00700
C 	C 	0.14090 0.75830 0.76750 -0.14100
H 	H 	0.08120 0.71900 0.75560 0.08100
C 	C 	0.16840 0.81370 0.73460 0.05700
C 	C 	0.26020 0.87210 0.75380 -0.13100
H 	H 	0.27820 0.91010 0.73250 0.06500
C 	C 	0.32360 0.87450 0.80320 0.05200
H 	H 	0.39090 0.91230 0.81440 0.02000
C 	C 	0.99650 0.50040 0.48480 0.34900
C 	C 	0.01040 0.56690 0.51300 -0.11700
C 	C 	0.06990 0.62800 0.49000 0.04300
H 	H 	0.10610 0.62760 0.45580 0.02400
C 	C 	0.07560 0.68840 0.51700 -0.11700
H 	H 	0.11040 0.72890 0.50060 0.06900
C 	C 	0.02920 0.69020 0.56990 0.05200
C 	C 	0.97210 0.62860 0.59240 -0.11900
H 	H 	0.94080 0.62830 0.62700 0.07000
C 	C 	0.96070 0.56780 0.56450 0.04000
H 	H 	0.91990 0.52760 0.58020 0.01200
C 	C 	0.04570 0.75440 0.60040 0.04000
C 	C 	0.99810 0.81700 0.57780 -0.09800
H 	H 	0.97040 0.81860 0.54300 0.06300
C 	C 	0.99170 0.87780 0.60710 0.01500
C 	C 	0.04560 0.87440 0.65800 -0.09200
H 	H 	0.04640 0.91470 0.67740 0.05400
C 	C 	0.09810 0.81290 0.68090 0.02600
C 	C 	0.09620 0.75300 0.65110 -0.10000
H 	H 	0.12990 0.71120 0.66590 0.06700
C 	C 	0.94570 0.94520 0.58290 0.08700
C 	C 	0.84200 0.99450 0.61050 -0.19000
H 	H 	0.79460 0.98300 0.64250 0.08500
C 	C 	0.81050 0.05940 0.59040 0.12500
H 	H 	0.73930 0.09100 0.60840 -0.04400
C 	C 	0.98010 0.02880 0.51610 0.12300
H 	H 	0.02740 0.04040 0.48410 -0.02200
C 	C 	0.00770 0.96290 0.53480 -0.17500
H 	H 	0.06850 0.93030 0.51490 0.09300
C 	C 	0.88500 0.07760 0.54320 -0.24400
C 	C 	0.86610 0.14980 0.52390 0.44600
Ba	Ba	0.62795 0.80761 0.98982 1.85300
O 	O 	0.05130 0.37110 0.40570 -0.38800
O 	O 	0.17020 0.26800 0.41890 -0.52800
O 	O 	0.50380 0.67370 0.99680 -0.64400
O 	O 	0.77670 0.68380 0.03270 -0.58600
O 	O 	0.57360 0.94930 0.00360 -0.35900
O 	O 	0.42650 0.99900 0.93930 -0.23700
C 	C 	0.14600 0.31920 0.39130 0.38600
C 	C 	0.21430 0.31810 0.33750 -0.15500
C 	C 	0.29830 0.26090 0.31820 0.07700
H 	H 	0.31560 0.22280 0.33930 -0.00600
C 	C 	0.35910 0.25830 0.26750 -0.13600
H 	H 	0.41880 0.21900 0.25560 0.08100
C 	C 	0.33160 0.31370 0.23460 0.05200
C 	C 	0.23980 0.37210 0.25380 -0.12600
H 	H 	0.22180 0.41010 0.23250 0.06600
C 	C 	0.17640 0.37450 0.30320 0.05000
H 	H 	0.10910 0.41230 0.31440 0.02400
C 	C 	0.50350 0.00040 0.98480 0.21900
C 	C 	0.48960 0.06690 0.01300 0.08500
C 	C 	0.43010 0.12800 0.99000 -0.22300
H 	H 	0.39390 0.12760 0.95580 0.10300
C 	C 	0.42440 0.18840 0.01700 0.09100
H 	H 	0.38960 0.22890 0.00060 0.00600
C 	C 	0.47080 0.19020 0.06990 -0.06700
C 	C 	0.52790 0.12860 0.09240 0.01400
H 	H 	0.55920 0.12830 0.12700 0.02600
C 	C 	0.53930 0.06780 0.06450 -0.10400
H 	H 	0.58010 0.02760 0.08020 0.06600
C 	C 	0.45430 0.25440 0.10040 0.08800
C 	C 	0.50190 0.31700 0.07780 -0.11400
H 	H 	0.52960 0.31860 0.04300 0.07600
C 	C 	0.50830 0.37780 0.10710 0.00900
C 	C 	0.45440 0.37440 0.15800 -0.09800
H 	H 	0.45360 0.41470 0.17740 0.05600
C 	C 	0.40190 0.31290 0.18090 0.04000
C 	C 	0.40380 0.25300 0.15110 -0.12900
H 	H 	0.37010 0.21120 0.16590 0.07900
C 	C 	0.55430 0.44520 0.08290 0.14400
C 	C 	0.65800 0.49450 0.11050 -0.23600
H 	H 	0.70540 0.48300 0.14250 0.10300
C 	C 	0.68950 0.55940 0.09040 0.18400
H 	H 	0.76070 0.59100 0.10840 -0.06200
C 	C 	0.51990 0.52880 0.01610 0.29700
H 	H 	0.47260 0.54040 0.98410 -0.11500
C 	C 	0.49230 0.46290 0.03480 -0.28200
H 	H 	0.43150 0.43030 0.01490 0.14100
C 	C 	0.61500 0.57760 0.04320 -0.32500
C 	C 	0.63390 0.64980 0.02390 0.52200
Ba	Ba	0.37205 0.19239 0.48982 1.94100
O 	O 	0.94870 0.62890 0.90570 -0.39000
O 	O 	0.82980 0.73200 0.91890 -0.52100
O 	O 	0.49620 0.32630 0.49680 -0.60900
O 	O 	0.22330 0.31620 0.53270 -0.59800
O 	O 	0.42640 0.05070 0.50360 -0.43200
O 	O 	0.57350 0.00100 0.43930 -0.24800
C 	C 	0.85400 0.68080 0.89130 0.38400
C 	C 	0.78570 0.68190 0.83750 -0.15600
C 	C 	0.70170 0.73910 0.81820 0.07900
H 	H 	0.68440 0.77720 0.83930 -0.00600
C 	C 	0.64090 0.74170 0.76750 -0.14000
H 	H 	0.58120 0.78100 0.75560 0.08100
C 	C 	0.66840 0.68630 0.73460 0.05700
C 	C 	0.76020 0.62790 0.75380 -0.13000
H 	H 	0.77820 0.58990 0.73250 0.06600
C 	C 	0.82360 0.62550 0.80320 0.05200
H 	H 	0.89090 0.58770 0.81440 0.02100
C 	C 	0.49650 0.99960 0.48480 0.35400
C 	C 	0.51040 0.93310 0.51300 -0.13500
C 	C 	0.56990 0.87200 0.49000 0.05200
H 	H 	0.60610 0.87240 0.45580 0.01900
C 	C 	0.57560 0.81160 0.51700 -0.12400
H 	H 	0.61040 0.77110 0.50060 0.07000
C 	C 	0.52920 0.80980 0.56990 0.05300
C 	C 	0.47210 0.87140 0.59240 -0.12100
H 	H 	0.44080 0.87170 0.62700 0.07200
C 	C 	0.46070 0.93220 0.56450 0.05600
H 	H 	0.41990 0.97240 0.58020 0.00600
C 	C 	0.54570 0.74560 0.60040 0.03300
C 	C 	0.49810 0.68300 0.57780 -0.09000
H 	H 	0.47040 0.68140 0.54300 0.06300
C 	C 	0.49170 0.62220 0.60710 0.01400
C 	C 	0.54560 0.62560 0.65800 -0.09400
H 	H 	0.54640 0.58530 0.67740 0.05500
C 	C 	0.59810 0.68710 0.68090 0.02500
C 	C 	0.59620 0.74700 0.65110 -0.09700
H 	H 	0.62990 0.78880 0.66590 0.06600
C 	C 	0.44570 0.55480 0.58290 0.09500
C 	C 	0.34200 0.50550 0.61050 -0.18500
H 	H 	0.29460 0.51700 0.64250 0.08500
C 	C 	0.31050 0.44060 0.59040 0.12100
H 	H 	0.23930 0.40900 0.60840 -0.04300
C 	C 	0.48010 0.47120 0.51610 0.14000
H 	H 	0.52740 0.45960 0.48410 -0.03300
C 	C 	0.50770 0.53710 0.53480 -0.19000
H 	H 	0.56850 0.56970 0.51490 0.09700
C 	C 	0.38500 0.42240 0.54320 -0.24800
C 	C 	0.36610 0.35020 0.52390 0.44600
