data_crystal

_cell_length_a 7.26520
_cell_length_b 19.31520
_cell_length_c 26.07230
_cell_angle_alpha 90.00000
_cell_angle_beta  90.00000
_cell_angle_gamma 90.00000

_symmetry_space_group_name_	'P 1'
_symmetry_space_group_name_H-M	'P 1'

loop_
_symmetry_equiv_pos_as_xyz
  x,y,z

loop_
_atom_site_label
_atom_site_type_symbol
_atom_site_fract_x
_atom_site_fract_y
_atom_site_fract_z
_atom_site_charge
Ba	Ba	0.36744 0.30820 0.41167 1.95500
O 	O 	0.66930 0.26870 0.34140 -0.53400
O 	O 	0.54970 0.37230 0.32870 -0.39500
O 	O 	0.99030 0.32650 0.42130 -0.64100
O 	O 	0.71410 0.31530 0.45570 -0.60600
O 	O 	0.42120 0.45070 0.42570 -0.44200
C 	C 	0.36160 0.15190 0.44540 0.47400
C 	C 	0.37580 0.07720 0.46690 -0.23600
C 	C 	0.30190 0.06100 0.51220 0.12200
C 	C 	0.46970 0.02930 0.43820 0.12100
C 	C 	0.33660 0.99670 0.53350 -0.17500
H 	H 	0.22590 0.09330 0.52960 -0.04000
C 	C 	0.50100 0.96420 0.45840 -0.16800
H 	H 	0.51280 0.04080 0.40480 -0.02600
C 	C 	0.43740 0.94640 0.50650 0.08600
H 	H 	0.29190 0.98650 0.56690 0.07900
H 	H 	0.56750 0.93110 0.43880 0.08800
C 	C 	0.48650 0.87770 0.52980 0.01200
C 	C 	0.54020 0.87500 0.58120 -0.08300
C 	C 	0.49010 0.81810 0.50180 -0.08100
C 	C 	0.59420 0.81330 0.60480 0.01400
H 	H 	0.53990 0.91650 0.60090 0.05000
H 	H 	0.45980 0.81980 0.46640 0.05900
C 	C 	0.53690 0.75500 0.52390 0.02200
C 	C 	0.66370 0.81400 0.65710 0.06200
C 	C 	0.59370 0.75420 0.57470 -0.08300
C 	C 	0.52170 0.69080 0.49310 0.06200
C 	C 	0.64120 0.75910 0.69000 -0.13800
C 	C 	0.75600 0.87100 0.67700 -0.12800
H 	H 	0.63340 0.71170 0.58940 0.05900
C 	C 	0.56600 0.69030 0.44120 -0.12600
C 	C 	0.46600 0.62980 0.51500 -0.12400
C 	C 	0.70230 0.76060 0.73990 0.08000
H 	H 	0.58140 0.71850 0.67780 0.07800
C 	C 	0.81700 0.87490 0.72650 0.05500
H 	H 	0.77720 0.90930 0.65500 0.06500
C 	C 	0.55800 0.62880 0.41400 0.05700
H 	H 	0.60150 0.73190 0.42450 0.06900
C 	C 	0.45000 0.56880 0.48630 0.06300
H 	H 	0.43750 0.62890 0.55060 0.07100
C 	C 	0.78590 0.81830 0.75990 -0.15900
H 	H 	0.68630 0.72090 0.76100 -0.00800
H 	H 	0.87980 0.91510 0.73830 0.02200
H 	H 	0.59430 0.62920 0.37900 0.02000
C 	C 	0.49970 0.56650 0.43530 -0.14700
H 	H 	0.40400 0.52820 0.50240 0.00700
C 	C 	0.85560 0.82040 0.81360 0.38200
C 	C 	0.49150 0.50120 0.40600 0.38200
O 	O 	0.56390 0.50220 0.36050 -0.26300
Ba	Ba	0.63256 0.69180 0.91167 1.95400
O 	O 	0.33070 0.73130 0.84140 -0.53500
O 	O 	0.45030 0.62770 0.82870 -0.39600
O 	O 	0.00970 0.67350 0.92130 -0.64300
O 	O 	0.28590 0.68470 0.95570 -0.60900
O 	O 	0.57880 0.54930 0.92570 -0.44200
C 	C 	0.63840 0.84810 0.94540 0.47600
C 	C 	0.62420 0.92280 0.96690 -0.24900
C 	C 	0.69810 0.93900 0.01220 0.13600
C 	C 	0.53030 0.97070 0.93820 0.13100
C 	C 	0.66340 0.00330 0.03350 -0.18400
H 	H 	0.77410 0.90670 0.02960 -0.04400
C 	C 	0.49900 0.03580 0.95840 -0.18300
H 	H 	0.48720 0.95920 0.90480 -0.03000
C 	C 	0.56260 0.05360 0.00650 0.09900
H 	H 	0.70810 0.01350 0.06690 0.08200
H 	H 	0.43250 0.06890 0.93880 0.09200
C 	C 	0.51350 0.12230 0.02980 0.00700
C 	C 	0.45980 0.12500 0.08120 -0.08100
C 	C 	0.50990 0.18190 0.00180 -0.07500
C 	C 	0.40580 0.18670 0.10480 0.01600
H 	H 	0.46010 0.08350 0.10090 0.05000
H 	H 	0.54020 0.18020 0.96640 0.05400
C 	C 	0.46310 0.24500 0.02390 0.03200
C 	C 	0.33630 0.18600 0.15710 0.06200
C 	C 	0.40630 0.24580 0.07470 -0.08700
C 	C 	0.47830 0.30920 0.99310 0.03700
C 	C 	0.35880 0.24090 0.19000 -0.13800
C 	C 	0.24400 0.12900 0.17700 -0.12800
H 	H 	0.36660 0.28830 0.08940 0.06100
C 	C 	0.43400 0.30970 0.94120 -0.10900
C 	C 	0.53400 0.37020 0.01500 -0.09200
C 	C 	0.29770 0.23940 0.23990 0.08000
H 	H 	0.41860 0.28150 0.17780 0.07800
C 	C 	0.18300 0.12510 0.22650 0.05400
H 	H 	0.22280 0.09070 0.15500 0.06500
C 	C 	0.44200 0.37120 0.91400 0.04100
H 	H 	0.39850 0.26810 0.92450 0.06300
C 	C 	0.55000 0.43120 0.98630 0.03100
H 	H 	0.56250 0.37110 0.05060 0.06100
C 	C 	0.21410 0.18170 0.25990 -0.15900
H 	H 	0.31370 0.27910 0.26100 -0.00800
H 	H 	0.12020 0.08490 0.23830 0.02200
H 	H 	0.40570 0.37080 0.87900 0.02500
C 	C 	0.50030 0.43350 0.93530 -0.13000
H 	H 	0.59600 0.47180 0.00240 0.02100
C 	C 	0.14440 0.17960 0.31360 0.38300
C 	C 	0.50850 0.49880 0.90600 0.37500
O 	O 	0.43610 0.49780 0.86050 -0.26200
Ba	Ba	0.86744 0.19180 0.41167 1.94400
O 	O 	0.16930 0.23130 0.34140 -0.53400
O 	O 	0.04970 0.12770 0.32870 -0.39300
O 	O 	0.49030 0.17350 0.42130 -0.64000
O 	O 	0.21410 0.18470 0.45570 -0.60600
O 	O 	0.92120 0.04930 0.42570 -0.44200
C 	C 	0.86160 0.34810 0.44540 0.47000
C 	C 	0.87580 0.42280 0.46690 -0.22800
C 	C 	0.80190 0.43900 0.51220 0.11200
C 	C 	0.96970 0.47070 0.43820 0.10100
C 	C 	0.83660 0.50330 0.53350 -0.16600
H 	H 	0.72590 0.40670 0.52960 -0.03800
C 	C 	0.00100 0.53580 0.45840 -0.15000
H 	H 	0.01280 0.45920 0.40480 -0.01700
C 	C 	0.93740 0.55360 0.50650 0.07500
H 	H 	0.79190 0.51350 0.56690 0.07600
H 	H 	0.06750 0.56890 0.43880 0.08200
C 	C 	0.98650 0.62230 0.52980 0.01600
C 	C 	0.04020 0.62500 0.58120 -0.08500
C 	C 	0.99010 0.68190 0.50180 -0.08500
C 	C 	0.09420 0.68670 0.60480 0.01500
H 	H 	0.03990 0.58350 0.60090 0.05100
H 	H 	0.95980 0.68020 0.46640 0.05900
C 	C 	0.03690 0.74500 0.52390 0.02300
C 	C 	0.16370 0.68600 0.65710 0.06100
C 	C 	0.09370 0.74580 0.57470 -0.08300
C 	C 	0.02170 0.80920 0.49310 0.06600
C 	C 	0.14120 0.74090 0.69000 -0.13900
C 	C 	0.25600 0.62900 0.67700 -0.12900
H 	H 	0.13340 0.78830 0.58940 0.05900
C 	C 	0.06600 0.80970 0.44120 -0.13000
C 	C 	0.96600 0.87020 0.51500 -0.13000
C 	C 	0.20230 0.73940 0.73990 0.07900
H 	H 	0.08140 0.78150 0.67780 0.07800
C 	C 	0.31700 0.62510 0.72650 0.05400
H 	H 	0.27720 0.59070 0.65500 0.06500
C 	C 	0.05800 0.87120 0.41400 0.06500
H 	H 	0.10150 0.76810 0.42450 0.07200
C 	C 	0.95000 0.93120 0.48630 0.06700
H 	H 	0.93750 0.87110 0.55060 0.07300
C 	C 	0.28590 0.68170 0.75990 -0.16000
H 	H 	0.18630 0.77910 0.76100 -0.00900
H 	H 	0.37980 0.58490 0.73830 0.02200
H 	H 	0.09430 0.87080 0.37900 0.01800
C 	C 	0.99970 0.93350 0.43530 -0.15300
H 	H 	0.90400 0.97180 0.50240 0.00500
C 	C 	0.35560 0.67960 0.81360 0.38200
C 	C 	0.99150 0.99880 0.40600 0.37800
O 	O 	0.06390 0.99780 0.36050 -0.25900
Ba	Ba	0.13256 0.80820 0.91167 1.93900
O 	O 	0.83070 0.76870 0.84140 -0.53300
O 	O 	0.95030 0.87230 0.82870 -0.39200
O 	O 	0.50970 0.82650 0.92130 -0.64100
O 	O 	0.78590 0.81530 0.95570 -0.60700
O 	O 	0.07880 0.95070 0.92570 -0.44200
C 	C 	0.13840 0.65190 0.94540 0.47300
C 	C 	0.12420 0.57720 0.96690 -0.23900
C 	C 	0.19810 0.56100 0.01220 0.12600
C 	C 	0.03030 0.52930 0.93820 0.10400
C 	C 	0.16340 0.49670 0.03350 -0.17400
H 	H 	0.27410 0.59330 0.02960 -0.04100
C 	C 	0.99900 0.46420 0.95840 -0.15800
H 	H 	0.98720 0.54080 0.90480 -0.01700
C 	C 	0.06260 0.44640 0.00650 0.08500
H 	H 	0.20810 0.48650 0.06690 0.07900
H 	H 	0.93250 0.43110 0.93880 0.08500
C 	C 	0.01350 0.37770 0.02980 0.01100
C 	C 	0.95980 0.37500 0.08120 -0.08200
C 	C 	0.00990 0.31810 0.00180 -0.07900
C 	C 	0.90580 0.31330 0.10480 0.01600
H 	H 	0.96010 0.41650 0.10090 0.05000
H 	H 	0.04020 0.31980 0.96640 0.05400
C 	C 	0.96310 0.25500 0.02390 0.03200
C 	C 	0.83630 0.31400 0.15710 0.06100
C 	C 	0.90630 0.25420 0.07470 -0.08700
C 	C 	0.97830 0.19080 0.99310 0.04500
C 	C 	0.85880 0.25910 0.19000 -0.13900
C 	C 	0.74400 0.37100 0.17700 -0.12800
H 	H 	0.86660 0.21170 0.08940 0.06100
C 	C 	0.93400 0.19030 0.94120 -0.11500
C 	C 	0.03400 0.12980 0.01500 -0.10000
C 	C 	0.79770 0.26060 0.23990 0.08000
H 	H 	0.91860 0.21850 0.17780 0.07800
C 	C 	0.68300 0.37490 0.22650 0.05400
H 	H 	0.72280 0.40930 0.15500 0.06500
C 	C 	0.94200 0.12880 0.91400 0.05200
H 	H 	0.89850 0.23190 0.92450 0.06600
C 	C 	0.05000 0.06880 0.98630 0.03500
H 	H 	0.06250 0.12890 0.05060 0.06300
C 	C 	0.71410 0.31830 0.25990 -0.16000
H 	H 	0.81370 0.22090 0.26100 -0.00900
H 	H 	0.62020 0.41510 0.23830 0.02200
H 	H 	0.90570 0.12920 0.87900 0.02200
C 	C 	0.00030 0.06650 0.93530 -0.13900
H 	H 	0.09600 0.02820 0.00240 0.01900
C 	C 	0.64440 0.32040 0.31360 0.38200
C 	C 	0.00850 0.00120 0.90600 0.37100
O 	O 	0.93610 0.00220 0.86050 -0.25700
