data_crystal

_cell_length_a 14.27190
_cell_length_b 14.27200
_cell_length_c 17.56880
_cell_angle_alpha 76.46320
_cell_angle_beta  76.46310
_cell_angle_gamma 115.07000

_symmetry_space_group_name_	'P 1'
_symmetry_space_group_name_H-M	'P 1'

loop_
_symmetry_equiv_pos_as_xyz
  x,y,z

loop_
_atom_site_label
_atom_site_type_symbol
_atom_site_fract_x
_atom_site_fract_y
_atom_site_fract_z
_atom_site_charge
Ni	Ni	0.19325 0.21499 0.81474 1.12300
Ni	Ni	0.99201 0.97027 0.81474 1.08000
Ni	Ni	0.96499 0.44325 0.31474 1.09400
Ni	Ni	0.72027 0.24201 0.31474 1.12300
H 	H 	0.10700 0.15500 0.70200 0.34600
H 	H 	0.40440 0.28760 0.84860 0.00500
H 	H 	0.49820 0.38660 0.91900 0.08400
H 	H 	0.23830 0.42830 0.00660 0.09100
H 	H 	0.15190 0.32870 0.93480 0.02000
H 	H 	0.42490 0.54370 0.01640 0.04800
H 	H 	0.35570 0.32630 0.13480 0.05500
H 	H 	0.16300 0.25520 0.19840 0.10300
H 	H 	0.01490 0.27010 0.27020 0.03200
H 	H 	0.21440 0.58000 0.23120 -0.00400
H 	H 	0.36670 0.57330 0.16100 0.08500
H 	H 	0.31460 0.05400 0.95980 0.09200
H 	H 	0.35130 0.96470 0.06540 0.03100
H 	H 	0.22240 0.78420 0.15820 0.04200
H 	H 	0.02170 0.77530 0.02700 0.07300
H 	H 	0.19100 0.14300 0.70200 0.34100
H 	H 	0.74700 0.86380 0.84860 -0.00200
H 	H 	0.58280 0.69440 0.91900 0.08700
H 	H 	0.75510 0.56510 0.00660 0.08500
H 	H 	0.91330 0.73650 0.93480 -0.02000
H 	H 	0.55870 0.43990 0.01640 0.04900
H 	H 	0.50950 0.53890 0.13480 0.04800
H 	H 	0.63860 0.54640 0.19840 0.08600
H 	H 	0.71490 0.45970 0.27020 -0.00200
H 	H 	0.55440 0.18880 0.23120 0.00000
H 	H 	0.47230 0.26570 0.16100 0.09000
H 	H 	0.72560 0.98620 0.95980 -0.00100
H 	H 	0.58330 0.96990 0.06540 0.02100
H 	H 	0.61940 0.05760 0.15820 0.04900
H 	H 	0.95130 0.19770 0.02700 0.02400
H 	H 	0.90500 0.35700 0.20200 0.33200
H 	H 	0.03760 0.65440 0.34860 0.02000
H 	H 	0.13660 0.74820 0.41900 0.09000
H 	H 	0.17830 0.48830 0.50660 0.09500
H 	H 	0.07870 0.40190 0.43480 0.02100
H 	H 	0.29370 0.67490 0.51640 0.05300
H 	H 	0.07630 0.60570 0.63480 0.05600
H 	H 	0.00520 0.41300 0.69840 0.10700
H 	H 	0.02010 0.26490 0.77020 0.02300
H 	H 	0.33000 0.46440 0.73120 -0.00500
H 	H 	0.32330 0.61670 0.66100 0.08500
H 	H 	0.80400 0.56460 0.45980 0.01200
H 	H 	0.71470 0.60130 0.56540 0.05800
H 	H 	0.53420 0.47240 0.65820 0.02700
H 	H 	0.52530 0.27170 0.52700 0.04100
H 	H 	0.89300 0.44100 0.20200 0.33700
H 	H 	0.61380 0.99700 0.34860 0.01300
H 	H 	0.44440 0.83280 0.41900 0.06400
H 	H 	0.31510 0.00510 0.50660 0.08000
H 	H 	0.48650 0.16330 0.43480 0.01900
H 	H 	0.18990 0.80870 0.51640 0.04000
H 	H 	0.28890 0.75950 0.63480 0.06000
H 	H 	0.29640 0.88860 0.69840 0.10000
H 	H 	0.20970 0.96490 0.77020 -0.01300
H 	H 	0.93880 0.80440 0.73120 -0.11300
H 	H 	0.01570 0.72230 0.66100 0.14100
H 	H 	0.73620 0.97560 0.45980 0.06200
H 	H 	0.71990 0.83330 0.56540 0.02000
H 	H 	0.80760 0.86940 0.65820 0.06700
H 	H 	0.94770 0.20130 0.52700 0.04500
C 	C 	0.37007 0.31607 0.88146 0.09900
C 	C 	0.42650 0.37450 0.92420 -0.16100
C 	C 	0.37699 0.41499 0.97462 0.10600
C 	C 	0.27357 0.39877 0.97566 -0.14500
C 	C 	0.22266 0.34026 0.93188 0.08800
C 	C 	0.42835 0.47415 0.02650 -0.06700
C 	C 	0.37787 0.40547 0.12406 -0.07000
C 	C 	0.28334 0.41214 0.17452 0.11500
C 	C 	0.17600 0.32240 0.20540 -0.15900
C 	C 	0.08730 0.33290 0.24720 0.10500
C 	C 	0.20340 0.51300 0.22480 0.10000
C 	C 	0.29530 0.50910 0.18340 -0.16800
C 	C 	0.16216 0.92596 0.98568 -0.04400
C 	C 	0.26120 0.97960 0.99640 -0.07100
C 	C 	0.28300 0.92640 0.05940 -0.03700
C 	C 	0.20780 0.81860 0.11360 -0.00500
C 	C 	0.10808 0.75968 0.10164 -0.08600
C 	C 	0.08715 0.81435 0.03650 0.00800
C 	C 	0.02605 0.63745 0.15850 0.42600
C 	C 	0.13722 0.98742 0.91756 0.30600
C 	C 	0.74847 0.80247 0.88146 0.09900
C 	C 	0.64930 0.70130 0.92420 -0.17000
C 	C 	0.64839 0.61039 0.97462 0.10900
C 	C 	0.75077 0.62557 0.97566 -0.16500
C 	C 	0.84546 0.72786 0.93188 0.08600
C 	C 	0.54515 0.49935 0.02650 -0.07300
C 	C 	0.49807 0.47047 0.12406 -0.06600
C 	C 	0.54214 0.41334 0.17452 0.11100
C 	C 	0.61860 0.47220 0.20540 -0.16400
C 	C 	0.66550 0.41990 0.24720 0.09800
C 	C 	0.57180 0.26220 0.22480 0.09600
C 	C 	0.52130 0.30750 0.18340 -0.16700
C 	C 	0.85216 0.08836 0.98568 -0.09900
C 	C 	0.74240 0.02400 0.99640 0.06300
C 	C 	0.65760 0.01420 0.05940 -0.04800
C 	C 	0.67860 0.06780 0.11360 0.00200
C 	C 	0.79028 0.13868 0.10164 -0.09300
C 	C 	0.87635 0.14915 0.03650 0.02600
C 	C 	0.81545 0.20405 0.15850 0.34500
C 	C 	0.94522 0.09502 0.91756 0.27900
C 	C 	0.06607 0.62007 0.38146 0.10500
C 	C 	0.12450 0.67650 0.42420 -0.16200
C 	C 	0.16499 0.62699 0.47462 0.11300
C 	C 	0.14877 0.52357 0.47566 -0.16100
C 	C 	0.09026 0.47266 0.43188 0.09700
C 	C 	0.22415 0.67835 0.52650 -0.08100
C 	C 	0.15547 0.62787 0.62406 -0.05500
C 	C 	0.16214 0.53334 0.67452 0.11200
C 	C 	0.07240 0.42600 0.70540 -0.15700
C 	C 	0.08290 0.33730 0.74720 0.09900
C 	C 	0.26300 0.45340 0.72480 0.09800
C 	C 	0.25910 0.54530 0.68340 -0.16600
C 	C 	0.67596 0.41216 0.48568 -0.12400
C 	C 	0.72960 0.51120 0.49640 0.04600
C 	C 	0.67640 0.53300 0.55940 -0.11500
C 	C 	0.56860 0.45780 0.61360 0.03600
C 	C 	0.50968 0.35808 0.60164 -0.10600
C 	C 	0.56435 0.33715 0.53650 0.05100
C 	C 	0.38745 0.27605 0.65850 0.34800
C 	C 	0.73742 0.38722 0.41756 0.37700
C 	C 	0.55247 0.99847 0.38146 0.03100
C 	C 	0.45130 0.89930 0.42420 -0.11200
C 	C 	0.36039 0.89839 0.47462 0.03100
C 	C 	0.37557 0.00077 0.47566 -0.07900
C 	C 	0.47786 0.09546 0.43188 0.06000
C 	C 	0.24935 0.79515 0.52650 -0.03100
C 	C 	0.22047 0.74807 0.62406 -0.10300
C 	C 	0.16334 0.79214 0.67452 0.17200
C 	C 	0.22220 0.86860 0.70540 -0.20700
C 	C 	0.16990 0.91550 0.74720 0.12500
C 	C 	0.01220 0.82180 0.72480 0.27900
C 	C 	0.05750 0.77130 0.68340 -0.27300
C 	C 	0.83836 0.10216 0.48568 -0.02300
C 	C 	0.77400 0.99240 0.49640 -0.09300
C 	C 	0.76420 0.90760 0.55940 0.00300
C 	C 	0.81780 0.92860 0.61360 -0.10100
C 	C 	0.88868 0.04028 0.60164 -0.00500
C 	C 	0.89915 0.12635 0.53650 -0.03800
C 	C 	0.95405 0.06545 0.65850 0.26800
C 	C 	0.84502 0.19522 0.41756 0.34000
N 	N 	0.27050 0.29828 0.88442 -0.22200
N 	N 	0.09953 0.42653 0.25614 -0.21600
N 	N 	0.84508 0.81730 0.88442 -0.23700
N 	N 	0.64433 0.31733 0.25614 -0.23200
N 	N 	0.04828 0.52050 0.38442 -0.20700
N 	N 	0.17653 0.34953 0.75614 -0.23000
N 	N 	0.56730 0.09508 0.38442 -0.19400
N 	N 	0.06733 0.89433 0.75614 -0.25300
O 	O 	0.21419 0.08763 0.87138 -0.36400
O 	O 	0.04638 0.93520 0.91082 -0.37200
O 	O 	0.94695 0.58135 0.14010 -0.38700
O 	O 	0.04496 0.60178 0.22266 -0.39000
O 	O 	0.91443 0.04099 0.87138 -0.38700
O 	O 	0.04280 0.15398 0.91082 -0.33800
O 	O 	0.91295 0.27855 0.14010 -0.33600
O 	O 	0.73238 0.17556 0.22266 -0.39300
O 	O 	0.83763 0.46419 0.37138 -0.42700
O 	O 	0.68520 0.29638 0.41082 -0.41800
O 	O 	0.33135 0.19695 0.64010 -0.30500
O 	O 	0.35178 0.29496 0.72266 -0.39600
O 	O 	0.79099 0.16443 0.37138 -0.39800
O 	O 	0.90398 0.29280 0.41082 -0.43400
O 	O 	0.02855 0.16295 0.64010 -0.23700
O 	O 	0.92556 0.98238 0.72266 -0.41900
O 	O 	0.13042 0.13042 0.73916 -0.84800
O 	O 	0.88042 0.38042 0.23916 -0.88300
