data_crystal

_cell_length_a 14.02430
_cell_length_b 14.02430
_cell_length_c 17.91780
_cell_angle_alpha 103.78700
_cell_angle_beta  103.78700
_cell_angle_gamma 113.02000

_symmetry_space_group_name_	'P 1'
_symmetry_space_group_name_H-M	'P 1'

loop_
_symmetry_equiv_pos_as_xyz
  x,y,z

loop_
_atom_site_label
_atom_site_type_symbol
_atom_site_fract_x
_atom_site_fract_y
_atom_site_fract_z
_atom_site_charge
Ni	Ni	0.19918 0.21810 0.19506 1.11600
Ni	Ni	0.99588 0.97696 0.19506 1.07600
Ni	Ni	0.96810 0.44918 0.69506 1.08800
Ni	Ni	0.72696 0.24588 0.69506 1.11500
H 	H 	0.02380 0.27560 0.24240 0.02600
H 	H 	0.01050 0.42490 0.31140 0.10800
H 	H 	0.33060 0.61920 0.35580 0.08500
H 	H 	0.33650 0.46630 0.28220 -0.00400
H 	H 	0.08710 0.62010 0.38700 0.05700
H 	H 	0.30250 0.68030 0.49900 0.04900
H 	H 	0.18090 0.48930 0.50460 0.09700
H 	H 	0.07710 0.40550 0.57340 0.02600
H 	H 	0.04650 0.66770 0.66820 0.02200
H 	H 	0.14490 0.76030 0.59760 0.08500
H 	H 	0.31520 0.04760 0.05020 0.08400
H 	H 	0.35140 0.95300 0.94380 0.03400
H 	H 	0.21760 0.77320 0.85260 0.04400
H 	H 	0.01110 0.78230 0.97400 0.07100
H 	H 	0.21860 0.96680 0.24240 -0.00700
H 	H 	0.30090 0.88650 0.31140 0.10100
H 	H 	0.02520 0.73660 0.35580 0.13900
H 	H 	0.94570 0.81590 0.28220 -0.10800
H 	H 	0.29990 0.76690 0.38700 0.05600
H 	H 	0.19650 0.81870 0.49900 0.04700
H 	H 	0.32370 0.01530 0.50460 0.09500
H 	H 	0.49630 0.16790 0.57340 0.01100
H 	H 	0.62170 0.00050 0.66820 0.00200
H 	H 	0.45270 0.83730 0.59760 0.08800
H 	H 	0.73500 0.00260 0.05020 0.06600
H 	H 	0.59240 0.99080 0.94380 0.00500
H 	H 	0.63500 0.07940 0.85260 0.06000
H 	H 	0.96290 0.19170 0.97400 0.03200
H 	H 	0.02560 0.27380 0.74240 0.03400
H 	H 	0.17490 0.26050 0.81140 0.10500
H 	H 	0.36920 0.58060 0.85580 0.08600
H 	H 	0.21630 0.58650 0.78220 -0.00300
H 	H 	0.37010 0.33710 0.88700 0.05700
H 	H 	0.43030 0.55250 0.99900 0.05000
H 	H 	0.23930 0.43090 0.00460 0.09800
H 	H 	0.15550 0.32710 0.07340 0.01800
H 	H 	0.41770 0.29650 0.16820 0.00900
H 	H 	0.51030 0.39490 0.09760 0.07700
H 	H 	0.79760 0.56520 0.55020 0.01800
H 	H 	0.70300 0.60140 0.44380 0.05400
H 	H 	0.52320 0.46760 0.35260 0.03200
H 	H 	0.53230 0.26110 0.47400 0.04200
H 	H 	0.71680 0.46860 0.74240 0.00300
H 	H 	0.63650 0.55090 0.81140 0.08900
H 	H 	0.48660 0.27520 0.85580 0.09000
H 	H 	0.56590 0.19570 0.78220 -0.00200
H 	H 	0.51690 0.54990 0.88700 0.05100
H 	H 	0.56870 0.44650 0.99900 0.04900
H 	H 	0.76530 0.57370 0.00460 0.08700
H 	H 	0.91790 0.74630 0.07340 -0.02100
H 	H 	0.75050 0.87170 0.16820 0.00200
H 	H 	0.58730 0.70270 0.09760 0.07800
H 	H 	0.75260 0.98500 0.55020 -0.03000
H 	H 	0.74080 0.84240 0.44380 0.08200
H 	H 	0.82940 0.88500 0.35260 0.02700
H 	H 	0.94170 0.21290 0.47400 0.01400
C 	C 	0.08710 0.34630 0.26520 0.11000
C 	C 	0.07910 0.43530 0.30720 -0.16000
C 	C 	0.17120 0.54180 0.34460 0.11300
C 	C 	0.26620 0.54940 0.33300 -0.16500
C 	C 	0.26930 0.45710 0.28860 0.09900
C 	C 	0.16580 0.63880 0.39680 -0.06000
C 	C 	0.23290 0.68610 0.48980 -0.06700
C 	C 	0.17460 0.63640 0.54180 0.09900
C 	C 	0.15360 0.52760 0.53660 -0.15400
C 	C 	0.09290 0.47910 0.57900 0.09800
C 	C 	0.07370 0.63170 0.63440 0.09300
C 	C 	0.13310 0.68770 0.59200 -0.14800
C 	C 	0.15960 0.92400 0.02220 -0.06600
C 	C 	0.26120 0.97500 0.01340 -0.06600
C 	C 	0.28280 0.91860 0.95000 -0.03100
C 	C 	0.20300 0.81140 0.89560 -0.00300
C 	C 	0.10130 0.76030 0.90440 -0.08500
C 	C 	0.07970 0.81670 0.96780 0.03100
C 	C 	0.14060 0.98860 0.09260 0.32900
C 	C 	0.02030 0.64150 0.84640 0.40700
C 	C 	0.17810 0.91890 0.26520 0.13400
C 	C 	0.22810 0.87190 0.30720 -0.20500
C 	C 	0.17340 0.80280 0.34460 0.16500
C 	C 	0.06680 0.78360 0.33300 -0.26700
C 	C 	0.01930 0.83150 0.28860 0.27500
C 	C 	0.23100 0.75800 0.39680 -0.09300
C 	C 	0.25690 0.80370 0.48980 -0.05200
C 	C 	0.36720 0.90540 0.54180 0.07500
C 	C 	0.38300 0.00900 0.53660 -0.12300
C 	C 	0.48610 0.09990 0.57900 0.08800
C 	C 	0.56070 0.00270 0.63440 0.12400
C 	C 	0.45890 0.90430 0.59200 -0.18400
C 	C 	0.86260 0.09820 0.02220 -0.07100
C 	C 	0.75220 0.03840 0.01340 -0.04700
C 	C 	0.66720 0.03140 0.95000 0.01600
C 	C 	0.69260 0.08420 0.89560 -0.03500
C 	C 	0.80310 0.14410 0.90440 -0.06800
C 	C 	0.88810 0.15110 0.96780 0.01200
C 	C 	0.95200 0.10400 0.09260 0.27600
C 	C 	0.82610 0.20490 0.84640 0.32100
C 	C 	0.09630 0.33710 0.76520 0.11700
C 	C 	0.18530 0.32910 0.80720 -0.16200
C 	C 	0.29180 0.42120 0.84460 0.11700
C 	C 	0.29940 0.51620 0.83300 -0.16700
C 	C 	0.20710 0.51930 0.78860 0.10200
C 	C 	0.38880 0.41580 0.89680 -0.07200
C 	C 	0.43610 0.48290 0.98980 -0.05500
C 	C 	0.38640 0.42460 0.04180 0.08800
C 	C 	0.27760 0.40360 0.03660 -0.15100
C 	C 	0.22910 0.34290 0.07900 0.09300
C 	C 	0.38170 0.32370 0.13440 0.08500
C 	C 	0.43770 0.38310 0.09200 -0.14600
C 	C 	0.67400 0.40960 0.52220 -0.12000
C 	C 	0.72500 0.51120 0.51340 0.03500
C 	C 	0.66860 0.53280 0.45000 -0.10200
C 	C 	0.56140 0.45300 0.39560 0.02600
C 	C 	0.51030 0.35130 0.40440 -0.09800
C 	C 	0.56670 0.32970 0.46780 0.04800
C 	C 	0.73860 0.39060 0.59260 0.38600
C 	C 	0.39150 0.27030 0.34640 0.32900
C 	C 	0.66890 0.42810 0.76520 0.11000
C 	C 	0.62190 0.47810 0.80720 -0.16700
C 	C 	0.55280 0.42340 0.84460 0.11300
C 	C 	0.53360 0.31680 0.83300 -0.16700
C 	C 	0.58150 0.26930 0.78860 0.09900
C 	C 	0.50800 0.48100 0.89680 -0.06900
C 	C 	0.55370 0.50690 0.98980 -0.05800
C 	C 	0.65540 0.61720 0.04180 0.08700
C 	C 	0.75900 0.63300 0.03660 -0.16400
C 	C 	0.84990 0.73610 0.07900 0.08900
C 	C 	0.75270 0.81070 0.13440 0.08300
C 	C 	0.65430 0.70890 0.09200 -0.15300
C 	C 	0.84820 0.11260 0.52220 -0.16400
C 	C 	0.78840 0.00220 0.51340 0.15000
C 	C 	0.78140 0.91720 0.45000 -0.18200
C 	C 	0.83420 0.94260 0.39560 0.02400
C 	C 	0.89410 0.05310 0.40440 -0.08500
C 	C 	0.90110 0.13810 0.46780 0.06000
C 	C 	0.85400 0.20200 0.59260 0.39800
C 	C 	0.95490 0.07610 0.34640 0.27300
N 	N 	0.18110 0.35430 0.25420 -0.22600
N 	N 	0.05489 0.52929 0.62798 -0.20400
N 	N 	0.07310 0.89990 0.25420 -0.24600
N 	N 	0.57309 0.09869 0.62798 -0.22300
N 	N 	0.10430 0.43110 0.75420 -0.21100
N 	N 	0.27929 0.30489 0.12798 -0.22000
N 	N 	0.64990 0.32310 0.75420 -0.22800
N 	N 	0.84869 0.82309 0.12798 -0.23300
O 	O 	0.21710 0.08470 0.13720 -0.38200
O 	O 	0.05025 0.93805 0.10090 -0.38400
O 	O 	0.93637 0.58697 0.86214 -0.31300
O 	O 	0.04330 0.60590 0.78500 -0.37600
O 	O 	0.92010 0.05250 0.13720 -0.40100
O 	O 	0.05065 0.16285 0.10090 -0.34800
O 	O 	0.92577 0.27517 0.86214 -0.26600
O 	O 	0.74170 0.17910 0.78500 -0.38200
O 	O 	0.83470 0.46710 0.63720 -0.43600
O 	O 	0.68805 0.30025 0.60090 -0.42600
O 	O 	0.33697 0.18637 0.36214 -0.23600
O 	O 	0.35590 0.29330 0.28500 -0.38300
O 	O 	0.80250 0.17010 0.63720 -0.42500
O 	O 	0.91285 0.30065 0.60090 -0.45400
O 	O 	0.02517 0.17577 0.36214 -0.17500
O 	O 	0.92910 0.99170 0.28500 -0.40700
O 	O 	0.13410 0.13410 0.26820 -0.33800
O 	O 	0.88410 0.38410 0.76820 -0.38400
