data_crystal

_cell_length_a 10.90300
_cell_length_b 10.96000
_cell_length_c 14.84000
_cell_angle_alpha 82.55000
_cell_angle_beta  85.61000
_cell_angle_gamma 88.79000

_symmetry_space_group_name_	'P 1'
_symmetry_space_group_name_H-M	'P 1'

loop_
_symmetry_equiv_pos_as_xyz
  x,y,z

loop_
_atom_site_label
_atom_site_type_symbol
_atom_site_fract_x
_atom_site_fract_y
_atom_site_fract_z
_atom_site_charge
Zn	Zn	0.44930 0.78383 0.39492 1.21500
Zn	Zn	0.45129 0.82184 0.18907 1.21600
O 	O 	0.63680 0.77850 0.40740 -0.42700
O 	O 	0.62220 0.79890 0.25710 -0.45100
O 	O 	0.28000 0.80520 0.32760 -0.45900
O 	O 	0.26470 0.83210 0.17640 -0.40600
O 	O 	0.45540 0.97100 0.36690 -0.43800
O 	O 	0.45700 0.99910 0.21150 -0.43500
O 	O 	0.44330 0.63470 0.21730 -0.44400
O 	O 	0.44450 0.60610 0.37210 -0.44700
N 	N 	0.34690 0.77560 0.51830 -0.25600
N 	N 	0.55860 0.82810 0.06750 -0.25500
F 	F 	0.18900 0.88110 0.82950 -0.41500
F 	F 	0.00190 0.90020 0.95340 -0.38600
C 	C 	0.82240 0.79420 0.30900 -0.07400
C 	C 	0.89800 0.78290 0.38190 -0.01400
H 	H 	0.86310 0.76980 0.44150 0.04800
C 	C 	0.02520 0.79110 0.36540 -0.03200
H 	H 	0.07480 0.78420 0.41410 0.05600
C 	C 	0.07880 0.80970 0.27640 -0.04300
C 	C 	0.00180 0.82140 0.20170 -0.03900
H 	H 	0.03550 0.83550 0.14180 0.10900
C 	C 	0.87620 0.81120 0.22080 0.01700
H 	H 	0.82580 0.81600 0.17260 0.07200
C 	C 	0.68330 0.78810 0.32600 0.35800
C 	C 	0.21830 0.81550 0.25900 0.33800
C 	C 	0.45090 0.17560 0.29050 -0.04700
C 	C 	0.40210 0.22450 0.36930 -0.03900
H 	H 	0.37100 0.17240 0.42010 0.05900
C 	C 	0.40090 0.35210 0.37040 -0.01500
H 	H 	0.37110 0.38460 0.42280 0.05000
C 	C 	0.44450 0.43190 0.29290 -0.07400
C 	C 	0.49350 0.38210 0.21520 -0.00700
H 	H 	0.52350 0.43470 0.16440 0.05200
C 	C 	0.49790 0.25440 0.21270 -0.02900
H 	H 	0.53110 0.22220 0.16100 0.07600
C 	C 	0.45410 0.03780 0.28900 0.35000
C 	C 	0.44420 0.56830 0.29410 0.35800
C 	C 	0.31920 0.87740 0.55580 0.11500
H 	H 	0.36190 0.94860 0.53280 -0.00300
C 	C 	0.23010 0.88400 0.62750 -0.18000
H 	H 	0.21230 0.95760 0.65090 0.13100
C 	C 	0.16860 0.77560 0.66280 0.16900
C 	C 	0.19940 0.66780 0.62730 -0.18800
H 	H 	0.16040 0.59480 0.65130 0.10600
C 	C 	0.28960 0.66920 0.55500 0.10100
H 	H 	0.31100 0.59630 0.53150 -0.00400
C 	C 	0.06490 0.78030 0.73540 -0.09700
C 	C 	0.94860 0.73210 0.72580 -0.02200
H 	H 	0.93730 0.69350 0.67480 0.04100
C 	C 	0.84920 0.74050 0.79090 -0.02700
H 	H 	0.77350 0.70760 0.78300 0.04900
C 	C 	0.86520 0.79990 0.86920 -0.09200
C 	C 	0.98040 0.84700 0.87880 0.22500
C 	C 	0.07810 0.83660 0.81270 0.23900
C 	C 	0.75790 0.81230 0.93710 0.17300
C 	C 	0.67920 0.71440 0.96380 -0.19400
H 	H 	0.69140 0.64170 0.93810 0.10900
C 	C 	0.58210 0.72460 0.02890 0.11400
H 	H 	0.53140 0.65720 0.04650 -0.00800
C 	C 	0.63220 0.92440 0.04010 0.11400
H 	H 	0.61540 0.99700 0.06530 0.01200
C 	C 	0.73300 0.92210 0.97580 -0.18100
H 	H 	0.78200 0.99090 0.95910 0.16100
Zn	Zn	0.55070 0.21617 0.60508 1.21400
Zn	Zn	0.54871 0.17816 0.81093 1.21500
O 	O 	0.36320 0.22150 0.59260 -0.42800
O 	O 	0.37780 0.20110 0.74290 -0.45200
O 	O 	0.72000 0.19480 0.67240 -0.46000
O 	O 	0.73530 0.16790 0.82360 -0.40700
O 	O 	0.54460 0.02900 0.63310 -0.43900
O 	O 	0.54300 0.00090 0.78850 -0.43600
O 	O 	0.55670 0.36530 0.78270 -0.44500
O 	O 	0.55550 0.39390 0.62790 -0.44800
N 	N 	0.65310 0.22440 0.48170 -0.25600
N 	N 	0.44140 0.17190 0.93250 -0.25500
F 	F 	0.81100 0.11890 0.17050 -0.41500
F 	F 	0.99810 0.09980 0.04660 -0.38600
C 	C 	0.17760 0.20580 0.69100 -0.07400
C 	C 	0.10200 0.21710 0.61810 -0.01400
H 	H 	0.13690 0.23020 0.55850 0.04800
C 	C 	0.97480 0.20890 0.63460 -0.03200
H 	H 	0.92520 0.21580 0.58590 0.05600
C 	C 	0.92120 0.19030 0.72360 -0.04300
C 	C 	0.99820 0.17860 0.79830 -0.03900
H 	H 	0.96450 0.16450 0.85820 0.10900
C 	C 	0.12380 0.18880 0.77920 0.01700
H 	H 	0.17420 0.18400 0.82740 0.07200
C 	C 	0.31670 0.21190 0.67400 0.35800
C 	C 	0.78170 0.18450 0.74100 0.33800
C 	C 	0.54910 0.82440 0.70950 -0.04700
C 	C 	0.59790 0.77550 0.63070 -0.03900
H 	H 	0.62900 0.82760 0.57990 0.05900
C 	C 	0.59910 0.64790 0.62960 -0.01500
H 	H 	0.62890 0.61540 0.57720 0.05000
C 	C 	0.55550 0.56810 0.70710 -0.07400
C 	C 	0.50650 0.61790 0.78480 -0.00700
H 	H 	0.47650 0.56530 0.83560 0.05200
C 	C 	0.50210 0.74560 0.78730 -0.02900
H 	H 	0.46890 0.77780 0.83900 0.07600
C 	C 	0.54590 0.96220 0.71100 0.35000
C 	C 	0.55580 0.43170 0.70590 0.35800
C 	C 	0.68080 0.12260 0.44420 0.11500
H 	H 	0.63810 0.05140 0.46720 -0.00300
C 	C 	0.76990 0.11600 0.37250 -0.18000
H 	H 	0.78770 0.04240 0.34910 0.13100
C 	C 	0.83140 0.22440 0.33720 0.16900
C 	C 	0.80060 0.33220 0.37270 -0.18800
H 	H 	0.83960 0.40520 0.34870 0.10600
C 	C 	0.71040 0.33080 0.44500 0.10100
H 	H 	0.68900 0.40370 0.46850 -0.00400
C 	C 	0.93510 0.21970 0.26460 -0.09700
C 	C 	0.05140 0.26790 0.27420 -0.02200
H 	H 	0.06270 0.30650 0.32520 0.04100
C 	C 	0.15080 0.25950 0.20910 -0.02700
H 	H 	0.22650 0.29240 0.21700 0.04900
C 	C 	0.13480 0.20010 0.13080 -0.09200
C 	C 	0.01960 0.15300 0.12120 0.22500
C 	C 	0.92190 0.16340 0.18730 0.23900
C 	C 	0.24210 0.18770 0.06290 0.17300
C 	C 	0.32080 0.28560 0.03620 -0.19400
H 	H 	0.30860 0.35830 0.06190 0.10900
C 	C 	0.41790 0.27540 0.97110 0.11400
H 	H 	0.46860 0.34280 0.95350 -0.00800
C 	C 	0.36780 0.07560 0.95990 0.11400
H 	H 	0.38460 0.00300 0.93470 0.01200
C 	C 	0.26700 0.07790 0.02420 -0.18100
H 	H 	0.21800 0.00910 0.04090 0.16100
