data_crystal

_cell_length_a 13.45660
_cell_length_b 18.99750
_cell_length_c 18.99750
_cell_angle_alpha 120.00000
_cell_angle_beta  90.00000
_cell_angle_gamma 90.00000

_symmetry_space_group_name_	'P 1'
_symmetry_space_group_name_H-M	'P 1'

loop_
_symmetry_equiv_pos_as_xyz
  x,y,z

loop_
_atom_site_label
_atom_site_type_symbol
_atom_site_fract_x
_atom_site_fract_y
_atom_site_fract_z
_atom_site_charge
Cu	Cu	0.73874 0.62278 0.81139 0.90700
Cu	Cu	0.90660 0.70732 0.85366 0.92300
Cu	Cu	0.73874 0.18861 0.37722 0.90700
Cu	Cu	0.90660 0.14634 0.29268 0.92300
Cu	Cu	0.73874 0.18861 0.81139 0.90700
Cu	Cu	0.90660 0.14634 0.85366 0.92300
Cu	Cu	0.23874 0.37722 0.18861 0.90700
Cu	Cu	0.40660 0.29268 0.14634 0.92100
Cu	Cu	0.23874 0.81139 0.62278 0.90700
Cu	Cu	0.40660 0.85366 0.70732 0.92100
Cu	Cu	0.23874 0.81139 0.18861 0.90700
Cu	Cu	0.40660 0.85366 0.14634 0.92100
H 	H 	0.03940 0.59160 0.61340 0.03700
H 	H 	0.57140 0.77510 0.75540 0.02800
H 	H 	0.03940 0.02180 0.40840 0.03700
H 	H 	0.57140 0.98030 0.22490 0.02800
H 	H 	0.03940 0.38660 0.97820 0.03700
H 	H 	0.57140 0.24460 0.01970 0.02800
H 	H 	0.53940 0.40840 0.38660 0.03200
H 	H 	0.07140 0.22490 0.24460 0.02400
H 	H 	0.53940 0.97820 0.59160 0.03200
H 	H 	0.07140 0.01970 0.77510 0.02300
H 	H 	0.53940 0.61340 0.02180 0.03100
H 	H 	0.07140 0.75540 0.98030 0.02300
H 	H 	0.03940 0.02180 0.61340 0.03600
H 	H 	0.57140 0.98030 0.75540 0.02700
H 	H 	0.03940 0.38660 0.40840 0.03600
H 	H 	0.57140 0.24460 0.22490 0.02700
H 	H 	0.03940 0.59160 0.97820 0.03600
H 	H 	0.57140 0.77510 0.01970 0.02700
H 	H 	0.53940 0.97820 0.38660 0.03100
H 	H 	0.07140 0.01970 0.24460 0.02300
H 	H 	0.53940 0.61340 0.59160 0.03100
H 	H 	0.07140 0.75540 0.77510 0.02300
H 	H 	0.53940 0.40840 0.02180 0.03100
H 	H 	0.07140 0.22490 0.98030 0.02300
H 	H 	0.82100 0.43135 0.56865 0.04900
H 	H 	0.82100 0.13730 0.56865 0.04800
H 	H 	0.82100 0.43135 0.86270 0.04800
H 	H 	0.32100 0.56865 0.43135 0.04200
H 	H 	0.32100 0.86270 0.43135 0.04200
H 	H 	0.32100 0.56865 0.13730 0.04200
H 	H 	0.82490 0.89965 0.79930 0.04100
H 	H 	0.82490 0.89965 0.10035 0.04100
H 	H 	0.82490 0.20070 0.10035 0.04100
H 	H 	0.32490 0.10035 0.20070 0.03800
H 	H 	0.32490 0.10035 0.89965 0.03800
H 	H 	0.32490 0.79930 0.89965 0.03800
C 	C 	0.01130 0.54080 0.57970 0.06500
C 	C 	0.93060 0.51800 0.60720 -0.10000
C 	C 	0.88820 0.57150 0.69100 0.36000
C 	C 	0.60550 0.82050 0.76190 0.09600
C 	C 	0.70590 0.82660 0.78010 -0.13400
C 	C 	0.75510 0.76380 0.79280 0.37800
C 	C 	0.01130 0.03890 0.45920 0.06500
C 	C 	0.93060 0.08920 0.48200 -0.10000
C 	C 	0.88820 0.11950 0.42850 0.36000
C 	C 	0.60550 0.94140 0.17950 0.09600
C 	C 	0.70590 0.95350 0.17340 -0.13400
C 	C 	0.75510 0.02900 0.23620 0.37900
C 	C 	0.01130 0.42030 0.96110 0.06500
C 	C 	0.93060 0.39280 0.91080 -0.10000
C 	C 	0.88820 0.30900 0.88050 0.36000
C 	C 	0.60550 0.23810 0.05860 0.09600
C 	C 	0.70590 0.21990 0.04650 -0.13400
C 	C 	0.75510 0.20720 0.97100 0.37800
C 	C 	0.51130 0.45920 0.42030 0.09100
C 	C 	0.43060 0.48200 0.39280 -0.12600
C 	C 	0.38820 0.42850 0.30900 0.36800
C 	C 	0.10550 0.17950 0.23810 0.09500
C 	C 	0.20590 0.17340 0.21990 -0.13700
C 	C 	0.25510 0.23620 0.20720 0.37900
C 	C 	0.51130 0.96110 0.54080 0.09100
C 	C 	0.43060 0.91080 0.51800 -0.12600
C 	C 	0.38820 0.88050 0.57150 0.36800
C 	C 	0.10550 0.05860 0.82050 0.09500
C 	C 	0.20590 0.04650 0.82660 -0.13700
C 	C 	0.25510 0.97100 0.76380 0.37900
C 	C 	0.51130 0.57970 0.03890 0.09100
C 	C 	0.43060 0.60720 0.08920 -0.12600
C 	C 	0.38820 0.69100 0.11950 0.36800
C 	C 	0.10550 0.76190 0.94140 0.09500
C 	C 	0.20590 0.78010 0.95350 -0.13700
C 	C 	0.25510 0.79280 0.02900 0.37900
C 	C 	0.01130 0.03890 0.57970 0.06500
C 	C 	0.93060 0.08920 0.60720 -0.10000
C 	C 	0.88820 0.11950 0.69100 0.36000
C 	C 	0.60550 0.94140 0.76190 0.09600
C 	C 	0.70590 0.95350 0.78010 -0.13400
C 	C 	0.75510 0.02900 0.79280 0.37800
C 	C 	0.01130 0.42030 0.45920 0.06500
C 	C 	0.93060 0.39280 0.48200 -0.10000
C 	C 	0.88820 0.30900 0.42850 0.36000
C 	C 	0.60550 0.23810 0.17950 0.09600
C 	C 	0.70590 0.21990 0.17340 -0.13400
C 	C 	0.75510 0.20720 0.23620 0.37800
C 	C 	0.01130 0.54080 0.96110 0.06500
C 	C 	0.93060 0.51800 0.91080 -0.10000
C 	C 	0.88820 0.57150 0.88050 0.36000
C 	C 	0.60550 0.82050 0.05860 0.09600
C 	C 	0.70590 0.82660 0.04650 -0.13400
C 	C 	0.75510 0.76380 0.97100 0.37900
C 	C 	0.51130 0.96110 0.42030 0.09100
C 	C 	0.43060 0.91080 0.39280 -0.12600
C 	C 	0.38820 0.88050 0.30900 0.36800
C 	C 	0.10550 0.05860 0.23810 0.09500
C 	C 	0.20590 0.04650 0.21990 -0.13700
C 	C 	0.25510 0.97100 0.20720 0.37900
C 	C 	0.51130 0.57970 0.54080 0.09100
C 	C 	0.43060 0.60720 0.51800 -0.12600
C 	C 	0.38820 0.69100 0.57150 0.36800
C 	C 	0.10550 0.76190 0.82050 0.09500
C 	C 	0.20590 0.78010 0.82660 -0.13700
C 	C 	0.25510 0.79280 0.76380 0.37900
C 	C 	0.51130 0.45920 0.03890 0.09100
C 	C 	0.43060 0.48200 0.08920 -0.12600
C 	C 	0.38820 0.42850 0.11950 0.36800
C 	C 	0.10550 0.17950 0.94140 0.09500
C 	C 	0.20590 0.17340 0.95350 -0.13700
C 	C 	0.25510 0.23620 0.02900 0.37900
C 	C 	0.88440 0.44400 0.55600 0.05300
C 	C 	0.88440 0.11200 0.55600 0.05300
C 	C 	0.88440 0.44400 0.88800 0.05300
C 	C 	0.38440 0.55600 0.44400 0.07200
C 	C 	0.38440 0.88800 0.44400 0.07200
C 	C 	0.38440 0.55600 0.11200 0.07200
C 	C 	0.75710 0.89420 0.78840 0.08200
C 	C 	0.75710 0.89420 0.10580 0.08200
C 	C 	0.75710 0.21160 0.10580 0.08200
C 	C 	0.25710 0.10580 0.21160 0.08300
C 	C 	0.25710 0.10580 0.89420 0.08300
C 	C 	0.25710 0.78840 0.89420 0.08300
N 	N 	0.05140 0.49345 0.50655 -0.11900
N 	N 	0.05140 0.01310 0.50655 -0.11900
N 	N 	0.05140 0.49345 0.98690 -0.11900
N 	N 	0.55140 0.50655 0.49345 -0.12600
N 	N 	0.55140 0.98690 0.49345 -0.12600
N 	N 	0.55140 0.50655 0.01310 -0.12600
N 	N 	0.55450 0.87653 0.75306 -0.19200
N 	N 	0.55450 0.87653 0.12347 -0.19200
N 	N 	0.55450 0.24694 0.12347 -0.19200
N 	N 	0.05450 0.12347 0.24694 -0.19600
N 	N 	0.05450 0.12347 0.87653 -0.19600
N 	N 	0.05450 0.75306 0.87653 -0.19600
O 	O 	0.80240 0.55570 0.70570 -0.39800
O 	O 	0.94270 0.62890 0.74110 -0.39000
O 	O 	0.70230 0.70380 0.78040 -0.40700
O 	O 	0.84340 0.77580 0.81560 -0.39600
O 	O 	0.80240 0.15000 0.44430 -0.39800
O 	O 	0.94270 0.11220 0.37110 -0.39000
O 	O 	0.70230 0.07660 0.29620 -0.40700
O 	O 	0.84340 0.03980 0.22420 -0.39600
O 	O 	0.80240 0.29430 0.85000 -0.39800
O 	O 	0.94270 0.25890 0.88780 -0.39000
O 	O 	0.70230 0.21960 0.92340 -0.40700
O 	O 	0.84340 0.18440 0.96020 -0.39600
O 	O 	0.30240 0.44430 0.29430 -0.40100
O 	O 	0.44270 0.37110 0.25890 -0.39600
O 	O 	0.20230 0.29620 0.21960 -0.40900
O 	O 	0.34340 0.22420 0.18440 -0.39900
O 	O 	0.30240 0.85000 0.55570 -0.40100
O 	O 	0.44270 0.88780 0.62890 -0.39600
O 	O 	0.20230 0.92340 0.70380 -0.40900
O 	O 	0.34340 0.96020 0.77580 -0.39900
O 	O 	0.30240 0.70570 0.15000 -0.40100
O 	O 	0.44270 0.74110 0.11220 -0.39600
O 	O 	0.20230 0.78040 0.07660 -0.40900
O 	O 	0.34340 0.81560 0.03980 -0.39900
O 	O 	0.80240 0.15000 0.70570 -0.39800
O 	O 	0.94270 0.11220 0.74110 -0.39000
O 	O 	0.70230 0.07660 0.78040 -0.40700
O 	O 	0.84340 0.03980 0.81560 -0.39600
O 	O 	0.80240 0.29430 0.44430 -0.39800
O 	O 	0.94270 0.25890 0.37110 -0.39000
O 	O 	0.70230 0.21960 0.29620 -0.40700
O 	O 	0.84340 0.18440 0.22420 -0.39600
O 	O 	0.80240 0.55570 0.85000 -0.39800
O 	O 	0.94270 0.62890 0.88780 -0.39000
O 	O 	0.70230 0.70380 0.92340 -0.40700
O 	O 	0.84340 0.77580 0.96020 -0.39600
O 	O 	0.30240 0.85000 0.29430 -0.40100
O 	O 	0.44270 0.88780 0.25890 -0.39600
O 	O 	0.20230 0.92340 0.21960 -0.40900
O 	O 	0.34340 0.96020 0.18440 -0.39900
O 	O 	0.30240 0.70570 0.55570 -0.40100
O 	O 	0.44270 0.74110 0.62890 -0.39600
O 	O 	0.20230 0.78040 0.70380 -0.40900
O 	O 	0.34340 0.81560 0.77580 -0.39900
O 	O 	0.30240 0.44430 0.15000 -0.40100
O 	O 	0.44270 0.37110 0.11220 -0.39600
O 	O 	0.20230 0.29620 0.07660 -0.40900
O 	O 	0.34340 0.22420 0.03980 -0.39900
