data_crystal

_cell_length_a 14.34800
_cell_length_b 14.47500
_cell_length_c 14.98300
_cell_angle_alpha 90.00000
_cell_angle_beta  90.00000
_cell_angle_gamma 90.00000

_symmetry_space_group_name_	'P 1'
_symmetry_space_group_name_H-M	'P 1'

loop_
_symmetry_equiv_pos_as_xyz
  x,y,z

loop_
_atom_site_label
_atom_site_type_symbol
_atom_site_fract_x
_atom_site_fract_y
_atom_site_fract_z
_atom_site_charge
C 	C 	0.03640 0.19960 0.24750 0.00500
H 	H 	0.97960 0.17510 0.27350 0.02500
H 	H 	0.03990 0.17970 0.18580 0.03200
C 	C 	0.12980 0.07310 0.30490 0.11800
C 	C 	0.07110 0.00670 0.26940 -0.13000
H 	H 	0.01930 0.02370 0.23590 0.06800
C 	C 	0.09190 0.91230 0.28510 -0.00500
H 	H 	0.05430 0.86580 0.26200 0.02300
C 	C 	0.17070 0.89110 0.33640 -0.03800
H 	H 	0.18340 0.82940 0.34890 0.04200
C 	C 	0.22850 0.95590 0.36820 -0.07700
H 	H 	0.28220 0.93760 0.39810 0.05000
C 	C 	0.21060 0.04920 0.35780 0.01800
C 	C 	0.03380 0.27770 0.53640 0.00500
C 	C 	0.99820 0.36730 0.52330 -0.07400
H 	H 	0.02860 0.41740 0.54910 0.03600
C 	C 	0.92000 0.38210 0.47340 -0.05800
H 	H 	0.89870 0.44210 0.46460 0.03000
C 	C 	0.87250 0.30980 0.43620 0.00500
H 	H 	0.81890 0.32030 0.40280 0.01400
C 	C 	0.90480 0.22130 0.44860 -0.14100
H 	H 	0.87230 0.17190 0.42400 0.07400
C 	C 	0.98440 0.20520 0.49680 0.12100
C 	C 	0.97410 0.04000 0.48290 0.00700
H 	H 	0.97070 0.03800 0.41830 0.03400
H 	H 	0.91120 0.04040 0.50660 0.03300
N 	N 	0.26980 0.12530 0.38770 -0.30700
H 	H 	0.28300 0.15630 0.33710 0.13300
H 	H 	0.32340 0.09750 0.40350 0.10100
N 	N 	0.11610 0.25870 0.58340 -0.30200
H 	H 	0.10860 0.20470 0.61230 0.09100
H 	H 	0.12360 0.30280 0.62510 0.08300
O 	O 	0.02370 0.11990 0.51150 -0.24100
O 	O 	0.11690 0.16640 0.29670 -0.22500
Ag	Ag	0.22190 0.19770 0.50080 0.50900
C 	C 	0.46360 0.30040 0.24750 0.00300
H 	H 	0.52040 0.32490 0.27350 0.02600
H 	H 	0.46010 0.32030 0.18580 0.03200
C 	C 	0.37020 0.42690 0.30490 0.11900
C 	C 	0.42890 0.49330 0.26940 -0.13300
H 	H 	0.48070 0.47630 0.23590 0.06900
C 	C 	0.40810 0.58770 0.28510 -0.00100
H 	H 	0.44570 0.63420 0.26200 0.02200
C 	C 	0.32930 0.60890 0.33640 -0.04100
H 	H 	0.31660 0.67060 0.34890 0.04300
C 	C 	0.27150 0.54410 0.36820 -0.07400
H 	H 	0.21780 0.56240 0.39810 0.05000
C 	C 	0.28940 0.45080 0.35780 0.01600
C 	C 	0.46620 0.22230 0.53640 0.00400
C 	C 	0.50180 0.13270 0.52330 -0.07200
H 	H 	0.47140 0.08260 0.54910 0.03600
C 	C 	0.58000 0.11790 0.47340 -0.05900
H 	H 	0.60130 0.05790 0.46460 0.03000
C 	C 	0.62750 0.19020 0.43620 0.00700
H 	H 	0.68110 0.17970 0.40280 0.01400
C 	C 	0.59520 0.27870 0.44860 -0.14300
H 	H 	0.62770 0.32810 0.42400 0.07500
C 	C 	0.51560 0.29480 0.49680 0.12300
C 	C 	0.52590 0.46000 0.48290 0.00800
H 	H 	0.52930 0.46200 0.41830 0.03400
H 	H 	0.58880 0.45960 0.50660 0.03200
N 	N 	0.23020 0.37470 0.38770 -0.30700
H 	H 	0.21700 0.34370 0.33710 0.13300
H 	H 	0.17660 0.40250 0.40350 0.10100
N 	N 	0.38390 0.24130 0.58340 -0.30200
H 	H 	0.39140 0.29530 0.61230 0.09100
H 	H 	0.37640 0.19720 0.62510 0.08300
O 	O 	0.47630 0.38010 0.51150 -0.24200
O 	O 	0.38310 0.33360 0.29670 -0.22500
Ag	Ag	0.27810 0.30230 0.50080 0.50900
C 	C 	0.46360 0.19960 0.25250 0.00300
H 	H 	0.52040 0.17510 0.22650 0.02700
H 	H 	0.46010 0.17970 0.31420 0.03200
C 	C 	0.37020 0.07310 0.19510 0.11800
C 	C 	0.42890 0.00670 0.23060 -0.13000
H 	H 	0.48070 0.02370 0.26410 0.06800
C 	C 	0.40810 0.91230 0.21490 -0.00400
H 	H 	0.44570 0.86580 0.23800 0.02300
C 	C 	0.32930 0.89110 0.16360 -0.03800
H 	H 	0.31660 0.82940 0.15110 0.04200
C 	C 	0.27150 0.95590 0.13180 -0.07700
H 	H 	0.21780 0.93760 0.10190 0.05100
C 	C 	0.28940 0.04920 0.14220 0.01900
C 	C 	0.46620 0.27770 0.96360 0.00300
C 	C 	0.50180 0.36730 0.97670 -0.07100
H 	H 	0.47140 0.41740 0.95090 0.03500
C 	C 	0.58000 0.38210 0.02660 -0.06000
H 	H 	0.60130 0.44210 0.03540 0.03100
C 	C 	0.62750 0.30980 0.06380 0.00800
H 	H 	0.68110 0.32030 0.09720 0.01300
C 	C 	0.59520 0.22130 0.05140 -0.14400
H 	H 	0.62770 0.17190 0.07600 0.07500
C 	C 	0.51560 0.20520 0.00320 0.12500
C 	C 	0.52590 0.04000 0.01710 0.01000
H 	H 	0.52930 0.03800 0.08170 0.03400
H 	H 	0.58880 0.04040 0.99340 0.03200
N 	N 	0.23020 0.12530 0.11230 -0.30700
H 	H 	0.21700 0.15630 0.16290 0.13300
H 	H 	0.17660 0.09750 0.09650 0.10200
N 	N 	0.38390 0.25870 0.91660 -0.30200
H 	H 	0.39140 0.20470 0.88770 0.09100
H 	H 	0.37640 0.30280 0.87490 0.08300
O 	O 	0.47630 0.11990 0.98850 -0.24400
O 	O 	0.38310 0.16640 0.20330 -0.22500
Ag	Ag	0.27810 0.19770 0.99920 0.50800
C 	C 	0.03640 0.30040 0.25250 0.00500
H 	H 	0.97960 0.32490 0.22650 0.02500
H 	H 	0.03990 0.32030 0.31420 0.03200
C 	C 	0.12980 0.42690 0.19510 0.12000
C 	C 	0.07110 0.49330 0.23060 -0.13300
H 	H 	0.01930 0.47630 0.26410 0.06900
C 	C 	0.09190 0.58770 0.21490 -0.00100
H 	H 	0.05430 0.63420 0.23800 0.02200
C 	C 	0.17070 0.60890 0.16360 -0.04100
H 	H 	0.18340 0.67060 0.15110 0.04300
C 	C 	0.22850 0.54410 0.13180 -0.07400
H 	H 	0.28220 0.56240 0.10190 0.05000
C 	C 	0.21060 0.45080 0.14220 0.01600
C 	C 	0.03380 0.22230 0.96360 -0.00200
C 	C 	0.99820 0.13270 0.97670 -0.05900
H 	H 	0.02860 0.08260 0.95090 0.03000
C 	C 	0.92000 0.11790 0.02660 -0.07100
H 	H 	0.89870 0.05790 0.03540 0.03400
C 	C 	0.87250 0.19020 0.06380 0.01500
H 	H 	0.81890 0.17970 0.09720 0.01100
C 	C 	0.90480 0.27870 0.05140 -0.14900
H 	H 	0.87230 0.32810 0.07600 0.07700
C 	C 	0.98440 0.29480 0.00320 0.12700
C 	C 	0.97410 0.46000 0.01710 0.00600
H 	H 	0.97070 0.46200 0.08170 0.03400
H 	H 	0.91120 0.45960 0.99340 0.03500
N 	N 	0.26980 0.37470 0.11230 -0.30700
H 	H 	0.28300 0.34370 0.16290 0.13300
H 	H 	0.32340 0.40250 0.09650 0.10100
N 	N 	0.11610 0.24130 0.91660 -0.30100
H 	H 	0.10860 0.29530 0.88770 0.09100
H 	H 	0.12360 0.19720 0.87490 0.08300
O 	O 	0.02370 0.38010 0.98850 -0.24300
O 	O 	0.11690 0.33360 0.20330 -0.22500
Ag	Ag	0.22190 0.30230 0.99920 0.50800
C 	C 	0.96360 0.80040 0.75250 0.00500
H 	H 	0.02040 0.82490 0.72650 0.02500
H 	H 	0.96010 0.82030 0.81420 0.03200
C 	C 	0.87020 0.92690 0.69510 0.11800
C 	C 	0.92890 0.99330 0.73060 -0.13000
H 	H 	0.98070 0.97630 0.76410 0.06800
C 	C 	0.90810 0.08770 0.71490 -0.00500
H 	H 	0.94570 0.13420 0.73800 0.02300
C 	C 	0.82930 0.10890 0.66360 -0.03800
H 	H 	0.81660 0.17060 0.65110 0.04200
C 	C 	0.77150 0.04410 0.63180 -0.07700
H 	H 	0.71780 0.06240 0.60190 0.05000
C 	C 	0.78940 0.95080 0.64220 0.01800
C 	C 	0.96620 0.72230 0.46360 0.00500
C 	C 	0.00180 0.63270 0.47670 -0.07400
H 	H 	0.97140 0.58260 0.45090 0.03600
C 	C 	0.08000 0.61790 0.52660 -0.05800
H 	H 	0.10130 0.55790 0.53540 0.03000
C 	C 	0.12750 0.69020 0.56380 0.00500
H 	H 	0.18110 0.67970 0.59720 0.01400
C 	C 	0.09520 0.77870 0.55140 -0.14100
H 	H 	0.12770 0.82810 0.57600 0.07400
C 	C 	0.01560 0.79480 0.50320 0.12100
C 	C 	0.02590 0.96000 0.51710 0.00700
H 	H 	0.02930 0.96200 0.58170 0.03400
H 	H 	0.08880 0.95960 0.49340 0.03300
N 	N 	0.73020 0.87470 0.61230 -0.30700
H 	H 	0.71700 0.84370 0.66290 0.13300
H 	H 	0.67660 0.90250 0.59650 0.10100
N 	N 	0.88390 0.74130 0.41660 -0.30200
H 	H 	0.89140 0.79530 0.38770 0.09100
H 	H 	0.87640 0.69720 0.37490 0.08300
O 	O 	0.97630 0.88010 0.48850 -0.24100
O 	O 	0.88310 0.83360 0.70330 -0.22500
Ag	Ag	0.77810 0.80230 0.49920 0.50900
C 	C 	0.53640 0.69960 0.75250 0.00300
H 	H 	0.47960 0.67510 0.72650 0.02600
H 	H 	0.53990 0.67970 0.81420 0.03200
C 	C 	0.62980 0.57310 0.69510 0.11900
C 	C 	0.57110 0.50670 0.73060 -0.13300
H 	H 	0.51930 0.52370 0.76410 0.06900
C 	C 	0.59190 0.41230 0.71490 -0.00100
H 	H 	0.55430 0.36580 0.73800 0.02200
C 	C 	0.67070 0.39110 0.66360 -0.04100
H 	H 	0.68340 0.32940 0.65110 0.04300
C 	C 	0.72850 0.45590 0.63180 -0.07400
H 	H 	0.78220 0.43760 0.60190 0.05000
C 	C 	0.71060 0.54920 0.64220 0.01600
C 	C 	0.53380 0.77770 0.46360 0.00400
C 	C 	0.49820 0.86730 0.47670 -0.07200
H 	H 	0.52860 0.91740 0.45090 0.03600
C 	C 	0.42000 0.88210 0.52660 -0.05900
H 	H 	0.39870 0.94210 0.53540 0.03000
C 	C 	0.37250 0.80980 0.56380 0.00700
H 	H 	0.31890 0.82030 0.59720 0.01400
C 	C 	0.40480 0.72130 0.55140 -0.14300
H 	H 	0.37230 0.67190 0.57600 0.07500
C 	C 	0.48440 0.70520 0.50320 0.12300
C 	C 	0.47410 0.54000 0.51710 0.00800
H 	H 	0.47070 0.53800 0.58170 0.03400
H 	H 	0.41120 0.54040 0.49340 0.03200
N 	N 	0.76980 0.62530 0.61230 -0.30700
H 	H 	0.78300 0.65630 0.66290 0.13300
H 	H 	0.82340 0.59750 0.59650 0.10100
N 	N 	0.61610 0.75870 0.41660 -0.30200
H 	H 	0.60860 0.70470 0.38770 0.09100
H 	H 	0.62360 0.80280 0.37490 0.08300
O 	O 	0.52370 0.61990 0.48850 -0.24200
O 	O 	0.61690 0.66640 0.70330 -0.22500
Ag	Ag	0.72190 0.69770 0.49920 0.50900
C 	C 	0.53640 0.80040 0.74750 0.00300
H 	H 	0.47960 0.82490 0.77350 0.02700
H 	H 	0.53990 0.82030 0.68580 0.03200
C 	C 	0.62980 0.92690 0.80490 0.11800
C 	C 	0.57110 0.99330 0.76940 -0.13000
H 	H 	0.51930 0.97630 0.73590 0.06800
C 	C 	0.59190 0.08770 0.78510 -0.00400
H 	H 	0.55430 0.13420 0.76200 0.02300
C 	C 	0.67070 0.10890 0.83640 -0.03800
H 	H 	0.68340 0.17060 0.84890 0.04200
C 	C 	0.72850 0.04410 0.86820 -0.07700
H 	H 	0.78220 0.06240 0.89810 0.05100
C 	C 	0.71060 0.95080 0.85780 0.01900
C 	C 	0.53380 0.72230 0.03640 0.00300
C 	C 	0.49820 0.63270 0.02330 -0.07100
H 	H 	0.52860 0.58260 0.04910 0.03500
C 	C 	0.42000 0.61790 0.97340 -0.06000
H 	H 	0.39870 0.55790 0.96460 0.03100
C 	C 	0.37250 0.69020 0.93620 0.00800
H 	H 	0.31890 0.67970 0.90280 0.01300
C 	C 	0.40480 0.77870 0.94860 -0.14400
H 	H 	0.37230 0.82810 0.92400 0.07500
C 	C 	0.48440 0.79480 0.99680 0.12500
C 	C 	0.47410 0.96000 0.98290 0.01000
H 	H 	0.47070 0.96200 0.91830 0.03400
H 	H 	0.41120 0.95960 0.00660 0.03200
N 	N 	0.76980 0.87470 0.88770 -0.30700
H 	H 	0.78300 0.84370 0.83710 0.13300
H 	H 	0.82340 0.90250 0.90350 0.10200
N 	N 	0.61610 0.74130 0.08340 -0.30200
H 	H 	0.60860 0.79530 0.11230 0.09100
H 	H 	0.62360 0.69720 0.12510 0.08300
O 	O 	0.52370 0.88010 0.01150 -0.24400
O 	O 	0.61690 0.83360 0.79670 -0.22500
Ag	Ag	0.72190 0.80230 0.00080 0.50800
C 	C 	0.96360 0.69960 0.74750 0.00500
H 	H 	0.02040 0.67510 0.77350 0.02500
H 	H 	0.96010 0.67970 0.68580 0.03200
C 	C 	0.87020 0.57310 0.80490 0.12000
C 	C 	0.92890 0.50670 0.76940 -0.13300
H 	H 	0.98070 0.52370 0.73590 0.06900
C 	C 	0.90810 0.41230 0.78510 -0.00100
H 	H 	0.94570 0.36580 0.76200 0.02200
C 	C 	0.82930 0.39110 0.83640 -0.04100
H 	H 	0.81660 0.32940 0.84890 0.04300
C 	C 	0.77150 0.45590 0.86820 -0.07400
H 	H 	0.71780 0.43760 0.89810 0.05000
C 	C 	0.78940 0.54920 0.85780 0.01600
C 	C 	0.96620 0.77770 0.03640 -0.00200
C 	C 	0.00180 0.86730 0.02330 -0.05900
H 	H 	0.97140 0.91740 0.04910 0.03000
C 	C 	0.08000 0.88210 0.97340 -0.07100
H 	H 	0.10130 0.94210 0.96460 0.03400
C 	C 	0.12750 0.80980 0.93620 0.01500
H 	H 	0.18110 0.82030 0.90280 0.01100
C 	C 	0.09520 0.72130 0.94860 -0.14900
H 	H 	0.12770 0.67190 0.92400 0.07700
C 	C 	0.01560 0.70520 0.99680 0.12700
C 	C 	0.02590 0.54000 0.98290 0.00600
H 	H 	0.02930 0.53800 0.91830 0.03400
H 	H 	0.08880 0.54040 0.00660 0.03500
N 	N 	0.73020 0.62530 0.88770 -0.30700
H 	H 	0.71700 0.65630 0.83710 0.13300
H 	H 	0.67660 0.59750 0.90350 0.10100
N 	N 	0.88390 0.75870 0.08340 -0.30100
H 	H 	0.89140 0.70470 0.11230 0.09100
H 	H 	0.87640 0.80280 0.12510 0.08300
O 	O 	0.97630 0.61990 0.01150 -0.24300
O 	O 	0.88310 0.66640 0.79670 -0.22500
Ag	Ag	0.77810 0.69770 0.00080 0.50800
Ag	Ag	0.25000 0.25000 0.50177 -0.12300
Ag	Ag	0.25000 0.25000 0.99823 -0.12200
Ag	Ag	0.75000 0.75000 0.49823 -0.12300
Ag	Ag	0.75000 0.75000 0.00177 -0.12200
