data_crystal

_cell_length_a 16.20790
_cell_length_b 17.83300
_cell_length_c 11.65080
_cell_angle_alpha 90.00000
_cell_angle_beta  90.00000
_cell_angle_gamma 90.00000

_symmetry_space_group_name_	'P 1'
_symmetry_space_group_name_H-M	'P 1'

loop_
_symmetry_equiv_pos_as_xyz
  x,y,z

loop_
_atom_site_label
_atom_site_type_symbol
_atom_site_fract_x
_atom_site_fract_y
_atom_site_fract_z
_atom_site_charge
C 	C 	0.19890 0.39990 0.83570 -0.09200
C 	C 	0.45930 0.44950 0.74460 0.08800
H 	H 	0.42964 0.41305 0.78416 0.00500
C 	C 	0.45820 0.44750 0.62660 -0.13200
H 	H 	0.42870 0.41013 0.58903 0.07700
C 	C 	0.43390 0.13000 0.74570 0.07800
H 	H 	0.46055 0.09198 0.78586 0.02500
C 	C 	0.43880 0.13000 0.62690 -0.12000
H 	H 	0.46821 0.09249 0.58951 0.07300
C 	C 	0.40016 0.18545 0.56370 0.05000
C 	C 	0.35920 0.23957 0.62560 -0.12200
H 	H 	0.33311 0.27884 0.58771 0.07400
C 	C 	0.35670 0.23576 0.74440 0.07100
H 	H 	0.32828 0.27298 0.78383 0.02000
N 	N 	0.20029 0.40081 0.73670 -0.06600
N 	N 	0.39288 0.18172 0.80501 -0.20800
C 	C 	0.80110 0.60010 0.83570 -0.08900
C 	C 	0.54070 0.55050 0.74460 0.08700
H 	H 	0.57036 0.58695 0.78416 0.00500
C 	C 	0.54180 0.55250 0.62660 -0.13200
H 	H 	0.57130 0.58987 0.58903 0.07800
C 	C 	0.56610 0.87000 0.74570 0.08300
H 	H 	0.53945 0.90802 0.78586 0.03200
C 	C 	0.56120 0.87000 0.62690 -0.11800
H 	H 	0.53179 0.90751 0.58951 0.08200
C 	C 	0.59984 0.81455 0.56370 0.05400
C 	C 	0.64080 0.76043 0.62560 -0.12100
H 	H 	0.66689 0.72116 0.58771 0.07700
C 	C 	0.64330 0.76424 0.74440 0.07500
H 	H 	0.67172 0.72702 0.78383 0.02100
N 	N 	0.79971 0.59919 0.73670 -0.06000
N 	N 	0.60712 0.81828 0.80501 -0.20700
C 	C 	0.30110 0.89990 0.16430 -0.23900
C 	C 	0.04070 0.94950 0.25540 0.09200
H 	H 	0.07036 0.91305 0.21584 -0.04300
C 	C 	0.04180 0.94750 0.37340 -0.11600
H 	H 	0.07130 0.91013 0.41097 0.07100
C 	C 	0.06610 0.63000 0.25430 0.07500
H 	H 	0.03945 0.59198 0.21414 -0.02600
C 	C 	0.06120 0.63000 0.37310 -0.14000
H 	H 	0.03179 0.59249 0.41049 0.07300
C 	C 	0.09984 0.68545 0.43630 0.06000
C 	C 	0.14080 0.73957 0.37440 -0.14000
H 	H 	0.16689 0.77884 0.41229 0.07800
C 	C 	0.14330 0.73576 0.25560 0.06700
H 	H 	0.17172 0.77298 0.21617 -0.02400
N 	N 	0.29971 0.90081 0.26330 -0.04700
N 	N 	0.10712 0.68172 0.19499 -0.26800
C 	C 	0.69890 0.10010 0.16430 -0.25300
C 	C 	0.95930 0.05050 0.25540 0.09300
H 	H 	0.92964 0.08695 0.21584 -0.04200
C 	C 	0.95820 0.05250 0.37340 -0.11400
H 	H 	0.92870 0.08987 0.41097 0.07100
C 	C 	0.93390 0.37000 0.25430 0.08000
H 	H 	0.96055 0.40802 0.21414 -0.01200
C 	C 	0.93880 0.37000 0.37310 -0.13600
H 	H 	0.96821 0.40751 0.41049 0.08500
C 	C 	0.90016 0.31455 0.43630 0.06300
C 	C 	0.85920 0.26043 0.37440 -0.13900
H 	H 	0.83311 0.22116 0.41229 0.07800
C 	C 	0.85670 0.26424 0.25560 0.06900
H 	H 	0.82828 0.22702 0.21617 -0.02300
N 	N 	0.70029 0.09919 0.26330 -0.05100
N 	N 	0.89288 0.31828 0.19499 -0.26400
C 	C 	0.80110 0.60010 0.16430 -0.24300
C 	C 	0.54070 0.55050 0.25540 0.08500
H 	H 	0.57036 0.58695 0.21584 -0.04300
C 	C 	0.54180 0.55250 0.37340 -0.15500
H 	H 	0.57130 0.58987 0.41097 0.08100
C 	C 	0.56610 0.87000 0.25430 0.07900
H 	H 	0.53945 0.90802 0.21414 -0.01500
C 	C 	0.56120 0.87000 0.37310 -0.13700
H 	H 	0.53179 0.90751 0.41049 0.08400
C 	C 	0.59984 0.81455 0.43630 0.06300
C 	C 	0.64080 0.76043 0.37440 -0.13900
H 	H 	0.66689 0.72116 0.41229 0.07900
C 	C 	0.64330 0.76424 0.25560 0.07000
H 	H 	0.67172 0.72702 0.21617 -0.02300
N 	N 	0.79971 0.59919 0.26330 -0.04600
N 	N 	0.60712 0.81828 0.19499 -0.26500
C 	C 	0.19890 0.39990 0.16430 -0.25000
C 	C 	0.45930 0.44950 0.25540 0.08500
H 	H 	0.42964 0.41305 0.21584 -0.04300
C 	C 	0.45820 0.44750 0.37340 -0.15500
H 	H 	0.42870 0.41013 0.41097 0.08100
C 	C 	0.43390 0.13000 0.25430 0.07500
H 	H 	0.46055 0.09198 0.21414 -0.02400
C 	C 	0.43880 0.13000 0.37310 -0.13900
H 	H 	0.46821 0.09249 0.41049 0.07500
C 	C 	0.40016 0.18545 0.43630 0.05900
C 	C 	0.35920 0.23957 0.37440 -0.14000
H 	H 	0.33311 0.27884 0.41229 0.07600
C 	C 	0.35670 0.23576 0.25560 0.06500
H 	H 	0.32828 0.27298 0.21617 -0.02400
N 	N 	0.20029 0.40081 0.26330 -0.05300
N 	N 	0.39288 0.18172 0.19499 -0.26700
C 	C 	0.69890 0.10010 0.83570 -0.09800
C 	C 	0.95930 0.05050 0.74460 0.09200
H 	H 	0.92964 0.08695 0.78416 0.00600
C 	C 	0.95820 0.05250 0.62660 -0.09200
H 	H 	0.92870 0.08987 0.58903 0.06700
C 	C 	0.93390 0.37000 0.74570 0.08300
H 	H 	0.96055 0.40802 0.78586 0.03500
C 	C 	0.93880 0.37000 0.62690 -0.11700
H 	H 	0.96821 0.40751 0.58951 0.08300
C 	C 	0.90016 0.31455 0.56370 0.05400
C 	C 	0.85920 0.26043 0.62560 -0.12100
H 	H 	0.83311 0.22116 0.58771 0.07600
C 	C 	0.85670 0.26424 0.74440 0.07400
H 	H 	0.82828 0.22702 0.78383 0.02100
N 	N 	0.70029 0.09919 0.73670 -0.06500
N 	N 	0.89288 0.31828 0.80501 -0.20600
C 	C 	0.30110 0.89990 0.83570 -0.08500
C 	C 	0.04070 0.94950 0.74460 0.09100
H 	H 	0.07036 0.91305 0.78416 0.00400
C 	C 	0.04180 0.94750 0.62660 -0.09300
H 	H 	0.07130 0.91013 0.58903 0.06700
C 	C 	0.06610 0.63000 0.74570 0.07800
H 	H 	0.03945 0.59198 0.78586 0.02200
C 	C 	0.06120 0.63000 0.62690 -0.12000
H 	H 	0.03179 0.59249 0.58951 0.07200
C 	C 	0.09984 0.68545 0.56370 0.05000
C 	C 	0.14080 0.73957 0.62560 -0.12200
H 	H 	0.16689 0.77884 0.58771 0.07600
C 	C 	0.14330 0.73576 0.74440 0.07200
H 	H 	0.17172 0.77298 0.78383 0.02000
N 	N 	0.29971 0.90081 0.73670 -0.06100
N 	N 	0.10712 0.68172 0.80501 -0.21000
C 	C 	0.08840 0.36889 -0.00000 -0.30900
C 	C 	0.16670 0.50120 -0.00000 -0.29600
C 	C 	0.23850 0.29980 -0.00000 -0.32100
C 	C 	0.30980 0.43146 -0.00000 -0.31400
N 	N 	0.02051 0.35099 -0.00000 -0.23700
N 	N 	0.15060 0.56365 -0.00000 -0.22700
N 	N 	0.27124 0.24251 -0.00000 -0.22400
N 	N 	0.37788 0.44824 -0.00000 -0.24500
Mn	Mn	0.19940 0.39971 -0.00000 1.29100
Mn	Mn	0.38922 0.17837 -0.00000 1.17800
C 	C 	0.91160 0.63111 -0.00000 -0.29200
C 	C 	0.83330 0.49880 -0.00000 -0.28900
C 	C 	0.76150 0.70020 -0.00000 -0.31300
C 	C 	0.69020 0.56854 -0.00000 -0.31400
N 	N 	0.97949 0.64901 -0.00000 -0.21200
N 	N 	0.84940 0.43635 -0.00000 -0.22300
N 	N 	0.72876 0.75749 -0.00000 -0.21900
N 	N 	0.62212 0.55176 -0.00000 -0.24500
Mn	Mn	0.80060 0.60029 -0.00000 1.29200
Mn	Mn	0.61078 0.82163 -0.00000 1.18100
C 	C 	0.41160 0.86889 -0.00000 -0.29400
C 	C 	0.33330 0.00120 -0.00000 -0.32000
C 	C 	0.26150 0.79980 -0.00000 -0.31800
C 	C 	0.19020 0.93146 -0.00000 -0.30500
N 	N 	0.47949 0.85099 -0.00000 -0.22500
N 	N 	0.34940 0.06365 -0.00000 -0.22400
N 	N 	0.22876 0.74251 -0.00000 -0.22200
N 	N 	0.12212 0.94824 -0.00000 -0.23900
Mn	Mn	0.30060 0.89971 -0.00000 1.29600
Mn	Mn	0.11078 0.67837 -0.00000 1.17600
C 	C 	0.58840 0.13111 -0.00000 -0.30800
C 	C 	0.66670 0.99880 -0.00000 -0.26300
C 	C 	0.73850 0.20020 -0.00000 -0.31600
C 	C 	0.80980 0.06854 -0.00000 -0.31900
N 	N 	0.52051 0.14901 -0.00000 -0.22600
N 	N 	0.65060 0.93635 -0.00000 -0.22500
N 	N 	0.77124 0.25749 -0.00000 -0.22100
N 	N 	0.87788 0.05176 -0.00000 -0.23800
Mn	Mn	0.69940 0.10029 -0.00000 1.28800
Mn	Mn	0.88922 0.32163 -0.00000 1.18400
C 	C 	0.50000 0.50000 0.56400 0.05800
N 	N 	0.50000 0.50000 0.80510 -0.22700
C 	C 	0.00000 0.00000 0.43600 0.01500
N 	N 	0.00000 0.00000 0.19490 -0.31600
C 	C 	0.50000 0.50000 0.43600 0.07100
N 	N 	0.50000 0.50000 0.19490 -0.28800
C 	C 	0.00000 -0.00000 0.56400 0.00400
N 	N 	-0.00000 -0.00000 0.80510 -0.25400
Mn	Mn	0.50000 0.50000 -0.00000 1.14700
Mn	Mn	-0.00000 0.00000 -0.00000 1.13200
