data_crystal

_cell_length_a 9.55450
_cell_length_b 9.55450
_cell_length_c 11.10850
_cell_angle_alpha 90.82930
_cell_angle_beta  90.82930
_cell_angle_gamma 107.22250

_symmetry_space_group_name_	'P 1'
_symmetry_space_group_name_H-M	'P 1'

loop_
_symmetry_equiv_pos_as_xyz
  x,y,z

loop_
_atom_site_label
_atom_site_type_symbol
_atom_site_fract_x
_atom_site_fract_y
_atom_site_fract_z
_atom_site_charge
K 	K 	0.64219 0.78981 0.49244 0.63000
O 	O 	0.44421 0.31999 0.15210 -0.50800
O 	O 	0.67750 0.38010 0.09900 -0.38200
O 	O 	0.47222 0.34538 0.87490 -0.49900
O 	O 	0.50030 0.20450 0.72370 -0.39200
C 	C 	0.55270 0.29450 0.09940 0.35100
C 	C 	0.48930 0.22730 0.83250 0.33000
C 	C 	0.52270 0.14310 0.04390 -0.07700
C 	C 	0.49580 0.11140 0.92120 -0.08000
C 	C 	0.52620 0.03120 0.12100 -0.00800
H 	H 	0.54360 0.05220 0.20280 0.02400
K 	K 	0.21019 0.35781 0.00756 0.63000
O 	O 	0.68001 0.55579 0.34790 -0.50800
O 	O 	0.61990 0.32250 0.40100 -0.38200
O 	O 	0.65462 0.52778 0.62510 -0.50000
O 	O 	0.79550 0.49970 0.77630 -0.39300
C 	C 	0.70550 0.44730 0.40060 0.35100
C 	C 	0.77270 0.51070 0.66750 0.33000
C 	C 	0.85690 0.47730 0.45610 -0.07700
C 	C 	0.88860 0.50420 0.57880 -0.08300
C 	C 	0.96880 0.47380 0.37900 -0.00600
H 	H 	0.94780 0.45640 0.29720 0.02400
K 	K 	0.35781 0.21019 0.50756 0.63000
O 	O 	0.55579 0.68001 0.84790 -0.50800
O 	O 	0.32250 0.61990 0.90100 -0.38200
O 	O 	0.52778 0.65462 0.12510 -0.49900
O 	O 	0.49970 0.79550 0.27630 -0.39200
C 	C 	0.44730 0.70550 0.90060 0.35100
C 	C 	0.51070 0.77270 0.16750 0.33000
C 	C 	0.47730 0.85690 0.95610 -0.07700
C 	C 	0.50420 0.88860 0.07880 -0.08000
C 	C 	0.47380 0.96880 0.87900 -0.00800
H 	H 	0.45640 0.94780 0.79720 0.02400
K 	K 	0.78981 0.64219 0.99244 0.63000
O 	O 	0.31999 0.44421 0.65210 -0.50800
O 	O 	0.38010 0.67750 0.59900 -0.38200
O 	O 	0.34538 0.47222 0.37490 -0.50000
O 	O 	0.20450 0.50030 0.22370 -0.39300
C 	C 	0.29450 0.55270 0.59940 0.35100
C 	C 	0.22730 0.48930 0.33250 0.33000
C 	C 	0.14310 0.52270 0.54390 -0.07700
C 	C 	0.11140 0.49580 0.42120 -0.08300
C 	C 	0.03120 0.52620 0.62100 -0.00600
H 	H 	0.05220 0.54360 0.70280 0.02400
Zn	Zn	0.49675 0.50325 0.25000 1.22500
Zn	Zn	0.50325 0.49675 0.75000 1.22500
