data_crystal

_cell_length_a 8.30400
_cell_length_b 8.72800
_cell_length_c 9.17700
_cell_angle_alpha 95.59000
_cell_angle_beta  115.70000
_cell_angle_gamma 110.26000

_symmetry_space_group_name_	'P 1'
_symmetry_space_group_name_H-M	'P 1'

loop_
_symmetry_equiv_pos_as_xyz
  x,y,z

loop_
_atom_site_label
_atom_site_type_symbol
_atom_site_fract_x
_atom_site_fract_y
_atom_site_fract_z
_atom_site_charge
Ce	Ce	0.91962 0.99195 0.73179 2.09300
Ce	Ce	0.08038 0.00805 0.26821 2.09300
C 	C 	0.32790 0.99580 0.10750 0.37600
C 	C 	0.45340 0.99990 0.03290 -0.09300
C 	C 	0.14900 0.44530 0.89020 0.35600
C 	C 	0.33080 0.57540 0.03990 -0.05100
C 	C 	0.47810 0.67450 0.16570 -0.11000
C 	C 	0.65520 0.79000 0.32360 0.45400
C 	C 	0.67210 0.00420 0.89250 0.37600
C 	C 	0.54660 0.00010 0.96710 -0.09300
C 	C 	0.85100 0.55470 0.10980 0.35600
C 	C 	0.66920 0.42460 0.96010 -0.05100
C 	C 	0.52190 0.32550 0.83430 -0.11000
C 	C 	0.34480 0.21000 0.67640 0.45400
O 	O 	0.15360 0.97520 0.01110 -0.61500
O 	O 	0.39430 0.01220 0.26220 -0.46400
O 	O 	0.08940 0.29720 0.90610 -0.47900
O 	O 	0.07100 0.48730 0.76290 -0.31700
O 	O 	0.63670 0.80250 0.45100 -0.54200
O 	O 	0.81090 0.86880 0.32270 -0.60800
O 	O 	0.84640 0.02480 0.98890 -0.61500
O 	O 	0.60570 0.98780 0.73780 -0.46400
O 	O 	0.91060 0.70280 0.09390 -0.47900
O 	O 	0.92900 0.51270 0.23710 -0.31700
O 	O 	0.36330 0.19750 0.54900 -0.54200
O 	O 	0.18910 0.13120 0.67730 -0.60800
