data_crystal

_cell_length_a 16.03900
_cell_length_b 17.85100
_cell_length_c 11.55800
_cell_angle_alpha 90.00000
_cell_angle_beta  90.00000
_cell_angle_gamma 90.00000

_symmetry_space_group_name_	'P 1'
_symmetry_space_group_name_H-M	'P 1'

loop_
_symmetry_equiv_pos_as_xyz
  x,y,z

loop_
_atom_site_label
_atom_site_type_symbol
_atom_site_fract_x
_atom_site_fract_y
_atom_site_fract_z
_atom_site_charge
C 	C 	0.20010 0.39240 0.82150 -0.08100
C 	C 	0.46020 0.45060 0.25540 0.11400
H 	H 	0.43011 0.41459 0.21497 -0.05100
C 	C 	0.45920 0.44760 0.37160 -0.17100
H 	H 	0.43011 0.40895 0.40752 0.08700
C 	C 	0.44350 0.13190 0.25530 0.12300
H 	H 	0.47336 0.09552 0.21539 -0.04600
C 	C 	0.44960 0.13160 0.37150 -0.18000
H 	H 	0.48289 0.09617 0.40807 0.08800
C 	C 	0.40720 0.18320 0.43570 0.07800
C 	C 	0.36580 0.23600 0.37500 -0.15800
H 	H 	0.33909 0.27500 0.41345 0.08100
C 	C 	0.36310 0.23200 0.25590 0.07700
H 	H 	0.33403 0.26887 0.21587 -0.02400
N 	N 	0.20310 0.39160 0.72170 -0.07600
N 	N 	0.40040 0.17770 0.19490 -0.27600
C 	C 	0.79990 0.60760 0.82150 -0.07700
C 	C 	0.53980 0.54940 0.25540 0.11400
H 	H 	0.56989 0.58541 0.21497 -0.05200
C 	C 	0.54080 0.55240 0.37160 -0.17200
H 	H 	0.56989 0.59105 0.40752 0.08700
C 	C 	0.55650 0.86810 0.25530 0.12800
H 	H 	0.52664 0.90448 0.21539 -0.03800
C 	C 	0.55040 0.86840 0.37150 -0.17800
H 	H 	0.51711 0.90383 0.40807 0.09600
C 	C 	0.59280 0.81680 0.43570 0.08200
C 	C 	0.63420 0.76400 0.37500 -0.15700
H 	H 	0.66091 0.72500 0.41345 0.08400
C 	C 	0.63690 0.76800 0.25590 0.08200
H 	H 	0.66597 0.73113 0.21587 -0.02300
N 	N 	0.79690 0.60840 0.72170 -0.06900
N 	N 	0.59960 0.82230 0.19490 -0.27400
C 	C 	0.29990 0.89240 0.17850 -0.21900
C 	C 	0.03980 0.95060 0.74460 0.11600
H 	H 	0.06989 0.91459 0.78503 -0.00300
C 	C 	0.04080 0.94760 0.62840 -0.10900
H 	H 	0.06989 0.90895 0.59248 0.07300
C 	C 	0.05650 0.63190 0.74470 0.11600
H 	H 	0.02664 0.59552 0.78461 0.00100
C 	C 	0.05040 0.63160 0.62850 -0.15200
H 	H 	0.01711 0.59617 0.59193 0.08100
C 	C 	0.09280 0.68320 0.56430 0.06100
C 	C 	0.13420 0.73600 0.62500 -0.13400
H 	H 	0.16091 0.77500 0.58655 0.07900
C 	C 	0.13690 0.73200 0.74410 0.08100
H 	H 	0.16597 0.76887 0.78413 0.02200
N 	N 	0.29690 0.89160 0.27830 -0.05700
N 	N 	0.09960 0.67770 0.80510 -0.21600
C 	C 	0.70010 0.10760 0.17850 -0.22300
C 	C 	0.96020 0.04940 0.74460 0.11800
H 	H 	0.93011 0.08541 0.78503 -0.00200
C 	C 	0.95920 0.05240 0.62840 -0.10800
H 	H 	0.93011 0.09105 0.59248 0.07300
C 	C 	0.94350 0.36810 0.74470 0.12000
H 	H 	0.97336 0.40448 0.78461 0.01500
C 	C 	0.94960 0.36840 0.62850 -0.14900
H 	H 	0.98289 0.40383 0.59193 0.09300
C 	C 	0.90720 0.31680 0.56430 0.06500
C 	C 	0.86580 0.26400 0.62500 -0.13300
H 	H 	0.83909 0.22500 0.58655 0.07900
C 	C 	0.86310 0.26800 0.74410 0.08300
H 	H 	0.83403 0.23113 0.78413 0.02200
N 	N 	0.70310 0.10840 0.27830 -0.06100
N 	N 	0.90040 0.32230 0.80510 -0.21200
C 	C 	0.79990 0.60760 0.17850 -0.21700
C 	C 	0.53980 0.54940 0.74460 0.10700
H 	H 	0.56989 0.58541 0.78503 -0.00100
C 	C 	0.54080 0.55240 0.62840 -0.14100
H 	H 	0.56989 0.59105 0.59248 0.08100
C 	C 	0.55650 0.86810 0.74470 0.12000
H 	H 	0.52664 0.90448 0.78461 0.01200
C 	C 	0.55040 0.86840 0.62850 -0.15000
H 	H 	0.51711 0.90383 0.59193 0.09100
C 	C 	0.59280 0.81680 0.56430 0.06500
C 	C 	0.63420 0.76400 0.62500 -0.13300
H 	H 	0.66091 0.72500 0.58655 0.08000
C 	C 	0.63690 0.76800 0.74410 0.08500
H 	H 	0.66597 0.73113 0.78413 0.02200
N 	N 	0.79690 0.60840 0.27830 -0.05600
N 	N 	0.59960 0.82230 0.80510 -0.21300
C 	C 	0.20010 0.39240 0.17850 -0.22500
C 	C 	0.46020 0.45060 0.74460 0.10700
H 	H 	0.43011 0.41459 0.78503 -0.00100
C 	C 	0.45920 0.44760 0.62840 -0.14000
H 	H 	0.43011 0.40895 0.59248 0.08000
C 	C 	0.44350 0.13190 0.74470 0.11500
H 	H 	0.47336 0.09552 0.78461 0.00500
C 	C 	0.44960 0.13160 0.62850 -0.15100
H 	H 	0.48289 0.09617 0.59193 0.08300
C 	C 	0.40720 0.18320 0.56430 0.06000
C 	C 	0.36580 0.23600 0.62500 -0.13400
H 	H 	0.33909 0.27500 0.58655 0.07700
C 	C 	0.36310 0.23200 0.74410 0.07900
H 	H 	0.33403 0.26887 0.78413 0.02200
N 	N 	0.20310 0.39160 0.27830 -0.06300
N 	N 	0.40040 0.17770 0.80510 -0.21400
C 	C 	0.70010 0.10760 0.82150 -0.08100
C 	C 	0.96020 0.04940 0.25540 0.12800
H 	H 	0.93011 0.08541 0.21497 -0.05300
C 	C 	0.95920 0.05240 0.37160 -0.14000
H 	H 	0.93011 0.09105 0.40752 0.08000
C 	C 	0.94350 0.36810 0.25530 0.12700
H 	H 	0.97336 0.40448 0.21539 -0.03400
C 	C 	0.94960 0.36840 0.37150 -0.17700
H 	H 	0.98289 0.40383 0.40807 0.09800
C 	C 	0.90720 0.31680 0.43570 0.08200
C 	C 	0.86580 0.26400 0.37500 -0.15700
H 	H 	0.83909 0.22500 0.41345 0.08300
C 	C 	0.86310 0.26800 0.25590 0.08100
H 	H 	0.83403 0.23113 0.21587 -0.02300
N 	N 	0.70310 0.10840 0.72170 -0.07400
N 	N 	0.90040 0.32230 0.19490 -0.27200
C 	C 	0.29990 0.89240 0.82150 -0.07900
C 	C 	0.03980 0.95060 0.25540 0.12600
H 	H 	0.06989 0.91459 0.21497 -0.05400
C 	C 	0.04080 0.94760 0.37160 -0.14100
H 	H 	0.06989 0.90895 0.40752 0.07900
C 	C 	0.05650 0.63190 0.25530 0.12300
H 	H 	0.02664 0.59552 0.21539 -0.05000
C 	C 	0.05040 0.63160 0.37150 -0.18100
H 	H 	0.01711 0.59617 0.40807 0.08600
C 	C 	0.09280 0.68320 0.43570 0.07800
C 	C 	0.13420 0.73600 0.37500 -0.15800
H 	H 	0.16091 0.77500 0.41345 0.08300
C 	C 	0.13690 0.73200 0.25590 0.07800
H 	H 	0.16597 0.76887 0.21587 -0.02300
N 	N 	0.29690 0.89160 0.72170 -0.07000
N 	N 	0.09960 0.67770 0.19490 -0.27700
C 	C 	0.08590 0.34830 -0.00000 -0.30500
C 	C 	0.15690 0.49820 -0.00000 -0.27300
C 	C 	0.25190 0.28950 -0.00000 -0.29000
C 	C 	0.31590 0.43160 -0.00000 -0.28200
N 	N 	0.02020 0.32200 -0.00000 -0.26300
N 	N 	0.13080 0.55710 -0.00000 -0.25700
N 	N 	0.29330 0.23560 -0.00000 -0.26900
N 	N 	0.38190 0.44720 -0.00000 -0.25700
Mn	Mn	0.19965 0.39083 -0.00000 1.24900
Mn	Mn	0.39321 0.16858 -0.00000 1.20300
C 	C 	0.91410 0.65170 -0.00000 -0.28600
C 	C 	0.84310 0.50180 -0.00000 -0.26400
C 	C 	0.74810 0.71050 -0.00000 -0.28100
C 	C 	0.68410 0.56840 -0.00000 -0.28200
N 	N 	0.97980 0.67800 -0.00000 -0.23700
N 	N 	0.86920 0.44290 -0.00000 -0.25200
N 	N 	0.70670 0.76440 -0.00000 -0.26400
N 	N 	0.61810 0.55280 -0.00000 -0.25700
Mn	Mn	0.80035 0.60917 -0.00000 1.25000
Mn	Mn	0.60679 0.83142 -0.00000 1.20600
C 	C 	0.41410 0.84830 -0.00000 -0.29500
C 	C 	0.34310 0.99820 -0.00000 -0.23600
C 	C 	0.24810 0.78950 -0.00000 -0.28600
C 	C 	0.18410 0.93160 -0.00000 -0.27900
N 	N 	0.47980 0.82200 -0.00000 -0.25100
N 	N 	0.36920 0.05710 -0.00000 -0.27900
N 	N 	0.20670 0.73560 -0.00000 -0.26700
N 	N 	0.11810 0.94720 -0.00000 -0.25100
Mn	Mn	0.30035 0.89083 -0.00000 1.24900
Mn	Mn	0.10679 0.66858 -0.00000 1.20100
C 	C 	0.58590 0.15170 -0.00000 -0.29800
C 	C 	0.65690 0.00180 -0.00000 -0.29800
C 	C 	0.75190 0.21050 -0.00000 -0.28500
C 	C 	0.81590 0.06840 -0.00000 -0.28200
N 	N 	0.52020 0.17800 -0.00000 -0.25100
N 	N 	0.63080 0.94290 -0.00000 -0.23100
N 	N 	0.79330 0.26440 -0.00000 -0.26500
N 	N 	0.88190 0.05280 -0.00000 -0.25000
Mn	Mn	0.69965 0.10917 -0.00000 1.25000
Mn	Mn	0.89321 0.33142 -0.00000 1.21000
C 	C 	0.50000 0.50000 0.44020 0.07600
N 	N 	0.50000 0.50000 0.19680 -0.29900
C 	C 	0.00000 0.00000 0.55980 0.00600
N 	N 	0.00000 0.00000 0.80320 -0.26600
C 	C 	0.50000 0.50000 0.55980 0.05400
N 	N 	0.50000 0.50000 0.80320 -0.23700
C 	C 	0.00000 0.00000 0.44020 0.02800
N 	N 	0.00000 0.00000 0.19680 -0.33100
Mn	Mn	0.50000 0.50000 -0.00000 1.15500
Mn	Mn	-0.00000 0.00000 -0.00000 1.14100
