data_crystal

_cell_length_a 29.26980
_cell_length_b 29.26980
_cell_length_c 29.26980
_cell_angle_alpha 109.47100
_cell_angle_beta  109.47100
_cell_angle_gamma 109.47100

_symmetry_space_group_name_	'P 1'
_symmetry_space_group_name_H-M	'P 1'

loop_
_symmetry_equiv_pos_as_xyz
  x,y,z

loop_
_atom_site_label
_atom_site_type_symbol
_atom_site_fract_x
_atom_site_fract_y
_atom_site_fract_z
_atom_site_charge
Ni	Ni	0.73292 0.07546 0.00814 1.13700
Ni	Ni	0.06732 0.72478 0.99186 1.13100
Ni	Ni	0.93268 0.92454 0.65746 1.13500
Ni	Ni	0.26708 0.27522 0.34254 1.13500
Ni	Ni	0.65746 0.93268 0.92454 1.13300
Ni	Ni	0.34254 0.26708 0.27522 1.13500
Ni	Ni	0.00814 0.73292 0.07546 1.13600
Ni	Ni	0.99186 0.06732 0.72478 1.13600
Ni	Ni	0.72478 0.99186 0.06732 1.13600
Ni	Ni	0.07546 0.00814 0.73292 1.13600
Ni	Ni	0.27522 0.34254 0.26708 1.13600
Ni	Ni	0.92454 0.65746 0.93268 1.13500
H 	H 	0.15690 0.01540 0.68930 0.02200
H 	H 	0.24340 0.01930 0.71370 0.06900
H 	H 	0.25740 0.02680 0.85880 0.06800
H 	H 	0.17100 0.02290 0.83450 0.01800
H 	H 	0.31460 0.01880 0.73140 0.04100
H 	H 	0.39920 0.01860 0.75640 0.04800
H 	H 	0.41090 0.03060 0.90230 0.04700
H 	H 	0.32630 0.03080 0.87730 0.03900
H 	H 	0.42830 0.93650 0.79680 0.07500
H 	H 	0.51080 0.93250 0.82810 0.02200
H 	H 	0.59860 0.09950 0.93670 0.01800
H 	H 	0.51610 0.10350 0.90540 0.07400
H 	H 	0.73460 0.93190 0.82350 0.05500
H 	H 	0.75960 0.88930 0.75550 0.05900
H 	H 	0.81650 0.10410 0.91820 0.03700
H 	H 	0.32610 0.46760 0.31070 0.02200
H 	H 	0.30560 0.52970 0.28630 0.06900
H 	H 	0.16800 0.39860 0.14120 0.06900
H 	H 	0.18840 0.33650 0.16550 0.01900
H 	H 	0.28740 0.58320 0.26860 0.04200
H 	H 	0.26220 0.64280 0.24360 0.04900
H 	H 	0.12830 0.50860 0.09770 0.05000
H 	H 	0.15350 0.44900 0.12270 0.04100
H 	H 	0.13970 0.63150 0.20320 0.07500
H 	H 	0.10440 0.68270 0.17190 0.02200
H 	H 	0.16280 0.66190 0.06330 0.02400
H 	H 	0.19810 0.61070 0.09460 0.07600
H 	H 	0.10840 0.91110 0.17650 0.05700
H 	H 	0.13380 0.00410 0.24450 0.06000
H 	H 	0.18590 0.89830 0.08180 0.04300
H 	H 	0.67390 0.98460 0.14150 0.02200
H 	H 	0.69440 0.98070 0.22410 0.06900
H 	H 	0.83200 0.97320 0.23060 0.06900
H 	H 	0.81160 0.97710 0.14810 0.01900
H 	H 	0.71260 0.98120 0.29580 0.04200
H 	H 	0.73780 0.98140 0.38060 0.04900
H 	H 	0.87170 0.96940 0.38030 0.04900
H 	H 	0.84650 0.96920 0.29550 0.04000
H 	H 	0.86030 0.06350 0.49180 0.07500
H 	H 	0.89560 0.06750 0.57830 0.02200
H 	H 	0.83720 0.90050 0.49910 0.02100
H 	H 	0.80190 0.89650 0.41260 0.07500
H 	H 	0.89160 0.06810 0.80270 0.05500
H 	H 	0.86620 0.11070 0.87030 0.05800
H 	H 	0.81410 0.89590 0.71240 0.03900
H 	H 	0.84310 0.53240 0.85850 0.02200
H 	H 	0.75660 0.47030 0.77590 0.06900
H 	H 	0.74260 0.60140 0.76940 0.06800
H 	H 	0.82900 0.66350 0.85190 0.01800
H 	H 	0.68540 0.41680 0.70420 0.04100
H 	H 	0.60080 0.35720 0.61940 0.04900
H 	H 	0.58910 0.49140 0.61970 0.04800
H 	H 	0.67370 0.55100 0.70450 0.04000
H 	H 	0.57170 0.36850 0.50820 0.07500
H 	H 	0.48920 0.31730 0.42170 0.02200
H 	H 	0.40140 0.33810 0.50090 0.02100
H 	H 	0.48390 0.38930 0.58740 0.07500
H 	H 	0.26540 0.08890 0.19730 0.05400
H 	H 	0.24040 0.99590 0.12970 0.05900
H 	H 	0.18350 0.10170 0.28760 0.03900
H 	H 	0.14150 0.67390 0.98460 0.02000
H 	H 	0.22410 0.69440 0.98070 0.06800
H 	H 	0.23060 0.83200 0.97320 0.06800
H 	H 	0.14810 0.81160 0.97710 0.01700
H 	H 	0.29580 0.71260 0.98120 0.04000
H 	H 	0.38060 0.73780 0.98140 0.04800
H 	H 	0.38030 0.87170 0.96940 0.04800
H 	H 	0.29550 0.84650 0.96920 0.03900
H 	H 	0.49180 0.86030 0.06350 0.07400
H 	H 	0.57830 0.89560 0.06750 0.02200
H 	H 	0.49910 0.83720 0.90050 0.02100
H 	H 	0.41260 0.80190 0.89650 0.07300
H 	H 	0.80270 0.89160 0.06810 0.05300
H 	H 	0.87030 0.86620 0.11070 0.05900
H 	H 	0.71240 0.81410 0.89590 0.03900
H 	H 	0.85850 0.84310 0.53240 0.02200
H 	H 	0.77590 0.75660 0.47030 0.06900
H 	H 	0.76940 0.74260 0.60140 0.06900
H 	H 	0.85190 0.82900 0.66350 0.01800
H 	H 	0.70420 0.68540 0.41680 0.04200
H 	H 	0.61940 0.60080 0.35720 0.04900
H 	H 	0.61970 0.58910 0.49140 0.04800
H 	H 	0.70450 0.67370 0.55100 0.04000
H 	H 	0.50820 0.57170 0.36850 0.07500
H 	H 	0.42170 0.48920 0.31730 0.02200
H 	H 	0.50090 0.40140 0.33810 0.02100
H 	H 	0.58740 0.48390 0.38930 0.07500
H 	H 	0.19730 0.26540 0.08890 0.06300
H 	H 	0.12970 0.24040 0.99590 0.06600
H 	H 	0.28760 0.18350 0.10170 0.04600
H 	H 	0.68930 0.15690 0.01540 0.02400
H 	H 	0.71370 0.24340 0.01930 0.07000
H 	H 	0.85880 0.25740 0.02680 0.06900
H 	H 	0.83450 0.17100 0.02290 0.02000
H 	H 	0.73140 0.31460 0.01880 0.04300
H 	H 	0.75640 0.39920 0.01860 0.04900
H 	H 	0.90230 0.41090 0.03060 0.04900
H 	H 	0.87730 0.32630 0.03080 0.04200
H 	H 	0.79680 0.42830 0.93650 0.07600
H 	H 	0.82810 0.51080 0.93250 0.02300
H 	H 	0.93670 0.59860 0.09950 0.02100
H 	H 	0.90540 0.51610 0.10350 0.07600
H 	H 	0.82350 0.73460 0.93190 0.05700
H 	H 	0.75550 0.75960 0.88930 0.05900
H 	H 	0.91820 0.81650 0.10410 0.04000
H 	H 	0.31070 0.32610 0.46760 0.02200
H 	H 	0.28630 0.30560 0.52970 0.06900
H 	H 	0.14120 0.16800 0.39860 0.06800
H 	H 	0.16550 0.18840 0.33650 0.01800
H 	H 	0.26860 0.28740 0.58320 0.04100
H 	H 	0.24360 0.26220 0.64280 0.04800
H 	H 	0.09770 0.12830 0.50860 0.04800
H 	H 	0.12270 0.15350 0.44900 0.04000
H 	H 	0.20320 0.13970 0.63150 0.07500
H 	H 	0.17190 0.10440 0.68270 0.02200
H 	H 	0.06330 0.16280 0.66190 0.02000
H 	H 	0.09460 0.19810 0.61070 0.07500
H 	H 	0.17650 0.10840 0.91110 0.04700
H 	H 	0.24450 0.13380 0.00410 0.05200
H 	H 	0.08180 0.18590 0.89830 0.03300
H 	H 	0.46760 0.31070 0.32610 0.02200
H 	H 	0.52970 0.28630 0.30560 0.06900
H 	H 	0.39860 0.14120 0.16800 0.06900
H 	H 	0.33650 0.16550 0.18840 0.01900
H 	H 	0.58320 0.26860 0.28740 0.04200
H 	H 	0.64280 0.24360 0.26220 0.04900
H 	H 	0.50860 0.09770 0.12830 0.05000
H 	H 	0.44900 0.12270 0.15350 0.04100
H 	H 	0.63150 0.20320 0.13970 0.07600
H 	H 	0.68270 0.17190 0.10440 0.02200
H 	H 	0.66190 0.06330 0.16280 0.02100
H 	H 	0.61070 0.09460 0.19810 0.07500
H 	H 	0.91110 0.17650 0.10840 0.05600
H 	H 	0.00410 0.24450 0.13380 0.06000
H 	H 	0.89830 0.08180 0.18590 0.04000
H 	H 	0.01540 0.68930 0.15690 0.02200
H 	H 	0.01930 0.71370 0.24340 0.06900
H 	H 	0.02680 0.85880 0.25740 0.06900
H 	H 	0.02290 0.83450 0.17100 0.01900
H 	H 	0.01880 0.73140 0.31460 0.04200
H 	H 	0.01860 0.75640 0.39920 0.04900
H 	H 	0.03060 0.90230 0.41090 0.04900
H 	H 	0.03080 0.87730 0.32630 0.04000
H 	H 	0.93650 0.79680 0.42830 0.07500
H 	H 	0.93250 0.82810 0.51080 0.02200
H 	H 	0.09950 0.93670 0.59860 0.02100
H 	H 	0.10350 0.90540 0.51610 0.07500
H 	H 	0.93190 0.82350 0.73460 0.05500
H 	H 	0.88930 0.75550 0.75960 0.05900
H 	H 	0.10410 0.91820 0.81650 0.03900
H 	H 	0.53240 0.85850 0.84310 0.02200
H 	H 	0.47030 0.77590 0.75660 0.06900
H 	H 	0.60140 0.76940 0.74260 0.06800
H 	H 	0.66350 0.85190 0.82900 0.01800
H 	H 	0.41680 0.70420 0.68540 0.04100
H 	H 	0.35720 0.61940 0.60080 0.04900
H 	H 	0.49140 0.61970 0.58910 0.04800
H 	H 	0.55100 0.70450 0.67370 0.04000
H 	H 	0.36850 0.50820 0.57170 0.07500
H 	H 	0.31730 0.42170 0.48920 0.02200
H 	H 	0.33810 0.50090 0.40140 0.02100
H 	H 	0.38930 0.58740 0.48390 0.07500
H 	H 	0.08890 0.19730 0.26540 0.05500
H 	H 	0.99590 0.12970 0.24040 0.05900
H 	H 	0.10170 0.28760 0.18350 0.03900
H 	H 	0.98460 0.14150 0.67390 0.02200
H 	H 	0.98070 0.22410 0.69440 0.06900
H 	H 	0.97320 0.23060 0.83200 0.06800
H 	H 	0.97710 0.14810 0.81160 0.01800
H 	H 	0.98120 0.29580 0.71260 0.04200
H 	H 	0.98140 0.38060 0.73780 0.04900
H 	H 	0.96940 0.38030 0.87170 0.04700
H 	H 	0.96920 0.29550 0.84650 0.04000
H 	H 	0.06350 0.49180 0.86030 0.07400
H 	H 	0.06750 0.57830 0.89560 0.02200
H 	H 	0.90050 0.49910 0.83720 0.02100
H 	H 	0.89650 0.41260 0.80190 0.07500
H 	H 	0.06810 0.80270 0.89160 0.05500
H 	H 	0.11070 0.87030 0.86620 0.05800
H 	H 	0.89590 0.71240 0.81410 0.03900
C 	C 	0.17731 0.01772 0.72373 0.06100
C 	C 	0.22866 0.02002 0.73820 -0.11800
C 	C 	0.25851 0.02339 0.78854 0.06900
C 	C 	0.23701 0.02446 0.82443 -0.12000
C 	C 	0.18566 0.02216 0.80996 0.06100
C 	C 	0.31250 0.02484 0.80200 -0.00800
C 	C 	0.33414 0.02122 0.76608 -0.04200
C 	C 	0.38443 0.02112 0.78095 -0.05000
C 	C 	0.41306 0.02463 0.83173 -0.00400
C 	C 	0.39141 0.02824 0.86763 -0.05100
C 	C 	0.34113 0.02834 0.85277 -0.04100
C 	C 	0.46440 0.02035 0.84809 0.06900
C 	C 	0.46286 0.96957 0.82517 -0.12900
C 	C 	0.51190 0.96720 0.84382 0.06500
C 	C 	0.56248 0.01562 0.88542 -0.15000
C 	C 	0.56402 0.06641 0.90835 0.06500
C 	C 	0.51498 0.06877 0.88969 -0.13000
C 	C 	0.61167 0.01137 0.91426 0.42000
C 	C 	0.74201 0.01143 0.90902 0.40200
C 	C 	0.76996 0.01649 0.87587 -0.09200
C 	C 	0.76111 0.96791 0.83328 -0.02700
C 	C 	0.79246 0.97362 0.80516 0.02300
C 	C 	0.78632 0.92509 0.76501 -0.08200
C 	C 	0.81029 0.07116 0.88981 0.01700
C 	C 	0.29399 0.45358 0.27627 0.06200
C 	C 	0.28182 0.49046 0.26180 -0.11800
C 	C 	0.23485 0.46997 0.21146 0.07000
C 	C 	0.20003 0.41258 0.17557 -0.12000
C 	C 	0.21220 0.37570 0.19004 0.06200
C 	C 	0.22284 0.51050 0.19800 -0.00800
C 	C 	0.25514 0.56806 0.23392 -0.04100
C 	C 	0.24017 0.60348 0.21905 -0.05100
C 	C 	0.19290 0.58133 0.16827 -0.00300
C 	C 	0.16061 0.52378 0.13237 -0.05100
C 	C 	0.17557 0.48836 0.14723 -0.04000
C 	C 	0.17226 0.61631 0.15191 0.06900
C 	C 	0.14440 0.63769 0.17483 -0.12800
C 	C 	0.12338 0.66808 0.15618 0.06400
C 	C 	0.13020 0.67706 0.11458 -0.14700
C 	C 	0.15806 0.65567 0.09165 0.06400
C 	C 	0.17908 0.62529 0.11031 -0.12700
C 	C 	0.09711 0.69741 0.08574 0.41800
C 	C 	0.10241 0.83299 0.09098 0.40000
C 	C 	0.14062 0.89409 0.12413 -0.08700
C 	C 	0.13463 0.92783 0.16672 -0.03000
C 	C 	0.16846 0.98730 0.19484 0.03000
C 	C 	0.16008 0.02131 0.23499 -0.08600
C 	C 	0.18135 0.92048 0.11019 0.01400
C 	C 	0.70601 0.98228 0.15959 0.06200
C 	C 	0.71818 0.97998 0.20864 -0.11800
C 	C 	0.76515 0.97661 0.23512 0.07000
C 	C 	0.79997 0.97554 0.21255 -0.11900
C 	C 	0.78780 0.97784 0.16350 0.06200
C 	C 	0.77716 0.97516 0.28766 -0.00800
C 	C 	0.74486 0.97878 0.31292 -0.04100
C 	C 	0.75983 0.97888 0.36331 -0.05000
C 	C 	0.80710 0.97537 0.38843 -0.00400
C 	C 	0.83939 0.97176 0.36317 -0.05100
C 	C 	0.82443 0.97166 0.31279 -0.04000
C 	C 	0.82774 0.97965 0.44405 0.06900
C 	C 	0.85560 0.03043 0.49329 -0.12900
C 	C 	0.87662 0.03280 0.54470 0.06500
C 	C 	0.86980 0.98438 0.54686 -0.14900
C 	C 	0.84194 0.93359 0.49761 0.06500
C 	C 	0.82092 0.93123 0.44621 -0.12900
C 	C 	0.90289 0.98863 0.60030 0.41900
C 	C 	0.89759 0.98857 0.73058 0.40100
C 	C 	0.85938 0.98351 0.75347 -0.09100
C 	C 	0.86537 0.03209 0.79320 -0.02700
C 	C 	0.83154 0.02638 0.81884 0.02400
C 	C 	0.83992 0.07491 0.86123 -0.08300
C 	C 	0.81865 0.92884 0.73913 0.01600
C 	C 	0.82269 0.54642 0.84041 0.06100
C 	C 	0.77134 0.50954 0.79136 -0.11800
C 	C 	0.74149 0.53003 0.76488 0.06900
C 	C 	0.76299 0.58742 0.78745 -0.12000
C 	C 	0.81434 0.62430 0.83650 0.06200
C 	C 	0.68750 0.48950 0.71234 -0.00800
C 	C 	0.66586 0.43194 0.68708 -0.04100
C 	C 	0.61557 0.39652 0.63669 -0.05000
C 	C 	0.58694 0.41867 0.61157 -0.00400
C 	C 	0.60859 0.47622 0.63683 -0.05100
C 	C 	0.65887 0.51164 0.68721 -0.04100
C 	C 	0.53560 0.38369 0.55595 0.06900
C 	C 	0.53714 0.36231 0.50671 -0.12900
C 	C 	0.48810 0.33192 0.45530 0.06500
C 	C 	0.43752 0.32294 0.45314 -0.14900
C 	C 	0.43598 0.34433 0.50239 0.06500
C 	C 	0.48502 0.37471 0.55379 -0.12900
C 	C 	0.38833 0.30259 0.39970 0.41900
C 	C 	0.25799 0.16701 0.26942 0.40200
C 	C 	0.23004 0.10591 0.24653 -0.09300
C 	C 	0.23889 0.07217 0.20680 -0.02400
C 	C 	0.20754 0.01270 0.18116 0.01900
C 	C 	0.21368 0.97869 0.13877 -0.07700
C 	C 	0.18971 0.07952 0.26087 0.01900
C 	C 	0.15959 0.70601 0.98228 0.06100
C 	C 	0.20864 0.71818 0.97998 -0.11900
C 	C 	0.23512 0.76515 0.97661 0.07000
C 	C 	0.21255 0.79997 0.97554 -0.12100
C 	C 	0.16350 0.78780 0.97784 0.06100
C 	C 	0.28766 0.77716 0.97516 -0.01100
C 	C 	0.31292 0.74486 0.97878 -0.03900
C 	C 	0.36331 0.75983 0.97888 -0.05400
C 	C 	0.38843 0.80710 0.97537 0.00000
C 	C 	0.36317 0.83939 0.97176 -0.05500
C 	C 	0.31279 0.82443 0.97166 -0.03900
C 	C 	0.44405 0.82774 0.97965 0.05600
C 	C 	0.49329 0.85560 0.03043 -0.11600
C 	C 	0.54470 0.87662 0.03280 0.07200
C 	C 	0.54686 0.86980 0.98438 -0.15500
C 	C 	0.49761 0.84194 0.93359 0.06300
C 	C 	0.44621 0.82092 0.93123 -0.12500
C 	C 	0.60030 0.90289 0.98863 0.40800
C 	C 	0.73058 0.89759 0.98857 0.39200
C 	C 	0.75347 0.85938 0.98351 -0.09900
C 	C 	0.79320 0.86537 0.03209 -0.01700
C 	C 	0.81884 0.83154 0.02638 0.03100
C 	C 	0.86123 0.83992 0.07491 -0.08200
C 	C 	0.73913 0.81865 0.92884 0.01700
C 	C 	0.84041 0.82269 0.54642 0.06200
C 	C 	0.79136 0.77134 0.50954 -0.11800
C 	C 	0.76488 0.74149 0.53003 0.07000
C 	C 	0.78745 0.76299 0.58742 -0.12000
C 	C 	0.83650 0.81434 0.62430 0.06200
C 	C 	0.71234 0.68750 0.48950 -0.00800
C 	C 	0.68708 0.66586 0.43194 -0.04100
C 	C 	0.63669 0.61557 0.39652 -0.05000
C 	C 	0.61157 0.58694 0.41867 -0.00300
C 	C 	0.63683 0.60859 0.47622 -0.05100
C 	C 	0.68721 0.65887 0.51164 -0.04000
C 	C 	0.55595 0.53560 0.38369 0.06900
C 	C 	0.50671 0.53714 0.36231 -0.12800
C 	C 	0.45530 0.48810 0.33192 0.06500
C 	C 	0.45314 0.43752 0.32294 -0.14800
C 	C 	0.50239 0.43598 0.34433 0.06500
C 	C 	0.55379 0.48502 0.37471 -0.12800
C 	C 	0.39970 0.38833 0.30259 0.41900
C 	C 	0.26942 0.25799 0.16701 0.39600
C 	C 	0.24653 0.23004 0.10591 -0.07700
C 	C 	0.20680 0.23889 0.07217 -0.04700
C 	C 	0.18116 0.20754 0.01270 0.06200
C 	C 	0.13877 0.21368 0.97869 -0.11300
C 	C 	0.26087 0.18971 0.07952 -0.00100
C 	C 	0.72373 0.17731 0.01772 0.06200
C 	C 	0.73820 0.22866 0.02002 -0.11700
C 	C 	0.78854 0.25851 0.02339 0.07000
C 	C 	0.82443 0.23701 0.02446 -0.11900
C 	C 	0.80996 0.18566 0.02216 0.06300
C 	C 	0.80200 0.31250 0.02484 -0.00600
C 	C 	0.76608 0.33414 0.02122 -0.04300
C 	C 	0.78095 0.38443 0.02112 -0.04700
C 	C 	0.83173 0.41306 0.02463 -0.00700
C 	C 	0.86763 0.39141 0.02824 -0.04800
C 	C 	0.85277 0.34113 0.02834 -0.04200
C 	C 	0.84809 0.46440 0.02035 0.08100
C 	C 	0.82517 0.46286 0.96957 -0.14000
C 	C 	0.84382 0.51190 0.96720 0.05900
C 	C 	0.88542 0.56248 0.01562 -0.14300
C 	C 	0.90835 0.56402 0.06641 0.06700
C 	C 	0.88969 0.51498 0.06877 -0.13200
C 	C 	0.91426 0.61167 0.01137 0.42800
C 	C 	0.90902 0.74201 0.01143 0.41000
C 	C 	0.87587 0.76996 0.01649 -0.08300
C 	C 	0.83328 0.76111 0.96791 -0.03600
C 	C 	0.80516 0.79246 0.97362 0.01800
C 	C 	0.76501 0.78632 0.92509 -0.08200
C 	C 	0.88981 0.81029 0.07116 0.01600
C 	C 	0.27627 0.29399 0.45358 0.06100
C 	C 	0.26180 0.28182 0.49046 -0.11800
C 	C 	0.21146 0.23485 0.46997 0.06900
C 	C 	0.17557 0.20003 0.41258 -0.12000
C 	C 	0.19004 0.21220 0.37570 0.06200
C 	C 	0.19800 0.22284 0.51050 -0.00800
C 	C 	0.23392 0.25514 0.56806 -0.04100
C 	C 	0.21905 0.24017 0.60348 -0.05000
C 	C 	0.16827 0.19290 0.58133 -0.00400
C 	C 	0.13237 0.16061 0.52378 -0.05100
C 	C 	0.14723 0.17557 0.48836 -0.04100
C 	C 	0.15191 0.17226 0.61631 0.06900
C 	C 	0.17483 0.14440 0.63769 -0.12900
C 	C 	0.15618 0.12338 0.66808 0.06500
C 	C 	0.11458 0.13020 0.67706 -0.14900
C 	C 	0.09165 0.15806 0.65567 0.06500
C 	C 	0.11031 0.17908 0.62529 -0.12900
C 	C 	0.08574 0.09711 0.69741 0.41900
C 	C 	0.09098 0.10241 0.83299 0.40600
C 	C 	0.12413 0.14062 0.89409 -0.10500
C 	C 	0.16672 0.13463 0.92783 -0.00700
C 	C 	0.19484 0.16846 0.98730 -0.01400
C 	C 	0.23499 0.16008 0.02131 -0.05200
C 	C 	0.11019 0.18135 0.92048 0.03400
C 	C 	0.45358 0.27627 0.29399 0.06200
C 	C 	0.49046 0.26180 0.28182 -0.11800
C 	C 	0.46997 0.21146 0.23485 0.07000
C 	C 	0.41258 0.17557 0.20003 -0.12000
C 	C 	0.37570 0.19004 0.21220 0.06200
C 	C 	0.51050 0.19800 0.22284 -0.00800
C 	C 	0.56806 0.23392 0.25514 -0.04100
C 	C 	0.60348 0.21905 0.24017 -0.05000
C 	C 	0.58133 0.16827 0.19290 -0.00300
C 	C 	0.52378 0.13237 0.16061 -0.05100
C 	C 	0.48836 0.14723 0.17557 -0.04000
C 	C 	0.61631 0.15191 0.17226 0.06900
C 	C 	0.63769 0.17483 0.14440 -0.12800
C 	C 	0.66808 0.15618 0.12338 0.06600
C 	C 	0.67706 0.11458 0.13020 -0.14900
C 	C 	0.65567 0.09165 0.15806 0.06600
C 	C 	0.62529 0.11031 0.17908 -0.12900
C 	C 	0.69741 0.08574 0.09711 0.41900
C 	C 	0.83299 0.09098 0.10241 0.40100
C 	C 	0.89409 0.12413 0.14062 -0.08900
C 	C 	0.92783 0.16672 0.13463 -0.02800
C 	C 	0.98730 0.19484 0.16846 0.02700
C 	C 	0.02131 0.23499 0.16008 -0.08400
C 	C 	0.92048 0.11019 0.18135 0.01600
C 	C 	0.01772 0.72373 0.17731 0.06200
C 	C 	0.02002 0.73820 0.22866 -0.11800
C 	C 	0.02339 0.78854 0.25851 0.07000
C 	C 	0.02446 0.82443 0.23701 -0.12000
C 	C 	0.02216 0.80996 0.18566 0.06200
C 	C 	0.02484 0.80200 0.31250 -0.00800
C 	C 	0.02122 0.76608 0.33414 -0.04100
C 	C 	0.02112 0.78095 0.38443 -0.05000
C 	C 	0.02463 0.83173 0.41306 -0.00300
C 	C 	0.02824 0.86763 0.39141 -0.05100
C 	C 	0.02834 0.85277 0.34113 -0.04000
C 	C 	0.02035 0.84809 0.46440 0.06900
C 	C 	0.96957 0.82517 0.46286 -0.12800
C 	C 	0.96720 0.84382 0.51190 0.06500
C 	C 	0.01562 0.88542 0.56248 -0.14900
C 	C 	0.06641 0.90835 0.56402 0.06500
C 	C 	0.06877 0.88969 0.51498 -0.12800
C 	C 	0.01137 0.91426 0.61167 0.41800
C 	C 	0.01143 0.90902 0.74201 0.40100
C 	C 	0.01649 0.87587 0.76996 -0.09100
C 	C 	0.96791 0.83328 0.76111 -0.02700
C 	C 	0.97362 0.80516 0.79246 0.02500
C 	C 	0.92509 0.76501 0.78632 -0.08200
C 	C 	0.07116 0.88981 0.81029 0.01600
C 	C 	0.54642 0.84041 0.82269 0.06100
C 	C 	0.50954 0.79136 0.77134 -0.11800
C 	C 	0.53003 0.76488 0.74149 0.06900
C 	C 	0.58742 0.78745 0.76299 -0.12000
C 	C 	0.62430 0.83650 0.81434 0.06200
C 	C 	0.48950 0.71234 0.68750 -0.00800
C 	C 	0.43194 0.68708 0.66586 -0.04100
C 	C 	0.39652 0.63669 0.61557 -0.05000
C 	C 	0.41867 0.61157 0.58694 -0.00400
C 	C 	0.47622 0.63683 0.60859 -0.05100
C 	C 	0.51164 0.68721 0.65887 -0.04100
C 	C 	0.38369 0.55595 0.53560 0.06900
C 	C 	0.36231 0.50671 0.53714 -0.12900
C 	C 	0.33192 0.45530 0.48810 0.06500
C 	C 	0.32294 0.45314 0.43752 -0.14900
C 	C 	0.34433 0.50239 0.43598 0.06500
C 	C 	0.37471 0.55379 0.48502 -0.12900
C 	C 	0.30259 0.39970 0.38833 0.41900
C 	C 	0.16701 0.26942 0.25799 0.40200
C 	C 	0.10591 0.24653 0.23004 -0.09200
C 	C 	0.07217 0.20680 0.23889 -0.02500
C 	C 	0.01270 0.18116 0.20754 0.02100
C 	C 	0.97869 0.13877 0.21368 -0.08000
C 	C 	0.07952 0.26087 0.18971 0.01800
C 	C 	0.98228 0.15959 0.70601 0.06100
C 	C 	0.97998 0.20864 0.71818 -0.11800
C 	C 	0.97661 0.23512 0.76515 0.06900
C 	C 	0.97554 0.21255 0.79997 -0.11900
C 	C 	0.97784 0.16350 0.78780 0.06200
C 	C 	0.97516 0.28766 0.77716 -0.00800
C 	C 	0.97878 0.31292 0.74486 -0.04200
C 	C 	0.97888 0.36331 0.75983 -0.05000
C 	C 	0.97537 0.38843 0.80710 -0.00400
C 	C 	0.97176 0.36317 0.83939 -0.05100
C 	C 	0.97166 0.31279 0.82443 -0.04100
C 	C 	0.97965 0.44405 0.82774 0.07000
C 	C 	0.03043 0.49329 0.85560 -0.13000
C 	C 	0.03280 0.54470 0.87662 0.06400
C 	C 	0.98438 0.54686 0.86980 -0.14800
C 	C 	0.93359 0.49761 0.84194 0.06500
C 	C 	0.93123 0.44621 0.82092 -0.12900
C 	C 	0.98863 0.60030 0.90289 0.41900
C 	C 	0.98857 0.73058 0.89759 0.40200
C 	C 	0.98351 0.75347 0.85938 -0.09100
C 	C 	0.03209 0.79320 0.86537 -0.02700
C 	C 	0.02638 0.81884 0.83154 0.02300
C 	C 	0.07491 0.86123 0.83992 -0.08200
C 	C 	0.92884 0.73913 0.81865 0.01700
N 	N 	0.15582 0.01880 0.75962 -0.19500
N 	N 	0.25918 0.39620 0.24038 -0.19500
N 	N 	0.74082 0.98120 0.13702 -0.19500
N 	N 	0.84418 0.60380 0.86298 -0.19500
N 	N 	0.13702 0.74082 0.98120 -0.19700
N 	N 	0.86298 0.84418 0.60380 -0.19500
N 	N 	0.75962 0.15582 0.01880 -0.19400
N 	N 	0.24038 0.25918 0.39620 -0.19500
N 	N 	0.39620 0.24038 0.25918 -0.19500
N 	N 	0.01880 0.75962 0.15582 -0.19500
N 	N 	0.60380 0.86298 0.84418 -0.19500
N 	N 	0.98120 0.13702 0.74082 -0.19500
O 	O 	0.65534 0.05428 0.95324 -0.43800
O 	O 	0.60853 0.96473 0.89454 -0.41600
O 	O 	0.75393 0.05480 0.94627 -0.42400
O 	O 	0.70927 0.96188 0.89549 -0.40500
O 	O 	0.10104 0.70210 0.04676 -0.42800
O 	O 	0.07019 0.71399 0.10546 -0.41400
O 	O 	0.10853 0.80766 0.05373 -0.41500
O 	O 	0.06639 0.81378 0.10451 -0.40200
O 	O 	0.89896 0.94572 0.60106 -0.43300
O 	O 	0.92981 0.03527 0.64380 -0.41400
O 	O 	0.89147 0.94520 0.69913 -0.42000
O 	O 	0.93361 0.03812 0.74739 -0.40300
O 	O 	0.34466 0.29790 0.39894 -0.43300
O 	O 	0.39147 0.28601 0.35620 -0.41400
O 	O 	0.24607 0.19234 0.30087 -0.42000
O 	O 	0.29073 0.18622 0.25261 -0.40300
O 	O 	0.60106 0.89896 0.94572 -0.43200
O 	O 	0.64380 0.92981 0.03527 -0.40600
O 	O 	0.69913 0.89147 0.94520 -0.41900
O 	O 	0.74739 0.93361 0.03812 -0.39500
O 	O 	0.39894 0.34466 0.29790 -0.43300
O 	O 	0.35620 0.39147 0.28601 -0.41400
O 	O 	0.30087 0.24607 0.19234 -0.41800
O 	O 	0.25261 0.29073 0.18622 -0.40200
O 	O 	0.95324 0.65534 0.05428 -0.43400
O 	O 	0.89454 0.60853 0.96473 -0.42300
O 	O 	0.94627 0.75393 0.05480 -0.42100
O 	O 	0.89549 0.70927 0.96188 -0.41100
O 	O 	0.04676 0.10104 0.70210 -0.43400
O 	O 	0.10546 0.07019 0.71399 -0.41500
O 	O 	0.05373 0.10853 0.80766 -0.42200
O 	O 	0.10451 0.06639 0.81378 -0.40500
O 	O 	0.70210 0.04676 0.10104 -0.43300
O 	O 	0.71399 0.10546 0.07019 -0.41400
O 	O 	0.80766 0.05373 0.10853 -0.42000
O 	O 	0.81378 0.10451 0.06639 -0.40200
O 	O 	0.05428 0.95324 0.65534 -0.43300
O 	O 	0.96473 0.89454 0.60853 -0.41400
O 	O 	0.05480 0.94627 0.75393 -0.42000
O 	O 	0.96188 0.89549 0.70927 -0.40300
O 	O 	0.29790 0.39894 0.34466 -0.43300
O 	O 	0.28601 0.35620 0.39147 -0.41400
O 	O 	0.19234 0.30087 0.24607 -0.42000
O 	O 	0.18622 0.25261 0.29073 -0.40300
O 	O 	0.94572 0.60106 0.89896 -0.43400
O 	O 	0.03527 0.64380 0.92981 -0.41700
O 	O 	0.94520 0.69913 0.89147 -0.42100
O 	O 	0.03812 0.74739 0.93361 -0.40600
O 	O 	0.71176 1.00000 -0.00000 -0.55800
O 	O 	0.00000 0.71176 -0.00000 -0.55700
O 	O 	1.00000 -0.00000 0.71176 -0.56300
O 	O 	0.28824 0.28824 0.28824 -0.56300
