data_crystal

_cell_length_a 12.96500
_cell_length_b 12.97960
_cell_length_c 20.10380
_cell_angle_alpha 90.00000
_cell_angle_beta  95.16960
_cell_angle_gamma 90.00000

_symmetry_space_group_name_	'P 1'
_symmetry_space_group_name_H-M	'P 1'

loop_
_symmetry_equiv_pos_as_xyz
  x,y,z

loop_
_atom_site_label
_atom_site_type_symbol
_atom_site_fract_x
_atom_site_fract_y
_atom_site_fract_z
_atom_site_charge
Np	Np	0.39955 0.87538 0.36814 0.03800
Np	Np	0.27940 0.58770 0.30416 0.04100
Np	Np	0.19840 0.28560 0.33833 0.03800
Np	Np	0.01119 0.69678 0.37210 0.03900
Np	Np	0.09828 0.97871 0.30194 0.03800
Np	Np	0.69516 0.78133 0.33544 0.03900
Np	Np	0.80141 0.09073 0.34236 0.04200
Np	Np	0.50905 0.17623 0.33237 0.04000
Np	Np	0.89281 0.39440 0.33497 0.04200
Np	Np	0.58494 0.47520 0.33870 0.04000
O 	O 	0.06310 0.32340 0.34800 -0.01800
O 	O 	0.94560 0.51960 0.36320 -0.01300
O 	O 	0.46220 0.05280 0.36080 -0.01500
O 	O 	0.45280 0.52030 0.31250 -0.01600
O 	O 	0.71990 0.43340 0.36210 -0.01500
O 	O 	0.49710 0.21870 0.45950 -0.14300
O 	O 	0.73290 0.91840 0.33910 -0.01700
O 	O 	0.47570 0.34650 0.75590 -0.14800
O 	O 	0.74570 0.06740 0.21300 -0.14800
O 	O 	0.58450 0.00550 0.91950 -0.14600
O 	O 	0.33470 0.24520 0.33550 -0.02300
O 	O 	0.33240 0.54410 0.42240 -0.12800
O 	O 	0.31370 0.51320 0.73360 -0.14100
O 	O 	0.56370 0.16580 0.95520 -0.16500
O 	O 	0.63740 0.36240 0.72130 -0.13400
O 	O 	0.14910 0.11320 0.30240 -0.02000
O 	O 	0.14610 0.64920 0.37040 -0.01500
O 	O 	0.60440 0.06970 0.26420 -0.14100
O 	O 	0.35130 0.99940 0.94910 -0.13700
O 	O 	0.26680 0.92740 0.35660 -0.01700
O 	O 	0.53140 0.82500 0.38060 -0.01800
O 	O 	0.50010 0.37260 0.41260 -0.15300
O 	O 	0.46540 0.58080 0.72720 -0.13600
O 	O 	0.92180 0.03960 0.31280 -0.01200
O 	O 	0.22630 0.45640 0.29520 -0.02000
O 	O 	0.65390 0.64510 0.32500 -0.01700
O 	O 	0.58010 0.83410 0.24260 -0.14700
O 	O 	0.42140 0.84340 0.94020 -0.13500
O 	O 	0.64510 0.23170 0.11430 -0.12900
O 	O 	0.26130 0.38750 0.43120 -0.15000
C 	C 	0.39020 0.52460 0.70240 0.28200
O 	O 	0.67970 0.30890 0.55900 -0.13400
O 	O 	0.68710 0.14380 0.38110 -0.01200
O 	O 	0.76000 0.14170 0.05810 -0.14900
C 	C 	0.51760 0.93770 0.15300 0.00500
O 	O 	0.40290 0.75040 0.13990 -0.15400
O 	O 	0.55960 0.29470 0.29560 -0.01700
O 	O 	0.18920 0.55060 0.53600 -0.15200
O 	O 	0.28440 0.64030 0.61380 -0.15000
O 	O 	0.59980 0.18750 0.61550 -0.15000
C 	C 	0.56960 0.07580 0.96280 0.29900
O 	O 	0.84480 0.26310 0.30910 -0.01000
C 	C 	0.50520 0.88990 0.22210 0.28800
C 	C 	0.60870 0.06140 0.08830 -0.00400
C 	C 	0.51460 0.34360 0.58720 -0.01000
C 	C 	0.46380 0.90570 0.09620 -0.01000
C 	C 	0.68080 0.14980 0.08520 0.28100
C 	C 	0.47190 0.94990 0.03600 0.00200
O 	O 	0.87520 0.73660 0.37180 -0.01300
C 	C 	0.49000 0.31600 0.46050 0.28700
O 	O 	0.42450 0.90700 0.24980 -0.14200
O 	O 	0.30820 0.82350 0.05630 -0.14800
C 	C 	0.26770 0.56690 0.57440 0.29200
C 	C 	0.53720 0.36410 0.71370 0.27300
C 	C 	0.60370 0.27160 0.58840 0.28600
C 	C 	0.65150 0.05630 0.21170 0.28300
C 	C 	0.38590 0.81800 0.09750 0.29500
C 	C 	0.46100 0.36660 0.52340 -0.00300
C 	C 	0.48580 0.39340 0.64330 0.00700
O 	O 	0.04920 0.84460 0.30410 -0.02200
C 	C 	0.40870 0.46560 0.63890 -0.00500
C 	C 	0.41020 0.92590 0.97140 0.27400
C 	C 	0.32020 0.45620 0.45280 0.27900
C 	C 	0.55630 0.02770 0.03140 -0.00400
O 	O 	0.33530 0.71980 0.31320 -0.01300
C 	C 	0.37560 0.44010 0.51920 -0.00600
C 	C 	0.59210 0.01800 0.14890 -0.01000
C 	C 	0.35350 0.48860 0.57730 -0.00500
Np	Np	0.89955 0.12462 0.86814 0.04200
Np	Np	0.77940 0.41230 0.80416 0.04300
Np	Np	0.69840 0.71440 0.83833 0.03900
Np	Np	0.51119 0.30322 0.87210 0.04400
Np	Np	0.59828 0.02129 0.80194 0.03900
Np	Np	0.19516 0.21867 0.83544 0.03800
Np	Np	0.30141 0.90927 0.84236 0.04200
Np	Np	0.00905 0.82377 0.83237 0.03600
Np	Np	0.39281 0.60560 0.83497 0.04100
Np	Np	0.08494 0.52480 0.83870 0.03700
O 	O 	0.56310 0.67660 0.84800 -0.01300
O 	O 	0.44560 0.48040 0.86320 -0.01700
O 	O 	0.96220 0.94720 0.86080 -0.01000
O 	O 	0.95280 0.47970 0.81250 -0.01100
O 	O 	0.21990 0.56660 0.86210 -0.01600
O 	O 	0.99710 0.78130 0.95950 -0.14000
O 	O 	0.23290 0.08160 0.83910 -0.01900
O 	O 	0.97570 0.65350 0.25590 -0.13500
O 	O 	0.24570 0.93260 0.71300 -0.14900
O 	O 	0.08450 0.99450 0.41950 -0.14800
O 	O 	0.83470 0.75480 0.83550 -0.02000
O 	O 	0.83240 0.45590 0.92240 -0.12700
O 	O 	0.81370 0.48680 0.23360 -0.14100
O 	O 	0.06370 0.83420 0.45520 -0.16700
O 	O 	0.13740 0.63760 0.22130 -0.13000
O 	O 	0.64910 0.88680 0.80240 -0.01700
O 	O 	0.64610 0.35080 0.87040 -0.01400
O 	O 	0.10440 0.93030 0.76420 -0.14100
O 	O 	0.85130 0.00060 0.44910 -0.13500
O 	O 	0.76680 0.07260 0.85660 -0.01700
O 	O 	0.03140 0.17500 0.88060 -0.02400
O 	O 	0.00010 0.62740 0.91260 -0.16100
O 	O 	0.96540 0.41920 0.22720 -0.13300
O 	O 	0.42180 0.96040 0.81280 -0.01500
O 	O 	0.72630 0.54360 0.79520 -0.01800
O 	O 	0.15390 0.35490 0.82500 -0.01900
O 	O 	0.08010 0.16590 0.74260 -0.14800
O 	O 	0.92140 0.15660 0.44020 -0.13200
O 	O 	0.14510 0.76830 0.61430 -0.13000
O 	O 	0.76130 0.61250 0.93120 -0.14900
C 	C 	0.89020 0.47540 0.20240 0.28600
O 	O 	0.17970 0.69110 0.05900 -0.13700
O 	O 	0.18710 0.85620 0.88110 -0.01300
O 	O 	0.26000 0.85830 0.55810 -0.15100
C 	C 	0.01760 0.06230 0.65300 -0.00500
O 	O 	0.90290 0.24960 0.63990 -0.15000
O 	O 	0.05960 0.70530 0.79560 -0.01800
O 	O 	0.68920 0.44940 0.03600 -0.14900
O 	O 	0.78440 0.35970 0.11380 -0.14800
O 	O 	0.09980 0.81250 0.11550 -0.15300
C 	C 	0.06960 0.92420 0.46280 0.30200
O 	O 	0.34480 0.73690 0.80910 -0.01200
C 	C 	0.00520 0.11010 0.72210 0.28000
C 	C 	0.10870 0.93860 0.58830 -0.00400
C 	C 	0.01460 0.65640 0.08720 -0.03600
C 	C 	0.96380 0.09430 0.59620 -0.00000
C 	C 	0.18080 0.85020 0.58520 0.28100
C 	C 	0.97190 0.05010 0.53600 0.00400
O 	O 	0.37520 0.26340 0.87180 -0.01800
C 	C 	0.99000 0.68400 0.96050 0.29100
O 	O 	0.92450 0.09300 0.74980 -0.13400
O 	O 	0.80820 0.17650 0.55630 -0.14800
C 	C 	0.76770 0.43310 0.07440 0.29000
C 	C 	0.03720 0.63590 0.21370 0.25000
C 	C 	0.10370 0.72840 0.08840 0.29400
C 	C 	0.15150 0.94370 0.71170 0.28200
C 	C 	0.88590 0.18200 0.59750 0.29200
C 	C 	0.96100 0.63340 0.02340 0.01200
C 	C 	0.98580 0.60660 0.14330 0.03300
O 	O 	0.54920 0.15540 0.80410 -0.02000
C 	C 	0.90870 0.53440 0.13890 -0.01500
C 	C 	0.91020 0.07410 0.47140 0.27600
C 	C 	0.82020 0.54380 0.95280 0.27900
C 	C 	0.05630 0.97230 0.53140 -0.01100
O 	O 	0.83530 0.28020 0.81320 -0.01100
C 	C 	0.87560 0.55990 0.01920 -0.00900
C 	C 	0.09210 0.98200 0.64890 -0.00700
C 	C 	0.85350 0.51140 0.07730 0.00200
