data_crystal

_cell_length_a 11.41370
_cell_length_b 16.59200
_cell_length_c 26.04100
_cell_angle_alpha 90.00000
_cell_angle_beta  95.29000
_cell_angle_gamma 90.00000

_symmetry_space_group_name_	'P 1'
_symmetry_space_group_name_H-M	'P 1'

loop_
_symmetry_equiv_pos_as_xyz
  x,y,z

loop_
_atom_site_label
_atom_site_type_symbol
_atom_site_fract_x
_atom_site_fract_y
_atom_site_fract_z
_atom_site_charge
Cd	Cd	0.88591 0.05887 0.96078 1.21800
Cd	Cd	0.83183 0.26612 0.96307 1.20300
Cd	Cd	0.11409 0.55887 0.53922 1.22000
Cd	Cd	0.16817 0.76612 0.53693 1.20300
Cd	Cd	0.11409 0.94113 0.03922 1.21800
Cd	Cd	0.16817 0.73388 0.03693 1.20300
Cd	Cd	0.88591 0.44113 0.46078 1.22000
Cd	Cd	0.83183 0.23388 0.46307 1.20300
H 	H 	0.25040 0.08830 0.77860 0.08200
H 	H 	0.14320 0.07810 0.84990 0.01300
H 	H 	0.04840 0.31160 0.83260 0.00800
H 	H 	0.15570 0.32090 0.76120 0.08400
H 	H 	0.31800 0.12510 0.62130 0.07100
H 	H 	0.41030 0.12030 0.54530 0.02200
H 	H 	0.68300 0.24730 0.61450 0.02100
H 	H 	0.59300 0.24680 0.69050 0.07500
H 	H 	0.44490 0.27010 0.79880 0.08100
H 	H 	0.58090 0.24070 0.86880 -0.00300
H 	H 	0.64570 0.02600 0.80380 0.01800
H 	H 	0.51270 0.05860 0.73380 0.07800
H 	H 	0.06400 0.17300 0.66810 0.08700
H 	H 	0.95320 0.23380 0.59950 -0.01700
H 	H 	0.20720 0.40130 0.59040 -0.02400
H 	H 	0.32120 0.33900 0.65830 0.09200
H 	H 	0.74960 0.58830 0.72140 0.08000
H 	H 	0.85680 0.57810 0.65010 0.01100
H 	H 	0.95160 0.81160 0.66740 0.00800
H 	H 	0.84430 0.82090 0.73880 0.08300
H 	H 	0.68200 0.62510 0.87870 0.07000
H 	H 	0.58970 0.62030 0.95470 0.02100
H 	H 	0.31700 0.74730 0.88550 0.02200
H 	H 	0.40700 0.74680 0.80950 0.07600
H 	H 	0.55510 0.77010 0.70120 0.08100
H 	H 	0.41910 0.74070 0.63120 -0.00300
H 	H 	0.35430 0.52600 0.69620 0.01900
H 	H 	0.48730 0.55860 0.76620 0.07800
H 	H 	0.93600 0.67300 0.83190 0.08500
H 	H 	0.04680 0.73380 0.90050 -0.01400
H 	H 	0.79280 0.90130 0.90960 -0.02100
H 	H 	0.67880 0.83900 0.84170 0.09200
H 	H 	0.74960 0.91170 0.22140 0.08100
H 	H 	0.85680 0.92190 0.15010 0.01200
H 	H 	0.95160 0.68840 0.16740 0.00700
H 	H 	0.84430 0.67910 0.23880 0.08300
H 	H 	0.68200 0.87490 0.37870 0.07000
H 	H 	0.58970 0.87970 0.45470 0.02100
H 	H 	0.31700 0.75270 0.38550 0.02100
H 	H 	0.40700 0.75320 0.30950 0.07500
H 	H 	0.55510 0.72990 0.20120 0.08100
H 	H 	0.41910 0.75930 0.13120 -0.00300
H 	H 	0.35430 0.97400 0.19620 0.01800
H 	H 	0.48730 0.94140 0.26620 0.07800
H 	H 	0.93600 0.82700 0.33190 0.08700
H 	H 	0.04680 0.76620 0.40050 -0.01700
H 	H 	0.79280 0.59870 0.40960 -0.02400
H 	H 	0.67880 0.66100 0.34170 0.09200
H 	H 	0.25040 0.41170 0.27860 0.08000
H 	H 	0.14320 0.42190 0.34990 0.01100
H 	H 	0.04840 0.18840 0.33260 0.00800
H 	H 	0.15570 0.17910 0.26120 0.08300
H 	H 	0.31800 0.37490 0.12130 0.07000
H 	H 	0.41030 0.37970 0.04530 0.02100
H 	H 	0.68300 0.25270 0.11450 0.02200
H 	H 	0.59300 0.25320 0.19050 0.07600
H 	H 	0.44490 0.22990 0.29880 0.08100
H 	H 	0.58090 0.25930 0.36880 -0.00300
H 	H 	0.64570 0.47400 0.30380 0.01900
H 	H 	0.51270 0.44140 0.23380 0.07800
H 	H 	0.06400 0.32700 0.16810 0.08500
H 	H 	0.95320 0.26620 0.09950 -0.01400
H 	H 	0.20720 0.09870 0.09040 -0.02100
H 	H 	0.32120 0.16100 0.15830 0.09200
C 	C 	0.38750 0.18970 0.71240 -0.05300
C 	C 	0.27490 0.21210 0.71450 -0.06800
C 	C 	0.21170 0.20550 0.76190 0.10200
C 	C 	0.20860 0.13390 0.78940 -0.15100
C 	C 	0.14590 0.12790 0.83210 0.07700
C 	C 	0.08680 0.19420 0.84910 -0.15600
C 	C 	0.08990 0.26590 0.82190 0.07900
C 	C 	0.15300 0.27110 0.77910 -0.15500
C 	C 	0.44500 0.18800 0.66330 0.08500
C 	C 	0.39280 0.14990 0.62000 -0.13300
C 	C 	0.44750 0.14710 0.57470 0.05300
C 	C 	0.55640 0.18330 0.57200 -0.12800
C 	C 	0.60900 0.22150 0.61570 0.05400
C 	C 	0.55440 0.22220 0.66060 -0.13700
C 	C 	0.46670 0.16740 0.75910 0.09500
C 	C 	0.48680 0.22060 0.79950 -0.14900
C 	C 	0.56760 0.20300 0.84140 0.07300
C 	C 	0.62810 0.13160 0.84340 -0.15200
C 	C 	0.60610 0.07640 0.80280 0.06700
C 	C 	0.52630 0.09590 0.76140 -0.14800
C 	C 	0.20400 0.24950 0.66960 0.11500
C 	C 	0.09370 0.21920 0.65210 -0.18200
C 	C 	0.02750 0.25570 0.61170 0.11300
C 	C 	0.06830 0.32410 0.58870 -0.21600
C 	C 	0.17830 0.35470 0.60620 0.11600
C 	C 	0.24620 0.31770 0.64660 -0.17500
C 	C 	0.99630 0.36550 0.54610 0.44200
C 	C 	0.71610 0.11130 0.88700 0.36100
C 	C 	0.01620 0.18670 0.89470 0.40000
C 	C 	0.61860 0.17960 0.52360 0.36100
C 	C 	0.61250 0.68970 0.78760 -0.05300
C 	C 	0.72510 0.71210 0.78550 -0.06700
C 	C 	0.78830 0.70550 0.73810 0.10100
C 	C 	0.79140 0.63390 0.71060 -0.15000
C 	C 	0.85410 0.62790 0.66790 0.07700
C 	C 	0.91320 0.69420 0.65090 -0.15500
C 	C 	0.91010 0.76590 0.67810 0.07800
C 	C 	0.84700 0.77110 0.72090 -0.15500
C 	C 	0.55500 0.68800 0.83670 0.08500
C 	C 	0.60720 0.64990 0.88000 -0.13300
C 	C 	0.55250 0.64710 0.92530 0.05300
C 	C 	0.44360 0.68330 0.92800 -0.12800
C 	C 	0.39100 0.72150 0.88430 0.05500
C 	C 	0.44560 0.72220 0.83940 -0.13700
C 	C 	0.53330 0.66740 0.74090 0.09600
C 	C 	0.51320 0.72060 0.70050 -0.14900
C 	C 	0.43240 0.70300 0.65860 0.07300
C 	C 	0.37190 0.63160 0.65660 -0.15100
C 	C 	0.39390 0.57640 0.69720 0.06700
C 	C 	0.47370 0.59590 0.73860 -0.14800
C 	C 	0.79600 0.74950 0.83040 0.11300
C 	C 	0.90630 0.71920 0.84790 -0.17800
C 	C 	0.97250 0.75570 0.88830 0.10700
C 	C 	0.93170 0.82410 0.91130 -0.21100
C 	C 	0.82170 0.85470 0.89380 0.11300
C 	C 	0.75380 0.81770 0.85340 -0.17200
C 	C 	0.00370 0.86550 0.95390 0.43700
C 	C 	0.28390 0.61130 0.61300 0.36000
C 	C 	0.98380 0.68670 0.60530 0.39900
C 	C 	0.38140 0.67960 0.97640 0.36300
C 	C 	0.61250 0.81030 0.28760 -0.05300
C 	C 	0.72510 0.78790 0.28550 -0.06800
C 	C 	0.78830 0.79450 0.23810 0.10200
C 	C 	0.79140 0.86610 0.21060 -0.15100
C 	C 	0.85410 0.87210 0.16790 0.07700
C 	C 	0.91320 0.80580 0.15090 -0.15600
C 	C 	0.91010 0.73410 0.17810 0.07900
C 	C 	0.84700 0.72890 0.22090 -0.15500
C 	C 	0.55500 0.81200 0.33670 0.08500
C 	C 	0.60720 0.85010 0.38000 -0.13300
C 	C 	0.55250 0.85290 0.42530 0.05300
C 	C 	0.44360 0.81670 0.42800 -0.12800
C 	C 	0.39100 0.77850 0.38430 0.05400
C 	C 	0.44560 0.77780 0.33940 -0.13700
C 	C 	0.53330 0.83260 0.24090 0.09500
C 	C 	0.51320 0.77940 0.20050 -0.14900
C 	C 	0.43240 0.79700 0.15860 0.07300
C 	C 	0.37190 0.86840 0.15660 -0.15200
C 	C 	0.39390 0.92360 0.19720 0.06700
C 	C 	0.47370 0.90410 0.23860 -0.14800
C 	C 	0.79600 0.75050 0.33040 0.11500
C 	C 	0.90630 0.78080 0.34790 -0.18200
C 	C 	0.97250 0.74430 0.38830 0.11300
C 	C 	0.93170 0.67590 0.41130 -0.21600
C 	C 	0.82170 0.64530 0.39380 0.11600
C 	C 	0.75380 0.68230 0.35340 -0.17500
C 	C 	0.00370 0.63450 0.45390 0.44200
C 	C 	0.28390 0.88870 0.11300 0.36100
C 	C 	0.98380 0.81330 0.10530 0.40000
C 	C 	0.38140 0.82040 0.47640 0.36100
C 	C 	0.38750 0.31030 0.21240 -0.05300
C 	C 	0.27490 0.28790 0.21450 -0.06700
C 	C 	0.21170 0.29450 0.26190 0.10100
C 	C 	0.20860 0.36610 0.28940 -0.15000
C 	C 	0.14590 0.37210 0.33210 0.07700
C 	C 	0.08680 0.30580 0.34910 -0.15500
C 	C 	0.08990 0.23410 0.32190 0.07800
C 	C 	0.15300 0.22890 0.27910 -0.15500
C 	C 	0.44500 0.31200 0.16330 0.08500
C 	C 	0.39280 0.35010 0.12000 -0.13300
C 	C 	0.44750 0.35290 0.07470 0.05300
C 	C 	0.55640 0.31670 0.07200 -0.12800
C 	C 	0.60900 0.27850 0.11570 0.05500
C 	C 	0.55440 0.27780 0.16060 -0.13700
C 	C 	0.46670 0.33260 0.25910 0.09600
C 	C 	0.48680 0.27940 0.29950 -0.14900
C 	C 	0.56760 0.29700 0.34140 0.07300
C 	C 	0.62810 0.36840 0.34340 -0.15100
C 	C 	0.60610 0.42360 0.30280 0.06700
C 	C 	0.52630 0.40410 0.26140 -0.14800
C 	C 	0.20400 0.25050 0.16960 0.11300
C 	C 	0.09370 0.28080 0.15210 -0.17800
C 	C 	0.02750 0.24430 0.11170 0.10700
C 	C 	0.06830 0.17590 0.08870 -0.21100
C 	C 	0.17830 0.14530 0.10620 0.11300
C 	C 	0.24620 0.18230 0.14660 -0.17200
C 	C 	0.99630 0.13450 0.04610 0.43700
C 	C 	0.71610 0.38870 0.38700 0.36000
C 	C 	0.01620 0.31330 0.39470 0.39900
C 	C 	0.61860 0.32040 0.02360 0.36300
O 	O 	0.72790 0.15790 0.92542 -0.50500
O 	O 	0.77580 0.04810 0.88401 -0.41700
O 	O 	0.02160 0.12190 0.91878 -0.45300
O 	O 	0.95540 0.24850 0.90458 -0.48200
O 	O 	0.71070 0.21920 0.52338 -0.44500
O 	O 	0.57400 0.13720 0.48750 -0.30800
O 	O 	0.01980 0.43650 0.53498 -0.55600
O 	O 	0.91180 0.32950 0.52229 -0.53700
O 	O 	0.27210 0.65790 0.57458 -0.50400
O 	O 	0.22420 0.54810 0.61599 -0.41500
O 	O 	0.97840 0.62190 0.58122 -0.45400
O 	O 	0.04460 0.74850 0.59542 -0.48100
O 	O 	0.28930 0.71920 0.97662 -0.44400
O 	O 	0.42600 0.63720 0.01250 -0.30900
O 	O 	0.98020 0.93650 0.96502 -0.55200
O 	O 	0.08820 0.82950 0.97771 -0.53500
O 	O 	0.27210 0.84210 0.07458 -0.50500
O 	O 	0.22420 0.95190 0.11599 -0.41700
O 	O 	0.97840 0.87810 0.08122 -0.45300
O 	O 	0.04460 0.75150 0.09542 -0.48200
O 	O 	0.28930 0.78080 0.47662 -0.44500
O 	O 	0.42600 0.86280 0.51250 -0.30800
O 	O 	0.98020 0.56350 0.46502 -0.55600
O 	O 	0.08820 0.67050 0.47771 -0.53700
O 	O 	0.72790 0.34210 0.42542 -0.50400
O 	O 	0.77580 0.45190 0.38401 -0.41500
O 	O 	0.02160 0.37810 0.41878 -0.45400
O 	O 	0.95540 0.25150 0.40458 -0.48100
O 	O 	0.71070 0.28080 0.02338 -0.44400
O 	O 	0.57400 0.36280 0.98750 -0.30900
O 	O 	0.01980 0.06350 0.03498 -0.55200
O 	O 	0.91180 0.17050 0.02229 -0.53500
