data_crystal

_cell_length_a 11.49170
_cell_length_b 18.52400
_cell_length_c 25.72700
_cell_angle_alpha 90.00000
_cell_angle_beta  96.28000
_cell_angle_gamma 90.00000

_symmetry_space_group_name_	'P 1'
_symmetry_space_group_name_H-M	'P 1'

loop_
_symmetry_equiv_pos_as_xyz
  x,y,z

loop_
_atom_site_label
_atom_site_type_symbol
_atom_site_fract_x
_atom_site_fract_y
_atom_site_fract_z
_atom_site_charge
C 	C 	0.46340 0.71130 0.19187 -0.05700
C 	C 	0.57550 0.73130 0.18992 -0.06200
C 	C 	0.64680 0.76680 0.23472 0.09900
C 	C 	0.61100 0.83070 0.25500 -0.15400
H 	H 	0.53960 0.85220 0.24050 0.08100
C 	C 	0.67730 0.86390 0.29590 0.07800
H 	H 	0.65120 0.90820 0.30920 0.01600
C 	C 	0.78080 0.83390 0.31772 -0.16100
C 	C 	0.81820 0.77070 0.29734 0.07500
H 	H 	0.88930 0.74910 0.31210 -0.00200
C 	C 	0.75300 0.73820 0.25560 -0.15600
H 	H 	0.78150 0.69550 0.24090 0.07800
C 	C 	0.40510 0.71320 0.24092 0.09100
C 	C 	0.45410 0.67780 0.28546 -0.14200
H 	H 	0.52740 0.65410 0.28560 0.07600
C 	C 	0.39540 0.67690 0.33010 0.06700
H 	H 	0.42980 0.65250 0.36050 0.01500
C 	C 	0.28860 0.71050 0.33126 -0.15000
C 	C 	0.24090 0.74650 0.28698 0.06800
H 	H 	0.16840 0.77100 0.28720 0.01700
C 	C 	0.29810 0.74710 0.24227 -0.14400
H 	H 	0.26310 0.77120 0.21190 0.07400
C 	C 	0.38700 0.68450 0.14526 0.09500
C 	C 	0.32820 0.61970 0.14800 -0.15200
H 	H 	0.33880 0.59220 0.17940 0.08400
C 	C 	0.25410 0.59390 0.10597 0.08400
H 	H 	0.21590 0.54880 0.10850 0.00200
C 	C 	0.23580 0.63400 0.06020 -0.18000
C 	C 	0.29410 0.69950 0.05682 0.08000
H 	H 	0.28180 0.72740 0.02570 -0.00600
C 	C 	0.37040 0.72420 0.09886 -0.15200
H 	H 	0.41140 0.76830 0.09600 0.08100
C 	C 	0.63960 0.71870 0.14348 0.09700
C 	C 	0.70270 0.77400 0.12308 -0.15400
H 	H 	0.70170 0.82100 0.13790 0.07900
C 	C 	0.76710 0.76140 0.08141 0.08100
H 	H 	0.80830 0.80000 0.06740 -0.00100
C 	C 	0.77150 0.69350 0.06026 -0.16300
C 	C 	0.70790 0.63750 0.08016 0.07600
H 	H 	0.70940 0.59050 0.06540 0.01000
C 	C 	0.64270 0.65050 0.12125 -0.15000
H 	H 	0.59930 0.61230 0.13450 0.08200
C 	C 	0.15070 0.60780 0.01634 0.40400
C 	C 	0.22530 0.70870 0.37960 0.40400
C 	C 	0.84830 0.86970 0.36323 0.36500
C 	C 	0.84730 0.67840 0.01758 0.41000
Cd	Cd	0.03830 0.43733 0.05366 1.21800
Cd	Cd	0.02417 0.75042 0.94172 1.20200
O 	O 	0.10470 0.54629 0.01959 -0.52400
O 	O 	0.12380 0.64754 0.97681 -0.51400
O 	O 	0.86660 0.61228 0.00880 -0.45000
O 	O 	0.88600 0.73050 0.99471 -0.48800
O 	O 	0.27580 0.68690 0.42050 -0.34000
O 	O 	0.12650 0.73270 0.37582 -0.46400
O 	O 	0.93890 0.83982 0.38560 -0.51500
O 	O 	0.81410 0.92922 0.37857 -0.41200
C 	C 	0.53660 0.21130 0.30813 -0.05600
C 	C 	0.42450 0.23130 0.31008 -0.06100
C 	C 	0.35320 0.26680 0.26528 0.10000
C 	C 	0.38900 0.33070 0.24500 -0.15300
H 	H 	0.46040 0.35220 0.25950 0.08100
C 	C 	0.32270 0.36390 0.20410 0.07800
H 	H 	0.34880 0.40820 0.19080 0.01600
C 	C 	0.21920 0.33390 0.18228 -0.16100
C 	C 	0.18180 0.27070 0.20266 0.07500
H 	H 	0.11070 0.24910 0.18790 -0.00200
C 	C 	0.24700 0.23820 0.24440 -0.15600
H 	H 	0.21850 0.19550 0.25910 0.07800
C 	C 	0.59490 0.21320 0.25908 0.09100
C 	C 	0.54590 0.17780 0.21454 -0.14200
H 	H 	0.47260 0.15410 0.21440 0.07600
C 	C 	0.60460 0.17690 0.16990 0.06700
H 	H 	0.57020 0.15250 0.13950 0.01500
C 	C 	0.71140 0.21050 0.16874 -0.15000
C 	C 	0.75910 0.24650 0.21302 0.06800
H 	H 	0.83160 0.27100 0.21280 0.01700
C 	C 	0.70190 0.24710 0.25773 -0.14400
H 	H 	0.73690 0.27120 0.28810 0.07500
C 	C 	0.61300 0.18450 0.35474 0.09500
C 	C 	0.67180 0.11970 0.35200 -0.15300
H 	H 	0.66120 0.09220 0.32060 0.08400
C 	C 	0.74590 0.09390 0.39403 0.08400
H 	H 	0.78410 0.04880 0.39150 0.00200
C 	C 	0.76420 0.13400 0.43980 -0.18000
C 	C 	0.70590 0.19950 0.44318 0.08000
H 	H 	0.71820 0.22740 0.47430 -0.00600
C 	C 	0.62960 0.22420 0.40114 -0.15200
H 	H 	0.58860 0.26830 0.40400 0.08100
C 	C 	0.36040 0.21870 0.35652 0.09700
C 	C 	0.29730 0.27400 0.37692 -0.15400
H 	H 	0.29830 0.32100 0.36210 0.07900
C 	C 	0.23290 0.26140 0.41859 0.08100
H 	H 	0.19170 0.30000 0.43260 -0.00000
C 	C 	0.22850 0.19350 0.43974 -0.16300
C 	C 	0.29210 0.13750 0.41984 0.07600
H 	H 	0.29060 0.09050 0.43460 0.01000
C 	C 	0.35730 0.15050 0.37875 -0.15000
H 	H 	0.40070 0.11230 0.36550 0.08200
C 	C 	0.84930 0.10780 0.48366 0.40400
C 	C 	0.77470 0.20870 0.12040 0.40400
C 	C 	0.15170 0.36970 0.13677 0.36500
C 	C 	0.15270 0.17840 0.48242 0.41100
Cd	Cd	0.96170 0.93733 0.44634 1.21800
Cd	Cd	0.97583 0.25042 0.55828 1.20200
O 	O 	0.89530 0.04629 0.48041 -0.52400
O 	O 	0.87620 0.14754 0.52319 -0.51400
O 	O 	0.13340 0.11228 0.49120 -0.45000
O 	O 	0.11400 0.23050 0.50529 -0.48900
O 	O 	0.72420 0.18690 0.07950 -0.34000
O 	O 	0.87350 0.23270 0.12418 -0.46400
O 	O 	0.06110 0.33982 0.11440 -0.51400
O 	O 	0.18590 0.42922 0.12143 -0.41200
C 	C 	0.53660 0.28870 0.80813 -0.05600
C 	C 	0.42450 0.26870 0.81008 -0.06100
C 	C 	0.35320 0.23320 0.76528 0.10000
C 	C 	0.38900 0.16930 0.74500 -0.15300
H 	H 	0.46040 0.14780 0.75950 0.08100
C 	C 	0.32270 0.13610 0.70410 0.07800
H 	H 	0.34880 0.09180 0.69080 0.01600
C 	C 	0.21920 0.16610 0.68228 -0.16100
C 	C 	0.18180 0.22930 0.70266 0.07500
H 	H 	0.11070 0.25090 0.68790 -0.00200
C 	C 	0.24700 0.26180 0.74440 -0.15600
H 	H 	0.21850 0.30450 0.75910 0.07800
C 	C 	0.59490 0.28680 0.75908 0.09100
C 	C 	0.54590 0.32220 0.71454 -0.14200
H 	H 	0.47260 0.34590 0.71440 0.07600
C 	C 	0.60460 0.32310 0.66990 0.06700
H 	H 	0.57020 0.34750 0.63950 0.01500
C 	C 	0.71140 0.28950 0.66874 -0.15000
C 	C 	0.75910 0.25350 0.71302 0.06800
H 	H 	0.83160 0.22900 0.71280 0.01700
C 	C 	0.70190 0.25290 0.75773 -0.14400
H 	H 	0.73690 0.22880 0.78810 0.07400
C 	C 	0.61300 0.31550 0.85474 0.09500
C 	C 	0.67180 0.38030 0.85200 -0.15200
H 	H 	0.66120 0.40780 0.82060 0.08400
C 	C 	0.74590 0.40610 0.89403 0.08400
H 	H 	0.78410 0.45120 0.89150 0.00200
C 	C 	0.76420 0.36600 0.93980 -0.18000
C 	C 	0.70590 0.30050 0.94318 0.08000
H 	H 	0.71820 0.27260 0.97430 -0.00600
C 	C 	0.62960 0.27580 0.90114 -0.15200
H 	H 	0.58860 0.23170 0.90400 0.08100
C 	C 	0.36040 0.28130 0.85652 0.09700
C 	C 	0.29730 0.22600 0.87692 -0.15400
H 	H 	0.29830 0.17900 0.86210 0.07900
C 	C 	0.23290 0.23860 0.91859 0.08100
H 	H 	0.19170 0.20000 0.93260 -0.00100
C 	C 	0.22850 0.30650 0.93974 -0.16300
C 	C 	0.29210 0.36250 0.91984 0.07600
H 	H 	0.29060 0.40950 0.93460 0.01000
C 	C 	0.35730 0.34950 0.87875 -0.15000
H 	H 	0.40070 0.38770 0.86550 0.08200
C 	C 	0.84930 0.39220 0.98366 0.40400
C 	C 	0.77470 0.29130 0.62040 0.40400
C 	C 	0.15170 0.13030 0.63677 0.36500
C 	C 	0.15270 0.32160 0.98242 0.41000
Cd	Cd	0.96170 0.56267 0.94634 1.21800
Cd	Cd	0.97583 0.24958 0.05828 1.20200
O 	O 	0.89530 0.45371 0.98041 -0.52400
O 	O 	0.87620 0.35246 0.02319 -0.51400
O 	O 	0.13340 0.38772 0.99120 -0.45000
O 	O 	0.11400 0.26950 0.00529 -0.48800
O 	O 	0.72420 0.31310 0.57950 -0.34000
O 	O 	0.87350 0.26730 0.62418 -0.46400
O 	O 	0.06110 0.16018 0.61440 -0.51500
O 	O 	0.18590 0.07078 0.62143 -0.41200
C 	C 	0.46340 0.78870 0.69187 -0.05600
C 	C 	0.57550 0.76870 0.68992 -0.06100
C 	C 	0.64680 0.73320 0.73472 0.10000
C 	C 	0.61100 0.66930 0.75500 -0.15300
H 	H 	0.53960 0.64780 0.74050 0.08100
C 	C 	0.67730 0.63610 0.79590 0.07800
H 	H 	0.65120 0.59180 0.80920 0.01600
C 	C 	0.78080 0.66610 0.81772 -0.16100
C 	C 	0.81820 0.72930 0.79734 0.07500
H 	H 	0.88930 0.75090 0.81210 -0.00200
C 	C 	0.75300 0.76180 0.75560 -0.15600
H 	H 	0.78150 0.80450 0.74090 0.07800
C 	C 	0.40510 0.78680 0.74092 0.09100
C 	C 	0.45410 0.82220 0.78546 -0.14200
H 	H 	0.52740 0.84590 0.78560 0.07600
C 	C 	0.39540 0.82310 0.83010 0.06700
H 	H 	0.42980 0.84750 0.86050 0.01500
C 	C 	0.28860 0.78950 0.83126 -0.15000
C 	C 	0.24090 0.75350 0.78698 0.06800
H 	H 	0.16840 0.72900 0.78720 0.01700
C 	C 	0.29810 0.75290 0.74227 -0.14400
H 	H 	0.26310 0.72880 0.71190 0.07500
C 	C 	0.38700 0.81550 0.64526 0.09500
C 	C 	0.32820 0.88030 0.64800 -0.15300
H 	H 	0.33880 0.90780 0.67940 0.08400
C 	C 	0.25410 0.90610 0.60597 0.08400
H 	H 	0.21590 0.95120 0.60850 0.00200
C 	C 	0.23580 0.86600 0.56020 -0.18000
C 	C 	0.29410 0.80050 0.55682 0.08000
H 	H 	0.28180 0.77260 0.52570 -0.00600
C 	C 	0.37040 0.77580 0.59886 -0.15200
H 	H 	0.41140 0.73170 0.59600 0.08100
C 	C 	0.63960 0.78130 0.64348 0.09700
C 	C 	0.70270 0.72600 0.62308 -0.15400
H 	H 	0.70170 0.67900 0.63790 0.07900
C 	C 	0.76710 0.73860 0.58141 0.08100
H 	H 	0.80830 0.70000 0.56740 -0.00000
C 	C 	0.77150 0.80650 0.56026 -0.16300
C 	C 	0.70790 0.86250 0.58016 0.07600
H 	H 	0.70940 0.90950 0.56540 0.01000
C 	C 	0.64270 0.84950 0.62125 -0.15000
H 	H 	0.59930 0.88770 0.63450 0.08200
C 	C 	0.15070 0.89220 0.51634 0.40400
C 	C 	0.22530 0.79130 0.87960 0.40400
C 	C 	0.84830 0.63030 0.86323 0.36500
C 	C 	0.84730 0.82160 0.51758 0.41100
Cd	Cd	0.03830 0.06267 0.55366 1.21800
Cd	Cd	0.02417 0.74958 0.44172 1.20200
O 	O 	0.10470 0.95371 0.51959 -0.52400
O 	O 	0.12380 0.85246 0.47681 -0.51400
O 	O 	0.86660 0.88772 0.50880 -0.45000
O 	O 	0.88600 0.76950 0.49471 -0.48900
O 	O 	0.27580 0.81310 0.92050 -0.34000
O 	O 	0.12650 0.76730 0.87582 -0.46400
O 	O 	0.93890 0.66018 0.88560 -0.51400
O 	O 	0.81410 0.57078 0.87857 -0.41200
