data_crystal

_cell_length_a 16.08080
_cell_length_b 16.74170
_cell_length_c 20.39700
_cell_angle_alpha 76.95100
_cell_angle_beta  74.85800
_cell_angle_gamma 78.37200

_symmetry_space_group_name_	'P 1'
_symmetry_space_group_name_H-M	'P 1'

loop_
_symmetry_equiv_pos_as_xyz
  x,y,z

loop_
_atom_site_label
_atom_site_type_symbol
_atom_site_fract_x
_atom_site_fract_y
_atom_site_fract_z
_atom_site_charge
C 	C 	0.16040 0.06000 0.28130 0.06200
C 	C 	0.23990 0.02060 0.30460 -0.09000
H 	H 	0.28530 0.04640 0.30600 0.06100
C 	C 	0.23380 0.93790 0.32390 -0.07900
H 	H 	0.27290 0.89700 0.34390 0.05500
C 	C 	0.15420 0.92540 0.30760 0.04400
C 	C 	0.12400 0.84990 0.31790 -0.14800
C 	C 	0.05390 0.83180 0.29830 0.06800
C 	C 	0.02610 0.75400 0.30570 -0.09500
H 	H 	0.05240 0.70220 0.32460 0.06600
C 	C 	0.95280 0.77050 0.27960 -0.06500
H 	H 	0.92220 0.73100 0.27540 0.05300
C 	C 	0.93120 0.85870 0.25960 0.03900
C 	C 	0.85840 0.90050 0.23010 -0.15000
C 	C 	0.83940 0.98610 0.20910 0.07600
C 	C 	0.76100 0.02380 0.18730 -0.11100
H 	H 	0.71570 0.99740 0.18650 0.07000
C 	C 	0.76570 0.10480 0.16820 -0.05600
H 	H 	0.72450 0.14440 0.14940 0.04200
C 	C 	0.84510 0.12240 0.18120 0.03200
C 	C 	0.87550 0.19750 0.17030 -0.13900
C 	C 	0.95220 0.20870 0.18920 0.06200
C 	C 	0.98410 0.28860 0.17600 -0.08000
H 	H 	0.95790 0.33910 0.15490 0.06000
C 	C 	0.05500 0.27690 0.19870 -0.07600
H 	H 	0.08790 0.31700 0.19800 0.05600
C 	C 	0.07210 0.18910 0.22530 0.05200
C 	C 	0.14250 0.14600 0.25410 -0.15300
C 	C 	0.20560 0.19700 0.26110 0.06200
C 	C 	0.26410 0.22430 0.20300 -0.07500
H 	H 	0.26220 0.21430 0.16050 0.04400
C 	C 	0.33030 0.26980 0.20830 -0.08100
H 	H 	0.36970 0.29040 0.16890 0.05100
C 	C 	0.33370 0.28200 0.27270 0.08600
C 	C 	0.27200 0.25710 0.32880 -0.08800
H 	H 	0.27240 0.26690 0.37180 0.05700
C 	C 	0.20770 0.21670 0.32210 -0.07000
H 	H 	0.16430 0.20250 0.36090 0.04200
C 	C 	0.43940 0.38170 0.23720 0.01100
H 	H 	0.42580 0.40890 0.19540 0.03200
C 	C 	0.49870 0.39790 0.26740 -0.00500
H 	H 	0.53260 0.44010 0.24950 0.02600
C 	C 	0.44250 0.29670 0.33170 0.10500
H 	H 	0.42940 0.25260 0.36770 -0.01600
C 	C 	0.18020 0.77380 0.35100 0.04000
C 	C 	0.18550 0.76110 0.41970 -0.05000
H 	H 	0.15360 0.79890 0.44750 0.03200
C 	C 	0.23840 0.69180 0.44670 -0.10000
H 	H 	0.24190 0.68320 0.49260 0.07200
C 	C 	0.28600 0.63530 0.40510 0.10500
C 	C 	0.28080 0.64800 0.33650 -0.10500
H 	H 	0.31260 0.61020 0.30870 0.07400
C 	C 	0.22790 0.71730 0.30940 -0.05000
H 	H 	0.22430 0.72590 0.26350 0.03800
C 	C 	0.32440 0.52690 0.50470 -0.02100
H 	H 	0.27930 0.54210 0.54090 0.03900
C 	C 	0.39110 0.46430 0.50690 0.01100
H 	H 	0.39790 0.42760 0.54750 0.01900
C 	C 	0.41190 0.51860 0.40530 0.11000
H 	H 	0.43520 0.53020 0.35800 -0.01700
C 	C 	0.79640 0.84470 0.22770 0.05000
C 	C 	0.74350 0.80700 0.28640 -0.06200
H 	H 	0.74820 0.81080 0.33000 0.04600
C 	C 	0.68150 0.76210 0.27870 -0.09100
H 	H 	0.64700 0.73360 0.31740 0.06900
C 	C 	0.67330 0.76120 0.21410 0.09200
C 	C 	0.72910 0.79380 0.15510 -0.09500
H 	H 	0.72660 0.78620 0.11190 0.05100
C 	C 	0.78860 0.83770 0.16200 -0.05900
H 	H 	0.82440 0.86350 0.12260 0.03200
C 	C 	0.57280 0.65220 0.24640 -0.01000
H 	H 	0.59140 0.62000 0.28500 0.04900
N 	N 	0.50420 0.69690 0.16240 -0.25800
C 	C 	0.56090 0.74590 0.15480 0.08800
H 	H 	0.56900 0.79220 0.12000 -0.04200
C 	C 	0.81960 0.27000 0.13820 0.04300
C 	C 	0.77810 0.33350 0.17550 -0.05700
H 	H 	0.78760 0.32990 0.21920 0.05000
C 	C 	0.72200 0.40320 0.14850 -0.10100
H 	H 	0.69430 0.44460 0.17400 0.07000
C 	C 	0.71040 0.40710 0.08370 0.09500
C 	C 	0.74960 0.34430 0.04600 -0.10800
H 	H 	0.73800 0.34750 0.00310 0.06400
C 	C 	0.80530 0.27730 0.07130 -0.05200
H 	H 	0.83340 0.23720 0.04460 0.03200
C 	C 	0.58780 0.52180 0.08710 0.11100
H 	H 	0.57270 0.51430 0.13500 -0.02200
C 	C 	0.58950 0.56760 0.98230 -0.01200
H 	H 	0.57350 0.59760 0.94200 0.00200
C 	C 	0.65870 0.50270 0.98440 -0.01400
H 	H 	0.70020 0.48400 0.94770 0.03300
C 	C 	0.70700 0.42270 0.34180 0.33400
C 	C 	0.79250 0.44970 0.31180 -0.12100
C 	C 	0.80360 0.52270 0.26410 0.03900
H 	H 	0.75600 0.55530 0.24850 0.02600
C 	C 	0.88450 0.54700 0.23980 -0.11100
H 	H 	0.88840 0.59680 0.20870 0.06400
C 	C 	0.95560 0.50640 0.25660 0.03400
C 	C 	0.94930 0.42750 0.30660 -0.10100
H 	H 	0.99860 0.39520 0.31960 0.05800
C 	C 	0.86730 0.40250 0.33390 0.02900
H 	H 	0.86180 0.35440 0.36700 0.02100
C 	C 	0.04620 0.53020 0.23140 0.05900
C 	C 	0.05740 0.59800 0.18190 -0.13100
H 	H 	0.01030 0.62730 0.16380 0.06800
C 	C 	0.13670 0.62490 0.15750 0.05300
H 	H 	0.14270 0.67240 0.12380 0.01200
C 	C 	0.20920 0.58090 0.18330 -0.13900
C 	C 	0.19930 0.51360 0.23100 0.06300
H 	H 	0.24700 0.48260 0.24740 0.02000
C 	C 	0.11710 0.48890 0.25690 -0.12900
H 	H 	0.11030 0.44310 0.29250 0.07200
C 	C 	0.29450 0.61270 0.15170 0.35400
C 	C 	0.53450 0.24660 0.53690 0.31300
C 	C 	0.52380 0.17860 0.59740 -0.10700
C 	C 	0.55250 0.18620 0.65410 0.02200
H 	H 	0.57890 0.23150 0.65210 0.03500
C 	C 	0.54160 0.12600 0.71370 -0.10100
H 	H 	0.56080 0.13110 0.75170 0.05600
C 	C 	0.50210 0.05830 0.71680 0.04600
C 	C 	0.47340 0.05070 0.66010 -0.11000
H 	H 	0.44700 0.00540 0.66210 0.06200
C 	C 	0.48430 0.11080 0.60040 0.02900
H 	H 	0.46510 0.10570 0.56250 0.02600
C 	C 	0.49180 0.98940 0.77950 0.01200
C 	C 	0.49520 0.00570 0.84260 -0.07500
H 	H 	0.50520 0.05750 0.84530 0.04000
C 	C 	0.48350 0.94460 0.90150 -0.02900
H 	H 	0.48580 0.95550 0.94370 0.00700
C 	C 	0.46850 0.86710 0.89750 -0.07400
C 	C 	0.46510 0.85080 0.83440 -0.02300
H 	H 	0.45510 0.79900 0.83170 0.02600
C 	C 	0.47680 0.91190 0.77550 -0.07400
H 	H 	0.47450 0.90100 0.73330 0.05100
N 	N 	0.11090 0.00310 0.28350 -0.37300
N 	N 	0.00830 0.14920 0.21530 -0.37200
N 	N 	0.88870 0.04280 0.20420 -0.37100
N 	N 	0.99820 0.89410 0.26750 -0.36400
N 	N 	0.40540 0.31880 0.28040 -0.14500
N 	N 	0.50120 0.34340 0.32780 -0.23700
N 	N 	0.33890 0.56300 0.43640 -0.13500
N 	N 	0.44730 0.45870 0.44610 -0.24800
N 	N 	0.60580 0.71990 0.20460 -0.13500
C 	C 	0.50730 0.64150 0.22030 0.01400
H 	H 	0.47040 0.60190 0.23960 0.01800
N 	N 	0.65090 0.47320 0.05390 -0.14800
N 	N 	0.54740 0.58150 0.04830 -0.26100
O 	O 	0.55760 0.31230 0.53430 -0.37900
O 	O 	0.52340 0.23140 0.47980 -0.38200
O 	O 	0.63910 0.46600 0.32930 -0.37700
O 	O 	0.70060 0.35330 0.38190 -0.42400
O 	O 	0.30050 0.67450 0.10310 -0.47100
O 	O 	0.35800 0.57450 0.17280 -0.37700
Cd	Cd	0.55734 0.36056 0.41443 1.21900
Cd	Cd	0.43964 0.68538 0.07822 1.16800
Cd	Cd	0.02918 0.01818 0.20665 1.02300
Cd	Cd	0.97090 0.02772 0.28182 1.02000
C 	C 	0.83960 0.94000 0.71870 0.06300
C 	C 	0.76010 0.97940 0.69540 -0.08900
H 	H 	0.71470 0.95360 0.69400 0.06200
C 	C 	0.76620 0.06210 0.67610 -0.07800
H 	H 	0.72710 0.10300 0.65610 0.05600
C 	C 	0.84580 0.07460 0.69240 0.04500
C 	C 	0.87600 0.15010 0.68210 -0.14800
C 	C 	0.94610 0.16820 0.70170 0.06800
C 	C 	0.97390 0.24600 0.69430 -0.09500
H 	H 	0.94760 0.29780 0.67540 0.06600
C 	C 	0.04720 0.22950 0.72040 -0.06500
H 	H 	0.07780 0.26900 0.72460 0.05300
C 	C 	0.06880 0.14130 0.74040 0.03900
C 	C 	0.14160 0.09950 0.76990 -0.15000
C 	C 	0.16060 0.01390 0.79090 0.07600
C 	C 	0.23900 0.97620 0.81270 -0.11100
H 	H 	0.28430 0.00260 0.81350 0.07000
C 	C 	0.23430 0.89520 0.83180 -0.05600
H 	H 	0.27550 0.85560 0.85060 0.04200
C 	C 	0.15490 0.87760 0.81880 0.03200
C 	C 	0.12450 0.80250 0.82970 -0.13900
C 	C 	0.04780 0.79130 0.81080 0.06200
C 	C 	0.01590 0.71140 0.82400 -0.08000
H 	H 	0.04210 0.66090 0.84510 0.06000
C 	C 	0.94500 0.72310 0.80130 -0.07600
H 	H 	0.91210 0.68300 0.80200 0.05600
C 	C 	0.92790 0.81090 0.77470 0.05200
C 	C 	0.85750 0.85400 0.74590 -0.15300
C 	C 	0.79440 0.80300 0.73890 0.06200
C 	C 	0.73590 0.77570 0.79700 -0.07500
H 	H 	0.73780 0.78570 0.83950 0.04400
C 	C 	0.66970 0.73020 0.79170 -0.08100
H 	H 	0.63030 0.70960 0.83110 0.05100
C 	C 	0.66630 0.71800 0.72730 0.08600
C 	C 	0.72800 0.74290 0.67120 -0.08800
H 	H 	0.72760 0.73310 0.62820 0.05700
C 	C 	0.79230 0.78330 0.67790 -0.07000
H 	H 	0.83570 0.79750 0.63910 0.04200
C 	C 	0.56060 0.61830 0.76280 0.01100
H 	H 	0.57420 0.59110 0.80460 0.03200
C 	C 	0.50130 0.60210 0.73260 -0.00500
H 	H 	0.46740 0.55990 0.75050 0.02600
C 	C 	0.55750 0.70330 0.66830 0.10500
H 	H 	0.57060 0.74740 0.63230 -0.01600
C 	C 	0.81980 0.22620 0.64900 0.04000
C 	C 	0.81450 0.23890 0.58030 -0.05000
H 	H 	0.84640 0.20110 0.55250 0.03200
C 	C 	0.76160 0.30820 0.55330 -0.10000
H 	H 	0.75810 0.31680 0.50740 0.07200
C 	C 	0.71400 0.36470 0.59490 0.10500
C 	C 	0.71920 0.35200 0.66350 -0.10500
H 	H 	0.68740 0.38980 0.69130 0.07400
C 	C 	0.77210 0.28270 0.69060 -0.05000
H 	H 	0.77570 0.27410 0.73650 0.03800
C 	C 	0.67560 0.47310 0.49530 -0.02100
H 	H 	0.72070 0.45790 0.45910 0.03900
C 	C 	0.60890 0.53570 0.49310 0.01100
H 	H 	0.60210 0.57240 0.45250 0.01900
C 	C 	0.58810 0.48140 0.59470 0.11000
H 	H 	0.56480 0.46980 0.64200 -0.01700
C 	C 	0.20360 0.15530 0.77230 0.05000
C 	C 	0.25650 0.19300 0.71360 -0.06200
H 	H 	0.25180 0.18920 0.67000 0.04600
C 	C 	0.31850 0.23790 0.72130 -0.09100
H 	H 	0.35300 0.26640 0.68260 0.06900
C 	C 	0.32670 0.23880 0.78590 0.09200
C 	C 	0.27090 0.20620 0.84490 -0.09500
H 	H 	0.27340 0.21380 0.88810 0.05100
C 	C 	0.21140 0.16230 0.83800 -0.05900
H 	H 	0.17560 0.13650 0.87740 0.03200
C 	C 	0.42720 0.34780 0.75360 -0.01000
H 	H 	0.40860 0.38000 0.71500 0.04900
N 	N 	0.49580 0.30310 0.83760 -0.25800
C 	C 	0.43910 0.25410 0.84520 0.08800
H 	H 	0.43100 0.20780 0.88000 -0.04200
C 	C 	0.18040 0.73000 0.86180 0.04300
C 	C 	0.22190 0.66650 0.82450 -0.05700
H 	H 	0.21240 0.67010 0.78080 0.05000
C 	C 	0.27800 0.59680 0.85150 -0.10100
H 	H 	0.30570 0.55540 0.82600 0.07000
C 	C 	0.28960 0.59290 0.91630 0.09500
C 	C 	0.25040 0.65570 0.95400 -0.10800
H 	H 	0.26200 0.65250 0.99690 0.06400
C 	C 	0.19470 0.72270 0.92870 -0.05200
H 	H 	0.16660 0.76280 0.95540 0.03200
C 	C 	0.41220 0.47820 0.91290 0.11100
H 	H 	0.42730 0.48570 0.86500 -0.02200
C 	C 	0.41050 0.43240 0.01770 -0.01200
H 	H 	0.42650 0.40240 0.05800 0.00200
C 	C 	0.34130 0.49730 0.01560 -0.01400
H 	H 	0.29980 0.51600 0.05230 0.03300
C 	C 	0.29300 0.57730 0.65820 0.33400
C 	C 	0.20750 0.55030 0.68820 -0.12100
C 	C 	0.19640 0.47730 0.73590 0.03900
H 	H 	0.24400 0.44470 0.75150 0.02600
C 	C 	0.11550 0.45300 0.76020 -0.11100
H 	H 	0.11160 0.40320 0.79130 0.06400
C 	C 	0.04440 0.49360 0.74340 0.03400
C 	C 	0.05070 0.57250 0.69340 -0.10100
H 	H 	0.00140 0.60480 0.68040 0.05800
C 	C 	0.13270 0.59750 0.66610 0.02900
H 	H 	0.13820 0.64560 0.63300 0.02100
C 	C 	0.95380 0.46980 0.76860 0.05900
C 	C 	0.94260 0.40200 0.81810 -0.13100
H 	H 	0.98970 0.37270 0.83620 0.06800
C 	C 	0.86330 0.37510 0.84250 0.05300
H 	H 	0.85730 0.32760 0.87620 0.01200
C 	C 	0.79080 0.41910 0.81670 -0.13900
C 	C 	0.80070 0.48640 0.76900 0.06300
H 	H 	0.75300 0.51740 0.75260 0.02000
C 	C 	0.88290 0.51110 0.74310 -0.12900
H 	H 	0.88970 0.55690 0.70750 0.07200
C 	C 	0.70550 0.38730 0.84830 0.35400
C 	C 	0.46550 0.75340 0.46310 0.31300
C 	C 	0.47620 0.82140 0.40260 -0.10700
C 	C 	0.44750 0.81380 0.34590 0.02200
H 	H 	0.42110 0.76850 0.34790 0.03500
C 	C 	0.45840 0.87400 0.28630 -0.10100
H 	H 	0.43920 0.86890 0.24830 0.05600
C 	C 	0.49790 0.94170 0.28320 0.04600
C 	C 	0.52660 0.94930 0.33990 -0.11000
H 	H 	0.55300 0.99460 0.33790 0.06200
C 	C 	0.51570 0.88920 0.39960 0.02900
H 	H 	0.53490 0.89430 0.43750 0.02600
C 	C 	0.50820 0.01060 0.22050 0.01200
C 	C 	0.50480 0.99430 0.15740 -0.07500
H 	H 	0.49480 0.94250 0.15470 0.04000
C 	C 	0.51650 0.05540 0.09850 -0.02900
H 	H 	0.51420 0.04450 0.05630 0.00700
C 	C 	0.53150 0.13290 0.10250 -0.07400
C 	C 	0.53490 0.14920 0.16560 -0.02300
H 	H 	0.54490 0.20100 0.16830 0.02600
C 	C 	0.52320 0.08810 0.22450 -0.07400
H 	H 	0.52550 0.09900 0.26670 0.05100
N 	N 	0.88910 0.99690 0.71650 -0.37300
N 	N 	0.99170 0.85080 0.78470 -0.37200
N 	N 	0.11130 0.95720 0.79580 -0.37100
N 	N 	0.00180 0.10590 0.73250 -0.36400
N 	N 	0.59460 0.68120 0.71960 -0.14500
N 	N 	0.49880 0.65660 0.67220 -0.23700
N 	N 	0.66110 0.43700 0.56360 -0.13500
N 	N 	0.55270 0.54130 0.55390 -0.24800
N 	N 	0.39420 0.28010 0.79540 -0.13500
C 	C 	0.49270 0.35850 0.77970 0.01400
H 	H 	0.52960 0.39810 0.76040 0.01800
N 	N 	0.34910 0.52680 0.94610 -0.14800
N 	N 	0.45260 0.41850 0.95170 -0.26100
O 	O 	0.44240 0.68770 0.46570 -0.37900
O 	O 	0.47660 0.76860 0.52020 -0.38200
O 	O 	0.36090 0.53400 0.67070 -0.37700
O 	O 	0.29940 0.64670 0.61810 -0.42400
O 	O 	0.69950 0.32550 0.89690 -0.47100
O 	O 	0.64200 0.42550 0.82720 -0.37700
Cd	Cd	0.44266 0.63944 0.58557 1.21900
Cd	Cd	0.56036 0.31462 0.92178 1.16800
Cd	Cd	0.97082 0.98182 0.79335 1.02300
Cd	Cd	0.02910 0.97228 0.71818 1.02000
