data_crystal

_cell_length_a 23.21430
_cell_length_b 23.21430
_cell_length_c 23.21430
_cell_angle_alpha 109.47100
_cell_angle_beta  109.47100
_cell_angle_gamma 109.47100

_symmetry_space_group_name_	'P 1'
_symmetry_space_group_name_H-M	'P 1'

loop_
_symmetry_equiv_pos_as_xyz
  x,y,z

loop_
_atom_site_label
_atom_site_type_symbol
_atom_site_fract_x
_atom_site_fract_y
_atom_site_fract_z
_atom_site_charge
Nd	Nd	0.50000 0.00000 -0.00000 1.72300
Nd	Nd	0.50000 0.50000 0.50000 2.22300
Nd	Nd	-0.00000 0.50000 -0.00000 1.68000
Nd	Nd	-0.00000 0.00000 0.50000 1.69700
Nd	Nd	0.33167 0.00000 -0.00000 1.81200
Nd	Nd	0.50000 0.33167 0.50000 2.35400
Nd	Nd	-0.00000 0.50000 0.83167 2.11200
Nd	Nd	0.16833 0.16833 0.66833 2.36700
Nd	Nd	0.66833 0.00000 -0.00000 1.82900
Nd	Nd	0.50000 0.66833 0.50000 2.36100
Nd	Nd	-0.00000 0.50000 0.16833 2.01500
Nd	Nd	0.83167 0.83167 0.33167 2.36700
H 	H 	0.36100 0.76620 0.98820 0.12000
H 	H 	0.14210 0.70560 0.81650 0.03800
H 	H 	0.24150 0.81010 0.85800 0.07100
H 	H 	0.27800 0.37280 0.51180 0.08000
H 	H 	0.38910 0.32560 0.68350 0.06000
H 	H 	0.45210 0.38350 0.64200 0.05500
H 	H 	0.22200 0.73380 0.09480 0.07600
H 	H 	0.11090 0.79440 0.93650 0.04000
H 	H 	0.04790 0.68990 0.93140 0.01500
H 	H 	0.13900 0.12720 0.40520 0.05800
H 	H 	0.35790 0.17440 0.56350 0.05300
H 	H 	0.25850 0.11650 0.56860 0.04200
H 	H 	0.59480 0.22200 0.23380 0.08800
H 	H 	0.43650 0.11090 0.29440 0.03900
H 	H 	0.43140 0.04790 0.18990 0.03400
H 	H 	0.90520 0.13900 0.62720 0.08600
H 	H 	0.06350 0.35790 0.67440 0.06900
H 	H 	0.06860 0.25850 0.61650 0.06700
H 	H 	0.48820 0.36100 0.26620 0.08500
H 	H 	0.31650 0.14210 0.20560 0.03000
H 	H 	0.35800 0.24150 0.31010 0.04800
H 	H 	0.01180 0.27800 0.87280 0.07100
H 	H 	0.18350 0.38910 0.82560 0.06000
H 	H 	0.14200 0.45210 0.88350 0.06500
H 	H 	0.37280 0.01180 0.77800 0.07300
H 	H 	0.32560 0.18350 0.88910 0.06400
H 	H 	0.38350 0.14200 0.95210 0.08900
H 	H 	0.76620 0.48820 0.86100 0.11100
H 	H 	0.70560 0.31650 0.64210 0.04700
H 	H 	0.81010 0.35800 0.74150 0.06500
H 	H 	0.12720 0.90520 0.63900 0.08700
H 	H 	0.17440 0.06350 0.85790 0.07400
H 	H 	0.11650 0.06860 0.75850 0.05900
H 	H 	0.73380 0.59480 0.72200 0.09800
H 	H 	0.79440 0.43650 0.61090 0.06200
H 	H 	0.68990 0.43140 0.54790 0.05300
H 	H 	0.63900 0.23380 0.01180 0.06300
H 	H 	0.85790 0.29440 0.18350 0.06800
H 	H 	0.75850 0.18990 0.14200 0.05700
H 	H 	0.72200 0.62720 0.48820 0.09500
H 	H 	0.61090 0.67440 0.31650 0.05000
H 	H 	0.54790 0.61650 0.35800 0.05100
H 	H 	0.77800 0.26620 0.90520 0.10400
H 	H 	0.88910 0.20560 0.06350 0.06900
H 	H 	0.95210 0.31010 0.06860 0.10500
H 	H 	0.86100 0.87280 0.59480 0.11900
H 	H 	0.64210 0.82560 0.43650 0.05600
H 	H 	0.74150 0.88350 0.43140 0.06600
H 	H 	0.40520 0.77800 0.76620 0.09700
H 	H 	0.56350 0.88910 0.70560 0.06400
H 	H 	0.56860 0.95210 0.81010 0.09400
H 	H 	0.09480 0.86100 0.37280 0.09000
H 	H 	0.93650 0.64210 0.32560 0.04100
H 	H 	0.93140 0.74150 0.38350 0.04000
H 	H 	0.51180 0.63900 0.73380 0.08900
H 	H 	0.68350 0.85790 0.79440 0.08100
H 	H 	0.64200 0.75850 0.68990 0.05700
H 	H 	0.98820 0.72200 0.12720 0.11300
H 	H 	0.81650 0.61090 0.17440 0.04600
H 	H 	0.85800 0.54790 0.11650 0.05600
H 	H 	0.62720 0.98820 0.22200 0.11400
H 	H 	0.67440 0.81650 0.11090 0.04100
H 	H 	0.61650 0.85800 0.04790 0.04200
H 	H 	0.23380 0.51180 0.13900 0.06900
H 	H 	0.29440 0.68350 0.35790 0.05900
H 	H 	0.18990 0.64200 0.25850 0.05400
H 	H 	0.87280 0.09480 0.36100 0.08900
H 	H 	0.82560 0.93650 0.14210 0.03800
H 	H 	0.88350 0.93140 0.24150 0.04800
H 	H 	0.26620 0.40520 0.27800 0.07600
H 	H 	0.20560 0.56350 0.38910 0.04900
H 	H 	0.31010 0.56860 0.45210 0.05200
C 	C 	0.37333 0.86802 0.95669 0.35200
C 	C 	0.31038 0.79925 0.92865 -0.00600
C 	C 	0.12672 0.61121 0.85939 0.33200
C 	C 	0.19123 0.67449 0.88014 -0.11500
C 	C 	0.25617 0.69326 0.93165 0.15200
C 	C 	0.31607 0.75482 0.95459 -0.09000
C 	C 	0.18639 0.71839 0.85248 0.03200
C 	C 	0.24540 0.78022 0.87688 -0.05200
C 	C 	0.41133 0.41664 0.54331 0.39300
C 	C 	0.37060 0.38173 0.57135 -0.06300
C 	C 	0.25182 0.26733 0.64061 0.32300
C 	C 	0.29435 0.31109 0.61986 -0.09800
C 	C 	0.26161 0.32452 0.56835 0.11600
C 	C 	0.30023 0.36148 0.54541 -0.06900
C 	C 	0.36591 0.33391 0.64752 0.00300
C 	C 	0.40334 0.36852 0.62312 -0.02200
C 	C 	0.08867 0.63198 0.00531 0.28500
C 	C 	0.12940 0.70075 0.01113 -0.16100
C 	C 	0.24818 0.88879 0.01551 0.21500
C 	C 	0.20565 0.82551 0.01674 -0.16900
C 	C 	0.23839 0.80674 0.06291 0.10800
C 	C 	0.19977 0.74518 0.06125 -0.05900
C 	C 	0.13409 0.78161 0.96800 0.07400
C 	C 	0.09666 0.71978 0.96518 0.07900
C 	C 	0.12667 0.08336 0.49469 0.39400
C 	C 	0.18962 0.11827 0.48887 -0.08700
C 	C 	0.37328 0.23267 0.48449 0.31700
C 	C 	0.30877 0.18891 0.48326 -0.10100
C 	C 	0.24383 0.17548 0.43709 0.10200
C 	C 	0.18393 0.13852 0.43875 -0.06400
C 	C 	0.31361 0.16609 0.53200 -0.01000
C 	C 	0.25460 0.13148 0.53482 -0.02000
C 	C 	0.50531 0.08867 0.13198 0.37100
C 	C 	0.51113 0.12940 0.20075 -0.06100
C 	C 	0.51551 0.24818 0.38879 0.32300
C 	C 	0.51674 0.20565 0.32551 -0.10600
C 	C 	0.56291 0.23839 0.30674 0.12000
C 	C 	0.56125 0.19977 0.24518 -0.07500
C 	C 	0.46800 0.13409 0.28161 0.00200
C 	C 	0.46518 0.09666 0.21978 -0.03200
C 	C 	0.99469 0.12667 0.58336 0.49300
C 	C 	0.98887 0.18962 0.61827 0.02900
C 	C 	0.98449 0.37328 0.73267 0.41800
C 	C 	0.98326 0.30877 0.68891 -0.00900
C 	C 	0.93709 0.24383 0.67548 0.12100
C 	C 	0.93875 0.18393 0.63852 -0.07400
C 	C 	0.03200 0.31361 0.66609 -0.09400
C 	C 	0.03482 0.25460 0.63148 -0.12400
C 	C 	0.45669 0.37333 0.36802 0.39000
C 	C 	0.42865 0.31038 0.29925 -0.05900
C 	C 	0.35939 0.12672 0.11121 0.32500
C 	C 	0.38014 0.19123 0.17449 -0.12200
C 	C 	0.43165 0.25617 0.19326 0.11900
C 	C 	0.45459 0.31607 0.25482 -0.07800
C 	C 	0.35248 0.18639 0.21839 0.01000
C 	C 	0.37688 0.24540 0.28022 -0.03900
C 	C 	0.04331 0.41133 0.91664 0.37700
C 	C 	0.07135 0.37060 0.88173 -0.06000
C 	C 	0.14061 0.25182 0.76733 0.32200
C 	C 	0.11986 0.29435 0.81109 -0.10400
C 	C 	0.06835 0.26161 0.82452 0.10600
C 	C 	0.04541 0.30023 0.86148 -0.07700
C 	C 	0.14752 0.36591 0.83391 0.00600
C 	C 	0.12312 0.40334 0.86852 -0.03100
C 	C 	0.41664 0.04331 0.91133 0.35900
C 	C 	0.38173 0.07135 0.87060 -0.04200
C 	C 	0.26733 0.14061 0.75182 0.32200
C 	C 	0.31109 0.11986 0.79435 -0.10800
C 	C 	0.32452 0.06835 0.76161 0.11200
C 	C 	0.36148 0.04541 0.80023 -0.08600
C 	C 	0.33391 0.14752 0.86591 0.01700
C 	C 	0.36852 0.12312 0.90334 -0.04400
C 	C 	0.86802 0.45669 0.87333 0.35700
C 	C 	0.79925 0.42865 0.81038 -0.02800
C 	C 	0.61121 0.35939 0.62672 0.32500
C 	C 	0.67449 0.38014 0.69123 -0.11200
C 	C 	0.69326 0.43165 0.75617 0.13400
C 	C 	0.75482 0.45459 0.81607 -0.08900
C 	C 	0.71839 0.35248 0.68639 0.01900
C 	C 	0.78022 0.37688 0.74540 -0.04700
C 	C 	0.08336 0.99469 0.62667 0.47200
C 	C 	0.11827 0.98887 0.68962 0.00700
C 	C 	0.23267 0.98449 0.87328 0.38700
C 	C 	0.18891 0.98326 0.80877 -0.01700
C 	C 	0.17548 0.93709 0.74383 0.11600
C 	C 	0.13852 0.93875 0.68393 -0.07300
C 	C 	0.16609 0.03200 0.81361 -0.08700
C 	C 	0.13148 0.03482 0.75460 -0.10800
C 	C 	0.63198 0.50531 0.58867 0.39300
C 	C 	0.70075 0.51113 0.62940 -0.05900
C 	C 	0.88879 0.51551 0.74818 0.31100
C 	C 	0.82551 0.51674 0.70565 -0.08500
C 	C 	0.80674 0.56291 0.73839 0.12500
C 	C 	0.74518 0.56125 0.69977 -0.06600
C 	C 	0.78161 0.46800 0.63409 -0.00000
C 	C 	0.71978 0.46518 0.59666 -0.01900
C 	C 	0.62667 0.13198 0.04331 0.37300
C 	C 	0.68962 0.20075 0.07135 -0.07400
C 	C 	0.87328 0.38879 0.14061 0.30500
C 	C 	0.80877 0.32551 0.11986 -0.09400
C 	C 	0.74383 0.30674 0.06835 0.09700
C 	C 	0.68393 0.24518 0.04541 -0.07200
C 	C 	0.81361 0.28161 0.14752 -0.00700
C 	C 	0.75460 0.21978 0.12312 -0.02500
C 	C 	0.58867 0.58336 0.45669 0.39200
C 	C 	0.62940 0.61827 0.42865 -0.05900
C 	C 	0.74818 0.73267 0.35939 0.32000
C 	C 	0.70565 0.68891 0.38014 -0.10300
C 	C 	0.73839 0.67548 0.43165 0.12300
C 	C 	0.69977 0.63852 0.45459 -0.07300
C 	C 	0.63409 0.66609 0.35248 0.00300
C 	C 	0.59666 0.63148 0.37688 -0.02900
C 	C 	0.91133 0.36802 0.99469 0.45200
C 	C 	0.87060 0.29925 0.98887 0.06500
C 	C 	0.75182 0.11121 0.98449 0.41700
C 	C 	0.79435 0.17449 0.98326 -0.03200
C 	C 	0.76161 0.19326 0.93709 0.13600
C 	C 	0.80023 0.25482 0.93875 -0.09500
C 	C 	0.86591 0.21839 0.03200 -0.06000
C 	C 	0.90334 0.28022 0.03482 -0.14100
C 	C 	0.87333 0.91664 0.50531 0.37400
C 	C 	0.81038 0.88173 0.51113 -0.02800
C 	C 	0.62672 0.76733 0.51551 0.32700
C 	C 	0.69123 0.81109 0.51674 -0.10300
C 	C 	0.75617 0.82452 0.56291 0.13900
C 	C 	0.81607 0.86148 0.56125 -0.08100
C 	C 	0.68639 0.83391 0.46800 0.02000
C 	C 	0.74540 0.86852 0.46518 -0.03600
C 	C 	0.49469 0.91133 0.86802 0.35200
C 	C 	0.48887 0.87060 0.79925 -0.01700
C 	C 	0.48449 0.75182 0.61121 0.32500
C 	C 	0.48326 0.79435 0.67449 -0.10800
C 	C 	0.43709 0.76161 0.69326 0.13100
C 	C 	0.43875 0.80023 0.75482 -0.09000
C 	C 	0.53200 0.86591 0.71839 0.02600
C 	C 	0.53482 0.90334 0.78022 -0.04800
C 	C 	0.00531 0.87333 0.41664 0.27300
C 	C 	0.01113 0.81038 0.38173 -0.14700
C 	C 	0.01551 0.62672 0.26733 0.21200
C 	C 	0.01674 0.69123 0.31109 -0.19300
C 	C 	0.06291 0.75617 0.32452 0.11800
C 	C 	0.06125 0.81607 0.36148 -0.07000
C 	C 	0.96800 0.68639 0.33391 0.10400
C 	C 	0.96518 0.74540 0.36852 0.07400
C 	C 	0.54331 0.62667 0.63198 0.39600
C 	C 	0.57135 0.68962 0.70075 -0.06500
C 	C 	0.64061 0.87328 0.88879 0.30100
C 	C 	0.61986 0.80877 0.82551 -0.07300
C 	C 	0.56835 0.74383 0.80674 0.11600
C 	C 	0.54541 0.68393 0.74518 -0.06100
C 	C 	0.64752 0.81361 0.78161 -0.00800
C 	C 	0.62312 0.75460 0.71978 -0.00800
C 	C 	0.95669 0.58867 0.08336 0.36500
C 	C 	0.92865 0.62940 0.11827 -0.03100
C 	C 	0.85939 0.74818 0.23267 0.32400
C 	C 	0.88014 0.70565 0.18891 -0.10500
C 	C 	0.93165 0.73839 0.17548 0.14300
C 	C 	0.95459 0.69977 0.13852 -0.08000
C 	C 	0.85248 0.63409 0.16609 0.01500
C 	C 	0.87688 0.59666 0.13148 -0.03900
C 	C 	0.58336 0.95669 0.08867 0.36300
C 	C 	0.61827 0.92865 0.12940 -0.03200
C 	C 	0.73267 0.85939 0.24818 0.32600
C 	C 	0.68891 0.88014 0.20565 -0.10600
C 	C 	0.67548 0.93165 0.23839 0.14200
C 	C 	0.63852 0.95459 0.19977 -0.08000
C 	C 	0.66609 0.85248 0.13409 0.01300
C 	C 	0.63148 0.87688 0.09666 -0.03700
C 	C 	0.13198 0.54331 0.12667 0.38600
C 	C 	0.20075 0.57135 0.18962 -0.06700
C 	C 	0.38879 0.64061 0.37328 0.32100
C 	C 	0.32551 0.61986 0.30877 -0.09700
C 	C 	0.30674 0.56835 0.24383 0.11200
C 	C 	0.24518 0.54541 0.18393 -0.06700
C 	C 	0.28161 0.64752 0.31361 0.00000
C 	C 	0.21978 0.62312 0.25460 -0.02100
C 	C 	0.91664 0.00531 0.37333 0.29400
C 	C 	0.88173 0.01113 0.31038 -0.12900
C 	C 	0.76733 0.01551 0.12672 0.23000
C 	C 	0.81109 0.01674 0.19123 -0.18300
C 	C 	0.82452 0.06291 0.25617 0.12200
C 	C 	0.86148 0.06125 0.31607 -0.06900
C 	C 	0.83391 0.96800 0.18639 0.09900
C 	C 	0.86852 0.96518 0.24540 0.06200
C 	C 	0.36802 0.49469 0.41133 0.39200
C 	C 	0.29925 0.48887 0.37060 -0.06400
C 	C 	0.11121 0.48449 0.25182 0.32200
C 	C 	0.17449 0.48326 0.29435 -0.11300
C 	C 	0.19326 0.43709 0.26161 0.11200
C 	C 	0.25482 0.43875 0.30023 -0.07400
C 	C 	0.21839 0.53200 0.36591 0.00400
C 	C 	0.28022 0.53482 0.40334 -0.02900
N 	N 	0.27040 0.65050 0.96090 -0.06700
N 	N 	0.18960 0.30950 0.53910 -0.10100
N 	N 	0.31040 0.84950 0.11990 -0.08600
N 	N 	0.22960 0.19050 0.38010 -0.10800
N 	N 	0.61990 0.31040 0.34950 -0.08700
N 	N 	0.88010 0.22960 0.69050 -0.08300
N 	N 	0.46090 0.27040 0.15050 -0.10400
N 	N 	0.03910 0.18960 0.80950 -0.11300
N 	N 	0.30950 0.03910 0.68960 -0.11000
N 	N 	0.65050 0.46090 0.77040 -0.08000
N 	N 	0.19050 0.88010 0.72960 -0.08500
N 	N 	0.84950 0.61990 0.81040 -0.05800
N 	N 	0.72960 0.34950 0.03910 -0.11100
N 	N 	0.81040 0.69050 0.46090 -0.07500
N 	N 	0.68960 0.15050 0.88010 -0.09000
N 	N 	0.77040 0.80950 0.61990 -0.06900
N 	N 	0.38010 0.68960 0.65050 -0.09100
N 	N 	0.11990 0.77040 0.30950 -0.09300
N 	N 	0.53910 0.72960 0.84950 -0.07200
N 	N 	0.96090 0.81040 0.19050 -0.06100
N 	N 	0.69050 0.96090 0.31040 -0.06700
N 	N 	0.34950 0.53910 0.22960 -0.09800
N 	N 	0.80950 0.11990 0.27040 -0.09100
N 	N 	0.15050 0.38010 0.18960 -0.11800
O 	O 	0.43400 0.87913 0.99147 -0.28600
O 	O 	0.36440 0.91522 0.94568 -0.43400
O 	O 	0.13078 0.57514 0.88992 -0.38400
O 	O 	0.06627 0.59345 0.81176 -0.43200
O 	O 	0.38766 0.44253 0.50853 -0.40100
O 	O 	0.46954 0.41872 0.55432 -0.59900
O 	O 	0.18522 0.24086 0.61008 -0.42300
O 	O 	0.28169 0.25451 0.68824 -0.42100
O 	O 	0.11234 0.62087 0.05487 -0.36300
O 	O 	0.03046 0.58478 0.94918 -0.48800
O 	O 	0.31478 0.92486 0.05564 -0.33200
O 	O 	0.21831 0.90655 0.97282 -0.25800
O 	O 	0.06600 0.05747 0.44513 -0.42700
O 	O 	0.13560 0.08128 0.55082 -0.58700
O 	O 	0.36922 0.25914 0.44436 -0.42400
O 	O 	0.43373 0.24549 0.52718 -0.42900
O 	O 	0.55487 0.11234 0.12087 -0.37600
O 	O 	0.44918 0.03046 0.08478 -0.57500
O 	O 	0.55564 0.31478 0.42486 -0.41900
O 	O 	0.47282 0.21831 0.40655 -0.43400
O 	O 	0.94513 0.06600 0.55747 -0.39200
O 	O 	0.05082 0.13560 0.58128 -0.65600
O 	O 	0.94436 0.36922 0.75914 -0.38600
O 	O 	0.02718 0.43373 0.74549 -0.49600
O 	O 	0.49147 0.43400 0.37913 -0.39900
O 	O 	0.44568 0.36440 0.41522 -0.60100
O 	O 	0.38992 0.13078 0.07514 -0.41100
O 	O 	0.31176 0.06627 0.09345 -0.43500
O 	O 	0.00853 0.38766 0.94253 -0.36300
O 	O 	0.05432 0.46954 0.91872 -0.52900
O 	O 	0.11008 0.18522 0.74086 -0.43900
O 	O 	0.18824 0.28169 0.75451 -0.42200
O 	O 	0.44253 0.00853 0.88766 -0.36700
O 	O 	0.41872 0.05432 0.96954 -0.46700
O 	O 	0.24086 0.11008 0.68522 -0.43300
O 	O 	0.25451 0.18824 0.78169 -0.41900
O 	O 	0.87913 0.49147 0.93400 -0.29100
O 	O 	0.91522 0.44568 0.86440 -0.47900
O 	O 	0.57514 0.38992 0.63078 -0.41800
O 	O 	0.59345 0.31176 0.56627 -0.42900
O 	O 	0.05747 0.94513 0.56600 -0.38800
O 	O 	0.08128 0.05082 0.63560 -0.66000
O 	O 	0.25914 0.94436 0.86922 -0.34900
O 	O 	0.24549 0.02718 0.93373 -0.41900
O 	O 	0.62087 0.55487 0.61234 -0.39200
O 	O 	0.58478 0.44918 0.53046 -0.59900
O 	O 	0.92486 0.55564 0.81478 -0.34400
O 	O 	0.90655 0.47282 0.71831 -0.36500
O 	O 	0.56600 0.12087 0.00853 -0.40600
O 	O 	0.63560 0.08478 0.05432 -0.55700
O 	O 	0.86922 0.42486 0.11008 -0.39100
O 	O 	0.93373 0.40655 0.18824 -0.35400
O 	O 	0.61234 0.55747 0.49147 -0.39400
O 	O 	0.53046 0.58128 0.44568 -0.60100
O 	O 	0.81478 0.75914 0.38992 -0.41300
O 	O 	0.71831 0.74549 0.31176 -0.43000
O 	O 	0.88766 0.37913 0.94513 -0.32600
O 	O 	0.96954 0.41522 0.05082 -0.54400
O 	O 	0.68522 0.07514 0.94436 -0.39100
O 	O 	0.78169 0.09345 0.02718 -0.48100
O 	O 	0.93400 0.94253 0.55487 -0.27500
O 	O 	0.86440 0.91872 0.44918 -0.52500
O 	O 	0.63078 0.74086 0.55564 -0.41400
O 	O 	0.56627 0.75451 0.47282 -0.42100
O 	O 	0.44513 0.88766 0.87913 -0.31400
O 	O 	0.55082 0.96954 0.91522 -0.41600
O 	O 	0.44436 0.68522 0.57514 -0.42000
O 	O 	0.52718 0.78169 0.59345 -0.41700
O 	O 	0.05487 0.93400 0.44253 -0.31000
O 	O 	0.94918 0.86440 0.41872 -0.45500
O 	O 	0.05564 0.63078 0.24086 -0.38900
O 	O 	0.97282 0.56627 0.25451 -0.28700
O 	O 	0.50853 0.56600 0.62087 -0.39600
O 	O 	0.55432 0.63560 0.58478 -0.60000
O 	O 	0.61008 0.86922 0.92486 -0.31700
O 	O 	0.68824 0.93373 0.90655 -0.30400
O 	O 	0.99147 0.61234 0.05747 -0.32000
O 	O 	0.94568 0.53046 0.08128 -0.50600
O 	O 	0.88992 0.81478 0.25914 -0.39700
O 	O 	0.81176 0.71831 0.24549 -0.43000
O 	O 	0.55747 0.99147 0.11234 -0.31500
O 	O 	0.58128 0.94568 0.03046 -0.51500
O 	O 	0.75914 0.88992 0.31478 -0.40400
O 	O 	0.74549 0.81176 0.21831 -0.43200
O 	O 	0.12087 0.50853 0.06600 -0.40100
O 	O 	0.08478 0.55432 0.13560 -0.56200
O 	O 	0.42486 0.61008 0.36922 -0.42000
O 	O 	0.40655 0.68824 0.43373 -0.42100
O 	O 	0.94253 0.05487 0.43400 -0.31400
O 	O 	0.91872 0.94918 0.36440 -0.45000
O 	O 	0.74086 0.05564 0.13078 -0.37600
O 	O 	0.75451 0.97282 0.06627 -0.30500
O 	O 	0.37913 0.44513 0.38766 -0.40300
O 	O 	0.41522 0.55082 0.46954 -0.60100
O 	O 	0.07514 0.44436 0.18522 -0.43300
O 	O 	0.09345 0.52718 0.28169 -0.42200
