data_crystal

_cell_length_a 15.99190
_cell_length_b 16.36130
_cell_length_c 16.36130
_cell_angle_alpha 76.18190
_cell_angle_beta  60.74400
_cell_angle_gamma 60.74400

_symmetry_space_group_name_	'P 1'
_symmetry_space_group_name_H-M	'P 1'

loop_
_symmetry_equiv_pos_as_xyz
  x,y,z

loop_
_atom_site_label
_atom_site_type_symbol
_atom_site_fract_x
_atom_site_fract_y
_atom_site_fract_z
_atom_site_charge
Dy	Dy	0.58236 0.62015 0.03358 1.57300
Dy	Dy	0.12480 0.88703 0.02495 1.64400
Dy	Dy	0.73609 0.87985 0.46642 1.57900
Dy	Dy	0.53678 0.61297 0.47505 1.70000
Dy	Dy	0.61594 0.96642 0.12015 1.56500
Dy	Dy	0.14975 0.97505 0.38703 1.67200
Dy	Dy	0.20251 0.53358 0.37985 1.57600
Dy	Dy	0.01183 0.52495 0.11297 1.66800
Dy	Dy	0.41764 0.37985 0.96642 1.57400
Dy	Dy	0.87520 0.11297 0.97505 1.64500
Dy	Dy	0.26391 0.12015 0.53358 1.57900
Dy	Dy	0.46322 0.38703 0.52495 1.70000
Dy	Dy	0.38406 0.03358 0.87985 1.56500
Dy	Dy	0.85025 0.02495 0.61297 1.67200
Dy	Dy	0.79749 0.46642 0.62015 1.57600
Dy	Dy	0.98817 0.47505 0.88703 1.66800
H 	H 	0.05270 0.75260 0.25360 -0.04700
H 	H 	0.48060 0.59810 0.28350 -0.05200
H 	H 	0.55890 0.74740 0.24640 -0.04200
H 	H 	0.86220 0.90190 0.21650 -0.05100
H 	H 	0.30630 0.74640 0.25260 -0.04200
H 	H 	0.76410 0.71650 0.09810 -0.05100
H 	H 	0.80530 0.75360 0.24740 -0.04200
H 	H 	0.07870 0.78350 0.40190 -0.05500
H 	H 	0.94730 0.24740 0.74640 -0.04700
H 	H 	0.51940 0.40190 0.71650 -0.05200
H 	H 	0.44110 0.25260 0.75360 -0.04200
H 	H 	0.13780 0.09810 0.78350 -0.05100
H 	H 	0.69370 0.25360 0.74740 -0.04200
H 	H 	0.23590 0.28350 0.90190 -0.05100
H 	H 	0.19470 0.24640 0.75260 -0.04200
H 	H 	0.92130 0.21650 0.59810 -0.05500
C 	C 	0.12630 0.72580 0.21780 0.14300
C 	C 	0.29200 0.63250 0.17170 -0.08400
C 	C 	0.28080 0.70340 0.10640 -0.05500
C 	C 	0.35370 0.72450 0.01590 0.35900
C 	C 	0.38420 0.55260 0.18000 0.38300
C 	C 	0.55210 0.58430 0.25990 0.14800
C 	C 	0.71410 0.55660 0.16320 -0.04800
C 	C 	0.70200 0.54790 0.25410 -0.06800
C 	C 	0.77390 0.53170 0.29410 0.39200
C 	C 	0.80200 0.54570 0.06810 0.35200
C 	C 	0.56990 0.77420 0.28220 0.14300
C 	C 	0.59620 0.86750 0.32830 -0.08000
C 	C 	0.59060 0.79660 0.39360 -0.06300
C 	C 	0.59410 0.77550 0.48410 0.38300
C 	C 	0.61680 0.94740 0.32000 0.37800
C 	C 	0.89630 0.91570 0.24010 0.15100
C 	C 	0.93390 0.94340 0.33680 -0.02000
C 	C 	0.00400 0.95210 0.24590 -0.10800
C 	C 	0.09970 0.96830 0.20590 0.40300
C 	C 	0.91580 0.95430 0.43190 0.34400
C 	C 	0.34410 0.78220 0.22580 0.14300
C 	C 	0.46370 0.82830 0.13250 -0.08400
C 	C 	0.38720 0.89360 0.20340 -0.05600
C 	C 	0.36960 0.98410 0.22450 0.35600
C 	C 	0.56420 0.82000 0.05260 0.37800
C 	C 	0.81200 0.74010 0.08430 0.14800
C 	C 	0.87730 0.83680 0.05660 -0.05200
C 	C 	0.95610 0.74590 0.04790 -0.04800
C 	C 	0.06800 0.70590 0.03170 0.37000
C 	C 	0.87010 0.93190 0.04570 0.35500
C 	C 	0.85210 0.71780 0.27420 0.14400
C 	C 	0.92450 0.67170 0.36750 -0.08400
C 	C 	0.98420 0.60640 0.29660 -0.05200
C 	C 	0.07820 0.51590 0.27550 0.37300
C 	C 	0.93680 0.68000 0.44740 0.39100
C 	C 	0.13640 0.75990 0.41570 0.14800
C 	C 	0.27070 0.66320 0.44340 -0.04900
C 	C 	0.24990 0.75410 0.45210 -0.06900
C 	C 	0.30560 0.79410 0.46830 0.39400
C 	C 	0.34770 0.56810 0.45430 0.35300
C 	C 	0.87370 0.27420 0.78220 0.14300
C 	C 	0.70800 0.36750 0.82830 -0.08400
C 	C 	0.71920 0.29660 0.89360 -0.05500
C 	C 	0.64630 0.27550 0.98410 0.35900
C 	C 	0.61580 0.44740 0.82000 0.38300
C 	C 	0.44790 0.41570 0.74010 0.14800
C 	C 	0.28590 0.44340 0.83680 -0.04800
C 	C 	0.29800 0.45210 0.74590 -0.06800
C 	C 	0.22610 0.46830 0.70590 0.39200
C 	C 	0.19800 0.45430 0.93190 0.35200
C 	C 	0.43010 0.22580 0.71780 0.14300
C 	C 	0.40380 0.13250 0.67170 -0.08000
C 	C 	0.40940 0.20340 0.60640 -0.06300
C 	C 	0.40590 0.22450 0.51590 0.38300
C 	C 	0.38320 0.05260 0.68000 0.37800
C 	C 	0.10370 0.08430 0.75990 0.15100
C 	C 	0.06610 0.05660 0.66320 -0.02000
C 	C 	0.99600 0.04790 0.75410 -0.10800
C 	C 	0.90030 0.03170 0.79410 0.40300
C 	C 	0.08420 0.04570 0.56810 0.34400
C 	C 	0.65590 0.21780 0.77420 0.14300
C 	C 	0.53630 0.17170 0.86750 -0.08400
C 	C 	0.61280 0.10640 0.79660 -0.05600
C 	C 	0.63040 0.01590 0.77550 0.35600
C 	C 	0.43580 0.18000 0.94740 0.37800
C 	C 	0.18800 0.25990 0.91570 0.14800
C 	C 	0.12270 0.16320 0.94340 -0.05200
C 	C 	0.04390 0.25410 0.95210 -0.04800
C 	C 	0.93200 0.29410 0.96830 0.37000
C 	C 	0.12990 0.06810 0.95430 0.35500
C 	C 	0.14790 0.28220 0.72580 0.14400
C 	C 	0.07550 0.32830 0.63250 -0.08400
C 	C 	0.01580 0.39360 0.70340 -0.05200
C 	C 	0.92180 0.48410 0.72450 0.37300
C 	C 	0.06320 0.32000 0.55260 0.39100
C 	C 	0.86360 0.24010 0.58430 0.14800
C 	C 	0.72930 0.33680 0.55660 -0.04900
C 	C 	0.75010 0.24590 0.54790 -0.06900
C 	C 	0.69440 0.20590 0.53170 0.39400
C 	C 	0.65230 0.43190 0.54570 0.35300
N 	N 	0.17390 0.76290 0.13710 -0.21800
N 	N 	0.19260 0.64660 0.24340 -0.21200
N 	N 	0.61580 0.58090 0.16810 -0.24300
N 	N 	0.59850 0.56670 0.31510 -0.23700
N 	N 	0.57390 0.73710 0.36290 -0.21800
N 	N 	0.58260 0.85340 0.25660 -0.21200
N 	N 	0.86480 0.91910 0.33190 -0.24600
N 	N 	0.98030 0.93330 0.18490 -0.21600
N 	N 	0.31100 0.86290 0.26290 -0.21800
N 	N 	0.43600 0.75660 0.14660 -0.21200
N 	N 	0.78390 0.83190 0.08090 -0.24100
N 	N 	0.91360 0.68490 0.06670 -0.23400
N 	N 	0.93680 0.63710 0.23710 -0.21400
N 	N 	0.83920 0.74340 0.35340 -0.21100
N 	N 	0.19670 0.66810 0.41910 -0.24300
N 	N 	0.16520 0.81510 0.43330 -0.23700
N 	N 	0.82610 0.23710 0.86290 -0.21800
N 	N 	0.80740 0.35340 0.75660 -0.21200
N 	N 	0.38420 0.41910 0.83190 -0.24300
N 	N 	0.40150 0.43330 0.68490 -0.23700
N 	N 	0.42610 0.26290 0.63710 -0.21800
N 	N 	0.41740 0.14660 0.74340 -0.21200
N 	N 	0.13520 0.08090 0.66810 -0.24600
N 	N 	0.01970 0.06670 0.81510 -0.21600
N 	N 	0.68900 0.13710 0.73710 -0.21800
N 	N 	0.56400 0.24340 0.85340 -0.21200
N 	N 	0.21610 0.16810 0.91910 -0.24100
N 	N 	0.08640 0.31510 0.93330 -0.23400
N 	N 	0.06320 0.36290 0.76290 -0.21400
N 	N 	0.16080 0.25660 0.64660 -0.21100
N 	N 	0.80330 0.33190 0.58090 -0.24300
N 	N 	0.83480 0.18490 0.56670 -0.23700
O 	O 	0.30967 0.79396 0.97110 -0.43200
O 	O 	0.45336 0.67912 0.98276 -0.46600
O 	O 	0.47680 0.54460 0.12860 -0.47500
O 	O 	0.36520 0.49210 0.24250 -0.45100
O 	O 	0.72903 0.54340 0.38194 -0.43900
O 	O 	0.87172 0.50588 0.24348 -0.47500
O 	O 	0.89886 0.51329 0.05419 -0.53800
O 	O 	0.77851 0.56806 0.00052 -0.47200
O 	O 	0.57473 0.70604 0.52890 -0.45500
O 	O 	0.61524 0.82088 0.51724 -0.47900
O 	O 	0.65000 0.95540 0.37140 -0.47500
O 	O 	0.59980 0.00790 0.25750 -0.44700
O 	O 	0.15437 0.95660 0.11806 -0.44700
O 	O 	0.12108 0.99412 0.25652 -0.48900
O 	O 	0.96634 0.98671 0.44581 -0.53300
O 	O 	0.84709 0.93194 0.49948 -0.47200
O 	O 	0.28077 0.02890 0.29396 -0.43700
O 	O 	0.43612 0.01724 0.17912 -0.46200
O 	O 	0.60540 0.87140 0.04460 -0.47400
O 	O 	0.60770 0.75750 0.99210 -0.44600
O 	O 	0.11097 0.61806 0.04340 -0.43700
O 	O 	0.11520 0.75652 0.00588 -0.47900
O 	O 	0.95305 0.94581 0.01329 -0.53000
O 	O 	0.77903 0.99948 0.06806 -0.47300
O 	O 	0.10363 0.47110 0.20604 -0.45200
O 	O 	0.13248 0.48276 0.32088 -0.47700
O 	O 	0.02140 0.62860 0.45540 -0.48100
O 	O 	0.85730 0.74250 0.50790 -0.45200
O 	O 	0.27243 0.88194 0.45660 -0.44100
O 	O 	0.37760 0.74348 0.49412 -0.48200
O 	O 	0.41215 0.55419 0.48671 -0.54900
O 	O 	0.34657 0.50052 0.43194 -0.47900
O 	O 	0.69033 0.20604 0.02890 -0.43200
O 	O 	0.54664 0.32088 0.01724 -0.46600
O 	O 	0.52320 0.45540 0.87140 -0.47500
O 	O 	0.63480 0.50790 0.75750 -0.45100
O 	O 	0.27097 0.45660 0.61806 -0.43900
O 	O 	0.12828 0.49412 0.75652 -0.47500
O 	O 	0.10114 0.48671 0.94581 -0.53800
O 	O 	0.22149 0.43194 0.99948 -0.47200
O 	O 	0.42527 0.29396 0.47110 -0.45500
O 	O 	0.38476 0.17912 0.48276 -0.47900
O 	O 	0.35000 0.04460 0.62860 -0.47500
O 	O 	0.40020 0.99210 0.74250 -0.44700
O 	O 	0.84563 0.04340 0.88194 -0.44700
O 	O 	0.87892 0.00588 0.74348 -0.48900
O 	O 	0.03366 0.01329 0.55419 -0.53300
O 	O 	0.15291 0.06806 0.50052 -0.47200
O 	O 	0.71923 0.97110 0.70604 -0.43700
O 	O 	0.56388 0.98276 0.82088 -0.46200
O 	O 	0.39460 0.12860 0.95540 -0.47400
O 	O 	0.39230 0.24250 0.00790 -0.44600
O 	O 	0.88903 0.38194 0.95660 -0.43700
O 	O 	0.88480 0.24348 0.99412 -0.47900
O 	O 	0.04695 0.05419 0.98671 -0.53000
O 	O 	0.22097 0.00052 0.93194 -0.47300
O 	O 	0.89637 0.52890 0.79396 -0.45200
O 	O 	0.86752 0.51724 0.67912 -0.47700
O 	O 	0.97860 0.37140 0.54460 -0.48100
O 	O 	0.14270 0.25750 0.49210 -0.45200
O 	O 	0.72757 0.11806 0.54340 -0.44100
O 	O 	0.62240 0.25652 0.50588 -0.48200
O 	O 	0.58785 0.44581 0.51329 -0.54900
O 	O 	0.65343 0.49948 0.56806 -0.47900
