data_crystal

_cell_length_a 11.28450
_cell_length_b 11.28450
_cell_length_c 19.88500
_cell_angle_alpha 85.32660
_cell_angle_beta  85.32660
_cell_angle_gamma 66.15780

_symmetry_space_group_name_	'P 1'
_symmetry_space_group_name_H-M	'P 1'

loop_
_symmetry_equiv_pos_as_xyz
  x,y,z

loop_
_atom_site_label
_atom_site_type_symbol
_atom_site_fract_x
_atom_site_fract_y
_atom_site_fract_z
_atom_site_charge
Ni	Ni	0.02562 0.85974 0.92530 1.10900
Ni	Ni	0.14026 0.97438 0.57470 1.10900
Ni	Ni	0.97438 0.14026 0.07470 1.10900
Ni	Ni	0.85974 0.02562 0.42530 1.10900
H 	H 	0.19930 0.95970 0.83550 0.01500
H 	H 	0.40100 0.96920 0.83150 0.08400
H 	H 	0.46590 0.76270 0.01020 0.07300
H 	H 	0.26060 0.76380 0.01030 0.00300
H 	H 	0.62010 0.80810 0.01840 0.07600
H 	H 	0.82510 0.80730 0.01740 0.01000
H 	H 	0.81880 0.90740 0.82630 0.01100
H 	H 	0.61140 0.91660 0.82270 0.08700
H 	H 	0.62860 0.06020 0.55510 -0.00500
H 	H 	0.43390 0.11990 0.62040 0.14100
H 	H 	0.60850 0.17950 0.77540 0.13100
H 	H 	0.80210 0.12250 0.70960 -0.00800
H 	H 	0.27110 0.22150 0.85690 0.12900
H 	H 	0.16320 0.41760 0.90810 0.00100
H 	H 	0.25950 0.60550 0.74580 0.00400
H 	H 	0.37470 0.40710 0.69610 0.12800
H 	H 	0.04030 0.80070 0.66450 0.01500
H 	H 	0.03080 0.59900 0.66850 0.08500
H 	H 	0.23730 0.53410 0.48980 0.07200
H 	H 	0.23620 0.73940 0.48970 0.00200
H 	H 	0.19190 0.37990 0.48160 0.07500
H 	H 	0.19270 0.17490 0.48260 0.00900
H 	H 	0.09260 0.18120 0.67370 0.01100
H 	H 	0.08340 0.38860 0.67730 0.08700
H 	H 	0.93980 0.37140 0.94490 -0.00500
H 	H 	0.88010 0.56610 0.87960 0.14100
H 	H 	0.82050 0.39150 0.72460 0.13100
H 	H 	0.87750 0.19790 0.79040 -0.00800
H 	H 	0.77850 0.72890 0.64310 0.12900
H 	H 	0.58240 0.83680 0.59190 0.00100
H 	H 	0.39450 0.74050 0.75420 0.00400
H 	H 	0.59290 0.62530 0.80390 0.12800
H 	H 	0.80070 0.04030 0.16450 0.01500
H 	H 	0.59900 0.03080 0.16850 0.08400
H 	H 	0.53410 0.23730 0.98980 0.07300
H 	H 	0.73940 0.23620 0.98970 0.00300
H 	H 	0.37990 0.19190 0.98160 0.07600
H 	H 	0.17490 0.19270 0.98260 0.01000
H 	H 	0.18120 0.09260 0.17370 0.01100
H 	H 	0.38860 0.08340 0.17730 0.08700
H 	H 	0.37140 0.93980 0.44490 -0.00500
H 	H 	0.56610 0.88010 0.37960 0.14100
H 	H 	0.39150 0.82050 0.22460 0.13100
H 	H 	0.19790 0.87750 0.29040 -0.00800
H 	H 	0.72890 0.77850 0.14310 0.12900
H 	H 	0.83680 0.58240 0.09190 0.00100
H 	H 	0.74050 0.39450 0.25420 0.00400
H 	H 	0.62530 0.59290 0.30390 0.12800
H 	H 	0.95970 0.19930 0.33550 0.01500
H 	H 	0.96920 0.40100 0.33150 0.08500
H 	H 	0.76270 0.46590 0.51020 0.07200
H 	H 	0.76380 0.26060 0.51030 0.00200
H 	H 	0.80810 0.62010 0.51840 0.07500
H 	H 	0.80730 0.82510 0.51740 0.00900
H 	H 	0.90740 0.81880 0.32630 0.01100
H 	H 	0.91660 0.61140 0.32270 0.08700
H 	H 	0.06020 0.62860 0.05510 -0.00500
H 	H 	0.11990 0.43390 0.12040 0.14100
H 	H 	0.17950 0.60850 0.27540 0.13100
H 	H 	0.12250 0.80210 0.20960 -0.00800
H 	H 	0.22150 0.27110 0.35690 0.12900
H 	H 	0.41760 0.16320 0.40810 0.00100
H 	H 	0.60550 0.25950 0.24580 0.00400
H 	H 	0.40710 0.37470 0.19610 0.12800
C 	C 	0.25400 0.92040 0.87200 0.07600
C 	C 	0.37500 0.92540 0.86880 -0.12500
C 	C 	0.45810 0.86530 0.92100 0.04800
C 	C 	0.41260 0.80500 0.97360 -0.12200
C 	C 	0.28950 0.80590 0.97330 0.07400
C 	C 	0.59070 0.86490 0.92020 0.06600
C 	C 	0.65780 0.83100 0.97770 -0.13500
C 	C 	0.78100 0.83020 0.97660 0.08300
C 	C 	0.77750 0.88850 0.86680 0.09100
C 	C 	0.65320 0.89320 0.86420 -0.13700
C 	C 	0.73550 0.08270 0.62630 -0.21300
C 	C 	0.62510 0.08390 0.60020 0.15700
C 	C 	0.50930 0.11930 0.63880 -0.27400
C 	C 	0.50460 0.15340 0.70380 0.29800
C 	C 	0.61280 0.15480 0.73040 -0.28100
C 	C 	0.72790 0.12030 0.69140 0.16300
C 	C 	0.86160 0.04080 0.58460 0.41200
C 	C 	0.33230 0.29810 0.77180 0.28900
C 	C 	0.26960 0.29980 0.83460 -0.25500
C 	C 	0.20510 0.41610 0.86460 0.13100
C 	C 	0.20020 0.53180 0.83190 -0.16500
C 	C 	0.26270 0.52730 0.76890 0.13300
C 	C 	0.33030 0.40950 0.73900 -0.26700
C 	C 	0.12900 0.65700 0.86530 0.32100
C 	C 	0.07960 0.74600 0.62800 0.07600
C 	C 	0.07460 0.62500 0.63120 -0.12500
C 	C 	0.13470 0.54190 0.57900 0.04900
C 	C 	0.19500 0.58740 0.52640 -0.12100
C 	C 	0.19410 0.71050 0.52670 0.07600
C 	C 	0.13510 0.40930 0.57980 0.06600
C 	C 	0.16900 0.34220 0.52230 -0.13300
C 	C 	0.16980 0.21900 0.52340 0.08300
C 	C 	0.11150 0.22250 0.63320 0.09100
C 	C 	0.10680 0.34680 0.63580 -0.13700
C 	C 	0.91730 0.26450 0.87370 -0.21300
C 	C 	0.91610 0.37490 0.89980 0.15700
C 	C 	0.88070 0.49070 0.86120 -0.27300
C 	C 	0.84660 0.49540 0.79620 0.29800
C 	C 	0.84520 0.38720 0.76960 -0.28100
C 	C 	0.87970 0.27210 0.80860 0.16300
C 	C 	0.95920 0.13840 0.91540 0.41300
C 	C 	0.70190 0.66770 0.72820 0.28800
C 	C 	0.70020 0.73040 0.66540 -0.25500
C 	C 	0.58390 0.79490 0.63540 0.13100
C 	C 	0.46820 0.79980 0.66810 -0.16500
C 	C 	0.47270 0.73730 0.73110 0.13300
C 	C 	0.59050 0.66970 0.76100 -0.26700
C 	C 	0.34300 0.87100 0.63470 0.32100
C 	C 	0.74600 0.07960 0.12800 0.07600
C 	C 	0.62500 0.07460 0.13120 -0.12500
C 	C 	0.54190 0.13470 0.07900 0.04800
C 	C 	0.58740 0.19500 0.02640 -0.12200
C 	C 	0.71050 0.19410 0.02670 0.07400
C 	C 	0.40930 0.13510 0.07980 0.06600
C 	C 	0.34220 0.16900 0.02230 -0.13500
C 	C 	0.21900 0.16980 0.02340 0.08300
C 	C 	0.22250 0.11150 0.13320 0.09100
C 	C 	0.34680 0.10680 0.13580 -0.13700
C 	C 	0.26450 0.91730 0.37370 -0.21300
C 	C 	0.37490 0.91610 0.39980 0.15700
C 	C 	0.49070 0.88070 0.36120 -0.27400
C 	C 	0.49540 0.84660 0.29620 0.29800
C 	C 	0.38720 0.84520 0.26960 -0.28100
C 	C 	0.27210 0.87970 0.30860 0.16300
C 	C 	0.13840 0.95920 0.41540 0.41200
C 	C 	0.66770 0.70190 0.22820 0.28900
C 	C 	0.73040 0.70020 0.16540 -0.25500
C 	C 	0.79490 0.58390 0.13540 0.13100
C 	C 	0.79980 0.46820 0.16810 -0.16500
C 	C 	0.73730 0.47270 0.23110 0.13300
C 	C 	0.66970 0.59050 0.26100 -0.26700
C 	C 	0.87100 0.34300 0.13470 0.32100
C 	C 	0.92040 0.25400 0.37200 0.07600
C 	C 	0.92540 0.37500 0.36880 -0.12500
C 	C 	0.86530 0.45810 0.42100 0.04900
C 	C 	0.80500 0.41260 0.47360 -0.12100
C 	C 	0.80590 0.28950 0.47330 0.07600
C 	C 	0.86490 0.59070 0.42020 0.06600
C 	C 	0.83100 0.65780 0.47770 -0.13300
C 	C 	0.83020 0.78100 0.47660 0.08300
C 	C 	0.88850 0.77750 0.36680 0.09100
C 	C 	0.89320 0.65320 0.36420 -0.13700
C 	C 	0.08270 0.73550 0.12630 -0.21300
C 	C 	0.08390 0.62510 0.10020 0.15700
C 	C 	0.11930 0.50930 0.13880 -0.27300
C 	C 	0.15340 0.50460 0.20380 0.29800
C 	C 	0.15480 0.61280 0.23040 -0.28100
C 	C 	0.12030 0.72790 0.19140 0.16300
C 	C 	0.04080 0.86160 0.08460 0.41300
C 	C 	0.29810 0.33230 0.27180 0.28800
C 	C 	0.29980 0.26960 0.33460 -0.25500
C 	C 	0.41610 0.20510 0.36460 0.13100
C 	C 	0.53180 0.20020 0.33190 -0.16500
C 	C 	0.52730 0.26270 0.26890 0.13300
C 	C 	0.40950 0.33030 0.23900 -0.26700
C 	C 	0.65700 0.12900 0.36530 0.32100
N 	N 	0.21022 0.86302 0.92380 -0.22300
N 	N 	0.84056 0.85936 0.92230 -0.22200
N 	N 	0.13698 0.78978 0.57620 -0.22300
N 	N 	0.14064 0.15944 0.57770 -0.22200
N 	N 	0.78978 0.13698 0.07620 -0.22300
N 	N 	0.15944 0.14064 0.07770 -0.22200
N 	N 	0.86302 0.21022 0.42380 -0.22300
N 	N 	0.85936 0.84056 0.42230 -0.22200
O 	O 	0.11247 0.65327 0.92968 -0.37000
O 	O 	0.08856 0.76256 0.83151 -0.36300
O 	O 	0.39090 0.17810 0.74370 -0.30900
O 	O 	0.86507 0.99847 0.52775 -0.43800
O 	O 	0.95518 0.05018 0.61052 -0.43400
O 	O 	0.34673 0.88753 0.57032 -0.36900
O 	O 	0.23744 0.91144 0.66849 -0.36300
O 	O 	0.82190 0.60910 0.75630 -0.31000
O 	O 	0.00153 0.13493 0.97225 -0.43800
O 	O 	0.94982 0.04482 0.88948 -0.43400
O 	O 	0.88753 0.34673 0.07032 -0.37000
O 	O 	0.91144 0.23744 0.16849 -0.36300
O 	O 	0.60910 0.82190 0.25630 -0.30900
O 	O 	0.13493 0.00153 0.47225 -0.43800
O 	O 	0.04482 0.94982 0.38948 -0.43400
O 	O 	0.65327 0.11247 0.42968 -0.36900
O 	O 	0.76256 0.08856 0.33151 -0.36300
O 	O 	0.17810 0.39090 0.24370 -0.31000
O 	O 	0.99847 0.86507 0.02775 -0.43800
O 	O 	0.05018 0.95518 0.11052 -0.43400
