data_crystal

_cell_length_a 15.41680
_cell_length_b 15.41680
_cell_length_c 27.62300
_cell_angle_alpha 90.00000
_cell_angle_beta  90.00000
_cell_angle_gamma 90.00000

_symmetry_space_group_name_	'P 1'
_symmetry_space_group_name_H-M	'P 1'

loop_
_symmetry_equiv_pos_as_xyz
  x,y,z

loop_
_atom_site_label
_atom_site_type_symbol
_atom_site_fract_x
_atom_site_fract_y
_atom_site_fract_z
_atom_site_charge
O 	O 	0.10524 0.07781 0.21099 -0.47000
C 	C 	0.17159 0.26354 0.22430 0.10000
C 	C 	0.08825 0.27840 0.19742 -0.44400
H 	H 	0.08980 0.33540 0.18180 0.13100
H 	H 	0.03950 0.27610 0.22020 0.13700
H 	H 	0.08100 0.23330 0.17270 0.15800
C 	C 	0.93980 0.05720 0.05110 0.07000
C 	C 	0.98790 0.07940 0.10510 0.25600
C 	C 	0.04030 0.06250 0.10350 -0.45200
C 	C 	0.92220 0.00340 0.94720 -0.42600
O 	O 	0.60524 0.57781 0.71099 -0.45700
C 	C 	0.67159 0.76354 0.72430 0.11000
C 	C 	0.58825 0.77840 0.69742 -0.47100
H 	H 	0.58980 0.83540 0.68180 0.14800
H 	H 	0.53950 0.77610 0.72020 0.15900
H 	H 	0.58100 0.73330 0.67270 0.17200
C 	C 	0.43980 0.55720 0.55110 -0.00600
C 	C 	0.48790 0.57940 0.60510 0.03500
C 	C 	0.54030 0.56250 0.60350 -0.01700
C 	C 	0.42220 0.50340 0.44720 -0.01200
O 	O 	0.89476 0.92219 0.21099 -0.43300
C 	C 	0.82841 0.73646 0.22430 0.12200
C 	C 	0.91175 0.72160 0.19742 -0.49000
H 	H 	0.91020 0.66460 0.18180 0.15700
H 	H 	0.96050 0.72390 0.22020 0.17400
H 	H 	0.91900 0.76670 0.17270 0.18100
C 	C 	0.06020 0.94280 0.05110 -0.06400
C 	C 	0.01210 0.92060 0.10510 -0.15500
C 	C 	0.95970 0.93750 0.10350 0.41200
C 	C 	0.07780 0.99660 0.94720 0.43800
O 	O 	0.39476 0.42219 0.71099 -0.45700
C 	C 	0.32841 0.23646 0.72430 0.11600
C 	C 	0.41175 0.22160 0.69742 -0.46900
H 	H 	0.41020 0.16460 0.68180 0.14300
H 	H 	0.46050 0.22390 0.72020 0.15500
H 	H 	0.41900 0.26670 0.67270 0.17000
C 	C 	0.56020 0.44280 0.55110 -0.01100
C 	C 	0.51210 0.42060 0.60510 0.03500
C 	C 	0.45970 0.43750 0.60350 -0.01600
C 	C 	0.57780 0.49660 0.44720 -0.00500
O 	O 	0.92219 0.10524 0.21099 -0.44600
C 	C 	0.73646 0.17159 0.22430 0.10600
C 	C 	0.72160 0.08825 0.19742 -0.45100
H 	H 	0.66460 0.08980 0.18180 0.13600
H 	H 	0.72390 0.03950 0.22020 0.14300
H 	H 	0.76670 0.08100 0.17270 0.16300
C 	C 	0.94280 0.93980 0.05110 0.55700
C 	C 	0.92060 0.98790 0.10510 -0.30900
C 	C 	0.93750 0.04030 0.10350 0.15600
C 	C 	0.99660 0.92220 0.94720 -0.38400
O 	O 	0.42219 0.60524 0.71099 -0.45600
C 	C 	0.23646 0.67159 0.72430 0.11300
C 	C 	0.22160 0.58825 0.69742 -0.46600
H 	H 	0.16460 0.58980 0.68180 0.14200
H 	H 	0.22390 0.53950 0.72020 0.15500
H 	H 	0.26670 0.58100 0.67270 0.17000
C 	C 	0.44280 0.43980 0.55110 -0.00800
C 	C 	0.42060 0.48790 0.60510 0.03300
C 	C 	0.43750 0.54030 0.60350 -0.01500
C 	C 	0.49660 0.42220 0.44720 -0.00800
O 	O 	0.07781 0.89476 0.21099 -0.45000
C 	C 	0.26354 0.82841 0.22430 0.12000
C 	C 	0.27840 0.91175 0.19742 -0.48900
H 	H 	0.33540 0.91020 0.18180 0.15600
H 	H 	0.27610 0.96050 0.22020 0.17500
H 	H 	0.23330 0.91900 0.17270 0.18100
C 	C 	0.05720 0.06020 0.05110 -0.55000
C 	C 	0.07940 0.01210 0.10510 0.37300
C 	C 	0.06250 0.95970 0.10350 -0.17100
C 	C 	0.00340 0.07780 0.94720 0.36400
O 	O 	0.57781 0.39476 0.71099 -0.45700
C 	C 	0.76354 0.32841 0.72430 0.11200
C 	C 	0.77840 0.41175 0.69742 -0.47100
H 	H 	0.83540 0.41020 0.68180 0.14900
H 	H 	0.77610 0.46050 0.72020 0.16000
H 	H 	0.73330 0.41900 0.67270 0.17300
C 	C 	0.55720 0.56020 0.55110 -0.00900
C 	C 	0.57940 0.51210 0.60510 0.03700
C 	C 	0.56250 0.45970 0.60350 -0.01800
C 	C 	0.50340 0.57780 0.44720 -0.00900
O 	O 	0.89476 0.07781 0.28901 -0.45000
C 	C 	0.82841 0.26354 0.27570 0.12000
C 	C 	0.91175 0.27840 0.30258 -0.48900
H 	H 	0.91020 0.33540 0.31820 0.15600
H 	H 	0.96050 0.27610 0.27980 0.17500
H 	H 	0.91900 0.23330 0.32730 0.18100
C 	C 	0.06020 0.05720 0.44890 -0.55200
C 	C 	0.01210 0.07940 0.39490 0.37400
C 	C 	0.95970 0.06250 0.39650 -0.17200
C 	C 	0.07780 0.00340 0.55280 0.36500
O 	O 	0.39476 0.57781 0.78901 -0.45700
C 	C 	0.32841 0.76354 0.77570 0.11200
C 	C 	0.41175 0.77840 0.80258 -0.47100
H 	H 	0.41020 0.83540 0.81820 0.14900
H 	H 	0.46050 0.77610 0.77980 0.16000
H 	H 	0.41900 0.73330 0.82730 0.17300
C 	C 	0.56020 0.55720 0.94890 -0.00900
C 	C 	0.51210 0.57940 0.89490 0.03700
C 	C 	0.45970 0.56250 0.89650 -0.01800
C 	C 	0.57780 0.50340 0.05280 -0.00900
O 	O 	0.10524 0.92219 0.28901 -0.44600
C 	C 	0.17159 0.73646 0.27570 0.10600
C 	C 	0.08825 0.72160 0.30258 -0.45100
H 	H 	0.08980 0.66460 0.31820 0.13600
H 	H 	0.03950 0.72390 0.27980 0.14300
H 	H 	0.08100 0.76670 0.32730 0.16300
C 	C 	0.93980 0.94280 0.44890 0.55900
C 	C 	0.98790 0.92060 0.39490 -0.31100
C 	C 	0.04030 0.93750 0.39650 0.15700
C 	C 	0.92220 0.99660 0.55280 -0.38500
O 	O 	0.60524 0.42219 0.78901 -0.45600
C 	C 	0.67159 0.23646 0.77570 0.11300
C 	C 	0.58825 0.22160 0.80258 -0.46600
H 	H 	0.58980 0.16460 0.81820 0.14200
H 	H 	0.53950 0.22390 0.77980 0.15500
H 	H 	0.58100 0.26670 0.82730 0.17000
C 	C 	0.43980 0.44280 0.94890 -0.00800
C 	C 	0.48790 0.42060 0.89490 0.03300
C 	C 	0.54030 0.43750 0.89650 -0.01500
C 	C 	0.42220 0.49660 0.05280 -0.00800
O 	O 	0.07781 0.10524 0.28901 -0.46900
C 	C 	0.26354 0.17159 0.27570 0.10100
C 	C 	0.27840 0.08825 0.30258 -0.44400
H 	H 	0.33540 0.08980 0.31820 0.13200
H 	H 	0.27610 0.03950 0.27980 0.13800
H 	H 	0.23330 0.08100 0.32730 0.15900
C 	C 	0.05720 0.93980 0.44890 0.07200
C 	C 	0.07940 0.98790 0.39490 0.25700
C 	C 	0.06250 0.04030 0.39650 -0.45300
C 	C 	0.00340 0.92220 0.55280 -0.42700
O 	O 	0.57781 0.60524 0.78901 -0.45600
C 	C 	0.76354 0.67159 0.77570 0.11100
C 	C 	0.77840 0.58825 0.80258 -0.47000
H 	H 	0.83540 0.58980 0.81820 0.14800
H 	H 	0.77610 0.53950 0.77980 0.16000
H 	H 	0.73330 0.58100 0.82730 0.17300
C 	C 	0.55720 0.43980 0.94890 -0.00600
C 	C 	0.57940 0.48790 0.89490 0.03500
C 	C 	0.56250 0.54030 0.89650 -0.01700
C 	C 	0.50340 0.42220 0.05280 -0.01200
O 	O 	0.92219 0.89476 0.28901 -0.43300
C 	C 	0.73646 0.82841 0.27570 0.12200
C 	C 	0.72160 0.91175 0.30258 -0.49000
H 	H 	0.66460 0.91020 0.31820 0.15700
H 	H 	0.72390 0.96050 0.27980 0.17400
H 	H 	0.76670 0.91900 0.32730 0.18100
C 	C 	0.94280 0.06020 0.44890 -0.06500
C 	C 	0.92060 0.01210 0.39490 -0.15500
C 	C 	0.93750 0.95970 0.39650 0.41400
C 	C 	0.99660 0.07780 0.55280 0.44000
O 	O 	0.42219 0.39476 0.78901 -0.45700
C 	C 	0.23646 0.32841 0.77570 0.11600
C 	C 	0.22160 0.41175 0.80258 -0.46900
H 	H 	0.16460 0.41020 0.81820 0.14300
H 	H 	0.22390 0.46050 0.77980 0.15500
H 	H 	0.26670 0.41900 0.82730 0.17000
C 	C 	0.44280 0.56020 0.94890 -0.01100
C 	C 	0.42060 0.51210 0.89490 0.03500
C 	C 	0.43750 0.45970 0.89650 -0.01600
C 	C 	0.49660 0.57780 0.05280 -0.00500
O 	O 	0.89476 0.92219 0.78901 -0.43300
C 	C 	0.82841 0.73646 0.77570 0.12200
C 	C 	0.91175 0.72160 0.80258 -0.49000
H 	H 	0.91020 0.66460 0.81820 0.15700
H 	H 	0.96050 0.72390 0.77980 0.17400
H 	H 	0.91900 0.76670 0.82730 0.18100
C 	C 	0.06020 0.94280 0.94890 -0.06400
C 	C 	0.01210 0.92060 0.89490 -0.15500
C 	C 	0.95970 0.93750 0.89650 0.41200
C 	C 	0.07780 0.99660 0.05280 0.43800
O 	O 	0.39476 0.42219 0.28901 -0.45700
C 	C 	0.32841 0.23646 0.27570 0.11600
C 	C 	0.41175 0.22160 0.30258 -0.46900
H 	H 	0.41020 0.16460 0.31820 0.14300
H 	H 	0.46050 0.22390 0.27980 0.15500
H 	H 	0.41900 0.26670 0.32730 0.17000
C 	C 	0.56020 0.44280 0.44890 -0.01100
C 	C 	0.51210 0.42060 0.39490 0.03500
C 	C 	0.45970 0.43750 0.39650 -0.01600
C 	C 	0.57780 0.49660 0.55280 -0.00500
O 	O 	0.10524 0.07781 0.78901 -0.46900
C 	C 	0.17159 0.26354 0.77570 0.10100
C 	C 	0.08825 0.27840 0.80258 -0.44300
H 	H 	0.08980 0.33540 0.81820 0.13200
H 	H 	0.03950 0.27610 0.77980 0.13800
H 	H 	0.08100 0.23330 0.82730 0.15900
C 	C 	0.93980 0.05720 0.94890 0.07100
C 	C 	0.98790 0.07940 0.89490 0.25700
C 	C 	0.04030 0.06250 0.89650 -0.45100
C 	C 	0.92220 0.00340 0.05280 -0.42500
O 	O 	0.60524 0.57781 0.28901 -0.45600
C 	C 	0.67159 0.76354 0.27570 0.11100
C 	C 	0.58825 0.77840 0.30258 -0.47000
H 	H 	0.58980 0.83540 0.31820 0.14900
H 	H 	0.53950 0.77610 0.27980 0.16000
H 	H 	0.58100 0.73330 0.32730 0.17300
C 	C 	0.43980 0.55720 0.44890 -0.00600
C 	C 	0.48790 0.57940 0.39490 0.03500
C 	C 	0.54030 0.56250 0.39650 -0.01700
C 	C 	0.42220 0.50340 0.55280 -0.01200
O 	O 	0.07781 0.89476 0.78901 -0.45000
C 	C 	0.26354 0.82841 0.77570 0.12000
C 	C 	0.27840 0.91175 0.80258 -0.48900
H 	H 	0.33540 0.91020 0.81820 0.15600
H 	H 	0.27610 0.96050 0.77980 0.17500
H 	H 	0.23330 0.91900 0.82730 0.18100
C 	C 	0.05720 0.06020 0.94890 -0.55000
C 	C 	0.07940 0.01210 0.89490 0.37300
C 	C 	0.06250 0.95970 0.89650 -0.17100
C 	C 	0.00340 0.07780 0.05280 0.36400
O 	O 	0.57781 0.39476 0.28901 -0.45700
C 	C 	0.76354 0.32841 0.27570 0.11200
C 	C 	0.77840 0.41175 0.30258 -0.47100
H 	H 	0.83540 0.41020 0.31820 0.14900
H 	H 	0.77610 0.46050 0.27980 0.16000
H 	H 	0.73330 0.41900 0.32730 0.17300
C 	C 	0.55720 0.56020 0.44890 -0.00900
C 	C 	0.57940 0.51210 0.39490 0.03700
C 	C 	0.56250 0.45970 0.39650 -0.01800
C 	C 	0.50340 0.57780 0.55280 -0.00900
O 	O 	0.92219 0.10524 0.78901 -0.44600
C 	C 	0.73646 0.17159 0.77570 0.10600
C 	C 	0.72160 0.08825 0.80258 -0.45100
H 	H 	0.66460 0.08980 0.81820 0.13600
H 	H 	0.72390 0.03950 0.77980 0.14300
H 	H 	0.76670 0.08100 0.82730 0.16300
C 	C 	0.94280 0.93980 0.94890 0.55700
C 	C 	0.92060 0.98790 0.89490 -0.30900
C 	C 	0.93750 0.04030 0.89650 0.15600
C 	C 	0.99660 0.92220 0.05280 -0.38400
O 	O 	0.42219 0.60524 0.28901 -0.45600
C 	C 	0.23646 0.67159 0.27570 0.11300
C 	C 	0.22160 0.58825 0.30258 -0.46600
H 	H 	0.16460 0.58980 0.31820 0.14200
H 	H 	0.22390 0.53950 0.27980 0.15500
H 	H 	0.26670 0.58100 0.32730 0.17000
C 	C 	0.44280 0.43980 0.44890 -0.00800
C 	C 	0.42060 0.48790 0.39490 0.03300
C 	C 	0.43750 0.54030 0.39650 -0.01500
C 	C 	0.49660 0.42220 0.55280 -0.00800
O 	O 	0.10524 0.92219 0.71099 -0.44600
C 	C 	0.17159 0.73646 0.72430 0.10600
C 	C 	0.08825 0.72160 0.69742 -0.45100
H 	H 	0.08980 0.66460 0.68180 0.13600
H 	H 	0.03950 0.72390 0.72020 0.14300
H 	H 	0.08100 0.76670 0.67270 0.16300
C 	C 	0.93980 0.94280 0.55110 0.55900
C 	C 	0.98790 0.92060 0.60510 -0.31100
C 	C 	0.04030 0.93750 0.60350 0.15700
C 	C 	0.92220 0.99660 0.44720 -0.38500
O 	O 	0.60524 0.42219 0.21099 -0.45600
C 	C 	0.67159 0.23646 0.22430 0.11300
C 	C 	0.58825 0.22160 0.19742 -0.46600
H 	H 	0.58980 0.16460 0.18180 0.14200
H 	H 	0.53950 0.22390 0.22020 0.15500
H 	H 	0.58100 0.26670 0.17270 0.17000
C 	C 	0.43980 0.44280 0.05110 -0.00800
C 	C 	0.48790 0.42060 0.10510 0.03300
C 	C 	0.54030 0.43750 0.10350 -0.01500
C 	C 	0.42220 0.49660 0.94720 -0.00800
O 	O 	0.89476 0.07781 0.71099 -0.45000
C 	C 	0.82841 0.26354 0.72430 0.12000
C 	C 	0.91175 0.27840 0.69742 -0.48900
H 	H 	0.91020 0.33540 0.68180 0.15600
H 	H 	0.96050 0.27610 0.72020 0.17500
H 	H 	0.91900 0.23330 0.67270 0.18100
C 	C 	0.06020 0.05720 0.55110 -0.55200
C 	C 	0.01210 0.07940 0.60510 0.37400
C 	C 	0.95970 0.06250 0.60350 -0.17200
C 	C 	0.07780 0.00340 0.44720 0.36500
O 	O 	0.39476 0.57781 0.21099 -0.45700
C 	C 	0.32841 0.76354 0.22430 0.11200
C 	C 	0.41175 0.77840 0.19742 -0.47100
H 	H 	0.41020 0.83540 0.18180 0.14900
H 	H 	0.46050 0.77610 0.22020 0.16000
H 	H 	0.41900 0.73330 0.17270 0.17300
C 	C 	0.56020 0.55720 0.05110 -0.00900
C 	C 	0.51210 0.57940 0.10510 0.03700
C 	C 	0.45970 0.56250 0.10350 -0.01800
C 	C 	0.57780 0.50340 0.94720 -0.00900
O 	O 	0.92219 0.89476 0.71099 -0.43300
C 	C 	0.73646 0.82841 0.72430 0.12200
C 	C 	0.72160 0.91175 0.69742 -0.49000
H 	H 	0.66460 0.91020 0.68180 0.15700
H 	H 	0.72390 0.96050 0.72020 0.17400
H 	H 	0.76670 0.91900 0.67270 0.18100
C 	C 	0.94280 0.06020 0.55110 -0.06500
C 	C 	0.92060 0.01210 0.60510 -0.15500
C 	C 	0.93750 0.95970 0.60350 0.41400
C 	C 	0.99660 0.07780 0.44720 0.44000
O 	O 	0.42219 0.39476 0.21099 -0.45700
C 	C 	0.23646 0.32841 0.22430 0.11600
C 	C 	0.22160 0.41175 0.19742 -0.46900
H 	H 	0.16460 0.41020 0.18180 0.14300
H 	H 	0.22390 0.46050 0.22020 0.15500
H 	H 	0.26670 0.41900 0.17270 0.17000
C 	C 	0.44280 0.56020 0.05110 -0.01100
C 	C 	0.42060 0.51210 0.10510 0.03500
C 	C 	0.43750 0.45970 0.10350 -0.01600
C 	C 	0.49660 0.57780 0.94720 -0.00500
O 	O 	0.07781 0.10524 0.71099 -0.46900
C 	C 	0.26354 0.17159 0.72430 0.10100
C 	C 	0.27840 0.08825 0.69742 -0.44400
H 	H 	0.33540 0.08980 0.68180 0.13200
H 	H 	0.27610 0.03950 0.72020 0.13800
H 	H 	0.23330 0.08100 0.67270 0.15900
C 	C 	0.05720 0.93980 0.55110 0.07200
C 	C 	0.07940 0.98790 0.60510 0.25700
C 	C 	0.06250 0.04030 0.60350 -0.45300
C 	C 	0.00340 0.92220 0.44720 -0.42700
O 	O 	0.57781 0.60524 0.21099 -0.45600
C 	C 	0.76354 0.67159 0.22430 0.11100
C 	C 	0.77840 0.58825 0.19742 -0.47000
H 	H 	0.83540 0.58980 0.18180 0.14800
H 	H 	0.77610 0.53950 0.22020 0.16000
H 	H 	0.73330 0.58100 0.17270 0.17300
C 	C 	0.55720 0.43980 0.05110 -0.00600
C 	C 	0.57940 0.48790 0.10510 0.03500
C 	C 	0.56250 0.54030 0.10350 -0.01700
C 	C 	0.50340 0.42220 0.94720 -0.01200
Co	Co	0.00000 0.00000 0.20158 1.12000
N 	N 	0.00000 0.00000 0.12780 -0.26300
C 	C 	0.00000 0.00000 0.02610 -0.05300
Co	Co	0.50000 0.50000 0.70158 1.14500
N 	N 	0.50000 0.50000 0.62780 -0.22300
C 	C 	0.50000 0.50000 0.52610 0.01200
Co	Co	0.00000 0.00000 0.29842 1.12000
N 	N 	0.00000 -0.00000 0.37220 -0.26300
C 	C 	0.00000 0.00000 0.47390 -0.05300
Co	Co	0.50000 0.50000 0.79842 1.14500
N 	N 	0.50000 0.50000 0.87220 -0.22300
C 	C 	0.50000 0.50000 0.97390 0.01200
Co	Co	0.00000 0.00000 0.79842 1.12000
N 	N 	0.00000 0.00000 0.87220 -0.26300
C 	C 	0.00000 0.00000 0.97390 -0.05300
Co	Co	0.50000 0.50000 0.29842 1.14500
N 	N 	0.50000 0.50000 0.37220 -0.22300
C 	C 	0.50000 0.50000 0.47390 0.01200
Co	Co	0.00000 0.00000 0.70158 1.12000
N 	N 	-0.00000 0.00000 0.62780 -0.26300
C 	C 	0.00000 0.00000 0.52610 -0.05300
Co	Co	0.50000 0.50000 0.20158 1.14500
N 	N 	0.50000 0.50000 0.12780 -0.22300
C 	C 	0.50000 0.50000 0.02610 0.01200
C 	C 	0.11809 0.11809 0.25000 0.38300
C 	C 	0.18687 0.18687 0.25000 -0.17600
C 	C 	0.61809 0.61809 0.75000 0.38500
C 	C 	0.68687 0.68687 0.75000 -0.17700
C 	C 	0.88191 0.88191 0.25000 0.38400
C 	C 	0.81313 0.81313 0.25000 -0.18100
C 	C 	0.38191 0.38191 0.75000 0.38700
C 	C 	0.31313 0.31313 0.75000 -0.18400
C 	C 	0.88191 0.11809 0.25000 0.38300
C 	C 	0.81313 0.18687 0.25000 -0.17900
C 	C 	0.38191 0.61809 0.75000 0.38600
C 	C 	0.31313 0.68687 0.75000 -0.18000
C 	C 	0.11809 0.88191 0.25000 0.38300
C 	C 	0.18687 0.81313 0.25000 -0.17900
C 	C 	0.61809 0.38191 0.75000 0.38600
C 	C 	0.68687 0.31313 0.75000 -0.18000
C 	C 	0.88191 0.88191 0.75000 0.38400
C 	C 	0.81313 0.81313 0.75000 -0.18100
C 	C 	0.38191 0.38191 0.25000 0.38700
C 	C 	0.31313 0.31313 0.25000 -0.18400
C 	C 	0.11809 0.11809 0.75000 0.38300
C 	C 	0.18687 0.18687 0.75000 -0.17600
C 	C 	0.61809 0.61809 0.25000 0.38500
C 	C 	0.68687 0.68687 0.25000 -0.17700
C 	C 	0.11809 0.88191 0.75000 0.38300
C 	C 	0.18687 0.81313 0.75000 -0.17900
C 	C 	0.61809 0.38191 0.25000 0.38600
C 	C 	0.68687 0.31313 0.25000 -0.18000
C 	C 	0.88191 0.11809 0.75000 0.38300
C 	C 	0.81313 0.18687 0.75000 -0.17900
C 	C 	0.38191 0.61809 0.25000 0.38600
C 	C 	0.31313 0.68687 0.25000 -0.18000
