data_crystal

_cell_length_a 9.55650
_cell_length_b 12.47060
_cell_length_c 22.75710
_cell_angle_alpha 90.00000
_cell_angle_beta  101.59400
_cell_angle_gamma 90.00000

_symmetry_space_group_name_	'P 1'
_symmetry_space_group_name_H-M	'P 1'

loop_
_symmetry_equiv_pos_as_xyz
  x,y,z

loop_
_atom_site_label
_atom_site_type_symbol
_atom_site_fract_x
_atom_site_fract_y
_atom_site_fract_z
_atom_site_charge
Mn	Mn	0.94217 0.19349 0.30921 1.27900
Mn	Mn	0.61508 0.35649 0.28271 1.29800
Mn	Mn	0.21739 0.33013 0.27397 1.28900
Mn	Mn	0.44217 0.80651 0.80921 1.28100
Mn	Mn	0.11508 0.64351 0.78271 1.29900
Mn	Mn	0.71739 0.66987 0.77397 1.28700
H 	H 	0.41620 0.19420 0.25950 0.40100
H 	H 	0.44310 0.21900 0.31940 0.40100
H 	H 	0.14930 0.95320 0.13830 0.02200
H 	H 	0.20090 0.88130 0.19700 0.01500
H 	H 	0.97760 0.03820 0.18620 0.15300
H 	H 	0.03370 0.96830 0.24500 0.15200
H 	H 	0.74580 0.57080 0.18610 0.01400
H 	H 	0.82650 0.63760 0.24300 0.01900
H 	H 	0.04410 0.54980 0.23680 0.18300
H 	H 	0.96180 0.48190 0.18060 0.15600
H 	H 	0.72210 0.87000 0.00180 0.01300
H 	H 	0.63400 0.76420 0.01140 0.01000
H 	H 	0.89050 0.76980 0.96590 0.18200
H 	H 	0.82170 0.66030 0.98290 0.17700
H 	H 	0.64700 0.16010 0.49530 0.02500
H 	H 	0.72580 0.05090 0.48370 0.01900
H 	H 	0.83960 0.25520 0.45980 0.16400
H 	H 	0.88670 0.14150 0.43780 0.14900
H 	H 	0.03980 0.36230 0.68600 0.02900
H 	H 	0.91590 0.40580 0.63360 0.01700
H 	H 	0.86520 0.31000 0.73970 0.17000
H 	H 	0.74560 0.36230 0.68810 0.16700
H 	H 	0.19660 0.97910 0.60870 0.00300
H 	H 	0.22150 0.02630 0.67550 0.00900
H 	H 	0.03400 0.86150 0.62590 0.18800
H 	H 	0.00860 0.92400 0.68400 0.18100
H 	H 	0.91620 0.80580 0.75950 0.40100
H 	H 	0.94310 0.78100 0.81940 0.40000
H 	H 	0.64930 0.04680 0.63830 0.01500
H 	H 	0.70090 0.11870 0.69700 0.01000
H 	H 	0.47760 0.96180 0.68620 0.16900
H 	H 	0.53370 0.03170 0.74500 0.15800
H 	H 	0.24580 0.42920 0.68610 0.01600
H 	H 	0.32650 0.36240 0.74300 0.02100
H 	H 	0.54410 0.45020 0.73680 0.17200
H 	H 	0.46180 0.51810 0.68060 0.15200
H 	H 	0.22210 0.13000 0.50180 0.01500
H 	H 	0.13400 0.23580 0.51140 0.01300
H 	H 	0.39050 0.23020 0.46590 0.18100
H 	H 	0.32170 0.33970 0.48290 0.17800
H 	H 	0.14700 0.83990 0.99530 0.02500
H 	H 	0.22580 0.94910 0.98370 0.02000
H 	H 	0.33960 0.74480 0.95980 0.16100
H 	H 	0.38670 0.85850 0.93780 0.14800
H 	H 	0.53980 0.63770 0.18600 0.02100
H 	H 	0.41590 0.59420 0.13360 0.01500
H 	H 	0.36520 0.69000 0.23970 0.17400
H 	H 	0.24560 0.63770 0.18810 0.17100
H 	H 	0.69660 0.02090 0.10870 0.00300
H 	H 	0.72150 0.97370 0.17550 0.01000
H 	H 	0.53400 0.13850 0.12590 0.18800
H 	H 	0.50860 0.07600 0.18400 0.18000
C 	C 	0.97702 0.76230 0.18842 0.27800
C 	C 	0.79154 0.69490 0.10754 0.28900
C 	C 	0.92784 0.85520 0.09264 0.27700
C 	C 	0.11760 0.91850 0.17250 0.13000
C 	C 	0.06340 0.00410 0.21070 -0.40600
C 	C 	0.16820 0.08920 0.23410 0.44900
C 	C 	0.83830 0.60370 0.20500 0.15700
C 	C 	0.95120 0.51720 0.21840 -0.47400
C 	C 	0.90924 0.43400 0.26114 0.51500
C 	C 	0.73097 0.79300 0.01247 0.16600
C 	C 	0.79910 0.73400 0.96790 -0.45700
C 	C 	0.71071 0.72720 0.90531 0.48800
C 	C 	0.82670 0.22950 0.58600 0.29100
C 	C 	0.03791 0.17170 0.65761 0.31200
C 	C 	0.94567 0.06530 0.56777 0.27000
C 	C 	0.74077 0.12790 0.49357 0.13100
C 	C 	0.80390 0.18370 0.44490 -0.43200
C 	C 	0.70261 0.19690 0.38781 0.43700
C 	C 	0.93940 0.35060 0.66530 0.13900
C 	C 	0.84690 0.36720 0.70890 -0.42000
C 	C 	0.87360 0.47590 0.73940 0.44200
C 	C 	0.14830 0.99810 0.64190 0.17000
C 	C 	0.08280 0.90110 0.66190 -0.46400
C 	C 	0.18240 0.82450 0.70130 0.48800
C 	C 	0.47702 0.23770 0.68842 0.29000
C 	C 	0.29154 0.30510 0.60754 0.28900
C 	C 	0.42784 0.14480 0.59264 0.28100
C 	C 	0.61760 0.08150 0.67250 0.14500
C 	C 	0.56340 0.99590 0.71070 -0.43800
C 	C 	0.66820 0.91080 0.73410 0.45700
C 	C 	0.33830 0.39630 0.70500 0.15000
C 	C 	0.45120 0.48280 0.71840 -0.45600
C 	C 	0.40924 0.56600 0.76114 0.51000
C 	C 	0.23097 0.20700 0.51247 0.15000
C 	C 	0.29910 0.26600 0.46790 -0.44000
C 	C 	0.21071 0.27280 0.40531 0.48400
C 	C 	0.32670 0.77050 0.08600 0.29300
C 	C 	0.53791 0.82830 0.15761 0.30500
C 	C 	0.44567 0.93470 0.06777 0.28300
C 	C 	0.24077 0.87210 0.99357 0.11900
C 	C 	0.30390 0.81630 0.94490 -0.42700
C 	C 	0.20261 0.80310 0.88781 0.43500
C 	C 	0.43940 0.64940 0.16530 0.15400
C 	C 	0.34690 0.63280 0.20890 -0.42800
C 	C 	0.37360 0.52410 0.23940 0.44500
C 	C 	0.64830 0.00190 0.14190 0.16900
C 	C 	0.58280 0.09890 0.16190 -0.46400
C 	C 	0.68240 0.17550 0.20130 0.48800
N 	N 	0.00553 0.84030 0.15003 -0.20100
N 	N 	0.87659 0.68630 0.16469 -0.20600
N 	N 	0.81870 0.78070 0.07380 -0.20700
N 	N 	0.83895 0.13940 0.55295 -0.20700
N 	N 	0.92879 0.24420 0.63659 -0.21600
N 	N 	0.04043 0.08200 0.62143 -0.20800
N 	N 	0.50553 0.15970 0.65003 -0.21000
N 	N 	0.37659 0.31370 0.66469 -0.20600
N 	N 	0.31870 0.21930 0.57380 -0.20700
N 	N 	0.33895 0.86060 0.05295 -0.20200
N 	N 	0.42879 0.75580 0.13659 -0.21400
N 	N 	0.54043 0.91800 0.12143 -0.21200
O 	O 	0.03825 0.75760 0.24025 -0.25000
O 	O 	0.69770 0.63190 0.08860 -0.25000
O 	O 	0.95054 0.92860 0.06044 -0.24200
O 	O 	0.12837 0.16140 0.26737 -0.57300
O 	O 	0.28978 0.08640 0.22148 -0.36000
O 	O 	0.79958 0.44850 0.28098 -0.50000
O 	O 	0.99013 0.35220 0.27323 -0.61600
O 	O 	0.76118 0.67150 0.86888 -0.49100
O 	O 	0.59233 0.77740 0.89343 -0.48300
O 	O 	0.73152 0.29410 0.56972 -0.25600
O 	O 	0.12362 0.18640 0.70132 -0.26400
O 	O 	0.96068 0.98920 0.53558 -0.24500
O 	O 	0.74941 0.23610 0.34321 -0.58600
O 	O 	0.57408 0.17180 0.38538 -0.35400
O 	O 	0.98256 0.52690 0.73186 -0.47700
O 	O 	0.78452 0.50900 0.76992 -0.49000
O 	O 	0.29797 0.86280 0.73017 -0.48900
O 	O 	0.13974 0.73080 0.70544 -0.48200
O 	O 	0.42739 0.24580 0.28439 -1.01700
O 	O 	0.53825 0.24240 0.74025 -0.25900
O 	O 	0.19770 0.36810 0.58860 -0.25000
O 	O 	0.45054 0.07140 0.56044 -0.24500
O 	O 	0.62837 0.83860 0.76737 -0.58000
O 	O 	0.78978 0.91360 0.72148 -0.36400
O 	O 	0.29958 0.55150 0.78098 -0.49800
O 	O 	0.49013 0.64780 0.77323 -0.61100
O 	O 	0.26118 0.32850 0.36888 -0.48700
O 	O 	0.09233 0.22260 0.39343 -0.47500
O 	O 	0.23152 0.70590 0.06972 -0.25000
O 	O 	0.62362 0.81360 0.20132 -0.26300
O 	O 	0.46068 0.01080 0.03558 -0.24500
O 	O 	0.24941 0.76390 0.84321 -0.58400
O 	O 	0.07408 0.82820 0.88538 -0.35300
O 	O 	0.48256 0.47310 0.23186 -0.47400
O 	O 	0.28452 0.49100 0.26992 -0.48800
O 	O 	0.79797 0.13720 0.23017 -0.49000
O 	O 	0.63974 0.26920 0.20544 -0.48300
O 	O 	0.92739 0.75420 0.78439 -1.01900
