data_crystal

_cell_length_a 9.52610
_cell_length_b 15.77000
_cell_length_c 4.31280
_cell_angle_alpha 90.00000
_cell_angle_beta  97.76700
_cell_angle_gamma 90.00000

_symmetry_space_group_name_	'P 1'
_symmetry_space_group_name_H-M	'P 1'

loop_
_symmetry_equiv_pos_as_xyz
  x,y,z

loop_
_atom_site_label
_atom_site_type_symbol
_atom_site_fract_x
_atom_site_fract_y
_atom_site_fract_z
_atom_site_charge
O 	O 	0.40740 0.60000 0.96710 -0.58200
O 	O 	0.16050 0.84470 0.54850 -0.41600
H 	H 	0.74600 0.54400 0.06200 0.35000
N 	N 	0.47220 0.73370 0.11710 -0.33000
H 	H 	0.53600 0.71500 0.26100 0.15000
N 	N 	0.35580 0.85560 0.90860 -0.19500
C 	C 	0.38280 0.67880 0.93460 0.43400
C 	C 	0.27400 0.71730 0.73540 -0.45300
H 	H 	0.20990 0.68350 0.60890 0.14200
C 	C 	0.25850 0.80580 0.72070 0.36400
C 	C 	0.45470 0.81750 0.09450 0.10500
H 	H 	0.51830 0.85140 0.22210 -0.03400
O 	O 	0.90740 0.10000 0.96710 -0.45900
O 	O 	0.66050 0.34470 0.54850 -0.43700
H 	H 	0.24600 0.04400 0.06200 0.35200
N 	N 	0.97220 0.23370 0.11710 -0.26000
H 	H 	0.03600 0.21500 0.26100 0.05600
N 	N 	0.85580 0.35560 0.90860 -0.23000
C 	C 	0.88280 0.17880 0.93460 0.43200
C 	C 	0.77400 0.21730 0.73540 -0.44300
H 	H 	0.70990 0.18350 0.60890 0.16200
C 	C 	0.75850 0.30580 0.72070 0.38500
C 	C 	0.95470 0.31750 0.09450 0.32700
H 	H 	0.01830 0.35140 0.22210 -0.20600
O 	O 	0.40740 0.40000 0.96710 -0.58300
O 	O 	0.16050 0.15530 0.54850 -0.43100
H 	H 	0.74600 0.45600 0.06200 0.34900
N 	N 	0.47220 0.26630 0.11710 -0.33100
H 	H 	0.53600 0.28500 0.26100 0.15000
N 	N 	0.35580 0.14440 0.90860 -0.20700
C 	C 	0.38280 0.32120 0.93460 0.43300
C 	C 	0.27400 0.28270 0.73540 -0.45400
H 	H 	0.20990 0.31650 0.60890 0.14300
C 	C 	0.25850 0.19420 0.72070 0.36500
C 	C 	0.45470 0.18250 0.09450 0.10700
H 	H 	0.51830 0.14860 0.22210 -0.04600
O 	O 	0.90740 0.90000 0.96710 -0.42800
O 	O 	0.66050 0.65530 0.54850 -0.43600
H 	H 	0.24600 0.95600 0.06200 0.39600
N 	N 	0.97220 0.76630 0.11710 -0.26200
H 	H 	0.03600 0.78500 0.26100 0.06100
N 	N 	0.85580 0.64440 0.90860 -0.22900
C 	C 	0.88280 0.82120 0.93460 0.43000
C 	C 	0.77400 0.78270 0.73540 -0.43900
H 	H 	0.70990 0.81650 0.60890 0.16800
C 	C 	0.75850 0.69420 0.72070 0.38500
C 	C 	0.95470 0.68250 0.09450 0.32400
H 	H 	0.01830 0.64860 0.22210 -0.20300
Ba	Ba	0.50000 0.50000 0.50000 1.95500
O 	O 	0.69450 0.50000 0.07030 -0.96700
Ba	Ba	0.00000 0.00000 0.50000 1.54000
O 	O 	0.19450 0.00000 0.07030 -1.00400
