data_crystal

_cell_length_a 9.63980
_cell_length_b 13.06500
_cell_length_c 21.05400
_cell_angle_alpha 102.46000
_cell_angle_beta  102.39000
_cell_angle_gamma 99.52000

_symmetry_space_group_name_	'P 1'
_symmetry_space_group_name_H-M	'P 1'

loop_
_symmetry_equiv_pos_as_xyz
  x,y,z

loop_
_atom_site_label
_atom_site_type_symbol
_atom_site_fract_x
_atom_site_fract_y
_atom_site_fract_z
_atom_site_charge
Cd	Cd	0.08026 0.83052 0.10420 1.21600
Cd	Cd	0.83287 0.10745 0.54436 1.21800
Cd	Cd	0.91974 0.16948 0.89580 1.21500
Cd	Cd	0.16713 0.89255 0.45564 1.21700
H 	H 	0.54260 0.73480 0.17120 0.04300
H 	H 	0.75370 0.72590 0.24410 0.04400
H 	H 	0.46670 0.95200 0.31800 0.04300
H 	H 	0.76630 0.64690 0.10720 -0.00900
H 	H 	0.16120 0.61980 0.17200 0.00600
H 	H 	0.05910 0.40250 0.17860 0.02600
H 	H 	0.09230 0.48450 0.24910 0.02000
H 	H 	0.99830 0.56230 0.31020 0.29700
H 	H 	0.85340 0.56960 0.33160 0.28900
H 	H 	0.97220 0.52370 0.37310 0.29000
H 	H 	0.92900 0.20520 0.11500 0.30900
H 	H 	0.76810 0.20520 0.08030 0.31700
H 	H 	0.89010 0.31030 0.09910 0.31300
H 	H 	0.55310 0.20460 0.31860 0.30400
H 	H 	0.50750 0.12610 0.24620 0.30100
H 	H 	0.63890 0.11500 0.30090 0.30800
H 	H 	0.60640 0.35940 0.35960 0.00600
H 	H 	0.73260 0.46240 0.38050 0.01300
H 	H 	0.63730 0.24880 0.44720 -0.01100
H 	H 	0.05570 0.31910 0.51270 0.01000
H 	H 	0.64210 0.09630 0.10990 0.02100
H 	H 	0.58210 0.06340 0.16790 0.02500
H 	H 	0.80610 0.97150 0.07390 0.01600
H 	H 	0.97350 0.92240 0.24560 0.01000
H 	H 	0.91410 0.58220 0.98530 -0.00800
H 	H 	0.84500 0.85870 0.96710 0.02600
H 	H 	0.54780 0.69440 0.85530 0.01500
H 	H 	0.65020 0.80040 0.85450 0.02200
H 	H 	0.51120 0.43230 0.78100 0.31700
H 	H 	0.51070 0.53970 0.83140 0.32000
H 	H 	0.38750 0.49400 0.76400 0.30600
H 	H 	0.77690 0.88940 0.76430 0.30700
H 	H 	0.83380 0.85730 0.83110 0.30600
H 	H 	0.92400 0.85140 0.77720 0.30900
H 	H 	0.76460 0.49390 0.58210 0.27500
H 	H 	0.59390 0.46520 0.55950 0.27500
H 	H 	0.68010 0.57570 0.55590 0.28000
H 	H 	0.44530 0.40140 0.60420 0.00700
H 	H 	0.42990 0.38220 0.67370 0.01500
H 	H 	0.52330 0.22850 0.55180 -0.00600
H 	H 	0.84450 0.23580 0.69890 0.00800
H 	H 	0.88270 0.68170 0.62020 0.02400
H 	H 	0.95040 0.76970 0.68850 0.01900
H 	H 	0.98030 0.91900 0.62050 0.01400
H 	H 	0.56950 0.91170 0.55860 0.01000
H 	H 	0.45740 0.26520 0.82880 0.04300
H 	H 	0.24630 0.27410 0.75590 0.04400
H 	H 	0.53330 0.04800 0.68200 0.04300
H 	H 	0.23370 0.35310 0.89280 -0.00900
H 	H 	0.83880 0.38020 0.82800 0.00600
H 	H 	0.94090 0.59750 0.82140 0.02600
H 	H 	0.90770 0.51550 0.75090 0.02000
H 	H 	0.00170 0.43770 0.68980 0.29700
H 	H 	0.14660 0.43040 0.66840 0.28900
H 	H 	0.02780 0.47630 0.62690 0.29000
H 	H 	0.07100 0.79480 0.88500 0.30900
H 	H 	0.23190 0.79480 0.91970 0.31700
H 	H 	0.10990 0.68970 0.90090 0.31300
H 	H 	0.44690 0.79540 0.68140 0.30400
H 	H 	0.49250 0.87390 0.75380 0.30100
H 	H 	0.36110 0.88500 0.69910 0.30800
H 	H 	0.39360 0.64060 0.64040 0.00600
H 	H 	0.26740 0.53760 0.61950 0.01300
H 	H 	0.36270 0.75120 0.55280 -0.01100
H 	H 	0.94430 0.68090 0.48730 0.01000
H 	H 	0.35790 0.90370 0.89010 0.02100
H 	H 	0.41790 0.93660 0.83210 0.02500
H 	H 	0.19390 0.02850 0.92610 0.01600
H 	H 	0.02650 0.07760 0.75440 0.01000
H 	H 	0.08590 0.41780 0.01470 -0.00800
H 	H 	0.15500 0.14130 0.03290 0.02600
H 	H 	0.45220 0.30560 0.14470 0.01500
H 	H 	0.34980 0.19960 0.14550 0.02200
H 	H 	0.48880 0.56770 0.21900 0.31700
H 	H 	0.48930 0.46030 0.16860 0.32000
H 	H 	0.61250 0.50600 0.23600 0.30600
H 	H 	0.22310 0.11060 0.23570 0.30700
H 	H 	0.16620 0.14270 0.16890 0.30600
H 	H 	0.07600 0.14860 0.22280 0.30900
H 	H 	0.23540 0.50610 0.41790 0.27500
H 	H 	0.40610 0.53480 0.44050 0.27500
H 	H 	0.31990 0.42430 0.44410 0.28000
H 	H 	0.55470 0.59860 0.39580 0.00700
H 	H 	0.57010 0.61780 0.32630 0.01500
H 	H 	0.47670 0.77150 0.44820 -0.00600
H 	H 	0.15550 0.76420 0.30110 0.00800
H 	H 	0.11730 0.31830 0.37980 0.02400
H 	H 	0.04960 0.23030 0.31150 0.01900
H 	H 	0.01970 0.08100 0.37950 0.01400
H 	H 	0.43050 0.08830 0.44140 0.01000
C 	C 	0.33850 0.84040 0.19170 0.30000
C 	C 	0.48160 0.84240 0.23760 -0.06800
C 	C 	0.56920 0.77620 0.21560 -0.01500
C 	C 	0.69590 0.77120 0.25910 -0.04700
C 	C 	0.73740 0.83360 0.32536 -0.03000
C 	C 	0.65440 0.90580 0.34714 -0.06100
C 	C 	0.52520 0.90710 0.30325 0.00200
C 	C 	0.86770 0.81960 0.37340 0.30900
C 	C 	0.70780 0.98200 0.41615 0.31000
C 	C 	0.84590 0.62250 0.12700 0.08800
C 	C 	0.06030 0.60930 0.16210 0.08500
C 	C 	0.01710 0.44910 0.20780 0.03800
C 	C 	0.89440 0.38070 0.22440 -0.27100
C 	C 	0.85630 0.41650 0.28420 0.35000
C 	C 	0.75270 0.34680 0.30240 -0.26900
C 	C 	0.69130 0.24180 0.26140 0.36200
C 	C 	0.72810 0.20880 0.20060 -0.27400
C 	C 	0.82650 0.27960 0.18090 0.36600
C 	C 	0.92640 0.52820 0.32880 -0.87600
C 	C 	0.85610 0.24710 0.11260 -0.91900
C 	C 	0.58820 0.16480 0.28380 -0.89200
C 	C 	0.71050 0.38450 0.36710 0.05500
C 	C 	0.73570 0.27800 0.45390 0.08300
C 	C 	0.96200 0.31750 0.48870 0.07300
C 	C 	0.66910 0.09490 0.15680 0.05300
C 	C 	0.82960 0.97320 0.11930 0.07000
C 	C 	0.91900 0.94800 0.21290 0.07600
C 	C 	0.87700 0.63470 0.96800 0.08200
C 	C 	0.84160 0.78540 0.95940 0.06300
C 	C 	0.64300 0.72420 0.85060 0.04600
C 	C 	0.65600 0.67060 0.78186 -0.27700
C 	C 	0.57900 0.56450 0.75000 0.37600
C 	C 	0.58690 0.51670 0.68460 -0.27100
C 	C 	0.67420 0.57280 0.65230 0.34100
C 	C 	0.75580 0.67670 0.68630 -0.26500
C 	C 	0.74570 0.72640 0.75010 0.35900
C 	C 	0.48900 0.50200 0.78480 -0.92900
C 	C 	0.82760 0.84170 0.78380 -0.91200
C 	C 	0.67860 0.52230 0.58090 -0.83600
C 	C 	0.49940 0.40310 0.64910 0.05900
C 	C 	0.59090 0.24680 0.59350 0.10000
C 	C 	0.76330 0.25210 0.67380 0.06900
C 	C 	0.86030 0.73440 0.65440 0.04600
C 	C 	0.87930 0.89940 0.61060 0.09000
C 	C 	0.65560 0.89350 0.57710 0.08400
C 	C 	0.66150 0.15960 0.80830 0.30000
C 	C 	0.51840 0.15760 0.76240 -0.06800
C 	C 	0.43080 0.22380 0.78440 -0.01500
C 	C 	0.30410 0.22880 0.74090 -0.04700
C 	C 	0.26260 0.16640 0.67464 -0.03000
C 	C 	0.34560 0.09420 0.65286 -0.06100
C 	C 	0.47480 0.09290 0.69675 0.00200
C 	C 	0.13230 0.18040 0.62660 0.30900
C 	C 	0.29220 0.01800 0.58385 0.31000
C 	C 	0.15410 0.37750 0.87300 0.08800
C 	C 	0.93970 0.39070 0.83790 0.08500
C 	C 	0.98290 0.55090 0.79220 0.03800
C 	C 	0.10560 0.61930 0.77560 -0.27100
C 	C 	0.14370 0.58350 0.71580 0.35000
C 	C 	0.24730 0.65320 0.69760 -0.26900
C 	C 	0.30870 0.75820 0.73860 0.36200
C 	C 	0.27190 0.79120 0.79940 -0.27400
C 	C 	0.17350 0.72040 0.81910 0.36600
C 	C 	0.07360 0.47180 0.67120 -0.87600
C 	C 	0.14390 0.75290 0.88740 -0.91900
C 	C 	0.41180 0.83520 0.71620 -0.89200
C 	C 	0.28950 0.61550 0.63290 0.05500
C 	C 	0.26430 0.72200 0.54610 0.08300
C 	C 	0.03800 0.68250 0.51130 0.07300
C 	C 	0.33090 0.90510 0.84320 0.05300
C 	C 	0.17040 0.02680 0.88070 0.07000
C 	C 	0.08100 0.05200 0.78710 0.07600
C 	C 	0.12300 0.36530 0.03200 0.08200
C 	C 	0.15840 0.21460 0.04060 0.06300
C 	C 	0.35700 0.27580 0.14940 0.04600
C 	C 	0.34400 0.32940 0.21814 -0.27700
C 	C 	0.42100 0.43550 0.25000 0.37600
C 	C 	0.41310 0.48330 0.31540 -0.27100
C 	C 	0.32580 0.42720 0.34770 0.34100
C 	C 	0.24420 0.32330 0.31370 -0.26500
C 	C 	0.25430 0.27360 0.24990 0.35900
C 	C 	0.51100 0.49800 0.21520 -0.92900
C 	C 	0.17240 0.15830 0.21620 -0.91200
C 	C 	0.32140 0.47770 0.41910 -0.83600
C 	C 	0.50060 0.59690 0.35090 0.05900
C 	C 	0.40910 0.75320 0.40650 0.10000
C 	C 	0.23670 0.74790 0.32620 0.06900
C 	C 	0.13970 0.26560 0.34560 0.04600
C 	C 	0.12070 0.10060 0.38940 0.09000
C 	C 	0.34440 0.10650 0.42290 0.08400
N 	N 	0.98400 0.67020 0.13335 -0.22800
N 	N 	0.97280 0.53180 0.17457 -0.10600
N 	N 	0.83360 0.53710 0.15140 -0.10300
N 	N 	0.78760 0.34500 0.42144 -0.10900
N 	N 	0.93570 0.37290 0.44400 -0.10200
N 	N 	0.84190 0.25820 0.49701 -0.22900
N 	N 	0.77570 0.02830 0.16566 -0.10200
N 	N 	0.83250 0.01390 0.22680 -0.09600
N 	N 	0.92210 0.92100 0.14791 -0.23900
N 	N 	0.92110 0.74080 0.99997 -0.23800
N 	N 	0.75590 0.71060 0.90590 -0.10300
N 	N 	0.77760 0.61200 0.91040 -0.10200
N 	N 	0.59370 0.32650 0.64421 -0.10900
N 	N 	0.70510 0.33070 0.69796 -0.09600
N 	N 	0.69530 0.19600 0.60874 -0.22800
N 	N 	0.80340 0.81450 0.62358 -0.10400
N 	N 	0.65850 0.80840 0.60130 -0.10300
N 	N 	0.78780 0.95140 0.58135 -0.22100
N 	N 	0.01600 0.32980 0.86665 -0.22800
N 	N 	0.02720 0.46820 0.82543 -0.10600
N 	N 	0.16640 0.46290 0.84860 -0.10300
N 	N 	0.21240 0.65500 0.57856 -0.10900
N 	N 	0.06430 0.62710 0.55600 -0.10200
N 	N 	0.15810 0.74180 0.50299 -0.22900
N 	N 	0.22430 0.97170 0.83434 -0.10200
N 	N 	0.16750 0.98610 0.77320 -0.09600
N 	N 	0.07790 0.07900 0.85209 -0.23900
N 	N 	0.07890 0.25920 0.00003 -0.23800
N 	N 	0.24410 0.28940 0.09410 -0.10300
N 	N 	0.22240 0.38800 0.08960 -0.10200
N 	N 	0.40630 0.67350 0.35579 -0.10900
N 	N 	0.29490 0.66930 0.30204 -0.09600
N 	N 	0.30470 0.80400 0.39126 -0.22800
N 	N 	0.19660 0.18550 0.37642 -0.10400
N 	N 	0.34150 0.19160 0.39870 -0.10300
N 	N 	0.21220 0.04860 0.41865 -0.22100
Cl	Cl	0.20325 0.96675 0.05210 -0.52600
Cl	Cl	0.79675 0.03325 0.94790 -0.52600
O 	O 	0.30130 0.77730 0.13250 -0.37200
O 	O 	0.25670 0.89720 0.21214 -0.38100
O 	O 	0.61960 0.01140 0.44739 -0.36800
O 	O 	0.84400 0.01500 0.44016 -0.40400
O 	O 	0.84510 0.78050 0.41990 -0.31100
O 	O 	0.98770 0.84280 0.36080 -0.40800
O 	O 	0.69870 0.22270 0.86750 -0.37200
O 	O 	0.74330 0.10280 0.78786 -0.38100
O 	O 	0.38040 0.98860 0.55261 -0.36800
O 	O 	0.15600 0.98500 0.55984 -0.40400
O 	O 	0.15490 0.21950 0.58010 -0.31100
O 	O 	0.01230 0.15720 0.63920 -0.40800
