data_crystal

_cell_length_a 8.54800
_cell_length_b 21.09200
_cell_length_c 8.69500
_cell_angle_alpha 90.00000
_cell_angle_beta  90.00000
_cell_angle_gamma 90.00000

_symmetry_space_group_name_	'P 1'
_symmetry_space_group_name_H-M	'P 1'

loop_
_symmetry_equiv_pos_as_xyz
  x,y,z

loop_
_atom_site_label
_atom_site_type_symbol
_atom_site_fract_x
_atom_site_fract_y
_atom_site_fract_z
_atom_site_charge
Cd	Cd	-0.00000 0.00000 -0.00000 1.16000
Cd	Cd	0.50000 0.50000 -0.00000 1.18500
Cd	Cd	-0.00000 0.83397 0.50000 1.14500
Cd	Cd	0.50000 0.33397 0.50000 1.16500
Cd	Cd	-0.00000 0.16603 0.50000 1.14300
Cd	Cd	0.50000 0.66603 0.50000 1.16600
N 	N 	-0.00000 0.92390 0.18760 -0.18800
C 	C 	-0.00000 0.89160 0.28950 -0.28900
N 	N 	0.50000 0.42390 0.18760 -0.18500
C 	C 	0.50000 0.39160 0.28950 -0.25600
N 	N 	0.00000 0.07610 0.18760 -0.20100
C 	C 	0.00000 0.10840 0.28950 -0.30500
N 	N 	0.50000 0.57610 0.18760 -0.18500
C 	C 	0.50000 0.60840 0.28950 -0.25500
N 	N 	-0.00000 0.92390 0.81240 -0.18600
C 	C 	0.00000 0.89160 0.71050 -0.28400
N 	N 	0.50000 0.42390 0.81240 -0.18400
C 	C 	0.50000 0.39160 0.71050 -0.25200
N 	N 	-0.00000 0.07610 0.81240 -0.19900
C 	C 	-0.00000 0.10840 0.71050 -0.29900
N 	N 	0.50000 0.57610 0.81240 -0.18400
C 	C 	0.50000 0.60840 0.71050 -0.25100
N 	N 	0.78500 0.77250 0.50000 0.08800
C 	C 	0.82200 0.75980 0.50000 -0.31200
N 	N 	0.28500 0.27250 0.50000 0.00600
C 	C 	0.32200 0.25980 0.50000 -0.28400
N 	N 	0.21500 0.22750 0.50000 -0.08900
C 	C 	0.17800 0.24020 0.50000 -0.16300
N 	N 	0.71500 0.72750 0.50000 -0.02500
C 	C 	0.67800 0.74020 0.50000 -0.20200
N 	N 	0.21500 0.77250 0.50000 -0.08900
C 	C 	0.17800 0.75980 0.50000 -0.15700
N 	N 	0.71500 0.27250 0.50000 -0.03400
C 	C 	0.67800 0.25980 0.50000 -0.19200
N 	N 	0.78500 0.22750 0.50000 0.09000
C 	C 	0.82200 0.24020 0.50000 -0.31900
N 	N 	0.28500 0.72750 0.50000 0.01500
C 	C 	0.32200 0.74020 0.50000 -0.29300
O 	O 	0.27230 0.00000 0.96380 0.09600
O 	O 	0.77230 0.50000 0.96380 0.09800
O 	O 	0.72770 0.00000 0.96380 0.10900
O 	O 	0.22770 0.50000 0.96380 0.08300
O 	O 	0.72770 0.00000 0.03620 -0.38700
O 	O 	0.22770 0.50000 0.03620 -0.46200
O 	O 	0.27230 0.00000 0.03620 -0.44300
O 	O 	0.77230 0.50000 0.03620 -0.39500
