data_crystal

_cell_length_a 8.69400
_cell_length_b 16.90800
_cell_length_c 21.15700
_cell_angle_alpha 90.00000
_cell_angle_beta  90.00000
_cell_angle_gamma 90.00000

_symmetry_space_group_name_	'P 1'
_symmetry_space_group_name_H-M	'P 1'

loop_
_symmetry_equiv_pos_as_xyz
  x,y,z

loop_
_atom_site_label
_atom_site_type_symbol
_atom_site_fract_x
_atom_site_fract_y
_atom_site_fract_z
_atom_site_charge
Cd	Cd	0.51049 0.12496 0.41498 1.14700
C 	C 	0.72020 0.11800 0.35750 -0.32500
N 	N 	0.82420 0.11280 0.32640 -0.23900
C 	C 	0.30050 0.13220 0.35760 -0.32500
N 	N 	0.19660 0.13440 0.32570 -0.24200
C 	C 	0.52170 0.22480 0.48160 -0.29000
C 	C 	0.50140 0.02480 0.48170 -0.31100
N 	N 	0.49860 0.97520 0.51830 -0.24900
Cd	Cd	0.48951 0.87504 0.91498 1.14800
C 	C 	0.27980 0.88200 0.85750 -0.32500
N 	N 	0.17580 0.88720 0.82640 -0.23900
C 	C 	0.69950 0.86780 0.85760 -0.32500
N 	N 	0.80340 0.86560 0.82570 -0.24200
C 	C 	0.47830 0.77520 0.98160 -0.29100
C 	C 	0.49860 0.97520 0.98170 -0.31100
N 	N 	0.50140 0.02480 0.01830 -0.24900
Cd	Cd	0.48951 0.62496 0.08502 1.14800
C 	C 	0.27980 0.61800 0.14250 -0.32500
N 	N 	0.17580 0.61280 0.17360 -0.24000
C 	C 	0.69950 0.63220 0.14240 -0.32500
N 	N 	0.80340 0.63440 0.17430 -0.24200
C 	C 	0.47830 0.72480 0.01840 -0.29100
C 	C 	0.49860 0.52480 0.01830 -0.31100
N 	N 	0.50140 0.47520 0.98170 -0.24900
Cd	Cd	0.51049 0.37504 0.58502 1.14800
C 	C 	0.72020 0.38200 0.64250 -0.32500
N 	N 	0.82420 0.38720 0.67360 -0.24000
C 	C 	0.30050 0.36780 0.64240 -0.32500
N 	N 	0.19660 0.36560 0.67430 -0.24200
C 	C 	0.52170 0.27520 0.51840 -0.29000
C 	C 	0.50140 0.47520 0.51830 -0.31000
N 	N 	0.49860 0.52480 0.48170 -0.24900
Cd	Cd	0.48951 0.87504 0.58502 1.14500
C 	C 	0.27980 0.88200 0.64250 -0.32700
N 	N 	0.17580 0.88720 0.67360 -0.23900
C 	C 	0.69950 0.86780 0.64240 -0.32700
N 	N 	0.80340 0.86560 0.67430 -0.24200
C 	C 	0.47830 0.77520 0.51840 -0.29200
Cd	Cd	0.51049 0.12496 0.08502 1.14500
C 	C 	0.72020 0.11800 0.14250 -0.32700
N 	N 	0.82420 0.11280 0.17360 -0.23900
C 	C 	0.30050 0.13220 0.14240 -0.32700
N 	N 	0.19660 0.13440 0.17430 -0.24200
C 	C 	0.52170 0.22480 0.01840 -0.29300
Cd	Cd	0.51049 0.37504 0.91498 1.14500
C 	C 	0.72020 0.38200 0.85750 -0.32700
N 	N 	0.82420 0.38720 0.82640 -0.23900
C 	C 	0.30050 0.36780 0.85760 -0.32700
N 	N 	0.19660 0.36560 0.82570 -0.24200
C 	C 	0.52170 0.27520 0.98160 -0.29300
Cd	Cd	0.48951 0.62496 0.41498 1.14500
C 	C 	0.27980 0.61800 0.35750 -0.32700
N 	N 	0.17580 0.61280 0.32640 -0.23900
C 	C 	0.69950 0.63220 0.35760 -0.32700
N 	N 	0.80340 0.63440 0.32570 -0.24200
C 	C 	0.47830 0.72480 0.48160 -0.29200
Cd	Cd	0.01046 0.12374 0.25000 1.11600
Cd	Cd	0.98954 0.87626 0.75000 1.11600
Cd	Cd	0.98954 0.62374 0.25000 1.11700
Cd	Cd	0.01046 0.37626 0.75000 1.11700
