data_crystal

_cell_length_a 8.69500
_cell_length_b 8.54800
_cell_length_c 21.09200
_cell_angle_alpha 90.00000
_cell_angle_beta  90.00000
_cell_angle_gamma 90.00000

_symmetry_space_group_name_	'P 1'
_symmetry_space_group_name_H-M	'P 1'

loop_
_symmetry_equiv_pos_as_xyz
  x,y,z

loop_
_atom_site_label
_atom_site_type_symbol
_atom_site_fract_x
_atom_site_fract_y
_atom_site_fract_z
_atom_site_charge
Cd	Cd	-0.00000 0.00000 -0.00000 1.06200
Cd	Cd	0.00000 0.50000 0.50000 1.08300
Cd	Cd	0.50000 -0.00000 0.83520 1.14400
Cd	Cd	0.50000 -0.00000 0.16750 1.10600
Cd	Cd	0.50000 0.50000 0.33520 1.15700
Cd	Cd	0.50000 0.50000 0.66750 1.12700
C 	C 	0.29420 -0.00000 0.89260 -0.35800
N 	N 	0.18950 -0.00000 0.92520 -0.25100
C 	C 	0.17290 0.00000 0.07420 -0.42900
N 	N 	0.27450 -0.00000 0.10820 -0.25500
C 	C 	0.29420 0.50000 0.39260 -0.34800
N 	N 	0.18950 0.50000 0.42520 -0.26400
C 	C 	0.17290 0.50000 0.57420 -0.38900
N 	N 	0.27450 0.50000 0.60820 -0.24000
C 	C 	0.70580 -0.00000 0.89260 -0.30800
N 	N 	0.81050 -0.00000 0.92520 -0.18500
C 	C 	0.82710 0.00000 0.07420 -0.26200
N 	N 	0.72550 -0.00000 0.10820 -0.25700
C 	C 	0.70580 0.50000 0.39260 -0.29700
N 	N 	0.81050 0.50000 0.42520 -0.19600
C 	C 	0.82710 0.50000 0.57420 -0.22300
N 	N 	0.72550 0.50000 0.60820 -0.24300
C 	C 	0.50000 0.79400 0.77510 -0.25000
N 	N 	0.50000 0.69620 0.73820 -0.24700
C 	C 	0.50000 0.29400 0.27510 -0.32800
N 	N 	0.50000 0.19620 0.23820 -0.25700
C 	C 	0.50000 0.20600 0.77510 -0.32600
N 	N 	0.50000 0.30380 0.73820 -0.24600
C 	C 	0.50000 0.70600 0.27510 -0.29900
N 	N 	0.50000 0.80380 0.23820 -0.22100
