data_crystal

_cell_length_a 8.68170
_cell_length_b 34.18020
_cell_length_c 8.58220
_cell_angle_alpha 90.00000
_cell_angle_beta  107.60000
_cell_angle_gamma 90.00000

_symmetry_space_group_name_	'P 1'
_symmetry_space_group_name_H-M	'P 1'

loop_
_symmetry_equiv_pos_as_xyz
  x,y,z

loop_
_atom_site_label
_atom_site_type_symbol
_atom_site_fract_x
_atom_site_fract_y
_atom_site_fract_z
_atom_site_charge
Cu	Cu	0.74834 0.20340 0.47683 0.95100
Cu	Cu	0.73752 0.04554 0.49820 0.95000
O 	O 	0.89641 0.15347 0.60861 -0.25200
O 	O 	0.84718 0.09008 0.62851 -0.28900
O 	O 	0.62084 0.15997 0.35517 -0.28800
O 	O 	0.61138 0.09504 0.33491 -0.24600
O 	O 	0.62296 0.20571 0.63702 -0.27800
O 	O 	0.58458 0.24812 0.81910 -0.24000
O 	O 	0.87349 0.24638 0.61066 -0.29400
O 	O 	0.85708 0.28757 0.80574 -0.29200
O 	O 	0.90583 0.04100 0.38567 -0.28200
O 	O 	0.08819 0.00027 0.34173 -0.24200
O 	O 	0.56868 0.04248 0.61159 -0.28700
O 	O 	0.37760 0.00027 0.62768 -0.28800
C 	C 	0.81770 0.12321 0.56090 0.22700
C 	C 	0.66950 0.12590 0.40280 0.23000
C 	C 	0.80970 0.25870 0.71480 0.24000
C 	C 	0.65860 0.23608 0.72750 0.21200
C 	C 	0.99980 0.01144 0.42110 0.23000
C 	C 	0.48450 0.01237 0.56910 0.22300
Cu	Cu	0.25166 0.70340 0.02317 0.94300
Cu	Cu	0.26248 0.54554 0.00180 0.94700
O 	O 	0.10359 0.65347 0.89139 -0.24600
O 	O 	0.15282 0.59008 0.87149 -0.28700
O 	O 	0.37916 0.65997 0.14483 -0.29000
O 	O 	0.38862 0.59504 0.16509 -0.24600
O 	O 	0.37704 0.70571 0.86298 -0.27100
O 	O 	0.41542 0.74812 0.68090 -0.23400
O 	O 	0.12651 0.74638 0.88934 -0.28400
O 	O 	0.14292 0.78757 0.69426 -0.28600
O 	O 	0.09417 0.54100 0.11433 -0.28400
O 	O 	0.91181 0.50027 0.15827 -0.23800
O 	O 	0.43132 0.54248 0.88841 -0.28300
O 	O 	0.62240 0.50027 0.87232 -0.28800
C 	C 	0.18230 0.62321 0.93910 0.24000
C 	C 	0.33050 0.62590 0.09720 0.21800
C 	C 	0.19030 0.75870 0.78520 0.24100
C 	C 	0.34140 0.73608 0.77250 0.21400
C 	C 	0.00020 0.51144 0.07890 0.22700
C 	C 	0.51550 0.51237 0.93090 0.22300
Cu	Cu	0.25166 0.79660 0.52317 0.95000
Cu	Cu	0.26248 0.95446 0.50180 0.94900
O 	O 	0.10359 0.84653 0.39139 -0.25200
O 	O 	0.15282 0.90992 0.37149 -0.28900
O 	O 	0.37916 0.84003 0.64483 -0.28800
O 	O 	0.38862 0.90496 0.66509 -0.24600
O 	O 	0.37704 0.79429 0.36298 -0.27800
O 	O 	0.41542 0.75188 0.18090 -0.24000
O 	O 	0.12651 0.75362 0.38934 -0.29400
O 	O 	0.14292 0.71243 0.19426 -0.29200
O 	O 	0.09417 0.95900 0.61433 -0.28200
O 	O 	0.91181 0.99973 0.65827 -0.24200
O 	O 	0.43132 0.95752 0.38841 -0.28700
O 	O 	0.62240 0.99973 0.37232 -0.28800
C 	C 	0.18230 0.87679 0.43910 0.22700
C 	C 	0.33050 0.87410 0.59720 0.23000
C 	C 	0.19030 0.74130 0.28520 0.24000
C 	C 	0.34140 0.76392 0.27250 0.21200
C 	C 	0.00020 0.98856 0.57890 0.23000
C 	C 	0.51550 0.98763 0.43090 0.22300
Cu	Cu	0.74834 0.29660 0.97683 0.94300
Cu	Cu	0.73752 0.45446 0.99820 0.94700
O 	O 	0.89641 0.34653 0.10861 -0.24600
O 	O 	0.84718 0.40992 0.12851 -0.28700
O 	O 	0.62084 0.34003 0.85517 -0.29000
O 	O 	0.61138 0.40496 0.83491 -0.24600
O 	O 	0.62296 0.29429 0.13702 -0.27100
O 	O 	0.58458 0.25188 0.31910 -0.23400
O 	O 	0.87349 0.25362 0.11066 -0.28400
O 	O 	0.85708 0.21243 0.30574 -0.28600
O 	O 	0.90583 0.45900 0.88567 -0.28400
O 	O 	0.08819 0.49973 0.84173 -0.23800
O 	O 	0.56868 0.45752 0.11159 -0.28300
O 	O 	0.37760 0.49973 0.12768 -0.28800
C 	C 	0.81770 0.37679 0.06090 0.24000
C 	C 	0.66950 0.37410 0.90280 0.21800
C 	C 	0.80970 0.24130 0.21480 0.24100
C 	C 	0.65860 0.26392 0.22750 0.21400
C 	C 	0.99980 0.48856 0.92110 0.22700
C 	C 	0.48450 0.48763 0.06910 0.22300
