data_crystal

_cell_length_a 8.85330
_cell_length_b 33.71620
_cell_length_c 8.83470
_cell_angle_alpha 90.00000
_cell_angle_beta  107.96300
_cell_angle_gamma 90.00000

_symmetry_space_group_name_	'P 1'
_symmetry_space_group_name_H-M	'P 1'

loop_
_symmetry_equiv_pos_as_xyz
  x,y,z

loop_
_atom_site_label
_atom_site_type_symbol
_atom_site_fract_x
_atom_site_fract_y
_atom_site_fract_z
_atom_site_charge
Cu	Cu	0.74469 0.20420 0.50280 0.94700
Cu	Cu	0.74287 0.04557 0.50294 0.94600
O 	O 	0.88340 0.15544 0.62679 -0.26600
O 	O 	0.85771 0.09051 0.63224 -0.29000
O 	O 	0.61590 0.15977 0.38041 -0.29100
O 	O 	0.61588 0.09437 0.35908 -0.26400
O 	O 	0.61722 0.20826 0.66617 -0.26400
O 	O 	0.59710 0.24961 0.85240 -0.24800
O 	O 	0.87251 0.24631 0.64411 -0.29200
O 	O 	0.86220 0.28745 0.83617 -0.27400
O 	O 	0.91010 0.04003 0.38154 -0.27100
O 	O 	0.09140 0.99839 0.35154 -0.25700
O 	O 	0.57726 0.03998 0.62352 -0.27500
O 	O 	0.38290 0.99849 0.62556 -0.29100
C 	C 	0.81720 0.12401 0.57510 0.23700
C 	C 	0.66870 0.12605 0.42390 0.23400
C 	C 	0.81270 0.25925 0.74460 0.24700
C 	C 	0.66300 0.23743 0.75760 0.22000
C 	C 	0.00200 0.01081 0.42300 0.23300
C 	C 	0.48840 0.01124 0.57190 0.23000
Cu	Cu	0.25531 0.70420 0.99720 0.94200
Cu	Cu	0.25713 0.54557 0.99706 0.94600
O 	O 	0.11660 0.65544 0.87321 -0.26800
O 	O 	0.14229 0.59051 0.86776 -0.29100
O 	O 	0.38410 0.65977 0.11959 -0.28700
O 	O 	0.38412 0.59437 0.14092 -0.26300
O 	O 	0.38278 0.70826 0.83383 -0.26800
O 	O 	0.40290 0.74961 0.64760 -0.25500
O 	O 	0.12749 0.74631 0.85589 -0.29800
O 	O 	0.13780 0.78745 0.66383 -0.28200
O 	O 	0.08990 0.54003 0.11846 -0.26400
O 	O 	0.90860 0.49839 0.14846 -0.25700
O 	O 	0.42274 0.53998 0.87648 -0.27700
O 	O 	0.61710 0.49849 0.87444 -0.28900
C 	C 	0.18280 0.62401 0.92490 0.22800
C 	C 	0.33130 0.62605 0.07610 0.24500
C 	C 	0.18730 0.75925 0.75540 0.24600
C 	C 	0.33700 0.73743 0.74240 0.21900
C 	C 	0.99800 0.51081 0.07700 0.23000
C 	C 	0.51160 0.51124 0.92810 0.23100
Cu	Cu	0.25531 0.79580 0.49720 0.94800
Cu	Cu	0.25713 0.95443 0.49706 0.94700
O 	O 	0.11660 0.84456 0.37321 -0.26600
O 	O 	0.14229 0.90949 0.36776 -0.29000
O 	O 	0.38410 0.84023 0.61959 -0.29100
O 	O 	0.38412 0.90563 0.64092 -0.26400
O 	O 	0.38278 0.79174 0.33383 -0.26400
O 	O 	0.40290 0.75039 0.14760 -0.24800
O 	O 	0.12749 0.75369 0.35589 -0.29200
O 	O 	0.13780 0.71255 0.16383 -0.27400
O 	O 	0.08990 0.95997 0.61846 -0.27100
O 	O 	0.90860 0.00161 0.64846 -0.25700
O 	O 	0.42274 0.96002 0.37648 -0.27500
O 	O 	0.61710 0.00151 0.37444 -0.29100
C 	C 	0.18280 0.87599 0.42490 0.23700
C 	C 	0.33130 0.87395 0.57610 0.23400
C 	C 	0.18730 0.74075 0.25540 0.24700
C 	C 	0.33700 0.76257 0.24240 0.22000
C 	C 	0.99800 0.98919 0.57700 0.23300
C 	C 	0.51160 0.98876 0.42810 0.23000
Cu	Cu	0.74469 0.29580 0.00280 0.94200
Cu	Cu	0.74287 0.45443 0.00294 0.94600
O 	O 	0.88340 0.34456 0.12679 -0.26800
O 	O 	0.85771 0.40949 0.13224 -0.29100
O 	O 	0.61590 0.34023 0.88041 -0.28700
O 	O 	0.61588 0.40563 0.85908 -0.26300
O 	O 	0.61722 0.29174 0.16617 -0.26800
O 	O 	0.59710 0.25039 0.35240 -0.25500
O 	O 	0.87251 0.25369 0.14411 -0.29800
O 	O 	0.86220 0.21255 0.33617 -0.28200
O 	O 	0.91010 0.45997 0.88154 -0.26400
O 	O 	0.09140 0.50161 0.85154 -0.25700
O 	O 	0.57726 0.46002 0.12352 -0.27700
O 	O 	0.38290 0.50151 0.12556 -0.28900
C 	C 	0.81720 0.37599 0.07510 0.22800
C 	C 	0.66870 0.37395 0.92390 0.24500
C 	C 	0.81270 0.24075 0.24460 0.24600
C 	C 	0.66300 0.26257 0.25760 0.21900
C 	C 	0.00200 0.48919 0.92300 0.23000
C 	C 	0.48840 0.48876 0.07190 0.23100
