data_crystal

_cell_length_a 8.71560
_cell_length_b 34.08130
_cell_length_c 8.63600
_cell_angle_alpha 90.00000
_cell_angle_beta  107.63200
_cell_angle_gamma 90.00000

_symmetry_space_group_name_	'P 1'
_symmetry_space_group_name_H-M	'P 1'

loop_
_symmetry_equiv_pos_as_xyz
  x,y,z

loop_
_atom_site_label
_atom_site_type_symbol
_atom_site_fract_x
_atom_site_fract_y
_atom_site_fract_z
_atom_site_charge
Cu	Cu	0.74952 0.20351 0.48286 0.95000
Cu	Cu	0.73861 0.04560 0.49862 0.94900
O 	O 	0.89528 0.15372 0.61220 -0.25500
O 	O 	0.85003 0.09002 0.62842 -0.29100
O 	O 	0.62165 0.16008 0.36071 -0.29000
O 	O 	0.61223 0.09511 0.34025 -0.25000
O 	O 	0.62390 0.20612 0.64442 -0.27500
O 	O 	0.58957 0.24832 0.82735 -0.24300
O 	O 	0.87540 0.24614 0.61814 -0.29300
O 	O 	0.86021 0.28750 0.81239 -0.28800
O 	O 	0.90653 0.04066 0.38404 -0.27900
O 	O 	0.08904 0.99978 0.34408 -0.24600
O 	O 	0.57037 0.04196 0.61398 -0.28400
O 	O 	0.37925 0.99976 0.62780 -0.29000
C 	C 	0.81870 0.12330 0.56350 0.23000
C 	C 	0.66990 0.12599 0.40720 0.23300
C 	C 	0.81220 0.25866 0.72180 0.23900
C 	C 	0.66200 0.23634 0.73470 0.21200
C 	C 	0.00060 0.01127 0.42130 0.23100
C 	C 	0.48510 0.01209 0.56990 0.22500
Cu	Cu	0.25048 0.70351 0.01714 0.94300
Cu	Cu	0.26139 0.54560 0.00138 0.94700
O 	O 	0.10472 0.65372 0.88780 -0.25000
O 	O 	0.14997 0.59002 0.87158 -0.28900
O 	O 	0.37835 0.66008 0.13929 -0.29200
O 	O 	0.38777 0.59511 0.15975 -0.25100
O 	O 	0.37610 0.70612 0.85558 -0.26700
O 	O 	0.41043 0.74832 0.67265 -0.23700
O 	O 	0.12460 0.74614 0.88186 -0.28300
O 	O 	0.13979 0.78750 0.68761 -0.28300
O 	O 	0.09347 0.54066 0.11596 -0.28400
O 	O 	0.91096 0.49978 0.15592 -0.24500
O 	O 	0.42963 0.54196 0.88602 -0.28100
O 	O 	0.62075 0.49976 0.87220 -0.29000
C 	C 	0.18130 0.62330 0.93650 0.24200
C 	C 	0.33010 0.62599 0.09280 0.22200
C 	C 	0.18780 0.75866 0.77820 0.23900
C 	C 	0.33800 0.73634 0.76530 0.21300
C 	C 	0.99940 0.51127 0.07870 0.23500
C 	C 	0.51490 0.51209 0.93010 0.22600
Cu	Cu	0.25048 0.79649 0.51714 0.95000
Cu	Cu	0.26139 0.95440 0.50138 0.94900
O 	O 	0.10472 0.84628 0.38780 -0.25500
O 	O 	0.14997 0.90998 0.37158 -0.29100
O 	O 	0.37835 0.83992 0.63929 -0.29000
O 	O 	0.38777 0.90489 0.65975 -0.25000
O 	O 	0.37610 0.79388 0.35558 -0.27500
O 	O 	0.41043 0.75168 0.17265 -0.24300
O 	O 	0.12460 0.75386 0.38186 -0.29300
O 	O 	0.13979 0.71250 0.18761 -0.28800
O 	O 	0.09347 0.95934 0.61596 -0.27900
O 	O 	0.91096 0.00022 0.65592 -0.24600
O 	O 	0.42963 0.95804 0.38602 -0.28400
O 	O 	0.62075 0.00024 0.37220 -0.29000
C 	C 	0.18130 0.87670 0.43650 0.23000
C 	C 	0.33010 0.87401 0.59280 0.23300
C 	C 	0.18780 0.74134 0.27820 0.23900
C 	C 	0.33800 0.76366 0.26530 0.21200
C 	C 	0.99940 0.98873 0.57870 0.23100
C 	C 	0.51490 0.98791 0.43010 0.22500
Cu	Cu	0.74952 0.29649 0.98286 0.94300
Cu	Cu	0.73861 0.45440 0.99862 0.94700
O 	O 	0.89528 0.34628 0.11220 -0.25000
O 	O 	0.85003 0.40998 0.12842 -0.28900
O 	O 	0.62165 0.33992 0.86071 -0.29200
O 	O 	0.61223 0.40489 0.84025 -0.25100
O 	O 	0.62390 0.29388 0.14442 -0.26700
O 	O 	0.58957 0.25168 0.32735 -0.23700
O 	O 	0.87540 0.25386 0.11814 -0.28300
O 	O 	0.86021 0.21250 0.31239 -0.28300
O 	O 	0.90653 0.45934 0.88404 -0.28400
O 	O 	0.08904 0.50022 0.84408 -0.24500
O 	O 	0.57037 0.45804 0.11398 -0.28100
O 	O 	0.37925 0.50024 0.12780 -0.29000
C 	C 	0.81870 0.37670 0.06350 0.24200
C 	C 	0.66990 0.37401 0.90720 0.22200
C 	C 	0.81220 0.24134 0.22180 0.23900
C 	C 	0.66200 0.26366 0.23470 0.21300
C 	C 	0.00060 0.48873 0.92130 0.23500
C 	C 	0.48510 0.48791 0.06990 0.22600
