data_crystal

_cell_length_a 8.75950
_cell_length_b 33.91810
_cell_length_c 8.70690
_cell_angle_alpha 90.00000
_cell_angle_beta  107.79700
_cell_angle_gamma 90.00000

_symmetry_space_group_name_	'P 1'
_symmetry_space_group_name_H-M	'P 1'

loop_
_symmetry_equiv_pos_as_xyz
  x,y,z

loop_
_atom_site_label
_atom_site_type_symbol
_atom_site_fract_x
_atom_site_fract_y
_atom_site_fract_z
_atom_site_charge
Cu	Cu	0.75070 0.20365 0.48696 0.94800
Cu	Cu	0.74064 0.04578 0.49983 0.94700
O 	O 	0.89358 0.15458 0.61545 -0.25900
O 	O 	0.85480 0.09030 0.62915 -0.29000
O 	O 	0.62199 0.15987 0.36456 -0.28900
O 	O 	0.61443 0.09458 0.34734 -0.25500
O 	O 	0.62426 0.20703 0.65006 -0.27100
O 	O 	0.59640 0.24928 0.83410 -0.25100
O 	O 	0.87783 0.24607 0.62425 -0.29300
O 	O 	0.86467 0.28772 0.81699 -0.28500
O 	O 	0.90925 0.04029 0.38151 -0.27300
O 	O 	0.09100 0.99860 0.34773 -0.25300
O 	O 	0.57204 0.04137 0.61768 -0.28000
O 	O 	0.38073 0.99910 0.62738 -0.29000
C 	C 	0.82010 0.12364 0.56590 0.22900
C 	C 	0.67160 0.12600 0.41190 0.23200
C 	C 	0.81640 0.25897 0.72700 0.24100
C 	C 	0.66570 0.23688 0.74070 0.21700
C 	C 	0.00160 0.01092 0.42140 0.23300
C 	C 	0.48620 0.01178 0.57100 0.22800
Cu	Cu	0.24930 0.70365 0.01304 0.94200
Cu	Cu	0.25936 0.54578 0.00017 0.94600
O 	O 	0.10642 0.65458 0.88455 -0.25500
O 	O 	0.14520 0.59030 0.87085 -0.28900
O 	O 	0.37801 0.65987 0.13544 -0.29100
O 	O 	0.38557 0.59458 0.15266 -0.25600
O 	O 	0.37574 0.70703 0.84994 -0.26400
O 	O 	0.40360 0.74928 0.66590 -0.24600
O 	O 	0.12217 0.74607 0.87575 -0.28400
O 	O 	0.13533 0.78772 0.68301 -0.28000
O 	O 	0.09075 0.54029 0.11849 -0.27800
O 	O 	0.90900 0.49860 0.15227 -0.25200
O 	O 	0.42796 0.54137 0.88232 -0.27700
O 	O 	0.61927 0.49910 0.87262 -0.29000
C 	C 	0.17990 0.62364 0.93410 0.24100
C 	C 	0.32840 0.62600 0.08810 0.22100
C 	C 	0.18360 0.75897 0.77300 0.24200
C 	C 	0.33430 0.73688 0.75930 0.21800
C 	C 	0.99840 0.51092 0.07860 0.23700
C 	C 	0.51380 0.51178 0.92900 0.22800
Cu	Cu	0.24930 0.79635 0.51304 0.94900
Cu	Cu	0.25936 0.95422 0.50017 0.94800
O 	O 	0.10642 0.84542 0.38455 -0.25900
O 	O 	0.14520 0.90970 0.37085 -0.29000
O 	O 	0.37801 0.84013 0.63544 -0.28900
O 	O 	0.38557 0.90542 0.65266 -0.25500
O 	O 	0.37574 0.79297 0.34994 -0.27100
O 	O 	0.40360 0.75072 0.16590 -0.25100
O 	O 	0.12217 0.75393 0.37575 -0.29300
O 	O 	0.13533 0.71228 0.18301 -0.28500
O 	O 	0.09075 0.95971 0.61849 -0.27300
O 	O 	0.90900 0.00140 0.65227 -0.25300
O 	O 	0.42796 0.95863 0.38232 -0.28000
O 	O 	0.61927 0.00090 0.37262 -0.29000
C 	C 	0.17990 0.87636 0.43410 0.22900
C 	C 	0.32840 0.87400 0.58810 0.23200
C 	C 	0.18360 0.74103 0.27300 0.24100
C 	C 	0.33430 0.76312 0.25930 0.21700
C 	C 	0.99840 0.98908 0.57860 0.23300
C 	C 	0.51380 0.98822 0.42900 0.22800
Cu	Cu	0.75070 0.29635 0.98696 0.94200
Cu	Cu	0.74064 0.45422 0.99983 0.94600
O 	O 	0.89358 0.34542 0.11545 -0.25500
O 	O 	0.85480 0.40970 0.12915 -0.28900
O 	O 	0.62199 0.34013 0.86456 -0.29100
O 	O 	0.61443 0.40542 0.84734 -0.25600
O 	O 	0.62426 0.29297 0.15006 -0.26400
O 	O 	0.59640 0.25072 0.33410 -0.24600
O 	O 	0.87783 0.25393 0.12425 -0.28400
O 	O 	0.86467 0.21228 0.31699 -0.28000
O 	O 	0.90925 0.45971 0.88151 -0.27800
O 	O 	0.09100 0.50140 0.84773 -0.25200
O 	O 	0.57204 0.45863 0.11768 -0.27700
O 	O 	0.38073 0.50090 0.12738 -0.29000
C 	C 	0.82010 0.37636 0.06590 0.24100
C 	C 	0.67160 0.37400 0.91190 0.22100
C 	C 	0.81640 0.24103 0.22700 0.24200
C 	C 	0.66570 0.26312 0.24070 0.21800
C 	C 	0.00160 0.48908 0.92140 0.23700
C 	C 	0.48620 0.48822 0.07100 0.22800
