data_crystal

_cell_length_a 8.88390
_cell_length_b 33.65070
_cell_length_c 8.87370
_cell_angle_alpha 90.00000
_cell_angle_beta  108.06100
_cell_angle_gamma 90.00000

_symmetry_space_group_name_	'P 1'
_symmetry_space_group_name_H-M	'P 1'

loop_
_symmetry_equiv_pos_as_xyz
  x,y,z

loop_
_atom_site_label
_atom_site_type_symbol
_atom_site_fract_x
_atom_site_fract_y
_atom_site_fract_z
_atom_site_charge
Cu	Cu	0.74130 0.20440 0.50962 0.94900
Cu	Cu	0.74332 0.04543 0.50405 0.94800
O 	O 	0.87963 0.15559 0.63219 -0.26500
O 	O 	0.85803 0.09038 0.63416 -0.28800
O 	O 	0.61330 0.15974 0.38692 -0.29200
O 	O 	0.61590 0.09448 0.36300 -0.26500
O 	O 	0.61354 0.20848 0.67168 -0.26400
O 	O 	0.59520 0.24936 0.85920 -0.24800
O 	O 	0.86850 0.24638 0.65190 -0.29400
O 	O 	0.85960 0.28712 0.84460 -0.27500
O 	O 	0.90990 0.04002 0.38242 -0.27200
O 	O 	0.09080 0.99851 0.35260 -0.25800
O 	O 	0.57880 0.03951 0.62526 -0.27600
O 	O 	0.38380 0.99843 0.62520 -0.29100
C 	C 	0.81560 0.12405 0.57880 0.23600
C 	C 	0.66740 0.12612 0.42840 0.23800
C 	C 	0.81020 0.25913 0.75220 0.25200
C 	C 	0.66000 0.23736 0.76360 0.22000
C 	C 	0.00140 0.01091 0.42350 0.23500
C 	C 	0.48940 0.01116 0.57220 0.23000
Cu	Cu	0.25870 0.70440 0.99038 0.94200
Cu	Cu	0.25668 0.54543 0.99595 0.94500
O 	O 	0.12037 0.65559 0.86781 -0.26900
O 	O 	0.14197 0.59038 0.86584 -0.29000
O 	O 	0.38670 0.65974 0.11308 -0.28900
O 	O 	0.38410 0.59448 0.13700 -0.26500
O 	O 	0.38646 0.70848 0.82832 -0.26900
O 	O 	0.40480 0.74936 0.64080 -0.25500
O 	O 	0.13150 0.74638 0.84810 -0.30100
O 	O 	0.14040 0.78712 0.65540 -0.28400
O 	O 	0.09010 0.54002 0.11758 -0.26400
O 	O 	0.90920 0.49851 0.14740 -0.25800
O 	O 	0.42120 0.53951 0.87474 -0.27700
O 	O 	0.61620 0.49843 0.87480 -0.28900
C 	C 	0.18440 0.62405 0.92120 0.22600
C 	C 	0.33260 0.62612 0.07160 0.24900
C 	C 	0.18980 0.75913 0.74780 0.25200
C 	C 	0.34000 0.73736 0.73640 0.21900
C 	C 	0.99860 0.51091 0.07650 0.23100
C 	C 	0.51060 0.51116 0.92780 0.23100
Cu	Cu	0.25870 0.79560 0.49038 0.94800
Cu	Cu	0.25668 0.95457 0.49595 0.94700
O 	O 	0.12037 0.84441 0.36781 -0.26600
O 	O 	0.14197 0.90962 0.36584 -0.28900
O 	O 	0.38670 0.84026 0.61308 -0.29300
O 	O 	0.38410 0.90552 0.63700 -0.26600
O 	O 	0.38646 0.79152 0.32832 -0.26500
O 	O 	0.40480 0.75064 0.14080 -0.24900
O 	O 	0.13150 0.75362 0.34810 -0.29500
O 	O 	0.14040 0.71288 0.15540 -0.27600
O 	O 	0.09010 0.95998 0.61758 -0.27200
O 	O 	0.90920 0.00149 0.64740 -0.25800
O 	O 	0.42120 0.96049 0.37474 -0.27600
O 	O 	0.61620 0.00157 0.37480 -0.29100
C 	C 	0.18440 0.87595 0.42120 0.23600
C 	C 	0.33260 0.87388 0.57160 0.23800
C 	C 	0.18980 0.74087 0.24780 0.25200
C 	C 	0.34000 0.76264 0.23640 0.22000
C 	C 	0.99860 0.98909 0.57650 0.23500
C 	C 	0.51060 0.98884 0.42780 0.23000
Cu	Cu	0.74130 0.29560 0.00962 0.94200
Cu	Cu	0.74332 0.45457 0.00405 0.94500
O 	O 	0.87963 0.34441 0.13219 -0.26900
O 	O 	0.85803 0.40962 0.13416 -0.29000
O 	O 	0.61330 0.34026 0.88692 -0.28900
O 	O 	0.61590 0.40552 0.86300 -0.26500
O 	O 	0.61354 0.29152 0.17168 -0.26900
O 	O 	0.59520 0.25064 0.35920 -0.25500
O 	O 	0.86850 0.25362 0.15190 -0.30100
O 	O 	0.85960 0.21288 0.34460 -0.28400
O 	O 	0.90990 0.45998 0.88242 -0.26400
O 	O 	0.09080 0.50149 0.85260 -0.25800
O 	O 	0.57880 0.46049 0.12526 -0.27700
O 	O 	0.38380 0.50157 0.12520 -0.28900
C 	C 	0.81560 0.37595 0.07880 0.22600
C 	C 	0.66740 0.37388 0.92840 0.24900
C 	C 	0.81020 0.24087 0.25220 0.25200
C 	C 	0.66000 0.26264 0.26360 0.21900
C 	C 	0.00140 0.48909 0.92350 0.23100
C 	C 	0.48940 0.48884 0.07220 0.23100
