data_crystal

_cell_length_a 8.79790
_cell_length_b 33.81870
_cell_length_c 8.76220
_cell_angle_alpha 90.00000
_cell_angle_beta  107.85400
_cell_angle_gamma 90.00000

_symmetry_space_group_name_	'P 1'
_symmetry_space_group_name_H-M	'P 1'

loop_
_symmetry_equiv_pos_as_xyz
  x,y,z

loop_
_atom_site_label
_atom_site_type_symbol
_atom_site_fract_x
_atom_site_fract_y
_atom_site_fract_z
_atom_site_charge
C 	C 	0.81960 0.12383 0.56910 0.23100
C 	C 	0.67100 0.12597 0.41610 0.23400
C 	C 	0.81580 0.25912 0.73310 0.24100
C 	C 	0.66640 0.23720 0.74680 0.21700
C 	C 	0.00210 0.01077 0.42200 0.23300
C 	C 	0.48710 0.01150 0.57140 0.22700
O 	O 	0.88993 0.15510 0.61907 -0.26300
O 	O 	0.85668 0.09043 0.63020 -0.29100
O 	O 	0.62021 0.15971 0.36989 -0.28900
O 	O 	0.61551 0.09432 0.35288 -0.26100
O 	O 	0.62239 0.20762 0.65579 -0.26800
O 	O 	0.59900 0.24974 0.84110 -0.25300
O 	O 	0.87709 0.24610 0.63158 -0.29200
O 	O 	0.86480 0.28771 0.82334 -0.28100
O 	O 	0.91023 0.04012 0.38088 -0.27100
O 	O 	0.09180 0.99826 0.34983 -0.25600
O 	O 	0.57397 0.04085 0.62043 -0.27600
O 	O 	0.38157 0.99874 0.62686 -0.29000
Cu	Cu	0.74942 0.20387 0.49238 0.94800
Cu	Cu	0.74183 0.04577 0.50107 0.94800
C 	C 	0.18040 0.62383 0.93090 0.23700
C 	C 	0.32900 0.62597 0.08390 0.23100
C 	C 	0.18420 0.75912 0.76690 0.24200
C 	C 	0.33360 0.73720 0.75320 0.21800
C 	C 	0.99790 0.51077 0.07800 0.23300
C 	C 	0.51290 0.51150 0.92860 0.22800
O 	O 	0.11007 0.65510 0.88093 -0.26100
O 	O 	0.14332 0.59043 0.86980 -0.29000
O 	O 	0.37979 0.65971 0.13011 -0.29000
O 	O 	0.38449 0.59432 0.14712 -0.26100
O 	O 	0.37761 0.70762 0.84421 -0.26400
O 	O 	0.40100 0.74974 0.65890 -0.25000
O 	O 	0.12291 0.74610 0.86842 -0.28800
O 	O 	0.13520 0.78771 0.67666 -0.27900
O 	O 	0.08977 0.54012 0.11912 -0.27100
O 	O 	0.90820 0.49826 0.15017 -0.25600
O 	O 	0.42603 0.54085 0.87957 -0.27500
O 	O 	0.61843 0.49874 0.87314 -0.28900
Cu	Cu	0.25058 0.70387 0.00762 0.94600
Cu	Cu	0.25817 0.54577 0.99893 0.94900
C 	C 	0.18040 0.87617 0.43090 0.23200
C 	C 	0.32900 0.87403 0.58390 0.23500
C 	C 	0.18420 0.74088 0.26690 0.24200
C 	C 	0.33360 0.76280 0.25320 0.21800
C 	C 	0.99790 0.98923 0.57800 0.23300
C 	C 	0.51290 0.98850 0.42860 0.22700
O 	O 	0.11007 0.84490 0.38093 -0.26300
O 	O 	0.14332 0.90957 0.36980 -0.29100
O 	O 	0.37979 0.84029 0.63011 -0.28900
O 	O 	0.38449 0.90568 0.64712 -0.26100
O 	O 	0.37761 0.79238 0.34421 -0.26800
O 	O 	0.40100 0.75026 0.15890 -0.25300
O 	O 	0.12291 0.75390 0.36842 -0.29200
O 	O 	0.13520 0.71229 0.17666 -0.28100
O 	O 	0.08977 0.95988 0.61912 -0.27100
O 	O 	0.90820 0.00174 0.65017 -0.25600
O 	O 	0.42603 0.95915 0.37957 -0.27600
O 	O 	0.61843 0.00126 0.37314 -0.29000
Cu	Cu	0.25058 0.79613 0.50762 0.94800
Cu	Cu	0.25817 0.95423 0.49893 0.94800
C 	C 	0.81960 0.37617 0.06910 0.23700
C 	C 	0.67100 0.37403 0.91610 0.23100
C 	C 	0.81580 0.24088 0.23310 0.24200
C 	C 	0.66640 0.26280 0.24680 0.21800
C 	C 	0.00210 0.48923 0.92200 0.23300
C 	C 	0.48710 0.48850 0.07140 0.22800
O 	O 	0.88993 0.34490 0.11907 -0.26100
O 	O 	0.85668 0.40957 0.13020 -0.29000
O 	O 	0.62021 0.34029 0.86989 -0.29000
O 	O 	0.61551 0.40568 0.85288 -0.26100
O 	O 	0.62239 0.29238 0.15579 -0.26400
O 	O 	0.59900 0.25026 0.34110 -0.25000
O 	O 	0.87709 0.25390 0.13158 -0.28800
O 	O 	0.86480 0.21229 0.32334 -0.27900
O 	O 	0.91023 0.45988 0.88088 -0.27100
O 	O 	0.09180 0.50174 0.84983 -0.25600
O 	O 	0.57397 0.45915 0.12043 -0.27500
O 	O 	0.38157 0.50126 0.12686 -0.28900
Cu	Cu	0.74942 0.29613 0.99238 0.94600
Cu	Cu	0.74183 0.45423 0.00107 0.94900
