data_crystal

_cell_length_a 8.73680
_cell_length_b 33.99680
_cell_length_c 8.67040
_cell_angle_alpha 90.00000
_cell_angle_beta  107.72600
_cell_angle_gamma 90.00000

_symmetry_space_group_name_	'P 1'
_symmetry_space_group_name_H-M	'P 1'

loop_
_symmetry_equiv_pos_as_xyz
  x,y,z

loop_
_atom_site_label
_atom_site_type_symbol
_atom_site_fract_x
_atom_site_fract_y
_atom_site_fract_z
_atom_site_charge
Cu	Cu	0.75034 0.20355 0.48460 0.95000
Cu	Cu	0.73960 0.04570 0.49914 0.95000
O 	O 	0.89453 0.15421 0.61347 -0.25700
O 	O 	0.85236 0.09016 0.62857 -0.29100
O 	O 	0.62200 0.15997 0.36232 -0.28900
O 	O 	0.61329 0.09485 0.34359 -0.25300
O 	O 	0.62424 0.20659 0.64701 -0.27400
O 	O 	0.59307 0.24884 0.83029 -0.24800
O 	O 	0.87669 0.24607 0.62079 -0.29300
O 	O 	0.86265 0.28762 0.81439 -0.28700
O 	O 	0.90765 0.04052 0.38290 -0.27600
O 	O 	0.08979 0.99918 0.34568 -0.24800
O 	O 	0.57113 0.04173 0.61568 -0.28100
O 	O 	0.37984 0.99940 0.62775 -0.28900
C 	C 	0.81950 0.12347 0.56430 0.22900
C 	C 	0.67100 0.12596 0.40920 0.23200
C 	C 	0.81440 0.25884 0.72410 0.23900
C 	C 	0.66380 0.23657 0.73750 0.21700
C 	C 	0.00070 0.01112 0.42150 0.23000
C 	C 	0.48570 0.01191 0.57020 0.22400
Cu	Cu	0.24966 0.70355 0.01540 0.94300
Cu	Cu	0.26040 0.54570 0.00086 0.94700
O 	O 	0.10547 0.65421 0.88653 -0.25200
O 	O 	0.14764 0.59016 0.87143 -0.28900
O 	O 	0.37800 0.65997 0.13768 -0.29100
O 	O 	0.38671 0.59485 0.15641 -0.25300
O 	O 	0.37576 0.70659 0.85299 -0.26700
O 	O 	0.40693 0.74884 0.66971 -0.24200
O 	O 	0.12331 0.74607 0.87921 -0.28400
O 	O 	0.13735 0.78762 0.68561 -0.28100
O 	O 	0.09235 0.54052 0.11710 -0.28100
O 	O 	0.91021 0.49918 0.15432 -0.24700
O 	O 	0.42887 0.54173 0.88432 -0.27800
O 	O 	0.62016 0.49940 0.87225 -0.28900
C 	C 	0.18050 0.62347 0.93570 0.24000
C 	C 	0.32900 0.62596 0.09080 0.22200
C 	C 	0.18560 0.75884 0.77590 0.24000
C 	C 	0.33620 0.73657 0.76250 0.21800
C 	C 	0.99930 0.51112 0.07850 0.23500
C 	C 	0.51430 0.51191 0.92980 0.22500
Cu	Cu	0.24966 0.79645 0.51540 0.94900
Cu	Cu	0.26040 0.95430 0.50086 0.94900
O 	O 	0.10547 0.84579 0.38653 -0.25700
O 	O 	0.14764 0.90984 0.37143 -0.29100
O 	O 	0.37800 0.84003 0.63768 -0.28900
O 	O 	0.38671 0.90515 0.65641 -0.25300
O 	O 	0.37576 0.79341 0.35299 -0.27400
O 	O 	0.40693 0.75116 0.16971 -0.24800
O 	O 	0.12331 0.75393 0.37921 -0.29300
O 	O 	0.13735 0.71238 0.18561 -0.28700
O 	O 	0.09235 0.95948 0.61710 -0.27600
O 	O 	0.91021 0.00082 0.65432 -0.24800
O 	O 	0.42887 0.95827 0.38432 -0.28100
O 	O 	0.62016 0.00060 0.37225 -0.28900
C 	C 	0.18050 0.87653 0.43570 0.22900
C 	C 	0.32900 0.87404 0.59080 0.23200
C 	C 	0.18560 0.74116 0.27590 0.23900
C 	C 	0.33620 0.76343 0.26250 0.21700
C 	C 	0.99930 0.98888 0.57850 0.23000
C 	C 	0.51430 0.98809 0.42980 0.22400
Cu	Cu	0.75034 0.29645 0.98460 0.94300
Cu	Cu	0.73960 0.45430 0.99914 0.94700
O 	O 	0.89453 0.34579 0.11347 -0.25200
O 	O 	0.85236 0.40984 0.12857 -0.28900
O 	O 	0.62200 0.34003 0.86232 -0.29100
O 	O 	0.61329 0.40515 0.84359 -0.25300
O 	O 	0.62424 0.29341 0.14701 -0.26700
O 	O 	0.59307 0.25116 0.33029 -0.24200
O 	O 	0.87669 0.25393 0.12079 -0.28400
O 	O 	0.86265 0.21238 0.31439 -0.28100
O 	O 	0.90765 0.45948 0.88290 -0.28100
O 	O 	0.08979 0.50082 0.84568 -0.24700
O 	O 	0.57113 0.45827 0.11568 -0.27800
O 	O 	0.37984 0.50060 0.12775 -0.28900
C 	C 	0.81950 0.37653 0.06430 0.24000
C 	C 	0.67100 0.37404 0.90920 0.22200
C 	C 	0.81440 0.24116 0.22410 0.24000
C 	C 	0.66380 0.26343 0.23750 0.21800
C 	C 	0.00070 0.48888 0.92150 0.23500
C 	C 	0.48570 0.48809 0.07020 0.22500
