data_crystal

_cell_length_a 8.72590
_cell_length_b 34.04410
_cell_length_c 8.65270
_cell_angle_alpha 90.00000
_cell_angle_beta  107.66900
_cell_angle_gamma 90.00000

_symmetry_space_group_name_	'P 1'
_symmetry_space_group_name_H-M	'P 1'

loop_
_symmetry_equiv_pos_as_xyz
  x,y,z

loop_
_atom_site_label
_atom_site_type_symbol
_atom_site_fract_x
_atom_site_fract_y
_atom_site_fract_z
_atom_site_charge
Cu	Cu	0.74999 0.20353 0.48376 0.94900
Cu	Cu	0.73904 0.04566 0.49884 0.94800
O 	O 	0.89531 0.15395 0.61284 -0.25700
O 	O 	0.85109 0.09006 0.62851 -0.29200
O 	O 	0.62185 0.16006 0.36160 -0.28900
O 	O 	0.61278 0.09499 0.34207 -0.25200
O 	O 	0.62437 0.20627 0.64571 -0.27400
O 	O 	0.59117 0.24855 0.82888 -0.24400
O 	O 	0.87605 0.24607 0.61935 -0.29300
O 	O 	0.86144 0.28753 0.81338 -0.28700
O 	O 	0.90731 0.04059 0.38339 -0.27700
O 	O 	0.08955 0.99948 0.34496 -0.24700
O 	O 	0.57063 0.04184 0.61484 -0.28200
O 	O 	0.37952 0.99958 0.62773 -0.28900
C 	C 	0.81930 0.12336 0.56390 0.22900
C 	C 	0.67060 0.12596 0.40820 0.23200
C 	C 	0.81330 0.25871 0.72290 0.23900
C 	C 	0.66300 0.23640 0.73610 0.21300
C 	C 	0.00060 0.01116 0.42140 0.23000
C 	C 	0.48540 0.01199 0.57000 0.22500
Cu	Cu	0.25001 0.70353 0.01624 0.94300
Cu	Cu	0.26096 0.54566 0.00116 0.94700
O 	O 	0.10469 0.65395 0.88716 -0.25100
O 	O 	0.14891 0.59006 0.87149 -0.28900
O 	O 	0.37815 0.66006 0.13840 -0.29100
O 	O 	0.38722 0.59499 0.15793 -0.25200
O 	O 	0.37563 0.70627 0.85429 -0.26700
O 	O 	0.40883 0.74855 0.67112 -0.23900
O 	O 	0.12395 0.74607 0.88065 -0.28400
O 	O 	0.13856 0.78753 0.68662 -0.28200
O 	O 	0.09269 0.54059 0.11661 -0.28200
O 	O 	0.91045 0.49948 0.15504 -0.24600
O 	O 	0.42937 0.54184 0.88516 -0.27900
O 	O 	0.62048 0.49958 0.87227 -0.28900
C 	C 	0.18070 0.62336 0.93610 0.24100
C 	C 	0.32940 0.62596 0.09180 0.22200
C 	C 	0.18670 0.75871 0.77710 0.24000
C 	C 	0.33700 0.73640 0.76390 0.21400
C 	C 	0.99940 0.51116 0.07860 0.23500
C 	C 	0.51460 0.51199 0.93000 0.22500
Cu	Cu	0.25001 0.79647 0.51624 0.95000
Cu	Cu	0.26096 0.95434 0.50116 0.94900
O 	O 	0.10469 0.84605 0.38716 -0.25600
O 	O 	0.14891 0.90994 0.37149 -0.29100
O 	O 	0.37815 0.83994 0.63840 -0.28900
O 	O 	0.38722 0.90501 0.65793 -0.25200
O 	O 	0.37563 0.79373 0.35429 -0.27400
O 	O 	0.40883 0.75145 0.17112 -0.24400
O 	O 	0.12395 0.75393 0.38065 -0.29300
O 	O 	0.13856 0.71247 0.18662 -0.28700
O 	O 	0.09269 0.95941 0.61661 -0.27700
O 	O 	0.91045 0.00052 0.65504 -0.24700
O 	O 	0.42937 0.95816 0.38516 -0.28200
O 	O 	0.62048 0.00042 0.37227 -0.28900
C 	C 	0.18070 0.87664 0.43610 0.22900
C 	C 	0.32940 0.87404 0.59180 0.23200
C 	C 	0.18670 0.74129 0.27710 0.23900
C 	C 	0.33700 0.76360 0.26390 0.21300
C 	C 	0.99940 0.98884 0.57860 0.23000
C 	C 	0.51460 0.98801 0.43000 0.22500
Cu	Cu	0.74999 0.29647 0.98376 0.94300
Cu	Cu	0.73904 0.45434 0.99884 0.94700
O 	O 	0.89531 0.34605 0.11284 -0.25100
O 	O 	0.85109 0.40994 0.12851 -0.28900
O 	O 	0.62185 0.33994 0.86160 -0.29100
O 	O 	0.61278 0.40501 0.84207 -0.25200
O 	O 	0.62437 0.29373 0.14571 -0.26700
O 	O 	0.59117 0.25145 0.32888 -0.23900
O 	O 	0.87605 0.25393 0.11935 -0.28400
O 	O 	0.86144 0.21247 0.31338 -0.28200
O 	O 	0.90731 0.45941 0.88339 -0.28200
O 	O 	0.08955 0.50052 0.84496 -0.24600
O 	O 	0.57063 0.45816 0.11484 -0.27900
O 	O 	0.37952 0.50042 0.12773 -0.28900
C 	C 	0.81930 0.37664 0.06390 0.24100
C 	C 	0.67060 0.37404 0.90820 0.22200
C 	C 	0.81330 0.24129 0.22290 0.24000
C 	C 	0.66300 0.26360 0.23610 0.21400
C 	C 	0.00060 0.48884 0.92140 0.23500
C 	C 	0.48540 0.48801 0.07000 0.22500
