data_crystal

_cell_length_a 8.82940
_cell_length_b 33.77190
_cell_length_c 8.80520
_cell_angle_alpha 90.00000
_cell_angle_beta  107.90100
_cell_angle_gamma 90.00000

_symmetry_space_group_name_	'P 1'
_symmetry_space_group_name_H-M	'P 1'

loop_
_symmetry_equiv_pos_as_xyz
  x,y,z

loop_
_atom_site_label
_atom_site_type_symbol
_atom_site_fract_x
_atom_site_fract_y
_atom_site_fract_z
_atom_site_charge
Cu	Cu	0.74697 0.20406 0.49762 0.94700
Cu	Cu	0.74245 0.04569 0.50213 0.94700
O 	O 	0.88646 0.15533 0.62327 -0.26700
O 	O 	0.85721 0.09045 0.63135 -0.29200
O 	O 	0.61824 0.15976 0.37513 -0.28900
O 	O 	0.61562 0.09430 0.35651 -0.26100
O 	O 	0.61971 0.20802 0.66085 -0.26800
O 	O 	0.59850 0.24970 0.84700 -0.25500
O 	O 	0.87460 0.24618 0.63822 -0.29400
O 	O 	0.86365 0.28759 0.82974 -0.28200
O 	O 	0.91075 0.04012 0.38118 -0.27000
O 	O 	0.09200 0.99823 0.35078 -0.25600
O 	O 	0.57543 0.04032 0.62236 -0.27600
O 	O 	0.38241 0.99852 0.62598 -0.29100
C 	C 	0.81870 0.12393 0.57220 0.23500
C 	C 	0.66990 0.12604 0.42030 0.23300
C 	C 	0.81450 0.25919 0.73880 0.24600
C 	C 	0.66470 0.23729 0.75210 0.21900
C 	C 	0.00220 0.01086 0.42250 0.23300
C 	C 	0.48800 0.01139 0.57180 0.23000
Cu	Cu	0.25303 0.70406 0.00238 0.94600
Cu	Cu	0.25755 0.54569 0.99787 0.94900
O 	O 	0.11354 0.65533 0.87673 -0.26400
O 	O 	0.14279 0.59045 0.86865 -0.29100
O 	O 	0.38176 0.65976 0.12487 -0.29000
O 	O 	0.38438 0.59430 0.14349 -0.26200
O 	O 	0.38029 0.70802 0.83915 -0.26400
O 	O 	0.40150 0.74970 0.65300 -0.25300
O 	O 	0.12540 0.74618 0.86178 -0.29000
O 	O 	0.13635 0.78759 0.67026 -0.28000
O 	O 	0.08925 0.54012 0.11882 -0.27000
O 	O 	0.90800 0.49823 0.14922 -0.25600
O 	O 	0.42457 0.54032 0.87764 -0.27500
O 	O 	0.61759 0.49852 0.87402 -0.29100
C 	C 	0.18130 0.62393 0.92780 0.24000
C 	C 	0.33010 0.62604 0.07970 0.23000
C 	C 	0.18550 0.75919 0.76120 0.24700
C 	C 	0.33530 0.73729 0.74790 0.21900
C 	C 	0.99780 0.51086 0.07750 0.23300
C 	C 	0.51200 0.51139 0.92820 0.23100
Cu	Cu	0.25303 0.79594 0.50238 0.94800
Cu	Cu	0.25755 0.95431 0.49787 0.94800
O 	O 	0.11354 0.84467 0.37673 -0.26600
O 	O 	0.14279 0.90955 0.36865 -0.29100
O 	O 	0.38176 0.84024 0.62487 -0.28900
O 	O 	0.38438 0.90570 0.64349 -0.26100
O 	O 	0.38029 0.79198 0.33915 -0.26800
O 	O 	0.40150 0.75030 0.15300 -0.25500
O 	O 	0.12540 0.75382 0.36178 -0.29400
O 	O 	0.13635 0.71241 0.17026 -0.28200
O 	O 	0.08925 0.95988 0.61882 -0.27000
O 	O 	0.90800 0.00177 0.64922 -0.25600
O 	O 	0.42457 0.95968 0.37764 -0.27600
O 	O 	0.61759 0.00148 0.37402 -0.29100
C 	C 	0.18130 0.87607 0.42780 0.23500
C 	C 	0.33010 0.87396 0.57970 0.23300
C 	C 	0.18550 0.74081 0.26120 0.24600
C 	C 	0.33530 0.76271 0.24790 0.21900
C 	C 	0.99780 0.98914 0.57750 0.23300
C 	C 	0.51200 0.98861 0.42820 0.23000
Cu	Cu	0.74697 0.29594 0.99762 0.94600
Cu	Cu	0.74245 0.45431 0.00213 0.94900
O 	O 	0.88646 0.34467 0.12327 -0.26400
O 	O 	0.85721 0.40955 0.13135 -0.29100
O 	O 	0.61824 0.34024 0.87513 -0.29000
O 	O 	0.61562 0.40570 0.85651 -0.26200
O 	O 	0.61971 0.29198 0.16085 -0.26400
O 	O 	0.59850 0.25030 0.34700 -0.25300
O 	O 	0.87460 0.25382 0.13822 -0.29000
O 	O 	0.86365 0.21241 0.32974 -0.28000
O 	O 	0.91075 0.45988 0.88118 -0.27000
O 	O 	0.09200 0.50177 0.85078 -0.25600
O 	O 	0.57543 0.45968 0.12236 -0.27500
O 	O 	0.38241 0.50148 0.12598 -0.29100
C 	C 	0.81870 0.37607 0.07220 0.24000
C 	C 	0.66990 0.37396 0.92030 0.23000
C 	C 	0.81450 0.24081 0.23880 0.24700
C 	C 	0.66470 0.26271 0.25210 0.21900
C 	C 	0.00220 0.48914 0.92250 0.23300
C 	C 	0.48800 0.48861 0.07180 0.23100
