data_crystal

_cell_length_a 8.69870
_cell_length_b 34.14080
_cell_length_c 8.60810
_cell_angle_alpha 90.00000
_cell_angle_beta  107.57800
_cell_angle_gamma 90.00000

_symmetry_space_group_name_	'P 1'
_symmetry_space_group_name_H-M	'P 1'

loop_
_symmetry_equiv_pos_as_xyz
  x,y,z

loop_
_atom_site_label
_atom_site_type_symbol
_atom_site_fract_x
_atom_site_fract_y
_atom_site_fract_z
_atom_site_charge
Cu	Cu	0.74864 0.20347 0.48079 0.95000
Cu	Cu	0.73786 0.04553 0.49831 0.94900
O 	O 	0.89569 0.15350 0.61058 -0.25300
O 	O 	0.84819 0.08994 0.62824 -0.29000
O 	O 	0.62075 0.16010 0.35884 -0.28800
O 	O 	0.61146 0.09515 0.33749 -0.24700
O 	O 	0.62359 0.20582 0.64187 -0.27700
O 	O 	0.58668 0.24811 0.82436 -0.24100
O 	O 	0.87411 0.24625 0.61525 -0.29300
O 	O 	0.85792 0.28752 0.80976 -0.29000
O 	O 	0.90586 0.04080 0.38504 -0.28100
O 	O 	0.08850 0.00016 0.34263 -0.24300
O 	O 	0.56970 0.04222 0.61270 -0.28600
O 	O 	0.37848 0.00003 0.62780 -0.28900
C 	C 	0.81780 0.12323 0.56220 0.22800
C 	C 	0.66950 0.12595 0.40530 0.23000
C 	C 	0.81040 0.25863 0.71930 0.23800
C 	C 	0.65990 0.23615 0.73230 0.21200
C 	C 	0.99990 0.01136 0.42120 0.23100
C 	C 	0.48500 0.01226 0.56950 0.22400
Cu	Cu	0.25136 0.70347 0.01921 0.94300
Cu	Cu	0.26214 0.54553 0.00169 0.94700
O 	O 	0.10431 0.65350 0.88942 -0.24800
O 	O 	0.15181 0.58994 0.87176 -0.28800
O 	O 	0.37925 0.66010 0.14116 -0.29000
O 	O 	0.38854 0.59515 0.16251 -0.24700
O 	O 	0.37641 0.70582 0.85813 -0.26900
O 	O 	0.41332 0.74811 0.67564 -0.23600
O 	O 	0.12589 0.74625 0.88475 -0.28300
O 	O 	0.14208 0.78752 0.69024 -0.28400
O 	O 	0.09414 0.54080 0.11496 -0.28300
O 	O 	0.91150 0.50016 0.15737 -0.23900
O 	O 	0.43030 0.54222 0.88730 -0.28300
O 	O 	0.62152 0.50003 0.87220 -0.28900
C 	C 	0.18220 0.62323 0.93780 0.24100
C 	C 	0.33050 0.62595 0.09470 0.21900
C 	C 	0.18960 0.75863 0.78070 0.23900
C 	C 	0.34010 0.73615 0.76770 0.21400
C 	C 	0.00010 0.51136 0.07880 0.22800
C 	C 	0.51500 0.51226 0.93050 0.22400
Cu	Cu	0.25136 0.79653 0.51921 0.95000
Cu	Cu	0.26214 0.95447 0.50169 0.94900
O 	O 	0.10431 0.84650 0.38942 -0.25300
O 	O 	0.15181 0.91006 0.37176 -0.29000
O 	O 	0.37925 0.83990 0.64116 -0.28800
O 	O 	0.38854 0.90485 0.66251 -0.24700
O 	O 	0.37641 0.79418 0.35813 -0.27700
O 	O 	0.41332 0.75189 0.17564 -0.24100
O 	O 	0.12589 0.75375 0.38475 -0.29300
O 	O 	0.14208 0.71248 0.19024 -0.29000
O 	O 	0.09414 0.95920 0.61496 -0.28100
O 	O 	0.91150 0.99984 0.65737 -0.24300
O 	O 	0.43030 0.95778 0.38730 -0.28600
O 	O 	0.62152 0.99997 0.37220 -0.28900
C 	C 	0.18220 0.87677 0.43780 0.22800
C 	C 	0.33050 0.87405 0.59470 0.23000
C 	C 	0.18960 0.74137 0.28070 0.23800
C 	C 	0.34010 0.76385 0.26770 0.21200
C 	C 	0.00010 0.98864 0.57880 0.23100
C 	C 	0.51500 0.98774 0.43050 0.22400
Cu	Cu	0.74864 0.29653 0.98079 0.94300
Cu	Cu	0.73786 0.45447 0.99831 0.94700
O 	O 	0.89569 0.34650 0.11058 -0.24800
O 	O 	0.84819 0.41006 0.12824 -0.28800
O 	O 	0.62075 0.33990 0.85884 -0.29000
O 	O 	0.61146 0.40485 0.83749 -0.24700
O 	O 	0.62359 0.29418 0.14187 -0.26900
O 	O 	0.58668 0.25189 0.32436 -0.23600
O 	O 	0.87411 0.25375 0.11525 -0.28300
O 	O 	0.85792 0.21248 0.30976 -0.28400
O 	O 	0.90586 0.45920 0.88504 -0.28300
O 	O 	0.08850 0.49984 0.84263 -0.23900
O 	O 	0.56970 0.45778 0.11270 -0.28300
O 	O 	0.37848 0.49997 0.12780 -0.28900
C 	C 	0.81780 0.37677 0.06220 0.24100
C 	C 	0.66950 0.37405 0.90530 0.21900
C 	C 	0.81040 0.24137 0.21930 0.23900
C 	C 	0.65990 0.26385 0.23230 0.21400
C 	C 	0.99990 0.48864 0.92120 0.22800
C 	C 	0.48500 0.48774 0.06950 0.22400
