data_crystal

_cell_length_a 8.74070
_cell_length_b 33.98860
_cell_length_c 8.67710
_cell_angle_alpha 90.00000
_cell_angle_beta  107.72500
_cell_angle_gamma 90.00000

_symmetry_space_group_name_	'P 1'
_symmetry_space_group_name_H-M	'P 1'

loop_
_symmetry_equiv_pos_as_xyz
  x,y,z

loop_
_atom_site_label
_atom_site_type_symbol
_atom_site_fract_x
_atom_site_fract_y
_atom_site_fract_z
_atom_site_charge
Cu	Cu	0.75056 0.20358 0.48505 0.94800
Cu	Cu	0.73979 0.04573 0.49924 0.94800
O 	O 	0.89475 0.15421 0.61392 -0.25700
O 	O 	0.85275 0.09016 0.62874 -0.29100
O 	O 	0.62200 0.15999 0.36281 -0.28900
O 	O 	0.61334 0.09481 0.34448 -0.25300
O 	O 	0.62451 0.20661 0.64767 -0.27300
O 	O 	0.59380 0.24885 0.83130 -0.24700
O 	O 	0.87709 0.24604 0.62152 -0.29200
O 	O 	0.86310 0.28759 0.81501 -0.28600
O 	O 	0.90827 0.04046 0.38243 -0.27400
O 	O 	0.09040 0.99900 0.34630 -0.24800
O 	O 	0.57127 0.04165 0.61610 -0.28100
O 	O 	0.38000 0.99929 0.62764 -0.29000
C 	C 	0.81960 0.12345 0.56470 0.22900
C 	C 	0.67130 0.12595 0.40980 0.23100
C 	C 	0.81460 0.25882 0.72460 0.23900
C 	C 	0.66440 0.23659 0.73790 0.21500
C 	C 	0.00080 0.01101 0.42170 0.22900
C 	C 	0.48570 0.01186 0.57060 0.22600
Cu	Cu	0.24944 0.70358 0.01495 0.94300
Cu	Cu	0.26021 0.54573 0.00076 0.94700
O 	O 	0.10525 0.65421 0.88608 -0.25200
O 	O 	0.14725 0.59016 0.87126 -0.28900
O 	O 	0.37800 0.65999 0.13719 -0.29000
O 	O 	0.38666 0.59481 0.15552 -0.25300
O 	O 	0.37549 0.70661 0.85233 -0.26600
O 	O 	0.40620 0.74885 0.66870 -0.24200
O 	O 	0.12291 0.74604 0.87848 -0.28300
O 	O 	0.13690 0.78759 0.68499 -0.28100
O 	O 	0.09173 0.54046 0.11757 -0.27900
O 	O 	0.90960 0.49900 0.15370 -0.24800
O 	O 	0.42873 0.54165 0.88390 -0.27800
O 	O 	0.62000 0.49929 0.87236 -0.29000
C 	C 	0.18040 0.62345 0.93530 0.24000
C 	C 	0.32870 0.62595 0.09020 0.22000
C 	C 	0.18540 0.75882 0.77540 0.24000
C 	C 	0.33560 0.73659 0.76210 0.21600
C 	C 	0.99920 0.51101 0.07830 0.23400
C 	C 	0.51430 0.51186 0.92940 0.22600
Cu	Cu	0.24944 0.79642 0.51495 0.94900
Cu	Cu	0.26021 0.95427 0.50076 0.94900
O 	O 	0.10525 0.84579 0.38608 -0.25700
O 	O 	0.14725 0.90984 0.37126 -0.29100
O 	O 	0.37800 0.84001 0.63719 -0.28900
O 	O 	0.38666 0.90519 0.65552 -0.25300
O 	O 	0.37549 0.79339 0.35233 -0.27300
O 	O 	0.40620 0.75115 0.16870 -0.24700
O 	O 	0.12291 0.75396 0.37848 -0.29200
O 	O 	0.13690 0.71241 0.18499 -0.28600
O 	O 	0.09173 0.95954 0.61757 -0.27400
O 	O 	0.90960 0.00100 0.65370 -0.24800
O 	O 	0.42873 0.95835 0.38390 -0.28100
O 	O 	0.62000 0.00071 0.37236 -0.29000
C 	C 	0.18040 0.87655 0.43530 0.22900
C 	C 	0.32870 0.87405 0.59020 0.23100
C 	C 	0.18540 0.74118 0.27540 0.23900
C 	C 	0.33560 0.76341 0.26210 0.21500
C 	C 	0.99920 0.98899 0.57830 0.22900
C 	C 	0.51430 0.98814 0.42940 0.22600
Cu	Cu	0.75056 0.29642 0.98505 0.94300
Cu	Cu	0.73979 0.45427 0.99924 0.94700
O 	O 	0.89475 0.34579 0.11392 -0.25200
O 	O 	0.85275 0.40984 0.12874 -0.28900
O 	O 	0.62200 0.34001 0.86281 -0.29000
O 	O 	0.61334 0.40519 0.84448 -0.25300
O 	O 	0.62451 0.29339 0.14767 -0.26600
O 	O 	0.59380 0.25115 0.33130 -0.24200
O 	O 	0.87709 0.25396 0.12152 -0.28300
O 	O 	0.86310 0.21241 0.31501 -0.28100
O 	O 	0.90827 0.45954 0.88243 -0.27900
O 	O 	0.09040 0.50100 0.84630 -0.24800
O 	O 	0.57127 0.45835 0.11610 -0.27800
O 	O 	0.38000 0.50071 0.12764 -0.29000
C 	C 	0.81960 0.37655 0.06470 0.24000
C 	C 	0.67130 0.37405 0.90980 0.22000
C 	C 	0.81460 0.24118 0.22460 0.24000
C 	C 	0.66440 0.26341 0.23790 0.21600
C 	C 	0.00080 0.48899 0.92170 0.23400
C 	C 	0.48570 0.48814 0.07060 0.22600
