data_crystal

_cell_length_a 8.69260
_cell_length_b 34.15640
_cell_length_c 8.59560
_cell_angle_alpha 90.00000
_cell_angle_beta  107.60300
_cell_angle_gamma 90.00000

_symmetry_space_group_name_	'P 1'
_symmetry_space_group_name_H-M	'P 1'

loop_
_symmetry_equiv_pos_as_xyz
  x,y,z

loop_
_atom_site_label
_atom_site_type_symbol
_atom_site_fract_x
_atom_site_fract_y
_atom_site_fract_z
_atom_site_charge
Cu	Cu	0.74841 0.20344 0.47899 0.95000
Cu	Cu	0.73767 0.04553 0.49829 0.94900
O 	O 	0.89598 0.15353 0.60962 -0.25200
O 	O 	0.84743 0.09004 0.62837 -0.29000
O 	O 	0.62062 0.16002 0.35709 -0.28800
O 	O 	0.61134 0.09508 0.33619 -0.24700
O 	O 	0.62325 0.20576 0.63985 -0.27800
O 	O 	0.58553 0.24813 0.82180 -0.24100
O 	O 	0.87358 0.24633 0.61316 -0.29400
O 	O 	0.85748 0.28756 0.80797 -0.29100
O 	O 	0.90551 0.04094 0.38551 -0.28100
O 	O 	0.08821 0.00021 0.34207 -0.24200
O 	O 	0.56945 0.04237 0.61234 -0.28500
O 	O 	0.37793 0.00019 0.62780 -0.28700
C 	C 	0.81770 0.12317 0.56150 0.22800
C 	C 	0.66930 0.12592 0.40400 0.23100
C 	C 	0.81020 0.25863 0.71720 0.24000
C 	C 	0.65910 0.23604 0.72990 0.21300
C 	C 	0.99980 0.01142 0.42130 0.22900
C 	C 	0.48470 0.01231 0.56900 0.22100
Cu	Cu	0.25159 0.70344 0.02101 0.94300
Cu	Cu	0.26233 0.54553 0.00171 0.94700
O 	O 	0.10402 0.65353 0.89038 -0.24700
O 	O 	0.15257 0.59004 0.87163 -0.28800
O 	O 	0.37938 0.66002 0.14291 -0.29000
O 	O 	0.38866 0.59508 0.16381 -0.24700
O 	O 	0.37675 0.70576 0.86015 -0.27100
O 	O 	0.41447 0.74813 0.67820 -0.23500
O 	O 	0.12642 0.74633 0.88684 -0.28400
O 	O 	0.14252 0.78756 0.69203 -0.28500
O 	O 	0.09449 0.54094 0.11449 -0.28400
O 	O 	0.91179 0.50021 0.15793 -0.23700
O 	O 	0.43055 0.54237 0.88766 -0.28200
O 	O 	0.62207 0.50019 0.87220 -0.28700
C 	C 	0.18230 0.62317 0.93850 0.24000
C 	C 	0.33070 0.62592 0.09600 0.21900
C 	C 	0.18980 0.75863 0.78280 0.24100
C 	C 	0.34090 0.73604 0.77010 0.21500
C 	C 	0.00020 0.51142 0.07870 0.22600
C 	C 	0.51530 0.51231 0.93100 0.22100
Cu	Cu	0.25159 0.79656 0.52101 0.95000
Cu	Cu	0.26233 0.95447 0.50171 0.94900
O 	O 	0.10402 0.84647 0.39038 -0.25200
O 	O 	0.15257 0.90996 0.37163 -0.29000
O 	O 	0.37938 0.83998 0.64291 -0.28800
O 	O 	0.38866 0.90492 0.66381 -0.24700
O 	O 	0.37675 0.79424 0.36015 -0.27800
O 	O 	0.41447 0.75187 0.17820 -0.24100
O 	O 	0.12642 0.75367 0.38684 -0.29400
O 	O 	0.14252 0.71244 0.19203 -0.29100
O 	O 	0.09449 0.95906 0.61449 -0.28100
O 	O 	0.91179 0.99979 0.65793 -0.24200
O 	O 	0.43055 0.95763 0.38766 -0.28500
O 	O 	0.62207 0.99981 0.37220 -0.28700
C 	C 	0.18230 0.87683 0.43850 0.22800
C 	C 	0.33070 0.87408 0.59600 0.23100
C 	C 	0.18980 0.74137 0.28280 0.24000
C 	C 	0.34090 0.76396 0.27010 0.21300
C 	C 	0.00020 0.98858 0.57870 0.22900
C 	C 	0.51530 0.98769 0.43100 0.22100
Cu	Cu	0.74841 0.29656 0.97899 0.94300
Cu	Cu	0.73767 0.45447 0.99829 0.94700
O 	O 	0.89598 0.34647 0.10962 -0.24700
O 	O 	0.84743 0.40996 0.12837 -0.28800
O 	O 	0.62062 0.33998 0.85709 -0.29000
O 	O 	0.61134 0.40492 0.83619 -0.24700
O 	O 	0.62325 0.29424 0.13985 -0.27100
O 	O 	0.58553 0.25187 0.32180 -0.23500
O 	O 	0.87358 0.25367 0.11316 -0.28400
O 	O 	0.85748 0.21244 0.30797 -0.28500
O 	O 	0.90551 0.45906 0.88551 -0.28400
O 	O 	0.08821 0.49979 0.84207 -0.23700
O 	O 	0.56945 0.45763 0.11234 -0.28200
O 	O 	0.37793 0.49981 0.12780 -0.28700
C 	C 	0.81770 0.37683 0.06150 0.24000
C 	C 	0.66930 0.37408 0.90400 0.21900
C 	C 	0.81020 0.24137 0.21720 0.24100
C 	C 	0.65910 0.26396 0.22990 0.21500
C 	C 	0.99980 0.48858 0.92130 0.22600
C 	C 	0.48470 0.48769 0.06900 0.22100
