data_crystal

_cell_length_a 8.77340
_cell_length_b 33.89440
_cell_length_c 8.72810
_cell_angle_alpha 90.00000
_cell_angle_beta  107.79700
_cell_angle_gamma 90.00000

_symmetry_space_group_name_	'P 1'
_symmetry_space_group_name_H-M	'P 1'

loop_
_symmetry_equiv_pos_as_xyz
  x,y,z

loop_
_atom_site_label
_atom_site_type_symbol
_atom_site_fract_x
_atom_site_fract_y
_atom_site_fract_z
_atom_site_charge
Cu	Cu	0.75056 0.20372 0.48856 0.95000
Cu	Cu	0.74113 0.04579 0.50020 0.94900
O 	O 	0.89244 0.15477 0.61621 -0.26000
O 	O 	0.85556 0.09036 0.62930 -0.28900
O 	O 	0.62154 0.15983 0.36632 -0.28800
O 	O 	0.61490 0.09454 0.34932 -0.25800
O 	O 	0.62403 0.20725 0.65175 -0.27000
O 	O 	0.59784 0.24939 0.83652 -0.25100
O 	O 	0.87777 0.24605 0.62641 -0.29200
O 	O 	0.86507 0.28762 0.81910 -0.28200
O 	O 	0.90992 0.04026 0.38102 -0.27200
O 	O 	0.09150 0.99841 0.34870 -0.25400
O 	O 	0.57251 0.04115 0.61871 -0.27800
O 	O 	0.38116 0.99889 0.62720 -0.29100
C 	C 	0.82020 0.12374 0.56670 0.23000
C 	C 	0.67140 0.12590 0.41310 0.23400
C 	C 	0.81630 0.25898 0.72900 0.24000
C 	C 	0.66620 0.23696 0.74240 0.21800
C 	C 	0.00190 0.01076 0.42170 0.23100
C 	C 	0.48660 0.01163 0.57130 0.22800
Cu	Cu	0.24944 0.70372 0.01144 0.94600
Cu	Cu	0.25887 0.54579 0.99980 0.94900
O 	O 	0.10756 0.65477 0.88379 -0.25800
O 	O 	0.14444 0.59036 0.87070 -0.29000
O 	O 	0.37846 0.65983 0.13368 -0.29000
O 	O 	0.38510 0.59454 0.15068 -0.25900
O 	O 	0.37597 0.70725 0.84825 -0.26700
O 	O 	0.40216 0.74939 0.66348 -0.24800
O 	O 	0.12223 0.74605 0.87359 -0.28800
O 	O 	0.13493 0.78762 0.68090 -0.28000
O 	O 	0.09008 0.54026 0.11898 -0.27200
O 	O 	0.90850 0.49841 0.15130 -0.25400
O 	O 	0.42749 0.54115 0.88129 -0.27700
O 	O 	0.61884 0.49889 0.87280 -0.29000
C 	C 	0.17980 0.62374 0.93330 0.23500
C 	C 	0.32860 0.62590 0.08690 0.23000
C 	C 	0.18370 0.75898 0.77100 0.24100
C 	C 	0.33380 0.73696 0.75760 0.21900
C 	C 	0.99810 0.51076 0.07830 0.23200
C 	C 	0.51340 0.51163 0.92870 0.22900
Cu	Cu	0.24944 0.79628 0.51144 0.94900
Cu	Cu	0.25887 0.95421 0.49980 0.94800
O 	O 	0.10756 0.84523 0.38379 -0.26100
O 	O 	0.14444 0.90964 0.37070 -0.29000
O 	O 	0.37846 0.84017 0.63368 -0.28900
O 	O 	0.38510 0.90546 0.65068 -0.25900
O 	O 	0.37597 0.79275 0.34825 -0.27000
O 	O 	0.40216 0.75061 0.16348 -0.25100
O 	O 	0.12223 0.75395 0.37359 -0.29200
O 	O 	0.13493 0.71238 0.18090 -0.28200
O 	O 	0.09008 0.95974 0.61898 -0.27200
O 	O 	0.90850 0.00159 0.65130 -0.25400
O 	O 	0.42749 0.95885 0.38129 -0.27800
O 	O 	0.61884 0.00111 0.37280 -0.29100
C 	C 	0.17980 0.87626 0.43330 0.23000
C 	C 	0.32860 0.87410 0.58690 0.23400
C 	C 	0.18370 0.74102 0.27100 0.24000
C 	C 	0.33380 0.76304 0.25760 0.21800
C 	C 	0.99810 0.98924 0.57830 0.23100
C 	C 	0.51340 0.98837 0.42870 0.22800
Cu	Cu	0.75056 0.29628 0.98856 0.94600
Cu	Cu	0.74113 0.45421 0.00020 0.94900
O 	O 	0.89244 0.34523 0.11621 -0.25800
O 	O 	0.85556 0.40964 0.12930 -0.29000
O 	O 	0.62154 0.34017 0.86632 -0.29000
O 	O 	0.61490 0.40546 0.84932 -0.25900
O 	O 	0.62403 0.29275 0.15175 -0.26700
O 	O 	0.59784 0.25061 0.33652 -0.24800
O 	O 	0.87777 0.25395 0.12641 -0.28800
O 	O 	0.86507 0.21238 0.31910 -0.28000
O 	O 	0.90992 0.45974 0.88102 -0.27200
O 	O 	0.09150 0.50159 0.84870 -0.25400
O 	O 	0.57251 0.45885 0.11871 -0.27700
O 	O 	0.38116 0.50111 0.12720 -0.29000
C 	C 	0.82020 0.37626 0.06670 0.23500
C 	C 	0.67140 0.37410 0.91310 0.23000
C 	C 	0.81630 0.24102 0.22900 0.24100
C 	C 	0.66620 0.26304 0.24240 0.21900
C 	C 	0.00190 0.48924 0.92170 0.23200
C 	C 	0.48660 0.48837 0.07130 0.22900
