data_crystal

_cell_length_a 14.05630
_cell_length_b 14.05630
_cell_length_c 14.05630
_cell_angle_alpha 90.00000
_cell_angle_beta  90.00000
_cell_angle_gamma 90.00000

_symmetry_space_group_name_	'P 1'
_symmetry_space_group_name_H-M	'P 1'

loop_
_symmetry_equiv_pos_as_xyz
  x,y,z

loop_
_atom_site_label
_atom_site_type_symbol
_atom_site_fract_x
_atom_site_fract_y
_atom_site_fract_z
_atom_site_charge
O 	O 	0.76405 0.27206 0.36247 -0.71900
O 	O 	0.90284 0.27724 0.23452 -0.69600
C 	C 	0.79940 0.26610 0.52630 -0.89200
H 	H 	0.83730 0.31190 0.56250 0.25600
H 	H 	0.80880 0.20220 0.55250 0.25800
H 	H 	0.73190 0.28320 0.53050 0.27200
C 	C 	0.82990 0.26741 0.42436 0.60100
C 	C 	0.92690 0.26360 0.39931 -0.52800
C 	C 	0.95929 0.26973 0.30430 0.59800
C 	C 	0.06320 0.26780 0.28130 -0.87600
H 	H 	0.10010 0.26850 0.34040 0.25100
H 	H 	0.07960 0.32370 0.24300 0.26700
H 	H 	0.07800 0.20990 0.24530 0.26500
C 	C 	0.99490 0.26260 0.47450 0.19900
N 	N 	0.04734 0.26340 0.53684 -0.24400
O 	O 	0.73595 0.72794 0.86247 -0.71800
O 	O 	0.59716 0.72276 0.73452 -0.69500
C 	C 	0.70060 0.73390 0.02630 -0.89100
H 	H 	0.66270 0.68810 0.06250 0.25700
H 	H 	0.69120 0.79780 0.05250 0.25900
H 	H 	0.76810 0.71680 0.03050 0.27200
C 	C 	0.67010 0.73259 0.92436 0.60100
C 	C 	0.57310 0.73640 0.89931 -0.52800
C 	C 	0.54071 0.73027 0.80430 0.59900
C 	C 	0.43680 0.73220 0.78130 -0.87600
H 	H 	0.39990 0.73150 0.84040 0.25100
H 	H 	0.42040 0.67630 0.74300 0.26700
H 	H 	0.42200 0.79010 0.74530 0.26500
C 	C 	0.50510 0.73740 0.97450 0.19900
N 	N 	0.45266 0.73660 0.03684 -0.24400
O 	O 	0.23595 0.77206 0.13753 -0.71800
O 	O 	0.09716 0.77724 0.26548 -0.69500
C 	C 	0.20060 0.76610 0.97370 -0.89200
H 	H 	0.16270 0.81190 0.93750 0.25800
H 	H 	0.19120 0.70220 0.94750 0.26000
H 	H 	0.26810 0.78320 0.96950 0.27300
C 	C 	0.17010 0.76741 0.07564 0.60200
C 	C 	0.07310 0.76360 0.10069 -0.52900
C 	C 	0.04071 0.76973 0.19570 0.59900
C 	C 	0.93680 0.76780 0.21870 -0.87700
H 	H 	0.89990 0.76850 0.15960 0.25100
H 	H 	0.92040 0.82370 0.25700 0.26700
H 	H 	0.92200 0.70990 0.25470 0.26500
C 	C 	0.00510 0.76260 0.02550 0.20000
N 	N 	0.95266 0.76340 0.96316 -0.24500
O 	O 	0.26405 0.22794 0.63753 -0.71800
O 	O 	0.40284 0.22276 0.76548 -0.69500
C 	C 	0.29940 0.23390 0.47370 -0.89200
H 	H 	0.33730 0.18810 0.43750 0.25800
H 	H 	0.30880 0.29780 0.44750 0.26000
H 	H 	0.23190 0.21680 0.46950 0.27300
C 	C 	0.32990 0.23259 0.57564 0.60100
C 	C 	0.42690 0.23640 0.60069 -0.52900
C 	C 	0.45929 0.23027 0.69570 0.59900
C 	C 	0.56320 0.23220 0.71870 -0.87700
H 	H 	0.60010 0.23150 0.65960 0.25100
H 	H 	0.57960 0.17630 0.75700 0.26700
H 	H 	0.57800 0.29010 0.75470 0.26500
C 	C 	0.49490 0.23740 0.52550 0.19900
N 	N 	0.54734 0.23660 0.46316 -0.24500
O 	O 	0.36247 0.76405 0.27206 -0.71800
O 	O 	0.23452 0.90284 0.27724 -0.69500
C 	C 	0.52630 0.79940 0.26610 -0.89100
H 	H 	0.56250 0.83730 0.31190 0.25700
H 	H 	0.55250 0.80880 0.20220 0.25900
H 	H 	0.53050 0.73190 0.28320 0.27200
C 	C 	0.42436 0.82990 0.26741 0.60100
C 	C 	0.39931 0.92690 0.26360 -0.52800
C 	C 	0.30430 0.95929 0.26973 0.59800
C 	C 	0.28130 0.06320 0.26780 -0.87600
H 	H 	0.34040 0.10010 0.26850 0.25100
H 	H 	0.24300 0.07960 0.32370 0.26700
H 	H 	0.24530 0.07800 0.20990 0.26500
C 	C 	0.47450 0.99490 0.26260 0.19900
N 	N 	0.53684 0.04734 0.26340 -0.24400
O 	O 	0.86247 0.73595 0.72794 -0.71800
O 	O 	0.73452 0.59716 0.72276 -0.69500
C 	C 	0.02630 0.70060 0.73390 -0.89100
H 	H 	0.06250 0.66270 0.68810 0.25700
H 	H 	0.05250 0.69120 0.79780 0.25900
H 	H 	0.03050 0.76810 0.71680 0.27200
C 	C 	0.92436 0.67010 0.73259 0.60100
C 	C 	0.89931 0.57310 0.73640 -0.52800
C 	C 	0.80430 0.54071 0.73027 0.59900
C 	C 	0.78130 0.43680 0.73220 -0.87600
H 	H 	0.84040 0.39990 0.73150 0.25100
H 	H 	0.74300 0.42040 0.67630 0.26700
H 	H 	0.74530 0.42200 0.79010 0.26500
C 	C 	0.97450 0.50510 0.73740 0.19900
N 	N 	0.03684 0.45266 0.73660 -0.24400
O 	O 	0.13753 0.23595 0.77206 -0.71800
O 	O 	0.26548 0.09716 0.77724 -0.69500
C 	C 	0.97370 0.20060 0.76610 -0.89200
H 	H 	0.93750 0.16270 0.81190 0.25800
H 	H 	0.94750 0.19120 0.70220 0.26000
H 	H 	0.96950 0.26810 0.78320 0.27300
C 	C 	0.07564 0.17010 0.76741 0.60200
C 	C 	0.10069 0.07310 0.76360 -0.52900
C 	C 	0.19570 0.04071 0.76973 0.59900
C 	C 	0.21870 0.93680 0.76780 -0.87700
H 	H 	0.15960 0.89990 0.76850 0.25100
H 	H 	0.25700 0.92040 0.82370 0.26700
H 	H 	0.25470 0.92200 0.70990 0.26500
C 	C 	0.02550 0.00510 0.76260 0.20000
N 	N 	0.96316 0.95266 0.76340 -0.24500
O 	O 	0.63753 0.26405 0.22794 -0.71800
O 	O 	0.76548 0.40284 0.22276 -0.69500
C 	C 	0.47370 0.29940 0.23390 -0.89200
H 	H 	0.43750 0.33730 0.18810 0.25800
H 	H 	0.44750 0.30880 0.29780 0.26000
H 	H 	0.46950 0.23190 0.21680 0.27300
C 	C 	0.57564 0.32990 0.23259 0.60100
C 	C 	0.60069 0.42690 0.23640 -0.52900
C 	C 	0.69570 0.45929 0.23027 0.59900
C 	C 	0.71870 0.56320 0.23220 -0.87700
H 	H 	0.65960 0.60010 0.23150 0.25100
H 	H 	0.75700 0.57960 0.17630 0.26700
H 	H 	0.75470 0.57800 0.29010 0.26500
C 	C 	0.52550 0.49490 0.23740 0.19900
N 	N 	0.46316 0.54734 0.23660 -0.24500
O 	O 	0.27206 0.36247 0.76405 -0.71800
O 	O 	0.27724 0.23452 0.90284 -0.69500
C 	C 	0.26610 0.52630 0.79940 -0.89100
H 	H 	0.31190 0.56250 0.83730 0.25700
H 	H 	0.20220 0.55250 0.80880 0.25900
H 	H 	0.28320 0.53050 0.73190 0.27200
C 	C 	0.26741 0.42436 0.82990 0.60100
C 	C 	0.26360 0.39931 0.92690 -0.52800
C 	C 	0.26973 0.30430 0.95929 0.59800
C 	C 	0.26780 0.28130 0.06320 -0.87600
H 	H 	0.26850 0.34040 0.10010 0.25100
H 	H 	0.32370 0.24300 0.07960 0.26700
H 	H 	0.20990 0.24530 0.07800 0.26500
C 	C 	0.26260 0.47450 0.99490 0.19900
N 	N 	0.26340 0.53684 0.04734 -0.24400
O 	O 	0.72794 0.86247 0.73595 -0.71800
O 	O 	0.72276 0.73452 0.59716 -0.69500
C 	C 	0.73390 0.02630 0.70060 -0.89100
H 	H 	0.68810 0.06250 0.66270 0.25700
H 	H 	0.79780 0.05250 0.69120 0.25900
H 	H 	0.71680 0.03050 0.76810 0.27200
C 	C 	0.73259 0.92436 0.67010 0.60100
C 	C 	0.73640 0.89931 0.57310 -0.52800
C 	C 	0.73027 0.80430 0.54071 0.59900
C 	C 	0.73220 0.78130 0.43680 -0.87600
H 	H 	0.73150 0.84040 0.39990 0.25100
H 	H 	0.67630 0.74300 0.42040 0.26700
H 	H 	0.79010 0.74530 0.42200 0.26500
C 	C 	0.73740 0.97450 0.50510 0.19900
N 	N 	0.73660 0.03684 0.45266 -0.24400
O 	O 	0.77206 0.13753 0.23595 -0.71800
O 	O 	0.77724 0.26548 0.09716 -0.69500
C 	C 	0.76610 0.97370 0.20060 -0.89200
H 	H 	0.81190 0.93750 0.16270 0.25800
H 	H 	0.70220 0.94750 0.19120 0.26000
H 	H 	0.78320 0.96950 0.26810 0.27300
C 	C 	0.76741 0.07564 0.17010 0.60200
C 	C 	0.76360 0.10069 0.07310 -0.52900
C 	C 	0.76973 0.19570 0.04071 0.59900
C 	C 	0.76780 0.21870 0.93680 -0.87700
H 	H 	0.76850 0.15960 0.89990 0.25100
H 	H 	0.82370 0.25700 0.92040 0.26700
H 	H 	0.70990 0.25470 0.92200 0.26500
C 	C 	0.76260 0.02550 0.00510 0.20000
N 	N 	0.76340 0.96316 0.95266 -0.24500
O 	O 	0.22794 0.63753 0.26405 -0.71800
O 	O 	0.22276 0.76548 0.40284 -0.69500
C 	C 	0.23390 0.47370 0.29940 -0.89200
H 	H 	0.18810 0.43750 0.33730 0.25800
H 	H 	0.29780 0.44750 0.30880 0.26000
H 	H 	0.21680 0.46950 0.23190 0.27300
C 	C 	0.23259 0.57564 0.32990 0.60100
C 	C 	0.23640 0.60069 0.42690 -0.52900
C 	C 	0.23027 0.69570 0.45929 0.59900
C 	C 	0.23220 0.71870 0.56320 -0.87700
H 	H 	0.23150 0.65960 0.60010 0.25100
H 	H 	0.17630 0.75700 0.57960 0.26700
H 	H 	0.29010 0.75470 0.57800 0.26500
C 	C 	0.23740 0.52550 0.49490 0.19900
N 	N 	0.23660 0.46316 0.54734 -0.24500
Ag	Ag	0.12590 0.37410 0.62590 0.54700
Ag	Ag	0.37410 0.62590 0.12590 0.54700
Ag	Ag	0.87410 0.87410 0.87410 0.54700
Ag	Ag	0.62590 0.12590 0.37410 0.54700
Al	Al	0.77064 0.27064 0.22936 2.40100
Al	Al	0.72936 0.72936 0.72936 2.40100
Al	Al	0.22936 0.77064 0.27064 2.40100
Al	Al	0.27064 0.22936 0.77064 2.40100
