data_crystal

_cell_length_a 6.68200
_cell_length_b 18.44600
_cell_length_c 8.47700
_cell_angle_alpha 90.00000
_cell_angle_beta  90.00000
_cell_angle_gamma 90.00000

_symmetry_space_group_name_	'P 1'
_symmetry_space_group_name_H-M	'P 1'

loop_
_symmetry_equiv_pos_as_xyz
  x,y,z

loop_
_atom_site_label
_atom_site_type_symbol
_atom_site_fract_x
_atom_site_fract_y
_atom_site_fract_z
_atom_site_charge
C 	C 	0.73400 0.74400 0.02640 0.46200
H 	H 	0.71260 0.78270 0.95820 -0.07300
O 	O 	0.33580 0.90537 0.26900 -0.43500
O 	O 	0.98640 0.95020 0.43170 -0.10900
O 	O 	0.81930 0.75750 0.15260 -0.37800
O 	O 	0.67420 0.68314 0.98220 -0.39300
C 	C 	0.23400 0.24400 0.02640 0.47200
H 	H 	0.21260 0.28270 0.95820 -0.12600
O 	O 	0.83580 0.40537 0.26900 -0.30900
O 	O 	0.48640 0.45020 0.43170 -0.54600
O 	O 	0.31930 0.25750 0.15260 -0.49900
O 	O 	0.17420 0.18314 0.98220 -0.42100
C 	C 	0.26600 0.25600 0.52640 0.61500
H 	H 	0.28740 0.21730 0.45820 -0.19500
O 	O 	0.66420 0.09463 0.76900 -0.40200
O 	O 	0.01360 0.04980 0.93170 -0.69300
O 	O 	0.18070 0.24250 0.65260 -0.52900
O 	O 	0.32580 0.31686 0.48220 -0.49900
C 	C 	0.76600 0.75600 0.52640 0.61300
H 	H 	0.78740 0.71730 0.45820 -0.14500
O 	O 	0.16420 0.59463 0.76900 -0.43300
O 	O 	0.51360 0.54980 0.93170 -0.50000
O 	O 	0.68070 0.74250 0.65260 -0.48800
O 	O 	0.82580 0.81686 0.48220 -0.39600
C 	C 	0.26600 0.74400 0.47360 0.61100
H 	H 	0.28740 0.78270 0.54180 -0.18500
O 	O 	0.66420 0.90537 0.23100 -0.39000
O 	O 	0.01360 0.95020 0.06830 -0.67200
O 	O 	0.18070 0.75750 0.34740 -0.53000
O 	O 	0.32580 0.68314 0.51780 -0.49900
C 	C 	0.76600 0.24400 0.47360 0.61100
H 	H 	0.78740 0.28270 0.54180 -0.14000
O 	O 	0.16420 0.40537 0.23100 -0.44400
O 	O 	0.51360 0.45020 0.06830 -0.53000
O 	O 	0.68070 0.25750 0.34740 -0.49500
O 	O 	0.82580 0.18314 0.51780 -0.40500
C 	C 	0.73400 0.25600 0.97360 0.75000
H 	H 	0.71260 0.21730 0.04180 -0.22000
O 	O 	0.33580 0.09463 0.73100 -0.45500
O 	O 	0.98640 0.04980 0.56830 -0.16100
O 	O 	0.81930 0.24250 0.84740 -0.44300
O 	O 	0.67420 0.31686 0.01780 -0.51800
C 	C 	0.23400 0.75600 0.97360 0.73600
H 	H 	0.21260 0.71730 0.04180 -0.25800
O 	O 	0.83580 0.59463 0.73100 -0.30300
O 	O 	0.48640 0.54980 0.56830 -0.54700
O 	O 	0.31930 0.74250 0.84740 -0.55500
O 	O 	0.17420 0.81686 0.01780 -0.52900
C 	C 	0.50000 0.87520 0.25000 0.57800
H 	H 	0.50000 0.82480 0.25000 -0.16500
C 	C 	0.00000 0.37520 0.25000 0.35900
H 	H 	0.00000 0.32480 0.25000 -0.15600
C 	C 	0.50000 0.12480 0.75000 0.58200
H 	H 	0.50000 0.17520 0.75000 -0.16200
C 	C 	0.00000 0.62480 0.75000 0.35600
H 	H 	0.00000 0.67520 0.75000 -0.15000
C 	C 	0.07390 0.00000 0.50000 -0.05300
H 	H 	0.21310 0.00000 0.50000 0.04100
C 	C 	0.57390 0.50000 0.50000 0.72200
H 	H 	0.71310 0.50000 0.50000 -0.16300
C 	C 	0.92610 0.00000 -0.00000 1.06500
H 	H 	0.78690 0.00000 -0.00000 -0.29900
C 	C 	0.42610 0.50000 -0.00000 0.67200
H 	H 	0.28690 0.50000 -0.00000 -0.20400
Dy	Dy	0.00000 0.85736 0.25000 1.79700
Dy	Dy	0.50000 0.35736 0.25000 2.17500
Dy	Dy	0.00000 0.14264 0.75000 1.79900
Dy	Dy	0.50000 0.64264 0.75000 2.18400
