data_crystal

_cell_length_a 6.68370
_cell_length_b 18.46840
_cell_length_c 8.47590
_cell_angle_alpha 90.00000
_cell_angle_beta  90.00000
_cell_angle_gamma 90.00000

_symmetry_space_group_name_	'P 1'
_symmetry_space_group_name_H-M	'P 1'

loop_
_symmetry_equiv_pos_as_xyz
  x,y,z

loop_
_atom_site_label
_atom_site_type_symbol
_atom_site_fract_x
_atom_site_fract_y
_atom_site_fract_z
_atom_site_charge
O 	O 	0.51210 0.95002 0.06930 -0.45500
O 	O 	0.83630 0.90585 0.27160 -0.28700
O 	O 	0.82020 0.74263 0.84710 -0.43800
O 	O 	0.67510 0.81686 0.01780 -0.52100
C 	C 	0.73560 0.75720 0.97490 0.75100
H 	H 	0.71640 0.71890 0.04450 -0.21600
O 	O 	0.01210 0.45002 0.06930 -0.74400
O 	O 	0.33630 0.40585 0.27160 -0.44300
O 	O 	0.32020 0.24263 0.84710 -0.55500
O 	O 	0.17510 0.31686 0.01780 -0.55000
C 	C 	0.23560 0.25720 0.97490 0.75400
H 	H 	0.21640 0.21890 0.04450 -0.26500
O 	O 	0.48790 0.04998 0.56930 -0.52700
O 	O 	0.16370 0.09415 0.77160 -0.43400
O 	O 	0.17980 0.25737 0.34710 -0.53100
O 	O 	0.32490 0.18314 0.51780 -0.51200
C 	C 	0.26440 0.24280 0.47490 0.62100
H 	H 	0.28360 0.28110 0.54450 -0.19100
O 	O 	0.98790 0.54998 0.56930 -0.17900
O 	O 	0.66370 0.59415 0.77160 -0.38500
O 	O 	0.67980 0.75737 0.34710 -0.48700
O 	O 	0.82490 0.68314 0.51780 -0.41100
C 	C 	0.76440 0.74280 0.47490 0.61500
H 	H 	0.78360 0.78110 0.54450 -0.13800
O 	O 	0.48790 0.95002 0.43070 -0.47000
O 	O 	0.16370 0.90585 0.22840 -0.42000
O 	O 	0.17980 0.74263 0.65290 -0.52500
O 	O 	0.32490 0.81686 0.48220 -0.50300
C 	C 	0.26440 0.75720 0.52510 0.62300
H 	H 	0.28360 0.71890 0.45550 -0.19600
O 	O 	0.98790 0.45002 0.43070 -0.17900
O 	O 	0.66370 0.40585 0.22840 -0.39800
O 	O 	0.67980 0.24263 0.65290 -0.48600
O 	O 	0.82490 0.31686 0.48220 -0.41200
C 	C 	0.76440 0.25720 0.52510 0.62000
H 	H 	0.78360 0.21890 0.45550 -0.14900
O 	O 	0.51210 0.04998 0.93070 -0.48000
O 	O 	0.83630 0.09415 0.72840 -0.30600
O 	O 	0.82020 0.25737 0.15290 -0.37900
O 	O 	0.67510 0.18314 0.98220 -0.40000
C 	C 	0.73560 0.24280 0.02510 0.46400
H 	H 	0.71640 0.28110 0.95550 -0.07300
O 	O 	0.01210 0.54998 0.93070 -0.71800
O 	O 	0.33630 0.59415 0.72840 -0.44000
O 	O 	0.32020 0.75737 0.15290 -0.49500
O 	O 	0.17510 0.68314 0.98220 -0.43000
C 	C 	0.23560 0.74280 0.02510 0.48600
H 	H 	0.21640 0.78110 0.95550 -0.12800
Dy	Dy	0.50000 0.85736 0.25000 2.16500
Dy	Dy	-0.00000 0.35736 0.25000 1.81000
Dy	Dy	0.50000 0.14264 0.75000 2.16200
Dy	Dy	0.00000 0.64264 0.75000 1.81500
C 	C 	0.42600 0.00000 -0.00000 0.54900
H 	H 	0.28680 0.00000 -0.00000 -0.18100
C 	C 	0.92600 0.50000 -0.00000 1.17600
H 	H 	0.78680 0.50000 -0.00000 -0.31400
C 	C 	0.57400 0.00000 0.50000 0.60100
H 	H 	0.71320 0.00000 0.50000 -0.14200
C 	C 	0.07400 0.50000 0.50000 0.05200
H 	H 	0.21320 0.50000 0.50000 0.02500
C 	C 	-0.00000 0.87530 0.25000 0.34300
H 	H 	-0.00000 0.82490 0.25000 -0.14900
C 	C 	0.50000 0.37530 0.25000 0.56500
H 	H 	0.50000 0.32490 0.25000 -0.16200
C 	C 	0.00000 0.12470 0.75000 0.34300
H 	H 	0.00000 0.17510 0.75000 -0.14600
C 	C 	0.50000 0.62470 0.75000 0.56700
H 	H 	0.50000 0.67510 0.75000 -0.15700
