data_crystal

_cell_length_a 12.79490
_cell_length_b 8.25820
_cell_length_c 18.20060
_cell_angle_alpha 90.00000
_cell_angle_beta  107.77800
_cell_angle_gamma 90.00000

_symmetry_space_group_name_	'P 1'
_symmetry_space_group_name_H-M	'P 1'

loop_
_symmetry_equiv_pos_as_xyz
  x,y,z

loop_
_atom_site_label
_atom_site_type_symbol
_atom_site_fract_x
_atom_site_fract_y
_atom_site_fract_z
_atom_site_charge
Co	Co	0.25856 0.80963 0.55834 1.17400
O 	O 	0.41652 0.75540 0.56480 -0.34800
O 	O 	0.44277 0.49930 0.60903 -0.23500
O 	O 	0.61079 0.75380 0.53536 -0.13300
O 	O 	0.26889 0.66110 0.18659 -0.33000
O 	O 	0.11813 0.62870 0.08973 -0.54300
O 	O 	0.70204 0.95090 0.45467 -0.32700
O 	O 	0.19615 0.78840 0.44080 -0.40200
O 	O 	0.14888 0.70520 0.28856 -0.11600
O 	O 	0.87151 0.85880 0.51962 -0.35300
O 	O 	0.01528 0.82840 0.42325 -0.44200
C 	C 	0.47300 0.62780 0.58428 0.29200
C 	C 	0.58630 0.63220 0.57905 0.06400
C 	C 	0.67590 0.54370 0.61170 -0.05700
H 	H 	0.68010 0.45390 0.64330 0.09800
C 	C 	0.76270 0.61110 0.58972 -0.03000
H 	H 	0.83510 0.57520 0.60440 0.06600
C 	C 	0.72120 0.73760 0.54331 0.03800
C 	C 	0.16710 0.64570 0.16198 0.33000
C 	C 	0.09810 0.66320 0.21312 -0.08100
C 	C 	0.98800 0.66240 0.19849 0.05700
H 	H 	0.93570 0.63680 0.15190 0.04400
C 	C 	0.96790 0.70810 0.26766 0.06100
H 	H 	0.89960 0.71940 0.27530 0.05200
C 	C 	0.06670 0.73250 0.32072 -0.07500
C 	C 	0.09570 0.78770 0.40173 0.36300
C 	C 	0.76910 0.85810 0.50270 0.32300
Co	Co	0.74144 0.30963 0.94166 1.17700
O 	O 	0.58348 0.25540 0.93520 -0.33000
O 	O 	0.55723 0.99930 0.89097 -0.16500
O 	O 	0.38921 0.25380 0.96464 -0.12400
O 	O 	0.73111 0.16110 0.31341 -0.31800
O 	O 	0.88187 0.12870 0.41027 -0.47200
O 	O 	0.29796 0.45090 0.04533 -0.41700
O 	O 	0.80385 0.28840 0.05920 -0.41400
O 	O 	0.85112 0.20520 0.21144 -0.19600
O 	O 	0.12849 0.35880 0.98038 -0.41700
O 	O 	0.98472 0.32840 0.07675 -0.37600
C 	C 	0.52700 0.12780 0.91572 0.21500
C 	C 	0.41370 0.13220 0.92095 0.13200
C 	C 	0.32410 0.04370 0.88830 -0.21700
H 	H 	0.31990 0.95390 0.85670 0.18300
C 	C 	0.23730 0.11110 0.91028 0.06900
H 	H 	0.16490 0.07520 0.89560 0.00600
C 	C 	0.27880 0.23760 0.95669 -0.02300
C 	C 	0.83290 0.14570 0.33802 0.26300
C 	C 	0.90190 0.16320 0.28688 0.13600
C 	C 	0.01200 0.16240 0.30151 -0.15400
H 	H 	0.06430 0.13680 0.34810 0.08400
C 	C 	0.03210 0.20810 0.23234 -0.13800
H 	H 	0.10040 0.21940 0.22470 0.07800
C 	C 	0.93330 0.23250 0.17928 0.12800
C 	C 	0.90430 0.28770 0.09827 0.29200
C 	C 	0.23090 0.35810 0.99730 0.41400
Co	Co	0.74144 0.19037 0.44166 1.16300
O 	O 	0.58348 0.24460 0.43520 -0.36600
O 	O 	0.55723 0.50070 0.39097 -0.22700
O 	O 	0.38921 0.24620 0.46464 -0.14200
O 	O 	0.73111 0.33890 0.81341 -0.31300
O 	O 	0.88187 0.37130 0.91027 -0.45000
O 	O 	0.29796 0.04910 0.54533 -0.38200
O 	O 	0.80385 0.21160 0.55920 -0.39600
O 	O 	0.85112 0.29480 0.71144 -0.19500
O 	O 	0.12849 0.14120 0.48038 -0.42900
O 	O 	0.98472 0.17160 0.57675 -0.37000
C 	C 	0.52700 0.37220 0.41572 0.29000
C 	C 	0.41370 0.36780 0.42095 0.06400
C 	C 	0.32410 0.45630 0.38830 -0.07000
H 	H 	0.31990 0.54610 0.35670 0.10200
C 	C 	0.23730 0.38890 0.41028 -0.01800
H 	H 	0.16490 0.42480 0.39560 0.04500
C 	C 	0.27880 0.26240 0.45669 0.01400
C 	C 	0.83290 0.35430 0.83802 0.26300
C 	C 	0.90190 0.33680 0.78688 0.13400
C 	C 	0.01200 0.33760 0.80151 -0.14400
H 	H 	0.06430 0.36320 0.84810 0.08900
C 	C 	0.03210 0.29190 0.73234 -0.13200
H 	H 	0.10040 0.28060 0.72470 0.07900
C 	C 	0.93330 0.26750 0.67928 0.12500
C 	C 	0.90430 0.21230 0.59827 0.28900
C 	C 	0.23090 0.14190 0.49730 0.33500
Co	Co	0.25856 0.69037 0.05834 1.15900
O 	O 	0.41652 0.74460 0.06480 -0.38200
O 	O 	0.44277 0.00070 0.10903 -0.29400
O 	O 	0.61079 0.74620 0.03536 -0.15100
O 	O 	0.26889 0.83890 0.68659 -0.32300
O 	O 	0.11813 0.87130 0.58973 -0.51400
O 	O 	0.70204 0.54910 0.95467 -0.29500
O 	O 	0.19615 0.71160 0.94080 -0.37900
O 	O 	0.14888 0.79480 0.78856 -0.12100
O 	O 	0.87151 0.64120 0.01962 -0.36000
O 	O 	0.01528 0.67160 0.92325 -0.42700
C 	C 	0.47300 0.87220 0.08428 0.36000
C 	C 	0.58630 0.86780 0.07905 0.00200
C 	C 	0.67590 0.95630 0.11170 0.07500
H 	H 	0.68010 0.04610 0.14330 0.02600
C 	C 	0.76270 0.88890 0.08972 -0.10900
H 	H 	0.83510 0.92480 0.10440 0.10100
C 	C 	0.72120 0.76240 0.04331 0.07100
C 	C 	0.16710 0.85430 0.66198 0.32600
C 	C 	0.09810 0.83680 0.71312 -0.06400
C 	C 	0.98800 0.83760 0.69849 0.05000
H 	H 	0.93570 0.86320 0.65190 0.05200
C 	C 	0.96790 0.79190 0.76766 0.05300
H 	H 	0.89960 0.78060 0.77530 0.05700
C 	C 	0.06670 0.76750 0.82072 -0.06100
C 	C 	0.09570 0.71230 0.90173 0.35500
C 	C 	0.76910 0.64190 0.00270 0.24900
Co	Co	-0.00000 0.00000 0.50000 1.14300
Co	Co	-0.00000 0.50000 -0.00000 1.13700
