data_crystal

_cell_length_a 6.36320
_cell_length_b 9.49060
_cell_length_c 15.10020
_cell_angle_alpha 96.57500
_cell_angle_beta  93.09400
_cell_angle_gamma 100.22100

_symmetry_space_group_name_	'P 1'
_symmetry_space_group_name_H-M	'P 1'

loop_
_symmetry_equiv_pos_as_xyz
  x,y,z

loop_
_atom_site_label
_atom_site_type_symbol
_atom_site_fract_x
_atom_site_fract_y
_atom_site_fract_z
_atom_site_charge
Ag	Ag	0.62477 0.13980 0.98749 0.57100
Ag	Ag	0.13808 0.58685 0.57397 0.51800
Ag	Ag	0.44510 0.59046 0.41613 0.54000
Ag	Ag	0.37523 0.86020 0.01251 0.57100
Ag	Ag	0.86192 0.41315 0.42603 0.51900
Ag	Ag	0.55490 0.40954 0.58387 0.54100
H 	H 	0.17800 0.60100 0.20100 0.25200
H 	H 	0.54900 0.11000 0.42300 0.29000
H 	H 	0.11400 0.11500 0.10000 0.28800
H 	H 	0.76980 0.00320 0.26530 0.09700
H 	H 	0.77760 0.76940 0.25780 0.09800
H 	H 	0.86740 0.90580 0.39010 0.08300
H 	H 	0.18580 0.00660 0.45650 0.08900
H 	H 	0.00050 0.13670 0.38090 0.05900
H 	H 	0.01430 0.18970 0.24210 0.07400
H 	H 	0.82200 0.39900 0.79900 0.25200
H 	H 	0.45100 0.89000 0.57700 0.29000
H 	H 	0.88600 0.88500 0.90000 0.28800
H 	H 	0.23020 0.99680 0.73470 0.09700
H 	H 	0.22240 0.23060 0.74220 0.09800
H 	H 	0.13260 0.09420 0.60990 0.08300
H 	H 	0.81420 0.99340 0.54350 0.08900
H 	H 	0.99950 0.86330 0.61910 0.05900
H 	H 	0.98570 0.81030 0.75790 0.07400
C 	C 	0.88340 0.97460 0.22980 -0.09000
C 	C 	0.91800 0.83330 0.26400 -0.11100
C 	C 	0.98560 0.86480 0.36510 -0.08300
C 	C 	0.18100 0.98540 0.39130 -0.11900
C 	C 	0.13410 0.12280 0.35470 -0.07700
C 	C 	0.07220 0.10390 0.25340 -0.12300
C 	C 	0.78380 0.95270 0.13450 0.31900
C 	C 	0.06170 0.75710 0.20700 0.39400
C 	C 	0.98610 0.73120 0.41190 0.34100
C 	C 	0.39350 0.93680 0.37160 0.39700
C 	C 	0.28770 0.26320 0.38890 0.31000
C 	C 	0.26880 0.10770 0.20040 0.38700
C 	C 	0.11660 0.02540 0.77020 -0.09000
C 	C 	0.08200 0.16670 0.73600 -0.11100
C 	C 	0.01440 0.13520 0.63490 -0.08300
C 	C 	0.81900 0.01460 0.60870 -0.11900
C 	C 	0.86590 0.87720 0.64530 -0.07700
C 	C 	0.92780 0.89610 0.74660 -0.12300
C 	C 	0.21620 0.04730 0.86550 0.31900
C 	C 	0.93830 0.24290 0.79300 0.39400
C 	C 	0.01390 0.26880 0.58810 0.34100
C 	C 	0.60650 0.06320 0.62840 0.39700
C 	C 	0.71230 0.73680 0.61110 0.31000
C 	C 	0.73120 0.89230 0.79960 0.38700
O 	O 	0.83390 0.05220 0.08600 -0.34500
O 	O 	0.64650 0.84020 0.11000 -0.31000
O 	O 	0.15050 0.80930 0.14680 -0.32000
O 	O 	0.06950 0.62460 0.22500 -0.44800
O 	O 	0.12150 0.73930 0.47640 -0.38100
O 	O 	0.83930 0.62500 0.38660 -0.39200
O 	O 	0.40580 0.82070 0.33270 -0.30200
O 	O 	0.56980 0.02560 0.40730 -0.46600
O 	O 	0.43480 0.26210 0.44790 -0.38500
O 	O 	0.24930 0.37630 0.36010 -0.37900
O 	O 	0.44520 0.11510 0.23620 -0.28100
O 	O 	0.24540 0.11820 0.11440 -0.49600
O 	O 	0.16610 0.94780 0.91400 -0.34500
O 	O 	0.35350 0.15980 0.89000 -0.31000
O 	O 	0.84950 0.19070 0.85320 -0.32000
O 	O 	0.93050 0.37540 0.77500 -0.44800
O 	O 	0.87850 0.26070 0.52360 -0.38100
O 	O 	0.16070 0.37500 0.61340 -0.39200
O 	O 	0.59420 0.17930 0.66730 -0.30200
O 	O 	0.43020 0.97440 0.59270 -0.46600
O 	O 	0.56520 0.73790 0.55210 -0.38500
O 	O 	0.75070 0.62370 0.63990 -0.37900
O 	O 	0.55480 0.88490 0.76380 -0.28100
O 	O 	0.75460 0.88180 0.88560 -0.49600
