data_crystal

_cell_length_a 11.60120
_cell_length_b 11.60120
_cell_length_c 11.60120
_cell_angle_alpha 90.00000
_cell_angle_beta  90.00000
_cell_angle_gamma 90.00000

_symmetry_space_group_name_	'P 1'
_symmetry_space_group_name_H-M	'P 1'

loop_
_symmetry_equiv_pos_as_xyz
  x,y,z

loop_
_atom_site_label
_atom_site_type_symbol
_atom_site_fract_x
_atom_site_fract_y
_atom_site_fract_z
_atom_site_charge
N 	N 	0.14970 0.64310 0.32140 -0.27800
C 	C 	0.08690 0.59500 0.37880 -0.21700
N 	N 	0.35030 0.35690 0.82140 -0.27800
C 	C 	0.41310 0.40500 0.87880 -0.21700
N 	N 	0.85030 0.14310 0.17860 -0.27700
C 	C 	0.91310 0.09500 0.12120 -0.21400
N 	N 	0.64970 0.85690 0.67860 -0.27800
C 	C 	0.58690 0.90500 0.62120 -0.21900
N 	N 	0.32140 0.14970 0.64310 -0.27700
C 	C 	0.37880 0.08690 0.59500 -0.21600
N 	N 	0.82140 0.35030 0.35690 -0.27700
C 	C 	0.87880 0.41310 0.40500 -0.21700
N 	N 	0.17860 0.85030 0.14310 -0.27700
C 	C 	0.12120 0.91310 0.09500 -0.21400
N 	N 	0.67860 0.64970 0.85690 -0.27800
C 	C 	0.62120 0.58690 0.90500 -0.21900
N 	N 	0.64310 0.32140 0.14970 -0.27700
C 	C 	0.59500 0.37880 0.08690 -0.21600
N 	N 	0.35690 0.82140 0.35030 -0.27700
C 	C 	0.40500 0.87880 0.41310 -0.21700
N 	N 	0.14310 0.17860 0.85030 -0.27700
C 	C 	0.09500 0.12120 0.91310 -0.21400
N 	N 	0.85690 0.67860 0.64970 -0.27800
C 	C 	0.90500 0.62120 0.58690 -0.21900
C 	C 	0.41620 0.58380 0.08380 -0.21900
Cu	Cu	0.51310 0.48690 0.98690 0.82500
Zn	Zn	0.26113 0.73887 0.23887 1.15500
N 	N 	0.35870 0.64130 0.14130 -0.27700
C 	C 	0.08380 0.41620 0.58380 -0.21900
Cu	Cu	0.98690 0.51310 0.48690 0.82500
Zn	Zn	0.23887 0.26113 0.73887 1.15500
N 	N 	0.14130 0.35870 0.64130 -0.27700
C 	C 	0.58380 0.08380 0.41620 -0.21900
Cu	Cu	0.48690 0.98690 0.51310 0.82500
Zn	Zn	0.73887 0.23887 0.26113 1.15500
N 	N 	0.64130 0.14130 0.35870 -0.27700
C 	C 	0.91620 0.91620 0.91620 -0.22600
Cu	Cu	0.01310 0.01310 0.01310 0.82500
Zn	Zn	0.76113 0.76113 0.76113 1.15400
N 	N 	0.85870 0.85870 0.85870 -0.27700
