data_crystal

_cell_length_a 11.62470
_cell_length_b 11.62470
_cell_length_c 11.62470
_cell_angle_alpha 90.00000
_cell_angle_beta  90.00000
_cell_angle_gamma 90.00000

_symmetry_space_group_name_	'P 1'
_symmetry_space_group_name_H-M	'P 1'

loop_
_symmetry_equiv_pos_as_xyz
  x,y,z

loop_
_atom_site_label
_atom_site_type_symbol
_atom_site_fract_x
_atom_site_fract_y
_atom_site_fract_z
_atom_site_charge
Zn	Zn	-0.00000 0.00000 -0.00000 0.99800
Zn	Zn	-0.00000 0.50000 0.50000 1.10400
Zn	Zn	0.50000 -0.00000 0.50000 1.10400
Zn	Zn	0.50000 0.50000 -0.00000 1.10400
Cu	Cu	0.75000 0.75000 0.75000 0.84300
Cu	Cu	0.25000 0.25000 0.75000 0.81700
Cu	Cu	0.25000 0.75000 0.25000 0.81700
Cu	Cu	0.75000 0.25000 0.25000 0.81700
C 	C 	0.84750 0.84750 0.84750 -0.09400
N 	N 	0.90350 0.90350 0.90350 -0.12700
C 	C 	0.84750 0.34750 0.34750 -0.19700
N 	N 	0.90350 0.40350 0.40350 -0.23000
C 	C 	0.34750 0.84750 0.34750 -0.19700
N 	N 	0.40350 0.90350 0.40350 -0.23000
C 	C 	0.34750 0.34750 0.84750 -0.19700
N 	N 	0.40350 0.40350 0.90350 -0.23000
C 	C 	0.15250 0.15250 0.84750 -0.25200
N 	N 	0.09650 0.09650 0.90350 -0.29100
C 	C 	0.15250 0.65250 0.34750 -0.25100
N 	N 	0.09650 0.59650 0.40350 -0.31200
C 	C 	0.65250 0.15250 0.34750 -0.25100
N 	N 	0.59650 0.09650 0.40350 -0.31200
C 	C 	0.65250 0.65250 0.84750 -0.14300
N 	N 	0.59650 0.59650 0.90350 -0.22200
C 	C 	0.15250 0.84750 0.15250 -0.25200
N 	N 	0.09650 0.90350 0.09650 -0.29100
C 	C 	0.15250 0.34750 0.65250 -0.25100
N 	N 	0.09650 0.40350 0.59650 -0.31200
C 	C 	0.65250 0.84750 0.65250 -0.14300
N 	N 	0.59650 0.90350 0.59650 -0.22200
C 	C 	0.65250 0.34750 0.15250 -0.25100
N 	N 	0.59650 0.40350 0.09650 -0.31200
C 	C 	0.84750 0.15250 0.15250 -0.25200
N 	N 	0.90350 0.09650 0.09650 -0.29100
C 	C 	0.84750 0.65250 0.65250 -0.14300
N 	N 	0.90350 0.59650 0.59650 -0.22200
C 	C 	0.34750 0.15250 0.65250 -0.25100
N 	N 	0.40350 0.09650 0.59650 -0.31200
C 	C 	0.34750 0.65250 0.15250 -0.25100
N 	N 	0.40350 0.59650 0.09650 -0.31200
