data_crystal

_cell_length_a 11.60900
_cell_length_b 11.60900
_cell_length_c 11.60900
_cell_angle_alpha 90.00000
_cell_angle_beta  90.00000
_cell_angle_gamma 90.00000

_symmetry_space_group_name_	'P 1'
_symmetry_space_group_name_H-M	'P 1'

loop_
_symmetry_equiv_pos_as_xyz
  x,y,z

loop_
_atom_site_label
_atom_site_type_symbol
_atom_site_fract_x
_atom_site_fract_y
_atom_site_fract_z
_atom_site_charge
Cu	Cu	-0.00000 0.00000 -0.00000 0.68900
Cu	Cu	-0.00000 0.50000 0.50000 0.79200
Cu	Cu	0.50000 -0.00000 0.50000 0.79100
Cu	Cu	0.50000 0.50000 -0.00000 0.79100
Zn	Zn	0.25000 0.25000 0.25000 1.11300
Zn	Zn	0.75000 0.75000 0.25000 1.14000
Zn	Zn	0.75000 0.25000 0.75000 1.14000
Zn	Zn	0.25000 0.75000 0.75000 1.14000
C 	C 	0.09330 0.09330 0.09330 -0.38900
N 	N 	0.14710 0.14710 0.14710 -0.27100
C 	C 	0.09330 0.59330 0.59330 -0.27400
N 	N 	0.14710 0.64710 0.64710 -0.25300
C 	C 	0.59330 0.09330 0.59330 -0.27400
N 	N 	0.64710 0.14710 0.64710 -0.25300
C 	C 	0.59330 0.59330 0.09330 -0.27400
N 	N 	0.64710 0.64710 0.14710 -0.25300
C 	C 	0.90670 0.90670 0.09330 -0.12100
N 	N 	0.85290 0.85290 0.14710 -0.27000
C 	C 	0.90670 0.40670 0.59330 -0.15000
N 	N 	0.85290 0.35290 0.64710 -0.26300
C 	C 	0.40670 0.90670 0.59330 -0.15000
N 	N 	0.35290 0.85290 0.64710 -0.26300
C 	C 	0.40670 0.40670 0.09330 -0.29700
N 	N 	0.35290 0.35290 0.14710 -0.27100
C 	C 	0.90670 0.09330 0.90670 -0.12100
N 	N 	0.85290 0.14710 0.85290 -0.27000
C 	C 	0.90670 0.59330 0.40670 -0.15000
N 	N 	0.85290 0.64710 0.35290 -0.26300
C 	C 	0.40670 0.09330 0.40670 -0.29700
N 	N 	0.35290 0.14710 0.35290 -0.27100
C 	C 	0.40670 0.59330 0.90670 -0.15000
N 	N 	0.35290 0.64710 0.85290 -0.26300
C 	C 	0.09330 0.90670 0.90670 -0.12100
N 	N 	0.14710 0.85290 0.85290 -0.27000
C 	C 	0.09330 0.40670 0.40670 -0.29700
N 	N 	0.14710 0.35290 0.35290 -0.27100
C 	C 	0.59330 0.90670 0.40670 -0.15000
N 	N 	0.64710 0.85290 0.35290 -0.26300
C 	C 	0.59330 0.40670 0.90670 -0.15000
N 	N 	0.64710 0.35290 0.85290 -0.26300
