data_crystal

_cell_length_a 11.62690
_cell_length_b 11.62690
_cell_length_c 11.62690
_cell_angle_alpha 90.00000
_cell_angle_beta  90.00000
_cell_angle_gamma 90.00000

_symmetry_space_group_name_	'P 1'
_symmetry_space_group_name_H-M	'P 1'

loop_
_symmetry_equiv_pos_as_xyz
  x,y,z

loop_
_atom_site_label
_atom_site_type_symbol
_atom_site_fract_x
_atom_site_fract_y
_atom_site_fract_z
_atom_site_charge
Zn	Zn	-0.00000 0.00000 -0.00000 0.99800
Zn	Zn	0.00000 0.50000 0.50000 1.10400
Zn	Zn	0.50000 0.00000 0.50000 1.10400
Zn	Zn	0.50000 0.50000 -0.00000 1.10400
Cu	Cu	0.75000 0.75000 0.75000 0.84200
Cu	Cu	0.25000 0.25000 0.75000 0.81600
Cu	Cu	0.25000 0.75000 0.25000 0.81600
Cu	Cu	0.75000 0.25000 0.25000 0.81600
C 	C 	0.84790 0.84790 0.84790 -0.09200
N 	N 	0.90360 0.90360 0.90360 -0.12800
C 	C 	0.84790 0.34790 0.34790 -0.19600
N 	N 	0.90360 0.40360 0.40360 -0.23000
C 	C 	0.34790 0.84790 0.34790 -0.19600
N 	N 	0.40360 0.90360 0.40360 -0.23000
C 	C 	0.34790 0.34790 0.84790 -0.19600
N 	N 	0.40360 0.40360 0.90360 -0.23000
C 	C 	0.15210 0.15210 0.84790 -0.25100
N 	N 	0.09640 0.09640 0.90360 -0.29200
C 	C 	0.15210 0.65210 0.34790 -0.25000
N 	N 	0.09640 0.59640 0.40360 -0.31300
C 	C 	0.65210 0.15210 0.34790 -0.25000
N 	N 	0.59640 0.09640 0.40360 -0.31300
C 	C 	0.65210 0.65210 0.84790 -0.14200
N 	N 	0.59640 0.59640 0.90360 -0.22300
C 	C 	0.15210 0.84790 0.15210 -0.25100
N 	N 	0.09640 0.90360 0.09640 -0.29200
C 	C 	0.15210 0.34790 0.65210 -0.25000
N 	N 	0.09640 0.40360 0.59640 -0.31300
C 	C 	0.65210 0.84790 0.65210 -0.14200
N 	N 	0.59640 0.90360 0.59640 -0.22300
C 	C 	0.65210 0.34790 0.15210 -0.25000
N 	N 	0.59640 0.40360 0.09640 -0.31300
C 	C 	0.84790 0.15210 0.15210 -0.25100
N 	N 	0.90360 0.09640 0.09640 -0.29200
C 	C 	0.84790 0.65210 0.65210 -0.14200
N 	N 	0.90360 0.59640 0.59640 -0.22300
C 	C 	0.34790 0.15210 0.65210 -0.25000
N 	N 	0.40360 0.09640 0.59640 -0.31300
C 	C 	0.34790 0.65210 0.15210 -0.25000
N 	N 	0.40360 0.59640 0.09640 -0.31300
