data_crystal

_cell_length_a 11.67100
_cell_length_b 11.67100
_cell_length_c 11.67100
_cell_angle_alpha 90.00000
_cell_angle_beta  90.00000
_cell_angle_gamma 90.00000

_symmetry_space_group_name_	'P 1'
_symmetry_space_group_name_H-M	'P 1'

loop_
_symmetry_equiv_pos_as_xyz
  x,y,z

loop_
_atom_site_label
_atom_site_type_symbol
_atom_site_fract_x
_atom_site_fract_y
_atom_site_fract_z
_atom_site_charge
Cu	Cu	-0.00000 0.00000 -0.00000 0.67700
Cu	Cu	0.00000 0.50000 0.50000 0.77600
Cu	Cu	0.50000 -0.00000 0.50000 0.77500
Cu	Cu	0.50000 0.50000 -0.00000 0.77500
Zn	Zn	0.25000 0.25000 0.25000 1.12300
Zn	Zn	0.75000 0.75000 0.25000 1.14800
Zn	Zn	0.75000 0.25000 0.75000 1.14800
Zn	Zn	0.25000 0.75000 0.75000 1.14800
C 	C 	0.09600 0.09600 0.09600 -0.37100
N 	N 	0.15000 0.15000 0.15000 -0.28100
C 	C 	0.09600 0.59600 0.59600 -0.25900
N 	N 	0.15000 0.65000 0.65000 -0.26400
C 	C 	0.59600 0.09600 0.59600 -0.25900
N 	N 	0.65000 0.15000 0.65000 -0.26400
C 	C 	0.59600 0.59600 0.09600 -0.25900
N 	N 	0.65000 0.65000 0.15000 -0.26400
C 	C 	0.90400 0.90400 0.09600 -0.11400
N 	N 	0.85000 0.85000 0.15000 -0.27900
C 	C 	0.90400 0.40400 0.59600 -0.14100
N 	N 	0.85000 0.35000 0.65000 -0.27200
C 	C 	0.40400 0.90400 0.59600 -0.14100
N 	N 	0.35000 0.85000 0.65000 -0.27200
C 	C 	0.40400 0.40400 0.09600 -0.28300
N 	N 	0.35000 0.35000 0.15000 -0.28100
C 	C 	0.90400 0.09600 0.90400 -0.11400
N 	N 	0.85000 0.15000 0.85000 -0.27900
C 	C 	0.90400 0.59600 0.40400 -0.14100
N 	N 	0.85000 0.65000 0.35000 -0.27200
C 	C 	0.40400 0.09600 0.40400 -0.28300
N 	N 	0.35000 0.15000 0.35000 -0.28100
C 	C 	0.40400 0.59600 0.90400 -0.14100
N 	N 	0.35000 0.65000 0.85000 -0.27200
C 	C 	0.09600 0.90400 0.90400 -0.11400
N 	N 	0.15000 0.85000 0.85000 -0.27900
C 	C 	0.09600 0.40400 0.40400 -0.28300
N 	N 	0.15000 0.35000 0.35000 -0.28100
C 	C 	0.59600 0.90400 0.40400 -0.14100
N 	N 	0.65000 0.85000 0.35000 -0.27200
C 	C 	0.59600 0.40400 0.90400 -0.14100
N 	N 	0.65000 0.35000 0.85000 -0.27200
