data_crystal

_cell_length_a 21.85670
_cell_length_b 11.55250
_cell_length_c 21.46040
_cell_angle_alpha 90.00000
_cell_angle_beta  117.61100
_cell_angle_gamma 90.00000

_symmetry_space_group_name_	'P 1'
_symmetry_space_group_name_H-M	'P 1'

loop_
_symmetry_equiv_pos_as_xyz
  x,y,z

loop_
_atom_site_label
_atom_site_type_symbol
_atom_site_fract_x
_atom_site_fract_y
_atom_site_fract_z
_atom_site_charge
Cu	Cu	0.74493 0.32630 0.41940 0.83100
Cu	Cu	0.75677 0.30125 0.60247 0.85800
N 	N 	0.79112 0.45610 0.48675 -0.20700
N 	N 	0.78699 0.46706 0.54803 -0.15500
N 	N 	0.84907 0.61079 0.53973 -0.17100
N 	N 	0.79626 0.20053 0.49529 -0.20800
N 	N 	0.78872 0.18071 0.55490 -0.20000
N 	N 	0.84942 0.03911 0.54394 -0.17100
N 	N 	0.14259 0.81029 0.82263 -0.19800
N 	N 	0.09019 0.81990 0.84177 -0.10800
N 	N 	0.04440 0.82214 0.72592 -0.17300
N 	N 	0.97355 0.82778 0.52902 -0.04700
N 	N 	0.65948 0.29143 0.45152 -0.17900
N 	N 	0.66216 0.29370 0.51753 -0.20400
N 	N 	0.55565 0.25648 0.43952 -0.17200
N 	N 	0.31238 0.94719 0.15110 -0.21400
N 	N 	0.36167 0.00560 0.14051 -0.11100
N 	N 	0.36462 0.06625 0.23905 -0.17400
N 	N 	0.27328 0.57805 0.35149 -0.20800
N 	N 	0.24677 0.56360 0.27962 -0.12200
N 	N 	0.32019 0.42311 0.33558 -0.17200
N 	N 	0.38853 0.13222 0.42148 -0.04700
C 	C 	0.82733 0.54220 0.48172 0.10000
H 	H 	0.83690 0.55490 0.44390 -0.03100
C 	C 	0.82225 0.56060 0.57948 0.09700
H 	H 	0.82820 0.58880 0.62300 -0.00900
C 	C 	0.89245 0.71690 0.55734 0.22200
C 	C 	0.84571 0.82480 0.54238 -0.33600
H 	H 	0.81060 0.82590 0.49290 0.12600
H 	H 	0.82230 0.82360 0.57180 0.12500
C 	C 	0.89246 0.93260 0.55935 0.22900
C 	C 	0.94637 0.93310 0.63702 -0.33900
H 	H 	0.92340 0.93260 0.66690 0.12600
H 	H 	0.97500 0.00290 0.64770 0.13000
C 	C 	0.99190 0.82380 0.65130 0.22300
C 	C 	0.94693 0.71360 0.63556 -0.33500
H 	H 	0.97580 0.64430 0.64500 0.12600
H 	H 	0.92410 0.71130 0.66550 0.12600
C 	C 	0.93025 0.72260 0.51170 -0.18400
H 	H 	0.95930 0.65380 0.52030 0.07900
H 	H 	0.89630 0.72370 0.46180 0.08000
C 	C 	0.92880 0.93140 0.51279 -0.19400
H 	H 	0.89430 0.93030 0.46310 0.08300
H 	H 	0.95680 0.00150 0.52130 0.08900
C 	C 	0.02636 0.82710 0.60304 -0.18300
H 	H 	0.05510 0.89670 0.61310 0.08000
H 	H 	0.05620 0.75930 0.61210 0.07300
C 	C 	0.82089 0.08380 0.58321 0.09800
H 	H 	0.82380 0.05030 0.62440 -0.03000
C 	C 	0.83244 0.11530 0.48987 0.09200
H 	H 	0.84510 0.10730 0.45380 -0.03400
C 	C 	0.11368 0.81150 0.75369 0.10000
H 	H 	0.13790 0.80580 0.72720 -0.02600
C 	C 	0.03266 0.82670 0.78314 0.09200
H 	H 	0.98870 0.83380 0.78060 -0.01000
C 	C 	0.59554 0.26880 0.40606 0.09400
H 	H 	0.57920 0.26190 0.35730 -0.02500
C 	C 	0.59944 0.27340 0.50877 0.09700
H 	H 	0.58680 0.27100 0.54510 -0.02600
C 	C 	0.48039 0.23210 0.40544 0.22700
C 	C 	0.46091 0.16270 0.33755 -0.34300
H 	H 	0.47060 0.20850 0.30470 0.12600
H 	H 	0.48810 0.09130 0.34840 0.12600
C 	C 	0.38378 0.13400 0.30450 0.22900
C 	C 	0.34073 0.24600 0.28464 -0.34100
H 	H 	0.29140 0.22760 0.26280 0.12600
H 	H 	0.34980 0.29130 0.25120 0.12600
C 	C 	0.36200 0.31520 0.35307 0.22700
C 	C 	0.43916 0.34630 0.38785 -0.34100
H 	H 	0.45170 0.39110 0.43090 0.12700
H 	H 	0.44940 0.39300 0.35570 0.12800
C 	C 	0.46286 0.15920 0.45544 -0.18800
H 	H 	0.48960 0.08720 0.46750 0.08200
H 	H 	0.47540 0.20240 0.49900 0.08100
C 	C 	0.36852 0.06370 0.35641 -0.18800
H 	H 	0.31920 0.04500 0.33500 0.07500
H 	H 	0.39450 0.99100 0.36780 0.07700
C 	C 	0.34738 0.24050 0.40444 -0.18900
H 	H 	0.35930 0.28420 0.44770 0.08500
H 	H 	0.29810 0.22160 0.38300 0.08200
C 	C 	0.31495 0.98490 0.20956 0.09600
H 	H 	0.28630 0.95900 0.22850 -0.03900
C 	C 	0.39180 0.07620 0.19390 0.09100
H 	H 	0.42770 0.12720 0.20020 -0.01000
C 	C 	0.31715 0.49510 0.38386 0.09400
H 	H 	0.34260 0.48670 0.43290 -0.01600
C 	C 	0.27617 0.46960 0.27235 0.09000
H 	H 	0.26780 0.43800 0.22870 -0.01400
Cu	Cu	0.25507 0.82630 0.08060 0.83200
Cu	Cu	0.24323 0.80125 0.89753 0.85900
N 	N 	0.20888 0.95610 0.01325 -0.20600
N 	N 	0.21301 0.96706 0.95197 -0.15300
N 	N 	0.15093 0.11079 0.96027 -0.17000
N 	N 	0.20374 0.70053 0.00471 -0.20800
N 	N 	0.21128 0.68071 0.94510 -0.20000
N 	N 	0.15058 0.53911 0.95606 -0.17000
N 	N 	0.85741 0.31029 0.67737 -0.19800
N 	N 	0.90981 0.31990 0.65823 -0.10700
N 	N 	0.95560 0.32214 0.77408 -0.17400
N 	N 	0.02645 0.32778 0.97098 -0.04600
N 	N 	0.34052 0.79143 0.04848 -0.17900
N 	N 	0.33784 0.79370 0.98247 -0.20400
N 	N 	0.44435 0.75648 0.06048 -0.17200
N 	N 	0.68762 0.44719 0.34890 -0.21400
N 	N 	0.63833 0.50560 0.35949 -0.11100
N 	N 	0.63538 0.56625 0.26095 -0.17500
N 	N 	0.72672 0.07805 0.14851 -0.20800
N 	N 	0.75323 0.06360 0.22038 -0.12100
N 	N 	0.67981 0.92311 0.16442 -0.17200
N 	N 	0.61147 0.63222 0.07852 -0.04700
C 	C 	0.17267 0.04220 0.01828 0.09900
H 	H 	0.16310 0.05490 0.05610 -0.03000
C 	C 	0.17775 0.06060 0.92052 0.09600
H 	H 	0.17180 0.08880 0.87700 -0.00900
C 	C 	0.10755 0.21690 0.94266 0.22100
C 	C 	0.15429 0.32480 0.95762 -0.33400
H 	H 	0.18940 0.32590 0.00710 0.12400
H 	H 	0.17770 0.32360 0.92820 0.12400
C 	C 	0.10754 0.43260 0.94065 0.22800
C 	C 	0.05363 0.43310 0.86298 -0.34000
H 	H 	0.07660 0.43260 0.83310 0.12600
H 	H 	0.02500 0.50290 0.85230 0.13100
C 	C 	0.00810 0.32380 0.84870 0.22600
C 	C 	0.05307 0.21360 0.86444 -0.33600
H 	H 	0.02420 0.14430 0.85500 0.12600
H 	H 	0.07590 0.21130 0.83450 0.12600
C 	C 	0.06975 0.22260 0.98830 -0.18100
H 	H 	0.04070 0.15380 0.97970 0.07800
H 	H 	0.10370 0.22370 0.03820 0.07900
C 	C 	0.07120 0.43140 0.98721 -0.19100
H 	H 	0.10570 0.43030 0.03690 0.08200
H 	H 	0.04320 0.50150 0.97870 0.08800
C 	C 	0.97364 0.32710 0.89696 -0.18800
H 	H 	0.94490 0.39670 0.88690 0.08000
H 	H 	0.94380 0.25930 0.88790 0.07300
C 	C 	0.17911 0.58380 0.91679 0.09800
H 	H 	0.17620 0.55030 0.87560 -0.03000
C 	C 	0.16756 0.61530 0.01013 0.09000
H 	H 	0.15490 0.60730 0.04620 -0.03400
C 	C 	0.88632 0.31150 0.74631 0.10000
H 	H 	0.86210 0.30580 0.77280 -0.02600
C 	C 	0.96734 0.32670 0.71686 0.08900
H 	H 	0.01130 0.33380 0.71940 -0.00800
C 	C 	0.40446 0.76880 0.09394 0.09400
H 	H 	0.42080 0.76190 0.14270 -0.02500
C 	C 	0.40056 0.77340 0.99123 0.09700
H 	H 	0.41320 0.77100 0.95490 -0.02600
C 	C 	0.51961 0.73210 0.09456 0.22700
C 	C 	0.53909 0.66270 0.16245 -0.34200
H 	H 	0.52940 0.70850 0.19530 0.12600
H 	H 	0.51190 0.59130 0.15160 0.12600
C 	C 	0.61622 0.63400 0.19550 0.22900
C 	C 	0.65927 0.74600 0.21536 -0.34100
H 	H 	0.70860 0.72760 0.23720 0.12600
H 	H 	0.65020 0.79130 0.24880 0.12600
C 	C 	0.63800 0.81520 0.14693 0.22700
C 	C 	0.56084 0.84630 0.11215 -0.34100
H 	H 	0.54830 0.89110 0.06910 0.12700
H 	H 	0.55060 0.89300 0.14430 0.12800
C 	C 	0.53714 0.65920 0.04456 -0.18800
H 	H 	0.51040 0.58720 0.03250 0.08100
H 	H 	0.52460 0.70240 0.00100 0.08100
C 	C 	0.63148 0.56370 0.14359 -0.18800
H 	H 	0.68080 0.54500 0.16500 0.07500
H 	H 	0.60550 0.49100 0.13220 0.07700
C 	C 	0.65262 0.74050 0.09556 -0.18900
H 	H 	0.64070 0.78420 0.05230 0.08500
H 	H 	0.70190 0.72160 0.11700 0.08200
C 	C 	0.68505 0.48490 0.29044 0.09600
H 	H 	0.71370 0.45900 0.27150 -0.03900
C 	C 	0.60820 0.57620 0.30610 0.09100
H 	H 	0.57230 0.62720 0.29980 -0.01000
C 	C 	0.68285 0.99510 0.11614 0.09400
H 	H 	0.65740 0.98670 0.06710 -0.01600
C 	C 	0.72383 0.96960 0.22765 0.09000
H 	H 	0.73220 0.93800 0.27130 -0.01400
Cu	Cu	0.25507 0.67370 0.58060 0.83200
Cu	Cu	0.24323 0.69875 0.39753 0.85900
N 	N 	0.20888 0.54390 0.51325 -0.20600
N 	N 	0.21301 0.53294 0.45197 -0.15400
N 	N 	0.15093 0.38921 0.46027 -0.17100
N 	N 	0.20374 0.79947 0.50471 -0.20800
N 	N 	0.21128 0.81929 0.44510 -0.20000
N 	N 	0.15058 0.96089 0.45606 -0.17100
N 	N 	0.85741 0.18971 0.17737 -0.19800
N 	N 	0.90981 0.18010 0.15823 -0.10800
N 	N 	0.95560 0.17786 0.27408 -0.17300
N 	N 	0.02645 0.17222 0.47098 -0.04700
N 	N 	0.34052 0.70857 0.54848 -0.17900
N 	N 	0.33784 0.70630 0.48247 -0.20400
N 	N 	0.44435 0.74352 0.56048 -0.17200
N 	N 	0.68762 0.05281 0.84890 -0.21400
N 	N 	0.63833 0.99440 0.85949 -0.11100
N 	N 	0.63538 0.93375 0.76095 -0.17400
N 	N 	0.72672 0.42195 0.64851 -0.20800
N 	N 	0.75323 0.43640 0.72038 -0.12200
N 	N 	0.67981 0.57689 0.66442 -0.17200
N 	N 	0.61147 0.86778 0.57852 -0.04700
C 	C 	0.17267 0.45780 0.51828 0.10000
H 	H 	0.16310 0.44510 0.55610 -0.03100
C 	C 	0.17775 0.43940 0.42052 0.09700
H 	H 	0.17180 0.41120 0.37700 -0.00900
C 	C 	0.10755 0.28310 0.44266 0.22200
C 	C 	0.15429 0.17520 0.45762 -0.33600
H 	H 	0.18940 0.17410 0.50710 0.12600
H 	H 	0.17770 0.17640 0.42820 0.12500
C 	C 	0.10754 0.06740 0.44065 0.22900
C 	C 	0.05363 0.06690 0.36298 -0.33900
H 	H 	0.07660 0.06740 0.33310 0.12600
H 	H 	0.02500 0.99710 0.35230 0.13000
C 	C 	0.00810 0.17620 0.34870 0.22300
C 	C 	0.05307 0.28640 0.36444 -0.33500
H 	H 	0.02420 0.35570 0.35500 0.12600
H 	H 	0.07590 0.28870 0.33450 0.12600
C 	C 	0.06975 0.27740 0.48830 -0.18400
H 	H 	0.04070 0.34620 0.47970 0.07900
H 	H 	0.10370 0.27630 0.53820 0.08000
C 	C 	0.07120 0.06860 0.48721 -0.19400
H 	H 	0.10570 0.06970 0.53690 0.08300
H 	H 	0.04320 0.99850 0.47870 0.08900
C 	C 	0.97364 0.17290 0.39696 -0.18300
H 	H 	0.94490 0.10330 0.38690 0.08000
H 	H 	0.94380 0.24070 0.38790 0.07300
C 	C 	0.17911 0.91620 0.41679 0.09800
H 	H 	0.17620 0.94970 0.37560 -0.03000
C 	C 	0.16756 0.88470 0.51013 0.09200
H 	H 	0.15490 0.89270 0.54620 -0.03400
C 	C 	0.88632 0.18850 0.24631 0.10000
H 	H 	0.86210 0.19420 0.27280 -0.02600
C 	C 	0.96734 0.17330 0.21686 0.09200
H 	H 	0.01130 0.16620 0.21940 -0.01000
C 	C 	0.40446 0.73120 0.59394 0.09400
H 	H 	0.42080 0.73810 0.64270 -0.02500
C 	C 	0.40056 0.72660 0.49123 0.09700
H 	H 	0.41320 0.72900 0.45490 -0.02600
C 	C 	0.51961 0.76790 0.59456 0.22700
C 	C 	0.53909 0.83730 0.66245 -0.34300
H 	H 	0.52940 0.79150 0.69530 0.12600
H 	H 	0.51190 0.90870 0.65160 0.12600
C 	C 	0.61622 0.86600 0.69550 0.22900
C 	C 	0.65927 0.75400 0.71536 -0.34100
H 	H 	0.70860 0.77240 0.73720 0.12600
H 	H 	0.65020 0.70870 0.74880 0.12600
C 	C 	0.63800 0.68480 0.64693 0.22700
C 	C 	0.56084 0.65370 0.61215 -0.34100
H 	H 	0.54830 0.60890 0.56910 0.12700
H 	H 	0.55060 0.60700 0.64430 0.12800
C 	C 	0.53714 0.84080 0.54456 -0.18800
H 	H 	0.51040 0.91280 0.53250 0.08200
H 	H 	0.52460 0.79760 0.50100 0.08100
C 	C 	0.63148 0.93630 0.64359 -0.18800
H 	H 	0.68080 0.95500 0.66500 0.07500
H 	H 	0.60550 0.00900 0.63220 0.07700
C 	C 	0.65262 0.75950 0.59556 -0.18900
H 	H 	0.64070 0.71580 0.55230 0.08500
H 	H 	0.70190 0.77840 0.61700 0.08200
C 	C 	0.68505 0.01510 0.79044 0.09600
H 	H 	0.71370 0.04100 0.77150 -0.03900
C 	C 	0.60820 0.92380 0.80610 0.09100
H 	H 	0.57230 0.87280 0.79980 -0.01000
C 	C 	0.68285 0.50490 0.61614 0.09400
H 	H 	0.65740 0.51330 0.56710 -0.01600
C 	C 	0.72383 0.53040 0.72765 0.09000
H 	H 	0.73220 0.56200 0.77130 -0.01400
Cu	Cu	0.74493 0.17370 0.91940 0.83200
Cu	Cu	0.75677 0.19875 0.10247 0.85900
N 	N 	0.79112 0.04390 0.98675 -0.20600
N 	N 	0.78699 0.03294 0.04803 -0.15300
N 	N 	0.84907 0.88921 0.03973 -0.17000
N 	N 	0.79626 0.29947 0.99529 -0.20800
N 	N 	0.78872 0.31929 0.05490 -0.20000
N 	N 	0.84942 0.46089 0.04394 -0.17000
N 	N 	0.14259 0.68971 0.32263 -0.19800
N 	N 	0.09019 0.68010 0.34177 -0.10700
N 	N 	0.04440 0.67786 0.22592 -0.17400
N 	N 	0.97355 0.67222 0.02902 -0.04600
N 	N 	0.65948 0.20857 0.95152 -0.17900
N 	N 	0.66216 0.20630 0.01753 -0.20400
N 	N 	0.55565 0.24352 0.93952 -0.17200
N 	N 	0.31238 0.55281 0.65110 -0.21400
N 	N 	0.36167 0.49440 0.64051 -0.11100
N 	N 	0.36462 0.43375 0.73905 -0.17500
N 	N 	0.27328 0.92195 0.85149 -0.20800
N 	N 	0.24677 0.93640 0.77962 -0.12100
N 	N 	0.32019 0.07689 0.83558 -0.17200
N 	N 	0.38853 0.36778 0.92148 -0.04700
C 	C 	0.82733 0.95780 0.98172 0.09900
H 	H 	0.83690 0.94510 0.94390 -0.03000
C 	C 	0.82225 0.93940 0.07948 0.09600
H 	H 	0.82820 0.91120 0.12300 -0.00900
C 	C 	0.89245 0.78310 0.05734 0.22100
C 	C 	0.84571 0.67520 0.04238 -0.33400
H 	H 	0.81060 0.67410 0.99290 0.12400
H 	H 	0.82230 0.67640 0.07180 0.12400
C 	C 	0.89246 0.56740 0.05935 0.22800
C 	C 	0.94637 0.56690 0.13702 -0.34000
H 	H 	0.92340 0.56740 0.16690 0.12600
H 	H 	0.97500 0.49710 0.14770 0.13100
C 	C 	0.99190 0.67620 0.15130 0.22600
C 	C 	0.94693 0.78640 0.13556 -0.33600
H 	H 	0.97580 0.85570 0.14500 0.12600
H 	H 	0.92410 0.78870 0.16550 0.12600
C 	C 	0.93025 0.77740 0.01170 -0.18100
H 	H 	0.95930 0.84620 0.02030 0.07800
H 	H 	0.89630 0.77630 0.96180 0.07900
C 	C 	0.92880 0.56860 0.01279 -0.19100
H 	H 	0.89430 0.56970 0.96310 0.08200
H 	H 	0.95680 0.49850 0.02130 0.08800
C 	C 	0.02636 0.67290 0.10304 -0.18800
H 	H 	0.05510 0.60330 0.11310 0.08000
H 	H 	0.05620 0.74070 0.11210 0.07300
C 	C 	0.82089 0.41620 0.08321 0.09800
H 	H 	0.82380 0.44970 0.12440 -0.03000
C 	C 	0.83244 0.38470 0.98987 0.09000
H 	H 	0.84510 0.39270 0.95380 -0.03400
C 	C 	0.11368 0.68850 0.25369 0.10000
H 	H 	0.13790 0.69420 0.22720 -0.02600
C 	C 	0.03266 0.67330 0.28314 0.08900
H 	H 	0.98870 0.66620 0.28060 -0.00800
C 	C 	0.59554 0.23120 0.90606 0.09400
H 	H 	0.57920 0.23810 0.85730 -0.02500
C 	C 	0.59944 0.22660 0.00877 0.09700
H 	H 	0.58680 0.22900 0.04510 -0.02600
C 	C 	0.48039 0.26790 0.90544 0.22700
C 	C 	0.46091 0.33730 0.83755 -0.34200
H 	H 	0.47060 0.29150 0.80470 0.12600
H 	H 	0.48810 0.40870 0.84840 0.12600
C 	C 	0.38378 0.36600 0.80450 0.22900
C 	C 	0.34073 0.25400 0.78464 -0.34100
H 	H 	0.29140 0.27240 0.76280 0.12600
H 	H 	0.34980 0.20870 0.75120 0.12600
C 	C 	0.36200 0.18480 0.85307 0.22700
C 	C 	0.43916 0.15370 0.88785 -0.34100
H 	H 	0.45170 0.10890 0.93090 0.12700
H 	H 	0.44940 0.10700 0.85570 0.12800
C 	C 	0.46286 0.34080 0.95544 -0.18800
H 	H 	0.48960 0.41280 0.96750 0.08100
H 	H 	0.47540 0.29760 0.99900 0.08100
C 	C 	0.36852 0.43630 0.85641 -0.18800
H 	H 	0.31920 0.45500 0.83500 0.07500
H 	H 	0.39450 0.50900 0.86780 0.07700
C 	C 	0.34738 0.25950 0.90444 -0.18900
H 	H 	0.35930 0.21580 0.94770 0.08500
H 	H 	0.29810 0.27840 0.88300 0.08200
C 	C 	0.31495 0.51510 0.70956 0.09600
H 	H 	0.28630 0.54100 0.72850 -0.03900
C 	C 	0.39180 0.42380 0.69390 0.09100
H 	H 	0.42770 0.37280 0.70020 -0.01000
C 	C 	0.31715 0.00490 0.88386 0.09400
H 	H 	0.34260 0.01330 0.93290 -0.01600
C 	C 	0.27617 0.03040 0.77235 0.09000
H 	H 	0.26780 0.06200 0.72870 -0.01400
