data_crystal

_cell_length_a 11.93080
_cell_length_b 18.92390
_cell_length_c 22.41890
_cell_angle_alpha 90.00000
_cell_angle_beta  90.00000
_cell_angle_gamma 90.00000

_symmetry_space_group_name_	'P 1'
_symmetry_space_group_name_H-M	'P 1'

loop_
_symmetry_equiv_pos_as_xyz
  x,y,z

loop_
_atom_site_label
_atom_site_type_symbol
_atom_site_fract_x
_atom_site_fract_y
_atom_site_fract_z
_atom_site_charge
Ag	Ag	0.27978 0.19757 0.69825 0.54700
N 	N 	0.39340 0.29140 0.67840 -0.15500
N 	N 	0.36940 0.36010 0.68340 -0.11600
N 	N 	0.54290 0.35070 0.65378 -0.20100
N 	N 	0.01480 0.17460 0.66810 -0.10800
N 	N 	0.09170 0.22670 0.68300 -0.15300
N 	N 	0.93740 0.27910 0.65630 -0.20000
N 	N 	0.90880 0.63350 0.68710 -0.11300
N 	N 	0.82240 0.62640 0.72430 -0.15600
N 	N 	0.83250 0.53050 0.67067 -0.20300
N 	N 	0.78950 0.37300 0.38870 -0.14500
N 	N 	0.81800 0.44330 0.39260 -0.10700
N 	N 	0.78870 0.40250 0.48274 -0.19800
C 	C 	0.49750 0.28650 0.66240 0.10100
H 	H 	0.53580 0.24410 0.65740 -0.01300
C 	C 	0.45940 0.39310 0.66890 0.11500
H 	H 	0.46530 0.44210 0.66910 -0.01600
C 	C 	0.92530 0.20850 0.65230 0.10000
H 	H 	0.85990 0.18650 0.63950 -0.01300
C 	C 	0.04380 0.28640 0.67440 0.11400
H 	H 	0.07880 0.32980 0.68010 -0.02700
C 	C 	0.91370 0.57600 0.65640 0.10400
H 	H 	0.96780 0.56720 0.62750 -0.00900
C 	C 	0.77730 0.56580 0.71340 0.11000
H 	H 	0.71410 0.54870 0.73290 -0.02000
C 	C 	0.77310 0.35040 0.44300 0.10300
H 	H 	0.75320 0.30430 0.45280 -0.02400
C 	C 	0.81790 0.45920 0.44950 0.09700
H 	H 	0.83550 0.50350 0.46490 -0.01700
C 	C 	0.65720 0.36980 0.63460 0.38900
C 	C 	0.73900 0.31280 0.65640 -0.51600
H 	H 	0.73550 0.30890 0.69950 0.17400
H 	H 	0.71930 0.26740 0.63930 0.18100
C 	C 	0.85640 0.33390 0.63710 0.38200
C 	C 	0.88850 0.40570 0.66540 -0.52700
H 	H 	0.88640 0.40210 0.70850 0.18400
H 	H 	0.96400 0.41870 0.65360 0.18400
C 	C 	0.80660 0.46090 0.64450 0.40200
C 	C 	0.68700 0.44120 0.66300 -0.52600
H 	H 	0.63490 0.47720 0.64970 0.18600
H 	H 	0.68210 0.43780 0.70610 0.19000
C 	C 	0.66230 0.37580 0.56640 -0.52000
H 	H 	0.64270 0.33090 0.54830 0.18000
H 	H 	0.60960 0.41120 0.55260 0.18200
C 	C 	0.78170 0.39670 0.54870 0.39400
C 	C 	0.86290 0.33960 0.56830 -0.51700
H 	H 	0.93850 0.35170 0.55610 0.18000
H 	H 	0.84300 0.29480 0.55020 0.17900
C 	C 	0.81220 0.46750 0.57640 -0.52800
H 	H 	0.76030 0.50360 0.56290 0.18300
H 	H 	0.88720 0.48120 0.56430 0.18200
Ag	Ag	0.77978 0.30243 0.30175 0.54600
N 	N 	0.89340 0.20860 0.32160 -0.15600
N 	N 	0.86940 0.13990 0.31660 -0.11700
N 	N 	0.04290 0.14930 0.34622 -0.20100
N 	N 	0.51480 0.32540 0.33190 -0.10900
N 	N 	0.59170 0.27330 0.31700 -0.15400
N 	N 	0.43740 0.22090 0.34370 -0.20100
N 	N 	0.40880 0.86650 0.31290 -0.11400
N 	N 	0.32240 0.87360 0.27570 -0.15700
N 	N 	0.33250 0.96950 0.32933 -0.20400
N 	N 	0.28950 0.12700 0.61130 -0.14600
N 	N 	0.31800 0.05670 0.60740 -0.10800
N 	N 	0.28870 0.09750 0.51726 -0.19900
C 	C 	0.99750 0.21350 0.33760 0.10000
H 	H 	0.03580 0.25590 0.34260 -0.01400
C 	C 	0.95940 0.10690 0.33110 0.11400
H 	H 	0.96530 0.05790 0.33090 -0.01700
C 	C 	0.42530 0.29150 0.34770 0.09900
H 	H 	0.35990 0.31350 0.36050 -0.01400
C 	C 	0.54380 0.21360 0.32560 0.11300
H 	H 	0.57880 0.17020 0.31990 -0.02700
C 	C 	0.41370 0.92400 0.34360 0.10400
H 	H 	0.46780 0.93280 0.37250 -0.00800
C 	C 	0.27730 0.93420 0.28660 0.11000
H 	H 	0.21410 0.95130 0.26710 -0.02000
C 	C 	0.27310 0.14960 0.55700 0.10300
H 	H 	0.25320 0.19570 0.54720 -0.02400
C 	C 	0.31790 0.04080 0.55050 0.09700
H 	H 	0.33550 0.99650 0.53510 -0.01700
C 	C 	0.15720 0.13020 0.36540 0.38900
C 	C 	0.23900 0.18720 0.34360 -0.51600
H 	H 	0.23550 0.19110 0.30050 0.17400
H 	H 	0.21930 0.23260 0.36070 0.18100
C 	C 	0.35640 0.16610 0.36290 0.38200
C 	C 	0.38850 0.09430 0.33460 -0.52700
H 	H 	0.38640 0.09790 0.29150 0.18400
H 	H 	0.46400 0.08130 0.34640 0.18400
C 	C 	0.30660 0.03910 0.35550 0.40200
C 	C 	0.18700 0.05880 0.33700 -0.52600
H 	H 	0.13490 0.02280 0.35030 0.18600
H 	H 	0.18210 0.06220 0.29390 0.19000
C 	C 	0.16230 0.12420 0.43360 -0.52000
H 	H 	0.14270 0.16910 0.45170 0.18000
H 	H 	0.10960 0.08880 0.44740 0.18200
C 	C 	0.28170 0.10330 0.45130 0.39400
C 	C 	0.36290 0.16040 0.43170 -0.51700
H 	H 	0.43850 0.14830 0.44390 0.18000
H 	H 	0.34300 0.20520 0.44980 0.17900
C 	C 	0.31220 0.03250 0.42360 -0.52800
H 	H 	0.26030 0.99640 0.43710 0.18300
H 	H 	0.38720 0.01880 0.43570 0.18200
Ag	Ag	0.77978 0.69757 0.80175 0.54600
N 	N 	0.89340 0.79140 0.82160 -0.15600
N 	N 	0.86940 0.86010 0.81660 -0.11700
N 	N 	0.04290 0.85070 0.84622 -0.20200
N 	N 	0.51480 0.67460 0.83190 -0.10900
N 	N 	0.59170 0.72670 0.81700 -0.15400
N 	N 	0.43740 0.77910 0.84370 -0.20100
N 	N 	0.40880 0.13350 0.81290 -0.11400
N 	N 	0.32240 0.12640 0.77570 -0.15700
N 	N 	0.33250 0.03050 0.82933 -0.20400
N 	N 	0.28950 0.87300 0.11130 -0.14600
N 	N 	0.31800 0.94330 0.10740 -0.10800
N 	N 	0.28870 0.90250 0.01726 -0.19900
C 	C 	0.99750 0.78650 0.83760 0.10200
H 	H 	0.03580 0.74410 0.84260 -0.01500
C 	C 	0.95940 0.89310 0.83110 0.11500
H 	H 	0.96530 0.94210 0.83090 -0.01700
C 	C 	0.42530 0.70850 0.84770 0.09900
H 	H 	0.35990 0.68650 0.86050 -0.01400
C 	C 	0.54380 0.78640 0.82560 0.11300
H 	H 	0.57880 0.82980 0.81990 -0.02700
C 	C 	0.41370 0.07600 0.84360 0.10400
H 	H 	0.46780 0.06720 0.87250 -0.00800
C 	C 	0.27730 0.06580 0.78660 0.11000
H 	H 	0.21410 0.04870 0.76710 -0.02000
C 	C 	0.27310 0.85040 0.05700 0.10300
H 	H 	0.25320 0.80430 0.04720 -0.02400
C 	C 	0.31790 0.95920 0.05050 0.09800
H 	H 	0.33550 0.00350 0.03510 -0.01700
C 	C 	0.15720 0.86980 0.86540 0.38900
C 	C 	0.23900 0.81280 0.84360 -0.51600
H 	H 	0.23550 0.80890 0.80050 0.17400
H 	H 	0.21930 0.76740 0.86070 0.18100
C 	C 	0.35640 0.83390 0.86290 0.38200
C 	C 	0.38850 0.90570 0.83460 -0.52700
H 	H 	0.38640 0.90210 0.79150 0.18400
H 	H 	0.46400 0.91870 0.84640 0.18400
C 	C 	0.30660 0.96090 0.85550 0.40200
C 	C 	0.18700 0.94120 0.83700 -0.52600
H 	H 	0.13490 0.97720 0.85030 0.18600
H 	H 	0.18210 0.93780 0.79390 0.19000
C 	C 	0.16230 0.87580 0.93360 -0.51900
H 	H 	0.14270 0.83090 0.95170 0.18000
H 	H 	0.10960 0.91120 0.94740 0.18100
C 	C 	0.28170 0.89670 0.95130 0.39400
C 	C 	0.36290 0.83960 0.93170 -0.51600
H 	H 	0.43850 0.85170 0.94390 0.18000
H 	H 	0.34300 0.79480 0.94980 0.17900
C 	C 	0.31220 0.96750 0.92360 -0.52800
H 	H 	0.26030 0.00360 0.93710 0.18300
H 	H 	0.38720 0.98120 0.93570 0.18200
Ag	Ag	0.27978 0.80243 0.19825 0.54600
N 	N 	0.39340 0.70860 0.17840 -0.15600
N 	N 	0.36940 0.63990 0.18340 -0.11700
N 	N 	0.54290 0.64930 0.15378 -0.20200
N 	N 	0.01480 0.82540 0.16810 -0.10800
N 	N 	0.09170 0.77330 0.18300 -0.15400
N 	N 	0.93740 0.72090 0.15630 -0.20100
N 	N 	0.90880 0.36650 0.18710 -0.11400
N 	N 	0.82240 0.37360 0.22430 -0.15700
N 	N 	0.83250 0.46950 0.17067 -0.20400
N 	N 	0.78950 0.62700 0.88870 -0.14600
N 	N 	0.81800 0.55670 0.89260 -0.10800
N 	N 	0.78870 0.59750 0.98274 -0.19900
C 	C 	0.49750 0.71350 0.16240 0.10000
H 	H 	0.53580 0.75590 0.15740 -0.01400
C 	C 	0.45940 0.60690 0.16890 0.11400
H 	H 	0.46530 0.55790 0.16910 -0.01700
C 	C 	0.92530 0.79150 0.15230 0.09800
H 	H 	0.85990 0.81350 0.13950 -0.01400
C 	C 	0.04380 0.71360 0.17440 0.11400
H 	H 	0.07880 0.67020 0.18010 -0.02700
C 	C 	0.91370 0.42400 0.15640 0.10400
H 	H 	0.96780 0.43280 0.12750 -0.00900
C 	C 	0.77730 0.43420 0.21340 0.11000
H 	H 	0.71410 0.45130 0.23290 -0.02000
C 	C 	0.77310 0.64960 0.94300 0.10300
H 	H 	0.75320 0.69570 0.95280 -0.02400
C 	C 	0.81790 0.54080 0.94950 0.09700
H 	H 	0.83550 0.49650 0.96490 -0.01700
C 	C 	0.65720 0.63020 0.13460 0.38900
C 	C 	0.73900 0.68720 0.15640 -0.51600
H 	H 	0.73550 0.69110 0.19950 0.17400
H 	H 	0.71930 0.73260 0.13930 0.18100
C 	C 	0.85640 0.66610 0.13710 0.38200
C 	C 	0.88850 0.59430 0.16540 -0.52700
H 	H 	0.88640 0.59790 0.20850 0.18400
H 	H 	0.96400 0.58130 0.15360 0.18400
C 	C 	0.80660 0.53910 0.14450 0.40200
C 	C 	0.68700 0.55880 0.16300 -0.52600
H 	H 	0.63490 0.52280 0.14970 0.18600
H 	H 	0.68210 0.56220 0.20610 0.19000
C 	C 	0.66230 0.62420 0.06640 -0.51900
H 	H 	0.64270 0.66910 0.04830 0.18000
H 	H 	0.60960 0.58880 0.05260 0.18100
C 	C 	0.78170 0.60330 0.04870 0.39400
C 	C 	0.86290 0.66040 0.06830 -0.51600
H 	H 	0.93850 0.64830 0.05610 0.18000
H 	H 	0.84300 0.70520 0.05020 0.17900
C 	C 	0.81220 0.53250 0.07640 -0.52700
H 	H 	0.76030 0.49640 0.06290 0.18300
H 	H 	0.88720 0.51880 0.06430 0.18200
Ag	Ag	0.22022 0.30243 0.19825 0.54600
N 	N 	0.10660 0.20860 0.17840 -0.15600
N 	N 	0.13060 0.13990 0.18340 -0.11700
N 	N 	0.95710 0.14930 0.15378 -0.20200
N 	N 	0.48520 0.32540 0.16810 -0.10900
N 	N 	0.40830 0.27330 0.18300 -0.15400
N 	N 	0.56260 0.22090 0.15630 -0.20100
N 	N 	0.59120 0.86650 0.18710 -0.11400
N 	N 	0.67760 0.87360 0.22430 -0.15700
N 	N 	0.66750 0.96950 0.17067 -0.20400
N 	N 	0.71050 0.12700 0.88870 -0.14600
N 	N 	0.68200 0.05670 0.89260 -0.10800
N 	N 	0.71130 0.09750 0.98274 -0.19900
C 	C 	0.00250 0.21350 0.16240 0.10200
H 	H 	0.96420 0.25590 0.15740 -0.01500
C 	C 	0.04060 0.10690 0.16890 0.11500
H 	H 	0.03470 0.05790 0.16910 -0.01700
C 	C 	0.57470 0.29150 0.15230 0.09900
H 	H 	0.64010 0.31350 0.13950 -0.01400
C 	C 	0.45620 0.21360 0.17440 0.11300
H 	H 	0.42120 0.17020 0.18010 -0.02700
C 	C 	0.58630 0.92400 0.15640 0.10400
H 	H 	0.53220 0.93280 0.12750 -0.00800
C 	C 	0.72270 0.93420 0.21340 0.11000
H 	H 	0.78590 0.95130 0.23290 -0.02000
C 	C 	0.72690 0.14960 0.94300 0.10300
H 	H 	0.74680 0.19570 0.95280 -0.02400
C 	C 	0.68210 0.04080 0.94950 0.09800
H 	H 	0.66450 0.99650 0.96490 -0.01700
C 	C 	0.84280 0.13020 0.13460 0.38900
C 	C 	0.76100 0.18720 0.15640 -0.51600
H 	H 	0.76450 0.19110 0.19950 0.17400
H 	H 	0.78070 0.23260 0.13930 0.18100
C 	C 	0.64360 0.16610 0.13710 0.38200
C 	C 	0.61150 0.09430 0.16540 -0.52700
H 	H 	0.61360 0.09790 0.20850 0.18400
H 	H 	0.53600 0.08130 0.15360 0.18400
C 	C 	0.69340 0.03910 0.14450 0.40200
C 	C 	0.81300 0.05880 0.16300 -0.52600
H 	H 	0.86510 0.02280 0.14970 0.18600
H 	H 	0.81790 0.06220 0.20610 0.19000
C 	C 	0.83770 0.12420 0.06640 -0.51900
H 	H 	0.85730 0.16910 0.04830 0.18000
H 	H 	0.89040 0.08880 0.05260 0.18100
C 	C 	0.71830 0.10330 0.04870 0.39400
C 	C 	0.63710 0.16040 0.06830 -0.51600
H 	H 	0.56150 0.14830 0.05610 0.18000
H 	H 	0.65700 0.20520 0.05020 0.17900
C 	C 	0.68780 0.03250 0.07640 -0.52800
H 	H 	0.73970 0.99640 0.06290 0.18300
H 	H 	0.61280 0.01880 0.06430 0.18200
Ag	Ag	0.72022 0.19757 0.80175 0.54600
N 	N 	0.60660 0.29140 0.82160 -0.15600
N 	N 	0.63060 0.36010 0.81660 -0.11700
N 	N 	0.45710 0.35070 0.84622 -0.20200
N 	N 	0.98520 0.17460 0.83190 -0.10800
N 	N 	0.90830 0.22670 0.81700 -0.15400
N 	N 	0.06260 0.27910 0.84370 -0.20100
N 	N 	0.09120 0.63350 0.81290 -0.11400
N 	N 	0.17760 0.62640 0.77570 -0.15700
N 	N 	0.16750 0.53050 0.82933 -0.20400
N 	N 	0.21050 0.37300 0.11130 -0.14600
N 	N 	0.18200 0.44330 0.10740 -0.10800
N 	N 	0.21130 0.40250 0.01726 -0.19900
C 	C 	0.50250 0.28650 0.83760 0.10000
H 	H 	0.46420 0.24410 0.84260 -0.01400
C 	C 	0.54060 0.39310 0.83110 0.11400
H 	H 	0.53470 0.44210 0.83090 -0.01700
C 	C 	0.07470 0.20850 0.84770 0.09800
H 	H 	0.14010 0.18650 0.86050 -0.01400
C 	C 	0.95620 0.28640 0.82560 0.11400
H 	H 	0.92120 0.32980 0.81990 -0.02700
C 	C 	0.08630 0.57600 0.84360 0.10400
H 	H 	0.03220 0.56720 0.87250 -0.00900
C 	C 	0.22270 0.56580 0.78660 0.11000
H 	H 	0.28590 0.54870 0.76710 -0.02000
C 	C 	0.22690 0.35040 0.05700 0.10300
H 	H 	0.24680 0.30430 0.04720 -0.02400
C 	C 	0.18210 0.45920 0.05050 0.09700
H 	H 	0.16450 0.50350 0.03510 -0.01700
C 	C 	0.34280 0.36980 0.86540 0.38900
C 	C 	0.26100 0.31280 0.84360 -0.51600
H 	H 	0.26450 0.30890 0.80050 0.17400
H 	H 	0.28070 0.26740 0.86070 0.18100
C 	C 	0.14360 0.33390 0.86290 0.38200
C 	C 	0.11150 0.40570 0.83460 -0.52700
H 	H 	0.11360 0.40210 0.79150 0.18400
H 	H 	0.03600 0.41870 0.84640 0.18400
C 	C 	0.19340 0.46090 0.85550 0.40200
C 	C 	0.31300 0.44120 0.83700 -0.52600
H 	H 	0.36510 0.47720 0.85030 0.18600
H 	H 	0.31790 0.43780 0.79390 0.19000
C 	C 	0.33770 0.37580 0.93360 -0.51900
H 	H 	0.35730 0.33090 0.95170 0.18000
H 	H 	0.39040 0.41120 0.94740 0.18100
C 	C 	0.21830 0.39670 0.95130 0.39400
C 	C 	0.13710 0.33960 0.93170 -0.51600
H 	H 	0.06150 0.35170 0.94390 0.18000
H 	H 	0.15700 0.29480 0.94980 0.17900
C 	C 	0.18780 0.46750 0.92360 -0.52700
H 	H 	0.23970 0.50360 0.93710 0.18300
H 	H 	0.11280 0.48120 0.93570 0.18200
Ag	Ag	0.72022 0.80243 0.30175 0.54600
N 	N 	0.60660 0.70860 0.32160 -0.15600
N 	N 	0.63060 0.63990 0.31660 -0.11700
N 	N 	0.45710 0.64930 0.34622 -0.20200
N 	N 	0.98520 0.82540 0.33190 -0.10900
N 	N 	0.90830 0.77330 0.31700 -0.15400
N 	N 	0.06260 0.72090 0.34370 -0.20100
N 	N 	0.09120 0.36650 0.31290 -0.11400
N 	N 	0.17760 0.37360 0.27570 -0.15700
N 	N 	0.16750 0.46950 0.32933 -0.20400
N 	N 	0.21050 0.62700 0.61130 -0.14600
N 	N 	0.18200 0.55670 0.60740 -0.10800
N 	N 	0.21130 0.59750 0.51726 -0.19900
C 	C 	0.50250 0.71350 0.33760 0.10000
H 	H 	0.46420 0.75590 0.34260 -0.01400
C 	C 	0.54060 0.60690 0.33110 0.11400
H 	H 	0.53470 0.55790 0.33090 -0.01700
C 	C 	0.07470 0.79150 0.34770 0.09900
H 	H 	0.14010 0.81350 0.36050 -0.01400
C 	C 	0.95620 0.71360 0.32560 0.11300
H 	H 	0.92120 0.67020 0.31990 -0.02700
C 	C 	0.08630 0.42400 0.34360 0.10400
H 	H 	0.03220 0.43280 0.37250 -0.00900
C 	C 	0.22270 0.43420 0.28660 0.11000
H 	H 	0.28590 0.45130 0.26710 -0.02000
C 	C 	0.22690 0.64960 0.55700 0.10300
H 	H 	0.24680 0.69570 0.54720 -0.02400
C 	C 	0.18210 0.54080 0.55050 0.09700
H 	H 	0.16450 0.49650 0.53510 -0.01700
C 	C 	0.34280 0.63020 0.36540 0.38900
C 	C 	0.26100 0.68720 0.34360 -0.51600
H 	H 	0.26450 0.69110 0.30050 0.17400
H 	H 	0.28070 0.73260 0.36070 0.18100
C 	C 	0.14360 0.66610 0.36290 0.38200
C 	C 	0.11150 0.59430 0.33460 -0.52700
H 	H 	0.11360 0.59790 0.29150 0.18400
H 	H 	0.03600 0.58130 0.34640 0.18400
C 	C 	0.19340 0.53910 0.35550 0.40200
C 	C 	0.31300 0.55880 0.33700 -0.52600
H 	H 	0.36510 0.52280 0.35030 0.18600
H 	H 	0.31790 0.56220 0.29390 0.19000
C 	C 	0.33770 0.62420 0.43360 -0.52000
H 	H 	0.35730 0.66910 0.45170 0.18000
H 	H 	0.39040 0.58880 0.44740 0.18200
C 	C 	0.21830 0.60330 0.45130 0.39400
C 	C 	0.13710 0.66040 0.43170 -0.51700
H 	H 	0.06150 0.64830 0.44390 0.18000
H 	H 	0.15700 0.70520 0.44980 0.17900
C 	C 	0.18780 0.53250 0.42360 -0.52800
H 	H 	0.23970 0.49640 0.43710 0.18300
H 	H 	0.11280 0.51880 0.43570 0.18200
Ag	Ag	0.22022 0.69757 0.69825 0.54600
N 	N 	0.10660 0.79140 0.67840 -0.15600
N 	N 	0.13060 0.86010 0.68340 -0.11700
N 	N 	0.95710 0.85070 0.65378 -0.20100
N 	N 	0.48520 0.67460 0.66810 -0.10900
N 	N 	0.40830 0.72670 0.68300 -0.15400
N 	N 	0.56260 0.77910 0.65630 -0.20100
N 	N 	0.59120 0.13350 0.68710 -0.11400
N 	N 	0.67760 0.12640 0.72430 -0.15700
N 	N 	0.66750 0.03050 0.67067 -0.20400
N 	N 	0.71050 0.87300 0.38870 -0.14600
N 	N 	0.68200 0.94330 0.39260 -0.10800
N 	N 	0.71130 0.90250 0.48274 -0.19900
C 	C 	0.00250 0.78650 0.66240 0.10000
H 	H 	0.96420 0.74410 0.65740 -0.01400
C 	C 	0.04060 0.89310 0.66890 0.11400
H 	H 	0.03470 0.94210 0.66910 -0.01700
C 	C 	0.57470 0.70850 0.65230 0.09900
H 	H 	0.64010 0.68650 0.63950 -0.01400
C 	C 	0.45620 0.78640 0.67440 0.11300
H 	H 	0.42120 0.82980 0.68010 -0.02700
C 	C 	0.58630 0.07600 0.65640 0.10400
H 	H 	0.53220 0.06720 0.62750 -0.00800
C 	C 	0.72270 0.06580 0.71340 0.11000
H 	H 	0.78590 0.04870 0.73290 -0.02000
C 	C 	0.72690 0.85040 0.44300 0.10300
H 	H 	0.74680 0.80430 0.45280 -0.02400
C 	C 	0.68210 0.95920 0.44950 0.09700
H 	H 	0.66450 0.00350 0.46490 -0.01700
C 	C 	0.84280 0.86980 0.63460 0.38900
C 	C 	0.76100 0.81280 0.65640 -0.51600
H 	H 	0.76450 0.80890 0.69950 0.17400
H 	H 	0.78070 0.76740 0.63930 0.18100
C 	C 	0.64360 0.83390 0.63710 0.38200
C 	C 	0.61150 0.90570 0.66540 -0.52700
H 	H 	0.61360 0.90210 0.70850 0.18400
H 	H 	0.53600 0.91870 0.65360 0.18400
C 	C 	0.69340 0.96090 0.64450 0.40200
C 	C 	0.81300 0.94120 0.66300 -0.52600
H 	H 	0.86510 0.97720 0.64970 0.18600
H 	H 	0.81790 0.93780 0.70610 0.19000
C 	C 	0.83770 0.87580 0.56640 -0.52000
H 	H 	0.85730 0.83090 0.54830 0.18000
H 	H 	0.89040 0.91120 0.55260 0.18200
C 	C 	0.71830 0.89670 0.54870 0.39400
C 	C 	0.63710 0.83960 0.56830 -0.51700
H 	H 	0.56150 0.85170 0.55610 0.18000
H 	H 	0.65700 0.79480 0.55020 0.17900
C 	C 	0.68780 0.96750 0.57640 -0.52800
H 	H 	0.73970 0.00360 0.56290 0.18300
H 	H 	0.61280 0.98120 0.56430 0.18200
