data_crystal

_cell_length_a 8.31760
_cell_length_b 9.15390
_cell_length_c 12.63020
_cell_angle_alpha 90.00000
_cell_angle_beta  90.00000
_cell_angle_gamma 90.00000

_symmetry_space_group_name_	'P 1'
_symmetry_space_group_name_H-M	'P 1'

loop_
_symmetry_equiv_pos_as_xyz
  x,y,z

loop_
_atom_site_label
_atom_site_type_symbol
_atom_site_fract_x
_atom_site_fract_y
_atom_site_fract_z
_atom_site_charge
V 	V 	0.96867 0.21028 0.00223 1.72500
V 	V 	0.73354 0.55464 0.89431 1.66600
P 	P 	0.25581 0.06551 0.86639 0.55000
O 	O 	0.93420 0.38190 0.91460 -0.65000
O 	O 	0.26450 0.94190 0.94850 -0.62100
O 	O 	0.09770 0.15400 0.87730 -0.61600
O 	O 	0.39990 0.16890 0.88110 -0.62100
O 	O 	0.25860 0.99680 0.75640 -0.56900
O 	O 	0.09820 0.11590 0.08180 -0.86100
V 	V 	0.53133 0.78972 0.50223 1.72400
V 	V 	0.76646 0.44536 0.39431 1.66500
P 	P 	0.24419 0.93449 0.36639 0.55200
O 	O 	0.56580 0.61810 0.41460 -0.65000
O 	O 	0.23550 0.05810 0.44850 -0.62400
O 	O 	0.40230 0.84600 0.37730 -0.61200
O 	O 	0.10010 0.83110 0.38110 -0.62100
O 	O 	0.24140 0.00320 0.25640 -0.56700
O 	O 	0.40180 0.88410 0.58180 -0.86800
V 	V 	0.03133 0.71028 0.49777 1.72200
V 	V 	0.26646 0.05464 0.60569 1.66400
P 	P 	0.74419 0.56551 0.63361 0.55900
O 	O 	0.06580 0.88190 0.58540 -0.65300
O 	O 	0.73550 0.44190 0.55150 -0.62700
O 	O 	0.90230 0.65400 0.62270 -0.60900
O 	O 	0.60010 0.66890 0.61890 -0.61800
O 	O 	0.74140 0.49680 0.74360 -0.57300
O 	O 	0.90180 0.61590 0.41820 -0.86700
V 	V 	0.46867 0.28972 0.99777 1.72100
V 	V 	0.23354 0.94536 0.10569 1.66000
P 	P 	0.75581 0.43449 0.13361 0.56000
O 	O 	0.43420 0.11810 0.08540 -0.64400
O 	O 	0.76450 0.55810 0.05150 -0.62500
O 	O 	0.59770 0.34600 0.12270 -0.61000
O 	O 	0.89990 0.33110 0.11890 -0.61900
O 	O 	0.75860 0.50320 0.24360 -0.57300
O 	O 	0.59820 0.38410 0.91820 -0.87000
