data_crystal

_cell_length_a 12.69100
_cell_length_b 15.54500
_cell_length_c 18.34200
_cell_angle_alpha 90.00000
_cell_angle_beta  90.00000
_cell_angle_gamma 90.00000

_symmetry_space_group_name_	'P 1'
_symmetry_space_group_name_H-M	'P 1'

loop_
_symmetry_equiv_pos_as_xyz
  x,y,z

loop_
_atom_site_label
_atom_site_type_symbol
_atom_site_fract_x
_atom_site_fract_y
_atom_site_fract_z
_atom_site_charge
Cd	Cd	0.18286 0.71257 0.68312 1.20300
C 	C 	0.04880 0.57850 0.72450 0.29600
C 	C 	0.98890 0.49570 0.74080 -0.05700
C 	C 	0.02600 0.41890 0.71310 -0.02900
C 	C 	0.97230 0.34360 0.73100 0.01800
C 	C 	0.85010 0.41790 0.79790 0.01900
C 	C 	0.89860 0.49560 0.78350 -0.02300
C 	C 	0.85210 0.76690 0.40810 0.29400
C 	C 	0.93660 0.75190 0.46420 -0.05400
C 	C 	0.95660 0.67030 0.49120 -0.02900
C 	C 	0.02920 0.66080 0.54630 0.02400
C 	C 	0.06910 0.80500 0.54560 0.02300
C 	C 	0.99530 0.82110 0.49150 -0.02900
N 	N 	0.88580 0.34240 0.77270 -0.22100
N 	N 	0.08390 0.72700 0.57450 -0.20600
O 	O 	0.00550 0.64940 0.73940 -0.35400
O 	O 	0.13770 0.57160 0.69670 -0.40200
O 	O 	0.82300 0.84280 0.39510 -0.35900
O 	O 	0.81170 0.70260 0.37840 -0.38600
H 	H 	0.09874 0.41824 0.67664 0.05600
H 	H 	0.00172 0.27896 0.70985 0.01700
H 	H 	0.77583 0.41588 0.83282 0.02600
H 	H 	0.86612 0.55871 0.80580 0.04400
H 	H 	0.91317 0.61237 0.46776 0.04600
H 	H 	0.04532 0.59440 0.57020 0.01700
H 	H 	0.12030 0.85956 0.56727 0.01400
H 	H 	0.98185 0.88869 0.46924 0.04700
Cd	Cd	0.31714 0.28743 0.18312 1.20400
C 	C 	0.45120 0.42150 0.22450 0.29700
C 	C 	0.51110 0.50430 0.24080 -0.05600
C 	C 	0.47400 0.58110 0.21310 -0.02700
C 	C 	0.52770 0.65640 0.23100 0.01700
C 	C 	0.64990 0.58210 0.29790 0.01900
C 	C 	0.60140 0.50440 0.28350 -0.02300
C 	C 	0.64790 0.23310 0.90810 0.29400
C 	C 	0.56340 0.24810 0.96420 -0.05500
C 	C 	0.54340 0.32970 0.99120 -0.02900
C 	C 	0.47080 0.33920 0.04630 0.02400
C 	C 	0.43090 0.19500 0.04560 0.02200
C 	C 	0.50470 0.17890 0.99150 -0.02800
N 	N 	0.61420 0.65760 0.27270 -0.22000
N 	N 	0.41610 0.27300 0.07450 -0.20600
O 	O 	0.49450 0.35060 0.23940 -0.35400
O 	O 	0.36230 0.42840 0.19670 -0.40200
O 	O 	0.67700 0.15720 0.89510 -0.35900
O 	O 	0.68830 0.29740 0.87840 -0.38600
H 	H 	0.40126 0.58176 0.17664 0.05600
H 	H 	0.49828 0.72104 0.20985 0.01800
H 	H 	0.72417 0.58412 0.33282 0.02600
H 	H 	0.63388 0.44129 0.30580 0.04400
H 	H 	0.58683 0.38763 0.96776 0.04600
H 	H 	0.45468 0.40560 0.07020 0.01800
H 	H 	0.37970 0.14044 0.06727 0.01400
H 	H 	0.51815 0.11131 0.96924 0.04700
Cd	Cd	0.81714 0.21257 0.81688 1.20400
C 	C 	0.95120 0.07850 0.77550 0.29700
C 	C 	0.01110 0.99570 0.75920 -0.05600
C 	C 	0.97400 0.91890 0.78690 -0.02900
C 	C 	0.02770 0.84360 0.76900 0.01800
C 	C 	0.14990 0.91790 0.70210 0.01900
C 	C 	0.10140 0.99560 0.71650 -0.02300
C 	C 	0.14790 0.26690 0.09190 0.29400
C 	C 	0.06340 0.25190 0.03580 -0.05400
C 	C 	0.04340 0.17030 0.00880 -0.02900
C 	C 	0.97080 0.16080 0.95370 0.02400
C 	C 	0.93090 0.30500 0.95440 0.02200
C 	C 	0.00470 0.32110 0.00850 -0.02800
N 	N 	0.11420 0.84240 0.72730 -0.22100
N 	N 	0.91610 0.22700 0.92550 -0.20600
O 	O 	0.99450 0.14940 0.76060 -0.35400
O 	O 	0.86230 0.07160 0.80330 -0.40200
O 	O 	0.17700 0.34280 0.10490 -0.35900
O 	O 	0.18830 0.20260 0.12160 -0.38600
H 	H 	0.90126 0.91824 0.82336 0.05600
H 	H 	0.99828 0.77896 0.79015 0.01700
H 	H 	0.22417 0.91588 0.66718 0.02700
H 	H 	0.13388 0.05871 0.69420 0.04400
H 	H 	0.08683 0.11237 0.03224 0.04600
H 	H 	0.95468 0.09440 0.92980 0.01800
H 	H 	0.87970 0.35956 0.93273 0.01400
H 	H 	0.01815 0.38869 0.03076 0.04700
Cd	Cd	0.68286 0.78743 0.31688 1.20400
C 	C 	0.54880 0.92150 0.27550 0.29700
C 	C 	0.48890 0.00430 0.25920 -0.05600
C 	C 	0.52600 0.08110 0.28690 -0.02700
C 	C 	0.47230 0.15640 0.26900 0.01700
C 	C 	0.35010 0.08210 0.20210 0.01900
C 	C 	0.39860 0.00440 0.21650 -0.02300
C 	C 	0.35210 0.73310 0.59190 0.29400
C 	C 	0.43660 0.74810 0.53580 -0.05500
C 	C 	0.45660 0.82970 0.50880 -0.02800
C 	C 	0.52920 0.83920 0.45370 0.02400
C 	C 	0.56910 0.69500 0.45440 0.02200
C 	C 	0.49530 0.67890 0.50850 -0.02800
N 	N 	0.38580 0.15760 0.22730 -0.22000
N 	N 	0.58390 0.77300 0.42550 -0.20600
O 	O 	0.50550 0.85060 0.26060 -0.35400
O 	O 	0.63770 0.92840 0.30330 -0.40200
O 	O 	0.32300 0.65720 0.60490 -0.35900
O 	O 	0.31170 0.79740 0.62160 -0.38600
H 	H 	0.59874 0.08176 0.32336 0.05600
H 	H 	0.50172 0.22104 0.29015 0.01800
H 	H 	0.27583 0.08412 0.16718 0.02600
H 	H 	0.36612 0.94129 0.19420 0.04400
H 	H 	0.41317 0.88763 0.53224 0.04600
H 	H 	0.54532 0.90560 0.42980 0.01800
H 	H 	0.62030 0.64044 0.43273 0.01400
H 	H 	0.48185 0.61131 0.53076 0.04700
Cd	Cd	0.81714 0.28743 0.31688 1.20400
C 	C 	0.95120 0.42150 0.27550 0.29700
C 	C 	0.01110 0.50430 0.25920 -0.05600
C 	C 	0.97400 0.58110 0.28690 -0.02800
C 	C 	0.02770 0.65640 0.26900 0.01800
C 	C 	0.14990 0.58210 0.20210 0.01900
C 	C 	0.10140 0.50440 0.21650 -0.02300
C 	C 	0.14790 0.23310 0.59190 0.29400
C 	C 	0.06340 0.24810 0.53580 -0.05400
C 	C 	0.04340 0.32970 0.50880 -0.02900
C 	C 	0.97080 0.33920 0.45370 0.02400
C 	C 	0.93090 0.19500 0.45440 0.02300
C 	C 	0.00470 0.17890 0.50850 -0.02900
N 	N 	0.11420 0.65760 0.22730 -0.22100
N 	N 	0.91610 0.27300 0.42550 -0.20600
O 	O 	0.99450 0.35060 0.26060 -0.35400
O 	O 	0.86230 0.42840 0.30330 -0.40200
O 	O 	0.17700 0.15720 0.60490 -0.35900
O 	O 	0.18830 0.29740 0.62160 -0.38600
H 	H 	0.90126 0.58176 0.32336 0.05600
H 	H 	0.99828 0.72104 0.29015 0.01700
H 	H 	0.22417 0.58412 0.16718 0.02600
H 	H 	0.13388 0.44129 0.19420 0.04400
H 	H 	0.08683 0.38763 0.53224 0.04600
H 	H 	0.95468 0.40560 0.42980 0.01700
H 	H 	0.87970 0.14044 0.43273 0.01400
H 	H 	0.01815 0.11131 0.53076 0.04700
Cd	Cd	0.68286 0.71257 0.81688 1.20400
C 	C 	0.54880 0.57850 0.77550 0.29700
C 	C 	0.48890 0.49570 0.75920 -0.05600
C 	C 	0.52600 0.41890 0.78690 -0.02700
C 	C 	0.47230 0.34360 0.76900 0.01700
C 	C 	0.35010 0.41790 0.70210 0.01900
C 	C 	0.39860 0.49560 0.71650 -0.02300
C 	C 	0.35210 0.76690 0.09190 0.29400
C 	C 	0.43660 0.75190 0.03580 -0.05500
C 	C 	0.45660 0.67030 0.00880 -0.02900
C 	C 	0.52920 0.66080 0.95370 0.02400
C 	C 	0.56910 0.80500 0.95440 0.02200
C 	C 	0.49530 0.82110 0.00850 -0.02800
N 	N 	0.38580 0.34240 0.72730 -0.22000
N 	N 	0.58390 0.72700 0.92550 -0.20600
O 	O 	0.50550 0.64940 0.76060 -0.35400
O 	O 	0.63770 0.57160 0.80330 -0.40200
O 	O 	0.32300 0.84280 0.10490 -0.35900
O 	O 	0.31170 0.70260 0.12160 -0.38600
H 	H 	0.59874 0.41824 0.82336 0.05600
H 	H 	0.50172 0.27896 0.79015 0.01800
H 	H 	0.27583 0.41588 0.66718 0.02600
H 	H 	0.36612 0.55871 0.69420 0.04400
H 	H 	0.41317 0.61237 0.03224 0.04600
H 	H 	0.54532 0.59440 0.92980 0.01800
H 	H 	0.62030 0.85956 0.93273 0.01400
H 	H 	0.48185 0.88869 0.03076 0.04700
Cd	Cd	0.18286 0.78743 0.18312 1.20400
C 	C 	0.04880 0.92150 0.22450 0.29700
C 	C 	0.98890 0.00430 0.24080 -0.05600
C 	C 	0.02600 0.08110 0.21310 -0.02900
C 	C 	0.97230 0.15640 0.23100 0.01800
C 	C 	0.85010 0.08210 0.29790 0.01900
C 	C 	0.89860 0.00440 0.28350 -0.02300
C 	C 	0.85210 0.73310 0.90810 0.29400
C 	C 	0.93660 0.74810 0.96420 -0.05400
C 	C 	0.95660 0.82970 0.99120 -0.02900
C 	C 	0.02920 0.83920 0.04630 0.02400
C 	C 	0.06910 0.69500 0.04560 0.02200
C 	C 	0.99530 0.67890 0.99150 -0.02800
N 	N 	0.88580 0.15760 0.27270 -0.22100
N 	N 	0.08390 0.77300 0.07450 -0.20600
O 	O 	0.00550 0.85060 0.23940 -0.35400
O 	O 	0.13770 0.92840 0.19670 -0.40200
O 	O 	0.82300 0.65720 0.89510 -0.35900
O 	O 	0.81170 0.79740 0.87840 -0.38600
H 	H 	0.09874 0.08176 0.17664 0.05600
H 	H 	0.00172 0.22104 0.20985 0.01700
H 	H 	0.77583 0.08412 0.33282 0.02700
H 	H 	0.86612 0.94129 0.30580 0.04400
H 	H 	0.91317 0.88763 0.96776 0.04600
H 	H 	0.04532 0.90560 0.07020 0.01800
H 	H 	0.12030 0.64044 0.06727 0.01400
H 	H 	0.98185 0.61131 0.96924 0.04700
Cd	Cd	0.31714 0.21257 0.68312 1.20400
C 	C 	0.45120 0.07850 0.72450 0.29700
C 	C 	0.51110 0.99570 0.74080 -0.05600
C 	C 	0.47400 0.91890 0.71310 -0.02700
C 	C 	0.52770 0.84360 0.73100 0.01700
C 	C 	0.64990 0.91790 0.79790 0.01900
C 	C 	0.60140 0.99560 0.78350 -0.02300
C 	C 	0.64790 0.26690 0.40810 0.29400
C 	C 	0.56340 0.25190 0.46420 -0.05500
C 	C 	0.54340 0.17030 0.49120 -0.02800
C 	C 	0.47080 0.16080 0.54630 0.02400
C 	C 	0.43090 0.30500 0.54560 0.02200
C 	C 	0.50470 0.32110 0.49150 -0.02800
N 	N 	0.61420 0.84240 0.77270 -0.22000
N 	N 	0.41610 0.22700 0.57450 -0.20600
O 	O 	0.49450 0.14940 0.73940 -0.35400
O 	O 	0.36230 0.07160 0.69670 -0.40200
O 	O 	0.67700 0.34280 0.39510 -0.35900
O 	O 	0.68830 0.20260 0.37840 -0.38600
H 	H 	0.40126 0.91824 0.67664 0.05600
H 	H 	0.49828 0.77896 0.70985 0.01800
H 	H 	0.72417 0.91588 0.83282 0.02600
H 	H 	0.63388 0.05871 0.80580 0.04400
H 	H 	0.58683 0.11237 0.46776 0.04600
H 	H 	0.45468 0.09440 0.57020 0.01800
H 	H 	0.37970 0.35956 0.56727 0.01400
H 	H 	0.51815 0.38869 0.46924 0.04700
