data_crystal

_cell_length_a 12.08100
_cell_length_b 15.32300
_cell_length_c 19.70500
_cell_angle_alpha 90.00000
_cell_angle_beta  90.00000
_cell_angle_gamma 90.00000

_symmetry_space_group_name_	'P 1'
_symmetry_space_group_name_H-M	'P 1'

loop_
_symmetry_equiv_pos_as_xyz
  x,y,z

loop_
_atom_site_label
_atom_site_type_symbol
_atom_site_fract_x
_atom_site_fract_y
_atom_site_fract_z
_atom_site_charge
Cd	Cd	0.68885 0.27225 0.17872 1.20400
C 	C 	0.55500 0.40857 0.22136 0.30100
C 	C 	0.49370 0.49003 0.24227 -0.05900
C 	C 	0.41540 0.48827 0.29337 -0.02900
C 	C 	0.36580 0.56552 0.31236 0.02400
C 	C 	0.46290 0.64345 0.23317 0.01400
C 	C 	0.51790 0.56885 0.21131 -0.03000
C 	C 	0.36500 0.25560 0.90507 0.29500
C 	C 	0.44990 0.26403 0.96059 -0.05700
C 	C 	0.45230 0.33690 0.00135 -0.02800
C 	C 	0.52200 0.33870 0.05735 0.02300
C 	C 	0.58900 0.20290 0.03207 0.01900
C 	C 	0.52120 0.19650 0.97631 -0.02600
N 	N 	0.38850 0.64256 0.28364 -0.22400
N 	N 	0.58900 0.27242 0.07367 -0.20200
O 	O 	0.51090 0.33596 0.23066 -0.36900
O 	O 	0.64758 0.41786 0.19421 -0.39300
O 	O 	0.31535 0.32266 0.88600 -0.37300
O 	O 	0.34470 0.18063 0.88302 -0.37900
H 	H 	0.39306 0.42385 0.31886 0.05300
H 	H 	0.30153 0.56597 0.35472 0.02700
H 	H 	0.48037 0.70895 0.20791 0.01200
H 	H 	0.58181 0.57168 0.16880 0.05700
H 	H 	0.39730 0.39525 0.98904 0.04600
H 	H 	0.52379 0.39850 0.09175 0.01900
H 	H 	0.64873 0.14767 0.04477 0.01900
H 	H 	0.52368 0.13566 0.94305 0.04400
Cd	Cd	0.81115 0.72775 0.67872 1.20500
C 	C 	0.94500 0.59143 0.72136 0.30200
C 	C 	0.00630 0.50997 0.74227 -0.05800
C 	C 	0.08460 0.51173 0.79337 -0.02800
C 	C 	0.13420 0.43448 0.81236 0.02500
C 	C 	0.03710 0.35655 0.73317 0.01500
C 	C 	0.98210 0.43115 0.71131 -0.02900
C 	C 	0.13500 0.74440 0.40507 0.29600
C 	C 	0.05010 0.73597 0.46059 -0.05600
C 	C 	0.04770 0.66310 0.50135 -0.02700
C 	C 	0.97800 0.66130 0.55735 0.02300
C 	C 	0.91100 0.79710 0.53207 0.02100
C 	C 	0.97880 0.80350 0.47631 -0.02500
N 	N 	0.11150 0.35744 0.78364 -0.22300
N 	N 	0.91100 0.72758 0.57367 -0.20200
O 	O 	0.98910 0.66404 0.73066 -0.36900
O 	O 	0.85242 0.58214 0.69421 -0.39300
O 	O 	0.18465 0.67734 0.38600 -0.37300
O 	O 	0.15530 0.81937 0.38302 -0.37900
H 	H 	0.10694 0.57615 0.81886 0.05300
H 	H 	0.19847 0.43403 0.85472 0.02700
H 	H 	0.01963 0.29105 0.70791 0.01200
H 	H 	0.91819 0.42832 0.66880 0.05700
H 	H 	0.10270 0.60475 0.48904 0.04500
H 	H 	0.97621 0.60150 0.59175 0.01900
H 	H 	0.85127 0.85233 0.54477 0.01900
H 	H 	0.97632 0.86434 0.44305 0.04400
Cd	Cd	0.31115 0.77225 0.32128 1.20500
C 	C 	0.44500 0.90857 0.27864 0.30200
C 	C 	0.50630 0.99003 0.25773 -0.05800
C 	C 	0.58460 0.98827 0.20663 -0.02700
C 	C 	0.63420 0.06552 0.18764 0.02500
C 	C 	0.53710 0.14345 0.26683 0.01500
C 	C 	0.48210 0.06885 0.28869 -0.02900
C 	C 	0.63500 0.75560 0.59493 0.29600
C 	C 	0.55010 0.76403 0.53941 -0.05600
C 	C 	0.54770 0.83690 0.49865 -0.02700
C 	C 	0.47800 0.83870 0.44265 0.02400
C 	C 	0.41100 0.70290 0.46793 0.02100
C 	C 	0.47880 0.69650 0.52369 -0.02500
N 	N 	0.61150 0.14256 0.21636 -0.22300
N 	N 	0.41100 0.77242 0.42633 -0.20200
O 	O 	0.48910 0.83596 0.26934 -0.36900
O 	O 	0.35242 0.91786 0.30579 -0.39300
O 	O 	0.68465 0.82266 0.61400 -0.37300
O 	O 	0.65530 0.68063 0.61698 -0.37900
H 	H 	0.60694 0.92385 0.18114 0.05300
H 	H 	0.69847 0.06597 0.14528 0.02700
H 	H 	0.51963 0.20895 0.29209 0.01200
H 	H 	0.41819 0.07168 0.33120 0.05700
H 	H 	0.60270 0.89525 0.51096 0.04500
H 	H 	0.47621 0.89850 0.40825 0.01900
H 	H 	0.35127 0.64767 0.45523 0.01900
H 	H 	0.47632 0.63566 0.55695 0.04400
Cd	Cd	0.18885 0.22775 0.82128 1.20500
C 	C 	0.05500 0.09143 0.77864 0.30100
C 	C 	0.99370 0.00997 0.75773 -0.05800
C 	C 	0.91540 0.01173 0.70663 -0.02700
C 	C 	0.86580 0.93448 0.68764 0.02500
C 	C 	0.96290 0.85655 0.76683 0.01500
C 	C 	0.01790 0.93115 0.78869 -0.02900
C 	C 	0.86500 0.24440 0.09493 0.29600
C 	C 	0.94990 0.23597 0.03941 -0.05600
C 	C 	0.95230 0.16310 0.99865 -0.02600
C 	C 	0.02200 0.16130 0.94265 0.02300
C 	C 	0.08900 0.29710 0.96793 0.02100
C 	C 	0.02120 0.30350 0.02369 -0.02600
N 	N 	0.88850 0.85744 0.71636 -0.22300
N 	N 	0.08900 0.22758 0.92633 -0.20200
O 	O 	0.01090 0.16404 0.76934 -0.36900
O 	O 	0.14758 0.08214 0.80579 -0.39300
O 	O 	0.81535 0.17734 0.11400 -0.37300
O 	O 	0.84470 0.31937 0.11698 -0.37900
H 	H 	0.89306 0.07615 0.68114 0.05300
H 	H 	0.80153 0.93403 0.64528 0.02700
H 	H 	0.98037 0.79105 0.79209 0.01200
H 	H 	0.08181 0.92832 0.83120 0.05700
H 	H 	0.89730 0.10475 0.01096 0.04500
H 	H 	0.02379 0.10150 0.90825 0.01900
H 	H 	0.14873 0.35233 0.95523 0.01900
H 	H 	0.02368 0.36434 0.05695 0.04400
Cd	Cd	0.31115 0.72775 0.82128 1.20500
C 	C 	0.44500 0.59143 0.77864 0.30200
C 	C 	0.50630 0.50997 0.75773 -0.05800
C 	C 	0.58460 0.51173 0.70663 -0.02800
C 	C 	0.63420 0.43448 0.68764 0.02500
C 	C 	0.53710 0.35655 0.76683 0.01500
C 	C 	0.48210 0.43115 0.78869 -0.02900
C 	C 	0.63500 0.74440 0.09493 0.29600
C 	C 	0.55010 0.73597 0.03941 -0.05600
C 	C 	0.54770 0.66310 0.99865 -0.02700
C 	C 	0.47800 0.66130 0.94265 0.02400
C 	C 	0.41100 0.79710 0.96793 0.02000
C 	C 	0.47880 0.80350 0.02369 -0.02500
N 	N 	0.61150 0.35744 0.71636 -0.22300
N 	N 	0.41100 0.72758 0.92633 -0.20200
O 	O 	0.48910 0.66404 0.76934 -0.36900
O 	O 	0.35242 0.58214 0.80579 -0.39300
O 	O 	0.68465 0.67734 0.11400 -0.37300
O 	O 	0.65530 0.81937 0.11698 -0.37900
H 	H 	0.60694 0.57615 0.68114 0.05300
H 	H 	0.69847 0.43403 0.64528 0.02700
H 	H 	0.51963 0.29105 0.79209 0.01200
H 	H 	0.41819 0.42832 0.83120 0.05700
H 	H 	0.60270 0.60475 0.01096 0.04600
H 	H 	0.47621 0.60150 0.90825 0.01900
H 	H 	0.35127 0.85233 0.95523 0.01900
H 	H 	0.47632 0.86434 0.05695 0.04400
Cd	Cd	0.18885 0.27225 0.32128 1.20500
C 	C 	0.05500 0.40857 0.27864 0.30200
C 	C 	0.99370 0.49003 0.25773 -0.05800
C 	C 	0.91540 0.48827 0.20663 -0.02800
C 	C 	0.86580 0.56552 0.18764 0.02500
C 	C 	0.96290 0.64345 0.26683 0.01500
C 	C 	0.01790 0.56885 0.28869 -0.02900
C 	C 	0.86500 0.25560 0.59493 0.29600
C 	C 	0.94990 0.26403 0.53941 -0.05600
C 	C 	0.95230 0.33690 0.49865 -0.02700
C 	C 	0.02200 0.33870 0.44265 0.02300
C 	C 	0.08900 0.20290 0.46793 0.02100
C 	C 	0.02120 0.19650 0.52369 -0.02500
N 	N 	0.88850 0.64256 0.21636 -0.22300
N 	N 	0.08900 0.27242 0.42633 -0.20200
O 	O 	0.01090 0.33596 0.26934 -0.36900
O 	O 	0.14758 0.41786 0.30579 -0.39300
O 	O 	0.81535 0.32266 0.61400 -0.37300
O 	O 	0.84470 0.18063 0.61698 -0.37900
H 	H 	0.89306 0.42385 0.18114 0.05300
H 	H 	0.80153 0.56597 0.14528 0.02700
H 	H 	0.98037 0.70895 0.29209 0.01200
H 	H 	0.08181 0.57168 0.33120 0.05700
H 	H 	0.89730 0.39525 0.51096 0.04500
H 	H 	0.02379 0.39850 0.40825 0.01900
H 	H 	0.14873 0.14767 0.45523 0.01900
H 	H 	0.02368 0.13566 0.55695 0.04400
Cd	Cd	0.68885 0.22775 0.67872 1.20500
C 	C 	0.55500 0.09143 0.72136 0.30200
C 	C 	0.49370 0.00997 0.74227 -0.05800
C 	C 	0.41540 0.01173 0.79337 -0.02700
C 	C 	0.36580 0.93448 0.81236 0.02500
C 	C 	0.46290 0.85655 0.73317 0.01500
C 	C 	0.51790 0.93115 0.71131 -0.02900
C 	C 	0.36500 0.24440 0.40507 0.29600
C 	C 	0.44990 0.23597 0.46059 -0.05600
C 	C 	0.45230 0.16310 0.50135 -0.02700
C 	C 	0.52200 0.16130 0.55735 0.02400
C 	C 	0.58900 0.29710 0.53207 0.02100
C 	C 	0.52120 0.30350 0.47631 -0.02500
N 	N 	0.38850 0.85744 0.78364 -0.22300
N 	N 	0.58900 0.22758 0.57367 -0.20200
O 	O 	0.51090 0.16404 0.73066 -0.36900
O 	O 	0.64758 0.08214 0.69421 -0.39300
O 	O 	0.31535 0.17734 0.38600 -0.37300
O 	O 	0.34470 0.31937 0.38302 -0.37900
H 	H 	0.39306 0.07615 0.81886 0.05300
H 	H 	0.30153 0.93403 0.85472 0.02700
H 	H 	0.48037 0.79105 0.70791 0.01200
H 	H 	0.58181 0.92832 0.66880 0.05700
H 	H 	0.39730 0.10475 0.48904 0.04500
H 	H 	0.52379 0.10150 0.59175 0.01900
H 	H 	0.64873 0.35233 0.54477 0.01900
H 	H 	0.52368 0.36434 0.44305 0.04400
Cd	Cd	0.81115 0.77225 0.17872 1.20500
C 	C 	0.94500 0.90857 0.22136 0.30100
C 	C 	0.00630 0.99003 0.24227 -0.05800
C 	C 	0.08460 0.98827 0.29337 -0.02700
C 	C 	0.13420 0.06552 0.31236 0.02500
C 	C 	0.03710 0.14345 0.23317 0.01500
C 	C 	0.98210 0.06885 0.21131 -0.02900
C 	C 	0.13500 0.75560 0.90507 0.29600
C 	C 	0.05010 0.76403 0.96059 -0.05600
C 	C 	0.04770 0.83690 0.00135 -0.02600
C 	C 	0.97800 0.83870 0.05735 0.02300
C 	C 	0.91100 0.70290 0.03207 0.02100
C 	C 	0.97880 0.69650 0.97631 -0.02600
N 	N 	0.11150 0.14256 0.28364 -0.22300
N 	N 	0.91100 0.77242 0.07367 -0.20200
O 	O 	0.98910 0.83596 0.23066 -0.36900
O 	O 	0.85242 0.91786 0.19421 -0.39300
O 	O 	0.18465 0.82266 0.88600 -0.37300
O 	O 	0.15530 0.68063 0.88302 -0.37900
H 	H 	0.10694 0.92385 0.31886 0.05300
H 	H 	0.19847 0.06597 0.35472 0.02700
H 	H 	0.01963 0.20895 0.20791 0.01200
H 	H 	0.91819 0.07168 0.16880 0.05700
H 	H 	0.10270 0.89525 0.98904 0.04500
H 	H 	0.97621 0.89850 0.09175 0.01900
H 	H 	0.85127 0.64767 0.04477 0.01900
H 	H 	0.97632 0.63566 0.94305 0.04400
