data_crystal

_cell_length_a 16.79630
_cell_length_b 16.79630
_cell_length_c 16.79630
_cell_angle_alpha 90.00000
_cell_angle_beta  90.00000
_cell_angle_gamma 90.00000

_symmetry_space_group_name_	'P 1'
_symmetry_space_group_name_H-M	'P 1'

loop_
_symmetry_equiv_pos_as_xyz
  x,y,z

loop_
_atom_site_label
_atom_site_type_symbol
_atom_site_fract_x
_atom_site_fract_y
_atom_site_fract_z
_atom_site_charge
O 	O 	0.90960 0.48000 0.19410 -0.56200
O 	O 	0.40960 0.98000 0.69410 -0.44700
O 	O 	0.09040 0.52000 0.19410 -0.91900
O 	O 	0.59040 0.02000 0.69410 -0.94000
O 	O 	0.09040 0.48000 0.80590 -0.86000
O 	O 	0.59040 0.98000 0.30590 -0.46000
O 	O 	0.90960 0.52000 0.80590 -0.50900
O 	O 	0.40960 0.02000 0.30590 -1.00500
O 	O 	0.19410 0.90960 0.48000 -0.56300
O 	O 	0.69410 0.40960 0.98000 -0.44800
O 	O 	0.19410 0.09040 0.52000 -0.92000
O 	O 	0.69410 0.59040 0.02000 -0.94000
O 	O 	0.80590 0.09040 0.48000 -0.86000
O 	O 	0.30590 0.59040 0.98000 -0.46000
O 	O 	0.80590 0.90960 0.52000 -0.50900
O 	O 	0.30590 0.40960 0.02000 -1.00500
O 	O 	0.48000 0.19410 0.90960 -0.56300
O 	O 	0.98000 0.69410 0.40960 -0.44800
O 	O 	0.52000 0.19410 0.09040 -0.92000
O 	O 	0.02000 0.69410 0.59040 -0.94000
O 	O 	0.48000 0.80590 0.09040 -0.86000
O 	O 	0.98000 0.30590 0.59040 -0.46000
O 	O 	0.52000 0.80590 0.90960 -0.50900
O 	O 	0.02000 0.30590 0.40960 -1.00500
O 	O 	0.48000 0.90960 0.19410 -0.56300
O 	O 	0.98000 0.40960 0.69410 -0.44800
O 	O 	0.52000 0.09040 0.19410 -0.92000
O 	O 	0.02000 0.59040 0.69410 -0.94000
O 	O 	0.48000 0.09040 0.80590 -0.86000
O 	O 	0.98000 0.59040 0.30590 -0.46000
O 	O 	0.52000 0.90960 0.80590 -0.50900
O 	O 	0.02000 0.40960 0.30590 -1.00500
O 	O 	0.90960 0.19410 0.48000 -0.56300
O 	O 	0.40960 0.69410 0.98000 -0.44800
O 	O 	0.09040 0.19410 0.52000 -0.92000
O 	O 	0.59040 0.69410 0.02000 -0.94000
O 	O 	0.09040 0.80590 0.48000 -0.86000
O 	O 	0.59040 0.30590 0.98000 -0.46000
O 	O 	0.90960 0.80590 0.52000 -0.50900
O 	O 	0.40960 0.30590 0.02000 -1.00500
O 	O 	0.19410 0.48000 0.90960 -0.56300
O 	O 	0.69410 0.98000 0.40960 -0.44800
O 	O 	0.19410 0.52000 0.09040 -0.92000
O 	O 	0.69410 0.02000 0.59040 -0.94000
O 	O 	0.80590 0.48000 0.09040 -0.86000
O 	O 	0.30590 0.98000 0.59040 -0.46000
O 	O 	0.80590 0.52000 0.90960 -0.50900
O 	O 	0.30590 0.02000 0.40960 -1.00500
Al	Al	-0.00000 0.50000 -0.00000 2.32800
Al	Al	0.50000 0.00000 0.50000 2.36200
Al	Al	0.00000 0.00000 0.50000 2.32800
Al	Al	0.50000 0.50000 -0.00000 2.36200
Al	Al	0.50000 0.00000 -0.00000 2.32800
Al	Al	0.00000 0.50000 0.50000 2.36200
P 	P 	0.87780 0.43360 0.12220 0.69900
O 	O 	0.85900 0.34710 0.14100 -0.27700
O 	O 	0.94250 0.43740 0.05750 -0.80500
P 	P 	0.37780 0.93360 0.62220 0.68900
O 	O 	0.35900 0.84710 0.64100 -0.18500
O 	O 	0.44250 0.93740 0.55750 -0.59700
P 	P 	0.12220 0.56640 0.12220 0.70200
O 	O 	0.14100 0.65290 0.14100 -0.43200
O 	O 	0.05750 0.56260 0.05750 -1.24500
P 	P 	0.62220 0.06640 0.62220 0.71600
O 	O 	0.64100 0.15290 0.64100 -0.25200
O 	O 	0.55750 0.06260 0.55750 -1.00600
P 	P 	0.12220 0.43360 0.87780 0.69900
O 	O 	0.14100 0.34710 0.85900 -0.27700
O 	O 	0.05750 0.43740 0.94250 -0.80500
P 	P 	0.62220 0.93360 0.37780 0.68900
O 	O 	0.64100 0.84710 0.35900 -0.18500
O 	O 	0.55750 0.93740 0.44250 -0.59700
P 	P 	0.87780 0.56640 0.87780 0.69500
O 	O 	0.85900 0.65290 0.85900 0.03200
O 	O 	0.94250 0.56260 0.94250 -0.31500
P 	P 	0.37780 0.06640 0.37780 0.70800
O 	O 	0.35900 0.15290 0.35900 -0.33500
O 	O 	0.44250 0.06260 0.44250 -1.00700
P 	P 	0.12220 0.87780 0.43360 0.69900
O 	O 	0.14100 0.85900 0.34710 -0.27700
O 	O 	0.05750 0.94250 0.43740 -0.80500
P 	P 	0.62220 0.37780 0.93360 0.68900
O 	O 	0.64100 0.35900 0.84710 -0.18500
O 	O 	0.55750 0.44250 0.93740 -0.59700
P 	P 	0.12220 0.12220 0.56640 0.70200
O 	O 	0.14100 0.14100 0.65290 -0.43200
O 	O 	0.05750 0.05750 0.56260 -1.24500
P 	P 	0.62220 0.62220 0.06640 0.71600
O 	O 	0.64100 0.64100 0.15290 -0.25200
O 	O 	0.55750 0.55750 0.06260 -1.00600
P 	P 	0.87780 0.12220 0.43360 0.69900
O 	O 	0.85900 0.14100 0.34710 -0.27700
O 	O 	0.94250 0.05750 0.43740 -0.80500
P 	P 	0.37780 0.62220 0.93360 0.68900
O 	O 	0.35900 0.64100 0.84710 -0.18500
O 	O 	0.44250 0.55750 0.93740 -0.59700
P 	P 	0.87780 0.87780 0.56640 0.69500
O 	O 	0.85900 0.85900 0.65290 0.03200
O 	O 	0.94250 0.94250 0.56260 -0.31500
P 	P 	0.37780 0.37780 0.06640 0.70800
O 	O 	0.35900 0.35900 0.15290 -0.33500
O 	O 	0.44250 0.44250 0.06260 -1.00700
P 	P 	0.43360 0.12220 0.87780 0.69900
O 	O 	0.34710 0.14100 0.85900 -0.27700
O 	O 	0.43740 0.05750 0.94250 -0.80500
P 	P 	0.93360 0.62220 0.37780 0.68900
O 	O 	0.84710 0.64100 0.35900 -0.18500
O 	O 	0.93740 0.55750 0.44250 -0.59700
P 	P 	0.56640 0.12220 0.12220 0.70200
O 	O 	0.65290 0.14100 0.14100 -0.43200
O 	O 	0.56260 0.05750 0.05750 -1.24500
P 	P 	0.06640 0.62220 0.62220 0.71600
O 	O 	0.15290 0.64100 0.64100 -0.25200
O 	O 	0.06260 0.55750 0.55750 -1.00600
P 	P 	0.43360 0.87780 0.12220 0.69900
O 	O 	0.34710 0.85900 0.14100 -0.27700
O 	O 	0.43740 0.94250 0.05750 -0.80500
P 	P 	0.93360 0.37780 0.62220 0.68900
O 	O 	0.84710 0.35900 0.64100 -0.18500
O 	O 	0.93740 0.44250 0.55750 -0.59700
P 	P 	0.56640 0.87780 0.87780 0.69500
O 	O 	0.65290 0.85900 0.85900 0.03200
O 	O 	0.56260 0.94250 0.94250 -0.31500
P 	P 	0.06640 0.37780 0.37780 0.70800
O 	O 	0.15290 0.35900 0.35900 -0.33500
O 	O 	0.06260 0.44250 0.44250 -1.00700
Al	Al	0.00000 0.50000 0.25000 2.35200
Al	Al	-0.00000 0.50000 0.75000 2.35300
Al	Al	0.50000 0.00000 0.25000 2.35200
Al	Al	0.25000 0.00000 0.50000 2.35200
Al	Al	0.75000 0.00000 0.50000 2.35300
Al	Al	0.25000 0.50000 -0.00000 2.35200
Al	Al	0.50000 0.25000 -0.00000 2.35200
Al	Al	0.50000 0.75000 -0.00000 2.35300
Al	Al	0.00000 0.25000 0.50000 2.35200
Al	Al	0.50000 0.00000 0.75000 2.35300
Al	Al	-0.00000 0.75000 0.50000 2.35300
Al	Al	0.75000 0.50000 -0.00000 2.35300
