data_crystal

_cell_length_a 16.77050
_cell_length_b 16.77050
_cell_length_c 16.77050
_cell_angle_alpha 90.00000
_cell_angle_beta  90.00000
_cell_angle_gamma 90.00000

_symmetry_space_group_name_	'P 1'
_symmetry_space_group_name_H-M	'P 1'

loop_
_symmetry_equiv_pos_as_xyz
  x,y,z

loop_
_atom_site_label
_atom_site_type_symbol
_atom_site_fract_x
_atom_site_fract_y
_atom_site_fract_z
_atom_site_charge
O 	O 	0.98002 0.40658 0.69634 -0.43700
O 	O 	0.48002 0.90658 0.19634 -0.55500
O 	O 	0.01998 0.59342 0.69634 -0.92600
O 	O 	0.51998 0.09342 0.19634 -0.90300
O 	O 	0.01998 0.40658 0.30366 -0.99300
O 	O 	0.51998 0.90658 0.80366 -0.50300
O 	O 	0.98002 0.59342 0.30366 -0.44900
O 	O 	0.48002 0.09342 0.80366 -0.84400
O 	O 	0.69634 0.98002 0.40658 -0.43600
O 	O 	0.19634 0.48002 0.90658 -0.55400
O 	O 	0.69634 0.01998 0.59342 -0.92500
O 	O 	0.19634 0.51998 0.09342 -0.90200
O 	O 	0.30366 0.01998 0.40658 -0.99200
O 	O 	0.80366 0.51998 0.90658 -0.50200
O 	O 	0.30366 0.98002 0.59342 -0.44900
O 	O 	0.80366 0.48002 0.09342 -0.84400
O 	O 	0.40658 0.69634 0.98002 -0.43600
O 	O 	0.90658 0.19634 0.48002 -0.55400
O 	O 	0.59342 0.69634 0.01998 -0.92500
O 	O 	0.09342 0.19634 0.51998 -0.90200
O 	O 	0.40658 0.30366 0.01998 -0.99200
O 	O 	0.90658 0.80366 0.51998 -0.50200
O 	O 	0.59342 0.30366 0.98002 -0.44900
O 	O 	0.09342 0.80366 0.48002 -0.84400
O 	O 	0.40658 0.98002 0.69634 -0.43600
O 	O 	0.90658 0.48002 0.19634 -0.55400
O 	O 	0.59342 0.01998 0.69634 -0.92500
O 	O 	0.09342 0.51998 0.19634 -0.90200
O 	O 	0.40658 0.01998 0.30366 -0.99200
O 	O 	0.90658 0.51998 0.80366 -0.50200
O 	O 	0.59342 0.98002 0.30366 -0.44900
O 	O 	0.09342 0.48002 0.80366 -0.84400
O 	O 	0.98002 0.69634 0.40658 -0.43600
O 	O 	0.48002 0.19634 0.90658 -0.55400
O 	O 	0.01998 0.69634 0.59342 -0.92500
O 	O 	0.51998 0.19634 0.09342 -0.90200
O 	O 	0.01998 0.30366 0.40658 -0.99200
O 	O 	0.51998 0.80366 0.90658 -0.50200
O 	O 	0.98002 0.30366 0.59342 -0.44900
O 	O 	0.48002 0.80366 0.09342 -0.84400
O 	O 	0.69634 0.40658 0.98002 -0.43600
O 	O 	0.19634 0.90658 0.48002 -0.55400
O 	O 	0.69634 0.59342 0.01998 -0.92500
O 	O 	0.19634 0.09342 0.51998 -0.90200
O 	O 	0.30366 0.40658 0.01998 -0.99200
O 	O 	0.80366 0.90658 0.51998 -0.50200
O 	O 	0.30366 0.59342 0.98002 -0.44900
O 	O 	0.80366 0.09342 0.48002 -0.84400
Al	Al	0.00000 0.50000 0.50000 2.35900
Al	Al	0.50000 0.00000 -0.00000 2.32500
Al	Al	0.50000 0.00000 0.50000 2.35900
Al	Al	-0.00000 0.50000 -0.00000 2.32500
Al	Al	0.50000 0.50000 -0.00000 2.35900
Al	Al	0.00000 0.00000 0.50000 2.32500
Al	Al	-0.00000 0.50000 0.75000 2.35000
Al	Al	-0.00000 0.50000 0.25000 2.34800
Al	Al	0.75000 0.00000 0.50000 2.35000
Al	Al	0.25000 0.00000 0.50000 2.34800
Al	Al	0.50000 0.75000 -0.00000 2.35000
Al	Al	0.50000 0.25000 -0.00000 2.34800
Al	Al	0.50000 -0.00000 0.75000 2.35000
Al	Al	0.50000 0.00000 0.25000 2.34800
Al	Al	-0.00000 0.75000 0.50000 2.35000
Al	Al	-0.00000 0.25000 0.50000 2.34800
Al	Al	0.75000 0.50000 -0.00000 2.35000
Al	Al	0.25000 0.50000 -0.00000 2.34800
P 	P 	0.93327 0.37690 0.62310 0.66900
O 	O 	0.84816 0.35684 0.64316 -0.18500
O 	O 	0.93621 0.44192 0.55808 -0.59800
P 	P 	0.43327 0.87690 0.12310 0.67700
O 	O 	0.34816 0.85684 0.14316 -0.27600
O 	O 	0.43621 0.94192 0.05808 -0.80600
P 	P 	0.06673 0.62310 0.62310 0.68800
O 	O 	0.15184 0.64316 0.64316 -0.24900
O 	O 	0.06379 0.55808 0.55808 -1.00500
P 	P 	0.56673 0.12310 0.12310 0.67300
O 	O 	0.65184 0.14316 0.14316 -0.42800
O 	O 	0.56379 0.05808 0.05808 -1.24700
P 	P 	0.06673 0.37690 0.37690 0.68300
O 	O 	0.15184 0.35684 0.35684 -0.33300
O 	O 	0.06379 0.44192 0.44192 -1.00700
P 	P 	0.56673 0.87690 0.87690 0.67800
O 	O 	0.65184 0.85684 0.85684 0.02900
O 	O 	0.56379 0.94192 0.94192 -0.31400
P 	P 	0.93327 0.62310 0.37690 0.66900
O 	O 	0.84816 0.64316 0.35684 -0.18500
O 	O 	0.93621 0.55808 0.44192 -0.59800
P 	P 	0.43327 0.12310 0.87690 0.67700
O 	O 	0.34816 0.14316 0.85684 -0.27600
O 	O 	0.43621 0.05808 0.94192 -0.80600
P 	P 	0.62310 0.93327 0.37690 0.66900
O 	O 	0.64316 0.84816 0.35684 -0.18500
O 	O 	0.55808 0.93621 0.44192 -0.59800
P 	P 	0.12310 0.43327 0.87690 0.67700
O 	O 	0.14316 0.34816 0.85684 -0.27600
O 	O 	0.05808 0.43621 0.94192 -0.80600
P 	P 	0.62310 0.06673 0.62310 0.68800
O 	O 	0.64316 0.15184 0.64316 -0.24900
O 	O 	0.55808 0.06379 0.55808 -1.00500
P 	P 	0.12310 0.56673 0.12310 0.67300
O 	O 	0.14316 0.65184 0.14316 -0.42800
O 	O 	0.05808 0.56379 0.05808 -1.24700
P 	P 	0.37690 0.06673 0.37690 0.68300
O 	O 	0.35684 0.15184 0.35684 -0.33300
O 	O 	0.44192 0.06379 0.44192 -1.00700
P 	P 	0.87690 0.56673 0.87690 0.67800
O 	O 	0.85684 0.65184 0.85684 0.02900
O 	O 	0.94192 0.56379 0.94192 -0.31400
P 	P 	0.37690 0.93327 0.62310 0.66900
O 	O 	0.35684 0.84816 0.64316 -0.18500
O 	O 	0.44192 0.93621 0.55808 -0.59800
P 	P 	0.87690 0.43327 0.12310 0.67700
O 	O 	0.85684 0.34816 0.14316 -0.27600
O 	O 	0.94192 0.43621 0.05808 -0.80600
P 	P 	0.37690 0.62310 0.93327 0.66900
O 	O 	0.35684 0.64316 0.84816 -0.18500
O 	O 	0.44192 0.55808 0.93621 -0.59800
P 	P 	0.87690 0.12310 0.43327 0.67700
O 	O 	0.85684 0.14316 0.34816 -0.27600
O 	O 	0.94192 0.05808 0.43621 -0.80600
P 	P 	0.62310 0.62310 0.06673 0.68800
O 	O 	0.64316 0.64316 0.15184 -0.24900
O 	O 	0.55808 0.55808 0.06379 -1.00500
P 	P 	0.12310 0.12310 0.56673 0.67300
O 	O 	0.14316 0.14316 0.65184 -0.42800
O 	O 	0.05808 0.05808 0.56379 -1.24700
P 	P 	0.37690 0.37690 0.06673 0.68300
O 	O 	0.35684 0.35684 0.15184 -0.33300
O 	O 	0.44192 0.44192 0.06379 -1.00700
P 	P 	0.87690 0.87690 0.56673 0.67800
O 	O 	0.85684 0.85684 0.65184 0.02900
O 	O 	0.94192 0.94192 0.56379 -0.31400
P 	P 	0.62310 0.37690 0.93327 0.66900
O 	O 	0.64316 0.35684 0.84816 -0.18500
O 	O 	0.55808 0.44192 0.93621 -0.59800
P 	P 	0.12310 0.87690 0.43327 0.67700
O 	O 	0.14316 0.85684 0.34816 -0.27600
O 	O 	0.05808 0.94192 0.43621 -0.80600
