data_crystal

_cell_length_a 16.80700
_cell_length_b 16.80700
_cell_length_c 16.80700
_cell_angle_alpha 90.00000
_cell_angle_beta  90.00000
_cell_angle_gamma 90.00000

_symmetry_space_group_name_	'P 1'
_symmetry_space_group_name_H-M	'P 1'

loop_
_symmetry_equiv_pos_as_xyz
  x,y,z

loop_
_atom_site_label
_atom_site_type_symbol
_atom_site_fract_x
_atom_site_fract_y
_atom_site_fract_z
_atom_site_charge
C 	C 	0.82080 0.39100 0.34130 0.34900
C 	C 	0.87600 0.45730 0.30210 -0.11800
C 	C 	0.94670 0.41400 0.26230 0.33400
C 	C 	0.99040 0.38640 0.57340 0.35200
O 	O 	0.78850 0.34340 0.29440 -0.42200
O 	O 	0.90460 0.50670 0.36420 -0.60600
O 	O 	0.81440 0.39010 0.41480 -0.41800
O 	O 	0.01630 0.43350 0.28840 -0.40000
O 	O 	0.93510 0.36420 0.21020 -0.40600
O 	O 	0.92140 0.37890 0.54890 -0.39700
O 	O 	0.02600 0.33460 0.61680 -0.41800
Zn	Zn	0.87464 0.47271 0.48276 1.22700
C 	C 	0.67920 0.60900 0.84130 0.34800
C 	C 	0.62400 0.54270 0.80210 -0.11900
C 	C 	0.55330 0.58600 0.76230 0.33700
C 	C 	0.50960 0.61360 0.07340 0.35300
O 	O 	0.71150 0.65660 0.79440 -0.42100
O 	O 	0.59540 0.49330 0.86420 -0.60500
O 	O 	0.68560 0.60990 0.91480 -0.41700
O 	O 	0.48370 0.56650 0.78840 -0.40400
O 	O 	0.56490 0.63580 0.71020 -0.40600
O 	O 	0.57860 0.62110 0.04890 -0.39700
O 	O 	0.47400 0.66540 0.11680 -0.41900
Zn	Zn	0.62536 0.52729 0.98276 1.22700
C 	C 	0.17920 0.89100 0.15870 0.34900
C 	C 	0.12400 0.95730 0.19790 -0.12500
C 	C 	0.05330 0.91400 0.23770 0.33700
C 	C 	0.00960 0.88640 0.92660 0.33700
O 	O 	0.21150 0.84340 0.20560 -0.42200
O 	O 	0.09540 0.00670 0.13580 -0.59800
O 	O 	0.18560 0.89010 0.08520 -0.41900
O 	O 	0.98370 0.93350 0.21160 -0.40400
O 	O 	0.06490 0.86420 0.28980 -0.40600
O 	O 	0.07860 0.87890 0.95110 -0.39400
O 	O 	0.97400 0.83460 0.88320 -0.41000
Zn	Zn	0.12536 0.97271 0.01724 1.22500
C 	C 	0.32080 0.10900 0.65870 0.34800
C 	C 	0.37600 0.04270 0.69790 -0.11900
C 	C 	0.44670 0.08600 0.73770 0.33700
C 	C 	0.49040 0.11360 0.42660 0.35300
O 	O 	0.28850 0.15660 0.70560 -0.42200
O 	O 	0.40460 0.99330 0.63580 -0.60600
O 	O 	0.31440 0.10990 0.58520 -0.41700
O 	O 	0.51630 0.06650 0.71160 -0.40500
O 	O 	0.43510 0.13580 0.78980 -0.40600
O 	O 	0.42140 0.12110 0.45110 -0.39600
O 	O 	0.52600 0.16540 0.38320 -0.41800
Zn	Zn	0.37464 0.02729 0.51724 1.22700
C 	C 	0.34130 0.82080 0.39100 0.34800
C 	C 	0.30210 0.87600 0.45730 -0.11900
C 	C 	0.26230 0.94670 0.41400 0.33400
C 	C 	0.57340 0.99040 0.38640 0.35200
O 	O 	0.29440 0.78850 0.34340 -0.42200
O 	O 	0.36420 0.90460 0.50670 -0.60600
O 	O 	0.41480 0.81440 0.39010 -0.41800
O 	O 	0.28840 0.01630 0.43350 -0.40000
O 	O 	0.21020 0.93510 0.36420 -0.40600
O 	O 	0.54890 0.92140 0.37890 -0.39700
O 	O 	0.61680 0.02600 0.33460 -0.41800
Zn	Zn	0.48276 0.87464 0.47271 1.22700
C 	C 	0.84130 0.67920 0.60900 0.34800
C 	C 	0.80210 0.62400 0.54270 -0.11900
C 	C 	0.76230 0.55330 0.58600 0.33700
C 	C 	0.07340 0.50960 0.61360 0.35300
O 	O 	0.79440 0.71150 0.65660 -0.42100
O 	O 	0.86420 0.59540 0.49330 -0.60500
O 	O 	0.91480 0.68560 0.60990 -0.41700
O 	O 	0.78840 0.48370 0.56650 -0.40400
O 	O 	0.71020 0.56490 0.63580 -0.40600
O 	O 	0.04890 0.57860 0.62110 -0.39700
O 	O 	0.11680 0.47400 0.66540 -0.41900
Zn	Zn	0.98276 0.62536 0.52729 1.22700
C 	C 	0.15870 0.17920 0.89100 0.34900
C 	C 	0.19790 0.12400 0.95730 -0.12500
C 	C 	0.23770 0.05330 0.91400 0.33700
C 	C 	0.92660 0.00960 0.88640 0.33700
O 	O 	0.20560 0.21150 0.84340 -0.42200
O 	O 	0.13580 0.09540 0.00670 -0.59800
O 	O 	0.08520 0.18560 0.89010 -0.41900
O 	O 	0.21160 0.98370 0.93350 -0.40400
O 	O 	0.28980 0.06490 0.86420 -0.40600
O 	O 	0.95110 0.07860 0.87890 -0.39400
O 	O 	0.88320 0.97400 0.83460 -0.41000
Zn	Zn	0.01724 0.12536 0.97271 1.22500
C 	C 	0.65870 0.32080 0.10900 0.34800
C 	C 	0.69790 0.37600 0.04270 -0.11900
C 	C 	0.73770 0.44670 0.08600 0.33700
C 	C 	0.42660 0.49040 0.11360 0.35300
O 	O 	0.70560 0.28850 0.15660 -0.42200
O 	O 	0.63580 0.40460 0.99330 -0.60600
O 	O 	0.58520 0.31440 0.10990 -0.41700
O 	O 	0.71160 0.51630 0.06650 -0.40500
O 	O 	0.78980 0.43510 0.13580 -0.40600
O 	O 	0.45110 0.42140 0.12110 -0.39600
O 	O 	0.38320 0.52600 0.16540 -0.41800
Zn	Zn	0.51724 0.37464 0.02729 1.22700
C 	C 	0.39100 0.34130 0.82080 0.34800
C 	C 	0.45730 0.30210 0.87600 -0.11900
C 	C 	0.41400 0.26230 0.94670 0.33400
C 	C 	0.38640 0.57340 0.99040 0.35200
O 	O 	0.34340 0.29440 0.78850 -0.42200
O 	O 	0.50670 0.36420 0.90460 -0.60600
O 	O 	0.39010 0.41480 0.81440 -0.41800
O 	O 	0.43350 0.28840 0.01630 -0.40000
O 	O 	0.36420 0.21020 0.93510 -0.40600
O 	O 	0.37890 0.54890 0.92140 -0.39700
O 	O 	0.33460 0.61680 0.02600 -0.41800
Zn	Zn	0.47271 0.48276 0.87464 1.22700
C 	C 	0.60900 0.84130 0.67920 0.34800
C 	C 	0.54270 0.80210 0.62400 -0.11900
C 	C 	0.58600 0.76230 0.55330 0.33700
C 	C 	0.61360 0.07340 0.50960 0.35300
O 	O 	0.65660 0.79440 0.71150 -0.42100
O 	O 	0.49330 0.86420 0.59540 -0.60500
O 	O 	0.60990 0.91480 0.68560 -0.41700
O 	O 	0.56650 0.78840 0.48370 -0.40400
O 	O 	0.63580 0.71020 0.56490 -0.40600
O 	O 	0.62110 0.04890 0.57860 -0.39700
O 	O 	0.66540 0.11680 0.47400 -0.41900
Zn	Zn	0.52729 0.98276 0.62536 1.22700
C 	C 	0.89100 0.15870 0.17920 0.34900
C 	C 	0.95730 0.19790 0.12400 -0.12500
C 	C 	0.91400 0.23770 0.05330 0.33700
C 	C 	0.88640 0.92660 0.00960 0.33700
O 	O 	0.84340 0.20560 0.21150 -0.42200
O 	O 	0.00670 0.13580 0.09540 -0.59800
O 	O 	0.89010 0.08520 0.18560 -0.41900
O 	O 	0.93350 0.21160 0.98370 -0.40400
O 	O 	0.86420 0.28980 0.06490 -0.40600
O 	O 	0.87890 0.95110 0.07860 -0.39400
O 	O 	0.83460 0.88320 0.97400 -0.41000
Zn	Zn	0.97271 0.01724 0.12536 1.22500
C 	C 	0.10900 0.65870 0.32080 0.34800
C 	C 	0.04270 0.69790 0.37600 -0.11900
C 	C 	0.08600 0.73770 0.44670 0.33700
C 	C 	0.11360 0.42660 0.49040 0.35300
O 	O 	0.15660 0.70560 0.28850 -0.42200
O 	O 	0.99330 0.63580 0.40460 -0.60600
O 	O 	0.10990 0.58520 0.31440 -0.41700
O 	O 	0.06650 0.71160 0.51630 -0.40500
O 	O 	0.13580 0.78980 0.43510 -0.40600
O 	O 	0.12110 0.45110 0.42140 -0.39600
O 	O 	0.16540 0.38320 0.52600 -0.41800
Zn	Zn	0.02729 0.51724 0.37464 1.22700
C 	C 	0.04240 0.45760 0.54240 -0.20800
O 	O 	0.99320 0.50680 0.49320 -0.57200
Zn	Zn	0.87119 0.62881 0.37119 1.13300
Zn	Zn	0.14750 0.35250 0.64750 1.17000
C 	C 	0.45760 0.54240 0.04240 -0.20800
O 	O 	0.50680 0.49320 0.99320 -0.57200
Zn	Zn	0.62881 0.37119 0.87119 1.13300
Zn	Zn	0.35250 0.64750 0.14750 1.17000
C 	C 	0.95760 0.95760 0.95760 -0.19000
O 	O 	0.00680 0.00680 0.00680 -0.56700
Zn	Zn	0.12881 0.12881 0.12881 1.13400
Zn	Zn	0.85250 0.85250 0.85250 1.17000
C 	C 	0.54240 0.04240 0.45760 -0.20800
O 	O 	0.49320 0.99320 0.50680 -0.57200
Zn	Zn	0.37119 0.87119 0.62881 1.13300
Zn	Zn	0.64750 0.14750 0.35250 1.17000
Zn	Zn	0.82182 0.32182 0.17818 1.24700
Zn	Zn	0.67818 0.67818 0.67818 1.24700
Zn	Zn	0.17818 0.82182 0.32182 1.24700
Zn	Zn	0.32182 0.17818 0.82182 1.24700
