data_crystal

_cell_length_a 18.76500
_cell_length_b 18.76500
_cell_length_c 26.75380
_cell_angle_alpha 110.53000
_cell_angle_beta  110.53000
_cell_angle_gamma 90.00010

_symmetry_space_group_name_	'P 1'
_symmetry_space_group_name_H-M	'P 1'

loop_
_symmetry_equiv_pos_as_xyz
  x,y,z

loop_
_atom_site_label
_atom_site_type_symbol
_atom_site_fract_x
_atom_site_fract_y
_atom_site_fract_z
_atom_site_charge
Zn	Zn	0.48692 0.48692 0.54878 1.20800
Zn	Zn	0.06186 0.06186 0.54878 1.20800
Zn	Zn	0.48692 0.06186 0.54878 1.20800
Zn	Zn	0.06186 0.48692 0.54878 1.20800
Zn	Zn	0.93814 0.51308 0.45122 1.20700
Zn	Zn	0.51308 0.93814 0.45122 1.20700
Zn	Zn	0.93814 0.93814 0.45122 1.20700
Zn	Zn	0.51308 0.51308 0.45122 1.20700
H 	H 	0.27540 0.46530 0.33760 0.04500
H 	H 	0.18090 0.44520 0.15540 0.04900
H 	H 	0.13330 0.44350 0.06200 0.05000
H 	H 	0.06220 0.87230 0.33760 0.04600
H 	H 	0.97450 0.71020 0.15540 0.04500
H 	H 	0.92870 0.61850 0.06200 0.05300
H 	H 	0.46530 0.06220 0.33760 0.04500
H 	H 	0.44520 0.97450 0.15540 0.04800
H 	H 	0.44350 0.92870 0.06200 0.05100
H 	H 	0.87230 0.27540 0.33760 0.04500
H 	H 	0.71020 0.18090 0.15540 0.04800
H 	H 	0.61850 0.13330 0.06200 0.05200
H 	H 	0.93780 0.53470 0.66240 0.04500
H 	H 	0.02550 0.55480 0.84460 0.05200
H 	H 	0.07130 0.55650 0.93800 0.04800
H 	H 	0.72460 0.12770 0.66240 0.04500
H 	H 	0.81910 0.28980 0.84460 0.05100
H 	H 	0.86670 0.38150 0.93800 0.04900
H 	H 	0.12770 0.93780 0.66240 0.04500
H 	H 	0.28980 0.02550 0.84460 0.05000
H 	H 	0.38150 0.07130 0.93800 0.04900
H 	H 	0.53470 0.72460 0.66240 0.04500
H 	H 	0.55480 0.81910 0.84460 0.05100
H 	H 	0.55650 0.86670 0.93800 0.04800
H 	H 	0.72460 0.53470 0.66240 0.04500
H 	H 	0.81910 0.55480 0.84460 0.05100
H 	H 	0.86670 0.55650 0.93800 0.04800
H 	H 	0.93780 0.12770 0.66240 0.04500
H 	H 	0.02550 0.28980 0.84460 0.05000
H 	H 	0.07130 0.38150 0.93800 0.04900
H 	H 	0.53470 0.93780 0.66240 0.04500
H 	H 	0.55480 0.02550 0.84460 0.05200
H 	H 	0.55650 0.07130 0.93800 0.04800
H 	H 	0.12770 0.72460 0.66240 0.04500
H 	H 	0.28980 0.81910 0.84460 0.05100
H 	H 	0.38150 0.86670 0.93800 0.04900
H 	H 	0.06220 0.46530 0.33760 0.04500
H 	H 	0.97450 0.44520 0.15540 0.04800
H 	H 	0.92870 0.44350 0.06200 0.05100
H 	H 	0.27540 0.87230 0.33760 0.04500
H 	H 	0.18090 0.71020 0.15540 0.04800
H 	H 	0.13330 0.61850 0.06200 0.05200
H 	H 	0.87230 0.06220 0.33760 0.04600
H 	H 	0.71020 0.97450 0.15540 0.04500
H 	H 	0.61850 0.92870 0.06200 0.05300
H 	H 	0.46530 0.27540 0.33760 0.04500
H 	H 	0.44520 0.18090 0.15540 0.04900
H 	H 	0.44350 0.13330 0.06200 0.05000
H 	H 	0.24100 0.48530 0.48200 0.03700
H 	H 	0.24100 0.99670 0.48200 0.03800
H 	H 	0.48530 0.24100 0.48200 0.03700
H 	H 	0.99670 0.24100 0.48200 0.03800
H 	H 	0.75900 0.51470 0.51800 0.03700
H 	H 	0.75900 0.00330 0.51800 0.03800
H 	H 	0.00330 0.75900 0.51800 0.03800
H 	H 	0.51470 0.75900 0.51800 0.03700
C 	C 	0.24238 0.46908 0.35816 -0.00400
C 	C 	0.27385 0.47995 0.41630 -0.10800
C 	C 	0.12700 0.44000 0.13540 -0.05800
C 	C 	0.09857 0.44187 0.08034 -0.06500
C 	C 	0.35717 0.48927 0.44634 0.37400
C 	C 	0.11578 0.88908 0.35816 -0.00400
C 	C 	0.14245 0.93635 0.41630 -0.10800
C 	C 	0.00840 0.69540 0.13540 -0.04900
C 	C 	0.98177 0.63847 0.08034 -0.07400
C 	C 	0.08917 0.95707 0.44634 0.37400
C 	C 	0.46908 0.11578 0.35816 -0.00400
C 	C 	0.47995 0.14245 0.41630 -0.10800
C 	C 	0.44000 0.00840 0.13540 -0.05500
C 	C 	0.44187 0.98177 0.08034 -0.06800
C 	C 	0.48927 0.08917 0.44634 0.37300
C 	C 	0.88908 0.24238 0.35816 -0.00500
C 	C 	0.93635 0.27385 0.41630 -0.10800
C 	C 	0.69540 0.12700 0.13540 -0.05300
C 	C 	0.63847 0.09857 0.08034 -0.07000
C 	C 	0.95707 0.35717 0.44634 0.37300
C 	C 	0.88422 0.53092 0.64184 -0.00300
C 	C 	0.85755 0.52005 0.58370 -0.10900
C 	C 	0.99160 0.56000 0.86460 -0.06400
C 	C 	0.01823 0.55813 0.91966 -0.05900
C 	C 	0.91083 0.51073 0.55366 0.37400
C 	C 	0.75762 0.11092 0.64184 -0.00300
C 	C 	0.72615 0.06365 0.58370 -0.10900
C 	C 	0.87300 0.30460 0.86460 -0.06100
C 	C 	0.90143 0.36153 0.91966 -0.06200
C 	C 	0.64283 0.04293 0.55366 0.37400
C 	C 	0.11092 0.88422 0.64184 -0.00300
C 	C 	0.06365 0.85755 0.58370 -0.10900
C 	C 	0.30460 0.99160 0.86460 -0.06000
C 	C 	0.36153 0.01823 0.91966 -0.06300
C 	C 	0.04293 0.91083 0.55366 0.37500
C 	C 	0.53092 0.75762 0.64184 -0.00300
C 	C 	0.52005 0.72615 0.58370 -0.10800
C 	C 	0.56000 0.87300 0.86460 -0.06400
C 	C 	0.55813 0.90143 0.91966 -0.06000
C 	C 	0.51073 0.64283 0.55366 0.37400
C 	C 	0.75762 0.53092 0.64184 -0.00300
C 	C 	0.72615 0.52005 0.58370 -0.10800
C 	C 	0.87300 0.56000 0.86460 -0.06400
C 	C 	0.90143 0.55813 0.91966 -0.06000
C 	C 	0.64283 0.51073 0.55366 0.37400
C 	C 	0.88422 0.11092 0.64184 -0.00300
C 	C 	0.85755 0.06365 0.58370 -0.10900
C 	C 	0.99160 0.30460 0.86460 -0.06000
C 	C 	0.01823 0.36153 0.91966 -0.06300
C 	C 	0.91083 0.04293 0.55366 0.37500
C 	C 	0.53092 0.88422 0.64184 -0.00300
C 	C 	0.52005 0.85755 0.58370 -0.10900
C 	C 	0.56000 0.99160 0.86460 -0.06400
C 	C 	0.55813 0.01823 0.91966 -0.05900
C 	C 	0.51073 0.91083 0.55366 0.37400
C 	C 	0.11092 0.75762 0.64184 -0.00300
C 	C 	0.06365 0.72615 0.58370 -0.10900
C 	C 	0.30460 0.87300 0.86460 -0.06100
C 	C 	0.36153 0.90143 0.91966 -0.06200
C 	C 	0.04293 0.64283 0.55366 0.37400
C 	C 	0.11578 0.46908 0.35816 -0.00400
C 	C 	0.14245 0.47995 0.41630 -0.10800
C 	C 	0.00840 0.44000 0.13540 -0.05500
C 	C 	0.98177 0.44187 0.08034 -0.06800
C 	C 	0.08917 0.48927 0.44634 0.37300
C 	C 	0.24238 0.88908 0.35816 -0.00500
C 	C 	0.27385 0.93635 0.41630 -0.10800
C 	C 	0.12700 0.69540 0.13540 -0.05300
C 	C 	0.09857 0.63847 0.08034 -0.07000
C 	C 	0.35717 0.95707 0.44634 0.37300
C 	C 	0.88908 0.11578 0.35816 -0.00400
C 	C 	0.93635 0.14245 0.41630 -0.10800
C 	C 	0.69540 0.00840 0.13540 -0.04900
C 	C 	0.63847 0.98177 0.08034 -0.07400
C 	C 	0.95707 0.08917 0.44634 0.37400
C 	C 	0.46908 0.24238 0.35816 -0.00400
C 	C 	0.47995 0.27385 0.41630 -0.10800
C 	C 	0.44000 0.12700 0.13540 -0.05800
C 	C 	0.44187 0.09857 0.08034 -0.06500
C 	C 	0.48927 0.35717 0.44634 0.37400
C 	C 	0.16522 0.46392 0.33044 -0.00500
C 	C 	0.22159 0.48209 0.44318 0.05000
C 	C 	0.11025 0.44035 0.22050 -0.03200
C 	C 	0.13588 0.45328 0.27176 -0.00600
C 	C 	0.07992 0.43122 0.15984 0.03800
C 	C 	0.02697 0.44167 0.05394 0.04400
C 	C 	0.16522 0.86652 0.33044 -0.00400
C 	C 	0.22159 0.96109 0.44318 0.05000
C 	C 	0.11025 0.78015 0.22050 -0.03000
C 	C 	0.13588 0.81848 0.27176 -0.00700
C 	C 	0.07992 0.72862 0.15984 0.03300
C 	C 	0.02697 0.61227 0.05394 0.05000
C 	C 	0.46392 0.16522 0.33044 -0.00500
C 	C 	0.48209 0.22159 0.44318 0.05000
C 	C 	0.44035 0.11025 0.22050 -0.03200
C 	C 	0.45328 0.13588 0.27176 -0.00600
C 	C 	0.43122 0.07992 0.15984 0.03800
C 	C 	0.44167 0.02697 0.05394 0.04400
C 	C 	0.86652 0.16522 0.33044 -0.00400
C 	C 	0.96109 0.22159 0.44318 0.05000
C 	C 	0.78015 0.11025 0.22050 -0.03000
C 	C 	0.81848 0.13588 0.27176 -0.00700
C 	C 	0.72862 0.07992 0.15984 0.03300
C 	C 	0.61227 0.02697 0.05394 0.05000
C 	C 	0.83478 0.53608 0.66956 -0.00600
C 	C 	0.77841 0.51791 0.55682 0.05000
C 	C 	0.88975 0.55965 0.77950 -0.03400
C 	C 	0.86412 0.54672 0.72824 -0.00400
C 	C 	0.92008 0.56878 0.84016 0.04400
C 	C 	0.97303 0.55833 0.94606 0.03900
C 	C 	0.83478 0.13348 0.66956 -0.00500
C 	C 	0.77841 0.03891 0.55682 0.05100
C 	C 	0.88975 0.21985 0.77950 -0.03300
C 	C 	0.86412 0.18152 0.72824 -0.00500
C 	C 	0.92008 0.27138 0.84016 0.04100
C 	C 	0.97303 0.38773 0.94606 0.04100
C 	C 	0.13348 0.83478 0.66956 -0.00500
C 	C 	0.03891 0.77841 0.55682 0.05100
C 	C 	0.21985 0.88975 0.77950 -0.03300
C 	C 	0.18152 0.86412 0.72824 -0.00500
C 	C 	0.27138 0.92008 0.84016 0.04100
C 	C 	0.38773 0.97303 0.94606 0.04100
C 	C 	0.53608 0.83478 0.66956 -0.00600
C 	C 	0.51791 0.77841 0.55682 0.05000
C 	C 	0.55965 0.88975 0.77950 -0.03400
C 	C 	0.54672 0.86412 0.72824 -0.00400
C 	C 	0.56878 0.92008 0.84016 0.04400
C 	C 	0.55833 0.97303 0.94606 0.03900
C 	C 	-0.00000 0.46530 -0.00000 -0.03200
C 	C 	0.00000 0.53470 1.00000 -0.03400
C 	C 	0.46530 0.00000 -0.00000 -0.03200
C 	C 	0.53470 0.00000 1.00000 -0.03400
O 	O 	0.37993 0.48624 0.49788 -0.46500
O 	O 	0.39996 0.50226 0.42252 -0.47700
O 	O 	0.11795 0.01164 0.49788 -0.46500
O 	O 	0.02256 0.92026 0.42252 -0.47700
O 	O 	0.48624 0.11795 0.49788 -0.46500
O 	O 	0.50226 0.02256 0.42252 -0.47700
O 	O 	0.01164 0.37993 0.49788 -0.46500
O 	O 	0.92026 0.39996 0.42252 -0.47700
O 	O 	0.88205 0.51376 0.50212 -0.46500
O 	O 	0.97744 0.49774 0.57748 -0.47800
O 	O 	0.62007 0.98836 0.50212 -0.46600
O 	O 	0.60004 0.07974 0.57748 -0.47700
O 	O 	0.98836 0.88205 0.50212 -0.46600
O 	O 	0.07974 0.97744 0.57748 -0.47700
O 	O 	0.51376 0.62007 0.50212 -0.46500
O 	O 	0.49774 0.60004 0.57748 -0.47700
O 	O 	0.62007 0.51376 0.50212 -0.46500
O 	O 	0.60004 0.49774 0.57748 -0.47700
O 	O 	0.88205 0.98836 0.50212 -0.46600
O 	O 	0.97744 0.07974 0.57748 -0.47700
O 	O 	0.51376 0.88205 0.50212 -0.46500
O 	O 	0.49774 0.97744 0.57748 -0.47800
O 	O 	0.98836 0.62007 0.50212 -0.46600
O 	O 	0.07974 0.60004 0.57748 -0.47700
O 	O 	0.11795 0.48624 0.49788 -0.46500
O 	O 	0.02256 0.50226 0.42252 -0.47700
O 	O 	0.37993 0.01164 0.49788 -0.46500
O 	O 	0.39996 0.92026 0.42252 -0.47700
O 	O 	0.01164 0.11795 0.49788 -0.46500
O 	O 	0.92026 0.02256 0.42252 -0.47700
O 	O 	0.48624 0.37993 0.49788 -0.46500
O 	O 	0.50226 0.39996 0.42252 -0.47700
