data_crystal

_cell_length_a 13.09230
_cell_length_b 14.27170
_cell_length_c 14.21970
_cell_angle_alpha 90.00000
_cell_angle_beta  90.30800
_cell_angle_gamma 90.00000

_symmetry_space_group_name_	'P 1'
_symmetry_space_group_name_H-M	'P 1'

loop_
_symmetry_equiv_pos_as_xyz
  x,y,z

loop_
_atom_site_label
_atom_site_type_symbol
_atom_site_fract_x
_atom_site_fract_y
_atom_site_fract_z
_atom_site_charge
Zn	Zn	0.75723 0.53094 0.66994 1.22700
Zn	Zn	0.54230 0.02430 0.16801 1.21500
Zn	Zn	0.58391 0.98582 0.92037 1.23500
Zn	Zn	0.66793 0.62427 0.07923 1.17900
Zn	Zn	0.64804 0.87753 0.51074 1.22000
Zn	Zn	0.47820 0.48421 0.52262 1.21600
Zn	Zn	0.66739 0.13159 0.53930 1.23300
Zn	Zn	0.80757 0.49608 0.42315 1.22400
Zn	Zn	0.86295 0.98799 0.07041 1.16600
Zn	Zn	0.69539 0.37248 0.04693 1.18700
Zn	Zn	0.87080 0.95620 0.30190 1.14000
Zn	Zn	0.62450 0.57150 0.29280 1.12600
Zn	Zn	0.70970 0.91620 0.29870 1.12700
Zn	Zn	0.48170 0.50400 0.29050 1.14200
P 	P 	0.86030 0.99750 0.51190 0.55500
P 	P 	0.69230 0.14210 0.04650 0.38200
P 	P 	0.98200 0.52360 0.57520 0.54700
P 	P 	0.67170 0.36020 0.54820 0.54000
P 	P 	0.64960 0.64520 0.50260 0.55900
P 	P 	0.66890 0.85560 0.08850 0.37500
P 	P 	0.82350 0.49880 0.19320 0.56000
P 	P 	0.77120 0.53120 0.90230 0.56200
P 	P 	0.52090 0.02750 0.39720 0.56700
P 	P 	0.56700 0.98420 0.68690 0.56200
O 	O 	0.90340 0.53070 0.65270 -0.60400
O 	O 	0.67840 0.42320 0.63470 -0.48800
O 	O 	0.73700 0.55280 0.80270 -0.45000
O 	O 	0.71450 0.63640 0.59010 -0.47200
O 	O 	0.63060 0.91800 0.16980 -0.65700
O 	O 	0.59820 0.13860 0.11050 -0.48100
O 	O 	0.49240 0.04560 0.29340 -0.44000
O 	O 	0.91450 0.00640 0.60380 -0.44500
O 	O 	0.61060 0.87700 0.99740 -0.28400
O 	O 	0.67550 0.08720 0.95280 -0.30300
O 	O 	0.93730 0.98540 0.43060 -0.63300
O 	O 	0.59710 0.95800 0.78820 -0.45200
O 	O 	0.73720 0.61200 0.96550 -0.36000
O 	O 	0.64520 0.75290 0.11570 -0.49600
O 	O 	0.03250 0.42660 0.57890 -0.53400
O 	O 	0.73200 0.56920 0.19160 -0.68200
O 	O 	0.59940 0.94720 0.40120 -0.65700
O 	O 	0.79270 0.91110 0.50990 -0.52800
O 	O 	0.57170 0.89820 0.62420 -0.47700
O 	O 	0.64510 0.74820 0.47020 -0.47600
O 	O 	0.56750 0.37760 0.49690 -0.45600
O 	O 	0.91520 0.54050 0.14440 -0.50300
O 	O 	0.54130 0.60900 0.51850 -0.50300
O 	O 	0.89040 0.52360 0.90860 -0.55100
O 	O 	0.68030 0.25780 0.57860 -0.43300
O 	O 	0.79930 0.08780 0.49230 -0.45700
O 	O 	0.64250 0.05930 0.65400 -0.46500
O 	O 	0.56640 0.11770 0.44040 -0.46900
O 	O 	0.93140 0.54030 0.47830 -0.45100
O 	O 	0.76260 0.37990 0.48210 -0.46400
O 	O 	0.69740 0.58920 0.41900 -0.65700
O 	O 	0.85270 0.47930 0.29450 -0.44400
O 	O 	0.78280 0.10000 0.10040 -0.48500
O 	O 	0.42470 0.99940 0.45010 -0.47000
O 	O 	0.78520 0.86910 0.07640 -0.56300
O 	O 	0.45730 0.01990 0.68390 -0.63300
O 	O 	0.72190 0.43920 0.93180 -0.37900
O 	O 	0.05920 0.60180 0.59370 -0.46400
O 	O 	0.78980 0.40730 0.14720 -0.51200
O 	O 	0.71830 0.24220 0.02170 -0.51100
O 	O 	0.76640 0.04550 0.28960 -0.57600
O 	O 	0.57980 0.43430 0.29680 -0.63900
C 	C 	0.37050 0.76220 0.32740 -0.02500
C 	C 	0.42160 0.68190 0.28630 0.01700
N 	N 	0.05360 0.59590 0.30430 -0.08500
N 	N 	0.30330 0.92620 0.28630 -0.07800
C 	C 	0.07660 0.69340 0.30620 0.06100
C 	C 	0.89160 0.75210 0.33620 0.04600
C 	C 	0.93450 0.74810 0.26110 -0.06500
C 	C 	0.98750 0.74640 0.34110 -0.06700
C 	C 	0.34840 0.82240 0.26060 0.01200
N 	N 	0.81460 0.81700 0.29720 -0.40400
N 	N 	0.54410 0.69360 0.28280 -0.12900
N 	N 	0.49880 0.65640 0.29050 -0.30500
Zn	Zn	0.25723 0.46906 0.16994 1.21100
Zn	Zn	0.04230 0.97570 0.66801 1.22800
Zn	Zn	0.08391 0.01418 0.42037 1.22400
Zn	Zn	0.16793 0.37573 0.57923 1.22500
Zn	Zn	0.14804 0.12247 0.01074 1.14300
Zn	Zn	0.97820 0.51579 0.02262 1.14100
Zn	Zn	0.16739 0.86841 0.03930 1.15800
Zn	Zn	0.30757 0.50392 0.92315 1.23700
Zn	Zn	0.36295 0.01201 0.57041 1.21600
Zn	Zn	0.19539 0.62752 0.54693 1.23300
Zn	Zn	0.37080 0.04380 0.80190 1.14700
Zn	Zn	0.12450 0.42850 0.79280 1.12900
Zn	Zn	0.20970 0.08380 0.79870 1.13600
Zn	Zn	0.98170 0.49600 0.79050 1.14700
P 	P 	0.36030 0.00250 0.01190 0.24400
P 	P 	0.19230 0.85790 0.54650 0.54500
P 	P 	0.48200 0.47640 0.07520 0.37700
P 	P 	0.17170 0.63980 0.04820 0.22600
P 	P 	0.14960 0.35480 0.00260 0.24100
P 	P 	0.16890 0.14440 0.58850 0.54100
P 	P 	0.32350 0.50120 0.69320 0.56500
P 	P 	0.27120 0.46880 0.40230 0.56500
P 	P 	0.02090 0.97250 0.89720 0.55600
P 	P 	0.06700 0.01580 0.18690 0.56500
O 	O 	0.40340 0.46930 0.15270 -0.61500
O 	O 	0.17840 0.57680 0.13470 -0.48300
O 	O 	0.23700 0.44720 0.30270 -0.46600
O 	O 	0.21450 0.36360 0.09010 -0.49000
O 	O 	0.13060 0.08200 0.66980 -0.65400
O 	O 	0.09820 0.86140 0.61050 -0.45500
O 	O 	0.99240 0.95440 0.79340 -0.43400
O 	O 	0.41450 0.99360 0.10380 -0.46100
O 	O 	0.11060 0.12300 0.49740 -0.47400
O 	O 	0.17550 0.91280 0.45280 -0.47200
O 	O 	0.43730 0.01460 0.93060 -0.46000
O 	O 	0.09710 0.04200 0.28820 -0.46000
O 	O 	0.23720 0.38800 0.46550 -0.48500
O 	O 	0.14520 0.24710 0.61570 -0.46000
O 	O 	0.53250 0.57340 0.07890 -0.59100
O 	O 	0.23200 0.43080 0.69160 -0.66200
O 	O 	0.09940 0.05280 0.90120 -0.58000
O 	O 	0.29270 0.08890 0.00990 -0.60300
O 	O 	0.07170 0.10180 0.12420 -0.53500
O 	O 	0.14510 0.25180 0.97020 -0.24300
O 	O 	0.06750 0.62240 0.99690 -0.22900
O 	O 	0.41520 0.45950 0.64440 -0.45200
O 	O 	0.04130 0.39100 0.01850 -0.56400
O 	O 	0.39040 0.47640 0.40860 -0.62700
O 	O 	0.18030 0.74220 0.07860 -0.47600
O 	O 	0.29930 0.91220 0.99230 -0.23000
O 	O 	0.14250 0.94070 0.15400 -0.50500
O 	O 	0.06640 0.88230 0.94040 -0.37100
O 	O 	0.43140 0.45970 0.97830 -0.27200
O 	O 	0.26260 0.62010 0.98210 -0.26600
O 	O 	0.19740 0.41080 0.91900 -0.50000
O 	O 	0.35270 0.52070 0.79450 -0.43600
O 	O 	0.28280 0.90000 0.60040 -0.45900
O 	O 	0.92470 0.00060 0.95010 -0.34800
O 	O 	0.28520 0.13090 0.57640 -0.49900
O 	O 	0.95730 0.98010 0.18390 -0.66600
O 	O 	0.22190 0.56080 0.43180 -0.48800
O 	O 	0.55920 0.39820 0.09370 -0.50000
O 	O 	0.28980 0.59270 0.64720 -0.47500
O 	O 	0.21830 0.75780 0.52170 -0.42800
O 	O 	0.26640 0.95450 0.78960 -0.56400
O 	O 	0.07980 0.56570 0.79680 -0.62600
C 	C 	0.87050 0.23780 0.82740 0.03200
C 	C 	0.92160 0.31810 0.78630 0.03800
N 	N 	0.55360 0.40410 0.80430 -0.07200
N 	N 	0.80330 0.07380 0.78630 -0.06100
C 	C 	0.57660 0.30660 0.80620 0.08900
C 	C 	0.39160 0.24790 0.83620 0.08300
C 	C 	0.43450 0.25190 0.76110 -0.06700
C 	C 	0.48750 0.25360 0.84110 -0.02400
C 	C 	0.84840 0.17760 0.76060 0.03000
N 	N 	0.31460 0.18300 0.79720 -0.38900
N 	N 	0.04410 0.30640 0.78280 -0.12200
N 	N 	0.99880 0.34360 0.79050 -0.29300
