data_crystal

_cell_length_a 8.70700
_cell_length_b 11.67800
_cell_length_c 28.00500
_cell_angle_alpha 90.00000
_cell_angle_beta  90.00000
_cell_angle_gamma 104.20000

_symmetry_space_group_name_	'P 1'
_symmetry_space_group_name_H-M	'P 1'

loop_
_symmetry_equiv_pos_as_xyz
  x,y,z

loop_
_atom_site_label
_atom_site_type_symbol
_atom_site_fract_x
_atom_site_fract_y
_atom_site_fract_z
_atom_site_charge
Mn	Mn	0.19194 0.36568 0.19905 1.27100
Mn	Mn	0.30806 0.63432 0.69905 1.27200
Mn	Mn	0.80806 0.63432 0.80095 1.27100
Mn	Mn	0.69194 0.36568 0.30095 1.27200
H 	H 	0.43340 0.49660 0.12780 0.13200
H 	H 	0.63230 0.39090 0.12920 0.13200
H 	H 	0.73940 0.50360 0.15320 0.14100
H 	H 	0.48860 0.67950 0.01890 0.06700
H 	H 	0.58960 0.66650 0.94260 0.04300
H 	H 	0.98680 0.61180 0.99900 0.04800
H 	H 	0.88480 0.62220 0.07500 0.05800
H 	H 	0.05730 0.55700 0.14450 -0.01300
H 	H 	0.04990 0.75050 0.14400 0.08800
H 	H 	0.34410 0.80390 0.25480 0.08600
H 	H 	0.34540 0.60780 0.25160 -0.00100
H 	H 	0.04190 0.11850 0.14840 -0.01700
H 	H 	0.03520 0.92390 0.14800 0.09600
H 	H 	0.34720 0.98260 0.25240 0.09100
H 	H 	0.32620 0.17310 0.25460 -0.03100
H 	H 	0.06660 0.50340 0.62780 0.13400
H 	H 	0.86770 0.60910 0.62920 0.13100
H 	H 	0.76060 0.49640 0.65320 0.13900
H 	H 	0.01140 0.32050 0.51890 0.06700
H 	H 	0.91040 0.33350 0.44260 0.04300
H 	H 	0.51320 0.38820 0.49900 0.04900
H 	H 	0.61520 0.37780 0.57500 0.05700
H 	H 	0.44270 0.44300 0.64450 -0.01200
H 	H 	0.45010 0.24950 0.64400 0.08900
H 	H 	0.15590 0.19610 0.75480 0.08700
H 	H 	0.15460 0.39220 0.75160 -0.00000
H 	H 	0.45810 0.88150 0.64840 -0.01600
H 	H 	0.46480 0.07610 0.64800 0.09700
H 	H 	0.15280 0.01740 0.75240 0.09000
H 	H 	0.17380 0.82690 0.75460 -0.02900
H 	H 	0.56660 0.50340 0.87220 0.13200
H 	H 	0.36770 0.60910 0.87080 0.13200
H 	H 	0.26060 0.49640 0.84680 0.14100
H 	H 	0.51140 0.32050 0.98110 0.06700
H 	H 	0.41040 0.33350 0.05740 0.04300
H 	H 	0.01320 0.38820 0.00100 0.04800
H 	H 	0.11520 0.37780 0.92500 0.05800
H 	H 	0.94270 0.44300 0.85550 -0.01300
H 	H 	0.95010 0.24950 0.85600 0.08800
H 	H 	0.65590 0.19610 0.74520 0.08600
H 	H 	0.65460 0.39220 0.74840 -0.00100
H 	H 	0.95810 0.88150 0.85160 -0.01700
H 	H 	0.96480 0.07610 0.85200 0.09600
H 	H 	0.65280 0.01740 0.74760 0.09100
H 	H 	0.67380 0.82690 0.74540 -0.03100
H 	H 	0.93340 0.49660 0.37220 0.13400
H 	H 	0.13230 0.39090 0.37080 0.13100
H 	H 	0.23940 0.50360 0.34680 0.13900
H 	H 	0.98860 0.67950 0.48110 0.06700
H 	H 	0.08960 0.66650 0.55740 0.04300
H 	H 	0.48680 0.61180 0.50100 0.04900
H 	H 	0.38480 0.62220 0.42500 0.05700
H 	H 	0.55730 0.55700 0.35550 -0.01200
H 	H 	0.54990 0.75050 0.35600 0.08900
H 	H 	0.84410 0.80390 0.24520 0.08700
H 	H 	0.84540 0.60780 0.24840 -0.00000
H 	H 	0.54190 0.11850 0.35160 -0.01600
H 	H 	0.53520 0.92390 0.35200 0.09700
H 	H 	0.84720 0.98260 0.24760 0.09000
H 	H 	0.82620 0.17310 0.24540 -0.02900
C 	C 	0.57790 0.40630 0.19919 0.45600
C 	C 	0.63160 0.45590 0.15070 -0.30200
C 	C 	0.67800 0.64930 0.05380 -0.02700
C 	C 	0.58820 0.66500 0.01480 -0.05100
C 	C 	0.65040 0.65870 0.96920 0.00400
C 	C 	0.79860 0.64130 0.96270 -0.08000
C 	C 	0.88690 0.62570 0.00280 0.00000
C 	C 	0.82530 0.63110 0.04830 -0.04600
C 	C 	0.86770 0.63950 0.91360 0.33400
C 	C 	0.11600 0.60740 0.16720 0.09300
C 	C 	0.11100 0.72400 0.16680 -0.13000
C 	C 	0.19600 0.80260 0.20000 0.05700
C 	C 	0.28390 0.75560 0.23170 -0.12600
C 	C 	0.28380 0.63680 0.22980 0.09700
C 	C 	0.10450 0.09140 0.17050 0.09500
C 	C 	0.10110 0.97350 0.16960 -0.16300
C 	C 	0.19310 0.92870 0.19980 0.08700
C 	C 	0.28030 0.00720 0.23090 -0.16700
C 	C 	0.27070 0.12400 0.23100 0.11200
C 	C 	0.92210 0.59370 0.69919 0.44800
C 	C 	0.86840 0.54410 0.65070 -0.29800
C 	C 	0.82200 0.35070 0.55380 -0.02700
C 	C 	0.91180 0.33500 0.51480 -0.05200
C 	C 	0.84960 0.34130 0.46920 0.00500
C 	C 	0.70140 0.35870 0.46270 -0.08000
C 	C 	0.61310 0.37430 0.50280 -0.00200
C 	C 	0.67470 0.36890 0.54830 -0.04500
C 	C 	0.63230 0.36050 0.41360 0.33700
C 	C 	0.38400 0.39260 0.66720 0.09400
C 	C 	0.38900 0.27600 0.66680 -0.13000
C 	C 	0.30400 0.19740 0.70000 0.05900
C 	C 	0.21610 0.24440 0.73170 -0.12700
C 	C 	0.21620 0.36320 0.72980 0.09800
C 	C 	0.39550 0.90860 0.67050 0.09700
C 	C 	0.39890 0.02650 0.66960 -0.16300
C 	C 	0.30690 0.07130 0.69980 0.08500
C 	C 	0.21970 0.99280 0.73090 -0.16200
C 	C 	0.22930 0.87600 0.73100 0.11100
C 	C 	0.42210 0.59370 0.80081 0.45600
C 	C 	0.36840 0.54410 0.84930 -0.30200
C 	C 	0.32200 0.35070 0.94620 -0.02700
C 	C 	0.41180 0.33500 0.98520 -0.05100
C 	C 	0.34960 0.34130 0.03080 0.00400
C 	C 	0.20140 0.35870 0.03730 -0.08000
C 	C 	0.11310 0.37430 0.99720 0.00000
C 	C 	0.17470 0.36890 0.95170 -0.04600
C 	C 	0.13230 0.36050 0.08640 0.33400
C 	C 	0.88400 0.39260 0.83280 0.09300
C 	C 	0.88900 0.27600 0.83320 -0.13000
C 	C 	0.80400 0.19740 0.80000 0.05700
C 	C 	0.71610 0.24440 0.76830 -0.12600
C 	C 	0.71620 0.36320 0.77020 0.09700
C 	C 	0.89550 0.90860 0.82950 0.09500
C 	C 	0.89890 0.02650 0.83040 -0.16300
C 	C 	0.80690 0.07130 0.80020 0.08700
C 	C 	0.71970 0.99280 0.76910 -0.16700
C 	C 	0.72930 0.87600 0.76900 0.11200
C 	C 	0.07790 0.40630 0.30081 0.44800
C 	C 	0.13160 0.45590 0.34930 -0.29800
C 	C 	0.17800 0.64930 0.44620 -0.02700
C 	C 	0.08820 0.66500 0.48520 -0.05200
C 	C 	0.15040 0.65870 0.53080 0.00500
C 	C 	0.29860 0.64130 0.53730 -0.08000
C 	C 	0.38690 0.62570 0.49720 -0.00200
C 	C 	0.32530 0.63110 0.45170 -0.04500
C 	C 	0.36770 0.63950 0.58640 0.33700
C 	C 	0.61600 0.60740 0.33280 0.09400
C 	C 	0.61100 0.72400 0.33320 -0.13000
C 	C 	0.69600 0.80260 0.30000 0.05900
C 	C 	0.78390 0.75560 0.26830 -0.12700
C 	C 	0.78380 0.63680 0.27020 0.09800
C 	C 	0.60450 0.09140 0.32950 0.09700
C 	C 	0.60110 0.97350 0.33040 -0.16300
C 	C 	0.69310 0.92870 0.30020 0.08500
C 	C 	0.78030 0.00720 0.26910 -0.16200
C 	C 	0.77070 0.12400 0.26900 0.11100
S 	S 	0.60110 0.65910 0.11214 0.37300
S 	S 	0.89890 0.34090 0.61214 0.37000
S 	S 	0.39890 0.34090 0.88786 0.37300
S 	S 	0.10110 0.65910 0.38786 0.37000
N 	N 	0.53360 0.52720 0.13020 -0.17700
N 	N 	0.19980 0.56330 0.19825 -0.23700
N 	N 	0.18970 0.17040 0.20043 -0.25200
N 	N 	0.96640 0.47280 0.63020 -0.18100
N 	N 	0.30020 0.43670 0.69825 -0.23700
N 	N 	0.31030 0.82960 0.70043 -0.25200
N 	N 	0.46640 0.47280 0.86980 -0.17700
N 	N 	0.80020 0.43670 0.80175 -0.23700
N 	N 	0.81030 0.82960 0.79957 -0.25200
N 	N 	0.03360 0.52720 0.36980 -0.18100
N 	N 	0.69980 0.56330 0.30175 -0.23700
N 	N 	0.68970 0.17040 0.29957 -0.25200
O 	O 	0.44330 0.40660 0.21327 -0.48000
O 	O 	0.67870 0.37020 0.22314 -0.46700
O 	O 	0.46740 0.70790 0.10810 -0.23700
O 	O 	0.73170 0.71300 0.14160 -0.24600
O 	O 	0.77350 0.63030 0.87861 -0.42900
O 	O 	0.01210 0.64540 0.91014 -0.28600
O 	O 	0.05670 0.59340 0.71327 -0.47500
O 	O 	0.82130 0.62980 0.72314 -0.46600
O 	O 	0.03260 0.29210 0.60810 -0.23500
O 	O 	0.76830 0.28700 0.64160 -0.24700
O 	O 	0.72650 0.36970 0.37861 -0.42900
O 	O 	0.48790 0.35460 0.41014 -0.29000
O 	O 	0.55670 0.59340 0.78673 -0.48000
O 	O 	0.32130 0.62980 0.77686 -0.46700
O 	O 	0.53260 0.29210 0.89190 -0.23700
O 	O 	0.26830 0.28700 0.85840 -0.24600
O 	O 	0.22650 0.36970 0.12139 -0.42900
O 	O 	0.98790 0.35460 0.08986 -0.28600
O 	O 	0.94330 0.40660 0.28673 -0.47500
O 	O 	0.17870 0.37020 0.27686 -0.46600
O 	O 	0.96740 0.70790 0.39190 -0.23500
O 	O 	0.23170 0.71300 0.35840 -0.24700
O 	O 	0.27350 0.63030 0.62139 -0.42900
O 	O 	0.51210 0.64540 0.58986 -0.29000
