data_crystal

_cell_length_a 10.37790
_cell_length_b 11.38290
_cell_length_c 22.38780
_cell_angle_alpha 90.00000
_cell_angle_beta  97.39900
_cell_angle_gamma 90.00000

_symmetry_space_group_name_	'P 1'
_symmetry_space_group_name_H-M	'P 1'

loop_
_symmetry_equiv_pos_as_xyz
  x,y,z

loop_
_atom_site_label
_atom_site_type_symbol
_atom_site_fract_x
_atom_site_fract_y
_atom_site_fract_z
_atom_site_charge
Pr	Pr	0.26224 0.08124 0.06469 2.01400
Pr	Pr	0.89149 0.30850 0.27467 2.07000
Pr	Pr	0.23776 0.58124 0.43531 2.01500
Pr	Pr	0.60851 0.80850 0.22533 2.07000
Pr	Pr	0.73776 0.91876 0.93531 2.01400
Pr	Pr	0.10851 0.69150 0.72533 2.07000
Pr	Pr	0.76224 0.41876 0.56469 2.01500
Pr	Pr	0.39149 0.19150 0.77467 2.07000
H 	H 	0.20430 0.22590 0.41300 0.26700
H 	H 	0.09330 0.13180 0.40940 0.26500
H 	H 	0.23880 0.09290 0.42400 0.26600
H 	H 	0.88420 0.17590 0.73100 0.28000
H 	H 	0.98840 0.08910 0.71150 0.28900
H 	H 	0.01430 0.22480 0.71210 0.27800
H 	H 	0.33620 0.02300 0.33610 0.13300
H 	H 	0.88640 0.12400 0.83830 0.13600
H 	H 	0.29570 0.72590 0.08700 0.26800
H 	H 	0.40670 0.63180 0.09060 0.26600
H 	H 	0.26120 0.59290 0.07600 0.26700
H 	H 	0.61580 0.67590 0.76900 0.28500
H 	H 	0.51160 0.58910 0.78850 0.29300
H 	H 	0.48570 0.72480 0.78790 0.28600
H 	H 	0.16380 0.52300 0.16390 0.13400
H 	H 	0.61360 0.62400 0.66170 0.13700
H 	H 	0.79570 0.77410 0.58700 0.26700
H 	H 	0.90670 0.86820 0.59060 0.26500
H 	H 	0.76120 0.90710 0.57600 0.26600
H 	H 	0.11580 0.82410 0.26900 0.28000
H 	H 	0.01160 0.91090 0.28850 0.28900
H 	H 	0.98570 0.77520 0.28790 0.27800
H 	H 	0.66380 0.97700 0.66390 0.13300
H 	H 	0.11360 0.87600 0.16170 0.13600
H 	H 	0.70430 0.27410 0.91300 0.26800
H 	H 	0.59330 0.36820 0.90940 0.26600
H 	H 	0.73880 0.40710 0.92400 0.26700
H 	H 	0.38420 0.32410 0.23100 0.28500
H 	H 	0.48840 0.41090 0.21150 0.29300
H 	H 	0.51430 0.27520 0.21210 0.28600
H 	H 	0.83620 0.47700 0.83610 0.13400
H 	H 	0.38640 0.37600 0.33830 0.13700
C 	C 	0.08310 0.17960 0.18070 0.40200
C 	C 	0.15270 0.14000 0.23868 -0.10000
C 	C 	0.25760 0.06540 0.25293 -0.03100
C 	C 	0.33920 0.98870 0.21831 0.37800
C 	C 	0.18810 0.13140 0.33620 0.32500
C 	C 	0.18040 0.14690 0.40140 -0.86200
C 	C 	0.30480 0.15170 0.91282 0.41000
C 	C 	0.17280 0.14870 0.87724 -0.07800
C 	C 	0.05190 0.13060 0.89443 -0.04200
C 	C 	0.99550 0.11720 0.95153 0.41100
C 	C 	0.03730 0.15350 0.79542 0.35000
C 	C 	0.97560 0.16160 0.73190 -0.88500
C 	C 	0.76440 0.04090 0.28548 0.22200
C 	C 	0.70380 0.08700 0.22277 0.23800
C 	C 	0.41690 0.67960 0.31930 0.40400
C 	C 	0.34730 0.64000 0.26132 -0.10100
C 	C 	0.24240 0.56540 0.24707 -0.02700
C 	C 	0.16080 0.48870 0.28169 0.37500
C 	C 	0.31190 0.63140 0.16380 0.32700
C 	C 	0.31960 0.64690 0.09860 -0.86400
C 	C 	0.19520 0.65170 0.58718 0.41100
C 	C 	0.32720 0.64870 0.62276 -0.08100
C 	C 	0.44810 0.63060 0.60557 -0.03500
C 	C 	0.50450 0.61720 0.54847 0.40100
C 	C 	0.46270 0.65350 0.70458 0.36000
C 	C 	0.52440 0.66160 0.76810 -0.90800
C 	C 	0.73560 0.54090 0.21452 0.22300
C 	C 	0.79620 0.58700 0.27723 0.23700
C 	C 	0.91690 0.82040 0.81930 0.40200
C 	C 	0.84730 0.86000 0.76132 -0.10000
C 	C 	0.74240 0.93460 0.74707 -0.03100
C 	C 	0.66080 0.01130 0.78169 0.37800
C 	C 	0.81190 0.86860 0.66380 0.32500
C 	C 	0.81960 0.85310 0.59860 -0.86200
C 	C 	0.69520 0.84830 0.08718 0.41000
C 	C 	0.82720 0.85130 0.12276 -0.07800
C 	C 	0.94810 0.86940 0.10557 -0.04200
C 	C 	0.00450 0.88280 0.04847 0.41100
C 	C 	0.96270 0.84650 0.20458 0.35000
C 	C 	0.02440 0.83840 0.26810 -0.88500
C 	C 	0.23560 0.95910 0.71452 0.22200
C 	C 	0.29620 0.91300 0.77723 0.23800
C 	C 	0.58310 0.32040 0.68070 0.40400
C 	C 	0.65270 0.36000 0.73868 -0.10100
C 	C 	0.75760 0.43460 0.75293 -0.02700
C 	C 	0.83920 0.51130 0.71831 0.37500
C 	C 	0.68810 0.36860 0.83620 0.32700
C 	C 	0.68040 0.35310 0.90140 -0.86400
C 	C 	0.80480 0.34830 0.41282 0.41100
C 	C 	0.67280 0.35130 0.37724 -0.08100
C 	C 	0.55190 0.36940 0.39443 -0.03500
C 	C 	0.49550 0.38280 0.45153 0.40100
C 	C 	0.53730 0.34650 0.29542 0.36000
C 	C 	0.47560 0.33840 0.23190 -0.90800
C 	C 	0.26440 0.45910 0.78548 0.22300
C 	C 	0.20380 0.41300 0.72277 0.23700
N 	N 	0.11020 0.17960 0.29132 -0.26000
N 	N 	0.27680 0.06260 0.31455 -0.24500
N 	N 	0.16230 0.16290 0.81567 -0.25800
N 	N 	0.96920 0.13350 0.84150 -0.24100
N 	N 	0.38980 0.67960 0.20868 -0.26000
N 	N 	0.22320 0.56260 0.18545 -0.24500
N 	N 	0.33770 0.66290 0.68433 -0.25900
N 	N 	0.53080 0.63350 0.65850 -0.24700
N 	N 	0.88980 0.82040 0.70868 -0.26000
N 	N 	0.72320 0.93740 0.68545 -0.24500
N 	N 	0.83770 0.83710 0.18433 -0.25800
N 	N 	0.03080 0.86650 0.15850 -0.24100
N 	N 	0.61020 0.32040 0.79132 -0.26000
N 	N 	0.77680 0.43740 0.81455 -0.24500
N 	N 	0.66230 0.33710 0.31567 -0.25900
N 	N 	0.46920 0.36650 0.34150 -0.24700
O 	O 	0.97880 0.23490 0.18248 -0.44000
O 	O 	0.12810 0.16010 0.13268 -0.52300
O 	O 	0.31440 0.98010 0.16217 -0.53900
O 	O 	0.42620 0.93420 0.25037 -0.46500
O 	O 	0.39920 0.17960 0.88507 -0.50600
O 	O 	0.31950 0.12420 0.96708 -0.57900
O 	O 	0.06280 0.13380 0.00083 -0.50100
O 	O 	0.87590 0.09190 0.94556 -0.50400
O 	O 	0.84190 0.10820 0.31586 -0.41600
O 	O 	0.73200 0.94040 0.30080 -0.40400
O 	O 	0.73100 0.18960 0.20969 -0.42700
O 	O 	0.63140 0.01790 0.19075 -0.43100
O 	O 	0.52120 0.73490 0.31752 -0.44000
O 	O 	0.37190 0.66010 0.36732 -0.52200
O 	O 	0.18560 0.48010 0.33783 -0.54000
O 	O 	0.07380 0.43420 0.24963 -0.46500
O 	O 	0.10080 0.67960 0.61493 -0.50600
O 	O 	0.18050 0.62420 0.53292 -0.58000
O 	O 	0.43720 0.63380 0.49917 -0.49400
O 	O 	0.62410 0.59190 0.55444 -0.50400
O 	O 	0.65810 0.60820 0.18414 -0.41600
O 	O 	0.76800 0.44040 0.19920 -0.40500
O 	O 	0.76900 0.68960 0.29031 -0.42700
O 	O 	0.86860 0.51790 0.30925 -0.43000
O 	O 	0.02120 0.76510 0.81752 -0.44000
O 	O 	0.87190 0.83990 0.86732 -0.52300
O 	O 	0.68560 0.01990 0.83783 -0.53900
O 	O 	0.57380 0.06580 0.74963 -0.46500
O 	O 	0.60080 0.82040 0.11493 -0.50600
O 	O 	0.68050 0.87580 0.03292 -0.57900
O 	O 	0.93720 0.86620 0.99917 -0.50100
O 	O 	0.12410 0.90810 0.05444 -0.50400
O 	O 	0.15810 0.89180 0.68414 -0.41600
O 	O 	0.26800 0.05960 0.69920 -0.40400
O 	O 	0.26900 0.81040 0.79031 -0.42700
O 	O 	0.36860 0.98210 0.80925 -0.43100
O 	O 	0.47880 0.26510 0.68248 -0.44000
O 	O 	0.62810 0.33990 0.63268 -0.52200
O 	O 	0.81440 0.51990 0.66217 -0.54000
O 	O 	0.92620 0.56580 0.75037 -0.46500
O 	O 	0.89920 0.32040 0.38507 -0.50600
O 	O 	0.81950 0.37580 0.46708 -0.58000
O 	O 	0.56280 0.36620 0.50083 -0.49400
O 	O 	0.37590 0.40810 0.44556 -0.50400
O 	O 	0.34190 0.39180 0.81586 -0.41600
O 	O 	0.23200 0.55960 0.80080 -0.40500
O 	O 	0.23100 0.31040 0.70969 -0.42700
O 	O 	0.13140 0.48210 0.69075 -0.43000
