data_crystal

_cell_length_a 9.24200
_cell_length_b 9.72700
_cell_length_c 18.20100
_cell_angle_alpha 90.00000
_cell_angle_beta  90.00000
_cell_angle_gamma 105.11000

_symmetry_space_group_name_	'P 1'
_symmetry_space_group_name_H-M	'P 1'

loop_
_symmetry_equiv_pos_as_xyz
  x,y,z

loop_
_atom_site_label
_atom_site_type_symbol
_atom_site_fract_x
_atom_site_fract_y
_atom_site_fract_z
_atom_site_charge
Cd	Cd	0.36637 0.06172 0.43373 1.20800
Cd	Cd	0.63363 0.43828 0.93373 1.20800
H 	H 	0.89610 0.78300 0.72570 0.08000
H 	H 	0.75100 0.47760 0.36730 0.04900
H 	H 	0.97610 0.60500 0.95090 -0.00600
H 	H 	0.83480 0.72150 0.39840 0.07700
H 	H 	0.47770 0.20440 0.68960 0.04400
H 	H 	0.71650 0.60660 0.78180 0.00000
H 	H 	0.16520 0.77850 0.89840 0.07600
H 	H 	0.28350 0.89340 0.28180 0.00100
H 	H 	0.24900 0.02240 0.86730 0.05000
H 	H 	0.86920 0.64060 0.16660 0.04400
H 	H 	0.02390 0.89500 0.45090 -0.00700
H 	H 	0.10390 0.71700 0.22570 0.07900
H 	H 	0.52230 0.29560 0.18960 0.04400
H 	H 	0.13080 0.85940 0.66660 0.04400
C 	C 	0.19300 0.85660 0.30599 0.08200
C 	C 	0.92580 0.75340 0.37402 -0.14600
C 	C 	0.82810 0.58000 0.27287 -0.02900
C 	C 	0.17190 0.92000 0.77287 -0.02700
C 	C 	0.80590 0.57410 0.19674 -0.00600
C 	C 	0.08490 0.75100 0.27153 -0.14400
C 	C 	0.91510 0.74900 0.77153 -0.14800
C 	C 	0.68950 0.46920 0.16590 -0.08700
C 	C 	0.07420 0.74660 0.87402 -0.14000
C 	C 	0.31050 0.03080 0.66590 -0.08800
C 	C 	0.37580 0.13380 0.78563 -0.06800
C 	C 	0.73680 0.47510 0.31671 -0.01700
C 	C 	0.66320 0.46820 0.08475 0.29700
C 	C 	0.59960 0.36580 0.21034 0.00900
C 	C 	0.33680 0.03180 0.58475 0.29500
C 	C 	0.04020 0.85810 0.40536 0.07800
C 	C 	0.26320 0.02490 0.81671 -0.01900
C 	C 	0.80700 0.64340 0.80599 0.08300
C 	C 	0.40040 0.13420 0.71034 0.00900
C 	C 	0.05300 0.80410 0.80603 0.09100
C 	C 	0.52880 0.25130 0.33366 0.30300
C 	C 	0.94700 0.69590 0.30603 0.08900
C 	C 	0.95980 0.64190 0.90536 0.07200
C 	C 	0.19410 0.92590 0.69674 -0.00500
C 	C 	0.47120 0.24870 0.83366 0.30200
C 	C 	0.62420 0.36620 0.28563 -0.06800
N 	N 	0.17390 0.90840 0.37245 -0.24000
N 	N 	0.82610 0.59160 0.87245 -0.24000
O 	O 	0.57730 0.33890 0.80562 -0.36100
O 	O 	0.23120 0.97510 0.54294 -0.38900
O 	O 	0.76880 0.52490 0.04294 -0.39000
O 	O 	0.43820 0.24900 0.90081 -0.39500
O 	O 	0.46850 0.09210 0.56103 -0.46900
O 	O 	0.53150 0.40790 0.06103 -0.46900
O 	O 	0.56180 0.25100 0.40081 -0.39500
O 	O 	0.42270 0.16110 0.30562 -0.36200
Cd	Cd	0.63363 0.93828 0.56627 1.20900
Cd	Cd	0.36637 0.56172 0.06627 1.20900
H 	H 	0.28350 0.39340 0.21820 0.00000
H 	H 	0.71650 0.10660 0.71820 0.00100
H 	H 	0.52230 0.79560 0.31040 0.04400
H 	H 	0.02390 0.39500 0.04910 -0.00600
H 	H 	0.16520 0.27850 0.60160 0.07700
H 	H 	0.86920 0.14060 0.33340 0.04400
H 	H 	0.89610 0.28300 0.77430 0.07900
H 	H 	0.97610 0.10500 0.54910 -0.00700
H 	H 	0.47770 0.70440 0.81040 0.04400
H 	H 	0.13080 0.35940 0.83340 0.04400
H 	H 	0.10390 0.21700 0.27430 0.08000
H 	H 	0.24900 0.52240 0.63270 0.04900
H 	H 	0.83480 0.22150 0.10160 0.07600
H 	H 	0.75100 0.97760 0.13270 0.05000
C 	C 	0.47120 0.74870 0.66634 0.30300
C 	C 	0.33680 0.53180 0.91525 0.29700
C 	C 	0.95980 0.14190 0.59464 0.07800
C 	C 	0.73680 0.97510 0.18329 -0.01900
C 	C 	0.05300 0.30410 0.69397 0.08900
C 	C 	0.66320 0.96820 0.41525 0.29500
C 	C 	0.08490 0.25100 0.22847 -0.14800
C 	C 	0.94700 0.19590 0.19397 0.09100
C 	C 	0.52880 0.75130 0.16634 0.30200
C 	C 	0.31050 0.53080 0.83410 -0.08700
C 	C 	0.59960 0.86580 0.28966 0.00900
C 	C 	0.07420 0.24660 0.62598 -0.14600
C 	C 	0.40040 0.63420 0.78966 0.00900
C 	C 	0.80590 0.07410 0.30326 -0.00500
C 	C 	0.62420 0.86620 0.21437 -0.06800
C 	C 	0.37580 0.63380 0.71437 -0.06800
C 	C 	0.82810 0.08000 0.22713 -0.02700
C 	C 	0.68950 0.96920 0.33410 -0.08800
C 	C 	0.04020 0.35810 0.09464 0.07200
C 	C 	0.19300 0.35660 0.19401 0.08300
C 	C 	0.26320 0.52490 0.68329 -0.01700
C 	C 	0.19410 0.42590 0.80326 -0.00600
C 	C 	0.17190 0.42000 0.72713 -0.02900
C 	C 	0.91510 0.24900 0.72847 -0.14400
C 	C 	0.92580 0.25340 0.12598 -0.14000
C 	C 	0.80700 0.14340 0.69401 0.08200
N 	N 	0.17390 0.40840 0.12755 -0.24000
N 	N 	0.82610 0.09160 0.62755 -0.24000
O 	O 	0.42270 0.66110 0.19438 -0.36100
O 	O 	0.23120 0.47510 0.95706 -0.39000
O 	O 	0.46850 0.59210 0.93897 -0.46900
O 	O 	0.56180 0.75100 0.09919 -0.39500
O 	O 	0.76880 0.02490 0.45706 -0.38900
O 	O 	0.53150 0.90790 0.43897 -0.46900
O 	O 	0.43820 0.74900 0.59919 -0.39500
O 	O 	0.57730 0.83890 0.69438 -0.36200
