data_crystal

_cell_length_a 9.23800
_cell_length_b 9.74300
_cell_length_c 18.22500
_cell_angle_alpha 90.00000
_cell_angle_beta  90.00000
_cell_angle_gamma 104.94000

_symmetry_space_group_name_	'P 1'
_symmetry_space_group_name_H-M	'P 1'

loop_
_symmetry_equiv_pos_as_xyz
  x,y,z

loop_
_atom_site_label
_atom_site_type_symbol
_atom_site_fract_x
_atom_site_fract_y
_atom_site_fract_z
_atom_site_charge
Cd	Cd	0.13315 0.43812 0.93392 1.20700
Cd	Cd	0.86685 0.06188 0.43392 1.20800
Cd	Cd	0.86685 0.56188 0.06608 1.20700
Cd	Cd	0.13315 0.93812 0.56608 1.20800
H 	H 	0.63280 0.85950 0.66670 0.04400
H 	H 	0.97750 0.20220 0.68980 0.04500
H 	H 	0.74900 0.02260 0.86710 0.05000
H 	H 	0.21630 0.60700 0.78280 -0.00100
H 	H 	0.39590 0.78150 0.72590 0.08000
H 	H 	0.66570 0.77650 0.89750 0.07800
H 	H 	0.47550 0.60600 0.95110 -0.00800
H 	H 	0.36720 0.64050 0.16670 0.04500
H 	H 	0.02250 0.29780 0.18980 0.04600
H 	H 	0.25100 0.47740 0.36710 0.05000
H 	H 	0.78370 0.89300 0.28280 0.00000
H 	H 	0.60410 0.71850 0.22590 0.08000
H 	H 	0.33430 0.72350 0.39750 0.07700
H 	H 	0.52450 0.89400 0.45110 -0.00800
H 	H 	0.36720 0.14050 0.33330 0.04400
H 	H 	0.02250 0.79780 0.31020 0.04500
H 	H 	0.25100 0.97740 0.13290 0.05000
H 	H 	0.78370 0.39300 0.21720 -0.00100
H 	H 	0.60410 0.21850 0.27410 0.08000
H 	H 	0.33430 0.22350 0.10250 0.07800
H 	H 	0.52450 0.39400 0.04890 -0.00800
H 	H 	0.63280 0.35950 0.83330 0.04500
H 	H 	0.97750 0.70220 0.81020 0.04600
H 	H 	0.74900 0.52260 0.63290 0.05000
H 	H 	0.21630 0.10700 0.71720 0.00000
H 	H 	0.39590 0.28150 0.77410 0.08000
H 	H 	0.66570 0.27650 0.60250 0.07700
H 	H 	0.47550 0.10600 0.54890 -0.00800
C 	C 	0.67200 0.91950 0.77270 -0.02700
C 	C 	0.69530 0.92600 0.69700 -0.00500
C 	C 	0.81030 0.03030 0.66660 -0.08600
C 	C 	0.90000 0.13270 0.71050 0.00700
C 	C 	0.87540 0.13270 0.78560 -0.06500
C 	C 	0.76340 0.02480 0.81660 -0.02000
C 	C 	0.30710 0.64320 0.80660 0.08300
C 	C 	0.41500 0.74810 0.77180 -0.14600
C 	C 	0.55290 0.80340 0.80630 0.09100
C 	C 	0.57420 0.74570 0.87350 -0.14600
C 	C 	0.45940 0.64180 0.90530 0.07800
C 	C 	0.83720 0.03150 0.58440 0.30000
C 	C 	0.97190 0.24870 0.83420 0.30500
C 	C 	0.32800 0.58050 0.27270 -0.02800
C 	C 	0.30470 0.57400 0.19700 -0.00700
C 	C 	0.18970 0.46970 0.16660 -0.08500
C 	C 	0.10000 0.36730 0.21050 0.00700
C 	C 	0.12460 0.36730 0.28560 -0.06600
C 	C 	0.23660 0.47520 0.31660 -0.01800
C 	C 	0.69290 0.85680 0.30660 0.08300
C 	C 	0.58500 0.75190 0.27180 -0.14600
C 	C 	0.44710 0.69660 0.30630 0.09100
C 	C 	0.42580 0.75430 0.37350 -0.14600
C 	C 	0.54060 0.85820 0.40530 0.07900
C 	C 	0.16280 0.46850 0.08440 0.30200
C 	C 	0.02810 0.25130 0.33420 0.30900
C 	C 	0.32800 0.08050 0.22730 -0.02700
C 	C 	0.30470 0.07400 0.30300 -0.00500
C 	C 	0.18970 0.96970 0.33340 -0.08600
C 	C 	0.10000 0.86730 0.28950 0.00700
C 	C 	0.12460 0.86730 0.21440 -0.06500
C 	C 	0.23660 0.97520 0.18340 -0.02000
C 	C 	0.69290 0.35680 0.19340 0.08300
C 	C 	0.58500 0.25190 0.22820 -0.14600
C 	C 	0.44710 0.19660 0.19370 0.09100
C 	C 	0.42580 0.25430 0.12650 -0.14600
C 	C 	0.54060 0.35820 0.09470 0.07800
C 	C 	0.16280 0.96850 0.41560 0.30000
C 	C 	0.02810 0.75130 0.16580 0.30500
C 	C 	0.67200 0.41950 0.72730 -0.02800
C 	C 	0.69530 0.42600 0.80300 -0.00700
C 	C 	0.81030 0.53030 0.83340 -0.08500
C 	C 	0.90000 0.63270 0.78950 0.00700
C 	C 	0.87540 0.63270 0.71440 -0.06600
C 	C 	0.76340 0.52480 0.68340 -0.01800
C 	C 	0.30710 0.14320 0.69340 0.08300
C 	C 	0.41500 0.24810 0.72820 -0.14600
C 	C 	0.55290 0.30340 0.69370 0.09100
C 	C 	0.57420 0.24570 0.62650 -0.14600
C 	C 	0.45940 0.14180 0.59470 0.07900
C 	C 	0.83720 0.53150 0.91560 0.30200
C 	C 	0.97190 0.74870 0.66580 0.30900
N 	N 	0.32660 0.59120 0.87270 -0.24100
N 	N 	0.67340 0.90880 0.37270 -0.24000
N 	N 	0.67340 0.40880 0.12730 -0.24100
N 	N 	0.32660 0.09120 0.62730 -0.24000
O 	O 	0.96810 0.09150 0.56146 -0.47500
O 	O 	0.73160 0.97600 0.54300 -0.39200
O 	O 	0.07730 0.33840 0.80580 -0.36300
O 	O 	0.93820 0.24890 0.90070 -0.39700
O 	O 	0.03190 0.40850 0.06146 -0.47200
O 	O 	0.26840 0.52400 0.04300 -0.39300
O 	O 	0.92270 0.16160 0.30580 -0.36700
O 	O 	0.06180 0.25110 0.40070 -0.39700
O 	O 	0.03190 0.90850 0.43854 -0.47500
O 	O 	0.26840 0.02400 0.45700 -0.39200
O 	O 	0.92270 0.66160 0.19420 -0.36300
O 	O 	0.06180 0.75110 0.09930 -0.39700
O 	O 	0.96810 0.59150 0.93854 -0.47200
O 	O 	0.73160 0.47600 0.95700 -0.39300
O 	O 	0.07730 0.83840 0.69420 -0.36700
O 	O 	0.93820 0.74890 0.59930 -0.39700
