data_crystal

_cell_length_a 7.91800
_cell_length_b 8.44190
_cell_length_c 19.61700
_cell_angle_alpha 87.81650
_cell_angle_beta  85.34000
_cell_angle_gamma 62.03250

_symmetry_space_group_name_	'P 1'
_symmetry_space_group_name_H-M	'P 1'

loop_
_symmetry_equiv_pos_as_xyz
  x,y,z

loop_
_atom_site_label
_atom_site_type_symbol
_atom_site_fract_x
_atom_site_fract_y
_atom_site_fract_z
_atom_site_charge
Dy	Dy	0.79437 0.92550 0.48756 1.82200
Dy	Dy	0.28013 0.92550 0.01244 1.82400
Dy	Dy	0.20563 0.07450 0.51244 1.82200
Dy	Dy	0.71987 0.07450 0.98756 1.82400
H 	H 	0.24680 0.53260 0.32190 0.19300
H 	H 	0.05690 0.55000 0.29600 0.17400
H 	H 	0.18430 0.80680 0.26500 -0.05400
H 	H 	0.67600 0.53000 0.46210 0.20500
H 	H 	0.84990 0.44160 0.40760 0.19600
H 	H 	0.63990 0.45480 0.32650 -0.10200
H 	H 	0.46620 0.54660 0.38110 -0.08900
H 	H 	0.50750 0.75700 0.30280 0.21500
H 	H 	0.69860 0.71020 0.33660 0.20600
H 	H 	0.22060 0.53260 0.17810 0.19200
H 	H 	0.39310 0.55000 0.20400 0.17500
H 	H 	0.00890 0.80680 0.23500 -0.05500
H 	H 	0.79400 0.53000 0.03790 0.20500
H 	H 	0.70850 0.44160 0.09240 0.19700
H 	H 	0.90530 0.45480 0.17350 -0.10300
H 	H 	0.98720 0.54660 0.11890 -0.09000
H 	H 	0.73550 0.75700 0.19720 0.21600
H 	H 	0.59120 0.71020 0.16340 0.20700
H 	H 	0.75320 0.46740 0.67810 0.19300
H 	H 	0.94310 0.45000 0.70400 0.17400
H 	H 	0.81570 0.19320 0.73500 -0.05400
H 	H 	0.32400 0.47000 0.53790 0.20500
H 	H 	0.15010 0.55840 0.59240 0.19600
H 	H 	0.36010 0.54520 0.67350 -0.10200
H 	H 	0.53380 0.45340 0.61890 -0.08900
H 	H 	0.49250 0.24300 0.69720 0.21500
H 	H 	0.30140 0.28980 0.66340 0.20600
H 	H 	0.77940 0.46740 0.82190 0.19200
H 	H 	0.60690 0.45000 0.79600 0.17500
H 	H 	0.99110 0.19320 0.76500 -0.05500
H 	H 	0.20600 0.47000 0.96210 0.20500
H 	H 	0.29150 0.55840 0.90760 0.19700
H 	H 	0.09470 0.54520 0.82650 -0.10300
H 	H 	0.01280 0.45340 0.88110 -0.09000
H 	H 	0.26450 0.24300 0.80280 0.21600
H 	H 	0.40880 0.28980 0.83660 0.20700
C 	C 	0.00820 0.72520 0.37250 0.45400
C 	C 	0.11870 0.61780 0.31010 -0.54200
C 	C 	0.75290 0.26900 0.44440 0.55200
C 	C 	0.72590 0.45080 0.42270 -0.61600
C 	C 	0.59160 0.53400 0.36590 0.40400
C 	C 	0.57220 0.71860 0.34490 -0.63800
C 	C 	0.46050 0.85340 0.40010 0.56100
C 	C 	0.26660 0.72520 0.12750 0.45300
C 	C 	0.26350 0.61780 0.18990 -0.54100
C 	C 	0.97810 0.26900 0.05560 0.55300
C 	C 	0.82330 0.45080 0.07730 -0.61800
C 	C 	0.87440 0.53400 0.13410 0.40500
C 	C 	0.70920 0.71860 0.15510 -0.64000
C 	C 	0.68610 0.85340 0.09990 0.56200
C 	C 	0.99180 0.27480 0.62750 0.45400
C 	C 	0.88130 0.38220 0.68990 -0.54200
C 	C 	0.24710 0.73100 0.55560 0.55200
C 	C 	0.27410 0.54920 0.57730 -0.61600
C 	C 	0.40840 0.46600 0.63410 0.40400
C 	C 	0.42780 0.28140 0.65510 -0.63800
C 	C 	0.53950 0.14660 0.59990 0.56100
C 	C 	0.73340 0.27480 0.87250 0.45300
C 	C 	0.73650 0.38220 0.81010 -0.54100
C 	C 	0.02190 0.73100 0.94440 0.55300
C 	C 	0.17670 0.54920 0.92270 -0.61800
C 	C 	0.12560 0.46600 0.86590 0.40500
C 	C 	0.29080 0.28140 0.84490 -0.64000
C 	C 	0.31390 0.14660 0.90010 0.56200
C 	C 	0.13460 0.73080 0.25000 0.32900
C 	C 	0.86540 0.26920 0.75000 0.32900
O 	O 	0.90920 0.89260 0.36961 -0.44000
O 	O 	0.01100 0.64480 0.42902 -0.47800
O 	O 	0.90960 0.15560 0.46698 -0.60400
O 	O 	0.61940 0.22620 0.44192 -0.47500
O 	O 	0.28490 0.90700 0.40909 -0.49700
O 	O 	0.54130 0.91020 0.43924 -0.61100
O 	O 	0.19820 0.89260 0.13039 -0.43900
O 	O 	0.34420 0.64480 0.07098 -0.47700
O 	O 	0.93480 0.15560 0.03302 -0.60300
O 	O 	0.15440 0.22620 0.05808 -0.47600
O 	O 	0.80810 0.90700 0.09091 -0.50000
O 	O 	0.54850 0.91020 0.06076 -0.61200
O 	O 	0.09080 0.10740 0.63039 -0.44000
O 	O 	0.98900 0.35520 0.57098 -0.47800
O 	O 	0.09040 0.84440 0.53302 -0.60400
O 	O 	0.38060 0.77380 0.55808 -0.47500
O 	O 	0.71510 0.09300 0.59091 -0.49700
O 	O 	0.45870 0.08980 0.56076 -0.61100
O 	O 	0.80180 0.10740 0.86961 -0.43900
O 	O 	0.65580 0.35520 0.92902 -0.47700
O 	O 	0.06520 0.84440 0.96698 -0.60300
O 	O 	0.84560 0.77380 0.94192 -0.47600
O 	O 	0.19190 0.09300 0.90909 -0.50000
O 	O 	0.45150 0.08980 0.93924 -0.61200
