data_crystal

_cell_length_a 10.89840
_cell_length_b 11.42600
_cell_length_c 15.05900
_cell_angle_alpha 90.00000
_cell_angle_beta  90.00000
_cell_angle_gamma 90.00000

_symmetry_space_group_name_	'P 1'
_symmetry_space_group_name_H-M	'P 1'

loop_
_symmetry_equiv_pos_as_xyz
  x,y,z

loop_
_atom_site_label
_atom_site_type_symbol
_atom_site_fract_x
_atom_site_fract_y
_atom_site_fract_z
_atom_site_charge
O 	O 	0.33280 0.25130 0.20770 -0.17700
O 	O 	0.37540 0.08370 0.41320 -0.32900
O 	O 	0.17030 0.98110 0.33940 -0.19000
O 	O 	0.16940 0.98230 0.13980 -0.13800
O 	O 	0.31700 0.29500 0.02410 -0.40900
C 	C 	0.31660 0.13030 0.33570 0.05700
C 	C 	0.28890 0.16180 0.14750 -0.01100
C 	C 	0.20110 0.07880 0.19590 0.03100
C 	C 	0.25960 0.03350 0.28140 -0.17200
C 	C 	0.22910 0.22530 0.07080 0.09600
C 	C 	0.40050 0.20630 0.28030 0.15700
H 	H 	0.25190 0.17900 0.35610 0.01100
H 	H 	0.35660 0.11800 0.12560 0.04800
H 	H 	0.12780 0.12080 0.21060 0.03000
H 	H 	0.32100 0.97720 0.26670 0.17400
H 	H 	0.43040 0.26950 0.31550 0.03200
H 	H 	0.16510 0.27470 0.09310 -0.02100
H 	H 	0.19360 0.16970 0.03120 -0.03900
O 	O 	0.83280 0.75130 0.20770 -0.18700
O 	O 	0.87540 0.58370 0.41320 -0.29000
O 	O 	0.67030 0.48110 0.33940 -0.29500
O 	O 	0.66940 0.48230 0.13980 -0.20300
O 	O 	0.81700 0.79500 0.02410 -0.39500
C 	C 	0.81660 0.63030 0.33570 -0.01800
C 	C 	0.78890 0.66180 0.14750 0.00000
C 	C 	0.70110 0.57880 0.19590 0.03800
C 	C 	0.75960 0.53350 0.28140 0.05500
C 	C 	0.72910 0.72530 0.07080 0.08200
C 	C 	0.90050 0.70630 0.28030 0.16700
H 	H 	0.75190 0.67900 0.35610 0.03900
H 	H 	0.85660 0.61800 0.12560 0.05600
H 	H 	0.62780 0.62080 0.21060 0.03900
H 	H 	0.82100 0.47720 0.26670 0.04400
H 	H 	0.93040 0.76950 0.31550 0.02400
H 	H 	0.66510 0.77470 0.09310 -0.01100
H 	H 	0.69360 0.66970 0.03120 -0.02300
O 	O 	0.66720 0.74870 0.70770 -0.20000
O 	O 	0.62460 0.91630 0.91320 -0.16500
O 	O 	0.82970 0.01890 0.83940 -0.36300
O 	O 	0.83060 0.01770 0.63980 -0.21900
O 	O 	0.68300 0.70500 0.52410 -0.31500
C 	C 	0.68340 0.86970 0.83570 -0.11800
C 	C 	0.71110 0.83820 0.64750 0.03400
C 	C 	0.79890 0.92120 0.69590 0.03100
C 	C 	0.74040 0.96650 0.78140 0.27700
C 	C 	0.77090 0.77470 0.57080 0.02600
C 	C 	0.59950 0.79370 0.78030 0.23300
H 	H 	0.74810 0.82100 0.85610 0.10000
H 	H 	0.64340 0.88200 0.62560 0.08500
H 	H 	0.87220 0.87920 0.71060 0.05700
H 	H 	0.67900 0.02280 0.76670 -0.06200
H 	H 	0.56960 0.73050 0.81550 0.02000
H 	H 	0.83490 0.72530 0.59310 0.02300
H 	H 	0.80640 0.83030 0.53120 0.05500
O 	O 	0.16720 0.24870 0.70770 -0.18700
O 	O 	0.12460 0.41630 0.91320 -0.20700
O 	O 	0.32970 0.51890 0.83940 -0.26800
O 	O 	0.33060 0.51770 0.63980 -0.16000
O 	O 	0.18300 0.20500 0.52410 -0.32300
C 	C 	0.18340 0.36970 0.83570 -0.04100
C 	C 	0.21110 0.33820 0.64750 0.02400
C 	C 	0.29890 0.42120 0.69590 0.02400
C 	C 	0.24040 0.46650 0.78140 0.06600
C 	C 	0.27090 0.27470 0.57080 0.03700
C 	C 	0.09950 0.29370 0.78030 0.19600
H 	H 	0.24810 0.32100 0.85610 0.07300
H 	H 	0.14340 0.38200 0.62560 0.07600
H 	H 	0.37220 0.37920 0.71060 0.05000
H 	H 	0.17900 0.52280 0.76670 0.05500
H 	H 	0.06960 0.23050 0.81550 0.03500
H 	H 	0.33490 0.22530 0.59310 0.01600
H 	H 	0.30640 0.33030 0.53120 0.04100
O 	O 	0.66720 0.25130 0.29230 -0.18100
O 	O 	0.62460 0.08370 0.08680 -0.39600
O 	O 	0.82970 0.98110 0.16060 -0.21600
O 	O 	0.83060 0.98230 0.36020 -0.11200
O 	O 	0.68300 0.29500 0.47590 -0.32500
C 	C 	0.68340 0.13030 0.16430 0.07800
C 	C 	0.71110 0.16180 0.35250 0.01000
C 	C 	0.79890 0.07880 0.30410 0.02800
C 	C 	0.74040 0.03350 0.21860 -0.18200
C 	C 	0.77090 0.22530 0.42920 0.04400
C 	C 	0.59950 0.20630 0.21970 0.14900
H 	H 	0.74810 0.17900 0.14390 -0.02800
H 	H 	0.64340 0.11800 0.37440 0.06000
H 	H 	0.87220 0.12080 0.28940 0.02300
H 	H 	0.67900 0.97720 0.23330 0.17900
H 	H 	0.56960 0.26950 0.18450 0.02200
H 	H 	0.83490 0.27470 0.40690 0.01100
H 	H 	0.80640 0.16970 0.46880 0.02300
O 	O 	0.16720 0.75130 0.29230 -0.18600
O 	O 	0.12460 0.58370 0.08680 -0.34000
O 	O 	0.32970 0.48110 0.16060 -0.31300
O 	O 	0.33060 0.48230 0.36020 -0.16200
O 	O 	0.18300 0.79500 0.47590 -0.30100
C 	C 	0.18340 0.63030 0.16430 -0.00300
C 	C 	0.21110 0.66180 0.35250 0.02600
C 	C 	0.29890 0.57880 0.30410 0.02800
C 	C 	0.24040 0.53350 0.21860 0.05200
C 	C 	0.27090 0.72530 0.42920 0.02200
C 	C 	0.09950 0.70630 0.21970 0.17900
H 	H 	0.24810 0.67900 0.14390 0.00700
H 	H 	0.14340 0.61800 0.37440 0.07500
H 	H 	0.37220 0.62080 0.28940 0.04400
H 	H 	0.17900 0.47720 0.23330 0.05300
H 	H 	0.06960 0.76950 0.18450 0.02300
H 	H 	0.33490 0.77470 0.40690 0.02900
H 	H 	0.30640 0.66970 0.46880 0.04700
O 	O 	0.33280 0.74870 0.79230 -0.20400
O 	O 	0.37540 0.91630 0.58680 -0.23100
O 	O 	0.17030 0.01890 0.66060 -0.38200
O 	O 	0.16940 0.01770 0.86020 -0.16600
O 	O 	0.31700 0.70500 0.97590 -0.21800
C 	C 	0.31660 0.86970 0.66430 -0.10700
C 	C 	0.28890 0.83820 0.85250 0.07600
C 	C 	0.20110 0.92120 0.80410 0.00400
C 	C 	0.25960 0.96650 0.71860 0.28600
C 	C 	0.22910 0.77470 0.92920 -0.05200
C 	C 	0.40050 0.79370 0.71970 0.23100
H 	H 	0.25190 0.82100 0.64390 0.07200
H 	H 	0.35660 0.88200 0.87440 0.08900
H 	H 	0.12780 0.87920 0.78940 0.07700
H 	H 	0.32100 0.02280 0.73330 -0.06400
H 	H 	0.43040 0.73050 0.68450 0.00900
H 	H 	0.16510 0.72530 0.90690 0.07700
H 	H 	0.19360 0.83030 0.96880 0.13300
O 	O 	0.83280 0.24870 0.79230 -0.19500
O 	O 	0.87540 0.41630 0.58680 -0.29000
O 	O 	0.67030 0.51890 0.66060 -0.29500
O 	O 	0.66940 0.51770 0.86020 -0.12100
O 	O 	0.81700 0.20500 0.97590 -0.23500
C 	C 	0.81660 0.36970 0.66430 -0.02300
C 	C 	0.78890 0.33820 0.85250 0.06000
C 	C 	0.70110 0.42120 0.80410 0.00600
C 	C 	0.75960 0.46650 0.71860 0.06600
C 	C 	0.72910 0.27470 0.92920 -0.03500
C 	C 	0.90050 0.29370 0.71970 0.17400
H 	H 	0.75190 0.32100 0.64390 0.03700
H 	H 	0.85660 0.38200 0.87440 0.07300
H 	H 	0.62780 0.37920 0.78940 0.05800
H 	H 	0.82100 0.52280 0.73330 0.05100
H 	H 	0.93040 0.23050 0.68450 0.01700
H 	H 	0.66510 0.22530 0.90690 0.06300
H 	H 	0.69360 0.33030 0.96880 0.11500
Ca	Ca	0.20585 0.00000 0.50000 1.49200
Ca	Ca	0.70585 0.50000 0.50000 1.50400
Ca	Ca	0.79415 0.00000 -0.00000 1.46400
Ca	Ca	0.29415 0.50000 -0.00000 1.47800
O 	O 	0.50000 0.13820 0.25000 -0.22800
O 	O 	-0.00000 0.63820 0.25000 -0.19900
O 	O 	0.50000 0.86180 0.75000 -0.21300
O 	O 	-0.00000 0.36180 0.75000 -0.19900
