data_crystal

_cell_length_a 12.48400
_cell_length_b 14.27500
_cell_length_c 22.27200
_cell_angle_alpha 92.71300
_cell_angle_beta  90.00000
_cell_angle_gamma 90.00000

_symmetry_space_group_name_	'P 1'
_symmetry_space_group_name_H-M	'P 1'

loop_
_symmetry_equiv_pos_as_xyz
  x,y,z

loop_
_atom_site_label
_atom_site_type_symbol
_atom_site_fract_x
_atom_site_fract_y
_atom_site_fract_z
_atom_site_charge
Co	Co	0.72792 0.18964 0.22835 1.14000
Co	Co	0.55040 0.00026 0.24875 1.19000
Co	Co	0.87783 0.19152 0.72632 1.14200
Co	Co	0.22792 0.81036 0.77165 1.14100
Co	Co	0.05040 0.99974 0.75125 1.19800
Co	Co	0.37783 0.80848 0.27368 1.14800
H 	H 	0.93260 0.31250 0.90560 -0.02900
H 	H 	0.99890 0.40150 0.98580 0.25700
H 	H 	0.26580 0.24740 0.97460 0.19300
H 	H 	0.19470 0.16050 0.89370 -0.05400
H 	H 	0.18350 0.22570 0.08920 0.23200
H 	H 	0.28680 0.13780 0.14110 -0.08900
H 	H 	0.51280 0.33120 0.13510 -0.06000
H 	H 	0.41610 0.41950 0.07530 0.26900
H 	H 	0.67270 0.31450 0.40260 0.03400
H 	H 	0.59800 0.40190 0.48310 0.23900
H 	H 	0.33290 0.23820 0.47500 0.15000
H 	H 	0.41390 0.14540 0.39960 -0.00200
H 	H 	0.43450 0.22070 0.58630 0.16600
H 	H 	0.31520 0.13210 0.64580 -0.00600
H 	H 	0.09830 0.34080 0.64470 0.00100
H 	H 	0.21660 0.42750 0.58830 0.22300
H 	H 	0.87700 0.27010 0.32750 0.00900
H 	H 	0.05100 0.29370 0.34790 0.19100
H 	H 	0.13230 0.11300 0.22120 0.13200
H 	H 	0.94980 0.09020 0.19680 -0.02800
H 	H 	0.26350 0.17230 0.27050 0.15100
H 	H 	0.24100 0.20710 0.33780 0.15300
H 	H 	0.25430 0.33950 0.23390 0.06200
H 	H 	0.19380 0.37660 0.29260 0.07400
H 	H 	0.41320 0.31670 0.28970 0.13100
H 	H 	0.35280 0.34520 0.35040 0.15000
H 	H 	0.29050 0.50330 0.36790 0.22100
H 	H 	0.28120 0.66110 0.34990 -0.00400
H 	H 	0.45550 0.62300 0.21140 -0.02800
H 	H 	0.42590 0.46450 0.21080 0.16000
H 	H 	0.64430 0.37470 0.28740 -0.05300
H 	H 	0.64760 0.53230 0.27690 0.19500
H 	H 	0.87500 0.49000 0.15310 0.27100
H 	H 	0.85280 0.33250 0.16210 -0.03900
H 	H 	0.72590 0.64070 0.16010 0.28700
H 	H 	0.69730 0.66340 0.22800 0.26500
H 	H 	0.87590 0.67180 0.25130 -0.13900
H 	H 	0.90580 0.64610 0.18500 -0.14000
H 	H 	0.83030 0.80900 0.22620 0.28100
H 	H 	0.86590 0.78240 0.16020 0.28200
H 	H 	0.98560 0.88980 0.29240 0.11200
H 	H 	0.16080 0.89260 0.31300 -0.02600
H 	H 	0.23780 0.73060 0.17760 0.00700
H 	H 	0.06390 0.71770 0.14540 0.18700
H 	H 	0.43260 0.68750 0.09440 -0.00100
H 	H 	0.49890 0.59850 0.01420 0.28100
H 	H 	0.76580 0.75260 0.02540 0.18900
H 	H 	0.69470 0.83950 0.10630 -0.04900
H 	H 	0.68350 0.77430 0.91080 0.21500
H 	H 	0.78680 0.86220 0.85890 -0.07300
H 	H 	0.01280 0.66880 0.86490 -0.01000
H 	H 	0.91610 0.58050 0.92470 0.24200
H 	H 	0.17270 0.68550 0.59740 0.05300
H 	H 	0.09800 0.59810 0.51690 0.22000
H 	H 	0.83290 0.76180 0.52500 0.13300
H 	H 	0.91390 0.85460 0.60040 0.01600
H 	H 	0.93450 0.77930 0.41370 0.16100
H 	H 	0.81520 0.86790 0.35420 -0.00600
H 	H 	0.59830 0.65920 0.35530 -0.00400
H 	H 	0.71660 0.57250 0.41170 0.22200
H 	H 	0.37700 0.72990 0.67250 -0.01400
H 	H 	0.55100 0.70630 0.65210 0.22000
H 	H 	0.63230 0.88700 0.77880 0.15700
H 	H 	0.44980 0.90980 0.80320 -0.04400
H 	H 	0.76350 0.82770 0.72950 0.16400
H 	H 	0.74100 0.79290 0.66220 0.16600
H 	H 	0.75430 0.66050 0.76610 0.05600
H 	H 	0.69380 0.62340 0.70740 0.06700
H 	H 	0.91320 0.68330 0.71030 0.12700
H 	H 	0.85280 0.65480 0.64960 0.14900
H 	H 	0.79050 0.49670 0.63210 0.21900
H 	H 	0.78120 0.33890 0.65010 -0.00600
H 	H 	0.95550 0.37700 0.78860 -0.03400
H 	H 	0.92590 0.53550 0.78920 0.15600
H 	H 	0.14430 0.62530 0.71260 -0.05700
H 	H 	0.14760 0.46770 0.72310 0.20900
H 	H 	0.37500 0.51000 0.84690 0.28800
H 	H 	0.35280 0.66750 0.83790 -0.04100
H 	H 	0.22590 0.35930 0.83990 0.31900
H 	H 	0.19730 0.33660 0.77200 0.29700
H 	H 	0.37590 0.32820 0.74870 -0.18300
H 	H 	0.40580 0.35390 0.81500 -0.18200
H 	H 	0.33030 0.19100 0.77380 0.33100
H 	H 	0.36590 0.21760 0.83980 0.33300
H 	H 	0.48560 0.11020 0.70760 0.17700
H 	H 	0.66080 0.10740 0.68700 -0.05700
H 	H 	0.73780 0.26940 0.82240 -0.01000
H 	H 	0.56390 0.28230 0.85460 0.21200
C 	C 	0.00610 0.17160 0.83810 0.52000
C 	C 	0.05290 0.22580 0.89160 -0.31800
C 	C 	0.00060 0.29830 0.91970 0.31900
C 	C 	0.04000 0.35350 0.96790 -0.35900
C 	C 	0.14210 0.33500 0.98840 0.44800
C 	C 	0.19780 0.26180 0.96070 -0.39500
C 	C 	0.15430 0.20840 0.91220 0.26500
C 	C 	0.20050 0.39380 0.03860 -0.60800
C 	C 	0.27700 0.33680 0.07440 0.48000
C 	C 	0.25200 0.24840 0.09770 -0.48000
C 	C 	0.31170 0.19540 0.12900 0.38800
C 	C 	0.41470 0.22650 0.14430 -0.37200
C 	C 	0.44500 0.30980 0.12400 0.35700
C 	C 	0.38710 0.36470 0.08950 -0.41600
C 	C 	0.48880 0.17140 0.18150 0.50800
C 	C 	0.24600 0.47550 0.00700 0.98400
C 	C 	0.11660 0.43230 0.08600 1.04000
C 	C 	0.59190 0.16610 0.33720 0.39300
C 	C 	0.54780 0.22540 0.39190 -0.17400
C 	C 	0.60560 0.29920 0.41750 0.16100
C 	C 	0.56100 0.35050 0.46630 -0.25900
C 	C 	0.46220 0.32640 0.49050 0.32300
C 	C 	0.40200 0.25130 0.46220 -0.26600
C 	C 	0.44840 0.19870 0.41550 0.14200
C 	C 	0.41400 0.38920 0.54340 -0.44800
C 	C 	0.33020 0.32980 0.58030 0.34600
C 	C 	0.36710 0.24340 0.59740 -0.26900
C 	C 	0.29440 0.19080 0.63350 0.14800
C 	C 	0.19500 0.22540 0.65040 -0.18600
C 	C 	0.16440 0.31580 0.63320 0.16800
C 	C 	0.23500 0.36720 0.59870 -0.28000
C 	C 	0.11780 0.16610 0.68830 0.39500
C 	C 	0.50100 0.42630 0.58970 0.99600
C 	C 	0.35200 0.47070 0.51150 1.01500
C 	C 	0.92810 0.23910 0.30350 0.15200
C 	C 	0.03260 0.25190 0.31630 -0.27500
C 	C 	0.11120 0.20760 0.28580 0.31000
C 	C 	0.08060 0.14760 0.24260 -0.25500
C 	C 	0.96900 0.13360 0.22740 0.13100
C 	C 	0.22330 0.21660 0.29610 -0.36300
C 	C 	0.24910 0.33440 0.27700 0.02500
C 	C 	0.35600 0.35440 0.30760 -0.29300
C 	C 	0.36810 0.46730 0.29290 0.27200
C 	C 	0.32090 0.52570 0.33330 -0.27400
C 	C 	0.31800 0.62200 0.32240 0.20200
C 	C 	0.41200 0.59930 0.24110 0.20500
C 	C 	0.40500 0.50330 0.24340 -0.29200
C 	C 	0.68860 0.39830 0.25820 0.28100
C 	C 	0.69200 0.49310 0.25350 -0.42300
C 	C 	0.76200 0.52890 0.21410 0.48400
C 	C 	0.82480 0.46780 0.17980 -0.40800
C 	C 	0.81200 0.37370 0.18610 0.27900
C 	C 	0.75010 0.63440 0.20110 -0.77300
C 	C 	0.85570 0.68220 0.21010 0.71900
C 	C 	0.87850 0.76960 0.20200 -0.82700
C 	C 	0.99800 0.79700 0.21870 0.29900
C 	C 	0.03300 0.85500 0.26840 -0.22900
C 	C 	0.13870 0.85710 0.27910 0.15800
C 	C 	0.18540 0.76270 0.19990 0.17900
C 	C 	0.08100 0.75190 0.18070 -0.24200
C 	C 	0.50610 0.82840 0.16190 0.48100
C 	C 	0.55290 0.77420 0.10840 -0.29500
C 	C 	0.50060 0.70170 0.08030 0.27500
C 	C 	0.54000 0.64650 0.03210 -0.37900
C 	C 	0.64210 0.66500 0.01160 0.44700
C 	C 	0.69780 0.73820 0.03930 -0.38600
C 	C 	0.65430 0.79160 0.08780 0.25000
C 	C 	0.70050 0.60620 0.96140 -0.59800
C 	C 	0.77700 0.66320 0.92560 0.44700
C 	C 	0.75200 0.75160 0.90230 -0.43700
C 	C 	0.81170 0.80460 0.87100 0.33500
C 	C 	0.91470 0.77350 0.85570 -0.31500
C 	C 	0.94500 0.69020 0.87600 0.25700
C 	C 	0.88710 0.63530 0.91050 -0.35500
C 	C 	0.98880 0.82860 0.81850 0.45800
C 	C 	0.74600 0.52450 0.99300 0.98300
C 	C 	0.61660 0.56770 0.91400 1.03800
C 	C 	0.09190 0.83390 0.66280 0.37700
C 	C 	0.04780 0.77460 0.60810 -0.11500
C 	C 	0.10560 0.70080 0.58250 0.11100
C 	C 	0.06100 0.64950 0.53370 -0.19100
C 	C 	0.96220 0.67360 0.50950 0.27300
C 	C 	0.90200 0.74870 0.53780 -0.22000
C 	C 	0.94840 0.80130 0.58450 0.07400
C 	C 	0.91400 0.61080 0.45660 -0.45400
C 	C 	0.83020 0.67020 0.41970 0.34600
C 	C 	0.86710 0.75660 0.40260 -0.27000
C 	C 	0.79440 0.80920 0.36650 0.14700
C 	C 	0.69500 0.77460 0.34960 -0.18800
C 	C 	0.66440 0.68420 0.36680 0.16900
C 	C 	0.73500 0.63280 0.40130 -0.28300
C 	C 	0.61780 0.83390 0.31170 0.39800
C 	C 	0.00100 0.57370 0.41030 1.02600
C 	C 	0.85200 0.52930 0.48850 1.01600
C 	C 	0.42810 0.76090 0.69650 0.23000
C 	C 	0.53260 0.74810 0.68370 -0.37700
C 	C 	0.61120 0.79240 0.71420 0.38700
C 	C 	0.58060 0.85240 0.75740 -0.34200
C 	C 	0.46900 0.86640 0.77260 0.19600
C 	C 	0.72330 0.78340 0.70390 -0.41400
C 	C 	0.74910 0.66560 0.72300 0.04000
C 	C 	0.85600 0.64560 0.69240 -0.29700
C 	C 	0.86810 0.53270 0.70710 0.26900
C 	C 	0.82090 0.47430 0.66670 -0.27600
C 	C 	0.81800 0.37800 0.67760 0.19900
C 	C 	0.91200 0.40070 0.75890 0.20200
C 	C 	0.90500 0.49670 0.75660 -0.29400
C 	C 	0.18860 0.60170 0.74180 0.30000
C 	C 	0.19200 0.50690 0.74650 -0.45400
C 	C 	0.26200 0.47110 0.78590 0.53200
C 	C 	0.32480 0.53220 0.82020 -0.43900
C 	C 	0.31200 0.62630 0.81390 0.29800
C 	C 	0.25010 0.36560 0.79890 -0.87800
C 	C 	0.35570 0.31780 0.78990 0.88100
C 	C 	0.37850 0.23040 0.79800 -0.99700
C 	C 	0.49800 0.20300 0.78130 0.42800
C 	C 	0.53300 0.14500 0.73160 -0.38000
C 	C 	0.63870 0.14290 0.72090 0.23300
C 	C 	0.68540 0.23730 0.80010 0.22400
C 	C 	0.58100 0.24810 0.81930 -0.33300
N 	N 	0.89530 0.18190 0.25650 -0.25400
N 	N 	0.36240 0.66030 0.27730 -0.27500
N 	N 	0.74380 0.33800 0.22400 -0.30200
N 	N 	0.21710 0.81340 0.24620 -0.26800
N 	N 	0.39530 0.81810 0.74350 -0.27600
N 	N 	0.86240 0.33970 0.72270 -0.27700
N 	N 	0.24380 0.66200 0.77600 -0.30900
N 	N 	0.71710 0.18660 0.75380 -0.29200
O 	O 	0.05320 0.09880 0.82150 -0.45700
O 	O 	0.92290 0.20080 0.81610 -0.47600
O 	O 	0.57100 0.21140 0.20030 -0.48400
O 	O 	0.46530 0.09010 0.19210 -0.44000
O 	O 	0.53570 0.09890 0.31810 -0.43000
O 	O 	0.67810 0.20010 0.31720 -0.42200
O 	O 	0.03490 0.21230 0.70350 -0.45100
O 	O 	0.14330 0.08500 0.69760 -0.42100
O 	O 	0.71460 0.03700 0.22370 -0.39800
O 	O 	0.88950 0.04020 0.72430 -0.40800
O 	O 	0.55320 0.90120 0.17850 -0.45200
O 	O 	0.42290 0.79920 0.18390 -0.45000
O 	O 	0.07100 0.78860 0.79970 -0.45700
O 	O 	0.96530 0.90990 0.80790 -0.43700
O 	O 	0.03570 0.90110 0.68190 -0.41600
O 	O 	0.17810 0.79990 0.68280 -0.41700
O 	O 	0.53490 0.78770 0.29650 -0.46200
O 	O 	0.64330 0.91500 0.30240 -0.42300
O 	O 	0.21460 0.96300 0.77630 -0.39600
O 	O 	0.38950 0.95980 0.27570 -0.39500
F 	F 	0.29490 0.54160 0.04560 -0.46500
F 	F 	0.18730 0.51770 0.97110 -0.52300
F 	F 	0.33740 0.44280 0.97320 -0.45800
F 	F 	0.05100 0.37110 0.10230 -0.56000
F 	F 	0.16220 0.47080 0.13390 -0.50600
F 	F 	0.05610 0.50540 0.06570 -0.44200
F 	F 	0.55850 0.49270 0.56850 -0.47800
F 	F 	0.45030 0.46230 0.63950 -0.47600
F 	F 	0.56530 0.35700 0.60380 -0.53000
F 	F 	0.32990 0.53690 0.55540 -0.48000
F 	F 	0.27320 0.44650 0.48270 -0.57500
F 	F 	0.42750 0.51600 0.47800 -0.47000
F 	F 	0.79490 0.45840 0.95440 -0.46600
F 	F 	0.68730 0.48230 0.02890 -0.52800
F 	F 	0.83740 0.55720 0.02680 -0.46100
F 	F 	0.55100 0.62890 0.89770 -0.56600
F 	F 	0.66220 0.52920 0.86610 -0.50800
F 	F 	0.55610 0.49460 0.93430 -0.45100
F 	F 	0.05850 0.50730 0.43150 -0.47500
F 	F 	0.95030 0.53770 0.36050 -0.49400
F 	F 	0.06530 0.64300 0.39620 -0.52700
F 	F 	0.82990 0.46310 0.44460 -0.48400
F 	F 	0.77320 0.55350 0.51730 -0.57700
F 	F 	0.92750 0.48400 0.52200 -0.47800
