data_crystal

_cell_length_a 15.64600
_cell_length_b 17.27620
_cell_length_c 17.88610
_cell_angle_alpha 77.90190
_cell_angle_beta  64.06320
_cell_angle_gamma 63.07530

_symmetry_space_group_name_	'P 1'
_symmetry_space_group_name_H-M	'P 1'

loop_
_symmetry_equiv_pos_as_xyz
  x,y,z

loop_
_atom_site_label
_atom_site_type_symbol
_atom_site_fract_x
_atom_site_fract_y
_atom_site_fract_z
_atom_site_charge
La	La	0.52714 0.04998 0.17132 1.47100
La	La	0.20192 0.32428 0.01338 1.47700
La	La	0.74844 0.45002 0.32868 1.47300
La	La	0.53958 0.17572 0.48662 1.47800
La	La	0.47286 0.95002 0.82868 1.47000
La	La	0.79808 0.67572 0.98662 1.47600
La	La	0.25156 0.54998 0.67132 1.47300
La	La	0.46042 0.82428 0.51338 1.47800
H 	H 	0.19470 0.00820 0.43200 0.00900
H 	H 	0.06180 0.12860 0.40380 0.03000
H 	H 	0.10410 0.20520 0.28060 0.01300
H 	H 	0.87550 0.22050 0.14470 0.02600
H 	H 	0.95140 0.10140 0.06040 0.03400
H 	H 	0.12440 0.06040 0.96280 0.01000
H 	H 	0.63490 0.49180 0.06800 0.01000
H 	H 	0.59420 0.37140 0.09620 0.03000
H 	H 	0.58990 0.29480 0.21940 0.01400
H 	H 	0.24070 0.27950 0.35530 0.02900
H 	H 	0.11320 0.39860 0.43960 0.03100
H 	H 	0.14760 0.43960 0.53720 0.01200
H 	H 	0.80530 0.99180 0.56800 0.00900
H 	H 	0.93820 0.87140 0.59620 0.03000
H 	H 	0.89590 0.79480 0.71940 0.01300
H 	H 	0.12450 0.77950 0.85530 0.02600
H 	H 	0.04860 0.89860 0.93960 0.03400
H 	H 	0.87560 0.93960 0.03720 0.01000
H 	H 	0.36510 0.50820 0.93200 0.01000
H 	H 	0.40580 0.62860 0.90380 0.03000
H 	H 	0.41010 0.70520 0.78060 0.01400
H 	H 	0.75930 0.72050 0.64470 0.02900
H 	H 	0.88680 0.60140 0.56040 0.03100
H 	H 	0.85240 0.56040 0.46280 0.01200
C 	C 	0.40320 0.95500 0.34560 0.35300
C 	C 	0.31140 0.02160 0.32840 -0.07900
C 	C 	0.21000 0.04140 0.38380 -0.00400
C 	C 	0.13090 0.11220 0.36640 -0.08300
C 	C 	0.15580 0.15760 0.29340 -0.00200
C 	C 	0.25820 0.13180 0.23960 -0.07500
C 	C 	0.29290 0.17190 0.15490 0.36600
C 	C 	0.96040 0.32630 0.14530 0.34800
C 	C 	0.00110 0.24990 0.09390 -0.07200
C 	C 	0.94330 0.20400 0.10480 -0.01100
C 	C 	0.98890 0.13280 0.05480 -0.08600
C 	C 	0.09170 0.10870 0.99590 -0.00200
C 	C 	0.14310 0.15990 0.98850 -0.08000
C 	C 	0.25400 0.13840 0.93100 0.34800
C 	C 	0.70380 0.54500 0.15440 0.35200
C 	C 	0.66140 0.47840 0.17160 -0.07800
C 	C 	0.63520 0.45860 0.11620 -0.00500
C 	C 	0.60950 0.38780 0.13360 -0.08300
C 	C 	0.60680 0.34240 0.20660 -0.00300
C 	C 	0.62960 0.36820 0.26040 -0.07500
C 	C 	0.61970 0.32810 0.34510 0.36600
C 	C 	0.43200 0.17370 0.35470 0.34500
C 	C 	0.34490 0.25010 0.40610 -0.06700
C 	C 	0.25210 0.29600 0.39520 -0.01800
C 	C 	0.17650 0.36720 0.44520 -0.07400
C 	C 	0.19630 0.39130 0.50410 -0.01300
C 	C 	0.29150 0.34010 0.51150 -0.08100
C 	C 	0.32340 0.36160 0.56900 0.34800
C 	C 	0.59680 0.04500 0.65440 0.35300
C 	C 	0.68860 0.97840 0.67160 -0.07900
C 	C 	0.79000 0.95860 0.61620 -0.00400
C 	C 	0.86910 0.88780 0.63360 -0.08300
C 	C 	0.84420 0.84240 0.70660 -0.00200
C 	C 	0.74180 0.86820 0.76040 -0.07500
C 	C 	0.70710 0.82810 0.84510 0.36600
C 	C 	0.03960 0.67370 0.85470 0.34800
C 	C 	0.99890 0.75010 0.90610 -0.07200
C 	C 	0.05670 0.79600 0.89520 -0.01100
C 	C 	0.01110 0.86720 0.94520 -0.08600
C 	C 	0.90830 0.89130 0.00410 -0.00200
C 	C 	0.85690 0.84010 0.01150 -0.08000
C 	C 	0.74600 0.86160 0.06900 0.34800
C 	C 	0.29620 0.45500 0.84560 0.35200
C 	C 	0.33860 0.52160 0.82840 -0.07800
C 	C 	0.36480 0.54140 0.88380 -0.00500
C 	C 	0.39050 0.61220 0.86640 -0.08300
C 	C 	0.39320 0.65760 0.79340 -0.00300
C 	C 	0.37040 0.63180 0.73960 -0.07500
C 	C 	0.38030 0.67190 0.65490 0.36600
C 	C 	0.56800 0.82630 0.64530 0.34500
C 	C 	0.65510 0.74990 0.59390 -0.06700
C 	C 	0.74790 0.70400 0.60480 -0.01800
C 	C 	0.82350 0.63280 0.55480 -0.07400
C 	C 	0.80370 0.60870 0.49590 -0.01300
C 	C 	0.70850 0.65990 0.48850 -0.08100
C 	C 	0.67660 0.63840 0.43100 0.34800
N 	N 	0.33510 0.06680 0.25680 -0.16300
N 	N 	0.09810 0.23020 0.03580 -0.16700
N 	N 	0.65870 0.43320 0.24320 -0.16300
N 	N 	0.36410 0.26980 0.46420 -0.16600
N 	N 	0.66490 0.93320 0.74320 -0.16300
N 	N 	0.90190 0.76980 0.96420 -0.16700
N 	N 	0.34130 0.56680 0.75680 -0.16300
N 	N 	0.63590 0.73020 0.53580 -0.16600
O 	O 	0.49190 0.95210 0.29530 -0.44800
O 	O 	0.38620 0.90840 0.40940 -0.47800
O 	O 	0.39040 0.15020 0.11680 -0.48200
O 	O 	0.22690 0.22210 0.12790 -0.45500
O 	O 	0.01730 0.36720 0.12580 -0.46000
O 	O 	0.87560 0.34390 0.20590 -0.42100
O 	O 	0.30120 0.07090 0.88830 -0.46900
O 	O 	0.29480 0.18690 0.93030 -0.44800
O 	O 	0.73930 0.54790 0.20470 -0.44800
O 	O 	0.70400 0.59160 0.09060 -0.47600
O 	O 	0.65740 0.34980 0.38320 -0.48200
O 	O 	0.57690 0.27790 0.37210 -0.45500
O 	O 	0.51030 0.13280 0.37420 -0.45900
O 	O 	0.42540 0.15610 0.29410 -0.42000
O 	O 	0.26040 0.42910 0.61170 -0.47100
O 	O 	0.41200 0.31310 0.56970 -0.45000
O 	O 	0.50810 0.04790 0.70470 -0.44800
O 	O 	0.61380 0.09160 0.59060 -0.47800
O 	O 	0.60960 0.84980 0.88320 -0.48200
O 	O 	0.77310 0.77790 0.87210 -0.45500
O 	O 	0.98270 0.63280 0.87420 -0.46000
O 	O 	0.12440 0.65610 0.79410 -0.42100
O 	O 	0.69880 0.92910 0.11170 -0.46900
O 	O 	0.70520 0.81310 0.06970 -0.44800
O 	O 	0.26070 0.45210 0.79530 -0.44800
O 	O 	0.29600 0.40840 0.90940 -0.47600
O 	O 	0.34260 0.65020 0.61680 -0.48200
O 	O 	0.42310 0.72210 0.62790 -0.45500
O 	O 	0.48970 0.86720 0.62580 -0.45900
O 	O 	0.57460 0.84390 0.70590 -0.42000
O 	O 	0.73960 0.57090 0.38830 -0.47100
O 	O 	0.58800 0.68690 0.43030 -0.45000
