data_crystal

_cell_length_a 13.09430
_cell_length_b 26.70350
_cell_length_c 13.13200
_cell_angle_alpha 90.00000
_cell_angle_beta  115.87200
_cell_angle_gamma 90.00000

_symmetry_space_group_name_	'P 1'
_symmetry_space_group_name_H-M	'P 1'

loop_
_symmetry_equiv_pos_as_xyz
  x,y,z

loop_
_atom_site_label
_atom_site_type_symbol
_atom_site_fract_x
_atom_site_fract_y
_atom_site_fract_z
_atom_site_charge
Eu	Eu	0.17896 0.50456 0.58141 2.05000
Eu	Eu	0.54888 0.50655 0.99621 1.01600
C 	C 	0.02260 0.57760 0.38810 0.50300
C 	C 	0.98800 0.62760 0.33490 -0.23900
C 	C 	0.88440 0.64830 0.32020 0.12400
H 	H 	0.83480 0.62940 0.33810 -0.01400
C 	C 	0.85470 0.69630 0.27950 -0.19200
H 	H 	0.78530 0.70960 0.26950 0.07300
C 	C 	0.06080 0.65600 0.30620 0.16300
H 	H 	0.13030 0.64270 0.31660 -0.03300
C 	C 	0.03050 0.70370 0.26230 -0.26500
C 	C 	0.92830 0.72450 0.25370 0.08200
C 	C 	0.92330 0.77650 0.21530 0.07000
C 	C 	0.09430 0.74010 0.22260 0.59000
C 	C 	0.09790 0.72190 0.11440 -1.02900
H 	H 	0.12850 0.74700 0.08380 0.32900
H 	H 	0.01900 0.71490 0.06180 0.31600
H 	H 	0.14320 0.69200 0.12790 0.32300
C 	C 	0.21340 0.75050 0.31430 -1.13600
H 	H 	0.24750 0.77650 0.28950 0.36700
H 	H 	0.25760 0.72040 0.32560 0.34900
H 	H 	0.21330 0.76010 0.38380 0.36300
C 	C 	0.01870 0.78640 0.19850 -0.25300
C 	C 	0.03630 0.83390 0.16670 0.14700
H 	H 	0.10110 0.84070 0.15680 -0.02600
C 	C 	0.84320 0.81350 0.19860 -0.17900
H 	H 	0.77950 0.80720 0.21060 0.06500
C 	C 	0.86080 0.86030 0.16340 0.11100
H 	H 	0.80610 0.88500 0.14860 -0.00200
C 	C 	0.95700 0.87130 0.14950 -0.22200
C 	C 	0.97570 0.92310 0.11650 0.49600
C 	C 	0.37800 0.58140 0.79440 0.56600
C 	C 	0.39770 0.63340 0.76230 -0.26800
C 	C 	0.47950 0.66360 0.84190 0.19300
H 	H 	0.52270 0.65170 0.91470 -0.03000
C 	C 	0.33360 0.65050 0.65300 0.13900
H 	H 	0.27960 0.62980 0.59950 -0.02800
C 	C 	0.35030 0.69860 0.62370 -0.20200
H 	H 	0.30770 0.71050 0.55060 0.06500
C 	C 	0.43130 0.72900 0.70480 0.08200
C 	C 	0.49680 0.71120 0.81330 -0.28700
C 	C 	0.58300 0.75040 0.88610 0.65100
C 	C 	0.70270 0.73210 0.92660 -1.27600
H 	H 	0.71420 0.72090 0.86380 0.41600
H 	H 	0.71740 0.70520 0.97870 0.42000
H 	H 	0.75500 0.75910 0.96370 0.39900
C 	C 	0.55980 0.76620 0.98620 -1.06800
H 	H 	0.60680 0.79460 0.02310 0.33900
H 	H 	0.57980 0.73900 0.03830 0.34700
H 	H 	0.47950 0.77450 0.96020 0.32600
C 	C 	0.46680 0.78090 0.69680 0.09000
C 	C 	0.55440 0.79360 0.80100 -0.28200
C 	C 	0.60440 0.84080 0.81680 0.17900
H 	H 	0.66340 0.84970 0.88590 -0.03800
C 	C 	0.42500 0.81420 0.60980 -0.20900
H 	H 	0.36390 0.80570 0.54190 0.07200
C 	C 	0.47540 0.86150 0.62440 0.14500
H 	H 	0.44920 0.88440 0.56510 -0.03000
C 	C 	0.56400 0.87410 0.72670 -0.26600
C 	C 	0.61810 0.92540 0.73950 0.56400
N 	N 	0.68400 0.56240 0.89600 0.07900
O 	O 	0.94720 0.54769 0.38710 -0.57200
O 	O 	0.12600 0.56830 0.43790 -0.51900
O 	O 	0.88970 0.95153 0.07470 -0.53800
O 	O 	0.07400 0.93482 0.13110 -0.52200
O 	O 	0.31230 0.55324 0.71740 -0.58900
O 	O 	0.43120 0.56854 0.89520 -0.55400
O 	O 	0.57600 0.95340 0.65460 -0.57600
O 	O 	0.69510 0.93683 0.83050 -0.55700
O 	O 	0.68780 0.57410 0.98920 -0.22600
O 	O 	0.61420 0.53060 0.85090 -0.24500
O 	O 	0.73150 0.58800 0.85700 -0.15200
Eu	Eu	0.82104 0.00456 0.91859 2.04400
Eu	Eu	0.45112 0.00655 0.50379 1.01800
C 	C 	0.97740 0.07760 0.11190 0.50200
C 	C 	0.01200 0.12760 0.16510 -0.23600
C 	C 	0.11560 0.14830 0.17980 0.12500
H 	H 	0.16520 0.12940 0.16190 -0.01300
C 	C 	0.14530 0.19630 0.22050 -0.19000
H 	H 	0.21470 0.20960 0.23050 0.07400
C 	C 	0.93920 0.15600 0.19380 0.16400
H 	H 	0.86970 0.14270 0.18340 -0.03100
C 	C 	0.96950 0.20370 0.23770 -0.26300
C 	C 	0.07170 0.22450 0.24630 0.08200
C 	C 	0.07670 0.27650 0.28470 0.07100
C 	C 	0.90570 0.24010 0.27740 0.59200
C 	C 	0.90210 0.22190 0.38560 -1.03000
H 	H 	0.87150 0.24700 0.41620 0.33200
H 	H 	0.98100 0.21490 0.43820 0.31800
H 	H 	0.85680 0.19200 0.37210 0.32500
C 	C 	0.78660 0.25050 0.18570 -1.14000
H 	H 	0.75250 0.27650 0.21050 0.36900
H 	H 	0.74240 0.22040 0.17440 0.35100
H 	H 	0.78670 0.26010 0.11620 0.36500
C 	C 	0.98130 0.28640 0.30150 -0.25300
C 	C 	0.96370 0.33390 0.33330 0.15000
H 	H 	0.89890 0.34070 0.34320 -0.02700
C 	C 	0.15680 0.31350 0.30140 -0.17900
H 	H 	0.22050 0.30720 0.28940 0.06600
C 	C 	0.13920 0.36030 0.33660 0.11200
H 	H 	0.19390 0.38500 0.35140 -0.00200
C 	C 	0.04300 0.37130 0.35050 -0.22400
C 	C 	0.02430 0.42310 0.38350 0.49500
C 	C 	0.62200 0.08140 0.70560 0.56600
C 	C 	0.60230 0.13340 0.73770 -0.26900
C 	C 	0.52050 0.16360 0.65810 0.19600
H 	H 	0.47730 0.15170 0.58530 -0.03100
C 	C 	0.66640 0.15050 0.84700 0.14000
H 	H 	0.72040 0.12980 0.90050 -0.02900
C 	C 	0.64970 0.19860 0.87630 -0.20200
H 	H 	0.69230 0.21050 0.94940 0.06400
C 	C 	0.56870 0.22900 0.79520 0.08300
C 	C 	0.50320 0.21120 0.68670 -0.29100
C 	C 	0.41700 0.25040 0.61390 0.66000
C 	C 	0.29730 0.23210 0.57340 -1.28600
H 	H 	0.28580 0.22090 0.63620 0.41900
H 	H 	0.28260 0.20520 0.52130 0.42200
H 	H 	0.24500 0.25910 0.53630 0.40100
C 	C 	0.44020 0.26620 0.51380 -1.09300
H 	H 	0.39320 0.29460 0.47690 0.34800
H 	H 	0.42020 0.23900 0.46170 0.35600
H 	H 	0.52050 0.27450 0.53980 0.33200
C 	C 	0.53320 0.28090 0.80320 0.09100
C 	C 	0.44560 0.29360 0.69900 -0.28600
C 	C 	0.39560 0.34080 0.68320 0.18200
H 	H 	0.33660 0.34970 0.61410 -0.03900
C 	C 	0.57500 0.31420 0.89020 -0.21000
H 	H 	0.63610 0.30570 0.95810 0.07100
C 	C 	0.52460 0.36150 0.87560 0.14600
H 	H 	0.55080 0.38440 0.93490 -0.03100
C 	C 	0.43600 0.37410 0.77330 -0.26800
C 	C 	0.38190 0.42540 0.76050 0.56500
N 	N 	0.31600 0.06240 0.60400 0.07900
O 	O 	0.05280 0.04769 0.11290 -0.56900
O 	O 	0.87400 0.06830 0.06210 -0.51600
O 	O 	0.11030 0.45153 0.42530 -0.53900
O 	O 	0.92600 0.43482 0.36890 -0.52000
O 	O 	0.68770 0.05324 0.78260 -0.58900
O 	O 	0.56880 0.06854 0.60480 -0.55500
O 	O 	0.42400 0.45340 0.84540 -0.57700
O 	O 	0.30490 0.43683 0.66950 -0.56000
O 	O 	0.31220 0.07410 0.51080 -0.22600
O 	O 	0.38580 0.03060 0.64910 -0.24400
O 	O 	0.26850 0.08800 0.64300 -0.15200
Eu	Eu	0.82104 0.49544 0.41859 2.05100
Eu	Eu	0.45112 0.49345 0.00379 1.01700
C 	C 	0.97740 0.42240 0.61190 0.50400
C 	C 	0.01200 0.37240 0.66510 -0.23800
C 	C 	0.11560 0.35170 0.67980 0.12500
H 	H 	0.16520 0.37060 0.66190 -0.01300
C 	C 	0.14530 0.30370 0.72050 -0.19100
H 	H 	0.21470 0.29040 0.73050 0.07400
C 	C 	0.93920 0.34400 0.69380 0.16400
H 	H 	0.86970 0.35730 0.68340 -0.03200
C 	C 	0.96950 0.29630 0.73770 -0.26400
C 	C 	0.07170 0.27550 0.74630 0.08300
C 	C 	0.07670 0.22350 0.78470 0.07100
C 	C 	0.90570 0.25990 0.77740 0.59100
C 	C 	0.90210 0.27810 0.88560 -1.02800
H 	H 	0.87150 0.25300 0.91620 0.33000
H 	H 	0.98100 0.28510 0.93820 0.31700
H 	H 	0.85680 0.30800 0.87210 0.32400
C 	C 	0.78660 0.24950 0.68570 -1.13600
H 	H 	0.75250 0.22350 0.71050 0.36700
H 	H 	0.74240 0.27960 0.67440 0.34900
H 	H 	0.78670 0.23990 0.61620 0.36300
C 	C 	0.98130 0.21360 0.80150 -0.25300
C 	C 	0.96370 0.16610 0.83330 0.14700
H 	H 	0.89890 0.15930 0.84320 -0.02600
C 	C 	0.15680 0.18650 0.80140 -0.17900
H 	H 	0.22050 0.19280 0.78940 0.06500
C 	C 	0.13920 0.13970 0.83660 0.11100
H 	H 	0.19390 0.11500 0.85140 -0.00200
C 	C 	0.04300 0.12870 0.85050 -0.22200
C 	C 	0.02430 0.07690 0.88350 0.49600
C 	C 	0.62200 0.41860 0.20560 0.56600
C 	C 	0.60230 0.36660 0.23770 -0.26800
C 	C 	0.52050 0.33640 0.15810 0.19300
H 	H 	0.47730 0.34830 0.08530 -0.03000
C 	C 	0.66640 0.34950 0.34700 0.13900
H 	H 	0.72040 0.37020 0.40050 -0.02800
C 	C 	0.64970 0.30140 0.37630 -0.20200
H 	H 	0.69230 0.28950 0.44940 0.06500
C 	C 	0.56870 0.27100 0.29520 0.08200
C 	C 	0.50320 0.28880 0.18670 -0.28700
C 	C 	0.41700 0.24960 0.11390 0.65100
C 	C 	0.29730 0.26790 0.07340 -1.27600
H 	H 	0.28580 0.27910 0.13620 0.41600
H 	H 	0.28260 0.29480 0.02130 0.42000
H 	H 	0.24500 0.24090 0.03630 0.39900
C 	C 	0.44020 0.23380 0.01380 -1.06800
H 	H 	0.39320 0.20540 0.97690 0.33900
H 	H 	0.42020 0.26100 0.96170 0.34700
H 	H 	0.52050 0.22550 0.03980 0.32600
C 	C 	0.53320 0.21910 0.30320 0.09000
C 	C 	0.44560 0.20640 0.19900 -0.28200
C 	C 	0.39560 0.15920 0.18320 0.17900
H 	H 	0.33660 0.15030 0.11410 -0.03800
C 	C 	0.57500 0.18580 0.39020 -0.20900
H 	H 	0.63610 0.19430 0.45810 0.07200
C 	C 	0.52460 0.13850 0.37560 0.14500
H 	H 	0.55080 0.11560 0.43490 -0.03000
C 	C 	0.43600 0.12590 0.27330 -0.26600
C 	C 	0.38190 0.07460 0.26050 0.56400
N 	N 	0.31600 0.43760 0.10400 0.07900
O 	O 	0.05280 0.45231 0.61290 -0.57200
O 	O 	0.87400 0.43170 0.56210 -0.51900
O 	O 	0.11030 0.04847 0.92530 -0.53800
O 	O 	0.92600 0.06518 0.86890 -0.52200
O 	O 	0.68770 0.44676 0.28260 -0.58900
O 	O 	0.56880 0.43146 0.10480 -0.55400
O 	O 	0.42400 0.04660 0.34540 -0.57600
O 	O 	0.30490 0.06317 0.16950 -0.55700
O 	O 	0.31220 0.42590 0.01080 -0.22600
O 	O 	0.38580 0.46940 0.14910 -0.24500
O 	O 	0.26850 0.41200 0.14300 -0.15200
Eu	Eu	0.17896 0.99544 0.08141 2.04400
Eu	Eu	0.54888 0.99345 0.49621 1.01800
C 	C 	0.02260 0.92240 0.88810 0.50200
C 	C 	0.98800 0.87240 0.83490 -0.23600
C 	C 	0.88440 0.85170 0.82020 0.12500
H 	H 	0.83480 0.87060 0.83810 -0.01300
C 	C 	0.85470 0.80370 0.77950 -0.19000
H 	H 	0.78530 0.79040 0.76950 0.07400
C 	C 	0.06080 0.84400 0.80620 0.16400
H 	H 	0.13030 0.85730 0.81660 -0.03100
C 	C 	0.03050 0.79630 0.76230 -0.26300
C 	C 	0.92830 0.77550 0.75370 0.08200
C 	C 	0.92330 0.72350 0.71530 0.07100
C 	C 	0.09430 0.75990 0.72260 0.59200
C 	C 	0.09790 0.77810 0.61440 -1.03000
H 	H 	0.12850 0.75300 0.58380 0.33200
H 	H 	0.01900 0.78510 0.56180 0.31800
H 	H 	0.14320 0.80800 0.62790 0.32500
C 	C 	0.21340 0.74950 0.81430 -1.14000
H 	H 	0.24750 0.72350 0.78950 0.36900
H 	H 	0.25760 0.77960 0.82560 0.35100
H 	H 	0.21330 0.73990 0.88380 0.36500
C 	C 	0.01870 0.71360 0.69850 -0.25300
C 	C 	0.03630 0.66610 0.66670 0.15000
H 	H 	0.10110 0.65930 0.65680 -0.02700
C 	C 	0.84320 0.68650 0.69860 -0.17900
H 	H 	0.77950 0.69280 0.71060 0.06600
C 	C 	0.86080 0.63970 0.66340 0.11200
H 	H 	0.80610 0.61500 0.64860 -0.00200
C 	C 	0.95700 0.62870 0.64950 -0.22400
C 	C 	0.97570 0.57690 0.61650 0.49500
C 	C 	0.37800 0.91860 0.29440 0.56600
C 	C 	0.39770 0.86660 0.26230 -0.26900
C 	C 	0.47950 0.83640 0.34190 0.19600
H 	H 	0.52270 0.84830 0.41470 -0.03100
C 	C 	0.33360 0.84950 0.15300 0.14000
H 	H 	0.27960 0.87020 0.09950 -0.02900
C 	C 	0.35030 0.80140 0.12370 -0.20200
H 	H 	0.30770 0.78950 0.05060 0.06400
C 	C 	0.43130 0.77100 0.20480 0.08300
C 	C 	0.49680 0.78880 0.31330 -0.29100
C 	C 	0.58300 0.74960 0.38610 0.66000
C 	C 	0.70270 0.76790 0.42660 -1.28600
H 	H 	0.71420 0.77910 0.36380 0.41900
H 	H 	0.71740 0.79480 0.47870 0.42200
H 	H 	0.75500 0.74090 0.46370 0.40100
C 	C 	0.55980 0.73380 0.48620 -1.09300
H 	H 	0.60680 0.70540 0.52310 0.34800
H 	H 	0.57980 0.76100 0.53830 0.35600
H 	H 	0.47950 0.72550 0.46020 0.33200
C 	C 	0.46680 0.71910 0.19680 0.09100
C 	C 	0.55440 0.70640 0.30100 -0.28600
C 	C 	0.60440 0.65920 0.31680 0.18200
H 	H 	0.66340 0.65030 0.38590 -0.03900
C 	C 	0.42500 0.68580 0.10980 -0.21000
H 	H 	0.36390 0.69430 0.04190 0.07100
C 	C 	0.47540 0.63850 0.12440 0.14600
H 	H 	0.44920 0.61560 0.06510 -0.03100
C 	C 	0.56400 0.62590 0.22670 -0.26800
C 	C 	0.61810 0.57460 0.23950 0.56500
N 	N 	0.68400 0.93760 0.39600 0.07900
O 	O 	0.94720 0.95231 0.88710 -0.56900
O 	O 	0.12600 0.93170 0.93790 -0.51600
O 	O 	0.88970 0.54847 0.57470 -0.53900
O 	O 	0.07400 0.56518 0.63110 -0.52000
O 	O 	0.31230 0.94676 0.21740 -0.58900
O 	O 	0.43120 0.93146 0.39520 -0.55500
O 	O 	0.57600 0.54660 0.15460 -0.57700
O 	O 	0.69510 0.56317 0.33050 -0.56000
O 	O 	0.68780 0.92590 0.48920 -0.22600
O 	O 	0.61420 0.96940 0.35090 -0.24400
O 	O 	0.73150 0.91200 0.35700 -0.15200
