data_crystal

_cell_length_a 20.91120
_cell_length_b 20.91120
_cell_length_c 38.35020
_cell_angle_alpha 90.00000
_cell_angle_beta  90.00000
_cell_angle_gamma 120.00000

_symmetry_space_group_name_	'P 1'
_symmetry_space_group_name_H-M	'P 1'

loop_
_symmetry_equiv_pos_as_xyz
  x,y,z

loop_
_atom_site_label
_atom_site_type_symbol
_atom_site_fract_x
_atom_site_fract_y
_atom_site_fract_z
_atom_site_charge
W 	W 	0.08393 0.98344 0.68496 0.92000
W 	W 	0.07574 0.88417 0.60304 1.00400
W 	W 	0.07335 0.88119 0.50513 1.00200
W 	W 	0.09111 0.99546 0.42818 0.93600
W 	W 	0.19294 0.08330 0.50988 1.32900
W 	W 	0.19322 0.08564 0.60782 1.07100
Cu	Cu	0.30506 0.00942 0.48790 0.85000
Cu	Cu	0.31920 0.04470 0.31823 0.80700
O 	O 	0.07490 0.91700 0.65220 -0.46300
O 	O 	0.15580 0.05650 0.65250 -0.43200
O 	O 	0.98900 0.91960 0.70400 -0.41600
O 	O 	0.99270 0.92650 0.59700 -0.31500
O 	O 	0.06220 0.86800 0.55530 -0.46200
O 	O 	0.14770 0.98230 0.59710 -0.47800
O 	O 	0.98070 0.80330 0.61260 -0.44100
O 	O 	0.07540 0.91690 0.46050 -0.46700
O 	O 	0.99110 0.92520 0.51630 -0.33200
O 	O 	0.14810 0.97960 0.51630 -0.51600
O 	O 	0.97820 0.80150 0.49990 -0.44500
O 	O 	0.15860 0.05780 0.46120 -0.44300
O 	O 	0.99460 0.92500 0.40970 -0.42800
O 	O 	0.20110 0.09830 0.55690 -0.47200
O 	O 	0.28180 0.10200 0.50090 -0.49200
N 	N 	0.32890 0.99300 0.53360 -0.27200
N 	N 	0.37100 0.99630 0.60270 -0.28200
N 	N 	0.29620 0.01480 0.43900 -0.23500
N 	N 	0.30800 0.03360 0.36760 -0.24300
C 	C 	0.39860 0.01450 0.54280 0.05300
C 	C 	0.45650 0.04300 0.51700 -0.10400
H 	H 	0.44390 0.04240 0.49320 0.01200
C 	C 	0.52730 0.07000 0.52550 -0.02700
H 	H 	0.56470 0.09110 0.50820 0.02500
C 	C 	0.54550 0.06670 0.56060 -0.03200
H 	H 	0.59480 0.08020 0.56660 0.02500
C 	C 	0.49250 0.04420 0.58660 -0.11100
H 	H 	0.50540 0.04690 0.61050 0.00200
C 	C 	0.42250 0.01840 0.57680 0.05900
C 	C 	0.30220 0.97150 0.59380 -0.02100
H 	H 	0.26580 0.95520 0.61160 -0.04300
C 	C 	0.27920 0.96800 0.55740 -0.00500
H 	H 	0.22860 0.94750 0.55160 -0.01600
C 	C 	0.26900 0.95350 0.41810 -0.00100
C 	C 	0.23890 0.88290 0.43160 -0.10100
H 	H 	0.23950 0.87720 0.45620 -0.01500
C 	C 	0.21020 0.82450 0.41250 -0.02500
H 	H 	0.18730 0.77750 0.42350 0.01100
C 	C 	0.21180 0.82850 0.37460 -0.07500
H 	H 	0.19200 0.78540 0.36050 0.03800
C 	C 	0.24820 0.90840 0.35840 -0.09500
H 	H 	0.25090 0.91600 0.33390 -0.03700
C 	C 	0.27550 0.96540 0.38110 0.00000
C 	C 	0.32460 0.08720 0.38850 -0.00700
H 	H 	0.34050 0.13510 0.37950 -0.02000
C 	C 	0.31950 0.07600 0.42520 0.01700
H 	H 	0.33480 0.11770 0.44000 -0.00000
W 	W 	0.75060 0.31677 0.01829 1.00900
W 	W 	0.74241 0.21750 0.93637 1.05900
W 	W 	0.74002 0.21452 0.83846 1.05400
W 	W 	0.75778 0.32879 0.76151 1.02600
W 	W 	0.85961 0.41663 0.84322 1.31200
W 	W 	0.85989 0.41897 0.94115 1.05900
Cu	Cu	0.97173 0.34275 0.82123 0.84500
Cu	Cu	0.98587 0.37803 0.65156 0.81200
O 	O 	0.74157 0.25033 0.98553 -0.45600
O 	O 	0.82247 0.38983 0.98583 -0.45200
O 	O 	0.65567 0.25293 0.03733 -0.44000
O 	O 	0.65937 0.25983 0.93033 -0.33700
O 	O 	0.72887 0.20133 0.88863 -0.45400
O 	O 	0.81437 0.31563 0.93043 -0.46400
O 	O 	0.64737 0.13663 0.94593 -0.46200
O 	O 	0.74207 0.25023 0.79383 -0.46400
O 	O 	0.65777 0.25853 0.84963 -0.35300
O 	O 	0.81477 0.31293 0.84963 -0.50100
O 	O 	0.64487 0.13483 0.83323 -0.46700
O 	O 	0.82527 0.39113 0.79453 -0.46700
O 	O 	0.66127 0.25833 0.74303 -0.45400
O 	O 	0.86777 0.43163 0.89023 -0.47300
O 	O 	0.94847 0.43533 0.83423 -0.48500
N 	N 	0.99557 0.32633 0.86693 -0.22100
N 	N 	0.03767 0.32963 0.93603 -0.28700
N 	N 	0.96287 0.34813 0.77233 -0.25800
N 	N 	0.97467 0.36693 0.70093 -0.26500
C 	C 	0.06527 0.34783 0.87613 -0.02100
C 	C 	0.12317 0.37633 0.85033 -0.07200
H 	H 	0.11057 0.37573 0.82653 -0.01600
C 	C 	0.19397 0.40333 0.85883 -0.05700
H 	H 	0.23137 0.42443 0.84153 0.02800
C 	C 	0.21217 0.40003 0.89393 -0.02000
H 	H 	0.26147 0.41353 0.89993 0.01600
C 	C 	0.15917 0.37753 0.91993 -0.12500
H 	H 	0.17207 0.38023 0.94383 -0.00100
C 	C 	0.08917 0.35173 0.91013 0.05500
C 	C 	0.96887 0.30483 0.92713 0.03800
H 	H 	0.93247 0.28853 0.94493 -0.04500
C 	C 	0.94587 0.30133 0.89073 -0.01000
H 	H 	0.89527 0.28083 0.88493 -0.00700
C 	C 	0.93567 0.28683 0.75143 0.02500
C 	C 	0.90557 0.21623 0.76493 -0.10500
H 	H 	0.90617 0.21053 0.78953 -0.00000
C 	C 	0.87687 0.15783 0.74583 -0.01700
H 	H 	0.85397 0.11083 0.75683 0.02200
C 	C 	0.87847 0.16183 0.70793 -0.06500
H 	H 	0.85867 0.11873 0.69383 0.04400
C 	C 	0.91487 0.24173 0.69173 -0.09900
H 	H 	0.91757 0.24933 0.66723 -0.02100
C 	C 	0.94217 0.29873 0.71443 0.02900
C 	C 	0.99127 0.42053 0.72183 0.03400
H 	H 	0.00717 0.46843 0.71283 -0.06600
C 	C 	0.98617 0.40933 0.75853 0.05800
H 	H 	0.00147 0.45103 0.77333 -0.04600
W 	W 	0.41726 0.65011 0.35163 1.00700
W 	W 	0.40907 0.55084 0.26971 1.05200
W 	W 	0.40668 0.54786 0.17180 1.05000
W 	W 	0.42444 0.66213 0.09485 1.02200
W 	W 	0.52627 0.74997 0.17655 1.31000
W 	W 	0.52655 0.75231 0.27449 1.04900
Cu	Cu	0.63839 0.67609 0.15457 0.83800
Cu	Cu	0.65253 0.71137 0.98490 0.80000
O 	O 	0.40823 0.58367 0.31887 -0.45900
O 	O 	0.48913 0.72317 0.31917 -0.45400
O 	O 	0.32233 0.58627 0.37067 -0.44300
O 	O 	0.32603 0.59317 0.26367 -0.33500
O 	O 	0.39553 0.53467 0.22197 -0.45500
O 	O 	0.48103 0.64897 0.26377 -0.46400
O 	O 	0.31403 0.46997 0.27927 -0.46600
O 	O 	0.40873 0.58357 0.12717 -0.46400
O 	O 	0.32443 0.59187 0.18297 -0.35100
O 	O 	0.48143 0.64627 0.18297 -0.50000
O 	O 	0.31153 0.46817 0.16657 -0.47100
O 	O 	0.49193 0.72447 0.12787 -0.46900
O 	O 	0.32793 0.59167 0.07637 -0.45600
O 	O 	0.53443 0.76497 0.22357 -0.47500
O 	O 	0.61513 0.76867 0.16757 -0.49800
N 	N 	0.66223 0.65967 0.20027 -0.24900
N 	N 	0.70433 0.66297 0.26937 -0.25800
N 	N 	0.62953 0.68147 0.10567 -0.25300
N 	N 	0.64133 0.70027 0.03427 -0.26100
C 	C 	0.73193 0.68117 0.20947 0.02900
C 	C 	0.78983 0.70967 0.18367 -0.09700
H 	H 	0.77723 0.70907 0.15987 0.00400
C 	C 	0.86063 0.73667 0.19217 -0.03100
H 	H 	0.89803 0.75777 0.17487 0.02600
C 	C 	0.87883 0.73337 0.22727 -0.03600
H 	H 	0.92813 0.74687 0.23327 0.02900
C 	C 	0.82583 0.71087 0.25327 -0.10300
H 	H 	0.83873 0.71357 0.27717 -0.00400
C 	C 	0.75583 0.68507 0.24347 0.03800
C 	C 	0.63553 0.63817 0.26047 -0.01400
H 	H 	0.59913 0.62187 0.27827 -0.03700
C 	C 	0.61253 0.63467 0.22407 0.00300
H 	H 	0.56193 0.61417 0.21827 -0.01400
C 	C 	0.60233 0.62017 0.08477 0.02200
C 	C 	0.57223 0.54957 0.09827 -0.10800
H 	H 	0.57283 0.54387 0.12287 -0.00500
C 	C 	0.54353 0.49117 0.07917 -0.01900
H 	H 	0.52063 0.44417 0.09017 0.01500
C 	C 	0.54513 0.49517 0.04127 -0.07000
H 	H 	0.52533 0.45207 0.02717 0.04100
C 	C 	0.58153 0.57507 0.02507 -0.10100
H 	H 	0.58423 0.58267 0.00057 -0.02700
C 	C 	0.60883 0.63207 0.04777 0.02500
C 	C 	0.65793 0.75387 0.05517 -0.01200
H 	H 	0.67383 0.80177 0.04617 -0.02400
C 	C 	0.65283 0.74267 0.09187 0.01200
H 	H 	0.66813 0.78437 0.10667 -0.00200
W 	W 	0.01656 0.10049 0.68496 0.95100
W 	W 	0.11583 0.19157 0.60304 1.04700
W 	W 	0.11881 0.19216 0.50513 1.04500
W 	W 	0.00454 0.09565 0.42818 0.96300
W 	W 	0.91670 0.10964 0.50988 1.33700
W 	W 	0.91436 0.10758 0.60782 1.08000
Cu	Cu	0.99058 0.29564 0.48790 0.85200
Cu	Cu	0.95530 0.27450 0.31823 0.81000
O 	O 	0.08300 0.15790 0.65220 -0.45700
O 	O 	0.94350 0.09930 0.65250 -0.43000
O 	O 	0.08040 0.06940 0.70400 -0.42400
O 	O 	0.07350 0.06620 0.59700 -0.33100
O 	O 	0.13200 0.19420 0.55530 -0.45600
O 	O 	0.01770 0.16540 0.59710 -0.48600
O 	O 	0.19670 0.17740 0.61260 -0.46900
O 	O 	0.08310 0.15850 0.46050 -0.46100
O 	O 	0.07480 0.06590 0.51630 -0.34800
O 	O 	0.02040 0.16850 0.51630 -0.52300
O 	O 	0.19850 0.17670 0.49990 -0.47300
O 	O 	0.94220 0.10080 0.46120 -0.44000
O 	O 	0.07500 0.06960 0.40970 -0.43300
O 	O 	0.90170 0.10280 0.55690 -0.46800
O 	O 	0.89800 0.17980 0.50090 -0.49100
N 	N 	0.00700 0.33590 0.53360 -0.27600
N 	N 	0.00370 0.37470 0.60270 -0.28600
N 	N 	0.98520 0.28140 0.43900 -0.23200
N 	N 	0.96640 0.27440 0.36760 -0.23800
C 	C 	0.98550 0.38410 0.54280 0.05700
C 	C 	0.95700 0.41350 0.51700 -0.10600
H 	H 	0.95760 0.40150 0.49320 0.01300
C 	C 	0.93000 0.45730 0.52550 -0.02600
H 	H 	0.90890 0.47360 0.50820 0.02500
C 	C 	0.93330 0.47880 0.56060 -0.03100
H 	H 	0.91980 0.51460 0.56660 0.02500
C 	C 	0.95580 0.44830 0.58660 -0.11200
H 	H 	0.95310 0.45850 0.61050 0.00300
C 	C 	0.98160 0.40410 0.57680 0.06300
C 	C 	0.02850 0.33070 0.59380 -0.02200
H 	H 	0.04480 0.31060 0.61160 -0.04400
C 	C 	0.03200 0.31120 0.55740 -0.00500
H 	H 	0.05250 0.28110 0.55160 -0.01700
C 	C 	0.04650 0.31550 0.41810 -0.00500
C 	C 	0.11710 0.35600 0.43160 -0.09800
H 	H 	0.12280 0.36230 0.45620 -0.01600
C 	C 	0.17550 0.38570 0.41250 -0.02600
H 	H 	0.22250 0.40980 0.42350 0.01600
C 	C 	0.17150 0.38330 0.37460 -0.07200
H 	H 	0.21460 0.40660 0.36050 0.04100
C 	C 	0.09160 0.33980 0.35840 -0.09200
H 	H 	0.08400 0.33490 0.33390 -0.03700
C 	C 	0.03460 0.31010 0.38110 -0.00300
C 	C 	0.91280 0.23740 0.38850 -0.00500
H 	H 	0.86490 0.20540 0.37950 -0.01700
C 	C 	0.92400 0.24350 0.42520 0.01900
H 	H 	0.88230 0.21710 0.44000 0.00100
W 	W 	0.68323 0.43382 0.01829 1.00600
W 	W 	0.78250 0.52490 0.93637 1.05500
W 	W 	0.78548 0.52549 0.83846 1.05200
W 	W 	0.67121 0.42898 0.76151 1.02500
W 	W 	0.58337 0.44297 0.84322 1.31100
W 	W 	0.58103 0.44091 0.94115 1.05200
Cu	Cu	0.65725 0.62897 0.82123 0.83800
Cu	Cu	0.62197 0.60783 0.65156 0.79800
O 	O 	0.74967 0.49123 0.98553 -0.45700
O 	O 	0.61017 0.43263 0.98583 -0.45200
O 	O 	0.74707 0.40273 0.03733 -0.44100
O 	O 	0.74017 0.39953 0.93033 -0.33600
O 	O 	0.79867 0.52753 0.88863 -0.45400
O 	O 	0.68437 0.49873 0.93043 -0.46400
O 	O 	0.86337 0.51073 0.94593 -0.46200
O 	O 	0.74977 0.49183 0.79383 -0.46400
O 	O 	0.74147 0.39923 0.84963 -0.35200
O 	O 	0.68707 0.50183 0.84963 -0.50000
O 	O 	0.86517 0.51003 0.83323 -0.46700
O 	O 	0.60887 0.43413 0.79453 -0.46800
O 	O 	0.74167 0.40293 0.74303 -0.45400
O 	O 	0.56837 0.43613 0.89023 -0.47500
O 	O 	0.56467 0.51313 0.83423 -0.49700
N 	N 	0.67367 0.66923 0.86693 -0.24900
N 	N 	0.67037 0.70803 0.93603 -0.25800
N 	N 	0.65187 0.61473 0.77233 -0.25300
N 	N 	0.63307 0.60773 0.70093 -0.26100
C 	C 	0.65217 0.71743 0.87613 0.02800
C 	C 	0.62367 0.74683 0.85033 -0.09800
H 	H 	0.62427 0.73483 0.82653 0.00100
C 	C 	0.59667 0.79063 0.85883 -0.03500
H 	H 	0.57557 0.80693 0.84153 0.01900
C 	C 	0.59997 0.81213 0.89393 -0.03700
H 	H 	0.58647 0.84793 0.89993 0.01800
C 	C 	0.62247 0.78163 0.91993 -0.10600
H 	H 	0.61977 0.79183 0.94383 -0.00800
C 	C 	0.64827 0.73743 0.91013 0.03700
C 	C 	0.69517 0.66403 0.92713 -0.01400
H 	H 	0.71147 0.64393 0.94493 -0.03600
C 	C 	0.69867 0.64453 0.89073 0.00300
H 	H 	0.71917 0.61443 0.88493 -0.01400
C 	C 	0.71317 0.64883 0.75143 0.02200
C 	C 	0.78377 0.68933 0.76493 -0.10800
H 	H 	0.78947 0.69563 0.78953 -0.00500
C 	C 	0.84217 0.71903 0.74583 -0.01900
H 	H 	0.88917 0.74313 0.75683 0.01800
C 	C 	0.83817 0.71663 0.70793 -0.07000
H 	H 	0.88127 0.73993 0.69383 0.04400
C 	C 	0.75827 0.67313 0.69173 -0.10100
H 	H 	0.75067 0.66823 0.66723 -0.02600
C 	C 	0.70127 0.64343 0.71443 0.02500
C 	C 	0.57947 0.57073 0.72183 -0.01200
H 	H 	0.53157 0.53873 0.71283 -0.02200
C 	C 	0.59067 0.57683 0.75853 0.01200
H 	H 	0.54897 0.55043 0.77333 -0.00200
W 	W 	0.34989 0.76716 0.35163 1.00300
W 	W 	0.44916 0.85824 0.26971 1.04500
W 	W 	0.45214 0.85883 0.17180 1.04000
W 	W 	0.33787 0.76232 0.09485 1.01900
W 	W 	0.25003 0.77631 0.17655 1.30900
W 	W 	0.24769 0.77425 0.27449 1.04500
Cu	Cu	0.32391 0.96231 0.15457 0.82600
Cu	Cu	0.28863 0.94117 0.98490 0.79100
O 	O 	0.41633 0.82457 0.31887 -0.46100
O 	O 	0.27683 0.76597 0.31917 -0.45400
O 	O 	0.41373 0.73607 0.37067 -0.44400
O 	O 	0.40683 0.73287 0.26367 -0.33400
O 	O 	0.46533 0.86087 0.22197 -0.45600
O 	O 	0.35103 0.83207 0.26377 -0.46300
O 	O 	0.53003 0.84407 0.27927 -0.46800
O 	O 	0.41643 0.82517 0.12717 -0.46600
O 	O 	0.40813 0.73257 0.18297 -0.35100
O 	O 	0.35373 0.83517 0.18297 -0.50100
O 	O 	0.53183 0.84337 0.16657 -0.47400
O 	O 	0.27553 0.76747 0.12787 -0.46900
O 	O 	0.40833 0.73627 0.07637 -0.45800
O 	O 	0.23503 0.76947 0.22357 -0.47700
O 	O 	0.23133 0.84647 0.16757 -0.50400
N 	N 	0.34033 0.00257 0.20027 -0.22500
N 	N 	0.33703 0.04137 0.26937 -0.24000
N 	N 	0.31853 0.94807 0.10567 -0.25200
N 	N 	0.29973 0.94107 0.03427 -0.26200
C 	C 	0.31883 0.05077 0.20947 0.03500
C 	C 	0.29033 0.08017 0.18367 -0.09800
H 	H 	0.29093 0.06817 0.15987 0.00900
C 	C 	0.26333 0.12397 0.19217 -0.03000
H 	H 	0.24223 0.14027 0.17487 0.02200
C 	C 	0.26663 0.14547 0.22727 -0.03600
H 	H 	0.25313 0.18127 0.23327 0.02200
C 	C 	0.28913 0.11497 0.25327 -0.10300
H 	H 	0.28643 0.12517 0.27717 -0.00500
C 	C 	0.31493 0.07077 0.24347 0.04100
C 	C 	0.36183 0.99737 0.26047 -0.04100
H 	H 	0.37813 0.97727 0.27827 -0.03500
C 	C 	0.36533 0.97787 0.22407 -0.02600
H 	H 	0.38583 0.94777 0.21827 -0.00900
C 	C 	0.37983 0.98217 0.08477 -0.01400
C 	C 	0.45043 0.02267 0.09827 -0.05300
H 	H 	0.45613 0.02897 0.12287 -0.01200
C 	C 	0.50883 0.05237 0.07917 -0.04000
H 	H 	0.55583 0.07647 0.09017 0.02800
C 	C 	0.50483 0.04997 0.04127 -0.06300
H 	H 	0.54793 0.07327 0.02717 0.04200
C 	C 	0.42493 0.00647 0.02507 -0.06200
H 	H 	0.41733 0.00157 0.00057 -0.03000
C 	C 	0.36793 0.97677 0.04777 -0.00500
C 	C 	0.24613 0.90407 0.05517 -0.01500
H 	H 	0.19823 0.87207 0.04617 -0.02900
C 	C 	0.25733 0.91017 0.09187 0.00900
H 	H 	0.21563 0.88377 0.10667 -0.00600
W 	W 	0.89951 0.91607 0.68496 0.98200
W 	W 	0.80843 0.92426 0.60304 1.01400
W 	W 	0.80784 0.92665 0.50513 1.01200
W 	W 	0.90435 0.90889 0.42818 1.00000
W 	W 	0.89036 0.80706 0.50988 1.30700
W 	W 	0.89242 0.80678 0.60782 1.04900
Cu	Cu	0.70436 0.69494 0.48790 0.83800
Cu	Cu	0.72550 0.68080 0.31823 0.80000
O 	O 	0.84210 0.92510 0.65220 -0.46300
O 	O 	0.90070 0.84420 0.65250 -0.44600
O 	O 	0.93060 0.01100 0.70400 -0.40000
O 	O 	0.93380 0.00730 0.59700 -0.29900
O 	O 	0.80580 0.93780 0.55530 -0.46100
O 	O 	0.83460 0.85230 0.59710 -0.46000
O 	O 	0.82260 0.01930 0.61260 -0.44900
O 	O 	0.84150 0.92460 0.46050 -0.46700
O 	O 	0.93410 0.00890 0.51630 -0.31600
O 	O 	0.83150 0.85190 0.51630 -0.49700
O 	O 	0.82330 0.02180 0.49990 -0.45300
O 	O 	0.89920 0.84140 0.46120 -0.46000
O 	O 	0.93040 0.00540 0.40970 -0.40900
O 	O 	0.89720 0.79890 0.55690 -0.47000
O 	O 	0.82020 0.71820 0.50090 -0.49300
N 	N 	0.66410 0.67110 0.53360 -0.24900
N 	N 	0.62530 0.62900 0.60270 -0.25900
N 	N 	0.71860 0.70380 0.43900 -0.25300
N 	N 	0.72560 0.69200 0.36760 -0.26000
C 	C 	0.61590 0.60140 0.54280 0.02800
C 	C 	0.58650 0.54350 0.51700 -0.09700
H 	H 	0.59850 0.55610 0.49320 0.00300
C 	C 	0.54270 0.47270 0.52550 -0.03300
H 	H 	0.52640 0.43530 0.50820 0.02300
C 	C 	0.52120 0.45450 0.56060 -0.03600
H 	H 	0.48540 0.40520 0.56660 0.02300
C 	C 	0.55170 0.50750 0.58660 -0.10400
H 	H 	0.54150 0.49460 0.61050 -0.00600
C 	C 	0.59590 0.57750 0.57680 0.03700
C 	C 	0.66930 0.69780 0.59380 -0.01400
H 	H 	0.68940 0.73420 0.61160 -0.03800
C 	C 	0.68880 0.72080 0.55740 0.00200
H 	H 	0.71890 0.77140 0.55160 -0.01400
C 	C 	0.68450 0.73100 0.41810 0.02200
C 	C 	0.64400 0.76110 0.43160 -0.11000
H 	H 	0.63770 0.76050 0.45620 -0.00600
C 	C 	0.61430 0.78980 0.41250 -0.01900
H 	H 	0.59020 0.81270 0.42350 0.01100
C 	C 	0.61670 0.78820 0.37460 -0.07200
H 	H 	0.59340 0.80800 0.36050 0.03900
C 	C 	0.66020 0.75180 0.35840 -0.10200
H 	H 	0.66510 0.74910 0.33390 -0.02700
C 	C 	0.68990 0.72450 0.38110 0.02500
C 	C 	0.76260 0.67540 0.38850 -0.01100
H 	H 	0.79460 0.65950 0.37950 -0.01800
C 	C 	0.75650 0.68050 0.42520 0.01400
H 	H 	0.78290 0.66520 0.44000 0.00100
W 	W 	0.56618 0.24940 0.01829 1.00600
W 	W 	0.47510 0.25759 0.93637 1.05300
W 	W 	0.47451 0.25998 0.83846 1.04900
W 	W 	0.57102 0.24222 0.76151 1.02500
W 	W 	0.55703 0.14039 0.84322 1.31200
W 	W 	0.55909 0.14011 0.94115 1.05800
Cu	Cu	0.37103 0.02827 0.82123 0.84300
Cu	Cu	0.39217 0.01413 0.65156 0.80900
O 	O 	0.50877 0.25843 0.98553 -0.45700
O 	O 	0.56737 0.17753 0.98583 -0.45200
O 	O 	0.59727 0.34433 0.03733 -0.44100
O 	O 	0.60047 0.34063 0.93033 -0.33600
O 	O 	0.47247 0.27113 0.88863 -0.45500
O 	O 	0.50127 0.18563 0.93043 -0.46400
O 	O 	0.48927 0.35263 0.94593 -0.46600
O 	O 	0.50817 0.25793 0.79383 -0.46500
O 	O 	0.60077 0.34223 0.84963 -0.35200
O 	O 	0.49817 0.18523 0.84963 -0.50000
O 	O 	0.48997 0.35513 0.83323 -0.47200
O 	O 	0.56587 0.17473 0.79453 -0.46700
O 	O 	0.59707 0.33873 0.74303 -0.45500
O 	O 	0.56387 0.13223 0.89023 -0.47300
O 	O 	0.48687 0.05153 0.83423 -0.48600
N 	N 	0.33077 0.00443 0.86693 -0.22600
N 	N 	0.29197 0.96233 0.93603 -0.28400
N 	N 	0.38527 0.03713 0.77233 -0.25800
N 	N 	0.39227 0.02533 0.70093 -0.26400
C 	C 	0.28257 0.93473 0.87613 -0.01500
C 	C 	0.25317 0.87683 0.85033 -0.07700
H 	H 	0.26517 0.88943 0.82653 -0.01500
C 	C 	0.20937 0.80603 0.85883 -0.05600
H 	H 	0.19307 0.76863 0.84153 0.02300
C 	C 	0.18787 0.78783 0.89393 -0.02400
H 	H 	0.15207 0.73853 0.89993 0.01000
C 	C 	0.21837 0.84083 0.91993 -0.12400
H 	H 	0.20817 0.82793 0.94383 -0.00500
C 	C 	0.26257 0.91083 0.91013 0.05000
C 	C 	0.33597 0.03113 0.92713 0.02800
H 	H 	0.35607 0.06753 0.94493 -0.04600
C 	C 	0.35547 0.05413 0.89073 -0.01000
H 	H 	0.38557 0.10473 0.88493 -0.00900
C 	C 	0.35117 0.06433 0.75143 0.02400
C 	C 	0.31067 0.09443 0.76493 -0.10700
H 	H 	0.30437 0.09383 0.78953 -0.00400
C 	C 	0.28097 0.12313 0.74583 -0.01800
H 	H 	0.25687 0.14603 0.75683 0.01400
C 	C 	0.28337 0.12153 0.70793 -0.06700
H 	H 	0.26007 0.14133 0.69383 0.04100
C 	C 	0.32687 0.08513 0.69173 -0.09900
H 	H 	0.33177 0.08243 0.66723 -0.02200
C 	C 	0.35657 0.05783 0.71443 0.02800
C 	C 	0.42927 0.00873 0.72183 0.02600
H 	H 	0.46127 0.99283 0.71283 -0.05900
C 	C 	0.42317 0.01383 0.75853 0.05100
H 	H 	0.44957 0.99853 0.77333 -0.03900
W 	W 	0.23284 0.58274 0.35163 1.00300
W 	W 	0.14176 0.59093 0.26971 1.04300
W 	W 	0.14117 0.59332 0.17180 1.03800
W 	W 	0.23768 0.57556 0.09485 1.01900
W 	W 	0.22369 0.47373 0.17655 1.31000
W 	W 	0.22575 0.47345 0.27449 1.04800
Cu	Cu	0.03769 0.36161 0.15457 0.82500
Cu	Cu	0.05883 0.34747 0.98490 0.79200
O 	O 	0.17543 0.59177 0.31887 -0.46100
O 	O 	0.23403 0.51087 0.31917 -0.45400
O 	O 	0.26393 0.67767 0.37067 -0.44400
O 	O 	0.26713 0.67397 0.26367 -0.33400
O 	O 	0.13913 0.60447 0.22197 -0.45600
O 	O 	0.16793 0.51897 0.26377 -0.46300
O 	O 	0.15593 0.68597 0.27927 -0.47000
O 	O 	0.17483 0.59127 0.12717 -0.46700
O 	O 	0.26743 0.67557 0.18297 -0.35000
O 	O 	0.16483 0.51857 0.18297 -0.50100
O 	O 	0.15663 0.68847 0.16657 -0.47600
O 	O 	0.23253 0.50807 0.12787 -0.46800
O 	O 	0.26373 0.67207 0.07637 -0.45800
O 	O 	0.23053 0.46557 0.22357 -0.47500
O 	O 	0.15353 0.38487 0.16757 -0.50000
N 	N 	0.99743 0.33777 0.20027 -0.22000
N 	N 	0.95863 0.29567 0.26937 -0.23600
N 	N 	0.05193 0.37047 0.10567 -0.25100
N 	N 	0.05893 0.35867 0.03427 -0.26100
C 	C 	0.94923 0.26807 0.20947 0.03800
C 	C 	0.91983 0.21017 0.18367 -0.09500
H 	H 	0.93183 0.22277 0.15987 0.01300
C 	C 	0.87603 0.13937 0.19217 -0.02700
H 	H 	0.85973 0.10197 0.17487 0.03100
C 	C 	0.85453 0.12117 0.22727 -0.03200
H 	H 	0.81873 0.07187 0.23327 0.03100
C 	C 	0.88503 0.17417 0.25327 -0.10000
H 	H 	0.87483 0.16127 0.27717 0.00000
C 	C 	0.92923 0.24417 0.24347 0.04400
C 	C 	0.00263 0.36447 0.26047 -0.04500
H 	H 	0.02273 0.40087 0.27827 -0.03500
C 	C 	0.02213 0.38747 0.22407 -0.03000
H 	H 	0.05223 0.43807 0.21827 -0.00800
C 	C 	0.01783 0.39767 0.08477 -0.01900
C 	C 	0.97733 0.42777 0.09827 -0.04400
H 	H 	0.97103 0.42717 0.12287 -0.01400
C 	C 	0.94763 0.45647 0.07917 -0.04400
H 	H 	0.92353 0.47937 0.09017 0.02900
C 	C 	0.95003 0.45487 0.04127 -0.06200
H 	H 	0.92673 0.47467 0.02717 0.04100
C 	C 	0.99353 0.41847 0.02507 -0.05500
H 	H 	0.99843 0.41577 0.00057 -0.03000
C 	C 	0.02323 0.39117 0.04777 -0.00900
C 	C 	0.09593 0.34207 0.05517 -0.01300
H 	H 	0.12793 0.32617 0.04617 -0.02300
C 	C 	0.08983 0.34717 0.09187 0.01000
H 	H 	0.11623 0.33187 0.10667 -0.00200
P 	P 	0.00000 0.00000 0.60820 0.52800
P 	P 	-0.00000 0.00000 0.50450 0.52600
O 	O 	-0.00000 0.00000 0.65020 -0.36400
O 	O 	-0.00000 0.00000 0.46360 -0.37300
P 	P 	0.66667 0.33333 0.94153 0.55700
P 	P 	0.66667 0.33333 0.83783 0.55400
O 	O 	0.66667 0.33333 0.98353 -0.37200
O 	O 	0.66667 0.33333 0.79693 -0.38200
P 	P 	0.33333 0.66667 0.27487 0.55700
P 	P 	0.33333 0.66667 0.17117 0.55400
O 	O 	0.33333 0.66667 0.31687 -0.37200
O 	O 	0.33333 0.66667 0.13027 -0.38100
