data_crystal

_cell_length_a 13.91600
_cell_length_b 26.63800
_cell_length_c 7.63100
_cell_angle_alpha 90.00000
_cell_angle_beta  90.00000
_cell_angle_gamma 90.00000

_symmetry_space_group_name_	'P 1'
_symmetry_space_group_name_H-M	'P 1'

loop_
_symmetry_equiv_pos_as_xyz
  x,y,z

loop_
_atom_site_label
_atom_site_type_symbol
_atom_site_fract_x
_atom_site_fract_y
_atom_site_fract_z
_atom_site_charge
Cd	Cd	0.21815 0.11477 0.13366 1.16800
N 	N 	0.24740 0.17230 0.91200 -0.16700
N 	N 	0.23440 0.17040 0.35300 -0.20600
N 	N 	0.17180 0.04890 0.33700 -0.16700
N 	N 	0.37450 0.08300 0.12900 -0.18300
N 	N 	0.17960 0.05810 0.90300 -0.19700
N 	N 	0.05250 0.12780 0.08100 -0.27700
C 	C 	0.24650 0.20120 0.80400 -0.24500
C 	C 	0.23850 0.20120 0.45800 -0.26600
C 	C 	0.10760 0.03000 0.40200 -0.29100
C 	C 	0.42360 0.05200 0.08000 -0.28400
C 	C 	0.07700 0.06030 0.87400 -0.07800
C 	C 	0.02300 0.09580 0.93900 -0.00400
C 	C 	0.91370 0.09730 0.89600 0.00600
Cd	Cd	0.28185 0.88523 0.63366 1.18600
N 	N 	0.25260 0.82770 0.41200 -0.18300
N 	N 	0.26560 0.82960 0.85300 -0.19900
N 	N 	0.32820 0.95110 0.83700 -0.15800
N 	N 	0.12550 0.91700 0.62900 -0.17800
N 	N 	0.32040 0.94190 0.40300 -0.20100
N 	N 	0.44750 0.87220 0.58100 -0.22300
C 	C 	0.25350 0.79880 0.30400 -0.27300
C 	C 	0.26150 0.79880 0.95800 -0.22000
C 	C 	0.39240 0.97000 0.90200 -0.16800
C 	C 	0.07640 0.94800 0.58000 -0.23500
C 	C 	0.42300 0.93970 0.37400 -0.05200
C 	C 	0.47700 0.90420 0.43900 0.01400
C 	C 	0.58630 0.90270 0.39600 -0.06800
Cd	Cd	0.78185 0.61477 0.86634 1.19800
N 	N 	0.75260 0.67230 0.08800 -0.19800
N 	N 	0.76560 0.67040 0.64700 -0.18800
N 	N 	0.82820 0.54890 0.66300 -0.15900
N 	N 	0.62550 0.58300 0.87100 -0.17300
N 	N 	0.82040 0.55810 0.09700 -0.22000
N 	N 	0.94750 0.62780 0.91900 -0.18100
C 	C 	0.75350 0.70120 0.19600 -0.25200
C 	C 	0.76150 0.70120 0.54200 -0.24400
C 	C 	0.89240 0.53000 0.59800 -0.19300
C 	C 	0.57640 0.55200 0.92000 -0.19800
C 	C 	0.92300 0.56030 0.12600 -0.05700
C 	C 	0.97700 0.59580 0.06100 0.05200
C 	C 	0.08630 0.59730 0.10400 -0.16400
Cd	Cd	0.71815 0.38523 0.36634 1.18400
N 	N 	0.74740 0.32770 0.58800 -0.18100
N 	N 	0.73440 0.32960 0.14700 -0.19400
N 	N 	0.67180 0.45110 0.16300 -0.16100
N 	N 	0.87450 0.41700 0.37100 -0.18100
N 	N 	0.67960 0.44190 0.59700 -0.20100
N 	N 	0.55250 0.37220 0.41900 -0.22800
C 	C 	0.74650 0.29880 0.69600 -0.22400
C 	C 	0.73850 0.29880 0.04200 -0.28600
C 	C 	0.60760 0.47000 0.09800 -0.26400
C 	C 	0.92360 0.44800 0.42000 -0.19200
C 	C 	0.57700 0.43970 0.62600 -0.04800
C 	C 	0.52300 0.40420 0.56100 0.01900
C 	C 	0.41370 0.40270 0.60400 -0.06200
Cd	Cd	0.78185 0.88523 0.86634 1.20000
N 	N 	0.75260 0.82770 0.08800 -0.19800
N 	N 	0.76560 0.82960 0.64700 -0.18800
N 	N 	0.82820 0.95110 0.66300 -0.15800
N 	N 	0.62550 0.91700 0.87100 -0.17600
N 	N 	0.82040 0.94190 0.09700 -0.21200
N 	N 	0.94750 0.87220 0.91900 -0.18000
C 	C 	0.75350 0.79880 0.19600 -0.25100
C 	C 	0.76150 0.79880 0.54200 -0.24400
C 	C 	0.89240 0.97000 0.59800 -0.16000
C 	C 	0.57640 0.94800 0.92000 -0.16900
C 	C 	0.92300 0.93970 0.12600 -0.03900
C 	C 	0.97700 0.90420 0.06100 0.04700
C 	C 	0.08630 0.90270 0.10400 -0.15200
Cd	Cd	0.71815 0.11477 0.36634 1.18200
N 	N 	0.74740 0.17230 0.58800 -0.18200
N 	N 	0.73440 0.17040 0.14700 -0.19500
N 	N 	0.67180 0.04890 0.16300 -0.16500
N 	N 	0.87450 0.08300 0.37100 -0.18100
N 	N 	0.67960 0.05810 0.59700 -0.20900
N 	N 	0.55250 0.12780 0.41900 -0.22900
C 	C 	0.74650 0.20120 0.69600 -0.22400
C 	C 	0.73850 0.20120 0.04200 -0.28600
C 	C 	0.60760 0.03000 0.09800 -0.28600
C 	C 	0.92360 0.05200 0.42000 -0.21000
C 	C 	0.57700 0.06030 0.62600 -0.06400
C 	C 	0.52300 0.09580 0.56100 0.02200
C 	C 	0.41370 0.09730 0.60400 -0.07300
Cd	Cd	0.21815 0.38523 0.13366 1.16900
N 	N 	0.24740 0.32770 0.91200 -0.16600
N 	N 	0.23440 0.32960 0.35300 -0.20500
N 	N 	0.17180 0.45110 0.33700 -0.16300
N 	N 	0.37450 0.41700 0.12900 -0.18300
N 	N 	0.17960 0.44190 0.90300 -0.18900
N 	N 	0.05250 0.37220 0.08100 -0.27600
C 	C 	0.24650 0.29880 0.80400 -0.24400
C 	C 	0.23850 0.29880 0.45800 -0.26600
C 	C 	0.10760 0.47000 0.40200 -0.26900
C 	C 	0.42360 0.44800 0.08000 -0.26600
C 	C 	0.07700 0.43970 0.87400 -0.06200
C 	C 	0.02300 0.40420 0.93900 -0.00700
C 	C 	0.91370 0.40270 0.89600 0.01600
Cd	Cd	0.28185 0.61477 0.63366 1.18400
N 	N 	0.25260 0.67230 0.41200 -0.18400
N 	N 	0.26560 0.67040 0.85300 -0.19900
N 	N 	0.32820 0.54890 0.83700 -0.15900
N 	N 	0.12550 0.58300 0.62900 -0.17500
N 	N 	0.32040 0.55810 0.40300 -0.20900
N 	N 	0.44750 0.62780 0.58100 -0.22500
C 	C 	0.25350 0.70120 0.30400 -0.27400
C 	C 	0.26150 0.70120 0.95800 -0.22000
C 	C 	0.39240 0.53000 0.90200 -0.20100
C 	C 	0.07640 0.55200 0.58000 -0.26600
C 	C 	0.42300 0.56030 0.37400 -0.07100
C 	C 	0.47700 0.59580 0.43900 0.01800
C 	C 	0.58630 0.59730 0.39600 -0.07900
Ni	Ni	0.24360 0.25000 0.62910 1.05100
Ni	Ni	0.25640 0.75000 0.12910 1.02500
Ni	Ni	0.75640 0.75000 0.37090 1.05300
Ni	Ni	0.74360 0.25000 0.87090 1.07800
Ni	Ni	0.00000 0.00000 0.50000 1.00700
Ni	Ni	0.50000 0.00000 -0.00000 1.01600
Ni	Ni	0.00000 0.50000 0.50000 1.02900
Ni	Ni	0.50000 0.50000 -0.00000 1.03700
