data_crystal

_cell_length_a 26.95600
_cell_length_b 26.95600
_cell_length_c 6.96500
_cell_angle_alpha 90.00000
_cell_angle_beta  90.00000
_cell_angle_gamma 120.00000

_symmetry_space_group_name_	'P 1'
_symmetry_space_group_name_H-M	'P 1'

loop_
_symmetry_equiv_pos_as_xyz
  x,y,z

loop_
_atom_site_label
_atom_site_type_symbol
_atom_site_fract_x
_atom_site_fract_y
_atom_site_fract_z
_atom_site_charge
Cu	Cu	0.79043 0.67912 0.07219 0.92900
O 	O 	0.82151 0.62811 0.04260 -0.47800
O 	O 	0.76300 0.73310 0.08070 -0.42100
O 	O 	0.72050 0.77060 0.91470 -0.38000
N 	N 	0.75960 0.66470 0.81660 -0.17500
C 	C 	0.77930 0.58960 0.73430 -0.16000
C 	C 	0.80670 0.58820 0.90660 0.28600
C 	C 	0.81890 0.54380 0.92770 -0.30000
H 	H 	0.83530 0.54100 0.04150 0.15100
C 	C 	0.80720 0.50440 0.78480 0.15900
H 	H 	0.81570 0.47530 0.80350 -0.02100
C 	C 	0.78300 0.50740 0.61420 -0.20100
H 	H 	0.77670 0.48140 0.51610 0.09800
C 	C 	0.76860 0.54870 0.59030 0.08100
H 	H 	0.75130 0.55000 0.47640 0.00400
C 	C 	0.75900 0.62860 0.69690 0.05800
H 	H 	0.74420 0.62750 0.57550 0.03700
C 	C 	0.73620 0.70120 0.76140 -0.34800
H 	H 	0.69650 0.67770 0.72250 0.13800
H 	H 	0.75760 0.72520 0.65370 0.14300
C 	C 	0.74020 0.73810 0.92980 0.41600
Cu	Cu	0.45710 0.01245 0.40552 0.92800
O 	O 	0.48818 0.96144 0.37593 -0.47900
O 	O 	0.42967 0.06643 0.41403 -0.42200
O 	O 	0.38717 0.10393 0.24803 -0.38100
N 	N 	0.42627 0.99803 0.14993 -0.17600
C 	C 	0.44597 0.92293 0.06763 -0.16100
C 	C 	0.47337 0.92153 0.23993 0.28500
C 	C 	0.48557 0.87713 0.26103 -0.30100
H 	H 	0.50197 0.87433 0.37483 0.15000
C 	C 	0.47387 0.83773 0.11813 0.15800
H 	H 	0.48237 0.80863 0.13683 -0.02200
C 	C 	0.44967 0.84073 0.94753 -0.20200
H 	H 	0.44337 0.81473 0.84943 0.09700
C 	C 	0.43527 0.88203 0.92363 0.08000
H 	H 	0.41797 0.88333 0.80973 0.00300
C 	C 	0.42567 0.96193 0.03023 0.05700
H 	H 	0.41087 0.96083 0.90883 0.03700
C 	C 	0.40287 0.03453 0.09473 -0.34800
H 	H 	0.36317 0.01103 0.05583 0.13800
H 	H 	0.42427 0.05853 0.98703 0.14300
C 	C 	0.40687 0.07143 0.26313 0.41600
Cu	Cu	0.12376 0.34579 0.73886 0.92800
O 	O 	0.15484 0.29478 0.70927 -0.47900
O 	O 	0.09633 0.39977 0.74737 -0.42200
O 	O 	0.05383 0.43727 0.58137 -0.38100
N 	N 	0.09293 0.33137 0.48327 -0.17600
C 	C 	0.11263 0.25627 0.40097 -0.16100
C 	C 	0.14003 0.25487 0.57327 0.28500
C 	C 	0.15223 0.21047 0.59437 -0.30100
H 	H 	0.16863 0.20767 0.70817 0.15000
C 	C 	0.14053 0.17107 0.45147 0.15800
H 	H 	0.14903 0.14197 0.47017 -0.02200
C 	C 	0.11633 0.17407 0.28087 -0.20200
H 	H 	0.11003 0.14807 0.18277 0.09800
C 	C 	0.10193 0.21537 0.25697 0.08000
H 	H 	0.08463 0.21667 0.14307 0.00300
C 	C 	0.09233 0.29527 0.36357 0.05700
H 	H 	0.07753 0.29417 0.24217 0.03600
C 	C 	0.06953 0.36787 0.42807 -0.34900
H 	H 	0.02983 0.34437 0.38917 0.13800
H 	H 	0.09093 0.39187 0.32037 0.14300
C 	C 	0.07353 0.40477 0.59647 0.41600
Cu	Cu	0.32088 0.11131 0.07219 0.92800
O 	O 	0.37189 0.19340 0.04260 -0.47900
O 	O 	0.26690 0.02990 0.08070 -0.42100
O 	O 	0.22940 0.94990 0.91470 -0.38000
N 	N 	0.33530 0.09490 0.81660 -0.17600
C 	C 	0.41040 0.18970 0.73430 -0.16100
C 	C 	0.41180 0.21850 0.90660 0.28500
C 	C 	0.45620 0.27510 0.92770 -0.30100
H 	H 	0.45900 0.29430 0.04150 0.15000
C 	C 	0.49560 0.30280 0.78480 0.15800
H 	H 	0.52470 0.34040 0.80350 -0.02200
C 	C 	0.49260 0.27560 0.61420 -0.20200
H 	H 	0.51860 0.29530 0.51610 0.09700
C 	C 	0.45130 0.21990 0.59030 0.08000
H 	H 	0.45000 0.20130 0.47640 0.00300
C 	C 	0.37140 0.13040 0.69690 0.05700
H 	H 	0.37250 0.11670 0.57550 0.03600
C 	C 	0.29880 0.03500 0.76140 -0.34900
H 	H 	0.32230 0.01880 0.72250 0.13800
H 	H 	0.27480 0.03240 0.65370 0.14300
C 	C 	0.26190 0.00210 0.92980 0.41600
Cu	Cu	0.98755 0.44464 0.40552 0.92800
O 	O 	0.03856 0.52673 0.37593 -0.47900
O 	O 	0.93357 0.36323 0.41403 -0.42200
O 	O 	0.89607 0.28323 0.24803 -0.38000
N 	N 	0.00197 0.42823 0.14993 -0.17600
C 	C 	0.07707 0.52303 0.06763 -0.16100
C 	C 	0.07847 0.55183 0.23993 0.28500
C 	C 	0.12287 0.60843 0.26103 -0.30100
H 	H 	0.12567 0.62763 0.37483 0.15000
C 	C 	0.16227 0.63613 0.11813 0.15800
H 	H 	0.19137 0.67373 0.13683 -0.02200
C 	C 	0.15927 0.60893 0.94753 -0.20200
H 	H 	0.18527 0.62863 0.84943 0.09700
C 	C 	0.11797 0.55323 0.92363 0.08000
H 	H 	0.11667 0.53463 0.80973 0.00300
C 	C 	0.03807 0.46373 0.03023 0.05700
H 	H 	0.03917 0.45003 0.90883 0.03600
C 	C 	0.96547 0.36833 0.09473 -0.34800
H 	H 	0.98897 0.35213 0.05583 0.13800
H 	H 	0.94147 0.36573 0.98703 0.14200
C 	C 	0.92857 0.33543 0.26313 0.41600
Cu	Cu	0.65421 0.77798 0.73886 0.92800
O 	O 	0.70522 0.86007 0.70927 -0.47900
O 	O 	0.60023 0.69657 0.74737 -0.42200
O 	O 	0.56273 0.61657 0.58137 -0.38100
N 	N 	0.66863 0.76157 0.48327 -0.17600
C 	C 	0.74373 0.85637 0.40097 -0.16100
C 	C 	0.74513 0.88517 0.57327 0.28500
C 	C 	0.78953 0.94177 0.59437 -0.30100
H 	H 	0.79233 0.96097 0.70817 0.15000
C 	C 	0.82893 0.96947 0.45147 0.15700
H 	H 	0.85803 0.00707 0.47017 -0.02200
C 	C 	0.82593 0.94227 0.28087 -0.20100
H 	H 	0.85193 0.96197 0.18277 0.09700
C 	C 	0.78463 0.88657 0.25697 0.08000
H 	H 	0.78333 0.86797 0.14307 0.00400
C 	C 	0.70473 0.79707 0.36357 0.05700
H 	H 	0.70583 0.78337 0.24217 0.03600
C 	C 	0.63213 0.70167 0.42807 -0.34900
H 	H 	0.65563 0.68547 0.38917 0.13800
H 	H 	0.60813 0.69907 0.32037 0.14300
C 	C 	0.59523 0.66877 0.59647 0.41600
Cu	Cu	0.88869 0.20957 0.07219 0.92800
O 	O 	0.80660 0.17849 0.04260 -0.47900
O 	O 	0.97010 0.23700 0.08070 -0.42100
O 	O 	0.05010 0.27950 0.91470 -0.38000
N 	N 	0.90510 0.24040 0.81660 -0.17600
C 	C 	0.81030 0.22070 0.73430 -0.16100
C 	C 	0.78150 0.19330 0.90660 0.28500
C 	C 	0.72490 0.18110 0.92770 -0.30100
H 	H 	0.70570 0.16470 0.04150 0.15000
C 	C 	0.69720 0.19280 0.78480 0.15800
H 	H 	0.65960 0.18430 0.80350 -0.02200
C 	C 	0.72440 0.21700 0.61420 -0.20200
H 	H 	0.70470 0.22330 0.51610 0.09700
C 	C 	0.78010 0.23140 0.59030 0.08000
H 	H 	0.79870 0.24870 0.47640 0.00300
C 	C 	0.86960 0.24100 0.69690 0.05700
H 	H 	0.88330 0.25580 0.57550 0.03600
C 	C 	0.96500 0.26380 0.76140 -0.34900
H 	H 	0.98120 0.30350 0.72250 0.13800
H 	H 	0.96760 0.24240 0.65370 0.14300
C 	C 	0.99790 0.25980 0.92980 0.41600
Cu	Cu	0.55536 0.54290 0.40552 0.92800
O 	O 	0.47327 0.51182 0.37593 -0.47900
O 	O 	0.63677 0.57033 0.41403 -0.42200
O 	O 	0.71677 0.61283 0.24803 -0.38100
N 	N 	0.57177 0.57373 0.14993 -0.17600
C 	C 	0.47697 0.55403 0.06763 -0.16100
C 	C 	0.44817 0.52663 0.23993 0.28500
C 	C 	0.39157 0.51443 0.26103 -0.30100
H 	H 	0.37237 0.49803 0.37483 0.15000
C 	C 	0.36387 0.52613 0.11813 0.15800
H 	H 	0.32627 0.51763 0.13683 -0.02200
C 	C 	0.39107 0.55033 0.94753 -0.20200
H 	H 	0.37137 0.55663 0.84943 0.09700
C 	C 	0.44677 0.56473 0.92363 0.08000
H 	H 	0.46537 0.58203 0.80973 0.00300
C 	C 	0.53627 0.57433 0.03023 0.05700
H 	H 	0.54997 0.58913 0.90883 0.03600
C 	C 	0.63167 0.59713 0.09473 -0.34900
H 	H 	0.64787 0.63683 0.05583 0.13800
H 	H 	0.63427 0.57573 0.98703 0.14300
C 	C 	0.66457 0.59313 0.26313 0.41600
Cu	Cu	0.22202 0.87624 0.73886 0.92800
O 	O 	0.13993 0.84516 0.70927 -0.47900
O 	O 	0.30343 0.90367 0.74737 -0.42200
O 	O 	0.38343 0.94617 0.58137 -0.38100
N 	N 	0.23843 0.90707 0.48327 -0.17600
C 	C 	0.14363 0.88737 0.40097 -0.16200
C 	C 	0.11483 0.85997 0.57327 0.28500
C 	C 	0.05823 0.84777 0.59437 -0.30200
H 	H 	0.03903 0.83137 0.70817 0.15100
C 	C 	0.03053 0.85947 0.45147 0.15800
H 	H 	0.99293 0.85097 0.47017 -0.02200
C 	C 	0.05773 0.88367 0.28087 -0.20200
H 	H 	0.03803 0.88997 0.18277 0.09800
C 	C 	0.11343 0.89807 0.25697 0.08000
H 	H 	0.13203 0.91537 0.14307 0.00300
C 	C 	0.20293 0.90767 0.36357 0.05700
H 	H 	0.21663 0.92247 0.24217 0.03600
C 	C 	0.29833 0.93047 0.42807 -0.34900
H 	H 	0.31453 0.97017 0.38917 0.13800
H 	H 	0.30093 0.90907 0.32037 0.14300
C 	C 	0.33123 0.92647 0.59647 0.41600
Cu	Cu	0.20957 0.32088 0.92781 0.92800
O 	O 	0.17849 0.37189 0.95740 -0.47900
O 	O 	0.23700 0.26690 0.91930 -0.42200
O 	O 	0.27950 0.22940 0.08530 -0.38100
N 	N 	0.24040 0.33530 0.18340 -0.17600
C 	C 	0.22070 0.41040 0.26570 -0.16100
C 	C 	0.19330 0.41180 0.09340 0.28500
C 	C 	0.18110 0.45620 0.07230 -0.30100
H 	H 	0.16470 0.45900 0.95850 0.15000
C 	C 	0.19280 0.49560 0.21520 0.15800
H 	H 	0.18430 0.52470 0.19650 -0.02200
C 	C 	0.21700 0.49260 0.38580 -0.20200
H 	H 	0.22330 0.51860 0.48390 0.09700
C 	C 	0.23140 0.45130 0.40970 0.08000
H 	H 	0.24870 0.45000 0.52360 0.00300
C 	C 	0.24100 0.37140 0.30310 0.05700
H 	H 	0.25580 0.37250 0.42450 0.03600
C 	C 	0.26380 0.29880 0.23860 -0.34900
H 	H 	0.30350 0.32230 0.27750 0.13800
H 	H 	0.24240 0.27480 0.34630 0.14300
C 	C 	0.25980 0.26190 0.07020 0.41600
Cu	Cu	0.87624 0.65421 0.26114 0.92800
O 	O 	0.84516 0.70522 0.29073 -0.47900
O 	O 	0.90367 0.60023 0.25263 -0.42200
O 	O 	0.94617 0.56273 0.41863 -0.38100
N 	N 	0.90707 0.66863 0.51673 -0.17600
C 	C 	0.88737 0.74373 0.59903 -0.16100
C 	C 	0.85997 0.74513 0.42673 0.28500
C 	C 	0.84777 0.78953 0.40563 -0.30100
H 	H 	0.83137 0.79233 0.29183 0.15000
C 	C 	0.85947 0.82893 0.54853 0.15800
H 	H 	0.85097 0.85803 0.52983 -0.02200
C 	C 	0.88367 0.82593 0.71913 -0.20200
H 	H 	0.88997 0.85193 0.81723 0.09800
C 	C 	0.89807 0.78463 0.74303 0.08000
H 	H 	0.91537 0.78333 0.85693 0.00300
C 	C 	0.90767 0.70473 0.63643 0.05700
H 	H 	0.92247 0.70583 0.75783 0.03600
C 	C 	0.93047 0.63213 0.57193 -0.34900
H 	H 	0.97017 0.65563 0.61083 0.13800
H 	H 	0.90907 0.60813 0.67963 0.14300
C 	C 	0.92647 0.59523 0.40353 0.41600
Cu	Cu	0.54290 0.98755 0.59448 0.92800
O 	O 	0.51182 0.03856 0.62407 -0.47900
O 	O 	0.57033 0.93357 0.58597 -0.42200
O 	O 	0.61283 0.89607 0.75197 -0.38100
N 	N 	0.57373 0.00197 0.85007 -0.17600
C 	C 	0.55403 0.07707 0.93237 -0.16100
C 	C 	0.52663 0.07847 0.76007 0.28500
C 	C 	0.51443 0.12287 0.73897 -0.30100
H 	H 	0.49803 0.12567 0.62517 0.15000
C 	C 	0.52613 0.16227 0.88187 0.15800
H 	H 	0.51763 0.19137 0.86317 -0.02200
C 	C 	0.55033 0.15927 0.05247 -0.20200
H 	H 	0.55663 0.18527 0.15057 0.09700
C 	C 	0.56473 0.11797 0.07637 0.08000
H 	H 	0.58203 0.11667 0.19027 0.00300
C 	C 	0.57433 0.03807 0.96977 0.05700
H 	H 	0.58913 0.03917 0.09117 0.03700
C 	C 	0.59713 0.96547 0.90527 -0.34800
H 	H 	0.63683 0.98897 0.94417 0.13800
H 	H 	0.57573 0.94147 0.01297 0.14300
C 	C 	0.59313 0.92857 0.73687 0.41600
Cu	Cu	0.67912 0.88869 0.92781 0.92800
O 	O 	0.62811 0.80660 0.95740 -0.47900
O 	O 	0.73310 0.97010 0.91930 -0.42100
O 	O 	0.77060 0.05010 0.08530 -0.38000
N 	N 	0.66470 0.90510 0.18340 -0.17600
C 	C 	0.58960 0.81030 0.26570 -0.16100
C 	C 	0.58820 0.78150 0.09340 0.28500
C 	C 	0.54380 0.72490 0.07230 -0.30100
H 	H 	0.54100 0.70570 0.95850 0.15000
C 	C 	0.50440 0.69720 0.21520 0.15800
H 	H 	0.47530 0.65960 0.19650 -0.02200
C 	C 	0.50740 0.72440 0.38580 -0.20200
H 	H 	0.48140 0.70470 0.48390 0.09700
C 	C 	0.54870 0.78010 0.40970 0.08000
H 	H 	0.55000 0.79870 0.52360 0.00300
C 	C 	0.62860 0.86960 0.30310 0.05700
H 	H 	0.62750 0.88330 0.42450 0.03600
C 	C 	0.70120 0.96500 0.23860 -0.34900
H 	H 	0.67770 0.98120 0.27750 0.13800
H 	H 	0.72520 0.96760 0.34630 0.14300
C 	C 	0.73810 0.99790 0.07020 0.41600
Cu	Cu	0.34579 0.22202 0.26114 0.92800
O 	O 	0.29478 0.13993 0.29073 -0.47900
O 	O 	0.39977 0.30343 0.25263 -0.42200
O 	O 	0.43727 0.38343 0.41863 -0.38100
N 	N 	0.33137 0.23843 0.51673 -0.17600
C 	C 	0.25627 0.14363 0.59903 -0.16100
C 	C 	0.25487 0.11483 0.42673 0.28500
C 	C 	0.21047 0.05823 0.40563 -0.30100
H 	H 	0.20767 0.03903 0.29183 0.15000
C 	C 	0.17107 0.03053 0.54853 0.15700
H 	H 	0.14197 0.99293 0.52983 -0.02200
C 	C 	0.17407 0.05773 0.71913 -0.20100
H 	H 	0.14807 0.03803 0.81723 0.09700
C 	C 	0.21537 0.11343 0.74303 0.08000
H 	H 	0.21667 0.13203 0.85693 0.00400
C 	C 	0.29527 0.20293 0.63643 0.05700
H 	H 	0.29417 0.21663 0.75783 0.03600
C 	C 	0.36787 0.29833 0.57193 -0.34900
H 	H 	0.34437 0.31453 0.61083 0.13800
H 	H 	0.39187 0.30093 0.67963 0.14300
C 	C 	0.40477 0.33123 0.40353 0.41600
Cu	Cu	0.01245 0.55536 0.59448 0.92800
O 	O 	0.96144 0.47327 0.62407 -0.47900
O 	O 	0.06643 0.63677 0.58597 -0.42200
O 	O 	0.10393 0.71677 0.75197 -0.38000
N 	N 	0.99803 0.57177 0.85007 -0.17600
C 	C 	0.92293 0.47697 0.93237 -0.16100
C 	C 	0.92153 0.44817 0.76007 0.28500
C 	C 	0.87713 0.39157 0.73897 -0.30100
H 	H 	0.87433 0.37237 0.62517 0.15000
C 	C 	0.83773 0.36387 0.88187 0.15800
H 	H 	0.80863 0.32627 0.86317 -0.02200
C 	C 	0.84073 0.39107 0.05247 -0.20200
H 	H 	0.81473 0.37137 0.15057 0.09700
C 	C 	0.88203 0.44677 0.07637 0.08000
H 	H 	0.88333 0.46537 0.19027 0.00300
C 	C 	0.96193 0.53627 0.96977 0.05700
H 	H 	0.96083 0.54997 0.09117 0.03600
C 	C 	0.03453 0.63167 0.90527 -0.34800
H 	H 	0.01103 0.64787 0.94417 0.13800
H 	H 	0.05853 0.63427 0.01297 0.14200
C 	C 	0.07143 0.66457 0.73687 0.41600
Cu	Cu	0.11131 0.79043 0.92781 0.92800
O 	O 	0.19340 0.82151 0.95740 -0.47900
O 	O 	0.02990 0.76300 0.91930 -0.42100
O 	O 	0.94990 0.72050 0.08530 -0.38000
N 	N 	0.09490 0.75960 0.18340 -0.17600
C 	C 	0.18970 0.77930 0.26570 -0.16100
C 	C 	0.21850 0.80670 0.09340 0.28500
C 	C 	0.27510 0.81890 0.07230 -0.30100
H 	H 	0.29430 0.83530 0.95850 0.15000
C 	C 	0.30280 0.80720 0.21520 0.15800
H 	H 	0.34040 0.81570 0.19650 -0.02200
C 	C 	0.27560 0.78300 0.38580 -0.20200
H 	H 	0.29530 0.77670 0.48390 0.09700
C 	C 	0.21990 0.76860 0.40970 0.08000
H 	H 	0.20130 0.75130 0.52360 0.00300
C 	C 	0.13040 0.75900 0.30310 0.05700
H 	H 	0.11670 0.74420 0.42450 0.03600
C 	C 	0.03500 0.73620 0.23860 -0.34900
H 	H 	0.01880 0.69650 0.27750 0.13800
H 	H 	0.03240 0.75760 0.34630 0.14300
C 	C 	0.00210 0.74020 0.07020 0.41600
Cu	Cu	0.77798 0.12376 0.26114 0.92800
O 	O 	0.86007 0.15484 0.29073 -0.47900
O 	O 	0.69657 0.09633 0.25263 -0.42200
O 	O 	0.61657 0.05383 0.41863 -0.38100
N 	N 	0.76157 0.09293 0.51673 -0.17600
C 	C 	0.85637 0.11263 0.59903 -0.16200
C 	C 	0.88517 0.14003 0.42673 0.28500
C 	C 	0.94177 0.15223 0.40563 -0.30200
H 	H 	0.96097 0.16863 0.29183 0.15100
C 	C 	0.96947 0.14053 0.54853 0.15800
H 	H 	0.00707 0.14903 0.52983 -0.02200
C 	C 	0.94227 0.11633 0.71913 -0.20200
H 	H 	0.96197 0.11003 0.81723 0.09800
C 	C 	0.88657 0.10193 0.74303 0.08000
H 	H 	0.86797 0.08463 0.85693 0.00300
C 	C 	0.79707 0.09233 0.63643 0.05700
H 	H 	0.78337 0.07753 0.75783 0.03600
C 	C 	0.70167 0.06953 0.57193 -0.34900
H 	H 	0.68547 0.02983 0.61083 0.13800
H 	H 	0.69907 0.09093 0.67963 0.14300
C 	C 	0.66877 0.07353 0.40353 0.41600
Cu	Cu	0.44464 0.45710 0.59448 0.92800
O 	O 	0.52673 0.48818 0.62407 -0.47900
O 	O 	0.36323 0.42967 0.58597 -0.42200
O 	O 	0.28323 0.38717 0.75197 -0.38100
N 	N 	0.42823 0.42627 0.85007 -0.17600
C 	C 	0.52303 0.44597 0.93237 -0.16100
C 	C 	0.55183 0.47337 0.76007 0.28500
C 	C 	0.60843 0.48557 0.73897 -0.30100
H 	H 	0.62763 0.50197 0.62517 0.15000
C 	C 	0.63613 0.47387 0.88187 0.15800
H 	H 	0.67373 0.48237 0.86317 -0.02200
C 	C 	0.60893 0.44967 0.05247 -0.20200
H 	H 	0.62863 0.44337 0.15057 0.09700
C 	C 	0.55323 0.43527 0.07637 0.08000
H 	H 	0.53463 0.41797 0.19027 0.00300
C 	C 	0.46373 0.42567 0.96977 0.05700
H 	H 	0.45003 0.41087 0.09117 0.03600
C 	C 	0.36833 0.40287 0.90527 -0.34900
H 	H 	0.35213 0.36317 0.94417 0.13800
H 	H 	0.36573 0.42427 0.01297 0.14300
C 	C 	0.33543 0.40687 0.73687 0.41600
