data_crystal

_cell_length_a 18.62940
_cell_length_b 9.93450
_cell_length_c 14.74240
_cell_angle_alpha 90.00000
_cell_angle_beta  90.00000
_cell_angle_gamma 90.00000

_symmetry_space_group_name_	'P 1'
_symmetry_space_group_name_H-M	'P 1'

loop_
_symmetry_equiv_pos_as_xyz
  x,y,z

loop_
_atom_site_label
_atom_site_type_symbol
_atom_site_fract_x
_atom_site_fract_y
_atom_site_fract_z
_atom_site_charge
Cd	Cd	0.46845 0.95931 0.10302 1.23400
Na	Na	0.55967 0.94520 0.87570 0.58300
O 	O 	0.49300 0.81000 0.99480 -0.37600
O 	O 	0.47290 0.68650 0.11620 -0.25500
O 	O 	0.45700 0.18170 0.07090 -0.41900
O 	O 	0.48230 0.09430 0.94010 -0.38800
O 	O 	0.52060 0.50770 0.73550 -0.42900
H 	H 	0.53910 0.58240 0.73160 0.25900
O 	O 	0.57580 0.98880 0.16550 -0.40500
O 	O 	0.52280 0.12800 0.26320 -0.35100
O 	O 	0.84270 0.09420 0.10960 -0.38700
O 	O 	0.90240 0.06720 0.23530 -0.42600
O 	O 	0.73650 0.21850 0.48000 -0.44600
H 	H 	0.71030 0.17600 0.51440 0.28600
C 	C 	0.48420 0.69680 0.03300 0.15500
C 	C 	0.48660 0.57350 0.97420 0.19100
C 	C 	0.47950 0.44310 0.00940 -0.25900
H 	H 	0.47110 0.43010 0.07090 0.15100
C 	C 	0.48530 0.33320 0.95150 0.11700
C 	C 	0.47510 0.19290 0.99020 0.33000
C 	C 	0.49960 0.34860 0.85910 -0.25700
H 	H 	0.50480 0.27410 0.82140 0.14700
C 	C 	0.50600 0.48000 0.82450 0.35000
C 	C 	0.49730 0.59020 0.88040 -0.30500
H 	H 	0.49860 0.67640 0.85590 0.14700
C 	C 	0.57630 0.07280 0.23150 0.30500
C 	C 	0.65010 0.10290 0.26960 0.02100
C 	C 	0.71060 0.08690 0.21560 -0.06800
H 	H 	0.70590 0.05560 0.15640 0.07000
C 	C 	0.77860 0.11810 0.25030 0.00700
C 	C 	0.84530 0.09100 0.19400 0.30300
C 	C 	0.78440 0.16510 0.33910 -0.20100
H 	H 	0.82930 0.18830 0.36180 0.11400
C 	C 	0.72480 0.17800 0.39370 0.29000
C 	C 	0.65660 0.14570 0.35800 -0.20500
H 	H 	0.61600 0.15340 0.39430 0.11400
Cd	Cd	0.53155 0.04069 0.60302 1.24000
Na	Na	0.44033 0.05480 0.37570 0.58100
O 	O 	0.50700 0.19000 0.49480 -0.43800
O 	O 	0.52710 0.31350 0.61620 -0.28000
O 	O 	0.54300 0.81830 0.57090 -0.39000
O 	O 	0.51770 0.90570 0.44010 -0.39200
O 	O 	0.47940 0.49230 0.23550 -0.41400
H 	H 	0.46090 0.41760 0.23160 0.24900
O 	O 	0.42420 0.01120 0.66550 -0.39700
O 	O 	0.47720 0.87200 0.76320 -0.35100
O 	O 	0.15730 0.90580 0.60960 -0.38000
O 	O 	0.09760 0.93280 0.73530 -0.42500
O 	O 	0.26350 0.78150 0.98000 -0.38400
H 	H 	0.28970 0.82400 0.01440 0.23500
C 	C 	0.51580 0.30320 0.53300 0.28000
C 	C 	0.51340 0.42650 0.47420 0.02900
C 	C 	0.52050 0.55690 0.50940 -0.07300
H 	H 	0.52890 0.56990 0.57090 0.09500
C 	C 	0.51470 0.66680 0.45150 0.01100
C 	C 	0.52490 0.80710 0.49020 0.31600
C 	C 	0.50040 0.65140 0.35910 -0.18600
H 	H 	0.49520 0.72590 0.32140 0.12100
C 	C 	0.49400 0.52000 0.32450 0.28400
C 	C 	0.50270 0.40980 0.38040 -0.21000
H 	H 	0.50140 0.32360 0.35590 0.11200
C 	C 	0.42370 0.92720 0.73150 0.30800
C 	C 	0.34990 0.89710 0.76960 0.01800
C 	C 	0.28940 0.91310 0.71560 -0.06200
H 	H 	0.29410 0.94440 0.65640 0.07500
C 	C 	0.22140 0.88190 0.75030 0.00400
C 	C 	0.15470 0.90900 0.69400 0.30500
C 	C 	0.21560 0.83490 0.83910 -0.18800
H 	H 	0.17070 0.81170 0.86180 0.11100
C 	C 	0.27520 0.82200 0.89370 0.27400
C 	C 	0.34340 0.85430 0.85800 -0.18900
H 	H 	0.38400 0.84660 0.89430 0.11400
Cd	Cd	0.96845 0.04069 0.10302 1.23200
Na	Na	0.05967 0.05480 0.87570 0.58100
O 	O 	0.99300 0.19000 0.99480 -0.37300
O 	O 	0.97290 0.31350 0.11620 -0.25500
O 	O 	0.95700 0.81830 0.07090 -0.42300
O 	O 	0.98230 0.90570 0.94010 -0.38600
O 	O 	0.02060 0.49230 0.73550 -0.42300
H 	H 	0.03910 0.41760 0.73160 0.25600
O 	O 	0.07580 0.01120 0.16550 -0.40300
O 	O 	0.02280 0.87200 0.26320 -0.35100
O 	O 	0.34270 0.90580 0.10960 -0.38600
O 	O 	0.40240 0.93280 0.23530 -0.42500
O 	O 	0.23650 0.78150 0.48000 -0.44600
H 	H 	0.21030 0.82400 0.51440 0.28600
C 	C 	0.98420 0.30320 0.03300 0.14700
C 	C 	0.98660 0.42650 0.97420 0.19500
C 	C 	0.97950 0.55690 0.00940 -0.26400
H 	H 	0.97110 0.56990 0.07090 0.15200
C 	C 	0.98530 0.66680 0.95150 0.11300
C 	C 	0.97510 0.80710 0.99020 0.33700
C 	C 	0.99960 0.65140 0.85910 -0.23000
H 	H 	0.00480 0.72590 0.82140 0.13200
C 	C 	0.00600 0.52000 0.82450 0.32800
C 	C 	0.99730 0.40980 0.88040 -0.29200
H 	H 	0.99860 0.32360 0.85590 0.14400
C 	C 	0.07630 0.92720 0.23150 0.30300
C 	C 	0.15010 0.89710 0.26960 0.02200
C 	C 	0.21060 0.91310 0.21560 -0.06900
H 	H 	0.20590 0.94440 0.15640 0.07000
C 	C 	0.27860 0.88190 0.25030 0.00700
C 	C 	0.34530 0.90900 0.19400 0.30200
C 	C 	0.28440 0.83490 0.33910 -0.20100
H 	H 	0.32930 0.81170 0.36180 0.11400
C 	C 	0.22480 0.82200 0.39370 0.29000
C 	C 	0.15660 0.85430 0.35800 -0.20600
H 	H 	0.11600 0.84660 0.39430 0.11400
Cd	Cd	0.03155 0.95931 0.60302 1.23900
Na	Na	0.94033 0.94520 0.37570 0.58200
O 	O 	0.00700 0.81000 0.49480 -0.43900
O 	O 	0.02710 0.68650 0.61620 -0.28100
O 	O 	0.04300 0.18170 0.57090 -0.39100
O 	O 	0.01770 0.09430 0.44010 -0.39100
O 	O 	0.97940 0.50770 0.23550 -0.41600
H 	H 	0.96090 0.58240 0.23160 0.25000
O 	O 	0.92420 0.98880 0.66550 -0.39200
O 	O 	0.97720 0.12800 0.76320 -0.34900
O 	O 	0.65730 0.09420 0.60960 -0.38000
O 	O 	0.59760 0.06720 0.73530 -0.42400
O 	O 	0.76350 0.21850 0.98000 -0.37600
H 	H 	0.78970 0.17600 0.01440 0.22900
C 	C 	0.01580 0.69680 0.53300 0.27900
C 	C 	0.01340 0.57350 0.47420 0.02900
C 	C 	0.02050 0.44310 0.50940 -0.07400
H 	H 	0.02890 0.43010 0.57090 0.09500
C 	C 	0.01470 0.33320 0.45150 0.01200
C 	C 	0.02490 0.19290 0.49020 0.31500
C 	C 	0.00040 0.34860 0.35910 -0.18800
H 	H 	0.99520 0.27410 0.32140 0.12100
C 	C 	0.99400 0.48000 0.32450 0.28800
C 	C 	0.00270 0.59020 0.38040 -0.21300
H 	H 	0.00140 0.67640 0.35590 0.11300
C 	C 	0.92370 0.07280 0.73150 0.30500
C 	C 	0.84990 0.10290 0.76960 0.01900
C 	C 	0.78940 0.08690 0.71560 -0.06300
H 	H 	0.79410 0.05560 0.65640 0.07500
C 	C 	0.72140 0.11810 0.75030 0.00500
C 	C 	0.65470 0.09100 0.69400 0.30500
C 	C 	0.71560 0.16510 0.83910 -0.18700
H 	H 	0.67070 0.18830 0.86180 0.11200
C 	C 	0.77520 0.17800 0.89370 0.27300
C 	C 	0.84340 0.14570 0.85800 -0.18800
H 	H 	0.88400 0.15340 0.89430 0.11400
