data_crystal

_cell_length_a 16.99580
_cell_length_b 16.99580
_cell_length_c 16.99580
_cell_angle_alpha 90.00000
_cell_angle_beta  90.00000
_cell_angle_gamma 90.00000

_symmetry_space_group_name_	'P 1'
_symmetry_space_group_name_H-M	'P 1'

loop_
_symmetry_equiv_pos_as_xyz
  x,y,z

loop_
_atom_site_label
_atom_site_type_symbol
_atom_site_fract_x
_atom_site_fract_y
_atom_site_fract_z
_atom_site_charge
N 	N 	0.90942 0.52734 0.18204 -0.31800
H 	H 	0.95730 0.40100 0.10680 0.22800
C 	C 	0.87120 0.59730 0.18460 0.06800
H 	H 	0.88180 0.63830 0.21920 -0.02600
N 	N 	0.81540 0.59730 0.12880 -0.16000
N 	N 	0.40942 0.02734 0.68204 -0.43300
H 	H 	0.45730 0.90100 0.60680 0.29400
C 	C 	0.37120 0.09730 0.68460 0.05200
H 	H 	0.38180 0.13830 0.71920 -0.03800
N 	N 	0.31540 0.09730 0.62880 -0.16000
N 	N 	0.09058 0.47266 0.18204 -0.34400
H 	H 	0.04270 0.59900 0.10680 0.12200
C 	C 	0.12880 0.40270 0.18460 0.04200
H 	H 	0.11820 0.36170 0.21920 -0.05300
N 	N 	0.18460 0.40270 0.12880 -0.16100
N 	N 	0.59058 0.97266 0.68204 -0.23800
H 	H 	0.54270 0.09900 0.60680 0.13500
C 	C 	0.62880 0.90270 0.68460 0.07800
H 	H 	0.61820 0.86170 0.71920 -0.03700
N 	N 	0.68460 0.90270 0.62880 -0.15400
N 	N 	0.09058 0.52734 0.81796 -0.35300
H 	H 	0.04270 0.40100 0.89320 0.19100
C 	C 	0.12880 0.59730 0.81540 0.06000
H 	H 	0.11820 0.63830 0.78080 -0.04400
N 	N 	0.18460 0.59730 0.87120 -0.15400
N 	N 	0.59058 0.02734 0.31796 -0.43300
H 	H 	0.54270 0.90100 0.39320 0.29500
C 	C 	0.62880 0.09730 0.31540 0.05100
H 	H 	0.61820 0.13830 0.28080 -0.03700
N 	N 	0.68460 0.09730 0.37120 -0.16000
N 	N 	0.90942 0.47266 0.81796 -0.32800
H 	H 	0.95730 0.59900 0.89320 0.31900
C 	C 	0.87120 0.40270 0.81540 0.08100
H 	H 	0.88180 0.36170 0.78080 -0.02700
N 	N 	0.81540 0.40270 0.87120 -0.15400
N 	N 	0.40942 0.97266 0.31796 -0.23800
H 	H 	0.45730 0.09900 0.39320 0.13500
C 	C 	0.37120 0.90270 0.31540 0.07100
H 	H 	0.38180 0.86170 0.28080 -0.03800
N 	N 	0.31540 0.90270 0.37120 -0.15500
N 	N 	0.18204 0.90942 0.52734 -0.31700
H 	H 	0.10680 0.95730 0.40100 0.22900
C 	C 	0.18460 0.87120 0.59730 0.06900
H 	H 	0.21920 0.88180 0.63830 -0.02600
N 	N 	0.12880 0.81540 0.59730 -0.16000
N 	N 	0.68204 0.40942 0.02734 -0.43300
H 	H 	0.60680 0.45730 0.90100 0.29400
C 	C 	0.68460 0.37120 0.09730 0.05200
H 	H 	0.71920 0.38180 0.13830 -0.03800
N 	N 	0.62880 0.31540 0.09730 -0.16000
N 	N 	0.18204 0.09058 0.47266 -0.34400
H 	H 	0.10680 0.04270 0.59900 0.12200
C 	C 	0.18460 0.12880 0.40270 0.04200
H 	H 	0.21920 0.11820 0.36170 -0.05300
N 	N 	0.12880 0.18460 0.40270 -0.16100
N 	N 	0.68204 0.59058 0.97266 -0.23800
H 	H 	0.60680 0.54270 0.09900 0.13500
C 	C 	0.68460 0.62880 0.90270 0.07800
H 	H 	0.71920 0.61820 0.86170 -0.03700
N 	N 	0.62880 0.68460 0.90270 -0.15400
N 	N 	0.81796 0.09058 0.52734 -0.35300
H 	H 	0.89320 0.04270 0.40100 0.19100
C 	C 	0.81540 0.12880 0.59730 0.06000
H 	H 	0.78080 0.11820 0.63830 -0.04400
N 	N 	0.87120 0.18460 0.59730 -0.15400
N 	N 	0.31796 0.59058 0.02734 -0.43300
H 	H 	0.39320 0.54270 0.90100 0.29500
C 	C 	0.31540 0.62880 0.09730 0.05100
H 	H 	0.28080 0.61820 0.13830 -0.03700
N 	N 	0.37120 0.68460 0.09730 -0.16000
N 	N 	0.81796 0.90942 0.47266 -0.32800
H 	H 	0.89320 0.95730 0.59900 0.31900
C 	C 	0.81540 0.87120 0.40270 0.08100
H 	H 	0.78080 0.88180 0.36170 -0.02700
N 	N 	0.87120 0.81540 0.40270 -0.15400
N 	N 	0.31796 0.40942 0.97266 -0.23800
H 	H 	0.39320 0.45730 0.09900 0.13500
C 	C 	0.31540 0.37120 0.90270 0.07100
H 	H 	0.28080 0.38180 0.86170 -0.03800
N 	N 	0.37120 0.31540 0.90270 -0.15500
N 	N 	0.52734 0.18204 0.90942 -0.31700
H 	H 	0.40100 0.10680 0.95730 0.22900
C 	C 	0.59730 0.18460 0.87120 0.06900
H 	H 	0.63830 0.21920 0.88180 -0.02600
N 	N 	0.59730 0.12880 0.81540 -0.16000
N 	N 	0.02734 0.68204 0.40942 -0.43300
H 	H 	0.90100 0.60680 0.45730 0.29400
C 	C 	0.09730 0.68460 0.37120 0.05200
H 	H 	0.13830 0.71920 0.38180 -0.03800
N 	N 	0.09730 0.62880 0.31540 -0.16000
N 	N 	0.47266 0.18204 0.09058 -0.34400
H 	H 	0.59900 0.10680 0.04270 0.12200
C 	C 	0.40270 0.18460 0.12880 0.04200
H 	H 	0.36170 0.21920 0.11820 -0.05300
N 	N 	0.40270 0.12880 0.18460 -0.16100
N 	N 	0.97266 0.68204 0.59058 -0.23800
H 	H 	0.09900 0.60680 0.54270 0.13500
C 	C 	0.90270 0.68460 0.62880 0.07800
H 	H 	0.86170 0.71920 0.61820 -0.03700
N 	N 	0.90270 0.62880 0.68460 -0.15400
N 	N 	0.52734 0.81796 0.09058 -0.35300
H 	H 	0.40100 0.89320 0.04270 0.19100
C 	C 	0.59730 0.81540 0.12880 0.06000
H 	H 	0.63830 0.78080 0.11820 -0.04400
N 	N 	0.59730 0.87120 0.18460 -0.15400
N 	N 	0.02734 0.31796 0.59058 -0.43300
H 	H 	0.90100 0.39320 0.54270 0.29500
C 	C 	0.09730 0.31540 0.62880 0.05100
H 	H 	0.13830 0.28080 0.61820 -0.03700
N 	N 	0.09730 0.37120 0.68460 -0.16000
N 	N 	0.47266 0.81796 0.90942 -0.32800
H 	H 	0.59900 0.89320 0.95730 0.31900
C 	C 	0.40270 0.81540 0.87120 0.08100
H 	H 	0.36170 0.78080 0.88180 -0.02700
N 	N 	0.40270 0.87120 0.81540 -0.15400
N 	N 	0.97266 0.31796 0.40942 -0.23800
H 	H 	0.09900 0.39320 0.45730 0.13500
C 	C 	0.90270 0.31540 0.37120 0.07100
H 	H 	0.86170 0.28080 0.38180 -0.03800
N 	N 	0.90270 0.37120 0.31540 -0.15500
N 	N 	0.52734 0.90942 0.18204 -0.27900
H 	H 	0.40100 0.95730 0.10680 0.22900
H 	H 	0.63830 0.88180 0.21920 0.06400
N 	N 	0.02734 0.40942 0.68204 -0.39700
H 	H 	0.90100 0.45730 0.60680 0.29400
H 	H 	0.13830 0.38180 0.71920 0.04800
N 	N 	0.47266 0.09058 0.18204 -0.31100
H 	H 	0.59900 0.04270 0.10680 0.12200
H 	H 	0.36170 0.11820 0.21920 0.02900
N 	N 	0.97266 0.59058 0.68204 -0.19900
H 	H 	0.09900 0.54270 0.60680 0.13500
H 	H 	0.86170 0.61820 0.71920 0.05600
N 	N 	0.52734 0.09058 0.81796 -0.31700
H 	H 	0.40100 0.04270 0.89320 0.19100
H 	H 	0.63830 0.11820 0.78080 0.04400
N 	N 	0.02734 0.59058 0.31796 -0.39800
H 	H 	0.90100 0.54270 0.39320 0.29500
H 	H 	0.13830 0.61820 0.28080 0.04800
N 	N 	0.47266 0.90942 0.81796 -0.28800
H 	H 	0.59900 0.95730 0.89320 0.31900
H 	H 	0.36170 0.88180 0.78080 0.06800
N 	N 	0.97266 0.40942 0.31796 -0.20100
H 	H 	0.09900 0.45730 0.39320 0.13500
H 	H 	0.86170 0.38180 0.28080 0.05200
N 	N 	0.90942 0.18204 0.52734 -0.27900
H 	H 	0.95730 0.10680 0.40100 0.22900
H 	H 	0.88180 0.21920 0.63830 0.06400
N 	N 	0.40942 0.68204 0.02734 -0.39700
H 	H 	0.45730 0.60680 0.90100 0.29400
H 	H 	0.38180 0.71920 0.13830 0.04800
N 	N 	0.09058 0.18204 0.47266 -0.31100
H 	H 	0.04270 0.10680 0.59900 0.12200
H 	H 	0.11820 0.21920 0.36170 0.02900
N 	N 	0.59058 0.68204 0.97266 -0.19900
H 	H 	0.54270 0.60680 0.09900 0.13500
H 	H 	0.61820 0.71920 0.86170 0.05600
N 	N 	0.09058 0.81796 0.52734 -0.31700
H 	H 	0.04270 0.89320 0.40100 0.19100
H 	H 	0.11820 0.78080 0.63830 0.04400
N 	N 	0.59058 0.31796 0.02734 -0.39800
H 	H 	0.54270 0.39320 0.90100 0.29500
H 	H 	0.61820 0.28080 0.13830 0.04800
N 	N 	0.90942 0.81796 0.47266 -0.28800
H 	H 	0.95730 0.89320 0.59900 0.31900
H 	H 	0.88180 0.78080 0.36170 0.06800
N 	N 	0.40942 0.31796 0.97266 -0.20100
H 	H 	0.45730 0.39320 0.09900 0.13500
H 	H 	0.38180 0.28080 0.86170 0.05200
N 	N 	0.18204 0.52734 0.90942 -0.27900
H 	H 	0.10680 0.40100 0.95730 0.22900
H 	H 	0.21920 0.63830 0.88180 0.06400
N 	N 	0.68204 0.02734 0.40942 -0.39700
H 	H 	0.60680 0.90100 0.45730 0.29400
H 	H 	0.71920 0.13830 0.38180 0.04800
N 	N 	0.18204 0.47266 0.09058 -0.31100
H 	H 	0.10680 0.59900 0.04270 0.12200
H 	H 	0.21920 0.36170 0.11820 0.02900
N 	N 	0.68204 0.97266 0.59058 -0.19900
H 	H 	0.60680 0.09900 0.54270 0.13500
H 	H 	0.71920 0.86170 0.61820 0.05600
N 	N 	0.81796 0.52734 0.09058 -0.31700
H 	H 	0.89320 0.40100 0.04270 0.19100
H 	H 	0.78080 0.63830 0.11820 0.04400
N 	N 	0.31796 0.02734 0.59058 -0.39800
H 	H 	0.39320 0.90100 0.54270 0.29500
H 	H 	0.28080 0.13830 0.61820 0.04800
N 	N 	0.81796 0.47266 0.90942 -0.28800
H 	H 	0.89320 0.59900 0.95730 0.31900
H 	H 	0.78080 0.36170 0.88180 0.06800
N 	N 	0.31796 0.97266 0.40942 -0.20100
H 	H 	0.39320 0.09900 0.45730 0.13500
H 	H 	0.28080 0.86170 0.38180 0.05200
Zn	Zn	0.00000 0.50000 0.25000 1.13900
Zn	Zn	0.00000 0.50000 0.75000 1.14100
Zn	Zn	0.25000 0.00000 0.50000 1.13900
Zn	Zn	0.75000 0.00000 0.50000 1.14100
Zn	Zn	0.50000 0.25000 -0.00000 1.13900
Zn	Zn	0.50000 0.75000 -0.00000 1.14100
Zn	Zn	0.50000 0.00000 0.25000 1.13900
Zn	Zn	0.50000 0.00000 0.75000 1.14100
Zn	Zn	0.00000 0.25000 0.50000 1.13900
Zn	Zn	0.00000 0.75000 0.50000 1.14100
Zn	Zn	0.25000 0.50000 -0.00000 1.13900
Zn	Zn	0.75000 0.50000 -0.00000 1.14100
C 	C 	0.87594 0.48840 0.12406 0.26300
C 	C 	0.90180 0.40690 0.09820 -0.77200
H 	H 	0.87340 0.36740 0.12660 0.22500
C 	C 	0.37594 0.98840 0.62406 0.50200
C 	C 	0.40180 0.90690 0.59820 -1.00900
H 	H 	0.37340 0.86740 0.62660 0.30200
C 	C 	0.12406 0.51160 0.12406 0.20000
C 	C 	0.09820 0.59310 0.09820 -0.62600
H 	H 	0.12660 0.63260 0.12660 0.16900
C 	C 	0.62406 0.01160 0.62406 0.03200
C 	C 	0.59820 0.09310 0.59820 -0.55600
H 	H 	0.62660 0.13260 0.62660 0.16000
C 	C 	0.12406 0.48840 0.87594 0.26300
C 	C 	0.09820 0.40690 0.90180 -0.77200
H 	H 	0.12660 0.36740 0.87340 0.22500
C 	C 	0.62406 0.98840 0.37594 0.50200
C 	C 	0.59820 0.90690 0.40180 -1.00900
H 	H 	0.62660 0.86740 0.37340 0.30200
C 	C 	0.87594 0.51160 0.87594 0.33800
C 	C 	0.90180 0.59310 0.90180 -0.96000
H 	H 	0.87340 0.63260 0.87340 0.30700
C 	C 	0.37594 0.01160 0.37594 0.02900
C 	C 	0.40180 0.09310 0.40180 -0.55300
H 	H 	0.37340 0.13260 0.37340 0.15800
C 	C 	0.12406 0.87594 0.48840 0.26300
C 	C 	0.09820 0.90180 0.40690 -0.77200
H 	H 	0.12660 0.87340 0.36740 0.22500
C 	C 	0.62406 0.37594 0.98840 0.50200
C 	C 	0.59820 0.40180 0.90690 -1.00900
H 	H 	0.62660 0.37340 0.86740 0.30200
C 	C 	0.12406 0.12406 0.51160 0.20000
C 	C 	0.09820 0.09820 0.59310 -0.62600
H 	H 	0.12660 0.12660 0.63260 0.16900
C 	C 	0.62406 0.62406 0.01160 0.03200
C 	C 	0.59820 0.59820 0.09310 -0.55600
H 	H 	0.62660 0.62660 0.13260 0.16000
C 	C 	0.87594 0.12406 0.48840 0.26300
C 	C 	0.90180 0.09820 0.40690 -0.77200
H 	H 	0.87340 0.12660 0.36740 0.22500
C 	C 	0.37594 0.62406 0.98840 0.50200
C 	C 	0.40180 0.59820 0.90690 -1.00900
H 	H 	0.37340 0.62660 0.86740 0.30200
C 	C 	0.87594 0.87594 0.51160 0.33800
C 	C 	0.90180 0.90180 0.59310 -0.96000
H 	H 	0.87340 0.87340 0.63260 0.30700
C 	C 	0.37594 0.37594 0.01160 0.02900
C 	C 	0.40180 0.40180 0.09310 -0.55300
H 	H 	0.37340 0.37340 0.13260 0.15800
C 	C 	0.48840 0.12406 0.87594 0.26300
C 	C 	0.40690 0.09820 0.90180 -0.77200
H 	H 	0.36740 0.12660 0.87340 0.22500
C 	C 	0.98840 0.62406 0.37594 0.50200
C 	C 	0.90690 0.59820 0.40180 -1.00900
H 	H 	0.86740 0.62660 0.37340 0.30200
C 	C 	0.51160 0.12406 0.12406 0.20000
C 	C 	0.59310 0.09820 0.09820 -0.62600
H 	H 	0.63260 0.12660 0.12660 0.16900
C 	C 	0.01160 0.62406 0.62406 0.03200
C 	C 	0.09310 0.59820 0.59820 -0.55600
H 	H 	0.13260 0.62660 0.62660 0.16000
C 	C 	0.48840 0.87594 0.12406 0.26300
C 	C 	0.40690 0.90180 0.09820 -0.77200
H 	H 	0.36740 0.87340 0.12660 0.22500
C 	C 	0.98840 0.37594 0.62406 0.50200
C 	C 	0.90690 0.40180 0.59820 -1.00900
H 	H 	0.86740 0.37340 0.62660 0.30200
C 	C 	0.51160 0.87594 0.87594 0.33800
C 	C 	0.59310 0.90180 0.90180 -0.96000
H 	H 	0.63260 0.87340 0.87340 0.30700
C 	C 	0.01160 0.37594 0.37594 0.02900
C 	C 	0.09310 0.40180 0.40180 -0.55300
H 	H 	0.13260 0.37340 0.37340 0.15800
