data_crystal

_cell_length_a 16.98390
_cell_length_b 16.98390
_cell_length_c 16.98390
_cell_angle_alpha 90.00000
_cell_angle_beta  90.00000
_cell_angle_gamma 90.00000

_symmetry_space_group_name_	'P 1'
_symmetry_space_group_name_H-M	'P 1'

loop_
_symmetry_equiv_pos_as_xyz
  x,y,z

loop_
_atom_site_label
_atom_site_type_symbol
_atom_site_fract_x
_atom_site_fract_y
_atom_site_fract_z
_atom_site_charge
Mn	Mn	0.60214 0.89786 0.10214 1.14000
Mn	Mn	0.89786 0.10214 0.60214 1.14000
Mn	Mn	0.39786 0.39786 0.39786 1.14100
Mn	Mn	0.10214 0.60214 0.89786 1.14000
Mn	Mn	0.39786 0.10214 0.89786 1.14000
Mn	Mn	0.10214 0.89786 0.39786 1.14000
Mn	Mn	0.60214 0.60214 0.60214 1.14100
Mn	Mn	0.89786 0.39786 0.10214 1.14000
Re	Re	0.54032 0.97159 0.40200 0.28800
Re	Re	0.95968 0.02841 0.90200 0.28800
Re	Re	0.45968 0.47159 0.09800 0.28900
Re	Re	0.04032 0.52841 0.59800 0.28800
Re	Re	0.40200 0.54032 0.97159 0.28800
Re	Re	0.90200 0.95968 0.02841 0.28800
Re	Re	0.09800 0.45968 0.47159 0.28900
Re	Re	0.59800 0.04032 0.52841 0.28800
Re	Re	0.97159 0.40200 0.54032 0.28800
Re	Re	0.02841 0.90200 0.95968 0.28800
Re	Re	0.47159 0.09800 0.45968 0.28900
Re	Re	0.52841 0.59800 0.04032 0.28800
Re	Re	0.45968 0.02841 0.59800 0.28800
Re	Re	0.04032 0.97159 0.09800 0.28800
Re	Re	0.54032 0.52841 0.90200 0.28900
Re	Re	0.95968 0.47159 0.40200 0.28800
Re	Re	0.59800 0.45968 0.02841 0.28800
Re	Re	0.09800 0.04032 0.97159 0.28800
Re	Re	0.90200 0.54032 0.52841 0.28900
Re	Re	0.40200 0.95968 0.47159 0.28800
Re	Re	0.02841 0.59800 0.45968 0.28800
Re	Re	0.97159 0.09800 0.04032 0.28800
Re	Re	0.52841 0.90200 0.54032 0.28900
Re	Re	0.47159 0.40200 0.95968 0.28800
C 	C 	0.58650 0.93900 0.29000 -0.05800
C 	C 	0.91350 0.06100 0.79000 -0.05800
C 	C 	0.41350 0.43900 0.21000 -0.05800
C 	C 	0.08650 0.56100 0.71000 -0.05800
C 	C 	0.29000 0.58650 0.93900 -0.05800
C 	C 	0.79000 0.91350 0.06100 -0.05800
C 	C 	0.21000 0.41350 0.43900 -0.05800
C 	C 	0.71000 0.08650 0.56100 -0.05800
C 	C 	0.93900 0.29000 0.58650 -0.05800
C 	C 	0.06100 0.79000 0.91350 -0.05800
C 	C 	0.43900 0.21000 0.41350 -0.05800
C 	C 	0.56100 0.71000 0.08650 -0.05800
C 	C 	0.41350 0.06100 0.71000 -0.05800
C 	C 	0.08650 0.93900 0.21000 -0.05800
C 	C 	0.58650 0.56100 0.79000 -0.05800
C 	C 	0.91350 0.43900 0.29000 -0.05800
C 	C 	0.71000 0.41350 0.06100 -0.05800
C 	C 	0.21000 0.08650 0.93900 -0.05800
C 	C 	0.79000 0.58650 0.56100 -0.05800
C 	C 	0.29000 0.91350 0.43900 -0.05800
C 	C 	0.06100 0.71000 0.41350 -0.05800
C 	C 	0.93900 0.21000 0.08650 -0.05800
C 	C 	0.56100 0.79000 0.58650 -0.05800
C 	C 	0.43900 0.29000 0.91350 -0.05800
Se	Se	0.41710 0.02765 0.34108 -0.25000
Se	Se	0.08290 0.97235 0.84108 -0.25100
Se	Se	0.58290 0.52765 0.15892 -0.25200
Se	Se	0.91710 0.47235 0.65892 -0.25100
Se	Se	0.34108 0.41710 0.02765 -0.25000
Se	Se	0.84108 0.08290 0.97235 -0.25100
Se	Se	0.15892 0.58290 0.52765 -0.25200
Se	Se	0.65892 0.91710 0.47235 -0.25100
Se	Se	0.02765 0.34108 0.41710 -0.25000
Se	Se	0.97235 0.84108 0.08290 -0.25100
Se	Se	0.52765 0.15892 0.58290 -0.25200
Se	Se	0.47235 0.65892 0.91710 -0.25100
Se	Se	0.58290 0.97235 0.65892 -0.25000
Se	Se	0.91710 0.02765 0.15892 -0.25100
Se	Se	0.41710 0.47235 0.84108 -0.25200
Se	Se	0.08290 0.52765 0.34108 -0.25100
Se	Se	0.65892 0.58290 0.97235 -0.25000
Se	Se	0.15892 0.91710 0.02765 -0.25100
Se	Se	0.84108 0.41710 0.47235 -0.25200
Se	Se	0.34108 0.08290 0.52765 -0.25100
Se	Se	0.97235 0.65892 0.58290 -0.25000
Se	Se	0.02765 0.15892 0.91710 -0.25100
Se	Se	0.47235 0.84108 0.41710 -0.25200
Se	Se	0.52765 0.34108 0.08290 -0.25100
Se	Se	0.60519 0.10519 0.39481 -0.24100
Se	Se	0.89481 0.89481 0.89481 -0.23500
Se	Se	0.39481 0.60519 0.10519 -0.24100
Se	Se	0.10519 0.39481 0.60519 -0.24100
Se	Se	0.39481 0.89481 0.60519 -0.24100
Se	Se	0.10519 0.10519 0.10519 -0.23500
Se	Se	0.60519 0.39481 0.89481 -0.24100
Se	Se	0.89481 0.60519 0.39481 -0.24100
N 	N 	0.60910 0.91980 0.23070 -0.27900
N 	N 	0.89090 0.08020 0.73070 -0.28000
N 	N 	0.39090 0.41980 0.26930 -0.27900
N 	N 	0.10910 0.58020 0.76930 -0.28000
N 	N 	0.23070 0.60910 0.91980 -0.27900
N 	N 	0.73070 0.89090 0.08020 -0.28000
N 	N 	0.26930 0.39090 0.41980 -0.27900
N 	N 	0.76930 0.10910 0.58020 -0.28000
N 	N 	0.91980 0.23070 0.60910 -0.27900
N 	N 	0.08020 0.73070 0.89090 -0.28000
N 	N 	0.41980 0.26930 0.39090 -0.27900
N 	N 	0.58020 0.76930 0.10910 -0.28000
N 	N 	0.39090 0.08020 0.76930 -0.27900
N 	N 	0.10910 0.91980 0.26930 -0.28000
N 	N 	0.60910 0.58020 0.73070 -0.27900
N 	N 	0.89090 0.41980 0.23070 -0.28000
N 	N 	0.76930 0.39090 0.08020 -0.27900
N 	N 	0.26930 0.10910 0.91980 -0.28000
N 	N 	0.73070 0.60910 0.58020 -0.27900
N 	N 	0.23070 0.89090 0.41980 -0.28000
N 	N 	0.08020 0.76930 0.39090 -0.27900
N 	N 	0.91980 0.26930 0.10910 -0.28000
N 	N 	0.58020 0.73070 0.60910 -0.27900
N 	N 	0.41980 0.23070 0.89090 -0.28000
