data_crystal

_cell_length_a 9.12650
_cell_length_b 9.12650
_cell_length_c 14.40020
_cell_angle_alpha 100.23500
_cell_angle_beta  100.23500
_cell_angle_gamma 116.05800

_symmetry_space_group_name_	'P 1'
_symmetry_space_group_name_H-M	'P 1'

loop_
_symmetry_equiv_pos_as_xyz
  x,y,z

loop_
_atom_site_label
_atom_site_type_symbol
_atom_site_fract_x
_atom_site_fract_y
_atom_site_fract_z
_atom_site_charge
Tb	Tb	0.74070 0.99070 0.98140 1.78100
Tb	Tb	0.50930 0.75930 0.51860 1.79500
Tb	Tb	0.25930 0.00930 0.01860 1.78100
Tb	Tb	0.49070 0.24070 0.48140 1.79500
H 	H 	0.88260 0.45700 0.06800 0.08300
H 	H 	0.68540 0.61100 0.06800 0.08300
H 	H 	0.04300 0.61740 0.43200 0.08200
H 	H 	0.88900 0.81460 0.43200 0.08400
H 	H 	0.11740 0.54300 0.93200 0.08300
H 	H 	0.31460 0.38900 0.93200 0.08300
H 	H 	0.95700 0.38260 0.56800 0.08200
H 	H 	0.11100 0.18540 0.56800 0.08400
C 	C 	0.62564 0.30204 0.05808 0.42900
C 	C 	0.78146 0.46066 0.06412 -0.15500
C 	C 	0.93244 0.75604 0.05808 0.42600
C 	C 	0.78266 0.60346 0.06412 -0.15200
C 	C 	0.19796 0.87436 0.44192 0.43300
C 	C 	0.03934 0.71854 0.43588 -0.15100
C 	C 	0.74396 0.56756 0.44192 0.43000
C 	C 	0.89654 0.71734 0.43588 -0.15800
C 	C 	0.37436 0.69796 0.94192 0.42900
C 	C 	0.21854 0.53934 0.93588 -0.15500
C 	C 	0.06756 0.24396 0.94192 0.42600
C 	C 	0.21734 0.39654 0.93588 -0.15200
C 	C 	0.80204 0.12564 0.55808 0.43300
C 	C 	0.96066 0.28146 0.56412 -0.15100
C 	C 	0.25604 0.43244 0.55808 0.43000
C 	C 	0.10346 0.28266 0.56412 -0.15800
C 	C 	0.67490 0.82510 0.75000 0.27200
C 	C 	0.57510 0.92490 0.75000 0.27100
C 	C 	0.32510 0.17490 0.25000 0.27200
C 	C 	0.42490 0.07510 0.25000 0.27100
O 	O 	0.63083 0.16741 0.03344 -0.54900
O 	O 	0.49570 0.30340 0.07590 -0.44200
O 	O 	0.76169 0.83953 0.83182 -0.39800
O 	O 	0.90261 0.86603 0.03344 -0.54500
O 	O 	0.08020 0.77250 0.07590 -0.43800
O 	O 	0.57013 0.99229 0.83182 -0.39600
O 	O 	0.33259 0.86917 0.46656 -0.55100
O 	O 	0.19660 0.00430 0.42410 -0.44500
O 	O 	0.66047 0.73831 0.66818 -0.39700
O 	O 	0.63397 0.59739 0.46656 -0.55200
O 	O 	0.72750 0.41980 0.42410 -0.44400
O 	O 	0.50771 0.92987 0.66818 -0.39600
O 	O 	0.36917 0.83259 0.96656 -0.54900
O 	O 	0.50430 0.69660 0.92410 -0.44200
O 	O 	0.23831 0.16047 0.16818 -0.39800
O 	O 	0.09739 0.13397 0.96656 -0.54500
O 	O 	0.91980 0.22750 0.92410 -0.43800
O 	O 	0.42987 0.00771 0.16818 -0.39600
O 	O 	0.66741 0.13083 0.53344 -0.55100
O 	O 	0.80340 0.99570 0.57590 -0.44500
O 	O 	0.33953 0.26169 0.33182 -0.39700
O 	O 	0.36603 0.40261 0.53344 -0.55200
O 	O 	0.27250 0.58020 0.57590 -0.44400
O 	O 	0.49229 0.07013 0.33182 -0.39600
