data_crystal

_cell_length_a 9.11760
_cell_length_b 9.11760
_cell_length_c 14.54240
_cell_angle_alpha 79.78650
_cell_angle_beta  79.78640
_cell_angle_gamma 115.74500

_symmetry_space_group_name_	'P 1'
_symmetry_space_group_name_H-M	'P 1'

loop_
_symmetry_equiv_pos_as_xyz
  x,y,z

loop_
_atom_site_label
_atom_site_type_symbol
_atom_site_fract_x
_atom_site_fract_y
_atom_site_fract_z
_atom_site_charge
Eu	Eu	0.99051 0.24051 0.01898 1.83100
Eu	Eu	0.75949 0.00949 0.48102 1.85500
Eu	Eu	0.00949 0.75949 0.98102 1.83100
Eu	Eu	0.24051 0.99051 0.51898 1.85500
H 	H 	0.61420 0.18980 0.93340 0.08000
H 	H 	0.45240 0.37680 0.93340 0.08200
H 	H 	0.81020 0.38580 0.56660 0.07900
H 	H 	0.62320 0.54760 0.56660 0.08100
H 	H 	0.38580 0.81020 0.06660 0.08000
H 	H 	0.54760 0.62320 0.06660 0.08200
H 	H 	0.18980 0.61420 0.43340 0.07900
H 	H 	0.37680 0.45240 0.43340 0.08100
C 	C 	0.75403 0.43563 0.94154 0.42000
C 	C 	0.60340 0.28580 0.93660 -0.14700
C 	C 	0.30443 0.12283 0.94154 0.43700
C 	C 	0.46000 0.27760 0.93660 -0.16000
C 	C 	0.56437 0.24597 0.55846 0.42300
C 	C 	0.71420 0.39660 0.56340 -0.15100
C 	C 	0.87717 0.69557 0.55846 0.43300
C 	C 	0.72240 0.54000 0.56340 -0.15800
C 	C 	0.24597 0.56437 0.05846 0.42000
C 	C 	0.39660 0.71420 0.06340 -0.14700
C 	C 	0.69557 0.87717 0.05846 0.43700
C 	C 	0.54000 0.72240 0.06340 -0.16000
C 	C 	0.43563 0.75403 0.44154 0.42300
C 	C 	0.28580 0.60340 0.43660 -0.15100
C 	C 	0.12283 0.30443 0.44154 0.43300
C 	C 	0.27760 0.46000 0.43660 -0.15800
C 	C 	0.92460 0.07540 0.25000 0.27000
C 	C 	0.82540 0.17460 0.25000 0.26700
C 	C 	0.07540 0.92460 0.75000 0.27000
C 	C 	0.17460 0.82540 0.75000 0.26700
O 	O 	0.86595 0.40875 0.96710 -0.54900
O 	O 	0.76767 0.58167 0.92426 -0.43900
O 	O 	0.99120 0.06880 0.16920 -0.41100
O 	O 	0.16695 0.12415 0.96710 -0.55400
O 	O 	0.30807 0.99407 0.92426 -0.45700
O 	O 	0.83960 0.26200 0.16920 -0.40300
O 	O 	0.59125 0.13405 0.53290 -0.55900
O 	O 	0.41833 0.23233 0.57574 -0.44400
O 	O 	0.93120 0.00880 0.33080 -0.41200
O 	O 	0.87585 0.83305 0.53290 -0.55600
O 	O 	0.00593 0.69193 0.57574 -0.45400
O 	O 	0.73800 0.16040 0.33080 -0.40400
O 	O 	0.13405 0.59125 0.03290 -0.54900
O 	O 	0.23233 0.41833 0.07574 -0.43900
O 	O 	0.00880 0.93120 0.83080 -0.41100
O 	O 	0.83305 0.87585 0.03290 -0.55400
O 	O 	0.69193 0.00593 0.07574 -0.45700
O 	O 	0.16040 0.73800 0.83080 -0.40300
O 	O 	0.40875 0.86595 0.46710 -0.55900
O 	O 	0.58167 0.76767 0.42426 -0.44400
O 	O 	0.06880 0.99120 0.66920 -0.41200
O 	O 	0.12415 0.16695 0.46710 -0.55600
O 	O 	0.99407 0.30807 0.42426 -0.45400
O 	O 	0.26200 0.83960 0.66920 -0.40400
