data_crystal

_cell_length_a 14.84000
_cell_length_b 14.90700
_cell_length_c 22.11800
_cell_angle_alpha 88.76700
_cell_angle_beta  87.16900
_cell_angle_gamma 75.79600

_symmetry_space_group_name_	'P 1'
_symmetry_space_group_name_H-M	'P 1'

loop_
_symmetry_equiv_pos_as_xyz
  x,y,z

loop_
_atom_site_label
_atom_site_type_symbol
_atom_site_fract_x
_atom_site_fract_y
_atom_site_fract_z
_atom_site_charge
Co	Co	0.27730 0.75250 0.98040 1.13200
Co	Co	0.72270 0.24750 0.01960 1.13300
Co	Co	0.50000 0.00000 0.50000 1.16400
Co	Co	0.00000 0.50000 0.50000 1.15300
As	As	0.21770 0.12220 0.77420 0.60400
As	As	0.25090 0.37140 0.77510 0.60900
As	As	0.78230 0.87780 0.22580 0.60500
As	As	0.74910 0.62860 0.22490 0.60900
H 	H 	0.26870 0.67630 0.12270 -0.02800
H 	H 	0.44090 0.55610 0.99450 0.00100
H 	H 	0.41110 0.49160 0.19570 0.05400
H 	H 	0.32810 0.45510 0.17260 0.04700
H 	H 	0.41170 0.69120 0.85640 0.02300
H 	H 	0.44350 0.86000 0.97820 -0.04000
H 	H 	0.60450 0.88320 0.86470 0.04300
H 	H 	0.58160 0.91250 0.93240 0.02800
H 	H 	0.68590 0.77500 0.96410 0.03800
H 	H 	0.73750 0.83480 0.92280 0.05100
H 	H 	0.14750 0.95670 0.01130 -0.02400
H 	H 	0.23200 0.46370 0.50260 0.02700
H 	H 	0.05860 0.63200 0.38800 -0.01100
H 	H 	0.42290 0.21310 0.27760 0.03200
H 	H 	0.42420 0.31110 0.30230 0.02800
H 	H 	0.26810 0.33400 0.33460 0.07300
H 	H 	0.28080 0.32190 0.26420 0.04300
H 	H 	0.26700 0.17350 0.34230 0.08100
H 	H 	0.26470 0.17250 0.27170 0.05100
H 	H 	0.73460 0.73810 0.84090 0.07400
H 	H 	0.68460 0.67780 0.88290 0.07000
H 	H 	0.83360 0.60070 0.87210 0.02400
H 	H 	0.81780 0.63590 0.93900 0.01400
H 	H 	0.97320 0.67700 0.96020 -0.03700
H 	H 	0.11380 0.18880 0.30610 0.02200
H 	H 	0.11750 0.28780 0.28110 0.02700
H 	H 	0.18450 0.65530 0.30320 0.00400
H 	H 	0.28060 0.65410 0.33020 0.01600
H 	H 	0.34480 0.51320 0.29700 0.06100
H 	H 	0.24760 0.49190 0.28770 0.06300
H 	H 	0.34110 0.93010 0.19090 0.00500
H 	H 	0.27970 0.03010 0.17910 0.00500
H 	H 	0.14980 0.99100 0.22330 0.07300
H 	H 	0.20500 0.88720 0.23000 0.05700
H 	H 	0.99420 0.82270 0.80950 -0.00000
H 	H 	0.19050 0.01460 0.31480 0.01200
H 	H 	0.29300 0.00110 0.28840 0.00900
H 	H 	0.21580 0.86610 0.33900 0.04400
H 	H 	0.31520 0.84520 0.30600 0.03300
H 	H 	0.30130 0.63560 0.21890 0.02500
H 	H 	0.22150 0.58860 0.20380 0.02500
H 	H 	0.33970 0.81220 0.11080 -0.02100
H 	H 	0.12230 0.27650 0.51780 0.00800
H 	H 	0.03490 0.41530 0.36280 -0.00600
H 	H 	0.40090 0.22480 0.51430 -0.00100
H 	H 	0.48450 0.07940 0.35950 -0.00700
H 	H 	0.28040 0.01690 0.51260 0.01100
H 	H 	0.45470 0.88340 0.37760 0.00900
H 	H 	0.73130 0.32370 0.87730 -0.02700
H 	H 	0.55910 0.44390 0.00550 -0.00200
H 	H 	0.58890 0.50840 0.80430 0.05400
H 	H 	0.67190 0.54490 0.82740 0.04800
H 	H 	0.58830 0.30880 0.14360 0.02300
H 	H 	0.55650 0.14000 0.02180 -0.04400
H 	H 	0.39550 0.11680 0.13530 0.03800
H 	H 	0.41840 0.08750 0.06760 0.01900
H 	H 	0.31410 0.22500 0.03590 0.03800
H 	H 	0.26250 0.16520 0.07720 0.04800
H 	H 	0.85250 0.04330 0.98870 -0.02300
H 	H 	0.76800 0.53630 0.49740 0.02800
H 	H 	0.94140 0.36800 0.61200 0.00700
H 	H 	0.57710 0.78690 0.72240 0.03200
H 	H 	0.57580 0.68890 0.69770 0.02700
H 	H 	0.73190 0.66600 0.66540 0.07500
H 	H 	0.71920 0.67810 0.73580 0.04600
H 	H 	0.73300 0.82650 0.65770 0.08100
H 	H 	0.73530 0.82750 0.72830 0.04800
H 	H 	0.26540 0.26190 0.15910 0.07200
H 	H 	0.31540 0.32220 0.11710 0.06900
H 	H 	0.16640 0.39930 0.12790 0.01500
H 	H 	0.18220 0.36410 0.06100 0.01100
H 	H 	0.02680 0.32300 0.03980 -0.02700
H 	H 	0.88620 0.81120 0.69390 0.03200
H 	H 	0.88250 0.71220 0.71890 0.03700
H 	H 	0.81550 0.34470 0.69680 0.01100
H 	H 	0.71940 0.34590 0.66980 0.01900
H 	H 	0.65520 0.48680 0.70300 0.06000
H 	H 	0.75240 0.50810 0.71230 0.06500
H 	H 	0.65890 0.06990 0.80910 0.04600
H 	H 	0.72030 0.96990 0.82090 0.06800
H 	H 	0.85020 0.00900 0.77670 0.01100
H 	H 	0.79500 0.11280 0.77000 0.00500
H 	H 	0.00580 0.17730 0.19050 -0.00400
H 	H 	0.80950 0.98540 0.68520 0.12900
H 	H 	0.70700 0.99890 0.71160 0.12100
H 	H 	0.78420 0.13390 0.66100 -0.00800
H 	H 	0.68480 0.15480 0.69400 -0.02300
H 	H 	0.69870 0.36440 0.78110 0.02700
H 	H 	0.77850 0.41140 0.79620 0.03000
H 	H 	0.66030 0.18780 0.88920 -0.01600
H 	H 	0.87770 0.72350 0.48220 0.01100
H 	H 	0.96510 0.58470 0.63720 0.01100
H 	H 	0.59910 0.77520 0.48570 -0.00100
H 	H 	0.51550 0.92060 0.64050 -0.00000
H 	H 	0.71960 0.98310 0.48740 0.04800
H 	H 	0.54530 0.11660 0.62240 0.00600
W 	W 	0.20306 0.92224 0.85882 1.32600
W 	W 	0.49543 0.27698 0.77457 1.03400
W 	W 	0.12031 0.40288 0.91245 1.05500
W 	W 	0.09113 0.15820 0.91295 1.01000
W 	W 	0.46040 0.03450 0.77106 1.01500
W 	W 	0.16235 0.60843 0.72927 1.01800
W 	W 	0.39582 0.52510 0.73124 1.01700
W 	W 	0.26704 0.56490 0.86205 1.29200
W 	W 	0.34906 0.08018 0.90664 0.87500
W 	W 	0.37826 0.32433 0.90797 1.02600
W 	W 	0.07499 0.97269 0.73534 1.03800
W 	W 	0.14185 0.40874 0.63571 1.36500
W 	W 	0.00737 0.45967 0.78268 1.01000
W 	W 	0.09982 0.16937 0.63708 1.04400
W 	W 	0.30785 0.88989 0.72058 1.01800
W 	W 	0.37383 0.33652 0.63194 1.09400
W 	W 	0.33220 0.09784 0.63016 1.34400
W 	W 	0.97388 0.21709 0.78647 1.09300
W 	W 	0.79694 0.07776 0.14118 1.30000
W 	W 	0.50457 0.72302 0.22543 1.03300
W 	W 	0.87969 0.59712 0.08755 1.07000
W 	W 	0.90887 0.84180 0.08705 1.05800
W 	W 	0.53960 0.96550 0.22894 1.05100
W 	W 	0.83765 0.39157 0.27073 1.03600
W 	W 	0.60418 0.47490 0.26876 1.01700
W 	W 	0.73296 0.43510 0.13795 1.29300
W 	W 	0.65094 0.91982 0.09336 0.89600
W 	W 	0.62174 0.67567 0.09203 1.02700
W 	W 	0.92501 0.02731 0.26466 1.00600
W 	W 	0.85815 0.59126 0.36429 1.37100
W 	W 	0.99263 0.54033 0.21732 1.06900
W 	W 	0.90018 0.83063 0.36292 1.05900
W 	W 	0.69215 0.11011 0.27942 1.01100
W 	W 	0.62617 0.66348 0.36806 1.09500
W 	W 	0.66780 0.90216 0.36984 1.36200
W 	W 	0.02612 0.78291 0.21353 1.01000
C 	C 	0.31200 0.63500 0.09900 0.09200
C 	C 	0.40600 0.56800 0.03100 0.07700
C 	C 	0.35100 0.51000 0.17800 -0.07500
C 	C 	0.43500 0.73100 0.87900 0.08300
C 	C 	0.45500 0.82100 0.94500 0.11700
C 	C 	0.59800 0.86000 0.90600 -0.03100
C 	C 	0.69200 0.79800 0.92300 -0.08400
C 	C 	0.18800 0.94000 0.04300 0.07700
C 	C 	0.21000 0.50200 0.46990 0.05500
C 	C 	0.11200 0.59700 0.40520 0.05400
C 	C 	0.39600 0.25900 0.30800 -0.04000
C 	C 	0.29400 0.29000 0.30300 -0.09300
C 	C 	0.24600 0.21100 0.30700 -0.10900
C 	C 	0.73000 0.71500 0.88200 -0.13400
C 	C 	0.82000 0.65600 0.89700 0.00100
C 	C 	0.96400 0.70400 0.92200 0.15400
C 	C 	0.14100 0.24100 0.31200 -0.03000
C 	C 	0.23700 0.61700 0.32300 0.00300
C 	C 	0.28200 0.54000 0.28500 -0.15000
C 	C 	0.27900 0.96500 0.18100 0.03700
C 	C 	0.21000 0.95100 0.23100 -0.17700
C 	C 	0.97600 0.78200 0.83700 0.13500
C 	C 	0.24200 0.97200 0.29400 0.00000
C 	C 	0.26900 0.89100 0.32830 -0.08500
C 	C 	0.28300 0.57700 0.21900 -0.06200
C 	C 	0.29400 0.86100 0.09600 0.09800
C 	C 	0.11300 0.29100 0.47710 0.06100
C 	C 	0.06300 0.36900 0.38950 0.05500
C 	C 	0.41100 0.20900 0.47360 0.06700
C 	C 	0.45800 0.12700 0.38610 0.05900
C 	C 	0.30300 0.98600 0.47660 0.07600
C 	C 	0.40100 0.91100 0.40030 0.05300
C 	C 	0.68800 0.36500 0.90100 0.09400
C 	C 	0.59400 0.43200 0.96900 0.08000
C 	C 	0.64900 0.49000 0.82200 -0.07200
C 	C 	0.56500 0.26900 0.12100 0.08200
C 	C 	0.54500 0.17900 0.05500 0.11700
C 	C 	0.40200 0.14000 0.09400 -0.02600
C 	C 	0.30800 0.20200 0.07700 -0.08500
C 	C 	0.81200 0.06000 0.95700 0.07600
C 	C 	0.79000 0.49800 0.53010 0.05700
C 	C 	0.88800 0.40300 0.59480 0.05800
C 	C 	0.60400 0.74100 0.69200 -0.03800
C 	C 	0.70600 0.71000 0.69700 -0.09700
C 	C 	0.75400 0.78900 0.69300 -0.10400
C 	C 	0.27000 0.28500 0.11800 -0.13300
C 	C 	0.18000 0.34400 0.10300 -0.00200
C 	C 	0.03600 0.29600 0.07800 0.08300
C 	C 	0.85900 0.75900 0.68800 -0.03700
C 	C 	0.76300 0.38300 0.67700 -0.00100
C 	C 	0.71800 0.46000 0.71500 -0.14600
C 	C 	0.72100 0.03500 0.81900 -0.11400
C 	C 	0.79000 0.04900 0.76900 0.01800
C 	C 	0.02400 0.21800 0.16300 0.08000
C 	C 	0.75800 0.02800 0.70600 -0.30900
C 	C 	0.73100 0.10900 0.67170 0.09800
C 	C 	0.71700 0.42300 0.78100 -0.06600
C 	C 	0.70600 0.13900 0.90400 0.08800
C 	C 	0.88700 0.70900 0.52290 0.06900
C 	C 	0.93700 0.63100 0.61050 0.06100
C 	C 	0.58900 0.79100 0.52640 0.06700
C 	C 	0.54200 0.87300 0.61390 0.06100
C 	C 	0.69700 0.01400 0.52340 0.02500
C 	C 	0.59900 0.08900 0.59970 0.05500
N 	N 	0.26520 0.52700 0.42130 -0.09100
N 	N 	0.20500 0.58600 0.38130 -0.09900
N 	N 	0.11500 0.54500 0.46000 -0.22000
N 	N 	0.33100 0.65000 0.03900 -0.26500
N 	N 	0.25600 0.86200 0.04400 -0.26300
N 	N 	0.06100 0.37600 0.45360 -0.22400
N 	N 	0.14800 0.23110 0.42770 -0.08800
N 	N 	0.11700 0.28000 0.37350 -0.09400
N 	N 	0.39900 0.76800 0.93400 -0.25300
N 	N 	0.45800 0.12100 0.45030 -0.22700
N 	N 	0.38300 0.26960 0.42380 -0.08900
N 	N 	0.41200 0.21900 0.36970 -0.09300
N 	N 	0.39800 0.95300 0.45770 -0.22100
N 	N 	0.24730 0.96500 0.43090 -0.09100
N 	N 	0.30800 0.91900 0.38370 -0.08500
N 	N 	0.35900 0.55700 0.11700 -0.09400
N 	N 	0.42000 0.51400 0.07600 -0.09900
N 	N 	0.52600 0.81600 0.90800 -0.10400
N 	N 	0.51300 0.76500 0.86400 -0.09100
N 	N 	0.25700 0.93700 0.12400 -0.11700
N 	N 	0.89500 0.70300 0.88700 -0.11100
N 	N 	0.91200 0.74100 0.83400 -0.11000
N 	N 	0.01400 0.74900 0.89400 -0.17000
N 	N 	0.18300 0.99300 0.09300 -0.10100
N 	N 	0.73480 0.47300 0.57870 -0.09000
N 	N 	0.79500 0.41400 0.61870 -0.09600
N 	N 	0.88500 0.45500 0.54000 -0.21100
N 	N 	0.66900 0.35000 0.96100 -0.26400
N 	N 	0.74400 0.13800 0.95600 -0.26000
N 	N 	0.93900 0.62400 0.54640 -0.21400
N 	N 	0.85200 0.76890 0.57230 -0.08400
N 	N 	0.88300 0.72000 0.62650 -0.09000
N 	N 	0.60100 0.23200 0.06600 -0.25300
N 	N 	0.54200 0.87900 0.54970 -0.22200
N 	N 	0.61700 0.73040 0.57620 -0.08900
N 	N 	0.58800 0.78100 0.63030 -0.09300
N 	N 	0.60200 0.04700 0.54230 -0.22000
N 	N 	0.75270 0.03500 0.56910 -0.08700
N 	N 	0.69200 0.08100 0.61630 -0.11100
N 	N 	0.64100 0.44300 0.88300 -0.09400
N 	N 	0.58000 0.48600 0.92400 -0.09900
N 	N 	0.47400 0.18400 0.09200 -0.10600
N 	N 	0.48700 0.23500 0.13600 -0.09100
N 	N 	0.74300 0.06300 0.87600 -0.09500
N 	N 	0.10500 0.29700 0.11300 -0.10400
N 	N 	0.08800 0.25900 0.16600 -0.10800
N 	N 	0.98600 0.25100 0.10600 -0.11100
N 	N 	0.81700 0.00700 0.90700 -0.10600
O 	O 	0.07300 0.45700 0.57740 -0.56200
O 	O 	0.24600 0.34100 0.92200 -0.43800
O 	O 	0.18400 0.88500 0.70280 -0.44900
O 	O 	0.29200 0.62200 0.71360 -0.43700
O 	O 	0.20500 0.18700 0.91040 -0.35700
O 	O 	0.27600 0.64300 0.91720 -0.51700
O 	O 	0.02400 0.22000 0.70630 -0.47100
O 	O 	0.09500 0.05300 0.66930 -0.46500
O 	O 	0.25000 0.34400 0.70410 -0.37600
O 	O 	0.28200 0.84700 0.80420 -0.45200
O 	O 	0.13300 0.28900 0.62330 -0.46900
O 	O 	0.25900 0.39000 0.59320 -0.46800
O 	O 	0.05500 0.42400 0.70220 -0.48100
O 	O 	0.34100 0.30500 0.81020 -0.34000
O 	O 	0.46300 0.41300 0.76420 -0.44900
O 	O 	0.14700 0.37200 0.81050 -0.34200
O 	O 	0.44600 0.27900 0.69210 -0.46500
O 	O 	0.31300 0.12300 0.80780 -0.33800
O 	O 	0.07000 0.55700 0.76990 -0.44700
O 	O 	0.41900 0.08200 0.69460 -0.46600
O 	O 	0.48900 0.15600 0.78140 -0.44100
O 	O 	0.97800 0.19200 0.87170 -0.43900
O 	O 	0.16000 0.52400 0.66860 -0.47400
O 	O 	0.22200 0.15400 0.70120 -0.37800
O 	O 	0.37400 0.45000 0.66130 -0.47000
O 	O 	0.17400 0.50900 0.89240 -0.47600
O 	O 	0.40200 0.93500 0.75730 -0.42800
O 	O 	0.35200 0.45300 0.88820 -0.46100
O 	O 	0.38500 0.19000 0.90960 -0.41900
O 	O 	0.08500 0.29200 0.91850 -0.42800
O 	O 	0.45200 0.01900 0.85700 -0.42400
O 	O 	0.37400 0.57800 0.80710 -0.44100
O 	O 	0.11700 0.03700 0.88990 -0.50600
O 	O 	0.31400 0.97900 0.65870 -0.45500
O 	O 	0.01300 0.46500 0.86960 -0.44800
O 	O 	0.49300 0.29400 0.85950 -0.43900
O 	O 	0.18900 0.64500 0.80730 -0.44800
O 	O 	0.21400 0.12000 0.59170 -0.45100
O 	O 	0.01000 0.08300 0.76840 -0.47600
O 	O 	0.09700 0.91000 0.81160 -0.44400
O 	O 	0.34000 0.22000 0.61740 -0.46300
O 	O 	0.12600 0.19000 0.81370 -0.33800
O 	O 	0.30600 0.96200 0.87130 -0.44200
O 	O 	0.97900 0.33800 0.79610 -0.43000
O 	O 	0.26400 0.48000 0.77610 -0.41300
O 	O 	0.19300 0.84500 0.91450 -0.54100
O 	O 	0.20200 0.01500 0.77320 -0.42600
O 	O 	0.40600 0.05200 0.57180 -0.56000
O 	O 	0.92700 0.54300 0.42260 -0.54200
O 	O 	0.75400 0.65900 0.07800 -0.44000
O 	O 	0.81600 0.11500 0.29720 -0.44400
O 	O 	0.70800 0.37800 0.28640 -0.43800
O 	O 	0.79500 0.81300 0.08960 -0.36300
O 	O 	0.72400 0.35700 0.08280 -0.51500
O 	O 	0.97600 0.78000 0.29370 -0.43600
O 	O 	0.90500 0.94700 0.33070 -0.44200
O 	O 	0.75000 0.65600 0.29590 -0.37700
O 	O 	0.71800 0.15300 0.19580 -0.44900
O 	O 	0.86700 0.71100 0.37670 -0.46600
O 	O 	0.74100 0.61000 0.40680 -0.46900
O 	O 	0.94500 0.57600 0.29780 -0.47200
O 	O 	0.65900 0.69500 0.18980 -0.34100
O 	O 	0.53700 0.58700 0.23580 -0.44900
O 	O 	0.85300 0.62800 0.18950 -0.34300
O 	O 	0.55400 0.72100 0.30790 -0.46500
O 	O 	0.68700 0.87700 0.19220 -0.33800
O 	O 	0.93000 0.44300 0.23010 -0.44300
O 	O 	0.58100 0.91800 0.30540 -0.46400
O 	O 	0.51100 0.84400 0.21860 -0.44200
O 	O 	0.02200 0.80800 0.12830 -0.46600
O 	O 	0.84000 0.47600 0.33140 -0.47100
O 	O 	0.77800 0.84600 0.29880 -0.37800
O 	O 	0.62600 0.55000 0.33870 -0.47000
O 	O 	0.82600 0.49100 0.10760 -0.47300
O 	O 	0.59800 0.06500 0.24270 -0.44500
O 	O 	0.64800 0.54700 0.11180 -0.46100
O 	O 	0.61500 0.81000 0.09040 -0.42200
O 	O 	0.91500 0.70800 0.08150 -0.42100
O 	O 	0.54800 0.98100 0.14300 -0.41700
O 	O 	0.62600 0.42200 0.19290 -0.44100
O 	O 	0.88300 0.96300 0.11010 -0.48600
O 	O 	0.68600 0.02100 0.34130 -0.47400
O 	O 	0.98700 0.53500 0.13040 -0.43400
O 	O 	0.50700 0.70600 0.14050 -0.43900
O 	O 	0.81100 0.35500 0.19270 -0.44400
O 	O 	0.78600 0.88000 0.40830 -0.44800
O 	O 	0.99000 0.91700 0.23160 -0.42900
O 	O 	0.90300 0.09000 0.18840 -0.43300
O 	O 	0.66000 0.78000 0.38260 -0.46600
O 	O 	0.87400 0.81000 0.18630 -0.32200
O 	O 	0.69400 0.03800 0.12870 -0.45700
O 	O 	0.02100 0.66200 0.20390 -0.46100
O 	O 	0.73600 0.52000 0.22390 -0.41500
O 	O 	0.80700 0.15500 0.08550 -0.53400
O 	O 	0.79800 0.98500 0.22680 -0.40500
O 	O 	0.59400 0.94800 0.42820 -0.55100
