data_crystal

_cell_length_a 14.86800
_cell_length_b 14.94300
_cell_length_c 22.11700
_cell_angle_alpha 88.54300
_cell_angle_beta  86.82200
_cell_angle_gamma 75.61500

_symmetry_space_group_name_	'P 1'
_symmetry_space_group_name_H-M	'P 1'

loop_
_symmetry_equiv_pos_as_xyz
  x,y,z

loop_
_atom_site_label
_atom_site_type_symbol
_atom_site_fract_x
_atom_site_fract_y
_atom_site_fract_z
_atom_site_charge
Co	Co	0.22230 0.74880 0.52030 1.08100
Co	Co	0.77770 0.25120 0.47970 1.08200
Co	Co	0.50000 0.00000 -0.00000 1.13000
Co	Co	-0.00000 0.50000 -0.00000 1.12800
P 	P 	0.28170 0.38020 0.72580 0.55800
P 	P 	0.24820 0.12380 0.72550 0.56800
P 	P 	0.71830 0.61980 0.27420 0.55800
P 	P 	0.75180 0.87620 0.27450 0.56900
H 	H 	0.21790 0.49140 0.21300 0.05000
H 	H 	0.31900 0.49040 0.18880 0.05200
H 	H 	0.43490 0.87140 0.11110 -0.01800
H 	H 	0.91820 0.58870 0.56760 0.01800
H 	H 	0.89490 0.61410 0.63580 0.03500
H 	H 	0.27290 0.02660 0.99840 0.05400
H 	H 	0.63280 0.78010 0.01010 -0.07300
H 	H 	0.17240 0.04580 0.32630 -0.00100
H 	H 	0.08680 0.01150 0.30690 -0.00100
H 	H 	0.76170 0.66020 0.58460 0.08100
H 	H 	0.80900 0.71590 0.53730 0.07000
H 	H 	0.80620 0.79780 0.64630 0.02600
H 	H 	0.66840 0.89560 0.62920 0.05400
H 	H 	0.68170 0.86270 0.56190 0.05300
H 	H 	0.22160 0.84610 0.16840 0.03000
H 	H 	0.31680 0.84640 0.19570 0.02500
H 	H 	0.25140 0.01130 0.21230 0.01800
H 	H 	0.15460 0.99200 0.20020 0.03100
H 	H 	0.27130 0.91120 0.29450 0.05600
H 	H 	0.18740 0.87220 0.27840 0.05300
H 	H 	0.63200 0.74320 0.69640 -0.01000
H 	H 	0.42630 0.74310 0.59430 -0.04200
H 	H 	0.22670 0.48140 0.99170 0.08700
H 	H 	0.28660 0.61670 0.26900 0.03300
H 	H 	0.34710 0.51580 0.27780 0.04800
H 	H 	0.17720 0.65160 0.19070 0.01100
H 	H 	0.27530 0.63810 0.15740 0.02800
H 	H 	0.15890 0.57180 0.30850 0.01500
H 	H 	0.22110 0.47200 0.31870 0.03200
H 	H 	0.35410 0.53960 0.48930 -0.04000
H 	H 	0.92990 0.80470 0.80200 0.03600
H 	H 	0.92530 0.70770 0.77820 0.03800
H 	H 	0.77950 0.82310 0.76430 0.04600
H 	H 	0.76630 0.83400 0.83500 0.07500
H 	H 	0.76070 0.67500 0.76980 0.05000
H 	H 	0.76990 0.66990 0.84020 0.08000
H 	H 	0.60990 0.69330 0.81190 0.03000
H 	H 	0.61430 0.79130 0.78610 0.02700
H 	H 	0.15740 0.68300 0.39130 -0.02700
H 	H 	0.06980 0.94270 0.50810 -0.01100
H 	H 	0.23160 0.82380 0.37780 -0.03400
H 	H 	0.89770 0.72430 0.00420 -0.06200
H 	H 	0.05330 0.64010 0.51870 -0.03100
H 	H 	0.08400 0.81190 0.63930 0.01600
H 	H 	0.97850 0.57950 0.85950 -0.01400
H 	H 	0.53550 0.91180 0.86780 -0.00400
H 	H 	0.05040 0.60240 0.12470 -0.01500
H 	H 	0.78210 0.50860 0.78700 0.05600
H 	H 	0.68100 0.50960 0.81120 0.05800
H 	H 	0.56510 0.12860 0.88890 -0.01600
H 	H 	0.08180 0.41130 0.43240 -0.00300
H 	H 	0.10510 0.38590 0.36420 0.01900
H 	H 	0.72710 0.97340 0.00160 -0.01600
H 	H 	0.36720 0.21990 0.98990 0.04900
H 	H 	0.82760 0.95420 0.67370 0.10800
H 	H 	0.91320 0.98850 0.69310 0.12100
H 	H 	0.23830 0.33980 0.41540 0.08300
H 	H 	0.19100 0.28410 0.46270 0.06900
H 	H 	0.19380 0.20220 0.35370 0.02600
H 	H 	0.33160 0.10440 0.37080 0.04300
H 	H 	0.31830 0.13730 0.43810 0.04500
H 	H 	0.77840 0.15390 0.83160 0.00900
H 	H 	0.68320 0.15360 0.80430 -0.00500
H 	H 	0.74860 0.98870 0.78770 0.11400
H 	H 	0.84540 0.00800 0.79980 0.09700
H 	H 	0.72870 0.08880 0.70550 -0.01400
H 	H 	0.81260 0.12780 0.72160 -0.00500
H 	H 	0.36800 0.25680 0.30360 -0.01100
H 	H 	0.57370 0.25690 0.40570 -0.04200
H 	H 	0.77330 0.51860 0.00830 -0.03500
H 	H 	0.71340 0.38330 0.73100 0.03300
H 	H 	0.65290 0.48420 0.72220 0.04400
H 	H 	0.82280 0.34840 0.80930 0.02300
H 	H 	0.72470 0.36190 0.84260 0.03600
H 	H 	0.84110 0.42820 0.69150 0.03400
H 	H 	0.77890 0.52800 0.68130 0.04000
H 	H 	0.64590 0.46040 0.51070 -0.04000
H 	H 	0.07010 0.19530 0.19800 0.01900
H 	H 	0.07470 0.29230 0.22180 0.02400
H 	H 	0.22050 0.17690 0.23570 0.04700
H 	H 	0.23370 0.16600 0.16500 0.07200
H 	H 	0.23930 0.32500 0.23020 0.04700
H 	H 	0.23010 0.33010 0.15980 0.07500
H 	H 	0.39010 0.30670 0.18810 0.02800
H 	H 	0.38570 0.20870 0.21390 0.02600
H 	H 	0.84260 0.31700 0.60870 -0.01400
H 	H 	0.93020 0.05730 0.49190 -0.00800
H 	H 	0.76840 0.17620 0.62220 -0.02400
H 	H 	0.10230 0.27570 0.99580 0.04900
H 	H 	0.94670 0.35990 0.48130 -0.03500
H 	H 	0.91600 0.18810 0.36070 0.00600
H 	H 	0.02150 0.42050 0.14050 -0.03300
H 	H 	0.46450 0.08820 0.13220 -0.01600
H 	H 	0.94960 0.39760 0.87530 0.00900
W 	W 	0.40549 0.34027 0.58681 1.04200
W 	W 	0.33860 0.88945 0.77041 1.03400
W 	W 	0.12694 0.16183 0.86851 1.07700
W 	W 	0.39981 0.32713 0.86121 1.06100
W 	W 	0.35841 0.08817 0.86281 1.33200
W 	W 	0.03958 0.46337 0.73072 1.03400
W 	W 	0.42404 0.52438 0.76398 1.04000
W 	W 	0.19035 0.60831 0.77949 1.02200
W 	W 	0.10433 0.97361 0.77081 1.02500
W 	W 	0.23105 0.93483 0.63845 1.31700
W 	W 	0.29592 0.57558 0.64062 0.98000
W 	W 	0.15003 0.41932 0.59471 1.01800
W 	W 	0.00582 0.22090 0.72748 1.03400
W 	W 	0.52336 0.28175 0.71262 1.05300
W 	W 	0.16815 0.40022 0.86958 1.35300
W 	W 	0.37681 0.09589 0.58832 1.03200
W 	W 	0.49141 0.03884 0.71674 1.05300
W 	W 	0.12146 0.17541 0.59333 1.04900
W 	W 	0.59451 0.65973 0.41319 1.04400
W 	W 	0.66140 0.11055 0.22959 1.01900
W 	W 	0.87306 0.83817 0.13149 1.08200
W 	W 	0.60019 0.67287 0.13879 1.04700
W 	W 	0.64159 0.91183 0.13719 1.35900
W 	W 	0.96042 0.53663 0.26928 1.07100
W 	W 	0.57596 0.47562 0.23602 1.03500
W 	W 	0.80965 0.39169 0.22051 1.03300
W 	W 	0.89567 0.02639 0.22919 0.98500
W 	W 	0.76895 0.06517 0.36155 1.28100
W 	W 	0.70408 0.42442 0.35938 0.98000
W 	W 	0.84997 0.58068 0.40529 1.02900
W 	W 	0.99418 0.77910 0.27252 1.06300
W 	W 	0.47664 0.71825 0.28738 1.04900
W 	W 	0.83185 0.59978 0.13042 1.36000
W 	W 	0.62319 0.90411 0.41168 1.06400
W 	W 	0.50859 0.96116 0.28326 1.09500
W 	W 	0.87854 0.82459 0.40667 1.06900
C 	C 	0.26300 0.52800 0.20840 -0.11600
C 	C 	0.38200 0.90700 0.09360 0.09700
C 	C 	0.90100 0.64000 0.59500 0.01100
C 	C 	0.29400 0.99200 0.03300 0.03000
C 	C 	0.61700 0.79200 0.97000 0.22100
C 	C 	0.14900 0.99200 0.32230 0.05100
C 	C 	0.80600 0.69800 0.57970 -0.17400
C 	C 	0.77100 0.78300 0.61630 0.01300
C 	C 	0.68100 0.84200 0.60400 -0.10500
C 	C 	0.26400 0.88400 0.17500 -0.05800
C 	C 	0.21600 0.96500 0.21420 -0.04000
C 	C 	0.20900 0.92800 0.27930 -0.16300
C 	C 	0.59300 0.75000 0.66440 0.09800
C 	C 	0.48100 0.75200 0.60760 0.11000
C 	C 	0.20200 0.51300 0.02680 -0.03200
C 	C 	0.28500 0.55200 0.26930 -0.09400
C 	C 	0.22600 0.60800 0.16860 -0.03400
C 	C 	0.22100 0.53700 0.31750 -0.03100
C 	C 	0.31200 0.55800 0.45890 0.06000
C 	C 	0.90000 0.75400 0.80850 -0.04000
C 	C 	0.79200 0.79100 0.80300 -0.09900
C 	C 	0.74600 0.71000 0.80700 -0.10800
C 	C 	0.63800 0.74400 0.81620 -0.03300
C 	C 	0.20500 0.63700 0.40590 0.09600
C 	C 	0.10100 0.93100 0.47000 0.10100
C 	C 	0.18900 0.86600 0.40170 0.09400
C 	C 	0.91700 0.70800 0.96400 0.17600
C 	C 	0.04400 0.67800 0.55250 0.05300
C 	C 	0.06100 0.76900 0.61840 0.05900
C 	C 	0.95600 0.62800 0.88590 0.10600
C 	C 	0.56500 0.86600 0.89420 0.08600
C 	C 	0.10300 0.58300 0.09890 0.08100
C 	C 	0.73700 0.47200 0.79160 -0.12400
C 	C 	0.61800 0.09300 0.90640 0.10200
C 	C 	0.09900 0.36000 0.40500 0.02900
C 	C 	0.70600 0.00800 0.96700 0.12900
C 	C 	0.38300 0.20800 0.03000 0.03200
C 	C 	0.85100 0.00800 0.67770 -0.22200
C 	C 	0.19400 0.30200 0.42030 -0.18300
C 	C 	0.22900 0.21700 0.38370 0.01000
C 	C 	0.31900 0.15800 0.39600 -0.09800
C 	C 	0.73600 0.11600 0.82500 0.04900
C 	C 	0.78400 0.03500 0.78580 -0.27000
C 	C 	0.79100 0.07200 0.72070 0.06400
C 	C 	0.40700 0.25000 0.33560 0.09700
C 	C 	0.51900 0.24800 0.39240 0.10900
C 	C 	0.79800 0.48700 0.97320 0.14600
C 	C 	0.71500 0.44800 0.73070 -0.08000
C 	C 	0.77400 0.39200 0.83140 -0.03200
C 	C 	0.77900 0.46300 0.68250 -0.04500
C 	C 	0.68800 0.44200 0.54110 0.06100
C 	C 	0.10000 0.24600 0.19150 -0.03300
C 	C 	0.20800 0.20900 0.19700 -0.10400
C 	C 	0.25400 0.29000 0.19300 -0.10400
C 	C 	0.36200 0.25600 0.18380 -0.03700
C 	C 	0.79500 0.36300 0.59410 0.09600
C 	C 	0.89900 0.06900 0.53000 0.10400
C 	C 	0.81100 0.13400 0.59830 0.08400
C 	C 	0.08300 0.29200 0.03600 -0.00400
C 	C 	0.95600 0.32200 0.44750 0.11300
C 	C 	0.93900 0.23100 0.38160 0.11500
C 	C 	0.04400 0.37200 0.11410 0.10000
C 	C 	0.43500 0.13400 0.10580 0.08400
C 	C 	0.89700 0.41700 0.90110 0.08600
N 	N 	0.14300 0.94600 0.38330 -0.11000
N 	N 	0.10000 0.73200 0.56610 -0.25700
N 	N 	0.95900 0.62200 0.94500 -0.23300
N 	N 	0.24200 0.64000 0.45910 -0.28100
N 	N 	0.38500 0.95600 0.04280 -0.22900
N 	N 	0.56200 0.87200 0.95450 -0.24200
N 	N 	0.29700 0.91600 0.11600 -0.10100
N 	N 	0.98400 0.73800 0.63840 -0.07600
N 	N 	0.08100 0.98800 0.42590 -0.10400
N 	N 	0.23600 0.97300 0.07780 -0.09300
N 	N 	0.60100 0.79400 0.61440 -0.09200
N 	N 	0.64800 0.73500 0.93040 -0.12200
N 	N 	0.53400 0.79900 0.57770 -0.11700
N 	N 	0.90900 0.76700 0.91620 -0.10000
N 	N 	0.18700 0.58000 0.11010 -0.10200
N 	N 	0.24300 0.56400 0.37720 -0.10900
N 	N 	0.31100 0.50900 0.40920 -0.10000
N 	N 	0.91700 0.71400 0.86930 -0.09900
N 	N 	0.25000 0.53200 0.07310 -0.08000
N 	N 	0.52000 0.71900 0.66180 -0.14500
N 	N 	0.61600 0.78300 0.87780 -0.09800
N 	N 	0.97200 0.68500 0.59420 -0.08500
N 	N 	0.10500 0.55100 0.04180 -0.22300
N 	N 	0.16700 0.85300 0.46050 -0.27200
N 	N 	0.85700 0.05400 0.61670 -0.07600
N 	N 	0.90000 0.26800 0.43390 -0.27100
N 	N 	0.04100 0.37800 0.05500 -0.23600
N 	N 	0.75800 0.36000 0.54090 -0.27900
N 	N 	0.61500 0.04400 0.95720 -0.23300
N 	N 	0.43800 0.12800 0.04550 -0.23800
N 	N 	0.70300 0.08400 0.88400 -0.11500
N 	N 	0.01600 0.26200 0.36160 -0.11100
N 	N 	0.91900 0.01200 0.57410 -0.10600
N 	N 	0.76400 0.02700 0.92220 -0.10100
N 	N 	0.39900 0.20600 0.38560 -0.09400
N 	N 	0.35200 0.26500 0.06960 -0.09800
N 	N 	0.46600 0.20100 0.42230 -0.11900
N 	N 	0.09100 0.23300 0.08380 -0.09400
N 	N 	0.81300 0.42000 0.88990 -0.09700
N 	N 	0.75700 0.43600 0.62280 -0.10400
N 	N 	0.68900 0.49100 0.59080 -0.10000
N 	N 	0.08300 0.28600 0.13070 -0.10500
N 	N 	0.75000 0.46800 0.92690 -0.09500
N 	N 	0.48000 0.28100 0.33820 -0.14500
N 	N 	0.38400 0.21700 0.12220 -0.10000
N 	N 	0.02800 0.31500 0.40580 -0.12200
N 	N 	0.89500 0.44900 0.95820 -0.21400
N 	N 	0.83300 0.14700 0.53950 -0.26900
O 	O 	0.27660 0.35560 0.57740 -0.44800
O 	O 	0.29360 0.48210 0.72690 -0.38000
O 	O 	0.23650 0.02000 0.72600 -0.40700
O 	O 	0.16230 0.27770 0.87880 -0.46700
O 	O 	0.11570 0.30760 0.59460 -0.44600
O 	O 	0.34120 0.12230 0.69130 -0.34300
O 	O 	0.21760 0.64910 0.69730 -0.45000
O 	O 	0.12770 0.92200 0.69270 -0.46200
O 	O 	0.49070 0.41590 0.72810 -0.45100
O 	O 	0.01510 0.34250 0.71890 -0.44700
O 	O 	0.09590 0.56050 0.74320 -0.45100
O 	O 	0.28370 0.37920 0.90620 -0.45700
O 	O 	0.31460 0.60870 0.79880 -0.44300
O 	O 	0.34170 0.97150 0.83290 -0.45100
O 	O 	0.45040 0.07370 0.79570 -0.47800
O 	O 	0.24860 0.14880 0.79070 -0.36400
O 	O 	0.51480 0.15950 0.70250 -0.44400
O 	O 	0.18670 0.52050 0.83990 -0.46400
O 	O 	0.40950 0.20920 0.58600 -0.44000
O 	O 	0.36590 0.20920 0.87120 -0.46600
O 	O 	0.51960 0.30640 0.62820 -0.46000
O 	O 	0.24940 0.16000 0.57670 -0.45300
O 	O 	0.48530 0.03350 0.63100 -0.44900
O 	O 	0.14650 0.04880 0.61160 -0.47800
O 	O 	0.20310 0.52740 0.61690 -0.44900
O 	O 	0.21280 0.88290 0.79320 -0.44600
O 	O 	0.38380 0.46330 0.60690 -0.45700
O 	O 	0.40790 0.44370 0.83140 -0.45300
O 	O 	0.43210 0.94200 0.72950 -0.44200
O 	O 	0.32420 0.99030 0.60840 -0.46500
O 	O 	0.12330 0.04860 0.83900 -0.46900
O 	O 	0.24230 0.10520 0.90570 -0.46400
O 	O 	0.16460 0.18510 0.69600 -0.33600
O 	O 	0.27760 0.34970 0.79220 -0.36200
O 	O 	0.19020 0.38250 0.69580 -0.33100
O 	O 	0.04560 0.47970 0.64420 -0.45100
O 	O 	0.08000 0.41540 0.80760 -0.47200
O 	O 	0.47870 0.27670 0.79350 -0.46000
O 	O 	0.03530 0.08700 0.73980 -0.46200
O 	O 	0.40090 0.58190 0.68820 -0.44000
O 	O 	0.05110 0.22100 0.80860 -0.46100
O 	O 	0.00900 0.20160 0.64320 -0.45900
O 	O 	0.36510 0.31770 0.69110 -0.33000
O 	O 	0.42560 0.04240 0.92250 -0.53600
O 	O 	0.09560 0.44310 0.93000 -0.55000
O 	O 	0.22310 0.85770 0.58360 -0.55800
O 	O 	0.31230 0.85400 0.69090 -0.46100
O 	O 	0.72340 0.64440 0.42260 -0.45000
O 	O 	0.70640 0.51790 0.27310 -0.38100
O 	O 	0.76350 0.98000 0.27400 -0.37900
O 	O 	0.83770 0.72230 0.12120 -0.46700
O 	O 	0.88430 0.69240 0.40540 -0.44100
O 	O 	0.65880 0.87770 0.30870 -0.34200
O 	O 	0.78240 0.35090 0.30270 -0.44800
O 	O 	0.87230 0.07800 0.30730 -0.45200
O 	O 	0.50930 0.58410 0.27190 -0.45100
O 	O 	0.98490 0.65750 0.28110 -0.43900
O 	O 	0.90410 0.43950 0.25680 -0.44300
O 	O 	0.71630 0.62080 0.09380 -0.46600
O 	O 	0.68540 0.39130 0.20120 -0.44900
O 	O 	0.65830 0.02850 0.16710 -0.48100
O 	O 	0.54960 0.92630 0.20430 -0.47500
O 	O 	0.75140 0.85120 0.20930 -0.36300
O 	O 	0.48520 0.84050 0.29750 -0.45000
O 	O 	0.81330 0.47950 0.16010 -0.46400
O 	O 	0.59050 0.79080 0.41400 -0.44400
O 	O 	0.63410 0.79080 0.12880 -0.47100
O 	O 	0.48040 0.69360 0.37180 -0.46000
O 	O 	0.75060 0.84000 0.42330 -0.45300
O 	O 	0.51470 0.96650 0.36900 -0.44100
O 	O 	0.85350 0.95120 0.38840 -0.44900
O 	O 	0.79690 0.47260 0.38310 -0.44800
O 	O 	0.78720 0.11710 0.20680 -0.44700
O 	O 	0.61620 0.53670 0.39310 -0.45700
O 	O 	0.59210 0.55630 0.16860 -0.45800
O 	O 	0.56790 0.05800 0.27050 -0.46500
O 	O 	0.67580 0.00970 0.39160 -0.49000
O 	O 	0.87670 0.95140 0.16100 -0.44600
O 	O 	0.75770 0.89480 0.09430 -0.46900
O 	O 	0.83540 0.81490 0.30400 -0.33900
O 	O 	0.72240 0.65030 0.20780 -0.36300
O 	O 	0.80980 0.61750 0.30420 -0.33600
O 	O 	0.95440 0.52030 0.35580 -0.43700
O 	O 	0.92000 0.58460 0.19240 -0.46400
O 	O 	0.52130 0.72330 0.20650 -0.46100
O 	O 	0.96470 0.91300 0.26020 -0.42900
O 	O 	0.59910 0.41810 0.31180 -0.43900
O 	O 	0.94890 0.77900 0.19140 -0.45400
O 	O 	0.99100 0.79840 0.35680 -0.44300
O 	O 	0.63490 0.68230 0.30890 -0.33100
O 	O 	0.57440 0.95760 0.07750 -0.54500
O 	O 	0.90440 0.55690 0.07000 -0.55400
O 	O 	0.77690 0.14230 0.41640 -0.55500
O 	O 	0.68770 0.14600 0.30910 -0.45800
