data_crystal

_cell_length_a 10.01600
_cell_length_b 11.38000
_cell_length_c 12.82100
_cell_angle_alpha 80.39000
_cell_angle_beta  80.65000
_cell_angle_gamma 66.34000

_symmetry_space_group_name_	'P 1'
_symmetry_space_group_name_H-M	'P 1'

loop_
_symmetry_equiv_pos_as_xyz
  x,y,z

loop_
_atom_site_label
_atom_site_type_symbol
_atom_site_fract_x
_atom_site_fract_y
_atom_site_fract_z
_atom_site_charge
La	La	0.69862 0.89186 0.78818 1.70400
La	La	0.38025 0.51211 0.74961 1.70100
La	La	0.30138 0.10814 0.21182 1.70400
La	La	0.61975 0.48789 0.25039 1.70100
C 	C 	0.54700 0.67660 0.82650 0.22200
C 	C 	0.51960 0.73980 0.71620 0.25400
C 	C 	0.60010 0.20610 0.78930 0.15900
C 	C 	0.50800 0.20180 0.71370 0.28500
C 	C 	0.05670 0.73690 0.80340 0.21300
C 	C 	0.02000 0.63790 0.75920 0.25200
C 	C 	0.58000 0.46570 0.50980 0.23900
C 	C 	0.43220 0.02980 0.96680 0.24800
C 	C 	0.45300 0.32340 0.17350 0.22200
C 	C 	0.48040 0.26020 0.28380 0.25400
C 	C 	0.39990 0.79390 0.21070 0.15900
C 	C 	0.49200 0.79820 0.28630 0.28500
C 	C 	0.94330 0.26310 0.19660 0.21300
C 	C 	0.98000 0.36210 0.24080 0.25200
C 	C 	0.42000 0.53430 0.49020 0.23900
C 	C 	0.56780 0.97020 0.03320 0.24800
O 	O 	0.45060 0.69830 0.66760 -0.32600
O 	O 	0.56530 0.82650 0.68160 -0.35000
O 	O 	0.60760 0.71700 0.88100 -0.32600
O 	O 	0.50910 0.58110 0.86220 -0.33100
O 	O 	0.39820 0.30010 0.69620 -0.33700
O 	O 	0.58000 0.31050 0.82640 -0.29800
O 	O 	0.54150 0.09280 0.68910 -0.35000
O 	O 	0.71120 0.10030 0.81840 -0.28900
O 	O 	0.95140 0.84020 0.82910 -0.32900
O 	O 	0.88830 0.67190 0.74810 -0.35000
O 	O 	0.12220 0.53630 0.74170 -0.34600
O 	O 	0.18670 0.71650 0.80660 -0.33900
O 	O 	0.59940 0.43940 0.60970 -0.31300
O 	O 	0.67770 0.43440 0.43550 -0.33200
O 	O 	0.44770 0.00870 0.87490 -0.33100
O 	O 	0.31570 0.10340 0.01590 -0.33000
O 	O 	0.54940 0.30170 0.33240 -0.32600
O 	O 	0.43470 0.17350 0.31840 -0.35000
O 	O 	0.39240 0.28300 0.11900 -0.32600
O 	O 	0.49090 0.41890 0.13780 -0.33100
O 	O 	0.60180 0.69990 0.30380 -0.33700
O 	O 	0.42000 0.68950 0.17360 -0.29800
O 	O 	0.45850 0.90720 0.31090 -0.35000
O 	O 	0.28880 0.89970 0.18160 -0.28900
O 	O 	0.04860 0.15980 0.17090 -0.32900
O 	O 	0.11170 0.32810 0.25190 -0.35000
O 	O 	0.87780 0.46370 0.25830 -0.34600
O 	O 	0.81330 0.28350 0.19340 -0.33900
O 	O 	0.40060 0.56060 0.39030 -0.31300
O 	O 	0.32230 0.56560 0.56450 -0.33200
O 	O 	0.55230 0.99130 0.12510 -0.33100
O 	O 	0.68430 0.89660 0.98410 -0.33000
