data_crystal

_cell_length_a 9.70120
_cell_length_b 12.44200
_cell_length_c 17.21800
_cell_angle_alpha 89.83000
_cell_angle_beta  75.01000
_cell_angle_gamma 73.33000

_symmetry_space_group_name_	'P 1'
_symmetry_space_group_name_H-M	'P 1'

loop_
_symmetry_equiv_pos_as_xyz
  x,y,z

loop_
_atom_site_label
_atom_site_type_symbol
_atom_site_fract_x
_atom_site_fract_y
_atom_site_fract_z
_atom_site_charge
Zn	Zn	0.35164 0.19291 0.18370 1.20800
Zn	Zn	0.96083 0.88684 0.19338 1.22300
Na	Na	0.23335 0.44451 0.27429 0.58800
O 	O 	0.08600 0.82290 0.00636 -0.50700
O 	O 	0.03790 0.74580 0.12300 -0.50000
O 	O 	0.41980 0.23520 0.03099 -0.36700
O 	O 	0.29420 0.34520 0.14291 -0.49800
O 	O 	0.39000 0.45950 0.75137 -0.22400
O 	O 	0.48420 0.61490 0.77003 -0.30100
O 	O 	0.62860 0.42410 0.78301 -0.29300
O 	O 	0.20640 0.04400 0.63470 -0.33500
O 	O 	0.01250 0.17320 0.70833 -0.51300
O 	O 	0.24720 0.25440 0.29619 -0.50200
O 	O 	0.33620 0.08270 0.33450 -0.31300
O 	O 	0.77780 0.52720 0.45998 -0.21600
O 	O 	0.71880 0.51720 0.60332 -0.29100
O 	O 	0.64790 0.39750 0.52100 -0.20100
S 	S 	0.48099 0.50247 0.79233 0.49800
S 	S 	0.75516 0.45716 0.52622 0.50500
C 	C 	0.66610 0.08820 0.09090 0.09500
H 	H 	0.64680 0.12540 0.04490 -0.02100
C 	C 	0.63890 0.03290 0.20760 0.06900
H 	H 	0.59620 0.02250 0.26220 0.00800
C 	C 	0.17010 0.02840 0.19770 0.04500
H 	H 	0.18000 0.01040 0.25000 -0.01500
C 	C 	0.18840 0.09910 0.08640 0.09600
H 	H 	0.21470 0.14250 0.04260 -0.03300
C 	C 	0.38450 0.51650 0.89540 -0.17200
C 	C 	0.28520 0.61980 0.92980 0.16500
H 	H 	0.27110 0.68300 0.89840 0.00100
C 	C 	0.20690 0.62970 0.01040 -0.23500
C 	C 	0.22910 0.53620 0.05550 0.14000
H 	H 	0.17660 0.54310 0.11090 0.00000
C 	C 	0.32850 0.43180 0.01980 -0.21700
C 	C 	0.40730 0.42210 0.93950 0.16000
H 	H 	0.47580 0.35220 0.91490 0.01100
C 	C 	0.10180 0.74250 0.04890 0.44300
C 	C 	0.35070 0.33000 0.06650 0.36700
C 	C 	0.92540 0.34740 0.51550 -0.07800
C 	C 	0.94970 0.28910 0.58130 0.12800
H 	H 	0.88200 0.31290 0.63310 0.02400
C 	C 	0.07460 0.19450 0.57130 -0.18000
C 	C 	0.17310 0.15970 0.49550 0.08200
H 	H 	0.25620 0.09410 0.48840 0.03600
C 	C 	0.15010 0.22070 0.43020 -0.11900
C 	C 	0.02530 0.31610 0.44080 0.01600
H 	H 	0.01000 0.35890 0.39640 0.02500
C 	C 	0.10240 0.12970 0.64230 0.39400
C 	C 	0.25330 0.18170 0.34830 0.35400
N 	N 	0.56390 0.10070 0.16155 -0.27500
N 	N 	0.79730 0.01830 0.09174 -0.24200
N 	N 	0.77890 0.98260 0.16763 -0.20200
N 	N 	0.23050 0.10090 0.15449 -0.27500
N 	N 	0.09480 0.98450 0.15898 -0.20400
N 	N 	0.10670 0.03080 0.08649 -0.26700
Zn	Zn	0.64836 0.80709 0.81630 1.21100
Zn	Zn	0.03917 0.11316 0.80662 1.19100
Na	Na	0.76665 0.55549 0.72571 0.59000
O 	O 	0.91400 0.17710 0.99364 -0.43500
O 	O 	0.96210 0.25420 0.87700 -0.44400
O 	O 	0.58020 0.76480 0.96901 -0.31000
O 	O 	0.70580 0.65480 0.85709 -0.47200
O 	O 	0.61000 0.54050 0.24863 -0.20200
O 	O 	0.51580 0.38510 0.22997 -0.29200
O 	O 	0.37140 0.57590 0.21699 -0.28900
O 	O 	0.79360 0.95600 0.36530 -0.27300
O 	O 	0.98750 0.82680 0.29167 -0.44300
O 	O 	0.75280 0.74560 0.70381 -0.49400
O 	O 	0.66380 0.91730 0.66550 -0.28600
O 	O 	0.22220 0.47280 0.54002 -0.24400
O 	O 	0.28120 0.48280 0.39668 -0.29800
O 	O 	0.35210 0.60250 0.47900 -0.20200
S 	S 	0.51901 0.49753 0.20767 0.45600
S 	S 	0.24484 0.54284 0.47378 0.51700
C 	C 	0.33390 0.91180 0.90910 0.11500
H 	H 	0.35320 0.87460 0.95510 0.00500
C 	C 	0.36110 0.96710 0.79240 0.16700
H 	H 	0.40380 0.97750 0.73780 -0.00000
C 	C 	0.82990 0.97160 0.80230 0.15400
H 	H 	0.82000 0.98960 0.75000 -0.00800
C 	C 	0.81160 0.90090 0.91360 0.12500
H 	H 	0.78530 0.85750 0.95740 0.00300
C 	C 	0.61550 0.48350 0.10460 -0.04900
C 	C 	0.71480 0.38020 0.07020 -0.03500
H 	H 	0.72890 0.31700 0.10160 0.05900
C 	C 	0.79310 0.37030 0.98960 -0.04000
C 	C 	0.77090 0.46380 0.94450 0.00900
H 	H 	0.82340 0.45690 0.88910 0.05700
C 	C 	0.67150 0.56820 0.98020 -0.02700
C 	C 	0.59270 0.57790 0.06050 -0.04100
H 	H 	0.52420 0.64780 0.08510 0.06700
C 	C 	0.89820 0.25750 0.95110 0.38500
C 	C 	0.64930 0.67000 0.93350 0.31100
C 	C 	0.07460 0.65260 0.48450 -0.14800
C 	C 	0.05030 0.71090 0.41870 0.02200
H 	H 	0.11800 0.68710 0.36690 0.04300
C 	C 	0.92540 0.80550 0.42870 -0.05600
C 	C 	0.82690 0.84030 0.50450 0.05600
H 	H 	0.74380 0.90590 0.51160 0.06500
C 	C 	0.84990 0.77930 0.56980 -0.11400
C 	C 	0.97470 0.68390 0.55920 0.12400
H 	H 	0.99000 0.64110 0.60360 0.01800
C 	C 	0.89760 0.87030 0.35770 0.36000
C 	C 	0.74670 0.81830 0.65170 0.35800
N 	N 	0.43610 0.89930 0.83845 -0.28400
N 	N 	0.20270 0.98170 0.90826 -0.19300
N 	N 	0.22110 0.01740 0.83237 -0.29800
N 	N 	0.76950 0.89910 0.84551 -0.27900
N 	N 	0.90520 0.01550 0.84102 -0.26300
N 	N 	0.89330 0.96920 0.91351 -0.18700
Zn	Zn	-0.00000 0.00000 -0.00000 1.15300
