data_crystal

_cell_length_a 12.00000
_cell_length_b 12.61100
_cell_length_c 11.52600
_cell_angle_alpha 115.75000
_cell_angle_beta  106.99000
_cell_angle_gamma 69.34000

_symmetry_space_group_name_	'P 1'
_symmetry_space_group_name_H-M	'P 1'

loop_
_symmetry_equiv_pos_as_xyz
  x,y,z

loop_
_atom_site_label
_atom_site_type_symbol
_atom_site_fract_x
_atom_site_fract_y
_atom_site_fract_z
_atom_site_charge
S 	S 	0.74300 0.39440 0.84670 1.01700
O 	O 	0.66010 0.40100 0.92400 -0.41400
O 	O 	0.82250 0.47030 0.92910 -0.26700
O 	O 	0.68080 0.42300 0.73120 -0.20800
O 	O 	0.81890 0.26270 0.80000 -0.20800
O 	O 	0.86700 0.37700 0.90200 -0.23600
O 	O 	0.68900 0.53600 0.85400 -0.18500
O 	O 	0.71700 0.31800 0.72400 -0.26400
N 	N 	0.60240 0.59150 0.18770 -0.25400
N 	N 	0.90600 0.90690 0.80940 -0.20000
N 	N 	0.00440 0.49430 0.80610 -0.18900
C 	C 	0.59200 0.58700 0.29700 0.07000
C 	C 	0.64900 0.64900 0.42000 -0.11400
C 	C 	0.72210 0.72000 0.43450 0.06100
C 	C 	0.73350 0.72220 0.31900 -0.12900
C 	C 	0.67400 0.66000 0.20190 0.06900
C 	C 	0.90900 0.92100 0.70300 0.08100
C 	C 	0.85100 0.86200 0.58200 -0.09700
C 	C 	0.78450 0.78360 0.56350 0.05400
C 	C 	0.78200 0.77260 0.67600 -0.10200
C 	C 	0.84200 0.83340 0.79600 0.08000
C 	C 	0.94500 0.42500 0.69300 0.03900
C 	C 	0.94100 0.43000 0.57400 0.08400
C 	C 	0.00200 0.50030 0.56290 -0.21300
C 	C 	0.06800 0.56420 0.67800 0.02700
C 	C 	0.06900 0.55900 0.79480 -0.02700
H 	H 	0.54040 0.53830 0.29040 0.00200
H 	H 	0.63860 0.64110 0.49570 0.08100
H 	H 	0.78360 0.76800 0.32210 0.06700
H 	H 	0.68430 0.66220 0.12300 -0.05700
H 	H 	0.95520 0.97570 0.71160 0.02700
H 	H 	0.85510 0.87510 0.50650 0.07700
H 	H 	0.73710 0.72110 0.67100 0.08500
H 	H 	0.83870 0.82190 0.87220 0.02900
H 	H 	0.90430 0.36950 0.69600 0.05500
H 	H 	0.89470 0.38170 0.49530 0.00800
H 	H 	0.11060 0.61430 0.67550 0.01400
H 	H 	0.11840 0.60420 0.87370 0.08800
S 	S 	0.25700 0.60560 0.15330 1.15500
O 	O 	0.33990 0.59900 0.07600 -0.60400
O 	O 	0.17750 0.52970 0.07090 -0.41900
O 	O 	0.31920 0.57700 0.26880 -0.22500
O 	O 	0.18110 0.73730 0.20000 -0.27700
O 	O 	0.13300 0.62300 0.09800 -0.35800
O 	O 	0.31100 0.46400 0.14600 -0.30000
O 	O 	0.28300 0.68200 0.27600 -0.28200
N 	N 	0.39760 0.40850 0.81230 -0.18100
N 	N 	0.09400 0.09310 0.19060 -0.30400
N 	N 	0.99560 0.50570 0.19390 -0.21100
C 	C 	0.40800 0.41300 0.70300 0.06500
C 	C 	0.35100 0.35100 0.58000 -0.09600
C 	C 	0.27790 0.28000 0.56550 0.03100
C 	C 	0.26650 0.27780 0.68100 -0.09700
C 	C 	0.32600 0.34000 0.79810 0.06100
C 	C 	0.09100 0.07900 0.29700 0.05300
C 	C 	0.14900 0.13800 0.41800 -0.13600
C 	C 	0.21550 0.21640 0.43650 0.05400
C 	C 	0.21800 0.22740 0.32400 -0.14700
C 	C 	0.15800 0.16660 0.20400 0.05300
C 	C 	0.05500 0.57500 0.30700 0.04500
C 	C 	0.05900 0.57000 0.42600 -0.26200
C 	C 	0.99800 0.49970 0.43710 0.29100
C 	C 	0.93200 0.43580 0.32200 -0.22700
C 	C 	0.93100 0.44100 0.20520 0.11500
H 	H 	0.45960 0.46170 0.70960 0.03100
H 	H 	0.36140 0.35890 0.50430 0.06600
H 	H 	0.21640 0.23200 0.67790 0.05800
H 	H 	0.31570 0.33780 0.87700 0.05600
H 	H 	0.04480 0.02430 0.28840 -0.06100
H 	H 	0.14490 0.12490 0.49350 0.06000
H 	H 	0.26290 0.27890 0.32900 0.06700
H 	H 	0.16130 0.17810 0.12780 -0.09100
H 	H 	0.09570 0.63050 0.30400 0.02400
H 	H 	0.10530 0.61830 0.50470 0.11200
H 	H 	0.88940 0.38570 0.32450 0.09600
H 	H 	0.88160 0.39580 0.12630 -0.06700
Fe	Fe	0.50000 0.50000 -0.00000 1.03300
Fe	Fe	-0.00000 0.00000 -0.00000 0.86400
Fe	Fe	-0.00000 0.50000 -0.00000 1.00400
