data_crystal

_cell_length_a 10.44100
_cell_length_b 17.57110
_cell_length_c 17.57110
_cell_angle_alpha 115.28200
_cell_angle_beta  96.33010
_cell_angle_gamma 83.66990

_symmetry_space_group_name_	'P 1'
_symmetry_space_group_name_H-M	'P 1'

loop_
_symmetry_equiv_pos_as_xyz
  x,y,z

loop_
_atom_site_label
_atom_site_type_symbol
_atom_site_fract_x
_atom_site_fract_y
_atom_site_fract_z
_atom_site_charge
Co	Co	0.51133 0.21219 0.04465 1.13500
Co	Co	0.98867 0.04465 0.21219 1.13400
Co	Co	0.48867 0.78781 0.95535 1.13500
Co	Co	0.01133 0.95535 0.78781 1.13400
Co	Co	0.75000 0.23479 0.23479 1.17500
Co	Co	0.25000 0.76521 0.76521 1.17500
H 	H 	0.85070 0.35290 0.48470 -0.04500
H 	H 	0.89190 0.41060 0.62880 0.18900
H 	H 	0.16880 0.23260 0.60780 0.19000
H 	H 	0.12950 0.17450 0.46290 -0.05000
H 	H 	0.99910 0.24020 0.72300 0.16200
H 	H 	0.07610 0.18330 0.81690 -0.04400
H 	H 	0.33800 0.35650 0.91530 -0.03100
H 	H 	0.25830 0.41310 0.82110 0.16000
H 	H 	0.51640 0.38070 0.03970 0.00500
H 	H 	0.63270 0.45820 0.99920 0.09500
H 	H 	0.91010 0.26950 0.93670 0.09700
H 	H 	0.78620 0.19690 0.97890 0.00200
H 	H 	0.94570 0.39840 0.91820 0.07200
H 	H 	0.78760 0.61540 0.91520 0.07900
H 	H 	0.84120 0.73680 0.88400 0.10600
H 	H 	0.09040 0.53570 0.82770 0.12600
H 	H 	0.22410 0.60190 0.78570 -0.01200
H 	H 	0.98230 0.79690 0.83850 -0.03600
H 	H 	0.64930 0.48470 0.35290 -0.04300
H 	H 	0.60810 0.62880 0.41060 0.18900
H 	H 	0.33120 0.60780 0.23260 0.19000
H 	H 	0.37050 0.46290 0.17450 -0.04800
H 	H 	0.50090 0.72300 0.24020 0.16600
H 	H 	0.42390 0.81690 0.18330 -0.04500
H 	H 	0.16200 0.91530 0.35650 -0.03100
H 	H 	0.24170 0.82110 0.41310 0.16200
H 	H 	0.98360 0.03970 0.38070 0.00600
H 	H 	0.86730 0.99920 0.45820 0.09400
H 	H 	0.58990 0.93670 0.26950 0.09700
H 	H 	0.71380 0.97890 0.19690 0.00200
H 	H 	0.55430 0.91820 0.39840 0.07200
H 	H 	0.71240 0.91520 0.61540 0.08000
H 	H 	0.65880 0.88400 0.73680 0.10900
H 	H 	0.40960 0.82770 0.53570 0.12600
H 	H 	0.27590 0.78570 0.60190 -0.01300
H 	H 	0.51770 0.83850 0.79690 -0.04200
H 	H 	0.14930 0.64710 0.51530 -0.04400
H 	H 	0.10810 0.58940 0.37120 0.19000
H 	H 	0.83120 0.76740 0.39220 0.19100
H 	H 	0.87050 0.82550 0.53710 -0.04900
H 	H 	0.00090 0.75980 0.27700 0.16300
H 	H 	0.92390 0.81670 0.18310 -0.04300
H 	H 	0.66200 0.64350 0.08470 -0.03000
H 	H 	0.74170 0.58690 0.17890 0.16100
H 	H 	0.48360 0.61930 0.96030 0.00500
H 	H 	0.36730 0.54180 0.00080 0.09500
H 	H 	0.08990 0.73050 0.06330 0.09700
H 	H 	0.21380 0.80310 0.02110 0.00200
H 	H 	0.05430 0.60160 0.08180 0.07200
H 	H 	0.21240 0.38460 0.08480 0.07900
H 	H 	0.15880 0.26320 0.11600 0.10600
H 	H 	0.90960 0.46430 0.17230 0.12600
H 	H 	0.77590 0.39810 0.21430 -0.01200
H 	H 	0.01770 0.20310 0.16150 -0.03600
H 	H 	0.35070 0.51530 0.64710 -0.04300
H 	H 	0.39190 0.37120 0.58940 0.18900
H 	H 	0.66880 0.39220 0.76740 0.19000
H 	H 	0.62950 0.53710 0.82550 -0.04800
H 	H 	0.49910 0.27700 0.75980 0.16600
H 	H 	0.57610 0.18310 0.81670 -0.04500
H 	H 	0.83800 0.08470 0.64350 -0.03100
H 	H 	0.75830 0.17890 0.58690 0.16200
H 	H 	0.01640 0.96030 0.61930 0.00600
H 	H 	0.13270 0.00080 0.54180 0.09400
H 	H 	0.41010 0.06330 0.73050 0.09700
H 	H 	0.28620 0.02110 0.80310 0.00200
H 	H 	0.44570 0.08180 0.60160 0.07200
H 	H 	0.28760 0.08480 0.38460 0.08000
H 	H 	0.34120 0.11600 0.26320 0.10900
H 	H 	0.59040 0.17230 0.46430 0.12600
H 	H 	0.72410 0.21430 0.39810 -0.01300
H 	H 	0.48230 0.16150 0.20310 -0.04200
C 	C 	0.96300 0.22172 0.36328 0.46000
C 	C 	0.99290 0.26010 0.45650 -0.30500
C 	C 	0.91860 0.32946 0.50854 0.26900
C 	C 	0.94320 0.36440 0.59480 -0.40000
C 	C 	0.10770 0.25900 0.58280 -0.42600
C 	C 	0.08300 0.22406 0.49554 0.28200
C 	C 	0.04300 0.33069 0.62991 0.41700
C 	C 	0.11940 0.33197 0.76483 0.36300
C 	C 	0.06690 0.26380 0.76240 -0.36400
C 	C 	0.11350 0.22932 0.81788 0.22200
C 	C 	0.21670 0.26378 0.87562 -0.24500
C 	C 	0.26950 0.33282 0.87658 0.21200
C 	C 	0.22170 0.36704 0.82076 -0.34500
C 	C 	0.26920 0.22922 0.93858 0.39200
C 	C 	0.59650 0.35800 0.01840 0.08800
C 	C 	0.66580 0.40505 0.99415 -0.16600
C 	C 	0.78550 0.37282 0.96218 0.11900
C 	C 	0.83000 0.29326 0.95714 -0.17000
C 	C 	0.75480 0.24992 0.98268 0.09800
C 	C 	0.86250 0.41974 0.93426 -0.05000
C 	C 	0.86850 0.59013 0.89747 -0.06500
C 	C 	0.95250 0.63006 0.86474 0.15800
C 	C 	0.92000 0.70826 0.86534 -0.20300
C 	C 	0.06670 0.59003 0.83237 -0.20500
C 	C 	0.14640 0.63033 0.80687 0.12600
C 	C 	0.00600 0.74405 0.83775 0.13100
C 	C 	0.53700 0.36328 0.22172 0.46200
C 	C 	0.50710 0.45650 0.26010 -0.30100
C 	C 	0.58140 0.50854 0.32946 0.26600
C 	C 	0.55680 0.59480 0.36440 -0.39600
C 	C 	0.39230 0.58280 0.25900 -0.42300
C 	C 	0.41700 0.49554 0.22406 0.27700
C 	C 	0.45700 0.62991 0.33069 0.41400
C 	C 	0.38060 0.76483 0.33197 0.36500
C 	C 	0.43310 0.76240 0.26380 -0.36900
C 	C 	0.38650 0.81788 0.22932 0.22500
C 	C 	0.28330 0.87562 0.26378 -0.24700
C 	C 	0.23050 0.87658 0.33282 0.21400
C 	C 	0.27830 0.82076 0.36704 -0.34700
C 	C 	0.23080 0.93858 0.22922 0.39300
C 	C 	0.90350 0.01840 0.35800 0.08400
C 	C 	0.83420 0.99415 0.40505 -0.16100
C 	C 	0.71450 0.96218 0.37282 0.11800
C 	C 	0.67000 0.95714 0.29326 -0.17000
C 	C 	0.74520 0.98268 0.24992 0.10000
C 	C 	0.63750 0.93426 0.41974 -0.04900
C 	C 	0.63150 0.89747 0.59013 -0.06600
C 	C 	0.54750 0.86474 0.63006 0.16000
C 	C 	0.58000 0.86534 0.70826 -0.21000
C 	C 	0.43330 0.83237 0.59003 -0.20600
C 	C 	0.35360 0.80687 0.63033 0.12600
C 	C 	0.49400 0.83775 0.74405 0.14100
C 	C 	0.03700 0.77828 0.63672 0.46000
C 	C 	0.00710 0.73990 0.54350 -0.30500
C 	C 	0.08140 0.67054 0.49146 0.26900
C 	C 	0.05680 0.63560 0.40520 -0.40000
C 	C 	0.89230 0.74100 0.41720 -0.42600
C 	C 	0.91700 0.77594 0.50446 0.28200
C 	C 	0.95700 0.66931 0.37009 0.41700
C 	C 	0.88060 0.66803 0.23517 0.36300
C 	C 	0.93310 0.73620 0.23760 -0.36400
C 	C 	0.88650 0.77068 0.18212 0.22200
C 	C 	0.78330 0.73622 0.12438 -0.24500
C 	C 	0.73050 0.66718 0.12342 0.21200
C 	C 	0.77830 0.63296 0.17924 -0.34500
C 	C 	0.73080 0.77078 0.06142 0.39200
C 	C 	0.40350 0.64200 0.98160 0.08800
C 	C 	0.33420 0.59495 0.00585 -0.16600
C 	C 	0.21450 0.62718 0.03782 0.11900
C 	C 	0.17000 0.70674 0.04286 -0.17000
C 	C 	0.24520 0.75008 0.01732 0.09800
C 	C 	0.13750 0.58026 0.06574 -0.05000
C 	C 	0.13150 0.40987 0.10253 -0.06500
C 	C 	0.04750 0.36994 0.13526 0.15800
C 	C 	0.08000 0.29174 0.13466 -0.20300
C 	C 	0.93330 0.40997 0.16763 -0.20500
C 	C 	0.85360 0.36967 0.19313 0.12600
C 	C 	0.99400 0.25595 0.16225 0.13100
C 	C 	0.46300 0.63672 0.77828 0.46200
C 	C 	0.49290 0.54350 0.73990 -0.30100
C 	C 	0.41860 0.49146 0.67054 0.26600
C 	C 	0.44320 0.40520 0.63560 -0.39600
C 	C 	0.60770 0.41720 0.74100 -0.42300
C 	C 	0.58300 0.50446 0.77594 0.27700
C 	C 	0.54300 0.37009 0.66931 0.41400
C 	C 	0.61940 0.23517 0.66803 0.36500
C 	C 	0.56690 0.23760 0.73620 -0.36900
C 	C 	0.61350 0.18212 0.77068 0.22500
C 	C 	0.71670 0.12438 0.73622 -0.24700
C 	C 	0.76950 0.12342 0.66718 0.21400
C 	C 	0.72170 0.17924 0.63296 -0.34700
C 	C 	0.76920 0.06142 0.77078 0.39300
C 	C 	0.09650 0.98160 0.64200 0.08400
C 	C 	0.16580 0.00585 0.59495 -0.16100
C 	C 	0.28550 0.03782 0.62718 0.11800
C 	C 	0.33000 0.04286 0.70674 -0.17000
C 	C 	0.25480 0.01732 0.75008 0.10000
C 	C 	0.36250 0.06574 0.58026 -0.04900
C 	C 	0.36850 0.10253 0.40987 -0.06600
C 	C 	0.45250 0.13526 0.36994 0.16000
C 	C 	0.42000 0.13466 0.29174 -0.21000
C 	C 	0.56670 0.16763 0.40997 -0.20600
C 	C 	0.64640 0.19313 0.36967 0.12600
C 	C 	0.50600 0.16225 0.25595 0.14100
S 	S 	0.75000 0.08429 0.08429 0.69800
S 	S 	0.25000 0.91571 0.91571 0.69800
N 	N 	0.63910 0.28054 0.01272 -0.23600
N 	N 	0.81830 0.48872 0.93128 -0.07200
N 	N 	0.90860 0.52102 0.90078 -0.06400
N 	N 	0.11950 0.70758 0.81044 -0.24200
N 	N 	0.86090 0.01272 0.28054 -0.23600
N 	N 	0.68170 0.93128 0.48872 -0.07200
N 	N 	0.59140 0.90078 0.52102 -0.06400
N 	N 	0.38050 0.81044 0.70758 -0.24400
N 	N 	0.36090 0.71946 0.98728 -0.23600
N 	N 	0.18170 0.51128 0.06872 -0.07200
N 	N 	0.09140 0.47898 0.09922 -0.06400
N 	N 	0.88050 0.29242 0.18956 -0.24200
N 	N 	0.13910 0.98728 0.71946 -0.23600
N 	N 	0.31830 0.06872 0.51128 -0.07200
N 	N 	0.40860 0.09922 0.47898 -0.06400
N 	N 	0.61950 0.18956 0.29242 -0.24400
O 	O 	0.36810 0.26008 0.98296 -0.43600
O 	O 	0.21260 0.17314 0.94516 -0.30900
O 	O 	0.06720 0.37497 0.71647 -0.35200
O 	O 	0.67140 0.16692 0.10376 -0.55800
O 	O 	0.83390 0.06633 0.01765 -0.34000
O 	O 	0.87430 0.26034 0.33612 -0.46600
O 	O 	0.02340 0.15354 0.31940 -0.45900
O 	O 	0.13190 0.98296 0.26008 -0.43700
O 	O 	0.28740 0.94516 0.17314 -0.31000
O 	O 	0.43280 0.71647 0.37497 -0.35200
O 	O 	0.82860 0.10376 0.16692 -0.55900
O 	O 	0.66610 0.01765 0.06633 -0.33900
O 	O 	0.62570 0.33612 0.26034 -0.46600
O 	O 	0.47660 0.31940 0.15354 -0.46200
O 	O 	0.63190 0.73992 0.01704 -0.43600
O 	O 	0.78740 0.82686 0.05484 -0.30900
O 	O 	0.93280 0.62503 0.28353 -0.35200
O 	O 	0.32860 0.83308 0.89624 -0.55800
O 	O 	0.16610 0.93367 0.98235 -0.34000
O 	O 	0.12570 0.73966 0.66388 -0.46600
O 	O 	0.97660 0.84646 0.68060 -0.45900
O 	O 	0.86810 0.01704 0.73992 -0.43700
O 	O 	0.71260 0.05484 0.82686 -0.31000
O 	O 	0.56720 0.28353 0.62503 -0.35200
O 	O 	0.17140 0.89624 0.83308 -0.55900
O 	O 	0.33390 0.98235 0.93367 -0.33900
O 	O 	0.37430 0.66388 0.73966 -0.46600
O 	O 	0.52340 0.68060 0.84646 -0.46200
