data_crystal

_cell_length_a 8.94060
_cell_length_b 12.13060
_cell_length_c 16.69980
_cell_angle_alpha 90.00000
_cell_angle_beta  90.00000
_cell_angle_gamma 109.28100

_symmetry_space_group_name_	'P 1'
_symmetry_space_group_name_H-M	'P 1'

loop_
_symmetry_equiv_pos_as_xyz
  x,y,z

loop_
_atom_site_label
_atom_site_type_symbol
_atom_site_fract_x
_atom_site_fract_y
_atom_site_fract_z
_atom_site_charge
Nd	Nd	0.06697 0.04804 0.11685 2.23900
Nd	Nd	0.93303 0.95196 0.88315 2.23900
Nd	Nd	0.56697 0.04804 0.38315 2.27800
Nd	Nd	0.43303 0.95196 0.61685 2.27800
H 	H 	0.37190 0.53290 0.06770 0.05400
H 	H 	0.52940 0.71760 0.06830 0.13000
H 	H 	0.74150 0.79520 0.42830 0.07600
H 	H 	0.25850 0.20480 0.57170 0.07600
H 	H 	0.02940 0.71760 0.43170 0.13000
H 	H 	0.41250 0.72400 0.82230 0.11500
H 	H 	0.67940 0.35710 0.39900 0.08400
H 	H 	0.40170 0.34790 0.30760 0.10200
H 	H 	0.87190 0.53290 0.43230 0.05400
H 	H 	0.00820 0.66400 0.07340 0.05200
H 	H 	0.90710 0.47460 0.77550 0.06100
H 	H 	0.75850 0.20480 0.92830 0.07400
H 	H 	0.24150 0.79520 0.07170 0.07400
H 	H 	0.58750 0.27600 0.17770 0.11500
H 	H 	0.38050 0.36370 0.96500 0.13000
H 	H 	0.82830 0.81820 0.66640 0.11000
H 	H 	0.61950 0.63630 0.03500 0.13000
H 	H 	0.20460 0.50520 0.91460 0.07800
H 	H 	0.32830 0.81820 0.83360 0.10800
H 	H 	0.99180 0.33600 0.92660 0.05200
H 	H 	0.59290 0.52540 0.27550 0.05900
H 	H 	0.12810 0.46710 0.56770 0.05400
H 	H 	0.79540 0.49480 0.08540 0.07800
H 	H 	0.29540 0.49480 0.41460 0.07700
H 	H 	0.11950 0.63630 0.46500 0.12800
H 	H 	0.47060 0.28240 0.93170 0.13000
H 	H 	0.70460 0.50520 0.58540 0.07700
H 	H 	0.08750 0.27600 0.32230 0.11700
H 	H 	0.67170 0.18180 0.16640 0.10800
H 	H 	0.17170 0.18180 0.33360 0.11000
H 	H 	0.82060 0.64290 0.89900 0.08300
H 	H 	0.49180 0.33600 0.57340 0.05000
H 	H 	0.59830 0.65210 0.69240 0.10200
H 	H 	0.87550 0.86060 0.48870 0.09100
H 	H 	0.40710 0.47460 0.72450 0.05900
H 	H 	0.50820 0.66400 0.42660 0.05000
H 	H 	0.62810 0.46710 0.93230 0.05400
H 	H 	0.90170 0.34790 0.19240 0.10100
H 	H 	0.97060 0.28240 0.56830 0.13000
H 	H 	0.12450 0.13940 0.51130 0.09100
H 	H 	0.09830 0.65210 0.80760 0.10100
H 	H 	0.37550 0.86060 0.01130 0.09000
H 	H 	0.91250 0.72400 0.67770 0.11700
H 	H 	0.88050 0.36370 0.53500 0.12800
H 	H 	0.32060 0.64290 0.60100 0.08400
H 	H 	0.17940 0.35710 0.10100 0.08300
H 	H 	0.62450 0.13940 0.98870 0.09000
H 	H 	0.09290 0.52540 0.22450 0.06100
C 	C 	0.22520 0.66460 0.70602 0.19200
C 	C 	0.87000 0.39810 0.00691 0.13300
C 	C 	0.15610 0.85690 0.97400 0.43500
C 	C 	0.65610 0.85690 0.52600 0.45400
C 	C 	0.06010 0.89030 0.70218 0.48900
C 	C 	0.99680 0.45460 0.66788 0.09900
C 	C 	0.09890 0.20530 0.30009 -0.24200
C 	C 	0.37610 0.30400 0.92560 -0.29100
C 	C 	0.27480 0.33540 0.20602 0.19300
C 	C 	0.12130 0.50420 0.61571 -0.05900
C 	C 	0.56010 0.89030 0.79782 0.48000
C 	C 	0.39630 0.38480 0.25942 -0.14900
C 	C 	0.23620 0.60960 0.63552 -0.14000
C 	C 	0.13000 0.60190 0.99309 0.13300
C 	C 	0.51080 0.49090 0.23990 -0.04900
C 	C 	0.48920 0.50910 0.76010 -0.04900
C 	C 	0.37770 0.49690 0.44921 -0.10100
C 	C 	0.59890 0.20530 0.19991 -0.23100
C 	C 	0.87870 0.49580 0.38429 -0.05900
C 	C 	0.37870 0.49580 0.11571 -0.05800
C 	C 	0.87610 0.30400 0.57440 -0.28900
C 	C 	0.12230 0.50310 0.94921 -0.10100
C 	C 	0.99460 0.40170 0.95601 -0.07700
C 	C 	0.01080 0.49090 0.26010 -0.05400
C 	C 	0.63000 0.60190 0.50691 0.13300
C 	C 	0.43990 0.10970 0.20218 0.48000
C 	C 	0.49460 0.40170 0.54399 -0.07800
C 	C 	0.50540 0.59830 0.45601 -0.07800
C 	C 	0.89630 0.38480 0.24058 -0.14600
C 	C 	0.62390 0.69600 0.07440 -0.29100
C 	C 	0.73160 0.19800 0.55828 0.53800
C 	C 	0.76840 0.80200 0.05828 0.54200
C 	C 	0.40110 0.79470 0.80009 -0.23100
C 	C 	0.87770 0.49690 0.05079 -0.10100
C 	C 	0.34390 0.14310 0.47400 0.45400
C 	C 	0.77480 0.33540 0.29398 0.19200
C 	C 	0.23130 0.19440 0.51530 -0.21700
C 	C 	0.98920 0.50910 0.73990 -0.05400
C 	C 	0.62130 0.50420 0.88429 -0.05800
C 	C 	0.00320 0.54540 0.33212 0.09900
C 	C 	0.49680 0.45460 0.83212 0.09700
C 	C 	0.73620 0.60960 0.86448 -0.14100
C 	C 	0.37000 0.39810 0.49309 0.13300
C 	C 	0.26870 0.80560 0.01530 -0.20000
C 	C 	0.76380 0.39040 0.36448 -0.14000
C 	C 	0.76870 0.80560 0.48470 -0.21700
C 	C 	0.72520 0.66460 0.79398 0.19300
C 	C 	0.90110 0.79470 0.69991 -0.24200
C 	C 	0.60370 0.61520 0.74058 -0.14900
C 	C 	0.10370 0.61520 0.75942 -0.14600
C 	C 	0.50320 0.54540 0.16788 0.09700
C 	C 	0.84390 0.14310 0.02600 0.43500
C 	C 	0.26840 0.80200 0.44172 0.53800
C 	C 	0.93990 0.10970 0.29782 0.48900
C 	C 	0.26380 0.39040 0.13552 -0.14100
C 	C 	0.12390 0.69600 0.42560 -0.28900
C 	C 	0.23160 0.19800 0.94172 0.54200
C 	C 	0.62230 0.50310 0.55079 -0.10100
C 	C 	0.00540 0.59830 0.04399 -0.07700
C 	C 	0.73130 0.19440 0.98470 -0.20000
O 	O 	0.83950 0.86441 0.11530 -0.53900
O 	O 	0.59350 0.95463 0.73700 -0.54100
O 	O 	0.84080 0.77358 0.78024 -0.32000
O 	O 	0.35310 0.09972 0.14219 -0.52800
O 	O 	0.87010 0.05760 0.99224 -0.62000
O 	O 	0.73380 0.30312 0.01701 -0.18200
O 	O 	0.33950 0.86441 0.38470 -0.54000
O 	O 	0.19980 0.18303 0.01456 -0.56500
O 	O 	0.80020 0.81697 0.98544 -0.56500
O 	O 	0.90240 0.18064 0.09185 -0.46200
O 	O 	0.09350 0.95463 0.76300 -0.53500
O 	O 	0.65920 0.22642 0.28024 -0.32200
O 	O 	0.37520 0.35105 0.84774 -0.14900
O 	O 	0.69980 0.18303 0.48544 -0.56000
O 	O 	0.66050 0.13559 0.61530 -0.54000
O 	O 	0.26620 0.69688 0.98299 -0.18200
O 	O 	0.34080 0.77358 0.71976 -0.32200
O 	O 	0.12990 0.94240 0.00776 -0.62000
O 	O 	0.14690 0.90028 0.64219 -0.52900
O 	O 	0.90650 0.04537 0.23700 -0.53500
O 	O 	0.40240 0.18064 0.40815 -0.47300
O 	O 	0.87520 0.35105 0.65226 -0.14900
O 	O 	0.12480 0.64895 0.34774 -0.14900
O 	O 	0.37010 0.05760 0.50776 -0.64200
O 	O 	0.62480 0.64895 0.15226 -0.14900
O 	O 	0.62990 0.94240 0.49224 -0.64200
O 	O 	0.09760 0.81936 0.90815 -0.46200
O 	O 	0.30020 0.81697 0.51456 -0.56000
O 	O 	0.16050 0.13559 0.88470 -0.53900
O 	O 	0.85310 0.09972 0.35781 -0.52900
O 	O 	0.76620 0.69688 0.51701 -0.17700
O 	O 	0.40650 0.04537 0.26300 -0.54100
O 	O 	0.64690 0.90028 0.85781 -0.52800
O 	O 	0.59760 0.81936 0.59185 -0.47300
O 	O 	0.15920 0.22642 0.21976 -0.32000
O 	O 	0.23380 0.30312 0.48299 -0.17700
