data_crystal

_cell_length_a 8.95290
_cell_length_b 12.22030
_cell_length_c 16.73380
_cell_angle_alpha 90.00000
_cell_angle_beta  90.00000
_cell_angle_gamma 110.00900

_symmetry_space_group_name_	'P 1'
_symmetry_space_group_name_H-M	'P 1'

loop_
_symmetry_equiv_pos_as_xyz
  x,y,z

loop_
_atom_site_label
_atom_site_type_symbol
_atom_site_fract_x
_atom_site_fract_y
_atom_site_fract_z
_atom_site_charge
Nd	Nd	0.56367 0.04773 0.88303 2.27300
Nd	Nd	0.93633 0.95227 0.38303 2.26100
Nd	Nd	0.43633 0.95227 0.11697 2.27400
Nd	Nd	0.06367 0.04773 0.61697 2.26200
H 	H 	0.08810 0.27410 0.82220 0.11800
H 	H 	0.16990 0.17990 0.83350 0.11200
H 	H 	0.40480 0.34560 0.80500 0.10100
H 	H 	0.59670 0.52480 0.77290 0.05900
H 	H 	0.36640 0.53100 0.56800 0.05200
H 	H 	0.17410 0.35700 0.60310 0.08500
H 	H 	0.52620 0.70970 0.56540 0.12500
H 	H 	0.62180 0.63290 0.53290 0.12400
H 	H 	0.87200 0.86280 0.98340 0.08700
H 	H 	0.73270 0.79440 0.92630 0.07100
H 	H 	0.50470 0.66080 0.92600 0.05000
H 	H 	0.70850 0.51020 0.08310 0.07800
H 	H 	0.41190 0.72590 0.32220 0.11700
H 	H 	0.33010 0.82010 0.33350 0.11100
H 	H 	0.09520 0.65440 0.30500 0.10100
H 	H 	0.90330 0.47520 0.27290 0.06100
H 	H 	0.13360 0.46900 0.06800 0.05200
H 	H 	0.32590 0.64300 0.10310 0.08500
H 	H 	0.97380 0.29030 0.06540 0.12800
H 	H 	0.87820 0.36710 0.03290 0.12600
H 	H 	0.62800 0.13720 0.48340 0.09300
H 	H 	0.76730 0.20560 0.42630 0.07800
H 	H 	0.99530 0.33920 0.42600 0.05100
H 	H 	0.79150 0.48980 0.58310 0.07800
H 	H 	0.91190 0.72590 0.17780 0.11800
H 	H 	0.83010 0.82010 0.16650 0.11200
H 	H 	0.59520 0.65440 0.19500 0.10100
H 	H 	0.40330 0.47520 0.22710 0.05900
H 	H 	0.63360 0.46900 0.43200 0.05200
H 	H 	0.82590 0.64300 0.39690 0.08500
H 	H 	0.47380 0.29030 0.43460 0.12500
H 	H 	0.37820 0.36710 0.46710 0.12400
H 	H 	0.12800 0.13720 0.01660 0.08700
H 	H 	0.26730 0.20560 0.07370 0.07100
H 	H 	0.49530 0.33920 0.07400 0.05000
H 	H 	0.29150 0.48980 0.91690 0.07800
H 	H 	0.58810 0.27410 0.67780 0.11700
H 	H 	0.66990 0.17990 0.66650 0.11100
H 	H 	0.90480 0.34560 0.69500 0.10100
H 	H 	0.09670 0.52480 0.72710 0.06100
H 	H 	0.86640 0.53100 0.93200 0.05200
H 	H 	0.67410 0.35700 0.89690 0.08500
H 	H 	0.02620 0.70970 0.93460 0.12800
H 	H 	0.12180 0.63290 0.96710 0.12600
H 	H 	0.37200 0.86280 0.51660 0.09300
H 	H 	0.23270 0.79440 0.57370 0.07800
H 	H 	0.00470 0.66080 0.57400 0.05100
H 	H 	0.20850 0.51020 0.41690 0.07800
C 	C 	0.93810 0.10900 0.79750 0.49000
C 	C 	0.09790 0.20360 0.80000 -0.24900
C 	C 	0.27540 0.33520 0.70550 0.19300
C 	C 	0.39810 0.38320 0.75750 -0.15200
C 	C 	0.51350 0.49000 0.73780 -0.05000
C 	C 	0.50460 0.54410 0.66660 0.09500
C 	C 	0.37520 0.49420 0.61550 -0.05300
C 	C 	0.26120 0.39020 0.63630 -0.14400
C 	C 	0.62310 0.69190 0.57190 -0.27500
C 	C 	0.76640 0.80190 0.55590 0.53400
C 	C 	0.65550 0.85870 0.02450 0.44000
C 	C 	0.76460 0.80700 0.98190 -0.19500
C 	C 	0.62960 0.60220 0.00620 0.12900
C 	C 	0.50320 0.59620 0.95580 -0.07300
C 	C 	0.62430 0.50640 0.04940 -0.10400
C 	C 	0.56190 0.89100 0.29750 0.48100
C 	C 	0.40210 0.79640 0.30000 -0.23700
C 	C 	0.22460 0.66480 0.20550 0.19300
C 	C 	0.10190 0.61680 0.25750 -0.14700
C 	C 	0.98650 0.51000 0.23780 -0.05400
C 	C 	0.99540 0.45590 0.16660 0.09500
C 	C 	0.12480 0.50580 0.11550 -0.05200
C 	C 	0.23880 0.60980 0.13630 -0.14400
C 	C 	0.87690 0.30810 0.07190 -0.27900
C 	C 	0.73360 0.19810 0.05590 0.54200
C 	C 	0.84450 0.14130 0.52450 0.46100
C 	C 	0.73540 0.19300 0.48190 -0.21800
C 	C 	0.87040 0.39780 0.50620 0.13000
C 	C 	0.99680 0.40380 0.45580 -0.07400
C 	C 	0.87570 0.49360 0.54940 -0.10500
C 	C 	0.06190 0.89100 0.20250 0.49000
C 	C 	0.90210 0.79640 0.20000 -0.24900
C 	C 	0.72460 0.66480 0.29450 0.19300
C 	C 	0.60190 0.61680 0.24250 -0.15200
C 	C 	0.48650 0.51000 0.26220 -0.05000
C 	C 	0.49540 0.45590 0.33340 0.09500
C 	C 	0.62480 0.50580 0.38450 -0.05300
C 	C 	0.73880 0.60980 0.36370 -0.14400
C 	C 	0.37690 0.30810 0.42810 -0.27500
C 	C 	0.23360 0.19810 0.44410 0.53400
C 	C 	0.34450 0.14130 0.97550 0.44000
C 	C 	0.23540 0.19300 0.01810 -0.19500
C 	C 	0.37040 0.39780 0.99380 0.12900
C 	C 	0.49680 0.40380 0.04420 -0.07300
C 	C 	0.37570 0.49360 0.95060 -0.10400
C 	C 	0.43810 0.10900 0.70250 0.48100
C 	C 	0.59790 0.20360 0.70000 -0.23700
C 	C 	0.77540 0.33520 0.79450 0.19300
C 	C 	0.89810 0.38320 0.74250 -0.14700
C 	C 	0.01350 0.49000 0.76220 -0.05400
C 	C 	0.00460 0.54410 0.83340 0.09500
C 	C 	0.87520 0.49420 0.88450 -0.05200
C 	C 	0.76120 0.39020 0.86370 -0.14400
C 	C 	0.12310 0.69190 0.92810 -0.27900
C 	C 	0.26640 0.80190 0.94410 0.54200
C 	C 	0.15550 0.85870 0.47550 0.46100
C 	C 	0.26460 0.80700 0.51810 -0.21800
C 	C 	0.12960 0.60220 0.49380 0.13000
C 	C 	0.00320 0.59620 0.54420 -0.07400
C 	C 	0.12430 0.50640 0.45060 -0.10500
O 	O 	0.84940 0.09820 0.85700 -0.52900
O 	O 	0.90270 0.04520 0.73640 -0.53500
O 	O 	0.15920 0.22490 0.71990 -0.32000
O 	O 	0.62630 0.64730 0.64940 -0.15200
O 	O 	0.83420 0.86590 0.61330 -0.54400
O 	O 	0.79890 0.81600 0.48380 -0.56300
O 	O 	0.62790 0.94190 0.99120 -0.63300
O 	O 	0.60000 0.82250 0.09150 -0.47000
O 	O 	0.76510 0.70180 0.01450 -0.18200
O 	O 	0.65060 0.90180 0.35700 -0.52800
O 	O 	0.59730 0.95480 0.23640 -0.54000
O 	O 	0.34080 0.77510 0.21990 -0.32000
O 	O 	0.87370 0.35270 0.14940 -0.15000
O 	O 	0.66580 0.13410 0.11330 -0.54200
O 	O 	0.70110 0.18400 0.98380 -0.56800
O 	O 	0.87210 0.05810 0.49120 -0.63700
O 	O 	0.90000 0.17750 0.59150 -0.47000
O 	O 	0.73490 0.29820 0.51450 -0.17300
O 	O 	0.15060 0.90180 0.14300 -0.52900
O 	O 	0.09730 0.95480 0.26360 -0.53500
O 	O 	0.84080 0.77510 0.28010 -0.32000
O 	O 	0.37370 0.35270 0.35060 -0.15200
O 	O 	0.16580 0.13410 0.38670 -0.54400
O 	O 	0.20110 0.18400 0.51620 -0.56300
O 	O 	0.37210 0.05810 0.00880 -0.63300
O 	O 	0.40000 0.17750 0.90850 -0.47000
O 	O 	0.23490 0.29820 0.98550 -0.18200
O 	O 	0.34940 0.09820 0.64300 -0.52800
O 	O 	0.40270 0.04520 0.76360 -0.54000
O 	O 	0.65920 0.22490 0.78010 -0.32000
O 	O 	0.12630 0.64730 0.85060 -0.15000
O 	O 	0.33420 0.86590 0.88670 -0.54200
O 	O 	0.29890 0.81600 0.01620 -0.56800
O 	O 	0.12790 0.94190 0.50880 -0.63700
O 	O 	0.10000 0.82250 0.40850 -0.47000
O 	O 	0.26510 0.70180 0.48550 -0.17300
