data_crystal

_cell_length_a 9.73550
_cell_length_b 10.00020
_cell_length_c 26.29500
_cell_angle_alpha 90.00000
_cell_angle_beta  90.00000
_cell_angle_gamma 90.00000

_symmetry_space_group_name_	'P 1'
_symmetry_space_group_name_H-M	'P 1'

loop_
_symmetry_equiv_pos_as_xyz
  x,y,z

loop_
_atom_site_label
_atom_site_type_symbol
_atom_site_fract_x
_atom_site_fract_y
_atom_site_fract_z
_atom_site_charge
Cd	Cd	0.46862 0.31342 0.86616 1.17700
N 	N 	0.35060 0.15290 0.91210 -0.23500
C 	C 	0.30590 0.18470 0.95980 0.02200
H 	H 	0.32580 0.26920 0.97260 0.00200
C 	C 	0.23280 0.09750 0.98970 -0.06000
C 	C 	0.25150 0.93640 0.92390 -0.11400
H 	H 	0.23850 0.85000 0.91180 0.05600
C 	C 	0.32320 0.02920 0.89560 0.05600
H 	H 	0.35410 0.00460 0.86350 -0.00500
C 	C 	0.20000 0.97360 0.96990 0.01000
H 	H 	0.14290 0.91590 0.98780 0.02700
C 	C 	0.17590 0.13900 0.04010 0.13500
O 	O 	0.04520 0.36780 0.19200 -0.33400
C 	C 	0.26160 0.21880 0.07650 0.01400
C 	C 	0.40360 0.22720 0.07320 -0.09300
H 	H 	0.45160 0.18410 0.04740 0.05800
C 	C 	0.47240 0.30270 0.11020 0.01000
H 	H 	0.56790 0.30600 0.11070 0.01500
C 	C 	0.39710 0.37200 0.14590 -0.09500
H 	H 	0.43950 0.42880 0.16910 0.05600
C 	C 	0.25290 0.35390 0.14610 0.02000
N 	N 	0.18870 0.27630 0.11310 -0.20800
C 	C 	0.16050 0.41770 0.18480 0.12400
O 	O 	0.05930 0.10650 0.05140 -0.35500
C 	C 	0.23840 0.75740 0.27250 0.06700
H 	H 	0.25270 0.83360 0.29210 -0.01700
C 	C 	0.30060 0.74880 0.22610 -0.12100
H 	H 	0.35650 0.81840 0.21500 0.05800
C 	C 	0.28170 0.63740 0.19520 0.00300
H 	H 	0.32170 0.63170 0.16310 0.02100
C 	C 	0.20040 0.53490 0.21440 -0.06500
C 	C 	0.14210 0.55210 0.26190 0.03700
H 	H 	0.08800 0.48320 0.27470 -0.01300
N 	N 	0.15840 0.66140 0.29070 -0.24500
Cd	Cd	0.03138 0.68658 0.36616 1.17500
N 	N 	0.14940 0.84710 0.41210 -0.23600
C 	C 	0.19410 0.81530 0.45980 0.02100
H 	H 	0.17420 0.73080 0.47260 0.00100
C 	C 	0.26720 0.90250 0.48970 -0.06400
C 	C 	0.24850 0.06360 0.42390 -0.11100
H 	H 	0.26150 0.15000 0.41180 0.05600
C 	C 	0.17680 0.97080 0.39560 0.05200
H 	H 	0.14590 0.99540 0.36350 -0.00400
C 	C 	0.30000 0.02640 0.46990 0.01400
H 	H 	0.35710 0.08410 0.48780 0.02700
C 	C 	0.32410 0.86100 0.54010 0.13600
O 	O 	0.45480 0.63220 0.69200 -0.33500
C 	C 	0.23840 0.78120 0.57650 0.01100
C 	C 	0.09640 0.77280 0.57320 -0.08700
H 	H 	0.04840 0.81590 0.54740 0.05400
C 	C 	0.02760 0.69730 0.61020 -0.00200
H 	H 	0.93210 0.69400 0.61070 0.02100
C 	C 	0.10290 0.62800 0.64590 -0.08900
H 	H 	0.06050 0.57120 0.66910 0.05400
C 	C 	0.24710 0.64610 0.64610 0.01700
N 	N 	0.31130 0.72370 0.61310 -0.20800
C 	C 	0.33950 0.58230 0.68480 0.12500
O 	O 	0.44070 0.89350 0.55140 -0.35800
C 	C 	0.26160 0.24260 0.77250 0.06700
H 	H 	0.24730 0.16640 0.79210 -0.01700
C 	C 	0.19940 0.25120 0.72610 -0.12100
H 	H 	0.14350 0.18160 0.71500 0.05900
C 	C 	0.21830 0.36260 0.69520 0.00400
H 	H 	0.17830 0.36830 0.66310 0.02100
C 	C 	0.29960 0.46510 0.71440 -0.06600
C 	C 	0.35790 0.44790 0.76190 0.03700
H 	H 	0.41200 0.51680 0.77470 -0.01400
N 	N 	0.34160 0.33860 0.79070 -0.24500
Cd	Cd	0.53138 0.81342 0.63384 1.17600
N 	N 	0.64940 0.65290 0.58790 -0.23600
C 	C 	0.69410 0.68470 0.54020 0.02100
H 	H 	0.67420 0.76920 0.52740 0.00200
C 	C 	0.76720 0.59750 0.51030 -0.06100
C 	C 	0.74850 0.43640 0.57610 -0.11300
H 	H 	0.76150 0.35000 0.58820 0.05600
C 	C 	0.67680 0.52920 0.60440 0.05400
H 	H 	0.64590 0.50460 0.63650 -0.00400
C 	C 	0.80000 0.47360 0.53010 0.01200
H 	H 	0.85710 0.41590 0.51220 0.02700
C 	C 	0.82410 0.63900 0.45990 0.13500
O 	O 	0.95480 0.86780 0.30800 -0.33400
C 	C 	0.73840 0.71880 0.42350 0.01400
C 	C 	0.59640 0.72720 0.42680 -0.09300
H 	H 	0.54840 0.68410 0.45260 0.05800
C 	C 	0.52760 0.80270 0.38980 0.00900
H 	H 	0.43210 0.80600 0.38930 0.01500
C 	C 	0.60290 0.87200 0.35410 -0.09500
H 	H 	0.56050 0.92880 0.33090 0.05600
C 	C 	0.74710 0.85390 0.35390 0.02000
N 	N 	0.81130 0.77630 0.38690 -0.20800
C 	C 	0.83950 0.91770 0.31520 0.12500
O 	O 	0.94070 0.60650 0.44860 -0.35600
C 	C 	0.76160 0.25740 0.22750 0.06700
H 	H 	0.74730 0.33360 0.20790 -0.01700
C 	C 	0.69940 0.24880 0.27390 -0.12100
H 	H 	0.64350 0.31840 0.28500 0.05800
C 	C 	0.71830 0.13740 0.30480 0.00300
H 	H 	0.67830 0.13170 0.33690 0.02100
C 	C 	0.79960 0.03490 0.28560 -0.06600
C 	C 	0.85790 0.05210 0.23810 0.03200
H 	H 	0.91200 0.98320 0.22530 -0.01000
N 	N 	0.84160 0.16140 0.20930 -0.24500
Cd	Cd	0.96862 0.18658 0.13384 1.17500
N 	N 	0.85060 0.34710 0.08790 -0.23700
C 	C 	0.80590 0.31530 0.04020 0.02100
H 	H 	0.82580 0.23080 0.02740 0.00000
C 	C 	0.73280 0.40250 0.01030 -0.06300
C 	C 	0.75150 0.56360 0.07610 -0.11300
H 	H 	0.73850 0.65000 0.08820 0.05600
C 	C 	0.82320 0.47080 0.10440 0.05500
H 	H 	0.85410 0.49540 0.13650 -0.00400
C 	C 	0.70000 0.52640 0.03010 0.01300
H 	H 	0.64290 0.58410 0.01220 0.02700
C 	C 	0.67590 0.36100 0.95990 0.13600
O 	O 	0.54520 0.13220 0.80800 -0.33500
C 	C 	0.76160 0.28120 0.92350 0.01200
C 	C 	0.90360 0.27280 0.92680 -0.08800
H 	H 	0.95160 0.31590 0.95260 0.05500
C 	C 	0.97240 0.19730 0.88980 -0.00000
H 	H 	0.06790 0.19400 0.88930 0.02000
C 	C 	0.89710 0.12800 0.85410 -0.09000
H 	H 	0.93950 0.07120 0.83090 0.05400
C 	C 	0.75290 0.14610 0.85390 0.01800
N 	N 	0.68870 0.22370 0.88690 -0.20800
C 	C 	0.66050 0.08230 0.81520 0.12400
O 	O 	0.55930 0.39350 0.94860 -0.35800
C 	C 	0.73840 0.74260 0.72750 0.06700
H 	H 	0.75270 0.66640 0.70790 -0.01700
C 	C 	0.80060 0.75120 0.77390 -0.12100
H 	H 	0.85650 0.68160 0.78500 0.05900
C 	C 	0.78170 0.86260 0.80480 0.00300
H 	H 	0.82170 0.86830 0.83690 0.02100
C 	C 	0.70040 0.96510 0.78560 -0.06500
C 	C 	0.64210 0.94790 0.73810 0.03700
H 	H 	0.58800 0.01680 0.72530 -0.01400
N 	N 	0.65840 0.83860 0.70930 -0.24500
