data_crystal

_cell_length_a 18.13990
_cell_length_b 21.90420
_cell_length_c 21.90420
_cell_angle_alpha 80.12740
_cell_angle_beta  65.53900
_cell_angle_gamma 65.53890

_symmetry_space_group_name_	'P 1'
_symmetry_space_group_name_H-M	'P 1'

loop_
_symmetry_equiv_pos_as_xyz
  x,y,z

loop_
_atom_site_label
_atom_site_type_symbol
_atom_site_fract_x
_atom_site_fract_y
_atom_site_fract_z
_atom_site_charge
Cu	Cu	0.88719 0.72381 0.27619 0.90400
Cu	Cu	0.99508 0.78621 0.21379 0.90600
Cu	Cu	0.88719 0.27619 0.72381 0.90400
Cu	Cu	0.99508 0.21379 0.78621 0.90600
H 	H 	0.85570 0.68130 0.10630 0.03800
H 	H 	0.86260 0.65560 0.00580 0.07000
H 	H 	0.04610 0.73410 0.90730 0.06800
H 	H 	0.03730 0.75840 0.00920 0.03800
H 	H 	0.96430 0.76480 0.83520 0.06700
H 	H 	0.95410 0.64600 0.72100 0.06800
H 	H 	0.94230 0.58850 0.90610 0.07000
H 	H 	0.01050 0.48650 0.85970 0.06100
H 	H 	0.01960 0.38520 0.83440 0.02100
H 	H 	0.87370 0.47800 0.72840 0.02800
H 	H 	0.87460 0.57790 0.74570 0.07100
H 	H 	0.64330 0.31870 0.89370 0.03500
H 	H 	0.52400 0.34440 0.99420 0.06800
H 	H 	0.68750 0.26590 0.09270 0.06900
H 	H 	0.80490 0.24160 0.99080 0.03600
H 	H 	0.56430 0.23520 0.16480 0.06500
H 	H 	0.32110 0.35400 0.27900 0.06600
H 	H 	0.43690 0.41150 0.09390 0.06800
H 	H 	0.35670 0.51350 0.14030 0.07000
H 	H 	0.23920 0.61480 0.16560 0.03100
H 	H 	0.08010 0.52200 0.27160 0.02600
H 	H 	0.19820 0.42210 0.25430 0.07000
H 	H 	0.64330 0.89370 0.31870 0.03500
H 	H 	0.52400 0.99420 0.34440 0.06800
H 	H 	0.68750 0.09270 0.26590 0.06900
H 	H 	0.80490 0.99080 0.24160 0.03600
H 	H 	0.56430 0.16480 0.23520 0.06500
H 	H 	0.32110 0.27900 0.35400 0.06600
H 	H 	0.43690 0.09390 0.41150 0.06800
H 	H 	0.35670 0.14030 0.51350 0.07000
H 	H 	0.23920 0.16560 0.61480 0.03100
H 	H 	0.08010 0.27160 0.52200 0.02600
H 	H 	0.19820 0.25430 0.42210 0.07000
H 	H 	0.85570 0.10630 0.68130 0.03700
H 	H 	0.86260 0.00580 0.65560 0.06900
H 	H 	0.04610 0.90730 0.73410 0.06800
H 	H 	0.03730 0.00920 0.75840 0.03800
H 	H 	0.96430 0.83520 0.76480 0.06700
H 	H 	0.95410 0.72100 0.64600 0.06800
H 	H 	0.94230 0.90610 0.58850 0.07000
H 	H 	0.01050 0.85970 0.48650 0.06100
H 	H 	0.01960 0.83440 0.38520 0.02100
H 	H 	0.87370 0.72840 0.47800 0.02800
H 	H 	0.87460 0.74570 0.57790 0.07100
C 	C 	0.94444 0.73641 0.13351 0.34600
C 	C 	0.94741 0.72119 0.06739 -0.08700
C 	C 	0.89423 0.69151 0.06623 0.03000
C 	C 	0.89783 0.67664 0.00590 -0.10400
C 	C 	0.95321 0.69281 0.94577 0.04700
C 	C 	0.00745 0.72345 0.94705 -0.10800
C 	C 	0.00245 0.73746 0.00824 0.02000
C 	C 	0.95763 0.67789 0.87905 0.04400
C 	C 	0.96099 0.72541 0.82841 -0.10400
C 	C 	0.95952 0.71613 0.76763 0.04200
C 	C 	0.95462 0.65440 0.76096 -0.10600
C 	C 	0.95060 0.60733 0.81027 0.04600
C 	C 	0.94895 0.61899 0.87111 -0.11200
C 	C 	0.94562 0.54276 0.80200 0.05000
C 	C 	0.98520 0.48507 0.83093 -0.10600
C 	C 	0.98760 0.42449 0.81771 0.06300
C 	C 	0.94521 0.42071 0.78147 -0.12000
C 	C 	0.90302 0.47900 0.75416 0.05200
C 	C 	0.90360 0.53892 0.76468 -0.11800
C 	C 	0.94387 0.35411 0.77195 0.36900
C 	C 	0.81436 0.26359 0.86649 0.34900
C 	C 	0.73599 0.27881 0.93261 -0.10000
C 	C 	0.65197 0.30849 0.93377 0.03400
C 	C 	0.58037 0.32336 0.99410 -0.10400
C 	C 	0.59179 0.30719 0.05423 0.03900
C 	C 	0.67795 0.27655 0.05295 -0.10400
C 	C 	0.74815 0.26254 0.99176 0.03500
C 	C 	0.51457 0.32211 0.12095 0.04300
C 	C 	0.51481 0.27459 0.17159 -0.10400
C 	C 	0.44328 0.28387 0.23237 0.04100
C 	C 	0.36998 0.34560 0.23904 -0.10600
C 	C 	0.36820 0.39267 0.18973 0.04200
C 	C 	0.43905 0.38101 0.12889 -0.11200
C 	C 	0.29038 0.45724 0.19800 0.05300
C 	C 	0.30120 0.51493 0.16907 -0.11600
C 	C 	0.22980 0.57551 0.18229 0.05000
C 	C 	0.14739 0.57929 0.21853 -0.11500
C 	C 	0.13618 0.52100 0.24584 0.04800
C 	C 	0.20720 0.46108 0.23532 -0.11900
C 	C 	0.06993 0.64589 0.22805 0.35700
C 	C 	0.81436 0.86649 0.26359 0.34900
C 	C 	0.73599 0.93261 0.27881 -0.10000
C 	C 	0.65197 0.93377 0.30849 0.03400
C 	C 	0.58037 0.99410 0.32336 -0.10400
C 	C 	0.59179 0.05423 0.30719 0.03900
C 	C 	0.67795 0.05295 0.27655 -0.10400
C 	C 	0.74815 0.99176 0.26254 0.03500
C 	C 	0.51457 0.12095 0.32211 0.04300
C 	C 	0.51481 0.17159 0.27459 -0.10400
C 	C 	0.44328 0.23237 0.28387 0.04100
C 	C 	0.36998 0.23904 0.34560 -0.10600
C 	C 	0.36820 0.18973 0.39267 0.04200
C 	C 	0.43905 0.12889 0.38101 -0.11200
C 	C 	0.29038 0.19800 0.45724 0.05300
C 	C 	0.30120 0.16907 0.51493 -0.11600
C 	C 	0.22980 0.18229 0.57551 0.05000
C 	C 	0.14739 0.21853 0.57929 -0.11500
C 	C 	0.13618 0.24584 0.52100 0.04800
C 	C 	0.20720 0.23532 0.46108 -0.11900
C 	C 	0.06993 0.22805 0.64589 0.35700
C 	C 	0.94444 0.13351 0.73641 0.34600
C 	C 	0.94741 0.06739 0.72119 -0.08700
C 	C 	0.89423 0.06623 0.69151 0.03000
C 	C 	0.89783 0.00590 0.67664 -0.10400
C 	C 	0.95321 0.94577 0.69281 0.04700
C 	C 	0.00745 0.94705 0.72345 -0.10800
C 	C 	0.00245 0.00824 0.73746 0.02000
C 	C 	0.95763 0.87905 0.67789 0.04400
C 	C 	0.96099 0.82841 0.72541 -0.10400
C 	C 	0.95952 0.76763 0.71613 0.04200
C 	C 	0.95462 0.76096 0.65440 -0.10600
C 	C 	0.95060 0.81027 0.60733 0.04600
C 	C 	0.94895 0.87111 0.61899 -0.11200
C 	C 	0.94562 0.80200 0.54276 0.05000
C 	C 	0.98520 0.83093 0.48507 -0.10600
C 	C 	0.98760 0.81771 0.42449 0.06300
C 	C 	0.94521 0.78147 0.42071 -0.12000
C 	C 	0.90302 0.75416 0.47900 0.05200
C 	C 	0.90360 0.76468 0.53892 -0.11800
C 	C 	0.94387 0.77195 0.35411 0.36900
O 	O 	0.98820 0.76829 0.13189 -0.40300
O 	O 	0.89452 0.71521 0.18597 -0.39800
O 	O 	0.98767 0.30314 0.79550 -0.41500
O 	O 	0.89788 0.35622 0.74040 -0.40900
O 	O 	0.88838 0.23171 0.86811 -0.40600
O 	O 	0.79570 0.28479 0.81403 -0.39900
O 	O 	0.08631 0.69686 0.20450 -0.41900
O 	O 	0.99450 0.64378 0.25960 -0.40000
O 	O 	0.88838 0.86811 0.23171 -0.40600
O 	O 	0.79570 0.81403 0.28479 -0.39900
O 	O 	0.08631 0.20450 0.69686 -0.41900
O 	O 	0.99450 0.25960 0.64378 -0.40000
O 	O 	0.98820 0.13189 0.76829 -0.40300
O 	O 	0.89452 0.18597 0.71521 -0.39800
O 	O 	0.98767 0.79550 0.30314 -0.41500
O 	O 	0.89788 0.74040 0.35622 -0.40900
Cu	Cu	0.83662 0.27619 0.27619 0.90300
Cu	Cu	0.79113 0.21379 0.21379 0.90300
Cu	Cu	0.38900 0.72381 0.72381 0.90300
Cu	Cu	0.21871 0.78621 0.78621 0.90300
H 	H 	0.03800 0.10630 0.31870 0.03600
H 	H 	0.13160 0.00580 0.34440 0.06700
H 	H 	0.04660 0.90730 0.26590 0.07000
H 	H 	0.95350 0.00920 0.24160 0.03400
H 	H 	0.20050 0.83520 0.23520 0.06400
H 	H 	0.32490 0.72100 0.35400 0.06600
H 	H 	0.15160 0.90610 0.41150 0.06700
H 	H 	0.12980 0.85970 0.51350 0.07000
H 	H 	0.14600 0.83440 0.61480 0.02800
H 	H 	0.39790 0.72840 0.52200 0.02700
H 	H 	0.37970 0.74570 0.42210 0.07200
H 	H 	0.46300 0.89370 0.68130 0.03500
H 	H 	0.48180 0.99420 0.65560 0.06900
H 	H 	0.21980 0.09270 0.73410 0.06800
H 	H 	0.20430 0.99080 0.75840 0.03500
H 	H 	0.27090 0.16480 0.76480 0.06400
H 	H 	0.39990 0.27900 0.64600 0.06600
H 	H 	0.46920 0.09390 0.58850 0.06800
H 	H 	0.50300 0.14030 0.48650 0.07100
H 	H 	0.59520 0.16560 0.38520 0.03000
H 	H 	0.64830 0.27160 0.47800 0.02800
H 	H 	0.54750 0.25430 0.57790 0.07200
H 	H 	0.46300 0.68130 0.89370 0.03500
H 	H 	0.48180 0.65560 0.99420 0.06900
H 	H 	0.21980 0.73410 0.09270 0.06800
H 	H 	0.20430 0.75840 0.99080 0.03500
H 	H 	0.27090 0.76480 0.16480 0.06400
H 	H 	0.39990 0.64600 0.27900 0.06600
H 	H 	0.46920 0.58850 0.09390 0.06800
H 	H 	0.50300 0.48650 0.14030 0.07100
H 	H 	0.59520 0.38520 0.16560 0.03000
H 	H 	0.64830 0.47800 0.27160 0.02800
H 	H 	0.54750 0.57790 0.25430 0.07200
H 	H 	0.03800 0.31870 0.10630 0.03600
H 	H 	0.13160 0.34440 0.00580 0.06700
H 	H 	0.04660 0.26590 0.90730 0.07000
H 	H 	0.95350 0.24160 0.00920 0.03400
H 	H 	0.20050 0.23520 0.83520 0.06400
H 	H 	0.32490 0.35400 0.72100 0.06600
H 	H 	0.15160 0.41150 0.90610 0.06700
H 	H 	0.12980 0.51350 0.85970 0.07000
H 	H 	0.14600 0.61480 0.83440 0.02800
H 	H 	0.39790 0.52200 0.72840 0.02700
H 	H 	0.37970 0.42210 0.74570 0.07200
C 	C 	0.92205 0.13351 0.26359 0.34700
C 	C 	0.98520 0.06739 0.27881 -0.09200
C 	C 	0.03954 0.06623 0.30849 0.02200
C 	C 	0.09627 0.00590 0.32336 -0.10500
C 	C 	0.10102 0.94577 0.30719 0.04300
C 	C 	0.04550 0.94705 0.27655 -0.11600
C 	C 	0.98931 0.00824 0.26254 0.04400
C 	C 	0.16332 0.87905 0.32211 0.04000
C 	C 	0.21060 0.82841 0.27459 -0.10300
C 	C 	0.27285 0.76763 0.28387 0.03900
C 	C 	0.28442 0.76096 0.34560 -0.10500
C 	C 	0.23913 0.81027 0.39267 0.04000
C 	C 	0.17994 0.87111 0.38101 -0.11000
C 	C 	0.25238 0.80200 0.45724 0.05500
C 	C 	0.18387 0.83093 0.51493 -0.12000
C 	C 	0.19469 0.81771 0.57551 0.05300
C 	C 	0.27332 0.78147 0.57929 -0.11900
C 	C 	0.34282 0.75416 0.52100 0.05200
C 	C 	0.33172 0.76468 0.46108 -0.12200
C 	C 	0.28418 0.77195 0.64589 0.36800
C 	C 	0.31915 0.86649 0.73641 0.34900
C 	C 	0.33140 0.93261 0.72119 -0.10100
C 	C 	0.41426 0.93377 0.69151 0.03400
C 	C 	0.42553 0.99410 0.67664 -0.10400
C 	C 	0.35398 0.05423 0.69281 0.04000
C 	C 	0.26910 0.05295 0.72345 -0.10600
C 	C 	0.26009 0.99176 0.73746 0.03600
C 	C 	0.36448 0.12095 0.67789 0.04200
C 	C 	0.31360 0.17159 0.72541 -0.10400
C 	C 	0.32435 0.23237 0.71613 0.04100
C 	C 	0.39098 0.23904 0.65440 -0.10500
C 	C 	0.44207 0.18973 0.60733 0.04200
C 	C 	0.43206 0.12889 0.61899 -0.11200
C 	C 	0.51162 0.19800 0.54276 0.05400
C 	C 	0.52973 0.16907 0.48507 -0.11800
C 	C 	0.58791 0.18229 0.42449 0.05300
C 	C 	0.63408 0.21853 0.42071 -0.11800
C 	C 	0.61798 0.24584 0.47900 0.05200
C 	C 	0.55748 0.23532 0.53892 -0.12100
C 	C 	0.70202 0.22805 0.35411 0.36800
C 	C 	0.31915 0.73641 0.86649 0.34900
C 	C 	0.33140 0.72119 0.93261 -0.10100
C 	C 	0.41426 0.69151 0.93377 0.03400
C 	C 	0.42553 0.67664 0.99410 -0.10400
C 	C 	0.35398 0.69281 0.05423 0.04000
C 	C 	0.26910 0.72345 0.05295 -0.10600
C 	C 	0.26009 0.73746 0.99176 0.03600
C 	C 	0.36448 0.67789 0.12095 0.04200
C 	C 	0.31360 0.72541 0.17159 -0.10400
C 	C 	0.32435 0.71613 0.23237 0.04100
C 	C 	0.39098 0.65440 0.23904 -0.10500
C 	C 	0.44207 0.60733 0.18973 0.04200
C 	C 	0.43206 0.61899 0.12889 -0.11200
C 	C 	0.51162 0.54276 0.19800 0.05400
C 	C 	0.52973 0.48507 0.16907 -0.11800
C 	C 	0.58791 0.42449 0.18229 0.05300
C 	C 	0.63408 0.42071 0.21853 -0.11800
C 	C 	0.61798 0.47900 0.24584 0.05200
C 	C 	0.55748 0.53892 0.23532 -0.12100
C 	C 	0.70202 0.35411 0.22805 0.36800
C 	C 	0.92205 0.26359 0.13351 0.34700
C 	C 	0.98520 0.27881 0.06739 -0.09200
C 	C 	0.03954 0.30849 0.06623 0.02200
C 	C 	0.09627 0.32336 0.00590 -0.10500
C 	C 	0.10102 0.30719 0.94577 0.04300
C 	C 	0.04550 0.27655 0.94705 -0.11600
C 	C 	0.98931 0.26254 0.00824 0.04400
C 	C 	0.16332 0.32211 0.87905 0.04000
C 	C 	0.21060 0.27459 0.82841 -0.10300
C 	C 	0.27285 0.28387 0.76763 0.03900
C 	C 	0.28442 0.34560 0.76096 -0.10500
C 	C 	0.23913 0.39267 0.81027 0.04000
C 	C 	0.17994 0.38101 0.87111 -0.11000
C 	C 	0.25238 0.45724 0.80200 0.05500
C 	C 	0.18387 0.51493 0.83093 -0.12000
C 	C 	0.19469 0.57551 0.81771 0.05300
C 	C 	0.27332 0.57929 0.78147 -0.11900
C 	C 	0.34282 0.52100 0.75416 0.05200
C 	C 	0.33172 0.46108 0.76468 -0.12200
C 	C 	0.28418 0.64589 0.77195 0.36800
O 	O 	0.87991 0.13189 0.23171 -0.40600
O 	O 	0.91951 0.18597 0.28479 -0.39700
O 	O 	0.21683 0.79550 0.69686 -0.41900
O 	O 	0.36172 0.74040 0.64378 -0.40900
O 	O 	0.24351 0.86811 0.76829 -0.40800
O 	O 	0.39027 0.81403 0.71521 -0.39900
O 	O 	0.70919 0.20450 0.30314 -0.41800
O 	O 	0.74590 0.25960 0.35622 -0.40900
O 	O 	0.24351 0.76829 0.86811 -0.40800
O 	O 	0.39027 0.71521 0.81403 -0.39900
O 	O 	0.70919 0.30314 0.20450 -0.41800
O 	O 	0.74590 0.35622 0.25960 -0.40900
O 	O 	0.87991 0.23171 0.13189 -0.40600
O 	O 	0.91951 0.28479 0.18597 -0.39700
O 	O 	0.21683 0.69686 0.79550 -0.41900
O 	O 	0.36172 0.64378 0.74040 -0.40900
