data_crystal

_cell_length_a 6.07620
_cell_length_b 8.85450
_cell_length_c 15.75200
_cell_angle_alpha 92.87800
_cell_angle_beta  90.00000
_cell_angle_gamma 90.00000

_symmetry_space_group_name_	'P 1'
_symmetry_space_group_name_H-M	'P 1'

loop_
_symmetry_equiv_pos_as_xyz
  x,y,z

loop_
_atom_site_label
_atom_site_type_symbol
_atom_site_fract_x
_atom_site_fract_y
_atom_site_fract_z
_atom_site_charge
Ag	Ag	0.93635 0.74632 0.82035 0.45400
Ag	Ag	0.69512 0.36126 0.30910 0.48700
Ag	Ag	0.06365 0.25368 0.17965 0.45500
Ag	Ag	0.30488 0.63874 0.69090 0.48800
Ag	Ag	0.56365 0.74632 0.32035 0.45600
Ag	Ag	0.80488 0.36126 0.80910 0.48700
Ag	Ag	0.19512 0.63874 0.19090 0.48700
Ag	Ag	0.43635 0.25368 0.67965 0.45600
H 	H 	0.04860 0.88630 0.40860 -0.03000
H 	H 	0.10910 0.38660 0.00030 0.02100
H 	H 	0.95140 0.11370 0.59140 -0.03000
H 	H 	0.27520 0.84360 0.52300 -0.00900
H 	H 	0.22480 0.84360 0.02300 -0.00900
H 	H 	0.39090 0.38660 0.50030 0.02300
H 	H 	0.60910 0.61340 0.49970 0.02300
H 	H 	0.54860 0.11370 0.09140 -0.03000
H 	H 	0.89090 0.61340 0.99970 0.02100
H 	H 	0.77520 0.15640 0.97700 -0.00900
H 	H 	0.72480 0.15640 0.47700 -0.00900
H 	H 	0.45140 0.88630 0.90860 -0.03000
C 	C 	0.25380 0.33990 0.49710 0.00700
C 	C 	0.64010 0.20560 0.98120 -0.01700
C 	C 	0.69170 0.52010 0.13540 0.28400
C 	C 	0.24620 0.33990 0.99710 0.00900
C 	C 	0.50230 0.17920 0.05070 0.00500
C 	C 	0.14010 0.79440 0.51880 -0.01600
C 	C 	0.35990 0.79440 0.01880 -0.01700
C 	C 	0.80830 0.52010 0.63540 0.28400
C 	C 	0.19170 0.47990 0.36460 0.28400
C 	C 	0.74620 0.66010 0.50290 0.00700
C 	C 	0.49770 0.82080 0.94930 0.00500
C 	C 	0.30830 0.47990 0.86460 0.28400
C 	C 	0.88380 0.63320 0.57020 -0.06300
C 	C 	0.38380 0.36680 0.92980 -0.06300
C 	C 	0.11620 0.36680 0.42980 -0.06300
C 	C 	0.00230 0.82080 0.44930 0.00500
C 	C 	0.85990 0.20560 0.48120 -0.01600
C 	C 	0.61620 0.63320 0.07020 -0.06300
C 	C 	0.75380 0.66010 0.00290 0.00900
C 	C 	0.99770 0.17920 0.55070 0.00500
N 	N 	0.69230 0.75410 0.94080 -0.17600
N 	N 	0.80770 0.75410 0.44080 -0.17500
N 	N 	0.41730 0.70090 0.07880 -0.16300
N 	N 	0.19230 0.24590 0.55920 -0.17500
N 	N 	0.91730 0.29910 0.42120 -0.16200
N 	N 	0.58270 0.29910 0.92120 -0.16300
N 	N 	0.30770 0.24590 0.05920 -0.17600
N 	N 	0.08270 0.70090 0.57880 -0.16200
O 	O 	0.87310 0.45760 0.12040 -0.37900
O 	O 	0.62690 0.45760 0.62040 -0.38000
O 	O 	0.56570 0.49870 0.19840 -0.42500
O 	O 	0.93430 0.49870 0.69840 -0.42600
O 	O 	0.12690 0.54240 0.87960 -0.37900
O 	O 	0.06570 0.50130 0.30160 -0.42600
O 	O 	0.43430 0.50130 0.80160 -0.42500
O 	O 	0.37310 0.54240 0.37960 -0.38000
