data_crystal

_cell_length_a 5.98040
_cell_length_b 8.82630
_cell_length_c 15.30320
_cell_angle_alpha 93.48000
_cell_angle_beta  90.00000
_cell_angle_gamma 90.00000

_symmetry_space_group_name_	'P 1'
_symmetry_space_group_name_H-M	'P 1'

loop_
_symmetry_equiv_pos_as_xyz
  x,y,z

loop_
_atom_site_label
_atom_site_type_symbol
_atom_site_fract_x
_atom_site_fract_y
_atom_site_fract_z
_atom_site_charge
Ag	Ag	0.68473 0.63623 0.18764 0.49500
Ag	Ag	0.45752 0.74945 0.81972 0.46100
Ag	Ag	0.18473 0.36377 0.31236 0.49500
Ag	Ag	0.95752 0.25055 0.68028 0.46000
Ag	Ag	0.31527 0.36377 0.81236 0.49400
Ag	Ag	0.54248 0.25055 0.18028 0.46000
Ag	Ag	0.81527 0.63623 0.68764 0.49400
Ag	Ag	0.04248 0.74945 0.31972 0.45900
H 	H 	0.40050 0.61670 0.00030 0.01900
H 	H 	0.95460 0.88900 0.90350 -0.03300
H 	H 	0.72300 0.85280 0.02030 -0.01000
H 	H 	0.90050 0.38330 0.49970 0.01900
H 	H 	0.45460 0.11100 0.59650 -0.03300
H 	H 	0.22300 0.14720 0.47970 -0.01000
H 	H 	0.59950 0.38330 0.99970 0.01900
H 	H 	0.04540 0.11100 0.09650 -0.03300
H 	H 	0.27700 0.14720 0.97970 -0.01000
H 	H 	0.09950 0.61670 0.50030 0.01900
H 	H 	0.54540 0.88900 0.40350 -0.03300
H 	H 	0.77700 0.85280 0.52030 -0.01000
C 	C 	0.11340 0.63420 0.06990 -0.07300
C 	C 	0.25780 0.66410 0.00230 0.01500
C 	C 	0.00170 0.82360 0.94700 0.00400
C 	C 	0.86080 0.79930 0.01590 -0.02000
C 	C 	0.18510 0.52140 0.13540 0.29500
C 	C 	0.61340 0.36580 0.43010 -0.07200
C 	C 	0.75780 0.33590 0.49770 0.01500
C 	C 	0.50170 0.17640 0.55300 0.00500
C 	C 	0.36080 0.20070 0.48410 -0.02000
C 	C 	0.68510 0.47860 0.36460 0.29500
C 	C 	0.88660 0.36580 0.93010 -0.07300
C 	C 	0.74220 0.33590 0.99770 0.01500
C 	C 	0.99830 0.17640 0.05300 0.00400
C 	C 	0.13920 0.20070 0.98410 -0.02000
C 	C 	0.81490 0.47860 0.86460 0.29500
C 	C 	0.38660 0.63420 0.56990 -0.07200
C 	C 	0.24220 0.66410 0.50230 0.01500
C 	C 	0.49830 0.82360 0.44700 0.00500
C 	C 	0.63920 0.79930 0.51590 -0.02000
C 	C 	0.31490 0.52140 0.63540 0.29500
N 	N 	0.91280 0.70150 0.07760 -0.16100
N 	N 	0.20370 0.75770 0.93940 -0.17700
N 	N 	0.41280 0.29850 0.42240 -0.16200
N 	N 	0.70370 0.24230 0.56060 -0.17800
N 	N 	0.08720 0.29850 0.92240 -0.16100
N 	N 	0.79630 0.24230 0.06060 -0.17700
N 	N 	0.58720 0.70150 0.57760 -0.16200
N 	N 	0.29630 0.75770 0.43940 -0.17800
O 	O 	0.05520 0.49920 0.19810 -0.42900
O 	O 	0.36890 0.45730 0.12000 -0.38500
O 	O 	0.55520 0.50080 0.30190 -0.42900
O 	O 	0.86890 0.54270 0.38000 -0.38400
O 	O 	0.94480 0.50080 0.80190 -0.42900
O 	O 	0.63110 0.54270 0.88000 -0.38500
O 	O 	0.44480 0.49920 0.69810 -0.42900
O 	O 	0.13110 0.45730 0.62000 -0.38400
