data_crystal

_cell_length_a 14.46850
_cell_length_b 22.85800
_cell_length_c 23.04800
_cell_angle_alpha 90.00000
_cell_angle_beta  90.00000
_cell_angle_gamma 90.00000

_symmetry_space_group_name_	'P 1'
_symmetry_space_group_name_H-M	'P 1'

loop_
_symmetry_equiv_pos_as_xyz
  x,y,z

loop_
_atom_site_label
_atom_site_type_symbol
_atom_site_fract_x
_atom_site_fract_y
_atom_site_fract_z
_atom_site_charge
Cd	Cd	0.01431 0.13516 0.38458 1.17500
S 	S 	0.10786 0.27429 0.23414 -0.15700
N 	N 	0.89380 0.08456 0.33979 -0.24100
N 	N 	0.89690 0.02496 0.33723 -0.20700
H 	H 	0.92980 0.00350 0.36060 0.07600
N 	N 	0.61670 0.06741 0.15992 -0.23300
N 	N 	0.68370 0.04185 0.12891 -0.19900
H 	H 	0.67900 0.03400 0.09210 0.07800
N 	N 	0.90750 0.17629 0.44904 -0.24000
N 	N 	0.85280 0.14093 0.48177 -0.20200
H 	H 	0.86260 0.10370 0.48660 0.07400
N 	N 	0.63590 0.33768 0.55332 -0.23800
N 	N 	0.62840 0.34877 0.49558 -0.20500
H 	H 	0.59260 0.37560 0.48090 0.07600
N 	N 	0.02690 0.20782 0.32099 -0.29100
C 	C 	0.81530 0.16270 0.28510 -0.60900
H 	H 	0.84500 0.18690 0.31420 0.16800
H 	H 	0.74900 0.16870 0.28660 0.18800
H 	H 	0.83810 0.17330 0.24690 0.18400
C 	C 	0.83660 0.09987 0.29664 0.20300
C 	C 	0.80370 0.05015 0.26692 -0.14100
C 	C 	0.84400 0.00310 0.29490 0.22500
C 	C 	0.83430 0.93900 0.28520 -0.63200
H 	H 	0.85070 0.92980 0.24550 0.19500
H 	H 	0.77090 0.92740 0.29240 0.19300
H 	H 	0.87510 0.91820 0.31150 0.19100
C 	C 	0.59210 0.09360 0.26270 -0.63000
H 	H 	0.60790 0.13400 0.27100 0.18700
H 	H 	0.60290 0.06990 0.29690 0.19700
H 	H 	0.52740 0.09120 0.25190 0.18200
C 	C 	0.65030 0.07185 0.21404 0.20400
C 	C 	0.74090 0.04989 0.21646 -0.13200
C 	C 	0.75940 0.02950 0.16100 0.20900
C 	C 	0.84090 0.99800 0.13710 -0.59600
H 	H 	0.83610 0.95670 0.14620 0.17500
H 	H 	0.89700 0.01370 0.15410 0.18100
H 	H 	0.84290 0.00300 0.09530 0.17500
C 	C 	0.91320 0.28090 0.42350 -0.61800
H 	H 	0.98000 0.27780 0.42610 0.17300
H 	H 	0.89310 0.31660 0.44250 0.19200
H 	H 	0.89490 0.28180 0.38310 0.17900
C 	C 	0.86960 0.22930 0.45270 0.20600
C 	C 	0.79020 0.22807 0.48773 -0.13500
C 	C 	0.78200 0.17030 0.50570 0.22100
C 	C 	0.71380 0.14000 0.54340 -0.62100
H 	H 	0.70780 0.09960 0.53110 0.18500
H 	H 	0.65440 0.15940 0.54030 0.18800
H 	H 	0.73480 0.14130 0.58330 0.18500
C 	C 	0.72600 0.27090 0.61570 -0.63400
H 	H 	0.73130 0.30310 0.64290 0.18500
H 	H 	0.78530 0.25150 0.61190 0.20000
H 	H 	0.68050 0.24320 0.62990 0.18600
C 	C 	0.69630 0.29380 0.55771 0.20800
C 	C 	0.72750 0.27660 0.50214 -0.14200
C 	C 	0.68260 0.31340 0.46404 0.23000
C 	C 	0.68700 0.31810 0.39970 -0.64400
H 	H 	0.62710 0.32980 0.38490 0.19900
H 	H 	0.70390 0.28040 0.38340 0.20400
H 	H 	0.73300 0.34700 0.38900 0.19300
C 	C 	0.05960 0.23600 0.28560 0.07000
Cd	Cd	0.51431 0.36484 0.61542 1.17600
S 	S 	0.60786 0.22571 0.76586 -0.15600
N 	N 	0.39380 0.41544 0.66021 -0.24000
N 	N 	0.39690 0.47504 0.66277 -0.20600
H 	H 	0.42980 0.49650 0.63940 0.07700
N 	N 	0.11670 0.43259 0.84008 -0.23200
N 	N 	0.18370 0.45815 0.87109 -0.20000
H 	H 	0.17900 0.46600 0.90790 0.07800
N 	N 	0.40750 0.32371 0.55096 -0.24000
N 	N 	0.35280 0.35907 0.51823 -0.20200
H 	H 	0.36260 0.39630 0.51340 0.07400
N 	N 	0.13590 0.16232 0.44668 -0.23800
N 	N 	0.12840 0.15123 0.50442 -0.20500
H 	H 	0.09260 0.12440 0.51910 0.07600
N 	N 	0.52690 0.29218 0.67901 -0.29100
C 	C 	0.31530 0.33730 0.71490 -0.60900
H 	H 	0.34500 0.31310 0.68580 0.16800
H 	H 	0.24900 0.33130 0.71340 0.18800
H 	H 	0.33810 0.32670 0.75310 0.18400
C 	C 	0.33660 0.40013 0.70336 0.20300
C 	C 	0.30370 0.44985 0.73308 -0.14100
C 	C 	0.34400 0.49690 0.70510 0.22500
C 	C 	0.33430 0.56100 0.71480 -0.63200
H 	H 	0.35070 0.57020 0.75450 0.19500
H 	H 	0.27090 0.57260 0.70760 0.19300
H 	H 	0.37510 0.58180 0.68850 0.19100
C 	C 	0.09210 0.40640 0.73730 -0.63000
H 	H 	0.10790 0.36600 0.72900 0.18700
H 	H 	0.10290 0.43010 0.70310 0.19700
H 	H 	0.02740 0.40880 0.74810 0.18200
C 	C 	0.15030 0.42815 0.78596 0.20500
C 	C 	0.24090 0.45011 0.78354 -0.13300
C 	C 	0.25940 0.47050 0.83900 0.21200
C 	C 	0.34090 0.50200 0.86290 -0.60200
H 	H 	0.33610 0.54330 0.85380 0.17700
H 	H 	0.39700 0.48630 0.84590 0.18300
H 	H 	0.34290 0.49700 0.90470 0.17800
C 	C 	0.41320 0.21910 0.57650 -0.61700
H 	H 	0.48000 0.22220 0.57390 0.17300
H 	H 	0.39310 0.18340 0.55750 0.19200
H 	H 	0.39490 0.21820 0.61690 0.17900
C 	C 	0.36960 0.27070 0.54730 0.20600
C 	C 	0.29020 0.27193 0.51227 -0.13500
C 	C 	0.28200 0.32970 0.49430 0.22000
C 	C 	0.21380 0.36000 0.45660 -0.62100
H 	H 	0.20780 0.40040 0.46890 0.18400
H 	H 	0.15440 0.34060 0.45970 0.18800
H 	H 	0.23480 0.35870 0.41670 0.18500
C 	C 	0.22600 0.22910 0.38430 -0.63400
H 	H 	0.23130 0.19690 0.35710 0.18500
H 	H 	0.28530 0.24850 0.38810 0.20000
H 	H 	0.18050 0.25680 0.37010 0.18600
C 	C 	0.19630 0.20620 0.44229 0.20800
C 	C 	0.22750 0.22340 0.49786 -0.14200
C 	C 	0.18260 0.18660 0.53596 0.23000
C 	C 	0.18700 0.18190 0.60030 -0.64400
H 	H 	0.12710 0.17020 0.61510 0.19900
H 	H 	0.20390 0.21960 0.61660 0.20400
H 	H 	0.23300 0.15300 0.61100 0.19300
C 	C 	0.55960 0.26400 0.71440 0.07000
Cd	Cd	0.51431 0.13516 0.11542 1.17600
S 	S 	0.60786 0.27429 0.26586 -0.15700
N 	N 	0.39380 0.08456 0.16021 -0.24000
N 	N 	0.39690 0.02496 0.16277 -0.20600
H 	H 	0.42980 0.00350 0.13940 0.07600
N 	N 	0.11670 0.06741 0.34008 -0.23200
N 	N 	0.18370 0.04185 0.37109 -0.19900
H 	H 	0.17900 0.03400 0.40790 0.07800
N 	N 	0.40750 0.17629 0.05096 -0.24000
N 	N 	0.35280 0.14093 0.01823 -0.20200
H 	H 	0.36260 0.10370 0.01340 0.07300
N 	N 	0.13590 0.33768 0.94668 -0.23900
N 	N 	0.12840 0.34877 0.00442 -0.20500
H 	H 	0.09260 0.37560 0.01910 0.07600
N 	N 	0.52690 0.20782 0.17901 -0.29100
C 	C 	0.31530 0.16270 0.21490 -0.60800
H 	H 	0.34500 0.18690 0.18580 0.16800
H 	H 	0.24900 0.16870 0.21340 0.18800
H 	H 	0.33810 0.17330 0.25310 0.18400
C 	C 	0.33660 0.09987 0.20336 0.20300
C 	C 	0.30370 0.05015 0.23308 -0.14000
C 	C 	0.34400 0.00310 0.20510 0.22400
C 	C 	0.33430 0.93900 0.21480 -0.62900
H 	H 	0.35070 0.92980 0.25450 0.19400
H 	H 	0.27090 0.92740 0.20760 0.19300
H 	H 	0.37510 0.91820 0.18850 0.19100
C 	C 	0.09210 0.09360 0.23730 -0.63000
H 	H 	0.10790 0.13400 0.22900 0.18700
H 	H 	0.10290 0.06990 0.20310 0.19700
H 	H 	0.02740 0.09120 0.24810 0.18300
C 	C 	0.15030 0.07185 0.28596 0.20400
C 	C 	0.24090 0.04989 0.28354 -0.13200
C 	C 	0.25940 0.02950 0.33900 0.20900
C 	C 	0.34090 0.99800 0.36290 -0.59400
H 	H 	0.33610 0.95670 0.35380 0.17400
H 	H 	0.39700 0.01370 0.34590 0.18000
H 	H 	0.34290 0.00300 0.40470 0.17500
C 	C 	0.41320 0.28090 0.07650 -0.61700
H 	H 	0.48000 0.27780 0.07390 0.17300
H 	H 	0.39310 0.31660 0.05750 0.19200
H 	H 	0.39490 0.28180 0.11690 0.17900
C 	C 	0.36960 0.22930 0.04730 0.20600
C 	C 	0.29020 0.22807 0.01227 -0.13500
C 	C 	0.28200 0.17030 0.99430 0.22100
C 	C 	0.21380 0.14000 0.95660 -0.62100
H 	H 	0.20780 0.09960 0.96890 0.18400
H 	H 	0.15440 0.15940 0.95970 0.18800
H 	H 	0.23480 0.14130 0.91670 0.18500
C 	C 	0.22600 0.27090 0.88430 -0.63300
H 	H 	0.23130 0.30310 0.85710 0.18500
H 	H 	0.28530 0.25150 0.88810 0.20000
H 	H 	0.18050 0.24320 0.87010 0.18600
C 	C 	0.19630 0.29380 0.94229 0.20800
C 	C 	0.22750 0.27660 0.99786 -0.14300
C 	C 	0.18260 0.31340 0.03596 0.23100
C 	C 	0.18700 0.31810 0.10030 -0.64500
H 	H 	0.12710 0.32980 0.11510 0.20000
H 	H 	0.20390 0.28040 0.11660 0.20400
H 	H 	0.23300 0.34700 0.11100 0.19300
C 	C 	0.55960 0.23600 0.21440 0.07000
Cd	Cd	0.01431 0.36484 0.88458 1.17600
S 	S 	0.10786 0.22571 0.73414 -0.15700
N 	N 	0.89380 0.41544 0.83979 -0.24000
N 	N 	0.89690 0.47504 0.83723 -0.20600
H 	H 	0.92980 0.49650 0.86060 0.07700
N 	N 	0.61670 0.43259 0.65992 -0.23200
N 	N 	0.68370 0.45815 0.62891 -0.20000
H 	H 	0.67900 0.46600 0.59210 0.07800
N 	N 	0.90750 0.32371 0.94904 -0.23900
N 	N 	0.85280 0.35907 0.98177 -0.20000
H 	H 	0.86260 0.39630 0.98660 0.07400
N 	N 	0.63590 0.16232 0.05332 -0.23900
N 	N 	0.62840 0.15123 0.99558 -0.20600
H 	H 	0.59260 0.12440 0.98090 0.07600
N 	N 	0.02690 0.29218 0.82099 -0.29100
C 	C 	0.81530 0.33730 0.78510 -0.60900
H 	H 	0.84500 0.31310 0.81420 0.16800
H 	H 	0.74900 0.33130 0.78660 0.18800
H 	H 	0.83810 0.32670 0.74690 0.18500
C 	C 	0.83660 0.40013 0.79664 0.20300
C 	C 	0.80370 0.44985 0.76692 -0.14100
C 	C 	0.84400 0.49690 0.79490 0.22600
C 	C 	0.83430 0.56100 0.78520 -0.63200
H 	H 	0.85070 0.57020 0.74550 0.19500
H 	H 	0.77090 0.57260 0.79240 0.19300
H 	H 	0.87510 0.58180 0.81150 0.19200
C 	C 	0.59210 0.40640 0.76270 -0.63100
H 	H 	0.60790 0.36600 0.77100 0.18700
H 	H 	0.60290 0.43010 0.79690 0.19700
H 	H 	0.52740 0.40880 0.75190 0.18300
C 	C 	0.65030 0.42815 0.71404 0.20500
C 	C 	0.74090 0.45011 0.71646 -0.13300
C 	C 	0.75940 0.47050 0.66100 0.21200
C 	C 	0.84090 0.50200 0.63710 -0.60300
H 	H 	0.83610 0.54330 0.64620 0.17700
H 	H 	0.89700 0.48630 0.65410 0.18400
H 	H 	0.84290 0.49700 0.59530 0.17800
C 	C 	0.91320 0.21910 0.92350 -0.61700
H 	H 	0.98000 0.22220 0.92610 0.17400
H 	H 	0.89310 0.18340 0.94250 0.19200
H 	H 	0.89490 0.21820 0.88310 0.17900
C 	C 	0.86960 0.27070 0.95270 0.20500
C 	C 	0.79020 0.27193 0.98773 -0.12900
C 	C 	0.78200 0.32970 0.00570 0.21500
C 	C 	0.71380 0.36000 0.04340 -0.61500
H 	H 	0.70780 0.40040 0.03110 0.18200
H 	H 	0.65440 0.34060 0.04030 0.18600
H 	H 	0.73480 0.35870 0.08330 0.18300
C 	C 	0.72600 0.22910 0.11570 -0.63600
H 	H 	0.73130 0.19690 0.14290 0.18600
H 	H 	0.78530 0.24850 0.11190 0.20000
H 	H 	0.68050 0.25680 0.12990 0.18600
C 	C 	0.69630 0.20620 0.05771 0.21000
C 	C 	0.72750 0.22340 0.00214 -0.14800
C 	C 	0.68260 0.18660 0.96404 0.23400
C 	C 	0.68700 0.18190 0.89970 -0.64900
H 	H 	0.62710 0.17020 0.88490 0.20100
H 	H 	0.70390 0.21960 0.88340 0.20500
H 	H 	0.73300 0.15300 0.88900 0.19400
C 	C 	0.05960 0.26400 0.78560 0.07000
Cd	Cd	0.48569 0.86484 0.88458 1.17600
S 	S 	0.39214 0.72571 0.73414 -0.15700
N 	N 	0.60620 0.91544 0.83979 -0.24000
N 	N 	0.60310 0.97504 0.83723 -0.20600
H 	H 	0.57020 0.99650 0.86060 0.07600
N 	N 	0.88330 0.93259 0.65992 -0.23200
N 	N 	0.81630 0.95815 0.62891 -0.19900
H 	H 	0.82100 0.96600 0.59210 0.07800
N 	N 	0.59250 0.82371 0.94904 -0.24000
N 	N 	0.64720 0.85907 0.98177 -0.20200
H 	H 	0.63740 0.89630 0.98660 0.07300
N 	N 	0.86410 0.66232 0.05332 -0.23900
N 	N 	0.87160 0.65123 0.99558 -0.20500
H 	H 	0.90740 0.62440 0.98090 0.07600
N 	N 	0.47310 0.79218 0.82099 -0.29100
C 	C 	0.68470 0.83730 0.78510 -0.60800
H 	H 	0.65500 0.81310 0.81420 0.16800
H 	H 	0.75100 0.83130 0.78660 0.18800
H 	H 	0.66190 0.82670 0.74690 0.18400
C 	C 	0.66340 0.90013 0.79664 0.20300
C 	C 	0.69630 0.94985 0.76692 -0.14000
C 	C 	0.65600 0.99690 0.79490 0.22400
C 	C 	0.66570 0.06100 0.78520 -0.62900
H 	H 	0.64930 0.07020 0.74550 0.19400
H 	H 	0.72910 0.07260 0.79240 0.19300
H 	H 	0.62490 0.08180 0.81150 0.19100
C 	C 	0.90790 0.90640 0.76270 -0.63000
H 	H 	0.89210 0.86600 0.77100 0.18700
H 	H 	0.89710 0.93010 0.79690 0.19700
H 	H 	0.97260 0.90880 0.75190 0.18300
C 	C 	0.84970 0.92815 0.71404 0.20400
C 	C 	0.75910 0.95011 0.71646 -0.13200
C 	C 	0.74060 0.97050 0.66100 0.20900
C 	C 	0.65910 0.00200 0.63710 -0.59400
H 	H 	0.66390 0.04330 0.64620 0.17400
H 	H 	0.60300 0.98630 0.65410 0.18000
H 	H 	0.65710 0.99700 0.59530 0.17500
C 	C 	0.58680 0.71910 0.92350 -0.61700
H 	H 	0.52000 0.72220 0.92610 0.17300
H 	H 	0.60690 0.68340 0.94250 0.19200
H 	H 	0.60510 0.71820 0.88310 0.17900
C 	C 	0.63040 0.77070 0.95270 0.20600
C 	C 	0.70980 0.77193 0.98773 -0.13500
C 	C 	0.71800 0.82970 0.00570 0.22100
C 	C 	0.78620 0.86000 0.04340 -0.62100
H 	H 	0.79220 0.90040 0.03110 0.18400
H 	H 	0.84560 0.84060 0.04030 0.18800
H 	H 	0.76520 0.85870 0.08330 0.18500
C 	C 	0.77400 0.72910 0.11570 -0.63300
H 	H 	0.76870 0.69690 0.14290 0.18500
H 	H 	0.71470 0.74850 0.11190 0.20000
H 	H 	0.81950 0.75680 0.12990 0.18600
C 	C 	0.80370 0.70620 0.05771 0.20800
C 	C 	0.77250 0.72340 0.00214 -0.14300
C 	C 	0.81740 0.68660 0.96404 0.23100
C 	C 	0.81300 0.68190 0.89970 -0.64500
H 	H 	0.87290 0.67020 0.88490 0.20000
H 	H 	0.79610 0.71960 0.88340 0.20400
H 	H 	0.76700 0.65300 0.88900 0.19300
C 	C 	0.44040 0.76400 0.78560 0.07000
Cd	Cd	0.98569 0.63516 0.11542 1.17600
S 	S 	0.89214 0.77429 0.26586 -0.15700
N 	N 	0.10620 0.58456 0.16021 -0.24000
N 	N 	0.10310 0.52496 0.16277 -0.20600
H 	H 	0.07020 0.50350 0.13940 0.07700
N 	N 	0.38330 0.56741 0.34008 -0.23200
N 	N 	0.31630 0.54185 0.37109 -0.20000
H 	H 	0.32100 0.53400 0.40790 0.07800
N 	N 	0.09250 0.67629 0.05096 -0.23900
N 	N 	0.14720 0.64093 0.01823 -0.20000
H 	H 	0.13740 0.60370 0.01340 0.07400
N 	N 	0.36410 0.83768 0.94668 -0.23900
N 	N 	0.37160 0.84877 0.00442 -0.20600
H 	H 	0.40740 0.87560 0.01910 0.07600
N 	N 	0.97310 0.70782 0.17901 -0.29100
C 	C 	0.18470 0.66270 0.21490 -0.60900
H 	H 	0.15500 0.68690 0.18580 0.16800
H 	H 	0.25100 0.66870 0.21340 0.18800
H 	H 	0.16190 0.67330 0.25310 0.18500
C 	C 	0.16340 0.59987 0.20336 0.20300
C 	C 	0.19630 0.55015 0.23308 -0.14100
C 	C 	0.15600 0.50310 0.20510 0.22600
C 	C 	0.16570 0.43900 0.21480 -0.63200
H 	H 	0.14930 0.42980 0.25450 0.19500
H 	H 	0.22910 0.42740 0.20760 0.19300
H 	H 	0.12490 0.41820 0.18850 0.19200
C 	C 	0.40790 0.59360 0.23730 -0.63100
H 	H 	0.39210 0.63400 0.22900 0.18700
H 	H 	0.39710 0.56990 0.20310 0.19700
H 	H 	0.47260 0.59120 0.24810 0.18300
C 	C 	0.34970 0.57185 0.28596 0.20500
C 	C 	0.25910 0.54989 0.28354 -0.13300
C 	C 	0.24060 0.52950 0.33900 0.21200
C 	C 	0.15910 0.49800 0.36290 -0.60300
H 	H 	0.16390 0.45670 0.35380 0.17700
H 	H 	0.10300 0.51370 0.34590 0.18400
H 	H 	0.15710 0.50300 0.40470 0.17800
C 	C 	0.08680 0.78090 0.07650 -0.61700
H 	H 	0.02000 0.77780 0.07390 0.17400
H 	H 	0.10690 0.81660 0.05750 0.19200
H 	H 	0.10510 0.78180 0.11690 0.17900
C 	C 	0.13040 0.72930 0.04730 0.20500
C 	C 	0.20980 0.72807 0.01227 -0.12900
C 	C 	0.21800 0.67030 0.99430 0.21500
C 	C 	0.28620 0.64000 0.95660 -0.61500
H 	H 	0.29220 0.59960 0.96890 0.18200
H 	H 	0.34560 0.65940 0.95970 0.18600
H 	H 	0.26520 0.64130 0.91670 0.18300
C 	C 	0.27400 0.77090 0.88430 -0.63600
H 	H 	0.26870 0.80310 0.85710 0.18600
H 	H 	0.21470 0.75150 0.88810 0.20000
H 	H 	0.31950 0.74320 0.87010 0.18600
C 	C 	0.30370 0.79380 0.94229 0.21000
C 	C 	0.27250 0.77660 0.99786 -0.14800
C 	C 	0.31740 0.81340 0.03596 0.23400
C 	C 	0.31300 0.81810 0.10030 -0.64900
H 	H 	0.37290 0.82980 0.11510 0.20100
H 	H 	0.29610 0.78040 0.11660 0.20500
H 	H 	0.26700 0.84700 0.11100 0.19400
C 	C 	0.94040 0.73600 0.21440 0.07000
Cd	Cd	0.98569 0.86484 0.61542 1.17600
S 	S 	0.89214 0.72571 0.76586 -0.15600
N 	N 	0.10620 0.91544 0.66021 -0.24000
N 	N 	0.10310 0.97504 0.66277 -0.20600
H 	H 	0.07020 0.99650 0.63940 0.07700
N 	N 	0.38330 0.93259 0.84008 -0.23200
N 	N 	0.31630 0.95815 0.87109 -0.19900
H 	H 	0.32100 0.96600 0.90790 0.07800
N 	N 	0.09250 0.82371 0.55096 -0.24000
N 	N 	0.14720 0.85907 0.51823 -0.20200
H 	H 	0.13740 0.89630 0.51340 0.07400
N 	N 	0.36410 0.66232 0.44668 -0.23800
N 	N 	0.37160 0.65123 0.50442 -0.20500
H 	H 	0.40740 0.62440 0.51910 0.07600
N 	N 	0.97310 0.79218 0.67901 -0.29100
C 	C 	0.18470 0.83730 0.71490 -0.60900
H 	H 	0.15500 0.81310 0.68580 0.16800
H 	H 	0.25100 0.83130 0.71340 0.18800
H 	H 	0.16190 0.82670 0.75310 0.18400
C 	C 	0.16340 0.90013 0.70336 0.20300
C 	C 	0.19630 0.94985 0.73308 -0.14100
C 	C 	0.15600 0.99690 0.70510 0.22500
C 	C 	0.16570 0.06100 0.71480 -0.63200
H 	H 	0.14930 0.07020 0.75450 0.19500
H 	H 	0.22910 0.07260 0.70760 0.19300
H 	H 	0.12490 0.08180 0.68850 0.19100
C 	C 	0.40790 0.90640 0.73730 -0.63000
H 	H 	0.39210 0.86600 0.72900 0.18700
H 	H 	0.39710 0.93010 0.70310 0.19700
H 	H 	0.47260 0.90880 0.74810 0.18200
C 	C 	0.34970 0.92815 0.78596 0.20400
C 	C 	0.25910 0.95011 0.78354 -0.13200
C 	C 	0.24060 0.97050 0.83900 0.20900
C 	C 	0.15910 0.00200 0.86290 -0.59600
H 	H 	0.16390 0.04330 0.85380 0.17500
H 	H 	0.10300 0.98630 0.84590 0.18100
H 	H 	0.15710 0.99700 0.90470 0.17500
C 	C 	0.08680 0.71910 0.57650 -0.61800
H 	H 	0.02000 0.72220 0.57390 0.17300
H 	H 	0.10690 0.68340 0.55750 0.19200
H 	H 	0.10510 0.71820 0.61690 0.17900
C 	C 	0.13040 0.77070 0.54730 0.20600
C 	C 	0.20980 0.77193 0.51227 -0.13500
C 	C 	0.21800 0.82970 0.49430 0.22100
C 	C 	0.28620 0.86000 0.45660 -0.62100
H 	H 	0.29220 0.90040 0.46890 0.18500
H 	H 	0.34560 0.84060 0.45970 0.18800
H 	H 	0.26520 0.85870 0.41670 0.18500
C 	C 	0.27400 0.72910 0.38430 -0.63400
H 	H 	0.26870 0.69690 0.35710 0.18500
H 	H 	0.21470 0.74850 0.38810 0.20000
H 	H 	0.31950 0.75680 0.37010 0.18600
C 	C 	0.30370 0.70620 0.44229 0.20800
C 	C 	0.27250 0.72340 0.49786 -0.14200
C 	C 	0.31740 0.68660 0.53596 0.23000
C 	C 	0.31300 0.68190 0.60030 -0.64400
H 	H 	0.37290 0.67020 0.61510 0.19900
H 	H 	0.29610 0.71960 0.61660 0.20400
H 	H 	0.26700 0.65300 0.61100 0.19300
C 	C 	0.94040 0.76400 0.71440 0.07000
Cd	Cd	0.48569 0.63516 0.38458 1.17600
S 	S 	0.39214 0.77429 0.23414 -0.15600
N 	N 	0.60620 0.58456 0.33979 -0.24000
N 	N 	0.60310 0.52496 0.33723 -0.20600
H 	H 	0.57020 0.50350 0.36060 0.07700
N 	N 	0.88330 0.56741 0.15992 -0.23200
N 	N 	0.81630 0.54185 0.12891 -0.20000
H 	H 	0.82100 0.53400 0.09210 0.07800
N 	N 	0.59250 0.67629 0.44904 -0.24000
N 	N 	0.64720 0.64093 0.48177 -0.20200
H 	H 	0.63740 0.60370 0.48660 0.07400
N 	N 	0.86410 0.83768 0.55332 -0.23800
N 	N 	0.87160 0.84877 0.49558 -0.20500
H 	H 	0.90740 0.87560 0.48090 0.07600
N 	N 	0.47310 0.70782 0.32099 -0.29100
C 	C 	0.68470 0.66270 0.28510 -0.60900
H 	H 	0.65500 0.68690 0.31420 0.16800
H 	H 	0.75100 0.66870 0.28660 0.18800
H 	H 	0.66190 0.67330 0.24690 0.18400
C 	C 	0.66340 0.59987 0.29664 0.20300
C 	C 	0.69630 0.55015 0.26692 -0.14100
C 	C 	0.65600 0.50310 0.29490 0.22500
C 	C 	0.66570 0.43900 0.28520 -0.63200
H 	H 	0.64930 0.42980 0.24550 0.19500
H 	H 	0.72910 0.42740 0.29240 0.19300
H 	H 	0.62490 0.41820 0.31150 0.19100
C 	C 	0.90790 0.59360 0.26270 -0.63000
H 	H 	0.89210 0.63400 0.27100 0.18700
H 	H 	0.89710 0.56990 0.29690 0.19700
H 	H 	0.97260 0.59120 0.25190 0.18200
C 	C 	0.84970 0.57185 0.21404 0.20500
C 	C 	0.75910 0.54989 0.21646 -0.13300
C 	C 	0.74060 0.52950 0.16100 0.21200
C 	C 	0.65910 0.49800 0.13710 -0.60200
H 	H 	0.66390 0.45670 0.14620 0.17700
H 	H 	0.60300 0.51370 0.15410 0.18300
H 	H 	0.65710 0.50300 0.09530 0.17800
C 	C 	0.58680 0.78090 0.42350 -0.61700
H 	H 	0.52000 0.77780 0.42610 0.17300
H 	H 	0.60690 0.81660 0.44250 0.19200
H 	H 	0.60510 0.78180 0.38310 0.17900
C 	C 	0.63040 0.72930 0.45270 0.20600
C 	C 	0.70980 0.72807 0.48773 -0.13500
C 	C 	0.71800 0.67030 0.50570 0.22000
C 	C 	0.78620 0.64000 0.54340 -0.62100
H 	H 	0.79220 0.59960 0.53110 0.18400
H 	H 	0.84560 0.65940 0.54030 0.18800
H 	H 	0.76520 0.64130 0.58330 0.18500
C 	C 	0.77400 0.77090 0.61570 -0.63400
H 	H 	0.76870 0.80310 0.64290 0.18500
H 	H 	0.71470 0.75150 0.61190 0.20000
H 	H 	0.81950 0.74320 0.62990 0.18600
C 	C 	0.80370 0.79380 0.55771 0.20800
C 	C 	0.77250 0.77660 0.50214 -0.14200
C 	C 	0.81740 0.81340 0.46404 0.23000
C 	C 	0.81300 0.81810 0.39970 -0.64400
H 	H 	0.87290 0.82980 0.38490 0.19900
H 	H 	0.79610 0.78040 0.38340 0.20400
H 	H 	0.76700 0.84700 0.38900 0.19300
C 	C 	0.44040 0.73600 0.28560 0.07000
