data_crystal

_cell_length_a 13.68690
_cell_length_b 15.53830
_cell_length_c 15.87700
_cell_angle_alpha 90.00000
_cell_angle_beta  90.04700
_cell_angle_gamma 90.00000

_symmetry_space_group_name_	'P 1'
_symmetry_space_group_name_H-M	'P 1'

loop_
_symmetry_equiv_pos_as_xyz
  x,y,z

loop_
_atom_site_label
_atom_site_type_symbol
_atom_site_fract_x
_atom_site_fract_y
_atom_site_fract_z
_atom_site_charge
N 	N 	0.10870 0.09683 0.77600 -0.25500
N 	N 	0.08520 0.15123 0.83930 -0.19300
H 	H 	0.04370 0.13910 0.87900 0.03600
N 	N 	0.38050 0.38430 0.72454 -0.25900
N 	N 	0.32650 0.38750 0.65320 -0.19600
H 	H 	0.33770 0.42260 0.61160 0.06200
C 	C 	0.21670 0.09870 0.65170 -0.56700
H 	H 	0.22180 0.03700 0.65960 0.14500
H 	H 	0.28130 0.12270 0.64250 0.17500
H 	H 	0.17570 0.11070 0.60330 0.13900
C 	C 	0.17260 0.13850 0.72860 0.17900
C 	C 	0.19040 0.22170 0.76210 -0.12300
C 	C 	0.13360 0.22650 0.83350 0.17600
C 	C 	0.12270 0.29450 0.89910 -0.53600
H 	H 	0.05400 0.30320 0.91110 0.12900
H 	H 	0.15110 0.34780 0.87890 0.15300
H 	H 	0.15610 0.27660 0.95010 0.14900
C 	C 	0.38030 0.30030 0.85610 -0.60300
H 	H 	0.45110 0.30290 0.85390 0.15800
H 	H 	0.36010 0.24240 0.87090 0.18500
H 	H 	0.35660 0.34040 0.89820 0.15700
C 	C 	0.33950 0.32350 0.77250 0.19400
C 	C 	0.25750 0.28880 0.73020 -0.13500
C 	C 	0.25330 0.33000 0.65440 0.18700
C 	C 	0.18080 0.32450 0.58390 -0.53400
H 	H 	0.20720 0.28900 0.53910 0.14500
H 	H 	0.16760 0.38170 0.56240 0.14200
H 	H 	0.12060 0.29910 0.60450 0.13800
N 	N 	0.60870 0.59683 0.77600 -0.24500
N 	N 	0.58520 0.65123 0.83930 -0.19800
H 	H 	0.54370 0.63910 0.87900 0.06100
N 	N 	0.88050 0.88430 0.72454 -0.24200
N 	N 	0.82650 0.88750 0.65320 -0.20000
H 	H 	0.83770 0.92260 0.61160 0.07700
C 	C 	0.71670 0.59870 0.65170 -0.60900
H 	H 	0.72180 0.53700 0.65960 0.16400
H 	H 	0.78130 0.62270 0.64250 0.19600
H 	H 	0.67570 0.61070 0.60330 0.16500
C 	C 	0.67260 0.63850 0.72860 0.20300
C 	C 	0.69040 0.72170 0.76210 -0.12800
C 	C 	0.63360 0.72650 0.83350 0.20900
C 	C 	0.62270 0.79450 0.89910 -0.59600
H 	H 	0.55400 0.80320 0.91110 0.17400
H 	H 	0.65110 0.84780 0.87890 0.18000
H 	H 	0.65610 0.77660 0.95010 0.17100
C 	C 	0.88030 0.80030 0.85610 -0.66200
H 	H 	0.95110 0.80290 0.85390 0.20500
H 	H 	0.86010 0.74240 0.87090 0.21200
H 	H 	0.85660 0.84040 0.89820 0.18300
C 	C 	0.83950 0.82350 0.77250 0.22500
C 	C 	0.75750 0.78880 0.73020 -0.14500
C 	C 	0.75330 0.83000 0.65440 0.21800
C 	C 	0.68080 0.82450 0.58390 -0.60000
H 	H 	0.70720 0.78900 0.53910 0.17200
H 	H 	0.66760 0.88170 0.56240 0.17600
H 	H 	0.62060 0.79910 0.60450 0.18100
N 	N 	0.89130 0.09683 0.72400 -0.22700
N 	N 	0.91480 0.15123 0.66070 -0.20300
H 	H 	0.95630 0.13910 0.62100 0.09100
N 	N 	0.61950 0.38430 0.77546 -0.25800
N 	N 	0.67350 0.38750 0.84680 -0.20500
H 	H 	0.66230 0.42260 0.88840 0.06600
C 	C 	0.78330 0.09870 0.84830 -0.61600
H 	H 	0.77820 0.03700 0.84040 0.16700
H 	H 	0.71870 0.12270 0.85750 0.18900
H 	H 	0.82430 0.11070 0.89670 0.18000
C 	C 	0.82740 0.13850 0.77140 0.21500
C 	C 	0.80960 0.22170 0.73790 -0.14000
C 	C 	0.86640 0.22650 0.66650 0.24600
C 	C 	0.87730 0.29450 0.60090 -0.66200
H 	H 	0.94600 0.30320 0.58890 0.22100
H 	H 	0.84890 0.34780 0.62110 0.21000
H 	H 	0.84390 0.27660 0.54990 0.19600
C 	C 	0.61970 0.30030 0.64390 -0.60600
H 	H 	0.54890 0.30290 0.64610 0.15900
H 	H 	0.63990 0.24240 0.62910 0.18500
H 	H 	0.64340 0.34040 0.60180 0.15900
C 	C 	0.66050 0.32350 0.72750 0.19600
C 	C 	0.74250 0.28880 0.76980 -0.13700
C 	C 	0.74670 0.33000 0.84560 0.22800
C 	C 	0.81920 0.32450 0.91610 -0.64800
H 	H 	0.79280 0.28900 0.96090 0.19100
H 	H 	0.83240 0.38170 0.93760 0.20300
H 	H 	0.87940 0.29910 0.89550 0.21900
N 	N 	0.39130 0.59683 0.72400 -0.24400
N 	N 	0.41480 0.65123 0.66070 -0.19900
H 	H 	0.45630 0.63910 0.62100 0.06100
N 	N 	0.11950 0.88430 0.77546 -0.26900
N 	N 	0.17350 0.88750 0.84680 -0.20100
H 	H 	0.16230 0.92260 0.88840 0.05200
C 	C 	0.28330 0.59870 0.84830 -0.57100
H 	H 	0.27820 0.53700 0.84040 0.14300
H 	H 	0.21870 0.62270 0.85750 0.16500
H 	H 	0.32430 0.61070 0.89670 0.15100
C 	C 	0.32740 0.63850 0.77140 0.18800
C 	C 	0.30960 0.72170 0.73790 -0.13400
C 	C 	0.36640 0.72650 0.66650 0.21000
C 	C 	0.37730 0.79450 0.60090 -0.59800
H 	H 	0.44600 0.80320 0.58890 0.17400
H 	H 	0.34890 0.84780 0.62110 0.18100
H 	H 	0.34390 0.77660 0.54990 0.17200
C 	C 	0.11970 0.80030 0.64390 -0.54500
H 	H 	0.04890 0.80290 0.64610 0.11400
H 	H 	0.13990 0.74240 0.62910 0.15800
H 	H 	0.14340 0.84040 0.60180 0.13400
C 	C 	0.16050 0.82350 0.72750 0.16600
C 	C 	0.24250 0.78880 0.76980 -0.12700
C 	C 	0.24670 0.83000 0.84560 0.19700
C 	C 	0.31920 0.82450 0.91610 -0.58100
H 	H 	0.29280 0.78900 0.96090 0.16300
H 	H 	0.33240 0.88170 0.93760 0.16900
H 	H 	0.37940 0.79910 0.89550 0.17600
Cd	Cd	0.00000 0.98395 0.75000 1.12600
Cd	Cd	0.50000 0.48395 0.75000 1.15500
N 	N 	0.89130 0.90317 0.22400 -0.22600
N 	N 	0.91480 0.84877 0.16070 -0.20300
H 	H 	0.95630 0.86090 0.12100 0.09100
N 	N 	0.61950 0.61570 0.27546 -0.25800
N 	N 	0.67350 0.61250 0.34680 -0.20500
H 	H 	0.66230 0.57740 0.38840 0.06600
C 	C 	0.78330 0.90130 0.34830 -0.61500
H 	H 	0.77820 0.96300 0.34040 0.16700
H 	H 	0.71870 0.87730 0.35750 0.18800
H 	H 	0.82430 0.88930 0.39670 0.17900
C 	C 	0.82740 0.86150 0.27140 0.21500
C 	C 	0.80960 0.77830 0.23790 -0.14000
C 	C 	0.86640 0.77350 0.16650 0.24600
C 	C 	0.87730 0.70550 0.10090 -0.66200
H 	H 	0.94600 0.69680 0.08890 0.22100
H 	H 	0.84890 0.65220 0.12110 0.21000
H 	H 	0.84390 0.72340 0.04990 0.19600
C 	C 	0.61970 0.69970 0.14390 -0.60600
H 	H 	0.54890 0.69710 0.14610 0.16000
H 	H 	0.63990 0.75760 0.12910 0.18600
H 	H 	0.64340 0.65960 0.10180 0.16000
C 	C 	0.66050 0.67650 0.22750 0.19600
C 	C 	0.74250 0.71120 0.26980 -0.13700
C 	C 	0.74670 0.67000 0.34560 0.22900
C 	C 	0.81920 0.67550 0.41610 -0.64800
H 	H 	0.79280 0.71100 0.46090 0.19200
H 	H 	0.83240 0.61830 0.43760 0.20400
H 	H 	0.87940 0.70090 0.39550 0.22000
N 	N 	0.39130 0.40317 0.22400 -0.24400
N 	N 	0.41480 0.34877 0.16070 -0.19900
H 	H 	0.45630 0.36090 0.12100 0.06100
N 	N 	0.11950 0.11570 0.27546 -0.26900
N 	N 	0.17350 0.11250 0.34680 -0.20100
H 	H 	0.16230 0.07740 0.38840 0.05200
C 	C 	0.28330 0.40130 0.34830 -0.57100
H 	H 	0.27820 0.46300 0.34040 0.14300
H 	H 	0.21870 0.37730 0.35750 0.16400
H 	H 	0.32430 0.38930 0.39670 0.15100
C 	C 	0.32740 0.36150 0.27140 0.18800
C 	C 	0.30960 0.27830 0.23790 -0.13400
C 	C 	0.36640 0.27350 0.16650 0.21000
C 	C 	0.37730 0.20550 0.10090 -0.59700
H 	H 	0.44600 0.19680 0.08890 0.17400
H 	H 	0.34890 0.15220 0.12110 0.18000
H 	H 	0.34390 0.22340 0.04990 0.17100
C 	C 	0.11970 0.19970 0.14390 -0.54500
H 	H 	0.04890 0.19710 0.14610 0.11400
H 	H 	0.13990 0.25760 0.12910 0.15800
H 	H 	0.14340 0.15960 0.10180 0.13300
C 	C 	0.16050 0.17650 0.22750 0.16600
C 	C 	0.24250 0.21120 0.26980 -0.12800
C 	C 	0.24670 0.17000 0.34560 0.19700
C 	C 	0.31920 0.17550 0.41610 -0.58300
H 	H 	0.29280 0.21100 0.46090 0.16400
H 	H 	0.33240 0.11830 0.43760 0.17000
H 	H 	0.37940 0.20090 0.39550 0.17600
N 	N 	0.10870 0.90317 0.27600 -0.25600
N 	N 	0.08520 0.84877 0.33930 -0.19400
H 	H 	0.04370 0.86090 0.37900 0.03400
N 	N 	0.38050 0.61570 0.22454 -0.26000
N 	N 	0.32650 0.61250 0.15320 -0.19700
H 	H 	0.33770 0.57740 0.11160 0.06100
C 	C 	0.21670 0.90130 0.15170 -0.56900
H 	H 	0.22180 0.96300 0.15960 0.14500
H 	H 	0.28130 0.87730 0.14250 0.17500
H 	H 	0.17570 0.88930 0.10330 0.14000
C 	C 	0.17260 0.86150 0.22860 0.17900
C 	C 	0.19040 0.77830 0.26210 -0.12300
C 	C 	0.13360 0.77350 0.33350 0.17500
C 	C 	0.12270 0.70550 0.39910 -0.53400
H 	H 	0.05400 0.69680 0.41110 0.12900
H 	H 	0.15110 0.65220 0.37890 0.15200
H 	H 	0.15610 0.72340 0.45010 0.14800
C 	C 	0.38030 0.69970 0.35610 -0.60200
H 	H 	0.45110 0.69710 0.35390 0.15800
H 	H 	0.36010 0.75760 0.37090 0.18500
H 	H 	0.35660 0.65960 0.39820 0.15700
C 	C 	0.33950 0.67650 0.27250 0.19400
C 	C 	0.25750 0.71120 0.23020 -0.13500
C 	C 	0.25330 0.67000 0.15440 0.18700
C 	C 	0.18080 0.67550 0.08390 -0.53500
H 	H 	0.20720 0.71100 0.03910 0.14600
H 	H 	0.16760 0.61830 0.06240 0.14300
H 	H 	0.12060 0.70090 0.10450 0.13900
N 	N 	0.60870 0.40317 0.27600 -0.24500
N 	N 	0.58520 0.34877 0.33930 -0.19800
H 	H 	0.54370 0.36090 0.37900 0.06200
N 	N 	0.88050 0.11570 0.22454 -0.24200
N 	N 	0.82650 0.11250 0.15320 -0.20000
H 	H 	0.83770 0.07740 0.11160 0.07700
C 	C 	0.71670 0.40130 0.15170 -0.60900
H 	H 	0.72180 0.46300 0.15960 0.16400
H 	H 	0.78130 0.37730 0.14250 0.19600
H 	H 	0.67570 0.38930 0.10330 0.16500
C 	C 	0.67260 0.36150 0.22860 0.20300
C 	C 	0.69040 0.27830 0.26210 -0.12800
C 	C 	0.63360 0.27350 0.33350 0.20900
C 	C 	0.62270 0.20550 0.39910 -0.59700
H 	H 	0.55400 0.19680 0.41110 0.17500
H 	H 	0.65110 0.15220 0.37890 0.18100
H 	H 	0.65610 0.22340 0.45010 0.17200
C 	C 	0.88030 0.19970 0.35610 -0.66400
H 	H 	0.95110 0.19710 0.35390 0.20600
H 	H 	0.86010 0.25760 0.37090 0.21200
H 	H 	0.85660 0.15960 0.39820 0.18400
C 	C 	0.83950 0.17650 0.27250 0.22600
C 	C 	0.75750 0.21120 0.23020 -0.14500
C 	C 	0.75330 0.17000 0.15440 0.21800
C 	C 	0.68080 0.17550 0.08390 -0.59800
H 	H 	0.70720 0.21100 0.03910 0.17100
H 	H 	0.66760 0.11830 0.06240 0.17500
H 	H 	0.62060 0.20090 0.10450 0.18000
Cd	Cd	0.00000 0.01605 0.25000 1.12600
Cd	Cd	0.50000 0.51605 0.25000 1.15500
