data_crystal

_cell_length_a 15.89300
_cell_length_b 11.88920
_cell_length_c 16.79290
_cell_angle_alpha 90.00000
_cell_angle_beta  91.16100
_cell_angle_gamma 90.00000

_symmetry_space_group_name_	'P 1'
_symmetry_space_group_name_H-M	'P 1'

loop_
_symmetry_equiv_pos_as_xyz
  x,y,z

loop_
_atom_site_label
_atom_site_type_symbol
_atom_site_fract_x
_atom_site_fract_y
_atom_site_fract_z
_atom_site_charge
N 	N 	0.98479 0.65520 0.08224 -0.22600
N 	N 	0.91213 0.71482 0.08434 -0.18800
H 	H 	0.87130 0.70810 0.04940 0.03200
N 	N 	0.02493 0.89776 0.38532 -0.26900
N 	N 	0.09027 0.93608 0.34230 -0.19300
H 	H 	0.12980 0.97950 0.36150 0.08600
C 	C 	0.11420 0.64020 0.16522 -0.46200
H 	H 	0.11010 0.55880 0.16340 0.10400
H 	H 	0.13200 0.66360 0.21830 0.14100
H 	H 	0.15500 0.66550 0.12690 0.10600
C 	C 	0.03043 0.69039 0.14533 0.07800
C 	C 	0.98666 0.77327 0.18736 -0.01200
C 	C 	0.91054 0.78550 0.14667 0.15700
C 	C 	0.83607 0.85860 0.16181 -0.54500
H 	H 	0.81260 0.88520 0.11150 0.15200
H 	H 	0.85340 0.92240 0.19420 0.17600
H 	H 	0.79390 0.81570 0.18960 0.15300
C 	C 	0.90188 0.77380 0.36034 -0.70100
H 	H 	0.91270 0.73840 0.41160 0.20500
H 	H 	0.88690 0.71680 0.32130 0.21700
H 	H 	0.85590 0.82690 0.36490 0.19400
C 	C 	0.97923 0.83456 0.33457 0.29600
C 	C 	0.01577 0.83344 0.25904 -0.22100
C 	C 	0.08719 0.89950 0.26693 0.18300
C 	C 	0.15297 0.93220 0.20908 -0.34900
H 	H 	0.17920 0.00210 0.22610 0.05200
H 	H 	0.12720 0.94220 0.15670 0.11300
H 	H 	0.19530 0.87360 0.20680 0.10700
N 	N 	0.01521 0.15520 0.41776 -0.29100
N 	N 	0.08787 0.21482 0.41566 -0.21100
H 	H 	0.12870 0.20810 0.45060 0.05500
N 	N 	0.97507 0.39776 0.11468 -0.22000
N 	N 	0.90973 0.43608 0.15770 -0.19000
H 	H 	0.87020 0.47950 0.13850 0.05300
C 	C 	0.88580 0.14020 0.33478 -0.64800
H 	H 	0.88990 0.05880 0.33660 0.14900
H 	H 	0.86800 0.16360 0.28170 0.18800
H 	H 	0.84500 0.16550 0.37310 0.16700
C 	C 	0.96957 0.19039 0.35467 0.29200
C 	C 	0.01334 0.27327 0.31264 -0.26300
C 	C 	0.08946 0.28550 0.35333 0.24700
C 	C 	0.16393 0.35860 0.33819 -0.64000
H 	H 	0.18740 0.38520 0.38850 0.18300
H 	H 	0.14660 0.42240 0.30580 0.19000
H 	H 	0.20610 0.31570 0.31040 0.18000
C 	C 	0.09812 0.27380 0.13966 -0.41600
H 	H 	0.08730 0.23840 0.08840 0.07800
H 	H 	0.11310 0.21680 0.17870 0.11800
H 	H 	0.14410 0.32690 0.13510 0.08900
C 	C 	0.02077 0.33456 0.16543 0.04500
C 	C 	0.98423 0.33344 0.24096 0.01000
C 	C 	0.91281 0.39950 0.23307 0.15500
C 	C 	0.84703 0.43220 0.29092 -0.53700
H 	H 	0.82080 0.50210 0.27390 0.15600
H 	H 	0.87280 0.44220 0.34330 0.16800
H 	H 	0.80470 0.37360 0.29320 0.15300
N 	N 	0.01521 0.34480 0.91776 -0.25700
N 	N 	0.08787 0.28518 0.91566 -0.20900
H 	H 	0.12870 0.29190 0.95060 0.09400
N 	N 	0.97507 0.10224 0.61468 -0.22200
N 	N 	0.90973 0.06392 0.65770 -0.21000
H 	H 	0.87020 0.02050 0.63850 0.04800
C 	C 	0.88580 0.35980 0.83478 -0.69500
H 	H 	0.88990 0.44120 0.83660 0.19100
H 	H 	0.86800 0.33640 0.78170 0.21400
H 	H 	0.84500 0.33450 0.87310 0.19800
C 	C 	0.96957 0.30961 0.85467 0.30400
C 	C 	0.01334 0.22673 0.81264 -0.24100
C 	C 	0.08946 0.21450 0.85333 0.24900
C 	C 	0.16393 0.14140 0.83819 -0.63400
H 	H 	0.18740 0.11480 0.88850 0.19100
H 	H 	0.14660 0.07760 0.80580 0.17900
H 	H 	0.20610 0.18430 0.81040 0.18100
C 	C 	0.09812 0.22620 0.63966 -0.48500
H 	H 	0.08730 0.26160 0.58840 0.12800
H 	H 	0.11310 0.28320 0.67870 0.14800
H 	H 	0.14410 0.17310 0.63510 0.11100
C 	C 	0.02077 0.16544 0.66543 0.08400
C 	C 	0.98423 0.16656 0.74096 -0.04400
C 	C 	0.91281 0.10050 0.73307 0.23400
C 	C 	0.84703 0.06780 0.79092 -0.82700
H 	H 	0.82080 0.99790 0.77390 0.28600
H 	H 	0.87280 0.05780 0.84330 0.24600
H 	H 	0.80470 0.12640 0.79320 0.23600
N 	N 	0.98479 0.84480 0.58224 -0.20800
N 	N 	0.91213 0.78518 0.58434 -0.18900
H 	H 	0.87130 0.79190 0.54940 0.06800
N 	N 	0.02493 0.60224 0.88532 -0.26200
N 	N 	0.09027 0.56392 0.84230 -0.21200
H 	H 	0.12980 0.52050 0.86150 0.08100
C 	C 	0.11420 0.85980 0.66522 -0.54400
H 	H 	0.11010 0.94120 0.66340 0.15800
H 	H 	0.13200 0.83640 0.71830 0.17800
H 	H 	0.15500 0.83450 0.62690 0.14700
C 	C 	0.03043 0.80961 0.64533 0.12200
C 	C 	0.98666 0.72673 0.68736 -0.02200
C 	C 	0.91054 0.71450 0.64667 0.16900
C 	C 	0.83607 0.64140 0.66181 -0.55200
H 	H 	0.81260 0.61480 0.61150 0.16300
H 	H 	0.85340 0.57760 0.69420 0.16900
H 	H 	0.79390 0.68430 0.68960 0.15700
C 	C 	0.90188 0.72620 0.86034 -0.74800
H 	H 	0.91270 0.76160 0.91160 0.24700
H 	H 	0.88690 0.78320 0.82130 0.23900
H 	H 	0.85590 0.67310 0.86490 0.21000
C 	C 	0.97923 0.66544 0.83457 0.31500
C 	C 	0.01577 0.66656 0.75904 -0.24900
C 	C 	0.08719 0.60050 0.76693 0.25700
C 	C 	0.15297 0.56780 0.70908 -0.64900
H 	H 	0.17920 0.49790 0.72610 0.18900
H 	H 	0.12720 0.55780 0.65670 0.19300
H 	H 	0.19530 0.62640 0.70680 0.19100
Cd	Cd	-0.00000 0.50000 -0.00000 1.11000
Cd	Cd	0.00000 0.00000 0.50000 1.12300
N 	N 	0.48479 0.15520 0.58224 -0.25400
N 	N 	0.41213 0.21482 0.58434 -0.19900
H 	H 	0.37130 0.20810 0.54940 0.05300
N 	N 	0.52493 0.39776 0.88532 -0.23400
N 	N 	0.59027 0.43608 0.84230 -0.20400
H 	H 	0.62980 0.47950 0.86150 0.07700
C 	C 	0.61420 0.14020 0.66522 -0.53600
H 	H 	0.61010 0.05880 0.66340 0.11300
H 	H 	0.63200 0.16360 0.71830 0.15800
H 	H 	0.65500 0.16550 0.62690 0.13300
C 	C 	0.53043 0.19039 0.64533 0.17100
C 	C 	0.48666 0.27327 0.68736 -0.11700
C 	C 	0.41054 0.28550 0.64667 0.19300
C 	C 	0.33607 0.35860 0.66181 -0.58100
H 	H 	0.31260 0.38520 0.61150 0.16700
H 	H 	0.35340 0.42240 0.69420 0.17500
H 	H 	0.29390 0.31570 0.68960 0.16300
C 	C 	0.40188 0.27380 0.86034 -0.63600
H 	H 	0.41270 0.23840 0.91160 0.20100
H 	H 	0.38690 0.21680 0.82130 0.19400
H 	H 	0.35590 0.32690 0.86490 0.17700
C 	C 	0.47923 0.33456 0.83457 0.21200
C 	C 	0.51577 0.33344 0.75904 -0.14700
C 	C 	0.58719 0.39950 0.76693 0.21800
C 	C 	0.65297 0.43220 0.70908 -0.60500
H 	H 	0.67920 0.50210 0.72610 0.17600
H 	H 	0.62720 0.44220 0.65670 0.18400
H 	H 	0.69530 0.37360 0.70680 0.17600
N 	N 	0.51521 0.65520 0.91776 -0.22700
N 	N 	0.58787 0.71482 0.91566 -0.20600
H 	H 	0.62870 0.70810 0.95060 0.09600
N 	N 	0.47507 0.89776 0.61468 -0.23600
N 	N 	0.40973 0.93608 0.65770 -0.18700
H 	H 	0.37020 0.97950 0.63850 0.08600
C 	C 	0.38580 0.64020 0.83478 -0.62700
H 	H 	0.38990 0.55880 0.83660 0.16800
H 	H 	0.36800 0.66360 0.78170 0.19400
H 	H 	0.34500 0.66550 0.87310 0.18600
C 	C 	0.46957 0.69039 0.85467 0.22500
C 	C 	0.51334 0.77327 0.81264 -0.15500
C 	C 	0.58946 0.78550 0.85333 0.25100
C 	C 	0.66393 0.85860 0.83819 -0.67400
H 	H 	0.68740 0.88520 0.88850 0.22300
H 	H 	0.64660 0.92240 0.80580 0.22100
H 	H 	0.70610 0.81570 0.81040 0.19600
C 	C 	0.59812 0.77380 0.63966 -0.59700
H 	H 	0.58730 0.73840 0.58840 0.17000
H 	H 	0.61310 0.71680 0.67870 0.18400
H 	H 	0.64410 0.82690 0.63510 0.16400
C 	C 	0.52077 0.83456 0.66543 0.19100
C 	C 	0.48423 0.83344 0.74096 -0.09500
C 	C 	0.41281 0.89950 0.73307 0.15800
C 	C 	0.34703 0.93220 0.79092 -0.35600
H 	H 	0.32080 0.00210 0.77390 0.06000
H 	H 	0.37280 0.94220 0.84330 0.14400
H 	H 	0.30470 0.87360 0.79320 0.11900
N 	N 	0.51521 0.84480 0.41776 -0.23900
N 	N 	0.58787 0.78518 0.41566 -0.19900
H 	H 	0.62870 0.79190 0.45060 0.06900
N 	N 	0.47507 0.60224 0.11468 -0.26000
N 	N 	0.40973 0.56392 0.15770 -0.20100
H 	H 	0.37020 0.52050 0.13850 0.05600
C 	C 	0.38580 0.85980 0.33478 -0.62900
H 	H 	0.38990 0.94120 0.33660 0.18400
H 	H 	0.36800 0.83640 0.28170 0.20000
H 	H 	0.34500 0.83450 0.37310 0.17300
C 	C 	0.46957 0.80961 0.35467 0.21700
C 	C 	0.51334 0.72673 0.31264 -0.13800
C 	C 	0.58946 0.71450 0.35333 0.21100
C 	C 	0.66393 0.64140 0.33819 -0.59900
H 	H 	0.68740 0.61480 0.38850 0.17500
H 	H 	0.64660 0.57760 0.30580 0.18000
H 	H 	0.70610 0.68430 0.31040 0.17100
C 	C 	0.59812 0.72620 0.13966 -0.55900
H 	H 	0.58730 0.76160 0.08840 0.13700
H 	H 	0.61310 0.78320 0.17870 0.17400
H 	H 	0.64410 0.67310 0.13510 0.13200
C 	C 	0.52077 0.66544 0.16543 0.17700
C 	C 	0.48423 0.66656 0.24096 -0.12300
C 	C 	0.41281 0.60050 0.23307 0.20500
C 	C 	0.34703 0.56780 0.29092 -0.59300
H 	H 	0.32080 0.49790 0.27390 0.17100
H 	H 	0.37280 0.55780 0.34330 0.18000
H 	H 	0.30470 0.62640 0.29320 0.17200
N 	N 	0.48479 0.34480 0.08224 -0.26300
N 	N 	0.41213 0.28518 0.08434 -0.19100
H 	H 	0.37130 0.29190 0.04940 0.02700
N 	N 	0.52493 0.10224 0.38532 -0.26100
N 	N 	0.59027 0.06392 0.34230 -0.21700
H 	H 	0.62980 0.02050 0.36150 0.04700
C 	C 	0.61420 0.35980 0.16522 -0.54000
H 	H 	0.61010 0.44120 0.16340 0.12900
H 	H 	0.63200 0.33640 0.21830 0.16400
H 	H 	0.65500 0.33450 0.12690 0.12100
C 	C 	0.53043 0.30961 0.14533 0.16500
C 	C 	0.48666 0.22673 0.18736 -0.10100
C 	C 	0.41054 0.21450 0.14667 0.15400
C 	C 	0.33607 0.14140 0.16181 -0.50400
H 	H 	0.31260 0.11480 0.11150 0.11900
H 	H 	0.35340 0.07760 0.19420 0.13400
H 	H 	0.29390 0.18430 0.18960 0.13800
C 	C 	0.40188 0.22620 0.36034 -0.59400
H 	H 	0.41270 0.26160 0.41160 0.16400
H 	H 	0.38690 0.28320 0.32130 0.18300
H 	H 	0.35590 0.17310 0.36490 0.14300
C 	C 	0.47923 0.16544 0.33457 0.19600
C 	C 	0.51577 0.16656 0.25904 -0.17300
C 	C 	0.58719 0.10050 0.26693 0.26300
C 	C 	0.65297 0.06780 0.20908 -0.83200
H 	H 	0.67920 0.99790 0.22610 0.28300
H 	H 	0.62720 0.05780 0.15670 0.22000
H 	H 	0.69530 0.12640 0.20680 0.22700
Cd	Cd	0.50000 0.00000 0.50000 1.13400
Cd	Cd	0.50000 0.50000 -0.00000 1.12200
