data_crystal

_cell_length_a 10.86390
_cell_length_b 18.66700
_cell_length_c 19.84000
_cell_angle_alpha 98.03500
_cell_angle_beta  96.53500
_cell_angle_gamma 106.18500

_symmetry_space_group_name_	'P 1'
_symmetry_space_group_name_H-M	'P 1'

loop_
_symmetry_equiv_pos_as_xyz
  x,y,z

loop_
_atom_site_label
_atom_site_type_symbol
_atom_site_fract_x
_atom_site_fract_y
_atom_site_fract_z
_atom_site_charge
Tm	Tm	0.17663 0.89198 0.79485 1.56900
Tm	Tm	0.17254 0.59916 0.79775 1.56900
Tm	Tm	0.23634 0.38973 0.72845 1.56500
Tm	Tm	0.24913 0.10152 0.72591 1.57100
Tm	Tm	0.82337 0.10802 0.20515 1.56900
Tm	Tm	0.82746 0.40084 0.20225 1.56900
Tm	Tm	0.76366 0.61027 0.27155 1.56500
Tm	Tm	0.75087 0.89848 0.27409 1.57100
H 	H 	0.55620 0.90440 0.79300 0.05100
H 	H 	0.76390 0.89870 0.80430 0.04600
H 	H 	0.86860 0.09120 0.72820 0.05400
H 	H 	0.66500 0.09830 0.72450 0.04200
H 	H 	0.05310 0.77980 0.57110 0.05000
H 	H 	0.97220 0.72730 0.45640 0.04400
H 	H 	0.04010 0.93650 0.41180 0.04100
H 	H 	0.11720 0.98610 0.52300 0.03300
H 	H 	0.43330 0.72770 0.96840 0.04500
H 	H 	0.56220 0.78530 0.07350 0.05000
H 	H 	0.62000 0.98390 0.01090 0.03800
H 	H 	0.47860 0.92680 0.90980 0.03600
H 	H 	0.83620 0.56940 0.70260 0.03100
H 	H 	0.61710 0.51490 0.69870 0.04700
H 	H 	0.58420 0.70870 0.79590 0.05800
H 	H 	0.80180 0.76360 0.80220 0.03300
H 	H 	0.83980 0.27360 0.78370 0.05300
H 	H 	0.62140 0.22370 0.78950 0.04000
H 	H 	0.57700 0.42980 0.79900 0.03500
H 	H 	0.79960 0.48170 0.80370 0.03500
H 	H 	0.43220 0.40350 0.90580 0.05600
H 	H 	0.42440 0.60400 0.00340 0.04400
H 	H 	0.09260 0.40780 0.52070 0.04000
H 	H 	0.99660 0.59020 0.59190 0.05500
H 	H 	0.44380 0.09560 0.20700 0.05100
H 	H 	0.23610 0.10130 0.19570 0.04600
H 	H 	0.13140 0.90880 0.27180 0.05400
H 	H 	0.33500 0.90170 0.27550 0.04200
H 	H 	0.94690 0.22020 0.42890 0.05000
H 	H 	0.02780 0.27270 0.54360 0.04400
H 	H 	0.95990 0.06350 0.58820 0.04100
H 	H 	0.88280 0.01390 0.47700 0.03300
H 	H 	0.56670 0.27230 0.03160 0.04500
H 	H 	0.43780 0.21470 0.92650 0.05000
H 	H 	0.38000 0.01610 0.98910 0.03800
H 	H 	0.52140 0.07320 0.09020 0.03600
H 	H 	0.16380 0.43060 0.29740 0.03100
H 	H 	0.38290 0.48510 0.30130 0.04700
H 	H 	0.41580 0.29130 0.20410 0.05800
H 	H 	0.19820 0.23640 0.19780 0.03300
H 	H 	0.16020 0.72640 0.21630 0.05300
H 	H 	0.37860 0.77630 0.21050 0.04000
H 	H 	0.42300 0.57020 0.20100 0.03500
H 	H 	0.20040 0.51830 0.19630 0.03500
H 	H 	0.56780 0.59650 0.09420 0.05600
H 	H 	0.57560 0.39600 0.99660 0.04400
H 	H 	0.90740 0.59220 0.47930 0.04000
H 	H 	0.00340 0.40980 0.40810 0.05500
C 	C 	0.44850 0.00340 0.75090 0.43300
C 	C 	0.58780 0.00010 0.75620 -0.09800
C 	C 	0.62040 0.94240 0.78040 -0.01000
C 	C 	0.74370 0.93850 0.78680 -0.01500
C 	C 	0.84080 0.99490 0.76680 -0.09200
C 	C 	0.97630 0.99030 0.77060 0.40200
C 	C 	0.80620 0.05350 0.74240 -0.01800
C 	C 	0.68490 0.05700 0.73890 -0.00600
C 	C 	0.13610 0.92180 0.63470 0.39800
C 	C 	0.09100 0.88880 0.55950 -0.09900
C 	C 	0.04800 0.81110 0.53890 -0.01000
C 	C 	0.99750 0.77960 0.47080 -0.01900
C 	C 	0.98490 0.82710 0.42410 -0.09800
C 	C 	0.91370 0.79380 0.35060 0.40100
C 	C 	0.03800 0.90480 0.44420 -0.02600
C 	C 	0.08580 0.93360 0.50970 -0.00400
C 	C 	0.33820 0.78400 0.86540 0.42800
C 	C 	0.43580 0.82100 0.92900 -0.11700
C 	C 	0.46790 0.78030 0.97780 -0.00900
C 	C 	0.54920 0.81400 0.04020 -0.00400
C 	C 	0.60900 0.88930 0.05120 -0.11600
C 	C 	0.68940 0.92960 0.11620 0.42100
C 	C 	0.58080 0.93170 0.00250 -0.00800
C 	C 	0.49550 0.89750 0.94200 -0.01200
C 	C 	0.98570 0.70900 0.75840 0.41200
C 	C 	0.84300 0.67230 0.75300 -0.12400
C 	C 	0.78650 0.59760 0.72200 0.00200
C 	C 	0.65560 0.56520 0.72000 -0.03500
C 	C 	0.57980 0.60560 0.74910 -0.07300
C 	C 	0.43390 0.56290 0.74400 0.41200
C 	C 	0.63510 0.68040 0.77820 -0.03300
C 	C 	0.76450 0.71310 0.78110 0.00800
C 	C 	0.98070 0.41640 0.78300 0.42600
C 	C 	0.84320 0.38490 0.79350 -0.10100
C 	C 	0.78770 0.30540 0.78800 -0.02200
C 	C 	0.65600 0.27510 0.78890 0.00300
C 	C 	0.57690 0.32080 0.78900 -0.12900
C 	C 	0.43190 0.28740 0.77780 0.45000
C 	C 	0.62990 0.39830 0.79600 -0.00700
C 	C 	0.76420 0.42940 0.79850 -0.01100
C 	C 	0.31560 0.50900 0.88550 0.42300
C 	C 	0.41010 0.50480 0.94560 -0.09600
C 	C 	0.45910 0.44240 0.94400 -0.02000
C 	C 	0.45400 0.56170 0.00180 -0.00500
C 	C 	0.11010 0.49630 0.63870 0.38800
C 	C 	0.05370 0.49830 0.56570 -0.08200
C 	C 	0.05520 0.44560 0.51250 -0.00800
C 	C 	0.99860 0.55380 0.55530 -0.02300
C 	C 	0.55150 0.99660 0.24910 0.43300
C 	C 	0.41220 0.99990 0.24380 -0.09800
C 	C 	0.37960 0.05760 0.21960 -0.01000
C 	C 	0.25630 0.06150 0.21320 -0.01500
C 	C 	0.15920 0.00510 0.23320 -0.09200
C 	C 	0.02370 0.00970 0.22940 0.40200
C 	C 	0.19380 0.94650 0.25760 -0.01800
C 	C 	0.31510 0.94300 0.26110 -0.00600
C 	C 	0.86390 0.07820 0.36530 0.39800
C 	C 	0.90900 0.11120 0.44050 -0.09900
C 	C 	0.95200 0.18890 0.46110 -0.01000
C 	C 	0.00250 0.22040 0.52920 -0.01900
C 	C 	0.01510 0.17290 0.57590 -0.09800
C 	C 	0.08630 0.20620 0.64940 0.40100
C 	C 	0.96200 0.09520 0.55580 -0.02600
C 	C 	0.91420 0.06640 0.49030 -0.00400
C 	C 	0.66180 0.21600 0.13460 0.42800
C 	C 	0.56420 0.17900 0.07100 -0.11700
C 	C 	0.53210 0.21970 0.02220 -0.00900
C 	C 	0.45080 0.18600 0.95980 -0.00400
C 	C 	0.39100 0.11070 0.94880 -0.11600
C 	C 	0.31060 0.07040 0.88380 0.42100
C 	C 	0.41920 0.06830 0.99750 -0.00800
C 	C 	0.50450 0.10250 0.05800 -0.01200
C 	C 	0.01430 0.29100 0.24160 0.41200
C 	C 	0.15700 0.32770 0.24700 -0.12400
C 	C 	0.21350 0.40240 0.27800 0.00200
C 	C 	0.34440 0.43480 0.28000 -0.03500
C 	C 	0.42020 0.39440 0.25090 -0.07300
C 	C 	0.56610 0.43710 0.25600 0.41200
C 	C 	0.36490 0.31960 0.22180 -0.03300
C 	C 	0.23550 0.28690 0.21890 0.00800
C 	C 	0.01930 0.58360 0.21700 0.42600
C 	C 	0.15680 0.61510 0.20650 -0.10100
C 	C 	0.21230 0.69460 0.21200 -0.02200
C 	C 	0.34400 0.72490 0.21110 0.00300
C 	C 	0.42310 0.67920 0.21100 -0.12900
C 	C 	0.56810 0.71260 0.22220 0.45000
C 	C 	0.37010 0.60170 0.20400 -0.00700
C 	C 	0.23580 0.57060 0.20150 -0.01100
C 	C 	0.68440 0.49100 0.11450 0.42300
C 	C 	0.58990 0.49520 0.05440 -0.09600
C 	C 	0.54090 0.55760 0.05600 -0.02000
C 	C 	0.54600 0.43830 0.99820 -0.00500
C 	C 	0.88990 0.50370 0.36130 0.38800
C 	C 	0.94630 0.50170 0.43430 -0.08200
C 	C 	0.94480 0.55440 0.48750 -0.00800
C 	C 	0.00140 0.44620 0.44470 -0.02300
O 	O 	0.36810 0.94750 0.76060 -0.45400
O 	O 	0.43000 0.06250 0.73780 -0.45800
O 	O 	0.00080 0.93460 0.79110 -0.43900
O 	O 	0.05840 0.04300 0.75380 -0.44400
O 	O 	0.12850 0.87870 0.67840 -0.41800
O 	O 	0.18320 0.99280 0.65090 -0.46300
O 	O 	0.89130 0.72440 0.33300 -0.44100
O 	O 	0.88350 0.83810 0.31470 -0.46000
O 	O 	0.30640 0.82490 0.82830 -0.46600
O 	O 	0.29690 0.71300 0.85340 -0.45000
O 	O 	0.71390 0.88970 0.15900 -0.42800
O 	O 	0.73400 0.99950 0.12750 -0.46900
O 	O 	0.02280 0.77890 0.76490 -0.44300
O 	O 	0.05720 0.66710 0.75270 -0.45400
O 	O 	0.39830 0.49460 0.72410 -0.47300
O 	O 	0.37030 0.60390 0.76860 -0.43300
O 	O 	0.02620 0.48480 0.79100 -0.48300
O 	O 	0.04170 0.37010 0.76850 -0.42000
O 	O 	0.38880 0.21950 0.76860 -0.46600
O 	O 	0.36370 0.33080 0.77960 -0.47200
O 	O 	0.27080 0.56370 0.89100 -0.43700
O 	O 	0.28580 0.45690 0.83670 -0.46300
O 	O 	0.12740 0.55460 0.68310 -0.42800
O 	O 	0.13090 0.43550 0.64810 -0.44600
O 	O 	0.63190 0.05250 0.23940 -0.45400
O 	O 	0.57000 0.93750 0.26220 -0.45800
O 	O 	0.99920 0.06540 0.20890 -0.43900
O 	O 	0.94160 0.95700 0.24620 -0.44400
O 	O 	0.87150 0.12130 0.32160 -0.41800
O 	O 	0.81680 0.00720 0.34910 -0.46300
O 	O 	0.10870 0.27560 0.66700 -0.44100
O 	O 	0.11650 0.16190 0.68530 -0.46000
O 	O 	0.69360 0.17510 0.17170 -0.46600
O 	O 	0.70310 0.28700 0.14660 -0.45000
O 	O 	0.28610 0.11030 0.84100 -0.42800
O 	O 	0.26600 0.00050 0.87250 -0.46900
O 	O 	0.97720 0.22110 0.23510 -0.44300
O 	O 	0.94280 0.33290 0.24730 -0.45400
O 	O 	0.60170 0.50540 0.27590 -0.47300
O 	O 	0.62970 0.39610 0.23140 -0.43300
O 	O 	0.97380 0.51520 0.20900 -0.48300
O 	O 	0.95830 0.62990 0.23150 -0.42000
O 	O 	0.61120 0.78050 0.23140 -0.46600
O 	O 	0.63630 0.66920 0.22040 -0.47200
O 	O 	0.72920 0.43630 0.10900 -0.43700
O 	O 	0.71420 0.54310 0.16330 -0.46300
O 	O 	0.87260 0.44540 0.31690 -0.42800
O 	O 	0.86910 0.56450 0.35190 -0.44600
