data_crystal

_cell_length_a 8.73300
_cell_length_b 16.28300
_cell_length_c 22.98000
_cell_angle_alpha 90.00000
_cell_angle_beta  90.00000
_cell_angle_gamma 90.00000

_symmetry_space_group_name_	'P 1'
_symmetry_space_group_name_H-M	'P 1'

loop_
_symmetry_equiv_pos_as_xyz
  x,y,z

loop_
_atom_site_label
_atom_site_type_symbol
_atom_site_fract_x
_atom_site_fract_y
_atom_site_fract_z
_atom_site_charge
Co	Co	0.72887 0.75000 0.75000 1.15600
Co	Co	0.77113 0.75000 0.25000 1.15600
Co	Co	0.27113 0.25000 0.25000 1.15600
Co	Co	0.22887 0.25000 0.75000 1.15600
H 	H 	0.61020 0.56950 0.68950 0.02600
H 	H 	0.42650 0.48030 0.74020 0.05200
H 	H 	0.46900 0.69070 0.82880 0.00600
H 	H 	0.22060 0.66380 0.86390 0.07200
H 	H 	0.07530 0.62370 0.94410 0.08900
H 	H 	0.19130 0.38790 0.91480 0.09300
H 	H 	0.34500 0.42800 0.83680 0.06200
H 	H 	0.13650 0.58960 0.66050 0.06700
H 	H 	0.88010 0.74240 0.56180 0.10500
H 	H 	0.88980 0.56950 0.31050 0.02700
H 	H 	0.07350 0.48030 0.25980 0.05300
H 	H 	0.03100 0.69070 0.17120 0.00600
H 	H 	0.27940 0.66380 0.13610 0.07200
H 	H 	0.42470 0.62370 0.05590 0.08900
H 	H 	0.30870 0.38790 0.08520 0.09300
H 	H 	0.15500 0.42800 0.16320 0.06300
H 	H 	0.36350 0.58960 0.33950 0.06700
H 	H 	0.61990 0.74240 0.43820 0.10600
H 	H 	0.88980 0.93050 0.18950 0.02600
H 	H 	0.07350 0.01970 0.24020 0.05400
H 	H 	0.03100 0.80930 0.32880 0.00600
H 	H 	0.27940 0.83620 0.36390 0.07200
H 	H 	0.42470 0.87630 0.44410 0.08900
H 	H 	0.30870 0.11210 0.41480 0.09300
H 	H 	0.15500 0.07200 0.33680 0.06200
H 	H 	0.36350 0.91040 0.16050 0.06700
H 	H 	0.61990 0.75760 0.06180 0.10600
H 	H 	0.61020 0.93050 0.81050 0.02700
H 	H 	0.42650 0.01970 0.75980 0.05300
H 	H 	0.46900 0.80930 0.67120 0.00600
H 	H 	0.22060 0.83620 0.63610 0.07200
H 	H 	0.07530 0.87630 0.55590 0.08800
H 	H 	0.19130 0.11210 0.58520 0.09300
H 	H 	0.34500 0.07200 0.66320 0.06300
H 	H 	0.13650 0.91040 0.83950 0.06700
H 	H 	0.88010 0.75760 0.93820 0.10500
H 	H 	0.38980 0.43050 0.31050 0.02700
H 	H 	0.57350 0.51970 0.25980 0.05300
H 	H 	0.53100 0.30930 0.17120 0.00600
H 	H 	0.77940 0.33620 0.13610 0.07200
H 	H 	0.92470 0.37630 0.05590 0.08900
H 	H 	0.80870 0.61210 0.08520 0.09300
H 	H 	0.65500 0.57200 0.16320 0.06200
H 	H 	0.86350 0.41040 0.33950 0.06700
H 	H 	0.11990 0.25760 0.43820 0.10500
H 	H 	0.11020 0.43050 0.68950 0.02700
H 	H 	0.92650 0.51970 0.74020 0.05300
H 	H 	0.96900 0.30930 0.82880 0.00600
H 	H 	0.72060 0.33620 0.86390 0.07200
H 	H 	0.57530 0.37630 0.94410 0.08900
H 	H 	0.69130 0.61210 0.91480 0.09300
H 	H 	0.84500 0.57200 0.83680 0.06300
H 	H 	0.63650 0.41040 0.66050 0.06700
H 	H 	0.38010 0.25760 0.56180 0.10600
H 	H 	0.11020 0.06950 0.81050 0.02600
H 	H 	0.92650 0.98030 0.75980 0.05400
H 	H 	0.96900 0.19070 0.67120 0.00600
H 	H 	0.72060 0.16380 0.63610 0.07200
H 	H 	0.57530 0.12370 0.55590 0.08900
H 	H 	0.69130 0.88790 0.58520 0.09300
H 	H 	0.84500 0.92800 0.66320 0.06200
H 	H 	0.63650 0.08960 0.83950 0.06700
H 	H 	0.38010 0.24240 0.93820 0.10600
H 	H 	0.38980 0.06950 0.18950 0.02700
H 	H 	0.57350 0.98030 0.24020 0.05300
H 	H 	0.53100 0.19070 0.32880 0.00600
H 	H 	0.77940 0.16380 0.36390 0.07200
H 	H 	0.92470 0.12370 0.44410 0.08800
H 	H 	0.80870 0.88790 0.41480 0.09300
H 	H 	0.65500 0.92800 0.33680 0.06300
H 	H 	0.86350 0.08960 0.16050 0.06700
H 	H 	0.11990 0.24240 0.06180 0.10500
C 	C 	0.55820 0.58260 0.72460 0.01900
C 	C 	0.45660 0.53390 0.75180 -0.00700
C 	C 	0.48130 0.64920 0.80020 0.09400
C 	C 	0.30100 0.55010 0.84430 0.08900
C 	C 	0.21740 0.60770 0.87500 -0.05500
C 	C 	0.12910 0.58370 0.92200 -0.07500
C 	C 	0.11900 0.50200 0.93670 0.11300
C 	C 	0.19900 0.44440 0.90490 -0.08100
C 	C 	0.29020 0.46800 0.85860 -0.05600
C 	C 	0.89730 0.69240 0.67140 0.28300
C 	C 	0.99520 0.67170 0.61990 -0.01600
C 	C 	0.11750 0.61690 0.62470 -0.06000
C 	C 	0.21140 0.60270 0.57690 0.03000
C 	C 	0.19250 0.64320 0.52460 -0.01000
C 	C 	0.06300 0.69230 0.52060 0.08900
C 	C 	0.96630 0.70750 0.56670 -0.08200
C 	C 	0.94180 0.58260 0.27540 0.01900
C 	C 	0.04340 0.53390 0.24820 -0.00700
C 	C 	0.01870 0.64920 0.19980 0.09400
C 	C 	0.19900 0.55010 0.15570 0.08900
C 	C 	0.28260 0.60770 0.12500 -0.05500
C 	C 	0.37090 0.58370 0.07800 -0.07500
C 	C 	0.38100 0.50200 0.06330 0.11300
C 	C 	0.30100 0.44440 0.09510 -0.08100
C 	C 	0.20980 0.46800 0.14140 -0.05600
C 	C 	0.60270 0.69240 0.32860 0.28300
C 	C 	0.50480 0.67170 0.38010 -0.01700
C 	C 	0.38250 0.61690 0.37530 -0.06000
C 	C 	0.28860 0.60270 0.42310 0.03000
C 	C 	0.30750 0.64320 0.47540 -0.01000
C 	C 	0.43700 0.69230 0.47940 0.09000
C 	C 	0.53370 0.70750 0.43330 -0.08300
C 	C 	0.94180 0.91740 0.22460 0.02100
C 	C 	0.04340 0.96610 0.25180 -0.01000
C 	C 	0.01870 0.85080 0.30020 0.09400
C 	C 	0.19900 0.94990 0.34430 0.08800
C 	C 	0.28260 0.89230 0.37500 -0.05400
C 	C 	0.37090 0.91630 0.42200 -0.07500
C 	C 	0.38100 0.99800 0.43670 0.11300
C 	C 	0.30100 0.05560 0.40490 -0.08100
C 	C 	0.20980 0.03200 0.35860 -0.05500
C 	C 	0.60270 0.80760 0.17140 0.28300
C 	C 	0.50480 0.82830 0.11990 -0.01700
C 	C 	0.38250 0.88310 0.12470 -0.06000
C 	C 	0.28860 0.89730 0.07690 0.03000
C 	C 	0.30750 0.85680 0.02460 -0.01000
C 	C 	0.43700 0.80770 0.02060 0.09000
C 	C 	0.53370 0.79250 0.06670 -0.08300
C 	C 	0.55820 0.91740 0.77540 0.01900
C 	C 	0.45660 0.96610 0.74820 -0.00700
C 	C 	0.48130 0.85080 0.69980 0.09400
C 	C 	0.30100 0.94990 0.65570 0.08900
C 	C 	0.21740 0.89230 0.62500 -0.05600
C 	C 	0.12910 0.91630 0.57800 -0.07400
C 	C 	0.11900 0.99800 0.56330 0.11100
C 	C 	0.19900 0.05560 0.59510 -0.07900
C 	C 	0.29020 0.03200 0.64140 -0.05600
C 	C 	0.89730 0.80760 0.82860 0.28300
C 	C 	0.99520 0.82830 0.88010 -0.01600
C 	C 	0.11750 0.88310 0.87530 -0.06100
C 	C 	0.21140 0.89730 0.92310 0.03000
C 	C 	0.19250 0.85680 0.97540 -0.01000
C 	C 	0.06300 0.80770 0.97940 0.08900
C 	C 	0.96630 0.79250 0.93330 -0.08200
C 	C 	0.44180 0.41740 0.27540 0.01900
C 	C 	0.54340 0.46610 0.24820 -0.00700
C 	C 	0.51870 0.35080 0.19980 0.09400
C 	C 	0.69900 0.44990 0.15570 0.08900
C 	C 	0.78260 0.39230 0.12500 -0.05500
C 	C 	0.87090 0.41630 0.07800 -0.07500
C 	C 	0.88100 0.49800 0.06330 0.11300
C 	C 	0.80100 0.55560 0.09510 -0.08100
C 	C 	0.70980 0.53200 0.14140 -0.05600
C 	C 	0.10270 0.30760 0.32860 0.28300
C 	C 	0.00480 0.32830 0.38010 -0.01600
C 	C 	0.88250 0.38310 0.37530 -0.06000
C 	C 	0.78860 0.39730 0.42310 0.03000
C 	C 	0.80750 0.35680 0.47540 -0.01000
C 	C 	0.93700 0.30770 0.47940 0.08900
C 	C 	0.03370 0.29250 0.43330 -0.08200
C 	C 	0.05820 0.41740 0.72460 0.01900
C 	C 	0.95660 0.46610 0.75180 -0.00700
C 	C 	0.98130 0.35080 0.80020 0.09400
C 	C 	0.80100 0.44990 0.84430 0.08900
C 	C 	0.71740 0.39230 0.87500 -0.05500
C 	C 	0.62910 0.41630 0.92200 -0.07500
C 	C 	0.61900 0.49800 0.93670 0.11300
C 	C 	0.69900 0.55560 0.90490 -0.08100
C 	C 	0.79020 0.53200 0.85860 -0.05600
C 	C 	0.39730 0.30760 0.67140 0.28300
C 	C 	0.49520 0.32830 0.61990 -0.01700
C 	C 	0.61750 0.38310 0.62470 -0.06000
C 	C 	0.71140 0.39730 0.57690 0.03000
C 	C 	0.69250 0.35680 0.52460 -0.01000
C 	C 	0.56300 0.30770 0.52060 0.09000
C 	C 	0.46630 0.29250 0.56670 -0.08300
C 	C 	0.05820 0.08260 0.77540 0.02100
C 	C 	0.95660 0.03390 0.74820 -0.01000
C 	C 	0.98130 0.14920 0.69980 0.09400
C 	C 	0.80100 0.05010 0.65570 0.08800
C 	C 	0.71740 0.10770 0.62500 -0.05400
C 	C 	0.62910 0.08370 0.57800 -0.07500
C 	C 	0.61900 0.00200 0.56330 0.11300
C 	C 	0.69900 0.94440 0.59510 -0.08100
C 	C 	0.79020 0.96800 0.64140 -0.05500
C 	C 	0.39730 0.19240 0.82860 0.28300
C 	C 	0.49520 0.17170 0.88010 -0.01700
C 	C 	0.61750 0.11690 0.87530 -0.06000
C 	C 	0.71140 0.10270 0.92310 0.03000
C 	C 	0.69250 0.14320 0.97540 -0.01000
C 	C 	0.56300 0.19230 0.97940 0.09000
C 	C 	0.46630 0.20750 0.93330 -0.08300
C 	C 	0.44180 0.08260 0.22460 0.01900
C 	C 	0.54340 0.03390 0.25180 -0.00700
C 	C 	0.51870 0.14920 0.30020 0.09400
C 	C 	0.69900 0.05010 0.34430 0.08900
C 	C 	0.78260 0.10770 0.37500 -0.05600
C 	C 	0.87090 0.08370 0.42200 -0.07400
C 	C 	0.88100 0.00200 0.43670 0.11100
C 	C 	0.80100 0.94440 0.40490 -0.07900
C 	C 	0.70980 0.96800 0.35860 -0.05600
C 	C 	0.10270 0.19240 0.17140 0.28300
C 	C 	0.00480 0.17170 0.11990 -0.01600
C 	C 	0.88250 0.11690 0.12470 -0.06100
C 	C 	0.78860 0.10270 0.07690 0.03000
C 	C 	0.80750 0.14320 0.02460 -0.01000
C 	C 	0.93700 0.19230 0.02060 0.08900
C 	C 	0.03370 0.20750 0.06670 -0.08200
N 	N 	0.57540 0.65500 0.75600 -0.23900
N 	N 	0.40360 0.57710 0.80020 -0.12900
N 	N 	0.03310 0.47250 0.98530 -0.07900
N 	N 	0.01710 0.74740 0.47710 -0.01400
N 	N 	0.92460 0.65500 0.24400 -0.23900
N 	N 	0.09640 0.57710 0.19980 -0.12900
N 	N 	0.46690 0.47250 0.01470 -0.07900
N 	N 	0.48290 0.74740 0.52290 -0.01300
N 	N 	0.92460 0.84500 0.25600 -0.23900
N 	N 	0.09640 0.92290 0.30020 -0.12800
N 	N 	0.46690 0.02750 0.48530 -0.07900
N 	N 	0.48290 0.75260 0.97710 -0.01300
N 	N 	0.57540 0.84500 0.74400 -0.23900
N 	N 	0.40360 0.92290 0.69980 -0.12900
N 	N 	0.03310 0.02750 0.51470 -0.07900
N 	N 	0.01710 0.75260 0.02290 -0.01300
N 	N 	0.42460 0.34500 0.24400 -0.23900
N 	N 	0.59640 0.42290 0.19980 -0.12900
N 	N 	0.96690 0.52750 0.01470 -0.07900
N 	N 	0.98290 0.25260 0.52290 -0.01400
N 	N 	0.07540 0.34500 0.75600 -0.23900
N 	N 	0.90360 0.42290 0.80020 -0.12900
N 	N 	0.53310 0.52750 0.98530 -0.07900
N 	N 	0.51710 0.25260 0.47710 -0.01300
N 	N 	0.07540 0.15500 0.74400 -0.23900
N 	N 	0.90360 0.07710 0.69980 -0.12800
N 	N 	0.53310 0.97250 0.51470 -0.07900
N 	N 	0.51710 0.24740 0.02290 -0.01300
N 	N 	0.42460 0.15500 0.25600 -0.23900
N 	N 	0.59640 0.07710 0.30020 -0.12900
N 	N 	0.96690 0.97250 0.48530 -0.07900
N 	N 	0.98290 0.24740 0.97710 -0.01300
O 	O 	0.79170 0.74570 0.66380 -0.38500
O 	O 	0.92200 0.66130 0.71939 -0.35000
O 	O 	0.88470 0.75790 0.46160 -0.11500
O 	O 	0.11240 0.76610 0.44090 -0.11700
O 	O 	0.70830 0.74570 0.33620 -0.38500
O 	O 	0.57800 0.66130 0.28061 -0.35000
O 	O 	0.61530 0.75790 0.53840 -0.11500
O 	O 	0.38760 0.76610 0.55910 -0.11700
O 	O 	0.70830 0.75430 0.16380 -0.38500
O 	O 	0.57800 0.83870 0.21939 -0.35000
O 	O 	0.61530 0.74210 0.96160 -0.11500
O 	O 	0.38760 0.73390 0.94090 -0.11700
O 	O 	0.79170 0.75430 0.83620 -0.38500
O 	O 	0.92200 0.83870 0.78061 -0.34900
O 	O 	0.88470 0.74210 0.03840 -0.11500
O 	O 	0.11240 0.73390 0.05910 -0.11700
O 	O 	0.20830 0.25430 0.33620 -0.38500
O 	O 	0.07800 0.33870 0.28061 -0.35000
O 	O 	0.11530 0.24210 0.53840 -0.11500
O 	O 	0.88760 0.23390 0.55910 -0.11700
O 	O 	0.29170 0.25430 0.66380 -0.38500
O 	O 	0.42200 0.33870 0.71939 -0.35000
O 	O 	0.38470 0.24210 0.46160 -0.11500
O 	O 	0.61240 0.23390 0.44090 -0.11700
O 	O 	0.29170 0.24570 0.83620 -0.38500
O 	O 	0.42200 0.16130 0.78061 -0.35000
O 	O 	0.38470 0.25790 0.03840 -0.11500
O 	O 	0.61240 0.26610 0.05910 -0.11700
O 	O 	0.20830 0.24570 0.16380 -0.38500
O 	O 	0.07800 0.16130 0.21939 -0.34900
O 	O 	0.11530 0.25790 0.96160 -0.11500
O 	O 	0.88760 0.26610 0.94090 -0.11700
