data_crystal

_cell_length_a 7.38880
_cell_length_b 7.38880
_cell_length_c 22.14380
_cell_angle_alpha 90.00000
_cell_angle_beta  90.00000
_cell_angle_gamma 90.00000

_symmetry_space_group_name_	'P 1'
_symmetry_space_group_name_H-M	'P 1'

loop_
_symmetry_equiv_pos_as_xyz
  x,y,z

loop_
_atom_site_label
_atom_site_type_symbol
_atom_site_fract_x
_atom_site_fract_y
_atom_site_fract_z
_atom_site_charge
F 	F 	0.81150 0.93410 0.94124 -0.28300
C 	C 	0.65300 0.96260 0.96889 0.42000
F 	F 	0.18850 0.06590 0.94124 -0.16200
C 	C 	0.34700 0.03740 0.96889 -0.12800
F 	F 	0.06590 0.81150 0.44124 -0.15200
C 	C 	0.03740 0.65300 0.46889 -0.15300
F 	F 	0.93410 0.18850 0.44124 -0.27100
C 	C 	0.96260 0.34700 0.46889 0.39300
F 	F 	0.18850 0.93410 0.05876 -0.27100
C 	C 	0.34700 0.96260 0.03111 0.39500
F 	F 	0.81150 0.06590 0.05876 -0.15100
C 	C 	0.65300 0.03740 0.03111 -0.15400
F 	F 	0.93410 0.81150 0.55876 -0.28200
C 	C 	0.96260 0.65300 0.53111 0.41900
F 	F 	0.06590 0.18850 0.55876 -0.16100
C 	C 	0.03740 0.34700 0.53111 -0.12500
F 	F 	0.18850 0.06590 0.05876 -0.16100
C 	C 	0.34700 0.03740 0.03111 -0.12700
F 	F 	0.81150 0.93410 0.05876 -0.28200
C 	C 	0.65300 0.96260 0.03111 0.42100
F 	F 	0.93410 0.18850 0.55876 -0.27100
C 	C 	0.96260 0.34700 0.53111 0.39300
F 	F 	0.06590 0.81150 0.55876 -0.15100
C 	C 	0.03740 0.65300 0.53111 -0.15200
F 	F 	0.81150 0.06590 0.94124 -0.15100
C 	C 	0.65300 0.03740 0.96889 -0.15400
F 	F 	0.18850 0.93410 0.94124 -0.27100
C 	C 	0.34700 0.96260 0.96889 0.39500
F 	F 	0.06590 0.18850 0.44124 -0.16100
C 	C 	0.03740 0.34700 0.46889 -0.12500
F 	F 	0.93410 0.81150 0.44124 -0.28200
C 	C 	0.96260 0.65300 0.46889 0.41900
Cu	Cu	0.00000 0.00000 0.75000 0.90500
Cu	Cu	-0.00000 0.00000 0.25000 0.90500
N 	N 	0.78400 0.00000 0.80295 -0.22400
C 	C 	0.65880 -0.00000 0.83381 0.20100
N 	N 	0.21600 0.00000 0.80295 -0.22400
C 	C 	0.34120 -0.00000 0.83381 0.20000
N 	N 	0.00000 0.78400 0.30295 -0.22400
C 	C 	-0.00000 0.65880 0.33381 0.20100
N 	N 	-0.00000 0.21600 0.30295 -0.22400
C 	C 	0.00000 0.34120 0.33381 0.20000
N 	N 	0.21600 0.00000 0.19705 -0.22400
C 	C 	0.34120 0.00000 0.16619 0.20000
N 	N 	0.78400 0.00000 0.19705 -0.22400
C 	C 	0.65880 0.00000 0.16619 0.20100
N 	N 	-0.00000 0.78400 0.69705 -0.22400
C 	C 	-0.00000 0.65880 0.66619 0.20100
N 	N 	-0.00000 0.21600 0.69705 -0.22400
C 	C 	-0.00000 0.34120 0.66619 0.20000
C 	C 	0.50000 0.00000 0.86800 -0.03600
C 	C 	0.50000 0.00000 0.93450 -0.03800
C 	C 	-0.00000 0.50000 0.36800 -0.03600
C 	C 	0.00000 0.50000 0.43450 -0.03800
C 	C 	0.50000 0.00000 0.13200 -0.03600
C 	C 	0.50000 0.00000 0.06550 -0.03800
C 	C 	0.00000 0.50000 0.63200 -0.03600
C 	C 	0.00000 0.50000 0.56550 -0.03800
