data_crystal

_cell_length_a 22.17600
_cell_length_b 9.63600
_cell_length_c 11.29310
_cell_angle_alpha 90.00000
_cell_angle_beta  90.00000
_cell_angle_gamma 90.00000

_symmetry_space_group_name_	'P 1'
_symmetry_space_group_name_H-M	'P 1'

loop_
_symmetry_equiv_pos_as_xyz
  x,y,z

loop_
_atom_site_label
_atom_site_type_symbol
_atom_site_fract_x
_atom_site_fract_y
_atom_site_fract_z
_atom_site_charge
F 	F 	0.56251 0.35390 0.56017 -0.37200
F 	F 	0.44515 0.36117 0.56326 -0.36600
N 	N 	0.70031 0.11800 0.90020 -0.24100
N 	N 	0.30517 0.10980 0.89020 -0.24700
C 	C 	0.53495 0.30220 0.65670 0.24200
C 	C 	0.47272 0.30430 0.65780 0.23800
C 	C 	0.33719 0.17160 0.82910 0.15900
C 	C 	0.66994 0.17750 0.83430 0.15800
F 	F 	0.93749 0.64610 0.56017 -0.36100
F 	F 	0.05485 0.63883 0.56326 -0.35600
N 	N 	0.79969 0.88200 0.90020 -0.19600
N 	N 	0.19483 0.89020 0.89020 -0.20000
C 	C 	0.96505 0.69780 0.65670 0.25000
C 	C 	0.02728 0.69570 0.65780 0.24400
C 	C 	0.16281 0.82840 0.82910 0.19200
C 	C 	0.83006 0.82250 0.83430 0.19000
F 	F 	0.93749 0.85390 0.93983 -0.34400
F 	F 	0.05485 0.86117 0.93674 -0.33900
N 	N 	0.79969 0.61800 0.59980 -0.22200
N 	N 	0.19483 0.60980 0.60980 -0.22700
C 	C 	0.96505 0.80220 0.84330 0.25400
C 	C 	0.02728 0.80430 0.84220 0.24700
C 	C 	0.16281 0.67160 0.67090 0.18400
C 	C 	0.83006 0.67750 0.66570 0.18300
F 	F 	0.56251 0.14610 0.93983 -0.38600
F 	F 	0.44515 0.13883 0.93674 -0.38200
N 	N 	0.70031 0.38200 0.59980 -0.22800
N 	N 	0.30517 0.39020 0.60980 -0.23200
C 	C 	0.53495 0.19780 0.84330 0.23900
C 	C 	0.47272 0.19570 0.84220 0.23500
C 	C 	0.33719 0.32840 0.67090 0.16900
C 	C 	0.66994 0.32250 0.66570 0.16600
F 	F 	0.43749 0.64610 0.43983 -0.36000
F 	F 	0.55485 0.63883 0.43674 -0.35600
N 	N 	0.29969 0.88200 0.09980 -0.19600
N 	N 	0.69483 0.89020 0.10980 -0.20000
C 	C 	0.46505 0.69780 0.34330 0.24900
C 	C 	0.52728 0.69570 0.34220 0.24500
C 	C 	0.66281 0.82840 0.17090 0.19200
C 	C 	0.33006 0.82250 0.16570 0.19000
F 	F 	0.06251 0.35390 0.43983 -0.37200
F 	F 	0.94515 0.36117 0.43674 -0.36600
N 	N 	0.20031 0.11800 0.09980 -0.24100
N 	N 	0.80517 0.10980 0.10980 -0.24700
C 	C 	0.03495 0.30220 0.34330 0.24300
C 	C 	0.97272 0.30430 0.34220 0.23800
C 	C 	0.83719 0.17160 0.17090 0.15900
C 	C 	0.16994 0.17750 0.16570 0.15800
F 	F 	0.06251 0.14610 0.06017 -0.38600
F 	F 	0.94515 0.13883 0.06326 -0.38300
N 	N 	0.20031 0.38200 0.40020 -0.22800
N 	N 	0.80517 0.39020 0.39020 -0.23200
C 	C 	0.03495 0.19780 0.15670 0.24000
C 	C 	0.97272 0.19570 0.15780 0.23400
C 	C 	0.83719 0.32840 0.32910 0.16900
C 	C 	0.16994 0.32250 0.33430 0.16600
F 	F 	0.43749 0.85390 0.06017 -0.34400
F 	F 	0.55485 0.86117 0.06326 -0.33900
N 	N 	0.29969 0.61800 0.40020 -0.22200
N 	N 	0.69483 0.60980 0.39020 -0.22700
C 	C 	0.46505 0.80220 0.15670 0.25200
C 	C 	0.52728 0.80430 0.15780 0.24800
C 	C 	0.66281 0.67160 0.32910 0.18400
C 	C 	0.33006 0.67750 0.33430 0.18300
Cu	Cu	0.25000 -0.00000 0.99140 0.85700
Cu	Cu	0.25000 0.50000 0.50860 0.89500
Cu	Cu	0.75000 -0.00000 0.00860 0.85700
Cu	Cu	0.75000 0.50000 0.49140 0.89500
C 	C 	0.63583 0.25000 0.75000 -0.03700
C 	C 	0.43775 0.25000 0.75000 -0.07000
C 	C 	0.37190 0.25000 0.75000 -0.03900
C 	C 	0.56982 0.25000 0.75000 -0.07400
C 	C 	0.86417 0.75000 0.75000 -0.03100
C 	C 	0.06225 0.75000 0.75000 -0.05600
C 	C 	0.12810 0.75000 0.75000 -0.03300
C 	C 	0.93018 0.75000 0.75000 -0.06300
C 	C 	0.36417 0.75000 0.25000 -0.03100
C 	C 	0.56225 0.75000 0.25000 -0.05700
C 	C 	0.62810 0.75000 0.25000 -0.03300
C 	C 	0.43018 0.75000 0.25000 -0.06200
C 	C 	0.13583 0.25000 0.25000 -0.03700
C 	C 	0.93775 0.25000 0.25000 -0.06900
C 	C 	0.87190 0.25000 0.25000 -0.03900
C 	C 	0.06982 0.25000 0.25000 -0.07500
