data_crystal

_cell_length_a 10.96190
_cell_length_b 16.00980
_cell_length_c 23.38300
_cell_angle_alpha 90.00000
_cell_angle_beta  90.00000
_cell_angle_gamma 90.00000

_symmetry_space_group_name_	'P 1'
_symmetry_space_group_name_H-M	'P 1'

loop_
_symmetry_equiv_pos_as_xyz
  x,y,z

loop_
_atom_site_label
_atom_site_type_symbol
_atom_site_fract_x
_atom_site_fract_y
_atom_site_fract_z
_atom_site_charge
O 	O 	0.87300 0.91100 0.04680 -0.42800
C 	C 	0.65960 0.69640 0.95000 -0.09800
H 	H 	0.63310 0.67260 0.91500 0.08500
C 	C 	0.72870 0.77130 0.94940 0.09700
H 	H 	0.75050 0.79670 0.91410 0.03500
C 	C 	0.41900 0.92500 0.35300 -0.51700
H 	H 	0.43330 0.88970 0.31880 0.06900
H 	H 	0.42750 0.89690 0.38940 0.08500
H 	H 	0.33500 0.94050 0.34560 0.12100
H 	H 	0.62610 0.04460 0.29340 0.06400
H 	H 	0.50750 0.00700 0.26290 0.34600
H 	H 	0.60800 0.94560 0.28940 0.13600
H 	H 	0.43610 0.89270 0.38720 0.11500
H 	H 	0.33310 0.94270 0.35290 0.07800
H 	H 	0.44540 0.88500 0.32190 0.07000
O 	O 	0.12700 0.08900 0.04680 -0.50300
C 	C 	0.34040 0.30360 0.95000 -0.12200
H 	H 	0.36690 0.32740 0.91500 0.08400
C 	C 	0.27130 0.22870 0.94940 0.11000
H 	H 	0.24950 0.20330 0.91410 0.00900
C 	C 	0.58100 0.07500 0.35300 -0.55500
H 	H 	0.56670 0.11030 0.31880 0.06600
H 	H 	0.57250 0.10310 0.38940 0.08700
H 	H 	0.66500 0.05950 0.34560 0.10600
H 	H 	0.37390 0.95540 0.29340 0.11400
H 	H 	0.49250 0.99300 0.26290 -0.17400
H 	H 	0.39200 0.05440 0.28940 0.11900
H 	H 	0.56390 0.10730 0.38720 0.11100
H 	H 	0.66690 0.05730 0.35290 0.07900
H 	H 	0.55460 0.11500 0.32190 0.06900
O 	O 	0.12700 0.91100 0.95320 -0.43800
C 	C 	0.34040 0.69640 0.05000 -0.13500
H 	H 	0.36690 0.67260 0.08500 0.08600
C 	C 	0.27130 0.77130 0.05060 0.07800
H 	H 	0.24950 0.79670 0.08590 0.02700
C 	C 	0.58100 0.92500 0.64700 -0.52600
H 	H 	0.56670 0.88970 0.68120 0.07100
H 	H 	0.57250 0.89690 0.61060 0.08800
H 	H 	0.66500 0.94050 0.65440 0.12500
H 	H 	0.37390 0.04460 0.70660 0.06500
H 	H 	0.49250 0.00700 0.73710 0.34600
H 	H 	0.39200 0.94560 0.71060 0.13500
H 	H 	0.56390 0.89270 0.61280 0.11800
H 	H 	0.66690 0.94270 0.64710 0.08200
H 	H 	0.55460 0.88500 0.67810 0.07300
O 	O 	0.87300 0.08900 0.95320 -0.44700
C 	C 	0.65960 0.30360 0.05000 -0.13400
H 	H 	0.63310 0.32740 0.08500 0.08600
C 	C 	0.72870 0.22870 0.05060 0.08200
H 	H 	0.75050 0.20330 0.08590 0.02400
C 	C 	0.41900 0.07500 0.64700 -0.54800
H 	H 	0.43330 0.11030 0.68120 0.06500
H 	H 	0.42750 0.10310 0.61060 0.08500
H 	H 	0.33500 0.05950 0.65440 0.10200
H 	H 	0.62610 0.95540 0.70660 0.11500
H 	H 	0.50750 0.99300 0.73710 -0.17300
H 	H 	0.60800 0.05440 0.71060 0.12200
H 	H 	0.43610 0.10730 0.61280 0.10800
H 	H 	0.33310 0.05730 0.64710 0.07500
H 	H 	0.44540 0.11500 0.67810 0.06700
O 	O 	0.12700 0.08900 0.95320 -0.48300
C 	C 	0.34040 0.30360 0.05000 -0.14700
H 	H 	0.36690 0.32740 0.08500 0.08600
C 	C 	0.27130 0.22870 0.05060 0.08700
H 	H 	0.24950 0.20330 0.08590 0.01200
C 	C 	0.58100 0.07500 0.64700 -0.55600
H 	H 	0.56670 0.11030 0.68120 0.06700
H 	H 	0.57250 0.10310 0.61060 0.08700
H 	H 	0.66500 0.05950 0.65440 0.10600
H 	H 	0.37390 0.95540 0.70660 0.11500
H 	H 	0.49250 0.99300 0.73710 -0.17400
H 	H 	0.39200 0.05440 0.71060 0.11900
H 	H 	0.56390 0.10730 0.61280 0.11100
H 	H 	0.66690 0.05730 0.64710 0.07900
H 	H 	0.55460 0.11500 0.67810 0.07000
O 	O 	0.87300 0.91100 0.95320 -0.40600
C 	C 	0.65960 0.69640 0.05000 -0.12200
H 	H 	0.63310 0.67260 0.08500 0.08700
C 	C 	0.72870 0.77130 0.05060 0.07400
H 	H 	0.75050 0.79670 0.08590 0.03800
C 	C 	0.41900 0.92500 0.64700 -0.51800
H 	H 	0.43330 0.88970 0.68120 0.06900
H 	H 	0.42750 0.89690 0.61060 0.08600
H 	H 	0.33500 0.94050 0.65440 0.12100
H 	H 	0.62610 0.04460 0.70660 0.06500
H 	H 	0.50750 0.00700 0.73710 0.34600
H 	H 	0.60800 0.94560 0.71060 0.13700
H 	H 	0.43610 0.89270 0.61280 0.11600
H 	H 	0.33310 0.94270 0.64710 0.07800
H 	H 	0.44540 0.88500 0.67810 0.07100
O 	O 	0.87300 0.08900 0.04680 -0.46800
C 	C 	0.65960 0.30360 0.95000 -0.10900
H 	H 	0.63310 0.32740 0.91500 0.08500
C 	C 	0.72870 0.22870 0.94940 0.10500
H 	H 	0.75050 0.20330 0.91410 0.02100
C 	C 	0.41900 0.07500 0.35300 -0.54700
H 	H 	0.43330 0.11030 0.31880 0.06400
H 	H 	0.42750 0.10310 0.38940 0.08400
H 	H 	0.33500 0.05950 0.34560 0.10200
H 	H 	0.62610 0.95540 0.29340 0.11400
H 	H 	0.50750 0.99300 0.26290 -0.17400
H 	H 	0.60800 0.05440 0.28940 0.12200
H 	H 	0.43610 0.10730 0.38720 0.10800
H 	H 	0.33310 0.05730 0.35290 0.07400
H 	H 	0.44540 0.11500 0.32190 0.06700
O 	O 	0.12700 0.91100 0.04680 -0.45900
C 	C 	0.34040 0.69640 0.95000 -0.11000
H 	H 	0.36690 0.67260 0.91500 0.08400
C 	C 	0.27130 0.77130 0.94940 0.10100
H 	H 	0.24950 0.79670 0.91410 0.02400
C 	C 	0.58100 0.92500 0.35300 -0.52500
H 	H 	0.56670 0.88970 0.31880 0.07100
H 	H 	0.57250 0.89690 0.38940 0.08700
H 	H 	0.66500 0.94050 0.34560 0.12400
H 	H 	0.37390 0.04460 0.29340 0.06400
H 	H 	0.49250 0.00700 0.26290 0.34500
H 	H 	0.39200 0.94560 0.28940 0.13400
H 	H 	0.56390 0.89270 0.38720 0.11800
H 	H 	0.66690 0.94270 0.35290 0.08200
H 	H 	0.55460 0.88500 0.32190 0.07300
Zn	Zn	0.00000 0.00000 0.06283 1.19900
N 	N 	0.00000 0.00000 0.13930 -0.33300
C 	C 	0.00000 0.00000 0.27420 0.09700
C 	C 	0.00000 0.00000 0.32910 -0.17400
C 	C 	-0.00000 -0.00000 0.37780 0.13100
C 	C 	0.00000 0.00000 0.43290 -0.18700
Zn	Zn	0.00000 0.00000 0.93717 1.20300
N 	N 	0.00000 0.00000 0.86070 -0.33300
C 	C 	0.00000 0.00000 0.72580 0.09700
C 	C 	-0.00000 -0.00000 0.67090 -0.17300
C 	C 	0.00000 0.00000 0.62220 0.13100
C 	C 	0.00000 0.00000 0.56710 -0.18600
Br	Br	0.79771 0.50000 -0.00000 -0.21100
C 	C 	0.62810 0.50000 -0.00000 0.09800
Br	Br	0.20229 0.50000 -0.00000 -0.26400
C 	C 	0.37190 0.50000 -0.00000 0.10700
C 	C 	0.63070 0.65830 -0.00000 0.08600
C 	C 	0.76360 0.80640 -0.00000 -0.14400
C 	C 	0.84560 0.88370 -0.00000 0.41100
C 	C 	0.56490 0.57660 -0.00000 -0.04200
C 	C 	0.36930 0.34170 -0.00000 0.09800
C 	C 	0.23640 0.19360 -0.00000 -0.18300
C 	C 	0.15440 0.11630 -0.00000 0.42700
C 	C 	0.43510 0.42340 -0.00000 -0.05400
C 	C 	0.36930 0.65830 -0.00000 0.09200
C 	C 	0.23640 0.80640 -0.00000 -0.16100
C 	C 	0.15440 0.88370 -0.00000 0.41400
C 	C 	0.43510 0.57660 -0.00000 -0.05200
C 	C 	0.63070 0.34170 -0.00000 0.09200
C 	C 	0.76360 0.19360 -0.00000 -0.16500
C 	C 	0.84560 0.11630 -0.00000 0.42200
C 	C 	0.56490 0.42340 -0.00000 -0.04400
C 	C 	0.09550 0.00000 0.17770 0.07000
H 	H 	0.17400 0.00000 0.16050 -0.01300
C 	C 	0.09730 -0.00000 0.23670 -0.17200
H 	H 	0.17590 0.00000 0.25380 0.06400
C 	C 	0.90290 0.00000 0.47049 0.15600
O 	O 	0.78020 0.00000 0.44730 -0.26000
C 	C 	0.64800 0.00000 0.45190 0.37200
O 	O 	0.58620 0.00000 0.39730 -0.35300
C 	C 	0.56600 0.00000 0.29410 -0.68200
C 	C 	0.90450 0.00000 0.17770 0.13100
H 	H 	0.82600 0.00000 0.16050 -0.02300
C 	C 	0.90270 -0.00000 0.23670 -0.11300
H 	H 	0.82410 0.00000 0.25380 0.05700
C 	C 	0.09710 0.00000 0.47049 0.10300
O 	O 	0.21980 0.00000 0.44730 -0.26400
C 	C 	0.35200 0.00000 0.45190 0.36700
O 	O 	0.41380 0.00000 0.39730 -0.35500
C 	C 	0.43400 0.00000 0.29410 -0.68400
C 	C 	0.90450 -0.00000 0.82230 0.13200
H 	H 	0.82600 0.00000 0.83950 -0.02100
C 	C 	0.90270 0.00000 0.76330 -0.11200
H 	H 	0.82410 -0.00000 0.74620 0.05800
C 	C 	0.09710 0.00000 0.52951 0.10300
O 	O 	0.21980 -0.00000 0.55270 -0.26400
C 	C 	0.35200 0.00000 0.54810 0.36700
O 	O 	0.41380 0.00000 0.60270 -0.35600
C 	C 	0.43400 0.00000 0.70590 -0.68500
C 	C 	0.09550 -0.00000 0.82230 0.07000
H 	H 	0.17400 0.00000 0.83950 -0.01100
C 	C 	0.09730 0.00000 0.76330 -0.17100
H 	H 	0.17590 -0.00000 0.74620 0.06400
C 	C 	0.90290 0.00000 0.52951 0.15600
O 	O 	0.78020 -0.00000 0.55270 -0.26000
C 	C 	0.64800 0.00000 0.54810 0.37200
O 	O 	0.58620 0.00000 0.60270 -0.35300
C 	C 	0.56600 0.00000 0.70590 -0.68300
O 	O 	0.59100 -0.00000 0.50000 -0.33600
O 	O 	0.40900 -0.00000 0.50000 -0.33500
C 	C 	0.50000 0.00000 0.35030 1.05000
C 	C 	0.50000 0.00000 0.64970 1.05100
