data_crystal

_cell_length_a 7.35240
_cell_length_b 23.17500
_cell_length_c 29.16420
_cell_angle_alpha 90.00000
_cell_angle_beta  90.00000
_cell_angle_gamma 90.77200

_symmetry_space_group_name_	'P 1'
_symmetry_space_group_name_H-M	'P 1'

loop_
_symmetry_equiv_pos_as_xyz
  x,y,z

loop_
_atom_site_label
_atom_site_type_symbol
_atom_site_fract_x
_atom_site_fract_y
_atom_site_fract_z
_atom_site_charge
Ce	Ce	0.79029 0.66691 0.29850 2.13200
Ce	Ce	0.29337 0.73903 0.26366 2.14400
Ce	Ce	0.20971 0.83309 0.79850 2.13200
Ce	Ce	0.70663 0.76097 0.76366 2.14400
Ce	Ce	0.20971 0.33309 0.70150 2.13200
Ce	Ce	0.70663 0.26097 0.73634 2.14400
Ce	Ce	0.79029 0.16691 0.20150 2.13200
Ce	Ce	0.29337 0.23903 0.23634 2.14400
H 	H 	0.91480 0.61990 0.57960 0.24600
H 	H 	0.89920 0.34290 0.29220 0.30800
H 	H 	0.59030 0.73740 0.45110 0.20100
H 	H 	0.97480 0.76640 0.43300 0.03900
H 	H 	0.11900 0.79720 0.49940 0.24400
H 	H 	0.22210 0.70840 0.55290 0.17400
H 	H 	0.23620 0.84920 0.66620 -0.00200
H 	H 	0.42080 0.85880 0.60240 0.23800
H 	H 	0.97250 0.53430 0.17710 0.14000
H 	H 	0.59600 0.55370 0.17110 0.03400
H 	H 	0.44590 0.50080 0.11580 0.23700
H 	H 	0.12390 0.41710 0.17950 0.12600
H 	H 	0.57570 0.36040 0.11440 0.09100
H 	H 	0.75460 0.43050 0.07890 0.26200
H 	H 	0.08520 0.88010 0.07960 0.24500
H 	H 	0.10080 0.15710 0.79220 0.30600
H 	H 	0.40970 0.76260 0.95110 0.20000
H 	H 	0.02520 0.73360 0.93300 0.03700
H 	H 	0.88100 0.70280 0.99940 0.24400
H 	H 	0.77790 0.79160 0.05290 0.17300
H 	H 	0.76380 0.65080 0.16620 -0.00200
H 	H 	0.57920 0.64120 0.10240 0.23900
H 	H 	0.02750 0.96570 0.67710 0.14100
H 	H 	0.40400 0.94630 0.67110 0.03400
H 	H 	0.55410 0.99920 0.61580 0.23700
H 	H 	0.87610 0.08290 0.67950 0.12600
H 	H 	0.42430 0.13960 0.61440 0.09100
H 	H 	0.24540 0.06950 0.57890 0.26300
H 	H 	0.08520 0.38010 0.42040 0.24500
H 	H 	0.10080 0.65710 0.70780 0.30700
H 	H 	0.40970 0.26260 0.54890 0.20000
H 	H 	0.02520 0.23360 0.56700 0.03800
H 	H 	0.88100 0.20280 0.50060 0.24400
H 	H 	0.77790 0.29160 0.44710 0.17400
H 	H 	0.76380 0.15080 0.33380 -0.00200
H 	H 	0.57920 0.14120 0.39760 0.23800
H 	H 	0.02750 0.46570 0.82290 0.14000
H 	H 	0.40400 0.44630 0.82890 0.03400
H 	H 	0.55410 0.49920 0.88420 0.23700
H 	H 	0.87610 0.58290 0.82050 0.12600
H 	H 	0.42430 0.63960 0.88560 0.09100
H 	H 	0.24540 0.56950 0.92110 0.26200
H 	H 	0.91480 0.11990 0.92040 0.24500
H 	H 	0.89920 0.84290 0.20780 0.30600
H 	H 	0.59030 0.23740 0.04890 0.20000
H 	H 	0.97480 0.26640 0.06700 0.03700
H 	H 	0.11900 0.29720 0.00060 0.24400
H 	H 	0.22210 0.20840 0.94710 0.17300
H 	H 	0.23620 0.34920 0.83380 -0.00200
H 	H 	0.42080 0.35880 0.89760 0.23900
H 	H 	0.97250 0.03430 0.32290 0.14100
H 	H 	0.59600 0.05370 0.32890 0.03400
H 	H 	0.44590 0.00080 0.38420 0.23700
H 	H 	0.12390 0.91710 0.32050 0.12600
H 	H 	0.57570 0.86040 0.38560 0.09100
H 	H 	0.75460 0.93050 0.42110 0.26300
C 	C 	0.46450 0.78900 0.52830 -0.48800
C 	C 	0.37160 0.76840 0.48330 0.35700
C 	C 	0.46620 0.74320 0.44760 -0.21100
C 	C 	0.38390 0.72620 0.40720 0.07300
C 	C 	0.19390 0.73300 0.40208 -0.13500
C 	C 	0.09870 0.76010 0.43660 0.19700
C 	C 	0.18500 0.77840 0.47680 -0.24900
C 	C 	0.49750 0.70210 0.36950 0.30500
C 	C 	0.08800 0.70780 0.36260 0.35800
C 	C 	0.33860 0.78580 0.57030 0.36600
C 	C 	0.22530 0.73660 0.57560 -0.21700
C 	C 	0.11810 0.73010 0.61480 0.12100
C 	C 	0.12060 0.77240 0.64900 -0.16600
C 	C 	0.23390 0.82080 0.64370 0.19600
C 	C 	0.34350 0.82690 0.60510 -0.25100
C 	C 	0.00770 0.67610 0.61780 0.30100
C 	C 	0.99760 0.77200 0.69020 0.43900
C 	C 	0.53450 0.85150 0.51940 0.99400
C 	C 	0.62890 0.75030 0.54020 0.96600
C 	C 	0.07690 0.47900 0.10380 -0.43800
C 	C 	0.19150 0.51280 0.13893 0.32500
C 	C 	0.09780 0.53970 0.17490 -0.16700
C 	C 	0.18530 0.57380 0.20700 0.04400
C 	C 	0.37630 0.57900 0.20600 -0.12900
C 	C 	0.46980 0.55100 0.17190 0.15400
C 	C 	0.37920 0.51880 0.13870 -0.23900
C 	C 	0.07450 0.60350 0.24240 0.32100
C 	C 	0.48480 0.61200 0.24180 0.37000
C 	C 	0.95520 0.43300 0.12710 0.27900
C 	C 	0.01090 0.40730 0.16720 -0.14600
C 	C 	0.90060 0.36700 0.18980 0.01200
C 	C 	0.73270 0.35040 0.17050 -0.11500
C 	C 	0.68260 0.37310 0.12840 0.12400
C 	C 	0.79100 0.41480 0.10670 -0.20000
C 	C 	0.96240 0.34700 0.23620 0.37400
C 	C 	0.60500 0.30800 0.19180 0.39700
C 	C 	0.19600 0.44670 0.06850 0.97300
C 	C 	0.95940 0.52450 0.07760 0.95200
C 	C 	0.53550 0.71100 0.02830 -0.48800
C 	C 	0.62840 0.73160 0.98330 0.35700
C 	C 	0.53380 0.75680 0.94760 -0.21100
C 	C 	0.61610 0.77380 0.90720 0.07300
C 	C 	0.80610 0.76700 0.90208 -0.13600
C 	C 	0.90130 0.73990 0.93660 0.19900
C 	C 	0.81500 0.72160 0.97680 -0.25000
C 	C 	0.50250 0.79790 0.86950 0.30500
C 	C 	0.91200 0.79220 0.86260 0.35900
C 	C 	0.66140 0.71420 0.07030 0.36600
C 	C 	0.77470 0.76340 0.07560 -0.21800
C 	C 	0.88190 0.76990 0.11480 0.12200
C 	C 	0.87940 0.72760 0.14900 -0.16700
C 	C 	0.76610 0.67920 0.14370 0.19700
C 	C 	0.65650 0.67310 0.10510 -0.25200
C 	C 	0.99230 0.82390 0.11780 0.29900
C 	C 	0.00240 0.72800 0.19020 0.44000
C 	C 	0.46550 0.64850 0.01940 0.99400
C 	C 	0.37110 0.74970 0.04020 0.96600
C 	C 	0.92310 0.02100 0.60380 -0.44000
C 	C 	0.80850 0.98720 0.63893 0.32600
C 	C 	0.90220 0.96030 0.67490 -0.16800
C 	C 	0.81470 0.92620 0.70700 0.04500
C 	C 	0.62370 0.92100 0.70600 -0.12900
C 	C 	0.53020 0.94900 0.67190 0.15500
C 	C 	0.62080 0.98120 0.63870 -0.23900
C 	C 	0.92550 0.89650 0.74240 0.32100
C 	C 	0.51520 0.88800 0.74180 0.37000
C 	C 	0.04480 0.06700 0.62710 0.28000
C 	C 	0.98910 0.09270 0.66720 -0.14700
C 	C 	0.09940 0.13300 0.68980 0.01300
C 	C 	0.26730 0.14960 0.67050 -0.11500
C 	C 	0.31740 0.12690 0.62840 0.12500
C 	C 	0.20900 0.08520 0.60670 -0.20100
C 	C 	0.03760 0.15300 0.73620 0.37400
C 	C 	0.39500 0.19200 0.69180 0.39700
C 	C 	0.80400 0.05330 0.56850 0.97300
C 	C 	0.04060 0.97550 0.57760 0.95300
C 	C 	0.53550 0.21100 0.47170 -0.48800
C 	C 	0.62840 0.23160 0.51670 0.35700
C 	C 	0.53380 0.25680 0.55240 -0.21100
C 	C 	0.61610 0.27380 0.59280 0.07300
C 	C 	0.80610 0.26700 0.59792 -0.13500
C 	C 	0.90130 0.23990 0.56340 0.19700
C 	C 	0.81500 0.22160 0.52320 -0.24900
C 	C 	0.50250 0.29790 0.63050 0.30500
C 	C 	0.91200 0.29220 0.63740 0.35800
C 	C 	0.66140 0.21420 0.42970 0.36600
C 	C 	0.77470 0.26340 0.42440 -0.21700
C 	C 	0.88190 0.26990 0.38520 0.12100
C 	C 	0.87940 0.22760 0.35100 -0.16600
C 	C 	0.76610 0.17920 0.35630 0.19600
C 	C 	0.65650 0.17310 0.39490 -0.25100
C 	C 	0.99230 0.32390 0.38220 0.30100
C 	C 	0.00240 0.22800 0.30980 0.43900
C 	C 	0.46550 0.14850 0.48060 0.99400
C 	C 	0.37110 0.24970 0.45980 0.96600
C 	C 	0.92310 0.52100 0.89620 -0.43800
C 	C 	0.80850 0.48720 0.86107 0.32500
C 	C 	0.90220 0.46030 0.82510 -0.16700
C 	C 	0.81470 0.42620 0.79300 0.04400
C 	C 	0.62370 0.42100 0.79400 -0.12900
C 	C 	0.53020 0.44900 0.82810 0.15400
C 	C 	0.62080 0.48120 0.86130 -0.23900
C 	C 	0.92550 0.39650 0.75760 0.32100
C 	C 	0.51520 0.38800 0.75820 0.37000
C 	C 	0.04480 0.56700 0.87290 0.27900
C 	C 	0.98910 0.59270 0.83280 -0.14600
C 	C 	0.09940 0.63300 0.81020 0.01200
C 	C 	0.26730 0.64960 0.82950 -0.11500
C 	C 	0.31740 0.62690 0.87160 0.12400
C 	C 	0.20900 0.58520 0.89330 -0.20000
C 	C 	0.03760 0.65300 0.76380 0.37400
C 	C 	0.39500 0.69200 0.80820 0.39700
C 	C 	0.80400 0.55330 0.93150 0.97300
C 	C 	0.04060 0.47550 0.92240 0.95200
C 	C 	0.46450 0.28900 0.97170 -0.48800
C 	C 	0.37160 0.26840 0.01670 0.35700
C 	C 	0.46620 0.24320 0.05240 -0.21100
C 	C 	0.38390 0.22620 0.09280 0.07300
C 	C 	0.19390 0.23300 0.09792 -0.13600
C 	C 	0.09870 0.26010 0.06340 0.19900
C 	C 	0.18500 0.27840 0.02320 -0.25000
C 	C 	0.49750 0.20210 0.13050 0.30500
C 	C 	0.08800 0.20780 0.13740 0.35900
C 	C 	0.33860 0.28580 0.92970 0.36600
C 	C 	0.22530 0.23660 0.92440 -0.21800
C 	C 	0.11810 0.23010 0.88520 0.12200
C 	C 	0.12060 0.27240 0.85100 -0.16700
C 	C 	0.23390 0.32080 0.85630 0.19700
C 	C 	0.34350 0.32690 0.89490 -0.25200
C 	C 	0.00770 0.17610 0.88220 0.29900
C 	C 	0.99760 0.27200 0.80980 0.44000
C 	C 	0.53450 0.35150 0.98060 0.99400
C 	C 	0.62890 0.25030 0.95980 0.96600
C 	C 	0.07690 0.97900 0.39620 -0.44000
C 	C 	0.19150 0.01280 0.36107 0.32600
C 	C 	0.09780 0.03970 0.32510 -0.16800
C 	C 	0.18530 0.07380 0.29300 0.04500
C 	C 	0.37630 0.07900 0.29400 -0.12900
C 	C 	0.46980 0.05100 0.32810 0.15500
C 	C 	0.37920 0.01880 0.36130 -0.23900
C 	C 	0.07450 0.10350 0.25760 0.32100
C 	C 	0.48480 0.11200 0.25820 0.37000
C 	C 	0.95520 0.93300 0.37290 0.28000
C 	C 	0.01090 0.90730 0.33280 -0.14700
C 	C 	0.90060 0.86700 0.31020 0.01300
C 	C 	0.73270 0.85040 0.32950 -0.11500
C 	C 	0.68260 0.87310 0.37160 0.12500
C 	C 	0.79100 0.91480 0.39330 -0.20100
C 	C 	0.96240 0.84700 0.26380 0.37400
C 	C 	0.60500 0.80800 0.30820 0.39700
C 	C 	0.19600 0.94670 0.43150 0.97300
C 	C 	0.95940 0.02450 0.42240 0.95300
O 	O 	0.66670 0.70020 0.37547 -0.41000
O 	O 	0.42230 0.68629 0.33239 -0.51000
O 	O 	0.06050 0.73882 0.32641 -0.54500
O 	O 	0.01820 0.65916 0.36689 -0.40100
O 	O 	0.98140 0.65090 0.65524 -0.23600
O 	O 	0.94520 0.65710 0.57994 -0.31800
O 	O 	0.06780 0.78030 0.72945 -0.56000
O 	O 	0.83060 0.76610 0.68400 -0.42400
O 	O 	0.15050 0.63811 0.27032 -0.51500
O 	O 	0.90340 0.59450 0.24232 -0.43500
O 	O 	0.51310 0.66596 0.23559 -0.57100
O 	O 	0.55370 0.58550 0.27405 -0.41000
O 	O 	0.11670 0.33080 0.24230 -0.44400
O 	O 	0.84280 0.35260 0.26924 -0.47200
O 	O 	0.66590 0.26418 0.21210 -0.56500
O 	O 	0.43810 0.31660 0.18825 -0.43200
O 	O 	0.33330 0.79980 0.87547 -0.41000
O 	O 	0.57770 0.81371 0.83239 -0.51000
O 	O 	0.93950 0.76118 0.82641 -0.54500
O 	O 	0.98180 0.84084 0.86689 -0.40100
O 	O 	0.01860 0.84910 0.15524 -0.23500
O 	O 	0.05480 0.84290 0.07994 -0.31700
O 	O 	0.93220 0.71970 0.22945 -0.56000
O 	O 	0.16940 0.73390 0.18400 -0.42400
O 	O 	0.84950 0.86189 0.77032 -0.51500
O 	O 	0.09660 0.90550 0.74232 -0.43500
O 	O 	0.48690 0.83404 0.73559 -0.57100
O 	O 	0.44630 0.91450 0.77405 -0.41000
O 	O 	0.88330 0.16920 0.74230 -0.44400
O 	O 	0.15720 0.14740 0.76924 -0.47200
O 	O 	0.33410 0.23582 0.71210 -0.56500
O 	O 	0.56190 0.18340 0.68825 -0.43300
O 	O 	0.33330 0.29980 0.62453 -0.41000
O 	O 	0.57770 0.31371 0.66761 -0.51000
O 	O 	0.93950 0.26118 0.67359 -0.54500
O 	O 	0.98180 0.34084 0.63311 -0.40100
O 	O 	0.01860 0.34910 0.34476 -0.23600
O 	O 	0.05480 0.34290 0.42006 -0.31800
O 	O 	0.93220 0.21970 0.27055 -0.56000
O 	O 	0.16940 0.23390 0.31600 -0.42400
O 	O 	0.84950 0.36189 0.72968 -0.51500
O 	O 	0.09660 0.40550 0.75768 -0.43500
O 	O 	0.48690 0.33404 0.76441 -0.57100
O 	O 	0.44630 0.41450 0.72595 -0.41000
O 	O 	0.88330 0.66920 0.75770 -0.44400
O 	O 	0.15720 0.64740 0.73076 -0.47200
O 	O 	0.33410 0.73582 0.78790 -0.56500
O 	O 	0.56190 0.68340 0.81175 -0.43200
O 	O 	0.66670 0.20020 0.12453 -0.41000
O 	O 	0.42230 0.18629 0.16761 -0.51000
O 	O 	0.06050 0.23882 0.17359 -0.54500
O 	O 	0.01820 0.15916 0.13311 -0.40100
O 	O 	0.98140 0.15090 0.84476 -0.23500
O 	O 	0.94520 0.15710 0.92006 -0.31700
O 	O 	0.06780 0.28030 0.77055 -0.56000
O 	O 	0.83060 0.26610 0.81600 -0.42400
O 	O 	0.15050 0.13811 0.22968 -0.51500
O 	O 	0.90340 0.09450 0.25768 -0.43500
O 	O 	0.51310 0.16596 0.26441 -0.57100
O 	O 	0.55370 0.08550 0.22595 -0.41000
O 	O 	0.11670 0.83080 0.25770 -0.44400
O 	O 	0.84280 0.85260 0.23076 -0.47200
O 	O 	0.66590 0.76418 0.28790 -0.56500
O 	O 	0.43810 0.81660 0.31175 -0.43300
F 	F 	0.39850 0.88759 0.51848 -0.41400
F 	F 	0.65110 0.86920 0.55164 -0.41300
F 	F 	0.62160 0.85480 0.47940 -0.44300
F 	F 	0.77410 0.75890 0.51294 -0.47000
F 	F 	0.58190 0.69430 0.53703 -0.50300
F 	F 	0.68560 0.76000 0.58299 -0.47000
F 	F 	0.29990 0.48326 0.04387 -0.36400
F 	F 	0.30670 0.41109 0.09008 -0.49800
F 	F 	0.09610 0.41547 0.03954 -0.39900
F 	F 	0.05750 0.57044 0.06576 -0.38200
F 	F 	0.88560 0.50364 0.03899 -0.35700
F 	F 	0.82200 0.54229 0.10330 -0.49700
F 	F 	0.60150 0.61241 0.01848 -0.41400
F 	F 	0.34890 0.63080 0.05164 -0.41300
F 	F 	0.37840 0.64520 0.97940 -0.44300
F 	F 	0.22590 0.74110 0.01294 -0.47000
F 	F 	0.41810 0.80570 0.03703 -0.50300
F 	F 	0.31440 0.74000 0.08299 -0.47000
F 	F 	0.70010 0.01674 0.54387 -0.36400
F 	F 	0.69330 0.08891 0.59008 -0.49800
F 	F 	0.90390 0.08453 0.53954 -0.39900
F 	F 	0.94250 0.92956 0.56576 -0.38300
F 	F 	0.11440 0.99636 0.53899 -0.35700
F 	F 	0.17800 0.95771 0.60330 -0.49800
F 	F 	0.60150 0.11241 0.48152 -0.41400
F 	F 	0.34890 0.13080 0.44836 -0.41300
F 	F 	0.37840 0.14520 0.52060 -0.44300
F 	F 	0.22590 0.24110 0.48706 -0.47000
F 	F 	0.41810 0.30570 0.46297 -0.50300
F 	F 	0.31440 0.24000 0.41701 -0.47000
F 	F 	0.70010 0.51674 0.95613 -0.36400
F 	F 	0.69330 0.58891 0.90992 -0.49800
F 	F 	0.90390 0.58453 0.96046 -0.39900
F 	F 	0.94250 0.42956 0.93424 -0.38200
F 	F 	0.11440 0.49636 0.96101 -0.35700
F 	F 	0.17800 0.45771 0.89670 -0.49700
F 	F 	0.39850 0.38759 0.98152 -0.41400
F 	F 	0.65110 0.36920 0.94836 -0.41300
F 	F 	0.62160 0.35480 0.02060 -0.44300
F 	F 	0.77410 0.25890 0.98706 -0.47000
F 	F 	0.58190 0.19430 0.96297 -0.50300
F 	F 	0.68560 0.26000 0.91701 -0.47000
F 	F 	0.29990 0.98326 0.45613 -0.36400
F 	F 	0.30670 0.91109 0.40992 -0.49800
F 	F 	0.09610 0.91547 0.46046 -0.39900
F 	F 	0.05750 0.07044 0.43424 -0.38300
F 	F 	0.88560 0.00364 0.46101 -0.35700
F 	F 	0.82200 0.04229 0.39670 -0.49800
