data_crystal

_cell_length_a 8.07220
_cell_length_b 21.22470
_cell_length_c 22.78990
_cell_angle_alpha 82.62200
_cell_angle_beta  82.40400
_cell_angle_gamma 80.07900

_symmetry_space_group_name_	'P 1'
_symmetry_space_group_name_H-M	'P 1'

loop_
_symmetry_equiv_pos_as_xyz
  x,y,z

loop_
_atom_site_label
_atom_site_type_symbol
_atom_site_fract_x
_atom_site_fract_y
_atom_site_fract_z
_atom_site_charge
Er	Er	0.19764 0.57546 0.71577 1.52000
Er	Er	0.61348 0.52890 0.56690 1.83100
Er	Er	0.53561 0.75095 0.90428 1.51300
Er	Er	0.76040 0.90639 0.96361 1.69300
O 	O 	0.20410 0.46564 0.70424 -0.42700
O 	O 	0.43080 0.49892 0.65658 -0.49300
O 	O 	0.43580 0.46230 0.54172 -0.52500
O 	O 	0.30720 0.39153 0.51070 -0.41900
O 	O 	0.35020 0.19276 0.02302 -0.49800
O 	O 	0.52280 0.26200 0.98832 -0.39600
O 	O 	0.05570 0.16899 0.98635 -0.44000
O 	O 	0.95300 0.27321 0.97838 -0.27800
O 	O 	0.38800 0.64430 0.68610 -0.45800
O 	O 	0.62140 0.60291 0.63073 -0.49600
O 	O 	0.50100 0.73011 0.81297 -0.46500
O 	O 	0.62730 0.63928 0.77604 -0.32100
O 	O 	0.14240 0.60690 0.62102 -0.46300
O 	O 	0.37120 0.60337 0.55293 -0.44600
O 	O 	0.25120 0.57880 0.39781 -0.37200
O 	O 	0.17450 0.53923 0.48985 -0.40100
O 	O 	0.44100 0.85763 0.87908 -0.44900
O 	O 	0.49040 0.93187 0.93352 -0.44900
O 	O 	0.38900 0.07858 0.93963 -0.36700
O 	O 	0.16510 0.03021 0.96514 -0.39600
O 	O 	0.76350 0.78449 0.84353 -0.44600
O 	O 	0.83980 0.86907 0.87606 -0.49900
O 	O 	0.06770 0.66702 0.75321 -0.47100
O 	O 	0.08020 0.69832 0.84209 -0.31300
F 	F 	0.84330 0.24906 0.71340 -0.46600
F 	F 	0.82660 0.19868 0.80164 -0.47100
F 	F 	0.73230 0.30013 0.78794 -0.53500
F 	F 	0.71430 0.14247 0.70456 -0.39200
F 	F 	0.44470 0.14690 0.72759 -0.46000
F 	F 	0.61120 0.12007 0.79566 -0.45700
F 	F 	0.56660 0.80407 0.48986 -0.48000
F 	F 	0.53740 0.89067 0.53174 -0.36200
F 	F 	0.69530 0.88135 0.44852 -0.36600
F 	F 	0.99060 0.88823 0.48298 -0.35200
F 	F 	0.81900 0.92843 0.55392 -0.34700
F 	F 	0.02850 0.85472 0.57399 -0.45700
F 	F 	0.37630 0.03543 0.64858 -0.36100
F 	F 	0.46340 0.93498 0.66857 -0.46500
F 	F 	0.30280 0.96761 0.59861 -0.34300
F 	F 	0.04310 0.07288 0.65079 -0.37100
F 	F 	0.88640 0.02047 0.71647 -0.43000
F 	F 	0.96980 0.98618 0.63096 -0.35700
C 	C 	0.56600 0.23151 0.75622 -0.48300
C 	C 	0.50880 0.27654 0.70212 0.34200
C 	C 	0.44960 0.34139 0.70915 -0.20600
H 	H 	0.43850 0.35510 0.74680 0.13300
C 	C 	0.40730 0.38567 0.66114 0.05400
C 	C 	0.41510 0.36441 0.60470 -0.15400
C 	C 	0.46780 0.29986 0.59860 0.16600
H 	H 	0.47010 0.28550 0.56160 0.05500
C 	C 	0.51720 0.25617 0.64552 -0.25500
H 	H 	0.55590 0.21330 0.63970 0.26600
C 	C 	0.34550 0.45443 0.67317 0.33100
C 	C 	0.37980 0.40847 0.54995 0.40900
C 	C 	0.43780 0.23933 0.81179 0.31900
C 	C 	0.48480 0.23308 0.86961 -0.19300
H 	H 	0.59830 0.22980 0.87500 0.18000
C 	C 	0.36350 0.23167 0.91890 0.04100
C 	C 	0.19370 0.23568 0.91196 -0.14100
C 	C 	0.14470 0.24634 0.85454 0.12500
H 	H 	0.03040 0.25250 0.84930 0.06200
C 	C 	0.26550 0.24775 0.80513 -0.23800
H 	H 	0.23130 0.25440 0.76710 0.18100
C 	C 	0.41730 0.22762 0.97917 0.30700
C 	C 	0.05860 0.22660 0.96336 0.38800
C 	C 	0.74210 0.24550 0.76497 0.96500
C 	C 	0.58500 0.15923 0.74581 0.96100
C 	C 	0.80220 0.82088 0.53631 -0.46100
C 	C 	0.72730 0.79477 0.59886 0.32800
C 	C 	0.66390 0.73733 0.60349 -0.19400
H 	H 	0.66160 0.71850 0.56900 0.14600
C 	C 	0.60370 0.70698 0.65819 0.01700
C 	C 	0.60890 0.73563 0.71042 -0.14100
C 	C 	0.66480 0.79352 0.70529 0.16100
H 	H 	0.66220 0.81330 0.73960 0.01800
C 	C 	0.72580 0.82432 0.65073 -0.24400
H 	H 	0.76450 0.86340 0.64880 0.25200
C 	C 	0.53220 0.64601 0.65878 0.43400
C 	C 	0.57530 0.69898 0.77100 0.39600
C 	C 	0.91690 0.76442 0.50818 0.31200
C 	C 	0.01780 0.72129 0.54571 -0.16500
H 	H 	0.02140 0.73020 0.58440 0.13100
C 	C 	0.11280 0.66539 0.52601 0.00800
C 	C 	0.10680 0.65149 0.46817 -0.08300
C 	C 	0.01670 0.69635 0.42941 0.12100
H 	H 	0.01920 0.68850 0.39010 0.06300
C 	C 	0.92300 0.75280 0.44844 -0.20900
H 	H 	0.86470 0.78270 0.42190 0.23200
C 	C 	0.21820 0.62124 0.56961 0.42600
C 	C 	0.18120 0.58682 0.45026 0.30800
C 	C 	0.64900 0.85012 0.50080 0.96500
C 	C 	0.90970 0.87396 0.53711 0.96500
C 	C 	0.17400 0.97220 0.69920 -0.46900
C 	C 	0.21530 0.99573 0.75665 0.32000
C 	C 	0.31040 0.95129 0.79444 -0.16800
H 	H 	0.35150 0.91040 0.78310 0.13400
C 	C 	0.34560 0.96615 0.84859 0.00700
C 	C 	0.28390 0.02854 0.86485 -0.07200
C 	C 	0.19340 0.07386 0.82636 0.14500
H 	H 	0.15490 0.11520 0.83680 0.04600
C 	C 	0.16020 0.05761 0.77232 -0.20700
H 	H 	0.10090 0.08830 0.74660 0.24900
C 	C 	0.43360 0.91464 0.88964 0.40000
C 	C 	0.28410 0.04590 0.92683 0.32300
C 	C 	0.13550 0.90297 0.71528 0.33100
C 	C 	0.02100 0.89257 0.76539 -0.18900
H 	H 	0.96530 0.92770 0.78460 0.14900
C 	C 	0.98690 0.83159 0.78768 0.00800
C 	C 	0.07120 0.77801 0.75888 -0.13000
C 	C 	0.17680 0.78863 0.70647 0.14900
H 	H 	0.22640 0.75400 0.68560 0.01700
C 	C 	0.21020 0.85021 0.68440 -0.24000
H 	H 	0.28160 0.85620 0.64930 0.24100
C 	C 	0.85570 0.82641 0.83989 0.42700
C 	C 	0.07030 0.70918 0.78657 0.39900
C 	C 	0.32990 0.97761 0.65293 0.97100
C 	C 	0.01840 0.01360 0.67392 0.95800
Er	Er	0.80236 0.42454 0.28423 1.52100
Er	Er	0.38652 0.47110 0.43310 1.83200
Er	Er	0.46439 0.24905 0.09572 1.51400
Er	Er	0.23960 0.09361 0.03639 1.69400
O 	O 	0.79590 0.53436 0.29576 -0.42600
O 	O 	0.56920 0.50108 0.34342 -0.49200
O 	O 	0.56420 0.53770 0.45828 -0.52500
O 	O 	0.69280 0.60847 0.48930 -0.41900
O 	O 	0.64980 0.80724 0.97698 -0.49800
O 	O 	0.47720 0.73800 0.01168 -0.39600
O 	O 	0.94430 0.83101 0.01365 -0.44000
O 	O 	0.04700 0.72679 0.02162 -0.27800
O 	O 	0.61200 0.35570 0.31390 -0.45800
O 	O 	0.37860 0.39709 0.36927 -0.49600
O 	O 	0.49900 0.26989 0.18703 -0.46500
O 	O 	0.37270 0.36072 0.22396 -0.32100
O 	O 	0.85760 0.39310 0.37898 -0.46300
O 	O 	0.62880 0.39663 0.44707 -0.44600
O 	O 	0.74880 0.42120 0.60219 -0.37200
O 	O 	0.82550 0.46077 0.51015 -0.40100
O 	O 	0.55900 0.14237 0.12092 -0.44900
O 	O 	0.50960 0.06813 0.06648 -0.44900
O 	O 	0.61100 0.92142 0.06037 -0.36700
O 	O 	0.83490 0.96979 0.03486 -0.39600
O 	O 	0.23650 0.21551 0.15647 -0.44600
O 	O 	0.16020 0.13093 0.12394 -0.49900
O 	O 	0.93230 0.33298 0.24679 -0.47100
O 	O 	0.91980 0.30168 0.15791 -0.31300
F 	F 	0.15670 0.75094 0.28660 -0.46600
F 	F 	0.17340 0.80132 0.19836 -0.47100
F 	F 	0.26770 0.69987 0.21206 -0.53500
F 	F 	0.28570 0.85753 0.29544 -0.39200
F 	F 	0.55530 0.85310 0.27241 -0.46000
F 	F 	0.38880 0.87993 0.20434 -0.45700
F 	F 	0.43340 0.19593 0.51014 -0.48000
F 	F 	0.46260 0.10933 0.46826 -0.36200
F 	F 	0.30470 0.11865 0.55148 -0.36600
F 	F 	0.00940 0.11177 0.51702 -0.35200
F 	F 	0.18100 0.07157 0.44608 -0.34700
F 	F 	0.97150 0.14528 0.42601 -0.45700
F 	F 	0.62370 0.96457 0.35142 -0.36100
F 	F 	0.53660 0.06502 0.33143 -0.46500
F 	F 	0.69720 0.03239 0.40139 -0.34300
F 	F 	0.95690 0.92712 0.34921 -0.37100
F 	F 	0.11360 0.97953 0.28353 -0.43000
F 	F 	0.03020 0.01382 0.36904 -0.35700
C 	C 	0.43400 0.76849 0.24378 -0.48300
C 	C 	0.49120 0.72346 0.29788 0.34200
C 	C 	0.55040 0.65861 0.29085 -0.20600
H 	H 	0.56150 0.64490 0.25320 0.13300
C 	C 	0.59270 0.61433 0.33886 0.05400
C 	C 	0.58490 0.63559 0.39530 -0.15400
C 	C 	0.53220 0.70014 0.40140 0.16600
H 	H 	0.52990 0.71450 0.43840 0.05500
C 	C 	0.48280 0.74383 0.35448 -0.25500
H 	H 	0.44410 0.78670 0.36030 0.26600
C 	C 	0.65450 0.54557 0.32683 0.33100
C 	C 	0.62020 0.59153 0.45005 0.40900
C 	C 	0.56220 0.76067 0.18821 0.31900
C 	C 	0.51520 0.76692 0.13039 -0.19300
H 	H 	0.40170 0.77020 0.12500 0.18000
C 	C 	0.63650 0.76833 0.08110 0.04100
C 	C 	0.80630 0.76432 0.08804 -0.14100
C 	C 	0.85530 0.75366 0.14546 0.12500
H 	H 	0.96960 0.74750 0.15070 0.06200
C 	C 	0.73450 0.75225 0.19487 -0.23800
H 	H 	0.76870 0.74560 0.23290 0.18100
C 	C 	0.58270 0.77238 0.02083 0.30700
C 	C 	0.94140 0.77340 0.03664 0.38800
C 	C 	0.25790 0.75450 0.23503 0.96500
C 	C 	0.41500 0.84077 0.25419 0.96100
C 	C 	0.19780 0.17912 0.46369 -0.46100
C 	C 	0.27270 0.20523 0.40114 0.32800
C 	C 	0.33610 0.26267 0.39651 -0.19400
H 	H 	0.33840 0.28150 0.43100 0.14600
C 	C 	0.39630 0.29302 0.34181 0.01700
C 	C 	0.39110 0.26437 0.28958 -0.14100
C 	C 	0.33520 0.20648 0.29471 0.16100
H 	H 	0.33780 0.18670 0.26040 0.01800
C 	C 	0.27420 0.17568 0.34927 -0.24400
H 	H 	0.23550 0.13660 0.35120 0.25200
C 	C 	0.46780 0.35399 0.34122 0.43400
C 	C 	0.42470 0.30102 0.22900 0.39600
C 	C 	0.08310 0.23558 0.49182 0.31200
C 	C 	0.98220 0.27871 0.45429 -0.16500
H 	H 	0.97860 0.26980 0.41560 0.13100
C 	C 	0.88720 0.33461 0.47399 0.00800
C 	C 	0.89320 0.34851 0.53183 -0.08300
C 	C 	0.98330 0.30365 0.57059 0.12100
H 	H 	0.98080 0.31150 0.60990 0.06300
C 	C 	0.07700 0.24720 0.55156 -0.20900
H 	H 	0.13530 0.21730 0.57810 0.23200
C 	C 	0.78180 0.37876 0.43039 0.42600
C 	C 	0.81880 0.41318 0.54974 0.30800
C 	C 	0.35100 0.14988 0.49920 0.96500
C 	C 	0.09030 0.12604 0.46289 0.96500
C 	C 	0.82600 0.02780 0.30080 -0.46900
C 	C 	0.78470 0.00427 0.24335 0.32000
C 	C 	0.68960 0.04871 0.20556 -0.16800
H 	H 	0.64850 0.08960 0.21690 0.13400
C 	C 	0.65440 0.03385 0.15141 0.00700
C 	C 	0.71610 0.97146 0.13515 -0.07200
C 	C 	0.80660 0.92614 0.17364 0.14500
H 	H 	0.84510 0.88480 0.16320 0.04600
C 	C 	0.83980 0.94239 0.22768 -0.20700
H 	H 	0.89910 0.91170 0.25340 0.24900
C 	C 	0.56640 0.08536 0.11036 0.40000
C 	C 	0.71590 0.95410 0.07317 0.32300
C 	C 	0.86450 0.09703 0.28472 0.33100
C 	C 	0.97900 0.10743 0.23461 -0.18900
H 	H 	0.03470 0.07230 0.21540 0.14900
C 	C 	0.01310 0.16841 0.21232 0.00800
C 	C 	0.92880 0.22199 0.24112 -0.13000
C 	C 	0.82320 0.21137 0.29353 0.14900
H 	H 	0.77360 0.24600 0.31440 0.01700
C 	C 	0.78980 0.14979 0.31560 -0.24000
H 	H 	0.71840 0.14380 0.35070 0.24100
C 	C 	0.14430 0.17359 0.16011 0.42700
C 	C 	0.92970 0.29082 0.21343 0.39900
C 	C 	0.67010 0.02239 0.34707 0.97100
C 	C 	0.98160 0.98640 0.32608 0.95800
