data_crystal

_cell_length_a 10.97500
_cell_length_b 12.13900
_cell_length_c 13.72800
_cell_angle_alpha 67.25000
_cell_angle_beta  80.94000
_cell_angle_gamma 70.26000

_symmetry_space_group_name_	'P 1'
_symmetry_space_group_name_H-M	'P 1'

loop_
_symmetry_equiv_pos_as_xyz
  x,y,z

loop_
_atom_site_label
_atom_site_type_symbol
_atom_site_fract_x
_atom_site_fract_y
_atom_site_fract_z
_atom_site_charge
Co	Co	0.04300 0.40582 0.81500 1.12100
Co	Co	0.13202 0.67145 0.81249 1.15300
Co	Co	0.95700 0.59418 0.18500 1.16000
Co	Co	0.86798 0.32855 0.18751 1.16700
Co	Co	-0.00000 0.50000 -0.00000 1.12800
H 	H 	0.20750 0.46460 0.85740 0.23800
H 	H 	0.86550 0.71680 0.51530 0.15500
H 	H 	0.94700 0.90020 0.52020 0.01100
H 	H 	0.78960 0.82720 0.35010 0.00900
H 	H 	0.72860 0.96800 0.18060 0.05900
H 	H 	0.76750 0.15300 0.11410 0.00300
H 	H 	0.91530 0.08560 0.37820 0.02700
H 	H 	0.60420 0.42860 0.92260 0.17100
H 	H 	0.73370 0.56020 0.75590 0.00300
H 	H 	0.63130 0.59430 0.58330 0.01900
H 	H 	0.44370 0.64570 0.49980 0.06100
H 	H 	0.24780 0.67730 0.58670 -0.00600
H 	H 	0.42010 0.58000 0.84690 0.01900
H 	H 	0.15150 0.07700 0.19270 0.13700
H 	H 	0.13580 0.00250 0.03310 -0.03000
H 	H 	0.23750 0.85690 0.29950 0.01600
H 	H 	0.21540 0.66960 0.41660 0.05900
H 	H 	0.09990 0.57060 0.37460 -0.00500
H 	H 	0.05320 0.82440 0.09010 -0.01500
H 	H 	0.79250 0.53540 0.14260 0.22600
H 	H 	0.13450 0.28320 0.48470 0.13600
H 	H 	0.05300 0.09980 0.47980 -0.01500
H 	H 	0.21040 0.17280 0.64990 -0.00300
H 	H 	0.27140 0.03200 0.81940 0.07600
H 	H 	0.23250 0.84700 0.88590 0.01700
H 	H 	0.08470 0.91440 0.62180 0.00700
H 	H 	0.39580 0.57140 0.07740 0.11900
H 	H 	0.26630 0.43980 0.24410 0.01700
H 	H 	0.36870 0.40570 0.41670 0.02300
H 	H 	0.55630 0.35430 0.50020 0.05800
H 	H 	0.75220 0.32270 0.41330 0.00700
H 	H 	0.57990 0.42000 0.15310 0.00900
H 	H 	0.84850 0.92300 0.80730 0.15000
H 	H 	0.86420 0.99750 0.96690 0.03300
H 	H 	0.76250 0.14310 0.70050 0.02900
H 	H 	0.78460 0.33040 0.58340 0.06100
H 	H 	0.90010 0.42940 0.62540 0.01300
H 	H 	0.94680 0.17560 0.90990 0.04100
C 	C 	0.97110 0.67240 0.64650 0.53900
C 	C 	0.90890 0.75170 0.54270 -0.33600
C 	C 	0.91050 0.86440 0.48810 0.14200
C 	C 	0.86260 0.94330 0.38240 -0.06500
C 	C 	0.80420 0.90480 0.32330 0.02400
C 	C 	0.76940 0.98910 0.22230 -0.11100
C 	C 	0.79270 0.10050 0.18250 0.06700
C 	C 	0.88000 0.05960 0.33670 0.03700
C 	C 	0.78210 0.43150 0.95560 0.53300
C 	C 	0.67140 0.46210 0.89050 -0.34000
C 	C 	0.66250 0.53410 0.78960 0.12800
C 	C 	0.54770 0.57590 0.72680 -0.07100
C 	C 	0.55270 0.60040 0.62100 0.01600
C 	C 	0.44020 0.63400 0.57110 -0.11500
C 	C 	0.32260 0.65070 0.62390 0.05000
C 	C 	0.42450 0.59400 0.77500 0.03500
C 	C 	0.09760 0.22220 0.04830 0.38000
C 	C 	0.13160 0.09080 0.12470 -0.32000
C 	C 	0.13560 0.99210 0.10380 0.11500
C 	C 	0.13980 0.86850 0.18160 -0.08900
C 	C 	0.19240 0.81600 0.28060 0.01900
C 	C 	0.17850 0.70480 0.35070 -0.11800
C 	C 	0.11110 0.64480 0.32490 0.04800
C 	C 	0.08040 0.79660 0.15880 0.04600
C 	C 	0.02890 0.32760 0.35350 0.41300
C 	C 	0.09110 0.24830 0.45730 -0.31200
C 	C 	0.08950 0.13560 0.51190 0.11700
C 	C 	0.13740 0.05670 0.61760 -0.08900
C 	C 	0.19580 0.09520 0.67670 0.02900
C 	C 	0.23060 0.01090 0.77770 -0.13600
C 	C 	0.20730 0.89950 0.81750 0.07600
C 	C 	0.12000 0.94040 0.66330 0.04300
C 	C 	0.21790 0.56850 0.04440 0.38200
C 	C 	0.32860 0.53790 0.10950 -0.27600
C 	C 	0.33750 0.46590 0.21040 0.07500
C 	C 	0.45230 0.42410 0.27320 -0.05300
C 	C 	0.44730 0.39960 0.37900 -0.00100
C 	C 	0.55980 0.36600 0.42890 -0.10200
C 	C 	0.67740 0.34930 0.37610 0.04000
C 	C 	0.57550 0.40600 0.22500 0.02500
C 	C 	0.90240 0.77780 0.95170 0.50900
C 	C 	0.86840 0.90920 0.87530 -0.30100
C 	C 	0.86440 0.00790 0.89620 0.10300
C 	C 	0.86020 0.13150 0.81840 -0.04500
C 	C 	0.80760 0.18400 0.71940 0.00700
C 	C 	0.82150 0.29520 0.64930 -0.09200
C 	C 	0.88890 0.35520 0.67510 0.05200
C 	C 	0.91960 0.20340 0.84120 0.03900
N 	N 	0.85040 0.14000 0.23660 -0.20600
N 	N 	0.31220 0.62940 0.72900 -0.23400
N 	N 	0.05940 0.69120 0.22760 -0.23900
N 	N 	0.14960 0.86000 0.76340 -0.22000
N 	N 	0.68780 0.37060 0.27100 -0.23000
N 	N 	0.94060 0.30880 0.77240 -0.20900
O 	O 	0.02740 0.72360 0.68280 -0.52300
O 	O 	0.96520 0.56450 0.68910 -0.48700
O 	O 	0.77320 0.36460 0.05160 -0.51400
O 	O 	0.87450 0.47400 0.91240 -0.52200
O 	O 	0.11140 0.23840 0.95080 -0.41700
O 	O 	0.05530 0.30560 0.08850 -0.55400
O 	O 	0.12820 0.48970 0.87550 -0.77600
O 	O 	0.97260 0.27640 0.31720 -0.41600
O 	O 	0.03480 0.43550 0.31090 -0.49700
O 	O 	0.22680 0.63540 0.94840 -0.41600
O 	O 	0.12550 0.52600 0.08760 -0.54800
O 	O 	0.88860 0.76160 0.04920 -0.49400
O 	O 	0.94470 0.69440 0.91150 -0.51000
O 	O 	0.87180 0.51030 0.12450 -0.76900
