data_crystal

_cell_length_a 7.52330
_cell_length_b 9.25370
_cell_length_c 27.45990
_cell_angle_alpha 90.00000
_cell_angle_beta  90.00000
_cell_angle_gamma 108.27000

_symmetry_space_group_name_	'P 1'
_symmetry_space_group_name_H-M	'P 1'

loop_
_symmetry_equiv_pos_as_xyz
  x,y,z

loop_
_atom_site_label
_atom_site_type_symbol
_atom_site_fract_x
_atom_site_fract_y
_atom_site_fract_z
_atom_site_charge
Cu	Cu	0.36871 0.51015 0.45256 0.89900
Cu	Cu	0.81050 0.20209 0.53141 0.88200
Cu	Cu	0.63129 0.98985 0.95256 0.89900
Cu	Cu	0.18950 0.29791 0.03141 0.88200
Cu	Cu	0.63129 0.48985 0.54744 0.89900
Cu	Cu	0.18950 0.79791 0.46859 0.88200
Cu	Cu	0.36871 0.01015 0.04744 0.89900
Cu	Cu	0.81050 0.70209 0.96859 0.88200
Mo	Mo	0.70970 0.80915 0.49294 1.12600
Mo	Mo	0.85176 0.45169 0.44330 1.12000
Mo	Mo	0.29030 0.69085 0.99294 1.12600
Mo	Mo	0.14824 0.04831 0.94330 1.11900
Mo	Mo	0.29030 0.19085 0.50706 1.12600
Mo	Mo	0.14824 0.54831 0.55670 1.12000
Mo	Mo	0.70970 0.30915 0.00706 1.12600
Mo	Mo	0.85176 0.95169 0.05670 1.11900
H 	H 	0.22510 0.32760 0.36390 -0.02500
H 	H 	0.25030 0.34990 0.28110 0.10400
H 	H 	0.62440 0.76340 0.29930 0.09900
H 	H 	0.59970 0.72590 0.38140 -0.05900
H 	H 	0.06300 0.24210 0.13790 -0.06300
H 	H 	0.14960 0.35370 0.21240 0.09700
H 	H 	0.54300 0.66800 0.22370 0.15400
H 	H 	0.59860 0.64770 0.14740 0.07200
H 	H 	0.49920 0.52770 0.07500 -0.02100
H 	H 	0.77490 0.17240 0.86390 -0.02500
H 	H 	0.74970 0.15010 0.78110 0.10500
H 	H 	0.37560 0.73660 0.79930 0.10000
H 	H 	0.40030 0.77410 0.88140 -0.05800
H 	H 	0.93700 0.25790 0.63790 -0.06300
H 	H 	0.85040 0.14630 0.71240 0.09800
H 	H 	0.45700 0.83200 0.72370 0.15500
H 	H 	0.40140 0.85230 0.64740 0.07200
H 	H 	0.50080 0.97230 0.57500 -0.02000
H 	H 	0.77490 0.67240 0.63610 -0.02500
H 	H 	0.74970 0.65010 0.71890 0.10400
H 	H 	0.37560 0.23660 0.70070 0.09900
H 	H 	0.40030 0.27410 0.61860 -0.05900
H 	H 	0.93700 0.75790 0.86210 -0.06300
H 	H 	0.85040 0.64630 0.78760 0.09700
H 	H 	0.45700 0.33200 0.77630 0.15400
H 	H 	0.40140 0.35230 0.85260 0.07200
H 	H 	0.50080 0.47230 0.92500 -0.02100
H 	H 	0.22510 0.82760 0.13610 -0.02500
H 	H 	0.25030 0.84990 0.21890 0.10500
H 	H 	0.62440 0.26340 0.20070 0.10000
H 	H 	0.59970 0.22590 0.11860 -0.05800
H 	H 	0.06300 0.74210 0.36210 -0.06300
H 	H 	0.14960 0.85370 0.28760 0.09800
H 	H 	0.54300 0.16800 0.27630 0.15500
H 	H 	0.59860 0.14770 0.35260 0.07200
H 	H 	0.49920 0.02770 0.42500 -0.02000
C 	C 	0.30610 0.41640 0.35070 0.10300
C 	C 	0.31900 0.42980 0.30080 -0.24100
C 	C 	0.43470 0.56250 0.27990 0.20900
C 	C 	0.54170 0.67380 0.31160 -0.24700
C 	C 	0.52490 0.65120 0.36100 0.11700
C 	C 	0.17120 0.32530 0.13980 0.11700
C 	C 	0.22300 0.39090 0.18510 -0.22800
C 	C 	0.38580 0.51280 0.18910 0.18900
C 	C 	0.48950 0.56520 0.14630 -0.21300
C 	C 	0.42780 0.49330 0.10280 0.09400
C 	C 	0.69390 0.08360 0.85070 0.10400
C 	C 	0.68100 0.07020 0.80080 -0.24300
C 	C 	0.56530 0.93750 0.77990 0.21100
C 	C 	0.45830 0.82620 0.81160 -0.24700
C 	C 	0.47510 0.84880 0.86100 0.11800
C 	C 	0.82880 0.17470 0.63980 0.11700
C 	C 	0.77700 0.10910 0.68510 -0.22800
C 	C 	0.61420 0.98720 0.68910 0.18900
C 	C 	0.51050 0.93480 0.64630 -0.21100
C 	C 	0.57220 0.00670 0.60280 0.09100
C 	C 	0.69390 0.58360 0.64930 0.10300
C 	C 	0.68100 0.57020 0.69920 -0.24100
C 	C 	0.56530 0.43750 0.72010 0.20900
C 	C 	0.45830 0.32620 0.68840 -0.24700
C 	C 	0.47510 0.34880 0.63900 0.11700
C 	C 	0.82880 0.67470 0.86020 0.11700
C 	C 	0.77700 0.60910 0.81490 -0.22800
C 	C 	0.61420 0.48720 0.81090 0.18900
C 	C 	0.51050 0.43480 0.85370 -0.21300
C 	C 	0.57220 0.50670 0.89720 0.09400
C 	C 	0.30610 0.91640 0.14930 0.10400
C 	C 	0.31900 0.92980 0.19920 -0.24300
C 	C 	0.43470 0.06250 0.22010 0.21100
C 	C 	0.54170 0.17380 0.18840 -0.24700
C 	C 	0.52490 0.15120 0.13900 0.11800
C 	C 	0.17120 0.82530 0.36020 0.11700
C 	C 	0.22300 0.89090 0.31490 -0.22800
C 	C 	0.38580 0.01280 0.31090 0.18900
C 	C 	0.48950 0.06520 0.35370 -0.21100
C 	C 	0.42780 0.99330 0.39720 0.09100
N 	N 	0.40520 0.52600 0.38130 -0.25900
N 	N 	0.46060 0.59480 0.23100 -0.29400
N 	N 	0.26700 0.37400 0.09840 -0.25100
N 	N 	0.59480 0.97400 0.88130 -0.25900
N 	N 	0.53940 0.90520 0.73100 -0.29400
N 	N 	0.73300 0.12600 0.59840 -0.25100
N 	N 	0.59480 0.47400 0.61870 -0.25900
N 	N 	0.53940 0.40520 0.76900 -0.29400
N 	N 	0.73300 0.62600 0.90160 -0.25100
N 	N 	0.40520 0.02600 0.11870 -0.25900
N 	N 	0.46060 0.09480 0.26900 -0.29400
N 	N 	0.26700 0.87400 0.40160 -0.25100
O 	O 	0.48810 0.73050 0.46360 -0.56400
O 	O 	0.72030 0.99490 0.50750 -0.55700
O 	O 	0.72650 0.71250 0.54790 -0.54500
O 	O 	0.67830 0.51220 0.47510 -0.64400
O 	O 	0.83840 0.26580 0.46080 -0.54600
O 	O 	0.08570 0.57750 0.45270 -0.62900
O 	O 	0.51190 0.76950 0.96360 -0.56400
O 	O 	0.27970 0.50510 0.00750 -0.55500
O 	O 	0.27350 0.78750 0.04790 -0.54400
O 	O 	0.32170 0.98780 0.97510 -0.64300
O 	O 	0.16160 0.23420 0.96080 -0.54800
O 	O 	0.91430 0.92250 0.95270 -0.62900
O 	O 	0.51190 0.26950 0.53640 -0.56400
O 	O 	0.27970 0.00510 0.49250 -0.55700
O 	O 	0.27350 0.28750 0.45210 -0.54500
O 	O 	0.32170 0.48780 0.52490 -0.64400
O 	O 	0.16160 0.73420 0.53920 -0.54600
O 	O 	0.91430 0.42250 0.54730 -0.62900
O 	O 	0.48810 0.23050 0.03640 -0.56400
O 	O 	0.72030 0.49490 0.99250 -0.55500
O 	O 	0.72650 0.21250 0.95210 -0.54400
O 	O 	0.67830 0.01220 0.02490 -0.64300
O 	O 	0.83840 0.76580 0.03920 -0.54800
O 	O 	0.08570 0.07750 0.04730 -0.62900
