data_crystal

_cell_length_a 14.29700
_cell_length_b 10.47200
_cell_length_c 18.53900
_cell_angle_alpha 90.00000
_cell_angle_beta  114.06800
_cell_angle_gamma 90.00000

_symmetry_space_group_name_	'P 1'
_symmetry_space_group_name_H-M	'P 1'

loop_
_symmetry_equiv_pos_as_xyz
  x,y,z

loop_
_atom_site_label
_atom_site_type_symbol
_atom_site_fract_x
_atom_site_fract_y
_atom_site_fract_z
_atom_site_charge
Cu	Cu	0.42007 0.37395 0.09131 0.94600
O 	O 	0.37330 0.24720 0.00270 -0.28600
O 	O 	0.26930 0.35080 0.07960 -0.28200
O 	O 	0.56040 0.39600 0.07920 -0.26300
O 	O 	0.38370 0.52640 0.00690 -0.26400
O 	O 	0.46290 0.48940 0.18450 -0.28800
O 	O 	0.47320 0.23420 0.18390 -0.25700
C 	C 	0.28000 0.21900 0.97710 0.22500
C 	C 	0.55090 0.46260 0.02020 0.23500
Cu	Cu	0.92007 0.87395 0.09131 0.95200
O 	O 	0.87330 0.74720 0.00270 -0.27800
O 	O 	0.76930 0.85080 0.07960 -0.27300
O 	O 	0.06040 0.89600 0.07920 -0.27400
O 	O 	0.88370 0.02640 0.00690 -0.25900
O 	O 	0.96290 0.98940 0.18450 -0.25300
O 	O 	0.97320 0.73420 0.18390 -0.22200
C 	C 	0.78000 0.71900 0.97710 0.23000
C 	C 	0.05090 0.96260 0.02020 0.20300
Cu	Cu	0.57993 0.37395 0.40869 0.94700
O 	O 	0.62670 0.24720 0.49730 -0.28900
O 	O 	0.73070 0.35080 0.42040 -0.27100
O 	O 	0.43960 0.39600 0.42080 -0.26500
O 	O 	0.61630 0.52640 0.49310 -0.26100
O 	O 	0.53710 0.48940 0.31550 -0.28600
O 	O 	0.52680 0.23420 0.31610 -0.25700
C 	C 	0.72000 0.21900 0.52290 0.23600
C 	C 	0.44910 0.46260 0.47980 0.23100
Cu	Cu	0.07993 0.87395 0.40869 0.94200
O 	O 	0.12670 0.74720 0.49730 -0.29900
O 	O 	0.23070 0.85080 0.42040 -0.27700
O 	O 	0.93960 0.89600 0.42080 -0.25200
O 	O 	0.11630 0.02640 0.49310 -0.26200
O 	O 	0.03710 0.98940 0.31550 -0.28900
O 	O 	0.02680 0.73420 0.31610 -0.26000
C 	C 	0.22000 0.71900 0.52290 0.23600
C 	C 	0.94910 0.96260 0.47980 0.26000
Cu	Cu	0.57993 0.62605 0.90869 0.94700
O 	O 	0.62670 0.75280 0.99730 -0.29000
O 	O 	0.73070 0.64920 0.92040 -0.27000
O 	O 	0.43960 0.60400 0.92080 -0.26400
O 	O 	0.61630 0.47360 0.99310 -0.26500
O 	O 	0.53710 0.51060 0.81550 -0.28600
O 	O 	0.52680 0.76580 0.81610 -0.25800
C 	C 	0.72000 0.78100 0.02290 0.23900
C 	C 	0.44910 0.53740 0.97980 0.22500
Cu	Cu	0.07993 0.12605 0.90869 0.94100
O 	O 	0.12670 0.25280 0.99730 -0.30300
O 	O 	0.23070 0.14920 0.92040 -0.27500
O 	O 	0.93960 0.10400 0.92080 -0.25100
O 	O 	0.11630 0.97360 0.99310 -0.26300
O 	O 	0.03710 0.01060 0.81550 -0.29000
O 	O 	0.02680 0.26580 0.81610 -0.26000
C 	C 	0.22000 0.28100 0.02290 0.24400
C 	C 	0.94910 0.03740 0.97980 0.25200
Cu	Cu	0.42007 0.62605 0.59131 0.94700
O 	O 	0.37330 0.75280 0.50270 -0.28900
O 	O 	0.26930 0.64920 0.57960 -0.27900
O 	O 	0.56040 0.60400 0.57920 -0.26200
O 	O 	0.38370 0.47360 0.50690 -0.26600
O 	O 	0.46290 0.51060 0.68450 -0.28700
O 	O 	0.47320 0.76580 0.68390 -0.25700
C 	C 	0.28000 0.78100 0.47710 0.23300
C 	C 	0.55090 0.53740 0.52020 0.22900
Cu	Cu	0.92007 0.12605 0.59131 0.95300
O 	O 	0.87330 0.25280 0.50270 -0.27900
O 	O 	0.76930 0.14920 0.57960 -0.27200
O 	O 	0.06040 0.10400 0.57920 -0.27400
O 	O 	0.88370 0.97360 0.50690 -0.26500
O 	O 	0.96290 0.01060 0.68450 -0.25300
O 	O 	0.97320 0.26580 0.68390 -0.22200
C 	C 	0.78000 0.28100 0.47710 0.23400
C 	C 	0.05090 0.03740 0.52020 0.20000
C 	C 	0.50000 0.43350 0.25000 0.23600
C 	C 	0.50000 0.28720 0.25000 0.21300
C 	C 	0.00000 0.93350 0.25000 0.20300
C 	C 	0.00000 0.78720 0.25000 0.17900
C 	C 	0.50000 0.56650 0.75000 0.23600
C 	C 	0.50000 0.71280 0.75000 0.21300
C 	C 	0.00000 0.06650 0.75000 0.20200
C 	C 	0.00000 0.21280 0.75000 0.17800
