data_crystal

_cell_length_a 13.43740
_cell_length_b 13.66450
_cell_length_c 16.62770
_cell_angle_alpha 90.00000
_cell_angle_beta  90.00000
_cell_angle_gamma 95.37900

_symmetry_space_group_name_	'P 1'
_symmetry_space_group_name_H-M	'P 1'

loop_
_symmetry_equiv_pos_as_xyz
  x,y,z

loop_
_atom_site_label
_atom_site_type_symbol
_atom_site_fract_x
_atom_site_fract_y
_atom_site_fract_z
_atom_site_charge
Co	Co	0.12712 0.21861 0.23265 1.15300
Co	Co	0.37288 0.28139 0.73265 1.15300
Co	Co	0.87288 0.78139 0.76735 1.15300
Co	Co	0.62712 0.71861 0.26735 1.15300
H 	H 	0.23860 0.06370 0.14710 0.01900
H 	H 	0.31300 0.20760 0.34290 0.01900
H 	H 	0.44940 0.96980 0.28800 0.06400
H 	H 	0.21080 0.91820 0.10650 0.05300
H 	H 	0.48680 0.87860 0.18290 0.04800
H 	H 	0.35250 0.69860 0.01760 0.05100
H 	H 	0.21400 0.78530 0.02300 0.04600
H 	H 	0.36800 0.18770 0.46450 0.06900
H 	H 	0.62070 0.14320 0.58060 0.05800
H 	H 	0.67590 0.06280 0.46940 0.03600
H 	H 	0.57840 0.04630 0.35530 0.06500
H 	H 	0.20920 0.38730 0.35640 0.00700
H 	H 	0.30340 0.56290 0.17800 0.04100
H 	H 	0.24010 0.40400 0.12290 0.03000
H 	H 	0.35080 0.61690 0.33720 0.08000
H 	H 	0.28700 0.55420 0.40120 0.07400
H 	H 	0.09500 0.56140 0.39120 0.05900
H 	H 	0.97180 0.66590 0.37950 0.06500
H 	H 	0.16820 0.86880 0.28290 0.06600
H 	H 	0.29120 0.76330 0.29270 0.06800
H 	H 	0.91300 0.80820 0.30870 0.08000
H 	H 	0.96410 0.87170 0.37840 0.09400
H 	H 	0.04210 0.03950 0.34310 0.01400
H 	H 	0.02810 0.03630 0.10890 0.02300
H 	H 	0.97110 0.87100 0.15540 0.04000
H 	H 	0.26140 0.43630 0.64710 0.01800
H 	H 	0.18700 0.29240 0.84290 0.01800
H 	H 	0.05060 0.53020 0.78800 0.06400
H 	H 	0.28920 0.58180 0.60650 0.05200
H 	H 	0.01320 0.62140 0.68290 0.04700
H 	H 	0.14750 0.80140 0.51760 0.05000
H 	H 	0.28600 0.71470 0.52300 0.04500
H 	H 	0.13200 0.31230 0.96450 0.06900
H 	H 	0.87930 0.35680 0.08060 0.05800
H 	H 	0.82410 0.43720 0.96940 0.03600
H 	H 	0.92160 0.45370 0.85530 0.06500
H 	H 	0.29080 0.11270 0.85640 0.00700
H 	H 	0.19660 0.93710 0.67800 0.04100
H 	H 	0.25990 0.09600 0.62290 0.03000
H 	H 	0.14920 0.88310 0.83720 0.07900
H 	H 	0.21300 0.94580 0.90120 0.07300
H 	H 	0.40500 0.93860 0.89120 0.05900
H 	H 	0.52820 0.83410 0.87950 0.06500
H 	H 	0.33180 0.63120 0.78290 0.06600
H 	H 	0.20880 0.73670 0.79270 0.06800
H 	H 	0.58700 0.69180 0.80870 0.08000
H 	H 	0.53590 0.62830 0.87840 0.09400
H 	H 	0.45790 0.46050 0.84310 0.01400
H 	H 	0.47190 0.46370 0.60890 0.02300
H 	H 	0.52890 0.62900 0.65540 0.04000
H 	H 	0.76140 0.93630 0.85290 0.01800
H 	H 	0.68700 0.79240 0.65710 0.01800
H 	H 	0.55060 0.03020 0.71200 0.06300
H 	H 	0.78920 0.08180 0.89350 0.05200
H 	H 	0.51320 0.12140 0.81710 0.04700
H 	H 	0.64750 0.30140 0.98240 0.05000
H 	H 	0.78600 0.21470 0.97700 0.04500
H 	H 	0.63200 0.81230 0.53550 0.06800
H 	H 	0.37930 0.85680 0.41940 0.05800
H 	H 	0.32410 0.93720 0.53060 0.03600
H 	H 	0.42160 0.95370 0.64470 0.06500
H 	H 	0.79080 0.61270 0.64360 0.00700
H 	H 	0.69660 0.43710 0.82200 0.04100
H 	H 	0.75990 0.59600 0.87710 0.03000
H 	H 	0.64920 0.38310 0.66280 0.08000
H 	H 	0.71300 0.44580 0.59880 0.07400
H 	H 	0.90500 0.43860 0.60880 0.05900
H 	H 	0.02820 0.33410 0.62050 0.06500
H 	H 	0.83180 0.13120 0.71710 0.06600
H 	H 	0.70880 0.23670 0.70730 0.06800
H 	H 	0.08700 0.19180 0.69130 0.08000
H 	H 	0.03590 0.12830 0.62160 0.09400
H 	H 	0.95790 0.96050 0.65690 0.01400
H 	H 	0.97190 0.96370 0.89110 0.02300
H 	H 	0.02890 0.12900 0.84460 0.04000
H 	H 	0.73860 0.56370 0.35290 0.01800
H 	H 	0.81300 0.70760 0.15710 0.01800
H 	H 	0.94940 0.46980 0.21200 0.06400
H 	H 	0.71080 0.41820 0.39350 0.05200
H 	H 	0.98680 0.37860 0.31710 0.04700
H 	H 	0.85250 0.19860 0.48240 0.05000
H 	H 	0.71400 0.28530 0.47700 0.04500
H 	H 	0.86800 0.68770 0.03550 0.06900
H 	H 	0.12070 0.64320 0.91940 0.05800
H 	H 	0.17590 0.56280 0.03060 0.03600
H 	H 	0.07840 0.54630 0.14470 0.06500
H 	H 	0.70920 0.88730 0.14360 0.00700
H 	H 	0.80340 0.06290 0.32200 0.04100
H 	H 	0.74010 0.90400 0.37710 0.03000
H 	H 	0.85080 0.11690 0.16280 0.07900
H 	H 	0.78700 0.05420 0.09880 0.07300
H 	H 	0.59500 0.06140 0.10880 0.05900
H 	H 	0.47180 0.16590 0.12050 0.06500
H 	H 	0.66820 0.36880 0.21710 0.06600
H 	H 	0.79120 0.26330 0.20730 0.06800
H 	H 	0.41300 0.30820 0.19130 0.08000
H 	H 	0.46410 0.37170 0.12160 0.09400
H 	H 	0.54210 0.53950 0.15690 0.01400
H 	H 	0.52810 0.53630 0.39110 0.02300
H 	H 	0.47110 0.37100 0.34460 0.04000
C 	C 	0.27620 0.06923 0.19414 0.00500
C 	C 	0.32164 0.15543 0.30847 0.01000
C 	C 	0.39568 0.09457 0.32668 -0.00600
C 	C 	0.40340 0.01448 0.27607 -0.06800
C 	C 	0.34402 0.99992 0.20830 -0.00200
C 	C 	0.34890 0.91427 0.15368 0.01800
C 	C 	0.26740 0.88390 0.10508 -0.06400
C 	C 	0.43160 0.85999 0.15075 -0.03900
C 	C 	0.43330 0.77836 0.10061 -0.07700
C 	C 	0.35160 0.75190 0.05223 -0.01600
C 	C 	0.26910 0.80420 0.05520 -0.03600
C 	C 	0.52270 0.71980 0.09720 0.33700
C 	C 	0.46096 0.11258 0.39818 0.03700
C 	C 	0.42980 0.16229 0.46527 -0.06700
C 	C 	0.48939 0.17469 0.53337 -0.03800
C 	C 	0.58110 0.13640 0.53475 -0.04600
C 	C 	0.61400 0.08810 0.46837 -0.01000
C 	C 	0.55500 0.07740 0.40036 -0.08100
C 	C 	0.45190 0.22275 0.60663 0.27900
C 	C 	0.22460 0.41070 0.30490 0.08100
C 	C 	0.27720 0.50840 0.20710 -0.00500
C 	C 	0.24160 0.42060 0.17713 0.00700
C 	C 	0.28600 0.58160 0.34750 -0.13300
C 	C 	0.20590 0.65170 0.34230 0.06900
C 	C 	0.10980 0.62340 0.36860 -0.06600
C 	C 	0.03610 0.68590 0.36180 -0.07700
C 	C 	0.05670 0.77820 0.32892 0.07700
C 	C 	0.15290 0.80630 0.30420 -0.07000
C 	C 	0.22680 0.74330 0.31040 -0.07800
C 	C 	0.97460 0.84570 0.32510 -0.14200
C 	C 	0.03140 0.01880 0.29024 0.07900
C 	C 	0.02370 0.01640 0.16234 0.01200
C 	C 	0.99190 0.92490 0.18740 -0.01100
C 	C 	0.22380 0.43077 0.69414 0.00400
C 	C 	0.17836 0.34457 0.80847 0.01000
C 	C 	0.10432 0.40543 0.82668 -0.00500
C 	C 	0.09660 0.48552 0.77607 -0.06900
C 	C 	0.15598 0.50008 0.70830 -0.00100
C 	C 	0.15110 0.58573 0.65368 0.01700
C 	C 	0.23260 0.61610 0.60508 -0.06300
C 	C 	0.06840 0.64001 0.65075 -0.03900
C 	C 	0.06670 0.72164 0.60061 -0.07700
C 	C 	0.14840 0.74810 0.55223 -0.01600
C 	C 	0.23090 0.69580 0.55520 -0.03600
C 	C 	0.97730 0.78020 0.59720 0.33800
C 	C 	0.03904 0.38742 0.89818 0.03800
C 	C 	0.07020 0.33771 0.96527 -0.06800
C 	C 	0.01061 0.32531 0.03337 -0.03700
C 	C 	0.91890 0.36360 0.03475 -0.04800
C 	C 	0.88600 0.41190 0.96837 -0.00900
C 	C 	0.94500 0.42260 0.90036 -0.08100
C 	C 	0.04810 0.27725 0.10663 0.27900
C 	C 	0.27540 0.08930 0.80490 0.08200
C 	C 	0.22280 0.99160 0.70710 -0.00500
C 	C 	0.25840 0.07940 0.67713 0.00700
C 	C 	0.21400 0.91840 0.84750 -0.13300
C 	C 	0.29410 0.84830 0.84230 0.06900
C 	C 	0.39020 0.87660 0.86860 -0.06600
C 	C 	0.46390 0.81410 0.86180 -0.07700
C 	C 	0.44330 0.72180 0.82892 0.07700
C 	C 	0.34710 0.69370 0.80420 -0.07000
C 	C 	0.27320 0.75670 0.81040 -0.07800
C 	C 	0.52540 0.65430 0.82510 -0.14200
C 	C 	0.46860 0.48120 0.79024 0.07800
C 	C 	0.47630 0.48360 0.66234 0.01100
C 	C 	0.50810 0.57510 0.68740 -0.01100
C 	C 	0.72380 0.93077 0.80586 0.00500
C 	C 	0.67836 0.84457 0.69153 0.01000
C 	C 	0.60432 0.90543 0.67332 -0.00600
C 	C 	0.59660 0.98552 0.72393 -0.06800
C 	C 	0.65598 0.00008 0.79170 -0.00200
C 	C 	0.65110 0.08573 0.84632 0.01800
C 	C 	0.73260 0.11610 0.89492 -0.06400
C 	C 	0.56840 0.14001 0.84925 -0.03900
C 	C 	0.56670 0.22164 0.89939 -0.07700
C 	C 	0.64840 0.24810 0.94777 -0.01600
C 	C 	0.73090 0.19580 0.94480 -0.03600
C 	C 	0.47730 0.28020 0.90280 0.33700
C 	C 	0.53904 0.88742 0.60182 0.03700
C 	C 	0.57020 0.83771 0.53473 -0.06700
C 	C 	0.51061 0.82531 0.46663 -0.03800
C 	C 	0.41890 0.86360 0.46525 -0.04600
C 	C 	0.38600 0.91190 0.53163 -0.01000
C 	C 	0.44500 0.92260 0.59964 -0.08100
C 	C 	0.54810 0.77725 0.39337 0.27900
C 	C 	0.77540 0.58930 0.69510 0.08100
C 	C 	0.72280 0.49160 0.79290 -0.00500
C 	C 	0.75840 0.57940 0.82287 0.00700
C 	C 	0.71400 0.41840 0.65250 -0.13300
C 	C 	0.79410 0.34830 0.65770 0.06900
C 	C 	0.89020 0.37660 0.63140 -0.06600
C 	C 	0.96390 0.31410 0.63820 -0.07700
C 	C 	0.94330 0.22180 0.67108 0.07700
C 	C 	0.84710 0.19370 0.69580 -0.07000
C 	C 	0.77320 0.25670 0.68960 -0.07800
C 	C 	0.02540 0.15430 0.67490 -0.14200
C 	C 	0.96860 0.98120 0.70976 0.07900
C 	C 	0.97630 0.98360 0.83766 0.01200
C 	C 	0.00810 0.07510 0.81260 -0.01100
C 	C 	0.77620 0.56923 0.30586 0.00400
C 	C 	0.82164 0.65543 0.19153 0.01000
C 	C 	0.89568 0.59457 0.17332 -0.00500
C 	C 	0.90340 0.51448 0.22393 -0.06900
C 	C 	0.84402 0.49992 0.29170 -0.00100
C 	C 	0.84890 0.41427 0.34632 0.01700
C 	C 	0.76740 0.38390 0.39492 -0.06300
C 	C 	0.93160 0.35999 0.34925 -0.03900
C 	C 	0.93330 0.27836 0.39939 -0.07700
C 	C 	0.85160 0.25190 0.44777 -0.01600
C 	C 	0.76910 0.30420 0.44480 -0.03600
C 	C 	0.02270 0.21980 0.40280 0.33800
C 	C 	0.96096 0.61258 0.10182 0.03800
C 	C 	0.92980 0.66229 0.03473 -0.06800
C 	C 	0.98939 0.67469 0.96663 -0.03700
C 	C 	0.08110 0.63640 0.96525 -0.04800
C 	C 	0.11400 0.58810 0.03163 -0.00900
C 	C 	0.05500 0.57740 0.09964 -0.08100
C 	C 	0.95190 0.72275 0.89337 0.27900
C 	C 	0.72460 0.91070 0.19510 0.08200
C 	C 	0.77720 0.00840 0.29290 -0.00500
C 	C 	0.74160 0.92060 0.32287 0.00700
C 	C 	0.78600 0.08160 0.15250 -0.13300
C 	C 	0.70590 0.15170 0.15770 0.06900
C 	C 	0.60980 0.12340 0.13140 -0.06600
C 	C 	0.53610 0.18590 0.13820 -0.07700
C 	C 	0.55670 0.27820 0.17108 0.07700
C 	C 	0.65290 0.30630 0.19580 -0.07000
C 	C 	0.72680 0.24330 0.18960 -0.07800
C 	C 	0.47460 0.34570 0.17490 -0.14200
C 	C 	0.53140 0.51880 0.20976 0.07800
C 	C 	0.52370 0.51640 0.33766 0.01100
C 	C 	0.49190 0.42490 0.31260 -0.01100
N 	N 	0.26222 0.14312 0.24420 -0.21000
N 	N 	0.20780 0.35920 0.23866 -0.22400
N 	N 	0.26714 0.50183 0.28853 -0.10100
N 	N 	0.99653 0.92752 0.26916 -0.09900
N 	N 	0.04873 0.07582 0.22702 -0.22400
N 	N 	0.23778 0.35688 0.74420 -0.21000
N 	N 	0.29220 0.14080 0.73866 -0.22400
N 	N 	0.23286 0.99817 0.78853 -0.10100
N 	N 	0.50347 0.57248 0.76916 -0.09900
N 	N 	0.45127 0.42418 0.72702 -0.22400
N 	N 	0.73778 0.85688 0.75580 -0.21000
N 	N 	0.79220 0.64080 0.76134 -0.22400
N 	N 	0.73286 0.49817 0.71147 -0.10100
N 	N 	0.00347 0.07248 0.73084 -0.09900
N 	N 	0.95127 0.92418 0.77298 -0.22400
N 	N 	0.76222 0.64312 0.25580 -0.21000
N 	N 	0.70780 0.85920 0.26134 -0.22400
N 	N 	0.76714 0.00183 0.21147 -0.10100
N 	N 	0.49653 0.42752 0.23084 -0.09900
N 	N 	0.54873 0.57582 0.27298 -0.22400
O 	O 	0.37388 0.26838 0.60250 -0.37600
O 	O 	0.49564 0.21522 0.67254 -0.37600
O 	O 	0.52610 0.65915 0.04157 -0.26100
O 	O 	0.59030 0.73485 0.14985 -0.42400
O 	O 	0.12612 0.23162 0.10250 -0.37600
O 	O 	0.00436 0.28478 0.17254 -0.37600
O 	O 	0.97390 0.84085 0.54157 -0.26100
O 	O 	0.90970 0.76515 0.64985 -0.42400
O 	O 	0.62612 0.73162 0.39750 -0.37600
O 	O 	0.50436 0.78478 0.32746 -0.37600
O 	O 	0.47390 0.34085 0.95843 -0.26100
O 	O 	0.40970 0.26515 0.85015 -0.42400
O 	O 	0.87388 0.76838 0.89750 -0.37600
O 	O 	0.99564 0.71522 0.82746 -0.37600
O 	O 	0.02610 0.15915 0.45843 -0.26100
O 	O 	0.09030 0.23485 0.35015 -0.42400
