data_crystal

_cell_length_a 8.47870
_cell_length_b 15.24560
_cell_length_c 13.38060
_cell_angle_alpha 90.00000
_cell_angle_beta  90.00000
_cell_angle_gamma 90.00000

_symmetry_space_group_name_	'P 1'
_symmetry_space_group_name_H-M	'P 1'

loop_
_symmetry_equiv_pos_as_xyz
  x,y,z

loop_
_atom_site_label
_atom_site_type_symbol
_atom_site_fract_x
_atom_site_fract_y
_atom_site_fract_z
_atom_site_charge
P 	P 	0.02482 0.09831 0.88852 0.41800
H 	H 	0.15600 0.08760 0.83970 -0.04400
P 	P 	0.25259 0.36997 0.77111 0.57800
H 	H 	0.16300 0.44240 0.75660 -0.06200
Be	Be	0.46540 0.41170 0.60950 1.48000
O 	O 	0.93700 0.17426 0.84023 -0.41200
O 	O 	0.06690 0.12166 0.99505 -0.53500
O 	O 	0.93190 0.01468 0.87943 -0.49700
O 	O 	0.14170 0.29540 0.79400 -0.57800
O 	O 	0.34390 0.35508 0.67627 -0.57000
O 	O 	0.35280 0.38701 0.86288 -0.55100
P 	P 	0.47518 0.40169 0.38852 0.57000
H 	H 	0.34400 0.41240 0.33970 -0.06600
P 	P 	0.24741 0.13003 0.27111 0.57900
H 	H 	0.33700 0.05760 0.25660 -0.04000
Be	Be	0.03460 0.08830 0.10950 1.47700
O 	O 	0.56300 0.32574 0.34023 -0.50700
O 	O 	0.43310 0.37834 0.49505 -0.53100
O 	O 	0.56810 0.48532 0.37943 -0.58300
O 	O 	0.35830 0.20460 0.29400 -0.55000
O 	O 	0.15610 0.14492 0.17627 -0.59700
O 	O 	0.14720 0.11299 0.36288 -0.59200
P 	P 	0.97518 0.09831 0.61148 0.72700
H 	H 	0.84400 0.08760 0.66030 -0.06400
P 	P 	0.74741 0.36997 0.72889 0.57900
H 	H 	0.83700 0.44240 0.74340 -0.01100
Be	Be	0.53460 0.41170 0.89050 1.48000
O 	O 	0.06300 0.17426 0.65977 -0.61200
O 	O 	0.93310 0.12166 0.50495 -0.50700
O 	O 	0.06810 0.01468 0.62057 -0.68200
O 	O 	0.85830 0.29540 0.70600 -0.50200
O 	O 	0.65610 0.35508 0.82373 -0.55300
O 	O 	0.64720 0.38701 0.63712 -0.53700
P 	P 	0.52482 0.40169 0.11148 0.57000
H 	H 	0.65600 0.41240 0.16030 -0.04400
P 	P 	0.75259 0.13003 0.22889 0.57800
H 	H 	0.66300 0.05760 0.24340 -0.03700
Be	Be	0.96540 0.08830 0.39050 1.48300
O 	O 	0.43700 0.32574 0.15977 -0.52100
O 	O 	0.56690 0.37834 0.00495 -0.52400
O 	O 	0.43190 0.48532 0.12057 -0.59900
O 	O 	0.64170 0.20460 0.20600 -0.53500
O 	O 	0.84390 0.14492 0.32373 -0.53200
O 	O 	0.85280 0.11299 0.13712 -0.50300
P 	P 	0.97518 0.90169 0.11148 0.73100
H 	H 	0.84400 0.91240 0.16030 -0.06400
P 	P 	0.74741 0.63003 0.22889 0.57900
H 	H 	0.83700 0.55760 0.24340 -0.01000
Be	Be	0.53460 0.58830 0.39050 1.48000
O 	O 	0.06300 0.82574 0.15977 -0.61500
O 	O 	0.93310 0.87834 0.00495 -0.50800
O 	O 	0.06810 0.98532 0.12057 -0.68400
O 	O 	0.85830 0.70460 0.20600 -0.50100
O 	O 	0.65610 0.64492 0.32373 -0.55400
O 	O 	0.64720 0.61299 0.13712 -0.53800
P 	P 	0.52482 0.59831 0.61148 0.57000
H 	H 	0.65600 0.58760 0.66030 -0.04400
P 	P 	0.75259 0.86997 0.72889 0.57800
H 	H 	0.66300 0.94240 0.74340 -0.03600
Be	Be	0.96540 0.91170 0.89050 1.48300
O 	O 	0.43700 0.67426 0.65977 -0.51900
O 	O 	0.56690 0.62166 0.50495 -0.51800
O 	O 	0.43190 0.51468 0.62057 -0.59700
O 	O 	0.64170 0.79540 0.70600 -0.53400
O 	O 	0.84390 0.85508 0.82373 -0.53400
O 	O 	0.85280 0.88701 0.63712 -0.49900
P 	P 	0.02482 0.90169 0.38852 0.41100
H 	H 	0.15600 0.91240 0.33970 -0.04400
P 	P 	0.25259 0.63003 0.27111 0.57800
H 	H 	0.16300 0.55760 0.25660 -0.06300
Be	Be	0.46540 0.58830 0.10950 1.48000
O 	O 	0.93700 0.82574 0.34023 -0.40900
O 	O 	0.06690 0.87834 0.49505 -0.54200
O 	O 	0.93190 0.98532 0.37943 -0.49500
O 	O 	0.14170 0.70460 0.29400 -0.58000
O 	O 	0.34390 0.64492 0.17627 -0.57100
O 	O 	0.35280 0.61299 0.36288 -0.55300
P 	P 	0.47518 0.59831 0.88852 0.57000
H 	H 	0.34400 0.58760 0.83970 -0.06500
P 	P 	0.24741 0.86997 0.77111 0.57900
H 	H 	0.33700 0.94240 0.75660 -0.04000
Be	Be	0.03460 0.91170 0.60950 1.47800
O 	O 	0.56300 0.67426 0.84023 -0.50700
O 	O 	0.43310 0.62166 0.99505 -0.53000
O 	O 	0.56810 0.51468 0.87943 -0.58200
O 	O 	0.35830 0.79540 0.79400 -0.55000
O 	O 	0.15610 0.85508 0.67627 -0.59200
O 	O 	0.14720 0.88701 0.86288 -0.59200
Be	Be	0.00000 0.23770 0.75000 1.47600
Be	Be	0.50000 0.26230 0.25000 1.48000
Be	Be	-0.00000 0.76230 0.25000 1.47600
Be	Be	0.50000 0.73770 0.75000 1.48000
