data_crystal

_cell_length_a 13.13020
_cell_length_b 13.13020
_cell_length_c 17.45590
_cell_angle_alpha 90.00000
_cell_angle_beta  90.00000
_cell_angle_gamma 120.00000

_symmetry_space_group_name_	'P 1'
_symmetry_space_group_name_H-M	'P 1'

loop_
_symmetry_equiv_pos_as_xyz
  x,y,z

loop_
_atom_site_label
_atom_site_type_symbol
_atom_site_fract_x
_atom_site_fract_y
_atom_site_fract_z
_atom_site_charge
Al	Al	0.29204 0.85678 0.45859 2.39300
P 	P 	0.16009 0.97326 0.37118 0.97100
H 	H 	0.25000 0.05500 0.34130 -0.25900
P 	P 	0.12623 0.63092 0.55515 0.42000
H 	H 	0.19100 0.69200 0.62400 -0.01300
O 	O 	0.19040 0.87950 0.39237 -0.65100
O 	O 	0.13120 0.02490 0.44015 -0.93100
O 	O 	0.06530 0.92630 0.30983 -0.66300
O 	O 	0.15660 0.72480 0.49440 -0.69100
O 	O 	0.99670 0.57470 0.57520 -0.45300
O 	O 	0.16470 0.54450 0.53450 -0.68000
O 	O 	0.32010 0.77150 0.38440 -0.61700
Al	Al	0.14322 0.43526 0.45859 2.38800
P 	P 	0.02674 0.18683 0.37118 0.20300
H 	H 	0.94500 0.19500 0.34130 0.10000
P 	P 	0.36908 0.49531 0.55515 0.58600
H 	H 	0.30800 0.49900 0.62400 -0.02900
O 	O 	0.12050 0.31090 0.39237 -0.60300
O 	O 	0.97510 0.10630 0.44015 -0.48700
O 	O 	0.07370 0.13900 0.30983 -0.68300
O 	O 	0.27520 0.43180 0.49440 -0.70100
O 	O 	0.42530 0.42200 0.57520 -0.64800
O 	O 	0.45550 0.62020 0.53450 -0.66500
O 	O 	0.22850 0.54860 0.38440 -0.64600
Al	Al	0.56474 0.70796 0.45859 2.39000
P 	P 	0.81317 0.83991 0.37118 0.57800
H 	H 	0.80500 0.75000 0.34130 -0.03900
P 	P 	0.50469 0.87377 0.55515 0.75000
H 	H 	0.50100 0.80900 0.62400 -0.00800
O 	O 	0.68910 0.80960 0.39237 -0.58100
O 	O 	0.89370 0.86880 0.44015 -0.50700
O 	O 	0.86100 0.93470 0.30983 -0.42900
O 	O 	0.56820 0.84340 0.49440 -0.66500
O 	O 	0.57800 0.00330 0.57520 -0.83900
O 	O 	0.37980 0.83530 0.53450 -0.64800
O 	O 	0.45140 0.67990 0.38440 -0.61800
Al	Al	0.85678 0.29204 0.04141 2.39000
P 	P 	0.97326 0.16009 0.12882 0.96000
H 	H 	0.05500 0.25000 0.15870 -0.25700
P 	P 	0.63092 0.12623 0.94485 0.48600
H 	H 	0.69200 0.19100 0.87600 -0.01400
O 	O 	0.87950 0.19040 0.10763 -0.66300
O 	O 	0.02490 0.13120 0.05985 -0.95800
O 	O 	0.92630 0.06530 0.19017 -0.66900
O 	O 	0.72480 0.15660 0.00560 -0.76300
O 	O 	0.57470 0.99670 0.92480 -0.44800
O 	O 	0.54450 0.16470 0.96550 -0.64700
O 	O 	0.77150 0.32010 0.11560 -0.62900
Al	Al	0.43526 0.14322 0.04141 2.38500
P 	P 	0.18683 0.02674 0.12882 0.19100
H 	H 	0.19500 0.94500 0.15870 0.10400
P 	P 	0.49531 0.36908 0.94485 0.64300
H 	H 	0.49900 0.30800 0.87600 -0.03000
O 	O 	0.31090 0.12050 0.10763 -0.61400
O 	O 	0.10630 0.97510 0.05985 -0.50600
O 	O 	0.13900 0.07370 0.19017 -0.68300
O 	O 	0.43180 0.27520 0.00560 -0.76900
O 	O 	0.42200 0.42530 0.92480 -0.63400
O 	O 	0.62020 0.45550 0.96550 -0.63500
O 	O 	0.54860 0.22850 0.11560 -0.65800
Al	Al	0.70796 0.56474 0.04141 2.38800
P 	P 	0.83991 0.81317 0.12882 0.57800
H 	H 	0.75000 0.80500 0.15870 -0.04100
P 	P 	0.87377 0.50469 0.94485 0.80500
H 	H 	0.80900 0.50100 0.87600 -0.00800
O 	O 	0.80960 0.68910 0.10763 -0.59200
O 	O 	0.86880 0.89370 0.05985 -0.53600
O 	O 	0.93470 0.86100 0.19017 -0.43200
O 	O 	0.84340 0.56820 0.00560 -0.73200
O 	O 	0.00330 0.57800 0.92480 -0.82600
O 	O 	0.83530 0.37980 0.96550 -0.61500
O 	O 	0.67990 0.45140 0.11560 -0.63000
Al	Al	0.70796 0.14322 0.54141 2.38800
P 	P 	0.83991 0.02674 0.62882 0.24100
H 	H 	0.75000 0.94500 0.65870 0.10600
P 	P 	0.87377 0.36908 0.44485 0.75500
H 	H 	0.80900 0.30800 0.37600 -0.02000
O 	O 	0.80960 0.12050 0.60763 -0.57200
O 	O 	0.86880 0.97510 0.55985 -0.38100
O 	O 	0.93470 0.07370 0.69017 -0.50000
O 	O 	0.84340 0.27520 0.50560 -0.67700
O 	O 	0.00330 0.42530 0.42480 -0.84500
O 	O 	0.83530 0.45550 0.46550 -0.65000
O 	O 	0.67990 0.22850 0.61560 -0.63600
Al	Al	0.85678 0.56474 0.54141 2.39200
P 	P 	0.97326 0.81317 0.62882 0.91800
H 	H 	0.05500 0.80500 0.65870 -0.20900
P 	P 	0.63092 0.50469 0.44485 0.58500
H 	H 	0.69200 0.50100 0.37600 -0.00500
O 	O 	0.87950 0.68910 0.60763 -0.61800
O 	O 	0.02490 0.89370 0.55985 -0.75700
O 	O 	0.92630 0.86100 0.69017 -0.50800
O 	O 	0.72480 0.56820 0.50560 -0.67100
O 	O 	0.57470 0.57800 0.42480 -0.64500
O 	O 	0.54450 0.37980 0.46550 -0.66300
O 	O 	0.77150 0.45140 0.61560 -0.60800
Al	Al	0.43526 0.29204 0.54141 2.39000
P 	P 	0.18683 0.16009 0.62882 0.58400
H 	H 	0.19500 0.25000 0.65870 -0.09300
P 	P 	0.49531 0.12623 0.44485 0.41400
H 	H 	0.49900 0.19100 0.37600 -0.02700
O 	O 	0.31090 0.19040 0.60763 -0.64400
O 	O 	0.10630 0.13120 0.55985 -0.78600
O 	O 	0.13900 0.06530 0.69017 -0.76500
O 	O 	0.43180 0.15660 0.50560 -0.70800
O 	O 	0.42200 0.99670 0.42480 -0.44700
O 	O 	0.62020 0.16470 0.46550 -0.68000
O 	O 	0.54860 0.32010 0.61560 -0.63600
Al	Al	0.14322 0.70796 0.95859 2.39100
P 	P 	0.02674 0.83991 0.87118 0.23900
H 	H 	0.94500 0.75000 0.84130 0.11100
P 	P 	0.36908 0.87377 0.05515 0.71300
H 	H 	0.30800 0.80900 0.12400 -0.01800
O 	O 	0.12050 0.80960 0.89237 -0.56300
O 	O 	0.97510 0.86880 0.94015 -0.35300
O 	O 	0.07370 0.93470 0.80983 -0.50300
O 	O 	0.27520 0.84340 0.99440 -0.61800
O 	O 	0.42530 0.00330 0.07520 -0.86600
O 	O 	0.45550 0.83530 0.03450 -0.67800
O 	O 	0.22850 0.67990 0.88440 -0.62500
Al	Al	0.56474 0.85678 0.95859 2.39500
P 	P 	0.81317 0.97326 0.87118 0.90500
H 	H 	0.80500 0.05500 0.84130 -0.19900
P 	P 	0.50469 0.63092 0.05515 0.53400
H 	H 	0.50100 0.69200 0.12400 -0.00400
O 	O 	0.68910 0.87950 0.89237 -0.60700
O 	O 	0.89370 0.02490 0.94015 -0.71500
O 	O 	0.86100 0.92630 0.80983 -0.50700
O 	O 	0.56820 0.72480 0.99440 -0.60800
O 	O 	0.57800 0.57470 0.07520 -0.66000
O 	O 	0.37980 0.54450 0.03450 -0.69300
O 	O 	0.45140 0.77150 0.88440 -0.59800
Al	Al	0.29204 0.43526 0.95859 2.39300
P 	P 	0.16009 0.18683 0.87118 0.58400
H 	H 	0.25000 0.19500 0.84130 -0.08800
P 	P 	0.12623 0.49531 0.05515 0.36500
H 	H 	0.19100 0.49900 0.12400 -0.02500
O 	O 	0.19040 0.31090 0.89237 -0.63300
O 	O 	0.13120 0.10630 0.94015 -0.74900
O 	O 	0.06530 0.13900 0.80983 -0.76400
O 	O 	0.15660 0.43180 0.99440 -0.64100
O 	O 	0.99670 0.42200 0.07520 -0.46700
O 	O 	0.16470 0.62020 0.03450 -0.70700
O 	O 	0.32010 0.54860 0.88440 -0.62500
Al	Al	-0.00000 -0.00000 0.25000 2.36300
Al	Al	-0.00000 0.00000 0.75000 2.36400
Al	Al	-0.00000 -0.00000 0.50000 2.36500
Al	Al	-0.00000 0.00000 -0.00000 2.35900
P 	P 	0.33333 0.66667 0.36305 0.61000
H 	H 	0.33333 0.66667 0.28100 0.00100
P 	P 	0.66667 0.33333 0.13695 0.60600
H 	H 	0.66667 0.33333 0.21900 0.00200
P 	P 	0.66667 0.33333 0.63695 0.61000
H 	H 	0.66667 0.33333 0.71900 0.00200
P 	P 	0.33333 0.66667 0.86305 0.61400
H 	H 	0.33333 0.66667 0.78100 0.00000
