data_crystal

_cell_length_a 9.28990
_cell_length_b 9.28990
_cell_length_c 49.24800
_cell_angle_alpha 90.00000
_cell_angle_beta  90.00000
_cell_angle_gamma 120.00000

_symmetry_space_group_name_	'P 1'
_symmetry_space_group_name_H-M	'P 1'

loop_
_symmetry_equiv_pos_as_xyz
  x,y,z

loop_
_atom_site_label
_atom_site_type_symbol
_atom_site_fract_x
_atom_site_fract_y
_atom_site_fract_z
_atom_site_charge
N 	N 	0.79290 0.71020 0.03477 -0.13800
C 	C 	0.80840 0.64070 0.05131 -0.15800
N 	N 	0.45957 0.04353 0.36810 -0.19200
C 	C 	0.47507 0.97403 0.38464 -0.11900
N 	N 	0.12623 0.37687 0.70144 -0.15600
C 	C 	0.14173 0.30737 0.71798 -0.19600
N 	N 	0.28980 0.08270 0.03477 -0.16300
C 	C 	0.35930 0.16770 0.05131 -0.18700
N 	N 	0.95647 0.41603 0.36810 -0.10900
C 	C 	0.02597 0.50103 0.38464 -0.22900
N 	N 	0.62313 0.74937 0.70144 -0.15000
C 	C 	0.69263 0.83437 0.71798 -0.13800
N 	N 	0.91730 0.20710 0.03477 -0.14100
C 	C 	0.83230 0.19160 0.05131 -0.17600
N 	N 	0.58397 0.54043 0.36810 -0.14400
C 	C 	0.49897 0.52493 0.38464 -0.17500
N 	N 	0.25063 0.87377 0.70144 -0.14300
C 	C 	0.16563 0.85827 0.71798 -0.16900
N 	N 	0.71020 0.79290 0.46523 -0.13700
C 	C 	0.64070 0.80840 0.44869 -0.15700
N 	N 	0.37687 0.12623 0.79856 -0.15500
C 	C 	0.30737 0.14173 0.78202 -0.19500
N 	N 	0.04353 0.45957 0.13190 -0.19100
C 	C 	0.97403 0.47507 0.11536 -0.11800
N 	N 	0.08270 0.28980 0.46523 -0.16300
C 	C 	0.16770 0.35930 0.44869 -0.18700
N 	N 	0.74937 0.62313 0.79856 -0.15000
C 	C 	0.83437 0.69263 0.78202 -0.13800
N 	N 	0.41603 0.95647 0.13190 -0.10900
C 	C 	0.50103 0.02597 0.11536 -0.22900
N 	N 	0.20710 0.91730 0.46523 -0.14100
C 	C 	0.19160 0.83230 0.44869 -0.17600
N 	N 	0.87377 0.25063 0.79856 -0.14300
C 	C 	0.85827 0.16563 0.78202 -0.16900
N 	N 	0.54043 0.58397 0.13190 -0.14400
C 	C 	0.52493 0.49897 0.11536 -0.17500
N 	N 	0.20710 0.28980 0.96523 -0.15700
C 	C 	0.19160 0.35930 0.94869 -0.18900
N 	N 	0.87377 0.62313 0.29856 -0.14200
C 	C 	0.85827 0.69263 0.28202 -0.14800
N 	N 	0.54043 0.95647 0.63190 -0.10400
C 	C 	0.52493 0.02597 0.61536 -0.23100
N 	N 	0.71020 0.91730 0.96523 -0.13100
C 	C 	0.64070 0.83230 0.94869 -0.15900
N 	N 	0.37687 0.25063 0.29856 -0.15000
C 	C 	0.30737 0.16563 0.28202 -0.19300
N 	N 	0.04353 0.58397 0.63190 -0.18600
C 	C 	0.97403 0.49897 0.61536 -0.11900
N 	N 	0.08270 0.79290 0.96523 -0.15300
C 	C 	0.16770 0.80840 0.94869 -0.17000
N 	N 	0.74937 0.12623 0.29856 -0.15600
C 	C 	0.83437 0.14173 0.28202 -0.16200
N 	N 	0.41603 0.45957 0.63190 -0.15400
C 	C 	0.50103 0.47507 0.61536 -0.17100
N 	N 	0.28980 0.20710 0.53477 -0.15700
C 	C 	0.35930 0.19160 0.55131 -0.18900
N 	N 	0.95647 0.54043 0.86810 -0.10400
C 	C 	0.02597 0.52493 0.88464 -0.23100
N 	N 	0.62313 0.87377 0.20144 -0.14200
C 	C 	0.69263 0.85827 0.21798 -0.14800
N 	N 	0.91730 0.71020 0.53477 -0.13100
C 	C 	0.83230 0.64070 0.55131 -0.15900
N 	N 	0.58397 0.04353 0.86810 -0.18600
C 	C 	0.49897 0.97403 0.88464 -0.11900
N 	N 	0.25063 0.37687 0.20144 -0.15000
C 	C 	0.16563 0.30737 0.21798 -0.19300
N 	N 	0.79290 0.08270 0.53477 -0.15300
C 	C 	0.80840 0.16770 0.55131 -0.17000
N 	N 	0.45957 0.41603 0.86810 -0.15400
C 	C 	0.47507 0.50103 0.88464 -0.17100
N 	N 	0.12623 0.74937 0.20144 -0.15600
C 	C 	0.14173 0.83437 0.21798 -0.16200
Ag	Ag	0.86559 0.53226 0.08333 0.44500
Ag	Ag	0.19893 0.19893 0.75000 0.42400
Ag	Ag	0.46774 0.33333 0.08333 0.43400
Ag	Ag	0.66667 0.13441 0.08333 0.43600
Ag	Ag	0.33333 0.46774 0.41667 0.43400
Ag	Ag	0.53226 0.86559 0.41667 0.44500
Ag	Ag	-0.00000 0.80107 0.75000 0.42700
Ag	Ag	0.13441 0.66667 0.41667 0.43600
Ag	Ag	0.80107 -0.00000 0.75000 0.42700
Ag	Ag	0.13441 0.46774 0.91667 0.43100
Ag	Ag	0.80107 0.80107 0.25000 0.45600
Ag	Ag	0.53226 0.66667 0.91667 0.44300
Ag	Ag	0.19893 0.00000 0.25000 0.41100
Ag	Ag	0.86559 0.33333 0.58333 0.44100
Ag	Ag	0.33333 0.86559 0.91667 0.44100
Ag	Ag	0.00000 0.19893 0.25000 0.41100
Ag	Ag	0.46774 0.13441 0.58333 0.43100
Ag	Ag	0.66667 0.53226 0.58333 0.44300
K 	K 	-0.00000 0.00000 -0.00000 0.60400
K 	K 	0.66667 0.33333 0.33333 0.62100
K 	K 	0.33333 0.66667 0.66667 0.62200
K 	K 	0.00000 0.00000 0.50000 0.60400
K 	K 	0.66667 0.33333 0.83333 0.62200
K 	K 	0.33333 0.66667 0.16667 0.62100
