data_crystal

_cell_length_a 12.05200
_cell_length_b 17.85090
_cell_length_c 18.62000
_cell_angle_alpha 90.00000
_cell_angle_beta  90.00000
_cell_angle_gamma 100.68600

_symmetry_space_group_name_	'P 1'
_symmetry_space_group_name_H-M	'P 1'

loop_
_symmetry_equiv_pos_as_xyz
  x,y,z

loop_
_atom_site_label
_atom_site_type_symbol
_atom_site_fract_x
_atom_site_fract_y
_atom_site_fract_z
_atom_site_charge
Tb	Tb	0.45626 0.27362 0.78969 1.48900
Tb	Tb	0.04030 0.21408 0.72485 1.47900
Tb	Tb	0.04374 0.22638 0.28969 1.48000
Tb	Tb	0.45970 0.28592 0.22485 1.48600
K 	K 	0.46288 0.28001 0.00734 0.65900
K 	K 	0.03712 0.21999 0.50734 0.65800
H 	H 	0.51420 0.27700 0.43970 0.01300
H 	H 	0.69730 0.39730 0.58010 0.03200
H 	H 	0.77790 0.92230 0.43220 0.05200
H 	H 	0.51420 0.27370 0.57650 0.01900
H 	H 	0.72210 0.57770 0.93220 0.05000
H 	H 	0.80270 0.09960 0.94320 0.03300
H 	H 	0.98580 0.22300 0.93970 0.01900
H 	H 	0.69730 0.40040 0.44320 0.03300
H 	H 	0.98580 0.22630 0.07650 0.02400
H 	H 	0.80270 0.10270 0.08010 0.03300
H 	H 	0.77290 0.91770 0.56630 0.05000
H 	H 	0.72710 0.58230 0.06630 0.04900
C 	C 	0.34360 0.25090 0.44850 -0.05900
C 	C 	0.80990 0.95750 0.53800 -0.04900
C 	C 	0.69010 0.54250 0.03800 -0.04200
C 	C 	0.73860 0.37180 0.54940 -0.04800
C 	C 	0.90710 0.06370 0.37310 0.33200
C 	C 	0.21690 0.26520 0.13610 0.42600
C 	C 	0.45130 0.26660 0.46940 -0.01800
C 	C 	0.85170 0.31050 0.37890 0.33000
C 	C 	0.62640 0.47240 0.94270 0.01900
C 	C 	0.81040 0.32550 0.56840 0.00600
C 	C 	0.28690 0.24690 0.37910 0.44600
C 	C 	0.04870 0.23340 0.96940 -0.02600
C 	C 	0.45150 0.26420 0.54640 -0.03500
C 	C 	0.62770 0.47530 0.06120 0.02000
C 	C 	0.21310 0.25310 0.87910 0.44400
C 	C 	0.65040 0.19690 0.13890 0.33200
C 	C 	0.84960 0.30310 0.63890 0.33200
C 	C 	0.76140 0.12820 0.04940 -0.04900
C 	C 	0.73870 0.37350 0.47250 -0.04900
C 	C 	0.81180 0.32780 0.45060 0.00800
C 	C 	0.68820 0.17220 0.95060 0.00700
C 	C 	0.68730 0.53940 0.96300 -0.04000
C 	C 	0.64830 0.18950 0.87890 0.33000
C 	C 	0.90210 0.05760 0.63280 0.33200
C 	C 	0.68960 0.17450 0.06840 0.00500
C 	C 	0.59790 0.44240 0.13280 0.33500
C 	C 	0.87360 0.02760 0.44270 0.02600
C 	C 	0.28310 0.23480 0.63610 0.42700
C 	C 	0.04850 0.23580 0.04640 -0.04100
C 	C 	0.15680 0.25460 0.06620 -0.03900
C 	C 	0.15640 0.24910 0.94850 -0.05600
C 	C 	0.34320 0.24540 0.56620 -0.04200
C 	C 	0.59290 0.43630 0.87310 0.33500
C 	C 	0.87230 0.02470 0.56120 0.02700
C 	C 	0.76130 0.12650 0.97250 -0.04900
C 	C 	0.81270 0.96060 0.46300 -0.04900
O 	O 	0.31740 0.26820 0.87980 -0.50600
O 	O 	0.92810 0.27120 0.37670 -0.45600
O 	O 	0.34480 0.24140 0.69110 -0.54600
O 	O 	0.18260 0.23180 0.37980 -0.50700
O 	O 	0.86270 0.02800 0.31840 -0.30100
O 	O 	0.15320 0.24200 0.82400 -0.55200
O 	O 	0.85940 0.01920 0.68560 -0.30700
O 	O 	0.69520 0.17450 0.19340 -0.31800
O 	O 	0.34680 0.25800 0.32400 -0.55300
O 	O 	0.92600 0.26440 0.64050 -0.45700
O 	O 	0.52780 0.37410 0.87340 -0.43300
O 	O 	0.15520 0.25860 0.19110 -0.54600
O 	O 	0.69110 0.16340 0.82600 -0.32100
O 	O 	0.53180 0.38010 0.13530 -0.43000
O 	O 	0.32160 0.27930 0.13500 -0.50300
O 	O 	0.22490 0.26210 0.00730 -0.19400
O 	O 	0.58800 0.43160 0.00310 -0.20200
O 	O 	0.17840 0.22070 0.63500 -0.50300
O 	O 	0.64270 0.20070 0.00890 -0.21500
O 	O 	0.80480 0.32550 0.69340 -0.31800
O 	O 	0.64060 0.48080 0.18560 -0.30900
O 	O 	0.27510 0.23790 0.50730 -0.19300
O 	O 	0.91200 0.06840 0.50310 -0.20300
O 	O 	0.80890 0.33660 0.32600 -0.32000
O 	O 	0.85730 0.29930 0.50890 -0.21400
O 	O 	0.63730 0.47200 0.81840 -0.30400
O 	O 	0.96820 0.11990 0.63530 -0.42600
O 	O 	0.57400 0.23560 0.14050 -0.46000
O 	O 	0.57190 0.22880 0.87670 -0.45900
O 	O 	0.97220 0.12590 0.37340 -0.42900
Tb	Tb	0.95626 0.77362 0.71031 1.48000
Tb	Tb	0.54374 0.72638 0.21031 1.48800
Tb	Tb	0.95970 0.78592 0.27515 1.47800
Tb	Tb	0.54030 0.71408 0.77515 1.48600
K 	K 	0.96288 0.78001 0.49266 0.65800
K 	K 	0.53712 0.71999 0.99266 0.65900
H 	H 	0.22210 0.07770 0.56780 0.05200
H 	H 	0.01420 0.77700 0.06030 0.01900
H 	H 	0.48580 0.72630 0.42350 0.01900
H 	H 	0.01420 0.77370 0.92350 0.02400
H 	H 	0.27790 0.42230 0.06780 0.05000
H 	H 	0.27290 0.41770 0.93370 0.04900
H 	H 	0.30270 0.60270 0.41990 0.03200
H 	H 	0.19730 0.89730 0.91990 0.03300
H 	H 	0.22710 0.08230 0.43370 0.05000
H 	H 	0.30270 0.59960 0.55680 0.03300
H 	H 	0.48580 0.72300 0.56030 0.01300
H 	H 	0.19730 0.90040 0.05680 0.03300
C 	C 	0.23870 0.87350 0.02750 -0.04900
C 	C 	0.14830 0.68950 0.62110 0.33000
C 	C 	0.78310 0.73480 0.86390 0.42600
C 	C 	0.18960 0.67450 0.43160 0.00600
C 	C 	0.34960 0.80310 0.86110 0.33200
C 	C 	0.26130 0.62650 0.52750 -0.04900
C 	C 	0.35170 0.81050 0.12110 0.33000
C 	C 	0.40710 0.56370 0.12690 0.33500
C 	C 	0.18820 0.67220 0.54940 0.00800
C 	C 	0.31040 0.82550 0.93160 0.00500
C 	C 	0.12640 0.97240 0.55730 0.02600
C 	C 	0.31270 0.46060 0.03700 -0.04000
C 	C 	0.09290 0.93630 0.62690 0.33200
C 	C 	0.31180 0.82780 0.04940 0.00700
C 	C 	0.18730 0.03940 0.53700 -0.04900
C 	C 	0.37230 0.52470 0.93880 0.02000
C 	C 	0.40210 0.55760 0.86720 0.33500
C 	C 	0.65680 0.75460 0.43380 -0.04200
C 	C 	0.65640 0.74910 0.55150 -0.05900
C 	C 	0.26140 0.62820 0.45060 -0.04800
C 	C 	0.95130 0.76660 0.03060 -0.02600
C 	C 	0.84320 0.74540 0.93380 -0.03900
C 	C 	0.19010 0.04250 0.46200 -0.04900
C 	C 	0.12770 0.97530 0.43880 0.02700
C 	C 	0.71310 0.75310 0.62090 0.44600
C 	C 	0.71690 0.76520 0.36390 0.42700
C 	C 	0.54870 0.73340 0.53060 -0.01800
C 	C 	0.15040 0.69690 0.36110 0.33200
C 	C 	0.95150 0.76420 0.95360 -0.04100
C 	C 	0.23860 0.87180 0.95060 -0.04900
C 	C 	0.54850 0.73580 0.45360 -0.03500
C 	C 	0.84360 0.75090 0.05150 -0.05600
C 	C 	0.09790 0.94240 0.36720 0.33200
C 	C 	0.37360 0.52760 0.05730 0.01900
C 	C 	0.30990 0.45750 0.96200 -0.04200
C 	C 	0.78690 0.74690 0.12090 0.44400
O 	O 	0.30890 0.83660 0.17400 -0.32100
O 	O 	0.35940 0.51920 0.81440 -0.30900
O 	O 	0.36270 0.52800 0.18160 -0.30400
O 	O 	0.65520 0.75860 0.30890 -0.54600
O 	O 	0.41200 0.56840 0.99690 -0.20200
O 	O 	0.81740 0.76820 0.62020 -0.50700
O 	O 	0.68260 0.73180 0.12020 -0.50600
O 	O 	0.08800 0.93160 0.49690 -0.20300
O 	O 	0.07190 0.72880 0.62330 -0.45600
O 	O 	0.35730 0.79930 0.99110 -0.21500
O 	O 	0.14060 0.98080 0.31440 -0.30700
O 	O 	0.07400 0.73560 0.35950 -0.45700
O 	O 	0.82160 0.77930 0.36500 -0.50300
O 	O 	0.67840 0.72070 0.86500 -0.50300
O 	O 	0.42810 0.77120 0.12330 -0.45900
O 	O 	0.02780 0.87410 0.62660 -0.42900
O 	O 	0.19520 0.67450 0.30660 -0.31800
O 	O 	0.13730 0.97200 0.68160 -0.30100
O 	O 	0.72490 0.76210 0.49270 -0.19300
O 	O 	0.19110 0.66340 0.67400 -0.32000
O 	O 	0.65320 0.74200 0.67600 -0.55300
O 	O 	0.03180 0.88010 0.36470 -0.42600
O 	O 	0.77510 0.73790 0.99270 -0.19400
O 	O 	0.84480 0.74140 0.80890 -0.54600
O 	O 	0.46820 0.61990 0.86470 -0.43000
O 	O 	0.47220 0.62590 0.12660 -0.43300
O 	O 	0.30480 0.82550 0.80660 -0.31800
O 	O 	0.42600 0.76440 0.85950 -0.46000
O 	O 	0.84680 0.75800 0.17600 -0.55200
O 	O 	0.14270 0.70070 0.49110 -0.21400
