data_crystal

_cell_length_a 12.64800
_cell_length_b 13.22500
_cell_length_c 14.47500
_cell_angle_alpha 87.80400
_cell_angle_beta  67.29800
_cell_angle_gamma 66.92600

_symmetry_space_group_name_	'P 1'
_symmetry_space_group_name_H-M	'P 1'

loop_
_symmetry_equiv_pos_as_xyz
  x,y,z

loop_
_atom_site_label
_atom_site_type_symbol
_atom_site_fract_x
_atom_site_fract_y
_atom_site_fract_z
_atom_site_charge
Gd	Gd	0.68714 0.37559 0.56717 1.58400
Gd	Gd	0.18282 0.37938 0.57408 1.58000
Gd	Gd	0.31286 0.62441 0.43283 1.58400
Gd	Gd	0.81718 0.62062 0.42592 1.58000
H 	H 	0.80870 0.95300 0.64640 0.08200
H 	H 	0.93650 0.86440 0.48030 0.05900
H 	H 	0.97620 0.97040 0.34960 0.07900
H 	H 	0.31620 0.95270 0.64040 0.08200
H 	H 	0.43820 0.86900 0.47300 0.05700
H 	H 	0.47400 0.98000 0.34420 0.08300
H 	H 	0.19130 0.04700 0.35360 0.08200
H 	H 	0.06350 0.13560 0.51970 0.05900
H 	H 	0.02380 0.02960 0.65040 0.07900
H 	H 	0.68380 0.04730 0.35960 0.08200
H 	H 	0.56180 0.13100 0.52700 0.05700
H 	H 	0.52600 0.02000 0.65580 0.08300
C 	C 	0.67710 0.17910 0.70830 0.31000
C 	C 	0.76780 0.10850 0.60790 0.00200
C 	C 	0.82290 0.99380 0.59270 -0.05300
C 	C 	0.90050 0.94140 0.49370 -0.00700
C 	C 	0.92370 0.00470 0.41550 -0.05200
C 	C 	0.86780 0.11950 0.43670 0.00300
C 	C 	0.89290 0.19730 0.36300 0.30400
C 	C 	0.19200 0.17720 0.71170 0.31000
C 	C 	0.27250 0.11150 0.60890 0.00300
C 	C 	0.32840 0.99590 0.58820 -0.05300
C 	C 	0.40280 0.94580 0.48820 -0.00400
C 	C 	0.42390 0.01150 0.41120 -0.05500
C 	C 	0.36670 0.12680 0.43870 0.00200
C 	C 	0.39060 0.20720 0.36600 0.31600
C 	C 	0.32290 0.82090 0.29170 0.31000
C 	C 	0.23220 0.89150 0.39210 0.00200
C 	C 	0.17710 0.00620 0.40730 -0.05300
C 	C 	0.09950 0.05860 0.50630 -0.00700
C 	C 	0.07630 0.99530 0.58450 -0.05200
C 	C 	0.13220 0.88050 0.56330 0.00300
C 	C 	0.10710 0.80270 0.63700 0.30400
C 	C 	0.80800 0.82280 0.28830 0.31000
C 	C 	0.72750 0.88850 0.39110 0.00300
C 	C 	0.67160 0.00410 0.41180 -0.05300
C 	C 	0.59720 0.05420 0.51180 -0.00400
C 	C 	0.57610 0.98850 0.58880 -0.05500
C 	C 	0.63330 0.87320 0.56130 0.00200
C 	C 	0.60940 0.79280 0.63400 0.31600
S 	S 	0.93130 0.39135 0.57401 0.73000
S 	S 	0.43030 0.39435 0.57499 0.74900
S 	S 	0.06870 0.60865 0.42599 0.73000
S 	S 	0.56970 0.60565 0.42501 0.74900
N 	N 	0.79080 0.16930 0.53060 -0.17500
N 	N 	0.29160 0.17450 0.53460 -0.17600
N 	N 	0.20920 0.83070 0.46940 -0.17500
N 	N 	0.70840 0.82550 0.46540 -0.17600
O 	O 	0.86220 0.32220 0.62110 -0.41800
O 	O 	0.85810 0.46550 0.51950 -0.50300
O 	O 	0.06130 0.32350 0.50230 -0.41400
O 	O 	0.94280 0.45580 0.64710 -0.39500
O 	O 	0.35220 0.46820 0.52410 -0.51500
O 	O 	0.36190 0.32610 0.62530 -0.41500
O 	O 	0.44620 0.45870 0.64470 -0.39700
O 	O 	0.55720 0.32600 0.50100 -0.42100
O 	O 	0.62400 0.28220 0.70650 -0.36500
O 	O 	0.65980 0.13200 0.78570 -0.20000
O 	O 	0.82980 0.30100 0.39740 -0.36600
O 	O 	0.96850 0.16040 0.27430 -0.20600
O 	O 	0.13240 0.28090 0.71280 -0.36200
O 	O 	0.18820 0.12980 0.78750 -0.20100
O 	O 	0.32330 0.30960 0.40310 -0.36700
O 	O 	0.47130 0.17340 0.28050 -0.21500
O 	O 	0.13780 0.67780 0.37890 -0.41800
O 	O 	0.14190 0.53450 0.48050 -0.50300
O 	O 	0.93870 0.67650 0.49770 -0.41400
O 	O 	0.05720 0.54420 0.35290 -0.39500
O 	O 	0.64780 0.53180 0.47590 -0.51500
O 	O 	0.63810 0.67390 0.37470 -0.41500
O 	O 	0.55380 0.54130 0.35530 -0.39700
O 	O 	0.44280 0.67400 0.49900 -0.42100
O 	O 	0.37600 0.71780 0.29350 -0.36500
O 	O 	0.34020 0.86800 0.21430 -0.20000
O 	O 	0.17020 0.69900 0.60260 -0.36600
O 	O 	0.03150 0.83960 0.72570 -0.20600
O 	O 	0.86760 0.71910 0.28720 -0.36200
O 	O 	0.81180 0.87020 0.21250 -0.20100
O 	O 	0.67670 0.69040 0.59690 -0.36700
O 	O 	0.52870 0.82660 0.71950 -0.21500
