data_crystal

_cell_length_a 10.87200
_cell_length_b 16.73700
_cell_length_c 17.38000
_cell_angle_alpha 114.48000
_cell_angle_beta  92.95000
_cell_angle_gamma 99.63000

_symmetry_space_group_name_	'P 1'
_symmetry_space_group_name_H-M	'P 1'

loop_
_symmetry_equiv_pos_as_xyz
  x,y,z

loop_
_atom_site_label
_atom_site_type_symbol
_atom_site_fract_x
_atom_site_fract_y
_atom_site_fract_z
_atom_site_charge
O 	O 	0.81880 0.99130 0.05150 -0.39700
O 	O 	0.46350 0.23820 0.03830 -0.44400
O 	O 	0.30430 0.17730 0.08800 -0.39300
C 	C 	0.41480 0.18740 0.07080 0.33900
C 	C 	0.49280 0.13210 0.08950 0.01300
O 	O 	0.92880 0.92690 0.88800 -0.43200
La	La	0.08260 0.14079 0.01261 1.71200
La	La	0.37069 0.34364 0.99611 1.63400
La	La	0.43860 0.86483 0.40578 1.58300
C 	C 	0.26160 0.97360 0.64400 0.00900
O 	O 	0.99260 0.25270 0.96810 -0.39800
O 	O 	0.61180 0.13650 0.06630 -0.22900
O 	O 	0.84100 0.35920 0.94700 -0.22800
O 	O 	0.85230 0.12260 0.04030 -0.40800
O 	O 	0.22600 0.16570 0.91270 -0.44900
O 	O 	0.60000 0.37240 0.97030 -0.45100
O 	O 	0.15370 0.32760 0.93180 -0.41600
O 	O 	0.93500 0.05200 0.87260 -0.36600
O 	O 	0.75910 0.96450 0.73260 -0.16500
O 	O 	0.37520 0.21180 0.85110 -0.39200
O 	O 	0.21990 0.32800 0.09360 -0.45900
O 	O 	0.38240 0.00200 0.54540 -0.47100
O 	O 	0.29610 0.48080 0.23700 -0.18900
O 	O 	0.62510 0.49490 0.94620 -0.45100
O 	O 	0.07860 0.27380 0.15580 -0.38000
C 	C 	0.19410 0.42010 0.23360 0.00200
C 	C 	0.66200 0.42910 0.95060 0.35100
O 	O 	0.30830 0.05890 0.70400 -0.20000
C 	C 	0.24920 0.06710 0.77430 0.01300
C 	C 	0.78780 0.06140 0.05500 0.33300
C 	C 	0.96070 0.36490 0.92480 0.01100
C 	C 	0.66170 0.07350 0.08040 0.02600
C 	C 	0.04130 0.31010 0.94380 0.34000
O 	O 	0.62580 0.02210 0.63960 -0.41100
O 	O 	0.27410 0.86520 0.50870 -0.37200
C 	C 	0.16320 0.33500 0.15600 0.33900
C 	C 	0.79040 0.41940 0.92820 -0.00100
O 	O 	0.55460 0.88020 0.53960 -0.40900
C 	C 	0.16940 0.98940 0.75870 -0.04600
H 	H 	0.11950 0.97780 0.79630 0.05800
C 	C 	0.28600 0.15300 0.85020 0.33400
O 	O 	0.39360 0.70700 0.38290 -0.40900
C 	C 	0.98190 0.42560 0.89260 -0.03400
H 	H 	0.05520 0.44150 0.87240 0.03900
C 	C 	0.89790 0.96930 0.84800 0.34300
C 	C 	0.87240 0.46060 0.89500 -0.04700
H 	H 	0.85970 0.50400 0.87690 0.05100
C 	C 	0.61770 0.93790 0.60810 0.35300
C 	C 	0.46730 0.06950 0.11900 -0.03200
H 	H 	0.39380 0.05430 0.13940 0.05500
C 	C 	0.68910 0.90360 0.65810 0.01100
C 	C 	0.81530 0.91800 0.76750 0.00800
C 	C 	0.17700 0.92950 0.67440 -0.03200
H 	H 	0.13200 0.87070 0.64510 0.05500
C 	C 	0.30890 0.94600 0.56110 0.32600
C 	C 	0.78260 0.82960 0.71830 -0.04100
H 	H 	0.80730 0.78410 0.72880 0.05900
C 	C 	0.57750 0.03040 0.11280 -0.05400
H 	H 	0.58860 0.98470 0.12810 0.06400
C 	C 	0.20560 0.54510 0.34890 -0.06600
H 	H 	0.18760 0.58730 0.39980 0.06200
O 	O 	0.49590 0.61830 0.28460 -0.28100
C 	C 	0.29940 0.55660 0.30810 0.04200
C 	C 	0.70060 0.81980 0.64510 -0.03700
H 	H 	0.66320 0.76640 0.59840 0.05400
C 	C 	0.13630 0.45620 0.30130 -0.02700
H 	H 	0.06460 0.42860 0.31480 0.04500
C 	C 	0.40670 0.63300 0.32610 0.30200
K 	K 	0.73014 0.25633 0.01824 0.65000
O 	O 	0.18120 0.00870 0.94850 -0.39600
O 	O 	0.53650 0.76180 0.96170 -0.44300
O 	O 	0.69570 0.82270 0.91200 -0.39300
C 	C 	0.58520 0.81260 0.92920 0.33900
C 	C 	0.50720 0.86790 0.91050 0.01300
O 	O 	0.07120 0.07310 0.11200 -0.43200
La	La	0.91740 0.85921 0.98739 1.71200
La	La	0.62931 0.65636 0.00389 1.63400
La	La	0.56140 0.13517 0.59422 1.58300
C 	C 	0.73840 0.02640 0.35600 0.00900
O 	O 	0.00740 0.74730 0.03190 -0.39800
O 	O 	0.38820 0.86350 0.93370 -0.22900
O 	O 	0.15900 0.64080 0.05300 -0.22800
O 	O 	0.14770 0.87740 0.95970 -0.40800
O 	O 	0.77400 0.83430 0.08730 -0.44900
O 	O 	0.40000 0.62760 0.02970 -0.45100
O 	O 	0.84630 0.67240 0.06820 -0.41600
O 	O 	0.06500 0.94800 0.12740 -0.36600
O 	O 	0.24090 0.03550 0.26740 -0.16500
O 	O 	0.62480 0.78820 0.14890 -0.39200
O 	O 	0.78010 0.67200 0.90640 -0.45900
O 	O 	0.61760 0.99800 0.45460 -0.47100
O 	O 	0.70390 0.51920 0.76300 -0.18900
O 	O 	0.37490 0.50510 0.05380 -0.45100
O 	O 	0.92140 0.72620 0.84420 -0.38000
C 	C 	0.80590 0.57990 0.76640 0.00200
C 	C 	0.33800 0.57090 0.04940 0.35100
O 	O 	0.69170 0.94110 0.29600 -0.20000
C 	C 	0.75080 0.93290 0.22570 0.01300
C 	C 	0.21220 0.93860 0.94500 0.33300
C 	C 	0.03930 0.63510 0.07520 0.01100
C 	C 	0.33830 0.92650 0.91960 0.02600
C 	C 	0.95870 0.68990 0.05620 0.34000
O 	O 	0.37420 0.97790 0.36040 -0.41100
O 	O 	0.72590 0.13480 0.49130 -0.37200
C 	C 	0.83680 0.66500 0.84400 0.33900
C 	C 	0.20960 0.58060 0.07180 -0.00100
O 	O 	0.44540 0.11980 0.46040 -0.40900
C 	C 	0.83060 0.01060 0.24130 -0.04600
H 	H 	0.88050 0.02220 0.20370 0.05800
C 	C 	0.71400 0.84700 0.14980 0.33400
O 	O 	0.60640 0.29300 0.61710 -0.40900
C 	C 	0.01810 0.57440 0.10740 -0.03400
H 	H 	0.94480 0.55850 0.12760 0.03900
C 	C 	0.10210 0.03070 0.15200 0.34300
C 	C 	0.12760 0.53940 0.10500 -0.04700
H 	H 	0.14030 0.49600 0.12310 0.05100
C 	C 	0.38230 0.06210 0.39190 0.35300
C 	C 	0.53270 0.93050 0.88100 -0.03200
H 	H 	0.60620 0.94570 0.86060 0.05500
C 	C 	0.31090 0.09640 0.34190 0.01100
C 	C 	0.18470 0.08200 0.23250 0.00800
C 	C 	0.82300 0.07050 0.32560 -0.03200
H 	H 	0.86800 0.12930 0.35490 0.05500
C 	C 	0.69110 0.05400 0.43890 0.32600
C 	C 	0.21740 0.17040 0.28170 -0.04100
H 	H 	0.19270 0.21590 0.27120 0.05900
C 	C 	0.42250 0.96960 0.88720 -0.05400
H 	H 	0.41140 0.01530 0.87190 0.06400
C 	C 	0.79440 0.45490 0.65110 -0.06600
H 	H 	0.81240 0.41270 0.60020 0.06200
O 	O 	0.50410 0.38170 0.71540 -0.28100
C 	C 	0.70060 0.44340 0.69190 0.04200
C 	C 	0.29940 0.18020 0.35490 -0.03700
H 	H 	0.33680 0.23360 0.40160 0.05400
C 	C 	0.86370 0.54380 0.69870 -0.02700
H 	H 	0.93540 0.57140 0.68520 0.04500
C 	C 	0.59330 0.36700 0.67390 0.30200
K 	K 	0.26986 0.74367 0.98176 0.65000
