data_crystal

_cell_length_a 12.62400
_cell_length_b 13.20800
_cell_length_c 14.45700
_cell_angle_alpha 87.74400
_cell_angle_beta  67.32400
_cell_angle_gamma 66.78500

_symmetry_space_group_name_	'P 1'
_symmetry_space_group_name_H-M	'P 1'

loop_
_symmetry_equiv_pos_as_xyz
  x,y,z

loop_
_atom_site_label
_atom_site_type_symbol
_atom_site_fract_x
_atom_site_fract_y
_atom_site_fract_z
_atom_site_charge
Tb	Tb	0.31693 0.12109 0.92653 1.99200
Tb	Tb	0.81290 0.12473 0.93339 1.98900
Tb	Tb	0.68307 0.87891 0.07347 1.99200
Tb	Tb	0.18710 0.87527 0.06661 1.98900
H 	H 	0.44140 0.92660 0.83280 0.30300
H 	H 	0.35580 0.93200 0.80250 0.35600
H 	H 	0.93250 0.93030 0.83860 0.30100
H 	H 	0.84280 0.94050 0.81250 0.35000
H 	H 	0.18480 0.54770 0.85990 0.08100
H 	H 	0.06150 0.63080 0.02780 0.05000
H 	H 	0.02520 0.52090 0.15460 0.08400
H 	H 	0.68990 0.54690 0.85520 0.07900
H 	H 	0.56220 0.63450 0.02200 0.05400
H 	H 	0.52440 0.52920 0.15130 0.07900
H 	H 	0.55860 0.07340 0.16720 0.30300
H 	H 	0.64420 0.06800 0.19750 0.35600
H 	H 	0.06750 0.06970 0.16140 0.30100
H 	H 	0.15720 0.05950 0.18750 0.35000
H 	H 	0.81520 0.45230 0.14010 0.08100
H 	H 	0.93850 0.36920 0.97220 0.05000
H 	H 	0.97480 0.47910 0.84540 0.08400
H 	H 	0.31010 0.45310 0.14480 0.07900
H 	H 	0.43780 0.36550 0.97800 0.05400
H 	H 	0.47560 0.47080 0.84870 0.07900
C 	C 	0.30840 0.32160 0.78900 0.31500
C 	C 	0.22700 0.38790 0.89190 0.00000
C 	C 	0.17190 0.50450 0.91200 -0.05700
C 	C 	0.09710 0.55390 0.01230 0.00300
C 	C 	0.07620 0.48900 0.08770 -0.06100
C 	C 	0.13370 0.37360 0.06160 0.00700
C 	C 	0.11040 0.29120 0.13500 0.33500
C 	C 	0.82180 0.32130 0.79240 0.31600
C 	C 	0.73180 0.38980 0.89230 -0.00400
C 	C 	0.67620 0.50550 0.90860 -0.05000
C 	C 	0.59870 0.55740 0.00820 -0.00600
C 	C 	0.57650 0.49500 0.08520 -0.05100
C 	C 	0.63310 0.37900 0.06350 -0.00400
C 	C 	0.60870 0.30050 0.13860 0.33200
C 	C 	0.69160 0.67840 0.21100 0.31500
C 	C 	0.77300 0.61210 0.10810 0.00000
C 	C 	0.82810 0.49550 0.08800 -0.05700
C 	C 	0.90290 0.44610 0.98770 0.00300
C 	C 	0.92380 0.51100 0.91230 -0.06100
C 	C 	0.86630 0.62640 0.93840 0.00700
C 	C 	0.88960 0.70880 0.86500 0.33500
C 	C 	0.17820 0.67870 0.20760 0.31600
C 	C 	0.26820 0.61020 0.10770 -0.00400
C 	C 	0.32380 0.49450 0.09140 -0.05000
C 	C 	0.40130 0.44260 0.99180 -0.00600
C 	C 	0.42350 0.50500 0.91480 -0.05100
C 	C 	0.36690 0.62100 0.93650 -0.00400
C 	C 	0.39130 0.69950 0.86140 0.33200
S 	S 	0.06973 0.10537 0.92561 0.77300
S 	S 	0.56859 0.10816 0.92681 0.77700
S 	S 	0.93027 0.89463 0.07439 0.77300
S 	S 	0.43141 0.89184 0.07319 0.77700
N 	N 	0.20790 0.32590 0.96730 -0.20500
N 	N 	0.70940 0.32960 0.96960 -0.20200
N 	N 	0.79210 0.67410 0.03270 -0.20500
N 	N 	0.29060 0.67040 0.03040 -0.20200
O 	O 	0.36800 0.21770 0.78790 -0.38900
O 	O 	0.31200 0.37010 0.71340 -0.19500
O 	O 	0.17680 0.18960 0.09700 -0.44900
O 	O 	0.02880 0.32550 0.22030 -0.22300
O 	O 	0.87460 0.21710 0.79520 -0.39300
O 	O 	0.84000 0.36810 0.71460 -0.19500
O 	O 	0.67130 0.19730 0.10240 -0.45000
O 	O 	0.53260 0.33660 0.22550 -0.22300
O 	O 	0.13750 0.17480 0.87640 -0.44800
O 	O 	0.14710 0.03080 0.97700 -0.60400
O 	O 	0.05370 0.04170 0.85500 -0.42300
O 	O 	0.94140 0.17440 0.99930 -0.47700
O 	O 	0.55750 0.04510 0.85220 -0.42800
O 	O 	0.43810 0.17590 0.99810 -0.47400
O 	O 	0.63600 0.17830 0.88150 -0.45800
O 	O 	0.64070 0.03410 0.98150 -0.59900
O 	O 	0.40100 0.96660 0.79980 -0.76300
O 	O 	0.89300 0.97090 0.80530 -0.74500
O 	O 	0.63200 0.78230 0.21210 -0.38900
O 	O 	0.68800 0.62990 0.28660 -0.19500
O 	O 	0.82320 0.81040 0.90300 -0.44900
O 	O 	0.97120 0.67450 0.77970 -0.22300
O 	O 	0.12540 0.78290 0.20480 -0.39300
O 	O 	0.16000 0.63190 0.28540 -0.19500
O 	O 	0.32870 0.80270 0.89760 -0.45000
O 	O 	0.46740 0.66340 0.77450 -0.22300
O 	O 	0.86250 0.82520 0.12360 -0.44800
O 	O 	0.85290 0.96920 0.02300 -0.60400
O 	O 	0.94630 0.95830 0.14500 -0.42300
O 	O 	0.05860 0.82560 0.00070 -0.47700
O 	O 	0.44250 0.95490 0.14780 -0.42800
O 	O 	0.56190 0.82410 0.00190 -0.47400
O 	O 	0.36400 0.82170 0.11850 -0.45800
O 	O 	0.35930 0.96590 0.01850 -0.59900
O 	O 	0.59900 0.03340 0.20020 -0.76300
O 	O 	0.10700 0.02910 0.19470 -0.74500
