data_crystal

_cell_length_a 10.78600
_cell_length_b 16.72600
_cell_length_c 17.38500
_cell_angle_alpha 114.67000
_cell_angle_beta  93.29000
_cell_angle_gamma 99.58000

_symmetry_space_group_name_	'P 1'
_symmetry_space_group_name_H-M	'P 1'

loop_
_symmetry_equiv_pos_as_xyz
  x,y,z

loop_
_atom_site_label
_atom_site_type_symbol
_atom_site_fract_x
_atom_site_fract_y
_atom_site_fract_z
_atom_site_charge
O 	O 	0.81960 0.99120 0.04940 -0.46800
O 	O 	0.46290 0.23990 0.03790 -0.52000
O 	O 	0.30410 0.17990 0.08820 -0.45700
C 	C 	0.41530 0.19030 0.07100 0.37800
C 	C 	0.49250 0.13480 0.09020 -0.00400
O 	O 	0.92630 0.92050 0.88620 -0.50100
Pr	Pr	0.08363 0.14059 0.01175 2.08700
Pr	Pr	0.37249 0.34309 0.99430 2.05200
Pr	Pr	0.43730 0.86677 0.40593 2.02500
C 	C 	0.26060 0.97160 0.64280 -0.00200
O 	O 	0.99550 0.25050 0.96520 -0.45700
O 	O 	0.61370 0.13850 0.06630 -0.21900
O 	O 	0.84280 0.35850 0.94640 -0.22200
O 	O 	0.85530 0.12250 0.03950 -0.47200
O 	O 	0.22630 0.16460 0.91370 -0.54300
O 	O 	0.60030 0.37430 0.97260 -0.52800
O 	O 	0.15700 0.32520 0.92850 -0.49200
O 	O 	0.93790 0.04840 0.87340 -0.42700
O 	O 	0.76250 0.96290 0.73060 -0.16000
O 	O 	0.37570 0.21070 0.85190 -0.46400
O 	O 	0.22580 0.33140 0.09120 -0.54300
O 	O 	0.38530 0.00160 0.54590 -0.58700
O 	O 	0.29870 0.48320 0.23780 -0.18600
O 	O 	0.62780 0.49770 0.94940 -0.53800
O 	O 	0.08000 0.27470 0.15000 -0.43300
C 	C 	0.19440 0.42190 0.23210 -0.00200
C 	C 	0.66370 0.43050 0.95190 0.38400
O 	O 	0.30730 0.05740 0.70420 -0.21100
C 	C 	0.24770 0.06450 0.77350 0.01800
C 	C 	0.79040 0.06150 0.05390 0.37800
C 	C 	0.96240 0.36330 0.92260 0.00300
C 	C 	0.66410 0.07400 0.08060 0.01200
C 	C 	0.04430 0.30760 0.94110 0.37400
O 	O 	0.63050 0.02140 0.63680 -0.50300
O 	O 	0.27260 0.86480 0.50590 -0.43400
C 	C 	0.16600 0.33740 0.15360 0.35400
C 	C 	0.79170 0.42110 0.92950 -0.02600
O 	O 	0.55520 0.88010 0.53610 -0.49500
C 	C 	0.16770 0.98650 0.75680 -0.05500
H 	H 	0.11740 0.97470 0.79410 0.06200
C 	C 	0.28570 0.15260 0.85160 0.36100
O 	O 	0.39140 0.71150 0.38400 -0.48600
C 	C 	0.98470 0.42450 0.89090 -0.03600
H 	H 	0.05830 0.43980 0.87030 0.03700
C 	C 	0.89700 0.96600 0.84880 0.36900
C 	C 	0.87490 0.46090 0.89500 -0.03600
H 	H 	0.86230 0.50450 0.87700 0.04600
C 	C 	0.61990 0.93780 0.60490 0.40100
C 	C 	0.46840 0.07120 0.11890 -0.02100
H 	H 	0.39460 0.05570 0.13910 0.05100
C 	C 	0.69110 0.90160 0.65520 -0.00100
C 	C 	0.81440 0.91390 0.76630 0.00200
C 	C 	0.17450 0.92640 0.67270 -0.02100
H 	H 	0.12920 0.86740 0.64320 0.05100
C 	C 	0.30910 0.94460 0.56030 0.34500
C 	C 	0.77810 0.82580 0.71380 -0.03600
H 	H 	0.80120 0.77900 0.72290 0.05800
C 	C 	0.57950 0.03150 0.11230 -0.05000
H 	H 	0.59020 0.98540 0.12710 0.06300
C 	C 	0.20160 0.54740 0.34780 -0.05600
H 	H 	0.18030 0.58880 0.39790 0.05800
O 	O 	0.49910 0.62200 0.28920 -0.30400
C 	C 	0.30150 0.56060 0.31030 0.02500
C 	C 	0.69850 0.81710 0.64220 -0.03100
H 	H 	0.65900 0.76380 0.59540 0.05100
C 	C 	0.13330 0.45780 0.29690 -0.02800
H 	H 	0.05880 0.42990 0.30760 0.04400
C 	C 	0.40790 0.63630 0.32810 0.31700
K 	K 	0.73380 0.25844 0.02004 0.64900
O 	O 	0.18040 0.00880 0.95060 -0.46800
O 	O 	0.53710 0.76010 0.96210 -0.52000
O 	O 	0.69590 0.82010 0.91180 -0.45700
C 	C 	0.58470 0.80970 0.92900 0.37800
C 	C 	0.50750 0.86520 0.90980 -0.00400
O 	O 	0.07370 0.07950 0.11380 -0.50100
Pr	Pr	0.91637 0.85941 0.98825 2.08700
Pr	Pr	0.62751 0.65691 0.00570 2.05200
Pr	Pr	0.56270 0.13323 0.59407 2.02500
C 	C 	0.73940 0.02840 0.35720 -0.00200
O 	O 	0.00450 0.74950 0.03480 -0.45700
O 	O 	0.38630 0.86150 0.93370 -0.21900
O 	O 	0.15720 0.64150 0.05360 -0.22200
O 	O 	0.14470 0.87750 0.96050 -0.47200
O 	O 	0.77370 0.83540 0.08630 -0.54300
O 	O 	0.39970 0.62570 0.02740 -0.52800
O 	O 	0.84300 0.67480 0.07150 -0.49200
O 	O 	0.06210 0.95160 0.12660 -0.42700
O 	O 	0.23750 0.03710 0.26940 -0.16000
O 	O 	0.62430 0.78930 0.14810 -0.46400
O 	O 	0.77420 0.66860 0.90880 -0.54300
O 	O 	0.61470 0.99840 0.45410 -0.58700
O 	O 	0.70130 0.51680 0.76220 -0.18600
O 	O 	0.37220 0.50230 0.05060 -0.53800
O 	O 	0.92000 0.72530 0.85000 -0.43300
C 	C 	0.80560 0.57810 0.76790 -0.00200
C 	C 	0.33630 0.56950 0.04810 0.38400
O 	O 	0.69270 0.94260 0.29580 -0.21100
C 	C 	0.75230 0.93550 0.22650 0.01800
C 	C 	0.20960 0.93850 0.94610 0.37800
C 	C 	0.03760 0.63670 0.07740 0.00300
C 	C 	0.33590 0.92600 0.91940 0.01200
C 	C 	0.95570 0.69240 0.05890 0.37400
O 	O 	0.36950 0.97860 0.36320 -0.50300
O 	O 	0.72740 0.13520 0.49410 -0.43400
C 	C 	0.83400 0.66260 0.84640 0.35400
C 	C 	0.20830 0.57890 0.07050 -0.02600
O 	O 	0.44480 0.11990 0.46390 -0.49500
C 	C 	0.83230 0.01350 0.24320 -0.05500
H 	H 	0.88260 0.02530 0.20590 0.06200
C 	C 	0.71430 0.84740 0.14840 0.36100
O 	O 	0.60860 0.28850 0.61600 -0.48600
C 	C 	0.01530 0.57550 0.10910 -0.03600
H 	H 	0.94170 0.56020 0.12970 0.03700
C 	C 	0.10300 0.03400 0.15120 0.36900
C 	C 	0.12510 0.53910 0.10500 -0.03600
H 	H 	0.13770 0.49550 0.12300 0.04600
C 	C 	0.38010 0.06220 0.39510 0.40100
C 	C 	0.53160 0.92880 0.88110 -0.02100
H 	H 	0.60540 0.94430 0.86090 0.05100
C 	C 	0.30890 0.09840 0.34480 -0.00100
C 	C 	0.18560 0.08610 0.23370 0.00200
C 	C 	0.82550 0.07360 0.32730 -0.02100
H 	H 	0.87080 0.13260 0.35680 0.05100
C 	C 	0.69090 0.05540 0.43970 0.34500
C 	C 	0.22190 0.17420 0.28620 -0.03600
H 	H 	0.19880 0.22100 0.27710 0.05800
C 	C 	0.42050 0.96850 0.88770 -0.05000
H 	H 	0.40980 0.01460 0.87290 0.06300
C 	C 	0.79840 0.45260 0.65220 -0.05600
H 	H 	0.81970 0.41120 0.60210 0.05800
O 	O 	0.50090 0.37800 0.71080 -0.30400
C 	C 	0.69850 0.43940 0.68970 0.02500
C 	C 	0.30150 0.18290 0.35780 -0.03100
H 	H 	0.34100 0.23620 0.40460 0.05100
C 	C 	0.86670 0.54220 0.70310 -0.02800
H 	H 	0.94120 0.57010 0.69240 0.04400
C 	C 	0.59210 0.36370 0.67190 0.31700
K 	K 	0.26620 0.74156 0.97996 0.64900
