data_crystal

_cell_length_a 10.81900
_cell_length_b 16.73000
_cell_length_c 17.37000
_cell_angle_alpha 114.65000
_cell_angle_beta  93.04000
_cell_angle_gamma 99.62000

_symmetry_space_group_name_	'P 1'
_symmetry_space_group_name_H-M	'P 1'

loop_
_symmetry_equiv_pos_as_xyz
  x,y,z

loop_
_atom_site_label
_atom_site_type_symbol
_atom_site_fract_x
_atom_site_fract_y
_atom_site_fract_z
_atom_site_charge
O 	O 	0.81760 0.99050 0.04920 -0.47400
O 	O 	0.46290 0.23980 0.03940 -0.52300
O 	O 	0.30300 0.17930 0.08980 -0.46100
C 	C 	0.41430 0.18930 0.07240 0.36200
C 	C 	0.49310 0.13340 0.09030 0.00900
O 	O 	0.92940 0.92280 0.88610 -0.51600
Ce	Ce	0.08282 0.14097 0.01280 2.16200
Ce	Ce	0.37144 0.34357 0.99600 2.12400
Ce	Ce	0.43799 0.86573 0.40561 2.09400
C 	C 	0.26070 0.97230 0.64250 -0.00500
O 	O 	0.99360 0.25130 0.96680 -0.46300
O 	O 	0.61190 0.13760 0.06680 -0.22300
O 	O 	0.84110 0.35870 0.94650 -0.21900
O 	O 	0.85410 0.12260 0.04050 -0.47900
O 	O 	0.22630 0.16520 0.91390 -0.55500
O 	O 	0.59980 0.37390 0.97230 -0.53100
O 	O 	0.15480 0.32610 0.93070 -0.50400
O 	O 	0.93660 0.05010 0.87380 -0.43200
O 	O 	0.76140 0.96290 0.73130 -0.16500
O 	O 	0.37610 0.21130 0.85170 -0.46600
O 	O 	0.22280 0.33040 0.09300 -0.56400
O 	O 	0.38350 0.00180 0.54570 -0.60200
O 	O 	0.29780 0.48240 0.23850 -0.18900
O 	O 	0.62560 0.49580 0.94670 -0.55000
O 	O 	0.07730 0.27500 0.15330 -0.44300
C 	C 	0.19280 0.42080 0.23320 -0.00800
C 	C 	0.66340 0.43050 0.95090 0.38000
O 	O 	0.30690 0.05740 0.70390 -0.21400
C 	C 	0.24940 0.06540 0.77390 0.01700
C 	C 	0.78830 0.06140 0.05410 0.37400
C 	C 	0.96240 0.36350 0.92340 -0.01300
C 	C 	0.66230 0.07350 0.08050 0.01300
C 	C 	0.04210 0.30870 0.94170 0.37900
O 	O 	0.62820 0.02210 0.63860 -0.50900
O 	O 	0.27230 0.86450 0.50690 -0.44300
C 	C 	0.16270 0.33590 0.15450 0.36600
C 	C 	0.79020 0.42000 0.92890 -0.02500
O 	O 	0.55490 0.88020 0.53770 -0.50000
C 	C 	0.16900 0.98800 0.75790 -0.05600
H 	H 	0.11850 0.97650 0.79540 0.06000
C 	C 	0.28530 0.15220 0.85130 0.35200
O 	O 	0.39360 0.70940 0.38440 -0.49900
C 	C 	0.98370 0.42460 0.89110 -0.02500
H 	H 	0.05700 0.43980 0.87030 0.03100
C 	C 	0.89880 0.96670 0.84810 0.37000
C 	C 	0.87350 0.46130 0.89490 -0.04400
H 	H 	0.86120 0.50510 0.87730 0.04600
C 	C 	0.61950 0.93830 0.60620 0.39400
C 	C 	0.46800 0.07000 0.11890 -0.03100
H 	H 	0.39410 0.05430 0.13900 0.05300
C 	C 	0.69210 0.90230 0.65630 0.00300
C 	C 	0.81660 0.91530 0.76520 0.00600
C 	C 	0.17620 0.92800 0.67400 -0.01900
H 	H 	0.13140 0.86890 0.64500 0.05000
C 	C 	0.30950 0.94480 0.56030 0.34900
C 	C 	0.78320 0.82650 0.71370 -0.04000
H 	H 	0.80830 0.78010 0.72260 0.05800
C 	C 	0.57840 0.03100 0.11230 -0.04800
H 	H 	0.58940 0.98510 0.12720 0.06200
C 	C 	0.20230 0.54600 0.35000 -0.06000
H 	H 	0.18250 0.58760 0.40080 0.05700
O 	O 	0.49810 0.62010 0.28800 -0.30500
C 	C 	0.30020 0.55860 0.31070 0.02600
C 	C 	0.70130 0.81860 0.64310 -0.03300
H 	H 	0.66160 0.76550 0.59650 0.05100
C 	C 	0.13380 0.45750 0.30030 -0.02300
H 	H 	0.06050 0.42980 0.31230 0.04300
C 	C 	0.40660 0.63480 0.32900 0.31900
K 	K 	0.73215 0.25778 0.02000 0.64800
O 	O 	0.18240 0.00950 0.95080 -0.47300
O 	O 	0.53710 0.76020 0.96060 -0.52200
O 	O 	0.69700 0.82070 0.91020 -0.46100
C 	C 	0.58570 0.81070 0.92760 0.36200
C 	C 	0.50690 0.86660 0.90970 0.00900
O 	O 	0.07060 0.07720 0.11390 -0.51600
Ce	Ce	0.91718 0.85903 0.98720 2.16200
Ce	Ce	0.62856 0.65643 0.00400 2.12400
Ce	Ce	0.56201 0.13427 0.59439 2.09400
C 	C 	0.73930 0.02770 0.35750 -0.00500
O 	O 	0.00640 0.74870 0.03320 -0.46300
O 	O 	0.38810 0.86240 0.93320 -0.22300
O 	O 	0.15890 0.64130 0.05350 -0.21900
O 	O 	0.14590 0.87740 0.95950 -0.47900
O 	O 	0.77370 0.83480 0.08610 -0.55500
O 	O 	0.40020 0.62610 0.02770 -0.53100
O 	O 	0.84520 0.67390 0.06930 -0.50400
O 	O 	0.06340 0.94990 0.12620 -0.43200
O 	O 	0.23860 0.03710 0.26870 -0.16500
O 	O 	0.62390 0.78870 0.14830 -0.46600
O 	O 	0.77720 0.66960 0.90700 -0.56400
O 	O 	0.61650 0.99820 0.45430 -0.60200
O 	O 	0.70220 0.51760 0.76150 -0.18900
O 	O 	0.37440 0.50420 0.05330 -0.55000
O 	O 	0.92270 0.72500 0.84670 -0.44300
C 	C 	0.80720 0.57920 0.76680 -0.00800
C 	C 	0.33660 0.56950 0.04910 0.38000
O 	O 	0.69310 0.94260 0.29610 -0.21400
C 	C 	0.75060 0.93460 0.22610 0.01700
C 	C 	0.21170 0.93860 0.94590 0.37400
C 	C 	0.03760 0.63650 0.07660 -0.01300
C 	C 	0.33770 0.92650 0.91950 0.01300
C 	C 	0.95790 0.69130 0.05830 0.37900
O 	O 	0.37180 0.97790 0.36140 -0.50900
O 	O 	0.72770 0.13550 0.49310 -0.44300
C 	C 	0.83730 0.66410 0.84550 0.36600
C 	C 	0.20980 0.58000 0.07110 -0.02500
O 	O 	0.44510 0.11980 0.46230 -0.50000
C 	C 	0.83100 0.01200 0.24210 -0.05600
H 	H 	0.88150 0.02350 0.20460 0.06000
C 	C 	0.71470 0.84780 0.14870 0.35200
O 	O 	0.60640 0.29060 0.61560 -0.49900
C 	C 	0.01630 0.57540 0.10890 -0.02500
H 	H 	0.94300 0.56020 0.12970 0.03100
C 	C 	0.10120 0.03330 0.15190 0.37000
C 	C 	0.12650 0.53870 0.10510 -0.04400
H 	H 	0.13880 0.49490 0.12270 0.04600
C 	C 	0.38050 0.06170 0.39380 0.39400
C 	C 	0.53200 0.93000 0.88110 -0.03100
H 	H 	0.60590 0.94570 0.86100 0.05300
C 	C 	0.30790 0.09770 0.34370 0.00300
C 	C 	0.18340 0.08470 0.23480 0.00600
C 	C 	0.82380 0.07200 0.32600 -0.01900
H 	H 	0.86860 0.13110 0.35500 0.05000
C 	C 	0.69050 0.05520 0.43970 0.34900
C 	C 	0.21680 0.17350 0.28630 -0.04000
H 	H 	0.19170 0.21990 0.27740 0.05800
C 	C 	0.42160 0.96900 0.88770 -0.04800
H 	H 	0.41060 0.01490 0.87280 0.06200
C 	C 	0.79770 0.45400 0.65000 -0.06000
H 	H 	0.81750 0.41240 0.59920 0.05700
O 	O 	0.50190 0.37990 0.71200 -0.30500
C 	C 	0.69980 0.44140 0.68930 0.02600
C 	C 	0.29870 0.18140 0.35690 -0.03300
H 	H 	0.33840 0.23450 0.40350 0.05100
C 	C 	0.86620 0.54250 0.69970 -0.02300
H 	H 	0.93950 0.57020 0.68770 0.04300
C 	C 	0.59340 0.36520 0.67100 0.31900
K 	K 	0.26785 0.74222 0.98000 0.64800
