data_crystal

_cell_length_a 16.03240
_cell_length_b 6.37980
_cell_length_c 15.17050
_cell_angle_alpha 90.00000
_cell_angle_beta  90.00000
_cell_angle_gamma 90.00000

_symmetry_space_group_name_	'P 1'
_symmetry_space_group_name_H-M	'P 1'

loop_
_symmetry_equiv_pos_as_xyz
  x,y,z

loop_
_atom_site_label
_atom_site_type_symbol
_atom_site_fract_x
_atom_site_fract_y
_atom_site_fract_z
_atom_site_charge
N 	N 	0.37270 0.92290 0.14520 -0.23500
N 	N 	0.42610 0.85190 0.08520 -0.15600
H 	H 	0.22340 0.81530 0.22810 0.31800
H 	H 	0.29370 0.82930 0.30270 0.31600
H 	H 	0.26200 0.60540 0.26900 0.29400
N 	N 	0.12730 0.07710 0.64520 -0.27400
N 	N 	0.07390 0.14810 0.58520 -0.18800
H 	H 	0.27660 0.18470 0.72810 0.29000
H 	H 	0.20630 0.17070 0.80270 0.29300
H 	H 	0.23800 0.39460 0.76900 0.28600
N 	N 	0.62730 0.42290 0.85480 -0.24800
N 	N 	0.57390 0.35190 0.91480 -0.14900
H 	H 	0.77660 0.31530 0.77190 0.30800
H 	H 	0.70630 0.32930 0.69730 0.30100
H 	H 	0.73800 0.10540 0.73100 0.27700
N 	N 	0.87270 0.57710 0.35480 -0.25500
N 	N 	0.92610 0.64810 0.41480 -0.14600
H 	H 	0.72340 0.68470 0.27190 0.31600
H 	H 	0.79370 0.67070 0.19730 0.31300
H 	H 	0.76200 0.89460 0.23100 0.31600
N 	N 	0.62730 0.07710 0.85480 -0.27000
N 	N 	0.57390 0.14810 0.91480 -0.15900
H 	H 	0.77660 0.18470 0.77190 0.29900
H 	H 	0.70630 0.17070 0.69730 0.29600
H 	H 	0.73800 0.39460 0.73100 0.29200
N 	N 	0.87270 0.92290 0.35480 -0.23100
N 	N 	0.92610 0.85190 0.41480 -0.12800
H 	H 	0.72340 0.81530 0.27190 0.32600
H 	H 	0.79370 0.82930 0.19730 0.31900
H 	H 	0.76200 0.60540 0.23100 0.30100
N 	N 	0.37270 0.57710 0.14520 -0.25800
N 	N 	0.42610 0.64810 0.08520 -0.17400
H 	H 	0.22340 0.68470 0.22810 0.30800
H 	H 	0.29370 0.67070 0.30270 0.31000
H 	H 	0.26200 0.89460 0.26900 0.31000
N 	N 	0.12730 0.42290 0.64520 -0.25100
N 	N 	0.07390 0.35190 0.58520 -0.17700
H 	H 	0.27660 0.31530 0.72810 0.29900
H 	H 	0.20630 0.32930 0.80270 0.29900
H 	H 	0.23800 0.10540 0.76900 0.27100
Cu	Cu	0.36766 0.25000 0.15893 0.89900
O 	O 	0.47230 0.25000 0.23230 -0.40100
O 	O 	0.36140 0.25000 0.31720 -0.38000
O 	O 	0.43780 0.25000 0.02680 -0.69600
C 	C 	0.43890 0.25000 0.30910 0.31500
O 	O 	0.75150 0.25000 0.36750 -0.44100
H 	H 	0.39220 0.25000 0.98200 0.20300
C 	C 	0.49440 0.25000 0.38760 -0.08100
C 	C 	0.57930 0.25000 0.37940 0.03500
C 	C 	0.45840 0.25000 0.47150 -0.04400
H 	H 	0.60350 0.25000 0.32230 0.02600
C 	C 	0.63240 0.25000 0.45550 -0.10100
C 	C 	0.50930 0.25000 0.54450 0.05200
H 	H 	0.39950 0.25000 0.47810 0.06100
C 	C 	0.59540 0.25000 0.53760 -0.02500
C 	C 	0.72530 0.25000 0.44700 0.35500
N 	N 	0.47050 0.25000 0.63070 -0.00400
H 	H 	0.62900 0.25000 0.58930 0.02800
O 	O 	0.76900 0.25000 0.51240 -0.35000
O 	O 	0.51740 0.25000 0.69670 -0.16400
O 	O 	0.39480 0.25000 0.63660 -0.18700
Cu	Cu	0.13234 0.75000 0.65893 0.92600
O 	O 	0.02770 0.75000 0.73230 -0.39000
O 	O 	0.13860 0.75000 0.81720 -0.33600
O 	O 	0.06220 0.75000 0.52680 -0.60800
C 	C 	0.06110 0.75000 0.80910 0.33700
O 	O 	0.74850 0.75000 0.86750 -0.41900
H 	H 	0.10780 0.75000 0.48200 0.14400
C 	C 	0.00560 0.75000 0.88760 -0.12100
C 	C 	0.92070 0.75000 0.87940 0.12500
C 	C 	0.04160 0.75000 0.97150 -0.05700
H 	H 	0.89650 0.75000 0.82230 0.03900
C 	C 	0.86760 0.75000 0.95550 -0.01400
C 	C 	0.99070 0.75000 0.04450 0.16700
H 	H 	0.10050 0.75000 0.97810 0.10900
C 	C 	0.90460 0.75000 0.03760 -0.13600
C 	C 	0.77470 0.75000 0.94700 0.43800
N 	N 	0.02950 0.75000 0.13070 -0.07600
H 	H 	0.87100 0.75000 0.08930 0.07000
O 	O 	0.73100 0.75000 0.01240 -0.40900
O 	O 	0.98260 0.75000 0.19670 -0.08500
O 	O 	0.10520 0.75000 0.13660 -0.17700
Cu	Cu	0.63234 0.75000 0.84107 0.93200
O 	O 	0.52770 0.75000 0.76770 -0.36000
O 	O 	0.63860 0.75000 0.68280 -0.33300
O 	O 	0.56220 0.75000 0.97320 -0.50400
C 	C 	0.56110 0.75000 0.69090 0.31400
O 	O 	0.24850 0.75000 0.63250 -0.40700
H 	H 	0.60780 0.75000 0.01800 0.09100
C 	C 	0.50560 0.75000 0.61240 -0.04000
C 	C 	0.42070 0.75000 0.62060 0.03300
C 	C 	0.54160 0.75000 0.52850 -0.04800
H 	H 	0.39650 0.75000 0.67770 0.05300
C 	C 	0.36760 0.75000 0.54450 -0.07100
C 	C 	0.49070 0.75000 0.45550 0.08900
H 	H 	0.60050 0.75000 0.52190 0.08700
C 	C 	0.40460 0.75000 0.46240 -0.02600
C 	C 	0.27470 0.75000 0.55300 0.35800
N 	N 	0.52950 0.75000 0.36930 -0.00100
H 	H 	0.37100 0.75000 0.41070 0.04000
O 	O 	0.23100 0.75000 0.48760 -0.34000
O 	O 	0.48260 0.75000 0.30330 -0.13700
O 	O 	0.60520 0.75000 0.36340 -0.15700
Cu	Cu	0.86766 0.25000 0.34107 0.90500
O 	O 	0.97230 0.25000 0.26770 -0.36900
O 	O 	0.86140 0.25000 0.18280 -0.37600
O 	O 	0.93780 0.25000 0.47320 -0.58800
C 	C 	0.93890 0.25000 0.19090 0.29000
O 	O 	0.25150 0.25000 0.13250 -0.42900
H 	H 	0.89220 0.25000 0.51800 0.14800
C 	C 	0.99440 0.25000 0.11240 0.00500
C 	C 	0.07930 0.25000 0.12060 -0.06100
C 	C 	0.95840 0.25000 0.02850 -0.03800
H 	H 	0.10350 0.25000 0.17770 0.04100
C 	C 	0.13240 0.25000 0.04450 -0.16000
C 	C 	0.00930 0.25000 0.95550 -0.02500
H 	H 	0.89950 0.25000 0.02190 0.04000
C 	C 	0.09540 0.25000 0.96240 0.08900
C 	C 	0.22530 0.25000 0.05300 0.27100
N 	N 	0.97050 0.25000 0.86930 0.07100
H 	H 	0.12900 0.25000 0.91070 -0.00300
O 	O 	0.26900 0.25000 0.98760 -0.27800
O 	O 	0.01740 0.25000 0.80330 -0.21600
O 	O 	0.89480 0.25000 0.86340 -0.16700
Cu	Cu	0.50000 0.00000 -0.00000 0.80300
Cu	Cu	0.00000 0.00000 0.50000 0.80200
Cu	Cu	0.50000 0.50000 -0.00000 0.83500
Cu	Cu	0.00000 0.50000 0.50000 0.83400
C 	C 	0.33840 0.75000 0.18380 0.58600
C 	C 	0.27410 0.75000 0.25140 -1.75100
C 	C 	0.16160 0.25000 0.68380 0.55000
C 	C 	0.22590 0.25000 0.75140 -1.66200
C 	C 	0.66160 0.25000 0.81620 0.56300
C 	C 	0.72590 0.25000 0.74860 -1.69000
C 	C 	0.83840 0.75000 0.31620 0.59800
C 	C 	0.77410 0.75000 0.24860 -1.77700
