data_crystal

_cell_length_a 7.79000
_cell_length_b 21.48700
_cell_length_c 20.66600
_cell_angle_alpha 90.00000
_cell_angle_beta  90.00000
_cell_angle_gamma 90.00000

_symmetry_space_group_name_	'P 1'
_symmetry_space_group_name_H-M	'P 1'

loop_
_symmetry_equiv_pos_as_xyz
  x,y,z

loop_
_atom_site_label
_atom_site_type_symbol
_atom_site_fract_x
_atom_site_fract_y
_atom_site_fract_z
_atom_site_charge
Cd	Cd	0.20400 0.49736 0.83623 1.23200
Cd	Cd	0.20400 0.00264 0.33623 1.23200
Cd	Cd	0.79600 0.99736 0.83623 1.23200
Cd	Cd	0.32299 0.45606 0.37288 1.17500
Cd	Cd	0.79600 0.50264 0.33623 1.23300
Cd	Cd	0.32299 0.04394 0.87288 1.17200
Cd	Cd	0.67701 0.54394 0.87288 1.17200
Cd	Cd	0.67701 0.95606 0.37288 1.17500
H 	H 	0.73730 0.77740 0.68760 0.16600
H 	H 	0.41690 0.87560 0.19340 0.21200
H 	H 	0.06970 0.29500 0.67630 0.16900
H 	H 	0.59000 0.13460 0.50950 0.17400
H 	H 	0.94430 0.31390 0.96240 0.15900
H 	H 	0.41000 0.63460 0.50950 0.17400
H 	H 	0.58490 0.38370 0.50450 0.14000
H 	H 	0.08240 0.18530 0.97990 0.14000
H 	H 	0.41510 0.61630 0.00450 0.15300
H 	H 	0.33010 0.86310 0.56990 0.15200
H 	H 	0.46590 0.91090 0.71610 0.20900
H 	H 	0.47710 0.33820 0.14200 0.18600
H 	H 	0.18300 0.33560 0.19160 0.20000
H 	H 	0.43810 0.11040 0.46650 0.19700
H 	H 	0.03840 0.37730 0.22170 0.21700
H 	H 	0.91760 0.81470 0.47990 0.15600
H 	H 	0.19130 0.15900 0.21320 0.19300
H 	H 	0.05570 0.68610 0.46240 0.16900
H 	H 	0.06970 0.20500 0.17630 0.17400
H 	H 	0.98950 0.31850 0.18080 0.19600
H 	H 	0.80870 0.84100 0.71320 0.18900
H 	H 	0.22110 0.89840 0.51770 0.16100
H 	H 	0.11230 0.79890 0.47000 0.17200
H 	H 	0.01050 0.68150 0.68080 0.19100
H 	H 	0.44930 0.86770 0.65530 0.18400
H 	H 	0.03840 0.12270 0.72170 0.21400
H 	H 	0.58490 0.11630 0.00450 0.14800
H 	H 	0.86300 0.79860 0.97730 0.15600
H 	H 	0.93030 0.70500 0.17630 0.17500
H 	H 	0.53410 0.41090 0.71610 0.21000
H 	H 	0.26270 0.27740 0.68760 0.16600
H 	H 	0.53410 0.08910 0.21610 0.21700
H 	H 	0.09020 0.35700 0.93540 0.18500
H 	H 	0.40120 0.15470 0.52520 0.17800
H 	H 	0.40120 0.34530 0.02520 0.13800
H 	H 	0.08240 0.31470 0.47990 0.15600
H 	H 	0.28460 0.89690 0.68660 0.19800
H 	H 	0.81700 0.66440 0.69160 0.19600
H 	H 	0.41690 0.62440 0.69340 0.19600
H 	H 	0.66990 0.36310 0.56990 0.15200
H 	H 	0.09020 0.14300 0.43540 0.19300
H 	H 	0.90980 0.85700 0.93540 0.18400
H 	H 	0.71540 0.10310 0.18660 0.20700
H 	H 	0.77890 0.10160 0.01770 0.17000
H 	H 	0.59880 0.65470 0.52520 0.17800
H 	H 	0.80870 0.65900 0.21320 0.19300
H 	H 	0.05570 0.81390 0.96240 0.15700
H 	H 	0.55070 0.13230 0.15530 0.19400
H 	H 	0.58310 0.37560 0.19340 0.21100
H 	H 	0.03790 0.86190 0.44400 0.16200
H 	H 	0.41510 0.88370 0.50450 0.14000
H 	H 	0.55070 0.36770 0.65530 0.18500
H 	H 	0.43810 0.38960 0.96650 0.13000
H 	H 	0.96210 0.13810 0.94400 0.14700
H 	H 	0.03790 0.63810 0.94400 0.14500
H 	H 	0.98950 0.18150 0.68080 0.19200
H 	H 	0.28460 0.60310 0.18660 0.20600
H 	H 	0.46590 0.58910 0.21610 0.21700
H 	H 	0.26270 0.22260 0.18760 0.17000
H 	H 	0.59880 0.84530 0.02520 0.13400
H 	H 	0.81700 0.83560 0.19160 0.20000
H 	H 	0.44930 0.63230 0.15530 0.19400
H 	H 	0.52290 0.83820 0.14200 0.18800
H 	H 	0.13700 0.29860 0.97730 0.15700
H 	H 	0.66610 0.14160 0.62660 0.17400
H 	H 	0.93030 0.79500 0.67630 0.16900
H 	H 	0.47710 0.16180 0.64200 0.17000
H 	H 	0.86300 0.70140 0.47730 0.16800
H 	H 	0.77890 0.39840 0.51770 0.16100
H 	H 	0.88770 0.29890 0.47000 0.17100
H 	H 	0.91760 0.68530 0.97990 0.13800
H 	H 	0.58310 0.12440 0.69340 0.19600
H 	H 	0.88770 0.20110 0.97000 0.15500
H 	H 	0.94430 0.18610 0.46240 0.16900
H 	H 	0.11230 0.70110 0.97000 0.15400
H 	H 	0.13700 0.20140 0.47730 0.16800
H 	H 	0.33390 0.85840 0.12660 0.19300
H 	H 	0.96160 0.62270 0.72170 0.21300
H 	H 	0.71540 0.39690 0.68660 0.19800
H 	H 	0.56190 0.61040 0.46650 0.19700
H 	H 	0.52290 0.66180 0.64200 0.17000
H 	H 	0.56190 0.88960 0.96650 0.12400
H 	H 	0.66990 0.13690 0.06990 0.15400
H 	H 	0.18300 0.16440 0.69160 0.19600
H 	H 	0.19130 0.34100 0.71320 0.18900
H 	H 	0.73730 0.72260 0.18760 0.17100
H 	H 	0.66610 0.35840 0.12660 0.19100
H 	H 	0.96210 0.36190 0.44400 0.16200
H 	H 	0.01050 0.81850 0.18080 0.19600
H 	H 	0.96160 0.87730 0.22170 0.21700
H 	H 	0.90980 0.64300 0.43540 0.19300
H 	H 	0.33010 0.63690 0.06990 0.15700
H 	H 	0.59000 0.36540 0.00950 0.13500
H 	H 	0.22110 0.60160 0.01770 0.17400
H 	H 	0.41000 0.86540 0.00950 0.13100
H 	H 	0.33390 0.64160 0.62660 0.17400
C 	C 	0.93160 0.77589 0.88509 0.10500
C 	C 	0.49560 0.43102 0.11933 0.16400
C 	C 	0.06840 0.22411 0.38509 0.10900
C 	C 	0.57950 0.04009 0.13287 0.16400
C 	C 	0.43840 0.87018 0.14798 -0.62100
C 	C 	0.94090 0.81489 0.94551 -0.53800
C 	C 	0.49560 0.06898 0.61933 0.12300
C 	C 	0.47560 0.48301 0.15837 -0.23500
C 	C 	0.02820 0.21209 0.88760 0.11500
C 	C 	0.57950 0.45991 0.63287 0.14200
C 	C 	0.38230 0.95579 0.56706 0.09900
C 	C 	0.43840 0.62982 0.64798 -0.57000
C 	C 	0.67150 0.99371 0.95987 0.35200
C 	C 	0.02810 0.32222 0.33029 -0.24600
C 	C 	0.32850 0.00629 0.45987 0.39800
C 	C 	0.97180 0.78791 0.38760 0.12400
C 	C 	0.96150 0.11172 0.83197 0.39000
C 	C 	0.16220 0.37045 0.82485 0.32800
C 	C 	0.03850 0.88828 0.33197 0.39100
C 	C 	0.93160 0.72411 0.38509 0.10900
C 	C 	0.02810 0.17778 0.83029 -0.24300
C 	C 	0.92920 0.83546 0.21085 -0.63300
C 	C 	0.83550 0.79795 0.70579 -0.55300
C 	C 	0.45260 0.06571 0.55342 0.12500
C 	C 	0.39390 0.00945 0.52827 -0.22200
C 	C 	0.97180 0.71209 0.88760 0.11400
C 	C 	0.11260 0.19822 0.32552 -0.17300
C 	C 	0.47220 0.12141 0.50968 -0.58700
C 	C 	0.06840 0.27589 0.88509 0.10600
C 	C 	0.01370 0.81864 0.45112 -0.56800
C 	C 	0.66730 0.10529 0.03708 -0.51000
C 	C 	0.88280 0.76746 0.76884 0.10300
C 	C 	0.16450 0.20205 0.20579 -0.56100
C 	C 	0.33270 0.89471 0.53708 -0.51900
C 	C 	0.45260 0.43429 0.05342 0.06400
C 	C 	0.42050 0.54009 0.13287 0.16200
C 	C 	0.52540 0.48025 0.22894 0.43800
C 	C 	0.47560 0.01699 0.65837 -0.21400
C 	C 	0.83780 0.62955 0.32485 0.32900
C 	C 	0.54740 0.93429 0.05342 0.05700
C 	C 	0.42050 0.95991 0.63287 0.14100
C 	C 	0.32850 0.49371 0.95987 0.35800
C 	C 	0.59650 0.09629 0.17674 -0.63700
C 	C 	0.16220 0.12955 0.32485 0.32900
C 	C 	0.94090 0.68511 0.44551 -0.55800
C 	C 	0.88280 0.73254 0.26884 0.10500
C 	C 	0.60610 0.99055 0.02827 -0.15200
C 	C 	0.05910 0.18511 0.44551 -0.55800
C 	C 	0.40350 0.90371 0.67674 -0.61100
C 	C 	0.88740 0.69822 0.32552 -0.17300
C 	C 	0.83550 0.70205 0.20579 -0.56200
C 	C 	0.07080 0.33546 0.21085 -0.63300
C 	C 	0.38230 0.54421 0.06706 0.08100
C 	C 	0.92660 0.70352 0.77085 0.15200
C 	C 	0.54740 0.56571 0.55342 0.12500
C 	C 	0.60610 0.50945 0.52827 -0.22200
C 	C 	0.33270 0.60529 0.03708 -0.52200
C 	C 	0.11720 0.26746 0.76884 0.10300
C 	C 	0.07340 0.20352 0.77085 0.15200
C 	C 	0.97190 0.67778 0.83029 -0.24200
C 	C 	0.07080 0.16454 0.71085 -0.62600
C 	C 	0.98630 0.31864 0.45112 -0.56700
C 	C 	0.67150 0.50629 0.45987 0.39900
C 	C 	0.59650 0.40371 0.67674 -0.61200
C 	C 	0.56160 0.12982 0.64798 -0.56900
C 	C 	0.40350 0.59629 0.17674 -0.63600
C 	C 	0.39390 0.49055 0.02827 -0.16300
C 	C 	0.56160 0.37018 0.14798 -0.61600
C 	C 	0.61770 0.45579 0.56706 0.09800
C 	C 	0.07340 0.29648 0.27085 0.15500
C 	C 	0.50440 0.56898 0.61933 0.12400
C 	C 	0.83780 0.87045 0.82485 0.32800
C 	C 	0.52440 0.51699 0.65837 -0.21500
C 	C 	0.52440 0.98301 0.15837 -0.23500
C 	C 	0.98630 0.18136 0.95112 -0.53800
C 	C 	0.16450 0.29795 0.70579 -0.55300
C 	C 	0.92920 0.66454 0.71085 -0.62500
C 	C 	0.52780 0.87859 0.00968 -0.40400
C 	C 	0.47220 0.37859 0.00968 -0.42000
C 	C 	0.88740 0.80178 0.82552 -0.17200
C 	C 	0.52540 0.01975 0.72894 0.43200
C 	C 	0.01370 0.68136 0.95112 -0.53400
C 	C 	0.05910 0.31489 0.94551 -0.54000
C 	C 	0.66730 0.39471 0.53708 -0.51900
C 	C 	0.03850 0.61172 0.83197 0.39000
C 	C 	0.61770 0.04421 0.06706 0.07200
C 	C 	0.50440 0.93102 0.11933 0.16800
C 	C 	0.11720 0.23254 0.26884 0.10500
C 	C 	0.92660 0.79648 0.27085 0.15500
C 	C 	0.96150 0.38828 0.33197 0.39200
C 	C 	0.11260 0.30178 0.82552 -0.17200
C 	C 	0.47460 0.98025 0.22894 0.43900
C 	C 	0.97190 0.82222 0.33029 -0.24600
C 	C 	0.02820 0.28791 0.38760 0.12400
C 	C 	0.47460 0.51975 0.72894 0.43200
C 	C 	0.52780 0.62141 0.50968 -0.58700
O 	O 	0.95670 0.58983 0.31661 -0.42000
O 	O 	0.57260 0.00633 0.91330 -0.57700
O 	O 	0.31480 0.11492 0.33374 -0.37700
O 	O 	0.31480 0.38508 0.83374 -0.37600
O 	O 	0.95670 0.91017 0.81661 -0.42100
O 	O 	0.05700 0.06490 0.83536 -0.56500
O 	O 	0.82540 0.98188 0.95030 -0.43200
O 	O 	0.04330 0.41017 0.81661 -0.42100
O 	O 	0.80320 0.10481 0.82940 -0.43700
O 	O 	0.67390 0.00154 0.74063 -0.46500
O 	O 	0.19680 0.89519 0.32940 -0.43600
O 	O 	0.58000 0.54011 0.76844 -0.49000
O 	O 	0.42740 0.99367 0.41330 -0.58400
O 	O 	0.19680 0.60481 0.82940 -0.43800
O 	O 	0.32610 0.50154 0.74063 -0.46600
O 	O 	0.42000 0.04011 0.76844 -0.48900
O 	O 	0.80320 0.39519 0.32940 -0.43600
O 	O 	0.17460 0.01812 0.45030 -0.43500
O 	O 	0.05700 0.43510 0.33536 -0.56500
O 	O 	0.67390 0.49846 0.24063 -0.46700
O 	O 	0.68520 0.88508 0.83374 -0.37600
O 	O 	0.94300 0.56490 0.83536 -0.56600
O 	O 	0.57260 0.49367 0.41330 -0.58500
O 	O 	0.68520 0.61492 0.33374 -0.37600
O 	O 	0.17460 0.48188 0.95030 -0.43300
O 	O 	0.82540 0.51812 0.45030 -0.43500
O 	O 	0.94300 0.93510 0.33536 -0.56400
O 	O 	0.04330 0.08983 0.31661 -0.42100
O 	O 	0.42000 0.45989 0.26844 -0.49100
O 	O 	0.58000 0.95989 0.26844 -0.49100
O 	O 	0.42740 0.50633 0.91330 -0.58000
O 	O 	0.32610 0.99846 0.24063 -0.46600
