data_crystal

_cell_length_a 6.68700
_cell_length_b 14.38900
_cell_length_c 14.87400
_cell_angle_alpha 90.00000
_cell_angle_beta  90.00000
_cell_angle_gamma 90.00000

_symmetry_space_group_name_	'P 1'
_symmetry_space_group_name_H-M	'P 1'

loop_
_symmetry_equiv_pos_as_xyz
  x,y,z

loop_
_atom_site_label
_atom_site_type_symbol
_atom_site_fract_x
_atom_site_fract_y
_atom_site_fract_z
_atom_site_charge
Ca	Ca	0.13658 0.80385 0.45805 1.50500
O 	O 	0.99180 0.65670 0.52540 -0.54600
O 	O 	0.28200 0.70420 0.57840 -0.55900
O 	O 	0.99400 0.39140 0.92440 -0.48500
O 	O 	0.21810 0.29980 0.85870 -0.49800
C 	C 	0.13610 0.64870 0.57930 0.38600
C 	C 	0.10930 0.37010 0.86130 0.41900
C 	C 	0.13530 0.57290 0.64820 -0.16500
C 	C 	0.13780 0.59790 0.73560 -0.00900
H 	H 	0.15160 0.66010 0.75140 0.02300
C 	C 	0.11940 0.52940 0.80300 -0.01900
H 	H 	0.10680 0.54810 0.86260 0.03700
C 	C 	0.11940 0.43720 0.78380 -0.12300
C 	C 	0.12680 0.40910 0.69290 0.03800
C 	C 	0.12670 0.47740 0.62320 0.04800
C 	C 	0.12600 0.44950 0.53390 -0.11000
H 	H 	0.12830 0.49400 0.48860 0.06800
C 	C 	0.12200 0.35750 0.51170 -0.01700
H 	H 	0.11540 0.33970 0.45160 0.02900
C 	C 	0.12780 0.29030 0.57930 -0.03800
H 	H 	0.12960 0.22780 0.56350 0.03700
C 	C 	0.13080 0.31380 0.66680 -0.08100
H 	H 	0.13540 0.26760 0.71050 0.06000
Ca	Ca	0.36342 0.19615 0.95805 1.50400
O 	O 	0.50820 0.34330 0.02540 -0.54700
O 	O 	0.21800 0.29580 0.07840 -0.55700
O 	O 	0.50600 0.60860 0.42440 -0.48600
O 	O 	0.28190 0.70020 0.35870 -0.49800
C 	C 	0.36390 0.35130 0.07930 0.38800
C 	C 	0.39070 0.62990 0.36130 0.42000
C 	C 	0.36470 0.42710 0.14820 -0.16500
C 	C 	0.36220 0.40210 0.23560 -0.00900
H 	H 	0.34840 0.33990 0.25140 0.02400
C 	C 	0.38060 0.47060 0.30300 -0.01900
H 	H 	0.39320 0.45190 0.36260 0.03700
C 	C 	0.38060 0.56280 0.28380 -0.12300
C 	C 	0.37320 0.59090 0.19290 0.03900
C 	C 	0.37330 0.52260 0.12320 0.04700
C 	C 	0.37400 0.55050 0.03390 -0.10700
H 	H 	0.37170 0.50600 0.98860 0.06600
C 	C 	0.37800 0.64250 0.01170 -0.01500
H 	H 	0.38460 0.66030 0.95160 0.02700
C 	C 	0.37220 0.70970 0.07930 -0.03900
H 	H 	0.37040 0.77220 0.06350 0.03700
C 	C 	0.36920 0.68620 0.16680 -0.08100
H 	H 	0.36460 0.73240 0.21050 0.06000
Ca	Ca	0.86342 0.30385 0.04195 1.50400
O 	O 	0.00820 0.15670 0.97460 -0.55000
O 	O 	0.71800 0.20420 0.92160 -0.56000
O 	O 	0.00600 0.89140 0.57560 -0.48900
O 	O 	0.78190 0.79980 0.64130 -0.49800
C 	C 	0.86390 0.14870 0.92070 0.39000
C 	C 	0.89070 0.87010 0.63870 0.42200
C 	C 	0.86470 0.07290 0.85180 -0.17000
C 	C 	0.86220 0.09790 0.76440 -0.00500
H 	H 	0.84840 0.16010 0.74860 0.02200
C 	C 	0.88060 0.02940 0.69700 -0.02400
H 	H 	0.89320 0.04810 0.63740 0.03900
C 	C 	0.88060 0.93720 0.71620 -0.12000
C 	C 	0.87320 0.90910 0.80710 0.03600
C 	C 	0.87330 0.97740 0.87680 0.05200
C 	C 	0.87400 0.94950 0.96610 -0.11000
H 	H 	0.87170 0.99400 0.01140 0.06600
C 	C 	0.87800 0.85750 0.98830 -0.01000
H 	H 	0.88460 0.83970 0.04840 0.02500
C 	C 	0.87220 0.79030 0.92070 -0.04300
H 	H 	0.87040 0.72780 0.93650 0.03900
C 	C 	0.86920 0.81380 0.83320 -0.07700
H 	H 	0.86460 0.76760 0.78950 0.05900
Ca	Ca	0.63658 0.69615 0.54195 1.50400
O 	O 	0.49180 0.84330 0.47460 -0.54800
O 	O 	0.78200 0.79580 0.42160 -0.56000
O 	O 	0.49400 0.10860 0.07560 -0.48500
O 	O 	0.71810 0.20020 0.14130 -0.49800
C 	C 	0.63610 0.85130 0.42070 0.38900
C 	C 	0.60930 0.12990 0.13870 0.41900
C 	C 	0.63530 0.92710 0.35180 -0.16800
C 	C 	0.63780 0.90210 0.26440 -0.00600
H 	H 	0.65160 0.83990 0.24860 0.02200
C 	C 	0.61940 0.97060 0.19700 -0.02200
H 	H 	0.60680 0.95190 0.13740 0.03800
C 	C 	0.61940 0.06280 0.21620 -0.12000
C 	C 	0.62680 0.09090 0.30710 0.03700
C 	C 	0.62670 0.02260 0.37680 0.05000
C 	C 	0.62600 0.05050 0.46610 -0.11200
H 	H 	0.62830 0.00600 0.51140 0.06800
C 	C 	0.62200 0.14250 0.48830 -0.01500
H 	H 	0.61540 0.16030 0.54840 0.02800
C 	C 	0.62780 0.20970 0.42070 -0.04000
H 	H 	0.62960 0.27220 0.43650 0.03700
C 	C 	0.63080 0.18620 0.33320 -0.07900
H 	H 	0.63540 0.23240 0.28950 0.06000
