data_crystal

_cell_length_a 11.84200
_cell_length_b 11.75900
_cell_length_c 27.43200
_cell_angle_alpha 90.00000
_cell_angle_beta  102.48000
_cell_angle_gamma 90.00000

_symmetry_space_group_name_	'P 1'
_symmetry_space_group_name_H-M	'P 1'

loop_
_symmetry_equiv_pos_as_xyz
  x,y,z

loop_
_atom_site_label
_atom_site_type_symbol
_atom_site_fract_x
_atom_site_fract_y
_atom_site_fract_z
_atom_site_charge
Co	Co	0.69498 0.36498 0.98166 1.11400
O 	O 	0.86700 0.38190 0.97517 -0.52100
O 	O 	0.65900 0.38990 0.90296 -0.56100
O 	O 	0.46710 0.38360 0.88092 -0.31800
O 	O 	0.20490 0.67980 0.59210 -0.42300
O 	O 	0.29250 0.68910 0.52705 -0.45100
O 	O 	0.86020 0.51260 0.87711 -0.44900
O 	O 	0.92980 0.62260 0.94310 -0.38000
O 	O 	0.89170 0.91450 0.54267 -0.41800
O 	O 	0.99740 0.80890 0.60398 -0.36300
O 	O 	0.28810 0.46060 0.61085 -0.19700
O 	O 	0.81050 0.74010 0.63710 -0.19100
N 	N 	0.79280 0.30970 0.81751 -0.20600
N 	N 	0.72100 0.16630 0.56029 -0.26000
C 	C 	0.56270 0.40600 0.87164 0.39800
C 	C 	0.57010 0.45420 0.82262 -0.23300
H 	H 	0.63500 0.49640 0.82010 0.11100
C 	C 	0.48710 0.43920 0.78225 -0.02000
H 	H 	0.42210 0.39910 0.78640 0.05200
C 	C 	0.48720 0.47960 0.73145 0.12800
C 	C 	0.39510 0.44980 0.69273 -0.24700
H 	H 	0.33840 0.40070 0.69910 0.12800
C 	C 	0.38650 0.49160 0.64508 0.25100
C 	C 	0.47210 0.56200 0.63424 -0.24400
H 	H 	0.46790 0.58850 0.60200 0.12100
C 	C 	0.56410 0.59160 0.67282 0.13000
H 	H 	0.62170 0.63910 0.66610 -0.00100
C 	C 	0.57190 0.55230 0.72073 -0.19400
H 	H 	0.63380 0.57420 0.74600 0.09700
C 	C 	0.27370 0.50940 0.56209 -0.19600
H 	H 	0.20770 0.47390 0.54030 0.10000
H 	H 	0.34160 0.49220 0.54900 0.09700
C 	C 	0.25570 0.63670 0.56076 0.39000
C 	C 	0.89160 0.60590 0.89682 0.40900
C 	C 	0.88590 0.70390 0.86167 -0.19100
H 	H 	0.89680 0.77750 0.87420 0.12500
C 	C 	0.86580 0.68700 0.81318 -0.03900
H 	H 	0.85180 0.61170 0.80340 0.06000
C 	C 	0.86170 0.76810 0.77181 0.16800
C 	C 	0.84180 0.72490 0.72362 -0.26800
H 	H 	0.83380 0.64670 0.71890 0.13800
C 	C 	0.83340 0.79500 0.68236 0.29300
C 	C 	0.84760 0.91090 0.68903 -0.29000
H 	H 	0.84220 0.95890 0.66170 0.15300
C 	C 	0.87000 0.95450 0.73689 0.21300
H 	H 	0.88080 0.03250 0.74140 -0.03500
C 	C 	0.87680 0.88540 0.77861 -0.24400
H 	H 	0.89110 0.91670 0.81050 0.13700
C 	C 	0.79280 0.80660 0.59267 -0.17900
H 	H 	0.74570 0.87200 0.59660 0.09400
H 	H 	0.75000 0.76160 0.56520 0.09800
C 	C 	0.90530 0.84840 0.57921 0.40000
C 	C 	0.71140 0.23690 0.79541 0.08300
H 	H 	0.66650 0.20140 0.81490 0.01000
C 	C 	0.69000 0.21120 0.74503 -0.12500
H 	H 	0.63130 0.16060 0.73150 0.07400
C 	C 	0.75590 0.26060 0.71472 0.05100
C 	C 	0.83870 0.33820 0.73760 -0.12100
H 	H 	0.88400 0.37580 0.71890 0.08800
C 	C 	0.85400 0.36000 0.78789 0.08100
H 	H 	0.91020 0.41260 0.80210 0.02700
C 	C 	0.74150 0.22970 0.66115 0.07700
C 	C 	0.66070 0.15310 0.63750 -0.16100
H 	H 	0.61030 0.11970 0.65500 0.08700
C 	C 	0.65300 0.12510 0.58826 0.09600
H 	H 	0.59600 0.07360 0.57370 -0.05000
C 	C 	0.80050 0.23880 0.58307 0.09900
H 	H 	0.85040 0.26990 0.56480 0.01000
C 	C 	0.81370 0.27080 0.63212 -0.14900
H 	H 	0.87240 0.32120 0.64600 0.09900
Co	Co	0.83099 0.35131 0.89698 1.18800
Co	Co	0.30502 0.86498 0.51834 1.10700
O 	O 	0.13300 0.88190 0.52483 -0.57100
O 	O 	0.34100 0.88990 0.59704 -0.55800
O 	O 	0.53290 0.88360 0.61908 -0.31500
O 	O 	0.79510 0.17980 0.90790 -0.40600
O 	O 	0.70750 0.18910 0.97295 -0.44800
O 	O 	0.13980 0.01260 0.62289 -0.48200
O 	O 	0.07020 0.12260 0.55690 -0.44200
O 	O 	0.10830 0.41450 0.95733 -0.45400
O 	O 	0.00260 0.30890 0.89602 -0.44600
O 	O 	0.71190 0.96060 0.88915 -0.17100
O 	O 	0.18950 0.24010 0.86290 -0.19300
N 	N 	0.20720 0.80970 0.68249 -0.21400
N 	N 	0.27900 0.66630 0.93971 -0.25500
C 	C 	0.43730 0.90600 0.62836 0.39600
C 	C 	0.42990 0.95420 0.67738 -0.22100
H 	H 	0.36500 0.99640 0.67990 0.11200
C 	C 	0.51290 0.93920 0.71775 -0.03600
H 	H 	0.57790 0.89910 0.71360 0.05700
C 	C 	0.51280 0.97960 0.76855 0.16500
C 	C 	0.60490 0.94980 0.80727 -0.26800
H 	H 	0.66160 0.90070 0.80090 0.13600
C 	C 	0.61350 0.99160 0.85492 0.27800
C 	C 	0.52790 0.06200 0.86576 -0.28300
H 	H 	0.53210 0.08850 0.89800 0.13300
C 	C 	0.43590 0.09160 0.82718 0.16500
H 	H 	0.37830 0.13910 0.83390 -0.01500
C 	C 	0.42810 0.05230 0.77927 -0.23900
H 	H 	0.36620 0.07420 0.75400 0.11000
C 	C 	0.72630 0.00940 0.93791 -0.28600
H 	H 	0.79230 0.97390 0.95970 0.15700
H 	H 	0.65840 0.99220 0.95100 0.13800
C 	C 	0.74430 0.13670 0.93924 0.42000
C 	C 	0.10840 0.10590 0.60318 0.40800
C 	C 	0.11410 0.20390 0.63833 -0.22400
H 	H 	0.10320 0.27750 0.62580 0.11200
C 	C 	0.13420 0.18700 0.68682 -0.03300
H 	H 	0.14820 0.11170 0.69660 0.04400
C 	C 	0.13830 0.26810 0.72819 0.12200
C 	C 	0.15820 0.22490 0.77638 -0.25200
H 	H 	0.16620 0.14670 0.78110 0.11800
C 	C 	0.16660 0.29500 0.81764 0.25700
C 	C 	0.15240 0.41090 0.81097 -0.26200
H 	H 	0.15780 0.45890 0.83830 0.12300
C 	C 	0.13000 0.45450 0.76311 0.13300
H 	H 	0.11920 0.53250 0.75860 -0.02300
C 	C 	0.12320 0.38540 0.72139 -0.21500
H 	H 	0.10890 0.41670 0.68950 0.09900
C 	C 	0.20720 0.30660 0.90733 -0.19500
H 	H 	0.25430 0.37200 0.90340 0.09700
H 	H 	0.25000 0.26160 0.93480 0.10100
C 	C 	0.09470 0.34840 0.92079 0.40700
C 	C 	0.28860 0.73690 0.70459 0.07800
H 	H 	0.33350 0.70140 0.68510 0.01100
C 	C 	0.31000 0.71120 0.75497 -0.12600
H 	H 	0.36870 0.66060 0.76850 0.07700
C 	C 	0.24410 0.76060 0.78528 0.04600
C 	C 	0.16130 0.83820 0.76240 -0.12800
H 	H 	0.11600 0.87580 0.78110 0.06400
C 	C 	0.14600 0.86000 0.71211 0.07100
H 	H 	0.08980 0.91260 0.69790 -0.00300
C 	C 	0.25850 0.72970 0.83885 0.07100
C 	C 	0.33930 0.65310 0.86250 -0.15700
H 	H 	0.38970 0.61970 0.84500 0.09000
C 	C 	0.34700 0.62510 0.91174 0.09500
H 	H 	0.40400 0.57360 0.92630 -0.04100
C 	C 	0.19950 0.73880 0.91693 0.09100
H 	H 	0.14960 0.76990 0.93520 -0.00700
C 	C 	0.18630 0.77080 0.86788 -0.15100
H 	H 	0.12760 0.82120 0.85400 0.07200
Co	Co	0.16901 0.85131 0.60302 1.16900
Co	Co	0.30502 0.63502 0.01834 1.09900
O 	O 	0.13300 0.61810 0.02483 -0.58400
O 	O 	0.34100 0.61010 0.09704 -0.56300
O 	O 	0.53290 0.61640 0.11908 -0.32100
O 	O 	0.79510 0.32020 0.40790 -0.39800
O 	O 	0.70750 0.31090 0.47295 -0.44600
O 	O 	0.13980 0.48740 0.12289 -0.47500
O 	O 	0.07020 0.37740 0.05690 -0.44800
O 	O 	0.10830 0.08550 0.45733 -0.46900
O 	O 	0.00260 0.19110 0.39602 -0.44900
O 	O 	0.71190 0.53940 0.38915 -0.18600
O 	O 	0.18950 0.25990 0.36290 -0.18900
N 	N 	0.20720 0.69030 0.18249 -0.21500
N 	N 	0.27900 0.83370 0.43971 -0.26000
C 	C 	0.43730 0.59400 0.12836 0.39900
C 	C 	0.42990 0.54580 0.17738 -0.23600
H 	H 	0.36500 0.50360 0.17990 0.11300
C 	C 	0.51290 0.56080 0.21775 -0.01700
H 	H 	0.57790 0.60090 0.21360 0.05000
C 	C 	0.51280 0.52040 0.26855 0.12500
C 	C 	0.60490 0.55020 0.30727 -0.24100
H 	H 	0.66160 0.59930 0.30090 0.12600
C 	C 	0.61350 0.50840 0.35492 0.24700
C 	C 	0.52790 0.43800 0.36576 -0.24000
H 	H 	0.53210 0.41150 0.39800 0.11900
C 	C 	0.43590 0.40840 0.32718 0.12600
H 	H 	0.37830 0.36090 0.33390 -0.00000
C 	C 	0.42810 0.44770 0.27927 -0.19100
H 	H 	0.36620 0.42580 0.25400 0.09600
C 	C 	0.72630 0.49060 0.43791 -0.20400
H 	H 	0.79230 0.52610 0.45970 0.12000
H 	H 	0.65840 0.50780 0.45100 0.10100
C 	C 	0.74430 0.36330 0.43924 0.39700
C 	C 	0.10840 0.39410 0.10318 0.41100
C 	C 	0.11410 0.29610 0.13833 -0.22900
H 	H 	0.10320 0.22250 0.12580 0.11200
C 	C 	0.13420 0.31300 0.18682 -0.02200
H 	H 	0.14820 0.38830 0.19660 0.04400
C 	C 	0.13830 0.23190 0.22819 0.10400
C 	C 	0.15820 0.27510 0.27638 -0.23500
H 	H 	0.16620 0.35330 0.28110 0.11300
C 	C 	0.16660 0.20500 0.31764 0.23900
C 	C 	0.15240 0.08910 0.31097 -0.22900
H 	H 	0.15780 0.04110 0.33830 0.10700
C 	C 	0.13000 0.04550 0.26311 0.07800
H 	H 	0.11920 0.96750 0.25860 0.00600
C 	C 	0.12320 0.11460 0.22139 -0.18200
H 	H 	0.10890 0.08330 0.18950 0.08400
C 	C 	0.20720 0.19340 0.40733 -0.19500
H 	H 	0.25430 0.12800 0.40340 0.09400
H 	H 	0.25000 0.23840 0.43480 0.09600
C 	C 	0.09470 0.15160 0.42079 0.40800
C 	C 	0.28860 0.76310 0.20459 0.07900
H 	H 	0.33350 0.79860 0.18510 0.01300
C 	C 	0.31000 0.78880 0.25497 -0.12600
H 	H 	0.36870 0.83940 0.26850 0.08000
C 	C 	0.24410 0.73940 0.28528 0.04600
C 	C 	0.16130 0.66180 0.26240 -0.12900
H 	H 	0.11600 0.62420 0.28110 0.06200
C 	C 	0.14600 0.64000 0.21211 0.07000
H 	H 	0.08980 0.58740 0.19790 -0.00600
C 	C 	0.25850 0.77030 0.33885 0.07100
C 	C 	0.33930 0.84690 0.36250 -0.15700
H 	H 	0.38970 0.88030 0.34500 0.09300
C 	C 	0.34700 0.87490 0.41174 0.09600
H 	H 	0.40400 0.92640 0.42630 -0.04100
C 	C 	0.19950 0.76120 0.41693 0.09100
H 	H 	0.14960 0.73010 0.43520 -0.01400
C 	C 	0.18630 0.72920 0.36788 -0.15300
H 	H 	0.12760 0.67880 0.35400 0.07000
Co	Co	0.16901 0.64869 0.10302 1.16600
Co	Co	0.69498 0.13502 0.48166 1.10400
O 	O 	0.86700 0.11810 0.47517 -0.53700
O 	O 	0.65900 0.11010 0.40296 -0.56600
O 	O 	0.46710 0.11640 0.38092 -0.32400
O 	O 	0.20490 0.82020 0.09210 -0.41500
O 	O 	0.29250 0.81090 0.02705 -0.44900
O 	O 	0.86020 0.98740 0.37711 -0.43900
O 	O 	0.92980 0.87740 0.44310 -0.38500
O 	O 	0.89170 0.58550 0.04267 -0.43100
O 	O 	0.99740 0.69110 0.10398 -0.36500
O 	O 	0.28810 0.03940 0.11085 -0.21200
O 	O 	0.81050 0.75990 0.13710 -0.18600
N 	N 	0.79280 0.19030 0.31751 -0.20600
N 	N 	0.72100 0.33370 0.06029 -0.26500
C 	C 	0.56270 0.09400 0.37164 0.40200
C 	C 	0.57010 0.04580 0.32262 -0.25000
H 	H 	0.63500 0.00360 0.32010 0.11100
C 	C 	0.48710 0.06080 0.28225 0.00200
H 	H 	0.42210 0.10090 0.28640 0.04400
C 	C 	0.48720 0.02040 0.23145 0.08100
C 	C 	0.39510 0.05020 0.19273 -0.21400
H 	H 	0.33840 0.09930 0.19910 0.11600
C 	C 	0.38650 0.00840 0.14508 0.21400
C 	C 	0.47210 0.93800 0.13424 -0.19300
H 	H 	0.46790 0.91150 0.10200 0.10500
C 	C 	0.56410 0.90840 0.17282 0.08500
H 	H 	0.62170 0.86090 0.16610 0.01500
C 	C 	0.57190 0.94770 0.22073 -0.13600
H 	H 	0.63380 0.92580 0.24600 0.08100
C 	C 	0.27370 0.99060 0.06209 -0.11300
H 	H 	0.20770 0.02610 0.04030 0.06200
H 	H 	0.34160 0.00780 0.04900 0.05900
C 	C 	0.25570 0.86330 0.06076 0.36800
C 	C 	0.89160 0.89410 0.39682 0.41100
C 	C 	0.88590 0.79610 0.36167 -0.19500
H 	H 	0.89680 0.72250 0.37420 0.12600
C 	C 	0.86580 0.81300 0.31318 -0.02900
H 	H 	0.85180 0.88830 0.30340 0.06100
C 	C 	0.86170 0.73190 0.27181 0.15000
C 	C 	0.84180 0.77510 0.22362 -0.25100
H 	H 	0.83380 0.85330 0.21890 0.13500
C 	C 	0.83340 0.70500 0.18236 0.27500
C 	C 	0.84760 0.58910 0.18903 -0.25600
H 	H 	0.84220 0.54110 0.16170 0.13700
C 	C 	0.87000 0.54550 0.23689 0.15800
H 	H 	0.88080 0.46750 0.24140 -0.00500
C 	C 	0.87680 0.61460 0.27861 -0.21000
H 	H 	0.89110 0.58330 0.31050 0.12200
C 	C 	0.79280 0.69340 0.09267 -0.17900
H 	H 	0.74570 0.62800 0.09660 0.09100
H 	H 	0.75000 0.73840 0.06520 0.09400
C 	C 	0.90530 0.65160 0.07921 0.40000
C 	C 	0.71140 0.26310 0.29541 0.08400
H 	H 	0.66650 0.29860 0.31490 0.01100
C 	C 	0.69000 0.28880 0.24503 -0.12600
H 	H 	0.63130 0.33940 0.23150 0.07700
C 	C 	0.75590 0.23940 0.21472 0.05100
C 	C 	0.83870 0.16180 0.23760 -0.12200
H 	H 	0.88400 0.12420 0.21890 0.08600
C 	C 	0.85400 0.14000 0.28789 0.08100
H 	H 	0.91020 0.08740 0.30210 0.02300
C 	C 	0.74150 0.27030 0.16115 0.07800
C 	C 	0.66070 0.34690 0.13750 -0.16200
H 	H 	0.61030 0.38030 0.15500 0.09000
C 	C 	0.65300 0.37490 0.08826 0.09800
H 	H 	0.59600 0.42640 0.07370 -0.05000
C 	C 	0.80050 0.26120 0.08307 0.10000
H 	H 	0.85040 0.23010 0.06480 0.00300
C 	C 	0.81370 0.22920 0.13212 -0.15100
H 	H 	0.87240 0.17880 0.14600 0.09700
Co	Co	0.83099 0.14869 0.39698 1.18500
Co	Co	-0.00000 0.50000 -0.00000 1.14200
Co	Co	0.00000 0.00000 0.50000 1.14600
