data_crystal

_cell_length_a 7.13950
_cell_length_b 14.67800
_cell_length_c 15.01400
_cell_angle_alpha 90.00000
_cell_angle_beta  90.00000
_cell_angle_gamma 90.00000

_symmetry_space_group_name_	'P 1'
_symmetry_space_group_name_H-M	'P 1'

loop_
_symmetry_equiv_pos_as_xyz
  x,y,z

loop_
_atom_site_label
_atom_site_type_symbol
_atom_site_fract_x
_atom_site_fract_y
_atom_site_fract_z
_atom_site_charge
Ba	Ba	0.92802 0.19409 0.43891 1.83400
O 	O 	0.79430 0.26080 0.60272 -0.57500
O 	O 	0.05340 0.33141 0.55707 -0.59200
O 	O 	0.84440 0.61570 0.94260 -0.53200
O 	O 	0.68340 0.67530 0.83000 -0.49800
C 	C 	0.91720 0.32280 0.60950 0.39400
C 	C 	0.78010 0.61400 0.86520 0.41000
C 	C 	0.89830 0.48310 0.65620 -0.00500
H 	H 	0.92630 0.49820 0.59750 -0.00600
C 	C 	0.89580 0.39420 0.68080 -0.19600
C 	C 	0.85670 0.37010 0.77170 0.03500
C 	C 	0.85420 0.27770 0.80200 -0.11700
H 	H 	0.86790 0.23060 0.76110 0.05100
C 	C 	0.83210 0.25800 0.88910 -0.01300
H 	H 	0.83040 0.19750 0.90750 0.01100
C 	C 	0.81180 0.32710 0.95190 -0.06600
H 	H 	0.79910 0.31230 0.01190 0.03400
C 	C 	0.81030 0.41590 0.92640 -0.07200
H 	H 	0.79450 0.46110 0.96920 0.03200
C 	C 	0.83240 0.44080 0.83560 0.00600
C 	C 	0.82670 0.53420 0.80510 -0.13100
C 	C 	0.85930 0.55240 0.71750 -0.04700
H 	H 	0.85570 0.61250 0.69790 0.03400
Ba	Ba	0.57198 0.80591 0.93891 1.84300
O 	O 	0.70570 0.73920 0.10272 -0.57300
O 	O 	0.44660 0.66859 0.05707 -0.59400
O 	O 	0.65560 0.38430 0.44260 -0.53300
O 	O 	0.81660 0.32470 0.33000 -0.49800
C 	C 	0.58280 0.67720 0.10950 0.39700
C 	C 	0.71990 0.38600 0.36520 0.41100
C 	C 	0.60170 0.51690 0.15620 -0.00500
H 	H 	0.57370 0.50180 0.09750 -0.00500
C 	C 	0.60420 0.60580 0.18080 -0.19600
C 	C 	0.64330 0.62990 0.27170 0.03400
C 	C 	0.64580 0.72230 0.30200 -0.11500
H 	H 	0.63210 0.76940 0.26110 0.05200
C 	C 	0.66790 0.74200 0.38910 -0.01500
H 	H 	0.66960 0.80250 0.40750 0.01200
C 	C 	0.68820 0.67290 0.45190 -0.06200
H 	H 	0.70090 0.68770 0.51190 0.03200
C 	C 	0.68970 0.58410 0.42640 -0.07400
H 	H 	0.70550 0.53890 0.46920 0.03200
C 	C 	0.66760 0.55920 0.33560 0.00700
C 	C 	0.67330 0.46580 0.30510 -0.13200
C 	C 	0.64070 0.44760 0.21750 -0.04600
H 	H 	0.64430 0.38750 0.19790 0.03400
Ba	Ba	0.07198 0.69409 0.06109 1.84100
O 	O 	0.20570 0.76080 0.89728 -0.57500
O 	O 	0.94660 0.83141 0.94293 -0.59200
O 	O 	0.15560 0.11570 0.55740 -0.53000
O 	O 	0.31660 0.17530 0.67000 -0.49900
C 	C 	0.08280 0.82280 0.89050 0.39400
C 	C 	0.21990 0.11400 0.63480 0.41000
C 	C 	0.10170 0.98310 0.84380 -0.01100
H 	H 	0.07370 0.99820 0.90250 -0.00500
C 	C 	0.10420 0.89420 0.81920 -0.19400
C 	C 	0.14330 0.87010 0.72830 0.03300
C 	C 	0.14580 0.77770 0.69800 -0.11600
H 	H 	0.13210 0.73060 0.73890 0.05100
C 	C 	0.16790 0.75800 0.61090 -0.01500
H 	H 	0.16960 0.69750 0.59250 0.01200
C 	C 	0.18820 0.82710 0.54810 -0.06300
H 	H 	0.20090 0.81230 0.48810 0.03200
C 	C 	0.18970 0.91590 0.57360 -0.07300
H 	H 	0.20550 0.96110 0.53080 0.03200
C 	C 	0.16760 0.94080 0.66440 0.00600
C 	C 	0.17330 0.03420 0.69490 -0.13100
C 	C 	0.14070 0.05240 0.78250 -0.04100
H 	H 	0.14430 0.11250 0.80210 0.03300
Ba	Ba	0.42802 0.30591 0.56109 1.84500
O 	O 	0.29430 0.23920 0.39728 -0.57400
O 	O 	0.55340 0.16859 0.44293 -0.59500
O 	O 	0.34440 0.88430 0.05740 -0.53100
O 	O 	0.18340 0.82470 0.17000 -0.49900
C 	C 	0.41720 0.17720 0.39050 0.39700
C 	C 	0.28010 0.88600 0.13480 0.41000
C 	C 	0.39830 0.01690 0.34380 -0.00600
H 	H 	0.42630 0.00180 0.40250 -0.00600
C 	C 	0.39580 0.10580 0.31920 -0.19600
C 	C 	0.35670 0.12990 0.22830 0.03500
C 	C 	0.35420 0.22230 0.19800 -0.11700
H 	H 	0.36790 0.26940 0.23890 0.05200
C 	C 	0.33210 0.24200 0.11090 -0.01300
H 	H 	0.33040 0.30250 0.09250 0.01100
C 	C 	0.31180 0.17290 0.04810 -0.06500
H 	H 	0.29910 0.18770 0.98810 0.03400
C 	C 	0.31030 0.08410 0.07360 -0.07200
H 	H 	0.29450 0.03890 0.03080 0.03200
C 	C 	0.33240 0.05920 0.16440 0.00600
C 	C 	0.32670 0.96580 0.19490 -0.13100
C 	C 	0.35930 0.94760 0.28250 -0.04600
H 	H 	0.35570 0.88750 0.30210 0.03300
