data_crystal

_cell_length_a 6.90100
_cell_length_b 14.70000
_cell_length_c 15.01200
_cell_angle_alpha 90.00000
_cell_angle_beta  90.00000
_cell_angle_gamma 90.00000

_symmetry_space_group_name_	'P 1'
_symmetry_space_group_name_H-M	'P 1'

loop_
_symmetry_equiv_pos_as_xyz
  x,y,z

loop_
_atom_site_label
_atom_site_type_symbol
_atom_site_fract_x
_atom_site_fract_y
_atom_site_fract_z
_atom_site_charge
Sr	Sr	0.85560 0.19228 0.54638 1.51500
O 	O 	0.99500 0.34777 0.47821 -0.53800
O 	O 	0.71910 0.29960 0.41966 -0.55000
O 	O 	0.01490 0.60210 0.07900 -0.46700
O 	O 	0.81390 0.70030 0.14550 -0.48000
C 	C 	0.85870 0.35430 0.42340 0.38100
C 	C 	0.90920 0.62720 0.14180 0.38700
C 	C 	0.86370 0.42970 0.35480 -0.16900
C 	C 	0.86070 0.40580 0.26710 -0.00800
H 	H 	0.84290 0.34510 0.25160 0.01900
C 	C 	0.88410 0.47110 0.19970 -0.03400
H 	H 	0.89390 0.45240 0.14070 0.03900
C 	C 	0.89280 0.56090 0.21940 -0.10600
C 	C 	0.88400 0.58960 0.31150 0.02100
C 	C 	0.87800 0.52230 0.37780 0.05000
C 	C 	0.87940 0.55100 0.46910 -0.11500
H 	H 	0.87600 0.50760 0.51410 0.06700
C 	C 	0.88570 0.64070 0.49100 -0.01000
H 	H 	0.88860 0.65780 0.55060 0.02400
C 	C 	0.88780 0.70700 0.42510 -0.04900
H 	H 	0.89050 0.76810 0.44120 0.03800
C 	C 	0.88600 0.68400 0.33760 -0.07200
H 	H 	0.88620 0.72920 0.29430 0.05400
Sr	Sr	0.64440 0.80772 0.04638 1.51500
O 	O 	0.50500 0.65223 0.97821 -0.53700
O 	O 	0.78090 0.70040 0.91966 -0.54700
O 	O 	0.48510 0.39790 0.57900 -0.47000
O 	O 	0.68610 0.29970 0.64550 -0.47900
C 	C 	0.64130 0.64570 0.92340 0.38000
C 	C 	0.59080 0.37280 0.64180 0.39100
C 	C 	0.63630 0.57030 0.85480 -0.16800
C 	C 	0.63930 0.59420 0.76710 -0.00900
H 	H 	0.65710 0.65490 0.75160 0.02000
C 	C 	0.61590 0.52890 0.69970 -0.03200
H 	H 	0.60610 0.54760 0.64070 0.04000
C 	C 	0.60720 0.43910 0.71940 -0.10700
C 	C 	0.61600 0.41040 0.81150 0.02200
C 	C 	0.62200 0.47770 0.87780 0.04800
C 	C 	0.62060 0.44900 0.96910 -0.11100
H 	H 	0.62400 0.49240 0.01410 0.06400
C 	C 	0.61430 0.35930 0.99100 -0.00800
H 	H 	0.61140 0.34220 0.05060 0.02100
C 	C 	0.61220 0.29300 0.92510 -0.05000
H 	H 	0.60950 0.23190 0.94120 0.03900
C 	C 	0.61400 0.31600 0.83760 -0.07200
H 	H 	0.61380 0.27080 0.79430 0.05500
Sr	Sr	0.14440 0.69228 0.95362 1.51500
O 	O 	0.00500 0.84777 0.02179 -0.53700
O 	O 	0.28090 0.79960 0.08034 -0.55000
O 	O 	0.98510 0.10210 0.42100 -0.46900
O 	O 	0.18610 0.20030 0.35450 -0.48000
C 	C 	0.14130 0.85430 0.07660 0.38100
C 	C 	0.09080 0.12720 0.35820 0.39000
C 	C 	0.13630 0.92970 0.14520 -0.17000
C 	C 	0.13930 0.90580 0.23290 -0.00700
H 	H 	0.15710 0.84510 0.24840 0.02000
C 	C 	0.11590 0.97110 0.30030 -0.03400
H 	H 	0.10610 0.95240 0.35930 0.04100
C 	C 	0.10720 0.06090 0.28060 -0.10600
C 	C 	0.11600 0.08960 0.18850 0.02000
C 	C 	0.12200 0.02230 0.12220 0.05000
C 	C 	0.12060 0.05100 0.03090 -0.11200
H 	H 	0.12400 0.00760 0.98590 0.06300
C 	C 	0.11430 0.14070 0.00900 -0.00400
H 	H 	0.11140 0.15780 0.94940 0.01900
C 	C 	0.11220 0.20700 0.07490 -0.05300
H 	H 	0.10950 0.26810 0.05880 0.04000
C 	C 	0.11400 0.18400 0.16240 -0.07000
H 	H 	0.11380 0.22920 0.20570 0.05400
Sr	Sr	0.35560 0.30772 0.45362 1.51500
O 	O 	0.49500 0.15223 0.52179 -0.53800
O 	O 	0.21910 0.20040 0.58034 -0.55000
O 	O 	0.51490 0.89790 0.92100 -0.46800
O 	O 	0.31390 0.79970 0.85450 -0.48000
C 	C 	0.35870 0.14570 0.57660 0.38100
C 	C 	0.40920 0.87280 0.85820 0.39000
C 	C 	0.36370 0.07030 0.64520 -0.17100
C 	C 	0.36070 0.09420 0.73290 -0.00700
H 	H 	0.34290 0.15490 0.74840 0.01900
C 	C 	0.38410 0.02890 0.80030 -0.03600
H 	H 	0.39390 0.04760 0.85930 0.04100
C 	C 	0.39280 0.93910 0.78060 -0.10500
C 	C 	0.38400 0.91040 0.68850 0.02000
C 	C 	0.37800 0.97770 0.62220 0.05100
C 	C 	0.37940 0.94900 0.53090 -0.11600
H 	H 	0.37600 0.99240 0.48590 0.06700
C 	C 	0.38570 0.85930 0.50900 -0.01000
H 	H 	0.38860 0.84220 0.44940 0.02300
C 	C 	0.38780 0.79300 0.57490 -0.05000
H 	H 	0.39050 0.73190 0.55880 0.03800
C 	C 	0.38600 0.81600 0.66240 -0.07100
H 	H 	0.38620 0.77080 0.70570 0.05400
