data_crystal

_cell_length_a 8.19840
_cell_length_b 24.09400
_cell_length_c 11.30700
_cell_angle_alpha 90.00000
_cell_angle_beta  90.00000
_cell_angle_gamma 90.00000

_symmetry_space_group_name_	'P 1'
_symmetry_space_group_name_H-M	'P 1'

loop_
_symmetry_equiv_pos_as_xyz
  x,y,z

loop_
_atom_site_label
_atom_site_type_symbol
_atom_site_fract_x
_atom_site_fract_y
_atom_site_fract_z
_atom_site_charge
Ni	Ni	0.90934 0.81500 0.47060 1.08700
Ni	Ni	0.09066 0.18500 0.47060 1.09100
Ni	Ni	0.40934 0.68500 0.52940 1.08900
Ni	Ni	0.59066 0.31500 0.52940 1.08900
H 	H 	0.40030 0.81880 0.74290 -0.01100
H 	H 	0.37640 0.89490 0.86460 0.19500
H 	H 	0.65700 0.98210 0.64000 0.14900
H 	H 	0.71230 0.77000 0.26220 0.01400
H 	H 	0.70780 0.76840 0.06100 0.08500
H 	H 	0.09070 0.87140 0.06110 0.12500
H 	H 	0.08460 0.86980 0.26320 0.01400
H 	H 	0.82090 0.73900 0.88180 0.09500
H 	H 	0.83180 0.73790 0.67940 -0.00800
H 	H 	0.00950 0.88790 0.67340 0.02700
H 	H 	0.00130 0.89310 0.87460 0.16900
H 	H 	0.59970 0.18120 0.74290 -0.01500
H 	H 	0.62360 0.10510 0.86460 0.19900
H 	H 	0.34300 0.01790 0.64000 0.16600
H 	H 	0.28770 0.23000 0.26220 0.01000
H 	H 	0.29220 0.23160 0.06100 0.09200
H 	H 	0.90930 0.12860 0.06110 0.13600
H 	H 	0.91540 0.13020 0.26320 0.01400
H 	H 	0.17910 0.26100 0.88180 0.09100
H 	H 	0.16820 0.26210 0.67940 -0.00300
H 	H 	0.99050 0.11210 0.67340 0.01000
H 	H 	0.99870 0.10690 0.87460 0.14600
H 	H 	0.90030 0.68120 0.25710 -0.01400
H 	H 	0.87640 0.60510 0.13540 0.20200
H 	H 	0.15700 0.51790 0.36000 0.16300
H 	H 	0.21230 0.73000 0.73780 0.01400
H 	H 	0.20780 0.73160 0.93900 0.09000
H 	H 	0.59070 0.62860 0.93890 0.13000
H 	H 	0.58460 0.63020 0.73680 0.01300
H 	H 	0.32090 0.76100 0.11820 0.09400
H 	H 	0.33180 0.76210 0.32060 -0.00500
H 	H 	0.50950 0.61210 0.32660 0.01900
H 	H 	0.50130 0.60690 0.12540 0.15900
H 	H 	0.09970 0.31880 0.25710 -0.01400
H 	H 	0.12360 0.39490 0.13540 0.19500
H 	H 	0.84300 0.48210 0.36000 0.15500
H 	H 	0.78770 0.27000 0.73780 0.01000
H 	H 	0.79220 0.26840 0.93900 0.08600
H 	H 	0.40930 0.37140 0.93890 0.13100
H 	H 	0.41540 0.36980 0.73680 0.01500
H 	H 	0.67910 0.23900 0.11820 0.09200
H 	H 	0.66820 0.23790 0.32060 -0.00600
H 	H 	0.49050 0.38790 0.32660 0.02000
H 	H 	0.49870 0.39310 0.12540 0.15900
C 	C 	0.61870 0.90300 0.58720 0.07900
C 	C 	0.54000 0.85384 0.61720 -0.18000
C 	C 	0.45120 0.85178 0.72170 0.16300
C 	C 	0.43620 0.89729 0.79490 -0.26000
C 	C 	0.51220 0.94724 0.76320 0.32000
C 	C 	0.60420 0.94932 0.66040 -0.22500
C 	C 	0.71030 0.91100 0.47120 0.25100
C 	C 	0.54790 0.80254 0.54060 0.39300
C 	C 	0.65580 0.00010 0.91930 0.98500
C 	C 	0.79030 0.79042 0.22110 0.09700
C 	C 	0.78700 0.78903 0.10010 -0.11900
C 	C 	0.90270 0.81871 0.03560 0.06400
C 	C 	0.01320 0.84990 0.09990 -0.11300
C 	C 	0.00820 0.84890 0.22180 0.10900
C 	C 	0.90740 0.81691 0.90410 0.09600
C 	C 	0.85850 0.77011 0.84140 -0.15800
C 	C 	0.86540 0.76965 0.71920 0.10400
C 	C 	0.96960 0.85780 0.71590 0.09100
C 	C 	0.96520 0.86104 0.83700 -0.16100
C 	C 	0.38130 0.09700 0.58720 0.09000
C 	C 	0.46000 0.14616 0.61720 -0.18700
C 	C 	0.54880 0.14822 0.72170 0.17200
C 	C 	0.56380 0.10271 0.79490 -0.27200
C 	C 	0.48780 0.05276 0.76320 0.34100
C 	C 	0.39580 0.05068 0.66040 -0.23400
C 	C 	0.28970 0.08900 0.47120 0.24700
C 	C 	0.45210 0.19746 0.54060 0.39600
C 	C 	0.34420 0.99990 0.91930 0.95100
C 	C 	0.20970 0.20958 0.22110 0.11200
C 	C 	0.21300 0.21097 0.10010 -0.13800
C 	C 	0.09730 0.18129 0.03560 0.10500
C 	C 	0.98680 0.15010 0.09990 -0.15000
C 	C 	0.99180 0.15110 0.22180 0.10300
C 	C 	0.09260 0.18309 0.90410 0.07500
C 	C 	0.14150 0.22989 0.84140 -0.14200
C 	C 	0.13460 0.23035 0.71920 0.09900
C 	C 	0.03040 0.14220 0.71590 0.10900
C 	C 	0.03480 0.13896 0.83700 -0.12300
C 	C 	0.11870 0.59700 0.41280 0.08900
C 	C 	0.04000 0.64616 0.38280 -0.17800
C 	C 	0.95120 0.64822 0.27830 0.16300
C 	C 	0.93620 0.60271 0.20510 -0.28500
C 	C 	0.01220 0.55276 0.23680 0.35400
C 	C 	0.10420 0.55068 0.33960 -0.23800
C 	C 	0.21030 0.58900 0.52880 0.24800
C 	C 	0.04790 0.69746 0.45940 0.40500
C 	C 	0.15580 0.49990 0.08070 0.97500
C 	C 	0.29030 0.70958 0.77890 0.10400
C 	C 	0.28700 0.71097 0.89990 -0.12800
C 	C 	0.40270 0.68129 0.96440 0.08300
C 	C 	0.51320 0.65010 0.90010 -0.13000
C 	C 	0.50820 0.65110 0.77820 0.10600
C 	C 	0.40740 0.68309 0.09590 0.08700
C 	C 	0.35850 0.72989 0.15860 -0.15000
C 	C 	0.36540 0.73035 0.28080 0.10200
C 	C 	0.46960 0.64220 0.28410 0.10000
C 	C 	0.46520 0.63896 0.16300 -0.14300
C 	C 	0.88130 0.40300 0.41280 0.08300
C 	C 	0.96000 0.35384 0.38280 -0.19200
C 	C 	0.04880 0.35178 0.27830 0.17700
C 	C 	0.06380 0.39729 0.20510 -0.25100
C 	C 	0.98780 0.44724 0.23680 0.31500
C 	C 	0.89580 0.44932 0.33960 -0.22600
C 	C 	0.78970 0.41100 0.52880 0.25000
C 	C 	0.95210 0.30254 0.45940 0.38300
C 	C 	0.84420 0.50010 0.08070 0.96700
C 	C 	0.70970 0.29042 0.77890 0.10400
C 	C 	0.71300 0.28903 0.89990 -0.12900
C 	C 	0.59730 0.31871 0.96440 0.08300
C 	C 	0.48680 0.34990 0.90010 -0.13000
C 	C 	0.49180 0.34890 0.77820 0.10600
C 	C 	0.59260 0.31691 0.09590 0.08500
C 	C 	0.64150 0.27011 0.15860 -0.15100
C 	C 	0.63460 0.26965 0.28080 0.10100
C 	C 	0.53040 0.35780 0.28410 0.09900
C 	C 	0.53480 0.36104 0.16300 -0.14300
C 	C 	0.50000 -0.00000 0.84140 -0.46300
C 	C 	-0.00000 0.50000 0.15860 -0.47100
N 	N 	0.89920 0.81938 0.28360 -0.22500
N 	N 	0.91830 0.81271 0.65620 -0.23800
N 	N 	0.10080 0.18062 0.28360 -0.21800
N 	N 	0.08170 0.18729 0.65620 -0.23700
N 	N 	0.39920 0.68062 0.71640 -0.22200
N 	N 	0.41830 0.68729 0.34380 -0.23800
N 	N 	0.60080 0.31938 0.71640 -0.22200
N 	N 	0.58170 0.31271 0.34380 -0.23700
O 	O 	0.63310 0.93072 0.38810 -0.17200
O 	O 	0.86210 0.89922 0.47090 -0.35000
O 	O 	0.66460 0.79484 0.47150 -0.42100
O 	O 	0.42970 0.76938 0.55180 -0.41700
O 	O 	0.36690 0.06928 0.38810 -0.16100
O 	O 	0.13790 0.10078 0.47090 -0.33800
O 	O 	0.33540 0.20516 0.47150 -0.42200
O 	O 	0.57030 0.23062 0.55180 -0.41900
O 	O 	0.13310 0.56928 0.61190 -0.16300
O 	O 	0.36210 0.60078 0.52910 -0.34400
O 	O 	0.16460 0.70516 0.52850 -0.42200
O 	O 	0.92970 0.73062 0.44820 -0.42700
O 	O 	0.86690 0.43072 0.61190 -0.17000
O 	O 	0.63790 0.39922 0.52910 -0.34500
O 	O 	0.83540 0.29484 0.52850 -0.42000
O 	O 	0.07030 0.26938 0.44820 -0.40800
F 	F 	0.67550 0.95036 0.97190 -0.47700
F 	F 	0.78850 0.01029 0.85690 -0.50800
F 	F 	0.64960 0.03729 0.00700 -0.47000
F 	F 	0.32450 0.04964 0.97190 -0.45400
F 	F 	0.21150 0.98971 0.85690 -0.51000
F 	F 	0.35040 0.96271 0.00700 -0.47000
F 	F 	0.17550 0.54964 0.02810 -0.46400
F 	F 	0.28850 0.48971 0.14310 -0.50900
F 	F 	0.14960 0.46271 0.99300 -0.46800
F 	F 	0.82450 0.45036 0.02810 -0.46800
F 	F 	0.71150 0.51029 0.14310 -0.50900
F 	F 	0.85040 0.53729 0.99300 -0.47200
