data_crystal

_cell_length_a 12.18000
_cell_length_b 14.21070
_cell_length_c 14.28340
_cell_angle_alpha 105.09300
_cell_angle_beta  90.00000
_cell_angle_gamma 90.00000

_symmetry_space_group_name_	'P 1'
_symmetry_space_group_name_H-M	'P 1'

loop_
_symmetry_equiv_pos_as_xyz
  x,y,z

loop_
_atom_site_label
_atom_site_type_symbol
_atom_site_fract_x
_atom_site_fract_y
_atom_site_fract_z
_atom_site_charge
Zn	Zn	0.51550 0.84589 0.15791 1.22200
Zn	Zn	0.01550 0.65411 0.34209 1.22200
Zn	Zn	0.75810 0.43801 0.79909 1.22500
Zn	Zn	0.74190 0.93801 0.29909 1.22500
Zn	Zn	0.25810 0.06199 0.70091 1.22500
Zn	Zn	0.24190 0.56199 0.20091 1.22500
Zn	Zn	0.98450 0.34589 0.65791 1.22200
Zn	Zn	0.48450 0.15411 0.84209 1.22200
H 	H 	0.94840 0.74470 0.10740 0.02200
H 	H 	0.54580 0.86580 0.50340 0.08100
H 	H 	0.67390 0.61980 0.97820 -0.00800
H 	H 	0.82610 0.11980 0.47820 -0.00700
H 	H 	0.18700 0.82700 0.86740 0.02600
H 	H 	0.44840 0.75530 0.39260 0.02400
H 	H 	0.31590 0.22060 0.46660 0.07100
H 	H 	0.93640 0.53480 0.47880 0.00500
H 	H 	0.05160 0.25530 0.89260 0.02200
H 	H 	0.68410 0.77940 0.53340 0.07100
H 	H 	0.55160 0.24470 0.60740 0.02400
H 	H 	0.18410 0.72060 0.96660 0.06900
H 	H 	0.81590 0.27940 0.03340 0.06900
H 	H 	0.81300 0.17300 0.13260 0.02600
H 	H 	0.04580 0.63420 0.99660 0.08500
H 	H 	0.06360 0.46520 0.52120 0.00500
H 	H 	0.31300 0.32700 0.36740 0.02400
H 	H 	0.95420 0.36580 0.00340 0.08500
H 	H 	0.45420 0.13420 0.49660 0.08100
H 	H 	0.43640 0.96520 0.02120 0.00600
H 	H 	0.17390 0.88020 0.52180 -0.00700
H 	H 	0.68700 0.67300 0.63260 0.02400
H 	H 	0.56360 0.03480 0.97880 0.00600
H 	H 	0.32610 0.38020 0.02180 -0.00800
C 	C 	0.46960 0.86690 0.50750 -0.09700
C 	C 	0.58720 0.19830 0.55880 0.07400
C 	C 	0.82350 0.52730 0.63340 0.42900
C 	C 	0.75000 0.12390 0.48100 0.10200
C 	C 	0.03040 0.36690 0.00750 -0.10600
C 	C 	0.07780 0.43410 0.07970 0.01200
C 	C 	0.75000 0.62390 0.98100 0.10300
C 	C 	0.68510 0.09430 0.06990 -0.15800
C 	C 	0.76470 0.22920 0.02350 -0.06800
C 	C 	0.61400 0.08570 0.99130 0.10600
C 	C 	0.42220 0.93410 0.57970 0.01000
C 	C 	0.73530 0.72920 0.52350 -0.07400
C 	C 	0.73830 0.66610 0.58300 0.05800
C 	C 	0.32350 0.97270 0.86660 0.43000
C 	C 	0.17650 0.47270 0.36660 0.42900
C 	C 	0.70100 0.19490 0.55320 -0.15900
C 	C 	0.25000 0.37610 0.01900 0.10300
C 	C 	0.23350 0.73180 0.37570 0.43800
C 	C 	0.31490 0.90570 0.93010 -0.15800
C 	C 	0.23830 0.83390 0.91700 0.05400
C 	C 	0.41280 0.80170 0.44120 0.07400
C 	C 	0.51330 0.99100 0.34310 0.29500
C 	C 	0.26650 0.23180 0.87570 0.43900
C 	C 	0.76650 0.26820 0.62430 0.43800
C 	C 	0.67960 0.27960 0.88310 0.35400
C 	C 	0.26170 0.33390 0.41700 0.05800
C 	C 	0.68990 0.21490 0.94980 -0.03200
C 	C 	0.20100 0.30510 0.94680 -0.16100
C 	C 	0.57780 0.06590 0.42030 0.01000
C 	C 	0.31010 0.78510 0.05020 -0.03200
C 	C 	0.98670 0.49100 0.84310 0.29400
C 	C 	0.81490 0.59430 0.56990 -0.16300
C 	C 	0.17960 0.22040 0.61690 0.35300
C 	C 	0.73350 0.76820 0.12430 0.43900
C 	C 	0.81010 0.71490 0.44980 -0.02800
C 	C 	0.79900 0.69490 0.05320 -0.16100
C 	C 	0.91280 0.69830 0.05880 0.08000
C 	C 	0.29900 0.80510 0.44680 -0.15900
C 	C 	0.88600 0.58570 0.49130 0.11100
C 	C 	0.08720 0.30170 0.94120 0.08000
C 	C 	0.96960 0.63310 0.99250 -0.10600
C 	C 	0.23530 0.77080 0.97650 -0.06800
C 	C 	0.82040 0.77960 0.38310 0.35300
C 	C 	0.48670 0.00900 0.65690 0.29500
C 	C 	0.01330 0.50900 0.15690 0.29400
C 	C 	0.11400 0.41430 0.50870 0.11100
C 	C 	0.53040 0.13310 0.49250 -0.09700
C 	C 	0.18510 0.40570 0.43010 -0.16300
C 	C 	0.32040 0.72040 0.11690 0.35400
C 	C 	0.76170 0.16610 0.08300 0.05400
C 	C 	0.38600 0.91430 0.00870 0.10600
C 	C 	0.18990 0.28510 0.55020 -0.02800
C 	C 	0.26470 0.27080 0.47650 -0.07400
C 	C 	0.92220 0.56590 0.92030 0.01200
C 	C 	0.25000 0.87610 0.51900 0.10200
C 	C 	0.67650 0.02730 0.13340 0.43000
N 	N 	0.68830 0.05870 0.41290 -0.22500
N 	N 	0.18830 0.44130 0.08710 -0.22500
N 	N 	0.88680 0.64310 0.43480 -0.23700
N 	N 	0.38680 0.85690 0.06520 -0.23600
N 	N 	0.11320 0.35690 0.56520 -0.23700
N 	N 	0.61320 0.14310 0.93480 -0.23600
N 	N 	0.31170 0.94130 0.58710 -0.22500
N 	N 	0.81170 0.55870 0.91290 -0.22500
O 	O 	0.25360 0.65650 0.11630 -0.43800
O 	O 	0.60250 0.96380 0.10620 -0.43100
O 	O 	0.09630 0.23690 0.67220 -0.41900
O 	O 	0.26690 0.96510 0.79430 -0.45000
O 	O 	0.27770 0.66470 0.31380 -0.49300
O 	O 	0.22230 0.16470 0.81380 -0.49400
O 	O 	0.89750 0.46380 0.60620 -0.43000
O 	O 	0.74640 0.34350 0.88370 -0.43800
O 	O 	0.73310 0.03490 0.20570 -0.45000
O 	O 	0.41480 0.00200 0.32300 -0.28000
O 	O 	0.40370 0.73690 0.17220 -0.42000
O 	O 	0.39750 0.03620 0.89380 -0.43100
O 	O 	0.07050 0.58170 0.19940 -0.52700
O 	O 	0.76690 0.53490 0.70570 -0.45000
O 	O 	0.12940 0.74560 0.38160 -0.49500
O 	O 	0.58520 0.99800 0.67700 -0.28000
O 	O 	0.90370 0.76310 0.32780 -0.41900
O 	O 	0.42950 0.08170 0.69940 -0.52700
O 	O 	0.91480 0.49800 0.17700 -0.27900
O 	O 	0.72230 0.33530 0.68620 -0.49300
O 	O 	0.77770 0.83530 0.18620 -0.49400
O 	O 	0.92950 0.41830 0.80060 -0.52700
O 	O 	0.62940 0.75440 0.11840 -0.49500
O 	O 	0.08520 0.50200 0.82300 -0.27900
O 	O 	0.37060 0.24560 0.88160 -0.49500
O 	O 	0.10250 0.53620 0.39380 -0.43000
O 	O 	0.57050 0.91830 0.30060 -0.52700
O 	O 	0.59630 0.26310 0.82780 -0.42000
O 	O 	0.75360 0.84350 0.38370 -0.43700
O 	O 	0.87060 0.25440 0.61840 -0.49500
O 	O 	0.24640 0.15650 0.61630 -0.43700
O 	O 	0.23310 0.46510 0.29430 -0.45000
