data_crystal

_cell_length_a 11.56410
_cell_length_b 12.09130
_cell_length_c 16.42020
_cell_angle_alpha 90.00000
_cell_angle_beta  106.26100
_cell_angle_gamma 90.00000

_symmetry_space_group_name_	'P 1'
_symmetry_space_group_name_H-M	'P 1'

loop_
_symmetry_equiv_pos_as_xyz
  x,y,z

loop_
_atom_site_label
_atom_site_type_symbol
_atom_site_fract_x
_atom_site_fract_y
_atom_site_fract_z
_atom_site_charge
Zn	Zn	0.58830 0.49850 0.80630 1.19900
Zn	Zn	0.25230 0.23570 0.40031 1.21900
Zn	Zn	0.75230 0.26430 0.90031 1.21800
Zn	Zn	0.91170 0.99850 0.69370 1.19700
Zn	Zn	0.74770 0.76430 0.59969 1.21800
Zn	Zn	0.41170 0.50150 0.19370 1.19800
Zn	Zn	0.24770 0.73570 0.09969 1.21800
Zn	Zn	0.08830 0.00150 0.30630 1.19700
H 	H 	0.47440 0.62030 0.93720 -0.01200
H 	H 	0.44190 0.09380 0.21930 0.05900
H 	H 	0.54960 0.04110 0.38550 0.07700
H 	H 	0.41930 0.33230 0.57360 -0.00300
H 	H 	0.08070 0.83230 0.92640 -0.00100
H 	H 	0.52390 0.05640 0.10840 0.05000
H 	H 	0.97440 0.87970 0.43720 -0.01200
H 	H 	0.47610 0.94360 0.89160 0.05000
H 	H 	0.94690 0.57600 0.77710 0.02200
H 	H 	0.44690 0.92400 0.27710 0.01900
H 	H 	0.02390 0.44360 0.60840 0.05200
H 	H 	0.05310 0.42400 0.22290 0.02200
H 	H 	0.95040 0.54110 0.11450 0.07400
H 	H 	0.02560 0.12030 0.56280 -0.01200
H 	H 	0.58070 0.66770 0.42640 -0.00300
H 	H 	0.94190 0.40620 0.71930 0.05800
H 	H 	0.04960 0.45890 0.88550 0.07400
H 	H 	0.91930 0.16770 0.07360 -0.00100
H 	H 	0.05810 0.59380 0.28070 0.05800
H 	H 	0.97610 0.55640 0.39160 0.05200
H 	H 	0.55310 0.07600 0.72290 0.01900
H 	H 	0.55810 0.90620 0.78070 0.05900
H 	H 	0.45040 0.95890 0.61450 0.07700
H 	H 	0.52560 0.37970 0.06280 -0.01200
C 	C 	0.54270 0.84920 0.81430 -0.05200
C 	C 	0.41520 0.80400 0.99970 0.33200
C 	C 	0.99400 0.82120 0.40670 0.07200
C 	C 	0.50600 0.32120 0.09330 0.07700
C 	C 	0.99560 0.60480 0.82760 0.04800
C 	C 	0.37700 0.07960 0.53310 -0.00200
C 	C 	0.49400 0.67880 0.90670 0.07700
C 	C 	0.00600 0.17880 0.59330 0.07200
C 	C 	0.00440 0.39520 0.17240 0.04800
C 	C 	0.96830 0.71430 0.42710 -0.10500
C 	C 	0.50710 0.12890 0.12030 0.01500
C 	C 	0.95730 0.34920 0.68570 -0.04800
C 	C 	0.50900 0.78230 0.33890 -0.14900
C 	C 	0.12300 0.57960 0.96690 -0.00600
C 	C 	0.30560 0.00970 0.45990 0.31400
C 	C 	0.92490 0.24360 0.08270 0.09400
C 	C 	0.45730 0.15080 0.18570 -0.05200
C 	C 	0.49290 0.87110 0.87970 0.01500
C 	C 	0.55260 0.29840 0.72920 0.42000
C 	C 	0.57510 0.74360 0.41730 0.09900
C 	C 	0.53170 0.21430 0.07290 -0.10600
C 	C 	0.94740 0.79840 0.77080 0.41400
C 	C 	0.06920 0.75850 0.29990 -0.02700
C 	C 	0.03170 0.28570 0.57290 -0.10500
C 	C 	0.46830 0.78570 0.92710 -0.10600
C 	C 	0.50440 0.10480 0.67240 0.06100
C 	C 	0.49560 0.89520 0.32760 0.06100
C 	C 	0.37860 0.29110 0.27050 0.33200
C 	C 	0.69440 0.99030 0.54010 0.31400
C 	C 	0.44740 0.70160 0.27080 0.42000
C 	C 	0.94500 0.46480 0.10750 -0.07700
C 	C 	0.07510 0.75640 0.91730 0.09400
C 	C 	0.08480 0.30400 0.50030 0.33600
C 	C 	0.55500 0.96480 0.39250 -0.08600
C 	C 	0.49100 0.21770 0.66110 -0.14900
C 	C 	0.00710 0.37110 0.62030 0.01200
C 	C 	0.00900 0.71770 0.83890 -0.13900
C 	C 	0.44500 0.03520 0.60750 -0.08600
C 	C 	0.99290 0.62890 0.37970 0.01200
C 	C 	0.62300 0.92040 0.46690 -0.00200
C 	C 	0.62140 0.70890 0.72950 0.33200
C 	C 	0.43080 0.25850 0.20010 -0.02600
C 	C 	0.80560 0.49030 0.95990 0.31700
C 	C 	0.12140 0.79110 0.22950 0.33300
C 	C 	0.99100 0.28230 0.16110 -0.13900
C 	C 	0.87700 0.42040 0.03310 -0.00600
C 	C 	0.87860 0.20890 0.77050 0.33300
C 	C 	0.04270 0.65080 0.31430 -0.04800
C 	C 	0.19440 0.50970 0.04010 0.31700
C 	C 	0.42490 0.25640 0.58270 0.09900
C 	C 	0.56920 0.74150 0.79990 -0.02600
C 	C 	0.05260 0.20160 0.22920 0.41400
C 	C 	0.91520 0.69600 0.49970 0.33600
C 	C 	0.58480 0.19600 0.00030 0.33200
C 	C 	0.05500 0.53520 0.89250 -0.07700
C 	C 	0.93080 0.24150 0.70010 -0.02700
N 	N 	0.45500 0.34320 0.15480 -0.23600
N 	N 	0.95500 0.15680 0.65480 -0.23300
N 	N 	0.13180 0.68870 0.98070 -0.23100
N 	N 	0.63180 0.81130 0.48070 -0.23200
N 	N 	0.86820 0.31130 0.01930 -0.23100
N 	N 	0.54500 0.65680 0.84520 -0.23600
N 	N 	0.04500 0.84320 0.34520 -0.23300
N 	N 	0.36820 0.18870 0.51930 -0.23200
O 	O 	0.38490 0.73760 0.20170 -0.51200
O 	O 	0.03470 0.10160 0.20870 -0.48300
O 	O 	0.60270 0.28220 0.96370 -0.40400
O 	O 	0.35730 0.21830 0.31730 -0.42000
O 	O 	0.11150 0.39970 0.48450 -0.29700
O 	O 	0.53470 0.39840 0.70870 -0.48100
O 	O 	0.31020 0.90830 0.46680 -0.27300
O 	O 	0.11510 0.23760 0.29830 -0.51200
O 	O 	0.74680 0.43740 0.89490 -0.54700
O 	O 	0.61510 0.26240 0.79830 -0.51200
O 	O 	0.36470 0.39390 0.27920 -0.43300
O 	O 	0.64270 0.78170 0.68270 -0.42000
O 	O 	0.85730 0.28170 0.81730 -0.41900
O 	O 	0.39730 0.71780 0.03630 -0.40400
O 	O 	0.13530 0.89390 0.22080 -0.43000
O 	O 	0.14270 0.71830 0.18270 -0.41900
O 	O 	0.25320 0.56260 0.10510 -0.54700
O 	O 	0.24680 0.06260 0.39490 -0.54700
O 	O 	0.38850 0.89970 0.01550 -0.29400
O 	O 	0.88490 0.76240 0.70170 -0.51200
O 	O 	0.46530 0.60160 0.29130 -0.48100
O 	O 	0.86470 0.10610 0.77920 -0.43000
O 	O 	0.89730 0.78220 0.53630 -0.40600
O 	O 	0.96530 0.89840 0.79130 -0.48300
O 	O 	0.68980 0.09170 0.53320 -0.27300
O 	O 	0.61150 0.10030 0.98450 -0.29400
O 	O 	0.18980 0.40830 0.03320 -0.27800
O 	O 	0.63530 0.60610 0.72080 -0.43300
O 	O 	0.10270 0.21780 0.46370 -0.40600
O 	O 	0.75320 0.93740 0.60510 -0.54700
O 	O 	0.88850 0.60030 0.51550 -0.29700
O 	O 	0.81020 0.59170 0.96680 -0.27800
