data_crystal

_cell_length_a 14.62350
_cell_length_b 12.28560
_cell_length_c 14.13550
_cell_angle_alpha 90.00000
_cell_angle_beta  106.06800
_cell_angle_gamma 90.00000

_symmetry_space_group_name_	'P 1'
_symmetry_space_group_name_H-M	'P 1'

loop_
_symmetry_equiv_pos_as_xyz
  x,y,z

loop_
_atom_site_label
_atom_site_type_symbol
_atom_site_fract_x
_atom_site_fract_y
_atom_site_fract_z
_atom_site_charge
Zn	Zn	0.34110 0.97750 0.64670 1.22400
O 	O 	0.24650 0.09810 0.66470 -0.43000
O 	O 	0.17280 0.24960 0.61110 -0.42700
O 	O 	0.47280 0.24690 0.29090 -0.42800
O 	O 	0.53870 0.10970 0.38570 -0.44200
N 	N 	0.34700 0.09670 0.53980 -0.22700
C 	C 	0.29540 0.18750 0.54220 -0.03100
C 	C 	0.29640 0.27550 0.48320 -0.06900
H 	H 	0.25760 0.33540 0.48350 0.06600
C 	C 	0.35610 0.27330 0.42360 0.05200
H 	H 	0.36040 0.33410 0.38590 0.02600
C 	C 	0.40890 0.18370 0.41890 -0.15200
C 	C 	0.39850 0.09360 0.47500 0.09700
H 	H 	0.42850 0.02890 0.46710 0.00500
C 	C 	0.47710 0.18200 0.35800 0.42700
C 	C 	0.23350 0.18210 0.61030 0.35000
Zn	Zn	0.42280 0.75590 0.79970 1.21600
O 	O 	0.40790 0.92530 0.78620 -0.55100
O 	O 	0.47730 0.08650 0.82350 -0.27800
O 	O 	0.82940 0.79050 0.17570 -0.46700
O 	O 	0.74910 0.63890 0.10970 -0.47400
N 	N 	0.54290 0.81430 0.91100 -0.22500
C 	C 	0.55140 0.92340 0.91210 0.00600
C 	C 	0.62080 0.97400 0.98060 -0.09700
H 	H 	0.62140 0.04970 0.98210 0.08100
C 	C 	0.68880 0.92040 0.04650 0.06700
H 	H 	0.73720 0.95750 0.09160 0.02600
C 	C 	0.68530 0.80680 0.04580 -0.14000
C 	C 	0.61170 0.75610 0.97750 0.09400
H 	H 	0.60860 0.68050 0.97650 -0.00600
C 	C 	0.76190 0.74380 0.11520 0.40200
C 	C 	0.47360 0.98600 0.83590 0.30400
Zn	Zn	0.15890 0.47750 0.85330 1.22500
O 	O 	0.25350 0.59810 0.83530 -0.43000
O 	O 	0.32720 0.74960 0.88890 -0.42600
O 	O 	0.02720 0.74690 0.20910 -0.42600
O 	O 	0.96130 0.60970 0.11430 -0.44200
N 	N 	0.15300 0.59670 0.96020 -0.22700
C 	C 	0.20460 0.68750 0.95780 -0.03300
C 	C 	0.20360 0.77550 0.01680 -0.06800
H 	H 	0.24240 0.83540 0.01650 0.06600
C 	C 	0.14390 0.77330 0.07640 0.05100
H 	H 	0.13960 0.83410 0.11410 0.02700
C 	C 	0.09110 0.68370 0.08110 -0.15100
C 	C 	0.10150 0.59360 0.02500 0.09600
H 	H 	0.07150 0.52890 0.03290 0.00500
C 	C 	0.02290 0.68200 0.14200 0.42600
C 	C 	0.26650 0.68210 0.88970 0.35000
Zn	Zn	0.07720 0.25590 0.70030 1.21600
O 	O 	0.09210 0.42530 0.71380 -0.55200
O 	O 	0.02270 0.58650 0.67650 -0.27900
O 	O 	0.67060 0.29050 0.32430 -0.46700
O 	O 	0.75090 0.13890 0.39030 -0.47400
N 	N 	0.95710 0.31430 0.58900 -0.22400
C 	C 	0.94860 0.42340 0.58790 0.00200
C 	C 	0.87920 0.47400 0.51940 -0.08800
H 	H 	0.87860 0.54970 0.51790 0.07700
C 	C 	0.81120 0.42040 0.45350 0.06000
H 	H 	0.76280 0.45750 0.40840 0.02800
C 	C 	0.81470 0.30680 0.45420 -0.13900
C 	C 	0.88830 0.25610 0.52250 0.09400
H 	H 	0.89140 0.18050 0.52350 -0.00600
C 	C 	0.73810 0.24380 0.38480 0.40100
C 	C 	0.02640 0.48600 0.66410 0.30700
Zn	Zn	0.65890 0.02250 0.35330 1.22500
O 	O 	0.75350 0.90190 0.33530 -0.42900
O 	O 	0.82720 0.75040 0.38890 -0.42600
O 	O 	0.52720 0.75310 0.70910 -0.42700
O 	O 	0.46130 0.89030 0.61430 -0.44200
N 	N 	0.65300 0.90330 0.46020 -0.22700
C 	C 	0.70460 0.81250 0.45780 -0.03100
C 	C 	0.70360 0.72450 0.51680 -0.06900
H 	H 	0.74240 0.66460 0.51650 0.06600
C 	C 	0.64390 0.72670 0.57640 0.05200
H 	H 	0.63960 0.66590 0.61410 0.02600
C 	C 	0.59110 0.81630 0.58110 -0.15200
C 	C 	0.60150 0.90640 0.52500 0.09700
H 	H 	0.57150 0.97110 0.53290 0.00500
C 	C 	0.52290 0.81800 0.64200 0.42700
C 	C 	0.76650 0.81790 0.38970 0.35000
Zn	Zn	0.57720 0.24410 0.20030 1.21600
O 	O 	0.59210 0.07470 0.21380 -0.55100
O 	O 	0.52270 0.91350 0.17650 -0.27800
O 	O 	0.17060 0.20950 0.82430 -0.46700
O 	O 	0.25090 0.36110 0.89030 -0.47400
N 	N 	0.45710 0.18570 0.08900 -0.22500
C 	C 	0.44860 0.07660 0.08790 0.00600
C 	C 	0.37920 0.02600 0.01940 -0.09700
H 	H 	0.37860 0.95030 0.01790 0.08100
C 	C 	0.31120 0.07960 0.95350 0.06700
H 	H 	0.26280 0.04250 0.90840 0.02600
C 	C 	0.31470 0.19320 0.95420 -0.14000
C 	C 	0.38830 0.24390 0.02250 0.09400
H 	H 	0.39140 0.31950 0.02350 -0.00600
C 	C 	0.23810 0.25620 0.88480 0.40200
C 	C 	0.52640 0.01400 0.16410 0.30400
Zn	Zn	0.84110 0.52250 0.14670 1.22500
O 	O 	0.74650 0.40190 0.16470 -0.43000
O 	O 	0.67280 0.25040 0.11110 -0.42600
O 	O 	0.97280 0.25310 0.79090 -0.42600
O 	O 	0.03870 0.39030 0.88570 -0.44200
N 	N 	0.84700 0.40330 0.03980 -0.22700
C 	C 	0.79540 0.31250 0.04220 -0.03300
C 	C 	0.79640 0.22450 0.98320 -0.06800
H 	H 	0.75760 0.16460 0.98350 0.06600
C 	C 	0.85610 0.22670 0.92360 0.05100
H 	H 	0.86040 0.16590 0.88590 0.02700
C 	C 	0.90890 0.31630 0.91890 -0.15100
C 	C 	0.89850 0.40640 0.97500 0.09600
H 	H 	0.92850 0.47110 0.96710 0.00500
C 	C 	0.97710 0.31800 0.85800 0.42600
C 	C 	0.73350 0.31790 0.11030 0.35000
Zn	Zn	0.92280 0.74410 0.29970 1.21600
O 	O 	0.90790 0.57470 0.28620 -0.55200
O 	O 	0.97730 0.41350 0.32350 -0.27900
O 	O 	0.32940 0.70950 0.67570 -0.46700
O 	O 	0.24910 0.86110 0.60970 -0.47400
N 	N 	0.04290 0.68570 0.41100 -0.22400
C 	C 	0.05140 0.57660 0.41210 0.00200
C 	C 	0.12080 0.52600 0.48060 -0.08800
H 	H 	0.12140 0.45030 0.48210 0.07700
C 	C 	0.18880 0.57960 0.54650 0.06000
H 	H 	0.23720 0.54250 0.59160 0.02800
C 	C 	0.18530 0.69320 0.54580 -0.13900
C 	C 	0.11170 0.74390 0.47750 0.09400
H 	H 	0.10860 0.81950 0.47650 -0.00600
C 	C 	0.26190 0.75620 0.61520 0.40100
C 	C 	0.97360 0.51400 0.33590 0.30700
