data_crystal

_cell_length_a 7.86800
_cell_length_b 11.13200
_cell_length_c 22.30000
_cell_angle_alpha 90.00000
_cell_angle_beta  90.00000
_cell_angle_gamma 99.15800

_symmetry_space_group_name_	'P 1'
_symmetry_space_group_name_H-M	'P 1'

loop_
_symmetry_equiv_pos_as_xyz
  x,y,z

loop_
_atom_site_label
_atom_site_type_symbol
_atom_site_fract_x
_atom_site_fract_y
_atom_site_fract_z
_atom_site_charge
Ce	Ce	0.37958 0.72337 0.72064 2.14300
Ce	Ce	0.12042 0.27663 0.22064 2.14300
Ce	Ce	0.62042 0.27663 0.27936 2.14200
Ce	Ce	0.87958 0.72337 0.77936 2.14200
H 	H 	0.23670 0.19920 0.69200 -0.00000
H 	H 	0.26210 0.11500 0.63740 0.01000
H 	H 	0.99370 0.99120 0.67610 0.18000
H 	H 	0.04830 0.05870 0.73630 0.19700
H 	H 	0.78360 0.21730 0.46180 -0.00200
H 	H 	0.91040 0.12200 0.46530 0.00700
H 	H 	0.03570 0.37300 0.45120 0.21400
H 	H 	0.14300 0.26690 0.44220 0.20400
H 	H 	0.88200 0.48130 0.68640 -0.09500
H 	H 	0.80100 0.51070 0.62500 -0.08500
H 	H 	0.57460 0.36400 0.64660 0.27900
H 	H 	0.65350 0.35530 0.71060 0.28800
H 	H 	0.26330 0.80080 0.19200 -0.00000
H 	H 	0.23790 0.88500 0.13740 0.01000
H 	H 	0.50630 0.00880 0.17610 0.18000
H 	H 	0.45170 0.94130 0.23630 0.19600
H 	H 	0.71640 0.78270 0.96180 -0.00100
H 	H 	0.58960 0.87800 0.96530 0.00700
H 	H 	0.46430 0.62700 0.95120 0.21300
H 	H 	0.35700 0.73310 0.94220 0.20300
H 	H 	0.61800 0.51870 0.18640 -0.09500
H 	H 	0.69900 0.48930 0.12500 -0.08500
H 	H 	0.92540 0.63600 0.14660 0.28000
H 	H 	0.84650 0.64470 0.21060 0.28900
H 	H 	0.76330 0.80080 0.30800 -0.00000
H 	H 	0.73790 0.88500 0.36260 0.01000
H 	H 	0.00630 0.00880 0.32390 0.18000
H 	H 	0.95170 0.94130 0.26370 0.19700
H 	H 	0.21640 0.78270 0.53820 -0.00200
H 	H 	0.08960 0.87800 0.53470 0.00700
H 	H 	0.96430 0.62700 0.54880 0.21400
H 	H 	0.85700 0.73310 0.55780 0.20400
H 	H 	0.11800 0.51870 0.31360 -0.09500
H 	H 	0.19900 0.48930 0.37500 -0.08500
H 	H 	0.42540 0.63600 0.35340 0.27900
H 	H 	0.34650 0.64470 0.28940 0.28800
H 	H 	0.73670 0.19920 0.80800 -0.00000
H 	H 	0.76210 0.11500 0.86260 0.01000
H 	H 	0.49370 0.99120 0.82390 0.18000
H 	H 	0.54830 0.05870 0.76370 0.19600
H 	H 	0.28360 0.21730 0.03820 -0.00100
H 	H 	0.41040 0.12200 0.03470 0.00700
H 	H 	0.53570 0.37300 0.04880 0.21300
H 	H 	0.64300 0.26690 0.05780 0.20300
H 	H 	0.38200 0.48130 0.81360 -0.09500
H 	H 	0.30100 0.51070 0.87500 -0.08500
H 	H 	0.07460 0.36400 0.85340 0.28000
H 	H 	0.15350 0.35530 0.78940 0.28900
C 	C 	0.03640 0.17230 0.56890 0.29100
C 	C 	0.84270 0.31810 0.56380 0.27900
C 	C 	0.95700 0.26740 0.65980 0.30300
C 	C 	0.17710 0.13970 0.66430 0.18400
C 	C 	0.09170 0.03090 0.69890 -0.49900
C 	C 	0.20660 0.93900 0.71290 0.47000
C 	C 	0.89860 0.20590 0.47360 0.18400
C 	C 	0.03020 0.29020 0.43690 -0.52100
C 	C 	0.98360 0.28450 0.37110 0.54400
C 	C 	0.80630 0.44700 0.65430 0.41000
C 	C 	0.64400 0.41010 0.67730 -0.75000
C 	C 	0.55090 0.50970 0.69880 0.58500
C 	C 	0.46360 0.82770 0.06890 0.29100
C 	C 	0.65730 0.68190 0.06380 0.27900
C 	C 	0.54300 0.73260 0.15980 0.30300
C 	C 	0.32290 0.86030 0.16430 0.18300
C 	C 	0.40830 0.96910 0.19890 -0.49800
C 	C 	0.29340 0.06100 0.21290 0.46900
C 	C 	0.60140 0.79410 0.97360 0.18100
C 	C 	0.46980 0.70980 0.93690 -0.51800
C 	C 	0.51640 0.71550 0.87110 0.54100
C 	C 	0.69370 0.55300 0.15430 0.41100
C 	C 	0.85600 0.58990 0.17730 -0.75200
C 	C 	0.94910 0.49030 0.19880 0.58700
C 	C 	0.96360 0.82770 0.43110 0.29100
C 	C 	0.15730 0.68190 0.43620 0.27900
C 	C 	0.04300 0.73260 0.34020 0.30300
C 	C 	0.82290 0.86030 0.33570 0.18400
C 	C 	0.90830 0.96910 0.30110 -0.49900
C 	C 	0.79340 0.06100 0.28710 0.47000
C 	C 	0.10140 0.79410 0.52640 0.18400
C 	C 	0.96980 0.70980 0.56310 -0.52100
C 	C 	0.01640 0.71550 0.62890 0.54400
C 	C 	0.19370 0.55300 0.34570 0.41000
C 	C 	0.35600 0.58990 0.32270 -0.75000
C 	C 	0.44910 0.49030 0.30120 0.58500
C 	C 	0.53640 0.17230 0.93110 0.29100
C 	C 	0.34270 0.31810 0.93620 0.27900
C 	C 	0.45700 0.26740 0.84020 0.30300
C 	C 	0.67710 0.13970 0.83570 0.18300
C 	C 	0.59170 0.03090 0.80110 -0.49800
C 	C 	0.70660 0.93900 0.78710 0.46900
C 	C 	0.39860 0.20590 0.02640 0.18100
C 	C 	0.53020 0.29020 0.06310 -0.51800
C 	C 	0.48360 0.28450 0.12890 0.54100
C 	C 	0.30630 0.44700 0.84570 0.41100
C 	C 	0.14400 0.41010 0.82270 -0.75200
C 	C 	0.05090 0.50970 0.80120 0.58700
N 	N 	0.05330 0.19590 0.62950 -0.22000
N 	N 	0.92120 0.22950 0.53830 -0.21500
N 	N 	0.88160 0.34540 0.62500 -0.24100
N 	N 	0.44670 0.80410 0.12950 -0.22100
N 	N 	0.57880 0.77050 0.03830 -0.21500
N 	N 	0.61840 0.65460 0.12500 -0.24100
N 	N 	0.94670 0.80410 0.37050 -0.22000
N 	N 	0.07880 0.77050 0.46170 -0.21500
N 	N 	0.11840 0.65460 0.37500 -0.24100
N 	N 	0.55330 0.19590 0.87050 -0.22100
N 	N 	0.42120 0.22950 0.96170 -0.21500
N 	N 	0.38160 0.34540 0.87500 -0.24100
O 	O 	0.76150 0.38050 0.53400 -0.25300
O 	O 	0.96000 0.27660 0.71380 -0.27500
O 	O 	0.11950 0.10500 0.54350 -0.24800
O 	O 	0.34530 0.93940 0.68550 -0.47100
O 	O 	0.15510 0.85670 0.75210 -0.65200
O 	O 	0.09920 0.26660 0.33434 -0.53400
O 	O 	0.83420 0.30140 0.35750 -0.54900
O 	O 	0.62270 0.59350 0.73390 -0.66200
O 	O 	0.40130 0.50890 0.68210 -0.49800
O 	O 	0.73850 0.61950 0.03400 -0.25300
O 	O 	0.54000 0.72340 0.21380 -0.27500
O 	O 	0.38050 0.89500 0.04350 -0.24700
O 	O 	0.15470 0.06060 0.18550 -0.47100
O 	O 	0.34490 0.14330 0.25210 -0.65200
O 	O 	0.40080 0.73340 0.83434 -0.53300
O 	O 	0.66580 0.69860 0.85750 -0.54900
O 	O 	0.87730 0.40650 0.23390 -0.66200
O 	O 	0.09870 0.49110 0.18210 -0.49900
O 	O 	0.23850 0.61950 0.46600 -0.25300
O 	O 	0.04000 0.72340 0.28620 -0.27500
O 	O 	0.88050 0.89500 0.45650 -0.24800
O 	O 	0.65470 0.06060 0.31450 -0.47100
O 	O 	0.84490 0.14330 0.24790 -0.65200
O 	O 	0.90080 0.73340 0.66566 -0.53400
O 	O 	0.16580 0.69860 0.64250 -0.54900
O 	O 	0.37730 0.40650 0.26610 -0.66200
O 	O 	0.59870 0.49110 0.31790 -0.49800
O 	O 	0.26150 0.38050 0.96600 -0.25300
O 	O 	0.46000 0.27660 0.78620 -0.27500
O 	O 	0.61950 0.10500 0.95650 -0.24700
O 	O 	0.84530 0.93940 0.81450 -0.47100
O 	O 	0.65510 0.85670 0.74790 -0.65200
O 	O 	0.59920 0.26660 0.16566 -0.53300
O 	O 	0.33420 0.30140 0.14250 -0.54900
O 	O 	0.12270 0.59350 0.76610 -0.66200
O 	O 	0.90130 0.50890 0.81790 -0.49900
