data_crystal

_cell_length_a 5.52250
_cell_length_b 10.36420
_cell_length_c 29.72500
_cell_angle_alpha 90.00000
_cell_angle_beta  90.00000
_cell_angle_gamma 90.00000

_symmetry_space_group_name_	'P 1'
_symmetry_space_group_name_H-M	'P 1'

loop_
_symmetry_equiv_pos_as_xyz
  x,y,z

loop_
_atom_site_label
_atom_site_type_symbol
_atom_site_fract_x
_atom_site_fract_y
_atom_site_fract_z
_atom_site_charge
Zn	Zn	0.17423 0.52068 0.24086 1.06000
S 	S 	0.32650 0.44685 0.49000 -0.00200
N 	N 	0.16270 0.47060 0.31018 -0.35300
N 	N 	0.89890 0.37820 0.46939 -0.07800
N 	N 	0.90840 0.37480 0.51575 -0.07700
N 	N 	0.26780 0.44120 0.67159 -0.34500
C 	C 	0.33920 0.50710 0.33791 0.08600
H 	H 	0.47440 0.54750 0.32570 -0.10100
C 	C 	0.33230 0.48830 0.38383 -0.19500
H 	H 	0.46110 0.51440 0.40180 0.09200
C 	C 	0.13240 0.43050 0.40270 0.10000
C 	C 	0.95020 0.38890 0.37395 -0.19300
H 	H 	0.81590 0.34560 0.38530 0.10100
C 	C 	0.97000 0.41200 0.32883 0.08700
H 	H 	0.84420 0.38590 0.31010 -0.11300
C 	C 	0.10240 0.41520 0.45187 0.01100
C 	C 	0.12090 0.40730 0.53135 0.01300
C 	C 	0.17590 0.41520 0.57946 0.10900
C 	C 	0.39110 0.46700 0.59510 -0.18900
H 	H 	0.51000 0.49290 0.57490 0.09600
C 	C 	0.42900 0.47990 0.64077 0.08600
H 	H 	0.57280 0.51710 0.65060 -0.08700
C 	C 	0.06300 0.38570 0.65618 0.09300
H 	H 	0.95100 0.35540 0.67700 -0.10600
C 	C 	0.01200 0.37200 0.61145 -0.20300
H 	H 	0.86760 0.33380 0.60250 0.10600
Zn	Zn	0.32577 0.47932 0.74086 1.05900
S 	S 	0.17350 0.55315 0.99000 -0.00200
N 	N 	0.33730 0.52940 0.81018 -0.35200
N 	N 	0.60110 0.62180 0.96939 -0.08000
N 	N 	0.59160 0.62520 0.01575 -0.08000
N 	N 	0.23220 0.55880 0.17159 -0.34400
C 	C 	0.16080 0.49290 0.83791 0.08800
H 	H 	0.02560 0.45250 0.82570 -0.10100
C 	C 	0.16770 0.51170 0.88383 -0.19700
H 	H 	0.03890 0.48560 0.90180 0.09300
C 	C 	0.36760 0.56950 0.90270 0.10400
C 	C 	0.54980 0.61110 0.87395 -0.19800
H 	H 	0.68410 0.65440 0.88530 0.10200
C 	C 	0.53000 0.58800 0.82883 0.08600
H 	H 	0.65580 0.61410 0.81010 -0.11300
C 	C 	0.39760 0.58480 0.95187 0.01400
C 	C 	0.37910 0.59270 0.03135 0.01900
C 	C 	0.32410 0.58480 0.07946 0.10300
C 	C 	0.10890 0.53300 0.09510 -0.18100
H 	H 	0.99000 0.50710 0.07490 0.09100
C 	C 	0.07100 0.52010 0.14077 0.08500
H 	H 	0.92720 0.48290 0.15060 -0.08700
C 	C 	0.43700 0.61430 0.15618 0.09200
H 	H 	0.54900 0.64460 0.17700 -0.10700
C 	C 	0.48800 0.62800 0.11145 -0.19300
H 	H 	0.63240 0.66620 0.10250 0.10100
Zn	Zn	0.82577 0.02068 0.25914 1.05800
S 	S 	0.67350 0.94685 0.01000 -0.00100
N 	N 	0.83730 0.97060 0.18982 -0.34200
N 	N 	0.10110 0.87820 0.03061 -0.07900
N 	N 	0.09160 0.87480 0.98425 -0.07800
N 	N 	0.73220 0.94120 0.82841 -0.34400
C 	C 	0.66080 0.00710 0.16209 0.05500
H 	H 	0.52560 0.04750 0.17430 -0.09200
C 	C 	0.66770 0.98830 0.11617 -0.15900
H 	H 	0.53890 0.01440 0.09820 0.07500
C 	C 	0.86760 0.93050 0.09730 0.08600
C 	C 	0.04980 0.88890 0.12605 -0.18100
H 	H 	0.18410 0.84560 0.11470 0.09800
C 	C 	0.03000 0.91200 0.17117 0.07900
H 	H 	0.15580 0.88590 0.18990 -0.10900
C 	C 	0.89760 0.91520 0.04813 0.01800
C 	C 	0.87910 0.90730 0.96865 0.01400
C 	C 	0.82410 0.91520 0.92054 0.10500
C 	C 	0.60890 0.96700 0.90490 -0.18300
H 	H 	0.49000 0.99290 0.92510 0.09400
C 	C 	0.57100 0.97990 0.85923 0.07500
H 	H 	0.42720 0.01710 0.84940 -0.07900
C 	C 	0.93700 0.88570 0.84382 0.09200
H 	H 	0.04900 0.85540 0.82300 -0.10800
C 	C 	0.98800 0.87200 0.88855 -0.19900
H 	H 	0.13240 0.83380 0.89750 0.10400
Zn	Zn	0.67423 0.97932 0.75914 1.05700
S 	S 	0.82650 0.05315 0.51000 -0.00000
N 	N 	0.66270 0.02940 0.68982 -0.34200
N 	N 	0.39890 0.12180 0.53061 -0.08100
N 	N 	0.40840 0.12520 0.48425 -0.08000
N 	N 	0.76780 0.05880 0.32841 -0.34300
C 	C 	0.83920 0.99290 0.66209 0.05600
H 	H 	0.97440 0.95250 0.67430 -0.09300
C 	C 	0.83230 0.01170 0.61617 -0.16000
H 	H 	0.96110 0.98560 0.59820 0.07600
C 	C 	0.63240 0.06950 0.59730 0.08900
C 	C 	0.45020 0.11110 0.62605 -0.18500
H 	H 	0.31590 0.15440 0.61470 0.09800
C 	C 	0.47000 0.08800 0.67117 0.07900
H 	H 	0.34420 0.11410 0.68990 -0.10900
C 	C 	0.60240 0.08480 0.54813 0.02000
C 	C 	0.62090 0.09270 0.46865 0.01900
C 	C 	0.67590 0.08480 0.42054 0.10000
C 	C 	0.89110 0.03300 0.40490 -0.17400
H 	H 	0.01000 0.00710 0.42510 0.08800
C 	C 	0.92900 0.02010 0.35923 0.07700
H 	H 	0.07280 0.98290 0.34940 -0.08200
C 	C 	0.56300 0.11430 0.34382 0.09000
H 	H 	0.45100 0.14460 0.32300 -0.10800
C 	C 	0.51200 0.12800 0.38855 -0.19100
H 	H 	0.36760 0.16620 0.39750 0.10000
