data_crystal

_cell_length_a 12.62610
_cell_length_b 12.62610
_cell_length_c 42.55900
_cell_angle_alpha 90.00000
_cell_angle_beta  90.00000
_cell_angle_gamma 90.00000

_symmetry_space_group_name_	'P 1'
_symmetry_space_group_name_H-M	'P 1'

loop_
_symmetry_equiv_pos_as_xyz
  x,y,z

loop_
_atom_site_label
_atom_site_type_symbol
_atom_site_fract_x
_atom_site_fract_y
_atom_site_fract_z
_atom_site_charge
Mn	Mn	0.25253 0.70921 0.88890 1.24800
Mn	Mn	0.15222 0.92006 0.83109 1.25600
Mn	Mn	0.34781 0.42013 0.91896 1.24500
Mn	Mn	0.24756 0.20932 0.86101 1.24900
Mn	Mn	0.74747 0.29079 0.38890 1.24700
Mn	Mn	0.84778 0.07994 0.33109 1.25600
Mn	Mn	0.65219 0.57987 0.41896 1.24400
Mn	Mn	0.75244 0.79068 0.36101 1.24800
Mn	Mn	0.70921 0.25253 0.61110 1.24700
Mn	Mn	0.92006 0.15222 0.66891 1.25500
Mn	Mn	0.42013 0.34781 0.58104 1.24400
Mn	Mn	0.20932 0.24756 0.63899 1.24900
Mn	Mn	0.29079 0.74747 0.11110 1.24700
Mn	Mn	0.07994 0.84778 0.16891 1.25600
Mn	Mn	0.57987 0.65219 0.08104 1.24400
Mn	Mn	0.79068 0.75244 0.13899 1.24800
H 	H 	0.57040 0.80300 0.88110 0.01100
H 	H 	0.92770 0.30510 0.86640 0.00300
H 	H 	0.82800 0.54780 0.89290 0.07500
H 	H 	0.74400 0.84120 0.87000 0.07600
H 	H 	0.65520 0.50800 0.90540 0.01300
H 	H 	0.01540 0.24640 0.76090 0.00700
H 	H 	0.43590 0.80830 0.94080 0.07600
H 	H 	0.26660 0.92640 0.02970 0.01400
H 	H 	0.84620 0.00620 0.84580 0.00900
H 	H 	0.22720 0.99920 0.98070 0.06900
H 	H 	0.67100 0.04800 0.85550 0.08200
H 	H 	0.06330 0.30970 0.80870 0.08500
H 	H 	0.48110 0.74390 0.98990 0.01000
H 	H 	0.27800 0.49560 0.76880 0.08300
H 	H 	0.23690 0.42390 0.72150 0.00700
H 	H 	0.75640 0.34300 0.87930 0.08100
H 	H 	0.03770 0.87710 0.78100 0.25100
H 	H 	0.42880 0.48200 0.98400 0.00400
H 	H 	0.41150 0.19130 0.94690 -0.00300
H 	H 	0.44930 0.11670 0.99510 0.06500
H 	H 	0.46770 0.41190 0.03270 0.06500
H 	H 	0.48070 0.22190 0.04230 0.03100
H 	H 	0.42960 0.19700 0.38110 0.01200
H 	H 	0.07230 0.69490 0.36640 0.00800
H 	H 	0.17200 0.45220 0.39290 0.07600
H 	H 	0.25600 0.15880 0.37000 0.07900
H 	H 	0.34480 0.49200 0.40540 0.01300
H 	H 	0.98460 0.75360 0.26090 0.00600
H 	H 	0.56410 0.19170 0.44080 0.07600
H 	H 	0.73340 0.07360 0.52970 0.01500
H 	H 	0.15380 0.99380 0.34580 0.01100
H 	H 	0.77280 0.00080 0.48070 0.06900
H 	H 	0.32900 0.95200 0.35550 0.07900
H 	H 	0.93670 0.69030 0.30870 0.08200
H 	H 	0.51890 0.25610 0.48990 0.01100
H 	H 	0.72200 0.50440 0.26880 0.08200
H 	H 	0.76310 0.57610 0.22150 0.00800
H 	H 	0.24360 0.65700 0.37930 0.08000
H 	H 	0.96230 0.12290 0.28100 0.25100
H 	H 	0.57120 0.51800 0.48400 0.00400
H 	H 	0.58850 0.80870 0.44690 -0.00400
H 	H 	0.55070 0.88330 0.49510 0.06300
H 	H 	0.53230 0.58810 0.53270 0.06500
H 	H 	0.51930 0.77810 0.54230 0.03100
H 	H 	0.80300 0.57040 0.61890 0.01100
H 	H 	0.30510 0.92770 0.63360 0.00300
H 	H 	0.54780 0.82800 0.60710 0.07500
H 	H 	0.84120 0.74400 0.63000 0.07600
H 	H 	0.50800 0.65520 0.59460 0.01300
H 	H 	0.24640 0.01540 0.73910 0.00700
H 	H 	0.80830 0.43590 0.55920 0.07600
H 	H 	0.92640 0.26660 0.47030 0.01400
H 	H 	0.00620 0.84620 0.65420 0.00900
H 	H 	0.99920 0.22720 0.51930 0.06900
H 	H 	0.04800 0.67100 0.64450 0.08200
H 	H 	0.30970 0.06330 0.69130 0.08500
H 	H 	0.74390 0.48110 0.51010 0.01000
H 	H 	0.49560 0.27800 0.73120 0.08300
H 	H 	0.42390 0.23690 0.77850 0.00700
H 	H 	0.34300 0.75640 0.62070 0.08100
H 	H 	0.87710 0.03770 0.71900 0.25100
H 	H 	0.48200 0.42880 0.51600 0.00400
H 	H 	0.19130 0.41150 0.55310 -0.00300
H 	H 	0.11670 0.44930 0.50490 0.06500
H 	H 	0.41190 0.46770 0.46730 0.06500
H 	H 	0.22190 0.48070 0.45770 0.03100
H 	H 	0.19700 0.42960 0.11890 0.01200
H 	H 	0.69490 0.07230 0.13360 0.00800
H 	H 	0.45220 0.17200 0.10710 0.07600
H 	H 	0.15880 0.25600 0.13000 0.07900
H 	H 	0.49200 0.34480 0.09460 0.01300
H 	H 	0.75360 0.98460 0.23910 0.00600
H 	H 	0.19170 0.56410 0.05920 0.07600
H 	H 	0.07360 0.73340 0.97030 0.01500
H 	H 	0.99380 0.15380 0.15420 0.01100
H 	H 	0.00080 0.77280 0.01930 0.06900
H 	H 	0.95200 0.32900 0.14450 0.07900
H 	H 	0.69030 0.93670 0.19130 0.08200
H 	H 	0.25610 0.51890 0.01010 0.01100
H 	H 	0.50440 0.72200 0.23120 0.08200
H 	H 	0.57610 0.76310 0.27850 0.00800
H 	H 	0.65700 0.24360 0.12070 0.08000
H 	H 	0.12290 0.96230 0.21900 0.25100
H 	H 	0.51800 0.57120 0.01600 0.00400
H 	H 	0.80870 0.58850 0.05310 -0.00400
H 	H 	0.88330 0.55070 0.00490 0.06300
H 	H 	0.58810 0.53230 0.96730 0.06500
H 	H 	0.77810 0.51930 0.95770 0.03100
C 	C 	0.01810 0.12510 0.84950 0.46800
C 	C 	0.48030 0.62530 0.90029 0.44700
C 	C 	0.62250 0.75170 0.88380 0.06600
C 	C 	0.90570 0.14970 0.85540 -0.18900
C 	C 	0.59550 0.65010 0.89460 -0.16200
C 	C 	0.87640 0.25260 0.86490 0.08500
C 	C 	0.77650 0.60010 0.89110 -0.12700
C 	C 	0.72640 0.77420 0.87740 -0.12500
C 	C 	0.67260 0.57540 0.89820 0.07100
C 	C 	0.08980 0.28780 0.70345 0.46400
C 	C 	0.20760 0.44660 0.82564 0.09500
C 	C 	0.12080 0.32980 0.73580 -0.17800
C 	C 	0.29230 0.94610 0.92448 0.09300
C 	C 	0.06990 0.29570 0.76250 0.10000
C 	C 	0.91520 0.72720 0.87520 0.09100
C 	C 	0.38030 0.83130 0.01417 -0.16600
C 	C 	0.32280 0.90520 0.95536 0.03800
C 	C 	0.58500 0.22880 0.87340 0.08800
C 	C 	0.17760 0.40440 0.79398 0.05800
C 	C 	0.69310 0.19890 0.86800 0.05800
C 	C 	0.40060 0.83300 0.95850 -0.13700
C 	C 	0.80600 0.69980 0.88160 0.05100
C 	C 	0.30260 0.90360 0.01190 0.07200
C 	C 	0.82820 0.07440 0.85210 0.08800
C 	C 	0.27650 0.94470 0.98230 -0.12100
C 	C 	0.72260 0.09960 0.85820 -0.13600
C 	C 	0.09870 0.33330 0.79090 -0.15700
C 	C 	0.42840 0.79500 0.98815 0.08000
C 	C 	0.41050 0.78870 0.04617 0.43800
C 	C 	0.22700 0.44260 0.76730 -0.14600
C 	C 	0.20000 0.40200 0.73930 0.10000
C 	C 	0.77380 0.27600 0.87190 -0.13600
C 	C 	0.43320 0.40900 0.98650 0.04000
C 	C 	0.42260 0.23440 0.96430 0.03400
C 	C 	0.44590 0.19010 0.99370 -0.08500
C 	C 	0.45670 0.36530 0.01610 -0.08400
C 	C 	0.46530 0.25110 0.02270 -0.00100
C 	C 	0.98190 0.87490 0.34950 0.45900
C 	C 	0.51970 0.37470 0.40029 0.44700
C 	C 	0.37750 0.24830 0.38380 0.06700
C 	C 	0.09430 0.85030 0.35540 -0.17700
C 	C 	0.40450 0.34990 0.39460 -0.16200
C 	C 	0.12360 0.74740 0.36490 0.07800
C 	C 	0.22350 0.39990 0.39110 -0.12700
C 	C 	0.27360 0.22580 0.37740 -0.12500
C 	C 	0.32740 0.42460 0.39820 0.07200
C 	C 	0.91020 0.71220 0.20345 0.45400
C 	C 	0.79240 0.55340 0.32564 0.09500
C 	C 	0.87920 0.67020 0.23580 -0.17400
C 	C 	0.70770 0.05390 0.42448 0.09900
C 	C 	0.93010 0.70430 0.26250 0.09600
C 	C 	0.08480 0.27280 0.37520 0.09400
C 	C 	0.61970 0.16870 0.51417 -0.16400
C 	C 	0.67720 0.09480 0.45536 0.03500
C 	C 	0.41500 0.77120 0.37340 0.08900
C 	C 	0.82240 0.59560 0.29398 0.05600
C 	C 	0.30690 0.80110 0.36800 0.05400
C 	C 	0.59940 0.16700 0.45850 -0.13400
C 	C 	0.19400 0.30020 0.38160 0.05200
C 	C 	0.69740 0.09640 0.51190 0.07000
C 	C 	0.17180 0.92560 0.35210 0.08000
C 	C 	0.72350 0.05530 0.48230 -0.11800
C 	C 	0.27740 0.90040 0.35820 -0.13000
C 	C 	0.90130 0.66670 0.29090 -0.15500
C 	C 	0.57160 0.20500 0.48815 0.07900
C 	C 	0.58950 0.21130 0.54617 0.43800
C 	C 	0.77300 0.55740 0.26730 -0.14300
C 	C 	0.80000 0.59800 0.23930 0.09700
C 	C 	0.22620 0.72400 0.37190 -0.13000
C 	C 	0.56680 0.59100 0.48650 0.04000
C 	C 	0.57740 0.76560 0.46430 0.03300
C 	C 	0.55410 0.80990 0.49370 -0.08500
C 	C 	0.54330 0.63470 0.51610 -0.08400
C 	C 	0.53470 0.74890 0.52270 -0.00100
C 	C 	0.12510 0.01810 0.65050 0.46800
C 	C 	0.62530 0.48030 0.59971 0.44700
C 	C 	0.75170 0.62250 0.61620 0.06600
C 	C 	0.14970 0.90570 0.64460 -0.18900
C 	C 	0.65010 0.59550 0.60540 -0.16200
C 	C 	0.25260 0.87640 0.63510 0.08500
C 	C 	0.60010 0.77650 0.60890 -0.12700
C 	C 	0.77420 0.72640 0.62260 -0.12500
C 	C 	0.57540 0.67260 0.60180 0.07100
C 	C 	0.28780 0.08980 0.79655 0.46400
C 	C 	0.44660 0.20760 0.67436 0.09500
C 	C 	0.32980 0.12080 0.76420 -0.17800
C 	C 	0.94610 0.29230 0.57552 0.09300
C 	C 	0.29570 0.06990 0.73750 0.10000
C 	C 	0.72720 0.91520 0.62480 0.09100
C 	C 	0.83130 0.38030 0.48583 -0.16600
C 	C 	0.90520 0.32280 0.54464 0.03800
C 	C 	0.22880 0.58500 0.62660 0.08800
C 	C 	0.40440 0.17760 0.70602 0.05800
C 	C 	0.19890 0.69310 0.63200 0.05800
C 	C 	0.83300 0.40060 0.54150 -0.13700
C 	C 	0.69980 0.80600 0.61840 0.05100
C 	C 	0.90360 0.30260 0.48810 0.07200
C 	C 	0.07440 0.82820 0.64790 0.08800
C 	C 	0.94470 0.27650 0.51770 -0.12100
C 	C 	0.09960 0.72260 0.64180 -0.13600
C 	C 	0.33330 0.09870 0.70910 -0.15700
C 	C 	0.79500 0.42840 0.51185 0.08000
C 	C 	0.78870 0.41050 0.45383 0.43800
C 	C 	0.44260 0.22700 0.73270 -0.14600
C 	C 	0.40200 0.20000 0.76070 0.10000
C 	C 	0.27600 0.77380 0.62810 -0.13600
C 	C 	0.40900 0.43320 0.51350 0.04000
C 	C 	0.23440 0.42260 0.53570 0.03400
C 	C 	0.19010 0.44590 0.50630 -0.08500
C 	C 	0.36530 0.45670 0.48390 -0.08400
C 	C 	0.25110 0.46530 0.47730 -0.00100
C 	C 	0.87490 0.98190 0.15050 0.45900
C 	C 	0.37470 0.51970 0.09971 0.44700
C 	C 	0.24830 0.37750 0.11620 0.06700
C 	C 	0.85030 0.09430 0.14460 -0.17700
C 	C 	0.34990 0.40450 0.10540 -0.16200
C 	C 	0.74740 0.12360 0.13510 0.07800
C 	C 	0.39990 0.22350 0.10890 -0.12700
C 	C 	0.22580 0.27360 0.12260 -0.12500
C 	C 	0.42460 0.32740 0.10180 0.07200
C 	C 	0.71220 0.91020 0.29655 0.45400
C 	C 	0.55340 0.79240 0.17436 0.09500
C 	C 	0.67020 0.87920 0.26420 -0.17400
C 	C 	0.05390 0.70770 0.07552 0.09900
C 	C 	0.70430 0.93010 0.23750 0.09600
C 	C 	0.27280 0.08480 0.12480 0.09400
C 	C 	0.16870 0.61970 0.98583 -0.16400
C 	C 	0.09480 0.67720 0.04464 0.03500
C 	C 	0.77120 0.41500 0.12660 0.08900
C 	C 	0.59560 0.82240 0.20602 0.05600
C 	C 	0.80110 0.30690 0.13200 0.05400
C 	C 	0.16700 0.59940 0.04150 -0.13400
C 	C 	0.30020 0.19400 0.11840 0.05200
C 	C 	0.09640 0.69740 0.98810 0.07000
C 	C 	0.92560 0.17180 0.14790 0.08000
C 	C 	0.05530 0.72350 0.01770 -0.11800
C 	C 	0.90040 0.27740 0.14180 -0.13000
C 	C 	0.66670 0.90130 0.20910 -0.15500
C 	C 	0.20500 0.57160 0.01185 0.07900
C 	C 	0.21130 0.58950 0.95383 0.43800
C 	C 	0.55740 0.77300 0.23270 -0.14300
C 	C 	0.59800 0.80000 0.26070 0.09700
C 	C 	0.72400 0.22620 0.12810 -0.13000
C 	C 	0.59100 0.56680 0.01350 0.04000
C 	C 	0.76560 0.57740 0.03570 0.03300
C 	C 	0.80990 0.55410 0.00630 -0.08500
C 	C 	0.63470 0.54330 0.98390 -0.08400
C 	C 	0.74890 0.53470 0.97730 -0.00200
N 	N 	0.26500 0.88740 0.89986 -0.21200
N 	N 	0.41670 0.23130 0.87377 -0.18600
N 	N 	0.08230 0.73150 0.87602 -0.18000
N 	N 	0.24040 0.95740 0.87708 -0.19100
N 	N 	0.45150 0.31150 0.89117 -0.18500
N 	N 	0.25480 0.05360 0.88758 -0.17200
N 	N 	0.04950 0.81010 0.85900 -0.17800
N 	N 	0.23440 0.38840 0.85007 -0.21000
N 	N 	0.25930 0.45710 0.87309 -0.19300
N 	N 	0.28560 0.05000 0.91769 -0.11500
N 	N 	0.21490 0.55030 0.83237 -0.11300
N 	N 	0.00000 0.67760 0.88710 -0.09500
N 	N 	0.94350 0.80990 0.85810 -0.09800
N 	N 	0.24540 0.55300 0.86157 -0.17000
N 	N 	0.50030 0.17690 0.86290 -0.09400
N 	N 	0.55600 0.31020 0.89200 -0.09400
N 	N 	0.41670 0.34250 0.96160 -0.22900
N 	N 	0.73500 0.11260 0.39986 -0.21200
N 	N 	0.58330 0.76870 0.37377 -0.18600
N 	N 	0.91770 0.26850 0.37602 -0.18200
N 	N 	0.75960 0.04260 0.37708 -0.18800
N 	N 	0.54850 0.68850 0.39117 -0.18500
N 	N 	0.74520 0.94640 0.38758 -0.17600
N 	N 	0.95050 0.18990 0.35900 -0.18000
N 	N 	0.76560 0.61160 0.35007 -0.21000
N 	N 	0.74070 0.54290 0.37309 -0.19400
N 	N 	0.71440 0.95000 0.41769 -0.12000
N 	N 	0.78510 0.44970 0.33237 -0.11300
N 	N 	0.00000 0.32240 0.38710 -0.09300
N 	N 	0.05650 0.19010 0.35810 -0.09400
N 	N 	0.75460 0.44700 0.36157 -0.17000
N 	N 	0.49970 0.82310 0.36290 -0.09500
N 	N 	0.44400 0.68980 0.39200 -0.09400
N 	N 	0.58330 0.65750 0.46160 -0.22900
N 	N 	0.88740 0.26500 0.60014 -0.21200
N 	N 	0.23130 0.41670 0.62623 -0.18600
N 	N 	0.73150 0.08230 0.62398 -0.18000
N 	N 	0.95740 0.24040 0.62292 -0.19100
N 	N 	0.31150 0.45150 0.60883 -0.18500
N 	N 	0.05360 0.25480 0.61242 -0.17200
N 	N 	0.81010 0.04950 0.64100 -0.17800
N 	N 	0.38840 0.23440 0.64993 -0.21000
N 	N 	0.45710 0.25930 0.62691 -0.19300
N 	N 	0.05000 0.28560 0.58231 -0.11500
N 	N 	0.55030 0.21490 0.66763 -0.11300
N 	N 	0.67760 0.00000 0.61290 -0.09500
N 	N 	0.80990 0.94350 0.64190 -0.09800
N 	N 	0.55300 0.24540 0.63843 -0.17000
N 	N 	0.17690 0.50030 0.63710 -0.09400
N 	N 	0.31020 0.55600 0.60800 -0.09400
N 	N 	0.34250 0.41670 0.53840 -0.22900
N 	N 	0.11260 0.73500 0.10014 -0.21200
N 	N 	0.76870 0.58330 0.12623 -0.18600
N 	N 	0.26850 0.91770 0.12398 -0.18200
N 	N 	0.04260 0.75960 0.12292 -0.18800
N 	N 	0.68850 0.54850 0.10883 -0.18500
N 	N 	0.94640 0.74520 0.11242 -0.17600
N 	N 	0.18990 0.95050 0.14100 -0.18000
N 	N 	0.61160 0.76560 0.14993 -0.21000
N 	N 	0.54290 0.74070 0.12691 -0.19400
N 	N 	0.95000 0.71440 0.08231 -0.12000
N 	N 	0.44970 0.78510 0.16763 -0.11300
N 	N 	0.32240 0.00000 0.11290 -0.09300
N 	N 	0.19010 0.05650 0.14190 -0.09400
N 	N 	0.44700 0.75460 0.13843 -0.17000
N 	N 	0.82310 0.49970 0.13710 -0.09500
N 	N 	0.68980 0.44400 0.10800 -0.09400
N 	N 	0.65750 0.58330 0.03840 -0.22900
O 	O 	0.41540 0.69400 0.89141 -0.51600
O 	O 	0.08570 0.19290 0.85838 -0.51700
O 	O 	0.04020 0.04120 0.83675 -0.50500
O 	O 	0.45950 0.54030 0.91335 -0.50400
O 	O 	0.15840 0.29460 0.68288 -0.51000
O 	O 	0.99870 0.25130 0.70028 -0.50800
O 	O 	0.34100 0.79480 0.06721 -0.50100
O 	O 	0.50120 0.75060 0.04924 -0.50600
O 	O 	0.08600 0.84100 0.78818 -0.50500
O 	O 	0.58460 0.30600 0.39141 -0.51500
O 	O 	0.91430 0.80710 0.35838 -0.51800
O 	O 	0.95980 0.95880 0.33675 -0.50800
O 	O 	0.54050 0.45970 0.41335 -0.50400
O 	O 	0.84160 0.70540 0.18288 -0.50900
O 	O 	0.00130 0.74870 0.20028 -0.50000
O 	O 	0.65900 0.20520 0.56721 -0.50000
O 	O 	0.49880 0.24940 0.54924 -0.50500
O 	O 	0.91400 0.15900 0.28818 -0.50500
O 	O 	0.69400 0.41540 0.60859 -0.51600
O 	O 	0.19290 0.08570 0.64162 -0.51700
O 	O 	0.04120 0.04020 0.66325 -0.50500
O 	O 	0.54030 0.45950 0.58665 -0.50400
O 	O 	0.29460 0.15840 0.81712 -0.51000
O 	O 	0.25130 0.99870 0.79972 -0.50800
O 	O 	0.79480 0.34100 0.43279 -0.50100
O 	O 	0.75060 0.50120 0.45076 -0.50600
O 	O 	0.84100 0.08600 0.71182 -0.50500
O 	O 	0.30600 0.58460 0.10859 -0.51500
O 	O 	0.80710 0.91430 0.14162 -0.51800
O 	O 	0.95880 0.95980 0.16325 -0.50800
O 	O 	0.45970 0.54050 0.08665 -0.50400
O 	O 	0.70540 0.84160 0.31712 -0.50900
O 	O 	0.74870 0.00130 0.29972 -0.50000
O 	O 	0.20520 0.65900 0.93279 -0.50000
O 	O 	0.24940 0.49880 0.95076 -0.50500
O 	O 	0.15900 0.91400 0.21182 -0.50500
