data_crystal

_cell_length_a 22.01200
_cell_length_b 7.77800
_cell_length_c 19.72400
_cell_angle_alpha 90.00000
_cell_angle_beta  90.00000
_cell_angle_gamma 90.00000

_symmetry_space_group_name_	'P 1'
_symmetry_space_group_name_H-M	'P 1'

loop_
_symmetry_equiv_pos_as_xyz
  x,y,z

loop_
_atom_site_label
_atom_site_type_symbol
_atom_site_fract_x
_atom_site_fract_y
_atom_site_fract_z
_atom_site_charge
Nd	Nd	0.28110 0.42280 0.05520 2.21700
O 	O 	0.23760 0.19240 0.12430 -0.64100
O 	O 	0.18030 0.00150 0.17460 -0.43700
O 	O 	0.25070 0.33210 0.48070 -0.61700
O 	O 	0.17940 0.16540 0.43910 -0.45600
C 	C 	0.20060 0.14950 0.17170 0.39200
C 	C 	0.19740 0.28880 0.22860 0.12500
C 	C 	0.15330 0.24030 0.28380 0.07200
O 	O 	0.36100 0.21640 0.07530 -0.53600
C 	C 	0.43800 0.00410 0.07040 -0.12200
C 	C 	0.14090 0.38010 0.33510 0.09800
C 	C 	0.19420 0.42690 0.37990 -0.05800
C 	C 	0.16430 0.27800 0.21440 -0.21400
C 	C 	0.19650 0.29400 0.28350 -0.06100
C 	C 	0.16130 0.41800 0.32920 -0.08300
C 	C 	0.19880 0.46120 0.39270 -0.02000
C 	C 	0.20800 0.30180 0.43660 0.37500
O 	O 	0.33230 0.94670 0.05570 -0.51800
C 	C 	0.37210 0.06060 0.06820 0.47800
C 	C 	0.46660 0.02550 0.00110 0.01200
Nd	Nd	0.21890 0.07720 0.55520 2.21500
O 	O 	0.26240 0.30760 0.62430 -0.64400
O 	O 	0.31970 0.49850 0.67460 -0.43900
O 	O 	0.24930 0.16790 0.98070 -0.61500
O 	O 	0.32060 0.33460 0.93910 -0.45500
C 	C 	0.29940 0.35050 0.67170 0.39200
C 	C 	0.30260 0.21120 0.72860 0.12500
C 	C 	0.34670 0.25970 0.78380 0.07200
O 	O 	0.13900 0.28360 0.57530 -0.53600
C 	C 	0.06200 0.49590 0.57040 -0.12200
C 	C 	0.35910 0.11990 0.83510 0.09800
C 	C 	0.30580 0.07310 0.87990 -0.05900
C 	C 	0.33570 0.22200 0.71440 -0.21400
C 	C 	0.30350 0.20600 0.78350 -0.06200
C 	C 	0.33870 0.08200 0.82920 -0.08300
C 	C 	0.30120 0.03880 0.89270 -0.02000
C 	C 	0.29200 0.19820 0.93660 0.37500
O 	O 	0.16770 0.55330 0.55570 -0.51600
C 	C 	0.12790 0.43940 0.56820 0.47500
C 	C 	0.03340 0.47450 0.50110 0.01000
Nd	Nd	0.71890 0.42280 0.44480 2.21800
O 	O 	0.76240 0.19240 0.37570 -0.64300
O 	O 	0.81970 0.00150 0.32540 -0.43800
O 	O 	0.74930 0.33210 0.01930 -0.61400
O 	O 	0.82060 0.16540 0.06090 -0.45300
C 	C 	0.79940 0.14950 0.32830 0.39200
C 	C 	0.80260 0.28880 0.27140 0.11800
C 	C 	0.84670 0.24030 0.21620 0.07100
O 	O 	0.63900 0.21640 0.42470 -0.53600
C 	C 	0.56200 0.00410 0.42960 -0.12200
C 	C 	0.85910 0.38010 0.16490 0.09400
C 	C 	0.80580 0.42690 0.12010 -0.05700
C 	C 	0.83570 0.27800 0.28560 -0.20800
C 	C 	0.80350 0.29400 0.21650 -0.05800
C 	C 	0.83870 0.41800 0.17080 -0.07800
C 	C 	0.80120 0.46120 0.10730 -0.02100
C 	C 	0.79200 0.30180 0.06340 0.37500
O 	O 	0.66770 0.94670 0.44430 -0.51700
C 	C 	0.62790 0.06060 0.43180 0.47600
C 	C 	0.53340 0.02550 0.49890 0.01100
Nd	Nd	0.78110 0.07720 0.94480 2.20800
O 	O 	0.73760 0.30760 0.87570 -0.64300
O 	O 	0.68030 0.49850 0.82540 -0.43900
O 	O 	0.75070 0.16790 0.51930 -0.61700
O 	O 	0.67940 0.33460 0.56090 -0.45600
C 	C 	0.70060 0.35050 0.82830 0.39200
C 	C 	0.69740 0.21120 0.77140 0.12300
C 	C 	0.65330 0.25970 0.71620 0.07200
O 	O 	0.86100 0.28360 0.92470 -0.53600
C 	C 	0.93800 0.49590 0.92960 -0.12300
C 	C 	0.64090 0.11990 0.66490 0.09700
C 	C 	0.69420 0.07310 0.62010 -0.05800
C 	C 	0.66430 0.22200 0.78560 -0.21200
C 	C 	0.69650 0.20600 0.71650 -0.06100
C 	C 	0.66130 0.08200 0.67080 -0.08200
C 	C 	0.69880 0.03880 0.60730 -0.02000
C 	C 	0.70800 0.19820 0.56340 0.37500
O 	O 	0.83230 0.55330 0.94430 -0.51600
C 	C 	0.87210 0.43940 0.93180 0.47400
C 	C 	0.96660 0.47450 0.99890 0.01000
Nd	Nd	0.71890 0.57720 0.94480 2.21600
O 	O 	0.76240 0.80760 0.87570 -0.64200
O 	O 	0.81970 0.99850 0.82540 -0.43700
O 	O 	0.74930 0.66790 0.51930 -0.61700
O 	O 	0.82060 0.83460 0.56090 -0.45600
C 	C 	0.79940 0.85050 0.82830 0.39200
C 	C 	0.80260 0.71120 0.77140 0.12500
C 	C 	0.84670 0.75970 0.71620 0.07200
O 	O 	0.63900 0.78360 0.92470 -0.53600
C 	C 	0.56200 0.99590 0.92960 -0.12200
C 	C 	0.85910 0.61990 0.66490 0.09800
C 	C 	0.80580 0.57310 0.62010 -0.05800
C 	C 	0.83570 0.72200 0.78560 -0.21400
C 	C 	0.80350 0.70600 0.71650 -0.06100
C 	C 	0.83870 0.58200 0.67080 -0.08300
C 	C 	0.80120 0.53880 0.60730 -0.02000
C 	C 	0.79200 0.69820 0.56340 0.37500
O 	O 	0.66770 0.05330 0.94430 -0.51800
C 	C 	0.62790 0.93940 0.93180 0.47800
C 	C 	0.53340 0.97450 0.99890 0.01200
Nd	Nd	0.78110 0.92280 0.44480 2.21500
O 	O 	0.73760 0.69240 0.37570 -0.64400
O 	O 	0.68030 0.50150 0.32540 -0.43900
O 	O 	0.75070 0.83210 0.01930 -0.61500
O 	O 	0.67940 0.66540 0.06090 -0.45500
C 	C 	0.70060 0.64950 0.32830 0.39200
C 	C 	0.69740 0.78880 0.27140 0.12500
C 	C 	0.65330 0.74030 0.21620 0.07200
O 	O 	0.86100 0.71640 0.42470 -0.53600
C 	C 	0.93800 0.50410 0.42960 -0.12200
C 	C 	0.64090 0.88010 0.16490 0.09800
C 	C 	0.69420 0.92690 0.12010 -0.05900
C 	C 	0.66430 0.77800 0.28560 -0.21400
C 	C 	0.69650 0.79400 0.21650 -0.06200
C 	C 	0.66130 0.91800 0.17080 -0.08300
C 	C 	0.69880 0.96120 0.10730 -0.02000
C 	C 	0.70800 0.80180 0.06340 0.37500
O 	O 	0.83230 0.44670 0.44430 -0.51600
C 	C 	0.87210 0.56060 0.43180 0.47500
C 	C 	0.96660 0.52550 0.49890 0.01000
Nd	Nd	0.28110 0.57720 0.55520 2.21800
O 	O 	0.23760 0.80760 0.62430 -0.64300
O 	O 	0.18030 0.99850 0.67460 -0.43800
O 	O 	0.25070 0.66790 0.98070 -0.61400
O 	O 	0.17940 0.83460 0.93910 -0.45300
C 	C 	0.20060 0.85050 0.67170 0.39200
C 	C 	0.19740 0.71120 0.72860 0.11800
C 	C 	0.15330 0.75970 0.78380 0.07100
O 	O 	0.36100 0.78360 0.57530 -0.53600
C 	C 	0.43800 0.99590 0.57040 -0.12200
C 	C 	0.14090 0.61990 0.83510 0.09400
C 	C 	0.19420 0.57310 0.87990 -0.05700
C 	C 	0.16430 0.72200 0.71440 -0.20800
C 	C 	0.19650 0.70600 0.78350 -0.05800
C 	C 	0.16130 0.58200 0.82920 -0.07800
C 	C 	0.19880 0.53880 0.89270 -0.02100
C 	C 	0.20800 0.69820 0.93660 0.37500
O 	O 	0.33230 0.05330 0.55570 -0.51700
C 	C 	0.37210 0.93940 0.56820 0.47600
C 	C 	0.46660 0.97450 0.50110 0.01100
Nd	Nd	0.21890 0.92280 0.05520 2.20800
O 	O 	0.26240 0.69240 0.12430 -0.64300
O 	O 	0.31970 0.50150 0.17460 -0.43900
O 	O 	0.24930 0.83210 0.48070 -0.61700
O 	O 	0.32060 0.66540 0.43910 -0.45600
C 	C 	0.29940 0.64950 0.17170 0.39200
C 	C 	0.30260 0.78880 0.22860 0.12300
C 	C 	0.34670 0.74030 0.28380 0.07200
O 	O 	0.13900 0.71640 0.07530 -0.53600
C 	C 	0.06200 0.50410 0.07040 -0.12300
C 	C 	0.35910 0.88010 0.33510 0.09700
C 	C 	0.30580 0.92690 0.37990 -0.05800
C 	C 	0.33570 0.77800 0.21440 -0.21200
C 	C 	0.30350 0.79400 0.28350 -0.06100
C 	C 	0.33870 0.91800 0.32920 -0.08200
C 	C 	0.30120 0.96120 0.39270 -0.02000
C 	C 	0.29200 0.80180 0.43660 0.37500
O 	O 	0.16770 0.44670 0.05570 -0.51600
C 	C 	0.12790 0.56060 0.06820 0.47400
C 	C 	0.03340 0.52550 0.00110 0.01000
