data_crystal

_cell_length_a 13.51360
_cell_length_b 13.51360
_cell_length_c 14.79500
_cell_angle_alpha 90.00000
_cell_angle_beta  90.00000
_cell_angle_gamma 120.00000

_symmetry_space_group_name_	'P 1'
_symmetry_space_group_name_H-M	'P 1'

loop_
_symmetry_equiv_pos_as_xyz
  x,y,z

loop_
_atom_site_label
_atom_site_type_symbol
_atom_site_fract_x
_atom_site_fract_y
_atom_site_fract_z
_atom_site_charge
La	La	0.66667 0.33334 0.33300 1.72700
La	La	0.33333 0.66666 0.16700 1.72900
La	La	0.33333 0.66666 0.66700 1.73000
La	La	0.66667 0.33334 0.83300 1.72900
Cu	Cu	0.50000 0.00000 0.50000 0.90100
Cu	Cu	0.50000 0.50000 0.50000 0.92900
Cu	Cu	-0.00000 0.50000 0.50000 0.90000
Cu	Cu	0.50000 0.00000 -0.00000 0.87400
Cu	Cu	-0.00000 0.50000 -0.00000 0.87300
Cu	Cu	0.50000 0.50000 -0.00000 0.90200
H 	H 	0.79980 0.13990 0.53480 0.15500
H 	H 	0.75300 0.04190 0.45500 0.13300
H 	H 	0.72510 0.18860 0.62160 0.16300
H 	H 	0.67050 0.06870 0.68610 0.13600
H 	H 	0.64700 0.97520 0.57750 0.16200
H 	H 	0.34010 0.20020 0.53480 0.14100
H 	H 	0.28890 0.24700 0.45500 0.13800
H 	H 	0.46350 0.27490 0.62160 0.16300
H 	H 	0.39820 0.32950 0.68610 0.15300
H 	H 	0.32820 0.35300 0.57750 0.09500
H 	H 	0.86010 0.65990 0.53480 0.17200
H 	H 	0.95810 0.71110 0.45500 0.18900
H 	H 	0.81140 0.53650 0.62160 0.17400
H 	H 	0.93130 0.60180 0.68610 0.18900
H 	H 	0.02480 0.67180 0.57750 0.03800
H 	H 	0.65990 0.86010 0.96520 0.27200
H 	H 	0.71110 0.95810 0.04500 0.24200
H 	H 	0.53650 0.81140 0.87840 0.18500
H 	H 	0.60180 0.93130 0.81390 0.19000
H 	H 	0.67180 0.02480 0.92250 0.04300
H 	H 	0.13990 0.79980 0.96520 0.25700
H 	H 	0.04190 0.75300 0.04500 0.18600
H 	H 	0.18860 0.72510 0.87840 0.17400
H 	H 	0.06870 0.67050 0.81390 0.13800
H 	H 	0.97520 0.64700 0.92250 0.16300
H 	H 	0.20020 0.34010 0.96520 0.24800
H 	H 	0.24700 0.28890 0.04500 0.19500
H 	H 	0.27490 0.46350 0.87840 0.17400
H 	H 	0.32950 0.39820 0.81390 0.15700
H 	H 	0.35300 0.32820 0.92250 0.09500
H 	H 	0.20020 0.86010 0.46520 0.15600
H 	H 	0.24700 0.95810 0.54500 0.17300
H 	H 	0.27490 0.81140 0.37840 0.17000
H 	H 	0.32950 0.93130 0.31390 0.18200
H 	H 	0.35300 0.02480 0.42250 0.03600
H 	H 	0.65990 0.79980 0.46520 0.17100
H 	H 	0.71110 0.75300 0.54500 0.16900
H 	H 	0.53650 0.72510 0.37840 0.17100
H 	H 	0.60180 0.67050 0.31390 0.16500
H 	H 	0.67180 0.64700 0.42250 0.10300
H 	H 	0.13990 0.34010 0.46520 0.13800
H 	H 	0.04190 0.28890 0.54500 0.11700
H 	H 	0.18860 0.46350 0.37840 0.15800
H 	H 	0.06870 0.39820 0.31390 0.12800
H 	H 	0.97520 0.32820 0.42250 0.16100
H 	H 	0.34010 0.13990 0.03480 0.02900
H 	H 	0.28890 0.04190 0.95500 0.06000
H 	H 	0.46350 0.18860 0.12160 0.14600
H 	H 	0.39820 0.06870 0.18610 0.12400
H 	H 	0.32820 0.97520 0.07750 0.16000
H 	H 	0.86010 0.20020 0.03480 0.05200
H 	H 	0.95810 0.24700 0.95500 0.11800
H 	H 	0.81140 0.27490 0.12160 0.15800
H 	H 	0.93130 0.32950 0.18610 0.17800
H 	H 	0.02480 0.35300 0.07750 0.03400
H 	H 	0.79980 0.65990 0.03480 0.06800
H 	H 	0.75300 0.71110 0.95500 0.11300
H 	H 	0.72510 0.53650 0.12160 0.15900
H 	H 	0.67050 0.60180 0.18610 0.16100
H 	H 	0.64700 0.67180 0.07750 0.10300
C 	C 	0.72660 0.18020 0.43530 0.38500
C 	C 	0.74310 0.09470 0.49150 -0.35000
C 	C 	0.66610 0.11290 0.63770 -0.38000
C 	C 	0.55910 0.12020 0.65850 0.43600
C 	C 	0.45360 0.27340 0.43530 0.38800
C 	C 	0.35160 0.25690 0.49150 -0.35100
C 	C 	0.44680 0.33390 0.63770 -0.39500
C 	C 	0.56110 0.44090 0.65850 0.44300
C 	C 	0.81980 0.54640 0.43530 0.40600
C 	C 	0.90530 0.64840 0.49150 -0.38100
C 	C 	0.88710 0.55320 0.63770 -0.41500
C 	C 	0.87980 0.43890 0.65850 0.45400
C 	C 	0.54640 0.81980 0.06470 0.45300
C 	C 	0.64840 0.90530 0.00850 -0.58500
C 	C 	0.55320 0.88710 0.86230 -0.42400
C 	C 	0.43890 0.87980 0.84150 0.46000
C 	C 	0.18020 0.72660 0.06470 0.43300
C 	C 	0.09470 0.74310 0.00850 -0.55900
C 	C 	0.11290 0.66610 0.86230 -0.38900
C 	C 	0.12020 0.55910 0.84150 0.44200
C 	C 	0.27340 0.45360 0.06470 0.44000
C 	C 	0.25690 0.35160 0.00850 -0.57000
C 	C 	0.33390 0.44680 0.86230 -0.40500
C 	C 	0.44090 0.56110 0.84150 0.45000
C 	C 	0.27340 0.81980 0.56470 0.40100
C 	C 	0.25690 0.90530 0.50850 -0.37000
C 	C 	0.33390 0.88710 0.36230 -0.41200
C 	C 	0.44090 0.87980 0.34150 0.45300
C 	C 	0.54640 0.72660 0.56470 0.39800
C 	C 	0.64840 0.74310 0.50850 -0.37300
C 	C 	0.55320 0.66610 0.36230 -0.40100
C 	C 	0.43890 0.55910 0.34150 0.44600
C 	C 	0.18020 0.45360 0.56470 0.38000
C 	C 	0.09470 0.35160 0.50850 -0.33900
C 	C 	0.11290 0.44680 0.36230 -0.37500
C 	C 	0.12020 0.56110 0.34150 0.43300
C 	C 	0.45360 0.18020 0.93530 0.32800
C 	C 	0.35160 0.09470 0.99150 -0.11400
C 	C 	0.44680 0.11290 0.13770 -0.36100
C 	C 	0.56110 0.12020 0.15850 0.42500
C 	C 	0.81980 0.27340 0.93530 0.35200
C 	C 	0.90530 0.25690 0.99150 -0.15600
C 	C 	0.88710 0.33390 0.13770 -0.39800
C 	C 	0.87980 0.44090 0.15850 0.44500
C 	C 	0.72660 0.54640 0.93530 0.34800
C 	C 	0.74310 0.64840 0.99150 -0.16000
C 	C 	0.66610 0.55320 0.13770 -0.38700
C 	C 	0.55910 0.43890 0.15850 0.43800
N 	N 	0.64990 0.03880 0.55890 -0.20900
N 	N 	0.38890 0.35010 0.55890 -0.15600
N 	N 	0.96120 0.61110 0.55890 -0.09000
N 	N 	0.61110 0.96120 0.94110 -0.04300
N 	N 	0.03880 0.64990 0.94110 -0.15800
N 	N 	0.35010 0.38890 0.94110 -0.10100
N 	N 	0.35010 0.96120 0.44110 -0.09300
N 	N 	0.61110 0.64990 0.44110 -0.15300
N 	N 	0.03880 0.38890 0.44110 -0.21400
N 	N 	0.38890 0.03880 0.05890 -0.26200
N 	N 	0.96120 0.35010 0.05890 -0.13800
N 	N 	0.64990 0.61110 0.05890 -0.20000
O 	O 	0.63620 0.18410 0.44730 -0.46300
O 	O 	0.80020 0.24060 0.37800 -0.37300
O 	O 	0.47450 0.07030 0.60680 -0.43900
O 	O 	0.56210 0.17610 0.72610 -0.44700
O 	O 	0.54790 0.36380 0.44730 -0.46100
O 	O 	0.44040 0.19980 0.37800 -0.38700
O 	O 	0.59580 0.52550 0.60680 -0.41600
O 	O 	0.61400 0.43790 0.72610 -0.43800
O 	O 	0.81590 0.45210 0.44730 -0.45300
O 	O 	0.75940 0.55960 0.37800 -0.37500
O 	O 	0.92970 0.40420 0.60680 -0.38800
O 	O 	0.82390 0.38600 0.72610 -0.43400
O 	O 	0.45210 0.81590 0.05270 -0.48200
O 	O 	0.55960 0.75940 0.12200 -0.39500
O 	O 	0.40420 0.92970 0.89320 -0.37400
O 	O 	0.38600 0.82390 0.77390 -0.43300
O 	O 	0.18410 0.63620 0.05270 -0.49300
O 	O 	0.24060 0.80020 0.12200 -0.39400
O 	O 	0.07030 0.47450 0.89320 -0.42300
O 	O 	0.17610 0.56210 0.77390 -0.44700
O 	O 	0.36380 0.54790 0.05270 -0.49100
O 	O 	0.19980 0.44040 0.12200 -0.40800
O 	O 	0.52550 0.59580 0.89320 -0.40000
O 	O 	0.43790 0.61400 0.77390 -0.43800
O 	O 	0.36380 0.81590 0.55270 -0.45300
O 	O 	0.19980 0.75940 0.62200 -0.38300
O 	O 	0.52550 0.92970 0.39320 -0.38700
O 	O 	0.43790 0.82390 0.27390 -0.43100
O 	O 	0.45210 0.63620 0.55270 -0.46200
O 	O 	0.55960 0.80020 0.62200 -0.36900
O 	O 	0.40420 0.47450 0.39320 -0.42100
O 	O 	0.38600 0.56210 0.27390 -0.44100
O 	O 	0.18410 0.54790 0.55270 -0.46300
O 	O 	0.24060 0.44040 0.62200 -0.38200
O 	O 	0.07030 0.59580 0.39320 -0.43800
O 	O 	0.17610 0.61400 0.27390 -0.44500
O 	O 	0.54790 0.18410 0.94730 -0.42600
O 	O 	0.44040 0.24060 0.87800 -0.35900
O 	O 	0.59580 0.07030 0.10680 -0.44400
O 	O 	0.61400 0.17610 0.22610 -0.44500
O 	O 	0.81590 0.36380 0.94730 -0.41700
O 	O 	0.75940 0.19980 0.87800 -0.36000
O 	O 	0.92970 0.52550 0.10680 -0.39300
O 	O 	0.82390 0.43790 0.22610 -0.43100
O 	O 	0.63620 0.45210 0.94730 -0.42600
O 	O 	0.80020 0.55960 0.87800 -0.34800
O 	O 	0.47450 0.40420 0.10680 -0.42800
O 	O 	0.56210 0.38600 0.22610 -0.44100
