data_crystal

_cell_length_a 13.51560
_cell_length_b 13.51560
_cell_length_c 14.87200
_cell_angle_alpha 90.00000
_cell_angle_beta  90.00000
_cell_angle_gamma 120.00000

_symmetry_space_group_name_	'P 1'
_symmetry_space_group_name_H-M	'P 1'

loop_
_symmetry_equiv_pos_as_xyz
  x,y,z

loop_
_atom_site_label
_atom_site_type_symbol
_atom_site_fract_x
_atom_site_fract_y
_atom_site_fract_z
_atom_site_charge
La	La	0.66667 0.33334 0.33177 1.72700
La	La	0.33333 0.66666 0.16823 1.72900
La	La	0.33333 0.66666 0.66823 1.73000
La	La	0.66667 0.33334 0.83177 1.72900
Cu	Cu	0.50000 0.00000 0.50000 0.90100
Cu	Cu	0.50000 0.50000 0.50000 0.92800
Cu	Cu	-0.00000 0.50000 0.50000 0.89900
Cu	Cu	0.50000 0.00000 -0.00000 0.87300
Cu	Cu	-0.00000 0.50000 -0.00000 0.87200
Cu	Cu	0.50000 0.50000 -0.00000 0.90200
H 	H 	0.75620 0.04390 0.45720 0.13400
H 	H 	0.64780 0.97810 0.57600 0.16100
H 	H 	0.79760 0.14330 0.53550 0.15500
H 	H 	0.72470 0.18770 0.61950 0.16100
H 	H 	0.66980 0.06730 0.68520 0.13100
H 	H 	0.28770 0.24380 0.45720 0.13900
H 	H 	0.33030 0.35220 0.57600 0.09500
H 	H 	0.34570 0.20240 0.53550 0.14200
H 	H 	0.46300 0.27530 0.61950 0.16000
H 	H 	0.39750 0.33020 0.68520 0.14900
H 	H 	0.95610 0.71230 0.45720 0.19100
H 	H 	0.02190 0.66970 0.57600 0.03700
H 	H 	0.85670 0.65430 0.53550 0.17200
H 	H 	0.81230 0.53700 0.61950 0.17100
H 	H 	0.93270 0.60250 0.68520 0.18400
H 	H 	0.71230 0.95610 0.04280 0.24400
H 	H 	0.66970 0.02190 0.92400 0.04200
H 	H 	0.65430 0.85670 0.96450 0.27100
H 	H 	0.53700 0.81230 0.88050 0.18100
H 	H 	0.60250 0.93270 0.81480 0.18700
H 	H 	0.04390 0.75620 0.04280 0.18900
H 	H 	0.97810 0.64780 0.92400 0.16200
H 	H 	0.14330 0.79760 0.96450 0.25600
H 	H 	0.18770 0.72470 0.88050 0.17100
H 	H 	0.06730 0.66980 0.81480 0.13400
H 	H 	0.24380 0.28770 0.04280 0.19700
H 	H 	0.35220 0.33030 0.92400 0.09500
H 	H 	0.20240 0.34570 0.96450 0.24800
H 	H 	0.27530 0.46300 0.88050 0.17100
H 	H 	0.33020 0.39750 0.81480 0.15300
H 	H 	0.24380 0.95610 0.54280 0.17500
H 	H 	0.35220 0.02190 0.42400 0.03500
H 	H 	0.20240 0.85670 0.46450 0.15600
H 	H 	0.27530 0.81230 0.38050 0.16700
H 	H 	0.33020 0.93270 0.31480 0.17700
H 	H 	0.71230 0.75620 0.54280 0.17100
H 	H 	0.66970 0.64780 0.42400 0.10200
H 	H 	0.65430 0.79760 0.46450 0.17100
H 	H 	0.53700 0.72470 0.38050 0.16800
H 	H 	0.60250 0.66980 0.31480 0.16000
H 	H 	0.04390 0.28770 0.54280 0.11800
H 	H 	0.97810 0.33030 0.42400 0.16100
H 	H 	0.14330 0.34570 0.46450 0.13900
H 	H 	0.18770 0.46300 0.38050 0.15600
H 	H 	0.06730 0.39750 0.31480 0.12300
H 	H 	0.28770 0.04390 0.95720 0.06100
H 	H 	0.33030 0.97810 0.07600 0.16000
H 	H 	0.34570 0.14330 0.03550 0.03100
H 	H 	0.46300 0.18770 0.11950 0.14400
H 	H 	0.39750 0.06730 0.18520 0.11900
H 	H 	0.95610 0.24380 0.95720 0.12000
H 	H 	0.02190 0.35220 0.07600 0.03400
H 	H 	0.85670 0.20240 0.03550 0.05300
H 	H 	0.81230 0.27530 0.11950 0.15500
H 	H 	0.93270 0.33020 0.18520 0.17300
H 	H 	0.75620 0.71230 0.95720 0.11500
H 	H 	0.64780 0.66970 0.07600 0.10300
H 	H 	0.79760 0.65430 0.03550 0.06800
H 	H 	0.72470 0.53700 0.11950 0.15600
H 	H 	0.66980 0.60250 0.18520 0.15500
C 	C 	0.72750 0.18010 0.43410 0.38200
C 	C 	0.74350 0.09640 0.49110 -0.35200
C 	C 	0.66650 0.11240 0.63660 -0.37200
C 	C 	0.55990 0.12110 0.65660 0.42800
C 	C 	0.45260 0.27250 0.43410 0.38700
C 	C 	0.35290 0.25650 0.49110 -0.35500
C 	C 	0.44590 0.33350 0.63660 -0.38700
C 	C 	0.56120 0.44010 0.65660 0.43500
C 	C 	0.81990 0.54740 0.43410 0.40400
C 	C 	0.90360 0.64710 0.49110 -0.38500
C 	C 	0.88760 0.55410 0.63660 -0.40500
C 	C 	0.87890 0.43880 0.65660 0.44500
C 	C 	0.54740 0.81990 0.06590 0.45300
C 	C 	0.64710 0.90360 0.00890 -0.59100
C 	C 	0.55410 0.88760 0.86340 -0.41600
C 	C 	0.43880 0.87890 0.84340 0.45200
C 	C 	0.18010 0.72750 0.06590 0.43200
C 	C 	0.09640 0.74350 0.00890 -0.56300
C 	C 	0.11240 0.66650 0.86340 -0.38400
C 	C 	0.12110 0.55990 0.84340 0.43400
C 	C 	0.27250 0.45260 0.06590 0.43900
C 	C 	0.25650 0.35290 0.00890 -0.57400
C 	C 	0.33350 0.44590 0.86340 -0.39900
C 	C 	0.44010 0.56120 0.84340 0.44200
C 	C 	0.27250 0.81990 0.56590 0.40000
C 	C 	0.25650 0.90360 0.50890 -0.37400
C 	C 	0.33350 0.88760 0.36340 -0.40200
C 	C 	0.44010 0.87890 0.34340 0.44400
C 	C 	0.54740 0.72750 0.56590 0.39600
C 	C 	0.64710 0.74350 0.50890 -0.37600
C 	C 	0.55410 0.66650 0.36340 -0.39200
C 	C 	0.43880 0.55990 0.34340 0.43800
C 	C 	0.18010 0.45260 0.56590 0.37700
C 	C 	0.09640 0.35290 0.50890 -0.34100
C 	C 	0.11240 0.44590 0.36340 -0.36800
C 	C 	0.12110 0.56120 0.34340 0.42600
C 	C 	0.45260 0.18010 0.93410 0.32400
C 	C 	0.35290 0.09640 0.99110 -0.11500
C 	C 	0.44590 0.11240 0.13660 -0.35200
C 	C 	0.56120 0.12110 0.15660 0.41700
C 	C 	0.81990 0.27250 0.93410 0.34900
C 	C 	0.90360 0.25650 0.99110 -0.15900
C 	C 	0.88760 0.33350 0.13660 -0.38600
C 	C 	0.87890 0.44010 0.15660 0.43600
C 	C 	0.72750 0.54740 0.93410 0.34500
C 	C 	0.74350 0.64710 0.99110 -0.16200
C 	C 	0.66650 0.55410 0.13660 -0.37600
C 	C 	0.55990 0.43880 0.15660 0.42900
N 	N 	0.65090 0.04150 0.55700 -0.20900
N 	N 	0.39060 0.34910 0.55700 -0.15600
N 	N 	0.95850 0.60940 0.55700 -0.08900
N 	N 	0.60940 0.95850 0.94300 -0.04100
N 	N 	0.04150 0.65090 0.94300 -0.15600
N 	N 	0.34910 0.39060 0.94300 -0.09900
N 	N 	0.34910 0.95850 0.44300 -0.09300
N 	N 	0.60940 0.65090 0.44300 -0.15200
N 	N 	0.04150 0.39060 0.44300 -0.21300
N 	N 	0.39060 0.04150 0.05700 -0.26300
N 	N 	0.95850 0.34910 0.05700 -0.14000
N 	N 	0.65090 0.60940 0.05700 -0.20200
O 	O 	0.63500 0.18280 0.44500 -0.45900
O 	O 	0.80090 0.24110 0.37790 -0.37300
O 	O 	0.47540 0.07250 0.60560 -0.43800
O 	O 	0.56320 0.17700 0.72480 -0.44200
O 	O 	0.54780 0.36500 0.44500 -0.45600
O 	O 	0.44020 0.19910 0.37790 -0.38700
O 	O 	0.59710 0.52460 0.60560 -0.41500
O 	O 	0.61380 0.43680 0.72480 -0.43300
O 	O 	0.81720 0.45220 0.44500 -0.44800
O 	O 	0.75890 0.55980 0.37790 -0.37500
O 	O 	0.92750 0.40290 0.60560 -0.38800
O 	O 	0.82300 0.38620 0.72480 -0.42800
O 	O 	0.45220 0.81720 0.05500 -0.47700
O 	O 	0.55980 0.75890 0.12210 -0.39600
O 	O 	0.40290 0.92750 0.89440 -0.37400
O 	O 	0.38620 0.82300 0.77520 -0.42800
O 	O 	0.18280 0.63500 0.05500 -0.48900
O 	O 	0.24110 0.80090 0.12210 -0.39400
O 	O 	0.07250 0.47540 0.89440 -0.42200
O 	O 	0.17700 0.56320 0.77520 -0.44200
O 	O 	0.36500 0.54780 0.05500 -0.48600
O 	O 	0.19910 0.44020 0.12210 -0.40900
O 	O 	0.52460 0.59710 0.89440 -0.39900
O 	O 	0.43680 0.61380 0.77520 -0.43300
O 	O 	0.36500 0.81720 0.55500 -0.44800
O 	O 	0.19910 0.75890 0.62210 -0.38300
O 	O 	0.52460 0.92750 0.39440 -0.38700
O 	O 	0.43680 0.82300 0.27520 -0.42600
O 	O 	0.45220 0.63500 0.55500 -0.45700
O 	O 	0.55980 0.80090 0.62210 -0.36900
O 	O 	0.40290 0.47540 0.39440 -0.42000
O 	O 	0.38620 0.56320 0.27520 -0.43500
O 	O 	0.18280 0.54780 0.55500 -0.45900
O 	O 	0.24110 0.44020 0.62210 -0.38200
O 	O 	0.07250 0.59710 0.39440 -0.43600
O 	O 	0.17700 0.61380 0.27520 -0.43900
O 	O 	0.54780 0.18280 0.94500 -0.42200
O 	O 	0.44020 0.24110 0.87790 -0.35800
O 	O 	0.59710 0.07250 0.10560 -0.44200
O 	O 	0.61380 0.17700 0.22480 -0.43900
O 	O 	0.81720 0.36500 0.94500 -0.41300
O 	O 	0.75890 0.19910 0.87790 -0.36000
O 	O 	0.92750 0.52460 0.10560 -0.39200
O 	O 	0.82300 0.43680 0.22480 -0.42500
O 	O 	0.63500 0.45220 0.94500 -0.42100
O 	O 	0.80090 0.55980 0.87790 -0.34700
O 	O 	0.47540 0.40290 0.10560 -0.42700
O 	O 	0.56320 0.38620 0.22480 -0.43600
