data_crystal

_cell_length_a 13.50450
_cell_length_b 13.50450
_cell_length_c 14.83600
_cell_angle_alpha 90.00000
_cell_angle_beta  90.00000
_cell_angle_gamma 120.00000

_symmetry_space_group_name_	'P 1'
_symmetry_space_group_name_H-M	'P 1'

loop_
_symmetry_equiv_pos_as_xyz
  x,y,z

loop_
_atom_site_label
_atom_site_type_symbol
_atom_site_fract_x
_atom_site_fract_y
_atom_site_fract_z
_atom_site_charge
La	La	0.33333 0.66666 0.83240 1.73400
La	La	0.66667 0.33334 0.66760 1.72500
La	La	0.66667 0.33334 0.16760 1.72300
La	La	0.33333 0.66666 0.33240 1.73300
Cu	Cu	0.50000 0.00000 -0.00000 0.86700
Cu	Cu	0.50000 0.50000 -0.00000 0.90300
Cu	Cu	1.00000 0.50000 -0.00000 0.86700
Cu	Cu	0.50000 0.00000 0.50000 0.89500
Cu	Cu	1.00000 0.50000 0.50000 0.89500
Cu	Cu	0.50000 0.50000 0.50000 0.93000
H 	H 	0.24640 0.95710 0.95450 0.14600
H 	H 	0.20190 0.85680 0.03420 0.08400
H 	H 	0.32910 0.93200 0.18570 0.19400
H 	H 	0.27420 0.81210 0.12080 0.17000
H 	H 	0.35280 0.02380 0.07700 0.02500
H 	H 	0.71070 0.75360 0.95450 0.09900
H 	H 	0.65490 0.79810 0.03420 0.05800
H 	H 	0.60290 0.67090 0.18570 0.15800
H 	H 	0.53790 0.72580 0.12080 0.16100
H 	H 	0.67100 0.64720 0.07700 0.09900
H 	H 	0.04290 0.28930 0.95450 0.12400
H 	H 	0.14320 0.34510 0.03420 0.06000
H 	H 	0.06800 0.39710 0.18570 0.18600
H 	H 	0.18790 0.46210 0.12080 0.16500
H 	H 	0.97620 0.32900 0.07700 0.02100
H 	H 	0.28930 0.04290 0.54550 0.12700
H 	H 	0.34510 0.14320 0.46580 0.14900
H 	H 	0.39710 0.06800 0.31430 0.13000
H 	H 	0.46210 0.18790 0.37920 0.16200
H 	H 	0.32900 0.97620 0.42300 0.17700
H 	H 	0.95710 0.24640 0.54550 0.10900
H 	H 	0.85680 0.20190 0.46580 0.13100
H 	H 	0.93200 0.32910 0.31430 0.12300
H 	H 	0.81210 0.27420 0.37920 0.15700
H 	H 	0.02380 0.35280 0.42300 0.17200
H 	H 	0.75360 0.71070 0.54550 0.15300
H 	H 	0.79810 0.65490 0.46580 0.15100
H 	H 	0.67090 0.60290 0.31430 0.16000
H 	H 	0.72580 0.53790 0.37920 0.16800
H 	H 	0.64720 0.67100 0.42300 0.09800
H 	H 	0.75360 0.04290 0.04550 0.17000
H 	H 	0.79810 0.14320 0.96580 0.24500
H 	H 	0.67090 0.06800 0.81430 0.12800
H 	H 	0.72580 0.18790 0.87920 0.16900
H 	H 	0.64720 0.97620 0.92300 0.16900
H 	H 	0.28930 0.24640 0.04550 0.21200
H 	H 	0.34510 0.20190 0.96580 0.26200
H 	H 	0.39710 0.32910 0.81430 0.16400
H 	H 	0.46210 0.27420 0.87920 0.17900
H 	H 	0.32900 0.35280 0.92300 0.09900
H 	H 	0.95710 0.71070 0.04550 0.18700
H 	H 	0.85680 0.65490 0.96580 0.26000
H 	H 	0.93200 0.60290 0.81430 0.13500
H 	H 	0.81210 0.53790 0.87920 0.17400
H 	H 	0.02380 0.67100 0.92300 0.17300
H 	H 	0.71070 0.95710 0.45450 0.18200
H 	H 	0.65490 0.85680 0.53420 0.16700
H 	H 	0.60290 0.93200 0.68570 0.19100
H 	H 	0.53790 0.81210 0.62080 0.17600
H 	H 	0.67100 0.02380 0.57700 0.02200
H 	H 	0.04290 0.75360 0.45450 0.20000
H 	H 	0.14320 0.79810 0.53420 0.18500
H 	H 	0.06800 0.67090 0.68570 0.19800
H 	H 	0.18790 0.72580 0.62080 0.18100
H 	H 	0.97620 0.64720 0.57700 0.02700
H 	H 	0.24640 0.28930 0.45450 0.15800
H 	H 	0.20190 0.34510 0.53420 0.16700
H 	H 	0.32910 0.39710 0.68570 0.16300
H 	H 	0.27420 0.46210 0.62080 0.17300
H 	H 	0.35280 0.32900 0.57700 0.09800
C 	C 	0.27350 0.82050 0.93470 0.35700
C 	C 	0.25690 0.90480 0.99140 -0.18400
C 	C 	0.33290 0.88720 0.13760 -0.41300
C 	C 	0.43940 0.87920 0.15790 0.44700
C 	C 	0.54700 0.72650 0.93470 0.33900
C 	C 	0.64790 0.74310 0.99140 -0.14800
C 	C 	0.55430 0.66710 0.13760 -0.39100
C 	C 	0.43980 0.56060 0.15790 0.43500
C 	C 	0.17950 0.45300 0.93470 0.35000
C 	C 	0.09520 0.35210 0.99140 -0.16200
C 	C 	0.11280 0.44570 0.13760 -0.40900
C 	C 	0.12080 0.56020 0.15790 0.44500
C 	C 	0.45300 0.17950 0.56530 0.37700
C 	C 	0.35210 0.09520 0.50860 -0.34900
C 	C 	0.44570 0.11280 0.36240 -0.38200
C 	C 	0.56020 0.12080 0.34210 0.43200
C 	C 	0.82050 0.27350 0.56530 0.37300
C 	C 	0.90480 0.25690 0.50860 -0.33700
C 	C 	0.88720 0.33290 0.36240 -0.37800
C 	C 	0.87920 0.43940 0.34210 0.43000
C 	C 	0.72650 0.54700 0.56530 0.38800
C 	C 	0.74310 0.64790 0.50860 -0.36400
C 	C 	0.66710 0.55430 0.36240 -0.40500
C 	C 	0.56060 0.43980 0.34210 0.44400
C 	C 	0.72650 0.17950 0.06530 0.42600
C 	C 	0.74310 0.09520 0.00860 -0.56800
C 	C 	0.66710 0.11280 0.86240 -0.39200
C 	C 	0.56060 0.12080 0.84210 0.43800
C 	C 	0.45300 0.27350 0.06530 0.44000
C 	C 	0.35210 0.25690 0.00860 -0.58800
C 	C 	0.44570 0.33290 0.86240 -0.41700
C 	C 	0.56020 0.43940 0.84210 0.45100
C 	C 	0.82050 0.54700 0.06530 0.43000
C 	C 	0.90480 0.64790 0.00860 -0.57500
C 	C 	0.88720 0.55430 0.86240 -0.39500
C 	C 	0.87920 0.43980 0.84210 0.44000
C 	C 	0.54700 0.82050 0.43470 0.40000
C 	C 	0.64790 0.90480 0.49140 -0.38200
C 	C 	0.55430 0.88720 0.63760 -0.42400
C 	C 	0.43980 0.87920 0.65790 0.45300
C 	C 	0.17950 0.72650 0.43470 0.40500
C 	C 	0.09520 0.74310 0.49140 -0.39400
C 	C 	0.11280 0.66710 0.63760 -0.42800
C 	C 	0.12080 0.56060 0.65790 0.45500
C 	C 	0.27350 0.45300 0.43470 0.39000
C 	C 	0.25690 0.35210 0.49140 -0.37200
C 	C 	0.33290 0.44570 0.63760 -0.40700
C 	C 	0.43940 0.56020 0.65790 0.44400
N 	N 	0.34960 0.96010 0.05830 -0.12100
N 	N 	0.61050 0.65040 0.05830 -0.20200
N 	N 	0.03990 0.38950 0.05830 -0.12500
N 	N 	0.38950 0.03990 0.44170 -0.22100
N 	N 	0.96010 0.34960 0.44170 -0.22300
N 	N 	0.65040 0.61050 0.44170 -0.15300
N 	N 	0.65040 0.03990 0.94170 -0.16300
N 	N 	0.38950 0.34960 0.94170 -0.09700
N 	N 	0.96010 0.61050 0.94170 -0.16200
N 	N 	0.61050 0.96010 0.55830 -0.07700
N 	N 	0.03990 0.65040 0.55830 -0.07500
N 	N 	0.34960 0.38950 0.55830 -0.15100
O 	O 	0.19930 0.75860 0.87830 -0.34400
O 	O 	0.36460 0.81660 0.94630 -0.41500
O 	O 	0.43790 0.82400 0.22520 -0.43000
O 	O 	0.52470 0.92840 0.10630 -0.38800
O 	O 	0.55930 0.80070 0.87830 -0.34800
O 	O 	0.45200 0.63540 0.94630 -0.42300
O 	O 	0.38610 0.56210 0.22520 -0.43800
O 	O 	0.40370 0.47530 0.10630 -0.42300
O 	O 	0.24140 0.44070 0.87830 -0.35400
O 	O 	0.18340 0.54800 0.94630 -0.41400
O 	O 	0.17600 0.61390 0.22520 -0.42800
O 	O 	0.07160 0.59630 0.10630 -0.38400
O 	O 	0.44070 0.24140 0.62170 -0.37800
O 	O 	0.54800 0.18340 0.55370 -0.46100
O 	O 	0.61390 0.17600 0.27480 -0.44700
O 	O 	0.59630 0.07160 0.39370 -0.44200
O 	O 	0.75860 0.19930 0.62170 -0.38800
O 	O 	0.81660 0.36460 0.55370 -0.46000
O 	O 	0.82400 0.43790 0.27480 -0.44500
O 	O 	0.92840 0.52470 0.39370 -0.43900
O 	O 	0.80070 0.55930 0.62170 -0.38300
O 	O 	0.63540 0.45200 0.55370 -0.45800
O 	O 	0.56210 0.38610 0.27480 -0.43800
O 	O 	0.47530 0.40370 0.39370 -0.41600
O 	O 	0.80070 0.24140 0.12170 -0.41100
O 	O 	0.63540 0.18340 0.05370 -0.49200
O 	O 	0.56210 0.17600 0.77480 -0.44500
O 	O 	0.47530 0.07160 0.89370 -0.42100
O 	O 	0.44070 0.19930 0.12170 -0.40600
O 	O 	0.54800 0.36460 0.05370 -0.48800
O 	O 	0.61390 0.43790 0.77480 -0.43900
O 	O 	0.59630 0.52470 0.89370 -0.40000
O 	O 	0.75860 0.55930 0.12170 -0.40100
O 	O 	0.81660 0.45200 0.05370 -0.49200
O 	O 	0.82400 0.38610 0.77480 -0.44700
O 	O 	0.92840 0.40370 0.89370 -0.42400
O 	O 	0.55930 0.75860 0.37830 -0.37800
O 	O 	0.45200 0.81660 0.44630 -0.44800
O 	O 	0.38610 0.82400 0.72520 -0.42900
O 	O 	0.40370 0.92840 0.60630 -0.37900
O 	O 	0.24140 0.80070 0.37830 -0.36600
O 	O 	0.18340 0.63540 0.44630 -0.44900
O 	O 	0.17600 0.56210 0.72520 -0.43100
O 	O 	0.07160 0.47530 0.60630 -0.38200
O 	O 	0.19930 0.44070 0.37830 -0.37100
O 	O 	0.36460 0.54800 0.44630 -0.45900
O 	O 	0.43790 0.61390 0.72520 -0.43900
O 	O 	0.52470 0.59630 0.60630 -0.41700
