data_crystal

_cell_length_a 13.38190
_cell_length_b 13.38190
_cell_length_c 14.93300
_cell_angle_alpha 90.00000
_cell_angle_beta  90.00000
_cell_angle_gamma 120.00000

_symmetry_space_group_name_	'P 1'
_symmetry_space_group_name_H-M	'P 1'

loop_
_symmetry_equiv_pos_as_xyz
  x,y,z

loop_
_atom_site_label
_atom_site_type_symbol
_atom_site_fract_x
_atom_site_fract_y
_atom_site_fract_z
_atom_site_charge
La	La	0.33333 0.66666 0.67018 1.73100
La	La	0.66667 0.33334 0.82982 1.73100
La	La	0.66667 0.33334 0.32982 1.72800
La	La	0.33333 0.66666 0.17018 1.72900
Cu	Cu	0.50000 0.50000 0.50000 0.93100
Cu	Cu	-0.00000 0.50000 0.50000 0.90100
Cu	Cu	0.50000 0.00000 0.50000 0.90200
Cu	Cu	-0.00000 0.50000 -0.00000 0.87300
Cu	Cu	0.50000 0.50000 -0.00000 0.90300
Cu	Cu	0.50000 0.00000 -0.00000 0.87400
H 	H 	0.19960 0.34600 0.46380 0.13200
H 	H 	0.24170 0.28360 0.54260 0.13200
H 	H 	0.27220 0.45930 0.37980 0.16800
H 	H 	0.32950 0.39480 0.31580 0.15800
H 	H 	0.35310 0.32700 0.42460 0.09800
H 	H 	0.14640 0.80040 0.46380 0.14600
H 	H 	0.04190 0.75830 0.54260 0.12600
H 	H 	0.18710 0.72780 0.37980 0.16800
H 	H 	0.06530 0.67050 0.31580 0.13800
H 	H 	0.97390 0.64690 0.42460 0.16700
H 	H 	0.65400 0.85360 0.46380 0.16000
H 	H 	0.71640 0.95810 0.54260 0.18200
H 	H 	0.54070 0.81290 0.37980 0.17900
H 	H 	0.60520 0.93470 0.31580 0.19400
H 	H 	0.67300 0.02610 0.42460 0.04300
H 	H 	0.85360 0.65400 0.03620 0.06100
H 	H 	0.95810 0.71640 0.95740 0.13000
H 	H 	0.81290 0.54070 0.12020 0.16900
H 	H 	0.93470 0.60520 0.18420 0.19000
H 	H 	0.02610 0.67300 0.07540 0.04100
H 	H 	0.34600 0.19960 0.03620 0.02700
H 	H 	0.28360 0.24170 0.95740 0.07700
H 	H 	0.45930 0.27220 0.12020 0.15700
H 	H 	0.39480 0.32950 0.18420 0.15300
H 	H 	0.32700 0.35310 0.07540 0.09800
H 	H 	0.80040 0.14640 0.03620 0.04400
H 	H 	0.75830 0.04190 0.95740 0.07400
H 	H 	0.72780 0.18710 0.12020 0.15700
H 	H 	0.67050 0.06530 0.18420 0.13500
H 	H 	0.64690 0.97390 0.07540 0.16600
H 	H 	0.80040 0.65400 0.53620 0.16100
H 	H 	0.75830 0.71640 0.45740 0.16200
H 	H 	0.72780 0.54070 0.62020 0.17700
H 	H 	0.67050 0.60520 0.68420 0.17100
H 	H 	0.64690 0.67300 0.57540 0.10600
H 	H 	0.85360 0.19960 0.53620 0.14700
H 	H 	0.95810 0.24170 0.45740 0.16800
H 	H 	0.81290 0.27220 0.62020 0.17500
H 	H 	0.93470 0.32950 0.68420 0.18800
H 	H 	0.02610 0.35310 0.57540 0.03800
H 	H 	0.34600 0.14640 0.53620 0.13200
H 	H 	0.28360 0.04190 0.45740 0.11200
H 	H 	0.45930 0.18710 0.62020 0.16400
H 	H 	0.39480 0.06530 0.68420 0.13400
H 	H 	0.32700 0.97390 0.57540 0.16100
H 	H 	0.14640 0.34600 0.96380 0.23600
H 	H 	0.04190 0.28360 0.04260 0.16600
H 	H 	0.18710 0.45930 0.87980 0.17400
H 	H 	0.06530 0.39480 0.81580 0.13700
H 	H 	0.97390 0.32700 0.92460 0.16200
H 	H 	0.65400 0.80040 0.96380 0.26000
H 	H 	0.71640 0.75830 0.04260 0.21400
H 	H 	0.54070 0.72780 0.87980 0.18600
H 	H 	0.60520 0.67050 0.81580 0.17400
H 	H 	0.67300 0.64690 0.92460 0.10700
H 	H 	0.19960 0.85360 0.96380 0.24500
H 	H 	0.24170 0.95810 0.04260 0.21800
H 	H 	0.27220 0.81290 0.87980 0.18400
H 	H 	0.32950 0.93470 0.81580 0.19000
H 	H 	0.35310 0.02610 0.92460 0.04300
C 	C 	0.27010 0.45000 0.56710 0.38700
C 	C 	0.25350 0.34930 0.50820 -0.33300
C 	C 	0.33280 0.44440 0.36330 -0.41000
C 	C 	0.43860 0.56000 0.34370 0.45500
C 	C 	0.17990 0.72990 0.56710 0.38200
C 	C 	0.09580 0.74650 0.50820 -0.32900
C 	C 	0.11160 0.66720 0.36330 -0.39400
C 	C 	0.12140 0.56140 0.34370 0.44700
C 	C 	0.55000 0.82010 0.56710 0.40200
C 	C 	0.65070 0.90420 0.50820 -0.35700
C 	C 	0.55560 0.88840 0.36330 -0.43000
C 	C 	0.44000 0.87860 0.34370 0.46700
C 	C 	0.82010 0.55000 0.93290 0.35700
C 	C 	0.90420 0.65070 0.99180 -0.15300
C 	C 	0.88840 0.55560 0.13670 -0.41700
C 	C 	0.87860 0.44000 0.15630 0.45900
C 	C 	0.45000 0.27010 0.93290 0.33900
C 	C 	0.34930 0.25350 0.99180 -0.11600
C 	C 	0.44440 0.33280 0.13670 -0.39600
C 	C 	0.56000 0.43860 0.15630 0.44700
C 	C 	0.72990 0.17990 0.93290 0.33500
C 	C 	0.74650 0.09580 0.99180 -0.11800
C 	C 	0.66720 0.11160 0.13670 -0.38100
C 	C 	0.56140 0.12140 0.15630 0.43900
C 	C 	0.72990 0.55000 0.43290 0.39400
C 	C 	0.74650 0.65070 0.49180 -0.35000
C 	C 	0.66720 0.55560 0.63670 -0.41700
C 	C 	0.56140 0.44000 0.65630 0.45900
C 	C 	0.82010 0.27010 0.43290 0.39900
C 	C 	0.90420 0.25350 0.49180 -0.34900
C 	C 	0.88840 0.33280 0.63670 -0.42700
C 	C 	0.87860 0.43860 0.65630 0.46500
C 	C 	0.45000 0.17990 0.43290 0.37900
C 	C 	0.34930 0.09580 0.49180 -0.32200
C 	C 	0.44440 0.11160 0.63670 -0.39300
C 	C 	0.56000 0.12140 0.65630 0.44600
C 	C 	0.17990 0.45000 0.06710 0.42700
C 	C 	0.09580 0.34930 0.00820 -0.53400
C 	C 	0.11160 0.44440 0.86330 -0.40200
C 	C 	0.12140 0.56000 0.84370 0.45200
C 	C 	0.55000 0.72990 0.06710 0.44000
C 	C 	0.65070 0.74650 0.00820 -0.55300
C 	C 	0.55560 0.66720 0.86330 -0.42600
C 	C 	0.44000 0.56140 0.84370 0.46500
C 	C 	0.27010 0.82010 0.06710 0.44400
C 	C 	0.25350 0.90420 0.00820 -0.55100
C 	C 	0.33280 0.88840 0.86330 -0.43600
C 	C 	0.43860 0.87860 0.84370 0.47100
N 	N 	0.34890 0.38760 0.44300 -0.15900
N 	N 	0.03870 0.65110 0.44300 -0.21500
N 	N 	0.61240 0.96130 0.44300 -0.09500
N 	N 	0.96130 0.61240 0.05700 -0.14000
N 	N 	0.38760 0.34890 0.05700 -0.20900
N 	N 	0.65110 0.03870 0.05700 -0.26200
N 	N 	0.65110 0.61240 0.55700 -0.15600
N 	N 	0.96130 0.34890 0.55700 -0.09400
N 	N 	0.38760 0.03870 0.55700 -0.21400
N 	N 	0.03870 0.38760 0.94300 -0.15900
N 	N 	0.61240 0.65110 0.94300 -0.10300
N 	N 	0.34890 0.96130 0.94300 -0.04600
O 	O 	0.36230 0.54450 0.55780 -0.46300
O 	O 	0.19450 0.43440 0.62300 -0.38300
O 	O 	0.52250 0.59830 0.39640 -0.42300
O 	O 	0.43720 0.61290 0.27590 -0.44400
O 	O 	0.18220 0.63770 0.55780 -0.46600
O 	O 	0.23990 0.80550 0.62300 -0.36900
O 	O 	0.07580 0.47750 0.39640 -0.44600
O 	O 	0.17570 0.56280 0.27590 -0.45300
O 	O 	0.45550 0.81780 0.55780 -0.45500
O 	O 	0.56560 0.76010 0.62300 -0.37000
O 	O 	0.40170 0.92420 0.39640 -0.39700
O 	O 	0.38710 0.82430 0.27590 -0.43900
O 	O 	0.81780 0.45550 0.94220 -0.42000
O 	O 	0.76010 0.56560 0.87700 -0.34900
O 	O 	0.92420 0.40170 0.10360 -0.40300
O 	O 	0.82430 0.38710 0.22410 -0.43900
O 	O 	0.54450 0.36230 0.94220 -0.42700
O 	O 	0.43440 0.19450 0.87700 -0.36100
O 	O 	0.59830 0.52250 0.10360 -0.43000
O 	O 	0.61290 0.43720 0.22410 -0.44400
O 	O 	0.63770 0.18220 0.94220 -0.43000
O 	O 	0.80550 0.23990 0.87700 -0.34700
O 	O 	0.47750 0.07580 0.10360 -0.45300
O 	O 	0.56280 0.17570 0.22410 -0.45300
O 	O 	0.63770 0.45550 0.44220 -0.46400
O 	O 	0.80550 0.56560 0.37700 -0.36400
O 	O 	0.47750 0.40170 0.60360 -0.42700
O 	O 	0.56280 0.38710 0.72410 -0.44800
O 	O 	0.81780 0.36230 0.44220 -0.45400
O 	O 	0.76010 0.19450 0.37700 -0.37900
O 	O 	0.92420 0.52250 0.60360 -0.39400
O 	O 	0.82430 0.43720 0.72410 -0.43800
O 	O 	0.54450 0.18220 0.44220 -0.46600
O 	O 	0.43440 0.23990 0.37700 -0.37900
O 	O 	0.59830 0.07580 0.60360 -0.44200
O 	O 	0.61290 0.17570 0.72410 -0.45200
O 	O 	0.18220 0.54450 0.05780 -0.49600
O 	O 	0.23990 0.43440 0.12300 -0.40000
O 	O 	0.07580 0.59830 0.89640 -0.42500
O 	O 	0.17570 0.61290 0.77590 -0.45200
O 	O 	0.45550 0.63770 0.05780 -0.49300
O 	O 	0.56560 0.80550 0.12300 -0.38400
O 	O 	0.40170 0.47750 0.89640 -0.40900
O 	O 	0.38710 0.56280 0.77590 -0.44800
O 	O 	0.36230 0.81780 0.05780 -0.48300
O 	O 	0.19450 0.76010 0.12300 -0.39900
O 	O 	0.52250 0.92420 0.89640 -0.37800
O 	O 	0.43720 0.82430 0.77590 -0.43800
