data_crystal

_cell_length_a 13.50390
_cell_length_b 13.50390
_cell_length_c 14.89700
_cell_angle_alpha 90.00000
_cell_angle_beta  90.00000
_cell_angle_gamma 120.00000

_symmetry_space_group_name_	'P 1'
_symmetry_space_group_name_H-M	'P 1'

loop_
_symmetry_equiv_pos_as_xyz
  x,y,z

loop_
_atom_site_label
_atom_site_type_symbol
_atom_site_fract_x
_atom_site_fract_y
_atom_site_fract_z
_atom_site_charge
La	La	0.66667 0.33334 0.33090 1.72700
La	La	0.33333 0.66666 0.16910 1.72800
La	La	0.33333 0.66666 0.66910 1.72900
La	La	0.66667 0.33334 0.83090 1.72900
Cu	Cu	0.50000 0.00000 0.50000 0.90000
Cu	Cu	0.50000 0.50000 0.50000 0.92800
Cu	Cu	0.00000 0.50000 0.50000 0.89900
Cu	Cu	0.50000 0.00000 -0.00000 0.87300
Cu	Cu	-0.00000 0.50000 -0.00000 0.87200
Cu	Cu	0.50000 0.50000 -0.00000 0.90200
H 	H 	0.79940 0.14290 0.53400 0.15500
H 	H 	0.75370 0.04250 0.45450 0.13000
H 	H 	0.72620 0.18900 0.62010 0.16200
H 	H 	0.67030 0.06780 0.68410 0.13500
H 	H 	0.64790 0.97680 0.57580 0.16300
H 	H 	0.34350 0.20060 0.53400 0.14100
H 	H 	0.28880 0.24630 0.45450 0.13500
H 	H 	0.46280 0.27380 0.62010 0.16100
H 	H 	0.39750 0.32970 0.68410 0.15300
H 	H 	0.32890 0.35210 0.57580 0.09600
H 	H 	0.85710 0.65650 0.53400 0.17100
H 	H 	0.95750 0.71120 0.45450 0.18600
H 	H 	0.81100 0.53720 0.62010 0.17300
H 	H 	0.93220 0.60250 0.68410 0.18900
H 	H 	0.02320 0.67110 0.57580 0.03800
H 	H 	0.65650 0.85710 0.96600 0.27100
H 	H 	0.71120 0.95750 0.04550 0.23800
H 	H 	0.53720 0.81100 0.87990 0.18300
H 	H 	0.60250 0.93220 0.81590 0.19100
H 	H 	0.67110 0.02320 0.92420 0.04400
H 	H 	0.14290 0.79940 0.96600 0.25700
H 	H 	0.04250 0.75370 0.04550 0.18300
H 	H 	0.18900 0.72620 0.87990 0.17200
H 	H 	0.06780 0.67030 0.81590 0.13800
H 	H 	0.97680 0.64790 0.92420 0.16400
H 	H 	0.20060 0.34350 0.96600 0.24800
H 	H 	0.24630 0.28880 0.04550 0.19200
H 	H 	0.27380 0.46280 0.87990 0.17200
H 	H 	0.32970 0.39750 0.81590 0.15700
H 	H 	0.35210 0.32890 0.92420 0.09600
H 	H 	0.20060 0.85710 0.46600 0.15600
H 	H 	0.24630 0.95750 0.54550 0.17000
H 	H 	0.27380 0.81100 0.37990 0.16800
H 	H 	0.32970 0.93220 0.31590 0.18200
H 	H 	0.35210 0.02320 0.42420 0.03700
H 	H 	0.65650 0.79940 0.46600 0.17100
H 	H 	0.71120 0.75370 0.54550 0.16500
H 	H 	0.53720 0.72620 0.37990 0.17000
H 	H 	0.60250 0.67030 0.31590 0.16500
H 	H 	0.67110 0.64790 0.42420 0.10300
H 	H 	0.14290 0.34350 0.46600 0.13900
H 	H 	0.04250 0.28880 0.54550 0.11400
H 	H 	0.18900 0.46280 0.37990 0.15700
H 	H 	0.06780 0.39750 0.31590 0.12700
H 	H 	0.97680 0.32890 0.42420 0.16200
H 	H 	0.34350 0.14290 0.03400 0.03000
H 	H 	0.28880 0.04250 0.95450 0.05800
H 	H 	0.46280 0.18900 0.12010 0.14500
H 	H 	0.39750 0.06780 0.18410 0.12300
H 	H 	0.32890 0.97680 0.07580 0.16100
H 	H 	0.85710 0.20060 0.03400 0.05200
H 	H 	0.95750 0.24630 0.95450 0.11600
H 	H 	0.81100 0.27380 0.12010 0.15700
H 	H 	0.93220 0.32970 0.18410 0.17800
H 	H 	0.02320 0.35210 0.07580 0.03400
H 	H 	0.79940 0.65650 0.03400 0.06700
H 	H 	0.75370 0.71120 0.95450 0.11100
H 	H 	0.72620 0.53720 0.12010 0.15800
H 	H 	0.67030 0.60250 0.18410 0.16000
H 	H 	0.64790 0.67110 0.07580 0.10400
C 	C 	0.72700 0.17990 0.43380 0.38200
C 	C 	0.74390 0.09590 0.49100 -0.34500
C 	C 	0.66700 0.11290 0.63620 -0.37900
C 	C 	0.56080 0.12120 0.65690 0.43700
C 	C 	0.45290 0.27300 0.43380 0.38700
C 	C 	0.35200 0.25610 0.49100 -0.34800
C 	C 	0.44590 0.33300 0.63620 -0.39500
C 	C 	0.56040 0.43920 0.65690 0.44500
C 	C 	0.82010 0.54710 0.43380 0.40300
C 	C 	0.90410 0.64800 0.49100 -0.37600
C 	C 	0.88710 0.55410 0.63620 -0.41500
C 	C 	0.87880 0.43960 0.65690 0.45500
C 	C 	0.54710 0.82010 0.06620 0.45000
C 	C 	0.64800 0.90410 0.00900 -0.57900
C 	C 	0.55410 0.88710 0.86380 -0.42400
C 	C 	0.43960 0.87880 0.84310 0.46100
C 	C 	0.17990 0.72700 0.06620 0.43100
C 	C 	0.09590 0.74390 0.00900 -0.55400
C 	C 	0.11290 0.66700 0.86380 -0.38900
C 	C 	0.12120 0.56080 0.84310 0.44300
C 	C 	0.27300 0.45290 0.06620 0.43800
C 	C 	0.25610 0.35200 0.00900 -0.56500
C 	C 	0.33300 0.44590 0.86380 -0.40600
C 	C 	0.43920 0.56040 0.84310 0.45100
C 	C 	0.27300 0.82010 0.56620 0.39900
C 	C 	0.25610 0.90410 0.50900 -0.36600
C 	C 	0.33300 0.88710 0.36380 -0.41200
C 	C 	0.43920 0.87880 0.34310 0.45400
C 	C 	0.54710 0.72700 0.56620 0.39500
C 	C 	0.64800 0.74390 0.50900 -0.36700
C 	C 	0.55410 0.66700 0.36380 -0.40000
C 	C 	0.43960 0.56080 0.34310 0.44700
C 	C 	0.17990 0.45290 0.56620 0.37800
C 	C 	0.09590 0.35200 0.50900 -0.33500
C 	C 	0.11290 0.44590 0.36380 -0.37500
C 	C 	0.12120 0.56040 0.34310 0.43500
C 	C 	0.45290 0.17990 0.93380 0.32700
C 	C 	0.35200 0.09590 0.99100 -0.11200
C 	C 	0.44590 0.11290 0.13620 -0.36000
C 	C 	0.56040 0.12120 0.15690 0.42700
C 	C 	0.82010 0.27300 0.93380 0.35000
C 	C 	0.90410 0.25610 0.99100 -0.15300
C 	C 	0.88710 0.33300 0.13620 -0.39800
C 	C 	0.87880 0.43920 0.15690 0.44600
C 	C 	0.72700 0.54710 0.93380 0.34600
C 	C 	0.74390 0.64800 0.99100 -0.15500
C 	C 	0.66700 0.55410 0.13620 -0.38600
C 	C 	0.56080 0.43960 0.15690 0.43900
N 	N 	0.65080 0.04020 0.55730 -0.21000
N 	N 	0.38940 0.34920 0.55730 -0.15700
N 	N 	0.95980 0.61060 0.55730 -0.09000
N 	N 	0.61060 0.95980 0.94270 -0.04300
N 	N 	0.04020 0.65080 0.94270 -0.15800
N 	N 	0.34920 0.38940 0.94270 -0.10200
N 	N 	0.34920 0.95980 0.44270 -0.09400
N 	N 	0.61060 0.65080 0.44270 -0.15400
N 	N 	0.04020 0.38940 0.44270 -0.21500
N 	N 	0.38940 0.04020 0.05730 -0.26400
N 	N 	0.95980 0.34920 0.05730 -0.13900
N 	N 	0.65080 0.61060 0.05730 -0.20200
O 	O 	0.63580 0.18300 0.44380 -0.46300
O 	O 	0.80160 0.24090 0.37760 -0.37000
O 	O 	0.47670 0.07400 0.60510 -0.44000
O 	O 	0.56310 0.17630 0.72440 -0.44800
O 	O 	0.54720 0.36420 0.44380 -0.46000
O 	O 	0.43930 0.19840 0.37760 -0.38500
O 	O 	0.59730 0.52330 0.60510 -0.41700
O 	O 	0.61320 0.43690 0.72440 -0.43900
O 	O 	0.81700 0.45280 0.44380 -0.45100
O 	O 	0.75910 0.56070 0.37760 -0.37200
O 	O 	0.92600 0.40270 0.60510 -0.39100
O 	O 	0.82370 0.38680 0.72440 -0.43400
O 	O 	0.45280 0.81700 0.05620 -0.48000
O 	O 	0.56070 0.75910 0.12240 -0.39200
O 	O 	0.40270 0.92600 0.89490 -0.37600
O 	O 	0.38680 0.82370 0.77560 -0.43400
O 	O 	0.18300 0.63580 0.05620 -0.49200
O 	O 	0.24090 0.80160 0.12240 -0.39100
O 	O 	0.07400 0.47670 0.89490 -0.42300
O 	O 	0.17630 0.56310 0.77560 -0.44700
O 	O 	0.36420 0.54720 0.05620 -0.48900
O 	O 	0.19840 0.43930 0.12240 -0.40600
O 	O 	0.52330 0.59730 0.89490 -0.40100
O 	O 	0.43690 0.61320 0.77560 -0.43900
O 	O 	0.36420 0.81700 0.55620 -0.45200
O 	O 	0.19840 0.75910 0.62240 -0.38000
O 	O 	0.52330 0.92600 0.39490 -0.39000
O 	O 	0.43690 0.82370 0.27560 -0.43200
O 	O 	0.45280 0.63580 0.55620 -0.46100
O 	O 	0.56070 0.80160 0.62240 -0.36600
O 	O 	0.40270 0.47670 0.39490 -0.42200
O 	O 	0.38680 0.56310 0.27560 -0.44100
O 	O 	0.18300 0.54720 0.55620 -0.46200
O 	O 	0.24090 0.43930 0.62240 -0.37900
O 	O 	0.07400 0.59730 0.39490 -0.43900
O 	O 	0.17630 0.61320 0.27560 -0.44500
O 	O 	0.54720 0.18300 0.94380 -0.42600
O 	O 	0.43930 0.24090 0.87760 -0.35700
O 	O 	0.59730 0.07400 0.10510 -0.44500
O 	O 	0.61320 0.17630 0.22440 -0.44500
O 	O 	0.81700 0.36420 0.94380 -0.41700
O 	O 	0.75910 0.19840 0.87760 -0.35800
O 	O 	0.92600 0.52330 0.10510 -0.39500
O 	O 	0.82370 0.43690 0.22440 -0.43200
O 	O 	0.63580 0.45280 0.94380 -0.42500
O 	O 	0.80160 0.56070 0.87760 -0.34500
O 	O 	0.47670 0.40270 0.10510 -0.42900
O 	O 	0.56310 0.38680 0.22440 -0.44200
