data_crystal

_cell_length_a 13.85400
_cell_length_b 11.41100
_cell_length_c 17.71000
_cell_angle_alpha 90.00000
_cell_angle_beta  128.10900
_cell_angle_gamma 90.00000

_symmetry_space_group_name_	'P 1'
_symmetry_space_group_name_H-M	'P 1'

loop_
_symmetry_equiv_pos_as_xyz
  x,y,z

loop_
_atom_site_label
_atom_site_type_symbol
_atom_site_fract_x
_atom_site_fract_y
_atom_site_fract_z
_atom_site_charge
Ni	Ni	0.87858 0.27598 0.69859 1.11900
O 	O 	0.92530 0.13850 0.11800 -0.32800
O 	O 	0.08810 0.08480 0.12860 -0.40000
O 	O 	0.91690 0.30600 0.32510 -0.30700
O 	O 	0.07560 0.38480 0.46370 -0.38400
O 	O 	0.85290 0.11870 0.62750 -0.33900
O 	O 	0.70810 0.00190 0.51100 -0.23600
O 	O 	0.82100 0.43160 0.72560 -0.31700
O 	O 	0.65270 0.53070 0.67830 -0.20300
N 	N 	0.06080 0.22500 0.28900 -0.22700
N 	N 	0.69850 0.26600 0.60600 -0.20800
C 	C 	0.03970 0.12880 0.16170 0.23500
C 	C 	0.02870 0.32730 0.38860 0.23800
C 	C 	0.74250 0.08890 0.56270 0.28400
C 	C 	0.70540 0.44490 0.67350 0.27000
C 	C 	0.12170 0.17970 0.26050 0.00500
C 	C 	0.25020 0.18500 0.32090 -0.05900
H 	H 	0.29480 0.15370 0.30110 0.06700
C 	C 	0.31170 0.23790 0.41170 0.04200
C 	C 	0.24210 0.29220 0.43510 -0.05700
H 	H 	0.28120 0.33480 0.49330 0.07200
C 	C 	0.11510 0.28250 0.37150 0.00600
C 	C 	0.64730 0.17230 0.54720 -0.00600
C 	C 	0.52210 0.16240 0.48260 -0.05700
H 	H 	0.48640 0.09630 0.44120 0.05900
C 	C 	0.44700 0.24870 0.47730 0.03400
C 	C 	0.50330 0.34660 0.53850 -0.05500
H 	H 	0.45490 0.40830 0.53550 0.07000
C 	C 	0.63070 0.35150 0.60340 0.00100
Ni	Ni	0.12142 0.77598 0.80141 1.10100
O 	O 	0.07470 0.63850 0.38200 -0.44300
O 	O 	0.91190 0.58480 0.37140 -0.38000
O 	O 	0.08310 0.80600 0.17490 -0.43300
O 	O 	0.92440 0.88480 0.03630 -0.37700
O 	O 	0.14710 0.61870 0.87250 -0.35700
O 	O 	0.29190 0.50190 0.98900 -0.20700
O 	O 	0.17900 0.93160 0.77440 -0.34600
O 	O 	0.34730 0.03070 0.82170 -0.26000
N 	N 	0.93920 0.72500 0.21100 -0.16700
N 	N 	0.30150 0.76600 0.89400 -0.20600
C 	C 	0.96030 0.62880 0.33830 0.41300
C 	C 	0.97130 0.82730 0.11140 0.42100
C 	C 	0.25750 0.58890 0.93730 0.27900
C 	C 	0.29460 0.94490 0.82650 0.33700
C 	C 	0.87830 0.67970 0.23950 -0.01600
C 	C 	0.74980 0.68500 0.17910 -0.02500
H 	H 	0.70520 0.65370 0.19890 0.06700
C 	C 	0.68830 0.73790 0.08830 0.03500
C 	C 	0.75790 0.79220 0.06490 -0.02400
H 	H 	0.71880 0.83480 0.00670 0.06100
C 	C 	0.88490 0.78250 0.12850 -0.01900
C 	C 	0.35270 0.67230 0.95280 0.04500
C 	C 	0.47790 0.66240 0.01740 -0.10500
H 	H 	0.51360 0.59630 0.05880 0.07600
C 	C 	0.55300 0.74870 0.02270 0.01900
C 	C 	0.49670 0.84660 0.96150 -0.00500
H 	H 	0.54510 0.90830 0.96450 0.08000
C 	C 	0.36930 0.85150 0.89660 -0.01300
Ni	Ni	0.12142 0.72402 0.30141 1.10000
O 	O 	0.07470 0.86150 0.88200 -0.42100
O 	O 	0.91190 0.91520 0.87140 -0.34800
O 	O 	0.08310 0.69400 0.67490 -0.43400
O 	O 	0.92440 0.61520 0.53630 -0.38300
O 	O 	0.14710 0.88130 0.37250 -0.35200
O 	O 	0.29190 0.99810 0.48900 -0.20000
O 	O 	0.17900 0.56840 0.27440 -0.35200
O 	O 	0.34730 0.46930 0.32170 -0.21900
N 	N 	0.93920 0.77500 0.71100 -0.16800
N 	N 	0.30150 0.73400 0.39400 -0.20700
C 	C 	0.96030 0.87120 0.83830 0.40200
C 	C 	0.97130 0.67270 0.61140 0.42000
C 	C 	0.25750 0.91110 0.43730 0.28900
C 	C 	0.29460 0.55510 0.32650 0.27700
C 	C 	0.87830 0.82030 0.73950 -0.00600
C 	C 	0.74980 0.81500 0.67910 -0.02400
H 	H 	0.70520 0.84630 0.69890 0.07500
C 	C 	0.68830 0.76210 0.58830 0.03600
C 	C 	0.75790 0.70780 0.56490 -0.02000
H 	H 	0.71880 0.66520 0.50670 0.06500
C 	C 	0.88490 0.71750 0.62850 -0.01900
C 	C 	0.35270 0.82770 0.45280 0.00900
C 	C 	0.47790 0.83760 0.51740 -0.06100
H 	H 	0.51360 0.90370 0.55880 0.08300
C 	C 	0.55300 0.75130 0.52270 0.05100
C 	C 	0.49670 0.65340 0.46150 -0.05800
H 	H 	0.54510 0.59170 0.46450 0.07100
C 	C 	0.36930 0.64850 0.39660 0.00100
Ni	Ni	0.87858 0.22402 0.19859 1.11900
O 	O 	0.92530 0.36150 0.61800 -0.31600
O 	O 	0.08810 0.41520 0.62860 -0.37800
O 	O 	0.91690 0.19400 0.82510 -0.30900
O 	O 	0.07560 0.11520 0.96370 -0.37400
O 	O 	0.85290 0.38130 0.12750 -0.33300
O 	O 	0.70810 0.49810 0.01100 -0.22900
O 	O 	0.82100 0.06840 0.22560 -0.32000
O 	O 	0.65270 0.96930 0.17830 -0.15700
N 	N 	0.06080 0.27500 0.78900 -0.22500
N 	N 	0.69850 0.23400 0.10600 -0.20900
C 	C 	0.03970 0.37120 0.66170 0.23800
C 	C 	0.02870 0.17270 0.88860 0.24200
C 	C 	0.74250 0.41110 0.06270 0.29300
C 	C 	0.70540 0.05510 0.17350 0.20400
C 	C 	0.12170 0.32030 0.76050 0.01200
C 	C 	0.25020 0.31500 0.82090 -0.05400
H 	H 	0.29480 0.34630 0.80110 0.07500
C 	C 	0.31170 0.26210 0.91170 0.04000
C 	C 	0.24210 0.20780 0.93510 -0.05100
H 	H 	0.28120 0.16520 0.99330 0.07800
C 	C 	0.11510 0.21750 0.87150 0.00700
C 	C 	0.64730 0.32770 0.04720 -0.04300
C 	C 	0.52210 0.33760 0.98260 -0.01600
H 	H 	0.48640 0.40370 0.94120 0.06600
C 	C 	0.44700 0.25130 0.97730 0.07200
C 	C 	0.50330 0.15340 0.03850 -0.11700
H 	H 	0.45490 0.09170 0.03550 0.06100
C 	C 	0.63070 0.14850 0.10340 0.01700
Ni	Ni	-0.00000 0.00000 -0.00000 1.04700
Ni	Ni	-0.00000 0.50000 0.50000 1.08300
