data_crystal

_cell_length_a 22.70220
_cell_length_b 14.56560
_cell_length_c 28.26470
_cell_angle_alpha 90.00000
_cell_angle_beta  90.00000
_cell_angle_gamma 90.00000

_symmetry_space_group_name_	'P 1'
_symmetry_space_group_name_H-M	'P 1'

loop_
_symmetry_equiv_pos_as_xyz
  x,y,z

loop_
_atom_site_label
_atom_site_type_symbol
_atom_site_fract_x
_atom_site_fract_y
_atom_site_fract_z
_atom_site_charge
C 	C 	0.75790 0.98990 0.05967 0.23300
C 	C 	0.71030 0.98220 0.02201 0.18600
C 	C 	0.67390 0.91240 0.02025 -0.34100
H 	H 	0.67740 0.86420 0.04170 0.17100
C 	C 	0.62940 0.91110 0.98550 0.37300
H 	H 	0.60200 0.86380 0.98740 -0.10300
C 	C 	0.62290 0.96910 0.95133 -0.55000
C 	C 	0.66580 0.03080 0.94920 0.34900
H 	H 	0.66720 0.06990 0.92320 -0.10000
C 	C 	0.70860 0.03950 0.98390 -0.32100
H 	H 	0.73670 0.08550 0.98110 0.16100
C 	C 	0.40990 0.61970 0.93412 0.30300
C 	C 	0.44749 0.70210 0.92676 0.06600
C 	C 	0.47660 0.71380 0.88557 -0.18800
H 	H 	0.47310 0.67030 0.86160 0.11200
C 	C 	0.51200 0.79160 0.87896 0.20100
H 	H 	0.53120 0.79870 0.85010 -0.04600
C 	C 	0.51995 0.85830 0.91308 -0.40900
C 	C 	0.48760 0.84230 0.95404 0.21300
H 	H 	0.48980 0.88560 0.97820 -0.05500
C 	C 	0.45260 0.76620 0.96096 -0.19700
H 	H 	0.43250 0.75890 0.98940 0.11400
C 	C 	0.68320 0.92480 0.70763 0.30900
C 	C 	0.65620 0.93650 0.75625 0.08400
C 	C 	0.67620 0.89100 0.79487 -0.22600
H 	H 	0.70830 0.85210 0.79150 0.12600
C 	C 	0.65130 0.89970 0.83829 0.24500
H 	H 	0.66700 0.86660 0.86340 -0.06200
C 	C 	0.60397 0.95530 0.84633 -0.42600
C 	C 	0.58580 0.00580 0.80716 0.22400
H 	H 	0.55450 0.04650 0.81050 -0.05300
C 	C 	0.61240 0.99730 0.76394 -0.21300
H 	H 	0.59990 0.03450 0.73920 0.12200
C 	C 	0.39830 0.29620 0.89545 0.27000
C 	C 	0.43943 0.21720 0.89880 0.09200
C 	C 	0.42110 0.13080 0.88820 -0.22600
H 	H 	0.38230 0.12210 0.87850 0.13100
C 	C 	0.45800 0.05510 0.89140 0.23700
H 	H 	0.44290 0.99720 0.88470 -0.05700
C 	C 	0.51578 0.06330 0.90410 -0.44000
C 	C 	0.53310 0.14980 0.91380 0.24000
H 	H 	0.57200 0.15900 0.92310 -0.06200
C 	C 	0.49550 0.22760 0.91070 -0.22200
H 	H 	0.51030 0.28590 0.91710 0.12900
Co	Co	0.85120 0.03902 0.10788 1.20000
O 	O 	0.75740 0.93460 0.09335 -0.26900
O 	O 	0.79484 0.05130 0.05454 -0.38300
O 	O 	0.39530 0.59830 0.97450 -0.25900
O 	O 	0.39452 0.57810 0.89758 -0.39900
O 	O 	0.72387 0.87030 0.70271 -0.24800
O 	O 	0.65913 0.96930 0.67536 -0.41900
O 	O 	0.34642 0.28520 0.88641 -0.29500
O 	O 	0.41892 0.37310 0.90455 -0.38500
Si	Si	0.56583 0.96228 0.90438 1.04600
C 	C 	0.74210 0.01010 0.55967 0.23400
C 	C 	0.78970 0.01780 0.52201 0.18600
C 	C 	0.82610 0.08760 0.52025 -0.34000
H 	H 	0.82260 0.13580 0.54170 0.17300
C 	C 	0.87060 0.08890 0.48550 0.37500
H 	H 	0.89800 0.13620 0.48740 -0.10200
C 	C 	0.87710 0.03090 0.45133 -0.55000
C 	C 	0.83420 0.96920 0.44920 0.35100
H 	H 	0.83280 0.93010 0.42320 -0.09900
C 	C 	0.79140 0.96050 0.48390 -0.32000
H 	H 	0.76330 0.91450 0.48110 0.16200
C 	C 	0.09010 0.38030 0.43412 0.30400
C 	C 	0.05251 0.29790 0.42676 0.06700
C 	C 	0.02340 0.28620 0.38557 -0.18700
H 	H 	0.02690 0.32970 0.36160 0.11300
C 	C 	0.98800 0.20840 0.37896 0.20200
H 	H 	0.96880 0.20130 0.35010 -0.04600
C 	C 	0.98005 0.14170 0.41308 -0.40800
C 	C 	0.01240 0.15770 0.45404 0.21300
H 	H 	0.01020 0.11440 0.47820 -0.05500
C 	C 	0.04740 0.23380 0.46096 -0.19700
H 	H 	0.06750 0.24110 0.48940 0.11400
C 	C 	0.81680 0.07520 0.20763 0.30800
C 	C 	0.84380 0.06350 0.25625 0.08500
C 	C 	0.82380 0.10900 0.29487 -0.22700
H 	H 	0.79170 0.14790 0.29150 0.12700
C 	C 	0.84870 0.10030 0.33829 0.24600
H 	H 	0.83300 0.13340 0.36340 -0.06300
C 	C 	0.89603 0.04470 0.34633 -0.42700
C 	C 	0.91420 0.99420 0.30716 0.22600
H 	H 	0.94550 0.95350 0.31050 -0.05400
C 	C 	0.88760 0.00270 0.26394 -0.21600
H 	H 	0.90010 0.96550 0.23920 0.12300
C 	C 	0.10170 0.70380 0.39545 0.27100
C 	C 	0.06057 0.78280 0.39880 0.09200
C 	C 	0.07890 0.86920 0.38820 -0.22500
H 	H 	0.11770 0.87790 0.37850 0.13100
C 	C 	0.04200 0.94490 0.39140 0.23500
H 	H 	0.05710 0.00280 0.38470 -0.05600
C 	C 	0.98422 0.93670 0.40410 -0.43900
C 	C 	0.96690 0.85020 0.41380 0.24000
H 	H 	0.92800 0.84100 0.42310 -0.06200
C 	C 	0.00450 0.77240 0.41070 -0.22300
H 	H 	0.98970 0.71410 0.41710 0.12900
Co	Co	0.64880 0.96098 0.60788 1.20100
O 	O 	0.74260 0.06540 0.59335 -0.26900
O 	O 	0.70516 0.94870 0.55454 -0.38300
O 	O 	0.10470 0.40170 0.47450 -0.25900
O 	O 	0.10548 0.42190 0.39758 -0.39900
O 	O 	0.77613 0.12970 0.20271 -0.24800
O 	O 	0.84087 0.03070 0.17536 -0.41900
O 	O 	0.15358 0.71480 0.38641 -0.29500
O 	O 	0.08108 0.62690 0.40455 -0.38500
Si	Si	0.93417 0.03772 0.40438 1.04600
C 	C 	0.24210 0.48990 0.44033 0.23400
C 	C 	0.28970 0.48220 0.47799 0.18600
C 	C 	0.32610 0.41240 0.47975 -0.34000
H 	H 	0.32260 0.36420 0.45830 0.17300
C 	C 	0.37060 0.41110 0.51450 0.37500
H 	H 	0.39800 0.36380 0.51260 -0.10200
C 	C 	0.37710 0.46910 0.54867 -0.54900
C 	C 	0.33420 0.53080 0.55080 0.35000
H 	H 	0.33280 0.56990 0.57680 -0.09900
C 	C 	0.29140 0.53950 0.51610 -0.32000
H 	H 	0.26330 0.58550 0.51890 0.16200
C 	C 	0.59010 0.11970 0.56588 0.30400
C 	C 	0.55251 0.20210 0.57324 0.06700
C 	C 	0.52340 0.21380 0.61443 -0.18700
H 	H 	0.52690 0.17030 0.63840 0.11300
C 	C 	0.48800 0.29160 0.62104 0.20200
H 	H 	0.46880 0.29870 0.64990 -0.04500
C 	C 	0.48005 0.35830 0.58692 -0.40800
C 	C 	0.51240 0.34230 0.54596 0.21300
H 	H 	0.51020 0.38560 0.52180 -0.05500
C 	C 	0.54740 0.26620 0.53904 -0.19700
H 	H 	0.56750 0.25890 0.51060 0.11400
C 	C 	0.31680 0.42480 0.79237 0.30900
C 	C 	0.34380 0.43650 0.74375 0.08400
C 	C 	0.32380 0.39100 0.70513 -0.22600
H 	H 	0.29170 0.35210 0.70850 0.12600
C 	C 	0.34870 0.39970 0.66171 0.24500
H 	H 	0.33300 0.36660 0.63660 -0.06200
C 	C 	0.39603 0.45530 0.65367 -0.42600
C 	C 	0.41420 0.50580 0.69284 0.22300
H 	H 	0.44550 0.54650 0.68950 -0.05300
C 	C 	0.38760 0.49730 0.73606 -0.21300
H 	H 	0.40010 0.53450 0.76080 0.12200
C 	C 	0.60170 0.79620 0.60455 0.27100
C 	C 	0.56057 0.71720 0.60120 0.09200
C 	C 	0.57890 0.63080 0.61180 -0.22500
H 	H 	0.61770 0.62210 0.62150 0.13100
C 	C 	0.54200 0.55510 0.60860 0.23700
H 	H 	0.55710 0.49720 0.61530 -0.05700
C 	C 	0.48422 0.56330 0.59590 -0.44000
C 	C 	0.46690 0.64980 0.58620 0.24000
H 	H 	0.42800 0.65900 0.57690 -0.06200
C 	C 	0.50450 0.72760 0.58930 -0.22200
H 	H 	0.48970 0.78590 0.58290 0.12900
Co	Co	0.14880 0.53902 0.39212 1.20100
O 	O 	0.24260 0.43460 0.40665 -0.26900
O 	O 	0.20516 0.55130 0.44546 -0.38300
O 	O 	0.60470 0.09830 0.52550 -0.25900
O 	O 	0.60548 0.07810 0.60242 -0.39900
O 	O 	0.27613 0.37030 0.79729 -0.24800
O 	O 	0.34087 0.46930 0.82464 -0.41900
O 	O 	0.65358 0.78520 0.61359 -0.29500
O 	O 	0.58108 0.87310 0.59545 -0.38500
Si	Si	0.43417 0.46228 0.59562 1.04600
C 	C 	0.25790 0.51010 0.94033 0.23400
C 	C 	0.21030 0.51780 0.97799 0.18700
C 	C 	0.17390 0.58760 0.97975 -0.34000
H 	H 	0.17740 0.63580 0.95830 0.17200
C 	C 	0.12940 0.58890 0.01450 0.37500
H 	H 	0.10200 0.63620 0.01260 -0.10200
C 	C 	0.12290 0.53090 0.04867 -0.54900
C 	C 	0.16580 0.46920 0.05080 0.35000
H 	H 	0.16720 0.43010 0.07680 -0.09900
C 	C 	0.20860 0.46050 0.01610 -0.32000
H 	H 	0.23670 0.41450 0.01890 0.16200
C 	C 	0.90990 0.88030 0.06588 0.30400
C 	C 	0.94749 0.79790 0.07324 0.06700
C 	C 	0.97660 0.78620 0.11443 -0.18600
H 	H 	0.97310 0.82970 0.13840 0.11300
C 	C 	0.01200 0.70840 0.12104 0.20200
H 	H 	0.03120 0.70130 0.14990 -0.04500
C 	C 	0.01995 0.64170 0.08692 -0.40800
C 	C 	0.98760 0.65770 0.04596 0.21300
H 	H 	0.98980 0.61440 0.02180 -0.05500
C 	C 	0.95260 0.73380 0.03904 -0.19700
H 	H 	0.93250 0.74110 0.01060 0.11400
C 	C 	0.18320 0.57520 0.29237 0.30900
C 	C 	0.15620 0.56350 0.24375 0.08300
C 	C 	0.17620 0.60900 0.20513 -0.22600
H 	H 	0.20830 0.64790 0.20850 0.12600
C 	C 	0.15130 0.60030 0.16171 0.24500
H 	H 	0.16700 0.63340 0.13660 -0.06200
C 	C 	0.10397 0.54470 0.15367 -0.42600
C 	C 	0.08580 0.49420 0.19284 0.22300
H 	H 	0.05450 0.45350 0.18950 -0.05300
C 	C 	0.11240 0.50270 0.23606 -0.21300
H 	H 	0.09990 0.46550 0.26080 0.12200
C 	C 	0.89830 0.20380 0.10455 0.27100
C 	C 	0.93943 0.28280 0.10120 0.09200
C 	C 	0.92110 0.36920 0.11180 -0.22500
H 	H 	0.88230 0.37790 0.12150 0.13100
C 	C 	0.95800 0.44490 0.10860 0.23700
H 	H 	0.94290 0.50280 0.11530 -0.05700
C 	C 	0.01578 0.43670 0.09590 -0.44000
C 	C 	0.03310 0.35020 0.08620 0.23900
H 	H 	0.07200 0.34100 0.07690 -0.06200
C 	C 	0.99550 0.27240 0.08930 -0.22200
H 	H 	0.01030 0.21410 0.08290 0.12800
Co	Co	0.35120 0.46098 0.89212 1.20100
O 	O 	0.25740 0.56540 0.90665 -0.26900
O 	O 	0.29484 0.44870 0.94546 -0.38300
O 	O 	0.89530 0.90170 0.02550 -0.25800
O 	O 	0.89452 0.92190 0.10242 -0.39900
O 	O 	0.22387 0.62970 0.29729 -0.24800
O 	O 	0.15913 0.53070 0.32464 -0.41900
O 	O 	0.84642 0.21480 0.11359 -0.29500
O 	O 	0.91892 0.12690 0.09545 -0.38500
Si	Si	0.06583 0.53772 0.09562 1.04600
C 	C 	0.24210 0.01010 0.94033 0.23400
C 	C 	0.28970 0.01780 0.97799 0.18700
C 	C 	0.32610 0.08760 0.97975 -0.34000
H 	H 	0.32260 0.13580 0.95830 0.17200
C 	C 	0.37060 0.08890 0.01450 0.37400
H 	H 	0.39800 0.13620 0.01260 -0.10200
C 	C 	0.37710 0.03090 0.04867 -0.54900
C 	C 	0.33420 0.96920 0.05080 0.35000
H 	H 	0.33280 0.93010 0.07680 -0.09900
C 	C 	0.29140 0.96050 0.01610 -0.32000
H 	H 	0.26330 0.91450 0.01890 0.16200
C 	C 	0.59010 0.38030 0.06588 0.30400
C 	C 	0.55251 0.29790 0.07324 0.06700
C 	C 	0.52340 0.28620 0.11443 -0.18700
H 	H 	0.52690 0.32970 0.13840 0.11300
C 	C 	0.48800 0.20840 0.12104 0.20200
H 	H 	0.46880 0.20130 0.14990 -0.04500
C 	C 	0.48005 0.14170 0.08692 -0.40800
C 	C 	0.51240 0.15770 0.04596 0.21300
H 	H 	0.51020 0.11440 0.02180 -0.05500
C 	C 	0.54740 0.23380 0.03904 -0.19700
H 	H 	0.56750 0.24110 0.01060 0.11400
C 	C 	0.31680 0.07520 0.29237 0.30900
C 	C 	0.34380 0.06350 0.24375 0.08400
C 	C 	0.32380 0.10900 0.20513 -0.22600
H 	H 	0.29170 0.14790 0.20850 0.12600
C 	C 	0.34870 0.10030 0.16171 0.24500
H 	H 	0.33300 0.13340 0.13660 -0.06200
C 	C 	0.39603 0.04470 0.15367 -0.42600
C 	C 	0.41420 0.99420 0.19284 0.22400
H 	H 	0.44550 0.95350 0.18950 -0.05300
C 	C 	0.38760 0.00270 0.23606 -0.21300
H 	H 	0.40010 0.96550 0.26080 0.12200
C 	C 	0.60170 0.70380 0.10455 0.27000
C 	C 	0.56057 0.78280 0.10120 0.09200
C 	C 	0.57890 0.86920 0.11180 -0.22600
H 	H 	0.61770 0.87790 0.12150 0.13100
C 	C 	0.54200 0.94490 0.10860 0.23700
H 	H 	0.55710 0.00280 0.11530 -0.05700
C 	C 	0.48422 0.93670 0.09590 -0.44000
C 	C 	0.46690 0.85020 0.08620 0.24000
H 	H 	0.42800 0.84100 0.07690 -0.06200
C 	C 	0.50450 0.77240 0.08930 -0.22200
H 	H 	0.48970 0.71410 0.08290 0.12900
Co	Co	0.14880 0.96098 0.89212 1.20000
O 	O 	0.24260 0.06540 0.90665 -0.26900
O 	O 	0.20516 0.94870 0.94546 -0.38300
O 	O 	0.60470 0.40170 0.02550 -0.25900
O 	O 	0.60548 0.42190 0.10242 -0.39900
O 	O 	0.27613 0.12970 0.29729 -0.24800
O 	O 	0.34087 0.03070 0.32464 -0.41900
O 	O 	0.65358 0.71480 0.11359 -0.29500
O 	O 	0.58108 0.62690 0.09545 -0.38500
Si	Si	0.43417 0.03772 0.09562 1.04600
C 	C 	0.25790 0.98990 0.44033 0.23400
C 	C 	0.21030 0.98220 0.47799 0.18600
C 	C 	0.17390 0.91240 0.47975 -0.34000
H 	H 	0.17740 0.86420 0.45830 0.17300
C 	C 	0.12940 0.91110 0.51450 0.37500
H 	H 	0.10200 0.86380 0.51260 -0.10200
C 	C 	0.12290 0.96910 0.54867 -0.55000
C 	C 	0.16580 0.03080 0.55080 0.35100
H 	H 	0.16720 0.06990 0.57680 -0.09900
C 	C 	0.20860 0.03950 0.51610 -0.32000
H 	H 	0.23670 0.08550 0.51890 0.16200
C 	C 	0.90990 0.61970 0.56588 0.30400
C 	C 	0.94749 0.70210 0.57324 0.06700
C 	C 	0.97660 0.71380 0.61443 -0.18700
H 	H 	0.97310 0.67030 0.63840 0.11300
C 	C 	0.01200 0.79160 0.62104 0.20200
H 	H 	0.03120 0.79870 0.64990 -0.04600
C 	C 	0.01995 0.85830 0.58692 -0.40800
C 	C 	0.98760 0.84230 0.54596 0.21300
H 	H 	0.98980 0.88560 0.52180 -0.05500
C 	C 	0.95260 0.76620 0.53904 -0.19700
H 	H 	0.93250 0.75890 0.51060 0.11400
C 	C 	0.18320 0.92480 0.79237 0.30800
C 	C 	0.15620 0.93650 0.74375 0.08500
C 	C 	0.17620 0.89100 0.70513 -0.22700
H 	H 	0.20830 0.85210 0.70850 0.12700
C 	C 	0.15130 0.89970 0.66171 0.24600
H 	H 	0.16700 0.86660 0.63660 -0.06300
C 	C 	0.10397 0.95530 0.65367 -0.42700
C 	C 	0.08580 0.00580 0.69284 0.22600
H 	H 	0.05450 0.04650 0.68950 -0.05400
C 	C 	0.11240 0.99730 0.73606 -0.21600
H 	H 	0.09990 0.03450 0.76080 0.12300
C 	C 	0.89830 0.29620 0.60455 0.27100
C 	C 	0.93943 0.21720 0.60120 0.09200
C 	C 	0.92110 0.13080 0.61180 -0.22500
H 	H 	0.88230 0.12210 0.62150 0.13100
C 	C 	0.95800 0.05510 0.60860 0.23500
H 	H 	0.94290 0.99720 0.61530 -0.05600
C 	C 	0.01578 0.06330 0.59590 -0.43900
C 	C 	0.03310 0.14980 0.58620 0.24000
H 	H 	0.07200 0.15900 0.57690 -0.06200
C 	C 	0.99550 0.22760 0.58930 -0.22300
H 	H 	0.01030 0.28590 0.58290 0.12900
Co	Co	0.35120 0.03902 0.39212 1.20100
O 	O 	0.25740 0.93460 0.40665 -0.26900
O 	O 	0.29484 0.05130 0.44546 -0.38300
O 	O 	0.89530 0.59830 0.52550 -0.25900
O 	O 	0.89452 0.57810 0.60242 -0.39900
O 	O 	0.22387 0.87030 0.79729 -0.24800
O 	O 	0.15913 0.96930 0.82464 -0.41900
O 	O 	0.84642 0.28520 0.61359 -0.29500
O 	O 	0.91892 0.37310 0.59545 -0.38500
Si	Si	0.06583 0.96228 0.59562 1.04600
C 	C 	0.75790 0.51010 0.55967 0.23400
C 	C 	0.71030 0.51780 0.52201 0.18600
C 	C 	0.67390 0.58760 0.52025 -0.34000
H 	H 	0.67740 0.63580 0.54170 0.17300
C 	C 	0.62940 0.58890 0.48550 0.37500
H 	H 	0.60200 0.63620 0.48740 -0.10200
C 	C 	0.62290 0.53090 0.45133 -0.54900
C 	C 	0.66580 0.46920 0.44920 0.35000
H 	H 	0.66720 0.43010 0.42320 -0.09900
C 	C 	0.70860 0.46050 0.48390 -0.32000
H 	H 	0.73670 0.41450 0.48110 0.16200
C 	C 	0.40990 0.88030 0.43412 0.30400
C 	C 	0.44749 0.79790 0.42676 0.06700
C 	C 	0.47660 0.78620 0.38557 -0.18700
H 	H 	0.47310 0.82970 0.36160 0.11300
C 	C 	0.51200 0.70840 0.37896 0.20200
H 	H 	0.53120 0.70130 0.35010 -0.04500
C 	C 	0.51995 0.64170 0.41308 -0.40800
C 	C 	0.48760 0.65770 0.45404 0.21300
H 	H 	0.48980 0.61440 0.47820 -0.05500
C 	C 	0.45260 0.73380 0.46096 -0.19700
H 	H 	0.43250 0.74110 0.48940 0.11400
C 	C 	0.68320 0.57520 0.20763 0.30900
C 	C 	0.65620 0.56350 0.25625 0.08400
C 	C 	0.67620 0.60900 0.29487 -0.22600
H 	H 	0.70830 0.64790 0.29150 0.12600
C 	C 	0.65130 0.60030 0.33829 0.24500
H 	H 	0.66700 0.63340 0.36340 -0.06200
C 	C 	0.60397 0.54470 0.34633 -0.42600
C 	C 	0.58580 0.49420 0.30716 0.22300
H 	H 	0.55450 0.45350 0.31050 -0.05300
C 	C 	0.61240 0.50270 0.26394 -0.21300
H 	H 	0.59990 0.46550 0.23920 0.12200
C 	C 	0.39830 0.20380 0.39545 0.27100
C 	C 	0.43943 0.28280 0.39880 0.09200
C 	C 	0.42110 0.36920 0.38820 -0.22500
H 	H 	0.38230 0.37790 0.37850 0.13100
C 	C 	0.45800 0.44490 0.39140 0.23700
H 	H 	0.44290 0.50280 0.38470 -0.05700
C 	C 	0.51578 0.43670 0.40410 -0.44000
C 	C 	0.53310 0.35020 0.41380 0.24000
H 	H 	0.57200 0.34100 0.42310 -0.06200
C 	C 	0.49550 0.27240 0.41070 -0.22200
H 	H 	0.51030 0.21410 0.41710 0.12900
Co	Co	0.85120 0.46098 0.60788 1.20100
O 	O 	0.75740 0.56540 0.59335 -0.26900
O 	O 	0.79484 0.44870 0.55454 -0.38300
O 	O 	0.39530 0.90170 0.47450 -0.25900
O 	O 	0.39452 0.92190 0.39758 -0.39900
O 	O 	0.72387 0.62970 0.20271 -0.24800
O 	O 	0.65913 0.53070 0.17536 -0.41900
O 	O 	0.34642 0.21480 0.38641 -0.29500
O 	O 	0.41892 0.12690 0.40455 -0.38500
Si	Si	0.56583 0.53772 0.40438 1.04600
C 	C 	0.74210 0.48990 0.05967 0.23400
C 	C 	0.78970 0.48220 0.02201 0.18700
C 	C 	0.82610 0.41240 0.02025 -0.34000
H 	H 	0.82260 0.36420 0.04170 0.17200
C 	C 	0.87060 0.41110 0.98550 0.37500
H 	H 	0.89800 0.36380 0.98740 -0.10200
C 	C 	0.87710 0.46910 0.95133 -0.54900
C 	C 	0.83420 0.53080 0.94920 0.35000
H 	H 	0.83280 0.56990 0.92320 -0.09900
C 	C 	0.79140 0.53950 0.98390 -0.32000
H 	H 	0.76330 0.58550 0.98110 0.16200
C 	C 	0.09010 0.11970 0.93412 0.30400
C 	C 	0.05251 0.20210 0.92676 0.06700
C 	C 	0.02340 0.21380 0.88557 -0.18600
H 	H 	0.02690 0.17030 0.86160 0.11300
C 	C 	0.98800 0.29160 0.87896 0.20200
H 	H 	0.96880 0.29870 0.85010 -0.04500
C 	C 	0.98005 0.35830 0.91308 -0.40800
C 	C 	0.01240 0.34230 0.95404 0.21300
H 	H 	0.01020 0.38560 0.97820 -0.05500
C 	C 	0.04740 0.26620 0.96096 -0.19700
H 	H 	0.06750 0.25890 0.98940 0.11400
C 	C 	0.81680 0.42480 0.70763 0.30900
C 	C 	0.84380 0.43650 0.75625 0.08300
C 	C 	0.82380 0.39100 0.79487 -0.22600
H 	H 	0.79170 0.35210 0.79150 0.12600
C 	C 	0.84870 0.39970 0.83829 0.24500
H 	H 	0.83300 0.36660 0.86340 -0.06200
C 	C 	0.89603 0.45530 0.84633 -0.42600
C 	C 	0.91420 0.50580 0.80716 0.22300
H 	H 	0.94550 0.54650 0.81050 -0.05300
C 	C 	0.88760 0.49730 0.76394 -0.21300
H 	H 	0.90010 0.53450 0.73920 0.12200
C 	C 	0.10170 0.79620 0.89545 0.27100
C 	C 	0.06057 0.71720 0.89880 0.09200
C 	C 	0.07890 0.63080 0.88820 -0.22500
H 	H 	0.11770 0.62210 0.87850 0.13100
C 	C 	0.04200 0.55510 0.89140 0.23700
H 	H 	0.05710 0.49720 0.88470 -0.05700
C 	C 	0.98422 0.56330 0.90410 -0.44000
C 	C 	0.96690 0.64980 0.91380 0.23900
H 	H 	0.92800 0.65900 0.92310 -0.06200
C 	C 	0.00450 0.72760 0.91070 -0.22200
H 	H 	0.98970 0.78590 0.91710 0.12800
Co	Co	0.64880 0.53902 0.10788 1.20100
O 	O 	0.74260 0.43460 0.09335 -0.26900
O 	O 	0.70516 0.55130 0.05454 -0.38300
O 	O 	0.10470 0.09830 0.97450 -0.25800
O 	O 	0.10548 0.07810 0.89758 -0.39900
O 	O 	0.77613 0.37030 0.70271 -0.24800
O 	O 	0.84087 0.46930 0.67536 -0.41900
O 	O 	0.15358 0.78520 0.88641 -0.29500
O 	O 	0.08108 0.87310 0.90455 -0.38500
Si	Si	0.93417 0.46228 0.90438 1.04600
