data_crystal

_cell_length_a 26.98200
_cell_length_b 21.88200
_cell_length_c 13.82190
_cell_angle_alpha 90.00000
_cell_angle_beta  90.00000
_cell_angle_gamma 90.00000

_symmetry_space_group_name_	'P 1'
_symmetry_space_group_name_H-M	'P 1'

loop_
_symmetry_equiv_pos_as_xyz
  x,y,z

loop_
_atom_site_label
_atom_site_type_symbol
_atom_site_fract_x
_atom_site_fract_y
_atom_site_fract_z
_atom_site_charge
Co	Co	0.11772 0.68528 0.96662 1.18300
Si	Si	0.13160 0.44566 0.46551 1.12800
O 	O 	0.10710 0.64930 0.09820 -0.35100
C 	C 	0.14190 0.60680 0.09820 0.15400
O 	O 	0.31703 0.27698 0.65930 -0.41600
C 	C 	0.30740 0.27760 0.57100 0.28900
C 	C 	0.26600 0.31810 0.54040 0.11300
C 	C 	0.23660 0.34530 0.60930 -0.27000
H 	H 	0.24300 0.33770 0.67430 0.13800
C 	C 	0.25480 0.33160 0.44980 -0.26400
H 	H 	0.27260 0.31330 0.40010 0.13600
O 	O 	0.94346 0.23580 0.46730 -0.42800
C 	C 	0.95250 0.27520 0.40540 0.32700
C 	C 	0.99650 0.31620 0.42050 0.10200
C 	C 	0.02680 0.31030 0.49560 -0.27900
H 	H 	0.02160 0.27910 0.54020 0.14200
C 	C 	0.01200 0.35430 0.34960 -0.23800
H 	H 	0.99610 0.35340 0.28990 0.12800
C 	C 	0.13860 0.49400 0.35610 -0.65800
O 	O 	0.13043 0.66064 0.82630 -0.49700
C 	C 	0.07813 0.39270 0.44800 -0.51600
C 	C 	0.11940 0.49660 0.57130 -0.43500
C 	C 	0.18728 0.39750 0.49380 -0.49600
C 	C 	0.10720 0.57540 0.73350 0.06200
O 	O 	0.07163 0.60150 0.88310 -0.31800
C 	C 	0.14650 0.58170 0.67500 -0.20000
H 	H 	0.17020 0.61150 0.68750 0.11600
C 	C 	0.15150 0.54250 0.59410 0.22400
H 	H 	0.17860 0.54850 0.55360 -0.05700
C 	C 	0.10200 0.61450 0.81980 0.28400
C 	C 	0.19850 0.38320 0.58500 0.30400
H 	H 	0.17940 0.39990 0.63430 -0.08500
C 	C 	0.05150 0.39500 0.36400 0.27200
H 	H 	0.05950 0.42350 0.31650 -0.07200
C 	C 	0.06630 0.35060 0.50790 0.34400
H 	H 	0.08540 0.34660 0.56360 -0.10000
C 	C 	0.07940 0.49150 0.63320 0.22700
H 	H 	0.05570 0.46170 0.62090 -0.05800
C 	C 	0.07340 0.52900 0.71250 -0.20100
H 	H 	0.04630 0.52320 0.75290 0.11400
C 	C 	0.21720 0.37230 0.42660 0.29000
H 	H 	0.21230 0.38260 0.36190 -0.07500
O 	O 	0.32968 0.24620 0.50530 -0.41200
O 	O 	0.92659 0.28518 0.33260 -0.43600
C 	C 	0.14250 0.56720 0.19050 0.34000
O 	O 	0.17180 0.59830 0.03490 -0.27600
C 	C 	0.10450 0.57170 0.24970 -0.45200
H 	H 	0.07840 0.59780 0.23530 0.20700
C 	C 	0.10390 0.53640 0.33530 0.43500
H 	H 	0.07840 0.54270 0.37940 -0.13000
C 	C 	0.17660 0.52800 0.20890 -0.53800
H 	H 	0.20380 0.52390 0.16810 0.22700
C 	C 	0.17200 0.49260 0.28960 0.54700
H 	H 	0.19660 0.46320 0.29790 -0.16200
Co	Co	0.38228 0.31472 0.96662 1.18200
Si	Si	0.36840 0.55434 0.46551 1.12900
O 	O 	0.39290 0.35070 0.09820 -0.35200
C 	C 	0.35810 0.39320 0.09820 0.15300
O 	O 	0.18297 0.72302 0.65930 -0.41700
C 	C 	0.19260 0.72240 0.57100 0.28800
C 	C 	0.23400 0.68190 0.54040 0.11200
C 	C 	0.26340 0.65470 0.60930 -0.27200
H 	H 	0.25700 0.66230 0.67430 0.13800
C 	C 	0.24520 0.66840 0.44980 -0.26400
H 	H 	0.22740 0.68670 0.40010 0.13600
O 	O 	0.55654 0.76420 0.46730 -0.42800
C 	C 	0.54750 0.72480 0.40540 0.32600
C 	C 	0.50350 0.68380 0.42050 0.10600
C 	C 	0.47320 0.68970 0.49560 -0.28300
H 	H 	0.47840 0.72090 0.54020 0.14400
C 	C 	0.48800 0.64570 0.34960 -0.24300
H 	H 	0.50390 0.64660 0.28990 0.13100
C 	C 	0.36140 0.50600 0.35610 -0.65900
O 	O 	0.36957 0.33936 0.82630 -0.49700
C 	C 	0.42187 0.60730 0.44800 -0.51900
C 	C 	0.38060 0.50340 0.57130 -0.43600
C 	C 	0.31272 0.60250 0.49380 -0.49700
C 	C 	0.39280 0.42460 0.73350 0.06200
O 	O 	0.42837 0.39850 0.88310 -0.31800
C 	C 	0.35350 0.41830 0.67500 -0.20100
H 	H 	0.32980 0.38850 0.68750 0.11600
C 	C 	0.34850 0.45750 0.59410 0.22400
H 	H 	0.32140 0.45150 0.55360 -0.05800
C 	C 	0.39800 0.38550 0.81980 0.28400
C 	C 	0.30150 0.61680 0.58500 0.30500
H 	H 	0.32060 0.60010 0.63430 -0.08500
C 	C 	0.44850 0.60500 0.36400 0.27600
H 	H 	0.44050 0.57650 0.31650 -0.07300
C 	C 	0.43370 0.64940 0.50790 0.34800
H 	H 	0.41460 0.65340 0.56360 -0.10200
C 	C 	0.42060 0.50850 0.63320 0.22800
H 	H 	0.44430 0.53830 0.62090 -0.05800
C 	C 	0.42660 0.47100 0.71250 -0.20200
H 	H 	0.45370 0.47680 0.75290 0.11400
C 	C 	0.28280 0.62770 0.42660 0.29100
H 	H 	0.28770 0.61740 0.36190 -0.07500
O 	O 	0.17032 0.75380 0.50530 -0.41200
O 	O 	0.57341 0.71482 0.33260 -0.43500
C 	C 	0.35750 0.43280 0.19050 0.34100
O 	O 	0.32820 0.40170 0.03490 -0.27600
C 	C 	0.39550 0.42830 0.24970 -0.45200
H 	H 	0.42160 0.40220 0.23530 0.20700
C 	C 	0.39610 0.46360 0.33530 0.43500
H 	H 	0.42160 0.45730 0.37940 -0.13000
C 	C 	0.32340 0.47200 0.20890 -0.53900
H 	H 	0.29620 0.47610 0.16810 0.22800
C 	C 	0.32800 0.50740 0.28960 0.54700
H 	H 	0.30340 0.53680 0.29790 -0.16200
Co	Co	0.38228 0.18528 0.53338 1.18200
Si	Si	0.36840 0.94566 0.03449 1.12600
O 	O 	0.39290 0.14930 0.40180 -0.35300
C 	C 	0.35810 0.10680 0.40180 0.15300
O 	O 	0.18297 0.77698 0.84070 -0.41700
C 	C 	0.19260 0.77760 0.92900 0.29000
C 	C 	0.23400 0.81810 0.95960 0.10700
C 	C 	0.26340 0.84530 0.89070 -0.26700
H 	H 	0.25700 0.83770 0.82570 0.13700
C 	C 	0.24520 0.83160 0.05020 -0.25800
H 	H 	0.22740 0.81330 0.09990 0.13400
O 	O 	0.55654 0.73580 0.03270 -0.42800
C 	C 	0.54750 0.77520 0.09460 0.32600
C 	C 	0.50350 0.81620 0.07950 0.10400
C 	C 	0.47320 0.81030 0.00440 -0.28000
H 	H 	0.47840 0.77910 0.95980 0.14200
C 	C 	0.48800 0.85430 0.15040 -0.24100
H 	H 	0.50390 0.85340 0.21010 0.13000
C 	C 	0.36140 0.99400 0.14390 -0.65700
O 	O 	0.36957 0.16064 0.67370 -0.49700
C 	C 	0.42187 0.89270 0.05200 -0.51600
C 	C 	0.38060 0.99660 0.92870 -0.43600
C 	C 	0.31272 0.89750 0.00620 -0.49200
C 	C 	0.39280 0.07540 0.76650 0.06200
O 	O 	0.42837 0.10150 0.61690 -0.31800
C 	C 	0.35350 0.08170 0.82500 -0.20100
H 	H 	0.32980 0.11150 0.81250 0.11600
C 	C 	0.34850 0.04250 0.90590 0.22400
H 	H 	0.32140 0.04850 0.94640 -0.05800
C 	C 	0.39800 0.11450 0.68020 0.28400
C 	C 	0.30150 0.88320 0.91500 0.29900
H 	H 	0.32060 0.89990 0.86570 -0.08300
C 	C 	0.44850 0.89500 0.13600 0.27400
H 	H 	0.44050 0.92350 0.18350 -0.07300
C 	C 	0.43370 0.85060 0.99210 0.34400
H 	H 	0.41460 0.84660 0.93640 -0.10100
C 	C 	0.42060 0.99150 0.86680 0.22700
H 	H 	0.44430 0.96170 0.87910 -0.05800
C 	C 	0.42660 0.02900 0.78750 -0.20100
H 	H 	0.45370 0.02320 0.74710 0.11400
C 	C 	0.28280 0.87230 0.07340 0.28600
H 	H 	0.28770 0.88260 0.13810 -0.07300
O 	O 	0.17032 0.74620 0.99470 -0.41300
O 	O 	0.57341 0.78518 0.16740 -0.43500
C 	C 	0.35750 0.06720 0.30950 0.33900
O 	O 	0.32820 0.09830 0.46510 -0.27700
C 	C 	0.39550 0.07170 0.25030 -0.45100
H 	H 	0.42160 0.09780 0.26470 0.20600
C 	C 	0.39610 0.03640 0.16470 0.43400
H 	H 	0.42160 0.04270 0.12060 -0.12900
C 	C 	0.32340 0.02800 0.29110 -0.53700
H 	H 	0.29620 0.02390 0.33190 0.22700
C 	C 	0.32800 0.99260 0.21040 0.54600
H 	H 	0.30340 0.96320 0.20210 -0.16200
Co	Co	0.11772 0.81472 0.53338 1.18200
Si	Si	0.13160 0.05434 0.03449 1.11600
O 	O 	0.10710 0.85070 0.40180 -0.35300
C 	C 	0.14190 0.89320 0.40180 0.15500
O 	O 	0.31703 0.22302 0.84070 -0.41700
C 	C 	0.30740 0.22240 0.92900 0.29000
C 	C 	0.26600 0.18190 0.95960 0.10500
C 	C 	0.23660 0.15470 0.89070 -0.26300
H 	H 	0.24300 0.16230 0.82570 0.13500
C 	C 	0.25480 0.16840 0.05020 -0.25500
H 	H 	0.27260 0.18670 0.09990 0.13300
O 	O 	0.94346 0.26420 0.03270 -0.43100
C 	C 	0.95250 0.22480 0.09460 0.33500
C 	C 	0.99650 0.18380 0.07950 0.08100
C 	C 	0.02680 0.18970 0.00440 -0.25100
H 	H 	0.02160 0.22090 0.95980 0.13200
C 	C 	0.01200 0.14570 0.15040 -0.21700
H 	H 	0.99610 0.14660 0.21010 0.12100
C 	C 	0.13860 0.00600 0.14390 -0.65100
O 	O 	0.13043 0.83936 0.67370 -0.49700
C 	C 	0.07813 0.10730 0.05200 -0.49600
C 	C 	0.11940 0.00340 0.92870 -0.43200
C 	C 	0.18728 0.10250 0.00620 -0.48700
C 	C 	0.10720 0.92460 0.76650 0.06100
O 	O 	0.07163 0.89850 0.61690 -0.31800
C 	C 	0.14650 0.91830 0.82500 -0.19900
H 	H 	0.17020 0.88850 0.81250 0.11600
C 	C 	0.15150 0.95750 0.90590 0.22100
H 	H 	0.17860 0.95150 0.94640 -0.05700
C 	C 	0.10200 0.88550 0.68020 0.28400
C 	C 	0.19850 0.11680 0.91500 0.29400
H 	H 	0.17940 0.10010 0.86570 -0.08200
C 	C 	0.05150 0.10500 0.13600 0.25400
H 	H 	0.05950 0.07650 0.18350 -0.06600
C 	C 	0.06630 0.14940 0.99210 0.31700
H 	H 	0.08540 0.15340 0.93640 -0.09200
C 	C 	0.07940 0.00850 0.86680 0.22500
H 	H 	0.05570 0.03830 0.87910 -0.05700
C 	C 	0.07340 0.97100 0.78750 -0.20000
H 	H 	0.04630 0.97680 0.74710 0.11300
C 	C 	0.21720 0.12770 0.07340 0.28200
H 	H 	0.21230 0.11740 0.13810 -0.07200
O 	O 	0.32968 0.25380 0.99470 -0.41300
O 	O 	0.92659 0.21482 0.16740 -0.43700
C 	C 	0.14250 0.93280 0.30950 0.33600
O 	O 	0.17180 0.90170 0.46510 -0.27700
C 	C 	0.10450 0.92830 0.25030 -0.44700
H 	H 	0.07840 0.90220 0.26470 0.20500
C 	C 	0.10390 0.96360 0.16470 0.42900
H 	H 	0.07840 0.95730 0.12060 -0.12700
C 	C 	0.17660 0.97200 0.29110 -0.53300
H 	H 	0.20380 0.97610 0.33190 0.22500
C 	C 	0.17200 0.00740 0.21040 0.54000
H 	H 	0.19660 0.03680 0.20210 -0.16000
Co	Co	0.88228 0.31472 0.03338 1.18200
Si	Si	0.86840 0.55434 0.53449 1.12700
O 	O 	0.89290 0.35070 0.90180 -0.35200
C 	C 	0.85810 0.39320 0.90180 0.15300
O 	O 	0.68297 0.72302 0.34070 -0.41700
C 	C 	0.69260 0.72240 0.42900 0.28800
C 	C 	0.73400 0.68190 0.45960 0.11200
C 	C 	0.76340 0.65470 0.39070 -0.27100
H 	H 	0.75700 0.66230 0.32570 0.13800
C 	C 	0.74520 0.66840 0.55020 -0.26400
H 	H 	0.72740 0.68670 0.59990 0.13600
O 	O 	0.05654 0.76420 0.53270 -0.42800
C 	C 	0.04750 0.72480 0.59460 0.32700
C 	C 	0.00350 0.68380 0.57950 0.10200
C 	C 	0.97320 0.68970 0.50440 -0.27900
H 	H 	0.97840 0.72090 0.45980 0.14200
C 	C 	0.98800 0.64570 0.65040 -0.23800
H 	H 	0.00390 0.64660 0.71010 0.12800
C 	C 	0.86140 0.50600 0.64390 -0.65800
O 	O 	0.86957 0.33936 0.17370 -0.49700
C 	C 	0.92187 0.60730 0.55200 -0.51600
C 	C 	0.88060 0.50340 0.42870 -0.43500
C 	C 	0.81272 0.60250 0.50620 -0.49600
C 	C 	0.89280 0.42460 0.26650 0.06200
O 	O 	0.92837 0.39850 0.11690 -0.31800
C 	C 	0.85350 0.41830 0.32500 -0.20000
H 	H 	0.82980 0.38850 0.31250 0.11600
C 	C 	0.84850 0.45750 0.40590 0.22400
H 	H 	0.82140 0.45150 0.44640 -0.05700
C 	C 	0.89800 0.38550 0.18020 0.28400
C 	C 	0.80150 0.61680 0.41500 0.30400
H 	H 	0.82060 0.60010 0.36570 -0.08500
C 	C 	0.94850 0.60500 0.63600 0.27200
H 	H 	0.94050 0.57650 0.68350 -0.07200
C 	C 	0.93370 0.64940 0.49210 0.34400
H 	H 	0.91460 0.65340 0.43640 -0.10000
C 	C 	0.92060 0.50850 0.36680 0.22700
H 	H 	0.94430 0.53830 0.37910 -0.05800
C 	C 	0.92660 0.47100 0.28750 -0.20100
H 	H 	0.95370 0.47680 0.24710 0.11400
C 	C 	0.78280 0.62770 0.57340 0.29000
H 	H 	0.78770 0.61740 0.63810 -0.07500
O 	O 	0.67032 0.75380 0.49470 -0.41200
O 	O 	0.07341 0.71482 0.66740 -0.43600
C 	C 	0.85750 0.43280 0.80950 0.34000
O 	O 	0.82820 0.40170 0.96510 -0.27600
C 	C 	0.89550 0.42830 0.75030 -0.45200
H 	H 	0.92160 0.40220 0.76470 0.20700
C 	C 	0.89610 0.46360 0.66470 0.43500
H 	H 	0.92160 0.45730 0.62060 -0.13000
C 	C 	0.82340 0.47200 0.79110 -0.53800
H 	H 	0.79620 0.47610 0.83190 0.22700
C 	C 	0.82800 0.50740 0.71040 0.54700
H 	H 	0.80340 0.53680 0.70210 -0.16200
Co	Co	0.61772 0.68528 0.03338 1.18200
Si	Si	0.63160 0.44566 0.53449 1.12900
O 	O 	0.60710 0.64930 0.90180 -0.35200
C 	C 	0.64190 0.60680 0.90180 0.15300
O 	O 	0.81703 0.27698 0.34070 -0.41700
C 	C 	0.80740 0.27760 0.42900 0.28800
C 	C 	0.76600 0.31810 0.45960 0.11200
C 	C 	0.73660 0.34530 0.39070 -0.27200
H 	H 	0.74300 0.33770 0.32570 0.13800
C 	C 	0.75480 0.33160 0.55020 -0.26400
H 	H 	0.77260 0.31330 0.59990 0.13600
O 	O 	0.44346 0.23580 0.53270 -0.42800
C 	C 	0.45250 0.27520 0.59460 0.32600
C 	C 	0.49650 0.31620 0.57950 0.10600
C 	C 	0.52680 0.31030 0.50440 -0.28300
H 	H 	0.52160 0.27910 0.45980 0.14400
C 	C 	0.51200 0.35430 0.65040 -0.24300
H 	H 	0.49610 0.35340 0.71010 0.13100
C 	C 	0.63860 0.49400 0.64390 -0.65900
O 	O 	0.63043 0.66064 0.17370 -0.49700
C 	C 	0.57813 0.39270 0.55200 -0.51900
C 	C 	0.61940 0.49660 0.42870 -0.43600
C 	C 	0.68728 0.39750 0.50620 -0.49700
C 	C 	0.60720 0.57540 0.26650 0.06200
O 	O 	0.57163 0.60150 0.11690 -0.31800
C 	C 	0.64650 0.58170 0.32500 -0.20100
H 	H 	0.67020 0.61150 0.31250 0.11600
C 	C 	0.65150 0.54250 0.40590 0.22400
H 	H 	0.67860 0.54850 0.44640 -0.05800
C 	C 	0.60200 0.61450 0.18020 0.28400
C 	C 	0.69850 0.38320 0.41500 0.30500
H 	H 	0.67940 0.39990 0.36570 -0.08500
C 	C 	0.55150 0.39500 0.63600 0.27600
H 	H 	0.55950 0.42350 0.68350 -0.07300
C 	C 	0.56630 0.35060 0.49210 0.34800
H 	H 	0.58540 0.34660 0.43640 -0.10200
C 	C 	0.57940 0.49150 0.36680 0.22800
H 	H 	0.55570 0.46170 0.37910 -0.05800
C 	C 	0.57340 0.52900 0.28750 -0.20200
H 	H 	0.54630 0.52320 0.24710 0.11400
C 	C 	0.71720 0.37230 0.57340 0.29100
H 	H 	0.71230 0.38260 0.63810 -0.07500
O 	O 	0.82968 0.24620 0.49470 -0.41200
O 	O 	0.42659 0.28518 0.66740 -0.43500
C 	C 	0.64250 0.56720 0.80950 0.34100
O 	O 	0.67180 0.59830 0.96510 -0.27600
C 	C 	0.60450 0.57170 0.75030 -0.45200
H 	H 	0.57840 0.59780 0.76470 0.20700
C 	C 	0.60390 0.53640 0.66470 0.43500
H 	H 	0.57840 0.54270 0.62060 -0.13000
C 	C 	0.67660 0.52800 0.79110 -0.53900
H 	H 	0.70380 0.52390 0.83190 0.22800
C 	C 	0.67200 0.49260 0.71040 0.54700
H 	H 	0.69660 0.46320 0.70210 -0.16200
Co	Co	0.61772 0.81472 0.46662 1.18200
Si	Si	0.63160 0.05434 0.96551 1.12600
O 	O 	0.60710 0.85070 0.59820 -0.35300
C 	C 	0.64190 0.89320 0.59820 0.15300
O 	O 	0.81703 0.22302 0.15930 -0.41700
C 	C 	0.80740 0.22240 0.07100 0.29000
C 	C 	0.76600 0.18190 0.04040 0.10700
C 	C 	0.73660 0.15470 0.10930 -0.26700
H 	H 	0.74300 0.16230 0.17430 0.13700
C 	C 	0.75480 0.16840 0.94980 -0.25800
H 	H 	0.77260 0.18670 0.90010 0.13400
O 	O 	0.44346 0.26420 0.96730 -0.42800
C 	C 	0.45250 0.22480 0.90540 0.32600
C 	C 	0.49650 0.18380 0.92050 0.10400
C 	C 	0.52680 0.18970 0.99560 -0.28000
H 	H 	0.52160 0.22090 0.04020 0.14200
C 	C 	0.51200 0.14570 0.84960 -0.24100
H 	H 	0.49610 0.14660 0.78990 0.13000
C 	C 	0.63860 0.00600 0.85610 -0.65700
O 	O 	0.63043 0.83936 0.32630 -0.49700
C 	C 	0.57813 0.10730 0.94800 -0.51600
C 	C 	0.61940 0.00340 0.07130 -0.43600
C 	C 	0.68728 0.10250 0.99380 -0.49200
C 	C 	0.60720 0.92460 0.23350 0.06200
O 	O 	0.57163 0.89850 0.38310 -0.31800
C 	C 	0.64650 0.91830 0.17500 -0.20100
H 	H 	0.67020 0.88850 0.18750 0.11600
C 	C 	0.65150 0.95750 0.09410 0.22400
H 	H 	0.67860 0.95150 0.05360 -0.05800
C 	C 	0.60200 0.88550 0.31980 0.28400
C 	C 	0.69850 0.11680 0.08500 0.29900
H 	H 	0.67940 0.10010 0.13430 -0.08300
C 	C 	0.55150 0.10500 0.86400 0.27400
H 	H 	0.55950 0.07650 0.81650 -0.07300
C 	C 	0.56630 0.14940 0.00790 0.34400
H 	H 	0.58540 0.15340 0.06360 -0.10100
C 	C 	0.57940 0.00850 0.13320 0.22700
H 	H 	0.55570 0.03830 0.12090 -0.05800
C 	C 	0.57340 0.97100 0.21250 -0.20100
H 	H 	0.54630 0.97680 0.25290 0.11400
C 	C 	0.71720 0.12770 0.92660 0.28600
H 	H 	0.71230 0.11740 0.86190 -0.07300
O 	O 	0.82968 0.25380 0.00530 -0.41300
O 	O 	0.42659 0.21482 0.83260 -0.43500
C 	C 	0.64250 0.93280 0.69050 0.33900
O 	O 	0.67180 0.90170 0.53490 -0.27700
C 	C 	0.60450 0.92830 0.74970 -0.45100
H 	H 	0.57840 0.90220 0.73530 0.20600
C 	C 	0.60390 0.96360 0.83530 0.43400
H 	H 	0.57840 0.95730 0.87940 -0.12900
C 	C 	0.67660 0.97200 0.70890 -0.53700
H 	H 	0.70380 0.97610 0.66810 0.22700
C 	C 	0.67200 0.00740 0.78960 0.54600
H 	H 	0.69660 0.03680 0.79790 -0.16200
Co	Co	0.88228 0.18528 0.46662 1.18200
Si	Si	0.86840 0.94566 0.96551 1.11600
O 	O 	0.89290 0.14930 0.59820 -0.35300
C 	C 	0.85810 0.10680 0.59820 0.15500
O 	O 	0.68297 0.77698 0.15930 -0.41700
C 	C 	0.69260 0.77760 0.07100 0.29000
C 	C 	0.73400 0.81810 0.04040 0.10500
C 	C 	0.76340 0.84530 0.10930 -0.26300
H 	H 	0.75700 0.83770 0.17430 0.13500
C 	C 	0.74520 0.83160 0.94980 -0.25500
H 	H 	0.72740 0.81330 0.90010 0.13300
O 	O 	0.05654 0.73580 0.96730 -0.43100
C 	C 	0.04750 0.77520 0.90540 0.33500
C 	C 	0.00350 0.81620 0.92050 0.08100
C 	C 	0.97320 0.81030 0.99560 -0.25100
H 	H 	0.97840 0.77910 0.04020 0.13200
C 	C 	0.98800 0.85430 0.84960 -0.21700
H 	H 	0.00390 0.85340 0.78990 0.12100
C 	C 	0.86140 0.99400 0.85610 -0.65100
O 	O 	0.86957 0.16064 0.32630 -0.49700
C 	C 	0.92187 0.89270 0.94800 -0.49600
C 	C 	0.88060 0.99660 0.07130 -0.43200
C 	C 	0.81272 0.89750 0.99380 -0.48700
C 	C 	0.89280 0.07540 0.23350 0.06100
O 	O 	0.92837 0.10150 0.38310 -0.31800
C 	C 	0.85350 0.08170 0.17500 -0.19900
H 	H 	0.82980 0.11150 0.18750 0.11600
C 	C 	0.84850 0.04250 0.09410 0.22100
H 	H 	0.82140 0.04850 0.05360 -0.05700
C 	C 	0.89800 0.11450 0.31980 0.28400
C 	C 	0.80150 0.88320 0.08500 0.29400
H 	H 	0.82060 0.89990 0.13430 -0.08200
C 	C 	0.94850 0.89500 0.86400 0.25400
H 	H 	0.94050 0.92350 0.81650 -0.06600
C 	C 	0.93370 0.85060 0.00790 0.31700
H 	H 	0.91460 0.84660 0.06360 -0.09200
C 	C 	0.92060 0.99150 0.13320 0.22500
H 	H 	0.94430 0.96170 0.12090 -0.05700
C 	C 	0.92660 0.02900 0.21250 -0.20000
H 	H 	0.95370 0.02320 0.25290 0.11300
C 	C 	0.78280 0.87230 0.92660 0.28200
H 	H 	0.78770 0.88260 0.86190 -0.07200
O 	O 	0.67032 0.74620 0.00530 -0.41300
O 	O 	0.07341 0.78518 0.83260 -0.43700
C 	C 	0.85750 0.06720 0.69050 0.33600
O 	O 	0.82820 0.09830 0.53490 -0.27700
C 	C 	0.89550 0.07170 0.74970 -0.44700
H 	H 	0.92160 0.09780 0.73530 0.20500
C 	C 	0.89610 0.03640 0.83530 0.42900
H 	H 	0.92160 0.04270 0.87940 -0.12700
C 	C 	0.82340 0.02800 0.70890 -0.53300
H 	H 	0.79620 0.02390 0.66810 0.22500
C 	C 	0.82800 0.99260 0.78960 0.54000
H 	H 	0.80340 0.96320 0.79790 -0.16000
Co	Co	0.12840 0.75000 0.75000 1.19200
Co	Co	0.37160 0.25000 0.75000 1.19200
Co	Co	0.87160 0.25000 0.25000 1.19200
Co	Co	0.62840 0.75000 0.25000 1.19200
