data_crystal

_cell_length_a 13.61700
_cell_length_b 14.31850
_cell_length_c 18.62890
_cell_angle_alpha 88.84100
_cell_angle_beta  69.41300
_cell_angle_gamma 79.69000

_symmetry_space_group_name_	'P 1'
_symmetry_space_group_name_H-M	'P 1'

loop_
_symmetry_equiv_pos_as_xyz
  x,y,z

loop_
_atom_site_label
_atom_site_type_symbol
_atom_site_fract_x
_atom_site_fract_y
_atom_site_fract_z
_atom_site_charge
Ni	Ni	0.20117 0.19360 0.47930 1.08900
C 	C 	0.30260 0.90150 0.80080 -0.10500
C 	C 	0.40440 0.91830 0.76280 0.01600
H 	H 	0.42560 0.96970 0.77920 0.04100
C 	C 	0.47580 0.86100 0.70100 -0.10700
C 	C 	0.43980 0.78910 0.67450 -0.03800
H 	H 	0.48680 0.75140 0.63200 0.05500
C 	C 	0.33580 0.76990 0.70870 0.01600
C 	C 	0.26950 0.82840 0.77240 -0.04800
H 	H 	0.20020 0.81820 0.79700 0.02900
C 	C 	0.22720 0.96570 0.86740 0.35700
C 	C 	0.58580 0.87610 0.66100 0.34100
C 	C 	0.28740 0.70710 0.66990 -0.09800
H 	H 	0.22680 0.68660 0.70820 0.02700
H 	H 	0.26210 0.74350 0.63330 0.04600
C 	C 	0.37280 0.55750 0.68650 -0.00700
H 	H 	0.30170 0.54460 0.71330 0.01400
H 	H 	0.39450 0.58720 0.72340 0.02600
C 	C 	0.44730 0.46560 0.65690 -0.15100
H 	H 	0.41720 0.43210 0.62740 0.07800
H 	H 	0.44720 0.42820 0.70090 0.06700
C 	C 	0.56340 0.46560 0.60760 -0.02700
H 	H 	0.56530 0.51340 0.56970 0.04600
H 	H 	0.59970 0.48400 0.64000 0.04100
C 	C 	0.60400 0.35630 0.50150 0.03100
C 	C 	0.66680 0.41210 0.43170 -0.01000
C 	C 	0.62810 0.30110 0.62210 -0.12000
H 	H 	0.65120 0.24040 0.59350 0.06800
H 	H 	0.55740 0.30150 0.65950 0.06700
C 	C 	0.99990 0.25740 0.62550 0.39700
C 	C 	0.69220 0.40630 0.85430 0.32500
C 	C 	0.73370 0.35930 0.77670 -0.10500
C 	C 	0.66380 0.34900 0.73740 -0.04900
H 	H 	0.59080 0.36990 0.76150 0.04700
C 	C 	0.70240 0.30860 0.66420 0.03600
C 	C 	0.81050 0.27710 0.62840 -0.03800
H 	H 	0.83690 0.24850 0.57930 0.03000
C 	C 	0.88130 0.28850 0.66650 -0.11500
C 	C 	0.84110 0.32960 0.73790 0.02800
H 	H 	0.88830 0.33820 0.76200 0.03600
C 	C 	0.78960 0.12190 0.86900 -1.01900
H 	H 	0.81120 0.18070 0.85030 0.33200
H 	H 	0.73160 0.13390 0.91740 0.30700
H 	H 	0.76690 0.09340 0.83280 0.31400
C 	C 	0.97740 0.03170 0.80590 -1.05600
H 	H 	0.00310 0.08930 0.78800 0.32900
H 	H 	0.95430 0.00610 0.76860 0.31100
H 	H 	0.03380 0.98640 0.81330 0.34200
C 	C 	0.88640 0.05260 0.87990 0.56300
C 	C 	0.84520 0.95880 0.90700 -0.52900
H 	H 	0.78540 0.97490 0.95480 0.18600
H 	H 	0.81620 0.94060 0.86980 0.15600
C 	C 	0.91370 0.87170 0.91990 0.15400
C 	C 	0.83900 0.80190 0.92020 0.06300
C 	C 	0.00550 0.80170 0.00720 -0.21900
H 	H 	0.96970 0.74750 0.01620 0.08400
H 	H 	0.07080 0.78550 0.96300 0.10100
C 	C 	0.03190 0.82170 0.07500 -0.03200
H 	H 	0.08210 0.76880 0.08260 0.01200
H 	H 	0.96810 0.83200 0.12060 0.03200
C 	C 	0.49200 0.79930 0.92480 -1.05500
H 	H 	0.56170 0.81000 0.91970 0.32900
H 	H 	0.44240 0.82160 0.97490 0.32900
H 	H 	0.46950 0.83290 0.88650 0.33500
C 	C 	0.57390 0.64960 0.83410 -1.21000
H 	H 	0.64420 0.65870 0.82900 0.37100
H 	H 	0.55230 0.68360 0.79560 0.38300
H 	H 	0.57440 0.58310 0.82780 0.39900
C 	C 	0.49600 0.68670 0.91330 0.67400
C 	C 	0.38240 0.67610 0.92260 -0.81900
H 	H 	0.33700 0.69630 0.97500 0.26500
H 	H 	0.35880 0.72050 0.88940 0.26900
C 	C 	0.36290 0.58370 0.90700 0.51700
H 	H 	0.41750 0.55740 0.85820 -0.14000
C 	C 	0.25030 0.59480 0.89840 -0.95700
H 	H 	0.23790 0.53350 0.88790 0.30800
H 	H 	0.24870 0.63520 0.85700 0.30200
H 	H 	0.19590 0.62250 0.94520 0.31200
C 	C 	0.35350 0.41830 0.95540 0.00200
H 	H 	0.40600 0.39060 0.90700 0.02400
H 	H 	0.28290 0.42050 0.95340 0.02300
C 	C 	0.36630 0.35840 0.02210 -0.15100
H 	H 	0.31070 0.38350 0.07000 0.05100
H 	H 	0.36100 0.29310 0.01360 0.03900
C 	C 	0.15300 0.49020 0.38860 -0.05700
C 	C 	0.14030 0.37270 0.40280 0.25100
C 	C 	0.13650 0.30650 0.34190 -1.12400
H 	H 	0.10300 0.34510 0.31040 0.33400
H 	H 	0.20970 0.28270 0.30930 0.32500
C 	C 	0.08570 0.22760 0.36150 1.35000
C 	C 	0.97710 0.25760 0.40740 -2.16100
H 	H 	0.94330 0.20320 0.42110 0.66600
H 	H 	0.94200 0.29910 0.37910 0.66000
H 	H 	0.97210 0.29090 0.45310 0.68000
C 	C 	0.08300 0.18670 0.28800 -1.76100
H 	H 	0.04440 0.13500 0.29960 0.51400
H 	H 	0.15450 0.16390 0.25370 0.51800
H 	H 	0.04810 0.23510 0.26410 0.51500
C 	C 	0.10450 0.06380 0.42420 0.06800
H 	H 	0.03330 0.07990 0.46240 -0.03200
H 	H 	0.10040 0.02830 0.38190 -0.03600
C 	C 	0.17320 0.00720 0.45700 -0.25400
H 	H 	0.14240 0.95250 0.47890 0.09800
H 	H 	0.24120 0.98410 0.41680 0.12100
C 	C 	0.23370 0.91980 0.59380 -0.06100
C 	C 	0.26940 0.00980 0.55240 0.04100
C 	C 	0.27390 0.07380 0.61260 -0.17700
C 	C 	0.32850 0.16010 0.58800 0.08500
C 	C 	0.43940 0.13840 0.54800 -0.03000
C 	C 	0.29390 0.31860 0.53790 -0.06900
H 	H 	0.36400 0.30580 0.49810 0.05300
H 	H 	0.29960 0.35070 0.58130 0.05100
C 	C 	0.21740 0.38170 0.50830 -0.09200
H 	H 	0.24300 0.44030 0.49120 0.05100
H 	H 	0.14780 0.39740 0.54840 0.03800
N 	N 	0.36860 0.62170 0.62930 -0.10100
N 	N 	0.62090 0.37660 0.56860 -0.09800
O 	O 	0.13670 0.94160 0.90150 -0.40800
O 	O 	0.25630 0.03300 0.88600 -0.33400
O 	O 	0.62480 0.93070 0.69350 -0.30100
O 	O 	0.63900 0.83460 0.59930 -0.41600
O 	O 	0.59570 0.43470 0.88770 -0.41000
O 	O 	0.76050 0.41120 0.88550 -0.30100
O 	O 	0.03720 0.22990 0.55850 -0.46900
O 	O 	0.05330 0.26320 0.66740 -0.32800
N 	N 	0.93580 0.88440 0.99020 -0.27300
H 	H 	0.89500 0.90000 0.02500 0.14400
N 	N 	0.08040 0.90940 0.05950 -0.32700
H 	H 	0.15060 0.87940 0.04230 0.07700
N 	N 	0.36880 0.51390 0.96890 -0.30100
H 	H 	0.30600 0.53200 0.00700 0.09600
N 	N 	0.47560 0.36280 0.02530 -0.37300
H 	H 	0.50930 0.32600 0.98200 0.15500
N 	N 	0.21020 0.32820 0.44220 -0.29800
H 	H 	0.27190 0.32400 0.40200 0.10400
N 	N 	0.14520 0.15230 0.39610 -0.45400
H 	H 	0.21420 0.12400 0.37800 0.12100
N 	N 	0.19150 0.05810 0.51610 -0.23300
H 	H 	0.12460 0.06670 0.55040 0.08800
N 	N 	0.25910 0.23250 0.56070 -0.25200
H 	H 	0.19100 0.25500 0.59000 0.10500
C 	C 	0.33400 0.19700 0.67780 0.00400
C 	C 	0.70300 0.35700 0.50200 -0.01800
C 	C 	0.88000 0.77100 0.92400 -0.17700
C 	C 	0.92100 0.76500 0.89200 0.02000
C 	C 	0.19100 0.45230 0.34750 -0.05600
C 	C 	0.31900 0.21900 0.66700 0.00600
C 	C 	0.31700 0.04200 0.62500 0.11400
C 	C 	0.37400 0.19900 0.63700 -0.04800
C 	C 	0.37900 0.96090 0.49930 -0.00600
Ni	Ni	0.79883 0.80640 0.52070 1.08800
C 	C 	0.69740 0.09850 0.19920 -0.09500
C 	C 	0.59560 0.08170 0.23720 0.00500
H 	H 	0.57440 0.03030 0.22080 0.03000
C 	C 	0.52420 0.13900 0.29900 -0.10800
C 	C 	0.56020 0.21090 0.32550 -0.04400
H 	H 	0.51320 0.24860 0.36800 0.05700
C 	C 	0.66420 0.23010 0.29130 0.02400
C 	C 	0.73050 0.17160 0.22760 -0.06100
H 	H 	0.79980 0.18180 0.20300 0.03600
C 	C 	0.77280 0.03430 0.13260 0.30400
C 	C 	0.41420 0.12390 0.33900 0.33900
C 	C 	0.71260 0.29290 0.33010 -0.10500
H 	H 	0.77320 0.31340 0.29180 0.03300
H 	H 	0.73790 0.25650 0.36670 0.05100
C 	C 	0.62720 0.44250 0.31350 -0.00800
H 	H 	0.69830 0.45540 0.28670 0.01600
H 	H 	0.60550 0.41280 0.27660 0.02700
C 	C 	0.55270 0.53440 0.34310 -0.14900
H 	H 	0.58280 0.56790 0.37260 0.07800
H 	H 	0.55280 0.57180 0.29910 0.06600
C 	C 	0.43660 0.53440 0.39240 -0.02800
H 	H 	0.43470 0.48660 0.43030 0.04700
H 	H 	0.40030 0.51600 0.36000 0.04100
C 	C 	0.39600 0.64370 0.49850 0.03200
C 	C 	0.33320 0.58790 0.56830 -0.01100
C 	C 	0.37190 0.69890 0.37790 -0.12300
H 	H 	0.34880 0.75960 0.40650 0.06800
H 	H 	0.44260 0.69850 0.34050 0.06700
C 	C 	0.00010 0.74260 0.37450 0.32300
C 	C 	0.30780 0.59370 0.14570 0.32500
C 	C 	0.26630 0.64070 0.22330 -0.10300
C 	C 	0.33620 0.65100 0.26260 -0.05400
H 	H 	0.40920 0.63010 0.23850 0.04700
C 	C 	0.29760 0.69140 0.33580 0.04100
C 	C 	0.18950 0.72290 0.37160 -0.05100
H 	H 	0.16310 0.75150 0.42070 0.02900
C 	C 	0.11870 0.71150 0.33350 -0.09500
C 	C 	0.15890 0.67040 0.26210 0.01500
H 	H 	0.11170 0.66180 0.23800 0.03300
C 	C 	0.21040 0.87810 0.13100 -1.07700
H 	H 	0.18880 0.81930 0.14970 0.34200
H 	H 	0.26840 0.86610 0.08260 0.30900
H 	H 	0.23310 0.90660 0.16720 0.33400
C 	C 	0.02260 0.96830 0.19410 -1.22900
H 	H 	0.99690 0.91070 0.21200 0.40500
H 	H 	0.04570 0.99390 0.23140 0.37400
H 	H 	0.96620 0.01360 0.18670 0.38900
C 	C 	0.11360 0.94740 0.12010 0.65200
C 	C 	0.15480 0.04120 0.09300 -0.61000
H 	H 	0.21460 0.02510 0.04520 0.17400
H 	H 	0.18380 0.05940 0.13020 0.16800
C 	C 	0.08630 0.12830 0.08010 0.18500
C 	C 	0.16100 0.19810 0.07980 0.03700
C 	C 	0.99450 0.19830 0.99280 0.18800
H 	H 	0.03030 0.25250 0.98380 -0.02700
H 	H 	0.92920 0.21450 0.03700 -0.06200
C 	C 	0.96810 0.17830 0.92500 -0.17900
H 	H 	0.91790 0.23120 0.91740 0.07900
H 	H 	0.03190 0.16800 0.87940 0.05800
C 	C 	0.50800 0.20070 0.07520 -0.98400
H 	H 	0.43830 0.19000 0.08030 0.29500
H 	H 	0.55760 0.17840 0.02510 0.27600
H 	H 	0.53050 0.16710 0.11350 0.30600
C 	C 	0.42610 0.35040 0.16590 -1.17000
H 	H 	0.35580 0.34130 0.17100 0.35900
H 	H 	0.44770 0.31640 0.20440 0.37100
H 	H 	0.42560 0.41690 0.17220 0.38700
C 	C 	0.50400 0.31330 0.08670 0.63700
C 	C 	0.61760 0.32390 0.07740 -0.77600
H 	H 	0.66300 0.30370 0.02500 0.22400
H 	H 	0.64120 0.27950 0.11060 0.25200
C 	C 	0.63710 0.41630 0.09300 0.47900
H 	H 	0.58250 0.44260 0.14180 -0.12700
C 	C 	0.74970 0.40520 0.10160 -0.91300
H 	H 	0.76210 0.46650 0.11210 0.28800
H 	H 	0.75130 0.36480 0.14300 0.29000
H 	H 	0.80410 0.37750 0.05480 0.28100
C 	C 	0.64650 0.58170 0.04460 -0.12100
H 	H 	0.59400 0.60940 0.09300 0.05300
H 	H 	0.71710 0.57950 0.04660 0.03600
C 	C 	0.63370 0.64160 0.97790 -0.02700
H 	H 	0.68930 0.61650 0.93000 0.02200
H 	H 	0.63900 0.70690 0.98640 0.02900
C 	C 	0.84700 0.50980 0.61140 -0.04800
C 	C 	0.85970 0.62730 0.59720 0.27500
C 	C 	0.86350 0.69350 0.65810 -1.20200
H 	H 	0.89700 0.65490 0.68960 0.36200
H 	H 	0.79030 0.71730 0.69070 0.34700
C 	C 	0.91430 0.77240 0.63850 1.46800
C 	C 	0.02290 0.74240 0.59260 -2.33600
H 	H 	0.05670 0.79680 0.57890 0.70800
H 	H 	0.05800 0.70090 0.62090 0.70400
H 	H 	0.02790 0.70910 0.54690 0.72200
C 	C 	0.91700 0.81330 0.71200 -1.89900
H 	H 	0.95560 0.86500 0.70040 0.56800
H 	H 	0.84550 0.83610 0.74630 0.56400
H 	H 	0.95190 0.76490 0.73590 0.56300
C 	C 	0.89550 0.93620 0.57580 -0.06400
H 	H 	0.96670 0.92010 0.53760 0.01900
H 	H 	0.89960 0.97170 0.61810 0.02100
C 	C 	0.82680 0.99280 0.54300 -0.02700
H 	H 	0.85760 0.04750 0.52110 0.01400
H 	H 	0.75880 0.01590 0.58320 0.02800
C 	C 	0.76630 0.08020 0.40620 -0.09800
C 	C 	0.73060 0.99020 0.44760 0.12800
C 	C 	0.72610 0.92620 0.38740 -0.30000
C 	C 	0.67150 0.83990 0.41200 0.11300
C 	C 	0.56060 0.86160 0.45200 -0.03300
C 	C 	0.70610 0.68140 0.46210 -0.06700
H 	H 	0.63600 0.69420 0.50190 0.05300
H 	H 	0.70040 0.64930 0.41870 0.05000
C 	C 	0.78260 0.61830 0.49170 -0.09500
H 	H 	0.75700 0.55970 0.50880 0.05300
H 	H 	0.85220 0.60260 0.45160 0.04300
N 	N 	0.63140 0.37830 0.37070 -0.10000
N 	N 	0.37910 0.62340 0.43140 -0.09700
O 	O 	0.86330 0.05840 0.09850 -0.41400
O 	O 	0.74370 0.96700 0.11400 -0.30000
O 	O 	0.37520 0.06930 0.30650 -0.31700
O 	O 	0.36100 0.16540 0.40070 -0.41900
O 	O 	0.40430 0.56530 0.11230 -0.42300
O 	O 	0.23950 0.58880 0.11450 -0.31900
O 	O 	0.96280 0.77010 0.44150 -0.43000
O 	O 	0.94670 0.73680 0.33260 -0.28900
N 	N 	0.06420 0.11560 0.00980 -0.50000
H 	H 	0.10500 0.10000 0.97500 0.29000
N 	N 	0.91960 0.09060 0.94050 -0.29400
H 	H 	0.84940 0.12060 0.95770 0.09600
N 	N 	0.63120 0.48610 0.03110 -0.35300
H 	H 	0.69400 0.46800 0.99300 0.17600
N 	N 	0.52440 0.63720 0.97470 -0.32100
H 	H 	0.49070 0.67400 0.01800 0.07400
N 	N 	0.78980 0.67180 0.55780 -0.30100
H 	H 	0.72810 0.67600 0.59800 0.10300
N 	N 	0.85480 0.84770 0.60390 -0.45400
H 	H 	0.78580 0.87600 0.62200 0.12700
N 	N 	0.80850 0.94190 0.48390 -0.26900
H 	H 	0.87540 0.93330 0.44960 0.10400
N 	N 	0.74090 0.76750 0.43930 -0.25400
H 	H 	0.80900 0.74500 0.41000 0.10700
C 	C 	0.66600 0.80300 0.32220 0.00900
C 	C 	0.29700 0.64300 0.49800 -0.02200
C 	C 	0.12000 0.22900 0.07600 -0.18300
C 	C 	0.07900 0.23500 0.10800 0.00500
C 	C 	0.80900 0.54770 0.65250 -0.06400
C 	C 	0.68100 0.78100 0.33300 0.01700
C 	C 	0.68300 0.95800 0.37500 0.23200
C 	C 	0.62600 0.80100 0.36300 -0.07100
C 	C 	0.62100 0.03910 0.50070 -0.05900
Ni	Ni	-0.00000 0.00000 -0.00000 1.05400
Ni	Ni	0.50000 0.50000 -0.00000 1.07700
