data_crystal

_cell_length_a 12.85390
_cell_length_b 14.45780
_cell_length_c 30.45300
_cell_angle_alpha 90.00000
_cell_angle_beta  96.49700
_cell_angle_gamma 90.00000

_symmetry_space_group_name_	'P 1'
_symmetry_space_group_name_H-M	'P 1'

loop_
_symmetry_equiv_pos_as_xyz
  x,y,z

loop_
_atom_site_label
_atom_site_type_symbol
_atom_site_fract_x
_atom_site_fract_y
_atom_site_fract_z
_atom_site_charge
Ni	Ni	0.87276 0.78238 0.06641 1.10500
Ni	Ni	0.19672 0.90705 0.11183 1.06300
Ni	Ni	0.12926 0.70616 0.11907 1.10600
Ni	Ni	0.97333 0.80990 0.16113 1.10500
O 	O 	0.14677 0.79637 0.06652 -0.56300
O 	O 	0.07542 0.10210 0.89223 -0.56600
O 	O 	0.97009 0.71444 0.11129 -0.66800
H 	H 	0.93870 0.65630 0.11980 0.17400
O 	O 	0.28879 0.69812 0.13018 -0.45600
O 	O 	0.00766 0.71096 0.20889 -0.42100
O 	O 	0.11999 0.62570 0.17397 -0.42700
O 	O 	0.12734 0.82823 0.15373 -0.68200
H 	H 	0.17070 0.82350 0.18220 0.15800
O 	O 	0.93606 0.01960 0.90828 -0.48100
O 	O 	0.16740 0.33457 0.97129 -0.38100
O 	O 	0.98763 0.80313 0.02689 -0.46000
O 	O 	0.81930 0.78606 0.16834 -0.44900
O 	O 	0.74457 0.75890 0.09889 -0.44500
O 	O 	0.33918 0.84726 0.13071 -0.48200
N 	N 	0.03130 0.41444 0.29302 -0.22000
N 	N 	0.26190 0.87440 0.94441 -0.26000
C 	C 	0.64790 0.72810 0.15889 -0.31900
N 	N 	0.14170 0.58650 0.08277 -0.21200
C 	C 	0.19610 0.51500 0.10262 0.04600
H 	H 	0.22280 0.52090 0.13220 0.01200
N 	N 	0.56580 0.63810 0.21166 -0.25100
O 	O 	0.21670 0.26460 0.03623 -0.27800
C 	C 	0.10290 0.96030 0.93190 -0.37000
C 	C 	0.12460 0.49820 0.01592 -0.07900
H 	H 	0.10100 0.49520 0.98590 0.06700
C 	C 	0.46110 0.73200 0.15889 -0.32700
C 	C 	0.06620 0.91530 0.96661 0.27800
H 	H 	0.99800 0.92590 0.97270 -0.05000
C 	C 	0.98390 0.49580 0.29767 0.04100
H 	H 	0.94230 0.50200 0.32060 -0.01900
C 	C 	0.03300 0.03290 0.90852 0.46900
C 	C 	0.08460 0.81390 0.03197 0.47200
C 	C 	0.35330 0.76170 0.13828 0.43800
C 	C 	0.06130 0.63880 0.20368 0.31900
C 	C 	0.99310 0.56980 0.27080 -0.08700
H 	H 	0.95970 0.62530 0.27580 0.05500
C 	C 	0.22940 0.83470 0.98083 0.39200
C 	C 	0.74490 0.76010 0.14061 0.42400
C 	C 	0.12910 0.85430 0.99276 -0.36900
C 	C 	0.17700 0.42370 0.03682 -0.02200
C 	C 	0.05300 0.56150 0.23566 -0.04600
C 	C 	0.10770 0.57740 0.04003 0.04000
H 	H 	0.07100 0.62620 0.02570 0.01100
C 	C 	0.65210 0.66600 0.19423 0.36400
C 	C 	0.20270 0.93800 0.92100 0.38600
C 	C 	0.54990 0.76090 0.14154 0.23900
H 	H 	0.54440 0.80240 0.11810 -0.05000
C 	C 	0.08960 0.40570 0.25931 0.03800
H 	H 	0.12300 0.34970 0.25540 0.01300
C 	C 	0.10170 0.47700 0.23028 -0.07500
H 	H 	0.14220 0.46870 0.20720 0.05800
C 	C 	0.18850 0.33340 0.01260 0.30500
C 	C 	0.24960 0.97850 0.88235 -0.90100
H 	H 	0.31740 0.95190 0.88060 0.29200
H 	H 	0.25640 0.04430 0.88610 0.29500
H 	H 	0.20500 0.96540 0.85560 0.29900
C 	C 	0.30410 0.76970 0.00583 -0.93400
H 	H 	0.36860 0.76880 0.99270 0.30500
H 	H 	0.27440 0.70870 0.00490 0.31200
H 	H 	0.31740 0.78970 0.03600 0.30500
C 	C 	0.75370 0.62380 0.21507 -0.86800
H 	H 	0.73980 0.58380 0.23890 0.27900
H 	H 	0.80070 0.67210 0.22630 0.30000
H 	H 	0.78510 0.58870 0.19330 0.28600
C 	C 	0.21360 0.43380 0.08098 -0.07600
H 	H 	0.25010 0.38580 0.09610 0.06400
C 	C 	0.47100 0.67030 0.19427 0.37300
C 	C 	0.37960 0.63960 0.21753 -0.89000
H 	H 	0.40360 0.59780 0.24100 0.28900
H 	H 	0.32910 0.60890 0.19690 0.30900
H 	H 	0.34770 0.69260 0.22950 0.28400
Ni	Ni	0.12724 0.28238 0.43359 1.10600
Ni	Ni	0.80328 0.40705 0.38817 1.06400
Ni	Ni	0.87074 0.20616 0.38093 1.10700
Ni	Ni	0.02667 0.30990 0.33887 1.10600
O 	O 	0.85323 0.29637 0.43348 -0.56200
O 	O 	0.92458 0.60210 0.60777 -0.56600
O 	O 	0.02991 0.21444 0.38871 -0.66700
H 	H 	0.06130 0.15630 0.38020 0.17500
O 	O 	0.71121 0.19812 0.36982 -0.45500
O 	O 	0.99234 0.21096 0.29111 -0.41900
O 	O 	0.88001 0.12570 0.32603 -0.42500
O 	O 	0.87266 0.32823 0.34627 -0.68100
H 	H 	0.82930 0.32350 0.31780 0.15900
O 	O 	0.06394 0.51960 0.59172 -0.48200
O 	O 	0.83260 0.83457 0.52871 -0.38000
O 	O 	0.01237 0.30313 0.47311 -0.45800
O 	O 	0.18070 0.28606 0.33166 -0.44900
O 	O 	0.25543 0.25890 0.40111 -0.44500
O 	O 	0.66082 0.34726 0.36929 -0.48200
N 	N 	0.96870 0.91444 0.20698 -0.22200
N 	N 	0.73810 0.37440 0.55559 -0.26100
C 	C 	0.35210 0.22810 0.34111 -0.31900
N 	N 	0.85830 0.08650 0.41723 -0.21300
C 	C 	0.80390 0.01500 0.39738 0.04900
H 	H 	0.77720 0.02090 0.36780 0.01100
N 	N 	0.43420 0.13810 0.28834 -0.25100
O 	O 	0.78330 0.76460 0.46377 -0.27800
C 	C 	0.89710 0.46030 0.56810 -0.37300
C 	C 	0.87540 0.99820 0.48408 -0.08300
H 	H 	0.89900 0.99520 0.51410 0.06800
C 	C 	0.53890 0.23200 0.34111 -0.32700
C 	C 	0.93380 0.41530 0.53339 0.27700
H 	H 	0.00200 0.42590 0.52730 -0.04900
C 	C 	0.01610 0.99580 0.20233 0.05000
H 	H 	0.05770 0.00200 0.17940 -0.02300
C 	C 	0.96700 0.53290 0.59148 0.47300
C 	C 	0.91540 0.31390 0.46803 0.47100
C 	C 	0.64670 0.26170 0.36172 0.43800
C 	C 	0.93870 0.13880 0.29632 0.31700
C 	C 	0.00690 0.06980 0.22920 -0.09600
H 	H 	0.04030 0.12530 0.22420 0.05800
C 	C 	0.77060 0.33470 0.51917 0.39200
C 	C 	0.25510 0.26010 0.35939 0.42400
C 	C 	0.87090 0.35430 0.50724 -0.36800
C 	C 	0.82300 0.92370 0.46318 -0.01900
C 	C 	0.94700 0.06150 0.26434 -0.03800
C 	C 	0.89230 0.07740 0.45997 0.04400
H 	H 	0.92900 0.12620 0.47430 0.01100
C 	C 	0.34790 0.16600 0.30577 0.36400
C 	C 	0.79730 0.43800 0.57900 0.38800
C 	C 	0.45010 0.26090 0.35846 0.23900
H 	H 	0.45560 0.30240 0.38190 -0.05000
C 	C 	0.91040 0.90570 0.24069 0.04200
H 	H 	0.87700 0.84970 0.24460 0.01200
C 	C 	0.89830 0.97700 0.26972 -0.08200
H 	H 	0.85780 0.96870 0.29280 0.06000
C 	C 	0.81150 0.83340 0.48740 0.30400
C 	C 	0.75040 0.47850 0.61765 -0.90800
H 	H 	0.68260 0.45190 0.61940 0.29300
H 	H 	0.74360 0.54430 0.61390 0.29800
H 	H 	0.79500 0.46540 0.64440 0.30100
C 	C 	0.69590 0.26970 0.49417 -0.93200
H 	H 	0.63140 0.26880 0.50730 0.30500
H 	H 	0.72560 0.20870 0.49510 0.31100
H 	H 	0.68260 0.28970 0.46400 0.30500
C 	C 	0.24630 0.12380 0.28493 -0.86700
H 	H 	0.26020 0.08380 0.26110 0.27900
H 	H 	0.19930 0.17210 0.27370 0.30000
H 	H 	0.21490 0.08870 0.30670 0.28500
C 	C 	0.78640 0.93380 0.41902 -0.08000
H 	H 	0.74990 0.88580 0.40390 0.06500
C 	C 	0.52900 0.17030 0.30573 0.37300
C 	C 	0.62040 0.13960 0.28247 -0.89100
H 	H 	0.59640 0.09780 0.25900 0.28900
H 	H 	0.67090 0.10890 0.30310 0.30900
H 	H 	0.65230 0.19260 0.27050 0.28500
Ni	Ni	0.12724 0.21762 0.93359 1.10600
Ni	Ni	0.80328 0.09295 0.88817 1.06400
Ni	Ni	0.87074 0.29384 0.88093 1.10700
Ni	Ni	0.02667 0.19010 0.83887 1.10600
O 	O 	0.85323 0.20363 0.93348 -0.56200
O 	O 	0.92458 0.89790 0.10777 -0.56500
O 	O 	0.02991 0.28556 0.88871 -0.66700
H 	H 	0.06130 0.34370 0.88020 0.17500
O 	O 	0.71121 0.30188 0.86982 -0.45500
O 	O 	0.99234 0.28904 0.79111 -0.42000
O 	O 	0.88001 0.37430 0.82603 -0.42600
O 	O 	0.87266 0.17177 0.84627 -0.68100
H 	H 	0.82930 0.17650 0.81780 0.15900
O 	O 	0.06394 0.98040 0.09172 -0.48000
O 	O 	0.83260 0.66543 0.02871 -0.38000
O 	O 	0.01237 0.19687 0.97311 -0.45900
O 	O 	0.18070 0.21394 0.83166 -0.44900
O 	O 	0.25543 0.24110 0.90111 -0.44500
O 	O 	0.66082 0.15274 0.86929 -0.48200
N 	N 	0.96870 0.58556 0.70698 -0.22000
N 	N 	0.73810 0.12560 0.05559 -0.26000
C 	C 	0.35210 0.27190 0.84111 -0.31900
N 	N 	0.85830 0.41350 0.91723 -0.21200
C 	C 	0.80390 0.48500 0.89738 0.04600
H 	H 	0.77720 0.47910 0.86780 0.01200
N 	N 	0.43420 0.36190 0.78834 -0.25100
O 	O 	0.78330 0.73540 0.96377 -0.27800
C 	C 	0.89710 0.03970 0.06810 -0.37000
C 	C 	0.87540 0.50180 0.98408 -0.07900
H 	H 	0.89900 0.50480 0.01410 0.06700
C 	C 	0.53890 0.26800 0.84111 -0.32700
C 	C 	0.93380 0.08470 0.03339 0.27800
H 	H 	0.00200 0.07410 0.02730 -0.05000
C 	C 	0.01610 0.50420 0.70233 0.04100
H 	H 	0.05770 0.49800 0.67940 -0.01900
C 	C 	0.96700 0.96710 0.09148 0.46900
C 	C 	0.91540 0.18610 0.96803 0.47200
C 	C 	0.64670 0.23830 0.86172 0.43800
C 	C 	0.93870 0.36120 0.79632 0.31900
C 	C 	0.00690 0.43020 0.72920 -0.08700
H 	H 	0.04030 0.37470 0.72420 0.05500
C 	C 	0.77060 0.16530 0.01917 0.39200
C 	C 	0.25510 0.23990 0.85939 0.42400
C 	C 	0.87090 0.14570 0.00724 -0.36900
C 	C 	0.82300 0.57630 0.96318 -0.02200
C 	C 	0.94700 0.43850 0.76434 -0.04600
C 	C 	0.89230 0.42260 0.95997 0.04000
H 	H 	0.92900 0.37380 0.97430 0.01100
C 	C 	0.34790 0.33400 0.80577 0.36400
C 	C 	0.79730 0.06200 0.07900 0.38600
C 	C 	0.45010 0.23910 0.85846 0.23900
H 	H 	0.45560 0.19760 0.88190 -0.05000
C 	C 	0.91040 0.59430 0.74069 0.03800
H 	H 	0.87700 0.65030 0.74460 0.01300
C 	C 	0.89830 0.52300 0.76972 -0.07500
H 	H 	0.85780 0.53130 0.79280 0.05800
C 	C 	0.81150 0.66660 0.98740 0.30500
C 	C 	0.75040 0.02150 0.11765 -0.90100
H 	H 	0.68260 0.04810 0.11940 0.29200
H 	H 	0.74360 0.95570 0.11390 0.29500
H 	H 	0.79500 0.03460 0.14440 0.29900
C 	C 	0.69590 0.23030 0.99417 -0.93400
H 	H 	0.63140 0.23120 0.00730 0.30500
H 	H 	0.72560 0.29130 0.99510 0.31200
H 	H 	0.68260 0.21030 0.96400 0.30500
C 	C 	0.24630 0.37620 0.78493 -0.86800
H 	H 	0.26020 0.41620 0.76110 0.27900
H 	H 	0.19930 0.32790 0.77370 0.30000
H 	H 	0.21490 0.41130 0.80670 0.28600
C 	C 	0.78640 0.56620 0.91902 -0.07600
H 	H 	0.74990 0.61420 0.90390 0.06400
C 	C 	0.52900 0.32970 0.80573 0.37300
C 	C 	0.62040 0.36040 0.78247 -0.89000
H 	H 	0.59640 0.40220 0.75900 0.28900
H 	H 	0.67090 0.39110 0.80310 0.30900
H 	H 	0.65230 0.30740 0.77050 0.28400
Ni	Ni	0.87276 0.71762 0.56641 1.10600
Ni	Ni	0.19672 0.59295 0.61183 1.06400
Ni	Ni	0.12926 0.79384 0.61907 1.10700
Ni	Ni	0.97333 0.69010 0.66113 1.10600
O 	O 	0.14677 0.70363 0.56652 -0.56200
O 	O 	0.07542 0.39790 0.39223 -0.56600
O 	O 	0.97009 0.78556 0.61129 -0.66700
H 	H 	0.93870 0.84370 0.61980 0.17500
O 	O 	0.28879 0.80188 0.63018 -0.45500
O 	O 	0.00766 0.78904 0.70889 -0.41900
O 	O 	0.11999 0.87430 0.67397 -0.42500
O 	O 	0.12734 0.67177 0.65373 -0.68100
H 	H 	0.17070 0.67650 0.68220 0.15900
O 	O 	0.93606 0.48040 0.40828 -0.48200
O 	O 	0.16740 0.16543 0.47129 -0.38000
O 	O 	0.98763 0.69687 0.52689 -0.45800
O 	O 	0.81930 0.71394 0.66834 -0.44900
O 	O 	0.74457 0.74110 0.59889 -0.44500
O 	O 	0.33918 0.65274 0.63071 -0.48200
N 	N 	0.03130 0.08556 0.79302 -0.22200
N 	N 	0.26190 0.62560 0.44441 -0.26100
C 	C 	0.64790 0.77190 0.65889 -0.31900
N 	N 	0.14170 0.91350 0.58277 -0.21300
C 	C 	0.19610 0.98500 0.60262 0.04900
H 	H 	0.22280 0.97910 0.63220 0.01100
N 	N 	0.56580 0.86190 0.71166 -0.25100
O 	O 	0.21670 0.23540 0.53623 -0.27800
C 	C 	0.10290 0.53970 0.43190 -0.37300
C 	C 	0.12460 0.00180 0.51592 -0.08300
H 	H 	0.10100 0.00480 0.48590 0.06800
C 	C 	0.46110 0.76800 0.65889 -0.32700
C 	C 	0.06620 0.58470 0.46661 0.27700
H 	H 	0.99800 0.57410 0.47270 -0.04900
C 	C 	0.98390 0.00420 0.79767 0.05000
H 	H 	0.94230 0.99800 0.82060 -0.02300
C 	C 	0.03300 0.46710 0.40852 0.47300
C 	C 	0.08460 0.68610 0.53197 0.47100
C 	C 	0.35330 0.73830 0.63828 0.43800
C 	C 	0.06130 0.86120 0.70368 0.31700
C 	C 	0.99310 0.93020 0.77080 -0.09600
H 	H 	0.95970 0.87470 0.77580 0.05800
C 	C 	0.22940 0.66530 0.48083 0.39200
C 	C 	0.74490 0.73990 0.64061 0.42400
C 	C 	0.12910 0.64570 0.49276 -0.36800
C 	C 	0.17700 0.07630 0.53682 -0.01900
C 	C 	0.05300 0.93850 0.73566 -0.03800
C 	C 	0.10770 0.92260 0.54003 0.04400
H 	H 	0.07100 0.87380 0.52570 0.01100
C 	C 	0.65210 0.83400 0.69423 0.36400
C 	C 	0.20270 0.56200 0.42100 0.38800
C 	C 	0.54990 0.73910 0.64154 0.23900
H 	H 	0.54440 0.69760 0.61810 -0.05000
C 	C 	0.08960 0.09430 0.75931 0.04200
H 	H 	0.12300 0.15030 0.75540 0.01200
C 	C 	0.10170 0.02300 0.73028 -0.08200
H 	H 	0.14220 0.03130 0.70720 0.06000
C 	C 	0.18850 0.16660 0.51260 0.30400
C 	C 	0.24960 0.52150 0.38235 -0.90800
H 	H 	0.31740 0.54810 0.38060 0.29300
H 	H 	0.25640 0.45570 0.38610 0.29800
H 	H 	0.20500 0.53460 0.35560 0.30100
C 	C 	0.30410 0.73030 0.50583 -0.93200
H 	H 	0.36860 0.73120 0.49270 0.30500
H 	H 	0.27440 0.79130 0.50490 0.31100
H 	H 	0.31740 0.71030 0.53600 0.30500
C 	C 	0.75370 0.87620 0.71507 -0.86700
H 	H 	0.73980 0.91620 0.73890 0.27900
H 	H 	0.80070 0.82790 0.72630 0.30000
H 	H 	0.78510 0.91130 0.69330 0.28500
C 	C 	0.21360 0.06620 0.58098 -0.08000
H 	H 	0.25010 0.11420 0.59610 0.06500
C 	C 	0.47100 0.82970 0.69427 0.37300
C 	C 	0.37960 0.86040 0.71753 -0.89100
H 	H 	0.40360 0.90220 0.74100 0.28900
H 	H 	0.32910 0.89110 0.69690 0.30900
H 	H 	0.34770 0.80740 0.72950 0.28500
