data_crystal

_cell_length_a 10.04330
_cell_length_b 10.04330
_cell_length_c 11.73400
_cell_angle_alpha 100.24100
_cell_angle_beta  100.24100
_cell_angle_gamma 97.68240

_symmetry_space_group_name_	'P 1'
_symmetry_space_group_name_H-M	'P 1'

loop_
_symmetry_equiv_pos_as_xyz
  x,y,z

loop_
_atom_site_label
_atom_site_type_symbol
_atom_site_fract_x
_atom_site_fract_y
_atom_site_fract_z
_atom_site_charge
Cu	Cu	0.94289 0.94289 0.07500 0.88000
Cu	Cu	0.05711 0.05711 0.92500 0.90200
H 	H 	0.31120 0.44080 0.06300 0.10300
H 	H 	0.30120 0.56000 0.43800 0.15100
H 	H 	0.10660 0.46500 0.09250 0.09900
H 	H 	0.07120 0.61240 0.12620 0.10100
H 	H 	0.03060 0.34200 0.21630 0.31100
H 	H 	0.03820 0.41860 0.34650 0.29300
H 	H 	0.08580 0.50020 0.25460 0.29100
H 	H 	0.55920 0.68880 0.93700 0.10000
H 	H 	0.44000 0.69880 0.56200 0.15100
H 	H 	0.53500 0.89340 0.90750 0.09900
H 	H 	0.38760 0.92880 0.87380 0.09900
H 	H 	0.65800 0.96940 0.78370 0.31500
H 	H 	0.58140 0.96180 0.65350 0.29200
H 	H 	0.49980 0.91420 0.74540 0.29400
H 	H 	0.68880 0.55920 0.93700 0.10000
H 	H 	0.69880 0.44000 0.56200 0.15100
H 	H 	0.89340 0.53500 0.90750 0.09900
H 	H 	0.92880 0.38760 0.87380 0.09900
H 	H 	0.96940 0.65800 0.78370 0.31500
H 	H 	0.96180 0.58140 0.65350 0.29200
H 	H 	0.91420 0.49980 0.74540 0.29400
H 	H 	0.44080 0.31120 0.06300 0.10300
H 	H 	0.56000 0.30120 0.43800 0.15100
H 	H 	0.46500 0.10660 0.09250 0.09900
H 	H 	0.61240 0.07120 0.12620 0.10100
H 	H 	0.34200 0.03060 0.21630 0.31100
H 	H 	0.41860 0.03820 0.34650 0.29300
H 	H 	0.50020 0.08580 0.25460 0.29100
C 	C 	0.23890 0.61370 0.03940 0.17800
C 	C 	0.33160 0.52240 0.03760 -0.20800
C 	C 	0.23150 0.38490 0.31650 0.46000
C 	C 	0.32530 0.47690 0.40680 -0.40200
C 	C 	0.09680 0.54880 0.06600 -0.24600
C 	C 	0.08210 0.41430 0.27990 -0.92400
C 	C 	0.38630 0.76110 0.96060 0.19400
C 	C 	0.47760 0.66840 0.96240 -0.17800
C 	C 	0.61510 0.76850 0.68350 0.46100
C 	C 	0.52310 0.67470 0.59320 -0.40300
C 	C 	0.45120 0.90320 0.93400 -0.22400
C 	C 	0.58570 0.91790 0.72010 -0.92700
C 	C 	0.76110 0.38630 0.96060 0.19400
C 	C 	0.66840 0.47760 0.96240 -0.17800
C 	C 	0.76850 0.61510 0.68350 0.46100
C 	C 	0.67470 0.52310 0.59320 -0.40300
C 	C 	0.90320 0.45120 0.93400 -0.22400
C 	C 	0.91790 0.58570 0.72010 -0.92700
C 	C 	0.61370 0.23890 0.03940 0.17800
C 	C 	0.52240 0.33160 0.03760 -0.20800
C 	C 	0.38490 0.23150 0.31650 0.46000
C 	C 	0.47690 0.32530 0.40680 -0.40200
C 	C 	0.54880 0.09680 0.06600 -0.24600
C 	C 	0.41430 0.08210 0.27990 -0.92400
C 	C 	0.16380 0.16380 0.17060 0.47900
C 	C 	0.26250 0.26250 0.27010 -0.46000
C 	C 	0.45000 0.45000 0.45110 0.19400
C 	C 	0.83620 0.83620 0.82940 0.47800
C 	C 	0.73750 0.73750 0.72990 -0.46100
C 	C 	0.55000 0.55000 0.54890 0.19500
C 	C 	0.16640 0.83360 -0.00000 0.38300
C 	C 	0.26500 0.73500 -0.00000 -0.25700
C 	C 	0.45140 0.54860 -0.00000 0.06500
C 	C 	0.83360 0.16640 -0.00000 0.38300
C 	C 	0.73500 0.26500 -0.00000 -0.25700
C 	C 	0.54860 0.45140 -0.00000 0.06500
O 	O 	0.08058 0.82382 0.06400 -0.44100
O 	O 	0.17618 0.91942 0.93600 -0.41800
O 	O 	0.91942 0.17618 0.93600 -0.41800
O 	O 	0.82382 0.08058 0.06400 -0.44100
O 	O 	0.07820 0.07820 0.19610 -0.45700
O 	O 	0.17520 0.17520 0.06820 -0.46700
O 	O 	0.92180 0.92180 0.80390 -0.46000
O 	O 	0.82480 0.82480 0.93180 -0.44700
