data_crystal

_cell_length_a 24.16360
_cell_length_b 17.67100
_cell_length_c 10.10650
_cell_angle_alpha 90.00000
_cell_angle_beta  113.96900
_cell_angle_gamma 90.00000

_symmetry_space_group_name_	'P 1'
_symmetry_space_group_name_H-M	'P 1'

loop_
_symmetry_equiv_pos_as_xyz
  x,y,z

loop_
_atom_site_label
_atom_site_type_symbol
_atom_site_fract_x
_atom_site_fract_y
_atom_site_fract_z
_atom_site_charge
Cu	Cu	0.27646 0.19298 0.96543 0.90200
O 	O 	0.21980 0.12900 0.00260 -0.45700
O 	O 	0.17510 0.22590 0.06300 -0.44600
O 	O 	0.21300 0.20950 0.76980 -0.46500
O 	O 	0.16920 0.30680 0.83010 -0.46000
C 	C 	0.17980 0.15650 0.03430 0.41900
C 	C 	0.12900 0.10810 0.03490 -0.26800
C 	C 	0.13720 0.03670 0.09780 0.31400
C 	C 	0.08730 0.99380 0.08650 -0.27700
H 	H 	0.09280 0.94550 0.12910 0.12500
C 	C 	0.02910 0.02230 0.01240 0.10800
C 	C 	0.02090 0.09370 0.94950 -0.19100
H 	H 	0.98160 0.11290 0.89930 0.09000
C 	C 	0.07090 0.13660 0.96080 0.14400
H 	H 	0.06530 0.18490 0.91820 -0.03100
C 	C 	0.20160 0.00530 0.18200 -0.69700
H 	H 	0.23010 0.04690 0.21590 0.23000
H 	H 	0.21260 0.97290 0.11910 0.22000
H 	H 	0.20260 0.97620 0.26450 0.22500
C 	C 	0.17270 0.25790 0.74330 0.46400
C 	C 	0.12140 0.25770 0.59510 -0.37900
C 	C 	0.06500 0.28440 0.57960 0.36200
C 	C 	0.01710 0.28550 0.44380 -0.31300
H 	H 	0.97900 0.30350 0.43340 0.12400
C 	C 	0.02570 0.25980 0.32340 0.14100
C 	C 	0.08210 0.23310 0.33890 -0.32400
H 	H 	0.08790 0.21580 0.25750 0.14100
C 	C 	0.12990 0.23200 0.47470 0.37300
C 	C 	0.04270 0.30940 0.69700 -0.72300
H 	H 	0.00080 0.32590 0.65110 0.21800
H 	H 	0.06760 0.35090 0.75320 0.23500
H 	H 	0.04570 0.26720 0.76120 0.23200
C 	C 	0.18910 0.20000 0.47100 -0.76000
H 	H 	0.19100 0.21330 0.38020 0.24200
H 	H 	0.18950 0.14540 0.48090 0.24400
H 	H 	0.22370 0.22130 0.55080 0.24500
Cu	Cu	0.77646 0.69298 0.96543 0.90100
O 	O 	0.71980 0.62900 0.00260 -0.45900
O 	O 	0.67510 0.72590 0.06300 -0.44700
O 	O 	0.71300 0.70950 0.76980 -0.46500
O 	O 	0.66920 0.80680 0.83010 -0.46000
C 	C 	0.67980 0.65650 0.03430 0.41900
C 	C 	0.62900 0.60810 0.03490 -0.27000
C 	C 	0.63720 0.53670 0.09780 0.31300
C 	C 	0.58730 0.49380 0.08650 -0.27400
H 	H 	0.59280 0.44550 0.12910 0.12300
C 	C 	0.52910 0.52230 0.01240 0.10500
C 	C 	0.52090 0.59370 0.94950 -0.19000
H 	H 	0.48160 0.61290 0.89930 0.09100
C 	C 	0.57090 0.63660 0.96080 0.14500
H 	H 	0.56530 0.68490 0.91820 -0.03100
C 	C 	0.70160 0.50530 0.18200 -0.70400
H 	H 	0.73010 0.54690 0.21590 0.23200
H 	H 	0.71260 0.47290 0.11910 0.22300
H 	H 	0.70260 0.47620 0.26450 0.22800
C 	C 	0.67270 0.75790 0.74330 0.46400
C 	C 	0.62140 0.75770 0.59510 -0.37900
C 	C 	0.56500 0.78440 0.57960 0.36200
C 	C 	0.51710 0.78550 0.44380 -0.31200
H 	H 	0.47900 0.80350 0.43340 0.12300
C 	C 	0.52570 0.75980 0.32340 0.14000
C 	C 	0.58210 0.73310 0.33890 -0.32300
H 	H 	0.58790 0.71580 0.25750 0.14100
C 	C 	0.62990 0.73200 0.47470 0.37300
C 	C 	0.54270 0.80940 0.69700 -0.72300
H 	H 	0.50080 0.82590 0.65110 0.21800
H 	H 	0.56760 0.85090 0.75320 0.23500
H 	H 	0.54570 0.76720 0.76120 0.23200
C 	C 	0.68910 0.70000 0.47100 -0.75900
H 	H 	0.69100 0.71330 0.38020 0.24100
H 	H 	0.68950 0.64540 0.48090 0.24400
H 	H 	0.72370 0.72130 0.55080 0.24500
Cu	Cu	0.72354 0.19298 0.53457 0.90100
O 	O 	0.78020 0.12900 0.49740 -0.45800
O 	O 	0.82490 0.22590 0.43700 -0.44700
O 	O 	0.78700 0.20950 0.73020 -0.46600
O 	O 	0.83080 0.30680 0.66990 -0.46100
C 	C 	0.82020 0.15650 0.46570 0.41800
C 	C 	0.87100 0.10810 0.46510 -0.26900
C 	C 	0.86280 0.03670 0.40220 0.31200
C 	C 	0.91270 0.99380 0.41350 -0.27400
H 	H 	0.90720 0.94550 0.37090 0.12300
C 	C 	0.97090 0.02230 0.48760 0.10600
C 	C 	0.97910 0.09370 0.55050 -0.18900
H 	H 	0.01840 0.11290 0.60070 0.09000
C 	C 	0.92910 0.13660 0.53920 0.14400
H 	H 	0.93470 0.18490 0.58180 -0.03100
C 	C 	0.79840 0.00530 0.31800 -0.69700
H 	H 	0.76990 0.04690 0.28410 0.23100
H 	H 	0.78740 0.97290 0.38090 0.22100
H 	H 	0.79740 0.97620 0.23550 0.22500
C 	C 	0.82730 0.25790 0.75670 0.46300
C 	C 	0.87860 0.25770 0.90490 -0.37900
C 	C 	0.93500 0.28440 0.92040 0.35900
C 	C 	0.98290 0.28550 0.05620 -0.30900
H 	H 	0.02100 0.30350 0.06660 0.12200
C 	C 	0.97430 0.25980 0.17660 0.13900
C 	C 	0.91790 0.23310 0.16110 -0.32300
H 	H 	0.91210 0.21580 0.24250 0.14100
C 	C 	0.87010 0.23200 0.02530 0.37300
C 	C 	0.95730 0.30940 0.80300 -0.72100
H 	H 	0.99920 0.32590 0.84890 0.21700
H 	H 	0.93240 0.35090 0.74680 0.23400
H 	H 	0.95430 0.26720 0.73880 0.23100
C 	C 	0.81090 0.20000 0.02900 -0.75500
H 	H 	0.80900 0.21330 0.11980 0.24000
H 	H 	0.81050 0.14540 0.01910 0.24300
H 	H 	0.77630 0.22130 0.94920 0.24300
Cu	Cu	0.22354 0.69298 0.53457 0.90100
O 	O 	0.28020 0.62900 0.49740 -0.45900
O 	O 	0.32490 0.72590 0.43700 -0.44700
O 	O 	0.28700 0.70950 0.73020 -0.46500
O 	O 	0.33080 0.80680 0.66990 -0.46100
C 	C 	0.32020 0.65650 0.46570 0.41800
C 	C 	0.37100 0.60810 0.46510 -0.27000
C 	C 	0.36280 0.53670 0.40220 0.31300
C 	C 	0.41270 0.49380 0.41350 -0.27400
H 	H 	0.40720 0.44550 0.37090 0.12300
C 	C 	0.47090 0.52230 0.48760 0.10500
C 	C 	0.47910 0.59370 0.55050 -0.18900
H 	H 	0.51840 0.61290 0.60070 0.09000
C 	C 	0.42910 0.63660 0.53920 0.14400
H 	H 	0.43470 0.68490 0.58180 -0.03100
C 	C 	0.29840 0.50530 0.31800 -0.70400
H 	H 	0.26990 0.54690 0.28410 0.23200
H 	H 	0.28740 0.47290 0.38090 0.22300
H 	H 	0.29740 0.47620 0.23550 0.22800
C 	C 	0.32730 0.75790 0.75670 0.46400
C 	C 	0.37860 0.75770 0.90490 -0.37900
C 	C 	0.43500 0.78440 0.92040 0.36400
C 	C 	0.48290 0.78550 0.05620 -0.31500
H 	H 	0.52100 0.80350 0.06660 0.12400
C 	C 	0.47430 0.75980 0.17660 0.14100
C 	C 	0.41790 0.73310 0.16110 -0.32500
H 	H 	0.41210 0.71580 0.24250 0.14100
C 	C 	0.37010 0.73200 0.02530 0.37300
C 	C 	0.45730 0.80940 0.80300 -0.72500
H 	H 	0.49920 0.82590 0.84890 0.21900
H 	H 	0.43240 0.85090 0.74680 0.23500
H 	H 	0.45430 0.76720 0.73880 0.23300
C 	C 	0.31090 0.70000 0.02900 -0.76300
H 	H 	0.30900 0.71330 0.11980 0.24300
H 	H 	0.31050 0.64540 0.01910 0.24500
H 	H 	0.27630 0.72130 0.94920 0.24700
Cu	Cu	0.72354 0.80702 0.03457 0.90100
O 	O 	0.78020 0.87100 0.99740 -0.45800
O 	O 	0.82490 0.77410 0.93700 -0.44700
O 	O 	0.78700 0.79050 0.23020 -0.46600
O 	O 	0.83080 0.69320 0.16990 -0.46100
C 	C 	0.82020 0.84350 0.96570 0.41800
C 	C 	0.87100 0.89190 0.96510 -0.26900
C 	C 	0.86280 0.96330 0.90220 0.31300
C 	C 	0.91270 0.00620 0.91350 -0.27800
H 	H 	0.90720 0.05450 0.87090 0.12400
C 	C 	0.97090 0.97770 0.98760 0.10800
C 	C 	0.97910 0.90630 0.05050 -0.19100
H 	H 	0.01840 0.88710 0.10070 0.09000
C 	C 	0.92910 0.86340 0.03920 0.14400
H 	H 	0.93470 0.81510 0.08180 -0.03100
C 	C 	0.79840 0.99470 0.81800 -0.69700
H 	H 	0.76990 0.95310 0.78410 0.23000
H 	H 	0.78740 0.02710 0.88090 0.22000
H 	H 	0.79740 0.02380 0.73550 0.22500
C 	C 	0.82730 0.74210 0.25670 0.46400
C 	C 	0.87860 0.74230 0.40490 -0.37900
C 	C 	0.93500 0.71560 0.42040 0.36200
C 	C 	0.98290 0.71450 0.55620 -0.31300
H 	H 	0.02100 0.69650 0.56660 0.12400
C 	C 	0.97430 0.74020 0.67660 0.14100
C 	C 	0.91790 0.76690 0.66110 -0.32400
H 	H 	0.91210 0.78420 0.74250 0.14100
C 	C 	0.87010 0.76800 0.52530 0.37300
C 	C 	0.95730 0.69060 0.30300 -0.72300
H 	H 	0.99920 0.67410 0.34890 0.21800
H 	H 	0.93240 0.64910 0.24680 0.23500
H 	H 	0.95430 0.73280 0.23880 0.23200
C 	C 	0.81090 0.80000 0.52900 -0.76000
H 	H 	0.80900 0.78670 0.61980 0.24200
H 	H 	0.81050 0.85460 0.51910 0.24400
H 	H 	0.77630 0.77870 0.44920 0.24500
Cu	Cu	0.22354 0.30702 0.03457 0.90100
O 	O 	0.28020 0.37100 0.99740 -0.45900
O 	O 	0.32490 0.27410 0.93700 -0.44700
O 	O 	0.28700 0.29050 0.23020 -0.46500
O 	O 	0.33080 0.19320 0.16990 -0.46000
C 	C 	0.32020 0.34350 0.96570 0.41900
C 	C 	0.37100 0.39190 0.96510 -0.27000
C 	C 	0.36280 0.46330 0.90220 0.31300
C 	C 	0.41270 0.50620 0.91350 -0.27400
H 	H 	0.40720 0.55450 0.87090 0.12300
C 	C 	0.47090 0.47770 0.98760 0.10500
C 	C 	0.47910 0.40630 0.05050 -0.19000
H 	H 	0.51840 0.38710 0.10070 0.09100
C 	C 	0.42910 0.36340 0.03920 0.14500
H 	H 	0.43470 0.31510 0.08180 -0.03100
C 	C 	0.29840 0.49470 0.81800 -0.70400
H 	H 	0.26990 0.45310 0.78410 0.23200
H 	H 	0.28740 0.52710 0.88090 0.22300
H 	H 	0.29740 0.52380 0.73550 0.22800
C 	C 	0.32730 0.24210 0.25670 0.46400
C 	C 	0.37860 0.24230 0.40490 -0.37900
C 	C 	0.43500 0.21560 0.42040 0.36200
C 	C 	0.48290 0.21450 0.55620 -0.31200
H 	H 	0.52100 0.19650 0.56660 0.12300
C 	C 	0.47430 0.24020 0.67660 0.14000
C 	C 	0.41790 0.26690 0.66110 -0.32300
H 	H 	0.41210 0.28420 0.74250 0.14100
C 	C 	0.37010 0.26800 0.52530 0.37300
C 	C 	0.45730 0.19060 0.30300 -0.72300
H 	H 	0.49920 0.17410 0.34890 0.21800
H 	H 	0.43240 0.14910 0.24680 0.23500
H 	H 	0.45430 0.23280 0.23880 0.23200
C 	C 	0.31090 0.30000 0.52900 -0.75900
H 	H 	0.30900 0.28670 0.61980 0.24100
H 	H 	0.31050 0.35460 0.51910 0.24400
H 	H 	0.27630 0.27870 0.44920 0.24500
Cu	Cu	0.27646 0.80702 0.46543 0.90100
O 	O 	0.21980 0.87100 0.50260 -0.45800
O 	O 	0.17510 0.77410 0.56300 -0.44700
O 	O 	0.21300 0.79050 0.26980 -0.46600
O 	O 	0.16920 0.69320 0.33010 -0.46100
C 	C 	0.17980 0.84350 0.53430 0.41800
C 	C 	0.12900 0.89190 0.53490 -0.26900
C 	C 	0.13720 0.96330 0.59780 0.31200
C 	C 	0.08730 0.00620 0.58650 -0.27400
H 	H 	0.09280 0.05450 0.62910 0.12300
C 	C 	0.02910 0.97770 0.51240 0.10600
C 	C 	0.02090 0.90630 0.44950 -0.18900
H 	H 	0.98160 0.88710 0.39930 0.09000
C 	C 	0.07090 0.86340 0.46080 0.14400
H 	H 	0.06530 0.81510 0.41820 -0.03100
C 	C 	0.20160 0.99470 0.68200 -0.69700
H 	H 	0.23010 0.95310 0.71590 0.23100
H 	H 	0.21260 0.02710 0.61910 0.22100
H 	H 	0.20260 0.02380 0.76450 0.22500
C 	C 	0.17270 0.74210 0.24330 0.46300
C 	C 	0.12140 0.74230 0.09510 -0.37900
C 	C 	0.06500 0.71560 0.07960 0.35900
C 	C 	0.01710 0.71450 0.94380 -0.30900
H 	H 	0.97900 0.69650 0.93340 0.12200
C 	C 	0.02570 0.74020 0.82340 0.13900
C 	C 	0.08210 0.76690 0.83890 -0.32300
H 	H 	0.08790 0.78420 0.75750 0.14100
C 	C 	0.12990 0.76800 0.97470 0.37300
C 	C 	0.04270 0.69060 0.19700 -0.72100
H 	H 	0.00080 0.67410 0.15110 0.21700
H 	H 	0.06760 0.64910 0.25320 0.23400
H 	H 	0.04570 0.73280 0.26120 0.23100
C 	C 	0.18910 0.80000 0.97100 -0.75500
H 	H 	0.19100 0.78670 0.88020 0.24000
H 	H 	0.18950 0.85460 0.98090 0.24300
H 	H 	0.22370 0.77870 0.05080 0.24300
Cu	Cu	0.77646 0.30702 0.46543 0.90100
O 	O 	0.71980 0.37100 0.50260 -0.45900
O 	O 	0.67510 0.27410 0.56300 -0.44700
O 	O 	0.71300 0.29050 0.26980 -0.46500
O 	O 	0.66920 0.19320 0.33010 -0.46100
C 	C 	0.67980 0.34350 0.53430 0.41800
C 	C 	0.62900 0.39190 0.53490 -0.27000
C 	C 	0.63720 0.46330 0.59780 0.31300
C 	C 	0.58730 0.50620 0.58650 -0.27400
H 	H 	0.59280 0.55450 0.62910 0.12300
C 	C 	0.52910 0.47770 0.51240 0.10500
C 	C 	0.52090 0.40630 0.44950 -0.18900
H 	H 	0.48160 0.38710 0.39930 0.09000
C 	C 	0.57090 0.36340 0.46080 0.14400
H 	H 	0.56530 0.31510 0.41820 -0.03100
C 	C 	0.70160 0.49470 0.68200 -0.70400
H 	H 	0.73010 0.45310 0.71590 0.23200
H 	H 	0.71260 0.52710 0.61910 0.22300
H 	H 	0.70260 0.52380 0.76450 0.22800
C 	C 	0.67270 0.24210 0.24330 0.46400
C 	C 	0.62140 0.24230 0.09510 -0.37900
C 	C 	0.56500 0.21560 0.07960 0.36400
C 	C 	0.51710 0.21450 0.94380 -0.31500
H 	H 	0.47900 0.19650 0.93340 0.12400
C 	C 	0.52570 0.24020 0.82340 0.14100
C 	C 	0.58210 0.26690 0.83890 -0.32500
H 	H 	0.58790 0.28420 0.75750 0.14100
C 	C 	0.62990 0.26800 0.97470 0.37300
C 	C 	0.54270 0.19060 0.19700 -0.72500
H 	H 	0.50080 0.17410 0.15110 0.21900
H 	H 	0.56760 0.14910 0.25320 0.23500
H 	H 	0.54570 0.23280 0.26120 0.23300
C 	C 	0.68910 0.30000 0.97100 -0.76300
H 	H 	0.69100 0.28670 0.88020 0.24300
H 	H 	0.68950 0.35460 0.98090 0.24500
H 	H 	0.72370 0.27870 0.05080 0.24700
