data_crystal

_cell_length_a 18.24090
_cell_length_b 10.04820
_cell_length_c 26.89500
_cell_angle_alpha 90.00000
_cell_angle_beta  90.00000
_cell_angle_gamma 90.00000

_symmetry_space_group_name_	'P 1'
_symmetry_space_group_name_H-M	'P 1'

loop_
_symmetry_equiv_pos_as_xyz
  x,y,z

loop_
_atom_site_label
_atom_site_type_symbol
_atom_site_fract_x
_atom_site_fract_y
_atom_site_fract_z
_atom_site_charge
H 	H 	0.08060 0.32950 0.61230 0.00900
H 	H 	0.14500 0.40520 0.68080 0.10600
H 	H 	0.23630 0.04510 0.69750 0.11300
H 	H 	0.74070 0.41290 0.47090 0.20700
H 	H 	0.79680 0.64960 0.52910 0.09300
C 	C 	0.12230 0.14360 0.61212 -0.16900
C 	C 	0.11300 0.27200 0.62896 0.11000
C 	C 	0.15080 0.31670 0.67000 -0.20400
C 	C 	0.19630 0.23370 0.69510 0.17900
C 	C 	0.20550 0.10300 0.67970 -0.20000
C 	C 	0.16910 0.05900 0.63807 0.11800
C 	C 	0.07920 0.09300 0.56837 0.37500
N 	N 	0.23220 0.29040 0.73778 -0.10300
O 	O 	0.03045 0.16860 0.55178 -0.40600
O 	O 	0.90523 0.02060 0.55242 -0.40500
H 	H 	0.58060 0.82950 0.11230 0.00900
H 	H 	0.64500 0.90520 0.18080 0.10700
H 	H 	0.73630 0.54510 0.19750 0.11400
H 	H 	0.24070 0.91290 0.97090 0.25000
H 	H 	0.29680 0.14960 0.02910 0.10300
C 	C 	0.62230 0.64360 0.11212 -0.16900
C 	C 	0.61300 0.77200 0.12896 0.11000
C 	C 	0.65080 0.81670 0.17000 -0.20300
C 	C 	0.69630 0.73370 0.19510 0.18000
C 	C 	0.70550 0.60300 0.17970 -0.19900
C 	C 	0.66910 0.55900 0.13807 0.11800
C 	C 	0.57920 0.59300 0.06837 0.37500
N 	N 	0.73220 0.79040 0.23778 -0.10200
O 	O 	0.53045 0.66860 0.05178 -0.40800
O 	O 	0.40523 0.52060 0.05242 -0.40700
H 	H 	0.91940 0.67050 0.61230 0.01000
H 	H 	0.85500 0.59480 0.68080 0.10700
H 	H 	0.76370 0.95490 0.69750 0.11400
H 	H 	0.25930 0.58710 0.47090 0.20800
H 	H 	0.20320 0.35040 0.52910 0.09400
C 	C 	0.87770 0.85640 0.61212 -0.16800
C 	C 	0.88700 0.72800 0.62896 0.11100
C 	C 	0.84920 0.68330 0.67000 -0.20300
C 	C 	0.80370 0.76630 0.69510 0.18000
C 	C 	0.79450 0.89700 0.67970 -0.19900
C 	C 	0.83090 0.94100 0.63807 0.11900
C 	C 	0.92080 0.90700 0.56837 0.37600
N 	N 	0.76780 0.70960 0.73778 -0.10200
O 	O 	0.96955 0.83140 0.55178 -0.40500
O 	O 	0.09477 0.97940 0.55242 -0.40400
H 	H 	0.41940 0.17050 0.11230 0.01000
H 	H 	0.35500 0.09480 0.18080 0.10700
H 	H 	0.26370 0.45490 0.19750 0.11400
H 	H 	0.75930 0.08710 0.97090 0.25000
H 	H 	0.70320 0.85040 0.02910 0.10300
C 	C 	0.37770 0.35640 0.11212 -0.16900
C 	C 	0.38700 0.22800 0.12896 0.11000
C 	C 	0.34920 0.18330 0.17000 -0.20300
C 	C 	0.30370 0.26630 0.19510 0.18000
C 	C 	0.29450 0.39700 0.17970 -0.19900
C 	C 	0.33090 0.44100 0.13807 0.11800
C 	C 	0.42080 0.40700 0.06837 0.37500
N 	N 	0.26780 0.20960 0.23778 -0.10200
O 	O 	0.46955 0.33140 0.05178 -0.40800
O 	O 	0.59477 0.47940 0.05242 -0.40700
H 	H 	0.41940 0.82950 0.38770 0.01000
H 	H 	0.35500 0.90520 0.31920 0.10700
H 	H 	0.26370 0.54510 0.30250 0.11400
H 	H 	0.75930 0.91290 0.52910 0.20800
H 	H 	0.70320 0.14960 0.47090 0.09400
C 	C 	0.37770 0.64360 0.38788 -0.16800
C 	C 	0.38700 0.77200 0.37104 0.11100
C 	C 	0.34920 0.81670 0.33000 -0.20300
C 	C 	0.30370 0.73370 0.30490 0.18000
C 	C 	0.29450 0.60300 0.32030 -0.19900
C 	C 	0.33090 0.55900 0.36193 0.11900
C 	C 	0.42080 0.59300 0.43163 0.37600
N 	N 	0.26780 0.79040 0.26222 -0.10200
O 	O 	0.46955 0.66860 0.44822 -0.40500
O 	O 	0.59477 0.52060 0.44758 -0.40400
H 	H 	0.91940 0.32950 0.88770 0.01300
H 	H 	0.85500 0.40520 0.81920 0.10700
H 	H 	0.76370 0.04510 0.80250 0.11400
H 	H 	0.25930 0.41290 0.02910 0.23800
H 	H 	0.20320 0.64960 0.97090 0.11600
C 	C 	0.87770 0.14360 0.88788 -0.16600
C 	C 	0.88700 0.27200 0.87104 0.10900
C 	C 	0.84920 0.31670 0.83000 -0.20100
C 	C 	0.80370 0.23370 0.80490 0.17900
C 	C 	0.79450 0.10300 0.82030 -0.19800
C 	C 	0.83090 0.05900 0.86193 0.11800
C 	C 	0.92080 0.09300 0.93163 0.37300
N 	N 	0.76780 0.29040 0.76222 -0.10200
O 	O 	0.96955 0.16860 0.94822 -0.39700
O 	O 	0.09477 0.02060 0.94758 -0.39700
H 	H 	0.58060 0.17050 0.38770 0.01000
H 	H 	0.64500 0.09480 0.31920 0.10700
H 	H 	0.73630 0.45490 0.30250 0.11400
H 	H 	0.24070 0.08710 0.52910 0.20800
H 	H 	0.29680 0.85040 0.47090 0.09400
C 	C 	0.62230 0.35640 0.38788 -0.16800
C 	C 	0.61300 0.22800 0.37104 0.11100
C 	C 	0.65080 0.18330 0.33000 -0.20300
C 	C 	0.69630 0.26630 0.30490 0.18000
C 	C 	0.70550 0.39700 0.32030 -0.19900
C 	C 	0.66910 0.44100 0.36193 0.11900
C 	C 	0.57920 0.40700 0.43163 0.37600
N 	N 	0.73220 0.20960 0.26222 -0.10200
O 	O 	0.53045 0.33140 0.44822 -0.40500
O 	O 	0.40523 0.47940 0.44758 -0.40400
H 	H 	0.08060 0.67050 0.88770 0.01300
H 	H 	0.14500 0.59480 0.81920 0.10700
H 	H 	0.23630 0.95490 0.80250 0.11400
H 	H 	0.74070 0.58710 0.02910 0.23800
H 	H 	0.79680 0.35040 0.97090 0.11600
C 	C 	0.12230 0.85640 0.88788 -0.16600
C 	C 	0.11300 0.72800 0.87104 0.10900
C 	C 	0.15080 0.68330 0.83000 -0.20100
C 	C 	0.19630 0.76630 0.80490 0.17900
C 	C 	0.20550 0.89700 0.82030 -0.19800
C 	C 	0.16910 0.94100 0.86193 0.11800
C 	C 	0.07920 0.90700 0.93163 0.37300
N 	N 	0.23220 0.70960 0.76222 -0.10200
O 	O 	0.03045 0.83140 0.94822 -0.39700
O 	O 	0.90523 0.97940 0.94758 -0.39700
H 	H 	0.91940 0.67050 0.38770 0.01000
H 	H 	0.85500 0.59480 0.31920 0.10700
H 	H 	0.76370 0.95490 0.30250 0.11400
H 	H 	0.25930 0.58710 0.52910 0.20800
H 	H 	0.20320 0.35040 0.47090 0.09400
C 	C 	0.87770 0.85640 0.38788 -0.16800
C 	C 	0.88700 0.72800 0.37104 0.11100
C 	C 	0.84920 0.68330 0.33000 -0.20300
C 	C 	0.80370 0.76630 0.30490 0.18000
C 	C 	0.79450 0.89700 0.32030 -0.19900
C 	C 	0.83090 0.94100 0.36193 0.11900
C 	C 	0.92080 0.90700 0.43163 0.37600
N 	N 	0.76780 0.70960 0.26222 -0.10200
O 	O 	0.96955 0.83140 0.44822 -0.40500
O 	O 	0.09477 0.97940 0.44758 -0.40400
H 	H 	0.41940 0.17050 0.88770 0.01300
H 	H 	0.35500 0.09480 0.81920 0.10700
H 	H 	0.26370 0.45490 0.80250 0.11400
H 	H 	0.75930 0.08710 0.02910 0.23700
H 	H 	0.70320 0.85040 0.97090 0.11600
C 	C 	0.37770 0.35640 0.88788 -0.16600
C 	C 	0.38700 0.22800 0.87104 0.10900
C 	C 	0.34920 0.18330 0.83000 -0.20100
C 	C 	0.30370 0.26630 0.80490 0.17900
C 	C 	0.29450 0.39700 0.82030 -0.19800
C 	C 	0.33090 0.44100 0.86193 0.11800
C 	C 	0.42080 0.40700 0.93163 0.37300
N 	N 	0.26780 0.20960 0.76222 -0.10200
O 	O 	0.46955 0.33140 0.94822 -0.39700
O 	O 	0.59477 0.47940 0.94758 -0.39700
H 	H 	0.08060 0.32950 0.38770 0.01000
H 	H 	0.14500 0.40520 0.31920 0.10700
H 	H 	0.23630 0.04510 0.30250 0.11400
H 	H 	0.74070 0.41290 0.52910 0.20800
H 	H 	0.79680 0.64960 0.47090 0.09400
C 	C 	0.12230 0.14360 0.38788 -0.16800
C 	C 	0.11300 0.27200 0.37104 0.11100
C 	C 	0.15080 0.31670 0.33000 -0.20300
C 	C 	0.19630 0.23370 0.30490 0.18000
C 	C 	0.20550 0.10300 0.32030 -0.19900
C 	C 	0.16910 0.05900 0.36193 0.11900
C 	C 	0.07920 0.09300 0.43163 0.37600
N 	N 	0.23220 0.29040 0.26222 -0.10200
O 	O 	0.03045 0.16860 0.44822 -0.40500
O 	O 	0.90523 0.02060 0.44758 -0.40400
H 	H 	0.58060 0.82950 0.88770 0.01300
H 	H 	0.64500 0.90520 0.81920 0.10700
H 	H 	0.73630 0.54510 0.80250 0.11400
H 	H 	0.24070 0.91290 0.02910 0.23700
H 	H 	0.29680 0.14960 0.97090 0.11600
C 	C 	0.62230 0.64360 0.88788 -0.16600
C 	C 	0.61300 0.77200 0.87104 0.10900
C 	C 	0.65080 0.81670 0.83000 -0.20100
C 	C 	0.69630 0.73370 0.80490 0.17900
C 	C 	0.70550 0.60300 0.82030 -0.19800
C 	C 	0.66910 0.55900 0.86193 0.11800
C 	C 	0.57920 0.59300 0.93163 0.37300
N 	N 	0.73220 0.79040 0.76222 -0.10200
O 	O 	0.53045 0.66860 0.94822 -0.39700
O 	O 	0.40523 0.52060 0.94758 -0.39700
H 	H 	0.58060 0.17050 0.61230 0.01000
H 	H 	0.64500 0.09480 0.68080 0.10700
H 	H 	0.73630 0.45490 0.69750 0.11400
H 	H 	0.24070 0.08710 0.47090 0.20800
H 	H 	0.29680 0.85040 0.52910 0.09400
C 	C 	0.62230 0.35640 0.61212 -0.16800
C 	C 	0.61300 0.22800 0.62896 0.11100
C 	C 	0.65080 0.18330 0.67000 -0.20300
C 	C 	0.69630 0.26630 0.69510 0.18000
C 	C 	0.70550 0.39700 0.67970 -0.19900
C 	C 	0.66910 0.44100 0.63807 0.11900
C 	C 	0.57920 0.40700 0.56837 0.37600
N 	N 	0.73220 0.20960 0.73778 -0.10200
O 	O 	0.53045 0.33140 0.55178 -0.40500
O 	O 	0.40523 0.47940 0.55242 -0.40400
H 	H 	0.08060 0.67050 0.11230 0.01000
H 	H 	0.14500 0.59480 0.18080 0.10700
H 	H 	0.23630 0.95490 0.19750 0.11400
H 	H 	0.74070 0.58710 0.97090 0.25000
H 	H 	0.79680 0.35040 0.02910 0.10300
C 	C 	0.12230 0.85640 0.11212 -0.16900
C 	C 	0.11300 0.72800 0.12896 0.11000
C 	C 	0.15080 0.68330 0.17000 -0.20300
C 	C 	0.19630 0.76630 0.19510 0.18000
C 	C 	0.20550 0.89700 0.17970 -0.19900
C 	C 	0.16910 0.94100 0.13807 0.11800
C 	C 	0.07920 0.90700 0.06837 0.37500
N 	N 	0.23220 0.70960 0.23778 -0.10200
O 	O 	0.03045 0.83140 0.05178 -0.40700
O 	O 	0.90523 0.97940 0.05242 -0.40700
H 	H 	0.41940 0.82950 0.61230 0.01000
H 	H 	0.35500 0.90520 0.68080 0.10700
H 	H 	0.26370 0.54510 0.69750 0.11400
H 	H 	0.75930 0.91290 0.47090 0.20800
H 	H 	0.70320 0.14960 0.52910 0.09400
C 	C 	0.37770 0.64360 0.61212 -0.16800
C 	C 	0.38700 0.77200 0.62896 0.11100
C 	C 	0.34920 0.81670 0.67000 -0.20300
C 	C 	0.30370 0.73370 0.69510 0.18000
C 	C 	0.29450 0.60300 0.67970 -0.19900
C 	C 	0.33090 0.55900 0.63807 0.11900
C 	C 	0.42080 0.59300 0.56837 0.37600
N 	N 	0.26780 0.79040 0.73778 -0.10200
O 	O 	0.46955 0.66860 0.55178 -0.40500
O 	O 	0.59477 0.52060 0.55242 -0.40400
H 	H 	0.91940 0.32950 0.11230 0.01000
H 	H 	0.85500 0.40520 0.18080 0.10700
H 	H 	0.76370 0.04510 0.19750 0.11400
H 	H 	0.25930 0.41290 0.97090 0.25000
H 	H 	0.20320 0.64960 0.02910 0.10300
C 	C 	0.87770 0.14360 0.11212 -0.16900
C 	C 	0.88700 0.27200 0.12896 0.11000
C 	C 	0.84920 0.31670 0.17000 -0.20300
C 	C 	0.80370 0.23370 0.19510 0.18000
C 	C 	0.79450 0.10300 0.17970 -0.19900
C 	C 	0.83090 0.05900 0.13807 0.11800
C 	C 	0.92080 0.09300 0.06837 0.37500
N 	N 	0.76780 0.29040 0.23778 -0.10200
O 	O 	0.96955 0.16860 0.05178 -0.40700
O 	O 	0.09477 0.02060 0.05242 -0.40700
Cu	Cu	0.96110 0.11240 0.50000 0.92800
H 	H 	0.78170 0.30020 0.50000 0.17400
H 	H 	0.87080 0.66370 0.50000 0.10600
C 	C 	0.89270 0.39810 0.50000 0.20700
H 	H 	0.96510 0.46200 0.50000 0.00900
C 	C 	0.76570 0.39900 0.50000 -0.48800
C 	C 	0.82520 0.61300 0.50000 -0.23500
N 	N 	0.83240 0.46700 0.50000 -0.04900
O 	O 	0.89060 0.28250 0.50000 -0.32600
Cu	Cu	0.46110 0.61240 -0.00000 0.92300
H 	H 	0.28170 0.80020 -0.00000 0.19200
H 	H 	0.37080 0.16370 -0.00000 0.11500
C 	C 	0.39270 0.89810 -0.00000 0.20000
H 	H 	0.46510 0.96200 -0.00000 0.00800
C 	C 	0.26570 0.89900 -0.00000 -0.58100
C 	C 	0.32520 0.11300 -0.00000 -0.27900
N 	N 	0.33240 0.96700 -0.00000 -0.03200
O 	O 	0.39060 0.78250 -0.00000 -0.32900
Cu	Cu	0.03890 0.88760 0.50000 0.92800
H 	H 	0.21830 0.69980 0.50000 0.17400
H 	H 	0.12920 0.33630 0.50000 0.10600
C 	C 	0.10730 0.60190 0.50000 0.20700
H 	H 	0.03490 0.53800 0.50000 0.00900
C 	C 	0.23430 0.60100 0.50000 -0.48800
C 	C 	0.17480 0.38700 0.50000 -0.23500
N 	N 	0.16760 0.53300 0.50000 -0.04900
O 	O 	0.10940 0.71750 0.50000 -0.32600
Cu	Cu	0.53890 0.38760 -0.00000 0.92300
H 	H 	0.71830 0.19980 -0.00000 0.19200
H 	H 	0.62920 0.83630 -0.00000 0.11500
C 	C 	0.60730 0.10190 -0.00000 0.20000
H 	H 	0.53490 0.03800 -0.00000 0.00800
C 	C 	0.73430 0.10100 -0.00000 -0.58100
C 	C 	0.67480 0.88700 -0.00000 -0.27900
N 	N 	0.66760 0.03300 -0.00000 -0.03200
O 	O 	0.60940 0.21750 -0.00000 -0.32900
Cu	Cu	0.53890 0.61240 0.50000 0.92800
H 	H 	0.71830 0.80020 0.50000 0.17400
H 	H 	0.62920 0.16370 0.50000 0.10600
C 	C 	0.60730 0.89810 0.50000 0.20700
H 	H 	0.53490 0.96200 0.50000 0.00900
C 	C 	0.73430 0.89900 0.50000 -0.48800
C 	C 	0.67480 0.11300 0.50000 -0.23500
N 	N 	0.66760 0.96700 0.50000 -0.04900
O 	O 	0.60940 0.78250 0.50000 -0.32600
Cu	Cu	0.03890 0.11240 -0.00000 0.92300
H 	H 	0.21830 0.30020 -0.00000 0.19200
H 	H 	0.12920 0.66370 -0.00000 0.11500
C 	C 	0.10730 0.39810 -0.00000 0.20000
H 	H 	0.03490 0.46200 -0.00000 0.00800
C 	C 	0.23430 0.39900 -0.00000 -0.58200
C 	C 	0.17480 0.61300 -0.00000 -0.27900
N 	N 	0.16760 0.46700 -0.00000 -0.03100
O 	O 	0.10940 0.28250 -0.00000 -0.32900
Cu	Cu	0.46110 0.38760 0.50000 0.92800
H 	H 	0.28170 0.19980 0.50000 0.17400
H 	H 	0.37080 0.83630 0.50000 0.10600
C 	C 	0.39270 0.10190 0.50000 0.20700
H 	H 	0.46510 0.03800 0.50000 0.00900
C 	C 	0.26570 0.10100 0.50000 -0.48800
C 	C 	0.32520 0.88700 0.50000 -0.23500
N 	N 	0.33240 0.03300 0.50000 -0.04900
O 	O 	0.39060 0.21750 0.50000 -0.32600
Cu	Cu	0.96110 0.88760 -0.00000 0.92300
H 	H 	0.78170 0.69980 -0.00000 0.19200
H 	H 	0.87080 0.33630 -0.00000 0.11500
C 	C 	0.89270 0.60190 -0.00000 0.20000
H 	H 	0.96510 0.53800 -0.00000 0.00800
C 	C 	0.76570 0.60100 -0.00000 -0.58200
C 	C 	0.82520 0.38700 -0.00000 -0.27900
N 	N 	0.83240 0.53300 -0.00000 -0.03100
O 	O 	0.89060 0.71750 -0.00000 -0.32900
