data_crystal

_cell_length_a 7.82560
_cell_length_b 22.33100
_cell_length_c 8.99760
_cell_angle_alpha 90.00000
_cell_angle_beta  110.04000
_cell_angle_gamma 90.00000

_symmetry_space_group_name_	'P 1'
_symmetry_space_group_name_H-M	'P 1'

loop_
_symmetry_equiv_pos_as_xyz
  x,y,z

loop_
_atom_site_label
_atom_site_type_symbol
_atom_site_fract_x
_atom_site_fract_y
_atom_site_fract_z
_atom_site_charge
Cu	Cu	0.44720 0.13211 0.83884 0.83800
O 	O 	0.30720 0.19950 0.20040 -0.21900
N 	N 	0.59580 0.19880 0.96950 -0.21400
N 	N 	0.76580 0.29330 0.16460 -0.18000
N 	N 	0.31090 0.14210 0.98440 -0.21900
N 	N 	0.32550 0.94300 0.23610 -0.25800
C 	C 	0.73780 0.22550 0.95100 0.02600
H 	H 	0.78390 0.21200 0.87200 -0.00700
C 	C 	0.82060 0.27420 0.04830 -0.01700
H 	H 	0.91910 0.29400 0.03040 0.00300
C 	C 	0.62080 0.26470 0.18310 0.01200
H 	H 	0.57710 0.27740 0.26440 0.02500
C 	C 	0.53510 0.21740 0.08520 -0.02600
C 	C 	0.37070 0.18480 0.09320 0.14500
C 	C 	0.15120 0.10780 0.98010 -0.10800
H 	H 	0.07740 0.09870 0.86890 0.05300
H 	H 	0.07570 0.13200 0.02620 0.07200
C 	C 	0.20580 0.04970 0.07210 0.11300
C 	C 	0.13600 0.99550 0.00590 -0.19300
H 	H 	0.04250 0.99390 0.90530 0.10200
C 	C 	0.20440 0.94290 0.08840 0.08500
H 	H 	0.16380 0.90560 0.03810 -0.01600
C 	C 	0.38720 0.99640 0.30010 0.08400
H 	H 	0.47470 0.99720 0.40390 -0.04400
C 	C 	0.33100 0.05030 0.22390 -0.18300
H 	H 	0.37750 0.08710 0.27480 0.08900
Cu	Cu	0.44720 0.86789 0.33884 0.83600
O 	O 	0.30720 0.80050 0.70040 -0.21700
N 	N 	0.59580 0.80120 0.46950 -0.21800
N 	N 	0.76580 0.70670 0.66460 -0.18200
N 	N 	0.31090 0.85790 0.48440 -0.22200
N 	N 	0.32550 0.05700 0.73610 -0.25700
C 	C 	0.73780 0.77450 0.45100 0.00700
H 	H 	0.78390 0.78800 0.37200 -0.00400
C 	C 	0.82060 0.72580 0.54830 0.00000
H 	H 	0.91910 0.70600 0.53040 0.00100
C 	C 	0.62080 0.73530 0.68310 0.01300
H 	H 	0.57710 0.72260 0.76440 0.02700
C 	C 	0.53510 0.78260 0.58520 -0.01800
C 	C 	0.37070 0.81520 0.59320 0.15300
C 	C 	0.15120 0.89220 0.48010 -0.14300
H 	H 	0.07740 0.90130 0.36890 0.06000
H 	H 	0.07570 0.86800 0.52620 0.09000
C 	C 	0.20580 0.95030 0.57210 0.12700
C 	C 	0.13600 0.00450 0.50590 -0.17700
H 	H 	0.04250 0.00610 0.40530 0.08900
C 	C 	0.20440 0.05710 0.58840 0.08000
H 	H 	0.16380 0.09440 0.53810 -0.01100
C 	C 	0.38720 0.00360 0.80010 0.08700
H 	H 	0.47470 0.00280 0.90390 -0.04100
C 	C 	0.33100 0.94970 0.72390 -0.18700
H 	H 	0.37750 0.91290 0.77480 0.09400
Cu	Cu	0.94720 0.63211 0.83884 0.82400
O 	O 	0.80720 0.69950 0.20040 -0.22500
N 	N 	0.09580 0.69880 0.96950 -0.20100
N 	N 	0.26580 0.79330 0.16460 -0.16800
N 	N 	0.81090 0.64210 0.98440 -0.21700
N 	N 	0.82550 0.44300 0.23610 -0.25900
C 	C 	0.23780 0.72550 0.95100 0.03900
H 	H 	0.28390 0.71200 0.87200 0.01500
C 	C 	0.32060 0.77420 0.04830 -0.01000
H 	H 	0.41910 0.79400 0.03040 0.01400
C 	C 	0.12080 0.76470 0.18310 -0.00700
H 	H 	0.07710 0.77740 0.26440 0.05100
C 	C 	0.03510 0.71740 0.08520 0.05300
C 	C 	0.87070 0.68480 0.09320 0.08100
C 	C 	0.65120 0.60780 0.98010 -0.10400
H 	H 	0.57740 0.59870 0.86890 0.04700
H 	H 	0.57570 0.63200 0.02620 0.06200
C 	C 	0.70580 0.54970 0.07210 0.10900
C 	C 	0.63600 0.49550 0.00590 -0.19200
H 	H 	0.54250 0.49390 0.90530 0.09800
C 	C 	0.70440 0.44290 0.08840 0.08300
H 	H 	0.66380 0.40560 0.03810 -0.01900
C 	C 	0.88720 0.49640 0.30010 0.08100
H 	H 	0.97470 0.49720 0.40390 -0.04700
C 	C 	0.83100 0.55030 0.22390 -0.18200
H 	H 	0.87750 0.58710 0.27480 0.08500
Cu	Cu	0.94720 0.36789 0.33884 0.82300
O 	O 	0.80720 0.30050 0.70040 -0.22200
N 	N 	0.09580 0.30120 0.46950 -0.20500
N 	N 	0.26580 0.20670 0.66460 -0.17000
N 	N 	0.81090 0.35790 0.48440 -0.21900
N 	N 	0.82550 0.55700 0.73610 -0.25800
C 	C 	0.23780 0.27450 0.45100 0.02100
H 	H 	0.28390 0.28800 0.37200 0.01900
C 	C 	0.32060 0.22580 0.54830 0.00800
H 	H 	0.41910 0.20600 0.53040 0.01200
C 	C 	0.12080 0.23530 0.68310 -0.00700
H 	H 	0.07710 0.22260 0.76440 0.05300
C 	C 	0.03510 0.28260 0.58520 0.06300
C 	C 	0.87070 0.31520 0.59320 0.08600
C 	C 	0.65120 0.39220 0.48010 -0.13700
H 	H 	0.57740 0.40130 0.36890 0.05300
H 	H 	0.57570 0.36800 0.52620 0.07900
C 	C 	0.70580 0.45030 0.57210 0.12200
C 	C 	0.63600 0.50450 0.50590 -0.17500
H 	H 	0.54250 0.50610 0.40530 0.08500
C 	C 	0.70440 0.55710 0.58840 0.07700
H 	H 	0.66380 0.59440 0.53810 -0.01400
C 	C 	0.88720 0.50360 0.80010 0.08500
H 	H 	0.97470 0.50280 0.90390 -0.04400
C 	C 	0.83100 0.44970 0.72390 -0.18600
H 	H 	0.87750 0.41290 0.77480 0.09000
