data_crystal

_cell_length_a 11.80100
_cell_length_b 12.97300
_cell_length_c 15.85600
_cell_angle_alpha 98.15000
_cell_angle_beta  108.39000
_cell_angle_gamma 100.91000

_symmetry_space_group_name_	'P 1'
_symmetry_space_group_name_H-M	'P 1'

loop_
_symmetry_equiv_pos_as_xyz
  x,y,z

loop_
_atom_site_label
_atom_site_type_symbol
_atom_site_fract_x
_atom_site_fract_y
_atom_site_fract_z
_atom_site_charge
Bi	Bi	0.36085 0.45993 0.30491 1.89000
Bi	Bi	0.94316 0.68732 0.93084 1.89100
K 	K 	0.72640 0.35570 0.91600 0.65100
K 	K 	0.05860 0.85110 0.18520 0.64100
K 	K 	0.81040 0.83720 0.67100 0.64400
K 	K 	0.42260 0.70080 0.54980 0.64200
K 	K 	0.43340 0.37310 0.03570 0.65000
C 	C 	0.28950 0.43630 0.46330 0.50800
C 	C 	0.25670 0.40400 0.54170 -0.64200
C 	C 	0.37290 0.41780 0.62430 0.35000
C 	C 	0.33660 0.40010 0.70680 -0.67000
C 	C 	0.44160 0.41610 0.79630 0.53400
C 	C 	0.43870 0.33150 0.60380 0.17700
O 	O 	0.35220 0.38630 0.43140 -0.56900
O 	O 	0.25190 0.51120 0.43130 -0.47600
O 	O 	0.44580 0.52360 0.64090 -0.52700
O 	O 	0.55020 0.44530 0.79910 -0.54600
O 	O 	0.41550 0.39950 0.86310 -0.44300
O 	O 	0.38360 0.23630 0.58430 -0.26300
O 	O 	0.55250 0.36220 0.61360 -0.45500
C 	C 	0.87580 0.58690 0.07190 0.47200
C 	C 	0.88160 0.54590 0.15880 -0.58900
C 	C 	0.96420 0.46620 0.17510 0.35700
C 	C 	0.95740 0.41990 0.25580 -0.68300
C 	C 	0.03010 0.33690 0.27930 0.51900
C 	C 	0.09890 0.52860 0.19550 0.16300
O 	O 	0.97960 0.63290 0.06770 -0.53700
O 	O 	0.77650 0.57280 0.01040 -0.49500
O 	O 	0.92070 0.38390 0.09580 -0.49400
O 	O 	0.10440 0.32020 0.23930 -0.59900
O 	O 	0.02140 0.29200 0.34250 -0.37900
O 	O 	0.14730 0.60790 0.25750 -0.30600
O 	O 	0.15450 0.49090 0.14560 -0.53500
C 	C 	0.35790 0.24640 0.20110 0.48400
C 	C 	0.37240 0.13850 0.16250 -0.63000
C 	C 	0.25240 0.06640 0.08960 0.32300
C 	C 	0.27870 0.95710 0.05890 -0.59700
C 	C 	0.16280 0.87240 0.00290 0.48400
C 	C 	0.21130 0.11950 0.00440 0.19300
O 	O 	0.38820 0.27470 0.28570 -0.57000
O 	O 	0.31740 0.30620 0.14760 -0.56900
O 	O 	0.15960 0.05400 0.12760 -0.29700
O 	O 	0.10040 0.87620 0.92520 -0.36900
O 	O 	0.13150 0.79590 0.03960 -0.56200
O 	O 	0.28900 0.14290 0.96790 -0.25800
O 	O 	0.10440 0.13040 0.98060 -0.34600
O 	O 	0.04050 0.97140 0.77480 -0.22400
O 	O 	0.41300 0.75700 0.99300 -0.18800
O 	O 	0.27900 0.96900 0.34100 -0.28500
O 	O 	0.33000 0.71200 0.92900 -0.15100
H 	H 	0.20680 0.44740 0.55730 0.22800
H 	H 	0.21230 0.33060 0.52400 0.22400
H 	H 	0.28720 0.44780 0.71510 0.22200
H 	H 	0.28790 0.32850 0.69320 0.23400
H 	H 	0.80070 0.50920 0.15260 0.21200
H 	H 	0.91170 0.60540 0.20920 0.19500
H 	H 	0.87330 0.38710 0.24410 0.24700
H 	H 	0.98540 0.47760 0.30750 0.24100
H 	H 	0.43360 0.15050 0.13540 0.22000
H 	H 	0.39900 0.10230 0.21040 0.21500
H 	H 	0.32990 0.96660 0.02340 0.23300
H 	H 	0.32020 0.93330 0.11140 0.20900
Bi	Bi	0.63915 0.54007 0.69509 1.89100
Bi	Bi	0.05684 0.31268 0.06916 1.89200
K 	K 	0.27360 0.64430 0.08400 0.65100
K 	K 	0.94140 0.14890 0.81480 0.64100
K 	K 	0.18960 0.16280 0.32900 0.64400
K 	K 	0.57740 0.29920 0.45020 0.64200
K 	K 	0.56660 0.62690 0.96430 0.65000
C 	C 	0.71050 0.56370 0.53670 0.50800
C 	C 	0.74330 0.59600 0.45830 -0.64200
C 	C 	0.62710 0.58220 0.37570 0.35000
C 	C 	0.66340 0.59990 0.29320 -0.67000
C 	C 	0.55840 0.58390 0.20370 0.53400
C 	C 	0.56130 0.66850 0.39620 0.17700
O 	O 	0.64780 0.61370 0.56860 -0.56900
O 	O 	0.74810 0.48880 0.56870 -0.47600
O 	O 	0.55420 0.47640 0.35910 -0.52700
O 	O 	0.44980 0.55470 0.20090 -0.54600
O 	O 	0.58450 0.60050 0.13690 -0.44300
O 	O 	0.61640 0.76370 0.41570 -0.26300
O 	O 	0.44750 0.63780 0.38640 -0.45500
C 	C 	0.12420 0.41310 0.92810 0.47200
C 	C 	0.11840 0.45410 0.84120 -0.58900
C 	C 	0.03580 0.53380 0.82490 0.35700
C 	C 	0.04260 0.58010 0.74420 -0.68300
C 	C 	0.96990 0.66310 0.72070 0.51900
C 	C 	0.90110 0.47140 0.80450 0.16300
O 	O 	0.02040 0.36710 0.93230 -0.53700
O 	O 	0.22350 0.42720 0.98960 -0.49500
O 	O 	0.07930 0.61610 0.90420 -0.49400
O 	O 	0.89560 0.67980 0.76070 -0.59900
O 	O 	0.97860 0.70800 0.65750 -0.37900
O 	O 	0.85270 0.39210 0.74250 -0.30600
O 	O 	0.84550 0.50910 0.85440 -0.53500
C 	C 	0.64210 0.75360 0.79890 0.48400
C 	C 	0.62760 0.86150 0.83750 -0.63000
C 	C 	0.74760 0.93360 0.91040 0.32300
C 	C 	0.72130 0.04290 0.94110 -0.59700
C 	C 	0.83720 0.12760 0.99710 0.48400
C 	C 	0.78870 0.88050 0.99560 0.19300
O 	O 	0.61180 0.72530 0.71430 -0.57000
O 	O 	0.68260 0.69380 0.85240 -0.56900
O 	O 	0.84040 0.94600 0.87240 -0.29700
O 	O 	0.89960 0.12380 0.07480 -0.36900
O 	O 	0.86850 0.20410 0.96040 -0.56200
O 	O 	0.71100 0.85710 0.03210 -0.25800
O 	O 	0.89560 0.86960 0.01940 -0.34600
O 	O 	0.95950 0.02860 0.22520 -0.22400
O 	O 	0.58700 0.24300 0.00700 -0.18800
O 	O 	0.72100 0.03100 0.65900 -0.28500
O 	O 	0.67000 0.28800 0.07100 -0.15100
H 	H 	0.79320 0.55260 0.44270 0.22800
H 	H 	0.78770 0.66940 0.47600 0.22400
H 	H 	0.71280 0.55220 0.28490 0.22200
H 	H 	0.71210 0.67150 0.30680 0.23400
H 	H 	0.19930 0.49080 0.84740 0.21200
H 	H 	0.08830 0.39460 0.79080 0.19500
H 	H 	0.12670 0.61290 0.75590 0.24700
H 	H 	0.01460 0.52240 0.69250 0.24100
H 	H 	0.56640 0.84950 0.86460 0.22000
H 	H 	0.60100 0.89770 0.78960 0.21500
H 	H 	0.67010 0.03340 0.97660 0.23300
H 	H 	0.67980 0.06670 0.88860 0.20900
