data_crystal

_cell_length_a 16.90250
_cell_length_b 18.79290
_cell_length_c 18.79290
_cell_angle_alpha 68.58150
_cell_angle_beta  72.55420
_cell_angle_gamma 107.44600

_symmetry_space_group_name_	'P 1'
_symmetry_space_group_name_H-M	'P 1'

loop_
_symmetry_equiv_pos_as_xyz
  x,y,z

loop_
_atom_site_label
_atom_site_type_symbol
_atom_site_fract_x
_atom_site_fract_y
_atom_site_fract_z
_atom_site_charge
Ni	Ni	0.86893 0.61893 0.76214 1.11700
Ni	Ni	0.63107 0.76214 0.61893 1.11700
Ni	Ni	0.25000 0.61893 0.61893 1.11600
Ni	Ni	0.13107 0.38107 0.23786 1.11600
Ni	Ni	0.36893 0.23786 0.38107 1.11600
Ni	Ni	0.75000 0.38107 0.38107 1.11600
H 	H 	0.96550 0.08890 0.85070 0.06700
H 	H 	0.77210 0.82750 0.95440 0.06600
H 	H 	0.06870 0.93700 0.73240 0.02800
H 	H 	0.04280 0.00860 0.80760 0.07200
H 	H 	0.79730 0.75780 0.87600 0.03400
H 	H 	0.91100 0.72770 0.53390 0.04400
H 	H 	0.92050 0.64090 0.56860 0.03400
H 	H 	0.89970 0.55160 0.03610 0.08600
H 	H 	0.85110 0.60630 0.93540 -0.00300
H 	H 	0.99720 0.54740 0.78470 0.01500
H 	H 	0.05410 0.49690 0.87880 0.08100
H 	H 	0.80160 0.59310 0.66780 0.18400
H 	H 	0.81620 0.85070 0.06040 0.06700
H 	H 	0.72650 0.95440 0.21810 0.06500
H 	H 	0.80110 0.73240 0.33060 0.03100
H 	H 	0.85040 0.80760 0.18380 0.06800
H 	H 	0.67330 0.87600 0.36620 0.03600
H 	H 	0.44490 0.53390 0.73840 0.04400
H 	H 	0.48910 0.56860 0.79050 0.03400
H 	H 	0.93580 0.03610 0.41230 0.08600
H 	H 	0.78650 0.93540 0.45830 -0.00300
H 	H 	0.78190 0.78470 0.66790 0.01500
H 	H 	0.93290 0.87880 0.62430 0.08200
H 	H 	0.46940 0.66780 0.73910 0.18400
H 	H 	0.87660 0.06040 0.08890 0.06700
H 	H 	0.94460 0.21810 0.82750 0.06500
H 	H 	0.13170 0.33060 0.93700 0.03300
H 	H 	0.03420 0.18380 0.00860 0.06500
H 	H 	0.03950 0.36620 0.75780 0.03600
H 	H 	0.18330 0.73840 0.72770 0.04400
H 	H 	0.27960 0.79050 0.64090 0.03400
H 	H 	0.34810 0.41230 0.55160 0.08400
H 	H 	0.24480 0.45830 0.60630 -0.00200
H 	H 	0.44980 0.66790 0.54740 0.01500
H 	H 	0.55720 0.62430 0.49690 0.08200
H 	H 	0.20850 0.73910 0.59310 0.18400
H 	H 	0.68380 0.06040 0.85070 0.06800
H 	H 	0.77350 0.21810 0.95440 0.06400
H 	H 	0.69890 0.33060 0.73240 0.03100
H 	H 	0.64960 0.18380 0.80760 0.06800
H 	H 	0.82670 0.36620 0.87600 0.03600
H 	H 	0.05510 0.73840 0.53390 0.04400
H 	H 	0.01090 0.79050 0.56860 0.03400
H 	H 	0.56420 0.41230 0.03610 0.08500
H 	H 	0.71350 0.45830 0.93540 -0.00300
H 	H 	0.71810 0.66790 0.78470 0.01500
H 	H 	0.56710 0.62430 0.87880 0.08300
H 	H 	0.03060 0.73910 0.66780 0.18400
H 	H 	0.62340 0.08890 0.06040 0.06800
H 	H 	0.55540 0.82750 0.21810 0.06400
H 	H 	0.36830 0.93700 0.33060 0.03100
H 	H 	0.46580 0.00860 0.18380 0.06800
H 	H 	0.46050 0.75780 0.36620 0.03600
H 	H 	0.31670 0.72770 0.73840 0.04400
H 	H 	0.22040 0.64090 0.79050 0.03400
H 	H 	0.15190 0.55160 0.41230 0.08400
H 	H 	0.25520 0.60630 0.45830 -0.00200
H 	H 	0.05020 0.54740 0.66790 0.01500
H 	H 	0.94280 0.49690 0.62430 0.08200
H 	H 	0.29150 0.59310 0.73910 0.18400
H 	H 	0.53450 0.85070 0.08890 0.06800
H 	H 	0.72790 0.95440 0.82750 0.06400
H 	H 	0.43130 0.73240 0.93700 0.03200
H 	H 	0.45720 0.80760 0.00860 0.06700
H 	H 	0.70270 0.87600 0.75780 0.03600
H 	H 	0.58900 0.53390 0.72770 0.04400
H 	H 	0.57950 0.56860 0.64090 0.03400
H 	H 	0.60030 0.03610 0.55160 0.08500
H 	H 	0.64890 0.93540 0.60630 -0.00300
H 	H 	0.50280 0.78470 0.54740 0.01500
H 	H 	0.44590 0.87880 0.49690 0.08200
H 	H 	0.69840 0.66780 0.59310 0.18400
H 	H 	0.03450 0.91110 0.14930 0.06700
H 	H 	0.22790 0.17250 0.04560 0.06600
H 	H 	0.93130 0.06300 0.26760 0.02800
H 	H 	0.95720 0.99140 0.19240 0.07200
H 	H 	0.20270 0.24220 0.12400 0.03400
H 	H 	0.08900 0.27230 0.46610 0.04400
H 	H 	0.07950 0.35910 0.43140 0.03400
H 	H 	0.10030 0.44840 0.96390 0.08600
H 	H 	0.14890 0.39370 0.06460 -0.00300
H 	H 	0.00280 0.45260 0.21530 0.01500
H 	H 	0.94590 0.50310 0.12120 0.08100
H 	H 	0.19840 0.40690 0.33220 0.18400
H 	H 	0.18380 0.14930 0.93960 0.06700
H 	H 	0.27350 0.04560 0.78190 0.06500
H 	H 	0.19890 0.26760 0.66940 0.03100
H 	H 	0.14960 0.19240 0.81620 0.06800
H 	H 	0.32670 0.12400 0.63380 0.03600
H 	H 	0.55510 0.46610 0.26160 0.04400
H 	H 	0.51090 0.43140 0.20950 0.03400
H 	H 	0.06420 0.96390 0.58770 0.08600
H 	H 	0.21350 0.06460 0.54170 -0.00300
H 	H 	0.21810 0.21530 0.33210 0.01500
H 	H 	0.06710 0.12120 0.37570 0.08200
H 	H 	0.53060 0.33220 0.26090 0.18400
H 	H 	0.12340 0.93960 0.91110 0.06700
H 	H 	0.05540 0.78190 0.17250 0.06500
H 	H 	0.86830 0.66940 0.06300 0.03300
H 	H 	0.96580 0.81620 0.99140 0.06500
H 	H 	0.96050 0.63380 0.24220 0.03600
H 	H 	0.81670 0.26160 0.27230 0.04400
H 	H 	0.72040 0.20950 0.35910 0.03400
H 	H 	0.65190 0.58770 0.44840 0.08400
H 	H 	0.75520 0.54170 0.39370 -0.00200
H 	H 	0.55020 0.33210 0.45260 0.01500
H 	H 	0.44280 0.37570 0.50310 0.08200
H 	H 	0.79150 0.26090 0.40690 0.18400
H 	H 	0.31620 0.93960 0.14930 0.06800
H 	H 	0.22650 0.78190 0.04560 0.06400
H 	H 	0.30110 0.66940 0.26760 0.03100
H 	H 	0.35040 0.81620 0.19240 0.06800
H 	H 	0.17330 0.63380 0.12400 0.03600
H 	H 	0.94490 0.26160 0.46610 0.04400
H 	H 	0.98910 0.20950 0.43140 0.03400
H 	H 	0.43580 0.58770 0.96390 0.08500
H 	H 	0.28650 0.54170 0.06460 -0.00300
H 	H 	0.28190 0.33210 0.21530 0.01500
H 	H 	0.43290 0.37570 0.12120 0.08300
H 	H 	0.96940 0.26090 0.33220 0.18400
H 	H 	0.37660 0.91110 0.93960 0.06800
H 	H 	0.44460 0.17250 0.78190 0.06400
H 	H 	0.63170 0.06300 0.66940 0.03100
H 	H 	0.53420 0.99140 0.81620 0.06800
H 	H 	0.53950 0.24220 0.63380 0.03600
H 	H 	0.68330 0.27230 0.26160 0.04400
H 	H 	0.77960 0.35910 0.20950 0.03400
H 	H 	0.84810 0.44840 0.58770 0.08400
H 	H 	0.74480 0.39370 0.54170 -0.00200
H 	H 	0.94980 0.45260 0.33210 0.01500
H 	H 	0.05720 0.50310 0.37570 0.08200
H 	H 	0.70850 0.40690 0.26090 0.18400
H 	H 	0.46550 0.14930 0.91110 0.06800
H 	H 	0.27210 0.04560 0.17250 0.06400
H 	H 	0.56870 0.26760 0.06300 0.03200
H 	H 	0.54280 0.19240 0.99140 0.06700
H 	H 	0.29730 0.12400 0.24220 0.03600
H 	H 	0.41100 0.46610 0.27230 0.04400
H 	H 	0.42050 0.43140 0.35910 0.03400
H 	H 	0.39970 0.96390 0.44840 0.08500
H 	H 	0.35110 0.06460 0.39370 -0.00300
H 	H 	0.49720 0.21530 0.45260 0.01500
H 	H 	0.55410 0.12120 0.50310 0.08200
H 	H 	0.30160 0.33220 0.40690 0.18400
C 	C 	0.95382 0.78878 0.75332 0.33500
C 	C 	0.93723 0.83893 0.79804 -0.11000
C 	C 	0.93363 0.05285 0.91146 -0.10400
C 	C 	0.83276 0.84965 0.90977 -0.10100
C 	C 	0.00835 0.91399 0.77794 0.03900
C 	C 	0.89211 0.96332 0.94709 0.04000
C 	C 	0.98383 0.51797 0.96848 0.05900
C 	C 	0.90587 0.92409 0.89148 0.03700
C 	C 	0.99294 0.95635 0.82333 -0.11000
C 	C 	0.84789 0.80783 0.86336 0.03000
C 	C 	0.91713 0.68713 0.58084 0.01400
C 	C 	0.92238 0.55098 0.98364 -0.13700
C 	C 	0.89298 0.58323 0.92319 0.09100
C 	C 	0.97771 0.54989 0.83636 0.08300
C 	C 	0.01111 0.51848 0.89315 -0.12600
C 	C 	0.70714 0.75332 0.45790 0.33500
C 	C 	0.73527 0.79804 0.36303 -0.10400
C 	C 	0.84509 0.91146 0.03569 -0.10300
C 	C 	0.74253 0.90977 0.24058 -0.09700
C 	C 	0.78629 0.77794 0.30807 0.02800
C 	C 	0.83920 0.94709 0.08959 0.04200
C 	C 	0.95231 0.96848 0.51355 0.06200
C 	C 	0.79735 0.89148 0.18443 0.03300
C 	C 	0.81627 0.82333 0.22032 -0.10000
C 	C 	0.71125 0.86336 0.32881 0.02500
C 	C 	0.49797 0.58084 0.73203 0.01500
C 	C 	0.90602 0.98364 0.46538 -0.13700
C 	C 	0.81617 0.92319 0.49358 0.09100
C 	C 	0.81407 0.83636 0.61375 0.08700
C 	C 	0.90426 0.89315 0.58837 -0.13100
C 	C 	0.16504 0.45790 0.78878 0.33500
C 	C 	0.09830 0.36303 0.83893 -0.10300
C 	C 	0.88078 0.03569 0.05285 -0.10200
C 	C 	0.98311 0.24058 0.84965 -0.09600
C 	C 	0.09436 0.30807 0.91399 0.02500
C 	C 	0.92879 0.08959 0.96332 0.04200
C 	C 	0.46586 0.51355 0.51797 0.06100
C 	C 	0.98178 0.18443 0.92409 0.03000
C 	C 	0.03659 0.22032 0.95635 -0.09400
C 	C 	0.04006 0.32881 0.80783 0.02500
C 	C 	0.23000 0.73203 0.68713 0.01500
C 	C 	0.37140 0.46538 0.55098 -0.13500
C 	C 	0.30975 0.49358 0.58323 0.09000
C 	C 	0.42782 0.61375 0.54989 0.08700
C 	C 	0.49263 0.58837 0.51848 -0.13100
C 	C 	0.79286 0.45790 0.75332 0.33500
C 	C 	0.76473 0.36303 0.79804 -0.10400
C 	C 	0.65491 0.03569 0.91146 -0.10800
C 	C 	0.75747 0.24058 0.90977 -0.09600
C 	C 	0.71371 0.30807 0.77794 0.02800
C 	C 	0.66080 0.08959 0.94709 0.04500
C 	C 	0.54769 0.51355 0.96848 0.06200
C 	C 	0.70265 0.18443 0.89148 0.03100
C 	C 	0.68373 0.22032 0.82333 -0.09900
C 	C 	0.78875 0.32881 0.86336 0.02500
C 	C 	0.00203 0.73203 0.58084 0.01600
C 	C 	0.59398 0.46538 0.98364 -0.13500
C 	C 	0.68383 0.49358 0.92319 0.09100
C 	C 	0.68593 0.61375 0.83636 0.08700
C 	C 	0.59574 0.58837 0.89315 -0.13100
C 	C 	0.33496 0.78878 0.45790 0.33500
C 	C 	0.40170 0.83893 0.36303 -0.10400
C 	C 	0.61922 0.05285 0.03569 -0.10700
C 	C 	0.51689 0.84965 0.24058 -0.09600
C 	C 	0.40564 0.91399 0.30807 0.02800
C 	C 	0.57121 0.96332 0.08959 0.04500
C 	C 	0.03414 0.51797 0.51355 0.06100
C 	C 	0.51822 0.92409 0.18443 0.03100
C 	C 	0.46341 0.95635 0.22032 -0.09900
C 	C 	0.45994 0.80783 0.32881 0.02500
C 	C 	0.27000 0.68713 0.73203 0.01500
C 	C 	0.12860 0.55098 0.46538 -0.13500
C 	C 	0.19025 0.58323 0.49358 0.09000
C 	C 	0.07218 0.54989 0.61375 0.08600
C 	C 	0.00737 0.51848 0.58837 -0.13000
C 	C 	0.54618 0.75332 0.78878 0.33500
C 	C 	0.56277 0.79804 0.83893 -0.10400
C 	C 	0.56637 0.91146 0.05285 -0.10800
C 	C 	0.66724 0.90977 0.84965 -0.09600
C 	C 	0.49165 0.77794 0.91399 0.02700
C 	C 	0.60789 0.94709 0.96332 0.04600
C 	C 	0.51617 0.96848 0.51797 0.06100
C 	C 	0.59413 0.89148 0.92409 0.03000
C 	C 	0.50706 0.82333 0.95635 -0.09800
C 	C 	0.65211 0.86336 0.80783 0.02400
C 	C 	0.58287 0.58084 0.68713 0.01500
C 	C 	0.57762 0.98364 0.55098 -0.13500
C 	C 	0.60702 0.92319 0.58323 0.09100
C 	C 	0.52229 0.83636 0.54989 0.08700
C 	C 	0.48889 0.89315 0.51848 -0.13100
C 	C 	0.04618 0.21122 0.24668 0.33500
C 	C 	0.06277 0.16107 0.20196 -0.11000
C 	C 	0.06637 0.94715 0.08854 -0.10400
C 	C 	0.16724 0.15035 0.09023 -0.10100
C 	C 	0.99165 0.08601 0.22206 0.03900
C 	C 	0.10789 0.03668 0.05291 0.04000
C 	C 	0.01617 0.48203 0.03152 0.05900
C 	C 	0.09413 0.07591 0.10852 0.03700
C 	C 	0.00706 0.04365 0.17667 -0.11000
C 	C 	0.15211 0.19217 0.13664 0.03000
C 	C 	0.08287 0.31287 0.41916 0.01400
C 	C 	0.07762 0.44902 0.01636 -0.13700
C 	C 	0.10702 0.41677 0.07681 0.09100
C 	C 	0.02229 0.45011 0.16364 0.08300
C 	C 	0.98889 0.48152 0.10685 -0.12600
C 	C 	0.29286 0.24668 0.54210 0.33500
C 	C 	0.26473 0.20196 0.63697 -0.10400
C 	C 	0.15491 0.08854 0.96431 -0.10300
C 	C 	0.25747 0.09023 0.75942 -0.09700
C 	C 	0.21371 0.22206 0.69193 0.02800
C 	C 	0.16080 0.05291 0.91041 0.04200
C 	C 	0.04769 0.03152 0.48645 0.06200
C 	C 	0.20265 0.10852 0.81557 0.03300
C 	C 	0.18373 0.17667 0.77968 -0.10000
C 	C 	0.28875 0.13664 0.67119 0.02500
C 	C 	0.50203 0.41916 0.26797 0.01500
C 	C 	0.09398 0.01636 0.53462 -0.13700
C 	C 	0.18383 0.07681 0.50642 0.09100
C 	C 	0.18593 0.16364 0.38625 0.08700
C 	C 	0.09574 0.10685 0.41163 -0.13100
C 	C 	0.83496 0.54210 0.21122 0.33500
C 	C 	0.90170 0.63697 0.16107 -0.10300
C 	C 	0.11922 0.96431 0.94715 -0.10200
C 	C 	0.01689 0.75942 0.15035 -0.09600
C 	C 	0.90564 0.69193 0.08601 0.02500
C 	C 	0.07121 0.91041 0.03668 0.04200
C 	C 	0.53414 0.48645 0.48203 0.06100
C 	C 	0.01822 0.81557 0.07591 0.03000
C 	C 	0.96341 0.77968 0.04365 -0.09400
C 	C 	0.95994 0.67119 0.19217 0.02500
C 	C 	0.77000 0.26797 0.31287 0.01500
C 	C 	0.62860 0.53462 0.44902 -0.13500
C 	C 	0.69025 0.50642 0.41677 0.09000
C 	C 	0.57218 0.38625 0.45011 0.08700
C 	C 	0.50737 0.41163 0.48152 -0.13100
C 	C 	0.20714 0.54210 0.24668 0.33500
C 	C 	0.23527 0.63697 0.20196 -0.10400
C 	C 	0.34509 0.96431 0.08854 -0.10800
C 	C 	0.24253 0.75942 0.09023 -0.09600
C 	C 	0.28629 0.69193 0.22206 0.02800
C 	C 	0.33920 0.91041 0.05291 0.04500
C 	C 	0.45231 0.48645 0.03152 0.06200
C 	C 	0.29735 0.81557 0.10852 0.03100
C 	C 	0.31627 0.77968 0.17667 -0.09900
C 	C 	0.21125 0.67119 0.13664 0.02500
C 	C 	0.99797 0.26797 0.41916 0.01600
C 	C 	0.40602 0.53462 0.01636 -0.13500
C 	C 	0.31617 0.50642 0.07681 0.09100
C 	C 	0.31407 0.38625 0.16364 0.08700
C 	C 	0.40426 0.41163 0.10685 -0.13100
C 	C 	0.66504 0.21122 0.54210 0.33500
C 	C 	0.59830 0.16107 0.63697 -0.10400
C 	C 	0.38078 0.94715 0.96431 -0.10700
C 	C 	0.48311 0.15035 0.75942 -0.09600
C 	C 	0.59436 0.08601 0.69193 0.02800
C 	C 	0.42879 0.03668 0.91041 0.04500
C 	C 	0.96586 0.48203 0.48645 0.06100
C 	C 	0.48178 0.07591 0.81557 0.03100
C 	C 	0.53659 0.04365 0.77968 -0.09900
C 	C 	0.54006 0.19217 0.67119 0.02500
C 	C 	0.73000 0.31287 0.26797 0.01500
C 	C 	0.87140 0.44902 0.53462 -0.13500
C 	C 	0.80975 0.41677 0.50642 0.09000
C 	C 	0.92782 0.45011 0.38625 0.08600
C 	C 	0.99263 0.48152 0.41163 -0.13000
C 	C 	0.45382 0.24668 0.21122 0.33500
C 	C 	0.43723 0.20196 0.16107 -0.10400
C 	C 	0.43363 0.08854 0.94715 -0.10800
C 	C 	0.33276 0.09023 0.15035 -0.09600
C 	C 	0.50835 0.22206 0.08601 0.02700
C 	C 	0.39211 0.05291 0.03668 0.04600
C 	C 	0.48383 0.03152 0.48203 0.06100
C 	C 	0.40587 0.10852 0.07591 0.03000
C 	C 	0.49294 0.17667 0.04365 -0.09800
C 	C 	0.34789 0.13664 0.19217 0.02400
C 	C 	0.41713 0.41916 0.31287 0.01500
C 	C 	0.42238 0.01636 0.44902 -0.13500
C 	C 	0.39298 0.07681 0.41677 0.09100
C 	C 	0.47771 0.16364 0.45011 0.08700
C 	C 	0.51111 0.10685 0.48152 -0.13100
N 	N 	0.92020 0.58334 0.85004 -0.23000
N 	N 	0.77024 0.85004 0.56662 -0.23000
N 	N 	0.33686 0.56662 0.58334 -0.23000
N 	N 	0.72976 0.56662 0.85004 -0.23000
N 	N 	0.16314 0.58334 0.56662 -0.23000
N 	N 	0.57980 0.85004 0.58334 -0.23000
N 	N 	0.07980 0.41666 0.14996 -0.23000
N 	N 	0.22976 0.14996 0.43338 -0.23000
N 	N 	0.66314 0.43338 0.41666 -0.23000
N 	N 	0.27024 0.43338 0.14996 -0.23000
N 	N 	0.83686 0.41666 0.43338 -0.23000
N 	N 	0.42020 0.14996 0.41666 -0.23000
O 	O 	0.88182 0.72710 0.76898 -0.40400
O 	O 	0.83664 0.65053 0.65956 -0.38100
O 	O 	0.03540 0.80998 0.70444 -0.29700
O 	O 	0.65080 0.76898 0.50392 -0.40300
O 	O 	0.49620 0.65956 0.68991 -0.38100
O 	O 	0.73984 0.70444 0.48558 -0.29800
O 	O 	0.15472 0.50392 0.72710 -0.40300
O 	O 	0.18611 0.68991 0.65053 -0.38100
O 	O 	0.22542 0.48558 0.80998 -0.29700
O 	O 	0.84920 0.50392 0.76898 -0.40300
O 	O 	0.00380 0.68991 0.65956 -0.38000
O 	O 	0.76016 0.48558 0.70444 -0.29800
O 	O 	0.34528 0.72710 0.50392 -0.40300
O 	O 	0.31389 0.65053 0.68991 -0.38100
O 	O 	0.27458 0.80998 0.48558 -0.29800
O 	O 	0.61818 0.76898 0.72710 -0.40300
O 	O 	0.66336 0.65956 0.65053 -0.38100
O 	O 	0.46460 0.70444 0.80998 -0.29700
O 	O 	0.11818 0.27290 0.23102 -0.40400
O 	O 	0.16336 0.34947 0.34044 -0.38100
O 	O 	0.96460 0.19002 0.29556 -0.29700
O 	O 	0.34920 0.23102 0.49608 -0.40300
O 	O 	0.50380 0.34044 0.31009 -0.38100
O 	O 	0.26016 0.29556 0.51442 -0.29800
O 	O 	0.84528 0.49608 0.27290 -0.40300
O 	O 	0.81389 0.31009 0.34947 -0.38100
O 	O 	0.77458 0.51442 0.19002 -0.29700
O 	O 	0.15080 0.49608 0.23102 -0.40300
O 	O 	0.99620 0.31009 0.34044 -0.38000
O 	O 	0.23984 0.51442 0.29556 -0.29800
O 	O 	0.65472 0.27290 0.49608 -0.40300
O 	O 	0.68611 0.34947 0.31009 -0.38100
O 	O 	0.72542 0.19002 0.51442 -0.29800
O 	O 	0.38182 0.23102 0.27290 -0.40300
O 	O 	0.33664 0.34044 0.34947 -0.38100
O 	O 	0.53540 0.29556 0.19002 -0.29700
