data_crystal

_cell_length_a 28.47000
_cell_length_b 27.78400
_cell_length_c 9.25500
_cell_angle_alpha 90.00000
_cell_angle_beta  90.00000
_cell_angle_gamma 90.00000

_symmetry_space_group_name_	'P 1'
_symmetry_space_group_name_H-M	'P 1'

loop_
_symmetry_equiv_pos_as_xyz
  x,y,z

loop_
_atom_site_label
_atom_site_type_symbol
_atom_site_fract_x
_atom_site_fract_y
_atom_site_fract_z
_atom_site_charge
Cl	Cl	0.31677 0.49924 0.89290 -0.55000
Zn	Zn	0.36497 0.49206 0.08132 1.19300
C 	C 	0.45563 0.54215 0.13720 0.11100
H 	H 	0.45870 0.52810 0.22790 -0.03100
C 	C 	0.43067 0.55970 0.92830 0.00400
H 	H 	0.41290 0.56000 0.84400 0.01900
C 	C 	0.46848 0.58650 0.95220 -0.00200
H 	H 	0.48160 0.60900 0.88990 0.02900
C 	C 	0.52336 0.59572 0.16380 0.07400
C 	C 	0.55238 0.56772 0.24600 -0.07400
H 	H 	0.54810 0.53450 0.24820 0.05100
C 	C 	0.58757 0.58826 0.32490 -0.09200
H 	H 	0.60680 0.56880 0.38150 0.06700
C 	C 	0.59518 0.63728 0.32220 0.09800
C 	C 	0.56616 0.66502 0.23530 -0.09000
H 	H 	0.57120 0.69800 0.22920 0.06800
C 	C 	0.53022 0.64452 0.15810 -0.06400
H 	H 	0.51060 0.66370 0.10210 0.05500
C 	C 	0.79662 0.54090 0.72650 0.10600
H 	H 	0.77710 0.54760 0.80460 -0.01900
C 	C 	0.85390 0.51580 0.59910 0.01500
H 	H 	0.88220 0.50160 0.57220 0.00500
C 	C 	0.82428 0.53790 0.51030 -0.00600
H 	H 	0.82780 0.54170 0.41100 0.05500
C 	C 	0.74830 0.58109 0.54140 0.10000
C 	C 	0.72486 0.61114 0.63680 -0.08400
H 	H 	0.73510 0.61420 0.73180 0.05700
C 	C 	0.68642 0.63623 0.58930 -0.07900
H 	H 	0.67050 0.65620 0.65330 0.06600
C 	C 	0.67093 0.63244 0.44850 0.08600
C 	C 	0.69476 0.60345 0.35730 -0.06800
H 	H 	0.68510 0.60110 0.26160 0.07200
C 	C 	0.73307 0.57720 0.40320 -0.09100
H 	H 	0.74850 0.55680 0.33920 0.10200
C 	C 	0.63104 0.88573 0.56530 0.11000
H 	H 	0.65520 0.88500 0.49750 -0.02000
C 	C 	0.58030 0.91025 0.71800 0.00400
H 	H 	0.56270 0.93050 0.77700 0.00700
C 	C 	0.57569 0.86260 0.70990 0.00100
H 	H 	0.55430 0.84370 0.76050 0.02800
C 	C 	0.61483 0.79852 0.56450 0.08400
C 	C 	0.57733 0.76714 0.56650 -0.07200
H 	H 	0.54850 0.77690 0.60360 0.05500
C 	C 	0.58276 0.72131 0.51340 -0.08700
H 	H 	0.55760 0.70000 0.51540 0.06200
C 	C 	0.62521 0.70679 0.45750 0.09300
C 	C 	0.66261 0.73837 0.45570 -0.08400
H 	H 	0.69130 0.72870 0.41760 0.06500
C 	C 	0.65756 0.78392 0.50980 -0.07200
H 	H 	0.68290 0.80500 0.50960 0.05800
N 	N 	0.42190 0.53183 0.04580 -0.28100
N 	N 	0.48420 0.57435 0.08570 -0.14300
N 	N 	0.61517 0.92463 0.62530 -0.27900
N 	N 	0.60846 0.84696 0.61280 -0.14000
N 	N 	0.78783 0.55414 0.59180 -0.13800
N 	N 	0.83619 0.51715 0.73610 -0.27800
N 	N 	0.63094 0.65928 0.40290 -0.15500
Cl	Cl	0.18323 0.99924 0.60710 -0.55300
Zn	Zn	0.13503 0.99206 0.41868 1.19200
C 	C 	0.04437 0.04215 0.36280 0.11100
H 	H 	0.04130 0.02810 0.27210 -0.03100
C 	C 	0.06933 0.05970 0.57170 0.00200
H 	H 	0.08710 0.06000 0.65600 0.02000
C 	C 	0.03152 0.08650 0.54780 -0.00200
H 	H 	0.01840 0.10900 0.61010 0.02900
C 	C 	0.97664 0.09572 0.33620 0.07300
C 	C 	0.94762 0.06772 0.25400 -0.07400
H 	H 	0.95190 0.03450 0.25180 0.05100
C 	C 	0.91243 0.08826 0.17510 -0.09300
H 	H 	0.89320 0.06880 0.11850 0.06800
C 	C 	0.90482 0.13728 0.17780 0.09800
C 	C 	0.93384 0.16502 0.26470 -0.09100
H 	H 	0.92880 0.19800 0.27080 0.06800
C 	C 	0.96978 0.14452 0.34190 -0.06300
H 	H 	0.98940 0.16370 0.39790 0.05500
C 	C 	0.70338 0.04090 0.77350 0.10600
H 	H 	0.72290 0.04760 0.69540 -0.01800
C 	C 	0.64610 0.01580 0.90090 0.01700
H 	H 	0.61780 0.00160 0.92780 0.00400
C 	C 	0.67572 0.03790 0.98970 -0.01000
H 	H 	0.67220 0.04170 0.08900 0.05800
C 	C 	0.75170 0.08109 0.95860 0.09300
C 	C 	0.77514 0.11114 0.86320 -0.07900
H 	H 	0.76490 0.11420 0.76820 0.05600
C 	C 	0.81358 0.13623 0.91070 -0.08700
H 	H 	0.82950 0.15620 0.84670 0.06900
C 	C 	0.82907 0.13244 0.05150 0.09200
C 	C 	0.80524 0.10345 0.14270 -0.07400
H 	H 	0.81490 0.10110 0.23840 0.07400
C 	C 	0.76693 0.07720 0.09680 -0.08300
H 	H 	0.75150 0.05680 0.16080 0.10000
C 	C 	0.86896 0.38573 0.93470 0.10500
H 	H 	0.84480 0.38500 0.00250 -0.01700
C 	C 	0.91970 0.41025 0.78200 0.00400
H 	H 	0.93730 0.43050 0.72300 0.00700
C 	C 	0.92431 0.36260 0.79010 0.00100
H 	H 	0.94570 0.34370 0.73950 0.02800
C 	C 	0.88517 0.29852 0.93550 0.08500
C 	C 	0.92267 0.26714 0.93350 -0.07100
H 	H 	0.95150 0.27690 0.89640 0.05500
C 	C 	0.91724 0.22131 0.98660 -0.08900
H 	H 	0.94240 0.20000 0.98460 0.06200
C 	C 	0.87479 0.20679 0.04250 0.09400
C 	C 	0.83739 0.23837 0.04430 -0.08000
H 	H 	0.80870 0.22870 0.08240 0.06400
C 	C 	0.84244 0.28392 0.99020 -0.07600
H 	H 	0.81710 0.30500 0.99040 0.05800
N 	N 	0.07810 0.03183 0.45420 -0.28000
N 	N 	0.01580 0.07435 0.41430 -0.14200
N 	N 	0.88483 0.42463 0.87470 -0.27800
N 	N 	0.89154 0.34696 0.88720 -0.13900
N 	N 	0.71217 0.05414 0.90820 -0.13700
N 	N 	0.66381 0.01715 0.76390 -0.27800
N 	N 	0.86906 0.15928 0.09710 -0.15600
Cl	Cl	0.81677 0.49924 0.10710 -0.55100
Zn	Zn	0.86497 0.49206 0.91868 1.19200
C 	C 	0.95563 0.54215 0.86280 0.11100
H 	H 	0.95870 0.52810 0.77210 -0.03100
C 	C 	0.93067 0.55970 0.07170 0.00400
H 	H 	0.91290 0.56000 0.15600 0.01900
C 	C 	0.96848 0.58650 0.04780 -0.00200
H 	H 	0.98160 0.60900 0.11010 0.02900
C 	C 	0.02336 0.59572 0.83620 0.07400
C 	C 	0.05238 0.56772 0.75400 -0.07500
H 	H 	0.04810 0.53450 0.75180 0.05100
C 	C 	0.08757 0.58826 0.67510 -0.09200
H 	H 	0.10680 0.56880 0.61850 0.06700
C 	C 	0.09518 0.63728 0.67780 0.09800
C 	C 	0.06616 0.66502 0.76470 -0.09000
H 	H 	0.07120 0.69800 0.77080 0.06800
C 	C 	0.03022 0.64452 0.84190 -0.06400
H 	H 	0.01060 0.66370 0.89790 0.05500
C 	C 	0.29662 0.54090 0.27350 0.10700
H 	H 	0.27710 0.54760 0.19540 -0.01900
C 	C 	0.35390 0.51580 0.40090 0.01500
H 	H 	0.38220 0.50160 0.42780 0.00500
C 	C 	0.32428 0.53790 0.48970 -0.00600
H 	H 	0.32780 0.54170 0.58900 0.05500
C 	C 	0.24830 0.58109 0.45860 0.10000
C 	C 	0.22486 0.61114 0.36320 -0.08400
H 	H 	0.23510 0.61420 0.26820 0.05700
C 	C 	0.18642 0.63623 0.41070 -0.07900
H 	H 	0.17050 0.65620 0.34670 0.06600
C 	C 	0.17093 0.63244 0.55150 0.08600
C 	C 	0.19476 0.60345 0.64270 -0.06800
H 	H 	0.18510 0.60110 0.73840 0.07200
C 	C 	0.23307 0.57720 0.59680 -0.09100
H 	H 	0.24850 0.55680 0.66080 0.10200
C 	C 	0.13104 0.88573 0.43470 0.11000
H 	H 	0.15520 0.88500 0.50250 -0.02000
C 	C 	0.08030 0.91025 0.28200 0.00400
H 	H 	0.06270 0.93050 0.22300 0.00700
C 	C 	0.07569 0.86260 0.29010 0.00100
H 	H 	0.05430 0.84370 0.23950 0.02800
C 	C 	0.11483 0.79852 0.43550 0.08400
C 	C 	0.07733 0.76714 0.43350 -0.07200
H 	H 	0.04850 0.77690 0.39640 0.05500
C 	C 	0.08276 0.72131 0.48660 -0.08700
H 	H 	0.05760 0.70000 0.48460 0.06100
C 	C 	0.12521 0.70679 0.54250 0.09300
C 	C 	0.16261 0.73837 0.54430 -0.08400
H 	H 	0.19130 0.72870 0.58240 0.06500
C 	C 	0.15756 0.78392 0.49020 -0.07200
H 	H 	0.18290 0.80500 0.49040 0.05800
N 	N 	0.92190 0.53183 0.95420 -0.28100
N 	N 	0.98420 0.57435 0.91430 -0.14300
N 	N 	0.11517 0.92463 0.37470 -0.27900
N 	N 	0.10846 0.84696 0.38720 -0.14000
N 	N 	0.28783 0.55414 0.40820 -0.13800
N 	N 	0.33619 0.51715 0.26390 -0.27800
N 	N 	0.13094 0.65928 0.59710 -0.15500
Cl	Cl	0.68323 0.99924 0.39290 -0.55200
Zn	Zn	0.63503 0.99206 0.58132 1.19200
C 	C 	0.54437 0.04215 0.63720 0.11100
H 	H 	0.54130 0.02810 0.72790 -0.03100
C 	C 	0.56933 0.05970 0.42830 0.00200
H 	H 	0.58710 0.06000 0.34400 0.02000
C 	C 	0.53152 0.08650 0.45220 -0.00200
H 	H 	0.51840 0.10900 0.38990 0.02900
C 	C 	0.47664 0.09572 0.66380 0.07400
C 	C 	0.44762 0.06772 0.74600 -0.07400
H 	H 	0.45190 0.03450 0.74820 0.05100
C 	C 	0.41243 0.08826 0.82490 -0.09300
H 	H 	0.39320 0.06880 0.88150 0.06800
C 	C 	0.40482 0.13728 0.82220 0.09800
C 	C 	0.43384 0.16502 0.73530 -0.09000
H 	H 	0.42880 0.19800 0.72920 0.06800
C 	C 	0.46978 0.14452 0.65810 -0.06300
H 	H 	0.48940 0.16370 0.60210 0.05500
C 	C 	0.20338 0.04090 0.22650 0.10600
H 	H 	0.22290 0.04760 0.30460 -0.01800
C 	C 	0.14610 0.01580 0.09910 0.01800
H 	H 	0.11780 0.00160 0.07220 0.00400
C 	C 	0.17572 0.03790 0.01030 -0.01100
H 	H 	0.17220 0.04170 0.91100 0.05800
C 	C 	0.25170 0.08109 0.04140 0.09400
C 	C 	0.27514 0.11114 0.13680 -0.07900
H 	H 	0.26490 0.11420 0.23180 0.05600
C 	C 	0.31358 0.13623 0.08930 -0.08600
H 	H 	0.32950 0.15620 0.15330 0.06900
C 	C 	0.32907 0.13244 0.94850 0.09200
C 	C 	0.30524 0.10345 0.85730 -0.07400
H 	H 	0.31490 0.10110 0.76160 0.07400
C 	C 	0.26693 0.07720 0.90320 -0.08300
H 	H 	0.25150 0.05680 0.83920 0.10000
C 	C 	0.36896 0.38573 0.06530 0.10600
H 	H 	0.34480 0.38500 0.99750 -0.01700
C 	C 	0.41970 0.41025 0.21800 0.00400
H 	H 	0.43730 0.43050 0.27700 0.00700
C 	C 	0.42431 0.36260 0.20990 0.00100
H 	H 	0.44570 0.34370 0.26050 0.02800
C 	C 	0.38517 0.29852 0.06450 0.08500
C 	C 	0.42267 0.26714 0.06650 -0.07100
H 	H 	0.45150 0.27690 0.10360 0.05500
C 	C 	0.41724 0.22131 0.01340 -0.08900
H 	H 	0.44240 0.20000 0.01540 0.06200
C 	C 	0.37479 0.20679 0.95750 0.09400
C 	C 	0.33739 0.23837 0.95570 -0.08000
H 	H 	0.30870 0.22870 0.91760 0.06400
C 	C 	0.34244 0.28392 0.00980 -0.07600
H 	H 	0.31710 0.30500 0.00960 0.05800
N 	N 	0.57810 0.03183 0.54580 -0.28000
N 	N 	0.51580 0.07435 0.58570 -0.14200
N 	N 	0.38483 0.42463 0.12530 -0.27800
N 	N 	0.39154 0.34696 0.11280 -0.13900
N 	N 	0.21217 0.05414 0.09180 -0.13700
N 	N 	0.16381 0.01715 0.23610 -0.27800
N 	N 	0.36906 0.15928 0.90290 -0.15600
Cl	Cl	0.18323 0.50076 0.89290 -0.55100
Zn	Zn	0.13503 0.50794 0.08132 1.19200
C 	C 	0.04437 0.45785 0.13720 0.11100
H 	H 	0.04130 0.47190 0.22790 -0.03100
C 	C 	0.06933 0.44030 0.92830 0.00400
H 	H 	0.08710 0.44000 0.84400 0.01900
C 	C 	0.03152 0.41350 0.95220 -0.00200
H 	H 	0.01840 0.39100 0.88990 0.02900
C 	C 	0.97664 0.40428 0.16380 0.07400
C 	C 	0.94762 0.43228 0.24600 -0.07500
H 	H 	0.95190 0.46550 0.24820 0.05100
C 	C 	0.91243 0.41174 0.32490 -0.09200
H 	H 	0.89320 0.43120 0.38150 0.06700
C 	C 	0.90482 0.36272 0.32220 0.09800
C 	C 	0.93384 0.33498 0.23530 -0.09000
H 	H 	0.92880 0.30200 0.22920 0.06800
C 	C 	0.96978 0.35548 0.15810 -0.06400
H 	H 	0.98940 0.33630 0.10210 0.05500
C 	C 	0.70338 0.45910 0.72650 0.10700
H 	H 	0.72290 0.45240 0.80460 -0.01900
C 	C 	0.64610 0.48420 0.59910 0.01500
H 	H 	0.61780 0.49840 0.57220 0.00500
C 	C 	0.67572 0.46210 0.51030 -0.00600
H 	H 	0.67220 0.45830 0.41100 0.05500
C 	C 	0.75170 0.41891 0.54140 0.10000
C 	C 	0.77514 0.38886 0.63680 -0.08400
H 	H 	0.76490 0.38580 0.73180 0.05700
C 	C 	0.81358 0.36377 0.58930 -0.07900
H 	H 	0.82950 0.34380 0.65330 0.06600
C 	C 	0.82907 0.36756 0.44850 0.08600
C 	C 	0.80524 0.39655 0.35730 -0.06800
H 	H 	0.81490 0.39890 0.26160 0.07200
C 	C 	0.76693 0.42280 0.40320 -0.09100
H 	H 	0.75150 0.44320 0.33920 0.10200
C 	C 	0.86896 0.11427 0.56530 0.11000
H 	H 	0.84480 0.11500 0.49750 -0.02000
C 	C 	0.91970 0.08975 0.71800 0.00400
H 	H 	0.93730 0.06950 0.77700 0.00700
C 	C 	0.92431 0.13740 0.70990 0.00100
H 	H 	0.94570 0.15630 0.76050 0.02800
C 	C 	0.88517 0.20148 0.56450 0.08400
C 	C 	0.92267 0.23286 0.56650 -0.07200
H 	H 	0.95150 0.22310 0.60360 0.05500
C 	C 	0.91724 0.27869 0.51340 -0.08700
H 	H 	0.94240 0.30000 0.51540 0.06100
C 	C 	0.87479 0.29321 0.45750 0.09300
C 	C 	0.83739 0.26163 0.45570 -0.08400
H 	H 	0.80870 0.27130 0.41760 0.06500
C 	C 	0.84244 0.21608 0.50980 -0.07200
H 	H 	0.81710 0.19500 0.50960 0.05800
N 	N 	0.07810 0.46817 0.04580 -0.28100
N 	N 	0.01580 0.42565 0.08570 -0.14300
N 	N 	0.88483 0.07537 0.62530 -0.27900
N 	N 	0.89154 0.15304 0.61280 -0.14000
N 	N 	0.71217 0.44586 0.59180 -0.13800
N 	N 	0.66381 0.48285 0.73610 -0.27800
N 	N 	0.86906 0.34072 0.40290 -0.15500
Cl	Cl	0.31677 0.00076 0.60710 -0.55200
Zn	Zn	0.36497 0.00794 0.41868 1.19200
C 	C 	0.45563 0.95785 0.36280 0.11100
H 	H 	0.45870 0.97190 0.27210 -0.03100
C 	C 	0.43067 0.94030 0.57170 0.00200
H 	H 	0.41290 0.94000 0.65600 0.02000
C 	C 	0.46848 0.91350 0.54780 -0.00200
H 	H 	0.48160 0.89100 0.61010 0.02900
C 	C 	0.52336 0.90428 0.33620 0.07400
C 	C 	0.55238 0.93228 0.25400 -0.07400
H 	H 	0.54810 0.96550 0.25180 0.05100
C 	C 	0.58757 0.91174 0.17510 -0.09300
H 	H 	0.60680 0.93120 0.11850 0.06800
C 	C 	0.59518 0.86272 0.17780 0.09800
C 	C 	0.56616 0.83498 0.26470 -0.09000
H 	H 	0.57120 0.80200 0.27080 0.06800
C 	C 	0.53022 0.85548 0.34190 -0.06300
H 	H 	0.51060 0.83630 0.39790 0.05500
C 	C 	0.79662 0.95910 0.77350 0.10600
H 	H 	0.77710 0.95240 0.69540 -0.01800
C 	C 	0.85390 0.98420 0.90090 0.01800
H 	H 	0.88220 0.99840 0.92780 0.00400
C 	C 	0.82428 0.96210 0.98970 -0.01100
H 	H 	0.82780 0.95830 0.08900 0.05800
C 	C 	0.74830 0.91891 0.95860 0.09400
C 	C 	0.72486 0.88886 0.86320 -0.07900
H 	H 	0.73510 0.88580 0.76820 0.05600
C 	C 	0.68642 0.86377 0.91070 -0.08600
H 	H 	0.67050 0.84380 0.84670 0.06900
C 	C 	0.67093 0.86756 0.05150 0.09200
C 	C 	0.69476 0.89655 0.14270 -0.07400
H 	H 	0.68510 0.89890 0.23840 0.07400
C 	C 	0.73307 0.92280 0.09680 -0.08300
H 	H 	0.74850 0.94320 0.16080 0.10000
C 	C 	0.63104 0.61427 0.93470 0.10600
H 	H 	0.65520 0.61500 0.00250 -0.01700
C 	C 	0.58030 0.58975 0.78200 0.00400
H 	H 	0.56270 0.56950 0.72300 0.00700
C 	C 	0.57569 0.63740 0.79010 0.00100
H 	H 	0.55430 0.65630 0.73950 0.02800
C 	C 	0.61483 0.70148 0.93550 0.08500
C 	C 	0.57733 0.73286 0.93350 -0.07100
H 	H 	0.54850 0.72310 0.89640 0.05500
C 	C 	0.58276 0.77869 0.98660 -0.08900
H 	H 	0.55760 0.80000 0.98460 0.06200
C 	C 	0.62521 0.79321 0.04250 0.09400
C 	C 	0.66261 0.76163 0.04430 -0.08000
H 	H 	0.69130 0.77130 0.08240 0.06400
C 	C 	0.65756 0.71608 0.99020 -0.07600
H 	H 	0.68290 0.69500 0.99040 0.05800
N 	N 	0.42190 0.96817 0.45420 -0.28000
N 	N 	0.48420 0.92565 0.41430 -0.14200
N 	N 	0.61517 0.57537 0.87470 -0.27800
N 	N 	0.60846 0.65304 0.88720 -0.13900
N 	N 	0.78783 0.94586 0.90820 -0.13700
N 	N 	0.83619 0.98285 0.76390 -0.27800
N 	N 	0.63094 0.84072 0.09710 -0.15600
Cl	Cl	0.68323 0.50076 0.10710 -0.55100
Zn	Zn	0.63503 0.50794 0.91868 1.19200
C 	C 	0.54437 0.45785 0.86280 0.11100
H 	H 	0.54130 0.47190 0.77210 -0.03100
C 	C 	0.56933 0.44030 0.07170 0.00400
H 	H 	0.58710 0.44000 0.15600 0.01900
C 	C 	0.53152 0.41350 0.04780 -0.00200
H 	H 	0.51840 0.39100 0.11010 0.02900
C 	C 	0.47664 0.40428 0.83620 0.07400
C 	C 	0.44762 0.43228 0.75400 -0.07400
H 	H 	0.45190 0.46550 0.75180 0.05100
C 	C 	0.41243 0.41174 0.67510 -0.09200
H 	H 	0.39320 0.43120 0.61850 0.06700
C 	C 	0.40482 0.36272 0.67780 0.09800
C 	C 	0.43384 0.33498 0.76470 -0.09000
H 	H 	0.42880 0.30200 0.77080 0.06800
C 	C 	0.46978 0.35548 0.84190 -0.06400
H 	H 	0.48940 0.33630 0.89790 0.05500
C 	C 	0.20338 0.45910 0.27350 0.10600
H 	H 	0.22290 0.45240 0.19540 -0.01900
C 	C 	0.14610 0.48420 0.40090 0.01500
H 	H 	0.11780 0.49840 0.42780 0.00500
C 	C 	0.17572 0.46210 0.48970 -0.00600
H 	H 	0.17220 0.45830 0.58900 0.05500
C 	C 	0.25170 0.41891 0.45860 0.10000
C 	C 	0.27514 0.38886 0.36320 -0.08400
H 	H 	0.26490 0.38580 0.26820 0.05700
C 	C 	0.31358 0.36377 0.41070 -0.07900
H 	H 	0.32950 0.34380 0.34670 0.06600
C 	C 	0.32907 0.36756 0.55150 0.08600
C 	C 	0.30524 0.39655 0.64270 -0.06800
H 	H 	0.31490 0.39890 0.73840 0.07200
C 	C 	0.26693 0.42280 0.59680 -0.09100
H 	H 	0.25150 0.44320 0.66080 0.10200
C 	C 	0.36896 0.11427 0.43470 0.11000
H 	H 	0.34480 0.11500 0.50250 -0.02000
C 	C 	0.41970 0.08975 0.28200 0.00400
H 	H 	0.43730 0.06950 0.22300 0.00700
C 	C 	0.42431 0.13740 0.29010 0.00100
H 	H 	0.44570 0.15630 0.23950 0.02800
C 	C 	0.38517 0.20148 0.43550 0.08400
C 	C 	0.42267 0.23286 0.43350 -0.07200
H 	H 	0.45150 0.22310 0.39640 0.05500
C 	C 	0.41724 0.27869 0.48660 -0.08700
H 	H 	0.44240 0.30000 0.48460 0.06200
C 	C 	0.37479 0.29321 0.54250 0.09300
C 	C 	0.33739 0.26163 0.54430 -0.08400
H 	H 	0.30870 0.27130 0.58240 0.06500
C 	C 	0.34244 0.21608 0.49020 -0.07200
H 	H 	0.31710 0.19500 0.49040 0.05800
N 	N 	0.57810 0.46817 0.95420 -0.28100
N 	N 	0.51580 0.42565 0.91430 -0.14300
N 	N 	0.38483 0.07537 0.37470 -0.27900
N 	N 	0.39154 0.15304 0.38720 -0.14000
N 	N 	0.21217 0.44586 0.40820 -0.13800
N 	N 	0.16381 0.48285 0.26390 -0.27800
N 	N 	0.36906 0.34072 0.59710 -0.15500
Cl	Cl	0.81677 0.00076 0.39290 -0.55300
Zn	Zn	0.86497 0.00794 0.58132 1.19200
C 	C 	0.95563 0.95785 0.63720 0.11100
H 	H 	0.95870 0.97190 0.72790 -0.03100
C 	C 	0.93067 0.94030 0.42830 0.00200
H 	H 	0.91290 0.94000 0.34400 0.02000
C 	C 	0.96848 0.91350 0.45220 -0.00200
H 	H 	0.98160 0.89100 0.38990 0.02900
C 	C 	0.02336 0.90428 0.66380 0.07300
C 	C 	0.05238 0.93228 0.74600 -0.07400
H 	H 	0.04810 0.96550 0.74820 0.05100
C 	C 	0.08757 0.91174 0.82490 -0.09300
H 	H 	0.10680 0.93120 0.88150 0.06800
C 	C 	0.09518 0.86272 0.82220 0.09800
C 	C 	0.06616 0.83498 0.73530 -0.09100
H 	H 	0.07120 0.80200 0.72920 0.06800
C 	C 	0.03022 0.85548 0.65810 -0.06300
H 	H 	0.01060 0.83630 0.60210 0.05500
C 	C 	0.29662 0.95910 0.22650 0.10600
H 	H 	0.27710 0.95240 0.30460 -0.01800
C 	C 	0.35390 0.98420 0.09910 0.01700
H 	H 	0.38220 0.99840 0.07220 0.00400
C 	C 	0.32428 0.96210 0.01030 -0.01000
H 	H 	0.32780 0.95830 0.91100 0.05800
C 	C 	0.24830 0.91891 0.04140 0.09300
C 	C 	0.22486 0.88886 0.13680 -0.07900
H 	H 	0.23510 0.88580 0.23180 0.05600
C 	C 	0.18642 0.86377 0.08930 -0.08700
H 	H 	0.17050 0.84380 0.15330 0.06900
C 	C 	0.17093 0.86756 0.94850 0.09200
C 	C 	0.19476 0.89655 0.85730 -0.07400
H 	H 	0.18510 0.89890 0.76160 0.07400
C 	C 	0.23307 0.92280 0.90320 -0.08300
H 	H 	0.24850 0.94320 0.83920 0.10000
C 	C 	0.13104 0.61427 0.06530 0.10500
H 	H 	0.15520 0.61500 0.99750 -0.01700
C 	C 	0.08030 0.58975 0.21800 0.00400
H 	H 	0.06270 0.56950 0.27700 0.00700
C 	C 	0.07569 0.63740 0.20990 0.00100
H 	H 	0.05430 0.65630 0.26050 0.02800
C 	C 	0.11483 0.70148 0.06450 0.08500
C 	C 	0.07733 0.73286 0.06650 -0.07100
H 	H 	0.04850 0.72310 0.10360 0.05500
C 	C 	0.08276 0.77869 0.01340 -0.08900
H 	H 	0.05760 0.80000 0.01540 0.06200
C 	C 	0.12521 0.79321 0.95750 0.09400
C 	C 	0.16261 0.76163 0.95570 -0.08000
H 	H 	0.19130 0.77130 0.91760 0.06400
C 	C 	0.15756 0.71608 0.00980 -0.07600
H 	H 	0.18290 0.69500 0.00960 0.05800
N 	N 	0.92190 0.96817 0.54580 -0.28000
N 	N 	0.98420 0.92565 0.58570 -0.14200
N 	N 	0.11517 0.57537 0.12530 -0.27800
N 	N 	0.10846 0.65304 0.11280 -0.13900
N 	N 	0.28783 0.94586 0.09180 -0.13700
N 	N 	0.33619 0.98285 0.23610 -0.27800
N 	N 	0.13094 0.84072 0.90290 -0.15600
