data_crystal

_cell_length_a 12.97060
_cell_length_b 12.97060
_cell_length_c 17.61500
_cell_angle_alpha 90.00000
_cell_angle_beta  90.00000
_cell_angle_gamma 120.00000

_symmetry_space_group_name_	'P 1'
_symmetry_space_group_name_H-M	'P 1'

loop_
_symmetry_equiv_pos_as_xyz
  x,y,z

loop_
_atom_site_label
_atom_site_type_symbol
_atom_site_fract_x
_atom_site_fract_y
_atom_site_fract_z
_atom_site_charge
C 	C 	0.87730 0.33090 0.13920 0.46000
C 	C 	0.90100 0.28400 0.21200 -0.32600
H 	H 	0.95800 0.34930 0.24340 0.18300
H 	H 	0.93070 0.23070 0.20150 0.16200
O 	O 	0.94630 0.35230 0.08490 -0.46600
O 	O 	0.82240 0.38440 0.15300 -0.51100
C 	C 	0.81900 0.19000 0.17200 -0.01600
H 	H 	0.75180 0.13280 0.14220 0.00700
H 	H 	0.87750 0.16540 0.17760 -0.01400
C 	C 	0.66910 0.54640 0.13920 0.44300
C 	C 	0.71600 0.61700 0.21200 -0.20800
H 	H 	0.65070 0.60870 0.24340 0.07600
H 	H 	0.76930 0.70000 0.20150 0.10000
O 	O 	0.64770 0.59400 0.08490 -0.48800
O 	O 	0.61560 0.43800 0.15300 -0.51600
C 	C 	0.81000 0.62900 0.17200 -0.11400
H 	H 	0.86720 0.61900 0.14220 0.07700
H 	H 	0.83460 0.71210 0.17760 0.05300
C 	C 	0.45360 0.12270 0.13920 0.41200
C 	C 	0.38300 0.09900 0.21200 -0.09800
H 	H 	0.39130 0.04200 0.24340 -0.02600
H 	H 	0.30000 0.06930 0.20150 0.03500
O 	O 	0.40600 0.05370 0.08490 -0.52000
O 	O 	0.56200 0.17760 0.15300 -0.51800
C 	C 	0.37100 0.18100 0.17200 -0.15100
H 	H 	0.38100 0.24820 0.14220 0.06400
H 	H 	0.28790 0.12250 0.17760 0.04600
C 	C 	0.12270 0.66910 0.13920 0.41600
C 	C 	0.09900 0.71600 0.21200 -0.09400
H 	H 	0.04200 0.65070 0.24340 -0.02700
H 	H 	0.06930 0.76930 0.20150 0.03600
O 	O 	0.05370 0.64770 0.08490 -0.51300
O 	O 	0.17760 0.61560 0.15300 -0.51900
C 	C 	0.18100 0.81000 0.17200 -0.17100
H 	H 	0.24820 0.86720 0.14220 0.09300
H 	H 	0.12250 0.83460 0.17760 0.07100
C 	C 	0.33090 0.45360 0.13920 0.43400
C 	C 	0.28400 0.38300 0.21200 -0.21500
H 	H 	0.34930 0.39130 0.24340 0.07800
H 	H 	0.23070 0.30000 0.20150 0.09800
O 	O 	0.35230 0.40600 0.08490 -0.50200
O 	O 	0.38440 0.56200 0.15300 -0.51500
C 	C 	0.19000 0.37100 0.17200 -0.07400
H 	H 	0.13280 0.38100 0.14220 0.02100
H 	H 	0.16540 0.28790 0.17760 0.00300
C 	C 	0.54640 0.87730 0.13920 0.46300
C 	C 	0.61700 0.90100 0.21200 -0.32300
H 	H 	0.60870 0.95800 0.24340 0.18100
H 	H 	0.70000 0.93070 0.20150 0.16200
O 	O 	0.59400 0.94630 0.08490 -0.46000
O 	O 	0.43800 0.82240 0.15300 -0.51100
C 	C 	0.62900 0.81900 0.17200 -0.03600
H 	H 	0.61900 0.75180 0.14220 0.03400
H 	H 	0.71210 0.87750 0.17760 0.01100
C 	C 	0.33090 0.87730 0.36080 0.45300
C 	C 	0.28400 0.90100 0.28800 -0.31700
H 	H 	0.34930 0.95800 0.25660 0.17700
H 	H 	0.23070 0.93070 0.29850 0.15800
O 	O 	0.35230 0.94630 0.41510 -0.41900
O 	O 	0.38440 0.82240 0.34700 -0.49400
C 	C 	0.19000 0.81900 0.32800 -0.02100
H 	H 	0.13280 0.75180 0.35780 0.02200
H 	H 	0.16540 0.87750 0.32240 -0.00300
C 	C 	0.54640 0.66910 0.36080 0.43800
C 	C 	0.61700 0.71600 0.28800 -0.19700
H 	H 	0.60870 0.65070 0.25660 0.07100
H 	H 	0.70000 0.76930 0.29850 0.09700
O 	O 	0.59400 0.64770 0.41510 -0.43900
O 	O 	0.43800 0.61560 0.34700 -0.49900
C 	C 	0.62900 0.81000 0.32800 -0.11800
H 	H 	0.61900 0.86720 0.35780 0.09300
H 	H 	0.71210 0.83460 0.32240 0.06400
C 	C 	0.12270 0.45360 0.36080 0.40600
C 	C 	0.09900 0.38300 0.28800 -0.08800
H 	H 	0.04200 0.39130 0.25660 -0.03200
H 	H 	0.06930 0.30000 0.29850 0.03100
O 	O 	0.05370 0.40600 0.41510 -0.47100
O 	O 	0.17760 0.56200 0.34700 -0.50100
C 	C 	0.18100 0.37100 0.32800 -0.15500
H 	H 	0.24820 0.38100 0.35780 0.08000
H 	H 	0.12250 0.28790 0.32240 0.05700
C 	C 	0.66910 0.12270 0.36080 0.41100
C 	C 	0.71600 0.09900 0.28800 -0.08400
H 	H 	0.65070 0.04200 0.25660 -0.03200
H 	H 	0.76930 0.06930 0.29850 0.03200
O 	O 	0.64770 0.05370 0.41510 -0.46400
O 	O 	0.61560 0.17760 0.34700 -0.50100
C 	C 	0.81000 0.18100 0.32800 -0.17500
H 	H 	0.86720 0.24820 0.35780 0.10900
H 	H 	0.83460 0.12250 0.32240 0.08200
C 	C 	0.45360 0.33090 0.36080 0.42900
C 	C 	0.38300 0.28400 0.28800 -0.20400
H 	H 	0.39130 0.34930 0.25660 0.07300
H 	H 	0.30000 0.23070 0.29850 0.09400
O 	O 	0.40600 0.35230 0.41510 -0.45300
O 	O 	0.56200 0.38440 0.34700 -0.49800
C 	C 	0.37100 0.19000 0.32800 -0.07800
H 	H 	0.38100 0.13280 0.35780 0.03800
H 	H 	0.28790 0.16540 0.32240 0.01500
C 	C 	0.87730 0.54640 0.36080 0.45800
C 	C 	0.90100 0.61700 0.28800 -0.31300
H 	H 	0.95800 0.60870 0.25660 0.17500
H 	H 	0.93070 0.70000 0.29850 0.15900
O 	O 	0.94630 0.59400 0.41510 -0.41200
O 	O 	0.82240 0.43800 0.34700 -0.49400
C 	C 	0.81900 0.62900 0.32800 -0.04000
H 	H 	0.75180 0.61900 0.35780 0.05000
H 	H 	0.87750 0.71210 0.32240 0.02200
C 	C 	0.12270 0.66910 0.86080 0.40200
C 	C 	0.09900 0.71600 0.78800 -0.07300
H 	H 	0.04200 0.65070 0.75660 -0.03500
H 	H 	0.06930 0.76930 0.79850 0.03000
O 	O 	0.05370 0.64770 0.91510 -0.39400
O 	O 	0.17760 0.61560 0.84700 -0.47700
C 	C 	0.18100 0.81000 0.82800 -0.17900
H 	H 	0.24820 0.86720 0.85780 0.12700
H 	H 	0.12250 0.83460 0.82240 0.09400
C 	C 	0.33090 0.45360 0.86080 0.41900
C 	C 	0.28400 0.38300 0.78800 -0.19100
H 	H 	0.34930 0.39130 0.75660 0.06900
H 	H 	0.23070 0.30000 0.79850 0.09100
O 	O 	0.35230 0.40600 0.91510 -0.38200
O 	O 	0.38440 0.56200 0.84700 -0.47400
C 	C 	0.19000 0.37100 0.82800 -0.08500
H 	H 	0.13280 0.38100 0.85780 0.05800
H 	H 	0.16540 0.28790 0.82240 0.03000
C 	C 	0.54640 0.87730 0.86080 0.44800
C 	C 	0.61700 0.90100 0.78800 -0.29800
H 	H 	0.60870 0.95800 0.75660 0.16900
H 	H 	0.70000 0.93070 0.79850 0.15400
O 	O 	0.59400 0.94630 0.91510 -0.34400
O 	O 	0.43800 0.82240 0.84700 -0.47000
C 	C 	0.62900 0.81900 0.82800 -0.04700
H 	H 	0.61900 0.75180 0.85780 0.07000
H 	H 	0.71210 0.87750 0.82240 0.03600
C 	C 	0.87730 0.33090 0.86080 0.44300
C 	C 	0.90100 0.28400 0.78800 -0.30100
H 	H 	0.95800 0.34930 0.75660 0.17000
H 	H 	0.93070 0.23070 0.79850 0.15300
O 	O 	0.94630 0.35230 0.91510 -0.35100
O 	O 	0.82240 0.38440 0.84700 -0.47000
C 	C 	0.81900 0.19000 0.82800 -0.02800
H 	H 	0.75180 0.13280 0.85780 0.04300
H 	H 	0.87750 0.16540 0.82240 0.01200
C 	C 	0.66910 0.54640 0.86080 0.42800
C 	C 	0.71600 0.61700 0.78800 -0.18400
H 	H 	0.65070 0.60870 0.75660 0.06700
H 	H 	0.76930 0.70000 0.79850 0.09300
O 	O 	0.64770 0.59400 0.91510 -0.36900
O 	O 	0.61560 0.43800 0.84700 -0.47500
C 	C 	0.81000 0.62900 0.82800 -0.12300
H 	H 	0.86720 0.61900 0.85780 0.11200
H 	H 	0.83460 0.71210 0.82240 0.07700
C 	C 	0.45360 0.12270 0.86080 0.39800
C 	C 	0.38300 0.09900 0.78800 -0.07800
H 	H 	0.39130 0.04200 0.75660 -0.03300
H 	H 	0.30000 0.06930 0.79850 0.03000
O 	O 	0.40600 0.05370 0.91510 -0.40000
O 	O 	0.56200 0.17760 0.84700 -0.47700
C 	C 	0.37100 0.18100 0.82800 -0.15900
H 	H 	0.38100 0.24820 0.85780 0.10000
H 	H 	0.28790 0.12250 0.82240 0.07100
C 	C 	0.66910 0.12270 0.63920 0.41200
C 	C 	0.71600 0.09900 0.71200 -0.08900
H 	H 	0.65070 0.04200 0.74340 -0.02700
H 	H 	0.76930 0.06930 0.70150 0.03600
O 	O 	0.64770 0.05370 0.58490 -0.46500
O 	O 	0.61560 0.17760 0.65300 -0.50200
C 	C 	0.81000 0.18100 0.67200 -0.17300
H 	H 	0.86720 0.24820 0.64220 0.10800
H 	H 	0.83460 0.12250 0.67760 0.08200
C 	C 	0.45360 0.33090 0.63920 0.42900
C 	C 	0.38300 0.28400 0.71200 -0.20800
H 	H 	0.39130 0.34930 0.74340 0.07700
H 	H 	0.30000 0.23070 0.70150 0.09700
O 	O 	0.40600 0.35230 0.58490 -0.45300
O 	O 	0.56200 0.38440 0.65300 -0.49900
C 	C 	0.37100 0.19000 0.67200 -0.07800
H 	H 	0.38100 0.13280 0.64220 0.03800
H 	H 	0.28790 0.16540 0.67760 0.01600
C 	C 	0.87730 0.54640 0.63920 0.45800
C 	C 	0.90100 0.61700 0.71200 -0.31300
H 	H 	0.95800 0.60870 0.74340 0.17700
H 	H 	0.93070 0.70000 0.70150 0.16000
O 	O 	0.94630 0.59400 0.58490 -0.41300
O 	O 	0.82240 0.43800 0.65300 -0.49500
C 	C 	0.81900 0.62900 0.67200 -0.04100
H 	H 	0.75180 0.61900 0.64220 0.05000
H 	H 	0.87750 0.71210 0.67760 0.02300
C 	C 	0.33090 0.87730 0.63920 0.45300
C 	C 	0.28400 0.90100 0.71200 -0.31600
H 	H 	0.34930 0.95800 0.74340 0.17700
H 	H 	0.23070 0.93070 0.70150 0.15800
O 	O 	0.35230 0.94630 0.58490 -0.41900
O 	O 	0.38440 0.82240 0.65300 -0.49400
C 	C 	0.19000 0.81900 0.67200 -0.02200
H 	H 	0.13280 0.75180 0.64220 0.02300
H 	H 	0.16540 0.87750 0.67760 -0.00100
C 	C 	0.54640 0.66910 0.63920 0.43800
C 	C 	0.61700 0.71600 0.71200 -0.20000
H 	H 	0.60870 0.65070 0.74340 0.07500
H 	H 	0.70000 0.76930 0.70150 0.09900
O 	O 	0.59400 0.64770 0.58490 -0.43900
O 	O 	0.43800 0.61560 0.65300 -0.50000
C 	C 	0.62900 0.81000 0.67200 -0.11700
H 	H 	0.61900 0.86720 0.64220 0.09300
H 	H 	0.71210 0.83460 0.67760 0.06500
C 	C 	0.12270 0.45360 0.63920 0.40800
C 	C 	0.09900 0.38300 0.71200 -0.09400
H 	H 	0.04200 0.39130 0.74340 -0.02500
H 	H 	0.06930 0.30000 0.70150 0.03500
O 	O 	0.05370 0.40600 0.58490 -0.47100
O 	O 	0.17760 0.56200 0.65300 -0.50200
C 	C 	0.18100 0.37100 0.67200 -0.15300
H 	H 	0.24820 0.38100 0.64220 0.08000
H 	H 	0.12250 0.28790 0.67760 0.05700
Pr	Pr	0.66667 0.33333 0.25000 2.09500
Pr	Pr	0.33333 0.66667 0.25000 2.09500
Pr	Pr	0.33333 0.66667 0.75000 2.09600
Pr	Pr	0.66667 0.33333 0.75000 2.09600
O 	O 	0.78030 0.21970 0.25000 -0.23800
O 	O 	0.78030 0.56060 0.25000 -0.22400
O 	O 	0.43940 0.21970 0.25000 -0.25200
O 	O 	0.21970 0.78030 0.25000 -0.23800
O 	O 	0.21970 0.43940 0.25000 -0.25200
O 	O 	0.56060 0.78030 0.25000 -0.22400
O 	O 	0.21970 0.78030 0.75000 -0.24000
O 	O 	0.21970 0.43940 0.75000 -0.25300
O 	O 	0.56060 0.78030 0.75000 -0.22600
O 	O 	0.78030 0.21970 0.75000 -0.24000
O 	O 	0.78030 0.56060 0.75000 -0.22600
O 	O 	0.43940 0.21970 0.75000 -0.25300
Cd	Cd	-0.00000 0.50000 -0.00000 1.14600
Cd	Cd	0.50000 0.50000 -0.00000 1.17000
Cd	Cd	0.50000 0.00000 -0.00000 1.14600
Cd	Cd	0.50000 -0.00000 0.50000 1.20200
Cd	Cd	0.50000 0.50000 0.50000 1.22700
Cd	Cd	-0.00000 0.50000 0.50000 1.20200
