data_crystal

_cell_length_a 12.76950
_cell_length_b 12.76950
_cell_length_c 17.72700
_cell_angle_alpha 90.00000
_cell_angle_beta  90.00000
_cell_angle_gamma 120.00000

_symmetry_space_group_name_	'P 1'
_symmetry_space_group_name_H-M	'P 1'

loop_
_symmetry_equiv_pos_as_xyz
  x,y,z

loop_
_atom_site_label
_atom_site_type_symbol
_atom_site_fract_x
_atom_site_fract_y
_atom_site_fract_z
_atom_site_charge
O 	O 	0.94060 0.34960 0.08460 -0.45800
O 	O 	0.82010 0.38750 0.15440 -0.50100
C 	C 	0.87300 0.33090 0.14050 0.42600
C 	C 	0.82400 0.20200 0.17740 -0.17500
H 	H 	0.75950 0.13940 0.14770 0.05600
H 	H 	0.88810 0.18320 0.18410 0.11500
C 	C 	0.89900 0.27700 0.20970 -0.03500
H 	H 	0.92100 0.21780 0.19590 -0.02400
H 	H 	0.96220 0.33980 0.24030 0.08200
O 	O 	0.65040 0.59100 0.08460 -0.48500
O 	O 	0.61250 0.43260 0.15440 -0.51400
C 	C 	0.66910 0.54210 0.14050 0.43000
C 	C 	0.79800 0.62200 0.17740 -0.09800
H 	H 	0.86060 0.62010 0.14770 0.07200
H 	H 	0.81680 0.70490 0.18410 0.04600
C 	C 	0.72300 0.62200 0.20970 -0.11100
H 	H 	0.78220 0.70320 0.19590 0.05300
H 	H 	0.66020 0.62240 0.24030 0.04600
O 	O 	0.40900 0.05940 0.08460 -0.52300
O 	O 	0.56740 0.17990 0.15440 -0.51900
C 	C 	0.45790 0.12700 0.14050 0.41200
C 	C 	0.37800 0.17600 0.17740 -0.06900
H 	H 	0.37990 0.24050 0.14770 0.03500
H 	H 	0.29510 0.11190 0.18410 -0.00200
C 	C 	0.37800 0.10100 0.20970 -0.09900
H 	H 	0.29680 0.07900 0.19590 0.04900
H 	H 	0.37760 0.03780 0.24030 -0.01400
O 	O 	0.05940 0.65040 0.08460 -0.51600
O 	O 	0.17990 0.61250 0.15440 -0.52100
C 	C 	0.12700 0.66910 0.14050 0.41900
C 	C 	0.17600 0.79800 0.17740 -0.05300
H 	H 	0.24050 0.86060 0.14770 0.05400
H 	H 	0.11190 0.81680 0.18410 -0.00900
C 	C 	0.10100 0.72300 0.20970 -0.12900
H 	H 	0.07900 0.78220 0.19590 0.07600
H 	H 	0.03780 0.66020 0.24030 -0.00600
O 	O 	0.34960 0.40900 0.08460 -0.49900
O 	O 	0.38750 0.56740 0.15440 -0.51100
C 	C 	0.33090 0.45790 0.14050 0.41700
C 	C 	0.20200 0.37800 0.17740 -0.13000
H 	H 	0.13940 0.37990 0.14770 0.03600
H 	H 	0.18320 0.29510 0.18410 0.06000
C 	C 	0.27700 0.37800 0.20970 -0.05300
H 	H 	0.21780 0.29680 0.19590 -0.00100
H 	H 	0.33980 0.37760 0.24030 0.02900
O 	O 	0.59100 0.94060 0.08460 -0.45100
O 	O 	0.43260 0.82010 0.15440 -0.50200
C 	C 	0.54210 0.87300 0.14050 0.43200
C 	C 	0.62200 0.82400 0.17740 -0.15900
H 	H 	0.62010 0.75950 0.14770 0.07300
H 	H 	0.70490 0.88810 0.18410 0.10700
C 	C 	0.62200 0.89900 0.20970 -0.06400
H 	H 	0.70320 0.92100 0.19590 0.00300
H 	H 	0.62240 0.96220 0.24030 0.09000
O 	O 	0.34960 0.94060 0.41540 -0.40900
O 	O 	0.38750 0.82010 0.34560 -0.48500
C 	C 	0.33090 0.87300 0.35950 0.42300
C 	C 	0.20200 0.82400 0.32260 -0.16500
H 	H 	0.13940 0.75950 0.35230 0.06600
H 	H 	0.18320 0.88810 0.31590 0.11600
C 	C 	0.27700 0.89900 0.29030 -0.04200
H 	H 	0.21780 0.92100 0.30410 -0.01900
H 	H 	0.33980 0.96220 0.25970 0.08600
O 	O 	0.59100 0.65040 0.41540 -0.43600
O 	O 	0.43260 0.61250 0.34560 -0.49700
C 	C 	0.54210 0.66910 0.35950 0.42600
C 	C 	0.62200 0.79800 0.32260 -0.08800
H 	H 	0.62010 0.86060 0.35230 0.08300
H 	H 	0.70490 0.81680 0.31590 0.04700
C 	C 	0.62200 0.72300 0.29030 -0.11800
H 	H 	0.70320 0.78220 0.30410 0.05800
H 	H 	0.62240 0.66020 0.25970 0.05000
O 	O 	0.05940 0.40900 0.41540 -0.47400
O 	O 	0.17990 0.56740 0.34560 -0.50300
C 	C 	0.12700 0.45790 0.35950 0.40900
C 	C 	0.17600 0.37800 0.32260 -0.05900
H 	H 	0.24050 0.37990 0.35230 0.04500
H 	H 	0.11190 0.29510 0.31590 -0.00100
C 	C 	0.10100 0.37800 0.29030 -0.10700
H 	H 	0.07900 0.29680 0.30410 0.05400
H 	H 	0.03780 0.37760 0.25970 -0.01100
O 	O 	0.65040 0.05940 0.41540 -0.46800
O 	O 	0.61250 0.17990 0.34560 -0.50500
C 	C 	0.66910 0.12700 0.35950 0.41500
C 	C 	0.79800 0.17600 0.32260 -0.04300
H 	H 	0.86060 0.24050 0.35230 0.06400
H 	H 	0.81680 0.11190 0.31590 -0.00800
C 	C 	0.72300 0.10100 0.29030 -0.13600
H 	H 	0.78220 0.07900 0.30410 0.08100
H 	H 	0.66020 0.03780 0.25970 -0.00200
O 	O 	0.40900 0.34960 0.41540 -0.45000
O 	O 	0.56740 0.38750 0.34560 -0.49500
C 	C 	0.45790 0.33090 0.35950 0.41400
C 	C 	0.37800 0.20200 0.32260 -0.12000
H 	H 	0.37990 0.13940 0.35230 0.04700
H 	H 	0.29510 0.18320 0.31590 0.06100
C 	C 	0.37800 0.27700 0.29030 -0.06100
H 	H 	0.29680 0.21780 0.30410 0.00400
H 	H 	0.37760 0.33980 0.25970 0.03300
O 	O 	0.94060 0.59100 0.41540 -0.40300
O 	O 	0.82010 0.43260 0.34560 -0.48600
C 	C 	0.87300 0.54210 0.35950 0.42900
C 	C 	0.82400 0.62200 0.32260 -0.14900
H 	H 	0.75950 0.62010 0.35230 0.08400
H 	H 	0.88810 0.70490 0.31590 0.10900
C 	C 	0.89900 0.62200 0.29030 -0.07100
H 	H 	0.92100 0.70320 0.30410 0.00800
H 	H 	0.96220 0.62240 0.25970 0.09400
O 	O 	0.05940 0.65040 0.91540 -0.39700
O 	O 	0.17990 0.61250 0.84560 -0.48200
C 	C 	0.12700 0.66910 0.85950 0.40700
C 	C 	0.17600 0.79800 0.82260 -0.03100
H 	H 	0.24050 0.86060 0.85230 0.07600
H 	H 	0.11190 0.81680 0.81590 -0.00800
C 	C 	0.10100 0.72300 0.79030 -0.14300
H 	H 	0.07900 0.78220 0.80410 0.08800
H 	H 	0.03780 0.66020 0.75970 0.00100
O 	O 	0.34960 0.40900 0.91540 -0.37800
O 	O 	0.38750 0.56740 0.84560 -0.47300
C 	C 	0.33090 0.45790 0.85950 0.40600
C 	C 	0.20200 0.37800 0.82260 -0.10700
H 	H 	0.13940 0.37990 0.85230 0.06000
H 	H 	0.18320 0.29510 0.81590 0.06100
C 	C 	0.27700 0.37800 0.79030 -0.06900
H 	H 	0.21780 0.29680 0.80410 0.01400
H 	H 	0.33980 0.37760 0.75970 0.03600
O 	O 	0.59100 0.94060 0.91540 -0.33300
O 	O 	0.43260 0.82010 0.84560 -0.46500
C 	C 	0.54210 0.87300 0.85950 0.42100
C 	C 	0.62200 0.82400 0.82260 -0.13500
H 	H 	0.62010 0.75950 0.85230 0.09600
H 	H 	0.70490 0.88810 0.81590 0.10700
C 	C 	0.62200 0.89900 0.79030 -0.07900
H 	H 	0.70320 0.92100 0.80410 0.01700
H 	H 	0.62240 0.96220 0.75970 0.09500
O 	O 	0.94060 0.34960 0.91540 -0.34000
O 	O 	0.82010 0.38750 0.84560 -0.46300
C 	C 	0.87300 0.33090 0.85950 0.41500
C 	C 	0.82400 0.20200 0.82260 -0.15100
H 	H 	0.75950 0.13940 0.85230 0.07800
H 	H 	0.88810 0.18320 0.81590 0.11400
C 	C 	0.89900 0.27700 0.79030 -0.05100
H 	H 	0.92100 0.21780 0.80410 -0.00900
H 	H 	0.96220 0.33980 0.75970 0.08700
O 	O 	0.65040 0.59100 0.91540 -0.36500
O 	O 	0.61250 0.43260 0.84560 -0.47500
C 	C 	0.66910 0.54210 0.85950 0.41800
C 	C 	0.79800 0.62200 0.82260 -0.07600
H 	H 	0.86060 0.62010 0.85230 0.09500
H 	H 	0.81680 0.70490 0.81590 0.04700
C 	C 	0.72300 0.62200 0.79030 -0.12500
H 	H 	0.78220 0.70320 0.80410 0.06600
H 	H 	0.66020 0.62240 0.75970 0.05200
O 	O 	0.40900 0.05940 0.91540 -0.40200
O 	O 	0.56740 0.17990 0.84560 -0.48100
C 	C 	0.45790 0.12700 0.85950 0.40100
C 	C 	0.37800 0.17600 0.82260 -0.04700
H 	H 	0.37990 0.24050 0.85230 0.05900
H 	H 	0.29510 0.11190 0.81590 0.00000
C 	C 	0.37800 0.10100 0.79030 -0.11400
H 	H 	0.29680 0.07900 0.80410 0.06200
H 	H 	0.37760 0.03780 0.75970 -0.00700
O 	O 	0.65040 0.05940 0.58460 -0.46800
O 	O 	0.61250 0.17990 0.65440 -0.50600
C 	C 	0.66910 0.12700 0.64050 0.41500
C 	C 	0.79800 0.17600 0.67740 -0.04300
H 	H 	0.86060 0.24050 0.64770 0.06400
H 	H 	0.81680 0.11190 0.68410 -0.00800
C 	C 	0.72300 0.10100 0.70970 -0.13600
H 	H 	0.78220 0.07900 0.69590 0.08300
H 	H 	0.66020 0.03780 0.74030 -0.00300
O 	O 	0.40900 0.34960 0.58460 -0.45000
O 	O 	0.56740 0.38750 0.65440 -0.49600
C 	C 	0.45790 0.33090 0.64050 0.41300
C 	C 	0.37800 0.20200 0.67740 -0.11900
H 	H 	0.37990 0.13940 0.64770 0.04700
H 	H 	0.29510 0.18320 0.68410 0.06000
C 	C 	0.37800 0.27700 0.70970 -0.06100
H 	H 	0.29680 0.21780 0.69590 0.00700
H 	H 	0.37760 0.33980 0.74030 0.03200
O 	O 	0.94060 0.59100 0.58460 -0.40300
O 	O 	0.82010 0.43260 0.65440 -0.48700
C 	C 	0.87300 0.54210 0.64050 0.42800
C 	C 	0.82400 0.62200 0.67740 -0.14700
H 	H 	0.75950 0.62010 0.64770 0.08300
H 	H 	0.88810 0.70490 0.68410 0.10700
C 	C 	0.89900 0.62200 0.70970 -0.07200
H 	H 	0.92100 0.70320 0.69590 0.01100
H 	H 	0.96220 0.62240 0.74030 0.09100
O 	O 	0.34960 0.94060 0.58460 -0.40900
O 	O 	0.38750 0.82010 0.65440 -0.48600
C 	C 	0.33090 0.87300 0.64050 0.42200
C 	C 	0.20200 0.82400 0.67740 -0.16300
H 	H 	0.13940 0.75950 0.64770 0.06600
H 	H 	0.18320 0.88810 0.68410 0.11400
C 	C 	0.27700 0.89900 0.70970 -0.04300
H 	H 	0.21780 0.92100 0.69590 -0.01500
H 	H 	0.33980 0.96220 0.74030 0.08300
O 	O 	0.59100 0.65040 0.58460 -0.43600
O 	O 	0.43260 0.61250 0.65440 -0.49800
C 	C 	0.54210 0.66910 0.64050 0.42600
C 	C 	0.62200 0.79800 0.67740 -0.08800
H 	H 	0.62010 0.86060 0.64770 0.08300
H 	H 	0.70490 0.81680 0.68410 0.04700
C 	C 	0.62200 0.72300 0.70970 -0.11800
H 	H 	0.70320 0.78220 0.69590 0.06000
H 	H 	0.62240 0.66020 0.74030 0.04800
O 	O 	0.05940 0.40900 0.58460 -0.47400
O 	O 	0.17990 0.56740 0.65440 -0.50400
C 	C 	0.12700 0.45790 0.64050 0.40900
C 	C 	0.17600 0.37800 0.67740 -0.05900
H 	H 	0.24050 0.37990 0.64770 0.04600
H 	H 	0.11190 0.29510 0.68410 -0.00000
C 	C 	0.10100 0.37800 0.70970 -0.10600
H 	H 	0.07900 0.29680 0.69590 0.05600
H 	H 	0.03780 0.37760 0.74030 -0.01100
Eu	Eu	0.66667 0.33333 0.25000 2.09300
Eu	Eu	0.33333 0.66667 0.25000 2.09300
Eu	Eu	0.33333 0.66667 0.75000 2.10000
Eu	Eu	0.66667 0.33333 0.75000 2.10000
Cd	Cd	-0.00000 0.50000 -0.00000 1.14000
Cd	Cd	0.50000 0.50000 -0.00000 1.16800
Cd	Cd	0.50000 0.00000 -0.00000 1.14000
Cd	Cd	0.50000 0.00000 0.50000 1.19700
Cd	Cd	0.50000 0.50000 0.50000 1.22500
Cd	Cd	-0.00000 0.50000 0.50000 1.19700
O 	O 	0.77980 0.22020 0.25000 -0.26600
O 	O 	0.77980 0.55960 0.25000 -0.25600
O 	O 	0.44040 0.22020 0.25000 -0.27500
O 	O 	0.22020 0.77980 0.25000 -0.26600
O 	O 	0.22020 0.44040 0.25000 -0.27500
O 	O 	0.55960 0.77980 0.25000 -0.25600
O 	O 	0.22020 0.77980 0.75000 -0.26800
O 	O 	0.22020 0.44040 0.75000 -0.27700
O 	O 	0.55960 0.77980 0.75000 -0.25800
O 	O 	0.77980 0.22020 0.75000 -0.26800
O 	O 	0.77980 0.55960 0.75000 -0.25800
O 	O 	0.44040 0.22020 0.75000 -0.27700
