data_crystal

_cell_length_a 12.83260
_cell_length_b 12.83260
_cell_length_c 17.75600
_cell_angle_alpha 90.00000
_cell_angle_beta  90.00000
_cell_angle_gamma 120.00000

_symmetry_space_group_name_	'P 1'
_symmetry_space_group_name_H-M	'P 1'

loop_
_symmetry_equiv_pos_as_xyz
  x,y,z

loop_
_atom_site_label
_atom_site_type_symbol
_atom_site_fract_x
_atom_site_fract_y
_atom_site_fract_z
_atom_site_charge
O 	O 	0.81990 0.38690 0.15420 -0.49600
C 	C 	0.87320 0.32860 0.13980 0.39800
C 	C 	0.82300 0.20000 0.17930 -0.24300
O 	O 	0.94120 0.34900 0.08450 -0.44900
H 	H 	0.75820 0.13640 0.15040 0.07500
H 	H 	0.88630 0.18040 0.18670 0.17800
C 	C 	0.89900 0.27900 0.20740 0.04900
H 	H 	0.96200 0.34290 0.23730 0.05100
H 	H 	0.92310 0.22130 0.19410 -0.09000
O 	O 	0.61310 0.43300 0.15420 -0.51200
C 	C 	0.67140 0.54460 0.13980 0.41200
C 	C 	0.80000 0.62300 0.17930 -0.13300
O 	O 	0.65100 0.59220 0.08450 -0.48100
H 	H 	0.86360 0.62180 0.15040 0.08200
H 	H 	0.81960 0.70590 0.18670 0.09700
C 	C 	0.72100 0.62000 0.20740 -0.07200
H 	H 	0.65710 0.61910 0.23730 0.03600
H 	H 	0.77870 0.70180 0.19410 -0.00100
O 	O 	0.56700 0.18010 0.15420 -0.51900
C 	C 	0.45540 0.12680 0.13980 0.39500
C 	C 	0.37700 0.17700 0.17930 -0.10500
O 	O 	0.40780 0.05880 0.08450 -0.52000
H 	H 	0.37820 0.24180 0.15040 0.04300
H 	H 	0.29410 0.11370 0.18670 0.05700
C 	C 	0.38000 0.10100 0.20740 -0.06300
H 	H 	0.38090 0.03800 0.23730 -0.01400
H 	H 	0.29820 0.07690 0.19410 -0.01300
O 	O 	0.18010 0.61310 0.15420 -0.52100
C 	C 	0.12680 0.67140 0.13980 0.40500
C 	C 	0.17700 0.80000 0.17930 -0.07700
O 	O 	0.05880 0.65100 0.08450 -0.51400
H 	H 	0.24180 0.86360 0.15040 0.05900
H 	H 	0.11370 0.81960 0.18670 0.04300
C 	C 	0.10100 0.72100 0.20740 -0.10700
H 	H 	0.03800 0.65710 0.23730 -0.00100
H 	H 	0.07690 0.77870 0.19410 0.02100
O 	O 	0.38690 0.56700 0.15420 -0.50800
C 	C 	0.32860 0.45540 0.13980 0.39300
C 	C 	0.20000 0.37700 0.17930 -0.18800
O 	O 	0.34900 0.40780 0.08450 -0.49300
H 	H 	0.13640 0.37820 0.15040 0.05200
H 	H 	0.18040 0.29410 0.18670 0.12400
C 	C 	0.27900 0.38000 0.20740 0.01300
H 	H 	0.34290 0.38090 0.23730 0.01300
H 	H 	0.22130 0.29820 0.19410 -0.06900
O 	O 	0.43300 0.81990 0.15420 -0.49900
C 	C 	0.54460 0.87320 0.13980 0.40600
C 	C 	0.62300 0.82300 0.17930 -0.21500
O 	O 	0.59220 0.94120 0.08450 -0.44400
H 	H 	0.62180 0.75820 0.15040 0.08900
H 	H 	0.70590 0.88630 0.18670 0.16400
C 	C 	0.62000 0.89900 0.20740 0.00600
H 	H 	0.61910 0.96200 0.23730 0.06300
H 	H 	0.70180 0.92310 0.19410 -0.05700
O 	O 	0.38690 0.81990 0.34580 -0.48100
C 	C 	0.32860 0.87320 0.36020 0.39500
C 	C 	0.20000 0.82300 0.32070 -0.23500
O 	O 	0.34900 0.94120 0.41550 -0.40100
H 	H 	0.13640 0.75820 0.34960 0.08500
H 	H 	0.18040 0.88630 0.31330 0.17900
C 	C 	0.27900 0.89900 0.29260 0.04300
H 	H 	0.34290 0.96200 0.26270 0.05400
H 	H 	0.22130 0.92310 0.30590 -0.08600
O 	O 	0.43300 0.61310 0.34580 -0.49600
C 	C 	0.54460 0.67140 0.36020 0.40900
C 	C 	0.62300 0.80000 0.32070 -0.12500
O 	O 	0.59220 0.65100 0.41550 -0.43200
H 	H 	0.62180 0.86360 0.34960 0.09300
H 	H 	0.70590 0.81960 0.31330 0.09900
C 	C 	0.62000 0.72100 0.29260 -0.07700
H 	H 	0.61910 0.65710 0.26270 0.03900
H 	H 	0.70180 0.77870 0.30590 0.00300
O 	O 	0.18010 0.56700 0.34580 -0.50300
C 	C 	0.12680 0.45540 0.36020 0.39300
C 	C 	0.17700 0.37700 0.32070 -0.09700
O 	O 	0.05880 0.40780 0.41550 -0.47100
H 	H 	0.24180 0.37820 0.34960 0.05400
H 	H 	0.11370 0.29410 0.31330 0.05900
C 	C 	0.10100 0.38000 0.29260 -0.06900
H 	H 	0.03800 0.38090 0.26270 -0.01100
H 	H 	0.07690 0.29820 0.30590 -0.00800
O 	O 	0.61310 0.18010 0.34580 -0.50500
C 	C 	0.67140 0.12680 0.36020 0.40200
C 	C 	0.80000 0.17700 0.32070 -0.06900
O 	O 	0.65100 0.05880 0.41550 -0.46600
H 	H 	0.86360 0.24180 0.34960 0.07000
H 	H 	0.81960 0.11370 0.31330 0.04500
C 	C 	0.72100 0.10100 0.29260 -0.11200
H 	H 	0.65710 0.03800 0.26270 0.00100
H 	H 	0.77870 0.07690 0.30590 0.02600
O 	O 	0.56700 0.38690 0.34580 -0.49200
C 	C 	0.45540 0.32860 0.36020 0.39000
C 	C 	0.37700 0.20000 0.32070 -0.18000
O 	O 	0.40780 0.34900 0.41550 -0.44400
H 	H 	0.37820 0.13640 0.34960 0.06200
H 	H 	0.29410 0.18040 0.31330 0.12600
C 	C 	0.38000 0.27900 0.29260 0.00800
H 	H 	0.38090 0.34290 0.26270 0.01600
H 	H 	0.29820 0.22130 0.30590 -0.06400
O 	O 	0.81990 0.43300 0.34580 -0.48300
C 	C 	0.87320 0.54460 0.36020 0.40400
C 	C 	0.82300 0.62300 0.32070 -0.20700
O 	O 	0.94120 0.59220 0.41550 -0.39600
H 	H 	0.75820 0.62180 0.34960 0.10000
H 	H 	0.88630 0.70590 0.31330 0.16600
C 	C 	0.89900 0.62000 0.29260 -0.00000
H 	H 	0.96200 0.61910 0.26270 0.06600
H 	H 	0.92310 0.70180 0.30590 -0.05200
O 	O 	0.18010 0.61310 0.84580 -0.48300
C 	C 	0.12680 0.67140 0.86020 0.39600
C 	C 	0.17700 0.80000 0.82070 -0.05700
O 	O 	0.05880 0.65100 0.91550 -0.39500
H 	H 	0.24180 0.86360 0.84960 0.08100
H 	H 	0.11370 0.81960 0.81330 0.04600
C 	C 	0.10100 0.72100 0.79260 -0.11900
H 	H 	0.03800 0.65710 0.76270 0.00400
H 	H 	0.07690 0.77870 0.80590 0.03300
O 	O 	0.38690 0.56700 0.84580 -0.47100
C 	C 	0.32860 0.45540 0.86020 0.38500
C 	C 	0.20000 0.37700 0.82070 -0.16600
O 	O 	0.34900 0.40780 0.91550 -0.37300
H 	H 	0.13640 0.37820 0.84960 0.07500
H 	H 	0.18040 0.29410 0.81330 0.12500
C 	C 	0.27900 0.38000 0.79260 -0.00100
H 	H 	0.34290 0.38090 0.76270 0.01900
H 	H 	0.22130 0.29820 0.80590 -0.05400
O 	O 	0.43300 0.81990 0.84580 -0.46200
C 	C 	0.54460 0.87320 0.86020 0.39800
C 	C 	0.62300 0.82300 0.82070 -0.19300
O 	O 	0.59220 0.94120 0.91550 -0.32800
H 	H 	0.62180 0.75820 0.84960 0.11100
H 	H 	0.70590 0.88630 0.81330 0.16400
C 	C 	0.62000 0.89900 0.79260 -0.00900
H 	H 	0.61910 0.96200 0.76270 0.06800
H 	H 	0.70180 0.92310 0.80590 -0.04300
O 	O 	0.81990 0.38690 0.84580 -0.46000
C 	C 	0.87320 0.32860 0.86020 0.38900
C 	C 	0.82300 0.20000 0.82070 -0.22000
O 	O 	0.94120 0.34900 0.91550 -0.33300
H 	H 	0.75820 0.13640 0.84960 0.09700
H 	H 	0.88630 0.18040 0.81330 0.17700
C 	C 	0.89900 0.27900 0.79260 0.03300
H 	H 	0.96200 0.34290 0.76270 0.05600
H 	H 	0.92310 0.22130 0.80590 -0.07600
O 	O 	0.61310 0.43300 0.84580 -0.47400
C 	C 	0.67140 0.54460 0.86020 0.40300
C 	C 	0.80000 0.62300 0.82070 -0.11200
O 	O 	0.65100 0.59220 0.91550 -0.36200
H 	H 	0.86360 0.62180 0.84960 0.10400
H 	H 	0.81960 0.70590 0.81330 0.09900
C 	C 	0.72100 0.62000 0.79260 -0.08400
H 	H 	0.65710 0.61910 0.76270 0.04200
H 	H 	0.77870 0.70180 0.80590 0.01200
O 	O 	0.56700 0.18010 0.84580 -0.48100
C 	C 	0.45540 0.12680 0.86020 0.38700
C 	C 	0.37700 0.17700 0.82070 -0.08500
O 	O 	0.40780 0.05880 0.91550 -0.40000
H 	H 	0.37820 0.24180 0.84960 0.06700
H 	H 	0.29410 0.11370 0.81330 0.05900
C 	C 	0.38000 0.10100 0.79260 -0.07700
H 	H 	0.38090 0.03800 0.76270 -0.00700
H 	H 	0.29820 0.07690 0.80590 0.00100
O 	O 	0.61310 0.18010 0.65420 -0.50600
C 	C 	0.67140 0.12680 0.63980 0.40200
C 	C 	0.80000 0.17700 0.67930 -0.06800
O 	O 	0.65100 0.05880 0.58450 -0.46600
H 	H 	0.86360 0.24180 0.65040 0.06900
H 	H 	0.81960 0.11370 0.68670 0.04500
C 	C 	0.72100 0.10100 0.70740 -0.11300
H 	H 	0.65710 0.03800 0.73730 0.00100
H 	H 	0.77870 0.07690 0.69410 0.02800
O 	O 	0.56700 0.38690 0.65420 -0.49400
C 	C 	0.45540 0.32860 0.63980 0.39100
C 	C 	0.37700 0.20000 0.67930 -0.17700
O 	O 	0.40780 0.34900 0.58450 -0.44400
H 	H 	0.37820 0.13640 0.65040 0.06200
H 	H 	0.29410 0.18040 0.68670 0.12400
C 	C 	0.38000 0.27900 0.70740 0.00500
H 	H 	0.38090 0.34290 0.73730 0.01500
H 	H 	0.29820 0.22130 0.69410 -0.06000
O 	O 	0.81990 0.43300 0.65420 -0.48400
C 	C 	0.87320 0.54460 0.63980 0.40400
C 	C 	0.82300 0.62300 0.67930 -0.20300
O 	O 	0.94120 0.59220 0.58450 -0.39600
H 	H 	0.75820 0.62180 0.65040 0.09900
H 	H 	0.88630 0.70590 0.68670 0.16400
C 	C 	0.89900 0.62000 0.70740 -0.00200
H 	H 	0.96200 0.61910 0.73730 0.06500
H 	H 	0.92310 0.70180 0.69410 -0.04900
O 	O 	0.38690 0.81990 0.65420 -0.48200
C 	C 	0.32860 0.87320 0.63980 0.39500
C 	C 	0.20000 0.82300 0.67930 -0.23000
O 	O 	0.34900 0.94120 0.58450 -0.40200
H 	H 	0.13640 0.75820 0.65040 0.08400
H 	H 	0.18040 0.88630 0.68670 0.17700
C 	C 	0.27900 0.89900 0.70740 0.04000
H 	H 	0.34290 0.96200 0.73730 0.05300
H 	H 	0.22130 0.92310 0.69410 -0.08200
O 	O 	0.43300 0.61310 0.65420 -0.49700
C 	C 	0.54460 0.67140 0.63980 0.40900
C 	C 	0.62300 0.80000 0.67930 -0.12300
O 	O 	0.59220 0.65100 0.58450 -0.43200
H 	H 	0.62180 0.86360 0.65040 0.09200
H 	H 	0.70590 0.81960 0.68670 0.09900
C 	C 	0.62000 0.72100 0.70740 -0.07800
H 	H 	0.61910 0.65710 0.73730 0.03900
H 	H 	0.70180 0.77870 0.69410 0.00600
O 	O 	0.18010 0.56700 0.65420 -0.50400
C 	C 	0.12680 0.45540 0.63980 0.39300
C 	C 	0.17700 0.37700 0.67930 -0.09500
O 	O 	0.05880 0.40780 0.58450 -0.47100
H 	H 	0.24180 0.37820 0.65040 0.05400
H 	H 	0.11370 0.29410 0.68670 0.05900
C 	C 	0.10100 0.38000 0.70740 -0.07000
H 	H 	0.03800 0.38090 0.73730 -0.01000
H 	H 	0.07690 0.29820 0.69410 -0.00600
Sm	Sm	0.66667 0.33333 0.25000 2.17800
Sm	Sm	0.33333 0.66667 0.25000 2.17800
Sm	Sm	0.33333 0.66667 0.75000 2.18700
Sm	Sm	0.66667 0.33333 0.75000 2.18700
O 	O 	0.78040 0.21960 0.25000 -0.27100
O 	O 	0.78040 0.56080 0.25000 -0.26100
O 	O 	0.43920 0.21960 0.25000 -0.28000
O 	O 	0.21960 0.78040 0.25000 -0.27100
O 	O 	0.21960 0.43920 0.25000 -0.28000
O 	O 	0.56080 0.78040 0.25000 -0.26100
O 	O 	0.21960 0.78040 0.75000 -0.27300
O 	O 	0.21960 0.43920 0.75000 -0.28200
O 	O 	0.56080 0.78040 0.75000 -0.26400
O 	O 	0.78040 0.21960 0.75000 -0.27300
O 	O 	0.78040 0.56080 0.75000 -0.26400
O 	O 	0.43920 0.21960 0.75000 -0.28200
Cd	Cd	-0.00000 0.50000 -0.00000 1.13800
Cd	Cd	0.50000 0.50000 -0.00000 1.16500
Cd	Cd	0.50000 0.00000 -0.00000 1.13800
Cd	Cd	0.50000 0.00000 0.50000 1.19400
Cd	Cd	0.50000 0.50000 0.50000 1.22200
Cd	Cd	-0.00000 0.50000 0.50000 1.19400
