data_crystal

_cell_length_a 12.70350
_cell_length_b 12.70350
_cell_length_c 25.43800
_cell_angle_alpha 90.00000
_cell_angle_beta  90.00000
_cell_angle_gamma 90.00000

_symmetry_space_group_name_	'P 1'
_symmetry_space_group_name_H-M	'P 1'

loop_
_symmetry_equiv_pos_as_xyz
  x,y,z

loop_
_atom_site_label
_atom_site_type_symbol
_atom_site_fract_x
_atom_site_fract_y
_atom_site_fract_z
_atom_site_charge
Zn	Zn	0.53734 0.43131 0.43804 1.18900
N 	N 	0.63030 0.47260 0.49900 -0.26700
N 	N 	0.77430 0.47720 0.54803 -0.30800
N 	N 	0.60220 0.50340 0.54976 -0.29400
C 	C 	0.69040 0.50390 0.57700 0.25600
C 	C 	0.73090 0.45930 0.50060 0.09300
H 	H 	0.77010 0.43900 0.47140 -0.04600
O 	O 	0.64330 0.45820 0.38340 -0.51600
O 	O 	0.51130 0.41310 0.33730 -0.40400
C 	C 	0.60240 0.43950 0.34150 0.41400
N 	N 	0.71400 0.53300 0.62870 -0.13000
H 	H 	0.66350 0.53340 0.65350 0.16900
H 	H 	0.78050 0.55070 0.63720 -0.29100
C 	C 	0.65900 0.43200 0.28840 -0.21500
H 	H 	0.63400 0.37150 0.26900 0.38300
H 	H 	0.64460 0.49480 0.26770 0.21600
C 	C 	0.77630 0.42300 0.29780 -0.03900
H 	H 	0.79310 0.49390 0.30720 0.00000
H 	H 	0.79960 0.37610 0.32510 0.03000
N 	N 	0.47200 0.18600 0.37070 -0.33300
H 	H 	0.45220 0.24440 0.35350 0.45800
H 	H 	0.47750 0.12440 0.35340 0.00700
C 	C 	0.64800 0.40900 0.24900 -0.51000
H 	H 	0.66350 0.33750 0.25810 -0.03200
H 	H 	0.57370 0.41620 0.24260 0.12600
C 	C 	0.67700 0.46500 0.29860 -0.11300
H 	H 	0.74780 0.44450 0.30900 0.14900
H 	H 	0.67720 0.54040 0.29250 0.00000
Zn	Zn	0.96266 0.06869 0.43804 1.18900
N 	N 	0.86970 0.02740 0.49900 -0.26600
N 	N 	0.72570 0.02280 0.54803 -0.30800
N 	N 	0.89780 0.99660 0.54976 -0.29200
C 	C 	0.80960 0.99610 0.57700 0.25800
C 	C 	0.76910 0.04070 0.50060 0.09300
H 	H 	0.72990 0.06100 0.47140 -0.04500
O 	O 	0.85670 0.04180 0.38340 -0.51500
O 	O 	0.98870 0.08690 0.33730 -0.40500
C 	C 	0.89760 0.06050 0.34150 0.41400
N 	N 	0.78600 0.96700 0.62870 -0.13000
H 	H 	0.83650 0.96660 0.65350 0.16800
H 	H 	0.71950 0.94930 0.63720 -0.29200
C 	C 	0.84100 0.06800 0.28840 -0.21700
H 	H 	0.86600 0.12850 0.26900 0.38300
H 	H 	0.85540 0.00520 0.26770 0.21600
C 	C 	0.72370 0.07700 0.29780 -0.04000
H 	H 	0.70690 0.00610 0.30720 -0.00000
H 	H 	0.70040 0.12390 0.32510 0.03000
N 	N 	0.02800 0.31400 0.37070 -0.33300
H 	H 	0.04780 0.25560 0.35350 0.45700
H 	H 	0.02250 0.37560 0.35340 0.00700
C 	C 	0.85200 0.09100 0.24900 -0.50800
H 	H 	0.83650 0.16250 0.25810 -0.03300
H 	H 	0.92630 0.08380 0.24260 0.12500
C 	C 	0.82300 0.03500 0.29860 -0.11200
H 	H 	0.75220 0.05550 0.30900 0.15000
H 	H 	0.82280 0.95960 0.29250 0.00200
Zn	Zn	0.06869 0.53734 0.43804 1.19000
N 	N 	0.02740 0.63030 0.49900 -0.26600
N 	N 	0.02280 0.77430 0.54803 -0.30800
N 	N 	0.99660 0.60220 0.54976 -0.29300
C 	C 	0.99610 0.69040 0.57700 0.25800
C 	C 	0.04070 0.73090 0.50060 0.09400
H 	H 	0.06100 0.77010 0.47140 -0.04500
O 	O 	0.04180 0.64330 0.38340 -0.51500
O 	O 	0.08690 0.51130 0.33730 -0.40400
C 	C 	0.06050 0.60240 0.34150 0.41400
N 	N 	0.96700 0.71400 0.62870 -0.13100
H 	H 	0.96660 0.66350 0.65350 0.16900
H 	H 	0.94930 0.78050 0.63720 -0.29000
C 	C 	0.06800 0.65900 0.28840 -0.21600
H 	H 	0.12850 0.63400 0.26900 0.38300
H 	H 	0.00520 0.64460 0.26770 0.21600
C 	C 	0.07700 0.77630 0.29780 -0.03900
H 	H 	0.00610 0.79310 0.30720 -0.00000
H 	H 	0.12390 0.79960 0.32510 0.02900
N 	N 	0.31400 0.47200 0.37070 -0.33300
H 	H 	0.25560 0.45220 0.35350 0.45800
H 	H 	0.37560 0.47750 0.35340 0.00700
C 	C 	0.09100 0.64800 0.24900 -0.50900
H 	H 	0.16250 0.66350 0.25810 -0.03200
H 	H 	0.08380 0.57370 0.24260 0.12600
C 	C 	0.03500 0.67700 0.29860 -0.11300
H 	H 	0.05550 0.74780 0.30900 0.14900
H 	H 	0.95960 0.67720 0.29250 0.00100
Zn	Zn	0.43131 0.96266 0.43804 1.19000
N 	N 	0.47260 0.86970 0.49900 -0.26600
N 	N 	0.47720 0.72570 0.54803 -0.30700
N 	N 	0.50340 0.89780 0.54976 -0.29300
C 	C 	0.50390 0.80960 0.57700 0.25700
C 	C 	0.45930 0.76910 0.50060 0.09400
H 	H 	0.43900 0.72990 0.47140 -0.04500
O 	O 	0.45820 0.85670 0.38340 -0.51500
O 	O 	0.41310 0.98870 0.33730 -0.40500
C 	C 	0.43950 0.89760 0.34150 0.41400
N 	N 	0.53300 0.78600 0.62870 -0.13000
H 	H 	0.53340 0.83650 0.65350 0.16900
H 	H 	0.55070 0.71950 0.63720 -0.29100
C 	C 	0.43200 0.84100 0.28840 -0.21500
H 	H 	0.37150 0.86600 0.26900 0.38300
H 	H 	0.49480 0.85540 0.26770 0.21600
C 	C 	0.42300 0.72370 0.29780 -0.03900
H 	H 	0.49390 0.70690 0.30720 0.00000
H 	H 	0.37610 0.70040 0.32510 0.03000
N 	N 	0.18600 0.02800 0.37070 -0.33400
H 	H 	0.24440 0.04780 0.35350 0.45900
H 	H 	0.12440 0.02250 0.35340 0.00900
C 	C 	0.40900 0.85200 0.24900 -0.50900
H 	H 	0.33750 0.83650 0.25810 -0.03200
H 	H 	0.41620 0.92630 0.24260 0.12600
C 	C 	0.46500 0.82300 0.29860 -0.11300
H 	H 	0.44450 0.75220 0.30900 0.14900
H 	H 	0.54040 0.82280 0.29250 0.00000
Zn	Zn	0.96266 0.43131 0.06196 1.19000
N 	N 	0.86970 0.47260 0.00100 -0.26600
N 	N 	0.72570 0.47720 0.95197 -0.30700
N 	N 	0.89780 0.50340 0.95024 -0.29200
C 	C 	0.80960 0.50390 0.92300 0.25700
C 	C 	0.76910 0.45930 0.99940 0.09500
H 	H 	0.72990 0.43900 0.02860 -0.04500
O 	O 	0.85670 0.45820 0.11660 -0.51500
O 	O 	0.98870 0.41310 0.16270 -0.40500
C 	C 	0.89760 0.43950 0.15850 0.41400
N 	N 	0.78600 0.53300 0.87130 -0.13000
H 	H 	0.83650 0.53340 0.84650 0.16800
H 	H 	0.71950 0.55070 0.86280 -0.29100
C 	C 	0.84100 0.43200 0.21160 -0.21500
H 	H 	0.86600 0.37150 0.23100 0.38300
H 	H 	0.85540 0.49480 0.23230 0.21600
C 	C 	0.72370 0.42300 0.20220 -0.03900
H 	H 	0.70690 0.49390 0.19280 0.00000
H 	H 	0.70040 0.37610 0.17490 0.03000
N 	N 	0.02800 0.18600 0.12930 -0.33400
H 	H 	0.04780 0.24440 0.14650 0.45900
H 	H 	0.02250 0.12440 0.14660 0.00900
C 	C 	0.85200 0.40900 0.25100 -0.50900
H 	H 	0.83650 0.33750 0.24190 -0.03200
H 	H 	0.92630 0.41620 0.25740 0.12600
C 	C 	0.82300 0.46500 0.20140 -0.11300
H 	H 	0.75220 0.44450 0.19100 0.14900
H 	H 	0.82280 0.54040 0.20750 0.00000
Zn	Zn	0.53734 0.06869 0.06196 1.19000
N 	N 	0.63030 0.02740 0.00100 -0.26500
N 	N 	0.77430 0.02280 0.95197 -0.30800
N 	N 	0.60220 0.99660 0.95024 -0.29200
C 	C 	0.69040 0.99610 0.92300 0.25900
C 	C 	0.73090 0.04070 0.99940 0.09300
H 	H 	0.77010 0.06100 0.02860 -0.04400
O 	O 	0.64330 0.04180 0.11660 -0.51500
O 	O 	0.51130 0.08690 0.16270 -0.40400
C 	C 	0.60240 0.06050 0.15850 0.41400
N 	N 	0.71400 0.96700 0.87130 -0.13100
H 	H 	0.66350 0.96660 0.84650 0.17000
H 	H 	0.78050 0.94930 0.86280 -0.29000
C 	C 	0.65900 0.06800 0.21160 -0.21600
H 	H 	0.63400 0.12850 0.23100 0.38300
H 	H 	0.64460 0.00520 0.23230 0.21600
C 	C 	0.77630 0.07700 0.20220 -0.03900
H 	H 	0.79310 0.00610 0.19280 -0.00000
H 	H 	0.79960 0.12390 0.17490 0.02900
N 	N 	0.47200 0.31400 0.12930 -0.33300
H 	H 	0.45220 0.25560 0.14650 0.45800
H 	H 	0.47750 0.37560 0.14660 0.00700
C 	C 	0.64800 0.09100 0.25100 -0.50900
H 	H 	0.66350 0.16250 0.24190 -0.03200
H 	H 	0.57370 0.08380 0.25740 0.12600
C 	C 	0.67700 0.03500 0.20140 -0.11300
H 	H 	0.74780 0.05550 0.19100 0.14900
H 	H 	0.67720 0.95960 0.20750 0.00100
Zn	Zn	0.43131 0.53734 0.06196 1.19000
N 	N 	0.47260 0.63030 0.00100 -0.26600
N 	N 	0.47720 0.77430 0.95197 -0.30700
N 	N 	0.50340 0.60220 0.95024 -0.29300
C 	C 	0.50390 0.69040 0.92300 0.25700
C 	C 	0.45930 0.73090 0.99940 0.09400
H 	H 	0.43900 0.77010 0.02860 -0.04500
O 	O 	0.45820 0.64330 0.11660 -0.51500
O 	O 	0.41310 0.51130 0.16270 -0.40400
C 	C 	0.43950 0.60240 0.15850 0.41400
N 	N 	0.53300 0.71400 0.87130 -0.13000
H 	H 	0.53340 0.66350 0.84650 0.16900
H 	H 	0.55070 0.78050 0.86280 -0.29100
C 	C 	0.43200 0.65900 0.21160 -0.21500
H 	H 	0.37150 0.63400 0.23100 0.38300
H 	H 	0.49480 0.64460 0.23230 0.21600
C 	C 	0.42300 0.77630 0.20220 -0.03900
H 	H 	0.49390 0.79310 0.19280 -0.00000
H 	H 	0.37610 0.79960 0.17490 0.03000
N 	N 	0.18600 0.47200 0.12930 -0.33300
H 	H 	0.24440 0.45220 0.14650 0.45800
H 	H 	0.12440 0.47750 0.14660 0.00800
C 	C 	0.40900 0.64800 0.25100 -0.51000
H 	H 	0.33750 0.66350 0.24190 -0.03200
H 	H 	0.41620 0.57370 0.25740 0.12600
C 	C 	0.46500 0.67700 0.20140 -0.11300
H 	H 	0.44450 0.74780 0.19100 0.14900
H 	H 	0.54040 0.67720 0.20750 0.00000
Zn	Zn	0.06869 0.96266 0.06196 1.18900
N 	N 	0.02740 0.86970 0.00100 -0.26600
N 	N 	0.02280 0.72570 0.95197 -0.30800
N 	N 	0.99660 0.89780 0.95024 -0.29100
C 	C 	0.99610 0.80960 0.92300 0.25900
C 	C 	0.04070 0.76910 0.99940 0.09300
H 	H 	0.06100 0.72990 0.02860 -0.04400
O 	O 	0.04180 0.85670 0.11660 -0.51500
O 	O 	0.08690 0.98870 0.16270 -0.40600
C 	C 	0.06050 0.89760 0.15850 0.41400
N 	N 	0.96700 0.78600 0.87130 -0.13000
H 	H 	0.96660 0.83650 0.84650 0.16800
H 	H 	0.94930 0.71950 0.86280 -0.29200
C 	C 	0.06800 0.84100 0.21160 -0.21700
H 	H 	0.12850 0.86600 0.23100 0.38300
H 	H 	0.00520 0.85540 0.23230 0.21600
C 	C 	0.07700 0.72370 0.20220 -0.03900
H 	H 	0.00610 0.70690 0.19280 -0.00000
H 	H 	0.12390 0.70040 0.17490 0.03000
N 	N 	0.31400 0.02800 0.12930 -0.33300
H 	H 	0.25560 0.04780 0.14650 0.45700
H 	H 	0.37560 0.02250 0.14660 0.00700
C 	C 	0.09100 0.85200 0.25100 -0.50900
H 	H 	0.16250 0.83650 0.24190 -0.03200
H 	H 	0.08380 0.92630 0.25740 0.12500
C 	C 	0.03500 0.82300 0.20140 -0.11200
H 	H 	0.05550 0.75220 0.19100 0.15000
H 	H 	0.95960 0.82280 0.20750 0.00100
Zn	Zn	0.46266 0.56869 0.56196 1.19000
N 	N 	0.36970 0.52740 0.50100 -0.26600
N 	N 	0.22570 0.52280 0.45197 -0.30700
N 	N 	0.39780 0.49660 0.45024 -0.29300
C 	C 	0.30960 0.49610 0.42300 0.25700
C 	C 	0.26910 0.54070 0.49940 0.09400
H 	H 	0.22990 0.56100 0.52860 -0.04500
O 	O 	0.35670 0.54180 0.61660 -0.51500
O 	O 	0.48870 0.58690 0.66270 -0.40400
C 	C 	0.39760 0.56050 0.65850 0.41400
N 	N 	0.28600 0.46700 0.37130 -0.13000
H 	H 	0.33650 0.46660 0.34650 0.16900
H 	H 	0.21950 0.44930 0.36280 -0.29100
C 	C 	0.34100 0.56800 0.71160 -0.21500
H 	H 	0.36600 0.62850 0.73100 0.38300
H 	H 	0.35540 0.50520 0.73230 0.21600
C 	C 	0.22370 0.57700 0.70220 -0.03900
H 	H 	0.20690 0.50610 0.69280 0.00000
H 	H 	0.20040 0.62390 0.67490 0.03000
N 	N 	0.52800 0.81400 0.62930 -0.33300
H 	H 	0.54780 0.75560 0.64650 0.45800
H 	H 	0.52250 0.87560 0.64660 0.00700
C 	C 	0.35200 0.59100 0.75100 -0.51000
H 	H 	0.33650 0.66250 0.74190 -0.03200
H 	H 	0.42630 0.58380 0.75740 0.12600
C 	C 	0.32300 0.53500 0.70140 -0.11300
H 	H 	0.25220 0.55550 0.69100 0.14900
H 	H 	0.32280 0.45960 0.70750 0.00000
Zn	Zn	0.03734 0.93131 0.56196 1.18900
N 	N 	0.13030 0.97260 0.50100 -0.26600
N 	N 	0.27430 0.97720 0.45197 -0.30800
N 	N 	0.10220 0.00340 0.45024 -0.29200
C 	C 	0.19040 0.00390 0.42300 0.25800
C 	C 	0.23090 0.95930 0.49940 0.09300
H 	H 	0.27010 0.93900 0.52860 -0.04500
O 	O 	0.14330 0.95820 0.61660 -0.51500
O 	O 	0.01130 0.91310 0.66270 -0.40500
C 	C 	0.10240 0.93950 0.65850 0.41400
N 	N 	0.21400 0.03300 0.37130 -0.13000
H 	H 	0.16350 0.03340 0.34650 0.16800
H 	H 	0.28050 0.05070 0.36280 -0.29200
C 	C 	0.15900 0.93200 0.71160 -0.21700
H 	H 	0.13400 0.87150 0.73100 0.38300
H 	H 	0.14460 0.99480 0.73230 0.21600
C 	C 	0.27630 0.92300 0.70220 -0.04000
H 	H 	0.29310 0.99390 0.69280 -0.00000
H 	H 	0.29960 0.87610 0.67490 0.03000
N 	N 	0.97200 0.68600 0.62930 -0.33300
H 	H 	0.95220 0.74440 0.64650 0.45700
H 	H 	0.97750 0.62440 0.64660 0.00700
C 	C 	0.14800 0.90900 0.75100 -0.50800
H 	H 	0.16350 0.83750 0.74190 -0.03300
H 	H 	0.07370 0.91620 0.75740 0.12500
C 	C 	0.17700 0.96500 0.70140 -0.11200
H 	H 	0.24780 0.94450 0.69100 0.15000
H 	H 	0.17720 0.04040 0.70750 0.00200
Zn	Zn	0.93131 0.46266 0.56196 1.19000
N 	N 	0.97260 0.36970 0.50100 -0.26600
N 	N 	0.97720 0.22570 0.45197 -0.30800
N 	N 	0.00340 0.39780 0.45024 -0.29300
C 	C 	0.00390 0.30960 0.42300 0.25800
C 	C 	0.95930 0.26910 0.49940 0.09400
H 	H 	0.93900 0.22990 0.52860 -0.04500
O 	O 	0.95820 0.35670 0.61660 -0.51500
O 	O 	0.91310 0.48870 0.66270 -0.40400
C 	C 	0.93950 0.39760 0.65850 0.41400
N 	N 	0.03300 0.28600 0.37130 -0.13100
H 	H 	0.03340 0.33650 0.34650 0.16900
H 	H 	0.05070 0.21950 0.36280 -0.29000
C 	C 	0.93200 0.34100 0.71160 -0.21600
H 	H 	0.87150 0.36600 0.73100 0.38300
H 	H 	0.99480 0.35540 0.73230 0.21600
C 	C 	0.92300 0.22370 0.70220 -0.03900
H 	H 	0.99390 0.20690 0.69280 -0.00000
H 	H 	0.87610 0.20040 0.67490 0.02900
N 	N 	0.68600 0.52800 0.62930 -0.33300
H 	H 	0.74440 0.54780 0.64650 0.45800
H 	H 	0.62440 0.52250 0.64660 0.00700
C 	C 	0.90900 0.35200 0.75100 -0.50900
H 	H 	0.83750 0.33650 0.74190 -0.03200
H 	H 	0.91620 0.42630 0.75740 0.12600
C 	C 	0.96500 0.32300 0.70140 -0.11300
H 	H 	0.94450 0.25220 0.69100 0.14900
H 	H 	0.04040 0.32280 0.70750 0.00100
Zn	Zn	0.56869 0.03734 0.56196 1.19000
N 	N 	0.52740 0.13030 0.50100 -0.26600
N 	N 	0.52280 0.27430 0.45197 -0.30700
N 	N 	0.49660 0.10220 0.45024 -0.29300
C 	C 	0.49610 0.19040 0.42300 0.25700
C 	C 	0.54070 0.23090 0.49940 0.09400
H 	H 	0.56100 0.27010 0.52860 -0.04500
O 	O 	0.54180 0.14330 0.61660 -0.51500
O 	O 	0.58690 0.01130 0.66270 -0.40500
C 	C 	0.56050 0.10240 0.65850 0.41400
N 	N 	0.46700 0.21400 0.37130 -0.13000
H 	H 	0.46660 0.16350 0.34650 0.16900
H 	H 	0.44930 0.28050 0.36280 -0.29100
C 	C 	0.56800 0.15900 0.71160 -0.21500
H 	H 	0.62850 0.13400 0.73100 0.38300
H 	H 	0.50520 0.14460 0.73230 0.21600
C 	C 	0.57700 0.27630 0.70220 -0.03900
H 	H 	0.50610 0.29310 0.69280 0.00000
H 	H 	0.62390 0.29960 0.67490 0.03000
N 	N 	0.81400 0.97200 0.62930 -0.33400
H 	H 	0.75560 0.95220 0.64650 0.45900
H 	H 	0.87560 0.97750 0.64660 0.00900
C 	C 	0.59100 0.14800 0.75100 -0.50900
H 	H 	0.66250 0.16350 0.74190 -0.03200
H 	H 	0.58380 0.07370 0.75740 0.12600
C 	C 	0.53500 0.17700 0.70140 -0.11300
H 	H 	0.55550 0.24780 0.69100 0.14900
H 	H 	0.45960 0.17720 0.70750 0.00000
Zn	Zn	0.03734 0.56869 0.93804 1.19000
N 	N 	0.13030 0.52740 0.99900 -0.26600
N 	N 	0.27430 0.52280 0.04803 -0.30700
N 	N 	0.10220 0.49660 0.04976 -0.29200
C 	C 	0.19040 0.49610 0.07700 0.25700
C 	C 	0.23090 0.54070 0.00060 0.09500
H 	H 	0.27010 0.56100 0.97140 -0.04500
O 	O 	0.14330 0.54180 0.88340 -0.51500
O 	O 	0.01130 0.58690 0.83730 -0.40500
C 	C 	0.10240 0.56050 0.84150 0.41400
N 	N 	0.21400 0.46700 0.12870 -0.13000
H 	H 	0.16350 0.46660 0.15350 0.16800
H 	H 	0.28050 0.44930 0.13720 -0.29100
C 	C 	0.15900 0.56800 0.78840 -0.21500
H 	H 	0.13400 0.62850 0.76900 0.38300
H 	H 	0.14460 0.50520 0.76770 0.21600
C 	C 	0.27630 0.57700 0.79780 -0.03900
H 	H 	0.29310 0.50610 0.80720 0.00000
H 	H 	0.29960 0.62390 0.82510 0.03000
N 	N 	0.97200 0.81400 0.87070 -0.33400
H 	H 	0.95220 0.75560 0.85350 0.45900
H 	H 	0.97750 0.87560 0.85340 0.00900
C 	C 	0.14800 0.59100 0.74900 -0.50900
H 	H 	0.16350 0.66250 0.75810 -0.03200
H 	H 	0.07370 0.58380 0.74260 0.12600
C 	C 	0.17700 0.53500 0.79860 -0.11300
H 	H 	0.24780 0.55550 0.80900 0.14900
H 	H 	0.17720 0.45960 0.79250 0.00000
Zn	Zn	0.46266 0.93131 0.93804 1.19000
N 	N 	0.36970 0.97260 0.99900 -0.26500
N 	N 	0.22570 0.97720 0.04803 -0.30800
N 	N 	0.39780 0.00340 0.04976 -0.29200
C 	C 	0.30960 0.00390 0.07700 0.25900
C 	C 	0.26910 0.95930 0.00060 0.09300
H 	H 	0.22990 0.93900 0.97140 -0.04400
O 	O 	0.35670 0.95820 0.88340 -0.51500
O 	O 	0.48870 0.91310 0.83730 -0.40400
C 	C 	0.39760 0.93950 0.84150 0.41400
N 	N 	0.28600 0.03300 0.12870 -0.13100
H 	H 	0.33650 0.03340 0.15350 0.17000
H 	H 	0.21950 0.05070 0.13720 -0.29000
C 	C 	0.34100 0.93200 0.78840 -0.21600
H 	H 	0.36600 0.87150 0.76900 0.38300
H 	H 	0.35540 0.99480 0.76770 0.21600
C 	C 	0.22370 0.92300 0.79780 -0.03900
H 	H 	0.20690 0.99390 0.80720 -0.00000
H 	H 	0.20040 0.87610 0.82510 0.02900
N 	N 	0.52800 0.68600 0.87070 -0.33300
H 	H 	0.54780 0.74440 0.85350 0.45800
H 	H 	0.52250 0.62440 0.85340 0.00700
C 	C 	0.35200 0.90900 0.74900 -0.50900
H 	H 	0.33650 0.83750 0.75810 -0.03200
H 	H 	0.42630 0.91620 0.74260 0.12600
C 	C 	0.32300 0.96500 0.79860 -0.11300
H 	H 	0.25220 0.94450 0.80900 0.14900
H 	H 	0.32280 0.04040 0.79250 0.00100
Zn	Zn	0.56869 0.46266 0.93804 1.19000
N 	N 	0.52740 0.36970 0.99900 -0.26600
N 	N 	0.52280 0.22570 0.04803 -0.30700
N 	N 	0.49660 0.39780 0.04976 -0.29300
C 	C 	0.49610 0.30960 0.07700 0.25700
C 	C 	0.54070 0.26910 0.00060 0.09400
H 	H 	0.56100 0.22990 0.97140 -0.04500
O 	O 	0.54180 0.35670 0.88340 -0.51500
O 	O 	0.58690 0.48870 0.83730 -0.40400
C 	C 	0.56050 0.39760 0.84150 0.41400
N 	N 	0.46700 0.28600 0.12870 -0.13000
H 	H 	0.46660 0.33650 0.15350 0.16900
H 	H 	0.44930 0.21950 0.13720 -0.29100
C 	C 	0.56800 0.34100 0.78840 -0.21500
H 	H 	0.62850 0.36600 0.76900 0.38300
H 	H 	0.50520 0.35540 0.76770 0.21600
C 	C 	0.57700 0.22370 0.79780 -0.03900
H 	H 	0.50610 0.20690 0.80720 -0.00000
H 	H 	0.62390 0.20040 0.82510 0.03000
N 	N 	0.81400 0.52800 0.87070 -0.33300
H 	H 	0.75560 0.54780 0.85350 0.45800
H 	H 	0.87560 0.52250 0.85340 0.00800
C 	C 	0.59100 0.35200 0.74900 -0.51000
H 	H 	0.66250 0.33650 0.75810 -0.03200
H 	H 	0.58380 0.42630 0.74260 0.12600
C 	C 	0.53500 0.32300 0.79860 -0.11300
H 	H 	0.55550 0.25220 0.80900 0.14900
H 	H 	0.45960 0.32280 0.79250 0.00000
Zn	Zn	0.93131 0.03734 0.93804 1.18900
N 	N 	0.97260 0.13030 0.99900 -0.26600
N 	N 	0.97720 0.27430 0.04803 -0.30800
N 	N 	0.00340 0.10220 0.04976 -0.29100
C 	C 	0.00390 0.19040 0.07700 0.25900
C 	C 	0.95930 0.23090 0.00060 0.09300
H 	H 	0.93900 0.27010 0.97140 -0.04400
O 	O 	0.95820 0.14330 0.88340 -0.51500
O 	O 	0.91310 0.01130 0.83730 -0.40600
C 	C 	0.93950 0.10240 0.84150 0.41400
N 	N 	0.03300 0.21400 0.12870 -0.13000
H 	H 	0.03340 0.16350 0.15350 0.16800
H 	H 	0.05070 0.28050 0.13720 -0.29200
C 	C 	0.93200 0.15900 0.78840 -0.21700
H 	H 	0.87150 0.13400 0.76900 0.38300
H 	H 	0.99480 0.14460 0.76770 0.21600
C 	C 	0.92300 0.27630 0.79780 -0.03900
H 	H 	0.99390 0.29310 0.80720 -0.00000
H 	H 	0.87610 0.29960 0.82510 0.03000
N 	N 	0.68600 0.97200 0.87070 -0.33300
H 	H 	0.74440 0.95220 0.85350 0.45700
H 	H 	0.62440 0.97750 0.85340 0.00700
C 	C 	0.90900 0.14800 0.74900 -0.50900
H 	H 	0.83750 0.16350 0.75810 -0.03200
H 	H 	0.91620 0.07370 0.74260 0.12500
C 	C 	0.96500 0.17700 0.79860 -0.11200
H 	H 	0.94450 0.24780 0.80900 0.15000
H 	H 	0.04040 0.17720 0.79250 0.00100
