data_crystal

_cell_length_a 12.62800
_cell_length_b 12.62800
_cell_length_c 17.85200
_cell_angle_alpha 90.00000
_cell_angle_beta  90.00000
_cell_angle_gamma 120.00000

_symmetry_space_group_name_	'P 1'
_symmetry_space_group_name_H-M	'P 1'

loop_
_symmetry_equiv_pos_as_xyz
  x,y,z

loop_
_atom_site_label
_atom_site_type_symbol
_atom_site_fract_x
_atom_site_fract_y
_atom_site_fract_z
_atom_site_charge
C 	C 	0.46050 0.13130 0.14000 0.43200
C 	C 	0.38200 0.18100 0.18000 -0.08500
H 	H 	0.38220 0.24680 0.15230 0.04100
H 	H 	0.29780 0.11600 0.18790 0.03300
O 	O 	0.56730 0.17990 0.15610 -0.51600
O 	O 	0.41120 0.06170 0.08400 -0.53000
C 	C 	0.38400 0.10500 0.20720 -0.09300
H 	H 	0.38310 0.03930 0.23610 -0.00600
H 	H 	0.30130 0.08250 0.19410 0.01200
C 	C 	0.86870 0.32920 0.14000 0.44100
C 	C 	0.81900 0.20100 0.18000 -0.17000
H 	H 	0.75320 0.13540 0.15230 0.05400
H 	H 	0.88400 0.18180 0.18790 0.13200
O 	O 	0.82010 0.38740 0.15610 -0.49500
O 	O 	0.93830 0.34950 0.08400 -0.46000
C 	C 	0.89500 0.27900 0.20720 -0.04000
H 	H 	0.96070 0.34380 0.23610 0.08300
H 	H 	0.91750 0.21880 0.19410 -0.04400
C 	C 	0.67080 0.53950 0.14000 0.45100
C 	C 	0.79900 0.61800 0.18000 -0.10700
H 	H 	0.86460 0.61780 0.15230 0.07800
H 	H 	0.81820 0.70220 0.18790 0.07500
O 	O 	0.61260 0.43270 0.15610 -0.51000
O 	O 	0.65050 0.58880 0.08400 -0.49000
C 	C 	0.72100 0.61600 0.20720 -0.10900
H 	H 	0.65620 0.61690 0.23610 0.05100
H 	H 	0.78120 0.69870 0.19410 0.02200
C 	C 	0.53950 0.86870 0.14000 0.44900
C 	C 	0.61800 0.81900 0.18000 -0.15600
H 	H 	0.61780 0.75320 0.15230 0.07400
H 	H 	0.70220 0.88400 0.18790 0.12700
O 	O 	0.43270 0.82010 0.15610 -0.49700
O 	O 	0.58880 0.93830 0.08400 -0.45400
C 	C 	0.61600 0.89500 0.20720 -0.06800
H 	H 	0.61690 0.96070 0.23610 0.09100
H 	H 	0.69870 0.91750 0.19410 -0.01900
C 	C 	0.13130 0.67080 0.14000 0.44100
C 	C 	0.18100 0.79900 0.18000 -0.07100
H 	H 	0.24680 0.86460 0.15230 0.06200
H 	H 	0.11600 0.81820 0.18790 0.02800
O 	O 	0.17990 0.61260 0.15610 -0.51800
O 	O 	0.06170 0.65050 0.08400 -0.52300
C 	C 	0.10500 0.72100 0.20720 -0.12200
H 	H 	0.03930 0.65620 0.23610 0.00300
H 	H 	0.08250 0.78120 0.19410 0.03800
C 	C 	0.32920 0.46050 0.14000 0.43400
C 	C 	0.20100 0.38200 0.18000 -0.13400
H 	H 	0.13540 0.38220 0.15230 0.03800
H 	H 	0.18180 0.29780 0.18790 0.08600
O 	O 	0.38740 0.56730 0.15610 -0.50600
O 	O 	0.34950 0.41120 0.08400 -0.50400
C 	C 	0.27900 0.38400 0.20720 -0.05300
H 	H 	0.34380 0.38310 0.23610 0.03500
H 	H 	0.21880 0.30130 0.19410 -0.02900
C 	C 	0.13130 0.46050 0.36000 0.43000
C 	C 	0.18100 0.38200 0.32000 -0.07800
H 	H 	0.24680 0.38220 0.34770 0.05200
H 	H 	0.11600 0.29780 0.31210 0.03600
O 	O 	0.17990 0.56730 0.34390 -0.50100
O 	O 	0.06170 0.41120 0.41600 -0.48100
C 	C 	0.10500 0.38400 0.29280 -0.09700
H 	H 	0.03930 0.38310 0.26390 -0.00400
H 	H 	0.08250 0.30130 0.30590 0.01600
C 	C 	0.32920 0.86870 0.36000 0.43800
C 	C 	0.20100 0.81900 0.32000 -0.16300
H 	H 	0.13540 0.75320 0.34770 0.06500
H 	H 	0.18180 0.88400 0.31210 0.13500
O 	O 	0.38740 0.82010 0.34390 -0.48100
O 	O 	0.34950 0.93830 0.41600 -0.41200
C 	C 	0.27900 0.89500 0.29280 -0.04400
H 	H 	0.34380 0.96070 0.26390 0.08500
H 	H 	0.21880 0.91750 0.30590 -0.04100
C 	C 	0.53950 0.67080 0.36000 0.44800
C 	C 	0.61800 0.79900 0.32000 -0.10000
H 	H 	0.61780 0.86460 0.34770 0.08800
H 	H 	0.70220 0.81820 0.31210 0.07800
O 	O 	0.43270 0.61260 0.34390 -0.49500
O 	O 	0.58880 0.65050 0.41600 -0.44100
C 	C 	0.61600 0.72100 0.29280 -0.11300
H 	H 	0.61690 0.65620 0.26390 0.05300
H 	H 	0.69870 0.78120 0.30590 0.02600
C 	C 	0.86870 0.53950 0.36000 0.44600
C 	C 	0.81900 0.61800 0.32000 -0.14900
H 	H 	0.75320 0.61780 0.34770 0.08400
H 	H 	0.88400 0.70220 0.31210 0.12900
O 	O 	0.82010 0.43270 0.34390 -0.48300
O 	O 	0.93830 0.58880 0.41600 -0.40600
C 	C 	0.89500 0.61600 0.29280 -0.07300
H 	H 	0.96070 0.61690 0.26390 0.09300
H 	H 	0.91750 0.69870 0.30590 -0.01500
C 	C 	0.67080 0.13130 0.36000 0.43900
C 	C 	0.79900 0.18100 0.32000 -0.06400
H 	H 	0.86460 0.24680 0.34770 0.07200
H 	H 	0.81820 0.11600 0.31210 0.03100
O 	O 	0.61260 0.17990 0.34390 -0.50300
O 	O 	0.65050 0.06170 0.41600 -0.47400
C 	C 	0.72100 0.10500 0.29280 -0.12600
H 	H 	0.65620 0.03930 0.26390 0.00500
H 	H 	0.78120 0.08250 0.30590 0.04200
C 	C 	0.46050 0.32920 0.36000 0.43100
C 	C 	0.38200 0.20100 0.32000 -0.12700
H 	H 	0.38220 0.13540 0.34770 0.04800
H 	H 	0.29780 0.18180 0.31210 0.08800
O 	O 	0.56730 0.38740 0.34390 -0.49100
O 	O 	0.41120 0.34950 0.41600 -0.45500
C 	C 	0.38400 0.27900 0.29280 -0.05700
H 	H 	0.38310 0.34380 0.26390 0.03700
H 	H 	0.30130 0.21880 0.30590 -0.02500
C 	C 	0.53950 0.86870 0.86000 0.44000
C 	C 	0.61800 0.81900 0.82000 -0.13800
H 	H 	0.61780 0.75320 0.84770 0.09600
H 	H 	0.70220 0.88400 0.81210 0.13000
O 	O 	0.43270 0.82010 0.84390 -0.46200
O 	O 	0.58880 0.93830 0.91600 -0.33600
C 	C 	0.61600 0.89500 0.79280 -0.07700
H 	H 	0.61690 0.96070 0.76390 0.09400
H 	H 	0.69870 0.91750 0.80590 -0.00900
C 	C 	0.13130 0.67080 0.86000 0.43200
C 	C 	0.18100 0.79900 0.82000 -0.05500
H 	H 	0.24680 0.86460 0.84770 0.08400
H 	H 	0.11600 0.81820 0.81210 0.03300
O 	O 	0.17990 0.61260 0.84390 -0.48200
O 	O 	0.06170 0.65050 0.91600 -0.40300
C 	C 	0.10500 0.72100 0.79280 -0.12900
H 	H 	0.03930 0.65620 0.76390 0.00600
H 	H 	0.08250 0.78120 0.80590 0.04700
C 	C 	0.32920 0.46050 0.86000 0.42500
C 	C 	0.20100 0.38200 0.82000 -0.11700
H 	H 	0.13540 0.38220 0.84770 0.06100
H 	H 	0.18180 0.29780 0.81210 0.09000
O 	O 	0.38740 0.56730 0.84390 -0.47000
O 	O 	0.34950 0.41120 0.91600 -0.38200
C 	C 	0.27900 0.38400 0.79280 -0.06200
H 	H 	0.34380 0.38310 0.76390 0.03900
H 	H 	0.21880 0.30130 0.80590 -0.01800
C 	C 	0.46050 0.13130 0.86000 0.42400
C 	C 	0.38200 0.18100 0.82000 -0.06900
H 	H 	0.38220 0.24680 0.84770 0.06400
H 	H 	0.29780 0.11600 0.81210 0.03900
O 	O 	0.56730 0.17990 0.84390 -0.48000
O 	O 	0.41120 0.06170 0.91600 -0.40800
C 	C 	0.38400 0.10500 0.79280 -0.10100
H 	H 	0.38310 0.03930 0.76390 -0.00100
H 	H 	0.30130 0.08250 0.80590 0.02200
C 	C 	0.86870 0.32920 0.86000 0.43200
C 	C 	0.81900 0.20100 0.82000 -0.15100
H 	H 	0.75320 0.13540 0.84770 0.07700
H 	H 	0.88400 0.18180 0.81210 0.13500
O 	O 	0.82010 0.38740 0.84390 -0.46000
O 	O 	0.93830 0.34950 0.91600 -0.34300
C 	C 	0.89500 0.27900 0.79280 -0.05000
H 	H 	0.96070 0.34380 0.76390 0.08600
H 	H 	0.91750 0.21880 0.80590 -0.03400
C 	C 	0.67080 0.53950 0.86000 0.44100
C 	C 	0.79900 0.61800 0.82000 -0.09100
H 	H 	0.86460 0.61780 0.84770 0.10000
H 	H 	0.81820 0.70220 0.81210 0.07900
O 	O 	0.61260 0.43270 0.84390 -0.47400
O 	O 	0.65050 0.58880 0.91600 -0.37000
C 	C 	0.72100 0.61600 0.79280 -0.11700
H 	H 	0.65620 0.61690 0.76390 0.05400
H 	H 	0.78120 0.69870 0.80590 0.03200
C 	C 	0.86870 0.53950 0.64000 0.44600
C 	C 	0.81900 0.61800 0.68000 -0.14700
H 	H 	0.75320 0.61780 0.65230 0.08400
H 	H 	0.88400 0.70220 0.68790 0.12900
O 	O 	0.82010 0.43270 0.65610 -0.48400
O 	O 	0.93830 0.58880 0.58400 -0.40600
C 	C 	0.89500 0.61600 0.70720 -0.07300
H 	H 	0.96070 0.61690 0.73610 0.09200
H 	H 	0.91750 0.69870 0.69410 -0.01300
C 	C 	0.67080 0.13130 0.64000 0.43900
C 	C 	0.79900 0.18100 0.68000 -0.06400
H 	H 	0.86460 0.24680 0.65230 0.07200
H 	H 	0.81820 0.11600 0.68790 0.03100
O 	O 	0.61260 0.17990 0.65610 -0.50400
O 	O 	0.65050 0.06170 0.58400 -0.47400
C 	C 	0.72100 0.10500 0.70720 -0.12600
H 	H 	0.65620 0.03930 0.73610 0.00500
H 	H 	0.78120 0.08250 0.69410 0.04300
C 	C 	0.46050 0.32920 0.64000 0.43200
C 	C 	0.38200 0.20100 0.68000 -0.12600
H 	H 	0.38220 0.13540 0.65230 0.04800
H 	H 	0.29780 0.18180 0.68790 0.08800
O 	O 	0.56730 0.38740 0.65610 -0.49200
O 	O 	0.41120 0.34950 0.58400 -0.45500
C 	C 	0.38400 0.27900 0.70720 -0.05800
H 	H 	0.38310 0.34380 0.73610 0.03600
H 	H 	0.30130 0.21880 0.69410 -0.02300
C 	C 	0.13130 0.46050 0.64000 0.43000
C 	C 	0.18100 0.38200 0.68000 -0.07800
H 	H 	0.24680 0.38220 0.65230 0.05200
H 	H 	0.11600 0.29780 0.68790 0.03700
O 	O 	0.17990 0.56730 0.65610 -0.50200
O 	O 	0.06170 0.41120 0.58400 -0.48100
C 	C 	0.10500 0.38400 0.70720 -0.09800
H 	H 	0.03930 0.38310 0.73610 -0.00300
H 	H 	0.08250 0.30130 0.69410 0.01800
C 	C 	0.32920 0.86870 0.64000 0.43800
C 	C 	0.20100 0.81900 0.68000 -0.16000
H 	H 	0.13540 0.75320 0.65230 0.06400
H 	H 	0.18180 0.88400 0.68790 0.13400
O 	O 	0.38740 0.82010 0.65610 -0.48200
O 	O 	0.34950 0.93830 0.58400 -0.41300
C 	C 	0.27900 0.89500 0.70720 -0.04500
H 	H 	0.34380 0.96070 0.73610 0.08400
H 	H 	0.21880 0.91750 0.69410 -0.03800
C 	C 	0.53950 0.67080 0.64000 0.44800
C 	C 	0.61800 0.79900 0.68000 -0.10000
H 	H 	0.61780 0.86460 0.65230 0.08800
H 	H 	0.70220 0.81820 0.68790 0.07800
O 	O 	0.43270 0.61260 0.65610 -0.49600
O 	O 	0.58880 0.65050 0.58400 -0.44100
C 	C 	0.61600 0.72100 0.70720 -0.11300
H 	H 	0.61690 0.65620 0.73610 0.05200
H 	H 	0.69870 0.78120 0.69410 0.02800
Dy	Dy	0.66667 0.33333 0.25000 1.97100
Dy	Dy	0.33333 0.66667 0.25000 1.97100
Dy	Dy	0.33333 0.66667 0.75000 1.97800
Dy	Dy	0.66667 0.33333 0.75000 1.97800
Cd	Cd	0.50000 0.00000 -0.00000 1.14100
Cd	Cd	-0.00000 0.50000 -0.00000 1.14100
Cd	Cd	0.50000 0.50000 -0.00000 1.16900
Cd	Cd	0.00000 0.50000 0.50000 1.19900
Cd	Cd	0.50000 0.00000 0.50000 1.19900
Cd	Cd	0.50000 0.50000 0.50000 1.22700
O 	O 	0.44550 0.22275 0.25000 -0.27000
O 	O 	0.77725 0.22275 0.25000 -0.26100
O 	O 	0.77725 0.55450 0.25000 -0.25200
O 	O 	0.55450 0.77725 0.25000 -0.25200
O 	O 	0.22275 0.77725 0.25000 -0.26100
O 	O 	0.22275 0.44550 0.25000 -0.27000
O 	O 	0.55450 0.77725 0.75000 -0.25400
O 	O 	0.22275 0.77725 0.75000 -0.26400
O 	O 	0.22275 0.44550 0.75000 -0.27200
O 	O 	0.44550 0.22275 0.75000 -0.27200
O 	O 	0.77725 0.22275 0.75000 -0.26400
O 	O 	0.77725 0.55450 0.75000 -0.25400
