data_crystal

_cell_length_a 10.12000
_cell_length_b 21.93400
_cell_length_c 15.81800
_cell_angle_alpha 90.00000
_cell_angle_beta  105.43000
_cell_angle_gamma 90.00000

_symmetry_space_group_name_	'P 1'
_symmetry_space_group_name_H-M	'P 1'

loop_
_symmetry_equiv_pos_as_xyz
  x,y,z

loop_
_atom_site_label
_atom_site_type_symbol
_atom_site_fract_x
_atom_site_fract_y
_atom_site_fract_z
_atom_site_charge
C 	C 	0.82230 0.24530 0.38120 -0.04700
C 	C 	0.93620 0.28420 0.41760 0.18100
C 	C 	0.06900 0.25770 0.43180 -0.19500
H 	H 	0.14590 0.28100 0.45780 0.10400
C 	C 	0.08610 0.19910 0.40810 0.08100
H 	H 	0.17430 0.18350 0.41780 -0.01300
C 	C 	0.97520 0.16230 0.37010 -0.13000
C 	C 	0.84130 0.18650 0.35730 0.01200
H 	H 	0.76560 0.16230 0.33240 0.03500
C 	C 	0.68140 0.27370 0.37040 -0.06900
H 	H 	0.67090 0.28370 0.42800 0.06700
H 	H 	0.67680 0.31150 0.33790 0.08200
C 	C 	0.43540 0.26720 0.31750 -0.05900
H 	H 	0.43830 0.30660 0.29010 0.07200
H 	H 	0.42350 0.27410 0.37560 0.05300
C 	C 	0.31560 0.23070 0.26360 -0.10700
H 	H 	0.29980 0.19590 0.29740 0.05600
H 	H 	0.33770 0.21550 0.21140 0.07200
N 	N 	0.56630 0.23450 0.32490 -0.16000
O 	O 	0.92110 0.34100 0.43670 -0.19800
O 	O 	0.10160 0.08970 0.28810 -0.29800
O 	O 	0.05690 0.05400 0.42110 -0.39700
O 	O 	0.87100 0.06290 0.28990 -0.28800
S 	S 	0.00235 0.08753 0.34022 0.48200
K 	K 	0.83862 0.96762 0.40370 0.65100
H 	H 	0.56100 0.19820 0.34200 0.10300
H 	H 	0.81100 0.08200 0.52600 0.28100
C 	C 	0.32230 0.74530 0.88120 -0.06000
C 	C 	0.43620 0.78420 0.91760 0.17800
C 	C 	0.56900 0.75770 0.93180 -0.20600
H 	H 	0.64590 0.78100 0.95780 0.09200
C 	C 	0.58610 0.69910 0.90810 0.08800
H 	H 	0.67430 0.68350 0.91780 -0.02600
C 	C 	0.47520 0.66230 0.87010 -0.14900
C 	C 	0.34130 0.68650 0.85730 0.01800
H 	H 	0.26560 0.66230 0.83240 0.03000
C 	C 	0.18140 0.77370 0.87040 -0.05900
H 	H 	0.17090 0.78370 0.92800 0.05100
H 	H 	0.17680 0.81150 0.83790 0.07700
C 	C 	0.93540 0.76720 0.81750 -0.05600
H 	H 	0.93830 0.80660 0.79010 0.06900
H 	H 	0.92350 0.77410 0.87560 0.04300
C 	C 	0.81560 0.73070 0.76360 -0.10800
H 	H 	0.79980 0.69590 0.79740 0.05300
H 	H 	0.83770 0.71550 0.71140 0.07000
N 	N 	0.06630 0.73450 0.82490 -0.16200
O 	O 	0.42110 0.84100 0.93670 -0.21400
O 	O 	0.60160 0.58970 0.78810 -0.30600
O 	O 	0.55690 0.55400 0.92110 -0.41900
O 	O 	0.37100 0.56290 0.78990 -0.30000
S 	S 	0.50235 0.58753 0.84022 0.49500
K 	K 	0.33862 0.46762 0.90370 0.64400
H 	H 	0.06100 0.69820 0.84200 0.10000
H 	H 	0.31100 0.58200 0.02600 0.26800
C 	C 	0.67770 0.24530 0.61880 -0.05000
C 	C 	0.56380 0.28420 0.58240 0.18000
C 	C 	0.43100 0.25770 0.56820 -0.19800
H 	H 	0.35410 0.28100 0.54220 0.10400
C 	C 	0.41390 0.19910 0.59190 0.08900
H 	H 	0.32570 0.18350 0.58220 -0.01700
C 	C 	0.52480 0.16230 0.62990 -0.14100
C 	C 	0.65870 0.18650 0.64270 0.01500
H 	H 	0.73440 0.16230 0.66760 0.03300
C 	C 	0.81860 0.27370 0.62960 -0.06800
H 	H 	0.82910 0.28370 0.57200 0.06700
H 	H 	0.82320 0.31150 0.66210 0.08300
C 	C 	0.06460 0.26720 0.68250 -0.06800
H 	H 	0.06170 0.30660 0.70990 0.07400
H 	H 	0.07650 0.27410 0.62440 0.05500
C 	C 	0.18440 0.23070 0.73640 -0.09600
H 	H 	0.20020 0.19590 0.70260 0.05100
H 	H 	0.16230 0.21550 0.78860 0.06400
N 	N 	0.93370 0.23450 0.67510 -0.15800
O 	O 	0.57890 0.34100 0.56330 -0.19900
O 	O 	0.39840 0.08970 0.71190 -0.30600
O 	O 	0.44310 0.05400 0.57890 -0.39900
O 	O 	0.62900 0.06290 0.71010 -0.29900
S 	S 	0.49765 0.08753 0.65978 0.49300
K 	K 	0.66138 0.96762 0.59630 0.65100
H 	H 	0.93900 0.19820 0.65800 0.10300
H 	H 	0.68900 0.08200 0.47400 0.28100
C 	C 	0.17770 0.74530 0.11880 -0.04000
C 	C 	0.06380 0.78420 0.08240 0.18200
C 	C 	0.93100 0.75770 0.06820 -0.19100
H 	H 	0.85410 0.78100 0.04220 0.11500
C 	C 	0.91390 0.69910 0.09190 0.09000
H 	H 	0.82570 0.68350 0.08220 -0.00800
C 	C 	0.02480 0.66230 0.12990 -0.13400
C 	C 	0.15870 0.68650 0.14270 0.01500
H 	H 	0.23440 0.66230 0.16760 0.03600
C 	C 	0.31860 0.77370 0.12960 -0.07700
H 	H 	0.32910 0.78370 0.07200 0.08300
H 	H 	0.32320 0.81150 0.16210 0.08700
C 	C 	0.56460 0.76720 0.18250 -0.06800
H 	H 	0.56170 0.80660 0.20990 0.07700
H 	H 	0.57650 0.77410 0.12440 0.06500
C 	C 	0.68440 0.73070 0.23640 -0.09700
H 	H 	0.70020 0.69590 0.20260 0.05500
H 	H 	0.66230 0.71550 0.28860 0.06700
N 	N 	0.43370 0.73450 0.17510 -0.15800
O 	O 	0.07890 0.84100 0.06330 -0.18300
O 	O 	0.89840 0.58970 0.21190 -0.30000
O 	O 	0.94310 0.55400 0.07890 -0.38500
O 	O 	0.12900 0.56290 0.21010 -0.29400
S 	S 	0.99765 0.58753 0.15978 0.49100
K 	K 	0.16138 0.46762 0.09630 0.65500
H 	H 	0.43900 0.69820 0.15800 0.10700
H 	H 	0.18900 0.58200 0.97400 0.21800
C 	C 	0.17770 0.75470 0.61880 -0.04900
C 	C 	0.06380 0.71580 0.58240 0.18000
C 	C 	0.93100 0.74230 0.56820 -0.19700
H 	H 	0.85410 0.71900 0.54220 0.10300
C 	C 	0.91390 0.80090 0.59190 0.08600
H 	H 	0.82570 0.81650 0.58220 -0.01600
C 	C 	0.02480 0.83770 0.62990 -0.13900
C 	C 	0.15870 0.81350 0.64270 0.01400
H 	H 	0.23440 0.83770 0.66760 0.03300
C 	C 	0.31860 0.72630 0.62960 -0.06900
H 	H 	0.32910 0.71630 0.57200 0.06700
H 	H 	0.32320 0.68850 0.66210 0.08200
C 	C 	0.56460 0.73280 0.68250 -0.06500
H 	H 	0.56170 0.69340 0.70990 0.07400
H 	H 	0.57650 0.72590 0.62440 0.05500
C 	C 	0.68440 0.76930 0.73640 -0.09700
H 	H 	0.70020 0.80410 0.70260 0.05200
H 	H 	0.66230 0.78450 0.78860 0.06500
N 	N 	0.43370 0.76550 0.67510 -0.15900
O 	O 	0.07890 0.65900 0.56330 -0.19900
O 	O 	0.89840 0.91030 0.71190 -0.30600
O 	O 	0.94310 0.94600 0.57890 -0.39900
O 	O 	0.12900 0.93710 0.71010 -0.29800
S 	S 	0.99765 0.91247 0.65978 0.49000
K 	K 	0.16138 0.03238 0.59630 0.65000
H 	H 	0.43900 0.80180 0.65800 0.10200
H 	H 	0.18900 0.91800 0.47400 0.28200
C 	C 	0.67770 0.25470 0.11880 -0.03900
C 	C 	0.56380 0.21580 0.08240 0.18100
C 	C 	0.43100 0.24230 0.06820 -0.18900
H 	H 	0.35410 0.21900 0.04220 0.11500
C 	C 	0.41390 0.30090 0.09190 0.08900
H 	H 	0.32570 0.31650 0.08220 -0.00700
C 	C 	0.52480 0.33770 0.12990 -0.13200
C 	C 	0.65870 0.31350 0.14270 0.01300
H 	H 	0.73440 0.33770 0.16760 0.03700
C 	C 	0.81860 0.22630 0.12960 -0.07700
H 	H 	0.82910 0.21630 0.07200 0.08400
H 	H 	0.82320 0.18850 0.16210 0.08800
C 	C 	0.06460 0.23280 0.18250 -0.07200
H 	H 	0.06170 0.19340 0.20990 0.07700
H 	H 	0.07650 0.22590 0.12440 0.06500
C 	C 	0.18440 0.26930 0.23640 -0.09500
H 	H 	0.20020 0.30410 0.20260 0.05400
H 	H 	0.16230 0.28450 0.28860 0.06600
N 	N 	0.93370 0.26550 0.17510 -0.15600
O 	O 	0.57890 0.15900 0.06330 -0.18200
O 	O 	0.39840 0.41030 0.21190 -0.30000
O 	O 	0.44310 0.44600 0.07890 -0.38500
O 	O 	0.62900 0.43710 0.21010 -0.29300
S 	S 	0.49765 0.41247 0.15978 0.49000
K 	K 	0.66138 0.53238 0.09630 0.65500
H 	H 	0.93900 0.30180 0.15800 0.10800
H 	H 	0.68900 0.41800 0.97400 0.21700
C 	C 	0.32230 0.75470 0.38120 -0.05000
C 	C 	0.43620 0.71580 0.41760 0.17900
C 	C 	0.56900 0.74230 0.43180 -0.19700
H 	H 	0.64590 0.71900 0.45780 0.10300
C 	C 	0.58610 0.80090 0.40810 0.08700
H 	H 	0.67430 0.81650 0.41780 -0.01600
C 	C 	0.47520 0.83770 0.37010 -0.14000
C 	C 	0.34130 0.81350 0.35730 0.01400
H 	H 	0.26560 0.83770 0.33240 0.03400
C 	C 	0.18140 0.72630 0.37040 -0.06800
H 	H 	0.17090 0.71630 0.42800 0.06700
H 	H 	0.17680 0.68850 0.33790 0.08200
C 	C 	0.93540 0.73280 0.31750 -0.06000
H 	H 	0.93830 0.69340 0.29010 0.07200
H 	H 	0.92350 0.72590 0.37560 0.05300
C 	C 	0.81560 0.76930 0.26360 -0.10600
H 	H 	0.79980 0.80410 0.29740 0.05600
H 	H 	0.83770 0.78450 0.21140 0.07200
N 	N 	0.06630 0.76550 0.32490 -0.16000
O 	O 	0.42110 0.65900 0.43670 -0.19800
O 	O 	0.60160 0.91030 0.28810 -0.29900
O 	O 	0.55690 0.94600 0.42110 -0.39800
O 	O 	0.37100 0.93710 0.28990 -0.29100
S 	S 	0.50235 0.91247 0.34022 0.49100
K 	K 	0.33862 0.03238 0.40370 0.65200
H 	H 	0.06100 0.80180 0.34200 0.10400
H 	H 	0.31100 0.91800 0.52600 0.28100
C 	C 	0.82230 0.25470 0.88120 -0.06000
C 	C 	0.93620 0.21580 0.91760 0.18000
C 	C 	0.06900 0.24230 0.93180 -0.20700
H 	H 	0.14590 0.21900 0.95780 0.09200
C 	C 	0.08610 0.30090 0.90810 0.08500
H 	H 	0.17430 0.31650 0.91780 -0.02500
C 	C 	0.97520 0.33770 0.87010 -0.14400
C 	C 	0.84130 0.31350 0.85730 0.01600
H 	H 	0.76560 0.33770 0.83240 0.03000
C 	C 	0.68140 0.22630 0.87040 -0.05900
H 	H 	0.67090 0.21630 0.92800 0.05100
H 	H 	0.67680 0.18850 0.83790 0.07700
C 	C 	0.43540 0.23280 0.81750 -0.05500
H 	H 	0.43830 0.19340 0.79010 0.06900
H 	H 	0.42350 0.22590 0.87560 0.04200
C 	C 	0.31560 0.26930 0.76360 -0.10900
H 	H 	0.29980 0.30410 0.79740 0.05300
H 	H 	0.33770 0.28450 0.71140 0.07000
N 	N 	0.56630 0.26550 0.82490 -0.16300
O 	O 	0.92110 0.15900 0.93670 -0.21400
O 	O 	0.10160 0.41030 0.78810 -0.30500
O 	O 	0.05690 0.44600 0.92110 -0.41800
O 	O 	0.87100 0.43710 0.78990 -0.29800
S 	S 	0.00235 0.41247 0.84022 0.49100
K 	K 	0.83862 0.53238 0.90370 0.64400
H 	H 	0.56100 0.30180 0.84200 0.10000
H 	H 	0.81100 0.41800 0.02600 0.26800
O 	O 	0.75000 0.05740 0.50000 -0.70900
O 	O 	0.25000 0.55740 -0.00000 -0.62300
O 	O 	0.25000 0.94260 0.50000 -0.70900
O 	O 	0.75000 0.44260 -0.00000 -0.62200
