data_crystal

_cell_length_a 7.04040
_cell_length_b 13.00150
_cell_length_c 13.73380
_cell_angle_alpha 90.00000
_cell_angle_beta  100.88100
_cell_angle_gamma 90.00000

_symmetry_space_group_name_	'P 1'
_symmetry_space_group_name_H-M	'P 1'

loop_
_symmetry_equiv_pos_as_xyz
  x,y,z

loop_
_atom_site_label
_atom_site_type_symbol
_atom_site_fract_x
_atom_site_fract_y
_atom_site_fract_z
_atom_site_charge
La	La	0.79235 0.03844 0.95774 1.64700
La	La	0.58678 0.96409 0.44074 1.70300
S 	S 	0.25810 0.05736 0.18774 0.08700
S 	S 	0.63210 0.29124 0.79814 0.11100
S 	S 	0.59530 0.30682 0.04923 0.13300
O 	O 	0.65830 0.99540 0.11160 -0.38900
O 	O 	0.64110 0.99330 0.26950 -0.42100
O 	O 	0.92160 0.90910 0.42690 -0.38900
O 	O 	0.24230 0.91240 0.46070 -0.35200
O 	O 	0.73350 0.97200 0.78340 -0.31300
O 	O 	0.67300 0.97940 0.61970 -0.35000
O 	O 	0.41300 0.11270 0.49330 -0.42300
O 	O 	0.38250 0.28290 0.49410 -0.37400
O 	O 	0.42110 0.02530 0.90280 -0.38300
O 	O 	0.11430 0.05900 0.90880 -0.39300
O 	O 	0.92710 0.21710 0.99540 -0.40600
O 	O 	0.00040 0.38250 0.99240 -0.38200
N 	N 	0.02580 0.04980 0.15070 -0.14900
N 	N 	0.26900 0.01000 0.29870 -0.20000
N 	N 	0.68490 0.16910 0.80110 -0.17600
N 	N 	0.53650 0.29790 0.68340 -0.16400
N 	N 	0.54800 0.19200 0.00330 -0.16700
N 	N 	0.37160 0.34010 0.04400 -0.15300
C 	C 	0.94800 0.00960 0.22480 -0.14200
C 	C 	0.09060 0.98610 0.31100 0.05100
C 	C 	0.73280 0.99710 0.20070 0.43700
C 	C 	0.07900 0.93110 0.40760 0.33000
C 	C 	0.62760 0.13040 0.71140 -0.01400
C 	C 	0.54070 0.20510 0.64180 -0.05200
C 	C 	0.67860 0.01700 0.70330 0.26400
C 	C 	0.44130 0.19870 0.53420 0.34700
C 	C 	0.35780 0.17910 0.98170 -0.02900
C 	C 	0.25580 0.26500 0.00750 -0.04500
C 	C 	0.29040 0.07960 0.92780 0.34900
C 	C 	0.04340 0.28790 0.99680 0.37100
La	La	0.20765 0.53844 0.04226 1.68400
La	La	0.41322 0.46409 0.55926 1.67800
S 	S 	0.74190 0.55736 0.81226 0.11200
S 	S 	0.36790 0.79124 0.20186 0.11800
S 	S 	0.40470 0.80682 0.95077 0.15300
O 	O 	0.34170 0.49540 0.88840 -0.39800
O 	O 	0.35890 0.49330 0.73050 -0.42300
O 	O 	0.07840 0.40910 0.57310 -0.40900
O 	O 	0.75770 0.41240 0.53930 -0.36900
O 	O 	0.26650 0.47200 0.21660 -0.38800
O 	O 	0.32700 0.47940 0.38030 -0.41400
O 	O 	0.58700 0.61270 0.50670 -0.40000
O 	O 	0.61750 0.78290 0.50590 -0.36900
O 	O 	0.57890 0.52530 0.09720 -0.36600
O 	O 	0.88570 0.55900 0.09120 -0.38100
O 	O 	0.07290 0.71710 0.00460 -0.41000
O 	O 	0.99960 0.88250 0.00760 -0.36300
N 	N 	0.97420 0.54980 0.84930 -0.15600
N 	N 	0.73100 0.51000 0.70130 -0.16600
N 	N 	0.31510 0.66910 0.19890 -0.17100
N 	N 	0.46350 0.79790 0.31660 -0.16600
N 	N 	0.45200 0.69200 0.99670 -0.16400
N 	N 	0.62840 0.84010 0.95600 -0.14800
C 	C 	0.05200 0.50960 0.77520 -0.05600
C 	C 	0.90940 0.48610 0.68900 -0.02800
C 	C 	0.26720 0.49710 0.79930 0.38200
C 	C 	0.92100 0.43110 0.59240 0.35900
C 	C 	0.37240 0.63040 0.28860 -0.03900
C 	C 	0.45930 0.70510 0.35820 -0.03600
C 	C 	0.32140 0.51700 0.29670 0.38000
C 	C 	0.55870 0.69870 0.46580 0.34100
C 	C 	0.64220 0.67910 0.01830 -0.03800
C 	C 	0.74420 0.76500 0.99250 -0.03000
C 	C 	0.70960 0.57960 0.07220 0.35100
C 	C 	0.95660 0.78790 0.00320 0.36600
