data_crystal

_cell_length_a 25.02750
_cell_length_b 25.02750
_cell_length_c 25.02750
_cell_angle_alpha 109.47100
_cell_angle_beta  109.47100
_cell_angle_gamma 109.47100

_symmetry_space_group_name_	'P 1'
_symmetry_space_group_name_H-M	'P 1'

loop_
_symmetry_equiv_pos_as_xyz
  x,y,z

loop_
_atom_site_label
_atom_site_type_symbol
_atom_site_fract_x
_atom_site_fract_y
_atom_site_fract_z
_atom_site_charge
Fe	Fe	0.17554 -0.00000 0.51914 1.13100
Fe	Fe	0.51914 0.00000 0.17554 1.13100
Fe	Fe	0.65640 0.48086 0.48086 1.15100
Fe	Fe	0.00000 0.17554 0.51914 1.13100
Fe	Fe	0.48086 0.48086 0.65640 1.15100
Fe	Fe	0.17554 0.51914 -0.00000 1.13100
Fe	Fe	0.82446 0.34360 0.82446 1.15300
Fe	Fe	0.82446 0.82446 0.34360 1.15300
Fe	Fe	0.51914 0.17554 -0.00000 1.13200
Fe	Fe	0.00000 0.51914 0.17554 1.13200
Fe	Fe	0.34360 0.82446 0.82446 1.15300
Fe	Fe	0.48086 0.65640 0.48086 1.15200
Cu	Cu	0.57500 0.25659 0.72977 0.81200
Cu	Cu	0.27023 0.84523 0.52682 0.81400
Cu	Cu	0.72977 0.25659 0.57500 0.81200
Cu	Cu	0.47318 0.74341 0.31841 0.81200
Cu	Cu	0.68159 0.15477 0.42500 0.81300
Cu	Cu	0.74341 0.31841 0.47318 0.81200
Cu	Cu	0.84523 0.52682 0.27023 0.81400
Cu	Cu	0.72977 0.57500 0.25659 0.81200
Cu	Cu	0.52682 0.27023 0.84523 0.81400
Cu	Cu	0.25659 0.72977 0.57500 0.81200
Cu	Cu	0.31841 0.74341 0.47318 0.81200
Cu	Cu	0.68159 0.42500 0.15477 0.81300
Cu	Cu	0.42500 0.15477 0.68159 0.81300
Cu	Cu	0.84523 0.27023 0.52682 0.81400
Cu	Cu	0.52682 0.84523 0.27023 0.81400
Cu	Cu	0.27023 0.52682 0.84523 0.81400
Cu	Cu	0.42500 0.68159 0.15477 0.81300
Cu	Cu	0.25659 0.57500 0.72977 0.81200
Cu	Cu	0.31841 0.47318 0.74341 0.81200
Cu	Cu	0.47318 0.31841 0.74341 0.81200
Cu	Cu	0.74341 0.47318 0.31841 0.81200
Cu	Cu	0.15477 0.42500 0.68159 0.81300
Cu	Cu	0.15477 0.68159 0.42500 0.81300
Cu	Cu	0.57500 0.72977 0.25659 0.81200
P 	P 	0.55021 0.93844 0.27259 0.01600
P 	P 	0.72741 0.66585 0.27762 -0.01500
P 	P 	0.72238 0.38823 0.44979 -0.01500
P 	P 	0.06156 0.61177 0.33415 -0.01800
P 	P 	0.27259 0.55021 0.93844 0.01600
P 	P 	0.27259 0.93844 0.55021 0.01600
P 	P 	0.61177 0.06156 0.33415 -0.01800
P 	P 	0.44979 0.72238 0.38823 -0.01500
P 	P 	0.66585 0.27762 0.72741 -0.01500
P 	P 	0.38823 0.44979 0.72238 -0.01500
P 	P 	0.33415 0.61177 0.06156 -0.01800
P 	P 	0.33415 0.06156 0.61177 -0.01800
P 	P 	0.06156 0.33415 0.61177 -0.01800
P 	P 	0.27762 0.66585 0.72741 -0.01500
P 	P 	0.72741 0.27762 0.66585 -0.01500
P 	P 	0.61177 0.33415 0.06156 -0.01800
P 	P 	0.93844 0.55021 0.27259 0.01600
P 	P 	0.55021 0.27259 0.93844 0.01600
P 	P 	0.38823 0.72238 0.44979 -0.01500
P 	P 	0.72238 0.44979 0.38823 -0.01500
P 	P 	0.93844 0.27259 0.55021 0.01600
P 	P 	0.66585 0.72741 0.27762 -0.01500
P 	P 	0.27762 0.72741 0.66585 -0.01500
P 	P 	0.44979 0.38823 0.72238 -0.01500
H 	H 	0.34890 0.05930 0.78240 0.32100
H 	H 	0.60130 0.67330 0.51800 0.04400
H 	H 	0.15120 0.57010 0.92090 0.06200
H 	H 	0.05930 0.34890 0.78240 0.32100
H 	H 	0.43280 0.70300 0.76620 0.34200
H 	H 	0.74880 0.37080 0.09840 0.30700
H 	H 	0.43210 0.94620 0.85650 0.04300
H 	H 	0.14350 0.57560 0.08970 0.02300
H 	H 	0.35080 0.42990 0.58110 0.05700
H 	H 	0.66660 0.23380 0.93680 0.30900
H 	H 	0.45110 0.86240 0.54910 0.34900
H 	H 	0.45090 0.90200 0.31330 0.30500
H 	H 	0.76620 0.70300 0.43280 0.34200
H 	H 	0.25820 0.07720 0.49620 0.04000
H 	H 	0.92800 0.32670 0.84470 0.05200
H 	H 	0.45090 0.31330 0.90200 0.30500
H 	H 	0.32670 0.92800 0.84470 0.05200
H 	H 	0.91030 0.05380 0.48590 0.02400
H 	H 	0.23030 0.07910 0.64920 0.05400
H 	H 	0.34690 0.06260 0.48170 0.30300
H 	H 	0.15530 0.08330 0.48200 0.03200
H 	H 	0.94620 0.85650 0.43210 0.04300
H 	H 	0.72980 0.06320 0.29700 0.30700
H 	H 	0.06320 0.72980 0.29700 0.30700
H 	H 	0.08970 0.57560 0.14350 0.02300
H 	H 	0.71570 0.65310 0.13480 0.32500
H 	H 	0.56720 0.27020 0.33340 0.32900
H 	H 	0.51800 0.67330 0.60130 0.04400
H 	H 	0.92090 0.57010 0.15120 0.06200
H 	H 	0.07910 0.64920 0.23030 0.05400
H 	H 	0.32670 0.84470 0.92800 0.05200
H 	H 	0.84880 0.76970 0.41890 0.06200
H 	H 	0.27020 0.33340 0.56720 0.32900
H 	H 	0.43350 0.71040 0.65110 0.35400
H 	H 	0.72760 0.62920 0.37800 0.33300
H 	H 	0.62200 0.34960 0.25120 0.32500
H 	H 	0.81900 0.74180 0.23800 0.04600
H 	H 	0.15120 0.92090 0.57010 0.06200
H 	H 	0.31330 0.90200 0.45090 0.30500
H 	H 	0.18100 0.92280 0.41900 0.04900
H 	H 	0.93680 0.23380 0.66660 0.30900
H 	H 	0.90200 0.31330 0.45090 0.30500
H 	H 	0.34690 0.48170 0.06260 0.30300
H 	H 	0.86520 0.58090 0.51830 0.34900
H 	H 	0.07910 0.23030 0.64920 0.05400
H 	H 	0.08330 0.48200 0.15530 0.03200
H 	H 	0.48590 0.91030 0.05380 0.02400
H 	H 	0.33340 0.56720 0.27020 0.32900
H 	H 	0.06260 0.34690 0.48170 0.30300
H 	H 	0.58100 0.50380 0.76200 0.04700
H 	H 	0.51620 0.57370 0.92450 0.35600
H 	H 	0.91030 0.48590 0.05380 0.02400
H 	H 	0.48200 0.08330 0.15530 0.03200
H 	H 	0.85650 0.43210 0.94620 0.04300
H 	H 	0.29700 0.72980 0.06320 0.30700
H 	H 	0.14350 0.08970 0.57560 0.02300
H 	H 	0.94070 0.28960 0.72310 0.32500
H 	H 	0.23030 0.64920 0.07910 0.05400
H 	H 	0.49620 0.25820 0.07720 0.04000
H 	H 	0.93740 0.41910 0.28430 0.30600
H 	H 	0.91670 0.39870 0.07200 0.03900
H 	H 	0.25820 0.49620 0.07720 0.04000
H 	H 	0.72760 0.37800 0.62920 0.33300
H 	H 	0.27020 0.56720 0.33340 0.32900
H 	H 	0.07720 0.25820 0.49620 0.04000
H 	H 	0.42630 0.94250 0.35080 0.31200
H 	H 	0.91670 0.07200 0.39870 0.03900
H 	H 	0.50380 0.76200 0.58100 0.04700
H 	H 	0.93680 0.66660 0.23380 0.30900
H 	H 	0.21760 0.27690 0.56650 0.34400
H 	H 	0.48200 0.15530 0.08330 0.03200
H 	H 	0.37080 0.09840 0.74880 0.30700
H 	H 	0.59170 0.07550 0.64920 0.32200
H 	H 	0.28430 0.93740 0.41910 0.30600
H 	H 	0.40830 0.05750 0.48380 0.30500
H 	H 	0.07200 0.91670 0.39870 0.03900
H 	H 	0.92280 0.41900 0.18100 0.04900
H 	H 	0.62200 0.25120 0.34960 0.32500
H 	H 	0.51410 0.56790 0.42440 0.02900
H 	H 	0.37800 0.62920 0.72760 0.33300
H 	H 	0.86240 0.54910 0.45110 0.34900
H 	H 	0.71570 0.13480 0.65310 0.32500
H 	H 	0.41900 0.92280 0.18100 0.04900
H 	H 	0.59170 0.64920 0.07550 0.32200
H 	H 	0.06320 0.29700 0.72980 0.30700
H 	H 	0.08330 0.15530 0.48200 0.03200
H 	H 	0.90160 0.27240 0.65040 0.30100
H 	H 	0.72980 0.29700 0.06320 0.30700
H 	H 	0.92280 0.18100 0.41900 0.04900
H 	H 	0.42440 0.56790 0.51410 0.02900
H 	H 	0.76620 0.43280 0.70300 0.34200
H 	H 	0.23380 0.93680 0.66660 0.30900
H 	H 	0.92800 0.84470 0.32670 0.05200
H 	H 	0.37080 0.74880 0.09840 0.30700
H 	H 	0.28960 0.94070 0.72310 0.32500
H 	H 	0.92090 0.15120 0.57010 0.06200
H 	H 	0.28960 0.72310 0.94070 0.32500
H 	H 	0.90200 0.45090 0.31330 0.30500
H 	H 	0.60130 0.51800 0.67330 0.04400
H 	H 	0.23380 0.66660 0.93680 0.30900
H 	H 	0.48380 0.05750 0.40830 0.30500
H 	H 	0.27690 0.21760 0.56650 0.34400
H 	H 	0.94250 0.42630 0.35080 0.31200
H 	H 	0.27690 0.56650 0.21760 0.34400
H 	H 	0.92450 0.57370 0.51620 0.35600
H 	H 	0.67330 0.51800 0.60130 0.04400
H 	H 	0.41890 0.76970 0.84880 0.06200
H 	H 	0.05930 0.78240 0.34890 0.32100
H 	H 	0.48380 0.40830 0.05750 0.30500
H 	H 	0.81900 0.23800 0.74180 0.04600
H 	H 	0.57560 0.14350 0.08970 0.02300
H 	H 	0.70300 0.43280 0.76620 0.34200
H 	H 	0.65310 0.13480 0.71570 0.32500
H 	H 	0.54910 0.45110 0.86240 0.34900
H 	H 	0.74880 0.09840 0.37080 0.30700
H 	H 	0.51830 0.86520 0.58090 0.34900
H 	H 	0.09840 0.74880 0.37080 0.30700
H 	H 	0.13480 0.71570 0.65310 0.32500
H 	H 	0.64920 0.07910 0.23030 0.05400
H 	H 	0.13760 0.68670 0.58870 0.32600
H 	H 	0.90160 0.65040 0.27240 0.30100
H 	H 	0.35080 0.58110 0.42990 0.05700
H 	H 	0.34890 0.78240 0.05930 0.32100
H 	H 	0.35080 0.42630 0.94250 0.31200
H 	H 	0.62920 0.72760 0.37800 0.33300
H 	H 	0.48170 0.34690 0.06260 0.30300
H 	H 	0.54890 0.09800 0.41130 0.31100
H 	H 	0.58870 0.68670 0.13760 0.32600
H 	H 	0.27240 0.90160 0.65040 0.30100
H 	H 	0.93740 0.28430 0.41910 0.30600
H 	H 	0.58090 0.86520 0.51830 0.34900
H 	H 	0.42630 0.35080 0.94250 0.31200
H 	H 	0.78240 0.34890 0.05930 0.32100
H 	H 	0.57560 0.08970 0.14350 0.02300
H 	H 	0.71040 0.65110 0.43350 0.35400
H 	H 	0.54910 0.86240 0.45110 0.34900
H 	H 	0.86520 0.51830 0.58090 0.34900
H 	H 	0.65110 0.71040 0.43350 0.35400
H 	H 	0.33340 0.27020 0.56720 0.32900
H 	H 	0.65040 0.90160 0.27240 0.30100
H 	H 	0.43280 0.76620 0.70300 0.34200
H 	H 	0.13480 0.65310 0.71570 0.32500
H 	H 	0.84880 0.41890 0.76970 0.06200
H 	H 	0.07550 0.64920 0.59170 0.32200
H 	H 	0.43210 0.85650 0.94620 0.04300
H 	H 	0.65110 0.43350 0.71040 0.35400
H 	H 	0.74180 0.81900 0.23800 0.04600
H 	H 	0.72310 0.94070 0.28960 0.32500
H 	H 	0.84470 0.32670 0.92800 0.05200
H 	H 	0.56790 0.51410 0.42440 0.02900
H 	H 	0.09800 0.54890 0.41130 0.31100
H 	H 	0.41130 0.54890 0.09800 0.31100
H 	H 	0.42440 0.51410 0.56790 0.02900
H 	H 	0.68670 0.58870 0.13760 0.32600
H 	H 	0.09840 0.37080 0.74880 0.30700
H 	H 	0.49620 0.07720 0.25820 0.04000
H 	H 	0.94620 0.43210 0.85650 0.04300
H 	H 	0.64920 0.59170 0.07550 0.32200
H 	H 	0.50380 0.58100 0.76200 0.04700
H 	H 	0.94070 0.72310 0.28960 0.32500
H 	H 	0.05750 0.48380 0.40830 0.30500
H 	H 	0.48170 0.06260 0.34690 0.30300
H 	H 	0.56650 0.21760 0.27690 0.34400
H 	H 	0.35080 0.94250 0.42630 0.31200
H 	H 	0.34960 0.62200 0.25120 0.32500
H 	H 	0.58870 0.13760 0.68670 0.32600
H 	H 	0.05750 0.40830 0.48380 0.30500
H 	H 	0.58110 0.35080 0.42990 0.05700
H 	H 	0.76970 0.41890 0.84880 0.06200
H 	H 	0.09800 0.41130 0.54890 0.31100
H 	H 	0.65310 0.71570 0.13480 0.32500
H 	H 	0.56650 0.27690 0.21760 0.34400
H 	H 	0.76200 0.50380 0.58100 0.04700
H 	H 	0.51830 0.58090 0.86520 0.34900
H 	H 	0.94250 0.35080 0.42630 0.31200
H 	H 	0.23800 0.81900 0.74180 0.04600
H 	H 	0.18100 0.41900 0.92280 0.04900
H 	H 	0.29700 0.06320 0.72980 0.30700
H 	H 	0.71040 0.43350 0.65110 0.35400
H 	H 	0.64920 0.23030 0.07910 0.05400
H 	H 	0.58110 0.42990 0.35080 0.05700
H 	H 	0.41890 0.84880 0.76970 0.06200
H 	H 	0.51620 0.92450 0.57370 0.35600
H 	H 	0.06260 0.48170 0.34690 0.30300
H 	H 	0.68670 0.13760 0.58870 0.32600
H 	H 	0.72310 0.28960 0.94070 0.32500
H 	H 	0.13760 0.58870 0.68670 0.32600
H 	H 	0.41900 0.18100 0.92280 0.04900
H 	H 	0.48590 0.05380 0.91030 0.02400
H 	H 	0.57010 0.15120 0.92090 0.06200
H 	H 	0.58090 0.51830 0.86520 0.34900
H 	H 	0.58100 0.76200 0.50380 0.04700
H 	H 	0.15530 0.48200 0.08330 0.03200
H 	H 	0.56790 0.42440 0.51410 0.02900
H 	H 	0.62920 0.37800 0.72760 0.33300
H 	H 	0.05380 0.91030 0.48590 0.02400
H 	H 	0.07550 0.59170 0.64920 0.32200
H 	H 	0.07720 0.49620 0.25820 0.04000
H 	H 	0.76200 0.58100 0.50380 0.04700
H 	H 	0.92450 0.51620 0.57370 0.35600
H 	H 	0.54890 0.41130 0.09800 0.31100
H 	H 	0.28430 0.41910 0.93740 0.30600
H 	H 	0.66660 0.93680 0.23380 0.30900
H 	H 	0.25120 0.34960 0.62200 0.32500
H 	H 	0.78240 0.05930 0.34890 0.32100
H 	H 	0.25120 0.62200 0.34960 0.32500
H 	H 	0.27240 0.65040 0.90160 0.30100
H 	H 	0.41910 0.28430 0.93740 0.30600
H 	H 	0.76970 0.84880 0.41890 0.06200
H 	H 	0.08970 0.14350 0.57560 0.02300
H 	H 	0.85650 0.94620 0.43210 0.04300
H 	H 	0.41910 0.93740 0.28430 0.30600
H 	H 	0.05380 0.48590 0.91030 0.02400
H 	H 	0.45110 0.54910 0.86240 0.34900
H 	H 	0.39870 0.07200 0.91670 0.03900
H 	H 	0.84470 0.92800 0.32670 0.05200
H 	H 	0.65040 0.27240 0.90160 0.30100
H 	H 	0.42990 0.58110 0.35080 0.05700
H 	H 	0.34960 0.25120 0.62200 0.32500
H 	H 	0.42990 0.35080 0.58110 0.05700
H 	H 	0.56720 0.33340 0.27020 0.32900
H 	H 	0.31330 0.45090 0.90200 0.30500
H 	H 	0.74180 0.23800 0.81900 0.04600
H 	H 	0.57010 0.92090 0.15120 0.06200
H 	H 	0.43350 0.65110 0.71040 0.35400
H 	H 	0.23800 0.74180 0.81900 0.04600
H 	H 	0.41130 0.09800 0.54890 0.31100
H 	H 	0.51410 0.42440 0.56790 0.02900
H 	H 	0.37800 0.72760 0.62920 0.33300
H 	H 	0.70300 0.76620 0.43280 0.34200
H 	H 	0.64920 0.07550 0.59170 0.32200
H 	H 	0.21760 0.56650 0.27690 0.34400
H 	H 	0.40830 0.48380 0.05750 0.30500
H 	H 	0.67330 0.60130 0.51800 0.04400
H 	H 	0.07200 0.39870 0.91670 0.03900
H 	H 	0.51800 0.60130 0.67330 0.04400
H 	H 	0.86240 0.45110 0.54910 0.34900
H 	H 	0.57370 0.92450 0.51620 0.35600
H 	H 	0.57370 0.51620 0.92450 0.35600
H 	H 	0.39870 0.91670 0.07200 0.03900
C 	C 	0.38380 0.05990 0.50610 -1.00300
C 	C 	0.91490 0.09130 0.48360 -0.11500
C 	C 	0.39230 0.82360 0.90870 -0.11700
C 	C 	0.71700 0.55390 0.47570 -0.19500
C 	C 	0.39230 0.90870 0.82360 -0.11700
C 	C 	0.86140 0.44250 0.44250 -0.20900
C 	C 	0.33360 0.81680 0.89920 -0.19200
C 	C 	0.56560 0.66640 0.48320 -0.19500
C 	C 	0.33630 0.06060 0.74230 -0.99900
C 	C 	0.29200 0.29200 0.68200 -0.15800
C 	C 	0.08510 0.56870 0.17640 -0.12300
C 	C 	0.12230 0.61620 0.67610 -1.05800
C 	C 	0.68170 0.27570 0.93940 -0.96000
C 	C 	0.50610 0.05990 0.38380 -1.00300
C 	C 	0.63980 0.15180 0.63980 0.55600
C 	C 	0.84820 0.48800 0.48800 0.58900
C 	C 	0.44250 0.44250 0.86140 -0.20900
C 	C 	0.32390 0.44620 0.94010 -0.96600
C 	C 	0.68490 0.41800 0.49350 -0.12300
C 	C 	0.55390 0.47570 0.71700 -0.19500
C 	C 	0.48800 0.84820 0.48800 0.58900
C 	C 	0.28300 0.75870 0.83690 -0.19300
C 	C 	0.38560 0.85450 0.77470 -0.20200
C 	C 	0.41800 0.49350 0.68490 -0.12300
C 	C 	0.72430 0.66370 0.40600 -1.08400
C 	C 	0.07550 0.58200 0.26690 -0.12500
C 	C 	0.07550 0.26690 0.58200 -0.12500
C 	C 	0.92450 0.50650 0.19140 -0.11700
C 	C 	0.36020 0.51200 -0.00000 0.49900
C 	C 	0.55380 0.49390 0.87770 -1.12000
C 	C 	0.16310 0.92180 0.44610 -0.18900
C 	C 	0.43130 0.51640 0.60770 -0.12000
C 	C 	0.58110 0.58110 0.13860 -0.21200
C 	C 	0.14550 0.92020 0.53110 -0.20000
C 	C 	0.55380 0.87770 0.49390 -1.12000
C 	C 	0.83690 0.28300 0.75870 -0.19300
C 	C 	0.44610 0.92180 0.16310 -0.18900
C 	C 	0.09130 0.91490 0.48360 -0.11500
C 	C 	-0.00000 0.51200 0.36020 0.49900
C 	C 	0.19140 0.92450 0.50650 -0.11700
C 	C 	0.41890 0.55750 -0.00000 -0.21700
C 	C 	0.92180 0.44610 0.16310 -0.18900
C 	C 	0.06060 0.74230 0.33630 -0.99900
C 	C 	0.44620 0.94010 0.32390 -0.96600
C 	C 	0.49390 0.87770 0.55380 -1.12000
C 	C 	0.70800 0.00000 0.39000 -0.16400
C 	C 	0.50650 0.92450 0.19140 -0.11700
C 	C 	0.61090 0.22530 0.07980 -0.20800
C 	C 	0.39000 0.70800 -0.00000 -0.16400
C 	C 	0.36020 0.00000 0.51200 0.49900
C 	C 	0.68970 0.32470 -0.00000 0.48900
C 	C 	0.19140 0.50650 0.92450 -0.11700
C 	C 	0.27570 0.68170 0.93940 -0.96000
C 	C 	0.61620 0.67610 0.12230 -1.05800
C 	C 	-0.00000 0.32470 0.68970 0.48900
C 	C 	0.31510 0.73310 0.80860 -0.12300
C 	C 	0.55750 0.00000 0.41890 -0.21700
C 	C 	0.59400 0.25770 0.31830 -1.06100
C 	C 	0.18320 0.08240 0.51680 -0.19700
C 	C 	0.56870 0.08510 0.17640 -0.12300
C 	C 	0.68170 0.93940 0.27570 -0.96000
C 	C 	0.85450 0.38560 0.77470 -0.20200
C 	C 	0.07980 0.61090 0.22530 -0.20800
C 	C 	0.22530 0.07980 0.61090 -0.20800
C 	C 	0.51640 0.43130 0.60770 -0.12000
C 	C 	-0.00000 0.41890 0.55750 -0.21700
C 	C 	0.90870 0.39230 0.82360 -0.11700
C 	C 	0.33630 0.74230 0.06060 -0.99900
C 	C 	0.80860 0.31510 0.73310 -0.12300
C 	C 	0.48800 0.48800 0.84820 0.58900
C 	C 	0.28300 0.83690 0.75870 -0.19300
C 	C 	0.53110 0.92020 0.14550 -0.20000
C 	C 	0.81680 0.89920 0.33360 -0.19200
C 	C 	0.61000 0.31800 0.61000 -0.16200
C 	C 	0.81680 0.33360 0.89920 -0.19200
C 	C 	0.55750 0.41890 -0.00000 -0.21700
C 	C 	0.61620 0.12230 0.67610 -1.05800
C 	C 	0.31830 0.59400 0.25770 -1.06100
C 	C 	0.92020 0.14550 0.53110 -0.20000
C 	C 	0.68970 0.00000 0.32470 0.48900
C 	C 	0.48360 0.91490 0.09130 -0.11500
C 	C 	0.24130 0.07820 0.52430 -0.19800
C 	C 	0.77470 0.38560 0.85450 -0.20200
C 	C 	0.33360 0.89920 0.81680 -0.19200
C 	C 	0.43440 0.91760 0.10080 -0.19000
C 	C 	0.40600 0.66370 0.72430 -1.08400
C 	C 	0.70800 0.39000 -0.00000 -0.16400
C 	C 	0.58110 0.13860 0.58110 -0.21200
C 	C 	0.43130 0.60770 0.51640 -0.12000
C 	C 	0.63500 0.31030 0.31030 0.54900
C 	C 	0.66640 0.48320 0.56560 -0.19500
C 	C 	0.66370 0.72430 0.40600 -1.08400
C 	C 	0.06060 0.33630 0.74230 -0.99900
C 	C 	0.12230 0.67610 0.61620 -1.05800
C 	C 	0.08510 0.17640 0.56870 -0.12300
C 	C 	0.08240 0.18320 0.51680 -0.19700
C 	C 	0.52430 0.24130 0.07820 -0.19800
C 	C 	0.26690 0.58200 0.07550 -0.12500
C 	C 	0.92450 0.19140 0.50650 -0.11700
C 	C 	0.74230 0.33630 0.06060 -0.99900
C 	C 	-0.00000 0.36020 0.51200 0.49900
C 	C 	0.61440 0.38910 0.46890 -0.20600
C 	C 	0.50610 0.38380 0.05990 -1.00300
C 	C 	0.60770 0.51640 0.43130 -0.12000
C 	C 	0.89920 0.81680 0.33360 -0.19200
C 	C 	0.67610 0.61620 0.12230 -1.05800
C 	C 	0.50650 0.19140 0.92450 -0.11700
C 	C 	0.38380 0.50610 0.05990 -1.00300
C 	C 	0.58200 0.07550 0.26690 -0.12500
C 	C 	0.55390 0.71700 0.47570 -0.19500
C 	C 	0.40600 0.72430 0.66370 -1.08400
C 	C 	0.32470 0.68970 -0.00000 0.48900
C 	C 	0.67530 0.67530 0.36500 0.56200
C 	C 	0.61090 0.07980 0.22530 -0.20800
C 	C 	0.17640 0.56870 0.08510 -0.12300
C 	C 	-0.00000 0.68970 0.32470 0.48900
C 	C 	0.47570 0.71700 0.55390 -0.19500
C 	C 	0.67530 0.36500 0.67530 0.56200
C 	C 	0.31800 0.61000 0.61000 -0.16200
C 	C 	-0.00000 0.55750 0.41890 -0.21700
C 	C 	0.47570 0.55390 0.71700 -0.19500
C 	C 	0.49350 0.68490 0.41800 -0.12300
C 	C 	0.26690 0.07550 0.58200 -0.12500
C 	C 	0.68490 0.49350 0.41800 -0.12300
C 	C 	0.27570 0.93940 0.68170 -0.96000
C 	C 	0.82360 0.90870 0.39230 -0.11700
C 	C 	0.17640 0.08510 0.56870 -0.12300
C 	C 	0.60770 0.43130 0.51640 -0.12000
C 	C 	0.07820 0.24130 0.52430 -0.19800
C 	C 	0.52430 0.07820 0.24130 -0.19800
C 	C 	0.13860 0.58110 0.58110 -0.21200
C 	C 	0.80860 0.73310 0.31510 -0.12300
C 	C 	0.10080 0.91760 0.43440 -0.19000
C 	C 	0.46890 0.61440 0.38910 -0.20600
C 	C 	0.09130 0.48360 0.91490 -0.11500
C 	C 	0.29200 0.68200 0.29200 -0.15800
C 	C 	0.73310 0.31510 0.80860 -0.12300
C 	C 	0.41890 -0.00000 0.55750 -0.21700
C 	C 	0.31030 0.31030 0.63500 0.54900
C 	C 	0.08240 0.51680 0.18320 -0.19700
C 	C 	0.49390 0.55380 0.87770 -1.12000
C 	C 	0.14550 0.53110 0.92020 -0.20000
C 	C 	0.93940 0.27570 0.68170 -0.96000
C 	C 	0.31510 0.80860 0.73310 -0.12300
C 	C 	0.48320 0.56560 0.66640 -0.19500
C 	C 	0.00000 0.70800 0.39000 -0.16400
C 	C 	0.75870 0.83690 0.28300 -0.19300
C 	C 	0.66370 0.40600 0.72430 -1.08400
C 	C 	0.51200 0.36020 -0.00000 0.49900
C 	C 	0.51640 0.60770 0.43130 -0.12000
C 	C 	0.51680 0.08240 0.18320 -0.19700
C 	C 	0.31830 0.25770 0.59400 -1.06100
C 	C 	0.73310 0.80860 0.31510 -0.12300
C 	C 	0.75870 0.28300 0.83690 -0.19300
C 	C 	0.61000 0.61000 0.31800 -0.16200
C 	C 	0.25770 0.59400 0.31830 -1.06100
C 	C 	0.53110 0.14550 0.92020 -0.20000
C 	C 	0.10080 0.43440 0.91760 -0.19000
C 	C 	0.07820 0.52430 0.24130 -0.19800
C 	C 	0.05990 0.50610 0.38380 -1.00300
C 	C 	0.61440 0.46890 0.38910 -0.20600
C 	C 	0.25770 0.31830 0.59400 -1.06100
C 	C 	0.63980 0.63980 0.15180 0.55600
C 	C 	0.16310 0.44610 0.92180 -0.18900
C 	C 	0.32390 0.94010 0.44620 -0.96600
C 	C 	0.74230 0.06060 0.33630 -0.99900
C 	C 	0.92020 0.53110 0.14550 -0.20000
C 	C 	0.31030 0.63500 0.31030 0.54900
C 	C 	0.48360 0.09130 0.91490 -0.11500
C 	C 	0.72430 0.40600 0.66370 -1.08400
C 	C 	0.48320 0.66640 0.56560 -0.19500
C 	C 	0.56870 0.17640 0.08510 -0.12300
C 	C 	0.71700 0.47570 0.55390 -0.19500
C 	C 	0.15180 0.63980 0.63980 0.55600
C 	C 	0.44610 0.16310 0.92180 -0.18900
C 	C 	0.05990 0.38380 0.50610 -1.00300
C 	C 	0.38910 0.46890 0.61440 -0.20600
C 	C 	0.94010 0.44620 0.32390 -0.96600
C 	C 	0.36500 0.67530 0.67530 0.56200
C 	C 	0.87770 0.55380 0.49390 -1.12000
C 	C 	0.68200 0.29200 0.29200 -0.15800
C 	C 	0.51200 -0.00000 0.36020 0.49900
C 	C 	0.90870 0.82360 0.39230 -0.11700
C 	C 	0.43440 0.10080 0.91760 -0.19000
C 	C 	0.56560 0.48320 0.66640 -0.19500
C 	C 	0.49350 0.41800 0.68490 -0.12300
C 	C 	0.89920 0.33360 0.81680 -0.19200
C 	C 	0.24130 0.52430 0.07820 -0.19800
C 	C 	0.32470 0.00000 0.68970 0.48900
C 	C 	0.44620 0.32390 0.94010 -0.96600
C 	C 	0.91490 0.48360 0.09130 -0.11500
C 	C 	0.94010 0.32390 0.44620 -0.96600
C 	C 	0.87770 0.49390 0.55380 -1.12000
C 	C 	0.44250 0.86140 0.44250 -0.20900
C 	C 	0.58200 0.26690 0.07550 -0.12500
C 	C 	0.91760 0.43440 0.10080 -0.19000
C 	C 	0.38560 0.77470 0.85450 -0.20200
C 	C 	0.82360 0.39230 0.90870 -0.11700
C 	C 	0.59400 0.31830 0.25770 -1.06100
C 	C 	0.66640 0.56560 0.48320 -0.19500
C 	C 	0.41800 0.68490 0.49350 -0.12300
C 	C 	0.67610 0.12230 0.61620 -1.05800
C 	C 	0.77470 0.85450 0.38560 -0.20200
C 	C 	0.18320 0.51680 0.08240 -0.19700
C 	C 	0.46890 0.38910 0.61440 -0.20600
C 	C 	0.22530 0.61090 0.07980 -0.20800
C 	C 	0.39000 0.00000 0.70800 -0.16400
C 	C 	0.83690 0.75870 0.28300 -0.19300
C 	C 	0.51680 0.18320 0.08240 -0.19700
C 	C 	0.93940 0.68170 0.27570 -0.96000
C 	C 	0.00000 0.39000 0.70800 -0.16400
C 	C 	0.07980 0.22530 0.61090 -0.20800
C 	C 	0.92180 0.16310 0.44610 -0.18900
C 	C 	0.85450 0.77470 0.38560 -0.20200
C 	C 	0.91760 0.10080 0.43440 -0.19000
C 	C 	0.38910 0.61440 0.46890 -0.20600
Br	Br	0.23356 0.46954 0.64460 -0.72100
Br	Br	0.23598 0.76644 0.41104 -0.71800
Br	Br	0.58896 0.35540 0.82494 -0.71200
Br	Br	0.35540 0.82494 0.58896 -0.71200
Br	Br	0.23356 0.64460 0.46954 -0.72100
Br	Br	0.82494 0.58896 0.35540 -0.71200
Br	Br	0.46954 0.64460 0.23356 -0.72100
Br	Br	0.58896 0.82494 0.35540 -0.71200
Br	Br	0.76644 0.23598 0.41104 -0.71800
Br	Br	0.17506 0.76402 0.53046 -0.72100
Br	Br	0.76402 0.53046 0.17506 -0.72100
Br	Br	0.76402 0.17506 0.53046 -0.72100
Br	Br	0.53046 0.17506 0.76402 -0.72100
Br	Br	0.53046 0.76402 0.17506 -0.72100
Br	Br	0.82494 0.35540 0.58896 -0.71200
Br	Br	0.64460 0.46954 0.23356 -0.72100
Br	Br	0.17506 0.53046 0.76402 -0.72100
Br	Br	0.64460 0.23356 0.46954 -0.72100
Br	Br	0.41104 0.23598 0.76644 -0.71800
Br	Br	0.46954 0.23356 0.64460 -0.72100
Br	Br	0.76644 0.41104 0.23598 -0.71800
Br	Br	0.35540 0.58896 0.82494 -0.71200
Br	Br	0.23598 0.41104 0.76644 -0.71800
Br	Br	0.41104 0.76644 0.23598 -0.71800
N 	N 	0.69811 0.32482 0.69811 -0.21700
N 	N 	0.31682 0.00000 0.54018 -0.22600
N 	N 	0.68318 0.22336 0.68318 -0.21800
N 	N 	0.69811 0.69811 0.32482 -0.21700
N 	N 	0.22336 0.68318 0.68318 -0.21800
N 	N 	0.30189 0.62671 -0.00000 -0.22300
N 	N 	0.37329 0.37329 0.67518 -0.21500
N 	N 	0.00000 0.30189 0.62671 -0.22300
N 	N 	0.62671 -0.00000 0.30189 -0.22300
N 	N 	0.77664 0.45982 0.45982 -0.22200
N 	N 	0.62671 0.30189 -0.00000 -0.22300
N 	N 	0.30189 0.00000 0.62671 -0.22300
N 	N 	0.45982 0.77664 0.45982 -0.22200
N 	N 	0.00000 0.31682 0.54018 -0.22600
N 	N 	0.32482 0.69811 0.69811 -0.21700
N 	N 	0.31682 0.54018 -0.00000 -0.22600
N 	N 	0.45982 0.45982 0.77664 -0.22200
N 	N 	0.00000 0.54018 0.31682 -0.22600
N 	N 	0.68318 0.68318 0.22336 -0.21800
N 	N 	0.67518 0.37329 0.37329 -0.21500
N 	N 	0.37329 0.67518 0.37329 -0.21500
N 	N 	0.54018 0.31682 -0.00000 -0.22600
N 	N 	0.54018 0.00000 0.31682 -0.22600
N 	N 	-0.00000 0.62671 0.30189 -0.22300
