data_crystal

_cell_length_a 7.32500
_cell_length_b 11.61850
_cell_length_c 14.04800
_cell_angle_alpha 114.06500
_cell_angle_beta  91.50000
_cell_angle_gamma 103.56000

_symmetry_space_group_name_	'P 1'
_symmetry_space_group_name_H-M	'P 1'

loop_
_symmetry_equiv_pos_as_xyz
  x,y,z

loop_
_atom_site_label
_atom_site_type_symbol
_atom_site_fract_x
_atom_site_fract_y
_atom_site_fract_z
_atom_site_charge
Cd	Cd	-0.00000 0.00000 -0.00000 1.09600
Cd	Cd	-0.00000 0.00000 0.50000 1.11200
Ni	Ni	0.51634 0.07716 0.26730 1.05400
Ni	Ni	0.48366 0.92284 0.73270 1.05500
H 	H 	0.21430 0.16810 0.93110 0.01500
H 	H 	0.11480 0.26880 0.03770 -0.01000
H 	H 	0.03940 0.28970 0.87750 -0.05800
H 	H 	0.68190 0.22820 0.86990 0.00400
H 	H 	0.70700 0.14560 0.94980 -0.00300
H 	H 	0.88160 0.34830 0.09100 0.05300
H 	H 	0.86760 0.43260 0.01120 0.04300
H 	H 	0.50990 0.35930 0.99230 0.07200
H 	H 	0.52920 0.28240 0.07730 0.02500
H 	H 	0.69890 0.49940 0.22090 0.03700
H 	H 	0.67130 0.57480 0.13570 0.03100
H 	H 	0.31820 0.48860 0.11710 0.01600
H 	H 	0.34940 0.41910 0.20620 0.02200
H 	H 	0.49440 0.63380 0.34580 0.02900
H 	H 	0.48540 0.70770 0.25750 0.04000
H 	H 	0.12470 0.61900 0.22630 0.00700
H 	H 	0.14340 0.56200 0.32510 0.00300
H 	H 	0.29130 0.84230 0.35660 0.03300
H 	H 	0.29160 0.78210 0.45450 0.01000
H 	H 	0.94360 0.71530 0.42690 0.11000
H 	H 	0.94330 0.77550 0.32900 0.10000
H 	H 	0.78570 0.83190 0.06890 0.06000
H 	H 	0.88520 0.73120 0.96230 0.09300
H 	H 	0.96060 0.71030 0.12250 0.10600
H 	H 	0.31810 0.77180 0.13010 0.03100
H 	H 	0.29300 0.85440 0.05020 0.02100
H 	H 	0.11840 0.65170 0.90900 -0.00100
H 	H 	0.13240 0.56740 0.98880 0.02000
H 	H 	0.49010 0.64070 0.00770 -0.00400
H 	H 	0.47080 0.71760 0.92270 0.04000
H 	H 	0.30110 0.50060 0.77910 0.01600
H 	H 	0.32870 0.42520 0.86430 0.03000
H 	H 	0.68180 0.51140 0.88290 0.05300
H 	H 	0.65060 0.58090 0.79380 0.04100
H 	H 	0.50560 0.36620 0.65420 0.01700
H 	H 	0.51460 0.29230 0.74250 0.01200
H 	H 	0.87530 0.38100 0.77370 0.07000
H 	H 	0.85660 0.43800 0.67490 0.05800
H 	H 	0.70870 0.15770 0.64340 -0.02400
H 	H 	0.70840 0.21790 0.54550 0.00100
H 	H 	0.05640 0.28470 0.57310 -0.02500
H 	H 	0.05670 0.22450 0.67100 -0.04400
C 	C 	0.68440 0.02020 0.32810 -0.39100
C 	C 	0.66880 0.06870 0.16280 -0.27500
C 	C 	0.35730 0.08380 0.37030 -0.28500
C 	C 	0.34410 0.12060 0.19820 -0.30000
C 	C 	0.96250 0.20550 0.88880 0.09900
C 	C 	0.77770 0.22520 0.92950 -0.07500
C 	C 	0.79320 0.35020 0.02750 -0.08400
C 	C 	0.60120 0.36440 0.05860 -0.12000
C 	C 	0.60510 0.49060 0.15380 -0.05600
C 	C 	0.41130 0.49980 0.18520 -0.06800
C 	C 	0.41320 0.62610 0.27550 -0.07200
C 	C 	0.21150 0.63760 0.29870 -0.07400
C 	C 	0.21010 0.76790 0.38150 -0.03400
C 	C 	0.31560 0.97980 0.67190 -0.10400
C 	C 	0.33120 0.93130 0.83720 -0.22100
C 	C 	0.64270 0.91620 0.62970 -0.20900
C 	C 	0.65590 0.87940 0.80180 -0.22300
C 	C 	0.03750 0.79450 0.11120 -0.15200
C 	C 	0.22230 0.77480 0.07050 -0.11200
C 	C 	0.20680 0.64980 0.97250 -0.02700
C 	C 	0.39880 0.63560 0.94140 -0.02900
C 	C 	0.39490 0.50940 0.84620 -0.06500
C 	C 	0.58870 0.50020 0.81480 -0.08000
C 	C 	0.58680 0.37390 0.72450 -0.04600
C 	C 	0.78850 0.36240 0.70130 -0.09700
C 	C 	0.78990 0.23210 0.61850 -0.00700
N 	N 	0.78630 0.98360 0.36360 -0.03000
N 	N 	0.76460 0.06360 0.10000 -0.19100
N 	N 	0.25380 0.08300 0.42930 -0.21500
N 	N 	0.23100 0.13410 0.14860 -0.20300
N 	N 	0.08110 0.18120 0.96120 -0.28500
N 	N 	0.02210 0.78820 0.40200 -0.32800
N 	N 	0.21370 0.01640 0.63640 -0.31300
N 	N 	0.23540 0.93640 0.90000 -0.14800
N 	N 	0.74620 0.91700 0.57070 -0.13700
N 	N 	0.76900 0.86590 0.85140 -0.12600
N 	N 	0.91890 0.81880 0.03880 -0.21000
N 	N 	0.97790 0.21180 0.59800 -0.17400
