data_crystal

_cell_length_a 9.27620
_cell_length_b 14.82300
_cell_length_c 27.40580
_cell_angle_alpha 90.00000
_cell_angle_beta  90.00000
_cell_angle_gamma 90.00000

_symmetry_space_group_name_	'P 1'
_symmetry_space_group_name_H-M	'P 1'

loop_
_symmetry_equiv_pos_as_xyz
  x,y,z

loop_
_atom_site_label
_atom_site_type_symbol
_atom_site_fract_x
_atom_site_fract_y
_atom_site_fract_z
_atom_site_charge
Cu	Cu	0.10961 0.03071 0.43664 0.93600
Cu	Cu	0.10961 0.96929 0.56336 0.93800
Cu	Cu	0.89039 0.53071 0.06336 0.93500
Cu	Cu	0.61287 0.05394 0.43951 0.91200
Cu	Cu	0.38713 0.44606 0.93951 0.91300
Cu	Cu	0.89039 0.46929 0.93664 0.93600
Cu	Cu	0.38713 0.55394 0.06049 0.91300
Cu	Cu	0.61287 0.94606 0.56049 0.91400
H 	H 	0.08590 0.47220 0.32000 0.12400
H 	H 	0.31130 0.70890 0.22070 0.12400
H 	H 	0.47420 0.46210 0.21900 -0.00400
H 	H 	0.09210 0.16100 0.52870 0.00100
H 	H 	0.51650 0.73780 0.38670 0.11700
H 	H 	0.94120 0.06690 0.11140 -0.02000
H 	H 	0.17540 0.31800 0.98160 -0.00200
H 	H 	0.14040 0.57810 0.63180 0.13600
H 	H 	0.88300 0.19410 0.06080 0.09200
H 	H 	0.47080 0.87470 0.42500 -0.01500
H 	H 	0.22160 0.80490 0.30910 0.09700
H 	H 	0.48890 0.27130 0.71720 0.18400
H 	H 	0.40300 0.19960 0.46470 -0.00400
H 	H 	0.22700 0.55900 0.40020 -0.01900
H 	H 	0.35060 0.08960 0.38400 -0.04000
H 	H 	0.05880 0.56690 0.38860 -0.02200
H 	H 	0.40210 0.34210 0.49920 0.09900
H 	H 	0.17540 0.68200 0.01840 -0.00100
H 	H 	0.59790 0.15790 0.99920 0.09600
H 	H 	0.22700 0.44100 0.59980 -0.01900
H 	H 	0.35860 0.10080 0.84330 0.00100
H 	H 	0.51110 0.22870 0.21720 0.18500
H 	H 	0.25280 0.51060 0.74750 0.10400
H 	H 	0.47140 0.03620 0.04940 0.11500
H 	H 	0.83240 0.32140 0.51930 0.09800
H 	H 	0.28060 0.36410 0.66970 0.11600
H 	H 	0.39680 0.10980 0.19860 -0.08900
H 	H 	0.47140 0.96380 0.95060 0.11700
H 	H 	0.58190 0.91560 0.11780 0.09800
H 	H 	0.52920 0.37470 0.07500 -0.01600
H 	H 	0.27610 0.14450 0.30940 0.14800
H 	H 	0.59790 0.84210 0.00080 0.09700
H 	H 	0.82460 0.81800 0.51840 -0.00200
H 	H 	0.25840 0.95880 0.01790 -0.01200
H 	H 	0.11480 0.34230 0.16640 0.11800
H 	H 	0.37350 0.27280 0.24240 0.19400
H 	H 	0.25280 0.48940 0.25250 0.10400
H 	H 	0.77300 0.94100 0.90020 -0.01900
H 	H 	0.16840 0.47700 0.12790 -0.01900
H 	H 	0.74160 0.45880 0.48210 -0.02600
H 	H 	0.82460 0.18200 0.48160 -0.00300
H 	H 	0.58190 0.08440 0.88220 0.09800
H 	H 	0.39680 0.89020 0.80140 -0.08600
H 	H 	0.80650 0.55550 0.84330 -0.00800
H 	H 	0.31130 0.29110 0.77930 0.12400
H 	H 	0.83240 0.67860 0.48070 0.09800
H 	H 	0.47420 0.53790 0.78100 -0.00400
H 	H 	0.75560 0.84920 0.64560 -0.01800
H 	H 	0.80650 0.44450 0.15670 -0.00800
H 	H 	0.26450 0.13570 0.23200 -0.09000
H 	H 	0.52920 0.62530 0.92500 -0.01500
H 	H 	0.09210 0.83900 0.47130 0.00100
H 	H 	0.90790 0.66100 0.97130 0.00200
H 	H 	0.73410 0.36470 0.64190 0.17200
H 	H 	0.88520 0.84230 0.33360 0.11800
H 	H 	0.88300 0.80590 0.93920 0.09400
H 	H 	0.11700 0.30590 0.56080 0.09400
H 	H 	0.72390 0.35550 0.80940 0.14800
H 	H 	0.52580 0.03790 0.71900 -0.00400
H 	H 	0.90790 0.33900 0.02870 0.00000
H 	H 	0.24440 0.34920 0.85440 -0.01800
H 	H 	0.91410 0.02780 0.82000 0.12500
H 	H 	0.47080 0.12530 0.57500 -0.01600
H 	H 	0.05880 0.43310 0.61140 -0.02200
H 	H 	0.52860 0.46380 0.54940 0.12500
H 	H 	0.74720 0.01060 0.75250 0.10400
H 	H 	0.88520 0.15770 0.66640 0.11700
H 	H 	0.40300 0.80040 0.53530 -0.00400
H 	H 	0.27610 0.85550 0.69060 0.14800
H 	H 	0.30790 0.94270 0.93410 0.11500
H 	H 	0.26590 0.13530 0.14190 0.17200
H 	H 	0.94120 0.93310 0.88860 -0.02200
H 	H 	0.48350 0.76220 0.88670 0.11700
H 	H 	0.24440 0.65080 0.14560 -0.01800
H 	H 	0.41810 0.58440 0.61780 0.09800
H 	H 	0.37350 0.72720 0.75760 0.19300
H 	H 	0.11400 0.35910 0.68340 0.11100
H 	H 	0.19350 0.94450 0.34330 -0.00700
H 	H 	0.74160 0.54120 0.51790 -0.02600
H 	H 	0.69210 0.55730 0.43410 0.12400
H 	H 	0.85960 0.92190 0.13180 0.13500
H 	H 	0.74720 0.98940 0.24750 0.10500
H 	H 	0.85010 0.31490 0.67540 0.17300
H 	H 	0.68870 0.79110 0.72070 0.12400
H 	H 	0.59700 0.69960 0.03530 -0.00300
H 	H 	0.64940 0.41040 0.88400 -0.04000
H 	H 	0.72390 0.64450 0.19060 0.14800
H 	H 	0.48350 0.23780 0.11330 0.11700
H 	H 	0.83160 0.97700 0.37210 -0.01800
H 	H 	0.60320 0.39020 0.69860 -0.08700
H 	H 	0.77840 0.30490 0.19090 0.09600
H 	H 	0.19350 0.05550 0.65670 -0.00900
H 	H 	0.14990 0.18510 0.17540 0.17300
H 	H 	0.59700 0.30040 0.96470 -0.00200
H 	H 	0.35860 0.89920 0.15670 0.00200
H 	H 	0.11700 0.69410 0.43920 0.09300
H 	H 	0.16840 0.52300 0.87210 -0.01900
H 	H 	0.85960 0.07810 0.86820 0.13700
H 	H 	0.73410 0.63530 0.35810 0.17200
H 	H 	0.35060 0.91040 0.61600 -0.04000
H 	H 	0.64940 0.58960 0.11600 -0.04000
H 	H 	0.22160 0.19510 0.69090 0.09700
H 	H 	0.16760 0.82140 0.98070 0.09600
H 	H 	0.41810 0.41560 0.38220 0.09800
H 	H 	0.71940 0.86410 0.83030 0.11700
H 	H 	0.77840 0.69510 0.80910 0.09700
H 	H 	0.85010 0.68510 0.32460 0.17300
H 	H 	0.11480 0.65770 0.83360 0.11800
H 	H 	0.75560 0.15080 0.35440 -0.01800
H 	H 	0.91410 0.97220 0.18000 0.12300
H 	H 	0.30790 0.05730 0.06590 0.11400
H 	H 	0.64140 0.60080 0.65670 0.00200
H 	H 	0.28060 0.63590 0.33030 0.11600
H 	H 	0.16760 0.17860 0.01930 0.09600
H 	H 	0.25840 0.04120 0.98210 -0.01200
H 	H 	0.73550 0.63570 0.26800 -0.08900
H 	H 	0.88600 0.85910 0.81660 0.11200
H 	H 	0.08590 0.52780 0.68000 0.12400
H 	H 	0.62650 0.22720 0.74240 0.19300
H 	H 	0.77300 0.05900 0.09980 -0.01700
H 	H 	0.40210 0.65790 0.50080 0.09900
H 	H 	0.26450 0.86430 0.76800 -0.08800
H 	H 	0.11400 0.64090 0.31660 0.11100
H 	H 	0.52580 0.96210 0.28100 -0.00300
H 	H 	0.88600 0.14090 0.18340 0.10900
H 	H 	0.62650 0.77280 0.25760 0.19300
H 	H 	0.73550 0.36430 0.73200 -0.08900
H 	H 	0.83160 0.02300 0.62790 -0.02100
H 	H 	0.69210 0.44270 0.56590 0.12400
H 	H 	0.51650 0.26220 0.61330 0.11700
H 	H 	0.52860 0.53620 0.45060 0.12500
H 	H 	0.14040 0.42190 0.36820 0.13600
H 	H 	0.51110 0.77130 0.78280 0.18400
H 	H 	0.68870 0.20890 0.27930 0.12400
H 	H 	0.26590 0.86470 0.85810 0.17200
H 	H 	0.60320 0.60980 0.30140 -0.08700
H 	H 	0.64140 0.39920 0.34330 0.00200
H 	H 	0.48890 0.72870 0.28280 0.18400
H 	H 	0.71940 0.13590 0.16970 0.11400
H 	H 	0.14990 0.81490 0.82460 0.17300
C 	C 	0.26260 0.28540 0.98600 0.11300
C 	C 	0.16910 0.50000 -0.00000 0.50900
C 	C 	0.16160 0.52790 0.65450 -0.33500
C 	C 	0.84470 0.93880 0.87350 0.14600
C 	C 	0.41570 0.71440 0.88410 -0.26400
C 	C 	0.61770 0.81650 0.69985 -0.28600
C 	C 	0.74690 0.68390 0.33370 -0.52200
C 	C 	0.62460 0.64600 0.18223 -0.29700
C 	C 	0.17160 0.73420 0.36930 0.17600
C 	C 	0.17670 0.89280 0.36293 0.11200
C 	C 	0.34290 0.35100 0.84494 0.15000
C 	C 	0.52570 0.31870 0.78550 0.31700
C 	C 	0.82840 0.76580 0.86930 0.17700
C 	C 	0.55690 0.13230 0.59337 0.14200
C 	C 	0.38450 0.15180 0.01250 0.17200
C 	C 	0.88290 0.66840 0.93800 0.09900
C 	C 	0.50970 0.81000 0.00370 -0.20900
C 	C 	0.83840 0.97210 0.15450 -0.32700
C 	C 	0.80610 0.69020 0.84230 -0.22300
C 	C 	0.57400 0.92720 0.15180 -0.20600
C 	C 	0.19960 0.65300 0.85287 -0.26300
C 	C 	0.41570 0.28560 0.11590 -0.26500
C 	C 	0.74340 0.29800 0.50770 -0.20100
C 	C 	0.66450 0.33890 0.70880 0.41400
C 	C 	0.50880 0.72510 0.02434 0.10800
C 	C 	0.69470 0.95560 0.17820 0.19900
C 	C 	0.82330 0.39280 0.13707 0.11100
C 	C 	0.23200 0.42720 0.12428 0.13300
C 	C 	0.73740 0.21460 0.48600 0.11200
C 	C 	0.25310 0.81610 0.83370 -0.52200
C 	C 	0.06610 0.16830 0.39355 0.43900
C 	C 	0.44000 0.08430 0.82430 0.10200
C 	C 	0.76800 0.07280 0.62428 0.13300
C 	C 	0.82840 0.23420 0.13070 0.17300
C 	C 	0.84470 0.06120 0.12650 0.13200
C 	C 	0.58430 0.21440 0.61590 -0.26400
C 	C 	0.19390 0.80980 0.34230 -0.22200
C 	C 	0.26260 0.71460 0.01400 0.10600
C 	C 	0.19960 0.34700 0.14713 -0.26300
C 	C 	0.46400 0.54700 0.74690 0.11900
C 	C 	0.73740 0.78540 0.51400 0.11200
C 	C 	0.15530 0.56120 0.37350 0.14000
C 	C 	0.47430 0.81870 0.71450 0.31700
C 	C 	0.74690 0.31610 0.66630 -0.52200
C 	C 	0.16160 0.47210 0.34550 -0.33500
C 	C 	0.38230 0.68350 0.19985 -0.28700
C 	C 	0.13250 0.74530 0.41900 -0.19300
C 	C 	0.25660 0.20200 0.00770 -0.19800
C 	C 	0.30530 0.45560 0.32180 0.20000
C 	C 	0.82330 0.60720 0.86293 0.11300
C 	C 	0.49120 0.77490 0.52434 0.11100
C 	C 	0.11710 0.83160 0.43800 0.09900
C 	C 	0.80040 0.84700 0.35287 -0.26200
C 	C 	0.49030 0.31000 0.49630 -0.21300
C 	C 	0.61770 0.18350 0.30015 -0.28700
C 	C 	0.67090 0.96910 0.22720 -0.22900
C 	C 	0.44310 0.63230 0.90663 0.14300
C 	C 	0.57950 0.38700 0.86210 0.16700
C 	C 	0.25660 0.79800 0.99230 -0.19200
C 	C 	0.42600 0.42720 0.34820 -0.20800
C 	C 	0.28990 0.72690 0.85780 0.26900
C 	C 	0.19390 0.19020 0.65770 -0.22200
C 	C 	0.25310 0.18390 0.16630 -0.52300
C 	C 	0.67090 0.03090 0.77280 -0.23200
C 	C 	0.37500 0.94370 0.96210 -0.32600
C 	C 	0.42050 0.88700 0.63790 0.16700
C 	C 	0.13250 0.25470 0.58100 -0.19300
C 	C 	0.58430 0.78560 0.38410 -0.26400
C 	C 	0.11710 0.16840 0.56200 0.09900
C 	C 	0.65710 0.14900 0.34494 0.14900
C 	C 	0.42430 0.21500 0.23690 -0.56400
C 	C 	0.88290 0.33160 0.06200 0.09800
C 	C 	0.44000 0.91570 0.17570 0.10200
C 	C 	0.86750 0.75470 0.91900 -0.19400
C 	C 	0.47430 0.18130 0.28550 0.31700
C 	C 	0.32400 0.00000 -0.00000 0.15400
C 	C 	0.62500 0.44370 0.53790 -0.35800
C 	C 	0.33550 0.16110 0.20880 0.41600
C 	C 	0.44310 0.36770 0.09337 0.14200
C 	C 	0.80040 0.15300 0.64713 -0.26300
C 	C 	0.49120 0.22510 0.47566 0.11100
C 	C 	0.71010 0.22690 0.64220 0.26800
C 	C 	0.18250 0.35860 0.65580 -0.31800
C 	C 	0.93390 0.33170 0.89355 0.43900
C 	C 	0.23200 0.57280 0.87572 0.13400
C 	C 	0.56000 0.41570 0.32430 0.10200
C 	C 	0.81750 0.14140 0.15580 -0.31300
C 	C 	0.37500 0.05630 0.03790 -0.32800
C 	C 	0.76800 0.92720 0.37572 0.13300
C 	C 	0.66450 0.66110 0.29120 0.41400
C 	C 	0.52570 0.68130 0.21450 0.31700
C 	C 	0.86750 0.24530 0.08100 -0.19200
C 	C 	0.93390 0.66830 0.10645 0.43900
C 	C 	0.37540 0.14600 0.31777 -0.29700
C 	C 	0.49030 0.69000 0.50370 -0.21300
C 	C 	0.74340 0.70200 0.49230 -0.20100
C 	C 	0.42050 0.11300 0.36210 0.16600
C 	C 	0.34290 0.64900 0.15506 0.15000
C 	C 	0.80610 0.30980 0.15770 -0.22000
C 	C 	0.46400 0.45300 0.25310 0.11900
C 	C 	0.57950 0.61300 0.13790 0.16700
C 	C 	0.37540 0.85400 0.68223 -0.29600
C 	C 	0.50880 0.27490 0.97566 0.10700
C 	C 	0.69470 0.04440 0.82180 0.20200
C 	C 	0.42430 0.78500 0.76310 -0.56100
C 	C 	0.38230 0.31650 0.80015 -0.28700
C 	C 	0.71010 0.77310 0.35780 0.26800
C 	C 	0.61550 0.34820 0.51250 0.18500
C 	C 	0.50970 0.19000 0.99630 -0.20300
C 	C 	0.62460 0.35400 0.81777 -0.29700
C 	C 	0.83090 0.00000 0.50000 0.50800
C 	C 	0.32910 0.46910 0.27280 -0.23100
C 	C 	0.38450 0.84820 0.98750 0.17700
C 	C 	0.83840 0.02790 0.84550 -0.34000
C 	C 	0.33550 0.83890 0.79120 0.41300
C 	C 	0.56000 0.58430 0.67570 0.10200
C 	C 	0.81750 0.85860 0.84420 -0.32200
C 	C 	0.17160 0.26580 0.63070 0.17600
C 	C 	0.32910 0.53090 0.72720 -0.23100
C 	C 	0.61550 0.65180 0.48750 0.18500
C 	C 	0.06610 0.83170 0.60645 0.43900
C 	C 	0.67600 0.50000 0.50000 0.19900
C 	C 	0.33260 0.00000 0.50000 0.52000
C 	C 	0.18250 0.64140 0.34420 -0.31800
C 	C 	0.15530 0.43880 0.62650 0.14000
C 	C 	0.65710 0.85100 0.65506 0.15000
C 	C 	0.62500 0.55630 0.46210 -0.35800
C 	C 	0.57400 0.07280 0.84820 -0.20900
C 	C 	0.53600 0.04700 0.75310 0.11900
C 	C 	0.55690 0.86770 0.40663 0.14300
C 	C 	0.30530 0.54440 0.67820 0.20000
C 	C 	0.53600 0.95300 0.24690 0.11900
C 	C 	0.17670 0.10720 0.63707 0.11200
C 	C 	0.28990 0.27310 0.14220 0.26900
C 	C 	0.42600 0.57280 0.65180 -0.20800
C 	C 	0.57570 0.28500 0.73690 -0.56200
C 	C 	0.57570 0.71500 0.26310 -0.56200
C 	C 	0.66740 0.50000 -0.00000 0.52100
N 	N 	0.64780 0.06330 0.59679 -0.24000
N 	N 	0.86300 0.40540 0.09013 -0.22700
N 	N 	0.61410 0.82260 0.52924 -0.23100
N 	N 	0.64780 0.93670 0.40321 -0.23800
N 	N 	0.38590 0.67740 0.02924 -0.23000
N 	N 	0.35220 0.43670 0.09679 -0.23900
N 	N 	0.13700 0.90540 0.40987 -0.22600
N 	N 	0.56000 0.11280 0.37555 -0.25500
N 	N 	0.42190 0.92680 0.22330 -0.15300
N 	N 	0.61410 0.17740 0.47076 -0.23100
N 	N 	0.38590 0.32260 0.97076 -0.23000
N 	N 	0.86300 0.59460 0.90987 -0.22700
N 	N 	0.57810 0.57320 0.72330 -0.15300
N 	N 	0.42190 0.07320 0.77670 -0.15400
N 	N 	0.13700 0.09460 0.59013 -0.22800
N 	N 	0.35220 0.56330 0.90321 -0.23900
N 	N 	0.56000 0.88720 0.62445 -0.25400
N 	N 	0.44000 0.61280 0.12445 -0.25400
N 	N 	0.57810 0.42680 0.27670 -0.15300
N 	N 	0.44000 0.38720 0.87555 -0.25400
O 	O 	0.18940 0.00000 0.50000 -0.53600
O 	O 	0.05780 0.08710 0.37473 -0.39400
O 	O 	0.81060 0.50000 -0.00000 -0.53600
O 	O 	0.39270 0.98052 0.54007 -0.44600
O 	O 	0.02810 0.76280 0.62946 -0.28100
O 	O 	0.11550 0.16884 0.43740 -0.37500
O 	O 	0.68670 0.00000 0.50000 -0.52500
O 	O 	0.60730 0.51948 0.04007 -0.44900
O 	O 	0.60730 0.48052 0.95993 -0.44700
O 	O 	0.10900 0.53129 0.03764 -0.45000
O 	O 	0.11550 0.83116 0.56260 -0.37400
O 	O 	0.97190 0.73720 0.12946 -0.28100
O 	O 	0.31330 0.50000 -0.00000 -0.52400
O 	O 	0.05780 0.91290 0.62527 -0.39200
O 	O 	0.88450 0.66884 0.06260 -0.37500
O 	O 	0.94220 0.58710 0.12527 -0.39300
O 	O 	0.97190 0.26280 0.87054 -0.28100
O 	O 	0.10900 0.46871 0.96236 -0.44800
O 	O 	0.88450 0.33116 0.93740 -0.37400
O 	O 	0.94220 0.41290 0.87473 -0.39400
O 	O 	0.89100 0.03129 0.46236 -0.45100
O 	O 	0.39270 0.01948 0.45993 -0.44900
O 	O 	0.89100 0.96871 0.53764 -0.44700
O 	O 	0.02810 0.23720 0.37054 -0.28100
