data_crystal

_cell_length_a 10.60100
_cell_length_b 13.45640
_cell_length_c 20.03800
_cell_angle_alpha 98.63860
_cell_angle_beta  90.00000
_cell_angle_gamma 113.19700

_symmetry_space_group_name_	'P 1'
_symmetry_space_group_name_H-M	'P 1'

loop_
_symmetry_equiv_pos_as_xyz
  x,y,z

loop_
_atom_site_label
_atom_site_type_symbol
_atom_site_fract_x
_atom_site_fract_y
_atom_site_fract_z
_atom_site_charge
Cu	Cu	-0.00000 0.00000 -0.00000 0.78200
Cu	Cu	-0.00000 0.00000 0.50000 0.79600
Si	Si	0.50210 0.00000 0.25000 1.67100
Si	Si	0.49790 0.00000 0.75000 1.68900
H 	H 	0.46050 0.36620 0.56710 0.05100
H 	H 	0.29060 0.19700 0.51840 -0.00600
H 	H 	0.90570 0.36620 0.06710 0.04100
H 	H 	0.90640 0.19700 0.01840 -0.06400
H 	H 	0.34640 0.47520 0.41190 0.02700
H 	H 	0.76640 0.64340 0.07620 0.00200
H 	H 	0.95260 0.17800 0.43160 0.04800
H 	H 	0.12300 0.35660 0.42380 -0.02500
H 	H 	0.87700 0.64340 0.57620 0.03100
H 	H 	0.09360 0.80300 0.98160 0.06200
H 	H 	0.77460 0.82200 0.06840 0.01600
H 	H 	0.09430 0.63380 0.93290 0.06100
H 	H 	0.04740 0.82200 0.56840 -0.03900
H 	H 	0.70940 0.80300 0.48160 0.00400
H 	H 	0.23360 0.35660 0.92380 0.00700
H 	H 	0.53950 0.63380 0.43290 0.05100
H 	H 	0.12880 0.47520 0.91190 0.02000
H 	H 	0.87120 0.52480 0.08810 0.04200
H 	H 	0.22540 0.17800 0.93160 -0.01100
H 	H 	0.65360 0.52480 0.58810 0.03400
W 	W 	0.76600 0.04880 0.13669 1.13600
W 	W 	0.16650 0.79328 0.71055 1.01000
W 	W 	0.39323 0.76302 0.32823 1.01700
W 	W 	0.24485 0.97072 0.36770 1.22300
W 	W 	0.71720 0.95120 0.36331 1.50000
W 	W 	0.23400 0.95120 0.86331 1.49400
W 	W 	0.27413 0.02928 0.13230 0.76900
W 	W 	0.62729 0.79664 0.69872 1.03300
W 	W 	0.83350 0.20672 0.28945 1.03700
W 	W 	0.63021 0.23698 0.17177 0.99200
W 	W 	0.75515 0.02928 0.63230 0.80600
W 	W 	0.37322 0.20672 0.78945 1.02100
W 	W 	0.72587 0.97072 0.86770 1.23700
W 	W 	0.62678 0.79328 0.21055 1.02500
W 	W 	0.58819 0.15364 0.91477 1.04900
W 	W 	0.37271 0.20336 0.30128 1.01200
W 	W 	0.56545 0.15364 0.41477 1.04000
W 	W 	0.41181 0.84636 0.08523 1.01800
W 	W 	0.36979 0.76302 0.82823 1.02600
W 	W 	0.83065 0.20336 0.80128 1.03700
W 	W 	0.60677 0.23698 0.67177 1.00200
W 	W 	0.16935 0.79664 0.19872 1.00800
W 	W 	0.43455 0.84636 0.58523 1.02800
W 	W 	0.28280 0.04880 0.63669 1.13700
C 	C 	0.83840 0.79480 0.05130 0.01200
C 	C 	0.59100 0.51420 0.55250 -0.07700
C 	C 	0.22720 0.21500 0.49640 0.10800
C 	C 	0.02120 0.40520 0.98720 0.05700
C 	C 	0.98780 0.21500 0.99640 0.24200
C 	C 	0.77280 0.78500 0.50360 0.11400
C 	C 	0.13590 0.30340 0.44430 0.02900
C 	C 	0.05660 0.58000 0.95980 -0.12200
C 	C 	0.52340 0.58000 0.45980 -0.08800
C 	C 	0.92320 0.51420 0.05250 -0.10100
C 	C 	0.47660 0.42000 0.54020 -0.08700
C 	C 	0.16750 0.30340 0.94430 -0.02500
C 	C 	0.61600 0.59480 0.51280 0.08500
C 	C 	0.83250 0.69660 0.05570 -0.01500
C 	C 	0.94340 0.42000 0.04020 -0.05300
C 	C 	0.97880 0.59480 0.01280 0.11100
C 	C 	0.16160 0.20520 0.94870 -0.00200
C 	C 	0.01220 0.78500 0.00360 -0.02300
C 	C 	0.40900 0.48580 0.44750 -0.07600
C 	C 	0.38400 0.40520 0.48720 0.08300
C 	C 	0.95640 0.79480 0.55130 0.10500
C 	C 	0.86410 0.69660 0.55570 -0.06500
C 	C 	0.04360 0.20520 0.44870 -0.10500
C 	C 	0.07680 0.48580 0.94750 -0.05300
N 	N 	0.04960 0.14800 0.98160 -0.28800
N 	N 	0.74210 0.68840 0.52330 -0.13700
N 	N 	0.94630 0.68840 0.02330 -0.11200
N 	N 	0.90160 0.85200 0.51840 -0.21800
N 	N 	0.25790 0.31160 0.47670 -0.15200
N 	N 	0.09840 0.14800 0.48160 -0.24600
N 	N 	0.95040 0.85200 0.01840 -0.17000
N 	N 	0.05370 0.31160 0.97670 -0.17600
O 	O 	0.44280 0.05980 0.31180 -0.72400
O 	O 	0.63330 0.09040 0.22250 -0.72600
O 	O 	0.71740 0.22120 0.35810 -0.46200
O 	O 	0.49120 0.70340 0.26230 -0.45200
O 	O 	0.23220 0.09800 0.34670 -0.52600
O 	O 	0.43910 0.17280 0.61560 -0.45300
O 	O 	0.25740 0.07280 0.82270 -0.57300
O 	O 	0.67510 0.13620 0.62930 -0.47100
O 	O 	0.18460 0.92720 0.67730 -0.40500
O 	O 	0.13420 0.90200 0.15330 -0.36800
O 	O 	0.62760 0.03980 0.40820 -0.57800
O 	O 	0.54290 0.90960 0.27750 -0.65400
O 	O 	0.55720 0.94020 0.68820 -0.59500
O 	O 	0.25250 0.14700 0.70650 -0.46400
O 	O 	0.38300 0.94020 0.18820 -0.58300
O 	O 	0.72190 0.89000 0.78200 -0.45700
O 	O 	0.81540 0.07280 0.32270 -0.56700
O 	O 	0.61260 0.93620 0.56270 -0.35700
O 	O 	0.73370 0.17280 0.11560 -0.45300
O 	O 	0.23690 0.75220 0.11690 -0.44200
O 	O 	0.37240 0.96020 0.59180 -0.39300
O 	O 	0.87460 0.03660 0.07390 -0.53500
O 	O 	0.74750 0.85300 0.29350 -0.46500
O 	O 	0.12540 0.96340 0.92610 -0.48400
O 	O 	0.89450 0.14700 0.20650 -0.45000
O 	O 	0.16810 0.89000 0.28200 -0.46500
O 	O 	0.76780 0.90200 0.65330 -0.36100
O 	O 	0.46110 0.13620 0.12930 -0.47500
O 	O 	0.32490 0.86380 0.37070 -0.47200
O 	O 	0.27810 0.11000 0.21800 -0.46700
O 	O 	0.16200 0.03660 0.57390 -0.55100
O 	O 	0.61700 0.05980 0.81180 -0.73000
O 	O 	0.72680 0.25360 0.74880 -0.45900
O 	O 	0.27320 0.74640 0.25120 -0.46900
O 	O 	0.28260 0.77880 0.64190 -0.46000
O 	O 	0.50880 0.29660 0.73770 -0.44100
O 	O 	0.41220 0.03980 0.90820 -0.57300
O 	O 	0.36670 0.90960 0.77750 -0.65900
O 	O 	0.58780 0.96020 0.09180 -0.39500
O 	O 	0.50380 0.22120 0.85810 -0.46200
O 	O 	0.48470 0.24780 0.38310 -0.43400
O 	O 	0.86580 0.09800 0.84670 -0.51000
O 	O 	0.67640 0.06380 0.93730 -0.51000
O 	O 	0.56090 0.82720 0.38440 -0.47000
O 	O 	0.76310 0.24780 0.88310 -0.42900
O 	O 	0.74260 0.92720 0.17730 -0.39800
O 	O 	0.53890 0.86380 0.87070 -0.46800
O 	O 	0.49620 0.77880 0.14190 -0.46000
O 	O 	0.32360 0.93620 0.06270 -0.36100
O 	O 	0.52680 0.25360 0.24880 -0.46100
O 	O 	0.51530 0.75220 0.61690 -0.43600
O 	O 	0.26630 0.82720 0.88440 -0.47000
O 	O 	0.21220 0.70340 0.76230 -0.45400
O 	O 	0.47320 0.74640 0.75120 -0.46800
O 	O 	0.38740 0.06380 0.43730 -0.52100
O 	O 	0.78780 0.29660 0.23770 -0.43800
O 	O 	0.10550 0.85300 0.79350 -0.47800
O 	O 	0.83190 0.11000 0.71800 -0.45800
O 	O 	0.83800 0.96340 0.42610 -0.47300
O 	O 	0.45710 0.09040 0.72250 -0.72900
