data_crystal

_cell_length_a 6.12100
_cell_length_b 10.78100
_cell_length_c 13.98700
_cell_angle_alpha 98.90100
_cell_angle_beta  96.71500
_cell_angle_gamma 103.86100

_symmetry_space_group_name_	'P 1'
_symmetry_space_group_name_H-M	'P 1'

loop_
_symmetry_equiv_pos_as_xyz
  x,y,z

loop_
_atom_site_label
_atom_site_type_symbol
_atom_site_fract_x
_atom_site_fract_y
_atom_site_fract_z
_atom_site_charge
Co	Co	0.64868 0.27667 0.44309 1.17900
Co	Co	0.40069 0.47772 0.38638 1.15200
Co	Co	0.59931 0.52228 0.61362 1.15200
Co	Co	0.35132 0.72333 0.55691 1.17900
H 	H 	0.24900 0.08320 0.28350 0.06800
H 	H 	0.19400 0.47300 0.53000 0.25000
H 	H 	0.34630 0.30500 0.06450 -0.00500
H 	H 	0.65370 0.69500 0.93550 -0.00500
H 	H 	0.87270 0.18670 0.17120 -0.00800
H 	H 	0.91050 0.10240 0.01540 0.11100
H 	H 	0.82690 0.73010 0.26100 0.08800
H 	H 	0.47390 0.93320 0.19880 0.07600
H 	H 	0.75100 0.91680 0.71650 0.06800
H 	H 	0.62760 0.79030 0.09140 0.11900
H 	H 	0.12730 0.81330 0.82880 -0.00800
H 	H 	0.68900 0.99350 0.85030 0.07000
H 	H 	0.74910 0.03250 0.44740 0.03000
H 	H 	0.37240 0.20970 0.90860 0.11900
H 	H 	0.08950 0.89760 0.98460 0.11100
H 	H 	0.80600 0.52700 0.47000 0.25000
H 	H 	0.52610 0.06680 0.80120 0.07600
H 	H 	0.17310 0.26990 0.73900 0.08800
H 	H 	0.25090 0.96750 0.55260 0.03000
H 	H 	0.31100 0.00650 0.14970 0.07000
C 	C 	0.12430 0.02920 0.30170 -0.09600
C 	C 	0.77150 0.19290 0.11830 0.13600
C 	C 	0.82710 0.99890 0.40090 0.00700
C 	C 	0.09380 0.22210 0.41550 0.39100
C 	C 	0.42140 0.69350 0.76300 0.40700
C 	C 	0.12710 0.18180 0.71110 -0.10400
C 	C 	0.17290 0.00110 0.59910 0.00700
C 	C 	0.20770 0.85890 0.97510 -0.22000
C 	C 	0.57860 0.30650 0.23700 0.40700
C 	C 	0.45860 0.26150 0.05530 0.14000
C 	C 	0.79230 0.14110 0.02490 -0.22000
C 	C 	0.00930 0.07920 0.37200 -0.09100
C 	C 	0.66460 0.07840 0.84690 -0.11100
C 	C 	0.22850 0.80710 0.88170 0.13600
C 	C 	0.41850 0.22580 0.60390 0.38200
C 	C 	0.64350 0.14530 0.94600 0.18000
C 	C 	0.54140 0.73850 0.94470 0.14000
C 	C 	0.90620 0.77790 0.58450 0.39100
C 	C 	0.87570 0.97080 0.69830 -0.09600
C 	C 	0.35650 0.85470 0.05400 0.18000
C 	C 	0.47610 0.20580 0.96150 -0.22600
C 	C 	0.99070 0.92080 0.62800 -0.09100
C 	C 	0.39740 0.74630 0.86590 -0.20100
C 	C 	0.23790 0.13260 0.64020 -0.06100
C 	C 	0.58150 0.77420 0.39610 0.38200
C 	C 	0.60260 0.25370 0.13410 -0.20100
C 	C 	0.94730 0.10050 0.74090 0.15200
C 	C 	0.05270 0.89950 0.25910 0.15200
C 	C 	0.87290 0.81820 0.28890 -0.10400
C 	C 	0.33540 0.92160 0.15310 -0.11100
C 	C 	0.52390 0.79420 0.03850 -0.22600
C 	C 	0.76210 0.86740 0.35980 -0.06100
O 	O 	0.45430 0.34300 0.63960 -0.46600
O 	O 	0.65650 0.24950 0.30110 -0.46900
O 	O 	0.51230 0.60280 0.74710 -0.44000
O 	O 	0.68830 0.46550 0.47830 -0.78500
O 	O 	0.51690 0.17850 0.53855 -0.45600
O 	O 	0.48310 0.82150 0.46145 -0.45600
O 	O 	0.14670 0.84240 0.18510 -0.19500
O 	O 	0.31170 0.53450 0.52170 -0.78500
O 	O 	0.02000 0.72330 0.53084 -0.47700
O 	O 	0.98000 0.27670 0.46916 -0.47700
O 	O 	0.54570 0.65700 0.36040 -0.46600
O 	O 	0.34350 0.75050 0.69890 -0.46900
O 	O 	0.71760 0.71840 0.60347 -0.52700
O 	O 	0.28240 0.28160 0.39653 -0.52700
O 	O 	0.85330 0.15760 0.81490 -0.19500
O 	O 	0.48770 0.39720 0.25290 -0.44000
