data_crystal

_cell_length_a 12.17720
_cell_length_b 15.53140
_cell_length_c 15.82670
_cell_angle_alpha 76.01900
_cell_angle_beta  67.57000
_cell_angle_gamma 69.19600

_symmetry_space_group_name_	'P 1'
_symmetry_space_group_name_H-M	'P 1'

loop_
_symmetry_equiv_pos_as_xyz
  x,y,z

loop_
_atom_site_label
_atom_site_type_symbol
_atom_site_fract_x
_atom_site_fract_y
_atom_site_fract_z
_atom_site_charge
Co	Co	0.23510 0.67961 0.03105 1.15000
Co	Co	0.04536 0.03558 0.21574 1.14300
Co	Co	0.04897 0.63356 0.26076 1.14900
Co	Co	0.76490 0.32039 0.96895 1.15000
Co	Co	0.95103 0.36644 0.73924 1.14900
Co	Co	0.95464 0.96442 0.78426 1.14300
Co	Co	0.43755 0.66382 0.81036 1.12200
Co	Co	0.56245 0.33618 0.18964 1.12200
H 	H 	0.90580 0.16610 0.45910 -0.00200
H 	H 	0.23350 0.83450 0.72070 -0.03600
H 	H 	0.72920 0.97420 0.55190 -0.00700
H 	H 	0.36770 0.08470 0.91370 0.10400
H 	H 	0.16730 0.20090 0.45690 0.01100
H 	H 	0.83270 0.79910 0.54310 0.01100
H 	H 	0.29590 0.85920 0.21340 0.04100
H 	H 	0.01060 0.15780 0.68740 -0.02100
H 	H 	0.06740 0.55830 0.68590 0.10500
H 	H 	0.96760 0.67360 0.95710 0.08300
H 	H 	0.98290 0.14720 0.03040 -0.01500
H 	H 	0.18220 0.89800 0.06090 -0.01500
H 	H 	0.25780 0.43150 0.29630 -0.03000
H 	H 	0.81780 0.10200 0.93910 -0.01500
H 	H 	0.74430 0.53810 0.95730 0.08800
H 	H 	0.64940 0.83720 0.85730 0.06600
H 	H 	0.27080 0.02580 0.44810 -0.00700
H 	H 	0.35060 0.16280 0.14270 0.06600
H 	H 	0.80110 0.22480 0.59940 0.10200
H 	H 	0.93260 0.45260 0.45630 0.00700
H 	H 	0.63230 0.91530 0.08630 0.10400
H 	H 	0.74220 0.56850 0.70370 -0.03000
H 	H 	0.25570 0.46190 0.04270 0.08800
H 	H 	0.03240 0.32640 0.04290 0.08300
H 	H 	0.58600 0.23330 0.89930 0.07700
H 	H 	0.09420 0.83390 0.54090 -0.00200
H 	H 	0.41400 0.76670 0.10070 0.07700
H 	H 	0.36880 0.76600 0.25820 0.05400
H 	H 	0.06740 0.54740 0.54370 0.00700
H 	H 	0.92170 0.75120 0.80920 0.06200
H 	H 	0.80810 0.52720 0.19030 0.06000
H 	H 	0.76650 0.16550 0.27930 -0.03600
H 	H 	0.96890 0.34250 0.19820 0.06500
H 	H 	0.07830 0.24880 0.19080 0.06200
H 	H 	0.35980 0.97670 0.30640 0.13000
H 	H 	0.63120 0.23400 0.74180 0.05400
H 	H 	0.64020 0.02330 0.69360 0.13000
H 	H 	0.98940 0.84220 0.31260 -0.02100
H 	H 	0.12050 0.02910 0.67590 0.23100
H 	H 	0.93260 0.44170 0.31410 0.10500
H 	H 	0.03110 0.65750 0.80180 0.06500
H 	H 	0.16540 0.18890 0.31700 0.11400
H 	H 	0.19190 0.47280 0.80970 0.06000
H 	H 	0.01710 0.85280 0.96960 -0.01500
H 	H 	0.19890 0.77520 0.40060 0.10200
H 	H 	0.83460 0.81110 0.68300 0.11400
H 	H 	0.47230 0.52230 0.07000 -0.01100
H 	H 	0.52770 0.47770 0.93000 -0.01100
H 	H 	0.70410 0.14080 0.78660 0.04100
H 	H 	0.87950 0.97090 0.32410 0.23100
C 	C 	0.84980 0.13830 0.50560 0.13900
C 	C 	0.98000 0.39170 0.34350 -0.20300
C 	C 	0.11510 0.96940 0.60190 0.48100
C 	C 	0.23830 0.07890 0.08810 0.28700
C 	C 	0.08490 0.36340 0.01160 -0.13300
C 	C 	0.03290 0.37350 0.87130 0.36200
C 	C 	0.23510 0.47870 0.91950 -0.03600
C 	C 	0.47450 0.20520 0.02770 -0.04200
C 	C 	0.95340 0.68630 0.69910 0.15700
C 	C 	0.04660 0.31370 0.30090 0.15700
C 	C 	0.15020 0.86170 0.49440 0.13900
C 	C 	0.02000 0.60830 0.65650 -0.20300
C 	C 	0.60460 0.88540 0.05760 -0.12900
C 	C 	0.14430 0.38710 0.05690 0.18600
C 	C 	0.08560 0.83470 0.91810 0.11800
C 	C 	0.82780 0.06280 0.49070 -0.21800
C 	C 	0.52640 0.20280 0.93380 -0.11900
C 	C 	0.28740 0.46750 0.24150 0.13500
C 	C 	0.52160 0.25590 0.06850 0.35500
C 	C 	0.78270 0.55500 0.98890 -0.12700
C 	C 	0.61610 0.83750 0.92080 -0.02400
C 	C 	0.94910 0.66780 0.43470 0.35200
C 	C 	0.48930 0.15440 0.89080 0.18400
C 	C 	0.89630 0.60520 0.08080 -0.03100
C 	C 	0.91440 0.16530 0.08190 0.11800
C 	C 	0.76490 0.52130 0.08050 -0.03600
C 	C 	0.78780 0.17280 0.59020 -0.21600
C 	C 	0.14330 0.86620 0.11560 0.10900
C 	C 	0.03880 0.83630 0.25150 0.10400
C 	C 	0.01980 0.60100 0.57180 0.10900
C 	C 	0.69050 0.05450 0.64570 -0.22400
C 	C 	0.17910 0.45230 0.87200 -0.02100
C 	C 	0.71260 0.53250 0.75850 0.13500
C 	C 	0.94970 0.68800 0.79510 -0.09800
C 	C 	0.64750 0.16720 0.75110 -0.06400
C 	C 	0.29180 0.86860 0.34030 0.15300
C 	C 	0.85670 0.13380 0.88440 0.10900
C 	C 	0.69180 0.45380 0.12640 0.32900
C 	C 	0.05090 0.33220 0.56530 0.35200
C 	C 	0.88260 0.75720 0.65560 -0.20600
C 	C 	0.38390 0.16250 0.07920 -0.02400
C 	C 	0.59790 0.48330 0.88020 0.11700
C 	C 	0.74690 0.02390 0.56140 0.16500
C 	C 	0.11840 0.25020 0.42800 0.11300
C 	C 	0.52550 0.79480 0.97230 -0.04200
C 	C 	0.51070 0.84560 0.10920 0.18400
C 	C 	0.35250 0.83280 0.24890 -0.06400
C 	C 	0.20140 0.82520 0.78470 0.12300
C 	C 	0.10370 0.39480 0.91920 -0.03100
C 	C 	0.30950 0.94550 0.35430 -0.22400
C 	C 	0.17220 0.93720 0.50930 -0.21800
C 	C 	0.88160 0.74980 0.57200 0.11300
C 	C 	0.30820 0.54620 0.87360 0.32900
C 	C 	0.88490 0.03060 0.39810 0.48100
C 	C 	0.25310 0.97610 0.43860 0.16500
C 	C 	0.05030 0.31200 0.20490 -0.09800
C 	C 	0.70820 0.13140 0.65970 0.15300
C 	C 	0.76170 0.92110 0.91190 0.28700
C 	C 	0.34270 0.11850 0.03490 -0.01800
C 	C 	0.98020 0.39900 0.42820 0.10900
C 	C 	0.39540 0.11460 0.94240 -0.12900
C 	C 	0.21730 0.44500 0.01110 -0.12700
C 	C 	0.65730 0.88150 0.96510 -0.01800
C 	C 	0.21220 0.82720 0.40980 -0.21600
C 	C 	0.82090 0.54770 0.12800 -0.02100
C 	C 	0.05070 0.32700 0.47000 -0.16400
C 	C 	0.79860 0.17480 0.21530 0.12300
C 	C 	0.96120 0.16370 0.74850 0.10400
C 	C 	0.96710 0.62650 0.12870 0.36200
C 	C 	0.40210 0.51670 0.11980 0.11700
C 	C 	0.47840 0.74410 0.93150 0.35500
C 	C 	0.47360 0.79720 0.06620 -0.11900
C 	C 	0.11740 0.24280 0.34440 -0.20600
C 	C 	0.94930 0.67300 0.53000 -0.16400
C 	C 	0.91510 0.63660 0.98840 -0.13300
C 	C 	0.85570 0.61290 0.94310 0.18600
N 	N 	0.08780 0.87120 0.83130 -0.27800
N 	N 	0.81390 0.22670 0.07680 -0.21800
N 	N 	0.73560 0.23370 0.16540 -0.22500
N 	N 	0.92220 0.09560 0.80690 -0.27800
N 	N 	0.21650 0.54230 0.20940 -0.23500
N 	N 	0.91220 0.12880 0.16870 -0.27800
N 	N 	0.26440 0.76630 0.83460 -0.22500
N 	N 	0.78350 0.45770 0.79060 -0.23500
N 	N 	0.14760 0.77910 0.12380 -0.22300
N 	N 	0.40440 0.44770 0.18940 -0.26200
N 	N 	0.07780 0.90440 0.19310 -0.27800
N 	N 	0.59560 0.55230 0.81060 -0.26200
N 	N 	0.85240 0.22090 0.87620 -0.22300
N 	N 	0.70680 0.42550 0.87150 -0.22400
N 	N 	0.18610 0.77330 0.92320 -0.21800
N 	N 	0.29320 0.57450 0.12850 -0.22400
N 	N 	0.07730 0.75910 0.21390 -0.23400
N 	N 	0.92270 0.24090 0.78610 -0.23400
O 	O 	0.80400 0.92250 0.82500 -0.42000
O 	O 	0.19030 0.05040 0.04690 -0.32700
O 	O 	0.06130 0.65140 0.08060 -0.47200
O 	O 	0.04180 0.60710 0.38910 -0.44700
O 	O 	0.07020 0.38410 0.78430 -0.44800
O 	O 	0.65170 0.43720 0.21130 -0.37800
O 	O 	0.95820 0.39290 0.61090 -0.44700
O 	O 	0.19600 0.07750 0.17500 -0.42000
O 	O 	0.53840 0.14600 0.80000 -0.20900
O 	O 	0.59010 0.30330 0.01530 -0.47000
O 	O 	0.97780 0.05490 0.34580 -0.49300
O 	O 	0.86800 0.72110 0.40530 -0.32400
O 	O 	0.13660 0.36130 0.14640 -0.20800
O 	O 	0.67080 0.41450 0.07530 -0.50200
O 	O 	0.13200 0.27890 0.59470 -0.32400
O 	O 	0.49160 0.24870 0.15520 -0.42300
O 	O 	0.93870 0.34860 0.91940 -0.47200
O 	O 	0.02220 0.94510 0.65420 -0.49300
O 	O 	0.34830 0.56280 0.78870 -0.37800
O 	O 	0.16120 0.01630 0.62330 -0.53400
O 	O 	0.40990 0.69670 0.98470 -0.47000
O 	O 	0.50840 0.75130 0.84480 -0.42300
O 	O 	0.80970 0.94960 0.95310 -0.32700
O 	O 	0.92980 0.61590 0.21570 -0.44800
O 	O 	0.86340 0.63870 0.85360 -0.20800
O 	O 	0.32920 0.58550 0.92470 -0.50200
O 	O 	0.83880 0.98370 0.37670 -0.53400
O 	O 	0.46160 0.85400 0.20000 -0.20900
