data_crystal

_cell_length_a 6.78100
_cell_length_b 15.09010
_cell_length_c 15.09010
_cell_angle_alpha 62.20270
_cell_angle_beta  81.38530
_cell_angle_gamma 98.61470

_symmetry_space_group_name_	'P 1'
_symmetry_space_group_name_H-M	'P 1'

loop_
_symmetry_equiv_pos_as_xyz
  x,y,z

loop_
_atom_site_label
_atom_site_type_symbol
_atom_site_fract_x
_atom_site_fract_y
_atom_site_fract_z
_atom_site_charge
Co	Co	0.39440 0.28290 0.42270 1.15400
Co	Co	0.11150 0.29440 0.28290 1.13600
Co	Co	0.81710 0.70560 0.57730 1.16600
Co	Co	0.11150 0.71710 0.70560 1.13500
Co	Co	0.39440 0.57730 0.71710 1.15300
Co	Co	0.81710 0.42270 0.29440 1.16600
H 	H 	0.52295 0.42385 -0.00000 -0.00600
H 	H 	0.09910 0.57615 0.42385 -0.01800
H 	H 	0.25180 0.51640 -0.00000 0.12000
H 	H 	0.52295 0.00000 0.57615 -0.00700
H 	H 	0.73540 0.48360 0.51640 0.12900
H 	H 	0.25180 0.00000 0.48360 0.12100
C 	C 	0.31480 0.49320 0.41290 -0.38100
C 	C 	0.08525 0.00000 0.50325 -0.38900
C 	C 	0.03830 0.53360 0.90470 0.32100
C 	C 	0.82160 0.09390 0.49320 -0.32300
C 	C 	0.68925 -0.00000 0.55725 0.25500
C 	C 	0.82160 0.50680 0.90610 -0.31300
C 	C 	0.24650 0.55725 0.44275 0.25300
C 	C 	0.94300 0.43830 0.09530 0.41800
C 	C 	0.58850 0.50325 0.49675 -0.34700
C 	C 	0.94300 0.90470 0.56170 0.41500
C 	C 	0.50470 0.46640 0.43830 0.37100
C 	C 	0.68925 0.44275 -0.00000 0.23600
C 	C 	0.74490 0.54100 0.81430 0.43800
C 	C 	0.72770 0.90610 0.58710 -0.38700
C 	C 	0.74490 0.18570 0.45900 0.44100
C 	C 	0.20390 0.45900 0.35530 0.45400
C 	C 	0.55920 0.81430 0.64470 0.46100
C 	C 	0.72770 0.41290 0.09390 -0.37400
C 	C 	0.20390 0.64470 0.54100 0.45400
C 	C 	0.03830 0.09530 0.46640 0.32400
C 	C 	0.50470 0.56170 0.53360 0.37100
C 	C 	0.08525 0.49675 -0.00000 -0.39500
C 	C 	0.55920 0.35530 0.18570 0.45700
C 	C 	0.31480 0.58710 0.50680 -0.38200
O 	O 	0.58240 0.40450 0.41450 -0.56000
O 	O 	0.87200 0.61140 0.72630 -0.56000
O 	O 	0.06130 0.50130 0.32650 -0.47900
O 	O 	0.99690 0.41450 0.18100 -0.54800
O 	O 	0.38780 0.32650 0.17220 -0.46000
O 	O 	0.17790 0.18100 0.40450 -0.56500
O 	O 	0.26060 0.66230 0.61140 -0.60000
O 	O 	0.58240 0.58550 0.59550 -0.56000
O 	O 	0.38780 0.82780 0.67350 -0.46500
O 	O 	0.17790 0.59550 0.81900 -0.56500
O 	O 	0.56000 0.17220 0.50130 -0.44900
O 	O 	0.59830 0.33770 0.27370 -0.58900
O 	O 	0.26060 0.38860 0.33770 -0.60000
O 	O 	0.56000 0.49870 0.82780 -0.44800
O 	O 	0.99690 0.81900 0.58550 -0.54800
O 	O 	0.59830 0.72630 0.66230 -0.59000
O 	O 	0.06130 0.67350 0.49870 -0.48000
O 	O 	0.87200 0.27370 0.38860 -0.56100
