data_crystal

_cell_length_a 6.78800
_cell_length_b 15.09610
_cell_length_c 15.09610
_cell_angle_alpha 62.20550
_cell_angle_beta  81.37970
_cell_angle_gamma 98.62030

_symmetry_space_group_name_	'P 1'
_symmetry_space_group_name_H-M	'P 1'

loop_
_symmetry_equiv_pos_as_xyz
  x,y,z

loop_
_atom_site_label
_atom_site_type_symbol
_atom_site_fract_x
_atom_site_fract_y
_atom_site_fract_z
_atom_site_charge
Co	Co	0.10190 0.71650 0.70080 1.17700
Co	Co	0.10190 0.29920 0.28350 1.17700
Co	Co	0.80270 0.41730 0.29920 1.15500
Co	Co	0.38540 0.58270 0.71650 1.17000
Co	Co	0.80270 0.70080 0.58270 1.15500
Co	Co	0.38540 0.28350 0.41730 1.17000
H 	H 	0.53405 0.00000 0.57285 -0.02100
H 	H 	0.22915 0.51145 -0.00000 0.14200
H 	H 	0.71770 0.48855 0.51145 0.15300
H 	H 	0.53405 0.42715 -0.00000 -0.01900
H 	H 	0.22915 0.00000 0.48855 0.14500
H 	H 	0.10690 0.57285 0.42715 -0.01400
C 	C 	0.73290 0.90500 0.58540 -0.32600
C 	C 	0.23640 0.55875 0.44125 0.21400
C 	C 	0.56450 0.81510 0.64190 0.39200
C 	C 	0.31830 0.49040 0.41460 -0.34400
C 	C 	0.82790 0.09500 0.49040 -0.38300
C 	C 	0.56450 0.35810 0.18490 0.39100
C 	C 	0.03790 0.09370 0.46810 0.39400
C 	C 	0.82790 0.50960 0.90500 -0.38000
C 	C 	0.67765 0.00000 0.55875 0.20800
C 	C 	0.08010 0.00000 0.50040 -0.35100
C 	C 	0.08010 0.49960 -0.00000 -0.33000
C 	C 	0.74940 0.54300 0.81510 0.41200
C 	C 	0.94420 0.90630 0.56180 0.28500
C 	C 	0.73290 0.41460 0.09500 -0.32300
C 	C 	0.50600 0.46810 0.43820 0.37100
C 	C 	0.67765 0.44125 -0.00000 0.20900
C 	C 	0.03790 0.53190 0.90630 0.38100
C 	C 	0.31830 0.58540 0.50960 -0.34400
C 	C 	0.20640 0.45700 0.35810 0.40500
C 	C 	0.94420 0.43820 0.09370 0.27300
C 	C 	0.20640 0.64190 0.54300 0.40500
C 	C 	0.58050 0.50040 0.49960 -0.41300
C 	C 	0.50600 0.56180 0.53190 0.37100
C 	C 	0.74940 0.18490 0.45700 0.41400
O 	O 	0.60180 0.33860 0.27610 -0.59400
O 	O 	0.00170 0.41730 0.18230 -0.49800
O 	O 	0.26320 0.38530 0.33860 -0.58900
O 	O 	0.37770 0.32590 0.17910 -0.42000
O 	O 	0.58440 0.40040 0.41730 -0.55500
O 	O 	0.60180 0.72390 0.66140 -0.59500
O 	O 	0.26320 0.66140 0.61470 -0.58900
O 	O 	0.87790 0.27610 0.38530 -0.61800
O 	O 	0.05180 0.49500 0.32590 -0.40900
O 	O 	0.00170 0.81770 0.58270 -0.50100
O 	O 	0.55680 0.17910 0.49500 -0.42900
O 	O 	0.87790 0.61470 0.72390 -0.61700
O 	O 	0.18400 0.59960 0.81770 -0.54500
O 	O 	0.05180 0.67410 0.50500 -0.40900
O 	O 	0.58440 0.58270 0.59960 -0.55500
O 	O 	0.18400 0.18230 0.40040 -0.54700
O 	O 	0.37770 0.82090 0.67410 -0.42100
O 	O 	0.55680 0.50500 0.82090 -0.43000
