data_crystal

_cell_length_a 6.81160
_cell_length_b 15.12040
_cell_length_c 15.12040
_cell_angle_alpha 62.21360
_cell_angle_beta  81.36360
_cell_angle_gamma 98.63640

_symmetry_space_group_name_	'P 1'
_symmetry_space_group_name_H-M	'P 1'

loop_
_symmetry_equiv_pos_as_xyz
  x,y,z

loop_
_atom_site_label
_atom_site_type_symbol
_atom_site_fract_x
_atom_site_fract_y
_atom_site_fract_z
_atom_site_charge
Co	Co	0.80680 0.69800 0.58560 1.17800
Co	Co	0.10880 0.30200 0.28360 1.14900
Co	Co	0.39240 0.58560 0.71640 1.16700
Co	Co	0.80680 0.41440 0.30200 1.17900
Co	Co	0.10880 0.71640 0.69800 1.14900
Co	Co	0.39240 0.28360 0.41440 1.16700
H 	H 	0.25605 0.51715 -0.00000 0.11200
H 	H 	0.25605 0.00000 0.48285 0.11400
H 	H 	0.53655 0.00000 0.57735 -0.02400
H 	H 	0.53655 0.42265 -0.00000 -0.02200
H 	H 	0.73890 0.48285 0.51715 0.12300
H 	H 	0.11390 0.57735 0.42265 -0.03500
C 	C 	0.74850 0.54820 0.81310 0.47200
C 	C 	0.68350 0.00000 0.55650 0.25300
C 	C 	0.30910 0.58120 0.51320 -0.37700
C 	C 	0.94610 0.90610 0.55800 0.41800
C 	C 	0.58090 0.49935 0.50065 -0.34700
C 	C 	0.74850 0.18690 0.45180 0.47500
C 	C 	0.72790 0.90560 0.58120 -0.38400
C 	C 	0.24000 0.55650 0.44350 0.24900
C 	C 	0.56160 0.81310 0.63870 0.49500
C 	C 	0.72790 0.41880 0.09440 -0.37100
C 	C 	0.56160 0.36130 0.18690 0.49200
C 	C 	0.68350 0.44350 -0.00000 0.23500
C 	C 	0.04000 0.53590 0.90610 0.32800
C 	C 	0.04000 0.09390 0.46410 0.33200
C 	C 	0.20030 0.63870 0.54820 0.48900
C 	C 	0.08155 0.50065 -0.00000 -0.39300
C 	C 	0.50410 0.46410 0.44200 0.37700
C 	C 	0.30910 0.48680 0.41880 -0.37700
C 	C 	0.20030 0.45180 0.36130 0.48900
C 	C 	0.94610 0.44200 0.09390 0.42500
C 	C 	0.08155 0.00000 0.49935 -0.38600
C 	C 	0.82230 0.09440 0.48680 -0.32000
C 	C 	0.82230 0.51320 0.90560 -0.31400
C 	C 	0.50410 0.55800 0.53590 0.37700
O 	O 	0.56380 0.51100 0.82090 -0.46100
O 	O 	0.25440 0.38320 0.34310 -0.64400
O 	O 	0.17610 0.18050 0.39800 -0.55200
O 	O 	0.57410 0.39800 0.42150 -0.54700
O 	O 	0.87120 0.61680 0.72630 -0.60500
O 	O 	0.05280 0.48900 0.33190 -0.49200
O 	O 	0.99560 0.81950 0.57850 -0.53500
O 	O 	0.38470 0.82090 0.66810 -0.47700
O 	O 	0.25440 0.65690 0.61680 -0.64500
O 	O 	0.05280 0.66810 0.51100 -0.49300
O 	O 	0.59750 0.34310 0.27370 -0.63400
O 	O 	0.57410 0.57850 0.60200 -0.54700
O 	O 	0.17610 0.60200 0.81950 -0.55300
O 	O 	0.38470 0.33190 0.17910 -0.47200
O 	O 	0.59750 0.72630 0.65690 -0.63500
O 	O 	0.56380 0.17910 0.48900 -0.46100
O 	O 	0.99560 0.42150 0.18050 -0.53500
O 	O 	0.87120 0.27370 0.38320 -0.60600
