data_crystal

_cell_length_a 6.76770
_cell_length_b 15.10740
_cell_length_c 15.10740
_cell_angle_alpha 62.18920
_cell_angle_beta  81.41220
_cell_angle_gamma 98.58780

_symmetry_space_group_name_	'P 1'
_symmetry_space_group_name_H-M	'P 1'

loop_
_symmetry_equiv_pos_as_xyz
  x,y,z

loop_
_atom_site_label
_atom_site_type_symbol
_atom_site_fract_x
_atom_site_fract_y
_atom_site_fract_z
_atom_site_charge
Co	Co	0.11580 0.29620 0.28080 1.14100
Co	Co	0.11580 0.71920 0.70380 1.14200
Co	Co	0.39660 0.57700 0.71920 1.15800
Co	Co	0.81960 0.42300 0.29620 1.17000
Co	Co	0.81960 0.70380 0.57700 1.17100
Co	Co	0.39660 0.28080 0.42300 1.15800
H 	H 	0.25180 0.00000 0.48060 0.11800
H 	H 	0.73240 0.48060 0.51940 0.12600
H 	H 	0.52665 0.00000 0.57405 -0.01200
H 	H 	0.25180 0.51940 -0.00000 0.11700
H 	H 	0.52665 0.42595 -0.00000 -0.01100
H 	H 	0.10070 0.57405 0.42595 -0.02400
C 	C 	0.74560 0.54100 0.81460 0.44500
C 	C 	0.20460 0.64440 0.54100 0.46200
C 	C 	0.73300 0.90690 0.58790 -0.38400
C 	C 	0.56020 0.81460 0.64440 0.46600
C 	C 	0.32090 0.58790 0.50520 -0.38300
C 	C 	0.08865 0.49795 -0.00000 -0.37100
C 	C 	0.82610 0.50520 0.90690 -0.31400
C 	C 	0.82610 0.09310 0.49480 -0.32400
C 	C 	0.24690 0.55785 0.44215 0.25700
C 	C 	0.94240 0.90110 0.56290 0.41400
C 	C 	0.56020 0.35560 0.18540 0.46300
C 	C 	0.68905 0.44215 -0.00000 0.23600
C 	C 	0.04130 0.09890 0.46400 0.32800
C 	C 	0.74560 0.18540 0.45900 0.44800
C 	C 	0.94240 0.43710 0.09890 0.41500
C 	C 	0.50530 0.46400 0.43710 0.37600
C 	C 	0.20460 0.45900 0.35560 0.46200
C 	C 	0.59070 0.50205 0.49795 -0.32900
C 	C 	0.04130 0.53600 0.90110 0.32500
C 	C 	0.08865 0.00000 0.50205 -0.36700
C 	C 	0.50530 0.56290 0.53600 0.37600
C 	C 	0.73300 0.41210 0.09310 -0.37300
C 	C 	0.68905 0.00000 0.55785 0.25400
C 	C 	0.32090 0.49480 0.41210 -0.38300
O 	O 	0.59380 0.72830 0.65860 -0.59000
O 	O 	0.17830 0.18270 0.40380 -0.57400
O 	O 	0.86550 0.27170 0.38690 -0.56400
O 	O 	0.99560 0.81730 0.58650 -0.56000
O 	O 	0.99560 0.41350 0.18270 -0.56000
O 	O 	0.25240 0.38690 0.34140 -0.60000
O 	O 	0.05620 0.67160 0.50100 -0.48800
O 	O 	0.25240 0.65860 0.61310 -0.60100
O 	O 	0.55720 0.17260 0.49900 -0.45900
O 	O 	0.58210 0.40380 0.41350 -0.57200
O 	O 	0.86550 0.61310 0.72830 -0.56300
O 	O 	0.55720 0.50100 0.82740 -0.45800
O 	O 	0.58210 0.58650 0.59620 -0.57200
O 	O 	0.38460 0.32840 0.17260 -0.46900
O 	O 	0.05620 0.49900 0.32840 -0.48800
O 	O 	0.38460 0.82740 0.67160 -0.47200
O 	O 	0.17830 0.59620 0.81730 -0.57400
O 	O 	0.59380 0.34140 0.27170 -0.58900
