data_crystal

_cell_length_a 6.73900
_cell_length_b 15.03490
_cell_length_c 15.03490
_cell_angle_alpha 62.19160
_cell_angle_beta  81.40740
_cell_angle_gamma 98.59260

_symmetry_space_group_name_	'P 1'
_symmetry_space_group_name_H-M	'P 1'

loop_
_symmetry_equiv_pos_as_xyz
  x,y,z

loop_
_atom_site_label
_atom_site_type_symbol
_atom_site_fract_x
_atom_site_fract_y
_atom_site_fract_z
_atom_site_charge
Ni	Ni	0.39080 0.28040 0.41780 1.11000
Ni	Ni	0.11040 0.30180 0.28040 1.10200
Ni	Ni	0.80860 0.41780 0.30180 1.11700
Ni	Ni	0.11040 0.71960 0.69820 1.10000
Ni	Ni	0.39080 0.58220 0.71960 1.11000
Ni	Ni	0.80860 0.69820 0.58220 1.11700
H 	H 	0.22255 0.50665 -0.00000 0.24100
H 	H 	0.71590 0.49335 0.50665 0.24500
H 	H 	0.54415 0.00000 0.56355 -0.04300
H 	H 	0.22255 0.00000 0.49335 0.24300
H 	H 	0.54415 0.43645 -0.00000 -0.03900
H 	H 	0.10770 0.56355 0.43645 -0.04700
C 	C 	0.08590 0.00000 0.49830 -0.56600
C 	C 	0.29870 0.48360 0.42550 -0.33300
C 	C 	0.55070 0.81090 0.64280 0.38500
C 	C 	0.19350 0.64280 0.54630 0.38000
C 	C 	0.19350 0.45370 0.35720 0.38000
C 	C 	0.72420 0.90910 0.57450 -0.34500
C 	C 	0.73980 0.54630 0.81090 0.37500
C 	C 	0.03860 0.53230 0.90850 0.38500
C 	C 	0.23540 0.55560 0.44440 0.26100
C 	C 	0.94710 0.44080 0.09150 0.44500
C 	C 	0.67980 0.44440 -0.00000 0.25800
C 	C 	0.81510 0.09090 0.48360 -0.30400
C 	C 	0.58420 0.49830 0.50170 -0.55100
C 	C 	0.03860 0.09150 0.46770 0.39700
C 	C 	0.55070 0.35720 0.18910 0.38300
C 	C 	0.73980 0.18910 0.45370 0.37700
C 	C 	0.08590 0.50170 -0.00000 -0.56700
C 	C 	0.29870 0.57450 0.51640 -0.33300
C 	C 	0.94710 0.90850 0.55920 0.43800
C 	C 	0.81510 0.51640 0.90910 -0.30300
C 	C 	0.50630 0.46770 0.44080 0.42100
C 	C 	0.72420 0.42550 0.09090 -0.32800
C 	C 	0.67980 -0.00000 0.55560 0.27300
C 	C 	0.50630 0.55920 0.53230 0.42100
O 	O 	0.98510 0.41720 0.18490 -0.53600
O 	O 	0.98510 0.81510 0.58280 -0.53600
O 	O 	0.86460 0.27530 0.38150 -0.55300
O 	O 	0.17000 0.18490 0.39790 -0.54600
O 	O 	0.56790 0.39790 0.41720 -0.54300
O 	O 	0.58930 0.34320 0.27530 -0.56700
O 	O 	0.03320 0.49770 0.32710 -0.43500
O 	O 	0.53550 0.17520 0.49770 -0.41900
O 	O 	0.53550 0.50230 0.82480 -0.42100
O 	O 	0.58930 0.72470 0.65680 -0.56900
O 	O 	0.17000 0.60210 0.81510 -0.54700
O 	O 	0.56790 0.58280 0.60210 -0.54300
O 	O 	0.03320 0.67290 0.50230 -0.43600
O 	O 	0.36030 0.82480 0.67290 -0.43100
O 	O 	0.24610 0.38150 0.34320 -0.57300
O 	O 	0.24610 0.65680 0.61850 -0.57400
O 	O 	0.36030 0.32710 0.17520 -0.42300
O 	O 	0.86460 0.61850 0.72470 -0.55300
