data_crystal

_cell_length_a 6.75450
_cell_length_b 15.05110
_cell_length_c 15.05110
_cell_angle_alpha 62.19690
_cell_angle_beta  81.39690
_cell_angle_gamma 98.60310

_symmetry_space_group_name_	'P 1'
_symmetry_space_group_name_H-M	'P 1'

loop_
_symmetry_equiv_pos_as_xyz
  x,y,z

loop_
_atom_site_label
_atom_site_type_symbol
_atom_site_fract_x
_atom_site_fract_y
_atom_site_fract_z
_atom_site_charge
Ni	Ni	0.81280 0.69510 0.58600 1.11200
Ni	Ni	0.39880 0.28110 0.41400 1.10600
Ni	Ni	0.11770 0.71890 0.69510 1.09600
Ni	Ni	0.11770 0.30490 0.28110 1.09700
Ni	Ni	0.81280 0.41400 0.30490 1.11300
Ni	Ni	0.39880 0.58600 0.71890 1.10600
H 	H 	0.11700 0.56550 0.43450 -0.04500
H 	H 	0.74100 0.49050 0.50950 0.15600
H 	H 	0.25050 0.00000 0.49050 0.15200
H 	H 	0.55150 0.43450 -0.00000 -0.03400
H 	H 	0.55150 0.00000 0.56550 -0.03900
H 	H 	0.25050 0.50950 -0.00000 0.15000
C 	C 	0.67545 -0.00000 0.55965 0.23200
C 	C 	0.81830 0.09070 0.48280 -0.27300
C 	C 	0.67545 0.44035 -0.00000 0.21600
C 	C 	0.09585 0.50755 -0.00000 -0.40300
C 	C 	0.74740 0.54140 0.81320 0.38600
C 	C 	0.04470 0.53630 0.90620 0.34700
C 	C 	0.20600 0.64540 0.54140 0.39200
C 	C 	0.95090 0.44250 0.09380 0.40400
C 	C 	0.58830 0.49245 0.50755 -0.38400
C 	C 	0.56060 0.81320 0.64540 0.39500
C 	C 	0.04470 0.09380 0.46370 0.35400
C 	C 	0.72760 0.90930 0.57350 -0.31100
C 	C 	0.74740 0.18680 0.45860 0.38700
C 	C 	0.81830 0.51720 0.90930 -0.27100
C 	C 	0.95090 0.90620 0.55750 0.39900
C 	C 	0.09585 0.00000 0.49245 -0.40100
C 	C 	0.30110 0.57350 0.51720 -0.30600
C 	C 	0.72760 0.42650 0.09070 -0.29800
C 	C 	0.56060 0.35460 0.18680 0.39300
C 	C 	0.23510 0.55965 0.44035 0.22800
C 	C 	0.20600 0.45860 0.35460 0.39200
C 	C 	0.50840 0.46370 0.44250 0.38000
C 	C 	0.50840 0.55750 0.53630 0.38000
C 	C 	0.30110 0.48280 0.42650 -0.30600
O 	O 	0.03420 0.66440 0.50880 -0.44600
O 	O 	0.59460 0.34720 0.27240 -0.57600
O 	O 	0.16400 0.18190 0.39790 -0.54400
O 	O 	0.54300 0.17320 0.49120 -0.42800
O 	O 	0.59460 0.72760 0.65280 -0.57700
O 	O 	0.56190 0.39790 0.42020 -0.54200
O 	O 	0.86700 0.61960 0.72760 -0.56100
O 	O 	0.36980 0.33560 0.17320 -0.43300
O 	O 	0.24740 0.65280 0.61960 -0.58300
O 	O 	0.54300 0.50880 0.82680 -0.42900
O 	O 	0.86700 0.27240 0.38040 -0.56100
O 	O 	0.98210 0.81810 0.57980 -0.53500
O 	O 	0.36980 0.82680 0.66440 -0.43800
O 	O 	0.24740 0.38040 0.34720 -0.58200
O 	O 	0.56190 0.57980 0.60210 -0.54200
O 	O 	0.98210 0.42020 0.18190 -0.53500
O 	O 	0.03420 0.49120 0.33560 -0.44600
O 	O 	0.16400 0.60210 0.81810 -0.54400
