data_crystal

_cell_length_a 15.74500
_cell_length_b 26.50600
_cell_length_c 27.76500
_cell_angle_alpha 86.97600
_cell_angle_beta  84.13900
_cell_angle_gamma 88.30200

_symmetry_space_group_name_	'P 1'
_symmetry_space_group_name_H-M	'P 1'

loop_
_symmetry_equiv_pos_as_xyz
  x,y,z

loop_
_atom_site_label
_atom_site_type_symbol
_atom_site_fract_x
_atom_site_fract_y
_atom_site_fract_z
_atom_site_charge
Mo	Mo	0.27964 0.34571 0.30857 1.05500
Mo	Mo	0.19378 0.39763 0.37551 1.04900
Mo	Mo	0.56812 0.32518 0.41323 1.10300
Mo	Mo	0.49997 0.49369 0.25169 1.06000
Mo	Mo	0.45791 0.40229 0.23763 1.05600
Mo	Mo	0.28657 0.42452 0.48429 1.05300
Mo	Mo	0.48519 0.30223 0.31728 1.10300
Mo	Mo	0.39626 0.56823 0.33714 1.10500
Mo	Mo	0.23800 0.51876 0.40113 1.10100
Mo	Mo	0.44314 0.39391 0.49541 1.13900
Mo	Mo	0.59383 0.52060 0.36019 1.05600
Mo	Mo	0.61794 0.44809 0.42534 1.04200
Mo	Mo	0.78232 0.83217 0.10177 1.04800
Mo	Mo	0.70088 0.80119 0.18394 1.05200
Mo	Mo	0.48285 0.80566 0.20832 1.10500
Mo	Mo	0.79473 0.95549 0.06066 1.09700
Mo	Mo	0.59415 0.89132 0.26346 1.05900
Mo	Mo	0.66512 0.88130 0.00338 1.03900
Mo	Mo	0.39485 0.97542 0.09307 1.04600
Mo	Mo	0.59870 0.98700 0.23736 1.06000
Mo	Mo	0.70050 0.03534 0.13064 1.10100
Mo	Mo	0.48138 0.03638 0.13953 1.04300
Mo	Mo	0.49807 0.88668 0.01624 1.03900
Mo	Mo	0.37888 0.84825 0.12205 1.09900
Zn	Zn	0.34801 0.30708 0.42447 1.22500
Zn	Zn	0.27626 0.48320 0.28164 1.22600
Zn	Zn	0.63792 0.39760 0.30764 1.22000
Zn	Zn	0.42682 0.52827 0.45730 1.20800
Zn	Zn	0.60145 0.00859 0.02685 1.19900
Zn	Zn	0.39870 0.92914 0.21539 1.22500
Zn	Zn	0.56846 0.78415 0.08926 1.22300
Zn	Zn	0.78892 0.92780 0.18552 1.21800
C 	C 	0.98430 0.08760 0.47640 0.02700
C 	C 	0.97520 0.05710 0.43840 -0.11000
H 	H 	0.00940 0.06200 0.40930 0.06200
C 	C 	0.91540 0.01900 0.44310 0.04400
C 	C 	0.87260 0.00710 0.48410 -0.10900
H 	H 	0.83970 0.97840 0.48640 0.06100
C 	C 	0.87340 0.03570 0.52550 0.01900
C 	C 	0.93400 0.07670 0.52050 -0.09500
H 	H 	0.93940 0.09610 0.54690 0.05700
C 	C 	0.04290 0.13100 0.47520 0.04600
C 	C 	0.02010 0.17430 0.49580 -0.13300
H 	H 	0.96650 0.17780 0.51290 0.05900
C 	C 	0.07600 0.21410 0.49170 0.04200
H 	H 	0.05840 0.24460 0.50510 0.00800
C 	C 	0.15440 0.20970 0.46900 -0.12600
C 	C 	0.17960 0.16400 0.44580 0.04800
H 	H 	0.23250 0.16180 0.42770 0.01000
C 	C 	0.12990 0.12570 0.44970 -0.13500
H 	H 	0.14850 0.09520 0.43670 0.07200
C 	C 	0.21020 0.25640 0.46310 0.32700
C 	C 	0.91160 0.98870 0.39900 0.02900
C 	C 	0.88710 0.94000 0.40020 -0.11200
H 	H 	0.88050 0.92300 0.43040 0.06400
C 	C 	0.87150 0.91380 0.36170 0.01800
H 	H 	0.85400 0.88050 0.36570 0.02000
C 	C 	0.88280 0.93940 0.31370 -0.11900
C 	C 	0.90740 0.98820 0.30980 0.02200
H 	H 	0.91310 0.00580 0.27980 0.01100
C 	C 	0.92430 0.01190 0.35240 -0.10800
H 	H 	0.94490 0.04460 0.34930 0.05100
C 	C 	0.86030 0.91310 0.27210 0.30000
C 	C 	0.82490 0.02610 0.57100 0.05800
C 	C 	0.75060 0.00290 0.57770 -0.14700
H 	H 	0.73020 0.98920 0.55110 0.06600
C 	C 	0.70270 0.99810 0.62130 0.05900
H 	H 	0.64940 0.98360 0.62280 -0.00400
C 	C 	0.73150 0.01460 0.66470 -0.15600
C 	C 	0.80990 0.03520 0.65900 0.06800
H 	H 	0.83070 0.04730 0.68620 0.00600
C 	C 	0.86090 0.03920 0.61550 -0.14100
H 	H 	0.91680 0.05010 0.61430 0.07800
C 	C 	0.67360 0.01500 0.71120 0.38700
C 	C 	0.04820 0.58750 0.95020 0.03300
C 	C 	0.96780 0.61340 0.95630 -0.11000
H 	H 	0.94510 0.62920 0.92960 0.06000
C 	C 	0.92420 0.61520 0.00080 0.02700
C 	C 	0.95990 0.59040 0.04020 -0.11300
H 	H 	0.92880 0.59070 0.07050 0.05900
C 	C 	0.03610 0.56640 0.03690 0.03800
C 	C 	0.08050 0.56360 0.98980 -0.10900
H 	H 	0.13190 0.54530 0.98580 0.06400
C 	C 	0.09370 0.58680 0.89980 0.04600
C 	C 	0.12850 0.53760 0.88540 -0.11400
H 	H 	0.11950 0.50830 0.90510 0.06700
C 	C 	0.17640 0.53720 0.84000 0.02800
H 	H 	0.19840 0.50660 0.82870 0.02000
C 	C 	0.19180 0.57980 0.81200 -0.11300
C 	C 	0.15560 0.62440 0.82670 0.02900
H 	H 	0.16360 0.65340 0.80660 0.01300
C 	C 	0.10580 0.62750 0.87220 -0.12400
H 	H 	0.08220 0.65830 0.88210 0.05600
C 	C 	0.24450 0.57580 0.76180 0.32700
C 	C 	0.83390 0.63640 0.00640 0.05100
C 	C 	0.77240 0.62730 0.97770 -0.14400
H 	H 	0.78500 0.60420 0.95370 0.07300
C 	C 	0.69420 0.64940 0.98140 0.06000
H 	H 	0.65880 0.64690 0.95690 0.00700
C 	C 	0.66540 0.67720 0.02390 -0.17000
C 	C 	0.72930 0.68660 0.05130 0.07500
H 	H 	0.71560 0.70910 0.07560 -0.03500
C 	C 	0.81110 0.66750 0.04780 -0.15200
H 	H 	0.84930 0.67380 0.07010 0.05100
C 	C 	0.57800 0.69860 0.02770 0.35000
C 	C 	0.07500 0.54220 0.07770 0.03300
C 	C 	0.06300 0.56390 0.12270 -0.11200
H 	H 	0.02930 0.59310 0.12640 0.05000
C 	C 	0.10110 0.54200 0.16210 0.03300
H 	H 	0.09040 0.55580 0.19230 0.01300
C 	C 	0.15210 0.50190 0.15700 -0.10800
C 	C 	0.16570 0.47850 0.11440 0.02000
H 	H 	0.20020 0.44940 0.11210 0.02400
C 	C 	0.12700 0.49890 0.07340 -0.10300
H 	H 	0.13620 0.48340 0.04390 0.06400
C 	C 	0.20200 0.47870 0.19670 0.30100
O 	O 	0.63830 0.45130 0.35330 -0.72800
O 	O 	0.39160 0.46140 0.48620 -0.75600
O 	O 	0.46030 0.30100 0.38890 -0.71000
O 	O 	0.35500 0.54690 0.40690 -0.71300
O 	O 	0.58280 0.33890 0.34060 -0.70600
O 	O 	0.34930 0.36100 0.47150 -0.70700
O 	O 	0.29160 0.52840 0.33170 -0.71400
O 	O 	0.55660 0.42840 0.26240 -0.71500
O 	O 	0.27030 0.33850 0.37890 -0.72200
O 	O 	0.55730 0.42820 0.49040 -0.68700
O 	O 	0.24000 0.41740 0.30820 -0.71600
O 	O 	0.64480 0.37460 0.41790 -0.60000
O 	O 	0.59750 0.52100 0.28420 -0.48100
O 	O 	0.54270 0.50690 0.42550 -0.75000
O 	O 	0.33690 0.36920 0.24250 -0.47800
O 	O 	0.42850 0.38020 0.55540 -0.34200
O 	O 	0.24000 0.49260 0.46270 -0.61700
O 	O 	0.19060 0.39370 0.44980 -0.49000
O 	O 	0.50280 0.57380 0.35690 -0.57500
O 	O 	0.43130 0.55380 0.27510 -0.59300
O 	O 	0.38890 0.46420 0.24860 -0.71500
O 	O 	0.50880 0.33080 0.47230 -0.55700
O 	O 	0.17080 0.47220 0.37950 -0.60200
O 	O 	0.50960 0.33590 0.25710 -0.57800
O 	O 	0.37220 0.29340 0.31270 -0.59200
O 	O 	0.28910 0.24780 0.44400 -0.48100
O 	O 	0.18060 0.29610 0.47670 -0.33600
O 	O 	0.26320 0.53330 0.74880 -0.34200
O 	O 	0.26630 0.61730 0.74040 -0.48000
O 	O 	0.20250 0.50820 0.23370 -0.46200
O 	O 	0.23890 0.43680 0.19570 -0.31200
O 	O 	0.49690 0.01410 0.07320 -0.77600
O 	O 	0.50530 0.93970 0.24480 -0.71700
O 	O 	0.41330 0.94560 0.02840 -0.72600
O 	O 	0.58610 0.93910 0.00800 -0.77400
O 	O 	0.69930 0.00780 0.06470 -0.72900
O 	O 	0.50580 0.83960 0.26010 -0.59200
O 	O 	0.40100 0.86280 0.19080 -0.70900
O 	O 	0.68630 0.93350 0.23190 -0.71800
O 	O 	0.67840 0.79300 0.11620 -0.72700
O 	O 	0.68470 0.02760 0.19690 -0.59400
O 	O 	0.50710 0.03470 0.21130 -0.48500
O 	O 	0.47560 0.80070 0.13700 -0.71100
O 	O 	0.33190 0.91350 0.11740 -0.59200
O 	O 	0.41290 0.84400 0.05790 -0.59800
O 	O 	0.75500 0.83080 0.03040 -0.50900
O 	O 	0.84560 0.89600 0.08190 -0.59800
O 	O 	0.57990 0.83530 0.03480 -0.74400
O 	O 	0.40750 0.98070 0.16130 -0.73700
O 	O 	0.75320 0.93340 0.00710 -0.62800
O 	O 	0.77800 0.85640 0.16650 -0.73100
O 	O 	0.58740 0.77260 0.20130 -0.59000
O 	O 	0.59700 0.06570 0.12440 -0.61900
O 	O 	0.78130 0.97470 0.12990 -0.71700
O 	O 	0.68030 0.83440 0.25260 -0.47400
O 	O 	0.68800 0.05150 0.73580 -0.50900
O 	O 	0.62180 0.98270 0.72060 -0.35000
O 	O 	0.55200 0.71950 0.06750 -0.49000
O 	O 	0.51660 0.67420 0.01060 -0.11000
O 	O 	0.82410 0.87020 0.27540 -0.30400
O 	O 	0.87210 0.93800 0.23030 -0.46900
O 	O 	0.53180 0.69650 0.99160 -0.20600
O 	O 	0.47300 0.37670 0.55140 -0.15300
Mo	Mo	0.72036 0.65429 0.69143 1.05500
Mo	Mo	0.80622 0.60237 0.62449 1.04900
Mo	Mo	0.43188 0.67482 0.58677 1.10300
Mo	Mo	0.50003 0.50631 0.74831 1.06000
Mo	Mo	0.54209 0.59771 0.76237 1.05600
Mo	Mo	0.71343 0.57548 0.51571 1.05300
Mo	Mo	0.51481 0.69777 0.68272 1.10300
Mo	Mo	0.60374 0.43177 0.66286 1.10500
Mo	Mo	0.76200 0.48124 0.59887 1.10100
Mo	Mo	0.55686 0.60609 0.50459 1.13900
Mo	Mo	0.40617 0.47940 0.63981 1.05600
Mo	Mo	0.38206 0.55191 0.57466 1.04200
Mo	Mo	0.21768 0.16783 0.89823 1.04800
Mo	Mo	0.29912 0.19881 0.81606 1.05200
Mo	Mo	0.51715 0.19434 0.79168 1.10500
Mo	Mo	0.20527 0.04451 0.93934 1.09700
Mo	Mo	0.40585 0.10868 0.73654 1.05900
Mo	Mo	0.33488 0.11870 0.99662 1.03900
Mo	Mo	0.60515 0.02458 0.90693 1.04600
Mo	Mo	0.40130 0.01300 0.76264 1.06000
Mo	Mo	0.29950 0.96466 0.86936 1.10100
Mo	Mo	0.51862 0.96362 0.86047 1.04300
Mo	Mo	0.50193 0.11332 0.98376 1.03900
Mo	Mo	0.62112 0.15175 0.87795 1.09900
Zn	Zn	0.65199 0.69292 0.57553 1.22500
Zn	Zn	0.72374 0.51680 0.71836 1.22600
Zn	Zn	0.36208 0.60240 0.69236 1.22000
Zn	Zn	0.57318 0.47173 0.54270 1.20800
Zn	Zn	0.39855 0.99141 0.97315 1.19900
Zn	Zn	0.60130 0.07086 0.78461 1.22500
Zn	Zn	0.43154 0.21585 0.91074 1.22300
Zn	Zn	0.21108 0.07220 0.81448 1.21800
C 	C 	0.01570 0.91240 0.52360 0.02700
C 	C 	0.02480 0.94290 0.56160 -0.11000
H 	H 	0.99060 0.93800 0.59070 0.06200
C 	C 	0.08460 0.98100 0.55690 0.04400
C 	C 	0.12740 0.99290 0.51590 -0.10900
H 	H 	0.16030 0.02160 0.51360 0.06100
C 	C 	0.12660 0.96430 0.47450 0.01900
C 	C 	0.06600 0.92330 0.47950 -0.09500
H 	H 	0.06060 0.90390 0.45310 0.05700
C 	C 	0.95710 0.86900 0.52480 0.04600
C 	C 	0.97990 0.82570 0.50420 -0.13300
H 	H 	0.03350 0.82220 0.48710 0.05900
C 	C 	0.92400 0.78590 0.50830 0.04200
H 	H 	0.94160 0.75540 0.49490 0.00800
C 	C 	0.84560 0.79030 0.53100 -0.12600
C 	C 	0.82040 0.83600 0.55420 0.04800
H 	H 	0.76750 0.83820 0.57230 0.01000
C 	C 	0.87010 0.87430 0.55030 -0.13500
H 	H 	0.85150 0.90480 0.56330 0.07200
C 	C 	0.78980 0.74360 0.53690 0.32700
C 	C 	0.08840 0.01130 0.60100 0.02900
C 	C 	0.11290 0.06000 0.59980 -0.11200
H 	H 	0.11950 0.07700 0.56960 0.06400
C 	C 	0.12850 0.08620 0.63830 0.01800
H 	H 	0.14600 0.11950 0.63430 0.02000
C 	C 	0.11720 0.06060 0.68630 -0.11900
C 	C 	0.09260 0.01180 0.69020 0.02200
H 	H 	0.08690 0.99420 0.72020 0.01100
C 	C 	0.07570 0.98810 0.64760 -0.10800
H 	H 	0.05510 0.95540 0.65070 0.05100
C 	C 	0.13970 0.08690 0.72790 0.30000
C 	C 	0.17510 0.97390 0.42900 0.05800
C 	C 	0.24940 0.99710 0.42230 -0.14700
H 	H 	0.26980 0.01080 0.44890 0.06600
C 	C 	0.29730 0.00190 0.37870 0.05900
H 	H 	0.35060 0.01640 0.37720 -0.00400
C 	C 	0.26850 0.98540 0.33530 -0.15600
C 	C 	0.19010 0.96480 0.34100 0.06800
H 	H 	0.16930 0.95270 0.31380 0.00600
C 	C 	0.13910 0.96080 0.38450 -0.14100
H 	H 	0.08320 0.94990 0.38570 0.07800
C 	C 	0.32640 0.98500 0.28880 0.38700
C 	C 	0.95180 0.41250 0.04980 0.03300
C 	C 	0.03220 0.38660 0.04370 -0.11000
H 	H 	0.05490 0.37080 0.07040 0.06000
C 	C 	0.07580 0.38480 0.99920 0.02700
C 	C 	0.04010 0.40960 0.95980 -0.11300
H 	H 	0.07120 0.40930 0.92950 0.05900
C 	C 	0.96390 0.43360 0.96310 0.03800
C 	C 	0.91950 0.43640 0.01020 -0.10900
H 	H 	0.86810 0.45470 0.01420 0.06400
C 	C 	0.90630 0.41320 0.10020 0.04600
C 	C 	0.87150 0.46240 0.11460 -0.11400
H 	H 	0.88050 0.49170 0.09490 0.06700
C 	C 	0.82360 0.46280 0.16000 0.02800
H 	H 	0.80160 0.49340 0.17130 0.02000
C 	C 	0.80820 0.42020 0.18800 -0.11300
C 	C 	0.84440 0.37560 0.17330 0.02900
H 	H 	0.83640 0.34660 0.19340 0.01300
C 	C 	0.89420 0.37250 0.12780 -0.12400
H 	H 	0.91780 0.34170 0.11790 0.05600
C 	C 	0.75550 0.42420 0.23820 0.32700
C 	C 	0.16610 0.36360 0.99360 0.05100
C 	C 	0.22760 0.37270 0.02230 -0.14400
H 	H 	0.21500 0.39580 0.04630 0.07300
C 	C 	0.30580 0.35060 0.01860 0.06000
H 	H 	0.34120 0.35310 0.04310 0.00700
C 	C 	0.33460 0.32280 0.97610 -0.17000
C 	C 	0.27070 0.31340 0.94870 0.07500
H 	H 	0.28440 0.29090 0.92440 -0.03500
C 	C 	0.18890 0.33250 0.95220 -0.15200
H 	H 	0.15070 0.32620 0.92990 0.05100
C 	C 	0.42200 0.30140 0.97230 0.35000
C 	C 	0.92500 0.45780 0.92230 0.03300
C 	C 	0.93700 0.43610 0.87730 -0.11200
H 	H 	0.97070 0.40690 0.87360 0.05000
C 	C 	0.89890 0.45800 0.83790 0.03300
H 	H 	0.90960 0.44420 0.80770 0.01300
C 	C 	0.84790 0.49810 0.84300 -0.10800
C 	C 	0.83430 0.52150 0.88560 0.02000
H 	H 	0.79980 0.55060 0.88790 0.02400
C 	C 	0.87300 0.50110 0.92660 -0.10300
H 	H 	0.86380 0.51660 0.95610 0.06400
C 	C 	0.79800 0.52130 0.80330 0.30100
O 	O 	0.36170 0.54870 0.64670 -0.72800
O 	O 	0.60840 0.53860 0.51380 -0.75600
O 	O 	0.53970 0.69900 0.61110 -0.71000
O 	O 	0.64500 0.45310 0.59310 -0.71300
O 	O 	0.41720 0.66110 0.65940 -0.70600
O 	O 	0.65070 0.63900 0.52850 -0.70700
O 	O 	0.70840 0.47160 0.66830 -0.71400
O 	O 	0.44340 0.57160 0.73760 -0.71500
O 	O 	0.72970 0.66150 0.62110 -0.72200
O 	O 	0.44270 0.57180 0.50960 -0.68700
O 	O 	0.76000 0.58260 0.69180 -0.71600
O 	O 	0.35520 0.62540 0.58210 -0.60000
O 	O 	0.40250 0.47900 0.71580 -0.48100
O 	O 	0.45730 0.49310 0.57450 -0.75000
O 	O 	0.66310 0.63080 0.75750 -0.47800
O 	O 	0.57150 0.61980 0.44460 -0.34200
O 	O 	0.76000 0.50740 0.53730 -0.61700
O 	O 	0.80940 0.60630 0.55020 -0.49000
O 	O 	0.49720 0.42620 0.64310 -0.57500
O 	O 	0.56870 0.44620 0.72490 -0.59300
O 	O 	0.61110 0.53580 0.75140 -0.71500
O 	O 	0.49120 0.66920 0.52770 -0.55700
O 	O 	0.82920 0.52780 0.62050 -0.60200
O 	O 	0.49040 0.66410 0.74290 -0.57800
O 	O 	0.62780 0.70660 0.68730 -0.59200
O 	O 	0.71090 0.75220 0.55600 -0.48100
O 	O 	0.81940 0.70390 0.52330 -0.33600
O 	O 	0.73680 0.46670 0.25120 -0.34200
O 	O 	0.73370 0.38270 0.25960 -0.48000
O 	O 	0.79750 0.49180 0.76630 -0.46200
O 	O 	0.76110 0.56320 0.80430 -0.31200
O 	O 	0.50310 0.98590 0.92680 -0.77600
O 	O 	0.49470 0.06030 0.75520 -0.71700
O 	O 	0.58670 0.05440 0.97160 -0.72600
O 	O 	0.41390 0.06090 0.99200 -0.77400
O 	O 	0.30070 0.99220 0.93530 -0.72900
O 	O 	0.49420 0.16040 0.73990 -0.59200
O 	O 	0.59900 0.13720 0.80920 -0.70900
O 	O 	0.31370 0.06650 0.76810 -0.71800
O 	O 	0.32160 0.20700 0.88380 -0.72700
O 	O 	0.31530 0.97240 0.80310 -0.59400
O 	O 	0.49290 0.96530 0.78870 -0.48500
O 	O 	0.52440 0.19930 0.86300 -0.71100
O 	O 	0.66810 0.08650 0.88260 -0.59200
O 	O 	0.58710 0.15600 0.94210 -0.59800
O 	O 	0.24500 0.16920 0.96960 -0.50900
O 	O 	0.15440 0.10400 0.91810 -0.59800
O 	O 	0.42010 0.16470 0.96520 -0.74400
O 	O 	0.59250 0.01930 0.83870 -0.73700
O 	O 	0.24680 0.06660 0.99290 -0.62800
O 	O 	0.22200 0.14360 0.83350 -0.73100
O 	O 	0.41260 0.22740 0.79870 -0.59000
O 	O 	0.40300 0.93430 0.87560 -0.61900
O 	O 	0.21870 0.02530 0.87010 -0.71700
O 	O 	0.31970 0.16560 0.74740 -0.47400
O 	O 	0.31200 0.94850 0.26420 -0.50900
O 	O 	0.37820 0.01730 0.27940 -0.35000
O 	O 	0.44800 0.28050 0.93250 -0.49000
O 	O 	0.48340 0.32580 0.98940 -0.11000
O 	O 	0.17590 0.12980 0.72460 -0.30400
O 	O 	0.12790 0.06200 0.76970 -0.46900
O 	O 	0.46820 0.30350 0.00840 -0.20600
O 	O 	0.52700 0.62330 0.44860 -0.15300
