data_crystal

_cell_length_a 9.79180
_cell_length_b 9.94540
_cell_length_c 12.73610
_cell_angle_alpha 84.21600
_cell_angle_beta  76.64200
_cell_angle_gamma 64.07000

_symmetry_space_group_name_	'P 1'
_symmetry_space_group_name_H-M	'P 1'

loop_
_symmetry_equiv_pos_as_xyz
  x,y,z

loop_
_atom_site_label
_atom_site_type_symbol
_atom_site_fract_x
_atom_site_fract_y
_atom_site_fract_z
_atom_site_charge
U 	U 	0.55948 0.99167 0.27489 0.04300
Cl	Cl	0.81630 0.92500 0.35229 -0.17300
O 	O 	0.64300 0.18580 0.18800 -0.16300
O 	O 	0.46030 0.16720 0.12830 -0.18100
O 	O 	0.47720 0.17860 0.40530 -0.14800
O 	O 	0.73350 0.72210 0.23630 -0.17500
O 	O 	0.74960 0.88010 0.10680 -0.17100
O 	O 	0.50290 0.13600 0.57600 -0.14400
C 	C 	0.49550 0.36350 0.49680 -0.01000
C 	C 	0.49220 0.21530 0.49230 0.28200
C 	C 	0.51870 0.44000 0.40190 -0.01800
H 	H 	0.53170 0.39890 0.33580 0.07900
C 	C 	0.47740 0.42400 0.59510 -0.02100
H 	H 	0.46260 0.37280 0.65880 0.08500
C 	C 	0.78850 0.75190 0.14030 0.28300
C 	C 	0.90120 0.62210 0.06760 -0.02900
C 	C 	0.94280 0.64430 0.95930 -0.02700
H 	H 	0.90540 0.74050 0.93100 0.08400
C 	C 	0.95910 0.47710 0.10870 -0.02500
H 	H 	0.93190 0.46120 0.18220 0.07700
C 	C 	0.52190 0.37100 0.06170 -0.02500
C 	C 	0.54040 0.23270 0.12990 0.28000
C 	C 	0.41610 0.42020 0.99490 -0.02000
H 	H 	0.35980 0.36660 0.99110 0.07000
C 	C 	0.60680 0.45030 0.06690 -0.02200
H 	H 	0.67860 0.41750 0.11120 0.06700
U 	U 	0.44052 0.00833 0.72511 0.04400
Cl	Cl	0.18370 0.07500 0.64771 -0.17200
O 	O 	0.35700 0.81420 0.81200 -0.16200
O 	O 	0.53970 0.83280 0.87170 -0.18000
O 	O 	0.52280 0.82140 0.59470 -0.14800
O 	O 	0.26650 0.27790 0.76370 -0.17500
O 	O 	0.25040 0.11990 0.89320 -0.17100
O 	O 	0.49710 0.86400 0.42400 -0.14400
C 	C 	0.50450 0.63650 0.50320 -0.01000
C 	C 	0.50780 0.78470 0.50770 0.28200
C 	C 	0.48130 0.56000 0.59810 -0.01800
H 	H 	0.46830 0.60110 0.66420 0.07900
C 	C 	0.52260 0.57600 0.40490 -0.02100
H 	H 	0.53740 0.62720 0.34120 0.08500
C 	C 	0.21150 0.24810 0.85970 0.28300
C 	C 	0.09880 0.37790 0.93240 -0.02900
C 	C 	0.05720 0.35570 0.04070 -0.02700
H 	H 	0.09460 0.25950 0.06900 0.08400
C 	C 	0.04090 0.52290 0.89130 -0.02500
H 	H 	0.06810 0.53880 0.81780 0.07700
C 	C 	0.47810 0.62900 0.93830 -0.02500
C 	C 	0.45960 0.76730 0.87010 0.28000
C 	C 	0.58390 0.57980 0.00510 -0.02000
H 	H 	0.64020 0.63340 0.00890 0.07000
C 	C 	0.39320 0.54970 0.93310 -0.02200
H 	H 	0.32140 0.58250 0.88880 0.06700
