data_crystal

_cell_length_a 17.40250
_cell_length_b 9.98870
_cell_length_c 25.59460
_cell_angle_alpha 90.00000
_cell_angle_beta  98.56800
_cell_angle_gamma 90.00000

_symmetry_space_group_name_	'P 1'
_symmetry_space_group_name_H-M	'P 1'

loop_
_symmetry_equiv_pos_as_xyz
  x,y,z

loop_
_atom_site_label
_atom_site_type_symbol
_atom_site_fract_x
_atom_site_fract_y
_atom_site_fract_z
_atom_site_charge
U 	U 	0.53331 0.43826 0.86060 0.04600
Cl	Cl	0.66411 0.37908 0.81975 -0.17000
O 	O 	0.49395 0.28540 0.79253 -0.14400
O 	O 	0.50614 0.59000 0.79340 -0.15000
O 	O 	0.56690 0.21650 0.89977 -0.16700
O 	O 	0.62537 0.47350 0.94230 -0.16000
O 	O 	0.62303 0.63080 0.88213 -0.16800
O 	O 	0.47918 0.32750 0.93391 -0.17500
C 	C 	0.64770 0.58660 0.92780 0.26900
C 	C 	0.51860 0.22340 0.93165 0.27700
C 	C 	0.73110 0.78750 0.94785 -0.03100
H 	H 	0.71830 0.81340 0.91270 0.08000
C 	C 	0.70170 0.66950 0.96525 -0.02200
C 	C 	0.50850 0.10790 0.96760 -0.02200
C 	C 	0.55260 0.99100 0.96405 -0.02600
H 	H 	0.58780 0.98560 0.94010 0.06900
C 	C 	0.51720 0.86810 0.79726 -0.01200
H 	H 	0.52890 0.82160 0.82890 0.08000
C 	C 	0.51700 0.00750 0.79710 -0.02700
H 	H 	0.52830 0.05430 0.82870 0.08700
C 	C 	0.45720 0.11570 0.00319 -0.02400
H 	H 	0.42860 0.19370 0.00530 0.07100
C 	C 	0.72070 0.63380 0.01749 -0.03100
H 	H 	0.70070 0.55510 0.02950 0.08300
U 	U 	0.03331 0.93826 0.86060 0.03700
Cl	Cl	0.16411 0.87908 0.81975 -0.17700
O 	O 	0.99395 0.78540 0.79253 -0.12000
O 	O 	0.00614 0.09000 0.79340 -0.15300
O 	O 	0.06690 0.71650 0.89977 -0.17000
O 	O 	0.12537 0.97350 0.94230 -0.16300
O 	O 	0.12303 0.13080 0.88213 -0.17000
O 	O 	0.97918 0.82750 0.93391 -0.15600
C 	C 	0.14770 0.08660 0.92780 0.26900
C 	C 	0.01860 0.72340 0.93165 0.26800
C 	C 	0.23110 0.28750 0.94785 -0.02900
H 	H 	0.21830 0.31340 0.91270 0.07800
C 	C 	0.20170 0.16950 0.96525 -0.02600
C 	C 	0.00850 0.60790 0.96760 -0.06800
C 	C 	0.05260 0.49100 0.96405 0.01500
H 	H 	0.08780 0.48560 0.94010 0.05300
C 	C 	0.01720 0.36810 0.79726 -0.01300
H 	H 	0.02890 0.32160 0.82890 0.07800
C 	C 	0.01700 0.50750 0.79710 -0.02500
H 	H 	0.02830 0.55430 0.82870 0.08400
C 	C 	0.95720 0.61570 0.00319 0.03600
H 	H 	0.92860 0.69370 0.00530 0.05300
C 	C 	0.22070 0.13380 0.01749 -0.02800
H 	H 	0.20070 0.05510 0.02950 0.08100
U 	U 	0.46669 0.43826 0.63940 0.04500
Cl	Cl	0.33589 0.37908 0.68025 -0.17600
O 	O 	0.50605 0.28540 0.70747 -0.14500
O 	O 	0.49386 0.59000 0.70660 -0.15100
O 	O 	0.43310 0.21650 0.60023 -0.17000
O 	O 	0.37463 0.47350 0.55770 -0.16100
O 	O 	0.37697 0.63080 0.61787 -0.17000
O 	O 	0.52082 0.32750 0.56609 -0.17600
C 	C 	0.35230 0.58660 0.57220 0.27000
C 	C 	0.48140 0.22340 0.56835 0.27800
C 	C 	0.26890 0.78750 0.55215 -0.02700
H 	H 	0.28170 0.81340 0.58730 0.07600
C 	C 	0.29830 0.66950 0.53475 -0.02900
C 	C 	0.49150 0.10790 0.53240 -0.02700
C 	C 	0.44740 0.99100 0.53595 -0.02200
H 	H 	0.41220 0.98560 0.55990 0.06600
C 	C 	0.48280 0.86810 0.70274 -0.01200
H 	H 	0.47110 0.82160 0.67110 0.07900
C 	C 	0.48300 0.00750 0.70290 -0.02700
H 	H 	0.47170 0.05430 0.67130 0.08700
C 	C 	0.54280 0.11570 0.49681 -0.01800
H 	H 	0.57140 0.19370 0.49470 0.06900
C 	C 	0.27930 0.63380 0.48251 -0.02500
H 	H 	0.29930 0.55510 0.47050 0.08100
U 	U 	0.96669 0.93826 0.63940 0.05200
Cl	Cl	0.83589 0.87908 0.68025 -0.16900
O 	O 	0.00605 0.78540 0.70747 -0.15200
O 	O 	0.99386 0.09000 0.70660 -0.13200
O 	O 	0.93310 0.71650 0.60023 -0.16700
O 	O 	0.87463 0.97350 0.55770 -0.15800
O 	O 	0.87697 0.13080 0.61787 -0.16700
O 	O 	0.02082 0.82750 0.56609 -0.19400
C 	C 	0.85230 0.08660 0.57220 0.27000
C 	C 	0.98140 0.72340 0.56835 0.28600
C 	C 	0.76890 0.28750 0.55215 -0.02700
H 	H 	0.78170 0.31340 0.58730 0.07700
C 	C 	0.79830 0.16950 0.53475 -0.02700
C 	C 	0.99150 0.60790 0.53240 0.02000
C 	C 	0.94740 0.49100 0.53595 -0.06400
H 	H 	0.91220 0.48560 0.55990 0.08200
C 	C 	0.98280 0.36810 0.70274 0.00400
H 	H 	0.97110 0.32160 0.67110 0.07700
C 	C 	0.98300 0.50750 0.70290 -0.00500
H 	H 	0.97170 0.55430 0.67130 0.08400
C 	C 	0.04280 0.61570 0.49681 -0.07900
H 	H 	0.07140 0.69370 0.49470 0.08700
C 	C 	0.77930 0.13380 0.48251 -0.02500
H 	H 	0.79930 0.05510 0.47050 0.08300
U 	U 	0.46669 0.56174 0.13940 0.04500
Cl	Cl	0.33589 0.62092 0.18025 -0.17600
O 	O 	0.50605 0.71460 0.20747 -0.14500
O 	O 	0.49386 0.41000 0.20660 -0.15100
O 	O 	0.43310 0.78350 0.10023 -0.17000
O 	O 	0.37463 0.52650 0.05770 -0.16200
O 	O 	0.37697 0.36920 0.11787 -0.17000
O 	O 	0.52082 0.67250 0.06609 -0.17600
C 	C 	0.35230 0.41340 0.07220 0.27200
C 	C 	0.48140 0.77660 0.06835 0.28000
C 	C 	0.26890 0.21250 0.05215 -0.02300
H 	H 	0.28170 0.18660 0.08730 0.07500
C 	C 	0.29830 0.33050 0.03475 -0.03300
C 	C 	0.49150 0.89210 0.03240 -0.03200
C 	C 	0.44740 0.00900 0.03595 -0.01700
H 	H 	0.41220 0.01440 0.05990 0.06500
C 	C 	0.48280 0.13190 0.20274 -0.01200
H 	H 	0.47110 0.17840 0.17110 0.08000
C 	C 	0.48300 0.99250 0.20290 -0.02700
H 	H 	0.47170 0.94570 0.17130 0.08700
C 	C 	0.54280 0.88430 0.99681 -0.01100
H 	H 	0.57140 0.80630 0.99470 0.06800
C 	C 	0.27930 0.36620 0.98251 -0.02000
H 	H 	0.29930 0.44490 0.97050 0.08000
U 	U 	0.96669 0.06174 0.13940 0.05200
Cl	Cl	0.83589 0.12092 0.18025 -0.16900
O 	O 	0.00605 0.21460 0.20747 -0.15200
O 	O 	0.99386 0.91000 0.20660 -0.13200
O 	O 	0.93310 0.28350 0.10023 -0.16800
O 	O 	0.87463 0.02650 0.05770 -0.15900
O 	O 	0.87697 0.86920 0.11787 -0.16800
O 	O 	0.02082 0.17250 0.06609 -0.19400
C 	C 	0.85230 0.91340 0.07220 0.27200
C 	C 	0.98140 0.27660 0.06835 0.28700
C 	C 	0.76890 0.71250 0.05215 -0.02100
H 	H 	0.78170 0.68660 0.08730 0.07500
C 	C 	0.79830 0.83050 0.03475 -0.03300
C 	C 	0.99150 0.39210 0.03240 0.01500
C 	C 	0.94740 0.50900 0.03595 -0.05900
H 	H 	0.91220 0.51440 0.05990 0.08000
C 	C 	0.98280 0.63190 0.20274 0.00400
H 	H 	0.97110 0.67840 0.17110 0.07700
C 	C 	0.98300 0.49250 0.20290 -0.00600
H 	H 	0.97170 0.44570 0.17130 0.08500
C 	C 	0.04280 0.38430 0.99681 -0.07200
H 	H 	0.07140 0.30630 0.99470 0.08500
C 	C 	0.77930 0.86620 0.98251 -0.01600
H 	H 	0.79930 0.94490 0.97050 0.08100
U 	U 	0.53331 0.56174 0.36060 0.04500
Cl	Cl	0.66411 0.62092 0.31975 -0.17100
O 	O 	0.49395 0.71460 0.29253 -0.14500
O 	O 	0.50614 0.41000 0.29340 -0.15100
O 	O 	0.56690 0.78350 0.39977 -0.16900
O 	O 	0.62537 0.52650 0.44230 -0.16100
O 	O 	0.62303 0.36920 0.38213 -0.16900
O 	O 	0.47918 0.67250 0.43391 -0.17600
C 	C 	0.64770 0.41340 0.42780 0.27100
C 	C 	0.51860 0.77660 0.43165 0.27800
C 	C 	0.73110 0.21250 0.44785 -0.02500
H 	H 	0.71830 0.18660 0.41270 0.07700
C 	C 	0.70170 0.33050 0.46525 -0.02900
C 	C 	0.50850 0.89210 0.46760 -0.02600
C 	C 	0.55260 0.00900 0.46405 -0.02200
H 	H 	0.58780 0.01440 0.44010 0.06700
C 	C 	0.51720 0.13190 0.29726 -0.01200
H 	H 	0.52890 0.17840 0.32890 0.08000
C 	C 	0.51700 0.99250 0.29710 -0.02700
H 	H 	0.52830 0.94570 0.32870 0.08700
C 	C 	0.45720 0.88430 0.50319 -0.01900
H 	H 	0.42860 0.80630 0.50530 0.06900
C 	C 	0.72070 0.36620 0.51749 -0.02300
H 	H 	0.70070 0.44490 0.52950 0.08100
U 	U 	0.03331 0.06174 0.36060 0.03700
Cl	Cl	0.16411 0.12092 0.31975 -0.17700
O 	O 	0.99395 0.21460 0.29253 -0.12100
O 	O 	0.00614 0.91000 0.29340 -0.15200
O 	O 	0.06690 0.28350 0.39977 -0.17000
O 	O 	0.12537 0.02650 0.44230 -0.16400
O 	O 	0.12303 0.86920 0.38213 -0.17100
O 	O 	0.97918 0.17250 0.43391 -0.15700
C 	C 	0.14770 0.91340 0.42780 0.27100
C 	C 	0.01860 0.27660 0.43165 0.27000
C 	C 	0.23110 0.71250 0.44785 -0.02500
H 	H 	0.21830 0.68660 0.41270 0.07600
C 	C 	0.20170 0.83050 0.46525 -0.03000
C 	C 	0.00850 0.39210 0.46760 -0.07400
C 	C 	0.05260 0.50900 0.46405 0.02000
H 	H 	0.08780 0.51440 0.44010 0.05100
C 	C 	0.01720 0.63190 0.29726 -0.01300
H 	H 	0.02890 0.67840 0.32890 0.07800
C 	C 	0.01700 0.49250 0.29710 -0.02500
H 	H 	0.02830 0.44570 0.32870 0.08400
C 	C 	0.95720 0.38430 0.50319 0.04200
H 	H 	0.92860 0.30630 0.50530 0.05100
C 	C 	0.22070 0.86620 0.51749 -0.02400
H 	H 	0.20070 0.94490 0.52950 0.08000
C 	C 	0.50000 0.64910 0.75000 0.28600
C 	C 	0.50000 0.22700 0.75000 0.28300
C 	C 	0.50000 0.79900 0.75000 -0.01600
C 	C 	0.50000 0.07620 0.75000 -0.00100
C 	C 	0.00000 0.14910 0.75000 0.26600
C 	C 	0.00000 0.72700 0.75000 0.26500
C 	C 	0.00000 0.29900 0.75000 -0.03200
C 	C 	0.00000 0.57620 0.75000 -0.02000
C 	C 	0.50000 0.35090 0.25000 0.28600
C 	C 	0.50000 0.77300 0.25000 0.28300
C 	C 	0.50000 0.20100 0.25000 -0.01600
C 	C 	0.50000 0.92380 0.25000 -0.00200
C 	C 	0.00000 0.85090 0.25000 0.26700
C 	C 	0.00000 0.27300 0.25000 0.26500
C 	C 	0.00000 0.70100 0.25000 -0.03100
C 	C 	0.00000 0.42380 0.25000 -0.01900
