data_crystal

_cell_length_a 12.43910
_cell_length_b 20.63180
_cell_length_c 17.79160
_cell_angle_alpha 90.00000
_cell_angle_beta  91.09800
_cell_angle_gamma 90.00000

_symmetry_space_group_name_	'P 1'
_symmetry_space_group_name_H-M	'P 1'

loop_
_symmetry_equiv_pos_as_xyz
  x,y,z

loop_
_atom_site_label
_atom_site_type_symbol
_atom_site_fract_x
_atom_site_fract_y
_atom_site_fract_z
_atom_site_charge
Zn	Zn	0.33340 0.60902 0.22000 1.24400
Zn	Zn	0.05212 0.62768 0.22160 1.24600
Zn	Zn	0.80041 0.59572 0.24602 1.23800
O 	O 	0.48220 0.58550 0.19470 -0.48800
O 	O 	0.35110 0.66110 0.31160 -0.45400
O 	O 	0.17860 0.66450 0.28810 -0.49300
O 	O 	0.29250 0.84650 0.62940 -0.48100
O 	O 	0.71720 0.02270 0.26490 -0.47800
O 	O 	0.89000 0.03692 0.29530 -0.47200
O 	O 	0.11380 0.83130 0.62690 -0.45000
O 	O 	0.96690 0.70930 0.24000 -0.44400
O 	O 	0.90420 0.59010 0.16320 -0.53000
O 	O 	0.99560 0.58870 0.32400 -0.45800
O 	O 	0.83080 0.55200 0.34090 -0.45900
O 	O 	0.79270 0.69000 0.26260 -0.46100
O 	O 	0.65550 0.57480 0.20920 -0.49800
O 	O 	0.84390 0.49000 0.17220 -0.31300
C 	C 	0.25620 0.67830 0.32780 0.39000
C 	C 	0.24240 0.71780 0.39740 -0.08500
C 	C 	0.33190 0.73880 0.43920 -0.01100
H 	H 	0.40210 0.72840 0.42290 0.05400
C 	C 	0.14080 0.73270 0.42130 -0.01100
H 	H 	0.07940 0.71940 0.39270 0.05100
C 	C 	0.81230 0.00300 0.27830 0.39400
C 	C 	0.20450 0.82560 0.60110 0.40400
C 	C 	0.21760 0.78890 0.52870 -0.08200
C 	C 	0.31940 0.77460 0.50370 -0.00900
H 	H 	0.38090 0.78940 0.53110 0.05500
C 	C 	0.12840 0.76740 0.48790 -0.01100
H 	H 	0.05830 0.77650 0.50540 0.05000
C 	C 	0.87330 0.72670 0.25470 0.37400
C 	C 	0.85920 0.79710 0.27240 -0.02800
C 	C 	0.94520 0.83940 0.26430 -0.00100
H 	H 	0.01510 0.82280 0.25560 0.03400
C 	C 	0.92900 0.90590 0.26910 -0.00700
H 	H 	0.98780 0.93480 0.26360 0.02700
C 	C 	0.82670 0.93010 0.28190 -0.03500
C 	C 	0.74070 0.88790 0.29000 -0.00200
H 	H 	0.67080 0.90440 0.29870 0.03800
C 	C 	0.75690 0.82140 0.28520 0.00000
H 	H 	0.69810 0.79250 0.29070 0.03900
C 	C 	0.92810 0.55830 0.36030 0.38000
C 	C 	0.96480 0.52750 0.43270 -0.07800
C 	C 	0.89270 0.49530 0.47710 -0.01300
H 	H 	0.81930 0.49190 0.46200 0.05500
C 	C 	0.07070 0.53230 0.45510 -0.01100
H 	H 	0.11990 0.55460 0.42420 0.05000
C 	C 	0.89590 0.53070 0.13920 0.32800
C 	C 	0.95020 0.51540 0.06650 -0.06100
C 	C 	0.99250 0.56400 0.02330 -0.02100
H 	H 	0.98760 0.60780 0.03940 0.05600
C 	C 	0.95750 0.45060 0.04400 -0.01500
H 	H 	0.92870 0.41700 0.07410 0.05400
C 	C 	0.56920 0.59930 0.22400 0.56600
H 	H 	0.56940 0.63200 0.26170 -0.16500
C 	C 	0.85270 0.79810 0.25580 -0.03700
C 	C 	0.93980 0.83700 0.27610 -0.01400
H 	H 	0.00800 0.81790 0.28640 0.02600
C 	C 	0.92720 0.90380 0.28120 -0.01400
H 	H 	0.98670 0.93030 0.29500 0.03900
C 	C 	0.82740 0.93170 0.26600 -0.03000
C 	C 	0.74030 0.89280 0.24580 -0.03000
H 	H 	0.67210 0.91190 0.23540 0.05000
C 	C 	0.75290 0.82600 0.24070 -0.03200
H 	H 	0.69340 0.79950 0.22690 0.04300
Zn	Zn	0.66660 0.10902 0.28000 1.24300
Zn	Zn	0.94788 0.12768 0.27840 1.24400
Zn	Zn	0.19959 0.09572 0.25398 1.23800
O 	O 	0.51780 0.08550 0.30530 -0.48800
O 	O 	0.64890 0.16110 0.18840 -0.45400
O 	O 	0.82140 0.16450 0.21190 -0.49300
O 	O 	0.70750 0.34650 0.87060 -0.48100
O 	O 	0.28280 0.52270 0.23510 -0.47800
O 	O 	0.11000 0.53692 0.20470 -0.47100
O 	O 	0.88620 0.33130 0.87310 -0.45000
O 	O 	0.03310 0.20930 0.26000 -0.44400
O 	O 	0.09580 0.09010 0.33680 -0.53000
O 	O 	0.00440 0.08870 0.17600 -0.45700
O 	O 	0.16920 0.05200 0.15910 -0.45800
O 	O 	0.20730 0.19000 0.23740 -0.46100
O 	O 	0.34450 0.07480 0.29080 -0.49700
O 	O 	0.15610 0.99000 0.32780 -0.31500
C 	C 	0.74380 0.17830 0.17220 0.39000
C 	C 	0.75760 0.21780 0.10260 -0.08500
C 	C 	0.66810 0.23880 0.06080 -0.01100
H 	H 	0.59790 0.22840 0.07710 0.05400
C 	C 	0.85920 0.23270 0.07870 -0.01100
H 	H 	0.92060 0.21940 0.10730 0.05100
C 	C 	0.18770 0.50300 0.22170 0.39600
C 	C 	0.79550 0.32560 0.89890 0.40400
C 	C 	0.78240 0.28890 0.97130 -0.08200
C 	C 	0.68060 0.27460 0.99630 -0.01000
H 	H 	0.61910 0.28940 0.96890 0.05500
C 	C 	0.87160 0.26740 0.01210 -0.01200
H 	H 	0.94170 0.27650 0.99460 0.05000
C 	C 	0.12670 0.22670 0.24530 0.37300
C 	C 	0.14080 0.29710 0.22760 -0.02800
C 	C 	0.05480 0.33940 0.23570 -0.00100
H 	H 	0.98490 0.32280 0.24440 0.03400
C 	C 	0.07100 0.40590 0.23090 -0.00700
H 	H 	0.01220 0.43480 0.23640 0.02700
C 	C 	0.17330 0.43010 0.21810 -0.03600
C 	C 	0.25930 0.38790 0.21000 -0.00200
H 	H 	0.32920 0.40440 0.20130 0.03800
C 	C 	0.24310 0.32140 0.21480 -0.00000
H 	H 	0.30190 0.29250 0.20930 0.03900
C 	C 	0.07190 0.05830 0.13970 0.37800
C 	C 	0.03520 0.02750 0.06730 -0.07300
C 	C 	0.10730 0.99530 0.02290 -0.01600
H 	H 	0.18070 0.99190 0.03800 0.05600
C 	C 	0.92930 0.03230 0.04490 -0.01500
H 	H 	0.88010 0.05460 0.07580 0.05100
C 	C 	0.10410 0.03070 0.36080 0.33000
C 	C 	0.04980 0.01540 0.43350 -0.05900
C 	C 	0.00750 0.06400 0.47670 -0.01700
H 	H 	0.01240 0.10780 0.46060 0.05500
C 	C 	0.04250 0.95060 0.45600 -0.02100
H 	H 	0.07130 0.91700 0.42590 0.05500
C 	C 	0.43080 0.09930 0.27600 0.56600
H 	H 	0.43060 0.13200 0.23830 -0.16500
C 	C 	0.14730 0.29810 0.24420 -0.03700
C 	C 	0.06020 0.33700 0.22390 -0.01500
H 	H 	0.99200 0.31790 0.21360 0.02700
C 	C 	0.07280 0.40380 0.21880 -0.01300
H 	H 	0.01330 0.43030 0.20500 0.03800
C 	C 	0.17260 0.43170 0.23400 -0.03100
C 	C 	0.25970 0.39280 0.25420 -0.03000
H 	H 	0.32790 0.41190 0.26460 0.04900
C 	C 	0.24710 0.32600 0.25930 -0.03200
H 	H 	0.30660 0.29950 0.27310 0.04300
Zn	Zn	0.66660 0.39098 0.78000 1.24300
Zn	Zn	0.94788 0.37232 0.77840 1.24500
Zn	Zn	0.19959 0.40428 0.75398 1.23800
O 	O 	0.51780 0.41450 0.80530 -0.48800
O 	O 	0.64890 0.33890 0.68840 -0.45400
O 	O 	0.82140 0.33550 0.71190 -0.49300
O 	O 	0.70750 0.15350 0.37060 -0.48100
O 	O 	0.28280 0.97730 0.73510 -0.47800
O 	O 	0.11000 0.96308 0.70470 -0.47200
O 	O 	0.88620 0.16870 0.37310 -0.45000
O 	O 	0.03310 0.29070 0.76000 -0.44400
O 	O 	0.09580 0.40990 0.83680 -0.53000
O 	O 	0.00440 0.41130 0.67600 -0.45800
O 	O 	0.16920 0.44800 0.65910 -0.45900
O 	O 	0.20730 0.31000 0.73740 -0.46100
O 	O 	0.34450 0.42520 0.79080 -0.49800
O 	O 	0.15610 0.51000 0.82780 -0.31300
C 	C 	0.74380 0.32170 0.67220 0.39000
C 	C 	0.75760 0.28220 0.60260 -0.08500
C 	C 	0.66810 0.26120 0.56080 -0.01100
H 	H 	0.59790 0.27160 0.57710 0.05400
C 	C 	0.85920 0.26730 0.57870 -0.01100
H 	H 	0.92060 0.28060 0.60730 0.05100
C 	C 	0.18770 0.99700 0.72170 0.39400
C 	C 	0.79550 0.17440 0.39890 0.40400
C 	C 	0.78240 0.21110 0.47130 -0.08200
C 	C 	0.68060 0.22540 0.49630 -0.00900
H 	H 	0.61910 0.21060 0.46890 0.05500
C 	C 	0.87160 0.23260 0.51210 -0.01100
H 	H 	0.94170 0.22350 0.49460 0.05000
C 	C 	0.12670 0.27330 0.74530 0.37400
C 	C 	0.14080 0.20290 0.72760 -0.02800
C 	C 	0.05480 0.16060 0.73570 -0.00100
H 	H 	0.98490 0.17720 0.74440 0.03400
C 	C 	0.07100 0.09410 0.73090 -0.00700
H 	H 	0.01220 0.06520 0.73640 0.02700
C 	C 	0.17330 0.06990 0.71810 -0.03500
C 	C 	0.25930 0.11210 0.71000 -0.00200
H 	H 	0.32920 0.09560 0.70130 0.03800
C 	C 	0.24310 0.17860 0.71480 0.00000
H 	H 	0.30190 0.20750 0.70930 0.03900
C 	C 	0.07190 0.44170 0.63970 0.38000
C 	C 	0.03520 0.47250 0.56730 -0.07800
C 	C 	0.10730 0.50470 0.52290 -0.01300
H 	H 	0.18070 0.50810 0.53800 0.05500
C 	C 	0.92930 0.46770 0.54490 -0.01100
H 	H 	0.88010 0.44540 0.57580 0.05000
C 	C 	0.10410 0.46930 0.86080 0.32800
C 	C 	0.04980 0.48460 0.93350 -0.06100
C 	C 	0.00750 0.43600 0.97670 -0.02100
H 	H 	0.01240 0.39220 0.96060 0.05600
C 	C 	0.04250 0.54940 0.95600 -0.01500
H 	H 	0.07130 0.58300 0.92590 0.05400
C 	C 	0.43080 0.40070 0.77600 0.56600
H 	H 	0.43060 0.36800 0.73830 -0.16500
C 	C 	0.14730 0.20190 0.74420 -0.03700
C 	C 	0.06020 0.16300 0.72390 -0.01400
H 	H 	0.99200 0.18210 0.71360 0.02600
C 	C 	0.07280 0.09620 0.71880 -0.01400
H 	H 	0.01330 0.06970 0.70500 0.03900
C 	C 	0.17260 0.06830 0.73400 -0.03000
C 	C 	0.25970 0.10720 0.75420 -0.03000
H 	H 	0.32790 0.08810 0.76460 0.05000
C 	C 	0.24710 0.17400 0.75930 -0.03200
H 	H 	0.30660 0.20050 0.77310 0.04300
Zn	Zn	0.33340 0.89098 0.72000 1.24300
Zn	Zn	0.05212 0.87232 0.72160 1.24400
Zn	Zn	0.80041 0.90428 0.74602 1.23800
O 	O 	0.48220 0.91450 0.69470 -0.48800
O 	O 	0.35110 0.83890 0.81160 -0.45400
O 	O 	0.17860 0.83550 0.78810 -0.49300
O 	O 	0.29250 0.65350 0.12940 -0.48100
O 	O 	0.71720 0.47730 0.76490 -0.47800
O 	O 	0.89000 0.46308 0.79530 -0.47100
O 	O 	0.11380 0.66870 0.12690 -0.45000
O 	O 	0.96690 0.79070 0.74000 -0.44400
O 	O 	0.90420 0.90990 0.66320 -0.53000
O 	O 	0.99560 0.91130 0.82400 -0.45700
O 	O 	0.83080 0.94800 0.84090 -0.45800
O 	O 	0.79270 0.81000 0.76260 -0.46100
O 	O 	0.65550 0.92520 0.70920 -0.49700
O 	O 	0.84390 0.01000 0.67220 -0.31500
C 	C 	0.25620 0.82170 0.82780 0.39000
C 	C 	0.24240 0.78220 0.89740 -0.08500
C 	C 	0.33190 0.76120 0.93920 -0.01100
H 	H 	0.40210 0.77160 0.92290 0.05400
C 	C 	0.14080 0.76730 0.92130 -0.01100
H 	H 	0.07940 0.78060 0.89270 0.05100
C 	C 	0.81230 0.49700 0.77830 0.39600
C 	C 	0.20450 0.67440 0.10110 0.40400
C 	C 	0.21760 0.71110 0.02870 -0.08200
C 	C 	0.31940 0.72540 0.00370 -0.01000
H 	H 	0.38090 0.71060 0.03110 0.05500
C 	C 	0.12840 0.73260 0.98790 -0.01200
H 	H 	0.05830 0.72350 0.00540 0.05000
C 	C 	0.87330 0.77330 0.75470 0.37300
C 	C 	0.85920 0.70290 0.77240 -0.02800
C 	C 	0.94520 0.66060 0.76430 -0.00100
H 	H 	0.01510 0.67720 0.75560 0.03400
C 	C 	0.92900 0.59410 0.76910 -0.00700
H 	H 	0.98780 0.56520 0.76360 0.02700
C 	C 	0.82670 0.56990 0.78190 -0.03600
C 	C 	0.74070 0.61210 0.79000 -0.00200
H 	H 	0.67080 0.59560 0.79870 0.03800
C 	C 	0.75690 0.67860 0.78520 -0.00000
H 	H 	0.69810 0.70750 0.79070 0.03900
C 	C 	0.92810 0.94170 0.86030 0.37800
C 	C 	0.96480 0.97250 0.93270 -0.07300
C 	C 	0.89270 0.00470 0.97710 -0.01600
H 	H 	0.81930 0.00810 0.96200 0.05600
C 	C 	0.07070 0.96770 0.95510 -0.01500
H 	H 	0.11990 0.94540 0.92420 0.05100
C 	C 	0.89590 0.96930 0.63920 0.33000
C 	C 	0.95020 0.98460 0.56650 -0.05900
C 	C 	0.99250 0.93600 0.52330 -0.01700
H 	H 	0.98760 0.89220 0.53940 0.05500
C 	C 	0.95750 0.04940 0.54400 -0.02100
H 	H 	0.92870 0.08300 0.57410 0.05500
C 	C 	0.56920 0.90070 0.72400 0.56600
H 	H 	0.56940 0.86800 0.76170 -0.16500
C 	C 	0.85270 0.70190 0.75580 -0.03700
C 	C 	0.93980 0.66300 0.77610 -0.01500
H 	H 	0.00800 0.68210 0.78640 0.02700
C 	C 	0.92720 0.59620 0.78120 -0.01300
H 	H 	0.98670 0.56970 0.79500 0.03800
C 	C 	0.82740 0.56830 0.76600 -0.03100
C 	C 	0.74030 0.60720 0.74580 -0.03000
H 	H 	0.67210 0.58810 0.73540 0.04900
C 	C 	0.75290 0.67400 0.74070 -0.03200
H 	H 	0.69340 0.70050 0.72690 0.04300
