data_crystal

_cell_length_a 15.21700
_cell_length_b 9.85090
_cell_length_c 18.27410
_cell_angle_alpha 90.00000
_cell_angle_beta  102.03600
_cell_angle_gamma 90.00000

_symmetry_space_group_name_	'P 1'
_symmetry_space_group_name_H-M	'P 1'

loop_
_symmetry_equiv_pos_as_xyz
  x,y,z

loop_
_atom_site_label
_atom_site_type_symbol
_atom_site_fract_x
_atom_site_fract_y
_atom_site_fract_z
_atom_site_charge
Zn	Zn	0.21360 0.44449 0.03534 1.21900
O 	O 	0.09974 0.34120 0.02796 -0.58200
O 	O 	0.07380 0.87470 0.57872 -0.44600
O 	O 	0.21854 0.92800 0.62005 -0.42600
O 	O 	0.20981 0.55040 0.94403 -0.44500
O 	O 	0.30410 0.30960 0.08889 -0.49600
O 	O 	0.16060 0.23310 0.94350 -0.29400
O 	O 	0.05978 0.56740 0.91526 -0.44200
O 	O 	0.38602 0.44150 0.03364 -0.63300
C 	C 	0.10580 0.23720 0.98450 0.24400
C 	C 	0.04800 0.11720 0.99130 0.35500
C 	C 	0.00910 0.10280 0.05250 -0.65000
H 	H 	0.01520 0.17300 0.08880 0.22200
C 	C 	0.96140 0.98670 0.06140 0.54300
H 	H 	0.93480 0.97770 0.10380 -0.10400
C 	C 	0.14570 0.87200 0.62660 0.36800
C 	C 	0.14570 0.79570 0.69810 -0.06300
C 	C 	0.13590 0.58510 0.90200 0.38600
C 	C 	0.14030 0.65650 0.83040 -0.09100
C 	C 	0.06200 0.68510 0.77890 -0.00200
H 	H 	0.00600 0.65790 0.78930 0.04000
C 	C 	0.06370 0.75220 0.71310 -0.02900
H 	H 	0.00930 0.76900 0.67800 0.05300
C 	C 	0.22160 0.69760 0.81440 0.00400
H 	H 	0.27620 0.67730 0.84840 0.03300
C 	C 	0.22350 0.76760 0.74920 -0.02700
H 	H 	0.27950 0.79690 0.73960 0.05500
C 	C 	0.37750 0.34440 0.07470 0.48000
H 	H 	0.42950 0.29390 0.09650 -0.18200
Zn	Zn	0.78640 0.94449 0.46466 1.25200
O 	O 	0.90026 0.84120 0.47204 -0.50900
O 	O 	0.92620 0.37470 0.92128 -0.40900
O 	O 	0.78146 0.42800 0.87995 -0.44400
O 	O 	0.79019 0.05040 0.55597 -0.50900
O 	O 	0.69590 0.80960 0.41111 -0.44700
O 	O 	0.83940 0.73310 0.55650 -0.30800
O 	O 	0.94022 0.06740 0.58474 -0.45100
O 	O 	0.61398 0.94150 0.46636 -0.56100
C 	C 	0.89420 0.73720 0.51550 0.35800
C 	C 	0.95200 0.61720 0.50870 -0.16000
C 	C 	0.99090 0.60280 0.44750 0.15200
H 	H 	0.98480 0.67300 0.41120 0.01800
C 	C 	0.03860 0.48670 0.43860 -0.18500
H 	H 	0.06520 0.47770 0.39620 0.09200
C 	C 	0.85430 0.37200 0.87340 0.36200
C 	C 	0.85430 0.29570 0.80190 -0.05200
C 	C 	0.86410 0.08510 0.59800 0.39100
C 	C 	0.85970 0.15650 0.66960 -0.10500
C 	C 	0.93800 0.18510 0.72110 0.00900
H 	H 	0.99400 0.15790 0.71070 0.05000
C 	C 	0.93630 0.25220 0.78690 -0.03700
H 	H 	0.99070 0.26900 0.82200 0.07700
C 	C 	0.77840 0.19760 0.68560 0.00900
H 	H 	0.72380 0.17730 0.65160 0.01200
C 	C 	0.77650 0.26760 0.75080 -0.04100
H 	H 	0.72050 0.29690 0.76040 0.04800
C 	C 	0.62250 0.84440 0.42530 0.46200
H 	H 	0.57050 0.79390 0.40350 -0.14800
Zn	Zn	0.78640 0.55551 0.96466 1.24700
O 	O 	0.90026 0.65880 0.97204 -0.48700
O 	O 	0.92620 0.12530 0.42128 -0.44600
O 	O 	0.78146 0.07200 0.37995 -0.48700
O 	O 	0.79019 0.44960 0.05597 -0.51100
O 	O 	0.69590 0.69040 0.91111 -0.43200
O 	O 	0.83940 0.76690 0.05650 -0.34100
O 	O 	0.94022 0.43260 0.08474 -0.44700
O 	O 	0.61398 0.55850 0.96636 -0.56100
C 	C 	0.89420 0.76280 0.01550 0.40000
C 	C 	0.95200 0.88280 0.00870 -0.47500
C 	C 	0.99090 0.89720 0.94750 0.59500
H 	H 	0.98480 0.82700 0.91120 -0.11000
C 	C 	0.03860 0.01330 0.93860 -0.57000
H 	H 	0.06520 0.02230 0.89620 0.20200
C 	C 	0.85430 0.12800 0.37340 0.36900
C 	C 	0.85430 0.20430 0.30190 -0.07000
C 	C 	0.86410 0.41490 0.09800 0.38900
C 	C 	0.85970 0.34350 0.16960 -0.09800
C 	C 	0.93800 0.31490 0.22110 -0.00000
H 	H 	0.99400 0.34210 0.21070 0.05700
C 	C 	0.93630 0.24780 0.28690 -0.02800
H 	H 	0.99070 0.23100 0.32200 0.07000
C 	C 	0.77840 0.30240 0.18560 -0.00200
H 	H 	0.72380 0.32270 0.15160 0.01100
C 	C 	0.77650 0.23240 0.25080 -0.03200
H 	H 	0.72050 0.20310 0.26040 0.03400
C 	C 	0.62250 0.65560 0.92530 0.45900
H 	H 	0.57050 0.70610 0.90350 -0.13400
Zn	Zn	0.21360 0.05551 0.53534 1.21000
O 	O 	0.09974 0.15880 0.52796 -0.56100
O 	O 	0.07380 0.62530 0.07872 -0.48900
O 	O 	0.21854 0.57200 0.12005 -0.47200
O 	O 	0.20981 0.94960 0.44403 -0.44700
O 	O 	0.30410 0.19040 0.58889 -0.48100
O 	O 	0.16060 0.26690 0.44350 -0.32900
O 	O 	0.05978 0.93260 0.41526 -0.43800
O 	O 	0.38602 0.05850 0.53364 -0.63500
C 	C 	0.10580 0.26280 0.48450 0.28100
C 	C 	0.04800 0.38280 0.49130 0.03300
C 	C 	0.00910 0.39720 0.55250 -0.19300
H 	H 	0.01520 0.32700 0.58880 0.09100
C 	C 	0.96140 0.51330 0.56140 0.15600
H 	H 	0.93480 0.52230 0.60380 0.00900
C 	C 	0.14570 0.62800 0.12660 0.37600
C 	C 	0.14570 0.70430 0.19810 -0.08400
C 	C 	0.13590 0.91490 0.40200 0.38300
C 	C 	0.14030 0.84350 0.33040 -0.08400
C 	C 	0.06200 0.81490 0.27890 -0.01400
H 	H 	0.00600 0.84210 0.28930 0.04700
C 	C 	0.06370 0.74780 0.21310 -0.01800
H 	H 	0.00930 0.73100 0.17800 0.04200
C 	C 	0.22160 0.80240 0.31440 -0.00900
H 	H 	0.27620 0.82270 0.34840 0.03100
C 	C 	0.22350 0.73240 0.24920 -0.01700
H 	H 	0.27950 0.70310 0.23960 0.04100
C 	C 	0.37750 0.15560 0.57470 0.47700
H 	H 	0.42950 0.20610 0.59650 -0.16800
Zn	Zn	-0.00000 0.50000 -0.00000 1.20100
Zn	Zn	-0.00000 0.00000 0.50000 1.19900
Zn	Zn	0.50000 0.50000 -0.00000 1.12200
Zn	Zn	0.50000 0.00000 0.50000 1.12200
