data_crystal

_cell_length_a 27.86000
_cell_length_b 27.86000
_cell_length_c 27.86000
_cell_angle_alpha 90.00000
_cell_angle_beta  90.00000
_cell_angle_gamma 90.00000

_symmetry_space_group_name_	'P 1'
_symmetry_space_group_name_H-M	'P 1'

loop_
_symmetry_equiv_pos_as_xyz
  x,y,z

loop_
_atom_site_label
_atom_site_type_symbol
_atom_site_fract_x
_atom_site_fract_y
_atom_site_fract_z
_atom_site_charge
Cu	Cu	-0.00000 0.45244 -0.00000 0.88100
Cu	Cu	0.50000 0.50000 0.84464 0.90800
Cu	Cu	0.84464 0.50000 0.50000 0.90800
Cu	Cu	0.75021 0.50000 0.50000 0.90500
Cu	Cu	0.15536 0.50000 0.50000 0.90500
Cu	Cu	0.45244 0.00000 -0.00000 0.88000
Cu	Cu	0.50000 0.75021 0.50000 0.90500
Cu	Cu	0.24979 0.50000 0.50000 0.90500
Cu	Cu	0.50000 0.24979 0.50000 0.90500
Cu	Cu	0.00000 0.00000 0.54756 0.88000
Cu	Cu	0.50000 0.15536 0.50000 0.90500
Cu	Cu	0.50000 0.50000 0.75021 0.90500
Cu	Cu	0.50000 0.84464 0.50000 0.90700
Cu	Cu	0.50000 0.50000 0.15536 0.90500
Cu	Cu	0.00000 0.00000 0.45244 0.88000
Cu	Cu	0.54756 0.00000 -0.00000 0.88000
Cu	Cu	-0.00000 0.54756 -0.00000 0.88000
Cu	Cu	0.50000 0.50000 0.24979 0.90500
H 	H 	0.50000 0.73410 0.12820 0.08900
H 	H 	0.10730 0.43100 0.89270 -0.04600
H 	H 	0.50000 0.26590 0.12820 0.08800
H 	H 	0.72590 0.65320 0.50000 0.04800
H 	H 	0.73410 0.50000 0.12820 0.08900
H 	H 	0.16780 0.83220 0.43230 0.17300
H 	H 	0.10730 0.89270 0.56900 -0.04500
H 	H 	0.16780 0.83220 0.56770 0.17400
H 	H 	0.34860 0.50000 0.87010 0.02800
H 	H 	0.43100 0.10730 0.10730 -0.05500
H 	H 	0.50000 0.87180 0.73410 0.09500
H 	H 	0.50000 0.65140 0.12990 0.02200
H 	H 	0.26590 0.50000 0.87180 0.09400
H 	H 	0.89270 0.89270 0.43100 -0.03700
H 	H 	0.73410 0.87180 0.50000 0.09500
H 	H 	0.12990 0.50000 0.34860 0.02100
H 	H 	0.27410 0.50000 0.65320 0.04700
H 	H 	0.83220 0.16780 0.56770 0.17400
H 	H 	0.87010 0.34860 0.50000 0.02800
H 	H 	0.50000 0.12820 0.26590 0.08800
H 	H 	0.83220 0.56770 0.16780 0.17400
H 	H 	0.34680 0.50000 0.72590 0.04800
H 	H 	0.27410 0.50000 0.34680 0.04700
H 	H 	0.34680 0.27410 0.50000 0.04700
H 	H 	0.65320 0.27410 0.50000 0.04700
H 	H 	0.12990 0.65140 0.50000 0.02200
H 	H 	0.65140 0.87010 0.50000 0.02900
H 	H 	0.50000 0.26590 0.87180 0.09400
H 	H 	0.43100 0.89270 0.10730 -0.04600
H 	H 	0.34680 0.50000 0.27410 0.04700
H 	H 	0.43100 0.89270 0.89270 -0.03700
H 	H 	0.50000 0.72590 0.34680 0.04800
H 	H 	0.50000 0.27410 0.34680 0.04700
H 	H 	0.83220 0.16780 0.43230 0.17300
H 	H 	0.12820 0.73410 0.50000 0.08900
H 	H 	0.34860 0.87010 0.50000 0.02800
H 	H 	0.56770 0.83220 0.16780 0.17400
H 	H 	0.83220 0.83220 0.56770 0.17500
H 	H 	0.87180 0.26590 0.50000 0.09400
H 	H 	0.56770 0.83220 0.83220 0.17500
H 	H 	0.50000 0.87180 0.26590 0.09400
H 	H 	0.34680 0.72590 0.50000 0.04800
H 	H 	0.50000 0.72590 0.65320 0.04800
H 	H 	0.16780 0.43230 0.83220 0.17300
H 	H 	0.89270 0.10730 0.56900 -0.04500
H 	H 	0.43230 0.16780 0.16780 0.17200
H 	H 	0.83220 0.83220 0.43230 0.17300
H 	H 	0.50000 0.65320 0.72590 0.04800
H 	H 	0.56900 0.89270 0.10730 -0.04500
H 	H 	0.12990 0.34860 0.50000 0.02100
H 	H 	0.10730 0.10730 0.56900 -0.05400
H 	H 	0.16780 0.43230 0.16780 0.17200
H 	H 	0.89270 0.10730 0.43100 -0.04600
H 	H 	0.27410 0.34680 0.50000 0.04700
H 	H 	0.87180 0.50000 0.73410 0.09500
H 	H 	0.72590 0.50000 0.65320 0.04800
H 	H 	0.10730 0.10730 0.43100 -0.05500
H 	H 	0.65320 0.50000 0.72590 0.04800
H 	H 	0.50000 0.65140 0.87010 0.02900
H 	H 	0.65140 0.50000 0.87010 0.02900
H 	H 	0.65320 0.72590 0.50000 0.04800
H 	H 	0.56900 0.10730 0.89270 -0.04500
H 	H 	0.50000 0.87010 0.65140 0.02900
H 	H 	0.83220 0.43230 0.83220 0.17300
H 	H 	0.89270 0.43100 0.89270 -0.03700
H 	H 	0.89270 0.56900 0.10730 -0.04500
H 	H 	0.89270 0.56900 0.89270 -0.03600
H 	H 	0.87010 0.50000 0.34860 0.02800
H 	H 	0.87180 0.73410 0.50000 0.09500
H 	H 	0.65140 0.12990 0.50000 0.02200
H 	H 	0.34860 0.12990 0.50000 0.02100
H 	H 	0.43230 0.83220 0.16780 0.17300
H 	H 	0.89270 0.43100 0.10730 -0.04600
H 	H 	0.65140 0.50000 0.12990 0.02200
H 	H 	0.12820 0.50000 0.73410 0.08900
H 	H 	0.50000 0.27410 0.65320 0.04700
H 	H 	0.50000 0.65320 0.27410 0.04700
H 	H 	0.26590 0.87180 0.50000 0.09400
H 	H 	0.83220 0.56770 0.83220 0.17500
H 	H 	0.73410 0.50000 0.87180 0.09500
H 	H 	0.27410 0.65320 0.50000 0.04700
H 	H 	0.10730 0.56900 0.89270 -0.04500
H 	H 	0.87010 0.65140 0.50000 0.02900
H 	H 	0.83220 0.43230 0.16780 0.17300
H 	H 	0.50000 0.12990 0.34860 0.02100
H 	H 	0.50000 0.34860 0.12990 0.02100
H 	H 	0.10730 0.56900 0.10730 -0.05400
H 	H 	0.56770 0.16780 0.16780 0.17400
H 	H 	0.72590 0.50000 0.34680 0.04800
H 	H 	0.65320 0.50000 0.27410 0.04700
H 	H 	0.50000 0.12820 0.73410 0.08900
H 	H 	0.26590 0.12820 0.50000 0.08800
H 	H 	0.12820 0.26590 0.50000 0.08800
H 	H 	0.10730 0.89270 0.43100 -0.04600
H 	H 	0.12990 0.50000 0.65140 0.02200
H 	H 	0.50000 0.73410 0.87180 0.09500
H 	H 	0.43230 0.83220 0.83220 0.17300
H 	H 	0.16780 0.16780 0.43230 0.17200
H 	H 	0.12820 0.50000 0.26590 0.08800
H 	H 	0.50000 0.34680 0.72590 0.04800
H 	H 	0.87180 0.50000 0.26590 0.09400
H 	H 	0.16780 0.16780 0.56770 0.17400
H 	H 	0.50000 0.87010 0.34860 0.02800
H 	H 	0.43230 0.16780 0.83220 0.17300
H 	H 	0.56900 0.89270 0.89270 -0.03600
H 	H 	0.72590 0.34680 0.50000 0.04800
H 	H 	0.50000 0.34860 0.87010 0.02800
H 	H 	0.87010 0.50000 0.65140 0.02900
H 	H 	0.50000 0.12990 0.65140 0.02200
H 	H 	0.50000 0.34680 0.27410 0.04700
H 	H 	0.43100 0.10730 0.89270 -0.04600
H 	H 	0.34860 0.50000 0.12990 0.02100
H 	H 	0.56900 0.10730 0.10730 -0.05400
H 	H 	0.73410 0.12820 0.50000 0.08900
H 	H 	0.89270 0.89270 0.56900 -0.03600
H 	H 	0.16780 0.56770 0.83220 0.17400
H 	H 	0.10730 0.43100 0.10730 -0.05500
H 	H 	0.16780 0.56770 0.16780 0.17400
H 	H 	0.26590 0.50000 0.12820 0.08800
H 	H 	0.56770 0.16780 0.83220 0.17400
C 	C 	0.75523 0.50000 0.28092 -0.03300
C 	C 	0.50000 0.25683 0.80004 0.12200
C 	C 	0.50000 0.71789 0.84258 -0.16000
C 	C 	0.10148 0.89852 0.50000 -0.32700
C 	C 	0.15591 0.53880 0.15591 -0.41000
C 	C 	0.50000 0.40931 0.79735 0.37100
C 	C 	0.28092 0.24477 0.50000 -0.03400
C 	C 	0.80004 0.25683 0.50000 0.12200
C 	C 	0.10148 0.10148 0.50000 -0.34200
C 	C 	0.50000 0.89852 0.89852 -0.31300
C 	C 	0.50000 0.66858 0.15853 0.06200
C 	C 	0.84258 0.50000 0.28211 -0.16000
C 	C 	0.88134 0.46030 0.11866 0.27700
C 	C 	0.50000 0.80004 0.25683 0.12200
C 	C 	0.50000 0.33142 0.84147 0.06300
C 	C 	0.50000 0.74317 0.80004 0.12300
C 	C 	0.40931 0.50000 0.20265 0.37200
C 	C 	0.28211 0.50000 0.84258 -0.16000
C 	C 	0.20259 0.50000 0.35600 -0.11400
C 	C 	0.53880 0.15591 0.15591 -0.41000
C 	C 	0.50000 0.84258 0.28211 -0.16000
C 	C 	0.50000 0.71908 0.75523 -0.03200
C 	C 	0.71908 0.24477 0.50000 -0.03300
C 	C 	0.46120 0.15591 0.15591 -0.41000
C 	C 	0.46030 0.11866 0.11866 0.28400
C 	C 	0.15591 0.53880 0.84409 -0.40000
C 	C 	0.35600 0.79741 0.50000 -0.11100
C 	C 	0.50000 0.71789 0.15742 -0.16200
C 	C 	0.88134 0.88134 0.53970 0.27000
C 	C 	0.28092 0.50000 0.75523 -0.03300
C 	C 	0.11866 0.11866 0.53970 0.28500
C 	C 	0.84147 0.66858 0.50000 0.06300
C 	C 	0.84147 0.50000 0.33142 0.06300
C 	C 	0.20265 0.50000 0.40931 0.37200
C 	C 	0.15742 0.71789 0.50000 -0.16200
C 	C 	0.71789 0.84258 0.50000 -0.16000
C 	C 	0.84147 0.50000 0.66858 0.06300
C 	C 	0.80004 0.74317 0.50000 0.12300
C 	C 	0.20259 0.64400 0.50000 -0.11300
C 	C 	0.84409 0.46120 0.15591 -0.40000
C 	C 	0.84258 0.28211 0.50000 -0.16000
C 	C 	0.50000 0.33046 0.24496 0.00700
C 	C 	0.75523 0.71908 0.50000 -0.03200
C 	C 	0.24496 0.66954 0.50000 0.00700
C 	C 	0.25683 0.50000 0.80004 0.12200
C 	C 	0.74317 0.50000 0.80004 0.12300
C 	C 	0.79741 0.50000 0.64400 -0.11000
C 	C 	0.35600 0.50000 0.20259 -0.11400
C 	C 	0.50000 0.24496 0.66954 0.00700
C 	C 	0.50000 0.35600 0.79741 -0.11100
C 	C 	0.46120 0.15591 0.84409 -0.40000
C 	C 	0.50000 0.17224 0.82776 0.38100
C 	C 	0.19996 0.74317 0.50000 0.12100
C 	C 	0.11866 0.88134 0.53970 0.27700
C 	C 	0.11866 0.11866 0.46030 0.28400
C 	C 	0.84409 0.53880 0.15591 -0.40000
C 	C 	0.28211 0.84258 0.50000 -0.16000
C 	C 	0.84409 0.15591 0.46120 -0.40000
C 	C 	0.84258 0.50000 0.71789 -0.16000
C 	C 	0.40931 0.50000 0.79735 0.37100
C 	C 	0.88134 0.11866 0.46030 0.27700
C 	C 	0.66858 0.15853 0.50000 0.06200
C 	C 	0.50000 0.06376 0.93624 0.46800
C 	C 	0.50000 0.93624 0.93624 0.46300
C 	C 	0.24477 0.50000 0.71908 -0.03300
C 	C 	0.50000 0.84147 0.33142 0.06300
C 	C 	0.84409 0.84409 0.53880 -0.39000
C 	C 	0.84409 0.46120 0.84409 -0.39000
C 	C 	0.15591 0.46120 0.15591 -0.41000
C 	C 	0.25683 0.80004 0.50000 0.12200
C 	C 	0.50000 0.20265 0.40931 0.37200
C 	C 	0.50000 0.79741 0.64400 -0.11000
C 	C 	0.88134 0.53970 0.88134 0.27000
C 	C 	0.33046 0.75504 0.50000 0.00700
C 	C 	0.71789 0.50000 0.84258 -0.16000
C 	C 	0.59069 0.20265 0.50000 0.37200
C 	C 	0.50000 0.15853 0.33142 0.06100
C 	C 	0.50000 0.33142 0.15853 0.06100
C 	C 	0.17224 0.50000 0.17224 0.38600
C 	C 	0.88134 0.11866 0.53970 0.27700
C 	C 	0.71789 0.50000 0.15742 -0.16200
C 	C 	0.33142 0.15853 0.50000 0.06100
C 	C 	0.71908 0.50000 0.24477 -0.03300
C 	C 	0.84409 0.53880 0.84409 -0.39000
C 	C 	0.89852 0.10148 0.50000 -0.32700
C 	C 	0.15742 0.50000 0.71789 -0.16200
C 	C 	0.80004 0.50000 0.74317 0.12300
C 	C 	0.50000 0.15853 0.66858 0.06200
C 	C 	0.50000 0.64400 0.20259 -0.11300
C 	C 	0.59069 0.50000 0.79735 0.37100
C 	C 	0.20265 0.40931 0.50000 0.37200
C 	C 	0.17224 0.50000 0.82776 0.38100
C 	C 	0.33142 0.84147 0.50000 0.06300
C 	C 	0.50000 0.24477 0.28092 -0.03400
C 	C 	0.53970 0.11866 0.11866 0.28500
C 	C 	0.28211 0.15742 0.50000 -0.16200
C 	C 	0.15853 0.66858 0.50000 0.06200
C 	C 	0.75523 0.50000 0.71908 -0.03200
C 	C 	0.35600 0.50000 0.79741 -0.11100
C 	C 	0.15591 0.84409 0.53880 -0.40000
C 	C 	0.84409 0.84409 0.46120 -0.39000
C 	C 	0.20259 0.50000 0.64400 -0.11300
C 	C 	0.84258 0.71789 0.50000 -0.16000
C 	C 	0.19996 0.50000 0.74317 0.12100
C 	C 	0.93624 0.93624 0.50000 0.46300
C 	C 	0.46030 0.88134 0.88134 0.27000
C 	C 	0.50000 0.24477 0.71908 -0.03300
C 	C 	0.66954 0.24496 0.50000 0.00700
C 	C 	0.50000 0.75523 0.28092 -0.03300
C 	C 	0.66954 0.50000 0.24496 0.00700
C 	C 	0.74317 0.50000 0.19996 0.12100
C 	C 	0.40931 0.20265 0.50000 0.37200
C 	C 	0.19996 0.50000 0.25683 0.12000
C 	C 	0.50000 0.66858 0.84147 0.06300
C 	C 	0.17224 0.82776 0.50000 0.38100
C 	C 	0.59069 0.50000 0.20265 0.37200
C 	C 	0.50000 0.79735 0.40931 0.37100
C 	C 	0.50000 0.82776 0.17224 0.38100
C 	C 	0.33142 0.50000 0.15853 0.06100
C 	C 	0.71789 0.15742 0.50000 -0.16200
C 	C 	0.50000 0.28092 0.24477 -0.03400
C 	C 	0.46030 0.11866 0.88134 0.27700
C 	C 	0.15742 0.50000 0.28211 -0.16200
C 	C 	0.53970 0.88134 0.11866 0.27700
C 	C 	0.06376 0.93624 0.50000 0.46800
C 	C 	0.11866 0.46030 0.88134 0.27700
C 	C 	0.53970 0.11866 0.88134 0.27700
C 	C 	0.50000 0.66954 0.75504 0.00700
C 	C 	0.50000 0.33046 0.75504 0.00700
C 	C 	0.50000 0.28211 0.84258 -0.16000
C 	C 	0.11866 0.88134 0.46030 0.27700
C 	C 	0.33046 0.24496 0.50000 0.00700
C 	C 	0.50000 0.66954 0.24496 0.00700
C 	C 	0.46120 0.84409 0.84409 -0.39000
C 	C 	0.46030 0.88134 0.11866 0.27700
C 	C 	0.50000 0.75504 0.33046 0.00700
C 	C 	0.74317 0.80004 0.50000 0.12300
C 	C 	0.33046 0.50000 0.24496 0.00700
C 	C 	0.20265 0.50000 0.59069 0.37200
C 	C 	0.50000 0.15742 0.71789 -0.16200
C 	C 	0.79735 0.40931 0.50000 0.37100
C 	C 	0.75523 0.28092 0.50000 -0.03300
C 	C 	0.82776 0.50000 0.17224 0.38100
C 	C 	0.64400 0.50000 0.20259 -0.11300
C 	C 	0.11866 0.53970 0.88134 0.27700
C 	C 	0.15853 0.33142 0.50000 0.06100
C 	C 	0.24496 0.33046 0.50000 0.00700
C 	C 	0.50000 0.20265 0.59069 0.37200
C 	C 	0.28092 0.50000 0.24477 -0.03400
C 	C 	0.20259 0.35600 0.50000 -0.11400
C 	C 	0.50000 0.19996 0.25683 0.12000
C 	C 	0.88134 0.88134 0.46030 0.27000
C 	C 	0.79741 0.35600 0.50000 -0.11100
C 	C 	0.10148 0.50000 0.89852 -0.32700
C 	C 	0.50000 0.75523 0.71908 -0.03200
C 	C 	0.66858 0.50000 0.84147 0.06300
C 	C 	0.50000 0.17224 0.17224 0.38600
C 	C 	0.15591 0.46120 0.84409 -0.40000
C 	C 	0.50000 0.06376 0.06376 0.47300
C 	C 	0.89852 0.50000 0.89852 -0.31300
C 	C 	0.24477 0.50000 0.28092 -0.03400
C 	C 	0.93624 0.50000 0.06376 0.46800
C 	C 	0.75504 0.66954 0.50000 0.00700
C 	C 	0.24477 0.28092 0.50000 -0.03400
C 	C 	0.59069 0.79735 0.50000 0.37100
C 	C 	0.15853 0.50000 0.33142 0.06100
C 	C 	0.15591 0.15591 0.46120 -0.41000
C 	C 	0.66954 0.75504 0.50000 0.00700
C 	C 	0.93624 0.06376 0.50000 0.46800
C 	C 	0.79741 0.50000 0.35600 -0.11100
C 	C 	0.53970 0.88134 0.88134 0.27000
C 	C 	0.50000 0.15742 0.28211 -0.16200
C 	C 	0.10148 0.50000 0.10148 -0.34200
C 	C 	0.50000 0.64400 0.79741 -0.11000
C 	C 	0.66954 0.50000 0.75504 0.00700
C 	C 	0.53880 0.84409 0.15591 -0.40000
C 	C 	0.50000 0.59069 0.20265 0.37200
C 	C 	0.20265 0.59069 0.50000 0.37200
C 	C 	0.50000 0.20259 0.35600 -0.11400
C 	C 	0.06376 0.50000 0.06376 0.47300
C 	C 	0.50000 0.10148 0.10148 -0.34200
C 	C 	0.50000 0.93624 0.06376 0.46800
C 	C 	0.82776 0.50000 0.82776 0.37600
C 	C 	0.50000 0.25683 0.19996 0.12000
C 	C 	0.50000 0.20259 0.64400 -0.11300
C 	C 	0.64400 0.79741 0.50000 -0.11000
C 	C 	0.06376 0.06376 0.50000 0.47300
C 	C 	0.11866 0.53970 0.11866 0.28500
C 	C 	0.66858 0.50000 0.15853 0.06200
C 	C 	0.33046 0.50000 0.75504 0.00700
C 	C 	0.24496 0.50000 0.33046 0.00700
C 	C 	0.50000 0.80004 0.74317 0.12300
C 	C 	0.75504 0.50000 0.66954 0.00700
C 	C 	0.79741 0.64400 0.50000 -0.11000
C 	C 	0.50000 0.24496 0.33046 0.00700
C 	C 	0.88134 0.46030 0.88134 0.27000
C 	C 	0.50000 0.84258 0.71789 -0.16000
C 	C 	0.75504 0.50000 0.33046 0.00700
C 	C 	0.25683 0.19996 0.50000 0.12000
C 	C 	0.82776 0.82776 0.50000 0.37600
C 	C 	0.50000 0.19996 0.74317 0.12100
C 	C 	0.79735 0.50000 0.59069 0.37100
C 	C 	0.66858 0.84147 0.50000 0.06300
C 	C 	0.06376 0.50000 0.93624 0.46800
C 	C 	0.93624 0.50000 0.93624 0.46300
C 	C 	0.53880 0.15591 0.84409 -0.40000
C 	C 	0.50000 0.75504 0.66954 0.00700
C 	C 	0.50000 0.40931 0.20265 0.37200
C 	C 	0.50000 0.74317 0.19996 0.12100
C 	C 	0.11866 0.46030 0.11866 0.28400
C 	C 	0.79735 0.50000 0.40931 0.37100
C 	C 	0.50000 0.84147 0.66858 0.06300
C 	C 	0.35600 0.20259 0.50000 -0.11400
C 	C 	0.80004 0.50000 0.25683 0.12200
C 	C 	0.50000 0.79741 0.35600 -0.11100
C 	C 	0.50000 0.28092 0.75523 -0.03300
C 	C 	0.82776 0.17224 0.50000 0.38100
C 	C 	0.79735 0.59069 0.50000 0.37100
C 	C 	0.15742 0.28211 0.50000 -0.16200
C 	C 	0.88134 0.53970 0.11866 0.27700
C 	C 	0.15591 0.84409 0.46120 -0.40000
C 	C 	0.50000 0.71908 0.24477 -0.03300
C 	C 	0.53880 0.84409 0.84409 -0.39000
C 	C 	0.89852 0.89852 0.50000 -0.31300
C 	C 	0.74317 0.19996 0.50000 0.12100
C 	C 	0.33142 0.50000 0.84147 0.06300
C 	C 	0.50000 0.82776 0.82776 0.37600
C 	C 	0.84409 0.15591 0.53880 -0.40000
C 	C 	0.46120 0.84409 0.15591 -0.40000
C 	C 	0.75504 0.33046 0.50000 0.00700
C 	C 	0.89852 0.50000 0.10148 -0.32700
C 	C 	0.15853 0.50000 0.66858 0.06200
C 	C 	0.50000 0.79735 0.59069 0.37100
C 	C 	0.24477 0.71908 0.50000 -0.03300
C 	C 	0.64400 0.20259 0.50000 -0.11300
C 	C 	0.50000 0.10148 0.89852 -0.32700
C 	C 	0.50000 0.28211 0.15742 -0.16200
C 	C 	0.40931 0.79735 0.50000 0.37100
C 	C 	0.71908 0.75523 0.50000 -0.03200
C 	C 	0.84147 0.33142 0.50000 0.06300
C 	C 	0.28092 0.75523 0.50000 -0.03300
C 	C 	0.28211 0.50000 0.15742 -0.16200
C 	C 	0.19996 0.25683 0.50000 0.12000
C 	C 	0.50000 0.89852 0.10148 -0.32700
C 	C 	0.15591 0.15591 0.53880 -0.41000
C 	C 	0.50000 0.59069 0.79735 0.37100
C 	C 	0.64400 0.50000 0.79741 -0.11000
C 	C 	0.17224 0.17224 0.50000 0.38600
C 	C 	0.24496 0.50000 0.66954 0.00700
C 	C 	0.71908 0.50000 0.75523 -0.03200
C 	C 	0.25683 0.50000 0.19996 0.12000
C 	C 	0.50000 0.35600 0.20259 -0.11400
N 	N 	0.50000 0.20824 0.20824 -0.21400
N 	N 	0.20824 0.79176 0.50000 -0.21300
N 	N 	0.20824 0.50000 0.20824 -0.21400
N 	N 	0.79176 0.50000 0.79176 -0.21100
N 	N 	0.50000 0.79176 0.20824 -0.21300
N 	N 	0.79176 0.20824 0.50000 -0.21300
N 	N 	0.20824 0.50000 0.79176 -0.21300
N 	N 	0.50000 0.79176 0.79176 -0.21100
N 	N 	0.20824 0.20824 0.50000 -0.21400
N 	N 	0.79176 0.79176 0.50000 -0.21100
N 	N 	0.50000 0.20824 0.79176 -0.21300
N 	N 	0.79176 0.50000 0.20824 -0.21300
O 	O 	0.50000 0.24268 0.43002 -0.41000
O 	O 	0.24268 0.50000 0.43002 -0.41000
O 	O 	0.83727 0.43028 0.50000 -0.40900
O 	O 	0.50000 0.56998 0.75732 -0.40900
O 	O 	0.56998 0.50000 0.75732 -0.40900
O 	O 	0.95003 0.95003 0.46012 -0.41100
O 	O 	0.04997 0.46012 0.04997 -0.45300
O 	O 	0.50000 0.24268 0.56998 -0.41000
O 	O 	0.24268 0.50000 0.56998 -0.41000
O 	O 	0.56998 0.50000 0.24268 -0.41000
O 	O 	0.75732 0.56998 0.50000 -0.40900
O 	O 	0.50000 0.16273 0.56972 -0.41400
O 	O 	0.56972 0.83727 0.50000 -0.40900
O 	O 	0.24268 0.56998 0.50000 -0.41000
O 	O 	0.50000 0.43002 0.24268 -0.41000
O 	O 	0.83727 0.56972 0.50000 -0.40900
O 	O 	0.95003 0.04997 0.46012 -0.43200
O 	O 	0.04997 0.53988 0.04997 -0.45200
O 	O 	0.50000 0.43028 0.83727 -0.40900
O 	O 	0.43002 0.50000 0.75732 -0.40900
O 	O 	0.95003 0.04997 0.53988 -0.43100
O 	O 	0.16273 0.50000 0.43028 -0.41500
O 	O 	0.56998 0.24268 0.50000 -0.41000
O 	O 	0.95003 0.46012 0.95003 -0.41100
O 	O 	0.04997 0.46012 0.95003 -0.43200
O 	O 	0.43028 0.16273 0.50000 -0.41500
O 	O 	0.53988 0.95003 0.04997 -0.43100
O 	O 	0.50000 0.56972 0.16273 -0.41400
O 	O 	0.95003 0.46012 0.04997 -0.43200
O 	O 	0.53988 0.95003 0.95003 -0.41000
O 	O 	0.04997 0.04997 0.46012 -0.45300
O 	O 	0.50000 0.75732 0.43002 -0.40900
O 	O 	0.46012 0.04997 0.95003 -0.43200
O 	O 	0.04997 0.95003 0.46012 -0.43200
O 	O 	0.50000 0.56998 0.24268 -0.41000
O 	O 	0.50000 0.43002 0.75732 -0.40900
O 	O 	0.16273 0.56972 0.50000 -0.41400
O 	O 	0.50000 0.75732 0.56998 -0.40900
O 	O 	0.43028 0.50000 0.16273 -0.41500
O 	O 	0.95003 0.95003 0.53988 -0.41000
O 	O 	0.04997 0.95003 0.53988 -0.43100
O 	O 	0.83727 0.50000 0.56972 -0.40900
O 	O 	0.75732 0.50000 0.43002 -0.40900
O 	O 	0.43002 0.50000 0.24268 -0.41000
O 	O 	0.56972 0.50000 0.83727 -0.40900
O 	O 	0.43028 0.83727 0.50000 -0.40900
O 	O 	0.50000 0.83727 0.43028 -0.40900
O 	O 	0.16273 0.43028 0.50000 -0.41500
O 	O 	0.75732 0.50000 0.56998 -0.40900
O 	O 	0.46012 0.04997 0.04997 -0.45300
O 	O 	0.56972 0.50000 0.16273 -0.41400
O 	O 	0.50000 0.16273 0.43028 -0.41500
O 	O 	0.50000 0.56972 0.83727 -0.40900
O 	O 	0.24268 0.43002 0.50000 -0.41000
O 	O 	0.04997 0.04997 0.53988 -0.45200
O 	O 	0.43002 0.24268 0.50000 -0.41000
O 	O 	0.43002 0.75732 0.50000 -0.40900
O 	O 	0.50000 0.83727 0.56972 -0.40900
O 	O 	0.83727 0.50000 0.43028 -0.40900
O 	O 	0.53988 0.04997 0.04997 -0.45200
O 	O 	0.50000 0.43028 0.16273 -0.41500
O 	O 	0.46012 0.95003 0.95003 -0.41100
O 	O 	0.95003 0.53988 0.04997 -0.43100
O 	O 	0.46012 0.95003 0.04997 -0.43200
O 	O 	0.43028 0.50000 0.83727 -0.40900
O 	O 	0.56998 0.75732 0.50000 -0.40900
O 	O 	0.56972 0.16273 0.50000 -0.41400
O 	O 	0.95003 0.53988 0.95003 -0.41000
O 	O 	0.53988 0.04997 0.95003 -0.43100
O 	O 	0.04997 0.53988 0.95003 -0.43100
O 	O 	0.75732 0.43002 0.50000 -0.40900
O 	O 	0.16273 0.50000 0.56972 -0.41400
