data_crystal

_cell_length_a 13.35030
_cell_length_b 13.35030
_cell_length_c 14.38530
_cell_angle_alpha 90.00000
_cell_angle_beta  90.00000
_cell_angle_gamma 120.00000

_symmetry_space_group_name_	'P 1'
_symmetry_space_group_name_H-M	'P 1'

loop_
_symmetry_equiv_pos_as_xyz
  x,y,z

loop_
_atom_site_label
_atom_site_type_symbol
_atom_site_fract_x
_atom_site_fract_y
_atom_site_fract_z
_atom_site_charge
Dy	Dy	0.33333 0.66666 0.83250 1.97700
Dy	Dy	0.66667 0.33334 0.66750 1.96100
Dy	Dy	0.66667 0.33334 0.16750 1.95700
Dy	Dy	0.33333 0.66666 0.33250 1.97200
Cu	Cu	1.00000 0.50000 -0.00000 0.86300
Cu	Cu	0.50000 0.00000 -0.00000 0.86300
Cu	Cu	0.50000 0.50000 -0.00000 0.90000
Cu	Cu	0.50000 0.50000 0.50000 0.92900
Cu	Cu	0.50000 0.00000 0.50000 0.89200
Cu	Cu	1.00000 0.50000 0.50000 0.89200
H 	H 	0.97620 0.64980 0.07840 0.02300
H 	H 	0.13800 0.82020 0.02190 0.05900
H 	H 	0.03980 0.74700 0.95000 0.12300
H 	H 	0.08580 0.68760 0.19440 0.17800
H 	H 	0.19400 0.73430 0.12900 0.15700
H 	H 	0.67360 0.02380 0.07840 0.01900
H 	H 	0.68220 0.86200 0.02190 0.03000
H 	H 	0.70720 0.96020 0.95000 0.10400
H 	H 	0.60180 0.91420 0.19440 0.16900
H 	H 	0.54030 0.80600 0.12900 0.15000
H 	H 	0.35020 0.32640 0.07840 0.09500
H 	H 	0.17980 0.31780 0.02190 0.02900
H 	H 	0.25300 0.29280 0.95000 0.07600
H 	H 	0.31240 0.39820 0.19440 0.14800
H 	H 	0.26570 0.45970 0.12900 0.15200
H 	H 	0.32640 0.35020 0.42160 0.09600
H 	H 	0.31780 0.17980 0.47810 0.11400
H 	H 	0.29280 0.25300 0.55000 0.12100
H 	H 	0.39820 0.31240 0.30560 0.14700
H 	H 	0.45970 0.26570 0.37100 0.15800
H 	H 	0.64980 0.97620 0.42160 0.16800
H 	H 	0.82020 0.13800 0.47810 0.09000
H 	H 	0.74700 0.03980 0.55000 0.07600
H 	H 	0.68760 0.08580 0.30560 0.11700
H 	H 	0.73430 0.19400 0.37100 0.15200
H 	H 	0.02380 0.67360 0.42160 0.17300
H 	H 	0.86200 0.68220 0.47810 0.11200
H 	H 	0.96020 0.70720 0.55000 0.09300
H 	H 	0.91420 0.60180 0.30560 0.12500
H 	H 	0.80600 0.54030 0.37100 0.15800
H 	H 	0.02380 0.35020 0.92160 0.16700
H 	H 	0.86200 0.17980 0.97810 0.20100
H 	H 	0.96020 0.25300 0.05000 0.12800
H 	H 	0.91420 0.31240 0.80560 0.12100
H 	H 	0.80600 0.26570 0.87100 0.16500
H 	H 	0.32640 0.97620 0.92160 0.17000
H 	H 	0.31780 0.13800 0.97810 0.22100
H 	H 	0.29280 0.03980 0.05000 0.14300
H 	H 	0.39820 0.08580 0.80560 0.12900
H 	H 	0.45970 0.19400 0.87100 0.17100
H 	H 	0.64980 0.67360 0.92160 0.09800
H 	H 	0.82020 0.68220 0.97810 0.22100
H 	H 	0.74700 0.70720 0.05000 0.17100
H 	H 	0.68760 0.60180 0.80560 0.15000
H 	H 	0.73430 0.54030 0.87100 0.17100
H 	H 	0.67360 0.64980 0.57840 0.09600
H 	H 	0.68220 0.82020 0.52190 0.13500
H 	H 	0.70720 0.74700 0.45000 0.12500
H 	H 	0.60180 0.68760 0.69440 0.15300
H 	H 	0.54030 0.73430 0.62900 0.16500
H 	H 	0.35020 0.02380 0.57840 0.02600
H 	H 	0.17980 0.86200 0.52190 0.15700
H 	H 	0.25300 0.96020 0.45000 0.17000
H 	H 	0.31240 0.91420 0.69440 0.18100
H 	H 	0.26570 0.80600 0.62900 0.17000
H 	H 	0.97620 0.32640 0.57840 0.02200
H 	H 	0.13800 0.31780 0.52190 0.13400
H 	H 	0.03980 0.29280 0.45000 0.15300
H 	H 	0.08580 0.39820 0.69440 0.17300
H 	H 	0.19400 0.45970 0.62900 0.16300
C 	C 	0.18500 0.73170 0.93010 0.36500
C 	C 	0.09820 0.74650 0.98980 -0.13200
C 	C 	0.12630 0.56290 0.16090 0.49100
C 	C 	0.11720 0.66930 0.14050 -0.38200
C 	C 	0.54670 0.81500 0.93010 0.35600
C 	C 	0.64830 0.90180 0.98980 -0.10700
C 	C 	0.43660 0.87370 0.16090 0.48900
C 	C 	0.55210 0.88280 0.14050 -0.37600
C 	C 	0.26830 0.45330 0.93010 0.34600
C 	C 	0.25350 0.35170 0.98980 -0.09200
C 	C 	0.43710 0.56340 0.16090 0.48200
C 	C 	0.33070 0.44790 0.14050 -0.37300
C 	C 	0.45330 0.26830 0.56990 0.39100
C 	C 	0.35170 0.25350 0.51020 -0.29200
C 	C 	0.56340 0.43710 0.33910 0.48800
C 	C 	0.44790 0.33070 0.35950 -0.37800
C 	C 	0.73170 0.18500 0.56990 0.37400
C 	C 	0.74650 0.09820 0.51020 -0.26300
C 	C 	0.56290 0.12630 0.33910 0.47700
C 	C 	0.66930 0.11720 0.35950 -0.36400
C 	C 	0.81500 0.54670 0.56990 0.38000
C 	C 	0.90180 0.64830 0.51020 -0.27700
C 	C 	0.87370 0.43660 0.33910 0.48000
C 	C 	0.88280 0.55210 0.35950 -0.36900
C 	C 	0.81500 0.26830 0.06990 0.42600
C 	C 	0.90180 0.25350 0.01020 -0.48300
C 	C 	0.87370 0.43710 0.83910 0.48400
C 	C 	0.88280 0.33070 0.85950 -0.37000
C 	C 	0.45330 0.18500 0.06990 0.43000
C 	C 	0.35170 0.09820 0.01020 -0.49100
C 	C 	0.56340 0.12630 0.83910 0.48600
C 	C 	0.44790 0.11720 0.85950 -0.37500
C 	C 	0.73170 0.54670 0.06990 0.44000
C 	C 	0.74650 0.64830 0.01020 -0.50400
C 	C 	0.56290 0.43660 0.83910 0.49400
C 	C 	0.66930 0.55210 0.85950 -0.38400
C 	C 	0.54670 0.73170 0.43010 0.39400
C 	C 	0.64830 0.74650 0.48980 -0.30300
C 	C 	0.43660 0.56290 0.66090 0.49000
C 	C 	0.55210 0.66930 0.64050 -0.38300
C 	C 	0.26830 0.81500 0.43010 0.41000
C 	C 	0.25350 0.90180 0.48980 -0.32800
C 	C 	0.43710 0.87370 0.66090 0.49800
C 	C 	0.33070 0.88280 0.64050 -0.39200
C 	C 	0.18500 0.45330 0.43010 0.40400
C 	C 	0.09820 0.35170 0.48980 -0.31400
C 	C 	0.12630 0.56340 0.66090 0.49600
C 	C 	0.11720 0.44790 0.64050 -0.38600
N 	N 	0.04220 0.65260 0.05820 -0.12700
N 	N 	0.61040 0.95780 0.05820 -0.13200
N 	N 	0.34740 0.38960 0.05820 -0.20600
N 	N 	0.38960 0.34740 0.44180 -0.15800
N 	N 	0.65260 0.04220 0.44180 -0.22600
N 	N 	0.95780 0.61040 0.44180 -0.22300
N 	N 	0.95780 0.34740 0.94180 -0.16300
N 	N 	0.38960 0.04220 0.94180 -0.16100
N 	N 	0.65260 0.61040 0.94180 -0.10000
N 	N 	0.61040 0.65260 0.55820 -0.15500
N 	N 	0.34740 0.95780 0.55820 -0.08000
N 	N 	0.04220 0.38960 0.55820 -0.08300
O 	O 	0.18880 0.63990 0.94050 -0.46000
O 	O 	0.24570 0.80650 0.87200 -0.35200
O 	O 	0.18450 0.56540 0.22950 -0.49800
O 	O 	0.07510 0.47680 0.10820 -0.40200
O 	O 	0.45110 0.81120 0.94050 -0.45800
O 	O 	0.56080 0.75430 0.87200 -0.36200
O 	O 	0.38090 0.81550 0.22950 -0.49600
O 	O 	0.40170 0.92490 0.10820 -0.39900
O 	O 	0.36010 0.54890 0.94050 -0.46700
O 	O 	0.19350 0.43920 0.87200 -0.35500
O 	O 	0.43460 0.61910 0.22950 -0.50600
O 	O 	0.52320 0.59830 0.10820 -0.44100
O 	O 	0.54890 0.36010 0.55950 -0.49900
O 	O 	0.43920 0.19350 0.62800 -0.38900
O 	O 	0.61910 0.43460 0.27050 -0.50300
O 	O 	0.59830 0.52320 0.39180 -0.43200
O 	O 	0.63990 0.18880 0.55950 -0.50100
O 	O 	0.80650 0.24570 0.62800 -0.39300
O 	O 	0.56540 0.18450 0.27050 -0.51000
O 	O 	0.47680 0.07510 0.39180 -0.45600
O 	O 	0.81120 0.45110 0.55950 -0.50200
O 	O 	0.75430 0.56080 0.62800 -0.38300
O 	O 	0.81550 0.38090 0.27050 -0.51200
O 	O 	0.92490 0.40170 0.39180 -0.45900
O 	O 	0.81120 0.36010 0.05950 -0.53100
O 	O 	0.75430 0.19350 0.12800 -0.41600
O 	O 	0.81550 0.43460 0.77050 -0.51000
O 	O 	0.92490 0.52320 0.89180 -0.43500
O 	O 	0.54890 0.18880 0.05950 -0.53100
O 	O 	0.43920 0.24570 0.12800 -0.40600
O 	O 	0.61910 0.18450 0.77050 -0.51200
O 	O 	0.59830 0.07510 0.89180 -0.43800
O 	O 	0.63990 0.45110 0.05950 -0.52800
O 	O 	0.80650 0.56080 0.12800 -0.41100
O 	O 	0.56540 0.38090 0.77050 -0.50400
O 	O 	0.47680 0.40170 0.89180 -0.41200
O 	O 	0.45110 0.63990 0.44050 -0.50100
O 	O 	0.56080 0.80650 0.37200 -0.37700
O 	O 	0.38090 0.56540 0.72950 -0.50700
O 	O 	0.40170 0.47680 0.60820 -0.43200
O 	O 	0.36010 0.81120 0.44050 -0.49100
O 	O 	0.19350 0.75430 0.37200 -0.37300
O 	O 	0.43460 0.81550 0.72950 -0.49900
O 	O 	0.52320 0.92490 0.60820 -0.39400
O 	O 	0.18880 0.54890 0.44050 -0.49100
O 	O 	0.24570 0.43920 0.37200 -0.38400
O 	O 	0.18450 0.61910 0.72950 -0.49700
O 	O 	0.07510 0.59830 0.60820 -0.39200
