data_crystal

_cell_length_a 13.35200
_cell_length_b 13.35200
_cell_length_c 14.41400
_cell_angle_alpha 90.00000
_cell_angle_beta  90.00000
_cell_angle_gamma 120.00000

_symmetry_space_group_name_	'P 1'
_symmetry_space_group_name_H-M	'P 1'

loop_
_symmetry_equiv_pos_as_xyz
  x,y,z

loop_
_atom_site_label
_atom_site_type_symbol
_atom_site_fract_x
_atom_site_fract_y
_atom_site_fract_z
_atom_site_charge
Tb	Tb	0.33333 0.66666 0.16760 2.02300
Tb	Tb	0.66667 0.33334 0.33240 2.02100
Tb	Tb	0.66667 0.33334 0.83240 2.02600
Tb	Tb	0.33333 0.66666 0.66760 2.02600
Cu	Cu	0.50000 0.50000 -0.00000 0.90100
Cu	Cu	-0.00000 0.50000 -0.00000 0.87100
Cu	Cu	0.50000 0.00000 -0.00000 0.87200
Cu	Cu	0.00000 0.50000 0.50000 0.89800
Cu	Cu	0.50000 0.50000 0.50000 0.92900
Cu	Cu	0.50000 -0.00000 0.50000 0.90000
H 	H 	0.97610 0.32680 0.42120 0.15700
H 	H 	0.08540 0.39880 0.30560 0.12500
H 	H 	0.19360 0.45970 0.37090 0.15800
H 	H 	0.13880 0.31880 0.47720 0.10400
H 	H 	0.03980 0.29200 0.54880 0.08500
H 	H 	0.35070 0.02390 0.42120 0.03600
H 	H 	0.31340 0.91460 0.30560 0.16800
H 	H 	0.26610 0.80640 0.37090 0.16300
H 	H 	0.18000 0.86120 0.47720 0.12300
H 	H 	0.25220 0.96020 0.54880 0.14400
H 	H 	0.67320 0.64930 0.42120 0.10000
H 	H 	0.60120 0.68660 0.30560 0.15800
H 	H 	0.54030 0.73390 0.37090 0.16900
H 	H 	0.68120 0.82000 0.47720 0.14300
H 	H 	0.70800 0.74780 0.54880 0.13700
H 	H 	0.64930 0.67320 0.07880 0.09900
H 	H 	0.68660 0.60120 0.19440 0.15500
H 	H 	0.73390 0.54030 0.12910 0.15700
H 	H 	0.82000 0.68120 0.02280 0.04300
H 	H 	0.74780 0.70800 0.95120 0.08900
H 	H 	0.32680 0.97610 0.07880 0.15400
H 	H 	0.39880 0.08540 0.19440 0.12300
H 	H 	0.45970 0.19360 0.12910 0.14600
H 	H 	0.31880 0.13880 0.02280 -0.00100
H 	H 	0.29200 0.03980 0.95120 0.03700
H 	H 	0.02390 0.35070 0.07880 0.03100
H 	H 	0.91460 0.31340 0.19440 0.16600
H 	H 	0.80640 0.26610 0.12910 0.15100
H 	H 	0.86120 0.18000 0.02280 0.02400
H 	H 	0.96020 0.25220 0.95120 0.09900
H 	H 	0.02390 0.67320 0.57880 0.03700
H 	H 	0.91460 0.60120 0.69440 0.17600
H 	H 	0.80640 0.54030 0.62910 0.16900
H 	H 	0.86120 0.68120 0.52280 0.14300
H 	H 	0.96020 0.70800 0.45120 0.15900
H 	H 	0.64930 0.97610 0.57880 0.15700
H 	H 	0.68660 0.08540 0.69440 0.13500
H 	H 	0.73390 0.19360 0.62910 0.16400
H 	H 	0.82000 0.13880 0.52280 0.12400
H 	H 	0.74780 0.03980 0.45120 0.10000
H 	H 	0.32680 0.35070 0.57880 0.09300
H 	H 	0.39880 0.31340 0.69440 0.14500
H 	H 	0.45970 0.26610 0.62910 0.15900
H 	H 	0.31880 0.18000 0.52280 0.10600
H 	H 	0.29200 0.25220 0.45120 0.10800
H 	H 	0.35070 0.32680 0.92120 0.09500
H 	H 	0.31340 0.39880 0.80560 0.14700
H 	H 	0.26610 0.45970 0.87090 0.17100
H 	H 	0.18000 0.31880 0.97720 0.21000
H 	H 	0.25220 0.29200 0.04880 0.15700
H 	H 	0.67320 0.02390 0.92120 0.04400
H 	H 	0.60120 0.91460 0.80560 0.17700
H 	H 	0.54030 0.80640 0.87090 0.18000
H 	H 	0.68120 0.86120 0.97720 0.24000
H 	H 	0.70800 0.96020 0.04880 0.20400
H 	H 	0.97610 0.64930 0.92120 0.16000
H 	H 	0.08540 0.68660 0.80560 0.13500
H 	H 	0.19360 0.73390 0.87090 0.17600
H 	H 	0.13880 0.82000 0.97720 0.22300
H 	H 	0.03980 0.74780 0.04880 0.14600
C 	C 	0.12640 0.56220 0.33980 0.47900
C 	C 	0.11700 0.44830 0.35960 -0.37800
C 	C 	0.18380 0.45340 0.56970 0.37500
C 	C 	0.09820 0.35160 0.50950 -0.27100
C 	C 	0.43580 0.87360 0.33980 0.49400
C 	C 	0.33130 0.88300 0.35960 -0.39500
C 	C 	0.26960 0.81620 0.56970 0.39700
C 	C 	0.25340 0.90180 0.50950 -0.30400
C 	C 	0.43780 0.56420 0.33980 0.49100
C 	C 	0.55170 0.66870 0.35960 -0.39600
C 	C 	0.54660 0.73040 0.56970 0.39400
C 	C 	0.64840 0.74660 0.50950 -0.30800
C 	C 	0.56420 0.43780 0.16020 0.48300
C 	C 	0.66870 0.55170 0.14040 -0.38600
C 	C 	0.73040 0.54660 0.93030 0.34800
C 	C 	0.74660 0.64840 0.99050 -0.10900
C 	C 	0.56220 0.12640 0.16020 0.47200
C 	C 	0.44830 0.11700 0.14040 -0.36800
C 	C 	0.45340 0.18380 0.93030 0.32700
C 	C 	0.35160 0.09820 0.99050 -0.06100
C 	C 	0.87360 0.43580 0.16020 0.48700
C 	C 	0.88300 0.33130 0.14040 -0.38500
C 	C 	0.81620 0.26960 0.93030 0.35200
C 	C 	0.90180 0.25340 0.99050 -0.10500
C 	C 	0.87360 0.43780 0.66020 0.49600
C 	C 	0.88300 0.55170 0.64040 -0.40000
C 	C 	0.81620 0.54660 0.43030 0.40300
C 	C 	0.90180 0.64840 0.49050 -0.31700
C 	C 	0.56420 0.12640 0.66020 0.48200
C 	C 	0.66870 0.11700 0.64040 -0.38400
C 	C 	0.73040 0.18380 0.43030 0.38100
C 	C 	0.74660 0.09820 0.49050 -0.28400
C 	C 	0.56220 0.43580 0.66020 0.48700
C 	C 	0.44830 0.33130 0.64040 -0.38800
C 	C 	0.45340 0.26960 0.43030 0.38400
C 	C 	0.35160 0.25340 0.49050 -0.28400
C 	C 	0.43580 0.56220 0.83980 0.49300
C 	C 	0.33130 0.44830 0.85960 -0.39300
C 	C 	0.26960 0.45340 0.06970 0.43300
C 	C 	0.25340 0.35160 0.00950 -0.49000
C 	C 	0.43780 0.87360 0.83980 0.50200
C 	C 	0.55170 0.88300 0.85960 -0.40500
C 	C 	0.54660 0.81620 0.06970 0.44700
C 	C 	0.64840 0.90180 0.00950 -0.51000
C 	C 	0.12640 0.56420 0.83980 0.48800
C 	C 	0.11700 0.66870 0.85960 -0.38900
C 	C 	0.18380 0.73040 0.06970 0.42700
C 	C 	0.09820 0.74660 0.00950 -0.48300
N 	N 	0.04200 0.38980 0.44140 -0.21400
N 	N 	0.34780 0.95800 0.44140 -0.09800
N 	N 	0.61020 0.65220 0.44140 -0.15300
N 	N 	0.65220 0.61020 0.05860 -0.20200
N 	N 	0.38980 0.04200 0.05860 -0.26200
N 	N 	0.95800 0.34780 0.05860 -0.14300
N 	N 	0.95800 0.61020 0.55860 -0.09200
N 	N 	0.65220 0.04200 0.55860 -0.20700
N 	N 	0.38980 0.34780 0.55860 -0.15800
N 	N 	0.34780 0.38980 0.94140 -0.10200
N 	N 	0.61020 0.95800 0.94140 -0.04400
N 	N 	0.04200 0.65220 0.94140 -0.15400
O 	O 	0.18420 0.61880 0.27130 -0.51600
O 	O 	0.07450 0.59810 0.39230 -0.44900
O 	O 	0.18870 0.54940 0.55860 -0.50800
O 	O 	0.24470 0.43890 0.62760 -0.39000
O 	O 	0.43460 0.81580 0.27130 -0.50200
O 	O 	0.52360 0.92550 0.39230 -0.39600
O 	O 	0.36070 0.81130 0.55860 -0.49800
O 	O 	0.19420 0.75530 0.62760 -0.39100
O 	O 	0.38120 0.56540 0.27130 -0.51200
O 	O 	0.40190 0.47640 0.39230 -0.43100
O 	O 	0.45060 0.63930 0.55860 -0.50600
O 	O 	0.56110 0.80580 0.62760 -0.37800
O 	O 	0.56540 0.38120 0.22870 -0.51300
O 	O 	0.47640 0.40190 0.10770 -0.43900
O 	O 	0.63930 0.45060 0.94140 -0.47300
O 	O 	0.80580 0.56110 0.87240 -0.35700
O 	O 	0.61880 0.18420 0.22870 -0.51600
O 	O 	0.59810 0.07450 0.10770 -0.45600
O 	O 	0.54940 0.18870 0.94140 -0.47300
O 	O 	0.43890 0.24470 0.87240 -0.36700
O 	O 	0.81580 0.43460 0.22870 -0.50300
O 	O 	0.92550 0.52360 0.10770 -0.40200
O 	O 	0.81130 0.36070 0.94140 -0.46400
O 	O 	0.75530 0.19420 0.87240 -0.36900
O 	O 	0.81580 0.38120 0.72870 -0.50500
O 	O 	0.92550 0.40190 0.60770 -0.39600
O 	O 	0.81130 0.45060 0.44140 -0.49700
O 	O 	0.75530 0.56110 0.37240 -0.38400
O 	O 	0.56540 0.18420 0.72870 -0.51900
O 	O 	0.47640 0.07450 0.60770 -0.45000
O 	O 	0.63930 0.18870 0.44140 -0.50700
O 	O 	0.80580 0.24470 0.37240 -0.38100
O 	O 	0.61880 0.43460 0.72870 -0.51000
O 	O 	0.59810 0.52360 0.60770 -0.42600
O 	O 	0.54940 0.36070 0.44140 -0.50500
O 	O 	0.43890 0.19420 0.37240 -0.39500
O 	O 	0.43460 0.61880 0.77130 -0.50900
O 	O 	0.52360 0.59810 0.89230 -0.40700
O 	O 	0.36070 0.54940 0.05860 -0.53300
O 	O 	0.19420 0.43890 0.12760 -0.41600
O 	O 	0.38120 0.81580 0.77130 -0.50500
O 	O 	0.40190 0.92550 0.89230 -0.38100
O 	O 	0.45060 0.81130 0.05860 -0.52500
O 	O 	0.56110 0.75530 0.12760 -0.40300
O 	O 	0.18420 0.56540 0.77130 -0.51800
O 	O 	0.07450 0.47640 0.89230 -0.43200
O 	O 	0.18870 0.63930 0.05860 -0.53500
O 	O 	0.24470 0.80580 0.12760 -0.40200
