data_crystal

_cell_length_a 22.87700
_cell_length_b 23.11100
_cell_length_c 18.36400
_cell_angle_alpha 90.00000
_cell_angle_beta  105.39900
_cell_angle_gamma 90.00000

_symmetry_space_group_name_	'P 1'
_symmetry_space_group_name_H-M	'P 1'

loop_
_symmetry_equiv_pos_as_xyz
  x,y,z

loop_
_atom_site_label
_atom_site_type_symbol
_atom_site_fract_x
_atom_site_fract_y
_atom_site_fract_z
_atom_site_charge
Cu	Cu	0.64907 0.22169 0.55791 0.93000
Cu	Cu	0.72061 0.30401 0.46079 0.91600
N 	N 	0.80909 0.37014 0.81423 -0.21300
N 	N 	0.90687 0.37745 0.89286 -0.21000
N 	N 	0.84510 0.45933 0.86592 -0.20900
N 	N 	0.59607 0.22744 0.62796 -0.21200
N 	N 	0.64209 0.31474 0.38500 -0.22700
O 	O 	0.75089 0.44995 0.78887 -0.24700
O 	O 	0.94174 0.46511 0.94194 -0.23400
O 	O 	0.87213 0.29255 0.83689 -0.25200
O 	O 	0.71807 0.25569 0.63610 -0.43300
O 	O 	0.68619 0.33369 0.56805 -0.38800
O 	O 	0.07562 0.30110 0.98047 -0.41300
O 	O 	0.11434 0.33985 0.89259 -0.34100
O 	O 	0.81934 0.63457 0.90306 -0.40700
O 	O 	0.74469 0.61597 0.95446 -0.43100
O 	O 	0.80094 0.27594 0.51526 -0.63200
H 	H 	0.81870 0.29870 0.56080 0.20400
C 	C 	0.79890 0.42750 0.82120 0.28800
C 	C 	0.90116 0.43571 0.90310 0.27700
C 	C 	0.86319 0.34348 0.84710 0.28900
C 	C 	0.76147 0.33643 0.76100 0.15500
H 	H 	0.72190 0.34890 0.76460 0.00700
H 	H 	0.76600 0.29570 0.77400 0.01500
C 	C 	0.76614 0.34507 0.68080 -0.45600
H 	H 	0.76020 0.38570 0.66760 0.19400
H 	H 	0.80650 0.33430 0.67820 0.18600
C 	C 	0.72017 0.30976 0.62490 0.41300
C 	C 	0.96574 0.35017 0.93100 0.14500
H 	H 	0.95910 0.31000 0.94190 0.01600
H 	H 	0.98320 0.36970 0.97850 0.01600
C 	C 	0.00939 0.35330 0.88210 -0.43700
H 	H 	0.01320 0.39330 0.86800 0.18100
H 	H 	0.99280 0.33150 0.83610 0.17500
C 	C 	0.07176 0.32993 0.92080 0.44700
C 	C 	0.83681 0.52215 0.87170 0.15900
H 	H 	0.81570 0.53730 0.82250 0.01100
H 	H 	0.87620 0.54070 0.88730 0.01300
C 	C 	0.80093 0.53662 0.92800 -0.46600
H 	H 	0.82370 0.52470 0.97810 0.18800
H 	H 	0.76300 0.51540 0.91500 0.19700
C 	C 	0.78793 0.60102 0.92800 0.47800
C 	C 	0.58690 0.27480 0.66330 0.09700
H 	H 	0.60690 0.30850 0.65630 0.00200
C 	C 	0.54890 0.27650 0.71030 -0.14400
H 	H 	0.54300 0.31140 0.73260 0.08600
C 	C 	0.52010 0.22890 0.72470 0.06800
C 	C 	0.52780 0.17970 0.68700 -0.13600
H 	H 	0.50740 0.14600 0.69300 0.08500
C 	C 	0.56600 0.17980 0.64000 0.08700
H 	H 	0.57110 0.14570 0.61560 0.01500
C 	C 	0.59196 0.32950 0.40390 0.08800
H 	H 	0.59490 0.33940 0.45390 0.00100
C 	C 	0.53567 0.33090 0.35260 -0.13700
H 	H 	0.50160 0.34040 0.36860 0.08600
C 	C 	0.52984 0.31834 0.27750 0.06500
C 	C 	0.58189 0.30360 0.25910 -0.14300
H 	H 	0.58040 0.29480 0.20920 0.10000
C 	C 	0.63613 0.30160 0.31280 0.09200
H 	H 	0.67050 0.29050 0.29830 0.00500
Cu	Cu	0.14907 0.72169 0.55791 0.92900
Cu	Cu	0.22061 0.80401 0.46079 0.91500
N 	N 	0.30909 0.87014 0.81423 -0.21400
N 	N 	0.40687 0.87745 0.89286 -0.21100
N 	N 	0.34510 0.95933 0.86592 -0.21000
N 	N 	0.09607 0.72744 0.62796 -0.21300
N 	N 	0.14209 0.81474 0.38500 -0.22800
O 	O 	0.25089 0.94995 0.78887 -0.24700
O 	O 	0.44174 0.96511 0.94194 -0.23400
O 	O 	0.37213 0.79255 0.83689 -0.25300
O 	O 	0.21807 0.75569 0.63610 -0.43300
O 	O 	0.18619 0.83369 0.56805 -0.38800
O 	O 	0.57562 0.80110 0.98047 -0.41400
O 	O 	0.61434 0.83985 0.89259 -0.34100
O 	O 	0.31934 0.13457 0.90306 -0.40700
O 	O 	0.24469 0.11597 0.95446 -0.43100
O 	O 	0.30094 0.77594 0.51526 -0.63200
H 	H 	0.31870 0.79870 0.56080 0.20400
C 	C 	0.29890 0.92750 0.82120 0.28800
C 	C 	0.40116 0.93571 0.90310 0.27700
C 	C 	0.36319 0.84348 0.84710 0.28900
C 	C 	0.26147 0.83643 0.76100 0.15500
H 	H 	0.22190 0.84890 0.76460 0.00700
H 	H 	0.26600 0.79570 0.77400 0.01500
C 	C 	0.26614 0.84507 0.68080 -0.45600
H 	H 	0.26020 0.88570 0.66760 0.19400
H 	H 	0.30650 0.83430 0.67820 0.18600
C 	C 	0.22017 0.80976 0.62490 0.41300
C 	C 	0.46574 0.85017 0.93100 0.14700
H 	H 	0.45910 0.81000 0.94190 0.01600
H 	H 	0.48320 0.86970 0.97850 0.01600
C 	C 	0.50939 0.85330 0.88210 -0.44000
H 	H 	0.51320 0.89330 0.86800 0.18100
H 	H 	0.49280 0.83150 0.83610 0.17600
C 	C 	0.57176 0.82993 0.92080 0.44700
C 	C 	0.33681 0.02215 0.87170 0.15800
H 	H 	0.31570 0.03730 0.82250 0.01100
H 	H 	0.37620 0.04070 0.88730 0.01300
C 	C 	0.30093 0.03662 0.92800 -0.46600
H 	H 	0.32370 0.02470 0.97810 0.18800
H 	H 	0.26300 0.01540 0.91500 0.19700
C 	C 	0.28793 0.10102 0.92800 0.47800
C 	C 	0.08690 0.77480 0.66330 0.09800
H 	H 	0.10690 0.80850 0.65630 0.00200
C 	C 	0.04890 0.77650 0.71030 -0.14500
H 	H 	0.04300 0.81140 0.73260 0.08600
C 	C 	0.02010 0.72890 0.72470 0.07000
C 	C 	0.02780 0.67970 0.68700 -0.13700
H 	H 	0.00740 0.64600 0.69300 0.08500
C 	C 	0.06600 0.67980 0.64000 0.08800
H 	H 	0.07110 0.64570 0.61560 0.01500
C 	C 	0.09196 0.82950 0.40390 0.08800
H 	H 	0.09490 0.83940 0.45390 0.00100
C 	C 	0.03567 0.83090 0.35260 -0.13700
H 	H 	0.00160 0.84040 0.36860 0.08600
C 	C 	0.02984 0.81834 0.27750 0.06400
C 	C 	0.08189 0.80360 0.25910 -0.14200
H 	H 	0.08040 0.79480 0.20920 0.09900
C 	C 	0.13613 0.80160 0.31280 0.09100
H 	H 	0.17050 0.79050 0.29830 0.00600
Cu	Cu	0.35093 0.22169 0.94209 0.92800
Cu	Cu	0.27939 0.30401 0.03921 0.91500
N 	N 	0.19091 0.37014 0.68577 -0.21400
N 	N 	0.09313 0.37745 0.60714 -0.21100
N 	N 	0.15490 0.45933 0.63408 -0.21000
N 	N 	0.40393 0.22744 0.87204 -0.21300
N 	N 	0.35791 0.31474 0.11500 -0.22800
O 	O 	0.24911 0.44995 0.71113 -0.24800
O 	O 	0.05826 0.46511 0.55806 -0.23500
O 	O 	0.12787 0.29255 0.66311 -0.25300
O 	O 	0.28193 0.25569 0.86390 -0.43300
O 	O 	0.31381 0.33369 0.93195 -0.38800
O 	O 	0.92438 0.30110 0.51953 -0.41400
O 	O 	0.88566 0.33985 0.60741 -0.34100
O 	O 	0.18066 0.63457 0.59694 -0.40700
O 	O 	0.25531 0.61597 0.54554 -0.43100
O 	O 	0.19906 0.27594 0.98474 -0.63200
H 	H 	0.18130 0.29870 0.93920 0.20400
C 	C 	0.20110 0.42750 0.67880 0.28800
C 	C 	0.09884 0.43571 0.59690 0.27700
C 	C 	0.13681 0.34348 0.65290 0.28900
C 	C 	0.23853 0.33643 0.73900 0.15500
H 	H 	0.27810 0.34890 0.73540 0.00700
H 	H 	0.23400 0.29570 0.72600 0.01500
C 	C 	0.23386 0.34507 0.81920 -0.45600
H 	H 	0.23980 0.38570 0.83240 0.19400
H 	H 	0.19350 0.33430 0.82180 0.18700
C 	C 	0.27983 0.30976 0.87510 0.41300
C 	C 	0.03426 0.35017 0.56900 0.14800
H 	H 	0.04090 0.31000 0.55810 0.01500
H 	H 	0.01680 0.36970 0.52150 0.01500
C 	C 	0.99061 0.35330 0.61790 -0.44200
H 	H 	0.98680 0.39330 0.63200 0.18200
H 	H 	0.00720 0.33150 0.66390 0.17700
C 	C 	0.92824 0.32993 0.57920 0.44800
C 	C 	0.16319 0.52215 0.62830 0.15900
H 	H 	0.18430 0.53730 0.67750 0.01100
H 	H 	0.12380 0.54070 0.61270 0.01300
C 	C 	0.19907 0.53662 0.57200 -0.46600
H 	H 	0.17630 0.52470 0.52190 0.18900
H 	H 	0.23700 0.51540 0.58500 0.19700
C 	C 	0.21207 0.60102 0.57200 0.47900
C 	C 	0.41310 0.27480 0.83670 0.09700
H 	H 	0.39310 0.30850 0.84370 0.00200
C 	C 	0.45110 0.27650 0.78970 -0.14400
H 	H 	0.45700 0.31140 0.76740 0.08600
C 	C 	0.47990 0.22890 0.77530 0.06800
C 	C 	0.47220 0.17970 0.81300 -0.13600
H 	H 	0.49260 0.14600 0.80700 0.08500
C 	C 	0.43400 0.17980 0.86000 0.08700
H 	H 	0.42890 0.14570 0.88440 0.01500
C 	C 	0.40804 0.32950 0.09610 0.08800
H 	H 	0.40510 0.33940 0.04610 0.00100
C 	C 	0.46433 0.33090 0.14740 -0.13700
H 	H 	0.49840 0.34040 0.13140 0.08600
C 	C 	0.47016 0.31834 0.22250 0.06500
C 	C 	0.41811 0.30360 0.24090 -0.14300
H 	H 	0.41960 0.29480 0.29080 0.10000
C 	C 	0.36387 0.30160 0.18720 0.09200
H 	H 	0.32950 0.29050 0.20170 0.00500
Cu	Cu	0.85093 0.72169 0.94209 0.92800
Cu	Cu	0.77939 0.80401 0.03921 0.91500
N 	N 	0.69091 0.87014 0.68577 -0.21400
N 	N 	0.59313 0.87745 0.60714 -0.21100
N 	N 	0.65490 0.95933 0.63408 -0.21000
N 	N 	0.90393 0.72744 0.87204 -0.21300
N 	N 	0.85791 0.81474 0.11500 -0.22800
O 	O 	0.74911 0.94995 0.71113 -0.24800
O 	O 	0.55826 0.96511 0.55806 -0.23500
O 	O 	0.62787 0.79255 0.66311 -0.25300
O 	O 	0.78193 0.75569 0.86390 -0.43300
O 	O 	0.81381 0.83369 0.93195 -0.38800
O 	O 	0.42438 0.80110 0.51953 -0.41400
O 	O 	0.38566 0.83985 0.60741 -0.34100
O 	O 	0.68066 0.13457 0.59694 -0.40700
O 	O 	0.75531 0.11597 0.54554 -0.43100
O 	O 	0.69906 0.77594 0.98474 -0.63200
H 	H 	0.68130 0.79870 0.93920 0.20400
C 	C 	0.70110 0.92750 0.67880 0.28800
C 	C 	0.59884 0.93571 0.59690 0.27700
C 	C 	0.63681 0.84348 0.65290 0.28900
C 	C 	0.73853 0.83643 0.73900 0.15500
H 	H 	0.77810 0.84890 0.73540 0.00700
H 	H 	0.73400 0.79570 0.72600 0.01500
C 	C 	0.73386 0.84507 0.81920 -0.45600
H 	H 	0.73980 0.88570 0.83240 0.19400
H 	H 	0.69350 0.83430 0.82180 0.18700
C 	C 	0.77983 0.80976 0.87510 0.41300
C 	C 	0.53426 0.85017 0.56900 0.14700
H 	H 	0.54090 0.81000 0.55810 0.01600
H 	H 	0.51680 0.86970 0.52150 0.01500
C 	C 	0.49061 0.85330 0.61790 -0.44000
H 	H 	0.48680 0.89330 0.63200 0.18100
H 	H 	0.50720 0.83150 0.66390 0.17600
C 	C 	0.42824 0.82993 0.57920 0.44800
C 	C 	0.66319 0.02215 0.62830 0.15800
H 	H 	0.68430 0.03730 0.67750 0.01100
H 	H 	0.62380 0.04070 0.61270 0.01300
C 	C 	0.69907 0.03662 0.57200 -0.46600
H 	H 	0.67630 0.02470 0.52190 0.18900
H 	H 	0.73700 0.01540 0.58500 0.19700
C 	C 	0.71207 0.10102 0.57200 0.47800
C 	C 	0.91310 0.77480 0.83670 0.09600
H 	H 	0.89310 0.80850 0.84370 0.00200
C 	C 	0.95110 0.77650 0.78970 -0.14300
H 	H 	0.95700 0.81140 0.76740 0.08500
C 	C 	0.97990 0.72890 0.77530 0.06700
C 	C 	0.97220 0.67970 0.81300 -0.13500
H 	H 	0.99260 0.64600 0.80700 0.08400
C 	C 	0.93400 0.67980 0.86000 0.08700
H 	H 	0.92890 0.64570 0.88440 0.01500
C 	C 	0.90804 0.82950 0.09610 0.08800
H 	H 	0.90510 0.83940 0.04610 0.00100
C 	C 	0.96433 0.83090 0.14740 -0.13800
H 	H 	0.99840 0.84040 0.13140 0.08700
C 	C 	0.97016 0.81834 0.22250 0.06600
C 	C 	0.91811 0.80360 0.24090 -0.14400
H 	H 	0.91960 0.79480 0.29080 0.10000
C 	C 	0.86387 0.80160 0.18720 0.09200
H 	H 	0.82950 0.79050 0.20170 0.00500
Cu	Cu	0.35093 0.77832 0.44209 0.92900
Cu	Cu	0.27939 0.69599 0.53921 0.91500
N 	N 	0.19091 0.62986 0.18577 -0.21400
N 	N 	0.09313 0.62255 0.10714 -0.21100
N 	N 	0.15490 0.54067 0.13408 -0.21000
N 	N 	0.40393 0.77256 0.37204 -0.21300
N 	N 	0.35791 0.68526 0.61500 -0.22800
O 	O 	0.24911 0.55005 0.21113 -0.24800
O 	O 	0.05826 0.53489 0.05806 -0.23500
O 	O 	0.12787 0.70745 0.16311 -0.25300
O 	O 	0.28193 0.74431 0.36390 -0.43300
O 	O 	0.31381 0.66631 0.43195 -0.38800
O 	O 	0.92438 0.69890 0.01953 -0.41300
O 	O 	0.88566 0.66015 0.10741 -0.34100
O 	O 	0.18066 0.36543 0.09694 -0.40700
O 	O 	0.25531 0.38403 0.04554 -0.43100
O 	O 	0.19906 0.72406 0.48474 -0.63200
H 	H 	0.18130 0.70130 0.43920 0.20400
C 	C 	0.20110 0.57250 0.17880 0.28800
C 	C 	0.09884 0.56429 0.09690 0.27700
C 	C 	0.13681 0.65652 0.15290 0.28900
C 	C 	0.23853 0.66357 0.23900 0.15500
H 	H 	0.27810 0.65110 0.23540 0.00700
H 	H 	0.23400 0.70430 0.22600 0.01500
C 	C 	0.23386 0.65493 0.31920 -0.45600
H 	H 	0.23980 0.61430 0.33240 0.19400
H 	H 	0.19350 0.66570 0.32180 0.18600
C 	C 	0.27983 0.69024 0.37510 0.41300
C 	C 	0.03426 0.64983 0.06900 0.14500
H 	H 	0.04090 0.69000 0.05810 0.01600
H 	H 	0.01680 0.63030 0.02150 0.01600
C 	C 	0.99061 0.64670 0.11790 -0.43700
H 	H 	0.98680 0.60670 0.13200 0.18100
H 	H 	0.00720 0.66850 0.16390 0.17500
C 	C 	0.92824 0.67007 0.07920 0.44700
C 	C 	0.16319 0.47785 0.12830 0.15900
H 	H 	0.18430 0.46270 0.17750 0.01100
H 	H 	0.12380 0.45930 0.11270 0.01300
C 	C 	0.19907 0.46338 0.07200 -0.46600
H 	H 	0.17630 0.47530 0.02190 0.18800
H 	H 	0.23700 0.48460 0.08500 0.19700
C 	C 	0.21207 0.39898 0.07200 0.47800
C 	C 	0.41310 0.72520 0.33670 0.09700
H 	H 	0.39310 0.69150 0.34370 0.00200
C 	C 	0.45110 0.72350 0.28970 -0.14400
H 	H 	0.45700 0.68860 0.26740 0.08600
C 	C 	0.47990 0.77110 0.27530 0.06800
C 	C 	0.47220 0.82030 0.31300 -0.13600
H 	H 	0.49260 0.85400 0.30700 0.08500
C 	C 	0.43400 0.82020 0.36000 0.08700
H 	H 	0.42890 0.85430 0.38440 0.01500
C 	C 	0.40804 0.67050 0.59610 0.08800
H 	H 	0.40510 0.66060 0.54610 0.00100
C 	C 	0.46433 0.66910 0.64740 -0.13700
H 	H 	0.49840 0.65960 0.63140 0.08600
C 	C 	0.47016 0.68166 0.72250 0.06500
C 	C 	0.41811 0.69640 0.74090 -0.14300
H 	H 	0.41960 0.70520 0.79080 0.10000
C 	C 	0.36387 0.69840 0.68720 0.09200
H 	H 	0.32950 0.70950 0.70170 0.00500
Cu	Cu	0.85093 0.27831 0.44209 0.92900
Cu	Cu	0.77939 0.19599 0.53921 0.91500
N 	N 	0.69091 0.12986 0.18577 -0.21400
N 	N 	0.59313 0.12255 0.10714 -0.21100
N 	N 	0.65490 0.04067 0.13408 -0.21000
N 	N 	0.90393 0.27256 0.37204 -0.21300
N 	N 	0.85791 0.18526 0.61500 -0.22800
O 	O 	0.74911 0.05005 0.21113 -0.24700
O 	O 	0.55826 0.03489 0.05806 -0.23400
O 	O 	0.62787 0.20745 0.16311 -0.25300
O 	O 	0.78193 0.24431 0.36390 -0.43300
O 	O 	0.81381 0.16631 0.43195 -0.38800
O 	O 	0.42438 0.19890 0.01953 -0.41400
O 	O 	0.38566 0.16015 0.10741 -0.34100
O 	O 	0.68066 0.86543 0.09694 -0.40700
O 	O 	0.75531 0.88403 0.04554 -0.43100
O 	O 	0.69906 0.22406 0.48474 -0.63200
H 	H 	0.68130 0.20130 0.43920 0.20400
C 	C 	0.70110 0.07250 0.17880 0.28800
C 	C 	0.59884 0.06429 0.09690 0.27700
C 	C 	0.63681 0.15652 0.15290 0.28900
C 	C 	0.73853 0.16357 0.23900 0.15500
H 	H 	0.77810 0.15110 0.23540 0.00700
H 	H 	0.73400 0.20430 0.22600 0.01500
C 	C 	0.73386 0.15493 0.31920 -0.45600
H 	H 	0.73980 0.11430 0.33240 0.19400
H 	H 	0.69350 0.16570 0.32180 0.18600
C 	C 	0.77983 0.19024 0.37510 0.41300
C 	C 	0.53426 0.14983 0.06900 0.14700
H 	H 	0.54090 0.19000 0.05810 0.01600
H 	H 	0.51680 0.13030 0.02150 0.01600
C 	C 	0.49061 0.14670 0.11790 -0.44000
H 	H 	0.48680 0.10670 0.13200 0.18100
H 	H 	0.50720 0.16850 0.16390 0.17600
C 	C 	0.42824 0.17007 0.07920 0.44700
C 	C 	0.66319 0.97785 0.12830 0.15800
H 	H 	0.68430 0.96270 0.17750 0.01100
H 	H 	0.62380 0.95930 0.11270 0.01300
C 	C 	0.69907 0.96338 0.07200 -0.46600
H 	H 	0.67630 0.97530 0.02190 0.18800
H 	H 	0.73700 0.98460 0.08500 0.19700
C 	C 	0.71207 0.89898 0.07200 0.47800
C 	C 	0.91310 0.22520 0.33670 0.09800
H 	H 	0.89310 0.19150 0.34370 0.00200
C 	C 	0.95110 0.22350 0.28970 -0.14500
H 	H 	0.95700 0.18860 0.26740 0.08600
C 	C 	0.97990 0.27110 0.27530 0.07000
C 	C 	0.97220 0.32030 0.31300 -0.13700
H 	H 	0.99260 0.35400 0.30700 0.08500
C 	C 	0.93400 0.32020 0.36000 0.08800
H 	H 	0.92890 0.35430 0.38440 0.01500
C 	C 	0.90804 0.17050 0.59610 0.08800
H 	H 	0.90510 0.16060 0.54610 0.00100
C 	C 	0.96433 0.16910 0.64740 -0.13700
H 	H 	0.99840 0.15960 0.63140 0.08600
C 	C 	0.97016 0.18166 0.72250 0.06400
C 	C 	0.91811 0.19640 0.74090 -0.14200
H 	H 	0.91960 0.20520 0.79080 0.09900
C 	C 	0.86387 0.19840 0.68720 0.09100
H 	H 	0.82950 0.20950 0.70170 0.00600
Cu	Cu	0.64907 0.77832 0.05791 0.92800
Cu	Cu	0.72061 0.69599 0.96079 0.91500
N 	N 	0.80909 0.62986 0.31423 -0.21400
N 	N 	0.90687 0.62255 0.39286 -0.21100
N 	N 	0.84510 0.54067 0.36592 -0.21000
N 	N 	0.59607 0.77256 0.12796 -0.21300
N 	N 	0.64209 0.68526 0.88500 -0.22800
O 	O 	0.75089 0.55005 0.28887 -0.24800
O 	O 	0.94174 0.53489 0.44194 -0.23500
O 	O 	0.87213 0.70745 0.33689 -0.25300
O 	O 	0.71807 0.74431 0.13610 -0.43300
O 	O 	0.68619 0.66631 0.06805 -0.38800
O 	O 	0.07562 0.69890 0.48047 -0.41400
O 	O 	0.11434 0.66015 0.39259 -0.34100
O 	O 	0.81934 0.36543 0.40306 -0.40700
O 	O 	0.74469 0.38403 0.45446 -0.43100
O 	O 	0.80094 0.72406 0.01526 -0.63200
H 	H 	0.81870 0.70130 0.06080 0.20400
C 	C 	0.79890 0.57250 0.32120 0.28800
C 	C 	0.90116 0.56429 0.40310 0.27700
C 	C 	0.86319 0.65652 0.34710 0.28900
C 	C 	0.76147 0.66357 0.26100 0.15500
H 	H 	0.72190 0.65110 0.26460 0.00700
H 	H 	0.76600 0.70430 0.27400 0.01500
C 	C 	0.76614 0.65493 0.18080 -0.45600
H 	H 	0.76020 0.61430 0.16760 0.19400
H 	H 	0.80650 0.66570 0.17820 0.18700
C 	C 	0.72017 0.69024 0.12490 0.41300
C 	C 	0.96574 0.64983 0.43100 0.14800
H 	H 	0.95910 0.69000 0.44190 0.01500
H 	H 	0.98320 0.63030 0.47850 0.01500
C 	C 	0.00939 0.64670 0.38210 -0.44200
H 	H 	0.01320 0.60670 0.36800 0.18200
H 	H 	0.99280 0.66850 0.33610 0.17700
C 	C 	0.07176 0.67007 0.42080 0.44800
C 	C 	0.83681 0.47785 0.37170 0.15900
H 	H 	0.81570 0.46270 0.32250 0.01100
H 	H 	0.87620 0.45930 0.38730 0.01300
C 	C 	0.80093 0.46338 0.42800 -0.46600
H 	H 	0.82370 0.47530 0.47810 0.18900
H 	H 	0.76300 0.48460 0.41500 0.19700
C 	C 	0.78793 0.39898 0.42800 0.47900
C 	C 	0.58690 0.72520 0.16330 0.09700
H 	H 	0.60690 0.69150 0.15630 0.00200
C 	C 	0.54890 0.72350 0.21030 -0.14400
H 	H 	0.54300 0.68860 0.23260 0.08600
C 	C 	0.52010 0.77110 0.22470 0.06800
C 	C 	0.52780 0.82030 0.18700 -0.13600
H 	H 	0.50740 0.85400 0.19300 0.08500
C 	C 	0.56600 0.82020 0.14000 0.08700
H 	H 	0.57110 0.85430 0.11560 0.01500
C 	C 	0.59196 0.67050 0.90390 0.08800
H 	H 	0.59490 0.66060 0.95390 0.00100
C 	C 	0.53567 0.66910 0.85260 -0.13700
H 	H 	0.50160 0.65960 0.86860 0.08600
C 	C 	0.52984 0.68166 0.77750 0.06500
C 	C 	0.58189 0.69640 0.75910 -0.14300
H 	H 	0.58040 0.70520 0.70920 0.10000
C 	C 	0.63613 0.69840 0.81280 0.09200
H 	H 	0.67050 0.70950 0.79830 0.00500
Cu	Cu	0.14907 0.27831 0.05791 0.92800
Cu	Cu	0.22061 0.19599 0.96079 0.91500
N 	N 	0.30909 0.12986 0.31423 -0.21400
N 	N 	0.40687 0.12255 0.39286 -0.21100
N 	N 	0.34510 0.04067 0.36592 -0.21000
N 	N 	0.09607 0.27256 0.12796 -0.21300
N 	N 	0.14209 0.18526 0.88500 -0.22800
O 	O 	0.25089 0.05005 0.28887 -0.24800
O 	O 	0.44174 0.03489 0.44194 -0.23500
O 	O 	0.37213 0.20745 0.33689 -0.25300
O 	O 	0.21807 0.24431 0.13610 -0.43300
O 	O 	0.18619 0.16631 0.06805 -0.38800
O 	O 	0.57562 0.19890 0.48047 -0.41400
O 	O 	0.61434 0.16015 0.39259 -0.34100
O 	O 	0.31934 0.86543 0.40306 -0.40700
O 	O 	0.24469 0.88403 0.45446 -0.43100
O 	O 	0.30094 0.22406 0.01526 -0.63200
H 	H 	0.31870 0.20130 0.06080 0.20400
C 	C 	0.29890 0.07250 0.32120 0.28800
C 	C 	0.40116 0.06429 0.40310 0.27700
C 	C 	0.36319 0.15652 0.34710 0.28900
C 	C 	0.26147 0.16357 0.26100 0.15500
H 	H 	0.22190 0.15110 0.26460 0.00700
H 	H 	0.26600 0.20430 0.27400 0.01500
C 	C 	0.26614 0.15493 0.18080 -0.45600
H 	H 	0.26020 0.11430 0.16760 0.19400
H 	H 	0.30650 0.16570 0.17820 0.18700
C 	C 	0.22017 0.19024 0.12490 0.41300
C 	C 	0.46574 0.14983 0.43100 0.14700
H 	H 	0.45910 0.19000 0.44190 0.01600
H 	H 	0.48320 0.13030 0.47850 0.01500
C 	C 	0.50939 0.14670 0.38210 -0.44000
H 	H 	0.51320 0.10670 0.36800 0.18100
H 	H 	0.49280 0.16850 0.33610 0.17600
C 	C 	0.57176 0.17007 0.42080 0.44800
C 	C 	0.33681 0.97785 0.37170 0.15800
H 	H 	0.31570 0.96270 0.32250 0.01100
H 	H 	0.37620 0.95930 0.38730 0.01300
C 	C 	0.30093 0.96338 0.42800 -0.46600
H 	H 	0.32370 0.97530 0.47810 0.18900
H 	H 	0.26300 0.98460 0.41500 0.19700
C 	C 	0.28793 0.89898 0.42800 0.47800
C 	C 	0.08690 0.22520 0.16330 0.09600
H 	H 	0.10690 0.19150 0.15630 0.00200
C 	C 	0.04890 0.22350 0.21030 -0.14300
H 	H 	0.04300 0.18860 0.23260 0.08500
C 	C 	0.02010 0.27110 0.22470 0.06700
C 	C 	0.02780 0.32030 0.18700 -0.13500
H 	H 	0.00740 0.35400 0.19300 0.08400
C 	C 	0.06600 0.32020 0.14000 0.08700
H 	H 	0.07110 0.35430 0.11560 0.01500
C 	C 	0.09196 0.17050 0.90390 0.08800
H 	H 	0.09490 0.16060 0.95390 0.00100
C 	C 	0.03567 0.16910 0.85260 -0.13800
H 	H 	0.00160 0.15960 0.86860 0.08700
C 	C 	0.02984 0.18166 0.77750 0.06600
C 	C 	0.08189 0.19640 0.75910 -0.14400
H 	H 	0.08040 0.20520 0.70920 0.10000
C 	C 	0.13613 0.19840 0.81280 0.09200
H 	H 	0.17050 0.20950 0.79830 0.00500
