data_crystal

_cell_length_a 31.92040
_cell_length_b 8.37590
_cell_length_c 15.78940
_cell_angle_alpha 90.00000
_cell_angle_beta  97.06200
_cell_angle_gamma 90.00000

_symmetry_space_group_name_	'P 1'
_symmetry_space_group_name_H-M	'P 1'

loop_
_symmetry_equiv_pos_as_xyz
  x,y,z

loop_
_atom_site_label
_atom_site_type_symbol
_atom_site_fract_x
_atom_site_fract_y
_atom_site_fract_z
_atom_site_charge
Zn	Zn	0.49334 0.75773 0.01305 1.23600
Zn	Zn	0.99086 0.76038 0.51140 1.23300
Zn	Zn	0.25491 0.52414 0.63152 1.24000
Zn	Zn	0.25168 0.50097 0.89113 1.24000
Zn	Zn	0.12716 0.70910 0.59003 1.24300
Zn	Zn	0.37176 0.27946 0.93842 1.24100
P 	P 	0.21759 0.83850 0.55380 0.56200
P 	P 	0.05745 0.98110 0.62731 0.54600
P 	P 	0.56253 0.97870 0.10912 0.57800
P 	P 	0.06318 0.54200 0.43905 0.59400
P 	P 	0.44334 0.44760 0.07850 0.54300
P 	P 	0.17671 0.47120 0.72547 0.53400
P 	P 	0.28112 0.21280 0.00601 0.52800
P 	P 	0.33093 0.52950 0.79394 0.53600
O 	O 	0.24242 0.84570 0.47830 -0.43200
O 	O 	0.15100 0.32010 0.74500 -0.17900
O 	O 	0.02784 0.66480 0.43680 -0.46800
O 	O 	0.45933 0.62100 0.07890 -0.40100
O 	O 	0.27014 0.30730 0.08350 -0.30500
O 	O 	0.56010 0.06770 0.19610 -0.43000
H 	H 	0.56690 0.00630 0.23580 0.31900
O 	O 	0.24295 0.75160 0.62830 -0.43100
O 	O 	0.36505 0.65330 0.78490 -0.19200
O 	O 	0.20941 0.01160 0.58540 -0.44400
H 	H 	0.23060 0.06620 0.58340 0.31100
O 	O 	0.25735 0.27940 0.92300 -0.43700
O 	O 	0.41378 0.42010 0.99620 -0.46200
O 	O 	0.04533 0.37300 0.42720 -0.42500
O 	O 	0.48190 0.33560 0.08100 -0.43500
O 	O 	0.20316 0.41900 0.65580 -0.43100
O 	O 	0.32884 0.22100 0.00670 -0.43300
O 	O 	0.35156 0.37360 0.82900 -0.42000
O 	O 	0.20403 0.52820 0.80580 -0.43800
O 	O 	0.05787 0.04190 0.72010 -0.22300
O 	O 	0.09411 0.55330 0.51940 -0.44800
O 	O 	0.30527 0.48800 0.70880 -0.43100
O 	O 	0.14609 0.60700 0.69800 -0.41200
O 	O 	0.60845 0.92760 0.10400 -0.39500
O 	O 	0.26845 0.03800 0.01730 -0.37300
O 	O 	0.53419 0.83300 0.10580 -0.46500
O 	O 	0.54932 0.09840 0.03950 -0.45100
O 	O 	0.10011 0.90710 0.61590 -0.42100
O 	O 	0.02106 0.86090 0.61120 -0.45500
O 	O 	0.30212 0.59810 0.85700 -0.43500
O 	O 	0.17452 0.75960 0.52770 -0.42300
O 	O 	0.08694 0.57670 0.36040 -0.44700
H 	H 	0.07470 0.53220 0.31810 0.33200
O 	O 	0.05000 0.12590 0.56820 -0.42500
O 	O 	0.42136 0.42430 0.15790 -0.23500
Zn	Zn	0.50666 0.25773 0.48695 1.23600
Zn	Zn	0.00914 0.26038 0.98860 1.23100
Zn	Zn	0.74509 0.02414 0.86848 1.23000
Zn	Zn	0.74832 0.00097 0.60887 1.23500
Zn	Zn	0.87284 0.20910 0.90997 1.24200
Zn	Zn	0.62824 0.77946 0.56158 1.24000
P 	P 	0.78241 0.33850 0.94620 0.56900
P 	P 	0.94255 0.48110 0.87269 0.55000
P 	P 	0.43747 0.47870 0.39088 0.57700
P 	P 	0.93682 0.04200 0.06095 0.59600
P 	P 	0.55666 0.94760 0.42150 0.54400
P 	P 	0.82329 0.97120 0.77453 0.55800
P 	P 	0.71888 0.71280 0.49399 0.52600
P 	P 	0.66907 0.02950 0.70606 0.51300
O 	O 	0.75758 0.34570 0.02170 -0.43100
O 	O 	0.84900 0.82010 0.75500 -0.18000
O 	O 	0.97216 0.16480 0.06320 -0.46600
O 	O 	0.54067 0.12100 0.42110 -0.40200
O 	O 	0.72986 0.80730 0.41650 -0.30300
O 	O 	0.43990 0.56770 0.30390 -0.43100
H 	H 	0.43310 0.50630 0.26420 0.32100
O 	O 	0.75705 0.25160 0.87170 -0.43300
O 	O 	0.63495 0.15330 0.71510 -0.19100
O 	O 	0.79059 0.51160 0.91460 -0.45600
H 	H 	0.76940 0.56620 0.91660 0.31300
O 	O 	0.74265 0.77940 0.57700 -0.43100
O 	O 	0.58622 0.92010 0.50380 -0.45800
O 	O 	0.95467 0.87300 0.07280 -0.42600
O 	O 	0.51810 0.83560 0.41900 -0.43700
O 	O 	0.79684 0.91900 0.84420 -0.42600
O 	O 	0.67116 0.72100 0.49330 -0.43400
O 	O 	0.64844 0.87360 0.67100 -0.40900
O 	O 	0.79597 0.02820 0.69420 -0.45300
O 	O 	0.94213 0.54190 0.77990 -0.22600
O 	O 	0.90589 0.05330 0.98060 -0.45500
O 	O 	0.69473 0.98800 0.79120 -0.41200
O 	O 	0.85391 0.10700 0.80200 -0.42400
O 	O 	0.39155 0.42760 0.39600 -0.39700
O 	O 	0.73155 0.53800 0.48270 -0.38400
O 	O 	0.46581 0.33300 0.39420 -0.46400
O 	O 	0.45068 0.59840 0.46050 -0.45200
O 	O 	0.89989 0.40710 0.88410 -0.41700
O 	O 	0.97894 0.36090 0.88880 -0.45500
O 	O 	0.69788 0.09810 0.64300 -0.43500
O 	O 	0.82548 0.25960 0.97230 -0.42500
O 	O 	0.91306 0.07670 0.13960 -0.44800
H 	H 	0.92530 0.03220 0.18190 0.33000
O 	O 	0.95000 0.62590 0.93180 -0.42600
O 	O 	0.57864 0.92430 0.34210 -0.23300
Zn	Zn	0.50666 0.24227 0.98695 1.23500
Zn	Zn	0.00914 0.23962 0.48860 1.23200
Zn	Zn	0.74509 0.47586 0.36848 1.23900
Zn	Zn	0.74832 0.49903 0.10887 1.23900
Zn	Zn	0.87284 0.29090 0.40997 1.24200
Zn	Zn	0.62824 0.72054 0.06158 1.24000
P 	P 	0.78241 0.16150 0.44620 0.56100
P 	P 	0.94255 0.01890 0.37269 0.54500
P 	P 	0.43747 0.02130 0.89088 0.57700
P 	P 	0.93682 0.45800 0.56095 0.59300
P 	P 	0.55666 0.55240 0.92150 0.54300
P 	P 	0.82329 0.52880 0.27453 0.53400
P 	P 	0.71888 0.78720 0.99399 0.52800
P 	P 	0.66907 0.47050 0.20606 0.53600
O 	O 	0.75758 0.15430 0.52170 -0.43200
O 	O 	0.84900 0.67990 0.25500 -0.17900
O 	O 	0.97216 0.33520 0.56320 -0.46800
O 	O 	0.54067 0.37900 0.92110 -0.40100
O 	O 	0.72986 0.69270 0.91650 -0.30500
O 	O 	0.43990 0.93230 0.80390 -0.43000
H 	H 	0.43310 0.99370 0.76420 0.31900
O 	O 	0.75705 0.24840 0.37170 -0.43100
O 	O 	0.63495 0.34670 0.21510 -0.19200
O 	O 	0.79059 0.98840 0.41460 -0.44400
H 	H 	0.76940 0.93380 0.41660 0.31100
O 	O 	0.74265 0.72060 0.07700 -0.43700
O 	O 	0.58622 0.57990 0.00380 -0.46200
O 	O 	0.95467 0.62700 0.57280 -0.42500
O 	O 	0.51810 0.66440 0.91900 -0.43500
O 	O 	0.79684 0.58100 0.34420 -0.43100
O 	O 	0.67116 0.77900 0.99330 -0.43300
O 	O 	0.64844 0.62640 0.17100 -0.42000
O 	O 	0.79597 0.47180 0.19420 -0.43800
O 	O 	0.94213 0.95810 0.27990 -0.22300
O 	O 	0.90589 0.44670 0.48060 -0.44800
O 	O 	0.69473 0.51200 0.29120 -0.43100
O 	O 	0.85391 0.39300 0.30200 -0.41200
O 	O 	0.39155 0.07240 0.89600 -0.39500
O 	O 	0.73155 0.96200 0.98270 -0.37300
O 	O 	0.46581 0.16700 0.89420 -0.46500
O 	O 	0.45068 0.90160 0.96050 -0.45100
O 	O 	0.89989 0.09290 0.38410 -0.42100
O 	O 	0.97894 0.13910 0.38880 -0.45500
O 	O 	0.69788 0.40190 0.14300 -0.43500
O 	O 	0.82548 0.24040 0.47230 -0.42300
O 	O 	0.91306 0.42330 0.63960 -0.44700
H 	H 	0.92530 0.46780 0.68190 0.33200
O 	O 	0.95000 0.87410 0.43180 -0.42500
O 	O 	0.57864 0.57570 0.84210 -0.23500
Zn	Zn	0.49334 0.74227 0.51305 1.23600
Zn	Zn	0.99086 0.73962 0.01140 1.23100
Zn	Zn	0.25491 0.97586 0.13152 1.23000
Zn	Zn	0.25168 0.99903 0.39113 1.23500
Zn	Zn	0.12716 0.79090 0.09003 1.24200
Zn	Zn	0.37176 0.22054 0.43842 1.24000
P 	P 	0.21759 0.66150 0.05380 0.56900
P 	P 	0.05745 0.51890 0.12731 0.55000
P 	P 	0.56253 0.52130 0.60912 0.57700
P 	P 	0.06318 0.95800 0.93905 0.59600
P 	P 	0.44334 0.05240 0.57850 0.54400
P 	P 	0.17671 0.02880 0.22547 0.55800
P 	P 	0.28112 0.28720 0.50601 0.52600
P 	P 	0.33093 0.97050 0.29394 0.51300
O 	O 	0.24242 0.65430 0.97830 -0.43100
O 	O 	0.15100 0.17990 0.24500 -0.18000
O 	O 	0.02784 0.83520 0.93680 -0.46600
O 	O 	0.45933 0.87900 0.57890 -0.40200
O 	O 	0.27014 0.19270 0.58350 -0.30300
O 	O 	0.56010 0.43230 0.69610 -0.43100
H 	H 	0.56690 0.49370 0.73580 0.32100
O 	O 	0.24295 0.74840 0.12830 -0.43300
O 	O 	0.36505 0.84670 0.28490 -0.19100
O 	O 	0.20941 0.48840 0.08540 -0.45600
H 	H 	0.23060 0.43380 0.08340 0.31300
O 	O 	0.25735 0.22060 0.42300 -0.43100
O 	O 	0.41378 0.07990 0.49620 -0.45800
O 	O 	0.04533 0.12700 0.92720 -0.42600
O 	O 	0.48190 0.16440 0.58100 -0.43700
O 	O 	0.20316 0.08100 0.15580 -0.42600
O 	O 	0.32884 0.27900 0.50670 -0.43400
O 	O 	0.35156 0.12640 0.32900 -0.40900
O 	O 	0.20403 0.97180 0.30580 -0.45300
O 	O 	0.05787 0.45810 0.22010 -0.22600
O 	O 	0.09411 0.94670 0.01940 -0.45500
O 	O 	0.30527 0.01200 0.20880 -0.41200
O 	O 	0.14609 0.89300 0.19800 -0.42400
O 	O 	0.60845 0.57240 0.60400 -0.39700
O 	O 	0.26845 0.46200 0.51730 -0.38400
O 	O 	0.53419 0.66700 0.60580 -0.46400
O 	O 	0.54932 0.40160 0.53950 -0.45200
O 	O 	0.10011 0.59290 0.11590 -0.41700
O 	O 	0.02106 0.63910 0.11120 -0.45500
O 	O 	0.30212 0.90190 0.35700 -0.43500
O 	O 	0.17452 0.74040 0.02770 -0.42500
O 	O 	0.08694 0.92330 0.86040 -0.44800
H 	H 	0.07470 0.96780 0.81810 0.33000
O 	O 	0.05000 0.37410 0.06820 -0.42600
O 	O 	0.42136 0.07570 0.65790 -0.23300
