data_crystal

_cell_length_a 10.41500
_cell_length_b 10.22600
_cell_length_c 8.71980
_cell_angle_alpha 90.00000
_cell_angle_beta  109.45000
_cell_angle_gamma 90.00000

_symmetry_space_group_name_	'P 1'
_symmetry_space_group_name_H-M	'P 1'

loop_
_symmetry_equiv_pos_as_xyz
  x,y,z

loop_
_atom_site_label
_atom_site_type_symbol
_atom_site_fract_x
_atom_site_fract_y
_atom_site_fract_z
_atom_site_charge
O 	O 	0.70210 0.08170 0.27440 -0.33200
O 	O 	0.57550 0.09780 0.49330 -0.45400
C 	C 	0.77100 0.12990 0.41020 0.20300
C 	C 	0.69530 0.14300 0.53570 0.25000
O 	O 	0.89220 0.16600 0.45450 -0.22100
O 	O 	0.75450 0.19400 0.66980 -0.36700
O 	O 	0.11170 0.36730 0.56460 -0.34900
O 	O 	0.87950 0.46140 0.59210 -0.30300
C 	C 	0.06790 0.47290 0.49230 0.03000
O 	O 	0.29790 0.08170 0.22560 -0.38200
O 	O 	0.42450 0.09780 0.00670 -0.43800
C 	C 	0.22900 0.12990 0.08980 0.23000
C 	C 	0.30470 0.14300 0.96430 0.20500
O 	O 	0.10780 0.16600 0.04550 -0.41100
O 	O 	0.24550 0.19400 0.83020 -0.42800
O 	O 	0.88830 0.36730 0.93540 -0.29700
O 	O 	0.12050 0.46140 0.90790 -0.33300
C 	C 	0.93210 0.47290 0.00770 0.44500
O 	O 	0.29790 0.91830 0.72560 -0.37800
O 	O 	0.42450 0.90220 0.50670 -0.45200
C 	C 	0.22900 0.87010 0.58980 0.21600
C 	C 	0.30470 0.85700 0.46430 0.23000
O 	O 	0.10780 0.83400 0.54550 -0.41300
O 	O 	0.24550 0.80600 0.33020 -0.43300
O 	O 	0.88830 0.63270 0.43540 -0.30000
O 	O 	0.12050 0.53860 0.40790 -0.33100
C 	C 	0.93210 0.52710 0.50770 0.45300
O 	O 	0.70210 0.91830 0.77440 -0.33600
O 	O 	0.57550 0.90220 0.99330 -0.44000
C 	C 	0.77100 0.87010 0.91020 0.21800
C 	C 	0.69530 0.85700 0.03570 0.22200
O 	O 	0.89220 0.83400 0.95450 -0.22300
O 	O 	0.75450 0.80600 0.16980 -0.36300
O 	O 	0.11170 0.63270 0.06460 -0.34800
O 	O 	0.87950 0.53860 0.09210 -0.30600
C 	C 	0.06790 0.52710 0.99230 0.03200
La	La	0.50000 0.93196 0.25000 1.54600
La	La	0.50000 0.06804 0.75000 1.54600
La	La	-0.00000 0.26379 0.75000 1.40200
La	La	-0.00000 0.73621 0.25000 1.41000
