data_crystal

_cell_length_a 14.90800
_cell_length_b 15.34500
_cell_length_c 27.75300
_cell_angle_alpha 90.00000
_cell_angle_beta  90.42400
_cell_angle_gamma 90.00000

_symmetry_space_group_name_	'P 1'
_symmetry_space_group_name_H-M	'P 1'

loop_
_symmetry_equiv_pos_as_xyz
  x,y,z

loop_
_atom_site_label
_atom_site_type_symbol
_atom_site_fract_x
_atom_site_fract_y
_atom_site_fract_z
_atom_site_charge
C 	C 	0.16360 0.04770 0.39804 0.09100
C 	C 	0.13780 0.00210 0.35530 -0.07300
H 	H 	0.09550 0.02260 0.33220 0.05900
C 	C 	0.18100 0.92750 0.35255 -0.08700
H 	H 	0.17630 0.88550 0.32750 0.06200
C 	C 	0.23620 0.92240 0.39435 0.10600
C 	C 	0.28850 0.85200 0.40716 -0.16500
C 	C 	0.33750 0.84630 0.44906 0.09600
C 	C 	0.38540 0.77070 0.46490 -0.07600
H 	H 	0.39210 0.71790 0.44740 0.05700
C 	C 	0.41950 0.78780 0.50911 -0.09100
H 	H 	0.45330 0.74840 0.52840 0.06400
C 	C 	0.39650 0.87420 0.52193 0.10700
C 	C 	0.42240 0.91430 0.56214 -0.16400
C 	C 	0.40590 0.00530 0.57172 0.08700
C 	C 	0.43930 0.05170 0.61251 -0.07900
H 	H 	0.47390 0.02810 0.63820 0.05800
C 	C 	0.41290 0.13490 0.60798 -0.08300
H 	H 	0.42670 0.18140 0.62940 0.06000
C 	C 	0.35900 0.14050 0.56404 0.10600
C 	C 	0.31530 0.21370 0.54897 -0.16500
C 	C 	0.25680 0.21570 0.51030 0.10400
C 	C 	0.20510 0.29000 0.49592 -0.08700
H 	H 	0.20710 0.34640 0.51010 0.06300
C 	C 	0.15370 0.26530 0.45900 -0.07300
H 	H 	0.11150 0.30120 0.44250 0.05800
C 	C 	0.17220 0.17550 0.44803 0.09000
C 	C 	0.13650 0.13050 0.40997 -0.15500
C 	C 	0.31190 0.62560 0.31697 -0.15800
C 	C 	0.23750 0.63850 0.34560 0.09800
H 	H 	0.19090 0.59630 0.34590 0.01200
C 	C 	0.23100 0.71210 0.37330 -0.19100
H 	H 	0.18000 0.71940 0.39330 0.09100
C 	C 	0.29540 0.77490 0.37316 0.15700
C 	C 	0.36610 0.76320 0.34386 -0.19700
H 	H 	0.41060 0.80740 0.34220 0.09700
C 	C 	0.37580 0.69000 0.31645 0.10300
H 	H 	0.42730 0.68360 0.29680 0.01000
C 	C 	0.32470 0.54250 0.28895 0.37600
C 	C 	0.57470 0.76660 0.66403 -0.15500
C 	C 	0.48290 0.76410 0.66471 0.10000
H 	H 	0.45310 0.72870 0.68760 0.00100
C 	C 	0.43350 0.81270 0.63239 -0.17900
H 	H 	0.36980 0.81030 0.63340 0.09900
C 	C 	0.47410 0.86440 0.59893 0.13100
C 	C 	0.56700 0.86830 0.60030 -0.14800
H 	H 	0.59680 0.90630 0.57870 0.03600
C 	C 	0.61730 0.81950 0.63169 0.07400
H 	H 	0.68090 0.82230 0.63110 0.01800
C 	C 	0.63010 0.71160 0.69744 0.36100
C 	C 	0.35580 0.44460 0.63617 -0.17100
C 	C 	0.42390 0.41200 0.60880 0.09600
H 	H 	0.48110 0.43940 0.60920 0.01200
C 	C 	0.40910 0.33700 0.57972 -0.18100
H 	H 	0.45690 0.31550 0.56060 0.09300
C 	C 	0.32910 0.29520 0.57846 0.14800
C 	C 	0.26090 0.33040 0.60610 -0.18500
H 	H 	0.20370 0.30310 0.60610 0.09000
C 	C 	0.27460 0.40410 0.63355 0.10500
H 	H 	0.22580 0.42740 0.65120 0.01000
C 	C 	0.36930 0.52070 0.66825 0.40100
C 	C 	0.92500 0.24660 0.32631 -0.11700
C 	C 	0.01410 0.26910 0.31938 0.06400
H 	H 	0.02850 0.31120 0.29550 0.03600
C 	C 	0.08250 0.23210 0.34613 -0.16400
H 	H 	0.14290 0.24880 0.34030 0.10500
C 	C 	0.06440 0.17130 0.38104 0.13000
C 	C 	0.97610 0.14750 0.38793 -0.15600
H 	H 	0.96260 0.10460 0.41150 0.06000
C 	C 	0.90610 0.18460 0.36128 0.05500
H 	H 	0.84590 0.16760 0.36700 0.01400
C 	C 	0.85080 0.28920 0.29936 0.30800
Fe	Fe	0.73142 0.62197 0.75524 1.19300
Mn	Mn	0.27614 0.02189 0.48830 1.24100
N 	N 	0.22660 0.99690 0.42180 -0.29900
N 	N 	0.34510 0.91000 0.48522 -0.30200
N 	N 	0.35560 0.06010 0.54241 -0.30300
N 	N 	0.23650 0.14520 0.48083 -0.30300
O 	O 	0.39950 0.53305 0.26897 -0.42400
O 	O 	0.25850 0.48960 0.28633 -0.41400
O 	O 	0.59384 0.66434 0.73004 -0.48800
O 	O 	0.71360 0.71240 0.69435 -0.38800
O 	O 	0.44750 0.54480 0.67727 -0.41300
O 	O 	0.29880 0.55600 0.68396 -0.43900
O 	O 	0.86955 0.35550 0.27235 -0.36300
O 	O 	0.77290 0.26190 0.30287 -0.35300
C 	C 	0.83640 0.04770 0.10196 0.08800
C 	C 	0.86220 0.00210 0.14470 -0.07600
H 	H 	0.90450 0.02260 0.16780 0.05900
C 	C 	0.81900 0.92750 0.14745 -0.08600
H 	H 	0.82370 0.88550 0.17250 0.06100
C 	C 	0.76380 0.92240 0.10565 0.10500
C 	C 	0.71150 0.85200 0.09284 -0.16400
C 	C 	0.66250 0.84630 0.05094 0.09500
C 	C 	0.61460 0.77070 0.03510 -0.07300
H 	H 	0.60790 0.71790 0.05260 0.05600
C 	C 	0.58050 0.78780 0.99089 -0.09300
H 	H 	0.54670 0.74840 0.97160 0.06500
C 	C 	0.60350 0.87420 0.97807 0.10700
C 	C 	0.57760 0.91430 0.93786 -0.16600
C 	C 	0.59410 0.00530 0.92828 0.08900
C 	C 	0.56070 0.05170 0.88749 -0.08000
H 	H 	0.52610 0.02810 0.86180 0.05900
C 	C 	0.58710 0.13490 0.89202 -0.08300
H 	H 	0.57330 0.18140 0.87060 0.06000
C 	C 	0.64100 0.14050 0.93596 0.10700
C 	C 	0.68470 0.21370 0.95103 -0.16600
C 	C 	0.74320 0.21570 0.98970 0.10800
C 	C 	0.79490 0.29000 0.00408 -0.09200
H 	H 	0.79290 0.34640 0.98990 0.06500
C 	C 	0.84630 0.26530 0.04100 -0.07000
H 	H 	0.88850 0.30120 0.05750 0.05700
C 	C 	0.82780 0.17550 0.05197 0.08800
C 	C 	0.86350 0.13050 0.09003 -0.15400
C 	C 	0.68810 0.62560 0.18303 -0.15800
C 	C 	0.76250 0.63850 0.15440 0.09800
H 	H 	0.80910 0.59630 0.15410 0.01200
C 	C 	0.76900 0.71210 0.12670 -0.19100
H 	H 	0.82000 0.71940 0.10670 0.09100
C 	C 	0.70460 0.77490 0.12684 0.15700
C 	C 	0.63390 0.76320 0.15614 -0.19600
H 	H 	0.58940 0.80740 0.15780 0.09700
C 	C 	0.62420 0.69000 0.18355 0.10300
H 	H 	0.57270 0.68360 0.20320 0.01000
C 	C 	0.67530 0.54250 0.21105 0.37600
C 	C 	0.42530 0.76660 0.83597 -0.15500
C 	C 	0.51710 0.76410 0.83529 0.10000
H 	H 	0.54690 0.72870 0.81240 0.00100
C 	C 	0.56650 0.81270 0.86761 -0.17900
H 	H 	0.63020 0.81030 0.86660 0.09900
C 	C 	0.52590 0.86440 0.90107 0.13200
C 	C 	0.43300 0.86830 0.89970 -0.14800
H 	H 	0.40320 0.90630 0.92130 0.03600
C 	C 	0.38270 0.81950 0.86831 0.07400
H 	H 	0.31910 0.82230 0.86890 0.01800
C 	C 	0.36990 0.71160 0.80256 0.36100
C 	C 	0.64420 0.44460 0.86383 -0.17100
C 	C 	0.57610 0.41200 0.89120 0.09600
H 	H 	0.51890 0.43940 0.89080 0.01200
C 	C 	0.59090 0.33700 0.92028 -0.18200
H 	H 	0.54310 0.31550 0.93940 0.09300
C 	C 	0.67090 0.29520 0.92154 0.14900
C 	C 	0.73910 0.33040 0.89390 -0.18600
H 	H 	0.79630 0.30310 0.89390 0.09000
C 	C 	0.72540 0.40410 0.86645 0.10500
H 	H 	0.77420 0.42740 0.84880 0.01000
C 	C 	0.63070 0.52070 0.83175 0.40100
C 	C 	0.07500 0.24660 0.17369 -0.11600
C 	C 	0.98590 0.26910 0.18062 0.06300
H 	H 	0.97150 0.31120 0.20450 0.03700
C 	C 	0.91750 0.23210 0.15387 -0.16300
H 	H 	0.85710 0.24880 0.15970 0.10500
C 	C 	0.93560 0.17130 0.11896 0.12900
C 	C 	0.02390 0.14750 0.11207 -0.15500
H 	H 	0.03740 0.10460 0.08850 0.06000
C 	C 	0.09390 0.18460 0.13872 0.05400
H 	H 	0.15410 0.16760 0.13300 0.01500
C 	C 	0.14920 0.28920 0.20064 0.30700
Fe	Fe	0.26858 0.62197 0.74476 1.19300
Mn	Mn	0.72386 0.02189 0.01170 1.24000
N 	N 	0.77340 0.99690 0.07820 -0.29800
N 	N 	0.65490 0.91000 0.01478 -0.30000
N 	N 	0.64440 0.06010 0.95759 -0.30200
N 	N 	0.76350 0.14520 0.01917 -0.30400
O 	O 	0.60050 0.53305 0.23103 -0.42400
O 	O 	0.74150 0.48960 0.21367 -0.41400
O 	O 	0.40616 0.66434 0.76996 -0.48800
O 	O 	0.28640 0.71240 0.80565 -0.38800
O 	O 	0.55250 0.54480 0.82273 -0.41300
O 	O 	0.70120 0.55600 0.81604 -0.43900
O 	O 	0.13045 0.35550 0.22765 -0.36300
O 	O 	0.22710 0.26190 0.19713 -0.35300
C 	C 	0.83640 0.95230 0.60196 0.09000
C 	C 	0.86220 0.99790 0.64470 -0.07400
H 	H 	0.90450 0.97740 0.66780 0.05800
C 	C 	0.81900 0.07250 0.64745 -0.08800
H 	H 	0.82370 0.11450 0.67250 0.06200
C 	C 	0.76380 0.07760 0.60565 0.10600
C 	C 	0.71150 0.14800 0.59284 -0.16500
C 	C 	0.66250 0.15370 0.55094 0.09600
C 	C 	0.61460 0.22930 0.53510 -0.07600
H 	H 	0.60790 0.28210 0.55260 0.05700
C 	C 	0.58050 0.21220 0.49089 -0.09100
H 	H 	0.54670 0.25160 0.47160 0.06400
C 	C 	0.60350 0.12580 0.47807 0.10700
C 	C 	0.57760 0.08570 0.43786 -0.16400
C 	C 	0.59410 0.99470 0.42828 0.08700
C 	C 	0.56070 0.94830 0.38749 -0.07900
H 	H 	0.52610 0.97190 0.36180 0.05800
C 	C 	0.58710 0.86510 0.39202 -0.08300
H 	H 	0.57330 0.81860 0.37060 0.06000
C 	C 	0.64100 0.85950 0.43596 0.10600
C 	C 	0.68470 0.78630 0.45103 -0.16500
C 	C 	0.74320 0.78430 0.48970 0.10400
C 	C 	0.79490 0.71000 0.50408 -0.08700
H 	H 	0.79290 0.65360 0.48990 0.06300
C 	C 	0.84630 0.73470 0.54100 -0.07300
H 	H 	0.88850 0.69880 0.55750 0.05800
C 	C 	0.82780 0.82450 0.55197 0.09000
C 	C 	0.86350 0.86950 0.59003 -0.15500
C 	C 	0.68810 0.37440 0.68303 -0.15800
C 	C 	0.76250 0.36150 0.65440 0.09800
H 	H 	0.80910 0.40370 0.65410 0.01200
C 	C 	0.76900 0.28790 0.62670 -0.19100
H 	H 	0.82000 0.28060 0.60670 0.09100
C 	C 	0.70460 0.22510 0.62684 0.15700
C 	C 	0.63390 0.23680 0.65614 -0.19700
H 	H 	0.58940 0.19260 0.65780 0.09700
C 	C 	0.62420 0.31000 0.68355 0.10300
H 	H 	0.57270 0.31640 0.70320 0.01000
C 	C 	0.67530 0.45750 0.71105 0.37600
C 	C 	0.42530 0.23340 0.33597 -0.15500
C 	C 	0.51710 0.23590 0.33529 0.10000
H 	H 	0.54690 0.27130 0.31240 0.00100
C 	C 	0.56650 0.18730 0.36761 -0.17900
H 	H 	0.63020 0.18970 0.36660 0.09900
C 	C 	0.52590 0.13560 0.40107 0.13100
C 	C 	0.43300 0.13170 0.39970 -0.14800
H 	H 	0.40320 0.09370 0.42130 0.03600
C 	C 	0.38270 0.18050 0.36831 0.07400
H 	H 	0.31910 0.17770 0.36890 0.01800
C 	C 	0.36990 0.28840 0.30256 0.36100
C 	C 	0.64420 0.55540 0.36383 -0.17100
C 	C 	0.57610 0.58800 0.39120 0.09600
H 	H 	0.51890 0.56060 0.39080 0.01200
C 	C 	0.59090 0.66300 0.42028 -0.18100
H 	H 	0.54310 0.68450 0.43940 0.09300
C 	C 	0.67090 0.70480 0.42154 0.14800
C 	C 	0.73910 0.66960 0.39390 -0.18500
H 	H 	0.79630 0.69690 0.39390 0.09000
C 	C 	0.72540 0.59590 0.36645 0.10500
H 	H 	0.77420 0.57260 0.34880 0.01000
C 	C 	0.63070 0.47930 0.33175 0.40100
C 	C 	0.07500 0.75340 0.67369 -0.11700
C 	C 	0.98590 0.73090 0.68062 0.06400
H 	H 	0.97150 0.68880 0.70450 0.03600
C 	C 	0.91750 0.76790 0.65387 -0.16400
H 	H 	0.85710 0.75120 0.65970 0.10500
C 	C 	0.93560 0.82870 0.61896 0.13000
C 	C 	0.02390 0.85250 0.61207 -0.15600
H 	H 	0.03740 0.89540 0.58850 0.06000
C 	C 	0.09390 0.81540 0.63872 0.05500
H 	H 	0.15410 0.83240 0.63300 0.01400
C 	C 	0.14920 0.71080 0.70064 0.30800
Fe	Fe	0.26858 0.37803 0.24476 1.19300
Mn	Mn	0.72386 0.97811 0.51170 1.24100
N 	N 	0.77340 0.00310 0.57820 -0.29900
N 	N 	0.65490 0.09000 0.51478 -0.30200
N 	N 	0.64440 0.93990 0.45759 -0.30300
N 	N 	0.76350 0.85480 0.51917 -0.30300
O 	O 	0.60050 0.46695 0.73103 -0.42400
O 	O 	0.74150 0.51040 0.71367 -0.41400
O 	O 	0.40616 0.33566 0.26996 -0.48800
O 	O 	0.28640 0.28760 0.30565 -0.38800
O 	O 	0.55250 0.45520 0.32273 -0.41300
O 	O 	0.70120 0.44400 0.31604 -0.43900
O 	O 	0.13045 0.64450 0.72765 -0.36300
O 	O 	0.22710 0.73810 0.69713 -0.35300
C 	C 	0.16360 0.95230 0.89804 0.08800
C 	C 	0.13780 0.99790 0.85530 -0.07600
H 	H 	0.09550 0.97740 0.83220 0.05900
C 	C 	0.18100 0.07250 0.85255 -0.08600
H 	H 	0.17630 0.11450 0.82750 0.06100
C 	C 	0.23620 0.07760 0.89435 0.10500
C 	C 	0.28850 0.14800 0.90716 -0.16400
C 	C 	0.33750 0.15370 0.94906 0.09500
C 	C 	0.38540 0.22930 0.96490 -0.07300
H 	H 	0.39210 0.28210 0.94740 0.05600
C 	C 	0.41950 0.21220 0.00911 -0.09300
H 	H 	0.45330 0.25160 0.02840 0.06500
C 	C 	0.39650 0.12580 0.02193 0.10700
C 	C 	0.42240 0.08570 0.06214 -0.16600
C 	C 	0.40590 0.99470 0.07172 0.08900
C 	C 	0.43930 0.94830 0.11251 -0.08000
H 	H 	0.47390 0.97190 0.13820 0.05900
C 	C 	0.41290 0.86510 0.10798 -0.08300
H 	H 	0.42670 0.81860 0.12940 0.06000
C 	C 	0.35900 0.85950 0.06404 0.10700
C 	C 	0.31530 0.78630 0.04897 -0.16600
C 	C 	0.25680 0.78430 0.01030 0.10800
C 	C 	0.20510 0.71000 0.99592 -0.09200
H 	H 	0.20710 0.65360 0.01010 0.06500
C 	C 	0.15370 0.73470 0.95900 -0.07000
H 	H 	0.11150 0.69880 0.94250 0.05700
C 	C 	0.17220 0.82450 0.94803 0.08800
C 	C 	0.13650 0.86950 0.90997 -0.15400
C 	C 	0.31190 0.37440 0.81697 -0.15800
C 	C 	0.23750 0.36150 0.84560 0.09800
H 	H 	0.19090 0.40370 0.84590 0.01200
C 	C 	0.23100 0.28790 0.87330 -0.19100
H 	H 	0.18000 0.28060 0.89330 0.09100
C 	C 	0.29540 0.22510 0.87316 0.15700
C 	C 	0.36610 0.23680 0.84386 -0.19600
H 	H 	0.41060 0.19260 0.84220 0.09700
C 	C 	0.37580 0.31000 0.81645 0.10300
H 	H 	0.42730 0.31640 0.79680 0.01000
C 	C 	0.32470 0.45750 0.78895 0.37600
C 	C 	0.57470 0.23340 0.16403 -0.15500
C 	C 	0.48290 0.23590 0.16471 0.10000
H 	H 	0.45310 0.27130 0.18760 0.00100
C 	C 	0.43350 0.18730 0.13239 -0.17900
H 	H 	0.36980 0.18970 0.13340 0.09900
C 	C 	0.47410 0.13560 0.09893 0.13200
C 	C 	0.56700 0.13170 0.10030 -0.14800
H 	H 	0.59680 0.09370 0.07870 0.03600
C 	C 	0.61730 0.18050 0.13169 0.07400
H 	H 	0.68090 0.17770 0.13110 0.01800
C 	C 	0.63010 0.28840 0.19744 0.36100
C 	C 	0.35580 0.55540 0.13617 -0.17100
C 	C 	0.42390 0.58800 0.10880 0.09600
H 	H 	0.48110 0.56060 0.10920 0.01200
C 	C 	0.40910 0.66300 0.07972 -0.18200
H 	H 	0.45690 0.68450 0.06060 0.09300
C 	C 	0.32910 0.70480 0.07846 0.14900
C 	C 	0.26090 0.66960 0.10610 -0.18600
H 	H 	0.20370 0.69690 0.10610 0.09000
C 	C 	0.27460 0.59590 0.13355 0.10500
H 	H 	0.22580 0.57260 0.15120 0.01000
C 	C 	0.36930 0.47930 0.16825 0.40100
C 	C 	0.92500 0.75340 0.82631 -0.11600
C 	C 	0.01410 0.73090 0.81938 0.06300
H 	H 	0.02850 0.68880 0.79550 0.03700
C 	C 	0.08250 0.76790 0.84613 -0.16300
H 	H 	0.14290 0.75120 0.84030 0.10500
C 	C 	0.06440 0.82870 0.88104 0.12900
C 	C 	0.97610 0.85250 0.88793 -0.15500
H 	H 	0.96260 0.89540 0.91150 0.06000
C 	C 	0.90610 0.81540 0.86128 0.05400
H 	H 	0.84590 0.83240 0.86700 0.01500
C 	C 	0.85080 0.71080 0.79936 0.30700
Fe	Fe	0.73142 0.37803 0.25524 1.19300
Mn	Mn	0.27614 0.97811 0.98830 1.24000
N 	N 	0.22660 0.00310 0.92180 -0.29800
N 	N 	0.34510 0.09000 0.98522 -0.30000
N 	N 	0.35560 0.93990 0.04241 -0.30200
N 	N 	0.23650 0.85480 0.98083 -0.30400
O 	O 	0.39950 0.46695 0.76897 -0.42400
O 	O 	0.25850 0.51040 0.78633 -0.41400
O 	O 	0.59384 0.33566 0.23004 -0.48800
O 	O 	0.71360 0.28760 0.19435 -0.38800
O 	O 	0.44750 0.45520 0.17727 -0.41300
O 	O 	0.29880 0.44400 0.18396 -0.43900
O 	O 	0.86955 0.64450 0.77235 -0.36300
O 	O 	0.77290 0.73810 0.80287 -0.35300
Fe	Fe	0.50000 0.55912 0.75000 1.19400
Fe	Fe	0.50000 0.44088 0.25000 1.19400
