data_crystal

_cell_length_a 10.31800
_cell_length_b 10.98100
_cell_length_c 7.06600
_cell_angle_alpha 90.00000
_cell_angle_beta  90.00000
_cell_angle_gamma 90.00000

_symmetry_space_group_name_	'P 1'
_symmetry_space_group_name_H-M	'P 1'

loop_
_symmetry_equiv_pos_as_xyz
  x,y,z

loop_
_atom_site_label
_atom_site_type_symbol
_atom_site_fract_x
_atom_site_fract_y
_atom_site_fract_z
_atom_site_charge
Cu	Cu	0.90166 0.89151 0.61459 0.80400
S 	S 	0.09606 0.11115 0.69028 0.00700
O 	O 	0.05440 0.23140 0.77750 -0.32500
O 	O 	0.22900 0.09160 0.77990 -0.36300
O 	O 	0.00980 0.01460 0.77280 -0.25000
Cu	Cu	0.59834 0.60849 0.61459 0.80600
S 	S 	0.40394 0.38885 0.69028 0.00700
O 	O 	0.44560 0.26860 0.77750 -0.32400
O 	O 	0.27100 0.40840 0.77990 -0.36200
O 	O 	0.49020 0.48540 0.77280 -0.24800
Cu	Cu	0.59834 0.89151 0.38541 0.79600
S 	S 	0.40394 0.11115 0.30972 0.03200
O 	O 	0.44560 0.23140 0.22250 -0.44100
O 	O 	0.27100 0.09160 0.22010 -0.47800
O 	O 	0.49020 0.01460 0.22720 -0.36400
Cu	Cu	0.90166 0.60849 0.38541 0.79600
S 	S 	0.09606 0.38885 0.30972 0.03200
O 	O 	0.05440 0.26860 0.22250 -0.44000
O 	O 	0.22900 0.40840 0.22010 -0.47900
O 	O 	0.00980 0.48540 0.22720 -0.36400
Cu	Cu	0.09834 0.10849 0.38541 0.79600
S 	S 	0.90394 0.88885 0.30972 0.03200
O 	O 	0.94560 0.76860 0.22250 -0.44000
O 	O 	0.77100 0.90840 0.22010 -0.47800
O 	O 	0.99020 0.98540 0.22720 -0.36400
Cu	Cu	0.40166 0.39151 0.38541 0.79600
S 	S 	0.59606 0.61115 0.30972 0.03200
O 	O 	0.55440 0.73140 0.22250 -0.44100
O 	O 	0.72900 0.59160 0.22010 -0.47900
O 	O 	0.50980 0.51460 0.22720 -0.36500
Cu	Cu	0.40166 0.10849 0.61459 0.80600
S 	S 	0.59606 0.88885 0.69028 0.00700
O 	O 	0.55440 0.76860 0.77750 -0.32400
O 	O 	0.72900 0.90840 0.77990 -0.36300
O 	O 	0.50980 0.98540 0.77280 -0.24900
Cu	Cu	0.09834 0.39151 0.61459 0.80600
S 	S 	0.90394 0.61115 0.69028 0.00700
O 	O 	0.94560 0.73140 0.77750 -0.32500
O 	O 	0.77100 0.59160 0.77990 -0.36300
O 	O 	0.99020 0.51460 0.77280 -0.24900
Cd	Cd	0.25000 0.25000 -0.00000 1.15800
Cd	Cd	0.75000 0.75000 -0.00000 1.15800
