data_crystal

_cell_length_a 20.34400
_cell_length_b 20.34400
_cell_length_c 20.34400
_cell_angle_alpha 90.00000
_cell_angle_beta  90.00000
_cell_angle_gamma 90.00000

_symmetry_space_group_name_	'P 1'
_symmetry_space_group_name_H-M	'P 1'

loop_
_symmetry_equiv_pos_as_xyz
  x,y,z

loop_
_atom_site_label
_atom_site_type_symbol
_atom_site_fract_x
_atom_site_fract_y
_atom_site_fract_z
_atom_site_charge
Mo	Mo	0.71894 0.81258 0.18742 0.79600
N 	N 	0.67840 0.92450 0.07550 -0.19500
C 	C 	0.68770 0.88460 0.11540 -0.13800
Mo	Mo	0.21894 0.31258 0.68742 0.79600
N 	N 	0.17840 0.42450 0.57550 -0.21400
C 	C 	0.18770 0.38460 0.61540 -0.14900
Mo	Mo	0.28106 0.18742 0.18742 0.79700
N 	N 	0.32160 0.07550 0.07550 -0.22900
C 	C 	0.31230 0.11540 0.11540 -0.16100
Mo	Mo	0.78106 0.68742 0.68742 0.79300
N 	N 	0.82160 0.57550 0.57550 -0.20400
C 	C 	0.81230 0.61540 0.61540 -0.13400
Mo	Mo	0.28106 0.81258 0.81258 0.79500
N 	N 	0.32160 0.92450 0.92450 -0.16400
C 	C 	0.31230 0.88460 0.88460 -0.11600
Mo	Mo	0.78106 0.31258 0.31258 0.79500
N 	N 	0.82160 0.42450 0.42450 -0.20400
C 	C 	0.81230 0.38460 0.38460 -0.13400
Mo	Mo	0.71894 0.18742 0.81258 0.79500
N 	N 	0.67840 0.07550 0.92450 -0.19600
C 	C 	0.68770 0.11540 0.88460 -0.13800
Mo	Mo	0.21894 0.68742 0.31258 0.79600
N 	N 	0.17840 0.57550 0.42450 -0.21400
C 	C 	0.18770 0.61540 0.38460 -0.14900
Mo	Mo	0.18742 0.71894 0.81258 0.79500
N 	N 	0.07550 0.67840 0.92450 -0.19600
C 	C 	0.11540 0.68770 0.88460 -0.13800
Mo	Mo	0.68742 0.21894 0.31258 0.79600
N 	N 	0.57550 0.17840 0.42450 -0.21400
C 	C 	0.61540 0.18770 0.38460 -0.14900
Mo	Mo	0.18742 0.28106 0.18742 0.79700
N 	N 	0.07550 0.32160 0.07550 -0.22900
C 	C 	0.11540 0.31230 0.11540 -0.16100
Mo	Mo	0.68742 0.78106 0.68742 0.79300
N 	N 	0.57550 0.82160 0.57550 -0.20400
C 	C 	0.61540 0.81230 0.61540 -0.13400
Mo	Mo	0.81258 0.28106 0.81258 0.79500
N 	N 	0.92450 0.32160 0.92450 -0.16400
C 	C 	0.88460 0.31230 0.88460 -0.11600
Mo	Mo	0.31258 0.78106 0.31258 0.79500
N 	N 	0.42450 0.82160 0.42450 -0.20400
C 	C 	0.38460 0.81230 0.38460 -0.13400
Mo	Mo	0.81258 0.71894 0.18742 0.79500
N 	N 	0.92450 0.67840 0.07550 -0.19600
C 	C 	0.88460 0.68770 0.11540 -0.13800
Mo	Mo	0.31258 0.21894 0.68742 0.79600
N 	N 	0.42450 0.17840 0.57550 -0.21400
C 	C 	0.38460 0.18770 0.61540 -0.14900
Mo	Mo	0.81258 0.18742 0.71894 0.79500
N 	N 	0.92450 0.07550 0.67840 -0.19600
C 	C 	0.88460 0.11540 0.68770 -0.13800
Mo	Mo	0.31258 0.68742 0.21894 0.79600
N 	N 	0.42450 0.57550 0.17840 -0.21400
C 	C 	0.38460 0.61540 0.18770 -0.14900
Mo	Mo	0.18742 0.18742 0.28106 0.79700
N 	N 	0.07550 0.07550 0.32160 -0.22900
C 	C 	0.11540 0.11540 0.31230 -0.16100
Mo	Mo	0.68742 0.68742 0.78106 0.79300
N 	N 	0.57550 0.57550 0.82160 -0.20400
C 	C 	0.61540 0.61540 0.81230 -0.13400
Mo	Mo	0.81258 0.81258 0.28106 0.79500
N 	N 	0.92450 0.92450 0.32160 -0.16400
C 	C 	0.88460 0.88460 0.31230 -0.11600
Mo	Mo	0.31258 0.31258 0.78106 0.79500
N 	N 	0.42450 0.42450 0.82160 -0.20400
C 	C 	0.38460 0.38460 0.81230 -0.13400
Mo	Mo	0.18742 0.81258 0.71894 0.79500
N 	N 	0.07550 0.92450 0.67840 -0.19600
C 	C 	0.11540 0.88460 0.68770 -0.13800
Mo	Mo	0.68742 0.31258 0.21894 0.79600
N 	N 	0.57550 0.42450 0.17840 -0.21400
C 	C 	0.61540 0.38460 0.18770 -0.14900
Mo	Mo	0.81258 0.71894 0.81258 0.79400
N 	N 	0.92450 0.67840 0.92450 -0.16500
C 	C 	0.88460 0.68770 0.88460 -0.11700
Mo	Mo	0.31258 0.21894 0.31258 0.79700
N 	N 	0.42450 0.17840 0.42450 -0.21400
C 	C 	0.38460 0.18770 0.38460 -0.14900
Mo	Mo	0.18742 0.28106 0.81258 0.79600
N 	N 	0.07550 0.32160 0.92450 -0.19600
C 	C 	0.11540 0.31230 0.88460 -0.13800
Mo	Mo	0.68742 0.78106 0.31258 0.79400
N 	N 	0.57550 0.82160 0.42450 -0.20400
C 	C 	0.61540 0.81230 0.38460 -0.13400
Mo	Mo	0.81258 0.28106 0.18742 0.79600
N 	N 	0.92450 0.32160 0.07550 -0.19600
C 	C 	0.88460 0.31230 0.11540 -0.13800
Mo	Mo	0.31258 0.78106 0.68742 0.79400
N 	N 	0.42450 0.82160 0.57550 -0.20400
C 	C 	0.38460 0.81230 0.61540 -0.13400
Mo	Mo	0.18742 0.71894 0.18742 0.79500
N 	N 	0.07550 0.67840 0.07550 -0.22900
C 	C 	0.11540 0.68770 0.11540 -0.16100
Mo	Mo	0.68742 0.21894 0.68742 0.79500
N 	N 	0.57550 0.17840 0.57550 -0.21400
C 	C 	0.61540 0.18770 0.61540 -0.14800
Mo	Mo	0.71894 0.18742 0.18742 0.79500
N 	N 	0.67840 0.07550 0.07550 -0.22900
C 	C 	0.68770 0.11540 0.11540 -0.16100
Mo	Mo	0.21894 0.68742 0.68742 0.79500
N 	N 	0.17840 0.57550 0.57550 -0.21400
C 	C 	0.18770 0.61540 0.61540 -0.14800
Mo	Mo	0.28106 0.18742 0.81258 0.79600
N 	N 	0.32160 0.07550 0.92450 -0.19600
C 	C 	0.31230 0.11540 0.88460 -0.13800
Mo	Mo	0.78106 0.68742 0.31258 0.79400
N 	N 	0.82160 0.57550 0.42450 -0.20400
C 	C 	0.81230 0.61540 0.38460 -0.13400
Mo	Mo	0.28106 0.81258 0.18742 0.79600
N 	N 	0.32160 0.92450 0.07550 -0.19600
C 	C 	0.31230 0.88460 0.11540 -0.13800
Mo	Mo	0.78106 0.31258 0.68742 0.79400
N 	N 	0.82160 0.42450 0.57550 -0.20400
C 	C 	0.81230 0.38460 0.61540 -0.13400
Mo	Mo	0.71894 0.81258 0.81258 0.79400
N 	N 	0.67840 0.92450 0.92450 -0.16500
C 	C 	0.68770 0.88460 0.88460 -0.11700
Mo	Mo	0.21894 0.31258 0.31258 0.79700
N 	N 	0.17840 0.42450 0.42450 -0.21400
C 	C 	0.18770 0.38460 0.38460 -0.14900
Mo	Mo	0.18742 0.81258 0.28106 0.79600
N 	N 	0.07550 0.92450 0.32160 -0.19600
C 	C 	0.11540 0.88460 0.31230 -0.13800
Mo	Mo	0.68742 0.31258 0.78106 0.79400
N 	N 	0.57550 0.42450 0.82160 -0.20400
C 	C 	0.61540 0.38460 0.81230 -0.13400
Mo	Mo	0.18742 0.18742 0.71894 0.79500
N 	N 	0.07550 0.07550 0.67840 -0.22900
C 	C 	0.11540 0.11540 0.68770 -0.16100
Mo	Mo	0.68742 0.68742 0.21894 0.79500
N 	N 	0.57550 0.57550 0.17840 -0.21400
C 	C 	0.61540 0.61540 0.18770 -0.14800
Mo	Mo	0.81258 0.81258 0.71894 0.79400
N 	N 	0.92450 0.92450 0.67840 -0.16500
C 	C 	0.88460 0.88460 0.68770 -0.11700
Mo	Mo	0.31258 0.31258 0.21894 0.79700
N 	N 	0.42450 0.42450 0.17840 -0.21400
C 	C 	0.38460 0.38460 0.18770 -0.14900
Mo	Mo	0.81258 0.18742 0.28106 0.79600
N 	N 	0.92450 0.07550 0.32160 -0.19600
C 	C 	0.88460 0.11540 0.31230 -0.13800
Mo	Mo	0.31258 0.68742 0.78106 0.79400
N 	N 	0.42450 0.57550 0.82160 -0.20400
C 	C 	0.38460 0.61540 0.81230 -0.13400
Se	Se	0.72002 0.72002 0.10116 -0.53600
Se	Se	0.22002 0.22002 0.60116 -0.51900
Se	Se	0.27998 0.27998 0.10116 -0.54200
Se	Se	0.77998 0.77998 0.60116 -0.48300
Se	Se	0.27998 0.72002 0.89884 -0.45700
Se	Se	0.77998 0.22002 0.39884 -0.50000
Se	Se	0.72002 0.27998 0.89884 -0.45700
Se	Se	0.22002 0.77998 0.39884 -0.50000
Se	Se	0.10116 0.72002 0.72002 -0.53600
Se	Se	0.60116 0.22002 0.22002 -0.51900
Se	Se	0.10116 0.27998 0.27998 -0.54200
Se	Se	0.60116 0.77998 0.77998 -0.48300
Se	Se	0.89884 0.27998 0.72002 -0.45700
Se	Se	0.39884 0.77998 0.22002 -0.50000
Se	Se	0.89884 0.72002 0.27998 -0.45700
Se	Se	0.39884 0.22002 0.77998 -0.50000
Se	Se	0.72002 0.10116 0.72002 -0.53600
Se	Se	0.22002 0.60116 0.22002 -0.51900
Se	Se	0.27998 0.10116 0.27998 -0.54200
Se	Se	0.77998 0.60116 0.77998 -0.48300
Se	Se	0.72002 0.89884 0.27998 -0.45700
Se	Se	0.22002 0.39884 0.77998 -0.50000
Se	Se	0.27998 0.89884 0.72002 -0.45700
Se	Se	0.77998 0.39884 0.22002 -0.50000
Se	Se	0.72002 0.72002 0.89884 -0.45600
Se	Se	0.22002 0.22002 0.39884 -0.51800
Se	Se	0.27998 0.27998 0.89884 -0.45800
Se	Se	0.77998 0.77998 0.39884 -0.48300
Se	Se	0.72002 0.27998 0.10116 -0.53900
Se	Se	0.22002 0.77998 0.60116 -0.50000
Se	Se	0.27998 0.72002 0.10116 -0.53900
Se	Se	0.77998 0.22002 0.60116 -0.50000
Se	Se	0.72002 0.10116 0.27998 -0.53900
Se	Se	0.22002 0.60116 0.77998 -0.50000
Se	Se	0.27998 0.10116 0.72002 -0.53900
Se	Se	0.77998 0.60116 0.22002 -0.50000
Se	Se	0.27998 0.89884 0.27998 -0.45800
Se	Se	0.77998 0.39884 0.77998 -0.48300
Se	Se	0.72002 0.89884 0.72002 -0.45600
Se	Se	0.22002 0.39884 0.22002 -0.51800
Se	Se	0.10116 0.72002 0.27998 -0.53900
Se	Se	0.60116 0.22002 0.77998 -0.50000
Se	Se	0.10116 0.27998 0.72002 -0.53900
Se	Se	0.60116 0.77998 0.22002 -0.50000
Se	Se	0.89884 0.72002 0.72002 -0.45600
Se	Se	0.39884 0.22002 0.22002 -0.51800
Se	Se	0.89884 0.27998 0.27998 -0.45800
Se	Se	0.39884 0.77998 0.77998 -0.48300
Se	Se	0.83941 0.83941 0.16059 -0.41200
Se	Se	0.33941 0.33941 0.66059 -0.44400
Se	Se	0.16059 0.16059 0.16059 -0.47300
Se	Se	0.66059 0.66059 0.66059 -0.44600
Se	Se	0.16059 0.83941 0.83941 -0.41200
Se	Se	0.66059 0.33941 0.33941 -0.44400
Se	Se	0.83941 0.16059 0.83941 -0.41200
Se	Se	0.33941 0.66059 0.33941 -0.44400
Se	Se	0.83941 0.83941 0.83941 -0.38500
Se	Se	0.33941 0.33941 0.33941 -0.44400
Se	Se	0.16059 0.16059 0.83941 -0.44100
Se	Se	0.66059 0.66059 0.33941 -0.44500
Se	Se	0.83941 0.16059 0.16059 -0.44100
Se	Se	0.33941 0.66059 0.66059 -0.44500
Se	Se	0.16059 0.83941 0.16059 -0.44100
Se	Se	0.66059 0.33941 0.66059 -0.44500
Mn	Mn	0.68150 0.00000 -0.00000 1.19300
Mn	Mn	0.18150 0.50000 0.50000 1.24200
Mn	Mn	0.31850 0.00000 -0.00000 1.19200
Mn	Mn	0.81850 0.50000 0.50000 1.25200
Mn	Mn	-0.00000 0.68150 -0.00000 1.19300
Mn	Mn	0.50000 0.18150 0.50000 1.24200
Mn	Mn	-0.00000 0.31850 -0.00000 1.19200
Mn	Mn	0.50000 0.81850 0.50000 1.25200
Mn	Mn	-0.00000 -0.00000 0.68150 1.19300
Mn	Mn	0.50000 0.50000 0.18150 1.24200
Mn	Mn	0.00000 0.00000 0.31850 1.19200
Mn	Mn	0.50000 0.50000 0.81850 1.25200
O 	O 	0.78700 0.96200 -0.00000 -0.06500
O 	O 	0.28700 0.46200 0.50000 -0.10700
O 	O 	0.21300 0.03800 -0.00000 -0.17500
O 	O 	0.71300 0.53800 0.50000 -0.10700
O 	O 	0.21300 0.96200 -0.00000 -0.06900
O 	O 	0.71300 0.46200 0.50000 -0.10700
O 	O 	0.78700 0.03800 -0.00000 -0.16800
O 	O 	0.28700 0.53800 0.50000 -0.10700
O 	O 	-0.00000 0.78700 0.96200 -0.06500
O 	O 	0.50000 0.28700 0.46200 -0.10700
O 	O 	0.00000 0.21300 0.03800 -0.17500
O 	O 	0.50000 0.71300 0.53800 -0.10700
O 	O 	-0.00000 0.21300 0.96200 -0.06900
O 	O 	0.50000 0.71300 0.46200 -0.10700
O 	O 	-0.00000 0.78700 0.03800 -0.16800
O 	O 	0.50000 0.28700 0.53800 -0.10700
O 	O 	0.96200 0.00000 0.78700 -0.06500
O 	O 	0.46200 0.50000 0.28700 -0.10700
O 	O 	0.03800 0.00000 0.21300 -0.17500
O 	O 	0.53800 0.50000 0.71300 -0.10700
O 	O 	0.96200 0.00000 0.21300 -0.06900
O 	O 	0.46200 0.50000 0.71300 -0.10700
O 	O 	0.03800 0.00000 0.78700 -0.16800
O 	O 	0.53800 0.50000 0.28700 -0.10700
O 	O 	0.96200 0.78700 -0.00000 -0.06500
O 	O 	0.46200 0.28700 0.50000 -0.10700
O 	O 	0.03800 0.21300 -0.00000 -0.17500
O 	O 	0.53800 0.71300 0.50000 -0.10700
O 	O 	0.96200 0.21300 -0.00000 -0.06900
O 	O 	0.46200 0.71300 0.50000 -0.10700
O 	O 	0.03800 0.78700 -0.00000 -0.16800
O 	O 	0.53800 0.28700 0.50000 -0.10700
O 	O 	0.78700 0.00000 0.03800 -0.16800
O 	O 	0.28700 0.50000 0.53800 -0.10700
O 	O 	0.21300 -0.00000 0.96200 -0.06900
O 	O 	0.71300 0.50000 0.46200 -0.10700
O 	O 	0.21300 0.00000 0.03800 -0.17500
O 	O 	0.71300 0.50000 0.53800 -0.10700
O 	O 	0.78700 -0.00000 0.96200 -0.06500
O 	O 	0.28700 0.50000 0.46200 -0.10700
O 	O 	-0.00000 0.96200 0.21300 -0.06900
O 	O 	0.50000 0.46200 0.71300 -0.10700
O 	O 	-0.00000 0.03800 0.78700 -0.16800
O 	O 	0.50000 0.53800 0.28700 -0.10700
O 	O 	-0.00000 0.96200 0.78700 -0.06500
O 	O 	0.50000 0.46200 0.28700 -0.10700
O 	O 	0.00000 0.03800 0.21300 -0.17500
O 	O 	0.50000 0.53800 0.71300 -0.10700
