data_crystal

_cell_length_a 9.90330
_cell_length_b 9.90330
_cell_length_c 14.62600
_cell_angle_alpha 84.66720
_cell_angle_beta  71.12350
_cell_angle_gamma 112.63900

_symmetry_space_group_name_	'P 1'
_symmetry_space_group_name_H-M	'P 1'

loop_
_symmetry_equiv_pos_as_xyz
  x,y,z

loop_
_atom_site_label
_atom_site_type_symbol
_atom_site_fract_x
_atom_site_fract_y
_atom_site_fract_z
_atom_site_charge
La	La	0.72795 0.46278 0.98594 1.62300
La	La	0.94872 0.71389 0.51406 1.61800
La	La	0.27205 0.53722 0.01406 1.62300
La	La	0.05128 0.28611 0.48594 1.61800
H 	H 	0.98600 0.88700 0.86900 -0.01600
H 	H 	0.05800 0.14000 0.80000 0.09500
H 	H 	0.27500 0.33300 0.80000 -0.01700
H 	H 	0.34500 0.01200 0.94700 -0.01000
H 	H 	0.25600 0.85500 0.63100 -0.00700
H 	H 	0.44000 0.85800 0.70000 0.09000
H 	H 	0.63300 0.07500 0.70000 -0.01400
H 	H 	0.45900 0.29200 0.55300 -0.00900
H 	H 	0.01400 0.11300 0.13100 -0.01600
H 	H 	0.94200 0.86000 0.20000 0.09500
H 	H 	0.72500 0.66700 0.20000 -0.01700
H 	H 	0.65500 0.98800 0.05300 -0.01000
H 	H 	0.74400 0.14500 0.36900 -0.00700
H 	H 	0.56000 0.14200 0.30000 0.09000
H 	H 	0.36700 0.92500 0.30000 -0.01400
H 	H 	0.54100 0.70800 0.44700 -0.00900
C 	C 	0.32660 0.18900 0.88500 -0.19400
C 	C 	0.10050 0.76390 0.97060 0.42000
C 	C 	0.45980 0.31070 0.89950 0.39200
C 	C 	0.23740 0.22430 0.83930 0.10800
C 	C 	0.28590 0.03830 0.92360 0.12800
C 	C 	0.83180 0.67720 0.76060 0.23800
C 	C 	0.06410 0.96170 0.87440 0.14100
C 	C 	0.10990 0.11030 0.83160 -0.20500
C 	C 	0.15210 0.92470 0.92120 -0.20500
C 	C 	0.57400 0.21160 0.61500 -0.19000
C 	C 	0.23450 0.07110 0.52940 0.41500
C 	C 	0.71020 0.35930 0.60050 0.39000
C 	C 	0.56360 0.07670 0.66070 0.10100
C 	C 	0.46190 0.20950 0.57640 0.12700
C 	C 	0.93780 0.59240 0.73940 0.23800
C 	C 	0.33610 0.93850 0.62560 0.12300
C 	C 	0.44190 0.94150 0.66840 -0.18900
C 	C 	0.34590 0.07330 0.57880 -0.20100
C 	C 	0.67340 0.81100 0.11500 -0.19400
C 	C 	0.89950 0.23610 0.02940 0.42000
C 	C 	0.54020 0.68930 0.10050 0.39200
C 	C 	0.76260 0.77570 0.16070 0.10800
C 	C 	0.71410 0.96170 0.07640 0.12800
C 	C 	0.16820 0.32280 0.23940 0.23800
C 	C 	0.93590 0.03830 0.12560 0.14100
C 	C 	0.89010 0.88970 0.16840 -0.20500
C 	C 	0.84790 0.07530 0.07880 -0.20500
C 	C 	0.42600 0.78840 0.38500 -0.19000
C 	C 	0.76550 0.92890 0.47060 0.41500
C 	C 	0.28980 0.64070 0.39950 0.39000
C 	C 	0.43640 0.92330 0.33930 0.10100
C 	C 	0.53810 0.79050 0.42360 0.12700
C 	C 	0.06220 0.40760 0.26060 0.23800
C 	C 	0.66390 0.06150 0.37440 0.12300
C 	C 	0.55810 0.05850 0.33160 -0.18900
C 	C 	0.65410 0.92670 0.42120 -0.20100
O 	O 	0.76083 0.66856 0.85061 -0.36200
O 	O 	0.58483 0.29797 0.88920 -0.39700
O 	O 	0.97707 0.66393 0.96900 -0.46600
O 	O 	0.43866 0.42134 0.92620 -0.48300
O 	O 	0.18557 0.73793 0.01130 -0.44200
O 	O 	0.82807 0.74935 0.68778 -0.34700
O 	O 	0.01917 0.61144 0.64939 -0.36100
O 	O 	0.68717 0.47403 0.61080 -0.39700
O 	O 	0.13293 0.94607 0.53100 -0.46300
O 	O 	0.84754 0.36486 0.57380 -0.48200
O 	O 	0.24923 0.19687 0.48870 -0.44500
O 	O 	0.93713 0.51585 0.81222 -0.34500
O 	O 	0.23917 0.33144 0.14939 -0.36200
O 	O 	0.41517 0.70203 0.11080 -0.39700
O 	O 	0.02293 0.33607 0.03100 -0.46600
O 	O 	0.56134 0.57866 0.07380 -0.48300
O 	O 	0.81443 0.26207 0.98870 -0.44200
O 	O 	0.17193 0.25065 0.31222 -0.34700
O 	O 	0.98083 0.38856 0.35061 -0.36100
O 	O 	0.31283 0.52597 0.38920 -0.39700
O 	O 	0.86707 0.05393 0.46900 -0.46300
O 	O 	0.15246 0.63514 0.42620 -0.48200
O 	O 	0.75077 0.80313 0.51130 -0.44500
O 	O 	0.06287 0.48415 0.18778 -0.34500
