data_crystal

_cell_length_a 15.55100
_cell_length_b 15.55100
_cell_length_c 16.36400
_cell_angle_alpha 90.00000
_cell_angle_beta  90.00000
_cell_angle_gamma 120.00000

_symmetry_space_group_name_	'P 1'
_symmetry_space_group_name_H-M	'P 1'

loop_
_symmetry_equiv_pos_as_xyz
  x,y,z

loop_
_atom_site_label
_atom_site_type_symbol
_atom_site_fract_x
_atom_site_fract_y
_atom_site_fract_z
_atom_site_charge
Ni	Ni	0.48000 0.74000 0.75000 1.12100
Ni	Ni	0.26000 0.52000 0.75000 1.12100
Ni	Ni	0.26000 0.74000 0.75000 1.12100
Ni	Ni	0.52000 0.26000 0.25000 1.12100
Ni	Ni	0.74000 0.48000 0.25000 1.12100
Ni	Ni	0.74000 0.26000 0.25000 1.12100
H 	H 	0.45220 0.76040 0.98030 0.07000
H 	H 	0.43980 0.01330 0.80150 0.06400
H 	H 	0.47880 0.71510 0.10690 0.04300
H 	H 	0.46480 0.16940 0.78370 0.03600
H 	H 	0.30820 0.54780 0.98030 0.07000
H 	H 	0.57350 0.56020 0.80150 0.06400
H 	H 	0.23630 0.52120 0.10690 0.04300
H 	H 	0.70460 0.53520 0.78370 0.03600
H 	H 	0.23960 0.69180 0.98030 0.07000
H 	H 	0.98670 0.42650 0.80150 0.06400
H 	H 	0.28490 0.76370 0.10690 0.04300
H 	H 	0.83060 0.29540 0.78370 0.03600
H 	H 	0.30820 0.76040 0.51970 0.07000
H 	H 	0.57350 0.01330 0.69850 0.06400
H 	H 	0.23630 0.71510 0.39310 0.04500
H 	H 	0.70460 0.16940 0.71630 0.03700
H 	H 	0.23960 0.54780 0.51970 0.07100
H 	H 	0.98670 0.56020 0.69850 0.06500
H 	H 	0.28490 0.52120 0.39310 0.04500
H 	H 	0.83060 0.53520 0.71630 0.03700
H 	H 	0.45220 0.69180 0.51970 0.07100
H 	H 	0.43980 0.42650 0.69850 0.06500
H 	H 	0.47880 0.76370 0.39310 0.04500
H 	H 	0.46480 0.29540 0.71630 0.03700
H 	H 	0.54780 0.23960 0.01970 0.07100
H 	H 	0.56020 0.98670 0.19850 0.06500
H 	H 	0.52120 0.28490 0.89310 0.04400
H 	H 	0.53520 0.83060 0.21630 0.03700
H 	H 	0.69180 0.45220 0.01970 0.07100
H 	H 	0.42650 0.43980 0.19850 0.06500
H 	H 	0.76370 0.47880 0.89310 0.04400
H 	H 	0.29540 0.46480 0.21630 0.03700
H 	H 	0.76040 0.30820 0.01970 0.07100
H 	H 	0.01330 0.57350 0.19850 0.06500
H 	H 	0.71510 0.23630 0.89310 0.04400
H 	H 	0.16940 0.70460 0.21630 0.03700
H 	H 	0.69180 0.23960 0.48030 0.07100
H 	H 	0.42650 0.98670 0.30150 0.06500
H 	H 	0.76370 0.28490 0.60690 0.04500
H 	H 	0.29540 0.83060 0.28370 0.03700
H 	H 	0.76040 0.45220 0.48030 0.07100
H 	H 	0.01330 0.43980 0.30150 0.06500
H 	H 	0.71510 0.47880 0.60690 0.04500
H 	H 	0.16940 0.46480 0.28370 0.03700
H 	H 	0.54780 0.30820 0.48030 0.07100
H 	H 	0.56020 0.57350 0.30150 0.06500
H 	H 	0.52120 0.23630 0.60690 0.04500
H 	H 	0.53520 0.70460 0.28370 0.03700
C 	C 	0.46530 0.93160 0.93488 -0.11700
C 	C 	0.42690 0.85820 0.86386 0.39300
C 	C 	0.48020 0.02680 0.92350 0.05000
C 	C 	0.48490 0.90350 0.01050 0.04900
C 	C 	0.47250 0.80650 0.02410 -0.07700
C 	C 	0.46240 0.05840 0.84620 -0.07800
C 	C 	0.48940 0.78010 0.09840 -0.02700
C 	C 	0.47690 0.15030 0.83570 -0.02200
C 	C 	0.46630 0.53470 0.93488 -0.11800
C 	C 	0.43130 0.57310 0.86386 0.39300
C 	C 	0.54660 0.51980 0.92350 0.05000
C 	C 	0.41860 0.51510 0.01050 0.04900
C 	C 	0.33400 0.52750 0.02410 -0.07700
C 	C 	0.59600 0.53760 0.84620 -0.07900
C 	C 	0.29070 0.51060 0.09840 -0.02700
C 	C 	0.67340 0.52310 0.83570 -0.02200
C 	C 	0.06840 0.53370 0.93488 -0.11700
C 	C 	0.14180 0.56870 0.86386 0.39300
C 	C 	0.97320 0.45340 0.92350 0.05000
C 	C 	0.09650 0.58140 0.01050 0.04900
C 	C 	0.19350 0.66600 0.02410 -0.07700
C 	C 	0.94160 0.40400 0.84620 -0.07800
C 	C 	0.21990 0.70930 0.09840 -0.02700
C 	C 	0.84970 0.32660 0.83570 -0.02300
C 	C 	0.46630 0.93160 0.56512 -0.11800
C 	C 	0.43130 0.85820 0.63614 0.39300
C 	C 	0.54660 0.02680 0.57650 0.05000
C 	C 	0.41860 0.90350 0.48950 0.04900
C 	C 	0.33400 0.80650 0.47590 -0.07600
C 	C 	0.59600 0.05840 0.65380 -0.07900
C 	C 	0.29070 0.78010 0.40160 -0.02700
C 	C 	0.67340 0.15030 0.66430 -0.02200
C 	C 	0.06840 0.53470 0.56512 -0.11800
C 	C 	0.14180 0.57310 0.63614 0.39300
C 	C 	0.97320 0.51980 0.57650 0.05000
C 	C 	0.09650 0.51510 0.48950 0.04900
C 	C 	0.19350 0.52750 0.47590 -0.07600
C 	C 	0.94160 0.53760 0.65380 -0.07900
C 	C 	0.21990 0.51060 0.40160 -0.02700
C 	C 	0.84970 0.52310 0.66430 -0.02200
C 	C 	0.46530 0.53370 0.56512 -0.11800
C 	C 	0.42690 0.56870 0.63614 0.39300
C 	C 	0.48020 0.45340 0.57650 0.05000
C 	C 	0.48490 0.58140 0.48950 0.04900
C 	C 	0.47250 0.66600 0.47590 -0.07600
C 	C 	0.46240 0.40400 0.65380 -0.07900
C 	C 	0.48940 0.70930 0.40160 -0.02700
C 	C 	0.47690 0.32660 0.66430 -0.02200
C 	C 	0.53470 0.06840 0.06512 -0.11700
C 	C 	0.57310 0.14180 0.13614 0.39300
C 	C 	0.51980 0.97320 0.07650 0.05000
C 	C 	0.51510 0.09650 0.98950 0.04900
C 	C 	0.52750 0.19350 0.97590 -0.07700
C 	C 	0.53760 0.94160 0.15380 -0.07800
C 	C 	0.51060 0.21990 0.90160 -0.02700
C 	C 	0.52310 0.84970 0.16430 -0.02200
C 	C 	0.53370 0.46530 0.06512 -0.11800
C 	C 	0.56870 0.42690 0.13614 0.39300
C 	C 	0.45340 0.48020 0.07650 0.05000
C 	C 	0.58140 0.48490 0.98950 0.04900
C 	C 	0.66600 0.47250 0.97590 -0.07700
C 	C 	0.40400 0.46240 0.15380 -0.07900
C 	C 	0.70930 0.48940 0.90160 -0.02700
C 	C 	0.32660 0.47690 0.16430 -0.02200
C 	C 	0.93160 0.46630 0.06512 -0.11700
C 	C 	0.85820 0.43130 0.13614 0.39300
C 	C 	0.02680 0.54660 0.07650 0.05000
C 	C 	0.90350 0.41860 0.98950 0.04900
C 	C 	0.80650 0.33400 0.97590 -0.07700
C 	C 	0.05840 0.59600 0.15380 -0.07800
C 	C 	0.78010 0.29070 0.90160 -0.02700
C 	C 	0.15030 0.67340 0.16430 -0.02300
C 	C 	0.53370 0.06840 0.43488 -0.11800
C 	C 	0.56870 0.14180 0.36386 0.39300
C 	C 	0.45340 0.97320 0.42350 0.05000
C 	C 	0.58140 0.09650 0.51050 0.04900
C 	C 	0.66600 0.19350 0.52410 -0.07600
C 	C 	0.40400 0.94160 0.34620 -0.07900
C 	C 	0.70930 0.21990 0.59840 -0.02700
C 	C 	0.32660 0.84970 0.33570 -0.02200
C 	C 	0.93160 0.46530 0.43488 -0.11800
C 	C 	0.85820 0.42690 0.36386 0.39300
C 	C 	0.02680 0.48020 0.42350 0.05000
C 	C 	0.90350 0.48490 0.51050 0.04900
C 	C 	0.80650 0.47250 0.52410 -0.07600
C 	C 	0.05840 0.46240 0.34620 -0.07900
C 	C 	0.78010 0.48940 0.59840 -0.02700
C 	C 	0.15030 0.47690 0.33570 -0.02200
C 	C 	0.53470 0.46630 0.43488 -0.11800
C 	C 	0.57310 0.43130 0.36386 0.39300
C 	C 	0.51980 0.54660 0.42350 0.05000
C 	C 	0.51510 0.41860 0.51050 0.04900
C 	C 	0.52750 0.33400 0.52410 -0.07600
C 	C 	0.53760 0.59600 0.34620 -0.07900
C 	C 	0.51060 0.29070 0.59840 -0.02700
C 	C 	0.52310 0.67340 0.33570 -0.02200
O 	O 	0.49101 0.84959 0.82566 -0.42800
O 	O 	0.33551 0.81633 0.85147 -0.42400
O 	O 	0.35858 0.50899 0.82566 -0.42800
O 	O 	0.48082 0.66449 0.85147 -0.42400
O 	O 	0.15041 0.64142 0.82566 -0.42800
O 	O 	0.18367 0.51918 0.85147 -0.42400
O 	O 	0.35858 0.84959 0.67434 -0.42800
O 	O 	0.48082 0.81633 0.64853 -0.42400
O 	O 	0.15041 0.50899 0.67434 -0.42800
O 	O 	0.18367 0.66449 0.64853 -0.42400
O 	O 	0.49101 0.64142 0.67434 -0.42800
O 	O 	0.33551 0.51918 0.64853 -0.42400
O 	O 	0.50899 0.15041 0.17434 -0.42800
O 	O 	0.66449 0.18367 0.14853 -0.42400
O 	O 	0.64142 0.49101 0.17434 -0.42800
O 	O 	0.51918 0.33551 0.14853 -0.42400
O 	O 	0.84959 0.35858 0.17434 -0.42800
O 	O 	0.81633 0.48082 0.14853 -0.42400
O 	O 	0.64142 0.15041 0.32566 -0.42800
O 	O 	0.51918 0.18367 0.35147 -0.42400
O 	O 	0.84959 0.49101 0.32566 -0.42800
O 	O 	0.81633 0.33551 0.35147 -0.42400
O 	O 	0.50899 0.35858 0.32566 -0.42800
O 	O 	0.66449 0.48082 0.35147 -0.42400
O 	O 	0.33333 0.66666 0.75000 -0.56900
O 	O 	0.66667 0.33334 0.25000 -0.56900
