data_crystal

_cell_length_a 19.57600
_cell_length_b 18.53500
_cell_length_c 7.83770
_cell_angle_alpha 90.00000
_cell_angle_beta  94.15000
_cell_angle_gamma 90.00000

_symmetry_space_group_name_	'P 1'
_symmetry_space_group_name_H-M	'P 1'

loop_
_symmetry_equiv_pos_as_xyz
  x,y,z

loop_
_atom_site_label
_atom_site_type_symbol
_atom_site_fract_x
_atom_site_fract_y
_atom_site_fract_z
_atom_site_charge
Zn	Zn	0.35840 0.14483 0.35670 1.20600
Zn	Zn	0.08590 0.97672 0.36570 1.14300
C 	C 	0.98480 0.32170 0.97100 0.27200
C 	C 	0.04710 0.27880 0.02900 -0.04000
C 	C 	0.04550 0.21200 0.07600 0.00200
H 	H 	0.00340 0.18880 0.06080 0.03300
C 	C 	0.10200 0.16920 0.14900 -0.14300
C 	C 	0.09060 0.09500 0.21700 0.44500
C 	C 	0.16060 0.20560 0.15700 -0.03500
C 	C 	0.22770 0.16310 0.21900 0.34500
C 	C 	0.16810 0.28020 0.11600 -0.01400
H 	H 	0.21050 0.30280 0.13360 0.03200
C 	C 	0.11250 0.31740 0.05300 -0.10500
C 	C 	0.12260 0.39660 0.00300 0.40700
O 	O 	0.93440 0.28210 0.92450 -0.42500
O 	O 	0.98200 0.39050 0.97980 -0.27100
O 	O 	0.11760 0.41170 0.84650 -0.43800
O 	O 	0.13190 0.43900 0.11070 -0.30300
O 	O 	0.07760 0.04410 0.10630 -0.69200
O 	O 	0.08950 0.08870 0.36300 -0.54500
O 	O 	0.22710 0.10430 0.20350 -0.40000
O 	O 	0.28110 0.20490 0.28160 -0.46400
Zn	Zn	0.85840 0.64483 0.35670 1.20500
Zn	Zn	0.58590 0.47672 0.36570 1.14200
C 	C 	0.48480 0.82170 0.97100 0.27600
C 	C 	0.54710 0.77880 0.02900 -0.04800
C 	C 	0.54550 0.71200 0.07600 0.00500
H 	H 	0.50340 0.68880 0.06080 0.02900
C 	C 	0.60200 0.66920 0.14900 -0.14500
C 	C 	0.59060 0.59500 0.21700 0.44600
C 	C 	0.66060 0.70560 0.15700 -0.03400
C 	C 	0.72770 0.66310 0.21900 0.34500
C 	C 	0.66810 0.78020 0.11600 -0.01600
H 	H 	0.71050 0.80280 0.13360 0.03200
C 	C 	0.61250 0.81740 0.05300 -0.10200
C 	C 	0.62260 0.89660 0.00300 0.40000
O 	O 	0.43440 0.78210 0.92450 -0.42400
O 	O 	0.48200 0.89050 0.97980 -0.27100
O 	O 	0.61760 0.91170 0.84650 -0.43300
O 	O 	0.63190 0.93900 0.11070 -0.30300
O 	O 	0.57760 0.54410 0.10630 -0.69400
O 	O 	0.58950 0.58870 0.36300 -0.54600
O 	O 	0.72710 0.60430 0.20350 -0.40100
O 	O 	0.78110 0.70490 0.28160 -0.46400
Zn	Zn	0.64160 0.14483 0.14330 1.20500
Zn	Zn	0.91410 0.97672 0.13430 1.14000
C 	C 	0.01520 0.32170 0.52900 0.27300
C 	C 	0.95290 0.27880 0.47100 -0.04400
C 	C 	0.95450 0.21200 0.42400 0.00200
H 	H 	0.99660 0.18880 0.43920 0.03000
C 	C 	0.89800 0.16920 0.35100 -0.14400
C 	C 	0.90940 0.09500 0.28300 0.44500
C 	C 	0.83940 0.20560 0.34300 -0.03400
C 	C 	0.77230 0.16310 0.28100 0.34500
C 	C 	0.83190 0.28020 0.38400 -0.01500
H 	H 	0.78950 0.30280 0.36640 0.03200
C 	C 	0.88750 0.31740 0.44700 -0.10400
C 	C 	0.87740 0.39660 0.49700 0.40600
O 	O 	0.06560 0.28210 0.57550 -0.42500
O 	O 	0.01800 0.39050 0.52020 -0.27200
O 	O 	0.88240 0.41170 0.65350 -0.43700
O 	O 	0.86810 0.43900 0.38930 -0.30300
O 	O 	0.92240 0.04410 0.39370 -0.69300
O 	O 	0.91050 0.08870 0.13700 -0.54500
O 	O 	0.77290 0.10430 0.29650 -0.40000
O 	O 	0.71890 0.20490 0.21840 -0.46400
Zn	Zn	0.14160 0.64483 0.14330 1.20500
Zn	Zn	0.41410 0.47672 0.13430 1.14200
C 	C 	0.51520 0.82170 0.52900 0.27300
C 	C 	0.45290 0.77880 0.47100 -0.04400
C 	C 	0.45450 0.71200 0.42400 0.00200
H 	H 	0.49660 0.68880 0.43920 0.03100
C 	C 	0.39800 0.66920 0.35100 -0.14400
C 	C 	0.40940 0.59500 0.28300 0.44500
C 	C 	0.33940 0.70560 0.34300 -0.03500
C 	C 	0.27230 0.66310 0.28100 0.34500
C 	C 	0.33190 0.78020 0.38400 -0.01500
H 	H 	0.28950 0.80280 0.36640 0.03200
C 	C 	0.38750 0.81740 0.44700 -0.10400
C 	C 	0.37740 0.89660 0.49700 0.40600
O 	O 	0.56560 0.78210 0.57550 -0.42400
O 	O 	0.51800 0.89050 0.52020 -0.27200
O 	O 	0.38240 0.91170 0.65350 -0.43700
O 	O 	0.36810 0.93900 0.38930 -0.30400
O 	O 	0.42240 0.54410 0.39370 -0.69400
O 	O 	0.41050 0.58870 0.13700 -0.54600
O 	O 	0.27290 0.60430 0.29650 -0.40100
O 	O 	0.21890 0.70490 0.21840 -0.46500
Zn	Zn	0.64160 0.85517 0.64330 1.20500
Zn	Zn	0.91410 0.02328 0.63430 1.14200
C 	C 	0.01520 0.67830 0.02900 0.27100
C 	C 	0.95290 0.72120 0.97100 -0.04100
C 	C 	0.95450 0.78800 0.92400 0.00100
H 	H 	0.99660 0.81120 0.93920 0.03200
C 	C 	0.89800 0.83080 0.85100 -0.14300
C 	C 	0.90940 0.90500 0.78300 0.44500
C 	C 	0.83940 0.79440 0.84300 -0.03500
C 	C 	0.77230 0.83690 0.78100 0.34500
C 	C 	0.83190 0.71980 0.88400 -0.01400
H 	H 	0.78950 0.69720 0.86640 0.03200
C 	C 	0.88750 0.68260 0.94700 -0.10500
C 	C 	0.87740 0.60340 0.99700 0.40700
O 	O 	0.06560 0.71790 0.07550 -0.42500
O 	O 	0.01800 0.60950 0.02020 -0.27100
O 	O 	0.88240 0.58830 0.15350 -0.43800
O 	O 	0.86810 0.56100 0.88930 -0.30300
O 	O 	0.92240 0.95590 0.89370 -0.69200
O 	O 	0.91050 0.91130 0.63700 -0.54500
O 	O 	0.77290 0.89570 0.79650 -0.40000
O 	O 	0.71890 0.79510 0.71840 -0.46400
Zn	Zn	0.14160 0.35517 0.64330 1.20500
Zn	Zn	0.41410 0.52328 0.63430 1.14200
C 	C 	0.51520 0.17830 0.02900 0.27600
C 	C 	0.45290 0.22120 0.97100 -0.04800
C 	C 	0.45450 0.28800 0.92400 0.00500
H 	H 	0.49660 0.31120 0.93920 0.02900
C 	C 	0.39800 0.33080 0.85100 -0.14500
C 	C 	0.40940 0.40500 0.78300 0.44600
C 	C 	0.33940 0.29440 0.84300 -0.03400
C 	C 	0.27230 0.33690 0.78100 0.34500
C 	C 	0.33190 0.21980 0.88400 -0.01600
H 	H 	0.28950 0.19720 0.86640 0.03200
C 	C 	0.38750 0.18260 0.94700 -0.10200
C 	C 	0.37740 0.10340 0.99700 0.40000
O 	O 	0.56560 0.21790 0.07550 -0.42400
O 	O 	0.51800 0.10950 0.02020 -0.27100
O 	O 	0.38240 0.08830 0.15350 -0.43300
O 	O 	0.36810 0.06100 0.88930 -0.30300
O 	O 	0.42240 0.45590 0.89370 -0.69400
O 	O 	0.41050 0.41130 0.63700 -0.54600
O 	O 	0.27290 0.39570 0.79650 -0.40100
O 	O 	0.21890 0.29510 0.71840 -0.46400
Zn	Zn	0.35840 0.85517 0.85670 1.20500
Zn	Zn	0.08590 0.02328 0.86570 1.14000
C 	C 	0.98480 0.67830 0.47100 0.27300
C 	C 	0.04710 0.72120 0.52900 -0.04400
C 	C 	0.04550 0.78800 0.57600 0.00200
H 	H 	0.00340 0.81120 0.56080 0.03000
C 	C 	0.10200 0.83080 0.64900 -0.14400
C 	C 	0.09060 0.90500 0.71700 0.44500
C 	C 	0.16060 0.79440 0.65700 -0.03400
C 	C 	0.22770 0.83690 0.71900 0.34500
C 	C 	0.16810 0.71980 0.61600 -0.01500
H 	H 	0.21050 0.69720 0.63360 0.03200
C 	C 	0.11250 0.68260 0.55300 -0.10400
C 	C 	0.12260 0.60340 0.50300 0.40600
O 	O 	0.93440 0.71790 0.42450 -0.42500
O 	O 	0.98200 0.60950 0.47980 -0.27200
O 	O 	0.11760 0.58830 0.34650 -0.43700
O 	O 	0.13190 0.56100 0.61070 -0.30300
O 	O 	0.07760 0.95590 0.60630 -0.69300
O 	O 	0.08950 0.91130 0.86300 -0.54500
O 	O 	0.22710 0.89570 0.70350 -0.40000
O 	O 	0.28110 0.79510 0.78160 -0.46400
Zn	Zn	0.85840 0.35517 0.85670 1.20500
Zn	Zn	0.58590 0.52328 0.86570 1.14200
C 	C 	0.48480 0.17830 0.47100 0.27300
C 	C 	0.54710 0.22120 0.52900 -0.04400
C 	C 	0.54550 0.28800 0.57600 0.00200
H 	H 	0.50340 0.31120 0.56080 0.03100
C 	C 	0.60200 0.33080 0.64900 -0.14400
C 	C 	0.59060 0.40500 0.71700 0.44500
C 	C 	0.66060 0.29440 0.65700 -0.03500
C 	C 	0.72770 0.33690 0.71900 0.34500
C 	C 	0.66810 0.21980 0.61600 -0.01500
H 	H 	0.71050 0.19720 0.63360 0.03200
C 	C 	0.61250 0.18260 0.55300 -0.10400
C 	C 	0.62260 0.10340 0.50300 0.40600
O 	O 	0.43440 0.21790 0.42450 -0.42400
O 	O 	0.48200 0.10950 0.47980 -0.27200
O 	O 	0.61760 0.08830 0.34650 -0.43700
O 	O 	0.63190 0.06100 0.61070 -0.30400
O 	O 	0.57760 0.45590 0.60630 -0.69400
O 	O 	0.58950 0.41130 0.86300 -0.54600
O 	O 	0.72710 0.39570 0.70350 -0.40100
O 	O 	0.78110 0.29510 0.78160 -0.46500
