data_crystal

_cell_length_a 20.26630
_cell_length_b 20.26630
_cell_length_c 20.26630
_cell_angle_alpha 90.00000
_cell_angle_beta  90.00000
_cell_angle_gamma 90.00000

_symmetry_space_group_name_	'P 1'
_symmetry_space_group_name_H-M	'P 1'

loop_
_symmetry_equiv_pos_as_xyz
  x,y,z

loop_
_atom_site_label
_atom_site_type_symbol
_atom_site_fract_x
_atom_site_fract_y
_atom_site_fract_z
_atom_site_charge
Eu	Eu	0.25777 0.14551 0.52011 1.51300
O 	O 	0.28910 0.08740 0.62370 -0.46400
O 	O 	0.20295 0.03370 0.66760 -0.47500
O 	O 	0.28250 0.91770 0.92380 -0.45500
O 	O 	0.19653 0.93580 0.85654 -0.47400
N 	N 	0.27000 0.99490 0.76920 -0.18600
C 	C 	0.26290 0.05150 0.66570 0.36800
C 	C 	0.30600 0.02570 0.72190 -0.07300
C 	C 	0.37310 0.03150 0.72470 -0.01300
H 	H 	0.39680 0.05240 0.69000 0.00900
C 	C 	0.40580 0.00620 0.77910 -0.07100
H 	H 	0.45240 0.01000 0.78250 0.02400
C 	C 	0.37000 0.97530 0.82870 -0.01800
H 	H 	0.39140 0.95700 0.86620 0.01800
C 	C 	0.30200 0.97190 0.82170 -0.06900
C 	C 	0.25800 0.93960 0.87180 0.35200
Eu	Eu	0.24223 0.85449 0.02011 1.51500
O 	O 	0.21090 0.91260 0.12370 -0.46300
O 	O 	0.29705 0.96630 0.16760 -0.47300
O 	O 	0.21750 0.08230 0.42380 -0.45300
O 	O 	0.30347 0.06420 0.35654 -0.47200
N 	N 	0.23000 0.00510 0.26920 -0.18600
C 	C 	0.23710 0.94850 0.16570 0.36800
C 	C 	0.19400 0.97430 0.22190 -0.07000
C 	C 	0.12690 0.96850 0.22470 -0.01400
H 	H 	0.10320 0.94760 0.19000 0.01100
C 	C 	0.09420 0.99380 0.27910 -0.06600
H 	H 	0.04760 0.99000 0.28250 0.02400
C 	C 	0.13000 0.02470 0.32870 -0.02100
H 	H 	0.10860 0.04300 0.36620 0.01900
C 	C 	0.19800 0.02810 0.32170 -0.06800
C 	C 	0.24200 0.06040 0.37180 0.35200
Eu	Eu	0.74223 0.64551 0.97989 1.51200
O 	O 	0.71090 0.58740 0.87630 -0.46300
O 	O 	0.79705 0.53370 0.83240 -0.47400
O 	O 	0.71750 0.41770 0.57620 -0.45400
O 	O 	0.80347 0.43580 0.64346 -0.47200
N 	N 	0.73000 0.49490 0.73080 -0.18500
C 	C 	0.73710 0.55150 0.83430 0.36900
C 	C 	0.69400 0.52570 0.77810 -0.07200
C 	C 	0.62690 0.53150 0.77530 -0.01200
H 	H 	0.60320 0.55240 0.81000 0.01000
C 	C 	0.59420 0.50620 0.72090 -0.07100
H 	H 	0.54760 0.51000 0.71750 0.02500
C 	C 	0.63000 0.47530 0.67130 -0.01600
H 	H 	0.60860 0.45700 0.63380 0.01800
C 	C 	0.69800 0.47190 0.67830 -0.06900
C 	C 	0.74200 0.43960 0.62820 0.35200
Eu	Eu	0.75777 0.35449 0.47989 1.51400
O 	O 	0.78910 0.41260 0.37630 -0.46300
O 	O 	0.70295 0.46630 0.33240 -0.47400
O 	O 	0.78250 0.58230 0.07620 -0.45300
O 	O 	0.69653 0.56420 0.14346 -0.47200
N 	N 	0.77000 0.50510 0.23080 -0.18500
C 	C 	0.76290 0.44850 0.33430 0.36900
C 	C 	0.80600 0.47430 0.27810 -0.07200
C 	C 	0.87310 0.46850 0.27530 -0.01100
H 	H 	0.89680 0.44760 0.31000 0.01000
C 	C 	0.90580 0.49380 0.22090 -0.07100
H 	H 	0.95240 0.49000 0.21750 0.02600
C 	C 	0.87000 0.52470 0.17130 -0.01600
H 	H 	0.89140 0.54300 0.13380 0.01800
C 	C 	0.80200 0.52810 0.17830 -0.06900
C 	C 	0.75800 0.56040 0.12820 0.35200
Eu	Eu	0.52011 0.25777 0.14551 1.51400
O 	O 	0.62370 0.28910 0.08740 -0.46300
O 	O 	0.66760 0.20295 0.03370 -0.47400
O 	O 	0.92380 0.28250 0.91770 -0.45400
O 	O 	0.85654 0.19653 0.93580 -0.47300
N 	N 	0.76920 0.27000 0.99490 -0.18500
C 	C 	0.66570 0.26290 0.05150 0.36900
C 	C 	0.72190 0.30600 0.02570 -0.07200
C 	C 	0.72470 0.37310 0.03150 -0.01200
H 	H 	0.69000 0.39680 0.05240 0.01000
C 	C 	0.77910 0.40580 0.00620 -0.07000
H 	H 	0.78250 0.45240 0.01000 0.02500
C 	C 	0.82870 0.37000 0.97530 -0.01800
H 	H 	0.86620 0.39140 0.95700 0.01800
C 	C 	0.82170 0.30200 0.97190 -0.06900
C 	C 	0.87180 0.25800 0.93960 0.35200
Eu	Eu	0.02011 0.24223 0.85449 1.51500
O 	O 	0.12370 0.21090 0.91260 -0.46300
O 	O 	0.16760 0.29705 0.96630 -0.47300
O 	O 	0.42380 0.21750 0.08230 -0.45300
O 	O 	0.35654 0.30347 0.06420 -0.47200
N 	N 	0.26920 0.23000 0.00510 -0.18600
C 	C 	0.16570 0.23710 0.94850 0.36800
C 	C 	0.22190 0.19400 0.97430 -0.07000
C 	C 	0.22470 0.12690 0.96850 -0.01400
H 	H 	0.19000 0.10320 0.94760 0.01100
C 	C 	0.27910 0.09420 0.99380 -0.06600
H 	H 	0.28250 0.04760 0.99000 0.02400
C 	C 	0.32870 0.13000 0.02470 -0.02100
H 	H 	0.36620 0.10860 0.04300 0.01900
C 	C 	0.32170 0.19800 0.02810 -0.06800
C 	C 	0.37180 0.24200 0.06040 0.35200
Eu	Eu	0.97989 0.74223 0.64551 1.51200
O 	O 	0.87630 0.71090 0.58740 -0.46300
O 	O 	0.83240 0.79705 0.53370 -0.47400
O 	O 	0.57620 0.71750 0.41770 -0.45400
O 	O 	0.64346 0.80347 0.43580 -0.47200
N 	N 	0.73080 0.73000 0.49490 -0.18500
C 	C 	0.83430 0.73710 0.55150 0.36900
C 	C 	0.77810 0.69400 0.52570 -0.07200
C 	C 	0.77530 0.62690 0.53150 -0.01200
H 	H 	0.81000 0.60320 0.55240 0.01000
C 	C 	0.72090 0.59420 0.50620 -0.07100
H 	H 	0.71750 0.54760 0.51000 0.02500
C 	C 	0.67130 0.63000 0.47530 -0.01600
H 	H 	0.63380 0.60860 0.45700 0.01800
C 	C 	0.67830 0.69800 0.47190 -0.06900
C 	C 	0.62820 0.74200 0.43960 0.35200
Eu	Eu	0.47989 0.75777 0.35449 1.51400
O 	O 	0.37630 0.78910 0.41260 -0.46300
O 	O 	0.33240 0.70295 0.46630 -0.47400
O 	O 	0.07620 0.78250 0.58230 -0.45300
O 	O 	0.14346 0.69653 0.56420 -0.47200
N 	N 	0.23080 0.77000 0.50510 -0.18500
C 	C 	0.33430 0.76290 0.44850 0.36900
C 	C 	0.27810 0.80600 0.47430 -0.07200
C 	C 	0.27530 0.87310 0.46850 -0.01100
H 	H 	0.31000 0.89680 0.44760 0.01000
C 	C 	0.22090 0.90580 0.49380 -0.07100
H 	H 	0.21750 0.95240 0.49000 0.02600
C 	C 	0.17130 0.87000 0.52470 -0.01600
H 	H 	0.13380 0.89140 0.54300 0.01800
C 	C 	0.17830 0.80200 0.52810 -0.06900
C 	C 	0.12820 0.75800 0.56040 0.35200
Eu	Eu	0.14551 0.52011 0.25777 1.51400
O 	O 	0.08740 0.62370 0.28910 -0.46300
O 	O 	0.03370 0.66760 0.20295 -0.47400
O 	O 	0.91770 0.92380 0.28250 -0.45400
O 	O 	0.93580 0.85654 0.19653 -0.47300
N 	N 	0.99490 0.76920 0.27000 -0.18500
C 	C 	0.05150 0.66570 0.26290 0.36900
C 	C 	0.02570 0.72190 0.30600 -0.07200
C 	C 	0.03150 0.72470 0.37310 -0.01200
H 	H 	0.05240 0.69000 0.39680 0.01000
C 	C 	0.00620 0.77910 0.40580 -0.07000
H 	H 	0.01000 0.78250 0.45240 0.02500
C 	C 	0.97530 0.82870 0.37000 -0.01800
H 	H 	0.95700 0.86620 0.39140 0.01800
C 	C 	0.97190 0.82170 0.30200 -0.06900
C 	C 	0.93960 0.87180 0.25800 0.35200
Eu	Eu	0.85449 0.02011 0.24223 1.51500
O 	O 	0.91260 0.12370 0.21090 -0.46300
O 	O 	0.96630 0.16760 0.29705 -0.47300
O 	O 	0.08230 0.42380 0.21750 -0.45300
O 	O 	0.06420 0.35654 0.30347 -0.47200
N 	N 	0.00510 0.26920 0.23000 -0.18600
C 	C 	0.94850 0.16570 0.23710 0.36800
C 	C 	0.97430 0.22190 0.19400 -0.07000
C 	C 	0.96850 0.22470 0.12690 -0.01400
H 	H 	0.94760 0.19000 0.10320 0.01100
C 	C 	0.99380 0.27910 0.09420 -0.06600
H 	H 	0.99000 0.28250 0.04760 0.02400
C 	C 	0.02470 0.32870 0.13000 -0.02100
H 	H 	0.04300 0.36620 0.10860 0.01900
C 	C 	0.02810 0.32170 0.19800 -0.06800
C 	C 	0.06040 0.37180 0.24200 0.35200
Eu	Eu	0.64551 0.97989 0.74223 1.51200
O 	O 	0.58740 0.87630 0.71090 -0.46300
O 	O 	0.53370 0.83240 0.79705 -0.47400
O 	O 	0.41770 0.57620 0.71750 -0.45400
O 	O 	0.43580 0.64346 0.80347 -0.47200
N 	N 	0.49490 0.73080 0.73000 -0.18500
C 	C 	0.55150 0.83430 0.73710 0.36900
C 	C 	0.52570 0.77810 0.69400 -0.07200
C 	C 	0.53150 0.77530 0.62690 -0.01200
H 	H 	0.55240 0.81000 0.60320 0.01000
C 	C 	0.50620 0.72090 0.59420 -0.07100
H 	H 	0.51000 0.71750 0.54760 0.02500
C 	C 	0.47530 0.67130 0.63000 -0.01600
H 	H 	0.45700 0.63380 0.60860 0.01800
C 	C 	0.47190 0.67830 0.69800 -0.06900
C 	C 	0.43960 0.62820 0.74200 0.35200
Eu	Eu	0.35449 0.47989 0.75777 1.51400
O 	O 	0.41260 0.37630 0.78910 -0.46300
O 	O 	0.46630 0.33240 0.70295 -0.47400
O 	O 	0.58230 0.07620 0.78250 -0.45300
O 	O 	0.56420 0.14346 0.69653 -0.47200
N 	N 	0.50510 0.23080 0.77000 -0.18500
C 	C 	0.44850 0.33430 0.76290 0.36900
C 	C 	0.47430 0.27810 0.80600 -0.07200
C 	C 	0.46850 0.27530 0.87310 -0.01100
H 	H 	0.44760 0.31000 0.89680 0.01000
C 	C 	0.49380 0.22090 0.90580 -0.07100
H 	H 	0.49000 0.21750 0.95240 0.02600
C 	C 	0.52470 0.17130 0.87000 -0.01600
H 	H 	0.54300 0.13380 0.89140 0.01800
C 	C 	0.52810 0.17830 0.80200 -0.06900
C 	C 	0.56040 0.12820 0.75800 0.35200
Eu	Eu	0.74223 0.85449 0.47989 1.51400
O 	O 	0.71090 0.91260 0.37630 -0.46300
O 	O 	0.79705 0.96630 0.33240 -0.47400
O 	O 	0.71750 0.08230 0.07620 -0.45400
O 	O 	0.80347 0.06420 0.14346 -0.47300
N 	N 	0.73000 0.00510 0.23080 -0.18500
C 	C 	0.73710 0.94850 0.33430 0.36900
C 	C 	0.69400 0.97430 0.27810 -0.07200
C 	C 	0.62690 0.96850 0.27530 -0.01200
H 	H 	0.60320 0.94760 0.31000 0.01000
C 	C 	0.59420 0.99380 0.22090 -0.07000
H 	H 	0.54760 0.99000 0.21750 0.02500
C 	C 	0.63000 0.02470 0.17130 -0.01800
H 	H 	0.60860 0.04300 0.13380 0.01800
C 	C 	0.69800 0.02810 0.17830 -0.06900
C 	C 	0.74200 0.06040 0.12820 0.35200
Eu	Eu	0.75777 0.14551 0.97989 1.51500
O 	O 	0.78910 0.08740 0.87630 -0.46300
O 	O 	0.70295 0.03370 0.83240 -0.47300
O 	O 	0.78250 0.91770 0.57620 -0.45300
O 	O 	0.69653 0.93580 0.64346 -0.47200
N 	N 	0.77000 0.99490 0.73080 -0.18600
C 	C 	0.76290 0.05150 0.83430 0.36800
C 	C 	0.80600 0.02570 0.77810 -0.07000
C 	C 	0.87310 0.03150 0.77530 -0.01400
H 	H 	0.89680 0.05240 0.81000 0.01100
C 	C 	0.90580 0.00620 0.72090 -0.06600
H 	H 	0.95240 0.01000 0.71750 0.02400
C 	C 	0.87000 0.97530 0.67130 -0.02100
H 	H 	0.89140 0.95700 0.63380 0.01900
C 	C 	0.80200 0.97190 0.67830 -0.06800
C 	C 	0.75800 0.93960 0.62820 0.35200
Eu	Eu	0.25777 0.35449 0.02011 1.51200
O 	O 	0.28910 0.41260 0.12370 -0.46300
O 	O 	0.20295 0.46630 0.16760 -0.47400
O 	O 	0.28250 0.58230 0.42380 -0.45400
O 	O 	0.19653 0.56420 0.35654 -0.47200
N 	N 	0.27000 0.50510 0.26920 -0.18500
C 	C 	0.26290 0.44850 0.16570 0.36900
C 	C 	0.30600 0.47430 0.22190 -0.07200
C 	C 	0.37310 0.46850 0.22470 -0.01200
H 	H 	0.39680 0.44760 0.19000 0.01000
C 	C 	0.40580 0.49380 0.27910 -0.07100
H 	H 	0.45240 0.49000 0.28250 0.02500
C 	C 	0.37000 0.52470 0.32870 -0.01600
H 	H 	0.39140 0.54300 0.36620 0.01800
C 	C 	0.30200 0.52810 0.32170 -0.06900
C 	C 	0.25800 0.56040 0.37180 0.35200
Eu	Eu	0.24223 0.64551 0.52011 1.51400
O 	O 	0.21090 0.58740 0.62370 -0.46300
O 	O 	0.29705 0.53370 0.66760 -0.47400
O 	O 	0.21750 0.41770 0.92380 -0.45300
O 	O 	0.30347 0.43580 0.85654 -0.47200
N 	N 	0.23000 0.49490 0.76920 -0.18500
C 	C 	0.23710 0.55150 0.66570 0.36900
C 	C 	0.19400 0.52570 0.72190 -0.07200
C 	C 	0.12690 0.53150 0.72470 -0.01100
H 	H 	0.10320 0.55240 0.69000 0.01000
C 	C 	0.09420 0.50620 0.77910 -0.07100
H 	H 	0.04760 0.51000 0.78250 0.02600
C 	C 	0.13000 0.47530 0.82870 -0.01600
H 	H 	0.10860 0.45700 0.86620 0.01800
C 	C 	0.19800 0.47190 0.82170 -0.06900
C 	C 	0.24200 0.43960 0.87180 0.35200
Eu	Eu	0.47989 0.74223 0.85449 1.51400
O 	O 	0.37630 0.71090 0.91260 -0.46300
O 	O 	0.33240 0.79705 0.96630 -0.47400
O 	O 	0.07620 0.71750 0.08230 -0.45400
O 	O 	0.14346 0.80347 0.06420 -0.47300
N 	N 	0.23080 0.73000 0.00510 -0.18500
C 	C 	0.33430 0.73710 0.94850 0.36900
C 	C 	0.27810 0.69400 0.97430 -0.07200
C 	C 	0.27530 0.62690 0.96850 -0.01200
H 	H 	0.31000 0.60320 0.94760 0.01000
C 	C 	0.22090 0.59420 0.99380 -0.07000
H 	H 	0.21750 0.54760 0.99000 0.02500
C 	C 	0.17130 0.63000 0.02470 -0.01800
H 	H 	0.13380 0.60860 0.04300 0.01800
C 	C 	0.17830 0.69800 0.02810 -0.06900
C 	C 	0.12820 0.74200 0.06040 0.35200
Eu	Eu	0.97989 0.75777 0.14551 1.51500
O 	O 	0.87630 0.78910 0.08740 -0.46300
O 	O 	0.83240 0.70295 0.03370 -0.47300
O 	O 	0.57620 0.78250 0.91770 -0.45300
O 	O 	0.64346 0.69653 0.93580 -0.47200
N 	N 	0.73080 0.77000 0.99490 -0.18600
C 	C 	0.83430 0.76290 0.05150 0.36800
C 	C 	0.77810 0.80600 0.02570 -0.07000
C 	C 	0.77530 0.87310 0.03150 -0.01400
H 	H 	0.81000 0.89680 0.05240 0.01100
C 	C 	0.72090 0.90580 0.00620 -0.06600
H 	H 	0.71750 0.95240 0.01000 0.02400
C 	C 	0.67130 0.87000 0.97530 -0.02100
H 	H 	0.63380 0.89140 0.95700 0.01900
C 	C 	0.67830 0.80200 0.97190 -0.06800
C 	C 	0.62820 0.75800 0.93960 0.35200
Eu	Eu	0.02011 0.25777 0.35449 1.51200
O 	O 	0.12370 0.28910 0.41260 -0.46300
O 	O 	0.16760 0.20295 0.46630 -0.47400
O 	O 	0.42380 0.28250 0.58230 -0.45400
O 	O 	0.35654 0.19653 0.56420 -0.47200
N 	N 	0.26920 0.27000 0.50510 -0.18500
C 	C 	0.16570 0.26290 0.44850 0.36900
C 	C 	0.22190 0.30600 0.47430 -0.07200
C 	C 	0.22470 0.37310 0.46850 -0.01200
H 	H 	0.19000 0.39680 0.44760 0.01000
C 	C 	0.27910 0.40580 0.49380 -0.07100
H 	H 	0.28250 0.45240 0.49000 0.02500
C 	C 	0.32870 0.37000 0.52470 -0.01600
H 	H 	0.36620 0.39140 0.54300 0.01800
C 	C 	0.32170 0.30200 0.52810 -0.06900
C 	C 	0.37180 0.25800 0.56040 0.35200
Eu	Eu	0.52011 0.24223 0.64551 1.51400
O 	O 	0.62370 0.21090 0.58740 -0.46300
O 	O 	0.66760 0.29705 0.53370 -0.47400
O 	O 	0.92380 0.21750 0.41770 -0.45300
O 	O 	0.85654 0.30347 0.43580 -0.47200
N 	N 	0.76920 0.23000 0.49490 -0.18500
C 	C 	0.66570 0.23710 0.55150 0.36900
C 	C 	0.72190 0.19400 0.52570 -0.07200
C 	C 	0.72470 0.12690 0.53150 -0.01100
H 	H 	0.69000 0.10320 0.55240 0.01000
C 	C 	0.77910 0.09420 0.50620 -0.07100
H 	H 	0.78250 0.04760 0.51000 0.02600
C 	C 	0.82870 0.13000 0.47530 -0.01600
H 	H 	0.86620 0.10860 0.45700 0.01800
C 	C 	0.82170 0.19800 0.47190 -0.06900
C 	C 	0.87180 0.24200 0.43960 0.35200
Eu	Eu	0.85449 0.47989 0.74223 1.51400
O 	O 	0.91260 0.37630 0.71090 -0.46300
O 	O 	0.96630 0.33240 0.79705 -0.47400
O 	O 	0.08230 0.07620 0.71750 -0.45400
O 	O 	0.06420 0.14346 0.80347 -0.47300
N 	N 	0.00510 0.23080 0.73000 -0.18500
C 	C 	0.94850 0.33430 0.73710 0.36900
C 	C 	0.97430 0.27810 0.69400 -0.07200
C 	C 	0.96850 0.27530 0.62690 -0.01200
H 	H 	0.94760 0.31000 0.60320 0.01000
C 	C 	0.99380 0.22090 0.59420 -0.07000
H 	H 	0.99000 0.21750 0.54760 0.02500
C 	C 	0.02470 0.17130 0.63000 -0.01800
H 	H 	0.04300 0.13380 0.60860 0.01800
C 	C 	0.02810 0.17830 0.69800 -0.06900
C 	C 	0.06040 0.12820 0.74200 0.35200
Eu	Eu	0.14551 0.97989 0.75777 1.51500
O 	O 	0.08740 0.87630 0.78910 -0.46300
O 	O 	0.03370 0.83240 0.70295 -0.47300
O 	O 	0.91770 0.57620 0.78250 -0.45300
O 	O 	0.93580 0.64346 0.69653 -0.47200
N 	N 	0.99490 0.73080 0.77000 -0.18600
C 	C 	0.05150 0.83430 0.76290 0.36800
C 	C 	0.02570 0.77810 0.80600 -0.07000
C 	C 	0.03150 0.77530 0.87310 -0.01400
H 	H 	0.05240 0.81000 0.89680 0.01100
C 	C 	0.00620 0.72090 0.90580 -0.06600
H 	H 	0.01000 0.71750 0.95240 0.02400
C 	C 	0.97530 0.67130 0.87000 -0.02100
H 	H 	0.95700 0.63380 0.89140 0.01900
C 	C 	0.97190 0.67830 0.80200 -0.06800
C 	C 	0.93960 0.62820 0.75800 0.35200
Eu	Eu	0.35449 0.02011 0.25777 1.51200
O 	O 	0.41260 0.12370 0.28910 -0.46300
O 	O 	0.46630 0.16760 0.20295 -0.47400
O 	O 	0.58230 0.42380 0.28250 -0.45400
O 	O 	0.56420 0.35654 0.19653 -0.47200
N 	N 	0.50510 0.26920 0.27000 -0.18500
C 	C 	0.44850 0.16570 0.26290 0.36900
C 	C 	0.47430 0.22190 0.30600 -0.07200
C 	C 	0.46850 0.22470 0.37310 -0.01200
H 	H 	0.44760 0.19000 0.39680 0.01000
C 	C 	0.49380 0.27910 0.40580 -0.07100
H 	H 	0.49000 0.28250 0.45240 0.02500
C 	C 	0.52470 0.32870 0.37000 -0.01600
H 	H 	0.54300 0.36620 0.39140 0.01800
C 	C 	0.52810 0.32170 0.30200 -0.06900
C 	C 	0.56040 0.37180 0.25800 0.35200
Eu	Eu	0.64551 0.52011 0.24223 1.51400
O 	O 	0.58740 0.62370 0.21090 -0.46300
O 	O 	0.53370 0.66760 0.29705 -0.47400
O 	O 	0.41770 0.92380 0.21750 -0.45300
O 	O 	0.43580 0.85654 0.30347 -0.47200
N 	N 	0.49490 0.76920 0.23000 -0.18500
C 	C 	0.55150 0.66570 0.23710 0.36900
C 	C 	0.52570 0.72190 0.19400 -0.07200
C 	C 	0.53150 0.72470 0.12690 -0.01100
H 	H 	0.55240 0.69000 0.10320 0.01000
C 	C 	0.50620 0.77910 0.09420 -0.07100
H 	H 	0.51000 0.78250 0.04760 0.02600
C 	C 	0.47530 0.82870 0.13000 -0.01600
H 	H 	0.45700 0.86620 0.10860 0.01800
C 	C 	0.47190 0.82170 0.19800 -0.06900
C 	C 	0.43960 0.87180 0.24200 0.35200
