data_crystal

_cell_length_a 9.53690
_cell_length_b 9.15440
_cell_length_c 13.31310
_cell_angle_alpha 90.00000
_cell_angle_beta  90.48300
_cell_angle_gamma 90.00000

_symmetry_space_group_name_	'P 1'
_symmetry_space_group_name_H-M	'P 1'

loop_
_symmetry_equiv_pos_as_xyz
  x,y,z

loop_
_atom_site_label
_atom_site_type_symbol
_atom_site_fract_x
_atom_site_fract_y
_atom_site_fract_z
_atom_site_charge
O 	O 	0.81971 0.88968 0.45533 -0.38800
C 	C 	0.75445 0.77233 0.47194 0.50200
H 	H 	0.80320 0.69940 0.50610 -0.04400
O 	O 	0.63367 0.74520 0.44754 -0.25800
O 	O 	0.90328 0.19642 0.45844 -0.51700
C 	C 	0.77879 0.24219 0.47021 0.52300
H 	H 	0.71590 0.17820 0.50000 -0.16900
O 	O 	0.73391 0.36179 0.44620 -0.30200
O 	O 	0.58236 0.52059 0.85536 -0.49200
C 	C 	0.53467 0.51223 0.76651 0.53200
H 	H 	0.44140 0.48420 0.75950 -0.13300
O 	O 	0.59753 0.53680 0.68947 -0.27500
O 	O 	0.68029 0.38968 0.04467 -0.54200
C 	C 	0.74555 0.27233 0.02806 0.18600
H 	H 	0.69680 0.19940 0.99390 0.08000
O 	O 	0.86633 0.24520 0.05246 -0.21400
O 	O 	0.59672 0.69642 0.04156 -0.57800
C 	C 	0.72121 0.74219 0.02979 0.49500
H 	H 	0.78410 0.67820 -0.00000 -0.09400
O 	O 	0.76609 0.86179 0.05380 -0.19000
O 	O 	0.91764 0.02059 0.64464 -0.58300
C 	C 	0.96533 0.01223 0.73349 0.55300
H 	H 	0.05860 0.98420 0.74050 -0.08400
O 	O 	0.90247 0.03680 0.81053 -0.28200
O 	O 	0.18029 0.11032 0.54467 -0.79800
C 	C 	0.24555 0.22767 0.52806 0.60600
H 	H 	0.19680 0.30060 0.49390 -0.22100
O 	O 	0.36633 0.25480 0.55246 -0.40200
O 	O 	0.09672 0.80358 0.54156 -0.60700
C 	C 	0.22121 0.75781 0.52979 0.53200
H 	H 	0.28410 0.82180 0.50000 -0.08600
O 	O 	0.26609 0.63821 0.55380 -0.34400
O 	O 	0.41764 0.47941 0.14464 -0.65800
C 	C 	0.46533 0.48777 0.23349 0.56200
H 	H 	0.55860 0.51580 0.24050 -0.13600
O 	O 	0.40247 0.46320 0.31053 -0.38100
O 	O 	0.31971 0.61032 0.95533 -0.62000
C 	C 	0.25445 0.72767 0.97194 0.89600
H 	H 	0.30320 0.80060 0.00610 -0.31800
O 	O 	0.13367 0.75480 0.94754 -0.37500
O 	O 	0.40328 0.30358 0.95844 -0.65400
C 	C 	0.27879 0.25781 0.97021 0.92900
H 	H 	0.21590 0.32180 -0.00000 -0.44500
O 	O 	0.23391 0.13821 0.94620 -0.51700
O 	O 	0.08236 0.97941 0.35536 -0.55300
C 	C 	0.03467 0.98777 0.26651 0.52600
H 	H 	0.94140 0.01580 0.25950 -0.16400
O 	O 	0.09753 0.96320 0.18947 -0.32000
Sc	Sc	0.00000 0.00000 0.50000 2.27700
Sc	Sc	0.50000 0.50000 -0.00000 2.32800
K 	K 	0.50000 0.50000 0.50000 0.68700
K 	K 	-0.00000 0.00000 -0.00000 0.53000
