data_crystal

_cell_length_a 10.41630
_cell_length_b 10.54200
_cell_length_c 17.04780
_cell_angle_alpha 90.00000
_cell_angle_beta  95.85400
_cell_angle_gamma 90.00000

_symmetry_space_group_name_	'P 1'
_symmetry_space_group_name_H-M	'P 1'

loop_
_symmetry_equiv_pos_as_xyz
  x,y,z

loop_
_atom_site_label
_atom_site_type_symbol
_atom_site_fract_x
_atom_site_fract_y
_atom_site_fract_z
_atom_site_charge
C 	C 	0.95770 0.23130 0.11370 0.54400
C 	C 	0.85130 0.28130 0.15830 -0.21200
C 	C 	0.87800 0.34630 0.22790 0.12000
H 	H 	0.96350 0.35850 0.24820 0.03400
C 	C 	0.77970 0.39410 0.26870 -0.16900
C 	C 	0.65330 0.37550 0.23760 0.08800
H 	H 	0.58690 0.40870 0.26380 0.02000
C 	C 	0.62310 0.30880 0.16840 -0.16000
C 	C 	0.72270 0.26230 0.12860 0.10200
H 	H 	0.70370 0.21790 0.08170 -0.00600
C 	C 	0.48400 0.28290 0.13650 0.33900
C 	C 	0.81010 0.46230 0.34610 0.40700
Cd	Cd	0.24387 0.22521 0.07965 1.16400
O 	O 	0.07010 0.25400 0.14260 -0.61600
O 	O 	0.92530 0.17580 0.04980 -0.53000
O 	O 	0.39710 0.31420 0.17900 -0.40400
O 	O 	0.46290 0.23470 0.07050 -0.45700
O 	O 	0.72350 0.53000 0.36890 -0.46100
O 	O 	0.91980 0.44270 0.37970 -0.44700
C 	C 	0.04230 0.73130 0.38630 0.25700
C 	C 	0.14870 0.78130 0.34170 -0.13900
C 	C 	0.12200 0.84630 0.27210 0.07700
H 	H 	0.03650 0.85850 0.25180 -0.00800
C 	C 	0.22030 0.89410 0.23130 -0.18100
C 	C 	0.34670 0.87550 0.26240 0.07900
H 	H 	0.41310 0.90870 0.23620 0.04100
C 	C 	0.37690 0.80880 0.33160 -0.12100
C 	C 	0.27730 0.76230 0.37140 0.04800
H 	H 	0.29630 0.71790 0.41830 0.02700
C 	C 	0.51600 0.78290 0.36350 0.32400
C 	C 	0.18990 0.96230 0.15390 0.50100
Cd	Cd	0.75613 0.72521 0.42035 1.19400
O 	O 	0.92990 0.75400 0.35740 -0.35600
O 	O 	0.07470 0.67580 0.45020 -0.49400
O 	O 	0.60290 0.81420 0.32100 -0.36500
O 	O 	0.53710 0.73470 0.42950 -0.41000
O 	O 	0.27650 0.03000 0.13110 -0.56800
O 	O 	0.08020 0.94270 0.12030 -0.53200
C 	C 	0.04230 0.76870 0.88630 0.25300
C 	C 	0.14870 0.71870 0.84170 -0.11200
C 	C 	0.12200 0.65370 0.77210 0.05000
H 	H 	0.03650 0.64150 0.75180 0.00200
C 	C 	0.22030 0.60590 0.73130 -0.14400
C 	C 	0.34670 0.62450 0.76240 0.05100
H 	H 	0.41310 0.59130 0.73620 0.04200
C 	C 	0.37690 0.69120 0.83160 -0.09700
C 	C 	0.27730 0.73770 0.87140 0.03000
H 	H 	0.29630 0.78210 0.91830 0.05000
C 	C 	0.51600 0.71710 0.86350 0.31600
C 	C 	0.18990 0.53770 0.65390 0.40400
Cd	Cd	0.75613 0.77479 0.92035 1.20200
O 	O 	0.92990 0.74600 0.85740 -0.34500
O 	O 	0.07470 0.82420 0.95020 -0.44700
O 	O 	0.60290 0.68580 0.82100 -0.36100
O 	O 	0.53710 0.76530 0.92950 -0.38600
O 	O 	0.27650 0.47000 0.63110 -0.47200
O 	O 	0.08020 0.55730 0.62030 -0.51800
C 	C 	0.95770 0.26870 0.61370 0.53300
C 	C 	0.85130 0.21870 0.65830 -0.18700
C 	C 	0.87800 0.15370 0.72790 0.09300
H 	H 	0.96350 0.14150 0.74820 0.04300
C 	C 	0.77970 0.10590 0.76870 -0.13300
C 	C 	0.65330 0.12450 0.73760 0.06100
H 	H 	0.58690 0.09130 0.76380 0.02100
C 	C 	0.62310 0.19120 0.66840 -0.13600
C 	C 	0.72270 0.23770 0.62860 0.08400
H 	H 	0.70370 0.28210 0.58170 0.01500
C 	C 	0.48400 0.21710 0.63650 0.33000
C 	C 	0.81010 0.03770 0.84610 0.31600
Cd	Cd	0.24387 0.27479 0.57965 1.17000
O 	O 	0.07010 0.24600 0.64260 -0.60000
O 	O 	0.92530 0.32420 0.54980 -0.50000
O 	O 	0.39710 0.18580 0.67900 -0.39900
O 	O 	0.46290 0.26530 0.57050 -0.43400
O 	O 	0.72350 0.97000 0.86890 -0.37000
O 	O 	0.91980 0.05730 0.87970 -0.41800
Cd	Cd	-0.00000 0.00000 -0.00000 1.11000
Cd	Cd	0.00000 0.50000 0.50000 1.15300
