data_crystal

_cell_length_a 10.20080
_cell_length_b 20.44940
_cell_length_c 20.58930
_cell_angle_alpha 88.58900
_cell_angle_beta  76.39500
_cell_angle_gamma 87.03300

_symmetry_space_group_name_	'P 1'
_symmetry_space_group_name_H-M	'P 1'

loop_
_symmetry_equiv_pos_as_xyz
  x,y,z

loop_
_atom_site_label
_atom_site_type_symbol
_atom_site_fract_x
_atom_site_fract_y
_atom_site_fract_z
_atom_site_charge
O 	O 	0.14730 0.73570 0.16372 -0.41000
C 	C 	0.70590 0.32790 0.35890 0.37000
C 	C 	0.58200 0.28830 0.37100 -0.12900
C 	C 	0.58890 0.22420 0.39420 0.06800
H 	H 	0.67070 0.20570 0.39990 0.03200
C 	C 	0.47420 0.18740 0.40910 -0.13600
C 	C 	0.35490 0.21430 0.39710 0.06000
H 	H 	0.27860 0.18960 0.40590 0.03500
C 	C 	0.34720 0.27750 0.37230 -0.11000
C 	C 	0.46070 0.31550 0.36100 0.05000
H 	H 	0.45490 0.35890 0.34690 0.04300
C 	C 	0.48020 0.12030 0.44010 0.39500
C 	C 	0.21520 0.30610 0.36030 0.32600
C 	C 	0.92590 0.36180 0.19080 0.38700
C 	C 	0.96350 0.32730 0.12440 -0.12300
C 	C 	0.09730 0.30940 0.09540 0.05700
H 	H 	0.16480 0.32030 0.11610 0.04500
C 	C 	0.13110 0.27540 0.03540 -0.10700
C 	C 	0.03000 0.25640 0.00620 0.05800
H 	H 	0.05210 0.23240 0.96700 0.03800
C 	C 	0.89520 0.27320 0.03550 -0.12800
C 	C 	0.86390 0.31050 0.09330 0.06400
H 	H 	0.77470 0.32430 0.11120 0.04300
C 	C 	0.27750 0.25720 0.00550 0.33100
C 	C 	0.78220 0.25010 0.00760 0.37100
C 	C 	0.99510 0.51470 0.26990 0.36200
C 	C 	0.12930 0.54650 0.24800 -0.11600
C 	C 	0.13160 0.60730 0.21650 0.05400
H 	H 	0.05150 0.62840 0.21170 0.04400
C 	C 	0.25370 0.63670 0.19220 -0.11100
C 	C 	0.37220 0.60490 0.19970 0.04000
H 	H 	0.45420 0.62370 0.18200 0.05200
C 	C 	0.37020 0.54520 0.23320 -0.09100
C 	C 	0.24760 0.51530 0.25730 0.04000
H 	H 	0.24540 0.47500 0.27940 0.04200
C 	C 	0.25800 0.70320 0.15840 0.37400
C 	C 	0.50080 0.51460 0.24430 0.30500
C 	C 	0.38890 0.87050 0.16870 0.37700
C 	C 	0.49090 0.88290 0.20860 -0.13600
C 	C 	0.62820 0.87360 0.18020 0.06100
H 	H 	0.65700 0.85870 0.13660 0.03600
C 	C 	0.72250 0.88610 0.21640 -0.11600
C 	C 	0.67970 0.90890 0.28110 0.06400
H 	H 	0.74290 0.91840 0.30510 0.02800
C 	C 	0.54200 0.91760 0.31050 -0.13900
C 	C 	0.44930 0.90450 0.27390 0.07400
H 	H 	0.35760 0.91030 0.29340 0.03200
C 	C 	0.87140 0.87410 0.18660 0.32700
C 	C 	0.49680 0.94300 0.38070 0.39100
Cd	Cd	0.98413 0.36566 0.33926 1.21800
Cd	Cd	0.45396 0.77897 0.03517 1.22100
Cd	Cd	0.13473 0.84238 0.13364 1.21900
Cd	Cd	0.34614 0.99409 0.50605 1.20000
Cd	Cd	0.72949 0.46802 0.27948 1.22300
O 	O 	0.81740 0.29650 0.35300 -0.42600
O 	O 	0.69070 0.38898 0.35905 -0.48500
O 	O 	0.37240 0.09071 0.45499 -0.45800
O 	O 	0.59310 0.09899 0.44902 -0.46100
O 	O 	0.11560 0.27180 0.37260 -0.36500
O 	O 	0.21060 0.36291 0.33760 -0.38700
O 	O 	0.01110 0.35903 0.22580 -0.42000
O 	O 	0.81090 0.38955 0.20545 -0.42800
O 	O 	0.66770 0.27874 0.02461 -0.39300
O 	O 	0.80490 0.20080 0.97061 -0.50700
O 	O 	0.31460 0.24080 0.94616 -0.34400
O 	O 	0.35980 0.25870 0.04120 -0.39400
O 	O 	0.97580 0.47579 0.31904 -0.49000
O 	O 	0.90760 0.52987 0.23746 -0.40600
O 	O 	0.37220 0.72066 0.12798 -0.43200
O 	O 	0.61020 0.53870 0.21399 -0.34500
O 	O 	0.49800 0.46783 0.28427 -0.37100
O 	O 	0.42900 0.86414 0.10643 -0.48500
O 	O 	0.26830 0.86780 0.20018 -0.42800
O 	O 	0.37250 0.94761 0.40630 -0.43900
O 	O 	0.58690 0.95845 0.40885 -0.48400
O 	O 	0.95370 0.89740 0.21440 -0.37400
O 	O 	0.90780 0.83990 0.13592 -0.38300
O 	O 	0.85270 0.26430 0.83628 -0.41000
C 	C 	0.29410 0.67210 0.64110 0.37000
C 	C 	0.41800 0.71170 0.62900 -0.12900
C 	C 	0.41110 0.77580 0.60580 0.06800
H 	H 	0.32930 0.79430 0.60010 0.03200
C 	C 	0.52580 0.81260 0.59090 -0.13600
C 	C 	0.64510 0.78570 0.60290 0.06000
H 	H 	0.72140 0.81040 0.59410 0.03500
C 	C 	0.65280 0.72250 0.62770 -0.11000
C 	C 	0.53930 0.68450 0.63900 0.05000
H 	H 	0.54510 0.64110 0.65310 0.04300
C 	C 	0.51980 0.87970 0.55990 0.39500
C 	C 	0.78480 0.69390 0.63970 0.32600
C 	C 	0.07410 0.63820 0.80920 0.38700
C 	C 	0.03650 0.67270 0.87560 -0.12300
C 	C 	0.90270 0.69060 0.90460 0.05700
H 	H 	0.83520 0.67970 0.88390 0.04500
C 	C 	0.86890 0.72460 0.96460 -0.10700
C 	C 	0.97000 0.74360 0.99380 0.05800
H 	H 	0.94790 0.76760 0.03300 0.03800
C 	C 	0.10480 0.72680 0.96450 -0.12800
C 	C 	0.13610 0.68950 0.90670 0.06400
H 	H 	0.22530 0.67570 0.88880 0.04300
C 	C 	0.72250 0.74280 0.99450 0.33100
C 	C 	0.21780 0.74990 0.99240 0.37100
C 	C 	0.00490 0.48530 0.73010 0.36200
C 	C 	0.87070 0.45350 0.75200 -0.11600
C 	C 	0.86840 0.39270 0.78350 0.05400
H 	H 	0.94850 0.37160 0.78830 0.04400
C 	C 	0.74630 0.36330 0.80780 -0.11100
C 	C 	0.62780 0.39510 0.80030 0.04000
H 	H 	0.54580 0.37630 0.81800 0.05200
C 	C 	0.62980 0.45480 0.76680 -0.09100
C 	C 	0.75240 0.48470 0.74270 0.04000
H 	H 	0.75460 0.52500 0.72060 0.04200
C 	C 	0.74200 0.29680 0.84160 0.37400
C 	C 	0.49920 0.48540 0.75570 0.30500
C 	C 	0.61110 0.12950 0.83130 0.37700
C 	C 	0.50910 0.11710 0.79140 -0.13600
C 	C 	0.37180 0.12640 0.81980 0.06100
H 	H 	0.34300 0.14130 0.86340 0.03600
C 	C 	0.27750 0.11390 0.78360 -0.11600
C 	C 	0.32030 0.09110 0.71890 0.06400
H 	H 	0.25710 0.08160 0.69490 0.02800
C 	C 	0.45800 0.08240 0.68950 -0.13900
C 	C 	0.55070 0.09550 0.72610 0.07400
H 	H 	0.64240 0.08970 0.70660 0.03200
C 	C 	0.12860 0.12590 0.81340 0.32700
C 	C 	0.50320 0.05700 0.61930 0.39100
Cd	Cd	0.01587 0.63434 0.66074 1.21800
Cd	Cd	0.54604 0.22103 0.96482 1.22100
Cd	Cd	0.86527 0.15762 0.86636 1.21900
Cd	Cd	0.65386 0.00591 0.49395 1.20000
Cd	Cd	0.27051 0.53198 0.72052 1.22300
O 	O 	0.18260 0.70350 0.64700 -0.42600
O 	O 	0.30930 0.61102 0.64095 -0.48500
O 	O 	0.62760 0.90929 0.54501 -0.45800
O 	O 	0.40690 0.90101 0.55098 -0.46100
O 	O 	0.88440 0.72820 0.62740 -0.36500
O 	O 	0.78940 0.63709 0.66240 -0.38700
O 	O 	0.98890 0.64097 0.77420 -0.42000
O 	O 	0.18910 0.61045 0.79455 -0.42800
O 	O 	0.33230 0.72126 0.97539 -0.39300
O 	O 	0.19510 0.79920 0.02939 -0.50700
O 	O 	0.68540 0.75920 0.05384 -0.34400
O 	O 	0.64020 0.74130 0.95880 -0.39400
O 	O 	0.02420 0.52421 0.68096 -0.49000
O 	O 	0.09240 0.47013 0.76254 -0.40600
O 	O 	0.62780 0.27934 0.87202 -0.43200
O 	O 	0.38980 0.46130 0.78601 -0.34500
O 	O 	0.50200 0.53217 0.71573 -0.37100
O 	O 	0.57100 0.13586 0.89357 -0.48500
O 	O 	0.73170 0.13220 0.79982 -0.42800
O 	O 	0.62750 0.05239 0.59370 -0.43900
O 	O 	0.41310 0.04155 0.59115 -0.48400
O 	O 	0.04630 0.10260 0.78560 -0.37400
O 	O 	0.09220 0.16010 0.86408 -0.38300
