data_crystal

_cell_length_a 13.95380
_cell_length_b 13.95380
_cell_length_c 24.92460
_cell_angle_alpha 90.00000
_cell_angle_beta  90.00000
_cell_angle_gamma 120.00000

_symmetry_space_group_name_	'P 1'
_symmetry_space_group_name_H-M	'P 1'

loop_
_symmetry_equiv_pos_as_xyz
  x,y,z

loop_
_atom_site_label
_atom_site_type_symbol
_atom_site_fract_x
_atom_site_fract_y
_atom_site_fract_z
_atom_site_charge
Zn	Zn	0.14997 0.69248 0.04676 1.22300
O 	O 	0.00290 0.61280 0.10615 -0.58700
O 	O 	0.97730 0.60600 0.02073 -0.41200
O 	O 	0.29670 0.69180 0.07393 -0.39700
O 	O 	0.16100 0.54670 0.03872 -0.41900
O 	O 	0.12890 0.84960 0.16232 -0.51700
O 	O 	0.20580 0.83320 0.08817 -0.51600
N 	N 	0.47480 0.35250 0.10448 -0.20600
N 	N 	0.20380 0.76830 0.97348 -0.26700
N 	N 	0.30470 0.94910 0.83063 -0.09000
C 	C 	0.58960 0.40610 0.09372 0.20600
C 	C 	0.66200 0.40390 0.13218 -0.25000
H 	H 	0.63450 0.36490 0.16400 0.13800
C 	C 	0.77370 0.46000 0.12235 0.16200
H 	H 	0.82180 0.45890 0.14790 -0.03000
C 	C 	0.81570 0.51780 0.07540 -0.23600
C 	C 	0.74460 0.51790 0.03729 0.16500
H 	H 	0.77290 0.55530 0.00510 -0.00900
C 	C 	0.63180 0.46330 0.04600 -0.24600
H 	H 	0.58450 0.46480 0.02010 0.12400
C 	C 	0.41790 0.41130 0.09403 0.18600
C 	C 	0.46660 0.52170 0.10840 -0.22300
H 	H 	0.53490 0.55600 0.12560 0.11800
C 	C 	0.41450 0.58030 0.09734 0.11300
H 	H 	0.44830 0.65470 0.10670 0.00600
C 	C 	0.31200 0.53040 0.07238 -0.16800
C 	C 	0.26370 0.41940 0.05866 0.11400
H 	H 	0.19460 0.38460 0.04220 0.00200
C 	C 	0.31530 0.36050 0.06875 -0.22300
H 	H 	0.28210 0.28640 0.05880 0.11000
C 	C 	0.41530 0.23730 0.11480 0.21900
C 	C 	0.32450 0.19420 0.14968 -0.26200
H 	H 	0.30870 0.24150 0.16910 0.12600
C 	C 	0.25860 0.08110 0.15507 0.17900
H 	H 	0.19820 0.05260 0.17820 -0.02800
C 	C 	0.28090 0.00960 0.12676 -0.26600
C 	C 	0.37480 0.05300 0.09571 0.18200
H 	H 	0.39360 0.00550 0.07850 -0.02300
C 	C 	0.44190 0.16640 0.08970 -0.26700
H 	H 	0.50510 0.19440 0.06850 0.13400
C 	C 	0.93780 0.58140 0.06600 0.42500
C 	C 	0.25240 0.59280 0.06079 0.35100
C 	C 	0.20010 0.88790 0.12560 0.50000
C 	C 	0.29230 0.86940 0.97233 0.11000
H 	H 	0.33130 0.89770 0.00410 0.00100
C 	C 	0.32980 0.93480 0.92708 -0.17100
H 	H 	0.38990 0.00640 0.92840 0.10600
C 	C 	0.27510 0.89030 0.88040 0.18300
C 	C 	0.18900 0.78250 0.87948 -0.21800
H 	H 	0.15450 0.74940 0.84730 0.11400
C 	C 	0.15520 0.72510 0.92655 0.12600
H 	H 	0.09580 0.65300 0.92590 -0.02000
Zn	Zn	0.30752 0.45749 0.38010 1.22300
O 	O 	0.38720 0.39010 0.43948 -0.56400
O 	O 	0.39400 0.37130 0.35406 -0.42000
O 	O 	0.30820 0.60490 0.40726 -0.39600
O 	O 	0.45330 0.61430 0.37205 -0.41300
O 	O 	0.15040 0.27930 0.49565 -0.51200
O 	O 	0.16680 0.37260 0.42150 -0.51000
N 	N 	0.64750 0.12230 0.43781 -0.19000
N 	N 	0.23170 0.43550 0.30681 -0.28200
N 	N 	0.05090 0.35560 0.16396 -0.12000
C 	C 	0.59390 0.18350 0.42705 0.19500
C 	C 	0.59610 0.25810 0.46551 -0.24100
H 	H 	0.63510 0.26960 0.49733 0.13300
C 	C 	0.54000 0.31370 0.45568 0.15000
H 	H 	0.54110 0.36290 0.48123 -0.02800
C 	C 	0.48220 0.29790 0.40873 -0.22600
C 	C 	0.48210 0.22670 0.37062 0.15200
H 	H 	0.44470 0.21760 0.33843 -0.00900
C 	C 	0.53670 0.16850 0.37933 -0.23700
H 	H 	0.53520 0.11970 0.35343 0.11700
C 	C 	0.58870 0.00660 0.42736 0.10800
C 	C 	0.47830 0.94490 0.44173 -0.14400
H 	H 	0.44400 0.97890 0.45893 0.09700
C 	C 	0.41970 0.83420 0.43067 0.05900
H 	H 	0.34530 0.79360 0.44003 0.02300
C 	C 	0.46960 0.78160 0.40571 -0.12700
C 	C 	0.58060 0.84430 0.39199 0.06100
H 	H 	0.61540 0.81000 0.37553 0.02600
C 	C 	0.63950 0.95480 0.40208 -0.14300
H 	H 	0.71360 0.99570 0.39213 0.09600
C 	C 	0.76270 0.17800 0.44813 0.18900
C 	C 	0.80580 0.13030 0.48301 -0.22200
H 	H 	0.75850 0.06720 0.50243 0.10900
C 	C 	0.91890 0.17750 0.48840 0.13000
H 	H 	0.94740 0.14560 0.51153 -0.00100
C 	C 	0.99040 0.27130 0.46009 -0.19100
C 	C 	0.94700 0.32180 0.42904 0.13200
H 	H 	0.99450 0.38810 0.41183 0.00900
C 	C 	0.83360 0.27550 0.42303 -0.22600
H 	H 	0.80560 0.31070 0.40183 0.12200
C 	C 	0.41860 0.35640 0.39933 0.39500
C 	C 	0.40720 0.65960 0.39412 0.33600
C 	C 	0.11210 0.31220 0.45893 0.44700
C 	C 	0.13060 0.42290 0.30566 0.16700
H 	H 	0.10230 0.43360 0.33743 -0.02900
C 	C 	0.06520 0.39500 0.26041 -0.30000
H 	H 	0.99360 0.38350 0.26173 0.17900
C 	C 	0.10970 0.38480 0.21373 0.22900
C 	C 	0.21750 0.40650 0.21281 -0.25300
H 	H 	0.25060 0.40510 0.18063 0.12700
C 	C 	0.27490 0.43010 0.25988 0.14700
H 	H 	0.34700 0.44280 0.25923 -0.02300
Zn	Zn	0.54251 0.85003 0.71343 1.22600
O 	O 	0.60990 0.99710 0.77282 -0.53600
O 	O 	0.62870 0.02270 0.68740 -0.42300
O 	O 	0.39510 0.70330 0.74060 -0.40200
O 	O 	0.38570 0.83900 0.70539 -0.41800
O 	O 	0.72070 0.87110 0.82899 -0.50100
O 	O 	0.62740 0.79420 0.75484 -0.50800
N 	N 	0.87770 0.52520 0.77115 -0.21300
N 	N 	0.56450 0.79620 0.64015 -0.27200
N 	N 	0.64440 0.69530 0.49730 -0.10300
C 	C 	0.81650 0.41040 0.76039 0.20500
C 	C 	0.74190 0.33800 0.79885 -0.24200
H 	H 	0.73040 0.36550 0.83067 0.13600
C 	C 	0.68630 0.22630 0.78902 0.14900
H 	H 	0.63710 0.17820 0.81457 -0.03000
C 	C 	0.70210 0.18430 0.74207 -0.21900
C 	C 	0.77330 0.25540 0.70396 0.15300
H 	H 	0.78240 0.22710 0.67177 -0.00700
C 	C 	0.83150 0.36820 0.71267 -0.24000
H 	H 	0.88030 0.41550 0.68677 0.12500
C 	C 	0.99340 0.58210 0.76070 0.26200
C 	C 	0.05510 0.53340 0.77507 -0.29800
H 	H 	0.02110 0.46510 0.79227 0.13700
C 	C 	0.16580 0.58550 0.76401 0.16500
H 	H 	0.20640 0.55170 0.77337 -0.01400
C 	C 	0.21840 0.68800 0.73905 -0.20500
C 	C 	0.15570 0.73630 0.72533 0.16600
H 	H 	0.19000 0.80540 0.70887 -0.01200
C 	C 	0.04520 0.68470 0.73542 -0.29800
H 	H 	0.00430 0.71790 0.72547 0.13100
C 	C 	0.82200 0.58470 0.78147 0.21300
C 	C 	0.86970 0.67550 0.81635 -0.24400
H 	H 	0.93280 0.69130 0.83577 0.12800
C 	C 	0.82250 0.74140 0.82174 0.16000
H 	H 	0.85440 0.80180 0.84487 -0.00600
C 	C 	0.72870 0.71910 0.79343 -0.22700
C 	C 	0.67820 0.62520 0.76238 0.16100
H 	H 	0.61190 0.60640 0.74517 -0.00800
C 	C 	0.72450 0.55810 0.75637 -0.25000
H 	H 	0.68930 0.49490 0.73517 0.12900
C 	C 	0.64360 0.06220 0.73267 0.37000
C 	C 	0.34040 0.74760 0.72746 0.36400
C 	C 	0.68780 0.79990 0.79227 0.47400
C 	C 	0.57710 0.70770 0.63900 0.13800
H 	H 	0.56640 0.66870 0.67077 -0.01200
C 	C 	0.60500 0.67020 0.59375 -0.23400
H 	H 	0.61650 0.61010 0.59507 0.14300
C 	C 	0.61520 0.72490 0.54707 0.20900
C 	C 	0.59350 0.81100 0.54615 -0.23300
H 	H 	0.59490 0.84550 0.51397 0.12500
C 	C 	0.56990 0.84480 0.59322 0.14000
H 	H 	0.55720 0.90420 0.59257 -0.01400
Zn	Zn	0.69248 0.14997 0.95324 1.22200
O 	O 	0.61280 0.00290 0.89385 -0.58800
O 	O 	0.60600 0.97730 0.97927 -0.41300
O 	O 	0.69180 0.29670 0.92607 -0.39800
O 	O 	0.54670 0.16100 0.96128 -0.42000
O 	O 	0.84960 0.12890 0.83768 -0.51800
O 	O 	0.83320 0.20580 0.91183 -0.51700
N 	N 	0.35250 0.47480 0.89552 -0.20600
N 	N 	0.76830 0.20380 0.02652 -0.26700
N 	N 	0.94910 0.30470 0.16937 -0.09000
C 	C 	0.40610 0.58960 0.90628 0.20600
C 	C 	0.40390 0.66200 0.86782 -0.25000
H 	H 	0.36490 0.63450 0.83600 0.13800
C 	C 	0.46000 0.77370 0.87765 0.16200
H 	H 	0.45890 0.82180 0.85210 -0.03000
C 	C 	0.51780 0.81570 0.92460 -0.23600
C 	C 	0.51790 0.74460 0.96271 0.16500
H 	H 	0.55530 0.77290 0.99490 -0.00900
C 	C 	0.46330 0.63180 0.95400 -0.24600
H 	H 	0.46480 0.58450 0.97990 0.12400
C 	C 	0.41130 0.41790 0.90597 0.18600
C 	C 	0.52170 0.46660 0.89160 -0.22300
H 	H 	0.55600 0.53490 0.87440 0.11800
C 	C 	0.58030 0.41450 0.90266 0.11300
H 	H 	0.65470 0.44830 0.89330 0.00600
C 	C 	0.53040 0.31200 0.92762 -0.16800
C 	C 	0.41940 0.26370 0.94134 0.11400
H 	H 	0.38460 0.19460 0.95780 0.00200
C 	C 	0.36050 0.31530 0.93125 -0.22300
H 	H 	0.28640 0.28210 0.94120 0.11000
C 	C 	0.23730 0.41530 0.88520 0.21900
C 	C 	0.19420 0.32450 0.85032 -0.26200
H 	H 	0.24150 0.30870 0.83090 0.12600
C 	C 	0.08110 0.25860 0.84493 0.17900
H 	H 	0.05260 0.19820 0.82180 -0.02800
C 	C 	0.00960 0.28090 0.87324 -0.26600
C 	C 	0.05300 0.37480 0.90429 0.18200
H 	H 	0.00550 0.39360 0.92150 -0.02300
C 	C 	0.16640 0.44190 0.91030 -0.26700
H 	H 	0.19440 0.50510 0.93150 0.13400
C 	C 	0.58140 0.93780 0.93400 0.42500
C 	C 	0.59280 0.25240 0.93921 0.35100
C 	C 	0.88790 0.20010 0.87440 0.50000
C 	C 	0.86940 0.29230 0.02767 0.11000
H 	H 	0.89770 0.33130 0.99590 0.00100
C 	C 	0.93480 0.32980 0.07292 -0.17100
H 	H 	0.00640 0.38990 0.07160 0.10600
C 	C 	0.89030 0.27510 0.11960 0.18300
C 	C 	0.78250 0.18900 0.12052 -0.21800
H 	H 	0.74940 0.15450 0.15270 0.11400
C 	C 	0.72510 0.15520 0.07345 0.12600
H 	H 	0.65300 0.09580 0.07410 -0.02000
Zn	Zn	0.45749 0.30752 0.61990 1.22300
O 	O 	0.39010 0.38720 0.56052 -0.56400
O 	O 	0.37130 0.39400 0.64594 -0.42000
O 	O 	0.60490 0.30820 0.59274 -0.39600
O 	O 	0.61430 0.45330 0.62795 -0.41300
O 	O 	0.27930 0.15040 0.50435 -0.51200
O 	O 	0.37260 0.16680 0.57850 -0.51000
N 	N 	0.12230 0.64750 0.56219 -0.19000
N 	N 	0.43550 0.23170 0.69319 -0.28200
N 	N 	0.35560 0.05090 0.83604 -0.12000
C 	C 	0.18350 0.59390 0.57295 0.19500
C 	C 	0.25810 0.59610 0.53449 -0.24100
H 	H 	0.26960 0.63510 0.50267 0.13300
C 	C 	0.31370 0.54000 0.54432 0.15000
H 	H 	0.36290 0.54110 0.51877 -0.02800
C 	C 	0.29790 0.48220 0.59127 -0.22600
C 	C 	0.22670 0.48210 0.62938 0.15200
H 	H 	0.21760 0.44470 0.66157 -0.00900
C 	C 	0.16850 0.53670 0.62067 -0.23700
H 	H 	0.11970 0.53520 0.64657 0.11700
C 	C 	0.00660 0.58870 0.57264 0.10800
C 	C 	0.94490 0.47830 0.55827 -0.14400
H 	H 	0.97890 0.44400 0.54107 0.09700
C 	C 	0.83420 0.41970 0.56933 0.05900
H 	H 	0.79360 0.34530 0.55997 0.02300
C 	C 	0.78160 0.46960 0.59429 -0.12700
C 	C 	0.84430 0.58060 0.60801 0.06100
H 	H 	0.81000 0.61540 0.62447 0.02600
C 	C 	0.95480 0.63950 0.59792 -0.14300
H 	H 	0.99570 0.71360 0.60787 0.09600
C 	C 	0.17800 0.76270 0.55187 0.18900
C 	C 	0.13030 0.80580 0.51699 -0.22200
H 	H 	0.06720 0.75850 0.49757 0.10900
C 	C 	0.17750 0.91890 0.51160 0.13000
H 	H 	0.14560 0.94740 0.48847 -0.00100
C 	C 	0.27130 0.99040 0.53991 -0.19100
C 	C 	0.32180 0.94700 0.57096 0.13200
H 	H 	0.38810 0.99450 0.58817 0.00900
C 	C 	0.27550 0.83360 0.57697 -0.22600
H 	H 	0.31070 0.80560 0.59817 0.12200
C 	C 	0.35640 0.41860 0.60067 0.39500
C 	C 	0.65960 0.40720 0.60588 0.33600
C 	C 	0.31220 0.11210 0.54107 0.44700
C 	C 	0.42290 0.13060 0.69434 0.16700
H 	H 	0.43360 0.10230 0.66257 -0.02900
C 	C 	0.39500 0.06520 0.73959 -0.30000
H 	H 	0.38350 0.99360 0.73827 0.17900
C 	C 	0.38480 0.10970 0.78627 0.22900
C 	C 	0.40650 0.21750 0.78719 -0.25300
H 	H 	0.40510 0.25060 0.81937 0.12700
C 	C 	0.43010 0.27490 0.74012 0.14700
H 	H 	0.44280 0.34700 0.74077 -0.02300
Zn	Zn	0.85003 0.54251 0.28657 1.22600
O 	O 	0.99710 0.60990 0.22718 -0.53600
O 	O 	0.02270 0.62870 0.31260 -0.42300
O 	O 	0.70330 0.39510 0.25940 -0.40200
O 	O 	0.83900 0.38570 0.29461 -0.41800
O 	O 	0.87110 0.72070 0.17101 -0.50100
O 	O 	0.79420 0.62740 0.24516 -0.50800
N 	N 	0.52520 0.87770 0.22885 -0.21300
N 	N 	0.79620 0.56450 0.35985 -0.27200
N 	N 	0.69530 0.64440 0.50270 -0.10300
C 	C 	0.41040 0.81650 0.23961 0.20500
C 	C 	0.33800 0.74190 0.20115 -0.24200
H 	H 	0.36550 0.73040 0.16933 0.13600
C 	C 	0.22630 0.68630 0.21098 0.14900
H 	H 	0.17820 0.63710 0.18543 -0.03000
C 	C 	0.18430 0.70210 0.25793 -0.21900
C 	C 	0.25540 0.77330 0.29604 0.15300
H 	H 	0.22710 0.78240 0.32823 -0.00700
C 	C 	0.36820 0.83150 0.28733 -0.24000
H 	H 	0.41550 0.88030 0.31323 0.12500
C 	C 	0.58210 0.99340 0.23930 0.26200
C 	C 	0.53340 0.05510 0.22493 -0.29800
H 	H 	0.46510 0.02110 0.20773 0.13700
C 	C 	0.58550 0.16580 0.23599 0.16500
H 	H 	0.55170 0.20640 0.22663 -0.01400
C 	C 	0.68800 0.21840 0.26095 -0.20500
C 	C 	0.73630 0.15570 0.27467 0.16600
H 	H 	0.80540 0.19000 0.29113 -0.01200
C 	C 	0.68470 0.04520 0.26458 -0.29800
H 	H 	0.71790 0.00430 0.27453 0.13100
C 	C 	0.58470 0.82200 0.21853 0.21300
C 	C 	0.67550 0.86970 0.18365 -0.24400
H 	H 	0.69130 0.93280 0.16423 0.12800
C 	C 	0.74140 0.82250 0.17826 0.16000
H 	H 	0.80180 0.85440 0.15513 -0.00600
C 	C 	0.71910 0.72870 0.20657 -0.22700
C 	C 	0.62520 0.67820 0.23762 0.16100
H 	H 	0.60640 0.61190 0.25483 -0.00800
C 	C 	0.55810 0.72450 0.24363 -0.25000
H 	H 	0.49490 0.68930 0.26483 0.12900
C 	C 	0.06220 0.64360 0.26733 0.37000
C 	C 	0.74760 0.34040 0.27254 0.36400
C 	C 	0.79990 0.68780 0.20773 0.47400
C 	C 	0.70770 0.57710 0.36100 0.13800
H 	H 	0.66870 0.56640 0.32923 -0.01200
C 	C 	0.67020 0.60500 0.40625 -0.23400
H 	H 	0.61010 0.61650 0.40493 0.14300
C 	C 	0.72490 0.61520 0.45293 0.20900
C 	C 	0.81100 0.59350 0.45385 -0.23300
H 	H 	0.84550 0.59490 0.48603 0.12500
C 	C 	0.84480 0.56990 0.40678 0.14000
H 	H 	0.90420 0.55720 0.40743 -0.01400
Zn	Zn	-0.00000 0.70335 0.16667 1.22500
Zn	Zn	0.29665 0.29665 0.50000 1.23100
Zn	Zn	0.70335 0.00000 0.83333 1.22500
