data_crystal

_cell_length_a 8.90020
_cell_length_b 11.93230
_cell_length_c 15.05160
_cell_angle_alpha 90.00000
_cell_angle_beta  100.05300
_cell_angle_gamma 90.00000

_symmetry_space_group_name_	'P 1'
_symmetry_space_group_name_H-M	'P 1'

loop_
_symmetry_equiv_pos_as_xyz
  x,y,z

loop_
_atom_site_label
_atom_site_type_symbol
_atom_site_fract_x
_atom_site_fract_y
_atom_site_fract_z
_atom_site_charge
Zr	Zr	0.49834 0.91077 0.62416 3.19500
N 	N 	0.35340 0.81470 0.71350 -0.17400
N 	N 	0.66800 0.80360 0.72330 -0.21100
O 	O 	0.55360 0.01480 0.72620 -0.83700
O 	O 	0.70110 0.89370 0.57180 -0.74100
O 	O 	0.43460 0.77830 0.54850 -0.80300
O 	O 	0.27270 0.96930 0.59180 -0.70500
C 	C 	0.44980 0.77970 0.80070 -0.19300
C 	C 	0.28690 0.71800 0.65830 -0.52300
C 	C 	0.23290 0.89170 0.72960 -0.48500
C 	C 	0.59560 0.72750 0.78050 -0.09600
C 	C 	0.76140 0.88890 0.77850 -0.45300
C 	C 	0.76210 0.73980 0.66910 -0.46500
C 	C 	0.67210 0.99640 0.78710 0.44100
C 	C 	0.78560 0.80710 0.58920 0.47500
C 	C 	0.33000 0.71180 0.56550 0.51800
C 	C 	0.17540 0.95650 0.64420 0.47700
H 	H 	0.39500 0.72590 0.83130 0.13400
H 	H 	0.47380 0.84430 0.83970 0.08100
H 	H 	0.17660 0.72180 0.65150 0.25100
H 	H 	0.31960 0.64940 0.69060 0.20000
H 	H 	0.27270 0.94320 0.77790 0.17700
H 	H 	0.14970 0.84980 0.74760 0.26000
H 	H 	0.66530 0.71330 0.83650 0.05600
H 	H 	0.57250 0.65650 0.74970 0.05000
H 	H 	0.84980 0.90630 0.75140 0.08800
H 	H 	0.79760 0.85860 0.83820 0.16000
H 	H 	0.71160 0.66990 0.64910 0.15400
H 	H 	0.86010 0.72220 0.70580 0.09900
O 	O 	0.71880 0.06150 0.84860 -0.31600
O 	O 	0.88160 0.77640 0.54340 -0.42400
O 	O 	0.26730 0.64150 0.51080 -0.25700
O 	O 	0.04460 0.99670 0.62960 -0.12700
Zr	Zr	0.99834 0.41077 0.62416 3.15300
N 	N 	0.85340 0.31470 0.71350 -0.18100
N 	N 	0.16800 0.30360 0.72330 -0.20300
O 	O 	0.05360 0.51480 0.72620 -0.67100
O 	O 	0.20110 0.39370 0.57180 -0.62600
O 	O 	0.93460 0.27830 0.54850 -0.95300
O 	O 	0.77270 0.46930 0.59180 -0.80300
C 	C 	0.94980 0.27970 0.80070 -0.63200
C 	C 	0.78690 0.21800 0.65830 -0.52900
C 	C 	0.73290 0.39170 0.72960 -0.47900
C 	C 	0.09560 0.22750 0.78050 0.35000
C 	C 	0.26140 0.38890 0.77850 -0.45800
C 	C 	0.26210 0.23980 0.66910 -0.46900
C 	C 	0.17210 0.49640 0.78710 0.46800
C 	C 	0.28560 0.30710 0.58920 0.50800
C 	C 	0.83000 0.21180 0.56550 0.48800
C 	C 	0.67540 0.45650 0.64420 0.47500
H 	H 	0.89500 0.22590 0.83130 0.20400
H 	H 	0.97380 0.34430 0.83970 0.09700
H 	H 	0.67660 0.22180 0.65150 0.19300
H 	H 	0.81960 0.14940 0.69060 0.14300
H 	H 	0.77270 0.44320 0.77790 0.11800
H 	H 	0.64970 0.34980 0.74760 0.19000
H 	H 	0.16530 0.21330 0.83650 -0.00900
H 	H 	0.07250 0.15650 0.74970 0.01500
H 	H 	0.34980 0.40630 0.75140 0.16200
H 	H 	0.29760 0.35860 0.83820 0.21600
H 	H 	0.21160 0.16990 0.64910 0.20700
H 	H 	0.36010 0.22220 0.70580 0.17700
O 	O 	0.21880 0.56150 0.84860 -0.23500
O 	O 	0.38160 0.27640 0.54340 -0.28900
O 	O 	0.76730 0.14150 0.51080 -0.35400
O 	O 	0.54460 0.49670 0.62960 -0.29900
Zr	Zr	0.49834 0.08923 0.12416 3.19400
N 	N 	0.35340 0.18530 0.21350 -0.17400
N 	N 	0.66800 0.19640 0.22330 -0.21200
O 	O 	0.55360 0.98520 0.22620 -0.83800
O 	O 	0.70110 0.10630 0.07180 -0.74200
O 	O 	0.43460 0.22170 0.04850 -0.80200
O 	O 	0.27270 0.03070 0.09180 -0.70700
C 	C 	0.44980 0.22030 0.30070 -0.19500
C 	C 	0.28690 0.28200 0.15830 -0.52300
C 	C 	0.23290 0.10830 0.22960 -0.48700
C 	C 	0.59560 0.27250 0.28050 -0.09500
C 	C 	0.76140 0.11110 0.27850 -0.45500
C 	C 	0.76210 0.26020 0.16910 -0.46500
C 	C 	0.67210 0.00360 0.28710 0.44500
C 	C 	0.78560 0.19290 0.08920 0.47500
C 	C 	0.33000 0.28820 0.06550 0.51700
C 	C 	0.17540 0.04350 0.14420 0.47800
H 	H 	0.39500 0.27410 0.33130 0.13700
H 	H 	0.47380 0.15570 0.33970 0.08500
H 	H 	0.17660 0.27820 0.15150 0.25100
H 	H 	0.31960 0.35060 0.19060 0.20100
H 	H 	0.27270 0.05680 0.27790 0.18000
H 	H 	0.14970 0.15020 0.24760 0.26300
H 	H 	0.66530 0.28670 0.33650 0.05800
H 	H 	0.57250 0.34350 0.24970 0.05000
H 	H 	0.84980 0.09370 0.25140 0.08800
H 	H 	0.79760 0.14140 0.33820 0.16300
H 	H 	0.71160 0.33010 0.14910 0.15400
H 	H 	0.86010 0.27780 0.20580 0.09900
O 	O 	0.71880 0.93850 0.34860 -0.31700
O 	O 	0.88160 0.22360 0.04340 -0.42300
O 	O 	0.26730 0.35850 0.01080 -0.25500
O 	O 	0.04460 0.00330 0.12960 -0.12700
Zr	Zr	0.99834 0.58923 0.12416 3.15300
N 	N 	0.85340 0.68530 0.21350 -0.18100
N 	N 	0.16800 0.69640 0.22330 -0.20300
O 	O 	0.05360 0.48520 0.22620 -0.66900
O 	O 	0.20110 0.60630 0.07180 -0.62500
O 	O 	0.93460 0.72170 0.04850 -0.95000
O 	O 	0.77270 0.53070 0.09180 -0.80200
C 	C 	0.94980 0.72030 0.30070 -0.63700
C 	C 	0.78690 0.78200 0.15830 -0.52800
C 	C 	0.73290 0.60830 0.22960 -0.48000
C 	C 	0.09560 0.77250 0.28050 0.35400
C 	C 	0.26140 0.61110 0.27850 -0.45800
C 	C 	0.26210 0.76020 0.16910 -0.46900
C 	C 	0.17210 0.50360 0.28710 0.46800
C 	C 	0.28560 0.69290 0.08920 0.50700
C 	C 	0.83000 0.78820 0.06550 0.48700
C 	C 	0.67540 0.54350 0.14420 0.47500
H 	H 	0.89500 0.77410 0.33130 0.20500
H 	H 	0.97380 0.65570 0.33970 0.09800
H 	H 	0.67660 0.77820 0.15150 0.19300
H 	H 	0.81960 0.85060 0.19060 0.14300
H 	H 	0.77270 0.55680 0.27790 0.11800
H 	H 	0.64970 0.65020 0.24760 0.19000
H 	H 	0.16530 0.78670 0.33650 -0.00900
H 	H 	0.07250 0.84350 0.24970 0.01500
H 	H 	0.34980 0.59370 0.25140 0.16200
H 	H 	0.29760 0.64140 0.33820 0.21800
H 	H 	0.21160 0.83010 0.14910 0.20800
H 	H 	0.36010 0.77780 0.20580 0.17700
O 	O 	0.21880 0.43850 0.34860 -0.23000
O 	O 	0.38160 0.72360 0.04340 -0.28500
O 	O 	0.76730 0.85850 0.01080 -0.34700
O 	O 	0.54460 0.50330 0.12960 -0.29900
