data_crystal

_cell_length_a 26.03280
_cell_length_b 9.16550
_cell_length_c 27.43820
_cell_angle_alpha 90.00000
_cell_angle_beta  117.81400
_cell_angle_gamma 90.00000

_symmetry_space_group_name_	'P 1'
_symmetry_space_group_name_H-M	'P 1'

loop_
_symmetry_equiv_pos_as_xyz
  x,y,z

loop_
_atom_site_label
_atom_site_type_symbol
_atom_site_fract_x
_atom_site_fract_y
_atom_site_fract_z
_atom_site_charge
Zn	Zn	0.11317 0.13603 0.16457 1.22600
N 	N 	0.25625 0.47110 0.48284 -0.19100
N 	N 	0.15023 0.92770 0.18693 -0.25400
C 	C 	0.16437 0.36930 0.31366 -0.15500
C 	C 	0.14670 0.48400 0.33493 0.09800
H 	H 	0.11470 0.53960 0.31160 0.01600
C 	C 	0.17629 0.51730 0.39087 -0.20100
H 	H 	0.16330 0.59320 0.40480 0.10600
C 	C 	0.22498 0.43790 0.42591 0.17400
C 	C 	0.24286 0.32340 0.40395 -0.21000
H 	H 	0.27560 0.26930 0.42670 0.10800
C 	C 	0.21254 0.28980 0.34903 0.10400
H 	H 	0.22470 0.21180 0.33530 0.00900
C 	C 	0.31806 0.46350 0.51029 0.16300
C 	C 	0.34809 0.41490 0.56471 -0.19100
H 	H 	0.32770 0.38690 0.58340 0.10600
C 	C 	0.40797 0.40820 0.59087 0.08600
H 	H 	0.42750 0.37530 0.62710 0.02400
C 	C 	0.43937 0.44950 0.56418 -0.12700
C 	C 	0.40953 0.49680 0.50997 0.08200
H 	H 	0.43020 0.52420 0.49140 0.03700
C 	C 	0.34984 0.50390 0.48325 -0.18600
H 	H 	0.33060 0.53580 0.44690 0.10800
C 	C 	0.22662 0.52060 0.51187 0.17300
C 	C 	0.17390 0.45970 0.50230 -0.20100
H 	H 	0.15830 0.38350 0.47720 0.11000
C 	C 	0.14447 0.51090 0.52957 0.09200
H 	H 	0.10890 0.46980 0.52230 0.02100
C 	C 	0.16746 0.62400 0.56800 -0.14800
C 	C 	0.22107 0.68070 0.57852 0.09900
H 	H 	0.23760 0.75410 0.60470 0.00800
C 	C 	0.25022 0.63070 0.55097 -0.20200
H 	H 	0.28600 0.67090 0.55860 0.10600
C 	C 	0.13261 0.33250 0.25244 0.38000
C 	C 	0.50518 0.44410 0.59277 0.35100
C 	C 	0.13346 0.68400 0.59564 0.35400
C 	C 	0.17943 0.88530 0.23944 0.10100
H 	H 	0.18520 0.95220 0.26700 -0.00500
C 	C 	0.20127 0.74650 0.25428 -0.16600
H 	H 	0.22200 0.72130 0.29130 0.09700
C 	C 	0.19252 0.64620 0.21460 0.10400
H 	H 	0.20590 0.55090 0.22390 -0.00000
C 	C 	0.16394 0.68820 0.16112 -0.16000
H 	H 	0.15830 0.62260 0.13320 0.09900
C 	C 	0.14335 0.82850 0.14844 0.09900
H 	H 	0.12380 0.85580 0.11160 -0.00100
O 	O 	0.09562 0.41570 0.22118 -0.28900
O 	O 	0.14827 0.21470 0.23944 -0.46000
O 	O 	0.53176 0.50490 0.57113 -0.31100
O 	O 	0.52930 0.37800 0.63824 -0.43900
O 	O 	0.15705 0.78870 0.62848 -0.46000
O 	O 	0.08533 0.63290 0.58398 -0.29400
Zn	Zn	0.61317 0.63603 0.16457 1.22700
N 	N 	0.75625 0.97110 0.48284 -0.19100
N 	N 	0.65023 0.42770 0.18693 -0.25300
C 	C 	0.66437 0.86930 0.31366 -0.15600
C 	C 	0.64670 0.98400 0.33493 0.10500
H 	H 	0.61470 0.03960 0.31160 0.01400
C 	C 	0.67629 0.01730 0.39087 -0.20500
H 	H 	0.66330 0.09320 0.40480 0.10800
C 	C 	0.72498 0.93790 0.42591 0.17800
C 	C 	0.74286 0.82340 0.40395 -0.21100
H 	H 	0.77560 0.76930 0.42670 0.11000
C 	C 	0.71254 0.78980 0.34903 0.10800
H 	H 	0.72470 0.71180 0.33530 0.00800
C 	C 	0.81806 0.96350 0.51029 0.16300
C 	C 	0.84809 0.91490 0.56471 -0.19100
H 	H 	0.82770 0.88690 0.58340 0.10500
C 	C 	0.90797 0.90820 0.59087 0.08600
H 	H 	0.92750 0.87530 0.62710 0.02400
C 	C 	0.93937 0.94950 0.56418 -0.12600
C 	C 	0.90953 0.99680 0.50997 0.08100
H 	H 	0.93020 0.02420 0.49140 0.03700
C 	C 	0.84984 0.00390 0.48325 -0.18500
H 	H 	0.83060 0.03580 0.44690 0.10700
C 	C 	0.72662 0.02060 0.51187 0.17400
C 	C 	0.67390 0.95970 0.50230 -0.20400
H 	H 	0.65830 0.88350 0.47720 0.11100
C 	C 	0.64447 0.01090 0.52957 0.09400
H 	H 	0.60890 0.96980 0.52230 0.02000
C 	C 	0.66746 0.12400 0.56800 -0.14900
C 	C 	0.72107 0.18070 0.57852 0.10000
H 	H 	0.73760 0.25410 0.60470 0.00800
C 	C 	0.75022 0.13070 0.55097 -0.20300
H 	H 	0.78600 0.17090 0.55860 0.10700
C 	C 	0.63261 0.83250 0.25244 0.38100
C 	C 	0.00518 0.94410 0.59277 0.35000
C 	C 	0.63346 0.18400 0.59564 0.35500
C 	C 	0.67943 0.38530 0.23944 0.10000
H 	H 	0.68520 0.45220 0.26700 -0.00500
C 	C 	0.70127 0.24650 0.25428 -0.16700
H 	H 	0.72200 0.22130 0.29130 0.09700
C 	C 	0.69252 0.14620 0.21460 0.10400
H 	H 	0.70590 0.05090 0.22390 -0.00100
C 	C 	0.66394 0.18820 0.16112 -0.16000
H 	H 	0.65830 0.12260 0.13320 0.09900
C 	C 	0.64335 0.32850 0.14844 0.09900
H 	H 	0.62380 0.35580 0.11160 -0.00100
O 	O 	0.59562 0.91570 0.22118 -0.28900
O 	O 	0.64827 0.71470 0.23944 -0.46000
O 	O 	0.03176 0.00490 0.57113 -0.31000
O 	O 	0.02930 0.87800 0.63824 -0.43900
O 	O 	0.65705 0.28870 0.62848 -0.46000
O 	O 	0.58533 0.13290 0.58398 -0.29400
Zn	Zn	0.11317 0.86397 0.66457 1.22700
N 	N 	0.25625 0.52890 0.98284 -0.19100
N 	N 	0.15023 0.07230 0.68693 -0.25300
C 	C 	0.16437 0.63070 0.81366 -0.15400
C 	C 	0.14670 0.51600 0.83493 0.09900
H 	H 	0.11470 0.46040 0.81160 0.01700
C 	C 	0.17629 0.48270 0.89087 -0.20000
H 	H 	0.16330 0.40680 0.90480 0.10600
C 	C 	0.22498 0.56210 0.92591 0.17500
C 	C 	0.24286 0.67660 0.90395 -0.20900
H 	H 	0.27560 0.73070 0.92670 0.10900
C 	C 	0.21254 0.71020 0.84903 0.10500
H 	H 	0.22470 0.78820 0.83530 0.00900
C 	C 	0.31806 0.53650 0.01029 0.16400
C 	C 	0.34809 0.58510 0.06471 -0.19200
H 	H 	0.32770 0.61310 0.08340 0.10600
C 	C 	0.40797 0.59180 0.09087 0.08700
H 	H 	0.42750 0.62470 0.12710 0.02300
C 	C 	0.43937 0.55050 0.06418 -0.12700
C 	C 	0.40953 0.50320 0.00997 0.08300
H 	H 	0.43020 0.47580 0.99140 0.03700
C 	C 	0.34984 0.49610 0.98325 -0.18700
H 	H 	0.33060 0.46420 0.94690 0.10800
C 	C 	0.22662 0.47940 0.01187 0.17200
C 	C 	0.17390 0.54030 0.00230 -0.20000
H 	H 	0.15830 0.61650 0.97720 0.11000
C 	C 	0.14447 0.48910 0.02957 0.09100
H 	H 	0.10890 0.53020 0.02230 0.02200
C 	C 	0.16746 0.37600 0.06800 -0.14800
C 	C 	0.22107 0.31930 0.07852 0.09800
H 	H 	0.23760 0.24590 0.10470 0.00800
C 	C 	0.25022 0.36930 0.05097 -0.20100
H 	H 	0.28600 0.32910 0.05860 0.10600
C 	C 	0.13261 0.66750 0.75244 0.38000
C 	C 	0.50518 0.55590 0.09277 0.35100
C 	C 	0.13346 0.31600 0.09564 0.35400
C 	C 	0.17943 0.11470 0.73944 0.10100
H 	H 	0.18520 0.04780 0.76700 -0.00500
C 	C 	0.20127 0.25350 0.75428 -0.16600
H 	H 	0.22200 0.27870 0.79130 0.09800
C 	C 	0.19252 0.35380 0.71460 0.10400
H 	H 	0.20590 0.44910 0.72390 -0.00000
C 	C 	0.16394 0.31180 0.66112 -0.16000
H 	H 	0.15830 0.37740 0.63320 0.09900
C 	C 	0.14335 0.17150 0.64844 0.09900
H 	H 	0.12380 0.14420 0.61160 -0.00100
O 	O 	0.09562 0.58430 0.72118 -0.28900
O 	O 	0.14827 0.78530 0.73944 -0.46000
O 	O 	0.53176 0.49510 0.07113 -0.31100
O 	O 	0.52930 0.62200 0.13824 -0.43900
O 	O 	0.15705 0.21130 0.12848 -0.46000
O 	O 	0.08533 0.36710 0.08398 -0.29400
Zn	Zn	0.61317 0.36397 0.66457 1.22700
N 	N 	0.75625 0.02890 0.98284 -0.19100
N 	N 	0.65023 0.57230 0.68693 -0.25300
C 	C 	0.66437 0.13070 0.81366 -0.15700
C 	C 	0.64670 0.01600 0.83493 0.10700
H 	H 	0.61470 0.96040 0.81160 0.01300
C 	C 	0.67629 0.98270 0.89087 -0.20700
H 	H 	0.66330 0.90680 0.90480 0.10900
C 	C 	0.72498 0.06210 0.92591 0.17900
C 	C 	0.74286 0.17660 0.90395 -0.21200
H 	H 	0.77560 0.23070 0.92670 0.11100
C 	C 	0.71254 0.21020 0.84903 0.10900
H 	H 	0.72470 0.28820 0.83530 0.00800
C 	C 	0.81806 0.03650 0.01029 0.16000
C 	C 	0.84809 0.08510 0.06471 -0.18900
H 	H 	0.82770 0.11310 0.08340 0.10500
C 	C 	0.90797 0.09180 0.09087 0.08400
H 	H 	0.92750 0.12470 0.12710 0.02400
C 	C 	0.93937 0.05050 0.06418 -0.12500
C 	C 	0.90953 0.00320 0.00997 0.07800
H 	H 	0.93020 0.97580 0.99140 0.03900
C 	C 	0.84984 0.99610 0.98325 -0.18200
H 	H 	0.83060 0.96420 0.94690 0.10600
C 	C 	0.72662 0.97940 0.01187 0.17800
C 	C 	0.67390 0.04030 0.00230 -0.21000
H 	H 	0.65830 0.11650 0.97720 0.11400
C 	C 	0.64447 0.98910 0.02957 0.10000
H 	H 	0.60890 0.03020 0.02230 0.01800
C 	C 	0.66746 0.87600 0.06800 -0.15200
C 	C 	0.72107 0.81930 0.07852 0.10300
H 	H 	0.73760 0.74590 0.10470 0.00700
C 	C 	0.75022 0.86930 0.05097 -0.20600
H 	H 	0.78600 0.82910 0.05860 0.10800
C 	C 	0.63261 0.16750 0.75244 0.38100
C 	C 	0.00518 0.05590 0.09277 0.34900
C 	C 	0.63346 0.81600 0.09564 0.35600
C 	C 	0.67943 0.61470 0.73944 0.10000
H 	H 	0.68520 0.54780 0.76700 -0.00500
C 	C 	0.70127 0.75350 0.75428 -0.16700
H 	H 	0.72200 0.77870 0.79130 0.09700
C 	C 	0.69252 0.85380 0.71460 0.10400
H 	H 	0.70590 0.94910 0.72390 -0.00100
C 	C 	0.66394 0.81180 0.66112 -0.16000
H 	H 	0.65830 0.87740 0.63320 0.09900
C 	C 	0.64335 0.67150 0.64844 0.09900
H 	H 	0.62380 0.64420 0.61160 -0.00100
O 	O 	0.59562 0.08430 0.72118 -0.28900
O 	O 	0.64827 0.28530 0.73944 -0.46000
O 	O 	0.03176 0.99510 0.07113 -0.30900
O 	O 	0.02930 0.12200 0.13824 -0.43900
O 	O 	0.65705 0.71130 0.12848 -0.46000
O 	O 	0.58533 0.86710 0.08398 -0.29400
Zn	Zn	0.88683 0.13603 0.33543 1.22700
N 	N 	0.74375 0.47110 0.01716 -0.19100
N 	N 	0.84977 0.92770 0.31307 -0.25300
C 	C 	0.83563 0.36930 0.18634 -0.15400
C 	C 	0.85330 0.48400 0.16507 0.09900
H 	H 	0.88530 0.53960 0.18840 0.01700
C 	C 	0.82371 0.51730 0.10913 -0.20000
H 	H 	0.83670 0.59320 0.09520 0.10600
C 	C 	0.77502 0.43790 0.07409 0.17500
C 	C 	0.75714 0.32340 0.09605 -0.20900
H 	H 	0.72440 0.26930 0.07330 0.10900
C 	C 	0.78746 0.28980 0.15097 0.10500
H 	H 	0.77530 0.21180 0.16470 0.00900
C 	C 	0.68194 0.46350 0.98971 0.16400
C 	C 	0.65191 0.41490 0.93529 -0.19200
H 	H 	0.67230 0.38690 0.91660 0.10600
C 	C 	0.59203 0.40820 0.90913 0.08700
H 	H 	0.57250 0.37530 0.87290 0.02300
C 	C 	0.56063 0.44950 0.93582 -0.12700
C 	C 	0.59047 0.49680 0.99003 0.08300
H 	H 	0.56980 0.52420 0.00860 0.03700
C 	C 	0.65016 0.50390 0.01675 -0.18700
H 	H 	0.66940 0.53580 0.05310 0.10800
C 	C 	0.77338 0.52060 0.98813 0.17200
C 	C 	0.82610 0.45970 0.99770 -0.20000
H 	H 	0.84170 0.38350 0.02280 0.11000
C 	C 	0.85553 0.51090 0.97043 0.09100
H 	H 	0.89110 0.46980 0.97770 0.02200
C 	C 	0.83254 0.62400 0.93200 -0.14800
C 	C 	0.77893 0.68070 0.92148 0.09800
H 	H 	0.76240 0.75410 0.89530 0.00800
C 	C 	0.74978 0.63070 0.94903 -0.20100
H 	H 	0.71400 0.67090 0.94140 0.10600
C 	C 	0.86739 0.33250 0.24756 0.38000
C 	C 	0.49482 0.44410 0.90723 0.35100
C 	C 	0.86654 0.68400 0.90436 0.35400
C 	C 	0.82057 0.88530 0.26056 0.10100
H 	H 	0.81480 0.95220 0.23300 -0.00500
C 	C 	0.79873 0.74650 0.24572 -0.16600
H 	H 	0.77800 0.72130 0.20870 0.09800
C 	C 	0.80748 0.64620 0.28540 0.10400
H 	H 	0.79410 0.55090 0.27610 -0.00000
C 	C 	0.83606 0.68820 0.33888 -0.16000
H 	H 	0.84170 0.62260 0.36680 0.09900
C 	C 	0.85665 0.82850 0.35156 0.09900
H 	H 	0.87620 0.85580 0.38840 -0.00100
O 	O 	0.90438 0.41570 0.27882 -0.28900
O 	O 	0.85173 0.21470 0.26056 -0.46000
O 	O 	0.46824 0.50490 0.92887 -0.31100
O 	O 	0.47070 0.37800 0.86176 -0.43900
O 	O 	0.84295 0.78870 0.87152 -0.46000
O 	O 	0.91467 0.63290 0.91602 -0.29400
Zn	Zn	0.38683 0.63603 0.33543 1.22700
N 	N 	0.24375 0.97110 0.01716 -0.19100
N 	N 	0.34977 0.42770 0.31307 -0.25300
C 	C 	0.33563 0.86930 0.18634 -0.15700
C 	C 	0.35330 0.98400 0.16507 0.10700
H 	H 	0.38530 0.03960 0.18840 0.01300
C 	C 	0.32371 0.01730 0.10913 -0.20700
H 	H 	0.33670 0.09320 0.09520 0.10900
C 	C 	0.27502 0.93790 0.07409 0.17900
C 	C 	0.25714 0.82340 0.09605 -0.21200
H 	H 	0.22440 0.76930 0.07330 0.11100
C 	C 	0.28746 0.78980 0.15097 0.10900
H 	H 	0.27530 0.71180 0.16470 0.00800
C 	C 	0.18194 0.96350 0.98971 0.16000
C 	C 	0.15191 0.91490 0.93529 -0.18900
H 	H 	0.17230 0.88690 0.91660 0.10500
C 	C 	0.09203 0.90820 0.90913 0.08400
H 	H 	0.07250 0.87530 0.87290 0.02400
C 	C 	0.06063 0.94950 0.93582 -0.12500
C 	C 	0.09047 0.99680 0.99003 0.07800
H 	H 	0.06980 0.02420 0.00860 0.03900
C 	C 	0.15016 0.00390 0.01675 -0.18200
H 	H 	0.16940 0.03580 0.05310 0.10600
C 	C 	0.27338 0.02060 0.98813 0.17800
C 	C 	0.32610 0.95970 0.99770 -0.21000
H 	H 	0.34170 0.88350 0.02280 0.11400
C 	C 	0.35553 0.01090 0.97043 0.10000
H 	H 	0.39110 0.96980 0.97770 0.01800
C 	C 	0.33254 0.12400 0.93200 -0.15200
C 	C 	0.27893 0.18070 0.92148 0.10300
H 	H 	0.26240 0.25410 0.89530 0.00700
C 	C 	0.24978 0.13070 0.94903 -0.20600
H 	H 	0.21400 0.17090 0.94140 0.10800
C 	C 	0.36739 0.83250 0.24756 0.38100
C 	C 	0.99482 0.94410 0.90723 0.34900
C 	C 	0.36654 0.18400 0.90436 0.35600
C 	C 	0.32057 0.38530 0.26056 0.10000
H 	H 	0.31480 0.45220 0.23300 -0.00500
C 	C 	0.29873 0.24650 0.24572 -0.16700
H 	H 	0.27800 0.22130 0.20870 0.09700
C 	C 	0.30748 0.14620 0.28540 0.10400
H 	H 	0.29410 0.05090 0.27610 -0.00100
C 	C 	0.33606 0.18820 0.33888 -0.16000
H 	H 	0.34170 0.12260 0.36680 0.09900
C 	C 	0.35665 0.32850 0.35156 0.09900
H 	H 	0.37620 0.35580 0.38840 -0.00100
O 	O 	0.40438 0.91570 0.27882 -0.28900
O 	O 	0.35173 0.71470 0.26056 -0.46000
O 	O 	0.96824 0.00490 0.92887 -0.30900
O 	O 	0.97070 0.87800 0.86176 -0.43900
O 	O 	0.34295 0.28870 0.87152 -0.46000
O 	O 	0.41467 0.13290 0.91602 -0.29400
Zn	Zn	0.88683 0.86397 0.83543 1.22700
N 	N 	0.74375 0.52890 0.51716 -0.19000
N 	N 	0.84977 0.07230 0.81307 -0.25300
C 	C 	0.83563 0.63070 0.68634 -0.15400
C 	C 	0.85330 0.51600 0.66507 0.09900
H 	H 	0.88530 0.46040 0.68840 0.01700
C 	C 	0.82371 0.48270 0.60913 -0.20000
H 	H 	0.83670 0.40680 0.59520 0.10700
C 	C 	0.77502 0.56210 0.57409 0.17500
C 	C 	0.75714 0.67660 0.59605 -0.20900
H 	H 	0.72440 0.73070 0.57330 0.10900
C 	C 	0.78746 0.71020 0.65097 0.10500
H 	H 	0.77530 0.78820 0.66470 0.00900
C 	C 	0.68194 0.53650 0.48971 0.16300
C 	C 	0.65191 0.58510 0.43529 -0.19100
H 	H 	0.67230 0.61310 0.41660 0.10600
C 	C 	0.59203 0.59180 0.40913 0.08600
H 	H 	0.57250 0.62470 0.37290 0.02400
C 	C 	0.56063 0.55050 0.43582 -0.12700
C 	C 	0.59047 0.50320 0.49003 0.08200
H 	H 	0.56980 0.47580 0.50860 0.03700
C 	C 	0.65016 0.49610 0.51675 -0.18600
H 	H 	0.66940 0.46420 0.55310 0.10800
C 	C 	0.77338 0.47940 0.48813 0.17300
C 	C 	0.82610 0.54030 0.49770 -0.20100
H 	H 	0.84170 0.61650 0.52280 0.11000
C 	C 	0.85553 0.48910 0.47043 0.09200
H 	H 	0.89110 0.53020 0.47770 0.02100
C 	C 	0.83254 0.37600 0.43200 -0.14800
C 	C 	0.77893 0.31930 0.42148 0.09900
H 	H 	0.76240 0.24590 0.39530 0.00800
C 	C 	0.74978 0.36930 0.44903 -0.20200
H 	H 	0.71400 0.32910 0.44140 0.10600
C 	C 	0.86739 0.66750 0.74756 0.38000
C 	C 	0.49482 0.55590 0.40723 0.35100
C 	C 	0.86654 0.31600 0.40436 0.35400
C 	C 	0.82057 0.11470 0.76056 0.10100
H 	H 	0.81480 0.04780 0.73300 -0.00500
C 	C 	0.79873 0.25350 0.74572 -0.16600
H 	H 	0.77800 0.27870 0.70870 0.09700
C 	C 	0.80748 0.35380 0.78540 0.10400
H 	H 	0.79410 0.44910 0.77610 -0.00000
C 	C 	0.83606 0.31180 0.83888 -0.16000
H 	H 	0.84170 0.37740 0.86680 0.09900
C 	C 	0.85665 0.17150 0.85156 0.09900
H 	H 	0.87620 0.14420 0.88840 -0.00100
O 	O 	0.90438 0.58430 0.77882 -0.28900
O 	O 	0.85173 0.78530 0.76056 -0.46000
O 	O 	0.46824 0.49510 0.42887 -0.31100
O 	O 	0.47070 0.62200 0.36176 -0.43900
O 	O 	0.84295 0.21130 0.37152 -0.46000
O 	O 	0.91467 0.36710 0.41602 -0.29400
Zn	Zn	0.38683 0.36397 0.83543 1.22700
N 	N 	0.24375 0.02890 0.51716 -0.19100
N 	N 	0.34977 0.57230 0.81307 -0.25300
C 	C 	0.33563 0.13070 0.68634 -0.15600
C 	C 	0.35330 0.01600 0.66507 0.10500
H 	H 	0.38530 0.96040 0.68840 0.01400
C 	C 	0.32371 0.98270 0.60913 -0.20500
H 	H 	0.33670 0.90680 0.59520 0.10800
C 	C 	0.27502 0.06210 0.57409 0.17800
C 	C 	0.25714 0.17660 0.59605 -0.21100
H 	H 	0.22440 0.23070 0.57330 0.11000
C 	C 	0.28746 0.21020 0.65097 0.10800
H 	H 	0.27530 0.28820 0.66470 0.00800
C 	C 	0.18194 0.03650 0.48971 0.16300
C 	C 	0.15191 0.08510 0.43529 -0.19100
H 	H 	0.17230 0.11310 0.41660 0.10500
C 	C 	0.09203 0.09180 0.40913 0.08600
H 	H 	0.07250 0.12470 0.37290 0.02400
C 	C 	0.06063 0.05050 0.43582 -0.12600
C 	C 	0.09047 0.00320 0.49003 0.08100
H 	H 	0.06980 0.97580 0.50860 0.03700
C 	C 	0.15016 0.99610 0.51675 -0.18500
H 	H 	0.16940 0.96420 0.55310 0.10700
C 	C 	0.27338 0.97940 0.48813 0.17400
C 	C 	0.32610 0.04030 0.49770 -0.20400
H 	H 	0.34170 0.11650 0.52280 0.11100
C 	C 	0.35553 0.98910 0.47043 0.09400
H 	H 	0.39110 0.03020 0.47770 0.02000
C 	C 	0.33254 0.87600 0.43200 -0.14900
C 	C 	0.27893 0.81930 0.42148 0.10000
H 	H 	0.26240 0.74590 0.39530 0.00800
C 	C 	0.24978 0.86930 0.44903 -0.20300
H 	H 	0.21400 0.82910 0.44140 0.10700
C 	C 	0.36739 0.16750 0.74756 0.38100
C 	C 	0.99482 0.05590 0.40723 0.35000
C 	C 	0.36654 0.81600 0.40436 0.35500
C 	C 	0.32057 0.61470 0.76056 0.10000
H 	H 	0.31480 0.54780 0.73300 -0.00500
C 	C 	0.29873 0.75350 0.74572 -0.16700
H 	H 	0.27800 0.77870 0.70870 0.09700
C 	C 	0.30748 0.85380 0.78540 0.10400
H 	H 	0.29410 0.94910 0.77610 -0.00100
C 	C 	0.33606 0.81180 0.83888 -0.16000
H 	H 	0.34170 0.87740 0.86680 0.09900
C 	C 	0.35665 0.67150 0.85156 0.09900
H 	H 	0.37620 0.64420 0.88840 -0.00100
O 	O 	0.40438 0.08430 0.77882 -0.28900
O 	O 	0.35173 0.28530 0.76056 -0.46000
O 	O 	0.96824 0.99510 0.42887 -0.31000
O 	O 	0.97070 0.12200 0.36176 -0.43900
O 	O 	0.34295 0.71130 0.37152 -0.46000
O 	O 	0.41467 0.86710 0.41602 -0.29400
