data_crystal

_cell_length_a 13.30690
_cell_length_b 25.62900
_cell_length_c 9.85600
_cell_angle_alpha 90.00000
_cell_angle_beta  91.45500
_cell_angle_gamma 90.00000

_symmetry_space_group_name_	'P 1'
_symmetry_space_group_name_H-M	'P 1'

loop_
_symmetry_equiv_pos_as_xyz
  x,y,z

loop_
_atom_site_label
_atom_site_type_symbol
_atom_site_fract_x
_atom_site_fract_y
_atom_site_fract_z
_atom_site_charge
Cu	Cu	0.28158 0.51451 0.61777 0.91600
Cu	Cu	0.45975 0.45968 0.55024 0.91200
Cu	Cu	0.38741 0.54877 0.35097 0.91200
Cu	Cu	0.76672 0.88946 0.60964 0.91000
Cl	Cl	0.67617 0.81998 0.54022 -0.45300
Cl	Cl	0.30079 0.54860 0.86157 -0.61900
O 	O 	0.29840 0.60839 0.38600 -0.45900
N 	N 	0.01470 0.80025 0.52390 -0.14600
O 	O 	0.34700 0.44926 0.66450 -0.66300
O 	O 	0.41270 0.53335 0.54170 -0.51000
N 	N 	0.14260 0.57175 0.15800 -0.19800
O 	O 	0.58140 0.47359 0.45740 -0.42900
N 	N 	0.14940 0.51823 0.15930 -0.19700
C 	C 	0.17540 0.66059 0.48890 -0.17300
O 	O 	0.20880 0.57561 0.55570 -0.41500
N 	N 	0.99990 0.53904 0.21810 -0.22000
C 	C 	0.70080 0.51602 0.32200 -0.18000
O 	O 	0.52540 0.52945 0.29600 -0.47300
N 	N 	0.97940 0.88240 0.54250 -0.23100
C 	C 	0.19060 0.70248 0.39480 0.12200
H 	H 	0.23710 0.69900 0.32380 0.00200
C 	C 	0.82190 0.56630 0.20730 -0.20600
H 	H 	0.83770 0.59490 0.15060 0.09400
C 	C 	0.06520 0.49900 0.19660 0.16900
H 	H 	0.05090 0.46290 0.20740 0.00200
C 	C 	0.13670 0.74773 0.40950 -0.20500
H 	H 	0.14580 0.77580 0.34810 0.12000
C 	C 	0.10610 0.66690 0.58820 0.13500
H 	H 	0.09430 0.63890 0.64910 0.02300
C 	C 	0.87450 0.49220 0.34620 -0.19900
H 	H 	0.92620 0.47110 0.38540 0.09000
C 	C 	0.72570 0.55620 0.24100 0.12500
H 	H 	0.67390 0.57830 0.20630 -0.00800
N 	N 	0.89530 0.85350 0.57160 -0.19000
C 	C 	0.89730 0.53318 0.25850 0.16200
C 	C 	0.05090 0.85026 0.51390 0.17900
H 	H 	0.11720 0.85970 0.49000 -0.01700
C 	C 	0.77680 0.48330 0.37370 0.11100
H 	H 	0.75950 0.45440 0.42890 0.00600
C 	C 	0.05400 0.71190 0.60170 -0.19600
H 	H 	0.00690 0.71590 0.67180 0.13100
C 	C 	0.91920 0.80565 0.55870 0.06900
H 	H 	0.87440 0.77730 0.57230 0.01400
C 	C 	0.23140 0.61062 0.47390 0.41000
C 	C 	0.59270 0.50499 0.36090 0.40700
C 	C 	0.07140 0.75263 0.50960 0.19900
C 	C 	0.05150 0.58330 0.19170 0.16800
H 	H 	0.02510 0.61760 0.19690 0.00500
Cu	Cu	0.78158 0.01451 0.61777 0.91400
Cu	Cu	0.95975 0.95968 0.55024 0.89300
Cu	Cu	0.88741 0.04877 0.35097 0.90000
Cu	Cu	0.26672 0.38946 0.60964 0.91100
Cl	Cl	0.17617 0.31998 0.54022 -0.43800
Cl	Cl	0.80079 0.04860 0.86157 -0.62900
O 	O 	0.79840 0.10839 0.38600 -0.46500
N 	N 	0.51470 0.30025 0.52390 -0.16900
O 	O 	0.84700 0.94926 0.66450 -0.66900
O 	O 	0.91270 0.03335 0.54170 -0.52900
N 	N 	0.64260 0.07175 0.15800 -0.19200
O 	O 	0.08140 0.97359 0.45740 -0.40300
N 	N 	0.64940 0.01823 0.15930 -0.19100
C 	C 	0.67540 0.16059 0.48890 -0.17600
O 	O 	0.70880 0.07561 0.55570 -0.41800
N 	N 	0.49990 0.03904 0.21810 -0.16600
C 	C 	0.20080 0.01602 0.32200 -0.17100
O 	O 	0.02540 0.02945 0.29600 -0.43800
N 	N 	0.47940 0.38240 0.54250 -0.19000
C 	C 	0.69060 0.20248 0.39480 0.11500
H 	H 	0.73710 0.19900 0.32380 -0.00100
C 	C 	0.32190 0.06630 0.20730 -0.20100
H 	H 	0.33770 0.09490 0.15060 0.10300
C 	C 	0.56520 0.99900 0.19660 0.11700
H 	H 	0.55090 0.96290 0.20740 0.00500
C 	C 	0.63670 0.24773 0.40950 -0.20400
H 	H 	0.64580 0.27580 0.34810 0.11200
C 	C 	0.60610 0.16690 0.58820 0.12900
H 	H 	0.59430 0.13890 0.64910 0.01800
C 	C 	0.37450 0.99220 0.34620 -0.19200
H 	H 	0.42620 0.97110 0.38540 0.10600
C 	C 	0.22570 0.05620 0.24100 0.12400
H 	H 	0.17390 0.07830 0.20630 -0.00100
N 	N 	0.39530 0.35350 0.57160 -0.19600
C 	C 	0.39730 0.03318 0.25850 0.17000
C 	C 	0.55090 0.35026 0.51390 0.11600
H 	H 	0.61720 0.35970 0.49000 -0.00400
C 	C 	0.27680 0.98330 0.37370 0.11300
H 	H 	0.25950 0.95440 0.42890 0.01000
C 	C 	0.55400 0.21190 0.60170 -0.19800
H 	H 	0.50690 0.21590 0.67180 0.11600
C 	C 	0.41920 0.30565 0.55870 0.13100
H 	H 	0.37440 0.27730 0.57230 0.00800
C 	C 	0.73140 0.11062 0.47390 0.40900
C 	C 	0.09270 0.00499 0.36090 0.40300
C 	C 	0.57140 0.25263 0.50960 0.18800
C 	C 	0.55150 0.08330 0.19170 0.11400
H 	H 	0.52510 0.11760 0.19690 0.00900
Cu	Cu	0.28158 0.48549 0.11777 0.91300
Cu	Cu	0.45975 0.54032 0.05024 0.90400
Cu	Cu	0.38741 0.45123 0.85097 0.91500
Cu	Cu	0.76672 0.11054 0.10964 0.90800
Cl	Cl	0.67617 0.18002 0.04022 -0.46400
Cl	Cl	0.30079 0.45140 0.36157 -0.63600
O 	O 	0.29840 0.39161 0.88600 -0.45700
N 	N 	0.01470 0.19975 0.02390 -0.13300
O 	O 	0.34700 0.55074 0.16450 -0.66600
O 	O 	0.41270 0.46665 0.04170 -0.52300
N 	N 	0.14260 0.42825 0.65800 -0.19700
O 	O 	0.58140 0.52641 0.95740 -0.41700
N 	N 	0.14940 0.48177 0.65930 -0.19500
C 	C 	0.17540 0.33941 0.98890 -0.12100
O 	O 	0.20880 0.42439 0.05570 -0.43200
N 	N 	0.99990 0.46096 0.71810 -0.22000
C 	C 	0.70080 0.48398 0.82200 -0.17600
O 	O 	0.52540 0.47055 0.79600 -0.46900
N 	N 	0.97940 0.11760 0.04250 -0.22600
C 	C 	0.19060 0.29752 0.89480 0.07500
H 	H 	0.23710 0.30100 0.82380 0.01900
C 	C 	0.82190 0.43370 0.70730 -0.20400
H 	H 	0.83770 0.40510 0.65060 0.09800
C 	C 	0.06520 0.50100 0.69660 0.17300
H 	H 	0.05090 0.53710 0.70740 0.00500
C 	C 	0.13670 0.25227 0.90950 -0.13100
H 	H 	0.14580 0.22420 0.84810 0.10100
C 	C 	0.10610 0.33310 0.08820 0.06500
H 	H 	0.09430 0.36110 0.14910 0.04100
C 	C 	0.87450 0.50780 0.84620 -0.19700
H 	H 	0.92620 0.52890 0.88540 0.09500
C 	C 	0.72570 0.44380 0.74100 0.12800
H 	H 	0.67390 0.42170 0.70630 -0.00500
N 	N 	0.89530 0.14650 0.07160 -0.19100
C 	C 	0.89730 0.46682 0.75850 0.16600
C 	C 	0.05090 0.14974 0.01390 0.13600
H 	H 	0.11720 0.14030 0.99000 0.01300
C 	C 	0.77680 0.51670 0.87370 0.11300
H 	H 	0.75950 0.54560 0.92890 0.01000
C 	C 	0.05400 0.28810 0.10170 -0.14400
H 	H 	0.00690 0.28410 0.17180 0.11000
C 	C 	0.91920 0.19435 0.05870 0.06600
H 	H 	0.87440 0.22270 0.07230 0.01300
C 	C 	0.23140 0.38938 0.97390 0.41800
C 	C 	0.59270 0.49501 0.86090 0.40800
C 	C 	0.07140 0.24737 0.00960 0.13600
C 	C 	0.05150 0.41670 0.69170 0.17200
H 	H 	0.02510 0.38240 0.69690 0.00800
Cu	Cu	0.78158 0.98549 0.11777 0.91200
Cu	Cu	0.95975 0.04032 0.05024 0.88700
Cu	Cu	0.88741 0.95123 0.85097 0.90400
Cu	Cu	0.26672 0.61054 0.10964 0.90900
Cl	Cl	0.17617 0.68002 0.04022 -0.44900
Cl	Cl	0.80079 0.95140 0.36157 -0.64600
O 	O 	0.79840 0.89161 0.88600 -0.46300
N 	N 	0.51470 0.69975 0.02390 -0.15600
O 	O 	0.84700 0.05074 0.16450 -0.67200
O 	O 	0.91270 0.96665 0.04170 -0.54000
N 	N 	0.64260 0.92825 0.65800 -0.19100
O 	O 	0.08140 0.02641 0.95740 -0.39100
N 	N 	0.64940 0.98177 0.65930 -0.18800
C 	C 	0.67540 0.83941 0.98890 -0.12600
O 	O 	0.70880 0.92439 0.05570 -0.43500
N 	N 	0.49990 0.96096 0.71810 -0.16500
C 	C 	0.20080 0.98398 0.82200 -0.16700
O 	O 	0.02540 0.97055 0.79600 -0.43400
N 	N 	0.47940 0.61760 0.04250 -0.18700
C 	C 	0.69060 0.79752 0.89480 0.07000
H 	H 	0.73710 0.80100 0.82380 0.01500
C 	C 	0.32190 0.93370 0.70730 -0.19900
H 	H 	0.33770 0.90510 0.65060 0.10800
C 	C 	0.56520 0.00100 0.69660 0.11900
H 	H 	0.55090 0.03710 0.70740 0.00900
C 	C 	0.63670 0.75227 0.90950 -0.13400
H 	H 	0.64580 0.72420 0.84810 0.09400
C 	C 	0.60610 0.83310 0.08820 0.06200
H 	H 	0.59430 0.86110 0.14910 0.03500
C 	C 	0.37450 0.00780 0.84620 -0.19200
H 	H 	0.42620 0.02890 0.88540 0.11100
C 	C 	0.22570 0.94380 0.74100 0.12700
H 	H 	0.17390 0.92170 0.70630 0.00300
N 	N 	0.39530 0.64650 0.07160 -0.19700
C 	C 	0.39730 0.96682 0.75850 0.17500
C 	C 	0.55090 0.64974 0.01390 0.07600
H 	H 	0.61720 0.64030 0.99000 0.02500
C 	C 	0.27680 0.01670 0.87370 0.11500
H 	H 	0.25950 0.04560 0.92890 0.01500
C 	C 	0.55400 0.78810 0.10170 -0.14900
H 	H 	0.50690 0.78410 0.17180 0.09600
C 	C 	0.41920 0.69435 0.05870 0.12600
H 	H 	0.37440 0.72270 0.07230 0.00700
C 	C 	0.73140 0.88938 0.97390 0.41600
C 	C 	0.09270 0.99501 0.86090 0.40300
C 	C 	0.57140 0.74737 0.00960 0.12900
C 	C 	0.55150 0.91670 0.69170 0.11800
H 	H 	0.52510 0.88240 0.69690 0.01100
