data_crystal

_cell_length_a 7.09180
_cell_length_b 28.88880
_cell_length_c 19.07520
_cell_angle_alpha 90.00000
_cell_angle_beta  90.00000
_cell_angle_gamma 90.00000

_symmetry_space_group_name_	'P 1'
_symmetry_space_group_name_H-M	'P 1'

loop_
_symmetry_equiv_pos_as_xyz
  x,y,z

loop_
_atom_site_label
_atom_site_type_symbol
_atom_site_fract_x
_atom_site_fract_y
_atom_site_fract_z
_atom_site_charge
N 	N 	0.09700 0.21746 0.42564 -0.22900
C 	C 	0.15000 0.19191 0.37290 0.10400
H 	H 	0.27450 0.18580 0.36080 -0.03200
C 	C 	0.15800 0.09110 0.20150 0.02100
H 	H 	0.26040 0.07230 0.19100 0.03400
C 	C 	0.16100 0.12110 0.26150 -0.10000
H 	H 	0.26760 0.12330 0.28950 0.05500
C 	C 	0.14200 0.14860 0.23140 -0.04200
H 	H 	0.23710 0.17050 0.23700 0.03700
C 	C 	0.14800 0.11770 0.17410 -0.03300
H 	H 	0.25100 0.11790 0.14410 0.04500
O 	O 	0.15810 0.04680 0.07460 -0.44800
N 	N 	0.59700 0.71746 0.42564 -0.22300
C 	C 	0.65000 0.69191 0.37290 0.10700
H 	H 	0.77450 0.68580 0.36080 -0.03100
C 	C 	0.65800 0.59110 0.20150 0.02200
H 	H 	0.76040 0.57230 0.19100 0.03900
C 	C 	0.66100 0.62110 0.26150 -0.10000
H 	H 	0.76760 0.62330 0.28950 0.06000
C 	C 	0.64200 0.64860 0.23140 -0.04400
H 	H 	0.73710 0.67050 0.23700 0.04100
C 	C 	0.64800 0.61770 0.17410 -0.03600
H 	H 	0.75100 0.61790 0.14410 0.04900
O 	O 	0.65810 0.54680 0.07460 -0.44800
N 	N 	0.90300 0.78254 0.42564 -0.22000
C 	C 	0.85000 0.80809 0.37290 0.12500
H 	H 	0.72550 0.81420 0.36080 -0.03700
C 	C 	0.84200 0.90890 0.20150 0.02600
H 	H 	0.73960 0.92770 0.19100 0.04300
C 	C 	0.83900 0.87890 0.26150 -0.08300
H 	H 	0.73240 0.87670 0.28950 0.05600
C 	C 	0.85800 0.85140 0.23140 -0.03600
H 	H 	0.76290 0.82950 0.23700 0.03900
C 	C 	0.85200 0.88230 0.17410 -0.02200
H 	H 	0.74900 0.88210 0.14410 0.04500
O 	O 	0.84190 0.95320 0.07460 -0.41600
N 	N 	0.40300 0.28254 0.42564 -0.22400
C 	C 	0.35000 0.30809 0.37290 0.10700
H 	H 	0.22550 0.31420 0.36080 -0.03500
C 	C 	0.34200 0.40890 0.20150 0.02100
H 	H 	0.23960 0.42770 0.19100 0.03600
C 	C 	0.33900 0.37890 0.26150 -0.10000
H 	H 	0.23240 0.37670 0.28950 0.05600
C 	C 	0.35800 0.35140 0.23140 -0.04300
H 	H 	0.26290 0.32950 0.23700 0.03700
C 	C 	0.35200 0.38230 0.17410 -0.03600
H 	H 	0.24900 0.38210 0.14410 0.04500
O 	O 	0.34190 0.45320 0.07460 -0.45100
N 	N 	0.90300 0.21746 0.57436 -0.22000
C 	C 	0.85000 0.19191 0.62710 0.12400
H 	H 	0.72550 0.18580 0.63920 -0.03600
C 	C 	0.84200 0.09110 0.79850 0.01600
H 	H 	0.73960 0.07230 0.80900 0.04200
C 	C 	0.83900 0.12110 0.73850 -0.10000
H 	H 	0.73240 0.12330 0.71050 0.05900
C 	C 	0.85800 0.14860 0.76860 -0.01100
H 	H 	0.76290 0.17050 0.76300 0.03900
C 	C 	0.85200 0.11770 0.82590 -0.02000
H 	H 	0.74900 0.11790 0.85590 0.06500
O 	O 	0.84190 0.04680 0.92540 -0.36900
N 	N 	0.40300 0.71746 0.57436 -0.22400
C 	C 	0.35000 0.69191 0.62710 0.10800
H 	H 	0.22550 0.68580 0.63920 -0.03400
C 	C 	0.34200 0.59110 0.79850 0.01300
H 	H 	0.23960 0.57230 0.80900 0.04300
C 	C 	0.33900 0.62110 0.73850 -0.10900
H 	H 	0.23240 0.62330 0.71050 0.06000
C 	C 	0.35800 0.64860 0.76860 -0.02300
H 	H 	0.26290 0.67050 0.76300 0.03900
C 	C 	0.35200 0.61770 0.82590 -0.03800
H 	H 	0.24900 0.61790 0.85590 0.06700
O 	O 	0.34190 0.54680 0.92540 -0.38800
N 	N 	0.09700 0.78254 0.57436 -0.22900
C 	C 	0.15000 0.80809 0.62710 0.10600
H 	H 	0.27450 0.81420 0.63920 -0.03000
C 	C 	0.15800 0.90890 0.79850 0.01300
H 	H 	0.26040 0.92770 0.80900 0.04800
C 	C 	0.16100 0.87890 0.73850 -0.10000
H 	H 	0.26760 0.87670 0.71050 0.06000
C 	C 	0.14200 0.85140 0.76860 -0.02700
H 	H 	0.23710 0.82950 0.76300 0.04200
C 	C 	0.14800 0.88230 0.82590 -0.04000
H 	H 	0.25100 0.88210 0.85590 0.06900
O 	O 	0.15810 0.95320 0.92540 -0.36800
N 	N 	0.59700 0.28254 0.57436 -0.22300
C 	C 	0.65000 0.30809 0.62710 0.10800
H 	H 	0.77450 0.31420 0.63920 -0.03000
C 	C 	0.65800 0.40890 0.79850 0.01300
H 	H 	0.76040 0.42770 0.80900 0.04600
C 	C 	0.66100 0.37890 0.73850 -0.10900
H 	H 	0.76760 0.37670 0.71050 0.06400
C 	C 	0.64200 0.35140 0.76860 -0.02400
H 	H 	0.73710 0.32950 0.76300 0.04300
C 	C 	0.64800 0.38230 0.82590 -0.03900
H 	H 	0.75100 0.38210 0.85590 0.07100
O 	O 	0.65810 0.45320 0.92540 -0.38500
N 	N 	0.90300 0.78254 0.57436 -0.21900
C 	C 	0.85000 0.80809 0.62710 0.12600
H 	H 	0.72550 0.81420 0.63920 -0.03500
C 	C 	0.84200 0.90890 0.79850 0.01800
H 	H 	0.73960 0.92770 0.80900 0.04900
C 	C 	0.83900 0.87890 0.73850 -0.09200
H 	H 	0.73240 0.87670 0.71050 0.06000
C 	C 	0.85800 0.85140 0.76860 -0.01600
H 	H 	0.76290 0.82950 0.76300 0.04100
C 	C 	0.85200 0.88230 0.82590 -0.02400
H 	H 	0.74900 0.88210 0.85590 0.06700
O 	O 	0.84190 0.95320 0.92540 -0.35300
N 	N 	0.40300 0.28254 0.57436 -0.22400
C 	C 	0.35000 0.30809 0.62710 0.10800
H 	H 	0.22550 0.31420 0.63920 -0.03400
C 	C 	0.34200 0.40890 0.79850 0.01300
H 	H 	0.23960 0.42770 0.80900 0.04300
C 	C 	0.33900 0.37890 0.73850 -0.10900
H 	H 	0.23240 0.37670 0.71050 0.06000
C 	C 	0.35800 0.35140 0.76860 -0.02300
H 	H 	0.26290 0.32950 0.76300 0.03900
C 	C 	0.35200 0.38230 0.82590 -0.03800
H 	H 	0.24900 0.38210 0.85590 0.06700
O 	O 	0.34190 0.45320 0.92540 -0.38800
N 	N 	0.09700 0.21746 0.57436 -0.22900
C 	C 	0.15000 0.19191 0.62710 0.10400
H 	H 	0.27450 0.18580 0.63920 -0.03100
C 	C 	0.15800 0.09110 0.79850 0.01200
H 	H 	0.26040 0.07230 0.80900 0.04100
C 	C 	0.16100 0.12110 0.73850 -0.10800
H 	H 	0.26760 0.12330 0.71050 0.05900
C 	C 	0.14200 0.14860 0.76860 -0.02200
H 	H 	0.23710 0.17050 0.76300 0.04000
C 	C 	0.14800 0.11770 0.82590 -0.03600
H 	H 	0.25100 0.11790 0.85590 0.06700
O 	O 	0.15810 0.04680 0.92540 -0.38400
N 	N 	0.59700 0.71746 0.57436 -0.22300
C 	C 	0.65000 0.69191 0.62710 0.10800
H 	H 	0.77450 0.68580 0.63920 -0.03000
C 	C 	0.65800 0.59110 0.79850 0.01300
H 	H 	0.76040 0.57230 0.80900 0.04600
C 	C 	0.66100 0.62110 0.73850 -0.10900
H 	H 	0.76760 0.62330 0.71050 0.06300
C 	C 	0.64200 0.64860 0.76860 -0.02400
H 	H 	0.73710 0.67050 0.76300 0.04300
C 	C 	0.64800 0.61770 0.82590 -0.03900
H 	H 	0.75100 0.61790 0.85590 0.07100
O 	O 	0.65810 0.54680 0.92540 -0.38500
N 	N 	0.09700 0.78254 0.42564 -0.22900
C 	C 	0.15000 0.80809 0.37290 0.10500
H 	H 	0.27450 0.81420 0.36080 -0.03200
C 	C 	0.15800 0.90890 0.20150 0.02200
H 	H 	0.26040 0.92770 0.19100 0.04200
C 	C 	0.16100 0.87890 0.26150 -0.09100
H 	H 	0.26760 0.87670 0.28950 0.05600
C 	C 	0.14200 0.85140 0.23140 -0.04600
H 	H 	0.23710 0.82950 0.23700 0.03900
C 	C 	0.14800 0.88230 0.17410 -0.03700
H 	H 	0.25100 0.88210 0.14410 0.04700
O 	O 	0.15810 0.95320 0.07460 -0.43000
N 	N 	0.59700 0.28254 0.42564 -0.22300
C 	C 	0.65000 0.30809 0.37290 0.10700
H 	H 	0.77450 0.31420 0.36080 -0.03100
C 	C 	0.65800 0.40890 0.20150 0.02200
H 	H 	0.76040 0.42770 0.19100 0.03900
C 	C 	0.66100 0.37890 0.26150 -0.10000
H 	H 	0.76760 0.37670 0.28950 0.06000
C 	C 	0.64200 0.35140 0.23140 -0.04400
H 	H 	0.73710 0.32950 0.23700 0.04100
C 	C 	0.64800 0.38230 0.17410 -0.03600
H 	H 	0.75100 0.38210 0.14410 0.04900
O 	O 	0.65810 0.45320 0.07460 -0.44800
N 	N 	0.90300 0.21746 0.42564 -0.22000
C 	C 	0.85000 0.19191 0.37290 0.12300
H 	H 	0.72550 0.18580 0.36080 -0.03800
C 	C 	0.84200 0.09110 0.20150 0.02500
H 	H 	0.73960 0.07230 0.19100 0.03600
C 	C 	0.83900 0.12110 0.26150 -0.09200
H 	H 	0.73240 0.12330 0.28950 0.05500
C 	C 	0.85800 0.14860 0.23140 -0.03100
H 	H 	0.76290 0.17050 0.23700 0.03700
C 	C 	0.85200 0.11770 0.17410 -0.01700
H 	H 	0.74900 0.11790 0.14410 0.04200
O 	O 	0.84190 0.04680 0.07460 -0.43300
N 	N 	0.40300 0.71746 0.42564 -0.22400
C 	C 	0.35000 0.69191 0.37290 0.10700
H 	H 	0.22550 0.68580 0.36080 -0.03500
C 	C 	0.34200 0.59110 0.20150 0.02100
H 	H 	0.23960 0.57230 0.19100 0.03600
C 	C 	0.33900 0.62110 0.26150 -0.10000
H 	H 	0.23240 0.62330 0.28950 0.05600
C 	C 	0.35800 0.64860 0.23140 -0.04300
H 	H 	0.26290 0.67050 0.23700 0.03700
C 	C 	0.35200 0.61770 0.17410 -0.03600
H 	H 	0.24900 0.61790 0.14410 0.04500
O 	O 	0.34190 0.54680 0.07460 -0.45100
Cu	Cu	0.25000 0.25000 0.50000 0.82300
Cu	Cu	0.75000 0.75000 0.50000 0.82600
Cu	Cu	0.75000 0.25000 0.50000 0.82600
Cu	Cu	0.25000 0.75000 0.50000 0.82400
Cu	Cu	0.18810 0.00000 -0.00000 0.78300
Cu	Cu	0.68810 0.50000 -0.00000 0.79300
Cu	Cu	0.81190 0.00000 -0.00000 0.78800
Cu	Cu	0.31190 0.50000 -0.00000 0.79200
N 	N 	0.00000 0.17595 0.33890 -0.17400
C 	C 	0.00000 0.14680 0.27670 0.09800
C 	C 	0.00000 0.09060 0.16000 -0.07600
C 	C 	0.00000 0.05600 0.09110 0.32000
N 	N 	0.50000 0.67595 0.33890 -0.16800
C 	C 	0.50000 0.64680 0.27670 0.12100
C 	C 	0.50000 0.59060 0.16000 -0.05400
C 	C 	0.50000 0.55600 0.09110 0.34500
N 	N 	0.00000 0.82405 0.33890 -0.17400
C 	C 	-0.00000 0.85320 0.27670 0.09900
C 	C 	-0.00000 0.90940 0.16000 -0.06800
C 	C 	-0.00000 0.94400 0.09110 0.31800
N 	N 	0.50000 0.32405 0.33890 -0.16800
C 	C 	0.50000 0.35320 0.27670 0.12100
C 	C 	0.50000 0.40940 0.16000 -0.05400
C 	C 	0.50000 0.44400 0.09110 0.34500
N 	N 	-0.00000 0.17595 0.66110 -0.17300
C 	C 	-0.00000 0.14680 0.72330 0.09200
C 	C 	0.00000 0.09060 0.84000 -0.05300
C 	C 	-0.00000 0.05600 0.90890 0.31100
N 	N 	0.50000 0.67595 0.66110 -0.16600
C 	C 	0.50000 0.64680 0.72330 0.11600
C 	C 	0.50000 0.59060 0.84000 -0.03100
C 	C 	0.50000 0.55600 0.90890 0.33700
N 	N 	-0.00000 0.82405 0.66110 -0.17200
C 	C 	-0.00000 0.85320 0.72330 0.09300
C 	C 	0.00000 0.90940 0.84000 -0.04600
C 	C 	-0.00000 0.94400 0.90890 0.30900
N 	N 	0.50000 0.32405 0.66110 -0.16600
C 	C 	0.50000 0.35320 0.72330 0.11600
C 	C 	0.50000 0.40940 0.84000 -0.03100
C 	C 	0.50000 0.44400 0.90890 0.33700
Cl	Cl	0.50000 0.00000 -0.00000 -0.59000
Cl	Cl	-0.00000 0.50000 -0.00000 -0.57800
Cu	Cu	-0.00000 0.00000 -0.00000 0.53300
Cu	Cu	0.50000 0.50000 -0.00000 0.54800
