data_crystal

_cell_length_a 25.01110
_cell_length_b 22.98430
_cell_length_c 17.19590
_cell_angle_alpha 90.00000
_cell_angle_beta  96.40400
_cell_angle_gamma 90.00000

_symmetry_space_group_name_	'P 1'
_symmetry_space_group_name_H-M	'P 1'

loop_
_symmetry_equiv_pos_as_xyz
  x,y,z

loop_
_atom_site_label
_atom_site_type_symbol
_atom_site_fract_x
_atom_site_fract_y
_atom_site_fract_z
_atom_site_charge
Zn	Zn	0.14242 0.93269 0.31883 1.20600
S 	S 	0.85210 0.74480 0.48520 0.04800
S 	S 	0.24430 0.11660 0.81190 -0.04700
O 	O 	0.03299 0.93287 0.19220 -0.52300
O 	O 	0.07180 0.89430 0.30290 -0.51800
O 	O 	0.69624 0.62630 0.31340 -0.50600
O 	O 	0.71870 0.58710 0.20250 -0.51600
O 	O 	0.14490 0.95101 0.42913 -0.54600
C 	C 	0.03420 0.89870 0.24830 0.41900
C 	C 	0.98730 0.85840 0.25010 -0.16400
C 	C 	0.94630 0.85890 0.18990 0.07200
H 	H 	0.94740 0.88510 0.14740 0.00800
C 	C 	0.90320 0.82110 0.19120 -0.14900
H 	H 	0.87620 0.81850 0.14790 0.07100
C 	C 	0.90050 0.78610 0.25920 0.08800
C 	C 	0.93840 0.78950 0.32040 -0.15500
H 	H 	0.93540 0.76680 0.36590 0.07800
C 	C 	0.98260 0.82660 0.31740 0.07100
H 	H 	0.00910 0.82980 0.36120 0.01000
C 	C 	0.85380 0.74490 0.25980 -0.04400
C 	C 	0.84390 0.70760 0.19640 -0.05600
H 	H 	0.86590 0.70730 0.15470 0.04300
C 	C 	0.79840 0.66920 0.19740 -0.01000
H 	H 	0.78880 0.64450 0.15370 0.03300
C 	C 	0.76910 0.66740 0.25820 -0.09200
C 	C 	0.77740 0.70880 0.31320 -0.05000
H 	H 	0.75330 0.71160 0.35190 0.05100
C 	C 	0.81870 0.74660 0.31530 0.04100
C 	C 	0.82710 0.78900 0.39050 -0.18300
H 	H 	0.85380 0.81950 0.38180 0.07800
H 	H 	0.79270 0.80850 0.39760 0.06800
C 	C 	0.85740 0.80310 0.55810 -0.43200
H 	H 	0.86960 0.78680 0.60980 0.15400
H 	H 	0.88340 0.83220 0.54430 0.15500
H 	H 	0.82220 0.82140 0.55930 0.15600
C 	C 	0.72580 0.62320 0.25920 0.35000
C 	C 	0.13060 0.95030 0.58960 0.13700
H 	H 	0.12000 0.91630 0.56030 -0.01900
C 	C 	0.12970 0.94970 0.66690 0.03300
H 	H 	0.11870 0.91570 0.69230 0.00900
C 	C 	0.09460 0.98850 0.82840 0.15900
H 	H 	0.06350 0.98000 0.79320 -0.04500
C 	C 	0.09070 0.01090 0.90460 -0.19600
H 	H 	0.05680 0.01800 0.92300 0.11800
C 	C 	0.18600 0.01580 0.92970 -0.55000
H 	H 	0.21640 0.02590 0.96530 0.20600
C 	C 	0.18950 0.01600 0.84990 -0.17800
C 	C 	0.24270 0.03140 0.82360 0.63100
H 	H 	0.24690 0.01230 0.77310 -0.65200
H 	H 	0.27230 0.01840 0.86270 -0.25200
C 	C 	0.26370 0.12200 0.71600 -0.33100
H 	H 	0.26500 0.16310 0.70100 0.12100
H 	H 	0.23760 0.10150 0.67920 0.12200
H 	H 	0.29940 0.10460 0.71490 0.12300
C 	C 	0.16180 0.04540 0.59210 0.09900
C 	C 	0.15840 0.04870 0.67300 0.02300
H 	H 	0.17590 0.07790 0.56690 -0.00800
H 	H 	0.16510 0.08430 0.70040 0.02200
Zn	Zn	0.64242 0.43269 0.31883 1.21000
S 	S 	0.35210 0.24480 0.48520 0.05200
S 	S 	0.74430 0.61660 0.81190 0.04800
O 	O 	0.53299 0.43287 0.19220 -0.50900
O 	O 	0.57180 0.39430 0.30290 -0.51200
O 	O 	0.19624 0.12630 0.31340 -0.50400
O 	O 	0.21870 0.08710 0.20250 -0.51200
O 	O 	0.64490 0.45101 0.42913 -0.51800
C 	C 	0.53420 0.39870 0.24830 0.41800
C 	C 	0.48730 0.35840 0.25010 -0.15900
C 	C 	0.44630 0.35890 0.18990 0.07100
H 	H 	0.44740 0.38510 0.14740 0.02000
C 	C 	0.40320 0.32110 0.19120 -0.14300
H 	H 	0.37620 0.31850 0.14790 0.07900
C 	C 	0.40050 0.28610 0.25920 0.08900
C 	C 	0.43840 0.28950 0.32040 -0.15300
H 	H 	0.43540 0.26680 0.36590 0.07900
C 	C 	0.48260 0.32660 0.31740 0.07100
H 	H 	0.50910 0.32980 0.36120 0.01200
C 	C 	0.35380 0.24490 0.25980 -0.04200
C 	C 	0.34390 0.20760 0.19640 -0.05300
H 	H 	0.36590 0.20730 0.15470 0.04600
C 	C 	0.29840 0.16920 0.19740 -0.00900
H 	H 	0.28880 0.14450 0.15370 0.03700
C 	C 	0.26910 0.16740 0.25820 -0.08800
C 	C 	0.27740 0.20880 0.31320 -0.04900
H 	H 	0.25330 0.21160 0.35190 0.05200
C 	C 	0.31870 0.24660 0.31530 0.04400
C 	C 	0.32710 0.28900 0.39050 -0.18500
H 	H 	0.35380 0.31950 0.38180 0.08000
H 	H 	0.29270 0.30850 0.39760 0.07100
C 	C 	0.35740 0.30310 0.55810 -0.43700
H 	H 	0.36960 0.28680 0.60980 0.15700
H 	H 	0.38340 0.33220 0.54430 0.15700
H 	H 	0.32220 0.32140 0.55930 0.15800
C 	C 	0.22580 0.12320 0.25920 0.35100
C 	C 	0.63060 0.45030 0.58960 0.02600
H 	H 	0.62000 0.41630 0.56030 0.01900
C 	C 	0.62970 0.44970 0.66690 -0.05800
H 	H 	0.61870 0.41570 0.69230 0.04500
C 	C 	0.59460 0.48850 0.82840 -0.02700
H 	H 	0.56350 0.48000 0.79320 0.03300
C 	C 	0.59070 0.51090 0.90460 -0.00100
H 	H 	0.55680 0.51800 0.92300 0.03000
C 	C 	0.68600 0.51580 0.92970 -0.02300
H 	H 	0.71640 0.52590 0.96530 0.03500
C 	C 	0.68950 0.51600 0.84990 0.02600
C 	C 	0.74270 0.53140 0.82360 -0.12000
H 	H 	0.74690 0.51230 0.77310 0.04600
H 	H 	0.77230 0.51840 0.86270 0.04600
C 	C 	0.76370 0.62200 0.71600 -0.40400
H 	H 	0.76500 0.66310 0.70100 0.13900
H 	H 	0.73760 0.60150 0.67920 0.13800
H 	H 	0.79940 0.60460 0.71490 0.13500
C 	C 	0.66180 0.54540 0.59210 -0.00400
C 	C 	0.65840 0.54870 0.67300 -0.06500
H 	H 	0.67590 0.57790 0.56690 0.02100
H 	H 	0.66510 0.58430 0.70040 0.04300
Zn	Zn	0.14242 0.06731 0.31883 1.21200
S 	S 	0.85210 0.25520 0.48520 0.04800
S 	S 	0.24430 0.88340 0.81190 0.14300
O 	O 	0.03299 0.06713 0.19220 -0.50500
O 	O 	0.07180 0.10570 0.30290 -0.50900
O 	O 	0.69624 0.37370 0.31340 -0.50500
O 	O 	0.71870 0.41290 0.20250 -0.51500
O 	O 	0.14490 0.04899 0.42913 -0.52000
C 	C 	0.03420 0.10130 0.24830 0.41800
C 	C 	0.98730 0.14160 0.25010 -0.15600
C 	C 	0.94630 0.14110 0.18990 0.06900
H 	H 	0.94740 0.11490 0.14740 0.02900
C 	C 	0.90320 0.17890 0.19120 -0.13800
H 	H 	0.87620 0.18150 0.14790 0.08400
C 	C 	0.90050 0.21390 0.25920 0.08800
C 	C 	0.93840 0.21050 0.32040 -0.15200
H 	H 	0.93540 0.23320 0.36590 0.07800
C 	C 	0.98260 0.17340 0.31740 0.07000
H 	H 	0.00910 0.17020 0.36120 0.01300
C 	C 	0.85380 0.25510 0.25980 -0.04100
C 	C 	0.84390 0.29240 0.19640 -0.05400
H 	H 	0.86590 0.29270 0.15470 0.04400
C 	C 	0.79840 0.33080 0.19740 -0.00800
H 	H 	0.78880 0.35550 0.15370 0.03400
C 	C 	0.76910 0.33260 0.25820 -0.09000
C 	C 	0.77740 0.29120 0.31320 -0.04900
H 	H 	0.75330 0.28840 0.35190 0.05200
C 	C 	0.81870 0.25340 0.31530 0.04500
C 	C 	0.82710 0.21100 0.39050 -0.18500
H 	H 	0.85380 0.18050 0.38180 0.08000
H 	H 	0.79270 0.19150 0.39760 0.07300
C 	C 	0.85740 0.19690 0.55810 -0.43500
H 	H 	0.86960 0.21320 0.60980 0.15500
H 	H 	0.88340 0.16780 0.54430 0.15700
H 	H 	0.82220 0.17860 0.55930 0.15800
C 	C 	0.72580 0.37680 0.25920 0.35100
C 	C 	0.13060 0.04970 0.58960 -0.08000
H 	H 	0.12000 0.08370 0.56030 0.05200
C 	C 	0.12970 0.05030 0.66690 -0.14000
H 	H 	0.11870 0.08430 0.69230 0.07400
C 	C 	0.09460 0.01150 0.82840 -0.22400
H 	H 	0.06350 0.02000 0.79320 0.11200
C 	C 	0.09070 0.98910 0.90460 0.17500
H 	H 	0.05680 0.98200 0.92300 -0.05600
C 	C 	0.18600 0.98420 0.92970 0.48300
H 	H 	0.21640 0.97410 0.96530 -0.13200
C 	C 	0.18950 0.98400 0.84990 0.21900
C 	C 	0.24270 0.96860 0.82360 -0.86500
H 	H 	0.24690 0.98770 0.77310 0.73900
H 	H 	0.27230 0.98160 0.86270 0.34200
C 	C 	0.26370 0.87800 0.71600 -0.47900
H 	H 	0.26500 0.83690 0.70100 0.15700
H 	H 	0.23760 0.89850 0.67920 0.15500
H 	H 	0.29940 0.89540 0.71490 0.14900
C 	C 	0.16180 0.95460 0.59210 -0.14800
C 	C 	0.15840 0.95130 0.67300 -0.19500
H 	H 	0.17590 0.92210 0.56690 0.06000
H 	H 	0.16510 0.91570 0.70040 0.07400
Zn	Zn	0.64242 0.56731 0.31883 1.21000
S 	S 	0.35210 0.75520 0.48520 0.04200
S 	S 	0.74430 0.38340 0.81190 0.05000
O 	O 	0.53299 0.56713 0.19220 -0.51000
O 	O 	0.57180 0.60570 0.30290 -0.51200
O 	O 	0.19624 0.87370 0.31340 -0.51000
O 	O 	0.21870 0.91290 0.20250 -0.53000
O 	O 	0.64490 0.54899 0.42913 -0.51800
C 	C 	0.53420 0.60130 0.24830 0.41800
C 	C 	0.48730 0.64160 0.25010 -0.15900
C 	C 	0.44630 0.64110 0.18990 0.07000
H 	H 	0.44740 0.61490 0.14740 0.02000
C 	C 	0.40320 0.67890 0.19120 -0.14200
H 	H 	0.37620 0.68150 0.14790 0.07700
C 	C 	0.40050 0.71390 0.25920 0.08600
C 	C 	0.43840 0.71050 0.32040 -0.15200
H 	H 	0.43540 0.73320 0.36590 0.07600
C 	C 	0.48260 0.67340 0.31740 0.06900
H 	H 	0.50910 0.67020 0.36120 0.01200
C 	C 	0.35380 0.75510 0.25980 -0.04200
C 	C 	0.34390 0.79240 0.19640 -0.05800
H 	H 	0.36590 0.79270 0.15470 0.04200
C 	C 	0.29840 0.83080 0.19740 -0.00800
H 	H 	0.28880 0.85550 0.15370 0.02900
C 	C 	0.26910 0.83260 0.25820 -0.09600
C 	C 	0.27740 0.79120 0.31320 -0.04800
H 	H 	0.25330 0.78840 0.35190 0.05000
C 	C 	0.31870 0.75340 0.31530 0.04100
C 	C 	0.32710 0.71100 0.39050 -0.18300
H 	H 	0.35380 0.68050 0.38180 0.07900
H 	H 	0.29270 0.69150 0.39760 0.07000
C 	C 	0.35740 0.69690 0.55810 -0.43100
H 	H 	0.36960 0.71320 0.60980 0.15200
H 	H 	0.38340 0.66780 0.54430 0.15500
H 	H 	0.32220 0.67860 0.55930 0.15600
C 	C 	0.22580 0.87680 0.25920 0.35100
C 	C 	0.63060 0.54970 0.58960 0.02600
H 	H 	0.62000 0.58370 0.56030 0.01900
C 	C 	0.62970 0.55030 0.66690 -0.05800
H 	H 	0.61870 0.58430 0.69230 0.04500
C 	C 	0.59460 0.51150 0.82840 -0.02700
H 	H 	0.56350 0.52000 0.79320 0.03300
C 	C 	0.59070 0.48910 0.90460 -0.00200
H 	H 	0.55680 0.48200 0.92300 0.03100
C 	C 	0.68600 0.48420 0.92970 -0.02600
H 	H 	0.71640 0.47410 0.96530 0.03700
C 	C 	0.68950 0.48400 0.84990 0.02500
C 	C 	0.74270 0.46860 0.82360 -0.11600
H 	H 	0.74690 0.48770 0.77310 0.04200
H 	H 	0.77230 0.48160 0.86270 0.04400
C 	C 	0.76370 0.37800 0.71600 -0.40500
H 	H 	0.76500 0.33690 0.70100 0.13900
H 	H 	0.73760 0.39850 0.67920 0.13900
H 	H 	0.79940 0.39540 0.71490 0.13600
C 	C 	0.66180 0.45460 0.59210 -0.00400
C 	C 	0.65840 0.45130 0.67300 -0.06500
H 	H 	0.67590 0.42210 0.56690 0.02100
H 	H 	0.66510 0.41570 0.70040 0.04300
Zn	Zn	0.07965 -0.00000 0.17837 1.22400
Zn	Zn	0.20952 -0.00000 0.19914 1.19500
O 	O 	0.14198 -0.00000 0.25265 -0.94700
O 	O 	0.17690 0.00000 0.08700 -0.50800
O 	O 	0.08892 0.00000 0.06860 -0.49100
C 	C 	0.14590 0.00000 0.46240 0.41400
C 	C 	0.14670 -0.00000 0.55000 -0.09400
C 	C 	0.14530 0.00000 0.71090 0.09400
C 	C 	0.14350 -0.00000 0.79830 -0.01100
C 	C 	0.13590 0.00000 0.95850 -0.06600
C 	C 	0.13420 0.00000 0.04500 0.42100
Zn	Zn	0.57965 0.50000 0.17837 1.21900
Zn	Zn	0.70952 0.50000 0.19914 1.18900
O 	O 	0.64198 0.50000 0.25265 -0.96100
O 	O 	0.67690 0.50000 0.08700 -0.52100
O 	O 	0.58892 0.50000 0.06860 -0.50300
C 	C 	0.64590 0.50000 0.46240 0.38500
C 	C 	0.64670 0.50000 0.55000 -0.12700
C 	C 	0.64530 0.50000 0.71090 0.06200
C 	C 	0.64350 0.50000 0.79830 -0.03500
C 	C 	0.63590 0.50000 0.95850 -0.10100
C 	C 	0.63420 0.50000 0.04500 0.43000
Zn	Zn	0.85758 0.93269 0.68117 1.20500
S 	S 	0.14790 0.74480 0.51480 0.04700
S 	S 	0.75570 0.11660 0.18810 -0.04800
O 	O 	0.96701 0.93287 0.80780 -0.52400
O 	O 	0.92820 0.89430 0.69710 -0.51800
O 	O 	0.30376 0.62630 0.68660 -0.50600
O 	O 	0.28130 0.58710 0.79750 -0.51600
O 	O 	0.85510 0.95101 0.57087 -0.54600
C 	C 	0.96580 0.89870 0.75170 0.41900
C 	C 	0.01270 0.85840 0.74990 -0.16400
C 	C 	0.05370 0.85890 0.81010 0.07200
H 	H 	0.05260 0.88510 0.85260 0.00800
C 	C 	0.09680 0.82110 0.80880 -0.14900
H 	H 	0.12380 0.81850 0.85210 0.07100
C 	C 	0.09950 0.78610 0.74080 0.08800
C 	C 	0.06160 0.78950 0.67960 -0.15500
H 	H 	0.06460 0.76680 0.63410 0.07800
C 	C 	0.01740 0.82660 0.68260 0.07100
H 	H 	0.99090 0.82980 0.63880 0.01000
C 	C 	0.14620 0.74490 0.74020 -0.04400
C 	C 	0.15610 0.70760 0.80360 -0.05600
H 	H 	0.13410 0.70730 0.84530 0.04300
C 	C 	0.20160 0.66920 0.80260 -0.01000
H 	H 	0.21120 0.64450 0.84630 0.03300
C 	C 	0.23090 0.66740 0.74180 -0.09200
C 	C 	0.22260 0.70880 0.68680 -0.05000
H 	H 	0.24670 0.71160 0.64810 0.05100
C 	C 	0.18130 0.74660 0.68470 0.04100
C 	C 	0.17290 0.78900 0.60950 -0.18300
H 	H 	0.14620 0.81950 0.61820 0.07800
H 	H 	0.20730 0.80850 0.60240 0.06800
C 	C 	0.14260 0.80310 0.44190 -0.43200
H 	H 	0.13040 0.78680 0.39020 0.15400
H 	H 	0.11660 0.83220 0.45570 0.15500
H 	H 	0.17780 0.82140 0.44070 0.15600
C 	C 	0.27420 0.62320 0.74080 0.35000
C 	C 	0.86940 0.95030 0.41040 0.13700
H 	H 	0.88000 0.91630 0.43970 -0.01900
C 	C 	0.87030 0.94970 0.33310 0.03300
H 	H 	0.88130 0.91570 0.30770 0.00900
C 	C 	0.90540 0.98850 0.17160 0.15900
H 	H 	0.93650 0.98000 0.20680 -0.04500
C 	C 	0.90930 0.01090 0.09540 -0.19600
H 	H 	0.94320 0.01800 0.07700 0.11800
C 	C 	0.81400 0.01580 0.07030 -0.55000
H 	H 	0.78360 0.02590 0.03470 0.20600
C 	C 	0.81050 0.01600 0.15010 -0.17800
C 	C 	0.75730 0.03140 0.17640 0.63100
H 	H 	0.75310 0.01230 0.22690 -0.65200
H 	H 	0.72770 0.01840 0.13730 -0.25200
C 	C 	0.73630 0.12200 0.28400 -0.33100
H 	H 	0.73500 0.16310 0.29900 0.12100
H 	H 	0.76240 0.10150 0.32080 0.12200
H 	H 	0.70060 0.10460 0.28510 0.12300
C 	C 	0.83820 0.04540 0.40790 0.09900
C 	C 	0.84160 0.04870 0.32700 0.02300
H 	H 	0.82410 0.07790 0.43310 -0.00800
H 	H 	0.83490 0.08430 0.29960 0.02200
Zn	Zn	0.35758 0.43269 0.68117 1.21000
S 	S 	0.64790 0.24480 0.51480 0.05200
S 	S 	0.25570 0.61660 0.18810 0.04800
O 	O 	0.46701 0.43287 0.80780 -0.50900
O 	O 	0.42820 0.39430 0.69710 -0.51200
O 	O 	0.80376 0.12630 0.68660 -0.50400
O 	O 	0.78130 0.08710 0.79750 -0.51200
O 	O 	0.35510 0.45101 0.57087 -0.51800
C 	C 	0.46580 0.39870 0.75170 0.41800
C 	C 	0.51270 0.35840 0.74990 -0.15900
C 	C 	0.55370 0.35890 0.81010 0.07100
H 	H 	0.55260 0.38510 0.85260 0.02000
C 	C 	0.59680 0.32110 0.80880 -0.14300
H 	H 	0.62380 0.31850 0.85210 0.07900
C 	C 	0.59950 0.28610 0.74080 0.08900
C 	C 	0.56160 0.28950 0.67960 -0.15300
H 	H 	0.56460 0.26680 0.63410 0.07900
C 	C 	0.51740 0.32660 0.68260 0.07100
H 	H 	0.49090 0.32980 0.63880 0.01200
C 	C 	0.64620 0.24490 0.74020 -0.04200
C 	C 	0.65610 0.20760 0.80360 -0.05300
H 	H 	0.63410 0.20730 0.84530 0.04600
C 	C 	0.70160 0.16920 0.80260 -0.00900
H 	H 	0.71120 0.14450 0.84630 0.03700
C 	C 	0.73090 0.16740 0.74180 -0.08800
C 	C 	0.72260 0.20880 0.68680 -0.04900
H 	H 	0.74670 0.21160 0.64810 0.05200
C 	C 	0.68130 0.24660 0.68470 0.04400
C 	C 	0.67290 0.28900 0.60950 -0.18500
H 	H 	0.64620 0.31950 0.61820 0.08000
H 	H 	0.70730 0.30850 0.60240 0.07100
C 	C 	0.64260 0.30310 0.44190 -0.43700
H 	H 	0.63040 0.28680 0.39020 0.15700
H 	H 	0.61660 0.33220 0.45570 0.15700
H 	H 	0.67780 0.32140 0.44070 0.15800
C 	C 	0.77420 0.12320 0.74080 0.35100
C 	C 	0.36940 0.45030 0.41040 0.02600
H 	H 	0.38000 0.41630 0.43970 0.01900
C 	C 	0.37030 0.44970 0.33310 -0.05800
H 	H 	0.38130 0.41570 0.30770 0.04500
C 	C 	0.40540 0.48850 0.17160 -0.02700
H 	H 	0.43650 0.48000 0.20680 0.03300
C 	C 	0.40930 0.51090 0.09540 -0.00100
H 	H 	0.44320 0.51800 0.07700 0.03000
C 	C 	0.31400 0.51580 0.07030 -0.02300
H 	H 	0.28360 0.52590 0.03470 0.03500
C 	C 	0.31050 0.51600 0.15010 0.02600
C 	C 	0.25730 0.53140 0.17640 -0.12000
H 	H 	0.25310 0.51230 0.22690 0.04600
H 	H 	0.22770 0.51840 0.13730 0.04600
C 	C 	0.23630 0.62200 0.28400 -0.40400
H 	H 	0.23500 0.66310 0.29900 0.13900
H 	H 	0.26240 0.60150 0.32080 0.13800
H 	H 	0.20060 0.60460 0.28510 0.13500
C 	C 	0.33820 0.54540 0.40790 -0.00400
C 	C 	0.34160 0.54870 0.32700 -0.06500
H 	H 	0.32410 0.57790 0.43310 0.02100
H 	H 	0.33490 0.58430 0.29960 0.04300
Zn	Zn	0.85758 0.06731 0.68117 1.21200
S 	S 	0.14790 0.25520 0.51480 0.04800
S 	S 	0.75570 0.88340 0.18810 0.14300
O 	O 	0.96701 0.06713 0.80780 -0.50500
O 	O 	0.92820 0.10570 0.69710 -0.50900
O 	O 	0.30376 0.37370 0.68660 -0.50500
O 	O 	0.28130 0.41290 0.79750 -0.51500
O 	O 	0.85510 0.04899 0.57087 -0.52000
C 	C 	0.96580 0.10130 0.75170 0.41800
C 	C 	0.01270 0.14160 0.74990 -0.15600
C 	C 	0.05370 0.14110 0.81010 0.06900
H 	H 	0.05260 0.11490 0.85260 0.02900
C 	C 	0.09680 0.17890 0.80880 -0.13800
H 	H 	0.12380 0.18150 0.85210 0.08400
C 	C 	0.09950 0.21390 0.74080 0.08800
C 	C 	0.06160 0.21050 0.67960 -0.15200
H 	H 	0.06460 0.23320 0.63410 0.07800
C 	C 	0.01740 0.17340 0.68260 0.07000
H 	H 	0.99090 0.17020 0.63880 0.01300
C 	C 	0.14620 0.25510 0.74020 -0.04100
C 	C 	0.15610 0.29240 0.80360 -0.05400
H 	H 	0.13410 0.29270 0.84530 0.04400
C 	C 	0.20160 0.33080 0.80260 -0.00800
H 	H 	0.21120 0.35550 0.84630 0.03400
C 	C 	0.23090 0.33260 0.74180 -0.09000
C 	C 	0.22260 0.29120 0.68680 -0.04900
H 	H 	0.24670 0.28840 0.64810 0.05200
C 	C 	0.18130 0.25340 0.68470 0.04500
C 	C 	0.17290 0.21100 0.60950 -0.18500
H 	H 	0.14620 0.18050 0.61820 0.08000
H 	H 	0.20730 0.19150 0.60240 0.07300
C 	C 	0.14260 0.19690 0.44190 -0.43500
H 	H 	0.13040 0.21320 0.39020 0.15500
H 	H 	0.11660 0.16780 0.45570 0.15700
H 	H 	0.17780 0.17860 0.44070 0.15800
C 	C 	0.27420 0.37680 0.74080 0.35100
C 	C 	0.86940 0.04970 0.41040 -0.08000
H 	H 	0.88000 0.08370 0.43970 0.05200
C 	C 	0.87030 0.05030 0.33310 -0.14000
H 	H 	0.88130 0.08430 0.30770 0.07400
C 	C 	0.90540 0.01150 0.17160 -0.22400
H 	H 	0.93650 0.02000 0.20680 0.11200
C 	C 	0.90930 0.98910 0.09540 0.17500
H 	H 	0.94320 0.98200 0.07700 -0.05600
C 	C 	0.81400 0.98420 0.07030 0.48300
H 	H 	0.78360 0.97410 0.03470 -0.13200
C 	C 	0.81050 0.98400 0.15010 0.21900
C 	C 	0.75730 0.96860 0.17640 -0.86500
H 	H 	0.75310 0.98770 0.22690 0.73900
H 	H 	0.72770 0.98160 0.13730 0.34200
C 	C 	0.73630 0.87800 0.28400 -0.47900
H 	H 	0.73500 0.83690 0.29900 0.15700
H 	H 	0.76240 0.89850 0.32080 0.15500
H 	H 	0.70060 0.89540 0.28510 0.14900
C 	C 	0.83820 0.95460 0.40790 -0.14800
C 	C 	0.84160 0.95130 0.32700 -0.19500
H 	H 	0.82410 0.92210 0.43310 0.06000
H 	H 	0.83490 0.91570 0.29960 0.07400
Zn	Zn	0.35758 0.56731 0.68117 1.21000
S 	S 	0.64790 0.75520 0.51480 0.04200
S 	S 	0.25570 0.38340 0.18810 0.05000
O 	O 	0.46701 0.56713 0.80780 -0.51000
O 	O 	0.42820 0.60570 0.69710 -0.51200
O 	O 	0.80376 0.87370 0.68660 -0.51000
O 	O 	0.78130 0.91290 0.79750 -0.53000
O 	O 	0.35510 0.54899 0.57087 -0.51800
C 	C 	0.46580 0.60130 0.75170 0.41800
C 	C 	0.51270 0.64160 0.74990 -0.15900
C 	C 	0.55370 0.64110 0.81010 0.07000
H 	H 	0.55260 0.61490 0.85260 0.02000
C 	C 	0.59680 0.67890 0.80880 -0.14200
H 	H 	0.62380 0.68150 0.85210 0.07700
C 	C 	0.59950 0.71390 0.74080 0.08600
C 	C 	0.56160 0.71050 0.67960 -0.15200
H 	H 	0.56460 0.73320 0.63410 0.07600
C 	C 	0.51740 0.67340 0.68260 0.06900
H 	H 	0.49090 0.67020 0.63880 0.01200
C 	C 	0.64620 0.75510 0.74020 -0.04200
C 	C 	0.65610 0.79240 0.80360 -0.05800
H 	H 	0.63410 0.79270 0.84530 0.04200
C 	C 	0.70160 0.83080 0.80260 -0.00800
H 	H 	0.71120 0.85550 0.84630 0.02900
C 	C 	0.73090 0.83260 0.74180 -0.09600
C 	C 	0.72260 0.79120 0.68680 -0.04800
H 	H 	0.74670 0.78840 0.64810 0.05000
C 	C 	0.68130 0.75340 0.68470 0.04100
C 	C 	0.67290 0.71100 0.60950 -0.18300
H 	H 	0.64620 0.68050 0.61820 0.07900
H 	H 	0.70730 0.69150 0.60240 0.07000
C 	C 	0.64260 0.69690 0.44190 -0.43100
H 	H 	0.63040 0.71320 0.39020 0.15200
H 	H 	0.61660 0.66780 0.45570 0.15500
H 	H 	0.67780 0.67860 0.44070 0.15600
C 	C 	0.77420 0.87680 0.74080 0.35100
C 	C 	0.36940 0.54970 0.41040 0.02600
H 	H 	0.38000 0.58370 0.43970 0.01900
C 	C 	0.37030 0.55030 0.33310 -0.05800
H 	H 	0.38130 0.58430 0.30770 0.04500
C 	C 	0.40540 0.51150 0.17160 -0.02700
H 	H 	0.43650 0.52000 0.20680 0.03300
C 	C 	0.40930 0.48910 0.09540 -0.00200
H 	H 	0.44320 0.48200 0.07700 0.03100
C 	C 	0.31400 0.48420 0.07030 -0.02600
H 	H 	0.28360 0.47410 0.03470 0.03700
C 	C 	0.31050 0.48400 0.15010 0.02500
C 	C 	0.25730 0.46860 0.17640 -0.11600
H 	H 	0.25310 0.48770 0.22690 0.04200
H 	H 	0.22770 0.48160 0.13730 0.04400
C 	C 	0.23630 0.37800 0.28400 -0.40500
H 	H 	0.23500 0.33690 0.29900 0.13900
H 	H 	0.26240 0.39850 0.32080 0.13900
H 	H 	0.20060 0.39540 0.28510 0.13600
C 	C 	0.33820 0.45460 0.40790 -0.00400
C 	C 	0.34160 0.45130 0.32700 -0.06500
H 	H 	0.32410 0.42210 0.43310 0.02100
H 	H 	0.33490 0.41570 0.29960 0.04300
Zn	Zn	0.92035 -0.00000 0.82163 1.22400
Zn	Zn	0.79048 0.00000 0.80086 1.19500
O 	O 	0.85802 0.00000 0.74735 -0.94700
O 	O 	0.82310 0.00000 0.91300 -0.50800
O 	O 	0.91108 -0.00000 0.93140 -0.49100
C 	C 	0.85410 0.00000 0.53760 0.41400
C 	C 	0.85330 -0.00000 0.45000 -0.09400
C 	C 	0.85470 0.00000 0.28910 0.09400
C 	C 	0.85650 -0.00000 0.20170 -0.01100
C 	C 	0.86410 -0.00000 0.04150 -0.06600
C 	C 	0.86580 0.00000 0.95500 0.42100
Zn	Zn	0.42035 0.50000 0.82163 1.21900
Zn	Zn	0.29048 0.50000 0.80086 1.18900
O 	O 	0.35802 0.50000 0.74735 -0.96100
O 	O 	0.32310 0.50000 0.91300 -0.52100
O 	O 	0.41108 0.50000 0.93140 -0.50300
C 	C 	0.35410 0.50000 0.53760 0.38500
C 	C 	0.35330 0.50000 0.45000 -0.12700
C 	C 	0.35470 0.50000 0.28910 0.06200
C 	C 	0.35650 0.50000 0.20170 -0.03500
C 	C 	0.36410 0.50000 0.04150 -0.10100
C 	C 	0.36580 0.50000 0.95500 0.43000
