data_crystal

_cell_length_a 12.50780
_cell_length_b 9.43040
_cell_length_c 7.06370
_cell_angle_alpha 90.00000
_cell_angle_beta  106.72400
_cell_angle_gamma 90.00000

_symmetry_space_group_name_	'P 1'
_symmetry_space_group_name_H-M	'P 1'

loop_
_symmetry_equiv_pos_as_xyz
  x,y,z

loop_
_atom_site_label
_atom_site_type_symbol
_atom_site_fract_x
_atom_site_fract_y
_atom_site_fract_z
_atom_site_charge
Cd	Cd	0.78617 0.16221 0.62113 1.14500
O 	O 	0.61240 0.24160 0.69580 -0.40900
C 	C 	0.57890 0.11850 0.66210 0.31200
N 	N 	0.21710 0.23760 0.77440 -0.28200
H 	H 	0.23510 0.32580 0.78720 0.01700
H 	H 	0.15400 0.21010 0.78730 0.09700
O 	O 	0.63550 0.02350 0.60420 -0.45300
C 	C 	0.46780 0.07830 0.68470 -0.09400
C 	C 	0.43780 0.93550 0.67960 0.06600
H 	H 	0.48760 0.86730 0.66130 -0.02700
C 	C 	0.39430 0.17900 0.71050 -0.04700
H 	H 	0.41290 0.27460 0.71360 -0.01400
C 	C 	0.26780 0.99220 0.72740 -0.01000
H 	H 	0.20000 0.96280 0.74380 0.02200
C 	C 	0.29150 0.13740 0.73210 0.02100
N 	N 	0.33990 0.89380 0.70010 -0.23800
Cd	Cd	0.28617 0.66221 0.62113 1.14600
O 	O 	0.11240 0.74160 0.69580 -0.40900
C 	C 	0.07890 0.61850 0.66210 0.35400
N 	N 	0.71710 0.73760 0.77440 -0.27700
H 	H 	0.73510 0.82580 0.78720 0.01200
H 	H 	0.65400 0.71010 0.78730 0.08900
O 	O 	0.13550 0.52350 0.60420 -0.45200
C 	C 	0.96780 0.57830 0.68470 -0.14300
C 	C 	0.93780 0.43550 0.67960 0.08500
H 	H 	0.98760 0.36730 0.66130 -0.04600
C 	C 	0.89430 0.67900 0.71050 -0.02100
H 	H 	0.91290 0.77460 0.71360 -0.03100
C 	C 	0.76780 0.49220 0.72740 -0.00200
H 	H 	0.70000 0.46280 0.74380 0.01500
C 	C 	0.79150 0.63740 0.73210 0.00700
N 	N 	0.83990 0.39380 0.70010 -0.24500
Cd	Cd	0.78617 0.83779 0.12113 1.13100
O 	O 	0.61240 0.75840 0.19580 -0.42800
C 	C 	0.57890 0.88150 0.16210 0.30800
N 	N 	0.21710 0.76240 0.27440 -0.27800
H 	H 	0.23510 0.67420 0.28720 0.00200
H 	H 	0.15400 0.78990 0.28730 0.08100
O 	O 	0.63550 0.97650 0.10420 -0.47300
C 	C 	0.46780 0.92170 0.18470 -0.11000
C 	C 	0.43780 0.06450 0.17960 0.05300
H 	H 	0.48760 0.13270 0.16130 -0.03700
C 	C 	0.39430 0.82100 0.21050 -0.05000
H 	H 	0.41290 0.72540 0.21360 -0.02600
C 	C 	0.26780 0.00780 0.22740 -0.02000
H 	H 	0.20000 0.03720 0.24380 0.01200
C 	C 	0.29150 0.86260 0.23210 0.00300
N 	N 	0.33990 0.10620 0.20010 -0.24900
Cd	Cd	0.28617 0.33779 0.12113 1.13300
O 	O 	0.11240 0.25840 0.19580 -0.42800
C 	C 	0.07890 0.38150 0.16210 0.35100
N 	N 	0.71710 0.26240 0.27440 -0.27300
H 	H 	0.73510 0.17420 0.28720 -0.00300
H 	H 	0.65400 0.28990 0.28730 0.07200
O 	O 	0.13550 0.47650 0.10420 -0.47300
C 	C 	0.96780 0.42170 0.18470 -0.16100
C 	C 	0.93780 0.56450 0.17960 0.07400
H 	H 	0.98760 0.63270 0.16130 -0.05600
C 	C 	0.89430 0.32100 0.21050 -0.02200
H 	H 	0.91290 0.22540 0.21360 -0.04300
C 	C 	0.76780 0.50780 0.22740 -0.01100
H 	H 	0.70000 0.53720 0.24380 0.00400
C 	C 	0.79150 0.36260 0.23210 -0.01400
N 	N 	0.83990 0.60620 0.20010 -0.25700
