data_crystal

_cell_length_a 23.82120
_cell_length_b 23.82120
_cell_length_c 30.29380
_cell_angle_alpha 90.00000
_cell_angle_beta  90.00000
_cell_angle_gamma 120.00000

_symmetry_space_group_name_	'P 1'
_symmetry_space_group_name_H-M	'P 1'

loop_
_symmetry_equiv_pos_as_xyz
  x,y,z

loop_
_atom_site_label
_atom_site_type_symbol
_atom_site_fract_x
_atom_site_fract_y
_atom_site_fract_z
_atom_site_charge
O 	O 	0.32200 0.55041 0.86694 -0.52000
C 	C 	0.24660 0.39210 0.94830 0.00500
C 	C 	0.27290 0.44710 0.92180 -0.03000
H 	H 	0.31620 0.46680 0.91350 0.06000
O 	O 	0.98867 0.88374 0.20027 -0.51600
C 	C 	0.91327 0.72543 0.28163 0.00700
C 	C 	0.93957 0.78043 0.25513 -0.03200
H 	H 	0.98287 0.80013 0.24683 0.06300
O 	O 	0.65533 0.21708 0.53361 -0.52100
C 	C 	0.57993 0.05877 0.61497 0.00300
C 	C 	0.60623 0.11377 0.58847 -0.03100
H 	H 	0.64953 0.13347 0.58017 0.06000
O 	O 	0.44959 0.77159 0.86694 -0.52000
C 	C 	0.60790 0.85450 0.94830 0.00600
C 	C 	0.55290 0.82580 0.92180 -0.03100
H 	H 	0.53320 0.84940 0.91350 0.06100
O 	O 	0.11626 0.10492 0.20027 -0.52300
C 	C 	0.27457 0.18783 0.28163 0.00300
C 	C 	0.21957 0.15913 0.25513 -0.02900
H 	H 	0.19987 0.18273 0.24683 0.05900
O 	O 	0.78292 0.43826 0.53361 -0.52000
C 	C 	0.94123 0.52117 0.61497 0.00600
C 	C 	0.88623 0.49247 0.58847 -0.03000
H 	H 	0.86653 0.51607 0.58017 0.06100
O 	O 	0.22841 0.67800 0.86694 -0.52100
C 	C 	0.14550 0.75340 0.94830 0.00300
C 	C 	0.17420 0.72710 0.92180 -0.03000
H 	H 	0.15060 0.68380 0.91350 0.06000
O 	O 	0.89508 0.01133 0.20027 -0.52200
C 	C 	0.81217 0.08673 0.28163 0.00300
C 	C 	0.84087 0.06043 0.25513 -0.03000
H 	H 	0.81727 0.01713 0.24683 0.05900
O 	O 	0.56174 0.34467 0.53361 -0.52100
C 	C 	0.47883 0.42007 0.61497 0.00400
C 	C 	0.50753 0.39377 0.58847 -0.03000
H 	H 	0.48393 0.35047 0.58017 0.06000
O 	O 	0.44959 0.67800 0.86694 -0.52100
C 	C 	0.60790 0.75340 0.94830 0.00500
C 	C 	0.55290 0.72710 0.92180 -0.03100
H 	H 	0.53320 0.68380 0.91350 0.06100
O 	O 	0.11626 0.01133 0.20027 -0.52500
C 	C 	0.27457 0.08673 0.28163 0.00200
C 	C 	0.21957 0.06043 0.25513 -0.02900
H 	H 	0.19987 0.01713 0.24683 0.05800
O 	O 	0.78292 0.34467 0.53361 -0.52000
C 	C 	0.94123 0.42007 0.61497 0.00500
C 	C 	0.88623 0.39377 0.58847 -0.03000
H 	H 	0.86653 0.35047 0.58017 0.06100
O 	O 	0.22841 0.55041 0.86694 -0.52100
C 	C 	0.14550 0.39210 0.94830 0.00300
C 	C 	0.17420 0.44710 0.92180 -0.03000
H 	H 	0.15060 0.46680 0.91350 0.06000
O 	O 	0.89508 0.88374 0.20027 -0.51800
C 	C 	0.81217 0.72543 0.28163 0.00600
C 	C 	0.84087 0.78043 0.25513 -0.03100
H 	H 	0.81727 0.80013 0.24683 0.06200
O 	O 	0.56174 0.21708 0.53361 -0.52100
C 	C 	0.47883 0.05877 0.61497 0.00300
C 	C 	0.50753 0.11377 0.58847 -0.03100
H 	H 	0.48393 0.13347 0.58017 0.06000
O 	O 	0.32200 0.77159 0.86694 -0.52000
C 	C 	0.24660 0.85450 0.94830 0.00600
C 	C 	0.27290 0.82580 0.92180 -0.03100
H 	H 	0.31620 0.84940 0.91350 0.06100
O 	O 	0.98867 0.10492 0.20027 -0.51800
C 	C 	0.91327 0.18783 0.28163 0.00600
C 	C 	0.93957 0.15913 0.25513 -0.03100
H 	H 	0.98287 0.18273 0.24683 0.06200
O 	O 	0.65533 0.43826 0.53361 -0.52000
C 	C 	0.57993 0.52117 0.61497 0.00500
C 	C 	0.60623 0.49247 0.58847 -0.03100
H 	H 	0.64953 0.51607 0.58017 0.06100
Zn	Zn	-0.00000 0.00000 0.07759 1.21600
O 	O 	-0.00000 0.00000 0.14164 -0.97400
Zn	Zn	0.66667 0.33333 0.41092 1.21900
O 	O 	0.66667 0.33333 0.47497 -0.96800
Zn	Zn	0.33333 0.66667 0.74426 1.21900
O 	O 	0.33333 0.66667 0.80831 -0.96800
Zn	Zn	0.04443 0.08887 0.16150 1.21400
O 	O 	0.07440 0.14880 0.11320 -0.52700
O 	O 	0.04310 0.08620 0.05425 -0.54300
C 	C 	0.06940 0.13880 0.07170 0.44600
C 	C 	0.09795 0.19590 0.04540 -0.12800
C 	C 	0.12875 0.25750 0.06400 0.00200
H 	H 	0.13110 0.26220 0.09450 0.04800
C 	C 	0.15635 0.31270 0.03690 -0.01100
C 	C 	0.15250 0.30500 0.98990 0.00800
C 	C 	0.12145 0.24290 0.97100 -0.01700
C 	C 	0.09450 0.18900 0.99950 0.00000
H 	H 	0.07380 0.14760 0.98750 0.04800
C 	C 	0.18145 0.36290 0.96120 -0.00800
C 	C 	0.23615 0.47230 0.90790 -0.07400
C 	C 	0.26640 0.53280 0.87850 0.41900
Zn	Zn	0.71110 0.42220 0.49483 1.21500
O 	O 	0.74107 0.48213 0.44653 -0.52500
O 	O 	0.70977 0.41953 0.38758 -0.54000
C 	C 	0.73607 0.47213 0.40503 0.44500
C 	C 	0.76462 0.52923 0.37873 -0.12600
C 	C 	0.79542 0.59083 0.39733 0.00100
H 	H 	0.79777 0.59553 0.42783 0.05000
C 	C 	0.82302 0.64603 0.37023 -0.00800
C 	C 	0.81917 0.63833 0.32323 0.00800
C 	C 	0.78812 0.57623 0.30433 -0.01500
C 	C 	0.76117 0.52233 0.33283 -0.00100
H 	H 	0.74047 0.48093 0.32083 0.04900
C 	C 	0.84812 0.69623 0.29453 -0.00800
C 	C 	0.90282 0.80563 0.24123 -0.07200
C 	C 	0.93307 0.86613 0.21183 0.41800
Zn	Zn	0.37777 0.75554 0.82817 1.21500
O 	O 	0.40773 0.81547 0.77987 -0.52500
O 	O 	0.37643 0.75287 0.72092 -0.54000
C 	C 	0.40273 0.80547 0.73837 0.44500
C 	C 	0.43128 0.86257 0.71207 -0.12600
C 	C 	0.46208 0.92417 0.73067 0.00100
H 	H 	0.46443 0.92887 0.76117 0.05000
C 	C 	0.48968 0.97937 0.70357 -0.00800
C 	C 	0.48583 0.97167 0.65657 0.01300
C 	C 	0.45478 0.90957 0.63767 -0.01500
C 	C 	0.42783 0.85567 0.66617 -0.00000
H 	H 	0.40713 0.81427 0.65417 0.04900
C 	C 	0.51478 0.02957 0.62787 -0.01300
C 	C 	0.56948 0.13897 0.57457 -0.07400
C 	C 	0.59973 0.19947 0.54517 0.41900
Zn	Zn	0.91113 0.95557 0.16150 1.21800
O 	O 	0.85120 0.92560 0.11320 -0.52300
O 	O 	0.91380 0.95690 0.05425 -0.53500
C 	C 	0.86120 0.93060 0.07170 0.44400
C 	C 	0.80410 0.90205 0.04540 -0.12400
C 	C 	0.74250 0.87125 0.06400 0.00100
H 	H 	0.73780 0.86890 0.09450 0.05000
C 	C 	0.68730 0.84365 0.03690 -0.00800
C 	C 	0.69500 0.84750 0.98990 0.00800
C 	C 	0.75710 0.87855 0.97100 -0.01400
C 	C 	0.81100 0.90550 0.99950 -0.00100
H 	H 	0.85240 0.92620 0.98750 0.05100
C 	C 	0.63710 0.81855 0.96120 -0.00800
C 	C 	0.52770 0.76385 0.90790 -0.07300
C 	C 	0.46720 0.73360 0.87850 0.41900
Zn	Zn	0.57780 0.28890 0.49483 1.21500
O 	O 	0.51787 0.25893 0.44653 -0.52600
O 	O 	0.58047 0.29023 0.38758 -0.54000
C 	C 	0.52787 0.26393 0.40503 0.44500
C 	C 	0.47077 0.23538 0.37873 -0.12700
C 	C 	0.40917 0.20458 0.39733 0.00200
H 	H 	0.40447 0.20223 0.42783 0.04800
C 	C 	0.35397 0.17698 0.37023 -0.01100
C 	C 	0.36167 0.18083 0.32323 0.00800
C 	C 	0.42377 0.21188 0.30433 -0.01600
C 	C 	0.47767 0.23883 0.33283 -0.00000
H 	H 	0.51907 0.25953 0.32083 0.04900
C 	C 	0.30377 0.15188 0.29453 -0.00700
C 	C 	0.19437 0.09718 0.24123 -0.07600
C 	C 	0.13387 0.06693 0.21183 0.42000
Zn	Zn	0.24446 0.62223 0.82817 1.21500
O 	O 	0.18453 0.59227 0.77987 -0.52600
O 	O 	0.24713 0.62357 0.72092 -0.54000
C 	C 	0.19453 0.59727 0.73837 0.44500
C 	C 	0.13743 0.56872 0.71207 -0.12700
C 	C 	0.07583 0.53792 0.73067 0.00100
H 	H 	0.07113 0.53557 0.76117 0.04800
C 	C 	0.02063 0.51032 0.70357 -0.01000
C 	C 	0.02833 0.51417 0.65657 0.00300
C 	C 	0.09043 0.54522 0.63767 -0.01500
C 	C 	0.14433 0.57217 0.66617 -0.00100
H 	H 	0.18573 0.59287 0.65417 0.04900
C 	C 	0.97043 0.48522 0.62787 -0.00200
C 	C 	0.86103 0.43052 0.57457 -0.07300
C 	C 	0.80053 0.40027 0.54517 0.41900
Zn	Zn	0.04444 0.95557 0.16150 1.21600
O 	O 	0.07440 0.92560 0.11320 -0.52500
O 	O 	0.04310 0.95690 0.05425 -0.53900
C 	C 	0.06940 0.93060 0.07170 0.44500
C 	C 	0.09795 0.90205 0.04540 -0.12700
C 	C 	0.12875 0.87125 0.06400 0.00200
H 	H 	0.13110 0.86890 0.09450 0.04900
C 	C 	0.15635 0.84365 0.03690 -0.01000
C 	C 	0.15250 0.84750 0.98990 0.00900
C 	C 	0.12145 0.87855 0.97100 -0.01500
C 	C 	0.09450 0.90550 0.99950 0.00100
H 	H 	0.07380 0.92620 0.98750 0.04900
C 	C 	0.18145 0.81855 0.96120 -0.00800
C 	C 	0.23615 0.76385 0.90790 -0.07400
C 	C 	0.26640 0.73360 0.87850 0.41900
Zn	Zn	0.71110 0.28890 0.49483 1.21500
O 	O 	0.74107 0.25893 0.44653 -0.52500
O 	O 	0.70977 0.29023 0.38758 -0.54000
C 	C 	0.73607 0.26393 0.40503 0.44500
C 	C 	0.76462 0.23538 0.37873 -0.12600
C 	C 	0.79542 0.20458 0.39733 0.00100
H 	H 	0.79777 0.20223 0.42783 0.04900
C 	C 	0.82302 0.17698 0.37023 -0.00900
C 	C 	0.81917 0.18083 0.32323 0.00800
C 	C 	0.78812 0.21188 0.30433 -0.01500
C 	C 	0.76117 0.23883 0.33283 -0.00100
H 	H 	0.74047 0.25953 0.32083 0.04900
C 	C 	0.84812 0.15188 0.29453 -0.00800
C 	C 	0.90282 0.09718 0.24123 -0.07400
C 	C 	0.93307 0.06693 0.21183 0.41900
Zn	Zn	0.37777 0.62223 0.82817 1.21500
O 	O 	0.40773 0.59227 0.77987 -0.52600
O 	O 	0.37643 0.62357 0.72092 -0.54000
C 	C 	0.40273 0.59727 0.73837 0.44500
C 	C 	0.43128 0.56872 0.71207 -0.12600
C 	C 	0.46208 0.53792 0.73067 0.00100
H 	H 	0.46443 0.53557 0.76117 0.04900
C 	C 	0.48968 0.51032 0.70357 -0.00900
C 	C 	0.48583 0.51417 0.65657 0.00800
C 	C 	0.45478 0.54522 0.63767 -0.01500
C 	C 	0.42783 0.57217 0.66617 -0.00000
H 	H 	0.40713 0.59287 0.65417 0.04900
C 	C 	0.51478 0.48522 0.62787 -0.00800
C 	C 	0.56948 0.43052 0.57457 -0.07400
C 	C 	0.59973 0.40027 0.54517 0.41900
O 	O 	0.55041 0.32200 0.13306 -0.52100
C 	C 	0.39210 0.24660 0.05170 0.00400
C 	C 	0.44710 0.27290 0.07820 -0.03000
H 	H 	0.46680 0.31620 0.08650 0.06000
O 	O 	0.21708 0.65533 0.46639 -0.52100
C 	C 	0.05877 0.57993 0.38503 0.00300
C 	C 	0.11377 0.60623 0.41153 -0.03100
H 	H 	0.13347 0.64953 0.41983 0.06000
O 	O 	0.88374 0.98867 0.79973 -0.51600
C 	C 	0.72543 0.91327 0.71837 0.00700
C 	C 	0.78043 0.93957 0.74487 -0.03200
H 	H 	0.80013 0.98287 0.75317 0.06300
O 	O 	0.77159 0.44959 0.13306 -0.52000
C 	C 	0.85450 0.60790 0.05170 0.00600
C 	C 	0.82580 0.55290 0.07820 -0.03100
H 	H 	0.84940 0.53320 0.08650 0.06100
O 	O 	0.43826 0.78292 0.46639 -0.52000
C 	C 	0.52117 0.94123 0.38503 0.00600
C 	C 	0.49247 0.88623 0.41153 -0.03000
H 	H 	0.51607 0.86653 0.41983 0.06100
O 	O 	0.10492 0.11626 0.79973 -0.52300
C 	C 	0.18783 0.27457 0.71837 0.00300
C 	C 	0.15913 0.21957 0.74487 -0.02900
H 	H 	0.18273 0.19987 0.75317 0.05900
O 	O 	0.67800 0.22841 0.13306 -0.52100
C 	C 	0.75340 0.14550 0.05170 0.00300
C 	C 	0.72710 0.17420 0.07820 -0.03000
H 	H 	0.68380 0.15060 0.08650 0.06000
O 	O 	0.34467 0.56174 0.46639 -0.52100
C 	C 	0.42007 0.47883 0.38503 0.00400
C 	C 	0.39377 0.50753 0.41153 -0.03000
H 	H 	0.35047 0.48393 0.41983 0.06000
O 	O 	0.01133 0.89508 0.79973 -0.52200
C 	C 	0.08673 0.81217 0.71837 0.00300
C 	C 	0.06043 0.84087 0.74487 -0.03000
H 	H 	0.01713 0.81727 0.75317 0.05900
O 	O 	0.67800 0.44959 0.13306 -0.52100
C 	C 	0.75340 0.60790 0.05170 0.00500
C 	C 	0.72710 0.55290 0.07820 -0.03100
H 	H 	0.68380 0.53320 0.08650 0.06100
O 	O 	0.34467 0.78292 0.46639 -0.52000
C 	C 	0.42007 0.94123 0.38503 0.00500
C 	C 	0.39377 0.88623 0.41153 -0.03000
H 	H 	0.35047 0.86653 0.41983 0.06100
O 	O 	0.01133 0.11626 0.79973 -0.52400
C 	C 	0.08673 0.27457 0.71837 0.00200
C 	C 	0.06043 0.21957 0.74487 -0.02900
H 	H 	0.01713 0.19987 0.75317 0.05800
O 	O 	0.55041 0.22841 0.13306 -0.52100
C 	C 	0.39210 0.14550 0.05170 0.00300
C 	C 	0.44710 0.17420 0.07820 -0.03000
H 	H 	0.46680 0.15060 0.08650 0.06000
O 	O 	0.21708 0.56174 0.46639 -0.52100
C 	C 	0.05877 0.47883 0.38503 0.00300
C 	C 	0.11377 0.50753 0.41153 -0.03100
H 	H 	0.13347 0.48393 0.41983 0.06000
O 	O 	0.88374 0.89508 0.79973 -0.51800
C 	C 	0.72543 0.81217 0.71837 0.00600
C 	C 	0.78043 0.84087 0.74487 -0.03100
H 	H 	0.80013 0.81727 0.75317 0.06200
O 	O 	0.77159 0.32200 0.13306 -0.52000
C 	C 	0.85450 0.24660 0.05170 0.00600
C 	C 	0.82580 0.27290 0.07820 -0.03100
H 	H 	0.84940 0.31620 0.08650 0.06100
O 	O 	0.43826 0.65533 0.46639 -0.52000
C 	C 	0.52117 0.57993 0.38503 0.00500
C 	C 	0.49247 0.60623 0.41153 -0.03100
H 	H 	0.51607 0.64953 0.41983 0.06100
O 	O 	0.10492 0.98867 0.79973 -0.51800
C 	C 	0.18783 0.91327 0.71837 0.00600
C 	C 	0.15913 0.93957 0.74487 -0.03100
H 	H 	0.18273 0.98287 0.75317 0.06200
Zn	Zn	-0.00000 0.00000 0.92241 1.21600
O 	O 	0.00000 0.00000 0.85836 -0.97400
Zn	Zn	0.66667 0.33333 0.25574 1.21900
O 	O 	0.66667 0.33333 0.19169 -0.96800
Zn	Zn	0.33333 0.66667 0.58908 1.21900
O 	O 	0.33333 0.66667 0.52503 -0.96800
Zn	Zn	0.08887 0.04443 0.83850 1.21400
O 	O 	0.14880 0.07440 0.88680 -0.52700
O 	O 	0.08620 0.04310 0.94575 -0.54300
C 	C 	0.13880 0.06940 0.92830 0.44600
C 	C 	0.19590 0.09795 0.95460 -0.12800
C 	C 	0.25750 0.12875 0.93600 0.00200
H 	H 	0.26220 0.13110 0.90550 0.04800
C 	C 	0.31270 0.15635 0.96310 -0.01100
C 	C 	0.30500 0.15250 0.01010 0.00800
C 	C 	0.24290 0.12145 0.02900 -0.01700
C 	C 	0.18900 0.09450 0.00050 0.00000
H 	H 	0.14760 0.07380 0.01250 0.04800
C 	C 	0.36290 0.18145 0.03880 -0.00800
C 	C 	0.47230 0.23615 0.09210 -0.07400
C 	C 	0.53280 0.26640 0.12150 0.41900
Zn	Zn	0.75554 0.37777 0.17183 1.21500
O 	O 	0.81547 0.40773 0.22013 -0.52500
O 	O 	0.75287 0.37643 0.27908 -0.54000
C 	C 	0.80547 0.40273 0.26163 0.44500
C 	C 	0.86257 0.43128 0.28793 -0.12600
C 	C 	0.92417 0.46208 0.26933 0.00100
H 	H 	0.92887 0.46443 0.23883 0.05000
C 	C 	0.97937 0.48968 0.29643 -0.00800
C 	C 	0.97167 0.48583 0.34343 0.01300
C 	C 	0.90957 0.45478 0.36233 -0.01500
C 	C 	0.85567 0.42783 0.33383 -0.00000
H 	H 	0.81427 0.40713 0.34583 0.04900
C 	C 	0.02957 0.51478 0.37213 -0.01300
C 	C 	0.13897 0.56948 0.42543 -0.07400
C 	C 	0.19947 0.59973 0.45483 0.41900
Zn	Zn	0.42220 0.71110 0.50517 1.21500
O 	O 	0.48213 0.74107 0.55347 -0.52500
O 	O 	0.41953 0.70977 0.61242 -0.54000
C 	C 	0.47213 0.73607 0.59497 0.44500
C 	C 	0.52923 0.76462 0.62127 -0.12600
C 	C 	0.59083 0.79542 0.60267 0.00100
H 	H 	0.59553 0.79777 0.57217 0.05000
C 	C 	0.64603 0.82302 0.62977 -0.00800
C 	C 	0.63833 0.81917 0.67677 0.00800
C 	C 	0.57623 0.78812 0.69567 -0.01500
C 	C 	0.52233 0.76117 0.66717 -0.00100
H 	H 	0.48093 0.74047 0.67917 0.04900
C 	C 	0.69623 0.84812 0.70547 -0.00800
C 	C 	0.80563 0.90282 0.75877 -0.07200
C 	C 	0.86613 0.93307 0.78817 0.41800
Zn	Zn	0.95556 0.91113 0.83850 1.21800
O 	O 	0.92560 0.85120 0.88680 -0.52300
O 	O 	0.95690 0.91380 0.94575 -0.53500
C 	C 	0.93060 0.86120 0.92830 0.44400
C 	C 	0.90205 0.80410 0.95460 -0.12400
C 	C 	0.87125 0.74250 0.93600 0.00100
H 	H 	0.86890 0.73780 0.90550 0.05000
C 	C 	0.84365 0.68730 0.96310 -0.00800
C 	C 	0.84750 0.69500 0.01010 0.00800
C 	C 	0.87855 0.75710 0.02900 -0.01400
C 	C 	0.90550 0.81100 0.00050 -0.00100
H 	H 	0.92620 0.85240 0.01250 0.05100
C 	C 	0.81855 0.63710 0.03880 -0.00800
C 	C 	0.76385 0.52770 0.09210 -0.07300
C 	C 	0.73360 0.46720 0.12150 0.41900
Zn	Zn	0.62223 0.24446 0.17183 1.21500
O 	O 	0.59227 0.18453 0.22013 -0.52600
O 	O 	0.62357 0.24713 0.27908 -0.54000
C 	C 	0.59727 0.19453 0.26163 0.44500
C 	C 	0.56872 0.13743 0.28793 -0.12700
C 	C 	0.53792 0.07583 0.26933 0.00100
H 	H 	0.53557 0.07113 0.23883 0.04800
C 	C 	0.51032 0.02063 0.29643 -0.01000
C 	C 	0.51417 0.02833 0.34343 0.00300
C 	C 	0.54522 0.09043 0.36233 -0.01500
C 	C 	0.57217 0.14433 0.33383 -0.00100
H 	H 	0.59287 0.18573 0.34583 0.04900
C 	C 	0.48522 0.97043 0.37213 -0.00200
C 	C 	0.43052 0.86103 0.42543 -0.07300
C 	C 	0.40027 0.80053 0.45483 0.41900
Zn	Zn	0.28890 0.57780 0.50517 1.21500
O 	O 	0.25893 0.51787 0.55347 -0.52600
O 	O 	0.29023 0.58047 0.61242 -0.54000
C 	C 	0.26393 0.52787 0.59497 0.44500
C 	C 	0.23538 0.47077 0.62127 -0.12700
C 	C 	0.20458 0.40917 0.60267 0.00200
H 	H 	0.20223 0.40447 0.57217 0.04800
C 	C 	0.17698 0.35397 0.62977 -0.01100
C 	C 	0.18083 0.36167 0.67677 0.00800
C 	C 	0.21188 0.42377 0.69567 -0.01600
C 	C 	0.23883 0.47767 0.66717 -0.00000
H 	H 	0.25953 0.51907 0.67917 0.04900
C 	C 	0.15188 0.30377 0.70547 -0.00700
C 	C 	0.09718 0.19437 0.75877 -0.07600
C 	C 	0.06693 0.13387 0.78817 0.42000
Zn	Zn	0.95556 0.04443 0.83850 1.21600
O 	O 	0.92560 0.07440 0.88680 -0.52500
O 	O 	0.95690 0.04310 0.94575 -0.53900
C 	C 	0.93060 0.06940 0.92830 0.44500
C 	C 	0.90205 0.09795 0.95460 -0.12700
C 	C 	0.87125 0.12875 0.93600 0.00200
H 	H 	0.86890 0.13110 0.90550 0.04900
C 	C 	0.84365 0.15635 0.96310 -0.01000
C 	C 	0.84750 0.15250 0.01010 0.00900
C 	C 	0.87855 0.12145 0.02900 -0.01500
C 	C 	0.90550 0.09450 0.00050 0.00100
H 	H 	0.92620 0.07380 0.01250 0.04900
C 	C 	0.81855 0.18145 0.03880 -0.00800
C 	C 	0.76385 0.23615 0.09210 -0.07400
C 	C 	0.73360 0.26640 0.12150 0.41900
Zn	Zn	0.62223 0.37777 0.17183 1.21500
O 	O 	0.59227 0.40773 0.22013 -0.52600
O 	O 	0.62357 0.37643 0.27908 -0.54000
C 	C 	0.59727 0.40273 0.26163 0.44500
C 	C 	0.56872 0.43128 0.28793 -0.12600
C 	C 	0.53792 0.46208 0.26933 0.00100
H 	H 	0.53557 0.46443 0.23883 0.04900
C 	C 	0.51032 0.48968 0.29643 -0.00900
C 	C 	0.51417 0.48583 0.34343 0.00800
C 	C 	0.54522 0.45478 0.36233 -0.01500
C 	C 	0.57217 0.42783 0.33383 -0.00000
H 	H 	0.59287 0.40713 0.34583 0.04900
C 	C 	0.48522 0.51478 0.37213 -0.00800
C 	C 	0.43052 0.56948 0.42543 -0.07400
C 	C 	0.40027 0.59973 0.45483 0.41900
Zn	Zn	0.28890 0.71110 0.50517 1.21500
O 	O 	0.25893 0.74107 0.55347 -0.52500
O 	O 	0.29023 0.70977 0.61242 -0.54000
C 	C 	0.26393 0.73607 0.59497 0.44500
C 	C 	0.23538 0.76462 0.62127 -0.12600
C 	C 	0.20458 0.79542 0.60267 0.00100
H 	H 	0.20223 0.79777 0.57217 0.04900
C 	C 	0.17698 0.82302 0.62977 -0.00900
C 	C 	0.18083 0.81917 0.67677 0.00800
C 	C 	0.21188 0.78812 0.69567 -0.01500
C 	C 	0.23883 0.76117 0.66717 -0.00100
H 	H 	0.25953 0.74047 0.67917 0.04900
C 	C 	0.15188 0.84812 0.70547 -0.00800
C 	C 	0.09718 0.90282 0.75877 -0.07300
C 	C 	0.06693 0.93307 0.78817 0.41900
