data_crystal

_cell_length_a 25.16700
_cell_length_b 23.20000
_cell_length_c 17.10200
_cell_angle_alpha 90.00000
_cell_angle_beta  93.56100
_cell_angle_gamma 90.00000

_symmetry_space_group_name_	'P 1'
_symmetry_space_group_name_H-M	'P 1'

loop_
_symmetry_equiv_pos_as_xyz
  x,y,z

loop_
_atom_site_label
_atom_site_type_symbol
_atom_site_fract_x
_atom_site_fract_y
_atom_site_fract_z
_atom_site_charge
Zn	Zn	0.14745 0.06699 0.31645 1.21200
S 	S 	0.26230 0.90100 0.82790 0.36900
O 	O 	0.03625 0.06726 0.20480 -0.49700
O 	O 	0.08427 0.11516 0.29900 -0.50400
O 	O 	0.74590 0.43280 0.22070 -0.53500
O 	O 	0.70692 0.38118 0.31050 -0.49400
O 	O 	0.15168 0.04850 0.42800 -0.51000
O 	O 	0.26950 0.88410 0.91790 -0.21100
O 	O 	0.23130 0.85240 0.78120 -0.22100
C 	C 	0.04330 0.10670 0.25560 0.38700
C 	C 	0.99953 0.14970 0.25960 -0.09800
C 	C 	0.95301 0.14410 0.21200 0.02200
H 	H 	0.94930 0.11320 0.17550 0.05100
C 	C 	0.91194 0.18360 0.21770 -0.08700
H 	H 	0.88010 0.17980 0.18510 0.07600
C 	C 	0.91740 0.22880 0.27100 0.02100
C 	C 	0.96390 0.23440 0.31860 -0.01600
C 	C 	0.00500 0.19490 0.31290 -0.01000
H 	H 	0.03680 0.19870 0.34540 0.05100
C 	C 	0.87094 0.26900 0.27481 0.02200
C 	C 	0.86824 0.31160 0.21750 -0.08700
H 	H 	0.89510 0.31400 0.18100 0.06400
C 	C 	0.82624 0.35058 0.21360 0.03300
H 	H 	0.82440 0.37970 0.17450 0.03200
C 	C 	0.78695 0.34703 0.26710 -0.11300
C 	C 	0.78965 0.30447 0.32440 0.00000
H 	H 	0.76280 0.30200 0.36090 0.05200
C 	C 	0.83165 0.26545 0.32830 -0.00600
C 	C 	0.74517 0.39171 0.26850 0.40500
C 	C 	0.15215 0.04720 0.59070 0.21100
H 	H 	0.15530 0.08290 0.56420 -0.02000
C 	C 	0.14867 0.04820 0.66923 -0.26300
H 	H 	0.14660 0.08420 0.69520 0.13500
C 	C 	0.14252 0.99720 0.79730 -0.06900
C 	C 	0.09272 0.00610 0.82600 -0.08600
H 	H 	0.06220 0.00930 0.79080 -0.44400
C 	C 	0.08762 0.01020 0.90630 0.01200
H 	H 	0.05360 0.01620 0.92600 0.01500
C 	C 	0.13234 0.00530 0.95780 0.04600
C 	C 	0.18214 0.99640 0.92910 -0.08300
H 	H 	0.21270 0.99320 0.96430 -0.05300
C 	C 	0.18723 0.99230 0.84880 -0.02700
C 	C 	0.12940 0.00760 0.04430 0.22100
C 	C 	0.23340 0.97490 0.81420 -0.01500
C 	C 	0.32490 0.89870 0.80230 -0.63000
H 	H 	0.34470 0.86960 0.83400 0.22500
H 	H 	0.34160 0.93650 0.81120 0.20700
H 	H 	0.32550 0.88850 0.74670 0.21700
Zn	Zn	0.64745 0.56699 0.31645 1.21400
S 	S 	0.76230 0.40100 0.82790 0.37800
O 	O 	0.53625 0.56726 0.20480 -0.50000
O 	O 	0.58427 0.61516 0.29900 -0.50200
O 	O 	0.24590 0.93280 0.22070 -0.52400
O 	O 	0.20692 0.88118 0.31050 -0.49000
O 	O 	0.65168 0.54850 0.42800 -0.51200
O 	O 	0.76950 0.38410 0.91790 -0.21700
O 	O 	0.73130 0.35240 0.78120 -0.22200
C 	C 	0.54330 0.60670 0.25560 0.38800
C 	C 	0.49953 0.64970 0.25960 -0.10400
C 	C 	0.45301 0.64410 0.21200 0.02600
H 	H 	0.44930 0.61320 0.17550 0.03700
C 	C 	0.41194 0.68360 0.21770 -0.09200
H 	H 	0.38010 0.67980 0.18510 0.07700
C 	C 	0.41740 0.72880 0.27100 0.02300
C 	C 	0.46390 0.73440 0.31860 -0.01600
C 	C 	0.50500 0.69490 0.31290 -0.00700
H 	H 	0.53680 0.69870 0.34540 0.05100
C 	C 	0.37094 0.76900 0.27481 0.02100
C 	C 	0.36824 0.81160 0.21750 -0.08500
H 	H 	0.39510 0.81400 0.18100 0.06500
C 	C 	0.32624 0.85058 0.21360 0.03200
H 	H 	0.32440 0.87970 0.17450 0.03500
C 	C 	0.28695 0.84703 0.26710 -0.11000
C 	C 	0.28965 0.80447 0.32440 -0.00100
H 	H 	0.26280 0.80200 0.36090 0.05300
C 	C 	0.33165 0.76545 0.32830 -0.00500
C 	C 	0.24517 0.89171 0.26850 0.40500
C 	C 	0.65215 0.54720 0.59070 0.22900
H 	H 	0.65530 0.58290 0.56420 -0.02600
C 	C 	0.64867 0.54820 0.66923 -0.29100
H 	H 	0.64660 0.58420 0.69520 0.14100
C 	C 	0.64252 0.49720 0.79730 -0.03500
C 	C 	0.59272 0.50610 0.82600 -0.00900
H 	H 	0.56220 0.50930 0.79080 0.02000
C 	C 	0.58762 0.51020 0.90630 -0.02000
H 	H 	0.55360 0.51620 0.92600 0.03600
C 	C 	0.63234 0.50530 0.95780 -0.01500
C 	C 	0.68214 0.49640 0.92910 -0.02200
H 	H 	0.71270 0.49320 0.96430 0.03200
C 	C 	0.68723 0.49230 0.84880 0.02900
C 	C 	0.62940 0.50760 0.04430 0.14200
C 	C 	0.73340 0.47490 0.81420 -0.06100
C 	C 	0.82490 0.39870 0.80230 -0.63100
H 	H 	0.84470 0.36960 0.83400 0.22300
H 	H 	0.84160 0.43650 0.81120 0.20400
H 	H 	0.82550 0.38850 0.74670 0.21600
Zn	Zn	0.14745 0.93301 0.31645 1.21700
S 	S 	0.26230 0.09900 0.82790 0.38500
O 	O 	0.03625 0.93274 0.20480 -0.50000
O 	O 	0.08427 0.88484 0.29900 -0.50000
O 	O 	0.74590 0.56720 0.22070 -0.53300
O 	O 	0.70692 0.61882 0.31050 -0.49200
O 	O 	0.15168 0.95150 0.42800 -0.49500
O 	O 	0.26950 0.11590 0.91790 -0.22300
O 	O 	0.23130 0.14760 0.78120 -0.22400
C 	C 	0.04330 0.89330 0.25560 0.38900
C 	C 	0.99953 0.85030 0.25960 -0.11100
C 	C 	0.95301 0.85590 0.21200 0.03100
H 	H 	0.94930 0.88680 0.17550 0.02400
C 	C 	0.91194 0.81640 0.21770 -0.09700
H 	H 	0.88010 0.82020 0.18510 0.07900
C 	C 	0.91740 0.77120 0.27100 0.02500
C 	C 	0.96390 0.76560 0.31860 -0.02000
C 	C 	0.00500 0.80510 0.31290 -0.00300
H 	H 	0.03680 0.80130 0.34540 0.05000
C 	C 	0.87094 0.73100 0.27481 0.02000
C 	C 	0.86824 0.68840 0.21750 -0.08600
H 	H 	0.89510 0.68600 0.18100 0.06400
C 	C 	0.82624 0.64942 0.21360 0.03200
H 	H 	0.82440 0.62030 0.17450 0.03200
C 	C 	0.78695 0.65297 0.26710 -0.11200
C 	C 	0.78965 0.69553 0.32440 -0.00000
H 	H 	0.76280 0.69800 0.36090 0.05300
C 	C 	0.83165 0.73455 0.32830 -0.00500
C 	C 	0.74517 0.60829 0.26850 0.40500
C 	C 	0.15215 0.95280 0.59070 0.23000
H 	H 	0.15530 0.91710 0.56420 -0.02400
C 	C 	0.14867 0.95180 0.66923 -0.25500
H 	H 	0.14660 0.91580 0.69520 0.12700
C 	C 	0.14252 0.00280 0.79730 0.01500
C 	C 	0.09272 0.99390 0.82600 0.06300
H 	H 	0.06220 0.99070 0.79080 0.48600
C 	C 	0.08762 0.98980 0.90630 -0.05000
H 	H 	0.05360 0.98380 0.92600 0.05700
C 	C 	0.13234 0.99470 0.95780 -0.07900
C 	C 	0.18214 0.00360 0.92910 0.04100
H 	H 	0.21270 0.00680 0.96430 0.11600
C 	C 	0.18723 0.00770 0.84880 0.08000
C 	C 	0.12940 0.99240 0.04430 0.07800
C 	C 	0.23340 0.02510 0.81420 -0.10500
C 	C 	0.32490 0.10130 0.80230 -0.63400
H 	H 	0.34470 0.13040 0.83400 0.22300
H 	H 	0.34160 0.06350 0.81120 0.20100
H 	H 	0.32550 0.11150 0.74670 0.21500
Zn	Zn	0.64745 0.43301 0.31645 1.21400
S 	S 	0.76230 0.59900 0.82790 0.37800
O 	O 	0.53625 0.43274 0.20480 -0.50100
O 	O 	0.58427 0.38484 0.29900 -0.50200
O 	O 	0.24590 0.06720 0.22070 -0.53700
O 	O 	0.20692 0.11882 0.31050 -0.49400
O 	O 	0.65168 0.45150 0.42800 -0.51200
O 	O 	0.76950 0.61590 0.91790 -0.21700
O 	O 	0.73130 0.64760 0.78120 -0.22200
C 	C 	0.54330 0.39330 0.25560 0.38900
C 	C 	0.49953 0.35030 0.25960 -0.10500
C 	C 	0.45301 0.35590 0.21200 0.02600
H 	H 	0.44930 0.38680 0.17550 0.03700
C 	C 	0.41194 0.31640 0.21770 -0.09300
H 	H 	0.38010 0.32020 0.18510 0.07700
C 	C 	0.41740 0.27120 0.27100 0.02300
C 	C 	0.46390 0.26560 0.31860 -0.01900
C 	C 	0.50500 0.30510 0.31290 -0.00600
H 	H 	0.53680 0.30130 0.34540 0.05000
C 	C 	0.37094 0.23100 0.27481 0.02100
C 	C 	0.36824 0.18840 0.21750 -0.08800
H 	H 	0.39510 0.18600 0.18100 0.06300
C 	C 	0.32624 0.14942 0.21360 0.03200
H 	H 	0.32440 0.12030 0.17450 0.03000
C 	C 	0.28695 0.15297 0.26710 -0.11400
C 	C 	0.28965 0.19553 0.32440 0.00000
H 	H 	0.26280 0.19800 0.36090 0.05200
C 	C 	0.33165 0.23455 0.32830 -0.00700
C 	C 	0.24517 0.10829 0.26850 0.40500
C 	C 	0.65215 0.45280 0.59070 0.22900
H 	H 	0.65530 0.41710 0.56420 -0.02600
C 	C 	0.64867 0.45180 0.66923 -0.29100
H 	H 	0.64660 0.41580 0.69520 0.14100
C 	C 	0.64252 0.50280 0.79730 -0.03500
C 	C 	0.59272 0.49390 0.82600 -0.00900
H 	H 	0.56220 0.49070 0.79080 0.02000
C 	C 	0.58762 0.48980 0.90630 -0.02000
H 	H 	0.55360 0.48380 0.92600 0.03600
C 	C 	0.63234 0.49470 0.95780 -0.01500
C 	C 	0.68214 0.50360 0.92910 -0.02300
H 	H 	0.71270 0.50680 0.96430 0.03200
C 	C 	0.68723 0.50770 0.84880 0.02900
C 	C 	0.62940 0.49240 0.04430 0.14200
C 	C 	0.73340 0.52510 0.81420 -0.06200
C 	C 	0.82490 0.60130 0.80230 -0.63200
H 	H 	0.84470 0.63040 0.83400 0.22400
H 	H 	0.84160 0.56350 0.81120 0.20400
H 	H 	0.82550 0.61150 0.74670 0.21600
Zn	Zn	0.08059 0.00000 0.18451 1.20700
Zn	Zn	0.20782 0.00000 0.18385 1.21800
O 	O 	0.14548 0.00000 0.25090 -0.96500
O 	O 	0.17440 0.00000 0.08470 -0.52200
O 	O 	0.08400 0.00000 0.07190 -0.46300
C 	C 	0.15205 0.00000 0.46133 0.42600
C 	C 	0.15137 0.00000 0.54919 -0.28900
C 	C 	0.14806 0.00000 0.71084 0.17400
Zn	Zn	0.58059 0.50000 0.18451 1.21000
Zn	Zn	0.70782 0.50000 0.18385 1.22100
O 	O 	0.64548 0.50000 0.25090 -0.95800
O 	O 	0.67440 0.50000 0.08470 -0.51000
O 	O 	0.58400 0.50000 0.07190 -0.45000
C 	C 	0.65205 0.50000 0.46133 0.44700
C 	C 	0.65137 0.50000 0.54919 -0.28700
C 	C 	0.64806 0.50000 0.71084 0.21900
Zn	Zn	0.85255 0.06699 0.68355 1.21300
S 	S 	0.73770 0.90100 0.17210 0.37000
O 	O 	0.96375 0.06726 0.79520 -0.49600
O 	O 	0.91573 0.11516 0.70100 -0.50300
O 	O 	0.25410 0.43280 0.77930 -0.53400
O 	O 	0.29308 0.38118 0.68950 -0.49300
O 	O 	0.84832 0.04850 0.57200 -0.50900
O 	O 	0.73050 0.88410 0.08210 -0.21000
O 	O 	0.76870 0.85240 0.21880 -0.22000
C 	C 	0.95670 0.10670 0.74440 0.38800
C 	C 	0.00047 0.14970 0.74040 -0.09800
C 	C 	0.04699 0.14410 0.78800 0.02200
H 	H 	0.05070 0.11320 0.82450 0.05100
C 	C 	0.08806 0.18360 0.78230 -0.08700
H 	H 	0.11990 0.17980 0.81490 0.07600
C 	C 	0.08260 0.22880 0.72900 0.02100
C 	C 	0.03610 0.23440 0.68140 -0.01600
C 	C 	0.99500 0.19490 0.68710 -0.01000
H 	H 	0.96320 0.19870 0.65460 0.05100
C 	C 	0.12906 0.26900 0.72519 0.02200
C 	C 	0.13176 0.31160 0.78250 -0.08700
H 	H 	0.10490 0.31400 0.81900 0.06400
C 	C 	0.17376 0.35058 0.78640 0.03300
H 	H 	0.17560 0.37970 0.82550 0.03200
C 	C 	0.21305 0.34703 0.73290 -0.11300
C 	C 	0.21035 0.30447 0.67560 0.00000
H 	H 	0.23720 0.30200 0.63910 0.05200
C 	C 	0.16835 0.26545 0.67170 -0.00600
C 	C 	0.25483 0.39171 0.73150 0.40500
C 	C 	0.84785 0.04720 0.40930 0.21100
H 	H 	0.84470 0.08290 0.43580 -0.02000
C 	C 	0.85133 0.04820 0.33077 -0.26300
H 	H 	0.85340 0.08420 0.30480 0.13500
C 	C 	0.85748 0.99720 0.20270 -0.06900
C 	C 	0.90728 0.00610 0.17400 -0.08600
H 	H 	0.93780 0.00930 0.20920 -0.44400
C 	C 	0.91238 0.01020 0.09370 0.01200
H 	H 	0.94640 0.01620 0.07400 0.01500
C 	C 	0.86766 0.00530 0.04220 0.04600
C 	C 	0.81786 0.99640 0.07090 -0.08300
H 	H 	0.78730 0.99320 0.03570 -0.05300
C 	C 	0.81277 0.99230 0.15120 -0.02700
C 	C 	0.87060 0.00760 0.95570 0.22100
C 	C 	0.76660 0.97490 0.18580 -0.01500
C 	C 	0.67510 0.89870 0.19770 -0.63000
H 	H 	0.65530 0.86960 0.16600 0.22500
H 	H 	0.65840 0.93650 0.18880 0.20700
H 	H 	0.67450 0.88850 0.25330 0.21700
Zn	Zn	0.35255 0.56699 0.68355 1.21400
S 	S 	0.23770 0.40100 0.17210 0.37800
O 	O 	0.46375 0.56726 0.79520 -0.50000
O 	O 	0.41573 0.61516 0.70100 -0.50200
O 	O 	0.75410 0.93280 0.77930 -0.52400
O 	O 	0.79308 0.88118 0.68950 -0.49000
O 	O 	0.34832 0.54850 0.57200 -0.51200
O 	O 	0.23050 0.38410 0.08210 -0.21700
O 	O 	0.26870 0.35240 0.21880 -0.22200
C 	C 	0.45670 0.60670 0.74440 0.38800
C 	C 	0.50047 0.64970 0.74040 -0.10400
C 	C 	0.54699 0.64410 0.78800 0.02600
H 	H 	0.55070 0.61320 0.82450 0.03700
C 	C 	0.58806 0.68360 0.78230 -0.09200
H 	H 	0.61990 0.67980 0.81490 0.07700
C 	C 	0.58260 0.72880 0.72900 0.02300
C 	C 	0.53610 0.73440 0.68140 -0.01600
C 	C 	0.49500 0.69490 0.68710 -0.00700
H 	H 	0.46320 0.69870 0.65460 0.05100
C 	C 	0.62906 0.76900 0.72519 0.02100
C 	C 	0.63176 0.81160 0.78250 -0.08500
H 	H 	0.60490 0.81400 0.81900 0.06500
C 	C 	0.67376 0.85058 0.78640 0.03200
H 	H 	0.67560 0.87970 0.82550 0.03500
C 	C 	0.71305 0.84703 0.73290 -0.11000
C 	C 	0.71035 0.80447 0.67560 -0.00100
H 	H 	0.73720 0.80200 0.63910 0.05300
C 	C 	0.66835 0.76545 0.67170 -0.00500
C 	C 	0.75483 0.89171 0.73150 0.40500
C 	C 	0.34785 0.54720 0.40930 0.22900
H 	H 	0.34470 0.58290 0.43580 -0.02600
C 	C 	0.35133 0.54820 0.33077 -0.29100
H 	H 	0.35340 0.58420 0.30480 0.14100
C 	C 	0.35748 0.49720 0.20270 -0.03500
C 	C 	0.40728 0.50610 0.17400 -0.00900
H 	H 	0.43780 0.50930 0.20920 0.02000
C 	C 	0.41238 0.51020 0.09370 -0.02000
H 	H 	0.44640 0.51620 0.07400 0.03600
C 	C 	0.36766 0.50530 0.04220 -0.01500
C 	C 	0.31786 0.49640 0.07090 -0.02200
H 	H 	0.28730 0.49320 0.03570 0.03200
C 	C 	0.31277 0.49230 0.15120 0.02900
C 	C 	0.37060 0.50760 0.95570 0.14200
C 	C 	0.26660 0.47490 0.18580 -0.06100
C 	C 	0.17510 0.39870 0.19770 -0.63100
H 	H 	0.15530 0.36960 0.16600 0.22300
H 	H 	0.15840 0.43650 0.18880 0.20400
H 	H 	0.17450 0.38850 0.25330 0.21600
Zn	Zn	0.85255 0.93301 0.68355 1.21700
S 	S 	0.73770 0.09900 0.17210 0.38500
O 	O 	0.96375 0.93274 0.79520 -0.50000
O 	O 	0.91573 0.88484 0.70100 -0.50000
O 	O 	0.25410 0.56720 0.77930 -0.53300
O 	O 	0.29308 0.61882 0.68950 -0.49200
O 	O 	0.84832 0.95150 0.57200 -0.49500
O 	O 	0.73050 0.11590 0.08210 -0.22300
O 	O 	0.76870 0.14760 0.21880 -0.22400
C 	C 	0.95670 0.89330 0.74440 0.38900
C 	C 	0.00047 0.85030 0.74040 -0.11100
C 	C 	0.04699 0.85590 0.78800 0.03100
H 	H 	0.05070 0.88680 0.82450 0.02400
C 	C 	0.08806 0.81640 0.78230 -0.09700
H 	H 	0.11990 0.82020 0.81490 0.07900
C 	C 	0.08260 0.77120 0.72900 0.02500
C 	C 	0.03610 0.76560 0.68140 -0.02000
C 	C 	0.99500 0.80510 0.68710 -0.00300
H 	H 	0.96320 0.80130 0.65460 0.05000
C 	C 	0.12906 0.73100 0.72519 0.02000
C 	C 	0.13176 0.68840 0.78250 -0.08600
H 	H 	0.10490 0.68600 0.81900 0.06400
C 	C 	0.17376 0.64942 0.78640 0.03200
H 	H 	0.17560 0.62030 0.82550 0.03200
C 	C 	0.21305 0.65297 0.73290 -0.11200
C 	C 	0.21035 0.69553 0.67560 -0.00000
H 	H 	0.23720 0.69800 0.63910 0.05300
C 	C 	0.16835 0.73455 0.67170 -0.00500
C 	C 	0.25483 0.60829 0.73150 0.40500
C 	C 	0.84785 0.95280 0.40930 0.23000
H 	H 	0.84470 0.91710 0.43580 -0.02400
C 	C 	0.85133 0.95180 0.33077 -0.25500
H 	H 	0.85340 0.91580 0.30480 0.12700
C 	C 	0.85748 0.00280 0.20270 0.01500
C 	C 	0.90728 0.99390 0.17400 0.06300
H 	H 	0.93780 0.99070 0.20920 0.48600
C 	C 	0.91238 0.98980 0.09370 -0.05000
H 	H 	0.94640 0.98380 0.07400 0.05700
C 	C 	0.86766 0.99470 0.04220 -0.07900
C 	C 	0.81786 0.00360 0.07090 0.04100
H 	H 	0.78730 0.00680 0.03570 0.11600
C 	C 	0.81277 0.00770 0.15120 0.08000
C 	C 	0.87060 0.99240 0.95570 0.07800
C 	C 	0.76660 0.02510 0.18580 -0.10500
C 	C 	0.67510 0.10130 0.19770 -0.63400
H 	H 	0.65530 0.13040 0.16600 0.22300
H 	H 	0.65840 0.06350 0.18880 0.20100
H 	H 	0.67450 0.11150 0.25330 0.21500
Zn	Zn	0.35255 0.43301 0.68355 1.21400
S 	S 	0.23770 0.59900 0.17210 0.37800
O 	O 	0.46375 0.43274 0.79520 -0.50100
O 	O 	0.41573 0.38484 0.70100 -0.50200
O 	O 	0.75410 0.06720 0.77930 -0.53700
O 	O 	0.79308 0.11882 0.68950 -0.49400
O 	O 	0.34832 0.45150 0.57200 -0.51200
O 	O 	0.23050 0.61590 0.08210 -0.21700
O 	O 	0.26870 0.64760 0.21880 -0.22200
C 	C 	0.45670 0.39330 0.74440 0.38900
C 	C 	0.50047 0.35030 0.74040 -0.10500
C 	C 	0.54699 0.35590 0.78800 0.02600
H 	H 	0.55070 0.38680 0.82450 0.03700
C 	C 	0.58806 0.31640 0.78230 -0.09300
H 	H 	0.61990 0.32020 0.81490 0.07700
C 	C 	0.58260 0.27120 0.72900 0.02300
C 	C 	0.53610 0.26560 0.68140 -0.01900
C 	C 	0.49500 0.30510 0.68710 -0.00600
H 	H 	0.46320 0.30130 0.65460 0.05000
C 	C 	0.62906 0.23100 0.72519 0.02100
C 	C 	0.63176 0.18840 0.78250 -0.08800
H 	H 	0.60490 0.18600 0.81900 0.06300
C 	C 	0.67376 0.14942 0.78640 0.03200
H 	H 	0.67560 0.12030 0.82550 0.03000
C 	C 	0.71305 0.15297 0.73290 -0.11400
C 	C 	0.71035 0.19553 0.67560 0.00000
H 	H 	0.73720 0.19800 0.63910 0.05200
C 	C 	0.66835 0.23455 0.67170 -0.00700
C 	C 	0.75483 0.10829 0.73150 0.40500
C 	C 	0.34785 0.45280 0.40930 0.22900
H 	H 	0.34470 0.41710 0.43580 -0.02600
C 	C 	0.35133 0.45180 0.33077 -0.29100
H 	H 	0.35340 0.41580 0.30480 0.14100
C 	C 	0.35748 0.50280 0.20270 -0.03500
C 	C 	0.40728 0.49390 0.17400 -0.00900
H 	H 	0.43780 0.49070 0.20920 0.02000
C 	C 	0.41238 0.48980 0.09370 -0.02000
H 	H 	0.44640 0.48380 0.07400 0.03600
C 	C 	0.36766 0.49470 0.04220 -0.01500
C 	C 	0.31786 0.50360 0.07090 -0.02300
H 	H 	0.28730 0.50680 0.03570 0.03200
C 	C 	0.31277 0.50770 0.15120 0.02900
C 	C 	0.37060 0.49240 0.95570 0.14200
C 	C 	0.26660 0.52510 0.18580 -0.06200
C 	C 	0.17510 0.60130 0.19770 -0.63200
H 	H 	0.15530 0.63040 0.16600 0.22400
H 	H 	0.15840 0.56350 0.18880 0.20400
H 	H 	0.17450 0.61150 0.25330 0.21600
Zn	Zn	0.91941 -0.00000 0.81549 1.20700
Zn	Zn	0.79218 0.00000 0.81615 1.21800
O 	O 	0.85452 0.00000 0.74910 -0.96500
O 	O 	0.82560 0.00000 0.91530 -0.52200
O 	O 	0.91600 0.00000 0.92810 -0.46300
C 	C 	0.84795 0.00000 0.53867 0.42600
C 	C 	0.84863 0.00000 0.45081 -0.28900
C 	C 	0.85194 0.00000 0.28916 0.17400
Zn	Zn	0.41941 0.50000 0.81549 1.21000
Zn	Zn	0.29218 0.50000 0.81615 1.22100
O 	O 	0.35452 0.50000 0.74910 -0.95800
O 	O 	0.32560 0.50000 0.91530 -0.51000
O 	O 	0.41600 0.50000 0.92810 -0.45000
C 	C 	0.34795 0.50000 0.53867 0.44700
C 	C 	0.34863 0.50000 0.45081 -0.28700
C 	C 	0.35194 0.50000 0.28916 0.21900
