data_crystal

_cell_length_a 8.57730
_cell_length_b 12.13970
_cell_length_c 16.72810
_cell_angle_alpha 90.00000
_cell_angle_beta  90.00000
_cell_angle_gamma 93.03600

_symmetry_space_group_name_	'P 1'
_symmetry_space_group_name_H-M	'P 1'

loop_
_symmetry_equiv_pos_as_xyz
  x,y,z

loop_
_atom_site_label
_atom_site_type_symbol
_atom_site_fract_x
_atom_site_fract_y
_atom_site_fract_z
_atom_site_charge
Yb	Yb	0.48160 0.06883 0.90197 1.52600
Yb	Yb	0.01840 0.43117 0.40197 1.52900
Yb	Yb	0.51840 0.93117 0.09803 1.52700
Yb	Yb	0.98160 0.56883 0.59803 1.53000
H 	H 	0.84930 0.81110 0.79320 0.04500
H 	H 	0.73580 0.71190 0.81870 0.03200
H 	H 	0.77100 0.75500 0.95300 0.08200
H 	H 	0.93810 0.90480 0.99430 0.01900
H 	H 	0.97970 0.93460 0.90530 0.04100
H 	H 	0.07600 0.74000 0.98600 0.09700
H 	H 	0.19910 0.69300 0.86690 0.03600
H 	H 	0.14400 0.79970 0.82480 0.06000
H 	H 	0.94200 0.61900 0.87300 0.09000
H 	H 	0.65070 0.68890 0.29320 0.04500
H 	H 	0.76420 0.78810 0.31870 0.03200
H 	H 	0.72900 0.74500 0.45300 0.08200
H 	H 	0.56190 0.59520 0.49430 0.01800
H 	H 	0.52030 0.56540 0.40530 0.04100
H 	H 	0.42400 0.76000 0.48600 0.09600
H 	H 	0.30090 0.80700 0.36690 0.03600
H 	H 	0.35600 0.70030 0.32480 0.06000
H 	H 	0.55800 0.88100 0.37300 0.09000
H 	H 	0.15070 0.18890 0.20680 0.04500
H 	H 	0.26420 0.28810 0.18130 0.03200
H 	H 	0.22900 0.24500 0.04700 0.08200
H 	H 	0.06190 0.09520 0.00570 0.01900
H 	H 	0.02030 0.06540 0.09470 0.04100
H 	H 	0.92400 0.26000 0.01400 0.09700
H 	H 	0.80090 0.30700 0.13310 0.03600
H 	H 	0.85600 0.20030 0.17520 0.06000
H 	H 	0.05800 0.38100 0.12700 0.09000
H 	H 	0.34930 0.31110 0.70680 0.04500
H 	H 	0.23580 0.21190 0.68130 0.03200
H 	H 	0.27100 0.25500 0.54700 0.08200
H 	H 	0.43810 0.40480 0.50570 0.01800
H 	H 	0.47970 0.43460 0.59470 0.04100
H 	H 	0.57600 0.24000 0.51400 0.09600
H 	H 	0.69910 0.19300 0.63310 0.03600
H 	H 	0.64400 0.29970 0.67520 0.06000
H 	H 	0.44200 0.11900 0.62700 0.09000
C 	C 	0.82980 0.75500 0.83370 0.00500
C 	C 	0.80320 0.81060 0.91340 -0.19500
C 	C 	0.95490 0.87400 0.94170 0.00500
C 	C 	0.09500 0.79720 0.94510 -0.18900
C 	C 	0.11490 0.74320 0.86380 0.00200
C 	C 	0.96680 0.67960 0.83580 -0.16600
C 	C 	0.67950 0.89490 0.90770 0.37700
C 	C 	0.24030 0.86860 0.96670 0.40100
C 	C 	0.98240 0.63230 0.75210 0.31400
C 	C 	0.67020 0.74500 0.33370 0.00600
C 	C 	0.69680 0.68940 0.41340 -0.19600
C 	C 	0.54510 0.62600 0.44170 0.00700
C 	C 	0.40500 0.70280 0.44510 -0.19000
C 	C 	0.38510 0.75680 0.36380 0.00100
C 	C 	0.53320 0.82040 0.33580 -0.16600
C 	C 	0.82050 0.60510 0.40770 0.37700
C 	C 	0.25970 0.63140 0.46670 0.39600
C 	C 	0.51760 0.86770 0.25210 0.31600
C 	C 	0.17020 0.24500 0.16630 0.00500
C 	C 	0.19680 0.18940 0.08660 -0.19500
C 	C 	0.04510 0.12600 0.05830 0.00500
C 	C 	0.90500 0.20280 0.05490 -0.18900
C 	C 	0.88510 0.25680 0.13620 0.00200
C 	C 	0.03320 0.32040 0.16420 -0.16600
C 	C 	0.32050 0.10510 0.09230 0.37700
C 	C 	0.75970 0.13140 0.03330 0.40100
C 	C 	0.01760 0.36770 0.24790 0.31400
C 	C 	0.32980 0.25500 0.66630 0.00600
C 	C 	0.30320 0.31060 0.58660 -0.19600
C 	C 	0.45490 0.37400 0.55830 0.00700
C 	C 	0.59500 0.29720 0.55490 -0.19000
C 	C 	0.61490 0.24320 0.63620 0.00100
C 	C 	0.46680 0.17960 0.66420 -0.16600
C 	C 	0.17950 0.39490 0.59230 0.37700
C 	C 	0.74030 0.36860 0.53330 0.39600
C 	C 	0.48240 0.13230 0.74790 0.31600
O 	O 	0.66180 0.94900 0.84630 -0.39100
O 	O 	0.59460 0.91300 0.96900 -0.53200
O 	O 	0.28630 0.93970 0.91600 -0.44500
O 	O 	0.30300 0.85390 0.03430 -0.43900
O 	O 	0.89680 0.55020 0.73210 -0.38100
O 	O 	0.07320 0.68050 0.70210 -0.39100
O 	O 	0.83820 0.55100 0.34630 -0.39200
O 	O 	0.90540 0.58700 0.46900 -0.53400
O 	O 	0.21370 0.56030 0.41600 -0.44600
O 	O 	0.19700 0.64610 0.53430 -0.43400
O 	O 	0.60320 0.94980 0.23210 -0.38400
O 	O 	0.42680 0.81950 0.20210 -0.39400
O 	O 	0.33820 0.05100 0.15370 -0.39100
O 	O 	0.40540 0.08700 0.03100 -0.53200
O 	O 	0.71370 0.06030 0.08400 -0.44500
O 	O 	0.69700 0.14610 0.96570 -0.43900
O 	O 	0.10320 0.44980 0.26790 -0.38100
O 	O 	0.92680 0.31950 0.29790 -0.39100
O 	O 	0.16180 0.44900 0.65370 -0.39200
O 	O 	0.09460 0.41300 0.53100 -0.53400
O 	O 	0.78630 0.43970 0.58400 -0.44600
O 	O 	0.80300 0.35390 0.46570 -0.43400
O 	O 	0.39680 0.05020 0.76790 -0.38400
O 	O 	0.57320 0.18050 0.79790 -0.39400
