data_crystal

_cell_length_a 13.65700
_cell_length_b 13.65700
_cell_length_c 53.30500
_cell_angle_alpha 90.00000
_cell_angle_beta  90.00000
_cell_angle_gamma 90.00000

_symmetry_space_group_name_	'P 1'
_symmetry_space_group_name_H-M	'P 1'

loop_
_symmetry_equiv_pos_as_xyz
  x,y,z

loop_
_atom_site_label
_atom_site_type_symbol
_atom_site_fract_x
_atom_site_fract_y
_atom_site_fract_z
_atom_site_charge
Cu	Cu	0.94031 0.93609 0.11800 0.82700
S 	S 	0.87155 0.79422 0.10164 -0.59200
N 	N 	0.02820 0.97950 0.08593 -0.28900
N 	N 	0.85030 0.04120 0.12349 -0.19900
N 	N 	0.15150 0.02850 0.99827 -0.08800
N 	N 	0.29530 0.02840 0.02250 -0.08400
C 	C 	0.12170 0.00310 0.08729 0.09700
H 	H 	0.14980 0.00940 0.10310 -0.04900
C 	C 	0.18030 0.01880 0.06663 -0.19300
H 	H 	0.24650 0.03290 0.06850 0.09900
C 	C 	0.13960 0.01140 0.04310 0.13000
C 	C 	0.04340 0.98900 0.04160 -0.26000
H 	H 	0.01240 0.98750 0.02610 0.13000
C 	C 	0.99010 0.97340 0.06343 0.21400
H 	H 	0.92520 0.95340 0.06200 -0.04200
C 	C 	0.19900 0.02360 0.02011 0.06700
C 	C 	0.79120 0.10030 0.12651 -0.17400
Cu	Cu	0.44031 0.43609 0.61800 0.81100
S 	S 	0.37155 0.29422 0.60164 -0.61700
N 	N 	0.52820 0.47950 0.58593 -0.24300
N 	N 	0.35030 0.54120 0.62349 -0.20400
N 	N 	0.65150 0.52850 0.49827 -0.08600
N 	N 	0.79530 0.52840 0.52250 -0.08300
C 	C 	0.62170 0.50310 0.58729 0.07600
H 	H 	0.64980 0.50940 0.60310 -0.03800
C 	C 	0.68030 0.51880 0.56663 -0.15200
H 	H 	0.74650 0.53290 0.56850 0.08800
C 	C 	0.63960 0.51140 0.54310 0.08500
C 	C 	0.54340 0.48900 0.54160 -0.15300
H 	H 	0.51240 0.48750 0.52610 0.10500
C 	C 	0.49010 0.47340 0.56343 0.09100
H 	H 	0.42520 0.45340 0.56200 -0.00800
C 	C 	0.69900 0.52360 0.52011 0.08600
C 	C 	0.29120 0.60030 0.62651 -0.17900
Cu	Cu	0.55969 0.06391 0.61800 0.81100
S 	S 	0.62845 0.20578 0.60164 -0.61200
N 	N 	0.47180 0.02050 0.58593 -0.24100
N 	N 	0.64970 0.95880 0.62349 -0.20400
N 	N 	0.34850 0.97150 0.49827 -0.08700
N 	N 	0.20470 0.97160 0.52250 -0.09000
C 	C 	0.37830 0.99690 0.58729 0.07200
H 	H 	0.35020 0.99060 0.60310 -0.03700
C 	C 	0.31970 0.98120 0.56663 -0.14800
H 	H 	0.25350 0.96710 0.56850 0.08200
C 	C 	0.36040 0.98860 0.54310 0.07900
C 	C 	0.45660 0.01100 0.54160 -0.14800
H 	H 	0.48760 0.01250 0.52610 0.10400
C 	C 	0.50990 0.02660 0.56343 0.08700
H 	H 	0.57480 0.04660 0.56200 -0.00500
C 	C 	0.30100 0.97640 0.52011 0.08600
C 	C 	0.70880 0.89970 0.62651 -0.17900
Cu	Cu	0.05969 0.56391 0.11800 0.79800
S 	S 	0.12845 0.70578 0.10164 -0.62700
N 	N 	0.97180 0.52050 0.08593 -0.19400
N 	N 	0.14970 0.45880 0.12349 -0.20800
N 	N 	0.84850 0.47150 0.99827 -0.08500
N 	N 	0.70470 0.47160 0.02250 -0.08900
C 	C 	0.87830 0.49690 0.08729 0.05100
H 	H 	0.85020 0.49060 0.10310 -0.02700
C 	C 	0.81970 0.48120 0.06663 -0.10600
H 	H 	0.75350 0.46710 0.06850 0.07100
C 	C 	0.86040 0.48860 0.04310 0.03200
C 	C 	0.95660 0.51100 0.04160 -0.03800
H 	H 	0.98760 0.51250 0.02610 0.07900
C 	C 	0.00990 0.52660 0.06343 -0.03800
H 	H 	0.07480 0.54660 0.06200 0.03000
C 	C 	0.80100 0.47640 0.02011 0.10500
C 	C 	0.20880 0.39970 0.12651 -0.18400
Cu	Cu	0.31391 0.69031 0.36800 0.81000
S 	S 	0.45578 0.62155 0.35164 -0.61500
N 	N 	0.27050 0.77820 0.33593 -0.24300
N 	N 	0.20880 0.60030 0.37349 -0.20400
N 	N 	0.22150 0.90150 0.24827 -0.08800
N 	N 	0.22160 0.04530 0.27250 -0.08800
C 	C 	0.24690 0.87170 0.33729 0.07200
H 	H 	0.24060 0.89980 0.35310 -0.03900
C 	C 	0.23120 0.93030 0.31663 -0.15200
H 	H 	0.21710 0.99650 0.31850 0.08400
C 	C 	0.23860 0.88960 0.29310 0.08000
C 	C 	0.26100 0.79340 0.29160 -0.15200
H 	H 	0.26250 0.76240 0.27610 0.10300
C 	C 	0.27660 0.74010 0.31343 0.08700
H 	H 	0.29660 0.67520 0.31200 -0.00700
C 	C 	0.22640 0.94900 0.27011 0.08300
C 	C 	0.14970 0.54120 0.37651 -0.19100
Cu	Cu	0.81391 0.19031 0.86800 0.81200
S 	S 	0.95578 0.12155 0.85164 -0.57900
N 	N 	0.77050 0.27820 0.83593 -0.24200
N 	N 	0.70880 0.10030 0.87349 -0.20400
N 	N 	0.72150 0.40150 0.74827 -0.08500
N 	N 	0.72160 0.54530 0.77250 -0.08500
C 	C 	0.74690 0.37170 0.83729 0.07800
H 	H 	0.74060 0.39980 0.85310 -0.03800
C 	C 	0.73120 0.43030 0.81663 -0.15000
H 	H 	0.71710 0.49650 0.81850 0.08700
C 	C 	0.73860 0.38960 0.79310 0.08500
C 	C 	0.76100 0.29340 0.79160 -0.15000
H 	H 	0.76250 0.26240 0.77610 0.10700
C 	C 	0.77660 0.24010 0.81343 0.09200
H 	H 	0.79660 0.17520 0.81200 -0.00600
C 	C 	0.72640 0.44900 0.77011 0.08800
C 	C 	0.64970 0.04120 0.87651 -0.17900
Cu	Cu	0.18609 0.30969 0.86800 0.81100
S 	S 	0.04422 0.37845 0.85164 -0.64100
N 	N 	0.22950 0.22180 0.83593 -0.24300
N 	N 	0.29120 0.39970 0.87349 -0.20300
N 	N 	0.27850 0.09850 0.74827 -0.08800
N 	N 	0.27840 0.95470 0.77250 -0.08800
C 	C 	0.25310 0.12830 0.83729 0.07200
H 	H 	0.25940 0.10020 0.85310 -0.03800
C 	C 	0.26880 0.06970 0.81663 -0.15100
H 	H 	0.28290 0.00350 0.81850 0.08400
C 	C 	0.26140 0.11040 0.79310 0.08100
C 	C 	0.23900 0.20660 0.79160 -0.15300
H 	H 	0.23750 0.23760 0.77610 0.10300
C 	C 	0.22340 0.25990 0.81343 0.08700
H 	H 	0.20340 0.32480 0.81200 -0.00800
C 	C 	0.27360 0.05100 0.77011 0.08400
C 	C 	0.35030 0.45880 0.87651 -0.18000
Cu	Cu	0.68609 0.80969 0.36800 0.81200
S 	S 	0.54422 0.87845 0.35164 -0.61400
N 	N 	0.72950 0.72180 0.33593 -0.24200
N 	N 	0.79120 0.89970 0.37349 -0.20300
N 	N 	0.77850 0.59850 0.24827 -0.08400
N 	N 	0.77840 0.45470 0.27250 -0.08500
C 	C 	0.75310 0.62830 0.33729 0.07700
H 	H 	0.75940 0.60020 0.35310 -0.03700
C 	C 	0.76880 0.56970 0.31663 -0.14900
H 	H 	0.78290 0.50350 0.31850 0.08600
C 	C 	0.76140 0.61040 0.29310 0.08500
C 	C 	0.73900 0.70660 0.29160 -0.15100
H 	H 	0.73750 0.73760 0.27610 0.10700
C 	C 	0.72340 0.75990 0.31343 0.09200
H 	H 	0.70340 0.82480 0.31200 -0.00600
C 	C 	0.77360 0.55100 0.27011 0.08800
C 	C 	0.85030 0.95880 0.37651 -0.16900
Cu	Cu	0.55969 0.93609 0.88200 0.80900
S 	S 	0.62845 0.79422 0.89836 -0.61400
N 	N 	0.47180 0.97950 0.91407 -0.24200
N 	N 	0.34850 0.02850 0.00173 -0.08700
N 	N 	0.20470 0.02840 0.97750 -0.09100
C 	C 	0.37830 0.00310 0.91271 0.07200
H 	H 	0.35020 0.00940 0.89690 -0.03800
C 	C 	0.31970 0.01880 0.93337 -0.14800
H 	H 	0.25350 0.03290 0.93150 0.08200
C 	C 	0.36040 0.01140 0.95690 0.07900
C 	C 	0.45660 0.98900 0.95840 -0.14800
H 	H 	0.48760 0.98750 0.97390 0.10400
C 	C 	0.50990 0.97340 0.93657 0.08700
H 	H 	0.57480 0.95340 0.93800 -0.00500
C 	C 	0.30100 0.02360 0.97989 0.08600
Cu	Cu	0.05969 0.43609 0.38200 0.79600
S 	S 	0.12845 0.29422 0.39836 -0.62900
N 	N 	0.97180 0.47950 0.41407 -0.19400
N 	N 	0.84850 0.52850 0.50173 -0.08500
N 	N 	0.70470 0.52840 0.47750 -0.08900
C 	C 	0.87830 0.50310 0.41271 0.05100
H 	H 	0.85020 0.50940 0.39690 -0.02700
C 	C 	0.81970 0.51880 0.43337 -0.10600
H 	H 	0.75350 0.53290 0.43150 0.07100
C 	C 	0.86040 0.51140 0.45690 0.03200
C 	C 	0.95660 0.48900 0.45840 -0.03800
H 	H 	0.98760 0.48750 0.47390 0.07900
C 	C 	0.00990 0.47340 0.43657 -0.03800
H 	H 	0.07480 0.45340 0.43800 0.03000
C 	C 	0.80100 0.52360 0.47989 0.10500
Cu	Cu	0.94031 0.06391 0.38200 0.82200
S 	S 	0.87155 0.20578 0.39836 -0.59500
N 	N 	0.02820 0.02050 0.41407 -0.29000
N 	N 	0.15150 0.97150 0.50173 -0.08800
N 	N 	0.29530 0.97160 0.47750 -0.08400
C 	C 	0.12170 0.99690 0.41271 0.09700
H 	H 	0.14980 0.99060 0.39690 -0.04900
C 	C 	0.18030 0.98120 0.43337 -0.19200
H 	H 	0.24650 0.96710 0.43150 0.09900
C 	C 	0.13960 0.98860 0.45690 0.13000
C 	C 	0.04340 0.01100 0.45840 -0.25900
H 	H 	0.01240 0.01250 0.47390 0.13000
C 	C 	0.99010 0.02660 0.43657 0.21300
H 	H 	0.92520 0.04660 0.43800 -0.04200
C 	C 	0.19900 0.97640 0.47989 0.06700
Cu	Cu	0.44031 0.56391 0.88200 0.80900
S 	S 	0.37155 0.70578 0.89836 -0.61900
N 	N 	0.52820 0.52050 0.91407 -0.24300
N 	N 	0.65150 0.47150 0.00173 -0.08600
N 	N 	0.79530 0.47160 0.97750 -0.08300
C 	C 	0.62170 0.49690 0.91271 0.07600
H 	H 	0.64980 0.49060 0.89690 -0.03900
C 	C 	0.68030 0.48120 0.93337 -0.15200
H 	H 	0.74650 0.46710 0.93150 0.08900
C 	C 	0.63960 0.48860 0.95690 0.08500
C 	C 	0.54340 0.51100 0.95840 -0.15200
H 	H 	0.51240 0.51250 0.97390 0.10500
C 	C 	0.49010 0.52660 0.93657 0.09000
H 	H 	0.42520 0.54660 0.93800 -0.00800
C 	C 	0.69900 0.47640 0.97989 0.08600
Cu	Cu	0.18609 0.69031 0.63200 0.80900
S 	S 	0.04422 0.62155 0.64836 -0.64300
N 	N 	0.22950 0.77820 0.66407 -0.24300
N 	N 	0.27850 0.90150 0.75173 -0.08800
N 	N 	0.27840 0.04530 0.72750 -0.08800
C 	C 	0.25310 0.87170 0.66271 0.07200
H 	H 	0.25940 0.89980 0.64690 -0.03800
C 	C 	0.26880 0.93030 0.68337 -0.15100
H 	H 	0.28290 0.99650 0.68150 0.08400
C 	C 	0.26140 0.88960 0.70690 0.08000
C 	C 	0.23900 0.79340 0.70840 -0.15200
H 	H 	0.23750 0.76240 0.72390 0.10300
C 	C 	0.22340 0.74010 0.68657 0.08600
H 	H 	0.20340 0.67520 0.68800 -0.00800
C 	C 	0.27360 0.94900 0.72989 0.08400
Cu	Cu	0.68609 0.19031 0.13200 0.80900
S 	S 	0.54422 0.12155 0.14836 -0.61600
N 	N 	0.72950 0.27820 0.16407 -0.24200
N 	N 	0.77850 0.40150 0.25173 -0.08400
N 	N 	0.77840 0.54530 0.22750 -0.08500
C 	C 	0.75310 0.37170 0.16271 0.07700
H 	H 	0.75940 0.39980 0.14690 -0.03800
C 	C 	0.76880 0.43030 0.18337 -0.14900
H 	H 	0.78290 0.49650 0.18150 0.08700
C 	C 	0.76140 0.38960 0.20690 0.08500
C 	C 	0.73900 0.29340 0.20840 -0.15000
H 	H 	0.73750 0.26240 0.22390 0.10600
C 	C 	0.72340 0.24010 0.18657 0.09200
H 	H 	0.70340 0.17520 0.18800 -0.00600
C 	C 	0.77360 0.44900 0.22989 0.08800
Cu	Cu	0.31391 0.30969 0.13200 0.80800
S 	S 	0.45578 0.37845 0.14836 -0.61700
N 	N 	0.27050 0.22180 0.16407 -0.24300
N 	N 	0.22150 0.09850 0.25173 -0.08800
N 	N 	0.22160 0.95470 0.22750 -0.08800
C 	C 	0.24690 0.12830 0.16271 0.07200
H 	H 	0.24060 0.10020 0.14690 -0.03900
C 	C 	0.23120 0.06970 0.18337 -0.15100
H 	H 	0.21710 0.00350 0.18150 0.08400
C 	C 	0.23860 0.11040 0.20690 0.08000
C 	C 	0.26100 0.20660 0.20840 -0.15100
H 	H 	0.26250 0.23760 0.22390 0.10300
C 	C 	0.27660 0.25990 0.18657 0.08600
H 	H 	0.29660 0.32480 0.18800 -0.00700
C 	C 	0.22640 0.05100 0.22989 0.08400
Cu	Cu	0.81391 0.80969 0.63200 0.80900
S 	S 	0.95578 0.87845 0.64836 -0.58100
N 	N 	0.77050 0.72180 0.66407 -0.24200
N 	N 	0.72150 0.59850 0.75173 -0.08500
N 	N 	0.72160 0.45470 0.72750 -0.08500
C 	C 	0.74690 0.62830 0.66271 0.07800
H 	H 	0.74060 0.60020 0.64690 -0.03900
C 	C 	0.73120 0.56970 0.68337 -0.15000
H 	H 	0.71710 0.50350 0.68150 0.08700
C 	C 	0.73860 0.61040 0.70690 0.08500
C 	C 	0.76100 0.70660 0.70840 -0.14900
H 	H 	0.76250 0.73760 0.72390 0.10700
C 	C 	0.77660 0.75990 0.68657 0.09200
H 	H 	0.79660 0.82480 0.68800 -0.00600
C 	C 	0.72640 0.55100 0.72989 0.08800
Cu	Cu	0.05969 0.06391 0.88200 0.79800
S 	S 	0.12845 0.20578 0.89836 -0.62800
N 	N 	0.97180 0.02050 0.91407 -0.19400
N 	N 	0.14970 0.95880 0.87651 -0.20800
N 	N 	0.84850 0.97150 0.00173 -0.08500
N 	N 	0.70470 0.97160 0.97750 -0.08900
C 	C 	0.87830 0.99690 0.91271 0.05100
H 	H 	0.85020 0.99060 0.89690 -0.02700
C 	C 	0.81970 0.98120 0.93337 -0.10700
H 	H 	0.75350 0.96710 0.93150 0.07100
C 	C 	0.86040 0.98860 0.95690 0.03300
C 	C 	0.95660 0.01100 0.95840 -0.04000
H 	H 	0.98760 0.01250 0.97390 0.07900
C 	C 	0.00990 0.02660 0.93657 -0.03700
H 	H 	0.07480 0.04660 0.93800 0.02900
C 	C 	0.80100 0.97640 0.97989 0.10500
C 	C 	0.20880 0.89970 0.87349 -0.18400
Cu	Cu	0.55969 0.56391 0.38200 0.81100
S 	S 	0.62845 0.70578 0.39836 -0.61200
N 	N 	0.47180 0.52050 0.41407 -0.24200
N 	N 	0.64970 0.45880 0.37651 -0.20300
N 	N 	0.34850 0.47150 0.50173 -0.08700
N 	N 	0.20470 0.47160 0.47750 -0.09000
C 	C 	0.37830 0.49690 0.41271 0.07300
H 	H 	0.35020 0.49060 0.39690 -0.03800
C 	C 	0.31970 0.48120 0.43337 -0.14900
H 	H 	0.25350 0.46710 0.43150 0.08200
C 	C 	0.36040 0.48860 0.45690 0.08000
C 	C 	0.45660 0.51100 0.45840 -0.15000
H 	H 	0.48760 0.51250 0.47390 0.10400
C 	C 	0.50990 0.52660 0.43657 0.08800
H 	H 	0.57480 0.54660 0.43800 -0.00500
C 	C 	0.30100 0.47640 0.47989 0.08600
C 	C 	0.70880 0.39970 0.37349 -0.17900
Cu	Cu	0.44031 0.93609 0.38200 0.81100
S 	S 	0.37155 0.79422 0.39836 -0.61700
N 	N 	0.52820 0.97950 0.41407 -0.24400
N 	N 	0.35030 0.04120 0.37651 -0.20300
N 	N 	0.65150 0.02850 0.50173 -0.08600
N 	N 	0.79530 0.02840 0.47750 -0.08300
C 	C 	0.62170 0.00310 0.41271 0.07800
H 	H 	0.64980 0.00940 0.39690 -0.03900
C 	C 	0.68030 0.01880 0.43337 -0.15300
H 	H 	0.74650 0.03290 0.43150 0.08900
C 	C 	0.63960 0.01140 0.45690 0.08600
C 	C 	0.54340 0.98900 0.45840 -0.15400
H 	H 	0.51240 0.98750 0.47390 0.10600
C 	C 	0.49010 0.97340 0.43657 0.09100
H 	H 	0.42520 0.95340 0.43800 -0.00800
C 	C 	0.69900 0.02360 0.47989 0.08500
C 	C 	0.29120 0.10030 0.37349 -0.17900
Cu	Cu	0.94031 0.43609 0.88200 0.82600
S 	S 	0.87155 0.29422 0.89836 -0.59300
N 	N 	0.02820 0.47950 0.91407 -0.29100
N 	N 	0.85030 0.54120 0.87651 -0.19900
N 	N 	0.15150 0.52850 0.00173 -0.08800
N 	N 	0.29530 0.52840 0.97750 -0.08400
C 	C 	0.12170 0.50310 0.91271 0.10000
H 	H 	0.14980 0.50940 0.89690 -0.04900
C 	C 	0.18030 0.51880 0.93337 -0.19500
H 	H 	0.24650 0.53290 0.93150 0.10000
C 	C 	0.13960 0.51140 0.95690 0.13300
C 	C 	0.04340 0.48900 0.95840 -0.26500
H 	H 	0.01240 0.48750 0.97390 0.13100
C 	C 	0.99010 0.47340 0.93657 0.21700
H 	H 	0.92520 0.45340 0.93800 -0.04300
C 	C 	0.19900 0.52360 0.97989 0.06600
C 	C 	0.79120 0.60030 0.87349 -0.17400
Cu	Cu	0.68609 0.30969 0.63200 0.81200
S 	S 	0.54422 0.37845 0.64836 -0.61400
N 	N 	0.72950 0.22180 0.66407 -0.24200
N 	N 	0.79120 0.39970 0.62651 -0.20300
N 	N 	0.77850 0.09850 0.75173 -0.08400
N 	N 	0.77840 0.95470 0.72750 -0.08500
C 	C 	0.75310 0.12830 0.66271 0.07700
H 	H 	0.75940 0.10020 0.64690 -0.03700
C 	C 	0.76880 0.06970 0.68337 -0.14900
H 	H 	0.78290 0.00350 0.68150 0.08600
C 	C 	0.76140 0.11040 0.70690 0.08500
C 	C 	0.73900 0.20660 0.70840 -0.15100
H 	H 	0.73750 0.23760 0.72390 0.10700
C 	C 	0.72340 0.25990 0.68657 0.09200
H 	H 	0.70340 0.32480 0.68800 -0.00600
C 	C 	0.77360 0.05100 0.72989 0.08800
C 	C 	0.85030 0.45880 0.62349 -0.16800
Cu	Cu	0.18609 0.80969 0.13200 0.81200
S 	S 	0.04422 0.87845 0.14836 -0.64100
N 	N 	0.22950 0.72180 0.16407 -0.24300
N 	N 	0.29120 0.89970 0.12651 -0.20300
N 	N 	0.27850 0.59850 0.25173 -0.08800
N 	N 	0.27840 0.45470 0.22750 -0.08800
C 	C 	0.25310 0.62830 0.16271 0.07200
H 	H 	0.25940 0.60020 0.14690 -0.03800
C 	C 	0.26880 0.56970 0.18337 -0.15100
H 	H 	0.28290 0.50350 0.18150 0.08400
C 	C 	0.26140 0.61040 0.20690 0.08100
C 	C 	0.23900 0.70660 0.20840 -0.15300
H 	H 	0.23750 0.73760 0.22390 0.10300
C 	C 	0.22340 0.75990 0.18657 0.08700
H 	H 	0.20340 0.82480 0.18800 -0.00800
C 	C 	0.27360 0.55100 0.22989 0.08400
C 	C 	0.35030 0.95880 0.12349 -0.17900
Cu	Cu	0.81391 0.69031 0.13200 0.81200
S 	S 	0.95578 0.62155 0.14836 -0.57900
N 	N 	0.77050 0.77820 0.16407 -0.24200
N 	N 	0.70880 0.60030 0.12651 -0.20400
N 	N 	0.72150 0.90150 0.25173 -0.08500
N 	N 	0.72160 0.04530 0.22750 -0.08500
C 	C 	0.74690 0.87170 0.16271 0.07800
H 	H 	0.74060 0.89980 0.14690 -0.03800
C 	C 	0.73120 0.93030 0.18337 -0.15000
H 	H 	0.71710 0.99650 0.18150 0.08700
C 	C 	0.73860 0.88960 0.20690 0.08500
C 	C 	0.76100 0.79340 0.20840 -0.15000
H 	H 	0.76250 0.76240 0.22390 0.10700
C 	C 	0.77660 0.74010 0.18657 0.09200
H 	H 	0.79660 0.67520 0.18800 -0.00500
C 	C 	0.72640 0.94900 0.22989 0.08800
C 	C 	0.64970 0.54120 0.12349 -0.17900
Cu	Cu	0.31391 0.19031 0.63200 0.81000
S 	S 	0.45578 0.12155 0.64836 -0.61500
N 	N 	0.27050 0.27820 0.66407 -0.24300
N 	N 	0.20880 0.10030 0.62651 -0.20400
N 	N 	0.22150 0.40150 0.75173 -0.08800
N 	N 	0.22160 0.54530 0.72750 -0.08800
C 	C 	0.24690 0.37170 0.66271 0.07300
H 	H 	0.24060 0.39980 0.64690 -0.03900
C 	C 	0.23120 0.43030 0.68337 -0.15100
H 	H 	0.21710 0.49650 0.68150 0.08400
C 	C 	0.23860 0.38960 0.70690 0.08000
C 	C 	0.26100 0.29340 0.70840 -0.15100
H 	H 	0.26250 0.26240 0.72390 0.10300
C 	C 	0.27660 0.24010 0.68657 0.08700
H 	H 	0.29660 0.17520 0.68800 -0.00700
C 	C 	0.22640 0.44900 0.72989 0.08400
C 	C 	0.14970 0.04120 0.62349 -0.19000
Cu	Cu	0.44031 0.06391 0.11800 0.80800
S 	S 	0.37155 0.20578 0.10164 -0.61900
N 	N 	0.52820 0.02050 0.08593 -0.24400
N 	N 	0.65150 0.97150 0.99827 -0.08600
N 	N 	0.79530 0.97160 0.02250 -0.08300
C 	C 	0.62170 0.99690 0.08729 0.07700
H 	H 	0.64980 0.99060 0.10310 -0.03900
C 	C 	0.68030 0.98120 0.06663 -0.15300
H 	H 	0.74650 0.96710 0.06850 0.08900
C 	C 	0.63960 0.98860 0.04310 0.08600
C 	C 	0.54340 0.01100 0.04160 -0.15300
H 	H 	0.51240 0.01250 0.02610 0.10500
C 	C 	0.49010 0.02660 0.06343 0.09000
H 	H 	0.42520 0.04660 0.06200 -0.00800
C 	C 	0.69900 0.97640 0.02011 0.08600
Cu	Cu	0.94031 0.56391 0.61800 0.82200
S 	S 	0.87155 0.70578 0.60164 -0.59500
N 	N 	0.02820 0.52050 0.58593 -0.29100
N 	N 	0.15150 0.47150 0.49827 -0.08800
N 	N 	0.29530 0.47160 0.52250 -0.08400
C 	C 	0.12170 0.49690 0.58729 0.09900
H 	H 	0.14980 0.49060 0.60310 -0.05000
C 	C 	0.18030 0.48120 0.56663 -0.19500
H 	H 	0.24650 0.46710 0.56850 0.10000
C 	C 	0.13960 0.48860 0.54310 0.13300
C 	C 	0.04340 0.51100 0.54160 -0.26400
H 	H 	0.01240 0.51250 0.52610 0.13100
C 	C 	0.99010 0.52660 0.56343 0.21700
H 	H 	0.92520 0.54660 0.56200 -0.04300
C 	C 	0.19900 0.47640 0.52011 0.06700
Cu	Cu	0.05969 0.93609 0.61800 0.79600
S 	S 	0.12845 0.79422 0.60164 -0.62900
N 	N 	0.97180 0.97950 0.58593 -0.19500
N 	N 	0.84850 0.02850 0.49827 -0.08500
N 	N 	0.70470 0.02840 0.52250 -0.08900
C 	C 	0.87830 0.00310 0.58729 0.05100
H 	H 	0.85020 0.00940 0.60310 -0.02700
C 	C 	0.81970 0.01880 0.56663 -0.10700
H 	H 	0.75350 0.03290 0.56850 0.07200
C 	C 	0.86040 0.01140 0.54310 0.03300
C 	C 	0.95660 0.98900 0.54160 -0.04000
H 	H 	0.98760 0.98750 0.52610 0.07900
C 	C 	0.00990 0.97340 0.56343 -0.03700
H 	H 	0.07480 0.95340 0.56200 0.02900
C 	C 	0.80100 0.02360 0.52011 0.10500
Cu	Cu	0.55969 0.43609 0.11800 0.80900
S 	S 	0.62845 0.29422 0.10164 -0.61400
N 	N 	0.47180 0.47950 0.08593 -0.24200
N 	N 	0.34850 0.52850 0.99827 -0.08700
N 	N 	0.20470 0.52840 0.02250 -0.09000
C 	C 	0.37830 0.50310 0.08729 0.07300
H 	H 	0.35020 0.50940 0.10310 -0.03800
C 	C 	0.31970 0.51880 0.06663 -0.14900
H 	H 	0.25350 0.53290 0.06850 0.08200
C 	C 	0.36040 0.51140 0.04310 0.08000
C 	C 	0.45660 0.48900 0.04160 -0.14900
H 	H 	0.48760 0.48750 0.02610 0.10400
C 	C 	0.50990 0.47340 0.06343 0.08800
H 	H 	0.57480 0.45340 0.06200 -0.00500
C 	C 	0.30100 0.52360 0.02011 0.08600
Cu	Cu	0.81391 0.30969 0.36800 0.80900
S 	S 	0.95578 0.37845 0.35164 -0.58000
N 	N 	0.77050 0.22180 0.33593 -0.24200
N 	N 	0.72150 0.09850 0.24827 -0.08500
N 	N 	0.72160 0.95470 0.27250 -0.08500
C 	C 	0.74690 0.12830 0.33729 0.07800
H 	H 	0.74060 0.10020 0.35310 -0.03900
C 	C 	0.73120 0.06970 0.31663 -0.15000
H 	H 	0.71710 0.00350 0.31850 0.08700
C 	C 	0.73860 0.11040 0.29310 0.08500
C 	C 	0.76100 0.20660 0.29160 -0.14900
H 	H 	0.76250 0.23760 0.27610 0.10700
C 	C 	0.77660 0.25990 0.31343 0.09200
H 	H 	0.79660 0.32480 0.31200 -0.00500
C 	C 	0.72640 0.05100 0.27011 0.08800
Cu	Cu	0.31391 0.80969 0.86800 0.80800
S 	S 	0.45578 0.87845 0.85164 -0.61600
N 	N 	0.27050 0.72180 0.83593 -0.24300
N 	N 	0.22150 0.59850 0.74827 -0.08800
N 	N 	0.22160 0.45470 0.77250 -0.08800
C 	C 	0.24690 0.62830 0.83729 0.07200
H 	H 	0.24060 0.60020 0.85310 -0.03900
C 	C 	0.23120 0.56970 0.81663 -0.15100
H 	H 	0.21710 0.50350 0.81850 0.08400
C 	C 	0.23860 0.61040 0.79310 0.08000
C 	C 	0.26100 0.70660 0.79160 -0.15100
H 	H 	0.26250 0.73760 0.77610 0.10300
C 	C 	0.27660 0.75990 0.81343 0.08600
H 	H 	0.29660 0.82480 0.81200 -0.00700
C 	C 	0.22640 0.55100 0.77011 0.08400
Cu	Cu	0.68609 0.69031 0.86800 0.80900
S 	S 	0.54422 0.62155 0.85164 -0.61600
N 	N 	0.72950 0.77820 0.83593 -0.24200
N 	N 	0.77850 0.90150 0.74827 -0.08400
N 	N 	0.77840 0.04530 0.77250 -0.08500
C 	C 	0.75310 0.87170 0.83729 0.07700
H 	H 	0.75940 0.89980 0.85310 -0.03800
C 	C 	0.76880 0.93030 0.81663 -0.14900
H 	H 	0.78290 0.99650 0.81850 0.08600
C 	C 	0.76140 0.88960 0.79310 0.08500
C 	C 	0.73900 0.79340 0.79160 -0.15000
H 	H 	0.73750 0.76240 0.77610 0.10600
C 	C 	0.72340 0.74010 0.81343 0.09200
H 	H 	0.70340 0.67520 0.81200 -0.00600
C 	C 	0.77360 0.94900 0.77011 0.08800
Cu	Cu	0.18609 0.19031 0.36800 0.80900
S 	S 	0.04422 0.12155 0.35164 -0.64300
N 	N 	0.22950 0.27820 0.33593 -0.24300
N 	N 	0.27850 0.40150 0.24827 -0.08800
N 	N 	0.27840 0.54530 0.27250 -0.08800
C 	C 	0.25310 0.37170 0.33729 0.07200
H 	H 	0.25940 0.39980 0.35310 -0.03800
C 	C 	0.26880 0.43030 0.31663 -0.15100
H 	H 	0.28290 0.49650 0.31850 0.08400
C 	C 	0.26140 0.38960 0.29310 0.08000
C 	C 	0.23900 0.29340 0.29160 -0.15200
H 	H 	0.23750 0.26240 0.27610 0.10300
C 	C 	0.22340 0.24010 0.31343 0.08600
H 	H 	0.20340 0.17520 0.31200 -0.00800
C 	C 	0.27360 0.44900 0.27011 0.08400
Mo	Mo	0.00000 0.75000 0.12500 0.92400
Mo	Mo	0.50000 0.25000 0.62500 0.94200
Mo	Mo	0.50000 0.75000 0.37500 0.94200
Mo	Mo	0.00000 0.25000 0.87500 0.92400
Mo	Mo	0.50000 0.75000 0.87500 0.94300
Mo	Mo	0.00000 0.25000 0.37500 0.92500
Mo	Mo	0.00000 0.75000 0.62500 0.92500
Mo	Mo	0.50000 0.25000 0.12500 0.94300
