data_crystal

_cell_length_a 12.60800
_cell_length_b 14.21450
_cell_length_c 14.89800
_cell_angle_alpha 69.32100
_cell_angle_beta  67.50300
_cell_angle_gamma 78.32900

_symmetry_space_group_name_	'P 1'
_symmetry_space_group_name_H-M	'P 1'

loop_
_symmetry_equiv_pos_as_xyz
  x,y,z

loop_
_atom_site_label
_atom_site_type_symbol
_atom_site_fract_x
_atom_site_fract_y
_atom_site_fract_z
_atom_site_charge
Eu	Eu	0.43561 0.48158 0.40368 1.95000
Eu	Eu	0.94846 0.94614 0.90703 1.97800
O 	O 	0.44360 0.50940 0.22200 -0.40000
O 	O 	0.07040 0.82090 0.82390 -0.41200
O 	O 	0.52970 0.60560 0.44010 -0.58600
O 	O 	0.80520 0.95280 0.06470 -0.51200
O 	O 	0.87130 0.98860 0.16730 -0.51000
O 	O 	0.36270 0.58130 0.63800 -0.48400
O 	O 	0.30720 0.56230 0.52050 -0.50300
O 	O 	0.99100 0.95290 0.73140 -0.44300
O 	O 	0.03520 0.85450 0.02480 -0.55200
C 	C 	0.53540 0.67260 0.35490 0.44100
O 	O 	0.50810 0.65550 0.29120 -0.42900
N 	N 	0.26590 0.36080 0.51790 -0.20500
O 	O 	0.28770 0.56100 0.32870 -0.42800
C 	C 	0.70140 0.90630 0.24130 -0.21400
C 	C 	0.79930 0.95310 0.15020 0.50100
O 	O 	0.10030 0.87740 0.13350 -0.50100
N 	N 	0.75340 0.97590 0.87580 -0.22900
N 	N 	0.83140 0.79190 0.98030 -0.23000
C 	C 	0.17210 0.73130 0.08150 -0.19500
C 	C 	0.57000 0.77320 0.33750 -0.21000
C 	C 	0.65940 0.81860 0.25000 0.13500
H 	H 	0.69120 0.78990 0.19710 -0.00600
C 	C 	0.29420 0.59860 0.15830 -0.13900
C 	C 	0.21630 0.68330 0.16040 0.09300
H 	H 	0.19330 0.70820 0.21550 0.01800
N 	N 	0.44620 0.31460 0.36390 -0.21900
C 	C 	0.30290 0.60770 0.58040 0.46700
C 	C 	0.10520 0.82860 0.65300 -0.12700
C 	C 	0.09640 0.82710 0.08050 0.49100
C 	C 	0.51660 0.82080 0.41260 0.12000
H 	H 	0.45640 0.79180 0.47050 -0.01900
C 	C 	0.05200 0.86970 0.74230 0.34000
C 	C 	0.64740 0.95230 0.31820 0.12200
H 	H 	0.67480 0.01050 0.31360 -0.00500
C 	C 	0.34400 0.55310 0.24180 0.34600
C 	C 	0.18110 0.74260 0.65790 0.08400
H 	H 	0.20280 0.71170 0.71530 0.01900
C 	C 	0.26440 0.27550 0.49670 0.03300
C 	C 	0.20230 0.69060 0.00230 0.09100
H 	H 	0.17170 0.72070 0.95010 0.01000
C 	C 	0.32610 0.56010 0.07670 0.06900
H 	H 	0.37920 0.50440 0.07360 0.01800
C 	C 	0.27860 0.60470 0.00070 -0.15200
H 	H 	0.29770 0.57730 0.94780 0.08700
C 	C 	0.35690 0.25260 0.41300 0.03200
C 	C 	0.22460 0.70270 0.57670 -0.17900
C 	C 	0.68070 0.90020 0.92310 0.04300
C 	C 	0.64760 0.72370 0.03030 0.02400
C 	C 	0.72310 0.80350 0.97850 0.02200
C 	C 	0.07710 0.87710 0.56580 0.06400
H 	H 	0.02740 0.93540 0.56230 0.02100
C 	C 	0.55280 0.91140 0.40170 -0.18600
H 	H 	0.51400 0.94490 0.45020 0.09500
C 	C 	0.17730 0.20690 0.55510 0.01000
C 	C 	0.53130 0.29460 0.28560 0.07600
H 	H 	0.59120 0.33690 0.25130 -0.00000
C 	C 	0.56860 0.91400 0.91970 -0.02200
C 	C 	0.71640 0.06330 0.82280 0.10900
H 	H 	0.76660 0.11430 0.78800 -0.00500
C 	C 	0.12290 0.83910 0.48340 -0.14800
H 	H 	0.10590 0.87310 0.42400 0.08900
C 	C 	0.79850 0.61940 0.08800 -0.10000
H 	H 	0.82720 0.55860 0.12440 0.06800
C 	C 	0.35600 0.16760 0.38530 0.00300
C 	C 	0.09050 0.31380 0.66030 -0.08600
H 	H 	0.03370 0.32830 0.71680 0.06500
C 	C 	0.18230 0.11960 0.52740 -0.05900
H 	H 	0.12560 0.07450 0.56660 0.06100
C 	C 	0.53660 0.21350 0.25110 -0.09400
H 	H 	0.59880 0.20180 0.19620 0.06400
C 	C 	0.17890 0.37950 0.59710 0.06500
H 	H 	0.17620 0.43870 0.61130 0.01300
C 	C 	0.86660 0.70290 0.03320 0.08800
H 	H 	0.94110 0.69480 0.03440 -0.00400
C 	C 	0.08920 0.22870 0.63800 -0.02800
H 	H 	0.03020 0.18590 0.67770 0.04900
C 	C 	0.19330 0.75150 0.48990 0.09000
H 	H 	0.22030 0.72420 0.43610 0.01000
C 	C 	0.68920 0.63120 0.08580 -0.02500
H 	H 	0.64220 0.57780 0.12110 0.04800
C 	C 	0.60610 0.08370 0.81600 -0.12600
H 	H 	0.58310 0.14750 0.77970 0.08800
C 	C 	0.26760 0.10060 0.44570 -0.05300
H 	H 	0.26830 0.04330 0.42880 0.04900
C 	C 	0.53810 0.73850 0.02420 -0.05500
H 	H 	0.49100 0.68510 0.05650 0.06500
C 	C 	0.49750 0.83020 0.97170 -0.04800
H 	H 	0.42330 0.83810 0.96960 0.04800
C 	C 	0.44670 0.15110 0.30080 -0.03400
H 	H 	0.44690 0.09810 0.27790 0.04400
C 	C 	0.53240 0.00860 0.86330 0.00900
H 	H 	0.45940 0.02000 0.85820 0.04000
Eu	Eu	0.56439 0.51842 0.59632 1.94900
Eu	Eu	0.05154 0.05386 0.09297 1.97700
O 	O 	0.55640 0.49060 0.77800 -0.40100
O 	O 	0.92960 0.17910 0.17610 -0.41300
O 	O 	0.47030 0.39440 0.55990 -0.58700
O 	O 	0.19480 0.04720 0.93530 -0.51300
O 	O 	0.12870 0.01140 0.83270 -0.51000
O 	O 	0.63730 0.41870 0.36200 -0.48400
O 	O 	0.69280 0.43770 0.47950 -0.50300
O 	O 	0.00900 0.04710 0.26860 -0.44300
O 	O 	0.96480 0.14550 0.97520 -0.55200
C 	C 	0.46460 0.32740 0.64510 0.44100
O 	O 	0.49190 0.34450 0.70880 -0.42900
N 	N 	0.73410 0.63920 0.48210 -0.20500
O 	O 	0.71230 0.43900 0.67130 -0.42800
C 	C 	0.29860 0.09370 0.75870 -0.21400
C 	C 	0.20070 0.04690 0.84980 0.50100
O 	O 	0.89970 0.12260 0.86650 -0.50100
N 	N 	0.24660 0.02410 0.12420 -0.22900
N 	N 	0.16860 0.20810 0.01970 -0.23000
C 	C 	0.82790 0.26870 0.91850 -0.19500
C 	C 	0.43000 0.22680 0.66250 -0.21000
C 	C 	0.34060 0.18140 0.75000 0.13500
H 	H 	0.30880 0.21010 0.80290 -0.00600
C 	C 	0.70580 0.40140 0.84170 -0.13900
C 	C 	0.78370 0.31670 0.83960 0.09300
H 	H 	0.80670 0.29180 0.78450 0.01800
N 	N 	0.55380 0.68540 0.63610 -0.21900
C 	C 	0.69710 0.39230 0.41960 0.46700
C 	C 	0.89480 0.17140 0.34700 -0.12700
C 	C 	0.90360 0.17290 0.91950 0.49100
C 	C 	0.48340 0.17920 0.58740 0.12000
H 	H 	0.54360 0.20820 0.52950 -0.01900
C 	C 	0.94800 0.13030 0.25770 0.34000
C 	C 	0.35260 0.04770 0.68180 0.12200
H 	H 	0.32520 0.98950 0.68640 -0.00500
C 	C 	0.65600 0.44690 0.75820 0.34600
C 	C 	0.81890 0.25740 0.34210 0.08400
H 	H 	0.79720 0.28830 0.28470 0.01900
C 	C 	0.73560 0.72450 0.50330 0.03300
C 	C 	0.79770 0.30940 0.99770 0.09100
H 	H 	0.82830 0.27930 0.04990 0.01000
C 	C 	0.67390 0.43990 0.92330 0.06900
H 	H 	0.62080 0.49560 0.92640 0.01800
C 	C 	0.72140 0.39530 0.99930 -0.15200
H 	H 	0.70230 0.42270 0.05220 0.08700
C 	C 	0.64310 0.74740 0.58700 0.03200
C 	C 	0.77540 0.29730 0.42330 -0.17900
C 	C 	0.31930 0.09980 0.07690 0.04300
C 	C 	0.35240 0.27630 0.96970 0.02400
C 	C 	0.27690 0.19650 0.02150 0.02200
C 	C 	0.92290 0.12290 0.43420 0.06400
H 	H 	0.97260 0.06460 0.43770 0.02100
C 	C 	0.44720 0.08860 0.59830 -0.18600
H 	H 	0.48600 0.05510 0.54980 0.09500
C 	C 	0.82270 0.79310 0.44490 0.01000
C 	C 	0.46870 0.70540 0.71440 0.07600
H 	H 	0.40880 0.66310 0.74870 -0.00000
C 	C 	0.43140 0.08600 0.08030 -0.02200
C 	C 	0.28360 0.93670 0.17720 0.10900
H 	H 	0.23340 0.88570 0.21200 -0.00500
C 	C 	0.87710 0.16090 0.51660 -0.14800
H 	H 	0.89410 0.12690 0.57600 0.08900
C 	C 	0.20150 0.38060 0.91200 -0.10000
H 	H 	0.17280 0.44140 0.87560 0.06800
C 	C 	0.64400 0.83240 0.61470 0.00300
C 	C 	0.90950 0.68620 0.33970 -0.08600
H 	H 	0.96630 0.67170 0.28320 0.06500
C 	C 	0.81770 0.88040 0.47260 -0.05900
H 	H 	0.87440 0.92550 0.43340 0.06100
C 	C 	0.46340 0.78650 0.74890 -0.09400
H 	H 	0.40120 0.79820 0.80380 0.06400
C 	C 	0.82110 0.62050 0.40290 0.06500
H 	H 	0.82380 0.56130 0.38870 0.01300
C 	C 	0.13340 0.29710 0.96680 0.08800
H 	H 	0.05890 0.30520 0.96560 -0.00400
C 	C 	0.91080 0.77130 0.36200 -0.02800
H 	H 	0.96980 0.81410 0.32230 0.04900
C 	C 	0.80670 0.24850 0.51010 0.09000
H 	H 	0.77970 0.27580 0.56390 0.01000
C 	C 	0.31080 0.36880 0.91420 -0.02500
H 	H 	0.35780 0.42220 0.87890 0.04800
C 	C 	0.39390 0.91630 0.18400 -0.12600
H 	H 	0.41690 0.85250 0.22030 0.08800
C 	C 	0.73240 0.89940 0.55430 -0.05300
H 	H 	0.73170 0.95670 0.57120 0.04900
C 	C 	0.46190 0.26150 0.97580 -0.05500
H 	H 	0.50900 0.31490 0.94350 0.06500
C 	C 	0.50250 0.16980 0.02830 -0.04800
H 	H 	0.57670 0.16190 0.03040 0.04800
C 	C 	0.55330 0.84890 0.69920 -0.03400
H 	H 	0.55310 0.90190 0.72210 0.04400
C 	C 	0.46760 0.99140 0.13670 0.00900
H 	H 	0.54060 0.98000 0.14180 0.04000
