data_crystal

_cell_length_a 7.83340
_cell_length_b 17.27630
_cell_length_c 9.44500
_cell_angle_alpha 90.00000
_cell_angle_beta  100.47500
_cell_angle_gamma 90.00000

_symmetry_space_group_name_	'P 1'
_symmetry_space_group_name_H-M	'P 1'

loop_
_symmetry_equiv_pos_as_xyz
  x,y,z

loop_
_atom_site_label
_atom_site_type_symbol
_atom_site_fract_x
_atom_site_fract_y
_atom_site_fract_z
_atom_site_charge
Zn	Zn	0.38862 0.32616 0.26230 1.19700
Zn	Zn	0.76805 0.25055 0.48981 1.20400
O 	O 	0.94440 0.32906 0.57680 -0.44400
O 	O 	0.58710 0.16761 0.42430 -0.48500
O 	O 	0.56930 0.89620 0.56620 -0.46800
O 	O 	0.19790 0.70454 0.85390 -0.26300
O 	O 	0.41700 0.81118 0.41520 -0.45800
C 	C 	0.42710 0.94101 0.33680 -0.11200
C 	C 	0.32170 0.92468 0.20520 0.05700
H 	H 	0.29110 0.87270 0.17970 0.04000
C 	C 	0.13020 0.66422 0.74640 0.30800
O 	O 	0.38370 0.21211 0.24450 -0.49100
C 	C 	0.41480 0.07704 0.27860 -0.12900
C 	C 	0.30440 0.06156 0.14870 0.05800
H 	H 	0.25880 0.10270 0.08630 0.05500
C 	C 	0.05110 0.45076 0.66430 -0.09800
C 	C 	0.22610 0.46294 0.90170 -0.08700
C 	C 	0.04620 0.53127 0.65110 0.03800
H 	H 	0.98420 0.55450 0.56590 0.04400
C 	C 	0.14210 0.41697 0.79010 0.04000
H 	H 	0.14650 0.36220 0.79920 0.05400
C 	C 	0.21980 0.54327 0.88710 0.03900
H 	H 	0.27670 0.57480 0.96370 0.05500
C 	C 	0.31050 0.42710 0.04190 0.32500
C 	C 	0.26130 0.98453 0.11100 -0.10900
C 	C 	0.47680 0.01729 0.37170 0.05800
H 	H 	0.55330 0.02820 0.45950 0.04400
C 	C 	0.13180 0.57778 0.76230 -0.09100
C 	C 	0.46610 0.15894 0.31900 0.41700
O 	O 	0.87900 0.43129 0.43190 -0.28800
O 	O 	0.07590 0.03015 0.90710 -0.45800
H 	H 	0.01000 0.01790 0.82990 0.27000
O 	O 	0.10870 0.90208 0.92870 -0.28600
O 	O 	0.31790 0.35455 0.05220 -0.42400
O 	O 	0.36480 0.47037 0.14560 -0.30600
C 	C 	0.95030 0.40054 0.54870 0.34000
C 	C 	0.14280 0.96757 0.97280 0.38800
C 	C 	0.47560 0.87785 0.44690 0.37500
O 	O 	0.06290 0.69352 0.62490 -0.40900
Zn	Zn	0.61138 0.82616 0.73770 1.19600
Zn	Zn	0.23195 0.75055 0.51019 1.20300
O 	O 	0.05560 0.82906 0.42320 -0.44300
O 	O 	0.41290 0.66761 0.57570 -0.48700
O 	O 	0.43070 0.39620 0.43380 -0.47100
O 	O 	0.80210 0.20454 0.14610 -0.26200
O 	O 	0.58300 0.31118 0.58480 -0.46000
C 	C 	0.57290 0.44101 0.66320 -0.13100
C 	C 	0.67830 0.42468 0.79480 0.07000
H 	H 	0.70890 0.37270 0.82030 0.03500
C 	C 	0.86980 0.16422 0.25360 0.30200
O 	O 	0.61630 0.71211 0.75550 -0.49200
C 	C 	0.58520 0.57704 0.72140 -0.14200
C 	C 	0.69560 0.56156 0.85130 0.07900
H 	H 	0.74120 0.60270 0.91370 0.05000
C 	C 	0.94890 0.95076 0.33570 -0.07700
C 	C 	0.77390 0.96294 0.09830 -0.06600
C 	C 	0.95380 0.03127 0.34890 0.01500
H 	H 	0.01580 0.05450 0.43410 0.04900
C 	C 	0.85790 0.91697 0.20990 0.02400
H 	H 	0.85350 0.86220 0.20080 0.06000
C 	C 	0.78020 0.04327 0.11290 0.01500
H 	H 	0.72330 0.07480 0.03630 0.06000
C 	C 	0.68950 0.92710 0.95810 0.31900
C 	C 	0.73870 0.48453 0.88900 -0.12700
C 	C 	0.52320 0.51729 0.62830 0.08000
H 	H 	0.44670 0.52820 0.54050 0.03900
C 	C 	0.86820 0.07778 0.23770 -0.07600
C 	C 	0.53390 0.65894 0.68100 0.42200
O 	O 	0.12100 0.93129 0.56810 -0.28400
O 	O 	0.92410 0.53015 0.09290 -0.45400
H 	H 	0.99000 0.51790 0.17010 0.27200
O 	O 	0.89130 0.40208 0.07130 -0.28700
O 	O 	0.68210 0.85455 0.94780 -0.42200
O 	O 	0.63520 0.97037 0.85440 -0.30100
C 	C 	0.04970 0.90054 0.45130 0.33300
C 	C 	0.85720 0.46757 0.02720 0.38600
C 	C 	0.52440 0.37785 0.55310 0.38100
O 	O 	0.93710 0.19352 0.37510 -0.40800
