data_crystal

_cell_length_a 15.93330
_cell_length_b 15.93330
_cell_length_c 21.13120
_cell_angle_alpha 90.00000
_cell_angle_beta  90.00000
_cell_angle_gamma 90.00000

_symmetry_space_group_name_	'P 1'
_symmetry_space_group_name_H-M	'P 1'

loop_
_symmetry_equiv_pos_as_xyz
  x,y,z

loop_
_atom_site_label
_atom_site_type_symbol
_atom_site_fract_x
_atom_site_fract_y
_atom_site_fract_z
_atom_site_charge
C 	C 	0.30190 0.43060 0.19000 0.07400
H 	H 	0.34030 0.43790 0.15740 -0.01200
C 	C 	0.25340 0.46530 0.28880 0.08000
H 	H 	0.25750 0.49660 0.32590 -0.01100
C 	C 	0.18810 0.41040 0.28260 -0.14100
H 	H 	0.14920 0.40580 0.31520 0.07700
C 	C 	0.17820 0.36070 0.22830 0.06600
C 	C 	0.23890 0.37490 0.18160 -0.13600
H 	H 	0.23580 0.34530 0.14380 0.07300
C 	C 	0.11220 0.29640 0.22230 0.02300
C 	C 	0.03730 0.30040 0.25800 -0.09300
H 	H 	0.02870 0.34490 0.28570 0.05900
C 	C 	0.97840 0.24030 0.25210 0.01500
H 	H 	0.92920 0.24490 0.27560 0.02000
C 	C 	0.98880 0.17100 0.21170 -0.08900
H 	H 	0.94760 0.12990 0.20820 0.06400
C 	C 	0.06330 0.16630 0.17720 0.02600
C 	C 	0.12280 0.22760 0.18280 -0.09300
H 	H 	0.17200 0.22300 0.15940 0.06600
C 	C 	0.07120 0.09410 0.13370 0.08900
C 	C 	0.12310 0.99670 0.07020 0.10400
C 	C 	0.18470 0.94250 0.03950 -0.06900
C 	C 	0.21710 0.96310 0.97930 0.00900
H 	H 	0.19810 0.01020 0.95750 0.03000
C 	C 	0.27820 0.91120 0.95340 -0.07700
H 	H 	0.30100 0.92430 0.91410 0.05600
C 	C 	0.30570 0.84030 0.98520 0.00600
H 	H 	0.34550 0.80570 0.96640 0.03300
C 	C 	0.27460 0.82000 0.04490 -0.05700
C 	C 	0.21380 0.87190 0.07090 -0.02200
H 	H 	0.19210 0.85900 0.11060 0.03500
C 	C 	0.30590 0.74640 0.08100 0.10200
C 	C 	0.26230 0.71750 0.13480 -0.15900
H 	H 	0.21000 0.73970 0.14510 0.08200
C 	C 	0.29860 0.65480 0.17270 0.08100
H 	H 	0.26920 0.63710 0.20830 -0.02300
C 	C 	0.41010 0.64220 0.10670 0.08200
H 	H 	0.45990 0.61580 0.09550 -0.00900
C 	C 	0.37720 0.70450 0.06680 -0.16400
H 	H 	0.40520 0.71730 0.02950 0.08300
N 	N 	0.03960 0.99240 0.06840 -0.21200
N 	N 	0.00790 0.05470 0.10890 -0.12200
N 	N 	0.14480 0.05940 0.11100 -0.10900
N 	N 	0.22590 0.08310 0.12950 -0.22100
H 	H 	0.25570 0.03720 0.13790 0.11700
H 	H 	0.25030 0.11150 0.09820 0.11200
N 	N 	0.31200 0.47630 0.24370 -0.22800
N 	N 	0.37160 0.61960 0.16090 -0.24000
C 	C 	0.69810 0.56940 0.69000 0.07400
H 	H 	0.65970 0.56210 0.65740 -0.01200
C 	C 	0.74660 0.53470 0.78880 0.08000
H 	H 	0.74250 0.50340 0.82590 -0.01000
C 	C 	0.81190 0.58960 0.78260 -0.14200
H 	H 	0.85080 0.59420 0.81520 0.07800
C 	C 	0.82180 0.63930 0.72830 0.06700
C 	C 	0.76110 0.62510 0.68160 -0.13700
H 	H 	0.76420 0.65470 0.64380 0.07500
C 	C 	0.88780 0.70360 0.72230 0.02200
C 	C 	0.96270 0.69960 0.75800 -0.08800
H 	H 	0.97130 0.65510 0.78570 0.05900
C 	C 	0.02160 0.75970 0.75210 0.01100
H 	H 	0.07080 0.75510 0.77560 0.02100
C 	C 	0.01120 0.82900 0.71170 -0.09100
H 	H 	0.05240 0.87010 0.70820 0.06400
C 	C 	0.93670 0.83370 0.67720 0.02800
C 	C 	0.87720 0.77240 0.68280 -0.09300
H 	H 	0.82800 0.77700 0.65940 0.06700
C 	C 	0.92880 0.90590 0.63370 0.09100
C 	C 	0.87690 0.00330 0.57020 0.09100
C 	C 	0.81530 0.05750 0.53950 -0.00700
C 	C 	0.78290 0.03690 0.47930 -0.07000
H 	H 	0.80190 0.98980 0.45750 0.05400
C 	C 	0.72180 0.08880 0.45340 -0.00900
H 	H 	0.69900 0.07570 0.41410 0.03200
C 	C 	0.69430 0.15970 0.48520 -0.07700
H 	H 	0.65450 0.19430 0.46640 0.05700
C 	C 	0.72540 0.18000 0.54490 0.01000
C 	C 	0.78620 0.12810 0.57090 -0.07400
H 	H 	0.80790 0.14100 0.61060 0.05300
C 	C 	0.69410 0.25360 0.58100 0.07600
C 	C 	0.73770 0.28250 0.63480 -0.14200
H 	H 	0.79000 0.26030 0.64510 0.07600
C 	C 	0.70140 0.34520 0.67270 0.07300
H 	H 	0.73080 0.36290 0.70830 -0.01900
C 	C 	0.58990 0.35780 0.60670 0.07400
H 	H 	0.54010 0.38420 0.59550 -0.00400
C 	C 	0.62280 0.29550 0.56680 -0.14400
H 	H 	0.59480 0.28270 0.52950 0.08200
N 	N 	0.96040 0.00760 0.56840 -0.20500
N 	N 	0.99210 0.94530 0.60890 -0.12200
N 	N 	0.85520 0.94060 0.61100 -0.10600
N 	N 	0.77410 0.91690 0.62950 -0.22200
H 	H 	0.74430 0.96280 0.63790 0.11800
H 	H 	0.74970 0.88850 0.59820 0.11500
N 	N 	0.68800 0.52370 0.74370 -0.22800
N 	N 	0.62840 0.38040 0.66090 -0.23600
C 	C 	0.06940 0.80190 0.94000 0.08300
H 	H 	0.06210 0.84030 0.90740 -0.01300
C 	C 	0.03470 0.75340 0.03880 0.06800
H 	H 	0.00340 0.75750 0.07590 -0.00900
C 	C 	0.08960 0.68810 0.03260 -0.16800
H 	H 	0.09420 0.64920 0.06520 0.08300
C 	C 	0.13930 0.67820 0.97830 0.09200
C 	C 	0.12510 0.73890 0.93160 -0.14600
H 	H 	0.15470 0.73580 0.89380 0.07800
C 	C 	0.20360 0.61220 0.97230 0.03000
C 	C 	0.19960 0.53730 0.00800 -0.09600
H 	H 	0.15510 0.52870 0.03570 0.05600
C 	C 	0.25970 0.47840 0.00210 -0.02300
H 	H 	0.25510 0.42920 0.02560 0.02800
C 	C 	0.32900 0.48880 0.96170 -0.05500
H 	H 	0.37010 0.44760 0.95820 0.05600
C 	C 	0.33370 0.56330 0.92720 0.01900
C 	C 	0.27240 0.62280 0.93280 -0.08400
H 	H 	0.27700 0.67200 0.90940 0.06500
C 	C 	0.40590 0.57120 0.88370 0.09700
C 	C 	0.50330 0.62310 0.82020 0.08700
C 	C 	0.55750 0.68470 0.78950 -0.00100
C 	C 	0.53690 0.71710 0.72930 -0.08100
H 	H 	0.48980 0.69810 0.70750 0.06000
C 	C 	0.58880 0.77820 0.70340 -0.00100
H 	H 	0.57570 0.80100 0.66410 0.02800
C 	C 	0.65970 0.80570 0.73520 -0.08300
H 	H 	0.69430 0.84550 0.71640 0.05900
C 	C 	0.68000 0.77460 0.79490 0.01500
C 	C 	0.62810 0.71380 0.82090 -0.07900
H 	H 	0.64100 0.69210 0.86060 0.05600
C 	C 	0.75360 0.80590 0.83100 0.07400
C 	C 	0.78250 0.76230 0.88480 -0.13800
H 	H 	0.76030 0.71000 0.89510 0.07700
C 	C 	0.84520 0.79860 0.92270 0.07400
H 	H 	0.86290 0.76920 0.95830 -0.01300
C 	C 	0.85780 0.91010 0.85670 0.07400
H 	H 	0.88420 0.95990 0.84550 -0.00300
C 	C 	0.79550 0.87720 0.81680 -0.14200
H 	H 	0.78270 0.90520 0.77950 0.08200
N 	N 	0.50760 0.53960 0.81840 -0.20600
N 	N 	0.44530 0.50790 0.85890 -0.12000
N 	N 	0.44060 0.64480 0.86100 -0.10400
N 	N 	0.41690 0.72590 0.87950 -0.22100
H 	H 	0.46280 0.75570 0.88790 0.12100
H 	H 	0.38850 0.75030 0.84820 0.11600
N 	N 	0.02370 0.81200 0.99370 -0.21600
N 	N 	0.88040 0.87160 0.91090 -0.23300
C 	C 	0.93060 0.19810 0.44000 0.07400
H 	H 	0.93790 0.15970 0.40740 -0.01100
C 	C 	0.96530 0.24660 0.53880 0.07900
H 	H 	0.99660 0.24250 0.57590 -0.00900
C 	C 	0.91040 0.31190 0.53260 -0.14100
H 	H 	0.90580 0.35080 0.56520 0.07700
C 	C 	0.86070 0.32180 0.47830 0.06600
C 	C 	0.87490 0.26110 0.43160 -0.13700
H 	H 	0.84530 0.26420 0.39380 0.07500
C 	C 	0.79640 0.38780 0.47230 0.02200
C 	C 	0.80040 0.46270 0.50800 -0.08900
H 	H 	0.84490 0.47130 0.53570 0.05900
C 	C 	0.74030 0.52160 0.50210 0.01200
H 	H 	0.74490 0.57080 0.52560 0.02000
C 	C 	0.67100 0.51120 0.46170 -0.09300
H 	H 	0.62990 0.55240 0.45820 0.06400
C 	C 	0.66630 0.43670 0.42720 0.03000
C 	C 	0.72760 0.37720 0.43280 -0.09400
H 	H 	0.72300 0.32800 0.40940 0.06800
C 	C 	0.59410 0.42880 0.38370 0.09000
C 	C 	0.49670 0.37690 0.32020 0.08600
C 	C 	0.44250 0.31530 0.28950 -0.00100
C 	C 	0.46310 0.28290 0.22930 -0.08100
H 	H 	0.51020 0.30190 0.20750 0.06000
C 	C 	0.41120 0.22180 0.20340 -0.00100
H 	H 	0.42430 0.19900 0.16410 0.02600
C 	C 	0.34030 0.19430 0.23520 -0.08300
H 	H 	0.30570 0.15450 0.21640 0.05800
C 	C 	0.32000 0.22540 0.29490 0.01400
C 	C 	0.37190 0.28620 0.32090 -0.07900
H 	H 	0.35900 0.30790 0.36060 0.05400
C 	C 	0.24640 0.19410 0.33100 0.07400
C 	C 	0.21750 0.23770 0.38480 -0.14100
H 	H 	0.23970 0.29000 0.39510 0.07500
C 	C 	0.15480 0.20140 0.42270 0.07300
H 	H 	0.13710 0.23080 0.45830 -0.02000
C 	C 	0.14220 0.08990 0.35670 0.07300
H 	H 	0.11580 0.04010 0.34550 -0.00400
C 	C 	0.20450 0.12280 0.31680 -0.14300
H 	H 	0.21730 0.09480 0.27950 0.08200
N 	N 	0.49240 0.46040 0.31840 -0.20600
N 	N 	0.55470 0.49210 0.35890 -0.12000
N 	N 	0.55940 0.35520 0.36100 -0.10400
N 	N 	0.58310 0.27410 0.37950 -0.22300
H 	H 	0.53720 0.24430 0.38790 0.11800
H 	H 	0.61150 0.24970 0.34820 0.11600
N 	N 	0.97630 0.18800 0.49370 -0.22700
N 	N 	0.11960 0.12840 0.41090 -0.23700
C 	C 	0.19810 0.93060 0.56000 0.07400
H 	H 	0.15970 0.93790 0.59260 -0.01100
C 	C 	0.24660 0.96530 0.46120 0.07900
H 	H 	0.24250 0.99660 0.42410 -0.01000
C 	C 	0.31190 0.91040 0.46740 -0.14100
H 	H 	0.35080 0.90580 0.43480 0.07700
C 	C 	0.32180 0.86070 0.52170 0.06600
C 	C 	0.26110 0.87490 0.56840 -0.13700
H 	H 	0.26420 0.84530 0.60620 0.07500
C 	C 	0.38780 0.79640 0.52770 0.02200
C 	C 	0.46270 0.80040 0.49200 -0.08900
H 	H 	0.47130 0.84490 0.46430 0.05800
C 	C 	0.52160 0.74030 0.49790 0.01200
H 	H 	0.57080 0.74490 0.47440 0.02000
C 	C 	0.51120 0.67100 0.53830 -0.09300
H 	H 	0.55240 0.62990 0.54180 0.06400
C 	C 	0.43670 0.66630 0.57280 0.03000
C 	C 	0.37720 0.72760 0.56720 -0.09400
H 	H 	0.32800 0.72300 0.59060 0.06700
C 	C 	0.42880 0.59410 0.61630 0.09000
C 	C 	0.37690 0.49670 0.67980 0.08700
C 	C 	0.31530 0.44250 0.71050 -0.00200
C 	C 	0.28290 0.46310 0.77070 -0.07900
H 	H 	0.30190 0.51020 0.79250 0.05900
C 	C 	0.22180 0.41120 0.79660 -0.00300
H 	H 	0.19900 0.42430 0.83590 0.03100
C 	C 	0.19430 0.34030 0.76480 -0.08100
H 	H 	0.15450 0.30570 0.78360 0.05800
C 	C 	0.22540 0.32000 0.70510 0.01300
C 	C 	0.28620 0.37190 0.67910 -0.07700
H 	H 	0.30790 0.35900 0.63940 0.05400
C 	C 	0.19410 0.24640 0.66900 0.07400
C 	C 	0.23770 0.21750 0.61520 -0.14100
H 	H 	0.29000 0.23970 0.60490 0.07500
C 	C 	0.20140 0.15480 0.57730 0.07300
H 	H 	0.23080 0.13710 0.54170 -0.02000
C 	C 	0.08990 0.14220 0.64330 0.07300
H 	H 	0.04010 0.11580 0.65450 -0.00500
C 	C 	0.12280 0.20450 0.68320 -0.14300
H 	H 	0.09480 0.21730 0.72050 0.08200
N 	N 	0.46040 0.49240 0.68160 -0.20700
N 	N 	0.49210 0.55470 0.64110 -0.12000
N 	N 	0.35520 0.55940 0.63900 -0.10400
N 	N 	0.27410 0.58310 0.62050 -0.22300
H 	H 	0.24430 0.53720 0.61210 0.11800
H 	H 	0.24970 0.61150 0.65180 0.11600
N 	N 	0.18800 0.97630 0.50630 -0.22700
N 	N 	0.12840 0.11960 0.58910 -0.23700
C 	C 	0.80190 0.06940 0.06000 0.06500
H 	H 	0.84030 0.06210 0.09260 -0.00800
C 	C 	0.75340 0.03470 0.96120 0.09000
H 	H 	0.75750 0.00340 0.92410 -0.01100
C 	C 	0.68810 0.08960 0.96740 -0.11500
H 	H 	0.64920 0.09420 0.93480 0.07100
C 	C 	0.67820 0.13930 0.02170 0.04100
C 	C 	0.73890 0.12510 0.06840 -0.12800
H 	H 	0.73580 0.15470 0.10620 0.07100
C 	C 	0.61220 0.20360 0.02770 0.01500
C 	C 	0.53730 0.19960 0.99200 -0.08300
H 	H 	0.52870 0.15510 0.96430 0.06100
C 	C 	0.47840 0.25970 0.99790 0.04800
H 	H 	0.42920 0.25510 0.97440 0.01300
C 	C 	0.48880 0.32900 0.03830 -0.13100
H 	H 	0.44760 0.37010 0.04180 0.07200
C 	C 	0.56330 0.33370 0.07280 0.04100
C 	C 	0.62280 0.27240 0.06720 -0.10300
H 	H 	0.67200 0.27700 0.09060 0.07000
C 	C 	0.57120 0.40590 0.11630 0.08400
C 	C 	0.62310 0.50330 0.17980 0.08600
C 	C 	0.68470 0.55750 0.21050 -0.00300
C 	C 	0.71710 0.53690 0.27070 -0.08000
H 	H 	0.69810 0.48980 0.29250 0.06000
C 	C 	0.77820 0.58880 0.29660 -0.00300
H 	H 	0.80100 0.57570 0.33590 0.02900
C 	C 	0.80570 0.65970 0.26480 -0.08100
H 	H 	0.84550 0.69430 0.28360 0.05800
C 	C 	0.77460 0.68000 0.20510 0.01200
C 	C 	0.71380 0.62810 0.17910 -0.07700
H 	H 	0.69210 0.64100 0.13940 0.05200
C 	C 	0.80590 0.75360 0.16900 0.07400
C 	C 	0.76230 0.78250 0.11520 -0.14300
H 	H 	0.71000 0.76030 0.10490 0.07300
C 	C 	0.79860 0.84520 0.07730 0.07200
H 	H 	0.76920 0.86290 0.04170 -0.02600
C 	C 	0.91010 0.85780 0.14330 0.07200
H 	H 	0.95990 0.88420 0.15450 -0.00400
C 	C 	0.87720 0.79550 0.18320 -0.14400
H 	H 	0.90520 0.78270 0.22050 0.08200
N 	N 	0.53960 0.50760 0.18160 -0.20700
N 	N 	0.50790 0.44530 0.14110 -0.12000
N 	N 	0.64480 0.44060 0.13900 -0.10400
N 	N 	0.72590 0.41690 0.12050 -0.22400
H 	H 	0.75570 0.46280 0.11210 0.11600
H 	H 	0.75030 0.38850 0.15180 0.11500
N 	N 	0.81200 0.02370 0.00630 -0.23700
N 	N 	0.87160 0.88040 0.08910 -0.23900
C 	C 	0.43060 0.30190 0.81000 0.07400
H 	H 	0.43790 0.34030 0.84260 -0.01100
C 	C 	0.46530 0.25340 0.71120 0.07900
H 	H 	0.49660 0.25750 0.67410 -0.01100
C 	C 	0.41040 0.18810 0.71740 -0.14200
H 	H 	0.40580 0.14920 0.68480 0.07700
C 	C 	0.36070 0.17820 0.77170 0.06700
C 	C 	0.37490 0.23890 0.81840 -0.13700
H 	H 	0.34530 0.23580 0.85620 0.07600
C 	C 	0.29640 0.11220 0.77770 0.02300
C 	C 	0.30040 0.03730 0.74200 -0.09200
H 	H 	0.34490 0.02870 0.71430 0.05900
C 	C 	0.24030 0.97840 0.74790 0.01400
H 	H 	0.24490 0.92920 0.72440 0.02000
C 	C 	0.17100 0.98880 0.78830 -0.09000
H 	H 	0.12990 0.94760 0.79180 0.06400
C 	C 	0.16630 0.06330 0.82280 0.02700
C 	C 	0.22760 0.12280 0.81720 -0.09300
H 	H 	0.22300 0.17200 0.84060 0.06800
C 	C 	0.09410 0.07120 0.86630 0.09200
C 	C 	0.99670 0.12310 0.92980 0.07800
C 	C 	0.94250 0.18470 0.96050 0.05500
C 	C 	0.96310 0.21710 0.02070 -0.14700
H 	H 	0.01020 0.19810 0.04250 0.07700
C 	C 	0.91120 0.27820 0.04660 0.05700
H 	H 	0.92430 0.30100 0.08590 0.00700
C 	C 	0.84030 0.30570 0.01480 -0.15800
H 	H 	0.80570 0.34550 0.03360 0.08000
C 	C 	0.82000 0.27460 0.95510 0.07600
C 	C 	0.87190 0.21380 0.92910 -0.12400
H 	H 	0.85900 0.19210 0.88940 0.07100
C 	C 	0.74640 0.30590 0.91900 0.05000
C 	C 	0.71750 0.26230 0.86520 -0.12500
H 	H 	0.73970 0.21000 0.85490 0.06900
C 	C 	0.65480 0.29860 0.82730 0.06600
H 	H 	0.63710 0.26920 0.79170 -0.01700
C 	C 	0.64220 0.41010 0.89330 0.06600
H 	H 	0.61580 0.45990 0.90450 0.00200
C 	C 	0.70450 0.37720 0.93320 -0.12400
H 	H 	0.71730 0.40520 0.97050 0.08200
N 	N 	0.99240 0.03960 0.93160 -0.19700
N 	N 	0.05470 0.00790 0.89110 -0.12200
N 	N 	0.05940 0.14480 0.88900 -0.10400
N 	N 	0.08310 0.22590 0.87050 -0.22400
H 	H 	0.03720 0.25570 0.86210 0.11900
H 	H 	0.11150 0.25030 0.90180 0.11900
N 	N 	0.47630 0.31200 0.75630 -0.22800
N 	N 	0.61960 0.37160 0.83910 -0.23300
C 	C 	0.56940 0.69810 0.31000 0.07400
H 	H 	0.56210 0.65970 0.34260 -0.01200
C 	C 	0.53470 0.74660 0.21120 0.07900
H 	H 	0.50340 0.74250 0.17410 -0.01200
C 	C 	0.58960 0.81190 0.21740 -0.14100
H 	H 	0.59420 0.85080 0.18480 0.07500
C 	C 	0.63930 0.82180 0.27170 0.06600
C 	C 	0.62510 0.76110 0.31840 -0.13600
H 	H 	0.65470 0.76420 0.35620 0.07400
C 	C 	0.70360 0.88780 0.27770 0.02300
C 	C 	0.69960 0.96270 0.24200 -0.09500
H 	H 	0.65510 0.97130 0.21430 0.05900
C 	C 	0.75970 0.02160 0.24790 0.01600
H 	H 	0.75510 0.07080 0.22440 0.01900
C 	C 	0.82900 0.01120 0.28830 -0.08900
H 	H 	0.87010 0.05240 0.29180 0.06400
C 	C 	0.83370 0.93670 0.32280 0.02600
C 	C 	0.77240 0.87720 0.31720 -0.09300
H 	H 	0.77700 0.82800 0.34060 0.06700
C 	C 	0.90590 0.92880 0.36630 0.09100
C 	C 	0.00330 0.87690 0.42980 0.08900
C 	C 	0.05750 0.81530 0.46050 -0.00300
C 	C 	0.03690 0.78290 0.52070 -0.07700
H 	H 	0.98980 0.80190 0.54250 0.05800
C 	C 	0.08880 0.72180 0.54660 -0.00400
H 	H 	0.07570 0.69900 0.58590 0.02900
C 	C 	0.15970 0.69430 0.51480 -0.08000
H 	H 	0.19430 0.65450 0.53360 0.05800
C 	C 	0.18000 0.72540 0.45510 0.01300
C 	C 	0.12810 0.78620 0.42910 -0.07600
H 	H 	0.14100 0.80790 0.38940 0.05400
C 	C 	0.25360 0.69410 0.41900 0.07500
C 	C 	0.28250 0.73770 0.36520 -0.14100
H 	H 	0.26030 0.79000 0.35490 0.07500
C 	C 	0.34520 0.70140 0.32730 0.07300
H 	H 	0.36290 0.73080 0.29170 -0.02000
C 	C 	0.35780 0.58990 0.39330 0.07400
H 	H 	0.38420 0.54010 0.40450 -0.00300
C 	C 	0.29550 0.62280 0.43320 -0.14300
H 	H 	0.28270 0.59480 0.47050 0.08200
N 	N 	0.00760 0.96040 0.43160 -0.20500
N 	N 	0.94530 0.99210 0.39110 -0.12200
N 	N 	0.94060 0.85520 0.38900 -0.10500
N 	N 	0.91690 0.77410 0.37050 -0.22300
H 	H 	0.96280 0.74430 0.36210 0.11800
H 	H 	0.88850 0.74970 0.40180 0.11500
N 	N 	0.52370 0.68800 0.25630 -0.22800
N 	N 	0.38040 0.62840 0.33910 -0.23600
Cd	Cd	0.93977 0.93977 -0.00000 1.18300
Cd	Cd	0.06023 0.06023 0.50000 1.19000
Cd	Cd	0.56023 0.43977 0.75000 1.19200
Cd	Cd	0.43977 0.56023 0.25000 1.19200
