data_crystal

_cell_length_a 8.39890
_cell_length_b 8.53500
_cell_length_c 11.48830
_cell_angle_alpha 89.32500
_cell_angle_beta  69.01400
_cell_angle_gamma 67.26900

_symmetry_space_group_name_	'P 1'
_symmetry_space_group_name_H-M	'P 1'

loop_
_symmetry_equiv_pos_as_xyz
  x,y,z

loop_
_atom_site_label
_atom_site_type_symbol
_atom_site_fract_x
_atom_site_fract_y
_atom_site_fract_z
_atom_site_charge
Cd	Cd	0.23633 0.80077 0.88986 1.22600
Cd	Cd	0.14802 0.43842 0.59229 1.17600
Cd	Cd	0.76367 0.19923 0.11014 1.22600
Cd	Cd	0.85198 0.56158 0.40771 1.17600
H 	H 	0.28560 0.16710 0.14000 0.02300
H 	H 	0.71440 0.83290 0.86000 0.02300
C 	C 	0.28290 0.70300 0.15180 0.27300
C 	C 	0.27980 0.54370 0.09620 0.02100
C 	C 	0.28860 0.40080 0.15790 -0.17100
C 	C 	0.31130 0.38440 0.28270 0.40900
C 	C 	0.27630 0.26530 0.10200 0.04300
C 	C 	0.25000 0.27640 0.98890 -0.08700
C 	C 	0.23370 0.12450 0.93570 0.36800
C 	C 	0.24090 0.42330 0.93370 0.01000
C 	C 	0.19980 0.45490 0.81700 0.31000
C 	C 	0.71710 0.29700 0.84820 0.27300
C 	C 	0.72020 0.45630 0.90380 0.02100
C 	C 	0.71140 0.59920 0.84210 -0.17100
C 	C 	0.68870 0.61560 0.71730 0.40900
C 	C 	0.72370 0.73470 0.89800 0.04300
C 	C 	0.75000 0.72360 0.01110 -0.08700
C 	C 	0.76630 0.87550 0.06430 0.36800
C 	C 	0.75910 0.57670 0.06630 0.01000
C 	C 	0.80020 0.54510 0.18300 0.31000
N 	N 	0.26030 0.55210 0.98570 -0.18800
N 	N 	0.73970 0.44790 0.01430 -0.18800
O 	O 	0.27160 0.82510 0.08830 -0.34700
O 	O 	0.29160 0.70160 0.25780 -0.28600
O 	O 	0.16150 0.42480 0.38120 -0.58400
O 	O 	0.47130 0.32410 0.28250 -0.45600
O 	O 	0.08060 0.11280 0.98190 -0.47500
O 	O 	0.37780 0.00830 0.85750 -0.36500
O 	O 	0.16180 0.34600 0.77300 -0.42800
O 	O 	0.19880 0.58820 0.77140 -0.47200
O 	O 	0.72840 0.17490 0.91170 -0.34700
O 	O 	0.70840 0.29840 0.74220 -0.28600
O 	O 	0.83850 0.57520 0.61880 -0.58400
O 	O 	0.52870 0.67590 0.71750 -0.45600
O 	O 	0.91940 0.88720 0.01810 -0.47500
O 	O 	0.62220 0.99170 0.14250 -0.36500
O 	O 	0.83820 0.65400 0.22700 -0.42800
O 	O 	0.80120 0.41180 0.22860 -0.47200
