data_crystal

_cell_length_a 20.07000
_cell_length_b 20.07000
_cell_length_c 12.73300
_cell_angle_alpha 90.00000
_cell_angle_beta  90.00000
_cell_angle_gamma 90.00000

_symmetry_space_group_name_	'P 1'
_symmetry_space_group_name_H-M	'P 1'

loop_
_symmetry_equiv_pos_as_xyz
  x,y,z

loop_
_atom_site_label
_atom_site_type_symbol
_atom_site_fract_x
_atom_site_fract_y
_atom_site_fract_z
_atom_site_charge
Cd	Cd	0.10384 0.06904 0.40667 1.13900
N 	N 	0.14110 0.98670 0.29800 -0.23200
N 	N 	0.06870 0.13730 0.28160 -0.25000
C 	C 	0.19210 0.09420 0.49820 -0.33700
C 	C 	0.04640 0.17470 0.22560 -0.34700
C 	C 	0.02190 0.01370 0.47980 -0.40700
Cd	Cd	0.60384 0.56904 0.90667 1.14000
N 	N 	0.64110 0.48670 0.79800 -0.22700
N 	N 	0.56870 0.63730 0.78160 -0.24800
C 	C 	0.69210 0.59420 0.99820 -0.32800
C 	C 	0.54640 0.67470 0.72560 -0.31700
C 	C 	0.52190 0.51370 0.97980 -0.30200
Cd	Cd	0.39616 0.93096 0.90667 1.13800
N 	N 	0.35890 0.01330 0.79800 -0.22600
N 	N 	0.43130 0.86270 0.78160 -0.24900
C 	C 	0.30790 0.90580 0.99820 -0.33600
C 	C 	0.45360 0.82530 0.72560 -0.31900
C 	C 	0.47810 0.98630 0.97980 -0.31400
Cd	Cd	0.89616 0.43096 0.40667 1.14100
N 	N 	0.85890 0.51330 0.29800 -0.22500
N 	N 	0.93130 0.36270 0.28160 -0.24800
C 	C 	0.80790 0.40580 0.49820 -0.32300
C 	C 	0.95360 0.32530 0.22560 -0.27600
C 	C 	0.97810 0.48630 0.47980 -0.18400
Cd	Cd	0.68096 0.35384 0.65667 1.14100
N 	N 	0.76330 0.39110 0.54800 -0.22600
N 	N 	0.61270 0.31870 0.53160 -0.24700
C 	C 	0.65580 0.44210 0.74820 -0.32800
C 	C 	0.57530 0.29640 0.47560 -0.31600
C 	C 	0.73630 0.27190 0.72980 -0.29900
Cd	Cd	0.18096 0.85384 0.15667 1.13600
N 	N 	0.26330 0.89110 0.04800 -0.22900
N 	N 	0.11270 0.81870 0.03160 -0.25000
C 	C 	0.15580 0.94210 0.24820 -0.34400
C 	C 	0.07530 0.79640 0.97560 -0.34600
C 	C 	0.23630 0.77190 0.22980 -0.30900
Cd	Cd	0.81904 0.64616 0.15667 1.14300
N 	N 	0.73670 0.60890 0.04800 -0.22600
N 	N 	0.88730 0.68130 0.03160 -0.24800
C 	C 	0.84420 0.55790 0.24820 -0.31900
C 	C 	0.92470 0.70360 0.97560 -0.28000
C 	C 	0.76370 0.72810 0.22980 -0.29700
Cd	Cd	0.31904 0.14616 0.65667 1.13900
N 	N 	0.23670 0.10890 0.54800 -0.22800
N 	N 	0.38730 0.18130 0.53160 -0.24800
C 	C 	0.34420 0.05790 0.74820 -0.33200
C 	C 	0.42470 0.20360 0.47560 -0.31800
C 	C 	0.26370 0.22810 0.72980 -0.30500
Cd	Cd	0.89616 0.93096 0.59333 1.14000
N 	N 	0.85890 0.01330 0.70200 -0.22300
N 	N 	0.93130 0.86270 0.71840 -0.24900
C 	C 	0.80790 0.90580 0.50180 -0.32500
C 	C 	0.95360 0.82530 0.77440 -0.27800
C 	C 	0.97810 0.98630 0.52020 -0.19800
Cd	Cd	0.39616 0.43096 0.09333 1.13900
N 	N 	0.35890 0.51330 0.20200 -0.22800
N 	N 	0.43130 0.36270 0.21840 -0.24900
C 	C 	0.30790 0.40580 0.00180 -0.33500
C 	C 	0.45360 0.32530 0.27440 -0.31800
C 	C 	0.47810 0.48630 0.02020 -0.30400
Cd	Cd	0.60384 0.06904 0.09333 1.14000
N 	N 	0.64110 0.98670 0.20200 -0.22900
N 	N 	0.56870 0.13730 0.21840 -0.24700
C 	C 	0.69210 0.09420 0.00180 -0.32800
C 	C 	0.54640 0.17470 0.27440 -0.31600
C 	C 	0.52190 0.01370 0.02020 -0.29200
Cd	Cd	0.10384 0.56904 0.59333 1.13900
N 	N 	0.14110 0.48670 0.70200 -0.23000
N 	N 	0.06870 0.63730 0.71840 -0.25000
C 	C 	0.19210 0.59420 0.50180 -0.33900
C 	C 	0.04640 0.67470 0.77440 -0.34800
C 	C 	0.02190 0.51370 0.52020 -0.42100
Cd	Cd	0.31904 0.64616 0.34333 1.13900
N 	N 	0.23670 0.60890 0.45200 -0.22900
N 	N 	0.38730 0.68130 0.46840 -0.24900
C 	C 	0.34420 0.55790 0.25180 -0.33400
C 	C 	0.42470 0.70360 0.52440 -0.31900
C 	C 	0.26370 0.72810 0.27020 -0.30600
Cd	Cd	0.81904 0.14616 0.84333 1.14300
N 	N 	0.73670 0.10890 0.95200 -0.22400
N 	N 	0.88730 0.18130 0.96840 -0.24700
C 	C 	0.84420 0.05790 0.75180 -0.31700
C 	C 	0.92470 0.20360 0.02440 -0.28000
C 	C 	0.76370 0.22810 0.77020 -0.29600
Cd	Cd	0.18096 0.35384 0.84333 1.13700
N 	N 	0.26330 0.39110 0.95200 -0.22900
N 	N 	0.11270 0.31870 0.96840 -0.24900
C 	C 	0.15580 0.44210 0.75180 -0.34200
C 	C 	0.07530 0.29640 0.02440 -0.34600
C 	C 	0.23630 0.27190 0.77020 -0.30800
Cd	Cd	0.68096 0.85384 0.34333 1.14000
N 	N 	0.76330 0.89110 0.45200 -0.22700
N 	N 	0.61270 0.81870 0.46840 -0.24800
C 	C 	0.65580 0.94210 0.25180 -0.33000
C 	C 	0.57530 0.79640 0.52440 -0.31800
C 	C 	0.73630 0.77190 0.27020 -0.30000
Cd	Cd	0.00000 0.25000 0.12500 1.13000
Cd	Cd	0.50000 0.75000 0.62500 1.15000
Cd	Cd	0.50000 0.25000 0.37500 1.15100
Cd	Cd	0.00000 0.75000 0.87500 1.13000
