data_crystal

_cell_length_a 12.91970
_cell_length_b 12.91970
_cell_length_c 9.84910
_cell_angle_alpha 90.00000
_cell_angle_beta  90.00000
_cell_angle_gamma 90.00000

_symmetry_space_group_name_	'P 1'
_symmetry_space_group_name_H-M	'P 1'

loop_
_symmetry_equiv_pos_as_xyz
  x,y,z

loop_
_atom_site_label
_atom_site_type_symbol
_atom_site_fract_x
_atom_site_fract_y
_atom_site_fract_z
_atom_site_charge
O 	O 	0.60990 0.88890 0.93070 -0.09100
P 	P 	0.63710 0.86630 0.77870 0.26200
Co	Co	0.86409 0.94522 0.63135 1.13400
P 	P 	0.82401 0.92776 0.31620 0.48500
O 	O 	0.78830 0.91370 0.46310 -0.41000
O 	O 	0.84490 0.04170 0.28500 -0.41600
O 	O 	0.91860 0.86060 0.28520 -0.42000
O 	O 	0.74480 0.88920 0.75180 -0.33000
O 	O 	0.73460 0.89490 0.21980 -0.12200
O 	O 	0.56300 0.94000 0.80100 -0.09100
O 	O 	0.39010 0.11110 0.93070 -0.09100
P 	P 	0.36290 0.13370 0.77870 0.26200
Co	Co	0.13591 0.05478 0.63135 1.13400
P 	P 	0.17599 0.07224 0.31620 0.48500
O 	O 	0.21170 0.08630 0.46310 -0.41000
O 	O 	0.15510 0.95830 0.28500 -0.41600
O 	O 	0.08140 0.13940 0.28520 -0.42000
O 	O 	0.25520 0.11080 0.75180 -0.33000
O 	O 	0.26540 0.10510 0.21980 -0.12200
O 	O 	0.43700 0.06000 0.80100 -0.09100
O 	O 	0.88890 0.39010 0.06930 -0.09100
P 	P 	0.86630 0.36290 0.22130 0.26200
Co	Co	0.94522 0.13591 0.36865 1.13400
P 	P 	0.92776 0.17599 0.68380 0.48500
O 	O 	0.91370 0.21170 0.53690 -0.41000
O 	O 	0.04170 0.15510 0.71500 -0.41600
O 	O 	0.86060 0.08140 0.71480 -0.42000
O 	O 	0.88920 0.25520 0.24820 -0.33000
O 	O 	0.89490 0.26540 0.78020 -0.12200
O 	O 	0.94000 0.43700 0.19900 -0.09100
O 	O 	0.11110 0.60990 0.06930 -0.09100
P 	P 	0.13370 0.63710 0.22130 0.26200
Co	Co	0.05478 0.86409 0.36865 1.13400
P 	P 	0.07224 0.82401 0.68380 0.48500
O 	O 	0.08630 0.78830 0.53690 -0.41000
O 	O 	0.95830 0.84490 0.71500 -0.41600
O 	O 	0.13940 0.91860 0.71480 -0.42000
O 	O 	0.11080 0.74480 0.24820 -0.33000
O 	O 	0.10510 0.73460 0.78020 -0.12200
O 	O 	0.06000 0.56300 0.19900 -0.09100
O 	O 	0.10990 0.61110 0.43070 -0.09100
P 	P 	0.13710 0.63370 0.27870 0.26200
Co	Co	0.36409 0.55478 0.13135 1.13400
P 	P 	0.32401 0.57224 0.81620 0.48500
O 	O 	0.28830 0.58630 0.96310 -0.41100
O 	O 	0.34490 0.45830 0.78500 -0.41600
O 	O 	0.41860 0.63940 0.78520 -0.42100
O 	O 	0.24480 0.61080 0.25180 -0.33000
O 	O 	0.23460 0.60510 0.71980 -0.12200
O 	O 	0.06300 0.56000 0.30100 -0.09100
O 	O 	0.89010 0.38890 0.43070 -0.09100
P 	P 	0.86290 0.36630 0.27870 0.26200
Co	Co	0.63591 0.44522 0.13135 1.13400
P 	P 	0.67599 0.42776 0.81620 0.48500
O 	O 	0.71170 0.41370 0.96310 -0.41100
O 	O 	0.65510 0.54170 0.78500 -0.41600
O 	O 	0.58140 0.36060 0.78520 -0.42100
O 	O 	0.75520 0.38920 0.25180 -0.33000
O 	O 	0.76540 0.39490 0.71980 -0.12200
O 	O 	0.93700 0.44000 0.30100 -0.09100
O 	O 	0.38890 0.10990 0.56930 -0.09100
P 	P 	0.36630 0.13710 0.72130 0.26200
Co	Co	0.44522 0.36409 0.86865 1.13400
P 	P 	0.42776 0.32401 0.18380 0.48500
O 	O 	0.41370 0.28830 0.03690 -0.41100
O 	O 	0.54170 0.34490 0.21500 -0.41600
O 	O 	0.36060 0.41860 0.21480 -0.42100
O 	O 	0.38920 0.24480 0.74820 -0.33000
O 	O 	0.39490 0.23460 0.28020 -0.12200
O 	O 	0.44000 0.06300 0.69900 -0.09100
O 	O 	0.61110 0.89010 0.56930 -0.09100
P 	P 	0.63370 0.86290 0.72130 0.26200
Co	Co	0.55478 0.63591 0.86865 1.13400
P 	P 	0.57224 0.67599 0.18380 0.48500
O 	O 	0.58630 0.71170 0.03690 -0.41100
O 	O 	0.45830 0.65510 0.21500 -0.41600
O 	O 	0.63940 0.58140 0.21480 -0.42100
O 	O 	0.61080 0.75520 0.74820 -0.33000
O 	O 	0.60510 0.76540 0.28020 -0.12200
O 	O 	0.56000 0.93700 0.69900 -0.09100
