data_crystal

_cell_length_a 17.61210
_cell_length_b 36.85500
_cell_length_c 10.06080
_cell_angle_alpha 90.00000
_cell_angle_beta  92.54800
_cell_angle_gamma 90.00000

_symmetry_space_group_name_	'P 1'
_symmetry_space_group_name_H-M	'P 1'

loop_
_symmetry_equiv_pos_as_xyz
  x,y,z

loop_
_atom_site_label
_atom_site_type_symbol
_atom_site_fract_x
_atom_site_fract_y
_atom_site_fract_z
_atom_site_charge
Pb	Pb	0.64162 0.21566 0.08070 1.26400
O 	O 	0.59700 0.16240 0.30400 -0.20700
O 	O 	0.56100 0.23700 0.44400 -0.36400
O 	O 	0.56500 0.23280 0.24600 -0.42200
O 	O 	0.76600 0.09170 0.17500 -0.12000
O 	O 	0.87600 0.01530 0.23900 -0.23800
O 	O 	0.76400 0.01990 0.13200 -0.20900
O 	O 	0.68500 0.15760 0.86800 -0.20200
O 	O 	0.71000 0.23220 0.64700 -0.41400
O 	O 	0.70600 0.22910 0.86800 -0.39100
O 	O 	0.51300 0.08320 0.01900 -0.11700
O 	O 	0.38100 0.01040 0.00900 -0.21300
O 	O 	0.48300 0.01590 0.12900 -0.22300
C 	C 	0.60110 0.12540 0.33400 0.03900
C 	C 	0.53660 0.10370 0.32200 0.06200
C 	C 	0.53680 0.06940 0.37900 -0.10500
H 	H 	0.49270 0.05460 0.37080 0.08200
C 	C 	0.60130 0.05680 0.44900 0.03800
H 	H 	0.60140 0.03340 0.48830 0.02600
C 	C 	0.66580 0.07850 0.46140 -0.11500
H 	H 	0.71000 0.06990 0.50910 0.07200
C 	C 	0.66570 0.11280 0.40390 0.07500
C 	C 	0.77840 0.12930 0.18200 0.00300
C 	C 	0.76670 0.15040 0.29300 0.07500
C 	C 	0.78790 0.18670 0.29500 -0.16500
H 	H 	0.77990 0.20110 0.37170 0.08800
C 	C 	0.82080 0.20200 0.18500 0.01100
H 	H 	0.83520 0.22680 0.18660 0.02700
C 	C 	0.83250 0.18090 0.07400 -0.14900
H 	H 	0.85490 0.19140 0.99840 0.08200
C 	C 	0.81130 0.14460 0.07200 0.06300
C 	C 	0.68790 0.12030 0.85640 0.04800
C 	C 	0.75680 0.06380 0.86200 -0.09600
H 	H 	0.80250 0.05070 0.87990 0.08400
C 	C 	0.75490 0.10110 0.88200 0.05800
C 	C 	0.69160 0.04570 0.81600 0.03900
H 	H 	0.69290 0.02020 0.80190 0.04400
C 	C 	0.62460 0.06490 0.79000 -0.09700
H 	H 	0.58010 0.05250 0.75820 0.08100
C 	C 	0.62280 0.10220 0.81010 0.06000
C 	C 	0.50050 0.12230 0.01900 0.00900
C 	C 	0.50940 0.14110 0.90100 0.05700
C 	C 	0.48810 0.17730 0.89100 -0.13400
H 	H 	0.49420 0.19020 0.81060 0.07500
C 	C 	0.45800 0.19480 -0.00000 -0.01800
H 	H 	0.44350 0.21960 0.99280 0.03900
C 	C 	0.44920 0.17600 0.11800 -0.11900
H 	H 	0.42860 0.18790 0.19160 0.06800
C 	C 	0.47040 0.13970 0.12700 0.05500
C 	C 	0.73800 0.13300 0.41500 -0.21500
H 	H 	0.77720 0.11570 0.44940 0.09200
H 	H 	0.73230 0.15180 0.48290 0.08900
C 	C 	0.82600 0.12300 0.94000 -0.17800
H 	H 	0.86880 0.10610 0.95800 0.09100
H 	H 	0.84220 0.14060 0.87190 0.08100
C 	C 	0.54700 0.12210 0.78100 -0.18600
H 	H 	0.51030 0.10440 0.74190 0.08700
H 	H 	0.55560 0.14070 0.71260 0.08200
C 	C 	0.45600 0.11800 0.26200 -0.18100
H 	H 	0.42140 0.09730 0.24320 0.09300
H 	H 	0.43230 0.13420 0.32670 0.08100
C 	C 	0.57700 0.18310 0.41700 -0.22400
H 	H 	0.62090 0.18790 0.47810 0.10700
H 	H 	0.53570 0.17140 0.46580 0.09700
C 	C 	0.55000 0.21560 0.34900 0.39800
C 	C 	0.82300 0.07070 0.23800 -0.18300
H 	H 	0.82080 0.07390 0.33530 0.09600
H 	H 	0.87310 0.07970 0.21110 0.10200
C 	C 	0.81700 0.03240 0.20600 0.33600
C 	C 	0.71000 0.17560 0.74100 -0.23200
H 	H 	0.76380 0.16920 0.72620 0.10300
H 	H 	0.67850 0.16700 0.66380 0.09800
C 	C 	0.70300 0.21530 0.75400 0.39800
C 	C 	0.45100 0.06380 0.97600 -0.17700
H 	H 	0.45290 0.06050 0.87900 0.10500
H 	H 	0.40510 0.07850 0.99250 0.09800
C 	C 	0.44100 0.02830 0.03600 0.33500
Pb	Pb	0.64162 0.28434 0.58070 1.26400
O 	O 	0.59700 0.33760 0.80400 -0.20600
O 	O 	0.56100 0.26300 0.94400 -0.36200
O 	O 	0.56500 0.26720 0.74600 -0.42100
O 	O 	0.76600 0.40830 0.67500 -0.12000
O 	O 	0.87600 0.48470 0.73900 -0.23800
O 	O 	0.76400 0.48010 0.63200 -0.20900
O 	O 	0.68500 0.34240 0.36800 -0.20300
O 	O 	0.71000 0.26780 0.14700 -0.41600
O 	O 	0.70600 0.27090 0.36800 -0.39300
O 	O 	0.51300 0.41680 0.51900 -0.11500
O 	O 	0.38100 0.48960 0.50900 -0.21400
O 	O 	0.48300 0.48410 0.62900 -0.22400
C 	C 	0.60110 0.37460 0.83400 0.04000
C 	C 	0.53660 0.39630 0.82200 0.06200
C 	C 	0.53680 0.43060 0.87900 -0.10400
H 	H 	0.49270 0.44540 0.87080 0.08200
C 	C 	0.60130 0.44320 0.94900 0.03600
H 	H 	0.60140 0.46660 0.98830 0.02700
C 	C 	0.66580 0.42150 0.96140 -0.11000
H 	H 	0.71000 0.43010 0.00910 0.06900
C 	C 	0.66570 0.38720 0.90390 0.07400
C 	C 	0.77840 0.37070 0.68200 0.00400
C 	C 	0.76670 0.34960 0.79300 0.07400
C 	C 	0.78790 0.31330 0.79500 -0.16200
H 	H 	0.77990 0.29890 0.87170 0.08800
C 	C 	0.82080 0.29800 0.68500 0.00700
H 	H 	0.83520 0.27320 0.68660 0.02900
C 	C 	0.83250 0.31910 0.57400 -0.14000
H 	H 	0.85490 0.30860 0.49840 0.07700
C 	C 	0.81130 0.35540 0.57200 0.06300
C 	C 	0.68790 0.37970 0.35640 0.04700
C 	C 	0.75680 0.43620 0.36200 -0.09700
H 	H 	0.80250 0.44930 0.37990 0.08400
C 	C 	0.75490 0.39890 0.38200 0.05700
C 	C 	0.69160 0.45430 0.31600 0.03900
H 	H 	0.69290 0.47980 0.30190 0.04500
C 	C 	0.62460 0.43510 0.29000 -0.09800
H 	H 	0.58010 0.44750 0.25820 0.08100
C 	C 	0.62280 0.39780 0.31010 0.06000
C 	C 	0.50050 0.37770 0.51900 0.00900
C 	C 	0.50940 0.35890 0.40100 0.05900
C 	C 	0.48810 0.32270 0.39100 -0.14500
H 	H 	0.49420 0.30980 0.31060 0.07800
C 	C 	0.45800 0.30520 0.50000 -0.00100
H 	H 	0.44350 0.28040 0.49280 0.03100
C 	C 	0.44920 0.32400 0.61800 -0.12700
H 	H 	0.42860 0.31210 0.69160 0.07200
C 	C 	0.47040 0.36030 0.62700 0.05900
C 	C 	0.73800 0.36700 0.91500 -0.21400
H 	H 	0.77720 0.38430 0.94940 0.09200
H 	H 	0.73230 0.34820 0.98290 0.09000
C 	C 	0.82600 0.37700 0.44000 -0.18000
H 	H 	0.86880 0.39390 0.45800 0.09100
H 	H 	0.84220 0.35940 0.37190 0.08100
C 	C 	0.54700 0.37790 0.28100 -0.18700
H 	H 	0.51030 0.39560 0.24190 0.08700
H 	H 	0.55560 0.35930 0.21260 0.08100
C 	C 	0.45600 0.38200 0.76200 -0.18200
H 	H 	0.42140 0.40270 0.74320 0.09300
H 	H 	0.43230 0.36580 0.82670 0.08200
C 	C 	0.57700 0.31690 0.91700 -0.22500
H 	H 	0.62090 0.31210 0.97810 0.10800
H 	H 	0.53570 0.32860 0.96580 0.09800
C 	C 	0.55000 0.28440 0.84900 0.39800
C 	C 	0.82300 0.42930 0.73800 -0.18300
H 	H 	0.82080 0.42610 0.83530 0.09600
H 	H 	0.87310 0.42030 0.71110 0.10300
C 	C 	0.81700 0.46760 0.70600 0.33600
C 	C 	0.71000 0.32440 0.24100 -0.23200
H 	H 	0.76380 0.33080 0.22620 0.10200
H 	H 	0.67850 0.33300 0.16380 0.09700
C 	C 	0.70300 0.28470 0.25400 0.39800
C 	C 	0.45100 0.43620 0.47600 -0.18000
H 	H 	0.45290 0.43950 0.37900 0.10600
H 	H 	0.40510 0.42150 0.49250 0.09900
C 	C 	0.44100 0.47170 0.53600 0.33700
Pb	Pb	0.35838 0.71566 0.41930 1.26400
O 	O 	0.40300 0.66240 0.19600 -0.20600
O 	O 	0.43900 0.73700 0.05600 -0.36200
O 	O 	0.43500 0.73280 0.25400 -0.42100
O 	O 	0.23400 0.59170 0.32500 -0.12000
O 	O 	0.12400 0.51530 0.26100 -0.23800
O 	O 	0.23600 0.51990 0.36800 -0.20900
O 	O 	0.31500 0.65760 0.63200 -0.20300
O 	O 	0.29000 0.73220 0.85300 -0.41600
O 	O 	0.29400 0.72910 0.63200 -0.39300
O 	O 	0.48700 0.58320 0.48100 -0.11500
O 	O 	0.61900 0.51040 0.49100 -0.21400
O 	O 	0.51700 0.51590 0.37100 -0.22400
C 	C 	0.39890 0.62540 0.16600 0.04000
C 	C 	0.46340 0.60370 0.17800 0.06100
C 	C 	0.46320 0.56940 0.12100 -0.10300
H 	H 	0.50730 0.55460 0.12920 0.08200
C 	C 	0.39870 0.55680 0.05100 0.03500
H 	H 	0.39860 0.53340 0.01170 0.02800
C 	C 	0.33420 0.57850 0.03860 -0.10900
H 	H 	0.29000 0.56990 0.99090 0.06800
C 	C 	0.33430 0.61280 0.09610 0.07300
C 	C 	0.22160 0.62930 0.31800 0.00400
C 	C 	0.23330 0.65040 0.20700 0.07400
C 	C 	0.21210 0.68670 0.20500 -0.16200
H 	H 	0.22010 0.70110 0.12830 0.08800
C 	C 	0.17920 0.70200 0.31500 0.00700
H 	H 	0.16480 0.72680 0.31340 0.02900
C 	C 	0.16750 0.68090 0.42600 -0.14000
H 	H 	0.14510 0.69140 0.50160 0.07700
C 	C 	0.18870 0.64460 0.42800 0.06300
C 	C 	0.31210 0.62030 0.64360 0.04700
C 	C 	0.24320 0.56380 0.63800 -0.09700
H 	H 	0.19750 0.55070 0.62010 0.08400
C 	C 	0.24510 0.60110 0.61800 0.05700
C 	C 	0.30840 0.54570 0.68400 0.03900
H 	H 	0.30710 0.52020 0.69810 0.04500
C 	C 	0.37540 0.56490 0.71000 -0.09800
H 	H 	0.41990 0.55250 0.74180 0.08000
C 	C 	0.37720 0.60220 0.68990 0.06000
C 	C 	0.49950 0.62230 0.48100 0.00900
C 	C 	0.49060 0.64110 0.59900 0.05900
C 	C 	0.51190 0.67730 0.60900 -0.14500
H 	H 	0.50580 0.69020 0.68940 0.07800
C 	C 	0.54200 0.69480 0.50000 -0.00100
H 	H 	0.55650 0.71960 0.50720 0.03100
C 	C 	0.55080 0.67600 0.38200 -0.12700
H 	H 	0.57140 0.68790 0.30840 0.07200
C 	C 	0.52960 0.63970 0.37300 0.05900
C 	C 	0.26200 0.63300 0.08500 -0.21400
H 	H 	0.22280 0.61570 0.05060 0.09200
H 	H 	0.26770 0.65180 0.01710 0.09000
C 	C 	0.17400 0.62300 0.56000 -0.18000
H 	H 	0.13120 0.60610 0.54200 0.09000
H 	H 	0.15780 0.64060 0.62810 0.08100
C 	C 	0.45300 0.62210 0.71900 -0.18700
H 	H 	0.48970 0.60440 0.75810 0.08700
H 	H 	0.44440 0.64070 0.78740 0.08100
C 	C 	0.54400 0.61800 0.23800 -0.18200
H 	H 	0.57860 0.59730 0.25680 0.09300
H 	H 	0.56770 0.63420 0.17330 0.08200
C 	C 	0.42300 0.68310 0.08300 -0.22500
H 	H 	0.37910 0.68790 0.02190 0.10900
H 	H 	0.46430 0.67140 0.03420 0.09800
C 	C 	0.45000 0.71560 0.15100 0.39800
C 	C 	0.17700 0.57070 0.26200 -0.18300
H 	H 	0.17920 0.57390 0.16470 0.09600
H 	H 	0.12690 0.57970 0.28890 0.10300
C 	C 	0.18300 0.53240 0.29400 0.33600
C 	C 	0.29000 0.67560 0.75900 -0.23200
H 	H 	0.23620 0.66920 0.77380 0.10200
H 	H 	0.32150 0.66700 0.83620 0.09700
C 	C 	0.29700 0.71530 0.74600 0.39800
C 	C 	0.54900 0.56380 0.52400 -0.18000
H 	H 	0.54710 0.56050 0.62100 0.10600
H 	H 	0.59490 0.57850 0.50750 0.09900
C 	C 	0.55900 0.52830 0.46400 0.33700
Pb	Pb	0.35838 0.78434 0.91930 1.26200
O 	O 	0.40300 0.83760 0.69600 -0.20600
O 	O 	0.43900 0.76300 0.55600 -0.36400
O 	O 	0.43500 0.76720 0.75400 -0.42200
O 	O 	0.23400 0.90830 0.82500 -0.12100
O 	O 	0.12400 0.98470 0.76100 -0.23800
O 	O 	0.23600 0.98010 0.86800 -0.20900
O 	O 	0.31500 0.84240 0.13200 -0.20200
O 	O 	0.29000 0.76780 0.35300 -0.41400
O 	O 	0.29400 0.77090 0.13200 -0.39100
O 	O 	0.48700 0.91680 0.98100 -0.11600
O 	O 	0.61900 0.98960 0.99100 -0.21300
O 	O 	0.51700 0.98410 0.87100 -0.22300
C 	C 	0.39890 0.87460 0.66600 0.03800
C 	C 	0.46340 0.89630 0.67800 0.06300
C 	C 	0.46320 0.93060 0.62100 -0.10600
H 	H 	0.50730 0.94540 0.62920 0.08200
C 	C 	0.39870 0.94320 0.55100 0.03800
H 	H 	0.39860 0.96660 0.51170 0.02600
C 	C 	0.33420 0.92150 0.53860 -0.11500
H 	H 	0.29000 0.93010 0.49090 0.07200
C 	C 	0.33430 0.88720 0.59610 0.07500
C 	C 	0.22160 0.87070 0.81800 0.00300
C 	C 	0.23330 0.84960 0.70700 0.07600
C 	C 	0.21210 0.81330 0.70500 -0.16600
H 	H 	0.22010 0.79890 0.62830 0.08900
C 	C 	0.17920 0.79800 0.81500 0.01200
H 	H 	0.16480 0.77320 0.81340 0.02600
C 	C 	0.16750 0.81910 0.92600 -0.15000
H 	H 	0.14510 0.80860 0.00160 0.08200
C 	C 	0.18870 0.85540 0.92800 0.06300
C 	C 	0.31210 0.87970 0.14360 0.04700
C 	C 	0.24320 0.93620 0.13800 -0.09700
H 	H 	0.19750 0.94930 0.12010 0.08400
C 	C 	0.24510 0.89890 0.11800 0.05800
C 	C 	0.30840 0.95430 0.18400 0.04000
H 	H 	0.30710 0.97980 0.19810 0.04400
C 	C 	0.37540 0.93510 0.21000 -0.09800
H 	H 	0.41990 0.94750 0.24180 0.08100
C 	C 	0.37720 0.89780 0.18990 0.06200
C 	C 	0.49950 0.87770 0.98100 0.00200
C 	C 	0.49060 0.85890 0.09900 0.06600
C 	C 	0.51190 0.82270 0.10900 -0.15200
H 	H 	0.50580 0.80980 0.18940 0.08100
C 	C 	0.54200 0.80520 -0.00000 0.01000
H 	H 	0.55650 0.78040 0.00720 0.02800
C 	C 	0.55080 0.82400 0.88200 -0.13800
H 	H 	0.57140 0.81210 0.80840 0.07400
C 	C 	0.52960 0.86030 0.87300 0.06400
C 	C 	0.26200 0.86700 0.58500 -0.21600
H 	H 	0.22280 0.88430 0.55060 0.09200
H 	H 	0.26770 0.84820 0.51710 0.08900
C 	C 	0.17400 0.87700 0.06000 -0.17800
H 	H 	0.13120 0.89390 0.04200 0.09100
H 	H 	0.15780 0.85940 0.12810 0.08100
C 	C 	0.45300 0.87790 0.21900 -0.19100
H 	H 	0.48970 0.89560 0.25810 0.08800
H 	H 	0.44440 0.85930 0.28740 0.08300
C 	C 	0.54400 0.88200 0.73800 -0.18500
H 	H 	0.57860 0.90270 0.75680 0.09400
H 	H 	0.56770 0.86580 0.67330 0.08200
C 	C 	0.42300 0.81690 0.58300 -0.22400
H 	H 	0.37910 0.81210 0.52190 0.10700
H 	H 	0.46430 0.82860 0.53420 0.09700
C 	C 	0.45000 0.78440 0.65100 0.39800
C 	C 	0.17700 0.92930 0.76200 -0.18300
H 	H 	0.17920 0.92610 0.66470 0.09600
H 	H 	0.12690 0.92030 0.78890 0.10200
C 	C 	0.18300 0.96760 0.79400 0.33600
C 	C 	0.29000 0.82440 0.25900 -0.23200
H 	H 	0.23620 0.83080 0.27380 0.10300
H 	H 	0.32150 0.83300 0.33620 0.09800
C 	C 	0.29700 0.78470 0.24600 0.39800
C 	C 	0.54900 0.93620 0.02400 -0.17600
H 	H 	0.54710 0.93950 0.12100 0.10500
H 	H 	0.59490 0.92150 0.00750 0.09800
C 	C 	0.55900 0.97170 0.96400 0.33500
