data_crystal

_cell_length_a 15.02900
_cell_length_b 19.22060
_cell_length_c 21.38620
_cell_angle_alpha 90.00000
_cell_angle_beta  118.36300
_cell_angle_gamma 90.00000

_symmetry_space_group_name_	'P 1'
_symmetry_space_group_name_H-M	'P 1'

loop_
_symmetry_equiv_pos_as_xyz
  x,y,z

loop_
_atom_site_label
_atom_site_type_symbol
_atom_site_fract_x
_atom_site_fract_y
_atom_site_fract_z
_atom_site_charge
Zn	Zn	0.78771 0.93170 0.86787 1.23600
Zn	Zn	0.95700 0.87430 0.42457 1.16500
Zn	Zn	0.75019 0.78062 0.39652 1.18500
Co	Co	0.24228 0.82004 0.80418 1.16800
O 	O 	0.16030 0.01979 0.78756 -0.23000
O 	O 	0.64620 0.00491 0.78768 -0.33100
O 	O 	0.64427 0.90253 0.83128 -0.44300
O 	O 	0.14170 0.99483 0.06418 -0.43500
O 	O 	0.84360 0.92589 0.80180 -0.44300
O 	O 	0.84510 0.83788 0.91950 -0.52100
O 	O 	0.24900 0.01165 0.02188 -0.30500
O 	O 	0.17880 0.07945 0.63137 -0.53600
O 	O 	0.31830 0.12969 0.64344 -0.51200
O 	O 	0.73060 0.85960 0.71756 -0.29700
O 	O 	0.80800 0.81307 0.50253 -0.46100
O 	O 	0.94330 0.87257 0.51531 -0.50100
O 	O 	0.25640 0.70655 0.96574 -0.22000
O 	O 	0.89042 0.73448 0.90198 -0.59200
O 	O 	0.22640 0.80879 0.61265 -0.21800
N 	N 	0.34270 0.88688 0.86414 -0.25100
N 	N 	0.15560 0.90073 0.77668 -0.28300
N 	N 	0.33460 0.74144 0.83746 -0.25400
N 	N 	0.21430 0.79098 0.88059 -0.27400
N 	N 	0.14290 0.75760 0.73440 -0.25300
N 	N 	0.27210 0.83920 0.72723 -0.27500
C 	C 	0.44080 0.87430 0.90793 0.07500
H 	H 	0.46220 0.82860 0.92040 -0.00900
C 	C 	0.51070 0.92720 0.93500 -0.11900
H 	H 	0.57850 0.91730 0.96510 0.08300
C 	C 	0.47910 0.99460 0.91710 0.02700
H 	H 	0.52570 0.03080 0.93310 0.03500
C 	C 	0.37750 0.00850 0.87510 -0.07900
H 	H 	0.35440 0.05400 0.86440 0.07000
C 	C 	0.31100 0.95312 0.84932 0.01800
C 	C 	0.20000 0.96133 0.80107 0.17300
C 	C 	0.05000 0.89727 0.72957 0.10300
C 	C 	0.01440 0.88332 0.65825 -0.09200
H 	H 	0.05930 0.88400 0.63980 0.06400
C 	C 	0.91370 0.86834 0.61375 -0.07100
C 	C 	0.84610 0.86919 0.64113 -0.00700
H 	H 	0.77890 0.85660 0.61260 0.05100
C 	C 	0.87970 0.88906 0.71164 -0.04800
C 	C 	0.98130 0.90328 0.75516 -0.10400
H 	H 	0.00350 0.91700 0.80200 0.09300
C 	C 	0.88450 0.84973 0.53709 0.39300
C 	C 	0.81040 0.89140 0.74463 0.34000
C 	C 	0.39830 0.72014 0.81350 0.08700
H 	H 	0.39780 0.74340 0.77520 -0.00900
C 	C 	0.46340 0.66590 0.84300 -0.15100
H 	H 	0.50730 0.65290 0.82580 0.08500
C 	C 	0.46270 0.63080 0.89880 0.05400
H 	H 	0.50710 0.59410 0.92050 0.01700
C 	C 	0.39540 0.65080 0.92230 -0.10700
H 	H 	0.39240 0.62670 0.95890 0.08200
C 	C 	0.33330 0.70656 0.89120 0.03000
C 	C 	0.26260 0.73499 0.91531 0.15500
C 	C 	0.15340 0.82519 0.90670 0.08300
C 	C 	0.18840 0.88549 0.94624 -0.08000
H 	H 	0.24890 0.90500 0.95290 0.07500
C 	C 	0.13450 0.91732 0.97629 -0.04800
C 	C 	0.04320 0.88925 0.96494 0.01000
H 	H 	0.00640 0.91060 0.98430 0.04000
C 	C 	0.00660 0.82906 0.92448 -0.12000
C 	C 	0.06150 0.79709 0.89582 -0.04300
H 	H 	0.03710 0.75660 0.86920 0.02100
C 	C 	0.90870 0.79929 0.91460 0.38000
C 	C 	0.07210 0.72000 0.73990 0.09400
H 	H 	0.06830 0.72170 0.78210 -0.02300
C 	C 	0.00470 0.67900 0.68540 -0.13700
H 	H 	0.95540 0.65410 0.69040 0.08100
C 	C 	0.01100 0.67490 0.62320 0.05300
H 	H 	0.96590 0.64750 0.58570 0.02000
C 	C 	0.08490 0.71210 0.61770 -0.10200
H 	H 	0.09190 0.70930 0.57680 0.07800
C 	C 	0.14800 0.75328 0.67329 0.03000
C 	C 	0.22070 0.80313 0.66856 0.16100
C 	C 	0.32860 0.89770 0.72327 0.09000
C 	C 	0.43290 0.89633 0.75659 -0.07300
H 	H 	0.46760 0.85650 0.78030 0.06300
C 	C 	0.48540 0.95458 0.75452 -0.05100
C 	C 	0.43340 0.01377 0.71900 0.01600
H 	H 	0.46890 0.05270 0.71750 0.04800
C 	C 	0.27700 0.95674 0.68767 -0.05500
H 	H 	0.20670 0.95710 0.66480 0.05500
C 	C 	0.59910 0.95498 0.79275 0.31400
C 	C 	0.32910 0.01531 0.68584 -0.09600
C 	C 	0.27050 0.07970 0.65023 0.42600
C 	C 	0.17900 0.97982 0.02350 0.32600
Zn	Zn	0.21229 0.43170 0.63213 1.23700
Zn	Zn	0.04300 0.37430 0.07543 1.16400
Zn	Zn	0.24981 0.28062 0.10348 1.18400
Co	Co	0.75772 0.32004 0.69582 1.16800
O 	O 	0.83970 0.51979 0.71244 -0.23000
O 	O 	0.35380 0.50491 0.71232 -0.33300
O 	O 	0.35573 0.40253 0.66872 -0.44300
O 	O 	0.85830 0.49483 0.43582 -0.43500
O 	O 	0.15640 0.42589 0.69820 -0.44200
O 	O 	0.15490 0.33788 0.58050 -0.52100
O 	O 	0.75100 0.51165 0.47812 -0.30000
O 	O 	0.82120 0.57945 0.86863 -0.53700
O 	O 	0.68170 0.62969 0.85656 -0.51300
O 	O 	0.26940 0.35960 0.78244 -0.29700
O 	O 	0.19200 0.31307 0.99747 -0.46000
O 	O 	0.05670 0.37257 0.98469 -0.49800
O 	O 	0.74360 0.20655 0.53426 -0.21900
O 	O 	0.10958 0.23448 0.59802 -0.59200
O 	O 	0.77360 0.30879 0.88735 -0.21800
N 	N 	0.65730 0.38688 0.63586 -0.25300
N 	N 	0.84440 0.40073 0.72332 -0.28100
N 	N 	0.66540 0.24144 0.66254 -0.25400
N 	N 	0.78570 0.29098 0.61941 -0.27400
N 	N 	0.85710 0.25760 0.76560 -0.25300
N 	N 	0.72790 0.33920 0.77277 -0.27500
C 	C 	0.55920 0.37430 0.59207 0.08000
H 	H 	0.53780 0.32860 0.57960 -0.01000
C 	C 	0.48930 0.42720 0.56500 -0.12800
H 	H 	0.42150 0.41730 0.53490 0.08700
C 	C 	0.52090 0.49460 0.58290 0.04200
H 	H 	0.47430 0.53080 0.56690 0.02900
C 	C 	0.62250 0.50850 0.62490 -0.09100
H 	H 	0.64560 0.55400 0.63560 0.07400
C 	C 	0.68900 0.45312 0.65068 0.02400
C 	C 	0.80000 0.46133 0.69893 0.17200
C 	C 	0.95000 0.39727 0.77043 0.09500
C 	C 	0.98560 0.38332 0.84175 -0.09300
H 	H 	0.94070 0.38400 0.86020 0.06400
C 	C 	0.08630 0.36834 0.88625 -0.06800
C 	C 	0.15390 0.36919 0.85887 -0.00500
H 	H 	0.22110 0.35660 0.88740 0.05000
C 	C 	0.12030 0.38906 0.78836 -0.05300
C 	C 	0.01870 0.40328 0.74484 -0.08800
H 	H 	0.99650 0.41700 0.69800 0.08500
C 	C 	0.11550 0.34973 0.96291 0.39200
C 	C 	0.18960 0.39140 0.75537 0.34200
C 	C 	0.60170 0.22014 0.68650 0.08700
H 	H 	0.60220 0.24340 0.72480 -0.00900
C 	C 	0.53660 0.16590 0.65700 -0.15100
H 	H 	0.49270 0.15290 0.67420 0.08500
C 	C 	0.53730 0.13080 0.60120 0.05500
H 	H 	0.49290 0.09410 0.57950 0.01800
C 	C 	0.60460 0.15080 0.57770 -0.10700
H 	H 	0.60760 0.12670 0.54110 0.08200
C 	C 	0.66670 0.20656 0.60880 0.03000
C 	C 	0.73740 0.23499 0.58469 0.15600
C 	C 	0.84660 0.32519 0.59330 0.08200
C 	C 	0.81160 0.38549 0.55376 -0.07900
H 	H 	0.75110 0.40500 0.54710 0.07500
C 	C 	0.86550 0.41732 0.52371 -0.04800
C 	C 	0.95680 0.38925 0.53506 0.01100
H 	H 	0.99360 0.41060 0.51570 0.03900
C 	C 	0.99340 0.32906 0.57552 -0.12500
C 	C 	0.93850 0.29709 0.60418 -0.04100
H 	H 	0.96290 0.25660 0.63080 0.01900
C 	C 	0.09130 0.29929 0.58540 0.38400
C 	C 	0.92790 0.22000 0.76010 0.09500
H 	H 	0.93170 0.22170 0.71790 -0.02400
C 	C 	0.99530 0.17900 0.81460 -0.14000
H 	H 	0.04460 0.15410 0.80960 0.08400
C 	C 	0.98900 0.17490 0.87680 0.04800
H 	H 	0.03410 0.14750 0.91430 0.02400
C 	C 	0.91510 0.21210 0.88230 -0.09900
H 	H 	0.90810 0.20930 0.92320 0.07700
C 	C 	0.85200 0.25328 0.82671 0.02900
C 	C 	0.77930 0.30313 0.83144 0.16200
C 	C 	0.67140 0.39770 0.77673 0.09000
C 	C 	0.56710 0.39633 0.74341 -0.07300
H 	H 	0.53240 0.35650 0.71970 0.06300
C 	C 	0.51460 0.45458 0.74548 -0.05000
C 	C 	0.56660 0.51377 0.78100 0.01500
H 	H 	0.53110 0.55270 0.78250 0.04800
C 	C 	0.72300 0.45674 0.81233 -0.05400
H 	H 	0.79330 0.45710 0.83520 0.05400
C 	C 	0.40090 0.45498 0.70725 0.31600
C 	C 	0.67090 0.51531 0.81416 -0.09600
C 	C 	0.72950 0.57970 0.84977 0.42600
C 	C 	0.82100 0.47982 0.47650 0.32300
Zn	Zn	0.21229 0.06830 0.13213 1.23600
Zn	Zn	0.04300 0.12570 0.57543 1.16500
Zn	Zn	0.24981 0.21938 0.60348 1.18500
Co	Co	0.75772 0.17996 0.19582 1.16800
O 	O 	0.83970 0.98021 0.21244 -0.23000
O 	O 	0.35380 0.99509 0.21232 -0.33100
O 	O 	0.35573 0.09747 0.16872 -0.44300
O 	O 	0.85830 0.00517 0.93582 -0.43500
O 	O 	0.15640 0.07411 0.19820 -0.44300
O 	O 	0.15490 0.16212 0.08050 -0.52100
O 	O 	0.75100 0.98835 0.97812 -0.30500
O 	O 	0.82120 0.92055 0.36863 -0.53600
O 	O 	0.68170 0.87031 0.35656 -0.51200
O 	O 	0.26940 0.14040 0.28244 -0.29700
O 	O 	0.19200 0.18693 0.49747 -0.46100
O 	O 	0.05670 0.12743 0.48469 -0.50100
O 	O 	0.74360 0.29345 0.03426 -0.22000
O 	O 	0.10958 0.26552 0.09802 -0.59200
O 	O 	0.77360 0.19121 0.38735 -0.21800
N 	N 	0.65730 0.11312 0.13586 -0.25100
N 	N 	0.84440 0.09927 0.22332 -0.28300
N 	N 	0.66540 0.25856 0.16254 -0.25400
N 	N 	0.78570 0.20902 0.11941 -0.27400
N 	N 	0.85710 0.24240 0.26560 -0.25300
N 	N 	0.72790 0.16080 0.27277 -0.27500
C 	C 	0.55920 0.12570 0.09207 0.07500
H 	H 	0.53780 0.17140 0.07960 -0.00900
C 	C 	0.48930 0.07280 0.06500 -0.11900
H 	H 	0.42150 0.08270 0.03490 0.08300
C 	C 	0.52090 0.00540 0.08290 0.02700
H 	H 	0.47430 0.96920 0.06690 0.03500
C 	C 	0.62250 0.99150 0.12490 -0.07900
H 	H 	0.64560 0.94600 0.13560 0.07000
C 	C 	0.68900 0.04688 0.15068 0.01800
C 	C 	0.80000 0.03867 0.19893 0.17300
C 	C 	0.95000 0.10273 0.27043 0.10300
C 	C 	0.98560 0.11668 0.34175 -0.09200
H 	H 	0.94070 0.11600 0.36020 0.06400
C 	C 	0.08630 0.13166 0.38625 -0.07100
C 	C 	0.15390 0.13081 0.35887 -0.00700
H 	H 	0.22110 0.14340 0.38740 0.05100
C 	C 	0.12030 0.11094 0.28836 -0.04800
C 	C 	0.01870 0.09672 0.24484 -0.10400
H 	H 	0.99650 0.08300 0.19800 0.09300
C 	C 	0.11550 0.15027 0.46291 0.39300
C 	C 	0.18960 0.10860 0.25537 0.34000
C 	C 	0.60170 0.27986 0.18650 0.08700
H 	H 	0.60220 0.25660 0.22480 -0.00900
C 	C 	0.53660 0.33410 0.15700 -0.15100
H 	H 	0.49270 0.34710 0.17420 0.08500
C 	C 	0.53730 0.36920 0.10120 0.05400
H 	H 	0.49290 0.40590 0.07950 0.01700
C 	C 	0.60460 0.34920 0.07770 -0.10700
H 	H 	0.60760 0.37330 0.04110 0.08200
C 	C 	0.66670 0.29344 0.10880 0.03000
C 	C 	0.73740 0.26501 0.08469 0.15500
C 	C 	0.84660 0.17481 0.09330 0.08300
C 	C 	0.81160 0.11451 0.05376 -0.08000
H 	H 	0.75110 0.09500 0.04710 0.07500
C 	C 	0.86550 0.08268 0.02371 -0.04800
C 	C 	0.95680 0.11075 0.03506 0.01000
H 	H 	0.99360 0.08940 0.01570 0.04000
C 	C 	0.99340 0.17094 0.07552 -0.12000
C 	C 	0.93850 0.20291 0.10418 -0.04300
H 	H 	0.96290 0.24340 0.13080 0.02100
C 	C 	0.09130 0.20071 0.08540 0.38000
C 	C 	0.92790 0.28000 0.26010 0.09400
H 	H 	0.93170 0.27830 0.21790 -0.02300
C 	C 	0.99530 0.32100 0.31460 -0.13700
H 	H 	0.04460 0.34590 0.30960 0.08100
C 	C 	0.98900 0.32510 0.37680 0.05300
H 	H 	0.03410 0.35250 0.41430 0.02000
C 	C 	0.91510 0.28790 0.38230 -0.10200
H 	H 	0.90810 0.29070 0.42320 0.07800
C 	C 	0.85200 0.24672 0.32671 0.03000
C 	C 	0.77930 0.19687 0.33144 0.16100
C 	C 	0.67140 0.10230 0.27673 0.09000
C 	C 	0.56710 0.10367 0.24341 -0.07300
H 	H 	0.53240 0.14350 0.21970 0.06300
C 	C 	0.51460 0.04542 0.24548 -0.05100
C 	C 	0.56660 0.98623 0.28100 0.01600
H 	H 	0.53110 0.94730 0.28250 0.04800
C 	C 	0.72300 0.04326 0.31233 -0.05500
H 	H 	0.79330 0.04290 0.33520 0.05500
C 	C 	0.40090 0.04502 0.20725 0.31400
C 	C 	0.67090 0.98469 0.31416 -0.09600
C 	C 	0.72950 0.92030 0.34977 0.42600
C 	C 	0.82100 0.02018 0.97650 0.32600
Zn	Zn	0.78771 0.56830 0.36787 1.23700
Zn	Zn	0.95700 0.62570 0.92457 1.16400
Zn	Zn	0.75019 0.71938 0.89652 1.18400
Co	Co	0.24228 0.67996 0.30418 1.16800
O 	O 	0.16030 0.48021 0.28756 -0.23000
O 	O 	0.64620 0.49509 0.28768 -0.33300
O 	O 	0.64427 0.59747 0.33128 -0.44300
O 	O 	0.14170 0.50517 0.56418 -0.43500
O 	O 	0.84360 0.57411 0.30180 -0.44200
O 	O 	0.84510 0.66212 0.41950 -0.52100
O 	O 	0.24900 0.48835 0.52188 -0.30000
O 	O 	0.17880 0.42055 0.13137 -0.53700
O 	O 	0.31830 0.37031 0.14344 -0.51300
O 	O 	0.73060 0.64040 0.21756 -0.29700
O 	O 	0.80800 0.68693 0.00253 -0.46000
O 	O 	0.94330 0.62743 0.01531 -0.49800
O 	O 	0.25640 0.79345 0.46574 -0.21900
O 	O 	0.89042 0.76552 0.40198 -0.59200
O 	O 	0.22640 0.69121 0.11265 -0.21800
N 	N 	0.34270 0.61312 0.36414 -0.25300
N 	N 	0.15560 0.59927 0.27668 -0.28100
N 	N 	0.33460 0.75856 0.33746 -0.25400
N 	N 	0.21430 0.70902 0.38059 -0.27400
N 	N 	0.14290 0.74240 0.23440 -0.25300
N 	N 	0.27210 0.66080 0.22723 -0.27500
C 	C 	0.44080 0.62570 0.40793 0.08000
H 	H 	0.46220 0.67140 0.42040 -0.01000
C 	C 	0.51070 0.57280 0.43500 -0.12800
H 	H 	0.57850 0.58270 0.46510 0.08700
C 	C 	0.47910 0.50540 0.41710 0.04200
H 	H 	0.52570 0.46920 0.43310 0.02900
C 	C 	0.37750 0.49150 0.37510 -0.09100
H 	H 	0.35440 0.44600 0.36440 0.07400
C 	C 	0.31100 0.54688 0.34932 0.02400
C 	C 	0.20000 0.53867 0.30107 0.17200
C 	C 	0.05000 0.60273 0.22957 0.09500
C 	C 	0.01440 0.61668 0.15825 -0.09300
H 	H 	0.05930 0.61600 0.13980 0.06400
C 	C 	0.91370 0.63166 0.11375 -0.06800
C 	C 	0.84610 0.63081 0.14113 -0.00500
H 	H 	0.77890 0.64340 0.11260 0.05000
C 	C 	0.87970 0.61094 0.21164 -0.05300
C 	C 	0.98130 0.59672 0.25516 -0.08800
H 	H 	0.00350 0.58300 0.30200 0.08500
C 	C 	0.88450 0.65027 0.03709 0.39200
C 	C 	0.81040 0.60860 0.24463 0.34200
C 	C 	0.39830 0.77986 0.31350 0.08700
H 	H 	0.39780 0.75660 0.27520 -0.00900
C 	C 	0.46340 0.83410 0.34300 -0.15100
H 	H 	0.50730 0.84710 0.32580 0.08500
C 	C 	0.46270 0.86920 0.39880 0.05500
H 	H 	0.50710 0.90590 0.42050 0.01800
C 	C 	0.39540 0.84920 0.42230 -0.10700
H 	H 	0.39240 0.87330 0.45890 0.08200
C 	C 	0.33330 0.79344 0.39120 0.03000
C 	C 	0.26260 0.76501 0.41531 0.15600
C 	C 	0.15340 0.67481 0.40670 0.08200
C 	C 	0.18840 0.61451 0.44624 -0.07900
H 	H 	0.24890 0.59500 0.45290 0.07500
C 	C 	0.13450 0.58268 0.47629 -0.04800
C 	C 	0.04320 0.61075 0.46494 0.01100
H 	H 	0.00640 0.58940 0.48430 0.03900
C 	C 	0.00660 0.67094 0.42448 -0.12500
C 	C 	0.06150 0.70291 0.39582 -0.04100
H 	H 	0.03710 0.74340 0.36920 0.01900
C 	C 	0.90870 0.70071 0.41460 0.38400
C 	C 	0.07210 0.78000 0.23990 0.09500
H 	H 	0.06830 0.77830 0.28210 -0.02400
C 	C 	0.00470 0.82100 0.18540 -0.14000
H 	H 	0.95540 0.84590 0.19040 0.08400
C 	C 	0.01100 0.82510 0.12320 0.04800
H 	H 	0.96590 0.85250 0.08570 0.02400
C 	C 	0.08490 0.78790 0.11770 -0.09900
H 	H 	0.09190 0.79070 0.07680 0.07700
C 	C 	0.14800 0.74672 0.17329 0.02900
C 	C 	0.22070 0.69687 0.16856 0.16200
C 	C 	0.32860 0.60230 0.22327 0.09000
C 	C 	0.43290 0.60367 0.25659 -0.07300
H 	H 	0.46760 0.64350 0.28030 0.06300
C 	C 	0.48540 0.54542 0.25452 -0.05000
C 	C 	0.43340 0.48623 0.21900 0.01500
H 	H 	0.46890 0.44730 0.21750 0.04800
C 	C 	0.27700 0.54326 0.18767 -0.05400
H 	H 	0.20670 0.54290 0.16480 0.05400
C 	C 	0.59910 0.54502 0.29275 0.31600
C 	C 	0.32910 0.48469 0.18584 -0.09600
C 	C 	0.27050 0.42030 0.15023 0.42600
C 	C 	0.17900 0.52018 0.52350 0.32300
