data_crystal

_cell_length_a 18.69500
_cell_length_b 20.12200
_cell_length_c 21.06800
_cell_angle_alpha 111.92400
_cell_angle_beta  92.82400
_cell_angle_gamma 94.97300

_symmetry_space_group_name_	'P 1'
_symmetry_space_group_name_H-M	'P 1'

loop_
_symmetry_equiv_pos_as_xyz
  x,y,z

loop_
_atom_site_label
_atom_site_type_symbol
_atom_site_fract_x
_atom_site_fract_y
_atom_site_fract_z
_atom_site_charge
Si	Si	0.10190 0.63300 0.58340 0.89400
C 	C 	0.01870 0.62740 0.62780 -0.37500
C 	C 	0.94950 0.62230 0.60070 0.21000
H 	H 	0.94180 0.61530 0.55360 -0.05100
C 	C 	0.89040 0.62680 0.63800 -0.24500
H 	H 	0.84330 0.62310 0.61690 0.11000
C 	C 	0.90070 0.63660 0.70660 0.16500
C 	C 	0.96930 0.64220 0.73580 -0.23500
H 	H 	0.97680 0.65050 0.78320 0.09800
C 	C 	0.02720 0.63590 0.69710 0.19100
H 	H 	0.07400 0.63730 0.71760 -0.05200
C 	C 	0.84210 0.64760 0.74840 -0.07500
N 	N 	0.62400 0.71460 0.91720 -0.21800
C 	C 	0.67430 0.67460 0.92540 0.07000
H 	H 	0.67190 0.65900 0.96270 -0.02400
C 	C 	0.73060 0.65380 0.88280 -0.14400
H 	H 	0.76260 0.62210 0.88900 0.06500
C 	C 	0.73810 0.68070 0.83160 0.07500
C 	C 	0.68660 0.72200 0.82340 -0.14600
H 	H 	0.68920 0.73960 0.78750 0.06600
C 	C 	0.63060 0.73910 0.86610 0.06600
H 	H 	0.59650 0.76860 0.85900 -0.02000
C 	C 	0.79590 0.66140 0.78680 -0.02900
C 	C 	0.08250 0.63940 0.49770 -0.36500
C 	C 	0.10420 0.70270 0.48800 0.18500
H 	H 	0.12650 0.74370 0.52570 -0.04300
C 	C 	0.09360 0.70650 0.42420 -0.23500
H 	H 	0.10790 0.75040 0.41860 0.10600
C 	C 	0.06260 0.64780 0.36880 0.16000
C 	C 	0.04050 0.58470 0.37660 -0.23800
H 	H 	0.01550 0.54510 0.33930 0.10700
C 	C 	0.05520 0.57970 0.43960 0.19300
H 	H 	0.04630 0.53410 0.44330 -0.04800
C 	C 	0.05570 0.65250 0.30260 -0.07100
N 	N 	0.02520 0.72170 0.08040 -0.26700
C 	C 	0.96800 0.68760 0.09440 0.06100
H 	H 	0.92310 0.68000 0.06830 -0.04100
C 	C 	0.97450 0.66250 0.14890 -0.14500
H 	H 	0.93470 0.63610 0.15840 0.07100
C 	C 	0.03930 0.67690 0.18740 0.08000
C 	C 	0.09810 0.71080 0.17040 -0.14800
H 	H 	0.14380 0.71920 0.19560 0.07500
C 	C 	0.08850 0.73290 0.11470 0.07200
H 	H 	0.12840 0.75610 0.10180 -0.03800
C 	C 	0.04530 0.66100 0.25010 -0.02100
C 	C 	0.15930 0.71780 0.64230 -0.35900
C 	C 	0.23330 0.72150 0.65300 0.18600
H 	H 	0.25630 0.67950 0.63100 -0.04000
C 	C 	0.27530 0.78490 0.69510 -0.23000
H 	H 	0.32590 0.78610 0.70340 0.10500
C 	C 	0.24120 0.84540 0.72430 0.15200
C 	C 	0.16720 0.84420 0.71300 -0.23100
H 	H 	0.14450 0.88660 0.73360 0.10100
C 	C 	0.12720 0.78030 0.67150 0.18400
H 	H 	0.07670 0.77940 0.66270 -0.04400
C 	C 	0.28170 0.91220 0.76670 -0.07200
N 	N 	0.41860 0.16800 0.94090 -0.25100
C 	C 	0.34800 0.16070 0.92620 0.06600
H 	H 	0.32130 0.20040 0.94620 -0.02300
C 	C 	0.31230 0.09330 0.88060 -0.14400
H 	H 	0.26150 0.08700 0.87040 0.06800
C 	C 	0.35270 0.03730 0.85150 0.07700
C 	C 	0.42620 0.04720 0.86320 -0.14600
H 	H 	0.45430 0.00930 0.84110 0.07800
C 	C 	0.45950 0.11570 0.90960 0.05800
H 	H 	0.51050 0.12430 0.91840 -0.02800
C 	C 	0.31640 0.96730 0.80430 -0.03000
C 	C 	0.14920 0.55050 0.56780 -0.38600
C 	C 	0.13110 0.50070 0.59690 0.21300
H 	H 	0.09450 0.50840 0.62770 -0.05800
C 	C 	0.16630 0.43960 0.58110 -0.26000
H 	H 	0.15370 0.40640 0.60220 0.11600
C 	C 	0.21830 0.42510 0.53650 0.17900
C 	C 	0.23810 0.47480 0.50760 -0.26000
H 	H 	0.27500 0.46700 0.47700 0.12700
C 	C 	0.20300 0.53590 0.52410 0.22000
H 	H 	0.21690 0.56980 0.50410 -0.05300
C 	C 	0.25290 0.36150 0.52220 -0.08300
N 	N 	0.40300 0.13240 0.47620 -0.18800
C 	C 	0.43740 0.19880 0.50010 0.07500
H 	H 	0.48830 0.20580 0.50970 0.01700
C 	C 	0.39870 0.25910 0.51140 -0.14500
H 	H 	0.42310 0.30650 0.53060 0.09200
C 	C 	0.32610 0.24840 0.49440 0.08300
C 	C 	0.29130 0.17900 0.46490 -0.14600
H 	H 	0.24120 0.17000 0.45080 0.08000
C 	C 	0.33370 0.12230 0.45680 0.08400
H 	H 	0.31100 0.07420 0.43620 0.00600
C 	C 	0.28470 0.30970 0.50440 -0.02100
Si	Si	0.89930 0.86310 0.41510 0.91400
C 	C 	0.91680 0.85960 0.50250 -0.39100
C 	C 	0.92240 0.91950 0.56180 0.22300
H 	H 	0.91530 0.96410 0.55820 -0.05500
C 	C 	0.93770 0.91960 0.62650 -0.26200
H 	H 	0.94670 0.96380 0.66520 0.11700
C 	C 	0.93970 0.85480 0.63410 0.17800
C 	C 	0.93360 0.79380 0.57610 -0.25900
H 	H 	0.93670 0.74870 0.58030 0.11500
C 	C 	0.92320 0.79550 0.51170 0.21500
H 	H 	0.92040 0.75180 0.47260 -0.05300
C 	C 	0.95110 0.85070 0.70040 -0.07800
N 	N 	0.99610 0.79630 0.92800 -0.26300
C 	C 	0.92880 0.79650 0.90710 0.06300
H 	H 	0.89050 0.78510 0.93070 -0.04000
C 	C 	0.91410 0.81400 0.84850 -0.14400
H 	H 	0.86610 0.81320 0.83100 0.07700
C 	C 	0.97200 0.83210 0.81830 0.08200
C 	C 	0.04140 0.83630 0.84520 -0.15100
H 	H 	0.08100 0.85240 0.82610 0.07500
C 	C 	0.05240 0.81600 0.90220 0.07300
H 	H 	0.09980 0.81670 0.92120 -0.03800
C 	C 	0.95910 0.84550 0.75480 -0.01600
C 	C 	0.84170 0.77760 0.35890 -0.37000
C 	C 	0.76740 0.77400 0.34990 0.19300
H 	H 	0.74450 0.81610 0.37160 -0.04500
C 	C 	0.72570 0.70990 0.30970 -0.24000
H 	H 	0.67460 0.70720 0.30550 0.10600
C 	C 	0.76010 0.65050 0.27610 0.16000
C 	C 	0.83330 0.65210 0.28200 -0.24300
H 	H 	0.85610 0.61070 0.25790 0.10500
C 	C 	0.87350 0.71600 0.32440 0.19200
H 	H 	0.92440 0.71760 0.32990 -0.04400
C 	C 	0.71750 0.58660 0.22900 -0.07600
N 	N 	0.53770 0.34960 0.07130 -0.25200
C 	C 	0.60890 0.34720 0.06640 0.05200
H 	H 	0.62600 0.30550 0.03470 -0.03300
C 	C 	0.65890 0.40700 0.10850 -0.13800
H 	H 	0.70940 0.40400 0.10880 0.06400
C 	C 	0.63210 0.46920 0.14860 0.07400
C 	C 	0.55950 0.47110 0.15310 -0.14700
H 	H 	0.54100 0.51300 0.18300 0.06700
C 	C 	0.51270 0.40900 0.11200 0.06500
H 	H 	0.46210 0.41000 0.11370 -0.01900
C 	C 	0.67980 0.53260 0.19380 -0.02900
C 	C 	0.85280 0.94490 0.42550 -0.39500
C 	C 	0.88240 0.99880 0.40410 0.20800
H 	H 	0.92610 0.99340 0.38250 -0.05400
C 	C 	0.84830 0.05950 0.41420 -0.26000
H 	H 	0.86800 0.09490 0.39830 0.11700
C 	C 	0.78650 0.06910 0.44700 0.17800
C 	C 	0.75650 0.01690 0.46900 -0.27500
H 	H 	0.71260 0.02230 0.49020 0.13100
C 	C 	0.79190 0.95720 0.45940 0.23300
H 	H 	0.77310 0.92300 0.47720 -0.05900
C 	C 	0.74900 0.13140 0.45870 -0.08400
N 	N 	0.59710 0.35750 0.49140 -0.18600
C 	C 	0.57440 0.29170 0.44540 0.07000
H 	H 	0.53100 0.28510 0.41730 0.01900
C 	C 	0.61190 0.23180 0.43670 -0.13300
H 	H 	0.59490 0.18570 0.40270 0.07800
C 	C 	0.67420 0.24150 0.47890 0.07700
C 	C 	0.69620 0.30840 0.52890 -0.14300
H 	H 	0.73800 0.31610 0.55930 0.07400
C 	C 	0.65490 0.36490 0.53380 0.07600
H 	H 	0.66910 0.41080 0.56910 0.01000
C 	C 	0.71430 0.18050 0.47060 -0.01500
C 	C 	0.98520 0.86650 0.37440 -0.38700
C 	C 	0.98110 0.86120 0.30580 0.20400
H 	H 	0.93540 0.85110 0.28030 -0.05900
C 	C 	0.04190 0.87060 0.27520 -0.25200
H 	H 	0.03820 0.86760 0.22910 0.09900
C 	C 	0.10830 0.88430 0.31110 0.17400
C 	C 	0.11410 0.88760 0.37790 -0.26100
H 	H 	0.16010 0.89510 0.40230 0.11200
C 	C 	0.05300 0.87990 0.40820 0.22200
H 	H 	0.05740 0.88410 0.45460 -0.05500
C 	C 	0.17180 0.89830 0.28210 -0.08400
N 	N 	0.41210 0.97480 0.18470 -0.14000
C 	C 	0.41190 0.99140 0.25210 0.06800
H 	H 	0.45250 0.01850 0.28250 0.01600
C 	C 	0.35010 0.96800 0.27740 -0.14600
H 	H 	0.34980 0.97670 0.32490 0.09400
C 	C 	0.29100 0.93300 0.23340 0.07600
C 	C 	0.29110 0.91930 0.16440 -0.13900
H 	H 	0.24900 0.89810 0.13390 0.06100
C 	C 	0.35650 0.93800 0.14040 0.06400
H 	H 	0.36040 0.92400 0.09250 -0.00200
C 	C 	0.22470 0.91220 0.25930 -0.02000
Cu	Cu	0.46422 0.04946 0.49109 0.91200
Cu	Cu	0.46973 0.26075 0.01415 0.81000
Cu	Cu	0.53728 0.44702 0.49721 0.91700
Cu	Cu	0.00640 0.76081 0.00691 0.78700
C 	C 	0.59570 0.09700 0.57380 0.54400
C 	C 	0.65680 0.15420 0.62180 -0.79000
H 	H 	0.65080 0.16080 0.66970 0.25800
H 	H 	0.65410 0.20010 0.61620 0.26300
H 	H 	0.70380 0.13740 0.60970 0.25900
O 	O 	0.54300 0.11600 0.55090 -0.48100
O 	O 	0.60600 0.03400 0.56820 -0.46400
C 	C 	0.56870 0.99540 0.39970 0.54100
C 	C 	0.61060 0.98810 0.33500 -0.77500
H 	H 	0.64520 0.95280 0.32910 0.26400
H 	H 	0.63650 0.03500 0.34140 0.25800
H 	H 	0.57640 0.97210 0.29400 0.25900
O 	O 	0.52040 0.03500 0.40940 -0.46400
O 	O 	0.58390 0.95100 0.42430 -0.45900
C 	C 	0.59120 0.58700 0.58660 0.54700
C 	C 	0.65030 0.64040 0.64180 -0.78500
H 	H 	0.62890 0.66310 0.68520 0.25900
H 	H 	0.66960 0.67760 0.62570 0.26000
H 	H 	0.68940 0.61370 0.64890 0.26200
O 	O 	0.60320 0.52300 0.56660 -0.47700
O 	O 	0.53930 0.61400 0.57170 -0.47200
C 	C 	0.43120 0.48130 0.59190 0.55300
C 	C 	0.39120 0.47080 0.65160 -0.79200
H 	H 	0.35510 0.50490 0.66540 0.26900
H 	H 	0.42610 0.47950 0.69090 0.26300
H 	H 	0.36720 0.42140 0.63580 0.26400
O 	O 	0.47820 0.44050 0.57140 -0.46800
O 	O 	0.41520 0.53240 0.57770 -0.46500
Si	Si	0.89810 0.36700 0.41660 0.89300
C 	C 	0.98130 0.37260 0.37220 -0.37600
C 	C 	0.05050 0.37770 0.39930 0.20900
H 	H 	0.05820 0.38470 0.44640 -0.05200
C 	C 	0.10960 0.37320 0.36200 -0.24600
H 	H 	0.15670 0.37690 0.38310 0.10900
C 	C 	0.09930 0.36340 0.29340 0.16400
C 	C 	0.03070 0.35780 0.26420 -0.23600
H 	H 	0.02320 0.34950 0.21680 0.09700
C 	C 	0.97280 0.36410 0.30290 0.19000
H 	H 	0.92600 0.36270 0.28240 -0.05300
C 	C 	0.15790 0.35240 0.25160 -0.07600
N 	N 	0.37600 0.28540 0.08280 -0.21900
C 	C 	0.32570 0.32540 0.07460 0.06900
H 	H 	0.32810 0.34100 0.03730 -0.02500
C 	C 	0.26940 0.34620 0.11720 -0.14500
H 	H 	0.23740 0.37790 0.11100 0.06500
C 	C 	0.26190 0.31930 0.16840 0.07500
C 	C 	0.31340 0.27800 0.17660 -0.14600
H 	H 	0.31080 0.26040 0.21250 0.06600
C 	C 	0.36940 0.26090 0.13390 0.06600
H 	H 	0.40350 0.23140 0.14100 -0.02000
C 	C 	0.20410 0.33860 0.21320 -0.02900
C 	C 	0.91750 0.36060 0.50230 -0.36500
C 	C 	0.89580 0.29730 0.51200 0.18500
H 	H 	0.87350 0.25630 0.47430 -0.04300
C 	C 	0.90640 0.29350 0.57580 -0.23500
H 	H 	0.89210 0.24960 0.58140 0.10600
C 	C 	0.93740 0.35220 0.63120 0.16000
C 	C 	0.95950 0.41530 0.62340 -0.23800
H 	H 	0.98450 0.45490 0.66070 0.10700
C 	C 	0.94480 0.42030 0.56040 0.19300
H 	H 	0.95370 0.46590 0.55670 -0.04800
C 	C 	0.94430 0.34750 0.69740 -0.07100
N 	N 	0.97480 0.27830 0.91960 -0.26700
C 	C 	0.03200 0.31240 0.90560 0.06100
H 	H 	0.07690 0.32000 0.93170 -0.04100
C 	C 	0.02550 0.33750 0.85110 -0.14500
H 	H 	0.06530 0.36390 0.84160 0.07100
C 	C 	0.96070 0.32310 0.81260 0.08000
C 	C 	0.90190 0.28920 0.82960 -0.14800
H 	H 	0.85620 0.28080 0.80440 0.07500
C 	C 	0.91150 0.26710 0.88530 0.07200
H 	H 	0.87160 0.24390 0.89820 -0.03800
C 	C 	0.95470 0.33900 0.74990 -0.02100
C 	C 	0.84070 0.28220 0.35770 -0.35900
C 	C 	0.76670 0.27850 0.34700 0.18600
H 	H 	0.74370 0.32050 0.36900 -0.04000
C 	C 	0.72470 0.21510 0.30490 -0.23000
H 	H 	0.67410 0.21390 0.29660 0.10500
C 	C 	0.75880 0.15460 0.27570 0.15200
C 	C 	0.83280 0.15580 0.28700 -0.23100
H 	H 	0.85550 0.11340 0.26640 0.10100
C 	C 	0.87280 0.21970 0.32850 0.18400
H 	H 	0.92330 0.22060 0.33730 -0.04400
C 	C 	0.71830 0.08780 0.23330 -0.07200
N 	N 	0.58140 0.83200 0.05910 -0.25100
C 	C 	0.65200 0.83930 0.07380 0.06600
H 	H 	0.67870 0.79960 0.05380 -0.02300
C 	C 	0.68770 0.90670 0.11940 -0.14400
H 	H 	0.73850 0.91300 0.12960 0.06800
C 	C 	0.64730 0.96270 0.14850 0.07700
C 	C 	0.57380 0.95280 0.13680 -0.14600
H 	H 	0.54570 0.99070 0.15890 0.07800
C 	C 	0.54050 0.88430 0.09040 0.05800
H 	H 	0.48950 0.87570 0.08160 -0.02800
C 	C 	0.68360 0.03270 0.19570 -0.03000
C 	C 	0.85080 0.44950 0.43220 -0.38600
C 	C 	0.86890 0.49930 0.40310 0.21300
H 	H 	0.90550 0.49160 0.37230 -0.05800
C 	C 	0.83370 0.56040 0.41890 -0.26000
H 	H 	0.84630 0.59360 0.39780 0.11600
C 	C 	0.78170 0.57490 0.46350 0.17900
C 	C 	0.76190 0.52520 0.49240 -0.26000
H 	H 	0.72500 0.53300 0.52300 0.12700
C 	C 	0.79700 0.46410 0.47590 0.22000
H 	H 	0.78310 0.43020 0.49590 -0.05300
C 	C 	0.74710 0.63850 0.47780 -0.08300
N 	N 	0.59700 0.86760 0.52380 -0.18800
C 	C 	0.56260 0.80120 0.49990 0.07500
H 	H 	0.51170 0.79420 0.49030 0.01700
C 	C 	0.60130 0.74090 0.48860 -0.14500
H 	H 	0.57690 0.69350 0.46940 0.09200
C 	C 	0.67390 0.75160 0.50560 0.08300
C 	C 	0.70870 0.82100 0.53510 -0.14600
H 	H 	0.75880 0.83000 0.54920 0.08000
C 	C 	0.66630 0.87770 0.54320 0.08400
H 	H 	0.68900 0.92580 0.56380 0.00600
C 	C 	0.71530 0.69030 0.49560 -0.02100
Si	Si	0.10070 0.13690 0.58490 0.91400
C 	C 	0.08320 0.14040 0.49750 -0.39100
C 	C 	0.07760 0.08050 0.43820 0.22300
H 	H 	0.08470 0.03590 0.44180 -0.05500
C 	C 	0.06230 0.08040 0.37350 -0.26200
H 	H 	0.05330 0.03620 0.33480 0.11700
C 	C 	0.06030 0.14520 0.36590 0.17800
C 	C 	0.06640 0.20620 0.42390 -0.25900
H 	H 	0.06330 0.25130 0.41970 0.11500
C 	C 	0.07680 0.20450 0.48830 0.21500
H 	H 	0.07960 0.24820 0.52740 -0.05300
C 	C 	0.04890 0.14930 0.29960 -0.07800
N 	N 	0.00390 0.20370 0.07200 -0.26300
C 	C 	0.07120 0.20350 0.09290 0.06300
H 	H 	0.10950 0.21490 0.06930 -0.04000
C 	C 	0.08590 0.18600 0.15150 -0.14400
H 	H 	0.13390 0.18680 0.16900 0.07700
C 	C 	0.02800 0.16790 0.18170 0.08200
C 	C 	0.95860 0.16370 0.15480 -0.15100
H 	H 	0.91900 0.14760 0.17390 0.07500
C 	C 	0.94760 0.18400 0.09780 0.07300
H 	H 	0.90020 0.18330 0.07880 -0.03800
C 	C 	0.04090 0.15450 0.24520 -0.01600
C 	C 	0.15830 0.22240 0.64110 -0.37000
C 	C 	0.23260 0.22600 0.65010 0.19300
H 	H 	0.25550 0.18390 0.62840 -0.04500
C 	C 	0.27430 0.29010 0.69030 -0.24000
H 	H 	0.32540 0.29280 0.69450 0.10600
C 	C 	0.23990 0.34950 0.72390 0.16000
C 	C 	0.16670 0.34790 0.71800 -0.24300
H 	H 	0.14390 0.38930 0.74210 0.10500
C 	C 	0.12650 0.28400 0.67560 0.19200
H 	H 	0.07560 0.28240 0.67010 -0.04400
C 	C 	0.28250 0.41340 0.77100 -0.07600
N 	N 	0.46230 0.65040 0.92870 -0.25200
C 	C 	0.39110 0.65280 0.93360 0.05200
H 	H 	0.37400 0.69450 0.96530 -0.03300
C 	C 	0.34110 0.59300 0.89150 -0.13800
H 	H 	0.29060 0.59600 0.89120 0.06400
C 	C 	0.36790 0.53080 0.85140 0.07400
C 	C 	0.44050 0.52890 0.84690 -0.14700
H 	H 	0.45900 0.48700 0.81700 0.06700
C 	C 	0.48730 0.59100 0.88800 0.06500
H 	H 	0.53790 0.59000 0.88630 -0.01900
C 	C 	0.32020 0.46740 0.80620 -0.02900
C 	C 	0.14720 0.05510 0.57450 -0.39500
C 	C 	0.11760 0.00120 0.59590 0.20800
H 	H 	0.07390 0.00660 0.61750 -0.05400
C 	C 	0.15170 0.94050 0.58580 -0.26000
H 	H 	0.13200 0.90510 0.60170 0.11700
C 	C 	0.21350 0.93090 0.55300 0.17800
C 	C 	0.24350 0.98310 0.53100 -0.27500
H 	H 	0.28740 0.97770 0.50980 0.13100
C 	C 	0.20810 0.04280 0.54060 0.23300
H 	H 	0.22690 0.07700 0.52280 -0.05900
C 	C 	0.25100 0.86860 0.54130 -0.08400
N 	N 	0.40290 0.64250 0.50860 -0.18600
C 	C 	0.42560 0.70830 0.55460 0.07000
H 	H 	0.46900 0.71490 0.58270 0.01900
C 	C 	0.38810 0.76820 0.56330 -0.13300
H 	H 	0.40510 0.81430 0.59730 0.07800
C 	C 	0.32580 0.75850 0.52110 0.07700
C 	C 	0.30380 0.69160 0.47110 -0.14300
H 	H 	0.26200 0.68390 0.44070 0.07400
C 	C 	0.34510 0.63510 0.46620 0.07600
H 	H 	0.33090 0.58920 0.43090 0.01000
C 	C 	0.28570 0.81950 0.52940 -0.01500
C 	C 	0.01480 0.13350 0.62560 -0.38700
C 	C 	0.01890 0.13880 0.69420 0.20400
H 	H 	0.06460 0.14890 0.71970 -0.05900
C 	C 	0.95810 0.12940 0.72480 -0.25200
H 	H 	0.96180 0.13240 0.77090 0.09900
C 	C 	0.89170 0.11570 0.68890 0.17400
C 	C 	0.88590 0.11240 0.62210 -0.26100
H 	H 	0.83990 0.10490 0.59770 0.11200
C 	C 	0.94700 0.12010 0.59180 0.22200
H 	H 	0.94260 0.11590 0.54540 -0.05500
C 	C 	0.82820 0.10170 0.71790 -0.08400
N 	N 	0.58790 0.02520 0.81530 -0.14000
C 	C 	0.58810 0.00860 0.74790 0.06800
H 	H 	0.54750 0.98150 0.71750 0.01600
C 	C 	0.64990 0.03200 0.72260 -0.14600
H 	H 	0.65020 0.02330 0.67510 0.09400
C 	C 	0.70900 0.06700 0.76660 0.07600
C 	C 	0.70890 0.08070 0.83560 -0.13900
H 	H 	0.75100 0.10190 0.86610 0.06100
C 	C 	0.64350 0.06200 0.85960 0.06400
H 	H 	0.63960 0.07600 0.90750 -0.00200
C 	C 	0.77530 0.08780 0.74070 -0.02000
Cu	Cu	0.53578 0.95054 0.50891 0.91200
Cu	Cu	0.53027 0.73925 0.98585 0.81000
Cu	Cu	0.46272 0.55298 0.50279 0.91700
Cu	Cu	0.99360 0.23919 0.99309 0.78700
C 	C 	0.40430 0.90300 0.42620 0.54400
C 	C 	0.34320 0.84580 0.37820 -0.79000
H 	H 	0.34920 0.83920 0.33030 0.25800
H 	H 	0.34590 0.79990 0.38380 0.26300
H 	H 	0.29620 0.86260 0.39030 0.25900
O 	O 	0.45700 0.88400 0.44910 -0.48100
O 	O 	0.39400 0.96600 0.43180 -0.46400
C 	C 	0.43130 0.00460 0.60030 0.54100
C 	C 	0.38940 0.01190 0.66500 -0.77500
H 	H 	0.35480 0.04720 0.67090 0.26400
H 	H 	0.36350 0.96500 0.65860 0.25800
H 	H 	0.42360 0.02790 0.70600 0.25900
O 	O 	0.47960 0.96500 0.59060 -0.46400
O 	O 	0.41610 0.04900 0.57570 -0.45900
C 	C 	0.40880 0.41300 0.41340 0.54700
C 	C 	0.34970 0.35960 0.35820 -0.78500
H 	H 	0.37110 0.33690 0.31480 0.25900
H 	H 	0.33040 0.32240 0.37430 0.26000
H 	H 	0.31060 0.38630 0.35110 0.26200
O 	O 	0.39680 0.47700 0.43340 -0.47700
O 	O 	0.46070 0.38600 0.42830 -0.47200
C 	C 	0.56880 0.51870 0.40810 0.55300
C 	C 	0.60880 0.52920 0.34840 -0.79200
H 	H 	0.64490 0.49510 0.33460 0.26900
H 	H 	0.57390 0.52050 0.30910 0.26300
H 	H 	0.63280 0.57860 0.36420 0.26400
O 	O 	0.52180 0.55950 0.42860 -0.46800
O 	O 	0.58480 0.46760 0.42230 -0.46500
