data_crystal

_cell_length_a 14.03060
_cell_length_b 14.03060
_cell_length_c 28.17800
_cell_angle_alpha 90.00000
_cell_angle_beta  90.00000
_cell_angle_gamma 120.00000

_symmetry_space_group_name_	'P 1'
_symmetry_space_group_name_H-M	'P 1'

loop_
_symmetry_equiv_pos_as_xyz
  x,y,z

loop_
_atom_site_label
_atom_site_type_symbol
_atom_site_fract_x
_atom_site_fract_y
_atom_site_fract_z
_atom_site_charge
C 	C 	0.21970 0.01210 0.06480 0.29600
Cd	Cd	0.42990 0.09083 0.02472 1.21300
O 	O 	0.23770 0.07220 0.02993 -0.34900
C 	C 	0.11130 0.95940 0.08990 -0.06800
O 	O 	0.29090 0.98840 0.07970 -0.36700
C 	C 	0.08760 0.88510 0.12610 0.00500
H 	H 	0.13900 0.86520 0.13510 0.04400
O 	O 	0.72030 0.60250 0.27840 -0.37000
C 	C 	0.98740 0.84000 0.14900 -0.07900
H 	H 	0.97280 0.79090 0.17390 0.05900
O 	O 	0.60040 0.65190 0.30220 -0.35300
C 	C 	0.90480 0.86730 0.13530 0.02800
O 	O 	0.51060 0.00160 0.06090 -0.38200
C 	C 	0.92930 0.94090 0.09850 -0.01800
O 	O 	0.61860 0.11340 0.00670 -0.35800
C 	C 	0.03360 0.98560 0.07610 -0.02500
H 	H 	0.04980 0.03450 0.05100 0.05500
C 	C 	0.80040 0.81950 0.16160 -0.01500
C 	C 	0.77670 0.75370 0.19990 -0.02500
H 	H 	0.82730 0.73240 0.20860 0.05300
C 	C 	0.68410 0.71610 0.22690 -0.05500
C 	C 	0.66710 0.65220 0.27250 0.29000
C 	C 	0.60470 0.74750 0.21210 0.00300
H 	H 	0.54150 0.72630 0.23000 0.04300
C 	C 	0.62270 0.80840 0.17180 -0.08500
H 	H 	0.56920 0.82400 0.16120 0.06300
C 	C 	0.72020 0.84730 0.14620 0.03300
C 	C 	0.74500 0.92110 0.10540 -0.02400
C 	C 	0.66390 0.94850 0.08800 -0.01300
H 	H 	0.59540 0.91760 0.10270 0.05300
C 	C 	0.68550 0.01570 0.05210 -0.07600
C 	C 	0.59960 0.04760 0.03830 0.32100
C 	C 	0.78400 0.05860 0.02910 0.02700
H 	H 	0.79720 0.10400 0.00290 0.04700
C 	C 	0.86270 0.03660 0.04340 -0.10100
H 	H 	0.93040 0.07020 0.02800 0.08000
C 	C 	0.84470 0.96500 0.08060 0.04200
C 	C 	0.98790 0.20760 0.73147 0.29700
Cd	Cd	0.90917 0.33907 0.69138 1.21400
O 	O 	0.92780 0.16550 0.69660 -0.34800
C 	C 	0.04060 0.15190 0.75657 -0.06700
O 	O 	0.01160 0.30250 0.74637 -0.36600
C 	C 	0.11490 0.20250 0.79277 0.00700
H 	H 	0.13480 0.27380 0.80177 0.04500
O 	O 	0.39750 0.11780 0.94507 -0.36900
C 	C 	0.16000 0.14740 0.81567 -0.07900
H 	H 	0.20910 0.18190 0.84057 0.06000
O 	O 	0.34810 0.94850 0.96887 -0.35100
C 	C 	0.13270 0.03750 0.80197 0.02600
O 	O 	0.99840 0.50900 0.72757 -0.38200
C 	C 	0.05910 0.98840 0.76517 -0.01700
O 	O 	0.88660 0.50520 0.67337 -0.35800
C 	C 	0.01440 0.04800 0.74277 -0.02500
H 	H 	0.96550 0.01530 0.71767 0.05400
C 	C 	0.18050 0.98090 0.82827 -0.01100
C 	C 	0.24630 0.02300 0.86657 -0.03100
H 	H 	0.26760 0.09490 0.87527 0.05500
C 	C 	0.28390 0.96800 0.89357 -0.05100
C 	C 	0.34780 0.01490 0.93917 0.28700
C 	C 	0.25250 0.85720 0.87877 0.00000
H 	H 	0.27370 0.81520 0.89667 0.04400
C 	C 	0.19160 0.81430 0.83847 -0.08200
H 	H 	0.17600 0.74520 0.82787 0.06200
C 	C 	0.15270 0.87290 0.81287 0.03100
C 	C 	0.07890 0.82390 0.77207 -0.02200
C 	C 	0.05150 0.71540 0.75467 -0.01400
H 	H 	0.08240 0.67780 0.76937 0.05300
C 	C 	0.98430 0.66980 0.71877 -0.07500
C 	C 	0.95240 0.55200 0.70497 0.32100
C 	C 	0.94140 0.72540 0.69577 0.02600
H 	H 	0.89600 0.69320 0.66957 0.04700
C 	C 	0.96340 0.82610 0.71007 -0.10000
H 	H 	0.92980 0.86020 0.69467 0.07900
C 	C 	0.03500 0.87970 0.74727 0.04100
C 	C 	0.79240 0.78030 0.39813 0.29700
Cd	Cd	0.66093 0.57010 0.35805 1.21400
O 	O 	0.83450 0.76230 0.36326 -0.34800
C 	C 	0.84810 0.88870 0.42323 -0.06600
O 	O 	0.69750 0.70910 0.41303 -0.36600
C 	C 	0.79750 0.91240 0.45943 0.00400
H 	H 	0.72620 0.86100 0.46843 0.04600
O 	O 	0.88220 0.27970 0.61173 -0.36900
C 	C 	0.85260 0.01260 0.48233 -0.07600
H 	H 	0.81810 0.02720 0.50723 0.05900
O 	O 	0.05150 0.39960 0.63553 -0.35100
C 	C 	0.96250 0.09520 0.46863 0.02500
O 	O 	0.49100 0.48940 0.39423 -0.38200
C 	C 	0.01160 0.07070 0.43183 -0.01400
O 	O 	0.49480 0.38140 0.34003 -0.35800
C 	C 	0.95200 0.96640 0.40943 -0.02800
H 	H 	0.98470 0.95020 0.38433 0.05600
C 	C 	0.01910 0.19960 0.49493 -0.01000
C 	C 	0.97700 0.22330 0.53323 -0.03200
H 	H 	0.90510 0.17270 0.54193 0.05500
C 	C 	0.03200 0.31590 0.56023 -0.05000
C 	C 	0.98510 0.33290 0.60583 0.28600
C 	C 	0.14280 0.39530 0.54543 -0.00000
H 	H 	0.18480 0.45850 0.56333 0.04400
C 	C 	0.18570 0.37730 0.50513 -0.08100
H 	H 	0.25480 0.43080 0.49453 0.06100
C 	C 	0.12710 0.27980 0.47953 0.03000
C 	C 	0.17610 0.25500 0.43873 -0.02100
C 	C 	0.28460 0.33610 0.42133 -0.01600
H 	H 	0.32220 0.40460 0.43603 0.05400
C 	C 	0.33020 0.31450 0.38543 -0.07300
C 	C 	0.44800 0.40040 0.37163 0.32000
C 	C 	0.27460 0.21600 0.36243 0.02400
H 	H 	0.30680 0.20280 0.33623 0.04800
C 	C 	0.17390 0.13730 0.37673 -0.09700
H 	H 	0.13980 0.06960 0.36133 0.07800
C 	C 	0.12030 0.15530 0.41393 0.03800
C 	C 	0.01210 0.21970 0.93520 0.29700
Cd	Cd	0.09083 0.42990 0.97528 1.21400
O 	O 	0.07220 0.23770 0.97007 -0.34800
C 	C 	0.95940 0.11130 0.91010 -0.06700
O 	O 	0.98840 0.29090 0.92030 -0.36600
C 	C 	0.88510 0.08760 0.87390 0.00600
H 	H 	0.86520 0.13900 0.86490 0.04500
O 	O 	0.60250 0.72030 0.72160 -0.36900
C 	C 	0.84000 0.98740 0.85100 -0.07800
H 	H 	0.79090 0.97280 0.82610 0.06000
O 	O 	0.65190 0.60040 0.69780 -0.35200
C 	C 	0.86730 0.90480 0.86470 0.02900
O 	O 	0.00160 0.51060 0.93910 -0.38200
C 	C 	0.94090 0.92930 0.90150 -0.01800
O 	O 	0.11340 0.61860 0.99330 -0.35800
C 	C 	0.98560 0.03360 0.92390 -0.02500
H 	H 	0.03450 0.04980 0.94900 0.05500
C 	C 	0.81950 0.80040 0.83840 -0.01500
C 	C 	0.75370 0.77670 0.80010 -0.02500
H 	H 	0.73240 0.82730 0.79140 0.05300
C 	C 	0.71610 0.68410 0.77310 -0.05500
C 	C 	0.65220 0.66710 0.72750 0.29000
C 	C 	0.74750 0.60470 0.78790 0.00300
H 	H 	0.72630 0.54150 0.77000 0.04300
C 	C 	0.80840 0.62270 0.82820 -0.08500
H 	H 	0.82400 0.56920 0.83880 0.06300
C 	C 	0.84730 0.72020 0.85380 0.03300
C 	C 	0.92110 0.74500 0.89460 -0.02400
C 	C 	0.94850 0.66390 0.91200 -0.01300
H 	H 	0.91760 0.59540 0.89730 0.05300
C 	C 	0.01570 0.68550 0.94790 -0.07600
C 	C 	0.04760 0.59960 0.96170 0.32100
C 	C 	0.05860 0.78400 0.97090 0.02700
H 	H 	0.10400 0.79720 0.99710 0.04700
C 	C 	0.03660 0.86270 0.95660 -0.10100
H 	H 	0.07020 0.93040 0.97200 0.08000
C 	C 	0.96500 0.84470 0.91940 0.04200
C 	C 	0.20760 0.98790 0.26853 0.29700
Cd	Cd	0.33907 0.90917 0.30862 1.21400
O 	O 	0.16550 0.92780 0.30340 -0.34800
C 	C 	0.15190 0.04060 0.24343 -0.06700
O 	O 	0.30250 0.01160 0.25363 -0.36600
C 	C 	0.20250 0.11490 0.20723 0.00700
H 	H 	0.27380 0.13480 0.19823 0.04500
O 	O 	0.11780 0.39750 0.05493 -0.36900
C 	C 	0.14740 0.16000 0.18433 -0.07900
H 	H 	0.18190 0.20910 0.15943 0.06000
O 	O 	0.94850 0.34810 0.03113 -0.35100
C 	C 	0.03750 0.13270 0.19803 0.02600
O 	O 	0.50900 0.99840 0.27243 -0.38200
C 	C 	0.98840 0.05910 0.23483 -0.01700
O 	O 	0.50520 0.88660 0.32663 -0.35800
C 	C 	0.04800 0.01440 0.25723 -0.02500
H 	H 	0.01530 0.96550 0.28233 0.05400
C 	C 	0.98090 0.18050 0.17173 -0.01100
C 	C 	0.02300 0.24630 0.13343 -0.03100
H 	H 	0.09490 0.26760 0.12473 0.05500
C 	C 	0.96800 0.28390 0.10643 -0.05100
C 	C 	0.01490 0.34780 0.06083 0.28700
C 	C 	0.85720 0.25250 0.12123 0.00000
H 	H 	0.81520 0.27370 0.10333 0.04400
C 	C 	0.81430 0.19160 0.16153 -0.08200
H 	H 	0.74520 0.17600 0.17213 0.06200
C 	C 	0.87290 0.15270 0.18713 0.03100
C 	C 	0.82390 0.07890 0.22793 -0.02200
C 	C 	0.71540 0.05150 0.24533 -0.01400
H 	H 	0.67780 0.08240 0.23063 0.05300
C 	C 	0.66980 0.98430 0.28123 -0.07500
C 	C 	0.55200 0.95240 0.29503 0.32100
C 	C 	0.72540 0.94140 0.30423 0.02600
H 	H 	0.69320 0.89600 0.33043 0.04700
C 	C 	0.82610 0.96340 0.28993 -0.10000
H 	H 	0.86020 0.92980 0.30533 0.07900
C 	C 	0.87970 0.03500 0.25273 0.04100
C 	C 	0.78030 0.79240 0.60187 0.29700
Cd	Cd	0.57010 0.66093 0.64195 1.21400
O 	O 	0.76230 0.83450 0.63674 -0.34800
C 	C 	0.88870 0.84810 0.57677 -0.06600
O 	O 	0.70910 0.69750 0.58697 -0.36600
C 	C 	0.91240 0.79750 0.54057 0.00400
H 	H 	0.86100 0.72620 0.53157 0.04600
O 	O 	0.27970 0.88220 0.38827 -0.36900
C 	C 	0.01260 0.85260 0.51767 -0.07600
H 	H 	0.02720 0.81810 0.49277 0.05900
O 	O 	0.39960 0.05150 0.36447 -0.35100
C 	C 	0.09520 0.96250 0.53137 0.02500
O 	O 	0.48940 0.49100 0.60577 -0.38200
C 	C 	0.07070 0.01160 0.56817 -0.01400
O 	O 	0.38140 0.49480 0.65997 -0.35800
C 	C 	0.96640 0.95200 0.59057 -0.02800
H 	H 	0.95020 0.98470 0.61567 0.05600
C 	C 	0.19960 0.01910 0.50507 -0.01000
C 	C 	0.22330 0.97700 0.46677 -0.03200
H 	H 	0.17270 0.90510 0.45807 0.05500
C 	C 	0.31590 0.03200 0.43977 -0.05000
C 	C 	0.33290 0.98510 0.39417 0.28600
C 	C 	0.39530 0.14280 0.45457 -0.00000
H 	H 	0.45850 0.18480 0.43667 0.04400
C 	C 	0.37730 0.18570 0.49487 -0.08100
H 	H 	0.43080 0.25480 0.50547 0.06100
C 	C 	0.27980 0.12710 0.52047 0.03000
C 	C 	0.25500 0.17610 0.56127 -0.02100
C 	C 	0.33610 0.28460 0.57867 -0.01600
H 	H 	0.40460 0.32220 0.56397 0.05400
C 	C 	0.31450 0.33020 0.61457 -0.07300
C 	C 	0.40040 0.44800 0.62837 0.32000
C 	C 	0.21600 0.27460 0.63757 0.02400
H 	H 	0.20280 0.30680 0.66377 0.04800
C 	C 	0.13730 0.17390 0.62327 -0.09700
H 	H 	0.06960 0.13980 0.63867 0.07800
C 	C 	0.15530 0.12030 0.58607 0.03800
