data_crystal

_cell_length_a 10.89080
_cell_length_b 11.55370
_cell_length_c 16.77930
_cell_angle_alpha 90.00000
_cell_angle_beta  90.00000
_cell_angle_gamma 90.00000

_symmetry_space_group_name_	'P 1'
_symmetry_space_group_name_H-M	'P 1'

loop_
_symmetry_equiv_pos_as_xyz
  x,y,z

loop_
_atom_site_label
_atom_site_type_symbol
_atom_site_fract_x
_atom_site_fract_y
_atom_site_fract_z
_atom_site_charge
Cu	Cu	-0.00000 0.82138 0.86466 0.90700
Cu	Cu	0.00000 0.17862 0.13534 0.89400
Cu	Cu	0.13798 0.00000 -0.00000 0.86500
Cu	Cu	0.86202 0.00000 -0.00000 0.88300
H 	H 	0.31390 0.29340 0.23160 0.02400
H 	H 	0.31390 0.70660 0.76840 0.04600
H 	H 	0.68610 0.70660 0.76840 0.05600
H 	H 	0.68610 0.29340 0.23160 0.03300
H 	H 	-0.00000 0.84000 0.99700 0.26400
H 	H 	-0.00000 0.16000 0.00300 0.23100
H 	H 	0.50000 0.10940 0.06540 0.00600
H 	H 	0.50000 0.89060 0.93460 0.09000
C 	C 	0.26830 0.15670 0.10750 0.40200
C 	C 	0.26830 0.84330 0.89250 0.37900
C 	C 	0.38870 0.19470 0.14320 -0.16100
C 	C 	0.38930 0.26770 0.20930 0.07300
C 	C 	0.38870 0.80530 0.85680 -0.08700
C 	C 	0.38930 0.73230 0.79070 0.04800
C 	C 	0.73170 0.84330 0.89250 0.37600
C 	C 	0.73170 0.15670 0.10750 0.39900
C 	C 	0.61130 0.80530 0.85680 -0.08100
C 	C 	0.61070 0.73230 0.79070 0.04700
C 	C 	0.61130 0.19470 0.14320 -0.15500
C 	C 	0.61070 0.26770 0.20930 0.07100
C 	C 	0.50000 0.15890 0.11050 0.08000
C 	C 	0.50000 0.30300 0.24270 -0.12600
C 	C 	0.50000 0.84110 0.88950 0.04500
C 	C 	0.50000 0.69700 0.75730 -0.08500
S 	S 	0.50000 0.39953 0.32572 0.51700
S 	S 	0.50000 0.60047 0.67428 0.50700
O 	O 	0.27050 0.08590 0.05170 -0.45200
O 	O 	0.17510 0.79700 0.86170 -0.41400
O 	O 	0.27050 0.91410 0.94830 -0.30800
O 	O 	0.17510 0.20300 0.13830 -0.45400
O 	O 	0.38930 0.37840 0.37020 -0.34000
O 	O 	0.38930 0.62160 0.62980 -0.32400
O 	O 	0.72950 0.91410 0.94830 -0.29900
O 	O 	0.82490 0.20300 0.13830 -0.42300
O 	O 	0.72950 0.08590 0.05170 -0.44500
O 	O 	0.82490 0.79700 0.86170 -0.38100
O 	O 	0.61070 0.62160 0.62980 -0.31700
O 	O 	0.61070 0.37840 0.37020 -0.33300
O 	O 	0.00000 0.89840 0.96710 -0.64500
O 	O 	0.00000 0.10160 0.03290 -0.75700
O 	O 	0.50000 0.51370 0.28960 -0.35200
O 	O 	0.50000 0.48630 0.71040 -0.33900
Cu	Cu	0.50000 0.67862 0.36466 0.92000
Cu	Cu	0.50000 0.32138 0.63534 0.91300
Cu	Cu	0.36202 0.50000 0.50000 0.94100
Cu	Cu	0.63798 0.50000 0.50000 0.94200
H 	H 	0.18610 0.20660 0.73160 0.03700
H 	H 	0.18610 0.79340 0.26840 0.03800
H 	H 	0.81390 0.79340 0.26840 0.03100
H 	H 	0.81390 0.20660 0.73160 0.03000
H 	H 	0.00000 0.39060 0.56540 0.05600
H 	H 	-0.00000 0.60940 0.43460 0.05400
H 	H 	0.50000 0.66000 0.49700 0.26700
H 	H 	0.50000 0.34000 0.50300 0.25400
C 	C 	0.11130 0.30530 0.64320 -0.10900
C 	C 	0.11070 0.23230 0.70930 0.04500
C 	C 	0.11130 0.69470 0.35680 -0.11600
C 	C 	0.11070 0.76770 0.29070 0.07800
C 	C 	0.23170 0.34330 0.60750 0.38300
C 	C 	0.23170 0.65670 0.39250 0.38900
C 	C 	0.88870 0.69470 0.35680 -0.07400
C 	C 	0.88930 0.76770 0.29070 0.13000
C 	C 	0.88870 0.30530 0.64320 -0.06600
C 	C 	0.88930 0.23230 0.70930 0.09500
C 	C 	0.76830 0.65670 0.39250 0.38600
C 	C 	0.76830 0.34330 0.60750 0.38000
C 	C 	-0.00000 0.34110 0.61050 -0.01700
C 	C 	-0.00000 0.19700 0.74270 -0.13200
C 	C 	0.00000 0.65890 0.38950 -0.00400
C 	C 	0.00000 0.80300 0.25730 -0.17400
S 	S 	0.00000 0.10047 0.82572 0.34500
S 	S 	-0.00000 0.89953 0.17428 0.56600
O 	O 	0.11070 0.12160 0.87020 -0.29000
O 	O 	0.11070 0.87840 0.12980 -0.33900
O 	O 	0.22950 0.41410 0.55170 -0.39700
O 	O 	0.32490 0.70300 0.36170 -0.42400
O 	O 	0.22950 0.58590 0.44830 -0.39500
O 	O 	0.32490 0.29700 0.63830 -0.43600
O 	O 	0.88930 0.87840 0.12980 -0.29400
O 	O 	0.88930 0.12160 0.87020 -0.24600
O 	O 	0.77050 0.58590 0.44830 -0.37600
O 	O 	0.67510 0.29700 0.63830 -0.43100
O 	O 	0.77050 0.41410 0.55170 -0.37900
O 	O 	0.67510 0.70300 0.36170 -0.41900
O 	O 	0.00000 0.98630 0.78960 -0.27000
O 	O 	0.00000 0.01370 0.21040 -0.43300
O 	O 	0.50000 0.60160 0.46710 -0.71300
O 	O 	0.50000 0.39840 0.53290 -0.71100
