data_crystal

_cell_length_a 14.41620
_cell_length_b 14.41620
_cell_length_c 17.30400
_cell_angle_alpha 90.00000
_cell_angle_beta  90.00000
_cell_angle_gamma 120.00000

_symmetry_space_group_name_	'P 1'
_symmetry_space_group_name_H-M	'P 1'

loop_
_symmetry_equiv_pos_as_xyz
  x,y,z

loop_
_atom_site_label
_atom_site_type_symbol
_atom_site_fract_x
_atom_site_fract_y
_atom_site_fract_z
_atom_site_charge
O 	O 	0.34600 0.49950 0.66609 -0.44100
C 	C 	0.40150 0.43180 0.53360 -0.01400
H 	H 	0.33540 0.38610 0.55610 0.04900
O 	O 	0.50050 0.84650 0.66609 -0.44100
C 	C 	0.56820 0.96970 0.53360 -0.01400
H 	H 	0.61390 0.94930 0.55610 0.04900
O 	O 	0.15350 0.65400 0.66609 -0.44100
C 	C 	0.03030 0.59850 0.53360 -0.01400
H 	H 	0.05070 0.66460 0.55610 0.04900
O 	O 	0.65400 0.50050 0.16609 -0.44100
C 	C 	0.59850 0.56820 0.03360 -0.01400
H 	H 	0.66460 0.61390 0.05610 0.04900
O 	O 	0.49950 0.15350 0.16609 -0.44100
C 	C 	0.43180 0.03030 0.03360 -0.01400
H 	H 	0.38610 0.05070 0.05610 0.04900
O 	O 	0.84650 0.34600 0.16609 -0.44100
C 	C 	0.96970 0.40150 0.03360 -0.01400
H 	H 	0.94930 0.33540 0.05610 0.04900
O 	O 	0.49950 0.34600 0.33391 -0.44100
C 	C 	0.43180 0.40150 0.46640 -0.01400
H 	H 	0.38610 0.33540 0.44390 0.04900
O 	O 	0.84650 0.50050 0.33391 -0.44100
C 	C 	0.96970 0.56820 0.46640 -0.01400
H 	H 	0.94930 0.61390 0.44390 0.04900
O 	O 	0.65400 0.15350 0.33391 -0.44100
C 	C 	0.59850 0.03030 0.46640 -0.01400
H 	H 	0.66460 0.05070 0.44390 0.04900
O 	O 	0.50050 0.65400 0.83391 -0.44100
C 	C 	0.56820 0.59850 0.96640 -0.01400
H 	H 	0.61390 0.66460 0.94390 0.04900
O 	O 	0.15350 0.49950 0.83391 -0.44100
C 	C 	0.03030 0.43180 0.96640 -0.01400
H 	H 	0.05070 0.38610 0.94390 0.04900
O 	O 	0.34600 0.84650 0.83391 -0.44100
C 	C 	0.40150 0.96970 0.96640 -0.01400
H 	H 	0.33540 0.94930 0.94390 0.04900
O 	O 	0.65400 0.50050 0.33391 -0.44100
C 	C 	0.59850 0.56820 0.46640 -0.01400
H 	H 	0.66460 0.61390 0.44390 0.04900
O 	O 	0.49950 0.15350 0.33391 -0.44100
C 	C 	0.43180 0.03030 0.46640 -0.01400
H 	H 	0.38610 0.05070 0.44390 0.04900
O 	O 	0.84650 0.34600 0.33391 -0.44100
C 	C 	0.96970 0.40150 0.46640 -0.01400
H 	H 	0.94930 0.33540 0.44390 0.04900
O 	O 	0.34600 0.49950 0.83391 -0.44100
C 	C 	0.40150 0.43180 0.96640 -0.01400
H 	H 	0.33540 0.38610 0.94390 0.04900
O 	O 	0.50050 0.84650 0.83391 -0.44100
C 	C 	0.56820 0.96970 0.96640 -0.01400
H 	H 	0.61390 0.94930 0.94390 0.04900
O 	O 	0.15350 0.65400 0.83391 -0.44100
C 	C 	0.03030 0.59850 0.96640 -0.01400
H 	H 	0.05070 0.66460 0.94390 0.04900
O 	O 	0.50050 0.65400 0.66609 -0.44100
C 	C 	0.56820 0.59850 0.53360 -0.01400
H 	H 	0.61390 0.66460 0.55610 0.04900
O 	O 	0.15350 0.49950 0.66609 -0.44100
C 	C 	0.03030 0.43180 0.53360 -0.01400
H 	H 	0.05070 0.38610 0.55610 0.04900
O 	O 	0.34600 0.84650 0.66609 -0.44100
C 	C 	0.40150 0.96970 0.53360 -0.01400
H 	H 	0.33540 0.94930 0.55610 0.04900
O 	O 	0.49950 0.34600 0.16609 -0.44100
C 	C 	0.43180 0.40150 0.03360 -0.01400
H 	H 	0.38610 0.33540 0.05610 0.04900
O 	O 	0.84650 0.50050 0.16609 -0.44100
C 	C 	0.96970 0.56820 0.03360 -0.01400
H 	H 	0.94930 0.61390 0.05610 0.04900
O 	O 	0.65400 0.15350 0.16609 -0.44100
C 	C 	0.59850 0.03030 0.03360 -0.01400
H 	H 	0.66460 0.05070 0.05610 0.04900
Fe	Fe	0.25639 0.51279 0.75000 1.22300
Fe	Fe	0.48721 0.74361 0.75000 1.22300
Fe	Fe	0.25639 0.74361 0.75000 1.22300
Fe	Fe	0.74361 0.48721 0.25000 1.22300
Fe	Fe	0.51279 0.25639 0.25000 1.22300
Fe	Fe	0.74361 0.25639 0.25000 1.22300
O 	O 	0.33333 0.66667 0.75000 -0.64500
O 	O 	0.66667 0.33333 0.25000 -0.64500
C 	C 	0.43633 0.56367 0.63920 0.39200
C 	C 	0.46980 0.53020 0.56740 -0.08400
C 	C 	0.43633 0.87266 0.63920 0.39200
C 	C 	0.46980 0.93960 0.56740 -0.08400
C 	C 	0.12734 0.56367 0.63920 0.39200
C 	C 	0.06040 0.53020 0.56740 -0.08400
C 	C 	0.56367 0.43633 0.13920 0.39200
C 	C 	0.53020 0.46980 0.06740 -0.08400
C 	C 	0.56367 0.12734 0.13920 0.39200
C 	C 	0.53020 0.06040 0.06740 -0.08400
C 	C 	0.87266 0.43633 0.13920 0.39200
C 	C 	0.93960 0.46980 0.06740 -0.08400
C 	C 	0.56367 0.43633 0.36080 0.39200
C 	C 	0.53020 0.46980 0.43260 -0.08400
C 	C 	0.87266 0.43633 0.36080 0.39200
C 	C 	0.93960 0.46980 0.43260 -0.08400
C 	C 	0.56367 0.12734 0.36080 0.39200
C 	C 	0.53020 0.06040 0.43260 -0.08400
C 	C 	0.43633 0.56367 0.86080 0.39200
C 	C 	0.46980 0.53020 0.93260 -0.08400
C 	C 	0.12734 0.56367 0.86080 0.39200
C 	C 	0.06040 0.53020 0.93260 -0.08400
C 	C 	0.43633 0.87266 0.86080 0.39200
C 	C 	0.46980 0.93960 0.93260 -0.08400
