data_crystal

_cell_length_a 16.49000
_cell_length_b 16.49000
_cell_length_c 15.35600
_cell_angle_alpha 90.00000
_cell_angle_beta  90.00000
_cell_angle_gamma 120.00000

_symmetry_space_group_name_	'P 1'
_symmetry_space_group_name_H-M	'P 1'

loop_
_symmetry_equiv_pos_as_xyz
  x,y,z

loop_
_atom_site_label
_atom_site_type_symbol
_atom_site_fract_x
_atom_site_fract_y
_atom_site_fract_z
_atom_site_charge
O 	O 	0.34560 0.51890 0.65650 -0.42400
C 	C 	0.40960 0.44770 0.53090 -0.01700
H 	H 	0.34760 0.41260 0.54880 0.05100
H 	H 	0.14830 0.36190 0.78700 -0.21900
O 	O 	0.48110 0.82670 0.65650 -0.42400
C 	C 	0.55230 0.96190 0.53090 -0.01900
H 	H 	0.58740 0.93500 0.54880 0.05100
H 	H 	0.63810 0.78640 0.78700 -0.21500
O 	O 	0.17330 0.65440 0.65650 -0.42400
C 	C 	0.03810 0.59040 0.53090 -0.01400
H 	H 	0.06500 0.65240 0.54880 0.05000
H 	H 	0.21360 0.85170 0.78700 -0.21300
O 	O 	0.65440 0.48110 0.15650 -0.42400
C 	C 	0.59040 0.55230 0.03090 -0.01700
H 	H 	0.65240 0.58740 0.04880 0.05100
H 	H 	0.85170 0.63810 0.28700 -0.21600
O 	O 	0.51890 0.17330 0.15650 -0.42400
C 	C 	0.44770 0.03810 0.03090 -0.01400
H 	H 	0.41260 0.06500 0.04880 0.05000
H 	H 	0.36190 0.21360 0.28700 -0.21300
O 	O 	0.82670 0.34560 0.15650 -0.42400
C 	C 	0.96190 0.40960 0.03090 -0.01900
H 	H 	0.93500 0.34760 0.04880 0.05100
H 	H 	0.78640 0.14830 0.28700 -0.21900
O 	O 	0.51890 0.34560 0.34350 -0.42400
C 	C 	0.44770 0.40960 0.46910 -0.01700
H 	H 	0.41260 0.34760 0.45120 0.05100
H 	H 	0.36190 0.14830 0.21300 -0.21900
O 	O 	0.82670 0.48110 0.34350 -0.42400
C 	C 	0.96190 0.55230 0.46910 -0.01900
H 	H 	0.93500 0.58740 0.45120 0.05100
H 	H 	0.78640 0.63810 0.21300 -0.21500
O 	O 	0.65440 0.17330 0.34350 -0.42400
C 	C 	0.59040 0.03810 0.46910 -0.01400
H 	H 	0.65240 0.06500 0.45120 0.05000
H 	H 	0.85170 0.21360 0.21300 -0.21300
O 	O 	0.48110 0.65440 0.84350 -0.42400
C 	C 	0.55230 0.59040 0.96910 -0.01700
H 	H 	0.58740 0.65240 0.95120 0.05100
H 	H 	0.63810 0.85170 0.71300 -0.21600
O 	O 	0.17330 0.51890 0.84350 -0.42400
C 	C 	0.03810 0.44770 0.96910 -0.01400
H 	H 	0.06500 0.41260 0.95120 0.05000
H 	H 	0.21360 0.36190 0.71300 -0.21300
O 	O 	0.34560 0.82670 0.84350 -0.42400
C 	C 	0.40960 0.96190 0.96910 -0.01900
H 	H 	0.34760 0.93500 0.95120 0.05100
H 	H 	0.14830 0.78640 0.71300 -0.21900
O 	O 	0.65440 0.48110 0.34350 -0.42400
C 	C 	0.59040 0.55230 0.46910 -0.01700
H 	H 	0.65240 0.58740 0.45120 0.05000
H 	H 	0.85170 0.63810 0.21300 -0.21600
O 	O 	0.51890 0.17330 0.34350 -0.42400
C 	C 	0.44770 0.03810 0.46910 -0.01400
H 	H 	0.41260 0.06500 0.45120 0.05000
H 	H 	0.36190 0.21360 0.21300 -0.21300
O 	O 	0.82670 0.34560 0.34350 -0.42400
C 	C 	0.96190 0.40960 0.46910 -0.01900
H 	H 	0.93500 0.34760 0.45120 0.05100
H 	H 	0.78640 0.14830 0.21300 -0.21900
O 	O 	0.34560 0.51890 0.84350 -0.42400
C 	C 	0.40960 0.44770 0.96910 -0.01700
H 	H 	0.34760 0.41260 0.95120 0.05100
H 	H 	0.14830 0.36190 0.71300 -0.21900
O 	O 	0.48110 0.82670 0.84350 -0.42400
C 	C 	0.55230 0.96190 0.96910 -0.01900
H 	H 	0.58740 0.93500 0.95120 0.05100
H 	H 	0.63810 0.78640 0.71300 -0.21500
O 	O 	0.17330 0.65440 0.84350 -0.42400
C 	C 	0.03810 0.59040 0.96910 -0.01400
H 	H 	0.06500 0.65240 0.95120 0.05000
H 	H 	0.21360 0.85170 0.71300 -0.21300
O 	O 	0.48110 0.65440 0.65650 -0.42400
C 	C 	0.55230 0.59040 0.53090 -0.01700
H 	H 	0.58740 0.65240 0.54880 0.05000
H 	H 	0.63810 0.85170 0.78700 -0.21600
O 	O 	0.17330 0.51890 0.65650 -0.42400
C 	C 	0.03810 0.44770 0.53090 -0.01400
H 	H 	0.06500 0.41260 0.54880 0.05000
H 	H 	0.21360 0.36190 0.78700 -0.21300
O 	O 	0.34560 0.82670 0.65650 -0.42400
C 	C 	0.40960 0.96190 0.53090 -0.01900
H 	H 	0.34760 0.93500 0.54880 0.05100
H 	H 	0.14830 0.78640 0.78700 -0.21900
O 	O 	0.51890 0.34560 0.15650 -0.42400
C 	C 	0.44770 0.40960 0.03090 -0.01700
H 	H 	0.41260 0.34760 0.04880 0.05100
H 	H 	0.36190 0.14830 0.28700 -0.21900
O 	O 	0.82670 0.48110 0.15650 -0.42400
C 	C 	0.96190 0.55230 0.03090 -0.01900
H 	H 	0.93500 0.58740 0.04880 0.05100
H 	H 	0.78640 0.63810 0.28700 -0.21500
O 	O 	0.65440 0.17330 0.15650 -0.42400
C 	C 	0.59040 0.03810 0.03090 -0.01400
H 	H 	0.65240 0.06500 0.04880 0.05000
H 	H 	0.85170 0.21360 0.28700 -0.21300
Fe	Fe	0.26663 0.53327 0.75000 1.23500
N 	N 	0.19220 0.38440 0.75000 -0.03500
C 	C 	0.09530 0.19060 0.75000 0.50600
C 	C 	0.04245 0.08490 0.75000 -0.12500
Fe	Fe	0.46673 0.73337 0.75000 1.23500
N 	N 	0.61560 0.80780 0.75000 -0.03600
C 	C 	0.80940 0.90470 0.75000 0.50700
C 	C 	0.91510 0.95755 0.75000 -0.12700
Fe	Fe	0.26663 0.73337 0.75000 1.23500
N 	N 	0.19220 0.80780 0.75000 -0.03500
C 	C 	0.09530 0.90470 0.75000 0.50600
C 	C 	0.04245 0.95755 0.75000 -0.12500
Fe	Fe	0.73337 0.46673 0.25000 1.23500
N 	N 	0.80780 0.61560 0.25000 -0.03600
C 	C 	0.90470 0.80940 0.25000 0.50700
C 	C 	0.95755 0.91510 0.25000 -0.12700
Fe	Fe	0.53327 0.26663 0.25000 1.23500
N 	N 	0.38440 0.19220 0.25000 -0.03500
C 	C 	0.19060 0.09530 0.25000 0.50600
C 	C 	0.08490 0.04245 0.25000 -0.12500
Fe	Fe	0.73337 0.26663 0.25000 1.23500
N 	N 	0.80780 0.19220 0.25000 -0.03500
C 	C 	0.90470 0.09530 0.25000 0.50600
C 	C 	0.95755 0.04245 0.25000 -0.12500
O 	O 	0.33333 0.66667 0.75000 -0.66600
O 	O 	0.66667 0.33333 0.25000 -0.66600
C 	C 	0.42740 0.57260 0.63090 0.37700
C 	C 	0.46510 0.53490 0.56260 -0.07700
C 	C 	0.42740 0.85480 0.63090 0.37600
C 	C 	0.46510 0.93020 0.56260 -0.07500
C 	C 	0.14520 0.57260 0.63090 0.37800
C 	C 	0.06980 0.53490 0.56260 -0.07800
C 	C 	0.57260 0.42740 0.13090 0.37700
C 	C 	0.53490 0.46510 0.06260 -0.07700
C 	C 	0.57260 0.14520 0.13090 0.37800
C 	C 	0.53490 0.06980 0.06260 -0.07800
C 	C 	0.85480 0.42740 0.13090 0.37700
C 	C 	0.93020 0.46510 0.06260 -0.07500
C 	C 	0.57260 0.42740 0.36910 0.37700
C 	C 	0.53490 0.46510 0.43740 -0.07700
C 	C 	0.85480 0.42740 0.36910 0.37600
C 	C 	0.93020 0.46510 0.43740 -0.07500
C 	C 	0.57260 0.14520 0.36910 0.37800
C 	C 	0.53490 0.06980 0.43740 -0.07800
C 	C 	0.42740 0.57260 0.86910 0.37700
C 	C 	0.46510 0.53490 0.93740 -0.07700
C 	C 	0.14520 0.57260 0.86910 0.37800
C 	C 	0.06980 0.53490 0.93740 -0.07800
C 	C 	0.42740 0.85480 0.86910 0.37700
C 	C 	0.46510 0.93020 0.93740 -0.07500
C 	C 	0.23910 0.33600 0.75000 0.35800
H 	H 	0.30420 0.36870 0.75000 -0.07900
C 	C 	0.19210 0.23970 0.75000 -0.31600
H 	H 	0.22530 0.20780 0.75000 0.13500
C 	C 	0.66400 0.90310 0.75000 0.37000
H 	H 	0.63130 0.93550 0.75000 -0.08300
C 	C 	0.76030 0.95240 0.75000 -0.32300
H 	H 	0.79220 0.01750 0.75000 0.13700
C 	C 	0.09690 0.76090 0.75000 0.37500
H 	H 	0.06450 0.69580 0.75000 -0.08400
C 	C 	0.04760 0.80790 0.75000 -0.32200
H 	H 	0.98250 0.77470 0.75000 0.13600
C 	C 	0.76090 0.66400 0.25000 0.36800
H 	H 	0.69580 0.63130 0.25000 -0.08200
C 	C 	0.80790 0.76030 0.25000 -0.32200
H 	H 	0.77470 0.79220 0.25000 0.13700
C 	C 	0.33600 0.09690 0.25000 0.37600
H 	H 	0.36870 0.06450 0.25000 -0.08400
C 	C 	0.23970 0.04760 0.25000 -0.32200
H 	H 	0.20780 0.98250 0.25000 0.13600
C 	C 	0.90310 0.23910 0.25000 0.35900
H 	H 	0.93550 0.30420 0.25000 -0.07900
C 	C 	0.95240 0.19210 0.25000 -0.31700
H 	H 	0.01750 0.22530 0.25000 0.13500
C 	C 	0.33600 0.23910 0.25000 0.35800
H 	H 	0.36870 0.30420 0.25000 -0.07900
C 	C 	0.23970 0.19210 0.25000 -0.31600
H 	H 	0.20780 0.22530 0.25000 0.13500
C 	C 	0.90310 0.66400 0.25000 0.37000
H 	H 	0.93550 0.63130 0.25000 -0.08300
C 	C 	0.95240 0.76030 0.25000 -0.32300
H 	H 	0.01750 0.79220 0.25000 0.13700
C 	C 	0.76090 0.09690 0.25000 0.37500
H 	H 	0.69580 0.06450 0.25000 -0.08400
C 	C 	0.80790 0.04760 0.25000 -0.32200
H 	H 	0.77470 0.98250 0.25000 0.13600
C 	C 	0.66400 0.76090 0.75000 0.36800
H 	H 	0.63130 0.69580 0.75000 -0.08200
C 	C 	0.76030 0.80790 0.75000 -0.32200
H 	H 	0.79220 0.77470 0.75000 0.13700
C 	C 	0.09690 0.33600 0.75000 0.37600
H 	H 	0.06450 0.36870 0.75000 -0.08400
C 	C 	0.04760 0.23970 0.75000 -0.32200
H 	H 	0.98250 0.20780 0.75000 0.13600
C 	C 	0.23910 0.90310 0.75000 0.35900
H 	H 	0.30420 0.93550 0.75000 -0.07900
C 	C 	0.19210 0.95240 0.75000 -0.31700
H 	H 	0.22530 0.01750 0.75000 0.13500
N 	N 	-0.00000 -0.00000 0.75000 -0.01300
N 	N 	-0.00000 -0.00000 0.25000 -0.01300
C 	C 	0.16815 0.33630 0.67370 0.53300
H 	H 	0.18460 0.36920 0.62150 -0.13900
C 	C 	0.11980 0.23960 0.67210 -0.43800
H 	H 	0.10385 0.20770 0.61930 0.17700
C 	C 	0.66370 0.83185 0.67370 0.53000
H 	H 	0.63080 0.81540 0.62150 -0.13800
C 	C 	0.76040 0.88020 0.67210 -0.43600
H 	H 	0.79230 0.89615 0.61930 0.17600
C 	C 	0.16815 0.83185 0.67370 0.53300
H 	H 	0.18460 0.81540 0.62150 -0.13900
C 	C 	0.11980 0.88020 0.67210 -0.43800
H 	H 	0.10385 0.89615 0.61930 0.17700
C 	C 	0.83185 0.66370 0.17370 0.53000
H 	H 	0.81540 0.63080 0.12150 -0.13800
C 	C 	0.88020 0.76040 0.17210 -0.43600
H 	H 	0.89615 0.79230 0.11930 0.17600
C 	C 	0.33630 0.16815 0.17370 0.53300
H 	H 	0.36920 0.18460 0.12150 -0.13900
C 	C 	0.23960 0.11980 0.17210 -0.43800
H 	H 	0.20770 0.10385 0.11930 0.17700
C 	C 	0.83185 0.16815 0.17370 0.53300
H 	H 	0.81540 0.18460 0.12150 -0.13800
C 	C 	0.88020 0.11980 0.17210 -0.43800
H 	H 	0.89615 0.10385 0.11930 0.17700
C 	C 	0.33630 0.16815 0.32630 0.53300
H 	H 	0.36920 0.18460 0.37850 -0.13900
C 	C 	0.23960 0.11980 0.32790 -0.43800
H 	H 	0.20770 0.10385 0.38070 0.17700
C 	C 	0.83185 0.66370 0.32630 0.53000
H 	H 	0.81540 0.63080 0.37850 -0.13800
C 	C 	0.88020 0.76040 0.32790 -0.43600
H 	H 	0.89615 0.79230 0.38070 0.17600
C 	C 	0.83185 0.16815 0.32630 0.53300
H 	H 	0.81540 0.18460 0.37850 -0.13900
C 	C 	0.88020 0.11980 0.32790 -0.43800
H 	H 	0.89615 0.10385 0.38070 0.17700
C 	C 	0.66370 0.83185 0.82630 0.53000
H 	H 	0.63080 0.81540 0.87850 -0.13800
C 	C 	0.76040 0.88020 0.82790 -0.43600
H 	H 	0.79230 0.89615 0.88070 0.17600
C 	C 	0.16815 0.33630 0.82630 0.53300
H 	H 	0.18460 0.36920 0.87850 -0.13900
C 	C 	0.11980 0.23960 0.82790 -0.43800
H 	H 	0.10385 0.20770 0.88070 0.17700
C 	C 	0.16815 0.83185 0.82630 0.53300
H 	H 	0.18460 0.81540 0.87850 -0.13800
C 	C 	0.11980 0.88020 0.82790 -0.43800
H 	H 	0.10385 0.89615 0.88070 0.17700
