data_crystal

_cell_length_a 6.97950
_cell_length_b 29.50100
_cell_length_c 15.83270
_cell_angle_alpha 90.00000
_cell_angle_beta  101.45500
_cell_angle_gamma 90.00000

_symmetry_space_group_name_	'P 1'
_symmetry_space_group_name_H-M	'P 1'

loop_
_symmetry_equiv_pos_as_xyz
  x,y,z

loop_
_atom_site_label
_atom_site_type_symbol
_atom_site_fract_x
_atom_site_fract_y
_atom_site_fract_z
_atom_site_charge
U 	U 	0.98260 0.46394 0.84795 -0.00100
O 	O 	0.80130 0.42760 0.71600 -0.19700
O 	O 	0.65120 0.48327 0.76910 -0.20000
O 	O 	0.25210 0.46833 0.96610 -0.18300
O 	O 	0.12410 0.47161 0.08470 -0.18400
O 	O 	0.17200 0.09559 0.31810 -0.18900
O 	O 	0.01410 0.15932 0.26930 -0.24700
N 	N 	0.09750 0.40201 0.59010 -0.11900
N 	N 	0.76150 0.39618 0.18800 -0.12600
N 	N 	0.69710 0.21035 0.37680 -0.12100
C 	C 	0.64780 0.44970 0.71920 0.25200
C 	C 	0.45590 0.43380 0.66960 -0.00700
C 	C 	0.29800 0.46280 0.65160 -0.06600
H 	H 	0.31290 0.49400 0.66630 0.06100
C 	C 	0.11640 0.44580 0.61140 0.05000
H 	H 	0.00610 0.46530 0.59930 0.01800
C 	C 	0.25090 0.37330 0.60640 0.05300
H 	H 	0.23240 0.34220 0.59110 0.01400
C 	C 	0.43330 0.38840 0.64490 -0.07700
H 	H 	0.54210 0.36840 0.65450 0.06700
C 	C 	0.25790 0.46130 0.04500 0.25800
C 	C 	0.43610 0.43830 0.09610 0.01100
C 	C 	0.44140 0.42380 0.17890 -0.07800
H 	H 	0.33190 0.42840 0.20520 0.07700
C 	C 	0.60690 0.40250 0.22360 0.04800
H 	H 	0.61000 0.39220 0.28070 0.01700
C 	C 	0.76030 0.40950 0.10610 0.05300
H 	H 	0.87170 0.40430 0.08140 0.03400
C 	C 	0.59810 0.43050 0.05870 -0.07100
H 	H 	0.59630 0.43950 0.00100 0.08900
C 	C 	0.15950 0.13780 0.30310 0.27900
C 	C 	0.35110 0.16350 0.32940 -0.01800
C 	C 	0.36320 0.20910 0.30880 -0.07000
H 	H 	0.25220 0.22440 0.27720 0.04900
C 	C 	0.53810 0.23190 0.33470 0.03200
H 	H 	0.54530 0.26330 0.32240 0.02000
C 	C 	0.68840 0.16600 0.39640 0.04500
H 	H 	0.80140 0.15120 0.42760 0.03100
C 	C 	0.52080 0.14240 0.37210 -0.06800
H 	H 	0.51880 0.11080 0.38430 0.08100
C 	C 	0.90350 0.35560 0.47180 -0.17000
C 	C 	0.92770 0.37860 0.39630 0.22500
C 	C 	0.92440 0.35380 0.32120 -0.17200
C 	C 	0.89850 0.30670 0.31920 0.21300
C 	C 	0.88930 0.28390 0.39660 -0.16400
C 	C 	0.88480 0.30790 0.47300 0.22400
C 	C 	0.90100 0.38350 0.55130 0.00600
H 	H 	0.80800 0.40890 0.53620 0.03100
H 	H 	0.85410 0.36440 0.59450 0.04300
C 	C 	0.95520 0.42950 0.39820 -0.58900
H 	H 	0.93120 0.44120 0.33920 0.21000
H 	H 	0.08930 0.43680 0.42700 0.20000
H 	H 	0.86310 0.44340 0.42980 0.19700
C 	C 	0.94960 0.37740 0.23990 0.00800
H 	H 	0.00590 0.35580 0.20370 0.02300
H 	H 	0.04400 0.40260 0.25520 0.03100
C 	C 	0.88180 0.28090 0.23510 -0.56400
H 	H 	0.84640 0.24930 0.24360 0.19800
H 	H 	0.00740 0.28180 0.21640 0.17900
H 	H 	0.78070 0.29490 0.19100 0.18800
C 	C 	0.89440 0.23300 0.39890 -0.01500
H 	H 	0.95990 0.22320 0.45730 0.03400
H 	H 	0.97490 0.22220 0.35800 0.04900
C 	C 	0.86390 0.28300 0.55250 -0.59200
H 	H 	0.80060 0.30270 0.58870 0.20000
H 	H 	0.99350 0.27410 0.58450 0.19400
H 	H 	0.78400 0.25580 0.53670 0.19600
U 	U 	0.01740 0.96394 0.65205 0.00000
O 	O 	0.19870 0.92760 0.78400 -0.19600
O 	O 	0.34880 0.98327 0.73090 -0.20000
O 	O 	0.74790 0.96833 0.53390 -0.18400
O 	O 	0.87590 0.97161 0.41530 -0.18400
O 	O 	0.82800 0.59559 0.18190 -0.18900
O 	O 	0.98590 0.65932 0.23070 -0.24700
N 	N 	0.90250 0.90201 0.90990 -0.11900
N 	N 	0.23850 0.89618 0.31200 -0.12600
N 	N 	0.30290 0.71035 0.12320 -0.12100
C 	C 	0.35220 0.94970 0.78080 0.25200
C 	C 	0.54410 0.93380 0.83040 -0.00700
C 	C 	0.70200 0.96280 0.84840 -0.06600
H 	H 	0.68710 0.99400 0.83370 0.06100
C 	C 	0.88360 0.94580 0.88860 0.05000
H 	H 	0.99390 0.96530 0.90070 0.01800
C 	C 	0.74910 0.87330 0.89360 0.05300
H 	H 	0.76760 0.84220 0.90890 0.01400
C 	C 	0.56670 0.88840 0.85510 -0.07700
H 	H 	0.45790 0.86840 0.84550 0.06700
C 	C 	0.74210 0.96130 0.45500 0.25800
C 	C 	0.56390 0.93830 0.40390 0.01100
C 	C 	0.55860 0.92380 0.32110 -0.07800
H 	H 	0.66810 0.92840 0.29480 0.07700
C 	C 	0.39310 0.90250 0.27640 0.04800
H 	H 	0.39000 0.89220 0.21930 0.01700
C 	C 	0.23970 0.90950 0.39390 0.05300
H 	H 	0.12830 0.90430 0.41860 0.03400
C 	C 	0.40190 0.93050 0.44130 -0.07100
H 	H 	0.40370 0.93950 0.49900 0.08900
C 	C 	0.84050 0.63780 0.19690 0.27900
C 	C 	0.64890 0.66350 0.17060 -0.01800
C 	C 	0.63680 0.70910 0.19120 -0.07000
H 	H 	0.74780 0.72440 0.22280 0.04900
C 	C 	0.46190 0.73190 0.16530 0.03200
H 	H 	0.45470 0.76330 0.17760 0.02000
C 	C 	0.31160 0.66600 0.10360 0.04500
H 	H 	0.19860 0.65120 0.07240 0.03100
C 	C 	0.47920 0.64240 0.12790 -0.06800
H 	H 	0.48120 0.61080 0.11570 0.08100
C 	C 	0.09650 0.85560 0.02820 -0.17000
C 	C 	0.07230 0.87860 0.10370 0.22500
C 	C 	0.07560 0.85380 0.17880 -0.17200
C 	C 	0.10150 0.80670 0.18080 0.21300
C 	C 	0.11070 0.78390 0.10340 -0.16400
C 	C 	0.11520 0.80790 0.02700 0.22400
C 	C 	0.09900 0.88350 0.94870 0.00600
H 	H 	0.19200 0.90890 0.96380 0.03100
H 	H 	0.14590 0.86440 0.90550 0.04300
C 	C 	0.04480 0.92950 0.10180 -0.58900
H 	H 	0.06880 0.94120 0.16080 0.20900
H 	H 	0.91070 0.93680 0.07300 0.20000
H 	H 	0.13690 0.94340 0.07020 0.19600
C 	C 	0.05040 0.87740 0.26010 0.00800
H 	H 	0.99410 0.85580 0.29630 0.02300
H 	H 	0.95600 0.90260 0.24480 0.03100
C 	C 	0.11820 0.78090 0.26490 -0.56400
H 	H 	0.15360 0.74930 0.25640 0.19800
H 	H 	0.99260 0.78180 0.28360 0.17900
H 	H 	0.21930 0.79490 0.30900 0.18800
C 	C 	0.10560 0.73300 0.10110 -0.01500
H 	H 	0.04010 0.72320 0.04270 0.03400
H 	H 	0.02510 0.72220 0.14200 0.04900
C 	C 	0.13610 0.78300 0.94750 -0.59200
H 	H 	0.19940 0.80270 0.91130 0.20000
H 	H 	0.00650 0.77410 0.91550 0.19400
H 	H 	0.21600 0.75580 0.96330 0.19600
U 	U 	0.01740 0.53606 0.15205 0.00000
O 	O 	0.19870 0.57240 0.28400 -0.19600
O 	O 	0.34880 0.51673 0.23090 -0.20000
O 	O 	0.74790 0.53167 0.03390 -0.18300
O 	O 	0.87590 0.52839 0.91530 -0.18400
O 	O 	0.82800 0.90441 0.68190 -0.18900
O 	O 	0.98590 0.84068 0.73070 -0.24700
N 	N 	0.90250 0.59799 0.40990 -0.11900
N 	N 	0.23850 0.60382 0.81200 -0.12600
N 	N 	0.30290 0.78965 0.62320 -0.12100
C 	C 	0.35220 0.55030 0.28080 0.25200
C 	C 	0.54410 0.56620 0.33040 -0.00700
C 	C 	0.70200 0.53720 0.34840 -0.06600
H 	H 	0.68710 0.50600 0.33370 0.06100
C 	C 	0.88360 0.55420 0.38860 0.05000
H 	H 	0.99390 0.53470 0.40070 0.01800
C 	C 	0.74910 0.62670 0.39360 0.05300
H 	H 	0.76760 0.65780 0.40890 0.01400
C 	C 	0.56670 0.61160 0.35510 -0.07700
H 	H 	0.45790 0.63160 0.34550 0.06700
C 	C 	0.74210 0.53870 0.95500 0.25800
C 	C 	0.56390 0.56170 0.90390 0.01100
C 	C 	0.55860 0.57620 0.82110 -0.07800
H 	H 	0.66810 0.57160 0.79480 0.07700
C 	C 	0.39310 0.59750 0.77640 0.04800
H 	H 	0.39000 0.60780 0.71930 0.01700
C 	C 	0.23970 0.59050 0.89390 0.05300
H 	H 	0.12830 0.59570 0.91860 0.03400
C 	C 	0.40190 0.56950 0.94130 -0.07100
H 	H 	0.40370 0.56050 0.99900 0.08900
C 	C 	0.84050 0.86220 0.69690 0.27900
C 	C 	0.64890 0.83650 0.67060 -0.01800
C 	C 	0.63680 0.79090 0.69120 -0.07000
H 	H 	0.74780 0.77560 0.72280 0.04900
C 	C 	0.46190 0.76810 0.66530 0.03200
H 	H 	0.45470 0.73670 0.67760 0.02000
C 	C 	0.31160 0.83400 0.60360 0.04500
H 	H 	0.19860 0.84880 0.57240 0.03100
C 	C 	0.47920 0.85760 0.62790 -0.06800
H 	H 	0.48120 0.88920 0.61570 0.08100
C 	C 	0.09650 0.64440 0.52820 -0.17000
C 	C 	0.07230 0.62140 0.60370 0.22500
C 	C 	0.07560 0.64620 0.67880 -0.17200
C 	C 	0.10150 0.69330 0.68080 0.21300
C 	C 	0.11070 0.71610 0.60340 -0.16400
C 	C 	0.11520 0.69210 0.52700 0.22400
C 	C 	0.09900 0.61650 0.44870 0.00600
H 	H 	0.19200 0.59110 0.46380 0.03100
H 	H 	0.14590 0.63560 0.40550 0.04300
C 	C 	0.04480 0.57050 0.60180 -0.58900
H 	H 	0.06880 0.55880 0.66080 0.21000
H 	H 	0.91070 0.56320 0.57300 0.20000
H 	H 	0.13690 0.55660 0.57020 0.19700
C 	C 	0.05040 0.62260 0.76010 0.00800
H 	H 	0.99410 0.64420 0.79630 0.02300
H 	H 	0.95600 0.59740 0.74480 0.03100
C 	C 	0.11820 0.71910 0.76490 -0.56400
H 	H 	0.15360 0.75070 0.75640 0.19800
H 	H 	0.99260 0.71820 0.78360 0.17900
H 	H 	0.21930 0.70510 0.80900 0.18800
C 	C 	0.10560 0.76700 0.60110 -0.01500
H 	H 	0.04010 0.77680 0.54270 0.03400
H 	H 	0.02510 0.77780 0.64200 0.04900
C 	C 	0.13610 0.71700 0.44750 -0.59200
H 	H 	0.19940 0.69730 0.41130 0.20000
H 	H 	0.00650 0.72590 0.41550 0.19400
H 	H 	0.21600 0.74420 0.46330 0.19600
U 	U 	0.98260 0.03606 0.34795 0.00000
O 	O 	0.80130 0.07240 0.21600 -0.19600
O 	O 	0.65120 0.01673 0.26910 -0.20000
O 	O 	0.25210 0.03167 0.46610 -0.18400
O 	O 	0.12410 0.02839 0.58470 -0.18400
O 	O 	0.17200 0.40441 0.81810 -0.18900
O 	O 	0.01410 0.34068 0.76930 -0.24700
N 	N 	0.09750 0.09799 0.09010 -0.11900
N 	N 	0.76150 0.10382 0.68800 -0.12600
N 	N 	0.69710 0.28965 0.87680 -0.12100
C 	C 	0.64780 0.05030 0.21920 0.25200
C 	C 	0.45590 0.06620 0.16960 -0.00700
C 	C 	0.29800 0.03720 0.15160 -0.06600
H 	H 	0.31290 0.00600 0.16630 0.06100
C 	C 	0.11640 0.05420 0.11140 0.05000
H 	H 	0.00610 0.03470 0.09930 0.01800
C 	C 	0.25090 0.12670 0.10640 0.05300
H 	H 	0.23240 0.15780 0.09110 0.01400
C 	C 	0.43330 0.11160 0.14490 -0.07700
H 	H 	0.54210 0.13160 0.15450 0.06700
C 	C 	0.25790 0.03870 0.54500 0.25800
C 	C 	0.43610 0.06170 0.59610 0.01100
C 	C 	0.44140 0.07620 0.67890 -0.07800
H 	H 	0.33190 0.07160 0.70520 0.07700
C 	C 	0.60690 0.09750 0.72360 0.04800
H 	H 	0.61000 0.10780 0.78070 0.01700
C 	C 	0.76030 0.09050 0.60610 0.05300
H 	H 	0.87170 0.09570 0.58140 0.03400
C 	C 	0.59810 0.06950 0.55870 -0.07100
H 	H 	0.59630 0.06050 0.50100 0.08900
C 	C 	0.15950 0.36220 0.80310 0.27900
C 	C 	0.35110 0.33650 0.82940 -0.01800
C 	C 	0.36320 0.29090 0.80880 -0.07000
H 	H 	0.25220 0.27560 0.77720 0.04900
C 	C 	0.53810 0.26810 0.83470 0.03200
H 	H 	0.54530 0.23670 0.82240 0.02000
C 	C 	0.68840 0.33400 0.89640 0.04500
H 	H 	0.80140 0.34880 0.92760 0.03100
C 	C 	0.52080 0.35760 0.87210 -0.06800
H 	H 	0.51880 0.38920 0.88430 0.08100
C 	C 	0.90350 0.14440 0.97180 -0.17000
C 	C 	0.92770 0.12140 0.89630 0.22500
C 	C 	0.92440 0.14620 0.82120 -0.17200
C 	C 	0.89850 0.19330 0.81920 0.21300
C 	C 	0.88930 0.21610 0.89660 -0.16400
C 	C 	0.88480 0.19210 0.97300 0.22400
C 	C 	0.90100 0.11650 0.05130 0.00600
H 	H 	0.80800 0.09110 0.03620 0.03100
H 	H 	0.85410 0.13560 0.09450 0.04300
C 	C 	0.95520 0.07050 0.89820 -0.58900
H 	H 	0.93120 0.05880 0.83920 0.20900
H 	H 	0.08930 0.06320 0.92700 0.20000
H 	H 	0.86310 0.05660 0.92980 0.19600
C 	C 	0.94960 0.12260 0.73990 0.00800
H 	H 	0.00590 0.14420 0.70370 0.02300
H 	H 	0.04400 0.09740 0.75520 0.03100
C 	C 	0.88180 0.21910 0.73510 -0.56400
H 	H 	0.84640 0.25070 0.74360 0.19800
H 	H 	0.00740 0.21820 0.71640 0.17900
H 	H 	0.78070 0.20510 0.69100 0.18800
C 	C 	0.89440 0.26700 0.89890 -0.01500
H 	H 	0.95990 0.27680 0.95730 0.03400
H 	H 	0.97490 0.27780 0.85800 0.04900
C 	C 	0.86390 0.21700 0.05250 -0.59200
H 	H 	0.80060 0.19730 0.08870 0.20000
H 	H 	0.99350 0.22590 0.08450 0.19400
H 	H 	0.78400 0.24420 0.03670 0.19600
