data_crystal

_cell_length_a 10.28000
_cell_length_b 32.06700
_cell_length_c 6.94030
_cell_angle_alpha 90.00000
_cell_angle_beta  90.00000
_cell_angle_gamma 90.00000

_symmetry_space_group_name_	'P 1'
_symmetry_space_group_name_H-M	'P 1'

loop_
_symmetry_equiv_pos_as_xyz
  x,y,z

loop_
_atom_site_label
_atom_site_type_symbol
_atom_site_fract_x
_atom_site_fract_y
_atom_site_fract_z
_atom_site_charge
C 	C 	0.43030 0.27060 0.89000 0.01300
C 	C 	0.43100 0.31440 0.89100 0.03300
C 	C 	0.93030 0.77060 0.89000 0.05400
C 	C 	0.93100 0.81440 0.89100 0.09100
C 	C 	0.56970 0.72940 0.39000 -0.00200
C 	C 	0.56900 0.68560 0.39100 0.01000
C 	C 	0.06970 0.22940 0.39000 -0.02300
C 	C 	0.06900 0.18560 0.39100 -0.00400
C 	C 	0.56970 0.27060 0.61000 -0.00900
C 	C 	0.56900 0.31440 0.60900 0.01600
C 	C 	0.06970 0.77060 0.61000 -0.03000
C 	C 	0.06900 0.81440 0.60900 0.00200
C 	C 	0.43030 0.72940 0.11000 -0.02800
C 	C 	0.43100 0.68560 0.10900 -0.01700
C 	C 	0.93030 0.22940 0.11000 0.01500
C 	C 	0.93100 0.18560 0.10900 0.04500
C 	C 	0.56970 0.72940 0.11000 -0.02600
C 	C 	0.56900 0.68560 0.10900 -0.01200
C 	C 	0.06970 0.22940 0.11000 -0.04800
C 	C 	0.06900 0.18560 0.10900 -0.02700
C 	C 	0.43030 0.27060 0.61000 -0.01000
C 	C 	0.43100 0.31440 0.60900 0.01100
C 	C 	0.93030 0.77060 0.61000 0.03200
C 	C 	0.93100 0.81440 0.60900 0.07100
C 	C 	0.43030 0.72940 0.39000 -0.00300
C 	C 	0.43100 0.68560 0.39100 0.00500
C 	C 	0.93030 0.22940 0.39000 0.03900
C 	C 	0.93100 0.18560 0.39100 0.06600
C 	C 	0.56970 0.27060 0.89000 0.01500
C 	C 	0.56900 0.31440 0.89100 0.03800
C 	C 	0.06970 0.77060 0.89000 -0.00500
C 	C 	0.06900 0.81440 0.89100 0.02500
Zn	Zn	0.50000 0.40383 0.25000 1.20400
O 	O 	0.50000 0.46630 0.25000 -0.74300
Zn	Zn	0.00000 0.90383 0.25000 1.19500
O 	O 	-0.00000 0.96630 0.25000 -0.73700
Zn	Zn	0.50000 0.59617 0.75000 1.22000
O 	O 	0.50000 0.53370 0.75000 -0.70100
Zn	Zn	-0.00000 0.09617 0.75000 1.21000
O 	O 	-0.00000 0.03370 0.75000 -0.72300
Zn	Zn	0.50000 0.50000 -0.00000 1.13700
Zn	Zn	-0.00000 0.00000 -0.00000 1.12200
Zn	Zn	0.50000 0.50000 0.50000 1.16200
Zn	Zn	0.00000 0.00000 0.50000 1.14700
O 	O 	0.16230 0.13040 0.75000 -0.45200
O 	O 	0.26100 0.07230 0.75000 -0.35300
C 	C 	0.38800 0.13490 0.75000 -0.09500
C 	C 	0.26500 0.11130 0.75000 0.37700
C 	C 	0.38590 0.17960 0.75000 -0.02300
H 	H 	0.30710 0.19380 0.75000 0.07000
O 	O 	0.66230 0.63040 0.75000 -0.43900
O 	O 	0.76100 0.57230 0.75000 -0.33100
C 	C 	0.88800 0.63490 0.75000 -0.03400
C 	C 	0.76500 0.61130 0.75000 0.35800
C 	C 	0.88590 0.67960 0.75000 0.01700
H 	H 	0.80710 0.69380 0.75000 0.06200
O 	O 	0.83770 0.86960 0.25000 -0.45900
O 	O 	0.73900 0.92770 0.25000 -0.34800
C 	C 	0.61200 0.86510 0.25000 -0.12100
C 	C 	0.73500 0.88870 0.25000 0.37500
C 	C 	0.61410 0.82040 0.25000 -0.00600
H 	H 	0.69290 0.80620 0.25000 0.04500
O 	O 	0.33770 0.36960 0.25000 -0.48400
O 	O 	0.23900 0.42770 0.25000 -0.38300
C 	C 	0.11200 0.36510 0.25000 -0.11400
C 	C 	0.23500 0.38870 0.25000 0.37400
C 	C 	0.11410 0.32040 0.25000 -0.00400
H 	H 	0.19290 0.30620 0.25000 0.04400
O 	O 	0.83770 0.13040 0.75000 -0.42200
O 	O 	0.73900 0.07230 0.75000 -0.33200
C 	C 	0.61200 0.13490 0.75000 -0.08900
C 	C 	0.73500 0.11130 0.75000 0.36700
C 	C 	0.61410 0.17960 0.75000 -0.02700
H 	H 	0.69290 0.19380 0.75000 0.07200
O 	O 	0.33770 0.63040 0.75000 -0.44300
O 	O 	0.23900 0.57230 0.75000 -0.35100
C 	C 	0.11200 0.63490 0.75000 -0.07300
C 	C 	0.23500 0.61130 0.75000 0.36200
C 	C 	0.11410 0.67960 0.75000 -0.03000
H 	H 	0.19290 0.69380 0.75000 0.07300
O 	O 	0.16230 0.86960 0.25000 -0.49000
O 	O 	0.26100 0.92770 0.25000 -0.37000
C 	C 	0.38800 0.86510 0.25000 -0.12700
C 	C 	0.26500 0.88870 0.25000 0.38400
C 	C 	0.38590 0.82040 0.25000 -0.00300
H 	H 	0.30710 0.80620 0.25000 0.04200
O 	O 	0.66230 0.36960 0.25000 -0.48000
O 	O 	0.76100 0.42770 0.25000 -0.36300
C 	C 	0.88800 0.36510 0.25000 -0.07300
C 	C 	0.76500 0.38870 0.25000 0.36900
C 	C 	0.88590 0.32040 0.25000 0.04500
H 	H 	0.80710 0.30620 0.25000 0.03200
N 	N 	0.50000 0.40470 0.59110 -0.18700
N 	N 	0.50000 0.44390 0.66130 -0.20000
N 	N 	0.00000 0.90470 0.59110 -0.19800
N 	N 	-0.00000 0.94390 0.66130 -0.19700
N 	N 	0.50000 0.59530 0.09110 -0.21200
N 	N 	0.50000 0.55610 0.16130 -0.21900
N 	N 	-0.00000 0.09530 0.09110 -0.22400
N 	N 	-0.00000 0.05610 0.16130 -0.22800
N 	N 	0.50000 0.40470 0.90890 -0.16300
N 	N 	0.50000 0.44390 0.83870 -0.18200
N 	N 	0.00000 0.90470 0.90890 -0.17300
N 	N 	-0.00000 0.94390 0.83870 -0.17900
N 	N 	0.50000 0.59530 0.40890 -0.18800
N 	N 	0.50000 0.55610 0.33870 -0.20700
N 	N 	0.00000 0.09530 0.40890 -0.20000
N 	N 	0.00000 0.05610 0.33870 -0.21600
C 	C 	0.50000 0.11320 0.75000 0.03700
H 	H 	0.50000 0.08420 0.75000 0.04100
C 	C 	0.50000 0.20090 0.75000 0.02700
C 	C 	0.50000 0.24820 0.75000 -0.01000
C 	C 	0.50000 0.33510 0.75000 -0.08100
C 	C 	0.50000 0.38120 0.75000 0.16200
C 	C 	0.00000 0.61320 0.75000 -0.04700
H 	H 	-0.00000 0.58420 0.75000 0.05600
C 	C 	-0.00000 0.70090 0.75000 -0.01500
C 	C 	-0.00000 0.74820 0.75000 -0.05800
C 	C 	-0.00000 0.83510 0.75000 -0.16000
C 	C 	-0.00000 0.88120 0.75000 0.17100
C 	C 	0.50000 0.88680 0.25000 0.05800
H 	H 	0.50000 0.91580 0.25000 0.02800
C 	C 	0.50000 0.79910 0.25000 -0.01000
C 	C 	0.50000 0.75180 0.25000 0.00800
C 	C 	0.50000 0.66490 0.25000 -0.05900
C 	C 	0.50000 0.61880 0.25000 0.13200
C 	C 	-0.00000 0.38680 0.25000 -0.01900
H 	H 	0.00000 0.41580 0.25000 0.03200
C 	C 	-0.00000 0.29910 0.25000 -0.05600
C 	C 	-0.00000 0.25180 0.25000 -0.04000
C 	C 	0.00000 0.16490 0.25000 -0.14100
C 	C 	-0.00000 0.11880 0.25000 0.13800
