data_crystal

_cell_length_a 24.97200
_cell_length_b 24.97200
_cell_length_c 9.85800
_cell_angle_alpha 90.00000
_cell_angle_beta  90.00000
_cell_angle_gamma 120.00000

_symmetry_space_group_name_	'P 1'
_symmetry_space_group_name_H-M	'P 1'

loop_
_symmetry_equiv_pos_as_xyz
  x,y,z

loop_
_atom_site_label
_atom_site_type_symbol
_atom_site_fract_x
_atom_site_fract_y
_atom_site_fract_z
_atom_site_charge
O 	O 	0.43080 0.76920 0.48770 -0.53100
O 	O 	0.44530 0.68800 0.39370 -0.02400
O 	O 	0.55320 0.42620 0.87450 -0.32500
O 	O 	0.61320 0.47220 0.68300 -0.36100
C 	C 	0.45080 0.70470 0.62520 -0.26100
C 	C 	0.47360 0.66280 0.62270 0.11400
C 	C 	0.43670 0.72460 0.49190 0.65600
C 	C 	0.51280 0.60240 0.77700 0.02400
C 	C 	0.48760 0.55380 0.86910 0.00000
C 	C 	0.50950 0.51250 0.87480 0.03900
C 	C 	0.55660 0.51970 0.78820 -0.09700
C 	C 	0.58180 0.56830 0.69580 0.06100
C 	C 	0.55990 0.60960 0.69000 -0.03100
C 	C 	0.57540 0.47300 0.78700 0.28800
O 	O 	0.42080 0.69840 0.39210 -0.64900
O 	O 	0.23080 0.66160 0.48770 -0.53000
O 	O 	0.31200 0.75730 0.39370 -0.02500
O 	O 	0.57380 0.12700 0.87450 -0.32600
O 	O 	0.52780 0.14100 0.68300 -0.36200
C 	C 	0.29530 0.74610 0.62520 -0.26200
C 	C 	0.33720 0.81080 0.62270 0.11300
C 	C 	0.27540 0.71210 0.49190 0.65500
C 	C 	0.39760 0.91040 0.77700 0.02300
C 	C 	0.44620 0.93380 0.86910 -0.00100
C 	C 	0.48750 0.99700 0.87480 0.03900
C 	C 	0.48030 0.03690 0.78820 -0.09800
C 	C 	0.43170 0.01350 0.69580 0.06000
C 	C 	0.39040 0.95030 0.69000 -0.03200
C 	C 	0.52700 0.10240 0.78700 0.28700
O 	O 	0.30160 0.72240 0.39210 -0.65000
O 	O 	0.33840 0.56920 0.48770 -0.53100
O 	O 	0.24270 0.55470 0.39370 -0.02500
O 	O 	0.87300 0.44680 0.87450 -0.32600
O 	O 	0.85900 0.38680 0.68300 -0.36200
C 	C 	0.25390 0.54920 0.62520 -0.26200
C 	C 	0.18920 0.52640 0.62270 0.11300
C 	C 	0.28790 0.56330 0.49190 0.65500
C 	C 	0.08960 0.48720 0.77700 0.02300
C 	C 	0.06620 0.51240 0.86910 -0.00100
C 	C 	0.00300 0.49050 0.87480 0.03900
C 	C 	0.96310 0.44340 0.78820 -0.09800
C 	C 	0.98650 0.41820 0.69580 0.06000
C 	C 	0.04970 0.44010 0.69000 -0.03200
C 	C 	0.89760 0.42460 0.78700 0.28700
O 	O 	0.27760 0.57920 0.39210 -0.65000
O 	O 	0.43080 0.76920 0.01230 -0.53200
O 	O 	0.44530 0.68800 0.10630 -0.02500
O 	O 	0.55320 0.42620 0.62550 -0.32600
O 	O 	0.61320 0.47220 0.81700 -0.36200
C 	C 	0.45080 0.70470 0.87480 -0.26200
C 	C 	0.47360 0.66280 0.87730 0.11300
C 	C 	0.43670 0.72460 0.00810 0.65400
C 	C 	0.51280 0.60240 0.72300 0.02300
C 	C 	0.48760 0.55380 0.63090 -0.00100
C 	C 	0.50950 0.51250 0.62520 0.03800
C 	C 	0.55660 0.51970 0.71180 -0.09700
C 	C 	0.58180 0.56830 0.80420 0.06000
C 	C 	0.55990 0.60960 0.81000 -0.03200
C 	C 	0.57540 0.47300 0.71300 0.28700
O 	O 	0.42080 0.69840 0.10790 -0.65000
O 	O 	0.23080 0.66160 0.01230 -0.53200
O 	O 	0.31200 0.75730 0.10630 -0.02500
O 	O 	0.57380 0.12700 0.62550 -0.32600
O 	O 	0.52780 0.14100 0.81700 -0.36200
C 	C 	0.29530 0.74610 0.87480 -0.26200
C 	C 	0.33720 0.81080 0.87730 0.11300
C 	C 	0.27540 0.71210 0.00810 0.65400
C 	C 	0.39760 0.91040 0.72300 0.02300
C 	C 	0.44620 0.93380 0.63090 -0.00100
C 	C 	0.48750 0.99700 0.62520 0.03800
C 	C 	0.48030 0.03690 0.71180 -0.09800
C 	C 	0.43170 0.01350 0.80420 0.06000
C 	C 	0.39040 0.95030 0.81000 -0.03200
C 	C 	0.52700 0.10240 0.71300 0.28700
O 	O 	0.30160 0.72240 0.10790 -0.65000
O 	O 	0.33840 0.56920 0.01230 -0.53200
O 	O 	0.24270 0.55470 0.10630 -0.02500
O 	O 	0.87300 0.44680 0.62550 -0.32600
O 	O 	0.85900 0.38680 0.81700 -0.36200
C 	C 	0.25390 0.54920 0.87480 -0.26200
C 	C 	0.18920 0.52640 0.87730 0.11300
C 	C 	0.28790 0.56330 0.00810 0.65400
C 	C 	0.08960 0.48720 0.72300 0.02300
C 	C 	0.06620 0.51240 0.63090 -0.00100
C 	C 	0.00300 0.49050 0.62520 0.03800
C 	C 	0.96310 0.44340 0.71180 -0.09700
C 	C 	0.98650 0.41820 0.80420 0.06000
C 	C 	0.04970 0.44010 0.81000 -0.03200
C 	C 	0.89760 0.42460 0.71300 0.28700
O 	O 	0.27760 0.57920 0.10790 -0.65000
O 	O 	0.76920 0.43080 0.51230 -0.53200
O 	O 	0.68800 0.44530 0.60630 -0.02500
O 	O 	0.42620 0.55320 0.12550 -0.32600
O 	O 	0.47220 0.61320 0.31700 -0.36200
C 	C 	0.70470 0.45080 0.37480 -0.26200
C 	C 	0.66280 0.47360 0.37730 0.11300
C 	C 	0.72460 0.43670 0.50810 0.65500
C 	C 	0.60240 0.51280 0.22300 0.02300
C 	C 	0.55380 0.48760 0.13090 -0.00100
C 	C 	0.51250 0.50950 0.12520 0.03800
C 	C 	0.51970 0.55660 0.21180 -0.09800
C 	C 	0.56830 0.58180 0.30420 0.06000
C 	C 	0.60960 0.55990 0.31000 -0.03200
C 	C 	0.47300 0.57540 0.21300 0.28700
O 	O 	0.69840 0.42080 0.60790 -0.65000
O 	O 	0.66160 0.23080 0.51230 -0.53100
O 	O 	0.75730 0.31200 0.60630 -0.02500
O 	O 	0.12700 0.57380 0.12550 -0.32600
O 	O 	0.14100 0.52780 0.31700 -0.36200
C 	C 	0.74610 0.29530 0.37480 -0.26200
C 	C 	0.81080 0.33720 0.37730 0.11300
C 	C 	0.71210 0.27540 0.50810 0.65500
C 	C 	0.91040 0.39760 0.22300 0.02300
C 	C 	0.93380 0.44620 0.13090 -0.00100
C 	C 	0.99700 0.48750 0.12520 0.03900
C 	C 	0.03690 0.48030 0.21180 -0.09800
C 	C 	0.01350 0.43170 0.30420 0.06000
C 	C 	0.95030 0.39040 0.31000 -0.03200
C 	C 	0.10240 0.52700 0.21300 0.28700
O 	O 	0.72240 0.30160 0.60790 -0.65000
O 	O 	0.56920 0.33840 0.51230 -0.53100
O 	O 	0.55470 0.24270 0.60630 -0.02500
O 	O 	0.44680 0.87300 0.12550 -0.32600
O 	O 	0.38680 0.85900 0.31700 -0.36200
C 	C 	0.54920 0.25390 0.37480 -0.26200
C 	C 	0.52640 0.18920 0.37730 0.11300
C 	C 	0.56330 0.28790 0.50810 0.65500
C 	C 	0.48720 0.08960 0.22300 0.02300
C 	C 	0.51240 0.06620 0.13090 -0.00100
C 	C 	0.49050 0.00300 0.12520 0.03900
C 	C 	0.44340 0.96310 0.21180 -0.09800
C 	C 	0.41820 0.98650 0.30420 0.06000
C 	C 	0.44010 0.04970 0.31000 -0.03200
C 	C 	0.42460 0.89760 0.21300 0.28700
O 	O 	0.57920 0.27760 0.60790 -0.65000
O 	O 	0.76920 0.43080 0.98770 -0.53200
O 	O 	0.68800 0.44530 0.89370 -0.02500
O 	O 	0.42620 0.55320 0.37450 -0.32600
O 	O 	0.47220 0.61320 0.18300 -0.36200
C 	C 	0.70470 0.45080 0.12520 -0.26200
C 	C 	0.66280 0.47360 0.12270 0.11300
C 	C 	0.72460 0.43670 0.99190 0.65400
C 	C 	0.60240 0.51280 0.27700 0.02300
C 	C 	0.55380 0.48760 0.36910 -0.00100
C 	C 	0.51250 0.50950 0.37480 0.03800
C 	C 	0.51970 0.55660 0.28820 -0.09700
C 	C 	0.56830 0.58180 0.19580 0.06000
C 	C 	0.60960 0.55990 0.19000 -0.03200
C 	C 	0.47300 0.57540 0.28700 0.28700
O 	O 	0.69840 0.42080 0.89210 -0.65000
O 	O 	0.66160 0.23080 0.98770 -0.53200
O 	O 	0.75730 0.31200 0.89370 -0.02500
O 	O 	0.12700 0.57380 0.37450 -0.32600
O 	O 	0.14100 0.52780 0.18300 -0.36200
C 	C 	0.74610 0.29530 0.12520 -0.26200
C 	C 	0.81080 0.33720 0.12270 0.11300
C 	C 	0.71210 0.27540 0.99190 0.65400
C 	C 	0.91040 0.39760 0.27700 0.02300
C 	C 	0.93380 0.44620 0.36910 -0.00100
C 	C 	0.99700 0.48750 0.37480 0.03800
C 	C 	0.03690 0.48030 0.28820 -0.09800
C 	C 	0.01350 0.43170 0.19580 0.06000
C 	C 	0.95030 0.39040 0.19000 -0.03200
C 	C 	0.10240 0.52700 0.28700 0.28700
O 	O 	0.72240 0.30160 0.89210 -0.65000
O 	O 	0.56920 0.33840 0.98770 -0.53200
O 	O 	0.55470 0.24270 0.89370 -0.02500
O 	O 	0.44680 0.87300 0.37450 -0.32600
O 	O 	0.38680 0.85900 0.18300 -0.36200
C 	C 	0.54920 0.25390 0.12520 -0.26200
C 	C 	0.52640 0.18920 0.12270 0.11300
C 	C 	0.56330 0.28790 0.99190 0.65400
C 	C 	0.48720 0.08960 0.27700 0.02300
C 	C 	0.51240 0.06620 0.36910 -0.00100
C 	C 	0.49050 0.00300 0.37480 0.03800
C 	C 	0.44340 0.96310 0.28820 -0.09700
C 	C 	0.41820 0.98650 0.19580 0.06000
C 	C 	0.44010 0.04970 0.19000 -0.03200
C 	C 	0.42460 0.89760 0.28700 0.28700
O 	O 	0.57920 0.27760 0.89210 -0.65000
Sm	Sm	0.39828 0.77145 0.25000 2.42800
Sm	Sm	0.22855 0.62683 0.25000 2.42800
Sm	Sm	0.37317 0.60172 0.25000 2.42800
Sm	Sm	0.77145 0.39828 0.75000 2.42800
Sm	Sm	0.62683 0.22855 0.75000 2.42800
Sm	Sm	0.60172 0.37317 0.75000 2.42800
O 	O 	0.33333 0.66667 0.18800 -0.46900
O 	O 	0.33333 0.66667 0.31200 -0.46900
O 	O 	0.66667 0.33333 0.81200 -0.46900
O 	O 	0.66667 0.33333 0.68800 -0.46900
C 	C 	0.43930 0.72380 0.75000 0.17700
C 	C 	0.48820 0.64490 0.75000 -0.07200
C 	C 	0.27620 0.71550 0.75000 0.17700
C 	C 	0.35510 0.84330 0.75000 -0.07200
C 	C 	0.28450 0.56070 0.75000 0.17700
C 	C 	0.15670 0.51180 0.75000 -0.07200
C 	C 	0.72380 0.43930 0.25000 0.17700
C 	C 	0.64490 0.48820 0.25000 -0.07200
C 	C 	0.71550 0.27620 0.25000 0.17700
C 	C 	0.84330 0.35510 0.25000 -0.07200
C 	C 	0.56070 0.28450 0.25000 0.17700
C 	C 	0.51180 0.15670 0.25000 -0.07200
