data_crystal

_cell_length_a 15.52850
_cell_length_b 15.75420
_cell_length_c 15.86910
_cell_angle_alpha 107.60400
_cell_angle_beta  109.57300
_cell_angle_gamma 109.80800

_symmetry_space_group_name_	'P 1'
_symmetry_space_group_name_H-M	'P 1'

loop_
_symmetry_equiv_pos_as_xyz
  x,y,z

loop_
_atom_site_label
_atom_site_type_symbol
_atom_site_fract_x
_atom_site_fract_y
_atom_site_fract_z
_atom_site_charge
Zn	Zn	0.04769 0.30589 0.92891 1.21100
Zn	Zn	0.40677 0.25939 0.88314 1.20400
O 	O 	0.53810 0.32480 0.00930 -0.44600
C 	C 	0.31160 0.59180 0.30250 0.04000
H 	H 	0.32410 0.64100 0.28060 0.03500
O 	O 	0.92480 0.17210 0.85970 -0.45700
O 	O 	0.02600 0.12990 0.95330 -0.34100
O 	O 	0.19130 0.52430 0.09490 -0.31300
C 	C 	0.37610 0.61790 0.40130 -0.10300
H 	H 	0.43100 0.68450 0.44470 0.07500
C 	C 	0.22900 0.49410 0.23590 -0.11200
N 	N 	0.99420 0.36640 0.83770 -0.26500
C 	C 	0.07460 0.79530 0.58310 -0.12100
H 	H 	0.01150 0.75920 0.52280 0.08100
O 	O 	0.43390 0.22970 0.04780 -0.33400
C 	C 	0.21280 0.42370 0.27220 0.03900
H 	H 	0.15710 0.35750 0.22880 0.03200
C 	C 	0.86270 0.92950 0.86250 0.02500
H 	H 	0.92730 0.94590 0.91210 0.04700
C 	C 	0.27510 0.44790 0.36860 -0.10400
H 	H 	0.26130 0.39860 0.39010 0.07000
N 	N 	0.45710 0.34320 0.81530 -0.26200
C 	C 	0.95500 0.49880 0.63840 0.05200
C 	C 	0.70060 0.43780 0.21370 0.02600
H 	H 	0.70660 0.46790 0.17230 0.04500
C 	C 	0.13340 0.88950 0.61150 0.05200
H 	H 	0.11070 0.92060 0.57440 0.02700
C 	C 	0.77910 0.48350 0.31050 -0.09500
H 	H 	0.83770 0.54520 0.33420 0.07500
N 	N 	0.93660 0.58790 0.51180 -0.13300
C 	C 	0.77510 0.44180 0.37460 0.03200
N 	N 	0.23440 0.22310 0.98290 -0.36500
H 	H 	0.28250 0.20670 0.00090 0.17600
H 	H 	0.18560 0.20590 0.99880 0.17000
N 	N 	0.52100 0.66910 0.59220 -0.13500
C 	C 	0.77900 0.83250 0.81490 -0.09100
H 	H 	0.78750 0.78490 0.83490 0.06500
O 	O 	0.09200 0.37290 0.07130 -0.47200
C 	C 	0.61030 0.34520 0.17590 -0.10000
C 	C 	0.36090 0.54710 0.43680 0.03900
C 	C 	0.09870 0.74300 0.63630 0.04800
C 	C 	0.48670 0.47060 0.72610 0.06900
C 	C 	0.68290 0.80360 0.73840 0.03100
C 	C 	0.58460 0.63560 0.73040 -0.12500
H 	H 	0.63570 0.65900 0.79600 0.07500
N 	N 	0.20510 0.37160 0.86680 -0.06300
C 	C 	0.19770 0.79330 0.71850 -0.11600
H 	H 	0.22000 0.76020 0.75330 0.07600
C 	C 	0.49900 0.53810 0.67800 0.05400
N 	N 	0.28530 0.36770 0.86250 -0.06300
C 	C 	0.60430 0.30300 0.23970 0.02800
H 	H 	0.54490 0.24210 0.21640 0.03800
C 	C 	0.68510 0.34960 0.33770 -0.09500
H 	H 	0.67970 0.31970 0.37940 0.06600
C 	C 	0.59380 0.69830 0.68470 0.08200
C 	C 	0.75320 0.97420 0.75950 0.03300
H 	H 	0.74400 0.02170 0.73970 0.03600
C 	C 	0.96600 0.45210 0.70790 0.08700
C 	C 	0.86390 0.49430 0.48060 0.08400
C 	C 	0.53660 0.50790 0.82960 -0.14100
H 	H 	0.58180 0.57760 0.87190 0.07900
C 	C 	0.67240 0.87940 0.71330 -0.09500
H 	H 	0.60800 0.86330 0.66360 0.07100
C 	C 	0.23520 0.94750 0.70160 -0.12800
C 	C 	0.16720 0.46280 0.12500 0.36500
C 	C 	0.86920 0.44630 0.54210 -0.12400
H 	H 	0.81650 0.38080 0.51880 0.07600
C 	C 	0.85030 0.00360 0.83590 -0.10200
C 	C 	0.42370 0.36520 0.66870 -0.14000
H 	H 	0.39000 0.33550 0.59840 0.08300
C 	C 	0.93260 0.34920 0.67220 -0.16200
H 	H 	0.89950 0.30620 0.60300 0.09000
C 	C 	0.43670 0.57430 0.53990 0.07800
C 	C 	0.51960 0.44220 0.87060 0.09200
H 	H 	0.55400 0.46930 0.94070 -0.01000
N 	N 	0.30560 0.30530 0.90190 -0.26500
C 	C 	0.01190 0.50800 0.80990 -0.16100
H 	H 	0.03470 0.57780 0.83770 0.09400
C 	C 	0.02570 0.46570 0.87250 0.10000
H 	H 	0.05810 0.50730 0.94200 -0.00800
C 	C 	0.02920 0.59500 0.67010 -0.12600
H 	H 	0.08610 0.63180 0.73530 0.07600
C 	C 	0.52150 0.29650 0.07200 0.33500
C 	C 	0.42430 0.50810 0.58090 -0.12300
H 	H 	0.36580 0.44330 0.54350 0.07600
C 	C 	0.94150 0.10790 0.88700 0.35400
C 	C 	0.02070 0.63900 0.60570 0.07500
N 	N 	0.17070 0.31360 0.90920 -0.25900
C 	C 	0.26520 0.89770 0.74900 0.05200
H 	H 	0.33240 0.93190 0.80390 0.03300
C 	C 	0.94850 0.31090 0.73890 0.10700
H 	H 	0.92570 0.24120 0.71300 -0.01900
C 	C 	0.41110 0.30570 0.71430 0.08300
H 	H 	0.36850 0.23540 0.67380 0.00200
C 	C 	0.23520 0.27520 0.93020 0.22300
O 	O 	0.37860 0.10530 0.81710 -0.39200
C 	C 	0.29140 0.05120 0.73290 0.30600
O 	O 	0.26030 0.09890 0.68730 -0.30600
Zn	Zn	0.95231 0.69411 0.07109 1.21000
Zn	Zn	0.59323 0.74061 0.11686 1.20300
O 	O 	0.46190 0.67520 0.99070 -0.44700
C 	C 	0.68840 0.40820 0.69750 0.03900
H 	H 	0.67590 0.35900 0.71940 0.03400
O 	O 	0.07520 0.82790 0.14030 -0.45800
O 	O 	0.97400 0.87010 0.04670 -0.34100
O 	O 	0.80870 0.47570 0.90510 -0.31300
C 	C 	0.62390 0.38210 0.59870 -0.10300
H 	H 	0.56900 0.31550 0.55530 0.07500
C 	C 	0.77100 0.50590 0.76410 -0.11200
N 	N 	0.00580 0.63360 0.16230 -0.26500
C 	C 	0.92540 0.20470 0.41690 -0.12100
H 	H 	0.98850 0.24080 0.47720 0.08100
O 	O 	0.56610 0.77030 0.95220 -0.33400
C 	C 	0.78720 0.57630 0.72780 0.03900
H 	H 	0.84290 0.64250 0.77120 0.03200
C 	C 	0.13730 0.07050 0.13750 0.02500
H 	H 	0.07270 0.05410 0.08790 0.04700
C 	C 	0.72490 0.55210 0.63140 -0.10400
H 	H 	0.73870 0.60140 0.60990 0.07000
N 	N 	0.54290 0.65680 0.18470 -0.26200
C 	C 	0.04500 0.50120 0.36160 0.05200
C 	C 	0.29940 0.56220 0.78630 0.02600
H 	H 	0.29340 0.53210 0.82770 0.04500
C 	C 	0.86660 0.11050 0.38850 0.05200
H 	H 	0.88930 0.07940 0.42560 0.02700
C 	C 	0.22090 0.51650 0.68950 -0.09500
H 	H 	0.16230 0.45480 0.66580 0.07500
N 	N 	0.06340 0.41210 0.48820 -0.13300
C 	C 	0.22490 0.55820 0.62540 0.03200
N 	N 	0.76560 0.77690 0.01710 -0.36500
H 	H 	0.71750 0.79330 0.99910 0.17600
H 	H 	0.81440 0.79410 0.00120 0.17000
N 	N 	0.47900 0.33090 0.40780 -0.13500
C 	C 	0.22100 0.16750 0.18510 -0.09100
H 	H 	0.21250 0.21510 0.16510 0.06500
O 	O 	0.90800 0.62710 0.92870 -0.47200
C 	C 	0.38970 0.65480 0.82410 -0.10000
C 	C 	0.63910 0.45290 0.56320 0.03900
C 	C 	0.90130 0.25700 0.36370 0.04800
C 	C 	0.51330 0.52940 0.27390 0.06900
C 	C 	0.31710 0.19640 0.26160 0.03100
C 	C 	0.41540 0.36440 0.26960 -0.12500
H 	H 	0.36430 0.34100 0.20400 0.07500
N 	N 	0.79490 0.62840 0.13320 -0.06300
C 	C 	0.80230 0.20670 0.28150 -0.11600
H 	H 	0.78000 0.23980 0.24670 0.07600
C 	C 	0.50100 0.46190 0.32200 0.05400
N 	N 	0.71470 0.63230 0.13750 -0.06300
C 	C 	0.39570 0.69700 0.76030 0.02800
H 	H 	0.45510 0.75790 0.78360 0.03800
C 	C 	0.31490 0.65040 0.66230 -0.09500
H 	H 	0.32030 0.68030 0.62060 0.06600
C 	C 	0.40620 0.30170 0.31530 0.08200
C 	C 	0.24680 0.02580 0.24050 0.03300
H 	H 	0.25600 0.97830 0.26030 0.03600
C 	C 	0.03400 0.54790 0.29210 0.08700
C 	C 	0.13610 0.50570 0.51940 0.08400
C 	C 	0.46340 0.49210 0.17040 -0.14100
H 	H 	0.41820 0.42240 0.12810 0.07900
C 	C 	0.32760 0.12060 0.28670 -0.09500
H 	H 	0.39200 0.13670 0.33640 0.07100
C 	C 	0.76480 0.05250 0.29840 -0.12800
C 	C 	0.83280 0.53720 0.87500 0.36500
C 	C 	0.13080 0.55370 0.45790 -0.12400
H 	H 	0.18350 0.61920 0.48120 0.07600
C 	C 	0.14970 0.99640 0.16410 -0.10200
C 	C 	0.57630 0.63480 0.33130 -0.14000
H 	H 	0.61000 0.66450 0.40160 0.08300
C 	C 	0.06740 0.65080 0.32780 -0.16200
H 	H 	0.10050 0.69380 0.39700 0.09000
C 	C 	0.56330 0.42570 0.46010 0.07800
C 	C 	0.48040 0.55780 0.12940 0.09200
H 	H 	0.44600 0.53070 0.05930 -0.01000
N 	N 	0.69440 0.69470 0.09810 -0.26500
C 	C 	0.98810 0.49200 0.19010 -0.16100
H 	H 	0.96530 0.42220 0.16230 0.09400
C 	C 	0.97430 0.53430 0.12750 0.10000
H 	H 	0.94190 0.49270 0.05800 -0.00800
C 	C 	0.97080 0.40500 0.32990 -0.12600
H 	H 	0.91390 0.36820 0.26470 0.07600
C 	C 	0.47850 0.70350 0.92800 0.33500
C 	C 	0.57570 0.49190 0.41910 -0.12300
H 	H 	0.63420 0.55670 0.45650 0.07600
C 	C 	0.05850 0.89210 0.11300 0.35400
C 	C 	0.97930 0.36100 0.39430 0.07500
N 	N 	0.82930 0.68640 0.09080 -0.25900
C 	C 	0.73480 0.10230 0.25100 0.05200
H 	H 	0.66760 0.06810 0.19610 0.03300
C 	C 	0.05150 0.68910 0.26110 0.10700
H 	H 	0.07430 0.75880 0.28700 -0.01900
C 	C 	0.58890 0.69430 0.28570 0.08300
H 	H 	0.63150 0.76460 0.32620 0.00200
C 	C 	0.76480 0.72480 0.06980 0.22300
O 	O 	0.62140 0.89470 0.18290 -0.39200
C 	C 	0.70860 0.94880 0.26710 0.30600
O 	O 	0.73970 0.90110 0.31270 -0.30600
