data_crystal

_cell_length_a 21.62380
_cell_length_b 21.62380
_cell_length_c 24.53880
_cell_angle_alpha 116.14300
_cell_angle_beta  116.14300
_cell_angle_gamma 90.00100

_symmetry_space_group_name_	'P 1'
_symmetry_space_group_name_H-M	'P 1'

loop_
_symmetry_equiv_pos_as_xyz
  x,y,z

loop_
_atom_site_label
_atom_site_type_symbol
_atom_site_fract_x
_atom_site_fract_y
_atom_site_fract_z
_atom_site_charge
Zn	Zn	0.68460 0.44048 0.32685 1.21200
Zn	Zn	0.61363 0.35775 0.17315 1.21200
Zn	Zn	0.35775 0.05952 0.67315 1.21200
Zn	Zn	0.94048 0.18460 0.82685 1.21200
Zn	Zn	0.85775 0.11363 0.67315 1.21200
Zn	Zn	0.14225 0.88637 0.32685 1.21200
Zn	Zn	0.31540 0.55952 0.67315 1.21200
Zn	Zn	0.64225 0.94048 0.32685 1.21200
Zn	Zn	0.05952 0.81540 0.17315 1.21200
Zn	Zn	0.55952 0.85775 0.17315 1.21200
Zn	Zn	0.18460 0.38637 0.32685 1.21100
Zn	Zn	0.11363 0.31540 0.17315 1.21100
Zn	Zn	0.44048 0.14225 0.82685 1.21100
Zn	Zn	0.88637 0.68460 0.82685 1.21100
Zn	Zn	0.81540 0.61363 0.67315 1.21100
Zn	Zn	0.38637 0.64225 0.82685 1.21100
H 	H 	0.25490 0.91340 0.56340 0.03200
H 	H 	0.44600 0.01120 0.41360 0.16900
H 	H 	0.90860 0.72820 0.04860 0.03300
H 	H 	0.78630 0.31540 0.15320 0.06700
H 	H 	0.29440 0.12250 0.88360 0.18300
H 	H 	0.59020 0.66600 0.15540 0.06500
H 	H 	0.49830 0.95910 0.40940 0.18100
H 	H 	0.43020 0.16640 0.95360 0.02600
H 	H 	0.62250 0.79440 0.38360 0.18300
H 	H 	0.02340 0.78720 0.95360 0.02500
H 	H 	0.01120 0.46760 0.91360 0.16600
H 	H 	0.37150 0.00560 0.54340 0.02500
H 	H 	0.53240 0.59760 0.58640 0.17000
H 	H 	0.17070 0.75770 0.91760 0.16800
H 	H 	0.75770 0.24690 0.41760 0.16900
H 	H 	0.88570 0.51300 0.38040 0.18600
H 	H 	0.69850 0.05700 0.56960 0.04100
H 	H 	0.96220 0.82810 0.95660 0.02500
H 	H 	0.74690 0.25770 0.91760 0.16900
H 	H 	0.09140 0.27180 0.95140 0.03300
H 	H 	0.41110 0.45030 0.40940 0.18100
H 	H 	0.96760 0.51120 0.41360 0.17000
H 	H 	0.61430 0.63260 0.61960 0.18600
H 	H 	0.93480 0.51060 0.84460 0.06400
H 	H 	0.30150 0.94300 0.43040 0.04100
H 	H 	0.12250 0.08920 0.38360 0.18300
H 	H 	0.49470 0.01300 0.38040 0.18500
H 	H 	0.56520 0.16600 0.15540 0.06500
H 	H 	0.91110 0.45910 0.40940 0.18100
H 	H 	0.73230 0.99050 0.56740 0.03700
H 	H 	0.13260 0.11430 0.11960 0.18600
H 	H 	0.32810 0.46220 0.45660 0.02500
H 	H 	0.86000 0.77180 0.95140 0.03200
H 	H 	0.80850 0.65000 0.56340 0.03200
H 	H 	0.57690 0.73230 0.06740 0.03700
H 	H 	0.46220 0.62850 0.95660 0.02500
H 	H 	0.24510 0.85000 0.43660 0.03200
H 	H 	0.20180 0.79510 0.08980 0.18200
H 	H 	0.85000 0.69150 0.93660 0.03200
H 	H 	0.83780 0.78630 0.65320 0.06700
H 	H 	0.67190 0.53780 0.54340 0.02500
H 	H 	0.92310 0.16490 0.93260 0.03700
H 	H 	0.23890 0.70560 0.61640 0.18300
H 	H 	0.84010 0.82930 0.58240 0.16900
H 	H 	0.23230 0.07690 0.56740 0.03700
H 	H 	0.87150 0.03780 0.54340 0.02500
H 	H 	0.16490 0.50950 0.43260 0.03700
H 	H 	0.87750 0.91080 0.61640 0.18300
H 	H 	0.00560 0.67190 0.04340 0.02600
H 	H 	0.81540 0.28630 0.65320 0.06700
H 	H 	0.45910 0.99830 0.90940 0.18100
H 	H 	0.46760 0.40240 0.41360 0.17000
H 	H 	0.35000 0.74510 0.93660 0.03200
H 	H 	0.86690 0.83780 0.15320 0.06700
H 	H 	0.76770 0.92310 0.43260 0.03700
H 	H 	0.16600 0.09020 0.65540 0.06400
H 	H 	0.15000 0.30850 0.06340 0.03200
H 	H 	0.38570 0.36740 0.38040 0.18600
H 	H 	0.99050 0.33510 0.06740 0.03600
H 	H 	0.66220 0.63310 0.34680 0.06700
H 	H 	0.06980 0.71280 0.04640 0.02700
H 	H 	0.95030 0.91110 0.90940 0.18100
H 	H 	0.63310 0.18460 0.84680 0.06700
H 	H 	0.28720 0.52340 0.45360 0.02600
H 	H 	0.99440 0.32810 0.95660 0.02600
H 	H 	0.12890 0.44300 0.43040 0.04100
H 	H 	0.50530 0.98700 0.61960 0.18500
H 	H 	0.65000 0.25490 0.06340 0.03200
H 	H 	0.51260 0.69850 0.06960 0.04100
H 	H 	0.71280 0.47660 0.54640 0.02600
H 	H 	0.36740 0.49470 0.88040 0.18600
H 	H 	0.95910 0.41110 0.90940 0.17900
H 	H 	0.82810 0.49440 0.45660 0.02500
H 	H 	0.78720 0.43020 0.45360 0.02600
H 	H 	0.87110 0.55700 0.56960 0.04100
H 	H 	0.20530 0.11200 0.41020 0.18100
H 	H 	0.68460 0.13310 0.34680 0.06700
H 	H 	0.13310 0.16220 0.84680 0.06700
H 	H 	0.94300 0.62890 0.93040 0.04100
H 	H 	0.70530 0.79820 0.41020 0.18100
H 	H 	0.20490 0.61200 0.41020 0.18200
H 	H 	0.58890 0.54970 0.59060 0.18100
H 	H 	0.33400 0.93480 0.34460 0.06500
H 	H 	0.55400 0.98880 0.58640 0.16900
H 	H 	0.61200 0.70530 0.91020 0.18200
H 	H 	0.19150 0.35000 0.43660 0.03200
H 	H 	0.00950 0.66490 0.93260 0.03600
H 	H 	0.99470 0.86740 0.38040 0.18500
H 	H 	0.12850 0.96220 0.45660 0.02500
H 	H 	0.41340 0.75490 0.06340 0.03200
H 	H 	0.63260 0.50530 0.11960 0.18600
H 	H 	0.31540 0.86690 0.65320 0.06700
H 	H 	0.25770 0.67070 0.41760 0.16900
H 	H 	0.64000 0.32040 0.04860 0.03300
H 	H 	0.28630 0.33780 0.15320 0.06700
H 	H 	0.44300 0.80150 0.93040 0.04100
H 	H 	0.33360 0.06980 0.54640 0.02600
H 	H 	0.80150 0.98740 0.43040 0.04100
H 	H 	0.62890 0.48740 0.43040 0.04100
H 	H 	0.79820 0.20490 0.91020 0.18200
H 	H 	0.33780 0.36690 0.65320 0.06700
H 	H 	0.32930 0.34010 0.08240 0.16900
H 	H 	0.98740 0.12890 0.93040 0.04200
H 	H 	0.74230 0.32930 0.58240 0.16900
H 	H 	0.15990 0.17070 0.41760 0.16900
H 	H 	0.98940 0.56520 0.65540 0.06500
H 	H 	0.66600 0.06520 0.65540 0.06500
H 	H 	0.71370 0.66220 0.84680 0.06700
H 	H 	0.83360 0.97660 0.54640 0.02600
H 	H 	0.66640 0.93020 0.45360 0.02600
H 	H 	0.82040 0.14000 0.54860 0.03300
H 	H 	0.51060 0.40980 0.34460 0.06500
H 	H 	0.70490 0.29820 0.41020 0.18200
H 	H 	0.70560 0.87750 0.11640 0.18300
H 	H 	0.76110 0.29440 0.38360 0.18300
H 	H 	0.29470 0.20180 0.58980 0.18100
H 	H 	0.21370 0.68460 0.84680 0.06700
H 	H 	0.86740 0.88570 0.88040 0.18600
H 	H 	0.11430 0.48700 0.61960 0.18600
H 	H 	0.25310 0.74230 0.08240 0.16900
H 	H 	0.00530 0.13260 0.61960 0.18500
H 	H 	0.04090 0.58890 0.09060 0.17900
H 	H 	0.40980 0.33400 0.84460 0.06500
H 	H 	0.53780 0.37150 0.04340 0.02500
H 	H 	0.79470 0.88800 0.58980 0.18100
H 	H 	0.74510 0.08660 0.43660 0.03200
H 	H 	0.83400 0.90980 0.34460 0.06400
H 	H 	0.20560 0.73890 0.11640 0.18400
H 	H 	0.01260 0.87110 0.06960 0.04200
H 	H 	0.52340 0.66640 0.95360 0.02600
H 	H 	0.34010 0.25310 0.58240 0.16900
H 	H 	0.59760 0.55400 0.08640 0.17000
H 	H 	0.08920 0.76110 0.88360 0.18300
H 	H 	0.08660 0.19150 0.93660 0.03300
H 	H 	0.24230 0.75310 0.58240 0.16900
H 	H 	0.41080 0.37750 0.11640 0.18300
H 	H 	0.79440 0.26110 0.88360 0.18400
H 	H 	0.50950 0.76770 0.93260 0.03700
H 	H 	0.06520 0.48940 0.15540 0.06400
H 	H 	0.21280 0.56980 0.54640 0.02600
H 	H 	0.66490 0.42310 0.43260 0.03700
H 	H 	0.01060 0.43480 0.34460 0.06500
H 	H 	0.48700 0.00530 0.11960 0.18500
H 	H 	0.24690 0.15990 0.91760 0.16900
H 	H 	0.67960 0.09140 0.45140 0.03300
H 	H 	0.17960 0.86000 0.45140 0.03300
H 	H 	0.29820 0.20530 0.91020 0.18200
H 	H 	0.50170 0.04090 0.59060 0.18100
H 	H 	0.29510 0.70180 0.58980 0.18200
H 	H 	0.88800 0.29510 0.08980 0.18100
H 	H 	0.79510 0.38800 0.58980 0.18200
H 	H 	0.91080 0.23890 0.11640 0.18300
H 	H 	0.75490 0.15000 0.56340 0.03200
H 	H 	0.73890 0.41080 0.61640 0.18300
H 	H 	0.55700 0.19850 0.06960 0.04100
H 	H 	0.94600 0.90240 0.41360 0.16900
H 	H 	0.69150 0.58660 0.43660 0.03200
H 	H 	0.58660 0.24510 0.93660 0.03200
H 	H 	0.54090 0.00170 0.09060 0.18100
H 	H 	0.09760 0.03240 0.08640 0.17000
H 	H 	0.03780 0.17190 0.04340 0.02500
H 	H 	0.59140 0.17960 0.95140 0.03300
H 	H 	0.09020 0.98940 0.15540 0.06600
H 	H 	0.48940 0.59020 0.65540 0.06500
H 	H 	0.40860 0.82040 0.04860 0.03300
H 	H 	0.98700 0.61430 0.11960 0.18200
H 	H 	0.26110 0.58920 0.38360 0.18300
H 	H 	0.16640 0.02340 0.45360 0.02600
H 	H 	0.37750 0.20560 0.61640 0.18300
H 	H 	0.40240 0.44600 0.91360 0.17000
H 	H 	0.91340 0.80850 0.06340 0.03300
H 	H 	0.51300 0.99470 0.88040 0.18500
H 	H 	0.83510 0.49050 0.56740 0.03700
H 	H 	0.90240 0.96760 0.91360 0.17000
H 	H 	0.42310 0.26770 0.93260 0.03700
H 	H 	0.47660 0.33360 0.04640 0.02600
H 	H 	0.05400 0.09760 0.58640 0.16900
H 	H 	0.93020 0.28720 0.95360 0.02700
H 	H 	0.72820 0.64000 0.54860 0.03300
H 	H 	0.90980 0.01060 0.84460 0.06600
H 	H 	0.32040 0.90860 0.54860 0.03300
H 	H 	0.36690 0.81540 0.15320 0.06700
H 	H 	0.58920 0.62250 0.88360 0.18300
H 	H 	0.70180 0.79470 0.08980 0.18200
H 	H 	0.37110 0.51260 0.56960 0.04100
H 	H 	0.56980 0.83360 0.04640 0.02600
H 	H 	0.62850 0.99440 0.45660 0.02500
H 	H 	0.07690 0.83510 0.06740 0.03700
H 	H 	0.97660 0.21280 0.04640 0.02500
H 	H 	0.30850 0.41340 0.56340 0.03200
H 	H 	0.75310 0.84010 0.08240 0.16900
H 	H 	0.00170 0.04970 0.59060 0.18000
H 	H 	0.38800 0.29470 0.08980 0.18200
H 	H 	0.99830 0.95030 0.40940 0.18000
H 	H 	0.26770 0.00950 0.43260 0.03700
H 	H 	0.14000 0.22820 0.04860 0.03200
H 	H 	0.05700 0.37110 0.06960 0.04100
H 	H 	0.65990 0.74690 0.41760 0.16900
H 	H 	0.01300 0.38570 0.88040 0.18200
H 	H 	0.27180 0.36000 0.45140 0.03300
H 	H 	0.48880 0.05400 0.08640 0.16900
H 	H 	0.22820 0.40860 0.54860 0.03300
H 	H 	0.17190 0.50560 0.54340 0.02500
H 	H 	0.48740 0.30150 0.93040 0.04100
H 	H 	0.03240 0.48880 0.58640 0.17000
H 	H 	0.49440 0.12850 0.95660 0.02500
H 	H 	0.08890 0.54090 0.59060 0.18100
H 	H 	0.67070 0.65990 0.91760 0.16900
H 	H 	0.36000 0.67960 0.95140 0.03300
H 	H 	0.04970 0.08890 0.09060 0.18100
H 	H 	0.51120 0.94600 0.91360 0.16900
H 	H 	0.82930 0.24230 0.08240 0.16800
H 	H 	0.98880 0.53240 0.08640 0.16600
H 	H 	0.77180 0.59140 0.45140 0.03300
H 	H 	0.19850 0.01260 0.56960 0.04100
H 	H 	0.50560 0.87150 0.04340 0.02500
H 	H 	0.49050 0.23230 0.06740 0.03700
H 	H 	0.54970 0.50170 0.09060 0.18100
H 	H 	0.33510 0.57690 0.56740 0.03700
H 	H 	0.43480 0.83400 0.84460 0.06500
H 	H 	0.16220 0.21370 0.34680 0.06700
H 	H 	0.18460 0.71370 0.34680 0.06700
H 	H 	0.45030 0.49830 0.90940 0.18100
H 	H 	0.11200 0.70490 0.91020 0.18100
C 	C 	0.84115 0.87860 0.61156 -0.53200
C 	C 	0.90599 0.42665 0.31470 0.17800
C 	C 	0.39041 0.35852 0.18274 0.17900
C 	C 	0.14769 0.16754 0.30790 -0.09400
C 	C 	0.10497 0.03558 0.19436 -0.09400
C 	C 	0.46713 0.98243 0.38582 -0.53300
C 	C 	0.82511 0.01242 0.53074 -0.05000
C 	C 	0.11865 0.04163 0.25774 -0.12200
C 	C 	0.60959 0.64148 0.81726 0.17900
C 	C 	0.77041 0.37860 0.61156 -0.53300
C 	C 	0.78389 0.88135 0.24226 -0.12200
C 	C 	0.72284 0.02357 0.54838 -0.06700
C 	C 	0.88550 0.73659 0.96076 -0.05300
C 	C 	0.89503 0.96442 0.80564 -0.09400
C 	C 	0.03558 0.58939 0.69436 -0.09300
C 	C 	0.13371 0.16161 0.24418 -0.12300
C 	C 	0.85066 0.52649 0.74034 0.37900
C 	C 	0.01757 0.58131 0.11418 -0.52500
C 	C 	0.27001 0.35818 0.25744 0.38000
C 	C 	0.72417 0.07526 0.46076 -0.05400
C 	C 	0.08131 0.51757 0.61418 -0.53500
C 	C 	0.97643 0.67446 0.95162 -0.06600
C 	C 	0.23659 0.38550 0.46076 -0.05400
C 	C 	0.85231 0.83246 0.69210 -0.09400
C 	C 	0.14036 0.14769 0.80790 -0.09500
C 	C 	0.90871 0.88805 0.31470 0.17700
C 	C 	0.59129 0.07335 0.68530 0.17700
C 	C 	0.90339 0.91869 0.88582 -0.53500
C 	C 	0.77716 0.97519 0.45162 -0.06800
C 	C 	0.64036 0.16021 0.80790 -0.09500
C 	C 	0.33839 0.36629 0.25582 -0.12300
C 	C 	0.71385 0.88968 0.24034 0.37800
C 	C 	0.48243 0.96713 0.88582 -0.53400
C 	C 	0.35964 0.83979 0.19210 -0.09500
C 	C 	0.38135 0.28389 0.74226 -0.12200
C 	C 	0.10074 0.72999 0.24256 0.38000
C 	C 	0.17578 0.60959 0.31726 0.18000
C 	C 	0.61865 0.71611 0.25774 -0.12200
C 	C 	0.70767 0.17578 0.81726 0.17900
C 	C 	0.01257 0.14182 0.74256 0.37900
C 	C 	0.97519 0.17446 0.95162 -0.06800
C 	C 	0.07526 0.23659 0.96076 -0.05700
C 	C 	0.38805 0.40871 0.81470 0.17800
C 	C 	0.10959 0.67578 0.81726 0.17900
C 	C 	0.27716 0.97643 0.45162 -0.06700
C 	C 	0.83246 0.33979 0.19210 -0.09500
C 	C 	0.58257 0.11047 0.74418 -0.12300
C 	C 	0.15885 0.12140 0.38844 -0.53200
C 	C 	0.88135 0.95837 0.74226 -0.12200
C 	C 	0.91743 0.86629 0.25582 -0.12300
C 	C 	0.01832 0.70563 0.03074 -0.05200
C 	C 	0.35818 0.48743 0.75744 0.38000
C 	C 	0.07335 0.59401 0.18530 0.17500
C 	C 	0.89041 0.32422 0.18274 0.17900
C 	C 	0.71611 0.13909 0.75774 -0.12200
C 	C 	0.09661 0.08131 0.11418 -0.53500
C 	C 	0.21611 0.11865 0.75774 -0.12200
C 	C 	0.42474 0.77583 0.03924 -0.05400
C 	C 	0.26341 0.42474 0.53924 -0.05400
C 	C 	0.57335 0.09129 0.18530 0.17800
C 	C 	0.23296 0.77041 0.11156 -0.53300
C 	C 	0.63909 0.21611 0.25774 -0.12200
C 	C 	0.17489 0.98758 0.46926 -0.05000
C 	C 	0.64182 0.51257 0.24256 0.38000
C 	C 	0.53558 0.60497 0.69436 -0.09200
C 	C 	0.40871 0.92665 0.31470 0.17700
C 	C 	0.92665 0.40599 0.81470 0.17500
C 	C 	0.72999 0.64182 0.74256 0.38000
C 	C 	0.86629 0.83839 0.75582 -0.12300
C 	C 	0.65878 0.08939 0.69436 -0.09200
C 	C 	0.14182 0.22999 0.24256 0.38000
C 	C 	0.08939 0.53558 0.19436 -0.09000
C 	C 	0.37860 0.34115 0.11156 -0.53200
C 	C 	0.52481 0.72284 0.04838 -0.06700
C 	C 	0.39926 0.98743 0.75744 0.38000
C 	C 	0.52357 0.22284 0.04838 -0.06800
C 	C 	0.40339 0.46713 0.88582 -0.53400
C 	C 	0.98758 0.79437 0.96926 -0.05000
C 	C 	0.14934 0.47351 0.25966 0.37900
C 	C 	0.89926 0.27001 0.75744 0.38000
C 	C 	0.41869 0.40339 0.38582 -0.53400
C 	C 	0.61032 0.78615 0.25966 0.37800
C 	C 	0.79233 0.85852 0.18274 0.17900
C 	C 	0.91061 0.46442 0.80564 -0.09000
C 	C 	0.51242 0.32511 0.03074 -0.05200
C 	C 	0.32511 0.01832 0.53074 -0.05200
C 	C 	0.36629 0.41743 0.75582 -0.12300
C 	C 	0.21385 0.85066 0.24034 0.37800
C 	C 	0.83839 0.38953 0.25582 -0.12300
C 	C 	0.85852 0.89041 0.68274 0.17900
C 	C 	0.85818 0.77001 0.75744 0.38000
C 	C 	0.28615 0.11032 0.75966 0.37800
C 	C 	0.96442 0.41061 0.30564 -0.09300
C 	C 	0.35231 0.35964 0.69210 -0.09500
C 	C 	0.17446 0.47643 0.45162 -0.06800
C 	C 	0.35066 0.71385 0.74034 0.37800
C 	C 	0.97351 0.64934 0.75966 0.37900
C 	C 	0.62140 0.65885 0.88844 -0.53200
C 	C 	0.82422 0.39041 0.68274 0.18000
C 	C 	0.79437 0.48168 0.46926 -0.05100
C 	C 	0.48743 0.89926 0.25744 0.38000
C 	C 	0.16161 0.61047 0.74418 -0.12300
C 	C 	0.48758 0.67489 0.96926 -0.05200
C 	C 	0.77583 0.11450 0.53924 -0.05400
C 	C 	0.67446 0.47519 0.45162 -0.06800
C 	C 	0.91869 0.48243 0.38582 -0.53500
C 	C 	0.22284 0.02481 0.54838 -0.06800
C 	C 	0.16021 0.66754 0.30790 -0.09600
C 	C 	0.26704 0.15885 0.88844 -0.53200
C 	C 	0.64769 0.64036 0.30790 -0.09500
C 	C 	0.27041 0.73296 0.61156 -0.53200
C 	C 	0.57526 0.22417 0.96076 -0.05400
C 	C 	0.29437 0.48758 0.46926 -0.05100
C 	C 	0.11450 0.26341 0.03924 -0.05300
C 	C 	0.60074 0.01257 0.24256 0.38000
C 	C 	0.46442 0.39503 0.30564 -0.09200
C 	C 	0.32554 0.52481 0.54838 -0.06800
C 	C 	0.22959 0.62140 0.38844 -0.53300
C 	C 	0.63371 0.58257 0.24418 -0.12300
C 	C 	0.22999 0.60074 0.74256 0.38000
C 	C 	0.96713 0.90339 0.38582 -0.53400
C 	C 	0.98168 0.29437 0.96926 -0.05200
C 	C 	0.64148 0.70767 0.31726 0.17900
C 	C 	0.86091 0.45837 0.74226 -0.12300
C 	C 	0.66754 0.64769 0.80790 -0.09500
C 	C 	0.70563 0.51242 0.53074 -0.05100
C 	C 	0.09129 0.11195 0.68530 0.17700
C 	C 	0.78615 0.14934 0.75966 0.37800
C 	C 	0.77001 0.39926 0.25744 0.38000
C 	C 	0.59401 0.61195 0.68530 0.17800
C 	C 	0.82554 0.52357 0.54838 -0.06800
C 	C 	0.11032 0.97351 0.25966 0.37900
C 	C 	0.34115 0.23296 0.61156 -0.53200
C 	C 	0.66161 0.63371 0.74418 -0.12300
C 	C 	0.58939 0.15878 0.19436 -0.09200
C 	C 	0.87860 0.27041 0.11156 -0.53100
C 	C 	0.32422 0.79233 0.68274 0.17900
C 	C 	0.38550 0.72417 0.96076 -0.05500
C 	C 	0.52649 0.38968 0.24034 0.37800
C 	C 	0.48168 0.17489 0.96926 -0.05100
C 	C 	0.16754 0.66021 0.80790 -0.09500
C 	C 	0.38953 0.91743 0.75582 -0.12300
C 	C 	0.47519 0.27716 0.95162 -0.06700
C 	C 	0.51832 0.82511 0.03074 -0.05100
C 	C 	0.60497 0.65878 0.19436 -0.09200
C 	C 	0.28389 0.86091 0.24226 -0.12200
C 	C 	0.36091 0.78389 0.74226 -0.12200
C 	C 	0.47643 0.77716 0.95162 -0.06800
C 	C 	0.72959 0.26704 0.38844 -0.53200
C 	C 	0.01242 0.20563 0.03074 -0.05000
C 	C 	0.02481 0.82554 0.04838 -0.06800
C 	C 	0.33979 0.85964 0.69210 -0.09500
C 	C 	0.02649 0.35066 0.24034 0.37900
C 	C 	0.22417 0.88550 0.46076 -0.05400
C 	C 	0.40599 0.38805 0.31470 0.17800
C 	C 	0.34122 0.91061 0.30564 -0.09200
C 	C 	0.95837 0.36091 0.24226 -0.12200
C 	C 	0.76341 0.61450 0.53924 -0.05400
C 	C 	0.92474 0.76341 0.03924 -0.05700
C 	C 	0.38968 0.21385 0.74034 0.37800
C 	C 	0.98243 0.41869 0.88582 -0.52500
C 	C 	0.41061 0.84122 0.80564 -0.09200
C 	C 	0.88805 0.90599 0.81470 0.17900
C 	C 	0.29233 0.82422 0.18274 0.17900
C 	C 	0.39503 0.34122 0.80564 -0.09200
C 	C 	0.73296 0.84115 0.11156 -0.53200
C 	C 	0.11195 0.09401 0.18530 0.17900
C 	C 	0.47351 0.61032 0.75966 0.37800
C 	C 	0.13909 0.54163 0.25774 -0.12300
C 	C 	0.61047 0.08257 0.24418 -0.12300
C 	C 	0.58131 0.59661 0.61418 -0.53400
C 	C 	0.53287 0.01757 0.61418 -0.53300
C 	C 	0.83979 0.33246 0.69210 -0.09600
C 	C 	0.88953 0.33839 0.75582 -0.12100
C 	C 	0.27583 0.92474 0.53924 -0.05400
C 	C 	0.67578 0.20767 0.31726 0.17900
C 	C 	0.08257 0.13371 0.74418 -0.12300
C 	C 	0.04163 0.63909 0.75774 -0.12200
C 	C 	0.61450 0.27583 0.03924 -0.05500
C 	C 	0.76704 0.22959 0.88844 -0.53300
C 	C 	0.54163 0.61865 0.75774 -0.12200
C 	C 	0.42665 0.90871 0.81470 0.17800
C 	C 	0.33246 0.35231 0.19210 -0.09500
C 	C 	0.41743 0.88953 0.25582 -0.12300
C 	C 	0.51757 0.03287 0.11418 -0.53400
C 	C 	0.02357 0.32554 0.04838 -0.06600
C 	C 	0.20767 0.14148 0.81726 0.17900
C 	C 	0.85964 0.85231 0.19210 -0.09500
C 	C 	0.98743 0.85818 0.25744 0.37900
C 	C 	0.64934 0.28615 0.25966 0.37800
C 	C 	0.67489 0.98168 0.46926 -0.05200
C 	C 	0.03287 0.09661 0.61418 -0.53400
C 	C 	0.35852 0.29233 0.68274 0.17900
C 	C 	0.11047 0.66161 0.24418 -0.12100
C 	C 	0.45837 0.38135 0.24226 -0.12200
C 	C 	0.84122 0.89503 0.30564 -0.09200
C 	C 	0.14148 0.10959 0.31726 0.17900
C 	C 	0.73659 0.57526 0.46076 -0.05400
C 	C 	0.65885 0.76704 0.38844 -0.53200
C 	C 	0.66021 0.14036 0.30790 -0.09500
C 	C 	0.88968 0.02649 0.74034 0.37900
C 	C 	0.61195 0.59129 0.18530 0.17800
C 	C 	0.12140 0.72959 0.88844 -0.53100
C 	C 	0.09401 0.57335 0.68530 0.17800
C 	C 	0.15878 0.10497 0.69436 -0.09200
C 	C 	0.51257 0.10074 0.74256 0.38000
C 	C 	0.20563 0.51832 0.53074 -0.05100
C 	C 	0.59661 0.53287 0.11418 -0.53400
N 	N 	0.49730 0.20827 0.93316 -0.19600
N 	N 	0.06414 0.27511 0.06684 -0.19700
N 	N 	0.72489 0.49730 0.43316 -0.19600
N 	N 	0.70827 0.99730 0.43316 -0.19600
N 	N 	0.00270 0.77511 0.06684 -0.19600
N 	N 	0.22489 0.43586 0.43316 -0.19600
N 	N 	0.77511 0.56414 0.56684 -0.19600
N 	N 	0.93586 0.72489 0.93316 -0.19700
N 	N 	0.43586 0.70827 0.93316 -0.19600
N 	N 	0.50270 0.79173 0.06684 -0.19600
N 	N 	0.56414 0.29173 0.06684 -0.19600
N 	N 	0.79173 0.06414 0.56684 -0.19700
N 	N 	0.27511 0.50270 0.56684 -0.19600
N 	N 	0.20827 0.93586 0.43316 -0.19700
N 	N 	0.29173 0.00270 0.56684 -0.19600
N 	N 	0.99730 0.22489 0.93316 -0.19600
O 	O 	0.68629 0.51624 0.29968 -0.46600
O 	O 	0.89669 0.77030 0.81408 -0.46700
O 	O 	0.47330 0.65248 0.81528 -0.46100
O 	O 	0.39669 0.54378 0.81408 -0.46700
O 	O 	0.60331 0.45622 0.18592 -0.46700
O 	O 	0.88661 0.21656 0.70032 -0.46600
O 	O 	0.66280 0.34198 0.31528 -0.46100
O 	O 	0.31371 0.48376 0.70032 -0.46600
O 	O 	0.33720 0.65802 0.68472 -0.46100
O 	O 	0.08261 0.72970 0.18592 -0.46600
O 	O 	0.85752 0.57858 0.79516 -0.46100
O 	O 	0.01624 0.18629 0.79968 -0.46600
O 	O 	0.54378 0.91739 0.31408 -0.46700
O 	O 	0.34198 0.15248 0.81528 -0.46100
O 	O 	0.35752 0.71658 0.79516 -0.46100
O 	O 	0.06236 0.92142 0.20484 -0.46000
O 	O 	0.72970 0.60331 0.68592 -0.46700
O 	O 	0.21656 0.31371 0.20032 -0.46600
O 	O 	0.84198 0.16280 0.81528 -0.46100
O 	O 	0.64248 0.28342 0.20484 -0.46100
O 	O 	0.71656 0.38661 0.20032 -0.46600
O 	O 	0.61339 0.01624 0.29968 -0.46600
O 	O 	0.91739 0.27030 0.81408 -0.46600
O 	O 	0.42142 0.56236 0.70484 -0.46100
O 	O 	0.65248 0.84198 0.31528 -0.46100
O 	O 	0.14248 0.42142 0.20484 -0.46100
O 	O 	0.41739 0.04378 0.81408 -0.46700
O 	O 	0.28342 0.06236 0.70484 -0.46100
O 	O 	0.93764 0.07858 0.79516 -0.46000
O 	O 	0.18629 0.28344 0.29968 -0.46600
O 	O 	0.58261 0.95622 0.18592 -0.46700
O 	O 	0.78344 0.68629 0.79968 -0.46600
O 	O 	0.27030 0.39669 0.31408 -0.46700
O 	O 	0.48376 0.88661 0.20032 -0.46600
O 	O 	0.98376 0.81371 0.20032 -0.46600
O 	O 	0.81371 0.71656 0.70032 -0.46600
O 	O 	0.78342 0.14248 0.70484 -0.46100
O 	O 	0.28344 0.61339 0.79968 -0.46600
O 	O 	0.10331 0.22970 0.18592 -0.46700
O 	O 	0.04378 0.89669 0.31408 -0.46600
O 	O 	0.02670 0.33720 0.18472 -0.46100
O 	O 	0.56236 0.78342 0.20484 -0.46100
O 	O 	0.92142 0.64248 0.70484 -0.46100
O 	O 	0.34752 0.15802 0.68472 -0.46100
O 	O 	0.38661 0.98376 0.70032 -0.46600
O 	O 	0.43764 0.21658 0.79516 -0.46100
O 	O 	0.16280 0.47330 0.31528 -0.46100
O 	O 	0.84752 0.02670 0.68472 -0.46100
O 	O 	0.83720 0.52670 0.68472 -0.46100
O 	O 	0.52670 0.34752 0.18472 -0.46100
O 	O 	0.15248 0.97330 0.31528 -0.46100
O 	O 	0.51624 0.11339 0.79968 -0.46600
O 	O 	0.21658 0.85752 0.29516 -0.46100
O 	O 	0.15802 0.83720 0.18472 -0.46100
O 	O 	0.07858 0.35752 0.29516 -0.46100
O 	O 	0.77030 0.41739 0.31408 -0.46700
O 	O 	0.97330 0.66280 0.81528 -0.46100
O 	O 	0.22970 0.58261 0.68592 -0.46700
O 	O 	0.57858 0.43764 0.29516 -0.46100
O 	O 	0.95622 0.10331 0.68592 -0.46600
O 	O 	0.71658 0.93764 0.29516 -0.46100
O 	O 	0.65802 0.84752 0.18472 -0.46100
O 	O 	0.45622 0.08261 0.68592 -0.46700
O 	O 	0.11339 0.78344 0.29968 -0.46600
