data_crystal

_cell_length_a 10.16520
_cell_length_b 14.63420
_cell_length_c 15.28290
_cell_angle_alpha 117.53800
_cell_angle_beta  96.14100
_cell_angle_gamma 104.33800

_symmetry_space_group_name_	'P 1'
_symmetry_space_group_name_H-M	'P 1'

loop_
_symmetry_equiv_pos_as_xyz
  x,y,z

loop_
_atom_site_label
_atom_site_type_symbol
_atom_site_fract_x
_atom_site_fract_y
_atom_site_fract_z
_atom_site_charge
Cu	Cu	0.93990 0.57547 0.53369 0.77200
Cu	Cu	0.94159 0.61651 0.74524 0.70400
Cu	Cu	0.73569 0.72646 0.78185 0.73600
Cu	Cu	0.67206 0.51081 0.75430 0.73700
Cu	Cu	0.84793 0.68552 0.91457 0.71300
Cu	Cu	0.06010 0.42453 0.46631 0.77300
Cu	Cu	0.05841 0.38349 0.25476 0.70500
Cu	Cu	0.26431 0.27354 0.21815 0.73600
Cu	Cu	0.32794 0.48919 0.24570 0.73700
Cu	Cu	0.15207 0.31448 0.08543 0.71300
H 	H 	0.11240 0.81370 0.67340 -0.01900
H 	H 	0.29740 0.93590 0.67070 0.09100
H 	H 	0.18720 0.75190 0.36580 0.08700
H 	H 	0.00310 0.63440 0.37660 -0.01600
H 	H 	0.27540 0.94230 0.40210 0.05400
H 	H 	0.43250 0.75690 0.53050 0.08400
H 	H 	0.51170 0.67790 0.61550 0.01200
H 	H 	0.77810 0.95930 0.82640 -0.01200
H 	H 	0.70700 0.04460 0.74800 0.09200
H 	H 	0.09090 0.09270 0.91590 -0.01100
H 	H 	0.06240 0.99600 0.74470 0.09700
H 	H 	0.08480 0.27020 0.73890 0.09900
H 	H 	0.10960 0.35720 0.91210 0.00200
H 	H 	0.88210 0.93450 0.59010 0.04900
H 	H 	0.19650 0.27150 0.52880 0.07100
H 	H 	0.40280 0.41570 0.60330 0.00100
H 	H 	0.55290 0.29930 0.75560 -0.01800
H 	H 	0.35010 0.15700 0.69350 0.09400
H 	H 	0.88760 0.18630 0.32660 -0.01900
H 	H 	0.70260 0.06410 0.32930 0.09100
H 	H 	0.81280 0.24810 0.63420 0.08700
H 	H 	0.99690 0.36560 0.62340 -0.01600
H 	H 	0.72460 0.05770 0.59790 0.05400
H 	H 	0.56750 0.24310 0.46950 0.08400
H 	H 	0.48830 0.32210 0.38450 0.01200
H 	H 	0.22190 0.04070 0.17360 -0.01200
H 	H 	0.29300 0.95540 0.25200 0.09200
H 	H 	0.90910 0.90730 0.08410 -0.01100
H 	H 	0.93760 0.00400 0.25530 0.09700
H 	H 	0.91520 0.72980 0.26110 0.09900
H 	H 	0.89040 0.64280 0.08790 0.00200
H 	H 	0.11790 0.06550 0.40990 0.04900
H 	H 	0.80350 0.72850 0.47120 0.07100
H 	H 	0.59720 0.58430 0.39670 0.00100
H 	H 	0.44710 0.70070 0.24440 -0.01800
H 	H 	0.64990 0.84300 0.30650 0.09400
C 	C 	0.12890 0.80040 0.61060 0.07900
C 	C 	0.23980 0.87460 0.60980 -0.15400
C 	C 	0.26610 0.85710 0.51570 0.09200
C 	C 	0.17470 0.76600 0.42970 -0.16300
C 	C 	0.06440 0.69480 0.43650 0.05800
C 	C 	0.38950 0.92890 0.50890 -0.01900
C 	C 	0.36570 0.96660 0.44240 -0.05600
C 	C 	0.52500 0.95970 0.56500 -0.01700
C 	C 	0.56400 0.91040 0.62700 0.09200
C 	C 	0.50490 0.80000 0.59010 -0.14100
C 	C 	0.55300 0.75260 0.64150 0.07000
C 	C 	0.70900 0.91740 0.76490 0.09500
C 	C 	0.66650 0.96920 0.71810 -0.16600
C 	C 	0.08900 0.12900 0.87960 0.09900
C 	C 	0.07150 0.06980 0.77660 -0.17500
C 	C 	0.06770 0.12160 0.72080 0.10000
C 	C 	0.08440 0.23170 0.77320 -0.16100
C 	C 	0.10040 0.28340 0.87760 0.08900
C 	C 	0.04040 0.05850 0.60610 -0.01900
C 	C 	0.92910 0.96150 0.55340 -0.05600
C 	C 	0.11550 0.09720 0.55210 -0.01500
C 	C 	0.24750 0.19600 0.60300 0.09400
C 	C 	0.26690 0.27580 0.57630 -0.14600
C 	C 	0.39210 0.36190 0.62100 0.07500
C 	C 	0.47920 0.29500 0.71050 0.10400
C 	C 	0.35810 0.20800 0.67250 -0.16600
C 	C 	0.87110 0.19960 0.38940 0.07900
C 	C 	0.76020 0.12540 0.39020 -0.15400
C 	C 	0.73390 0.14290 0.48430 0.09200
C 	C 	0.82530 0.23400 0.57030 -0.16300
C 	C 	0.93560 0.30520 0.56350 0.05800
C 	C 	0.61050 0.07110 0.49110 -0.01900
C 	C 	0.63430 0.03340 0.55760 -0.05600
C 	C 	0.47500 0.04030 0.43500 -0.01700
C 	C 	0.43600 0.08960 0.37300 0.09200
C 	C 	0.49510 0.20000 0.40990 -0.14100
C 	C 	0.44700 0.24740 0.35850 0.07000
C 	C 	0.29100 0.08260 0.23510 0.09500
C 	C 	0.33350 0.03080 0.28190 -0.16600
C 	C 	0.91100 0.87100 0.12040 0.09900
C 	C 	0.92850 0.93020 0.22340 -0.17500
C 	C 	0.93230 0.87840 0.27920 0.10000
C 	C 	0.91560 0.76830 0.22680 -0.16100
C 	C 	0.89960 0.71660 0.12240 0.08900
C 	C 	0.95960 0.94150 0.39390 -0.01900
C 	C 	0.07090 0.03850 0.44660 -0.05600
C 	C 	0.88450 0.90280 0.44790 -0.01500
C 	C 	0.75250 0.80400 0.39700 0.09400
C 	C 	0.73310 0.72420 0.42370 -0.14600
C 	C 	0.60790 0.63810 0.37900 0.07500
C 	C 	0.52080 0.70500 0.28950 0.10400
C 	C 	0.64190 0.79200 0.32750 -0.16600
I 	I 	0.70964 0.53856 0.59101 -0.72800
I 	I 	0.15471 0.58763 0.66458 -0.56500
I 	I 	0.00517 0.83281 0.87158 -0.58700
I 	I 	0.89734 0.49791 0.84273 -0.59200
I 	I 	0.56825 0.66219 0.87407 -0.56000
I 	I 	0.29036 0.46144 0.40899 -0.72800
I 	I 	0.84529 0.41237 0.33542 -0.56500
I 	I 	0.99483 0.16719 0.12842 -0.58700
I 	I 	0.10266 0.50209 0.15727 -0.59200
I 	I 	0.43175 0.33781 0.12593 -0.56000
N 	N 	0.04230 0.70950 0.52650 -0.25100
N 	N 	0.65660 0.81080 0.72700 -0.24000
N 	N 	0.10330 0.23370 0.93170 -0.24800
N 	N 	0.49910 0.37280 0.68820 -0.24200
N 	N 	0.95770 0.29050 0.47350 -0.25100
N 	N 	0.34340 0.18920 0.27300 -0.24000
N 	N 	0.89670 0.76630 0.06830 -0.24800
N 	N 	0.50090 0.62720 0.31180 -0.24200
