data_crystal

_cell_length_a 7.13100
_cell_length_b 20.89100
_cell_length_c 27.84500
_cell_angle_alpha 107.85300
_cell_angle_beta  90.00000
_cell_angle_gamma 90.00000

_symmetry_space_group_name_	'P 1'
_symmetry_space_group_name_H-M	'P 1'

loop_
_symmetry_equiv_pos_as_xyz
  x,y,z

loop_
_atom_site_label
_atom_site_type_symbol
_atom_site_fract_x
_atom_site_fract_y
_atom_site_fract_z
_atom_site_charge
Nd	Nd	0.87579 0.90940 0.66026 2.30700
Nd	Nd	0.08219 0.74538 0.20476 2.27700
Nd	Nd	0.37579 0.09060 0.83974 2.31600
Nd	Nd	0.58219 0.25462 0.29524 2.29000
Nd	Nd	0.12421 0.09060 0.33974 2.30800
Nd	Nd	0.91781 0.25462 0.79524 2.27800
Nd	Nd	0.62421 0.90940 0.16026 2.31600
Nd	Nd	0.41781 0.74538 0.70476 2.29000
P 	P 	0.95510 0.91773 0.27221 0.60700
P 	P 	0.91890 0.74832 0.67741 0.52100
P 	P 	0.38040 0.86260 0.62461 0.57300
P 	P 	0.45510 0.08227 0.22779 0.59800
P 	P 	0.41890 0.25168 0.82259 0.52400
P 	P 	0.88040 0.13740 0.87539 0.56900
P 	P 	0.04490 0.08227 0.72779 0.60700
P 	P 	0.08110 0.25168 0.32259 0.52100
P 	P 	0.61960 0.13740 0.37539 0.57300
P 	P 	0.54490 0.91773 0.77221 0.59800
P 	P 	0.58110 0.74832 0.17741 0.52400
P 	P 	0.11960 0.86260 0.12461 0.56900
H 	H 	0.64650 0.98730 0.32330 0.10100
H 	H 	0.81810 0.61930 0.68550 0.13300
H 	H 	0.02200 0.61840 0.68680 0.14000
H 	H 	0.07720 0.79300 0.54770 0.12700
H 	H 	0.16360 0.76460 0.58380 0.09900
H 	H 	0.87760 0.90130 0.34870 0.11900
H 	H 	0.74660 0.85730 0.30590 0.10100
H 	H 	0.43220 0.98120 0.38250 0.08300
H 	H 	0.44320 0.90330 0.35640 0.08100
H 	H 	0.55420 0.83600 0.40340 0.10800
H 	H 	0.68400 0.82310 0.47650 0.00400
H 	H 	0.81940 0.01790 0.52230 0.01700
H 	H 	0.69190 0.03060 0.44950 0.10000
H 	H 	0.82350 0.65320 0.61420 0.04800
H 	H 	0.04280 0.65480 0.61790 0.04700
H 	H 	0.03160 0.53290 0.61070 0.05400
H 	H 	0.81150 0.53310 0.61070 0.05000
H 	H 	0.64140 0.49270 0.67310 0.07800
H 	H 	0.64000 0.42930 0.72800 0.02700
H 	H 	0.19830 0.40650 0.71170 0.02600
H 	H 	0.19780 0.47300 0.65920 0.07600
H 	H 	0.99380 0.76290 0.37910 0.00200
H 	H 	0.95920 0.74810 0.45780 0.10700
H 	H 	0.29950 0.68050 0.52140 0.04900
H 	H 	0.08110 0.67950 0.51440 0.05700
H 	H 	0.45570 0.79100 0.54390 0.09100
H 	H 	0.32170 0.84850 0.53900 0.09900
H 	H 	0.48070 0.67790 0.45030 0.09100
H 	H 	0.52210 0.69640 0.37280 0.00100
H 	H 	0.45220 0.74830 0.27480 0.31200
H 	H 	0.14650 0.01270 0.17670 0.09800
H 	H 	0.31810 0.38070 0.81450 0.13400
H 	H 	0.52200 0.38160 0.81320 0.13600
H 	H 	0.57720 0.20700 0.95230 0.12600
H 	H 	0.66360 0.23540 0.91620 0.09800
H 	H 	0.37760 0.09870 0.15130 0.11800
H 	H 	0.24660 0.14270 0.19410 0.10000
H 	H 	0.93220 0.01880 0.11750 0.09400
H 	H 	0.94320 0.09670 0.14360 0.09200
H 	H 	0.05420 0.16400 0.09660 0.10900
H 	H 	0.18400 0.17690 0.02350 0.00200
H 	H 	0.31940 0.98210 0.97770 0.01600
H 	H 	0.19190 0.96940 0.05050 0.10200
H 	H 	0.32350 0.34680 0.88580 0.04600
H 	H 	0.54280 0.34520 0.88210 0.04200
H 	H 	0.53160 0.46710 0.88930 0.05000
H 	H 	0.31150 0.46690 0.88930 0.04900
H 	H 	0.14140 0.50730 0.82690 0.08000
H 	H 	0.14000 0.57070 0.77200 0.02800
H 	H 	0.69830 0.59350 0.78830 0.02700
H 	H 	0.69780 0.52700 0.84080 0.07600
H 	H 	0.49380 0.23710 0.12090 -0.00800
H 	H 	0.45920 0.25190 0.04220 0.11000
H 	H 	0.79950 0.31950 0.97860 0.05000
H 	H 	0.58110 0.32050 0.98560 0.05800
H 	H 	0.95570 0.20900 0.95610 0.09000
H 	H 	0.82170 0.15150 0.96100 0.09800
H 	H 	0.98070 0.32210 0.04970 0.09600
H 	H 	0.02210 0.30360 0.12720 -0.00900
H 	H 	0.95220 0.25170 0.22520 0.31300
H 	H 	0.35350 0.01270 0.67670 0.10100
H 	H 	0.18190 0.38070 0.31450 0.13300
H 	H 	0.97800 0.38160 0.31320 0.14000
H 	H 	0.92280 0.20700 0.45230 0.12700
H 	H 	0.83640 0.23540 0.41620 0.09900
H 	H 	0.12240 0.09870 0.65130 0.11900
H 	H 	0.25340 0.14270 0.69410 0.10100
H 	H 	0.56780 0.01880 0.61750 0.08300
H 	H 	0.55680 0.09670 0.64360 0.08100
H 	H 	0.44580 0.16400 0.59660 0.10800
H 	H 	0.31600 0.17690 0.52350 0.00400
H 	H 	0.18060 0.98210 0.47770 0.01700
H 	H 	0.30810 0.96940 0.55050 0.10000
H 	H 	0.17650 0.34680 0.38580 0.04800
H 	H 	0.95720 0.34520 0.38210 0.04700
H 	H 	0.96840 0.46710 0.38930 0.05400
H 	H 	0.18850 0.46690 0.38930 0.05000
H 	H 	0.35860 0.50730 0.32690 0.07800
H 	H 	0.36000 0.57070 0.27200 0.02700
H 	H 	0.80170 0.59350 0.28830 0.02600
H 	H 	0.80220 0.52700 0.34080 0.07600
H 	H 	0.00620 0.23710 0.62090 0.00200
H 	H 	0.04080 0.25190 0.54220 0.10700
H 	H 	0.70050 0.31950 0.47860 0.04900
H 	H 	0.91890 0.32050 0.48560 0.05700
H 	H 	0.54430 0.20900 0.45610 0.09100
H 	H 	0.67830 0.15150 0.46100 0.09900
H 	H 	0.51930 0.32210 0.54970 0.09100
H 	H 	0.47790 0.30360 0.62720 0.00100
H 	H 	0.54780 0.25170 0.72520 0.31200
H 	H 	0.85350 0.98730 0.82330 0.09800
H 	H 	0.68190 0.61930 0.18550 0.13400
H 	H 	0.47800 0.61840 0.18680 0.13600
H 	H 	0.42280 0.79300 0.04770 0.12600
H 	H 	0.33640 0.76460 0.08380 0.09800
H 	H 	0.62240 0.90130 0.84870 0.11800
H 	H 	0.75340 0.85730 0.80590 0.10000
H 	H 	0.06780 0.98120 0.88250 0.09400
H 	H 	0.05680 0.90330 0.85640 0.09200
H 	H 	0.94580 0.83600 0.90340 0.10900
H 	H 	0.81600 0.82310 0.97650 0.00200
H 	H 	0.68060 0.01790 0.02230 0.01600
H 	H 	0.80810 0.03060 0.94950 0.10200
H 	H 	0.67650 0.65320 0.11420 0.04600
H 	H 	0.45720 0.65480 0.11790 0.04200
H 	H 	0.46840 0.53290 0.11070 0.05000
H 	H 	0.68850 0.53310 0.11070 0.04900
H 	H 	0.85860 0.49270 0.17310 0.08000
H 	H 	0.86000 0.42930 0.22800 0.02800
H 	H 	0.30170 0.40650 0.21170 0.02700
H 	H 	0.30220 0.47300 0.15920 0.07600
H 	H 	0.50620 0.76290 0.87910 -0.00800
H 	H 	0.54080 0.74810 0.95780 0.11000
H 	H 	0.20050 0.68050 0.02140 0.05000
H 	H 	0.41890 0.67950 0.01440 0.05800
H 	H 	0.04430 0.79100 0.04390 0.09000
H 	H 	0.17830 0.84850 0.03900 0.09800
H 	H 	0.01930 0.67790 0.95030 0.09600
H 	H 	0.97790 0.69640 0.87280 -0.00900
H 	H 	0.04780 0.74830 0.77480 0.31300
C 	C 	0.80370 0.90130 0.31950 -0.24700
C 	C 	0.51710 0.94310 0.37250 -0.15400
C 	C 	0.60990 0.93480 0.41940 0.14900
C 	C 	0.60780 0.87270 0.42730 -0.19000
C 	C 	0.68610 0.86490 0.47120 0.08400
C 	C 	0.76650 0.91930 0.50680 -0.13500
C 	C 	0.76680 0.98100 0.49840 0.08200
C 	C 	0.68960 0.98870 0.45480 -0.17500
C 	C 	0.84810 0.91120 0.55510 0.33500
C 	C 	0.92820 0.66160 0.63760 -0.19500
C 	C 	0.92140 0.54060 0.63220 -0.12500
C 	C 	0.92060 0.49150 0.66260 0.09900
C 	C 	0.75380 0.47690 0.68210 -0.14500
C 	C 	0.75290 0.43900 0.71500 0.05500
C 	C 	0.92120 0.41520 0.72870 -0.11900
C 	C 	0.08690 0.42580 0.70550 0.06100
C 	C 	0.08610 0.46470 0.67350 -0.14300
C 	C 	0.92380 0.37850 0.76690 0.31100
C 	C 	0.28190 0.74380 0.31920 0.48400
C 	C 	0.26240 0.73230 0.36940 -0.20800
C 	C 	0.09320 0.74700 0.39380 0.12600
C 	C 	0.07270 0.73780 0.44080 -0.21000
C 	C 	0.21940 0.71360 0.46230 0.15400
C 	C 	0.19400 0.70530 0.51410 -0.14700
C 	C 	0.34500 0.81710 0.55770 -0.22300
C 	C 	0.38400 0.69650 0.43650 -0.21200
C 	C 	0.40860 0.70670 0.38980 0.12800
C 	C 	0.30370 0.09870 0.18050 -0.24600
C 	C 	0.01710 0.05690 0.12750 -0.18000
C 	C 	0.10990 0.06520 0.08060 0.15900
C 	C 	0.10780 0.12730 0.07270 -0.19700
C 	C 	0.18610 0.13510 0.02880 0.08800
C 	C 	0.26650 0.08070 0.99320 -0.13800
C 	C 	0.26680 0.01900 0.00160 0.08600
C 	C 	0.18960 0.01130 0.04520 -0.18300
C 	C 	0.34810 0.08880 0.94490 0.33600
C 	C 	0.42820 0.33840 0.86240 -0.18700
C 	C 	0.42140 0.45940 0.86780 -0.11900
C 	C 	0.42060 0.50850 0.83740 0.10300
C 	C 	0.25380 0.52310 0.81790 -0.14500
C 	C 	0.25290 0.56100 0.78500 0.05400
C 	C 	0.42120 0.58480 0.77130 -0.11400
C 	C 	0.58690 0.57420 0.79450 0.05400
C 	C 	0.58610 0.53530 0.82650 -0.14700
C 	C 	0.42380 0.62150 0.73310 0.31700
C 	C 	0.78190 0.25620 0.18080 0.48900
C 	C 	0.76240 0.26770 0.13060 -0.22000
C 	C 	0.59320 0.25300 0.10620 0.14400
C 	C 	0.57270 0.26220 0.05920 -0.22000
C 	C 	0.71940 0.28640 0.03770 0.16400
C 	C 	0.69400 0.29470 0.98590 -0.15300
C 	C 	0.84500 0.18290 0.94230 -0.22200
C 	C 	0.88400 0.30350 0.06350 -0.22400
C 	C 	0.90860 0.29330 0.11020 0.14600
C 	C 	0.19630 0.09870 0.68050 -0.24700
C 	C 	0.48290 0.05690 0.62750 -0.15400
C 	C 	0.39010 0.06520 0.58060 0.14900
C 	C 	0.39220 0.12730 0.57270 -0.19000
C 	C 	0.31390 0.13510 0.52880 0.08400
C 	C 	0.23350 0.08070 0.49320 -0.13500
C 	C 	0.23320 0.01900 0.50160 0.08200
C 	C 	0.31040 0.01130 0.54520 -0.17500
C 	C 	0.15190 0.08880 0.44490 0.33500
C 	C 	0.07180 0.33840 0.36240 -0.19500
C 	C 	0.07860 0.45940 0.36780 -0.12500
C 	C 	0.07940 0.50850 0.33740 0.09900
C 	C 	0.24620 0.52310 0.31790 -0.14500
C 	C 	0.24710 0.56100 0.28500 0.05500
C 	C 	0.07880 0.58480 0.27130 -0.11900
C 	C 	0.91310 0.57420 0.29450 0.06100
C 	C 	0.91390 0.53530 0.32650 -0.14300
C 	C 	0.07620 0.62150 0.23310 0.31100
C 	C 	0.71810 0.25620 0.68080 0.48400
C 	C 	0.73760 0.26770 0.63060 -0.20800
C 	C 	0.90680 0.25300 0.60620 0.12600
C 	C 	0.92730 0.26220 0.55920 -0.21000
C 	C 	0.78060 0.28640 0.53770 0.15400
C 	C 	0.80600 0.29470 0.48590 -0.14700
C 	C 	0.65500 0.18290 0.44230 -0.22300
C 	C 	0.61600 0.30350 0.56350 -0.21200
C 	C 	0.59140 0.29330 0.61020 0.12800
C 	C 	0.69630 0.90130 0.81950 -0.24600
C 	C 	0.98290 0.94310 0.87250 -0.18000
C 	C 	0.89010 0.93480 0.91940 0.15900
C 	C 	0.89220 0.87270 0.92730 -0.19700
C 	C 	0.81390 0.86490 0.97120 0.08800
C 	C 	0.73350 0.91930 0.00680 -0.13800
C 	C 	0.73320 0.98100 0.99840 0.08600
C 	C 	0.81040 0.98870 0.95480 -0.18300
C 	C 	0.65190 0.91120 0.05510 0.33600
C 	C 	0.57180 0.66160 0.13760 -0.18700
C 	C 	0.57860 0.54060 0.13220 -0.11900
C 	C 	0.57940 0.49150 0.16260 0.10300
C 	C 	0.74620 0.47690 0.18210 -0.14500
C 	C 	0.74710 0.43900 0.21500 0.05400
C 	C 	0.57880 0.41520 0.22870 -0.11400
C 	C 	0.41310 0.42580 0.20550 0.05400
C 	C 	0.41390 0.46470 0.17350 -0.14700
C 	C 	0.57620 0.37850 0.26690 0.31700
C 	C 	0.21810 0.74380 0.81920 0.48900
C 	C 	0.23760 0.73230 0.86940 -0.22000
C 	C 	0.40680 0.74700 0.89380 0.14400
C 	C 	0.42730 0.73780 0.94080 -0.22000
C 	C 	0.28060 0.71360 0.96230 0.16400
C 	C 	0.30600 0.70530 0.01410 -0.15300
C 	C 	0.15500 0.81710 0.05770 -0.22200
C 	C 	0.11600 0.69650 0.93650 -0.22400
C 	C 	0.09140 0.70670 0.88980 0.14600
N 	N 	0.65350 0.95370 0.33505 -0.13200
N 	N 	0.92190 0.61210 0.66620 -0.22500
N 	N 	0.18000 0.77170 0.55383 -0.19900
N 	N 	0.15350 0.04630 0.16495 -0.12900
N 	N 	0.42190 0.38790 0.83380 -0.22300
N 	N 	0.68000 0.22830 0.94617 -0.19800
N 	N 	0.34650 0.04630 0.66495 -0.13200
N 	N 	0.07810 0.38790 0.33380 -0.22500
N 	N 	0.82000 0.22830 0.44617 -0.19900
N 	N 	0.84650 0.95370 0.83505 -0.12900
N 	N 	0.57810 0.61210 0.16620 -0.22300
N 	N 	0.32000 0.77170 0.05383 -0.19800
O 	O 	0.87620 0.96320 0.59126 -0.44300
O 	O 	0.87380 0.85250 0.55728 -0.40300
O 	O 	0.06790 0.97970 0.29863 -0.55600
O 	O 	0.08180 0.85720 0.25501 -0.53500
O 	O 	0.82600 0.92960 0.23270 -0.54100
O 	O 	0.93490 0.78980 0.64171 -0.54600
O 	O 	0.73720 0.75800 0.70615 -0.57200
O 	O 	0.08510 0.75690 0.71347 -0.53200
O 	O 	0.77120 0.36620 0.78549 -0.42800
O 	O 	0.07720 0.35740 0.77870 -0.42700
O 	O 	0.45320 0.74380 0.30310 -0.54200
O 	O 	0.14190 0.75280 0.29633 -0.49200
O 	O 	0.56120 0.90070 0.62830 -0.51500
O 	O 	0.21270 0.90900 0.64029 -0.49000
O 	O 	0.38430 0.80570 0.64755 -0.58400
O 	O 	0.37620 0.03680 0.90874 -0.44300
O 	O 	0.37380 0.14750 0.94272 -0.40300
O 	O 	0.56790 0.02030 0.20137 -0.55200
O 	O 	0.58180 0.14280 0.24499 -0.53100
O 	O 	0.32600 0.07040 0.26730 -0.54200
O 	O 	0.43490 0.21020 0.85829 -0.54400
O 	O 	0.23720 0.24200 0.79385 -0.56800
O 	O 	0.58510 0.24310 0.78653 -0.53400
O 	O 	0.27120 0.63380 0.71451 -0.43000
O 	O 	0.57720 0.64260 0.72130 -0.43500
O 	O 	0.95320 0.25620 0.19690 -0.54200
O 	O 	0.64190 0.24720 0.20367 -0.49200
O 	O 	0.06120 0.09930 0.87170 -0.51200
O 	O 	0.71270 0.09100 0.85971 -0.49300
O 	O 	0.88430 0.19430 0.85245 -0.58400
O 	O 	0.12380 0.03680 0.40874 -0.44300
O 	O 	0.12620 0.14750 0.44272 -0.40300
O 	O 	0.93210 0.02030 0.70137 -0.55600
O 	O 	0.91820 0.14280 0.74499 -0.53500
O 	O 	0.17400 0.07040 0.76730 -0.54100
O 	O 	0.06510 0.21020 0.35829 -0.54600
O 	O 	0.26280 0.24200 0.29385 -0.57200
O 	O 	0.91490 0.24310 0.28653 -0.53200
O 	O 	0.22880 0.63380 0.21451 -0.42800
O 	O 	0.92280 0.64260 0.22130 -0.42700
O 	O 	0.54680 0.25620 0.69690 -0.54200
O 	O 	0.85810 0.24720 0.70367 -0.49200
O 	O 	0.43880 0.09930 0.37170 -0.51500
O 	O 	0.78730 0.09100 0.35971 -0.49000
O 	O 	0.61570 0.19430 0.35245 -0.58400
O 	O 	0.62380 0.96320 0.09126 -0.44300
O 	O 	0.62620 0.85250 0.05728 -0.40300
O 	O 	0.43210 0.97970 0.79863 -0.55200
O 	O 	0.41820 0.85720 0.75501 -0.53100
O 	O 	0.67400 0.92960 0.73270 -0.54200
O 	O 	0.56510 0.78980 0.14171 -0.54400
O 	O 	0.76280 0.75800 0.20615 -0.56800
O 	O 	0.41490 0.75690 0.21347 -0.53400
O 	O 	0.72880 0.36620 0.28549 -0.43000
O 	O 	0.42280 0.35740 0.27870 -0.43500
O 	O 	0.04680 0.74380 0.80310 -0.54200
O 	O 	0.35810 0.75280 0.79633 -0.49200
O 	O 	0.93880 0.90070 0.12830 -0.51200
O 	O 	0.28730 0.90900 0.14029 -0.49300
O 	O 	0.11570 0.80570 0.14755 -0.58400
