data_crystal

_cell_length_a 7.07700
_cell_length_b 20.94300
_cell_length_c 27.80900
_cell_angle_alpha 107.30900
_cell_angle_beta  90.00000
_cell_angle_gamma 90.00000

_symmetry_space_group_name_	'P 1'
_symmetry_space_group_name_H-M	'P 1'

loop_
_symmetry_equiv_pos_as_xyz
  x,y,z

loop_
_atom_site_label
_atom_site_type_symbol
_atom_site_fract_x
_atom_site_fract_y
_atom_site_fract_z
_atom_site_charge
Eu	Eu	0.87283 0.91084 0.66223 2.00900
Eu	Eu	0.08672 0.74800 0.20815 1.97600
Eu	Eu	0.37283 0.08916 0.83777 2.01500
Eu	Eu	0.58672 0.25200 0.29185 1.98500
Eu	Eu	0.12717 0.08916 0.33777 2.01000
Eu	Eu	0.91328 0.25200 0.79185 1.97600
Eu	Eu	0.62717 0.91084 0.16224 2.01500
Eu	Eu	0.41328 0.74800 0.70815 1.98500
P 	P 	0.95947 0.91817 0.27312 0.57900
P 	P 	0.91352 0.75199 0.68109 0.50900
P 	P 	0.37760 0.86350 0.62721 0.54500
P 	P 	0.45947 0.08183 0.22688 0.57100
P 	P 	0.41352 0.24801 0.81891 0.51200
P 	P 	0.87760 0.13650 0.87279 0.54200
P 	P 	0.04053 0.08183 0.72688 0.57900
P 	P 	0.08648 0.24801 0.31891 0.50900
P 	P 	0.62240 0.13650 0.37279 0.54500
P 	P 	0.54053 0.91817 0.77312 0.57100
P 	P 	0.58648 0.75199 0.18109 0.51200
P 	P 	0.12240 0.86350 0.12721 0.54200
H 	H 	0.65060 0.98780 0.32350 0.10900
H 	H 	0.81000 0.62210 0.68730 0.13600
H 	H 	0.01530 0.62020 0.68930 0.14300
H 	H 	0.07320 0.79450 0.55110 0.13200
H 	H 	0.16110 0.76560 0.58680 0.10600
H 	H 	0.88360 0.90390 0.35060 0.12100
H 	H 	0.75160 0.85900 0.30860 0.10900
H 	H 	0.43230 0.98180 0.38300 0.09200
H 	H 	0.44250 0.90440 0.35720 0.08900
H 	H 	0.54920 0.83750 0.40560 0.11000
H 	H 	0.67910 0.82420 0.47850 0.00200
H 	H 	0.82000 0.01710 0.52360 0.01600
H 	H 	0.70050 0.03030 0.45000 0.10100
H 	H 	0.82400 0.65790 0.61630 0.05700
H 	H 	0.04440 0.65960 0.62180 0.05400
H 	H 	0.02510 0.53710 0.61230 0.05900
H 	H 	0.80320 0.53800 0.61210 0.05500
H 	H 	0.63080 0.49280 0.67260 0.07800
H 	H 	0.63020 0.42860 0.72780 0.02700
H 	H 	0.19260 0.40850 0.71180 0.02600
H 	H 	0.19050 0.47320 0.65760 0.07600
H 	H 	0.99030 0.76720 0.38270 0.00800
H 	H 	0.95050 0.74930 0.46090 0.10300
H 	H 	0.29400 0.68190 0.52450 0.05500
H 	H 	0.07400 0.68200 0.51770 0.06000
H 	H 	0.45460 0.79240 0.54720 0.09400
H 	H 	0.31950 0.84960 0.54170 0.09900
H 	H 	0.48010 0.68160 0.45500 0.09000
H 	H 	0.51870 0.69550 0.37560 0.00500
H 	H 	0.45230 0.75040 0.27800 0.31600
H 	H 	0.15060 0.01220 0.17650 0.10700
H 	H 	0.31000 0.37790 0.81270 0.13600
H 	H 	0.51530 0.37980 0.81070 0.14000
H 	H 	0.57320 0.20550 0.94890 0.13100
H 	H 	0.66110 0.23440 0.91320 0.10500
H 	H 	0.38360 0.09610 0.14940 0.11900
H 	H 	0.25160 0.14100 0.19140 0.10700
H 	H 	0.93230 0.01820 0.11700 0.10100
H 	H 	0.94250 0.09560 0.14280 0.09800
H 	H 	0.04920 0.16250 0.09440 0.11100
H 	H 	0.17910 0.17580 0.02150 0.00100
H 	H 	0.32000 0.98290 0.97640 0.01500
H 	H 	0.20050 0.96970 0.05000 0.10300
H 	H 	0.32400 0.34210 0.88370 0.05600
H 	H 	0.54440 0.34040 0.87820 0.05100
H 	H 	0.52510 0.46290 0.88770 0.05500
H 	H 	0.30320 0.46200 0.88790 0.05400
H 	H 	0.13080 0.50720 0.82740 0.07900
H 	H 	0.13020 0.57140 0.77220 0.02800
H 	H 	0.69260 0.59150 0.78820 0.02700
H 	H 	0.69050 0.52680 0.84240 0.07600
H 	H 	0.49030 0.23280 0.11730 0.00100
H 	H 	0.45050 0.25070 0.03910 0.10500
H 	H 	0.79400 0.31810 0.97550 0.05500
H 	H 	0.57400 0.31800 0.98230 0.06100
H 	H 	0.95460 0.20760 0.95280 0.09400
H 	H 	0.81950 0.15040 0.95830 0.09900
H 	H 	0.98010 0.31840 0.04500 0.09400
H 	H 	0.01870 0.30450 0.12440 -0.00200
H 	H 	0.95230 0.24960 0.22200 0.31700
H 	H 	0.34940 0.01220 0.67650 0.10900
H 	H 	0.19000 0.37790 0.31270 0.13600
H 	H 	0.98470 0.37980 0.31070 0.14300
H 	H 	0.92680 0.20550 0.44890 0.13200
H 	H 	0.83890 0.23440 0.41320 0.10600
H 	H 	0.11640 0.09610 0.64940 0.12100
H 	H 	0.24840 0.14100 0.69140 0.10900
H 	H 	0.56770 0.01820 0.61700 0.09200
H 	H 	0.55750 0.09560 0.64280 0.08900
H 	H 	0.45080 0.16250 0.59440 0.11000
H 	H 	0.32090 0.17580 0.52150 0.00200
H 	H 	0.18000 0.98290 0.47640 0.01600
H 	H 	0.29950 0.96970 0.55000 0.10100
H 	H 	0.17600 0.34210 0.38370 0.05700
H 	H 	0.95560 0.34040 0.37820 0.05400
H 	H 	0.97490 0.46290 0.38770 0.05900
H 	H 	0.19680 0.46200 0.38790 0.05500
H 	H 	0.36920 0.50720 0.32740 0.07800
H 	H 	0.36980 0.57140 0.27220 0.02700
H 	H 	0.80740 0.59150 0.28820 0.02600
H 	H 	0.80950 0.52680 0.34240 0.07600
H 	H 	0.00970 0.23280 0.61730 0.00800
H 	H 	0.04950 0.25070 0.53910 0.10300
H 	H 	0.70600 0.31810 0.47550 0.05500
H 	H 	0.92600 0.31800 0.48230 0.06000
H 	H 	0.54540 0.20760 0.45280 0.09400
H 	H 	0.68050 0.15040 0.45830 0.09900
H 	H 	0.51990 0.31840 0.54500 0.09000
H 	H 	0.48130 0.30450 0.62440 0.00500
H 	H 	0.54770 0.24960 0.72200 0.31600
H 	H 	0.84940 0.98780 0.82350 0.10700
H 	H 	0.69000 0.62210 0.18730 0.13600
H 	H 	0.48470 0.62020 0.18930 0.14000
H 	H 	0.42680 0.79450 0.05110 0.13100
H 	H 	0.33890 0.76560 0.08680 0.10500
H 	H 	0.61640 0.90390 0.85060 0.11900
H 	H 	0.74840 0.85900 0.80860 0.10700
H 	H 	0.06770 0.98180 0.88300 0.10100
H 	H 	0.05750 0.90440 0.85720 0.09800
H 	H 	0.95080 0.83750 0.90560 0.11100
H 	H 	0.82090 0.82420 0.97850 0.00100
H 	H 	0.68000 0.01710 0.02360 0.01500
H 	H 	0.79950 0.03030 0.95000 0.10300
H 	H 	0.67600 0.65790 0.11630 0.05600
H 	H 	0.45560 0.65960 0.12180 0.05100
H 	H 	0.47490 0.53710 0.11230 0.05500
H 	H 	0.69680 0.53800 0.11210 0.05400
H 	H 	0.86920 0.49280 0.17260 0.07900
H 	H 	0.86980 0.42860 0.22780 0.02800
H 	H 	0.30740 0.40850 0.21180 0.02700
H 	H 	0.30950 0.47320 0.15760 0.07600
H 	H 	0.50970 0.76720 0.88270 0.00100
H 	H 	0.54950 0.74930 0.96090 0.10500
H 	H 	0.20600 0.68190 0.02450 0.05500
H 	H 	0.42600 0.68200 0.01770 0.06100
H 	H 	0.04540 0.79240 0.04720 0.09400
H 	H 	0.18050 0.84960 0.04170 0.09900
H 	H 	0.01990 0.68160 0.95500 0.09400
H 	H 	0.98130 0.69550 0.87560 -0.00200
H 	H 	0.04770 0.75040 0.77800 0.31700
C 	C 	0.80850 0.90300 0.32120 -0.24200
C 	C 	0.51740 0.94380 0.37321 -0.16700
C 	C 	0.60890 0.93500 0.41976 0.15300
C 	C 	0.60480 0.87400 0.42900 -0.19400
C 	C 	0.68280 0.86590 0.47310 0.09100
C 	C 	0.76470 0.91880 0.50820 -0.14300
C 	C 	0.76760 0.98060 0.49960 0.08500
C 	C 	0.69370 0.98870 0.45570 -0.17500
C 	C 	0.84300 0.91110 0.55670 0.33400
C 	C 	0.92660 0.66570 0.64045 -0.19500
C 	C 	0.91380 0.54450 0.63360 -0.13000
C 	C 	0.91120 0.49510 0.66350 0.10100
C 	C 	0.74480 0.47790 0.68200 -0.14500
C 	C 	0.74360 0.43860 0.71470 0.05400
C 	C 	0.91390 0.41440 0.72740 -0.12100
C 	C 	0.07950 0.42680 0.70510 0.06200
C 	C 	0.07890 0.46610 0.67300 -0.14300
C 	C 	0.91640 0.37610 0.76490 0.31900
C 	C 	0.27840 0.74540 0.32190 0.47200
C 	C 	0.25980 0.73380 0.37210 -0.19500
C 	C 	0.08870 0.74980 0.39710 0.11000
C 	C 	0.06550 0.73960 0.44410 -0.19700
C 	C 	0.21430 0.71510 0.46560 0.14900
C 	C 	0.18870 0.70720 0.51720 -0.14900
C 	C 	0.34270 0.81830 0.56072 -0.21800
C 	C 	0.38160 0.69870 0.44040 -0.20400
C 	C 	0.40550 0.70740 0.39290 0.11700
C 	C 	0.30850 0.09700 0.17880 -0.24100
C 	C 	0.01740 0.05620 0.12679 -0.18800
C 	C 	0.10890 0.06500 0.08024 0.16100
C 	C 	0.10480 0.12600 0.07100 -0.20000
C 	C 	0.18280 0.13410 0.02690 0.09500
C 	C 	0.26470 0.08120 0.99180 -0.14500
C 	C 	0.26760 0.01940 0.00040 0.08800
C 	C 	0.19370 0.01130 0.04430 -0.18000
C 	C 	0.34300 0.08890 0.94330 0.33500
C 	C 	0.42660 0.33430 0.85955 -0.18900
C 	C 	0.41380 0.45550 0.86640 -0.12500
C 	C 	0.41120 0.50490 0.83650 0.10400
C 	C 	0.24480 0.52210 0.81800 -0.14500
C 	C 	0.24360 0.56140 0.78530 0.05400
C 	C 	0.41390 0.58560 0.77260 -0.11700
C 	C 	0.57950 0.57320 0.79490 0.05600
C 	C 	0.57890 0.53390 0.82700 -0.14600
C 	C 	0.41640 0.62390 0.73510 0.32400
C 	C 	0.77840 0.25460 0.17810 0.47500
C 	C 	0.75980 0.26620 0.12790 -0.20400
C 	C 	0.58870 0.25020 0.10290 0.12400
C 	C 	0.56550 0.26040 0.05590 -0.20500
C 	C 	0.71430 0.28490 0.03440 0.15600
C 	C 	0.68870 0.29280 0.98280 -0.15300
C 	C 	0.84270 0.18170 0.93928 -0.21700
C 	C 	0.88160 0.30130 0.05960 -0.21300
C 	C 	0.90550 0.29260 0.10710 0.13100
C 	C 	0.19150 0.09700 0.67880 -0.24200
C 	C 	0.48260 0.05620 0.62679 -0.16700
C 	C 	0.39110 0.06500 0.58024 0.15300
C 	C 	0.39520 0.12600 0.57100 -0.19400
C 	C 	0.31720 0.13410 0.52690 0.09100
C 	C 	0.23530 0.08120 0.49180 -0.14300
C 	C 	0.23240 0.01940 0.50040 0.08500
C 	C 	0.30630 0.01130 0.54430 -0.17500
C 	C 	0.15700 0.08890 0.44330 0.33400
C 	C 	0.07340 0.33430 0.35955 -0.19500
C 	C 	0.08620 0.45550 0.36640 -0.13000
C 	C 	0.08880 0.50490 0.33650 0.10100
C 	C 	0.25520 0.52210 0.31800 -0.14500
C 	C 	0.25640 0.56140 0.28530 0.05400
C 	C 	0.08610 0.58560 0.27260 -0.12100
C 	C 	0.92050 0.57320 0.29490 0.06200
C 	C 	0.92110 0.53390 0.32700 -0.14300
C 	C 	0.08360 0.62390 0.23510 0.31900
C 	C 	0.72160 0.25460 0.67810 0.47200
C 	C 	0.74020 0.26620 0.62790 -0.19500
C 	C 	0.91130 0.25020 0.60290 0.11000
C 	C 	0.93450 0.26040 0.55590 -0.19700
C 	C 	0.78570 0.28490 0.53440 0.14900
C 	C 	0.81130 0.29280 0.48280 -0.14900
C 	C 	0.65730 0.18170 0.43928 -0.21800
C 	C 	0.61840 0.30130 0.55960 -0.20400
C 	C 	0.59450 0.29260 0.60710 0.11700
C 	C 	0.69150 0.90300 0.82120 -0.24100
C 	C 	0.98260 0.94380 0.87321 -0.18800
C 	C 	0.89110 0.93500 0.91976 0.16100
C 	C 	0.89520 0.87400 0.92900 -0.20000
C 	C 	0.81720 0.86590 0.97310 0.09500
C 	C 	0.73530 0.91880 0.00820 -0.14500
C 	C 	0.73240 0.98060 0.99960 0.08800
C 	C 	0.80630 0.98870 0.95570 -0.18000
C 	C 	0.65700 0.91110 0.05670 0.33500
C 	C 	0.57340 0.66570 0.14045 -0.18900
C 	C 	0.58620 0.54450 0.13360 -0.12500
C 	C 	0.58880 0.49510 0.16350 0.10400
C 	C 	0.75520 0.47790 0.18200 -0.14500
C 	C 	0.75640 0.43860 0.21470 0.05400
C 	C 	0.58610 0.41440 0.22740 -0.11700
C 	C 	0.42050 0.42680 0.20510 0.05600
C 	C 	0.42110 0.46610 0.17300 -0.14600
C 	C 	0.58360 0.37610 0.26490 0.32400
C 	C 	0.22160 0.74540 0.82190 0.47500
C 	C 	0.24020 0.73380 0.87210 -0.20400
C 	C 	0.41130 0.74980 0.89710 0.12400
C 	C 	0.43450 0.73960 0.94410 -0.20500
C 	C 	0.28570 0.71510 0.96560 0.15600
C 	C 	0.31130 0.70720 0.01720 -0.15300
C 	C 	0.15730 0.81830 0.06072 -0.21700
C 	C 	0.11840 0.69870 0.94040 -0.21300
C 	C 	0.09450 0.70740 0.89290 0.13100
N 	N 	0.65740 0.95460 0.33565 -0.12900
N 	N 	0.91560 0.61500 0.66843 -0.22300
N 	N 	0.17690 0.77310 0.55687 -0.20000
N 	N 	0.15740 0.04540 0.16435 -0.12700
N 	N 	0.41560 0.38500 0.83157 -0.22200
N 	N 	0.67690 0.22690 0.94313 -0.19900
N 	N 	0.34260 0.04540 0.66435 -0.12900
N 	N 	0.08440 0.38500 0.33157 -0.22300
N 	N 	0.82310 0.22690 0.44313 -0.20000
N 	N 	0.84260 0.95460 0.83565 -0.12700
N 	N 	0.58440 0.61500 0.16843 -0.22200
N 	N 	0.32310 0.77310 0.05687 -0.19900
O 	O 	0.87440 0.96220 0.59296 -0.41600
O 	O 	0.86770 0.85240 0.55983 -0.37400
O 	O 	0.07280 0.98020 0.29843 -0.50600
O 	O 	0.08760 0.85723 0.25671 -0.48600
O 	O 	0.82850 0.92920 0.23348 -0.49100
O 	O 	0.92710 0.79474 0.64596 -0.50600
O 	O 	0.73180 0.76037 0.71030 -0.51600
O 	O 	0.08190 0.76038 0.71663 -0.48600
O 	O 	0.76440 0.36163 0.78262 -0.40800
O 	O 	0.07160 0.35440 0.77606 -0.39900
O 	O 	0.45240 0.74590 0.30628 -0.53500
O 	O 	0.13950 0.75330 0.29794 -0.46200
O 	O 	0.56020 0.90180 0.63088 -0.47000
O 	O 	0.20730 0.90947 0.64263 -0.45000
O 	O 	0.38090 0.80634 0.65022 -0.52600
O 	O 	0.37440 0.03780 0.90704 -0.41500
O 	O 	0.36770 0.14760 0.94017 -0.37300
O 	O 	0.57280 0.01980 0.20157 -0.50300
O 	O 	0.58760 0.14277 0.24329 -0.48200
O 	O 	0.32850 0.07080 0.26652 -0.49100
O 	O 	0.42710 0.20526 0.85404 -0.50500
O 	O 	0.23180 0.23963 0.78970 -0.51300
O 	O 	0.58190 0.23962 0.78337 -0.48800
O 	O 	0.26440 0.63837 0.71738 -0.40900
O 	O 	0.57160 0.64560 0.72394 -0.40600
O 	O 	0.95240 0.25410 0.19372 -0.53500
O 	O 	0.63950 0.24670 0.20206 -0.46300
O 	O 	0.06020 0.09820 0.86912 -0.46800
O 	O 	0.70730 0.09053 0.85737 -0.45200
O 	O 	0.88090 0.19366 0.84978 -0.52600
O 	O 	0.12560 0.03780 0.40704 -0.41600
O 	O 	0.13230 0.14760 0.44017 -0.37400
O 	O 	0.92720 0.01980 0.70157 -0.50600
O 	O 	0.91240 0.14277 0.74329 -0.48600
O 	O 	0.17150 0.07080 0.76652 -0.49100
O 	O 	0.07290 0.20526 0.35404 -0.50600
O 	O 	0.26820 0.23963 0.28970 -0.51600
O 	O 	0.91810 0.23962 0.28337 -0.48600
O 	O 	0.23560 0.63837 0.21738 -0.40800
O 	O 	0.92840 0.64560 0.22394 -0.39900
O 	O 	0.54760 0.25410 0.69372 -0.53500
O 	O 	0.86050 0.24670 0.70206 -0.46200
O 	O 	0.43980 0.09820 0.36912 -0.47000
O 	O 	0.79270 0.09053 0.35737 -0.45000
O 	O 	0.61910 0.19366 0.34978 -0.52600
O 	O 	0.62560 0.96220 0.09296 -0.41500
O 	O 	0.63230 0.85240 0.05983 -0.37300
O 	O 	0.42720 0.98020 0.79843 -0.50300
O 	O 	0.41240 0.85723 0.75671 -0.48200
O 	O 	0.67150 0.92920 0.73348 -0.49100
O 	O 	0.57290 0.79474 0.14596 -0.50500
O 	O 	0.76820 0.76037 0.21030 -0.51300
O 	O 	0.41810 0.76038 0.21663 -0.48800
O 	O 	0.73560 0.36163 0.28262 -0.40900
O 	O 	0.42840 0.35440 0.27606 -0.40600
O 	O 	0.04760 0.74590 0.80628 -0.53500
O 	O 	0.36050 0.75330 0.79794 -0.46300
O 	O 	0.93980 0.90180 0.13088 -0.46700
O 	O 	0.29270 0.90947 0.14263 -0.45200
O 	O 	0.11910 0.80634 0.15022 -0.52600
