data_crystal

_cell_length_a 9.40920
_cell_length_b 15.65630
_cell_length_c 15.65630
_cell_angle_alpha 84.81940
_cell_angle_beta  72.51270
_cell_angle_gamma 72.51290

_symmetry_space_group_name_	'P 1'
_symmetry_space_group_name_H-M	'P 1'

loop_
_symmetry_equiv_pos_as_xyz
  x,y,z

loop_
_atom_site_label
_atom_site_type_symbol
_atom_site_fract_x
_atom_site_fract_y
_atom_site_fract_z
_atom_site_charge
Ca	Ca	0.62500 0.85810 0.64190 1.49300
Ca	Ca	0.12500 0.14190 0.35810 1.48800
Ca	Ca	0.73310 0.64190 0.14190 1.49200
Ca	Ca	0.51690 0.35810 0.85810 1.49100
H 	H 	0.31650 0.72500 0.44700 0.18700
H 	H 	0.83610 0.69850 0.30210 -0.01100
H 	H 	0.28840 0.59100 0.28600 0.07900
H 	H 	0.02230 0.79220 0.45960 0.07400
H 	H 	0.48850 0.27500 0.55300 0.18600
H 	H 	0.83670 0.30150 0.69790 -0.02600
H 	H 	0.16540 0.40900 0.71400 0.07900
H 	H 	0.27410 0.20780 0.54040 0.05300
H 	H 	0.23650 0.44700 0.27500 0.18400
H 	H 	0.86180 0.30210 0.30150 0.00100
H 	H 	0.42560 0.28600 0.40900 0.07800
H 	H 	0.51810 0.45960 0.20780 0.07000
H 	H 	0.95850 0.55300 0.72500 0.21100
H 	H 	0.46540 0.69790 0.69850 -0.00400
H 	H 	0.12060 0.71400 0.59100 0.07600
H 	H 	0.18550 0.54040 0.79220 0.06600
H 	H 	0.76150 0.94700 0.22500 0.18400
H 	H 	0.41330 0.80210 0.19850 -0.00100
H 	H 	0.08460 0.78600 0.09100 0.07000
H 	H 	0.97590 0.95960 0.29220 0.10800
H 	H 	0.93350 0.05300 0.77500 0.18600
H 	H 	0.41390 0.19790 0.80150 -0.00200
H 	H 	0.96160 0.21400 0.90900 0.11200
H 	H 	0.22770 0.04040 0.70780 0.06300
H 	H 	0.29150 0.77500 0.94700 0.19000
H 	H 	0.78460 0.80150 0.80210 0.01400
H 	H 	0.12940 0.90900 0.78600 0.09800
H 	H 	0.06450 0.70780 0.95960 0.08800
H 	H 	0.01350 0.22500 0.05300 0.15500
H 	H 	0.38820 0.19850 0.19790 -0.01100
H 	H 	0.82440 0.09100 0.21400 0.07900
H 	H 	0.73190 0.29220 0.04040 0.06800
Pb	Pb	0.42900 0.94600 0.44600 1.24300
Pb	Pb	0.82100 0.05400 0.55400 1.24800
Pb	Pb	0.12500 0.44600 0.05400 1.23300
Pb	Pb	0.62500 0.55400 0.94600 1.24400
C 	C 	0.75197 0.82050 0.42596 0.32900
C 	C 	0.07936 0.57735 0.20645 0.33200
C 	C 	0.20250 0.88730 0.25442 -0.05200
C 	C 	0.92177 0.69658 0.32096 0.04800
C 	C 	0.06409 0.63606 0.28258 -0.10200
C 	C 	0.19288 0.63262 0.31062 -0.12000
C 	C 	0.17648 0.69261 0.37623 0.22000
C 	C 	0.03287 0.75308 0.41528 -0.17400
C 	C 	0.99843 0.17950 0.57404 0.41600
C 	C 	0.86316 0.42265 0.79355 0.36700
C 	C 	0.34422 0.11270 0.74558 -0.06800
C 	C 	0.93931 0.30342 0.67904 0.08700
C 	C 	0.98273 0.36394 0.71742 -0.07100
C 	C 	0.13612 0.36738 0.68938 -0.13700
C 	C 	0.24532 0.30739 0.62377 0.19800
C 	C 	0.20123 0.24692 0.58472 -0.09100
C 	C 	0.82207 0.42596 0.17950 0.33200
C 	C 	0.71419 0.20645 0.42265 0.36100
C 	C 	0.54308 0.25442 0.11270 -0.07800
C 	C 	0.75727 0.32096 0.30342 0.01400
C 	C 	0.65333 0.28258 0.36394 -0.07400
C 	C 	0.49650 0.31062 0.36738 -0.12200
C 	C 	0.44729 0.37623 0.30739 0.21300
C 	C 	0.55185 0.41528 0.24692 -0.13500
C 	C 	0.42753 0.57404 0.82050 0.33400
C 	C 	0.34329 0.79355 0.57735 0.36200
C 	C 	0.91020 0.74558 0.88730 -0.00400
C 	C 	0.38165 0.67904 0.69658 0.01600
C 	C 	0.29985 0.71742 0.63606 -0.07700
C 	C 	0.17450 0.68938 0.63262 -0.12600
C 	C 	0.13091 0.62377 0.69261 0.21700
C 	C 	0.21405 0.58472 0.75308 -0.13900
C 	C 	0.25157 0.92596 0.32050 0.32600
C 	C 	0.38684 0.70645 0.07735 0.36300
C 	C 	0.90578 0.75442 0.38730 -0.04000
C 	C 	0.31069 0.82096 0.19658 0.00700
C 	C 	0.26727 0.78258 0.13606 -0.07500
C 	C 	0.11388 0.81062 0.13262 -0.11900
C 	C 	0.00468 0.87623 0.19261 0.19700
C 	C 	0.04877 0.91528 0.25308 -0.18900
C 	C 	0.49803 0.07404 0.67950 0.33300
C 	C 	0.17064 0.29355 0.92265 0.35600
C 	C 	0.04750 0.24558 0.61270 -0.16200
C 	C 	0.32823 0.17904 0.80342 0.00900
C 	C 	0.18591 0.21742 0.86394 -0.06100
C 	C 	0.05712 0.18938 0.86738 -0.16900
C 	C 	0.07352 0.12377 0.80739 0.20000
C 	C 	0.21713 0.08472 0.74692 -0.13200
C 	C 	0.82247 0.67950 0.92596 0.31500
C 	C 	0.90671 0.92265 0.70645 0.34500
C 	C 	0.33980 0.61270 0.75442 -0.06900
C 	C 	0.86835 0.80342 0.82096 -0.03200
C 	C 	0.95015 0.86394 0.78258 -0.01100
C 	C 	0.07550 0.86738 0.81062 -0.19500
C 	C 	0.11909 0.80739 0.87623 0.25700
C 	C 	0.03595 0.74692 0.91528 -0.20800
C 	C 	0.42793 0.32050 0.07404 0.33800
C 	C 	0.53581 0.07735 0.29355 0.36600
C 	C 	0.70692 0.38730 0.24558 -0.06600
C 	C 	0.49273 0.19658 0.17904 0.02500
C 	C 	0.59667 0.13606 0.21742 -0.08400
C 	C 	0.75350 0.13262 0.18938 -0.11000
C 	C 	0.80271 0.19261 0.12377 0.20000
C 	C 	0.69815 0.25308 0.08472 -0.12100
O 	O 	0.73590 0.87102 0.48906 -0.53400
O 	O 	0.64365 0.82328 0.39278 -0.40000
O 	O 	0.97195 0.59838 0.16928 -0.52100
O 	O 	0.19566 0.51049 0.18301 -0.38600
O 	O 	0.30599 0.69127 0.39887 -0.34000
O 	O 	0.09598 0.12898 0.51094 -0.58300
O 	O 	0.85971 0.17672 0.60722 -0.41800
O 	O 	0.73961 0.40162 0.83072 -0.55200
O 	O 	0.88916 0.48951 0.81699 -0.38300
O 	O 	0.39613 0.30873 0.60113 -0.33300
O 	O 	0.77504 0.48906 0.12898 -0.53600
O 	O 	0.96357 0.39278 0.17672 -0.38500
O 	O 	0.85877 0.16928 0.40162 -0.54300
O 	O 	0.62133 0.18301 0.48951 -0.38700
O 	O 	0.29514 0.39887 0.30873 -0.34100
O 	O 	0.39308 0.51094 0.87102 -0.54300
O 	O 	0.53307 0.60722 0.82328 -0.40100
O 	O 	0.42967 0.83072 0.59838 -0.55300
O 	O 	0.29385 0.81699 0.51049 -0.39200
O 	O 	0.00274 0.60113 0.69127 -0.36900
O 	O 	0.15402 0.98906 0.37102 -0.54900
O 	O 	0.39029 0.89278 0.32328 -0.40000
O 	O 	0.51039 0.66928 0.09838 -0.55200
O 	O 	0.36084 0.68301 0.01049 -0.39100
O 	O 	0.85387 0.89887 0.19127 -0.31500
O 	O 	0.51410 0.01094 0.62898 -0.54200
O 	O 	0.60635 0.10722 0.67672 -0.40100
O 	O 	0.27805 0.33072 0.90162 -0.55200
O 	O 	0.05434 0.31699 0.98951 -0.39600
O 	O 	0.94401 0.10113 0.80873 -0.31800
O 	O 	0.85692 0.62898 0.98906 -0.53000
O 	O 	0.71693 0.67672 0.89278 -0.39500
O 	O 	0.82033 0.90162 0.66928 -0.54300
O 	O 	0.95615 0.98951 0.68301 -0.37400
O 	O 	0.24726 0.80873 0.89887 -0.35100
O 	O 	0.47496 0.37102 0.01094 -0.54300
O 	O 	0.28643 0.32328 0.10722 -0.41000
O 	O 	0.39123 0.09838 0.33072 -0.55500
O 	O 	0.62867 0.01049 0.31699 -0.38900
O 	O 	0.95486 0.19127 0.10113 -0.30000
