data_crystal

_cell_length_a 9.81080
_cell_length_b 10.49710
_cell_length_c 12.35680
_cell_angle_alpha 68.33600
_cell_angle_beta  87.52900
_cell_angle_gamma 68.26100

_symmetry_space_group_name_	'P 1'
_symmetry_space_group_name_H-M	'P 1'

loop_
_symmetry_equiv_pos_as_xyz
  x,y,z

loop_
_atom_site_label
_atom_site_type_symbol
_atom_site_fract_x
_atom_site_fract_y
_atom_site_fract_z
_atom_site_charge
Sr	Sr	0.95485 0.81461 0.49883 1.53300
O 	O 	0.11770 0.47000 0.86680 -0.21300
O 	O 	0.06410 0.66630 0.70070 -0.40200
O 	O 	0.10730 0.12040 0.71180 -0.39000
O 	O 	0.17660 0.12220 0.87860 -0.21400
O 	O 	0.86830 0.42410 0.53240 -0.35600
O 	O 	0.82750 0.62440 0.57040 -0.35300
O 	O 	0.30580 0.00850 0.48490 -0.37600
O 	O 	0.13470 0.93970 0.44520 -0.50300
O 	O 	0.14530 0.65190 0.18290 -0.19800
O 	O 	0.42590 0.56960 0.25680 -0.43100
H 	H 	0.33650 0.60250 0.23960 0.28900
C 	C 	0.10080 0.60430 0.80970 0.33200
C 	C 	0.14320 0.05970 0.82200 0.32000
C 	C 	0.78590 0.55400 0.52470 0.34100
C 	C 	0.26870 0.92390 0.45440 0.32200
C 	C 	0.11790 0.69060 0.87640 -0.03700
C 	C 	0.12240 0.63460 0.99740 -0.10100
H 	H 	0.11480 0.54310 0.03510 0.11100
C 	C 	0.13790 0.71150 0.06450 0.19700
C 	C 	0.14700 0.84910 0.00550 -0.12700
H 	H 	0.15890 0.90230 0.04760 0.10400
C 	C 	0.13830 0.90760 0.88400 -0.02400
C 	C 	0.12270 0.83090 0.81810 -0.00700
H 	H 	0.11560 0.87190 0.73670 0.01500
C 	C 	0.63560 0.62660 0.45790 -0.01300
C 	C 	0.59870 0.56770 0.38460 -0.16200
H 	H 	0.66950 0.48700 0.37310 0.11500
C 	C 	0.45600 0.62930 0.32850 0.28100
C 	C 	0.34630 0.74580 0.35300 -0.18500
H 	H 	0.24910 0.78370 0.32020 0.10300
C 	C 	0.38520 0.80200 0.42590 -0.00400
C 	C 	0.52990 0.74560 0.47620 -0.04700
H 	H 	0.55570 0.78780 0.52210 0.07800
Sr	Sr	0.04515 0.18539 0.50117 1.53400
O 	O 	0.88230 0.53000 0.13320 -0.21200
O 	O 	0.93590 0.33370 0.29930 -0.40100
O 	O 	0.89270 0.87960 0.28820 -0.38900
O 	O 	0.82340 0.87780 0.12140 -0.21400
O 	O 	0.13170 0.57590 0.46760 -0.35600
O 	O 	0.17250 0.37560 0.42960 -0.35300
O 	O 	0.69420 0.99150 0.51510 -0.37600
O 	O 	0.86530 0.06030 0.55480 -0.50300
O 	O 	0.85470 0.34810 0.81710 -0.19800
O 	O 	0.57410 0.43040 0.74320 -0.43100
H 	H 	0.66350 0.39750 0.76040 0.28900
C 	C 	0.89920 0.39570 0.19030 0.33200
C 	C 	0.85680 0.94030 0.17800 0.32000
C 	C 	0.21410 0.44600 0.47530 0.34100
C 	C 	0.73130 0.07610 0.54560 0.32200
C 	C 	0.88210 0.30940 0.12360 -0.03700
C 	C 	0.87760 0.36540 0.00260 -0.10100
H 	H 	0.88520 0.45690 0.96490 0.11100
C 	C 	0.86210 0.28850 0.93550 0.19700
C 	C 	0.85300 0.15090 0.99450 -0.12700
H 	H 	0.84110 0.09770 0.95240 0.10400
C 	C 	0.86170 0.09240 0.11600 -0.02400
C 	C 	0.87730 0.16910 0.18190 -0.00700
H 	H 	0.88440 0.12810 0.26330 0.01500
C 	C 	0.36440 0.37340 0.54210 -0.01300
C 	C 	0.40130 0.43230 0.61540 -0.16200
H 	H 	0.33050 0.51300 0.62690 0.11500
C 	C 	0.54400 0.37070 0.67150 0.28100
C 	C 	0.65370 0.25420 0.64700 -0.18500
H 	H 	0.75090 0.21630 0.67980 0.10300
C 	C 	0.61480 0.19800 0.57410 -0.00400
C 	C 	0.47010 0.25440 0.52380 -0.04700
H 	H 	0.44430 0.21220 0.47790 0.07800
