data_crystal

_cell_length_a 18.11110
_cell_length_b 18.11110
_cell_length_c 11.25070
_cell_angle_alpha 90.00000
_cell_angle_beta  90.00000
_cell_angle_gamma 90.00000

_symmetry_space_group_name_	'P 1'
_symmetry_space_group_name_H-M	'P 1'

loop_
_symmetry_equiv_pos_as_xyz
  x,y,z

loop_
_atom_site_label
_atom_site_type_symbol
_atom_site_fract_x
_atom_site_fract_y
_atom_site_fract_z
_atom_site_charge
Zn	Zn	0.21145 0.42349 0.16977 1.19200
C 	C 	0.28580 0.34670 0.38340 0.52900
C 	C 	0.22020 0.36380 0.46100 -0.61700
H 	H 	0.18710 0.32170 0.45950 0.21500
H 	H 	0.23760 0.36930 0.54210 0.21000
C 	C 	0.17680 0.43120 0.42950 0.28200
C 	C 	0.10820 0.52760 0.44580 0.11000
C 	C 	0.06340 0.58680 0.49780 0.03200
C 	C 	0.04390 0.58740 0.61690 -0.12200
H 	H 	0.05790 0.54880 0.66650 0.05900
C 	C 	0.00330 0.64610 0.66140 0.06800
H 	H 	0.99130 0.64640 0.74180 -0.02600
C 	C 	0.99780 0.70000 0.47940 0.06800
H 	H 	0.98130 0.73820 0.43090 -0.03400
C 	C 	0.03850 0.64420 0.42790 -0.13000
H 	H 	0.04890 0.64520 0.34700 0.06400
N 	N 	0.16770 0.45990 0.32360 -0.28300
N 	N 	0.12400 0.52220 0.33320 -0.13000
N 	N 	0.13990 0.47220 0.50660 -0.26200
H 	H 	0.13720 0.46500 0.58200 0.12500
N 	N 	0.98130 0.70230 0.59420 -0.27400
O 	O 	0.28962 0.36657 0.27810 -0.53000
O 	O 	0.33578 0.30831 0.43240 -0.53300
Zn	Zn	0.28855 0.07651 0.16977 1.19100
C 	C 	0.21420 0.15330 0.38340 0.52800
C 	C 	0.27980 0.13620 0.46100 -0.61800
H 	H 	0.31290 0.17830 0.45950 0.21400
H 	H 	0.26240 0.13070 0.54210 0.20900
C 	C 	0.32320 0.06880 0.42950 0.28100
C 	C 	0.39180 0.97240 0.44580 0.10900
C 	C 	0.43660 0.91320 0.49780 0.03100
C 	C 	0.45610 0.91260 0.61690 -0.12300
H 	H 	0.44210 0.95120 0.66650 0.05900
C 	C 	0.49670 0.85390 0.66140 0.06800
H 	H 	0.50870 0.85360 0.74180 -0.02700
C 	C 	0.50220 0.80000 0.47940 0.06700
H 	H 	0.51870 0.76180 0.43090 -0.03500
C 	C 	0.46150 0.85580 0.42790 -0.13000
H 	H 	0.45110 0.85480 0.34700 0.06400
N 	N 	0.33230 0.04010 0.32360 -0.28300
N 	N 	0.37600 0.97780 0.33320 -0.13000
N 	N 	0.36010 0.02780 0.50660 -0.26200
H 	H 	0.36280 0.03500 0.58200 0.12500
N 	N 	0.51870 0.79770 0.59420 -0.27500
O 	O 	0.21038 0.13343 0.27810 -0.53000
O 	O 	0.16422 0.19169 0.43240 -0.53300
Zn	Zn	0.57651 0.71145 0.66977 1.19100
C 	C 	0.65330 0.78580 0.88340 0.52700
C 	C 	0.63620 0.72020 0.96100 -0.61700
H 	H 	0.67830 0.68710 0.95950 0.21400
H 	H 	0.63070 0.73760 0.04210 0.20800
C 	C 	0.56880 0.67680 0.92950 0.28000
C 	C 	0.47240 0.60820 0.94580 0.10900
C 	C 	0.41320 0.56340 0.99780 0.03000
C 	C 	0.41260 0.54390 0.11690 -0.12300
H 	H 	0.45120 0.55790 0.16650 0.05800
C 	C 	0.35390 0.50330 0.16140 0.06700
H 	H 	0.35360 0.49130 0.24180 -0.02700
C 	C 	0.30000 0.49780 0.97940 0.06600
H 	H 	0.26180 0.48130 0.93090 -0.03500
C 	C 	0.35580 0.53850 0.92790 -0.13000
H 	H 	0.35480 0.54890 0.84700 0.06400
N 	N 	0.54010 0.66770 0.82360 -0.28300
N 	N 	0.47780 0.62400 0.83320 -0.13000
N 	N 	0.52780 0.63990 0.00660 -0.26300
H 	H 	0.53500 0.63720 0.08200 0.12600
N 	N 	0.29770 0.48130 0.09420 -0.27400
O 	O 	0.63343 0.78962 0.77810 -0.53000
O 	O 	0.69169 0.83578 0.93240 -0.53200
Zn	Zn	0.92349 0.78855 0.66977 1.19100
C 	C 	0.84670 0.71420 0.88340 0.52700
C 	C 	0.86380 0.77980 0.96100 -0.61700
H 	H 	0.82170 0.81290 0.95950 0.21400
H 	H 	0.86930 0.76240 0.04210 0.20800
C 	C 	0.93120 0.82320 0.92950 0.28100
C 	C 	0.02760 0.89180 0.94580 0.11000
C 	C 	0.08680 0.93660 0.99780 0.03000
C 	C 	0.08740 0.95610 0.11690 -0.12200
H 	H 	0.04880 0.94210 0.16650 0.05800
C 	C 	0.14610 0.99670 0.16140 0.06700
H 	H 	0.14640 0.00870 0.24180 -0.02700
C 	C 	0.20000 0.00220 0.97940 0.06400
H 	H 	0.23820 0.01870 0.93090 -0.03400
C 	C 	0.14420 0.96150 0.92790 -0.12800
H 	H 	0.14520 0.95110 0.84700 0.06300
N 	N 	0.95990 0.83230 0.82360 -0.28300
N 	N 	0.02220 0.87600 0.83320 -0.13000
N 	N 	0.97220 0.86010 0.00660 -0.26300
H 	H 	0.96500 0.86280 0.08200 0.12500
N 	N 	0.20230 0.01870 0.09420 -0.27400
O 	O 	0.86657 0.71038 0.77810 -0.53000
O 	O 	0.80831 0.66422 0.93240 -0.53200
Zn	Zn	0.78855 0.57651 0.83023 1.19100
C 	C 	0.71420 0.65330 0.61660 0.52800
C 	C 	0.77980 0.63620 0.53900 -0.61800
H 	H 	0.81290 0.67830 0.54050 0.21400
H 	H 	0.76240 0.63070 0.45790 0.20900
C 	C 	0.82320 0.56880 0.57050 0.28100
C 	C 	0.89180 0.47240 0.55420 0.10900
C 	C 	0.93660 0.41320 0.50220 0.03100
C 	C 	0.95610 0.41260 0.38310 -0.12300
H 	H 	0.94210 0.45120 0.33350 0.05800
C 	C 	0.99670 0.35390 0.33860 0.06700
H 	H 	0.00870 0.35360 0.25820 -0.02700
C 	C 	0.00220 0.30000 0.52060 0.06700
H 	H 	0.01870 0.26180 0.56910 -0.03500
C 	C 	0.96150 0.35580 0.57210 -0.13000
H 	H 	0.95110 0.35480 0.65300 0.06400
N 	N 	0.83230 0.54010 0.67640 -0.28300
N 	N 	0.87600 0.47780 0.66680 -0.13000
N 	N 	0.86010 0.52780 0.49340 -0.26200
H 	H 	0.86280 0.53500 0.41800 0.12500
N 	N 	0.01870 0.29770 0.40580 -0.27400
O 	O 	0.71038 0.63343 0.72190 -0.53000
O 	O 	0.66422 0.69169 0.56760 -0.53300
Zn	Zn	0.71145 0.92349 0.83023 1.19100
C 	C 	0.78580 0.84670 0.61660 0.52800
C 	C 	0.72020 0.86380 0.53900 -0.61800
H 	H 	0.68710 0.82170 0.54050 0.21400
H 	H 	0.73760 0.86930 0.45790 0.20900
C 	C 	0.67680 0.93120 0.57050 0.28100
C 	C 	0.60820 0.02760 0.55420 0.10900
C 	C 	0.56340 0.08680 0.50220 0.03100
C 	C 	0.54390 0.08740 0.38310 -0.12300
H 	H 	0.55790 0.04880 0.33350 0.05900
C 	C 	0.50330 0.14610 0.33860 0.06800
H 	H 	0.49130 0.14640 0.25820 -0.02700
C 	C 	0.49780 0.20000 0.52060 0.06700
H 	H 	0.48130 0.23820 0.56910 -0.03500
C 	C 	0.53850 0.14420 0.57210 -0.13000
H 	H 	0.54890 0.14520 0.65300 0.06400
N 	N 	0.66770 0.95990 0.67640 -0.28300
N 	N 	0.62400 0.02220 0.66680 -0.13000
N 	N 	0.63990 0.97220 0.49340 -0.26200
H 	H 	0.63720 0.96500 0.41800 0.12500
N 	N 	0.48130 0.20230 0.40580 -0.27500
O 	O 	0.78962 0.86657 0.72190 -0.53000
O 	O 	0.83578 0.80831 0.56760 -0.53300
Zn	Zn	0.42349 0.28855 0.33023 1.19100
C 	C 	0.34670 0.21420 0.11660 0.52700
C 	C 	0.36380 0.27980 0.03900 -0.61700
H 	H 	0.32170 0.31290 0.04050 0.21400
H 	H 	0.36930 0.26240 0.95790 0.20800
C 	C 	0.43120 0.32320 0.07050 0.28000
C 	C 	0.52760 0.39180 0.05420 0.10900
C 	C 	0.58680 0.43660 0.00220 0.03000
C 	C 	0.58740 0.45610 0.88310 -0.12300
H 	H 	0.54880 0.44210 0.83350 0.05800
C 	C 	0.64610 0.49670 0.83860 0.06700
H 	H 	0.64640 0.50870 0.75820 -0.02700
C 	C 	0.70000 0.50220 0.02060 0.06600
H 	H 	0.73820 0.51870 0.06910 -0.03500
C 	C 	0.64420 0.46150 0.07210 -0.13000
H 	H 	0.64520 0.45110 0.15300 0.06400
N 	N 	0.45990 0.33230 0.17640 -0.28300
N 	N 	0.52220 0.37600 0.16680 -0.13000
N 	N 	0.47220 0.36010 0.99340 -0.26300
H 	H 	0.46500 0.36280 0.91800 0.12600
N 	N 	0.70230 0.51870 0.90580 -0.27400
O 	O 	0.36657 0.21038 0.22190 -0.53000
O 	O 	0.30831 0.16422 0.06760 -0.53200
Zn	Zn	0.07651 0.21145 0.33023 1.19100
C 	C 	0.15330 0.28580 0.11660 0.52700
C 	C 	0.13620 0.22020 0.03900 -0.61700
H 	H 	0.17830 0.18710 0.04050 0.21400
H 	H 	0.13070 0.23760 0.95790 0.20800
C 	C 	0.06880 0.17680 0.07050 0.28100
C 	C 	0.97240 0.10820 0.05420 0.11000
C 	C 	0.91320 0.06340 0.00220 0.03000
C 	C 	0.91260 0.04390 0.88310 -0.12200
H 	H 	0.95120 0.05790 0.83350 0.05800
C 	C 	0.85390 0.00330 0.83860 0.06700
H 	H 	0.85360 0.99130 0.75820 -0.02700
C 	C 	0.80000 0.99780 0.02060 0.06400
H 	H 	0.76180 0.98130 0.06910 -0.03400
C 	C 	0.85580 0.03850 0.07210 -0.12800
H 	H 	0.85480 0.04890 0.15300 0.06300
N 	N 	0.04010 0.16770 0.17640 -0.28300
N 	N 	0.97780 0.12400 0.16680 -0.13000
N 	N 	0.02780 0.13990 0.99340 -0.26300
H 	H 	0.03500 0.13720 0.91800 0.12500
N 	N 	0.79770 0.98130 0.90580 -0.27400
O 	O 	0.13343 0.28962 0.22190 -0.53000
O 	O 	0.19169 0.33578 0.06760 -0.53200
