data_crystal

_cell_length_a 27.60400
_cell_length_b 29.33300
_cell_length_c 13.11000
_cell_angle_alpha 90.00000
_cell_angle_beta  90.00000
_cell_angle_gamma 90.00000

_symmetry_space_group_name_	'P 1'
_symmetry_space_group_name_H-M	'P 1'

loop_
_symmetry_equiv_pos_as_xyz
  x,y,z

loop_
_atom_site_label
_atom_site_type_symbol
_atom_site_fract_x
_atom_site_fract_y
_atom_site_fract_z
_atom_site_charge
O 	O 	0.69700 0.48468 0.18800 -0.53000
O 	O 	0.76460 0.44300 0.53280 -0.28400
O 	O 	0.70860 0.41240 0.64050 -0.35400
O 	O 	0.64030 0.44460 0.12070 -0.48300
C 	C 	0.60350 0.28760 0.40730 0.08200
C 	C 	0.66500 0.42550 0.28940 -0.13900
C 	C 	0.65500 0.37940 0.47460 -0.02100
H 	H 	0.65170 0.36290 0.53660 0.04800
C 	C 	0.62580 0.36930 0.39240 0.02000
C 	C 	0.65260 0.27280 0.40240 -0.08200
H 	H 	0.68030 0.29190 0.39960 0.05700
C 	C 	0.58740 0.33150 0.40170 -0.14000
C 	C 	0.67070 0.45140 0.19640 0.36200
C 	C 	0.63250 0.39230 0.29890 -0.01000
H 	H 	0.61340 0.38390 0.24150 0.02700
C 	C 	0.72000 0.42840 0.55550 0.40800
C 	C 	0.54060 0.34620 0.39940 0.07300
C 	C 	0.52450 0.39330 0.40270 -0.08100
H 	H 	0.54470 0.41950 0.40460 0.05000
C 	C 	0.69540 0.43660 0.37590 0.06100
H 	H 	0.71920 0.45980 0.36910 0.00400
C 	C 	0.69040 0.41480 0.46610 -0.13200
O 	O 	0.74790 0.45910 0.54230 -0.28300
O 	O 	0.65590 0.43060 0.10700 -0.04500
O 	O 	0.19700 0.98468 0.68800 -0.47800
O 	O 	0.26460 0.94300 0.03280 -0.36100
O 	O 	0.20860 0.91240 0.14050 -0.34800
O 	O 	0.14030 0.94460 0.62070 -0.44200
C 	C 	0.10350 0.78760 0.90730 0.08400
C 	C 	0.16500 0.92550 0.78940 -0.12200
C 	C 	0.15500 0.87940 0.97460 0.14200
H 	H 	0.15170 0.86290 0.03660 -0.08000
C 	C 	0.12580 0.86930 0.89240 -0.02900
C 	C 	0.15260 0.77280 0.90240 -0.07200
H 	H 	0.18030 0.79190 0.89960 0.06600
C 	C 	0.08740 0.83150 0.90170 -0.11300
C 	C 	0.17070 0.95140 0.69640 0.35500
C 	C 	0.13250 0.89230 0.79890 0.01100
H 	H 	0.11340 0.88390 0.74150 0.03000
C 	C 	0.22000 0.92840 0.05550 0.31400
C 	C 	0.04060 0.84620 0.89940 0.08300
C 	C 	0.02450 0.89330 0.90270 -0.10500
H 	H 	0.04470 0.91950 0.90460 0.08200
C 	C 	0.19540 0.93660 0.87590 0.04600
H 	H 	0.21920 0.95980 0.86910 0.04100
C 	C 	0.19040 0.91480 0.96610 -0.06800
O 	O 	0.24790 0.95910 0.04230 -0.19300
O 	O 	0.15590 0.93060 0.60700 -0.03500
O 	O 	0.30300 0.01532 0.18800 -0.56200
O 	O 	0.23540 0.05700 0.53280 -0.26200
O 	O 	0.29140 0.08760 0.64050 -0.37400
O 	O 	0.35970 0.05540 0.12070 -0.51900
C 	C 	0.39650 0.21240 0.40730 0.08000
C 	C 	0.33500 0.07450 0.28940 -0.15700
C 	C 	0.34500 0.12060 0.47460 -0.01400
H 	H 	0.34830 0.13710 0.53660 0.04300
C 	C 	0.37420 0.13070 0.39240 0.01100
C 	C 	0.34740 0.22720 0.40240 -0.08100
H 	H 	0.31970 0.20810 0.39960 0.05600
C 	C 	0.41260 0.16850 0.40170 -0.13800
C 	C 	0.32930 0.04860 0.19640 0.37300
C 	C 	0.36750 0.10770 0.29890 -0.00100
H 	H 	0.38660 0.11610 0.24150 0.02100
C 	C 	0.28000 0.07160 0.55550 0.41800
C 	C 	0.45940 0.15380 0.39940 0.07000
C 	C 	0.47550 0.10670 0.40270 -0.08400
H 	H 	0.45530 0.08050 0.40460 0.04000
C 	C 	0.30460 0.06340 0.37590 0.07000
H 	H 	0.28080 0.04020 0.36910 -0.01200
C 	C 	0.30960 0.08520 0.46610 -0.15000
O 	O 	0.25210 0.04090 0.54230 -0.33800
O 	O 	0.34410 0.06940 0.10700 -0.02600
O 	O 	0.80300 0.51532 0.68800 -0.51500
O 	O 	0.73540 0.55700 0.03280 -0.34500
O 	O 	0.79140 0.58760 0.14050 -0.36600
O 	O 	0.85970 0.55540 0.62070 -0.47900
C 	C 	0.89650 0.71240 0.90730 0.08400
C 	C 	0.83500 0.57450 0.78940 -0.14000
C 	C 	0.84500 0.62060 0.97460 0.15200
H 	H 	0.84830 0.63710 0.03660 -0.08500
C 	C 	0.87420 0.63070 0.89240 -0.03900
C 	C 	0.84740 0.72720 0.90240 -0.06900
H 	H 	0.81970 0.70810 0.89960 0.06600
C 	C 	0.91260 0.66850 0.90170 -0.10500
C 	C 	0.82930 0.54860 0.69640 0.36700
C 	C 	0.86750 0.60770 0.79890 0.02100
H 	H 	0.88660 0.61610 0.74150 0.02700
C 	C 	0.78000 0.57160 0.05550 0.32600
C 	C 	0.95940 0.65380 0.89940 0.07900
C 	C 	0.97550 0.60670 0.90270 -0.03600
H 	H 	0.95530 0.58050 0.90460 0.05500
C 	C 	0.80460 0.56340 0.87590 0.05700
H 	H 	0.78080 0.54020 0.86910 0.02400
C 	C 	0.80960 0.58520 0.96610 -0.08700
O 	O 	0.75210 0.54090 0.04230 -0.25100
O 	O 	0.84410 0.56940 0.60700 -0.01900
O 	O 	0.30300 0.98468 0.81200 -0.45900
O 	O 	0.23540 0.94300 0.46720 -0.31500
O 	O 	0.29140 0.91240 0.35950 -0.35400
O 	O 	0.35970 0.94460 0.87930 -0.44200
C 	C 	0.39650 0.78760 0.59270 0.08500
C 	C 	0.33500 0.92550 0.71060 -0.10300
C 	C 	0.34500 0.87940 0.52540 -0.03100
H 	H 	0.34830 0.86290 0.46340 0.04400
C 	C 	0.37420 0.86930 0.60760 0.03500
C 	C 	0.34740 0.77280 0.59760 -0.08100
H 	H 	0.31970 0.79190 0.60040 0.05700
C 	C 	0.41260 0.83150 0.59830 -0.14300
C 	C 	0.32930 0.95140 0.80360 0.34600
C 	C 	0.36750 0.89230 0.70110 -0.02600
H 	H 	0.38660 0.88390 0.75850 0.05400
C 	C 	0.28000 0.92840 0.44450 0.39600
C 	C 	0.45940 0.84620 0.60060 0.08000
C 	C 	0.47550 0.89330 0.59730 -0.07700
H 	H 	0.45530 0.91950 0.59540 0.06400
C 	C 	0.30460 0.93660 0.62410 0.04600
H 	H 	0.28080 0.95980 0.63090 0.02400
C 	C 	0.30960 0.91480 0.53390 -0.11200
O 	O 	0.25210 0.95910 0.45770 -0.21800
O 	O 	0.34410 0.93060 0.89300 0.01000
O 	O 	0.80300 0.48468 0.31200 -0.52000
O 	O 	0.73540 0.44300 0.96720 -0.22600
O 	O 	0.79140 0.41240 0.85950 -0.36000
O 	O 	0.85970 0.44460 0.37930 -0.49600
C 	C 	0.89650 0.28760 0.09270 0.08600
C 	C 	0.83500 0.42550 0.21060 -0.11900
C 	C 	0.84500 0.37940 0.02540 -0.19700
H 	H 	0.84830 0.36290 0.96340 0.17300
C 	C 	0.87420 0.36930 0.10760 0.08700
C 	C 	0.84740 0.27280 0.09760 -0.09200
H 	H 	0.81970 0.29190 0.10040 0.04800
C 	C 	0.91260 0.33150 0.09830 -0.17600
C 	C 	0.82930 0.45140 0.30360 0.35500
C 	C 	0.86750 0.39230 0.20110 -0.04900
H 	H 	0.88660 0.38390 0.25850 0.05100
C 	C 	0.78000 0.42840 0.94450 0.48900
C 	C 	0.95940 0.34620 0.10060 0.08600
C 	C 	0.97550 0.39330 0.09730 -0.05600
H 	H 	0.95530 0.41950 0.09540 0.03300
C 	C 	0.80460 0.43660 0.12410 0.05900
H 	H 	0.78080 0.45980 0.13090 -0.01100
C 	C 	0.80960 0.41480 0.03390 -0.17400
O 	O 	0.75210 0.45910 0.95770 -0.30800
O 	O 	0.84410 0.43060 0.39300 0.00200
O 	O 	0.69700 0.51532 0.81200 -0.49800
O 	O 	0.76460 0.55700 0.46720 -0.29400
O 	O 	0.70860 0.58760 0.35950 -0.37400
O 	O 	0.64030 0.55540 0.87930 -0.49000
C 	C 	0.60350 0.71240 0.59270 0.08300
C 	C 	0.66500 0.57450 0.71060 -0.12400
C 	C 	0.65500 0.62060 0.52540 -0.02300
H 	H 	0.65170 0.63710 0.46340 0.03800
C 	C 	0.62580 0.63070 0.60760 0.02500
C 	C 	0.65260 0.72720 0.59760 -0.08000
H 	H 	0.68030 0.70810 0.60040 0.05700
C 	C 	0.58740 0.66850 0.59830 -0.14000
C 	C 	0.67070 0.54860 0.80360 0.35900
C 	C 	0.63250 0.60770 0.70110 -0.01600
H 	H 	0.61340 0.61610 0.75850 0.04700
C 	C 	0.72000 0.57160 0.44450 0.41000
C 	C 	0.54060 0.65380 0.60060 0.07600
C 	C 	0.52450 0.60670 0.59730 -0.08000
H 	H 	0.54470 0.58050 0.59540 0.05300
C 	C 	0.69540 0.56340 0.62410 0.05800
H 	H 	0.71920 0.54020 0.63090 0.00700
C 	C 	0.69040 0.58520 0.53390 -0.13400
O 	O 	0.74790 0.54090 0.45770 -0.27900
O 	O 	0.65590 0.56940 0.89300 0.03300
O 	O 	0.19700 0.01532 0.31200 -0.55300
O 	O 	0.26460 0.05700 0.96720 -0.20000
O 	O 	0.20860 0.08760 0.85950 -0.38100
O 	O 	0.14030 0.05540 0.37930 -0.54200
C 	C 	0.10350 0.21240 0.09270 0.08200
C 	C 	0.16500 0.07450 0.21060 -0.14100
C 	C 	0.15500 0.12060 0.02540 -0.19000
H 	H 	0.15170 0.13710 0.96340 0.16600
C 	C 	0.12580 0.13070 0.10760 0.07800
C 	C 	0.15260 0.22720 0.09760 -0.09200
H 	H 	0.18030 0.20810 0.10040 0.04700
C 	C 	0.08740 0.16850 0.09830 -0.17900
C 	C 	0.17070 0.04860 0.30360 0.36600
C 	C 	0.13250 0.10770 0.20110 -0.03900
H 	H 	0.11340 0.11610 0.25850 0.04200
C 	C 	0.22000 0.07160 0.94450 0.49900
C 	C 	0.04060 0.15380 0.10060 0.08300
C 	C 	0.02450 0.10670 0.09730 -0.13100
H 	H 	0.04470 0.08050 0.09540 0.03900
C 	C 	0.19540 0.06340 0.12410 0.06900
H 	H 	0.21920 0.04020 0.13090 -0.02700
C 	C 	0.19040 0.08520 0.03390 -0.19300
O 	O 	0.24790 0.04090 0.95770 -0.36500
O 	O 	0.15590 0.06940 0.39300 0.02700
O 	O 	0.30300 0.51532 0.81200 -0.49800
O 	O 	0.23540 0.55700 0.46720 -0.29700
O 	O 	0.29140 0.58760 0.35950 -0.37500
O 	O 	0.35970 0.55540 0.87930 -0.48900
C 	C 	0.39650 0.71240 0.59270 0.08300
C 	C 	0.33500 0.57450 0.71060 -0.12400
C 	C 	0.34500 0.62060 0.52540 -0.02300
H 	H 	0.34830 0.63710 0.46340 0.03700
C 	C 	0.37420 0.63070 0.60760 0.02500
C 	C 	0.34740 0.72720 0.59760 -0.08000
H 	H 	0.31970 0.70810 0.60040 0.05600
C 	C 	0.41260 0.66850 0.59830 -0.14000
C 	C 	0.32930 0.54860 0.80360 0.35900
C 	C 	0.36750 0.60770 0.70110 -0.01600
H 	H 	0.38660 0.61610 0.75850 0.04700
C 	C 	0.28000 0.57160 0.44450 0.40900
C 	C 	0.45940 0.65380 0.60060 0.07600
C 	C 	0.47550 0.60670 0.59730 -0.08000
H 	H 	0.45530 0.58050 0.59540 0.05300
C 	C 	0.30460 0.56340 0.62410 0.05800
H 	H 	0.28080 0.54020 0.63090 0.00600
C 	C 	0.30960 0.58520 0.53390 -0.13400
O 	O 	0.25210 0.54090 0.45770 -0.27700
O 	O 	0.34410 0.56940 0.89300 0.03200
O 	O 	0.80300 0.01532 0.31200 -0.55100
O 	O 	0.73540 0.05700 0.96720 -0.20100
O 	O 	0.79140 0.08760 0.85950 -0.37900
O 	O 	0.85970 0.05540 0.37930 -0.53200
C 	C 	0.89650 0.21240 0.09270 0.08400
C 	C 	0.83500 0.07450 0.21060 -0.13800
C 	C 	0.84500 0.12060 0.02540 -0.19000
H 	H 	0.84830 0.13710 0.96340 0.16800
C 	C 	0.87420 0.13070 0.10760 0.07800
C 	C 	0.84740 0.22720 0.09760 -0.09100
H 	H 	0.81970 0.20810 0.10040 0.04800
C 	C 	0.91260 0.16850 0.09830 -0.17400
C 	C 	0.82930 0.04860 0.30360 0.36500
C 	C 	0.86750 0.10770 0.20110 -0.03900
H 	H 	0.88660 0.11610 0.25850 0.04500
C 	C 	0.78000 0.07160 0.94450 0.49800
C 	C 	0.95940 0.15380 0.10060 0.08300
C 	C 	0.97550 0.10670 0.09730 -0.05900
H 	H 	0.95530 0.08050 0.09540 0.02300
C 	C 	0.80460 0.06340 0.12410 0.06900
H 	H 	0.78080 0.04020 0.13090 -0.02600
C 	C 	0.80960 0.08520 0.03390 -0.19200
O 	O 	0.75210 0.04090 0.95770 -0.36400
O 	O 	0.84410 0.06940 0.39300 0.02200
O 	O 	0.69700 0.98468 0.81200 -0.45900
O 	O 	0.76460 0.94300 0.46720 -0.31200
O 	O 	0.70860 0.91240 0.35950 -0.35400
O 	O 	0.64030 0.94460 0.87930 -0.44200
C 	C 	0.60350 0.78760 0.59270 0.08500
C 	C 	0.66500 0.92550 0.71060 -0.10200
C 	C 	0.65500 0.87940 0.52540 -0.03100
H 	H 	0.65170 0.86290 0.46340 0.04400
C 	C 	0.62580 0.86930 0.60760 0.03600
C 	C 	0.65260 0.77280 0.59760 -0.08100
H 	H 	0.68030 0.79190 0.60040 0.05800
C 	C 	0.58740 0.83150 0.59830 -0.14300
C 	C 	0.67070 0.95140 0.80360 0.34600
C 	C 	0.63250 0.89230 0.70110 -0.02600
H 	H 	0.61340 0.88390 0.75850 0.05400
C 	C 	0.72000 0.92840 0.44450 0.39600
C 	C 	0.54060 0.84620 0.60060 0.08000
C 	C 	0.52450 0.89330 0.59730 -0.07700
H 	H 	0.54470 0.91950 0.59540 0.06400
C 	C 	0.69540 0.93660 0.62410 0.04600
H 	H 	0.71920 0.95980 0.63090 0.02400
C 	C 	0.69040 0.91480 0.53390 -0.11200
O 	O 	0.74790 0.95910 0.45770 -0.22000
O 	O 	0.65590 0.93060 0.89300 0.01000
O 	O 	0.19700 0.48468 0.31200 -0.52200
O 	O 	0.26460 0.44300 0.96720 -0.22600
O 	O 	0.20860 0.41240 0.85950 -0.36300
O 	O 	0.14030 0.44460 0.37930 -0.50600
C 	C 	0.10350 0.28760 0.09270 0.08400
C 	C 	0.16500 0.42550 0.21060 -0.12200
C 	C 	0.15500 0.37940 0.02540 -0.19700
H 	H 	0.15170 0.36290 0.96340 0.17100
C 	C 	0.12580 0.36930 0.10760 0.08700
C 	C 	0.15260 0.27280 0.09760 -0.09300
H 	H 	0.18030 0.29190 0.10040 0.04800
C 	C 	0.08740 0.33150 0.09830 -0.18100
C 	C 	0.17070 0.45140 0.30360 0.35500
C 	C 	0.13250 0.39230 0.20110 -0.04800
H 	H 	0.11340 0.38390 0.25850 0.04800
C 	C 	0.22000 0.42840 0.94450 0.48900
C 	C 	0.04060 0.34620 0.10060 0.08600
C 	C 	0.02450 0.39330 0.09730 -0.12800
H 	H 	0.04470 0.41950 0.09540 0.04900
C 	C 	0.19540 0.43660 0.12410 0.06000
H 	H 	0.21920 0.45980 0.13090 -0.01100
C 	C 	0.19040 0.41480 0.03390 -0.17500
O 	O 	0.24790 0.45910 0.95770 -0.30900
O 	O 	0.15590 0.43060 0.39300 0.00800
O 	O 	0.69700 0.01532 0.18800 -0.56200
O 	O 	0.76460 0.05700 0.53280 -0.25900
O 	O 	0.70860 0.08760 0.64050 -0.37300
O 	O 	0.64030 0.05540 0.12070 -0.51900
C 	C 	0.60350 0.21240 0.40730 0.08000
C 	C 	0.66500 0.07450 0.28940 -0.15700
C 	C 	0.65500 0.12060 0.47460 -0.01400
H 	H 	0.65170 0.13710 0.53660 0.04300
C 	C 	0.62580 0.13070 0.39240 0.01100
C 	C 	0.65260 0.22720 0.40240 -0.08100
H 	H 	0.68030 0.20810 0.39960 0.05600
C 	C 	0.58740 0.16850 0.40170 -0.13800
C 	C 	0.67070 0.04860 0.19640 0.37300
C 	C 	0.63250 0.10770 0.29890 -0.00100
H 	H 	0.61340 0.11610 0.24150 0.02100
C 	C 	0.72000 0.07160 0.55550 0.41800
C 	C 	0.54060 0.15380 0.39940 0.07000
C 	C 	0.52450 0.10670 0.40270 -0.08400
H 	H 	0.54470 0.08050 0.40460 0.04000
C 	C 	0.69540 0.06340 0.37590 0.07000
H 	H 	0.71920 0.04020 0.36910 -0.01200
C 	C 	0.69040 0.08520 0.46610 -0.15000
O 	O 	0.74790 0.04090 0.54230 -0.34000
O 	O 	0.65590 0.06940 0.10700 -0.02600
O 	O 	0.19700 0.51532 0.68800 -0.51700
O 	O 	0.26460 0.55700 0.03280 -0.34400
O 	O 	0.20860 0.58760 0.14050 -0.36900
O 	O 	0.14030 0.55540 0.62070 -0.48900
C 	C 	0.10350 0.71240 0.90730 0.08200
C 	C 	0.16500 0.57450 0.78940 -0.14300
C 	C 	0.15500 0.62060 0.97460 0.15100
H 	H 	0.15170 0.63710 0.03660 -0.08700
C 	C 	0.12580 0.63070 0.89240 -0.04000
C 	C 	0.15260 0.72720 0.90240 -0.07000
H 	H 	0.18030 0.70810 0.89960 0.06500
C 	C 	0.08740 0.66850 0.90170 -0.11000
C 	C 	0.17070 0.54860 0.69640 0.36800
C 	C 	0.13250 0.60770 0.79890 0.02100
H 	H 	0.11340 0.61610 0.74150 0.02300
C 	C 	0.22000 0.57160 0.05550 0.32600
C 	C 	0.04060 0.65380 0.89940 0.07900
C 	C 	0.02450 0.60670 0.90270 -0.10800
H 	H 	0.04470 0.58050 0.90460 0.07100
C 	C 	0.19540 0.56340 0.87590 0.05800
H 	H 	0.21920 0.54020 0.86910 0.02300
C 	C 	0.19040 0.58520 0.96610 -0.08900
O 	O 	0.24790 0.54090 0.04230 -0.25200
O 	O 	0.15590 0.56940 0.60700 -0.01400
O 	O 	0.30300 0.48468 0.18800 -0.53100
O 	O 	0.23540 0.44300 0.53280 -0.28800
O 	O 	0.29140 0.41240 0.64050 -0.35600
O 	O 	0.35970 0.44460 0.12070 -0.48300
C 	C 	0.39650 0.28760 0.40730 0.08100
C 	C 	0.33500 0.42550 0.28940 -0.13900
C 	C 	0.34500 0.37940 0.47460 -0.02100
H 	H 	0.34830 0.36290 0.53660 0.04800
C 	C 	0.37420 0.36930 0.39240 0.02000
C 	C 	0.34740 0.27280 0.40240 -0.08200
H 	H 	0.31970 0.29190 0.39960 0.05600
C 	C 	0.41260 0.33150 0.40170 -0.14000
C 	C 	0.32930 0.45140 0.19640 0.36200
C 	C 	0.36750 0.39230 0.29890 -0.01000
H 	H 	0.38660 0.38390 0.24150 0.02700
C 	C 	0.28000 0.42840 0.55550 0.40800
C 	C 	0.45940 0.34620 0.39940 0.07300
C 	C 	0.47550 0.39330 0.40270 -0.08100
H 	H 	0.45530 0.41950 0.40460 0.05000
C 	C 	0.30460 0.43660 0.37590 0.06100
H 	H 	0.28080 0.45980 0.36910 0.00400
C 	C 	0.30960 0.41480 0.46610 -0.13200
O 	O 	0.25210 0.45910 0.54230 -0.28100
O 	O 	0.34410 0.43060 0.10700 -0.04600
O 	O 	0.80300 0.98468 0.68800 -0.47600
O 	O 	0.73540 0.94300 0.03280 -0.36200
O 	O 	0.79140 0.91240 0.14050 -0.34600
O 	O 	0.85970 0.94460 0.62070 -0.43100
C 	C 	0.89650 0.78760 0.90730 0.08600
C 	C 	0.83500 0.92550 0.78940 -0.11900
C 	C 	0.84500 0.87940 0.97460 0.14200
H 	H 	0.84830 0.86290 0.03660 -0.07800
C 	C 	0.87420 0.86930 0.89240 -0.02900
C 	C 	0.84740 0.77280 0.90240 -0.07100
H 	H 	0.81970 0.79190 0.89960 0.06600
C 	C 	0.91260 0.83150 0.90170 -0.10700
C 	C 	0.82930 0.95140 0.69640 0.35400
C 	C 	0.86750 0.89230 0.79890 0.01000
H 	H 	0.88660 0.88390 0.74150 0.03400
C 	C 	0.78000 0.92840 0.05550 0.31300
C 	C 	0.95940 0.84620 0.89940 0.08300
C 	C 	0.97550 0.89330 0.90270 -0.03300
H 	H 	0.95530 0.91950 0.90460 0.06600
C 	C 	0.80460 0.93660 0.87590 0.04600
H 	H 	0.78080 0.95980 0.86910 0.04100
C 	C 	0.80960 0.91480 0.96610 -0.06700
O 	O 	0.75210 0.95910 0.04230 -0.19200
O 	O 	0.84410 0.93060 0.60700 -0.04100
Pr	Pr	0.82272 0.50000 0.50000 2.02100
Pr	Pr	0.32272 0.00000 -0.00000 1.95200
Pr	Pr	0.17728 0.00000 0.50000 1.98900
Pr	Pr	0.67728 0.50000 -0.00000 1.98200
Pr	Pr	0.17728 0.50000 0.50000 2.01900
Pr	Pr	0.67728 0.00000 -0.00000 1.95200
Pr	Pr	0.82272 0.00000 0.50000 1.99000
Pr	Pr	0.32272 0.50000 -0.00000 1.98200
Zn	Zn	0.50000 0.25000 0.43690 0.78800
Zn	Zn	0.50000 0.25000 0.38130 0.78700
Zn	Zn	0.00000 0.75000 0.93690 0.78900
Zn	Zn	-0.00000 0.75000 0.88130 0.78600
Zn	Zn	0.50000 0.75000 0.56310 0.78400
Zn	Zn	0.50000 0.75000 0.61870 0.79200
Zn	Zn	0.00000 0.25000 0.06310 0.77600
Zn	Zn	0.00000 0.25000 0.11870 0.78800
Na	Na	0.75000 0.45985 0.75000 0.58800
Na	Na	0.25000 0.04015 0.75000 0.57800
Na	Na	0.25000 0.95985 0.25000 0.59400
Na	Na	0.75000 0.54015 0.25000 0.58500
Na	Na	0.25000 0.54015 0.25000 0.58500
Na	Na	0.75000 0.95985 0.25000 0.59500
Na	Na	0.75000 0.04015 0.75000 0.57900
Na	Na	0.25000 0.45985 0.75000 0.58800
N 	N 	0.50000 0.31940 0.40240 -0.34600
N 	N 	-0.00000 0.81940 0.90240 -0.35200
N 	N 	0.50000 0.18060 0.40240 -0.34600
N 	N 	0.00000 0.68060 0.90240 -0.35200
N 	N 	0.50000 0.81940 0.59760 -0.34600
N 	N 	0.00000 0.31940 0.09760 -0.36500
N 	N 	0.50000 0.68060 0.59760 -0.34600
N 	N 	0.00000 0.18060 0.09760 -0.36500
N 	N 	0.57490 0.25000 0.40950 -0.34200
N 	N 	0.07490 0.75000 0.90950 -0.33700
N 	N 	0.42510 0.25000 0.40950 -0.34200
N 	N 	0.92510 0.75000 0.90950 -0.33100
N 	N 	0.42510 0.75000 0.59050 -0.34200
N 	N 	0.92510 0.25000 0.09050 -0.34400
N 	N 	0.57490 0.75000 0.59050 -0.34200
N 	N 	0.07490 0.25000 0.09050 -0.35000
