data_crystal

_cell_length_a 23.48200
_cell_length_b 23.48200
_cell_length_c 16.31800
_cell_angle_alpha 90.00000
_cell_angle_beta  90.00000
_cell_angle_gamma 120.00000

_symmetry_space_group_name_	'P 1'
_symmetry_space_group_name_H-M	'P 1'

loop_
_symmetry_equiv_pos_as_xyz
  x,y,z

loop_
_atom_site_label
_atom_site_type_symbol
_atom_site_fract_x
_atom_site_fract_y
_atom_site_fract_z
_atom_site_charge
Na	Na	0.51045 0.37255 0.00301 0.58400
O 	O 	0.76382 0.45435 0.07162 -0.45700
O 	O 	0.64635 0.40030 0.94429 -0.50800
O 	O 	0.67177 0.41461 0.14203 -0.41700
O 	O 	0.88844 0.57012 0.89887 -0.31700
O 	O 	0.57534 0.42793 0.89489 -0.34600
O 	O 	0.96220 0.68640 0.31060 -0.12000
O 	O 	0.96978 0.63934 0.19880 -0.26500
O 	O 	0.90920 0.61190 0.76780 0.05800
H 	H 	0.96920 0.66180 0.78710 0.20800
N 	N 	0.69653 0.59674 0.51126 -0.28000
N 	N 	0.64872 0.63940 0.37512 -0.28100
C 	C 	0.76552 0.51118 0.19261 -0.06700
C 	C 	0.68340 0.61737 0.33100 0.09600
C 	C 	0.73150 0.45665 0.13084 0.32700
C 	C 	0.67930 0.62800 0.24590 -0.07900
H 	H 	0.69890 0.61680 0.20250 0.06500
C 	C 	0.72769 0.52269 0.24990 -0.06200
H 	H 	0.68120 0.49580 0.25000 0.06500
C 	C 	0.71236 0.57666 0.58320 0.08600
C 	C 	0.68474 0.48675 0.84800 -0.10400
C 	C 	0.71881 0.58942 0.36596 -0.12500
C 	C 	0.75090 0.50864 0.86405 0.03800
H 	H 	0.76270 0.49000 0.90800 0.01400
C 	C 	0.71601 0.56071 0.73235 0.04200
C 	C 	0.66794 0.51331 0.78269 -0.03400
H 	H 	0.62290 0.49890 0.77220 0.05500
C 	C 	0.72320 0.57864 0.44900 0.09400
C 	C 	0.75854 0.57354 0.30660 0.06600
C 	C 	0.78197 0.58311 0.75029 -0.04000
H 	H 	0.81540 0.61630 0.71720 0.07300
C 	C 	0.75416 0.54417 0.48210 -0.07600
H 	H 	0.77580 0.52590 0.45180 0.06400
C 	C 	0.69562 0.58737 0.66170 -0.11400
C 	C 	0.83277 0.54860 0.19550 0.00800
H 	H 	0.85850 0.54090 0.15700 0.02600
C 	C 	0.64194 0.65740 0.23820 -0.07000
H 	H 	0.63080 0.67070 0.18860 0.06300
C 	C 	0.74684 0.54248 0.56440 -0.07000
H 	H 	0.76180 0.52230 0.60260 0.06200
C 	C 	0.82475 0.60884 0.31040 -0.07200
H 	H 	0.84530 0.64160 0.35150 0.07900
C 	C 	0.63189 0.43456 0.90000 0.39100
C 	C 	0.93710 0.64030 0.25840 0.29500
C 	C 	0.79917 0.55730 0.81620 -0.08500
C 	C 	0.86386 0.59781 0.25420 -0.04500
C 	C 	0.62289 0.66429 0.31900 0.08600
C 	C 	0.87009 0.58380 0.83730 0.35500
O 	O 	0.96050 0.66070 0.33120 -0.11000
O 	O 	0.90960 0.63330 0.79040 -0.34400
Na	Na	0.62745 0.13790 0.00301 0.58200
O 	O 	0.54565 0.30947 0.07162 -0.45900
O 	O 	0.59970 0.24605 0.94429 -0.51000
O 	O 	0.58539 0.25716 0.14203 -0.41900
O 	O 	0.42988 0.31832 0.89887 -0.32500
O 	O 	0.57207 0.14741 0.89489 -0.34900
O 	O 	0.31360 0.27580 0.31060 -0.13500
O 	O 	0.36066 0.33044 0.19880 -0.28200
O 	O 	0.38810 0.29730 0.76780 0.05300
H 	H 	0.33820 0.30740 0.78710 0.19300
N 	N 	0.40326 0.09979 0.51126 -0.28300
N 	N 	0.36060 0.00932 0.37512 -0.29700
C 	C 	0.48882 0.25434 0.19261 -0.07000
C 	C 	0.38263 0.06603 0.33100 0.10400
C 	C 	0.54335 0.27485 0.13084 0.32700
C 	C 	0.37200 0.05130 0.24590 -0.12700
H 	H 	0.38320 0.08210 0.20250 0.07400
C 	C 	0.47731 0.20500 0.24990 -0.06200
H 	H 	0.50420 0.18540 0.25000 0.06400
C 	C 	0.42334 0.13570 0.58320 0.08100
C 	C 	0.51325 0.19799 0.84800 -0.10800
C 	C 	0.41058 0.12939 0.36596 -0.13200
C 	C 	0.49136 0.24226 0.86405 0.03900
H 	H 	0.51000 0.27270 0.90800 0.01300
C 	C 	0.43929 0.15530 0.73235 0.03900
C 	C 	0.48669 0.15463 0.78269 -0.03300
H 	H 	0.50110 0.12400 0.77220 0.05300
C 	C 	0.42136 0.14456 0.44900 0.09400
C 	C 	0.42646 0.18500 0.30660 0.06400
C 	C 	0.41689 0.19886 0.75029 -0.03900
H 	H 	0.38370 0.19910 0.71720 0.06700
C 	C 	0.45583 0.20999 0.48210 -0.07900
H 	H 	0.47410 0.24990 0.45180 0.06300
C 	C 	0.41263 0.10825 0.66170 -0.11400
C 	C 	0.45140 0.28417 0.19550 0.01000
H 	H 	0.45910 0.31760 0.15700 0.02300
C 	C 	0.34260 0.98454 0.23820 -0.02900
H 	H 	0.32930 0.96010 0.18860 0.05300
C 	C 	0.45752 0.20436 0.56440 -0.07000
H 	H 	0.47770 0.23950 0.60260 0.06000
C 	C 	0.39116 0.21591 0.31040 -0.07100
H 	H 	0.35840 0.20370 0.35150 0.07300
C 	C 	0.56544 0.19733 0.90000 0.39100
C 	C 	0.35970 0.29680 0.25840 0.29800
C 	C 	0.44270 0.24187 0.81620 -0.08900
C 	C 	0.40219 0.26605 0.25420 -0.05100
C 	C 	0.33571 0.95860 0.31900 0.09400
C 	C 	0.41620 0.28629 0.83730 0.35400
O 	O 	0.33930 0.29980 0.33120 -0.11100
O 	O 	0.36670 0.27630 0.79040 -0.34600
Na	Na	0.86210 0.48955 0.00301 0.58300
O 	O 	0.69053 0.23618 0.07162 -0.46000
O 	O 	0.75395 0.35365 0.94429 -0.50800
O 	O 	0.74284 0.32823 0.14203 -0.41800
O 	O 	0.68168 0.11156 0.89887 -0.32600
O 	O 	0.85259 0.42466 0.89489 -0.34200
O 	O 	0.72420 0.03780 0.31060 -0.13400
O 	O 	0.66956 0.03022 0.19880 -0.29800
O 	O 	0.70270 0.09080 0.76780 0.03500
H 	H 	0.69260 0.03080 0.78710 0.18200
N 	N 	0.90021 0.30347 0.51126 -0.27500
N 	N 	0.99068 0.35128 0.37512 -0.26500
C 	C 	0.74566 0.23448 0.19261 -0.07100
C 	C 	0.93397 0.31660 0.33100 0.08500
C 	C 	0.72515 0.26850 0.13084 0.32900
C 	C 	0.94870 0.32070 0.24590 -0.03900
H 	H 	0.91790 0.30110 0.20250 0.05300
C 	C 	0.79500 0.27231 0.24990 -0.05800
H 	H 	0.81460 0.31880 0.25000 0.06500
C 	C 	0.86430 0.28764 0.58320 0.08800
C 	C 	0.80201 0.31526 0.84800 -0.10300
C 	C 	0.87061 0.28119 0.36596 -0.11800
C 	C 	0.75774 0.24910 0.86405 0.03800
H 	H 	0.72730 0.23730 0.90800 0.01400
C 	C 	0.84470 0.28399 0.73235 0.04200
C 	C 	0.84537 0.33206 0.78269 -0.03500
H 	H 	0.87600 0.37710 0.77220 0.05800
C 	C 	0.85544 0.27680 0.44900 0.09200
C 	C 	0.81500 0.24146 0.30660 0.06000
C 	C 	0.80114 0.21803 0.75029 -0.04000
H 	H 	0.80090 0.18460 0.71720 0.06900
C 	C 	0.79001 0.24584 0.48210 -0.07500
H 	H 	0.75010 0.22420 0.45180 0.06100
C 	C 	0.89175 0.30438 0.66170 -0.11500
C 	C 	0.71583 0.16723 0.19550 0.01300
H 	H 	0.68240 0.14150 0.15700 0.02000
C 	C 	0.01546 0.35806 0.23820 -0.10900
H 	H 	0.03990 0.36920 0.18860 0.06900
C 	C 	0.79564 0.25316 0.56440 -0.07300
H 	H 	0.76050 0.23820 0.60260 0.06100
C 	C 	0.78409 0.17525 0.31040 -0.06600
H 	H 	0.79630 0.15470 0.35150 0.07300
C 	C 	0.80267 0.36811 0.90000 0.39000
C 	C 	0.70320 0.06290 0.25840 0.30200
C 	C 	0.75813 0.20083 0.81620 -0.08600
C 	C 	0.73395 0.13614 0.25420 -0.05500
C 	C 	0.04140 0.37711 0.31900 0.07600
C 	C 	0.71371 0.12991 0.83730 0.35200
O 	O 	0.70020 0.03950 0.33120 -0.12000
O 	O 	0.72370 0.09040 0.79040 -0.32800
Na	Na	0.37255 0.51045 0.99699 0.58300
O 	O 	0.45435 0.76382 0.92838 -0.45800
O 	O 	0.40030 0.64635 0.05571 -0.50900
O 	O 	0.41461 0.67177 0.85797 -0.41800
O 	O 	0.57012 0.88844 0.10113 -0.31800
O 	O 	0.42793 0.57534 0.10511 -0.34600
O 	O 	0.68640 0.96220 0.68940 -0.12000
O 	O 	0.63934 0.96978 0.80120 -0.26500
O 	O 	0.61190 0.90920 0.23220 0.05800
H 	H 	0.66180 0.96920 0.21290 0.20800
N 	N 	0.59674 0.69653 0.48874 -0.28000
N 	N 	0.63940 0.64872 0.62488 -0.28100
C 	C 	0.51118 0.76552 0.80739 -0.06700
C 	C 	0.61737 0.68340 0.66900 0.09600
C 	C 	0.45665 0.73150 0.86916 0.32700
C 	C 	0.62800 0.67930 0.75410 -0.07900
H 	H 	0.61680 0.69890 0.79750 0.06500
C 	C 	0.52269 0.72769 0.75010 -0.06200
H 	H 	0.49580 0.68120 0.75000 0.06500
C 	C 	0.57666 0.71236 0.41680 0.08600
C 	C 	0.48675 0.68474 0.15200 -0.10400
C 	C 	0.58942 0.71881 0.63404 -0.12500
C 	C 	0.50864 0.75090 0.13595 0.03800
H 	H 	0.49000 0.76270 0.09200 0.01400
C 	C 	0.56071 0.71601 0.26765 0.04200
C 	C 	0.51331 0.66794 0.21731 -0.03400
H 	H 	0.49890 0.62290 0.22780 0.05500
C 	C 	0.57864 0.72320 0.55100 0.09400
C 	C 	0.57354 0.75854 0.69340 0.06600
C 	C 	0.58311 0.78197 0.24971 -0.04000
H 	H 	0.61630 0.81540 0.28280 0.07300
C 	C 	0.54417 0.75416 0.51790 -0.07600
H 	H 	0.52590 0.77580 0.54820 0.06400
C 	C 	0.58737 0.69562 0.33830 -0.11400
C 	C 	0.54860 0.83277 0.80450 0.00800
H 	H 	0.54090 0.85850 0.84300 0.02600
C 	C 	0.65740 0.64194 0.76180 -0.07000
H 	H 	0.67070 0.63080 0.81140 0.06300
C 	C 	0.54248 0.74684 0.43560 -0.07000
H 	H 	0.52230 0.76180 0.39740 0.06200
C 	C 	0.60884 0.82475 0.68960 -0.07200
H 	H 	0.64160 0.84530 0.64850 0.07900
C 	C 	0.43456 0.63189 0.10000 0.39100
C 	C 	0.64030 0.93710 0.74160 0.29500
C 	C 	0.55730 0.79917 0.18380 -0.08500
C 	C 	0.59781 0.86386 0.74580 -0.04500
C 	C 	0.66429 0.62289 0.68100 0.08600
C 	C 	0.58380 0.87009 0.16270 0.35500
O 	O 	0.66070 0.96050 0.66880 -0.11000
O 	O 	0.63330 0.90960 0.20960 -0.34400
Na	Na	0.13790 0.62745 0.99699 0.58200
O 	O 	0.30947 0.54565 0.92838 -0.45900
O 	O 	0.24605 0.59970 0.05571 -0.51000
O 	O 	0.25716 0.58539 0.85797 -0.41900
O 	O 	0.31832 0.42988 0.10113 -0.32500
O 	O 	0.14741 0.57207 0.10511 -0.34900
O 	O 	0.27580 0.31360 0.68940 -0.13500
O 	O 	0.33044 0.36066 0.80120 -0.28200
O 	O 	0.29730 0.38810 0.23220 0.05300
H 	H 	0.30740 0.33820 0.21290 0.19300
N 	N 	0.09979 0.40326 0.48874 -0.28300
N 	N 	0.00932 0.36060 0.62488 -0.29700
C 	C 	0.25434 0.48882 0.80739 -0.07000
C 	C 	0.06603 0.38263 0.66900 0.10400
C 	C 	0.27485 0.54335 0.86916 0.32700
C 	C 	0.05130 0.37200 0.75410 -0.12700
H 	H 	0.08210 0.38320 0.79750 0.07400
C 	C 	0.20500 0.47731 0.75010 -0.06200
H 	H 	0.18540 0.50420 0.75000 0.06400
C 	C 	0.13570 0.42334 0.41680 0.08100
C 	C 	0.19799 0.51325 0.15200 -0.10800
C 	C 	0.12939 0.41058 0.63404 -0.13200
C 	C 	0.24226 0.49136 0.13595 0.03900
H 	H 	0.27270 0.51000 0.09200 0.01300
C 	C 	0.15530 0.43929 0.26765 0.03900
C 	C 	0.15463 0.48669 0.21731 -0.03300
H 	H 	0.12400 0.50110 0.22780 0.05300
C 	C 	0.14456 0.42136 0.55100 0.09400
C 	C 	0.18500 0.42646 0.69340 0.06400
C 	C 	0.19886 0.41689 0.24971 -0.03900
H 	H 	0.19910 0.38370 0.28280 0.06700
C 	C 	0.20999 0.45583 0.51790 -0.07900
H 	H 	0.24990 0.47410 0.54820 0.06300
C 	C 	0.10825 0.41263 0.33830 -0.11400
C 	C 	0.28417 0.45140 0.80450 0.01000
H 	H 	0.31760 0.45910 0.84300 0.02300
C 	C 	0.98454 0.34260 0.76180 -0.02900
H 	H 	0.96010 0.32930 0.81140 0.05300
C 	C 	0.20436 0.45752 0.43560 -0.07000
H 	H 	0.23950 0.47770 0.39740 0.06000
C 	C 	0.21591 0.39116 0.68960 -0.07100
H 	H 	0.20370 0.35840 0.64850 0.07300
C 	C 	0.19733 0.56544 0.10000 0.39100
C 	C 	0.29680 0.35970 0.74160 0.29800
C 	C 	0.24187 0.44270 0.18380 -0.08900
C 	C 	0.26605 0.40219 0.74580 -0.05100
C 	C 	0.95860 0.33571 0.68100 0.09400
C 	C 	0.28629 0.41620 0.16270 0.35400
O 	O 	0.29980 0.33930 0.66880 -0.11100
O 	O 	0.27630 0.36670 0.20960 -0.34600
Na	Na	0.48955 0.86210 0.99699 0.58300
O 	O 	0.23618 0.69053 0.92838 -0.46000
O 	O 	0.35365 0.75395 0.05571 -0.50800
O 	O 	0.32823 0.74284 0.85797 -0.41800
O 	O 	0.11156 0.68168 0.10113 -0.32600
O 	O 	0.42466 0.85259 0.10511 -0.34200
O 	O 	0.03780 0.72420 0.68940 -0.13400
O 	O 	0.03022 0.66956 0.80120 -0.29800
O 	O 	0.09080 0.70270 0.23220 0.03500
H 	H 	0.03080 0.69260 0.21290 0.18200
N 	N 	0.30347 0.90021 0.48874 -0.27500
N 	N 	0.35128 0.99068 0.62488 -0.26500
C 	C 	0.23448 0.74566 0.80739 -0.07100
C 	C 	0.31660 0.93397 0.66900 0.08500
C 	C 	0.26850 0.72515 0.86916 0.32900
C 	C 	0.32070 0.94870 0.75410 -0.03900
H 	H 	0.30110 0.91790 0.79750 0.05300
C 	C 	0.27231 0.79500 0.75010 -0.05800
H 	H 	0.31880 0.81460 0.75000 0.06500
C 	C 	0.28764 0.86430 0.41680 0.08800
C 	C 	0.31526 0.80201 0.15200 -0.10300
C 	C 	0.28119 0.87061 0.63404 -0.11800
C 	C 	0.24910 0.75774 0.13595 0.03800
H 	H 	0.23730 0.72730 0.09200 0.01400
C 	C 	0.28399 0.84470 0.26765 0.04200
C 	C 	0.33206 0.84537 0.21731 -0.03500
H 	H 	0.37710 0.87600 0.22780 0.05800
C 	C 	0.27680 0.85544 0.55100 0.09200
C 	C 	0.24146 0.81500 0.69340 0.06000
C 	C 	0.21803 0.80114 0.24971 -0.04000
H 	H 	0.18460 0.80090 0.28280 0.06900
C 	C 	0.24584 0.79001 0.51790 -0.07500
H 	H 	0.22420 0.75010 0.54820 0.06100
C 	C 	0.30438 0.89175 0.33830 -0.11500
C 	C 	0.16723 0.71583 0.80450 0.01300
H 	H 	0.14150 0.68240 0.84300 0.02000
C 	C 	0.35806 0.01546 0.76180 -0.10900
H 	H 	0.36920 0.03990 0.81140 0.06900
C 	C 	0.25316 0.79564 0.43560 -0.07300
H 	H 	0.23820 0.76050 0.39740 0.06100
C 	C 	0.17525 0.78409 0.68960 -0.06600
H 	H 	0.15470 0.79630 0.64850 0.07300
C 	C 	0.36811 0.80267 0.10000 0.39000
C 	C 	0.06290 0.70320 0.74160 0.30200
C 	C 	0.20083 0.75813 0.18380 -0.08600
C 	C 	0.13614 0.73395 0.74580 -0.05500
C 	C 	0.37711 0.04140 0.68100 0.07600
C 	C 	0.12991 0.71371 0.16270 0.35200
O 	O 	0.03950 0.70020 0.66880 -0.12000
O 	O 	0.09040 0.72370 0.20960 -0.32800
Pr	Pr	0.66667 0.33333 0.03450 2.08800
Pr	Pr	0.33333 0.66667 0.96550 2.08800
Zn	Zn	0.63129 0.63129 0.50000 1.16100
Zn	Zn	0.36871 0.00000 0.50000 1.15300
Zn	Zn	-0.00000 0.36871 0.50000 1.15300
