data_crystal

_cell_length_a 20.04140
_cell_length_b 16.25900
_cell_length_c 23.99600
_cell_angle_alpha 90.00000
_cell_angle_beta  114.52900
_cell_angle_gamma 90.00000

_symmetry_space_group_name_	'P 1'
_symmetry_space_group_name_H-M	'P 1'

loop_
_symmetry_equiv_pos_as_xyz
  x,y,z

loop_
_atom_site_label
_atom_site_type_symbol
_atom_site_fract_x
_atom_site_fract_y
_atom_site_fract_z
_atom_site_charge
Fe	Fe	0.36050 0.60368 0.74549 1.23900
Fe	Fe	0.11507 0.39633 0.25451 1.23800
N 	N 	0.74174 0.87542 0.98327 -0.32900
O 	O 	0.31239 0.33844 0.66273 -0.41600
O 	O 	0.14971 0.33856 0.33762 -0.41900
O 	O 	0.80710 0.66590 0.76302 -0.41200
O 	O 	0.45559 0.66610 0.76293 -0.41200
O 	O 	0.03871 0.70190 0.21956 -0.32000
O 	O 	0.68097 0.70170 0.21947 -0.33600
O 	O 	0.74881 0.59420 0.25657 -0.34700
O 	O 	0.40820 0.56930 0.83512 -0.42200
O 	O 	0.00776 0.59410 0.25641 -0.32900
O 	O 	0.07420 0.43080 0.16497 -0.42000
C 	C 	0.14309 0.06820 0.49997 0.10100
C 	C 	0.05477 0.17520 0.49987 0.08400
C 	C 	0.12097 0.14920 0.50023 -0.14600
C 	C 	0.17212 0.21640 0.49976 0.05500
C 	C 	0.22093 0.25000 0.55500 -0.04900
H 	H 	0.22470 0.22750 0.59270 0.06100
C 	C 	0.16607 0.24990 0.44513 -0.04700
H 	H 	0.13240 0.22710 0.40750 0.06100
C 	C 	0.66200 0.78290 0.82458 0.05200
C 	C 	0.67680 0.93170 0.85349 0.10300
C 	C 	0.80750 0.93220 0.11460 0.10200
C 	C 	0.26470 0.31750 0.55460 -0.08100
C 	C 	0.59230 0.75020 0.80467 -0.04400
H 	H 	0.55810 0.77220 0.81880 0.06700
C 	C 	0.20930 0.31750 0.44464 -0.08400
C 	C 	0.79760 0.85060 0.09471 -0.14400
C 	C 	0.25930 0.34920 0.50010 0.02700
H 	H 	0.29030 0.39350 0.50010 0.05100
C 	C 	0.71660 0.82490 0.93358 0.09400
C 	C 	0.76780 0.82420 0.03480 0.08900
C 	C 	0.82200 0.78520 0.14394 0.08800
C 	C 	0.21200 0.04200 0.49990 -0.17000
H 	H 	0.25010 0.07670 0.49980 0.08500
C 	C 	0.68660 0.85110 0.87330 -0.13500
C 	C 	0.71240 0.75010 0.80485 -0.04300
H 	H 	0.76050 0.77220 0.81890 0.06600
C 	C 	0.57260 0.68410 0.76344 -0.07800
C 	C 	0.69110 0.68360 0.76362 -0.08100
C 	C 	0.77420 0.75590 0.16600 -0.09200
H 	H 	0.72610 0.77810 0.15140 0.08200
C 	C 	0.75770 0.73970 0.01590 -0.07700
H 	H 	0.76990 0.69280 0.04180 0.06700
C 	C 	0.89230 0.75590 0.16610 -0.09400
H 	H 	0.92570 0.77830 0.15140 0.07900
C 	C 	0.72710 0.73970 0.95350 -0.07300
H 	H 	0.71490 0.69250 0.92780 0.06600
C 	C 	0.73880 0.66100 0.23020 0.29200
C 	C 	0.62180 0.65090 0.74394 0.02800
H 	H 	0.60820 0.60520 0.71680 0.05400
C 	C 	0.91540 0.69410 0.20970 -0.02000
C 	C 	0.03340 0.25880 0.49950 -0.05500
H 	H 	0.06110 0.30580 0.49880 0.06200
C 	C 	0.83930 0.95870 0.17892 0.01700
H 	H 	0.85660 0.92400 0.21390 0.03400
C 	C 	0.64470 0.95850 0.79000 0.01900
H 	H 	0.62700 0.92390 0.75490 0.04400
C 	C 	0.79510 0.69380 0.20980 -0.02300
C 	C 	0.74410 0.64130 0.74420 0.39500
C 	C 	0.99120 0.66170 0.23030 0.26000
C 	C 	0.31490 0.35850 0.61400 0.39200
C 	C 	0.49950 0.64080 0.74380 0.39700
C 	C 	0.20060 0.35830 0.38580 0.39600
C 	C 	0.86590 0.66230 0.23040 -0.03100
H 	H 	0.88030 0.61840 0.25910 0.07400
O 	O 	0.50150 0.56720 0.71850 -0.21300
O 	O 	0.37010 0.39860 0.61590 -0.27500
O 	O 	0.71660 0.56630 0.71790 -0.21900
O 	O 	0.25350 0.39840 0.38370 -0.27700
O 	O 	0.47680 0.60040 0.69400 -0.27600
O 	O 	0.71660 0.60180 0.69390 -0.26600
O 	O 	0.24040 0.42820 0.40010 -0.19000
O 	O 	0.33880 0.42890 0.59980 -0.19600
Fe	Fe	0.63950 0.60368 0.25451 1.23900
Fe	Fe	0.88493 0.39633 0.74549 1.23900
N 	N 	0.25826 0.87542 0.01673 -0.32800
O 	O 	0.68761 0.33844 0.33727 -0.41600
O 	O 	0.85029 0.33856 0.66238 -0.42000
O 	O 	0.19290 0.66590 0.23698 -0.41100
O 	O 	0.54441 0.66610 0.23707 -0.41200
O 	O 	0.96129 0.70190 0.78044 -0.35000
O 	O 	0.31903 0.70170 0.78053 -0.33700
O 	O 	0.25119 0.59420 0.74343 -0.34600
O 	O 	0.59180 0.56930 0.16488 -0.42200
O 	O 	0.99224 0.59410 0.74359 -0.35900
O 	O 	0.92580 0.43080 0.83503 -0.42500
C 	C 	0.85691 0.06820 0.50003 0.10000
C 	C 	0.94523 0.17520 0.50013 0.08500
C 	C 	0.87903 0.14920 0.49977 -0.14900
C 	C 	0.82788 0.21640 0.50024 0.05500
C 	C 	0.77907 0.25000 0.44500 -0.04900
H 	H 	0.77530 0.22750 0.40730 0.06000
C 	C 	0.83393 0.24990 0.55487 -0.04800
H 	H 	0.86760 0.22710 0.59250 0.05900
C 	C 	0.33800 0.78290 0.17542 0.05200
C 	C 	0.32320 0.93170 0.14651 0.10400
C 	C 	0.19250 0.93220 0.88540 0.10200
C 	C 	0.73530 0.31750 0.44540 -0.08200
C 	C 	0.40770 0.75020 0.19533 -0.04500
H 	H 	0.44190 0.77220 0.18120 0.06700
C 	C 	0.79070 0.31750 0.55536 -0.08600
C 	C 	0.20240 0.85060 0.90529 -0.14200
C 	C 	0.74070 0.34920 0.49990 0.02700
H 	H 	0.70970 0.39350 0.49990 0.05100
C 	C 	0.28340 0.82490 0.06642 0.09500
C 	C 	0.23220 0.82420 0.96520 0.09000
C 	C 	0.17800 0.78520 0.85606 0.08200
C 	C 	0.78800 0.04200 0.50010 -0.17000
H 	H 	0.74990 0.07670 0.50020 0.08400
C 	C 	0.31340 0.85110 0.12670 -0.13500
C 	C 	0.28760 0.75010 0.19515 -0.04300
H 	H 	0.23950 0.77220 0.18110 0.06700
C 	C 	0.42740 0.68410 0.23656 -0.07700
C 	C 	0.30890 0.68360 0.23638 -0.08000
C 	C 	0.22580 0.75590 0.83400 -0.08600
H 	H 	0.27390 0.77810 0.84860 0.08000
C 	C 	0.24230 0.73970 0.98410 -0.07300
H 	H 	0.23010 0.69280 0.95820 0.06700
C 	C 	0.10770 0.75590 0.83390 -0.08100
H 	H 	0.07430 0.77830 0.84860 0.08000
C 	C 	0.27290 0.73970 0.04650 -0.07500
H 	H 	0.28510 0.69250 0.07220 0.06700
C 	C 	0.26120 0.66100 0.76980 0.29500
C 	C 	0.37820 0.65090 0.25606 0.02800
H 	H 	0.39180 0.60520 0.28320 0.05400
C 	C 	0.08460 0.69410 0.79030 -0.03700
C 	C 	0.96660 0.25880 0.50050 -0.09700
H 	H 	0.93890 0.30580 0.50120 0.07200
C 	C 	0.16070 0.95870 0.82108 0.01800
H 	H 	0.14340 0.92400 0.78610 0.03600
C 	C 	0.35530 0.95850 0.21000 0.01900
H 	H 	0.37300 0.92390 0.24510 0.04400
C 	C 	0.20490 0.69380 0.79020 -0.02900
C 	C 	0.25590 0.64130 0.25580 0.39500
C 	C 	0.00880 0.66170 0.76970 0.31900
C 	C 	0.68510 0.35850 0.38600 0.39200
C 	C 	0.50050 0.64080 0.25620 0.39700
C 	C 	0.79940 0.35830 0.61420 0.39600
C 	C 	0.13410 0.66230 0.76960 -0.01800
H 	H 	0.11970 0.61840 0.74090 0.07400
O 	O 	0.49850 0.56720 0.28150 -0.21300
O 	O 	0.62990 0.39860 0.38410 -0.27400
O 	O 	0.28340 0.56630 0.28210 -0.21900
O 	O 	0.74650 0.39840 0.61630 -0.27700
O 	O 	0.52320 0.60040 0.30600 -0.27600
O 	O 	0.28340 0.60180 0.30610 -0.26600
O 	O 	0.75960 0.42820 0.59990 -0.19100
O 	O 	0.66120 0.42890 0.40020 -0.19600
Fe	Fe	0.63950 0.39632 0.25451 1.23900
Fe	Fe	0.88493 0.60367 0.74549 1.24000
N 	N 	0.25826 0.12458 0.01673 -0.34500
O 	O 	0.68761 0.66156 0.33727 -0.41200
O 	O 	0.85029 0.66144 0.66238 -0.41600
O 	O 	0.19290 0.33410 0.23698 -0.41600
O 	O 	0.54441 0.33390 0.23707 -0.41700
O 	O 	0.96129 0.29810 0.78044 -0.35800
O 	O 	0.31903 0.29830 0.78053 -0.34400
O 	O 	0.25119 0.40580 0.74343 -0.34700
O 	O 	0.59180 0.43070 0.16488 -0.42400
O 	O 	0.99224 0.40590 0.74359 -0.36000
O 	O 	0.92580 0.56920 0.83503 -0.42300
C 	C 	0.85691 0.93180 0.50003 0.10200
C 	C 	0.94523 0.82480 0.50013 0.09100
C 	C 	0.87903 0.85080 0.49977 -0.13600
C 	C 	0.82788 0.78360 0.50024 0.05600
C 	C 	0.77907 0.75000 0.44500 -0.04800
H 	H 	0.77530 0.77250 0.40730 0.06700
C 	C 	0.83393 0.75010 0.55487 -0.04700
H 	H 	0.86760 0.77290 0.59250 0.06500
C 	C 	0.33800 0.21710 0.17542 0.05100
C 	C 	0.32320 0.06830 0.14651 0.10300
C 	C 	0.19250 0.06780 0.88540 0.10000
C 	C 	0.73530 0.68250 0.44540 -0.07700
C 	C 	0.40770 0.24980 0.19533 -0.04500
H 	H 	0.44190 0.22780 0.18120 0.06000
C 	C 	0.79070 0.68250 0.55536 -0.08100
C 	C 	0.20240 0.14940 0.90529 -0.15400
C 	C 	0.74070 0.65080 0.49990 0.02700
H 	H 	0.70970 0.60650 0.49990 0.05300
C 	C 	0.28340 0.17510 0.06642 0.09000
C 	C 	0.23220 0.17580 0.96520 0.08300
C 	C 	0.17800 0.21480 0.85606 0.08100
C 	C 	0.78800 0.95800 0.50010 0.01400
H 	H 	0.74990 0.92330 0.50020 0.04500
C 	C 	0.31340 0.14890 0.12670 -0.14900
C 	C 	0.28760 0.24990 0.19515 -0.04400
H 	H 	0.23950 0.22780 0.18110 0.06000
C 	C 	0.42740 0.31590 0.23656 -0.08300
C 	C 	0.30890 0.31640 0.23638 -0.08600
C 	C 	0.22580 0.24410 0.83400 -0.08600
H 	H 	0.27390 0.22190 0.84860 0.07300
C 	C 	0.24230 0.26030 0.98410 -0.07400
H 	H 	0.23010 0.30720 0.95820 0.06700
C 	C 	0.10770 0.24410 0.83390 -0.08100
H 	H 	0.07430 0.22170 0.84860 0.07300
C 	C 	0.27290 0.26030 0.04650 -0.07700
H 	H 	0.28510 0.30750 0.07220 0.06700
C 	C 	0.26120 0.33900 0.76980 0.29600
C 	C 	0.37820 0.34910 0.25606 0.02900
H 	H 	0.39180 0.39480 0.28320 0.05200
C 	C 	0.08460 0.30590 0.79030 -0.04200
C 	C 	0.96660 0.74120 0.50050 -0.09500
H 	H 	0.93890 0.69420 0.50120 0.07200
C 	C 	0.16070 0.04130 0.82108 -0.17500
H 	H 	0.14340 0.07600 0.78610 0.07900
C 	C 	0.35530 0.04150 0.21000 -0.17400
H 	H 	0.37300 0.07610 0.24510 0.08600
C 	C 	0.20490 0.30620 0.79020 -0.03400
C 	C 	0.25590 0.35870 0.25580 0.39600
C 	C 	0.00880 0.33830 0.76970 0.32000
C 	C 	0.68510 0.64150 0.38600 0.39200
C 	C 	0.50050 0.35920 0.25620 0.39800
C 	C 	0.79940 0.64170 0.61420 0.39600
C 	C 	0.13410 0.33770 0.76960 -0.01600
H 	H 	0.11970 0.38160 0.74090 0.07300
O 	O 	0.49850 0.43280 0.28150 -0.21100
O 	O 	0.62990 0.60140 0.38410 -0.27000
O 	O 	0.28340 0.43370 0.28210 -0.21700
O 	O 	0.74650 0.60160 0.61630 -0.27200
O 	O 	0.52320 0.39960 0.30600 -0.28000
O 	O 	0.28340 0.39820 0.30610 -0.27000
O 	O 	0.75960 0.57180 0.59990 -0.19300
O 	O 	0.66120 0.57110 0.40020 -0.19900
Fe	Fe	0.36050 0.39632 0.74549 1.23900
Fe	Fe	0.11507 0.60367 0.25451 1.23900
N 	N 	0.74174 0.12458 0.98327 -0.34500
O 	O 	0.31239 0.66156 0.66273 -0.41200
O 	O 	0.14971 0.66144 0.33762 -0.41500
O 	O 	0.80710 0.33410 0.76302 -0.41700
O 	O 	0.45559 0.33390 0.76293 -0.41700
O 	O 	0.03871 0.29810 0.21956 -0.32800
O 	O 	0.68097 0.29830 0.21947 -0.34400
O 	O 	0.74881 0.40580 0.25657 -0.34800
O 	O 	0.40820 0.43070 0.83512 -0.42400
O 	O 	0.00776 0.40590 0.25641 -0.33000
O 	O 	0.07420 0.56920 0.16497 -0.41900
C 	C 	0.14309 0.93180 0.49997 0.10300
C 	C 	0.05477 0.82480 0.49987 0.09000
C 	C 	0.12097 0.85080 0.50023 -0.13300
C 	C 	0.17212 0.78360 0.49976 0.05600
C 	C 	0.22093 0.75000 0.55500 -0.04800
H 	H 	0.22470 0.77250 0.59270 0.06800
C 	C 	0.16607 0.75010 0.44513 -0.04600
H 	H 	0.13240 0.77290 0.40750 0.06800
C 	C 	0.66200 0.21710 0.82458 0.05000
C 	C 	0.67680 0.06830 0.85349 0.10300
C 	C 	0.80750 0.06780 0.11460 0.10000
C 	C 	0.26470 0.68250 0.55460 -0.07600
C 	C 	0.59230 0.24980 0.80467 -0.04500
H 	H 	0.55810 0.22780 0.81880 0.06000
C 	C 	0.20930 0.68250 0.44464 -0.07900
C 	C 	0.79760 0.14940 0.09471 -0.15700
C 	C 	0.25930 0.65080 0.50010 0.02700
H 	H 	0.29030 0.60650 0.50010 0.05300
C 	C 	0.71660 0.17510 0.93358 0.08800
C 	C 	0.76780 0.17580 0.03480 0.08200
C 	C 	0.82200 0.21480 0.14394 0.08700
C 	C 	0.21200 0.95800 0.49990 0.01500
H 	H 	0.25010 0.92330 0.49980 0.04500
C 	C 	0.68660 0.14890 0.87330 -0.14900
C 	C 	0.71240 0.24990 0.80485 -0.04400
H 	H 	0.76050 0.22780 0.81890 0.05900
C 	C 	0.57260 0.31590 0.76344 -0.08300
C 	C 	0.69110 0.31640 0.76362 -0.08700
C 	C 	0.77420 0.24410 0.16600 -0.09300
H 	H 	0.72610 0.22190 0.15140 0.07500
C 	C 	0.75770 0.26030 0.01590 -0.07800
H 	H 	0.76990 0.30720 0.04180 0.06600
C 	C 	0.89230 0.24410 0.16610 -0.09400
H 	H 	0.92570 0.22170 0.15140 0.07200
C 	C 	0.72710 0.26030 0.95350 -0.07500
H 	H 	0.71490 0.30750 0.92780 0.06500
C 	C 	0.73880 0.33900 0.23020 0.29300
C 	C 	0.62180 0.34910 0.74394 0.02900
H 	H 	0.60820 0.39480 0.71680 0.05200
C 	C 	0.91540 0.30590 0.20970 -0.02500
C 	C 	0.03340 0.74120 0.49950 -0.05300
H 	H 	0.06110 0.69420 0.49880 0.06300
C 	C 	0.83930 0.04130 0.17892 -0.17600
H 	H 	0.85660 0.07600 0.21390 0.07700
C 	C 	0.64470 0.04150 0.79000 -0.17400
H 	H 	0.62700 0.07610 0.75490 0.08600
C 	C 	0.79510 0.30620 0.20980 -0.02900
C 	C 	0.74410 0.35870 0.74420 0.39600
C 	C 	0.99120 0.33830 0.23030 0.26200
C 	C 	0.31490 0.64150 0.61400 0.39200
C 	C 	0.49950 0.35920 0.74380 0.39800
C 	C 	0.20060 0.64170 0.38580 0.39600
C 	C 	0.86590 0.33770 0.23040 -0.03000
H 	H 	0.88030 0.38160 0.25910 0.07200
O 	O 	0.50150 0.43280 0.71850 -0.21100
O 	O 	0.37010 0.60140 0.61590 -0.27000
O 	O 	0.71660 0.43370 0.71790 -0.21700
O 	O 	0.25350 0.60160 0.38370 -0.27300
O 	O 	0.47680 0.39960 0.69400 -0.28000
O 	O 	0.71660 0.39820 0.69390 -0.27000
O 	O 	0.24040 0.57180 0.40010 -0.19300
O 	O 	0.33880 0.57110 0.59980 -0.19800
Zn	Zn	0.99223 0.00000 0.48414 0.75900
N 	N 	0.10230 0.00000 0.50030 -0.36400
Zn	Zn	0.00777 -0.00000 0.51586 0.77200
N 	N 	0.89770 0.00000 0.49970 -0.36800
Zn	Zn	0.72477 0.00000 0.98412 0.76900
N 	N 	0.78830 -0.00000 0.07720 -0.37100
N 	N 	0.69480 -0.00000 0.89030 -0.36700
Zn	Zn	0.75941 0.00000 0.98397 0.76800
Zn	Zn	0.27523 0.00000 0.01588 0.76900
N 	N 	0.21170 0.00000 0.92280 -0.37000
N 	N 	0.30520 0.00000 0.10970 -0.36700
Zn	Zn	0.24059 0.00000 0.01603 0.76900
Fe	Fe	0.41779 0.50000 0.66020 1.24000
Fe	Fe	0.25770 0.50000 0.33989 1.23800
O 	O 	0.15380 0.50000 0.28550 -0.67200
O 	O 	0.36810 0.50000 0.71425 -0.67200
C 	C 	0.42290 0.50000 0.86050 0.42500
H 	H 	0.44810 0.50000 0.90380 -0.07500
C 	C 	0.06390 0.50000 0.13930 0.42300
H 	H 	0.04660 0.50000 0.09600 -0.07200
Fe	Fe	0.58221 0.50000 0.33980 1.24000
Fe	Fe	0.74230 0.50000 0.66011 1.23800
O 	O 	0.84620 0.50000 0.71450 -0.67100
O 	O 	0.63190 0.50000 0.28575 -0.67300
C 	C 	0.57710 0.50000 0.13950 0.42500
H 	H 	0.55190 0.50000 0.09620 -0.07500
C 	C 	0.93610 0.50000 0.86070 0.42300
H 	H 	0.95340 0.50000 0.90400 -0.07800
N 	N 	-0.00000 0.12580 0.50000 -0.33500
N 	N 	0.00000 0.87420 0.50000 -0.31800
