data_crystal

_cell_length_a 28.96500
_cell_length_b 28.96500
_cell_length_c 12.41130
_cell_angle_alpha 90.00000
_cell_angle_beta  90.00000
_cell_angle_gamma 90.00000

_symmetry_space_group_name_	'P 1'
_symmetry_space_group_name_H-M	'P 1'

loop_
_symmetry_equiv_pos_as_xyz
  x,y,z

loop_
_atom_site_label
_atom_site_type_symbol
_atom_site_fract_x
_atom_site_fract_y
_atom_site_fract_z
_atom_site_charge
Na	Na	0.70441 0.00001 0.99999 0.59700
O 	O 	0.74397 0.05452 0.55949 -0.35400
O 	O 	0.69561 0.00619 0.19024 -0.35500
O 	O 	0.69572 0.09579 0.65398 -0.29100
O 	O 	0.65419 0.05428 0.09597 -0.29200
N 	N 	0.50008 0.17966 0.37113 -0.34400
C 	C 	0.62059 0.12946 0.37501 0.06500
C 	C 	0.59859 0.21210 0.37738 0.08200
C 	C 	0.53795 0.15153 0.37276 0.08300
C 	C 	0.58383 0.16618 0.37502 -0.14000
C 	C 	0.68821 0.06182 0.37510 0.00600
H 	H 	0.71140 0.03860 0.37520 0.03700
C 	C 	0.64601 0.12097 0.46617 -0.06600
H 	H 	0.64010 0.13830 0.52960 0.06700
C 	C 	0.62902 0.10405 0.28324 -0.06500
H 	H 	0.61170 0.11000 0.21980 0.06700
C 	C 	0.66294 0.06943 0.28254 -0.06000
C 	C 	0.68050 0.08710 0.46716 -0.05900
C 	C 	0.47678 0.10365 0.37377 -0.07400
H 	H 	0.45730 0.07730 0.37450 0.06300
C 	C 	0.52323 0.10367 0.37367 -0.07500
H 	H 	0.54270 0.07730 0.37410 0.06300
C 	C 	0.70869 0.07891 0.56726 0.32200
C 	C 	0.67119 0.04145 0.18245 0.32300
Na	Na	0.20441 0.50001 0.49999 0.59700
O 	O 	0.24397 0.55452 0.05949 -0.35500
O 	O 	0.19561 0.50619 0.69024 -0.35700
O 	O 	0.19572 0.59579 0.15398 -0.29300
O 	O 	0.15419 0.55428 0.59597 -0.29500
N 	N 	0.00008 0.67966 0.87113 -0.36300
C 	C 	0.12059 0.62946 0.87501 0.06700
C 	C 	0.09859 0.71210 0.87738 0.08300
C 	C 	0.03795 0.65153 0.87276 0.09500
C 	C 	0.08383 0.66618 0.87502 -0.14800
C 	C 	0.18821 0.56182 0.87510 0.00600
H 	H 	0.21140 0.53860 0.87520 0.03700
C 	C 	0.14601 0.62097 0.96617 -0.06700
H 	H 	0.14010 0.63830 0.02960 0.06600
C 	C 	0.12902 0.60405 0.78324 -0.06600
H 	H 	0.11170 0.61000 0.71980 0.06500
C 	C 	0.16294 0.56943 0.78254 -0.06200
C 	C 	0.18050 0.58710 0.96716 -0.06000
C 	C 	0.97678 0.60365 0.87377 -0.01700
H 	H 	0.95730 0.57730 0.87450 0.05100
C 	C 	0.02323 0.60367 0.87367 -0.13700
H 	H 	0.04270 0.57730 0.87410 0.07800
C 	C 	0.20869 0.57891 0.06726 0.32200
C 	C 	0.17119 0.54145 0.68245 0.32300
Na	Na	0.79559 0.99999 0.49999 0.59700
O 	O 	0.75603 0.94548 0.05949 -0.35500
O 	O 	0.80439 0.99381 0.69024 -0.35400
O 	O 	0.80428 0.90421 0.15398 -0.28900
O 	O 	0.84581 0.94572 0.59597 -0.28900
N 	N 	0.99992 0.82034 0.87113 -0.32000
C 	C 	0.87941 0.87054 0.87501 0.06300
C 	C 	0.90141 0.78790 0.87738 0.08100
C 	C 	0.96205 0.84847 0.87276 0.07100
C 	C 	0.91617 0.83382 0.87502 -0.13000
C 	C 	0.81179 0.93818 0.87510 0.00700
H 	H 	0.78860 0.96140 0.87520 0.03800
C 	C 	0.85399 0.87903 0.96617 -0.06300
H 	H 	0.85990 0.86170 0.02960 0.06800
C 	C 	0.87098 0.89595 0.78324 -0.06300
H 	H 	0.88830 0.89000 0.71980 0.06900
C 	C 	0.83706 0.93057 0.78254 -0.05900
C 	C 	0.81950 0.91290 0.96716 -0.05800
C 	C 	0.02322 0.89635 0.87377 -0.13000
H 	H 	0.04270 0.92270 0.87450 0.07600
C 	C 	0.97677 0.89633 0.87367 -0.01200
H 	H 	0.95730 0.92270 0.87410 0.04900
C 	C 	0.79131 0.92109 0.06726 0.32100
C 	C 	0.82881 0.95855 0.68245 0.32400
Na	Na	0.29559 0.49999 0.99999 0.59700
O 	O 	0.25603 0.44548 0.55949 -0.35500
O 	O 	0.30439 0.49381 0.19024 -0.35500
O 	O 	0.30428 0.40421 0.65398 -0.29100
O 	O 	0.34581 0.44572 0.09597 -0.29200
N 	N 	0.49992 0.32034 0.37113 -0.34400
C 	C 	0.37941 0.37054 0.37501 0.06500
C 	C 	0.40141 0.28790 0.37738 0.08200
C 	C 	0.46205 0.34847 0.37276 0.08300
C 	C 	0.41617 0.33382 0.37502 -0.13900
C 	C 	0.31179 0.43818 0.37510 0.00600
H 	H 	0.28860 0.46140 0.37520 0.03700
C 	C 	0.35399 0.37903 0.46617 -0.06600
H 	H 	0.35990 0.36170 0.52960 0.06700
C 	C 	0.37098 0.39595 0.28324 -0.06500
H 	H 	0.38830 0.39000 0.21980 0.06700
C 	C 	0.33706 0.43057 0.28254 -0.06000
C 	C 	0.31950 0.41290 0.46716 -0.05900
C 	C 	0.52322 0.39635 0.37377 -0.07400
H 	H 	0.54270 0.42270 0.37450 0.06300
C 	C 	0.47677 0.39633 0.37367 -0.07500
H 	H 	0.45730 0.42270 0.37410 0.06300
C 	C 	0.29131 0.42109 0.56726 0.32200
C 	C 	0.32881 0.45855 0.18245 0.32300
Na	Na	0.74999 0.95441 0.24999 0.59700
O 	O 	0.69548 0.99397 0.80949 -0.35400
O 	O 	0.74381 0.94561 0.44024 -0.35500
O 	O 	0.65421 0.94572 0.90398 -0.29100
O 	O 	0.69572 0.90419 0.34597 -0.29200
N 	N 	0.57034 0.75008 0.62113 -0.34400
C 	C 	0.62054 0.87059 0.62501 0.06500
C 	C 	0.53790 0.84859 0.62738 0.08200
C 	C 	0.59847 0.78795 0.62276 0.08300
C 	C 	0.58382 0.83383 0.62502 -0.14000
C 	C 	0.68818 0.93821 0.62510 0.00600
H 	H 	0.71140 0.96140 0.62520 0.03700
C 	C 	0.62903 0.89601 0.71617 -0.06600
H 	H 	0.61170 0.89010 0.77960 0.06700
C 	C 	0.64595 0.87902 0.53324 -0.06500
H 	H 	0.64000 0.86170 0.46980 0.06700
C 	C 	0.68057 0.91294 0.53254 -0.06000
C 	C 	0.66290 0.93050 0.71716 -0.05900
C 	C 	0.64635 0.72678 0.62377 -0.07400
H 	H 	0.67270 0.70730 0.62450 0.06300
C 	C 	0.64633 0.77323 0.62367 -0.07500
H 	H 	0.67270 0.79270 0.62410 0.06300
C 	C 	0.67109 0.95869 0.81726 0.32100
C 	C 	0.70855 0.92119 0.43245 0.32300
Na	Na	0.24999 0.45441 0.74999 0.59700
O 	O 	0.19548 0.49397 0.30949 -0.35600
O 	O 	0.24381 0.44561 0.94024 -0.35600
O 	O 	0.15421 0.44572 0.40398 -0.29400
O 	O 	0.19572 0.40419 0.84597 -0.29400
N 	N 	0.07034 0.25008 0.12113 -0.34700
C 	C 	0.12054 0.37059 0.12501 0.06300
C 	C 	0.03790 0.34859 0.12738 0.07000
C 	C 	0.09847 0.28795 0.12276 0.07800
C 	C 	0.08382 0.33383 0.12502 -0.13800
C 	C 	0.18818 0.43821 0.12510 0.00700
H 	H 	0.21140 0.46140 0.12520 0.03700
C 	C 	0.12903 0.39601 0.21617 -0.06400
H 	H 	0.11170 0.39010 0.27960 0.06400
C 	C 	0.14595 0.37902 0.03324 -0.06300
H 	H 	0.14000 0.36170 0.96980 0.06500
C 	C 	0.18057 0.41294 0.03254 -0.06200
C 	C 	0.16290 0.43050 0.21716 -0.06200
C 	C 	0.14635 0.22678 0.12377 -0.07700
H 	H 	0.17270 0.20730 0.12450 0.06400
C 	C 	0.14633 0.27323 0.12367 -0.07300
H 	H 	0.17270 0.29270 0.12410 0.06200
C 	C 	0.17109 0.45869 0.31726 0.32200
C 	C 	0.20855 0.42119 0.93245 0.32400
Na	Na	0.75001 0.04559 0.74999 0.59700
O 	O 	0.80452 0.00603 0.30949 -0.35300
O 	O 	0.75619 0.05439 0.94024 -0.35500
O 	O 	0.84579 0.05428 0.40398 -0.28700
O 	O 	0.80428 0.09581 0.84597 -0.29000
N 	N 	0.92966 0.24992 0.12113 -0.33600
C 	C 	0.87946 0.12941 0.12501 0.06700
C 	C 	0.96210 0.15141 0.12738 0.09400
C 	C 	0.90153 0.21205 0.12276 0.08800
C 	C 	0.91618 0.16617 0.12502 -0.13900
C 	C 	0.81182 0.06179 0.12510 0.00500
H 	H 	0.78860 0.03860 0.12520 0.03800
C 	C 	0.87097 0.10399 0.21617 -0.06600
H 	H 	0.88830 0.10990 0.27960 0.07000
C 	C 	0.85405 0.12098 0.03324 -0.06400
H 	H 	0.86000 0.13830 0.96980 0.06800
C 	C 	0.81943 0.08706 0.03254 -0.05800
C 	C 	0.83710 0.06950 0.21716 -0.05700
C 	C 	0.85365 0.27322 0.12377 -0.07100
H 	H 	0.82730 0.29270 0.12450 0.06300
C 	C 	0.85367 0.22677 0.12367 -0.07600
H 	H 	0.82730 0.20730 0.12410 0.06400
C 	C 	0.82891 0.04131 0.31726 0.32100
C 	C 	0.79145 0.07881 0.93245 0.32200
Na	Na	0.25001 0.54559 0.24999 0.59700
O 	O 	0.30452 0.50603 0.80949 -0.35500
O 	O 	0.25619 0.55439 0.44024 -0.35600
O 	O 	0.34579 0.55428 0.90398 -0.29100
O 	O 	0.30428 0.59581 0.34597 -0.29200
N 	N 	0.42966 0.74992 0.62113 -0.34400
C 	C 	0.37946 0.62941 0.62501 0.06500
C 	C 	0.46210 0.65141 0.62738 0.08200
C 	C 	0.40153 0.71205 0.62276 0.08300
C 	C 	0.41618 0.66617 0.62502 -0.13900
C 	C 	0.31182 0.56179 0.62510 0.00600
H 	H 	0.28860 0.53860 0.62520 0.03700
C 	C 	0.37097 0.60399 0.71617 -0.06600
H 	H 	0.38830 0.60990 0.77960 0.06700
C 	C 	0.35405 0.62098 0.53324 -0.06500
H 	H 	0.36000 0.63830 0.46980 0.06700
C 	C 	0.31943 0.58706 0.53254 -0.06100
C 	C 	0.33710 0.56950 0.71716 -0.05900
C 	C 	0.35365 0.77322 0.62377 -0.07400
H 	H 	0.32730 0.79270 0.62450 0.06300
C 	C 	0.35367 0.72677 0.62367 -0.07500
H 	H 	0.32730 0.70730 0.62410 0.06300
C 	C 	0.32891 0.54131 0.81726 0.32200
C 	C 	0.29145 0.57881 0.43245 0.32300
Na	Na	0.29559 0.99999 0.00001 0.59700
O 	O 	0.25603 0.94548 0.44051 -0.35500
O 	O 	0.30439 0.99381 0.80976 -0.35500
O 	O 	0.30428 0.90421 0.34602 -0.29100
O 	O 	0.34581 0.94572 0.90403 -0.29200
N 	N 	0.49992 0.82034 0.62887 -0.34400
C 	C 	0.37941 0.87054 0.62499 0.06500
C 	C 	0.40141 0.78790 0.62262 0.08200
C 	C 	0.46205 0.84847 0.62724 0.08300
C 	C 	0.41617 0.83382 0.62498 -0.14000
C 	C 	0.31179 0.93818 0.62490 0.00600
H 	H 	0.28860 0.96140 0.62480 0.03700
C 	C 	0.35399 0.87903 0.53383 -0.06600
H 	H 	0.35990 0.86170 0.47040 0.06700
C 	C 	0.37098 0.89595 0.71676 -0.06500
H 	H 	0.38830 0.89000 0.78020 0.06700
C 	C 	0.33706 0.93057 0.71746 -0.06000
C 	C 	0.31950 0.91290 0.53284 -0.05900
C 	C 	0.52322 0.89635 0.62623 -0.07400
H 	H 	0.54270 0.92270 0.62550 0.06300
C 	C 	0.47677 0.89633 0.62633 -0.07500
H 	H 	0.45730 0.92270 0.62590 0.06300
C 	C 	0.29131 0.92109 0.43274 0.32200
C 	C 	0.32881 0.95855 0.81755 0.32300
Na	Na	0.79559 0.49999 0.50001 0.59700
O 	O 	0.75603 0.44548 0.94051 -0.35500
O 	O 	0.80439 0.49381 0.30976 -0.35400
O 	O 	0.80428 0.40421 0.84602 -0.28900
O 	O 	0.84581 0.44572 0.40403 -0.28900
N 	N 	0.99992 0.32034 0.12887 -0.32000
C 	C 	0.87941 0.37054 0.12499 0.06300
C 	C 	0.90141 0.28790 0.12262 0.08100
C 	C 	0.96205 0.34847 0.12724 0.07100
C 	C 	0.91617 0.33382 0.12498 -0.13000
C 	C 	0.81179 0.43818 0.12490 0.00700
H 	H 	0.78860 0.46140 0.12480 0.03700
C 	C 	0.85399 0.37903 0.03383 -0.06300
H 	H 	0.85990 0.36170 0.97040 0.06800
C 	C 	0.87098 0.39595 0.21676 -0.06300
H 	H 	0.88830 0.39000 0.28020 0.06900
C 	C 	0.83706 0.43057 0.21746 -0.05900
C 	C 	0.81950 0.41290 0.03284 -0.05900
C 	C 	0.02322 0.39635 0.12623 -0.13100
H 	H 	0.04270 0.42270 0.12550 0.07600
C 	C 	0.97677 0.39633 0.12633 -0.01200
H 	H 	0.95730 0.42270 0.12590 0.04900
C 	C 	0.79131 0.42109 0.93274 0.32200
C 	C 	0.82881 0.45855 0.31755 0.32400
Na	Na	0.20441 0.00001 0.50001 0.59700
O 	O 	0.24397 0.05452 0.94051 -0.35500
O 	O 	0.19561 0.00619 0.30976 -0.35600
O 	O 	0.19572 0.09579 0.84602 -0.29300
O 	O 	0.15419 0.05428 0.40403 -0.29500
N 	N 	0.00008 0.17966 0.12887 -0.36300
C 	C 	0.12059 0.12946 0.12499 0.06700
C 	C 	0.09859 0.21210 0.12262 0.08300
C 	C 	0.03795 0.15153 0.12724 0.09500
C 	C 	0.08383 0.16618 0.12498 -0.14800
C 	C 	0.18821 0.06182 0.12490 0.00600
H 	H 	0.21140 0.03860 0.12480 0.03700
C 	C 	0.14601 0.12097 0.03383 -0.06600
H 	H 	0.14010 0.13830 0.97040 0.06500
C 	C 	0.12902 0.10405 0.21676 -0.06600
H 	H 	0.11170 0.11000 0.28020 0.06500
C 	C 	0.16294 0.06943 0.21746 -0.06200
C 	C 	0.18050 0.08710 0.03284 -0.05900
C 	C 	0.97678 0.10365 0.12623 -0.01800
H 	H 	0.95730 0.07730 0.12550 0.05100
C 	C 	0.02323 0.10367 0.12633 -0.13600
H 	H 	0.04270 0.07730 0.12590 0.07800
C 	C 	0.20869 0.07891 0.93274 0.32100
C 	C 	0.17119 0.04145 0.31755 0.32300
Na	Na	0.70441 0.50001 0.00001 0.59700
O 	O 	0.74397 0.55452 0.44051 -0.35400
O 	O 	0.69561 0.50619 0.80976 -0.35500
O 	O 	0.69572 0.59579 0.34602 -0.29100
O 	O 	0.65419 0.55428 0.90403 -0.29200
N 	N 	0.50008 0.67966 0.62887 -0.34400
C 	C 	0.62059 0.62946 0.62499 0.06500
C 	C 	0.59859 0.71210 0.62262 0.08200
C 	C 	0.53795 0.65153 0.62724 0.08300
C 	C 	0.58383 0.66618 0.62498 -0.14000
C 	C 	0.68821 0.56182 0.62490 0.00600
H 	H 	0.71140 0.53860 0.62480 0.03700
C 	C 	0.64601 0.62097 0.53383 -0.06600
H 	H 	0.64010 0.63830 0.47040 0.06700
C 	C 	0.62902 0.60405 0.71676 -0.06500
H 	H 	0.61170 0.61000 0.78020 0.06700
C 	C 	0.66294 0.56943 0.71746 -0.06000
C 	C 	0.68050 0.58710 0.53284 -0.05900
C 	C 	0.47678 0.60365 0.62623 -0.07400
H 	H 	0.45730 0.57730 0.62550 0.06300
C 	C 	0.52323 0.60367 0.62633 -0.07500
H 	H 	0.54270 0.57730 0.62590 0.06300
C 	C 	0.70869 0.57891 0.43274 0.32200
C 	C 	0.67119 0.54145 0.81755 0.32300
Na	Na	0.25001 0.04559 0.75001 0.59700
O 	O 	0.30452 0.00603 0.19051 -0.35400
O 	O 	0.25619 0.05439 0.55976 -0.35600
O 	O 	0.34579 0.05428 0.09602 -0.29100
O 	O 	0.30428 0.09581 0.65403 -0.29200
N 	N 	0.42966 0.24992 0.37887 -0.34400
C 	C 	0.37946 0.12941 0.37499 0.06500
C 	C 	0.46210 0.15141 0.37262 0.08200
C 	C 	0.40153 0.21205 0.37724 0.08300
C 	C 	0.41618 0.16617 0.37498 -0.14000
C 	C 	0.31182 0.06179 0.37490 0.00600
H 	H 	0.28860 0.03860 0.37480 0.03700
C 	C 	0.37097 0.10399 0.28383 -0.06600
H 	H 	0.38830 0.10990 0.22040 0.06700
C 	C 	0.35405 0.12098 0.46676 -0.06500
H 	H 	0.36000 0.13830 0.53020 0.06700
C 	C 	0.31943 0.08706 0.46746 -0.06100
C 	C 	0.33710 0.06950 0.28284 -0.05900
C 	C 	0.35365 0.27322 0.37623 -0.07400
H 	H 	0.32730 0.29270 0.37550 0.06300
C 	C 	0.35367 0.22677 0.37633 -0.07500
H 	H 	0.32730 0.20730 0.37590 0.06300
C 	C 	0.32891 0.04131 0.18274 0.32200
C 	C 	0.29145 0.07881 0.56755 0.32300
Na	Na	0.75001 0.54559 0.25001 0.59700
O 	O 	0.80452 0.50603 0.69051 -0.35300
O 	O 	0.75619 0.55439 0.05976 -0.35500
O 	O 	0.84579 0.55428 0.59602 -0.28700
O 	O 	0.80428 0.59581 0.15403 -0.29000
N 	N 	0.92966 0.74992 0.87887 -0.33600
C 	C 	0.87946 0.62941 0.87499 0.06700
C 	C 	0.96210 0.65141 0.87262 0.09400
C 	C 	0.90153 0.71205 0.87724 0.08800
C 	C 	0.91618 0.66617 0.87498 -0.13900
C 	C 	0.81182 0.56179 0.87490 0.00500
H 	H 	0.78860 0.53860 0.87480 0.03800
C 	C 	0.87097 0.60399 0.78383 -0.06600
H 	H 	0.88830 0.60990 0.72040 0.07000
C 	C 	0.85405 0.62098 0.96676 -0.06500
H 	H 	0.86000 0.63830 0.03020 0.06900
C 	C 	0.81943 0.58706 0.96746 -0.05800
C 	C 	0.83710 0.56950 0.78284 -0.05700
C 	C 	0.85365 0.77322 0.87623 -0.07100
H 	H 	0.82730 0.79270 0.87550 0.06300
C 	C 	0.85367 0.72677 0.87633 -0.07600
H 	H 	0.82730 0.70730 0.87590 0.06400
C 	C 	0.82891 0.54131 0.68274 0.32100
C 	C 	0.79145 0.57881 0.06755 0.32300
Na	Na	0.24999 0.95441 0.25001 0.59700
O 	O 	0.19548 0.99397 0.69051 -0.35600
O 	O 	0.24381 0.94561 0.05976 -0.35600
O 	O 	0.15421 0.94572 0.59602 -0.29400
O 	O 	0.19572 0.90419 0.15403 -0.29400
N 	N 	0.07034 0.75008 0.87887 -0.34700
C 	C 	0.12054 0.87059 0.87499 0.06300
C 	C 	0.03790 0.84859 0.87262 0.07000
C 	C 	0.09847 0.78795 0.87724 0.07800
C 	C 	0.08382 0.83383 0.87498 -0.13800
C 	C 	0.18818 0.93821 0.87490 0.00700
H 	H 	0.21140 0.96140 0.87480 0.03700
C 	C 	0.12903 0.89601 0.78383 -0.06400
H 	H 	0.11170 0.89010 0.72040 0.06400
C 	C 	0.14595 0.87902 0.96676 -0.06200
H 	H 	0.14000 0.86170 0.03020 0.06400
C 	C 	0.18057 0.91294 0.96746 -0.06200
C 	C 	0.16290 0.93050 0.78284 -0.06200
C 	C 	0.14635 0.72678 0.87623 -0.07700
H 	H 	0.17270 0.70730 0.87550 0.06400
C 	C 	0.14633 0.77323 0.87633 -0.07300
H 	H 	0.17270 0.79270 0.87590 0.06200
C 	C 	0.17109 0.95869 0.68274 0.32200
C 	C 	0.20855 0.92119 0.06755 0.32300
Na	Na	0.74999 0.45441 0.75001 0.59700
O 	O 	0.69548 0.49397 0.19051 -0.35500
O 	O 	0.74381 0.44561 0.55976 -0.35500
O 	O 	0.65421 0.44572 0.09602 -0.29100
O 	O 	0.69572 0.40419 0.65403 -0.29200
N 	N 	0.57034 0.25008 0.37887 -0.34400
C 	C 	0.62054 0.37059 0.37499 0.06500
C 	C 	0.53790 0.34859 0.37262 0.08200
C 	C 	0.59847 0.28795 0.37724 0.08300
C 	C 	0.58382 0.33383 0.37498 -0.14000
C 	C 	0.68818 0.43821 0.37490 0.00600
H 	H 	0.71140 0.46140 0.37480 0.03700
C 	C 	0.62903 0.39601 0.28383 -0.06600
H 	H 	0.61170 0.39010 0.22040 0.06700
C 	C 	0.64595 0.37902 0.46676 -0.06500
H 	H 	0.64000 0.36170 0.53020 0.06700
C 	C 	0.68057 0.41294 0.46746 -0.06000
C 	C 	0.66290 0.43050 0.28284 -0.05900
C 	C 	0.64635 0.22678 0.37623 -0.07400
H 	H 	0.67270 0.20730 0.37550 0.06300
C 	C 	0.64633 0.27323 0.37633 -0.07500
H 	H 	0.67270 0.29270 0.37590 0.06300
C 	C 	0.67109 0.45869 0.18274 0.32200
C 	C 	0.70855 0.42119 0.56755 0.32300
Zn	Zn	0.50000 0.25000 0.34511 0.79800
Zn	Zn	0.00000 0.75000 0.84511 0.79200
Zn	Zn	0.50000 0.75000 0.59511 0.79800
Zn	Zn	0.00000 0.25000 0.09511 0.79200
Zn	Zn	0.50000 0.75000 0.65489 0.79800
Zn	Zn	0.00000 0.25000 0.15489 0.79200
Zn	Zn	0.50000 0.25000 0.40489 0.79800
Zn	Zn	0.00000 0.75000 0.90489 0.79200
