data_crystal

_cell_length_a 28.69100
_cell_length_b 29.06100
_cell_length_c 12.49180
_cell_angle_alpha 90.00000
_cell_angle_beta  90.00000
_cell_angle_gamma 90.00000

_symmetry_space_group_name_	'P 1'
_symmetry_space_group_name_H-M	'P 1'

loop_
_symmetry_equiv_pos_as_xyz
  x,y,z

loop_
_atom_site_label
_atom_site_type_symbol
_atom_site_fract_x
_atom_site_fract_y
_atom_site_fract_z
_atom_site_charge
O 	O 	0.69617 0.49070 0.81062 -0.35200
O 	O 	0.74503 0.44708 0.44129 -0.34700
O 	O 	0.65472 0.44146 0.90130 -0.28100
O 	O 	0.69651 0.40637 0.34515 -0.29300
C 	C 	0.66367 0.42836 0.71470 -0.05200
C 	C 	0.62114 0.36951 0.62046 0.06600
C 	C 	0.68921 0.43755 0.62350 -0.00000
H 	H 	0.71240 0.46090 0.62450 0.04200
C 	C 	0.68126 0.41316 0.53169 -0.05300
C 	C 	0.53792 0.34678 0.61942 0.09600
C 	C 	0.59800 0.28754 0.61641 0.09600
C 	C 	0.58420 0.33290 0.61844 -0.12600
C 	C 	0.62989 0.39408 0.71296 -0.06700
H 	H 	0.61260 0.38750 0.77600 0.07400
C 	C 	0.64689 0.37907 0.52918 -0.06700
H 	H 	0.64120 0.36250 0.46500 0.06900
C 	C 	0.64588 0.27310 0.61814 -0.07500
H 	H 	0.67250 0.29250 0.61910 0.06600
C 	C 	0.52343 0.39367 0.62003 -0.07600
H 	H 	0.54310 0.41990 0.62040 0.06600
C 	C 	0.67219 0.45531 0.81713 0.32600
C 	C 	0.70940 0.42301 0.43197 0.31700
O 	O 	0.19617 0.99070 0.31062 -0.34700
O 	O 	0.24503 0.94708 0.94129 -0.32800
O 	O 	0.15472 0.94146 0.40130 -0.28700
O 	O 	0.19651 0.90637 0.84515 -0.28200
C 	C 	0.16367 0.92836 0.21470 -0.04400
C 	C 	0.12114 0.86951 0.12046 0.09000
C 	C 	0.18921 0.93755 0.12350 -0.00600
H 	H 	0.21240 0.96090 0.12450 0.04300
C 	C 	0.18126 0.91316 0.03169 -0.05600
C 	C 	0.03792 0.84678 0.11942 0.10300
C 	C 	0.09800 0.78754 0.11641 0.09700
C 	C 	0.08420 0.83290 0.11844 -0.14200
C 	C 	0.12989 0.89408 0.21296 -0.08200
H 	H 	0.11260 0.88750 0.27600 0.07700
C 	C 	0.14689 0.87907 0.02918 -0.12700
H 	H 	0.14120 0.86250 0.96500 0.11400
C 	C 	0.14588 0.77310 0.11814 -0.07900
H 	H 	0.17250 0.79250 0.11910 0.06300
C 	C 	0.02343 0.89367 0.12003 -0.10100
H 	H 	0.04310 0.91990 0.12040 0.07100
C 	C 	0.17219 0.95531 0.31713 0.32200
C 	C 	0.20940 0.92301 0.93197 0.33700
O 	O 	0.30383 0.00930 0.81062 -0.36400
O 	O 	0.25497 0.05292 0.44129 -0.35700
O 	O 	0.34528 0.05854 0.90130 -0.28800
O 	O 	0.30349 0.09363 0.34515 -0.29800
C 	C 	0.33633 0.07164 0.71470 -0.05700
C 	C 	0.37886 0.13049 0.62046 0.06300
C 	C 	0.31079 0.06245 0.62350 0.00300
H 	H 	0.28760 0.03910 0.62450 0.03700
C 	C 	0.31874 0.08684 0.53169 -0.05800
C 	C 	0.46208 0.15322 0.61942 0.09500
C 	C 	0.40200 0.21246 0.61641 0.09500
C 	C 	0.41580 0.16710 0.61844 -0.12600
C 	C 	0.37011 0.10592 0.71296 -0.06500
H 	H 	0.38740 0.11250 0.77600 0.07200
C 	C 	0.35311 0.12093 0.52918 -0.06600
H 	H 	0.35880 0.13750 0.46500 0.06800
C 	C 	0.35412 0.22690 0.61814 -0.07500
H 	H 	0.32750 0.20750 0.61910 0.06600
C 	C 	0.47657 0.10633 0.62003 -0.07700
H 	H 	0.45690 0.08010 0.62040 0.06300
C 	C 	0.32781 0.04469 0.81713 0.32900
C 	C 	0.29060 0.07699 0.43197 0.31800
O 	O 	0.80383 0.50930 0.31062 -0.35900
O 	O 	0.75497 0.55292 0.94129 -0.33700
O 	O 	0.84528 0.55854 0.40130 -0.29200
O 	O 	0.80349 0.59363 0.84515 -0.28600
C 	C 	0.83633 0.57164 0.21470 -0.04900
C 	C 	0.87886 0.63049 0.12046 0.08800
C 	C 	0.81079 0.56245 0.12350 -0.00300
H 	H 	0.78760 0.53910 0.12450 0.03800
C 	C 	0.81874 0.58684 0.03169 -0.06100
C 	C 	0.96208 0.65322 0.11942 0.10100
C 	C 	0.90200 0.71246 0.11641 0.09800
C 	C 	0.91580 0.66710 0.11844 -0.13800
C 	C 	0.87011 0.60592 0.21296 -0.07900
H 	H 	0.88740 0.61250 0.27600 0.07600
C 	C 	0.85311 0.62093 0.02918 -0.12600
H 	H 	0.85880 0.63750 0.96500 0.11400
C 	C 	0.85412 0.72690 0.11814 -0.07900
H 	H 	0.82750 0.70750 0.11910 0.06300
C 	C 	0.97657 0.60633 0.12003 -0.05900
H 	H 	0.95690 0.58010 0.12040 0.05800
C 	C 	0.82781 0.54469 0.31713 0.32500
C 	C 	0.79060 0.57699 0.93197 0.33900
O 	O 	0.30383 0.99070 0.18938 -0.35100
O 	O 	0.25497 0.94708 0.55871 -0.33600
O 	O 	0.34528 0.94146 0.09870 -0.29800
O 	O 	0.30349 0.90637 0.65485 -0.27900
C 	C 	0.33633 0.92836 0.28530 -0.05100
C 	C 	0.37886 0.86951 0.37954 0.06700
C 	C 	0.31079 0.93755 0.37650 -0.00200
H 	H 	0.28760 0.96090 0.37550 0.04700
C 	C 	0.31874 0.91316 0.46831 -0.04600
C 	C 	0.46208 0.84678 0.38058 0.09600
C 	C 	0.40200 0.78754 0.38359 0.09600
C 	C 	0.41580 0.83290 0.38156 -0.12700
C 	C 	0.37011 0.89408 0.28704 -0.06800
H 	H 	0.38740 0.88750 0.22400 0.06900
C 	C 	0.35311 0.87907 0.47082 -0.06900
H 	H 	0.35880 0.86250 0.53500 0.07500
C 	C 	0.35412 0.77310 0.38186 -0.07600
H 	H 	0.32750 0.79250 0.38090 0.06500
C 	C 	0.47657 0.89367 0.37997 -0.07600
H 	H 	0.45690 0.91990 0.37960 0.06800
C 	C 	0.32781 0.95531 0.18287 0.32600
C 	C 	0.29060 0.92301 0.56803 0.31500
O 	O 	0.80383 0.49070 0.68938 -0.35800
O 	O 	0.75497 0.44708 0.05871 -0.35500
O 	O 	0.84528 0.44146 0.59870 -0.29400
O 	O 	0.80349 0.40637 0.15485 -0.28900
C 	C 	0.83633 0.42836 0.78530 -0.05800
C 	C 	0.87886 0.36951 0.87954 0.04300
C 	C 	0.81079 0.43755 0.87650 0.00300
H 	H 	0.78760 0.46090 0.87550 0.04700
C 	C 	0.81874 0.41316 0.96831 -0.04200
C 	C 	0.96208 0.34678 0.88058 0.09800
C 	C 	0.90200 0.28754 0.88359 0.09600
C 	C 	0.91580 0.33290 0.88156 -0.11400
C 	C 	0.87011 0.39408 0.78704 -0.05300
H 	H 	0.88740 0.38750 0.72400 0.06700
C 	C 	0.85311 0.37907 0.97082 -0.00800
H 	H 	0.85880 0.36250 0.03500 0.02900
C 	C 	0.85412 0.27310 0.88186 -0.07200
H 	H 	0.82750 0.29250 0.88090 0.06800
C 	C 	0.97657 0.39367 0.87997 -0.05300
H 	H 	0.95690 0.41990 0.87960 0.06400
C 	C 	0.82781 0.45531 0.68287 0.33000
C 	C 	0.79060 0.42301 0.06803 0.29400
O 	O 	0.69617 0.50930 0.18938 -0.36400
O 	O 	0.74503 0.55292 0.55871 -0.34600
O 	O 	0.65472 0.55854 0.09870 -0.30600
O 	O 	0.69651 0.59363 0.65485 -0.28400
C 	C 	0.66367 0.57164 0.28530 -0.05700
C 	C 	0.62114 0.63049 0.37954 0.06400
C 	C 	0.68921 0.56245 0.37650 0.00100
H 	H 	0.71240 0.53910 0.37550 0.04100
C 	C 	0.68126 0.58684 0.46831 -0.05200
C 	C 	0.53792 0.65322 0.38058 0.09500
C 	C 	0.59800 0.71246 0.38359 0.09500
C 	C 	0.58420 0.66710 0.38156 -0.12600
C 	C 	0.62989 0.60592 0.28704 -0.06500
H 	H 	0.61260 0.61250 0.22400 0.06700
C 	C 	0.64689 0.62093 0.47082 -0.06700
H 	H 	0.64120 0.63750 0.53500 0.07400
C 	C 	0.64588 0.72690 0.38186 -0.07500
H 	H 	0.67250 0.70750 0.38090 0.06600
C 	C 	0.52343 0.60633 0.37997 -0.07700
H 	H 	0.54310 0.58010 0.37960 0.06500
C 	C 	0.67219 0.54469 0.18287 0.32900
C 	C 	0.70940 0.57699 0.56803 0.31600
O 	O 	0.19617 0.00930 0.68938 -0.37000
O 	O 	0.24503 0.05292 0.05871 -0.36400
O 	O 	0.15472 0.05854 0.59870 -0.30300
O 	O 	0.19651 0.09363 0.15485 -0.29600
C 	C 	0.16367 0.07164 0.78530 -0.06500
C 	C 	0.12114 0.13049 0.87954 0.04000
C 	C 	0.18921 0.06245 0.87650 0.00600
H 	H 	0.21240 0.03910 0.87550 0.04200
C 	C 	0.18126 0.08684 0.96831 -0.04800
C 	C 	0.03792 0.15322 0.88058 0.09800
C 	C 	0.09800 0.21246 0.88359 0.09400
C 	C 	0.08420 0.16710 0.88156 -0.11600
C 	C 	0.12989 0.10592 0.78704 -0.05100
H 	H 	0.11260 0.11250 0.72400 0.06300
C 	C 	0.14689 0.12093 0.97082 -0.00600
H 	H 	0.14120 0.13750 0.03500 0.02600
C 	C 	0.14588 0.22690 0.88186 -0.07200
H 	H 	0.17250 0.20750 0.88090 0.06800
C 	C 	0.02343 0.10633 0.87997 -0.09600
H 	H 	0.04310 0.08010 0.87960 0.07000
C 	C 	0.17219 0.04469 0.68287 0.33300
C 	C 	0.20940 0.07699 0.06803 0.29400
O 	O 	0.30383 0.50930 0.18938 -0.36400
O 	O 	0.25497 0.55292 0.55871 -0.34600
O 	O 	0.34528 0.55854 0.09870 -0.30600
O 	O 	0.30349 0.59363 0.65485 -0.28400
C 	C 	0.33633 0.57164 0.28530 -0.05700
C 	C 	0.37886 0.63049 0.37954 0.06400
C 	C 	0.31079 0.56245 0.37650 0.00100
H 	H 	0.28760 0.53910 0.37550 0.04100
C 	C 	0.31874 0.58684 0.46831 -0.05200
C 	C 	0.46208 0.65322 0.38058 0.09500
C 	C 	0.40200 0.71246 0.38359 0.09500
C 	C 	0.41580 0.66710 0.38156 -0.12600
C 	C 	0.37011 0.60592 0.28704 -0.06500
H 	H 	0.38740 0.61250 0.22400 0.06700
C 	C 	0.35311 0.62093 0.47082 -0.06700
H 	H 	0.35880 0.63750 0.53500 0.07400
C 	C 	0.35412 0.72690 0.38186 -0.07500
H 	H 	0.32750 0.70750 0.38090 0.06500
C 	C 	0.47657 0.60633 0.37997 -0.07700
H 	H 	0.45690 0.58010 0.37960 0.06500
C 	C 	0.32781 0.54469 0.18287 0.32900
C 	C 	0.29060 0.57699 0.56803 0.31600
O 	O 	0.80383 0.00930 0.68938 -0.36900
O 	O 	0.75497 0.05292 0.05871 -0.36400
O 	O 	0.84528 0.05854 0.59870 -0.30100
O 	O 	0.80349 0.09363 0.15485 -0.29400
C 	C 	0.83633 0.07164 0.78530 -0.06400
C 	C 	0.87886 0.13049 0.87954 0.04000
C 	C 	0.81079 0.06245 0.87650 0.00600
H 	H 	0.78760 0.03910 0.87550 0.04200
C 	C 	0.81874 0.08684 0.96831 -0.04700
C 	C 	0.96208 0.15322 0.88058 0.09700
C 	C 	0.90200 0.21246 0.88359 0.09600
C 	C 	0.91580 0.16710 0.88156 -0.11300
C 	C 	0.87011 0.10592 0.78704 -0.05100
H 	H 	0.88740 0.11250 0.72400 0.06500
C 	C 	0.85311 0.12093 0.97082 -0.00600
H 	H 	0.85880 0.13750 0.03500 0.02700
C 	C 	0.85412 0.22690 0.88186 -0.07200
H 	H 	0.82750 0.20750 0.88090 0.06800
C 	C 	0.97657 0.10633 0.87997 -0.05400
H 	H 	0.95690 0.08010 0.87960 0.06100
C 	C 	0.82781 0.04469 0.68287 0.33300
C 	C 	0.79060 0.07699 0.06803 0.29400
O 	O 	0.69617 0.99070 0.18938 -0.35100
O 	O 	0.74503 0.94708 0.55871 -0.33600
O 	O 	0.65472 0.94146 0.09870 -0.29800
O 	O 	0.69651 0.90637 0.65485 -0.27900
C 	C 	0.66367 0.92836 0.28530 -0.05100
C 	C 	0.62114 0.86951 0.37954 0.06700
C 	C 	0.68921 0.93755 0.37650 -0.00200
H 	H 	0.71240 0.96090 0.37550 0.04700
C 	C 	0.68126 0.91316 0.46831 -0.04600
C 	C 	0.53792 0.84678 0.38058 0.09600
C 	C 	0.59800 0.78754 0.38359 0.09600
C 	C 	0.58420 0.83290 0.38156 -0.12700
C 	C 	0.62989 0.89408 0.28704 -0.06800
H 	H 	0.61260 0.88750 0.22400 0.06900
C 	C 	0.64689 0.87907 0.47082 -0.06900
H 	H 	0.64120 0.86250 0.53500 0.07500
C 	C 	0.64588 0.77310 0.38186 -0.07600
H 	H 	0.67250 0.79250 0.38090 0.06600
C 	C 	0.52343 0.89367 0.37997 -0.07600
H 	H 	0.54310 0.91990 0.37960 0.06800
C 	C 	0.67219 0.95531 0.18287 0.32600
C 	C 	0.70940 0.92301 0.56803 0.31500
O 	O 	0.19617 0.49070 0.68938 -0.35900
O 	O 	0.24503 0.44708 0.05871 -0.35500
O 	O 	0.15472 0.44146 0.59870 -0.29700
O 	O 	0.19651 0.40637 0.15485 -0.29100
C 	C 	0.16367 0.42836 0.78530 -0.06000
C 	C 	0.12114 0.36951 0.87954 0.04300
C 	C 	0.18921 0.43755 0.87650 0.00300
H 	H 	0.21240 0.46090 0.87550 0.04700
C 	C 	0.18126 0.41316 0.96831 -0.04300
C 	C 	0.03792 0.34678 0.88058 0.09900
C 	C 	0.09800 0.28754 0.88359 0.09500
C 	C 	0.08420 0.33290 0.88156 -0.11700
C 	C 	0.12989 0.39408 0.78704 -0.05400
H 	H 	0.11260 0.38750 0.72400 0.06500
C 	C 	0.14689 0.37907 0.97082 -0.00800
H 	H 	0.14120 0.36250 0.03500 0.02800
C 	C 	0.14588 0.27310 0.88186 -0.07200
H 	H 	0.17250 0.29250 0.88090 0.06800
C 	C 	0.02343 0.39367 0.87997 -0.09500
H 	H 	0.04310 0.41990 0.87960 0.07400
C 	C 	0.17219 0.45531 0.68287 0.33000
C 	C 	0.20940 0.42301 0.06803 0.29400
O 	O 	0.69617 0.00930 0.81062 -0.36400
O 	O 	0.74503 0.05292 0.44129 -0.35600
O 	O 	0.65472 0.05854 0.90130 -0.28800
O 	O 	0.69651 0.09363 0.34515 -0.29800
C 	C 	0.66367 0.07164 0.71470 -0.05700
C 	C 	0.62114 0.13049 0.62046 0.06300
C 	C 	0.68921 0.06245 0.62350 0.00300
H 	H 	0.71240 0.03910 0.62450 0.03700
C 	C 	0.68126 0.08684 0.53169 -0.05800
C 	C 	0.53792 0.15322 0.61942 0.09500
C 	C 	0.59800 0.21246 0.61641 0.09500
C 	C 	0.58420 0.16710 0.61844 -0.12600
C 	C 	0.62989 0.10592 0.71296 -0.06500
H 	H 	0.61260 0.11250 0.77600 0.07200
C 	C 	0.64689 0.12093 0.52918 -0.06600
H 	H 	0.64120 0.13750 0.46500 0.06800
C 	C 	0.64588 0.22690 0.61814 -0.07500
H 	H 	0.67250 0.20750 0.61910 0.06600
C 	C 	0.52343 0.10633 0.62003 -0.07700
H 	H 	0.54310 0.08010 0.62040 0.06300
C 	C 	0.67219 0.04469 0.81713 0.32900
C 	C 	0.70940 0.07699 0.43197 0.31800
O 	O 	0.19617 0.50930 0.31062 -0.36000
O 	O 	0.24503 0.55292 0.94129 -0.33700
O 	O 	0.15472 0.55854 0.40130 -0.29400
O 	O 	0.19651 0.59363 0.84515 -0.28700
C 	C 	0.16367 0.57164 0.21470 -0.05000
C 	C 	0.12114 0.63049 0.12046 0.08800
C 	C 	0.18921 0.56245 0.12350 -0.00300
H 	H 	0.21240 0.53910 0.12450 0.03700
C 	C 	0.18126 0.58684 0.03169 -0.06200
C 	C 	0.03792 0.65322 0.11942 0.10200
C 	C 	0.09800 0.71246 0.11641 0.09700
C 	C 	0.08420 0.66710 0.11844 -0.14200
C 	C 	0.12989 0.60592 0.21296 -0.08000
H 	H 	0.11260 0.61250 0.27600 0.07500
C 	C 	0.14689 0.62093 0.02918 -0.12600
H 	H 	0.14120 0.63750 0.96500 0.11300
C 	C 	0.14588 0.72690 0.11814 -0.07900
H 	H 	0.17250 0.70750 0.11910 0.06300
C 	C 	0.02343 0.60633 0.12003 -0.10200
H 	H 	0.04310 0.58010 0.12040 0.06700
C 	C 	0.17219 0.54469 0.31713 0.32500
C 	C 	0.20940 0.57699 0.93197 0.33900
O 	O 	0.30383 0.49070 0.81062 -0.35300
O 	O 	0.25497 0.44708 0.44129 -0.34800
O 	O 	0.34528 0.44146 0.90130 -0.28200
O 	O 	0.30349 0.40637 0.34515 -0.29300
C 	C 	0.33633 0.42836 0.71470 -0.05200
C 	C 	0.37886 0.36951 0.62046 0.06600
C 	C 	0.31079 0.43755 0.62350 -0.00000
H 	H 	0.28760 0.46090 0.62450 0.04200
C 	C 	0.31874 0.41316 0.53169 -0.05300
C 	C 	0.46208 0.34678 0.61942 0.09600
C 	C 	0.40200 0.28754 0.61641 0.09600
C 	C 	0.41580 0.33290 0.61844 -0.12600
C 	C 	0.37011 0.39408 0.71296 -0.06700
H 	H 	0.38740 0.38750 0.77600 0.07400
C 	C 	0.35311 0.37907 0.52918 -0.06700
H 	H 	0.35880 0.36250 0.46500 0.06900
C 	C 	0.35412 0.27310 0.61814 -0.07500
H 	H 	0.32750 0.29250 0.61910 0.06600
C 	C 	0.47657 0.39367 0.62003 -0.07600
H 	H 	0.45690 0.41990 0.62040 0.06600
C 	C 	0.32781 0.45531 0.81713 0.32600
C 	C 	0.29060 0.42301 0.43197 0.31700
O 	O 	0.80383 0.99070 0.31062 -0.34600
O 	O 	0.75497 0.94708 0.94129 -0.32800
O 	O 	0.84528 0.94146 0.40130 -0.28500
O 	O 	0.80349 0.90637 0.84515 -0.28100
C 	C 	0.83633 0.92836 0.21470 -0.04300
C 	C 	0.87886 0.86951 0.12046 0.09000
C 	C 	0.81079 0.93755 0.12350 -0.00600
H 	H 	0.78760 0.96090 0.12450 0.04300
C 	C 	0.81874 0.91316 0.03169 -0.05500
C 	C 	0.96208 0.84678 0.11942 0.10200
C 	C 	0.90200 0.78754 0.11641 0.09900
C 	C 	0.91580 0.83290 0.11844 -0.13900
C 	C 	0.87011 0.89408 0.21296 -0.08200
H 	H 	0.88740 0.88750 0.27600 0.07900
C 	C 	0.85311 0.87907 0.02918 -0.12700
H 	H 	0.85880 0.86250 0.96500 0.11500
C 	C 	0.85412 0.77310 0.11814 -0.07900
H 	H 	0.82750 0.79250 0.11910 0.06400
C 	C 	0.97657 0.89367 0.12003 -0.05900
H 	H 	0.95690 0.91990 0.12040 0.06100
C 	C 	0.82781 0.95531 0.31713 0.32100
C 	C 	0.79060 0.92301 0.93197 0.33700
Co	Co	0.50000 0.25000 0.61796 1.10800
Co	Co	-0.00000 0.75000 0.11796 1.10400
Co	Co	0.50000 0.75000 0.38204 1.10800
Co	Co	-0.00000 0.25000 0.88204 1.10600
Na	Na	0.80072 0.50000 0.50000 0.59600
Na	Na	0.30072 0.00000 -0.00000 0.58800
Na	Na	0.19928 0.00000 0.50000 0.59300
Na	Na	0.69928 0.50000 -0.00000 0.59200
Na	Na	0.19928 0.50000 0.50000 0.59600
Na	Na	0.69928 0.00000 -0.00000 0.58800
Na	Na	0.80072 0.00000 0.50000 0.59300
Na	Na	0.30072 0.50000 -0.00000 0.59200
Na	Na	0.75000 0.54295 0.75000 0.59700
Na	Na	0.25000 0.95705 0.75000 0.60000
Na	Na	0.25000 0.04295 0.25000 0.59300
Na	Na	0.75000 0.45705 0.25000 0.59700
Na	Na	0.25000 0.45705 0.25000 0.59700
Na	Na	0.75000 0.04295 0.25000 0.59300
Na	Na	0.75000 0.95705 0.75000 0.60000
Na	Na	0.25000 0.54295 0.75000 0.59700
N 	N 	0.50000 0.31795 0.62002 -0.28300
N 	N 	-0.00000 0.81795 0.12002 -0.29100
N 	N 	0.50000 0.18205 0.62002 -0.28300
N 	N 	-0.00000 0.68205 0.12002 -0.29100
N 	N 	0.50000 0.81795 0.37998 -0.28300
N 	N 	-0.00000 0.31795 0.87998 -0.28700
N 	N 	0.50000 0.68205 0.37998 -0.28300
N 	N 	-0.00000 0.18205 0.87998 -0.28700
N 	N 	0.56891 0.25000 0.61572 -0.28200
N 	N 	0.06891 0.75000 0.11572 -0.28500
N 	N 	0.43109 0.25000 0.61572 -0.28200
N 	N 	0.93109 0.75000 0.11572 -0.28100
N 	N 	0.43109 0.75000 0.38428 -0.28200
N 	N 	0.93109 0.25000 0.88428 -0.27700
N 	N 	0.56891 0.75000 0.38428 -0.28200
N 	N 	0.06891 0.25000 0.88428 -0.28100
