data_crystal

_cell_length_a 14.88580
_cell_length_b 23.05500
_cell_length_c 17.78340
_cell_angle_alpha 90.00000
_cell_angle_beta  108.90500
_cell_angle_gamma 90.00000

_symmetry_space_group_name_	'P 1'
_symmetry_space_group_name_H-M	'P 1'

loop_
_symmetry_equiv_pos_as_xyz
  x,y,z

loop_
_atom_site_label
_atom_site_type_symbol
_atom_site_fract_x
_atom_site_fract_y
_atom_site_fract_z
_atom_site_charge
C 	C 	0.64980 0.08160 0.76220 -0.04300
H 	H 	0.62580 0.11920 0.75770 0.05300
C 	C 	0.85710 0.00540 0.73190 0.30500
C 	C 	0.77030 0.01510 0.75490 -0.08000
C 	C 	0.73240 0.07090 0.74600 -0.00600
H 	H 	0.76310 0.10090 0.72920 0.04700
C 	C 	0.72240 0.97060 0.77790 0.01000
H 	H 	0.74750 0.93330 0.78390 0.04900
C 	C 	0.60140 0.03690 0.78520 -0.03200
Zn	Zn	0.55487 0.82018 0.84723 1.21100
Zn	Zn	0.81050 0.79939 0.19252 1.17200
Zn	Zn	0.63302 0.60235 0.68819 1.18500
Zn	Zn	0.00145 0.96277 0.70098 1.21000
O 	O 	0.41580 0.82035 0.81210 -0.44400
O 	O 	0.96850 0.83853 0.68820 -0.32900
O 	O 	0.93810 0.73971 0.78910 -0.37600
O 	O 	0.94680 0.70281 0.67800 -0.40600
O 	O 	0.53480 0.94151 0.85580 -0.30400
O 	O 	0.51020 0.08730 0.85030 -0.42700
O 	O 	0.60380 0.88142 0.79310 -0.44500
N 	N 	0.83600 0.88788 0.23210 -0.23800
N 	N 	0.70860 0.82410 0.08720 -0.25800
N 	N 	0.64790 0.67503 0.75450 -0.26000
N 	N 	0.76560 0.92924 0.22520 -0.26300
O 	O 	0.90080 0.95720 0.75120 -0.43900
N 	N 	0.62210 0.75494 0.81270 -0.28000
O 	O 	0.09090 0.89791 0.72960 -0.46000
N 	N 	0.61150 0.83082 0.96340 -0.29000
O 	O 	0.88320 0.04309 0.69490 -0.35500
N 	N 	0.71700 0.71496 0.75420 -0.25600
O 	O 	0.44090 0.73246 0.86330 -0.33400
N 	N 	0.63960 0.86449 0.08440 -0.25400
O 	O 	0.43260 0.03624 0.74700 -0.37800
N 	N 	0.90250 0.97404 0.26520 -0.28500
N 	N 	0.93940 0.95810 0.58620 -0.36500
C 	C 	0.63780 0.98100 0.79210 -0.05700
C 	C 	0.59430 0.70060 0.79000 0.10800
H 	H 	0.54230 0.68290 0.79850 -0.02200
C 	C 	0.80790 0.97860 0.24440 0.11900
H 	H 	0.77620 0.01350 0.24390 -0.02900
C 	C 	0.91580 0.91700 0.25710 0.10300
H 	H 	0.97540 0.90000 0.26790 -0.00800
C 	C 	0.12070 0.79840 0.75410 -0.07200
C 	C 	0.21770 0.80750 0.77440 0.02200
H 	H 	0.23990 0.84340 0.76440 0.05300
C 	C 	0.69880 0.76190 0.78880 0.09600
H 	H 	0.73450 0.79570 0.79600 -0.02600
C 	C 	0.68840 0.80470 0.01400 0.10700
H 	H 	0.72340 0.77630 0.99890 -0.04900
C 	C 	0.05310 0.84770 0.72060 0.34200
C 	C 	0.58450 0.86690 0.01090 0.12500
H 	H 	0.53200 0.89120 0.99320 -0.02000
C 	C 	0.58700 0.93180 0.81620 0.31800
C 	C 	0.15030 0.70100 0.80360 -0.05500
H 	H 	0.12780 0.66510 0.81320 0.06300
C 	C 	0.28170 0.76440 0.80920 -0.08400
C 	C 	0.08670 0.74420 0.76650 -0.01500
C 	C 	0.24710 0.71100 0.82640 0.00300
H 	H 	0.28930 0.68230 0.85320 0.04300
C 	C 	0.98340 0.72920 0.74290 0.29800
C 	C 	0.38650 0.77200 0.83030 0.32100
C 	C 	0.50960 0.05250 0.79630 0.31100
C 	C 	0.81030 0.93600 0.48580 -1.30800
H 	H 	0.76920 0.96910 0.47380 0.40900
H 	H 	0.77310 0.90120 0.47150 0.39500
H 	H 	0.85400 0.93810 0.45630 0.41100
C 	C 	0.85690 0.93510 0.56050 0.46200
C 	C 	0.35020 0.58160 0.73780 -0.04100
H 	H 	0.37420 0.61920 0.74230 0.05400
C 	C 	0.14290 0.50540 0.76810 0.30900
C 	C 	0.22970 0.51510 0.74510 -0.07700
C 	C 	0.26760 0.57090 0.75400 -0.00700
H 	H 	0.23690 0.60090 0.77080 0.04800
C 	C 	0.27760 0.47060 0.72210 0.00800
H 	H 	0.25250 0.43330 0.71610 0.05000
C 	C 	0.39860 0.53690 0.71480 -0.03200
Zn	Zn	0.44513 0.32018 0.65277 1.21100
Zn	Zn	0.18950 0.29939 0.30748 1.17200
Zn	Zn	0.36698 0.10235 0.81181 1.18500
Zn	Zn	0.99855 0.46277 0.79902 1.21100
O 	O 	0.58420 0.32035 0.68790 -0.44400
O 	O 	0.03150 0.33853 0.81180 -0.33100
O 	O 	0.06190 0.23971 0.71090 -0.37600
O 	O 	0.05320 0.20281 0.82200 -0.40600
O 	O 	0.46520 0.44151 0.64420 -0.30400
O 	O 	0.48980 0.58730 0.64970 -0.42700
O 	O 	0.39620 0.38142 0.70690 -0.44500
N 	N 	0.16400 0.38788 0.26790 -0.23800
N 	N 	0.29140 0.32410 0.41280 -0.25800
N 	N 	0.35210 0.17503 0.74550 -0.26000
N 	N 	0.23440 0.42924 0.27480 -0.26300
O 	O 	0.09920 0.45720 0.74880 -0.44200
N 	N 	0.37790 0.25494 0.68730 -0.28000
O 	O 	0.90910 0.39791 0.77040 -0.46000
N 	N 	0.38850 0.33082 0.53660 -0.28900
O 	O 	0.11680 0.54309 0.80510 -0.35400
N 	N 	0.28300 0.21496 0.74580 -0.25600
O 	O 	0.55910 0.23246 0.63670 -0.33400
N 	N 	0.36040 0.36449 0.41560 -0.25400
O 	O 	0.56740 0.53624 0.75300 -0.37800
N 	N 	0.09750 0.47404 0.23480 -0.28500
N 	N 	0.06060 0.45810 0.91380 -0.36600
C 	C 	0.36220 0.48100 0.70790 -0.05700
C 	C 	0.40570 0.20060 0.71000 0.10800
H 	H 	0.45770 0.18290 0.70150 -0.02200
C 	C 	0.19210 0.47860 0.25560 0.11400
H 	H 	0.22380 0.51350 0.25610 -0.02500
C 	C 	0.08420 0.41700 0.24290 0.10300
H 	H 	0.02460 0.40000 0.23210 -0.00900
C 	C 	0.87930 0.29840 0.74590 -0.07300
C 	C 	0.78230 0.30750 0.72560 0.02200
H 	H 	0.76010 0.34340 0.73560 0.05300
C 	C 	0.30120 0.26190 0.71120 0.09600
H 	H 	0.26550 0.29570 0.70400 -0.02600
C 	C 	0.31160 0.30470 0.48600 0.10700
H 	H 	0.27660 0.27630 0.50110 -0.04900
C 	C 	0.94690 0.34770 0.77940 0.34400
C 	C 	0.41550 0.36690 0.48910 0.12400
H 	H 	0.46800 0.39120 0.50680 -0.02000
C 	C 	0.41300 0.43180 0.68380 0.31800
C 	C 	0.84970 0.20100 0.69640 -0.05500
H 	H 	0.87220 0.16510 0.68680 0.06300
C 	C 	0.71830 0.26440 0.69080 -0.08400
C 	C 	0.91330 0.24420 0.73350 -0.01500
C 	C 	0.75290 0.21100 0.67360 0.00300
H 	H 	0.71070 0.18230 0.64680 0.04300
C 	C 	0.01660 0.22920 0.75710 0.29700
C 	C 	0.61350 0.27200 0.66970 0.32100
C 	C 	0.49040 0.55250 0.70370 0.31100
C 	C 	0.18970 0.43600 0.01420 -1.30400
H 	H 	0.23080 0.46910 0.02620 0.40700
H 	H 	0.22690 0.40120 0.02850 0.39400
H 	H 	0.14600 0.43810 0.04370 0.40900
C 	C 	0.14310 0.43510 0.93950 0.46000
C 	C 	0.35020 0.91840 0.23780 -0.04200
H 	H 	0.37420 0.88080 0.24230 0.05400
C 	C 	0.14290 0.99460 0.26810 0.30600
C 	C 	0.22970 0.98490 0.24510 -0.07900
C 	C 	0.26760 0.92910 0.25400 -0.00600
H 	H 	0.23690 0.89910 0.27080 0.04700
C 	C 	0.27760 0.02940 0.22210 0.01000
H 	H 	0.25250 0.06670 0.21610 0.04900
C 	C 	0.39860 0.96310 0.21480 -0.03200
Zn	Zn	0.44513 0.17982 0.15277 1.21100
Zn	Zn	0.18950 0.20061 0.80748 1.17200
Zn	Zn	0.36698 0.39765 0.31181 1.18500
Zn	Zn	0.99855 0.03723 0.29902 1.21000
O 	O 	0.58420 0.17965 0.18790 -0.44400
O 	O 	0.03150 0.16147 0.31180 -0.32900
O 	O 	0.06190 0.26029 0.21090 -0.37600
O 	O 	0.05320 0.29719 0.32200 -0.40600
O 	O 	0.46520 0.05849 0.14420 -0.30400
O 	O 	0.48980 0.91270 0.14970 -0.42700
O 	O 	0.39620 0.11858 0.20690 -0.44500
N 	N 	0.16400 0.11212 0.76790 -0.23800
N 	N 	0.29140 0.17590 0.91280 -0.25800
N 	N 	0.35210 0.32497 0.24550 -0.26000
N 	N 	0.23440 0.07076 0.77480 -0.26300
O 	O 	0.09920 0.04280 0.24880 -0.43900
N 	N 	0.37790 0.24506 0.18730 -0.28000
O 	O 	0.90910 0.10209 0.27040 -0.46000
N 	N 	0.38850 0.16918 0.03660 -0.29000
O 	O 	0.11680 0.95691 0.30510 -0.35500
N 	N 	0.28300 0.28504 0.24580 -0.25600
O 	O 	0.55910 0.26754 0.13670 -0.33400
N 	N 	0.36040 0.13551 0.91560 -0.25400
O 	O 	0.56740 0.96376 0.25300 -0.37800
N 	N 	0.09750 0.02596 0.73480 -0.28500
N 	N 	0.06060 0.04190 0.41380 -0.36500
C 	C 	0.36220 0.01900 0.20790 -0.05700
C 	C 	0.40570 0.29940 0.21000 0.10800
H 	H 	0.45770 0.31710 0.20150 -0.02200
C 	C 	0.19210 0.02140 0.75560 0.11900
H 	H 	0.22380 0.98650 0.75610 -0.02900
C 	C 	0.08420 0.08300 0.74290 0.10300
H 	H 	0.02460 0.10000 0.73210 -0.00800
C 	C 	0.87930 0.20160 0.24590 -0.07200
C 	C 	0.78230 0.19250 0.22560 0.02200
H 	H 	0.76010 0.15660 0.23560 0.05300
C 	C 	0.30120 0.23810 0.21120 0.09600
H 	H 	0.26550 0.20430 0.20400 -0.02600
C 	C 	0.31160 0.19530 0.98600 0.10700
H 	H 	0.27660 0.22370 0.00110 -0.04900
C 	C 	0.94690 0.15230 0.27940 0.34200
C 	C 	0.41550 0.13310 0.98910 0.12500
H 	H 	0.46800 0.10880 0.00680 -0.02000
C 	C 	0.41300 0.06820 0.18380 0.31800
C 	C 	0.84970 0.29900 0.19640 -0.05500
H 	H 	0.87220 0.33490 0.18680 0.06300
C 	C 	0.71830 0.23560 0.19080 -0.08400
C 	C 	0.91330 0.25580 0.23350 -0.01500
C 	C 	0.75290 0.28900 0.17360 0.00300
H 	H 	0.71070 0.31770 0.14680 0.04300
C 	C 	0.01660 0.27080 0.25710 0.29800
C 	C 	0.61350 0.22800 0.16970 0.32100
C 	C 	0.49040 0.94750 0.20370 0.31100
C 	C 	0.18970 0.06400 0.51420 -1.30800
H 	H 	0.23080 0.03090 0.52620 0.40900
H 	H 	0.22690 0.09880 0.52850 0.39500
H 	H 	0.14600 0.06190 0.54370 0.41100
C 	C 	0.14310 0.06490 0.43950 0.46200
C 	C 	0.64980 0.41840 0.26220 -0.04100
H 	H 	0.62580 0.38080 0.25770 0.05400
C 	C 	0.85710 0.49460 0.23190 0.30900
C 	C 	0.77030 0.48490 0.25490 -0.07700
C 	C 	0.73240 0.42910 0.24600 -0.00700
H 	H 	0.76310 0.39910 0.22920 0.04800
C 	C 	0.72240 0.52940 0.27790 0.00800
H 	H 	0.74750 0.56670 0.28390 0.05000
C 	C 	0.60140 0.46310 0.28520 -0.03200
Zn	Zn	0.55487 0.67982 0.34723 1.21100
Zn	Zn	0.81050 0.70061 0.69252 1.17200
Zn	Zn	0.63302 0.89765 0.18819 1.18500
Zn	Zn	0.00145 0.53723 0.20098 1.21100
O 	O 	0.41580 0.67965 0.31210 -0.44400
O 	O 	0.96850 0.66147 0.18820 -0.33100
O 	O 	0.93810 0.76029 0.28910 -0.37600
O 	O 	0.94680 0.79719 0.17800 -0.40600
O 	O 	0.53480 0.55849 0.35580 -0.30400
O 	O 	0.51020 0.41270 0.35030 -0.42700
O 	O 	0.60380 0.61858 0.29310 -0.44500
N 	N 	0.83600 0.61212 0.73210 -0.23800
N 	N 	0.70860 0.67590 0.58720 -0.25800
N 	N 	0.64790 0.82497 0.25450 -0.26000
N 	N 	0.76560 0.57076 0.72520 -0.26300
O 	O 	0.90080 0.54280 0.25120 -0.44200
N 	N 	0.62210 0.74506 0.31270 -0.28000
O 	O 	0.09090 0.60209 0.22960 -0.46000
N 	N 	0.61150 0.66918 0.46340 -0.28900
O 	O 	0.88320 0.45691 0.19490 -0.35400
N 	N 	0.71700 0.78504 0.25420 -0.25600
O 	O 	0.44090 0.76754 0.36330 -0.33400
N 	N 	0.63960 0.63551 0.58440 -0.25400
O 	O 	0.43260 0.46376 0.24700 -0.37800
N 	N 	0.90250 0.52596 0.76520 -0.28500
N 	N 	0.93940 0.54190 0.08620 -0.36600
C 	C 	0.63780 0.51900 0.29210 -0.05700
C 	C 	0.59430 0.79940 0.29000 0.10800
H 	H 	0.54230 0.81710 0.29850 -0.02200
C 	C 	0.80790 0.52140 0.74440 0.11400
H 	H 	0.77620 0.48650 0.74390 -0.02500
C 	C 	0.91580 0.58300 0.75710 0.10300
H 	H 	0.97540 0.60000 0.76790 -0.00900
C 	C 	0.12070 0.70160 0.25410 -0.07300
C 	C 	0.21770 0.69250 0.27440 0.02200
H 	H 	0.23990 0.65660 0.26440 0.05300
C 	C 	0.69880 0.73810 0.28880 0.09600
H 	H 	0.73450 0.70430 0.29600 -0.02600
C 	C 	0.68840 0.69530 0.51400 0.10700
H 	H 	0.72340 0.72370 0.49890 -0.04900
C 	C 	0.05310 0.65230 0.22060 0.34400
C 	C 	0.58450 0.63310 0.51090 0.12400
H 	H 	0.53200 0.60880 0.49320 -0.02000
C 	C 	0.58700 0.56820 0.31620 0.31800
C 	C 	0.15030 0.79900 0.30360 -0.05500
H 	H 	0.12780 0.83490 0.31320 0.06300
C 	C 	0.28170 0.73560 0.30920 -0.08400
C 	C 	0.08670 0.75580 0.26650 -0.01500
C 	C 	0.24710 0.78900 0.32640 0.00300
H 	H 	0.28930 0.81770 0.35320 0.04300
C 	C 	0.98340 0.77080 0.24290 0.29700
C 	C 	0.38650 0.72800 0.33030 0.32100
C 	C 	0.50960 0.44750 0.29630 0.31100
C 	C 	0.81030 0.56400 0.98580 -1.30400
H 	H 	0.76920 0.53090 0.97380 0.40700
H 	H 	0.77310 0.59880 0.97150 0.39400
H 	H 	0.85400 0.56190 0.95630 0.40900
C 	C 	0.85690 0.56490 0.06050 0.46000
