data_crystal

_cell_length_a 7.82240
_cell_length_b 10.62570
_cell_length_c 13.15570
_cell_angle_alpha 94.72000
_cell_angle_beta  92.33600
_cell_angle_gamma 110.18100

_symmetry_space_group_name_	'P 1'
_symmetry_space_group_name_H-M	'P 1'

loop_
_symmetry_equiv_pos_as_xyz
  x,y,z

loop_
_atom_site_label
_atom_site_type_symbol
_atom_site_fract_x
_atom_site_fract_y
_atom_site_fract_z
_atom_site_charge
In	In	0.47591 0.75318 0.74624 2.00800
In	In	0.51272 0.77883 0.24906 2.01500
P 	P 	0.80590 0.07170 0.78320 0.49400
H 	H 	0.93600 0.09200 0.74400 -0.02700
P 	P 	0.84570 0.09900 0.22430 0.12500
H 	H 	0.95680 0.12170 0.26690 0.06800
P 	P 	0.57700 0.73650 0.49970 0.58600
H 	H 	0.70000 0.80400 0.53300 -0.08600
P 	P 	0.57530 0.80800 0.00270 -1.46000
H 	H 	0.57540 0.89840 0.01470 0.64600
O 	O 	0.85740 0.08350 0.89550 -0.54700
O 	O 	0.77550 0.81470 0.00650 -0.36500
O 	O 	0.47480 0.72780 0.08760 -0.39100
O 	O 	0.73130 0.18180 0.75660 -0.48300
O 	O 	0.72640 0.95910 0.24810 -0.44200
O 	O 	0.69920 0.66510 0.25190 -0.38400
O 	O 	0.53430 0.80850 0.41140 -0.45600
O 	O 	0.44030 0.72260 0.58190 -0.47600
O 	O 	0.68720 0.93540 0.73940 -0.48500
O 	O 	0.33780 0.36250 0.26000 -0.44900
O 	O 	0.47060 0.74700 0.90470 -0.55200
O 	O 	0.70600 0.46040 0.26140 -0.35600
O 	O 	0.32750 0.56920 0.25460 -0.40300
O 	O 	0.58670 0.59880 0.46310 -0.50500
H 	H 	0.61390 0.56470 0.51200 0.32300
O 	O 	0.90110 0.10360 0.11740 -0.41600
O 	O 	0.76610 0.20420 0.25540 -0.43600
C 	C 	0.62780 0.54250 0.25690 0.27000
C 	C 	0.41340 0.48490 0.25730 0.22200
P 	P 	0.75380 0.07060 0.17910 0.38500
H 	H 	0.64420 0.04690 0.13490 -0.17800
P 	P 	0.58600 0.72830 0.99450 1.98100
H 	H 	0.58640 0.63810 0.98180 -0.71100
In	In	0.52409 0.24682 0.25376 2.01000
In	In	0.48728 0.22117 0.75094 2.00700
P 	P 	0.19410 0.92830 0.21680 0.67400
H 	H 	0.06400 0.90800 0.25600 -0.11900
P 	P 	0.15430 0.90100 0.77570 0.22000
H 	H 	0.04320 0.87830 0.73310 -0.02200
P 	P 	0.42300 0.26350 0.50030 0.60000
H 	H 	0.30000 0.19600 0.46700 -0.16700
P 	P 	0.42470 0.19200 0.99730 2.25100
H 	H 	0.42460 0.10160 0.98530 -0.88700
O 	O 	0.14260 0.91650 0.10450 -0.44800
O 	O 	0.22450 0.18530 0.99350 -0.66500
O 	O 	0.52520 0.27220 0.91240 -0.57400
O 	O 	0.26870 0.81820 0.24340 -0.49600
O 	O 	0.27360 0.04090 0.75190 -0.67600
O 	O 	0.30080 0.33490 0.74810 -0.47900
O 	O 	0.46570 0.19150 0.58860 -0.50500
O 	O 	0.55970 0.27740 0.41810 -0.47500
O 	O 	0.31280 0.06460 0.26060 -0.67100
O 	O 	0.66220 0.63750 0.74000 -0.40900
O 	O 	0.52940 0.25300 0.09530 -0.49500
O 	O 	0.29400 0.53960 0.73860 -0.45500
O 	O 	0.67250 0.43080 0.74540 -0.36500
O 	O 	0.41330 0.40120 0.53690 -0.51900
H 	H 	0.38610 0.43530 0.48800 0.30000
O 	O 	0.09890 0.89640 0.88260 -0.62100
O 	O 	0.23390 0.79580 0.74460 -0.50900
C 	C 	0.37220 0.45750 0.74310 0.28100
C 	C 	0.58660 0.51510 0.74270 0.20100
P 	P 	0.24620 0.92940 0.82090 0.50700
H 	H 	0.35580 0.95310 0.86510 -0.15900
P 	P 	0.41400 0.27170 0.00550 -1.55500
H 	H 	0.41360 0.36190 0.01820 0.71300
In	In	-0.00000 0.00000 -0.00000 1.99200
