data_crystal

_cell_length_a 9.30370
_cell_length_b 9.57280
_cell_length_c 18.66900
_cell_angle_alpha 82.06100
_cell_angle_beta  79.15300
_cell_angle_gamma 72.69500

_symmetry_space_group_name_	'P 1'
_symmetry_space_group_name_H-M	'P 1'

loop_
_symmetry_equiv_pos_as_xyz
  x,y,z

loop_
_atom_site_label
_atom_site_type_symbol
_atom_site_fract_x
_atom_site_fract_y
_atom_site_fract_z
_atom_site_charge
Cd	Cd	0.20750 0.82020 0.10807 1.23200
Cd	Cd	0.10107 0.76459 0.43271 1.24400
C 	C 	0.14970 0.15430 0.30750 0.00400
C 	C 	0.18580 0.17090 0.23050 -0.05200
C 	C 	0.20310 0.30380 0.19650 0.02300
H 	H 	0.23600 0.31100 0.13900 0.04400
C 	C 	0.18570 0.42240 0.23620 -0.05500
C 	C 	0.15400 0.40510 0.31310 0.00800
C 	C 	0.13360 0.27290 0.34810 -0.03500
C 	C 	0.13960 0.53030 0.35850 0.29400
C 	C 	0.19890 0.56660 0.19500 0.31200
C 	C 	0.12910 0.01130 0.34800 0.28400
C 	C 	0.19850 0.04920 0.18400 0.31000
C 	C 	0.08830 0.25590 0.43050 0.31800
C 	C 	0.94540 0.45890 0.01920 -0.17700
H 	H 	0.95100 0.38100 0.99300 0.09000
H 	H 	0.00100 0.42800 0.06300 0.09400
C 	C 	0.77940 0.54510 0.03130 0.16300
C 	C 	0.56750 0.76210 0.03340 0.12400
H 	H 	0.53260 0.86300 0.02230 0.00300
C 	C 	0.72350 0.69610 0.01480 -0.18700
H 	H 	0.78860 0.75170 0.99190 0.11100
C 	C 	0.52120 0.54750 0.07880 0.12100
H 	H 	0.45300 0.49440 0.10070 -0.00600
C 	C 	0.67240 0.47110 0.06200 -0.20400
H 	H 	0.70270 0.36940 0.07140 0.11000
C 	C 	0.92850 0.99330 0.02720 0.21500
N 	N 	0.46560 0.69370 0.06550 -0.23300
O 	O 	0.22700 0.85560 0.50660 -0.43200
H 	H 	0.22750 0.93990 0.49100 0.27700
O 	O 	0.80120 0.06700 0.00950 -0.34500
O 	O 	0.02160 0.63680 0.35930 -0.33700
O 	O 	0.24330 0.52100 0.39430 -0.30900
O 	O 	0.96530 0.34500 0.45560 -0.34600
O 	O 	0.15290 0.59880 0.13410 -0.38100
O 	O 	0.25590 0.64540 0.22170 -0.32400
O 	O 	0.00140 0.01130 0.38620 -0.32600
O 	O 	0.24030 0.89930 0.34370 -0.32600
O 	O 	0.09980 0.98190 0.19850 -0.35100
O 	O 	0.30510 0.02360 0.13120 -0.33700
O 	O 	0.94870 0.90920 0.08370 -0.31200
O 	O 	0.16690 0.15700 0.46850 -0.30900
Cd	Cd	0.79250 0.17980 0.89193 1.23300
Cd	Cd	0.89893 0.23541 0.56729 1.24500
C 	C 	0.85030 0.84570 0.69250 0.00500
C 	C 	0.81420 0.82910 0.76950 -0.05100
C 	C 	0.79690 0.69620 0.80350 0.02400
H 	H 	0.76400 0.68900 0.86100 0.04500
C 	C 	0.81430 0.57760 0.76380 -0.05500
C 	C 	0.84600 0.59490 0.68690 0.00800
C 	C 	0.86640 0.72710 0.65190 -0.03500
C 	C 	0.86040 0.46970 0.64150 0.29400
C 	C 	0.80110 0.43340 0.80500 0.31200
C 	C 	0.87090 0.98870 0.65200 0.28400
C 	C 	0.80150 0.95080 0.81600 0.31000
C 	C 	0.91170 0.74410 0.56950 0.31800
C 	C 	0.05460 0.54110 0.98080 -0.17700
H 	H 	0.04900 0.61900 0.00700 0.09000
H 	H 	0.99900 0.57200 0.93700 0.09400
C 	C 	0.22060 0.45490 0.96870 0.16300
C 	C 	0.43250 0.23790 0.96660 0.12400
H 	H 	0.46740 0.13700 0.97770 0.00300
C 	C 	0.27650 0.30390 0.98520 -0.18700
H 	H 	0.21140 0.24830 0.00810 0.11100
C 	C 	0.47880 0.45250 0.92120 0.12100
H 	H 	0.54700 0.50560 0.89930 -0.00600
C 	C 	0.32760 0.52890 0.93800 -0.20400
H 	H 	0.29730 0.63060 0.92860 0.11000
C 	C 	0.07150 0.00670 0.97280 0.21500
N 	N 	0.53440 0.30630 0.93450 -0.23300
O 	O 	0.77300 0.14440 0.49340 -0.43200
H 	H 	0.77250 0.06010 0.50900 0.27700
O 	O 	0.19880 0.93300 0.99050 -0.34500
O 	O 	0.97840 0.36320 0.64070 -0.33700
O 	O 	0.75670 0.47900 0.60570 -0.30900
O 	O 	0.03470 0.65500 0.54440 -0.34600
O 	O 	0.84710 0.40120 0.86590 -0.38100
O 	O 	0.74410 0.35460 0.77830 -0.32400
O 	O 	0.99860 0.98870 0.61380 -0.32600
O 	O 	0.75970 0.10070 0.65630 -0.32600
O 	O 	0.90020 0.01810 0.80150 -0.35100
O 	O 	0.69490 0.97640 0.86880 -0.33700
O 	O 	0.05130 0.09080 0.91630 -0.31200
O 	O 	0.83310 0.84300 0.53150 -0.30900
