data_crystal

_cell_length_a 11.40870
_cell_length_b 13.65840
_cell_length_c 24.02300
_cell_angle_alpha 93.17100
_cell_angle_beta  103.62700
_cell_angle_gamma 112.67100

_symmetry_space_group_name_	'P 1'
_symmetry_space_group_name_H-M	'P 1'

loop_
_symmetry_equiv_pos_as_xyz
  x,y,z

loop_
_atom_site_label
_atom_site_type_symbol
_atom_site_fract_x
_atom_site_fract_y
_atom_site_fract_z
_atom_site_charge
Sm	Sm	0.64698 0.59774 0.96206 1.92600
O 	O 	0.63700 0.61070 0.85760 -0.44200
O 	O 	0.60410 0.68960 0.03500 -0.54000
O 	O 	0.62680 0.74180 0.91180 -0.45400
O 	O 	0.43350 0.59000 0.06590 -0.53500
C 	C 	0.62560 0.69970 0.86310 0.31800
C 	C 	0.61340 0.75560 0.81150 -0.14700
C 	C 	0.57670 0.84260 0.81550 0.09000
C 	C 	0.63090 0.72390 0.76070 0.05700
H 	H 	0.56500 0.86560 0.85010 -0.00900
C 	C 	0.55830 0.89310 0.76910 -0.21500
C 	C 	0.61650 0.77530 0.71260 -0.15000
H 	H 	0.65330 0.66550 0.75780 0.01000
C 	C 	0.57990 0.86080 0.71750 0.06100
C 	C 	0.51600 0.98630 0.76310 0.51800
H 	H 	0.63090 0.75320 0.67850 0.07700
C 	C 	0.55920 0.93150 0.67560 0.06300
C 	C 	0.37650 0.95130 0.76860 -0.97400
C 	C 	0.51990 0.00310 0.70220 -0.21600
C 	C 	0.61100 0.08430 0.80880 -0.96500
C 	C 	0.56360 0.93280 0.61900 -0.13400
H 	H 	0.34800 0.00780 0.75990 0.31300
H 	H 	0.37520 0.93850 0.80780 0.29900
H 	H 	0.31860 0.88680 0.74150 0.31300
C 	C 	0.49220 0.07960 0.67210 0.08400
H 	H 	0.58010 0.14060 0.80550 0.30000
H 	H 	0.61680 0.06540 0.84730 0.29400
H 	H 	0.69610 0.10870 0.80190 0.29300
C 	C 	0.53250 0.00610 0.58870 0.05000
H 	H 	0.58750 0.88410 0.60120 0.07700
C 	C 	0.49680 0.07950 0.61550 -0.13500
H 	H 	0.47090 0.12990 0.69010 -0.00700
H 	H 	0.53530 0.00690 0.55040 0.02900
C 	C 	0.46360 0.16210 0.58190 0.33600
O 	O 	0.45610 0.15500 0.52890 -0.44100
O 	O 	0.43960 0.23050 0.60780 -0.45300
Sm	Sm	0.37573 0.29807 0.51771 1.84600
O 	O 	0.15790 0.14800 0.48510 -0.44700
O 	O 	0.26820 0.19510 0.42120 -0.44700
C 	C 	0.16410 0.13650 0.43410 0.34100
C 	C 	0.05220 0.05240 0.38740 -0.11900
C 	C 	0.06190 0.05370 0.33010 0.05900
C 	C 	0.94500 0.97930 0.40080 0.02900
C 	C 	0.95610 0.97720 0.28720 -0.17400
H 	H 	0.13530 0.10310 0.32130 0.01100
C 	C 	0.84140 0.90280 0.35660 -0.11000
H 	H 	0.94130 0.98060 0.43910 0.03400
C 	C 	0.94270 0.96060 0.22180 0.46100
C 	C 	0.84780 0.90250 0.30030 0.03300
H 	H 	0.76860 0.85230 0.36530 0.05800
C 	C 	0.94600 0.06150 0.19530 -0.89400
C 	C 	0.80750 0.86630 0.19990 -0.23000
C 	C 	0.05160 0.93140 0.20960 -0.89700
C 	C 	0.75580 0.83330 0.24620 0.08500
H 	H 	0.92480 0.04470 0.15350 0.27200
H 	H 	0.88170 0.08240 0.20560 0.28100
H 	H 	0.03120 0.11960 0.20960 0.28600
C 	C 	0.74180 0.81270 0.14420 0.14400
H 	H 	0.05620 0.87310 0.22970 0.27600
H 	H 	0.03350 0.91030 0.16830 0.27000
H 	H 	0.13390 0.99290 0.22330 0.29100
C 	C 	0.63170 0.74840 0.23600 -0.19400
H 	H 	0.77860 0.83370 0.11390 -0.04000
C 	C 	0.61790 0.72550 0.13380 -0.23800
C 	C 	0.56460 0.69480 0.17920 0.12000
H 	H 	0.59450 0.72810 0.26640 0.08400
C 	C 	0.54810 0.66480 0.07350 0.50300
H 	H 	0.48250 0.63740 0.17180 -0.02700
O 	O 	0.77260 0.56470 0.04810 -0.54800
O 	O 	0.58430 0.46830 0.06540 -0.55900
O 	O 	0.45280 0.54190 0.42360 -0.54500
O 	O 	0.31730 0.41800 0.46270 -0.54500
C 	C 	0.34140 0.47070 0.42160 0.48600
C 	C 	0.22970 0.44770 0.36900 -0.23800
C 	C 	0.11330 0.35580 0.35800 0.12500
C 	C 	0.24260 0.52130 0.33010 0.15100
C 	C 	0.00810 0.33770 0.31050 -0.18000
H 	H 	0.10610 0.30560 0.38310 -0.01700
C 	C 	0.14000 0.50580 0.28390 -0.23000
H 	H 	0.32220 0.58110 0.33620 -0.02800
C 	C 	0.02070 0.41420 0.27340 0.07400
H 	H 	0.93030 0.27580 0.30330 0.07500
C 	C 	0.12610 0.57620 0.23830 0.49700
C 	C 	0.92380 0.42080 0.22260 0.07500
C 	C 	0.22770 0.58830 0.20300 -0.91900
C 	C 	0.14620 0.68730 0.26560 -0.95900
C 	C 	0.98570 0.51410 0.20160 -0.23100
C 	C 	0.78900 0.35260 0.19710 -0.17300
H 	H 	0.21980 0.51870 0.18790 0.29400
H 	H 	0.31470 0.62830 0.22830 0.29600
H 	H 	0.21190 0.62610 0.17110 0.27600
H 	H 	0.08620 0.68000 0.28880 0.30800
H 	H 	0.23470 0.72500 0.28980 0.31000
H 	H 	0.12960 0.72690 0.23470 0.28500
C 	C 	0.91460 0.54090 0.15410 0.14500
C 	C 	0.72150 0.38220 0.15050 0.11500
H 	H 	0.74750 0.29020 0.21130 0.07300
C 	C 	0.78350 0.47490 0.12950 -0.22800
H 	H 	0.95530 0.60270 0.13920 -0.03600
H 	H 	0.63260 0.33910 0.13280 -0.00900
C 	C 	0.70700 0.50440 0.07710 0.50400
Sm	Sm	0.35302 0.40226 0.03794 1.92500
O 	O 	0.36300 0.38930 0.14240 -0.44300
O 	O 	0.39590 0.31040 0.96500 -0.54100
O 	O 	0.37320 0.25820 0.08820 -0.45500
O 	O 	0.56650 0.41000 0.93410 -0.53500
C 	C 	0.37440 0.30030 0.13690 0.31800
C 	C 	0.38660 0.24440 0.18850 -0.14700
C 	C 	0.42330 0.15740 0.18450 0.09000
C 	C 	0.36910 0.27610 0.23930 0.05700
H 	H 	0.43500 0.13440 0.14990 -0.00900
C 	C 	0.44170 0.10690 0.23090 -0.21500
C 	C 	0.38350 0.22470 0.28740 -0.15000
H 	H 	0.34670 0.33450 0.24220 0.01000
C 	C 	0.42010 0.13920 0.28250 0.06100
C 	C 	0.48400 0.01370 0.23690 0.51800
H 	H 	0.36910 0.24680 0.32150 0.07700
C 	C 	0.44080 0.06850 0.32440 0.06300
C 	C 	0.62350 0.04870 0.23140 -0.97400
C 	C 	0.48010 0.99690 0.29780 -0.21600
C 	C 	0.38900 0.91570 0.19120 -0.96500
C 	C 	0.43640 0.06720 0.38100 -0.13400
H 	H 	0.65200 0.99220 0.24010 0.31300
H 	H 	0.62480 0.06150 0.19220 0.29900
H 	H 	0.68140 0.11320 0.25850 0.31300
C 	C 	0.50780 0.92040 0.32790 0.08400
H 	H 	0.41990 0.85940 0.19450 0.30000
H 	H 	0.38320 0.93460 0.15270 0.29400
H 	H 	0.30390 0.89130 0.19810 0.29300
C 	C 	0.46750 0.99390 0.41130 0.05000
H 	H 	0.41250 0.11590 0.39880 0.07700
C 	C 	0.50320 0.92050 0.38450 -0.13500
H 	H 	0.52910 0.87010 0.30990 -0.00700
H 	H 	0.46470 0.99310 0.44960 0.02900
C 	C 	0.53640 0.83790 0.41810 0.33600
O 	O 	0.54390 0.84500 0.47110 -0.44100
O 	O 	0.56040 0.76950 0.39220 -0.45300
Sm	Sm	0.62427 0.70193 0.48229 1.84600
O 	O 	0.84210 0.85200 0.51490 -0.44700
O 	O 	0.73180 0.80490 0.57880 -0.44700
C 	C 	0.83590 0.86350 0.56590 0.34100
C 	C 	0.94780 0.94760 0.61260 -0.11900
C 	C 	0.93810 0.94630 0.66990 0.05900
C 	C 	0.05500 0.02070 0.59920 0.02900
C 	C 	0.04390 0.02280 0.71280 -0.17400
H 	H 	0.86470 0.89690 0.67870 0.01100
C 	C 	0.15860 0.09720 0.64340 -0.11000
H 	H 	0.05870 0.01940 0.56090 0.03400
C 	C 	0.05730 0.03940 0.77820 0.46100
C 	C 	0.15220 0.09750 0.69970 0.03300
H 	H 	0.23140 0.14770 0.63470 0.05800
C 	C 	0.05400 0.93850 0.80470 -0.89400
C 	C 	0.19250 0.13370 0.80010 -0.23000
C 	C 	0.94840 0.06860 0.79040 -0.89700
C 	C 	0.24420 0.16670 0.75380 0.08500
H 	H 	0.07520 0.95530 0.84650 0.27200
H 	H 	0.11830 0.91760 0.79440 0.28100
H 	H 	0.96880 0.88040 0.79040 0.28600
C 	C 	0.25820 0.18730 0.85580 0.14400
H 	H 	0.94380 0.12690 0.77030 0.27600
H 	H 	0.96650 0.08970 0.83170 0.27000
H 	H 	0.86610 0.00710 0.77670 0.29100
C 	C 	0.36830 0.25160 0.76400 -0.19400
H 	H 	0.22140 0.16630 0.88610 -0.04000
C 	C 	0.38210 0.27450 0.86620 -0.23800
C 	C 	0.43540 0.30520 0.82080 0.12000
H 	H 	0.40550 0.27190 0.73360 0.08400
C 	C 	0.45190 0.33520 0.92650 0.50300
H 	H 	0.51750 0.36260 0.82820 -0.02700
O 	O 	0.22740 0.43530 0.95190 -0.54800
O 	O 	0.41570 0.53170 0.93460 -0.55900
O 	O 	0.54720 0.45810 0.57640 -0.54500
O 	O 	0.68270 0.58200 0.53730 -0.54500
C 	C 	0.65860 0.52930 0.57840 0.48600
C 	C 	0.77030 0.55230 0.63100 -0.23800
C 	C 	0.88670 0.64420 0.64200 0.12500
C 	C 	0.75740 0.47870 0.66990 0.15100
C 	C 	0.99190 0.66230 0.68950 -0.18000
H 	H 	0.89390 0.69440 0.61690 -0.01700
C 	C 	0.86000 0.49420 0.71610 -0.23000
H 	H 	0.67780 0.41890 0.66380 -0.02800
C 	C 	0.97930 0.58580 0.72660 0.07400
H 	H 	0.06970 0.72420 0.69670 0.07500
C 	C 	0.87390 0.42380 0.76170 0.49700
C 	C 	0.07620 0.57920 0.77740 0.07500
C 	C 	0.77230 0.41170 0.79700 -0.91900
C 	C 	0.85380 0.31270 0.73440 -0.95900
C 	C 	0.01430 0.48590 0.79840 -0.23100
C 	C 	0.21100 0.64740 0.80290 -0.17300
H 	H 	0.78020 0.48130 0.81210 0.29400
H 	H 	0.68530 0.37170 0.77170 0.29600
H 	H 	0.78810 0.37390 0.82890 0.27600
H 	H 	0.91380 0.32000 0.71120 0.30800
H 	H 	0.76530 0.27500 0.71020 0.31000
H 	H 	0.87040 0.27310 0.76530 0.28500
C 	C 	0.08540 0.45910 0.84590 0.14500
C 	C 	0.27850 0.61780 0.84950 0.11500
H 	H 	0.25250 0.70980 0.78870 0.07300
C 	C 	0.21650 0.52510 0.87050 -0.22800
H 	H 	0.04470 0.39730 0.86080 -0.03600
H 	H 	0.36740 0.66090 0.86720 -0.00900
C 	C 	0.29300 0.49560 0.92290 0.50400
