data_crystal

_cell_length_a 11.49570
_cell_length_b 13.68040
_cell_length_c 23.96930
_cell_angle_alpha 76.32800
_cell_angle_beta  76.21400
_cell_angle_gamma 66.91700

_symmetry_space_group_name_	'P 1'
_symmetry_space_group_name_H-M	'P 1'

loop_
_symmetry_equiv_pos_as_xyz
  x,y,z

loop_
_atom_site_label
_atom_site_type_symbol
_atom_site_fract_x
_atom_site_fract_y
_atom_site_fract_z
_atom_site_charge
Gd	Gd	0.64066 0.29881 0.48270 1.44000
Gd	Gd	0.81596 0.59810 0.03827 1.49800
C 	C 	0.87440 0.50060 0.92300 0.45800
C 	C 	0.84870 0.47300 0.87130 -0.21600
C 	C 	0.92990 0.38160 0.84950 0.11200
H 	H 	0.00170 0.33770 0.86650 -0.00300
C 	C 	0.90670 0.35350 0.80240 -0.16900
H 	H 	0.96220 0.29080 0.78810 0.07200
C 	C 	0.80030 0.41930 0.77700 0.07900
C 	C 	0.75420 0.41320 0.72630 0.07000
C 	C 	0.80320 0.33830 0.68860 -0.16000
H 	H 	0.87460 0.27670 0.69510 0.06700
C 	C 	0.74370 0.35710 0.64120 0.10200
H 	H 	0.77570 0.30730 0.61570 -0.00300
C 	C 	0.63820 0.44790 0.63090 -0.20400
C 	C 	0.57970 0.47090 0.57800 0.43700
C 	C 	0.58670 0.52190 0.67010 0.13000
H 	H 	0.51350 0.58210 0.66440 -0.01700
C 	C 	0.64500 0.50470 0.71700 -0.22600
C 	C 	0.61110 0.57570 0.76260 0.52900
C 	C 	0.47810 0.58820 0.79750 -1.02500
H 	H 	0.41570 0.62540 0.77210 0.32800
H 	H 	0.46140 0.62900 0.82790 0.31600
H 	H 	0.47320 0.51860 0.81430 0.33100
C 	C 	0.61810 0.68810 0.73470 -0.98100
H 	H 	0.69920 0.67980 0.70980 0.31700
H 	H 	0.60930 0.72720 0.76480 0.29600
H 	H 	0.55010 0.72700 0.71230 0.31400
C 	C 	0.71680 0.51280 0.79950 -0.23500
C 	C 	0.74120 0.53900 0.84610 0.14600
H 	H 	0.68580 0.60110 0.86100 -0.03400
C 	C 	0.02620 0.66180 0.92580 0.44700
C 	C 	0.01550 0.72470 0.86570 -0.21100
C 	C 	0.11530 0.69410 0.82010 0.10100
H 	H 	0.19000 0.63630 0.82730 -0.01400
C 	C 	0.10480 0.74890 0.76350 -0.18500
H 	H 	0.17210 0.72830 0.73310 0.08300
C 	C 	0.99370 0.83390 0.75300 0.08300
C 	C 	0.95380 0.90380 0.69900 0.04700
C 	C 	0.01640 0.90330 0.64250 -0.13000
H 	H 	0.09710 0.85200 0.63350 0.07400
C 	C 	0.95780 0.97950 0.59960 0.05100
H 	H 	0.00080 0.98130 0.56140 0.03100
C 	C 	0.83310 0.05580 0.61210 -0.13600
C 	C 	0.76790 0.13690 0.56590 0.33900
C 	C 	0.77090 0.05480 0.66900 0.08500
H 	H 	0.68910 0.10440 0.67810 0.00300
C 	C 	0.83140 0.97960 0.71190 -0.19200
C 	C 	0.77940 0.96250 0.77790 0.50200
C 	C 	0.65950 0.93300 0.78850 -0.97500
H 	H 	0.67480 0.87790 0.76630 0.30200
H 	H 	0.58890 0.99560 0.77680 0.31200
H 	H 	0.63950 0.90710 0.82910 0.30000
C 	C 	0.75120 0.06290 0.80420 -0.97700
H 	H 	0.73550 0.04600 0.84590 0.30200
H 	H 	0.67710 0.11970 0.79110 0.31100
H 	H 	0.82360 0.08580 0.79220 0.30500
C 	C 	0.89410 0.86670 0.79900 -0.23000
C 	C 	0.90450 0.81120 0.85530 0.13400
H 	H 	0.83750 0.83200 0.88570 -0.03100
C 	C 	0.61900 0.16150 0.41850 0.32500
C 	C 	0.61670 0.08260 0.38500 -0.14300
C 	C 	0.55380 0.01010 0.41120 0.05600
H 	H 	0.51040 0.01340 0.44910 0.02900
C 	C 	0.55420 0.93380 0.38220 -0.13400
H 	H 	0.51300 0.88540 0.40040 0.08500
C 	C 	0.61780 0.93160 0.32520 0.06000
C 	C 	0.63660 0.86120 0.28340 0.06900
C 	C 	0.59550 0.77690 0.28800 -0.15200
H 	H 	0.54710 0.75550 0.32230 0.08300
C 	C 	0.62810 0.72460 0.24020 0.05500
H 	H 	0.60090 0.66780 0.24270 0.01200
C 	C 	0.70040 0.75520 0.18880 -0.14600
C 	C 	0.73620 0.69820 0.13700 0.32300
C 	C 	0.73920 0.83980 0.18510 0.09300
H 	H 	0.78610 0.86190 0.15050 -0.00700
C 	C 	0.70900 0.89290 0.23230 -0.22100
C 	C 	0.74610 0.98510 0.23730 0.51800
C 	C 	0.69630 0.08490 0.19220 -0.98300
H 	H 	0.72850 0.06640 0.15380 0.30500
H 	H 	0.72480 0.13990 0.19590 0.30700
H 	H 	0.60430 0.11100 0.19860 0.29600
C 	C 	0.89150 0.95040 0.23320 -1.00300
H 	H 	0.92330 0.88440 0.25920 0.32200
H 	H 	0.91040 0.00570 0.24340 0.32400
H 	H 	0.93200 0.94000 0.19400 0.31100
C 	C 	0.68070 0.00500 0.29890 -0.21000
C 	C 	0.67890 0.07960 0.32840 0.09200
H 	H 	0.71970 0.12830 0.31030 -0.01000
O 	O 	0.77940 0.56190 0.95280 -0.46600
O 	O 	0.98490 0.46340 0.93460 -0.47300
O 	O 	0.46890 0.54270 0.57593 -0.46000
O 	O 	0.64320 0.41900 0.53689 -0.46500
O 	O 	0.92890 0.68780 0.96450 -0.45200
O 	O 	0.13090 0.58640 0.93340 -0.46500
O 	O 	0.65330 0.19540 0.57847 -0.40100
O 	O 	0.82640 0.14760 0.51390 -0.38700
O 	O 	0.56980 0.15920 0.47175 -0.38600
O 	O 	0.66970 0.23070 0.39330 -0.39800
O 	O 	0.72160 0.61090 0.14200 -0.40300
O 	O 	0.78410 0.74170 0.08880 -0.40200
Gd	Gd	0.35934 0.70119 0.51730 1.44100
Gd	Gd	0.18404 0.40190 0.96173 1.49900
C 	C 	0.12560 0.49940 0.07700 0.45900
C 	C 	0.15130 0.52700 0.12870 -0.21500
C 	C 	0.07010 0.61840 0.15050 0.11200
H 	H 	0.99830 0.66230 0.13350 -0.00300
C 	C 	0.09330 0.64650 0.19760 -0.16900
H 	H 	0.03780 0.70920 0.21190 0.07200
C 	C 	0.19970 0.58070 0.22300 0.07900
C 	C 	0.24580 0.58680 0.27370 0.07000
C 	C 	0.19680 0.66170 0.31140 -0.16000
H 	H 	0.12540 0.72330 0.30490 0.06700
C 	C 	0.25630 0.64290 0.35880 0.10200
H 	H 	0.22430 0.69270 0.38430 -0.00300
C 	C 	0.36180 0.55210 0.36910 -0.20400
C 	C 	0.42030 0.52910 0.42200 0.43700
C 	C 	0.41330 0.47810 0.32990 0.13000
H 	H 	0.48650 0.41790 0.33560 -0.01700
C 	C 	0.35500 0.49530 0.28300 -0.22600
C 	C 	0.38890 0.42430 0.23740 0.52900
C 	C 	0.52190 0.41180 0.20250 -1.02500
H 	H 	0.58430 0.37460 0.22790 0.32800
H 	H 	0.53860 0.37100 0.17210 0.31600
H 	H 	0.52680 0.48140 0.18570 0.33100
C 	C 	0.38190 0.31190 0.26530 -0.98100
H 	H 	0.30080 0.32020 0.29020 0.31700
H 	H 	0.39070 0.27280 0.23520 0.29600
H 	H 	0.44990 0.27300 0.28770 0.31400
C 	C 	0.28320 0.48720 0.20050 -0.23500
C 	C 	0.25880 0.46100 0.15390 0.14600
H 	H 	0.31420 0.39890 0.13900 -0.03400
C 	C 	0.97380 0.33820 0.07420 0.44700
C 	C 	0.98450 0.27530 0.13430 -0.21100
C 	C 	0.88470 0.30590 0.17990 0.10100
H 	H 	0.81000 0.36370 0.17270 -0.01400
C 	C 	0.89520 0.25110 0.23650 -0.18500
H 	H 	0.82790 0.27170 0.26690 0.08300
C 	C 	0.00630 0.16610 0.24700 0.08300
C 	C 	0.04620 0.09620 0.30100 0.04700
C 	C 	0.98360 0.09670 0.35750 -0.13000
H 	H 	0.90290 0.14800 0.36650 0.07400
C 	C 	0.04220 0.02050 0.40040 0.05100
H 	H 	0.99920 0.01870 0.43860 0.03100
C 	C 	0.16690 0.94420 0.38790 -0.13600
C 	C 	0.23210 0.86310 0.43410 0.33900
C 	C 	0.22910 0.94520 0.33100 0.08500
H 	H 	0.31090 0.89560 0.32190 0.00300
C 	C 	0.16860 0.02040 0.28810 -0.19200
C 	C 	0.22060 0.03750 0.22210 0.50200
C 	C 	0.34050 0.06700 0.21150 -0.97500
H 	H 	0.32520 0.12210 0.23370 0.30200
H 	H 	0.41110 0.00440 0.22320 0.31200
H 	H 	0.36050 0.09290 0.17090 0.30000
C 	C 	0.24880 0.93710 0.19580 -0.97700
H 	H 	0.26450 0.95400 0.15410 0.30200
H 	H 	0.32290 0.88030 0.20890 0.31100
H 	H 	0.17640 0.91420 0.20780 0.30500
C 	C 	0.10590 0.13330 0.20100 -0.23000
C 	C 	0.09550 0.18880 0.14470 0.13400
H 	H 	0.16250 0.16800 0.11430 -0.03100
C 	C 	0.38100 0.83850 0.58150 0.32500
C 	C 	0.38330 0.91740 0.61500 -0.14300
C 	C 	0.44620 0.98990 0.58880 0.05600
H 	H 	0.48960 0.98660 0.55090 0.02900
C 	C 	0.44580 0.06620 0.61780 -0.13400
H 	H 	0.48700 0.11460 0.59960 0.08500
C 	C 	0.38220 0.06840 0.67480 0.06000
C 	C 	0.36340 0.13880 0.71660 0.06900
C 	C 	0.40450 0.22310 0.71200 -0.15200
H 	H 	0.45290 0.24450 0.67770 0.08300
C 	C 	0.37190 0.27540 0.75980 0.05500
H 	H 	0.39910 0.33220 0.75730 0.01200
C 	C 	0.29960 0.24480 0.81120 -0.14600
C 	C 	0.26380 0.30180 0.86300 0.32300
C 	C 	0.26080 0.16020 0.81490 0.09300
H 	H 	0.21390 0.13810 0.84950 -0.00700
C 	C 	0.29100 0.10710 0.76770 -0.22100
C 	C 	0.25390 0.01490 0.76270 0.51800
C 	C 	0.30370 0.91510 0.80780 -0.98300
H 	H 	0.27150 0.93360 0.84620 0.30500
H 	H 	0.27520 0.86010 0.80410 0.30700
H 	H 	0.39570 0.88900 0.80140 0.29600
C 	C 	0.10850 0.04960 0.76680 -1.00300
H 	H 	0.07670 0.11560 0.74080 0.32200
H 	H 	0.08960 0.99430 0.75660 0.32400
H 	H 	0.06800 0.06000 0.80600 0.31100
C 	C 	0.31930 0.99500 0.70110 -0.21000
C 	C 	0.32110 0.92040 0.67160 0.09200
H 	H 	0.28030 0.87170 0.68970 -0.01000
O 	O 	0.22060 0.43810 0.04720 -0.46600
O 	O 	0.01510 0.53660 0.06540 -0.47300
O 	O 	0.53110 0.45730 0.42407 -0.46000
O 	O 	0.35680 0.58100 0.46311 -0.46500
O 	O 	0.07110 0.31220 0.03550 -0.45200
O 	O 	0.86910 0.41360 0.06660 -0.46500
O 	O 	0.34670 0.80460 0.42153 -0.40100
O 	O 	0.17360 0.85240 0.48610 -0.38700
O 	O 	0.43020 0.84080 0.52825 -0.38600
O 	O 	0.33030 0.76930 0.60670 -0.39800
O 	O 	0.27840 0.38910 0.85800 -0.40300
O 	O 	0.21590 0.25830 0.91120 -0.40200
