data_crystal

_cell_length_a 11.44220
_cell_length_b 13.64990
_cell_length_c 23.97690
_cell_angle_alpha 92.91500
_cell_angle_beta  103.67100
_cell_angle_gamma 112.82100

_symmetry_space_group_name_	'P 1'
_symmetry_space_group_name_H-M	'P 1'

loop_
_symmetry_equiv_pos_as_xyz
  x,y,z

loop_
_atom_site_label
_atom_site_type_symbol
_atom_site_fract_x
_atom_site_fract_y
_atom_site_fract_z
_atom_site_charge
Eu	Eu	0.37634 0.29865 0.51752 1.76300
Eu	Eu	0.64560 0.59734 0.96192 1.85000
C 	C 	0.70800 0.50100 0.07630 0.50000
C 	C 	0.78280 0.47360 0.12870 -0.23300
C 	C 	0.72100 0.38170 0.15140 0.11900
H 	H 	0.63170 0.33930 0.13550 -0.00800
C 	C 	0.79200 0.35320 0.19690 -0.17600
H 	H 	0.75060 0.28970 0.21060 0.07400
C 	C 	0.92430 0.41850 0.22290 0.07900
C 	C 	0.01950 0.41320 0.27280 0.06700
C 	C 	0.00900 0.33840 0.31110 -0.17400
H 	H 	0.93200 0.27630 0.30440 0.07400
C 	C 	0.11400 0.35670 0.35850 0.11800
H 	H 	0.10700 0.30660 0.38380 -0.01400
C 	C 	0.23040 0.44930 0.36920 -0.23000
C 	C 	0.34260 0.47220 0.42120 0.47300
C 	C 	0.24280 0.52220 0.33090 0.14000
H 	H 	0.32140 0.58300 0.33720 -0.02300
C 	C 	0.13810 0.50440 0.28340 -0.21600
C 	C 	0.12620 0.57610 0.23700 0.50000
C 	C 	0.22700 0.58400 0.20140 -0.89900
H 	H 	0.21950 0.51400 0.18630 0.28500
H 	H 	0.31440 0.62370 0.22670 0.28800
H 	H 	0.21160 0.62150 0.16950 0.27500
C 	C 	0.14700 0.68600 0.26340 -0.99900
H 	H 	0.13070 0.72560 0.23260 0.30000
H 	H 	0.23590 0.72370 0.28760 0.31900
H 	H 	0.08730 0.67870 0.28670 0.32000
C 	C 	0.98390 0.51210 0.20070 -0.23000
C 	C 	0.91450 0.53960 0.15360 0.14900
H 	H 	0.95560 0.60160 0.13880 -0.03900
C 	C 	0.54800 0.66380 0.07500 0.48100
C 	C 	0.61690 0.72000 0.13560 -0.25000
C 	C 	0.56800 0.69440 0.18070 0.16000
H 	H 	0.48520 0.63760 0.17390 -0.03800
C 	C 	0.63200 0.74720 0.23590 -0.22500
H 	H 	0.59400 0.72670 0.26610 0.09600
C 	C 	0.75600 0.83310 0.24670 0.10300
C 	C 	0.84800 0.90380 0.30000 0.03000
C 	C 	0.84300 0.90290 0.35760 -0.10700
H 	H 	0.77220 0.85120 0.36690 0.06000
C 	C 	0.94650 0.98040 0.40100 0.03100
H 	H 	0.94270 0.98230 0.43930 0.03600
C 	C 	0.05300 0.05350 0.38790 -0.11800
C 	C 	0.16890 0.13820 0.43530 0.34700
C 	C 	0.06070 0.05460 0.33000 0.07300
H 	H 	0.13270 0.10530 0.32080 0.00500
C 	C 	0.95860 0.97860 0.28840 -0.19200
C 	C 	0.94330 0.96310 0.22240 0.51500
C 	C 	0.05200 0.93200 0.21070 -0.97700
H 	H 	0.05630 0.87400 0.23070 0.30600
H 	H 	0.13400 0.99380 0.22440 0.31500
H 	H 	0.03360 0.91130 0.16940 0.29600
C 	C 	0.94800 0.06100 0.19580 -0.96400
H 	H 	0.92630 0.04460 0.15400 0.29500
H 	H 	0.03280 0.11950 0.21010 0.30600
H 	H 	0.88320 0.08230 0.20600 0.29400
C 	C 	0.80840 0.86700 0.20060 -0.25600
C 	C 	0.74670 0.81240 0.14670 0.15400
H 	H 	0.78490 0.83220 0.11660 -0.04400
C 	C 	0.46200 0.16050 0.58140 0.32300
C 	C 	0.49660 0.08120 0.61440 -0.13400
C 	C 	0.53100 0.00660 0.58840 0.04700
H 	H 	0.53220 0.00700 0.54970 0.03100
C 	C 	0.56300 0.93240 0.61770 -0.12600
H 	H 	0.58740 0.88420 0.59970 0.07600
C 	C 	0.55770 0.93200 0.67610 0.05500
C 	C 	0.57900 0.86100 0.71630 0.05900
C 	C 	0.61800 0.77450 0.71320 -0.15800
H 	H 	0.63480 0.75270 0.67970 0.08100
C 	C 	0.63100 0.72480 0.75990 0.07200
H 	H 	0.65470 0.66730 0.75710 0.00400
C 	C 	0.61100 0.75320 0.81080 -0.15600
C 	C 	0.62700 0.70170 0.86210 0.31700
C 	C 	0.57500 0.84310 0.81530 0.08500
H 	H 	0.56450 0.86660 0.85020 -0.00600
C 	C 	0.55640 0.89380 0.76850 -0.20800
C 	C 	0.51730 0.98610 0.76330 0.47700
C 	C 	0.61100 0.08190 0.80940 -0.94300
H 	H 	0.61650 0.06300 0.84790 0.29000
H 	H 	0.57990 0.13820 0.80610 0.29200
H 	H 	0.69590 0.10630 0.80250 0.28700
C 	C 	0.37300 0.95120 0.76810 -0.89100
H 	H 	0.31510 0.88670 0.74110 0.28900
H 	H 	0.34440 0.00770 0.75940 0.28800
H 	H 	0.37170 0.93840 0.80730 0.27600
C 	C 	0.52100 0.00450 0.70180 -0.19800
C 	C 	0.49130 0.07910 0.67220 0.07500
H 	H 	0.46780 0.12780 0.69020 -0.00300
O 	O 	0.76960 0.56070 0.04650 -0.54100
O 	O 	0.58320 0.46300 0.06480 -0.53700
O 	O 	0.45360 0.54380 0.42350 -0.53100
O 	O 	0.31800 0.42030 0.46310 -0.52200
O 	O 	0.60640 0.69130 0.03540 -0.50800
O 	O 	0.43550 0.58760 0.06650 -0.52800
O 	O 	0.26840 0.19610 0.42130 -0.44700
O 	O 	0.15960 0.14630 0.48580 -0.43600
O 	O 	0.45700 0.15630 0.52840 -0.42500
O 	O 	0.43530 0.23040 0.60690 -0.43600
O 	O 	0.63670 0.61080 0.85790 -0.43000
O 	O 	0.62780 0.74160 0.91200 -0.44300
Eu	Eu	0.62366 0.70135 0.48248 1.76200
Eu	Eu	0.35440 0.40266 0.03808 1.84900
C 	C 	0.29200 0.49900 0.92370 0.50000
C 	C 	0.21720 0.52640 0.87130 -0.23300
C 	C 	0.27900 0.61830 0.84860 0.11900
H 	H 	0.36830 0.66070 0.86450 -0.00800
C 	C 	0.20800 0.64680 0.80310 -0.17600
H 	H 	0.24940 0.71030 0.78940 0.07400
C 	C 	0.07570 0.58150 0.77710 0.07900
C 	C 	0.98050 0.58680 0.72720 0.06700
C 	C 	0.99100 0.66160 0.68890 -0.17400
H 	H 	0.06800 0.72370 0.69560 0.07400
C 	C 	0.88600 0.64330 0.64150 0.11800
H 	H 	0.89300 0.69340 0.61620 -0.01400
C 	C 	0.76960 0.55070 0.63080 -0.23000
C 	C 	0.65740 0.52780 0.57880 0.47300
C 	C 	0.75720 0.47780 0.66910 0.14000
H 	H 	0.67860 0.41700 0.66280 -0.02300
C 	C 	0.86190 0.49560 0.71660 -0.21600
C 	C 	0.87380 0.42390 0.76300 0.50000
C 	C 	0.77300 0.41600 0.79860 -0.89900
H 	H 	0.78050 0.48600 0.81370 0.28500
H 	H 	0.68560 0.37630 0.77330 0.28800
H 	H 	0.78840 0.37850 0.83050 0.27500
C 	C 	0.85300 0.31400 0.73660 -0.99900
H 	H 	0.86930 0.27440 0.76740 0.30000
H 	H 	0.76410 0.27630 0.71240 0.31900
H 	H 	0.91270 0.32130 0.71330 0.32000
C 	C 	0.01610 0.48790 0.79930 -0.23000
C 	C 	0.08550 0.46040 0.84640 0.14900
H 	H 	0.04440 0.39840 0.86120 -0.03900
C 	C 	0.45200 0.33620 0.92500 0.48100
C 	C 	0.38310 0.28000 0.86440 -0.25000
C 	C 	0.43200 0.30560 0.81930 0.16000
H 	H 	0.51480 0.36240 0.82610 -0.03800
C 	C 	0.36800 0.25280 0.76410 -0.22500
H 	H 	0.40600 0.27330 0.73390 0.09600
C 	C 	0.24400 0.16690 0.75330 0.10300
C 	C 	0.15200 0.09620 0.70000 0.03000
C 	C 	0.15700 0.09710 0.64240 -0.10700
H 	H 	0.22780 0.14880 0.63310 0.06000
C 	C 	0.05350 0.01960 0.59900 0.03100
H 	H 	0.05730 0.01770 0.56070 0.03600
C 	C 	0.94700 0.94650 0.61210 -0.11800
C 	C 	0.83110 0.86180 0.56470 0.34700
C 	C 	0.93930 0.94540 0.67000 0.07300
H 	H 	0.86730 0.89470 0.67920 0.00500
C 	C 	0.04140 0.02140 0.71160 -0.19200
C 	C 	0.05670 0.03690 0.77760 0.51500
C 	C 	0.94800 0.06800 0.78930 -0.97700
H 	H 	0.94370 0.12600 0.76930 0.30600
H 	H 	0.86600 0.00620 0.77560 0.31500
H 	H 	0.96640 0.08870 0.83060 0.29600
C 	C 	0.05200 0.93900 0.80420 -0.96400
H 	H 	0.07370 0.95540 0.84600 0.29500
H 	H 	0.96720 0.88050 0.78990 0.30600
H 	H 	0.11680 0.91770 0.79400 0.29400
C 	C 	0.19160 0.13300 0.79940 -0.25600
C 	C 	0.25330 0.18760 0.85330 0.15400
H 	H 	0.21510 0.16780 0.88340 -0.04400
C 	C 	0.53800 0.83950 0.41860 0.32300
C 	C 	0.50340 0.91880 0.38560 -0.13400
C 	C 	0.46900 0.99340 0.41160 0.04700
H 	H 	0.46780 0.99300 0.45030 0.03100
C 	C 	0.43700 0.06760 0.38230 -0.12600
H 	H 	0.41260 0.11580 0.40030 0.07600
C 	C 	0.44230 0.06800 0.32390 0.05500
C 	C 	0.42100 0.13900 0.28370 0.05900
C 	C 	0.38200 0.22550 0.28680 -0.15800
H 	H 	0.36520 0.24730 0.32030 0.08100
C 	C 	0.36900 0.27520 0.24010 0.07200
H 	H 	0.34530 0.33270 0.24290 0.00400
C 	C 	0.38900 0.24680 0.18920 -0.15600
C 	C 	0.37300 0.29830 0.13790 0.31700
C 	C 	0.42500 0.15690 0.18470 0.08500
H 	H 	0.43550 0.13340 0.14980 -0.00600
C 	C 	0.44360 0.10620 0.23150 -0.20800
C 	C 	0.48270 0.01390 0.23670 0.47700
C 	C 	0.38900 0.91810 0.19060 -0.94300
H 	H 	0.38350 0.93700 0.15210 0.29000
H 	H 	0.42010 0.86180 0.19390 0.29200
H 	H 	0.30410 0.89370 0.19750 0.28700
C 	C 	0.62700 0.04880 0.23190 -0.89100
H 	H 	0.68490 0.11330 0.25890 0.28900
H 	H 	0.65560 0.99230 0.24060 0.28800
H 	H 	0.62830 0.06160 0.19270 0.27600
C 	C 	0.47900 0.99550 0.29820 -0.19800
C 	C 	0.50870 0.92090 0.32780 0.07500
H 	H 	0.53220 0.87220 0.30980 -0.00300
O 	O 	0.23040 0.43930 0.95350 -0.54100
O 	O 	0.41680 0.53700 0.93520 -0.53700
O 	O 	0.54640 0.45620 0.57650 -0.53100
O 	O 	0.68200 0.57970 0.53690 -0.52200
O 	O 	0.39360 0.30870 0.96460 -0.50800
O 	O 	0.56450 0.41240 0.93350 -0.52800
O 	O 	0.73160 0.80390 0.57870 -0.44700
O 	O 	0.84040 0.85370 0.51420 -0.43600
O 	O 	0.54300 0.84370 0.47160 -0.42500
O 	O 	0.56470 0.76960 0.39310 -0.43600
O 	O 	0.36330 0.38920 0.14210 -0.43000
O 	O 	0.37220 0.25840 0.08800 -0.44300
