data_crystal

_cell_length_a 8.71670
_cell_length_b 9.75200
_cell_length_c 13.86420
_cell_angle_alpha 84.03000
_cell_angle_beta  79.44600
_cell_angle_gamma 73.02900

_symmetry_space_group_name_	'P 1'
_symmetry_space_group_name_H-M	'P 1'

loop_
_symmetry_equiv_pos_as_xyz
  x,y,z

loop_
_atom_site_label
_atom_site_type_symbol
_atom_site_fract_x
_atom_site_fract_y
_atom_site_fract_z
_atom_site_charge
C 	C 	0.00780 0.63110 0.92020 0.06700
H 	H 	0.99410 0.69730 0.96880 0.01600
C 	C 	0.86910 0.61990 0.88870 -0.12500
C 	C 	0.89210 0.52730 0.81400 0.06200
H 	H 	0.80160 0.52020 0.78780 0.00600
C 	C 	0.04730 0.44560 0.77800 -0.15000
C 	C 	0.17730 0.46080 0.81710 0.09300
H 	H 	0.28350 0.40280 0.79410 -0.01300
C 	C 	0.07500 0.34620 0.69620 0.35000
C 	C 	0.92980 0.93510 0.10770 0.06100
H 	H 	0.94790 0.86960 0.05800 0.01600
C 	C 	0.06340 0.94250 0.14620 -0.10400
C 	C 	0.03320 0.03730 0.22110 0.05400
H 	H 	0.11970 0.04390 0.25160 0.00100
C 	C 	0.87550 0.12190 0.25060 -0.15200
C 	C 	0.75210 0.10750 0.20560 0.06600
H 	H 	0.64500 0.16650 0.22510 -0.02900
C 	C 	0.83060 0.21950 0.33500 0.35600
Co	Co	0.36193 0.58415 0.93975 1.12900
Co	Co	0.57720 0.97889 0.08848 1.13500
Co	Co	0.93989 0.27548 0.52239 1.05300
N 	N 	0.15910 0.55410 0.88600 -0.24100
N 	N 	0.77620 0.01470 0.13630 -0.24000
O 	O 	0.58310 0.82210 0.87347 -0.43600
O 	O 	0.70430 0.78500 0.03276 -0.42400
O 	O 	0.57930 0.60230 0.98241 -0.54800
O 	O 	0.96370 0.37550 0.64387 -0.48400
O 	O 	0.20270 0.24410 0.68421 -0.32800
O 	O 	0.33030 0.74200 0.19089 -0.29900
O 	O 	0.23360 0.73620 0.02807 -0.43300
O 	O 	0.36800 0.92650 0.05397 -0.50800
O 	O 	0.71240 0.32870 0.33533 -0.33800
O 	O 	0.91610 0.17600 0.40300 -0.49400
P 	P 	0.67010 0.71806 0.94862 0.44000
P 	P 	0.26487 0.82752 0.10086 0.44000
C 	C 	0.99220 0.36890 0.07980 0.06800
H 	H 	0.00590 0.30270 0.03120 0.01700
C 	C 	0.13090 0.38010 0.11130 -0.12500
C 	C 	0.10790 0.47270 0.18600 0.06200
H 	H 	0.19840 0.47980 0.21220 0.00600
C 	C 	0.95270 0.55440 0.22200 -0.15000
C 	C 	0.82270 0.53920 0.18290 0.09300
H 	H 	0.71650 0.59720 0.20590 -0.01300
C 	C 	0.92500 0.65380 0.30380 0.35000
C 	C 	0.07020 0.06490 0.89230 0.06100
H 	H 	0.05210 0.13040 0.94200 0.01600
C 	C 	0.93660 0.05750 0.85380 -0.10400
C 	C 	0.96680 0.96270 0.77890 0.05400
H 	H 	0.88030 0.95610 0.74840 0.00100
C 	C 	0.12450 0.87810 0.74940 -0.15200
C 	C 	0.24790 0.89250 0.79440 0.06600
H 	H 	0.35500 0.83350 0.77490 -0.02900
C 	C 	0.16940 0.78050 0.66500 0.35600
Co	Co	0.63807 0.41585 0.06025 1.12900
Co	Co	0.42280 0.02111 0.91152 1.13500
Co	Co	0.06011 0.72452 0.47761 1.05300
N 	N 	0.84090 0.44590 0.11400 -0.24100
N 	N 	0.22380 0.98530 0.86370 -0.24000
O 	O 	0.41690 0.17790 0.12653 -0.43600
O 	O 	0.29570 0.21500 0.96724 -0.42400
O 	O 	0.42070 0.39770 0.01759 -0.54800
O 	O 	0.03630 0.62450 0.35613 -0.48400
O 	O 	0.79730 0.75590 0.31579 -0.32800
O 	O 	0.66970 0.25800 0.80911 -0.29900
O 	O 	0.76640 0.26380 0.97193 -0.43300
O 	O 	0.63200 0.07350 0.94603 -0.50800
O 	O 	0.28760 0.67130 0.66467 -0.33800
O 	O 	0.08390 0.82400 0.59700 -0.49400
P 	P 	0.32990 0.28194 0.05138 0.44000
P 	P 	0.73513 0.17248 0.89914 0.44000
