data_crystal

_cell_length_a 15.21690
_cell_length_b 15.21690
_cell_length_c 16.73800
_cell_angle_alpha 90.00000
_cell_angle_beta  90.00000
_cell_angle_gamma 120.00000

_symmetry_space_group_name_	'P 1'
_symmetry_space_group_name_H-M	'P 1'

loop_
_symmetry_equiv_pos_as_xyz
  x,y,z

loop_
_atom_site_label
_atom_site_type_symbol
_atom_site_fract_x
_atom_site_fract_y
_atom_site_fract_z
_atom_site_charge
Fe	Fe	0.33333 0.66666 0.31740 1.26300
Ag	Ag	0.75912 0.63305 0.77841 0.52300
Ag	Ag	0.87393 0.24088 0.77841 0.52300
Ag	Ag	0.36695 0.12607 0.77841 0.52300
H 	H 	0.01990 0.56620 0.28560 0.13000
H 	H 	0.20670 0.51940 0.10850 0.02800
H 	H 	0.93390 0.43750 0.20330 0.00800
H 	H 	0.12710 0.42950 0.99260 0.05500
H 	H 	0.85530 0.34990 0.08880 0.05700
H 	H 	0.16990 0.65010 0.52050 0.03600
H 	H 	0.94820 0.61150 0.37110 -0.00300
H 	H 	0.08020 0.66230 0.62790 0.06000
H 	H 	0.85350 0.61550 0.47830 0.06700
H 	H 	0.54630 0.98010 0.28560 0.13100
H 	H 	0.31270 0.79330 0.10850 0.02900
H 	H 	0.50360 0.06610 0.20330 0.00900
H 	H 	0.30240 0.87290 0.99260 0.05500
H 	H 	0.49460 0.14470 0.08880 0.05800
H 	H 	0.48020 0.83010 0.52050 0.03700
H 	H 	0.66330 0.05180 0.37110 -0.00300
H 	H 	0.58210 0.91980 0.62790 0.06000
H 	H 	0.76200 0.14650 0.47830 0.06700
H 	H 	0.43380 0.45370 0.28560 0.13100
H 	H 	0.48060 0.68730 0.10850 0.02800
H 	H 	0.56250 0.49640 0.20330 0.00800
H 	H 	0.57050 0.69760 0.99260 0.05700
H 	H 	0.65010 0.50540 0.08880 0.05900
H 	H 	0.34990 0.51980 0.52050 0.03700
H 	H 	0.38850 0.33670 0.37110 -0.00300
H 	H 	0.33770 0.41790 0.62790 0.06000
H 	H 	0.38450 0.23800 0.47830 0.06700
C 	C 	0.12770 0.61810 0.37000 0.28300
C 	C 	0.08400 0.57590 0.29700 -0.37900
C 	C 	0.13290 0.54690 0.23860 0.27200
C 	C 	0.07910 0.49010 0.16630 -0.11400
C 	C 	0.13640 0.48610 0.10420 0.01400
C 	C 	0.97270 0.43690 0.16060 0.01700
C 	C 	0.08920 0.43230 0.03510 -0.09800
C 	C 	0.92560 0.38420 0.09300 -0.10300
C 	C 	0.98460 0.38300 0.03140 0.02200
C 	C 	0.93570 0.32660 0.95880 0.05500
C 	C 	0.06720 0.62600 0.43630 -0.10600
C 	C 	0.10640 0.64330 0.51210 0.02900
C 	C 	0.97330 0.61910 0.42290 0.02500
C 	C 	0.05300 0.65060 0.57670 -0.10200
C 	C 	0.91760 0.62350 0.48640 -0.10200
C 	C 	0.95940 0.64030 0.56300 0.03000
C 	C 	0.90310 0.64870 0.62910 0.06200
C 	C 	0.49040 0.87230 0.37000 0.28300
C 	C 	0.49190 0.91600 0.29700 -0.37900
C 	C 	0.41400 0.86710 0.23860 0.27200
C 	C 	0.41100 0.92090 0.16630 -0.11300
C 	C 	0.34970 0.86360 0.10420 0.01300
C 	C 	0.46420 0.02730 0.16060 0.01700
C 	C 	0.34310 0.91080 0.03510 -0.09700
C 	C 	0.45860 0.07440 0.09300 -0.10300
C 	C 	0.39840 0.01540 0.03140 0.02200
C 	C 	0.39090 0.06430 0.95880 0.05400
C 	C 	0.55880 0.93280 0.43630 -0.10600
C 	C 	0.53690 0.89360 0.51210 0.02900
C 	C 	0.64580 0.02670 0.42290 0.02500
C 	C 	0.59760 0.94700 0.57670 -0.10200
C 	C 	0.70590 0.08240 0.48640 -0.10200
C 	C 	0.68090 0.04060 0.56300 0.03000
C 	C 	0.74560 0.09690 0.62910 0.06200
C 	C 	0.38190 0.50960 0.37000 0.28300
C 	C 	0.42410 0.50810 0.29700 -0.38000
C 	C 	0.45310 0.58600 0.23860 0.27200
C 	C 	0.50990 0.58900 0.16630 -0.11600
C 	C 	0.51390 0.65030 0.10420 0.01600
C 	C 	0.56310 0.53580 0.16060 0.02000
C 	C 	0.56770 0.65690 0.03510 -0.10200
C 	C 	0.61580 0.54140 0.09300 -0.10600
C 	C 	0.61700 0.60160 0.03140 0.02500
C 	C 	0.67340 0.60910 0.95880 0.05300
C 	C 	0.37400 0.44120 0.43630 -0.10600
C 	C 	0.35670 0.46310 0.51210 0.02900
C 	C 	0.38090 0.35420 0.42290 0.02500
C 	C 	0.34940 0.40240 0.57670 -0.10200
C 	C 	0.37650 0.29410 0.48640 -0.10200
C 	C 	0.35970 0.31910 0.56300 0.03000
C 	C 	0.35130 0.25440 0.62910 0.06200
N 	N 	0.85710 0.65220 0.68220 -0.19800
N 	N 	0.89760 0.28460 0.90160 -0.20000
N 	N 	0.79510 0.14290 0.68220 -0.19800
N 	N 	0.38700 0.10240 0.90160 -0.20000
N 	N 	0.34780 0.20490 0.68220 -0.19800
N 	N 	0.71540 0.61300 0.90160 -0.20000
O 	O 	0.22050 0.65010 0.38680 -0.38700
O 	O 	0.22440 0.56700 0.24530 -0.40600
O 	O 	0.42960 0.77950 0.38680 -0.38700
O 	O 	0.34260 0.77560 0.24530 -0.40600
O 	O 	0.34990 0.57040 0.38680 -0.38700
O 	O 	0.43300 0.65740 0.24530 -0.40600
Fe	Fe	0.66667 0.33334 0.68260 1.26400
Ag	Ag	0.24088 0.36695 0.22159 0.52400
Ag	Ag	0.12607 0.75912 0.22159 0.52400
Ag	Ag	0.63305 0.87393 0.22159 0.52400
H 	H 	0.98010 0.43380 0.71440 0.13100
H 	H 	0.79330 0.48060 0.89150 0.02900
H 	H 	0.06610 0.56250 0.79670 0.00900
H 	H 	0.87290 0.57050 0.00740 0.05600
H 	H 	0.14470 0.65010 0.91120 0.05800
H 	H 	0.83010 0.34990 0.47950 0.03700
H 	H 	0.05180 0.38850 0.62890 -0.00300
H 	H 	0.91980 0.33770 0.37210 0.06000
H 	H 	0.14650 0.38450 0.52170 0.06700
H 	H 	0.45370 0.01990 0.71440 0.13100
H 	H 	0.68730 0.20670 0.89150 0.02900
H 	H 	0.49640 0.93390 0.79670 0.00900
H 	H 	0.69760 0.12710 0.00740 0.05500
H 	H 	0.50540 0.85530 0.91120 0.05800
H 	H 	0.51980 0.16990 0.47950 0.03700
H 	H 	0.33670 0.94820 0.62890 -0.00300
H 	H 	0.41790 0.08020 0.37210 0.06000
H 	H 	0.23800 0.85350 0.52170 0.06700
H 	H 	0.56620 0.54630 0.71440 0.13100
H 	H 	0.51940 0.31270 0.89150 0.02800
H 	H 	0.43750 0.50360 0.79670 0.00800
H 	H 	0.42950 0.30240 0.00740 0.05700
H 	H 	0.34990 0.49460 0.91120 0.05900
H 	H 	0.65010 0.48020 0.47950 0.03700
H 	H 	0.61150 0.66330 0.62890 -0.00300
H 	H 	0.66230 0.58210 0.37210 0.06000
H 	H 	0.61550 0.76200 0.52170 0.06700
C 	C 	0.87230 0.38190 0.63000 0.28300
C 	C 	0.91600 0.42410 0.70300 -0.37900
C 	C 	0.86710 0.45310 0.76140 0.27200
C 	C 	0.92090 0.50990 0.83370 -0.11400
C 	C 	0.86360 0.51390 0.89580 0.01400
C 	C 	0.02730 0.56310 0.83940 0.01700
C 	C 	0.91080 0.56770 0.96490 -0.09800
C 	C 	0.07440 0.61580 0.90700 -0.10300
C 	C 	0.01540 0.61700 0.96860 0.02200
C 	C 	0.06430 0.67340 0.04120 0.05500
C 	C 	0.93280 0.37400 0.56370 -0.10600
C 	C 	0.89360 0.35670 0.48790 0.02900
C 	C 	0.02670 0.38090 0.57710 0.02500
C 	C 	0.94700 0.34940 0.42330 -0.10200
C 	C 	0.08240 0.37650 0.51360 -0.10200
C 	C 	0.04060 0.35970 0.43700 0.03000
C 	C 	0.09690 0.35130 0.37090 0.06200
C 	C 	0.50960 0.12770 0.63000 0.28300
C 	C 	0.50810 0.08400 0.70300 -0.37900
C 	C 	0.58600 0.13290 0.76140 0.27200
C 	C 	0.58900 0.07910 0.83370 -0.11300
C 	C 	0.65030 0.13640 0.89580 0.01300
C 	C 	0.53580 0.97270 0.83940 0.01700
C 	C 	0.65690 0.08920 0.96490 -0.09700
C 	C 	0.54140 0.92560 0.90700 -0.10300
C 	C 	0.60160 0.98460 0.96860 0.02200
C 	C 	0.60910 0.93570 0.04120 0.05400
C 	C 	0.44120 0.06720 0.56370 -0.10600
C 	C 	0.46310 0.10640 0.48790 0.02900
C 	C 	0.35420 0.97330 0.57710 0.02500
C 	C 	0.40240 0.05300 0.42330 -0.10200
C 	C 	0.29410 0.91760 0.51360 -0.10200
C 	C 	0.31910 0.95940 0.43700 0.03000
C 	C 	0.25440 0.90310 0.37090 0.06200
C 	C 	0.61810 0.49040 0.63000 0.28300
C 	C 	0.57590 0.49190 0.70300 -0.38000
C 	C 	0.54690 0.41400 0.76140 0.27200
C 	C 	0.49010 0.41100 0.83370 -0.11600
C 	C 	0.48610 0.34970 0.89580 0.01600
C 	C 	0.43690 0.46420 0.83940 0.02000
C 	C 	0.43230 0.34310 0.96490 -0.10200
C 	C 	0.38420 0.45860 0.90700 -0.10600
C 	C 	0.38300 0.39840 0.96860 0.02500
C 	C 	0.32660 0.39090 0.04120 0.05300
C 	C 	0.62600 0.55880 0.56370 -0.10600
C 	C 	0.64330 0.53690 0.48790 0.02900
C 	C 	0.61910 0.64580 0.57710 0.02500
C 	C 	0.65060 0.59760 0.42330 -0.10200
C 	C 	0.62350 0.70590 0.51360 -0.10200
C 	C 	0.64030 0.68090 0.43700 0.03000
C 	C 	0.64870 0.74560 0.37090 0.06200
N 	N 	0.14290 0.34780 0.31780 -0.19800
N 	N 	0.10240 0.71540 0.09840 -0.20000
N 	N 	0.20490 0.85710 0.31780 -0.19800
N 	N 	0.61300 0.89760 0.09840 -0.20000
N 	N 	0.65220 0.79510 0.31780 -0.19800
N 	N 	0.28460 0.38700 0.09840 -0.20000
O 	O 	0.77950 0.34990 0.61320 -0.38700
O 	O 	0.77560 0.43300 0.75470 -0.40600
O 	O 	0.57040 0.22050 0.61320 -0.38700
O 	O 	0.65740 0.22440 0.75470 -0.40600
O 	O 	0.65010 0.42960 0.61320 -0.38700
O 	O 	0.56700 0.34260 0.75470 -0.40600
