data_crystal

_cell_length_a 15.80840
_cell_length_b 15.80840
_cell_length_c 16.58230
_cell_angle_alpha 90.00000
_cell_angle_beta  90.00000
_cell_angle_gamma 120.00000

_symmetry_space_group_name_	'P 1'
_symmetry_space_group_name_H-M	'P 1'

loop_
_symmetry_equiv_pos_as_xyz
  x,y,z

loop_
_atom_site_label
_atom_site_type_symbol
_atom_site_fract_x
_atom_site_fract_y
_atom_site_fract_z
_atom_site_charge
C 	C 	0.87070 0.40680 0.24020 0.30100
C 	C 	0.91910 0.48520 0.29900 -0.40900
H 	H 	0.97910 0.53850 0.28510 0.15400
C 	C 	0.88090 0.48540 0.37520 0.30100
C 	C 	0.94750 0.56000 0.43630 -0.11400
C 	C 	0.91100 0.55280 0.51380 0.05100
H 	H 	0.84810 0.50250 0.52490 0.03600
C 	C 	0.04100 0.62900 0.42230 0.04700
H 	H 	0.06750 0.63150 0.37170 0.01800
C 	C 	0.96290 0.61570 0.57410 -0.11500
H 	H 	0.93580 0.60910 0.62510 0.10300
C 	C 	0.09910 0.69600 0.47960 -0.09800
H 	H 	0.16310 0.74360 0.46800 0.07600
C 	C 	0.05760 0.69010 0.55790 0.03900
C 	C 	0.11700 0.75740 0.62110 0.09200
C 	C 	0.92790 0.40720 0.16670 -0.14700
C 	C 	0.87490 0.35270 0.10310 0.07100
H 	H 	0.80710 0.31670 0.10630 0.01300
C 	C 	0.02330 0.45520 0.16010 0.07800
H 	H 	0.06080 0.49310 0.20310 0.02200
C 	C 	0.92300 0.35100 0.03220 -0.14400
H 	H 	0.88710 0.31600 0.98750 0.10000
C 	C 	0.07110 0.45070 0.08860 -0.14800
H 	H 	0.13890 0.48480 0.08550 0.09600
C 	C 	0.02120 0.40020 0.02950 0.09500
C 	C 	0.07110 0.40260 0.95720 0.05200
N 	N 	0.10580 0.39820 0.89550 -0.17000
N 	N 	0.16130 0.80670 0.66910 -0.18000
O 	O 	0.78570 0.34060 0.24470 -0.42500
O 	O 	0.79760 0.42730 0.39880 -0.39500
Ag	Ag	0.87169 0.59798 0.23505 0.56300
O 	O 	0.03670 0.73430 0.25020 -0.40300
O 	O 	0.23770 0.87210 0.26380 -0.36200
O 	O 	0.14770 0.82240 0.11160 -0.36300
Re	Re	0.15067 0.78370 0.20512 1.10000
O 	O 	0.17660 0.68870 0.20060 -0.34500
C 	C 	0.59320 0.46390 0.24020 0.30100
C 	C 	0.51480 0.43390 0.29900 -0.41000
H 	H 	0.46150 0.44060 0.28510 0.15300
C 	C 	0.51460 0.39550 0.37520 0.30000
C 	C 	0.44000 0.38750 0.43630 -0.11600
C 	C 	0.44720 0.35820 0.51380 0.05000
H 	H 	0.49750 0.34560 0.52490 0.03500
C 	C 	0.37100 0.41200 0.42230 0.04600
H 	H 	0.36850 0.43600 0.37170 0.01700
C 	C 	0.38430 0.34720 0.57410 -0.11600
H 	H 	0.39090 0.32670 0.62510 0.10300
C 	C 	0.30400 0.40310 0.47960 -0.09900
H 	H 	0.25640 0.41950 0.46800 0.07600
C 	C 	0.30990 0.36750 0.55790 0.03900
C 	C 	0.24260 0.35960 0.62110 0.09200
C 	C 	0.59280 0.52070 0.16670 -0.14900
C 	C 	0.64730 0.52220 0.10310 0.07300
H 	H 	0.68330 0.49040 0.10630 0.01300
C 	C 	0.54480 0.56810 0.16010 0.08000
H 	H 	0.50690 0.56770 0.20310 0.02100
C 	C 	0.64900 0.57200 0.03220 -0.14700
H 	H 	0.68400 0.57110 0.98750 0.10100
C 	C 	0.54930 0.62040 0.08860 -0.15000
H 	H 	0.51520 0.65410 0.08550 0.09700
C 	C 	0.59980 0.62100 0.02950 0.09800
C 	C 	0.59740 0.66850 0.95720 0.05100
N 	N 	0.60180 0.70760 0.89550 -0.17000
N 	N 	0.19330 0.35460 0.66910 -0.18000
O 	O 	0.65940 0.44510 0.24470 -0.42500
O 	O 	0.57270 0.37030 0.39880 -0.39500
Ag	Ag	0.40202 0.27371 0.23505 0.56300
O 	O 	0.26570 0.30240 0.25020 -0.40300
O 	O 	0.12790 0.36560 0.26380 -0.36200
O 	O 	0.17760 0.32530 0.11160 -0.36300
Re	Re	0.21630 0.36697 0.20512 1.10000
O 	O 	0.31130 0.48790 0.20060 -0.34500
C 	C 	0.53610 0.12930 0.24020 0.30000
C 	C 	0.56610 0.08090 0.29900 -0.41000
H 	H 	0.55940 0.02090 0.28510 0.15300
C 	C 	0.60450 0.11910 0.37520 0.30000
C 	C 	0.61250 0.05250 0.43630 -0.11600
C 	C 	0.64180 0.08900 0.51380 0.05000
H 	H 	0.65440 0.15190 0.52490 0.03500
C 	C 	0.58800 0.95900 0.42230 0.04600
H 	H 	0.56400 0.93250 0.37170 0.01700
C 	C 	0.65280 0.03710 0.57410 -0.11700
H 	H 	0.67330 0.06420 0.62510 0.10300
C 	C 	0.59690 0.90090 0.47960 -0.09900
H 	H 	0.58050 0.83690 0.46800 0.07600
C 	C 	0.63250 0.94240 0.55790 0.03900
C 	C 	0.64040 0.88300 0.62110 0.09200
C 	C 	0.47930 0.07210 0.16670 -0.14700
C 	C 	0.47780 0.12510 0.10310 0.07000
H 	H 	0.50960 0.19290 0.10630 0.01300
C 	C 	0.43190 0.97670 0.16010 0.07800
H 	H 	0.43230 0.93920 0.20310 0.02200
C 	C 	0.42800 0.07700 0.03220 -0.14400
H 	H 	0.42890 0.11290 0.98750 0.10000
C 	C 	0.37960 0.92890 0.08860 -0.14700
H 	H 	0.34590 0.86110 0.08550 0.09600
C 	C 	0.37900 0.97880 0.02950 0.09500
C 	C 	0.33150 0.92890 0.95720 0.05200
N 	N 	0.29240 0.89420 0.89550 -0.17000
N 	N 	0.64540 0.83870 0.66910 -0.18000
O 	O 	0.55490 0.21430 0.24470 -0.42500
O 	O 	0.62970 0.20240 0.39880 -0.39500
Ag	Ag	0.72629 0.12831 0.23505 0.56300
O 	O 	0.69760 0.96330 0.25020 -0.40300
O 	O 	0.63440 0.76230 0.26380 -0.36100
O 	O 	0.67470 0.85230 0.11160 -0.36300
Re	Re	0.63303 0.84933 0.20512 1.10000
O 	O 	0.51210 0.82340 0.20060 -0.34500
C 	C 	0.12930 0.59320 0.75980 0.30000
C 	C 	0.08090 0.51480 0.70100 -0.41000
H 	H 	0.02090 0.46150 0.71490 0.15300
C 	C 	0.11910 0.51460 0.62480 0.30000
C 	C 	0.05250 0.44000 0.56370 -0.11500
C 	C 	0.08900 0.44720 0.48620 0.05000
H 	H 	0.15190 0.49750 0.47510 0.03500
C 	C 	0.95900 0.37100 0.57770 0.04600
H 	H 	0.93250 0.36850 0.62830 0.01700
C 	C 	0.03710 0.38430 0.42590 -0.11600
H 	H 	0.06420 0.39090 0.37490 0.10300
C 	C 	0.90090 0.30400 0.52040 -0.09800
H 	H 	0.83690 0.25640 0.53200 0.07600
C 	C 	0.94240 0.30990 0.44210 0.03900
C 	C 	0.88300 0.24260 0.37890 0.09200
C 	C 	0.07210 0.59280 0.83330 -0.14700
C 	C 	0.12510 0.64730 0.89690 0.07100
H 	H 	0.19290 0.68330 0.89370 0.01300
C 	C 	0.97670 0.54480 0.83990 0.07800
H 	H 	0.93920 0.50690 0.79690 0.02200
C 	C 	0.07700 0.64900 0.96780 -0.14400
H 	H 	0.11290 0.68400 0.01250 0.10000
C 	C 	0.92890 0.54930 0.91140 -0.14800
H 	H 	0.86110 0.51520 0.91450 0.09600
C 	C 	0.97880 0.59980 0.97050 0.09500
C 	C 	0.92890 0.59740 0.04280 0.05200
N 	N 	0.89420 0.60180 0.10450 -0.17000
N 	N 	0.83870 0.19330 0.33090 -0.18000
O 	O 	0.21430 0.65940 0.75530 -0.42500
O 	O 	0.20240 0.57270 0.60120 -0.39500
Ag	Ag	0.12831 0.40202 0.76495 0.56300
O 	O 	0.96330 0.26570 0.74980 -0.40300
O 	O 	0.76230 0.12790 0.73620 -0.36200
O 	O 	0.85230 0.17760 0.88840 -0.36300
Re	Re	0.84933 0.21630 0.79488 1.10000
O 	O 	0.82340 0.31130 0.79940 -0.34500
C 	C 	0.40680 0.53610 0.75980 0.30100
C 	C 	0.48520 0.56610 0.70100 -0.41000
H 	H 	0.53850 0.55940 0.71490 0.15300
C 	C 	0.48540 0.60450 0.62480 0.30000
C 	C 	0.56000 0.61250 0.56370 -0.11600
C 	C 	0.55280 0.64180 0.48620 0.05000
H 	H 	0.50250 0.65440 0.47510 0.03500
C 	C 	0.62900 0.58800 0.57770 0.04600
H 	H 	0.63150 0.56400 0.62830 0.01700
C 	C 	0.61570 0.65280 0.42590 -0.11600
H 	H 	0.60910 0.67330 0.37490 0.10300
C 	C 	0.69600 0.59690 0.52040 -0.09900
H 	H 	0.74360 0.58050 0.53200 0.07600
C 	C 	0.69010 0.63250 0.44210 0.03900
C 	C 	0.75740 0.64040 0.37890 0.09200
C 	C 	0.40720 0.47930 0.83330 -0.14900
C 	C 	0.35270 0.47780 0.89690 0.07300
H 	H 	0.31670 0.50960 0.89370 0.01300
C 	C 	0.45520 0.43190 0.83990 0.08000
H 	H 	0.49310 0.43230 0.79690 0.02100
C 	C 	0.35100 0.42800 0.96780 -0.14700
H 	H 	0.31600 0.42890 0.01250 0.10100
C 	C 	0.45070 0.37960 0.91140 -0.15000
H 	H 	0.48480 0.34590 0.91450 0.09700
C 	C 	0.40020 0.37900 0.97050 0.09800
C 	C 	0.40260 0.33150 0.04280 0.05100
N 	N 	0.39820 0.29240 0.10450 -0.17000
N 	N 	0.80670 0.64540 0.33090 -0.18000
O 	O 	0.34060 0.55490 0.75530 -0.42500
O 	O 	0.42730 0.62970 0.60120 -0.39500
Ag	Ag	0.59798 0.72629 0.76495 0.56300
O 	O 	0.73430 0.69760 0.74980 -0.40300
O 	O 	0.87210 0.63440 0.73620 -0.36200
O 	O 	0.82240 0.67470 0.88840 -0.36300
Re	Re	0.78370 0.63303 0.79488 1.10000
O 	O 	0.68870 0.51210 0.79940 -0.34500
C 	C 	0.46390 0.87070 0.75980 0.30000
C 	C 	0.43390 0.91910 0.70100 -0.41000
H 	H 	0.44060 0.97910 0.71490 0.15300
C 	C 	0.39550 0.88090 0.62480 0.30000
C 	C 	0.38750 0.94750 0.56370 -0.11600
C 	C 	0.35820 0.91100 0.48620 0.05000
H 	H 	0.34560 0.84810 0.47510 0.03500
C 	C 	0.41200 0.04100 0.57770 0.04600
H 	H 	0.43600 0.06750 0.62830 0.01700
C 	C 	0.34720 0.96290 0.42590 -0.11700
H 	H 	0.32670 0.93580 0.37490 0.10300
C 	C 	0.40310 0.09910 0.52040 -0.09900
H 	H 	0.41950 0.16310 0.53200 0.07600
C 	C 	0.36750 0.05760 0.44210 0.03900
C 	C 	0.35960 0.11700 0.37890 0.09200
C 	C 	0.52070 0.92790 0.83330 -0.14700
C 	C 	0.52220 0.87490 0.89690 0.07000
H 	H 	0.49040 0.80710 0.89370 0.01300
C 	C 	0.56810 0.02330 0.83990 0.07800
H 	H 	0.56770 0.06080 0.79690 0.02200
C 	C 	0.57200 0.92300 0.96780 -0.14400
H 	H 	0.57110 0.88710 0.01250 0.10000
C 	C 	0.62040 0.07110 0.91140 -0.14700
H 	H 	0.65410 0.13890 0.91450 0.09600
C 	C 	0.62100 0.02120 0.97050 0.09500
C 	C 	0.66850 0.07110 0.04280 0.05200
N 	N 	0.70760 0.10580 0.10450 -0.17000
N 	N 	0.35460 0.16130 0.33090 -0.18000
O 	O 	0.44510 0.78570 0.75530 -0.42500
O 	O 	0.37030 0.79760 0.60120 -0.39500
Ag	Ag	0.27371 0.87169 0.76495 0.56300
O 	O 	0.30240 0.03670 0.74980 -0.40300
O 	O 	0.36560 0.23770 0.73620 -0.36100
O 	O 	0.32530 0.14770 0.88840 -0.36300
Re	Re	0.36697 0.15067 0.79488 1.10000
O 	O 	0.48790 0.17660 0.79940 -0.34500
Cd	Cd	0.66667 0.33333 0.32406 1.25800
Cd	Cd	0.33333 0.66667 0.67594 1.25800
