data_crystal

_cell_length_a 9.07180
_cell_length_b 9.07180
_cell_length_c 16.89100
_cell_angle_alpha 90.00000
_cell_angle_beta  90.00000
_cell_angle_gamma 120.00000

_symmetry_space_group_name_	'P 1'
_symmetry_space_group_name_H-M	'P 1'

loop_
_symmetry_equiv_pos_as_xyz
  x,y,z

loop_
_atom_site_label
_atom_site_type_symbol
_atom_site_fract_x
_atom_site_fract_y
_atom_site_fract_z
_atom_site_charge
Cu	Cu	0.54223 1.00000 -0.00000 0.86400
Cu	Cu	0.45777 0.45777 0.33333 0.90200
Cu	Cu	0.00000 0.54223 0.66667 0.87700
H 	H 	0.08170 0.77540 0.22820 -0.02500
H 	H 	0.98790 0.58560 0.33500 0.19000
H 	H 	0.15070 0.47000 0.37570 -0.03700
H 	H 	0.47870 0.70430 0.20710 0.00600
H 	H 	0.69370 0.91830 0.56153 -0.00400
H 	H 	0.59770 0.01210 0.66833 0.17600
H 	H 	0.31930 0.84930 0.70903 -0.03400
H 	H 	0.22560 0.52130 0.54043 -0.00000
H 	H 	0.22460 0.30630 0.89487 0.05600
H 	H 	0.41440 0.40230 0.00167 0.03000
H 	H 	0.53000 0.68070 0.04237 -0.03800
H 	H 	0.29570 0.77440 0.87377 0.01200
H 	H 	0.30630 0.22460 0.77180 0.04100
H 	H 	0.40230 0.41440 0.66500 0.08600
H 	H 	0.68070 0.53000 0.62430 0.01000
H 	H 	0.77440 0.29570 0.79290 0.03600
H 	H 	0.77540 0.08170 0.43847 0.09200
H 	H 	0.58560 0.98790 0.33167 0.00300
H 	H 	0.47000 0.15070 0.29097 0.04200
H 	H 	0.70430 0.47870 0.45957 0.02900
H 	H 	0.91830 0.69370 0.10513 0.06800
H 	H 	0.01210 0.59770 0.99833 0.04700
H 	H 	0.84930 0.31930 0.95763 0.09800
H 	H 	0.52130 0.22560 0.12623 0.03300
C 	C 	0.34770 0.87060 0.13380 0.36100
C 	C 	0.28810 0.75810 0.20640 -0.19200
C 	C 	0.14360 0.72450 0.24460 0.16400
C 	C 	0.08840 0.61260 0.30870 -0.31700
C 	C 	0.18620 0.54300 0.33240 0.15800
C 	C 	0.37950 0.68090 0.23360 0.11500
C 	C 	0.52290 0.65230 0.46713 0.35700
C 	C 	0.47000 0.71190 0.53973 -0.17400
C 	C 	0.58090 0.85640 0.57793 0.14500
C 	C 	0.52420 0.91160 0.64203 -0.28200
C 	C 	0.35680 0.81380 0.66573 0.14200
C 	C 	0.30140 0.62050 0.56693 0.10600
C 	C 	0.12940 0.47710 0.80047 0.33600
C 	C 	0.24190 0.53000 0.87307 -0.11500
C 	C 	0.27550 0.41910 0.91127 0.01800
C 	C 	0.38740 0.47580 0.97537 -0.04700
C 	C 	0.45700 0.64320 0.99907 0.12300
C 	C 	0.31910 0.69860 0.90027 0.07900
C 	C 	0.47710 0.12940 0.86620 0.33900
C 	C 	0.53000 0.24190 0.79360 -0.11200
C 	C 	0.41910 0.27550 0.75540 0.05300
C 	C 	0.47580 0.38740 0.69130 -0.11900
C 	C 	0.64320 0.45700 0.66760 0.07100
C 	C 	0.69860 0.31910 0.76640 0.08100
C 	C 	0.87060 0.34770 0.53287 0.32300
C 	C 	0.75810 0.28810 0.46027 -0.06900
C 	C 	0.72450 0.14360 0.42207 -0.03300
C 	C 	0.61260 0.08840 0.35797 0.03700
C 	C 	0.54300 0.18620 0.33427 -0.00100
C 	C 	0.68090 0.37950 0.43307 0.05600
C 	C 	0.65230 0.52290 0.19953 0.33000
C 	C 	0.71190 0.47000 0.12693 -0.08900
C 	C 	0.85640 0.58090 0.08873 -0.00300
C 	C 	0.91160 0.52420 0.02463 -0.02400
C 	C 	0.81380 0.35680 0.00093 -0.05800
C 	C 	0.62050 0.30140 0.09973 0.06500
N 	N 	0.33140 0.57660 0.29500 -0.24100
N 	N 	0.24520 0.66860 0.62833 -0.24300
N 	N 	0.42340 0.75480 0.96167 -0.21600
N 	N 	0.75480 0.42340 0.70500 -0.20400
N 	N 	0.57660 0.33140 0.37167 -0.19800
N 	N 	0.66860 0.24520 0.03833 -0.18700
O 	O 	0.24740 0.91000 0.10250 -0.33500
O 	O 	0.49250 0.91220 0.10880 -0.42300
O 	O 	0.66260 0.75260 0.43583 -0.29800
O 	O 	0.41970 0.50750 0.44213 -0.40600
O 	O 	0.09000 0.33740 0.76917 -0.30000
O 	O 	0.08780 0.58030 0.77547 -0.41600
O 	O 	0.33740 0.09000 0.89750 -0.26100
O 	O 	0.58030 0.08780 0.89120 -0.35900
O 	O 	0.91000 0.24740 0.56417 -0.25000
O 	O 	0.91220 0.49250 0.55787 -0.37200
O 	O 	0.75260 0.66260 0.23083 -0.27800
O 	O 	0.50750 0.41970 0.22453 -0.39700
