data_crystal

_cell_length_a 9.81960
_cell_length_b 10.34210
_cell_length_c 11.01330
_cell_angle_alpha 77.27800
_cell_angle_beta  76.39800
_cell_angle_gamma 65.79300

_symmetry_space_group_name_	'P 1'
_symmetry_space_group_name_H-M	'P 1'

loop_
_symmetry_equiv_pos_as_xyz
  x,y,z

loop_
_atom_site_label
_atom_site_type_symbol
_atom_site_fract_x
_atom_site_fract_y
_atom_site_fract_z
_atom_site_charge
Y 	Y 	0.94387 0.22767 0.82406 2.36300
Y 	Y 	0.05613 0.77233 0.17594 2.36300
H 	H 	0.64970 0.85970 0.15160 0.02200
H 	H 	0.59930 0.11780 0.81930 0.03600
H 	H 	0.43450 0.41630 0.70950 0.03500
H 	H 	0.74170 0.50010 0.42350 0.05000
H 	H 	0.30910 0.92120 0.50390 0.05200
H 	H 	0.45310 0.18700 0.60740 0.05100
H 	H 	0.35030 0.14030 0.84840 0.02100
H 	H 	0.40070 0.88220 0.18070 0.03500
H 	H 	0.56550 0.58370 0.29050 0.03500
H 	H 	0.25830 0.49990 0.57650 0.05000
H 	H 	0.69090 0.07880 0.49610 0.05200
H 	H 	0.54690 0.81300 0.39260 0.05100
C 	C 	0.64950 0.98660 0.98220 -0.17200
C 	C 	0.58950 0.91580 0.09110 0.00400
C 	C 	0.55920 0.07070 0.89160 -0.00600
C 	C 	0.80890 0.97700 0.96670 0.47700
C 	C 	0.60760 0.44850 0.58060 -0.06900
C 	C 	0.46060 0.44980 0.62530 -0.02600
C 	C 	0.64500 0.49990 0.45420 -0.02900
C 	C 	0.72280 0.38940 0.66660 0.30400
C 	C 	0.35580 0.06600 0.56720 -0.05700
C 	C 	0.38550 0.95290 0.50230 -0.03500
C 	C 	0.47190 0.11210 0.56420 -0.02800
C 	C 	0.20390 0.13260 0.64600 0.30200
C 	C 	0.35050 0.01340 0.01780 -0.17200
C 	C 	0.41050 0.08420 0.90890 0.00400
C 	C 	0.44080 0.92930 0.10840 -0.00600
C 	C 	0.19110 0.02300 0.03330 0.47700
C 	C 	0.39240 0.55150 0.41940 -0.06900
C 	C 	0.53940 0.55020 0.37470 -0.02600
C 	C 	0.35500 0.50010 0.54580 -0.02900
C 	C 	0.27720 0.61060 0.33340 0.30400
C 	C 	0.64420 0.93400 0.43280 -0.05700
C 	C 	0.61450 0.04710 0.49770 -0.03500
C 	C 	0.52810 0.88790 0.43580 -0.02800
C 	C 	0.79610 0.86740 0.35400 0.30200
O 	O 	0.85790 0.04640 0.87040 -0.63200
O 	O 	0.88430 0.89970 0.05200 -0.67500
O 	O 	0.85850 0.37510 0.62490 -0.48200
O 	O 	0.68410 0.34980 0.78210 -0.52900
O 	O 	0.16990 0.24970 0.68400 -0.49000
O 	O 	0.11530 0.06470 0.67750 -0.46500
O 	O 	0.14210 0.95360 0.12960 -0.63200
O 	O 	0.11570 0.10030 0.94800 -0.67500
O 	O 	0.14150 0.62490 0.37510 -0.48200
O 	O 	0.31590 0.65020 0.21790 -0.52900
O 	O 	0.83010 0.75030 0.31600 -0.49000
O 	O 	0.88470 0.93530 0.32250 -0.46500
