data_crystal

_cell_length_a 9.62920
_cell_length_b 11.10060
_cell_length_c 16.02630
_cell_angle_alpha 91.06600
_cell_angle_beta  90.00000
_cell_angle_gamma 90.00000

_symmetry_space_group_name_	'P 1'
_symmetry_space_group_name_H-M	'P 1'

loop_
_symmetry_equiv_pos_as_xyz
  x,y,z

loop_
_atom_site_label
_atom_site_type_symbol
_atom_site_fract_x
_atom_site_fract_y
_atom_site_fract_z
_atom_site_charge
Y 	Y 	0.78942 0.50488 0.00966 2.38500
Y 	Y 	0.28942 0.99512 0.49034 2.38500
Y 	Y 	0.21058 0.49512 0.99034 2.38500
Y 	Y 	0.71058 0.00488 0.50966 2.38500
H 	H 	0.16180 0.37020 0.77200 0.00500
H 	H 	0.18620 0.25250 0.65280 0.03700
H 	H 	0.78050 0.28240 0.60730 0.01200
H 	H 	0.75400 0.39930 0.72700 0.04900
H 	H 	0.20280 0.10240 0.03260 0.04200
H 	H 	0.79310 0.10470 0.98450 0.05100
H 	H 	0.66180 0.12980 0.72800 0.00400
H 	H 	0.68620 0.24750 0.84720 0.03800
H 	H 	0.28050 0.21760 0.89270 0.01300
H 	H 	0.25400 0.10070 0.77300 0.05000
H 	H 	0.70280 0.39760 0.46740 0.04900
H 	H 	0.29310 0.39530 0.51550 0.04900
H 	H 	0.83820 0.62980 0.22800 0.00500
H 	H 	0.81380 0.74750 0.34720 0.03700
H 	H 	0.21950 0.71760 0.39270 0.01200
H 	H 	0.24600 0.60070 0.27300 0.04900
H 	H 	0.79720 0.89760 0.96740 0.04200
H 	H 	0.20690 0.89530 0.01550 0.05100
H 	H 	0.33820 0.87020 0.27200 0.00400
H 	H 	0.31380 0.75250 0.15280 0.03800
H 	H 	0.71950 0.78240 0.10730 0.01300
H 	H 	0.74600 0.89930 0.22700 0.05000
H 	H 	0.29720 0.60240 0.53260 0.04900
H 	H 	0.70690 0.60470 0.48450 0.04900
C 	C 	0.95480 0.39270 0.76440 -0.12000
C 	C 	0.08410 0.35090 0.74000 -0.00800
C 	C 	0.09880 0.28080 0.66840 0.00700
C 	C 	0.98420 0.25240 0.61960 -0.15700
C 	C 	0.85700 0.29840 0.64120 0.00400
C 	C 	0.84090 0.36840 0.71300 -0.02000
C 	C 	0.93090 0.45350 0.84800 0.45200
C 	C 	0.99830 0.16510 0.54670 0.48800
C 	C 	0.99860 0.12490 0.00940 -0.12600
C 	C 	0.12140 0.06120 0.01930 0.01500
C 	C 	0.87600 0.06280 0.99050 -0.01700
C 	C 	0.99870 0.26040 0.01890 0.45000
C 	C 	0.45480 0.10730 0.73560 -0.12000
C 	C 	0.58410 0.14910 0.76000 -0.00500
C 	C 	0.59880 0.21920 0.83160 0.00200
C 	C 	0.48420 0.24760 0.88040 -0.15400
C 	C 	0.35700 0.20160 0.85880 0.00300
C 	C 	0.34090 0.13160 0.78700 -0.02000
C 	C 	0.43090 0.04650 0.65200 0.44700
C 	C 	0.49830 0.33490 0.95330 0.49700
C 	C 	0.49860 0.37510 0.49060 -0.10800
C 	C 	0.62140 0.43880 0.48070 -0.01200
C 	C 	0.37600 0.43720 0.50950 -0.01200
C 	C 	0.49870 0.23960 0.48110 0.45800
C 	C 	0.04520 0.60730 0.23560 -0.12000
C 	C 	0.91590 0.64910 0.26000 -0.00800
C 	C 	0.90120 0.71920 0.33160 0.00700
C 	C 	0.01580 0.74760 0.38040 -0.15700
C 	C 	0.14300 0.70160 0.35880 0.00400
C 	C 	0.15910 0.63160 0.28700 -0.02000
C 	C 	0.06910 0.54650 0.15200 0.45200
C 	C 	0.00170 0.83490 0.45330 0.48800
C 	C 	0.00140 0.87510 0.99060 -0.12600
C 	C 	0.87860 0.93880 0.98070 0.01500
C 	C 	0.12400 0.93720 0.00950 -0.01700
C 	C 	0.00130 0.73960 0.98110 0.45000
C 	C 	0.54520 0.89270 0.26440 -0.12000
C 	C 	0.41590 0.85090 0.24000 -0.00500
C 	C 	0.40120 0.78080 0.16840 0.00200
C 	C 	0.51580 0.75240 0.11960 -0.15400
C 	C 	0.64300 0.79840 0.14120 0.00300
C 	C 	0.65910 0.86840 0.21300 -0.02000
C 	C 	0.56910 0.95350 0.34800 0.44700
C 	C 	0.50170 0.66510 0.04670 0.49700
C 	C 	0.50140 0.62490 0.50940 -0.10800
C 	C 	0.37860 0.56120 0.51930 -0.01200
C 	C 	0.62400 0.56280 0.49050 -0.01200
C 	C 	0.50130 0.76040 0.51890 0.45800
O 	O 	0.81040 0.48750 0.86530 -0.53900
O 	O 	0.02970 0.46280 0.89870 -0.68200
O 	O 	0.89120 0.13600 0.50750 -0.61200
O 	O 	0.11710 0.12660 0.53020 -0.58300
O 	O 	0.88060 0.31170 0.02100 -0.57200
O 	O 	0.11330 0.31170 0.02210 -0.56400
O 	O 	0.31040 0.01250 0.63470 -0.53700
O 	O 	0.52970 0.03720 0.60130 -0.67800
O 	O 	0.39120 0.36400 0.99250 -0.61200
O 	O 	0.61710 0.37340 0.96980 -0.58900
O 	O 	0.38060 0.18830 0.47900 -0.57100
O 	O 	0.61330 0.18830 0.47790 -0.57400
O 	O 	0.18960 0.51250 0.13470 -0.53900
O 	O 	0.97030 0.53720 0.10130 -0.68200
O 	O 	0.10880 0.86400 0.49250 -0.61200
O 	O 	0.88290 0.87340 0.46980 -0.58300
O 	O 	0.11940 0.68830 0.97900 -0.57200
O 	O 	0.88670 0.68830 0.97790 -0.56400
O 	O 	0.68960 0.98750 0.36530 -0.53700
O 	O 	0.47030 0.96280 0.39870 -0.67800
O 	O 	0.60880 0.63600 0.00750 -0.61200
O 	O 	0.38290 0.62660 0.03020 -0.58900
O 	O 	0.61940 0.81170 0.52100 -0.57100
O 	O 	0.38670 0.81170 0.52210 -0.57400
