data_crystal

_cell_length_a 10.01490
_cell_length_b 10.18720
_cell_length_c 11.83470
_cell_angle_alpha 67.77000
_cell_angle_beta  72.89500
_cell_angle_gamma 64.32800

_symmetry_space_group_name_	'P 1'
_symmetry_space_group_name_H-M	'P 1'

loop_
_symmetry_equiv_pos_as_xyz
  x,y,z

loop_
_atom_site_label
_atom_site_type_symbol
_atom_site_fract_x
_atom_site_fract_y
_atom_site_fract_z
_atom_site_charge
Y 	Y 	0.95287 0.23054 0.80247 2.36300
Y 	Y 	0.04713 0.76946 0.19753 2.36300
H 	H 	0.44060 0.49410 0.70430 0.03700
H 	H 	0.74610 0.40810 0.41110 0.03900
H 	H 	0.32100 0.89350 0.54720 0.05200
H 	H 	0.44790 0.21010 0.56130 0.05300
H 	H 	0.62490 0.85720 0.16910 0.02600
H 	H 	0.62390 0.10770 0.81440 0.03000
H 	H 	0.55940 0.50590 0.29570 0.03700
H 	H 	0.25390 0.59190 0.58890 0.03900
H 	H 	0.67900 0.10650 0.45280 0.05200
H 	H 	0.55210 0.78990 0.43870 0.05300
H 	H 	0.37510 0.14280 0.83090 0.02600
H 	H 	0.37610 0.89230 0.18560 0.03000
C 	C 	0.61400 0.43910 0.57090 -0.07500
C 	C 	0.46520 0.49600 0.62170 -0.02300
C 	C 	0.64670 0.44490 0.44760 -0.02100
C 	C 	0.73640 0.37230 0.64660 0.33100
C 	C 	0.35840 0.06430 0.56490 -0.06500
C 	C 	0.39280 0.93670 0.52800 -0.03100
C 	C 	0.46840 0.12600 0.53650 -0.02800
C 	C 	0.21170 0.12650 0.64120 0.31500
C 	C 	0.64850 0.98040 0.99030 -0.17100
C 	C 	0.57510 0.91480 0.10120 0.00700
C 	C 	0.57380 0.06460 0.88930 -0.00400
C 	C 	0.80740 0.96480 0.98110 0.47800
C 	C 	0.38600 0.56090 0.42910 -0.07500
C 	C 	0.53480 0.50400 0.37830 -0.02300
C 	C 	0.35330 0.55510 0.55240 -0.02100
C 	C 	0.26360 0.62770 0.35340 0.33100
C 	C 	0.64160 0.93570 0.43510 -0.06500
C 	C 	0.60720 0.06330 0.47200 -0.03100
C 	C 	0.53160 0.87400 0.46350 -0.02800
C 	C 	0.78830 0.87350 0.35880 0.31500
C 	C 	0.35150 0.01960 0.00970 -0.17100
C 	C 	0.42490 0.08520 0.89880 0.00700
C 	C 	0.42620 0.93540 0.11070 -0.00400
C 	C 	0.19260 0.03520 0.01890 0.47800
O 	O 	0.70340 0.38620 0.75340 -0.54900
O 	O 	0.86870 0.30340 0.60570 -0.48800
O 	O 	0.13570 0.04260 0.70010 -0.46500
O 	O 	0.16940 0.25830 0.64940 -0.50200
O 	O 	0.86620 0.03790 0.88140 -0.64400
O 	O 	0.87110 0.88220 0.07310 -0.66500
O 	O 	0.29660 0.61380 0.24660 -0.54900
O 	O 	0.13130 0.69660 0.39430 -0.48800
O 	O 	0.86430 0.95740 0.29990 -0.46500
O 	O 	0.83060 0.74170 0.35060 -0.50200
O 	O 	0.13380 0.96210 0.11860 -0.64400
O 	O 	0.12890 0.11780 0.92690 -0.66500
