data_crystal

_cell_length_a 10.74710
_cell_length_b 10.74710
_cell_length_c 18.76100
_cell_angle_alpha 73.81240
_cell_angle_beta  73.81240
_cell_angle_gamma 64.50240

_symmetry_space_group_name_	'P 1'
_symmetry_space_group_name_H-M	'P 1'

loop_
_symmetry_equiv_pos_as_xyz
  x,y,z

loop_
_atom_site_label
_atom_site_type_symbol
_atom_site_fract_x
_atom_site_fract_y
_atom_site_fract_z
_atom_site_charge
Y 	Y 	0.56503 0.43719 0.39565 2.38700
Y 	Y 	0.56281 0.43497 0.10435 2.38700
Y 	Y 	0.43497 0.56281 0.60435 2.38700
Y 	Y 	0.43719 0.56503 0.89565 2.38700
H 	H 	0.20180 0.45660 0.40930 0.04900
H 	H 	0.89760 0.51060 0.26990 0.03500
H 	H 	0.98970 0.56770 0.60900 0.04200
H 	H 	0.79980 0.61640 0.06470 0.01800
H 	H 	0.01710 0.62350 0.01130 0.03300
H 	H 	0.11630 0.51490 0.21610 0.04900
H 	H 	0.54340 0.79820 0.09070 0.04900
H 	H 	0.48940 0.10240 0.23010 0.03500
H 	H 	0.43230 0.01030 0.89100 0.04200
H 	H 	0.38360 0.20020 0.43530 0.02000
H 	H 	0.37650 0.98290 0.48870 0.03000
H 	H 	0.48510 0.88370 0.28390 0.04800
H 	H 	0.79820 0.54340 0.59070 0.04900
H 	H 	0.10240 0.48940 0.73010 0.03500
H 	H 	0.01030 0.43230 0.39100 0.04200
H 	H 	0.20020 0.38360 0.93530 0.01800
H 	H 	0.98290 0.37650 0.98870 0.03300
H 	H 	0.88370 0.48510 0.78390 0.04900
H 	H 	0.45660 0.20180 0.90930 0.04900
H 	H 	0.51060 0.89760 0.76990 0.03500
H 	H 	0.56770 0.98970 0.10900 0.04200
H 	H 	0.61640 0.79980 0.56470 0.02000
H 	H 	0.62350 0.01710 0.51130 0.03000
H 	H 	0.51490 0.11630 0.71610 0.04800
C 	C 	0.68910 0.54330 0.20690 0.49700
C 	C 	0.11580 0.51480 0.51120 -0.12100
C 	C 	0.09120 0.56580 0.10700 -0.12000
C 	C 	0.23840 0.55400 0.07110 0.49200
C 	C 	0.82720 0.55960 0.17280 -0.15800
C 	C 	0.24060 0.52900 0.52330 0.47000
C 	C 	0.12060 0.47420 0.44590 -0.01600
C 	C 	0.92230 0.53150 0.21770 0.00500
C 	C 	0.99430 0.54050 0.56510 0.00000
C 	C 	0.86380 0.59500 0.09530 0.00100
C 	C 	0.99420 0.59840 0.06340 -0.01400
C 	C 	0.05290 0.53410 0.18550 -0.01500
C 	C 	0.45670 0.31090 0.29310 0.49600
C 	C 	0.48520 0.88420 0.98880 -0.12300
C 	C 	0.43420 0.90880 0.39300 -0.12400
C 	C 	0.44600 0.76160 0.42890 0.49400
C 	C 	0.44040 0.17280 0.32720 -0.15600
C 	C 	0.47100 0.75940 0.97670 0.47000
C 	C 	0.52580 0.87940 0.05410 -0.01500
C 	C 	0.46850 0.07770 0.28230 0.00400
C 	C 	0.45950 0.00570 0.93490 0.00200
C 	C 	0.40500 0.13620 0.40470 -0.00300
C 	C 	0.40160 0.00580 0.43660 -0.00700
C 	C 	0.46590 0.94710 0.31450 -0.01300
C 	C 	0.31090 0.45670 0.79310 0.49700
C 	C 	0.88420 0.48520 0.48880 -0.12100
C 	C 	0.90880 0.43420 0.89300 -0.12000
C 	C 	0.76160 0.44600 0.92890 0.49200
C 	C 	0.17280 0.44040 0.82720 -0.15800
C 	C 	0.75940 0.47100 0.47670 0.47000
C 	C 	0.87940 0.52580 0.55410 -0.01600
C 	C 	0.07770 0.46850 0.78230 0.00500
C 	C 	0.00570 0.45950 0.43490 0.00000
C 	C 	0.13620 0.40500 0.90470 0.00100
C 	C 	0.00580 0.40160 0.93660 -0.01400
C 	C 	0.94710 0.46590 0.81450 -0.01500
C 	C 	0.54330 0.68910 0.70690 0.49600
C 	C 	0.51480 0.11580 0.01120 -0.12300
C 	C 	0.56580 0.09120 0.60700 -0.12400
C 	C 	0.55400 0.23840 0.57110 0.49400
C 	C 	0.55960 0.82720 0.67280 -0.15600
C 	C 	0.52900 0.24060 0.02330 0.47000
C 	C 	0.47420 0.12060 0.94590 -0.01500
C 	C 	0.53150 0.92230 0.71770 0.00400
C 	C 	0.54050 0.99430 0.06510 0.00200
C 	C 	0.59500 0.86380 0.59530 -0.00300
C 	C 	0.59840 0.99420 0.56340 -0.00700
C 	C 	0.53410 0.05290 0.68550 -0.01300
O 	O 	0.66050 0.51510 0.27707 -0.61100
O 	O 	0.61190 0.55970 0.16298 -0.62400
O 	O 	0.35190 0.49670 0.47600 -0.63300
O 	O 	0.32660 0.50860 0.11270 -0.58600
O 	O 	0.22850 0.57190 0.58140 -0.56700
O 	O 	0.26110 0.59130 0.00068 -0.61400
O 	O 	0.48490 0.33950 0.22293 -0.61100
O 	O 	0.44030 0.38810 0.33702 -0.62400
O 	O 	0.50330 0.64810 0.02400 -0.63200
O 	O 	0.49140 0.67340 0.38730 -0.58600
O 	O 	0.42810 0.77150 0.91860 -0.56800
O 	O 	0.40870 0.73890 0.49932 -0.61400
O 	O 	0.33950 0.48490 0.72293 -0.61100
O 	O 	0.38810 0.44030 0.83702 -0.62400
O 	O 	0.64810 0.50330 0.52400 -0.63300
O 	O 	0.67340 0.49140 0.88730 -0.58600
O 	O 	0.77150 0.42810 0.41860 -0.56700
O 	O 	0.73890 0.40870 0.99932 -0.61400
O 	O 	0.51510 0.66050 0.77707 -0.61100
O 	O 	0.55970 0.61190 0.66298 -0.62400
O 	O 	0.49670 0.35190 0.97600 -0.63200
O 	O 	0.50860 0.32660 0.61270 -0.58600
O 	O 	0.57190 0.22850 0.08140 -0.56800
O 	O 	0.59130 0.26110 0.50068 -0.61400
