data_crystal

_cell_length_a 10.04630
_cell_length_b 10.42650
_cell_length_c 12.73850
_cell_angle_alpha 109.09500
_cell_angle_beta  95.26200
_cell_angle_gamma 118.27500

_symmetry_space_group_name_	'P 1'
_symmetry_space_group_name_H-M	'P 1'

loop_
_symmetry_equiv_pos_as_xyz
  x,y,z

loop_
_atom_site_label
_atom_site_type_symbol
_atom_site_fract_x
_atom_site_fract_y
_atom_site_fract_z
_atom_site_charge
Y 	Y 	0.52661 0.97810 0.69776 2.36200
Y 	Y 	0.47339 0.02190 0.30224 2.36200
H 	H 	0.93130 0.86740 0.80110 0.03900
H 	H 	0.87130 0.12130 0.08260 0.03900
H 	H 	0.69500 0.54910 0.90810 0.05000
H 	H 	0.31970 0.24050 0.97220 0.05600
H 	H 	0.94140 0.06230 0.67440 0.03400
H 	H 	0.85530 0.98280 0.33760 0.03500
H 	H 	0.06870 0.13260 0.19890 0.03900
H 	H 	0.12870 0.87870 0.91740 0.03900
H 	H 	0.30500 0.45090 0.09190 0.05000
H 	H 	0.68030 0.75950 0.02780 0.05600
H 	H 	0.05860 0.93770 0.32560 0.03400
H 	H 	0.14470 0.01720 0.66240 0.03500
C 	C 	0.88000 0.99260 0.92970 -0.07200
C 	C 	0.95870 0.92100 0.88150 -0.02500
C 	C 	0.92290 0.07200 0.04890 -0.02600
C 	C 	0.75080 0.98410 0.85250 0.31100
C 	C 	0.50940 0.37290 0.92770 -0.06300
C 	C 	0.61630 0.52890 0.94500 -0.03000
C 	C 	0.39250 0.34480 0.98320 -0.03400
C 	C 	0.51530 0.23380 0.84780 0.31500
C 	C 	0.87750 0.02770 0.50740 -0.15000
C 	C 	0.96500 0.03740 0.60440 -0.00100
C 	C 	0.91330 0.98990 0.40280 -0.02100
C 	C 	0.74120 0.05170 0.51380 0.49400
C 	C 	0.12000 0.00740 0.07030 -0.07200
C 	C 	0.04130 0.07900 0.11850 -0.02500
C 	C 	0.07710 0.92800 0.95110 -0.02600
C 	C 	0.24920 0.01590 0.14750 0.31100
C 	C 	0.49060 0.62710 0.07230 -0.06300
C 	C 	0.38370 0.47110 0.05500 -0.03000
C 	C 	0.60750 0.65520 0.01680 -0.03400
C 	C 	0.48470 0.76620 0.15220 0.31500
C 	C 	0.12250 0.97230 0.49260 -0.15000
C 	C 	0.03500 0.96260 0.39560 -0.00100
C 	C 	0.08670 0.01010 0.59720 -0.02100
C 	C 	0.25880 0.94830 0.48620 0.49400
O 	O 	0.69600 0.88750 0.74670 -0.54000
O 	O 	0.70020 0.07300 0.89120 -0.47400
O 	O 	0.61560 0.26020 0.79110 -0.47700
O 	O 	0.42140 0.09540 0.83800 -0.49700
O 	O 	0.71250 0.08500 0.60980 -0.64200
O 	O 	0.66300 0.03260 0.42210 -0.68300
O 	O 	0.30400 0.11250 0.25330 -0.54000
O 	O 	0.29980 0.92700 0.10880 -0.47400
O 	O 	0.38440 0.73980 0.20890 -0.47700
O 	O 	0.57860 0.90460 0.16200 -0.49700
O 	O 	0.28750 0.91500 0.39020 -0.64200
O 	O 	0.33700 0.96740 0.57790 -0.68300
