data_crystal

_cell_length_a 9.36590
_cell_length_b 10.56620
_cell_length_c 11.07810
_cell_angle_alpha 98.84100
_cell_angle_beta  112.93700
_cell_angle_gamma 113.84400

_symmetry_space_group_name_	'P 1'
_symmetry_space_group_name_H-M	'P 1'

loop_
_symmetry_equiv_pos_as_xyz
  x,y,z

loop_
_atom_site_label
_atom_site_type_symbol
_atom_site_fract_x
_atom_site_fract_y
_atom_site_fract_z
_atom_site_charge
Y 	Y 	0.30239 0.98950 0.02367 2.38100
Y 	Y 	0.69761 0.01050 0.97633 2.38100
H 	H 	0.78940 0.35990 0.99290 -0.01600
H 	H 	0.95100 0.59920 0.00910 0.04100
H 	H 	0.49410 0.59760 0.79590 0.04300
H 	H 	0.33260 0.36460 0.79590 0.04400
H 	H 	0.90900 0.60710 0.63110 0.04900
H 	H 	0.30080 0.61190 0.56300 0.04100
H 	H 	0.21060 0.64010 0.00710 -0.01600
H 	H 	0.04900 0.40080 0.99090 0.04100
H 	H 	0.50590 0.40240 0.20410 0.04300
H 	H 	0.66740 0.63540 0.20410 0.04400
H 	H 	0.09100 0.39290 0.36890 0.04900
H 	H 	0.69920 0.38810 0.43700 0.04100
C 	C 	0.54380 0.33740 0.89440 -0.13300
C 	C 	0.72950 0.40840 0.95580 0.01500
C 	C 	0.82580 0.55000 0.96210 -0.04200
C 	C 	0.73790 0.62020 0.89920 -0.11800
C 	C 	0.55390 0.55060 0.83720 -0.01000
C 	C 	0.45710 0.41030 0.83620 0.00400
C 	C 	0.44260 0.19020 0.90430 0.41900
C 	C 	0.84770 0.77610 0.90830 0.48000
C 	C 	0.12660 0.63000 0.61840 -0.10600
C 	C 	0.94590 0.56380 0.57890 -0.02000
C 	C 	0.17990 0.56660 0.53810 -0.00900
C 	C 	0.26270 0.77120 0.74570 0.45700
C 	C 	0.45620 0.66260 0.10560 -0.13300
C 	C 	0.27050 0.59160 0.04420 0.01500
C 	C 	0.17420 0.45000 0.03790 -0.04200
C 	C 	0.26210 0.37980 0.10080 -0.11800
C 	C 	0.44610 0.44940 0.16280 -0.01000
C 	C 	0.54290 0.58970 0.16380 0.00400
C 	C 	0.55740 0.80980 0.09570 0.41900
C 	C 	0.15230 0.22390 0.09170 0.48000
C 	C 	0.87340 0.37000 0.38160 -0.10600
C 	C 	0.05410 0.43620 0.42110 -0.02000
C 	C 	0.82010 0.43340 0.46190 -0.00900
C 	C 	0.73730 0.22880 0.25430 0.45700
O 	O 	0.52450 0.12070 0.94370 -0.73300
O 	O 	0.28850 0.14530 0.88470 -0.50200
O 	O 	0.00550 0.82150 0.93510 -0.58000
O 	O 	0.77360 0.85320 0.88540 -0.58000
O 	O 	0.20010 0.82840 0.80490 -0.54900
O 	O 	0.42530 0.81970 0.78510 -0.57600
O 	O 	0.47550 0.87930 0.05630 -0.73300
O 	O 	0.71150 0.85470 0.11530 -0.50200
O 	O 	0.99450 0.17850 0.06490 -0.58000
O 	O 	0.22640 0.14680 0.11460 -0.58000
O 	O 	0.79990 0.17160 0.19510 -0.54900
O 	O 	0.57470 0.18030 0.21490 -0.57600
