data_crystal

_cell_length_a 8.56790
_cell_length_b 10.18680
_cell_length_c 10.87240
_cell_angle_alpha 66.79100
_cell_angle_beta  69.31600
_cell_angle_gamma 78.24600

_symmetry_space_group_name_	'P 1'
_symmetry_space_group_name_H-M	'P 1'

loop_
_symmetry_equiv_pos_as_xyz
  x,y,z

loop_
_atom_site_label
_atom_site_type_symbol
_atom_site_fract_x
_atom_site_fract_y
_atom_site_fract_z
_atom_site_charge
Yb	Yb	0.34563 0.56698 0.84361 1.49700
Yb	Yb	0.65437 0.43302 0.15639 1.49700
H 	H 	0.79480 0.37310 0.51460 0.05700
H 	H 	0.93330 0.65940 0.61690 0.05400
H 	H 	0.28590 0.17650 0.01650 0.02100
H 	H 	0.75920 0.03110 0.99860 0.04700
H 	H 	0.85350 0.87720 0.72860 0.05200
H 	H 	0.28640 0.95380 0.41830 0.06300
H 	H 	0.20520 0.62690 0.48540 0.05600
H 	H 	0.06670 0.34060 0.38310 0.05300
H 	H 	0.71410 0.82350 0.98350 0.02100
H 	H 	0.24080 0.96890 0.00140 0.04700
H 	H 	0.14650 0.12280 0.27140 0.05200
H 	H 	0.71360 0.04620 0.58170 0.06300
C 	C 	0.66080 0.53960 0.66730 0.29700
C 	C 	0.83610 0.51820 0.58180 -0.05800
C 	C 	0.87720 0.42380 0.50930 -0.03100
C 	C 	0.96020 0.59470 0.57020 -0.03100
C 	C 	0.55580 0.26000 0.01810 0.40300
C 	C 	0.52730 0.12650 0.00740 -0.10500
C 	C 	0.37290 0.10580 0.00950 -0.00500
C 	C 	0.65440 0.01910 0.99880 -0.00900
C 	C 	0.17180 0.77930 0.68570 0.30400
C 	C 	0.08320 0.89600 0.58900 -0.05600
C 	C 	0.91280 0.92640 0.63620 -0.02300
C 	C 	0.17120 0.97180 0.45120 -0.02400
C 	C 	0.33920 0.46040 0.33270 0.29700
C 	C 	0.16390 0.48180 0.41820 -0.05800
C 	C 	0.12280 0.57620 0.49070 -0.03100
C 	C 	0.03980 0.40530 0.42980 -0.03100
C 	C 	0.44420 0.74000 0.98190 0.40300
C 	C 	0.47270 0.87350 0.99260 -0.10500
C 	C 	0.62710 0.89420 0.99050 -0.00500
C 	C 	0.34560 0.98090 0.00120 -0.00900
C 	C 	0.82820 0.22070 0.31430 0.30400
C 	C 	0.91680 0.10400 0.41100 -0.05600
C 	C 	0.08720 0.07360 0.36380 -0.02300
C 	C 	0.82880 0.02820 0.54880 -0.02400
O 	O 	0.62980 0.61790 0.74170 -0.37000
O 	O 	0.54560 0.48150 0.66720 -0.37200
O 	O 	0.47030 0.37290 0.97190 -0.49000
O 	O 	0.65850 0.25250 0.07850 -0.43000
O 	O 	0.32650 0.75140 0.63570 -0.37700
O 	O 	0.09270 0.71380 0.80920 -0.41300
O 	O 	0.37020 0.38210 0.25830 -0.37000
O 	O 	0.45440 0.51850 0.33280 -0.37200
O 	O 	0.52970 0.62710 0.02810 -0.49000
O 	O 	0.34150 0.74750 0.92150 -0.43000
O 	O 	0.67350 0.24860 0.36430 -0.37700
O 	O 	0.90730 0.28620 0.19080 -0.41300
