data_crystal

_cell_length_a 8.57760
_cell_length_b 10.19500
_cell_length_c 10.91150
_cell_angle_alpha 66.67200
_cell_angle_beta  69.42500
_cell_angle_gamma 78.11300

_symmetry_space_group_name_	'P 1'
_symmetry_space_group_name_H-M	'P 1'

loop_
_symmetry_equiv_pos_as_xyz
  x,y,z

loop_
_atom_site_label
_atom_site_type_symbol
_atom_site_fract_x
_atom_site_fract_y
_atom_site_fract_z
_atom_site_charge
Er	Er	0.34667 0.56606 0.84658 1.55200
Er	Er	0.65333 0.43394 0.15342 1.55200
H 	H 	0.79500 0.37130 0.51500 0.05400
H 	H 	0.93510 0.65860 0.61660 0.04900
H 	H 	0.28870 0.17840 0.02210 0.01200
H 	H 	0.76440 0.02800 0.99500 0.04600
H 	H 	0.85330 0.87640 0.72630 0.04900
H 	H 	0.28580 0.94920 0.41840 0.06200
H 	H 	0.20500 0.62870 0.48500 0.05400
H 	H 	0.06490 0.34140 0.38340 0.04900
H 	H 	0.71130 0.82160 0.97790 0.01200
H 	H 	0.23560 0.97200 0.00500 0.04600
H 	H 	0.14670 0.12360 0.27370 0.04900
H 	H 	0.71420 0.05080 0.58160 0.06200
C 	C 	0.66220 0.54010 0.66700 0.30900
C 	C 	0.83750 0.51820 0.58100 -0.06200
C 	C 	0.87710 0.42240 0.50910 -0.03200
C 	C 	0.96220 0.59450 0.56950 -0.03100
C 	C 	0.56390 0.25570 0.02030 0.43500
C 	C 	0.53010 0.12400 0.00740 -0.11600
C 	C 	0.37400 0.10690 0.01260 0.00500
C 	C 	0.65870 0.01710 0.99640 -0.01500
C 	C 	0.17170 0.78000 0.68430 0.29900
C 	C 	0.08240 0.89410 0.59000 -0.05700
C 	C 	0.91320 0.92630 0.63480 -0.02200
C 	C 	0.17120 0.96930 0.45180 -0.02600
C 	C 	0.33780 0.45990 0.33300 0.30900
C 	C 	0.16250 0.48180 0.41900 -0.06200
C 	C 	0.12290 0.57760 0.49090 -0.03200
C 	C 	0.03780 0.40550 0.43050 -0.03100
C 	C 	0.43610 0.74430 0.97970 0.43500
C 	C 	0.46990 0.87600 0.99260 -0.11600
C 	C 	0.62600 0.89310 0.98740 0.00500
C 	C 	0.34130 0.98290 0.00360 -0.01500
C 	C 	0.82830 0.22000 0.31570 0.29900
C 	C 	0.91760 0.10590 0.41000 -0.05700
C 	C 	0.08680 0.07370 0.36520 -0.02200
C 	C 	0.82880 0.03070 0.54820 -0.02600
O 	O 	0.63160 0.61920 0.73960 -0.38200
O 	O 	0.54710 0.48010 0.66970 -0.38200
O 	O 	0.47980 0.37050 0.97630 -0.50700
O 	O 	0.66860 0.24510 0.07940 -0.44900
O 	O 	0.32690 0.75030 0.63640 -0.38000
O 	O 	0.09080 0.71100 0.80900 -0.41100
O 	O 	0.36840 0.38080 0.26040 -0.38200
O 	O 	0.45290 0.51990 0.33030 -0.38200
O 	O 	0.52020 0.62950 0.02370 -0.50700
O 	O 	0.33140 0.75490 0.92060 -0.44900
O 	O 	0.67310 0.24970 0.36360 -0.38000
O 	O 	0.90920 0.28900 0.19100 -0.41100
