data_crystal

_cell_length_a 14.41550
_cell_length_b 14.41550
_cell_length_c 16.97250
_cell_angle_alpha 90.00000
_cell_angle_beta  90.00000
_cell_angle_gamma 120.00000

_symmetry_space_group_name_	'P 1'
_symmetry_space_group_name_H-M	'P 1'

loop_
_symmetry_equiv_pos_as_xyz
  x,y,z

loop_
_atom_site_label
_atom_site_type_symbol
_atom_site_fract_x
_atom_site_fract_y
_atom_site_fract_z
_atom_site_charge
Yb	Yb	0.20254 0.50594 0.38372 1.50000
O 	O 	0.12690 0.54400 0.28200 -0.47400
O 	O 	0.87350 0.41670 0.98480 -0.39100
O 	O 	0.82700 0.54330 0.97360 -0.39400
O 	O 	0.17310 0.71620 0.29480 -0.48800
S 	S 	0.99990 0.50590 0.13360 0.02600
C 	C 	0.87460 0.50180 0.00580 0.24100
C 	C 	0.12540 0.62850 0.26110 0.40100
C 	C 	0.94000 0.55960 0.07620 -0.08600
C 	C 	0.05990 0.61930 0.19090 -0.12400
C 	C 	0.03590 0.69590 0.16680 0.02000
C 	C 	0.96530 0.65960 0.10000 -0.01300
Yb	Yb	0.49406 0.69660 0.38372 1.49900
O 	O 	0.45600 0.58290 0.28200 -0.47500
O 	O 	0.58330 0.45680 0.98480 -0.39200
O 	O 	0.45670 0.28370 0.97360 -0.39400
O 	O 	0.28380 0.45690 0.29480 -0.48800
S 	S 	0.49410 0.49400 0.13360 0.02600
C 	C 	0.49820 0.37280 0.00580 0.24100
C 	C 	0.37150 0.49690 0.26110 0.40100
C 	C 	0.44040 0.38040 0.07620 -0.08600
C 	C 	0.38070 0.44060 0.19090 -0.12400
C 	C 	0.30410 0.34000 0.16680 0.01900
C 	C 	0.34040 0.30570 0.10000 -0.01300
Yb	Yb	0.30340 0.79746 0.38372 1.49900
O 	O 	0.41710 0.87310 0.28200 -0.47500
O 	O 	0.54320 0.12650 0.98480 -0.39100
O 	O 	0.71630 0.17300 0.97360 -0.39300
O 	O 	0.54310 0.82690 0.29480 -0.48800
S 	S 	0.50600 0.00010 0.13360 0.02600
C 	C 	0.62720 0.12540 0.00580 0.24100
C 	C 	0.50310 0.87460 0.26110 0.40100
C 	C 	0.61960 0.06000 0.07620 -0.08600
C 	C 	0.55940 0.94010 0.19090 -0.12400
C 	C 	0.66000 0.96410 0.16680 0.01900
C 	C 	0.69430 0.03470 0.10000 -0.01300
Yb	Yb	0.50594 0.20254 0.88372 1.50000
O 	O 	0.54400 0.12690 0.78200 -0.47000
O 	O 	0.41670 0.87350 0.48480 -0.47900
O 	O 	0.54330 0.82700 0.47360 -0.48200
O 	O 	0.71620 0.17310 0.79480 -0.48200
S 	S 	0.50590 0.99990 0.63360 0.06300
C 	C 	0.50180 0.87460 0.50580 0.40500
C 	C 	0.62850 0.12540 0.76110 0.40500
C 	C 	0.55960 0.94000 0.57620 -0.12500
C 	C 	0.61930 0.05990 0.69090 -0.12500
C 	C 	0.69590 0.03590 0.66680 0.02500
C 	C 	0.65960 0.96530 0.60000 0.02300
Yb	Yb	0.69660 0.49406 0.88372 1.50000
O 	O 	0.58290 0.45600 0.78200 -0.47000
O 	O 	0.45680 0.58330 0.48480 -0.47900
O 	O 	0.28370 0.45670 0.47360 -0.48200
O 	O 	0.45690 0.28380 0.79480 -0.48200
S 	S 	0.49400 0.49410 0.63360 0.06400
C 	C 	0.37280 0.49820 0.50580 0.40500
C 	C 	0.49690 0.37150 0.76110 0.40500
C 	C 	0.38040 0.44040 0.57620 -0.12500
C 	C 	0.44060 0.38070 0.69090 -0.12600
C 	C 	0.34000 0.30410 0.66680 0.02400
C 	C 	0.30570 0.34040 0.60000 0.02400
Yb	Yb	0.79746 0.30340 0.88372 1.50000
O 	O 	0.87310 0.41710 0.78200 -0.47000
O 	O 	0.12650 0.54320 0.48480 -0.47900
O 	O 	0.17300 0.71630 0.47360 -0.48200
O 	O 	0.82690 0.54310 0.79480 -0.48200
S 	S 	0.00010 0.50600 0.63360 0.06300
C 	C 	0.12540 0.62720 0.50580 0.40500
C 	C 	0.87460 0.50310 0.76110 0.40500
C 	C 	0.06000 0.61960 0.57620 -0.12500
C 	C 	0.94010 0.55940 0.69090 -0.12600
C 	C 	0.96410 0.66000 0.66680 0.02400
C 	C 	0.03470 0.69430 0.60000 0.02300
O 	O 	0.33333 0.66667 0.38410 -0.71200
O 	O 	0.66667 0.33333 0.88410 -0.70800
