data_crystal

_cell_length_a 14.36600
_cell_length_b 15.18900
_cell_length_c 18.83300
_cell_angle_alpha 67.91000
_cell_angle_beta  82.66600
_cell_angle_gamma 81.06500

_symmetry_space_group_name_	'P 1'
_symmetry_space_group_name_H-M	'P 1'

loop_
_symmetry_equiv_pos_as_xyz
  x,y,z

loop_
_atom_site_label
_atom_site_type_symbol
_atom_site_fract_x
_atom_site_fract_y
_atom_site_fract_z
_atom_site_charge
C 	C 	0.60800 0.03710 0.22840 -0.00500
H 	H 	0.62410 0.06550 0.17610 0.01800
C 	C 	0.65260 0.04360 0.28320 0.01200
H 	H 	0.70520 0.07530 0.27680 0.03200
C 	C 	0.53520 0.95870 0.33360 0.11200
H 	H 	0.49220 0.92190 0.36930 -0.02600
C 	C 	0.63070 0.97500 0.42730 0.24300
C 	C 	0.58160 0.91390 0.48930 -0.28500
H 	H 	0.53080 0.88760 0.48230 0.14200
C 	C 	0.60970 0.89240 0.56270 0.23200
C 	C 	0.68530 0.92990 0.57410 -0.29000
H 	H 	0.70400 0.91460 0.62320 0.12500
C 	C 	0.73290 0.99120 0.51030 0.23500
C 	C 	0.70590 0.01450 0.43750 -0.29500
H 	H 	0.73790 0.05650 0.39550 0.13900
C 	C 	0.49560 0.77280 0.62320 0.01500
H 	H 	0.47700 0.76890 0.57910 0.03300
C 	C 	0.46600 0.72380 0.69640 -0.00300
H 	H 	0.42280 0.67920 0.71140 0.02500
C 	C 	0.56390 0.81250 0.70200 0.12700
H 	H 	0.60200 0.84230 0.72030 -0.04500
C 	C 	0.83310 0.03580 0.58560 0.10200
H 	H 	0.79880 0.01190 0.63280 -0.05300
C 	C 	0.93850 0.10310 0.49780 -0.00700
H 	H 	0.99110 0.13420 0.47330 0.03300
C 	C 	0.87820 0.07420 0.46390 0.01300
H 	H 	0.88120 0.08220 0.41220 0.00400
C 	C 	0.53260 0.05410 0.05410 0.09200
H 	H 	0.48370 0.10220 0.05360 -0.01800
C 	C 	0.62050 0.91930 0.08510 -0.00100
H 	H 	0.64320 0.85590 0.11140 0.03500
C 	C 	0.66430 0.97900 0.02310 0.00200
H 	H 	0.72130 0.96470 0.99790 0.01200
C 	C 	0.62510 0.15280 0.94080 0.22200
C 	C 	0.56520 0.23500 0.93450 -0.30000
H 	H 	0.51370 0.23450 0.96990 0.15500
C 	C 	0.58350 0.31790 0.87430 0.25400
C 	C 	0.65790 0.32200 0.82110 -0.31000
H 	H 	0.66830 0.37920 0.78100 0.14400
C 	C 	0.71700 0.23970 0.82800 0.23800
C 	C 	0.70200 0.15480 0.88830 -0.31600
H 	H 	0.74330 0.09960 0.89340 0.11900
C 	C 	0.83910 0.31730 0.72480 0.00400
H 	H 	0.82740 0.37950 0.72440 0.02600
C 	C 	0.90340 0.28520 0.68030 0.00700
H 	H 	0.94610 0.32170 0.64390 0.02100
C 	C 	0.82920 0.16650 0.75100 0.10900
H 	H 	0.80880 0.10610 0.77250 -0.06700
C 	C 	0.54630 0.48570 0.86310 0.11200
H 	H 	0.60880 0.49720 0.85980 -0.00900
C 	C 	0.42420 0.41420 0.87060 0.00800
H 	H 	0.38580 0.36850 0.87430 0.04000
C 	C 	0.39680 0.50330 0.86640 0.01000
H 	H 	0.33440 0.53130 0.86590 0.03100
C 	C 	0.30600 0.70970 0.89640 0.35700
C 	C 	0.21460 0.69660 0.94470 -0.19200
C 	C 	0.20630 0.68080 0.02110 0.15500
H 	H 	0.25950 0.68010 0.04480 -0.00300
C 	C 	0.12090 0.66600 0.06480 -0.28300
H 	H 	0.11710 0.65410 0.11720 0.14200
C 	C 	0.04230 0.66900 0.02930 0.28900
C 	C 	0.04650 0.68770 0.95100 -0.28100
H 	H 	0.99270 0.69080 0.92710 0.12400
C 	C 	0.13320 0.70160 0.90960 0.14500
H 	H 	0.13730 0.71460 0.85700 -0.01300
C 	C 	0.87820 0.66380 0.03810 0.32000
C 	C 	0.85350 0.58720 0.02620 -0.31300
H 	H 	0.89050 0.52830 0.04330 0.15000
C 	C 	0.77350 0.59720 0.98860 0.17700
H 	H 	0.75600 0.54510 0.98110 -0.01600
C 	C 	0.71930 0.68580 0.96210 -0.22800
C 	C 	0.74370 0.76120 0.97710 0.18000
H 	H 	0.70590 0.81970 0.96160 -0.04200
C 	C 	0.82330 0.75100 0.01480 -0.31700
H 	H 	0.83960 0.80220 0.02430 0.14300
C 	C 	0.63300 0.69960 0.92040 0.38400
C 	C 	0.46540 0.75110 0.28080 0.37800
C 	C 	0.45340 0.65250 0.33360 -0.24100
C 	C 	0.52530 0.57940 0.33230 0.20400
H 	H 	0.57720 0.59420 0.29680 -0.02500
C 	C 	0.52160 0.48600 0.38220 -0.34300
H 	H 	0.57010 0.43830 0.38070 0.16300
C 	C 	0.44500 0.46550 0.43350 0.36800
C 	C 	0.37360 0.53570 0.43610 -0.35700
H 	H 	0.32200 0.52030 0.47180 0.16100
C 	C 	0.37740 0.62890 0.38610 0.22700
H 	H 	0.32840 0.67590 0.38810 -0.03400
C 	C 	0.36590 0.32920 0.51110 0.44600
C 	C 	0.30220 0.33700 0.45950 -0.45500
H 	H 	0.31280 0.37290 0.40750 0.19200
C 	C 	0.22260 0.29040 0.48650 0.35300
H 	H 	0.17780 0.29680 0.45290 -0.08000
C 	C 	0.20900 0.23380 0.56400 -0.43300
C 	C 	0.27800 0.22630 0.61300 0.37300
H 	H 	0.27090 0.18780 0.66470 -0.09200
C 	C 	0.35490 0.27440 0.58600 -0.48300
H 	H 	0.39980 0.26950 0.61920 0.21300
C 	C 	0.12130 0.18250 0.59360 0.76800
N 	N 	0.53480 0.98290 0.25932 -0.28000
N 	N 	0.60520 0.99340 0.35203 -0.16200
N 	N 	0.55840 0.82910 0.62695 -0.16500
N 	N 	0.50890 0.74940 0.74555 -0.26800
N 	N 	0.81150 0.03060 0.52017 -0.16700
N 	N 	0.90960 0.07930 0.57390 -0.27700
N 	N 	0.53580 0.96610 0.10447 -0.26800
N 	N 	0.60860 0.06610 0.00359 -0.16300
N 	N 	0.79300 0.24010 0.77180 -0.16800
N 	N 	0.89760 0.18990 0.69610 -0.28000
N 	N 	0.47380 0.54840 0.86290 -0.24900
N 	N 	0.52060 0.40340 0.86860 -0.16400
O 	O 	0.95890 0.65410 0.07542 -0.31400
O 	O 	0.44830 0.37260 0.48590 -0.36200
O 	O 	0.37930 0.70320 0.93050 -0.44700
O 	O 	0.30960 0.72030 0.82817 -0.34900
O 	O 	0.57880 0.77320 0.90588 -0.40900
O 	O 	0.61580 0.63110 0.90360 -0.45200
O 	O 	0.53340 0.76850 0.23010 -0.36900
O 	O 	0.40540 0.81680 0.28800 -0.48000
O 	O 	0.05550 0.20940 0.55160 -0.47800
O 	O 	0.12490 0.13570 0.68100 0.00500
Zn	Zn	0.45302 0.93428 0.20537 1.16600
Zn	Zn	0.97802 0.09642 0.65379 1.18200
Zn	Zn	0.48812 0.68308 0.86036 1.20900
O 	O 	0.10750 0.12190 0.63960 -0.71900
C 	C 	0.39200 0.96290 0.77160 -0.00600
H 	H 	0.37590 0.93450 0.82390 0.01700
C 	C 	0.34740 0.95640 0.71680 0.01100
H 	H 	0.29480 0.92470 0.72320 0.03100
C 	C 	0.46480 0.04130 0.66640 0.11100
H 	H 	0.50780 0.07810 0.63070 -0.02700
C 	C 	0.36930 0.02500 0.57270 0.24200
C 	C 	0.41840 0.08610 0.51070 -0.28600
H 	H 	0.46920 0.11240 0.51770 0.14100
C 	C 	0.39030 0.10760 0.43730 0.23100
C 	C 	0.31470 0.07010 0.42590 -0.29100
H 	H 	0.29600 0.08540 0.37680 0.12400
C 	C 	0.26710 0.00880 0.48970 0.23500
C 	C 	0.29410 0.98550 0.56250 -0.29500
H 	H 	0.26210 0.94350 0.60450 0.13900
C 	C 	0.50440 0.22720 0.37680 0.01500
H 	H 	0.52300 0.23110 0.42090 0.03300
C 	C 	0.53400 0.27620 0.30360 -0.00300
H 	H 	0.57720 0.32080 0.28860 0.02500
C 	C 	0.43610 0.18750 0.29800 0.12700
H 	H 	0.39800 0.15770 0.27970 -0.04500
C 	C 	0.16690 0.96420 0.41440 0.10200
H 	H 	0.20120 0.98810 0.36720 -0.05300
C 	C 	0.06150 0.89690 0.50220 -0.00700
H 	H 	0.00890 0.86580 0.52670 0.03300
C 	C 	0.12180 0.92580 0.53610 0.01300
H 	H 	0.11880 0.91780 0.58780 0.00400
C 	C 	0.46740 0.94590 0.94590 0.09200
H 	H 	0.51630 0.89780 0.94640 -0.01800
C 	C 	0.37950 0.08070 0.91490 -0.00100
H 	H 	0.35680 0.14410 0.88860 0.03500
C 	C 	0.33570 0.02100 0.97690 0.00200
H 	H 	0.27870 0.03530 0.00210 0.01200
C 	C 	0.37490 0.84720 0.05920 0.22200
C 	C 	0.43480 0.76500 0.06550 -0.30000
H 	H 	0.48630 0.76550 0.03010 0.15500
C 	C 	0.41650 0.68210 0.12570 0.25400
C 	C 	0.34210 0.67800 0.17890 -0.31000
H 	H 	0.33170 0.62080 0.21900 0.14400
C 	C 	0.28300 0.76030 0.17200 0.23800
C 	C 	0.29800 0.84520 0.11170 -0.31600
H 	H 	0.25670 0.90040 0.10660 0.11900
C 	C 	0.16090 0.68270 0.27520 0.00400
H 	H 	0.17260 0.62050 0.27560 0.02600
C 	C 	0.09660 0.71480 0.31970 0.00700
H 	H 	0.05390 0.67830 0.35610 0.02100
C 	C 	0.17080 0.83350 0.24900 0.10900
H 	H 	0.19120 0.89390 0.22750 -0.06700
C 	C 	0.45370 0.51430 0.13690 0.11200
H 	H 	0.39120 0.50280 0.14020 -0.00900
C 	C 	0.57580 0.58580 0.12940 0.00800
H 	H 	0.61420 0.63150 0.12570 0.04000
C 	C 	0.60320 0.49670 0.13360 0.01000
H 	H 	0.66560 0.46870 0.13410 0.03100
C 	C 	0.69400 0.29030 0.10360 0.35700
C 	C 	0.78540 0.30340 0.05530 -0.19200
C 	C 	0.79370 0.31920 0.97890 0.15500
H 	H 	0.74050 0.31990 0.95520 -0.00300
C 	C 	0.87910 0.33400 0.93520 -0.28300
H 	H 	0.88290 0.34590 0.88280 0.14200
C 	C 	0.95770 0.33100 0.97070 0.28900
C 	C 	0.95350 0.31230 0.04900 -0.28100
H 	H 	0.00730 0.30920 0.07290 0.12400
C 	C 	0.86680 0.29840 0.09040 0.14500
H 	H 	0.86270 0.28540 0.14300 -0.01300
C 	C 	0.12180 0.33620 0.96190 0.32000
C 	C 	0.14650 0.41280 0.97380 -0.31300
H 	H 	0.10950 0.47170 0.95670 0.15000
C 	C 	0.22650 0.40280 0.01140 0.17700
H 	H 	0.24400 0.45490 0.01890 -0.01600
C 	C 	0.28070 0.31420 0.03790 -0.22800
C 	C 	0.25630 0.23880 0.02290 0.18000
H 	H 	0.29410 0.18030 0.03840 -0.04200
C 	C 	0.17670 0.24900 0.98520 -0.31700
H 	H 	0.16040 0.19780 0.97570 0.14300
C 	C 	0.36700 0.30040 0.07960 0.38400
C 	C 	0.53460 0.24890 0.71920 0.37800
C 	C 	0.54660 0.34750 0.66640 -0.24100
C 	C 	0.47470 0.42060 0.66770 0.20400
H 	H 	0.42280 0.40580 0.70320 -0.02500
C 	C 	0.47840 0.51400 0.61780 -0.34300
H 	H 	0.42990 0.56170 0.61930 0.16300
C 	C 	0.55500 0.53450 0.56650 0.36800
C 	C 	0.62640 0.46430 0.56390 -0.35700
H 	H 	0.67800 0.47970 0.52820 0.16100
C 	C 	0.62260 0.37110 0.61390 0.22700
H 	H 	0.67160 0.32410 0.61190 -0.03400
C 	C 	0.63410 0.67080 0.48890 0.44600
C 	C 	0.69780 0.66300 0.54050 -0.45500
H 	H 	0.68720 0.62710 0.59250 0.19200
C 	C 	0.77740 0.70960 0.51350 0.35300
H 	H 	0.82220 0.70320 0.54710 -0.08000
C 	C 	0.79100 0.76620 0.43600 -0.43300
C 	C 	0.72200 0.77370 0.38700 0.37300
H 	H 	0.72910 0.81220 0.33530 -0.09200
C 	C 	0.64510 0.72560 0.41400 -0.48300
H 	H 	0.60020 0.73050 0.38080 0.21300
C 	C 	0.87870 0.81750 0.40640 0.76800
N 	N 	0.46520 0.01710 0.74068 -0.28000
N 	N 	0.39480 0.00660 0.64797 -0.16200
N 	N 	0.44160 0.17090 0.37305 -0.16500
N 	N 	0.49110 0.25060 0.25445 -0.26800
N 	N 	0.18850 0.96940 0.47983 -0.16700
N 	N 	0.09040 0.92070 0.42610 -0.27700
N 	N 	0.46420 0.03390 0.89553 -0.26800
N 	N 	0.39140 0.93390 0.99641 -0.16300
N 	N 	0.20700 0.75990 0.22820 -0.16800
N 	N 	0.10240 0.81010 0.30390 -0.28000
N 	N 	0.52620 0.45160 0.13710 -0.24900
N 	N 	0.47940 0.59660 0.13140 -0.16400
O 	O 	0.04110 0.34590 0.92458 -0.31400
O 	O 	0.55170 0.62740 0.51410 -0.36200
O 	O 	0.62070 0.29680 0.06950 -0.44700
O 	O 	0.69040 0.27970 0.17183 -0.34900
O 	O 	0.42120 0.22680 0.09412 -0.40900
O 	O 	0.38420 0.36890 0.09640 -0.45200
O 	O 	0.46660 0.23150 0.76990 -0.36900
O 	O 	0.59460 0.18320 0.71200 -0.48000
O 	O 	0.94450 0.79060 0.44840 -0.47800
O 	O 	0.87510 0.86430 0.31900 0.00500
Zn	Zn	0.54698 0.06572 0.79463 1.16600
Zn	Zn	0.02198 0.90358 0.34621 1.18200
Zn	Zn	0.51188 0.31692 0.13964 1.20900
O 	O 	0.89250 0.87810 0.36040 -0.71900
