data_crystal

_cell_length_a 9.65200
_cell_length_b 14.06700
_cell_length_c 16.21200
_cell_angle_alpha 90.00000
_cell_angle_beta  90.00000
_cell_angle_gamma 106.58000

_symmetry_space_group_name_	'P 1'
_symmetry_space_group_name_H-M	'P 1'

loop_
_symmetry_equiv_pos_as_xyz
  x,y,z

loop_
_atom_site_label
_atom_site_type_symbol
_atom_site_fract_x
_atom_site_fract_y
_atom_site_fract_z
_atom_site_charge
Y 	Y 	0.82691 0.55258 0.01748 2.37700
Y 	Y 	0.67309 0.94742 0.51748 2.37700
Y 	Y 	0.17309 0.44742 0.98252 2.37700
Y 	Y 	0.32691 0.05258 0.48252 2.37700
H 	H 	0.29720 0.63390 0.80600 0.04700
H 	H 	0.41390 0.72900 0.70090 0.02400
H 	H 	0.10750 0.86900 0.69040 0.03000
H 	H 	0.99470 0.77880 0.79990 0.05400
H 	H 	0.20280 0.86610 0.30600 0.04600
H 	H 	0.08610 0.77100 0.20090 0.02800
H 	H 	0.39250 0.63100 0.19040 0.03200
H 	H 	0.50530 0.72120 0.29990 0.04900
H 	H 	0.70280 0.36610 0.19400 0.04700
H 	H 	0.58610 0.27100 0.29910 0.02400
H 	H 	0.89250 0.13100 0.30960 0.03000
H 	H 	0.00530 0.22120 0.20010 0.05400
H 	H 	0.79720 0.13390 0.69400 0.04600
H 	H 	0.91390 0.22900 0.79910 0.02800
H 	H 	0.60750 0.36900 0.80960 0.03200
H 	H 	0.49470 0.27880 0.70010 0.04900
C 	C 	0.13550 0.69650 0.81520 -0.08200
C 	C 	0.26000 0.68260 0.78380 -0.03700
C 	C 	0.32900 0.73880 0.72120 0.01500
C 	C 	0.27600 0.81150 0.68590 -0.12800
C 	C 	0.14700 0.82320 0.71520 0.01200
C 	C 	0.07900 0.76870 0.77930 -0.04100
C 	C 	0.05500 0.63310 0.88960 0.46500
C 	C 	0.35000 0.87610 0.61360 0.47800
C 	C 	0.50880 0.53460 0.96330 0.21500
C 	C 	0.36450 0.80350 0.31520 -0.08800
C 	C 	0.24000 0.81740 0.28380 -0.03000
C 	C 	0.17100 0.76120 0.22120 0.01000
C 	C 	0.22400 0.68850 0.18590 -0.12300
C 	C 	0.35300 0.67680 0.21520 0.00500
C 	C 	0.42100 0.73130 0.27930 -0.03100
C 	C 	0.44500 0.86690 0.38960 0.47500
C 	C 	0.15000 0.62390 0.11360 0.47600
C 	C 	0.99120 0.96540 0.46330 0.20700
C 	C 	0.86450 0.30350 0.18480 -0.08200
C 	C 	0.74000 0.31740 0.21620 -0.03700
C 	C 	0.67100 0.26120 0.27880 0.01500
C 	C 	0.72400 0.18850 0.31410 -0.12800
C 	C 	0.85300 0.17680 0.28480 0.01200
C 	C 	0.92100 0.23130 0.22070 -0.04100
C 	C 	0.94500 0.36690 0.11040 0.46500
C 	C 	0.65000 0.12390 0.38640 0.47800
C 	C 	0.49120 0.46540 0.03670 0.21500
C 	C 	0.63550 0.19650 0.68480 -0.08800
C 	C 	0.76000 0.18260 0.71620 -0.03000
C 	C 	0.82900 0.23880 0.77880 0.01000
C 	C 	0.77600 0.31150 0.81410 -0.12300
C 	C 	0.64700 0.32320 0.78480 0.00500
C 	C 	0.57900 0.26870 0.72070 -0.03100
C 	C 	0.55500 0.13310 0.61040 0.47500
C 	C 	0.85000 0.37610 0.88640 0.47600
C 	C 	0.00880 0.03460 0.53670 0.20700
O 	O 	0.94650 0.65770 0.91440 -0.57300
O 	O 	0.10430 0.56860 0.91450 -0.67900
O 	O 	0.29340 0.93440 0.58360 -0.60500
O 	O 	0.47320 0.86190 0.59230 -0.61100
O 	O 	0.39390 0.54470 0.93050 -0.49100
O 	O 	0.63440 0.57810 0.94020 -0.47700
O 	O 	0.55350 0.84230 0.41440 -0.58000
O 	O 	0.39570 0.93140 0.41450 -0.67700
O 	O 	0.20660 0.56560 0.08360 -0.60300
O 	O 	0.02680 0.63810 0.09230 -0.60500
O 	O 	0.10610 0.95530 0.43050 -0.48200
O 	O 	0.86560 0.92190 0.44020 -0.47900
O 	O 	0.05350 0.34230 0.08560 -0.57300
O 	O 	0.89570 0.43140 0.08550 -0.67900
O 	O 	0.70660 0.06560 0.41640 -0.60500
O 	O 	0.52680 0.13810 0.40770 -0.61100
O 	O 	0.60610 0.45530 0.06950 -0.49100
O 	O 	0.36560 0.42190 0.05980 -0.47700
O 	O 	0.44650 0.15770 0.58560 -0.58000
O 	O 	0.60430 0.06860 0.58550 -0.67700
O 	O 	0.79340 0.43440 0.91640 -0.60300
O 	O 	0.97320 0.36190 0.90770 -0.60500
O 	O 	0.89390 0.04470 0.56950 -0.48200
O 	O 	0.13440 0.07810 0.55980 -0.47900
