data_crystal

_cell_length_a 33.22770
_cell_length_b 9.72520
_cell_length_c 18.29130
_cell_angle_alpha 90.00000
_cell_angle_beta  93.67600
_cell_angle_gamma 90.00000

_symmetry_space_group_name_	'P 1'
_symmetry_space_group_name_H-M	'P 1'

loop_
_symmetry_equiv_pos_as_xyz
  x,y,z

loop_
_atom_site_label
_atom_site_type_symbol
_atom_site_fract_x
_atom_site_fract_y
_atom_site_fract_z
_atom_site_charge
Co	Co	0.34780 0.19901 0.51686 1.19300
Co	Co	0.25220 0.25400 0.50530 0.55400
O 	O 	0.34052 0.32140 0.60029 -0.43000
O 	O 	0.34657 0.69040 0.92560 -0.42000
O 	O 	0.27320 0.31530 0.60004 -0.41800
O 	O 	0.29733 0.09120 0.49470 -0.48700
O 	O 	0.28456 0.61790 0.94386 -0.42100
C 	C 	0.27326 0.86370 0.51930 -0.08700
C 	C 	0.31459 0.62700 0.90630 0.38600
C 	C 	0.30707 0.34720 0.62720 0.39000
C 	C 	0.29953 0.98570 0.53980 0.32500
O 	O 	0.32245 0.98520 0.59470 -0.29500
C 	C 	0.25144 0.85980 0.45220 0.03700
C 	C 	0.27654 0.49910 0.80570 0.04500
C 	C 	0.34513 0.47810 0.72690 0.04900
C 	C 	0.31284 0.55600 0.83390 -0.10600
O 	O 	0.40480 0.15600 0.53920 -0.44800
C 	C 	0.34685 0.54630 0.79450 0.05100
C 	C 	0.30917 0.42190 0.69920 -0.10500
C 	C 	0.27472 0.43290 0.73820 0.04600
C 	C 	0.27168 0.75310 0.56690 0.04100
C 	C 	0.46010 0.03830 0.49850 -0.10100
O 	O 	0.39100 0.02900 0.44710 -0.30400
C 	C 	0.41510 0.07910 0.49740 0.40000
C 	C 	0.48760 0.10410 0.54410 0.05100
C 	C 	0.47200 0.93850 0.45130 0.04500
Co	Co	0.84780 0.69901 0.51686 1.19400
Co	Co	0.75220 0.75400 0.50530 0.55500
O 	O 	0.84052 0.82140 0.60029 -0.42900
O 	O 	0.84657 0.19040 0.92560 -0.41900
O 	O 	0.77320 0.81530 0.60004 -0.41700
O 	O 	0.79733 0.59120 0.49470 -0.48600
O 	O 	0.78456 0.11790 0.94386 -0.42100
C 	C 	0.77326 0.36370 0.51930 -0.08600
C 	C 	0.81459 0.12700 0.90630 0.38700
C 	C 	0.80707 0.84720 0.62720 0.39100
C 	C 	0.79953 0.48570 0.53980 0.32500
O 	O 	0.82245 0.48520 0.59470 -0.29500
C 	C 	0.75144 0.35980 0.45220 0.03700
C 	C 	0.77654 0.99910 0.80570 0.04600
C 	C 	0.84513 0.97810 0.72690 0.05000
C 	C 	0.81284 0.05600 0.83390 -0.10700
O 	O 	0.90480 0.65600 0.53920 -0.44800
C 	C 	0.84685 0.04630 0.79450 0.05000
C 	C 	0.80917 0.92190 0.69920 -0.10500
C 	C 	0.77472 0.93290 0.73820 0.04600
C 	C 	0.77168 0.25310 0.56690 0.04100
C 	C 	0.96010 0.53830 0.49850 -0.10100
O 	O 	0.89100 0.52900 0.44710 -0.30400
C 	C 	0.91510 0.57910 0.49740 0.40000
C 	C 	0.98760 0.60410 0.54410 0.05100
C 	C 	0.97200 0.43850 0.45130 0.04500
Co	Co	0.65220 0.19901 0.98314 1.19400
Co	Co	0.74780 0.25400 0.99470 0.55600
O 	O 	0.65948 0.32140 0.89971 -0.42900
O 	O 	0.65343 0.69040 0.57440 -0.41900
O 	O 	0.72680 0.31530 0.89996 -0.41700
O 	O 	0.70267 0.09120 0.00530 -0.48600
O 	O 	0.71544 0.61790 0.55614 -0.42100
C 	C 	0.72674 0.86370 0.98070 -0.08500
C 	C 	0.68541 0.62700 0.59370 0.38700
C 	C 	0.69293 0.34720 0.87280 0.39100
C 	C 	0.70047 0.98570 0.96020 0.32500
O 	O 	0.67755 0.98520 0.90530 -0.29500
C 	C 	0.74856 0.85980 0.04780 0.03600
C 	C 	0.72346 0.49910 0.69430 0.04500
C 	C 	0.65487 0.47810 0.77310 0.04900
C 	C 	0.68716 0.55600 0.66610 -0.10600
O 	O 	0.59520 0.15600 0.96080 -0.44800
C 	C 	0.65315 0.54630 0.70550 0.05100
C 	C 	0.69083 0.42190 0.80080 -0.10500
C 	C 	0.72528 0.43290 0.76180 0.04600
C 	C 	0.72832 0.75310 0.93310 0.04100
C 	C 	0.53990 0.03830 0.00150 -0.10000
O 	O 	0.60900 0.02900 0.05290 -0.30400
C 	C 	0.58490 0.07910 0.00260 0.40100
C 	C 	0.51240 0.10410 0.95590 0.05000
C 	C 	0.52800 0.93850 0.04870 0.04500
Co	Co	0.15220 0.69901 0.98314 1.19400
Co	Co	0.24780 0.75400 0.99470 0.55400
O 	O 	0.15948 0.82140 0.89971 -0.42900
O 	O 	0.15343 0.19040 0.57440 -0.41900
O 	O 	0.22680 0.81530 0.89996 -0.41700
O 	O 	0.20267 0.59120 0.00530 -0.48600
O 	O 	0.21544 0.11790 0.55614 -0.42100
C 	C 	0.22674 0.36370 0.98070 -0.08600
C 	C 	0.18541 0.12700 0.59370 0.38700
C 	C 	0.19293 0.84720 0.87280 0.39200
C 	C 	0.20047 0.48570 0.96020 0.32500
O 	O 	0.17755 0.48520 0.90530 -0.29500
C 	C 	0.24856 0.35980 0.04780 0.03800
C 	C 	0.22346 0.99910 0.69430 0.04500
C 	C 	0.15487 0.97810 0.77310 0.05000
C 	C 	0.18716 0.05600 0.66610 -0.10700
O 	O 	0.09520 0.65600 0.96080 -0.44800
C 	C 	0.15315 0.04630 0.70550 0.05000
C 	C 	0.19083 0.92190 0.80080 -0.10500
C 	C 	0.22528 0.93290 0.76180 0.04600
C 	C 	0.22832 0.25310 0.93310 0.04100
C 	C 	0.03990 0.53830 0.00150 -0.10100
O 	O 	0.10900 0.52900 0.05290 -0.30400
C 	C 	0.08490 0.57910 0.00260 0.40100
C 	C 	0.01240 0.60410 0.95590 0.05100
C 	C 	0.02800 0.43850 0.04870 0.04600
Co	Co	0.65220 0.80099 0.48314 1.19400
Co	Co	0.74780 0.74600 0.49470 0.55500
O 	O 	0.65948 0.67860 0.39971 -0.42900
O 	O 	0.65343 0.30960 0.07440 -0.41900
O 	O 	0.72680 0.68470 0.39996 -0.41700
O 	O 	0.70267 0.90880 0.50530 -0.48600
O 	O 	0.71544 0.38210 0.05614 -0.42000
C 	C 	0.72674 0.13630 0.48070 -0.08600
C 	C 	0.68541 0.37300 0.09370 0.38700
C 	C 	0.69293 0.65280 0.37280 0.39100
C 	C 	0.70047 0.01430 0.46020 0.32500
O 	O 	0.67755 0.01480 0.40530 -0.29500
C 	C 	0.74856 0.14020 0.54780 0.03700
C 	C 	0.72346 0.50090 0.19430 0.04500
C 	C 	0.65487 0.52190 0.27310 0.04900
C 	C 	0.68716 0.44400 0.16610 -0.10600
O 	O 	0.59520 0.84400 0.46080 -0.44800
C 	C 	0.65315 0.45370 0.20550 0.05100
C 	C 	0.69083 0.57810 0.30080 -0.10500
C 	C 	0.72528 0.56710 0.26180 0.04600
C 	C 	0.72832 0.24690 0.43310 0.04100
C 	C 	0.53990 0.96170 0.50150 -0.10100
O 	O 	0.60900 0.97100 0.55290 -0.30400
C 	C 	0.58490 0.92090 0.50260 0.40000
C 	C 	0.51240 0.89590 0.45590 0.05100
C 	C 	0.52800 0.06150 0.54870 0.04500
Co	Co	0.15220 0.30099 0.48314 1.19400
Co	Co	0.24780 0.24600 0.49470 0.55500
O 	O 	0.15948 0.17860 0.39971 -0.42900
O 	O 	0.15343 0.80960 0.07440 -0.41900
O 	O 	0.22680 0.18470 0.39996 -0.41700
O 	O 	0.20267 0.40880 0.50530 -0.48600
O 	O 	0.21544 0.88210 0.05614 -0.42100
C 	C 	0.22674 0.63630 0.48070 -0.08600
C 	C 	0.18541 0.87300 0.09370 0.38700
C 	C 	0.19293 0.15280 0.37280 0.39100
C 	C 	0.20047 0.51430 0.46020 0.32500
O 	O 	0.17755 0.51480 0.40530 -0.29500
C 	C 	0.24856 0.64020 0.54780 0.03700
C 	C 	0.22346 0.00090 0.19430 0.04600
C 	C 	0.15487 0.02190 0.27310 0.05000
C 	C 	0.18716 0.94400 0.16610 -0.10700
O 	O 	0.09520 0.34400 0.46080 -0.44800
C 	C 	0.15315 0.95370 0.20550 0.05000
C 	C 	0.19083 0.07810 0.30080 -0.10500
C 	C 	0.22528 0.06710 0.26180 0.04600
C 	C 	0.22832 0.74690 0.43310 0.04100
C 	C 	0.03990 0.46170 0.50150 -0.10100
O 	O 	0.10900 0.47100 0.55290 -0.30400
C 	C 	0.08490 0.42090 0.50260 0.40000
C 	C 	0.01240 0.39590 0.45590 0.05100
C 	C 	0.02800 0.56150 0.54870 0.04500
Co	Co	0.34780 0.80099 0.01686 1.19400
Co	Co	0.25220 0.74600 0.00530 0.55600
O 	O 	0.34052 0.67860 0.10029 -0.42900
O 	O 	0.34657 0.30960 0.42560 -0.41900
O 	O 	0.27320 0.68470 0.10004 -0.41700
O 	O 	0.29733 0.90880 0.99470 -0.48600
O 	O 	0.28456 0.38210 0.44386 -0.42100
C 	C 	0.27326 0.13630 0.01930 -0.08500
C 	C 	0.31459 0.37300 0.40630 0.38700
C 	C 	0.30707 0.65280 0.12720 0.39100
C 	C 	0.29953 0.01430 0.03980 0.32500
O 	O 	0.32245 0.01480 0.09470 -0.29500
C 	C 	0.25144 0.14020 0.95220 0.03600
C 	C 	0.27654 0.50090 0.30570 0.04500
C 	C 	0.34513 0.52190 0.22690 0.04900
C 	C 	0.31284 0.44400 0.33390 -0.10600
O 	O 	0.40480 0.84400 0.03920 -0.44800
C 	C 	0.34685 0.45370 0.29450 0.05100
C 	C 	0.30917 0.57810 0.19920 -0.10500
C 	C 	0.27472 0.56710 0.23820 0.04600
C 	C 	0.27168 0.24690 0.06690 0.04100
C 	C 	0.46010 0.96170 0.99850 -0.10000
O 	O 	0.39100 0.97100 0.94710 -0.30400
C 	C 	0.41510 0.92090 0.99740 0.40100
C 	C 	0.48760 0.89590 0.04410 0.05000
C 	C 	0.47200 0.06150 0.95130 0.04500
Co	Co	0.84780 0.30099 0.01686 1.19400
Co	Co	0.75220 0.24600 0.00530 0.55400
O 	O 	0.84052 0.17860 0.10029 -0.42900
O 	O 	0.84657 0.80960 0.42560 -0.41900
O 	O 	0.77320 0.18470 0.10004 -0.41700
O 	O 	0.79733 0.40880 0.99470 -0.48600
O 	O 	0.78456 0.88210 0.44386 -0.42100
C 	C 	0.77326 0.63630 0.01930 -0.08600
C 	C 	0.81459 0.87300 0.40630 0.38700
C 	C 	0.80707 0.15280 0.12720 0.39200
C 	C 	0.79953 0.51430 0.03980 0.32500
O 	O 	0.82245 0.51480 0.09470 -0.29500
C 	C 	0.75144 0.64020 0.95220 0.03800
C 	C 	0.77654 0.00090 0.30570 0.04500
C 	C 	0.84513 0.02190 0.22690 0.05000
C 	C 	0.81284 0.94400 0.33390 -0.10700
O 	O 	0.90480 0.34400 0.03920 -0.44800
C 	C 	0.84685 0.95370 0.29450 0.05000
C 	C 	0.80917 0.07810 0.19920 -0.10500
C 	C 	0.77472 0.06710 0.23820 0.04600
C 	C 	0.77168 0.74690 0.06690 0.04100
C 	C 	0.96010 0.46170 0.99850 -0.10100
O 	O 	0.89100 0.47100 0.94710 -0.30400
C 	C 	0.91510 0.42090 0.99740 0.40100
C 	C 	0.98760 0.39590 0.04410 0.05100
C 	C 	0.97200 0.56150 0.95130 0.04600
