data_crystal

_cell_length_a 10.81900
_cell_length_b 24.51400
_cell_length_c 16.60700
_cell_angle_alpha 90.00000
_cell_angle_beta  91.68100
_cell_angle_gamma 90.00000

_symmetry_space_group_name_	'P 1'
_symmetry_space_group_name_H-M	'P 1'

loop_
_symmetry_equiv_pos_as_xyz
  x,y,z

loop_
_atom_site_label
_atom_site_type_symbol
_atom_site_fract_x
_atom_site_fract_y
_atom_site_fract_z
_atom_site_charge
Cd	Cd	0.99995 0.19798 0.96413 1.22700
Cd	Cd	0.71515 0.86784 0.00740 1.19200
C 	C 	0.98800 0.28940 0.05790 0.32300
C 	C 	0.98900 0.33855 0.11080 -0.09600
C 	C 	0.09200 0.35110 0.16060 0.02000
H 	H 	0.16250 0.32950 0.15830 0.03600
C 	C 	0.09060 0.39520 0.21330 -0.08700
H 	H 	0.15880 0.40250 0.24690 0.05900
C 	C 	0.98610 0.42828 0.21530 0.02800
C 	C 	0.88500 0.41650 0.16350 -0.09500
H 	H 	0.81600 0.43910 0.16320 0.06000
C 	C 	0.88630 0.37196 0.11320 0.02200
H 	H 	0.81730 0.36430 0.08040 0.03000
C 	C 	0.98250 0.47648 0.26890 0.07300
C 	C 	0.02840 0.47659 0.34820 -0.14000
C 	C 	0.07490 0.42537 0.39120 0.38400
C 	C 	0.02880 0.52495 0.39170 0.06700
H 	H 	0.06200 0.52510 0.44400 0.01800
C 	C 	0.98080 0.57346 0.35940 -0.14700
C 	C 	0.93260 0.57384 0.28080 0.06800
C 	C 	0.93630 0.52565 0.23670 -0.13900
H 	H 	0.90680 0.52600 0.18350 0.07800
C 	C 	0.88250 0.62304 0.23950 0.03300
C 	C 	0.93880 0.67403 0.24650 -0.09600
H 	H 	0.00860 0.67840 0.28000 0.07000
C 	C 	0.89120 0.71846 0.20380 0.03400
H 	H 	0.93020 0.75220 0.20840 0.00700
C 	C 	0.78580 0.71305 0.15410 -0.13700
C 	C 	0.72970 0.66330 0.14790 0.05300
H 	H 	0.65830 0.65950 0.11580 0.02100
C 	C 	0.77720 0.61853 0.18840 -0.11600
H 	H 	0.73890 0.58480 0.18190 0.06400
C 	C 	0.98320 0.62171 0.41500 0.35800
C 	C 	0.74950 0.25120 0.89030 0.06600
H 	H 	0.74410 0.26210 0.94370 0.00900
C 	C 	0.66140 0.27030 0.83550 -0.12700
H 	H 	0.59640 0.29190 0.85250 0.08500
C 	C 	0.67090 0.25708 0.75530 0.05100
C 	C 	0.76740 0.22220 0.73490 -0.13100
H 	H 	0.77730 0.21220 0.68140 0.09000
C 	C 	0.84810 0.20246 0.79410 0.06700
H 	H 	0.90850 0.17750 0.77990 0.00800
C 	C 	0.58330 0.27772 0.69230 0.07200
C 	C 	0.45830 0.28400 0.70810 -0.15200
H 	H 	0.42870 0.27380 0.75790 0.09600
C 	C 	0.37930 0.30520 0.65060 0.08000
H 	H 	0.29660 0.30960 0.66290 -0.00400
C 	C 	0.53540 0.31340 0.56130 0.08500
H 	H 	0.56250 0.32330 0.51060 -0.02500
C 	C 	0.61960 0.29280 0.61680 -0.15300
H 	H 	0.70200 0.28910 0.60320 0.09900
C 	C 	0.73080 0.76178 0.11110 0.36100
N 	N 	0.41530 0.31988 0.57740 -0.25500
N 	N 	0.84200 0.21803 0.87110 -0.22800
O 	O 	0.88860 0.26420 0.04720 -0.36600
O 	O 	0.08520 0.27435 0.02710 -0.38400
O 	O 	0.00980 0.38364 0.38756 -0.41500
O 	O 	0.17650 0.43202 0.43037 -0.46700
O 	O 	0.08370 0.63459 0.44808 -0.39400
O 	O 	0.88340 0.64691 0.42818 -0.50000
O 	O 	0.61570 0.76267 0.10250 -0.31900
O 	O 	0.80200 0.79960 0.08888 -0.52300
Cd	Cd	0.00005 0.69798 0.53587 1.22800
Cd	Cd	0.28485 0.36784 0.49260 1.19200
C 	C 	0.01200 0.78940 0.44210 0.32000
C 	C 	0.01100 0.83855 0.38920 -0.10200
C 	C 	0.90800 0.85110 0.33940 0.02400
H 	H 	0.83750 0.82950 0.34170 0.03300
C 	C 	0.90940 0.89520 0.28670 -0.08500
H 	H 	0.84120 0.90250 0.25310 0.05900
C 	C 	0.01390 0.92828 0.28470 0.02900
C 	C 	0.11500 0.91650 0.33650 -0.09700
H 	H 	0.18400 0.93910 0.33680 0.06000
C 	C 	0.11370 0.87196 0.38680 0.02400
H 	H 	0.18270 0.86430 0.41960 0.02900
C 	C 	0.01750 0.97648 0.23110 0.05800
C 	C 	0.97160 0.97659 0.15180 -0.12900
C 	C 	0.92510 0.92537 0.10880 0.38100
C 	C 	0.97120 0.02495 0.10830 0.05900
H 	H 	0.93800 0.02510 0.05600 0.02100
C 	C 	0.01920 0.07346 0.14060 -0.14100
C 	C 	0.06740 0.07384 0.21920 0.06100
C 	C 	0.06370 0.02565 0.26330 -0.12600
H 	H 	0.09320 0.02600 0.31650 0.07500
C 	C 	0.11750 0.12304 0.26050 0.03900
C 	C 	0.06120 0.17403 0.25350 -0.10400
H 	H 	0.99140 0.17840 0.22000 0.07400
C 	C 	0.10880 0.21846 0.29620 0.03900
H 	H 	0.06980 0.25220 0.29160 0.00500
C 	C 	0.21420 0.21305 0.34590 -0.14000
C 	C 	0.27030 0.16330 0.35210 0.05700
H 	H 	0.34170 0.15950 0.38420 0.02000
C 	C 	0.22280 0.11853 0.31160 -0.12000
H 	H 	0.26110 0.08480 0.31810 0.06600
C 	C 	0.01680 0.12171 0.08500 0.35500
C 	C 	0.25050 0.75120 0.60970 0.06700
H 	H 	0.25590 0.76210 0.55630 0.01000
C 	C 	0.33860 0.77030 0.66450 -0.12700
H 	H 	0.40360 0.79190 0.64750 0.08500
C 	C 	0.32910 0.75708 0.74470 0.05100
C 	C 	0.23260 0.72220 0.76510 -0.13100
H 	H 	0.22270 0.71220 0.81860 0.09000
C 	C 	0.15190 0.70246 0.70590 0.06800
H 	H 	0.09150 0.67750 0.72010 0.00900
C 	C 	0.41670 0.77772 0.80770 0.07200
C 	C 	0.54170 0.78400 0.79190 -0.15200
H 	H 	0.57130 0.77380 0.74210 0.09700
C 	C 	0.62070 0.80520 0.84940 0.08000
H 	H 	0.70340 0.80960 0.83710 -0.00400
C 	C 	0.46460 0.81340 0.93870 0.08600
H 	H 	0.43750 0.82330 0.98940 -0.02500
C 	C 	0.38040 0.79280 0.88320 -0.15300
H 	H 	0.29800 0.78910 0.89680 0.09900
C 	C 	0.26920 0.26178 0.38890 0.36200
N 	N 	0.58470 0.81988 0.92260 -0.25500
N 	N 	0.15800 0.71803 0.62890 -0.22700
O 	O 	0.11140 0.76420 0.45280 -0.36700
O 	O 	0.91480 0.77435 0.47290 -0.38300
O 	O 	0.99020 0.88364 0.11244 -0.41300
O 	O 	0.82350 0.93202 0.06963 -0.46700
O 	O 	0.91630 0.13459 0.05192 -0.39100
O 	O 	0.11660 0.14691 0.07182 -0.49800
O 	O 	0.38430 0.26267 0.39750 -0.31800
O 	O 	0.19800 0.29960 0.41112 -0.52400
Cd	Cd	0.00005 0.80202 0.03587 1.22600
Cd	Cd	0.28485 0.13216 0.99260 1.19100
C 	C 	0.01200 0.71060 0.94210 0.32200
C 	C 	0.01100 0.66145 0.88920 -0.09700
C 	C 	0.90800 0.64890 0.83940 0.01900
H 	H 	0.83750 0.67050 0.84170 0.03500
C 	C 	0.90940 0.60480 0.78670 -0.08700
H 	H 	0.84120 0.59750 0.75310 0.05900
C 	C 	0.01390 0.57172 0.78470 0.02800
C 	C 	0.11500 0.58350 0.83650 -0.09500
H 	H 	0.18400 0.56090 0.83680 0.06000
C 	C 	0.11370 0.62804 0.88680 0.02200
H 	H 	0.18270 0.63570 0.91960 0.03000
C 	C 	0.01750 0.52352 0.73110 0.07300
C 	C 	0.97160 0.52341 0.65180 -0.14000
C 	C 	0.92510 0.57463 0.60880 0.38400
C 	C 	0.97120 0.47505 0.60830 0.06700
H 	H 	0.93800 0.47490 0.55600 0.01800
C 	C 	0.01920 0.42654 0.64060 -0.14700
C 	C 	0.06740 0.42616 0.71920 0.06800
C 	C 	0.06370 0.47435 0.76330 -0.13900
H 	H 	0.09320 0.47400 0.81650 0.07800
C 	C 	0.11750 0.37696 0.76050 0.03300
C 	C 	0.06120 0.32597 0.75350 -0.09600
H 	H 	0.99140 0.32160 0.72000 0.07000
C 	C 	0.10880 0.28154 0.79620 0.03400
H 	H 	0.06980 0.24780 0.79160 0.00700
C 	C 	0.21420 0.28695 0.84590 -0.13700
C 	C 	0.27030 0.33670 0.85210 0.05300
H 	H 	0.34170 0.34050 0.88420 0.02100
C 	C 	0.22280 0.38147 0.81160 -0.11600
H 	H 	0.26110 0.41520 0.81810 0.06400
C 	C 	0.01680 0.37829 0.58500 0.35800
C 	C 	0.25050 0.74880 0.10970 0.06600
H 	H 	0.25590 0.73790 0.05630 0.00900
C 	C 	0.33860 0.72970 0.16450 -0.12700
H 	H 	0.40360 0.70810 0.14750 0.08500
C 	C 	0.32910 0.74292 0.24470 0.05100
C 	C 	0.23260 0.77780 0.26510 -0.13100
H 	H 	0.22270 0.78780 0.31860 0.09000
C 	C 	0.15190 0.79754 0.20590 0.06700
H 	H 	0.09150 0.82250 0.22010 0.00800
C 	C 	0.41670 0.72228 0.30770 0.07200
C 	C 	0.54170 0.71600 0.29190 -0.15200
H 	H 	0.57130 0.72620 0.24210 0.09600
C 	C 	0.62070 0.69480 0.34940 0.08000
H 	H 	0.70340 0.69040 0.33710 -0.00400
C 	C 	0.46460 0.68660 0.43870 0.08500
H 	H 	0.43750 0.67670 0.48940 -0.02500
C 	C 	0.38040 0.70720 0.38320 -0.15300
H 	H 	0.29800 0.71090 0.39680 0.09900
C 	C 	0.26920 0.23822 0.88890 0.36100
N 	N 	0.58470 0.68012 0.42260 -0.25500
N 	N 	0.15800 0.78197 0.12890 -0.22800
O 	O 	0.11140 0.73580 0.95280 -0.36600
O 	O 	0.91480 0.72565 0.97290 -0.38400
O 	O 	0.99020 0.61636 0.61244 -0.41500
O 	O 	0.82350 0.56798 0.56963 -0.46700
O 	O 	0.91630 0.36541 0.55192 -0.39400
O 	O 	0.11660 0.35309 0.57182 -0.50000
O 	O 	0.38430 0.23733 0.89750 -0.31900
O 	O 	0.19800 0.20040 0.91112 -0.52300
Cd	Cd	0.99995 0.30202 0.46413 1.22800
Cd	Cd	0.71515 0.63216 0.50740 1.19200
C 	C 	0.98800 0.21060 0.55790 0.32000
C 	C 	0.98900 0.16145 0.61080 -0.10200
C 	C 	0.09200 0.14890 0.66060 0.02400
H 	H 	0.16250 0.17050 0.65830 0.03300
C 	C 	0.09060 0.10480 0.71330 -0.08500
H 	H 	0.15880 0.09750 0.74690 0.05900
C 	C 	0.98610 0.07172 0.71530 0.02900
C 	C 	0.88500 0.08350 0.66350 -0.09700
H 	H 	0.81600 0.06090 0.66320 0.06000
C 	C 	0.88630 0.12804 0.61320 0.02400
H 	H 	0.81730 0.13570 0.58040 0.02900
C 	C 	0.98250 0.02352 0.76890 0.05800
C 	C 	0.02840 0.02341 0.84820 -0.12900
C 	C 	0.07490 0.07463 0.89120 0.38100
C 	C 	0.02880 0.97505 0.89170 0.05900
H 	H 	0.06200 0.97490 0.94400 0.02100
C 	C 	0.98080 0.92654 0.85940 -0.14100
C 	C 	0.93260 0.92616 0.78080 0.06100
C 	C 	0.93630 0.97435 0.73670 -0.12600
H 	H 	0.90680 0.97400 0.68350 0.07500
C 	C 	0.88250 0.87696 0.73950 0.03900
C 	C 	0.93880 0.82597 0.74650 -0.10400
H 	H 	0.00860 0.82160 0.78000 0.07400
C 	C 	0.89120 0.78154 0.70380 0.03900
H 	H 	0.93020 0.74780 0.70840 0.00500
C 	C 	0.78580 0.78695 0.65410 -0.14000
C 	C 	0.72970 0.83670 0.64790 0.05700
H 	H 	0.65830 0.84050 0.61580 0.02000
C 	C 	0.77720 0.88147 0.68840 -0.12000
H 	H 	0.73890 0.91520 0.68190 0.06600
C 	C 	0.98320 0.87829 0.91500 0.35500
C 	C 	0.74950 0.24880 0.39030 0.06700
H 	H 	0.74410 0.23790 0.44370 0.01000
C 	C 	0.66140 0.22970 0.33550 -0.12700
H 	H 	0.59640 0.20810 0.35250 0.08500
C 	C 	0.67090 0.24292 0.25530 0.05100
C 	C 	0.76740 0.27780 0.23490 -0.13100
H 	H 	0.77730 0.28780 0.18140 0.09000
C 	C 	0.84810 0.29754 0.29410 0.06800
H 	H 	0.90850 0.32250 0.27990 0.00900
C 	C 	0.58330 0.22228 0.19230 0.07200
C 	C 	0.45830 0.21600 0.20810 -0.15200
H 	H 	0.42870 0.22620 0.25790 0.09700
C 	C 	0.37930 0.19480 0.15060 0.08000
H 	H 	0.29660 0.19040 0.16290 -0.00400
C 	C 	0.53540 0.18660 0.06130 0.08600
H 	H 	0.56250 0.17670 0.01060 -0.02500
C 	C 	0.61960 0.20720 0.11680 -0.15300
H 	H 	0.70200 0.21090 0.10320 0.09900
C 	C 	0.73080 0.73822 0.61110 0.36200
N 	N 	0.41530 0.18012 0.07740 -0.25500
N 	N 	0.84200 0.28197 0.37110 -0.22700
O 	O 	0.88860 0.23580 0.54720 -0.36700
O 	O 	0.08520 0.22565 0.52710 -0.38300
O 	O 	0.00980 0.11636 0.88756 -0.41300
O 	O 	0.17650 0.06798 0.93037 -0.46700
O 	O 	0.08370 0.86541 0.94808 -0.39100
O 	O 	0.88340 0.85309 0.92818 -0.49800
O 	O 	0.61570 0.73733 0.60250 -0.31800
O 	O 	0.80200 0.70040 0.58888 -0.52400
