data_crystal

_cell_length_a 12.20000
_cell_length_b 26.58000
_cell_length_c 18.62000
_cell_angle_alpha 90.00000
_cell_angle_beta  104.82000
_cell_angle_gamma 90.00000

_symmetry_space_group_name_	'P 1'
_symmetry_space_group_name_H-M	'P 1'

loop_
_symmetry_equiv_pos_as_xyz
  x,y,z

loop_
_atom_site_label
_atom_site_type_symbol
_atom_site_fract_x
_atom_site_fract_y
_atom_site_fract_z
_atom_site_charge
Cd	Cd	0.78404 0.82999 0.79638 1.22400
Cd	Cd	0.38388 0.67129 0.77853 1.20600
O 	O 	0.21530 0.62270 0.73000 -0.41200
O 	O 	0.92420 0.87610 0.75240 -0.36000
O 	O 	0.34500 0.59600 0.82160 -0.44300
C 	C 	0.56150 0.81920 0.66440 0.00900
H 	H 	0.53680 0.80430 0.70270 0.02900
O 	O 	0.30680 0.73000 0.83650 -0.39700
O 	O 	0.85910 0.90490 0.84440 -0.38900
O 	O 	0.90350 0.76700 0.84130 -0.42700
N 	N 	0.66910 0.83400 0.87300 -0.23600
N 	N 	0.43200 0.66190 0.67040 -0.23200
O 	O 	0.36860 0.75830 0.74080 -0.35500
O 	O 	0.75220 0.74210 0.76070 -0.36800
C 	C 	0.53520 0.83870 0.97340 0.02800
C 	C 	0.01350 0.67640 0.84400 0.02200
H 	H 	0.04860 0.70020 0.87900 0.04100
N 	N 	0.66300 0.84030 0.68400 -0.22600
C 	C 	0.25090 0.59370 0.77640 0.39600
C 	C 	0.28870 0.85490 0.75510 0.02000
H 	H 	0.33020 0.85010 0.72010 0.04400
C 	C 	0.85460 0.73500 0.80250 0.34900
C 	C 	0.92260 0.90900 0.80010 0.31300
C 	C 	0.48780 0.81610 0.59510 0.04100
C 	C 	0.01280 0.59360 0.78890 0.03500
C 	C 	0.21550 0.82490 0.85380 0.02600
H 	H 	0.21370 0.80030 0.88900 0.04000
C 	C 	0.10540 0.95550 0.80520 0.08200
C 	C 	0.07290 0.54610 0.78710 0.07500
C 	C 	0.27540 0.81630 0.80350 -0.07800
C 	C 	0.99210 0.95520 0.80640 -0.11900
C 	C 	0.53850 0.79770 0.93040 -0.14300
H 	H 	0.49380 0.76980 0.93330 0.07100
C 	C 	0.36080 0.64440 0.60850 0.06200
H 	H 	0.29330 0.63000 0.61300 0.00900
C 	C 	0.67090 0.87550 0.91930 -0.03200
H 	H 	0.71840 0.90210 0.91520 0.05400
C 	C 	0.32130 0.76610 0.79400 0.27600
C 	C 	0.16980 0.90830 0.80570 0.03600
C 	C 	0.15830 0.86800 0.85470 -0.08100
H 	H 	0.11160 0.87170 0.88680 0.06900
C 	C 	0.23870 0.89920 0.76150 -0.08500
H 	H 	0.25320 0.92580 0.73280 0.06500
C 	C 	0.53380 0.83800 0.53750 0.02200
C 	C 	0.89950 0.68600 0.79480 -0.11400
C 	C 	0.52400 0.68200 0.65690 -0.00800
H 	H 	0.57190 0.69640 0.69880 0.02600
C 	C 	0.06690 0.63160 0.83690 -0.08700
H 	H 	0.14100 0.62660 0.86490 0.06200
C 	C 	0.18830 0.54600 0.78670 -0.13600
C 	C 	0.60570 0.79760 0.88430 0.10300
H 	H 	0.60710 0.76820 0.85740 -0.04100
C 	C 	0.56180 0.68600 0.59920 0.05500
C 	C 	0.61080 0.87980 0.96820 0.05400
C 	C 	0.84740 0.64860 0.75060 0.03600
H 	H 	0.77260 0.65270 0.72330 0.03100
C 	C 	0.70170 0.86030 0.62890 0.05500
H 	H 	0.77010 0.87770 0.64080 0.01100
N 	N 	0.37400 0.79870 0.58690 -0.09100
C 	C 	0.64440 0.85600 0.55680 -0.10100
H 	H 	0.67930 0.86510 0.51980 0.08000
C 	C 	0.90630 0.60180 0.74460 -0.09700
H 	H 	0.87140 0.57740 0.71060 0.06600
C 	C 	0.37920 0.64600 0.53950 -0.10100
H 	H 	0.32580 0.63520 0.49730 0.07800
C 	C 	0.48920 0.66610 0.53730 0.01500
N 	N 	0.66280 0.70650 0.60440 -0.09800
N 	N 	0.61120 0.92690 0.00410 -0.08900
Cd	Cd	0.21596 0.82999 0.20362 1.22300
Cd	Cd	0.61612 0.67129 0.22147 1.20500
O 	O 	0.78470 0.62270 0.27000 -0.41300
O 	O 	0.07580 0.87610 0.24760 -0.36100
O 	O 	0.65500 0.59600 0.17840 -0.44400
C 	C 	0.43850 0.81920 0.33560 0.00800
H 	H 	0.46320 0.80430 0.29730 0.02800
O 	O 	0.69320 0.73000 0.16350 -0.39800
O 	O 	0.14090 0.90490 0.15560 -0.38900
O 	O 	0.09650 0.76700 0.15870 -0.42700
N 	N 	0.33090 0.83400 0.12700 -0.23600
N 	N 	0.56800 0.66190 0.32960 -0.23200
O 	O 	0.63140 0.75830 0.25920 -0.35500
O 	O 	0.24780 0.74210 0.23930 -0.36800
C 	C 	0.46480 0.83870 0.02660 0.02800
C 	C 	0.98650 0.67640 0.15600 0.02200
H 	H 	0.95140 0.70020 0.12100 0.04100
N 	N 	0.33700 0.84030 0.31600 -0.22600
C 	C 	0.74910 0.59370 0.22360 0.39600
C 	C 	0.71130 0.85490 0.24490 0.02000
H 	H 	0.66980 0.85010 0.27990 0.04400
C 	C 	0.14540 0.73500 0.19750 0.34900
C 	C 	0.07740 0.90900 0.19990 0.31300
C 	C 	0.51220 0.81610 0.40490 0.04100
C 	C 	0.98720 0.59360 0.21110 0.03500
C 	C 	0.78450 0.82490 0.14620 0.02600
H 	H 	0.78630 0.80030 0.11100 0.04000
C 	C 	0.89460 0.95550 0.19480 0.08200
C 	C 	0.92710 0.54610 0.21290 0.07500
C 	C 	0.72460 0.81630 0.19650 -0.07800
C 	C 	0.00790 0.95520 0.19360 -0.11900
C 	C 	0.46150 0.79770 0.06960 -0.14300
H 	H 	0.50620 0.76980 0.06670 0.07100
C 	C 	0.63920 0.64440 0.39150 0.06200
H 	H 	0.70670 0.63000 0.38700 0.00900
C 	C 	0.32910 0.87550 0.08070 -0.03200
H 	H 	0.28160 0.90210 0.08480 0.05400
C 	C 	0.67870 0.76610 0.20600 0.27600
C 	C 	0.83020 0.90830 0.19430 0.03600
C 	C 	0.84170 0.86800 0.14530 -0.08100
H 	H 	0.88840 0.87170 0.11320 0.06900
C 	C 	0.76130 0.89920 0.23850 -0.08500
H 	H 	0.74680 0.92580 0.26720 0.06500
C 	C 	0.46620 0.83800 0.46250 0.02200
C 	C 	0.10050 0.68600 0.20520 -0.11400
C 	C 	0.47600 0.68200 0.34310 -0.00800
H 	H 	0.42810 0.69640 0.30120 0.02600
C 	C 	0.93310 0.63160 0.16310 -0.08700
H 	H 	0.85900 0.62660 0.13510 0.06200
C 	C 	0.81170 0.54600 0.21330 -0.13600
C 	C 	0.39430 0.79760 0.11570 0.10300
H 	H 	0.39290 0.76820 0.14260 -0.04100
C 	C 	0.43820 0.68600 0.40080 0.05500
C 	C 	0.38920 0.87980 0.03180 0.05400
C 	C 	0.15260 0.64860 0.24940 0.03600
H 	H 	0.22740 0.65270 0.27670 0.03100
C 	C 	0.29830 0.86030 0.37110 0.05500
H 	H 	0.22990 0.87770 0.35920 0.01100
N 	N 	0.62600 0.79870 0.41310 -0.09100
C 	C 	0.35560 0.85600 0.44320 -0.10100
H 	H 	0.32070 0.86510 0.48020 0.08000
C 	C 	0.09370 0.60180 0.25540 -0.09700
H 	H 	0.12860 0.57740 0.28940 0.06600
C 	C 	0.62080 0.64600 0.46050 -0.10100
H 	H 	0.67420 0.63520 0.50270 0.07800
C 	C 	0.51080 0.66610 0.46270 0.01500
N 	N 	0.33720 0.70650 0.39560 -0.09800
N 	N 	0.38880 0.92690 0.99590 -0.08900
Cd	Cd	0.21596 0.17001 0.20362 1.22300
Cd	Cd	0.61612 0.32871 0.22147 1.20500
O 	O 	0.78470 0.37730 0.27000 -0.41300
O 	O 	0.07580 0.12390 0.24760 -0.36100
O 	O 	0.65500 0.40400 0.17840 -0.44400
C 	C 	0.43850 0.18080 0.33560 0.00800
H 	H 	0.46320 0.19570 0.29730 0.02800
O 	O 	0.69320 0.27000 0.16350 -0.39800
O 	O 	0.14090 0.09510 0.15560 -0.38900
O 	O 	0.09650 0.23300 0.15870 -0.42700
N 	N 	0.33090 0.16600 0.12700 -0.23600
N 	N 	0.56800 0.33810 0.32960 -0.23200
O 	O 	0.63140 0.24170 0.25920 -0.35500
O 	O 	0.24780 0.25790 0.23930 -0.36800
C 	C 	0.46480 0.16130 0.02660 0.02800
C 	C 	0.98650 0.32360 0.15600 0.02200
H 	H 	0.95140 0.29980 0.12100 0.04100
N 	N 	0.33700 0.15970 0.31600 -0.22600
C 	C 	0.74910 0.40630 0.22360 0.39600
C 	C 	0.71130 0.14510 0.24490 0.01900
H 	H 	0.66980 0.14990 0.27990 0.04400
C 	C 	0.14540 0.26500 0.19750 0.34900
C 	C 	0.07740 0.09100 0.19990 0.31300
C 	C 	0.51220 0.18390 0.40490 0.04100
C 	C 	0.98720 0.40640 0.21110 0.03500
C 	C 	0.78450 0.17510 0.14620 0.02600
H 	H 	0.78630 0.19970 0.11100 0.04000
C 	C 	0.89460 0.04450 0.19480 0.08100
C 	C 	0.92710 0.45390 0.21290 0.07500
C 	C 	0.72460 0.18370 0.19650 -0.07800
C 	C 	0.00790 0.04480 0.19360 -0.12000
C 	C 	0.46150 0.20230 0.06960 -0.14300
H 	H 	0.50620 0.23020 0.06670 0.07100
C 	C 	0.63920 0.35560 0.39150 0.06200
H 	H 	0.70670 0.37000 0.38700 0.00900
C 	C 	0.32910 0.12450 0.08070 -0.03200
H 	H 	0.28160 0.09790 0.08480 0.05400
C 	C 	0.67870 0.23390 0.20600 0.27600
C 	C 	0.83020 0.09170 0.19430 0.03600
C 	C 	0.84170 0.13200 0.14530 -0.08100
H 	H 	0.88840 0.12830 0.11320 0.06800
C 	C 	0.76130 0.10080 0.23850 -0.08500
H 	H 	0.74680 0.07420 0.26720 0.06500
C 	C 	0.46620 0.16200 0.46250 0.02200
C 	C 	0.10050 0.31400 0.20520 -0.11400
C 	C 	0.47600 0.31800 0.34310 -0.00800
H 	H 	0.42810 0.30360 0.30120 0.02600
C 	C 	0.93310 0.36840 0.16310 -0.08700
H 	H 	0.85900 0.37340 0.13510 0.06200
C 	C 	0.81170 0.45400 0.21330 -0.13600
C 	C 	0.39430 0.20240 0.11570 0.10300
H 	H 	0.39290 0.23180 0.14260 -0.04100
C 	C 	0.43820 0.31400 0.40080 0.05500
C 	C 	0.38920 0.12020 0.03180 0.05400
C 	C 	0.15260 0.35140 0.24940 0.03600
H 	H 	0.22740 0.34730 0.27670 0.03100
C 	C 	0.29830 0.13970 0.37110 0.05500
H 	H 	0.22990 0.12230 0.35920 0.01100
N 	N 	0.62600 0.20130 0.41310 -0.09100
C 	C 	0.35560 0.14400 0.44320 -0.10100
H 	H 	0.32070 0.13490 0.48020 0.08000
C 	C 	0.09370 0.39820 0.25540 -0.09700
H 	H 	0.12860 0.42260 0.28940 0.06600
C 	C 	0.62080 0.35400 0.46050 -0.10100
H 	H 	0.67420 0.36480 0.50270 0.07800
C 	C 	0.51080 0.33390 0.46270 0.01500
N 	N 	0.33720 0.29350 0.39560 -0.09800
N 	N 	0.38880 0.07310 0.99590 -0.08900
Cd	Cd	0.78404 0.17001 0.79638 1.22300
Cd	Cd	0.38388 0.32871 0.77853 1.20500
O 	O 	0.21530 0.37730 0.73000 -0.41300
O 	O 	0.92420 0.12390 0.75240 -0.36100
O 	O 	0.34500 0.40400 0.82160 -0.44400
C 	C 	0.56150 0.18080 0.66440 0.00800
H 	H 	0.53680 0.19570 0.70270 0.02800
O 	O 	0.30680 0.27000 0.83650 -0.39800
O 	O 	0.85910 0.09510 0.84440 -0.38900
O 	O 	0.90350 0.23300 0.84130 -0.42700
N 	N 	0.66910 0.16600 0.87300 -0.23600
N 	N 	0.43200 0.33810 0.67040 -0.23200
O 	O 	0.36860 0.24170 0.74080 -0.35500
O 	O 	0.75220 0.25790 0.76070 -0.36800
C 	C 	0.53520 0.16130 0.97340 0.02800
C 	C 	0.01350 0.32360 0.84400 0.02200
H 	H 	0.04860 0.29980 0.87900 0.04100
N 	N 	0.66300 0.15970 0.68400 -0.22600
C 	C 	0.25090 0.40630 0.77640 0.39600
C 	C 	0.28870 0.14510 0.75510 0.01900
H 	H 	0.33020 0.14990 0.72010 0.04400
C 	C 	0.85460 0.26500 0.80250 0.34900
C 	C 	0.92260 0.09100 0.80010 0.31300
C 	C 	0.48780 0.18390 0.59510 0.04100
C 	C 	0.01280 0.40640 0.78890 0.03500
C 	C 	0.21550 0.17510 0.85380 0.02600
H 	H 	0.21370 0.19970 0.88900 0.04000
C 	C 	0.10540 0.04450 0.80520 0.08100
C 	C 	0.07290 0.45390 0.78710 0.07500
C 	C 	0.27540 0.18370 0.80350 -0.07800
C 	C 	0.99210 0.04480 0.80640 -0.12000
C 	C 	0.53850 0.20230 0.93040 -0.14300
H 	H 	0.49380 0.23020 0.93330 0.07100
C 	C 	0.36080 0.35560 0.60850 0.06200
H 	H 	0.29330 0.37000 0.61300 0.00900
C 	C 	0.67090 0.12450 0.91930 -0.03200
H 	H 	0.71840 0.09790 0.91520 0.05400
C 	C 	0.32130 0.23390 0.79400 0.27600
C 	C 	0.16980 0.09170 0.80570 0.03600
C 	C 	0.15830 0.13200 0.85470 -0.08100
H 	H 	0.11160 0.12830 0.88680 0.06800
C 	C 	0.23870 0.10080 0.76150 -0.08500
H 	H 	0.25320 0.07420 0.73280 0.06500
C 	C 	0.53380 0.16200 0.53750 0.02200
C 	C 	0.89950 0.31400 0.79480 -0.11400
C 	C 	0.52400 0.31800 0.65690 -0.00800
H 	H 	0.57190 0.30360 0.69880 0.02600
C 	C 	0.06690 0.36840 0.83690 -0.08700
H 	H 	0.14100 0.37340 0.86490 0.06200
C 	C 	0.18830 0.45400 0.78670 -0.13600
C 	C 	0.60570 0.20240 0.88430 0.10300
H 	H 	0.60710 0.23180 0.85740 -0.04100
C 	C 	0.56180 0.31400 0.59920 0.05500
C 	C 	0.61080 0.12020 0.96820 0.05400
C 	C 	0.84740 0.35140 0.75060 0.03600
H 	H 	0.77260 0.34730 0.72330 0.03100
C 	C 	0.70170 0.13970 0.62890 0.05500
H 	H 	0.77010 0.12230 0.64080 0.01100
N 	N 	0.37400 0.20130 0.58690 -0.09100
C 	C 	0.64440 0.14400 0.55680 -0.10100
H 	H 	0.67930 0.13490 0.51980 0.08000
C 	C 	0.90630 0.39820 0.74460 -0.09700
H 	H 	0.87140 0.42260 0.71060 0.06600
C 	C 	0.37920 0.35400 0.53950 -0.10100
H 	H 	0.32580 0.36480 0.49730 0.07800
C 	C 	0.48920 0.33390 0.53730 0.01500
N 	N 	0.66280 0.29350 0.60440 -0.09800
N 	N 	0.61120 0.07310 0.00410 -0.08900
C 	C 	0.93910 0.00000 0.80920 0.06400
H 	H 	0.86460 0.00000 0.81310 0.03100
C 	C 	0.16370 0.00000 0.80800 -0.14400
H 	H 	0.24120 0.00000 0.81180 0.09000
C 	C 	0.06090 0.00000 0.19080 0.06400
H 	H 	0.13540 0.00000 0.18690 0.03100
C 	C 	0.83630 0.00000 0.19200 -0.14400
H 	H 	0.75880 0.00000 0.18820 0.09000
C 	C 	0.02110 0.50000 0.78610 -0.13700
H 	H 	0.94430 0.50000 0.78470 0.07600
C 	C 	0.24190 0.50000 0.78420 0.07800
H 	H 	0.31660 0.50000 0.78080 0.01800
C 	C 	0.97890 0.50000 0.21390 -0.13700
H 	H 	0.05570 0.50000 0.21530 0.07600
C 	C 	0.75810 0.50000 0.21580 0.07800
H 	H 	0.68340 0.50000 0.21920 0.01800
