data_crystal

_cell_length_a 10.81770
_cell_length_b 19.84830
_cell_length_c 25.86870
_cell_angle_alpha 101.11700
_cell_angle_beta  101.10800
_cell_angle_gamma 94.82700

_symmetry_space_group_name_	'P 1'
_symmetry_space_group_name_H-M	'P 1'

loop_
_symmetry_equiv_pos_as_xyz
  x,y,z

loop_
_atom_site_label
_atom_site_type_symbol
_atom_site_fract_x
_atom_site_fract_y
_atom_site_fract_z
_atom_site_charge
Ba	Ba	0.82653 0.18894 0.28947 2.02200
Ba	Ba	0.53567 0.29864 0.19253 2.00600
Ba	Ba	0.46462 0.20723 0.34293 1.74500
Ba	Ba	0.93015 0.36399 0.22817 1.83200
O 	O 	0.92330 0.21580 0.39740 -0.45000
O 	O 	0.89360 0.21530 0.19370 -0.69900
O 	O 	0.59790 0.82050 0.78060 -0.64200
O 	O 	0.71200 0.71080 0.83910 -0.63800
O 	O 	0.79150 0.06260 0.31740 -0.43100
O 	O 	0.68230 0.20020 0.18150 -0.62000
O 	O 	0.80820 0.04550 0.22990 -0.40500
O 	O 	0.95080 0.85410 0.70880 -0.62900
C 	C 	0.51400 0.86510 0.77850 0.44700
O 	O 	0.71650 0.22520 0.38090 -0.58900
C 	C 	0.78500 0.18910 0.16630 0.44400
O 	O 	0.57060 0.30850 0.30090 -0.66400
O 	O 	0.77130 0.32920 0.29050 -0.67500
O 	O 	0.89810 0.68300 0.82480 -0.65600
O 	O 	0.58860 0.44030 0.22270 -0.49700
O 	O 	0.75160 0.88050 0.69850 -0.59900
O 	O 	0.93600 0.70590 0.70580 -0.66200
C 	C 	0.85600 0.88200 0.68670 0.49200
O 	O 	0.55360 0.30560 0.08820 -0.44500
C 	C 	0.88900 0.18890 0.67670 -0.03500
H 	H 	0.90770 0.21000 0.71320 0.04300
C 	C 	0.88000 0.13760 0.47670 0.05200
H 	H 	0.95520 0.13680 0.46470 0.01700
O 	O 	0.42910 0.86030 0.73760 -0.62600
O 	O 	0.73880 0.33830 0.14620 -0.62400
O 	O 	0.73080 0.71980 0.69120 -0.62200
O 	O 	0.80090 0.47270 0.24880 -0.53100
C 	C 	0.81700 0.20860 0.40880 0.37800
C 	C 	0.82700 0.69340 0.67690 0.48200
C 	C 	0.65900 0.45500 0.99720 -0.04300
C 	C 	0.88100 0.67880 0.49610 -0.08000
H 	H 	0.89440 0.71050 0.52880 0.05700
C 	C 	0.02500 0.77220 0.16520 -0.03900
H 	H 	0.08450 0.79240 0.14960 0.03400
C 	C 	0.67500 0.45950 0.85510 -0.08000
H 	H 	0.67920 0.49090 0.83290 0.03500
C 	C 	0.61600 0.93090 0.86980 0.19600
H 	H 	0.68400 0.90570 0.86620 -0.11300
C 	C 	0.62800 0.98230 0.92090 -0.11700
C 	C 	0.80200 0.67340 0.84390 0.51100
C 	C 	0.66600 0.52790 0.01930 0.00700
C 	C 	0.83400 0.00980 0.58990 -0.09500
C 	C 	0.77700 0.14100 0.11250 -0.30400
H 	H 	0.84990 0.12390 0.10470 0.07900
C 	C 	0.66300 0.34010 0.10320 0.41500
C 	C 	0.68800 0.57790 0.98840 0.03300
C 	C 	0.84400 0.02370 0.49740 0.01100
C 	C 	0.70800 0.97690 0.06930 -0.07700
H 	H 	0.72150 0.00600 0.10310 0.05000
C 	C 	0.89600 0.22680 0.64380 -0.02400
H 	H 	0.90590 0.27460 0.65600 0.02900
C 	C 	0.70400 0.61010 0.90370 0.12800
H 	H 	0.64750 0.64260 0.90560 -0.04500
C 	C 	0.86300 0.09500 0.51490 -0.04900
C 	C 	0.78700 0.87950 0.46050 -0.03700
H 	H 	0.76680 0.83200 0.44780 0.03300
C 	C 	0.61800 0.09680 0.97650 0.01300
C 	C 	0.79800 0.02510 0.27260 0.34900
C 	C 	0.67200 0.79330 0.25470 0.00700
C 	C 	0.68200 0.33900 0.31690 0.45700
C 	C 	0.69300 0.48430 0.23470 0.47400
C 	C 	0.94300 0.80920 0.18490 -0.06500
H 	H 	0.94460 0.85510 0.18160 0.04500
C 	C 	0.52100 0.91880 0.83070 -0.39400
H 	H 	0.45230 0.94340 0.83380 0.15800
C 	C 	0.60800 0.05070 0.92390 0.04100
C 	C 	0.67800 0.48410 0.91090 0.02700
C 	C 	0.79800 0.17790 0.45680 -0.24600
H 	H 	0.72910 0.18740 0.47250 0.07700
C 	C 	0.85200 0.65440 0.39920 -0.03400
H 	H 	0.84640 0.67130 0.36780 0.03900
C 	C 	0.85000 0.71110 0.21460 0.02900
C 	C 	0.79900 0.94960 0.27260 -0.22500
H 	H 	0.82290 0.93730 0.30570 0.11600
C 	C 	0.85300 0.48290 0.58810 -0.05000
H 	H 	0.86550 0.51340 0.62130 0.00800
C 	C 	0.70400 0.86440 0.01480 -0.04700
H 	H 	0.71440 0.81800 0.01300 0.03500
C 	C 	0.71800 0.90860 0.06470 -0.02600
H 	H 	0.73390 0.89080 0.09570 0.03500
C 	C 	0.76700 0.89850 0.22840 0.04300
H 	H 	0.74540 0.90970 0.19480 0.01800
C 	C 	0.63200 0.40310 0.02730 0.06000
H 	H 	0.55770 0.37270 0.01310 0.02200
C 	C 	0.67600 0.88760 0.96940 -0.06200
H 	H 	0.66740 0.85660 0.93660 0.01100
C 	C 	0.76300 0.68200 0.24050 -0.07800
C 	C 	0.48700 0.80010 0.29580 -0.04500
H 	H 	0.42300 0.82480 0.30620 0.03700
C 	C 	0.79200 0.61680 0.87250 -0.38200
H 	H 	0.84780 0.58380 0.86930 0.12100
C 	C 	0.65100 0.55250 0.07500 -0.05800
H 	H 	0.63560 0.52040 0.09560 0.04800
C 	C 	0.86500 0.60580 0.49540 0.02300
C 	C 	0.82400 0.98070 0.53450 0.02800
C 	C 	0.57700 0.08020 0.87650 -0.09100
H 	H 	0.57300 0.05230 0.84280 0.05100
C 	C 	0.79900 0.64770 0.62190 -0.37800
H 	H 	0.71500 0.63090 0.60570 0.11500
C 	C 	0.66900 0.43570 0.94330 0.01100
C 	C 	0.70500 0.65090 0.01460 -0.07700
H 	H 	0.72540 0.68430 0.99580 0.05200
C 	C 	0.85300 0.08360 0.60880 0.03100
C 	C 	0.66000 0.95700 0.96940 0.02200
C 	C 	0.87700 0.70210 0.44980 -0.03300
H 	H 	0.89050 0.74940 0.45120 0.03700
C 	C 	0.76500 0.60830 0.24560 0.11100
H 	H 	0.84260 0.59710 0.26240 -0.01200
C 	C 	0.65600 0.07250 0.02300 -0.06200
C 	C 	0.85100 0.78290 0.21090 0.00800
C 	C 	0.83200 0.99060 0.44080 -0.07000
H 	H 	0.84160 0.01760 0.41580 0.05600
C 	C 	0.02100 0.70000 0.16800 -0.03100
H 	H 	0.07390 0.67230 0.15150 0.03400
C 	C 	0.81900 0.38950 0.48880 -0.09400
H 	H 	0.81270 0.35770 0.45660 0.05300
C 	C 	0.86400 0.12560 0.56830 0.01100
C 	C 	0.76500 0.82350 0.23160 -0.03900
C 	C 	0.66600 0.38870 0.83340 -0.03800
H 	H 	0.66220 0.37320 0.79670 0.03100
C 	C 	0.88300 0.92250 0.64460 -0.37800
H 	H 	0.95080 0.91310 0.62830 0.15300
C 	C 	0.86500 0.58140 0.54280 -0.08000
C 	C 	0.80700 0.92210 0.42490 -0.02700
H 	H 	0.80350 0.90190 0.38900 0.03900
C 	C 	0.94100 0.67370 0.19500 -0.07700
H 	H 	0.94610 0.62910 0.20070 0.04100
C 	C 	0.84900 0.50780 0.54040 0.00900
C 	C 	0.67700 0.00400 0.02150 0.01600
C 	C 	0.67100 0.72180 0.25970 0.03600
C 	C 	0.85600 0.11630 0.66280 -0.08000
H 	H 	0.83760 0.09140 0.68780 0.05100
C 	C 	0.66100 0.62010 0.09640 -0.04000
H 	H 	0.64780 0.63440 0.13110 0.04700
C 	C 	0.66900 0.12200 0.07570 0.09300
H 	H 	0.59640 0.14060 0.08330 -0.01400
C 	C 	0.81600 0.96830 0.63110 0.15500
H 	H 	0.75010 0.97700 0.64860 -0.04800
C 	C 	0.84100 0.55740 0.44320 0.03000
C 	C 	0.67100 0.55760 0.22920 -0.32000
H 	H 	0.59060 0.56660 0.21410 0.14300
C 	C 	0.69100 0.67080 0.06650 -0.02400
H 	H 	0.70090 0.71770 0.08260 0.03700
C 	C 	0.58800 0.16680 0.97710 -0.06300
H 	H 	0.59020 0.19640 0.01000 0.05400
C 	C 	0.69400 0.55620 0.93380 -0.08600
C 	C 	0.82500 0.48730 0.44110 -0.08500
C 	C 	0.57600 0.83030 0.27240 -0.06300
H 	H 	0.57290 0.87570 0.26820 0.04900
C 	C 	0.82900 0.46140 0.48830 0.03300
C 	C 	0.55400 0.14580 0.87950 -0.02000
H 	H 	0.53620 0.16280 0.84810 0.03200
C 	C 	0.83500 0.58430 0.39550 -0.07800
H 	H 	0.82090 0.55420 0.36200 0.05200
C 	C 	0.84000 0.41410 0.58460 -0.05700
H 	H 	0.84340 0.39740 0.61600 0.03100
C 	C 	0.79600 0.90780 0.51430 -0.07600
H 	H 	0.78440 0.87900 0.53780 0.03000
C 	C 	0.55700 0.19010 0.93040 -0.04300
H 	H 	0.53700 0.23510 0.93180 0.04200
C 	C 	0.89000 0.62950 0.59440 0.12300
H 	H 	0.97380 0.64910 0.60970 -0.04200
C 	C 	0.49200 0.73240 0.30380 -0.02200
H 	H 	0.43270 0.71210 0.31960 0.02500
C 	C 	0.70900 0.38790 0.36930 -0.34500
H 	H 	0.65240 0.38360 0.39150 0.10700
C 	C 	0.58700 0.69620 0.28800 -0.09000
H 	H 	0.59450 0.65320 0.29660 0.05800
C 	C 	0.80700 0.43780 0.38870 0.13000
H 	H 	0.86760 0.44180 0.36800 -0.04300
C 	C 	0.82000 0.36610 0.53440 -0.01600
H 	H 	0.80720 0.31880 0.53300 0.02100
C 	C 	0.70300 0.39440 0.07330 -0.26000
H 	H 	0.77920 0.42270 0.08780 0.09500
C 	C 	0.89000 0.20040 0.59030 -0.07900
H 	H 	0.90170 0.23020 0.56760 0.05600
C 	C 	0.66700 0.36250 0.91950 -0.06700
H 	H 	0.66860 0.33020 0.94120 0.05200
C 	C 	0.66400 0.34120 0.86660 -0.03400
H 	H 	0.66000 0.29430 0.85200 0.03700
Ba	Ba	0.14841 0.19282 0.21056 1.73600
Ba	Ba	0.17347 0.81106 0.71053 2.02300
Ba	Ba	0.46433 0.70136 0.80747 2.00700
Ba	Ba	0.53538 0.79277 0.65707 1.74500
Ba	Ba	0.06985 0.63601 0.77183 1.83200
O 	O 	0.07670 0.78420 0.60260 -0.45000
O 	O 	0.10640 0.78470 0.80630 -0.69900
O 	O 	0.40210 0.17950 0.21940 -0.64200
O 	O 	0.28800 0.28920 0.16090 -0.63800
O 	O 	0.20850 0.93740 0.68260 -0.43100
O 	O 	0.31770 0.79980 0.81850 -0.62000
O 	O 	0.19180 0.95450 0.77010 -0.40500
O 	O 	0.04920 0.14590 0.29120 -0.62900
C 	C 	0.48600 0.13490 0.22150 0.44700
O 	O 	0.28350 0.77480 0.61910 -0.58900
C 	C 	0.21500 0.81090 0.83370 0.44400
O 	O 	0.42940 0.69150 0.69910 -0.66400
O 	O 	0.22870 0.67080 0.70950 -0.67500
O 	O 	0.10190 0.31700 0.17520 -0.65600
O 	O 	0.41140 0.55970 0.77730 -0.49700
O 	O 	0.24840 0.11950 0.30150 -0.59900
O 	O 	0.06400 0.29410 0.29420 -0.66200
C 	C 	0.14400 0.11800 0.31330 0.49200
O 	O 	0.44640 0.69440 0.91180 -0.44500
C 	C 	0.11100 0.81110 0.32330 -0.03500
H 	H 	0.09230 0.79000 0.28680 0.04300
C 	C 	0.12000 0.86240 0.52330 0.05200
H 	H 	0.04480 0.86320 0.53530 0.01700
O 	O 	0.57090 0.13970 0.26240 -0.62600
O 	O 	0.26120 0.66170 0.85380 -0.62400
O 	O 	0.26920 0.28020 0.30880 -0.62200
O 	O 	0.19910 0.52730 0.75120 -0.53100
C 	C 	0.18300 0.79140 0.59120 0.37800
C 	C 	0.17300 0.30660 0.32310 0.48200
C 	C 	0.34100 0.54500 0.00280 -0.04300
C 	C 	0.11900 0.32120 0.50390 -0.08000
H 	H 	0.10560 0.28950 0.47120 0.05700
C 	C 	0.97500 0.22780 0.83480 -0.03900
H 	H 	0.91550 0.20760 0.85040 0.03400
C 	C 	0.32500 0.54050 0.14490 -0.08000
H 	H 	0.32080 0.50910 0.16710 0.03500
C 	C 	0.38400 0.06910 0.13020 0.19600
H 	H 	0.31600 0.09430 0.13380 -0.11300
C 	C 	0.37200 0.01770 0.07910 -0.11700
C 	C 	0.19800 0.32660 0.15610 0.51100
C 	C 	0.33400 0.47210 0.98070 0.00700
C 	C 	0.16600 0.99020 0.41010 -0.09500
C 	C 	0.22300 0.85900 0.88750 -0.30400
H 	H 	0.15010 0.87610 0.89530 0.07900
C 	C 	0.33700 0.65990 0.89680 0.41500
C 	C 	0.31200 0.42210 0.01160 0.03300
C 	C 	0.15600 0.97630 0.50260 0.01100
C 	C 	0.29200 0.02310 0.93070 -0.07700
H 	H 	0.27850 0.99400 0.89690 0.05000
C 	C 	0.10400 0.77320 0.35620 -0.02400
H 	H 	0.09410 0.72540 0.34400 0.02900
C 	C 	0.29600 0.38990 0.09630 0.12800
H 	H 	0.35250 0.35740 0.09440 -0.04500
C 	C 	0.13700 0.90500 0.48510 -0.04900
C 	C 	0.21300 0.12050 0.53950 -0.03700
H 	H 	0.23320 0.16800 0.55220 0.03300
C 	C 	0.38200 0.90320 0.02350 0.01300
C 	C 	0.20200 0.97490 0.72740 0.34900
C 	C 	0.32800 0.20670 0.74530 0.00700
C 	C 	0.31800 0.66100 0.68310 0.45700
C 	C 	0.30700 0.51570 0.76530 0.47400
C 	C 	0.05700 0.19080 0.81510 -0.06500
H 	H 	0.05540 0.14490 0.81840 0.04500
C 	C 	0.47900 0.08120 0.16930 -0.39400
H 	H 	0.54770 0.05660 0.16620 0.15800
C 	C 	0.39200 0.94930 0.07610 0.04100
C 	C 	0.32200 0.51590 0.08910 0.02700
C 	C 	0.20200 0.82210 0.54320 -0.24600
H 	H 	0.27090 0.81260 0.52750 0.07700
C 	C 	0.14800 0.34560 0.60080 -0.03400
H 	H 	0.15360 0.32870 0.63220 0.03900
C 	C 	0.15000 0.28890 0.78540 0.02900
C 	C 	0.20100 0.05040 0.72740 -0.22500
H 	H 	0.17710 0.06270 0.69430 0.11600
C 	C 	0.14700 0.51710 0.41190 -0.05000
H 	H 	0.13450 0.48660 0.37870 0.00800
C 	C 	0.29600 0.13560 0.98520 -0.04700
H 	H 	0.28560 0.18200 0.98700 0.03500
C 	C 	0.28200 0.09140 0.93530 -0.02600
H 	H 	0.26610 0.10920 0.90430 0.03500
C 	C 	0.23300 0.10150 0.77160 0.04300
H 	H 	0.25460 0.09030 0.80520 0.01800
C 	C 	0.36800 0.59690 0.97270 0.06000
H 	H 	0.44230 0.62730 0.98690 0.02200
C 	C 	0.32400 0.11240 0.03060 -0.06200
H 	H 	0.33260 0.14340 0.06340 0.01100
C 	C 	0.23700 0.31800 0.75950 -0.07800
C 	C 	0.51300 0.19990 0.70420 -0.04500
H 	H 	0.57700 0.17520 0.69380 0.03700
C 	C 	0.20800 0.38320 0.12750 -0.38200
H 	H 	0.15220 0.41620 0.13070 0.12100
C 	C 	0.34900 0.44750 0.92500 -0.05800
H 	H 	0.36440 0.47960 0.90440 0.04800
C 	C 	0.13500 0.39420 0.50460 0.02300
C 	C 	0.17600 0.01930 0.46550 0.02800
C 	C 	0.42300 0.91980 0.12350 -0.09100
H 	H 	0.42700 0.94770 0.15720 0.05100
C 	C 	0.20100 0.35230 0.37810 -0.37800
H 	H 	0.28500 0.36910 0.39430 0.11500
C 	C 	0.33100 0.56430 0.05670 0.01100
C 	C 	0.29500 0.34910 0.98540 -0.07700
H 	H 	0.27460 0.31570 0.00420 0.05200
C 	C 	0.14700 0.91640 0.39120 0.03100
C 	C 	0.34000 0.04300 0.03060 0.02200
C 	C 	0.12300 0.29790 0.55020 -0.03300
H 	H 	0.10950 0.25060 0.54880 0.03700
C 	C 	0.23500 0.39170 0.75440 0.11100
H 	H 	0.15740 0.40290 0.73760 -0.01200
C 	C 	0.34400 0.92750 0.97700 -0.06200
C 	C 	0.14900 0.21710 0.78910 0.00800
C 	C 	0.16800 0.00940 0.55920 -0.07000
H 	H 	0.15840 0.98240 0.58420 0.05600
C 	C 	0.97900 0.30000 0.83200 -0.03100
H 	H 	0.92610 0.32770 0.84850 0.03400
C 	C 	0.18100 0.61050 0.51120 -0.09400
H 	H 	0.18730 0.64230 0.54340 0.05300
C 	C 	0.13600 0.87440 0.43170 0.01100
C 	C 	0.23500 0.17650 0.76840 -0.03900
C 	C 	0.33400 0.61130 0.16660 -0.03800
H 	H 	0.33780 0.62680 0.20330 0.03100
C 	C 	0.11700 0.07750 0.35540 -0.37800
H 	H 	0.04920 0.08690 0.37170 0.15300
C 	C 	0.13500 0.41860 0.45720 -0.08000
C 	C 	0.19300 0.07790 0.57510 -0.02700
H 	H 	0.19650 0.09810 0.61100 0.03900
C 	C 	0.05900 0.32630 0.80500 -0.07700
H 	H 	0.05390 0.37090 0.79930 0.04100
C 	C 	0.15100 0.49220 0.45960 0.00900
C 	C 	0.32300 0.99600 0.97850 0.01600
C 	C 	0.32900 0.27820 0.74030 0.03600
C 	C 	0.14400 0.88370 0.33720 -0.08000
H 	H 	0.16240 0.90860 0.31220 0.05100
C 	C 	0.33900 0.37990 0.90360 -0.04000
H 	H 	0.35220 0.36560 0.86890 0.04700
C 	C 	0.33100 0.87800 0.92430 0.09300
H 	H 	0.40360 0.85940 0.91670 -0.01400
C 	C 	0.18400 0.03170 0.36890 0.15500
H 	H 	0.24990 0.02300 0.35140 -0.04800
C 	C 	0.15900 0.44260 0.55680 0.03000
C 	C 	0.32900 0.44240 0.77080 -0.32000
H 	H 	0.40940 0.43340 0.78590 0.14300
C 	C 	0.30900 0.32920 0.93350 -0.02400
H 	H 	0.29910 0.28230 0.91740 0.03700
C 	C 	0.41200 0.83320 0.02290 -0.06300
H 	H 	0.40980 0.80360 0.99000 0.05400
C 	C 	0.30600 0.44380 0.06620 -0.08600
C 	C 	0.17500 0.51270 0.55890 -0.08500
C 	C 	0.42400 0.16970 0.72760 -0.06300
H 	H 	0.42710 0.12430 0.73180 0.04900
C 	C 	0.17100 0.53860 0.51170 0.03300
C 	C 	0.44600 0.85420 0.12050 -0.02000
H 	H 	0.46380 0.83720 0.15190 0.03200
C 	C 	0.16500 0.41570 0.60450 -0.07800
H 	H 	0.17910 0.44580 0.63800 0.05200
C 	C 	0.16000 0.58590 0.41540 -0.05700
H 	H 	0.15660 0.60260 0.38400 0.03100
C 	C 	0.20400 0.09220 0.48570 -0.07600
H 	H 	0.21560 0.12100 0.46220 0.03000
C 	C 	0.44300 0.80990 0.06960 -0.04300
H 	H 	0.46300 0.76490 0.06820 0.04200
C 	C 	0.11000 0.37050 0.40560 0.12300
H 	H 	0.02620 0.35090 0.39030 -0.04200
C 	C 	0.50800 0.26760 0.69620 -0.02200
H 	H 	0.56730 0.28790 0.68040 0.02500
C 	C 	0.29100 0.61210 0.63070 -0.34500
H 	H 	0.34760 0.61640 0.60850 0.10700
C 	C 	0.41300 0.30380 0.71200 -0.09000
H 	H 	0.40550 0.34680 0.70340 0.05800
C 	C 	0.19300 0.56220 0.61130 0.13000
H 	H 	0.13240 0.55820 0.63200 -0.04300
C 	C 	0.18000 0.63390 0.46560 -0.01600
H 	H 	0.19280 0.68120 0.46700 0.02100
C 	C 	0.29700 0.60560 0.92670 -0.26000
H 	H 	0.22080 0.57730 0.91220 0.09500
C 	C 	0.11000 0.79960 0.40970 -0.07900
H 	H 	0.09830 0.76980 0.43240 0.05600
C 	C 	0.33300 0.63750 0.08050 -0.06700
H 	H 	0.33140 0.66980 0.05880 0.05200
C 	C 	0.33600 0.65880 0.13340 -0.03400
H 	H 	0.34000 0.70570 0.14800 0.03700
Ba	Ba	0.85159 0.80718 0.78944 1.73600
