data_crystal

_cell_length_a 10.03270
_cell_length_b 25.65100
_cell_length_c 9.51210
_cell_angle_alpha 90.00000
_cell_angle_beta  90.00000
_cell_angle_gamma 90.00000

_symmetry_space_group_name_	'P 1'
_symmetry_space_group_name_H-M	'P 1'

loop_
_symmetry_equiv_pos_as_xyz
  x,y,z

loop_
_atom_site_label
_atom_site_type_symbol
_atom_site_fract_x
_atom_site_fract_y
_atom_site_fract_z
_atom_site_charge
Zn	Zn	0.39245 0.45186 0.07823 1.18200
C 	C 	0.13910 0.44920 0.24480 0.12000
H 	H 	0.10400 0.42450 0.18360 -0.03200
C 	C 	0.26780 0.50230 0.33980 0.10700
H 	H 	0.34230 0.52250 0.36060 -0.04900
C 	C 	0.35460 0.34850 0.10030 0.35400
C 	C 	0.28540 0.29720 0.07210 -0.11200
C 	C 	0.16390 0.29630 0.00570 0.05200
H 	H 	0.12340 0.32760 0.98100 0.02600
N 	N 	0.26150 0.46910 0.23070 -0.29700
N 	N 	0.07380 0.46740 0.35100 -0.27900
N 	N 	0.15680 0.50316 0.41400 -0.27200
O 	O 	0.32330 0.38481 0.01780 -0.48400
O 	O 	0.43300 0.35320 0.19850 -0.33200
Zn	Zn	0.10755 0.54814 0.57823 1.18100
C 	C 	0.36090 0.55080 0.74480 0.11900
H 	H 	0.39600 0.57550 0.68360 -0.03300
C 	C 	0.23220 0.49770 0.83980 0.10600
H 	H 	0.15770 0.47750 0.86060 -0.05000
C 	C 	0.14540 0.65150 0.60030 0.35300
C 	C 	0.21460 0.70280 0.57210 -0.11400
C 	C 	0.33610 0.70370 0.50570 0.05400
H 	H 	0.37660 0.67240 0.48100 0.02500
N 	N 	0.23850 0.53090 0.73070 -0.29700
N 	N 	0.42620 0.53260 0.85100 -0.27900
N 	N 	0.34320 0.49684 0.91400 -0.27200
O 	O 	0.17670 0.61519 0.51780 -0.48400
O 	O 	0.06700 0.64680 0.69850 -0.33200
Zn	Zn	0.60755 0.95186 0.92177 1.18100
C 	C 	0.86090 0.94920 0.75520 0.11900
H 	H 	0.89600 0.92450 0.81640 -0.03300
C 	C 	0.73220 0.00230 0.66020 0.10600
H 	H 	0.65770 0.02250 0.63940 -0.05000
C 	C 	0.64540 0.84850 0.89970 0.35300
C 	C 	0.71460 0.79720 0.92790 -0.11300
C 	C 	0.83610 0.79630 0.99430 0.05100
H 	H 	0.87660 0.82760 0.01900 0.02600
N 	N 	0.73850 0.96910 0.76930 -0.29700
N 	N 	0.92620 0.96740 0.64900 -0.27900
N 	N 	0.84320 0.00316 0.58600 -0.27200
O 	O 	0.67670 0.88481 0.98220 -0.48400
O 	O 	0.56700 0.85320 0.80150 -0.33200
Zn	Zn	0.89245 0.04814 0.42177 1.18100
C 	C 	0.63910 0.05080 0.25520 0.11900
H 	H 	0.60400 0.07550 0.31640 -0.03300
C 	C 	0.76780 0.99770 0.16020 0.10700
H 	H 	0.84230 0.97750 0.13940 -0.05000
C 	C 	0.85460 0.15150 0.39970 0.35300
C 	C 	0.78540 0.20280 0.42790 -0.11400
C 	C 	0.66390 0.20370 0.49430 0.05400
H 	H 	0.62340 0.17240 0.51900 0.02500
N 	N 	0.76150 0.03090 0.26930 -0.29800
N 	N 	0.57380 0.03260 0.14900 -0.28000
N 	N 	0.65680 0.99684 0.08600 -0.27100
O 	O 	0.82330 0.11519 0.48220 -0.48400
O 	O 	0.93300 0.14680 0.30150 -0.33200
Zn	Zn	0.60755 0.54814 0.92177 1.18100
C 	C 	0.86090 0.55080 0.75520 0.11900
H 	H 	0.89600 0.57550 0.81640 -0.03300
C 	C 	0.73220 0.49770 0.66020 0.10600
H 	H 	0.65770 0.47750 0.63940 -0.05000
C 	C 	0.64540 0.65150 0.89970 0.35300
C 	C 	0.71460 0.70280 0.92790 -0.11300
C 	C 	0.83610 0.70370 0.99430 0.05100
H 	H 	0.87660 0.67240 0.01900 0.02600
N 	N 	0.73850 0.53090 0.76930 -0.29700
N 	N 	0.92620 0.53260 0.64900 -0.27900
N 	N 	0.84320 0.49684 0.58600 -0.27200
O 	O 	0.67670 0.61519 0.98220 -0.48400
O 	O 	0.56700 0.64680 0.80150 -0.33200
Zn	Zn	0.89245 0.45186 0.42177 1.18100
C 	C 	0.63910 0.44920 0.25520 0.11900
H 	H 	0.60400 0.42450 0.31640 -0.03300
C 	C 	0.76780 0.50230 0.16020 0.10600
H 	H 	0.84230 0.52250 0.13940 -0.05000
C 	C 	0.85460 0.34850 0.39970 0.35300
C 	C 	0.78540 0.29720 0.42790 -0.11400
C 	C 	0.66390 0.29630 0.49430 0.05400
H 	H 	0.62340 0.32760 0.51900 0.02500
N 	N 	0.76150 0.46910 0.26930 -0.29700
N 	N 	0.57380 0.46740 0.14900 -0.27900
N 	N 	0.65680 0.50316 0.08600 -0.27200
O 	O 	0.82330 0.38481 0.48220 -0.48400
O 	O 	0.93300 0.35320 0.30150 -0.33200
Zn	Zn	0.39245 0.04814 0.07823 1.18100
C 	C 	0.13910 0.05080 0.24480 0.11900
H 	H 	0.10400 0.07550 0.18360 -0.03300
C 	C 	0.26780 0.99770 0.33980 0.10600
H 	H 	0.34230 0.97750 0.36060 -0.05000
C 	C 	0.35460 0.15150 0.10030 0.35300
C 	C 	0.28540 0.20280 0.07210 -0.11300
C 	C 	0.16390 0.20370 0.00570 0.05100
H 	H 	0.12340 0.17240 0.98100 0.02600
N 	N 	0.26150 0.03090 0.23070 -0.29700
N 	N 	0.07380 0.03260 0.35100 -0.27900
N 	N 	0.15680 0.99684 0.41400 -0.27200
O 	O 	0.32330 0.11519 0.01780 -0.48400
O 	O 	0.43300 0.14680 0.19850 -0.33200
Zn	Zn	0.10755 0.95186 0.57823 1.18100
C 	C 	0.36090 0.94920 0.74480 0.11900
H 	H 	0.39600 0.92450 0.68360 -0.03300
C 	C 	0.23220 0.00230 0.83980 0.10700
H 	H 	0.15770 0.02250 0.86060 -0.05000
C 	C 	0.14540 0.84850 0.60030 0.35300
C 	C 	0.21460 0.79720 0.57210 -0.11400
C 	C 	0.33610 0.79630 0.50570 0.05400
H 	H 	0.37660 0.82760 0.48100 0.02500
N 	N 	0.23850 0.96910 0.73070 -0.29800
N 	N 	0.42620 0.96740 0.85100 -0.28000
N 	N 	0.34320 0.00316 0.91400 -0.27100
O 	O 	0.17670 0.88481 0.51780 -0.48400
O 	O 	0.06700 0.85320 0.69850 -0.33200
C 	C 	0.34560 0.25000 0.10850 0.04800
H 	H 	0.42610 0.25000 0.15710 0.03800
C 	C 	0.10080 0.25000 0.97500 -0.11400
H 	H 	0.01660 0.25000 0.93410 0.07400
C 	C 	0.15440 0.75000 0.60850 0.05000
H 	H 	0.07390 0.75000 0.65710 0.03700
C 	C 	0.39920 0.75000 0.47500 -0.11800
H 	H 	0.48340 0.75000 0.43410 0.07500
C 	C 	0.65440 0.75000 0.89150 0.04800
H 	H 	0.57390 0.75000 0.84290 0.03800
C 	C 	0.89920 0.75000 0.02500 -0.11400
H 	H 	0.98340 0.75000 0.06590 0.07400
C 	C 	0.84560 0.25000 0.39150 0.05000
H 	H 	0.92610 0.25000 0.34290 0.03700
C 	C 	0.60080 0.25000 0.52500 -0.11800
H 	H 	0.51660 0.25000 0.56590 0.07500
