data_crystal

_cell_length_a 12.06480
_cell_length_b 8.19180
_cell_length_c 7.48070
_cell_angle_alpha 90.00000
_cell_angle_beta  97.03500
_cell_angle_gamma 90.00000

_symmetry_space_group_name_	'P 1'
_symmetry_space_group_name_H-M	'P 1'

loop_
_symmetry_equiv_pos_as_xyz
  x,y,z

loop_
_atom_site_label
_atom_site_type_symbol
_atom_site_fract_x
_atom_site_fract_y
_atom_site_fract_z
_atom_site_charge
Cu	Cu	0.43250 0.38320 0.88180 0.78900
Cu	Cu	0.10580 0.21270 0.18160 0.80500
N 	N 	0.52680 0.19080 0.82600 -0.20500
N 	N 	0.30860 0.30300 0.99590 -0.23800
C 	C 	0.03250 0.01700 0.23430 -0.27900
C 	C 	0.54330 0.07750 0.74090 -0.32900
C 	C 	0.23210 0.26260 0.06410 -0.31500
N 	N 	0.97850 0.90750 0.26050 -0.22600
Cu	Cu	0.56750 0.88320 0.61820 0.78800
Cu	Cu	0.89420 0.71270 0.31840 0.80400
N 	N 	0.47320 0.69080 0.67400 -0.20600
N 	N 	0.69140 0.80300 0.50410 -0.23900
C 	C 	0.96750 0.51700 0.26570 -0.27700
C 	C 	0.45670 0.57750 0.75910 -0.33000
C 	C 	0.76790 0.76260 0.43590 -0.31400
N 	N 	0.02150 0.40750 0.23950 -0.22700
Cu	Cu	0.56750 0.61680 0.11820 0.78800
Cu	Cu	0.89420 0.78730 0.81840 0.80400
N 	N 	0.47320 0.80920 0.17400 -0.20500
N 	N 	0.69140 0.69700 0.00410 -0.23800
C 	C 	0.96750 0.98300 0.76570 -0.27900
C 	C 	0.45670 0.92250 0.25910 -0.32900
C 	C 	0.76790 0.73740 0.93590 -0.31500
N 	N 	0.02150 0.09250 0.73950 -0.22600
Cu	Cu	0.43250 0.11680 0.38180 0.78800
Cu	Cu	0.10580 0.28730 0.68160 0.80400
N 	N 	0.52680 0.30920 0.32600 -0.20600
N 	N 	0.30860 0.19700 0.49590 -0.23900
C 	C 	0.03250 0.48300 0.73430 -0.27700
C 	C 	0.54330 0.42250 0.24090 -0.33000
C 	C 	0.23210 0.23740 0.56410 -0.31400
N 	N 	0.97850 0.59250 0.76050 -0.22700
