data_crystal

_cell_length_a 6.09150
_cell_length_b 9.96100
_cell_length_c 13.36100
_cell_angle_alpha 68.87000
_cell_angle_beta  81.01000
_cell_angle_gamma 76.72000

_symmetry_space_group_name_	'P 1'
_symmetry_space_group_name_H-M	'P 1'

loop_
_symmetry_equiv_pos_as_xyz
  x,y,z

loop_
_atom_site_label
_atom_site_type_symbol
_atom_site_fract_x
_atom_site_fract_y
_atom_site_fract_z
_atom_site_charge
Eu	Eu	0.66828 0.38562 0.80391 1.90400
Eu	Eu	0.33172 0.61438 0.19609 1.90400
H 	H 	0.82770 0.04520 0.02680 0.01100
H 	H 	0.20190 0.32650 0.63080 -0.00300
H 	H 	0.01020 0.49890 0.76880 0.33500
H 	H 	0.91800 0.57910 0.83680 0.36400
H 	H 	0.17230 0.95480 0.97320 0.01100
H 	H 	0.79810 0.67350 0.36920 -0.00300
H 	H 	0.98980 0.50110 0.23120 0.33500
H 	H 	0.08200 0.42090 0.16320 0.36400
C 	C 	0.21070 0.23280 0.85820 0.40400
C 	C 	0.36690 0.10450 0.93140 -0.09400
C 	C 	0.69120 0.02890 0.01490 0.08400
C 	C 	0.55020 0.61730 0.56040 0.37000
C 	C 	0.78860 0.55520 0.52740 -0.06200
C 	C 	0.11500 0.39860 0.57830 0.08400
C 	C 	0.40890 0.56050 0.96650 0.25500
C 	C 	0.78930 0.76720 0.14180 0.40400
C 	C 	0.63310 0.89550 0.06860 -0.09400
C 	C 	0.30880 0.97110 0.98510 0.08400
C 	C 	0.44980 0.38270 0.43960 0.37000
C 	C 	0.21140 0.44480 0.47260 -0.06200
C 	C 	0.88500 0.60140 0.42170 0.08400
C 	C 	0.59110 0.43950 0.03350 0.25500
N 	N 	0.56090 0.13520 0.94680 -0.18700
N 	N 	0.90620 0.45330 0.60650 -0.18400
N 	N 	0.43910 0.86480 0.05320 -0.18700
N 	N 	0.09380 0.54670 0.39350 -0.18400
O 	O 	0.28520 0.35160 0.81510 -0.49400
O 	O 	0.02050 0.21560 0.84770 -0.48600
O 	O 	0.48640 0.56900 0.65730 -0.42900
O 	O 	0.43210 0.70990 0.48980 -0.26700
O 	O 	0.27550 0.63730 0.01350 -0.41400
O 	O 	0.41510 0.56930 0.87070 -0.37800
O 	O 	0.90710 0.56590 0.77910 -0.81300
O 	O 	0.71480 0.64840 0.18490 -0.49400
O 	O 	0.97950 0.78440 0.15230 -0.48600
O 	O 	0.51360 0.43100 0.34270 -0.42900
O 	O 	0.56790 0.29010 0.51020 -0.26700
O 	O 	0.72450 0.36270 0.98650 -0.41400
O 	O 	0.58490 0.43070 0.12930 -0.37800
O 	O 	0.09290 0.43410 0.22090 -0.81300
