data_crystal

_cell_length_a 16.95500
_cell_length_b 9.54300
_cell_length_c 18.54900
_cell_angle_alpha 90.00000
_cell_angle_beta  90.01000
_cell_angle_gamma 90.00000

_symmetry_space_group_name_	'P 1'
_symmetry_space_group_name_H-M	'P 1'

loop_
_symmetry_equiv_pos_as_xyz
  x,y,z

loop_
_atom_site_label
_atom_site_type_symbol
_atom_site_fract_x
_atom_site_fract_y
_atom_site_fract_z
_atom_site_charge
Cd	Cd	0.41415 0.91346 0.63139 1.25300
Cd	Cd	0.08065 0.75183 0.56832 1.23400
O 	O 	0.49210 0.75780 0.69310 -0.29200
O 	O 	0.38040 0.76620 0.75720 -0.22900
O 	O 	0.55510 0.57900 0.78630 -0.30700
O 	O 	0.44430 0.58220 0.85180 -0.22400
O 	O 	0.41120 0.06660 0.53490 -0.30100
O 	O 	0.49010 0.15850 0.45330 -0.28600
O 	O 	0.28190 0.97770 0.65690 -0.28800
O 	O 	0.15820 0.92270 0.63000 -0.31300
O 	O 	0.33370 0.76670 0.57050 -0.31200
O 	O 	0.21100 0.71870 0.54210 -0.31600
O 	O 	0.06730 0.88030 0.46330 -0.31200
O 	O 	0.01300 0.06860 0.41320 -0.30700
O 	O 	0.95980 0.63950 0.54920 -0.32200
O 	O 	0.90030 0.46520 0.49000 -0.30700
C 	C 	0.44970 0.72280 0.74530 0.22400
C 	C 	0.48590 0.61930 0.80020 0.24000
C 	C 	0.47200 0.06660 0.49580 0.24100
C 	C 	0.23040 0.90560 0.62520 0.21900
C 	C 	0.26020 0.78610 0.57540 0.23800
C 	C 	0.02280 0.98760 0.46420 0.23000
C 	C 	0.95880 0.53180 0.51180 0.23500
Cd	Cd	0.58585 0.41346 0.86861 1.25400
Cd	Cd	0.91935 0.25183 0.93168 1.23400
O 	O 	0.50790 0.25780 0.80690 -0.29200
O 	O 	0.61960 0.26620 0.74280 -0.22900
O 	O 	0.44490 0.07900 0.71370 -0.30700
O 	O 	0.55570 0.08220 0.64820 -0.22500
O 	O 	0.58880 0.56660 0.96510 -0.30200
O 	O 	0.50990 0.65850 0.04670 -0.28600
O 	O 	0.71810 0.47770 0.84310 -0.28700
O 	O 	0.84180 0.42270 0.87000 -0.31300
O 	O 	0.66630 0.26670 0.92950 -0.31200
O 	O 	0.78900 0.21870 0.95790 -0.31600
O 	O 	0.93270 0.38030 0.03670 -0.31200
O 	O 	0.98700 0.56860 0.08680 -0.30900
O 	O 	0.04020 0.13950 0.95080 -0.32200
O 	O 	0.09970 0.96520 0.01000 -0.31200
C 	C 	0.55030 0.22280 0.75470 0.22400
C 	C 	0.51410 0.11930 0.69980 0.24000
C 	C 	0.52800 0.56660 0.00420 0.24100
C 	C 	0.76960 0.40560 0.87480 0.21900
C 	C 	0.73980 0.28610 0.92460 0.23800
C 	C 	0.97720 0.48760 0.03580 0.23400
C 	C 	0.04120 0.03180 0.98820 0.24100
Cd	Cd	0.58585 0.08654 0.36861 1.25400
Cd	Cd	0.91935 0.24817 0.43168 1.23500
O 	O 	0.50790 0.24220 0.30690 -0.29200
O 	O 	0.61960 0.23380 0.24280 -0.22900
O 	O 	0.44490 0.42100 0.21370 -0.30700
O 	O 	0.55570 0.41780 0.14820 -0.22400
O 	O 	0.58880 0.93340 0.46510 -0.30100
O 	O 	0.50990 0.84150 0.54670 -0.28600
O 	O 	0.71810 0.02230 0.34310 -0.28800
O 	O 	0.84180 0.07730 0.37000 -0.31300
O 	O 	0.66630 0.23330 0.42950 -0.31200
O 	O 	0.78900 0.28130 0.45790 -0.31600
O 	O 	0.93270 0.11970 0.53670 -0.31200
O 	O 	0.98700 0.93140 0.58680 -0.30700
O 	O 	0.04020 0.36050 0.45080 -0.32200
O 	O 	0.09970 0.53480 0.51000 -0.30700
C 	C 	0.55030 0.27720 0.25470 0.22400
C 	C 	0.51410 0.38070 0.19980 0.24000
C 	C 	0.52800 0.93340 0.50420 0.24100
C 	C 	0.76960 0.09440 0.37480 0.21900
C 	C 	0.73980 0.21390 0.42460 0.23800
C 	C 	0.97720 0.01240 0.53580 0.23000
C 	C 	0.04120 0.46820 0.48820 0.23500
Cd	Cd	0.41415 0.58654 0.13139 1.25400
Cd	Cd	0.08065 0.74817 0.06832 1.23400
O 	O 	0.49210 0.74220 0.19310 -0.29200
O 	O 	0.38040 0.73380 0.25720 -0.22900
O 	O 	0.55510 0.92100 0.28630 -0.30700
O 	O 	0.44430 0.91780 0.35180 -0.22500
O 	O 	0.41120 0.43340 0.03490 -0.30200
O 	O 	0.49010 0.34150 0.95330 -0.28600
O 	O 	0.28190 0.52230 0.15690 -0.28700
O 	O 	0.15820 0.57730 0.13000 -0.31300
O 	O 	0.33370 0.73330 0.07050 -0.31200
O 	O 	0.21100 0.78130 0.04210 -0.31600
O 	O 	0.06730 0.61970 0.96330 -0.31200
O 	O 	0.01300 0.43140 0.91320 -0.30900
O 	O 	0.95980 0.86050 0.04920 -0.32200
O 	O 	0.90030 0.03480 0.99000 -0.31200
C 	C 	0.44970 0.77720 0.24530 0.22400
C 	C 	0.48590 0.88070 0.30020 0.24000
C 	C 	0.47200 0.43340 0.99580 0.24100
C 	C 	0.23040 0.59440 0.12520 0.21900
C 	C 	0.26020 0.71390 0.07540 0.23800
C 	C 	0.02280 0.51240 0.96420 0.23400
C 	C 	0.95880 0.96820 0.01180 0.24100
