data_crystal

_cell_length_a 9.46090
_cell_length_b 11.45800
_cell_length_c 14.59300
_cell_angle_alpha 69.96000
_cell_angle_beta  85.42000
_cell_angle_gamma 86.41000

_symmetry_space_group_name_	'P 1'
_symmetry_space_group_name_H-M	'P 1'

loop_
_symmetry_equiv_pos_as_xyz
  x,y,z

loop_
_atom_site_label
_atom_site_type_symbol
_atom_site_fract_x
_atom_site_fract_y
_atom_site_fract_z
_atom_site_charge
Y 	Y 	0.79683 0.95472 0.00251 2.36600
Y 	Y 	0.20317 0.04528 0.99749 2.36600
H 	H 	0.86660 0.36940 0.84090 0.16900
H 	H 	0.97300 0.37050 0.75280 0.18000
H 	H 	0.34100 0.37800 0.89800 0.13800
H 	H 	0.26200 0.47600 0.81200 0.13200
H 	H 	0.87880 0.94230 0.55690 0.07900
H 	H 	0.87140 0.06430 0.46550 0.08300
H 	H 	0.27550 0.34920 0.39180 0.13500
H 	H 	0.26100 0.28680 0.31890 0.13100
H 	H 	0.85530 0.09800 0.28060 0.17800
H 	H 	0.81480 0.22330 0.19800 0.17700
H 	H 	0.11880 0.53450 0.43240 0.08700
H 	H 	0.11460 0.41150 0.52310 0.09100
H 	H 	0.66910 0.04450 0.60900 0.12600
H 	H 	0.62650 0.11950 0.67300 0.13200
H 	H 	0.48480 0.83720 0.80870 0.13100
H 	H 	0.63580 0.83180 0.75840 0.13600
H 	H 	0.02930 0.48140 0.90920 0.09000
H 	H 	0.07950 0.38820 0.00880 0.11700
H 	H 	0.13340 0.63060 0.15910 0.16900
H 	H 	0.02700 0.62950 0.24720 0.18000
H 	H 	0.65900 0.62200 0.10200 0.13800
H 	H 	0.73800 0.52400 0.18800 0.13200
H 	H 	0.12120 0.05770 0.44310 0.07900
H 	H 	0.12860 0.93570 0.53450 0.08300
H 	H 	0.72450 0.65080 0.60820 0.13500
H 	H 	0.73900 0.71320 0.68110 0.13100
H 	H 	0.14470 0.90200 0.71940 0.17800
H 	H 	0.18520 0.77670 0.80200 0.17700
H 	H 	0.88120 0.46550 0.56760 0.08700
H 	H 	0.88540 0.58850 0.47690 0.09100
H 	H 	0.33090 0.95550 0.39100 0.12600
H 	H 	0.37350 0.88050 0.32700 0.13200
H 	H 	0.51520 0.16280 0.19130 0.13100
H 	H 	0.36420 0.16820 0.24160 0.13600
H 	H 	0.97070 0.51860 0.09080 0.09000
H 	H 	0.92050 0.61180 0.99120 0.11700
C 	C 	0.92530 0.09760 0.14230 0.57500
C 	C 	0.88570 0.19740 0.68120 0.10100
C 	C 	0.00060 0.21620 0.87300 0.50600
C 	C 	0.91110 0.31830 0.80490 -0.42800
C 	C 	0.92790 0.01740 0.51980 -0.15500
C 	C 	0.98390 0.30310 0.31540 0.07000
C 	C 	0.88880 0.15910 0.21950 -0.44900
C 	C 	0.94190 0.09290 0.58330 0.14700
C 	C 	0.99630 0.40560 0.41510 0.14000
C 	C 	0.05730 0.47050 0.47450 -0.16100
C 	C 	0.57980 0.80050 0.81990 -0.35200
C 	C 	0.64140 0.84770 0.89220 0.38900
C 	C 	0.40270 0.61510 0.91240 0.09300
C 	C 	0.18990 0.54590 0.95990 0.14500
C 	C 	0.05930 0.47520 0.97270 -0.19200
C 	C 	0.07470 0.90240 0.85770 0.57500
C 	C 	0.11430 0.80260 0.31880 0.10100
C 	C 	0.99940 0.78380 0.12700 0.50600
C 	C 	0.08890 0.68170 0.19510 -0.42800
C 	C 	0.07210 0.98260 0.48020 -0.15500
C 	C 	0.01610 0.69690 0.68460 0.07000
C 	C 	0.11120 0.84090 0.78050 -0.44900
C 	C 	0.05810 0.90710 0.41670 0.14700
C 	C 	0.00370 0.59440 0.58490 0.14000
C 	C 	0.94270 0.52950 0.52550 -0.16100
C 	C 	0.42020 0.19950 0.18010 -0.35200
C 	C 	0.35860 0.15230 0.10780 0.38900
C 	C 	0.59730 0.38490 0.08760 0.09300
C 	C 	0.81010 0.45410 0.04010 0.14500
C 	C 	0.94070 0.52480 0.02730 -0.19200
S 	S 	0.04861 0.22605 0.23579 0.07600
S 	S 	0.56907 0.63481 0.85031 0.04900
S 	S 	0.77587 0.26440 0.75183 -0.00800
S 	S 	0.95139 0.77395 0.76421 0.07600
S 	S 	0.43093 0.36519 0.14969 0.04900
S 	S 	0.22413 0.73560 0.24817 -0.00800
N 	N 	0.30910 0.53200 0.90510 -0.11800
N 	N 	0.20770 0.63160 0.99780 -0.12200
N 	N 	0.07630 0.34780 0.36120 -0.10600
N 	N 	0.02200 0.20450 0.66200 -0.10600
N 	N 	0.34440 0.67540 0.96730 -0.11500
N 	N 	0.83070 0.12780 0.63350 -0.10900
N 	N 	0.33830 0.45210 0.85050 -0.22100
N 	N 	0.22310 0.32500 0.35670 -0.24600
N 	N 	0.05890 0.13680 0.59820 -0.11500
N 	N 	0.86330 0.39740 0.40410 -0.10600
N 	N 	0.85390 0.33060 0.33950 -0.09600
N 	N 	0.69100 0.09280 0.63920 -0.24000
N 	N 	0.69090 0.46800 0.09490 -0.11800
N 	N 	0.79230 0.36840 0.00220 -0.12200
N 	N 	0.92370 0.65220 0.63880 -0.10600
N 	N 	0.97800 0.79550 0.33800 -0.10600
N 	N 	0.65560 0.32460 0.03270 -0.11500
N 	N 	0.16930 0.87220 0.36650 -0.10900
N 	N 	0.66170 0.54790 0.14950 -0.22100
N 	N 	0.77690 0.67500 0.64330 -0.24600
N 	N 	0.94110 0.86320 0.40180 -0.11500
N 	N 	0.13670 0.60260 0.59590 -0.10600
N 	N 	0.14610 0.66940 0.66050 -0.09600
N 	N 	0.30900 0.90720 0.36080 -0.24000
O 	O 	0.82810 0.04140 0.12430 -0.63000
O 	O 	0.94730 0.11460 0.92490 -0.71800
O 	O 	0.12740 0.23650 0.87820 -0.57100
O 	O 	0.05030 0.10840 0.10570 -0.58200
O 	O 	0.68720 0.77760 0.97080 -0.48300
O 	O 	0.64820 0.96540 0.86720 -0.54000
O 	O 	0.17190 0.95860 0.87570 -0.63000
O 	O 	0.05270 0.88540 0.07510 -0.71800
O 	O 	0.87260 0.76350 0.12180 -0.57100
O 	O 	0.94970 0.89160 0.89430 -0.58200
O 	O 	0.31280 0.22240 0.02920 -0.48300
O 	O 	0.35180 0.03460 0.13280 -0.54000
