data_crystal

_cell_length_a 14.08200
_cell_length_b 26.94300
_cell_length_c 7.60200
_cell_angle_alpha 90.00000
_cell_angle_beta  90.00000
_cell_angle_gamma 90.43000

_symmetry_space_group_name_	'P 1'
_symmetry_space_group_name_H-M	'P 1'

loop_
_symmetry_equiv_pos_as_xyz
  x,y,z

loop_
_atom_site_label
_atom_site_type_symbol
_atom_site_fract_x
_atom_site_fract_y
_atom_site_fract_z
_atom_site_charge
Cd	Cd	0.27933 0.13524 0.88250 1.18100
N 	N 	0.26700 0.08120 0.10000 -0.20800
N 	N 	0.26100 0.07950 0.65600 -0.19200
N 	N 	0.32800 0.19870 0.09100 -0.16100
N 	N 	0.62400 0.16620 0.12500 -0.17800
N 	N 	0.31700 0.19110 0.65200 -0.20600
N 	N 	0.44900 0.12680 0.83700 -0.22300
C 	C 	0.26000 0.04980 0.20300 -0.27200
C 	C 	0.25700 0.04920 0.55000 -0.27600
C 	C 	0.39400 0.21910 0.15300 -0.23700
C 	C 	0.57500 0.19920 0.17100 -0.24500
C 	C 	0.42400 0.19200 0.63200 -0.06600
C 	C 	0.47700 0.15600 0.68900 0.02800
C 	C 	0.58000 0.15610 0.65300 -0.07600
Cd	Cd	0.27933 0.63524 0.38250 1.18300
N 	N 	0.26700 0.58120 0.60000 -0.20800
N 	N 	0.26100 0.57950 0.15600 -0.19000
N 	N 	0.32800 0.69870 0.59100 -0.16200
N 	N 	0.62400 0.66620 0.62500 -0.17600
N 	N 	0.31700 0.69110 0.15200 -0.20500
N 	N 	0.44900 0.62680 0.33700 -0.21900
C 	C 	0.26000 0.54980 0.70300 -0.25300
C 	C 	0.25700 0.54920 0.05000 -0.25400
C 	C 	0.39400 0.71910 0.65300 -0.23600
C 	C 	0.57500 0.69920 0.67100 -0.24400
C 	C 	0.42400 0.69200 0.13200 -0.06600
C 	C 	0.47700 0.65600 0.18900 0.03000
C 	C 	0.58000 0.65610 0.15300 -0.07300
Cd	Cd	0.22067 0.86476 0.88250 1.18400
N 	N 	0.23300 0.91880 0.10000 -0.21000
N 	N 	0.23900 0.92050 0.65600 -0.19100
N 	N 	0.17200 0.80130 0.09100 -0.15900
N 	N 	0.87600 0.83380 0.12500 -0.17500
N 	N 	0.18300 0.80890 0.65200 -0.20800
N 	N 	0.05100 0.87320 0.83700 -0.22600
C 	C 	0.24000 0.95020 0.20300 -0.22000
C 	C 	0.24300 0.95080 0.55000 -0.22300
C 	C 	0.10600 0.78090 0.15300 -0.25700
C 	C 	0.92500 0.80080 0.17100 -0.19700
C 	C 	0.07600 0.80800 0.63200 -0.06800
C 	C 	0.02300 0.84400 0.68900 -0.04400
C 	C 	0.92000 0.84390 0.65300 0.00400
Cd	Cd	0.22067 0.36476 0.38250 1.18300
N 	N 	0.23300 0.41880 0.60000 -0.20900
N 	N 	0.23900 0.42050 0.15600 -0.19000
N 	N 	0.17200 0.30130 0.59100 -0.16000
N 	N 	0.87600 0.33380 0.62500 -0.17600
N 	N 	0.18300 0.30890 0.15200 -0.20800
N 	N 	0.05100 0.37320 0.33700 -0.23000
C 	C 	0.24000 0.45020 0.70300 -0.25500
C 	C 	0.24300 0.45080 0.05000 -0.25500
C 	C 	0.10600 0.28090 0.65300 -0.26000
C 	C 	0.92500 0.30080 0.67100 -0.19500
C 	C 	0.07600 0.30800 0.13200 -0.06700
C 	C 	0.02300 0.34400 0.18900 -0.04200
C 	C 	0.92000 0.34390 0.15300 -0.00400
Cd	Cd	0.72067 0.86476 0.11750 1.18800
N 	N 	0.73300 0.91880 0.90000 -0.20500
N 	N 	0.73900 0.92050 0.34400 -0.18800
N 	N 	0.67200 0.80130 0.90900 -0.15900
N 	N 	0.37600 0.83380 0.87500 -0.17500
N 	N 	0.68300 0.80890 0.34800 -0.20400
N 	N 	0.55100 0.87320 0.16300 -0.21400
C 	C 	0.74000 0.95020 0.79700 -0.20500
C 	C 	0.74300 0.95080 0.45000 -0.20900
C 	C 	0.60600 0.78090 0.84700 -0.23500
C 	C 	0.42500 0.80080 0.82900 -0.24400
C 	C 	0.57600 0.80800 0.36800 -0.06600
C 	C 	0.52300 0.84400 0.31100 0.03200
C 	C 	0.42000 0.84390 0.34700 -0.07000
Cd	Cd	0.72067 0.36476 0.61750 1.18600
N 	N 	0.73300 0.41880 0.40000 -0.20400
N 	N 	0.73900 0.42050 0.84400 -0.18600
N 	N 	0.67200 0.30130 0.40900 -0.16000
N 	N 	0.37600 0.33380 0.37500 -0.17700
N 	N 	0.68300 0.30890 0.84800 -0.20500
N 	N 	0.55100 0.37320 0.66300 -0.21800
C 	C 	0.74000 0.45020 0.29700 -0.24000
C 	C 	0.74300 0.45080 0.95000 -0.24200
C 	C 	0.60600 0.28090 0.34700 -0.23600
C 	C 	0.42500 0.30080 0.32900 -0.24400
C 	C 	0.57600 0.30800 0.86800 -0.06600
C 	C 	0.52300 0.34400 0.81100 0.03000
C 	C 	0.42000 0.34390 0.84700 -0.07500
Cd	Cd	0.77933 0.13524 0.11750 1.18400
N 	N 	0.76700 0.08120 0.90000 -0.20300
N 	N 	0.76100 0.07950 0.34400 -0.18800
N 	N 	0.82800 0.19870 0.90900 -0.16500
N 	N 	0.12400 0.16620 0.87500 -0.18300
N 	N 	0.81700 0.19110 0.34800 -0.20300
N 	N 	0.94900 0.12680 0.16300 -0.21200
C 	C 	0.76000 0.04980 0.79700 -0.25700
C 	C 	0.75700 0.04920 0.45000 -0.26200
C 	C 	0.89400 0.21910 0.84700 -0.19500
C 	C 	0.07500 0.19920 0.82900 -0.27600
C 	C 	0.92400 0.19200 0.36800 -0.06100
C 	C 	0.97700 0.15600 0.31100 0.10200
C 	C 	0.08000 0.15610 0.34700 -0.14600
Cd	Cd	0.77933 0.63524 0.61750 1.18600
N 	N 	0.76700 0.58120 0.40000 -0.20300
N 	N 	0.76100 0.57950 0.84400 -0.18600
N 	N 	0.82800 0.69870 0.40900 -0.16500
N 	N 	0.12400 0.66620 0.37500 -0.18100
N 	N 	0.81700 0.69110 0.84800 -0.20200
N 	N 	0.94900 0.62680 0.66300 -0.20700
C 	C 	0.76000 0.54980 0.29700 -0.23800
C 	C 	0.75700 0.54920 0.95000 -0.24100
C 	C 	0.89400 0.71910 0.34700 -0.19700
C 	C 	0.07500 0.69920 0.32900 -0.27400
C 	C 	0.92400 0.69200 0.86800 -0.06100
C 	C 	0.97700 0.65600 0.81100 0.10700
C 	C 	0.08000 0.65610 0.84700 -0.14800
Ni	Ni	0.25000 -0.00000 0.37580 1.01900
Ni	Ni	0.25000 0.50000 0.87580 1.04100
Ni	Ni	0.75000 0.00000 0.62420 1.02300
Ni	Ni	0.75000 0.50000 0.12420 1.04500
Ni	Ni	0.50000 0.25000 0.25000 1.06600
Ni	Ni	0.00000 0.75000 0.25000 1.03500
Ni	Ni	0.50000 0.75000 0.75000 1.06600
Ni	Ni	0.00000 0.25000 0.75000 1.03300
