data_crystal

_cell_length_a 14.11600
_cell_length_b 26.83900
_cell_length_c 7.64200
_cell_angle_alpha 90.00000
_cell_angle_beta  90.00000
_cell_angle_gamma 90.19000

_symmetry_space_group_name_	'P 1'
_symmetry_space_group_name_H-M	'P 1'

loop_
_symmetry_equiv_pos_as_xyz
  x,y,z

loop_
_atom_site_label
_atom_site_type_symbol
_atom_site_fract_x
_atom_site_fract_y
_atom_site_fract_z
_atom_site_charge
Cd	Cd	0.27980 0.13518 0.88520 1.18000
N 	N 	0.26600 0.08240 0.10400 -0.21400
N 	N 	0.25700 0.08080 0.66100 -0.20000
N 	N 	0.33600 0.19970 0.08500 -0.16200
N 	N 	0.63100 0.16870 0.12000 -0.18900
N 	N 	0.32100 0.19370 0.65600 -0.20900
N 	N 	0.44600 0.12620 0.83100 -0.22400
C 	C 	0.25800 0.04870 0.20700 -0.28800
C 	C 	0.25200 0.04780 0.55400 -0.29400
C 	C 	0.39100 0.21790 0.15300 -0.22300
C 	C 	0.57900 0.19910 0.16800 -0.24200
C 	C 	0.41700 0.18900 0.62200 -0.04800
C 	C 	0.46500 0.14800 0.66900 -0.02900
Cd	Cd	0.27980 0.63518 0.38520 1.18100
N 	N 	0.26600 0.58240 0.60400 -0.21600
N 	N 	0.25700 0.58080 0.16100 -0.19900
N 	N 	0.33600 0.69970 0.58500 -0.16400
N 	N 	0.63100 0.66870 0.62000 -0.18800
N 	N 	0.32100 0.69370 0.15600 -0.20800
N 	N 	0.44600 0.62620 0.33100 -0.21900
C 	C 	0.25800 0.54870 0.70700 -0.26900
C 	C 	0.25200 0.54780 0.05400 -0.27000
C 	C 	0.39100 0.71790 0.65300 -0.22300
C 	C 	0.57900 0.69910 0.66800 -0.24200
C 	C 	0.41700 0.68900 0.12200 -0.04700
C 	C 	0.46500 0.64800 0.16900 -0.02500
Cd	Cd	0.22020 0.86482 0.88520 1.18300
N 	N 	0.23400 0.91760 0.10400 -0.21400
N 	N 	0.24300 0.91920 0.66100 -0.19700
N 	N 	0.16400 0.80030 0.08500 -0.15800
N 	N 	0.86900 0.83130 0.12000 -0.18500
N 	N 	0.17900 0.80630 0.65600 -0.20800
N 	N 	0.05400 0.87380 0.83100 -0.23200
C 	C 	0.24200 0.95130 0.20700 -0.23000
C 	C 	0.24800 0.95220 0.55400 -0.23400
C 	C 	0.10900 0.78210 0.15300 -0.24700
C 	C 	0.92100 0.80090 0.16800 -0.18300
C 	C 	0.08300 0.81100 0.62200 -0.06500
C 	C 	0.03500 0.85200 0.66900 -0.05400
Cd	Cd	0.22020 0.36482 0.38520 1.18200
N 	N 	0.23400 0.41760 0.60400 -0.21500
N 	N 	0.24300 0.41920 0.16100 -0.19600
N 	N 	0.16400 0.30030 0.58500 -0.16000
N 	N 	0.86900 0.33130 0.62000 -0.18800
N 	N 	0.17900 0.30630 0.15600 -0.20800
N 	N 	0.05400 0.37380 0.33100 -0.23500
C 	C 	0.24200 0.45130 0.70700 -0.26700
C 	C 	0.24800 0.45220 0.05400 -0.26600
C 	C 	0.10900 0.28210 0.65300 -0.25100
C 	C 	0.92100 0.30090 0.66800 -0.18200
C 	C 	0.08300 0.31100 0.12200 -0.06200
C 	C 	0.03500 0.35200 0.16900 -0.05700
Cd	Cd	0.72020 0.86482 0.11480 1.18900
N 	N 	0.73400 0.91760 0.89600 -0.20700
N 	N 	0.74300 0.91920 0.33900 -0.19100
N 	N 	0.66400 0.80030 0.91500 -0.15800
N 	N 	0.36900 0.83130 0.88000 -0.18900
N 	N 	0.67900 0.80630 0.34400 -0.20300
N 	N 	0.55400 0.87380 0.16900 -0.21400
C 	C 	0.74200 0.95130 0.79300 -0.21100
C 	C 	0.74800 0.95220 0.44600 -0.21500
C 	C 	0.60900 0.78210 0.84700 -0.21900
C 	C 	0.42100 0.80090 0.83200 -0.24300
C 	C 	0.58300 0.81100 0.37800 -0.04600
C 	C 	0.53500 0.85200 0.33100 -0.02000
Cd	Cd	0.72020 0.36482 0.61480 1.18700
N 	N 	0.73400 0.41760 0.39600 -0.20600
N 	N 	0.74300 0.41920 0.83900 -0.19000
N 	N 	0.66400 0.30030 0.41500 -0.15900
N 	N 	0.36900 0.33130 0.38000 -0.19000
N 	N 	0.67900 0.30630 0.84400 -0.20400
N 	N 	0.55400 0.37380 0.66900 -0.21900
C 	C 	0.74200 0.45130 0.29300 -0.24600
C 	C 	0.74800 0.45220 0.94600 -0.25100
C 	C 	0.60900 0.28210 0.34700 -0.22000
C 	C 	0.42100 0.30090 0.33200 -0.24300
C 	C 	0.58300 0.31100 0.87800 -0.04700
C 	C 	0.53500 0.35200 0.83100 -0.02600
Cd	Cd	0.77980 0.13518 0.11480 1.18500
N 	N 	0.76600 0.08240 0.89600 -0.20900
N 	N 	0.75700 0.08080 0.33900 -0.19400
N 	N 	0.83600 0.19970 0.91500 -0.16900
N 	N 	0.13100 0.16870 0.88000 -0.19800
N 	N 	0.82100 0.19370 0.34400 -0.20500
N 	N 	0.94600 0.12620 0.16900 -0.20700
C 	C 	0.75800 0.04870 0.79300 -0.26900
C 	C 	0.75200 0.04780 0.44600 -0.27500
C 	C 	0.89100 0.21790 0.84700 -0.17100
C 	C 	0.07900 0.19910 0.83200 -0.28400
C 	C 	0.91700 0.18900 0.37800 -0.02600
C 	C 	0.96500 0.14800 0.33100 0.00400
Cd	Cd	0.77980 0.63518 0.61480 1.18600
N 	N 	0.76600 0.58240 0.39600 -0.20700
N 	N 	0.75700 0.58080 0.83900 -0.19200
N 	N 	0.83600 0.69970 0.41500 -0.16900
N 	N 	0.13100 0.66870 0.38000 -0.19600
N 	N 	0.82100 0.69370 0.84400 -0.20400
N 	N 	0.94600 0.62620 0.66900 -0.20200
C 	C 	0.75800 0.54870 0.29300 -0.24800
C 	C 	0.75200 0.54780 0.94600 -0.25400
C 	C 	0.89100 0.71790 0.34700 -0.17200
C 	C 	0.07900 0.69910 0.33200 -0.28000
C 	C 	0.91700 0.68900 0.87800 -0.02700
C 	C 	0.96500 0.64800 0.83100 0.00800
Ni	Ni	0.25000 0.00000 0.37990 1.02600
Ni	Ni	0.25000 0.50000 0.87990 1.04800
Ni	Ni	0.75000 0.00000 0.62010 1.03100
Ni	Ni	0.75000 0.50000 0.12010 1.05500
Ni	Ni	0.50000 0.25000 0.25000 1.04800
Ni	Ni	-0.00000 0.75000 0.25000 1.01100
Ni	Ni	0.50000 0.75000 0.75000 1.04800
Ni	Ni	-0.00000 0.25000 0.75000 1.00900
