data_crystal

_cell_length_a 13.89700
_cell_length_b 26.89000
_cell_length_c 7.60700
_cell_angle_alpha 90.00000
_cell_angle_beta  90.00000
_cell_angle_gamma 88.88000

_symmetry_space_group_name_	'P 1'
_symmetry_space_group_name_H-M	'P 1'

loop_
_symmetry_equiv_pos_as_xyz
  x,y,z

loop_
_atom_site_label
_atom_site_type_symbol
_atom_site_fract_x
_atom_site_fract_y
_atom_site_fract_z
_atom_site_charge
Cd	Cd	0.28780 0.13476 0.87896 1.17900
N 	N 	0.26650 0.07870 0.09270 -0.20300
N 	N 	0.25680 0.07700 0.65680 -0.18500
N 	N 	0.33090 0.19880 0.08880 -0.16000
N 	N 	0.13160 0.16760 0.87180 -0.18300
N 	N 	0.32530 0.19180 0.65160 -0.20700
N 	N 	0.45450 0.12190 0.83080 -0.23200
C 	C 	0.25860 0.04820 0.19870 -0.27800
C 	C 	0.25540 0.04830 0.54740 -0.27900
C 	C 	0.39480 0.21810 0.15230 -0.23900
C 	C 	0.08130 0.19850 0.82630 -0.26600
C 	C 	0.42800 0.18950 0.62600 -0.06200
C 	C 	0.48490 0.15550 0.69200 0.01600
C 	C 	0.59210 0.15520 0.65300 -0.07300
Cd	Cd	0.28780 0.63476 0.37896 1.18200
N 	N 	0.26650 0.57870 0.59270 -0.20100
N 	N 	0.25680 0.57700 0.15680 -0.18300
N 	N 	0.33090 0.69880 0.58880 -0.16100
N 	N 	0.13160 0.66760 0.37180 -0.18100
N 	N 	0.32530 0.69180 0.15160 -0.20600
N 	N 	0.45450 0.62190 0.33080 -0.22800
C 	C 	0.25860 0.54820 0.69870 -0.25800
C 	C 	0.25540 0.54830 0.04740 -0.25600
C 	C 	0.39480 0.71810 0.65230 -0.23900
C 	C 	0.08130 0.69850 0.32630 -0.26300
C 	C 	0.42800 0.68950 0.12600 -0.06200
C 	C 	0.48490 0.65550 0.19200 0.01800
C 	C 	0.59210 0.65520 0.15300 -0.07100
Cd	Cd	0.21220 0.86524 0.87896 1.18300
N 	N 	0.23350 0.92130 0.09270 -0.20300
N 	N 	0.24320 0.92300 0.65680 -0.18400
N 	N 	0.16910 0.80120 0.08880 -0.15700
N 	N 	0.36840 0.83240 0.87180 -0.17600
N 	N 	0.17470 0.80820 0.65160 -0.20900
N 	N 	0.04550 0.87810 0.83080 -0.23500
C 	C 	0.24140 0.95180 0.19870 -0.22200
C 	C 	0.24460 0.95170 0.54740 -0.22400
C 	C 	0.10520 0.78190 0.15230 -0.26000
C 	C 	0.41870 0.80150 0.82630 -0.23300
C 	C 	0.07200 0.81050 0.62600 -0.06400
C 	C 	0.01510 0.84450 0.69200 -0.05500
C 	C 	0.90790 0.84480 0.65300 0.00300
Cd	Cd	0.21220 0.36524 0.37896 1.18200
N 	N 	0.23350 0.42130 0.59270 -0.20300
N 	N 	0.24320 0.42300 0.15680 -0.18200
N 	N 	0.16910 0.30120 0.58880 -0.15900
N 	N 	0.36840 0.33240 0.37180 -0.17800
N 	N 	0.17470 0.30820 0.15160 -0.20900
N 	N 	0.04550 0.37810 0.33080 -0.24000
C 	C 	0.24140 0.45180 0.69870 -0.25900
C 	C 	0.24460 0.45170 0.04740 -0.25700
C 	C 	0.10520 0.28190 0.65230 -0.26300
C 	C 	0.41870 0.30150 0.32630 -0.23300
C 	C 	0.07200 0.31050 0.12600 -0.06400
C 	C 	0.01510 0.34450 0.19200 -0.05200
C 	C 	0.90790 0.34480 0.15300 -0.00500
Cd	Cd	0.71220 0.86524 0.12104 1.18700
N 	N 	0.73350 0.92130 0.90730 -0.19800
N 	N 	0.74320 0.92300 0.34320 -0.18000
N 	N 	0.66910 0.80120 0.91120 -0.15800
N 	N 	0.86840 0.83240 0.12820 -0.17700
N 	N 	0.67470 0.80820 0.34840 -0.20600
N 	N 	0.54550 0.87810 0.16920 -0.22200
C 	C 	0.74140 0.95180 0.80130 -0.20700
C 	C 	0.74460 0.95170 0.45260 -0.20900
C 	C 	0.60520 0.78190 0.84770 -0.23700
C 	C 	0.91870 0.80150 0.17370 -0.18500
C 	C 	0.57200 0.81050 0.37400 -0.06100
C 	C 	0.51510 0.84450 0.30800 0.02000
C 	C 	0.40790 0.84480 0.34700 -0.06900
Cd	Cd	0.71220 0.36524 0.62104 1.18500
N 	N 	0.73350 0.42130 0.40730 -0.19700
N 	N 	0.74320 0.42300 0.84320 -0.17800
N 	N 	0.66910 0.30120 0.41120 -0.15900
N 	N 	0.86840 0.33240 0.62820 -0.17900
N 	N 	0.67470 0.30820 0.84840 -0.20600
N 	N 	0.54550 0.37810 0.66920 -0.22700
C 	C 	0.74140 0.45180 0.30130 -0.24400
C 	C 	0.74460 0.45170 0.95260 -0.24400
C 	C 	0.60520 0.28190 0.34770 -0.23800
C 	C 	0.91870 0.30150 0.67370 -0.18300
C 	C 	0.57200 0.31050 0.87400 -0.06200
C 	C 	0.51510 0.34450 0.80800 0.01800
C 	C 	0.40790 0.34480 0.84700 -0.07300
Cd	Cd	0.78780 0.13476 0.12104 1.18400
N 	N 	0.76650 0.07870 0.90730 -0.19700
N 	N 	0.75680 0.07700 0.34320 -0.18000
N 	N 	0.83090 0.19880 0.91120 -0.16500
N 	N 	0.63160 0.16760 0.12820 -0.17900
N 	N 	0.82530 0.19180 0.34840 -0.20400
N 	N 	0.95450 0.12190 0.16920 -0.22000
C 	C 	0.75860 0.04820 0.80130 -0.26300
C 	C 	0.75540 0.04830 0.45260 -0.26500
C 	C 	0.89480 0.21810 0.84770 -0.19600
C 	C 	0.58130 0.19850 0.17370 -0.23400
C 	C 	0.92800 0.18950 0.37400 -0.05600
C 	C 	0.98490 0.15550 0.30800 0.08800
C 	C 	0.09210 0.15520 0.34700 -0.14000
Cd	Cd	0.78780 0.63476 0.62104 1.18600
N 	N 	0.76650 0.57870 0.40730 -0.19600
N 	N 	0.75680 0.57700 0.84320 -0.17900
N 	N 	0.83090 0.69880 0.41120 -0.16500
N 	N 	0.63160 0.66760 0.62820 -0.17700
N 	N 	0.82530 0.69180 0.84840 -0.20300
N 	N 	0.95450 0.62190 0.66920 -0.21500
C 	C 	0.75860 0.54820 0.30130 -0.24300
C 	C 	0.75540 0.54830 0.95260 -0.24300
C 	C 	0.89480 0.71810 0.34770 -0.19800
C 	C 	0.58130 0.69850 0.67370 -0.23300
C 	C 	0.92800 0.68950 0.87400 -0.05500
C 	C 	0.98490 0.65550 0.80800 0.09200
C 	C 	0.09210 0.65520 0.84700 -0.14300
Ni	Ni	0.25000 0.00000 0.37260 1.02500
Ni	Ni	0.25000 0.50000 0.87260 1.04700
Ni	Ni	0.75000 0.00000 0.62740 1.02900
Ni	Ni	0.75000 0.50000 0.12740 1.05200
Ni	Ni	0.50000 0.25000 0.25000 1.06000
Ni	Ni	-0.00000 0.75000 0.25000 1.02800
Ni	Ni	0.50000 0.75000 0.75000 1.06000
Ni	Ni	0.00000 0.25000 0.75000 1.02600
