data_crystal

_cell_length_a 13.98100
_cell_length_b 26.68500
_cell_length_c 7.69800
_cell_angle_alpha 90.00000
_cell_angle_beta  90.00000
_cell_angle_gamma 90.00000

_symmetry_space_group_name_	'P 1'
_symmetry_space_group_name_H-M	'P 1'

loop_
_symmetry_equiv_pos_as_xyz
  x,y,z

loop_
_atom_site_label
_atom_site_type_symbol
_atom_site_fract_x
_atom_site_fract_y
_atom_site_fract_z
_atom_site_charge
Cd	Cd	0.21797 0.11487 0.13390 1.16700
N 	N 	0.24590 0.17240 0.91000 -0.16400
N 	N 	0.23290 0.17030 0.35200 -0.20800
N 	N 	0.17040 0.04850 0.33400 -0.16500
N 	N 	0.12590 0.91640 0.62900 -0.17900
N 	N 	0.18090 0.05770 0.90500 -0.19700
N 	N 	0.05230 0.12580 0.08300 -0.27500
C 	C 	0.24450 0.20130 0.80100 -0.24900
C 	C 	0.23800 0.20050 0.45800 -0.26100
C 	C 	0.10700 0.03040 0.40000 -0.28800
C 	C 	0.07760 0.94750 0.57700 -0.23200
C 	C 	0.08100 0.06020 0.87100 -0.07000
C 	C 	0.02300 0.09270 0.93900 -0.01300
C 	C 	0.91600 0.09480 0.89900 0.00800
Cd	Cd	0.28203 0.88513 0.63390 1.18500
N 	N 	0.25410 0.82760 0.41000 -0.18200
N 	N 	0.26710 0.82970 0.85200 -0.20200
N 	N 	0.32960 0.95150 0.83400 -0.15800
N 	N 	0.37410 0.08360 0.12900 -0.18500
N 	N 	0.31910 0.94230 0.40500 -0.20100
N 	N 	0.44770 0.87420 0.58300 -0.22300
C 	C 	0.25550 0.79870 0.30100 -0.27800
C 	C 	0.26200 0.79950 0.95800 -0.21500
C 	C 	0.39300 0.96960 0.90000 -0.16500
C 	C 	0.42240 0.05250 0.07700 -0.28100
C 	C 	0.41900 0.93980 0.37100 -0.04900
C 	C 	0.47700 0.90730 0.43900 0.01000
C 	C 	0.58400 0.90520 0.39900 -0.06700
Cd	Cd	0.78203 0.61487 0.86610 1.19700
N 	N 	0.75410 0.67240 0.09000 -0.19600
N 	N 	0.76710 0.67030 0.64800 -0.19100
N 	N 	0.82960 0.54850 0.66600 -0.15900
N 	N 	0.87410 0.41640 0.37100 -0.18200
N 	N 	0.81910 0.55770 0.09500 -0.21900
N 	N 	0.94770 0.62580 0.91700 -0.18100
C 	C 	0.75550 0.70130 0.19900 -0.25600
C 	C 	0.76200 0.70050 0.54200 -0.24000
C 	C 	0.89300 0.53040 0.60000 -0.19100
C 	C 	0.92240 0.44750 0.42300 -0.19000
C 	C 	0.91900 0.56020 0.12900 -0.05600
C 	C 	0.97700 0.59270 0.06100 0.05200
C 	C 	0.08400 0.59480 0.10100 -0.16500
Cd	Cd	0.71797 0.38513 0.36610 1.18300
N 	N 	0.74590 0.32760 0.59000 -0.18000
N 	N 	0.73290 0.32970 0.14800 -0.19700
N 	N 	0.67040 0.45150 0.16600 -0.16000
N 	N 	0.62590 0.58360 0.87100 -0.17500
N 	N 	0.68090 0.44230 0.59500 -0.20200
N 	N 	0.55230 0.37420 0.41700 -0.22700
C 	C 	0.74450 0.29870 0.69900 -0.22900
C 	C 	0.73800 0.29950 0.04200 -0.28100
C 	C 	0.60700 0.46960 0.10000 -0.26100
C 	C 	0.57760 0.55250 0.92300 -0.19500
C 	C 	0.58100 0.43980 0.62900 -0.04300
C 	C 	0.52300 0.40730 0.56100 0.01300
C 	C 	0.41600 0.40520 0.60100 -0.06200
Cd	Cd	0.78203 0.88513 0.86610 1.19800
N 	N 	0.75410 0.82760 0.09000 -0.19600
N 	N 	0.76710 0.82970 0.64800 -0.19100
N 	N 	0.82960 0.95150 0.66600 -0.15800
N 	N 	0.87410 0.08360 0.37100 -0.18300
N 	N 	0.81910 0.94230 0.09500 -0.21200
N 	N 	0.94770 0.87420 0.91700 -0.18000
C 	C 	0.75550 0.79870 0.19900 -0.25600
C 	C 	0.76200 0.79950 0.54200 -0.24000
C 	C 	0.89300 0.96960 0.60000 -0.15900
C 	C 	0.92240 0.05250 0.42300 -0.20700
C 	C 	0.91900 0.93980 0.12900 -0.03800
C 	C 	0.97700 0.90730 0.06100 0.04700
C 	C 	0.08400 0.90520 0.10100 -0.15200
Cd	Cd	0.71797 0.11487 0.36610 1.18100
N 	N 	0.74590 0.17240 0.59000 -0.18000
N 	N 	0.73290 0.17030 0.14800 -0.19800
N 	N 	0.67040 0.04850 0.16600 -0.16400
N 	N 	0.62590 0.91640 0.87100 -0.17800
N 	N 	0.68090 0.05770 0.59500 -0.20900
N 	N 	0.55230 0.12580 0.41700 -0.22800
C 	C 	0.74450 0.20130 0.69900 -0.22900
C 	C 	0.73800 0.20050 0.04200 -0.28100
C 	C 	0.60700 0.03040 0.10000 -0.28200
C 	C 	0.57760 0.94750 0.92300 -0.16600
C 	C 	0.58100 0.06020 0.62900 -0.05900
C 	C 	0.52300 0.09270 0.56100 0.01600
C 	C 	0.41600 0.09480 0.60100 -0.07200
Cd	Cd	0.21797 0.38513 0.13390 1.16800
N 	N 	0.24590 0.32760 0.91000 -0.16500
N 	N 	0.23290 0.32970 0.35200 -0.20900
N 	N 	0.17040 0.45150 0.33400 -0.16200
N 	N 	0.12590 0.58360 0.62900 -0.17700
N 	N 	0.18090 0.44230 0.90500 -0.18900
N 	N 	0.05230 0.37420 0.08300 -0.27400
C 	C 	0.24450 0.29870 0.80100 -0.24900
C 	C 	0.23800 0.29950 0.45800 -0.26100
C 	C 	0.10700 0.46960 0.40000 -0.26600
C 	C 	0.07760 0.55250 0.57700 -0.26200
C 	C 	0.08100 0.43980 0.87100 -0.05400
C 	C 	0.02300 0.40730 0.93900 -0.01600
C 	C 	0.91600 0.40520 0.89900 0.01800
Cd	Cd	0.28203 0.61487 0.63390 1.18300
N 	N 	0.25410 0.67240 0.41000 -0.18200
N 	N 	0.26710 0.67030 0.85200 -0.20200
N 	N 	0.32960 0.54850 0.83400 -0.15900
N 	N 	0.37410 0.41640 0.12900 -0.18500
N 	N 	0.31910 0.55770 0.40500 -0.20900
N 	N 	0.44770 0.62580 0.58300 -0.22400
C 	C 	0.25550 0.70130 0.30100 -0.27800
C 	C 	0.26200 0.70050 0.95800 -0.21600
C 	C 	0.39300 0.53040 0.90000 -0.19900
C 	C 	0.42240 0.44750 0.07700 -0.26300
C 	C 	0.41900 0.56020 0.37100 -0.06700
C 	C 	0.47700 0.59270 0.43900 0.01400
C 	C 	0.58400 0.59480 0.39900 -0.07900
Ni	Ni	0.24240 0.25000 0.62850 1.04900
Ni	Ni	0.25760 0.75000 0.12850 1.02300
Ni	Ni	0.75760 0.75000 0.37150 1.05100
Ni	Ni	0.74240 0.25000 0.87150 1.07500
Ni	Ni	0.00000 0.00000 0.50000 1.00300
Ni	Ni	0.50000 0.00000 -0.00000 1.01100
Ni	Ni	0.00000 0.50000 0.50000 1.02500
Ni	Ni	0.50000 0.50000 -0.00000 1.03300
