data_crystal

_cell_length_a 14.10400
_cell_length_b 26.65400
_cell_length_c 7.64500
_cell_angle_alpha 90.00000
_cell_angle_beta  90.00000
_cell_angle_gamma 90.00000

_symmetry_space_group_name_	'P 1'
_symmetry_space_group_name_H-M	'P 1'

loop_
_symmetry_equiv_pos_as_xyz
  x,y,z

loop_
_atom_site_label
_atom_site_type_symbol
_atom_site_fract_x
_atom_site_fract_y
_atom_site_fract_z
_atom_site_charge
Cd	Cd	0.21989 0.11415 0.13620 1.16600
N 	N 	0.24810 0.17160 0.91400 -0.16900
N 	N 	0.23710 0.16940 0.35700 -0.20700
N 	N 	0.17060 0.04940 0.33900 -0.16900
N 	N 	0.12530 0.91760 0.63100 -0.18000
N 	N 	0.18320 0.05680 0.90500 -0.19600
N 	N 	0.05570 0.12530 0.08200 -0.27600
C 	C 	0.24720 0.20080 0.80500 -0.24500
C 	C 	0.24010 0.20070 0.46200 -0.26700
C 	C 	0.10470 0.03040 0.40400 -0.29800
C 	C 	0.07680 0.94850 0.58400 -0.22600
C 	C 	0.08000 0.05770 0.87800 -0.07700
C 	C 	0.02700 0.09400 0.94000 -0.00000
C 	C 	0.92300 0.09600 0.89500 0.00700
Cd	Cd	0.28011 0.88585 0.63620 1.18500
N 	N 	0.25190 0.82840 0.41400 -0.18500
N 	N 	0.26290 0.83060 0.85700 -0.19900
N 	N 	0.32940 0.95060 0.83900 -0.15800
N 	N 	0.37470 0.08240 0.13100 -0.18400
N 	N 	0.31680 0.94320 0.40500 -0.19900
N 	N 	0.44430 0.87470 0.58200 -0.22300
C 	C 	0.25280 0.79920 0.30500 -0.27400
C 	C 	0.25990 0.79930 0.96200 -0.22100
C 	C 	0.39530 0.96960 0.90400 -0.17700
C 	C 	0.42320 0.05150 0.08400 -0.27600
C 	C 	0.42000 0.94230 0.37800 -0.05200
C 	C 	0.47300 0.90600 0.44000 0.02000
C 	C 	0.57700 0.90400 0.39500 -0.06900
Cd	Cd	0.78011 0.61415 0.86380 1.19700
N 	N 	0.75190 0.67160 0.08600 -0.20000
N 	N 	0.76290 0.66940 0.64300 -0.18900
N 	N 	0.82940 0.54940 0.66100 -0.15900
N 	N 	0.87470 0.41760 0.36900 -0.18200
N 	N 	0.81680 0.55680 0.09500 -0.21800
N 	N 	0.94430 0.62530 0.91800 -0.18100
C 	C 	0.75280 0.70080 0.19500 -0.25300
C 	C 	0.75990 0.70070 0.53800 -0.24600
C 	C 	0.89530 0.53040 0.59600 -0.20200
C 	C 	0.92320 0.44850 0.41600 -0.18500
C 	C 	0.92000 0.55770 0.12200 -0.06100
C 	C 	0.97300 0.59400 0.06000 0.06200
C 	C 	0.07700 0.59600 0.10500 -0.16800
Cd	Cd	0.71989 0.38585 0.36380 1.18300
N 	N 	0.74810 0.32840 0.58600 -0.18300
N 	N 	0.73710 0.33060 0.14300 -0.19500
N 	N 	0.67060 0.45060 0.16100 -0.16300
N 	N 	0.62530 0.58240 0.86900 -0.17300
N 	N 	0.68320 0.44320 0.59500 -0.19900
N 	N 	0.55570 0.37470 0.41800 -0.22700
C 	C 	0.74720 0.29920 0.69500 -0.22500
C 	C 	0.74010 0.29930 0.03800 -0.28700
C 	C 	0.60470 0.46960 0.09600 -0.27200
C 	C 	0.57680 0.55150 0.91600 -0.19100
C 	C 	0.58000 0.44230 0.62200 -0.05000
C 	C 	0.52700 0.40600 0.56000 0.02500
C 	C 	0.42300 0.40400 0.60500 -0.06300
Cd	Cd	0.78011 0.88585 0.86380 1.19900
N 	N 	0.75190 0.82840 0.08600 -0.19900
N 	N 	0.76290 0.83060 0.64300 -0.18800
N 	N 	0.82940 0.95060 0.66100 -0.15800
N 	N 	0.87470 0.08240 0.36900 -0.18200
N 	N 	0.81680 0.94320 0.09500 -0.21000
N 	N 	0.94430 0.87470 0.91800 -0.18000
C 	C 	0.75280 0.79920 0.19500 -0.25200
C 	C 	0.75990 0.79930 0.53800 -0.24500
C 	C 	0.89530 0.96960 0.59600 -0.16900
C 	C 	0.92320 0.05150 0.41600 -0.20300
C 	C 	0.92000 0.94230 0.12200 -0.04200
C 	C 	0.97300 0.90600 0.06000 0.05700
C 	C 	0.07700 0.90400 0.10500 -0.15500
Cd	Cd	0.71989 0.11415 0.36380 1.18200
N 	N 	0.74810 0.17160 0.58600 -0.18300
N 	N 	0.73710 0.16940 0.14300 -0.19500
N 	N 	0.67060 0.04940 0.16100 -0.16600
N 	N 	0.62530 0.91760 0.86900 -0.17600
N 	N 	0.68320 0.05680 0.59500 -0.20700
N 	N 	0.55570 0.12530 0.41800 -0.22900
C 	C 	0.74720 0.20080 0.69500 -0.22500
C 	C 	0.74010 0.20070 0.03800 -0.28800
C 	C 	0.60470 0.03040 0.09600 -0.29300
C 	C 	0.57680 0.94850 0.91600 -0.16100
C 	C 	0.58000 0.05770 0.62200 -0.06700
C 	C 	0.52700 0.09400 0.56000 0.02900
C 	C 	0.42300 0.09600 0.60500 -0.07400
Cd	Cd	0.21989 0.38585 0.13620 1.16800
N 	N 	0.24810 0.32840 0.91400 -0.16800
N 	N 	0.23710 0.33060 0.35700 -0.20600
N 	N 	0.17060 0.45060 0.33900 -0.16400
N 	N 	0.12530 0.58240 0.63100 -0.17600
N 	N 	0.18320 0.44320 0.90500 -0.18700
N 	N 	0.05570 0.37470 0.08200 -0.27400
C 	C 	0.24720 0.29920 0.80500 -0.24500
C 	C 	0.24010 0.29930 0.46200 -0.26700
C 	C 	0.10470 0.46960 0.40400 -0.27700
C 	C 	0.07680 0.55150 0.58400 -0.25700
C 	C 	0.08000 0.44230 0.87800 -0.06100
C 	C 	0.02700 0.40600 0.94000 -0.00400
C 	C 	0.92300 0.40400 0.89500 0.01700
Cd	Cd	0.28011 0.61415 0.63620 1.18400
N 	N 	0.25190 0.67160 0.41400 -0.18500
N 	N 	0.26290 0.66940 0.85700 -0.19900
N 	N 	0.32940 0.54940 0.83900 -0.15900
N 	N 	0.37470 0.41760 0.13100 -0.18400
N 	N 	0.31680 0.55680 0.40500 -0.20700
N 	N 	0.44430 0.62530 0.58200 -0.22400
C 	C 	0.25280 0.70080 0.30500 -0.27400
C 	C 	0.25990 0.70070 0.96200 -0.22100
C 	C 	0.39530 0.53040 0.90400 -0.21000
C 	C 	0.42320 0.44850 0.08400 -0.25700
C 	C 	0.42000 0.55770 0.37800 -0.07200
C 	C 	0.47300 0.59400 0.44000 0.02400
C 	C 	0.57700 0.59600 0.39500 -0.08100
Ni	Ni	0.24380 0.25000 0.63160 1.05100
Ni	Ni	0.25620 0.75000 0.13160 1.02400
Ni	Ni	0.75620 0.75000 0.36840 1.05200
Ni	Ni	0.74380 0.25000 0.86840 1.07700
Ni	Ni	0.00000 0.00000 0.50000 1.00900
Ni	Ni	0.50000 0.00000 -0.00000 1.01700
Ni	Ni	-0.00000 0.50000 0.50000 1.03100
Ni	Ni	0.50000 0.50000 -0.00000 1.03900
