data_crystal

_cell_length_a 6.90820
_cell_length_b 18.42600
_cell_length_c 18.58300
_cell_angle_alpha 111.98000
_cell_angle_beta  90.00000
_cell_angle_gamma 90.00000

_symmetry_space_group_name_	'P 1'
_symmetry_space_group_name_H-M	'P 1'

loop_
_symmetry_equiv_pos_as_xyz
  x,y,z

loop_
_atom_site_label
_atom_site_type_symbol
_atom_site_fract_x
_atom_site_fract_y
_atom_site_fract_z
_atom_site_charge
Sm	Sm	0.77722 0.62669 0.62188 1.71700
Sm	Sm	0.74997 0.62503 0.10328 1.93000
Sm	Sm	0.27722 0.87331 0.87812 1.71100
Sm	Sm	0.24997 0.87497 0.39672 1.93400
Sm	Sm	0.22278 0.37331 0.37812 1.71600
Sm	Sm	0.25003 0.37497 0.89672 1.92900
Sm	Sm	0.72278 0.12669 0.12188 1.71000
Sm	Sm	0.75003 0.12503 0.60328 1.93300
H 	H 	0.51390 0.62650 0.89770 -0.00200
H 	H 	0.72930 0.41600 0.76230 0.02100
H 	H 	0.59830 0.72740 0.41120 -0.00400
H 	H 	0.79960 0.50620 0.33010 0.01200
H 	H 	0.01390 0.87350 0.60230 -0.00200
H 	H 	0.22930 0.08400 0.73770 0.02000
H 	H 	0.09830 0.77260 0.08880 -0.00300
H 	H 	0.29960 0.99380 0.16990 0.01300
H 	H 	0.48610 0.37350 0.10230 -0.00200
H 	H 	0.27070 0.58400 0.23770 0.02100
H 	H 	0.40170 0.27260 0.58880 -0.00400
H 	H 	0.20040 0.49380 0.66990 0.01200
H 	H 	0.98610 0.12650 0.39770 -0.00200
H 	H 	0.77070 0.91600 0.26230 0.02000
H 	H 	0.90170 0.22740 0.91120 -0.00300
H 	H 	0.70040 0.00620 0.83010 0.01300
C 	C 	0.58950 0.61645 0.78853 -0.08600
C 	C 	0.56770 0.59306 0.85123 0.07400
C 	C 	0.62900 0.51824 0.84226 -0.17600
C 	C 	0.69710 0.46754 0.77052 0.06300
C 	C 	0.71540 0.49643 0.71141 -0.06800
C 	C 	0.53600 0.69681 0.79036 0.38500
C 	C 	0.62810 0.49203 0.91041 0.48800
C 	C 	0.79180 0.44914 0.63164 0.34400
C 	C 	0.65060 0.68065 0.29489 -0.09300
C 	C 	0.64120 0.68283 0.37069 0.05400
C 	C 	0.69770 0.61665 0.38386 -0.10400
C 	C 	0.76400 0.55144 0.32249 0.03400
C 	C 	0.77580 0.55539 0.24927 -0.05100
C 	C 	0.58540 0.74769 0.27195 0.45700
C 	C 	0.69620 0.61688 0.46533 0.32200
C 	C 	0.85390 0.49040 0.17767 0.34400
C 	C 	0.08950 0.88355 0.71147 -0.08700
C 	C 	0.06770 0.90694 0.64877 0.07400
C 	C 	0.12900 0.98176 0.65774 -0.17800
C 	C 	0.19710 0.03246 0.72948 0.06400
C 	C 	0.21540 0.00357 0.78859 -0.06800
C 	C 	0.03600 0.80319 0.70964 0.38400
C 	C 	0.12810 0.00797 0.58959 0.48900
C 	C 	0.29180 0.05086 0.86836 0.34300
C 	C 	0.15060 0.81935 0.20511 -0.09200
C 	C 	0.14120 0.81717 0.12931 0.05400
C 	C 	0.19770 0.88335 0.11614 -0.10400
C 	C 	0.26400 0.94856 0.17751 0.03400
C 	C 	0.27580 0.94461 0.25073 -0.04900
C 	C 	0.08540 0.75231 0.22805 0.45700
C 	C 	0.19620 0.88312 0.03467 0.32700
C 	C 	0.35390 0.00960 0.32233 0.34100
C 	C 	0.41050 0.38355 0.21147 -0.08600
C 	C 	0.43230 0.40694 0.14877 0.07400
C 	C 	0.37100 0.48176 0.15774 -0.17600
C 	C 	0.30290 0.53246 0.22948 0.06300
C 	C 	0.28460 0.50357 0.28859 -0.06800
C 	C 	0.46400 0.30319 0.20964 0.38500
C 	C 	0.37190 0.50797 0.08959 0.48800
C 	C 	0.20820 0.55086 0.36836 0.34400
C 	C 	0.34940 0.31935 0.70511 -0.09300
C 	C 	0.35880 0.31717 0.62931 0.05400
C 	C 	0.30230 0.38335 0.61614 -0.10400
C 	C 	0.23600 0.44856 0.67751 0.03400
C 	C 	0.22420 0.44461 0.75073 -0.05100
C 	C 	0.41460 0.25231 0.72805 0.45700
C 	C 	0.30380 0.38312 0.53467 0.32200
C 	C 	0.14610 0.50960 0.82233 0.34400
C 	C 	0.91050 0.11645 0.28853 -0.08700
C 	C 	0.93230 0.09306 0.35123 0.07400
C 	C 	0.87100 0.01824 0.34226 -0.17800
C 	C 	0.80290 0.96754 0.27052 0.06400
C 	C 	0.78460 0.99643 0.21141 -0.06800
C 	C 	0.96400 0.19681 0.29036 0.38400
C 	C 	0.87190 0.99203 0.41041 0.48900
C 	C 	0.70820 0.94914 0.13164 0.34300
C 	C 	0.84940 0.18065 0.79489 -0.09200
C 	C 	0.85880 0.18283 0.87069 0.05400
C 	C 	0.80230 0.11665 0.88386 -0.10400
C 	C 	0.73600 0.05144 0.82249 0.03400
C 	C 	0.72420 0.05539 0.74927 -0.04900
C 	C 	0.91460 0.24769 0.77195 0.45700
C 	C 	0.80380 0.11688 0.96533 0.32700
C 	C 	0.64610 0.99040 0.67767 0.34100
N 	N 	0.66780 0.57004 0.72198 -0.18000
N 	N 	0.71780 0.61853 0.23634 -0.17400
N 	N 	0.16780 0.92996 0.77802 -0.18100
N 	N 	0.21780 0.88147 0.26366 -0.17400
N 	N 	0.33220 0.42996 0.27802 -0.18000
N 	N 	0.28220 0.38147 0.76366 -0.17400
N 	N 	0.83220 0.07004 0.22198 -0.18100
N 	N 	0.78220 0.11853 0.73634 -0.17400
O 	O 	0.42810 0.73956 0.84193 -0.44300
O 	O 	0.60880 0.71382 0.73573 -0.48500
O 	O 	0.68400 0.54062 0.97329 -0.54400
O 	O 	0.57640 0.42263 0.89722 -0.50100
O 	O 	0.81480 0.37866 0.61193 -0.29100
O 	O 	0.82840 0.48890 0.58931 -0.45900
O 	O 	0.51850 0.80680 0.32417 -0.52200
O 	O 	0.60500 0.73825 0.20205 -0.48700
O 	O 	0.71680 0.55342 0.47496 -0.41500
O 	O 	0.68270 0.68102 0.52152 -0.41500
O 	O 	0.91200 0.42888 0.18212 -0.28500
O 	O 	0.85330 0.50542 0.11610 -0.46100
O 	O 	0.92810 0.76044 0.65807 -0.44200
O 	O 	0.10880 0.78618 0.76427 -0.48500
O 	O 	0.18400 0.95938 0.52671 -0.54500
O 	O 	0.07640 0.07737 0.60278 -0.50200
O 	O 	0.31480 0.12134 0.88807 -0.29100
O 	O 	0.32840 0.01110 0.91069 -0.45700
O 	O 	0.01850 0.69320 0.17583 -0.52100
O 	O 	0.10500 0.76175 0.29795 -0.48600
O 	O 	0.21680 0.94658 0.02504 -0.41400
O 	O 	0.18270 0.81898 0.97848 -0.41800
O 	O 	0.41200 0.07112 0.31788 -0.28400
O 	O 	0.35330 0.99458 0.38390 -0.45900
O 	O 	0.57190 0.26044 0.15807 -0.44300
O 	O 	0.39120 0.28618 0.26427 -0.48500
O 	O 	0.31600 0.45938 0.02671 -0.54400
O 	O 	0.42360 0.57737 0.10278 -0.50100
O 	O 	0.18520 0.62134 0.38807 -0.29100
O 	O 	0.17160 0.51110 0.41069 -0.45900
O 	O 	0.48150 0.19320 0.67583 -0.52200
O 	O 	0.39500 0.26175 0.79795 -0.48700
O 	O 	0.28320 0.44658 0.52504 -0.41500
O 	O 	0.31730 0.31898 0.47848 -0.41500
O 	O 	0.08800 0.57112 0.81788 -0.28500
O 	O 	0.14670 0.49458 0.88390 -0.46100
O 	O 	0.07190 0.23956 0.34193 -0.44200
O 	O 	0.89120 0.21382 0.23573 -0.48500
O 	O 	0.81600 0.04062 0.47329 -0.54500
O 	O 	0.92360 0.92263 0.39722 -0.50200
O 	O 	0.68520 0.87866 0.11193 -0.29100
O 	O 	0.67160 0.98890 0.08931 -0.45700
O 	O 	0.98150 0.30680 0.82417 -0.52100
O 	O 	0.89500 0.23825 0.70205 -0.48600
O 	O 	0.78320 0.05342 0.97496 -0.41400
O 	O 	0.81730 0.18102 0.02152 -0.41800
O 	O 	0.58800 0.92888 0.68212 -0.28400
O 	O 	0.64670 0.00542 0.61610 -0.45900
