data_crystal

_cell_length_a 18.69240
_cell_length_b 18.69240
_cell_length_c 35.91960
_cell_angle_alpha 90.00000
_cell_angle_beta  90.00000
_cell_angle_gamma 90.00000

_symmetry_space_group_name_	'P 1'
_symmetry_space_group_name_H-M	'P 1'

loop_
_symmetry_equiv_pos_as_xyz
  x,y,z

loop_
_atom_site_label
_atom_site_type_symbol
_atom_site_fract_x
_atom_site_fract_y
_atom_site_fract_z
_atom_site_charge
O 	O 	0.31633 0.78676 0.69907 -0.40800
O 	O 	0.37393 0.73049 0.74553 -0.40500
O 	O 	0.69365 0.79630 0.70290 -0.41000
O 	O 	0.63569 0.73974 0.74896 -0.40600
C 	C 	0.50521 0.92233 0.53538 0.03400
C 	C 	0.55866 0.93713 0.56093 -0.06100
H 	H 	0.59470 0.97100 0.55490 0.05400
C 	C 	0.56033 0.90323 0.59529 -0.04900
H 	H 	0.59750 0.91400 0.61250 0.05000
C 	C 	0.50840 0.85405 0.60465 0.02000
C 	C 	0.45653 0.83556 0.57823 -0.05000
H 	H 	0.42190 0.80000 0.58380 0.04900
C 	C 	0.45589 0.86920 0.54389 -0.06300
H 	H 	0.42120 0.85580 0.52590 0.05400
C 	C 	0.50651 0.82239 0.64300 -0.00700
C 	C 	0.57038 0.81000 0.66211 -0.01200
H 	H 	0.61480 0.82100 0.65060 0.05100
C 	C 	0.56948 0.78176 0.69770 -0.08600
C 	C 	0.50482 0.76483 0.71463 0.03200
H 	H 	0.50440 0.74470 0.73890 0.05100
C 	C 	0.44147 0.77723 0.69628 -0.08700
C 	C 	0.44286 0.80591 0.66001 -0.01300
H 	H 	0.39920 0.81400 0.64720 0.05100
C 	C 	0.37165 0.76381 0.71482 0.35600
C 	C 	0.63848 0.77169 0.71820 0.36000
O 	O 	0.81633 0.28676 0.19907 -0.40700
O 	O 	0.87393 0.23049 0.24553 -0.40400
O 	O 	0.19365 0.29630 0.20290 -0.41000
O 	O 	0.13569 0.23974 0.24896 -0.40600
C 	C 	0.00521 0.42233 0.03538 0.03400
C 	C 	0.05866 0.43713 0.06093 -0.06000
H 	H 	0.09470 0.47100 0.05490 0.05500
C 	C 	0.06033 0.40323 0.09529 -0.04900
H 	H 	0.09750 0.41400 0.11250 0.05000
C 	C 	0.00840 0.35405 0.10465 0.02100
C 	C 	0.95653 0.33556 0.07823 -0.05000
H 	H 	0.92190 0.30000 0.08380 0.04900
C 	C 	0.95589 0.36920 0.04389 -0.06400
H 	H 	0.92120 0.35580 0.02590 0.05400
C 	C 	0.00651 0.32239 0.14300 -0.00600
C 	C 	0.07038 0.31000 0.16211 -0.01200
H 	H 	0.11480 0.32100 0.15060 0.05100
C 	C 	0.06948 0.28176 0.19770 -0.08600
C 	C 	0.00482 0.26483 0.21463 0.03300
H 	H 	0.00440 0.24470 0.23890 0.05100
C 	C 	0.94147 0.27723 0.19628 -0.08800
C 	C 	0.94286 0.30591 0.16001 -0.01400
H 	H 	0.89920 0.31400 0.14720 0.05100
C 	C 	0.87165 0.26381 0.21482 0.35700
C 	C 	0.13848 0.27169 0.21820 0.36000
O 	O 	0.68367 0.21324 0.69907 -0.40700
O 	O 	0.62607 0.26951 0.74553 -0.40400
O 	O 	0.30635 0.20370 0.70290 -0.41000
O 	O 	0.36431 0.26026 0.74896 -0.40600
C 	C 	0.49479 0.07767 0.53538 0.03300
C 	C 	0.44134 0.06287 0.56093 -0.06000
H 	H 	0.40530 0.02900 0.55490 0.05500
C 	C 	0.43967 0.09677 0.59529 -0.04900
H 	H 	0.40250 0.08600 0.61250 0.05100
C 	C 	0.49160 0.14595 0.60465 0.02100
C 	C 	0.54347 0.16444 0.57823 -0.05000
H 	H 	0.57810 0.20000 0.58380 0.04900
C 	C 	0.54411 0.13080 0.54389 -0.06300
H 	H 	0.57880 0.14420 0.52590 0.05400
C 	C 	0.49349 0.17761 0.64300 -0.00700
C 	C 	0.42962 0.19000 0.66211 -0.01200
H 	H 	0.38520 0.17900 0.65060 0.05100
C 	C 	0.43052 0.21824 0.69770 -0.08600
C 	C 	0.49518 0.23517 0.71463 0.03300
H 	H 	0.49560 0.25530 0.73890 0.05100
C 	C 	0.55853 0.22277 0.69628 -0.08700
C 	C 	0.55714 0.19409 0.66001 -0.01300
H 	H 	0.60080 0.18600 0.64720 0.05100
C 	C 	0.62835 0.23619 0.71482 0.35600
C 	C 	0.36152 0.22831 0.71820 0.36000
O 	O 	0.18367 0.71324 0.19907 -0.40700
O 	O 	0.12607 0.76951 0.24553 -0.40300
O 	O 	0.80635 0.70370 0.20290 -0.41000
O 	O 	0.86431 0.76026 0.24896 -0.40700
C 	C 	0.99479 0.57767 0.03538 0.03200
C 	C 	0.94134 0.56287 0.06093 -0.06000
H 	H 	0.90530 0.52900 0.05490 0.05400
C 	C 	0.93967 0.59677 0.09529 -0.05000
H 	H 	0.90250 0.58600 0.11250 0.05000
C 	C 	0.99160 0.64595 0.10465 0.02000
C 	C 	0.04347 0.66444 0.07823 -0.05000
H 	H 	0.07810 0.70000 0.08380 0.04900
C 	C 	0.04411 0.63080 0.04389 -0.06200
H 	H 	0.07880 0.64420 0.02590 0.05400
C 	C 	0.99349 0.67761 0.14300 -0.00700
C 	C 	0.92962 0.69000 0.16211 -0.01200
H 	H 	0.88520 0.67900 0.15060 0.05100
C 	C 	0.93052 0.71824 0.19770 -0.08600
C 	C 	0.99518 0.73517 0.21463 0.03100
H 	H 	0.99560 0.75530 0.23890 0.05100
C 	C 	0.05853 0.72277 0.19628 -0.08600
C 	C 	0.05714 0.69409 0.16001 -0.01200
H 	H 	0.10080 0.68600 0.14720 0.05100
C 	C 	0.12835 0.73619 0.21482 0.35600
C 	C 	0.86152 0.72831 0.21820 0.36000
O 	O 	0.78676 0.68367 0.30093 -0.40700
O 	O 	0.73049 0.62607 0.25447 -0.40400
O 	O 	0.79630 0.30635 0.29710 -0.41000
O 	O 	0.73974 0.36431 0.25104 -0.40600
C 	C 	0.92233 0.49479 0.46462 0.03400
C 	C 	0.93713 0.44134 0.43907 -0.06100
H 	H 	0.97100 0.40530 0.44510 0.05400
C 	C 	0.90323 0.43967 0.40471 -0.04900
H 	H 	0.91400 0.40250 0.38750 0.05000
C 	C 	0.85405 0.49160 0.39535 0.02000
C 	C 	0.83556 0.54347 0.42177 -0.05000
H 	H 	0.80000 0.57810 0.41620 0.04900
C 	C 	0.86920 0.54411 0.45611 -0.06300
H 	H 	0.85580 0.57880 0.47410 0.05400
C 	C 	0.82239 0.49349 0.35700 -0.00700
C 	C 	0.81000 0.42962 0.33789 -0.01200
H 	H 	0.82100 0.38520 0.34940 0.05100
C 	C 	0.78176 0.43052 0.30230 -0.08600
C 	C 	0.76483 0.49518 0.28537 0.03200
H 	H 	0.74470 0.49560 0.26110 0.05100
C 	C 	0.77723 0.55853 0.30372 -0.08700
C 	C 	0.80591 0.55714 0.33999 -0.01300
H 	H 	0.81400 0.60080 0.35280 0.05100
C 	C 	0.76381 0.62835 0.28518 0.35600
C 	C 	0.77169 0.36152 0.28180 0.36000
O 	O 	0.28676 0.18367 0.80093 -0.40700
O 	O 	0.23049 0.12607 0.75447 -0.40300
O 	O 	0.29630 0.80635 0.79710 -0.41000
O 	O 	0.23974 0.86431 0.75104 -0.40600
C 	C 	0.42233 0.99479 0.96462 0.03100
C 	C 	0.43713 0.94134 0.93907 -0.05900
H 	H 	0.47100 0.90530 0.94510 0.05400
C 	C 	0.40323 0.93967 0.90471 -0.05000
H 	H 	0.41400 0.90250 0.88750 0.05100
C 	C 	0.35405 0.99160 0.89535 0.02000
C 	C 	0.33556 0.04347 0.92177 -0.05000
H 	H 	0.30000 0.07810 0.91620 0.04900
C 	C 	0.36920 0.04411 0.95611 -0.06100
H 	H 	0.35580 0.07880 0.97410 0.05300
C 	C 	0.32239 0.99349 0.85700 -0.00700
C 	C 	0.31000 0.92962 0.83789 -0.01200
H 	H 	0.32100 0.88520 0.84940 0.05100
C 	C 	0.28176 0.93052 0.80230 -0.08600
C 	C 	0.26483 0.99518 0.78537 0.03200
H 	H 	0.24470 0.99560 0.76110 0.05100
C 	C 	0.27723 0.05853 0.80372 -0.08600
C 	C 	0.30591 0.05714 0.83999 -0.01200
H 	H 	0.31400 0.10080 0.85280 0.05100
C 	C 	0.26381 0.12835 0.78518 0.35600
C 	C 	0.27169 0.86152 0.78180 0.36000
O 	O 	0.21324 0.31633 0.30093 -0.40700
O 	O 	0.26951 0.37393 0.25447 -0.40400
O 	O 	0.20370 0.69365 0.29710 -0.41000
O 	O 	0.26026 0.63569 0.25104 -0.40600
C 	C 	0.07767 0.50521 0.46462 0.03300
C 	C 	0.06287 0.55866 0.43907 -0.06000
H 	H 	0.02900 0.59470 0.44510 0.05400
C 	C 	0.09677 0.56033 0.40471 -0.04900
H 	H 	0.08600 0.59750 0.38750 0.05000
C 	C 	0.14595 0.50840 0.39535 0.02100
C 	C 	0.16444 0.45653 0.42177 -0.05000
H 	H 	0.20000 0.42190 0.41620 0.04900
C 	C 	0.13080 0.45589 0.45611 -0.06300
H 	H 	0.14420 0.42120 0.47410 0.05400
C 	C 	0.17761 0.50651 0.35700 -0.00700
C 	C 	0.19000 0.57038 0.33789 -0.01200
H 	H 	0.17900 0.61480 0.34940 0.05100
C 	C 	0.21824 0.56948 0.30230 -0.08600
C 	C 	0.23517 0.50482 0.28537 0.03200
H 	H 	0.25530 0.50440 0.26110 0.05100
C 	C 	0.22277 0.44147 0.30372 -0.08700
C 	C 	0.19409 0.44286 0.33999 -0.01300
H 	H 	0.18600 0.39920 0.35280 0.05100
C 	C 	0.23619 0.37165 0.28518 0.35600
C 	C 	0.22831 0.63848 0.28180 0.36000
O 	O 	0.71324 0.81633 0.80093 -0.40700
O 	O 	0.76951 0.87393 0.75447 -0.40400
O 	O 	0.70370 0.19365 0.79710 -0.41000
O 	O 	0.76026 0.13569 0.75104 -0.40600
C 	C 	0.57767 0.00521 0.96462 0.03300
C 	C 	0.56287 0.05866 0.93907 -0.06000
H 	H 	0.52900 0.09470 0.94510 0.05400
C 	C 	0.59677 0.06033 0.90471 -0.05000
H 	H 	0.58600 0.09750 0.88750 0.05000
C 	C 	0.64595 0.00840 0.89535 0.02100
C 	C 	0.66444 0.95653 0.92177 -0.05100
H 	H 	0.70000 0.92190 0.91620 0.04900
C 	C 	0.63080 0.95589 0.95611 -0.06300
H 	H 	0.64420 0.92120 0.97410 0.05400
C 	C 	0.67761 0.00651 0.85700 -0.00600
C 	C 	0.69000 0.07038 0.83789 -0.01200
H 	H 	0.67900 0.11480 0.84940 0.05100
C 	C 	0.71824 0.06948 0.80230 -0.08600
C 	C 	0.73517 0.00482 0.78537 0.03400
H 	H 	0.75530 0.00440 0.76110 0.05000
C 	C 	0.72277 0.94147 0.80372 -0.08800
C 	C 	0.69409 0.94286 0.83999 -0.01400
H 	H 	0.68600 0.89920 0.85280 0.05100
C 	C 	0.73619 0.87165 0.78518 0.35700
C 	C 	0.72831 0.13848 0.78180 0.36000
O 	O 	0.68367 0.78676 0.30093 -0.40700
O 	O 	0.62607 0.73049 0.25447 -0.40400
O 	O 	0.30635 0.79630 0.29710 -0.41000
O 	O 	0.36431 0.73974 0.25104 -0.40600
C 	C 	0.49479 0.92233 0.46462 0.03400
C 	C 	0.44134 0.93713 0.43907 -0.06100
H 	H 	0.40530 0.97100 0.44510 0.05400
C 	C 	0.43967 0.90323 0.40471 -0.04900
H 	H 	0.40250 0.91400 0.38750 0.05000
C 	C 	0.49160 0.85405 0.39535 0.02000
C 	C 	0.54347 0.83556 0.42177 -0.05000
H 	H 	0.57810 0.80000 0.41620 0.04900
C 	C 	0.54411 0.86920 0.45611 -0.06300
H 	H 	0.57880 0.85580 0.47410 0.05400
C 	C 	0.49349 0.82239 0.35700 -0.00700
C 	C 	0.42962 0.81000 0.33789 -0.01200
H 	H 	0.38520 0.82100 0.34940 0.05100
C 	C 	0.43052 0.78176 0.30230 -0.08600
C 	C 	0.49518 0.76483 0.28537 0.03200
H 	H 	0.49560 0.74470 0.26110 0.05100
C 	C 	0.55853 0.77723 0.30372 -0.08700
C 	C 	0.55714 0.80591 0.33999 -0.01300
H 	H 	0.60080 0.81400 0.35280 0.05100
C 	C 	0.62835 0.76381 0.28518 0.35600
C 	C 	0.36152 0.77169 0.28180 0.36000
O 	O 	0.18367 0.28676 0.80093 -0.40700
O 	O 	0.12607 0.23049 0.75447 -0.40300
O 	O 	0.80635 0.29630 0.79710 -0.41000
O 	O 	0.86431 0.23974 0.75104 -0.40600
C 	C 	0.99479 0.42233 0.96462 0.03100
C 	C 	0.94134 0.43713 0.93907 -0.05900
H 	H 	0.90530 0.47100 0.94510 0.05400
C 	C 	0.93967 0.40323 0.90471 -0.05000
H 	H 	0.90250 0.41400 0.88750 0.05100
C 	C 	0.99160 0.35405 0.89535 0.02000
C 	C 	0.04347 0.33556 0.92177 -0.05000
H 	H 	0.07810 0.30000 0.91620 0.04900
C 	C 	0.04411 0.36920 0.95611 -0.06100
H 	H 	0.07880 0.35580 0.97410 0.05300
C 	C 	0.99349 0.32239 0.85700 -0.00700
C 	C 	0.92962 0.31000 0.83789 -0.01200
H 	H 	0.88520 0.32100 0.84940 0.05100
C 	C 	0.93052 0.28176 0.80230 -0.08600
C 	C 	0.99518 0.26483 0.78537 0.03200
H 	H 	0.99560 0.24470 0.76110 0.05100
C 	C 	0.05853 0.27723 0.80372 -0.08600
C 	C 	0.05714 0.30591 0.83999 -0.01200
H 	H 	0.10080 0.31400 0.85280 0.05100
C 	C 	0.12835 0.26381 0.78518 0.35600
C 	C 	0.86152 0.27169 0.78180 0.36000
O 	O 	0.31633 0.21324 0.30093 -0.40700
O 	O 	0.37393 0.26951 0.25447 -0.40400
O 	O 	0.69365 0.20370 0.29710 -0.41000
O 	O 	0.63569 0.26026 0.25104 -0.40600
C 	C 	0.50521 0.07767 0.46462 0.03300
C 	C 	0.55866 0.06287 0.43907 -0.06000
H 	H 	0.59470 0.02900 0.44510 0.05400
C 	C 	0.56033 0.09677 0.40471 -0.04900
H 	H 	0.59750 0.08600 0.38750 0.05000
C 	C 	0.50840 0.14595 0.39535 0.02100
C 	C 	0.45653 0.16444 0.42177 -0.05000
H 	H 	0.42190 0.20000 0.41620 0.04900
C 	C 	0.45589 0.13080 0.45611 -0.06300
H 	H 	0.42120 0.14420 0.47410 0.05400
C 	C 	0.50651 0.17761 0.35700 -0.00700
C 	C 	0.57038 0.19000 0.33789 -0.01200
H 	H 	0.61480 0.17900 0.34940 0.05100
C 	C 	0.56948 0.21824 0.30230 -0.08600
C 	C 	0.50482 0.23517 0.28537 0.03200
H 	H 	0.50440 0.25530 0.26110 0.05100
C 	C 	0.44147 0.22277 0.30372 -0.08700
C 	C 	0.44286 0.19409 0.33999 -0.01300
H 	H 	0.39920 0.18600 0.35280 0.05100
C 	C 	0.37165 0.23619 0.28518 0.35600
C 	C 	0.63848 0.22831 0.28180 0.36000
O 	O 	0.81633 0.71324 0.80093 -0.40700
O 	O 	0.87393 0.76951 0.75447 -0.40400
O 	O 	0.19365 0.70370 0.79710 -0.41000
O 	O 	0.13569 0.76026 0.75104 -0.40600
C 	C 	0.00521 0.57767 0.96462 0.03300
C 	C 	0.05866 0.56287 0.93907 -0.06000
H 	H 	0.09470 0.52900 0.94510 0.05400
C 	C 	0.06033 0.59677 0.90471 -0.05000
H 	H 	0.09750 0.58600 0.88750 0.05000
C 	C 	0.00840 0.64595 0.89535 0.02100
C 	C 	0.95653 0.66444 0.92177 -0.05100
H 	H 	0.92190 0.70000 0.91620 0.04900
C 	C 	0.95589 0.63080 0.95611 -0.06300
H 	H 	0.92120 0.64420 0.97410 0.05400
C 	C 	0.00651 0.67761 0.85700 -0.00600
C 	C 	0.07038 0.69000 0.83789 -0.01200
H 	H 	0.11480 0.67900 0.84940 0.05100
C 	C 	0.06948 0.71824 0.80230 -0.08600
C 	C 	0.00482 0.73517 0.78537 0.03400
H 	H 	0.00440 0.75530 0.76110 0.05000
C 	C 	0.94147 0.72277 0.80372 -0.08800
C 	C 	0.94286 0.69409 0.83999 -0.01400
H 	H 	0.89920 0.68600 0.85280 0.05100
C 	C 	0.87165 0.73619 0.78518 0.35700
C 	C 	0.13848 0.72831 0.78180 0.36000
O 	O 	0.21324 0.68367 0.69907 -0.40700
O 	O 	0.26951 0.62607 0.74553 -0.40400
O 	O 	0.20370 0.30635 0.70290 -0.41000
O 	O 	0.26026 0.36431 0.74896 -0.40600
C 	C 	0.07767 0.49479 0.53538 0.03300
C 	C 	0.06287 0.44134 0.56093 -0.06000
H 	H 	0.02900 0.40530 0.55490 0.05500
C 	C 	0.09677 0.43967 0.59529 -0.04900
H 	H 	0.08600 0.40250 0.61250 0.05100
C 	C 	0.14595 0.49160 0.60465 0.02100
C 	C 	0.16444 0.54347 0.57823 -0.05000
H 	H 	0.20000 0.57810 0.58380 0.04900
C 	C 	0.13080 0.54411 0.54389 -0.06300
H 	H 	0.14420 0.57880 0.52590 0.05400
C 	C 	0.17761 0.49349 0.64300 -0.00700
C 	C 	0.19000 0.42962 0.66211 -0.01200
H 	H 	0.17900 0.38520 0.65060 0.05100
C 	C 	0.21824 0.43052 0.69770 -0.08600
C 	C 	0.23517 0.49518 0.71463 0.03300
H 	H 	0.25530 0.49560 0.73890 0.05100
C 	C 	0.22277 0.55853 0.69628 -0.08700
C 	C 	0.19409 0.55714 0.66001 -0.01300
H 	H 	0.18600 0.60080 0.64720 0.05100
C 	C 	0.23619 0.62835 0.71482 0.35600
C 	C 	0.22831 0.36152 0.71820 0.36000
O 	O 	0.71324 0.18367 0.19907 -0.40700
O 	O 	0.76951 0.12607 0.24553 -0.40300
O 	O 	0.70370 0.80635 0.20290 -0.41000
O 	O 	0.76026 0.86431 0.24896 -0.40700
C 	C 	0.57767 0.99479 0.03538 0.03200
C 	C 	0.56287 0.94134 0.06093 -0.06000
H 	H 	0.52900 0.90530 0.05490 0.05400
C 	C 	0.59677 0.93967 0.09529 -0.05000
H 	H 	0.58600 0.90250 0.11250 0.05000
C 	C 	0.64595 0.99160 0.10465 0.02000
C 	C 	0.66444 0.04347 0.07823 -0.05000
H 	H 	0.70000 0.07810 0.08380 0.04900
C 	C 	0.63080 0.04411 0.04389 -0.06200
H 	H 	0.64420 0.07880 0.02590 0.05400
C 	C 	0.67761 0.99349 0.14300 -0.00700
C 	C 	0.69000 0.92962 0.16211 -0.01200
H 	H 	0.67900 0.88520 0.15060 0.05100
C 	C 	0.71824 0.93052 0.19770 -0.08600
C 	C 	0.73517 0.99518 0.21463 0.03100
H 	H 	0.75530 0.99560 0.23890 0.05100
C 	C 	0.72277 0.05853 0.19628 -0.08600
C 	C 	0.69409 0.05714 0.16001 -0.01200
H 	H 	0.68600 0.10080 0.14720 0.05100
C 	C 	0.73619 0.12835 0.21482 0.35600
C 	C 	0.72831 0.86152 0.21820 0.36000
O 	O 	0.78676 0.31633 0.69907 -0.40700
O 	O 	0.73049 0.37393 0.74553 -0.40400
O 	O 	0.79630 0.69365 0.70290 -0.41000
O 	O 	0.73974 0.63569 0.74896 -0.40600
C 	C 	0.92233 0.50521 0.53538 0.03400
C 	C 	0.93713 0.55866 0.56093 -0.06100
H 	H 	0.97100 0.59470 0.55490 0.05400
C 	C 	0.90323 0.56033 0.59529 -0.04900
H 	H 	0.91400 0.59750 0.61250 0.05000
C 	C 	0.85405 0.50840 0.60465 0.02000
C 	C 	0.83556 0.45653 0.57823 -0.05000
H 	H 	0.80000 0.42190 0.58380 0.04900
C 	C 	0.86920 0.45589 0.54389 -0.06300
H 	H 	0.85580 0.42120 0.52590 0.05400
C 	C 	0.82239 0.50651 0.64300 -0.00700
C 	C 	0.81000 0.57038 0.66211 -0.01200
H 	H 	0.82100 0.61480 0.65060 0.05100
C 	C 	0.78176 0.56948 0.69770 -0.08600
C 	C 	0.76483 0.50482 0.71463 0.03200
H 	H 	0.74470 0.50440 0.73890 0.05100
C 	C 	0.77723 0.44147 0.69628 -0.08700
C 	C 	0.80591 0.44286 0.66001 -0.01300
H 	H 	0.81400 0.39920 0.64720 0.05100
C 	C 	0.76381 0.37165 0.71482 0.35600
C 	C 	0.77169 0.63848 0.71820 0.36000
O 	O 	0.28676 0.81633 0.19907 -0.40700
O 	O 	0.23049 0.87393 0.24553 -0.40400
O 	O 	0.29630 0.19365 0.20290 -0.41000
O 	O 	0.23974 0.13569 0.24896 -0.40600
C 	C 	0.42233 0.00521 0.03538 0.03400
C 	C 	0.43713 0.05866 0.06093 -0.06000
H 	H 	0.47100 0.09470 0.05490 0.05500
C 	C 	0.40323 0.06033 0.09529 -0.04900
H 	H 	0.41400 0.09750 0.11250 0.05000
C 	C 	0.35405 0.00840 0.10465 0.02100
C 	C 	0.33556 0.95653 0.07823 -0.05000
H 	H 	0.30000 0.92190 0.08380 0.04900
C 	C 	0.36920 0.95589 0.04389 -0.06400
H 	H 	0.35580 0.92120 0.02590 0.05400
C 	C 	0.32239 0.00651 0.14300 -0.00600
C 	C 	0.31000 0.07038 0.16211 -0.01200
H 	H 	0.32100 0.11480 0.15060 0.05100
C 	C 	0.28176 0.06948 0.19770 -0.08600
C 	C 	0.26483 0.00482 0.21463 0.03300
H 	H 	0.24470 0.00440 0.23890 0.05100
C 	C 	0.27723 0.94147 0.19628 -0.08800
C 	C 	0.30591 0.94286 0.16001 -0.01400
H 	H 	0.31400 0.89920 0.14720 0.05100
C 	C 	0.26381 0.87165 0.21482 0.35700
C 	C 	0.27169 0.13848 0.21820 0.36000
Cu	Cu	0.22091 0.77909 0.72097 0.90600
Cu	Cu	0.72091 0.27909 0.22097 0.90600
Cu	Cu	0.77909 0.22091 0.72097 0.90600
Cu	Cu	0.27909 0.72091 0.22097 0.90600
Cu	Cu	0.77909 0.77909 0.27903 0.90600
Cu	Cu	0.27909 0.27909 0.77903 0.90600
Cu	Cu	0.22091 0.22091 0.27903 0.90600
Cu	Cu	0.72091 0.72091 0.77903 0.90600
Cu	Cu	0.78887 0.78887 0.72457 0.90700
Cu	Cu	0.28887 0.28887 0.22457 0.90700
Cu	Cu	0.21113 0.21113 0.72457 0.90700
Cu	Cu	0.71113 0.71113 0.22457 0.90700
Cu	Cu	0.78887 0.21113 0.27543 0.90700
Cu	Cu	0.28887 0.71113 0.77543 0.90700
Cu	Cu	0.21113 0.78887 0.27543 0.90700
Cu	Cu	0.71113 0.28887 0.77543 0.90700
C 	C 	0.50000 0.96410 0.50000 -0.03100
C 	C 	0.00000 0.46410 -0.00000 -0.02900
C 	C 	0.50000 0.03590 0.50000 -0.02900
C 	C 	0.00000 0.53590 -0.00000 -0.02900
C 	C 	0.96410 0.50000 0.50000 -0.03100
C 	C 	0.46410 0.00000 -0.00000 -0.02900
C 	C 	0.03590 0.50000 0.50000 -0.02900
C 	C 	0.53590 0.00000 -0.00000 -0.02900
