data_crystal

_cell_length_a 25.51470
_cell_length_b 13.41370
_cell_length_c 14.63290
_cell_angle_alpha 90.00000
_cell_angle_beta  101.96600
_cell_angle_gamma 90.00000

_symmetry_space_group_name_	'P 1'
_symmetry_space_group_name_H-M	'P 1'

loop_
_symmetry_equiv_pos_as_xyz
  x,y,z

loop_
_atom_site_label
_atom_site_type_symbol
_atom_site_fract_x
_atom_site_fract_y
_atom_site_fract_z
_atom_site_charge
Ce	Ce	0.32595 0.30895 0.54866 2.10300
O 	O 	0.22380 0.34680 0.44790 -0.62100
O 	O 	0.28910 0.45070 0.44290 -0.49800
O 	O 	0.26280 0.64440 0.14510 -0.56000
O 	O 	0.18710 0.72930 0.10560 -0.50100
O 	O 	0.40990 0.34470 0.47670 -0.31700
O 	O 	0.41170 0.20080 0.53950 -0.31900
O 	O 	0.47180 0.23350 0.46380 -0.12900
N 	N 	0.43140 0.25940 0.49410 0.06700
C 	C 	0.24200 0.42560 0.41790 0.42200
C 	C 	0.20440 0.48660 0.34770 -0.16400
C 	C 	0.22630 0.54830 0.28810 0.08700
H 	H 	0.26320 0.55320 0.29500 0.01100
C 	C 	0.19270 0.60260 0.21830 -0.15800
C 	C 	0.13760 0.59670 0.21070 0.02200
H 	H 	0.11540 0.63410 0.16500 0.05200
C 	C 	0.11480 0.53730 0.26870 -0.04000
C 	C 	0.14950 0.48250 0.33980 0.01700
H 	H 	0.13510 0.44370 0.38120 0.00900
C 	C 	0.21570 0.66350 0.15150 0.45900
C 	C 	0.05590 0.53440 0.26060 0.03500
C 	C 	0.03300 0.53230 0.33710 -0.05300
H 	H 	0.05460 0.53080 0.39670 0.06200
C 	C 	0.97760 0.53250 0.32610 -0.06100
H 	H 	0.96270 0.53130 0.37890 0.06800
Ce	Ce	0.82595 0.80895 0.54866 2.10300
O 	O 	0.72380 0.84680 0.44790 -0.62000
O 	O 	0.78910 0.95070 0.44290 -0.49700
O 	O 	0.76280 0.14440 0.14510 -0.56000
O 	O 	0.68710 0.22930 0.10560 -0.50200
O 	O 	0.90990 0.84470 0.47670 -0.31700
O 	O 	0.91170 0.70080 0.53950 -0.31800
O 	O 	0.97180 0.73350 0.46380 -0.12800
N 	N 	0.93140 0.75940 0.49410 0.06800
C 	C 	0.74200 0.92560 0.41790 0.42300
C 	C 	0.70440 0.98660 0.34770 -0.16400
C 	C 	0.72630 0.04830 0.28810 0.08600
H 	H 	0.76320 0.05320 0.29500 0.01100
C 	C 	0.69270 0.10260 0.21830 -0.15900
C 	C 	0.63760 0.09670 0.21070 0.02300
H 	H 	0.61540 0.13410 0.16500 0.05100
C 	C 	0.61480 0.03730 0.26870 -0.04300
C 	C 	0.64950 0.98250 0.33980 0.02000
H 	H 	0.63510 0.94370 0.38120 0.00800
C 	C 	0.71570 0.16350 0.15150 0.45900
C 	C 	0.55590 0.03440 0.26060 0.03700
C 	C 	0.53300 0.03230 0.33710 -0.05700
H 	H 	0.55460 0.03080 0.39670 0.06300
C 	C 	0.47760 0.03250 0.32610 -0.05800
H 	H 	0.46270 0.03130 0.37890 0.06700
Ce	Ce	0.67405 0.30895 0.95134 2.10400
O 	O 	0.77620 0.34680 0.05210 -0.62100
O 	O 	0.71090 0.45070 0.05710 -0.49700
O 	O 	0.73720 0.64440 0.35490 -0.55900
O 	O 	0.81290 0.72930 0.39440 -0.50100
O 	O 	0.59010 0.34470 0.02330 -0.31600
O 	O 	0.58830 0.20080 0.96050 -0.31600
O 	O 	0.52820 0.23350 0.03620 -0.12800
N 	N 	0.56860 0.25940 0.00590 0.06700
C 	C 	0.75800 0.42560 0.08210 0.42400
C 	C 	0.79560 0.48660 0.15230 -0.16500
C 	C 	0.77370 0.54830 0.21190 0.08800
H 	H 	0.73680 0.55320 0.20500 0.01100
C 	C 	0.80730 0.60260 0.28170 -0.15900
C 	C 	0.86240 0.59670 0.28930 0.02400
H 	H 	0.88460 0.63410 0.33500 0.05100
C 	C 	0.88520 0.53730 0.23130 -0.04200
C 	C 	0.85050 0.48250 0.16020 0.01800
H 	H 	0.86490 0.44370 0.11880 0.00800
C 	C 	0.78430 0.66350 0.34850 0.45900
C 	C 	0.94410 0.53440 0.23940 0.03900
C 	C 	0.96700 0.53230 0.16290 -0.06000
H 	H 	0.94540 0.53080 0.10330 0.06400
C 	C 	0.02240 0.53250 0.17390 -0.05400
H 	H 	0.03730 0.53130 0.12110 0.06600
Ce	Ce	0.17405 0.80895 0.95134 2.10200
O 	O 	0.27620 0.84680 0.05210 -0.61900
O 	O 	0.21090 0.95070 0.05710 -0.49500
O 	O 	0.23720 0.14440 0.35490 -0.55900
O 	O 	0.31290 0.22930 0.39440 -0.50100
O 	O 	0.09010 0.84470 0.02330 -0.31500
O 	O 	0.08830 0.70080 0.96050 -0.32100
O 	O 	0.02820 0.73350 0.03620 -0.12700
N 	N 	0.06860 0.75940 0.00590 0.06900
C 	C 	0.25800 0.92560 0.08210 0.42300
C 	C 	0.29560 0.98660 0.15230 -0.16200
C 	C 	0.27370 0.04830 0.21190 0.08400
H 	H 	0.23680 0.05320 0.20500 0.01100
C 	C 	0.30730 0.10260 0.28170 -0.15800
C 	C 	0.36240 0.09670 0.28930 0.02300
H 	H 	0.38460 0.13410 0.33500 0.05100
C 	C 	0.38520 0.03730 0.23130 -0.04300
C 	C 	0.35050 0.98250 0.16020 0.02000
H 	H 	0.36490 0.94370 0.11880 0.00900
C 	C 	0.28430 0.16350 0.34850 0.45900
C 	C 	0.44410 0.03440 0.23940 0.03700
C 	C 	0.46700 0.03230 0.16290 -0.05700
H 	H 	0.44540 0.03080 0.10330 0.06200
C 	C 	0.52240 0.03250 0.17390 -0.05800
H 	H 	0.53730 0.03130 0.12110 0.06600
Ce	Ce	0.67405 0.69105 0.45134 2.10400
O 	O 	0.77620 0.65320 0.55210 -0.62000
O 	O 	0.71090 0.54930 0.55710 -0.49700
O 	O 	0.73720 0.35560 0.85490 -0.55900
O 	O 	0.81290 0.27070 0.89440 -0.50000
O 	O 	0.59010 0.65530 0.52330 -0.31600
O 	O 	0.58830 0.79920 0.46050 -0.31800
O 	O 	0.52820 0.76650 0.53620 -0.12800
N 	N 	0.56860 0.74060 0.50590 0.06800
C 	C 	0.75800 0.57440 0.58210 0.42300
C 	C 	0.79560 0.51340 0.65230 -0.16400
C 	C 	0.77370 0.45170 0.71190 0.08700
H 	H 	0.73680 0.44680 0.70500 0.01100
C 	C 	0.80730 0.39740 0.78170 -0.15800
C 	C 	0.86240 0.40330 0.78930 0.02200
H 	H 	0.88460 0.36590 0.83500 0.05200
C 	C 	0.88520 0.46270 0.73130 -0.04000
C 	C 	0.85050 0.51750 0.66020 0.01700
H 	H 	0.86490 0.55630 0.61880 0.00900
C 	C 	0.78430 0.33650 0.84850 0.45900
C 	C 	0.94410 0.46560 0.73940 0.03500
C 	C 	0.96700 0.46770 0.66290 -0.05300
H 	H 	0.94540 0.46920 0.60330 0.06200
C 	C 	0.02240 0.46750 0.67390 -0.06100
H 	H 	0.03730 0.46870 0.62110 0.06800
Ce	Ce	0.17405 0.19105 0.45134 2.10300
O 	O 	0.27620 0.15320 0.55210 -0.62000
O 	O 	0.21090 0.04930 0.55710 -0.49700
O 	O 	0.23720 0.85560 0.85490 -0.56000
O 	O 	0.31290 0.77070 0.89440 -0.50200
O 	O 	0.09010 0.15530 0.52330 -0.31700
O 	O 	0.08830 0.29920 0.46050 -0.31800
O 	O 	0.02820 0.26650 0.53620 -0.12800
N 	N 	0.06860 0.24060 0.50590 0.06800
C 	C 	0.25800 0.07440 0.58210 0.42300
C 	C 	0.29560 0.01340 0.65230 -0.16400
C 	C 	0.27370 0.95170 0.71190 0.08600
H 	H 	0.23680 0.94680 0.70500 0.01100
C 	C 	0.30730 0.89740 0.78170 -0.15900
C 	C 	0.36240 0.90330 0.78930 0.02300
H 	H 	0.38460 0.86590 0.83500 0.05100
C 	C 	0.38520 0.96270 0.73130 -0.04300
C 	C 	0.35050 0.01750 0.66020 0.02000
H 	H 	0.36490 0.05630 0.61880 0.00800
C 	C 	0.28430 0.83650 0.84850 0.45900
C 	C 	0.44410 0.96560 0.73940 0.03700
C 	C 	0.46700 0.96770 0.66290 -0.05700
H 	H 	0.44540 0.96920 0.60330 0.06300
C 	C 	0.52240 0.96750 0.67390 -0.05800
H 	H 	0.53730 0.96870 0.62110 0.06700
Ce	Ce	0.32595 0.69105 0.04866 2.10400
O 	O 	0.22380 0.65320 0.94790 -0.62100
O 	O 	0.28910 0.54930 0.94290 -0.49700
O 	O 	0.26280 0.35560 0.64510 -0.55900
O 	O 	0.18710 0.27070 0.60560 -0.50100
O 	O 	0.40990 0.65530 0.97670 -0.31600
O 	O 	0.41170 0.79920 0.03950 -0.31600
O 	O 	0.47180 0.76650 0.96380 -0.12800
N 	N 	0.43140 0.74060 0.99410 0.06700
C 	C 	0.24200 0.57440 0.91790 0.42400
C 	C 	0.20440 0.51340 0.84770 -0.16500
C 	C 	0.22630 0.45170 0.78810 0.08800
H 	H 	0.26320 0.44680 0.79500 0.01100
C 	C 	0.19270 0.39740 0.71830 -0.15900
C 	C 	0.13760 0.40330 0.71070 0.02400
H 	H 	0.11540 0.36590 0.66500 0.05100
C 	C 	0.11480 0.46270 0.76870 -0.04200
C 	C 	0.14950 0.51750 0.83980 0.01800
H 	H 	0.13510 0.55630 0.88120 0.00800
C 	C 	0.21570 0.33650 0.65150 0.45900
C 	C 	0.05590 0.46560 0.76060 0.03900
C 	C 	0.03300 0.46770 0.83710 -0.06000
H 	H 	0.05460 0.46920 0.89670 0.06400
C 	C 	0.97760 0.46750 0.82610 -0.05400
H 	H 	0.96270 0.46870 0.87890 0.06600
Ce	Ce	0.82595 0.19105 0.04866 2.10200
O 	O 	0.72380 0.15320 0.94790 -0.61900
O 	O 	0.78910 0.04930 0.94290 -0.49500
O 	O 	0.76280 0.85560 0.64510 -0.55900
O 	O 	0.68710 0.77070 0.60560 -0.50100
O 	O 	0.90990 0.15530 0.97670 -0.31500
O 	O 	0.91170 0.29920 0.03950 -0.32100
O 	O 	0.97180 0.26650 0.96380 -0.12700
N 	N 	0.93140 0.24060 0.99410 0.06900
C 	C 	0.74200 0.07440 0.91790 0.42300
C 	C 	0.70440 0.01340 0.84770 -0.16200
C 	C 	0.72630 0.95170 0.78810 0.08400
H 	H 	0.76320 0.94680 0.79500 0.01100
C 	C 	0.69270 0.89740 0.71830 -0.15800
C 	C 	0.63760 0.90330 0.71070 0.02300
H 	H 	0.61540 0.86590 0.66500 0.05100
C 	C 	0.61480 0.96270 0.76870 -0.04300
C 	C 	0.64950 0.01750 0.83980 0.02000
H 	H 	0.63510 0.05630 0.88120 0.00900
C 	C 	0.71570 0.83650 0.65150 0.45900
C 	C 	0.55590 0.96560 0.76060 0.03700
C 	C 	0.53300 0.96770 0.83710 -0.05700
H 	H 	0.55460 0.96920 0.89670 0.06200
C 	C 	0.47760 0.96750 0.82610 -0.05800
H 	H 	0.46270 0.96870 0.87890 0.06600
