data_crystal

_cell_length_a 9.43780
_cell_length_b 10.19200
_cell_length_c 11.23400
_cell_angle_alpha 64.11000
_cell_angle_beta  73.10000
_cell_angle_gamma 83.18000

_symmetry_space_group_name_	'P 1'
_symmetry_space_group_name_H-M	'P 1'

loop_
_symmetry_equiv_pos_as_xyz
  x,y,z

loop_
_atom_site_label
_atom_site_type_symbol
_atom_site_fract_x
_atom_site_fract_y
_atom_site_fract_z
_atom_site_charge
Cd	Cd	0.05325 0.16732 0.29976 1.20800
Cd	Cd	0.04773 0.82151 0.60892 1.19800
Cd	Cd	0.07674 0.50318 0.98253 1.18100
O 	O 	0.27600 0.91110 0.48530 -0.42900
O 	O 	0.27990 0.07320 0.26740 -0.42400
O 	O 	0.56690 0.93010 0.43160 -0.15500
O 	O 	0.75780 0.79670 0.58850 -0.23200
O 	O 	0.94220 0.93690 0.42290 -0.39500
C 	C 	0.33360 0.98780 0.36690 0.37700
C 	C 	0.50040 0.99490 0.32750 0.07000
C 	C 	0.60770 0.06510 0.20430 -0.04000
H 	H 	0.59080 0.12110 0.11870 0.09400
C 	C 	0.74580 0.03570 0.23380 -0.08900
H 	H 	0.83800 0.06550 0.17110 0.12200
C 	C 	0.71780 0.95230 0.37670 0.08500
C 	C 	0.81430 0.89720 0.46650 0.30000
C 	C 	0.29540 0.44430 0.13150 0.28100
C 	C 	0.39670 0.39400 0.22310 0.05900
C 	C 	0.37580 0.32970 0.35780 -0.07000
H 	H 	0.28490 0.30660 0.42350 0.06900
C 	C 	0.51350 0.30280 0.38340 -0.01800
H 	H 	0.53200 0.25850 0.46930 0.05500
C 	C 	0.61450 0.35190 0.26280 0.02900
C 	C 	0.77700 0.35640 0.22230 0.33500
O 	O 	0.15690 0.40280 0.19290 -0.44400
O 	O 	0.34230 0.52320 0.00900 -0.21800
O 	O 	0.54420 0.41930 0.15890 -0.12700
O 	O 	0.84250 0.28670 0.31430 -0.35100
O 	O 	0.84230 0.42720 0.09810 -0.29600
C 	C 	0.97760 0.09920 0.63620 0.41800
C 	C 	0.93890 0.19120 0.71500 0.04100
C 	C 	0.86080 0.15490 0.84710 -0.03800
H 	H 	0.81520 0.06580 0.90990 0.05700
C 	C 	0.86290 0.28080 0.87000 -0.00500
H 	H 	0.81610 0.29290 0.94960 0.02700
C 	C 	0.94750 0.37940 0.75120 0.00000
C 	C 	0.99890 0.53490 0.70480 0.51500
O 	O 	0.94070 0.96750 0.70390 -0.35100
O 	O 	0.04390 0.16910 0.50640 -0.51900
O 	O 	0.99710 0.32600 0.65630 -0.07800
O 	O 	0.96300 0.58700 0.79400 -0.43900
O 	O 	0.06890 0.60330 0.58820 -0.51900
C 	C 	0.15100 0.79290 0.87610 0.24400
C 	C 	0.19740 0.93600 0.85070 0.08000
C 	C 	0.28560 0.03760 0.73420 -0.13500
H 	H 	0.33360 0.02730 0.65380 0.08500
C 	C 	0.29010 0.16060 0.75890 -0.00200
H 	H 	0.34140 0.24700 0.69680 0.04500
C 	C 	0.20570 0.13200 0.89040 -0.02200
C 	C 	0.15820 0.21100 0.97580 0.23600
O 	O 	0.06580 0.72140 0.99540 -0.42000
O 	O 	0.20440 0.74830 0.78620 -0.39700
O 	O 	0.14830 0.98860 0.94840 -0.18600
O 	O 	0.20170 0.34550 0.90710 -0.43400
O 	O 	0.07790 0.16190 0.08790 -0.37800
