data_crystal

_cell_length_a 9.40780
_cell_length_b 11.65380
_cell_length_c 32.66210
_cell_angle_alpha 90.00000
_cell_angle_beta  90.00000
_cell_angle_gamma 90.00000

_symmetry_space_group_name_	'P 1'
_symmetry_space_group_name_H-M	'P 1'

loop_
_symmetry_equiv_pos_as_xyz
  x,y,z

loop_
_atom_site_label
_atom_site_type_symbol
_atom_site_fract_x
_atom_site_fract_y
_atom_site_fract_z
_atom_site_charge
Mn	Mn	0.19316 0.09382 0.63759 1.31000
Mn	Mn	0.24042 0.71462 0.59962 1.31200
Mn	Mn	0.21617 0.40878 0.62589 1.31100
O 	O 	0.32190 0.24650 0.60988 -0.49600
O 	O 	0.44170 0.10080 0.63596 -0.33000
O 	O 	0.69570 0.20610 0.61740 -0.13900
O 	O 	0.03260 0.32940 0.60074 -0.44000
O 	O 	0.98130 0.15590 0.62660 -0.40200
O 	O 	0.10560 0.57580 0.62643 -0.52100
O 	O 	0.98210 0.71880 0.60020 -0.31700
O 	O 	0.73140 0.61330 0.62468 -0.13500
O 	O 	0.39680 0.49300 0.65011 -0.42600
O 	O 	0.44730 0.64860 0.61215 -0.39600
O 	O 	0.69840 0.86920 0.46008 -0.35200
O 	O 	0.76270 0.04540 0.43962 -0.39000
O 	O 	0.50620 0.95320 0.51221 -0.13200
O 	O 	0.21730 0.00630 0.58000 -0.42200
O 	O 	0.32520 0.84410 0.56030 -0.37100
O 	O 	0.85400 0.87760 0.81171 -0.39100
O 	O 	0.77930 0.69500 0.80890 -0.41700
O 	O 	0.00080 0.83930 0.73797 -0.14100
O 	O 	0.23930 0.80990 0.65389 -0.44700
O 	O 	0.12210 0.96320 0.67693 -0.40600
C 	C 	0.43800 0.19680 0.61850 0.30600
C 	C 	0.56920 0.25320 0.60470 0.02600
C 	C 	0.59080 0.34270 0.57950 -0.05000
H 	H 	0.52040 0.38860 0.56660 0.06700
C 	C 	0.73920 0.35460 0.57610 -0.01900
H 	H 	0.78790 0.40970 0.55990 0.06400
C 	C 	0.80030 0.27350 0.59990 0.01200
C 	C 	0.94920 0.25020 0.61020 0.35400
C 	C 	0.98950 0.62600 0.61970 0.31800
C 	C 	0.86170 0.57460 0.63840 0.02400
C 	C 	0.84320 0.49120 0.66710 -0.04400
H 	H 	0.91610 0.45090 0.68120 0.06800
C 	C 	0.69570 0.47590 0.67200 -0.02000
H 	H 	0.65020 0.42410 0.69020 0.06600
C 	C 	0.63060 0.54980 0.64560 0.01900
C 	C 	0.48090 0.56670 0.63480 0.34700
C 	C 	0.69030 0.97570 0.46080 0.31700
C 	C 	0.58410 0.02950 0.48870 0.03500
C 	C 	0.53620 0.13560 0.49510 -0.03700
H 	H 	0.57190 0.20370 0.48280 0.06300
C 	C 	0.42040 0.12890 0.52410 -0.03200
H 	H 	0.36500 0.19060 0.53450 0.06000
C 	C 	0.40770 0.01710 0.53340 0.01900
C 	C 	0.31150 0.95250 0.56040 0.35400
C 	C 	0.85280 0.77680 0.79650 0.32800
C 	C 	0.94490 0.75050 0.76140 0.03000
C 	C 	0.99330 0.65090 0.74840 -0.04800
H 	H 	0.97030 0.57780 0.75950 0.08500
C 	C 	0.08560 0.67200 0.71510 -0.00900
H 	H 	0.13670 0.61600 0.69990 0.05400
C 	C 	0.08750 0.78620 0.70900 -0.00100
C 	C 	0.15420 0.85790 0.67730 0.37500
Mn	Mn	0.30684 0.90618 0.13759 1.31200
Mn	Mn	0.25958 0.28538 0.09962 1.31300
Mn	Mn	0.28383 0.59122 0.12589 1.31300
O 	O 	0.17810 0.75350 0.10988 -0.49500
O 	O 	0.05830 0.89920 0.13596 -0.32900
O 	O 	0.80430 0.79390 0.11740 -0.13800
O 	O 	0.46740 0.67060 0.10074 -0.43900
O 	O 	0.51870 0.84410 0.12660 -0.40200
O 	O 	0.39440 0.42420 0.12643 -0.52100
O 	O 	0.51790 0.28120 0.10020 -0.31500
O 	O 	0.76860 0.38670 0.12468 -0.13500
O 	O 	0.10320 0.50700 0.15011 -0.42600
O 	O 	0.05270 0.35140 0.11215 -0.39600
O 	O 	0.80160 0.13080 0.96008 -0.35300
O 	O 	0.73730 0.95460 0.93962 -0.39200
O 	O 	0.99380 0.04680 0.01221 -0.13000
O 	O 	0.28270 0.99370 0.08000 -0.42000
O 	O 	0.17480 0.15590 0.06030 -0.37100
O 	O 	0.64600 0.12240 0.31171 -0.39000
O 	O 	0.72070 0.30500 0.30890 -0.41700
O 	O 	0.49920 0.16070 0.23797 -0.14200
O 	O 	0.26070 0.19010 0.15389 -0.44700
O 	O 	0.37790 0.03680 0.17693 -0.40700
C 	C 	0.06200 0.80320 0.11850 0.30700
C 	C 	0.93080 0.74680 0.10470 0.02500
C 	C 	0.90920 0.65730 0.07950 -0.04900
H 	H 	0.97960 0.61140 0.06660 0.06700
C 	C 	0.76080 0.64540 0.07610 -0.02000
H 	H 	0.71210 0.59030 0.05990 0.06400
C 	C 	0.69970 0.72650 0.09990 0.01300
C 	C 	0.55080 0.74980 0.11020 0.35400
C 	C 	0.51050 0.37400 0.11970 0.31900
C 	C 	0.63830 0.42540 0.13840 0.02400
C 	C 	0.65680 0.50880 0.16710 -0.04400
H 	H 	0.58390 0.54910 0.18120 0.06800
C 	C 	0.80430 0.52410 0.17200 -0.02000
H 	H 	0.84980 0.57590 0.19020 0.06600
C 	C 	0.86940 0.45020 0.14560 0.01900
C 	C 	0.01910 0.43330 0.13480 0.34700
C 	C 	0.80970 0.02430 0.96080 0.32100
C 	C 	0.91590 0.97050 0.98870 0.03100
C 	C 	0.96380 0.86440 0.99510 -0.03600
H 	H 	0.92810 0.79630 0.98280 0.06300
C 	C 	0.07960 0.87110 0.02410 -0.03300
H 	H 	0.13500 0.80940 0.03450 0.06100
C 	C 	0.09230 0.98290 0.03340 0.02100
C 	C 	0.18850 0.04750 0.06040 0.35000
C 	C 	0.64720 0.22320 0.29650 0.32800
C 	C 	0.55510 0.24950 0.26140 0.03100
C 	C 	0.50670 0.34910 0.24840 -0.04700
H 	H 	0.52970 0.42220 0.25950 0.08400
C 	C 	0.41440 0.32800 0.21510 -0.01000
H 	H 	0.36330 0.38400 0.19990 0.05400
C 	C 	0.41250 0.21380 0.20900 -0.00100
C 	C 	0.34580 0.14210 0.17730 0.37500
Mn	Mn	0.80684 0.59382 0.86241 1.31200
Mn	Mn	0.75958 0.21462 0.90038 1.31300
Mn	Mn	0.78383 0.90878 0.87411 1.31300
O 	O 	0.67810 0.74650 0.89012 -0.49500
O 	O 	0.55830 0.60080 0.86404 -0.32900
O 	O 	0.30430 0.70610 0.88260 -0.13800
O 	O 	0.96740 0.82940 0.89926 -0.44000
O 	O 	0.01870 0.65590 0.87340 -0.40100
O 	O 	0.89440 0.07580 0.87357 -0.52000
O 	O 	0.01790 0.21880 0.89980 -0.31600
O 	O 	0.26860 0.11330 0.87532 -0.13500
O 	O 	0.60320 0.99300 0.84989 -0.42500
O 	O 	0.55270 0.14860 0.88785 -0.39600
O 	O 	0.30160 0.36920 0.03992 -0.35300
O 	O 	0.23730 0.54540 0.06038 -0.39200
O 	O 	0.49380 0.45320 0.98779 -0.13100
O 	O 	0.78270 0.50630 0.92000 -0.42000
O 	O 	0.67480 0.34410 0.93970 -0.37100
O 	O 	0.14600 0.37760 0.68829 -0.39100
O 	O 	0.22070 0.19500 0.69110 -0.41800
O 	O 	0.99920 0.33930 0.76203 -0.14200
O 	O 	0.76070 0.30990 0.84611 -0.44700
O 	O 	0.87790 0.46320 0.82307 -0.40700
C 	C 	0.56200 0.69680 0.88150 0.30600
C 	C 	0.43080 0.75320 0.89530 0.02600
C 	C 	0.40920 0.84270 0.92050 -0.05000
H 	H 	0.47960 0.88860 0.93340 0.06700
C 	C 	0.26080 0.85460 0.92390 -0.01900
H 	H 	0.21210 0.90970 0.94010 0.06400
C 	C 	0.19970 0.77350 0.90010 0.01200
C 	C 	0.05080 0.75020 0.88980 0.35500
C 	C 	0.01050 0.12600 0.88030 0.31800
C 	C 	0.13830 0.07460 0.86160 0.02000
C 	C 	0.15680 0.99120 0.83290 -0.04000
H 	H 	0.08390 0.95090 0.81880 0.06800
C 	C 	0.30430 0.97590 0.82800 -0.01900
H 	H 	0.34980 0.92410 0.80980 0.06600
C 	C 	0.36940 0.04980 0.85440 0.01700
C 	C 	0.51910 0.06670 0.86520 0.34700
C 	C 	0.30970 0.47570 0.03920 0.32000
C 	C 	0.41590 0.52950 0.01130 0.03300
C 	C 	0.46380 0.63560 0.00490 -0.03500
H 	H 	0.42810 0.70370 0.01720 0.06200
C 	C 	0.57960 0.62890 0.97590 -0.03300
H 	H 	0.63500 0.69060 0.96550 0.06100
C 	C 	0.59230 0.51710 0.96660 0.02000
C 	C 	0.68850 0.45250 0.93960 0.35200
C 	C 	0.14720 0.27680 0.70350 0.32800
C 	C 	0.05510 0.25050 0.73860 0.03100
C 	C 	0.00670 0.15090 0.75160 -0.04900
H 	H 	0.02970 0.07780 0.74050 0.08400
C 	C 	0.91440 0.17200 0.78490 -0.00800
H 	H 	0.86330 0.11600 0.80010 0.05300
C 	C 	0.91250 0.28620 0.79100 -0.00100
C 	C 	0.84580 0.35790 0.82270 0.37500
Mn	Mn	0.69316 0.40618 0.36241 1.31200
Mn	Mn	0.74042 0.78538 0.40038 1.31300
Mn	Mn	0.71617 0.09122 0.37411 1.31300
O 	O 	0.82190 0.25350 0.39012 -0.49500
O 	O 	0.94170 0.39920 0.36404 -0.32900
O 	O 	0.19570 0.29390 0.38260 -0.13800
O 	O 	0.53260 0.17060 0.39926 -0.43800
O 	O 	0.48130 0.34410 0.37340 -0.40100
O 	O 	0.60560 0.92420 0.37357 -0.52200
O 	O 	0.48210 0.78120 0.39980 -0.31600
O 	O 	0.23140 0.88670 0.37532 -0.13500
O 	O 	0.89680 0.00700 0.34989 -0.42300
O 	O 	0.94730 0.85140 0.38785 -0.39600
O 	O 	0.19840 0.63080 0.53992 -0.35300
O 	O 	0.26270 0.45460 0.56038 -0.39200
O 	O 	0.00620 0.54680 0.48779 -0.13100
O 	O 	0.71730 0.49370 0.42000 -0.42000
O 	O 	0.82520 0.65590 0.43970 -0.37100
O 	O 	0.35400 0.62240 0.18829 -0.39100
O 	O 	0.27930 0.80500 0.19110 -0.41700
O 	O 	0.50080 0.66070 0.26203 -0.14300
O 	O 	0.73930 0.69010 0.34611 -0.44700
O 	O 	0.62210 0.53680 0.32307 -0.40700
C 	C 	0.93800 0.30320 0.38150 0.30700
C 	C 	0.06920 0.24680 0.39530 0.02500
C 	C 	0.09080 0.15730 0.42050 -0.05000
H 	H 	0.02040 0.11140 0.43340 0.06700
C 	C 	0.23920 0.14540 0.42390 -0.02000
H 	H 	0.28790 0.09030 0.44010 0.06400
C 	C 	0.30030 0.22650 0.40010 0.01300
C 	C 	0.44920 0.24980 0.38980 0.35400
C 	C 	0.48950 0.87400 0.38030 0.31900
C 	C 	0.36170 0.92540 0.36160 0.02200
C 	C 	0.34320 0.00880 0.33290 -0.04100
H 	H 	0.41610 0.04910 0.31880 0.06700
C 	C 	0.19570 0.02410 0.32800 -0.02300
H 	H 	0.15020 0.07590 0.30980 0.06700
C 	C 	0.13060 0.95020 0.35440 0.02200
C 	C 	0.98090 0.93330 0.36520 0.34200
C 	C 	0.19030 0.52430 0.53920 0.32000
C 	C 	0.08410 0.47050 0.51130 0.03300
C 	C 	0.03620 0.36440 0.50490 -0.03600
H 	H 	0.07190 0.29630 0.51720 0.06200
C 	C 	0.92040 0.37110 0.47590 -0.03300
H 	H 	0.86500 0.30940 0.46550 0.06100
C 	C 	0.90770 0.48290 0.46660 0.01900
C 	C 	0.81150 0.54750 0.43960 0.35200
C 	C 	0.35280 0.72320 0.20350 0.32800
C 	C 	0.44490 0.74950 0.23860 0.03100
C 	C 	0.49330 0.84910 0.25160 -0.04700
H 	H 	0.47030 0.92220 0.24050 0.08400
C 	C 	0.58560 0.82800 0.28490 -0.01000
H 	H 	0.63670 0.88400 0.30010 0.05400
C 	C 	0.58750 0.71380 0.29100 -0.00100
C 	C 	0.65420 0.64210 0.32270 0.37500
