data_crystal

_cell_length_a 13.39500
_cell_length_b 14.35400
_cell_length_c 11.31900
_cell_angle_alpha 90.00000
_cell_angle_beta  111.55000
_cell_angle_gamma 90.00000

_symmetry_space_group_name_	'P 1'
_symmetry_space_group_name_H-M	'P 1'

loop_
_symmetry_equiv_pos_as_xyz
  x,y,z

loop_
_atom_site_label
_atom_site_type_symbol
_atom_site_fract_x
_atom_site_fract_y
_atom_site_fract_z
_atom_site_charge
O 	O 	0.88849 0.96806 0.11894 -0.36900
O 	O 	0.86568 0.02548 0.28828 -0.35400
O 	O 	0.52270 0.33710 0.07530 -0.66800
O 	O 	0.61740 0.27540 0.25760 0.28400
C 	C 	0.58920 0.27790 0.13830 -0.01400
C 	C 	0.64660 0.13550 0.87640 -0.31800
H 	H 	0.62560 0.13070 0.78870 0.13700
C 	C 	0.59980 0.20160 0.92860 0.30200
H 	H 	0.54810 0.24170 0.87560 -0.08700
C 	C 	0.72469 0.07646 0.95460 0.21100
H 	H 	0.75650 0.03220 0.91970 -0.03800
C 	C 	0.62934 0.20857 0.05800 -0.52400
C 	C 	0.84212 0.02217 0.17220 0.35000
C 	C 	0.70661 0.14946 0.13540 0.33400
H 	H 	0.72650 0.15380 0.22300 -0.07200
C 	C 	0.75521 0.08367 0.08510 -0.27900
C 	C 	0.43460 0.28480 0.42100 0.97600
O 	O 	0.50070 0.33330 0.50020 -0.08000
O 	O 	0.41320 0.29260 0.30290 -0.71600
O 	O 	0.38849 0.46806 0.11894 -0.46400
O 	O 	0.36568 0.52548 0.28828 -0.37000
O 	O 	0.02270 0.83710 0.07530 -0.92000
O 	O 	0.11740 0.77540 0.25760 0.20500
C 	C 	0.08920 0.77790 0.13830 0.00100
C 	C 	0.14660 0.63550 0.87640 -0.35200
H 	H 	0.12560 0.63070 0.78870 0.14000
C 	C 	0.09980 0.70160 0.92860 0.33000
H 	H 	0.04810 0.74170 0.87560 -0.13400
C 	C 	0.22469 0.57646 0.95460 0.23700
H 	H 	0.25650 0.53220 0.91970 -0.03700
C 	C 	0.12934 0.70857 0.05800 -0.56800
C 	C 	0.34212 0.52217 0.17220 0.41400
C 	C 	0.20661 0.64946 0.13540 0.36600
H 	H 	0.22650 0.65380 0.22300 -0.08200
C 	C 	0.25521 0.58367 0.08510 -0.31500
C 	C 	0.93460 0.78480 0.42100 0.97000
O 	O 	0.00070 0.83330 0.50020 -0.33900
O 	O 	0.91320 0.79260 0.30290 -0.78800
O 	O 	0.11151 0.96806 0.38106 -0.42400
O 	O 	0.13432 0.02548 0.21172 -0.38100
O 	O 	0.47730 0.33710 0.42470 -0.65500
O 	O 	0.38260 0.27540 0.24240 0.27600
C 	C 	0.41080 0.27790 0.36170 -0.01200
C 	C 	0.35340 0.13550 0.62360 -0.30500
H 	H 	0.37440 0.13070 0.71130 0.13400
C 	C 	0.40020 0.20160 0.57140 0.28600
H 	H 	0.45190 0.24170 0.62440 -0.08100
C 	C 	0.27531 0.07646 0.54540 0.19400
H 	H 	0.24350 0.03220 0.58030 -0.03800
C 	C 	0.37066 0.20857 0.44200 -0.51000
C 	C 	0.15788 0.02217 0.32780 0.34300
C 	C 	0.29339 0.14946 0.36460 0.32300
H 	H 	0.27350 0.15380 0.27700 -0.07100
C 	C 	0.24479 0.08367 0.41490 -0.27900
C 	C 	0.56540 0.28480 0.07900 0.98800
O 	O 	0.49930 0.33330 0.99980 -0.07100
O 	O 	0.58680 0.29260 0.19710 -0.72100
O 	O 	0.61151 0.46806 0.38106 -0.45700
O 	O 	0.63432 0.52548 0.21172 -0.36400
O 	O 	0.97730 0.83710 0.42470 -0.36800
O 	O 	0.88260 0.77540 0.24240 0.36900
C 	C 	0.91080 0.77790 0.36170 -0.03000
C 	C 	0.85340 0.63550 0.62360 -0.27100
H 	H 	0.87440 0.63070 0.71130 0.14500
C 	C 	0.90020 0.70160 0.57140 0.26200
H 	H 	0.95190 0.74170 0.62440 -0.02900
C 	C 	0.77531 0.57646 0.54540 0.19000
H 	H 	0.74350 0.53220 0.58030 -0.01400
C 	C 	0.87066 0.70857 0.44200 -0.45400
C 	C 	0.65788 0.52217 0.32780 0.40100
C 	C 	0.79339 0.64946 0.36460 0.30600
H 	H 	0.77350 0.65380 0.27700 -0.05600
C 	C 	0.74479 0.58367 0.41490 -0.26100
C 	C 	0.06540 0.78480 0.07900 0.98300
O 	O 	0.99930 0.83330 0.99980 0.19000
O 	O 	0.08680 0.79260 0.19710 -0.63200
O 	O 	0.11151 0.03194 0.88106 -0.53200
O 	O 	0.13432 0.97452 0.71172 -0.36600
O 	O 	0.47730 0.66290 0.92470 -0.65300
O 	O 	0.38260 0.72460 0.74240 0.29800
C 	C 	0.41080 0.72210 0.86170 -0.01400
C 	C 	0.35340 0.86450 0.12360 -0.30800
H 	H 	0.37440 0.86930 0.21130 0.14900
C 	C 	0.40020 0.79840 0.07140 0.29700
H 	H 	0.45190 0.75830 0.12440 -0.08300
C 	C 	0.27531 0.92354 0.04540 0.21700
H 	H 	0.24350 0.96780 0.08030 -0.01000
C 	C 	0.37066 0.79143 0.94200 -0.51600
C 	C 	0.15788 0.97783 0.82780 0.46500
C 	C 	0.29339 0.85054 0.86460 0.34800
H 	H 	0.27350 0.84620 0.77700 -0.07100
C 	C 	0.24479 0.91633 0.91490 -0.29700
C 	C 	0.56540 0.71520 0.57900 1.00400
O 	O 	0.49930 0.66670 0.49980 -0.08000
O 	O 	0.58680 0.70740 0.69710 -0.73700
O 	O 	0.61151 0.53194 0.88106 -0.45400
O 	O 	0.63432 0.47452 0.71172 -0.36200
O 	O 	0.97730 0.16290 0.92470 -0.35100
O 	O 	0.88260 0.22460 0.74240 0.37000
C 	C 	0.91080 0.22210 0.86170 -0.02900
C 	C 	0.85340 0.36450 0.12360 -0.25700
H 	H 	0.87440 0.36930 0.21130 0.14000
C 	C 	0.90020 0.29840 0.07140 0.24600
H 	H 	0.95190 0.25830 0.12440 -0.02400
C 	C 	0.77531 0.42354 0.04540 0.17400
H 	H 	0.74350 0.46780 0.08030 -0.00900
C 	C 	0.87066 0.29143 0.94200 -0.44200
C 	C 	0.65788 0.47783 0.82780 0.39700
C 	C 	0.79339 0.35054 0.86460 0.29600
H 	H 	0.77350 0.34620 0.77700 -0.05400
C 	C 	0.74479 0.41633 0.91490 -0.24800
C 	C 	0.06540 0.21520 0.57900 0.98200
O 	O 	0.99930 0.16670 0.49980 0.19200
O 	O 	0.08680 0.20740 0.69710 -0.63500
O 	O 	0.88849 0.03194 0.61894 -0.46700
O 	O 	0.86568 0.97452 0.78828 -0.34000
O 	O 	0.52270 0.66290 0.57530 -0.66400
O 	O 	0.61740 0.72460 0.75760 0.30500
C 	C 	0.58920 0.72210 0.63830 -0.01600
C 	C 	0.64660 0.86450 0.37640 -0.31500
H 	H 	0.62560 0.86930 0.28870 0.15000
C 	C 	0.59980 0.79840 0.42860 0.30600
H 	H 	0.54810 0.75830 0.37560 -0.08600
C 	C 	0.72469 0.92354 0.45460 0.22500
H 	H 	0.75650 0.96780 0.41970 -0.01000
C 	C 	0.62934 0.79143 0.55800 -0.52400
C 	C 	0.84212 0.97783 0.67220 0.45900
C 	C 	0.70661 0.85054 0.63540 0.35100
H 	H 	0.72650 0.84620 0.72300 -0.07000
C 	C 	0.75521 0.91633 0.58510 -0.28900
C 	C 	0.43460 0.71520 0.92100 0.99600
O 	O 	0.50070 0.66670 0.00020 -0.08800
O 	O 	0.41320 0.70740 0.80290 -0.73400
O 	O 	0.38849 0.53194 0.61894 -0.46100
O 	O 	0.36568 0.47452 0.78828 -0.36900
O 	O 	0.02270 0.16290 0.57530 -0.93700
O 	O 	0.11740 0.22460 0.75760 0.20000
C 	C 	0.08920 0.22210 0.63830 0.00500
C 	C 	0.14660 0.36450 0.37640 -0.34500
H 	H 	0.12560 0.36930 0.28870 0.13700
C 	C 	0.09980 0.29840 0.42860 0.32300
H 	H 	0.04810 0.25830 0.37560 -0.13500
C 	C 	0.22469 0.42354 0.45460 0.22700
H 	H 	0.25650 0.46780 0.41970 -0.03400
C 	C 	0.12934 0.29143 0.55800 -0.56500
C 	C 	0.34212 0.47783 0.67220 0.41100
C 	C 	0.20661 0.35054 0.63540 0.36100
H 	H 	0.22650 0.34620 0.72300 -0.08200
C 	C 	0.25521 0.41633 0.58510 -0.30700
C 	C 	0.93460 0.21520 0.92100 0.96400
O 	O 	0.00070 0.16670 0.00020 -0.36700
O 	O 	0.91320 0.20740 0.80290 -0.79600
Fe	Fe	0.00000 0.88805 0.25000 1.21300
Fe	Fe	0.50000 0.38805 0.25000 1.25100
Fe	Fe	0.00000 0.11195 0.75000 1.19900
Fe	Fe	0.50000 0.61195 0.75000 1.25300
Na	Na	-0.00000 0.00000 -0.00000 0.57700
Na	Na	0.50000 0.50000 -0.00000 0.59600
Na	Na	0.00000 -0.00000 0.50000 0.57700
Na	Na	0.50000 0.50000 0.50000 0.59700
