data_crystal

_cell_length_a 19.05300
_cell_length_b 18.80100
_cell_length_c 22.94340
_cell_angle_alpha 90.00000
_cell_angle_beta  90.00000
_cell_angle_gamma 90.00000

_symmetry_space_group_name_	'P 1'
_symmetry_space_group_name_H-M	'P 1'

loop_
_symmetry_equiv_pos_as_xyz
  x,y,z

loop_
_atom_site_label
_atom_site_type_symbol
_atom_site_fract_x
_atom_site_fract_y
_atom_site_fract_z
_atom_site_charge
Zn	Zn	0.35443 0.76280 0.21658 1.19300
Zn	Zn	0.22837 0.73772 0.37421 1.23000
Zn	Zn	0.22864 0.73381 0.12111 1.23300
Zn	Zn	0.25461 0.10766 0.46896 1.19500
C 	C 	0.25610 0.91020 0.26930 -0.08100
C 	C 	0.25670 0.96690 0.30870 0.01800
H 	H 	0.25890 0.95700 0.34840 0.03700
C 	C 	0.25410 0.03770 0.29070 -0.07800
C 	C 	0.25090 0.05260 0.23150 -0.05400
C 	C 	0.25210 0.99620 0.19220 0.00800
H 	H 	0.25170 0.00640 0.15260 0.03800
C 	C 	0.25380 0.92560 0.20950 -0.08100
C 	C 	0.25570 0.83810 0.29790 0.35900
C 	C 	0.25760 0.09300 0.33860 0.41100
C 	C 	0.23960 0.12700 0.20670 0.39100
C 	C 	0.24950 0.86940 0.16280 0.34700
C 	C 	0.42800 0.72850 0.03860 -0.07500
C 	C 	0.49610 0.71350 0.05390 0.02500
H 	H 	0.50640 0.70420 0.09280 0.03400
C 	C 	0.54980 0.71160 0.01360 -0.07700
C 	C 	0.53560 0.72530 0.95520 -0.04100
C 	C 	0.46790 0.73910 0.93910 0.00400
H 	H 	0.45790 0.74560 0.89980 0.03600
C 	C 	0.41370 0.74380 0.97890 -0.06700
C 	C 	0.37130 0.73000 0.08370 0.39700
C 	C 	0.62190 0.69530 0.03560 0.40900
C 	C 	0.59430 0.73310 0.91050 0.34800
C 	C 	0.34370 0.77360 0.95970 0.42600
O 	O 	0.30530 0.79430 0.29220 -0.50100
O 	O 	0.20620 0.82680 0.33250 -0.43100
O 	O 	0.25670 0.80430 0.18020 -0.57600
O 	O 	0.23710 0.88560 0.11270 -0.35800
O 	O 	0.27780 0.15380 0.32450 -0.49300
O 	O 	0.24100 0.07360 0.38840 -0.53100
O 	O 	0.28170 0.14510 0.16670 -0.46400
O 	O 	0.18840 0.16140 0.22460 -0.46700
O 	O 	0.30930 0.71960 0.06840 -0.47600
O 	O 	0.39260 0.74100 0.13500 -0.49900
O 	O 	0.64530 0.73540 0.07490 -0.48900
O 	O 	0.65190 0.64110 0.01530 -0.51200
O 	O 	0.65000 0.75900 0.93090 -0.45500
O 	O 	0.58470 0.71640 0.86020 -0.31100
O 	O 	0.32540 0.83110 0.98310 -0.52000
O 	O 	0.31230 0.74220 0.92070 -0.50600
Zn	Zn	0.14557 0.23720 0.71658 1.19400
Zn	Zn	0.27163 0.26228 0.87421 1.23100
Zn	Zn	0.27136 0.26619 0.62111 1.23400
Zn	Zn	0.24539 0.89234 0.96896 1.19600
C 	C 	0.24390 0.08980 0.76930 -0.08100
C 	C 	0.24330 0.03310 0.80870 0.01800
H 	H 	0.24110 0.04300 0.84840 0.03700
C 	C 	0.24590 0.96230 0.79070 -0.07800
C 	C 	0.24910 0.94740 0.73150 -0.05200
C 	C 	0.24790 0.00380 0.69220 0.00500
H 	H 	0.24830 0.99360 0.65260 0.04000
C 	C 	0.24620 0.07440 0.70950 -0.08000
C 	C 	0.24430 0.16190 0.79790 0.35900
C 	C 	0.24240 0.90700 0.83860 0.41100
C 	C 	0.26040 0.87300 0.70670 0.39100
C 	C 	0.25050 0.13060 0.66280 0.34700
C 	C 	0.07200 0.27150 0.53860 -0.07500
C 	C 	0.00390 0.28650 0.55390 0.02400
H 	H 	0.99360 0.29580 0.59280 0.03500
C 	C 	0.95020 0.28840 0.51360 -0.07600
C 	C 	0.96440 0.27470 0.45520 -0.04100
C 	C 	0.03210 0.26090 0.43910 0.00400
H 	H 	0.04210 0.25440 0.39980 0.03600
C 	C 	0.08630 0.25620 0.47890 -0.06700
C 	C 	0.12870 0.27000 0.58370 0.39700
C 	C 	0.87810 0.30470 0.53560 0.40800
C 	C 	0.90570 0.26690 0.41050 0.34800
C 	C 	0.15630 0.22640 0.45970 0.42600
O 	O 	0.19470 0.20570 0.79220 -0.50200
O 	O 	0.29380 0.17320 0.83250 -0.43100
O 	O 	0.24330 0.19570 0.68020 -0.57600
O 	O 	0.26290 0.11440 0.61270 -0.35900
O 	O 	0.22220 0.84620 0.82450 -0.49300
O 	O 	0.25900 0.92640 0.88840 -0.53000
O 	O 	0.21830 0.85490 0.66670 -0.46400
O 	O 	0.31160 0.83860 0.72460 -0.46700
O 	O 	0.19070 0.28040 0.56840 -0.47700
O 	O 	0.10740 0.25900 0.63500 -0.49900
O 	O 	0.85470 0.26460 0.57490 -0.48900
O 	O 	0.84810 0.35890 0.51530 -0.51200
O 	O 	0.85000 0.24100 0.43090 -0.45500
O 	O 	0.91530 0.28360 0.36020 -0.31100
O 	O 	0.17460 0.16890 0.48310 -0.52000
O 	O 	0.18770 0.25780 0.42070 -0.50600
Zn	Zn	0.64557 0.26280 0.28342 1.19400
Zn	Zn	0.77163 0.23772 0.12579 1.23100
Zn	Zn	0.77136 0.23381 0.37889 1.23400
Zn	Zn	0.74539 0.60766 0.03104 1.19600
C 	C 	0.74390 0.41020 0.23070 -0.08100
C 	C 	0.74330 0.46690 0.19130 0.01800
H 	H 	0.74110 0.45700 0.15160 0.03700
C 	C 	0.74590 0.53770 0.20930 -0.07800
C 	C 	0.74910 0.55260 0.26850 -0.05300
C 	C 	0.74790 0.49620 0.30780 0.00600
H 	H 	0.74830 0.50640 0.34740 0.03900
C 	C 	0.74620 0.42560 0.29050 -0.08000
C 	C 	0.74430 0.33810 0.20210 0.35900
C 	C 	0.74240 0.59300 0.16140 0.41100
C 	C 	0.76040 0.62700 0.29330 0.39100
C 	C 	0.75050 0.36940 0.33720 0.34700
C 	C 	0.57200 0.22850 0.46140 -0.07500
C 	C 	0.50390 0.21350 0.44610 0.02600
H 	H 	0.49360 0.20420 0.40720 0.03400
C 	C 	0.45020 0.21160 0.48640 -0.07700
C 	C 	0.46440 0.22530 0.54480 -0.04100
C 	C 	0.53210 0.23910 0.56090 0.00400
H 	H 	0.54210 0.24560 0.60020 0.03600
C 	C 	0.58630 0.24380 0.52110 -0.06700
C 	C 	0.62870 0.23000 0.41630 0.39700
C 	C 	0.37810 0.19530 0.46440 0.40900
C 	C 	0.40570 0.23310 0.58950 0.34800
C 	C 	0.65630 0.27360 0.54030 0.42600
O 	O 	0.69470 0.29430 0.20780 -0.50200
O 	O 	0.79380 0.32680 0.16750 -0.43100
O 	O 	0.74330 0.30430 0.31980 -0.57600
O 	O 	0.76290 0.38560 0.38730 -0.35900
O 	O 	0.72220 0.65380 0.17550 -0.49300
O 	O 	0.75900 0.57360 0.11160 -0.53000
O 	O 	0.71830 0.64510 0.33330 -0.46400
O 	O 	0.81160 0.66140 0.27540 -0.46700
O 	O 	0.69070 0.21960 0.43160 -0.47700
O 	O 	0.60740 0.24100 0.36500 -0.49900
O 	O 	0.35470 0.23540 0.42510 -0.48900
O 	O 	0.34810 0.14110 0.48470 -0.51200
O 	O 	0.35000 0.25900 0.56910 -0.45500
O 	O 	0.41530 0.21640 0.63980 -0.31100
O 	O 	0.67460 0.33110 0.51690 -0.52000
O 	O 	0.68770 0.24220 0.57930 -0.50600
Zn	Zn	0.85443 0.73720 0.78342 1.19400
Zn	Zn	0.72837 0.76228 0.62579 1.23100
Zn	Zn	0.72864 0.76619 0.87889 1.23400
Zn	Zn	0.75461 0.39234 0.53104 1.19600
C 	C 	0.75610 0.58980 0.73070 -0.08100
C 	C 	0.75670 0.53310 0.69130 0.01800
H 	H 	0.75890 0.54300 0.65160 0.03700
C 	C 	0.75410 0.46230 0.70930 -0.07800
C 	C 	0.75090 0.44740 0.76850 -0.05300
C 	C 	0.75210 0.50380 0.80780 0.00600
H 	H 	0.75170 0.49360 0.84740 0.03900
C 	C 	0.75380 0.57440 0.79050 -0.08000
C 	C 	0.75570 0.66190 0.70210 0.35900
C 	C 	0.75760 0.40700 0.66140 0.41100
C 	C 	0.73960 0.37300 0.79330 0.39100
C 	C 	0.74950 0.63060 0.83720 0.34700
C 	C 	0.92800 0.77150 0.96140 -0.07600
C 	C 	0.99610 0.78650 0.94610 0.02800
H 	H 	0.00640 0.79580 0.90720 0.03300
C 	C 	0.04980 0.78840 0.98640 -0.08000
C 	C 	0.03560 0.77470 0.04480 -0.03800
C 	C 	0.96790 0.76090 0.06090 0.00100
H 	H 	0.95790 0.75440 0.10020 0.03700
C 	C 	0.91370 0.75620 0.02110 -0.06600
C 	C 	0.87130 0.77000 0.91630 0.39700
C 	C 	0.12190 0.80470 0.96440 0.41000
C 	C 	0.09430 0.76690 0.08950 0.34700
C 	C 	0.84370 0.72640 0.04030 0.42600
O 	O 	0.80530 0.70570 0.70780 -0.50200
O 	O 	0.70620 0.67320 0.66750 -0.43100
O 	O 	0.75670 0.69570 0.81980 -0.57600
O 	O 	0.73710 0.61440 0.88730 -0.35800
O 	O 	0.77780 0.34620 0.67550 -0.49300
O 	O 	0.74100 0.42640 0.61160 -0.53000
O 	O 	0.78170 0.35490 0.83330 -0.46400
O 	O 	0.68840 0.33860 0.77540 -0.46700
O 	O 	0.80930 0.78040 0.93160 -0.47700
O 	O 	0.89260 0.75900 0.86500 -0.49900
O 	O 	0.14530 0.76460 0.92510 -0.48900
O 	O 	0.15190 0.85890 0.98470 -0.51200
O 	O 	0.15000 0.74100 0.06910 -0.45400
O 	O 	0.08470 0.78360 0.13980 -0.31000
O 	O 	0.82540 0.66890 0.01690 -0.52000
O 	O 	0.81230 0.75780 0.07930 -0.50600
Zn	Zn	0.64557 0.23720 0.78342 1.19400
Zn	Zn	0.77163 0.26228 0.62579 1.23100
Zn	Zn	0.77136 0.26619 0.87889 1.23400
Zn	Zn	0.74539 0.89234 0.53104 1.19600
C 	C 	0.74390 0.08980 0.73070 -0.08100
C 	C 	0.74330 0.03310 0.69130 0.01800
H 	H 	0.74110 0.04300 0.65160 0.03700
C 	C 	0.74590 0.96230 0.70930 -0.07800
C 	C 	0.74910 0.94740 0.76850 -0.05400
C 	C 	0.74790 0.00380 0.80780 0.00800
H 	H 	0.74830 0.99360 0.84740 0.03800
C 	C 	0.74620 0.07440 0.79050 -0.08100
C 	C 	0.74430 0.16190 0.70210 0.35900
C 	C 	0.74240 0.90700 0.66140 0.41100
C 	C 	0.76040 0.87300 0.79330 0.39100
C 	C 	0.75050 0.13060 0.83720 0.34700
C 	C 	0.57200 0.27150 0.96140 -0.07500
C 	C 	0.50390 0.28650 0.94610 0.02500
H 	H 	0.49360 0.29580 0.90720 0.03400
C 	C 	0.45020 0.28840 0.98640 -0.07700
C 	C 	0.46440 0.27470 0.04480 -0.04100
C 	C 	0.53210 0.26090 0.06090 0.00400
H 	H 	0.54210 0.25440 0.10020 0.03600
C 	C 	0.58630 0.25620 0.02110 -0.06700
C 	C 	0.62870 0.27000 0.91630 0.39700
C 	C 	0.37810 0.30470 0.96440 0.40900
C 	C 	0.40570 0.26690 0.08950 0.34800
C 	C 	0.65630 0.22640 0.04030 0.42600
O 	O 	0.69470 0.20570 0.70780 -0.50100
O 	O 	0.79380 0.17320 0.66750 -0.43100
O 	O 	0.74330 0.19570 0.81980 -0.57600
O 	O 	0.76290 0.11440 0.88730 -0.35800
O 	O 	0.72220 0.84620 0.67550 -0.49300
O 	O 	0.75900 0.92640 0.61160 -0.53100
O 	O 	0.71830 0.85490 0.83330 -0.46400
O 	O 	0.81160 0.83860 0.77540 -0.46700
O 	O 	0.69070 0.28040 0.93160 -0.47600
O 	O 	0.60740 0.25900 0.86500 -0.49900
O 	O 	0.35470 0.26460 0.92510 -0.48900
O 	O 	0.34810 0.35890 0.98470 -0.51200
O 	O 	0.35000 0.24100 0.06910 -0.45500
O 	O 	0.41530 0.28360 0.13980 -0.31100
O 	O 	0.67460 0.16890 0.01690 -0.52000
O 	O 	0.68770 0.25780 0.07930 -0.50600
Zn	Zn	0.85443 0.76280 0.28342 1.19400
Zn	Zn	0.72837 0.73772 0.12579 1.23100
Zn	Zn	0.72864 0.73381 0.37889 1.23400
Zn	Zn	0.75461 0.10766 0.03104 1.19600
C 	C 	0.75610 0.91020 0.23070 -0.08100
C 	C 	0.75670 0.96690 0.19130 0.01800
H 	H 	0.75890 0.95700 0.15160 0.03700
C 	C 	0.75410 0.03770 0.20930 -0.07800
C 	C 	0.75090 0.05260 0.26850 -0.05200
C 	C 	0.75210 0.99620 0.30780 0.00500
H 	H 	0.75170 0.00640 0.34740 0.04000
C 	C 	0.75380 0.92560 0.29050 -0.08000
C 	C 	0.75570 0.83810 0.20210 0.35900
C 	C 	0.75760 0.09300 0.16140 0.41100
C 	C 	0.73960 0.12700 0.29330 0.39100
C 	C 	0.74950 0.86940 0.33720 0.34700
C 	C 	0.92800 0.72850 0.46140 -0.07500
C 	C 	0.99610 0.71350 0.44610 0.02400
H 	H 	0.00640 0.70420 0.40720 0.03500
C 	C 	0.04980 0.71160 0.48640 -0.07600
C 	C 	0.03560 0.72530 0.54480 -0.04100
C 	C 	0.96790 0.73910 0.56090 0.00400
H 	H 	0.95790 0.74560 0.60020 0.03600
C 	C 	0.91370 0.74380 0.52110 -0.06700
C 	C 	0.87130 0.73000 0.41630 0.39700
C 	C 	0.12190 0.69530 0.46440 0.40800
C 	C 	0.09430 0.73310 0.58950 0.34800
C 	C 	0.84370 0.77360 0.54030 0.42600
O 	O 	0.80530 0.79430 0.20780 -0.50200
O 	O 	0.70620 0.82680 0.16750 -0.43100
O 	O 	0.75670 0.80430 0.31980 -0.57600
O 	O 	0.73710 0.88560 0.38730 -0.35900
O 	O 	0.77780 0.15380 0.17550 -0.49300
O 	O 	0.74100 0.07360 0.11160 -0.53000
O 	O 	0.78170 0.14510 0.33330 -0.46400
O 	O 	0.68840 0.16140 0.27540 -0.46700
O 	O 	0.80930 0.71960 0.43160 -0.47700
O 	O 	0.89260 0.74100 0.36500 -0.49900
O 	O 	0.14530 0.73540 0.42510 -0.48900
O 	O 	0.15190 0.64110 0.48470 -0.51200
O 	O 	0.15000 0.75900 0.56910 -0.45500
O 	O 	0.08470 0.71640 0.63980 -0.31100
O 	O 	0.82540 0.83110 0.51690 -0.52000
O 	O 	0.81230 0.74220 0.57930 -0.50600
Zn	Zn	0.35443 0.73720 0.71658 1.19400
Zn	Zn	0.22837 0.76228 0.87421 1.23100
Zn	Zn	0.22864 0.76619 0.62111 1.23400
Zn	Zn	0.25461 0.39234 0.96896 1.19600
C 	C 	0.25610 0.58980 0.76930 -0.08100
C 	C 	0.25670 0.53310 0.80870 0.01800
H 	H 	0.25890 0.54300 0.84840 0.03700
C 	C 	0.25410 0.46230 0.79070 -0.07800
C 	C 	0.25090 0.44740 0.73150 -0.05300
C 	C 	0.25210 0.50380 0.69220 0.00600
H 	H 	0.25170 0.49360 0.65260 0.03900
C 	C 	0.25380 0.57440 0.70950 -0.08000
C 	C 	0.25570 0.66190 0.79790 0.35900
C 	C 	0.25760 0.40700 0.83860 0.41100
C 	C 	0.23960 0.37300 0.70670 0.39100
C 	C 	0.24950 0.63060 0.66280 0.34700
C 	C 	0.42800 0.77150 0.53860 -0.07500
C 	C 	0.49610 0.78650 0.55390 0.02600
H 	H 	0.50640 0.79580 0.59280 0.03400
C 	C 	0.54980 0.78840 0.51360 -0.07700
C 	C 	0.53560 0.77470 0.45520 -0.04100
C 	C 	0.46790 0.76090 0.43910 0.00400
H 	H 	0.45790 0.75440 0.39980 0.03600
C 	C 	0.41370 0.75620 0.47890 -0.06700
C 	C 	0.37130 0.77000 0.58370 0.39700
C 	C 	0.62190 0.80470 0.53560 0.40900
C 	C 	0.59430 0.76690 0.41050 0.34800
C 	C 	0.34370 0.72640 0.45970 0.42600
O 	O 	0.30530 0.70570 0.79220 -0.50200
O 	O 	0.20620 0.67320 0.83250 -0.43100
O 	O 	0.25670 0.69570 0.68020 -0.57600
O 	O 	0.23710 0.61440 0.61270 -0.35900
O 	O 	0.27780 0.34620 0.82450 -0.49300
O 	O 	0.24100 0.42640 0.88840 -0.53000
O 	O 	0.28170 0.35490 0.66670 -0.46400
O 	O 	0.18840 0.33860 0.72460 -0.46700
O 	O 	0.30930 0.78040 0.56840 -0.47700
O 	O 	0.39260 0.75900 0.63500 -0.49900
O 	O 	0.64530 0.76460 0.57490 -0.48900
O 	O 	0.65190 0.85890 0.51530 -0.51200
O 	O 	0.65000 0.74100 0.43090 -0.45500
O 	O 	0.58470 0.78360 0.36020 -0.31100
O 	O 	0.32540 0.66890 0.48310 -0.52000
O 	O 	0.31230 0.75780 0.42070 -0.50600
Zn	Zn	0.14557 0.26280 0.21658 1.19400
Zn	Zn	0.27163 0.23772 0.37421 1.23100
Zn	Zn	0.27136 0.23381 0.12111 1.23400
Zn	Zn	0.24539 0.60766 0.46896 1.19600
C 	C 	0.24390 0.41020 0.26930 -0.08100
C 	C 	0.24330 0.46690 0.30870 0.01800
H 	H 	0.24110 0.45700 0.34840 0.03700
C 	C 	0.24590 0.53770 0.29070 -0.07800
C 	C 	0.24910 0.55260 0.23150 -0.05300
C 	C 	0.24790 0.49620 0.19220 0.00600
H 	H 	0.24830 0.50640 0.15260 0.03900
C 	C 	0.24620 0.42560 0.20950 -0.08000
C 	C 	0.24430 0.33810 0.29790 0.35900
C 	C 	0.24240 0.59300 0.33860 0.41100
C 	C 	0.26040 0.62700 0.20670 0.39100
C 	C 	0.25050 0.36940 0.16280 0.34700
C 	C 	0.07200 0.22850 0.03860 -0.07600
C 	C 	0.00390 0.21350 0.05390 0.02800
H 	H 	0.99360 0.20420 0.09280 0.03300
C 	C 	0.95020 0.21160 0.01360 -0.08000
C 	C 	0.96440 0.22530 0.95520 -0.03800
C 	C 	0.03210 0.23910 0.93910 0.00100
H 	H 	0.04210 0.24560 0.89980 0.03700
C 	C 	0.08630 0.24380 0.97890 -0.06600
C 	C 	0.12870 0.23000 0.08370 0.39700
C 	C 	0.87810 0.19530 0.03560 0.41000
C 	C 	0.90570 0.23310 0.91050 0.34700
C 	C 	0.15630 0.27360 0.95970 0.42600
O 	O 	0.19470 0.29430 0.29220 -0.50200
O 	O 	0.29380 0.32680 0.33250 -0.43100
O 	O 	0.24330 0.30430 0.18020 -0.57600
O 	O 	0.26290 0.38560 0.11270 -0.35800
O 	O 	0.22220 0.65380 0.32450 -0.49300
O 	O 	0.25900 0.57360 0.38840 -0.53000
O 	O 	0.21830 0.64510 0.16670 -0.46400
O 	O 	0.31160 0.66140 0.22460 -0.46700
O 	O 	0.19070 0.21960 0.06840 -0.47700
O 	O 	0.10740 0.24100 0.13500 -0.49900
O 	O 	0.85470 0.23540 0.07490 -0.48900
O 	O 	0.84810 0.14110 0.01530 -0.51200
O 	O 	0.85000 0.25900 0.93090 -0.45400
O 	O 	0.91530 0.21640 0.86020 -0.31000
O 	O 	0.17460 0.33110 0.98310 -0.52000
O 	O 	0.18770 0.24220 0.92070 -0.50600
