data_crystal

_cell_length_a 30.80990
_cell_length_b 30.80990
_cell_length_c 16.46050
_cell_angle_alpha 90.00000
_cell_angle_beta  90.00000
_cell_angle_gamma 120.00000

_symmetry_space_group_name_	'P 1'
_symmetry_space_group_name_H-M	'P 1'

loop_
_symmetry_equiv_pos_as_xyz
  x,y,z

loop_
_atom_site_label
_atom_site_type_symbol
_atom_site_fract_x
_atom_site_fract_y
_atom_site_fract_z
_atom_site_charge
Fe	Fe	0.79768 0.16959 0.75417 1.26300
Fe	Fe	0.90811 0.27433 0.75249 1.20700
Fe	Fe	0.89855 0.16102 0.74673 1.23400
Fe	Fe	0.64325 0.26275 0.25354 1.22700
Cl	Cl	0.72042 0.24929 0.67053 -0.20200
Cl	Cl	0.67424 0.27493 0.52104 -0.19700
Cl	Cl	0.83099 0.30674 0.33886 -0.20200
Cl	Cl	0.87750 0.27922 0.48653 -0.20200
Cl	Cl	0.80016 0.14667 0.48153 -0.20300
Cl	Cl	0.74783 0.07106 0.33552 -0.20400
Cl	Cl	0.73048 0.92185 0.52300 -0.20200
Cl	Cl	0.78377 0.99666 0.66707 -0.19400
Cl	Cl	0.71591 0.00882 0.83684 -0.19800
Cl	Cl	0.66958 0.93677 0.98455 -0.20400
Cl	Cl	0.82769 0.06332 0.16877 -0.19800
Cl	Cl	0.87361 0.13545 0.01972 -0.19900
Cl	Cl	0.81389 0.20114 0.02776 -0.19700
Cl	Cl	0.76136 0.22396 0.17125 -0.20500
Cl	Cl	0.74173 0.35507 0.98277 -0.20100
Cl	Cl	0.79500 0.33178 0.83902 -0.20300
O 	O 	0.86390 0.19820 0.75300 -0.66100
O 	O 	0.79250 0.20500 0.65860 -0.38100
O 	O 	0.85640 0.28300 0.67520 -0.38500
O 	O 	0.69710 0.26680 0.33010 -0.40100
O 	O 	0.75150 0.34910 0.35320 -0.36600
O 	O 	0.78410 0.11320 0.67660 -0.38200
O 	O 	0.85700 0.11750 0.65020 -0.39900
O 	O 	0.67370 0.94940 0.35150 -0.36500
O 	O 	0.74840 0.95320 0.33270 -0.39500
O 	O 	0.79070 0.12720 0.85170 -0.38200
O 	O 	0.84980 0.10550 0.82490 -0.36700
O 	O 	0.75090 0.94580 0.15560 -0.38200
O 	O 	0.69180 0.96430 0.17190 -0.41500
O 	O 	0.79250 0.21690 0.83100 -0.38900
O 	O 	0.87050 0.28140 0.85390 -0.37400
O 	O 	0.68540 0.26670 0.15160 -0.39700
O 	O 	0.75610 0.33760 0.17400 -0.37900
C 	C 	0.72870 0.29660 0.13830 0.47200
C 	C 	0.81790 0.25280 0.64230 0.44500
C 	C 	0.79600 0.26565 0.57070 -0.13100
C 	C 	0.75050 0.26473 0.57820 0.17400
C 	C 	0.73060 0.27662 0.51180 0.16400
C 	C 	0.75580 0.28940 0.43800 -0.11100
C 	C 	0.80120 0.29020 0.43080 0.16700
C 	C 	0.82150 0.27850 0.49710 0.17400
C 	C 	0.73170 0.30150 0.36540 0.43500
C 	C 	0.81440 0.10420 0.63540 0.45900
C 	C 	0.78875 0.06720 0.56510 -0.12100
C 	C 	0.78102 0.08430 0.49150 0.16900
C 	C 	0.75790 0.05130 0.42770 0.17000
C 	C 	0.74240 0.00080 0.43680 -0.12500
C 	C 	0.74990 0.98350 0.51060 0.17300
C 	C 	0.77300 0.01650 0.57500 0.16700
C 	C 	0.71940 0.96420 0.36760 0.43600
C 	C 	0.81410 0.10480 0.86550 0.42400
C 	C 	0.79190 0.06790 0.93610 -0.11300
C 	C 	0.74640 0.02350 0.92850 0.16600
C 	C 	0.72610 0.99160 0.99480 0.17600
C 	C 	0.75140 0.00410 0.06890 -0.14800
C 	C 	0.79690 0.04860 0.07640 0.18200
C 	C 	0.81710 0.08050 0.00960 0.16400
C 	C 	0.72680 0.96800 0.13710 0.49000
C 	C 	0.82480 0.25550 0.86850 0.43400
C 	C 	0.80150 0.26770 0.94180 -0.11300
C 	C 	0.79405 0.24347 0.01600 0.16600
C 	C 	0.77067 0.25360 0.07940 0.17400
C 	C 	0.75450 0.28810 0.06880 -0.14200
C 	C 	0.76190 0.31250 0.99460 0.18000
C 	C 	0.78560 0.30240 0.93130 0.16100
Fe	Fe	0.83041 0.62809 0.75417 1.26200
Fe	Fe	0.72567 0.63378 0.75249 1.20600
Fe	Fe	0.83898 0.73753 0.74673 1.23300
Fe	Fe	0.73725 0.38050 0.25354 1.22600
Cl	Cl	0.75071 0.47113 0.67053 -0.20200
Cl	Cl	0.72507 0.39931 0.52104 -0.19700
Cl	Cl	0.69326 0.52425 0.33886 -0.20200
Cl	Cl	0.72078 0.59828 0.48653 -0.20200
Cl	Cl	0.85333 0.65349 0.48153 -0.20300
Cl	Cl	0.92894 0.67677 0.33552 -0.20400
Cl	Cl	0.07815 0.80863 0.52300 -0.20200
Cl	Cl	0.00334 0.78711 0.66707 -0.19400
Cl	Cl	0.99118 0.70709 0.83684 -0.19800
Cl	Cl	0.06323 0.73281 0.98455 -0.20300
Cl	Cl	0.93668 0.76437 0.16877 -0.19800
Cl	Cl	0.86455 0.73816 0.01972 -0.19900
Cl	Cl	0.79886 0.61275 0.02776 -0.19700
Cl	Cl	0.77604 0.53740 0.17125 -0.20500
Cl	Cl	0.64493 0.38666 0.98277 -0.20100
Cl	Cl	0.66822 0.46322 0.83902 -0.20300
O 	O 	0.80180 0.66570 0.75300 -0.66100
O 	O 	0.79500 0.58750 0.65860 -0.38100
O 	O 	0.71700 0.57340 0.67520 -0.38500
O 	O 	0.73320 0.43030 0.33010 -0.40100
O 	O 	0.65090 0.40240 0.35320 -0.36600
O 	O 	0.88680 0.67090 0.67660 -0.38200
O 	O 	0.88250 0.73950 0.65020 -0.39900
O 	O 	0.05060 0.72430 0.35150 -0.36500
O 	O 	0.04680 0.79520 0.33270 -0.39500
O 	O 	0.87280 0.66350 0.85170 -0.38200
O 	O 	0.89450 0.74430 0.82490 -0.36700
O 	O 	0.05420 0.80510 0.15560 -0.38200
O 	O 	0.03570 0.72750 0.17190 -0.41600
O 	O 	0.78310 0.57560 0.83100 -0.38900
O 	O 	0.71860 0.58910 0.85390 -0.37300
O 	O 	0.73330 0.41870 0.15160 -0.39700
O 	O 	0.66240 0.41850 0.17400 -0.37900
C 	C 	0.70340 0.43210 0.13830 0.47200
C 	C 	0.74720 0.56510 0.64230 0.44500
C 	C 	0.73435 0.53035 0.57070 -0.13100
C 	C 	0.73527 0.48577 0.57820 0.17400
C 	C 	0.72338 0.45398 0.51180 0.16400
C 	C 	0.71060 0.46640 0.43800 -0.11100
C 	C 	0.70980 0.51100 0.43080 0.16700
C 	C 	0.72150 0.54300 0.49710 0.17400
C 	C 	0.69850 0.43020 0.36540 0.43500
C 	C 	0.89580 0.71020 0.63540 0.45900
C 	C 	0.93280 0.72155 0.56510 -0.12100
C 	C 	0.91570 0.69672 0.49150 0.16900
C 	C 	0.94870 0.70660 0.42770 0.17000
C 	C 	0.99920 0.74160 0.43680 -0.12500
C 	C 	0.01650 0.76640 0.51060 0.17300
C 	C 	0.98350 0.75650 0.57500 0.16700
C 	C 	0.03580 0.75520 0.36760 0.43500
C 	C 	0.89520 0.70930 0.86550 0.42400
C 	C 	0.93210 0.72400 0.93610 -0.11200
C 	C 	0.97650 0.72290 0.92850 0.16600
C 	C 	0.00840 0.73450 0.99480 0.17700
C 	C 	0.99590 0.74730 0.06890 -0.14800
C 	C 	0.95140 0.74830 0.07640 0.18300
C 	C 	0.91950 0.73660 0.00960 0.16300
C 	C 	0.03200 0.75880 0.13710 0.49000
C 	C 	0.74450 0.56930 0.86850 0.43300
C 	C 	0.73230 0.53380 0.94180 -0.11200
C 	C 	0.75653 0.55058 0.01600 0.16600
C 	C 	0.74640 0.51707 0.07940 0.17400
C 	C 	0.71190 0.46640 0.06880 -0.14300
C 	C 	0.68750 0.44940 0.99460 0.18000
C 	C 	0.69760 0.48320 0.93130 0.16000
Fe	Fe	0.37191 0.20232 0.75417 1.26200
Fe	Fe	0.36622 0.09189 0.75249 1.20600
Fe	Fe	0.26247 0.10145 0.74673 1.23300
Fe	Fe	0.61950 0.35675 0.25354 1.22600
Cl	Cl	0.52887 0.27958 0.67053 -0.20200
Cl	Cl	0.60069 0.32576 0.52104 -0.19700
Cl	Cl	0.47575 0.16901 0.33886 -0.20200
Cl	Cl	0.40172 0.12250 0.48653 -0.20200
Cl	Cl	0.34651 0.19984 0.48153 -0.20300
Cl	Cl	0.32323 0.25217 0.33552 -0.20400
Cl	Cl	0.19137 0.26952 0.52300 -0.20200
Cl	Cl	0.21289 0.21623 0.66707 -0.19400
Cl	Cl	0.29291 0.28409 0.83684 -0.19800
Cl	Cl	0.26719 0.33042 0.98455 -0.20400
Cl	Cl	0.23563 0.17231 0.16877 -0.19800
Cl	Cl	0.26184 0.12639 0.01972 -0.19900
Cl	Cl	0.38725 0.18611 0.02776 -0.19700
Cl	Cl	0.46260 0.23864 0.17125 -0.20500
Cl	Cl	0.61334 0.25827 0.98277 -0.20100
Cl	Cl	0.53678 0.20500 0.83902 -0.20300
O 	O 	0.33430 0.13610 0.75300 -0.66100
O 	O 	0.41250 0.20750 0.65860 -0.38100
O 	O 	0.42660 0.14360 0.67520 -0.38500
O 	O 	0.56970 0.30290 0.33010 -0.40100
O 	O 	0.59760 0.24850 0.35320 -0.36600
O 	O 	0.32910 0.21590 0.67660 -0.38200
O 	O 	0.26050 0.14300 0.65020 -0.39900
O 	O 	0.27570 0.32630 0.35150 -0.36400
O 	O 	0.20480 0.25160 0.33270 -0.39500
O 	O 	0.33650 0.20930 0.85170 -0.38200
O 	O 	0.25570 0.15020 0.82490 -0.36700
O 	O 	0.19490 0.24910 0.15560 -0.38200
O 	O 	0.27250 0.30820 0.17190 -0.41500
O 	O 	0.42440 0.20750 0.83100 -0.38900
O 	O 	0.41090 0.12950 0.85390 -0.37400
O 	O 	0.58130 0.31460 0.15160 -0.39700
O 	O 	0.58150 0.24390 0.17400 -0.37900
C 	C 	0.56790 0.27130 0.13830 0.47200
C 	C 	0.43490 0.18210 0.64230 0.44500
C 	C 	0.46965 0.20400 0.57070 -0.13100
C 	C 	0.51423 0.24950 0.57820 0.17400
C 	C 	0.54602 0.26940 0.51180 0.16400
C 	C 	0.53360 0.24420 0.43800 -0.11100
C 	C 	0.48900 0.19880 0.43080 0.16700
C 	C 	0.45700 0.17850 0.49710 0.17400
C 	C 	0.56980 0.26830 0.36540 0.43500
C 	C 	0.28980 0.18560 0.63540 0.45900
C 	C 	0.27845 0.21125 0.56510 -0.12100
C 	C 	0.30328 0.21898 0.49150 0.16900
C 	C 	0.29340 0.24210 0.42770 0.17000
C 	C 	0.25840 0.25760 0.43680 -0.12500
C 	C 	0.23360 0.25010 0.51060 0.17300
C 	C 	0.24350 0.22700 0.57500 0.16700
C 	C 	0.24480 0.28060 0.36760 0.43600
C 	C 	0.29070 0.18590 0.86550 0.42400
C 	C 	0.27600 0.20810 0.93610 -0.11200
C 	C 	0.27710 0.25360 0.92850 0.16700
C 	C 	0.26550 0.27390 0.99480 0.17600
C 	C 	0.25270 0.24860 0.06890 -0.14800
C 	C 	0.25170 0.20310 0.07640 0.18300
C 	C 	0.26340 0.18290 0.00960 0.16300
C 	C 	0.24120 0.27320 0.13710 0.49100
C 	C 	0.43070 0.17520 0.86850 0.43300
C 	C 	0.46620 0.19850 0.94180 -0.11200
C 	C 	0.44942 0.20595 0.01600 0.16600
C 	C 	0.48293 0.22933 0.07940 0.17400
C 	C 	0.53360 0.24550 0.06880 -0.14300
C 	C 	0.55060 0.23810 0.99460 0.18000
C 	C 	0.51680 0.21440 0.93130 0.16100
Fe	Fe	0.20232 0.83041 0.24583 1.26200
Fe	Fe	0.09189 0.72567 0.24751 1.20600
Fe	Fe	0.10145 0.83898 0.25327 1.23300
Fe	Fe	0.35675 0.73725 0.74646 1.22600
Cl	Cl	0.27958 0.75071 0.32947 -0.20200
Cl	Cl	0.32576 0.72507 0.47896 -0.19700
Cl	Cl	0.16901 0.69326 0.66114 -0.20200
Cl	Cl	0.12250 0.72078 0.51347 -0.20200
Cl	Cl	0.19984 0.85333 0.51847 -0.20300
Cl	Cl	0.25217 0.92894 0.66448 -0.20400
Cl	Cl	0.26952 0.07815 0.47700 -0.20200
Cl	Cl	0.21623 0.00334 0.33293 -0.19400
Cl	Cl	0.28409 0.99118 0.16316 -0.19800
Cl	Cl	0.33042 0.06323 0.01545 -0.20400
Cl	Cl	0.17231 0.93668 0.83123 -0.19800
Cl	Cl	0.12639 0.86455 0.98028 -0.19900
Cl	Cl	0.18611 0.79886 0.97224 -0.19700
Cl	Cl	0.23864 0.77604 0.82875 -0.20500
Cl	Cl	0.25827 0.64493 0.01723 -0.20100
Cl	Cl	0.20500 0.66822 0.16098 -0.20300
O 	O 	0.13610 0.80180 0.24700 -0.66100
O 	O 	0.20750 0.79500 0.34140 -0.38100
O 	O 	0.14360 0.71700 0.32480 -0.38500
O 	O 	0.30290 0.73320 0.66990 -0.40100
O 	O 	0.24850 0.65090 0.64680 -0.36600
O 	O 	0.21590 0.88680 0.32340 -0.38200
O 	O 	0.14300 0.88250 0.34980 -0.39900
O 	O 	0.32630 0.05060 0.64850 -0.36500
O 	O 	0.25160 0.04680 0.66730 -0.39500
O 	O 	0.20930 0.87280 0.14830 -0.38200
O 	O 	0.15020 0.89450 0.17510 -0.36700
O 	O 	0.24910 0.05420 0.84440 -0.38200
O 	O 	0.30820 0.03570 0.82810 -0.41500
O 	O 	0.20750 0.78310 0.16900 -0.38900
O 	O 	0.12950 0.71860 0.14610 -0.37400
O 	O 	0.31460 0.73330 0.84840 -0.39700
O 	O 	0.24390 0.66240 0.82600 -0.37900
C 	C 	0.27130 0.70340 0.86170 0.47200
C 	C 	0.18210 0.74720 0.35770 0.44500
C 	C 	0.20400 0.73435 0.42930 -0.13100
C 	C 	0.24950 0.73527 0.42180 0.17400
C 	C 	0.26940 0.72338 0.48820 0.16400
C 	C 	0.24420 0.71060 0.56200 -0.11100
C 	C 	0.19880 0.70980 0.56920 0.16700
C 	C 	0.17850 0.72150 0.50290 0.17400
C 	C 	0.26830 0.69850 0.63460 0.43500
C 	C 	0.18560 0.89580 0.36460 0.45900
C 	C 	0.21125 0.93280 0.43490 -0.12100
C 	C 	0.21898 0.91570 0.50850 0.16900
C 	C 	0.24210 0.94870 0.57230 0.17000
C 	C 	0.25760 0.99920 0.56320 -0.12500
C 	C 	0.25010 0.01650 0.48940 0.17300
C 	C 	0.22700 0.98350 0.42500 0.16700
C 	C 	0.28060 0.03580 0.63240 0.43600
C 	C 	0.18590 0.89520 0.13450 0.42400
C 	C 	0.20810 0.93210 0.06390 -0.11300
C 	C 	0.25360 0.97650 0.07150 0.16600
C 	C 	0.27390 0.00840 0.00520 0.17600
C 	C 	0.24860 0.99590 0.93110 -0.14800
C 	C 	0.20310 0.95140 0.92360 0.18200
C 	C 	0.18290 0.91950 0.99040 0.16400
C 	C 	0.27320 0.03200 0.86290 0.49000
C 	C 	0.17520 0.74450 0.13150 0.43400
C 	C 	0.19850 0.73230 0.05820 -0.11300
C 	C 	0.20595 0.75653 0.98400 0.16600
C 	C 	0.22933 0.74640 0.92060 0.17400
C 	C 	0.24550 0.71190 0.93120 -0.14200
C 	C 	0.23810 0.68750 0.00540 0.18000
C 	C 	0.21440 0.69760 0.06870 0.16100
Fe	Fe	0.16959 0.37191 0.24583 1.26200
Fe	Fe	0.27433 0.36622 0.24751 1.20600
Fe	Fe	0.16102 0.26247 0.25327 1.23300
Fe	Fe	0.26275 0.61950 0.74646 1.22600
Cl	Cl	0.24929 0.52887 0.32947 -0.20200
Cl	Cl	0.27493 0.60069 0.47896 -0.19700
Cl	Cl	0.30674 0.47575 0.66114 -0.20200
Cl	Cl	0.27922 0.40172 0.51347 -0.20200
Cl	Cl	0.14667 0.34651 0.51847 -0.20300
Cl	Cl	0.07106 0.32323 0.66448 -0.20400
Cl	Cl	0.92185 0.19137 0.47700 -0.20200
Cl	Cl	0.99666 0.21289 0.33293 -0.19400
Cl	Cl	0.00882 0.29291 0.16316 -0.19800
Cl	Cl	0.93677 0.26719 0.01545 -0.20300
Cl	Cl	0.06332 0.23563 0.83123 -0.19800
Cl	Cl	0.13545 0.26184 0.98028 -0.19900
Cl	Cl	0.20114 0.38725 0.97224 -0.19700
Cl	Cl	0.22396 0.46260 0.82875 -0.20500
Cl	Cl	0.35507 0.61334 0.01723 -0.20100
Cl	Cl	0.33178 0.53678 0.16098 -0.20300
O 	O 	0.19820 0.33430 0.24700 -0.66100
O 	O 	0.20500 0.41250 0.34140 -0.38100
O 	O 	0.28300 0.42660 0.32480 -0.38500
O 	O 	0.26680 0.56970 0.66990 -0.40100
O 	O 	0.34910 0.59760 0.64680 -0.36600
O 	O 	0.11320 0.32910 0.32340 -0.38200
O 	O 	0.11750 0.26050 0.34980 -0.39900
O 	O 	0.94940 0.27570 0.64850 -0.36500
O 	O 	0.95320 0.20480 0.66730 -0.39500
O 	O 	0.12720 0.33650 0.14830 -0.38200
O 	O 	0.10550 0.25570 0.17510 -0.36700
O 	O 	0.94580 0.19490 0.84440 -0.38200
O 	O 	0.96430 0.27250 0.82810 -0.41600
O 	O 	0.21690 0.42440 0.16900 -0.38900
O 	O 	0.28140 0.41090 0.14610 -0.37300
O 	O 	0.26670 0.58130 0.84840 -0.39700
O 	O 	0.33760 0.58150 0.82600 -0.37900
C 	C 	0.29660 0.56790 0.86170 0.47200
C 	C 	0.25280 0.43490 0.35770 0.44500
C 	C 	0.26565 0.46965 0.42930 -0.13100
C 	C 	0.26473 0.51423 0.42180 0.17400
C 	C 	0.27662 0.54602 0.48820 0.16400
C 	C 	0.28940 0.53360 0.56200 -0.11100
C 	C 	0.29020 0.48900 0.56920 0.16700
C 	C 	0.27850 0.45700 0.50290 0.17400
C 	C 	0.30150 0.56980 0.63460 0.43500
C 	C 	0.10420 0.28980 0.36460 0.45900
C 	C 	0.06720 0.27845 0.43490 -0.12100
C 	C 	0.08430 0.30328 0.50850 0.16900
C 	C 	0.05130 0.29340 0.57230 0.17000
C 	C 	0.00080 0.25840 0.56320 -0.12500
C 	C 	0.98350 0.23360 0.48940 0.17300
C 	C 	0.01650 0.24350 0.42500 0.16700
C 	C 	0.96420 0.24480 0.63240 0.43500
C 	C 	0.10480 0.29070 0.13450 0.42400
C 	C 	0.06790 0.27600 0.06390 -0.11200
C 	C 	0.02350 0.27710 0.07150 0.16600
C 	C 	0.99160 0.26550 0.00520 0.17700
C 	C 	0.00410 0.25270 0.93110 -0.14800
C 	C 	0.04860 0.25170 0.92360 0.18300
C 	C 	0.08050 0.26340 0.99040 0.16300
C 	C 	0.96800 0.24120 0.86290 0.49000
C 	C 	0.25550 0.43070 0.13150 0.43300
C 	C 	0.26770 0.46620 0.05820 -0.11200
C 	C 	0.24347 0.44942 0.98400 0.16600
C 	C 	0.25360 0.48293 0.92060 0.17400
C 	C 	0.28810 0.53360 0.93120 -0.14300
C 	C 	0.31250 0.55060 0.00540 0.18000
C 	C 	0.30240 0.51680 0.06870 0.16000
Fe	Fe	0.62809 0.79768 0.24583 1.26200
Fe	Fe	0.63378 0.90811 0.24751 1.20600
Fe	Fe	0.73753 0.89855 0.25327 1.23300
Fe	Fe	0.38050 0.64325 0.74646 1.22600
Cl	Cl	0.47113 0.72042 0.32947 -0.20200
Cl	Cl	0.39931 0.67424 0.47896 -0.19700
Cl	Cl	0.52425 0.83099 0.66114 -0.20200
Cl	Cl	0.59828 0.87750 0.51347 -0.20200
Cl	Cl	0.65349 0.80016 0.51847 -0.20300
Cl	Cl	0.67677 0.74783 0.66448 -0.20400
Cl	Cl	0.80863 0.73048 0.47700 -0.20200
Cl	Cl	0.78711 0.78377 0.33293 -0.19400
Cl	Cl	0.70709 0.71591 0.16316 -0.19800
Cl	Cl	0.73281 0.66958 0.01545 -0.20400
Cl	Cl	0.76437 0.82769 0.83123 -0.19800
Cl	Cl	0.73816 0.87361 0.98028 -0.19900
Cl	Cl	0.61275 0.81389 0.97224 -0.19700
Cl	Cl	0.53740 0.76136 0.82875 -0.20500
Cl	Cl	0.38666 0.74173 0.01723 -0.20100
Cl	Cl	0.46322 0.79500 0.16098 -0.20300
O 	O 	0.66570 0.86390 0.24700 -0.66100
O 	O 	0.58750 0.79250 0.34140 -0.38100
O 	O 	0.57340 0.85640 0.32480 -0.38500
O 	O 	0.43030 0.69710 0.66990 -0.40100
O 	O 	0.40240 0.75150 0.64680 -0.36600
O 	O 	0.67090 0.78410 0.32340 -0.38200
O 	O 	0.73950 0.85700 0.34980 -0.39900
O 	O 	0.72430 0.67370 0.64850 -0.36400
O 	O 	0.79520 0.74840 0.66730 -0.39500
O 	O 	0.66350 0.79070 0.14830 -0.38200
O 	O 	0.74430 0.84980 0.17510 -0.36700
O 	O 	0.80510 0.75090 0.84440 -0.38200
O 	O 	0.72750 0.69180 0.82810 -0.41500
O 	O 	0.57560 0.79250 0.16900 -0.38900
O 	O 	0.58910 0.87050 0.14610 -0.37400
O 	O 	0.41870 0.68540 0.84840 -0.39700
O 	O 	0.41850 0.75610 0.82600 -0.37900
C 	C 	0.43210 0.72870 0.86170 0.47200
C 	C 	0.56510 0.81790 0.35770 0.44500
C 	C 	0.53035 0.79600 0.42930 -0.13100
C 	C 	0.48577 0.75050 0.42180 0.17400
C 	C 	0.45398 0.73060 0.48820 0.16400
C 	C 	0.46640 0.75580 0.56200 -0.11100
C 	C 	0.51100 0.80120 0.56920 0.16700
C 	C 	0.54300 0.82150 0.50290 0.17400
C 	C 	0.43020 0.73170 0.63460 0.43500
C 	C 	0.71020 0.81440 0.36460 0.45900
C 	C 	0.72155 0.78875 0.43490 -0.12100
C 	C 	0.69672 0.78102 0.50850 0.16900
C 	C 	0.70660 0.75790 0.57230 0.17000
C 	C 	0.74160 0.74240 0.56320 -0.12500
C 	C 	0.76640 0.74990 0.48940 0.17300
C 	C 	0.75650 0.77300 0.42500 0.16700
C 	C 	0.75520 0.71940 0.63240 0.43600
C 	C 	0.70930 0.81410 0.13450 0.42400
C 	C 	0.72400 0.79190 0.06390 -0.11200
C 	C 	0.72290 0.74640 0.07150 0.16700
C 	C 	0.73450 0.72610 0.00520 0.17600
C 	C 	0.74730 0.75140 0.93110 -0.14800
C 	C 	0.74830 0.79690 0.92360 0.18300
C 	C 	0.73660 0.81710 0.99040 0.16300
C 	C 	0.75880 0.72680 0.86290 0.49100
C 	C 	0.56930 0.82480 0.13150 0.43300
C 	C 	0.53380 0.80150 0.05820 -0.11200
C 	C 	0.55058 0.79405 0.98400 0.16600
C 	C 	0.51707 0.77067 0.92060 0.17400
C 	C 	0.46640 0.75450 0.93120 -0.14300
C 	C 	0.44940 0.76190 0.00540 0.18000
C 	C 	0.48320 0.78560 0.06870 0.16100
O 	O 	0.66667 0.33333 0.25300 -0.64700
O 	O 	0.33333 0.66667 0.74700 -0.64700
