data_crystal

_cell_length_a 16.31800
_cell_length_b 16.31800
_cell_length_c 6.50800
_cell_angle_alpha 90.00000
_cell_angle_beta  90.00000
_cell_angle_gamma 90.00000

_symmetry_space_group_name_	'P 1'
_symmetry_space_group_name_H-M	'P 1'

loop_
_symmetry_equiv_pos_as_xyz
  x,y,z

loop_
_atom_site_label
_atom_site_type_symbol
_atom_site_fract_x
_atom_site_fract_y
_atom_site_fract_z
_atom_site_charge
C 	C 	0.60220 0.78460 0.36160 0.30000
C 	C 	0.54220 0.75400 0.21020 -0.03200
N 	N 	0.56860 0.71410 0.03750 -0.31900
O 	O 	0.67686 0.76715 0.32680 -0.49300
O 	O 	0.57930 0.82530 0.51710 -0.21600
C 	C 	0.39780 0.21540 0.36160 0.29900
C 	C 	0.45780 0.24600 0.21020 -0.03000
N 	N 	0.43140 0.28590 0.03750 -0.31800
O 	O 	0.32314 0.23285 0.32680 -0.49400
O 	O 	0.42070 0.17470 0.51710 -0.21500
C 	C 	0.71540 0.10220 0.86160 0.43200
C 	C 	0.74600 0.04220 0.71020 -0.01700
N 	N 	0.78590 0.06860 0.53750 -0.23200
O 	O 	0.73285 0.17686 0.82680 -0.47500
O 	O 	0.67470 0.07930 0.01710 -0.32700
C 	C 	0.28460 0.89780 0.86160 0.43700
C 	C 	0.25400 0.95780 0.71020 -0.03600
N 	N 	0.21410 0.93140 0.53750 -0.23300
O 	O 	0.26715 0.82314 0.82680 -0.47700
O 	O 	0.32530 0.92070 0.01710 -0.33500
Cd	Cd	0.70538 0.29462 -0.00000 1.19400
C 	C 	0.50000 0.69160 0.93780 0.34700
C 	C 	0.50000 0.64160 0.74290 -0.28300
C 	C 	0.50000 0.30840 0.93780 0.34600
C 	C 	0.50000 0.35840 0.74290 -0.28000
H 	H 	0.56485 0.61932 0.70941 0.07300
H 	H 	0.47754 0.68108 0.60980 0.08900
H 	H 	0.45761 0.58661 0.76217 0.08100
H 	H 	0.56485 0.36132 0.67818 0.07200
H 	H 	0.47754 0.42307 0.77778 0.08400
H 	H 	0.45761 0.32860 0.62542 0.08200
C 	C 	0.78460 0.60220 0.63840 0.30600
C 	C 	0.75400 0.54220 0.78980 -0.01200
N 	N 	0.71410 0.56860 0.96250 -0.14000
O 	O 	0.76715 0.67686 0.67320 -0.47000
O 	O 	0.82530 0.57930 0.48290 -0.24000
C 	C 	0.21540 0.39780 0.63840 0.30600
C 	C 	0.24600 0.45780 0.78980 -0.01100
N 	N 	0.28590 0.43140 0.96250 -0.14000
O 	O 	0.23285 0.32314 0.67320 -0.47000
O 	O 	0.17470 0.42070 0.48290 -0.23800
C 	C 	0.10220 0.71540 0.13840 0.16300
C 	C 	0.04220 0.74600 0.28980 -0.00100
N 	N 	0.06860 0.78590 0.46250 -0.23800
O 	O 	0.17686 0.73285 0.17320 -0.48300
O 	O 	0.07930 0.67470 0.98290 -0.11200
C 	C 	0.89780 0.28460 0.13840 0.17000
C 	C 	0.95780 0.25400 0.28980 -0.03300
N 	N 	0.93140 0.21410 0.46250 -0.23900
O 	O 	0.82314 0.26715 0.17320 -0.48600
O 	O 	0.92070 0.32530 0.98290 -0.12600
Cd	Cd	0.29462 0.70538 -0.00000 1.19300
C 	C 	0.69160 0.50000 0.06220 -0.02900
C 	C 	0.64160 0.50000 0.25710 -0.16500
C 	C 	0.30840 0.50000 0.06220 -0.03100
C 	C 	0.35840 0.50000 0.25710 -0.16200
H 	H 	0.61932 0.56485 0.29059 0.02500
H 	H 	0.68108 0.47754 0.39020 0.05800
H 	H 	0.58661 0.45761 0.23783 0.02100
H 	H 	0.36132 0.56485 0.32182 0.02900
H 	H 	0.42307 0.47754 0.22222 0.01900
H 	H 	0.32860 0.45761 0.37458 0.04900
C 	C 	0.28460 0.10220 0.86160 0.43200
C 	C 	0.25400 0.04220 0.71020 -0.01700
N 	N 	0.21410 0.06860 0.53750 -0.23200
O 	O 	0.26715 0.17686 0.82680 -0.47500
O 	O 	0.32530 0.07930 0.01710 -0.32800
C 	C 	0.71540 0.89780 0.86160 0.43700
C 	C 	0.74600 0.95780 0.71020 -0.03600
N 	N 	0.78590 0.93140 0.53750 -0.23400
O 	O 	0.73285 0.82314 0.82680 -0.47700
O 	O 	0.67470 0.92070 0.01710 -0.33500
C 	C 	0.60220 0.21540 0.36160 0.30100
C 	C 	0.54220 0.24600 0.21020 -0.03000
N 	N 	0.56860 0.28590 0.03750 -0.31800
O 	O 	0.67686 0.23285 0.32680 -0.49300
O 	O 	0.57930 0.17470 0.51710 -0.21400
C 	C 	0.39780 0.78460 0.36160 0.29900
C 	C 	0.45780 0.75400 0.21020 -0.03200
N 	N 	0.43140 0.71410 0.03750 -0.31900
O 	O 	0.32314 0.76715 0.32680 -0.49400
O 	O 	0.42070 0.82530 0.51710 -0.21700
Cd	Cd	0.79462 0.20538 0.50000 1.23000
C 	C 	0.19160 0.00000 0.43780 0.16200
C 	C 	0.14160 0.00000 0.24290 -0.20200
C 	C 	0.80840 0.00000 0.43780 0.15900
C 	C 	0.85840 0.00000 0.24290 -0.19800
H 	H 	0.11932 0.06485 0.20941 0.02500
H 	H 	0.18108 0.97754 0.10980 0.03200
H 	H 	0.08661 0.95761 0.26217 0.03000
H 	H 	0.86132 0.06485 0.17818 0.02100
H 	H 	0.92307 0.97754 0.27778 0.02600
H 	H 	0.82860 0.95761 0.12542 0.02500
C 	C 	0.10220 0.28460 0.13840 0.16300
C 	C 	0.04220 0.25400 0.28980 -0.00200
N 	N 	0.06860 0.21410 0.46250 -0.23700
O 	O 	0.17686 0.26715 0.17320 -0.48300
O 	O 	0.07930 0.32530 0.98290 -0.11300
C 	C 	0.89780 0.71540 0.13840 0.17000
C 	C 	0.95780 0.74600 0.28980 -0.03200
N 	N 	0.93140 0.78590 0.46250 -0.23900
O 	O 	0.82314 0.73285 0.17320 -0.48600
O 	O 	0.92070 0.67470 0.98290 -0.12400
C 	C 	0.21540 0.60220 0.63840 0.30700
C 	C 	0.24600 0.54220 0.78980 -0.01100
N 	N 	0.28590 0.56860 0.96250 -0.14000
O 	O 	0.23285 0.67686 0.67320 -0.46900
O 	O 	0.17470 0.57930 0.48290 -0.23700
C 	C 	0.78460 0.39780 0.63840 0.30500
C 	C 	0.75400 0.45780 0.78980 -0.01200
N 	N 	0.71410 0.43140 0.96250 -0.14000
O 	O 	0.76715 0.32314 0.67320 -0.47000
O 	O 	0.82530 0.42070 0.48290 -0.24100
Cd	Cd	0.20538 0.79462 0.50000 1.23000
C 	C 	-0.00000 0.19160 0.56220 0.16700
C 	C 	0.00000 0.14160 0.75710 -0.20800
C 	C 	-0.00000 0.80840 0.56220 0.16500
C 	C 	0.00000 0.85840 0.75710 -0.20500
H 	H 	0.06485 0.11932 0.79059 0.06800
H 	H 	0.97754 0.18108 0.89020 0.09500
H 	H 	0.95761 0.08661 0.73783 0.05700
H 	H 	0.06485 0.86132 0.82182 0.07200
H 	H 	0.97754 0.92307 0.72222 0.05200
H 	H 	0.95761 0.82860 0.87458 0.08600
Cd	Cd	0.79462 0.79462 0.50000 1.23000
Cd	Cd	0.20538 0.20538 0.50000 1.23000
Cd	Cd	0.29462 0.29462 -0.00000 1.19300
Cd	Cd	0.70538 0.70538 -0.00000 1.19400
