data_crystal

_cell_length_a 16.36930
_cell_length_b 24.80300
_cell_length_c 24.80300
_cell_angle_alpha 120.00000
_cell_angle_beta  90.00000
_cell_angle_gamma 90.00000

_symmetry_space_group_name_	'P 1'
_symmetry_space_group_name_H-M	'P 1'

loop_
_symmetry_equiv_pos_as_xyz
  x,y,z

loop_
_atom_site_label
_atom_site_type_symbol
_atom_site_fract_x
_atom_site_fract_y
_atom_site_fract_z
_atom_site_charge
Co	Co	0.34638 0.34345 0.10763 1.16300
Co	Co	0.34638 0.76418 0.65655 1.16300
Co	Co	0.34638 0.89237 0.23582 1.16300
Co	Co	0.84638 0.65655 0.89237 1.16300
Co	Co	0.84638 0.23582 0.34345 1.16300
Co	Co	0.84638 0.10763 0.76418 1.16300
Co	Co	0.65362 0.65655 0.89237 1.16300
Co	Co	0.65362 0.23582 0.34345 1.16300
Co	Co	0.65362 0.10763 0.76418 1.16300
Co	Co	0.15362 0.34345 0.10763 1.16300
Co	Co	0.15362 0.76418 0.65655 1.16200
Co	Co	0.15362 0.89237 0.23582 1.16200
Co	Co	0.75000 0.64102 0.24182 1.19200
Co	Co	0.75000 0.60080 0.35898 1.19200
Co	Co	0.75000 0.75818 0.39920 1.19200
Co	Co	0.25000 0.35898 0.75818 1.19200
Co	Co	0.25000 0.39920 0.64102 1.19200
Co	Co	0.25000 0.24182 0.60080 1.19200
Co	Co	0.25000 0.20157 0.08008 1.16600
Co	Co	0.25000 0.87851 0.79843 1.16600
Co	Co	0.25000 0.91992 0.12149 1.16600
Co	Co	0.75000 0.79843 0.91992 1.16600
Co	Co	0.75000 0.12149 0.20157 1.16600
Co	Co	0.75000 0.08008 0.87851 1.16600
H 	H 	0.63160 0.61550 0.13550 0.02100
H 	H 	0.62590 0.61410 0.04260 0.06400
H 	H 	0.41970 0.42730 0.23850 0.01700
H 	H 	0.52460 0.49430 0.28650 0.06000
H 	H 	0.57040 0.49440 0.12790 0.06400
H 	H 	0.46510 0.42540 0.08340 0.01400
H 	H 	0.37990 0.27550 0.96530 -0.00000
H 	H 	0.47660 0.21680 0.89310 0.06500
H 	H 	0.61550 0.22850 0.03280 0.06300
H 	H 	0.51450 0.28520 0.09950 0.01300
H 	H 	0.63160 0.52000 0.38450 0.02100
H 	H 	0.62590 0.42850 0.38590 0.06400
H 	H 	0.41970 0.81120 0.57270 0.01700
H 	H 	0.52460 0.79220 0.50570 0.06000
H 	H 	0.57040 0.63350 0.50560 0.06400
H 	H 	0.46510 0.65800 0.57460 0.01400
H 	H 	0.37990 0.68980 0.72450 -0.00000
H 	H 	0.47660 0.67630 0.78320 0.06500
H 	H 	0.61550 0.80430 0.77150 0.06300
H 	H 	0.51450 0.81430 0.71480 0.01300
H 	H 	0.63160 0.86450 0.48000 0.02100
H 	H 	0.62590 0.95740 0.57150 0.06400
H 	H 	0.41970 0.76150 0.18880 0.01700
H 	H 	0.52460 0.71350 0.20780 0.06000
H 	H 	0.57040 0.87210 0.36650 0.06400
H 	H 	0.46510 0.91660 0.34200 0.01400
H 	H 	0.37990 0.03470 0.31020 -0.00000
H 	H 	0.47660 0.10690 0.32370 0.06500
H 	H 	0.61550 0.96720 0.19570 0.06300
H 	H 	0.51450 0.90050 0.18570 0.01300
H 	H 	0.13160 0.38450 0.86450 0.02100
H 	H 	0.12590 0.38590 0.95740 0.06400
H 	H 	0.91970 0.57270 0.76150 0.01700
H 	H 	0.02460 0.50570 0.71350 0.06000
H 	H 	0.07040 0.50560 0.87210 0.06400
H 	H 	0.96510 0.57460 0.91660 0.01400
H 	H 	0.87990 0.72450 0.03470 -0.00000
H 	H 	0.97660 0.78320 0.10690 0.06500
H 	H 	0.11550 0.77150 0.96720 0.06300
H 	H 	0.01450 0.71480 0.90050 0.01300
H 	H 	0.13160 0.48000 0.61550 0.02100
H 	H 	0.12590 0.57150 0.61410 0.06400
H 	H 	0.91970 0.18880 0.42730 0.01700
H 	H 	0.02460 0.20780 0.49430 0.06000
H 	H 	0.07040 0.36650 0.49440 0.06400
H 	H 	0.96510 0.34200 0.42540 0.01400
H 	H 	0.87990 0.31020 0.27550 -0.00000
H 	H 	0.97660 0.32370 0.21680 0.06500
H 	H 	0.11550 0.19570 0.22850 0.06300
H 	H 	0.01450 0.18570 0.28520 0.01300
H 	H 	0.13160 0.13550 0.52000 0.02100
H 	H 	0.12590 0.04260 0.42850 0.06400
H 	H 	0.91970 0.23850 0.81120 0.01700
H 	H 	0.02460 0.28650 0.79220 0.06100
H 	H 	0.07040 0.12790 0.63350 0.06400
H 	H 	0.96510 0.08340 0.65800 0.01400
H 	H 	0.87990 0.96530 0.68980 -0.00000
H 	H 	0.97660 0.89310 0.67630 0.06500
H 	H 	0.11550 0.03280 0.80430 0.06300
H 	H 	0.01450 0.09950 0.81430 0.01300
H 	H 	0.36840 0.38450 0.86450 0.02100
H 	H 	0.37410 0.38590 0.95740 0.06400
H 	H 	0.58030 0.57270 0.76150 0.01700
H 	H 	0.47540 0.50570 0.71350 0.06000
H 	H 	0.42960 0.50560 0.87210 0.06400
H 	H 	0.53490 0.57460 0.91660 0.01400
H 	H 	0.62010 0.72450 0.03470 -0.00000
H 	H 	0.52340 0.78320 0.10690 0.06500
H 	H 	0.38450 0.77150 0.96720 0.06300
H 	H 	0.48550 0.71480 0.90050 0.01300
H 	H 	0.36840 0.48000 0.61550 0.02100
H 	H 	0.37410 0.57150 0.61410 0.06400
H 	H 	0.58030 0.18880 0.42730 0.01700
H 	H 	0.47540 0.20780 0.49430 0.06000
H 	H 	0.42960 0.36650 0.49440 0.06400
H 	H 	0.53490 0.34200 0.42540 0.01400
H 	H 	0.62010 0.31020 0.27550 -0.00000
H 	H 	0.52340 0.32370 0.21680 0.06500
H 	H 	0.38450 0.19570 0.22850 0.06300
H 	H 	0.48550 0.18570 0.28520 0.01300
H 	H 	0.36840 0.13550 0.52000 0.02100
H 	H 	0.37410 0.04260 0.42850 0.06400
H 	H 	0.58030 0.23850 0.81120 0.01700
H 	H 	0.47540 0.28650 0.79220 0.06000
H 	H 	0.42960 0.12790 0.63350 0.06400
H 	H 	0.53490 0.08340 0.65800 0.01400
H 	H 	0.62010 0.96530 0.68980 -0.00000
H 	H 	0.52340 0.89310 0.67630 0.06500
H 	H 	0.38450 0.03280 0.80430 0.06300
H 	H 	0.48550 0.09950 0.81430 0.01300
H 	H 	0.86840 0.61550 0.13550 0.02100
H 	H 	0.87410 0.61410 0.04260 0.06400
H 	H 	0.08030 0.42730 0.23850 0.01700
H 	H 	0.97540 0.49430 0.28650 0.06000
H 	H 	0.92960 0.49440 0.12790 0.06400
H 	H 	0.03490 0.42540 0.08340 0.01400
H 	H 	0.12010 0.27550 0.96530 -0.00000
H 	H 	0.02340 0.21680 0.89310 0.06500
H 	H 	0.88450 0.22850 0.03280 0.06300
H 	H 	0.98550 0.28520 0.09950 0.01300
H 	H 	0.86840 0.52000 0.38450 0.02100
H 	H 	0.87410 0.42850 0.38590 0.06400
H 	H 	0.08030 0.81120 0.57270 0.01700
H 	H 	0.97540 0.79220 0.50570 0.06000
H 	H 	0.92960 0.63350 0.50560 0.06400
H 	H 	0.03490 0.65800 0.57460 0.01400
H 	H 	0.12010 0.68980 0.72450 -0.00000
H 	H 	0.02340 0.67630 0.78320 0.06500
H 	H 	0.88450 0.80430 0.77150 0.06300
H 	H 	0.98550 0.81430 0.71480 0.01300
H 	H 	0.86840 0.86450 0.48000 0.02100
H 	H 	0.87410 0.95740 0.57150 0.06400
H 	H 	0.08030 0.76150 0.18880 0.01700
H 	H 	0.97540 0.71350 0.20780 0.06100
H 	H 	0.92960 0.87210 0.36650 0.06400
H 	H 	0.03490 0.91660 0.34200 0.01400
H 	H 	0.12010 0.03470 0.31020 -0.00000
H 	H 	0.02340 0.10690 0.32370 0.06500
H 	H 	0.88450 0.96720 0.19570 0.06300
H 	H 	0.98550 0.90050 0.18570 0.01300
H 	H 	0.25000 0.26480 0.03050 0.24700
H 	H 	0.25000 0.40950 0.21240 0.26300
H 	H 	0.25000 0.76570 0.73520 0.24700
H 	H 	0.25000 0.80290 0.59050 0.26300
H 	H 	0.25000 0.96950 0.23430 0.24700
H 	H 	0.25000 0.78760 0.19710 0.26300
H 	H 	0.75000 0.73520 0.96950 0.24700
H 	H 	0.75000 0.59050 0.78760 0.26300
H 	H 	0.75000 0.23430 0.26480 0.24700
H 	H 	0.75000 0.19710 0.40950 0.26300
H 	H 	0.75000 0.03050 0.76570 0.24700
H 	H 	0.75000 0.21240 0.80290 0.26300
C 	C 	0.68030 0.61640 0.11660 0.04600
C 	C 	0.67600 0.61450 0.06030 -0.06600
C 	C 	0.45140 0.44020 0.21590 0.03000
C 	C 	0.51350 0.48110 0.24490 -0.04900
C 	C 	0.56020 0.50340 0.21420 -0.05300
C 	C 	0.54100 0.48110 0.15120 -0.06000
C 	C 	0.47790 0.43920 0.12480 0.04800
C 	C 	0.63260 0.54670 0.24420 0.39700
C 	C 	0.42800 0.26620 0.97880 0.05200
C 	C 	0.48590 0.23020 0.93490 -0.07200
C 	C 	0.55530 0.21440 0.95210 -0.02200
C 	C 	0.56780 0.23730 0.01830 -0.06900
C 	C 	0.50790 0.27170 0.05740 0.05500
C 	C 	0.61720 0.17050 0.90480 0.32000
C 	C 	0.68030 0.50020 0.38360 0.04600
C 	C 	0.67600 0.44580 0.38550 -0.06600
C 	C 	0.45140 0.77570 0.55980 0.03000
C 	C 	0.51350 0.76380 0.51890 -0.04900
C 	C 	0.56020 0.71080 0.49660 -0.05300
C 	C 	0.54100 0.67010 0.51890 -0.06000
C 	C 	0.47790 0.68560 0.56080 0.04800
C 	C 	0.63260 0.69750 0.45330 0.39700
C 	C 	0.42800 0.71260 0.73380 0.05200
C 	C 	0.48590 0.70470 0.76980 -0.07200
C 	C 	0.55530 0.73770 0.78560 -0.02200
C 	C 	0.56780 0.78100 0.76270 -0.06900
C 	C 	0.50790 0.78570 0.72830 0.05500
C 	C 	0.61720 0.73430 0.82950 0.32000
C 	C 	0.68030 0.88340 0.49980 0.04600
C 	C 	0.67600 0.93970 0.55420 -0.06600
C 	C 	0.45140 0.78410 0.22430 0.03000
C 	C 	0.51350 0.75510 0.23620 -0.04900
C 	C 	0.56020 0.78580 0.28920 -0.05300
C 	C 	0.54100 0.84880 0.32990 -0.06000
C 	C 	0.47790 0.87520 0.31440 0.04800
C 	C 	0.63260 0.75580 0.30250 0.39700
C 	C 	0.42800 0.02120 0.28740 0.05200
C 	C 	0.48590 0.06510 0.29530 -0.07200
C 	C 	0.55530 0.04790 0.26230 -0.02200
C 	C 	0.56780 0.98170 0.21900 -0.07000
C 	C 	0.50790 0.94260 0.21430 0.05500
C 	C 	0.61720 0.09520 0.26570 0.32000
C 	C 	0.18030 0.38360 0.88340 0.04600
C 	C 	0.17600 0.38550 0.93970 -0.06600
C 	C 	0.95140 0.55980 0.78410 0.03000
C 	C 	0.01350 0.51890 0.75510 -0.05000
C 	C 	0.06020 0.49660 0.78580 -0.05300
C 	C 	0.04100 0.51890 0.84880 -0.06000
C 	C 	0.97790 0.56080 0.87520 0.04800
C 	C 	0.13260 0.45330 0.75580 0.39700
C 	C 	0.92800 0.73380 0.02120 0.05200
C 	C 	0.98590 0.76980 0.06510 -0.07300
C 	C 	0.05530 0.78560 0.04790 -0.02100
C 	C 	0.06780 0.76270 0.98170 -0.07000
C 	C 	0.00790 0.72830 0.94260 0.05500
C 	C 	0.11720 0.82950 0.09520 0.32000
C 	C 	0.18030 0.49980 0.61640 0.04600
C 	C 	0.17600 0.55420 0.61450 -0.06600
C 	C 	0.95140 0.22430 0.44020 0.03000
C 	C 	0.01350 0.23620 0.48110 -0.05000
C 	C 	0.06020 0.28920 0.50340 -0.05300
C 	C 	0.04100 0.32990 0.48110 -0.06000
C 	C 	0.97790 0.31440 0.43920 0.04800
C 	C 	0.13260 0.30250 0.54670 0.39700
C 	C 	0.92800 0.28740 0.26620 0.05200
C 	C 	0.98590 0.29530 0.23020 -0.07200
C 	C 	0.05530 0.26230 0.21440 -0.02200
C 	C 	0.06780 0.21900 0.23730 -0.06900
C 	C 	0.00790 0.21430 0.27170 0.05500
C 	C 	0.11720 0.26570 0.17050 0.32000
C 	C 	0.18030 0.11660 0.50020 0.04600
C 	C 	0.17600 0.06030 0.44580 -0.06600
C 	C 	0.95140 0.21590 0.77570 0.03100
C 	C 	0.01350 0.24490 0.76380 -0.05000
C 	C 	0.06020 0.21420 0.71080 -0.05300
C 	C 	0.04100 0.15120 0.67010 -0.06100
C 	C 	0.97790 0.12480 0.68560 0.04800
C 	C 	0.13260 0.24420 0.69750 0.39700
C 	C 	0.92800 0.97880 0.71260 0.05200
C 	C 	0.98590 0.93490 0.70470 -0.07300
C 	C 	0.05530 0.95210 0.73770 -0.02100
C 	C 	0.06780 0.01830 0.78100 -0.07000
C 	C 	0.00790 0.05740 0.78570 0.05500
C 	C 	0.11720 0.90480 0.73430 0.32000
C 	C 	0.31970 0.38360 0.88340 0.04600
C 	C 	0.32400 0.38550 0.93970 -0.06600
C 	C 	0.54860 0.55980 0.78410 0.03000
C 	C 	0.48650 0.51890 0.75510 -0.04900
C 	C 	0.43980 0.49660 0.78580 -0.05300
C 	C 	0.45900 0.51890 0.84880 -0.06000
C 	C 	0.52210 0.56080 0.87520 0.04800
C 	C 	0.36740 0.45330 0.75580 0.39700
C 	C 	0.57200 0.73380 0.02120 0.05200
C 	C 	0.51410 0.76980 0.06510 -0.07200
C 	C 	0.44470 0.78560 0.04790 -0.02200
C 	C 	0.43220 0.76270 0.98170 -0.06900
C 	C 	0.49210 0.72830 0.94260 0.05500
C 	C 	0.38280 0.82950 0.09520 0.32000
C 	C 	0.31970 0.49980 0.61640 0.04600
C 	C 	0.32400 0.55420 0.61450 -0.06600
C 	C 	0.54860 0.22430 0.44020 0.03000
C 	C 	0.48650 0.23620 0.48110 -0.04900
C 	C 	0.43980 0.28920 0.50340 -0.05300
C 	C 	0.45900 0.32990 0.48110 -0.06000
C 	C 	0.52210 0.31440 0.43920 0.04800
C 	C 	0.36740 0.30250 0.54670 0.39700
C 	C 	0.57200 0.28740 0.26620 0.05200
C 	C 	0.51410 0.29530 0.23020 -0.07200
C 	C 	0.44470 0.26230 0.21440 -0.02200
C 	C 	0.43220 0.21900 0.23730 -0.06900
C 	C 	0.49210 0.21430 0.27170 0.05500
C 	C 	0.38280 0.26570 0.17050 0.32000
C 	C 	0.31970 0.11660 0.50020 0.04600
C 	C 	0.32400 0.06030 0.44580 -0.06600
C 	C 	0.54860 0.21590 0.77570 0.03000
C 	C 	0.48650 0.24490 0.76380 -0.04900
C 	C 	0.43980 0.21420 0.71080 -0.05300
C 	C 	0.45900 0.15120 0.67010 -0.06000
C 	C 	0.52210 0.12480 0.68560 0.04800
C 	C 	0.36740 0.24420 0.69750 0.39700
C 	C 	0.57200 0.97880 0.71260 0.05200
C 	C 	0.51410 0.93490 0.70470 -0.07200
C 	C 	0.44470 0.95210 0.73770 -0.02200
C 	C 	0.43220 0.01830 0.78100 -0.07000
C 	C 	0.49210 0.05740 0.78570 0.05500
C 	C 	0.38280 0.90480 0.73430 0.32000
C 	C 	0.81970 0.61640 0.11660 0.04600
C 	C 	0.82400 0.61450 0.06030 -0.06600
C 	C 	0.04860 0.44020 0.21590 0.03000
C 	C 	0.98650 0.48110 0.24490 -0.05000
C 	C 	0.93980 0.50340 0.21420 -0.05300
C 	C 	0.95900 0.48110 0.15120 -0.06000
C 	C 	0.02210 0.43920 0.12480 0.04800
C 	C 	0.86740 0.54670 0.24420 0.39700
C 	C 	0.07200 0.26620 0.97880 0.05200
C 	C 	0.01410 0.23020 0.93490 -0.07300
C 	C 	0.94470 0.21440 0.95210 -0.02100
C 	C 	0.93220 0.23730 0.01830 -0.07000
C 	C 	0.99210 0.27170 0.05740 0.05500
C 	C 	0.88280 0.17050 0.90480 0.32000
C 	C 	0.81970 0.50020 0.38360 0.04600
C 	C 	0.82400 0.44580 0.38550 -0.06600
C 	C 	0.04860 0.77570 0.55980 0.03000
C 	C 	0.98650 0.76380 0.51890 -0.05000
C 	C 	0.93980 0.71080 0.49660 -0.05300
C 	C 	0.95900 0.67010 0.51890 -0.06000
C 	C 	0.02210 0.68560 0.56080 0.04800
C 	C 	0.86740 0.69750 0.45330 0.39700
C 	C 	0.07200 0.71260 0.73380 0.05200
C 	C 	0.01410 0.70470 0.76980 -0.07200
C 	C 	0.94470 0.73770 0.78560 -0.02200
C 	C 	0.93220 0.78100 0.76270 -0.06900
C 	C 	0.99210 0.78570 0.72830 0.05500
C 	C 	0.88280 0.73430 0.82950 0.32000
C 	C 	0.81970 0.88340 0.49980 0.04600
C 	C 	0.82400 0.93970 0.55420 -0.06600
C 	C 	0.04860 0.78410 0.22430 0.03100
C 	C 	0.98650 0.75510 0.23620 -0.05000
C 	C 	0.93980 0.78580 0.28920 -0.05300
C 	C 	0.95900 0.84880 0.32990 -0.06100
C 	C 	0.02210 0.87520 0.31440 0.04800
C 	C 	0.86740 0.75580 0.30250 0.39700
C 	C 	0.07200 0.02120 0.28740 0.05200
C 	C 	0.01410 0.06510 0.29530 -0.07300
C 	C 	0.94470 0.04790 0.26230 -0.02100
C 	C 	0.93220 0.98170 0.21900 -0.07000
C 	C 	0.99210 0.94260 0.21430 0.05500
C 	C 	0.88280 0.09520 0.26570 0.32000
C 	C 	0.75000 0.61330 0.03030 -0.04400
C 	C 	0.75000 0.61730 0.97170 0.34700
C 	C 	0.75000 0.41700 0.38670 -0.04400
C 	C 	0.75000 0.35440 0.38270 0.34700
C 	C 	0.75000 0.96970 0.58300 -0.04400
C 	C 	0.75000 0.02830 0.64560 0.34700
C 	C 	0.25000 0.38670 0.96970 -0.04400
C 	C 	0.25000 0.38270 0.02830 0.34700
C 	C 	0.25000 0.58300 0.61330 -0.04400
C 	C 	0.25000 0.64560 0.61730 0.34700
C 	C 	0.25000 0.03030 0.41700 -0.04400
C 	C 	0.25000 0.97170 0.35440 0.34700
N 	N 	0.43450 0.41760 0.15430 -0.20800
N 	N 	0.43790 0.28800 0.03950 -0.21800
N 	N 	0.43450 0.73670 0.58240 -0.20800
N 	N 	0.43790 0.75150 0.71200 -0.21800
N 	N 	0.43450 0.84570 0.26330 -0.20800
N 	N 	0.43790 0.96050 0.24850 -0.21800
N 	N 	0.93450 0.58240 0.84570 -0.20800
N 	N 	0.93790 0.71200 0.96050 -0.21800
N 	N 	0.93450 0.26330 0.41760 -0.20800
N 	N 	0.93790 0.24850 0.28800 -0.21800
N 	N 	0.93450 0.15430 0.73670 -0.20800
N 	N 	0.93790 0.03950 0.75150 -0.21800
N 	N 	0.56550 0.58240 0.84570 -0.20800
N 	N 	0.56210 0.71200 0.96050 -0.21800
N 	N 	0.56550 0.26330 0.41760 -0.20800
N 	N 	0.56210 0.24850 0.28800 -0.21800
N 	N 	0.56550 0.15430 0.73670 -0.20800
N 	N 	0.56210 0.03950 0.75150 -0.21800
N 	N 	0.06550 0.41760 0.15430 -0.20800
N 	N 	0.06210 0.28800 0.03950 -0.21800
N 	N 	0.06550 0.73670 0.58240 -0.20800
N 	N 	0.06210 0.75150 0.71200 -0.21800
N 	N 	0.06550 0.84570 0.26330 -0.20800
N 	N 	0.06210 0.96050 0.24850 -0.21800
N 	N 	0.75000 0.61960 0.14600 -0.20000
N 	N 	0.75000 0.52640 0.38040 -0.20000
N 	N 	0.75000 0.85400 0.47360 -0.20000
N 	N 	0.25000 0.38040 0.85400 -0.20000
N 	N 	0.25000 0.47360 0.61960 -0.20000
N 	N 	0.25000 0.14600 0.52640 -0.20000
O 	O 	0.68150 0.62110 0.95110 -0.42900
O 	O 	0.65830 0.57370 0.21810 -0.42900
O 	O 	0.65550 0.55230 0.29420 -0.42400
O 	O 	0.61580 0.16680 0.85370 -0.44000
O 	O 	0.65040 0.12840 0.91710 -0.39700
O 	O 	0.13430 0.16580 0.03600 -0.25900
O 	O 	0.68150 0.33000 0.37890 -0.42900
O 	O 	0.65830 0.64440 0.42630 -0.42900
O 	O 	0.65550 0.74190 0.44770 -0.42400
O 	O 	0.61580 0.68690 0.83320 -0.44000
O 	O 	0.65040 0.78870 0.87160 -0.39700
O 	O 	0.13430 0.87020 0.83420 -0.25900
O 	O 	0.68150 0.04890 0.67000 -0.42900
O 	O 	0.65830 0.78190 0.35560 -0.42900
O 	O 	0.65550 0.70580 0.25810 -0.42400
O 	O 	0.61580 0.14630 0.31310 -0.44000
O 	O 	0.65040 0.08290 0.21130 -0.39700
O 	O 	0.13430 0.96400 0.12980 -0.25900
O 	O 	0.18150 0.37890 0.04890 -0.42900
O 	O 	0.15830 0.42630 0.78190 -0.42900
O 	O 	0.15550 0.44770 0.70580 -0.42400
O 	O 	0.11580 0.83320 0.14630 -0.44000
O 	O 	0.15040 0.87160 0.08290 -0.39700
O 	O 	0.63430 0.83420 0.96400 -0.25900
O 	O 	0.18150 0.67000 0.62110 -0.42900
O 	O 	0.15830 0.35560 0.57370 -0.42900
O 	O 	0.15550 0.25810 0.55230 -0.42400
O 	O 	0.11580 0.31310 0.16680 -0.44000
O 	O 	0.15040 0.21130 0.12840 -0.39700
O 	O 	0.63430 0.12980 0.16580 -0.25900
O 	O 	0.18150 0.95110 0.33000 -0.42900
O 	O 	0.15830 0.21810 0.64440 -0.42900
O 	O 	0.15550 0.29420 0.74190 -0.42400
O 	O 	0.11580 0.85370 0.68690 -0.44000
O 	O 	0.15040 0.91710 0.78870 -0.39700
O 	O 	0.63430 0.03600 0.87020 -0.25900
O 	O 	0.31850 0.37890 0.04890 -0.42900
O 	O 	0.34170 0.42630 0.78190 -0.42900
O 	O 	0.34450 0.44770 0.70580 -0.42400
O 	O 	0.38420 0.83320 0.14630 -0.44000
O 	O 	0.34960 0.87160 0.08290 -0.39700
O 	O 	0.86570 0.83420 0.96400 -0.25900
O 	O 	0.31850 0.67000 0.62110 -0.42900
O 	O 	0.34170 0.35560 0.57370 -0.42900
O 	O 	0.34450 0.25810 0.55230 -0.42400
O 	O 	0.38420 0.31310 0.16680 -0.44000
O 	O 	0.34960 0.21130 0.12840 -0.39700
O 	O 	0.86570 0.12980 0.16580 -0.25900
O 	O 	0.31850 0.95110 0.33000 -0.42900
O 	O 	0.34170 0.21810 0.64440 -0.42900
O 	O 	0.34450 0.29420 0.74190 -0.42400
O 	O 	0.38420 0.85370 0.68690 -0.44000
O 	O 	0.34960 0.91710 0.78870 -0.39700
O 	O 	0.86570 0.03600 0.87020 -0.25900
O 	O 	0.81850 0.62110 0.95110 -0.42900
O 	O 	0.84170 0.57370 0.21810 -0.42900
O 	O 	0.84450 0.55230 0.29420 -0.42400
O 	O 	0.88420 0.16680 0.85370 -0.44000
O 	O 	0.84960 0.12840 0.91710 -0.39700
O 	O 	0.36570 0.16580 0.03600 -0.25900
O 	O 	0.81850 0.33000 0.37890 -0.42900
O 	O 	0.84170 0.64440 0.42630 -0.42900
O 	O 	0.84450 0.74190 0.44770 -0.42400
O 	O 	0.88420 0.68690 0.83320 -0.44000
O 	O 	0.84960 0.78870 0.87160 -0.39700
O 	O 	0.36570 0.87020 0.83420 -0.25900
O 	O 	0.81850 0.04890 0.67000 -0.42900
O 	O 	0.84170 0.78190 0.35560 -0.42900
O 	O 	0.84450 0.70580 0.25810 -0.42400
O 	O 	0.88420 0.14630 0.31310 -0.44000
O 	O 	0.84960 0.08290 0.21130 -0.39700
O 	O 	0.36570 0.96400 0.12980 -0.25900
O 	O 	0.25000 0.27780 0.06930 -0.77200
O 	O 	0.25000 0.39880 0.17400 -0.59700
O 	O 	0.25000 0.79150 0.72220 -0.77200
O 	O 	0.25000 0.77520 0.60120 -0.59700
O 	O 	0.25000 0.93070 0.20850 -0.77200
O 	O 	0.25000 0.82600 0.22480 -0.59700
O 	O 	0.75000 0.72220 0.93070 -0.77200
O 	O 	0.75000 0.60120 0.82600 -0.59700
O 	O 	0.75000 0.20850 0.27780 -0.77200
O 	O 	0.75000 0.22480 0.39880 -0.59700
O 	O 	0.75000 0.06930 0.79150 -0.77200
O 	O 	0.75000 0.17400 0.77520 -0.59700
O 	O 	0.75000 0.66667 0.33334 -0.58200
O 	O 	0.25000 0.33333 0.66666 -0.58200
