data_crystal

_cell_length_a 10.04700
_cell_length_b 12.65800
_cell_length_c 13.49400
_cell_angle_alpha 86.56000
_cell_angle_beta  71.43000
_cell_angle_gamma 72.16000

_symmetry_space_group_name_	'P 1'
_symmetry_space_group_name_H-M	'P 1'

loop_
_symmetry_equiv_pos_as_xyz
  x,y,z

loop_
_atom_site_label
_atom_site_type_symbol
_atom_site_fract_x
_atom_site_fract_y
_atom_site_fract_z
_atom_site_charge
Ni	Ni	0.38359 0.92467 0.42128 1.10900
Ni	Ni	0.61641 0.07533 0.57872 1.10700
Ni	Ni	-0.00000 0.50000 -0.00000 1.03200
H 	H 	0.08480 0.12390 0.44190 0.01400
H 	H 	0.48600 0.13700 0.30780 0.03600
H 	H 	0.32010 0.32460 0.30850 0.03800
H 	H 	0.94870 0.31450 0.56170 0.04600
H 	H 	0.05030 0.41220 0.26690 0.01000
H 	H 	0.66470 0.71770 0.37640 0.00000
H 	H 	0.29800 0.74040 0.60010 0.02900
H 	H 	0.47350 0.56280 0.61680 0.03700
H 	H 	0.72910 0.45900 0.60570 0.08800
H 	H 	0.82800 0.55300 0.30970 0.09500
H 	H 	0.70030 0.69400 0.02010 -0.06900
H 	H 	0.09050 0.69820 0.84490 0.00700
H 	H 	0.92200 0.88320 0.84500 0.04600
H 	H 	0.55790 0.87520 0.12400 0.11800
H 	H 	0.65790 0.97830 0.82930 0.10700
H 	H 	0.92440 0.96900 0.39440 0.02500
H 	H 	0.24760 0.72670 0.20250 0.03100
H 	H 	0.82470 0.77270 0.22330 0.01500
H 	H 	0.91520 0.87610 0.55810 0.02000
H 	H 	0.51400 0.86300 0.69220 0.04300
H 	H 	0.67990 0.67540 0.69150 0.03600
H 	H 	0.05130 0.68550 0.43830 0.09200
H 	H 	0.94970 0.58780 0.73310 0.11500
H 	H 	0.33530 0.28230 0.62360 0.00300
H 	H 	0.70200 0.25960 0.39990 0.03000
H 	H 	0.52650 0.43720 0.38320 0.03700
H 	H 	0.27090 0.54100 0.39430 0.04400
H 	H 	0.17200 0.44700 0.69030 0.04100
H 	H 	0.29970 0.30600 0.97990 0.05700
H 	H 	0.90950 0.30180 0.15510 0.04400
H 	H 	0.07800 0.11680 0.15500 0.02400
H 	H 	0.44210 0.12480 0.87600 0.03600
H 	H 	0.34210 0.02170 0.17070 0.03300
H 	H 	0.07560 0.03100 0.60560 0.04600
H 	H 	0.75240 0.27330 0.79750 0.05800
H 	H 	0.17530 0.22730 0.77670 0.05200
C 	C 	0.16450 0.14980 0.40870 0.08600
C 	C 	0.38380 0.15780 0.33500 0.00500
C 	C 	0.29300 0.26210 0.33520 0.00300
C 	C 	0.01800 0.34800 0.40920 -0.00500
C 	C 	0.92400 0.36250 0.51090 0.01500
C 	C 	0.98470 0.42020 0.33460 0.05400
C 	C 	0.59480 0.70160 0.43440 0.10100
C 	C 	0.39490 0.71340 0.55660 0.01700
C 	C 	0.49130 0.61490 0.56670 0.00000
C 	C 	0.75700 0.51890 0.46160 0.14100
C 	C 	0.79270 0.44870 0.53730 -0.13800
C 	C 	0.85250 0.50510 0.36050 -0.16000
C 	C 	0.77740 0.71770 0.97660 0.19100
C 	C 	0.98990 0.72050 0.88050 0.03700
C 	C 	0.89750 0.82320 0.88080 0.00400
C 	C 	0.62840 0.91300 0.97180 0.20900
C 	C 	0.53420 0.92550 0.07450 -0.20700
C 	C 	0.59430 0.98730 0.89770 -0.16900
C 	C 	0.84920 0.88310 0.31380 -0.16000
C 	C 	0.95410 0.91050 0.34590 0.09100
C 	C 	0.10260 0.85080 0.30570 -0.14000
C 	C 	0.14790 0.76440 0.23140 0.06600
C 	C 	0.04500 0.73430 0.20010 -0.15200
C 	C 	0.89450 0.79340 0.24260 0.10000
C 	C 	0.68710 0.94460 0.36380 0.40500
C 	C 	0.21130 0.87270 0.35030 0.30700
C 	C 	0.09260 0.63530 0.12610 0.32700
C 	C 	0.83550 0.85020 0.59130 0.09400
C 	C 	0.61620 0.84220 0.66500 0.00100
C 	C 	0.70700 0.73790 0.66480 0.01500
C 	C 	0.98200 0.65200 0.59080 0.17600
C 	C 	0.07600 0.63750 0.48910 -0.15400
C 	C 	0.01530 0.57980 0.66540 -0.18900
C 	C 	0.40520 0.29840 0.56560 0.09700
C 	C 	0.60510 0.28660 0.44340 0.01700
C 	C 	0.50870 0.38510 0.43330 -0.00400
C 	C 	0.24300 0.48110 0.53840 0.04600
C 	C 	0.20730 0.55130 0.46270 -0.01800
C 	C 	0.14750 0.49490 0.63950 -0.00900
C 	C 	0.22260 0.28230 0.02340 0.00700
C 	C 	0.01010 0.27950 0.11950 -0.04600
C 	C 	0.10250 0.17680 0.11920 0.02000
C 	C 	0.37160 0.08700 0.02820 -0.02600
C 	C 	0.46580 0.07450 0.92550 0.06400
C 	C 	0.40570 0.01270 0.10230 0.02600
C 	C 	0.15080 0.11690 0.68620 -0.09700
C 	C 	0.04590 0.08950 0.65410 -0.00800
C 	C 	0.89740 0.14920 0.69430 -0.05500
C 	C 	0.85210 0.23560 0.76860 0.00600
C 	C 	0.95500 0.26570 0.79990 -0.06800
C 	C 	0.10550 0.20660 0.75740 0.01000
C 	C 	0.31290 0.05540 0.63620 0.36800
C 	C 	0.78870 0.12730 0.64970 0.27800
C 	C 	0.90740 0.36470 0.87390 0.34400
N 	N 	0.30340 0.08730 0.38070 -0.21900
N 	N 	0.15270 0.25650 0.38280 -0.11900
N 	N 	0.46010 0.76750 0.47370 -0.21500
N 	N 	0.62100 0.60740 0.48750 -0.14400
N 	N 	0.91370 0.65360 0.94040 -0.23700
N 	N 	0.76170 0.82250 0.94340 -0.16100
N 	N 	0.69660 0.91270 0.61930 -0.21500
N 	N 	0.84730 0.74350 0.61720 -0.14600
N 	N 	0.53990 0.23250 0.52630 -0.21400
N 	N 	0.37900 0.39260 0.51250 -0.12800
N 	N 	0.08630 0.34640 0.05960 -0.21800
N 	N 	0.23830 0.17750 0.05660 -0.11100
O 	O 	0.59720 0.91060 0.33610 -0.42100
O 	O 	0.65210 0.02160 0.42890 -0.44800
O 	O 	0.16680 0.91020 0.44350 -0.36600
O 	O 	0.34500 0.85290 0.29490 -0.36300
O 	O 	0.22830 0.59830 0.07480 -0.29200
O 	O 	0.99560 0.59600 0.12040 -0.41300
O 	O 	0.40280 0.08940 0.66390 -0.41100
O 	O 	0.34790 0.97840 0.57110 -0.42700
O 	O 	0.83320 0.08980 0.55650 -0.35200
O 	O 	0.65500 0.14710 0.70510 -0.35400
O 	O 	0.77170 0.40170 0.92520 -0.26100
O 	O 	0.00440 0.40400 0.87960 -0.42000
