data_crystal

_cell_length_a 17.51230
_cell_length_b 18.10040
_cell_length_c 18.10840
_cell_angle_alpha 90.00000
_cell_angle_beta  92.11800
_cell_angle_gamma 90.00000

_symmetry_space_group_name_	'P 1'
_symmetry_space_group_name_H-M	'P 1'

loop_
_symmetry_equiv_pos_as_xyz
  x,y,z

loop_
_atom_site_label
_atom_site_type_symbol
_atom_site_fract_x
_atom_site_fract_y
_atom_site_fract_z
_atom_site_charge
C 	C 	0.67670 0.87980 0.99310 0.29200
C 	C 	0.48340 0.18080 0.93390 0.28500
C 	C 	0.74860 0.08670 0.70330 0.28900
C 	C 	0.82000 0.93700 0.49900 0.30600
C 	C 	0.03070 0.64520 0.43440 0.30400
C 	C 	0.74530 0.73460 0.20420 0.30700
C 	C 	0.59620 0.90550 0.97210 0.02700
C 	C 	0.49130 0.15280 0.85280 0.06700
C 	C 	0.71950 0.00690 0.72510 -0.00600
C 	C 	0.90020 0.91060 0.47980 0.03700
C 	C 	0.01390 0.67150 0.35230 0.03800
C 	C 	0.77200 0.81280 0.22720 0.04900
C 	C 	0.55590 0.93480 0.03940 0.33400
C 	C 	0.51790 0.21910 0.80530 0.28400
C 	C 	0.78770 0.96010 0.75260 0.32700
C 	C 	0.94640 0.88290 0.55170 0.33200
C 	C 	0.98610 0.61070 0.30340 0.29600
C 	C 	0.70340 0.86140 0.25200 0.29800
O 	O 	0.72830 0.89470 0.95030 -0.33300
O 	O 	0.51520 0.14180 0.98460 -0.35100
O 	O 	0.70820 0.14090 0.72420 -0.34600
O 	O 	0.76690 0.91580 0.45600 -0.31800
O 	O 	0.00180 0.68220 0.48550 -0.33400
O 	O 	0.78440 0.68070 0.22890 -0.33000
O 	O 	0.68840 0.84040 0.05130 -0.36400
O 	O 	0.44280 0.23630 0.94590 -0.38800
O 	O 	0.80540 0.09450 0.66450 -0.38500
O 	O 	0.80760 0.97340 0.55620 -0.35700
O 	O 	0.07160 0.58800 0.44510 -0.37600
O 	O 	0.68710 0.72830 0.16240 -0.38600
O 	O 	0.59850 0.95970 0.91640 -0.41000
O 	O 	0.54470 0.09610 0.85100 -0.44800
O 	O 	0.66510 0.01340 0.77690 -0.43500
O 	O 	0.89890 0.85980 0.42540 -0.41500
O 	O 	0.95970 0.72890 0.35430 -0.40000
O 	O 	0.82930 0.80980 0.28070 -0.39600
O 	O 	0.55470 0.84500 0.94160 -0.31300
H 	H 	0.55380 0.81150 0.97210 0.24400
O 	O 	0.42190 0.12420 0.82830 -0.34300
H 	H 	0.38920 0.15650 0.82920 0.25000
O 	O 	0.68860 0.97480 0.66070 -0.27700
H 	H 	0.72120 0.97340 0.62940 0.24200
O 	O 	0.93920 0.97600 0.45330 -0.26000
H 	H 	0.94110 0.00740 0.48590 0.18200
O 	O 	0.08230 0.70380 0.32840 -0.32200
H 	H 	0.11580 0.67220 0.32740 0.24300
O 	O 	0.80380 0.84590 0.16440 -0.32400
H 	H 	0.77090 0.84880 0.13100 0.24200
O 	O 	0.54060 0.89220 0.09040 -0.36800
O 	O 	0.47570 0.27340 0.79660 -0.35100
O 	O 	0.78200 0.92970 0.81630 -0.33200
O 	O 	0.95760 0.92770 0.60250 -0.35300
O 	O 	0.03050 0.55490 0.29380 -0.36400
O 	O 	0.64900 0.87440 0.20940 -0.37100
O 	O 	0.53570 0.00340 0.03970 -0.37100
O 	O 	0.58080 0.20990 0.77390 -0.33000
O 	O 	0.84450 0.94880 0.71520 -0.35400
O 	O 	0.96490 0.81710 0.54890 -0.33700
O 	O 	0.92190 0.61620 0.27350 -0.33100
O 	O 	0.70990 0.88450 0.31990 -0.32300
Cu	Cu	0.69372 0.95805 0.86792 0.91900
Cu	Cu	0.56111 0.05332 0.94901 0.89700
Cu	Cu	0.63049 0.11478 0.79196 0.90500
Cu	Cu	0.80276 0.86189 0.37050 0.93400
Cu	Cu	0.94458 0.76664 0.45514 0.93400
Cu	Cu	0.86839 0.70681 0.29550 0.93200
Zn	Zn	0.60639 0.80806 0.12973 1.24900
Zn	Zn	0.88863 0.01352 0.63458 1.23200
Br	Br	0.79656 0.70412 0.42520 -0.40600
C 	C 	0.32330 0.37980 0.00690 0.28000
C 	C 	0.51660 0.68080 0.06610 0.28600
C 	C 	0.25140 0.58670 0.29670 0.28000
C 	C 	0.18000 0.43700 0.50100 0.30000
C 	C 	0.96930 0.14520 0.56560 0.30400
C 	C 	0.25470 0.23460 0.79580 0.30500
C 	C 	0.40380 0.40550 0.02790 0.03900
C 	C 	0.50870 0.65280 0.14720 0.06600
C 	C 	0.28050 0.50690 0.27490 0.07100
C 	C 	0.09980 0.41060 0.52020 0.04600
C 	C 	0.98610 0.17150 0.64770 0.03100
C 	C 	0.22800 0.31280 0.77280 0.04900
C 	C 	0.44410 0.43480 0.96060 0.28500
C 	C 	0.48210 0.71910 0.19470 0.28600
C 	C 	0.21230 0.46010 0.24740 0.27600
C 	C 	0.05360 0.38290 0.44830 0.32900
C 	C 	0.01390 0.11070 0.69660 0.30300
C 	C 	0.29660 0.36140 0.74800 0.29700
O 	O 	0.27170 0.39470 0.04970 -0.33900
O 	O 	0.48480 0.64180 0.01540 -0.34500
O 	O 	0.29180 0.64090 0.27580 -0.33500
O 	O 	0.23310 0.41580 0.54400 -0.32400
O 	O 	0.99820 0.18220 0.51450 -0.34400
O 	O 	0.21560 0.18070 0.77110 -0.33500
O 	O 	0.31160 0.34040 0.94870 -0.36100
O 	O 	0.55720 0.73630 0.05410 -0.38600
O 	O 	0.19460 0.59450 0.33550 -0.36800
O 	O 	0.19240 0.47340 0.44380 -0.37600
O 	O 	0.92840 0.08800 0.55490 -0.38600
O 	O 	0.31290 0.22830 0.83760 -0.38900
O 	O 	0.40150 0.45970 0.08360 -0.43600
O 	O 	0.45530 0.59610 0.14900 -0.43800
O 	O 	0.33490 0.51340 0.22310 -0.42500
O 	O 	0.10110 0.35980 0.57460 -0.41800
O 	O 	0.04030 0.22890 0.64570 -0.40000
O 	O 	0.17070 0.30980 0.71930 -0.39800
O 	O 	0.44530 0.34500 0.05840 -0.32500
H 	H 	0.44620 0.31150 0.02790 0.24400
O 	O 	0.57810 0.62420 0.17170 -0.33500
H 	H 	0.61080 0.65650 0.17080 0.24900
O 	O 	0.31140 0.47480 0.33930 -0.33000
H 	H 	0.27880 0.47340 0.37060 0.25000
O 	O 	0.06080 0.47600 0.54670 -0.32900
H 	H 	0.05890 0.50740 0.51410 0.24400
O 	O 	0.91770 0.20380 0.67160 -0.32600
H 	H 	0.88420 0.17220 0.67260 0.24100
O 	O 	0.19620 0.34590 0.83560 -0.32800
H 	H 	0.22910 0.34880 0.86900 0.24100
O 	O 	0.45940 0.39220 0.90960 -0.36400
O 	O 	0.52430 0.77340 0.20340 -0.34600
O 	O 	0.21800 0.42970 0.18370 -0.33400
O 	O 	0.04240 0.42770 0.39750 -0.37400
O 	O 	0.96950 0.05490 0.70620 -0.38200
O 	O 	0.35100 0.37440 0.79060 -0.37700
O 	O 	0.46430 0.50340 0.96030 -0.32200
O 	O 	0.41920 0.70990 0.22610 -0.32300
O 	O 	0.15550 0.44880 0.28480 -0.36000
O 	O 	0.03510 0.31710 0.45110 -0.34300
O 	O 	0.07810 0.11620 0.72650 -0.34000
O 	O 	0.29010 0.38450 0.68010 -0.32900
Cu	Cu	0.30628 0.45805 0.13208 0.90700
Cu	Cu	0.43889 0.55332 0.05099 0.90900
Cu	Cu	0.36951 0.61478 0.20804 0.90900
Cu	Cu	0.19724 0.36189 0.62950 0.93300
Cu	Cu	0.05542 0.26664 0.54486 0.93300
Cu	Cu	0.13161 0.20681 0.70450 0.93200
Zn	Zn	0.39361 0.30806 0.87027 1.24800
Zn	Zn	0.11137 0.51352 0.36542 1.24500
Br	Br	0.20344 0.20412 0.57480 -0.41700
