data_crystal

_cell_length_a 17.91810
_cell_length_b 17.91810
_cell_length_c 17.91810
_cell_angle_alpha 90.00000
_cell_angle_beta  90.00000
_cell_angle_gamma 90.00000

_symmetry_space_group_name_	'P 1'
_symmetry_space_group_name_H-M	'P 1'

loop_
_symmetry_equiv_pos_as_xyz
  x,y,z

loop_
_atom_site_label
_atom_site_type_symbol
_atom_site_fract_x
_atom_site_fract_y
_atom_site_fract_z
_atom_site_charge
Cu	Cu	0.20336 0.05267 0.13614 0.90100
O 	O 	0.23280 0.99170 0.22000 -0.33600
O 	O 	0.18660 0.93310 0.31790 -0.38600
O 	O 	0.10680 0.04140 0.17950 -0.42900
O 	O 	0.06990 0.92720 0.20110 -0.33000
H 	H 	0.06452 0.89414 0.23230 0.24500
O 	O 	0.03870 0.97840 0.35480 -0.32300
O 	O 	0.03040 0.08350 0.29690 -0.31400
C 	C 	0.17640 0.96880 0.26240 0.30000
C 	C 	0.10420 0.99110 0.23540 0.04100
C 	C 	0.05210 0.01430 0.29350 0.24100
Cu	Cu	0.29664 0.94733 0.63614 0.90100
O 	O 	0.26720 0.00830 0.72000 -0.33800
O 	O 	0.31340 0.06690 0.81790 -0.38700
O 	O 	0.39320 0.95860 0.67950 -0.42900
O 	O 	0.43010 0.07280 0.70110 -0.33100
H 	H 	0.43548 0.10586 0.73230 0.24400
O 	O 	0.46130 0.02160 0.85480 -0.32400
O 	O 	0.46960 0.91650 0.79690 -0.31500
C 	C 	0.32360 0.03120 0.76240 0.29900
C 	C 	0.39580 0.00890 0.73540 0.03800
C 	C 	0.44790 0.98570 0.79350 0.24200
Cu	Cu	0.79664 0.55267 0.36386 0.90100
O 	O 	0.76720 0.49170 0.28000 -0.33800
O 	O 	0.81340 0.43310 0.18210 -0.38700
O 	O 	0.89320 0.54140 0.32050 -0.42800
O 	O 	0.93010 0.42720 0.29890 -0.33100
H 	H 	0.93548 0.39414 0.26770 0.24300
O 	O 	0.96130 0.47840 0.14520 -0.32600
O 	O 	0.96960 0.58350 0.20310 -0.31500
C 	C 	0.82360 0.46880 0.23760 0.30000
C 	C 	0.89580 0.49110 0.26460 0.03600
C 	C 	0.94790 0.51430 0.20650 0.24500
Cu	Cu	0.70336 0.44733 0.86386 0.90100
O 	O 	0.73280 0.50830 0.78000 -0.33800
O 	O 	0.68660 0.56690 0.68210 -0.38700
O 	O 	0.60680 0.45860 0.82050 -0.42800
O 	O 	0.56990 0.57280 0.79890 -0.33100
H 	H 	0.56452 0.60586 0.76770 0.24300
O 	O 	0.53870 0.52160 0.64520 -0.32600
O 	O 	0.53040 0.41650 0.70310 -0.31500
C 	C 	0.67640 0.53120 0.73760 0.30000
C 	C 	0.60420 0.50890 0.76460 0.03600
C 	C 	0.55210 0.48570 0.70650 0.24500
Cu	Cu	0.13614 0.20336 0.05267 0.90000
O 	O 	0.22000 0.23280 0.99170 -0.33700
O 	O 	0.31790 0.18660 0.93310 -0.38700
O 	O 	0.17950 0.10680 0.04140 -0.43000
O 	O 	0.20110 0.06990 0.92720 -0.33100
H 	H 	0.23230 0.06452 0.89414 0.24400
O 	O 	0.35480 0.03870 0.97840 -0.32400
O 	O 	0.29690 0.03040 0.08350 -0.31500
C 	C 	0.26240 0.17640 0.96880 0.29900
C 	C 	0.23540 0.10420 0.99110 0.04000
C 	C 	0.29350 0.05210 0.01430 0.24000
Cu	Cu	0.63614 0.29664 0.94733 0.90100
O 	O 	0.72000 0.26720 0.00830 -0.33800
O 	O 	0.81790 0.31340 0.06690 -0.38700
O 	O 	0.67950 0.39320 0.95860 -0.42900
O 	O 	0.70110 0.43010 0.07280 -0.33100
H 	H 	0.73230 0.43548 0.10586 0.24400
O 	O 	0.85480 0.46130 0.02160 -0.32400
O 	O 	0.79690 0.46960 0.91650 -0.31500
C 	C 	0.76240 0.32360 0.03120 0.29900
C 	C 	0.73540 0.39580 0.00890 0.03800
C 	C 	0.79350 0.44790 0.98570 0.24200
Cu	Cu	0.36386 0.79664 0.55267 0.90100
O 	O 	0.28000 0.76720 0.49170 -0.33800
O 	O 	0.18210 0.81340 0.43310 -0.38700
O 	O 	0.32050 0.89320 0.54140 -0.42800
O 	O 	0.29890 0.93010 0.42720 -0.33100
H 	H 	0.26770 0.93548 0.39414 0.24300
O 	O 	0.14520 0.96130 0.47840 -0.32600
O 	O 	0.20310 0.96960 0.58350 -0.31500
C 	C 	0.23760 0.82360 0.46880 0.30000
C 	C 	0.26460 0.89580 0.49110 0.03600
C 	C 	0.20650 0.94790 0.51430 0.24500
Cu	Cu	0.86386 0.70336 0.44733 0.90100
O 	O 	0.78000 0.73280 0.50830 -0.33800
O 	O 	0.68210 0.68660 0.56690 -0.38700
O 	O 	0.82050 0.60680 0.45860 -0.42800
O 	O 	0.79890 0.56990 0.57280 -0.33100
H 	H 	0.76770 0.56452 0.60586 0.24300
O 	O 	0.64520 0.53870 0.52160 -0.32600
O 	O 	0.70310 0.53040 0.41650 -0.31500
C 	C 	0.73760 0.67640 0.53120 0.30000
C 	C 	0.76460 0.60420 0.50890 0.03600
C 	C 	0.70650 0.55210 0.48570 0.24500
Cu	Cu	0.05267 0.13614 0.20336 0.90000
O 	O 	0.99170 0.22000 0.23280 -0.33700
O 	O 	0.93310 0.31790 0.18660 -0.38700
O 	O 	0.04140 0.17950 0.10680 -0.43000
O 	O 	0.92720 0.20110 0.06990 -0.33100
H 	H 	0.89414 0.23230 0.06452 0.24400
O 	O 	0.97840 0.35480 0.03870 -0.32400
O 	O 	0.08350 0.29690 0.03040 -0.31500
C 	C 	0.96880 0.26240 0.17640 0.29900
C 	C 	0.99110 0.23540 0.10420 0.04000
C 	C 	0.01430 0.29350 0.05210 0.24000
Cu	Cu	0.94733 0.63614 0.29664 0.90100
O 	O 	0.00830 0.72000 0.26720 -0.33800
O 	O 	0.06690 0.81790 0.31340 -0.38700
O 	O 	0.95860 0.67950 0.39320 -0.42900
O 	O 	0.07280 0.70110 0.43010 -0.33100
H 	H 	0.10586 0.73230 0.43548 0.24400
O 	O 	0.02160 0.85480 0.46130 -0.32400
O 	O 	0.91650 0.79690 0.46960 -0.31500
C 	C 	0.03120 0.76240 0.32360 0.29900
C 	C 	0.00890 0.73540 0.39580 0.03800
C 	C 	0.98570 0.79350 0.44790 0.24200
Cu	Cu	0.55267 0.36386 0.79664 0.90100
O 	O 	0.49170 0.28000 0.76720 -0.33800
O 	O 	0.43310 0.18210 0.81340 -0.38700
O 	O 	0.54140 0.32050 0.89320 -0.42800
O 	O 	0.42720 0.29890 0.93010 -0.33100
H 	H 	0.39414 0.26770 0.93548 0.24300
O 	O 	0.47840 0.14520 0.96130 -0.32600
O 	O 	0.58350 0.20310 0.96960 -0.31500
C 	C 	0.46880 0.23760 0.82360 0.30000
C 	C 	0.49110 0.26460 0.89580 0.03600
C 	C 	0.51430 0.20650 0.94790 0.24500
Cu	Cu	0.44733 0.86386 0.70336 0.90100
O 	O 	0.50830 0.78000 0.73280 -0.33800
O 	O 	0.56690 0.68210 0.68660 -0.38700
O 	O 	0.45860 0.82050 0.60680 -0.42800
O 	O 	0.57280 0.79890 0.56990 -0.33100
H 	H 	0.60586 0.76770 0.56452 0.24300
O 	O 	0.52160 0.64520 0.53870 -0.32600
O 	O 	0.41650 0.70310 0.53040 -0.31500
C 	C 	0.53120 0.73760 0.67640 0.30000
C 	C 	0.50890 0.76460 0.60420 0.03600
C 	C 	0.48570 0.70650 0.55210 0.24500
Co	Co	0.10651 0.89349 0.39349 1.19800
Co	Co	0.39349 0.10651 0.89349 1.19800
Co	Co	0.89349 0.39349 0.10651 1.19800
Co	Co	0.60651 0.60651 0.60651 1.19800
