data_crystal

_cell_length_a 16.21700
_cell_length_b 17.98310
_cell_length_c 19.64020
_cell_angle_alpha 90.00000
_cell_angle_beta  90.00000
_cell_angle_gamma 90.00000

_symmetry_space_group_name_	'P 1'
_symmetry_space_group_name_H-M	'P 1'

loop_
_symmetry_equiv_pos_as_xyz
  x,y,z

loop_
_atom_site_label
_atom_site_type_symbol
_atom_site_fract_x
_atom_site_fract_y
_atom_site_fract_z
_atom_site_charge
Mn	Mn	0.89764 0.42820 0.89729 1.32200
Cu	Cu	0.21909 0.06905 0.84918 0.93000
Cu	Cu	0.02992 0.14915 0.80037 0.93300
Cu	Cu	0.15529 0.21203 0.93119 0.93300
Br	Br	0.25342 0.21412 0.81867 -0.37400
C 	C 	0.19044 0.00419 0.72530 0.30000
C 	C 	0.30720 0.04132 0.96584 0.29300
C 	C 	0.04316 0.32496 0.93090 0.30400
C 	C 	0.10361 0.01833 0.75560 0.04200
C 	C 	0.23289 0.08820 0.99120 0.04300
C 	C 	0.99982 0.26012 0.89265 0.05200
C 	C 	0.04059 0.04489 0.70240 0.31200
C 	C 	0.26523 0.16124 0.02328 0.31200
C 	C 	0.96466 0.28523 0.82296 0.31000
O 	O 	0.25021 0.02169 0.76334 -0.32100
O 	O 	0.31097 0.02859 0.90225 -0.32200
O 	O 	0.11758 0.31326 0.94798 -0.31900
O 	O 	0.19786 0.97502 0.66752 -0.37300
O 	O 	0.35823 0.01820 0.00834 -0.35700
O 	O 	0.00468 0.38227 0.94433 -0.36800
O 	O 	0.10919 0.06984 0.80730 -0.41500
O 	O 	0.17896 0.10389 0.93875 -0.39100
O 	O 	0.05352 0.20206 0.88267 -0.42900
O 	O 	0.07532 0.95076 0.78531 -0.33700
H 	H 	0.07020 0.91910 0.75560 0.25000
O 	O 	0.18996 0.04772 0.04208 -0.31000
H 	H 	0.22140 0.03820 0.07360 0.22900
O 	O 	0.93322 0.23390 0.93303 -0.33800
H 	H 	0.89960 0.26750 0.93840 0.24800
O 	O 	0.02861 0.00813 0.64980 -0.38000
O 	O 	0.31553 0.15754 0.07128 -0.39700
O 	O 	0.92983 0.34618 0.81659 -0.37500
O 	O 	0.99971 0.10187 0.71568 -0.33400
O 	O 	0.23934 0.22142 0.00068 -0.33800
O 	O 	0.97110 0.23926 0.77542 -0.33400
Mn	Mn	0.60236 0.57180 0.39729 1.32100
Cu	Cu	0.28091 0.93095 0.34918 0.93000
Cu	Cu	0.47008 0.85085 0.30037 0.93400
Cu	Cu	0.34471 0.78797 0.43119 0.93300
Br	Br	0.24658 0.78588 0.31867 -0.37400
C 	C 	0.30956 0.99581 0.22530 0.30000
C 	C 	0.19280 0.95868 0.46584 0.29300
C 	C 	0.45684 0.67504 0.43090 0.30400
C 	C 	0.39639 0.98167 0.25560 0.04200
C 	C 	0.26711 0.91180 0.49120 0.04300
C 	C 	0.50018 0.73988 0.39265 0.05100
C 	C 	0.45941 0.95511 0.20240 0.31300
C 	C 	0.23477 0.83876 0.52328 0.31100
C 	C 	0.53534 0.71477 0.32296 0.31100
O 	O 	0.24979 0.97831 0.26334 -0.32100
O 	O 	0.18903 0.97141 0.40225 -0.32200
O 	O 	0.38242 0.68674 0.44798 -0.31900
O 	O 	0.30214 0.02498 0.16752 -0.37300
O 	O 	0.14177 0.98180 0.50834 -0.35700
O 	O 	0.49532 0.61773 0.44433 -0.36800
O 	O 	0.39081 0.93016 0.30730 -0.41500
O 	O 	0.32104 0.89611 0.43875 -0.39100
O 	O 	0.44648 0.79794 0.38267 -0.42800
O 	O 	0.42468 0.04924 0.28531 -0.33800
H 	H 	0.42980 0.08090 0.25560 0.25000
O 	O 	0.31004 0.95228 0.54208 -0.31000
H 	H 	0.27860 0.96180 0.57360 0.22900
O 	O 	0.56678 0.76610 0.43303 -0.33800
H 	H 	0.60040 0.73250 0.43840 0.24800
O 	O 	0.47139 0.99187 0.14980 -0.38100
O 	O 	0.18447 0.84246 0.57128 -0.39600
O 	O 	0.57017 0.65382 0.31659 -0.37600
O 	O 	0.50029 0.89813 0.21568 -0.33600
O 	O 	0.26066 0.77858 0.50068 -0.33800
O 	O 	0.52890 0.76074 0.27542 -0.33400
Mn	Mn	0.10236 0.92820 0.60271 1.32100
Cu	Cu	0.78091 0.56905 0.65082 0.93000
Cu	Cu	0.97008 0.64915 0.69963 0.93400
Cu	Cu	0.84471 0.71203 0.56881 0.93300
Br	Br	0.74658 0.71412 0.68133 -0.37400
C 	C 	0.80956 0.50419 0.77470 0.30100
C 	C 	0.69280 0.54132 0.53416 0.29300
C 	C 	0.95684 0.82496 0.56910 0.30400
C 	C 	0.89639 0.51833 0.74440 0.04300
C 	C 	0.76711 0.58820 0.50880 0.04300
C 	C 	0.00018 0.76012 0.60735 0.05200
C 	C 	0.95941 0.54489 0.79760 0.31200
C 	C 	0.73477 0.66124 0.47672 0.31100
C 	C 	0.03534 0.78523 0.67704 0.31000
O 	O 	0.74979 0.52169 0.73666 -0.32100
O 	O 	0.68903 0.52859 0.59775 -0.32200
O 	O 	0.88242 0.81326 0.55202 -0.31900
O 	O 	0.80214 0.47502 0.83248 -0.37300
O 	O 	0.64177 0.51820 0.49166 -0.35700
O 	O 	0.99532 0.88227 0.55567 -0.36800
O 	O 	0.89081 0.56984 0.69270 -0.41500
O 	O 	0.82104 0.60389 0.56125 -0.39100
O 	O 	0.94648 0.70206 0.61733 -0.42900
O 	O 	0.92468 0.45076 0.71469 -0.33800
H 	H 	0.92980 0.41910 0.74440 0.25000
O 	O 	0.81004 0.54772 0.45792 -0.31100
H 	H 	0.77860 0.53820 0.42640 0.22900
O 	O 	0.06678 0.73390 0.56697 -0.33800
H 	H 	0.10040 0.76750 0.56160 0.24800
O 	O 	0.97139 0.50813 0.85020 -0.38000
O 	O 	0.68447 0.65754 0.42872 -0.39700
O 	O 	0.07017 0.84618 0.68341 -0.37500
O 	O 	0.00029 0.60187 0.78432 -0.33500
O 	O 	0.76066 0.72142 0.49932 -0.33800
O 	O 	0.02890 0.73926 0.72458 -0.33400
Mn	Mn	0.39764 0.07180 0.10271 1.32100
Cu	Cu	0.71909 0.43095 0.15082 0.93000
Cu	Cu	0.52992 0.35085 0.19963 0.93400
Cu	Cu	0.65529 0.28797 0.06881 0.93300
Br	Br	0.75342 0.28588 0.18133 -0.37400
C 	C 	0.69044 0.49581 0.27470 0.30100
C 	C 	0.80720 0.45868 0.03416 0.29200
C 	C 	0.54316 0.17504 0.06910 0.30400
C 	C 	0.60361 0.48167 0.24440 0.04300
C 	C 	0.73289 0.41180 0.00880 0.04300
C 	C 	0.49982 0.23988 0.10735 0.05100
C 	C 	0.54059 0.45511 0.29760 0.31300
C 	C 	0.76523 0.33876 0.97672 0.31200
C 	C 	0.46466 0.21477 0.17704 0.31100
O 	O 	0.75021 0.47831 0.23666 -0.32100
O 	O 	0.81097 0.47141 0.09775 -0.32200
O 	O 	0.61758 0.18674 0.05202 -0.31900
O 	O 	0.69786 0.52498 0.33248 -0.37300
O 	O 	0.85823 0.48180 0.99166 -0.35700
O 	O 	0.50468 0.11773 0.05567 -0.36800
O 	O 	0.60919 0.43016 0.19270 -0.41500
O 	O 	0.67896 0.39611 0.06125 -0.39100
O 	O 	0.55352 0.29794 0.11733 -0.42800
O 	O 	0.57532 0.54924 0.21469 -0.33800
H 	H 	0.57020 0.58090 0.24440 0.25000
O 	O 	0.68996 0.45228 0.95792 -0.31000
H 	H 	0.72140 0.46180 0.92640 0.22900
O 	O 	0.43322 0.26610 0.06697 -0.33800
H 	H 	0.39960 0.23250 0.06160 0.24800
O 	O 	0.52861 0.49187 0.35020 -0.38000
O 	O 	0.81553 0.34246 0.92872 -0.39700
O 	O 	0.42983 0.15382 0.18341 -0.37500
O 	O 	0.49971 0.39813 0.28432 -0.33500
O 	O 	0.73934 0.27858 0.99932 -0.33800
O 	O 	0.47110 0.26074 0.22458 -0.33400
