data_crystal

_cell_length_a 8.81020
_cell_length_b 15.63230
_cell_length_c 16.35920
_cell_angle_alpha 103.54400
_cell_angle_beta  100.81100
_cell_angle_gamma 90.19090

_symmetry_space_group_name_	'P 1'
_symmetry_space_group_name_H-M	'P 1'

loop_
_symmetry_equiv_pos_as_xyz
  x,y,z

loop_
_atom_site_label
_atom_site_type_symbol
_atom_site_fract_x
_atom_site_fract_y
_atom_site_fract_z
_atom_site_charge
Co	Co	0.35538 0.95035 0.35973 1.18100
Co	Co	0.81166 0.79012 0.73236 1.14500
Co	Co	0.64462 0.04965 0.64027 1.18100
Co	Co	0.18834 0.20988 0.26764 1.14500
H 	H 	0.37050 0.82800 0.75490 0.04400
H 	H 	0.07410 0.00280 0.60430 0.04500
H 	H 	0.26390 0.95690 0.16420 0.01100
H 	H 	0.34770 0.91840 0.03730 0.10900
H 	H 	0.73700 0.84710 0.16390 0.09000
H 	H 	0.63430 0.87730 0.28420 0.00100
H 	H 	0.14840 0.79100 0.24480 0.00400
H 	H 	0.11200 0.64200 0.22510 0.07600
H 	H 	0.46700 0.65150 0.41900 0.07400
H 	H 	0.48900 0.79990 0.43590 0.01600
H 	H 	0.16000 0.50170 0.18100 0.07800
H 	H 	0.12930 0.35270 0.16740 -0.00100
H 	H 	0.32730 0.37430 0.40310 -0.02200
H 	H 	0.36190 0.52320 0.42480 0.08000
H 	H 	0.81270 0.93700 0.04740 0.09700
H 	H 	0.90150 0.90070 0.91980 0.01800
H 	H 	0.55130 0.73490 0.81430 -0.00300
H 	H 	0.44540 0.77210 0.93450 0.09100
H 	H 	0.62950 0.17200 0.24510 0.04300
H 	H 	0.92590 0.99720 0.39570 0.04400
H 	H 	0.73610 0.04310 0.83580 0.01000
H 	H 	0.65230 0.08160 0.96270 0.10800
H 	H 	0.26300 0.15290 0.83610 0.08900
H 	H 	0.36570 0.12270 0.71580 0.00000
H 	H 	0.85160 0.20900 0.75520 0.00300
H 	H 	0.88800 0.35800 0.77490 0.07500
H 	H 	0.53300 0.34850 0.58100 0.07400
H 	H 	0.51100 0.20010 0.56410 0.01600
H 	H 	0.84000 0.49830 0.81900 0.07800
H 	H 	0.87070 0.64730 0.83260 -0.00100
H 	H 	0.67270 0.62570 0.59690 -0.02200
H 	H 	0.63810 0.47680 0.57520 0.08000
H 	H 	0.18730 0.06300 0.95260 0.09700
H 	H 	0.09850 0.09930 0.08020 0.01800
H 	H 	0.44870 0.26510 0.18570 -0.00300
H 	H 	0.55460 0.22790 0.06550 0.09100
C 	C 	0.33100 0.98447 0.54857 0.35400
C 	C 	0.53010 0.86696 0.64850 0.34800
C 	C 	0.12390 0.85563 0.81836 0.31000
C 	C 	0.92440 0.97048 0.71873 0.34400
C 	C 	0.27940 0.94615 0.61589 -0.07700
C 	C 	0.36920 0.89303 0.66261 -0.07400
C 	C 	0.31150 0.86448 0.72536 0.00900
C 	C 	0.16900 0.88820 0.74588 -0.06800
C 	C 	0.07990 0.94169 0.70012 -0.08800
C 	C 	0.13540 0.96857 0.63553 0.02100
C 	C 	0.35980 0.93240 0.16402 0.09400
C 	C 	0.41050 0.91110 0.08740 -0.15300
C 	C 	0.55670 0.87858 0.08583 0.07800
C 	C 	0.63790 0.86800 0.16133 -0.14900
C 	C 	0.57610 0.88760 0.23409 0.09200
C 	C 	0.21390 0.76247 0.28030 0.08000
C 	C 	0.19150 0.67264 0.26780 -0.13000
C 	C 	0.28840 0.62795 0.31922 0.05200
C 	C 	0.40030 0.67821 0.38242 -0.12800
C 	C 	0.41380 0.76753 0.39174 0.07600
C 	C 	0.26660 0.53119 0.30730 0.06500
C 	C 	0.19490 0.47750 0.22760 -0.13900
C 	C 	0.17750 0.38780 0.22010 0.08100
C 	C 	0.29250 0.39990 0.35750 0.09300
C 	C 	0.31400 0.49020 0.37100 -0.15100
C 	C 	0.61820 0.85659 0.00555 0.06100
C 	C 	0.75670 0.89630 0.00040 -0.13400
C 	C 	0.80960 0.87370 0.92330 0.07900
C 	C 	0.60350 0.77740 0.86105 0.08700
C 	C 	0.54030 0.79790 0.93400 -0.13900
C 	C 	0.66900 0.01553 0.45143 0.35400
C 	C 	0.46990 0.13304 0.35150 0.34800
C 	C 	0.87610 0.14437 0.18164 0.31000
C 	C 	0.07560 0.02952 0.28127 0.34400
C 	C 	0.72060 0.05385 0.38411 -0.07700
C 	C 	0.63080 0.10697 0.33739 -0.07400
C 	C 	0.68850 0.13552 0.27464 0.00900
C 	C 	0.83100 0.11180 0.25412 -0.06800
C 	C 	0.92010 0.05831 0.29988 -0.08800
C 	C 	0.86460 0.03143 0.36447 0.02100
C 	C 	0.64020 0.06760 0.83598 0.09400
C 	C 	0.58950 0.08890 0.91260 -0.15300
C 	C 	0.44330 0.12142 0.91417 0.07800
C 	C 	0.36210 0.13200 0.83867 -0.14900
C 	C 	0.42390 0.11240 0.76591 0.09200
C 	C 	0.78610 0.23753 0.71970 0.08000
C 	C 	0.80850 0.32736 0.73220 -0.13000
C 	C 	0.71160 0.37205 0.68078 0.05200
C 	C 	0.59970 0.32179 0.61758 -0.12800
C 	C 	0.58620 0.23247 0.60826 0.07600
C 	C 	0.73340 0.46881 0.69270 0.06500
C 	C 	0.80510 0.52250 0.77240 -0.13900
C 	C 	0.82250 0.61220 0.77990 0.08100
C 	C 	0.70750 0.60010 0.64250 0.09300
C 	C 	0.68600 0.50980 0.62900 -0.15100
C 	C 	0.38180 0.14341 0.99445 0.06100
C 	C 	0.24330 0.10370 0.99960 -0.13400
C 	C 	0.19040 0.12630 0.07670 0.07900
C 	C 	0.39650 0.22260 0.13895 0.08700
C 	C 	0.45970 0.20210 0.06600 -0.13900
N 	N 	0.43800 0.92032 0.23717 -0.23000
N 	N 	0.32450 0.81053 0.34061 -0.22100
N 	N 	0.22600 0.34857 0.28418 -0.24500
N 	N 	0.73390 0.81458 0.85372 -0.22200
N 	N 	0.56200 0.07968 0.76283 -0.23000
N 	N 	0.67550 0.18947 0.65939 -0.22100
N 	N 	0.77400 0.65143 0.71582 -0.24500
N 	N 	0.26610 0.18542 0.14628 -0.22200
O 	O 	0.27066 0.95057 0.47267 -0.38300
O 	O 	0.42235 0.05243 0.57379 -0.41100
O 	O 	0.58203 0.80102 0.67447 -0.41900
O 	O 	0.60176 0.91170 0.61239 -0.41300
O 	O 	0.18280 0.89484 0.89237 -0.25500
O 	O 	0.03507 0.78621 0.79921 -0.39900
O 	O 	0.87277 0.03803 0.69525 -0.40000
O 	O 	0.85505 0.92660 0.75678 -0.42600
O 	O 	0.72934 0.04943 0.52733 -0.38300
O 	O 	0.57765 0.94757 0.42621 -0.41100
O 	O 	0.41797 0.19898 0.32553 -0.41900
O 	O 	0.39824 0.08830 0.38761 -0.41300
O 	O 	0.81720 0.10516 0.10763 -0.25500
O 	O 	0.96493 0.21379 0.20079 -0.39900
O 	O 	0.12723 0.96197 0.30475 -0.40000
O 	O 	0.14495 0.07340 0.24322 -0.42600
