data_crystal

_cell_length_a 13.48070
_cell_length_b 13.48070
_cell_length_c 13.48070
_cell_angle_alpha 86.55350
_cell_angle_beta  86.55350
_cell_angle_gamma 86.55350

_symmetry_space_group_name_	'P 1'
_symmetry_space_group_name_H-M	'P 1'

loop_
_symmetry_equiv_pos_as_xyz
  x,y,z

loop_
_atom_site_label
_atom_site_type_symbol
_atom_site_fract_x
_atom_site_fract_y
_atom_site_fract_z
_atom_site_charge
Cu	Cu	0.01975 0.59171 0.01975 0.90700
Cu	Cu	0.01975 0.01975 0.59171 0.90700
Cu	Cu	0.59171 0.01975 0.01975 0.90700
Cu	Cu	0.40829 0.98025 0.98025 0.90700
Cu	Cu	0.98025 0.98025 0.40829 0.90700
Cu	Cu	0.98025 0.40829 0.98025 0.90700
H 	H 	0.99990 0.44150 0.65980 0.05300
H 	H 	0.65980 0.99990 0.44150 0.05300
H 	H 	0.44150 0.65980 0.99990 0.05300
H 	H 	0.55850 0.00010 0.34020 0.05300
H 	H 	0.00010 0.34020 0.55850 0.05300
H 	H 	0.34020 0.55850 0.00010 0.05300
H 	H 	0.00010 0.55850 0.34020 0.05300
H 	H 	0.34020 0.00010 0.55850 0.05300
H 	H 	0.55850 0.34020 0.00010 0.05300
H 	H 	0.44150 0.99990 0.65980 0.05300
H 	H 	0.99990 0.65980 0.44150 0.05300
H 	H 	0.65980 0.44150 0.99990 0.05300
H 	H 	0.01580 0.72780 0.72780 0.05200
H 	H 	0.72780 0.01580 0.72780 0.05200
H 	H 	0.72780 0.72780 0.01580 0.05200
H 	H 	0.27220 0.98420 0.27220 0.05200
H 	H 	0.98420 0.27220 0.27220 0.05200
H 	H 	0.27220 0.27220 0.98420 0.05200
C 	C 	0.00734 0.54835 0.81755 0.36600
C 	C 	0.00222 0.50996 0.63906 -0.01200
C 	C 	0.00717 0.57969 0.70955 -0.08600
C 	C 	0.81755 0.00734 0.54835 0.36600
C 	C 	0.63906 0.00222 0.50996 -0.01200
C 	C 	0.70955 0.00717 0.57969 -0.08600
C 	C 	0.54835 0.81755 0.00734 0.36600
C 	C 	0.50996 0.63906 0.00222 -0.01200
C 	C 	0.57969 0.70955 0.00717 -0.08600
C 	C 	0.45165 0.99266 0.18245 0.36600
C 	C 	0.49004 0.99778 0.36094 -0.01200
C 	C 	0.42031 0.99283 0.29045 -0.08600
C 	C 	0.99266 0.18245 0.45165 0.36600
C 	C 	0.99778 0.36094 0.49004 -0.01200
C 	C 	0.99283 0.29045 0.42031 -0.08600
C 	C 	0.18245 0.45165 0.99266 0.36600
C 	C 	0.36094 0.49004 0.99778 -0.01200
C 	C 	0.29045 0.42031 0.99283 -0.08600
C 	C 	0.99266 0.45165 0.18245 0.36600
C 	C 	0.99778 0.49004 0.36094 -0.01200
C 	C 	0.99283 0.42031 0.29045 -0.08600
C 	C 	0.18245 0.99266 0.45165 0.36600
C 	C 	0.36094 0.99778 0.49004 -0.01200
C 	C 	0.29045 0.99283 0.42031 -0.08600
C 	C 	0.45165 0.18245 0.99266 0.36600
C 	C 	0.49004 0.36094 0.99778 -0.01200
C 	C 	0.42031 0.29045 0.99283 -0.08600
C 	C 	0.54835 0.00734 0.81755 0.36600
C 	C 	0.50996 0.00222 0.63906 -0.01200
C 	C 	0.57969 0.00717 0.70955 -0.08600
C 	C 	0.00734 0.81755 0.54835 0.36600
C 	C 	0.00222 0.63906 0.50996 -0.01200
C 	C 	0.00717 0.70955 0.57969 -0.08600
C 	C 	0.81755 0.54835 0.00734 0.36600
C 	C 	0.63906 0.50996 0.00222 -0.01200
C 	C 	0.70955 0.57969 0.00717 -0.08600
C 	C 	0.00056 0.53856 0.53856 0.00300
C 	C 	0.01088 0.67983 0.67983 0.03200
C 	C 	0.53856 0.00056 0.53856 0.00300
C 	C 	0.67983 0.01088 0.67983 0.03200
C 	C 	0.53856 0.53856 0.00056 0.00300
C 	C 	0.67983 0.67983 0.01088 0.03200
C 	C 	0.46144 0.99944 0.46144 0.00300
C 	C 	0.32017 0.98912 0.32017 0.03200
C 	C 	0.99944 0.46144 0.46144 0.00300
C 	C 	0.98912 0.32017 0.32017 0.03200
C 	C 	0.46144 0.46144 0.99944 0.00300
C 	C 	0.32017 0.32017 0.98912 0.03200
O 	O 	0.02302 0.61402 0.87579 -0.41000
O 	O 	0.99010 0.45935 0.84150 -0.40800
O 	O 	0.87579 0.02302 0.61402 -0.41000
O 	O 	0.84150 0.99010 0.45935 -0.40800
O 	O 	0.61402 0.87579 0.02302 -0.41000
O 	O 	0.45935 0.84150 0.99010 -0.40800
O 	O 	0.38598 0.97698 0.12421 -0.41000
O 	O 	0.54065 0.00990 0.15850 -0.40800
O 	O 	0.97698 0.12421 0.38598 -0.41000
O 	O 	0.00990 0.15850 0.54065 -0.40800
O 	O 	0.12421 0.38598 0.97698 -0.41000
O 	O 	0.15850 0.54065 0.00990 -0.40800
O 	O 	0.97698 0.38598 0.12421 -0.41000
O 	O 	0.00990 0.54065 0.15850 -0.40800
O 	O 	0.12421 0.97698 0.38598 -0.41000
O 	O 	0.15850 0.00990 0.54065 -0.40800
O 	O 	0.38598 0.12421 0.97698 -0.41000
O 	O 	0.54065 0.15850 0.00990 -0.40800
O 	O 	0.61402 0.02302 0.87579 -0.41000
O 	O 	0.45935 0.99010 0.84150 -0.40800
O 	O 	0.02302 0.87579 0.61402 -0.41000
O 	O 	0.99010 0.84150 0.45935 -0.40800
O 	O 	0.87579 0.61402 0.02302 -0.41000
O 	O 	0.84150 0.45935 0.99010 -0.40800
