data_crystal

_cell_length_a 15.17600
_cell_length_b 25.73200
_cell_length_c 8.46400
_cell_angle_alpha 90.00000
_cell_angle_beta  132.72200
_cell_angle_gamma 90.00000

_symmetry_space_group_name_	'P 1'
_symmetry_space_group_name_H-M	'P 1'

loop_
_symmetry_equiv_pos_as_xyz
  x,y,z

loop_
_atom_site_label
_atom_site_type_symbol
_atom_site_fract_x
_atom_site_fract_y
_atom_site_fract_z
_atom_site_charge
Cd	Cd	0.34084 0.15140 0.56041 1.14200
C 	C 	0.14240 0.06180 0.21600 -0.30700
C 	C 	0.20900 0.09120 0.33570 -0.30700
C 	C 	0.46720 0.15930 0.51190 -0.28400
C 	C 	0.26800 0.22980 0.51120 -0.29100
C 	C 	0.46620 0.13870 0.90920 -0.18200
Cd	Cd	0.84084 0.65140 0.56041 1.14300
C 	C 	0.64240 0.56180 0.21600 -0.29100
C 	C 	0.70900 0.59120 0.33570 -0.30300
C 	C 	0.96720 0.65930 0.51190 -0.26500
C 	C 	0.76800 0.72980 0.51120 -0.28800
C 	C 	0.96620 0.63870 0.90920 -0.16300
Cd	Cd	0.65916 0.15140 0.43959 1.14900
C 	C 	0.85760 0.06180 0.78400 -0.24400
C 	C 	0.79100 0.09120 0.66430 -0.31000
C 	C 	0.53280 0.15930 0.48810 -0.27900
C 	C 	0.73200 0.22980 0.48880 -0.28400
C 	C 	0.53380 0.13870 0.09080 -0.40300
Cd	Cd	0.15916 0.65140 0.43959 1.15100
C 	C 	0.35760 0.56180 0.78400 -0.23800
C 	C 	0.29100 0.59120 0.66430 -0.30800
C 	C 	0.03280 0.65930 0.48810 -0.29100
C 	C 	0.23200 0.72980 0.48880 -0.28500
C 	C 	0.03380 0.63870 0.09080 -0.41400
Cd	Cd	0.65916 0.84860 0.43959 1.15200
C 	C 	0.85760 0.93820 0.78400 -0.21500
C 	C 	0.79100 0.90880 0.66430 -0.30700
C 	C 	0.53280 0.84070 0.48810 -0.27300
C 	C 	0.73200 0.77020 0.48880 -0.28200
C 	C 	0.53380 0.86130 0.09080 -0.39500
Cd	Cd	0.15916 0.34860 0.43959 1.15000
C 	C 	0.35760 0.43820 0.78400 -0.23800
C 	C 	0.29100 0.40880 0.66430 -0.30800
C 	C 	0.03280 0.34070 0.48810 -0.29300
C 	C 	0.23200 0.27020 0.48880 -0.28500
C 	C 	0.03380 0.36130 0.09080 -0.41600
Cd	Cd	0.34084 0.84860 0.56041 1.14500
C 	C 	0.14240 0.93820 0.21600 -0.27600
C 	C 	0.20900 0.90880 0.33570 -0.30300
C 	C 	0.46720 0.84070 0.51190 -0.27800
C 	C 	0.26800 0.77020 0.51120 -0.28900
C 	C 	0.46620 0.86130 0.90920 -0.17400
Cd	Cd	0.84084 0.34860 0.56041 1.14300
C 	C 	0.64240 0.43820 0.21600 -0.29100
C 	C 	0.70900 0.40880 0.33570 -0.30300
C 	C 	0.96720 0.34070 0.51190 -0.26500
C 	C 	0.76800 0.27020 0.51120 -0.28800
C 	C 	0.96620 0.36130 0.90920 -0.16300
Cd	Cd	-0.00000 0.00000 -0.00000 1.09500
Cd	Cd	0.50000 0.50000 -0.00000 1.10900
