data_crystal

_cell_length_a 14.25100
_cell_length_b 17.79700
_cell_length_c 13.04300
_cell_angle_alpha 90.00000
_cell_angle_beta  111.24700
_cell_angle_gamma 90.00000

_symmetry_space_group_name_	'P 1'
_symmetry_space_group_name_H-M	'P 1'

loop_
_symmetry_equiv_pos_as_xyz
  x,y,z

loop_
_atom_site_label
_atom_site_type_symbol
_atom_site_fract_x
_atom_site_fract_y
_atom_site_fract_z
_atom_site_charge
Cd	Cd	0.07893 0.13959 0.08502 1.14500
C 	C 	0.25000 0.13420 0.16110 -0.27700
C 	C 	0.33070 0.13460 0.19420 -0.29500
C 	C 	0.01660 0.02790 0.01860 -0.39900
C 	C 	0.49020 0.23410 0.11850 -0.25800
C 	C 	0.01600 0.15630 0.21550 -0.42600
C 	C 	0.02740 0.22470 0.94890 -0.31200
Cd	Cd	0.57893 0.63959 0.08502 1.14400
C 	C 	0.75000 0.63420 0.16110 -0.27600
C 	C 	0.83070 0.63460 0.19420 -0.25000
C 	C 	0.51660 0.52790 0.01860 -0.25600
C 	C 	0.99020 0.73410 0.11850 -0.20900
C 	C 	0.51600 0.65630 0.21550 -0.28900
C 	C 	0.52740 0.72470 0.94890 -0.30700
Cd	Cd	0.92107 0.13959 0.41498 1.13800
C 	C 	0.75000 0.13420 0.33890 -0.26800
C 	C 	0.66930 0.13460 0.30580 -0.28800
C 	C 	0.98340 0.02790 0.48140 -0.15600
C 	C 	0.50980 0.23410 0.38150 -0.25900
C 	C 	0.98400 0.15630 0.28450 -0.15800
C 	C 	0.97260 0.22470 0.55110 -0.29200
Cd	Cd	0.42107 0.63959 0.41498 1.13900
C 	C 	0.25000 0.63420 0.33890 -0.27400
C 	C 	0.16930 0.63460 0.30580 -0.31700
C 	C 	0.48340 0.52790 0.48140 -0.28900
C 	C 	0.00980 0.73410 0.38150 -0.29500
C 	C 	0.48400 0.65630 0.28450 -0.29400
C 	C 	0.47260 0.72470 0.55110 -0.29600
Cd	Cd	0.92107 0.86041 0.91498 1.13600
C 	C 	0.75000 0.86580 0.83890 -0.27200
C 	C 	0.66930 0.86540 0.80580 -0.29100
C 	C 	0.98340 0.97210 0.98140 -0.17900
C 	C 	0.50980 0.76590 0.88150 -0.25900
C 	C 	0.98400 0.84370 0.78450 -0.16700
C 	C 	0.97260 0.77530 0.05110 -0.28000
Cd	Cd	0.42107 0.36041 0.91498 1.13700
C 	C 	0.25000 0.36580 0.83890 -0.27900
C 	C 	0.16930 0.36540 0.80580 -0.31900
C 	C 	0.48340 0.47210 0.98140 -0.31900
C 	C 	0.00980 0.26590 0.88150 -0.29400
C 	C 	0.48400 0.34370 0.78450 -0.29900
C 	C 	0.47260 0.27530 0.05110 -0.28500
Cd	Cd	0.07893 0.86041 0.58502 1.14200
C 	C 	0.25000 0.86580 0.66110 -0.28100
C 	C 	0.33070 0.86540 0.69420 -0.29700
C 	C 	0.01660 0.97210 0.51860 -0.41900
C 	C 	0.49020 0.76590 0.61850 -0.25800
C 	C 	0.01600 0.84370 0.71550 -0.42300
C 	C 	0.02740 0.77530 0.44890 -0.30300
Cd	Cd	0.57893 0.36041 0.58502 1.14100
C 	C 	0.75000 0.36580 0.66110 -0.28000
C 	C 	0.83070 0.36540 0.69420 -0.25600
C 	C 	0.51660 0.47210 0.51860 -0.28600
C 	C 	0.99020 0.26590 0.61850 -0.21100
C 	C 	0.51600 0.34370 0.71550 -0.29300
C 	C 	0.52740 0.27530 0.44890 -0.29600
Cd	Cd	0.50000 0.14766 0.25000 1.12800
Cd	Cd	-0.00000 0.64766 0.25000 1.10500
Cd	Cd	0.50000 0.85234 0.75000 1.12700
Cd	Cd	-0.00000 0.35234 0.75000 1.10400
