data_crystal

_cell_length_a 15.79500
_cell_length_b 6.82560
_cell_length_c 8.17550
_cell_angle_alpha 90.00000
_cell_angle_beta  77.00400
_cell_angle_gamma 90.00000

_symmetry_space_group_name_	'P 1'
_symmetry_space_group_name_H-M	'P 1'

loop_
_symmetry_equiv_pos_as_xyz
  x,y,z

loop_
_atom_site_label
_atom_site_type_symbol
_atom_site_fract_x
_atom_site_fract_y
_atom_site_fract_z
_atom_site_charge
O 	O 	0.09320 0.32820 0.87180 -0.48500
O 	O 	0.15599 0.23090 0.07650 -0.38700
C 	C 	0.35610 0.18740 0.89670 0.25100
C 	C 	0.42880 0.08470 0.95100 -0.12900
O 	O 	0.35264 0.36720 0.89290 -0.21800
N 	N 	0.29604 0.07430 0.85070 -0.17200
H 	H 	0.30030 0.94900 0.85680 0.12400
C 	C 	0.15313 0.24420 0.92800 0.45000
C 	C 	0.22457 0.15710 0.79130 -0.27000
H 	H 	0.19950 0.05570 0.73370 0.12600
H 	H 	0.24690 0.25860 0.71000 0.13400
C 	C 	0.49130 0.19840 0.99660 0.13200
H 	H 	0.48620 0.33410 0.99450 0.02200
C 	C 	0.43830 0.88420 0.95440 0.12500
H 	H 	0.39700 0.80370 0.92350 0.00700
O 	O 	0.90680 0.67180 0.12820 -0.37600
O 	O 	0.84401 0.76910 0.92350 -0.23900
C 	C 	0.64390 0.81260 0.10330 0.17200
C 	C 	0.57120 0.91530 0.04900 0.05800
O 	O 	0.64736 0.63280 0.10710 -0.21800
N 	N 	0.70396 0.92570 0.14930 -0.17600
H 	H 	0.69970 0.05100 0.14320 0.12000
C 	C 	0.84687 0.75580 0.07200 0.32800
C 	C 	0.77543 0.84290 0.20870 -0.22500
H 	H 	0.80050 0.94430 0.26630 0.12400
H 	H 	0.75310 0.74140 0.29000 0.12700
C 	C 	0.50870 0.80160 0.00340 -0.18800
H 	H 	0.51380 0.66590 0.00550 0.10500
C 	C 	0.56170 0.11580 0.04560 -0.18700
H 	H 	0.60300 0.19630 0.07650 0.09700
Cu	Cu	-0.00000 0.50000 -0.00000 0.76200
O 	O 	0.90680 0.32820 0.62820 -0.37600
O 	O 	0.84401 0.23090 0.42350 -0.28700
C 	C 	0.64390 0.18740 0.60330 0.20700
C 	C 	0.57120 0.08470 0.54900 -0.01200
O 	O 	0.64736 0.36720 0.60710 -0.21200
N 	N 	0.70396 0.07430 0.64930 -0.16500
H 	H 	0.69970 0.94900 0.64320 0.12200
C 	C 	0.84687 0.24420 0.57200 0.38900
C 	C 	0.77543 0.15710 0.70870 -0.25100
H 	H 	0.80050 0.05570 0.76630 0.14400
H 	H 	0.75310 0.25860 0.79000 0.14400
C 	C 	0.50870 0.19840 0.50340 -0.05000
H 	H 	0.51380 0.33410 0.50550 0.07100
C 	C 	0.56170 0.88420 0.54560 -0.05700
H 	H 	0.60300 0.80370 0.57650 0.06400
O 	O 	0.09320 0.67180 0.37180 -0.49000
O 	O 	0.15599 0.76910 0.57650 -0.33600
C 	C 	0.35610 0.81260 0.39670 0.21700
C 	C 	0.42880 0.91530 0.45100 -0.05900
O 	O 	0.35264 0.63280 0.39290 -0.22500
N 	N 	0.29604 0.92570 0.35070 -0.18200
H 	H 	0.30030 0.05100 0.35680 0.12100
C 	C 	0.15313 0.75580 0.42800 0.38600
C 	C 	0.22457 0.84290 0.29130 -0.24300
H 	H 	0.19950 0.94430 0.23370 0.10500
H 	H 	0.24690 0.74140 0.21000 0.11600
C 	C 	0.49130 0.80160 0.49660 -0.00500
H 	H 	0.48620 0.66590 0.49450 0.05600
C 	C 	0.43830 0.11580 0.45440 -0.00500
H 	H 	0.39700 0.19630 0.42350 0.03900
Cu	Cu	-0.00000 0.50000 0.50000 0.78000
