data_crystal

_cell_length_a 18.60110
_cell_length_b 18.60110
_cell_length_c 9.90000
_cell_angle_alpha 90.00000
_cell_angle_beta  90.00000
_cell_angle_gamma 120.00000

_symmetry_space_group_name_	'P 1'
_symmetry_space_group_name_H-M	'P 1'

loop_
_symmetry_equiv_pos_as_xyz
  x,y,z

loop_
_atom_site_label
_atom_site_type_symbol
_atom_site_fract_x
_atom_site_fract_y
_atom_site_fract_z
_atom_site_charge
C 	C 	0.36806 0.21208 0.32720 0.11500
H 	H 	0.39740 0.21160 0.25140 -0.02000
N 	N 	0.35624 0.27398 0.35810 -0.23200
C 	C 	0.03473 0.54541 0.66053 0.11100
H 	H 	0.06407 0.54493 0.58473 -0.02200
N 	N 	0.02291 0.60731 0.69143 -0.23900
C 	C 	0.70139 0.87875 0.99387 0.11900
H 	H 	0.73073 0.87827 0.91807 -0.01600
N 	N 	0.68957 0.94065 0.02477 -0.22600
C 	C 	0.78792 0.15598 0.32720 0.11500
H 	H 	0.78840 0.18580 0.25140 -0.01900
N 	N 	0.72602 0.08226 0.35810 -0.23400
C 	C 	0.45459 0.48931 0.66053 0.11500
H 	H 	0.45507 0.51913 0.58473 -0.02000
N 	N 	0.39269 0.41559 0.69143 -0.23200
C 	C 	0.12125 0.82265 0.99387 0.12300
H 	H 	0.12173 0.85247 0.91807 -0.02100
N 	N 	0.05935 0.74893 0.02477 -0.24000
C 	C 	0.84402 0.63194 0.32720 0.11600
H 	H 	0.81420 0.60260 0.25140 -0.01900
N 	N 	0.91774 0.64376 0.35810 -0.22700
C 	C 	0.51069 0.96527 0.66053 0.13800
H 	H 	0.48087 0.93593 0.58473 -0.02300
N 	N 	0.58441 0.97709 0.69143 -0.22500
C 	C 	0.17735 0.29861 0.99387 0.11500
H 	H 	0.14753 0.26927 0.91807 -0.02300
N 	N 	0.25107 0.31043 0.02477 -0.23300
C 	C 	0.21208 0.36806 0.17280 0.11400
H 	H 	0.21160 0.39740 0.24860 -0.02100
N 	N 	0.27398 0.35624 0.14190 -0.23200
C 	C 	0.87875 0.70139 0.50613 0.11700
H 	H 	0.87827 0.73073 0.58193 -0.01600
N 	N 	0.94065 0.68957 0.47523 -0.22500
C 	C 	0.54541 0.03473 0.83947 0.11000
H 	H 	0.54493 0.06407 0.91527 -0.02200
N 	N 	0.60731 0.02291 0.80857 -0.24000
C 	C 	0.15598 0.78792 0.17280 0.11400
H 	H 	0.18580 0.78840 0.24860 -0.01900
N 	N 	0.08226 0.72602 0.14190 -0.23500
C 	C 	0.82265 0.12125 0.50613 0.11500
H 	H 	0.85247 0.12173 0.58193 -0.01900
N 	N 	0.74893 0.05935 0.47523 -0.23600
C 	C 	0.48931 0.45459 0.83947 0.11500
H 	H 	0.51913 0.45507 0.91527 -0.02000
N 	N 	0.41559 0.39269 0.80857 -0.23200
C 	C 	0.63194 0.84402 0.17280 0.11600
H 	H 	0.60260 0.81420 0.24860 -0.02000
N 	N 	0.64376 0.91774 0.14190 -0.22700
C 	C 	0.29861 0.17735 0.50613 0.11400
H 	H 	0.26927 0.14753 0.58193 -0.02300
N 	N 	0.31043 0.25107 0.47523 -0.23200
C 	C 	0.96527 0.51069 0.83947 0.13500
H 	H 	0.93593 0.48087 0.91527 -0.02300
N 	N 	0.97709 0.58441 0.80857 -0.22600
C 	C 	0.63194 0.78792 0.67280 0.11600
H 	H 	0.60260 0.78840 0.74860 -0.01900
N 	N 	0.64376 0.72602 0.64190 -0.23100
C 	C 	0.29861 0.12125 0.00613 0.11600
H 	H 	0.26927 0.12173 0.08193 -0.02400
N 	N 	0.31043 0.05935 0.97523 -0.23800
C 	C 	0.96527 0.45459 0.33947 0.13800
H 	H 	0.93593 0.45507 0.41527 -0.02300
N 	N 	0.97709 0.39269 0.30857 -0.22500
C 	C 	0.21208 0.84402 0.67280 0.11600
H 	H 	0.21160 0.81420 0.74860 -0.02000
N 	N 	0.27398 0.91774 0.64190 -0.22700
C 	C 	0.87875 0.17735 0.00613 0.12400
H 	H 	0.87827 0.14753 0.08193 -0.02100
N 	N 	0.94065 0.25107 0.97523 -0.23000
C 	C 	0.54541 0.51069 0.33947 0.11500
H 	H 	0.54493 0.48087 0.41527 -0.02000
N 	N 	0.60731 0.58441 0.30857 -0.23200
C 	C 	0.15598 0.36806 0.67280 0.11400
H 	H 	0.18580 0.39740 0.74860 -0.02000
N 	N 	0.08226 0.35624 0.64190 -0.23400
C 	C 	0.82265 0.70139 0.00613 0.11800
H 	H 	0.85247 0.73073 0.08193 -0.01700
N 	N 	0.74893 0.68957 0.97523 -0.23200
C 	C 	0.48931 0.03473 0.33947 0.11100
H 	H 	0.51913 0.06407 0.41527 -0.02200
N 	N 	0.41559 0.02291 0.30857 -0.23900
C 	C 	0.78792 0.63194 0.82720 0.11600
H 	H 	0.78840 0.60260 0.75140 -0.01900
N 	N 	0.72602 0.64376 0.85810 -0.23100
C 	C 	0.45459 0.96527 0.16053 0.13500
H 	H 	0.45507 0.93593 0.08473 -0.02300
N 	N 	0.39269 0.97709 0.19143 -0.22600
C 	C 	0.12125 0.29861 0.49387 0.11300
H 	H 	0.12173 0.26927 0.41807 -0.02300
N 	N 	0.05935 0.31043 0.52477 -0.23700
C 	C 	0.84402 0.21208 0.82720 0.11500
H 	H 	0.81420 0.21160 0.75140 -0.02000
N 	N 	0.91774 0.27398 0.85810 -0.22800
C 	C 	0.51069 0.54541 0.16053 0.11500
H 	H 	0.48087 0.54493 0.08473 -0.02000
N 	N 	0.58441 0.60731 0.19143 -0.23200
C 	C 	0.17735 0.87875 0.49387 0.11600
H 	H 	0.14753 0.87827 0.41807 -0.01900
N 	N 	0.25107 0.94065 0.52477 -0.22600
C 	C 	0.36806 0.15598 0.82720 0.11300
H 	H 	0.39740 0.18580 0.75140 -0.02000
N 	N 	0.35624 0.08226 0.85810 -0.23500
C 	C 	0.03473 0.48931 0.16053 0.11000
H 	H 	0.06407 0.51913 0.08473 -0.02200
N 	N 	0.02291 0.41559 0.19143 -0.24000
C 	C 	0.70139 0.82265 0.49387 0.11600
H 	H 	0.73073 0.85247 0.41807 -0.01700
N 	N 	0.68957 0.74893 0.52477 -0.23100
Zn	Zn	0.37485 0.37485 0.25000 1.22800
Zn	Zn	0.04152 0.70818 0.58333 1.22500
Zn	Zn	0.70818 0.04152 0.91667 1.22400
Zn	Zn	0.62515 0.00000 0.25000 1.22400
Zn	Zn	0.29182 0.33333 0.58333 1.22800
Zn	Zn	0.95848 0.66667 0.91667 1.23200
Zn	Zn	-0.00000 0.62515 0.25000 1.22300
Zn	Zn	0.66667 0.95848 0.58333 1.23300
Zn	Zn	0.33333 0.29182 0.91667 1.22800
Zn	Zn	0.62515 0.62515 0.75000 1.22800
Zn	Zn	0.29182 0.95848 0.08333 1.23200
Zn	Zn	0.95848 0.29182 0.41667 1.23300
Zn	Zn	0.37485 0.00000 0.75000 1.22300
Zn	Zn	0.04152 0.33333 0.08333 1.22500
Zn	Zn	0.70818 0.66667 0.41667 1.22800
Zn	Zn	-0.00000 0.37485 0.75000 1.22300
Zn	Zn	0.66667 0.70818 0.08333 1.22800
Zn	Zn	0.33333 0.04152 0.41667 1.22500
F 	F 	0.33333 0.40942 0.41667 -0.68800
N 	N 	0.33333 0.14935 0.41667 -0.26700
F 	F 	-0.00000 0.74275 0.75000 -0.69500
N 	N 	0.00000 0.48268 0.75000 -0.27700
F 	F 	0.59058 0.92392 0.41667 -0.68200
N 	N 	0.85065 0.18399 0.41667 -0.26400
F 	F 	0.25725 0.25725 0.75000 -0.69000
N 	N 	0.51732 0.51732 0.75000 -0.26600
F 	F 	0.07608 0.66667 0.41667 -0.69200
N 	N 	0.81601 0.66667 0.41667 -0.26500
F 	F 	0.74275 0.00000 0.75000 -0.69700
N 	N 	0.48268 0.00000 0.75000 -0.27900
F 	F 	0.40942 0.33333 0.08333 -0.68800
N 	N 	0.14935 0.33333 0.08333 -0.26800
F 	F 	0.92392 0.59058 0.08333 -0.68000
N 	N 	0.18399 0.85065 0.08333 -0.26700
F 	F 	0.66667 0.07608 0.08333 -0.69000
N 	N 	0.66667 0.81601 0.08333 -0.26600
F 	F 	0.66667 0.59058 0.58333 -0.68800
N 	N 	0.66667 0.85065 0.58333 -0.26300
F 	F 	0.40942 0.07608 0.58333 -0.69200
N 	N 	0.14935 0.81601 0.58333 -0.26600
F 	F 	0.92392 0.33333 0.58333 -0.68200
N 	N 	0.18399 0.33333 0.58333 -0.26600
F 	F 	0.59058 0.66667 0.91667 -0.68800
N 	N 	0.85065 0.66667 0.91667 -0.26400
F 	F 	0.25725 0.00000 0.25000 -0.69700
N 	N 	0.51732 0.00000 0.25000 -0.27700
F 	F 	0.07608 0.40942 0.91667 -0.69100
N 	N 	0.81601 0.14935 0.91667 -0.27000
F 	F 	0.74275 0.74275 0.25000 -0.68600
N 	N 	0.48268 0.48268 0.25000 -0.26600
F 	F 	0.33333 0.92392 0.91667 -0.68000
N 	N 	0.33333 0.18399 0.91667 -0.26700
F 	F 	0.00000 0.25725 0.25000 -0.69900
N 	N 	-0.00000 0.51732 0.25000 -0.27900
