data_crystal

_cell_length_a 18.72230
_cell_length_b 5.77580
_cell_length_c 20.82830
_cell_angle_alpha 90.00000
_cell_angle_beta  91.16500
_cell_angle_gamma 90.00000

_symmetry_space_group_name_	'P 1'
_symmetry_space_group_name_H-M	'P 1'

loop_
_symmetry_equiv_pos_as_xyz
  x,y,z

loop_
_atom_site_label
_atom_site_type_symbol
_atom_site_fract_x
_atom_site_fract_y
_atom_site_fract_z
_atom_site_charge
O 	O 	0.75810 0.95230 0.32130 -0.44600
O 	O 	0.64130 0.97800 0.33760 -0.29600
O 	O 	0.66870 0.51970 0.25890 -0.45100
O 	O 	0.65750 0.51170 0.15270 -0.31200
N 	N 	0.65660 0.28230 0.43400 -0.09000
N 	N 	0.55390 0.18960 0.15230 -0.08900
C 	C 	0.70350 0.02770 0.35010 0.38100
C 	C 	0.72170 0.18970 0.40530 -0.25600
H 	H 	0.74990 0.10520 0.43850 0.11900
H 	H 	0.75120 0.31930 0.38960 0.13400
C 	C 	0.62460 0.46310 0.40750 0.06000
H 	H 	0.64410 0.53160 0.37030 0.03800
C 	C 	0.56280 0.55520 0.43330 -0.10800
H 	H 	0.54030 0.68640 0.41420 0.07800
C 	C 	0.53450 0.45310 0.48710 0.04900
C 	C 	0.56950 0.26300 0.51290 -0.11600
H 	H 	0.55060 0.18820 0.54940 0.07200
C 	C 	0.62990 0.18380 0.48720 0.06200
H 	H 	0.65410 0.05670 0.50670 0.01700
C 	C 	0.64020 0.44780 0.20700 0.38400
C 	C 	0.57990 0.27200 0.21610 -0.25100
H 	H 	0.59760 0.13990 0.24200 0.12800
H 	H 	0.54020 0.34610 0.23930 0.11900
C 	C 	0.50130 0.30200 0.12190 0.06100
H 	H 	0.47980 0.43220 0.14150 0.01900
C 	C 	0.47820 0.23100 0.06310 -0.10800
H 	H 	0.44030 0.31150 0.04170 0.06900
C 	C 	0.51000 0.04150 0.03380 0.03900
C 	C 	0.56570 0.93100 0.06690 -0.08500
H 	H 	0.59070 0.80690 0.04760 0.07000
C 	C 	0.58410 0.00440 0.12800 0.03600
H 	H 	0.61870 0.92090 0.15270 0.04800
O 	O 	0.74190 0.95230 0.17870 -0.44400
O 	O 	0.85870 0.97800 0.16240 -0.29400
O 	O 	0.83130 0.51970 0.24110 -0.45000
O 	O 	0.84250 0.51170 0.34730 -0.31100
N 	N 	0.84340 0.28230 0.06600 -0.09000
N 	N 	0.94610 0.18960 0.34770 -0.08800
C 	C 	0.79650 0.02770 0.14990 0.38000
C 	C 	0.77830 0.18970 0.09470 -0.25500
H 	H 	0.75010 0.10520 0.06150 0.11900
H 	H 	0.74880 0.31930 0.11040 0.13400
C 	C 	0.87540 0.46310 0.09250 0.06000
H 	H 	0.85590 0.53160 0.12970 0.03800
C 	C 	0.93720 0.55520 0.06670 -0.10700
H 	H 	0.95970 0.68640 0.08580 0.07800
C 	C 	0.96550 0.45310 0.01290 0.04800
C 	C 	0.93050 0.26300 0.98710 -0.11300
H 	H 	0.94940 0.18820 0.95060 0.07100
C 	C 	0.87010 0.18380 0.01280 0.05800
H 	H 	0.84590 0.05670 0.99330 0.01900
C 	C 	0.85980 0.44780 0.29300 0.38400
C 	C 	0.92010 0.27200 0.28390 -0.25100
H 	H 	0.90240 0.13990 0.25800 0.12800
H 	H 	0.95980 0.34610 0.26070 0.11900
C 	C 	0.99870 0.30200 0.37810 0.05800
H 	H 	0.02020 0.43220 0.35850 0.02100
C 	C 	0.02180 0.23100 0.43690 -0.10500
H 	H 	0.05970 0.31150 0.45830 0.06800
C 	C 	0.99000 0.04150 0.46620 0.03700
C 	C 	0.93430 0.93100 0.43310 -0.08300
H 	H 	0.90930 0.80690 0.45240 0.07000
C 	C 	0.91590 0.00440 0.37200 0.03400
H 	H 	0.88130 0.92090 0.34730 0.04900
O 	O 	0.24190 0.04770 0.67870 -0.44500
O 	O 	0.35870 0.02200 0.66240 -0.29500
O 	O 	0.33130 0.48030 0.74110 -0.45000
O 	O 	0.34250 0.48830 0.84730 -0.31100
N 	N 	0.34340 0.71770 0.56600 -0.09000
N 	N 	0.44610 0.81040 0.84770 -0.08900
C 	C 	0.29650 0.97230 0.64990 0.38100
C 	C 	0.27830 0.81030 0.59470 -0.25600
H 	H 	0.25010 0.89480 0.56150 0.11900
H 	H 	0.24880 0.68070 0.61040 0.13400
C 	C 	0.37540 0.53690 0.59250 0.06000
H 	H 	0.35590 0.46840 0.62970 0.03800
C 	C 	0.43720 0.44480 0.56670 -0.10800
H 	H 	0.45970 0.31360 0.58580 0.07800
C 	C 	0.46550 0.54690 0.51290 0.04900
C 	C 	0.43050 0.73700 0.48710 -0.11600
H 	H 	0.44940 0.81180 0.45060 0.07200
C 	C 	0.37010 0.81620 0.51280 0.06200
H 	H 	0.34590 0.94330 0.49330 0.01700
C 	C 	0.35980 0.55220 0.79300 0.38400
C 	C 	0.42010 0.72800 0.78390 -0.25100
H 	H 	0.40240 0.86010 0.75800 0.12800
H 	H 	0.45980 0.65390 0.76070 0.11900
C 	C 	0.49870 0.69800 0.87810 0.06100
H 	H 	0.52020 0.56780 0.85850 0.01900
C 	C 	0.52180 0.76900 0.93690 -0.10800
H 	H 	0.55970 0.68850 0.95830 0.06900
C 	C 	0.49000 0.95850 0.96620 0.03900
C 	C 	0.43430 0.06900 0.93310 -0.08500
H 	H 	0.40930 0.19310 0.95240 0.07000
C 	C 	0.41590 0.99560 0.87200 0.03600
H 	H 	0.38130 0.07910 0.84730 0.04800
O 	O 	0.25810 0.04770 0.82130 -0.44400
O 	O 	0.14130 0.02200 0.83760 -0.29400
O 	O 	0.16870 0.48030 0.75890 -0.45000
O 	O 	0.15750 0.48830 0.65270 -0.31100
N 	N 	0.15660 0.71770 0.93400 -0.09000
N 	N 	0.05390 0.81040 0.65230 -0.08800
C 	C 	0.20350 0.97230 0.85010 0.38000
C 	C 	0.22170 0.81030 0.90530 -0.25500
H 	H 	0.24990 0.89480 0.93850 0.11900
H 	H 	0.25120 0.68070 0.88960 0.13400
C 	C 	0.12460 0.53690 0.90750 0.06000
H 	H 	0.14410 0.46840 0.87030 0.03800
C 	C 	0.06280 0.44480 0.93330 -0.10700
H 	H 	0.04030 0.31360 0.91420 0.07800
C 	C 	0.03450 0.54690 0.98710 0.04800
C 	C 	0.06950 0.73700 0.01290 -0.11300
H 	H 	0.05060 0.81180 0.04940 0.07100
C 	C 	0.12990 0.81620 0.98720 0.05800
H 	H 	0.15410 0.94330 0.00670 0.01900
C 	C 	0.14020 0.55220 0.70700 0.38400
C 	C 	0.07990 0.72800 0.71610 -0.25100
H 	H 	0.09760 0.86010 0.74200 0.12800
H 	H 	0.04020 0.65390 0.73930 0.11900
C 	C 	0.00130 0.69800 0.62190 0.05800
H 	H 	0.97980 0.56780 0.64150 0.02100
C 	C 	0.97820 0.76900 0.56310 -0.10500
H 	H 	0.94030 0.68850 0.54170 0.06800
C 	C 	0.01000 0.95850 0.53380 0.03700
C 	C 	0.06570 0.06900 0.56690 -0.08300
H 	H 	0.09070 0.19310 0.54760 0.07000
C 	C 	0.08410 0.99560 0.62800 0.03400
H 	H 	0.11870 0.07910 0.65270 0.04900
Zn	Zn	0.75000 0.73260 0.25000 1.24100
Zn	Zn	0.25000 0.26740 0.75000 1.24100
