data_crystal

_cell_length_a 9.01930
_cell_length_b 7.34210
_cell_length_c 9.39010
_cell_angle_alpha 90.00000
_cell_angle_beta  90.00000
_cell_angle_gamma 90.00000

_symmetry_space_group_name_	'P 1'
_symmetry_space_group_name_H-M	'P 1'

loop_
_symmetry_equiv_pos_as_xyz
  x,y,z

loop_
_atom_site_label
_atom_site_type_symbol
_atom_site_fract_x
_atom_site_fract_y
_atom_site_fract_z
_atom_site_charge
F 	F 	0.64890 0.54960 0.63460 -0.63300
F 	F 	0.14890 0.04960 0.13460 -0.98100
F 	F 	0.35110 0.95040 0.63460 -0.51400
F 	F 	0.85110 0.45040 0.13460 -0.65300
F 	F 	0.35110 0.04960 0.36540 -0.85900
F 	F 	0.85110 0.54960 0.86540 -0.43500
F 	F 	0.64890 0.45040 0.36540 -0.66600
F 	F 	0.14890 0.95040 0.86540 -0.43100
F 	F 	0.35110 0.45040 0.36540 -0.71400
F 	F 	0.85110 0.95040 0.86540 -0.28100
F 	F 	0.64890 0.04960 0.36540 -0.81000
F 	F 	0.14890 0.54960 0.86540 -0.59400
F 	F 	0.64890 0.95040 0.63460 -0.47100
F 	F 	0.14890 0.45040 0.13460 -0.83600
F 	F 	0.35110 0.54960 0.63460 -0.67900
F 	F 	0.85110 0.04960 0.13460 -0.79400
Co	Co	0.75000 0.75000 0.75000 1.36700
Co	Co	0.25000 0.75000 0.75000 1.31700
Co	Co	0.25000 0.25000 0.25000 1.20000
Co	Co	0.75000 0.25000 0.25000 1.25600
Ga	Ga	0.50000 0.50000 0.50000 2.15500
Ga	Ga	-0.00000 0.00000 -0.00000 1.95800
Ga	Ga	0.50000 0.00000 0.50000 2.08300
Ga	Ga	-0.00000 0.50000 -0.00000 2.02900
F 	F 	0.50000 0.75000 0.42550 -0.61500
F 	F 	-0.00000 0.25000 0.92550 -0.73800
F 	F 	0.50000 0.25000 0.57450 -0.78200
F 	F 	-0.00000 0.75000 0.07450 -0.87900
