data_crystal

_cell_length_a 9.05950
_cell_length_b 7.46280
_cell_length_c 9.43210
_cell_angle_alpha 90.00000
_cell_angle_beta  90.00000
_cell_angle_gamma 90.00000

_symmetry_space_group_name_	'P 1'
_symmetry_space_group_name_H-M	'P 1'

loop_
_symmetry_equiv_pos_as_xyz
  x,y,z

loop_
_atom_site_label
_atom_site_type_symbol
_atom_site_fract_x
_atom_site_fract_y
_atom_site_fract_z
_atom_site_charge
F 	F 	0.64700 0.55630 0.63320 -0.60700
F 	F 	0.14700 0.05630 0.13320 -0.88300
F 	F 	0.35300 0.94370 0.63320 -0.50000
F 	F 	0.85300 0.44370 0.13320 -0.61300
F 	F 	0.35300 0.05630 0.36680 -0.79600
F 	F 	0.85300 0.55630 0.86680 -0.42300
F 	F 	0.64700 0.44370 0.36680 -0.64100
F 	F 	0.14700 0.94370 0.86680 -0.41400
F 	F 	0.35300 0.44370 0.36680 -0.68300
F 	F 	0.85300 0.94370 0.86680 -0.28500
F 	F 	0.64700 0.05630 0.36680 -0.75200
F 	F 	0.14700 0.55630 0.86680 -0.55900
F 	F 	0.64700 0.94370 0.63320 -0.46200
F 	F 	0.14700 0.44370 0.13320 -0.77000
F 	F 	0.35300 0.55630 0.63320 -0.64700
F 	F 	0.85300 0.05630 0.13320 -0.72200
Zn	Zn	0.75000 0.75000 0.75000 1.35000
Zn	Zn	0.25000 0.75000 0.75000 1.32100
Zn	Zn	0.25000 0.25000 0.25000 1.25200
Zn	Zn	0.75000 0.25000 0.25000 1.28500
V 	V 	0.50000 0.50000 0.50000 1.95100
V 	V 	-0.00000 0.00000 -0.00000 1.61500
V 	V 	0.50000 0.00000 0.50000 1.82600
V 	V 	-0.00000 0.50000 -0.00000 1.73800
F 	F 	0.50000 0.75000 0.42450 -0.54300
F 	F 	-0.00000 0.25000 0.92450 -0.61800
F 	F 	0.50000 0.25000 0.57550 -0.68200
F 	F 	-0.00000 0.75000 0.07550 -0.73800
