data_crystal

_cell_length_a 30.67200
_cell_length_b 15.07200
_cell_length_c 20.99400
_cell_angle_alpha 90.00000
_cell_angle_beta  129.55300
_cell_angle_gamma 90.00000

_symmetry_space_group_name_	'P 1'
_symmetry_space_group_name_H-M	'P 1'

loop_
_symmetry_equiv_pos_as_xyz
  x,y,z

loop_
_atom_site_label
_atom_site_type_symbol
_atom_site_fract_x
_atom_site_fract_y
_atom_site_fract_z
_atom_site_charge
Cd	Cd	0.92684 0.54719 0.93213 1.20200
Cd	Cd	0.76142 0.79494 0.59429 1.22600
O 	O 	0.97992 0.28280 0.04580 -0.29300
O 	O 	0.93514 0.46590 0.83770 -0.37900
O 	O 	0.83356 0.55320 0.58110 -0.29400
O 	O 	0.78614 0.68070 0.54560 -0.47100
N 	N 	0.82245 0.70580 0.70230 -0.23800
N 	N 	0.86852 0.44400 0.92020 -0.23600
C 	C 	0.84970 0.69760 0.78390 0.18400
O 	O 	0.89912 0.46250 0.70660 -0.48400
H 	H 	0.88150 0.49610 0.66680 0.30800
N 	N 	0.88217 0.62470 0.81690 -0.24600
O 	O 	0.83220 0.92080 0.98210 -1.06600
C 	C 	0.84470 0.75960 0.83310 -0.28300
C 	C 	0.81480 0.43540 0.88920 0.13700
O 	O 	0.98181 0.41950 0.00700 -0.51000
C 	C 	0.77000 0.50220 0.83670 -0.13400
C 	C 	0.90520 0.49870 0.76780 0.36300
C 	C 	0.89570 0.36730 0.96380 -0.03700
C 	C 	0.73490 0.53010 0.85390 0.06400
H 	H 	0.73960 0.50700 0.89900 0.00500
C 	C 	0.81850 0.62110 0.59880 0.30800
C 	C 	0.83930 0.63410 0.68300 -0.03300
C 	C 	0.87540 0.58300 0.75300 -0.06700
C 	C 	0.76220 0.53670 0.76870 0.06900
H 	H 	0.78510 0.51750 0.75680 -0.00500
C 	C 	0.95660 0.35460 0.00900 0.32400
C 	C 	0.78510 0.84690 0.84900 -0.49400
H 	H 	0.74960 0.86760 0.82810 0.22000
C 	C 	0.79150 0.79320 0.80120 0.26900
H 	H 	0.76000 0.77950 0.74730 -0.08000
C 	C 	0.89150 0.78200 0.91260 0.26300
H 	H 	0.92660 0.75900 0.93430 -0.07600
O 	O 	0.64730 0.69190 0.68400 -0.18200
C 	C 	0.72020 0.60030 0.71810 -0.19700
H 	H 	0.71540 0.62400 0.67310 0.11900
C 	C 	0.83380 0.86890 0.92990 0.65000
C 	C 	0.68570 0.62760 0.73620 0.21700
C 	C 	0.88730 0.83870 0.96160 -0.50200
H 	H 	0.91940 0.85570 0.01400 0.20800
C 	C 	0.77870 0.95160 0.95380 0.60000
H 	H 	0.76030 0.98360 0.90300 -0.13100
H 	H 	0.78380 0.99020 0.99450 -0.14100
H 	H 	0.75570 0.90190 0.94470 -0.14700
C 	C 	0.69270 0.59260 0.80290 -0.20300
H 	H 	0.66920 0.61090 0.81390 0.10300
C 	C 	0.61260 0.72730 0.70160 -0.22000
H 	H 	0.58410 0.68480 0.68620 0.10500
H 	H 	0.59490 0.78100 0.67080 0.11800
H 	H 	0.63560 0.73980 0.75960 0.10300
N 	N 	0.80525 0.35660 0.91020 -0.23000
O 	O 	0.90952 0.18480 0.03310 -0.46700
H 	H 	0.93450 0.22130 0.04970 0.30600
C 	C 	0.85650 0.31260 0.95720 -0.05600
C 	C 	0.86120 0.22430 0.98980 0.35600
O 	O 	0.81839 0.18940 0.97380 -0.37000
O 	O 	0.82490 0.88360 0.60210 -0.49500
H 	H 	0.79900 0.84370 0.57670 0.02500
H 	H 	0.84130 0.86300 0.58390 0.26800
H 	H 	0.85000 0.92100 0.02500 0.63900
Cd	Cd	0.42684 0.04719 0.93213 1.20300
Cd	Cd	0.26142 0.29494 0.59429 1.22700
O 	O 	0.47992 0.78280 0.04580 -0.29200
O 	O 	0.43514 0.96590 0.83770 -0.37700
O 	O 	0.33356 0.05320 0.58110 -0.29300
O 	O 	0.28614 0.18070 0.54560 -0.47000
N 	N 	0.32245 0.20580 0.70230 -0.23800
N 	N 	0.36852 0.94400 0.92020 -0.23500
C 	C 	0.34970 0.19760 0.78390 0.18700
O 	O 	0.39912 0.96250 0.70660 -0.48300
H 	H 	0.38150 0.99610 0.66680 0.31000
N 	N 	0.38217 0.12470 0.81690 -0.24600
O 	O 	0.33220 0.42080 0.98210 -1.09200
C 	C 	0.34470 0.25960 0.83310 -0.28900
C 	C 	0.31480 0.93540 0.88920 0.14100
O 	O 	0.48181 0.91950 0.00700 -0.51100
C 	C 	0.27000 0.00220 0.83670 -0.13900
C 	C 	0.40520 0.99870 0.76780 0.36500
C 	C 	0.39570 0.86730 0.96380 -0.03200
C 	C 	0.23490 0.03010 0.85390 0.06700
H 	H 	0.23960 0.00700 0.89900 0.00300
C 	C 	0.31850 0.12110 0.59880 0.30800
C 	C 	0.33930 0.13410 0.68300 -0.03300
C 	C 	0.37540 0.08300 0.75300 -0.06900
C 	C 	0.26220 0.03670 0.76870 0.07200
H 	H 	0.28510 0.01750 0.75680 -0.00700
C 	C 	0.45660 0.85460 0.00900 0.31900
C 	C 	0.28510 0.34690 0.84900 -0.50600
H 	H 	0.24960 0.36760 0.82810 0.22400
C 	C 	0.29150 0.29320 0.80120 0.27800
H 	H 	0.26000 0.27950 0.74730 -0.08300
C 	C 	0.39150 0.28200 0.91260 0.27500
H 	H 	0.42660 0.25900 0.93430 -0.08100
O 	O 	0.14730 0.19190 0.68400 -0.18300
C 	C 	0.22020 0.10030 0.71810 -0.19900
H 	H 	0.21540 0.12400 0.67310 0.12000
C 	C 	0.33380 0.36890 0.92990 0.66700
C 	C 	0.18570 0.12760 0.73620 0.21900
C 	C 	0.38730 0.33870 0.96160 -0.52100
H 	H 	0.41940 0.35570 0.01400 0.21700
C 	C 	0.27870 0.45160 0.95380 0.62600
H 	H 	0.26030 0.48360 0.90300 -0.14000
H 	H 	0.28380 0.49020 0.99450 -0.15000
H 	H 	0.25570 0.40190 0.94470 -0.15600
C 	C 	0.19270 0.09260 0.80290 -0.20600
H 	H 	0.16920 0.11090 0.81390 0.10400
C 	C 	0.11260 0.22730 0.70160 -0.21800
H 	H 	0.08410 0.18480 0.68620 0.10400
H 	H 	0.09490 0.28100 0.67080 0.11700
H 	H 	0.13560 0.23980 0.75960 0.10200
N 	N 	0.30525 0.85660 0.91020 -0.23000
O 	O 	0.40952 0.68480 0.03310 -0.47200
H 	H 	0.43450 0.72130 0.04970 0.30700
C 	C 	0.35650 0.81260 0.95720 -0.05800
C 	C 	0.36120 0.72430 0.98980 0.36200
O 	O 	0.31839 0.68940 0.97380 -0.37000
O 	O 	0.32490 0.38360 0.60210 -0.49500
H 	H 	0.29900 0.34370 0.57670 0.02500
H 	H 	0.34130 0.36300 0.58390 0.26800
H 	H 	0.35000 0.42100 0.02500 0.65500
Cd	Cd	0.07316 0.54719 0.56787 1.20300
Cd	Cd	0.23858 0.79494 0.90571 1.22700
O 	O 	0.02008 0.28280 0.45420 -0.29300
O 	O 	0.06486 0.46590 0.66230 -0.37800
O 	O 	0.16644 0.55320 0.91890 -0.29200
O 	O 	0.21386 0.68070 0.95440 -0.47000
N 	N 	0.17755 0.70580 0.79770 -0.23700
N 	N 	0.13148 0.44400 0.57980 -0.23500
C 	C 	0.15030 0.69760 0.71610 0.18700
O 	O 	0.10088 0.46250 0.79340 -0.48300
H 	H 	0.11850 0.49610 0.83320 0.30900
N 	N 	0.11783 0.62470 0.68310 -0.24500
O 	O 	0.16780 0.92080 0.51790 -1.08600
C 	C 	0.15530 0.75960 0.66690 -0.28700
C 	C 	0.18520 0.43540 0.61080 0.13700
O 	O 	0.01819 0.41950 0.49300 -0.51000
C 	C 	0.23000 0.50220 0.66330 -0.13400
C 	C 	0.09480 0.49870 0.73220 0.36300
C 	C 	0.10430 0.36730 0.53620 -0.03500
C 	C 	0.26510 0.53010 0.64610 0.06400
H 	H 	0.26040 0.50700 0.60100 0.00500
C 	C 	0.18150 0.62110 0.90120 0.30800
C 	C 	0.16070 0.63410 0.81700 -0.03300
C 	C 	0.12460 0.58300 0.74700 -0.06700
C 	C 	0.23780 0.53670 0.73130 0.06800
H 	H 	0.21490 0.51750 0.74320 -0.00500
C 	C 	0.04340 0.35460 0.49100 0.32200
C 	C 	0.21490 0.84690 0.65100 -0.50300
H 	H 	0.25040 0.86760 0.67190 0.22300
C 	C 	0.20850 0.79320 0.69880 0.27600
H 	H 	0.24000 0.77950 0.75270 -0.08200
C 	C 	0.10850 0.78200 0.58740 0.27200
H 	H 	0.07340 0.75900 0.56570 -0.07900
O 	O 	0.35270 0.69190 0.81600 -0.18200
C 	C 	0.27980 0.60030 0.78190 -0.19600
H 	H 	0.28460 0.62400 0.82690 0.11900
C 	C 	0.16620 0.86890 0.57010 0.66300
C 	C 	0.31430 0.62760 0.76380 0.21700
C 	C 	0.11270 0.83870 0.53840 -0.51600
H 	H 	0.08060 0.85570 0.48600 0.21500
C 	C 	0.22130 0.95160 0.54620 0.62100
H 	H 	0.23970 0.98360 0.59700 -0.13800
H 	H 	0.21620 0.99020 0.50550 -0.14900
H 	H 	0.24430 0.90190 0.55530 -0.15400
C 	C 	0.30730 0.59260 0.69710 -0.20300
H 	H 	0.33080 0.61090 0.68610 0.10300
C 	C 	0.38740 0.72730 0.79840 -0.22000
H 	H 	0.41590 0.68480 0.81380 0.10500
H 	H 	0.40510 0.78100 0.82920 0.11800
H 	H 	0.36440 0.73980 0.74040 0.10300
N 	N 	0.19475 0.35660 0.58980 -0.23000
O 	O 	0.09048 0.18480 0.46690 -0.47100
H 	H 	0.06550 0.22130 0.45030 0.30700
C 	C 	0.14350 0.31260 0.54280 -0.05700
C 	C 	0.13880 0.22430 0.51020 0.36000
O 	O 	0.18161 0.18940 0.52620 -0.37000
O 	O 	0.17510 0.88360 0.89790 -0.49500
H 	H 	0.20100 0.84370 0.92330 0.02600
H 	H 	0.15870 0.86300 0.91610 0.26900
H 	H 	0.15000 0.92100 0.47500 0.65200
Cd	Cd	0.57316 0.04719 0.56787 1.20300
Cd	Cd	0.73858 0.29494 0.90571 1.22700
O 	O 	0.52008 0.78280 0.45420 -0.29200
O 	O 	0.56486 0.96590 0.66230 -0.37800
O 	O 	0.66644 0.05320 0.91890 -0.29500
O 	O 	0.71386 0.18070 0.95440 -0.47200
N 	N 	0.67755 0.20580 0.79770 -0.23800
N 	N 	0.63148 0.94400 0.57980 -0.23500
C 	C 	0.65030 0.19760 0.71610 0.18700
O 	O 	0.60088 0.96250 0.79340 -0.48400
H 	H 	0.61850 0.99610 0.83320 0.31100
N 	N 	0.61783 0.12470 0.68310 -0.24500
O 	O 	0.66780 0.42080 0.51790 -1.08700
C 	C 	0.65530 0.25960 0.66690 -0.28800
C 	C 	0.68520 0.93540 0.61080 0.13800
O 	O 	0.51819 0.91950 0.49300 -0.51000
C 	C 	0.73000 0.00220 0.66330 -0.13500
C 	C 	0.59480 0.99870 0.73220 0.36500
C 	C 	0.60430 0.86730 0.53620 -0.03500
C 	C 	0.76510 0.03010 0.64610 0.06500
H 	H 	0.76040 0.00700 0.60100 0.00500
C 	C 	0.68150 0.12110 0.90120 0.30800
C 	C 	0.66070 0.13410 0.81700 -0.03300
C 	C 	0.62460 0.08300 0.74700 -0.06900
C 	C 	0.73780 0.03670 0.73130 0.06900
H 	H 	0.71490 0.01750 0.74320 -0.00600
C 	C 	0.54340 0.85460 0.49100 0.32200
C 	C 	0.71490 0.34690 0.65100 -0.50400
H 	H 	0.75040 0.36760 0.67190 0.22300
C 	C 	0.70850 0.29320 0.69880 0.27600
H 	H 	0.74000 0.27950 0.75270 -0.08300
C 	C 	0.60850 0.28200 0.58740 0.27200
H 	H 	0.57340 0.25900 0.56570 -0.07900
O 	O 	0.85270 0.19190 0.81600 -0.18300
C 	C 	0.77980 0.10030 0.78190 -0.19700
H 	H 	0.78460 0.12400 0.82690 0.11900
C 	C 	0.66620 0.36890 0.57010 0.66400
C 	C 	0.81430 0.12760 0.76380 0.21800
C 	C 	0.61270 0.33870 0.53840 -0.51700
H 	H 	0.58060 0.35570 0.48600 0.21500
C 	C 	0.72130 0.45160 0.54620 0.62200
H 	H 	0.73970 0.48360 0.59700 -0.13900
H 	H 	0.71620 0.49020 0.50550 -0.14900
H 	H 	0.74430 0.40190 0.55530 -0.15500
C 	C 	0.80730 0.09260 0.69710 -0.20400
H 	H 	0.83080 0.11090 0.68610 0.10300
C 	C 	0.88740 0.22730 0.79840 -0.21800
H 	H 	0.91590 0.18480 0.81380 0.10400
H 	H 	0.90510 0.28100 0.82920 0.11700
H 	H 	0.86440 0.23980 0.74040 0.10300
N 	N 	0.69475 0.85660 0.58980 -0.23000
O 	O 	0.59048 0.68480 0.46690 -0.47100
H 	H 	0.56550 0.72130 0.45030 0.30700
C 	C 	0.64350 0.81260 0.54280 -0.05700
C 	C 	0.63880 0.72430 0.51020 0.36000
O 	O 	0.68161 0.68940 0.52620 -0.37000
O 	O 	0.67510 0.38360 0.89790 -0.49500
H 	H 	0.70100 0.34370 0.92330 0.02500
H 	H 	0.65870 0.36300 0.91610 0.26800
H 	H 	0.65000 0.42100 0.47500 0.65300
Cd	Cd	0.07316 0.45281 0.06787 1.20300
Cd	Cd	0.23858 0.20506 0.40571 1.22700
O 	O 	0.02008 0.71720 0.95420 -0.29200
O 	O 	0.06486 0.53410 0.16230 -0.37800
O 	O 	0.16644 0.44680 0.41890 -0.29300
O 	O 	0.21386 0.31930 0.45440 -0.47000
N 	N 	0.17755 0.29420 0.29770 -0.23700
N 	N 	0.13148 0.55600 0.07980 -0.23500
C 	C 	0.15030 0.30240 0.21610 0.18500
O 	O 	0.10088 0.53750 0.29340 -0.48300
H 	H 	0.11850 0.50390 0.33320 0.30900
N 	N 	0.11783 0.37530 0.18310 -0.24500
O 	O 	0.16780 0.07920 0.01790 -1.06500
C 	C 	0.15530 0.24040 0.16690 -0.28200
C 	C 	0.18520 0.56460 0.11080 0.13700
O 	O 	0.01819 0.58050 0.99300 -0.51000
C 	C 	0.23000 0.49780 0.16330 -0.13400
C 	C 	0.09480 0.50130 0.23220 0.36300
C 	C 	0.10430 0.63270 0.03620 -0.03700
C 	C 	0.26510 0.46990 0.14610 0.06400
H 	H 	0.26040 0.49300 0.10100 0.00500
C 	C 	0.18150 0.37890 0.40120 0.30800
C 	C 	0.16070 0.36590 0.31700 -0.03300
C 	C 	0.12460 0.41700 0.24700 -0.06700
C 	C 	0.23780 0.46330 0.23130 0.06900
H 	H 	0.21490 0.48250 0.24320 -0.00500
C 	C 	0.04340 0.64540 0.99100 0.32400
C 	C 	0.21490 0.15310 0.15100 -0.49400
H 	H 	0.25040 0.13240 0.17190 0.22000
C 	C 	0.20850 0.20680 0.19880 0.26900
H 	H 	0.24000 0.22050 0.25270 -0.08000
C 	C 	0.10850 0.21800 0.08740 0.26300
H 	H 	0.07340 0.24100 0.06570 -0.07600
O 	O 	0.35270 0.30810 0.31600 -0.18200
C 	C 	0.27980 0.39970 0.28190 -0.19700
H 	H 	0.28460 0.37600 0.32690 0.11900
C 	C 	0.16620 0.13110 0.07010 0.65000
C 	C 	0.31430 0.37240 0.26380 0.21700
C 	C 	0.11270 0.16130 0.03840 -0.50200
H 	H 	0.08060 0.14430 0.98600 0.20800
C 	C 	0.22130 0.04840 0.04620 0.60000
H 	H 	0.23970 0.01640 0.09700 -0.13100
H 	H 	0.21620 0.00980 0.00550 -0.14100
H 	H 	0.24430 0.09810 0.05530 -0.14700
C 	C 	0.30730 0.40740 0.19710 -0.20300
H 	H 	0.33080 0.38910 0.18610 0.10300
C 	C 	0.38740 0.27270 0.29840 -0.22000
H 	H 	0.41590 0.31520 0.31380 0.10500
H 	H 	0.40510 0.21900 0.32920 0.11800
H 	H 	0.36440 0.26020 0.24040 0.10300
N 	N 	0.19475 0.64340 0.08980 -0.23000
O 	O 	0.09048 0.81520 0.96690 -0.46700
H 	H 	0.06550 0.77870 0.95030 0.30600
C 	C 	0.14350 0.68740 0.04280 -0.05600
C 	C 	0.13880 0.77570 0.01020 0.35600
O 	O 	0.18161 0.81060 0.02620 -0.37000
O 	O 	0.17510 0.11640 0.39790 -0.49500
H 	H 	0.20100 0.15630 0.42330 0.02500
H 	H 	0.15870 0.13700 0.41610 0.26800
H 	H 	0.15000 0.07900 0.97500 0.63900
Cd	Cd	0.57316 0.95281 0.06787 1.20300
Cd	Cd	0.73858 0.70506 0.40571 1.22700
O 	O 	0.52008 0.21720 0.95420 -0.29200
O 	O 	0.56486 0.03410 0.16230 -0.37700
O 	O 	0.66644 0.94680 0.41890 -0.29300
O 	O 	0.71386 0.81930 0.45440 -0.47000
N 	N 	0.67755 0.79420 0.29770 -0.23800
N 	N 	0.63148 0.05600 0.07980 -0.23500
C 	C 	0.65030 0.80240 0.21610 0.18700
O 	O 	0.60088 0.03750 0.29340 -0.48300
H 	H 	0.61850 0.00390 0.33320 0.31000
N 	N 	0.61783 0.87530 0.18310 -0.24600
O 	O 	0.66780 0.57920 0.01790 -1.09200
C 	C 	0.65530 0.74040 0.16690 -0.28900
C 	C 	0.68520 0.06460 0.11080 0.14100
O 	O 	0.51819 0.08050 0.99300 -0.51100
C 	C 	0.73000 0.99780 0.16330 -0.13900
C 	C 	0.59480 0.00130 0.23220 0.36500
C 	C 	0.60430 0.13270 0.03620 -0.03200
C 	C 	0.76510 0.96990 0.14610 0.06700
H 	H 	0.76040 0.99300 0.10100 0.00300
C 	C 	0.68150 0.87890 0.40120 0.30800
C 	C 	0.66070 0.86590 0.31700 -0.03300
C 	C 	0.62460 0.91700 0.24700 -0.06900
C 	C 	0.73780 0.96330 0.23130 0.07200
H 	H 	0.71490 0.98250 0.24320 -0.00700
C 	C 	0.54340 0.14540 0.99100 0.31900
C 	C 	0.71490 0.65310 0.15100 -0.50600
H 	H 	0.75040 0.63240 0.17190 0.22400
C 	C 	0.70850 0.70680 0.19880 0.27800
H 	H 	0.74000 0.72050 0.25270 -0.08300
C 	C 	0.60850 0.71800 0.08740 0.27500
H 	H 	0.57340 0.74100 0.06570 -0.08100
O 	O 	0.85270 0.80810 0.31600 -0.18300
C 	C 	0.77980 0.89970 0.28190 -0.19900
H 	H 	0.78460 0.87600 0.32690 0.12000
C 	C 	0.66620 0.63110 0.07010 0.66700
C 	C 	0.81430 0.87240 0.26380 0.21900
C 	C 	0.61270 0.66130 0.03840 -0.52100
H 	H 	0.58060 0.64430 0.98600 0.21700
C 	C 	0.72130 0.54840 0.04620 0.62600
H 	H 	0.73970 0.51640 0.09700 -0.14000
H 	H 	0.71620 0.50980 0.00550 -0.15000
H 	H 	0.74430 0.59810 0.05530 -0.15600
C 	C 	0.80730 0.90740 0.19710 -0.20600
H 	H 	0.83080 0.88910 0.18610 0.10400
C 	C 	0.88740 0.77270 0.29840 -0.21800
H 	H 	0.91590 0.81520 0.31380 0.10400
H 	H 	0.90510 0.71900 0.32920 0.11700
H 	H 	0.86440 0.76020 0.24040 0.10200
N 	N 	0.69475 0.14340 0.08980 -0.23000
O 	O 	0.59048 0.31520 0.96690 -0.47200
H 	H 	0.56550 0.27870 0.95030 0.30700
C 	C 	0.64350 0.18740 0.04280 -0.05800
C 	C 	0.63880 0.27570 0.01020 0.36200
O 	O 	0.68161 0.31060 0.02620 -0.37000
O 	O 	0.67510 0.61640 0.39790 -0.49500
H 	H 	0.70100 0.65630 0.42330 0.02500
H 	H 	0.65870 0.63700 0.41610 0.26800
H 	H 	0.65000 0.57900 0.97500 0.65500
Cd	Cd	0.92684 0.45281 0.43213 1.20300
Cd	Cd	0.76142 0.20506 0.09429 1.22700
O 	O 	0.97992 0.71720 0.54580 -0.29300
O 	O 	0.93514 0.53410 0.33770 -0.37800
O 	O 	0.83356 0.44680 0.08110 -0.29200
O 	O 	0.78614 0.31930 0.04560 -0.47000
N 	N 	0.82245 0.29420 0.20230 -0.23700
N 	N 	0.86852 0.55600 0.42020 -0.23500
C 	C 	0.84970 0.30240 0.28390 0.18700
O 	O 	0.89912 0.53750 0.20660 -0.48300
H 	H 	0.88150 0.50390 0.16680 0.30900
N 	N 	0.88217 0.37530 0.31690 -0.24500
O 	O 	0.83220 0.07920 0.48210 -1.08600
C 	C 	0.84470 0.24040 0.33310 -0.28700
C 	C 	0.81480 0.56460 0.38920 0.13700
O 	O 	0.98181 0.58050 0.50700 -0.51000
C 	C 	0.77000 0.49780 0.33670 -0.13400
C 	C 	0.90520 0.50130 0.26780 0.36300
C 	C 	0.89570 0.63270 0.46380 -0.03500
C 	C 	0.73490 0.46990 0.35390 0.06400
H 	H 	0.73960 0.49300 0.39900 0.00500
C 	C 	0.81850 0.37890 0.09880 0.30800
C 	C 	0.83930 0.36590 0.18300 -0.03300
C 	C 	0.87540 0.41700 0.25300 -0.06700
C 	C 	0.76220 0.46330 0.26870 0.06800
H 	H 	0.78510 0.48250 0.25680 -0.00500
C 	C 	0.95660 0.64540 0.50900 0.32200
C 	C 	0.78510 0.15310 0.34900 -0.50300
H 	H 	0.74960 0.13240 0.32810 0.22300
C 	C 	0.79150 0.20680 0.30120 0.27600
H 	H 	0.76000 0.22050 0.24730 -0.08200
C 	C 	0.89150 0.21800 0.41260 0.27200
H 	H 	0.92660 0.24100 0.43430 -0.07900
O 	O 	0.64730 0.30810 0.18400 -0.18200
C 	C 	0.72020 0.39970 0.21810 -0.19600
H 	H 	0.71540 0.37600 0.17310 0.11900
C 	C 	0.83380 0.13110 0.42990 0.66300
C 	C 	0.68570 0.37240 0.23620 0.21700
C 	C 	0.88730 0.16130 0.46160 -0.51600
H 	H 	0.91940 0.14430 0.51400 0.21500
C 	C 	0.77870 0.04840 0.45380 0.62100
H 	H 	0.76030 0.01640 0.40300 -0.13800
H 	H 	0.78380 0.00980 0.49450 -0.14900
H 	H 	0.75570 0.09810 0.44470 -0.15400
C 	C 	0.69270 0.40740 0.30290 -0.20300
H 	H 	0.66920 0.38910 0.31390 0.10300
C 	C 	0.61260 0.27270 0.20160 -0.22000
H 	H 	0.58410 0.31520 0.18620 0.10500
H 	H 	0.59490 0.21900 0.17080 0.11800
H 	H 	0.63560 0.26020 0.25960 0.10300
N 	N 	0.80525 0.64340 0.41020 -0.23000
O 	O 	0.90952 0.81520 0.53310 -0.47100
H 	H 	0.93450 0.77870 0.54970 0.30700
C 	C 	0.85650 0.68740 0.45720 -0.05700
C 	C 	0.86120 0.77570 0.48980 0.36000
O 	O 	0.81839 0.81060 0.47380 -0.37000
O 	O 	0.82490 0.11640 0.10210 -0.49500
H 	H 	0.79900 0.15630 0.07670 0.02600
H 	H 	0.84130 0.13700 0.08390 0.26900
H 	H 	0.85000 0.07900 0.52500 0.65200
Cd	Cd	0.42684 0.95281 0.43213 1.20300
Cd	Cd	0.26142 0.70506 0.09429 1.22700
O 	O 	0.47992 0.21720 0.54580 -0.29200
O 	O 	0.43514 0.03410 0.33770 -0.37800
O 	O 	0.33356 0.94680 0.08110 -0.29500
O 	O 	0.28614 0.81930 0.04560 -0.47200
N 	N 	0.32245 0.79420 0.20230 -0.23800
N 	N 	0.36852 0.05600 0.42020 -0.23500
C 	C 	0.34970 0.80240 0.28390 0.18700
O 	O 	0.39912 0.03750 0.20660 -0.48400
H 	H 	0.38150 0.00390 0.16680 0.31100
N 	N 	0.38217 0.87530 0.31690 -0.24500
O 	O 	0.33220 0.57920 0.48210 -1.08700
C 	C 	0.34470 0.74040 0.33310 -0.28800
C 	C 	0.31480 0.06460 0.38920 0.13800
O 	O 	0.48181 0.08050 0.50700 -0.51000
C 	C 	0.27000 0.99780 0.33670 -0.13500
C 	C 	0.40520 0.00130 0.26780 0.36500
C 	C 	0.39570 0.13270 0.46380 -0.03500
C 	C 	0.23490 0.96990 0.35390 0.06500
H 	H 	0.23960 0.99300 0.39900 0.00500
C 	C 	0.31850 0.87890 0.09880 0.30800
C 	C 	0.33930 0.86590 0.18300 -0.03300
C 	C 	0.37540 0.91700 0.25300 -0.06900
C 	C 	0.26220 0.96330 0.26870 0.06900
H 	H 	0.28510 0.98250 0.25680 -0.00600
C 	C 	0.45660 0.14540 0.50900 0.32200
C 	C 	0.28510 0.65310 0.34900 -0.50400
H 	H 	0.24960 0.63240 0.32810 0.22300
C 	C 	0.29150 0.70680 0.30120 0.27600
H 	H 	0.26000 0.72050 0.24730 -0.08300
C 	C 	0.39150 0.71800 0.41260 0.27200
H 	H 	0.42660 0.74100 0.43430 -0.07900
O 	O 	0.14730 0.80810 0.18400 -0.18300
C 	C 	0.22020 0.89970 0.21810 -0.19700
H 	H 	0.21540 0.87600 0.17310 0.11900
C 	C 	0.33380 0.63110 0.42990 0.66400
C 	C 	0.18570 0.87240 0.23620 0.21800
C 	C 	0.38730 0.66130 0.46160 -0.51700
H 	H 	0.41940 0.64430 0.51400 0.21500
C 	C 	0.27870 0.54840 0.45380 0.62200
H 	H 	0.26030 0.51640 0.40300 -0.13900
H 	H 	0.28380 0.50980 0.49450 -0.14900
H 	H 	0.25570 0.59810 0.44470 -0.15500
C 	C 	0.19270 0.90740 0.30290 -0.20400
H 	H 	0.16920 0.88910 0.31390 0.10300
C 	C 	0.11260 0.77270 0.20160 -0.21800
H 	H 	0.08410 0.81520 0.18620 0.10400
H 	H 	0.09490 0.71900 0.17080 0.11700
H 	H 	0.13560 0.76020 0.25960 0.10300
N 	N 	0.30525 0.14340 0.41020 -0.23000
O 	O 	0.40952 0.31520 0.53310 -0.47100
H 	H 	0.43450 0.27870 0.54970 0.30700
C 	C 	0.35650 0.18740 0.45720 -0.05700
C 	C 	0.36120 0.27570 0.48980 0.36000
O 	O 	0.31839 0.31060 0.47380 -0.37000
O 	O 	0.32490 0.61640 0.10210 -0.49500
H 	H 	0.29900 0.65630 0.07670 0.02500
H 	H 	0.34130 0.63700 0.08390 0.26800
H 	H 	0.35000 0.57900 0.52500 0.65300
