data_crystal

_cell_length_a 9.42770
_cell_length_b 9.86650
_cell_length_c 12.88050
_cell_angle_alpha 108.81000
_cell_angle_beta  94.99600
_cell_angle_gamma 105.38700

_symmetry_space_group_name_	'P 1'
_symmetry_space_group_name_H-M	'P 1'

loop_
_symmetry_equiv_pos_as_xyz
  x,y,z

loop_
_atom_site_label
_atom_site_type_symbol
_atom_site_fract_x
_atom_site_fract_y
_atom_site_fract_z
_atom_site_charge
Zn	Zn	0.27192 0.63836 0.25999 1.18400
Zn	Zn	0.87740 0.55882 0.24182 1.17600
Zn	Zn	0.10364 0.18954 0.47715 1.19500
P 	P 	0.12851 0.87081 0.36803 0.52600
O 	O 	0.00870 0.75820 0.26630 -0.51900
O 	O 	0.27890 0.83770 0.35960 -0.46400
O 	O 	0.15200 0.03030 0.36810 -0.46700
O 	O 	0.08440 0.86350 0.47780 -0.54300
C 	C 	0.18840 0.40640 0.36130 0.09900
H 	H 	0.28860 0.40370 0.37060 -0.05300
C 	C 	0.95770 0.36540 0.36790 0.18500
C 	C 	0.19110 0.50820 0.00560 0.17800
C 	C 	0.57360 0.72350 0.40460 0.18500
C 	C 	0.56320 0.56210 0.24680 0.09900
H 	H 	0.52690 0.49030 0.17310 -0.04500
N 	N 	0.14240 0.48560 0.30880 -0.27800
N 	N 	0.99010 0.45890 0.31340 -0.29600
N 	N 	0.08030 0.33010 0.40020 -0.30900
N 	N 	0.82510 0.31430 0.39340 -0.32200
H 	H 	0.74940 0.34280 0.37360 0.10100
H 	H 	0.81300 0.25190 0.43000 0.12800
N 	N 	0.18420 0.55090 0.91980 -0.30400
C 	C 	0.26240 0.70360 0.96210 0.03700
N 	N 	0.24300 0.61500 0.10420 -0.07800
N 	N 	0.30000 0.74670 0.07600 -0.08000
N 	N 	0.12870 0.35800 0.99020 -0.11100
N 	N 	0.70920 0.70560 0.40560 -0.27900
N 	N 	0.70110 0.59950 0.30090 -0.27800
N 	N 	0.47960 0.63570 0.30650 -0.30500
N 	N 	0.53210 0.81180 0.49340 -0.32500
H 	H 	0.59630 0.86190 0.55690 0.14700
H 	H 	0.44090 0.81900 0.48750 0.13500
C 	C 	0.81700 0.29810 0.03470 0.00900
N 	N 	0.77700 0.37400 0.89610 -0.16800
N 	N 	0.79300 0.26200 0.92700 -0.05000
N 	N 	0.76900 0.62500 0.99930 -0.10900
Zn	Zn	0.72808 0.36164 0.74001 1.18300
Zn	Zn	0.12260 0.44118 0.75818 1.17500
Zn	Zn	0.89636 0.81046 0.52285 1.19500
P 	P 	0.87149 0.12919 0.63197 0.52600
O 	O 	0.99130 0.24180 0.73370 -0.51900
O 	O 	0.72110 0.16230 0.64040 -0.46400
O 	O 	0.84800 0.96970 0.63190 -0.46700
O 	O 	0.91560 0.13650 0.52220 -0.54300
C 	C 	0.81160 0.59360 0.63870 0.09900
H 	H 	0.71140 0.59630 0.62940 -0.05300
C 	C 	0.04230 0.63460 0.63210 0.18500
C 	C 	0.80890 0.49180 0.99440 0.17800
C 	C 	0.42640 0.27650 0.59540 0.18500
C 	C 	0.43680 0.43790 0.75320 0.09900
H 	H 	0.47310 0.50970 0.82690 -0.04500
N 	N 	0.85760 0.51440 0.69120 -0.27800
N 	N 	0.00990 0.54110 0.68660 -0.29600
N 	N 	0.91970 0.66990 0.59980 -0.30900
N 	N 	0.17490 0.68570 0.60660 -0.32200
H 	H 	0.25060 0.65720 0.62640 0.10100
H 	H 	0.18700 0.74810 0.57000 0.12800
N 	N 	0.81580 0.44910 0.08020 -0.30400
C 	C 	0.73760 0.29640 0.03790 0.03700
N 	N 	0.75700 0.38500 0.89580 -0.07800
N 	N 	0.70000 0.25330 0.92400 -0.08000
N 	N 	0.87130 0.64200 0.00980 -0.11100
N 	N 	0.29080 0.29440 0.59440 -0.27900
N 	N 	0.29890 0.40050 0.69910 -0.27800
N 	N 	0.52040 0.36430 0.69350 -0.30500
N 	N 	0.46790 0.18820 0.50660 -0.32500
H 	H 	0.40370 0.13810 0.44310 0.14700
H 	H 	0.55910 0.18100 0.51250 0.13500
C 	C 	0.18300 0.70190 0.96530 0.00900
N 	N 	0.22300 0.62600 0.10390 -0.16800
N 	N 	0.20700 0.73800 0.07300 -0.05000
N 	N 	0.23100 0.37500 0.00070 -0.10900
