data_crystal

_cell_length_a 10.24000
_cell_length_b 10.24000
_cell_length_c 14.42000
_cell_angle_alpha 90.00000
_cell_angle_beta  90.00000
_cell_angle_gamma 90.00000

_symmetry_space_group_name_	'P 1'
_symmetry_space_group_name_H-M	'P 1'

loop_
_symmetry_equiv_pos_as_xyz
  x,y,z

loop_
_atom_site_label
_atom_site_type_symbol
_atom_site_fract_x
_atom_site_fract_y
_atom_site_fract_z
_atom_site_charge
Yb	Yb	0.35215 0.64785 0.87500 1.56600
Yb	Yb	0.64785 0.35215 0.37500 1.56200
Yb	Yb	0.35215 0.35215 0.62500 1.56300
Yb	Yb	0.64785 0.64785 0.12500 1.55700
H 	H 	0.42510 0.05900 0.87090 0.01100
H 	H 	0.57490 0.94100 0.37090 0.01300
H 	H 	0.94100 0.42510 0.62090 0.01400
H 	H 	0.05900 0.57490 0.12090 0.01100
H 	H 	0.57490 0.05900 0.12910 0.01400
H 	H 	0.42510 0.94100 0.62910 0.01500
H 	H 	0.05900 0.42510 0.37910 0.01400
H 	H 	0.94100 0.57490 0.87910 0.01900
H 	H 	0.50000 0.39890 -0.00000 0.00000
H 	H 	0.50000 0.60110 0.50000 -0.00300
H 	H 	0.60110 0.50000 0.75000 -0.00200
H 	H 	0.39890 0.50000 0.25000 -0.00400
C 	C 	0.41100 0.31780 0.83900 0.43700
C 	C 	0.45540 0.10420 0.92250 0.12600
C 	C 	0.45650 0.23980 0.92260 -0.15700
C 	C 	0.58900 0.68220 0.33900 0.44200
C 	C 	0.54460 0.89580 0.42250 0.11100
C 	C 	0.54350 0.76020 0.42260 -0.18000
C 	C 	0.68220 0.41100 0.58900 0.44100
C 	C 	0.89580 0.45540 0.67250 0.11000
C 	C 	0.76020 0.45650 0.67260 -0.17800
C 	C 	0.31780 0.58900 0.08900 0.44400
C 	C 	0.10420 0.54460 0.17250 0.11200
C 	C 	0.23980 0.54350 0.17260 -0.18300
C 	C 	0.58900 0.31780 0.16100 0.43800
C 	C 	0.54460 0.10420 0.07750 0.10800
C 	C 	0.54350 0.23980 0.07740 -0.17400
C 	C 	0.41100 0.68220 0.66100 0.44200
C 	C 	0.45540 0.89580 0.57750 0.11100
C 	C 	0.45650 0.76020 0.57740 -0.17900
C 	C 	0.31780 0.41100 0.41100 0.44200
C 	C 	0.10420 0.45540 0.32750 0.11100
C 	C 	0.23980 0.45650 0.32740 -0.18000
C 	C 	0.68220 0.58900 0.91100 0.44000
C 	C 	0.89580 0.54460 0.82750 0.10900
C 	C 	0.76020 0.54350 0.82740 -0.17500
C 	C 	0.50000 0.88840 -0.00000 0.39900
C 	C 	0.50000 0.03570 -0.00000 -0.18500
C 	C 	0.50000 0.30810 -0.00000 0.08700
C 	C 	0.50000 0.11160 0.50000 0.42300
C 	C 	0.50000 0.96430 0.50000 -0.17100
C 	C 	0.50000 0.69190 0.50000 0.11800
C 	C 	0.11160 0.50000 0.75000 0.42200
C 	C 	0.96430 0.50000 0.75000 -0.16900
C 	C 	0.69190 0.50000 0.75000 0.11600
C 	C 	0.88840 0.50000 0.25000 0.42200
C 	C 	0.03570 0.50000 0.25000 -0.17200
C 	C 	0.30810 0.50000 0.25000 0.11900
O 	O 	0.42610 0.83400 0.94140 -0.42000
O 	O 	0.38760 0.43380 0.85020 -0.45900
O 	O 	0.40490 0.25980 0.76240 -0.44200
O 	O 	0.57390 0.16600 0.44140 -0.44200
O 	O 	0.61240 0.56620 0.35020 -0.46500
O 	O 	0.59510 0.74020 0.26240 -0.44500
O 	O 	0.16600 0.42610 0.69140 -0.44100
O 	O 	0.56620 0.38760 0.60020 -0.46500
O 	O 	0.74020 0.40490 0.51240 -0.44400
O 	O 	0.83400 0.57390 0.19140 -0.44500
O 	O 	0.43380 0.61240 0.10020 -0.47000
O 	O 	0.25980 0.59510 0.01240 -0.45600
O 	O 	0.57390 0.83400 0.05860 -0.44200
O 	O 	0.61240 0.43380 0.14980 -0.46700
O 	O 	0.59510 0.25980 0.23760 -0.44400
O 	O 	0.42610 0.16600 0.55860 -0.44200
O 	O 	0.38760 0.56620 0.64980 -0.46500
O 	O 	0.40490 0.74020 0.73760 -0.44400
O 	O 	0.83400 0.42610 0.30860 -0.44200
O 	O 	0.43380 0.38760 0.39980 -0.46500
O 	O 	0.25980 0.40490 0.48760 -0.44400
O 	O 	0.16600 0.57390 0.80860 -0.43800
O 	O 	0.56620 0.61240 0.89980 -0.45900
O 	O 	0.74020 0.59510 0.98760 -0.43100
