data_crystal

_cell_length_a 10.32000
_cell_length_b 10.32000
_cell_length_c 14.50000
_cell_angle_alpha 90.00000
_cell_angle_beta  90.00000
_cell_angle_gamma 90.00000

_symmetry_space_group_name_	'P 1'
_symmetry_space_group_name_H-M	'P 1'

loop_
_symmetry_equiv_pos_as_xyz
  x,y,z

loop_
_atom_site_label
_atom_site_type_symbol
_atom_site_fract_x
_atom_site_fract_y
_atom_site_fract_z
_atom_site_charge
Dy	Dy	0.85213 0.85213 0.87500 2.04100
Dy	Dy	0.14787 0.14787 0.37500 1.92900
Dy	Dy	0.14787 0.85213 0.12500 1.96400
Dy	Dy	0.85213 0.14787 0.62500 1.97900
H 	H 	0.92850 0.44110 0.87110 -0.03700
H 	H 	0.07150 0.55890 0.37110 -0.02600
H 	H 	0.55890 0.92850 0.12110 -0.03200
H 	H 	0.44110 0.07150 0.62110 -0.03000
H 	H 	0.07150 0.44110 0.12890 -0.03100
H 	H 	0.92850 0.55890 0.62890 -0.02900
H 	H 	0.44110 0.92850 0.87890 -0.03200
H 	H 	0.55890 0.07150 0.37890 -0.02600
H 	H 	0.00000 0.10290 -0.00000 -0.06300
H 	H 	0.00000 0.89710 0.50000 -0.03700
H 	H 	0.89710 0.00000 0.25000 -0.03600
H 	H 	0.10290 0.00000 0.75000 -0.06100
C 	C 	0.95690 0.39580 0.92270 0.24700
C 	C 	0.95640 0.26090 0.92290 -0.25200
C 	C 	0.91300 0.18540 0.83890 0.55600
C 	C 	0.04310 0.60420 0.42270 0.19200
C 	C 	0.04360 0.73910 0.42290 -0.26800
C 	C 	0.08700 0.81460 0.33890 0.54400
C 	C 	0.60420 0.95690 0.17270 0.22700
C 	C 	0.73910 0.95640 0.17290 -0.24100
C 	C 	0.81460 0.91300 0.08890 0.54900
C 	C 	0.39580 0.04310 0.67270 0.20200
C 	C 	0.26090 0.04360 0.67290 -0.28600
C 	C 	0.18540 0.08700 0.58890 0.55300
C 	C 	0.04310 0.39580 0.07730 0.20300
C 	C 	0.04360 0.26090 0.07710 -0.28600
C 	C 	0.08700 0.18540 0.16110 0.55100
C 	C 	0.95690 0.60420 0.57730 0.22300
C 	C 	0.95640 0.73910 0.57710 -0.24300
C 	C 	0.91300 0.81460 0.66110 0.54900
C 	C 	0.39580 0.95690 0.82730 0.23600
C 	C 	0.26090 0.95640 0.82710 -0.25600
C 	C 	0.18540 0.91300 0.91110 0.55600
C 	C 	0.60420 0.04310 0.32730 0.19300
C 	C 	0.73910 0.04360 0.32710 -0.26800
C 	C 	0.81460 0.08700 0.41110 0.54400
C 	C 	-0.00000 0.46270 -0.00000 -0.31900
C 	C 	-0.00000 0.61040 -0.00000 0.50800
C 	C 	-0.00000 0.19300 -0.00000 0.16000
C 	C 	0.00000 0.53730 0.50000 -0.29300
C 	C 	0.00000 0.38960 0.50000 0.51700
C 	C 	-0.00000 0.80700 0.50000 0.16700
C 	C 	0.53730 0.00000 0.25000 -0.29700
C 	C 	0.38960 0.00000 0.25000 0.51300
C 	C 	0.80700 0.00000 0.25000 0.16300
C 	C 	0.46270 0.00000 0.75000 -0.30600
C 	C 	0.61040 0.00000 0.75000 0.52100
C 	C 	0.19300 0.00000 0.75000 0.17500
O 	O 	0.90480 0.24360 0.76430 -0.54100
O 	O 	0.92910 0.66360 0.94160 -0.51400
O 	O 	0.89040 0.06930 0.84860 -0.57200
O 	O 	0.09520 0.75640 0.26430 -0.54300
O 	O 	0.07090 0.33640 0.44160 -0.54100
O 	O 	0.10960 0.93070 0.34860 -0.53700
O 	O 	0.75640 0.90480 0.01430 -0.54400
O 	O 	0.33640 0.92910 0.19160 -0.51500
O 	O 	0.93070 0.89040 0.09860 -0.52700
O 	O 	0.24360 0.09520 0.51430 -0.54700
O 	O 	0.66360 0.07090 0.69160 -0.54800
O 	O 	0.06930 0.10960 0.59860 -0.58000
O 	O 	0.09520 0.24360 0.23570 -0.54700
O 	O 	0.07090 0.66360 0.05840 -0.54800
O 	O 	0.10960 0.06930 0.15140 -0.58300
O 	O 	0.90480 0.75640 0.73570 -0.53900
O 	O 	0.92910 0.33640 0.55840 -0.51700
O 	O 	0.89040 0.93070 0.65140 -0.52800
O 	O 	0.24360 0.90480 0.98570 -0.52800
O 	O 	0.66360 0.92910 0.80840 -0.52100
O 	O 	0.06930 0.89040 0.90140 -0.56400
O 	O 	0.75640 0.09520 0.48570 -0.54400
O 	O 	0.33640 0.07090 0.30840 -0.54000
O 	O 	0.93070 0.10960 0.40140 -0.53900
