data_crystal

_cell_length_a 14.80080
_cell_length_b 12.25430
_cell_length_c 30.22430
_cell_angle_alpha 90.00000
_cell_angle_beta  90.99100
_cell_angle_gamma 90.00000

_symmetry_space_group_name_	'P 1'
_symmetry_space_group_name_H-M	'P 1'

loop_
_symmetry_equiv_pos_as_xyz
  x,y,z

loop_
_atom_site_label
_atom_site_type_symbol
_atom_site_fract_x
_atom_site_fract_y
_atom_site_fract_z
_atom_site_charge
U 	U 	0.45495 0.67133 0.23476 0.02800
U 	U 	0.53319 0.35956 0.07635 0.00900
U 	U 	0.74841 0.42695 0.24292 0.02800
P 	P 	0.98000 0.89560 0.30250 0.38500
P 	P 	0.97640 0.44840 0.29164 0.38400
P 	P 	0.69480 0.68430 0.19599 0.39100
P 	P 	0.47520 0.63590 0.04756 0.39300
O 	O 	0.60470 0.67710 0.21850 -0.14900
O 	O 	0.30980 0.58340 0.24950 -0.17100
O 	O 	0.31200 0.76160 0.25410 -0.16500
O 	O 	0.74590 0.57560 0.19780 -0.15100
O 	O 	0.75340 0.77510 0.21370 -0.16000
O 	O 	0.83400 0.92000 0.06630 -0.17200
O 	O 	0.72800 0.93600 0.01150 -0.16100
O 	O 	0.48870 0.64100 0.99870 -0.16300
O 	O 	0.39340 0.70900 0.05960 -0.14700
O 	O 	0.46060 0.52480 0.06620 -0.15600
O 	O 	0.01950 0.98700 0.27610 -0.15500
O 	O 	0.99080 0.91430 0.35210 -0.16200
O 	O 	0.88050 0.87350 0.29150 -0.15300
O 	O 	0.87820 0.47410 0.28060 -0.16000
O 	O 	0.98310 0.41700 0.34100 -0.16500
O 	O 	0.02140 0.36080 0.26490 -0.15200
C 	C 	0.26980 0.67090 0.25710 0.27100
C 	C 	0.17280 0.67260 0.27020 -0.00900
C 	C 	0.12930 0.77090 0.27780 -0.02900
H 	H 	0.16030 0.83640 0.27490 0.09300
C 	C 	0.03940 0.77080 0.28960 0.00400
C 	C 	0.99330 0.67160 0.29280 -0.03500
H 	H 	0.93240 0.67100 0.29990 0.09500
C 	C 	0.03860 0.57330 0.28540 0.00200
C 	C 	0.12750 0.57380 0.27420 -0.02900
H 	H 	0.15770 0.50840 0.26930 0.09300
C 	C 	0.76000 0.89900 0.04890 0.26900
C 	C 	0.69830 0.81740 0.07250 0.00200
C 	C 	0.72260 0.79250 0.11650 -0.02700
H 	H 	0.77200 0.82620 0.13020 0.09500
C 	C 	0.67050 0.71550 0.13950 -0.00100
C 	C 	0.59800 0.66870 0.11720 -0.02300
H 	H 	0.56350 0.61760 0.13220 0.09400
C 	C 	0.57330 0.69370 0.07340 -0.00200
C 	C 	0.62460 0.76740 0.05110 -0.02600
H 	H 	0.61060 0.78430 0.02170 0.09200
U 	U 	0.04505 0.17133 0.26524 0.02700
U 	U 	0.96681 0.85956 0.42365 0.00800
U 	U 	0.75159 0.92695 0.25708 0.02700
P 	P 	0.52000 0.39560 0.19750 0.38500
P 	P 	0.52360 0.94840 0.20836 0.38400
P 	P 	0.80520 0.18430 0.30401 0.39000
P 	P 	0.02480 0.13590 0.45244 0.39200
O 	O 	0.89530 0.17710 0.28150 -0.15100
O 	O 	0.19020 0.08340 0.25050 -0.17100
O 	O 	0.18800 0.26160 0.24590 -0.16500
O 	O 	0.75410 0.07560 0.30220 -0.15100
O 	O 	0.74660 0.27510 0.28630 -0.16000
O 	O 	0.66600 0.42000 0.43370 -0.17200
O 	O 	0.77200 0.43600 0.48850 -0.16100
O 	O 	0.01130 0.14100 0.50130 -0.16300
O 	O 	0.10660 0.20900 0.44040 -0.14700
O 	O 	0.03940 0.02480 0.43380 -0.15600
O 	O 	0.48050 0.48700 0.22390 -0.15500
O 	O 	0.50920 0.41430 0.14790 -0.16200
O 	O 	0.61950 0.37350 0.20850 -0.15300
O 	O 	0.62180 0.97410 0.21940 -0.16000
O 	O 	0.51690 0.91700 0.15900 -0.16500
O 	O 	0.47860 0.86080 0.23510 -0.15200
C 	C 	0.23020 0.17090 0.24290 0.27200
C 	C 	0.32720 0.17260 0.22980 -0.01000
C 	C 	0.37070 0.27090 0.22220 -0.02800
H 	H 	0.33970 0.33640 0.22510 0.09300
C 	C 	0.46060 0.27080 0.21040 0.00300
C 	C 	0.50670 0.17160 0.20720 -0.03300
H 	H 	0.56760 0.17100 0.20010 0.09400
C 	C 	0.46140 0.07330 0.21460 0.00000
C 	C 	0.37250 0.07380 0.22580 -0.02800
H 	H 	0.34230 0.00840 0.23070 0.09300
C 	C 	0.74000 0.39900 0.45110 0.26900
C 	C 	0.80170 0.31740 0.42750 0.00200
C 	C 	0.77740 0.29250 0.38350 -0.02700
H 	H 	0.72800 0.32620 0.36980 0.09500
C 	C 	0.82950 0.21550 0.36050 -0.00100
C 	C 	0.90200 0.16870 0.38280 -0.02300
H 	H 	0.93650 0.11760 0.36780 0.09400
C 	C 	0.92670 0.19370 0.42660 -0.00100
C 	C 	0.87540 0.26740 0.44890 -0.02600
H 	H 	0.88940 0.28430 0.47830 0.09200
U 	U 	0.54505 0.32867 0.76524 0.02700
U 	U 	0.46681 0.64044 0.92365 0.00800
U 	U 	0.25159 0.57305 0.75708 0.02700
P 	P 	0.02000 0.10440 0.69750 0.38400
P 	P 	0.02360 0.55160 0.70836 0.38300
P 	P 	0.30520 0.31570 0.80401 0.39000
P 	P 	0.52480 0.36410 0.95244 0.39200
O 	O 	0.39530 0.32290 0.78150 -0.15000
O 	O 	0.69020 0.41660 0.75050 -0.17100
O 	O 	0.68800 0.23840 0.74590 -0.16500
O 	O 	0.25410 0.42440 0.80220 -0.15100
O 	O 	0.24660 0.22490 0.78630 -0.16000
O 	O 	0.16600 0.08000 0.93370 -0.17200
O 	O 	0.27200 0.06400 0.98850 -0.16100
O 	O 	0.51130 0.35900 0.00130 -0.16300
O 	O 	0.60660 0.29100 0.94040 -0.14700
O 	O 	0.53940 0.47520 0.93380 -0.15600
O 	O 	0.98050 0.01300 0.72390 -0.15500
O 	O 	0.00920 0.08570 0.64790 -0.16200
O 	O 	0.11950 0.12650 0.70850 -0.15300
O 	O 	0.12180 0.52590 0.71940 -0.16000
O 	O 	0.01690 0.58300 0.65900 -0.16500
O 	O 	0.97860 0.63920 0.73510 -0.15200
C 	C 	0.73020 0.32910 0.74290 0.27100
C 	C 	0.82720 0.32740 0.72980 -0.00900
C 	C 	0.87070 0.22910 0.72220 -0.02900
H 	H 	0.83970 0.16360 0.72510 0.09300
C 	C 	0.96060 0.22920 0.71040 0.00400
C 	C 	0.00670 0.32840 0.70720 -0.03500
H 	H 	0.06760 0.32900 0.70010 0.09500
C 	C 	0.96140 0.42670 0.71460 0.00200
C 	C 	0.87250 0.42620 0.72580 -0.02900
H 	H 	0.84230 0.49160 0.73070 0.09300
C 	C 	0.24000 0.10100 0.95110 0.26900
C 	C 	0.30170 0.18260 0.92750 0.00200
C 	C 	0.27740 0.20750 0.88350 -0.02700
H 	H 	0.22800 0.17380 0.86980 0.09500
C 	C 	0.32950 0.28450 0.86050 -0.00100
C 	C 	0.40200 0.33130 0.88280 -0.02300
H 	H 	0.43650 0.38240 0.86780 0.09400
C 	C 	0.42670 0.30630 0.92660 -0.00200
C 	C 	0.37540 0.23260 0.94890 -0.02600
H 	H 	0.38940 0.21570 0.97830 0.09200
U 	U 	0.95495 0.82867 0.73476 0.02700
U 	U 	0.03319 0.14044 0.57635 0.00800
U 	U 	0.24841 0.07305 0.74291 0.02700
P 	P 	0.48000 0.60440 0.80250 0.38500
P 	P 	0.47640 0.05160 0.79164 0.38400
P 	P 	0.19480 0.81570 0.69599 0.39000
P 	P 	0.97520 0.86410 0.54756 0.39200
O 	O 	0.10470 0.82290 0.71850 -0.15100
O 	O 	0.80980 0.91660 0.74950 -0.17100
O 	O 	0.81200 0.73840 0.75410 -0.16500
O 	O 	0.24590 0.92440 0.69780 -0.15100
O 	O 	0.25340 0.72490 0.71370 -0.16000
O 	O 	0.33400 0.58000 0.56630 -0.17200
O 	O 	0.22800 0.56400 0.51150 -0.16100
O 	O 	0.98870 0.85900 0.49870 -0.16300
O 	O 	0.89340 0.79100 0.55960 -0.14700
O 	O 	0.96060 0.97520 0.56620 -0.15600
O 	O 	0.51950 0.51300 0.77610 -0.15500
O 	O 	0.49080 0.58570 0.85210 -0.16200
O 	O 	0.38050 0.62650 0.79150 -0.15300
O 	O 	0.37820 0.02590 0.78060 -0.16000
O 	O 	0.48310 0.08300 0.84100 -0.16500
O 	O 	0.52140 0.13920 0.76490 -0.15200
C 	C 	0.76980 0.82910 0.75710 0.27200
C 	C 	0.67280 0.82740 0.77020 -0.01000
C 	C 	0.62930 0.72910 0.77780 -0.02800
H 	H 	0.66030 0.66360 0.77490 0.09300
C 	C 	0.53940 0.72920 0.78960 0.00300
C 	C 	0.49330 0.82840 0.79280 -0.03300
H 	H 	0.43240 0.82900 0.79990 0.09400
C 	C 	0.53860 0.92670 0.78540 0.00000
C 	C 	0.62750 0.92620 0.77420 -0.02800
H 	H 	0.65770 0.99160 0.76930 0.09300
C 	C 	0.26000 0.60100 0.54890 0.26900
C 	C 	0.19830 0.68260 0.57250 0.00200
C 	C 	0.22260 0.70750 0.61650 -0.02700
H 	H 	0.27200 0.67380 0.63020 0.09500
C 	C 	0.17050 0.78450 0.63950 -0.00100
C 	C 	0.09800 0.83130 0.61720 -0.02300
H 	H 	0.06350 0.88240 0.63220 0.09400
C 	C 	0.07330 0.80630 0.57340 -0.00100
C 	C 	0.12460 0.73260 0.55110 -0.02600
H 	H 	0.11060 0.71570 0.52170 0.09200
