data_crystal

_cell_length_a 14.38930
_cell_length_b 14.71470
_cell_length_c 15.35340
_cell_angle_alpha 98.30600
_cell_angle_beta  93.87600
_cell_angle_gamma 96.29600

_symmetry_space_group_name_	'P 1'
_symmetry_space_group_name_H-M	'P 1'

loop_
_symmetry_equiv_pos_as_xyz
  x,y,z

loop_
_atom_site_label
_atom_site_type_symbol
_atom_site_fract_x
_atom_site_fract_y
_atom_site_fract_z
_atom_site_charge
U 	U 	0.71786 0.97781 0.62443 0.02200
U 	U 	0.69991 0.97125 0.88365 0.01600
U 	U 	0.92651 0.92539 0.24699 0.02900
U 	U 	0.60350 0.60731 0.74385 0.02200
U 	U 	0.53466 0.75860 0.29560 0.01400
P 	P 	0.60680 0.41150 0.87420 0.43400
P 	P 	0.83780 0.12724 0.82960 0.38700
P 	P 	0.53680 0.76810 0.92640 0.41500
P 	P 	0.27600 0.00530 0.87743 0.41500
P 	P 	0.44010 0.15973 0.31756 0.38700
P 	P 	0.72782 0.94406 0.38256 0.39300
P 	P 	0.92290 0.14030 0.57830 0.42100
P 	P 	0.65290 0.38100 0.61820 0.43200
O 	O 	0.75830 0.06560 0.76790 -0.14400
O 	O 	0.83810 0.07830 0.59480 -0.16500
O 	O 	0.72120 0.92830 0.47730 -0.14500
O 	O 	0.82490 0.09610 0.91930 -0.15900
O 	O 	0.93270 0.12220 0.79900 -0.16800
O 	O 	0.59840 0.85330 0.91290 -0.18700
O 	O 	0.56020 0.67680 0.88330 -0.15500
O 	O 	0.54200 0.76870 0.03030 -0.34900
H 	H 	0.56910 0.81840 0.05560 0.22900
O 	O 	0.83030 0.95450 0.36350 -0.13800
O 	O 	0.66770 0.86750 0.32150 -0.15300
O 	O 	0.87860 0.28330 0.37100 -0.49100
H 	H 	0.91270 0.33230 0.37470 0.33800
O 	O 	0.25140 0.03780 0.97100 -0.16300
O 	O 	0.19660 0.00420 0.80920 -0.17100
O 	O 	0.36600 0.06530 0.85600 -0.38000
H 	H 	0.38060 0.10890 0.89610 0.24000
O 	O 	0.65300 0.47940 0.65790 -0.19000
O 	O 	0.61110 0.50230 0.84080 -0.17600
O 	O 	0.52870 0.33910 0.83690 -0.15700
O 	O 	0.59790 0.42590 0.97620 -0.39500
H 	H 	0.61660 0.47980 0.99720 0.28400
O 	O 	0.60910 0.30760 0.66700 -0.17700
O 	O 	0.60440 0.36380 0.52340 -0.40000
H 	H 	0.61650 0.40970 0.49970 0.28100
O 	O 	0.98520 0.57910 0.61390 -0.22100
O 	O 	0.09540 0.48530 0.62080 -0.18800
O 	O 	0.19680 0.56980 0.85110 -0.47000
H 	H 	0.14810 0.53420 0.84680 0.32600
O 	O 	0.09410 0.67270 0.84340 -0.26700
O 	O 	0.94580 0.10960 0.47960 -0.37100
H 	H 	0.98270 0.14990 0.46470 0.27500
O 	O 	0.01010 0.14180 0.63660 -0.16200
O 	O 	0.04390 0.44780 0.83500 -0.27700
O 	O 	0.94780 0.55710 0.83820 -0.44600
H 	H 	0.99630 0.59270 0.84100 0.32100
O 	O 	0.38610 0.07410 0.25890 -0.14800
O 	O 	0.43410 0.24640 0.27890 -0.16900
O 	O 	0.39830 0.16100 0.40650 -0.14500
O 	O 	0.76900 0.37580 0.35980 -0.23200
C 	C 	0.71750 0.36890 0.85910 -0.03100
C 	C 	0.72840 0.27460 0.85070 -0.01000
H 	H 	0.67740 0.23090 0.85390 0.07900
C 	C 	0.81780 0.24690 0.83740 -0.02700
C 	C 	0.89380 0.31170 0.83570 -0.00700
H 	H 	0.95220 0.29260 0.82600 0.08100
C 	C 	0.88420 0.40570 0.84830 -0.06000
C 	C 	0.79440 0.43620 0.85990 -0.00100
H 	H 	0.78720 0.49880 0.86780 0.08600
C 	C 	0.96930 0.47120 0.84850 0.36300
C 	C 	0.41750 0.78400 0.89580 -0.02900
C 	C 	0.34680 0.71050 0.88090 0.00800
H 	H 	0.36040 0.65040 0.88270 0.09100
C 	C 	0.25620 0.72820 0.86330 -0.06400
C 	C 	0.23560 0.81660 0.85580 0.00200
H 	H 	0.17460 0.82680 0.83970 0.08100
C 	C 	0.30630 0.88900 0.87250 -0.02800
C 	C 	0.39780 0.87330 0.88850 -0.01700
H 	H 	0.44610 0.92180 0.89440 0.07500
C 	C 	0.17720 0.65280 0.85570 0.38000
C 	C 	0.56190 0.14640 0.33430 -0.02300
C 	C 	0.59110 0.06050 0.34900 -0.01800
H 	H 	0.54690 0.00890 0.34670 0.08400
C 	C 	0.68620 0.05340 0.36710 -0.00900
C 	C 	0.75060 0.13040 0.36950 -0.00800
H 	H 	0.81430 0.12560 0.37920 0.09700
C 	C 	0.72210 0.21410 0.35780 -0.06200
C 	C 	0.62770 0.22390 0.34140 -0.00100
H 	H 	0.60900 0.28140 0.33520 0.07700
C 	C 	0.79340 0.29800 0.36320 0.38300
C 	C 	0.89200 0.25470 0.58780 -0.04200
C 	C 	0.79810 0.27220 0.59360 -0.00900
H 	H 	0.75110 0.22250 0.58780 0.07400
C 	C 	0.77400 0.36140 0.60780 -0.03600
C 	C 	0.84170 0.43500 0.61310 -0.01200
H 	H 	0.82560 0.49490 0.62050 0.08600
C 	C 	0.93590 0.41960 0.60740 -0.02600
C 	C 	0.96090 0.32990 0.59340 -0.01100
H 	H 	0.02320 0.32060 0.58790 0.08000
C 	C 	0.01180 0.50010 0.61700 0.28500
U 	U 	0.28214 0.02219 0.37557 0.02100
U 	U 	0.30009 0.02875 0.11635 0.01500
U 	U 	0.07349 0.07461 0.75301 0.02800
U 	U 	0.39650 0.39269 0.25615 0.02100
U 	U 	0.46534 0.24140 0.70440 0.01300
P 	P 	0.39320 0.58850 0.12580 0.43300
P 	P 	0.16220 0.87276 0.17040 0.38700
P 	P 	0.46320 0.23190 0.07360 0.41500
P 	P 	0.72400 0.99470 0.12257 0.41500
P 	P 	0.55990 0.84027 0.68244 0.38700
P 	P 	0.27218 0.05594 0.61744 0.39300
P 	P 	0.07710 0.85970 0.42170 0.42100
P 	P 	0.34710 0.61900 0.38180 0.43200
O 	O 	0.24170 0.93440 0.23210 -0.14400
O 	O 	0.16190 0.92170 0.40520 -0.16500
O 	O 	0.27880 0.07170 0.52270 -0.14500
O 	O 	0.17510 0.90390 0.08070 -0.15900
O 	O 	0.06730 0.87780 0.20100 -0.16800
O 	O 	0.40160 0.14670 0.08710 -0.18700
O 	O 	0.43980 0.32320 0.11670 -0.15500
O 	O 	0.45800 0.23130 0.96970 -0.34900
H 	H 	0.43090 0.18160 0.94440 0.22900
O 	O 	0.16970 0.04550 0.63650 -0.13800
O 	O 	0.33230 0.13250 0.67850 -0.15300
O 	O 	0.12140 0.71670 0.62900 -0.49100
H 	H 	0.08730 0.66770 0.62530 0.33800
O 	O 	0.74860 0.96220 0.02900 -0.16300
O 	O 	0.80340 0.99580 0.19080 -0.17100
O 	O 	0.63400 0.93470 0.14400 -0.38000
H 	H 	0.61940 0.89110 0.10390 0.24000
O 	O 	0.34700 0.52060 0.34210 -0.19000
O 	O 	0.38890 0.49770 0.15920 -0.17600
O 	O 	0.47130 0.66090 0.16310 -0.15700
O 	O 	0.40210 0.57410 0.02380 -0.39500
H 	H 	0.38340 0.52020 0.00280 0.28400
O 	O 	0.39090 0.69240 0.33300 -0.17700
O 	O 	0.39560 0.63620 0.47660 -0.40000
H 	H 	0.38350 0.59030 0.50030 0.28100
O 	O 	0.01480 0.42090 0.38610 -0.22100
O 	O 	0.90460 0.51470 0.37920 -0.18800
O 	O 	0.80320 0.43020 0.14890 -0.47000
H 	H 	0.85190 0.46580 0.15320 0.32600
O 	O 	0.90590 0.32730 0.15660 -0.26700
O 	O 	0.05420 0.89040 0.52040 -0.37100
H 	H 	0.01730 0.85010 0.53530 0.27500
O 	O 	0.98990 0.85820 0.36340 -0.16200
O 	O 	0.95610 0.55220 0.16500 -0.27700
O 	O 	0.05220 0.44290 0.16180 -0.44600
H 	H 	0.00370 0.40730 0.15900 0.32100
O 	O 	0.61390 0.92590 0.74110 -0.14800
O 	O 	0.56590 0.75360 0.72110 -0.16900
O 	O 	0.60170 0.83900 0.59350 -0.14500
O 	O 	0.23100 0.62420 0.64020 -0.23200
C 	C 	0.28250 0.63110 0.14090 -0.03100
C 	C 	0.27160 0.72540 0.14930 -0.01000
H 	H 	0.32260 0.76910 0.14610 0.07900
C 	C 	0.18220 0.75310 0.16260 -0.02700
C 	C 	0.10620 0.68830 0.16430 -0.00700
H 	H 	0.04780 0.70740 0.17400 0.08100
C 	C 	0.11580 0.59430 0.15170 -0.06000
C 	C 	0.20560 0.56380 0.14010 -0.00100
H 	H 	0.21280 0.50120 0.13220 0.08600
C 	C 	0.03070 0.52880 0.15150 0.36300
C 	C 	0.58250 0.21600 0.10420 -0.02900
C 	C 	0.65320 0.28950 0.11910 0.00800
H 	H 	0.63960 0.34960 0.11730 0.09100
C 	C 	0.74380 0.27180 0.13670 -0.06400
C 	C 	0.76440 0.18340 0.14420 0.00200
H 	H 	0.82540 0.17320 0.16030 0.08100
C 	C 	0.69370 0.11100 0.12750 -0.02800
C 	C 	0.60220 0.12670 0.11150 -0.01700
H 	H 	0.55390 0.07820 0.10560 0.07500
C 	C 	0.82280 0.34720 0.14430 0.38000
C 	C 	0.43810 0.85360 0.66570 -0.02300
C 	C 	0.40890 0.93950 0.65100 -0.01800
H 	H 	0.45310 0.99110 0.65330 0.08400
C 	C 	0.31380 0.94660 0.63290 -0.00900
C 	C 	0.24940 0.86960 0.63050 -0.00800
H 	H 	0.18570 0.87440 0.62080 0.09700
C 	C 	0.27790 0.78590 0.64220 -0.06200
C 	C 	0.37230 0.77610 0.65860 -0.00100
H 	H 	0.39100 0.71860 0.66480 0.07700
C 	C 	0.20660 0.70200 0.63680 0.38300
C 	C 	0.10800 0.74530 0.41220 -0.04200
C 	C 	0.20190 0.72780 0.40640 -0.00900
H 	H 	0.24890 0.77750 0.41220 0.07400
C 	C 	0.22600 0.63860 0.39220 -0.03600
C 	C 	0.15830 0.56500 0.38690 -0.01200
H 	H 	0.17440 0.50510 0.37950 0.08600
C 	C 	0.06410 0.58040 0.39260 -0.02600
C 	C 	0.03910 0.67010 0.40660 -0.01100
H 	H 	0.97680 0.67940 0.41210 0.08000
C 	C 	0.98820 0.49990 0.38300 0.28500
