data_crystal

_cell_length_a 17.02980
_cell_length_b 18.89040
_cell_length_c 16.76110
_cell_angle_alpha 90.00000
_cell_angle_beta  112.44700
_cell_angle_gamma 90.00000

_symmetry_space_group_name_	'P 1'
_symmetry_space_group_name_H-M	'P 1'

loop_
_symmetry_equiv_pos_as_xyz
  x,y,z

loop_
_atom_site_label
_atom_site_type_symbol
_atom_site_fract_x
_atom_site_fract_y
_atom_site_fract_z
_atom_site_charge
Zn	Zn	0.24828 0.37168 0.41939 1.22200
Li	Li	0.08210 0.38330 0.24700 0.55800
N 	N 	0.34165 0.36492 0.53979 -0.25700
C 	C 	0.38743 0.30652 0.57197 0.07300
H 	H 	0.37660 0.26540 0.53670 -0.00800
C 	C 	0.44937 0.30342 0.65382 -0.12700
H 	H 	0.48020 0.26090 0.67440 0.08200
C 	C 	0.46640 0.36324 0.70605 0.05900
C 	C 	0.41859 0.42355 0.67277 -0.12500
H 	H 	0.42800 0.46540 0.70660 0.07100
C 	C 	0.35733 0.42239 0.59030 0.07500
H 	H 	0.32490 0.46400 0.56840 -0.01500
O 	O 	0.25717 0.28280 0.36914 -0.49400
O 	O 	0.14348 0.29964 0.24782 -0.41500
O 	O 	0.34427 0.96140 0.22616 -0.41200
O 	O 	0.21846 0.96051 0.11749 -0.48300
C 	C 	0.20541 0.26363 0.29422 0.38300
C 	C 	0.22292 0.19315 0.26407 -0.12800
C 	C 	0.17542 0.16997 0.18100 0.09200
C 	C 	0.19020 0.10297 0.15380 0.08600
C 	C 	0.25406 0.05990 0.21011 -0.12500
C 	C 	0.30069 0.08420 0.29301 -0.00700
H 	H 	0.34400 0.05510 0.33170 0.04800
C 	C 	0.28544 0.14941 0.32005 -0.00300
H 	H 	0.31770 0.16480 0.37720 0.04900
C 	C 	0.27466 0.98939 0.18394 0.37400
N 	N 	0.12390 0.21230 0.11440 -0.27800
H 	H 	0.11940 0.25780 0.12310 0.14700
H 	H 	0.09560 0.19370 0.06320 0.12400
O 	O 	0.15492 0.39447 0.45399 -0.49700
O 	O 	0.03291 0.38226 0.34054 -0.45200
C 	C 	0.07665 0.40677 0.41375 0.42300
C 	C 	0.03646 0.45406 0.45868 -0.18300
C 	C 	0.95253 0.44400 0.45042 0.10500
C 	C 	0.91605 0.48951 0.49123 0.09700
N 	N 	0.90150 0.39220 0.40560 -0.28400
H 	H 	0.84930 0.38920 0.40390 0.12500
H 	H 	0.91990 0.36110 0.37780 0.12600
N 	N 	0.83770 0.46810 0.48850 -0.27600
H 	H 	0.81510 0.42840 0.46230 0.12300
H 	H 	0.81030 0.49410 0.51300 0.13700
N 	N 	0.13190 0.08230 0.07290 -0.27900
H 	H 	0.13380 0.03920 0.05390 0.15200
H 	H 	0.09330 0.11250 0.04100 0.12300
Zn	Zn	0.74828 0.87168 0.41939 1.22100
Li	Li	0.58210 0.88330 0.24700 0.55700
N 	N 	0.84165 0.86492 0.53979 -0.25700
C 	C 	0.88743 0.80652 0.57197 0.07200
H 	H 	0.87660 0.76540 0.53670 -0.00900
C 	C 	0.94937 0.80342 0.65382 -0.12700
H 	H 	0.98020 0.76090 0.67440 0.08100
C 	C 	0.96640 0.86324 0.70605 0.05700
C 	C 	0.91859 0.92355 0.67277 -0.12600
H 	H 	0.92800 0.96540 0.70660 0.07000
C 	C 	0.85733 0.92239 0.59030 0.07400
H 	H 	0.82490 0.96400 0.56840 -0.01600
O 	O 	0.75717 0.78280 0.36914 -0.49400
O 	O 	0.64348 0.79964 0.24782 -0.41500
O 	O 	0.84427 0.46140 0.22616 -0.41200
O 	O 	0.71846 0.46051 0.11749 -0.48300
C 	C 	0.70541 0.76363 0.29422 0.38300
C 	C 	0.72292 0.69315 0.26407 -0.12800
C 	C 	0.67542 0.66997 0.18100 0.09200
C 	C 	0.69020 0.60297 0.15380 0.08600
C 	C 	0.75406 0.55990 0.21011 -0.12500
C 	C 	0.80069 0.58420 0.29301 -0.00700
H 	H 	0.84400 0.55510 0.33170 0.04800
C 	C 	0.78544 0.64941 0.32005 -0.00300
H 	H 	0.81770 0.66480 0.37720 0.04900
C 	C 	0.77466 0.48939 0.18394 0.37400
N 	N 	0.62390 0.71230 0.11440 -0.27800
H 	H 	0.61940 0.75780 0.12310 0.14700
H 	H 	0.59560 0.69370 0.06320 0.12500
O 	O 	0.65492 0.89447 0.45399 -0.49700
O 	O 	0.53291 0.88226 0.34054 -0.45100
C 	C 	0.57665 0.90677 0.41375 0.42300
C 	C 	0.53646 0.95406 0.45868 -0.18200
C 	C 	0.45253 0.94400 0.45042 0.10500
C 	C 	0.41605 0.98951 0.49123 0.09700
N 	N 	0.40150 0.89220 0.40560 -0.28400
H 	H 	0.34930 0.88920 0.40390 0.12500
H 	H 	0.41990 0.86110 0.37780 0.12600
N 	N 	0.33770 0.96810 0.48850 -0.27600
H 	H 	0.31510 0.92840 0.46230 0.12300
H 	H 	0.31030 0.99410 0.51300 0.13700
N 	N 	0.63190 0.58230 0.07290 -0.27900
H 	H 	0.63380 0.53920 0.05390 0.15300
H 	H 	0.59330 0.61250 0.04100 0.12300
Zn	Zn	0.75172 0.37168 0.08061 1.22100
Li	Li	0.91790 0.38330 0.25300 0.55700
N 	N 	0.65835 0.36492 0.96021 -0.25800
C 	C 	0.61257 0.30652 0.92803 0.07200
H 	H 	0.62340 0.26540 0.96330 -0.00900
C 	C 	0.55063 0.30342 0.84618 -0.12800
H 	H 	0.51980 0.26090 0.82560 0.08100
C 	C 	0.53360 0.36324 0.79395 0.05800
C 	C 	0.58141 0.42355 0.82723 -0.12700
H 	H 	0.57200 0.46540 0.79340 0.07000
C 	C 	0.64267 0.42239 0.90970 0.07400
H 	H 	0.67510 0.46400 0.93160 -0.01600
O 	O 	0.74283 0.28280 0.13086 -0.49400
O 	O 	0.85652 0.29964 0.25218 -0.41500
O 	O 	0.65573 0.96140 0.27384 -0.41200
O 	O 	0.78154 0.96051 0.38251 -0.48300
C 	C 	0.79459 0.26363 0.20578 0.38300
C 	C 	0.77708 0.19315 0.23593 -0.12700
C 	C 	0.82458 0.16997 0.31900 0.09200
C 	C 	0.80980 0.10297 0.34620 0.08600
C 	C 	0.74594 0.05990 0.28989 -0.12500
C 	C 	0.69931 0.08420 0.20699 -0.00700
H 	H 	0.65600 0.05510 0.16830 0.04800
C 	C 	0.71456 0.14941 0.17995 -0.00400
H 	H 	0.68230 0.16480 0.12280 0.04900
C 	C 	0.72534 0.98939 0.31606 0.37400
N 	N 	0.87610 0.21230 0.38560 -0.27800
H 	H 	0.88060 0.25780 0.37690 0.14700
H 	H 	0.90440 0.19370 0.43680 0.12500
O 	O 	0.84508 0.39447 0.04601 -0.49700
O 	O 	0.96709 0.38226 0.15946 -0.45100
C 	C 	0.92335 0.40677 0.08625 0.42300
C 	C 	0.96354 0.45406 0.04132 -0.18000
C 	C 	0.04747 0.44400 0.04958 0.10400
C 	C 	0.08395 0.48951 0.00877 0.09600
N 	N 	0.09850 0.39220 0.09440 -0.28300
H 	H 	0.15070 0.38920 0.09610 0.12500
H 	H 	0.08010 0.36110 0.12220 0.12600
N 	N 	0.16230 0.46810 0.01150 -0.27600
H 	H 	0.18490 0.42840 0.03770 0.12300
H 	H 	0.18970 0.49410 0.98700 0.13800
N 	N 	0.86810 0.08230 0.42710 -0.27900
H 	H 	0.86620 0.03920 0.44610 0.15300
H 	H 	0.90670 0.11250 0.45900 0.12300
Zn	Zn	0.25172 0.87168 0.08061 1.22100
Li	Li	0.41790 0.88330 0.25300 0.55700
N 	N 	0.15835 0.86492 0.96021 -0.25700
C 	C 	0.11257 0.80652 0.92803 0.07300
H 	H 	0.12340 0.76540 0.96330 -0.00900
C 	C 	0.05063 0.80342 0.84618 -0.12800
H 	H 	0.01980 0.76090 0.82560 0.08200
C 	C 	0.03360 0.86324 0.79395 0.05900
C 	C 	0.08141 0.92355 0.82723 -0.12700
H 	H 	0.07200 0.96540 0.79340 0.07100
C 	C 	0.14267 0.92239 0.90970 0.07500
H 	H 	0.17510 0.96400 0.93160 -0.01600
O 	O 	0.24283 0.78280 0.13086 -0.49400
O 	O 	0.35652 0.79964 0.25218 -0.41500
O 	O 	0.15573 0.46140 0.27384 -0.41200
O 	O 	0.28154 0.46051 0.38251 -0.48300
C 	C 	0.29459 0.76363 0.20578 0.38300
C 	C 	0.27708 0.69315 0.23593 -0.12800
C 	C 	0.32458 0.66997 0.31900 0.09200
C 	C 	0.30980 0.60297 0.34620 0.08600
C 	C 	0.24594 0.55990 0.28989 -0.12500
C 	C 	0.19931 0.58420 0.20699 -0.00700
H 	H 	0.15600 0.55510 0.16830 0.04800
C 	C 	0.21456 0.64941 0.17995 -0.00300
H 	H 	0.18230 0.66480 0.12280 0.04900
C 	C 	0.22534 0.48939 0.31606 0.37400
N 	N 	0.37610 0.71230 0.38560 -0.27800
H 	H 	0.38060 0.75780 0.37690 0.14700
H 	H 	0.40440 0.69370 0.43680 0.12500
O 	O 	0.34508 0.89447 0.04601 -0.49700
O 	O 	0.46709 0.88226 0.15946 -0.45100
C 	C 	0.42335 0.90677 0.08625 0.42300
C 	C 	0.46354 0.95406 0.04132 -0.18300
C 	C 	0.54747 0.94400 0.04958 0.10500
C 	C 	0.58395 0.98951 0.00877 0.09700
N 	N 	0.59850 0.89220 0.09440 -0.28400
H 	H 	0.65070 0.88920 0.09610 0.12500
H 	H 	0.58010 0.86110 0.12220 0.12600
N 	N 	0.66230 0.96810 0.01150 -0.27500
H 	H 	0.68490 0.92840 0.03770 0.12300
H 	H 	0.68970 0.99410 0.98700 0.13600
N 	N 	0.36810 0.58230 0.42710 -0.27900
H 	H 	0.36620 0.53920 0.44610 0.15300
H 	H 	0.40670 0.61250 0.45900 0.12300
Zn	Zn	0.75172 0.62832 0.58061 1.22100
Li	Li	0.91790 0.61670 0.75300 0.55700
N 	N 	0.65835 0.63508 0.46021 -0.25800
C 	C 	0.61257 0.69348 0.42803 0.07200
H 	H 	0.62340 0.73460 0.46330 -0.00900
C 	C 	0.55063 0.69658 0.34618 -0.12800
H 	H 	0.51980 0.73910 0.32560 0.08100
C 	C 	0.53360 0.63676 0.29395 0.05800
C 	C 	0.58141 0.57645 0.32723 -0.12600
H 	H 	0.57200 0.53460 0.29340 0.07000
C 	C 	0.64267 0.57761 0.40970 0.07400
H 	H 	0.67510 0.53600 0.43160 -0.01600
O 	O 	0.74283 0.71720 0.63086 -0.49400
O 	O 	0.85652 0.70036 0.75218 -0.41500
O 	O 	0.65573 0.03860 0.77384 -0.41200
O 	O 	0.78154 0.03949 0.88251 -0.48300
C 	C 	0.79459 0.73637 0.70578 0.38300
C 	C 	0.77708 0.80685 0.73593 -0.12800
C 	C 	0.82458 0.83003 0.81900 0.09200
C 	C 	0.80980 0.89703 0.84620 0.08600
C 	C 	0.74594 0.94010 0.78989 -0.12500
C 	C 	0.69931 0.91580 0.70699 -0.00700
H 	H 	0.65600 0.94490 0.66830 0.04800
C 	C 	0.71456 0.85059 0.67995 -0.00300
H 	H 	0.68230 0.83520 0.62280 0.04900
C 	C 	0.72534 0.01061 0.81606 0.37400
N 	N 	0.87610 0.78770 0.88560 -0.27800
H 	H 	0.88060 0.74220 0.87690 0.14700
H 	H 	0.90440 0.80630 0.93680 0.12400
O 	O 	0.84508 0.60553 0.54601 -0.49700
O 	O 	0.96709 0.61774 0.65946 -0.45200
C 	C 	0.92335 0.59323 0.58625 0.42300
C 	C 	0.96354 0.54594 0.54132 -0.18300
C 	C 	0.04747 0.55600 0.54958 0.10500
C 	C 	0.08395 0.51049 0.50877 0.09700
N 	N 	0.09850 0.60780 0.59440 -0.28400
H 	H 	0.15070 0.61080 0.59610 0.12500
H 	H 	0.08010 0.63890 0.62220 0.12600
N 	N 	0.16230 0.53190 0.51150 -0.27600
H 	H 	0.18490 0.57160 0.53770 0.12300
H 	H 	0.18970 0.50590 0.48700 0.13700
N 	N 	0.86810 0.91770 0.92710 -0.27900
H 	H 	0.86620 0.96080 0.94610 0.15200
H 	H 	0.90670 0.88750 0.95900 0.12300
Zn	Zn	0.25172 0.12832 0.58061 1.22100
Li	Li	0.41790 0.11670 0.75300 0.55700
N 	N 	0.15835 0.13508 0.46021 -0.25700
C 	C 	0.11257 0.19348 0.42803 0.07200
H 	H 	0.12340 0.23460 0.46330 -0.00900
C 	C 	0.05063 0.19658 0.34618 -0.12700
H 	H 	0.01980 0.23910 0.32560 0.08100
C 	C 	0.03360 0.13676 0.29395 0.05700
C 	C 	0.08141 0.07645 0.32723 -0.12600
H 	H 	0.07200 0.03460 0.29340 0.07000
C 	C 	0.14267 0.07761 0.40970 0.07400
H 	H 	0.17510 0.03600 0.43160 -0.01600
O 	O 	0.24283 0.21720 0.63086 -0.49400
O 	O 	0.35652 0.20036 0.75218 -0.41500
O 	O 	0.15573 0.53860 0.77384 -0.41200
O 	O 	0.28154 0.53949 0.88251 -0.48300
C 	C 	0.29459 0.23637 0.70578 0.38300
C 	C 	0.27708 0.30685 0.73593 -0.12800
C 	C 	0.32458 0.33003 0.81900 0.09200
C 	C 	0.30980 0.39703 0.84620 0.08600
C 	C 	0.24594 0.44010 0.78989 -0.12500
C 	C 	0.19931 0.41580 0.70699 -0.00700
H 	H 	0.15600 0.44490 0.66830 0.04800
C 	C 	0.21456 0.35059 0.67995 -0.00300
H 	H 	0.18230 0.33520 0.62280 0.04900
C 	C 	0.22534 0.51061 0.81606 0.37400
N 	N 	0.37610 0.28770 0.88560 -0.27800
H 	H 	0.38060 0.24220 0.87690 0.14700
H 	H 	0.40440 0.30630 0.93680 0.12500
O 	O 	0.34508 0.10553 0.54601 -0.49700
O 	O 	0.46709 0.11774 0.65946 -0.45100
C 	C 	0.42335 0.09323 0.58625 0.42300
C 	C 	0.46354 0.04594 0.54132 -0.18200
C 	C 	0.54747 0.05600 0.54958 0.10500
C 	C 	0.58395 0.01049 0.50877 0.09700
N 	N 	0.59850 0.10780 0.59440 -0.28400
H 	H 	0.65070 0.11080 0.59610 0.12500
H 	H 	0.58010 0.13890 0.62220 0.12600
N 	N 	0.66230 0.03190 0.51150 -0.27600
H 	H 	0.68490 0.07160 0.53770 0.12300
H 	H 	0.68970 0.00590 0.48700 0.13700
N 	N 	0.36810 0.41770 0.92710 -0.27900
H 	H 	0.36620 0.46080 0.94610 0.15300
H 	H 	0.40670 0.38750 0.95900 0.12300
Zn	Zn	0.24828 0.62832 0.91939 1.22100
Li	Li	0.08210 0.61670 0.74700 0.55700
N 	N 	0.34165 0.63508 0.03979 -0.25800
C 	C 	0.38743 0.69348 0.07197 0.07200
H 	H 	0.37660 0.73460 0.03670 -0.00900
C 	C 	0.44937 0.69658 0.15382 -0.12800
H 	H 	0.48020 0.73910 0.17440 0.08100
C 	C 	0.46640 0.63676 0.20605 0.05800
C 	C 	0.41859 0.57645 0.17277 -0.12700
H 	H 	0.42800 0.53460 0.20660 0.07000
C 	C 	0.35733 0.57761 0.09030 0.07400
H 	H 	0.32490 0.53600 0.06840 -0.01600
O 	O 	0.25717 0.71720 0.86914 -0.49400
O 	O 	0.14348 0.70036 0.74782 -0.41500
O 	O 	0.34427 0.03860 0.72616 -0.41200
O 	O 	0.21846 0.03949 0.61749 -0.48300
C 	C 	0.20541 0.73637 0.79422 0.38300
C 	C 	0.22292 0.80685 0.76407 -0.12700
C 	C 	0.17542 0.83003 0.68100 0.09200
C 	C 	0.19020 0.89703 0.65380 0.08600
C 	C 	0.25406 0.94010 0.71011 -0.12500
C 	C 	0.30069 0.91580 0.79301 -0.00700
H 	H 	0.34400 0.94490 0.83170 0.04800
C 	C 	0.28544 0.85059 0.82005 -0.00400
H 	H 	0.31770 0.83520 0.87720 0.04900
C 	C 	0.27466 0.01061 0.68394 0.37400
N 	N 	0.12390 0.78770 0.61440 -0.27800
H 	H 	0.11940 0.74220 0.62310 0.14700
H 	H 	0.09560 0.80630 0.56320 0.12500
O 	O 	0.15492 0.60553 0.95399 -0.49700
O 	O 	0.03291 0.61774 0.84054 -0.45100
C 	C 	0.07665 0.59323 0.91375 0.42300
C 	C 	0.03646 0.54594 0.95868 -0.18000
C 	C 	0.95253 0.55600 0.95042 0.10400
C 	C 	0.91605 0.51049 0.99123 0.09600
N 	N 	0.90150 0.60780 0.90560 -0.28300
H 	H 	0.84930 0.61080 0.90390 0.12500
H 	H 	0.91990 0.63890 0.87780 0.12600
N 	N 	0.83770 0.53190 0.98850 -0.27600
H 	H 	0.81510 0.57160 0.96230 0.12300
H 	H 	0.81030 0.50590 0.01300 0.13800
N 	N 	0.13190 0.91770 0.57290 -0.27900
H 	H 	0.13380 0.96080 0.55390 0.15300
H 	H 	0.09330 0.88750 0.54100 0.12300
Zn	Zn	0.74828 0.12832 0.91939 1.22100
Li	Li	0.58210 0.11670 0.74700 0.55700
N 	N 	0.84165 0.13508 0.03979 -0.25700
C 	C 	0.88743 0.19348 0.07197 0.07300
H 	H 	0.87660 0.23460 0.03670 -0.00900
C 	C 	0.94937 0.19658 0.15382 -0.12800
H 	H 	0.98020 0.23910 0.17440 0.08200
C 	C 	0.96640 0.13676 0.20605 0.05900
C 	C 	0.91859 0.07645 0.17277 -0.12700
H 	H 	0.92800 0.03460 0.20660 0.07100
C 	C 	0.85733 0.07761 0.09030 0.07500
H 	H 	0.82490 0.03600 0.06840 -0.01600
O 	O 	0.75717 0.21720 0.86914 -0.49400
O 	O 	0.64348 0.20036 0.74782 -0.41500
O 	O 	0.84427 0.53860 0.72616 -0.41200
O 	O 	0.71846 0.53949 0.61749 -0.48300
C 	C 	0.70541 0.23637 0.79422 0.38300
C 	C 	0.72292 0.30685 0.76407 -0.12800
C 	C 	0.67542 0.33003 0.68100 0.09200
C 	C 	0.69020 0.39703 0.65380 0.08600
C 	C 	0.75406 0.44010 0.71011 -0.12500
C 	C 	0.80069 0.41580 0.79301 -0.00700
H 	H 	0.84400 0.44490 0.83170 0.04800
C 	C 	0.78544 0.35059 0.82005 -0.00300
H 	H 	0.81770 0.33520 0.87720 0.04900
C 	C 	0.77466 0.51061 0.68394 0.37400
N 	N 	0.62390 0.28770 0.61440 -0.27800
H 	H 	0.61940 0.24220 0.62310 0.14700
H 	H 	0.59560 0.30630 0.56320 0.12500
O 	O 	0.65492 0.10553 0.95399 -0.49700
O 	O 	0.53291 0.11774 0.84054 -0.45100
C 	C 	0.57665 0.09323 0.91375 0.42300
C 	C 	0.53646 0.04594 0.95868 -0.18300
C 	C 	0.45253 0.05600 0.95042 0.10500
C 	C 	0.41605 0.01049 0.99123 0.09700
N 	N 	0.40150 0.10780 0.90560 -0.28400
H 	H 	0.34930 0.11080 0.90390 0.12500
H 	H 	0.41990 0.13890 0.87780 0.12600
N 	N 	0.33770 0.03190 0.98850 -0.27500
H 	H 	0.31510 0.07160 0.96230 0.12300
H 	H 	0.31030 0.00590 0.01300 0.13600
N 	N 	0.63190 0.41770 0.57290 -0.27900
H 	H 	0.63380 0.46080 0.55390 0.15300
H 	H 	0.59330 0.38750 0.54100 0.12300
