data_crystal

_cell_length_a 25.88800
_cell_length_b 25.88800
_cell_length_c 25.88800
_cell_angle_alpha 90.00000
_cell_angle_beta  90.00000
_cell_angle_gamma 90.00000

_symmetry_space_group_name_	'P 1'
_symmetry_space_group_name_H-M	'P 1'

loop_
_symmetry_equiv_pos_as_xyz
  x,y,z

loop_
_atom_site_label
_atom_site_type_symbol
_atom_site_fract_x
_atom_site_fract_y
_atom_site_fract_z
_atom_site_charge
Zn	Zn	0.29344 0.29344 0.20656 1.21000
Zn	Zn	0.70656 0.70656 0.20656 1.21000
Zn	Zn	0.20656 0.20656 0.20656 1.21000
Zn	Zn	0.70656 0.29344 0.79344 1.21000
Zn	Zn	0.20656 0.29344 0.29344 1.21000
Zn	Zn	0.29344 0.70656 0.79344 1.21000
Zn	Zn	0.29344 0.20656 0.29344 1.21000
Zn	Zn	0.20656 0.79344 0.79344 1.21000
Zn	Zn	0.20656 0.70656 0.70656 1.21000
Zn	Zn	0.79344 0.70656 0.29344 1.21000
Zn	Zn	0.79344 0.20656 0.79344 1.21000
Zn	Zn	0.79344 0.29344 0.70656 1.21000
Zn	Zn	0.79344 0.79344 0.20656 1.21000
Zn	Zn	0.70656 0.20656 0.70656 1.21000
Zn	Zn	0.29344 0.79344 0.70656 1.21000
Zn	Zn	0.70656 0.79344 0.29344 1.21000
Zn	Zn	0.29344 0.29344 0.79344 1.21000
Zn	Zn	0.70656 0.70656 0.79344 1.21000
Zn	Zn	0.70656 0.20656 0.29344 1.21000
Zn	Zn	0.20656 0.70656 0.29344 1.21000
Zn	Zn	0.29344 0.70656 0.20656 1.21000
Zn	Zn	0.70656 0.29344 0.20656 1.21000
Zn	Zn	0.20656 0.79344 0.20656 1.21000
Zn	Zn	0.29344 0.20656 0.70656 1.21000
Zn	Zn	0.20656 0.20656 0.79344 1.21000
Zn	Zn	0.70656 0.79344 0.70656 1.21000
Zn	Zn	0.20656 0.29344 0.70656 1.21000
Zn	Zn	0.29344 0.79344 0.29344 1.21000
Zn	Zn	0.79344 0.29344 0.29344 1.21000
Zn	Zn	0.79344 0.79344 0.79344 1.21000
Zn	Zn	0.79344 0.70656 0.70656 1.21000
Zn	Zn	0.79344 0.20656 0.20656 1.21000
O 	O 	0.25000 0.25000 0.25000 -0.96000
O 	O 	0.75000 0.75000 0.25000 -0.96000
O 	O 	0.75000 0.25000 0.75000 -0.96000
O 	O 	0.25000 0.75000 0.75000 -0.96000
O 	O 	0.25000 0.25000 0.75000 -0.96000
O 	O 	0.75000 0.75000 0.75000 -0.96000
O 	O 	0.75000 0.25000 0.25000 -0.96000
O 	O 	0.25000 0.75000 0.25000 -0.96000
O 	O 	0.28061 0.36632 0.21939 -0.50800
C 	C 	0.28276 0.47333 0.21724 -0.01400
H 	H 	0.30570 0.45550 0.19430 0.04600
O 	O 	0.28061 0.86632 0.71939 -0.50800
C 	C 	0.28276 0.97333 0.71724 -0.01400
H 	H 	0.30570 0.95550 0.69430 0.04600
O 	O 	0.71939 0.63368 0.21939 -0.50800
C 	C 	0.71724 0.52667 0.21724 -0.01400
H 	H 	0.69430 0.54450 0.19430 0.04600
O 	O 	0.71939 0.13368 0.71939 -0.50800
C 	C 	0.71724 0.02667 0.71724 -0.01400
H 	H 	0.69430 0.04450 0.69430 0.04600
O 	O 	0.21939 0.13368 0.21939 -0.50800
C 	C 	0.21724 0.02667 0.21724 -0.01400
H 	H 	0.19430 0.04450 0.19430 0.04600
O 	O 	0.71939 0.36632 0.78061 -0.50800
C 	C 	0.71724 0.47333 0.78276 -0.01400
H 	H 	0.69430 0.45550 0.80570 0.04600
O 	O 	0.71939 0.86632 0.28061 -0.50800
C 	C 	0.71724 0.97333 0.28276 -0.01400
H 	H 	0.69430 0.95550 0.30570 0.04600
O 	O 	0.21939 0.36632 0.28061 -0.50800
C 	C 	0.21724 0.47333 0.28276 -0.01400
H 	H 	0.19430 0.45550 0.30570 0.04600
O 	O 	0.28061 0.63368 0.78061 -0.50800
C 	C 	0.28276 0.52667 0.78276 -0.01400
H 	H 	0.30570 0.54450 0.80570 0.04600
O 	O 	0.28061 0.13368 0.28061 -0.50800
C 	C 	0.28276 0.02667 0.28276 -0.01400
H 	H 	0.30570 0.04450 0.30570 0.04600
O 	O 	0.21939 0.28061 0.36632 -0.50800
C 	C 	0.21724 0.28276 0.47333 -0.01400
H 	H 	0.19430 0.30570 0.45550 0.04700
O 	O 	0.21939 0.78061 0.86632 -0.50700
C 	C 	0.21724 0.78276 0.97333 -0.01300
H 	H 	0.19430 0.80570 0.95550 0.04700
O 	O 	0.21939 0.71939 0.63368 -0.50700
C 	C 	0.21724 0.71724 0.52667 -0.01300
H 	H 	0.19430 0.69430 0.54450 0.04700
O 	O 	0.21939 0.21939 0.13368 -0.50700
C 	C 	0.21724 0.21724 0.02667 -0.01300
H 	H 	0.19430 0.19430 0.04450 0.04700
O 	O 	0.78061 0.71939 0.36632 -0.50700
C 	C 	0.78276 0.71724 0.47333 -0.01300
H 	H 	0.80570 0.69430 0.45550 0.04700
O 	O 	0.78061 0.21939 0.86632 -0.50700
C 	C 	0.78276 0.21724 0.97333 -0.01300
H 	H 	0.80570 0.19430 0.95550 0.04700
O 	O 	0.28061 0.21939 0.36632 -0.50700
C 	C 	0.28276 0.21724 0.47333 -0.01300
H 	H 	0.30570 0.19430 0.45550 0.04700
O 	O 	0.78061 0.28061 0.63368 -0.50700
C 	C 	0.78276 0.28276 0.52667 -0.01300
H 	H 	0.80570 0.30570 0.54450 0.04700
O 	O 	0.78061 0.78061 0.13368 -0.50700
C 	C 	0.78276 0.78276 0.02667 -0.01300
H 	H 	0.80570 0.80570 0.04450 0.04700
O 	O 	0.28061 0.28061 0.13368 -0.50700
C 	C 	0.28276 0.28276 0.02667 -0.01300
H 	H 	0.30570 0.30570 0.04450 0.04700
O 	O 	0.36632 0.21939 0.28061 -0.50700
C 	C 	0.47333 0.21724 0.28276 -0.01300
H 	H 	0.45550 0.19430 0.30570 0.04700
O 	O 	0.86632 0.21939 0.78061 -0.50700
C 	C 	0.97333 0.21724 0.78276 -0.01300
H 	H 	0.95550 0.19430 0.80570 0.04700
O 	O 	0.63368 0.21939 0.71939 -0.50700
C 	C 	0.52667 0.21724 0.71724 -0.01300
H 	H 	0.54450 0.19430 0.69430 0.04700
O 	O 	0.13368 0.21939 0.21939 -0.50700
C 	C 	0.02667 0.21724 0.21724 -0.01300
H 	H 	0.04450 0.19430 0.19430 0.04700
O 	O 	0.36632 0.78061 0.71939 -0.50700
C 	C 	0.47333 0.78276 0.71724 -0.01300
H 	H 	0.45550 0.80570 0.69430 0.04700
O 	O 	0.36632 0.28061 0.21939 -0.50700
C 	C 	0.47333 0.28276 0.21724 -0.01300
H 	H 	0.45550 0.30570 0.19430 0.04700
O 	O 	0.86632 0.78061 0.21939 -0.50700
C 	C 	0.97333 0.78276 0.21724 -0.01300
H 	H 	0.95550 0.80570 0.19430 0.04700
O 	O 	0.63368 0.78061 0.28061 -0.50700
C 	C 	0.52667 0.78276 0.28276 -0.01300
H 	H 	0.54450 0.80570 0.30570 0.04700
O 	O 	0.13368 0.78061 0.78061 -0.50700
C 	C 	0.02667 0.78276 0.78276 -0.01300
H 	H 	0.04450 0.80570 0.80570 0.04700
O 	O 	0.13368 0.28061 0.28061 -0.50700
C 	C 	0.02667 0.28276 0.28276 -0.01300
H 	H 	0.04450 0.30570 0.30570 0.04700
O 	O 	0.36632 0.28061 0.78061 -0.50700
C 	C 	0.47333 0.28276 0.78276 -0.01300
H 	H 	0.45550 0.30570 0.80570 0.04700
O 	O 	0.86632 0.28061 0.28061 -0.50700
C 	C 	0.97333 0.28276 0.28276 -0.01300
H 	H 	0.95550 0.30570 0.30570 0.04700
O 	O 	0.63368 0.71939 0.78061 -0.50700
C 	C 	0.52667 0.71724 0.78276 -0.01300
H 	H 	0.54450 0.69430 0.80570 0.04700
O 	O 	0.63368 0.21939 0.28061 -0.50700
C 	C 	0.52667 0.21724 0.28276 -0.01300
H 	H 	0.54450 0.19430 0.30570 0.04700
O 	O 	0.13368 0.71939 0.28061 -0.50700
C 	C 	0.02667 0.71724 0.28276 -0.01300
H 	H 	0.04450 0.69430 0.30570 0.04700
O 	O 	0.36632 0.71939 0.21939 -0.50700
C 	C 	0.47333 0.71724 0.21724 -0.01300
H 	H 	0.45550 0.69430 0.19430 0.04700
O 	O 	0.86632 0.71939 0.71939 -0.50700
C 	C 	0.97333 0.71724 0.71724 -0.01300
H 	H 	0.95550 0.69430 0.69430 0.04700
O 	O 	0.86632 0.21939 0.21939 -0.50700
C 	C 	0.97333 0.21724 0.21724 -0.01300
H 	H 	0.95550 0.19430 0.19430 0.04700
O 	O 	0.63368 0.28061 0.21939 -0.50700
C 	C 	0.52667 0.28276 0.21724 -0.01300
H 	H 	0.54450 0.30570 0.19430 0.04700
O 	O 	0.13368 0.28061 0.71939 -0.50700
C 	C 	0.02667 0.28276 0.71724 -0.01300
H 	H 	0.04450 0.30570 0.69430 0.04700
O 	O 	0.28061 0.21939 0.63368 -0.50700
C 	C 	0.28276 0.21724 0.52667 -0.01300
H 	H 	0.30570 0.19430 0.54450 0.04700
O 	O 	0.28061 0.71939 0.13368 -0.50700
C 	C 	0.28276 0.71724 0.02667 -0.01300
H 	H 	0.30570 0.69430 0.04450 0.04700
O 	O 	0.71939 0.21939 0.36632 -0.50700
C 	C 	0.71724 0.21724 0.47333 -0.01300
H 	H 	0.69430 0.19430 0.45550 0.04700
O 	O 	0.71939 0.71939 0.86632 -0.50700
C 	C 	0.71724 0.71724 0.97333 -0.01300
H 	H 	0.69430 0.69430 0.95550 0.04700
O 	O 	0.21939 0.21939 0.86632 -0.50700
C 	C 	0.21724 0.21724 0.97333 -0.01300
H 	H 	0.19430 0.19430 0.95550 0.04700
O 	O 	0.71939 0.78061 0.63368 -0.50700
C 	C 	0.71724 0.78276 0.52667 -0.01300
H 	H 	0.69430 0.80570 0.54450 0.04700
O 	O 	0.71939 0.28061 0.13368 -0.50700
C 	C 	0.71724 0.28276 0.02667 -0.01300
H 	H 	0.69430 0.30570 0.04450 0.04700
O 	O 	0.21939 0.28061 0.63368 -0.50700
C 	C 	0.21724 0.28276 0.52667 -0.01300
H 	H 	0.19430 0.30570 0.54450 0.04700
O 	O 	0.28061 0.78061 0.36632 -0.50700
C 	C 	0.28276 0.78276 0.47333 -0.01300
H 	H 	0.30570 0.80570 0.45550 0.04700
O 	O 	0.28061 0.28061 0.86632 -0.50700
C 	C 	0.28276 0.28276 0.97333 -0.01300
H 	H 	0.30570 0.30570 0.95550 0.04700
O 	O 	0.21939 0.36632 0.71939 -0.50700
C 	C 	0.21724 0.47333 0.71724 -0.01300
H 	H 	0.19430 0.45550 0.69430 0.04700
O 	O 	0.21939 0.86632 0.21939 -0.50700
C 	C 	0.21724 0.97333 0.21724 -0.01300
H 	H 	0.19430 0.95550 0.19430 0.04700
O 	O 	0.21939 0.63368 0.28061 -0.50700
C 	C 	0.21724 0.52667 0.28276 -0.01300
H 	H 	0.19430 0.54450 0.30570 0.04700
O 	O 	0.21939 0.13368 0.78061 -0.50700
C 	C 	0.21724 0.02667 0.78276 -0.01300
H 	H 	0.19430 0.04450 0.80570 0.04700
O 	O 	0.78061 0.36632 0.28061 -0.50700
C 	C 	0.78276 0.47333 0.28276 -0.01300
H 	H 	0.80570 0.45550 0.30570 0.04700
O 	O 	0.78061 0.86632 0.78061 -0.50700
C 	C 	0.78276 0.97333 0.78276 -0.01300
H 	H 	0.80570 0.95550 0.80570 0.04700
O 	O 	0.28061 0.86632 0.28061 -0.50700
C 	C 	0.28276 0.97333 0.28276 -0.01300
H 	H 	0.30570 0.95550 0.30570 0.04700
O 	O 	0.78061 0.63368 0.71939 -0.50700
C 	C 	0.78276 0.52667 0.71724 -0.01300
H 	H 	0.80570 0.54450 0.69430 0.04700
O 	O 	0.78061 0.13368 0.21939 -0.50700
C 	C 	0.78276 0.02667 0.21724 -0.01300
H 	H 	0.80570 0.04450 0.19430 0.04700
O 	O 	0.28061 0.63368 0.21939 -0.50700
C 	C 	0.28276 0.52667 0.21724 -0.01300
H 	H 	0.30570 0.54450 0.19430 0.04700
O 	O 	0.71939 0.63368 0.78061 -0.50700
C 	C 	0.71724 0.52667 0.78276 -0.01300
H 	H 	0.69430 0.54450 0.80570 0.04700
O 	O 	0.71939 0.13368 0.28061 -0.50700
C 	C 	0.71724 0.02667 0.28276 -0.01300
H 	H 	0.69430 0.04450 0.30570 0.04700
O 	O 	0.28061 0.36632 0.78061 -0.50700
C 	C 	0.28276 0.47333 0.78276 -0.01300
H 	H 	0.30570 0.45550 0.80570 0.04700
O 	O 	0.28061 0.13368 0.71939 -0.50700
C 	C 	0.28276 0.02667 0.71724 -0.01300
H 	H 	0.30570 0.04450 0.69430 0.04700
O 	O 	0.71939 0.36632 0.21939 -0.50700
C 	C 	0.71724 0.47333 0.21724 -0.01300
H 	H 	0.69430 0.45550 0.19430 0.04700
O 	O 	0.71939 0.86632 0.71939 -0.50700
C 	C 	0.71724 0.97333 0.71724 -0.01300
H 	H 	0.69430 0.95550 0.69430 0.04700
O 	O 	0.78061 0.71939 0.63368 -0.50700
C 	C 	0.78276 0.71724 0.52667 -0.01300
H 	H 	0.80570 0.69430 0.54450 0.04700
O 	O 	0.78061 0.21939 0.13368 -0.50700
C 	C 	0.78276 0.21724 0.02667 -0.01300
H 	H 	0.80570 0.19430 0.04450 0.04700
O 	O 	0.78061 0.28061 0.36632 -0.50700
C 	C 	0.78276 0.28276 0.47333 -0.01300
H 	H 	0.80570 0.30570 0.45550 0.04700
O 	O 	0.78061 0.78061 0.86632 -0.50700
C 	C 	0.78276 0.78276 0.97333 -0.01300
H 	H 	0.80570 0.80570 0.95550 0.04700
O 	O 	0.21939 0.78061 0.13368 -0.50700
C 	C 	0.21724 0.78276 0.02667 -0.01300
H 	H 	0.19430 0.80570 0.04450 0.04700
O 	O 	0.21939 0.71939 0.36632 -0.50700
C 	C 	0.21724 0.71724 0.47333 -0.01300
H 	H 	0.19430 0.69430 0.45550 0.04700
O 	O 	0.63368 0.78061 0.71939 -0.50700
C 	C 	0.52667 0.78276 0.71724 -0.01300
H 	H 	0.54450 0.80570 0.69430 0.04700
O 	O 	0.13368 0.78061 0.21939 -0.50700
C 	C 	0.02667 0.78276 0.21724 -0.01300
H 	H 	0.04450 0.80570 0.19430 0.04700
O 	O 	0.36632 0.78061 0.28061 -0.50700
C 	C 	0.47333 0.78276 0.28276 -0.01300
H 	H 	0.45550 0.80570 0.30570 0.04700
O 	O 	0.86632 0.78061 0.78061 -0.50700
C 	C 	0.97333 0.78276 0.78276 -0.01300
H 	H 	0.95550 0.80570 0.80570 0.04700
O 	O 	0.13368 0.21939 0.78061 -0.50700
C 	C 	0.02667 0.21724 0.78276 -0.01300
H 	H 	0.04450 0.19430 0.80570 0.04700
O 	O 	0.36632 0.21939 0.71939 -0.50700
C 	C 	0.47333 0.21724 0.71724 -0.01300
H 	H 	0.45550 0.19430 0.69430 0.04700
O 	O 	0.63368 0.71939 0.21939 -0.50700
C 	C 	0.52667 0.71724 0.21724 -0.01300
H 	H 	0.54450 0.69430 0.19430 0.04700
O 	O 	0.13368 0.71939 0.71939 -0.50700
C 	C 	0.02667 0.71724 0.71724 -0.01300
H 	H 	0.04450 0.69430 0.69430 0.04700
O 	O 	0.86632 0.28061 0.71939 -0.50700
C 	C 	0.97333 0.28276 0.71724 -0.01300
H 	H 	0.95550 0.30570 0.69430 0.04700
O 	O 	0.63368 0.28061 0.78061 -0.50700
C 	C 	0.52667 0.28276 0.78276 -0.01300
H 	H 	0.54450 0.30570 0.80570 0.04700
O 	O 	0.36632 0.71939 0.78061 -0.50700
C 	C 	0.47333 0.71724 0.78276 -0.01300
H 	H 	0.45550 0.69430 0.80570 0.04700
O 	O 	0.86632 0.71939 0.28061 -0.50700
C 	C 	0.97333 0.71724 0.28276 -0.01300
H 	H 	0.95550 0.69430 0.30570 0.04700
O 	O 	0.71939 0.78061 0.36632 -0.50700
C 	C 	0.71724 0.78276 0.47333 -0.01300
H 	H 	0.69430 0.80570 0.45550 0.04700
O 	O 	0.71939 0.28061 0.86632 -0.50700
C 	C 	0.71724 0.28276 0.97333 -0.01300
H 	H 	0.69430 0.30570 0.95550 0.04700
O 	O 	0.28061 0.78061 0.63368 -0.50700
C 	C 	0.28276 0.78276 0.52667 -0.01300
H 	H 	0.30570 0.80570 0.54450 0.04700
O 	O 	0.28061 0.71939 0.86632 -0.50700
C 	C 	0.28276 0.71724 0.97333 -0.01300
H 	H 	0.30570 0.69430 0.95550 0.04700
O 	O 	0.71939 0.21939 0.63368 -0.50700
C 	C 	0.71724 0.21724 0.52667 -0.01300
H 	H 	0.69430 0.19430 0.54450 0.04700
O 	O 	0.71939 0.71939 0.13368 -0.50700
C 	C 	0.71724 0.71724 0.02667 -0.01300
H 	H 	0.69430 0.69430 0.04450 0.04700
O 	O 	0.78061 0.63368 0.28061 -0.50700
C 	C 	0.78276 0.52667 0.28276 -0.01300
H 	H 	0.80570 0.54450 0.30570 0.04700
O 	O 	0.78061 0.13368 0.78061 -0.50700
C 	C 	0.78276 0.02667 0.78276 -0.01300
H 	H 	0.80570 0.04450 0.80570 0.04700
O 	O 	0.78061 0.36632 0.71939 -0.50700
C 	C 	0.78276 0.47333 0.71724 -0.01300
H 	H 	0.80570 0.45550 0.69430 0.04700
O 	O 	0.78061 0.86632 0.21939 -0.50700
C 	C 	0.78276 0.97333 0.21724 -0.01300
H 	H 	0.80570 0.95550 0.19430 0.04700
O 	O 	0.21939 0.63368 0.71939 -0.50700
C 	C 	0.21724 0.52667 0.71724 -0.01300
H 	H 	0.19430 0.54450 0.69430 0.04700
O 	O 	0.21939 0.86632 0.78061 -0.50700
C 	C 	0.21724 0.97333 0.78276 -0.01300
H 	H 	0.19430 0.95550 0.80570 0.04700
C 	C 	0.25000 0.38842 0.25000 0.38800
C 	C 	0.25000 0.44631 0.25000 -0.08800
C 	C 	0.25000 0.88842 0.75000 0.38800
C 	C 	0.25000 0.94631 0.75000 -0.08800
C 	C 	0.75000 0.61158 0.25000 0.38800
C 	C 	0.75000 0.55369 0.25000 -0.08800
C 	C 	0.75000 0.11158 0.75000 0.38800
C 	C 	0.75000 0.05369 0.75000 -0.08800
C 	C 	0.25000 0.11158 0.25000 0.38800
C 	C 	0.25000 0.05369 0.25000 -0.08800
C 	C 	0.75000 0.38842 0.75000 0.38800
C 	C 	0.75000 0.44631 0.75000 -0.08800
C 	C 	0.75000 0.88842 0.25000 0.38800
C 	C 	0.75000 0.94631 0.25000 -0.08800
C 	C 	0.25000 0.61158 0.75000 0.38800
C 	C 	0.25000 0.55369 0.75000 -0.08800
C 	C 	0.25000 0.25000 0.38842 0.38800
C 	C 	0.25000 0.25000 0.44631 -0.08800
C 	C 	0.25000 0.75000 0.88842 0.38800
C 	C 	0.25000 0.75000 0.94631 -0.08800
C 	C 	0.25000 0.75000 0.61158 0.38800
C 	C 	0.25000 0.75000 0.55369 -0.08800
C 	C 	0.25000 0.25000 0.11158 0.38800
C 	C 	0.25000 0.25000 0.05369 -0.08800
C 	C 	0.75000 0.75000 0.38842 0.38800
C 	C 	0.75000 0.75000 0.44631 -0.08800
C 	C 	0.75000 0.25000 0.88842 0.38800
C 	C 	0.75000 0.25000 0.94631 -0.08800
C 	C 	0.75000 0.25000 0.61158 0.38800
C 	C 	0.75000 0.25000 0.55369 -0.08800
C 	C 	0.75000 0.75000 0.11158 0.38800
C 	C 	0.75000 0.75000 0.05369 -0.08800
C 	C 	0.38842 0.25000 0.25000 0.38800
C 	C 	0.44631 0.25000 0.25000 -0.08800
C 	C 	0.88842 0.25000 0.75000 0.38800
C 	C 	0.94631 0.25000 0.75000 -0.08800
C 	C 	0.61158 0.25000 0.75000 0.38800
C 	C 	0.55369 0.25000 0.75000 -0.08800
C 	C 	0.11158 0.25000 0.25000 0.38800
C 	C 	0.05369 0.25000 0.25000 -0.08800
C 	C 	0.38842 0.75000 0.75000 0.38800
C 	C 	0.44631 0.75000 0.75000 -0.08800
C 	C 	0.88842 0.75000 0.25000 0.38800
C 	C 	0.94631 0.75000 0.25000 -0.08800
C 	C 	0.61158 0.75000 0.25000 0.38800
C 	C 	0.55369 0.75000 0.25000 -0.08800
C 	C 	0.11158 0.75000 0.75000 0.38800
C 	C 	0.05369 0.75000 0.75000 -0.08800
C 	C 	0.38842 0.25000 0.75000 0.38800
C 	C 	0.44631 0.25000 0.75000 -0.08800
C 	C 	0.88842 0.25000 0.25000 0.38800
C 	C 	0.94631 0.25000 0.25000 -0.08800
C 	C 	0.61158 0.75000 0.75000 0.38800
C 	C 	0.55369 0.75000 0.75000 -0.08800
C 	C 	0.61158 0.25000 0.25000 0.38800
C 	C 	0.55369 0.25000 0.25000 -0.08800
C 	C 	0.11158 0.75000 0.25000 0.38800
C 	C 	0.05369 0.75000 0.25000 -0.08800
C 	C 	0.38842 0.75000 0.25000 0.38800
C 	C 	0.44631 0.75000 0.25000 -0.08800
C 	C 	0.88842 0.75000 0.75000 0.38800
C 	C 	0.94631 0.75000 0.75000 -0.08800
C 	C 	0.11158 0.25000 0.75000 0.38800
C 	C 	0.05369 0.25000 0.75000 -0.08800
C 	C 	0.25000 0.25000 0.61158 0.38800
C 	C 	0.25000 0.25000 0.55369 -0.08800
C 	C 	0.25000 0.75000 0.11158 0.38800
C 	C 	0.25000 0.75000 0.05369 -0.08800
C 	C 	0.75000 0.25000 0.38842 0.38800
C 	C 	0.75000 0.25000 0.44631 -0.08800
C 	C 	0.75000 0.75000 0.88842 0.38800
C 	C 	0.75000 0.75000 0.94631 -0.08800
C 	C 	0.25000 0.25000 0.88842 0.38800
C 	C 	0.25000 0.25000 0.94631 -0.08800
C 	C 	0.75000 0.75000 0.61158 0.38800
C 	C 	0.75000 0.75000 0.55369 -0.08800
C 	C 	0.75000 0.25000 0.11158 0.38800
C 	C 	0.75000 0.25000 0.05369 -0.08800
C 	C 	0.25000 0.75000 0.38842 0.38800
C 	C 	0.25000 0.75000 0.44631 -0.08800
C 	C 	0.25000 0.38842 0.75000 0.38800
C 	C 	0.25000 0.44631 0.75000 -0.08800
C 	C 	0.25000 0.88842 0.25000 0.38800
C 	C 	0.25000 0.94631 0.25000 -0.08800
C 	C 	0.25000 0.61158 0.25000 0.38800
C 	C 	0.25000 0.55369 0.25000 -0.08800
C 	C 	0.25000 0.11158 0.75000 0.38800
C 	C 	0.25000 0.05369 0.75000 -0.08800
C 	C 	0.75000 0.38842 0.25000 0.38800
C 	C 	0.75000 0.44631 0.25000 -0.08800
C 	C 	0.75000 0.88842 0.75000 0.38800
C 	C 	0.75000 0.94631 0.75000 -0.08800
C 	C 	0.75000 0.61158 0.75000 0.38800
C 	C 	0.75000 0.55369 0.75000 -0.08800
C 	C 	0.75000 0.11158 0.25000 0.38800
C 	C 	0.75000 0.05369 0.25000 -0.08800
