data_crystal

_cell_length_a 25.88200
_cell_length_b 25.88200
_cell_length_c 25.88200
_cell_angle_alpha 90.00000
_cell_angle_beta  90.00000
_cell_angle_gamma 90.00000

_symmetry_space_group_name_	'P 1'
_symmetry_space_group_name_H-M	'P 1'

loop_
_symmetry_equiv_pos_as_xyz
  x,y,z

loop_
_atom_site_label
_atom_site_type_symbol
_atom_site_fract_x
_atom_site_fract_y
_atom_site_fract_z
_atom_site_charge
Zn	Zn	0.29337 0.29337 0.20663 1.21100
Zn	Zn	0.70663 0.70663 0.20663 1.21100
Zn	Zn	0.20663 0.20663 0.20663 1.21100
Zn	Zn	0.70663 0.29337 0.79337 1.21100
Zn	Zn	0.20663 0.29337 0.29337 1.21100
Zn	Zn	0.29337 0.70663 0.79337 1.21100
Zn	Zn	0.29337 0.20663 0.29337 1.21100
Zn	Zn	0.20663 0.79337 0.79337 1.21100
Zn	Zn	0.20663 0.70663 0.70663 1.21100
Zn	Zn	0.79337 0.70663 0.29337 1.21100
Zn	Zn	0.79337 0.20663 0.79337 1.21100
Zn	Zn	0.79337 0.29337 0.70663 1.21100
Zn	Zn	0.79337 0.79337 0.20663 1.21100
Zn	Zn	0.70663 0.20663 0.70663 1.21100
Zn	Zn	0.29337 0.79337 0.70663 1.21100
Zn	Zn	0.70663 0.79337 0.29337 1.21100
Zn	Zn	0.29337 0.29337 0.79337 1.21100
Zn	Zn	0.70663 0.70663 0.79337 1.21100
Zn	Zn	0.70663 0.20663 0.29337 1.21100
Zn	Zn	0.20663 0.70663 0.29337 1.21100
Zn	Zn	0.29337 0.70663 0.20663 1.21100
Zn	Zn	0.70663 0.29337 0.20663 1.21100
Zn	Zn	0.20663 0.79337 0.20663 1.21100
Zn	Zn	0.29337 0.20663 0.70663 1.21100
Zn	Zn	0.20663 0.20663 0.79337 1.21100
Zn	Zn	0.70663 0.79337 0.70663 1.21100
Zn	Zn	0.20663 0.29337 0.70663 1.21100
Zn	Zn	0.29337 0.79337 0.29337 1.21100
Zn	Zn	0.79337 0.29337 0.29337 1.21100
Zn	Zn	0.79337 0.79337 0.79337 1.21100
Zn	Zn	0.79337 0.70663 0.70663 1.21100
Zn	Zn	0.79337 0.20663 0.20663 1.21100
O 	O 	0.25000 0.25000 0.25000 -0.96300
O 	O 	0.75000 0.75000 0.25000 -0.96300
O 	O 	0.75000 0.25000 0.75000 -0.96300
O 	O 	0.25000 0.75000 0.75000 -0.96300
O 	O 	0.25000 0.25000 0.75000 -0.96300
O 	O 	0.75000 0.75000 0.75000 -0.96300
O 	O 	0.75000 0.25000 0.25000 -0.96300
O 	O 	0.25000 0.75000 0.25000 -0.96300
O 	O 	0.28040 0.36667 0.21960 -0.51300
C 	C 	0.28309 0.47300 0.21691 -0.01300
H 	H 	0.30550 0.45460 0.19450 0.04900
O 	O 	0.28040 0.86667 0.71960 -0.51300
C 	C 	0.28309 0.97300 0.71691 -0.01300
H 	H 	0.30550 0.95460 0.69450 0.04900
O 	O 	0.71960 0.63333 0.21960 -0.51300
C 	C 	0.71691 0.52700 0.21691 -0.01300
H 	H 	0.69450 0.54540 0.19450 0.04800
O 	O 	0.71960 0.13333 0.71960 -0.51400
C 	C 	0.71691 0.02700 0.71691 -0.01400
H 	H 	0.69450 0.04540 0.69450 0.04800
O 	O 	0.21960 0.13333 0.21960 -0.51400
C 	C 	0.21691 0.02700 0.21691 -0.01400
H 	H 	0.19450 0.04540 0.19450 0.04800
O 	O 	0.71960 0.36667 0.78040 -0.51400
C 	C 	0.71691 0.47300 0.78309 -0.01400
H 	H 	0.69450 0.45460 0.80550 0.04800
O 	O 	0.71960 0.86667 0.28040 -0.51400
C 	C 	0.71691 0.97300 0.28309 -0.01400
H 	H 	0.69450 0.95460 0.30550 0.04800
O 	O 	0.21960 0.36667 0.28040 -0.51400
C 	C 	0.21691 0.47300 0.28309 -0.01400
H 	H 	0.19450 0.45460 0.30550 0.04800
O 	O 	0.28040 0.63333 0.78040 -0.51400
C 	C 	0.28309 0.52700 0.78309 -0.01400
H 	H 	0.30550 0.54540 0.80550 0.04800
O 	O 	0.28040 0.13333 0.28040 -0.51400
C 	C 	0.28309 0.02700 0.28309 -0.01400
H 	H 	0.30550 0.04540 0.30550 0.04800
O 	O 	0.21960 0.28040 0.36667 -0.51400
C 	C 	0.21691 0.28309 0.47300 -0.01400
H 	H 	0.19450 0.30550 0.45460 0.04800
O 	O 	0.21960 0.78040 0.86667 -0.51400
C 	C 	0.21691 0.78309 0.97300 -0.01400
H 	H 	0.19450 0.80550 0.95460 0.04800
O 	O 	0.21960 0.71960 0.63333 -0.51400
C 	C 	0.21691 0.71691 0.52700 -0.01400
H 	H 	0.19450 0.69450 0.54540 0.04800
O 	O 	0.21960 0.21960 0.13333 -0.51400
C 	C 	0.21691 0.21691 0.02700 -0.01400
H 	H 	0.19450 0.19450 0.04540 0.04800
O 	O 	0.78040 0.71960 0.36667 -0.51400
C 	C 	0.78309 0.71691 0.47300 -0.01400
H 	H 	0.80550 0.69450 0.45460 0.04800
O 	O 	0.78040 0.21960 0.86667 -0.51400
C 	C 	0.78309 0.21691 0.97300 -0.01400
H 	H 	0.80550 0.19450 0.95460 0.04800
O 	O 	0.28040 0.21960 0.36667 -0.51400
C 	C 	0.28309 0.21691 0.47300 -0.01400
H 	H 	0.30550 0.19450 0.45460 0.04800
O 	O 	0.78040 0.28040 0.63333 -0.51400
C 	C 	0.78309 0.28309 0.52700 -0.01400
H 	H 	0.80550 0.30550 0.54540 0.04800
O 	O 	0.78040 0.78040 0.13333 -0.51400
C 	C 	0.78309 0.78309 0.02700 -0.01400
H 	H 	0.80550 0.80550 0.04540 0.04800
O 	O 	0.28040 0.28040 0.13333 -0.51400
C 	C 	0.28309 0.28309 0.02700 -0.01400
H 	H 	0.30550 0.30550 0.04540 0.04800
O 	O 	0.36667 0.21960 0.28040 -0.51400
C 	C 	0.47300 0.21691 0.28309 -0.01400
H 	H 	0.45460 0.19450 0.30550 0.04800
O 	O 	0.86667 0.21960 0.78040 -0.51400
C 	C 	0.97300 0.21691 0.78309 -0.01400
H 	H 	0.95460 0.19450 0.80550 0.04800
O 	O 	0.63333 0.21960 0.71960 -0.51400
C 	C 	0.52700 0.21691 0.71691 -0.01400
H 	H 	0.54540 0.19450 0.69450 0.04800
O 	O 	0.13333 0.21960 0.21960 -0.51400
C 	C 	0.02700 0.21691 0.21691 -0.01400
H 	H 	0.04540 0.19450 0.19450 0.04800
O 	O 	0.36667 0.78040 0.71960 -0.51400
C 	C 	0.47300 0.78309 0.71691 -0.01400
H 	H 	0.45460 0.80550 0.69450 0.04800
O 	O 	0.36667 0.28040 0.21960 -0.51400
C 	C 	0.47300 0.28309 0.21691 -0.01400
H 	H 	0.45460 0.30550 0.19450 0.04800
O 	O 	0.86667 0.78040 0.21960 -0.51400
C 	C 	0.97300 0.78309 0.21691 -0.01400
H 	H 	0.95460 0.80550 0.19450 0.04800
O 	O 	0.63333 0.78040 0.28040 -0.51400
C 	C 	0.52700 0.78309 0.28309 -0.01400
H 	H 	0.54540 0.80550 0.30550 0.04800
O 	O 	0.13333 0.78040 0.78040 -0.51400
C 	C 	0.02700 0.78309 0.78309 -0.01400
H 	H 	0.04540 0.80550 0.80550 0.04800
O 	O 	0.13333 0.28040 0.28040 -0.51400
C 	C 	0.02700 0.28309 0.28309 -0.01400
H 	H 	0.04540 0.30550 0.30550 0.04800
O 	O 	0.36667 0.28040 0.78040 -0.51400
C 	C 	0.47300 0.28309 0.78309 -0.01400
H 	H 	0.45460 0.30550 0.80550 0.04800
O 	O 	0.86667 0.28040 0.28040 -0.51400
C 	C 	0.97300 0.28309 0.28309 -0.01400
H 	H 	0.95460 0.30550 0.30550 0.04800
O 	O 	0.63333 0.71960 0.78040 -0.51400
C 	C 	0.52700 0.71691 0.78309 -0.01400
H 	H 	0.54540 0.69450 0.80550 0.04800
O 	O 	0.63333 0.21960 0.28040 -0.51400
C 	C 	0.52700 0.21691 0.28309 -0.01400
H 	H 	0.54540 0.19450 0.30550 0.04800
O 	O 	0.13333 0.71960 0.28040 -0.51400
C 	C 	0.02700 0.71691 0.28309 -0.01400
H 	H 	0.04540 0.69450 0.30550 0.04800
O 	O 	0.36667 0.71960 0.21960 -0.51400
C 	C 	0.47300 0.71691 0.21691 -0.01400
H 	H 	0.45460 0.69450 0.19450 0.04800
O 	O 	0.86667 0.71960 0.71960 -0.51400
C 	C 	0.97300 0.71691 0.71691 -0.01400
H 	H 	0.95460 0.69450 0.69450 0.04800
O 	O 	0.86667 0.21960 0.21960 -0.51400
C 	C 	0.97300 0.21691 0.21691 -0.01400
H 	H 	0.95460 0.19450 0.19450 0.04800
O 	O 	0.63333 0.28040 0.21960 -0.51400
C 	C 	0.52700 0.28309 0.21691 -0.01400
H 	H 	0.54540 0.30550 0.19450 0.04800
O 	O 	0.13333 0.28040 0.71960 -0.51400
C 	C 	0.02700 0.28309 0.71691 -0.01400
H 	H 	0.04540 0.30550 0.69450 0.04800
O 	O 	0.28040 0.21960 0.63333 -0.51400
C 	C 	0.28309 0.21691 0.52700 -0.01400
H 	H 	0.30550 0.19450 0.54540 0.04800
O 	O 	0.28040 0.71960 0.13333 -0.51400
C 	C 	0.28309 0.71691 0.02700 -0.01400
H 	H 	0.30550 0.69450 0.04540 0.04800
O 	O 	0.71960 0.21960 0.36667 -0.51400
C 	C 	0.71691 0.21691 0.47300 -0.01400
H 	H 	0.69450 0.19450 0.45460 0.04800
O 	O 	0.71960 0.71960 0.86667 -0.51400
C 	C 	0.71691 0.71691 0.97300 -0.01400
H 	H 	0.69450 0.69450 0.95460 0.04800
O 	O 	0.21960 0.21960 0.86667 -0.51400
C 	C 	0.21691 0.21691 0.97300 -0.01400
H 	H 	0.19450 0.19450 0.95460 0.04800
O 	O 	0.71960 0.78040 0.63333 -0.51400
C 	C 	0.71691 0.78309 0.52700 -0.01400
H 	H 	0.69450 0.80550 0.54540 0.04800
O 	O 	0.71960 0.28040 0.13333 -0.51400
C 	C 	0.71691 0.28309 0.02700 -0.01400
H 	H 	0.69450 0.30550 0.04540 0.04800
O 	O 	0.21960 0.28040 0.63333 -0.51400
C 	C 	0.21691 0.28309 0.52700 -0.01400
H 	H 	0.19450 0.30550 0.54540 0.04800
O 	O 	0.28040 0.78040 0.36667 -0.51400
C 	C 	0.28309 0.78309 0.47300 -0.01400
H 	H 	0.30550 0.80550 0.45460 0.04800
O 	O 	0.28040 0.28040 0.86667 -0.51400
C 	C 	0.28309 0.28309 0.97300 -0.01400
H 	H 	0.30550 0.30550 0.95460 0.04800
O 	O 	0.21960 0.36667 0.71960 -0.51400
C 	C 	0.21691 0.47300 0.71691 -0.01400
H 	H 	0.19450 0.45460 0.69450 0.04800
O 	O 	0.21960 0.86667 0.21960 -0.51400
C 	C 	0.21691 0.97300 0.21691 -0.01400
H 	H 	0.19450 0.95460 0.19450 0.04800
O 	O 	0.21960 0.63333 0.28040 -0.51400
C 	C 	0.21691 0.52700 0.28309 -0.01400
H 	H 	0.19450 0.54540 0.30550 0.04800
O 	O 	0.21960 0.13333 0.78040 -0.51400
C 	C 	0.21691 0.02700 0.78309 -0.01400
H 	H 	0.19450 0.04540 0.80550 0.04800
O 	O 	0.78040 0.36667 0.28040 -0.51400
C 	C 	0.78309 0.47300 0.28309 -0.01400
H 	H 	0.80550 0.45460 0.30550 0.04800
O 	O 	0.78040 0.86667 0.78040 -0.51400
C 	C 	0.78309 0.97300 0.78309 -0.01400
H 	H 	0.80550 0.95460 0.80550 0.04800
O 	O 	0.28040 0.86667 0.28040 -0.51400
C 	C 	0.28309 0.97300 0.28309 -0.01400
H 	H 	0.30550 0.95460 0.30550 0.04800
O 	O 	0.78040 0.63333 0.71960 -0.51400
C 	C 	0.78309 0.52700 0.71691 -0.01400
H 	H 	0.80550 0.54540 0.69450 0.04800
O 	O 	0.78040 0.13333 0.21960 -0.51400
C 	C 	0.78309 0.02700 0.21691 -0.01400
H 	H 	0.80550 0.04540 0.19450 0.04800
O 	O 	0.28040 0.63333 0.21960 -0.51400
C 	C 	0.28309 0.52700 0.21691 -0.01400
H 	H 	0.30550 0.54540 0.19450 0.04800
O 	O 	0.71960 0.63333 0.78040 -0.51400
C 	C 	0.71691 0.52700 0.78309 -0.01400
H 	H 	0.69450 0.54540 0.80550 0.04800
O 	O 	0.71960 0.13333 0.28040 -0.51400
C 	C 	0.71691 0.02700 0.28309 -0.01400
H 	H 	0.69450 0.04540 0.30550 0.04800
O 	O 	0.28040 0.36667 0.78040 -0.51400
C 	C 	0.28309 0.47300 0.78309 -0.01400
H 	H 	0.30550 0.45460 0.80550 0.04800
O 	O 	0.28040 0.13333 0.71960 -0.51400
C 	C 	0.28309 0.02700 0.71691 -0.01400
H 	H 	0.30550 0.04540 0.69450 0.04800
O 	O 	0.71960 0.36667 0.21960 -0.51400
C 	C 	0.71691 0.47300 0.21691 -0.01400
H 	H 	0.69450 0.45460 0.19450 0.04800
O 	O 	0.71960 0.86667 0.71960 -0.51400
C 	C 	0.71691 0.97300 0.71691 -0.01400
H 	H 	0.69450 0.95460 0.69450 0.04800
O 	O 	0.78040 0.71960 0.63333 -0.51400
C 	C 	0.78309 0.71691 0.52700 -0.01400
H 	H 	0.80550 0.69450 0.54540 0.04800
O 	O 	0.78040 0.21960 0.13333 -0.51400
C 	C 	0.78309 0.21691 0.02700 -0.01400
H 	H 	0.80550 0.19450 0.04540 0.04800
O 	O 	0.78040 0.28040 0.36667 -0.51400
C 	C 	0.78309 0.28309 0.47300 -0.01400
H 	H 	0.80550 0.30550 0.45460 0.04800
O 	O 	0.78040 0.78040 0.86667 -0.51400
C 	C 	0.78309 0.78309 0.97300 -0.01400
H 	H 	0.80550 0.80550 0.95460 0.04800
O 	O 	0.21960 0.78040 0.13333 -0.51400
C 	C 	0.21691 0.78309 0.02700 -0.01400
H 	H 	0.19450 0.80550 0.04540 0.04800
O 	O 	0.21960 0.71960 0.36667 -0.51400
C 	C 	0.21691 0.71691 0.47300 -0.01400
H 	H 	0.19450 0.69450 0.45460 0.04800
O 	O 	0.63333 0.78040 0.71960 -0.51400
C 	C 	0.52700 0.78309 0.71691 -0.01400
H 	H 	0.54540 0.80550 0.69450 0.04800
O 	O 	0.13333 0.78040 0.21960 -0.51400
C 	C 	0.02700 0.78309 0.21691 -0.01400
H 	H 	0.04540 0.80550 0.19450 0.04800
O 	O 	0.36667 0.78040 0.28040 -0.51400
C 	C 	0.47300 0.78309 0.28309 -0.01400
H 	H 	0.45460 0.80550 0.30550 0.04800
O 	O 	0.86667 0.78040 0.78040 -0.51400
C 	C 	0.97300 0.78309 0.78309 -0.01400
H 	H 	0.95460 0.80550 0.80550 0.04800
O 	O 	0.13333 0.21960 0.78040 -0.51400
C 	C 	0.02700 0.21691 0.78309 -0.01400
H 	H 	0.04540 0.19450 0.80550 0.04800
O 	O 	0.36667 0.21960 0.71960 -0.51400
C 	C 	0.47300 0.21691 0.71691 -0.01400
H 	H 	0.45460 0.19450 0.69450 0.04800
O 	O 	0.63333 0.71960 0.21960 -0.51400
C 	C 	0.52700 0.71691 0.21691 -0.01400
H 	H 	0.54540 0.69450 0.19450 0.04800
O 	O 	0.13333 0.71960 0.71960 -0.51400
C 	C 	0.02700 0.71691 0.71691 -0.01400
H 	H 	0.04540 0.69450 0.69450 0.04800
O 	O 	0.86667 0.28040 0.71960 -0.51400
C 	C 	0.97300 0.28309 0.71691 -0.01400
H 	H 	0.95460 0.30550 0.69450 0.04800
O 	O 	0.63333 0.28040 0.78040 -0.51400
C 	C 	0.52700 0.28309 0.78309 -0.01400
H 	H 	0.54540 0.30550 0.80550 0.04800
O 	O 	0.36667 0.71960 0.78040 -0.51400
C 	C 	0.47300 0.71691 0.78309 -0.01400
H 	H 	0.45460 0.69450 0.80550 0.04800
O 	O 	0.86667 0.71960 0.28040 -0.51400
C 	C 	0.97300 0.71691 0.28309 -0.01400
H 	H 	0.95460 0.69450 0.30550 0.04800
O 	O 	0.71960 0.78040 0.36667 -0.51400
C 	C 	0.71691 0.78309 0.47300 -0.01400
H 	H 	0.69450 0.80550 0.45460 0.04800
O 	O 	0.71960 0.28040 0.86667 -0.51400
C 	C 	0.71691 0.28309 0.97300 -0.01400
H 	H 	0.69450 0.30550 0.95460 0.04800
O 	O 	0.28040 0.78040 0.63333 -0.51400
C 	C 	0.28309 0.78309 0.52700 -0.01400
H 	H 	0.30550 0.80550 0.54540 0.04800
O 	O 	0.28040 0.71960 0.86667 -0.51400
C 	C 	0.28309 0.71691 0.97300 -0.01400
H 	H 	0.30550 0.69450 0.95460 0.04800
O 	O 	0.71960 0.21960 0.63333 -0.51400
C 	C 	0.71691 0.21691 0.52700 -0.01400
H 	H 	0.69450 0.19450 0.54540 0.04800
O 	O 	0.71960 0.71960 0.13333 -0.51400
C 	C 	0.71691 0.71691 0.02700 -0.01400
H 	H 	0.69450 0.69450 0.04540 0.04800
O 	O 	0.78040 0.63333 0.28040 -0.51400
C 	C 	0.78309 0.52700 0.28309 -0.01400
H 	H 	0.80550 0.54540 0.30550 0.04800
O 	O 	0.78040 0.13333 0.78040 -0.51400
C 	C 	0.78309 0.02700 0.78309 -0.01400
H 	H 	0.80550 0.04540 0.80550 0.04800
O 	O 	0.78040 0.36667 0.71960 -0.51400
C 	C 	0.78309 0.47300 0.71691 -0.01400
H 	H 	0.80550 0.45460 0.69450 0.04800
O 	O 	0.78040 0.86667 0.21960 -0.51400
C 	C 	0.78309 0.97300 0.21691 -0.01400
H 	H 	0.80550 0.95460 0.19450 0.04800
O 	O 	0.21960 0.63333 0.71960 -0.51400
C 	C 	0.21691 0.52700 0.71691 -0.01400
H 	H 	0.19450 0.54540 0.69450 0.04800
O 	O 	0.21960 0.86667 0.78040 -0.51400
C 	C 	0.21691 0.97300 0.78309 -0.01400
H 	H 	0.19450 0.95460 0.80550 0.04800
C 	C 	0.25000 0.38830 0.25000 0.40400
C 	C 	0.25000 0.44640 0.25000 -0.09100
C 	C 	0.25000 0.88830 0.75000 0.40400
C 	C 	0.25000 0.94640 0.75000 -0.09100
C 	C 	0.75000 0.61170 0.25000 0.40400
C 	C 	0.75000 0.55360 0.25000 -0.09100
C 	C 	0.75000 0.11170 0.75000 0.40400
C 	C 	0.75000 0.05360 0.75000 -0.09100
C 	C 	0.25000 0.11170 0.25000 0.40400
C 	C 	0.25000 0.05360 0.25000 -0.09100
C 	C 	0.75000 0.38830 0.75000 0.40400
C 	C 	0.75000 0.44640 0.75000 -0.09100
C 	C 	0.75000 0.88830 0.25000 0.40400
C 	C 	0.75000 0.94640 0.25000 -0.09100
C 	C 	0.25000 0.61170 0.75000 0.40400
C 	C 	0.25000 0.55360 0.75000 -0.09100
C 	C 	0.25000 0.25000 0.38830 0.40400
C 	C 	0.25000 0.25000 0.44640 -0.09100
C 	C 	0.25000 0.75000 0.88830 0.40400
C 	C 	0.25000 0.75000 0.94640 -0.09100
C 	C 	0.25000 0.75000 0.61170 0.40400
C 	C 	0.25000 0.75000 0.55360 -0.09100
C 	C 	0.25000 0.25000 0.11170 0.40400
C 	C 	0.25000 0.25000 0.05360 -0.09100
C 	C 	0.75000 0.75000 0.38830 0.40400
C 	C 	0.75000 0.75000 0.44640 -0.09100
C 	C 	0.75000 0.25000 0.88830 0.40400
C 	C 	0.75000 0.25000 0.94640 -0.09100
C 	C 	0.75000 0.25000 0.61170 0.40400
C 	C 	0.75000 0.25000 0.55360 -0.09100
C 	C 	0.75000 0.75000 0.11170 0.40400
C 	C 	0.75000 0.75000 0.05360 -0.09100
C 	C 	0.38830 0.25000 0.25000 0.40400
C 	C 	0.44640 0.25000 0.25000 -0.09100
C 	C 	0.88830 0.25000 0.75000 0.40400
C 	C 	0.94640 0.25000 0.75000 -0.09100
C 	C 	0.61170 0.25000 0.75000 0.40400
C 	C 	0.55360 0.25000 0.75000 -0.09100
C 	C 	0.11170 0.25000 0.25000 0.40400
C 	C 	0.05360 0.25000 0.25000 -0.09100
C 	C 	0.38830 0.75000 0.75000 0.40400
C 	C 	0.44640 0.75000 0.75000 -0.09100
C 	C 	0.88830 0.75000 0.25000 0.40400
C 	C 	0.94640 0.75000 0.25000 -0.09100
C 	C 	0.61170 0.75000 0.25000 0.40400
C 	C 	0.55360 0.75000 0.25000 -0.09100
C 	C 	0.11170 0.75000 0.75000 0.40400
C 	C 	0.05360 0.75000 0.75000 -0.09100
C 	C 	0.38830 0.25000 0.75000 0.40400
C 	C 	0.44640 0.25000 0.75000 -0.09100
C 	C 	0.88830 0.25000 0.25000 0.40400
C 	C 	0.94640 0.25000 0.25000 -0.09100
C 	C 	0.61170 0.75000 0.75000 0.40400
C 	C 	0.55360 0.75000 0.75000 -0.09100
C 	C 	0.61170 0.25000 0.25000 0.40400
C 	C 	0.55360 0.25000 0.25000 -0.09100
C 	C 	0.11170 0.75000 0.25000 0.40400
C 	C 	0.05360 0.75000 0.25000 -0.09100
C 	C 	0.38830 0.75000 0.25000 0.40400
C 	C 	0.44640 0.75000 0.25000 -0.09100
C 	C 	0.88830 0.75000 0.75000 0.40400
C 	C 	0.94640 0.75000 0.75000 -0.09100
C 	C 	0.11170 0.25000 0.75000 0.40400
C 	C 	0.05360 0.25000 0.75000 -0.09100
C 	C 	0.25000 0.25000 0.61170 0.40400
C 	C 	0.25000 0.25000 0.55360 -0.09100
C 	C 	0.25000 0.75000 0.11170 0.40400
C 	C 	0.25000 0.75000 0.05360 -0.09100
C 	C 	0.75000 0.25000 0.38830 0.40400
C 	C 	0.75000 0.25000 0.44640 -0.09100
C 	C 	0.75000 0.75000 0.88830 0.40400
C 	C 	0.75000 0.75000 0.94640 -0.09100
C 	C 	0.25000 0.25000 0.88830 0.40400
C 	C 	0.25000 0.25000 0.94640 -0.09100
C 	C 	0.75000 0.75000 0.61170 0.40400
C 	C 	0.75000 0.75000 0.55360 -0.09100
C 	C 	0.75000 0.25000 0.11170 0.40400
C 	C 	0.75000 0.25000 0.05360 -0.09100
C 	C 	0.25000 0.75000 0.38830 0.40400
C 	C 	0.25000 0.75000 0.44640 -0.09100
C 	C 	0.25000 0.38830 0.75000 0.40400
C 	C 	0.25000 0.44640 0.75000 -0.09100
C 	C 	0.25000 0.88830 0.25000 0.40400
C 	C 	0.25000 0.94640 0.25000 -0.09100
C 	C 	0.25000 0.61170 0.25000 0.40400
C 	C 	0.25000 0.55360 0.25000 -0.09100
C 	C 	0.25000 0.11170 0.75000 0.40400
C 	C 	0.25000 0.05360 0.75000 -0.09100
C 	C 	0.75000 0.38830 0.25000 0.40400
C 	C 	0.75000 0.44640 0.25000 -0.09100
C 	C 	0.75000 0.88830 0.75000 0.40400
C 	C 	0.75000 0.94640 0.75000 -0.09100
C 	C 	0.75000 0.61170 0.75000 0.40400
C 	C 	0.75000 0.55360 0.75000 -0.09100
C 	C 	0.75000 0.11170 0.25000 0.40400
C 	C 	0.75000 0.05360 0.25000 -0.09100
