data_crystal

_cell_length_a 19.67600
_cell_length_b 19.67600
_cell_length_c 19.30000
_cell_angle_alpha 90.00000
_cell_angle_beta  90.00000
_cell_angle_gamma 120.00000

_symmetry_space_group_name_	'P 1'
_symmetry_space_group_name_H-M	'P 1'

loop_
_symmetry_equiv_pos_as_xyz
  x,y,z

loop_
_atom_site_label
_atom_site_type_symbol
_atom_site_fract_x
_atom_site_fract_y
_atom_site_fract_z
_atom_site_charge
Cd	Cd	0.11008 0.12701 0.58647 1.21300
N 	N 	0.20281 0.17458 0.67679 -0.20600
N 	N 	0.31160 0.26615 0.75247 -0.11500
O 	O 	0.10011 0.01430 0.63600 -0.53900
O 	O 	0.13961 0.93082 0.65998 -0.34200
O 	O 	0.40030 0.26078 0.88080 -0.34600
O 	O 	0.47875 0.22720 0.82871 -0.53700
S 	S 	0.24743 0.26554 0.70089 0.11500
C 	C 	0.14820 0.99740 0.66480 0.35900
C 	C 	0.21600 0.05890 0.70618 -0.12200
C 	C 	0.26010 0.03650 0.74450 0.00800
H 	H 	0.24720 0.98420 0.74360 0.05600
C 	C 	0.32480 0.09000 0.78580 -0.02200
H 	H 	0.35390 0.07210 0.80970 0.06400
C 	C 	0.34520 0.16690 0.79102 -0.10500
C 	C 	0.30030 0.19270 0.75348 0.07700
C 	C 	0.23661 0.13901 0.71028 0.07700
C 	C 	0.41227 0.22252 0.83619 0.36500
Cd	Cd	0.77675 0.46034 0.91980 1.21200
N 	N 	0.86948 0.50791 0.01012 -0.20800
N 	N 	0.97827 0.59948 0.08580 -0.11500
O 	O 	0.76678 0.34763 0.96933 -0.53900
O 	O 	0.80628 0.26415 0.99331 -0.34100
O 	O 	0.06697 0.59411 0.21413 -0.34500
O 	O 	0.14542 0.56053 0.16204 -0.53700
S 	S 	0.91410 0.59887 0.03422 0.11500
C 	C 	0.81487 0.33073 0.99813 0.36000
C 	C 	0.88267 0.39223 0.03951 -0.12400
C 	C 	0.92677 0.36983 0.07783 0.01000
H 	H 	0.91387 0.31753 0.07693 0.05500
C 	C 	0.99147 0.42333 0.11913 -0.02500
H 	H 	0.02057 0.40543 0.14303 0.06500
C 	C 	0.01187 0.50023 0.12435 -0.10200
C 	C 	0.96697 0.52603 0.08681 0.07500
C 	C 	0.90328 0.47234 0.04361 0.07800
C 	C 	0.07894 0.55585 0.16952 0.36400
Cd	Cd	0.44341 0.79368 0.25314 1.21200
N 	N 	0.53614 0.84125 0.34346 -0.20700
N 	N 	0.64493 0.93282 0.41914 -0.11500
O 	O 	0.43344 0.68097 0.30267 -0.53900
O 	O 	0.47294 0.59749 0.32665 -0.34200
O 	O 	0.73363 0.92745 0.54747 -0.34600
O 	O 	0.81208 0.89387 0.49538 -0.53700
S 	S 	0.58076 0.93221 0.36756 0.11500
C 	C 	0.48153 0.66407 0.33147 0.35900
C 	C 	0.54933 0.72557 0.37285 -0.12100
C 	C 	0.59343 0.70317 0.41117 0.00800
H 	H 	0.58053 0.65087 0.41027 0.05700
C 	C 	0.65813 0.75667 0.45247 -0.02100
H 	H 	0.68723 0.73877 0.47637 0.06400
C 	C 	0.67853 0.83357 0.45769 -0.10500
C 	C 	0.63363 0.85937 0.42015 0.07700
C 	C 	0.56994 0.80568 0.37695 0.07700
C 	C 	0.74560 0.88919 0.50286 0.36500
Cd	Cd	0.87299 0.98307 0.58647 1.21200
N 	N 	0.82542 0.02823 0.67679 -0.20700
N 	N 	0.73385 0.04545 0.75247 -0.11500
O 	O 	0.98570 0.08581 0.63600 -0.53900
O 	O 	0.06918 0.20879 0.65998 -0.34100
O 	O 	0.73922 0.13952 0.88080 -0.34500
O 	O 	0.77280 0.25155 0.82871 -0.53700
S 	S 	0.73446 0.98189 0.70089 0.11400
C 	C 	0.00260 0.15080 0.66480 0.35800
C 	C 	0.94110 0.15710 0.70618 -0.12100
C 	C 	0.96350 0.22360 0.74450 0.00900
H 	H 	0.01580 0.26300 0.74360 0.05600
C 	C 	0.91000 0.23480 0.78580 -0.02200
H 	H 	0.92790 0.28180 0.80970 0.06400
C 	C 	0.83310 0.17830 0.79102 -0.10500
C 	C 	0.80730 0.10760 0.75348 0.07700
C 	C 	0.86099 0.09760 0.71028 0.07800
C 	C 	0.77748 0.18975 0.83619 0.36500
Cd	Cd	0.53966 0.31640 0.91980 1.21200
N 	N 	0.49209 0.36156 0.01012 -0.20700
N 	N 	0.40052 0.37878 0.08580 -0.11500
O 	O 	0.65237 0.41914 0.96933 -0.53900
O 	O 	0.73585 0.54212 0.99331 -0.34200
O 	O 	0.40589 0.47285 0.21413 -0.34600
O 	O 	0.43947 0.58488 0.16204 -0.53700
S 	S 	0.40113 0.31522 0.03422 0.11500
C 	C 	0.66927 0.48413 0.99813 0.35900
C 	C 	0.60777 0.49043 0.03951 -0.12200
C 	C 	0.63017 0.55693 0.07783 0.00800
H 	H 	0.68247 0.59633 0.07693 0.05600
C 	C 	0.57667 0.56813 0.11913 -0.02100
H 	H 	0.59457 0.61513 0.14303 0.06400
C 	C 	0.49977 0.51163 0.12435 -0.10500
C 	C 	0.47397 0.44093 0.08681 0.07700
C 	C 	0.52766 0.43093 0.04361 0.07700
C 	C 	0.44415 0.52308 0.16952 0.36500
Cd	Cd	0.20632 0.64974 0.25314 1.21200
N 	N 	0.15875 0.69490 0.34346 -0.20700
N 	N 	0.06718 0.71212 0.41914 -0.11500
O 	O 	0.31903 0.75248 0.30267 -0.53900
O 	O 	0.40251 0.87546 0.32665 -0.34100
O 	O 	0.07255 0.80619 0.54747 -0.34600
O 	O 	0.10613 0.91822 0.49538 -0.53700
S 	S 	0.06779 0.64856 0.36756 0.11500
C 	C 	0.33593 0.81747 0.33147 0.35900
C 	C 	0.27443 0.82377 0.37285 -0.12100
C 	C 	0.29683 0.89027 0.41117 0.00800
H 	H 	0.34913 0.92967 0.41027 0.05700
C 	C 	0.24333 0.90147 0.45247 -0.02100
H 	H 	0.26123 0.94847 0.47637 0.06400
C 	C 	0.16643 0.84497 0.45769 -0.10500
C 	C 	0.14063 0.77427 0.42015 0.07700
C 	C 	0.19432 0.76427 0.37695 0.07700
C 	C 	0.11081 0.85642 0.50286 0.36500
Cd	Cd	0.01693 0.88992 0.58647 1.21200
N 	N 	0.97177 0.79719 0.67679 -0.20700
N 	N 	0.95455 0.68840 0.75247 -0.11500
O 	O 	0.91419 0.89989 0.63600 -0.53900
O 	O 	0.79121 0.86039 0.65998 -0.34200
O 	O 	0.86048 0.59970 0.88080 -0.34600
O 	O 	0.74845 0.52125 0.82871 -0.53700
S 	S 	0.01811 0.75257 0.70089 0.11500
C 	C 	0.84920 0.85180 0.66480 0.35900
C 	C 	0.84290 0.78400 0.70618 -0.12100
C 	C 	0.77640 0.73990 0.74450 0.00800
H 	H 	0.73700 0.75280 0.74360 0.05700
C 	C 	0.76520 0.67520 0.78580 -0.02100
H 	H 	0.71820 0.64610 0.80970 0.06400
C 	C 	0.82170 0.65480 0.79102 -0.10500
C 	C 	0.89240 0.69970 0.75348 0.07700
C 	C 	0.90240 0.76339 0.71028 0.07700
C 	C 	0.81025 0.58773 0.83619 0.36500
Cd	Cd	0.68360 0.22325 0.91980 1.21200
N 	N 	0.63844 0.13052 0.01012 -0.20800
N 	N 	0.62122 0.02173 0.08580 -0.11500
O 	O 	0.58086 0.23322 0.96933 -0.53900
O 	O 	0.45788 0.19372 0.99331 -0.34200
O 	O 	0.52715 0.93303 0.21413 -0.34500
O 	O 	0.41512 0.85458 0.16204 -0.53700
S 	S 	0.68478 0.08590 0.03422 0.11400
C 	C 	0.51587 0.18513 0.99813 0.36000
C 	C 	0.50957 0.11733 0.03951 -0.12300
C 	C 	0.44307 0.07323 0.07783 0.01000
H 	H 	0.40367 0.08613 0.07693 0.05500
C 	C 	0.43187 0.00853 0.11913 -0.02500
H 	H 	0.38487 0.97943 0.14303 0.06500
C 	C 	0.48837 0.98813 0.12435 -0.10200
C 	C 	0.55907 0.03303 0.08681 0.07500
C 	C 	0.56907 0.09672 0.04361 0.07800
C 	C 	0.47692 0.92106 0.16952 0.36400
Cd	Cd	0.35026 0.55659 0.25314 1.21200
N 	N 	0.30510 0.46386 0.34346 -0.20700
N 	N 	0.28788 0.35507 0.41914 -0.11500
O 	O 	0.24752 0.56656 0.30267 -0.53900
O 	O 	0.12454 0.52706 0.32665 -0.34100
O 	O 	0.19381 0.26637 0.54747 -0.34600
O 	O 	0.08178 0.18792 0.49538 -0.53700
S 	S 	0.35144 0.41924 0.36756 0.11500
C 	C 	0.18253 0.51847 0.33147 0.35900
C 	C 	0.17623 0.45067 0.37285 -0.12100
C 	C 	0.10973 0.40657 0.41117 0.00800
H 	H 	0.07033 0.41947 0.41027 0.05700
C 	C 	0.09853 0.34187 0.45247 -0.02100
H 	H 	0.05153 0.31277 0.47637 0.06400
C 	C 	0.15503 0.32147 0.45769 -0.10500
C 	C 	0.22573 0.36637 0.42015 0.07700
C 	C 	0.23573 0.43006 0.37695 0.07700
C 	C 	0.14358 0.25440 0.50286 0.36500
Cd	Cd	0.88992 0.87299 0.41353 1.21200
N 	N 	0.79719 0.82542 0.32321 -0.20700
N 	N 	0.68840 0.73385 0.24753 -0.11500
O 	O 	0.89989 0.98570 0.36400 -0.53900
O 	O 	0.86039 0.06918 0.34002 -0.34200
O 	O 	0.59970 0.73922 0.11920 -0.34600
O 	O 	0.52125 0.77280 0.17129 -0.53700
S 	S 	0.75257 0.73446 0.29911 0.11500
C 	C 	0.85180 0.00260 0.33520 0.35900
C 	C 	0.78400 0.94110 0.29382 -0.12200
C 	C 	0.73990 0.96350 0.25550 0.00800
H 	H 	0.75280 0.01580 0.25640 0.05600
C 	C 	0.67520 0.91000 0.21420 -0.02200
H 	H 	0.64610 0.92790 0.19030 0.06400
C 	C 	0.65480 0.83310 0.20898 -0.10500
C 	C 	0.69970 0.80730 0.24652 0.07700
C 	C 	0.76339 0.86099 0.28972 0.07700
C 	C 	0.58773 0.77748 0.16381 0.36500
Cd	Cd	0.55659 0.20632 0.74686 1.21200
N 	N 	0.46386 0.15875 0.65654 -0.20700
N 	N 	0.35507 0.06718 0.58086 -0.11500
O 	O 	0.56656 0.31903 0.69733 -0.53900
O 	O 	0.52706 0.40251 0.67335 -0.34200
O 	O 	0.26637 0.07255 0.45253 -0.34600
O 	O 	0.18792 0.10613 0.50462 -0.53700
S 	S 	0.41924 0.06779 0.63244 0.11500
C 	C 	0.51847 0.33593 0.66853 0.35900
C 	C 	0.45067 0.27443 0.62715 -0.12100
C 	C 	0.40657 0.29683 0.58883 0.00800
H 	H 	0.41947 0.34913 0.58973 0.05700
C 	C 	0.34187 0.24333 0.54753 -0.02100
H 	H 	0.31277 0.26123 0.52363 0.06400
C 	C 	0.32147 0.16643 0.54231 -0.10500
C 	C 	0.36637 0.14063 0.57985 0.07700
C 	C 	0.43006 0.19432 0.62305 0.07700
C 	C 	0.25440 0.11081 0.49714 0.36500
Cd	Cd	0.22325 0.53966 0.08020 1.21200
N 	N 	0.13052 0.49209 0.98988 -0.20800
N 	N 	0.02173 0.40052 0.91420 -0.11500
O 	O 	0.23322 0.65237 0.03067 -0.53900
O 	O 	0.19372 0.73585 0.00669 -0.34100
O 	O 	0.93303 0.40589 0.78587 -0.34500
O 	O 	0.85458 0.43947 0.83796 -0.53700
S 	S 	0.08590 0.40113 0.96578 0.11500
C 	C 	0.18513 0.66927 0.00187 0.36000
C 	C 	0.11733 0.60777 0.96049 -0.12400
C 	C 	0.07323 0.63017 0.92217 0.01000
H 	H 	0.08613 0.68247 0.92307 0.05500
C 	C 	0.00853 0.57667 0.88087 -0.02500
H 	H 	0.97943 0.59457 0.85697 0.06500
C 	C 	0.98813 0.49977 0.87565 -0.10200
C 	C 	0.03303 0.47397 0.91319 0.07500
C 	C 	0.09672 0.52766 0.95639 0.07800
C 	C 	0.92106 0.44415 0.83048 0.36400
Cd	Cd	0.12701 0.01693 0.41353 1.21200
N 	N 	0.17458 0.97177 0.32321 -0.20700
N 	N 	0.26615 0.95455 0.24753 -0.11500
O 	O 	0.01430 0.91419 0.36400 -0.53900
O 	O 	0.93082 0.79121 0.34002 -0.34100
O 	O 	0.26078 0.86048 0.11920 -0.34500
O 	O 	0.22720 0.74845 0.17129 -0.53700
S 	S 	0.26554 0.01811 0.29911 0.11400
C 	C 	0.99740 0.84920 0.33520 0.35800
C 	C 	0.05890 0.84290 0.29382 -0.12100
C 	C 	0.03650 0.77640 0.25550 0.00900
H 	H 	0.98420 0.73700 0.25640 0.05600
C 	C 	0.09000 0.76520 0.21420 -0.02200
H 	H 	0.07210 0.71820 0.19030 0.06400
C 	C 	0.16690 0.82170 0.20898 -0.10500
C 	C 	0.19270 0.89240 0.24652 0.07700
C 	C 	0.13901 0.90240 0.28972 0.07800
C 	C 	0.22252 0.81025 0.16381 0.36500
Cd	Cd	0.79368 0.35026 0.74686 1.21200
N 	N 	0.84125 0.30510 0.65654 -0.20700
N 	N 	0.93282 0.28788 0.58086 -0.11500
O 	O 	0.68097 0.24752 0.69733 -0.53900
O 	O 	0.59749 0.12454 0.67335 -0.34100
O 	O 	0.92745 0.19381 0.45253 -0.34600
O 	O 	0.89387 0.08178 0.50462 -0.53700
S 	S 	0.93221 0.35144 0.63244 0.11500
C 	C 	0.66407 0.18253 0.66853 0.35900
C 	C 	0.72557 0.17623 0.62715 -0.12100
C 	C 	0.70317 0.10973 0.58883 0.00800
H 	H 	0.65087 0.07033 0.58973 0.05700
C 	C 	0.75667 0.09853 0.54753 -0.02100
H 	H 	0.73877 0.05153 0.52363 0.06400
C 	C 	0.83357 0.15503 0.54231 -0.10500
C 	C 	0.85937 0.22573 0.57985 0.07700
C 	C 	0.80568 0.23573 0.62305 0.07700
C 	C 	0.88919 0.14358 0.49714 0.36500
Cd	Cd	0.46034 0.68360 0.08020 1.21200
N 	N 	0.50791 0.63844 0.98988 -0.20700
N 	N 	0.59948 0.62122 0.91420 -0.11500
O 	O 	0.34763 0.58086 0.03067 -0.53900
O 	O 	0.26415 0.45788 0.00669 -0.34200
O 	O 	0.59411 0.52715 0.78587 -0.34600
O 	O 	0.56053 0.41512 0.83796 -0.53700
S 	S 	0.59887 0.68478 0.96578 0.11500
C 	C 	0.33073 0.51587 0.00187 0.35900
C 	C 	0.39223 0.50957 0.96049 -0.12200
C 	C 	0.36983 0.44307 0.92217 0.00800
H 	H 	0.31753 0.40367 0.92307 0.05600
C 	C 	0.42333 0.43187 0.88087 -0.02100
H 	H 	0.40543 0.38487 0.85697 0.06400
C 	C 	0.50023 0.48837 0.87565 -0.10500
C 	C 	0.52603 0.55907 0.91319 0.07700
C 	C 	0.47234 0.56907 0.95639 0.07700
C 	C 	0.55585 0.47692 0.83048 0.36500
Cd	Cd	0.98307 0.11008 0.41353 1.21200
N 	N 	0.02823 0.20281 0.32321 -0.20700
N 	N 	0.04545 0.31160 0.24753 -0.11500
O 	O 	0.08581 0.10011 0.36400 -0.53900
O 	O 	0.20879 0.13961 0.34002 -0.34200
O 	O 	0.13952 0.40030 0.11920 -0.34600
O 	O 	0.25155 0.47875 0.17129 -0.53700
S 	S 	0.98189 0.24743 0.29911 0.11500
C 	C 	0.15080 0.14820 0.33520 0.35900
C 	C 	0.15710 0.21600 0.29382 -0.12100
C 	C 	0.22360 0.26010 0.25550 0.00800
H 	H 	0.26300 0.24720 0.25640 0.05700
C 	C 	0.23480 0.32480 0.21420 -0.02100
H 	H 	0.28180 0.35390 0.19030 0.06400
C 	C 	0.17830 0.34520 0.20898 -0.10500
C 	C 	0.10760 0.30030 0.24652 0.07700
C 	C 	0.09760 0.23661 0.28972 0.07700
C 	C 	0.18975 0.41227 0.16381 0.36500
Cd	Cd	0.64974 0.44341 0.74686 1.21200
N 	N 	0.69490 0.53614 0.65654 -0.20700
N 	N 	0.71212 0.64493 0.58086 -0.11500
O 	O 	0.75248 0.43344 0.69733 -0.53900
O 	O 	0.87546 0.47294 0.67335 -0.34100
O 	O 	0.80619 0.73363 0.45253 -0.34600
O 	O 	0.91822 0.81208 0.50462 -0.53700
S 	S 	0.64856 0.58076 0.63244 0.11500
C 	C 	0.81747 0.48153 0.66853 0.35900
C 	C 	0.82377 0.54933 0.62715 -0.12100
C 	C 	0.89027 0.59343 0.58883 0.00800
H 	H 	0.92967 0.58053 0.58973 0.05700
C 	C 	0.90147 0.65813 0.54753 -0.02100
H 	H 	0.94847 0.68723 0.52363 0.06400
C 	C 	0.84497 0.67853 0.54231 -0.10500
C 	C 	0.77427 0.63363 0.57985 0.07700
C 	C 	0.76427 0.56994 0.62305 0.07700
C 	C 	0.85642 0.74560 0.49714 0.36500
Cd	Cd	0.31640 0.77675 0.08020 1.21200
N 	N 	0.36156 0.86948 0.98988 -0.20800
N 	N 	0.37878 0.97827 0.91420 -0.11500
O 	O 	0.41914 0.76678 0.03067 -0.53900
O 	O 	0.54212 0.80628 0.00669 -0.34200
O 	O 	0.47285 0.06697 0.78587 -0.34500
O 	O 	0.58488 0.14542 0.83796 -0.53700
S 	S 	0.31522 0.91410 0.96578 0.11400
C 	C 	0.48413 0.81487 0.00187 0.36000
C 	C 	0.49043 0.88267 0.96049 -0.12300
C 	C 	0.55693 0.92677 0.92217 0.01000
H 	H 	0.59633 0.91387 0.92307 0.05500
C 	C 	0.56813 0.99147 0.88087 -0.02500
H 	H 	0.61513 0.02057 0.85697 0.06500
C 	C 	0.51163 0.01187 0.87565 -0.10200
C 	C 	0.44093 0.96697 0.91319 0.07500
C 	C 	0.43093 0.90328 0.95639 0.07800
C 	C 	0.52308 0.07894 0.83048 0.36400
