data_crystal

_cell_length_a 8.53260
_cell_length_b 13.21280
_cell_length_c 9.58830
_cell_angle_alpha 90.00000
_cell_angle_beta  94.58500
_cell_angle_gamma 90.00000

_symmetry_space_group_name_	'P 1'
_symmetry_space_group_name_H-M	'P 1'

loop_
_symmetry_equiv_pos_as_xyz
  x,y,z

loop_
_atom_site_label
_atom_site_type_symbol
_atom_site_fract_x
_atom_site_fract_y
_atom_site_fract_z
_atom_site_charge
Gd	Gd	0.53941 0.26882 0.49206 1.27400
C 	C 	0.53930 0.38940 0.74370 0.28400
C 	C 	0.52440 0.45090 0.87580 -0.03600
C 	C 	0.61640 0.42570 0.99580 -0.04000
C 	C 	0.40830 0.52700 0.87550 -0.06900
C 	C 	0.75370 0.35100 0.98960 0.30400
C 	C 	0.30170 0.55140 0.74450 0.34800
O 	O 	0.55020 0.43240 0.62650 -0.33400
O 	O 	0.53630 0.29360 0.75180 -0.34800
O 	O 	0.78320 0.28830 0.08270 -0.35400
O 	O 	0.84100 0.35980 0.88800 -0.35900
O 	O 	0.35050 0.61460 0.65730 -0.39300
O 	O 	0.16760 0.51010 0.73120 -0.26600
Gd	Gd	0.96059 0.76882 0.00794 1.25300
C 	C 	0.96070 0.88940 0.75630 0.28300
C 	C 	0.97560 0.95090 0.62420 -0.03300
C 	C 	0.88360 0.92570 0.50420 -0.04100
C 	C 	0.09170 0.02700 0.62450 -0.07300
C 	C 	0.74630 0.85100 0.51040 0.30000
C 	C 	0.19830 0.05140 0.75550 0.34600
O 	O 	0.94980 0.93240 0.87350 -0.32600
O 	O 	0.96370 0.79360 0.74820 -0.34300
O 	O 	0.71680 0.78830 0.41730 -0.35300
O 	O 	0.65900 0.85980 0.61200 -0.36200
O 	O 	0.14950 0.11460 0.84270 -0.39500
O 	O 	0.33240 0.01010 0.76880 -0.26700
Gd	Gd	0.46059 0.73118 0.50794 1.27400
C 	C 	0.46070 0.61060 0.25630 0.28400
C 	C 	0.47560 0.54910 0.12420 -0.03600
C 	C 	0.38360 0.57430 0.00420 -0.04000
C 	C 	0.59170 0.47300 0.12450 -0.06900
C 	C 	0.24630 0.64900 0.01040 0.30400
C 	C 	0.69830 0.44860 0.25550 0.34800
O 	O 	0.44980 0.56760 0.37350 -0.33400
O 	O 	0.46370 0.70640 0.24820 -0.34800
O 	O 	0.21680 0.71170 0.91730 -0.35400
O 	O 	0.15900 0.64020 0.11200 -0.35900
O 	O 	0.64950 0.38540 0.34270 -0.39300
O 	O 	0.83240 0.48990 0.26880 -0.26600
Gd	Gd	0.03941 0.23118 0.99206 1.25300
C 	C 	0.03930 0.11060 0.24370 0.28300
C 	C 	0.02440 0.04910 0.37580 -0.03300
C 	C 	0.11640 0.07430 0.49580 -0.04100
C 	C 	0.90830 0.97300 0.37550 -0.07300
C 	C 	0.25370 0.14900 0.48960 0.30000
C 	C 	0.80170 0.94860 0.24450 0.34600
O 	O 	0.05020 0.06760 0.12650 -0.32600
O 	O 	0.03630 0.20640 0.25180 -0.34300
O 	O 	0.28320 0.21170 0.58270 -0.35300
O 	O 	0.34100 0.14020 0.38800 -0.36200
O 	O 	0.85050 0.88540 0.15730 -0.39500
O 	O 	0.66760 0.98990 0.23120 -0.26700
