data_crystal

_cell_length_a 8.46120
_cell_length_b 13.12720
_cell_length_c 9.48550
_cell_angle_alpha 90.00000
_cell_angle_beta  94.65200
_cell_angle_gamma 90.00000

_symmetry_space_group_name_	'P 1'
_symmetry_space_group_name_H-M	'P 1'

loop_
_symmetry_equiv_pos_as_xyz
  x,y,z

loop_
_atom_site_label
_atom_site_type_symbol
_atom_site_fract_x
_atom_site_fract_y
_atom_site_fract_z
_atom_site_charge
Gd	Gd	0.96108 0.26866 0.50806 1.28900
O 	O 	0.15870 0.13820 0.61090 -0.36800
O 	O 	0.21720 0.21250 0.41620 -0.35200
O 	O 	0.35030 0.11390 0.15790 -0.41300
O 	O 	0.16800 0.01080 0.23200 -0.28000
O 	O 	0.46320 0.20570 0.74890 -0.36400
C 	C 	0.24660 0.14750 0.51130 0.30300
C 	C 	0.38190 0.07430 0.50220 -0.04200
C 	C 	0.47600 0.04910 0.62630 -0.04300
C 	C 	0.46090 0.11110 0.75660 0.30900
C 	C 	0.40780 0.02620 0.37580 -0.07300
C 	C 	0.30080 0.05220 0.24330 0.37900
O 	O 	0.45050 0.06770 0.87320 -0.34200
Gd	Gd	0.53892 0.76866 0.99194 1.28800
O 	O 	0.34130 0.63820 0.88910 -0.37000
O 	O 	0.28280 0.71250 0.08380 -0.35100
O 	O 	0.14970 0.61390 0.34210 -0.41200
O 	O 	0.33200 0.51080 0.26800 -0.27900
O 	O 	0.03680 0.70570 0.75110 -0.36700
C 	C 	0.25340 0.64750 0.98870 0.30100
C 	C 	0.11810 0.57430 0.99780 -0.04200
C 	C 	0.02400 0.54910 0.87370 -0.04500
C 	C 	0.03910 0.61110 0.74340 0.31000
C 	C 	0.09220 0.52620 0.12420 -0.06900
C 	C 	0.19920 0.55220 0.25670 0.37900
O 	O 	0.04950 0.56770 0.62680 -0.34500
Gd	Gd	0.03892 0.73134 0.49194 1.28800
O 	O 	0.84130 0.86180 0.38910 -0.36900
O 	O 	0.78280 0.78750 0.58380 -0.35200
O 	O 	0.64970 0.88610 0.84210 -0.41300
O 	O 	0.83200 0.98920 0.76800 -0.28000
O 	O 	0.53680 0.79430 0.25110 -0.36400
C 	C 	0.75340 0.85250 0.48870 0.30300
C 	C 	0.61810 0.92570 0.49780 -0.04200
C 	C 	0.52400 0.95090 0.37370 -0.04300
C 	C 	0.53910 0.88890 0.24340 0.30900
C 	C 	0.59220 0.97380 0.62420 -0.07300
C 	C 	0.69920 0.94780 0.75670 0.37900
O 	O 	0.54950 0.93230 0.12680 -0.34200
Gd	Gd	0.46108 0.23134 0.00806 1.28800
O 	O 	0.65870 0.36180 0.11090 -0.37000
O 	O 	0.71720 0.28750 0.91620 -0.35100
O 	O 	0.85030 0.38610 0.65790 -0.41200
O 	O 	0.66800 0.48920 0.73200 -0.27900
O 	O 	0.96320 0.29430 0.24890 -0.36700
C 	C 	0.74660 0.35250 0.01130 0.30100
C 	C 	0.88190 0.42570 0.00220 -0.04200
C 	C 	0.97600 0.45090 0.12630 -0.04500
C 	C 	0.96090 0.38890 0.25660 0.31000
C 	C 	0.90780 0.47380 0.87580 -0.06900
C 	C 	0.80080 0.44780 0.74330 0.37900
O 	O 	0.95050 0.43230 0.37320 -0.34500
