data_crystal

_cell_length_a 8.48560
_cell_length_b 9.52250
_cell_length_c 13.12810
_cell_angle_alpha 90.00000
_cell_angle_beta  90.00000
_cell_angle_gamma 94.62000

_symmetry_space_group_name_	'P 1'
_symmetry_space_group_name_H-M	'P 1'

loop_
_symmetry_equiv_pos_as_xyz
  x,y,z

loop_
_atom_site_label
_atom_site_type_symbol
_atom_site_fract_x
_atom_site_fract_y
_atom_site_fract_z
_atom_site_charge
Gd	Gd	0.96081 0.00811 0.76878 1.26700
Gd	Gd	0.53919 0.49189 0.26878 1.28800
Gd	Gd	0.03919 0.99189 0.23122 1.26600
Gd	Gd	0.46081 0.50811 0.73122 1.28700
C 	C 	0.47500 0.12510 0.54930 -0.03900
C 	C 	0.38180 0.00320 0.57470 -0.04400
C 	C 	0.59100 0.12430 0.47400 -0.06700
C 	C 	0.46100 0.25680 0.61060 0.29700
C 	C 	0.24630 0.00990 0.64770 0.30700
C 	C 	0.70060 0.25730 0.44760 0.37300
C 	C 	0.02500 0.37490 0.04930 -0.03600
C 	C 	0.11820 0.49680 0.07470 -0.04600
C 	C 	0.90900 0.37570 0.97400 -0.07100
C 	C 	0.03900 0.24320 0.11060 0.29500
C 	C 	0.25370 0.49010 0.14770 0.30300
C 	C 	0.79940 0.24270 0.94760 0.37200
C 	C 	0.52500 0.87490 0.45070 -0.03900
C 	C 	0.61820 0.99680 0.42530 -0.04400
C 	C 	0.40900 0.87570 0.52600 -0.06700
C 	C 	0.53900 0.74320 0.38940 0.29700
C 	C 	0.75370 0.99010 0.35230 0.30700
C 	C 	0.29940 0.74270 0.55240 0.37300
C 	C 	0.97500 0.62510 0.95070 -0.03600
C 	C 	0.88180 0.50320 0.92530 -0.04600
C 	C 	0.09100 0.62430 0.02600 -0.07100
C 	C 	0.96100 0.75680 0.88940 0.29500
C 	C 	0.74630 0.50990 0.85230 0.30300
C 	C 	0.20060 0.75730 0.05240 0.37200
O 	O 	0.15840 0.11140 0.63890 -0.36300
O 	O 	0.21780 0.91670 0.71210 -0.35500
O 	O 	0.45170 0.37370 0.56770 -0.34200
O 	O 	0.83390 0.26770 0.48900 -0.27700
O 	O 	0.65040 0.34210 0.38600 -0.40900
O 	O 	0.46290 0.24840 0.70650 -0.35600
O 	O 	0.34160 0.38860 0.13890 -0.36600
O 	O 	0.28220 0.58330 0.21210 -0.35500
O 	O 	0.04830 0.12630 0.06770 -0.33400
O 	O 	0.66610 0.23230 0.98900 -0.27900
O 	O 	0.84960 0.15790 0.88600 -0.41100
O 	O 	0.03710 0.25160 0.20650 -0.35100
O 	O 	0.84160 0.88860 0.36110 -0.36300
O 	O 	0.78220 0.08330 0.28790 -0.35500
O 	O 	0.54830 0.62630 0.43230 -0.34200
O 	O 	0.16610 0.73230 0.51100 -0.27700
O 	O 	0.34960 0.65790 0.61400 -0.40900
O 	O 	0.53710 0.75160 0.29350 -0.35600
O 	O 	0.65840 0.61140 0.86110 -0.36600
O 	O 	0.71780 0.41670 0.78790 -0.35500
O 	O 	0.95170 0.87370 0.93230 -0.33400
O 	O 	0.33390 0.76770 0.01100 -0.27900
O 	O 	0.15040 0.84210 0.11400 -0.41100
O 	O 	0.96290 0.74840 0.79350 -0.35100
