data_crystal

_cell_length_a 9.91790
_cell_length_b 7.42560
_cell_length_c 19.78700
_cell_angle_alpha 90.00000
_cell_angle_beta  90.00000
_cell_angle_gamma 90.00000

_symmetry_space_group_name_	'P 1'
_symmetry_space_group_name_H-M	'P 1'

loop_
_symmetry_equiv_pos_as_xyz
  x,y,z

loop_
_atom_site_label
_atom_site_type_symbol
_atom_site_fract_x
_atom_site_fract_y
_atom_site_fract_z
_atom_site_charge
N 	N 	0.12240 0.80740 0.17228 -0.22300
N 	N 	0.08890 0.62680 0.16536 -0.23800
C 	C 	0.15290 0.56670 0.11120 0.09400
H 	H 	0.14630 0.44930 0.09510 -0.04100
N 	N 	0.22830 0.69520 0.08224 -0.24400
N 	N 	0.37720 0.00140 0.06050 -0.21800
N 	N 	0.44130 0.16100 0.06620 -0.18000
N 	N 	0.28560 0.15480 0.14462 -0.12400
C 	C 	0.20640 0.83880 0.12159 0.04600
C 	C 	0.28370 0.00150 0.10962 0.04600
N 	N 	0.38630 0.25250 0.11610 -0.07200
N 	N 	0.87760 0.19260 0.67228 -0.22300
N 	N 	0.91110 0.37320 0.66536 -0.23700
C 	C 	0.84710 0.43330 0.61120 0.10100
H 	H 	0.85370 0.55070 0.59510 -0.02600
N 	N 	0.77170 0.30480 0.58224 -0.22900
N 	N 	0.62280 0.99860 0.56050 -0.20100
N 	N 	0.55870 0.83900 0.56620 -0.16200
N 	N 	0.71440 0.84520 0.64462 -0.12200
C 	C 	0.79360 0.16120 0.62159 0.06000
C 	C 	0.71630 0.99850 0.60962 0.04800
N 	N 	0.61370 0.74750 0.61610 -0.06700
N 	N 	0.87760 0.30740 0.32772 -0.22200
N 	N 	0.91110 0.12680 0.33464 -0.23700
C 	C 	0.84710 0.06670 0.38880 0.10400
H 	H 	0.85370 0.94930 0.40490 -0.02800
N 	N 	0.77170 0.19520 0.41776 -0.23000
N 	N 	0.62280 0.50140 0.43950 -0.20000
N 	N 	0.55870 0.66100 0.43380 -0.16200
N 	N 	0.71440 0.65480 0.35538 -0.12200
C 	C 	0.79360 0.33880 0.37841 0.06200
C 	C 	0.71630 0.50150 0.39038 0.04700
N 	N 	0.61370 0.75250 0.38390 -0.06800
N 	N 	0.12240 0.69260 0.82772 -0.22200
N 	N 	0.08890 0.87320 0.83464 -0.23400
C 	C 	0.15290 0.93330 0.88880 0.10500
H 	H 	0.14630 0.05070 0.90490 -0.00500
N 	N 	0.22830 0.80480 0.91776 -0.20200
N 	N 	0.37720 0.49860 0.93950 -0.16800
N 	N 	0.44130 0.33900 0.93380 -0.13100
N 	N 	0.28560 0.34520 0.85538 -0.12000
C 	C 	0.20640 0.66120 0.87841 0.07300
C 	C 	0.28370 0.49850 0.89038 0.05900
N 	N 	0.38630 0.24750 0.88390 -0.06000
N 	N 	0.87760 0.19260 0.82772 -0.22200
N 	N 	0.91110 0.37320 0.83464 -0.23500
C 	C 	0.84710 0.43330 0.88880 0.10900
H 	H 	0.85370 0.55070 0.90490 -0.00700
N 	N 	0.77170 0.30480 0.91776 -0.20200
N 	N 	0.62280 0.99860 0.93950 -0.16900
N 	N 	0.55870 0.83900 0.93380 -0.13000
N 	N 	0.71440 0.84520 0.85538 -0.12000
C 	C 	0.79360 0.16120 0.87841 0.07000
C 	C 	0.71630 0.99850 0.89038 0.06100
N 	N 	0.61370 0.74750 0.88390 -0.05900
N 	N 	0.12240 0.80740 0.32772 -0.22300
N 	N 	0.08890 0.62680 0.33464 -0.23700
C 	C 	0.15290 0.56670 0.38880 0.10100
H 	H 	0.14630 0.44930 0.40490 -0.02600
N 	N 	0.22830 0.69520 0.41776 -0.22900
N 	N 	0.37720 0.00140 0.43950 -0.20000
N 	N 	0.44130 0.16100 0.43380 -0.16200
N 	N 	0.28560 0.15480 0.35538 -0.12200
C 	C 	0.20640 0.83880 0.37841 0.05500
C 	C 	0.28370 0.00150 0.39038 0.05400
N 	N 	0.38630 0.25250 0.38390 -0.06700
N 	N 	0.12240 0.69260 0.67228 -0.22200
N 	N 	0.08890 0.87320 0.66536 -0.23600
C 	C 	0.15290 0.93330 0.61120 0.09500
H 	H 	0.14630 0.05070 0.59510 -0.02200
N 	N 	0.22830 0.80480 0.58224 -0.22900
N 	N 	0.37720 0.49860 0.56050 -0.20000
N 	N 	0.44130 0.33900 0.56620 -0.16200
N 	N 	0.28560 0.34520 0.64462 -0.12200
C 	C 	0.20640 0.66120 0.62159 0.06200
C 	C 	0.28370 0.49850 0.60962 0.04700
N 	N 	0.38630 0.24750 0.61610 -0.06700
N 	N 	0.87760 0.30740 0.17228 -0.22300
N 	N 	0.91110 0.12680 0.16536 -0.23900
C 	C 	0.84710 0.06670 0.11120 0.09900
H 	H 	0.85370 0.94930 0.09510 -0.04500
N 	N 	0.77170 0.19520 0.08224 -0.24500
N 	N 	0.62280 0.50140 0.06050 -0.21900
N 	N 	0.55870 0.66100 0.06620 -0.18100
N 	N 	0.71440 0.65480 0.14462 -0.12400
C 	C 	0.79360 0.33880 0.12159 0.05400
C 	C 	0.71630 0.50150 0.10962 0.03700
N 	N 	0.61370 0.75250 0.11610 -0.07300
Co	Co	0.01125 0.97377 0.25000 1.02100
Co	Co	0.98875 0.02623 0.75000 1.02400
Co	Co	0.98875 0.47377 0.25000 1.02500
Co	Co	0.01125 0.52623 0.75000 1.02700
Co	Co	0.38947 0.75000 -0.00000 1.03600
Co	Co	0.61053 0.25000 0.50000 1.08900
Co	Co	0.61053 0.25000 -0.00000 1.03800
Co	Co	0.38947 0.75000 0.50000 1.08800
