data_crystal

_cell_length_a 11.58300
_cell_length_b 11.66500
_cell_length_c 14.15900
_cell_angle_alpha 93.93200
_cell_angle_beta  111.98000
_cell_angle_gamma 110.01800

_symmetry_space_group_name_	'P 1'
_symmetry_space_group_name_H-M	'P 1'

loop_
_symmetry_equiv_pos_as_xyz
  x,y,z

loop_
_atom_site_label
_atom_site_type_symbol
_atom_site_fract_x
_atom_site_fract_y
_atom_site_fract_z
_atom_site_charge
Cu	Cu	0.39120 0.35341 0.35517 0.87900
Cu	Cu	0.36843 0.91268 0.52451 0.89700
Cu	Cu	0.60880 0.64659 0.64483 0.88600
Cu	Cu	0.63157 0.08732 0.47549 0.86800
Cu	Cu	0.50000 0.00000 -0.00000 0.83400
H 	H 	0.11040 0.96540 0.32660 0.16800
H 	H 	0.14620 0.10740 0.37610 0.14600
H 	H 	0.27890 0.18080 0.55870 0.14600
H 	H 	0.17410 0.10080 0.60070 0.14400
H 	H 	0.69490 0.60000 0.16510 0.10500
H 	H 	0.79140 0.74120 0.22820 0.11900
H 	H 	0.70700 0.43490 0.24510 0.12500
H 	H 	0.80610 0.46060 0.36560 0.12700
H 	H 	0.96650 0.53590 0.62140 0.12500
H 	H 	0.00230 0.58520 0.74110 0.13800
H 	H 	0.08730 0.89440 0.74270 0.13900
H 	H 	0.06270 0.79050 0.80880 0.13800
H 	H 	0.88960 0.03460 0.67340 0.08800
H 	H 	0.85380 0.89260 0.62390 0.11800
H 	H 	0.72110 0.81920 0.44130 0.14100
H 	H 	0.82590 0.89920 0.39930 0.15400
H 	H 	0.30510 0.40000 0.83490 0.12300
H 	H 	0.20860 0.25880 0.77180 0.12200
H 	H 	0.29300 0.56510 0.75490 0.13900
H 	H 	0.19390 0.53940 0.63440 0.13000
H 	H 	0.03350 0.46410 0.37860 0.12300
H 	H 	0.99770 0.41480 0.25890 0.12300
H 	H 	0.91270 0.10560 0.25730 0.11500
H 	H 	0.93730 0.20950 0.19120 0.11400
C 	C 	0.32130 0.07910 0.38370 0.40400
C 	C 	0.17670 0.03770 0.38560 -0.35700
C 	C 	0.24430 0.09960 0.57720 -0.32000
C 	C 	0.35830 0.09260 0.66790 0.40800
C 	C 	0.08850 0.88910 0.48180 0.13800
C 	C 	0.92950 0.69730 0.39970 0.16200
C 	C 	0.78980 0.65660 0.21170 -0.19900
C 	C 	0.87340 0.66220 0.15510 0.24300
C 	C 	0.74690 0.49270 0.31400 -0.26500
C 	C 	0.63490 0.48800 0.34300 0.38300
C 	C 	0.02390 0.75140 0.57300 0.16100
C 	C 	0.96040 0.59690 0.66950 -0.26300
C 	C 	0.81290 0.56840 0.64090 0.38100
C 	C 	0.10490 0.81980 0.76100 -0.26400
C 	C 	0.25580 0.85910 0.81900 0.38700
C 	C 	0.67870 0.92090 0.61630 0.37400
C 	C 	0.82330 0.96230 0.61440 -0.22300
C 	C 	0.75570 0.90040 0.42280 -0.31200
C 	C 	0.64170 0.90740 0.33210 0.41400
C 	C 	0.91150 0.11090 0.51820 0.08800
C 	C 	0.07050 0.30270 0.60030 0.16300
C 	C 	0.21020 0.34340 0.78830 -0.20600
C 	C 	0.12660 0.33780 0.84490 0.25100
C 	C 	0.25310 0.50730 0.68600 -0.27100
C 	C 	0.36510 0.51200 0.65700 0.39000
C 	C 	0.97610 0.24860 0.42700 0.15700
C 	C 	0.03960 0.40310 0.33050 -0.25100
C 	C 	0.18710 0.43160 0.35910 0.37400
C 	C 	0.89510 0.18020 0.23900 -0.25500
C 	C 	0.74420 0.14090 0.18100 0.38300
N 	N 	0.17930 0.00320 0.48400 -0.08600
N 	N 	0.00150 0.80930 0.38880 -0.16100
N 	N 	0.83060 0.61390 0.30850 -0.05900
N 	N 	0.93820 0.65960 0.48830 -0.15800
N 	N 	0.03720 0.72140 0.66530 -0.05300
N 	N 	0.09690 0.87020 0.57440 -0.15600
N 	N 	0.82070 0.99680 0.51600 -0.06500
N 	N 	0.99850 0.19070 0.61120 -0.16000
N 	N 	0.16940 0.38610 0.69150 -0.05600
N 	N 	0.06180 0.34040 0.51170 -0.15600
N 	N 	0.96280 0.27860 0.33470 -0.05900
N 	N 	0.90310 0.12980 0.42560 -0.16300
O 	O 	0.33460 0.14020 0.31650 -0.38600
O 	O 	0.40450 0.04190 0.44400 -0.50300
O 	O 	0.42220 0.02960 0.65200 -0.41400
O 	O 	0.39010 0.15420 0.75390 -0.27700
O 	O 	0.97950 0.62400 0.19580 -0.20900
O 	O 	0.81840 0.70090 0.06110 -0.21800
O 	O 	0.61140 0.58450 0.35350 -0.30800
O 	O 	0.56650 0.38400 0.35420 -0.43300
O 	O 	0.77970 0.66180 0.64590 -0.41500
O 	O 	0.73110 0.45650 0.62010 -0.31600
O 	O 	0.31910 0.81470 0.78420 -0.28300
O 	O 	0.30900 0.93980 0.90420 -0.37600
O 	O 	0.66540 0.85980 0.68350 -0.34700
O 	O 	0.59550 0.95810 0.55600 -0.46000
O 	O 	0.57780 0.97040 0.34800 -0.38600
O 	O 	0.60990 0.84580 0.24610 -0.28100
O 	O 	0.02050 0.37600 0.80420 -0.19300
O 	O 	0.18160 0.29910 0.93890 -0.18100
O 	O 	0.38860 0.41550 0.64650 -0.30200
O 	O 	0.43350 0.61600 0.64580 -0.42400
O 	O 	0.22030 0.33820 0.35410 -0.42300
O 	O 	0.26890 0.54350 0.37990 -0.31900
O 	O 	0.68090 0.18530 0.21580 -0.31400
O 	O 	0.69100 0.06020 0.09580 -0.44900
