data_crystal

_cell_length_a 9.31370
_cell_length_b 10.40630
_cell_length_c 23.88900
_cell_angle_alpha 91.60300
_cell_angle_beta  90.00000
_cell_angle_gamma 90.00000

_symmetry_space_group_name_	'P 1'
_symmetry_space_group_name_H-M	'P 1'

loop_
_symmetry_equiv_pos_as_xyz
  x,y,z

loop_
_atom_site_label
_atom_site_type_symbol
_atom_site_fract_x
_atom_site_fract_y
_atom_site_fract_z
_atom_site_charge
Co	Co	0.14072 -0.00000 0.75000 1.13600
Co	Co	0.85928 0.00000 0.25000 1.13600
Co	Co	0.50000 0.50000 0.50000 1.11800
Co	Co	0.50000 0.50000 -0.00000 1.10000
H 	H 	0.86940 0.81210 0.62790 -0.00500
H 	H 	0.29210 0.40090 0.30120 0.06100
H 	H 	0.18810 0.30860 0.26720 0.05600
H 	H 	0.92480 0.63570 0.38230 0.14900
H 	H 	0.51590 0.90850 0.54420 -0.03100
H 	H 	0.74650 0.64920 0.44690 -0.03000
H 	H 	0.73390 0.17710 0.63190 -0.01800
H 	H 	0.56840 0.34240 0.16080 0.14100
H 	H 	0.81890 0.26760 0.35530 0.14900
H 	H 	0.40910 0.21810 0.30480 0.15000
H 	H 	0.53930 0.11860 0.57640 0.12700
H 	H 	0.63990 0.29500 0.41910 -0.03500
H 	H 	0.60600 0.09040 0.31180 -0.06100
H 	H 	0.76400 0.21470 0.17390 -0.04600
H 	H 	0.12360 0.57010 0.33070 0.06000
H 	H 	0.99910 0.60990 0.29020 0.06200
H 	H 	0.86940 0.18790 0.87210 0.09300
H 	H 	0.29210 0.59910 0.19880 0.06400
H 	H 	0.18810 0.69140 0.23280 0.06200
H 	H 	0.92480 0.36430 0.11770 0.14600
H 	H 	0.51590 0.09150 0.95580 0.08900
H 	H 	0.74650 0.35080 0.05310 -0.04700
H 	H 	0.73390 0.82290 0.86810 0.08200
H 	H 	0.56840 0.65760 0.33920 0.14400
H 	H 	0.81890 0.73240 0.14470 0.15500
H 	H 	0.40910 0.78190 0.19520 0.15400
H 	H 	0.53930 0.88140 0.92360 0.01100
H 	H 	0.63990 0.70500 0.08090 -0.03200
H 	H 	0.60600 0.90960 0.18820 -0.03900
H 	H 	0.76400 0.78530 0.32610 -0.03600
H 	H 	0.12360 0.42990 0.16930 0.06000
H 	H 	0.99910 0.39010 0.20980 0.06200
H 	H 	0.13060 0.18790 0.37210 0.09100
H 	H 	0.70790 0.59910 0.69880 0.06500
H 	H 	0.81190 0.69140 0.73280 0.06200
H 	H 	0.07520 0.36430 0.61770 0.14700
H 	H 	0.48410 0.09150 0.45580 0.07900
H 	H 	0.25350 0.35080 0.55310 -0.03700
H 	H 	0.26610 0.82290 0.36810 0.08000
H 	H 	0.43160 0.65760 0.83920 0.14600
H 	H 	0.18110 0.73240 0.64470 0.15500
H 	H 	0.59090 0.78190 0.69520 0.15400
H 	H 	0.46070 0.88140 0.42360 0.00500
H 	H 	0.36010 0.70500 0.58090 -0.02900
H 	H 	0.39400 0.90960 0.68820 -0.03900
H 	H 	0.23600 0.78530 0.82610 -0.03500
H 	H 	0.87640 0.42990 0.66930 0.06100
H 	H 	0.00090 0.39010 0.70980 0.06100
H 	H 	0.13060 0.81210 0.12790 -0.00600
H 	H 	0.70790 0.40090 0.80120 0.06200
H 	H 	0.81190 0.30860 0.76720 0.05700
H 	H 	0.07520 0.63570 0.88230 0.15200
H 	H 	0.48410 0.90850 0.04420 -0.04000
H 	H 	0.25350 0.64920 0.94690 -0.01800
H 	H 	0.26610 0.17710 0.13190 -0.02000
H 	H 	0.43160 0.34240 0.66080 0.14200
H 	H 	0.18110 0.26760 0.85530 0.15000
H 	H 	0.59090 0.21810 0.80480 0.14900
H 	H 	0.46070 0.11860 0.07640 0.12200
H 	H 	0.36010 0.29500 0.91910 -0.03200
H 	H 	0.39400 0.09040 0.81180 -0.06000
H 	H 	0.23600 0.21470 0.67390 -0.04500
H 	H 	0.87640 0.57010 0.83070 0.06100
H 	H 	0.00090 0.60990 0.79020 0.06200
C 	C 	0.80380 0.87410 0.61720 0.20100
C 	C 	0.24650 0.38550 0.26518 -0.00300
C 	C 	0.86620 0.56500 0.38829 -0.30400
C 	C 	0.59200 0.93130 0.56765 0.23500
C 	C 	0.82230 0.00120 0.63519 -0.25200
C 	C 	0.68850 0.83910 0.58340 -0.23100
C 	C 	0.94630 0.03900 0.67094 0.33500
C 	C 	0.88610 0.45100 0.35798 0.32100
C 	C 	0.46490 0.29410 0.23152 0.32500
C 	C 	0.75870 0.57160 0.42718 0.16500
C 	C 	0.66920 0.69980 0.56585 0.39600
C 	C 	0.72290 0.09200 0.61973 0.17500
C 	C 	0.57410 0.29200 0.19224 -0.30700
C 	C 	0.80330 0.34810 0.37210 -0.30200
C 	C 	0.47930 0.21820 0.27711 -0.32000
C 	C 	0.60680 0.05730 0.58626 -0.31400
C 	C 	0.69740 0.36540 0.41120 0.16800
C 	C 	0.59840 0.14300 0.28113 0.17500
C 	C 	0.69100 0.21450 0.20041 0.18000
C 	C 	0.06270 0.54030 0.30009 -0.00800
C 	C 	0.80380 0.12590 0.88280 -0.11100
C 	C 	0.24650 0.61450 0.23482 -0.00600
C 	C 	0.86620 0.43500 0.11171 -0.30900
C 	C 	0.59200 0.06870 0.93235 -0.14800
C 	C 	0.82230 0.99880 0.86481 0.02100
C 	C 	0.68850 0.16090 0.91660 -0.00000
C 	C 	0.94630 0.96100 0.82906 0.35700
C 	C 	0.88610 0.54900 0.14202 0.32200
C 	C 	0.46490 0.70590 0.26848 0.32500
C 	C 	0.75870 0.42840 0.07282 0.16500
C 	C 	0.66920 0.30020 0.93415 0.31000
C 	C 	0.72290 0.90800 0.88027 -0.09600
C 	C 	0.57410 0.70800 0.30776 -0.30200
C 	C 	0.80330 0.65190 0.12790 -0.30300
C 	C 	0.47930 0.78180 0.22289 -0.31100
C 	C 	0.60680 0.94270 0.91374 0.09600
C 	C 	0.69740 0.63460 0.08880 0.16700
C 	C 	0.59840 0.85700 0.21887 0.18100
C 	C 	0.69100 0.78550 0.29959 0.18700
C 	C 	0.06270 0.45970 0.19991 -0.00700
C 	C 	0.19620 0.12590 0.38280 -0.11100
C 	C 	0.75350 0.61450 0.73482 -0.00700
C 	C 	0.13380 0.43500 0.61171 -0.30600
C 	C 	0.40800 0.06870 0.43235 -0.14900
C 	C 	0.17770 0.99880 0.36481 0.01900
C 	C 	0.31150 0.16090 0.41660 -0.00700
C 	C 	0.05370 0.96100 0.32906 0.35700
C 	C 	0.11390 0.54900 0.64202 0.32300
C 	C 	0.53510 0.70590 0.76848 0.32500
C 	C 	0.24130 0.42840 0.57282 0.16700
C 	C 	0.33080 0.30020 0.43415 0.31200
C 	C 	0.27710 0.90800 0.38027 -0.09800
C 	C 	0.42590 0.70800 0.80776 -0.30200
C 	C 	0.19670 0.65190 0.62790 -0.30100
C 	C 	0.52070 0.78180 0.72289 -0.31100
C 	C 	0.39320 0.94270 0.41374 0.09200
C 	C 	0.30260 0.63460 0.58880 0.16900
C 	C 	0.40160 0.85700 0.71887 0.18000
C 	C 	0.30900 0.78550 0.79959 0.18700
C 	C 	0.93730 0.45970 0.69991 -0.00800
C 	C 	0.19620 0.87410 0.11720 0.20300
C 	C 	0.75350 0.38550 0.76518 -0.00400
C 	C 	0.13380 0.56500 0.88829 -0.30000
C 	C 	0.40800 0.93130 0.06765 0.23700
C 	C 	0.17770 0.00120 0.13519 -0.25500
C 	C 	0.31150 0.83910 0.08340 -0.23900
C 	C 	0.05370 0.03900 0.17094 0.33400
C 	C 	0.11390 0.45100 0.85798 0.32100
C 	C 	0.53510 0.29410 0.73152 0.32500
C 	C 	0.24130 0.57160 0.92718 0.16700
C 	C 	0.33080 0.69980 0.06585 0.39700
C 	C 	0.27710 0.09200 0.11973 0.17500
C 	C 	0.42590 0.29200 0.69224 -0.30600
C 	C 	0.19670 0.34810 0.87210 -0.29900
C 	C 	0.52070 0.21820 0.77711 -0.32000
C 	C 	0.39320 0.05730 0.08626 -0.32100
C 	C 	0.30260 0.36540 0.91120 0.17100
C 	C 	0.40160 0.14300 0.78113 0.17400
C 	C 	0.30900 0.21450 0.70041 0.18000
C 	C 	0.93730 0.54030 0.80009 -0.00800
C 	C 	0.15420 0.50000 0.25000 0.04300
C 	C 	0.84580 0.50000 0.75000 0.04400
N 	N 	0.70590 0.14000 0.24343 -0.29900
N 	N 	0.67030 0.47580 0.43907 -0.27800
N 	N 	0.70590 0.86000 0.25657 -0.28200
N 	N 	0.67030 0.52420 0.06093 -0.28300
N 	N 	0.29410 0.86000 0.75657 -0.28200
N 	N 	0.32970 0.52420 0.56093 -0.27800
N 	N 	0.29410 0.14000 0.74343 -0.29900
N 	N 	0.32970 0.47580 0.93907 -0.26800
O 	O 	0.73580 0.61830 0.59217 -0.30900
O 	O 	0.58080 0.67590 0.52710 -0.44900
O 	O 	0.03670 0.95230 0.68210 -0.40400
O 	O 	0.95820 0.14890 0.68996 -0.33100
O 	O 	0.98100 0.43210 0.31657 -0.25200
O 	O 	0.35320 0.37030 0.22187 -0.25500
O 	O 	0.73580 0.38170 0.90783 -0.28000
O 	O 	0.58080 0.32410 0.97290 -0.41200
O 	O 	0.03670 0.04770 0.81790 -0.47700
O 	O 	0.95820 0.85110 0.81004 -0.32200
O 	O 	0.98100 0.56790 0.18343 -0.25000
O 	O 	0.35320 0.62970 0.27813 -0.25400
O 	O 	0.26420 0.38170 0.40783 -0.28800
O 	O 	0.41920 0.32410 0.47290 -0.43400
O 	O 	0.96330 0.04770 0.31790 -0.47900
O 	O 	0.04180 0.85110 0.31004 -0.32300
O 	O 	0.01900 0.56790 0.68343 -0.25000
O 	O 	0.64680 0.62970 0.77813 -0.25300
O 	O 	0.26420 0.61830 0.09217 -0.31500
O 	O 	0.41920 0.67590 0.02710 -0.46400
O 	O 	0.96330 0.95230 0.18210 -0.40500
O 	O 	0.04180 0.14890 0.18996 -0.33200
O 	O 	0.01900 0.43210 0.81657 -0.25100
O 	O 	0.64680 0.37030 0.72187 -0.25400
