data_crystal

_cell_length_a 9.00560
_cell_length_b 10.72630
_cell_length_c 12.98990
_cell_angle_alpha 104.04700
_cell_angle_beta  90.00000
_cell_angle_gamma 90.00000

_symmetry_space_group_name_	'P 1'
_symmetry_space_group_name_H-M	'P 1'

loop_
_symmetry_equiv_pos_as_xyz
  x,y,z

loop_
_atom_site_label
_atom_site_type_symbol
_atom_site_fract_x
_atom_site_fract_y
_atom_site_fract_z
_atom_site_charge
Zn	Zn	0.61926 0.50000 1.00000 1.19000
Zn	Zn	0.93446 0.00000 0.50000 1.16300
H 	H 	0.77580 0.17950 0.38680 -0.05100
H 	H 	0.60280 0.17000 0.25630 0.17300
H 	H 	0.61950 0.78750 0.20130 0.18200
H 	H 	0.77450 0.81010 0.34070 -0.07100
H 	H 	0.51170 0.11530 0.07730 0.07700
H 	H 	0.37730 0.10810 0.15340 0.06200
H 	H 	0.30260 0.82160 0.02970 0.04600
H 	H 	0.20030 0.92910 0.09830 0.05300
H 	H 	0.90030 0.80880 0.84390 0.16700
H 	H 	0.70770 0.68080 0.86600 -0.05300
H 	H 	0.88790 0.61900 0.11830 -0.04100
H 	H 	0.08900 0.74240 0.10210 0.11700
H 	H 	0.31150 0.29570 0.75570 0.04600
H 	H 	0.99240 0.40700 0.58310 -0.04500
H 	H 	0.23770 0.66760 0.78260 0.08800
H 	H 	0.77580 0.82050 0.61320 -0.06200
H 	H 	0.60280 0.83000 0.74370 0.13100
H 	H 	0.61950 0.21250 0.79870 0.14400
H 	H 	0.77450 0.18990 0.65930 -0.05800
H 	H 	0.51170 0.88470 0.92270 0.02700
H 	H 	0.37730 0.89190 0.84660 0.03900
H 	H 	0.30260 0.17840 0.97030 0.06500
H 	H 	0.20030 0.07090 0.90170 0.06700
H 	H 	0.90030 0.19120 0.15610 0.19100
H 	H 	0.70770 0.31920 0.13400 -0.06800
H 	H 	0.88790 0.38100 0.88170 -0.02900
H 	H 	0.08900 0.25760 0.89790 0.14900
H 	H 	0.31150 0.70430 0.24430 0.05800
H 	H 	0.99240 0.59300 0.41690 -0.03600
H 	H 	0.23770 0.33240 0.21740 0.09600
C 	C 	0.74220 0.09930 0.34940 0.15200
C 	C 	0.64080 0.09490 0.26980 -0.40900
C 	C 	0.59630 0.97470 0.20960 0.42800
C 	C 	0.64870 0.86920 0.23840 -0.37000
C 	C 	0.74320 0.88360 0.32090 0.22200
C 	C 	0.43760 0.05890 0.09580 -0.05400
C 	C 	0.24330 0.89680 0.02850 0.12800
C 	C 	0.01830 0.78840 0.96970 0.34500
C 	C 	0.90110 0.76960 0.90040 -0.42000
C 	C 	0.78570 0.69320 0.91430 0.20000
C 	C 	0.89140 0.65690 0.06110 0.11600
C 	C 	0.01250 0.73130 0.05250 -0.13900
C 	C 	0.42170 0.52350 0.85670 0.33000
C 	C 	0.29570 0.48760 0.77980 -0.06100
C 	C 	0.25910 0.36100 0.73610 0.02200
C 	C 	0.14540 0.33080 0.66370 -0.10900
C 	C 	0.06830 0.42750 0.63290 0.09500
C 	C 	0.21590 0.58220 0.75090 -0.08800
C 	C 	0.10410 0.19140 0.61680 0.37600
C 	C 	0.10470 0.55490 0.67650 0.12300
C 	C 	0.74220 0.90070 0.65060 0.22600
C 	C 	0.64080 0.90510 0.73020 -0.24700
C 	C 	0.59630 0.02530 0.79040 0.25500
C 	C 	0.64870 0.13080 0.76160 -0.30200
C 	C 	0.74320 0.11640 0.67910 0.15300
C 	C 	0.43760 0.94110 0.90420 0.08500
C 	C 	0.24330 0.10320 0.97150 -0.09100
C 	C 	0.01830 0.21160 0.03030 0.49900
C 	C 	0.90110 0.23040 0.09960 -0.48800
C 	C 	0.78570 0.30680 0.08570 0.25800
C 	C 	0.89140 0.34310 0.93890 0.02200
C 	C 	0.01250 0.26870 0.94750 -0.29300
C 	C 	0.42170 0.47650 0.14330 0.32600
C 	C 	0.29570 0.51240 0.22020 -0.04600
C 	C 	0.25910 0.63900 0.26390 0.01400
C 	C 	0.14540 0.66920 0.33630 -0.09100
C 	C 	0.06830 0.57250 0.36710 0.08400
C 	C 	0.21590 0.41780 0.24910 -0.08400
C 	C 	0.10410 0.80860 0.38320 0.36300
C 	C 	0.10470 0.44510 0.32350 0.12200
C 	C 	0.34100 0.00000 -0.00000 0.02400
N 	N 	0.79480 0.99760 0.37620 -0.28300
N 	N 	0.77950 0.63560 0.99380 -0.33400
N 	N 	0.79480 0.00240 0.62380 -0.35800
N 	N 	0.77950 0.36440 0.00620 -0.25900
O 	O 	0.44400 0.63510 0.90130 -0.34700
O 	O 	0.50350 0.43320 0.87200 -0.47100
O 	O 	0.01390 0.17210 0.54020 -0.42600
O 	O 	0.15350 0.10910 0.65460 -0.33200
O 	O 	0.12890 0.86330 0.95130 -0.28300
O 	O 	0.50620 0.95450 0.12580 -0.22800
O 	O 	0.02940 0.65000 0.64730 -0.21500
O 	O 	0.44400 0.36490 0.09870 -0.31100
O 	O 	0.50350 0.56680 0.12800 -0.43600
O 	O 	0.01390 0.82790 0.45980 -0.39600
O 	O 	0.15350 0.89090 0.34540 -0.28400
O 	O 	0.12890 0.13670 0.04870 -0.23900
O 	O 	0.50620 0.04550 0.87420 -0.30600
O 	O 	0.02940 0.35000 0.35270 -0.17400
H 	H 	0.04992 0.74251 0.70593 0.13600
H 	H 	0.96771 0.39052 0.42730 0.05300
