data_crystal

_cell_length_a 16.19360
_cell_length_b 16.19360
_cell_length_c 29.88400
_cell_angle_alpha 90.00000
_cell_angle_beta  90.00000
_cell_angle_gamma 90.00000

_symmetry_space_group_name_	'P 1'
_symmetry_space_group_name_H-M	'P 1'

loop_
_symmetry_equiv_pos_as_xyz
  x,y,z

loop_
_atom_site_label
_atom_site_type_symbol
_atom_site_fract_x
_atom_site_fract_y
_atom_site_fract_z
_atom_site_charge
C 	C 	0.25790 0.26300 0.04035 -0.02200
C 	C 	0.25700 0.17660 0.04037 -0.03600
C 	C 	0.27490 0.31650 0.08104 0.33900
C 	C 	0.25849 0.12604 0.08238 0.34200
O 	O 	0.22018 0.37120 0.08873 -0.40900
O 	O 	0.33923 0.30651 0.10205 -0.22500
O 	O 	0.27539 0.05000 0.07609 -0.42800
O 	O 	0.24344 0.15697 0.11884 -0.25500
C 	C 	0.75790 0.76300 0.54035 -0.02300
C 	C 	0.75700 0.67660 0.54037 -0.03800
C 	C 	0.77490 0.81650 0.58104 0.33800
C 	C 	0.75849 0.62604 0.58238 0.34300
O 	O 	0.72018 0.87120 0.58873 -0.40700
O 	O 	0.83923 0.80651 0.60205 -0.22300
O 	O 	0.77539 0.55000 0.57609 -0.42500
O 	O 	0.74344 0.65697 0.61884 -0.25400
C 	C 	0.24210 0.73700 0.54035 -0.02500
C 	C 	0.24300 0.82340 0.54037 -0.03600
C 	C 	0.22510 0.68350 0.58104 0.33900
C 	C 	0.24151 0.87396 0.58238 0.34200
O 	O 	0.27982 0.62880 0.58873 -0.40800
O 	O 	0.16077 0.69349 0.60205 -0.22400
O 	O 	0.22461 0.95000 0.57609 -0.42100
O 	O 	0.25656 0.84303 0.61884 -0.25300
C 	C 	0.74210 0.23700 0.04035 -0.02400
C 	C 	0.74300 0.32340 0.04037 -0.03500
C 	C 	0.72510 0.18350 0.08104 0.33800
C 	C 	0.74151 0.37396 0.08238 0.34100
O 	O 	0.77982 0.12880 0.08873 -0.41000
O 	O 	0.66077 0.19349 0.10205 -0.22500
O 	O 	0.72461 0.45000 0.07609 -0.42500
O 	O 	0.75656 0.34303 0.11884 -0.25400
C 	C 	0.98700 0.00790 0.29035 -0.02400
C 	C 	0.07340 0.00700 0.29037 -0.03400
C 	C 	0.93350 0.02490 0.33104 0.33100
C 	C 	0.12396 0.00849 0.33238 0.33300
O 	O 	0.87880 0.97018 0.33873 -0.40100
O 	O 	0.94349 0.08923 0.35205 -0.22400
O 	O 	0.20000 0.02539 0.32609 -0.42400
O 	O 	0.09303 0.99344 0.36884 -0.24600
C 	C 	0.48700 0.50790 0.79035 -0.02400
C 	C 	0.57340 0.50700 0.79037 -0.03700
C 	C 	0.43350 0.52490 0.83104 0.33800
C 	C 	0.62396 0.50849 0.83238 0.34200
O 	O 	0.37880 0.47018 0.83873 -0.40800
O 	O 	0.44349 0.58923 0.85205 -0.22400
O 	O 	0.70000 0.52539 0.82609 -0.42500
O 	O 	0.59303 0.49344 0.86884 -0.25300
C 	C 	0.51300 0.99210 0.79035 -0.01900
C 	C 	0.42660 0.99300 0.79037 -0.03200
C 	C 	0.56650 0.97510 0.83104 0.34500
C 	C 	0.37604 0.99151 0.83238 0.34900
O 	O 	0.62120 0.02982 0.83873 -0.41300
O 	O 	0.55651 0.91077 0.85205 -0.22400
O 	O 	0.30000 0.97461 0.82609 -0.42400
O 	O 	0.40697 0.00656 0.86884 -0.26100
C 	C 	0.01300 0.49210 0.29035 -0.02500
C 	C 	0.92660 0.49300 0.29037 -0.03700
C 	C 	0.06650 0.47510 0.33104 0.33800
C 	C 	0.87604 0.49151 0.33238 0.34200
O 	O 	0.12120 0.52982 0.33873 -0.40800
O 	O 	0.05651 0.41077 0.35205 -0.22500
O 	O 	0.80000 0.47461 0.32609 -0.42500
O 	O 	0.90697 0.50656 0.36884 -0.25400
C 	C 	0.24210 0.26300 0.95965 -0.01800
C 	C 	0.24300 0.17660 0.95963 -0.03200
C 	C 	0.22510 0.31650 0.91896 0.33700
C 	C 	0.24151 0.12604 0.91762 0.34200
O 	O 	0.27982 0.37120 0.91127 -0.40700
O 	O 	0.16077 0.30651 0.89795 -0.22400
O 	O 	0.22461 0.05000 0.92391 -0.42600
O 	O 	0.25656 0.15697 0.88116 -0.25500
C 	C 	0.74210 0.76300 0.45965 -0.02300
C 	C 	0.74300 0.67660 0.45963 -0.03800
C 	C 	0.72510 0.81650 0.41896 0.33800
C 	C 	0.74151 0.62604 0.41762 0.34300
O 	O 	0.77982 0.87120 0.41127 -0.40700
O 	O 	0.66077 0.80651 0.39795 -0.22300
O 	O 	0.72461 0.55000 0.42391 -0.42500
O 	O 	0.75656 0.65697 0.38116 -0.25400
C 	C 	0.25790 0.73700 0.45965 -0.02500
C 	C 	0.25700 0.82340 0.45963 -0.03600
C 	C 	0.27490 0.68350 0.41896 0.33900
C 	C 	0.25849 0.87396 0.41762 0.34200
O 	O 	0.22018 0.62880 0.41127 -0.40800
O 	O 	0.33923 0.69349 0.39795 -0.22400
O 	O 	0.27539 0.95000 0.42391 -0.42100
O 	O 	0.24344 0.84303 0.38116 -0.25300
C 	C 	0.75790 0.23700 0.95965 -0.01900
C 	C 	0.75700 0.32340 0.95963 -0.03000
C 	C 	0.77490 0.18350 0.91896 0.33800
C 	C 	0.75849 0.37396 0.91762 0.34100
O 	O 	0.72018 0.12880 0.91127 -0.40800
O 	O 	0.83923 0.19349 0.89795 -0.22400
O 	O 	0.77539 0.45000 0.92391 -0.42300
O 	O 	0.74344 0.34303 0.88116 -0.25400
C 	C 	0.51300 0.00790 0.70965 -0.02300
C 	C 	0.42660 0.00700 0.70963 -0.03400
C 	C 	0.56650 0.02490 0.66896 0.33100
C 	C 	0.37604 0.00849 0.66762 0.33300
O 	O 	0.62120 0.97018 0.66127 -0.40100
O 	O 	0.55651 0.08923 0.64795 -0.22400
O 	O 	0.30000 0.02539 0.67391 -0.42400
O 	O 	0.40697 0.99344 0.63116 -0.24600
C 	C 	0.01300 0.50790 0.20965 -0.02500
C 	C 	0.92660 0.50700 0.20963 -0.03700
C 	C 	0.06650 0.52490 0.16896 0.33800
C 	C 	0.87604 0.50849 0.16762 0.34300
O 	O 	0.12120 0.47018 0.16127 -0.40900
O 	O 	0.05651 0.58923 0.14795 -0.22500
O 	O 	0.80000 0.52539 0.17391 -0.42500
O 	O 	0.90697 0.49344 0.13116 -0.25500
C 	C 	0.98700 0.99210 0.20965 -0.01900
C 	C 	0.07340 0.99300 0.20963 -0.03200
C 	C 	0.93350 0.97510 0.16896 0.34500
C 	C 	0.12396 0.99151 0.16762 0.34900
O 	O 	0.87880 0.02982 0.16127 -0.41400
O 	O 	0.94349 0.91077 0.14795 -0.22500
O 	O 	0.20000 0.97461 0.17391 -0.42400
O 	O 	0.09303 0.00656 0.13116 -0.26200
C 	C 	0.48700 0.49210 0.70965 -0.02400
C 	C 	0.57340 0.49300 0.70963 -0.03700
C 	C 	0.43350 0.47510 0.66896 0.33800
C 	C 	0.62396 0.49151 0.66762 0.34300
O 	O 	0.37880 0.52982 0.66127 -0.40800
O 	O 	0.44349 0.41077 0.64795 -0.22400
O 	O 	0.70000 0.47461 0.67391 -0.42500
O 	O 	0.59303 0.50656 0.63116 -0.25400
C 	C 	0.74210 0.73700 0.95965 -0.01900
C 	C 	0.74300 0.82340 0.95963 -0.02900
C 	C 	0.72510 0.68350 0.91896 0.33800
C 	C 	0.74151 0.87396 0.91762 0.34000
O 	O 	0.77982 0.62880 0.91127 -0.40700
O 	O 	0.66077 0.69349 0.89795 -0.22300
O 	O 	0.72461 0.95000 0.92391 -0.41900
O 	O 	0.75656 0.84303 0.88116 -0.25200
C 	C 	0.24210 0.23700 0.45965 -0.02500
C 	C 	0.24300 0.32340 0.45963 -0.03700
C 	C 	0.22510 0.18350 0.41896 0.33900
C 	C 	0.24151 0.37396 0.41762 0.34200
O 	O 	0.27982 0.12880 0.41127 -0.40900
O 	O 	0.16077 0.19349 0.39795 -0.22500
O 	O 	0.22461 0.45000 0.42391 -0.42500
O 	O 	0.25656 0.34303 0.38116 -0.25400
C 	C 	0.75790 0.26300 0.45965 -0.02400
C 	C 	0.75700 0.17660 0.45963 -0.03800
C 	C 	0.77490 0.31650 0.41896 0.33800
C 	C 	0.75849 0.12604 0.41762 0.34300
O 	O 	0.72018 0.37120 0.41127 -0.40800
O 	O 	0.83923 0.30651 0.39795 -0.22500
O 	O 	0.77539 0.05000 0.42391 -0.42800
O 	O 	0.74344 0.15697 0.38116 -0.25500
C 	C 	0.25790 0.76300 0.95965 -0.01800
C 	C 	0.25700 0.67660 0.95963 -0.03100
C 	C 	0.27490 0.81650 0.91896 0.33700
C 	C 	0.25849 0.62604 0.91762 0.34100
O 	O 	0.22018 0.87120 0.91127 -0.40500
O 	O 	0.33923 0.80651 0.89795 -0.22200
O 	O 	0.27539 0.55000 0.92391 -0.42300
O 	O 	0.24344 0.65697 0.88116 -0.25300
C 	C 	0.01300 0.99210 0.70965 -0.01900
C 	C 	0.92660 0.99300 0.70963 -0.03200
C 	C 	0.06650 0.97510 0.66896 0.34500
C 	C 	0.87604 0.99151 0.66762 0.34900
O 	O 	0.12120 0.02982 0.66127 -0.41400
O 	O 	0.05651 0.91077 0.64795 -0.22500
O 	O 	0.80000 0.97461 0.67391 -0.42400
O 	O 	0.90697 0.00656 0.63116 -0.26200
C 	C 	0.51300 0.49210 0.20965 -0.02400
C 	C 	0.42660 0.49300 0.20963 -0.03700
C 	C 	0.56650 0.47510 0.16896 0.33800
C 	C 	0.37604 0.49151 0.16762 0.34300
O 	O 	0.62120 0.52982 0.16127 -0.40800
O 	O 	0.55651 0.41077 0.14795 -0.22500
O 	O 	0.30000 0.47461 0.17391 -0.42500
O 	O 	0.40697 0.50656 0.13116 -0.25500
C 	C 	0.48700 0.00790 0.20965 -0.02300
C 	C 	0.57340 0.00700 0.20963 -0.03400
C 	C 	0.43350 0.02490 0.16896 0.33100
C 	C 	0.62396 0.00849 0.16762 0.33400
O 	O 	0.37880 0.97018 0.16127 -0.40100
O 	O 	0.44349 0.08923 0.14795 -0.22400
O 	O 	0.70000 0.02539 0.17391 -0.42400
O 	O 	0.59303 0.99344 0.13116 -0.24600
C 	C 	0.98700 0.50790 0.70965 -0.02500
C 	C 	0.07340 0.50700 0.70963 -0.03700
C 	C 	0.93350 0.52490 0.66896 0.33800
C 	C 	0.12396 0.50849 0.66762 0.34200
O 	O 	0.87880 0.47018 0.66127 -0.40800
O 	O 	0.94349 0.58923 0.64795 -0.22400
O 	O 	0.20000 0.52539 0.67391 -0.42500
O 	O 	0.09303 0.49344 0.63116 -0.25400
C 	C 	0.75790 0.73700 0.04035 -0.02400
C 	C 	0.75700 0.82340 0.04037 -0.03400
C 	C 	0.77490 0.68350 0.08104 0.33800
C 	C 	0.75849 0.87396 0.08238 0.34100
O 	O 	0.72018 0.62880 0.08873 -0.40800
O 	O 	0.83923 0.69349 0.10205 -0.22400
O 	O 	0.77539 0.95000 0.07609 -0.42200
O 	O 	0.74344 0.84303 0.11884 -0.25300
C 	C 	0.25790 0.23700 0.54035 -0.02500
C 	C 	0.25700 0.32340 0.54037 -0.03700
C 	C 	0.27490 0.18350 0.58104 0.33900
C 	C 	0.25849 0.37396 0.58238 0.34200
O 	O 	0.22018 0.12880 0.58873 -0.41000
O 	O 	0.33923 0.19349 0.60205 -0.22500
O 	O 	0.27539 0.45000 0.57609 -0.42500
O 	O 	0.24344 0.34303 0.61884 -0.25400
C 	C 	0.74210 0.26300 0.54035 -0.02400
C 	C 	0.74300 0.17660 0.54037 -0.03800
C 	C 	0.72510 0.31650 0.58104 0.33800
C 	C 	0.74151 0.12604 0.58238 0.34300
O 	O 	0.77982 0.37120 0.58873 -0.40800
O 	O 	0.66077 0.30651 0.60205 -0.22400
O 	O 	0.72461 0.05000 0.57609 -0.42800
O 	O 	0.75656 0.15697 0.61884 -0.25500
C 	C 	0.24210 0.76300 0.04035 -0.02300
C 	C 	0.24300 0.67660 0.04037 -0.03600
C 	C 	0.22510 0.81650 0.08104 0.33800
C 	C 	0.24151 0.62604 0.08238 0.34200
O 	O 	0.27982 0.87120 0.08873 -0.40700
O 	O 	0.16077 0.80651 0.10205 -0.22400
O 	O 	0.22461 0.55000 0.07609 -0.42500
O 	O 	0.25656 0.65697 0.11884 -0.25400
C 	C 	0.48700 0.99210 0.29035 -0.01900
C 	C 	0.57340 0.99300 0.29037 -0.03200
C 	C 	0.43350 0.97510 0.33104 0.34500
C 	C 	0.62396 0.99151 0.33238 0.34900
O 	O 	0.37880 0.02982 0.33873 -0.41400
O 	O 	0.44349 0.91077 0.35205 -0.22400
O 	O 	0.70000 0.97461 0.32609 -0.42400
O 	O 	0.59303 0.00656 0.36884 -0.26100
C 	C 	0.98700 0.49210 0.79035 -0.02500
C 	C 	0.07340 0.49300 0.79037 -0.03700
C 	C 	0.93350 0.47510 0.83104 0.33800
C 	C 	0.12396 0.49151 0.83238 0.34200
O 	O 	0.87880 0.52982 0.83873 -0.40800
O 	O 	0.94349 0.41077 0.85205 -0.22400
O 	O 	0.20000 0.47461 0.82609 -0.42500
O 	O 	0.09303 0.50656 0.86884 -0.25300
C 	C 	0.01300 0.00790 0.79035 -0.02400
C 	C 	0.92660 0.00700 0.79037 -0.03400
C 	C 	0.06650 0.02490 0.83104 0.33100
C 	C 	0.87604 0.00849 0.83238 0.33300
O 	O 	0.12120 0.97018 0.83873 -0.40100
O 	O 	0.05651 0.08923 0.85205 -0.22300
O 	O 	0.80000 0.02539 0.82609 -0.42400
O 	O 	0.90697 0.99344 0.86884 -0.24500
C 	C 	0.51300 0.50790 0.29035 -0.02400
C 	C 	0.42660 0.50700 0.29037 -0.03700
C 	C 	0.56650 0.52490 0.33104 0.33800
C 	C 	0.37604 0.50849 0.33238 0.34300
O 	O 	0.62120 0.47018 0.33873 -0.40800
O 	O 	0.55651 0.58923 0.35205 -0.22400
O 	O 	0.30000 0.52539 0.32609 -0.42500
O 	O 	0.40697 0.49344 0.36884 -0.25400
C 	C 	0.25000 0.30490 -0.00000 -0.01800
H 	H 	0.25000 0.36230 -0.00000 0.06600
C 	C 	0.25000 0.13750 -0.00000 -0.00500
H 	H 	0.25000 0.08010 -0.00000 0.07700
C 	C 	0.75000 0.80490 0.50000 -0.01000
H 	H 	0.75000 0.86230 0.50000 0.06600
C 	C 	0.75000 0.63750 0.50000 0.00400
H 	H 	0.75000 0.58010 0.50000 0.07600
C 	C 	0.25000 0.69510 0.50000 -0.00900
H 	H 	0.25000 0.63770 0.50000 0.06400
C 	C 	0.25000 0.86250 0.50000 0.00200
H 	H 	0.25000 0.91990 0.50000 0.07800
C 	C 	0.75000 0.19510 -0.00000 -0.01700
H 	H 	0.75000 0.13770 -0.00000 0.06400
C 	C 	0.75000 0.36250 -0.00000 -0.00700
H 	H 	0.75000 0.41990 -0.00000 0.07800
C 	C 	0.94510 0.00000 0.25000 -0.01700
H 	H 	0.88770 0.00000 0.25000 0.06500
C 	C 	0.11250 0.00000 0.25000 -0.00600
H 	H 	0.16990 0.00000 0.25000 0.07800
C 	C 	0.44510 0.50000 0.75000 -0.01000
H 	H 	0.38770 0.50000 0.75000 0.06500
C 	C 	0.61250 0.50000 0.75000 0.00300
H 	H 	0.66990 0.50000 0.75000 0.07700
C 	C 	0.55490 0.00000 0.75000 -0.01800
H 	H 	0.61230 0.00000 0.75000 0.06600
C 	C 	0.38750 0.00000 0.75000 -0.00600
H 	H 	0.33010 0.00000 0.75000 0.07800
C 	C 	0.05490 0.50000 0.25000 -0.00900
H 	H 	0.11230 0.50000 0.25000 0.06400
C 	C 	0.88750 0.50000 0.25000 0.00300
H 	H 	0.83010 0.50000 0.25000 0.07700
C 	C 	0.75000 0.69510 -0.00000 -0.01700
H 	H 	0.75000 0.63770 -0.00000 0.06500
C 	C 	0.75000 0.86250 -0.00000 -0.00700
H 	H 	0.75000 0.91990 -0.00000 0.07900
C 	C 	0.25000 0.19510 0.50000 -0.00900
H 	H 	0.25000 0.13770 0.50000 0.06300
C 	C 	0.25000 0.36250 0.50000 0.00300
H 	H 	0.25000 0.41990 0.50000 0.07700
C 	C 	0.75000 0.30490 0.50000 -0.01000
H 	H 	0.75000 0.36230 0.50000 0.06500
C 	C 	0.75000 0.13750 0.50000 0.00400
H 	H 	0.75000 0.08010 0.50000 0.07500
C 	C 	0.25000 0.80490 -0.00000 -0.01800
H 	H 	0.25000 0.86230 -0.00000 0.06700
C 	C 	0.25000 0.63750 -0.00000 -0.00600
H 	H 	0.25000 0.58010 -0.00000 0.07800
C 	C 	0.05490 0.00000 0.75000 -0.01700
H 	H 	0.11230 0.00000 0.75000 0.06500
C 	C 	0.88750 0.00000 0.75000 -0.00600
H 	H 	0.83010 0.00000 0.75000 0.07800
C 	C 	0.55490 0.50000 0.25000 -0.01000
H 	H 	0.61230 0.50000 0.25000 0.06500
C 	C 	0.38750 0.50000 0.25000 0.00300
H 	H 	0.33010 0.50000 0.25000 0.07700
C 	C 	0.44510 0.00000 0.25000 -0.01800
H 	H 	0.38770 0.00000 0.25000 0.06600
C 	C 	0.61250 0.00000 0.25000 -0.00600
H 	H 	0.66990 0.00000 0.25000 0.07800
C 	C 	0.94510 0.50000 0.75000 -0.00900
H 	H 	0.88770 0.50000 0.75000 0.06400
C 	C 	0.11250 0.50000 0.75000 0.00300
H 	H 	0.16990 0.50000 0.75000 0.07700
Zn	Zn	0.22251 0.47251 0.12500 1.24800
Zn	Zn	0.72251 0.97251 0.62500 1.25000
Zn	Zn	0.27749 0.52749 0.62500 1.24900
Zn	Zn	0.77749 0.97251 0.37500 1.25000
Zn	Zn	0.72251 0.02749 0.87500 1.24700
Zn	Zn	0.27749 0.47251 0.87500 1.24900
Zn	Zn	0.22251 0.52749 0.37500 1.24900
Zn	Zn	0.77749 0.02749 0.12500 1.24700
Zn	Zn	0.77749 0.52749 0.87500 1.24900
Zn	Zn	0.27749 0.02749 0.37500 1.24700
Zn	Zn	0.72251 0.47251 0.37500 1.24900
Zn	Zn	0.22251 0.97251 0.87500 1.25000
Zn	Zn	0.22251 0.02749 0.62500 1.24700
Zn	Zn	0.27749 0.97251 0.12500 1.25000
Zn	Zn	0.72251 0.52749 0.12500 1.24800
Zn	Zn	0.77749 0.47251 0.62500 1.24900
