data_crystal

_cell_length_a 12.79800
_cell_length_b 20.61300
_cell_length_c 18.89010
_cell_angle_alpha 104.45000
_cell_angle_beta  90.00000
_cell_angle_gamma 90.00000

_symmetry_space_group_name_	'P 1'
_symmetry_space_group_name_H-M	'P 1'

loop_
_symmetry_equiv_pos_as_xyz
  x,y,z

loop_
_atom_site_label
_atom_site_type_symbol
_atom_site_fract_x
_atom_site_fract_y
_atom_site_fract_z
_atom_site_charge
Cd	Cd	0.50343 0.70096 0.07787 1.21400
Cd	Cd	0.99657 0.70096 0.57787 1.21400
H 	H 	0.06330 0.34520 0.24520 0.02500
H 	H 	0.15110 0.44120 0.30050 0.11200
H 	H 	0.10320 0.51210 0.12460 0.09400
H 	H 	0.02260 0.41470 0.06710 0.03700
H 	H 	0.90020 0.02960 0.07460 0.03300
H 	H 	0.86410 0.91820 0.02180 0.09200
H 	H 	0.77840 0.96830 0.84140 0.08900
H 	H 	0.82670 0.07790 0.89270 0.05300
H 	H 	0.33550 0.72400 0.20770 -0.02100
H 	H 	0.22420 0.67510 0.27350 0.12800
H 	H 	0.31600 0.49960 0.15050 0.13100
H 	H 	0.42380 0.55270 0.08980 -0.01200
H 	H 	0.21510 0.66900 0.48190 -0.01400
H 	H 	0.28320 0.61840 0.37100 0.12700
H 	H 	0.99670 0.55220 0.30960 0.12300
H 	H 	0.94160 0.59860 0.42470 -0.01900
H 	H 	0.03710 0.82760 0.72220 -0.00300
H 	H 	0.96760 0.88400 0.83070 0.11500
H 	H 	0.71460 0.76960 0.78540 0.11600
H 	H 	0.78870 0.71950 0.67710 -0.01100
H 	H 	0.55050 0.84430 0.05060 -0.00900
H 	H 	0.63880 0.90330 0.98300 0.11700
H 	H 	0.80360 0.73670 0.89710 0.11700
H 	H 	0.70520 0.68480 0.96710 -0.00900
H 	H 	0.43670 0.34520 0.74520 0.02500
H 	H 	0.34890 0.44120 0.80050 0.11200
H 	H 	0.39680 0.51210 0.62460 0.09400
H 	H 	0.47740 0.41470 0.56710 0.03700
H 	H 	0.59980 0.02960 0.57460 0.03400
H 	H 	0.63590 0.91820 0.52180 0.09200
H 	H 	0.72160 0.96830 0.34140 0.08900
H 	H 	0.67330 0.07790 0.39270 0.05400
H 	H 	0.16450 0.72400 0.70770 -0.02100
H 	H 	0.27580 0.67510 0.77350 0.12800
H 	H 	0.18400 0.49960 0.65050 0.13100
H 	H 	0.07620 0.55270 0.58980 -0.01200
H 	H 	0.28490 0.66900 0.98190 -0.01400
H 	H 	0.21680 0.61840 0.87100 0.12700
H 	H 	0.50330 0.55220 0.80960 0.12300
H 	H 	0.55840 0.59860 0.92470 -0.01900
H 	H 	0.46290 0.82760 0.22220 -0.00400
H 	H 	0.53240 0.88400 0.33070 0.11600
H 	H 	0.78540 0.76960 0.28540 0.11600
H 	H 	0.71130 0.71950 0.17710 -0.01100
H 	H 	0.94950 0.84430 0.55060 -0.01000
H 	H 	0.86120 0.90330 0.48300 0.11700
H 	H 	0.69640 0.73670 0.39710 0.11800
H 	H 	0.79480 0.68480 0.46710 -0.00900
C 	C 	0.98580 0.30670 0.11480 -0.01100
C 	C 	0.95200 0.25400 0.08790 -0.00500
C 	C 	0.91720 0.18910 0.05560 -0.00200
C 	C 	0.89120 0.13350 0.02580 -0.00100
C 	C 	0.03410 0.36870 0.15010 -0.02200
C 	C 	0.07250 0.37850 0.22030 0.01800
C 	C 	0.12380 0.43600 0.25380 -0.15700
C 	C 	0.13500 0.48710 0.21760 0.14300
C 	C 	0.09620 0.47810 0.14860 -0.15000
C 	C 	0.04740 0.42020 0.11450 0.01200
C 	C 	0.86300 0.06570 0.99240 -0.00700
C 	C 	0.87570 0.01770 0.02680 0.00700
C 	C 	0.85450 0.95010 0.99530 -0.15500
C 	C 	0.82070 0.93250 0.92710 0.14600
C 	C 	0.80560 0.98040 0.88850 -0.14100
C 	C 	0.83100 0.04630 0.92020 0.00100
C 	C 	0.33190 0.67750 0.19590 0.15000
C 	C 	0.26380 0.64890 0.23580 -0.25500
C 	C 	0.25630 0.58100 0.21810 0.22500
C 	C 	0.31840 0.54620 0.16330 -0.25800
C 	C 	0.38310 0.57820 0.12740 0.15300
C 	C 	0.17050 0.64420 0.44640 0.15400
C 	C 	0.21220 0.61480 0.37980 -0.25000
C 	C 	0.14750 0.58020 0.32640 0.21600
C 	C 	0.04370 0.57520 0.34440 -0.24300
C 	C 	0.01110 0.60420 0.41300 0.14800
C 	C 	0.97090 0.81570 0.73490 0.12100
C 	C 	0.92990 0.84910 0.80100 -0.22400
C 	C 	0.83480 0.83230 0.82450 0.19700
C 	C 	0.78110 0.78240 0.77440 -0.22700
C 	C 	0.82660 0.75260 0.70930 0.12600
C 	C 	0.60120 0.82220 0.01830 0.12600
C 	C 	0.65570 0.85860 0.97880 -0.21900
C 	C 	0.73680 0.82840 0.93220 0.19500
C 	C 	0.75260 0.76070 0.92790 -0.22600
C 	C 	0.69160 0.72970 0.96990 0.13000
C 	C 	0.51420 0.30670 0.61480 -0.01200
C 	C 	0.54800 0.25400 0.58790 -0.00600
C 	C 	0.58280 0.18910 0.55560 -0.00100
C 	C 	0.60880 0.13350 0.52580 -0.00300
C 	C 	0.46590 0.36870 0.65010 -0.02100
C 	C 	0.42750 0.37850 0.72030 0.01700
C 	C 	0.37620 0.43600 0.75380 -0.15600
C 	C 	0.36500 0.48710 0.71760 0.14200
C 	C 	0.40380 0.47810 0.64860 -0.15000
C 	C 	0.45260 0.42020 0.61450 0.01100
C 	C 	0.63700 0.06570 0.49240 -0.00400
C 	C 	0.62430 0.01770 0.52680 0.00400
C 	C 	0.64550 0.95010 0.49530 -0.15300
C 	C 	0.67930 0.93250 0.42710 0.14500
C 	C 	0.69440 0.98040 0.38850 -0.14000
C 	C 	0.66900 0.04630 0.42020 -0.00000
C 	C 	0.16810 0.67750 0.69590 0.15000
C 	C 	0.23620 0.64890 0.73580 -0.25500
C 	C 	0.24370 0.58100 0.71810 0.22500
C 	C 	0.18160 0.54620 0.66330 -0.25800
C 	C 	0.11690 0.57820 0.62740 0.15300
C 	C 	0.32950 0.64420 0.94640 0.15300
C 	C 	0.28780 0.61480 0.87980 -0.25000
C 	C 	0.35250 0.58020 0.82640 0.21500
C 	C 	0.45630 0.57520 0.84440 -0.24300
C 	C 	0.48890 0.60420 0.91300 0.14700
C 	C 	0.52910 0.81570 0.23490 0.12300
C 	C 	0.57010 0.84910 0.30100 -0.22500
C 	C 	0.66520 0.83230 0.32450 0.19800
C 	C 	0.71890 0.78240 0.27440 -0.22800
C 	C 	0.67340 0.75260 0.20930 0.12600
C 	C 	0.89880 0.82220 0.51830 0.12700
C 	C 	0.84430 0.85860 0.47880 -0.22000
C 	C 	0.76320 0.82840 0.43220 0.19500
C 	C 	0.74740 0.76070 0.42790 -0.22600
C 	C 	0.80840 0.72970 0.46990 0.13000
N 	N 	0.18590 0.54840 0.25540 -0.20000
N 	N 	0.39200 0.64470 0.14280 -0.25400
N 	N 	0.07210 0.64000 0.46440 -0.24700
N 	N 	0.79460 0.86410 0.89330 -0.19900
N 	N 	0.92040 0.76700 0.68820 -0.24300
N 	N 	0.61600 0.75830 0.01330 -0.24600
N 	N 	0.31410 0.54840 0.75540 -0.20000
N 	N 	0.10800 0.64470 0.64280 -0.25400
N 	N 	0.42790 0.64000 0.96440 -0.24700
N 	N 	0.70540 0.86410 0.39330 -0.19900
N 	N 	0.57960 0.76700 0.18820 -0.24400
N 	N 	0.88400 0.75830 0.51330 -0.24600
Cl	Cl	0.35790 0.79267 0.08660 -0.46900
Cl	Cl	0.64130 0.60614 0.06536 -0.48100
Cl	Cl	0.14210 0.79267 0.58660 -0.46800
Cl	Cl	0.85870 0.60614 0.56536 -0.48100
Cd	Cd	0.00343 0.29904 0.42213 1.21500
Cd	Cd	0.49657 0.29904 0.92213 1.21500
H 	H 	0.56330 0.65480 0.25480 0.02500
H 	H 	0.65110 0.55880 0.19950 0.11200
H 	H 	0.60320 0.48790 0.37540 0.09400
H 	H 	0.52260 0.58530 0.43290 0.03700
H 	H 	0.40020 0.97040 0.42540 0.03400
H 	H 	0.36410 0.08180 0.47820 0.09200
H 	H 	0.27840 0.03170 0.65860 0.08900
H 	H 	0.32670 0.92210 0.60730 0.05400
H 	H 	0.83550 0.27600 0.29230 -0.02100
H 	H 	0.72420 0.32490 0.22650 0.12800
H 	H 	0.81600 0.50040 0.34950 0.13100
H 	H 	0.92380 0.44730 0.41020 -0.01200
H 	H 	0.71510 0.33100 0.01810 -0.01400
H 	H 	0.78320 0.38160 0.12900 0.12700
H 	H 	0.49670 0.44780 0.19040 0.12300
H 	H 	0.44160 0.40140 0.07530 -0.01900
H 	H 	0.53710 0.17240 0.77780 -0.00400
H 	H 	0.46760 0.11600 0.66930 0.11600
H 	H 	0.21460 0.23040 0.71460 0.11600
H 	H 	0.28870 0.28050 0.82290 -0.01100
H 	H 	0.05050 0.15570 0.44940 -0.01000
H 	H 	0.13880 0.09670 0.51700 0.11700
H 	H 	0.30360 0.26330 0.60290 0.11800
H 	H 	0.20520 0.31520 0.53290 -0.00900
H 	H 	0.93670 0.65480 0.75480 0.02500
H 	H 	0.84890 0.55880 0.69950 0.11200
H 	H 	0.89680 0.48790 0.87540 0.09400
H 	H 	0.97740 0.58530 0.93290 0.03700
H 	H 	0.09980 0.97040 0.92540 0.03300
H 	H 	0.13590 0.08180 0.97820 0.09200
H 	H 	0.22160 0.03170 0.15860 0.08900
H 	H 	0.17330 0.92210 0.10730 0.05300
H 	H 	0.66450 0.27600 0.79230 -0.02100
H 	H 	0.77580 0.32490 0.72650 0.12800
H 	H 	0.68400 0.50040 0.84950 0.13100
H 	H 	0.57620 0.44730 0.91020 -0.01200
H 	H 	0.78490 0.33100 0.51810 -0.01400
H 	H 	0.71680 0.38160 0.62900 0.12700
H 	H 	0.00330 0.44780 0.69040 0.12300
H 	H 	0.05840 0.40140 0.57530 -0.01900
H 	H 	0.96290 0.17240 0.27780 -0.00300
H 	H 	0.03240 0.11600 0.16930 0.11500
H 	H 	0.28540 0.23040 0.21460 0.11600
H 	H 	0.21130 0.28050 0.32290 -0.01100
H 	H 	0.44950 0.15570 0.94940 -0.00900
H 	H 	0.36120 0.09670 0.01700 0.11700
H 	H 	0.19640 0.26330 0.10290 0.11700
H 	H 	0.29480 0.31520 0.03290 -0.00900
C 	C 	0.48580 0.69330 0.38520 -0.01200
C 	C 	0.45200 0.74600 0.41210 -0.00600
C 	C 	0.41720 0.81090 0.44440 -0.00100
C 	C 	0.39120 0.86650 0.47420 -0.00300
C 	C 	0.53410 0.63130 0.34990 -0.02100
C 	C 	0.57250 0.62150 0.27970 0.01700
C 	C 	0.62380 0.56400 0.24620 -0.15600
C 	C 	0.63500 0.51290 0.28240 0.14200
C 	C 	0.59620 0.52190 0.35140 -0.15000
C 	C 	0.54740 0.57980 0.38550 0.01100
C 	C 	0.36300 0.93430 0.50760 -0.00400
C 	C 	0.37570 0.98230 0.47320 0.00400
C 	C 	0.35450 0.04990 0.50470 -0.15300
C 	C 	0.32070 0.06750 0.57290 0.14500
C 	C 	0.30560 0.01960 0.61150 -0.14000
C 	C 	0.33100 0.95370 0.57980 -0.00000
C 	C 	0.83190 0.32250 0.30410 0.15000
C 	C 	0.76380 0.35110 0.26420 -0.25500
C 	C 	0.75630 0.41900 0.28190 0.22500
C 	C 	0.81840 0.45380 0.33670 -0.25800
C 	C 	0.88310 0.42180 0.37260 0.15300
C 	C 	0.67050 0.35580 0.05360 0.15300
C 	C 	0.71220 0.38520 0.12020 -0.25000
C 	C 	0.64750 0.41980 0.17360 0.21500
C 	C 	0.54370 0.42480 0.15560 -0.24300
C 	C 	0.51110 0.39580 0.08700 0.14700
C 	C 	0.47090 0.18430 0.76510 0.12300
C 	C 	0.42990 0.15090 0.69900 -0.22500
C 	C 	0.33480 0.16770 0.67550 0.19800
C 	C 	0.28110 0.21760 0.72560 -0.22800
C 	C 	0.32660 0.24740 0.79070 0.12600
C 	C 	0.10120 0.17780 0.48170 0.12700
C 	C 	0.15570 0.14140 0.52120 -0.22000
C 	C 	0.23680 0.17160 0.56780 0.19500
C 	C 	0.25260 0.23930 0.57210 -0.22600
C 	C 	0.19160 0.27030 0.53010 0.13000
C 	C 	0.01420 0.69330 0.88520 -0.01100
C 	C 	0.04800 0.74600 0.91210 -0.00500
C 	C 	0.08280 0.81090 0.94440 -0.00200
C 	C 	0.10880 0.86650 0.97420 -0.00100
C 	C 	0.96590 0.63130 0.84990 -0.02200
C 	C 	0.92750 0.62150 0.77970 0.01800
C 	C 	0.87620 0.56400 0.74620 -0.15700
C 	C 	0.86500 0.51290 0.78240 0.14300
C 	C 	0.90380 0.52190 0.85140 -0.15000
C 	C 	0.95260 0.57980 0.88550 0.01200
C 	C 	0.13700 0.93430 0.00760 -0.00700
C 	C 	0.12430 0.98230 0.97320 0.00700
C 	C 	0.14550 0.04990 0.00470 -0.15500
C 	C 	0.17930 0.06750 0.07290 0.14600
C 	C 	0.19440 0.01960 0.11150 -0.14100
C 	C 	0.16900 0.95370 0.07980 0.00100
C 	C 	0.66810 0.32250 0.80410 0.15000
C 	C 	0.73620 0.35110 0.76420 -0.25500
C 	C 	0.74370 0.41900 0.78190 0.22500
C 	C 	0.68160 0.45380 0.83670 -0.25800
C 	C 	0.61690 0.42180 0.87260 0.15300
C 	C 	0.82950 0.35580 0.55360 0.15400
C 	C 	0.78780 0.38520 0.62020 -0.25000
C 	C 	0.85250 0.41980 0.67360 0.21600
C 	C 	0.95630 0.42480 0.65560 -0.24300
C 	C 	0.98890 0.39580 0.58700 0.14800
C 	C 	0.02910 0.18430 0.26510 0.12100
C 	C 	0.07010 0.15090 0.19900 -0.22400
C 	C 	0.16520 0.16770 0.17550 0.19700
C 	C 	0.21890 0.21760 0.22560 -0.22700
C 	C 	0.17340 0.24740 0.29070 0.12600
C 	C 	0.39880 0.17780 0.98170 0.12600
C 	C 	0.34430 0.14140 0.02120 -0.21900
C 	C 	0.26320 0.17160 0.06780 0.19500
C 	C 	0.24740 0.23930 0.07210 -0.22600
C 	C 	0.30840 0.27030 0.03010 0.13000
N 	N 	0.68590 0.45160 0.24460 -0.20000
N 	N 	0.89200 0.35530 0.35720 -0.25400
N 	N 	0.57210 0.36000 0.03560 -0.24700
N 	N 	0.29460 0.13590 0.60670 -0.19900
N 	N 	0.42040 0.23300 0.81180 -0.24400
N 	N 	0.11600 0.24170 0.48670 -0.24600
N 	N 	0.81410 0.45160 0.74460 -0.20000
N 	N 	0.60800 0.35530 0.85720 -0.25400
N 	N 	0.92790 0.36000 0.53560 -0.24700
N 	N 	0.20540 0.13590 0.10670 -0.19900
N 	N 	0.07960 0.23300 0.31180 -0.24300
N 	N 	0.38400 0.24170 0.98670 -0.24600
Cl	Cl	0.85790 0.20733 0.41340 -0.46800
Cl	Cl	0.14130 0.39386 0.43464 -0.48100
Cl	Cl	0.64210 0.20733 0.91340 -0.46900
Cl	Cl	0.35870 0.39386 0.93464 -0.48100
