data_crystal

_cell_length_a 10.10930
_cell_length_b 13.05700
_cell_length_c 24.35900
_cell_angle_alpha 85.54200
_cell_angle_beta  85.31400
_cell_angle_gamma 80.74900

_symmetry_space_group_name_	'P 1'
_symmetry_space_group_name_H-M	'P 1'

loop_
_symmetry_equiv_pos_as_xyz
  x,y,z

loop_
_atom_site_label
_atom_site_type_symbol
_atom_site_fract_x
_atom_site_fract_y
_atom_site_fract_z
_atom_site_charge
Cd	Cd	0.36366 0.54459 0.58310 1.23500
Cd	Cd	0.07343 0.40745 0.57777 1.23500
Cd	Cd	0.85158 0.67869 0.60729 1.22200
Cd	Cd	0.63634 0.45541 0.41690 1.23400
Cd	Cd	0.92657 0.59255 0.42223 1.23400
Cd	Cd	0.14842 0.32131 0.39271 1.22200
H 	H 	0.14170 0.02620 0.80100 0.08200
H 	H 	0.20830 0.03930 0.89010 0.04100
H 	H 	0.58190 0.92070 0.84140 0.03400
H 	H 	0.51770 0.91790 0.75320 0.08200
H 	H 	0.42410 0.77030 0.57310 0.00000
H 	H 	0.38720 0.92740 0.61180 0.11000
H 	H 	0.26340 0.78110 0.75360 0.11200
H 	H 	0.30540 0.62850 0.70970 -0.01000
H 	H 	0.20290 0.31130 0.68780 -0.01100
H 	H 	0.28780 0.16180 0.73620 0.11600
H 	H 	0.15360 0.00510 0.62200 0.11800
H 	H 	0.08500 0.15960 0.57580 -0.00600
H 	H 	0.86640 0.10100 0.86640 0.04100
H 	H 	0.76290 0.05000 0.79370 0.07500
H 	H 	0.86030 0.29670 0.70010 0.08400
H 	H 	0.96320 0.34890 0.77220 0.06400
H 	H 	0.41710 0.36450 0.99200 0.04200
H 	H 	0.52600 0.42040 0.06390 0.08300
H 	H 	0.16820 0.48880 0.14680 0.09200
H 	H 	0.06310 0.43490 0.07500 0.04200
H 	H 	0.39670 0.40340 0.69400 -0.01400
H 	H 	0.52300 0.25830 0.73480 0.11600
H 	H 	0.74200 0.22240 0.59200 0.13800
H 	H 	0.61310 0.36880 0.55550 -0.00200
H 	H 	0.65340 0.89720 0.59370 -0.02100
H 	H 	0.60690 0.05880 0.62590 0.11800
H 	H 	0.93610 0.99040 0.71000 0.11200
H 	H 	0.97600 0.83030 0.67350 -0.00600
H 	H 	0.28650 0.23260 0.27410 -0.02300
H 	H 	0.36000 0.29440 0.18870 0.11500
H 	H 	0.39510 0.55840 0.25480 0.12100
H 	H 	0.32180 0.48900 0.33740 -0.01700
H 	H 	0.48280 0.80200 0.11190 -0.00100
H 	H 	0.36900 0.66570 0.10730 0.11100
H 	H 	0.64900 0.49470 0.19800 0.11400
H 	H 	0.75580 0.63800 0.19560 0.01400
H 	H 	0.85830 0.97380 0.19900 0.08200
H 	H 	0.79170 0.96070 0.10990 0.04100
H 	H 	0.41810 0.07930 0.15860 0.03400
H 	H 	0.48230 0.08210 0.24680 0.08200
H 	H 	0.57590 0.22970 0.42690 0.00000
H 	H 	0.61280 0.07260 0.38820 0.11000
H 	H 	0.73660 0.21890 0.24640 0.11200
H 	H 	0.69460 0.37150 0.29030 -0.01000
H 	H 	0.79710 0.68870 0.31220 -0.01100
H 	H 	0.71220 0.83820 0.26380 0.11600
H 	H 	0.84640 0.99490 0.37800 0.11800
H 	H 	0.91500 0.84040 0.42420 -0.00600
H 	H 	0.13360 0.89900 0.13360 0.04100
H 	H 	0.23710 0.95000 0.20630 0.07500
H 	H 	0.13970 0.70330 0.29990 0.08400
H 	H 	0.03680 0.65110 0.22780 0.06400
H 	H 	0.58290 0.63550 0.00800 0.04200
H 	H 	0.47400 0.57960 0.93610 0.08300
H 	H 	0.83180 0.51120 0.85320 0.09200
H 	H 	0.93690 0.56510 0.92500 0.04200
H 	H 	0.60330 0.59660 0.30600 -0.01400
H 	H 	0.47700 0.74170 0.26520 0.11600
H 	H 	0.25800 0.77760 0.40800 0.13800
H 	H 	0.38690 0.63120 0.44450 -0.00200
H 	H 	0.34660 0.10280 0.40630 -0.02100
H 	H 	0.39310 0.94120 0.37410 0.11800
H 	H 	0.06390 0.00960 0.29000 0.11200
H 	H 	0.02400 0.16970 0.32650 -0.00600
H 	H 	0.71350 0.76740 0.72590 -0.02300
H 	H 	0.64000 0.70560 0.81130 0.11500
H 	H 	0.60490 0.44160 0.74520 0.12100
H 	H 	0.67820 0.51100 0.66260 -0.01700
H 	H 	0.51720 0.19800 0.88810 -0.00100
H 	H 	0.63100 0.33430 0.89270 0.11100
H 	H 	0.35100 0.50530 0.80200 0.11400
H 	H 	0.24420 0.36200 0.80440 0.01400
C 	C 	0.44450 0.98740 0.92860 -0.01600
C 	C 	0.47870 0.99490 0.97290 -0.00700
C 	C 	0.32400 0.97100 0.76790 0.13300
C 	C 	0.23130 0.00640 0.80860 -0.13400
C 	C 	0.27130 0.01320 0.86260 -0.01300
C 	C 	0.40240 0.98140 0.87420 0.00300
C 	C 	0.49310 0.94420 0.83370 -0.01100
C 	C 	0.45350 0.94120 0.78080 -0.13600
C 	C 	0.39080 0.77300 0.60980 0.11100
C 	C 	0.36830 0.86810 0.63270 -0.20800
C 	C 	0.31660 0.87450 0.68760 0.17900
C 	C 	0.29500 0.78150 0.71670 -0.20600
C 	C 	0.32110 0.68970 0.68990 0.12400
C 	C 	0.19650 0.24820 0.67370 0.12400
C 	C 	0.24720 0.15840 0.70370 -0.21800
C 	C 	0.23680 0.06280 0.68440 0.18700
C 	C 	0.16900 0.06640 0.63570 -0.21800
C 	C 	0.12600 0.15980 0.60860 0.12600
C 	C 	0.98590 0.26430 0.87210 -0.01800
C 	C 	0.04190 0.29440 0.90700 -0.00300
C 	C 	0.10620 0.33100 0.94720 -0.00400
C 	C 	0.16320 0.36170 0.98220 -0.01400
C 	C 	0.92280 0.23260 0.82690 0.01000
C 	C 	0.86390 0.14080 0.83300 -0.02500
C 	C 	0.80270 0.10980 0.78960 -0.12100
C 	C 	0.80150 0.16910 0.74000 0.11700
C 	C 	0.86130 0.25790 0.73370 -0.11300
C 	C 	0.92250 0.28950 0.77700 -0.02800
C 	C 	0.22860 0.39760 0.02540 -0.00000
C 	C 	0.36650 0.39050 0.02300 -0.01500
C 	C 	0.43340 0.42180 0.06660 -0.13300
C 	C 	0.35590 0.45410 0.11270 0.13600
C 	C 	0.21890 0.46280 0.11590 -0.13800
C 	C 	0.15590 0.43200 0.07220 -0.00900
C 	C 	0.46790 0.36700 0.67330 0.11600
C 	C 	0.54370 0.27990 0.69830 -0.22700
C 	C 	0.64860 0.22690 0.66820 0.19600
C 	C 	0.67340 0.25900 0.61380 -0.23100
C 	C 	0.59460 0.34640 0.59210 0.14200
C 	C 	0.71170 0.91630 0.61730 0.13100
C 	C 	0.68220 0.01360 0.63700 -0.23000
C 	C 	0.76350 0.04450 0.67300 0.20000
C 	C 	0.87660 0.97320 0.68630 -0.21800
C 	C 	0.90010 0.87670 0.66420 0.11800
C 	C 	0.30720 0.29980 0.27010 0.12900
C 	C 	0.35120 0.33620 0.21850 -0.22600
C 	C 	0.38230 0.43600 0.21140 0.20300
C 	C 	0.37200 0.49200 0.25740 -0.23700
C 	C 	0.32770 0.44930 0.30700 0.13400
C 	C 	0.51780 0.73830 0.12890 0.11900
C 	C 	0.44630 0.65740 0.12650 -0.21400
C 	C 	0.49410 0.56350 0.15370 0.17700
C 	C 	0.61260 0.55670 0.17970 -0.20700
C 	C 	0.67650 0.64370 0.17800 0.10700
C 	C 	0.55550 0.01260 0.07140 -0.01600
C 	C 	0.52130 0.00510 0.02710 -0.00700
C 	C 	0.67600 0.02900 0.23210 0.13300
C 	C 	0.76870 0.99360 0.19140 -0.13400
C 	C 	0.72870 0.98680 0.13740 -0.01300
C 	C 	0.59760 0.01860 0.12580 0.00300
C 	C 	0.50690 0.05580 0.16630 -0.01100
C 	C 	0.54650 0.05880 0.21920 -0.13600
C 	C 	0.60920 0.22700 0.39020 0.11100
C 	C 	0.63170 0.13190 0.36730 -0.20800
C 	C 	0.68340 0.12550 0.31240 0.17900
C 	C 	0.70500 0.21850 0.28330 -0.20600
C 	C 	0.67890 0.31030 0.31010 0.12400
C 	C 	0.80350 0.75180 0.32630 0.12400
C 	C 	0.75280 0.84160 0.29630 -0.21800
C 	C 	0.76320 0.93720 0.31560 0.18700
C 	C 	0.83100 0.93360 0.36430 -0.21800
C 	C 	0.87400 0.84020 0.39140 0.12600
C 	C 	0.01410 0.73570 0.12790 -0.01800
C 	C 	0.95810 0.70560 0.09300 -0.00300
C 	C 	0.89380 0.66900 0.05280 -0.00400
C 	C 	0.83680 0.63830 0.01780 -0.01400
C 	C 	0.07720 0.76740 0.17310 0.01000
C 	C 	0.13610 0.85920 0.16700 -0.02500
C 	C 	0.19730 0.89020 0.21040 -0.12100
C 	C 	0.19850 0.83090 0.26000 0.11700
C 	C 	0.13870 0.74210 0.26630 -0.11300
C 	C 	0.07750 0.71050 0.22300 -0.02800
C 	C 	0.77140 0.60240 0.97460 -0.00000
C 	C 	0.63350 0.60950 0.97700 -0.01500
C 	C 	0.56660 0.57820 0.93340 -0.13300
C 	C 	0.64410 0.54590 0.88730 0.13600
C 	C 	0.78110 0.53720 0.88410 -0.13800
C 	C 	0.84410 0.56800 0.92780 -0.00900
C 	C 	0.53210 0.63300 0.32670 0.11600
C 	C 	0.45630 0.72010 0.30170 -0.22700
C 	C 	0.35140 0.77310 0.33180 0.19600
C 	C 	0.32660 0.74100 0.38620 -0.23100
C 	C 	0.40540 0.65360 0.40790 0.14200
C 	C 	0.28830 0.08370 0.38270 0.13100
C 	C 	0.31780 0.98640 0.36300 -0.23000
C 	C 	0.23650 0.95550 0.32700 0.20000
C 	C 	0.12340 0.02680 0.31370 -0.21800
C 	C 	0.09990 0.12330 0.33580 0.11800
C 	C 	0.69280 0.70020 0.72990 0.12900
C 	C 	0.64880 0.66380 0.78150 -0.22600
C 	C 	0.61770 0.56400 0.78860 0.20300
C 	C 	0.62800 0.50800 0.74260 -0.23700
C 	C 	0.67230 0.55070 0.69300 0.13400
C 	C 	0.48220 0.26170 0.87110 0.11900
C 	C 	0.55370 0.34260 0.87350 -0.21400
C 	C 	0.50590 0.43650 0.84630 0.17700
C 	C 	0.38740 0.44330 0.82030 -0.20700
C 	C 	0.32350 0.35630 0.82200 0.10700
S 	S 	0.06630 0.52994 0.67910 0.68100
S 	S 	0.08578 0.66566 0.51793 0.74700
S 	S 	0.33564 0.37793 0.48013 0.79900
S 	S 	0.93370 0.47006 0.32090 0.68100
S 	S 	0.91422 0.33434 0.48207 0.74700
S 	S 	0.66436 0.62207 0.51987 0.79900
N 	N 	0.28670 0.96990 0.71280 -0.19200
N 	N 	0.36760 0.68490 0.63720 -0.24000
N 	N 	0.13930 0.25170 0.62640 -0.24700
N 	N 	0.73530 0.14150 0.69460 -0.19000
N 	N 	0.49320 0.40010 0.62120 -0.25200
N 	N 	0.81870 0.84750 0.63010 -0.24900
N 	N 	0.41960 0.47750 0.15860 -0.19100
N 	N 	0.29230 0.35520 0.31530 -0.24600
N 	N 	0.63000 0.73400 0.15270 -0.14900
N 	N 	0.71330 0.03010 0.28720 -0.19200
N 	N 	0.63240 0.31510 0.36280 -0.24000
N 	N 	0.86070 0.74830 0.37360 -0.24700
N 	N 	0.26470 0.85850 0.30540 -0.19000
N 	N 	0.50680 0.59990 0.37880 -0.25200
N 	N 	0.18130 0.15250 0.36990 -0.24900
N 	N 	0.58040 0.52250 0.84140 -0.19100
N 	N 	0.70770 0.64480 0.68470 -0.24600
N 	N 	0.37000 0.26600 0.84730 -0.14900
O 	O 	0.19460 0.49660 0.64598 -0.50200
O 	O 	0.96520 0.47330 0.65871 -0.45500
O 	O 	0.02270 0.64190 0.66890 -0.42600
O 	O 	0.08620 0.50360 0.73690 -0.29400
O 	O 	0.22670 0.65640 0.52924 -0.43800
O 	O 	0.02040 0.57960 0.54590 -0.57200
O 	O 	0.00980 0.76110 0.53790 -0.40100
O 	O 	0.07650 0.66540 0.45807 -0.45800
O 	O 	0.27390 0.41970 0.53271 -0.56000
O 	O 	0.26410 0.43460 0.43350 -0.46700
O 	O 	0.32060 0.27200 0.47800 -0.41800
O 	O 	0.47190 0.39710 0.47430 -0.48100
O 	O 	0.80540 0.50340 0.35402 -0.50200
O 	O 	0.03480 0.52670 0.34129 -0.45500
O 	O 	0.97730 0.35810 0.33110 -0.42600
O 	O 	0.91380 0.49640 0.26310 -0.29400
O 	O 	0.77330 0.34360 0.47076 -0.43800
O 	O 	0.97960 0.42040 0.45410 -0.57200
O 	O 	0.99020 0.23890 0.46210 -0.40100
O 	O 	0.92350 0.33460 0.54193 -0.45800
O 	O 	0.72610 0.58030 0.46729 -0.56000
O 	O 	0.73590 0.56540 0.56650 -0.46700
O 	O 	0.67940 0.72800 0.52200 -0.41800
O 	O 	0.52810 0.60290 0.52570 -0.48100
