data_crystal

_cell_length_a 7.99050
_cell_length_b 17.24500
_cell_length_c 23.29870
_cell_angle_alpha 90.00000
_cell_angle_beta  90.00000
_cell_angle_gamma 90.00000

_symmetry_space_group_name_	'P 1'
_symmetry_space_group_name_H-M	'P 1'

loop_
_symmetry_equiv_pos_as_xyz
  x,y,z

loop_
_atom_site_label
_atom_site_type_symbol
_atom_site_fract_x
_atom_site_fract_y
_atom_site_fract_z
_atom_site_charge
Ce	Ce	0.13837 0.89661 0.21803 2.12800
Ce	Ce	0.36163 0.10339 0.71803 2.12700
Ce	Ce	0.86163 0.39661 0.28197 2.14000
Ce	Ce	0.63837 0.60339 0.78197 2.13300
Ce	Ce	0.86163 0.10339 0.78197 2.13500
Ce	Ce	0.63837 0.89661 0.28197 2.13900
Ce	Ce	0.13837 0.60339 0.71803 2.12600
Ce	Ce	0.36163 0.39661 0.21803 2.13200
Cu	Cu	0.50000 0.00000 0.50000 0.88400
Cu	Cu	-0.00000 0.00000 -0.00000 0.85900
Cu	Cu	0.50000 0.50000 -0.00000 0.89100
Cu	Cu	-0.00000 0.50000 0.50000 0.89600
H 	H 	0.87490 0.83100 0.50740 0.02100
H 	H 	0.11770 0.75820 0.50980 0.07600
H 	H 	0.31660 0.77430 0.43900 0.03300
H 	H 	0.70370 0.83680 0.66130 0.06700
H 	H 	0.72010 0.93050 0.59170 0.05100
H 	H 	0.24970 0.89810 0.55090 0.03000
H 	H 	0.22600 0.80010 0.61620 0.06200
H 	H 	0.62510 0.16900 0.00740 -0.01000
H 	H 	0.38230 0.24180 0.00980 0.02500
H 	H 	0.18340 0.22570 0.93900 0.04500
H 	H 	0.79630 0.16320 0.16130 0.05300
H 	H 	0.77990 0.06950 0.09170 0.02800
H 	H 	0.25030 0.10190 0.05090 0.01200
H 	H 	0.27400 0.19990 0.11620 0.06400
H 	H 	0.12510 0.33100 0.99260 0.08400
H 	H 	0.88230 0.25820 0.99020 0.09600
H 	H 	0.68340 0.27430 0.06100 0.03200
H 	H 	0.29630 0.33680 0.83870 0.06000
H 	H 	0.27990 0.43050 0.90830 0.04400
H 	H 	0.75030 0.39810 0.94910 0.03800
H 	H 	0.77400 0.30010 0.88380 0.07300
H 	H 	0.37490 0.66900 0.49260 0.03100
H 	H 	0.61770 0.74180 0.49020 0.06500
H 	H 	0.81660 0.72570 0.56100 0.04400
H 	H 	0.20370 0.66320 0.33870 0.07000
H 	H 	0.22010 0.56950 0.40830 0.04400
H 	H 	0.74970 0.60190 0.44910 0.02300
H 	H 	0.72600 0.69990 0.38380 0.07100
H 	H 	0.12510 0.16900 0.49260 0.04000
H 	H 	0.88230 0.24180 0.49020 0.05800
H 	H 	0.68340 0.22570 0.56100 0.04300
H 	H 	0.29630 0.16320 0.33870 0.05800
H 	H 	0.27990 0.06950 0.40830 0.03300
H 	H 	0.75030 0.10190 0.44910 0.02100
H 	H 	0.77400 0.19990 0.38380 0.07200
H 	H 	0.37490 0.83100 0.99260 0.07400
H 	H 	0.61770 0.75820 0.99020 0.10400
H 	H 	0.81660 0.77430 0.06100 0.03400
H 	H 	0.20370 0.83680 0.83870 0.07200
H 	H 	0.22010 0.93050 0.90830 0.05700
H 	H 	0.74970 0.89810 0.94910 0.04200
H 	H 	0.72600 0.80010 0.88380 0.07200
H 	H 	0.87490 0.66900 0.00740 -0.02000
H 	H 	0.11770 0.74180 0.00980 0.03400
H 	H 	0.31660 0.72570 0.93900 0.04500
H 	H 	0.70370 0.66320 0.16130 0.06400
H 	H 	0.72010 0.56950 0.09170 0.03900
H 	H 	0.24970 0.60190 0.05090 0.01300
H 	H 	0.22600 0.69990 0.11620 0.06100
H 	H 	0.62510 0.33100 0.50740 0.03200
H 	H 	0.38230 0.25820 0.50980 0.06600
H 	H 	0.18340 0.27430 0.43900 0.03300
H 	H 	0.79630 0.33680 0.66130 0.05600
H 	H 	0.77990 0.43050 0.59170 0.03800
H 	H 	0.25030 0.39810 0.55090 0.02700
H 	H 	0.27400 0.30010 0.61620 0.06500
C 	C 	0.32840 0.85990 0.34833 0.32500
C 	C 	0.01010 0.96230 0.34725 0.36000
C 	C 	0.76040 0.92970 0.43180 0.40400
C 	C 	0.19430 0.85550 0.39341 -0.08600
C 	C 	0.04680 0.89970 0.39103 -0.06400
C 	C 	0.92620 0.88830 0.43393 -0.07600
C 	C 	0.95440 0.83660 0.47853 0.07600
C 	C 	0.09980 0.79350 0.48026 -0.14400
C 	C 	0.21860 0.80330 0.43777 0.03200
C 	C 	0.44540 0.74240 0.69022 0.41000
C 	C 	0.46310 0.80630 0.64652 -0.07200
C 	C 	0.61090 0.84750 0.63856 -0.04200
C 	C 	0.61970 0.90420 0.59709 0.01900
C 	C 	0.34270 0.88440 0.57268 0.02800
C 	C 	0.32720 0.82620 0.61225 -0.04500
C 	C 	0.17160 0.14010 0.84833 0.32800
C 	C 	0.48990 0.03770 0.84725 0.25800
C 	C 	0.73960 0.07030 0.93180 0.40800
C 	C 	0.30570 0.14450 0.89341 -0.09600
C 	C 	0.45320 0.10030 0.89103 -0.01600
C 	C 	0.57380 0.11170 0.93393 -0.12600
C 	C 	0.54560 0.16340 0.97853 0.08100
C 	C 	0.40020 0.20650 0.98026 -0.04400
C 	C 	0.28140 0.19670 0.93777 -0.00000
C 	C 	0.05460 0.25760 0.19022 0.38300
C 	C 	0.03690 0.19370 0.14652 -0.10000
C 	C 	0.88910 0.15250 0.13856 -0.02100
C 	C 	0.88030 0.09580 0.09709 0.02100
C 	C 	0.15730 0.11560 0.07268 0.01100
C 	C 	0.17280 0.17380 0.11225 -0.04400
C 	C 	0.67160 0.35990 0.15167 0.32500
C 	C 	0.98990 0.46230 0.15275 0.35600
C 	C 	0.23960 0.42970 0.06820 0.39900
C 	C 	0.80570 0.35550 0.10659 -0.08900
C 	C 	0.95320 0.39970 0.10897 -0.02100
C 	C 	0.07380 0.38830 0.06607 -0.10400
C 	C 	0.04560 0.33660 0.02147 -0.05800
C 	C 	0.90020 0.29350 0.01974 -0.09400
C 	C 	0.78140 0.30330 0.06223 0.01900
C 	C 	0.55460 0.24240 0.80978 0.40800
C 	C 	0.53690 0.30630 0.85348 -0.07300
C 	C 	0.38910 0.34750 0.86144 -0.04500
C 	C 	0.38030 0.40420 0.90291 0.01500
C 	C 	0.65730 0.38440 0.92732 0.02500
C 	C 	0.67280 0.32620 0.88775 -0.04400
C 	C 	0.82840 0.64010 0.65167 0.32300
C 	C 	0.51010 0.53770 0.65275 0.32800
C 	C 	0.26040 0.57030 0.56820 0.40600
C 	C 	0.69430 0.64450 0.60659 -0.08500
C 	C 	0.54680 0.60030 0.60897 -0.03500
C 	C 	0.42620 0.61170 0.56607 -0.10300
C 	C 	0.45440 0.66340 0.52147 0.03000
C 	C 	0.59980 0.70650 0.51974 -0.08800
C 	C 	0.71860 0.69670 0.56223 0.01200
C 	C 	0.94540 0.75760 0.30978 0.43700
C 	C 	0.96310 0.69370 0.35348 -0.04500
C 	C 	0.11090 0.65250 0.36144 -0.07800
C 	C 	0.11970 0.59580 0.40291 -0.00200
C 	C 	0.84270 0.61560 0.42732 0.03400
C 	C 	0.82720 0.67380 0.38775 -0.05600
C 	C 	0.67160 0.14010 0.65167 0.32700
C 	C 	0.98990 0.03770 0.65275 0.27900
C 	C 	0.23960 0.07030 0.56820 0.40500
C 	C 	0.80570 0.14450 0.60659 -0.09500
C 	C 	0.95320 0.10030 0.60897 -0.00400
C 	C 	0.07380 0.11170 0.56607 -0.12800
C 	C 	0.04560 0.16340 0.52147 -0.00400
C 	C 	0.90020 0.20650 0.51974 -0.05100
C 	C 	0.78140 0.19670 0.56223 0.00400
C 	C 	0.55460 0.25760 0.30978 0.40700
C 	C 	0.53690 0.19370 0.35348 -0.07500
C 	C 	0.38910 0.15250 0.36144 -0.04900
C 	C 	0.38030 0.09580 0.40291 0.00800
C 	C 	0.65730 0.11560 0.42732 0.02100
C 	C 	0.67280 0.17380 0.38775 -0.05000
C 	C 	0.82840 0.85990 0.15167 0.32300
C 	C 	0.51010 0.96230 0.15275 0.39800
C 	C 	0.26040 0.92970 0.06820 0.39800
C 	C 	0.69430 0.85550 0.10659 -0.07900
C 	C 	0.54680 0.89970 0.10897 -0.05200
C 	C 	0.42620 0.88830 0.06607 -0.07800
C 	C 	0.45440 0.83660 0.02147 -0.02100
C 	C 	0.59980 0.79350 0.01974 -0.13600
C 	C 	0.71860 0.80330 0.06223 0.03000
C 	C 	0.94540 0.74240 0.80978 0.43700
C 	C 	0.96310 0.80630 0.85348 -0.04300
C 	C 	0.11090 0.84750 0.86144 -0.07400
C 	C 	0.11970 0.90420 0.90291 0.00200
C 	C 	0.84270 0.88440 0.92732 0.03900
C 	C 	0.82720 0.82620 0.88775 -0.05100
C 	C 	0.32840 0.64010 0.84833 0.32500
C 	C 	0.01010 0.53770 0.84725 0.29800
C 	C 	0.76040 0.57030 0.93180 0.41000
C 	C 	0.19430 0.64450 0.89341 -0.08900
C 	C 	0.04680 0.60030 0.89103 -0.04700
C 	C 	0.92620 0.61170 0.93393 -0.10100
C 	C 	0.95440 0.66340 0.97853 0.12100
C 	C 	0.09980 0.70650 0.98026 -0.09000
C 	C 	0.21860 0.69670 0.93777 0.01200
C 	C 	0.44540 0.75760 0.19022 0.40900
C 	C 	0.46310 0.69370 0.14652 -0.07400
C 	C 	0.61090 0.65250 0.13856 -0.04600
C 	C 	0.61970 0.59580 0.09709 0.01200
C 	C 	0.34270 0.61560 0.07268 0.02300
C 	C 	0.32720 0.67380 0.11225 -0.05000
C 	C 	0.17160 0.35990 0.34833 0.32700
C 	C 	0.48990 0.46230 0.34725 0.32700
C 	C 	0.73960 0.42970 0.43180 0.40400
C 	C 	0.30570 0.35550 0.39341 -0.09300
C 	C 	0.45320 0.39970 0.39103 -0.03300
C 	C 	0.57380 0.38830 0.43393 -0.10200
C 	C 	0.54560 0.33660 0.47853 0.03300
C 	C 	0.40020 0.29350 0.48026 -0.09500
C 	C 	0.28140 0.30330 0.43777 0.01800
C 	C 	0.05460 0.24240 0.69022 0.38500
C 	C 	0.03690 0.30630 0.64652 -0.09900
C 	C 	0.88910 0.34750 0.63856 -0.01700
C 	C 	0.88030 0.40420 0.59709 0.03000
C 	C 	0.15730 0.38440 0.57268 0.01500
C 	C 	0.17280 0.32620 0.61225 -0.03900
N 	N 	0.48740 0.92278 0.56404 -0.18600
N 	N 	0.01260 0.07722 0.06404 -0.22400
N 	N 	0.51260 0.42278 0.93596 -0.19100
N 	N 	0.98740 0.57722 0.43596 -0.18300
N 	N 	0.51260 0.07722 0.43596 -0.20700
N 	N 	0.98740 0.92278 0.93596 -0.16000
N 	N 	0.48740 0.57722 0.06404 -0.20500
N 	N 	0.01260 0.42278 0.56404 -0.21300
O 	O 	0.31420 0.90904 0.30702 -0.59100
O 	O 	0.45300 0.81640 0.35178 -0.41400
O 	O 	0.95250 0.94211 0.29805 -0.58100
O 	O 	0.02840 0.02960 0.36349 -0.34000
O 	O 	0.68450 0.93651 0.38555 -0.47500
O 	O 	0.70870 0.95312 0.48034 -0.39400
O 	O 	0.30140 0.71335 0.69302 -0.50900
O 	O 	0.56810 0.72300 0.71981 -0.45400
O 	O 	0.18580 0.09096 0.80702 -0.61500
O 	O 	0.04700 0.18360 0.85178 -0.42700
O 	O 	0.54750 0.05789 0.79805 -0.60200
O 	O 	0.47160 0.97040 0.86349 -0.22100
O 	O 	0.81550 0.06349 0.88555 -0.49900
O 	O 	0.79130 0.04688 0.98034 -0.40900
O 	O 	0.19860 0.28665 0.19302 -0.50400
O 	O 	0.93190 0.27700 0.21981 -0.43200
O 	O 	0.68580 0.40904 0.19298 -0.59900
O 	O 	0.54700 0.31640 0.14822 -0.41700
O 	O 	0.04750 0.44211 0.20195 -0.63600
O 	O 	0.97160 0.52960 0.13651 -0.28100
O 	O 	0.31550 0.43651 0.11445 -0.49700
O 	O 	0.29130 0.45312 0.01966 -0.43900
O 	O 	0.69860 0.21335 0.80698 -0.50300
O 	O 	0.43190 0.22300 0.78019 -0.45600
O 	O 	0.81420 0.59096 0.69298 -0.59400
O 	O 	0.95300 0.68360 0.64822 -0.40000
O 	O 	0.45250 0.55789 0.70195 -0.60900
O 	O 	0.52840 0.47040 0.63651 -0.28200
O 	O 	0.18450 0.56349 0.61445 -0.50300
O 	O 	0.20870 0.54688 0.51966 -0.42700
O 	O 	0.80140 0.78665 0.30698 -0.51100
O 	O 	0.06810 0.77700 0.28019 -0.48500
O 	O 	0.68580 0.09096 0.69298 -0.61000
O 	O 	0.54700 0.18360 0.64822 -0.41600
O 	O 	0.04750 0.05789 0.70195 -0.62600
O 	O 	0.97160 0.97040 0.63651 -0.21500
O 	O 	0.31550 0.06349 0.61445 -0.51100
O 	O 	0.29130 0.04688 0.51966 -0.43900
O 	O 	0.69860 0.28665 0.30698 -0.50400
O 	O 	0.43190 0.27700 0.28019 -0.45800
O 	O 	0.81420 0.90904 0.19298 -0.58300
O 	O 	0.95300 0.81640 0.14822 -0.39900
O 	O 	0.45250 0.94211 0.20195 -0.61500
O 	O 	0.52840 0.02960 0.13651 -0.34400
O 	O 	0.18450 0.93651 0.11445 -0.48700
O 	O 	0.20870 0.95312 0.01966 -0.41700
O 	O 	0.80140 0.71335 0.80698 -0.50900
O 	O 	0.06810 0.72300 0.78019 -0.48300
O 	O 	0.31420 0.59096 0.80702 -0.60100
O 	O 	0.45300 0.68360 0.85178 -0.41400
O 	O 	0.95250 0.55789 0.79805 -0.57900
O 	O 	0.02840 0.47040 0.86349 -0.28300
O 	O 	0.68450 0.56349 0.88555 -0.49000
O 	O 	0.70870 0.54688 0.98034 -0.39900
O 	O 	0.30140 0.78665 0.19302 -0.51100
O 	O 	0.56810 0.77700 0.21981 -0.45500
O 	O 	0.18580 0.40904 0.30702 -0.60600
O 	O 	0.04700 0.31640 0.35178 -0.42900
O 	O 	0.54750 0.44211 0.29805 -0.60700
O 	O 	0.47160 0.52960 0.36349 -0.28300
O 	O 	0.81550 0.43651 0.38555 -0.48600
O 	O 	0.79130 0.45312 0.48034 -0.41300
O 	O 	0.19860 0.21335 0.69302 -0.50300
O 	O 	0.93190 0.22300 0.71981 -0.43200
