data_crystal

_cell_length_a 8.01910
_cell_length_b 17.30500
_cell_length_c 23.30340
_cell_angle_alpha 90.00000
_cell_angle_beta  90.00000
_cell_angle_gamma 90.00000

_symmetry_space_group_name_	'P 1'
_symmetry_space_group_name_H-M	'P 1'

loop_
_symmetry_equiv_pos_as_xyz
  x,y,z

loop_
_atom_site_label
_atom_site_type_symbol
_atom_site_fract_x
_atom_site_fract_y
_atom_site_fract_z
_atom_site_charge
La	La	0.63702 0.89671 0.78241 1.66600
La	La	0.86298 0.10329 0.28241 1.65700
La	La	0.36298 0.39671 0.71759 1.64800
La	La	0.13702 0.60329 0.21759 1.63100
La	La	0.36298 0.10329 0.21759 1.63600
La	La	0.13702 0.89671 0.71759 1.64100
La	La	0.63702 0.60329 0.28241 1.65400
La	La	0.86298 0.39671 0.78241 1.66900
Cu	Cu	0.00000 0.00000 0.50000 0.87300
Cu	Cu	0.50000 0.00000 -0.00000 0.86800
Cu	Cu	-0.00000 0.50000 -0.00000 0.88000
Cu	Cu	0.50000 0.50000 0.50000 0.90600
H 	H 	0.37280 0.83190 0.49230 0.03800
H 	H 	0.61470 0.75780 0.48990 0.05900
H 	H 	0.81290 0.77450 0.56050 0.04700
H 	H 	0.79730 0.16290 0.66150 0.05800
H 	H 	0.78160 0.06900 0.59130 0.02900
H 	H 	0.24960 0.10110 0.55090 0.01800
H 	H 	0.27130 0.20120 0.61530 0.06700
H 	H 	0.12720 0.16810 0.99230 0.08200
H 	H 	0.88530 0.24220 0.98990 0.09900
H 	H 	0.68710 0.22550 0.06050 0.02700
H 	H 	0.70270 0.83710 0.16150 0.07300
H 	H 	0.71840 0.93100 0.09130 0.04400
H 	H 	0.25040 0.89890 0.05090 0.02000
H 	H 	0.22870 0.79880 0.11530 0.06500
H 	H 	0.62720 0.33190 0.00770 -0.00300
H 	H 	0.38530 0.25780 0.01010 0.01900
H 	H 	0.18710 0.27450 0.93950 0.04800
H 	H 	0.20270 0.66290 0.83850 0.07500
H 	H 	0.21840 0.56900 0.90870 0.04500
H 	H 	0.75040 0.60110 0.94910 0.03000
H 	H 	0.72870 0.70120 0.88470 0.07300
H 	H 	0.87280 0.66810 0.50770 0.02000
H 	H 	0.11470 0.74220 0.51010 0.07600
H 	H 	0.31290 0.72550 0.43950 0.02900
H 	H 	0.29730 0.33710 0.33850 0.06600
H 	H 	0.28160 0.43100 0.40870 0.03600
H 	H 	0.74960 0.39890 0.44910 0.02600
H 	H 	0.77130 0.29880 0.38470 0.07600
H 	H 	0.62720 0.16810 0.50770 0.03000
H 	H 	0.38530 0.24220 0.51010 0.06800
H 	H 	0.18710 0.22550 0.43950 0.02900
H 	H 	0.20270 0.83710 0.33850 0.07800
H 	H 	0.21840 0.93100 0.40870 0.04900
H 	H 	0.75040 0.89890 0.44910 0.03000
H 	H 	0.72870 0.79880 0.38470 0.07500
H 	H 	0.87280 0.83190 0.00770 -0.00900
H 	H 	0.11470 0.75780 0.01010 0.03000
H 	H 	0.31290 0.77450 0.93950 0.04800
H 	H 	0.29730 0.16290 0.83850 0.06300
H 	H 	0.28160 0.06900 0.90870 0.03500
H 	H 	0.74960 0.10110 0.94910 0.02800
H 	H 	0.77130 0.20120 0.88470 0.07500
H 	H 	0.37280 0.66810 0.99230 0.07100
H 	H 	0.61470 0.74220 0.98990 0.10400
H 	H 	0.81290 0.72550 0.06050 0.03000
H 	H 	0.79730 0.33710 0.16150 0.06100
H 	H 	0.78160 0.43100 0.09130 0.03100
H 	H 	0.24960 0.39890 0.05090 0.01700
H 	H 	0.27130 0.29880 0.11530 0.06800
H 	H 	0.12720 0.33190 0.49230 0.04600
H 	H 	0.88530 0.25780 0.48990 0.05200
H 	H 	0.68710 0.27450 0.56050 0.04600
H 	H 	0.70270 0.66290 0.66150 0.06900
H 	H 	0.71840 0.56900 0.59130 0.03900
H 	H 	0.25040 0.60110 0.55090 0.01900
H 	H 	0.22870 0.70120 0.61530 0.06400
C 	C 	0.82570 0.85968 0.65114 0.32000
C 	C 	0.50770 0.96262 0.65222 0.38600
C 	C 	0.25970 0.93052 0.56770 0.38700
C 	C 	0.69120 0.85586 0.60633 -0.07100
C 	C 	0.54470 0.89966 0.60875 -0.04300
C 	C 	0.42500 0.88914 0.56564 -0.07900
C 	C 	0.45220 0.83730 0.52108 0.01300
C 	C 	0.59740 0.79340 0.51927 -0.07200
C 	C 	0.71520 0.80338 0.56169 -0.00100
C 	C 	0.05550 0.25691 0.68996 0.34500
C 	C 	0.03630 0.19319 0.64606 -0.08500
C 	C 	0.88960 0.15236 0.63862 -0.02900
C 	C 	0.88140 0.09550 0.59671 0.03400
C 	C 	0.15660 0.11519 0.57235 0.01900
C 	C 	0.17140 0.17430 0.61176 -0.05000
C 	C 	0.67430 0.14032 0.15114 0.33000
C 	C 	0.99230 0.03738 0.15222 0.26900
C 	C 	0.24030 0.06948 0.06770 0.38600
C 	C 	0.80880 0.14414 0.10633 -0.10900
C 	C 	0.95530 0.10034 0.10875 0.00500
C 	C 	0.07500 0.11086 0.06564 -0.11400
C 	C 	0.04780 0.16270 0.02108 -0.05300
C 	C 	0.90260 0.20660 0.01927 -0.10600
C 	C 	0.78480 0.19662 0.06169 0.02800
C 	C 	0.44450 0.74309 0.18996 0.37100
C 	C 	0.46370 0.80681 0.14606 -0.05400
C 	C 	0.61040 0.84764 0.13862 -0.05300
C 	C 	0.61860 0.90450 0.09671 0.02900
C 	C 	0.34340 0.88481 0.07235 0.03600
C 	C 	0.32860 0.82570 0.11176 -0.05700
C 	C 	0.17430 0.35968 0.84886 0.32300
C 	C 	0.49230 0.46262 0.84778 0.31600
C 	C 	0.74030 0.43052 0.93230 0.39100
C 	C 	0.30880 0.35586 0.89367 -0.08300
C 	C 	0.45530 0.39966 0.89125 -0.02500
C 	C 	0.57500 0.38914 0.93436 -0.10200
C 	C 	0.54780 0.33730 0.97892 0.06500
C 	C 	0.40260 0.29340 0.98073 -0.02800
C 	C 	0.28480 0.30338 0.93831 -0.01400
C 	C 	0.94450 0.75691 0.81004 0.39600
C 	C 	0.96370 0.69319 0.85394 -0.02900
C 	C 	0.11040 0.65236 0.86138 -0.08500
C 	C 	0.11860 0.59550 0.90329 0.01000
C 	C 	0.84340 0.61519 0.92765 0.04200
C 	C 	0.82860 0.67430 0.88824 -0.06200
C 	C 	0.32570 0.64032 0.34886 0.32700
C 	C 	0.00770 0.53738 0.34778 0.28700
C 	C 	0.75970 0.56948 0.43230 0.39200
C 	C 	0.19120 0.64414 0.39367 -0.10200
C 	C 	0.04470 0.60034 0.39125 -0.03900
C 	C 	0.92500 0.61086 0.43436 -0.08700
C 	C 	0.95220 0.66270 0.47892 0.07400
C 	C 	0.09740 0.70660 0.48073 -0.14600
C 	C 	0.21520 0.69662 0.43831 0.03500
C 	C 	0.55550 0.24309 0.31004 0.36900
C 	C 	0.53630 0.30681 0.35394 -0.05400
C 	C 	0.38960 0.34764 0.36138 -0.05600
C 	C 	0.38140 0.40450 0.40329 0.02500
C 	C 	0.65660 0.38481 0.42765 0.03400
C 	C 	0.67140 0.32570 0.38824 -0.05600
C 	C 	0.17430 0.14032 0.34886 0.33000
C 	C 	0.49230 0.03738 0.34778 0.24600
C 	C 	0.74030 0.06948 0.43230 0.39000
C 	C 	0.30880 0.14414 0.39367 -0.11100
C 	C 	0.45530 0.10034 0.39125 -0.00700
C 	C 	0.57500 0.11086 0.43436 -0.11300
C 	C 	0.54780 0.16270 0.47892 0.03500
C 	C 	0.40260 0.20660 0.48073 -0.10200
C 	C 	0.28480 0.19662 0.43831 0.02400
C 	C 	0.94450 0.74309 0.31004 0.39700
C 	C 	0.96370 0.80681 0.35394 -0.02300
C 	C 	0.11040 0.84764 0.36138 -0.08500
C 	C 	0.11860 0.90450 0.40329 0.01300
C 	C 	0.84340 0.88481 0.42765 0.04800
C 	C 	0.82860 0.82570 0.38824 -0.06300
C 	C 	0.32570 0.85968 0.84886 0.32100
C 	C 	0.00770 0.96262 0.84778 0.34900
C 	C 	0.75970 0.93052 0.93230 0.39000
C 	C 	0.19120 0.85586 0.89367 -0.07500
C 	C 	0.04470 0.89966 0.89125 -0.05700
C 	C 	0.92500 0.88914 0.93436 -0.07400
C 	C 	0.95220 0.83730 0.97892 0.09800
C 	C 	0.09740 0.79340 0.98073 -0.07400
C 	C 	0.21520 0.80338 0.93831 -0.00200
C 	C 	0.55550 0.25691 0.81004 0.36900
C 	C 	0.53630 0.19319 0.85394 -0.05900
C 	C 	0.38960 0.15236 0.86138 -0.05600
C 	C 	0.38140 0.09550 0.90329 0.02100
C 	C 	0.65660 0.11519 0.92765 0.02900
C 	C 	0.67140 0.17430 0.88824 -0.05500
C 	C 	0.82570 0.64032 0.15114 0.32600
C 	C 	0.50770 0.53738 0.15222 0.31700
C 	C 	0.25970 0.56948 0.06770 0.38600
C 	C 	0.69120 0.64414 0.10633 -0.09700
C 	C 	0.54470 0.60034 0.10875 -0.02700
C 	C 	0.42500 0.61086 0.06564 -0.08900
C 	C 	0.45220 0.66270 0.02108 -0.01700
C 	C 	0.59740 0.70660 0.01927 -0.14000
C 	C 	0.71520 0.69662 0.06169 0.03400
C 	C 	0.05550 0.24309 0.18996 0.34600
C 	C 	0.03630 0.30681 0.14606 -0.08200
C 	C 	0.88960 0.34764 0.13862 -0.02700
C 	C 	0.88140 0.40450 0.09671 0.04000
C 	C 	0.15660 0.38481 0.07235 0.02300
C 	C 	0.17140 0.32570 0.11176 -0.05100
C 	C 	0.67430 0.35968 0.65114 0.32300
C 	C 	0.99230 0.46262 0.65222 0.34400
C 	C 	0.24030 0.43052 0.56770 0.38800
C 	C 	0.80880 0.35586 0.60633 -0.08200
C 	C 	0.95530 0.39966 0.60875 -0.01200
C 	C 	0.07500 0.38914 0.56564 -0.10700
C 	C 	0.04780 0.33730 0.52108 -0.02000
C 	C 	0.90260 0.29340 0.51927 -0.03500
C 	C 	0.78480 0.30338 0.56169 -0.00900
C 	C 	0.44450 0.75691 0.68996 0.37000
C 	C 	0.46370 0.69319 0.64606 -0.05800
C 	C 	0.61040 0.65236 0.63862 -0.05500
C 	C 	0.61860 0.59550 0.59671 0.02500
C 	C 	0.34340 0.61519 0.57235 0.03100
C 	C 	0.32860 0.67430 0.61176 -0.05600
N 	N 	0.01270 0.07746 0.56386 -0.22200
N 	N 	0.48730 0.92254 0.06386 -0.19400
N 	N 	0.98730 0.57746 0.93614 -0.17700
N 	N 	0.51270 0.42254 0.43614 -0.20300
N 	N 	0.98730 0.92254 0.43614 -0.17200
N 	N 	0.51270 0.07746 0.93614 -0.20000
N 	N 	0.01270 0.42254 0.06386 -0.22100
N 	N 	0.48730 0.57746 0.56386 -0.20300
O 	O 	0.81210 0.90865 0.69232 -0.46800
O 	O 	0.94950 0.81688 0.64711 -0.34700
O 	O 	0.45080 0.94178 0.70133 -0.49400
O 	O 	0.52830 0.02954 0.63601 -0.33200
O 	O 	0.18400 0.93672 0.61347 -0.42200
O 	O 	0.20930 0.95423 0.51925 -0.40000
O 	O 	0.19810 0.28571 0.69330 -0.41800
O 	O 	0.93230 0.27655 0.71951 -0.36000
O 	O 	0.68790 0.09135 0.19232 -0.49500
O 	O 	0.55050 0.18312 0.14711 -0.36600
O 	O 	0.04920 0.05822 0.20133 -0.50400
O 	O 	0.97170 0.97046 0.13601 -0.21000
O 	O 	0.31600 0.06328 0.11347 -0.44500
O 	O 	0.29070 0.04577 0.01925 -0.45100
O 	O 	0.30190 0.71429 0.19330 -0.42200
O 	O 	0.56770 0.72345 0.21951 -0.37900
O 	O 	0.18790 0.40865 0.80768 -0.49100
O 	O 	0.05050 0.31688 0.85289 -0.37600
O 	O 	0.54920 0.44178 0.79867 -0.48700
O 	O 	0.47170 0.52954 0.86399 -0.27200
O 	O 	0.81600 0.43672 0.88653 -0.42100
O 	O 	0.79070 0.45423 0.98075 -0.39000
O 	O 	0.80190 0.78571 0.80670 -0.42600
O 	O 	0.06770 0.77655 0.78049 -0.40900
O 	O 	0.31210 0.59135 0.30768 -0.48600
O 	O 	0.44950 0.68312 0.35289 -0.36400
O 	O 	0.95080 0.55822 0.29867 -0.45600
O 	O 	0.02830 0.47046 0.36399 -0.27700
O 	O 	0.68400 0.56328 0.38653 -0.42600
O 	O 	0.70930 0.54577 0.48075 -0.41800
O 	O 	0.69810 0.21429 0.30670 -0.41700
O 	O 	0.43230 0.22345 0.28049 -0.38100
O 	O 	0.18790 0.09135 0.30768 -0.50100
O 	O 	0.05050 0.18312 0.35289 -0.37800
O 	O 	0.54920 0.05822 0.29867 -0.47900
O 	O 	0.47170 0.97046 0.36399 -0.21500
O 	O 	0.81600 0.06328 0.38653 -0.43500
O 	O 	0.79070 0.04577 0.48075 -0.42700
O 	O 	0.80190 0.71429 0.30670 -0.42300
O 	O 	0.06770 0.72345 0.28049 -0.40600
O 	O 	0.31210 0.90865 0.80768 -0.47600
O 	O 	0.44950 0.81688 0.85289 -0.36200
O 	O 	0.95080 0.94178 0.79867 -0.46100
O 	O 	0.02830 0.02954 0.86399 -0.32800
O 	O 	0.68400 0.93672 0.88653 -0.41000
O 	O 	0.70930 0.95423 0.98075 -0.37300
O 	O 	0.69810 0.28571 0.80670 -0.41900
O 	O 	0.43230 0.27655 0.78049 -0.38400
O 	O 	0.81210 0.59135 0.19232 -0.47900
O 	O 	0.94950 0.68312 0.14711 -0.34900
O 	O 	0.45080 0.55822 0.20133 -0.48600
O 	O 	0.52830 0.47046 0.13601 -0.27600
O 	O 	0.18400 0.56328 0.11347 -0.43600
O 	O 	0.20930 0.54577 0.01925 -0.43800
O 	O 	0.19810 0.21429 0.19330 -0.41500
O 	O 	0.93230 0.22345 0.21951 -0.35700
O 	O 	0.68790 0.40865 0.69232 -0.48500
O 	O 	0.55050 0.31688 0.64711 -0.36400
O 	O 	0.04920 0.44178 0.70133 -0.51500
O 	O 	0.97170 0.52954 0.63601 -0.27100
O 	O 	0.31600 0.43672 0.61347 -0.43200
O 	O 	0.29070 0.45423 0.51925 -0.42200
O 	O 	0.30190 0.78571 0.69330 -0.42400
O 	O 	0.56770 0.77655 0.71951 -0.38200
