data_crystal

_cell_length_a 22.33260
_cell_length_b 22.33260
_cell_length_c 22.33260
_cell_angle_alpha 109.47100
_cell_angle_beta  109.47100
_cell_angle_gamma 109.47100

_symmetry_space_group_name_	'P 1'
_symmetry_space_group_name_H-M	'P 1'

loop_
_symmetry_equiv_pos_as_xyz
  x,y,z

loop_
_atom_site_label
_atom_site_type_symbol
_atom_site_fract_x
_atom_site_fract_y
_atom_site_fract_z
_atom_site_charge
Cu	Cu	0.90763 0.51319 -0.00000 0.90400
Cu	Cu	0.51319 0.90763 -0.00000 0.90900
Cu	Cu	0.48681 0.48681 0.39444 0.91100
Cu	Cu	0.09237 0.09237 0.60556 0.90900
Cu	Cu	0.39444 0.48681 0.48681 0.91100
Cu	Cu	0.60556 0.09237 0.09237 0.90800
Cu	Cu	0.00000 0.90763 0.51319 0.91300
Cu	Cu	-0.00000 0.51319 0.90763 0.91500
Cu	Cu	0.90763 0.00000 0.51319 0.91100
Cu	Cu	0.51319 -0.00000 0.90763 0.91300
Cu	Cu	0.09237 0.60556 0.09237 0.90900
Cu	Cu	0.48681 0.39444 0.48681 0.91100
Cu	Cu	0.55157 0.00000 0.55157 0.89500
Cu	Cu	0.44843 -0.00000 0.44843 0.89300
Cu	Cu	0.55157 0.55157 -0.00000 0.89100
Cu	Cu	0.44843 0.44843 -0.00000 0.88500
Cu	Cu	0.00000 0.44843 0.44843 0.89500
Cu	Cu	0.00000 0.55157 0.55157 0.89700
H 	H 	0.74480 0.40670 0.85470 0.01900
H 	H 	0.55200 0.89010 0.14530 0.00500
H 	H 	0.44800 0.59330 0.33810 0.00900
H 	H 	0.25520 0.10990 0.66190 0.01100
H 	H 	0.33810 0.44800 0.59330 0.01000
H 	H 	0.66190 0.25520 0.10990 0.02000
H 	H 	0.85470 0.74480 0.40670 0.01400
H 	H 	0.14530 0.55200 0.89010 0.00100
H 	H 	0.89010 0.14530 0.55200 0.00700
H 	H 	0.40670 0.85470 0.74480 0.01600
H 	H 	0.10990 0.66190 0.25520 0.01000
H 	H 	0.59330 0.33810 0.44800 0.00900
H 	H 	0.89010 0.55200 0.14530 0.00700
H 	H 	0.40670 0.74480 0.85470 0.01800
H 	H 	0.10990 0.25520 0.66190 0.01100
H 	H 	0.59330 0.44800 0.33810 0.00900
H 	H 	0.74480 0.85470 0.40670 0.01500
H 	H 	0.55200 0.14530 0.89010 0.01400
H 	H 	0.44800 0.33810 0.59330 0.01000
H 	H 	0.25520 0.66190 0.10990 0.00700
H 	H 	0.33810 0.59330 0.44800 0.01000
H 	H 	0.66190 0.10990 0.25520 0.01000
H 	H 	0.85470 0.40670 0.74480 0.01500
H 	H 	0.14530 0.89010 0.55200 0.00600
H 	H 	0.52860 0.22840 0.52860 0.07800
H 	H 	0.69380 0.24140 0.69380 0.09000
H 	H 	0.70080 0.42780 0.70080 0.09600
H 	H 	0.69980 1.00000 0.47140 0.11800
H 	H 	0.54760 0.00000 0.30620 0.08700
H 	H 	0.72700 0.00000 0.29920 0.09300
H 	H 	0.30020 0.77160 0.30020 0.08000
H 	H 	0.45240 0.75860 0.45240 0.09100
H 	H 	0.27300 0.57220 0.27300 0.08900
H 	H 	0.47140 -0.00000 0.69980 0.07900
H 	H 	0.30620 0.00000 0.54760 0.08400
H 	H 	0.29920 0.00000 0.72700 0.09000
H 	H 	0.30020 0.30020 0.77160 0.08100
H 	H 	0.45240 0.45240 0.75860 0.09200
H 	H 	0.27300 0.27300 0.57220 0.09000
H 	H 	0.69980 0.47140 -0.00000 0.07800
H 	H 	0.54760 0.30620 -0.00000 0.07400
H 	H 	0.72700 0.29920 -0.00000 0.08000
H 	H 	0.52860 0.52860 0.22840 0.07700
H 	H 	0.69380 0.69380 0.24140 0.08900
H 	H 	0.70080 0.70080 0.42780 0.09500
H 	H 	0.47140 0.69980 1.00000 0.13400
H 	H 	0.30620 0.54760 -0.00000 0.09900
H 	H 	0.29920 0.72700 -0.00000 0.04300
H 	H 	-0.00000 0.47140 0.69980 0.07800
H 	H 	0.00000 0.30620 0.54760 0.08400
H 	H 	0.00000 0.29920 0.72700 0.09000
H 	H 	0.22840 0.52860 0.52860 0.07800
H 	H 	0.24140 0.69380 0.69380 0.09100
H 	H 	0.42780 0.70080 0.70080 0.09700
H 	H 	0.00000 0.69980 0.47140 0.07800
H 	H 	-0.00000 0.54760 0.30620 0.08300
H 	H 	0.00000 0.72700 0.29920 0.09000
H 	H 	0.77160 0.30020 0.30020 0.07900
H 	H 	0.75860 0.45240 0.45240 0.09000
H 	H 	0.57220 0.27300 0.27300 0.08900
H 	H 	0.00000 0.48360 -0.00000 0.24900
H 	H 	0.48360 0.00000 -0.00000 0.24900
H 	H 	0.51640 0.51640 0.51640 0.26100
H 	H 	0.00000 0.00000 0.48360 0.25200
C 	C 	0.78321 0.41387 0.84354 0.11400
C 	C 	0.57033 0.93967 0.15646 0.13400
C 	C 	0.42967 0.58613 0.36934 0.11000
C 	C 	0.21679 0.06033 0.63066 0.10800
C 	C 	0.36934 0.42967 0.58613 0.11000
C 	C 	0.63066 0.21679 0.06033 0.07300
C 	C 	0.84354 0.78321 0.41387 0.11300
C 	C 	0.15646 0.57033 0.93967 0.15000
C 	C 	0.93967 0.15646 0.57033 0.12800
C 	C 	0.41387 0.84354 0.78321 0.11400
C 	C 	0.06033 0.63066 0.21679 0.10800
C 	C 	0.58613 0.36934 0.42967 0.11000
C 	C 	0.93967 0.57033 0.15646 0.12500
C 	C 	0.41387 0.78321 0.84354 0.11500
C 	C 	0.06033 0.21679 0.63066 0.10800
C 	C 	0.58613 0.42967 0.36934 0.11000
C 	C 	0.78321 0.84354 0.41387 0.11400
C 	C 	0.57033 0.15646 0.93967 0.11400
C 	C 	0.42967 0.36934 0.58613 0.11000
C 	C 	0.21679 0.63066 0.06033 0.10800
C 	C 	0.36934 0.58613 0.42967 0.11000
C 	C 	0.63066 0.06033 0.21679 0.10800
C 	C 	0.84354 0.41387 0.78321 0.11400
C 	C 	0.15646 0.93967 0.57033 0.13400
C 	C 	0.57680 0.37100 0.57680 0.25900
C 	C 	0.60966 0.33296 0.60966 -0.00800
C 	C 	0.57372 0.25704 0.57372 -0.03800
C 	C 	0.60695 0.22290 0.60695 -0.01800
C 	C 	0.67186 0.26392 0.67186 -0.09400
C 	C 	0.70427 0.33934 0.70427 0.11500
C 	C 	0.67629 0.37578 0.67629 -0.10300
C 	C 	0.56576 0.13912 0.56576 0.32300
C 	C 	0.79420 0.00000 0.42320 0.25000
C 	C 	0.72330 0.00000 0.39034 0.01000
C 	C 	0.68332 -0.00000 0.42628 -0.09100
C 	C 	0.61595 0.00000 0.39305 -0.00200
C 	C 	0.59206 0.00000 0.32814 -0.10700
C 	C 	0.63507 0.00000 0.29573 0.11700
C 	C 	0.69949 0.00000 0.32371 -0.11700
C 	C 	0.57336 0.00000 0.43424 0.31400
C 	C 	0.20580 0.62900 0.20580 0.26100
C 	C 	0.27670 0.66704 0.27670 -0.01100
C 	C 	0.31668 0.74296 0.31668 -0.03800
C 	C 	0.38405 0.77710 0.38405 -0.01600
C 	C 	0.40794 0.73608 0.40794 -0.09400
C 	C 	0.36493 0.66066 0.36493 0.11200
C 	C 	0.30051 0.62422 0.30051 -0.10200
C 	C 	0.42664 0.86088 0.42664 0.32100
C 	C 	0.42320 -0.00000 0.79420 0.23000
C 	C 	0.39034 -0.00000 0.72330 -0.00200
C 	C 	0.42628 0.00000 0.68332 -0.04400
C 	C 	0.39305 0.00000 0.61595 -0.02000
C 	C 	0.32814 0.00000 0.59206 -0.09600
C 	C 	0.29573 0.00000 0.63507 0.11100
C 	C 	0.32371 0.00000 0.69949 -0.10900
C 	C 	0.43424 0.00000 0.57336 0.32100
C 	C 	0.20580 0.20580 0.62900 0.26000
C 	C 	0.27670 0.27670 0.66704 -0.00900
C 	C 	0.31668 0.31668 0.74296 -0.03900
C 	C 	0.38405 0.38405 0.77710 -0.01400
C 	C 	0.40794 0.40794 0.73608 -0.09500
C 	C 	0.36493 0.36493 0.66066 0.11300
C 	C 	0.30051 0.30051 0.62422 -0.10300
C 	C 	0.42664 0.42664 0.86088 0.32100
C 	C 	0.79420 0.42320 -0.00000 0.21500
C 	C 	0.72330 0.39034 -0.00000 -0.00500
C 	C 	0.68332 0.42628 -0.00000 -0.04600
C 	C 	0.61595 0.39305 -0.00000 -0.01700
C 	C 	0.59206 0.32814 -0.00000 -0.09000
C 	C 	0.63507 0.29573 -0.00000 0.08200
C 	C 	0.69949 0.32371 -0.00000 -0.09900
C 	C 	0.57336 0.43424 -0.00000 0.27800
C 	C 	0.57680 0.57680 0.37100 0.26000
C 	C 	0.60966 0.60966 0.33296 -0.00900
C 	C 	0.57372 0.57372 0.25704 -0.03800
C 	C 	0.60695 0.60695 0.22290 -0.02000
C 	C 	0.67186 0.67186 0.26392 -0.09300
C 	C 	0.70427 0.70427 0.33934 0.11400
C 	C 	0.67629 0.67629 0.37578 -0.10300
C 	C 	0.56576 0.56576 0.13912 0.32300
C 	C 	0.42320 0.79420 -0.00000 0.26400
C 	C 	0.39034 0.72330 -0.00000 -0.04200
C 	C 	0.42628 0.68332 -0.00000 -0.10100
C 	C 	0.39305 0.61595 -0.00000 0.00900
C 	C 	0.32814 0.59206 -0.00000 -0.15500
C 	C 	0.29573 0.63507 1.00000 0.15800
C 	C 	0.32371 0.69949 1.00000 -0.01600
C 	C 	0.43424 0.57336 -0.00000 0.30800
C 	C 	-0.00000 0.42320 0.79420 0.25800
C 	C 	0.00000 0.39034 0.72330 -0.01100
C 	C 	-0.00000 0.42628 0.68332 -0.03800
C 	C 	-0.00000 0.39305 0.61595 -0.02200
C 	C 	0.00000 0.32814 0.59206 -0.09300
C 	C 	0.00000 0.29573 0.63507 0.10900
C 	C 	0.00000 0.32371 0.69949 -0.10200
C 	C 	-0.00000 0.43424 0.57336 0.32200
C 	C 	0.37100 0.57680 0.57680 0.25900
C 	C 	0.33296 0.60966 0.60966 -0.00700
C 	C 	0.25704 0.57372 0.57372 -0.03900
C 	C 	0.22290 0.60695 0.60695 -0.01800
C 	C 	0.26392 0.67186 0.67186 -0.09400
C 	C 	0.33934 0.70427 0.70427 0.11600
C 	C 	0.37578 0.67629 0.67629 -0.10400
C 	C 	0.13912 0.56576 0.56576 0.32300
C 	C 	-0.00000 0.79420 0.42320 0.25900
C 	C 	-0.00000 0.72330 0.39034 -0.01200
C 	C 	0.00000 0.68332 0.42628 -0.03800
C 	C 	-0.00000 0.61595 0.39305 -0.02300
C 	C 	0.00000 0.59206 0.32814 -0.09200
C 	C 	0.00000 0.63507 0.29573 0.10800
C 	C 	-0.00000 0.69949 0.32371 -0.10200
C 	C 	-0.00000 0.57336 0.43424 0.32200
C 	C 	0.62900 0.20580 0.20580 0.26100
C 	C 	0.66704 0.27670 0.27670 -0.01100
C 	C 	0.74296 0.31668 0.31668 -0.03800
C 	C 	0.77710 0.38405 0.38405 -0.01700
C 	C 	0.73608 0.40794 0.40794 -0.09300
C 	C 	0.66066 0.36493 0.36493 0.11100
C 	C 	0.62422 0.30051 0.30051 -0.10200
C 	C 	0.86088 0.42664 0.42664 0.32200
Se	Se	-0.00000 0.66880 -0.00000 0.55900
Se	Se	0.66880 0.00000 -0.00000 0.55000
Se	Se	0.33120 0.33120 0.33120 0.60900
Se	Se	-0.00000 -0.00000 0.66880 0.57000
N 	N 	0.85380 0.45235 0.89091 -0.17300
N 	N 	0.56144 0.96289 0.10909 -0.18000
N 	N 	0.43856 0.54765 0.40145 -0.18600
N 	N 	0.14620 0.03711 0.59855 -0.19500
N 	N 	0.40145 0.43856 0.54765 -0.18600
N 	N 	0.59855 0.14620 0.03711 -0.19500
N 	N 	0.89091 0.85380 0.45235 -0.17800
N 	N 	0.10909 0.56144 0.96289 -0.17600
N 	N 	0.96289 0.10909 0.56144 -0.18100
N 	N 	0.45235 0.89091 0.85380 -0.17500
N 	N 	0.03711 0.59855 0.14620 -0.19300
N 	N 	0.54765 0.40145 0.43856 -0.18600
N 	N 	0.96289 0.56144 0.10909 -0.18300
N 	N 	0.45235 0.85380 0.89091 -0.17200
N 	N 	0.03711 0.14620 0.59855 -0.19300
N 	N 	0.54765 0.43856 0.40145 -0.18600
N 	N 	0.85380 0.89091 0.45235 -0.17700
N 	N 	0.56144 0.10909 0.96289 -0.17100
N 	N 	0.43856 0.40145 0.54765 -0.18600
N 	N 	0.14620 0.59855 0.03711 -0.20000
N 	N 	0.40145 0.54765 0.43856 -0.18600
N 	N 	0.59855 0.03711 0.14620 -0.19500
N 	N 	0.89091 0.45235 0.85380 -0.17600
N 	N 	0.10909 0.96289 0.56144 -0.17900
N 	N 	0.77532 0.38614 0.77532 -0.14700
N 	N 	0.61082 -0.00000 0.22468 -0.16100
N 	N 	0.38918 0.61386 0.38918 -0.14800
N 	N 	0.22468 0.00000 0.61082 -0.15900
N 	N 	0.38918 0.38918 0.61386 -0.14700
N 	N 	0.61082 0.22468 1.00000 -0.11100
N 	N 	0.77532 0.77532 0.38614 -0.14700
N 	N 	0.22468 0.61082 -0.00000 -0.18100
N 	N 	-0.00000 0.22468 0.61082 -0.15600
N 	N 	0.38614 0.77532 0.77532 -0.14700
N 	N 	-0.00000 0.61082 0.22468 -0.15600
N 	N 	0.61386 0.38918 0.38918 -0.14800
O 	O 	0.51555 0.33038 0.51555 -0.35600
O 	O 	0.60833 0.44106 0.60833 -0.27000
O 	O 	0.59603 0.10918 0.59603 -0.37900
O 	O 	0.50730 0.10726 0.50730 -0.39800
O 	O 	0.81483 -0.00000 0.48445 -0.35900
O 	O 	0.83273 -0.00000 0.39167 -0.27600
O 	O 	0.51315 0.00000 0.40397 -0.38500
O 	O 	0.59996 0.00000 0.49270 -0.40100
O 	O 	0.18517 0.66962 0.18517 -0.35600
O 	O 	0.16727 0.55894 0.16727 -0.28100
O 	O 	0.48685 0.89082 0.48685 -0.36600
O 	O 	0.40004 0.89274 0.40004 -0.38400
O 	O 	0.48445 0.00000 0.81483 -0.35200
O 	O 	0.39167 1.00000 0.83273 -0.23700
O 	O 	0.40397 0.00000 0.51315 -0.38600
O 	O 	0.49270 0.00000 0.59996 -0.40000
O 	O 	0.18517 0.18517 0.66962 -0.35500
O 	O 	0.16727 0.16727 0.55894 -0.27900
O 	O 	0.48685 0.48685 0.89082 -0.36000
O 	O 	0.40004 0.40004 0.89274 -0.38000
O 	O 	0.81483 0.48445 -0.00000 -0.35400
O 	O 	0.83273 0.39167 1.00000 -0.22300
O 	O 	0.51315 0.40397 1.00000 -0.33100
O 	O 	0.59996 0.49270 -0.00000 -0.39400
O 	O 	0.51555 0.51555 0.33038 -0.35600
O 	O 	0.60833 0.60833 0.44106 -0.27100
O 	O 	0.59603 0.59603 0.10918 -0.38100
O 	O 	0.50730 0.50730 0.10726 -0.40300
O 	O 	0.48445 0.81483 -0.00000 -0.36700
O 	O 	0.39167 0.83273 -0.00000 -0.28300
O 	O 	0.40397 0.51315 -0.00000 -0.38700
O 	O 	0.49270 0.59996 -0.00000 -0.40500
O 	O 	0.00000 0.48445 0.81483 -0.35700
O 	O 	-0.00000 0.39167 0.83273 -0.27300
O 	O 	0.00000 0.40397 0.51315 -0.38500
O 	O 	-0.00000 0.49270 0.59996 -0.39900
O 	O 	0.33038 0.51555 0.51555 -0.35600
O 	O 	0.44106 0.60833 0.60833 -0.27000
O 	O 	0.10918 0.59603 0.59603 -0.37800
O 	O 	0.10726 0.50730 0.50730 -0.39800
O 	O 	-0.00000 0.81483 0.48445 -0.35700
O 	O 	0.00000 0.83273 0.39167 -0.27500
O 	O 	0.00000 0.51315 0.40397 -0.38500
O 	O 	0.00000 0.59996 0.49270 -0.39900
O 	O 	0.66962 0.18517 0.18517 -0.35600
O 	O 	0.55894 0.16727 0.16727 -0.28100
O 	O 	0.89082 0.48685 0.48685 -0.36900
O 	O 	0.89274 0.40004 0.40004 -0.38800
O 	O 	0.00000 0.52074 -0.00000 -0.74300
O 	O 	-0.00000 0.74238 -0.00000 -0.21300
O 	O 	0.52074 0.00000 -0.00000 -0.74500
O 	O 	0.74238 0.00000 -0.00000 -0.21500
O 	O 	0.47926 0.47926 0.47926 -0.72500
O 	O 	0.25762 0.25762 0.25762 -0.21800
O 	O 	-0.00000 -0.00000 0.52074 -0.73900
O 	O 	-0.00000 -0.00000 0.74238 -0.20900
O 	O 	0.92724 0.61984 -0.00000 -0.32600
O 	O 	0.61984 0.92724 -0.00000 -0.32100
O 	O 	0.38016 0.38016 0.30740 -0.33900
O 	O 	0.07276 0.07276 0.69260 -0.33100
O 	O 	0.30740 0.38016 0.38016 -0.33800
O 	O 	0.69260 0.07276 0.07276 -0.33200
O 	O 	-0.00000 0.92724 0.61984 -0.31700
O 	O 	-0.00000 0.61984 0.92724 -0.30800
O 	O 	0.92724 0.00000 0.61984 -0.32300
O 	O 	0.61984 -0.00000 0.92724 -0.30700
O 	O 	0.07276 0.69260 0.07276 -0.33200
O 	O 	0.38016 0.30740 0.38016 -0.33900
