data_crystal

_cell_length_a 7.82920
_cell_length_b 9.36210
_cell_length_c 15.14670
_cell_angle_alpha 94.70300
_cell_angle_beta  102.88900
_cell_angle_gamma 101.23100

_symmetry_space_group_name_	'P 1'
_symmetry_space_group_name_H-M	'P 1'

loop_
_symmetry_equiv_pos_as_xyz
  x,y,z

loop_
_atom_site_label
_atom_site_type_symbol
_atom_site_fract_x
_atom_site_fract_y
_atom_site_fract_z
_atom_site_charge
C 	C 	0.67470 0.57090 0.89570 0.30000
C 	C 	0.52130 0.53910 0.81130 -0.02000
C 	C 	0.42540 0.64800 0.78840 -0.08300
H 	H 	0.46060 0.74190 0.82410 0.08900
C 	C 	0.27900 0.61820 0.71350 0.09400
C 	C 	0.22170 0.48110 0.66090 -0.08100
H 	H 	0.11710 0.46110 0.61190 0.04800
C 	C 	0.31930 0.37330 0.68080 -0.04100
C 	C 	0.46980 0.40280 0.75560 -0.02100
H 	H 	0.53740 0.32980 0.76860 0.07100
C 	C 	0.26520 0.22600 0.62180 0.29900
C 	C 	0.14080 0.77190 0.60180 0.09900
H 	H 	0.15630 0.72080 0.54840 -0.01700
C 	C 	0.13880 0.83710 0.74310 0.12000
C 	C 	0.15340 0.83620 0.84150 -0.05400
C 	C 	0.22750 0.96350 0.90390 0.01000
H 	H 	0.26900 0.05430 0.88360 0.01000
C 	C 	0.23960 0.95500 0.99650 0.04800
H 	H 	0.28790 0.03990 0.04050 -0.01400
C 	C 	0.17860 0.81810 0.02300 -0.04800
H 	H 	0.19020 0.81110 0.08620 0.03100
C 	C 	0.09220 0.70590 0.87390 0.02500
H 	H 	0.03950 0.61990 0.83120 -0.00800
N 	N 	0.18540 0.73470 0.68710 -0.15200
N 	N 	0.07320 0.88890 0.60420 -0.18900
N 	N 	0.07160 0.93230 0.69360 -0.10200
N 	N 	0.10450 0.69650 0.96280 -0.19300
O 	O 	0.69300 0.68330 0.95030 -0.23300
O 	O 	0.77700 0.47810 0.90294 -0.32400
O 	O 	0.38040 0.15000 0.61960 -0.27000
O 	O 	0.10030 0.18970 0.57684 -0.42700
C 	C 	0.32530 0.42910 0.10430 0.29500
C 	C 	0.47870 0.46090 0.18870 -0.03700
C 	C 	0.57460 0.35200 0.21160 -0.09500
H 	H 	0.53940 0.25810 0.17590 0.07200
C 	C 	0.72100 0.38180 0.28650 0.11100
C 	C 	0.77830 0.51890 0.33910 -0.09600
H 	H 	0.88290 0.53890 0.38810 0.11100
C 	C 	0.68070 0.62670 0.31920 -0.01000
C 	C 	0.53020 0.59720 0.24440 -0.03200
H 	H 	0.46260 0.67020 0.23140 0.06200
C 	C 	0.73480 0.77400 0.37820 0.28400
C 	C 	0.85920 0.22810 0.39820 0.11700
H 	H 	0.84370 0.27920 0.45160 0.02600
C 	C 	0.86120 0.16290 0.25690 0.13300
C 	C 	0.84660 0.16380 0.15850 -0.04500
C 	C 	0.77250 0.03650 0.09610 0.01000
H 	H 	0.73100 0.94570 0.11640 0.07300
C 	C 	0.76040 0.04500 0.00350 -0.21200
H 	H 	0.71210 0.96010 0.95950 0.16900
C 	C 	0.82140 0.18190 0.97700 0.15500
H 	H 	0.80980 0.18890 0.91380 0.00200
C 	C 	0.90780 0.29410 0.12610 0.06300
H 	H 	0.96050 0.38010 0.16880 0.04400
N 	N 	0.81460 0.26530 0.31290 -0.15100
N 	N 	0.92680 0.11110 0.39580 -0.15300
N 	N 	0.92840 0.06770 0.30640 -0.08700
N 	N 	0.89550 0.30350 0.03720 -0.19500
O 	O 	0.30700 0.31670 0.04970 -0.30200
O 	O 	0.22300 0.52190 0.09706 -0.41300
O 	O 	0.61960 0.85000 0.38040 -0.23900
O 	O 	0.89970 0.81030 0.42316 -0.29500
Cu	Cu	-0.00000 0.50000 -0.00000 0.83400
Cu	Cu	-0.00000 0.00000 0.50000 0.83400
