data_crystal

_cell_length_a 8.02310
_cell_length_b 9.53040
_cell_length_c 15.47140
_cell_angle_alpha 96.70900
_cell_angle_beta  103.63700
_cell_angle_gamma 99.06300

_symmetry_space_group_name_	'P 1'
_symmetry_space_group_name_H-M	'P 1'

loop_
_symmetry_equiv_pos_as_xyz
  x,y,z

loop_
_atom_site_label
_atom_site_type_symbol
_atom_site_fract_x
_atom_site_fract_y
_atom_site_fract_z
_atom_site_charge
Co	Co	-0.00000 0.50000 -0.00000 1.04200
Co	Co	0.00000 0.00000 0.50000 1.03300
H 	H 	0.44500 0.74390 0.83390 0.08700
H 	H 	0.11310 0.46650 0.62120 0.03800
H 	H 	0.52430 0.33640 0.77790 0.06800
H 	H 	0.15650 0.71900 0.55940 -0.02800
H 	H 	0.23820 0.05700 0.88890 -0.00100
H 	H 	0.26430 0.04050 0.04400 -0.04300
H 	H 	0.17190 0.82440 0.08480 0.02500
H 	H 	0.03370 0.62920 0.83270 -0.02300
H 	H 	0.55500 0.25610 0.16610 0.06800
H 	H 	0.88690 0.53350 0.37880 0.11300
H 	H 	0.47570 0.66360 0.22210 0.06000
H 	H 	0.84350 0.28100 0.44060 0.02000
H 	H 	0.76180 0.94300 0.11110 0.08300
H 	H 	0.73570 0.95950 0.95600 0.18900
H 	H 	0.82810 0.17560 0.91520 -0.01000
H 	H 	0.96630 0.37080 0.16730 0.03800
C 	C 	0.65950 0.57220 0.90310 0.30600
C 	C 	0.50480 0.54300 0.81980 -0.02500
C 	C 	0.41150 0.65100 0.79810 -0.08100
C 	C 	0.26770 0.62080 0.72290 0.08800
C 	C 	0.21450 0.48590 0.67040 -0.07800
C 	C 	0.31110 0.37850 0.69040 -0.05600
C 	C 	0.45690 0.40840 0.76470 -0.01700
C 	C 	0.26070 0.23370 0.63150 0.30900
C 	C 	0.13810 0.77150 0.61130 0.09000
C 	C 	0.12820 0.83930 0.74910 0.11800
C 	C 	0.13830 0.84090 0.84540 -0.05800
C 	C 	0.20390 0.96780 0.90750 0.00800
C 	C 	0.21700 0.95770 0.99910 0.08300
C 	C 	0.16140 0.82850 0.02270 -0.08000
C 	C 	0.08180 0.71410 0.87590 0.01900
C 	C 	0.34050 0.42780 0.09690 0.30000
C 	C 	0.49520 0.45700 0.18020 -0.04100
C 	C 	0.58850 0.34900 0.20190 -0.09600
C 	C 	0.73230 0.37920 0.27710 0.10900
C 	C 	0.78550 0.51410 0.32960 -0.09600
C 	C 	0.68890 0.62150 0.30960 -0.01600
C 	C 	0.54310 0.59160 0.23530 -0.03100
C 	C 	0.73930 0.76630 0.36850 0.29100
C 	C 	0.86190 0.22850 0.38870 0.11100
C 	C 	0.87180 0.16070 0.25090 0.13200
C 	C 	0.86170 0.15910 0.15460 -0.04300
C 	C 	0.79610 0.03220 0.09250 0.00600
C 	C 	0.78300 0.04230 0.00090 -0.24400
C 	C 	0.83860 0.17150 0.97730 0.18000
C 	C 	0.91820 0.28590 0.12410 0.06300
N 	N 	0.17730 0.73540 0.69608 -0.15300
N 	N 	0.07210 0.88770 0.61204 -0.21100
N 	N 	0.06410 0.93250 0.69959 -0.11100
N 	N 	0.09190 0.70560 0.96290 -0.21300
N 	N 	0.82270 0.26460 0.30392 -0.15100
N 	N 	0.92790 0.11230 0.38796 -0.17000
N 	N 	0.93590 0.06750 0.30041 -0.09100
N 	N 	0.90810 0.29440 0.03710 -0.21300
O 	O 	0.67360 0.67960 0.96138 -0.23900
O 	O 	0.76150 0.48160 0.90682 -0.35300
O 	O 	0.37780 0.15790 0.63272 -0.28700
O 	O 	0.10470 0.19760 0.58259 -0.47600
O 	O 	0.32640 0.32040 0.03862 -0.31500
O 	O 	0.23850 0.51840 0.09318 -0.45600
O 	O 	0.62220 0.84210 0.36728 -0.25100
O 	O 	0.89530 0.80240 0.41741 -0.32000
