data_crystal

_cell_length_a 8.23310
_cell_length_b 10.86510
_cell_length_c 28.55820
_cell_angle_alpha 90.00000
_cell_angle_beta  90.00000
_cell_angle_gamma 90.00000

_symmetry_space_group_name_	'P 1'
_symmetry_space_group_name_H-M	'P 1'

loop_
_symmetry_equiv_pos_as_xyz
  x,y,z

loop_
_atom_site_label
_atom_site_type_symbol
_atom_site_fract_x
_atom_site_fract_y
_atom_site_fract_z
_atom_site_charge
U 	U 	0.64761 0.66651 0.92779 0.02100
U 	U 	0.39659 0.16786 0.92975 0.01600
U 	U 	0.28146 0.55706 0.75086 0.01700
U 	U 	0.85239 0.33349 0.42779 0.02200
U 	U 	0.10341 0.83214 0.42975 0.01600
U 	U 	0.21854 0.44294 0.25086 0.01600
U 	U 	0.35239 0.16651 0.57221 0.02200
U 	U 	0.60341 0.66786 0.57025 0.01700
U 	U 	0.71854 0.05706 0.74914 0.01700
U 	U 	0.14761 0.83349 0.07221 0.02200
U 	U 	0.89659 0.33214 0.07025 0.01700
U 	U 	0.78146 0.94294 0.24914 0.01700
H 	H 	0.33400 0.78660 0.96180 0.24400
H 	H 	0.70690 0.25210 0.96350 0.22600
H 	H 	0.09340 0.87750 0.91830 0.20500
H 	H 	0.04820 0.81400 0.87050 0.21400
H 	H 	0.20240 0.55360 0.93740 0.22100
H 	H 	0.05780 0.59190 0.90490 0.22700
H 	H 	0.95370 0.36710 0.91290 0.21700
H 	H 	0.98420 0.30350 0.86450 0.22200
H 	H 	0.98680 0.09420 0.90190 0.22600
H 	H 	0.84000 0.05510 0.93340 0.21900
H 	H 	0.16600 0.21340 0.46180 0.24400
H 	H 	0.79310 0.74790 0.46350 0.22600
H 	H 	0.40660 0.12250 0.41830 0.20600
H 	H 	0.45180 0.18600 0.37050 0.21400
H 	H 	0.29760 0.44640 0.43740 0.22100
H 	H 	0.44220 0.40810 0.40490 0.22700
H 	H 	0.54630 0.63290 0.41290 0.21700
H 	H 	0.51580 0.69650 0.36450 0.22200
H 	H 	0.51320 0.90580 0.40190 0.22700
H 	H 	0.66000 0.94490 0.43340 0.22000
H 	H 	0.66600 0.28660 0.53820 0.24400
H 	H 	0.29310 0.75210 0.53650 0.22600
H 	H 	0.90660 0.37750 0.58170 0.20600
H 	H 	0.95180 0.31400 0.62950 0.21500
H 	H 	0.79760 0.05360 0.56260 0.22100
H 	H 	0.94220 0.09190 0.59510 0.22600
H 	H 	0.04630 0.86710 0.58710 0.21600
H 	H 	0.01580 0.80350 0.63550 0.22200
H 	H 	0.01320 0.59420 0.59810 0.22700
H 	H 	0.16000 0.55510 0.56660 0.21900
H 	H 	0.83400 0.71340 0.03820 0.24400
H 	H 	0.20690 0.24790 0.03650 0.22600
H 	H 	0.59340 0.62250 0.08170 0.20600
H 	H 	0.54820 0.68600 0.12950 0.21500
H 	H 	0.70240 0.94640 0.06260 0.22200
H 	H 	0.55780 0.90810 0.09510 0.22700
H 	H 	0.45370 0.13290 0.08710 0.21700
H 	H 	0.48420 0.19650 0.13550 0.22200
H 	H 	0.48680 0.40580 0.09810 0.22700
H 	H 	0.34000 0.44490 0.06660 0.21900
C 	C 	0.24400 0.72220 0.90460 0.31200
C 	C 	0.31940 0.65930 0.86120 0.18800
C 	C 	0.13780 0.83900 0.89040 -0.48400
C 	C 	0.24490 0.92870 0.86480 0.41200
C 	C 	0.13480 0.62220 0.92780 -0.52500
C 	C 	0.04330 0.66910 0.96960 0.42200
C 	C 	0.80210 0.22310 0.90130 0.33400
C 	C 	0.71590 0.16310 0.85980 0.17100
C 	C 	0.90040 0.33140 0.88590 -0.51300
C 	C 	0.79800 0.43130 0.86150 0.43100
C 	C 	0.90850 0.12390 0.92460 -0.53500
C 	C 	0.99870 0.16790 0.96750 0.40900
C 	C 	0.25600 0.27780 0.40460 0.31300
C 	C 	0.18060 0.34070 0.36120 0.18800
C 	C 	0.36220 0.16100 0.39040 -0.48500
C 	C 	0.25510 0.07130 0.36480 0.41500
C 	C 	0.36520 0.37780 0.42780 -0.52600
C 	C 	0.45670 0.33090 0.46960 0.42300
C 	C 	0.69790 0.77690 0.40130 0.33400
C 	C 	0.78410 0.83690 0.35980 0.17100
C 	C 	0.59960 0.66860 0.38590 -0.51300
C 	C 	0.70200 0.56870 0.36150 0.43100
C 	C 	0.59150 0.87610 0.42460 -0.53600
C 	C 	0.50130 0.83210 0.46750 0.41100
C 	C 	0.75600 0.22220 0.59540 0.31300
C 	C 	0.68060 0.15930 0.63880 0.18800
C 	C 	0.86220 0.33900 0.60960 -0.48500
C 	C 	0.75510 0.42870 0.63520 0.41500
C 	C 	0.86520 0.12220 0.57220 -0.52500
C 	C 	0.95670 0.16910 0.53040 0.42100
C 	C 	0.19790 0.72310 0.59870 0.33300
C 	C 	0.28410 0.66310 0.64020 0.17100
C 	C 	0.09960 0.83140 0.61410 -0.51200
C 	C 	0.20200 0.93130 0.63850 0.42800
C 	C 	0.09150 0.62390 0.57540 -0.53500
C 	C 	0.00130 0.66790 0.53250 0.41000
C 	C 	0.74400 0.77780 0.09540 0.31300
C 	C 	0.81940 0.84070 0.13880 0.18700
C 	C 	0.63780 0.66100 0.10960 -0.48500
C 	C 	0.74490 0.57130 0.13520 0.41500
C 	C 	0.63480 0.87780 0.07220 -0.52600
C 	C 	0.54330 0.83090 0.03040 0.42300
C 	C 	0.30210 0.27690 0.09870 0.33400
C 	C 	0.21590 0.33690 0.14020 0.17100
C 	C 	0.40040 0.16860 0.11410 -0.51300
C 	C 	0.29800 0.06870 0.13850 0.43100
C 	C 	0.40850 0.37610 0.07540 -0.53600
C 	C 	0.49870 0.33210 0.03250 0.41100
O 	O 	0.37350 0.75980 0.93380 -0.32100
O 	O 	0.46920 0.64270 0.86250 -0.11700
O 	O 	0.22670 0.62870 0.82870 -0.15200
O 	O 	0.25290 0.03840 0.88110 -0.21300
O 	O 	0.31300 0.89680 0.82750 -0.19200
O 	O 	0.89320 0.64690 0.97280 -0.23200
O 	O 	0.12190 0.72340 0.00070 -0.23700
O 	O 	0.67260 0.26420 0.93240 -0.29800
O 	O 	0.56540 0.14440 0.86290 -0.11200
O 	O 	0.80340 0.13020 0.82590 -0.14600
O 	O 	0.79680 0.53940 0.87750 -0.22300
O 	O 	0.72220 0.40040 0.82580 -0.19700
O 	O 	0.91880 0.22670 0.99850 -0.23200
O 	O 	0.14740 0.14550 0.97160 -0.22600
O 	O 	0.12650 0.24020 0.43380 -0.32100
O 	O 	0.03080 0.35730 0.36250 -0.11700
O 	O 	0.27330 0.37130 0.32870 -0.15200
O 	O 	0.24710 0.96160 0.38110 -0.21600
O 	O 	0.18700 0.10320 0.32750 -0.19300
O 	O 	0.60680 0.35310 0.47280 -0.23300
O 	O 	0.37810 0.27660 0.50070 -0.23700
O 	O 	0.82740 0.73580 0.43240 -0.29800
O 	O 	0.93460 0.85560 0.36290 -0.11200
O 	O 	0.69660 0.86980 0.32590 -0.14600
O 	O 	0.70320 0.46060 0.37750 -0.22300
O 	O 	0.77780 0.59960 0.32580 -0.19800
O 	O 	0.58120 0.77330 0.49850 -0.23200
O 	O 	0.35260 0.85450 0.47160 -0.22700
O 	O 	0.62650 0.25980 0.56620 -0.32100
O 	O 	0.53080 0.14270 0.63750 -0.11600
O 	O 	0.77330 0.12870 0.67130 -0.15200
O 	O 	0.74710 0.53840 0.61890 -0.21500
O 	O 	0.68700 0.39680 0.67250 -0.19200
O 	O 	0.10680 0.14690 0.52720 -0.23200
O 	O 	0.87810 0.22340 0.49930 -0.23700
O 	O 	0.32740 0.76420 0.56760 -0.29800
O 	O 	0.43460 0.64440 0.63710 -0.11300
O 	O 	0.19660 0.63020 0.67410 -0.14600
O 	O 	0.20320 0.03940 0.62250 -0.22100
O 	O 	0.27780 0.90040 0.67420 -0.19700
O 	O 	0.08120 0.72670 0.50150 -0.23200
O 	O 	0.85260 0.64550 0.52840 -0.22600
O 	O 	0.87350 0.74020 0.06620 -0.32100
O 	O 	0.96920 0.85730 0.13750 -0.11600
O 	O 	0.72670 0.87130 0.17130 -0.15100
O 	O 	0.75290 0.46160 0.11890 -0.21600
O 	O 	0.81300 0.60320 0.17250 -0.19300
O 	O 	0.39320 0.85310 0.02720 -0.23400
O 	O 	0.62190 0.77660 0.99930 -0.23700
O 	O 	0.17260 0.23580 0.06760 -0.29800
O 	O 	0.06540 0.35560 0.13710 -0.11300
O 	O 	0.30340 0.36980 0.17410 -0.14700
O 	O 	0.29680 0.96060 0.12250 -0.22300
O 	O 	0.22220 0.09960 0.17420 -0.19800
O 	O 	0.41880 0.27330 0.00150 -0.23200
O 	O 	0.64740 0.35450 0.02840 -0.22700
