data_crystal

_cell_length_a 13.16800
_cell_length_b 24.39000
_cell_length_c 15.89100
_cell_angle_alpha 90.00000
_cell_angle_beta  90.00000
_cell_angle_gamma 90.00000

_symmetry_space_group_name_	'P 1'
_symmetry_space_group_name_H-M	'P 1'

loop_
_symmetry_equiv_pos_as_xyz
  x,y,z

loop_
_atom_site_label
_atom_site_type_symbol
_atom_site_fract_x
_atom_site_fract_y
_atom_site_fract_z
_atom_site_charge
Cd	Cd	0.89816 0.72754 0.98623 1.17500
Cd	Cd	0.78599 0.47529 0.11054 1.16500
Cd	Cd	0.60184 0.77246 0.48623 1.17500
Cd	Cd	0.71401 0.02471 0.61054 1.16500
Cd	Cd	0.89816 0.27246 0.51377 1.17500
Cd	Cd	0.78599 0.52471 0.38946 1.16500
Cd	Cd	0.60184 0.22754 0.01377 1.17600
Cd	Cd	0.71401 0.97529 0.88946 1.16600
Cd	Cd	0.10184 0.27246 0.01377 1.17600
Cd	Cd	0.21401 0.52471 0.88946 1.16600
Cd	Cd	0.39816 0.22754 0.51377 1.17600
Cd	Cd	0.28599 0.97529 0.38946 1.16600
Cd	Cd	0.10184 0.72754 0.48623 1.17600
Cd	Cd	0.21401 0.47529 0.61054 1.16600
Cd	Cd	0.39816 0.77246 0.98623 1.17600
Cd	Cd	0.28599 0.02471 0.11054 1.16600
H 	H 	0.90140 0.75330 0.77360 -0.02300
H 	H 	0.61840 0.70300 0.99810 -0.02900
H 	H 	0.88220 0.07470 0.83440 -0.01800
H 	H 	0.88800 0.64540 0.31800 -0.02000
H 	H 	0.05170 0.09500 0.83350 0.06700
H 	H 	0.10670 0.94150 0.91400 0.07700
H 	H 	0.16820 0.02680 0.87270 -0.00100
H 	H 	0.80000 0.57510 0.76870 0.07100
H 	H 	0.86120 0.71410 0.64750 0.06600
H 	H 	0.81760 0.62280 0.64300 -0.01100
H 	H 	0.59860 0.74670 0.27360 -0.02300
H 	H 	0.88160 0.79700 0.49810 -0.02900
H 	H 	0.61780 0.42530 0.33440 -0.01800
H 	H 	0.61200 0.85460 0.81800 -0.02000
H 	H 	0.44830 0.40500 0.33350 0.06700
H 	H 	0.39330 0.55850 0.41400 0.07700
H 	H 	0.33180 0.47320 0.37270 -0.00200
H 	H 	0.70000 0.92490 0.26870 0.07100
H 	H 	0.63880 0.78590 0.14750 0.06600
H 	H 	0.68240 0.87720 0.14300 -0.01100
H 	H 	0.90140 0.24670 0.72640 -0.02300
H 	H 	0.61840 0.29700 0.50190 -0.02900
H 	H 	0.88220 0.92530 0.66560 -0.01800
H 	H 	0.88800 0.35460 0.18200 -0.02000
H 	H 	0.05170 0.90500 0.66650 0.06600
H 	H 	0.10670 0.05850 0.58600 0.07600
H 	H 	0.16820 0.97320 0.62730 -0.00100
H 	H 	0.80000 0.42490 0.73130 0.07100
H 	H 	0.86120 0.28590 0.85250 0.06600
H 	H 	0.81760 0.37720 0.85700 -0.01100
H 	H 	0.59860 0.25330 0.22640 -0.02300
H 	H 	0.88160 0.20300 0.00190 -0.02900
H 	H 	0.61780 0.57470 0.16560 -0.01800
H 	H 	0.61200 0.14540 0.68200 -0.02000
H 	H 	0.44830 0.59500 0.16650 0.06700
H 	H 	0.39330 0.44150 0.08600 0.07700
H 	H 	0.33180 0.52680 0.12730 -0.00200
H 	H 	0.70000 0.07510 0.23130 0.07100
H 	H 	0.63880 0.21410 0.35250 0.06600
H 	H 	0.68240 0.12280 0.35700 -0.01100
H 	H 	0.09860 0.24670 0.22640 -0.02300
H 	H 	0.38160 0.29700 0.00190 -0.02900
H 	H 	0.11780 0.92530 0.16560 -0.01800
H 	H 	0.11200 0.35460 0.68200 -0.02000
H 	H 	0.94830 0.90500 0.16650 0.06700
H 	H 	0.89330 0.05850 0.08600 0.07700
H 	H 	0.83180 0.97320 0.12730 -0.00100
H 	H 	0.20000 0.42490 0.23130 0.07100
H 	H 	0.13880 0.28590 0.35250 0.06600
H 	H 	0.18240 0.37720 0.35700 -0.01100
H 	H 	0.40140 0.25330 0.72640 -0.02300
H 	H 	0.11840 0.20300 0.50190 -0.02900
H 	H 	0.38220 0.57470 0.66560 -0.01800
H 	H 	0.38800 0.14540 0.18200 -0.02000
H 	H 	0.55170 0.59500 0.66650 0.06700
H 	H 	0.60670 0.44150 0.58600 0.07700
H 	H 	0.66820 0.52680 0.62730 -0.00200
H 	H 	0.30000 0.07510 0.73130 0.07100
H 	H 	0.36120 0.21410 0.85250 0.06600
H 	H 	0.31760 0.12280 0.85700 -0.01100
H 	H 	0.09860 0.75330 0.27360 -0.02300
H 	H 	0.38160 0.70300 0.49810 -0.02900
H 	H 	0.11780 0.07470 0.33440 -0.01800
H 	H 	0.11200 0.64540 0.81800 -0.02000
H 	H 	0.94830 0.09500 0.33350 0.06600
H 	H 	0.89330 0.94150 0.41400 0.07600
H 	H 	0.83180 0.02680 0.37270 -0.00100
H 	H 	0.20000 0.57510 0.26870 0.07100
H 	H 	0.13880 0.71410 0.14750 0.06600
H 	H 	0.18240 0.62280 0.14300 -0.01100
H 	H 	0.40140 0.74670 0.77360 -0.02300
H 	H 	0.11840 0.79700 0.99810 -0.02900
H 	H 	0.38220 0.42530 0.83440 -0.01800
H 	H 	0.38800 0.85460 0.31800 -0.02000
H 	H 	0.55170 0.40500 0.83350 0.06700
H 	H 	0.60670 0.55850 0.91400 0.07700
H 	H 	0.66820 0.47320 0.87270 -0.00200
H 	H 	0.30000 0.92490 0.76870 0.07100
H 	H 	0.36120 0.78590 0.64750 0.06600
H 	H 	0.31760 0.87720 0.64300 -0.01100
C 	C 	0.87990 0.71700 0.77270 0.07800
C 	C 	0.71890 0.81219 0.96940 0.03600
C 	C 	0.84600 0.59982 0.14700 0.03600
C 	C 	0.83780 0.59607 0.05600 0.05400
C 	C 	0.83490 0.60978 0.92550 0.04800
C 	C 	0.84330 0.63780 0.84320 0.05300
C 	C 	0.63580 0.73950 0.98920 0.08600
C 	C 	0.95770 0.96020 0.89660 0.04900
C 	C 	0.80850 0.84634 0.95320 0.05700
C 	C 	0.91350 0.90688 0.92170 0.05600
C 	C 	0.92780 0.04770 0.85090 0.07100
C 	C 	0.87070 0.62460 0.27110 0.08600
C 	C 	0.02960 0.06040 0.84970 -0.13000
C 	C 	0.06240 0.96910 0.89750 -0.12200
C 	C 	0.09880 0.01980 0.87320 0.04500
C 	C 	0.82090 0.61150 0.76870 -0.14000
C 	C 	0.85760 0.69360 0.69670 -0.16200
C 	C 	0.83010 0.64000 0.69420 0.06100
C 	C 	0.62010 0.78300 0.27270 0.07800
C 	C 	0.78110 0.68781 0.46940 0.03700
C 	C 	0.65400 0.90018 0.64700 0.03700
C 	C 	0.66220 0.90393 0.55600 0.05200
C 	C 	0.66510 0.89022 0.42550 0.04800
C 	C 	0.65670 0.86220 0.34320 0.05400
C 	C 	0.86420 0.76050 0.48920 0.08600
C 	C 	0.54230 0.53980 0.39660 0.05100
C 	C 	0.69150 0.65366 0.45320 0.05700
C 	C 	0.58650 0.59312 0.42170 0.05700
C 	C 	0.57220 0.45230 0.35090 0.07200
C 	C 	0.62930 0.87540 0.77110 0.08500
C 	C 	0.47040 0.43960 0.34970 -0.13200
C 	C 	0.43760 0.53090 0.39750 -0.12300
C 	C 	0.40120 0.48020 0.37320 0.04400
C 	C 	0.67910 0.88850 0.26870 -0.14000
C 	C 	0.64240 0.80640 0.19670 -0.16200
C 	C 	0.66990 0.86000 0.19420 0.06100
C 	C 	0.87990 0.28300 0.72730 0.07800
C 	C 	0.71890 0.18781 0.53060 0.03700
C 	C 	0.84600 0.40018 0.35300 0.03700
C 	C 	0.83780 0.40393 0.44400 0.05200
C 	C 	0.83490 0.39022 0.57450 0.04800
C 	C 	0.84330 0.36220 0.65680 0.05300
C 	C 	0.63580 0.26050 0.51080 0.08600
C 	C 	0.95770 0.03980 0.60340 0.05000
C 	C 	0.80850 0.15366 0.54680 0.05700
C 	C 	0.91350 0.09312 0.57830 0.05700
C 	C 	0.92780 0.95230 0.64910 0.06900
C 	C 	0.87070 0.37540 0.22890 0.08600
C 	C 	0.02960 0.93960 0.65030 -0.13000
C 	C 	0.06240 0.03090 0.60250 -0.12100
C 	C 	0.09880 0.98020 0.62680 0.04100
C 	C 	0.82090 0.38850 0.73130 -0.14000
C 	C 	0.85760 0.30640 0.80330 -0.16200
C 	C 	0.83010 0.36000 0.80580 0.06100
C 	C 	0.62010 0.21700 0.22730 0.07800
C 	C 	0.78110 0.31219 0.03060 0.03700
C 	C 	0.65400 0.09982 0.85300 0.03700
C 	C 	0.66220 0.09607 0.94400 0.05300
C 	C 	0.66510 0.10978 0.07450 0.04800
C 	C 	0.65670 0.13780 0.15680 0.05400
C 	C 	0.86420 0.23950 0.01080 0.08700
C 	C 	0.54230 0.46020 0.10340 0.05100
C 	C 	0.69150 0.34634 0.04680 0.05700
C 	C 	0.58650 0.40688 0.07830 0.05700
C 	C 	0.57220 0.54770 0.14910 0.07200
C 	C 	0.62930 0.12460 0.72890 0.08600
C 	C 	0.47040 0.56040 0.15030 -0.13200
C 	C 	0.43760 0.46910 0.10250 -0.12300
C 	C 	0.40120 0.51980 0.12680 0.04400
C 	C 	0.67910 0.11150 0.23130 -0.14000
C 	C 	0.64240 0.19360 0.30330 -0.16200
C 	C 	0.66990 0.14000 0.30580 0.06100
C 	C 	0.12010 0.28300 0.22730 0.07800
C 	C 	0.28110 0.18781 0.03060 0.03600
C 	C 	0.15400 0.40018 0.85300 0.03600
C 	C 	0.16220 0.40393 0.94400 0.05400
C 	C 	0.16510 0.39022 0.07450 0.04800
C 	C 	0.15670 0.36220 0.15680 0.05300
C 	C 	0.36420 0.26050 0.01080 0.08600
C 	C 	0.04230 0.03980 0.10340 0.04900
C 	C 	0.19150 0.15366 0.04680 0.05700
C 	C 	0.08650 0.09312 0.07830 0.05600
C 	C 	0.07220 0.95230 0.14910 0.07100
C 	C 	0.12930 0.37540 0.72890 0.08600
C 	C 	0.97040 0.93960 0.15030 -0.13000
C 	C 	0.93760 0.03090 0.10250 -0.12200
C 	C 	0.90120 0.98020 0.12680 0.04500
C 	C 	0.17910 0.38850 0.23130 -0.14000
C 	C 	0.14240 0.30640 0.30330 -0.16200
C 	C 	0.16990 0.36000 0.30580 0.06100
C 	C 	0.37990 0.21700 0.72730 0.07800
C 	C 	0.21890 0.31219 0.53060 0.03700
C 	C 	0.34600 0.09982 0.35300 0.03700
C 	C 	0.33780 0.09607 0.44400 0.05200
C 	C 	0.33490 0.10978 0.57450 0.04800
C 	C 	0.34330 0.13780 0.65680 0.05400
C 	C 	0.13580 0.23950 0.51080 0.08600
C 	C 	0.45770 0.46020 0.60340 0.05100
C 	C 	0.30850 0.34634 0.54680 0.05700
C 	C 	0.41350 0.40688 0.57830 0.05700
C 	C 	0.42780 0.54770 0.64910 0.07200
C 	C 	0.37070 0.12460 0.22890 0.08500
C 	C 	0.52960 0.56040 0.65030 -0.13200
C 	C 	0.56240 0.46910 0.60250 -0.12300
C 	C 	0.59880 0.51980 0.62680 0.04400
C 	C 	0.32090 0.11150 0.73130 -0.14000
C 	C 	0.35760 0.19360 0.80330 -0.16200
C 	C 	0.33010 0.14000 0.80580 0.06100
C 	C 	0.12010 0.71700 0.27270 0.07800
C 	C 	0.28110 0.81219 0.46940 0.03700
C 	C 	0.15400 0.59982 0.64700 0.03700
C 	C 	0.16220 0.59607 0.55600 0.05200
C 	C 	0.16510 0.60978 0.42550 0.04800
C 	C 	0.15670 0.63780 0.34320 0.05300
C 	C 	0.36420 0.73950 0.48920 0.08600
C 	C 	0.04230 0.96020 0.39660 0.05000
C 	C 	0.19150 0.84634 0.45320 0.05700
C 	C 	0.08650 0.90688 0.42170 0.05700
C 	C 	0.07220 0.04770 0.35090 0.06900
C 	C 	0.12930 0.62460 0.77110 0.08600
C 	C 	0.97040 0.06040 0.34970 -0.13000
C 	C 	0.93760 0.96910 0.39750 -0.12100
C 	C 	0.90120 0.01980 0.37320 0.04100
C 	C 	0.17910 0.61150 0.26870 -0.14000
C 	C 	0.14240 0.69360 0.19670 -0.16200
C 	C 	0.16990 0.64000 0.19420 0.06100
C 	C 	0.37990 0.78300 0.77270 0.07800
C 	C 	0.21890 0.68781 0.96940 0.03700
C 	C 	0.34600 0.90018 0.14700 0.03700
C 	C 	0.33780 0.90393 0.05600 0.05300
C 	C 	0.33490 0.89022 0.92550 0.04800
C 	C 	0.34330 0.86220 0.84320 0.05400
C 	C 	0.13580 0.76050 0.98920 0.08700
C 	C 	0.45770 0.53980 0.89660 0.05100
C 	C 	0.30850 0.65366 0.95320 0.05700
C 	C 	0.41350 0.59312 0.92170 0.05700
C 	C 	0.42780 0.45230 0.85090 0.07200
C 	C 	0.37070 0.87540 0.27110 0.08600
C 	C 	0.52960 0.43960 0.84970 -0.13200
C 	C 	0.56240 0.53090 0.89750 -0.12300
C 	C 	0.59880 0.48020 0.87320 0.04400
C 	C 	0.32090 0.88850 0.76870 -0.14000
C 	C 	0.35760 0.80640 0.69670 -0.16200
C 	C 	0.33010 0.86000 0.69420 0.06100
N 	N 	0.73200 0.75730 0.98190 -0.24700
N 	N 	0.81000 0.55767 0.93520 -0.11300
N 	N 	0.81160 0.54866 0.02040 -0.22000
N 	N 	0.85290 0.63618 0.99940 -0.24200
N 	N 	0.87220 0.69007 0.84630 -0.23000
N 	N 	0.56760 0.77994 0.98230 -0.23300
N 	N 	0.62210 0.82726 0.96990 -0.12400
N 	N 	0.89970 0.82175 0.95140 -0.20600
N 	N 	0.83980 0.57308 0.27570 -0.23400
N 	N 	0.81260 0.89985 0.93440 -0.24000
N 	N 	0.82610 0.55662 0.19400 -0.20500
N 	N 	0.89000 0.99901 0.87440 -0.23600
N 	N 	0.96880 0.86178 0.93130 -0.10200
N 	N 	0.87470 0.64409 0.19150 -0.15300
N 	N 	0.76800 0.74270 0.48190 -0.24700
N 	N 	0.69000 0.94233 0.43520 -0.11200
N 	N 	0.68840 0.95134 0.52040 -0.22000
N 	N 	0.64710 0.86382 0.49940 -0.24100
N 	N 	0.62780 0.80993 0.34630 -0.23000
N 	N 	0.93240 0.72006 0.48230 -0.23300
N 	N 	0.87790 0.67274 0.46990 -0.12400
N 	N 	0.60030 0.67825 0.45140 -0.20500
N 	N 	0.66020 0.92692 0.77570 -0.23400
N 	N 	0.68740 0.60015 0.43440 -0.24000
N 	N 	0.67390 0.94338 0.69400 -0.20500
N 	N 	0.61000 0.50099 0.37440 -0.23600
N 	N 	0.53120 0.63822 0.43130 -0.10100
N 	N 	0.62530 0.85591 0.69150 -0.15300
N 	N 	0.73200 0.24270 0.51810 -0.24700
N 	N 	0.81000 0.44233 0.56480 -0.11200
N 	N 	0.81160 0.45134 0.47960 -0.22000
N 	N 	0.85290 0.36382 0.50060 -0.24100
N 	N 	0.87220 0.30993 0.65370 -0.23000
N 	N 	0.56760 0.22006 0.51770 -0.23300
N 	N 	0.62210 0.17274 0.53010 -0.12400
N 	N 	0.89970 0.17825 0.54860 -0.20500
N 	N 	0.83980 0.42692 0.22430 -0.23400
N 	N 	0.81260 0.10015 0.56560 -0.24000
N 	N 	0.82610 0.44338 0.30600 -0.20500
N 	N 	0.89000 0.00099 0.62560 -0.23500
N 	N 	0.96880 0.13822 0.56870 -0.10100
N 	N 	0.87470 0.35591 0.30850 -0.15300
N 	N 	0.76800 0.25730 0.01810 -0.24700
N 	N 	0.69000 0.05767 0.06480 -0.11200
N 	N 	0.68840 0.04866 0.97960 -0.22000
N 	N 	0.64710 0.13618 0.00060 -0.24200
N 	N 	0.62780 0.19007 0.15370 -0.23000
N 	N 	0.93240 0.27994 0.01770 -0.23200
N 	N 	0.87790 0.32726 0.03010 -0.12300
N 	N 	0.60030 0.32175 0.04860 -0.20500
N 	N 	0.66020 0.07308 0.72430 -0.23400
N 	N 	0.68740 0.39985 0.06560 -0.23900
N 	N 	0.67390 0.05662 0.80600 -0.20500
N 	N 	0.61000 0.49901 0.12560 -0.23600
N 	N 	0.53120 0.36178 0.06870 -0.10100
N 	N 	0.62530 0.14409 0.80850 -0.15300
N 	N 	0.26800 0.24270 0.01810 -0.24700
N 	N 	0.19000 0.44233 0.06480 -0.11300
N 	N 	0.18840 0.45134 0.97960 -0.22000
N 	N 	0.14710 0.36382 0.00060 -0.24200
N 	N 	0.12780 0.30993 0.15370 -0.23000
N 	N 	0.43240 0.22006 0.01770 -0.23300
N 	N 	0.37790 0.17274 0.03010 -0.12400
N 	N 	0.10030 0.17825 0.04860 -0.20600
N 	N 	0.16020 0.42692 0.72430 -0.23400
N 	N 	0.18740 0.10015 0.06560 -0.24000
N 	N 	0.17390 0.44338 0.80600 -0.20500
N 	N 	0.11000 0.00099 0.12560 -0.23600
N 	N 	0.03120 0.13822 0.06870 -0.10200
N 	N 	0.12530 0.35591 0.80850 -0.15300
N 	N 	0.23200 0.25730 0.51810 -0.24700
N 	N 	0.31000 0.05767 0.56480 -0.11200
N 	N 	0.31160 0.04866 0.47960 -0.22000
N 	N 	0.35290 0.13618 0.50060 -0.24100
N 	N 	0.37220 0.19007 0.65370 -0.23000
N 	N 	0.06760 0.27994 0.51770 -0.23300
N 	N 	0.12210 0.32726 0.53010 -0.12400
N 	N 	0.39970 0.32175 0.54860 -0.20500
N 	N 	0.33980 0.07308 0.22430 -0.23400
N 	N 	0.31260 0.39985 0.56560 -0.24000
N 	N 	0.32610 0.05662 0.30600 -0.20500
N 	N 	0.39000 0.49901 0.62560 -0.23600
N 	N 	0.46880 0.36178 0.56870 -0.10100
N 	N 	0.37470 0.14409 0.30850 -0.15300
N 	N 	0.26800 0.75730 0.48190 -0.24700
N 	N 	0.19000 0.55767 0.43520 -0.11200
N 	N 	0.18840 0.54866 0.52040 -0.22000
N 	N 	0.14710 0.63618 0.49940 -0.24100
N 	N 	0.12780 0.69007 0.34630 -0.23000
N 	N 	0.43240 0.77994 0.48230 -0.23300
N 	N 	0.37790 0.82726 0.46990 -0.12400
N 	N 	0.10030 0.82175 0.45140 -0.20500
N 	N 	0.16020 0.57308 0.77570 -0.23400
N 	N 	0.18740 0.89985 0.43440 -0.24000
N 	N 	0.17390 0.55662 0.69400 -0.20500
N 	N 	0.11000 0.99901 0.37440 -0.23500
N 	N 	0.03120 0.86178 0.43130 -0.10100
N 	N 	0.12530 0.64409 0.69150 -0.15300
N 	N 	0.23200 0.74270 0.98190 -0.24700
N 	N 	0.31000 0.94233 0.93520 -0.11200
N 	N 	0.31160 0.95134 0.02040 -0.22000
N 	N 	0.35290 0.86382 0.99940 -0.24200
N 	N 	0.37220 0.80993 0.84630 -0.23000
N 	N 	0.06760 0.72006 0.98230 -0.23200
N 	N 	0.12210 0.67274 0.96990 -0.12300
N 	N 	0.39970 0.67825 0.95140 -0.20500
N 	N 	0.33980 0.92692 0.27570 -0.23400
N 	N 	0.31260 0.60015 0.93440 -0.23900
N 	N 	0.32610 0.94338 0.19400 -0.20500
N 	N 	0.39000 0.50099 0.87440 -0.23600
N 	N 	0.46880 0.63822 0.93130 -0.10100
N 	N 	0.37470 0.85591 0.19150 -0.15300
