data_crystal

_cell_length_a 8.74860
_cell_length_b 10.98230
_cell_length_c 12.30700
_cell_angle_alpha 68.65800
_cell_angle_beta  86.19100
_cell_angle_gamma 79.53200

_symmetry_space_group_name_	'P 1'
_symmetry_space_group_name_H-M	'P 1'

loop_
_symmetry_equiv_pos_as_xyz
  x,y,z

loop_
_atom_site_label
_atom_site_type_symbol
_atom_site_fract_x
_atom_site_fract_y
_atom_site_fract_z
_atom_site_charge
Tb	Tb	0.71315 0.97896 0.44409 1.95700
Tb	Tb	0.28685 0.02104 0.55591 1.95700
H 	H 	0.21780 0.62670 0.76250 0.02400
H 	H 	0.00260 0.31480 0.84000 0.03200
H 	H 	0.86660 0.64000 0.56090 0.02500
H 	H 	0.95270 0.22800 0.68490 0.07900
H 	H 	0.78030 0.11530 0.64220 -0.02400
H 	H 	0.43540 0.42110 0.61540 0.01100
H 	H 	0.60860 0.53370 0.65510 0.09100
H 	H 	0.01010 0.33060 0.02520 0.09400
H 	H 	0.12190 0.21850 0.20480 -0.01400
H 	H 	0.53340 0.31440 0.07160 -0.00700
H 	H 	0.42010 0.42820 0.89240 0.09600
H 	H 	0.78220 0.37330 0.23750 0.02400
H 	H 	0.99740 0.68520 0.16000 0.03200
H 	H 	0.13340 0.36000 0.43910 0.02500
H 	H 	0.04730 0.77200 0.31510 0.07900
H 	H 	0.21970 0.88470 0.35780 -0.02400
H 	H 	0.56460 0.57890 0.38460 0.01100
H 	H 	0.39140 0.46630 0.34490 0.09100
H 	H 	0.98990 0.66940 0.97480 0.09400
H 	H 	0.87810 0.78150 0.79520 -0.01400
H 	H 	0.46660 0.68560 0.92840 -0.00700
H 	H 	0.57990 0.57180 0.10760 0.09600
C 	C 	0.05670 0.79440 0.57780 0.52200
C 	C 	0.04450 0.65330 0.65060 -0.16300
C 	C 	0.14060 0.58660 0.74790 0.03600
C 	C 	0.12140 0.46000 0.82330 -0.05600
C 	C 	0.01200 0.40130 0.79320 -0.01900
C 	C 	0.91600 0.46470 0.69710 -0.05100
C 	C 	0.93150 0.59420 0.62510 0.04300
C 	C 	0.80020 0.39390 0.67250 0.10600
C 	C 	0.84920 0.26780 0.66950 -0.17000
C 	C 	0.74560 0.19990 0.64360 0.11300
C 	C 	0.59150 0.25740 0.62000 -0.18700
C 	C 	0.53980 0.38300 0.62730 0.09100
C 	C 	0.64350 0.44980 0.65200 -0.16500
C 	C 	0.48460 0.19040 0.58170 0.42000
C 	C 	0.20280 0.39250 0.93700 0.11600
C 	C 	0.11560 0.32750 0.03410 -0.18900
C 	C 	0.18300 0.25950 0.14190 0.12600
C 	C 	0.33950 0.25090 0.15860 -0.21100
C 	C 	0.42810 0.31700 0.06240 0.11600
C 	C 	0.35960 0.38550 0.95490 -0.18800
C 	C 	0.40870 0.17400 0.27730 0.48800
C 	C 	0.94330 0.20560 0.42220 0.52200
C 	C 	0.95550 0.34670 0.34940 -0.16300
C 	C 	0.85940 0.41340 0.25210 0.03600
C 	C 	0.87860 0.54000 0.17670 -0.05600
C 	C 	0.98800 0.59870 0.20680 -0.01900
C 	C 	0.08400 0.53530 0.30290 -0.05100
C 	C 	0.06850 0.40580 0.37490 0.04300
C 	C 	0.19980 0.60610 0.32750 0.10600
C 	C 	0.15080 0.73220 0.33050 -0.17000
C 	C 	0.25440 0.80010 0.35640 0.11300
C 	C 	0.40850 0.74260 0.38000 -0.18700
C 	C 	0.46020 0.61700 0.37270 0.09100
C 	C 	0.35650 0.55020 0.34800 -0.16500
C 	C 	0.51540 0.80960 0.41830 0.42000
C 	C 	0.79720 0.60750 0.06300 0.11600
C 	C 	0.88440 0.67250 0.96590 -0.18900
C 	C 	0.81700 0.74050 0.85810 0.12600
C 	C 	0.66050 0.74910 0.84140 -0.21100
C 	C 	0.57190 0.68300 0.93760 0.11600
C 	C 	0.64040 0.61450 0.04510 -0.18800
C 	C 	0.59130 0.82600 0.72270 0.48800
O 	O 	0.95500 0.85930 0.50150 -0.55400
O 	O 	0.16860 0.83960 0.59730 -0.54000
O 	O 	0.34040 0.21640 0.59190 -0.45400
O 	O 	0.54320 0.09920 0.54130 -0.58500
O 	O 	0.31250 0.15350 0.36050 -0.50500
O 	O 	0.55220 0.13530 0.28630 -0.50400
O 	O 	0.04500 0.14070 0.49850 -0.55400
O 	O 	0.83140 0.16040 0.40270 -0.54000
O 	O 	0.65960 0.78360 0.40810 -0.45400
O 	O 	0.45680 0.90080 0.45870 -0.58500
O 	O 	0.68750 0.84650 0.63950 -0.50500
O 	O 	0.44780 0.86470 0.71370 -0.50400
