data_crystal

_cell_length_a 8.71590
_cell_length_b 10.97370
_cell_length_c 12.32300
_cell_angle_alpha 68.44800
_cell_angle_beta  86.19600
_cell_angle_gamma 79.60500

_symmetry_space_group_name_	'P 1'
_symmetry_space_group_name_H-M	'P 1'

loop_
_symmetry_equiv_pos_as_xyz
  x,y,z

loop_
_atom_site_label
_atom_site_type_symbol
_atom_site_fract_x
_atom_site_fract_y
_atom_site_fract_z
_atom_site_charge
Dy	Dy	0.71289 0.97940 0.44408 1.90600
Dy	Dy	0.28711 0.02060 0.55592 1.90600
H 	H 	0.21830 0.62720 0.76210 0.02600
H 	H 	0.00250 0.31360 0.84120 0.03400
H 	H 	0.86610 0.63940 0.56110 0.02700
H 	H 	0.95260 0.22650 0.68680 0.08000
H 	H 	0.78230 0.11490 0.64100 -0.02200
H 	H 	0.43340 0.41800 0.61650 0.01200
H 	H 	0.60690 0.53390 0.65370 0.09100
H 	H 	0.00890 0.33140 0.02500 0.09200
H 	H 	0.12160 0.21530 0.20520 -0.01100
H 	H 	0.53410 0.31190 0.07250 -0.00400
H 	H 	0.41970 0.43140 0.89260 0.09400
H 	H 	0.78170 0.37280 0.23790 0.02600
H 	H 	0.99750 0.68640 0.15880 0.03400
H 	H 	0.13390 0.36060 0.43890 0.02700
H 	H 	0.04740 0.77350 0.31320 0.08000
H 	H 	0.21770 0.88510 0.35900 -0.02200
H 	H 	0.56660 0.58200 0.38350 0.01200
H 	H 	0.39310 0.46610 0.34630 0.09100
H 	H 	0.99110 0.66860 0.97500 0.09200
H 	H 	0.87840 0.78470 0.79480 -0.01100
H 	H 	0.46590 0.68810 0.92750 -0.00400
H 	H 	0.58030 0.56860 0.10740 0.09400
C 	C 	0.05640 0.79540 0.57700 0.51800
C 	C 	0.04470 0.65420 0.65000 -0.16000
C 	C 	0.14070 0.58720 0.74740 0.03400
C 	C 	0.12090 0.46040 0.82280 -0.05200
C 	C 	0.01170 0.40030 0.79390 -0.02200
C 	C 	0.91500 0.46430 0.69670 -0.04900
C 	C 	0.93120 0.59360 0.62530 0.04000
C 	C 	0.80020 0.39390 0.67240 0.10400
C 	C 	0.84910 0.26670 0.67000 -0.16800
C 	C 	0.74690 0.19920 0.64310 0.11300
C 	C 	0.59150 0.25690 0.61920 -0.18600
C 	C 	0.53860 0.38110 0.62730 0.09100
C 	C 	0.64240 0.44970 0.65140 -0.16300
C 	C 	0.48430 0.18790 0.58190 0.43000
C 	C 	0.20170 0.39180 0.93750 0.11200
C 	C 	0.11500 0.32750 0.03390 -0.18200
C 	C 	0.18240 0.25780 0.14250 0.11600
C 	C 	0.33960 0.25110 0.15830 -0.20100
C 	C 	0.42810 0.31600 0.06320 0.11000
C 	C 	0.35960 0.38670 0.95470 -0.18100
C 	C 	0.40790 0.17260 0.27900 0.48600
C 	C 	0.94360 0.20460 0.42300 0.51800
C 	C 	0.95530 0.34580 0.35000 -0.16000
C 	C 	0.85930 0.41280 0.25260 0.03400
C 	C 	0.87910 0.53960 0.17720 -0.05200
C 	C 	0.98830 0.59970 0.20610 -0.02200
C 	C 	0.08500 0.53570 0.30330 -0.04900
C 	C 	0.06880 0.40640 0.37470 0.04000
C 	C 	0.19980 0.60610 0.32760 0.10400
C 	C 	0.15090 0.73330 0.33000 -0.16800
C 	C 	0.25310 0.80080 0.35690 0.11300
C 	C 	0.40850 0.74310 0.38080 -0.18600
C 	C 	0.46140 0.61890 0.37270 0.09100
C 	C 	0.35760 0.55030 0.34860 -0.16300
C 	C 	0.51570 0.81210 0.41810 0.43000
C 	C 	0.79830 0.60820 0.06250 0.11200
C 	C 	0.88500 0.67250 0.96610 -0.18200
C 	C 	0.81760 0.74220 0.85750 0.11600
C 	C 	0.66040 0.74890 0.84170 -0.20100
C 	C 	0.57190 0.68400 0.93680 0.11000
C 	C 	0.64040 0.61330 0.04530 -0.18100
C 	C 	0.59210 0.82740 0.72100 0.48600
O 	O 	0.95480 0.86060 0.50020 -0.54500
O 	O 	0.16950 0.83960 0.59620 -0.53300
O 	O 	0.34010 0.21390 0.59240 -0.45500
O 	O 	0.54230 0.09940 0.54060 -0.58200
O 	O 	0.31120 0.15320 0.36060 -0.50100
O 	O 	0.55210 0.13430 0.28710 -0.49900
O 	O 	0.04520 0.13940 0.49980 -0.54500
O 	O 	0.83050 0.16040 0.40380 -0.53300
O 	O 	0.65990 0.78610 0.40760 -0.45500
O 	O 	0.45770 0.90060 0.45940 -0.58200
O 	O 	0.68880 0.84680 0.63940 -0.50100
O 	O 	0.44790 0.86570 0.71290 -0.49900
