data_crystal

_cell_length_a 8.71200
_cell_length_b 9.85900
_cell_length_c 23.17600
_cell_angle_alpha 90.00000
_cell_angle_beta  90.00000
_cell_angle_gamma 90.00000

_symmetry_space_group_name_	'P 1'
_symmetry_space_group_name_H-M	'P 1'

loop_
_symmetry_equiv_pos_as_xyz
  x,y,z

loop_
_atom_site_label
_atom_site_type_symbol
_atom_site_fract_x
_atom_site_fract_y
_atom_site_fract_z
_atom_site_charge
Gd	Gd	0.04409 0.12998 0.25469 1.73800
P 	P 	0.01760 0.38950 0.36425 0.50300
P 	P 	0.70470 0.35240 0.22320 0.48400
P 	P 	0.78630 0.89010 0.33130 0.52900
O 	O 	0.07130 0.26050 0.33470 -0.44700
O 	O 	0.86710 0.37500 0.39650 -0.28500
O 	O 	0.01970 0.51130 0.32520 -0.46000
O 	O 	0.84650 0.26360 0.22820 -0.46000
O 	O 	0.73940 0.50130 0.23240 -0.43900
O 	O 	0.61730 0.32320 0.16730 -0.27600
O 	O 	0.89230 0.00310 0.31270 -0.45800
O 	O 	0.78260 0.76680 0.29270 -0.45800
O 	O 	0.62530 0.95060 0.34330 -0.47900
H 	H 	0.56080 0.90930 0.32450 0.29900
N 	N 	0.32520 0.41010 0.40390 -0.12000
H 	H 	0.38010 0.44020 0.43480 0.09100
N 	N 	0.60460 0.35120 0.33910 -0.12200
H 	H 	0.70840 0.35740 0.34260 0.11300
N 	N 	0.83700 0.92740 0.45020 -0.02400
N 	N 	0.09900 0.41170 0.05280 -0.05300
C 	C 	0.15920 0.42190 0.42010 -0.21800
H 	H 	0.14200 0.51280 0.43470 0.09500
H 	H 	0.13980 0.35950 0.45160 0.09500
C 	C 	0.36920 0.49650 0.35460 -0.05900
H 	H 	0.33650 0.58900 0.36160 0.06500
H 	H 	0.31850 0.46450 0.31990 0.05600
C 	C 	0.54000 0.49280 0.34610 -0.06400
H 	H 	0.58880 0.53560 0.37900 0.05700
H 	H 	0.56570 0.54560 0.31210 0.06100
C 	C 	0.54920 0.26330 0.38670 -0.07800
H 	H 	0.59530 0.29350 0.42260 0.06500
H 	H 	0.58330 0.17110 0.37970 0.07900
C 	C 	0.37440 0.26350 0.39350 -0.05500
H 	H 	0.32610 0.22840 0.35890 0.06200
H 	H 	0.34450 0.20710 0.42590 0.04900
C 	C 	0.57080 0.29550 0.27990 -0.22500
H 	H 	0.46760 0.32200 0.26900 0.10400
H 	H 	0.57350 0.19720 0.28170 0.11000
C 	C 	0.85340 0.82470 0.40040 -0.22700
H 	H 	0.79570 0.74350 0.40990 0.10300
H 	H 	0.96050 0.79920 0.39680 0.09900
C 	C 	0.87630 0.85620 0.50500 -0.08200
H 	H 	0.98580 0.83860 0.50680 0.05800
H 	H 	0.82230 0.77030 0.50730 0.06400
C 	C 	0.82600 0.04800 0.44430 -0.04000
H 	H 	0.71580 0.03700 0.44530 0.06900
H 	H 	0.85280 0.09090 0.40790 0.01900
C 	C 	0.09000 0.55900 0.05490 -0.01000
H 	H 	0.12550 0.60400 0.08960 0.03700
H 	H 	0.97950 0.54710 0.05810 0.03700
Gd	Gd	0.04409 0.87002 0.74531 1.73700
P 	P 	0.01760 0.61050 0.63575 0.50200
P 	P 	0.70470 0.64760 0.77680 0.48300
P 	P 	0.78630 0.10990 0.66870 0.52800
O 	O 	0.07130 0.73950 0.66530 -0.44700
O 	O 	0.86710 0.62500 0.60350 -0.28500
O 	O 	0.01970 0.48870 0.67480 -0.46000
O 	O 	0.84650 0.73640 0.77180 -0.46000
O 	O 	0.73940 0.49870 0.76760 -0.43900
O 	O 	0.61730 0.67680 0.83270 -0.27600
O 	O 	0.89230 0.99690 0.68730 -0.45800
O 	O 	0.78260 0.23320 0.70730 -0.45800
O 	O 	0.62530 0.04940 0.65670 -0.47900
H 	H 	0.56080 0.09070 0.67550 0.29900
N 	N 	0.32520 0.58990 0.59610 -0.12000
H 	H 	0.38010 0.55980 0.56520 0.09100
N 	N 	0.60460 0.64880 0.66090 -0.12200
H 	H 	0.70840 0.64260 0.65740 0.11300
N 	N 	0.83700 0.07260 0.54980 -0.02400
N 	N 	0.09900 0.58830 0.94720 -0.05300
C 	C 	0.15920 0.57810 0.57990 -0.21800
H 	H 	0.14200 0.48720 0.56530 0.09500
H 	H 	0.13980 0.64050 0.54840 0.09500
C 	C 	0.36920 0.50350 0.64540 -0.05900
H 	H 	0.33650 0.41100 0.63840 0.06500
H 	H 	0.31850 0.53550 0.68010 0.05600
C 	C 	0.54000 0.50720 0.65390 -0.06400
H 	H 	0.58880 0.46440 0.62100 0.05700
H 	H 	0.56570 0.45440 0.68790 0.06100
C 	C 	0.54920 0.73670 0.61330 -0.07800
H 	H 	0.59530 0.70650 0.57740 0.06500
H 	H 	0.58330 0.82890 0.62030 0.07900
C 	C 	0.37440 0.73650 0.60650 -0.05500
H 	H 	0.32610 0.77160 0.64110 0.06200
H 	H 	0.34450 0.79290 0.57410 0.04900
C 	C 	0.57080 0.70450 0.72010 -0.22500
H 	H 	0.46760 0.67800 0.73100 0.10400
H 	H 	0.57350 0.80280 0.71830 0.11000
C 	C 	0.85340 0.17530 0.59960 -0.22700
H 	H 	0.79570 0.25650 0.59010 0.10300
H 	H 	0.96050 0.20080 0.60320 0.09900
C 	C 	0.87630 0.14380 0.49500 -0.08200
H 	H 	0.98580 0.16140 0.49320 0.05800
H 	H 	0.82230 0.22970 0.49270 0.06400
C 	C 	0.82600 0.95200 0.55570 -0.04000
H 	H 	0.71580 0.96300 0.55470 0.06900
H 	H 	0.85280 0.90910 0.59210 0.01900
C 	C 	0.09000 0.44100 0.94510 -0.01000
H 	H 	0.12550 0.39600 0.91040 0.03700
H 	H 	0.97950 0.45290 0.94190 0.03700
Gd	Gd	0.95591 0.37002 0.75469 1.73400
P 	P 	0.98240 0.11050 0.86425 0.50100
P 	P 	0.29530 0.14760 0.72320 0.48200
P 	P 	0.21370 0.60990 0.83130 0.52800
O 	O 	0.92870 0.23950 0.83470 -0.44700
O 	O 	0.13290 0.12500 0.89650 -0.28400
O 	O 	0.98030 0.98870 0.82520 -0.46100
O 	O 	0.15350 0.23640 0.72820 -0.45900
O 	O 	0.26060 0.99870 0.73240 -0.43900
O 	O 	0.38270 0.17680 0.66730 -0.27600
O 	O 	0.10770 0.49690 0.81270 -0.45700
O 	O 	0.21740 0.73320 0.79270 -0.45800
O 	O 	0.37470 0.54940 0.84330 -0.47800
H 	H 	0.43920 0.59070 0.82450 0.29900
N 	N 	0.67480 0.08990 0.90390 -0.12000
H 	H 	0.61990 0.05980 0.93480 0.09100
N 	N 	0.39540 0.14880 0.83910 -0.12200
H 	H 	0.29160 0.14260 0.84260 0.11300
N 	N 	0.16300 0.57260 0.95020 -0.02500
N 	N 	0.90100 0.08830 0.55280 -0.05500
C 	C 	0.84080 0.07810 0.92010 -0.21900
H 	H 	0.85800 0.98720 0.93470 0.09500
H 	H 	0.86020 0.14050 0.95160 0.09500
C 	C 	0.63080 0.00350 0.85460 -0.06100
H 	H 	0.66350 0.91100 0.86160 0.06500
H 	H 	0.68150 0.03550 0.81990 0.05600
C 	C 	0.46000 0.00720 0.84610 -0.06600
H 	H 	0.41120 0.96440 0.87900 0.05800
H 	H 	0.43430 0.95440 0.81210 0.06200
C 	C 	0.45080 0.23670 0.88670 -0.07800
H 	H 	0.40470 0.20650 0.92260 0.06500
H 	H 	0.41670 0.32890 0.87970 0.07900
C 	C 	0.62560 0.23650 0.89350 -0.05500
H 	H 	0.67390 0.27160 0.85890 0.06200
H 	H 	0.65550 0.29290 0.92590 0.04900
C 	C 	0.42920 0.20450 0.77990 -0.22500
H 	H 	0.53240 0.17800 0.76900 0.10400
H 	H 	0.42650 0.30280 0.78170 0.11000
C 	C 	0.14660 0.67530 0.90040 -0.22700
H 	H 	0.20430 0.75650 0.90990 0.10400
H 	H 	0.03950 0.70080 0.89680 0.10000
C 	C 	0.12370 0.64380 0.00500 -0.08200
H 	H 	0.01420 0.66140 0.00680 0.05900
H 	H 	0.17770 0.72970 0.00730 0.06400
C 	C 	0.17400 0.45200 0.94430 -0.03600
H 	H 	0.28420 0.46300 0.94530 0.06800
H 	H 	0.14720 0.40910 0.90790 0.02000
C 	C 	0.91000 0.94100 0.55490 -0.00800
H 	H 	0.87450 0.89600 0.58960 0.03700
H 	H 	0.02050 0.95290 0.55810 0.03800
Gd	Gd	0.95591 0.62998 0.24531 1.73400
P 	P 	0.98240 0.88950 0.13575 0.50100
P 	P 	0.29530 0.85240 0.27680 0.48200
P 	P 	0.21370 0.39010 0.16870 0.52800
O 	O 	0.92870 0.76050 0.16530 -0.44700
O 	O 	0.13290 0.87500 0.10350 -0.28400
O 	O 	0.98030 0.01130 0.17480 -0.46100
O 	O 	0.15350 0.76360 0.27180 -0.45900
O 	O 	0.26060 0.00130 0.26760 -0.43900
O 	O 	0.38270 0.82320 0.33270 -0.27600
O 	O 	0.10770 0.50310 0.18730 -0.45700
O 	O 	0.21740 0.26680 0.20730 -0.45800
O 	O 	0.37470 0.45060 0.15670 -0.47800
H 	H 	0.43920 0.40930 0.17550 0.29900
N 	N 	0.67480 0.91010 0.09610 -0.12000
H 	H 	0.61990 0.94020 0.06520 0.09100
N 	N 	0.39540 0.85120 0.16090 -0.12200
H 	H 	0.29160 0.85740 0.15740 0.11300
N 	N 	0.16300 0.42740 0.04980 -0.02500
N 	N 	0.90100 0.91170 0.44720 -0.05500
C 	C 	0.84080 0.92190 0.07990 -0.21900
H 	H 	0.85800 0.01280 0.06530 0.09500
H 	H 	0.86020 0.85950 0.04840 0.09500
C 	C 	0.63080 0.99650 0.14540 -0.06100
H 	H 	0.66350 0.08900 0.13840 0.06500
H 	H 	0.68150 0.96450 0.18010 0.05600
C 	C 	0.46000 0.99280 0.15390 -0.06600
H 	H 	0.41120 0.03560 0.12100 0.05800
H 	H 	0.43430 0.04560 0.18790 0.06200
C 	C 	0.45080 0.76330 0.11330 -0.07800
H 	H 	0.40470 0.79350 0.07740 0.06500
H 	H 	0.41670 0.67110 0.12030 0.07900
C 	C 	0.62560 0.76350 0.10650 -0.05500
H 	H 	0.67390 0.72840 0.14110 0.06200
H 	H 	0.65550 0.70710 0.07410 0.04900
C 	C 	0.42920 0.79550 0.22010 -0.22500
H 	H 	0.53240 0.82200 0.23100 0.10400
H 	H 	0.42650 0.69720 0.21830 0.11000
C 	C 	0.14660 0.32470 0.09960 -0.22700
H 	H 	0.20430 0.24350 0.09010 0.10400
H 	H 	0.03950 0.29920 0.10320 0.10000
C 	C 	0.12370 0.35620 0.99500 -0.08200
H 	H 	0.01420 0.33860 0.99320 0.05900
H 	H 	0.17770 0.27030 0.99270 0.06400
C 	C 	0.17400 0.54800 0.05570 -0.03600
H 	H 	0.28420 0.53700 0.05470 0.06800
H 	H 	0.14720 0.59090 0.09210 0.02000
C 	C 	0.91000 0.05900 0.44510 -0.00800
H 	H 	0.87450 0.10400 0.41040 0.03700
H 	H 	0.02050 0.04710 0.44190 0.03800
