data_crystal

_cell_length_a 9.54700
_cell_length_b 11.49900
_cell_length_c 11.59200
_cell_angle_alpha 108.94100
_cell_angle_beta  111.85100
_cell_angle_gamma 92.17400

_symmetry_space_group_name_	'P 1'
_symmetry_space_group_name_H-M	'P 1'

loop_
_symmetry_equiv_pos_as_xyz
  x,y,z

loop_
_atom_site_label
_atom_site_type_symbol
_atom_site_fract_x
_atom_site_fract_y
_atom_site_fract_z
_atom_site_charge
Nd	Nd	0.71452 0.97750 0.52573 2.39100
O 	O 	0.50980 0.06540 0.40940 -0.63600
O 	O 	0.26050 0.11290 0.29650 -0.44000
O 	O 	0.41810 0.03370 0.15940 -0.26500
O 	O 	0.54920 0.79210 0.36140 -0.52200
O 	O 	0.27420 0.83380 0.30000 -0.49400
O 	O 	0.33640 0.62690 0.31440 -0.27700
O 	O 	0.98670 0.06460 0.66890 -0.47200
O 	O 	0.19610 0.95720 0.61350 -0.49700
O 	O 	0.24270 0.16360 0.83040 -0.23300
O 	O 	0.91260 0.83760 0.54090 -0.30400
O 	O 	0.87020 0.81310 0.45360 -0.13200
P 	P 	0.42050 0.10576 0.29406 0.47100
P 	P 	0.38010 0.74013 0.28632 0.51500
P 	P 	0.13930 0.03980 0.72460 0.35000
P 	P 	0.05550 0.94090 0.64020 0.25500
N 	N 	0.52270 0.37110 0.44270 -0.13500
H 	H 	0.56800 0.35480 0.51870 0.12800
N 	N 	0.41070 0.57390 0.06290 -0.12100
H 	H 	0.36450 0.51010 0.07400 0.10500
N 	N 	0.03100 0.95630 0.88030 -0.11800
H 	H 	0.93290 0.93370 0.81720 0.11200
C 	C 	0.51620 0.26210 0.32860 -0.20300
H 	H 	0.62120 0.25630 0.33950 0.09300
H 	H 	0.46740 0.28140 0.24880 0.09900
C 	C 	0.34080 0.68480 0.10880 -0.22300
H 	H 	0.23060 0.66320 0.05760 0.10300
H 	H 	0.37900 0.75250 0.08960 0.10900
C 	C 	0.36790 0.40050 0.43140 -0.05100
H 	H 	0.30690 0.33030 0.43000 0.05000
H 	H 	0.31600 0.41330 0.34810 0.06400
C 	C 	0.61940 0.48350 0.45320 -0.06000
H 	H 	0.57480 0.49910 0.37070 0.05900
H 	H 	0.72140 0.46620 0.46470 0.05000
C 	C 	0.36920 0.53440 0.91570 -0.06200
H 	H 	0.41420 0.60050 0.89840 0.05300
H 	H 	0.25860 0.52160 0.86870 0.04900
C 	C 	0.57460 0.58520 0.13660 -0.07600
H 	H 	0.59680 0.60460 0.23030 0.06900
H 	H 	0.62930 0.65350 0.12940 0.08100
C 	C 	0.13800 0.92830 0.80990 -0.22600
H 	H 	0.10470 0.84350 0.74490 0.09700
H 	H 	0.24090 0.93480 0.87430 0.12100
C 	C 	0.04910 0.88110 0.96710 -0.02100
H 	H 	0.02750 0.79280 0.91280 0.03700
H 	H 	0.15430 0.90140 0.03290 0.05400
C 	C 	0.05690 0.09350 0.96340 -0.11400
H 	H 	0.16220 0.12000 0.02910 0.08900
H 	H 	0.04080 0.14170 0.90620 0.08000
Nd	Nd	0.28548 0.02250 0.47427 2.39000
O 	O 	0.49020 0.93460 0.59060 -0.63700
O 	O 	0.73950 0.88710 0.70350 -0.44100
O 	O 	0.58190 0.96630 0.84060 -0.26600
O 	O 	0.45080 0.20790 0.63860 -0.52200
O 	O 	0.72580 0.16620 0.70000 -0.49400
O 	O 	0.66360 0.37310 0.68560 -0.27700
O 	O 	0.01330 0.93540 0.33110 -0.47200
O 	O 	0.80390 0.04280 0.38650 -0.49700
O 	O 	0.75730 0.83640 0.16960 -0.23300
O 	O 	0.08740 0.16240 0.45910 -0.30400
O 	O 	0.12980 0.18690 0.54640 -0.13200
P 	P 	0.57950 0.89424 0.70594 0.47100
P 	P 	0.61990 0.25987 0.71368 0.51500
P 	P 	0.86070 0.96020 0.27540 0.35000
P 	P 	0.94450 0.05910 0.35980 0.25500
N 	N 	0.47730 0.62890 0.55730 -0.13500
H 	H 	0.43200 0.64520 0.48130 0.12800
N 	N 	0.58930 0.42610 0.93710 -0.12100
H 	H 	0.63550 0.48990 0.92600 0.10500
N 	N 	0.96900 0.04370 0.11970 -0.11800
H 	H 	0.06710 0.06630 0.18280 0.11200
C 	C 	0.48380 0.73790 0.67140 -0.20300
H 	H 	0.37880 0.74370 0.66050 0.09300
H 	H 	0.53260 0.71860 0.75120 0.09900
C 	C 	0.65920 0.31520 0.89120 -0.22300
H 	H 	0.76940 0.33680 0.94240 0.10300
H 	H 	0.62100 0.24750 0.91040 0.10900
C 	C 	0.63210 0.59950 0.56860 -0.05100
H 	H 	0.69310 0.66970 0.57000 0.05000
H 	H 	0.68400 0.58670 0.65190 0.06400
C 	C 	0.38060 0.51650 0.54680 -0.06000
H 	H 	0.42520 0.50090 0.62930 0.05900
H 	H 	0.27860 0.53380 0.53530 0.05000
C 	C 	0.63080 0.46560 0.08430 -0.06200
H 	H 	0.58580 0.39950 0.10160 0.05300
H 	H 	0.74140 0.47840 0.13130 0.04900
C 	C 	0.42540 0.41480 0.86340 -0.07600
H 	H 	0.40320 0.39540 0.76970 0.06900
H 	H 	0.37070 0.34650 0.87060 0.08100
C 	C 	0.86200 0.07170 0.19010 -0.22600
H 	H 	0.89530 0.15650 0.25510 0.09700
H 	H 	0.75910 0.06520 0.12570 0.12100
C 	C 	0.95090 0.11890 0.03290 -0.02100
H 	H 	0.97250 0.20720 0.08720 0.03700
H 	H 	0.84570 0.09860 0.96710 0.05400
C 	C 	0.94310 0.90650 0.03660 -0.11400
H 	H 	0.83780 0.88000 0.97090 0.08900
H 	H 	0.95920 0.85830 0.09380 0.08000
