data_crystal

_cell_length_a 15.86800
_cell_length_b 15.86800
_cell_length_c 21.28000
_cell_angle_alpha 85.27140
_cell_angle_beta  85.27140
_cell_angle_gamma 60.60540

_symmetry_space_group_name_	'P 1'
_symmetry_space_group_name_H-M	'P 1'

loop_
_symmetry_equiv_pos_as_xyz
  x,y,z

loop_
_atom_site_label
_atom_site_type_symbol
_atom_site_fract_x
_atom_site_fract_y
_atom_site_fract_z
_atom_site_charge
Cu	Cu	0.49006 0.49676 0.31307 0.89700
Cu	Cu	0.94168 0.46144 0.00587 0.89500
Cu	Cu	0.50324 0.50994 0.18693 0.89800
Cu	Cu	0.53856 0.05832 0.49413 0.89700
Cu	Cu	0.50994 0.50324 0.68693 0.89800
Cu	Cu	0.05832 0.53856 0.99413 0.89600
Cu	Cu	0.49676 0.49006 0.81307 0.89800
Cu	Cu	0.46144 0.94168 0.50587 0.89700
H 	H 	0.40090 0.81350 0.15950 -0.00900
H 	H 	0.35890 0.97450 0.15450 0.13900
H 	H 	0.41420 0.95420 0.33770 0.16100
H 	H 	0.45260 0.79300 0.34420 -0.00700
H 	H 	0.09330 0.23390 0.14630 0.00500
H 	H 	0.20210 0.10170 0.20760 0.12600
H 	H 	0.38150 0.21630 0.19690 0.13500
H 	H 	0.27160 0.34660 0.13270 0.00700
H 	H 	0.71650 0.66450 0.13490 0.00500
H 	H 	0.60170 0.79550 0.19030 0.13800
H 	H 	0.77370 0.91810 0.16580 0.12500
H 	H 	0.88810 0.78510 0.10930 -0.00000
H 	H 	0.59620 0.21260 0.13520 -0.01300
H 	H 	0.61820 0.06000 0.12690 0.13900
H 	H 	0.56290 0.04110 0.31400 0.15600
H 	H 	0.53600 0.19900 0.32190 -0.00100
H 	H 	0.18650 0.59910 0.34050 -0.01000
H 	H 	0.02550 0.64110 0.34550 0.13900
H 	H 	0.04580 0.58580 0.16230 0.16200
H 	H 	0.20700 0.54740 0.15580 -0.00700
H 	H 	0.76610 0.90670 0.35370 0.00400
H 	H 	0.89830 0.79790 0.29240 0.12500
H 	H 	0.78370 0.61850 0.30310 0.13500
H 	H 	0.65340 0.72840 0.36730 0.00700
H 	H 	0.33550 0.28350 0.36510 0.00500
H 	H 	0.20450 0.39830 0.30970 0.13800
H 	H 	0.08190 0.22630 0.33420 0.12500
H 	H 	0.21490 0.11190 0.39070 0.00000
H 	H 	0.78740 0.40380 0.36480 -0.01300
H 	H 	0.94000 0.38180 0.37310 0.13900
H 	H 	0.95890 0.43710 0.18600 0.15500
H 	H 	0.80100 0.46400 0.17810 -0.00100
H 	H 	0.59910 0.18650 0.84050 -0.00900
H 	H 	0.64110 0.02550 0.84550 0.13900
H 	H 	0.58580 0.04580 0.66230 0.16100
H 	H 	0.54740 0.20700 0.65580 -0.00700
H 	H 	0.90670 0.76610 0.85370 0.00500
H 	H 	0.79790 0.89830 0.79240 0.12600
H 	H 	0.61850 0.78370 0.80310 0.13500
H 	H 	0.72840 0.65340 0.86730 0.00700
H 	H 	0.28350 0.33550 0.86510 0.00500
H 	H 	0.39830 0.20450 0.80970 0.13800
H 	H 	0.22630 0.08190 0.83420 0.12500
H 	H 	0.11190 0.21490 0.89070 -0.00000
H 	H 	0.40380 0.78740 0.86480 -0.01300
H 	H 	0.38180 0.94000 0.87310 0.13900
H 	H 	0.43710 0.95890 0.68600 0.15600
H 	H 	0.46400 0.80100 0.67810 -0.00100
H 	H 	0.81350 0.40090 0.65950 -0.01000
H 	H 	0.97450 0.35890 0.65450 0.13900
H 	H 	0.95420 0.41420 0.83770 0.16200
H 	H 	0.79300 0.45260 0.84420 -0.00700
H 	H 	0.23390 0.09330 0.64630 0.00400
H 	H 	0.10170 0.20210 0.70760 0.12500
H 	H 	0.21630 0.38150 0.69690 0.13500
H 	H 	0.34660 0.27160 0.63270 0.00700
H 	H 	0.66450 0.71650 0.63490 0.00500
H 	H 	0.79550 0.60170 0.69030 0.13800
H 	H 	0.91810 0.77370 0.66580 0.12500
H 	H 	0.78510 0.88810 0.60930 0.00000
H 	H 	0.21260 0.59620 0.63520 -0.01300
H 	H 	0.06000 0.61820 0.62690 0.13900
H 	H 	0.04110 0.56290 0.81400 0.15500
H 	H 	0.19900 0.53600 0.82190 -0.00100
C 	C 	0.45030 0.68190 0.25490 0.37400
C 	C 	0.42710 0.78470 0.25200 -0.19300
C 	C 	0.40180 0.84160 0.19590 0.15900
C 	C 	0.37810 0.93770 0.19220 -0.29000
C 	C 	0.38340 0.97940 0.24700 0.31900
C 	C 	0.41070 0.92590 0.30220 -0.29100
C 	C 	0.43340 0.82900 0.30630 0.15700
C 	C 	0.10670 0.38110 0.08550 0.35500
C 	C 	0.17330 0.30350 0.12960 -0.16200
C 	C 	0.15190 0.22950 0.15510 0.12300
C 	C 	0.21600 0.15060 0.19280 -0.25200
C 	C 	0.30050 0.14790 0.20740 0.26700
C 	C 	0.32430 0.21950 0.18610 -0.23600
C 	C 	0.25750 0.29770 0.14700 0.12300
C 	C 	0.88670 0.62890 0.07640 0.36000
C 	C 	0.81440 0.71300 0.11630 -0.16000
C 	C 	0.72750 0.71570 0.14100 0.13000
C 	C 	0.65860 0.79400 0.17410 -0.24700
C 	C 	0.67560 0.87060 0.18300 0.27500
C 	C 	0.76190 0.86770 0.15930 -0.25400
C 	C 	0.83080 0.78720 0.12540 0.13500
C 	C 	0.54130 0.32710 0.23300 0.38500
C 	C 	0.56050 0.22410 0.22880 -0.19200
C 	C 	0.58800 0.17920 0.17100 0.16400
C 	C 	0.60330 0.08750 0.16600 -0.29600
C 	C 	0.59600 0.03540 0.22060 0.30700
C 	C 	0.56950 0.07590 0.27840 -0.27400
C 	C 	0.55260 0.17120 0.28280 0.14900
C 	C 	0.31810 0.54970 0.24510 0.37500
C 	C 	0.21530 0.57290 0.24800 -0.19300
C 	C 	0.15840 0.59820 0.30410 0.16000
C 	C 	0.06230 0.62190 0.30780 -0.29100
C 	C 	0.02060 0.61660 0.25300 0.32200
C 	C 	0.07410 0.58930 0.19780 -0.29300
C 	C 	0.17100 0.56660 0.19370 0.15800
C 	C 	0.61890 0.89330 0.41450 0.35500
C 	C 	0.69650 0.82670 0.37040 -0.16200
C 	C 	0.77050 0.84810 0.34490 0.12300
C 	C 	0.84940 0.78400 0.30720 -0.25300
C 	C 	0.85210 0.69950 0.29260 0.26700
C 	C 	0.78050 0.67570 0.31390 -0.23600
C 	C 	0.70230 0.74250 0.35300 0.12300
C 	C 	0.37110 0.11330 0.42360 0.36000
C 	C 	0.28700 0.18560 0.38370 -0.16000
C 	C 	0.28430 0.27250 0.35900 0.13000
C 	C 	0.20600 0.34140 0.32590 -0.24700
C 	C 	0.12940 0.32440 0.31700 0.27500
C 	C 	0.13230 0.23810 0.34070 -0.25400
C 	C 	0.21280 0.16920 0.37460 0.13500
C 	C 	0.67290 0.45870 0.26700 0.38500
C 	C 	0.77590 0.43950 0.27120 -0.19200
C 	C 	0.82080 0.41200 0.32900 0.16300
C 	C 	0.91250 0.39670 0.33400 -0.29500
C 	C 	0.96460 0.40400 0.27940 0.30500
C 	C 	0.92410 0.43050 0.22160 -0.27200
C 	C 	0.82880 0.44740 0.21720 0.14800
C 	C 	0.54970 0.31810 0.74510 0.37400
C 	C 	0.57290 0.21530 0.74800 -0.19300
C 	C 	0.59820 0.15840 0.80410 0.15900
C 	C 	0.62190 0.06230 0.80780 -0.29000
C 	C 	0.61660 0.02060 0.75300 0.31900
C 	C 	0.58930 0.07410 0.69780 -0.29100
C 	C 	0.56660 0.17100 0.69370 0.15700
C 	C 	0.89330 0.61890 0.91450 0.35500
C 	C 	0.82670 0.69650 0.87040 -0.16200
C 	C 	0.84810 0.77050 0.84490 0.12300
C 	C 	0.78400 0.84940 0.80720 -0.25200
C 	C 	0.69950 0.85210 0.79260 0.26700
C 	C 	0.67570 0.78050 0.81390 -0.23600
C 	C 	0.74250 0.70230 0.85300 0.12300
C 	C 	0.11330 0.37110 0.92360 0.36000
C 	C 	0.18560 0.28700 0.88370 -0.16000
C 	C 	0.27250 0.28430 0.85900 0.13000
C 	C 	0.34140 0.20600 0.82590 -0.24700
C 	C 	0.32440 0.12940 0.81700 0.27500
C 	C 	0.23810 0.13230 0.84070 -0.25400
C 	C 	0.16920 0.21280 0.87460 0.13500
C 	C 	0.45870 0.67290 0.76700 0.38500
C 	C 	0.43950 0.77590 0.77120 -0.19200
C 	C 	0.41200 0.82080 0.82900 0.16400
C 	C 	0.39670 0.91250 0.83400 -0.29600
C 	C 	0.40400 0.96460 0.77940 0.30700
C 	C 	0.43050 0.92410 0.72160 -0.27400
C 	C 	0.44740 0.82880 0.71720 0.14900
C 	C 	0.68190 0.45030 0.75490 0.37500
C 	C 	0.78470 0.42710 0.75200 -0.19300
C 	C 	0.84160 0.40180 0.69590 0.16000
C 	C 	0.93770 0.37810 0.69220 -0.29100
C 	C 	0.97940 0.38340 0.74700 0.32200
C 	C 	0.92590 0.41070 0.80220 -0.29300
C 	C 	0.82900 0.43340 0.80630 0.15800
C 	C 	0.38110 0.10670 0.58550 0.35500
C 	C 	0.30350 0.17330 0.62960 -0.16200
C 	C 	0.22950 0.15190 0.65510 0.12300
C 	C 	0.15060 0.21600 0.69280 -0.25300
C 	C 	0.14790 0.30050 0.70740 0.26700
C 	C 	0.21950 0.32430 0.68610 -0.23600
C 	C 	0.29770 0.25750 0.64700 0.12300
C 	C 	0.62890 0.88670 0.57640 0.36000
C 	C 	0.71300 0.81440 0.61630 -0.16000
C 	C 	0.71570 0.72750 0.64100 0.13000
C 	C 	0.79400 0.65860 0.67410 -0.24700
C 	C 	0.87060 0.67560 0.68300 0.27500
C 	C 	0.86770 0.76190 0.65930 -0.25400
C 	C 	0.78720 0.83080 0.62540 0.13500
C 	C 	0.32710 0.54130 0.73300 0.38500
C 	C 	0.22410 0.56050 0.72880 -0.19200
C 	C 	0.17920 0.58800 0.67100 0.16300
C 	C 	0.08750 0.60330 0.66600 -0.29500
C 	C 	0.03540 0.59600 0.72060 0.30500
C 	C 	0.07590 0.56950 0.77840 -0.27200
C 	C 	0.17120 0.55260 0.78280 0.14800
O 	O 	0.46520 0.63400 0.30640 -0.40400
O 	O 	0.45560 0.64740 0.20030 -0.40400
O 	O 	0.03030 0.37910 0.07170 -0.40500
O 	O 	0.13050 0.44410 0.06260 -0.39900
O 	O 	0.36800 0.07120 0.24780 -0.29600
O 	O 	0.86390 0.56350 0.06710 -0.39700
O 	O 	0.96330 0.62910 0.05650 -0.41200
O 	O 	0.51740 0.36220 0.28960 -0.39200
O 	O 	0.54950 0.37190 0.18600 -0.42700
O 	O 	0.60510 0.94430 0.22010 -0.29700
O 	O 	0.36600 0.53480 0.19360 -0.40400
O 	O 	0.35260 0.54440 0.29970 -0.40400
O 	O 	0.62090 0.96970 0.42830 -0.40700
O 	O 	0.55590 0.86950 0.43740 -0.40000
O 	O 	0.92880 0.63200 0.25220 -0.29700
O 	O 	0.43650 0.13610 0.43290 -0.39700
O 	O 	0.37090 0.03670 0.44350 -0.41100
O 	O 	0.63780 0.48260 0.21040 -0.39200
O 	O 	0.62810 0.45050 0.31400 -0.42700
O 	O 	0.05570 0.39490 0.27990 -0.29600
O 	O 	0.53480 0.36600 0.69360 -0.40400
O 	O 	0.54440 0.35260 0.79970 -0.40400
O 	O 	0.96970 0.62090 0.92830 -0.40500
O 	O 	0.86950 0.55590 0.93740 -0.39900
O 	O 	0.63200 0.92880 0.75220 -0.29600
O 	O 	0.13610 0.43650 0.93290 -0.39700
O 	O 	0.03670 0.37090 0.94350 -0.41200
O 	O 	0.48260 0.63780 0.71040 -0.39200
O 	O 	0.45050 0.62810 0.81400 -0.42700
O 	O 	0.39490 0.05570 0.77990 -0.29700
O 	O 	0.63400 0.46520 0.80640 -0.40400
O 	O 	0.64740 0.45560 0.70030 -0.40400
O 	O 	0.37910 0.03030 0.57170 -0.40700
O 	O 	0.44410 0.13050 0.56260 -0.40000
O 	O 	0.07120 0.36800 0.74780 -0.29700
O 	O 	0.56350 0.86390 0.56710 -0.39700
O 	O 	0.62910 0.96330 0.55650 -0.41100
O 	O 	0.36220 0.51740 0.78960 -0.39200
O 	O 	0.37190 0.54950 0.68600 -0.42700
O 	O 	0.94430 0.60510 0.72010 -0.29600
