data_crystal

_cell_length_a 7.58170
_cell_length_b 10.47870
_cell_length_c 21.66300
_cell_angle_alpha 90.00000
_cell_angle_beta  90.00000
_cell_angle_gamma 90.00000

_symmetry_space_group_name_	'P 1'
_symmetry_space_group_name_H-M	'P 1'

loop_
_symmetry_equiv_pos_as_xyz
  x,y,z

loop_
_atom_site_label
_atom_site_type_symbol
_atom_site_fract_x
_atom_site_fract_y
_atom_site_fract_z
_atom_site_charge
Ag	Ag	0.72680 0.77045 0.13100 0.52900
N 	N 	0.84860 0.97209 0.12849 -0.16900
N 	N 	0.16340 0.17830 0.27796 -0.25900
H 	H 	0.24380 0.19690 0.24740 0.08700
H 	H 	0.16760 0.09140 0.28370 0.08700
N 	N 	0.84710 0.66354 0.04631 -0.16900
N 	N 	0.92910 0.75491 0.84582 -0.25800
H 	H 	0.89570 0.83500 0.85870 0.08600
H 	H 	0.91740 0.75300 0.80360 0.08200
C 	C 	0.93450 0.01970 0.07964 0.03000
H 	H 	0.92700 0.97510 0.04160 0.00800
C 	C 	0.03300 0.13010 0.08177 -0.07200
H 	H 	0.08940 0.16180 0.04570 0.04700
C 	C 	0.86390 0.03670 0.18227 -0.00900
H 	H 	0.80360 0.00460 0.21740 0.00900
C 	C 	0.04850 0.19460 0.13798 -0.04600
H 	H 	0.11720 0.27020 0.14090 0.03200
C 	C 	0.96250 0.14690 0.18901 -0.00000
C 	C 	0.80270 0.66190 0.87210 -0.07700
H 	H 	0.79780 0.58530 0.84540 0.04000
H 	H 	0.68350 0.70030 0.87320 0.03800
C 	C 	0.85680 0.62310 0.93677 -0.00200
C 	C 	0.96390 0.51800 0.94676 -0.05500
H 	H 	0.00460 0.46820 0.91300 0.03600
C 	C 	0.01120 0.48660 0.00709 -0.07600
H 	H 	0.08380 0.41470 0.01520 0.04600
C 	C 	0.98780 0.20680 0.25211 -0.07200
H 	H 	0.97310 0.30040 0.24880 0.03500
H 	H 	0.89590 0.17420 0.28050 0.03300
C 	C 	0.95000 0.56240 0.05496 0.03000
H 	H 	0.98320 0.54100 0.09600 -0.00200
C 	C 	0.80300 0.69290 0.98755 -0.01000
H 	H 	0.73080 0.76560 0.98080 0.02200
Ag	Ag	0.77320 0.22955 0.63100 0.53000
N 	N 	0.65140 0.02791 0.62849 -0.17000
N 	N 	0.33660 0.82170 0.77796 -0.25900
H 	H 	0.25620 0.80310 0.74740 0.08700
H 	H 	0.33240 0.90860 0.78370 0.08700
N 	N 	0.65290 0.33646 0.54631 -0.16900
N 	N 	0.57090 0.24509 0.34582 -0.25800
H 	H 	0.60430 0.16500 0.35870 0.08500
H 	H 	0.58260 0.24700 0.30360 0.08200
C 	C 	0.56550 0.98030 0.57964 0.03400
H 	H 	0.57300 0.02490 0.54160 0.00600
C 	C 	0.46700 0.86990 0.58177 -0.07600
H 	H 	0.41060 0.83820 0.54570 0.04800
C 	C 	0.63610 0.96330 0.68227 -0.00700
H 	H 	0.69640 0.99540 0.71740 0.00800
C 	C 	0.45150 0.80540 0.63798 -0.04500
H 	H 	0.38280 0.72980 0.64090 0.03200
C 	C 	0.53750 0.85310 0.68901 -0.00100
C 	C 	0.69730 0.33810 0.37210 -0.07800
H 	H 	0.70220 0.41470 0.34540 0.04000
H 	H 	0.81650 0.29970 0.37320 0.03800
C 	C 	0.64320 0.37690 0.43677 -0.00100
C 	C 	0.53610 0.48200 0.44676 -0.05900
H 	H 	0.49540 0.53180 0.41300 0.03700
C 	C 	0.48880 0.51340 0.50709 -0.07300
H 	H 	0.41620 0.58530 0.51520 0.04500
C 	C 	0.51220 0.79320 0.75211 -0.07100
H 	H 	0.52690 0.69960 0.74880 0.03500
H 	H 	0.60410 0.82580 0.78050 0.03300
C 	C 	0.55000 0.43760 0.55496 0.02800
H 	H 	0.51680 0.45900 0.59600 -0.00200
C 	C 	0.69700 0.30710 0.48755 -0.01100
H 	H 	0.76920 0.23440 0.48080 0.02200
Ag	Ag	0.27320 0.27045 0.36900 0.53000
N 	N 	0.15140 0.47209 0.37151 -0.17000
N 	N 	0.83660 0.67830 0.22204 -0.25800
H 	H 	0.75620 0.69690 0.25260 0.08700
H 	H 	0.83240 0.59140 0.21630 0.08700
N 	N 	0.15290 0.16354 0.45369 -0.16900
N 	N 	0.07090 0.25491 0.65418 -0.25800
H 	H 	0.10430 0.33500 0.64130 0.08500
H 	H 	0.08260 0.25300 0.69640 0.08200
C 	C 	0.06550 0.51970 0.42036 0.03500
H 	H 	0.07300 0.47510 0.45840 0.00600
C 	C 	0.96700 0.63010 0.41823 -0.07600
H 	H 	0.91060 0.66180 0.45430 0.04800
C 	C 	0.13610 0.53670 0.31773 -0.00700
H 	H 	0.19640 0.50460 0.28260 0.00800
C 	C 	0.95150 0.69460 0.36202 -0.04500
H 	H 	0.88280 0.77020 0.35910 0.03200
C 	C 	0.03750 0.64690 0.31099 -0.00100
C 	C 	0.19730 0.16190 0.62790 -0.07700
H 	H 	0.20220 0.08530 0.65460 0.04000
H 	H 	0.31650 0.20030 0.62680 0.03800
C 	C 	0.14320 0.12310 0.56323 -0.00200
C 	C 	0.03610 0.01800 0.55324 -0.05500
H 	H 	0.99540 0.96820 0.58700 0.03600
C 	C 	0.98880 0.98660 0.49291 -0.07500
H 	H 	0.91620 0.91470 0.48480 0.04600
C 	C 	0.01220 0.70680 0.24789 -0.07200
H 	H 	0.02690 0.80040 0.25120 0.03500
H 	H 	0.10410 0.67420 0.21950 0.03300
C 	C 	0.05000 0.06240 0.44504 0.03000
H 	H 	0.01680 0.04100 0.40400 -0.00200
C 	C 	0.19700 0.19290 0.51245 -0.01000
H 	H 	0.26920 0.26560 0.51920 0.02200
Ag	Ag	0.22680 0.72955 0.86900 0.53000
N 	N 	0.34860 0.52791 0.87151 -0.17000
N 	N 	0.66340 0.32170 0.72204 -0.25900
H 	H 	0.74380 0.30310 0.75260 0.08700
H 	H 	0.66760 0.40860 0.71630 0.08700
N 	N 	0.34710 0.83646 0.95369 -0.16900
N 	N 	0.42910 0.74509 0.15418 -0.25800
H 	H 	0.39570 0.66500 0.14130 0.08500
H 	H 	0.41740 0.74700 0.19640 0.08200
C 	C 	0.43450 0.48030 0.92036 0.03400
H 	H 	0.42700 0.52490 0.95840 0.00600
C 	C 	0.53300 0.36990 0.91823 -0.07600
H 	H 	0.58940 0.33820 0.95430 0.04800
C 	C 	0.36390 0.46330 0.81773 -0.00700
H 	H 	0.30360 0.49540 0.78260 0.00800
C 	C 	0.54850 0.30540 0.86202 -0.04500
H 	H 	0.61720 0.22980 0.85910 0.03200
C 	C 	0.46250 0.35310 0.81099 -0.00100
C 	C 	0.30270 0.83810 0.12790 -0.07800
H 	H 	0.29780 0.91470 0.15460 0.04000
H 	H 	0.18350 0.79970 0.12680 0.03800
C 	C 	0.35680 0.87690 0.06323 -0.00100
C 	C 	0.46390 0.98200 0.05324 -0.05800
H 	H 	0.50460 0.03180 0.08700 0.03700
C 	C 	0.51120 0.01340 0.99291 -0.07200
H 	H 	0.58380 0.08530 0.98480 0.04500
C 	C 	0.48780 0.29320 0.74789 -0.07100
H 	H 	0.47310 0.19960 0.75120 0.03500
H 	H 	0.39590 0.32580 0.71950 0.03300
C 	C 	0.45000 0.93760 0.94504 0.02700
H 	H 	0.48320 0.95900 0.90400 -0.00200
C 	C 	0.30300 0.80710 0.01245 -0.01000
H 	H 	0.23080 0.73440 0.01920 0.02200
