data_crystal

_cell_length_a 9.00300
_cell_length_b 12.04600
_cell_length_c 18.87000
_cell_angle_alpha 90.00000
_cell_angle_beta  96.23000
_cell_angle_gamma 90.00000

_symmetry_space_group_name_	'P 1'
_symmetry_space_group_name_H-M	'P 1'

loop_
_symmetry_equiv_pos_as_xyz
  x,y,z

loop_
_atom_site_label
_atom_site_type_symbol
_atom_site_fract_x
_atom_site_fract_y
_atom_site_fract_z
_atom_site_charge
Cd	Cd	0.75517 0.76037 0.59238 1.12600
Cd	Cd	0.73093 0.00281 0.84512 1.14100
Cd	Cd	0.24483 0.26037 0.90762 1.12500
Cd	Cd	0.26907 0.50281 0.65488 1.14200
Cd	Cd	0.24483 0.23963 0.40762 1.12600
Cd	Cd	0.26907 0.99719 0.15488 1.14100
Cd	Cd	0.75517 0.73963 0.09238 1.12500
Cd	Cd	0.73093 0.49719 0.34512 1.14200
C 	C 	0.73200 0.91280 0.74220 -0.29000
C 	C 	0.74000 0.86840 0.69010 -0.28900
C 	C 	0.75200 0.61630 0.43750 -0.28000
C 	C 	0.75800 0.67090 0.48640 -0.29000
C 	C 	0.07000 0.61500 0.64330 -0.29700
C 	C 	0.96470 0.66610 0.63470 -0.26000
C 	C 	0.47700 0.59870 0.64430 -0.30500
C 	C 	0.58250 0.64410 0.63200 -0.25400
C 	C 	0.26800 0.41280 0.75780 -0.29300
C 	C 	0.26000 0.36840 0.80990 -0.29000
C 	C 	0.24800 0.11630 0.06250 -0.27700
C 	C 	0.24200 0.17090 0.01360 -0.28800
C 	C 	0.93000 0.11500 0.85670 -0.29900
C 	C 	0.03530 0.16610 0.86530 -0.26100
C 	C 	0.52300 0.09870 0.85570 -0.30600
C 	C 	0.41750 0.14410 0.86800 -0.25500
C 	C 	0.26800 0.08720 0.25780 -0.29000
C 	C 	0.26000 0.13160 0.30990 -0.28900
C 	C 	0.24800 0.38370 0.56250 -0.28000
C 	C 	0.24200 0.32910 0.51360 -0.29000
C 	C 	0.93000 0.38500 0.35670 -0.29700
C 	C 	0.03530 0.33390 0.36530 -0.26000
C 	C 	0.52300 0.40130 0.35570 -0.30500
C 	C 	0.41750 0.35590 0.36800 -0.25400
C 	C 	0.73200 0.58720 0.24220 -0.29300
C 	C 	0.74000 0.63160 0.19010 -0.29000
C 	C 	0.75200 0.88370 0.93750 -0.27700
C 	C 	0.75800 0.82910 0.98640 -0.28800
C 	C 	0.07000 0.88500 0.14330 -0.29900
C 	C 	0.96470 0.83390 0.13470 -0.26100
C 	C 	0.47700 0.90130 0.14430 -0.30600
C 	C 	0.58250 0.85590 0.13200 -0.25500
