data_crystal

_cell_length_a 8.50400
_cell_length_b 14.44100
_cell_length_c 45.88300
_cell_angle_alpha 90.00000
_cell_angle_beta  90.00000
_cell_angle_gamma 90.00000

_symmetry_space_group_name_	'P 1'
_symmetry_space_group_name_H-M	'P 1'

loop_
_symmetry_equiv_pos_as_xyz
  x,y,z

loop_
_atom_site_label
_atom_site_type_symbol
_atom_site_fract_x
_atom_site_fract_y
_atom_site_fract_z
_atom_site_charge
C 	C 	0.99800 0.02850 0.09580 -0.29900
C 	C 	0.95200 0.97430 0.07980 -0.25600
C 	C 	0.97500 0.97460 0.00910 -0.29700
C 	C 	0.99800 0.52850 0.59580 -0.30100
C 	C 	0.95200 0.47430 0.57980 -0.25400
C 	C 	0.97500 0.47460 0.50910 -0.29700
C 	C 	0.49800 0.02850 0.59580 -0.30300
C 	C 	0.45200 0.97430 0.57980 -0.25400
C 	C 	0.47500 0.97460 0.50910 -0.29700
C 	C 	0.49800 0.52850 0.09580 -0.30300
C 	C 	0.45200 0.47430 0.07980 -0.25400
C 	C 	0.47500 0.47460 0.00910 -0.29600
C 	C 	0.75200 0.72150 0.09580 -0.30200
C 	C 	0.79800 0.77570 0.07980 -0.25400
C 	C 	0.77500 0.77540 0.00910 -0.29500
C 	C 	0.75200 0.22150 0.59580 -0.30100
C 	C 	0.79800 0.27570 0.57980 -0.25300
C 	C 	0.77500 0.27540 0.50910 -0.29500
C 	C 	0.25200 0.72150 0.59580 -0.30200
C 	C 	0.29800 0.77570 0.57980 -0.25300
C 	C 	0.27500 0.77540 0.50910 -0.29600
C 	C 	0.25200 0.22150 0.09580 -0.30200
C 	C 	0.29800 0.27570 0.07980 -0.25300
C 	C 	0.27500 0.27540 0.00910 -0.29600
C 	C 	0.75200 0.02850 0.65420 -0.30000
C 	C 	0.79800 0.97430 0.67020 -0.25400
C 	C 	0.77500 0.97460 0.74090 -0.29600
C 	C 	0.75200 0.52850 0.15420 -0.30100
C 	C 	0.79800 0.47430 0.17020 -0.25300
C 	C 	0.77500 0.47460 0.24090 -0.29500
C 	C 	0.25200 0.02850 0.15420 -0.30300
C 	C 	0.29800 0.97430 0.17020 -0.25200
C 	C 	0.27500 0.97460 0.24090 -0.29500
C 	C 	0.25200 0.52850 0.65420 -0.30200
C 	C 	0.29800 0.47430 0.67020 -0.25300
C 	C 	0.27500 0.47460 0.74090 -0.29600
C 	C 	0.99800 0.72150 0.65420 -0.30000
C 	C 	0.95200 0.77570 0.67020 -0.25300
C 	C 	0.97500 0.77540 0.74090 -0.29600
C 	C 	0.99800 0.22150 0.15420 -0.30000
C 	C 	0.95200 0.27570 0.17020 -0.25300
C 	C 	0.97500 0.27540 0.24090 -0.29500
C 	C 	0.49800 0.72150 0.15420 -0.30200
C 	C 	0.45200 0.77570 0.17020 -0.25300
C 	C 	0.47500 0.77540 0.24090 -0.29500
C 	C 	0.49800 0.22150 0.65420 -0.30200
C 	C 	0.45200 0.27570 0.67020 -0.25300
C 	C 	0.47500 0.27540 0.74090 -0.29500
C 	C 	0.00200 0.97150 0.90420 -0.29800
C 	C 	0.04800 0.02570 0.92020 -0.25500
C 	C 	0.02500 0.02540 0.99090 -0.29600
C 	C 	0.00200 0.47150 0.40420 -0.30000
C 	C 	0.04800 0.52570 0.42020 -0.25300
C 	C 	0.02500 0.52540 0.49090 -0.29600
C 	C 	0.50200 0.97150 0.40420 -0.30200
C 	C 	0.54800 0.02570 0.42020 -0.25300
C 	C 	0.52500 0.02540 0.49090 -0.29600
C 	C 	0.50200 0.47150 0.90420 -0.30200
C 	C 	0.54800 0.52570 0.92020 -0.25300
C 	C 	0.52500 0.52540 0.99090 -0.29500
C 	C 	0.24800 0.27850 0.90420 -0.30100
C 	C 	0.20200 0.22430 0.92020 -0.25300
C 	C 	0.22500 0.22460 0.99090 -0.29500
C 	C 	0.24800 0.77850 0.40420 -0.30100
C 	C 	0.20200 0.72430 0.42020 -0.25300
C 	C 	0.22500 0.72460 0.49090 -0.29500
C 	C 	0.74800 0.27850 0.40420 -0.30200
C 	C 	0.70200 0.22430 0.42020 -0.25300
C 	C 	0.72500 0.22460 0.49090 -0.29600
C 	C 	0.74800 0.77850 0.90420 -0.30200
C 	C 	0.70200 0.72430 0.92020 -0.25300
C 	C 	0.72500 0.72460 0.99090 -0.29600
C 	C 	0.24800 0.97150 0.34580 -0.30000
C 	C 	0.20200 0.02570 0.32980 -0.25400
C 	C 	0.22500 0.02540 0.25910 -0.29600
C 	C 	0.24800 0.47150 0.84580 -0.30100
C 	C 	0.20200 0.52570 0.82980 -0.25300
C 	C 	0.22500 0.52540 0.75910 -0.29500
C 	C 	0.74800 0.97150 0.84580 -0.30300
C 	C 	0.70200 0.02570 0.82980 -0.25200
C 	C 	0.72500 0.02540 0.75910 -0.29500
C 	C 	0.74800 0.47150 0.34580 -0.30200
C 	C 	0.70200 0.52570 0.32980 -0.25300
C 	C 	0.72500 0.52540 0.25910 -0.29600
C 	C 	0.00200 0.27850 0.34580 -0.30000
C 	C 	0.04800 0.22430 0.32980 -0.25300
C 	C 	0.02500 0.22460 0.25910 -0.29600
C 	C 	0.00200 0.77850 0.84580 -0.30000
C 	C 	0.04800 0.72430 0.82980 -0.25300
C 	C 	0.02500 0.72460 0.75910 -0.29500
C 	C 	0.50200 0.27850 0.84580 -0.30200
C 	C 	0.54800 0.22430 0.82980 -0.25300
C 	C 	0.52500 0.22460 0.75910 -0.29500
C 	C 	0.50200 0.77850 0.34580 -0.30200
C 	C 	0.54800 0.72430 0.32980 -0.25300
C 	C 	0.52500 0.72460 0.25910 -0.29500
Cd	Cd	0.87500 0.87500 0.04175 1.12700
Cd	Cd	0.87500 0.37500 0.54175 1.12700
Cd	Cd	0.37500 0.87500 0.54175 1.12700
Cd	Cd	0.37500 0.37500 0.04175 1.12700
Cd	Cd	0.87500 0.87500 0.70825 1.12700
Cd	Cd	0.87500 0.37500 0.20825 1.12700
Cd	Cd	0.37500 0.87500 0.20825 1.12700
Cd	Cd	0.37500 0.37500 0.70825 1.12700
Cd	Cd	0.12500 0.12500 0.95825 1.12700
Cd	Cd	0.12500 0.62500 0.45825 1.12700
Cd	Cd	0.62500 0.12500 0.45825 1.12700
Cd	Cd	0.62500 0.62500 0.95825 1.12700
Cd	Cd	0.12500 0.12500 0.29175 1.12700
Cd	Cd	0.12500 0.62500 0.79175 1.12700
Cd	Cd	0.62500 0.12500 0.79175 1.12700
Cd	Cd	0.62500 0.62500 0.29175 1.12700
Cd	Cd	0.12500 0.12500 0.12500 1.14600
Cd	Cd	0.12500 0.62500 0.62500 1.14700
Cd	Cd	0.62500 0.12500 0.62500 1.14700
Cd	Cd	0.62500 0.62500 0.12500 1.14700
Cd	Cd	0.87500 0.87500 0.87500 1.14600
Cd	Cd	0.87500 0.37500 0.37500 1.14700
Cd	Cd	0.37500 0.87500 0.37500 1.14700
Cd	Cd	0.37500 0.37500 0.87500 1.14700
