data_crystal

_cell_length_a 13.76760
_cell_length_b 13.76760
_cell_length_c 28.06190
_cell_angle_alpha 90.00000
_cell_angle_beta  90.00000
_cell_angle_gamma 120.00000

_symmetry_space_group_name_	'P 1'
_symmetry_space_group_name_H-M	'P 1'

loop_
_symmetry_equiv_pos_as_xyz
  x,y,z

loop_
_atom_site_label
_atom_site_type_symbol
_atom_site_fract_x
_atom_site_fract_y
_atom_site_fract_z
_atom_site_charge
In	In	0.85316 0.55970 0.97537 2.01400
P 	P 	0.97467 0.80914 0.91683 0.75400
P 	P 	0.62942 0.50737 0.04011 0.59200
O 	O 	0.03240 0.88880 0.95798 -0.59800
O 	O 	0.71450 0.57100 0.00162 -0.57200
O 	O 	0.87880 0.69630 0.93218 -0.49300
O 	O 	0.56270 0.56480 0.05146 -0.53500
O 	O 	0.93080 0.85400 0.87831 -0.38600
O 	O 	0.75990 0.44790 0.92050 -0.49800
O 	O 	0.55600 0.38410 0.02968 -0.53200
O 	O 	0.09030 0.94140 0.79524 -0.42000
H 	H 	0.05060 0.80130 0.89000 -0.13600
O 	O 	0.69580 0.50840 0.08210 -0.20700
In	In	0.44030 0.29346 0.97537 2.00200
P 	P 	0.19086 0.16553 0.91683 0.48800
P 	P 	0.49263 0.12205 0.04011 0.45000
O 	O 	0.11120 0.14360 0.95798 -0.61900
O 	O 	0.42900 0.14350 0.00162 -0.60900
O 	O 	0.30370 0.18250 0.93218 -0.52400
O 	O 	0.43520 0.99790 0.05146 -0.36800
O 	O 	0.14600 0.07680 0.87831 -0.60400
O 	O 	0.55210 0.31200 0.92050 -0.52400
O 	O 	0.61590 0.17190 0.02968 -0.54400
O 	O 	0.05860 0.14890 0.79524 -0.61700
H 	H 	0.19870 0.24930 0.89000 -0.04500
O 	O 	0.49160 0.18740 0.08210 -0.23700
In	In	0.70654 0.14684 0.97537 1.99300
P 	P 	0.83447 0.02533 0.91683 0.20700
P 	P 	0.87795 0.37058 0.04011 0.74900
O 	O 	0.85640 0.96760 0.95798 -0.28600
O 	O 	0.85650 0.28550 0.00162 -0.57100
O 	O 	0.81750 0.12120 0.93218 -0.45800
O 	O 	0.00210 0.43730 0.05146 -0.71200
O 	O 	0.92320 0.06920 0.87831 -0.40200
O 	O 	0.68800 0.24010 0.92050 -0.52000
O 	O 	0.82810 0.44400 0.02968 -0.52100
O 	O 	0.85110 0.90970 0.79524 -0.39200
H 	H 	0.75070 0.94940 0.89000 0.12000
O 	O 	0.81260 0.30420 0.08210 -0.22800
In	In	0.14684 0.44030 0.47537 1.98500
P 	P 	0.02533 0.19086 0.41683 0.18000
P 	P 	0.37058 0.49263 0.54011 0.59800
O 	O 	0.96760 0.11120 0.45798 -0.38500
O 	O 	0.28550 0.42900 0.50162 -0.58300
O 	O 	0.12120 0.30370 0.43218 -0.49600
O 	O 	0.43730 0.43520 0.55146 -0.53000
O 	O 	0.06920 0.14600 0.37831 -0.54700
O 	O 	0.24010 0.55210 0.42050 -0.53700
O 	O 	0.44400 0.61590 0.52968 -0.52300
O 	O 	0.90970 0.05860 0.29524 -0.51700
H 	H 	0.94940 0.19870 0.39000 0.11200
O 	O 	0.30420 0.49160 0.58210 -0.24000
In	In	0.55970 0.70654 0.47537 1.99800
P 	P 	0.80914 0.83447 0.41683 0.48400
P 	P 	0.50737 0.87795 0.54011 0.74000
O 	O 	0.88880 0.85640 0.45798 -0.40700
O 	O 	0.57100 0.85650 0.50162 -0.54600
O 	O 	0.69630 0.81750 0.43218 -0.46800
O 	O 	0.56480 0.00210 0.55146 -0.69600
O 	O 	0.85400 0.92320 0.37831 -0.33400
O 	O 	0.44790 0.68800 0.42050 -0.51100
O 	O 	0.38410 0.82810 0.52968 -0.50900
O 	O 	0.94140 0.85110 0.29524 -0.34500
H 	H 	0.80130 0.75070 0.39000 0.00000
O 	O 	0.50840 0.81260 0.58210 -0.21100
In	In	0.29346 0.85316 0.47537 2.00700
P 	P 	0.16553 0.97467 0.41683 0.79400
P 	P 	0.12205 0.62942 0.54011 0.44700
O 	O 	0.14360 0.03240 0.45798 -0.75200
O 	O 	0.14350 0.71450 0.50162 -0.57800
O 	O 	0.18250 0.87880 0.43218 -0.53300
O 	O 	0.99790 0.56270 0.55146 -0.35900
O 	O 	0.07680 0.93080 0.37831 -0.51500
O 	O 	0.31200 0.75990 0.42050 -0.51400
O 	O 	0.17190 0.55600 0.52968 -0.53400
O 	O 	0.14890 0.09030 0.29524 -0.56800
H 	H 	0.24930 0.05060 0.39000 -0.17700
O 	O 	0.18740 0.69580 0.58210 -0.21700
In	In	0.14684 0.44030 0.02463 1.97800
P 	P 	0.02533 0.19086 0.08317 0.17700
P 	P 	0.37058 0.49263 0.95989 0.59800
O 	O 	0.96760 0.11120 0.04202 -0.39200
O 	O 	0.28550 0.42900 0.99838 -0.56400
O 	O 	0.12120 0.30370 0.06782 -0.50400
O 	O 	0.43730 0.43520 0.94854 -0.52200
O 	O 	0.06920 0.14600 0.12169 -0.54800
O 	O 	0.24010 0.55210 0.07950 -0.54500
O 	O 	0.44400 0.61590 0.97032 -0.51100
O 	O 	0.90970 0.05860 0.20476 -0.51600
H 	H 	0.94940 0.19870 0.11000 0.11300
O 	O 	0.30420 0.49160 0.91790 -0.23900
In	In	0.55970 0.70654 0.02463 1.99100
P 	P 	0.80914 0.83447 0.08317 0.48500
P 	P 	0.50737 0.87795 0.95989 0.74100
O 	O 	0.88880 0.85640 0.04202 -0.41700
O 	O 	0.57100 0.85650 0.99838 -0.52800
O 	O 	0.69630 0.81750 0.06782 -0.47600
O 	O 	0.56480 0.00210 0.94854 -0.69000
O 	O 	0.85400 0.92320 0.12169 -0.33500
O 	O 	0.44790 0.68800 0.07950 -0.51900
O 	O 	0.38410 0.82810 0.97032 -0.49700
O 	O 	0.94140 0.85110 0.20476 -0.34500
H 	H 	0.80130 0.75070 0.11000 -0.00100
O 	O 	0.50840 0.81260 0.91790 -0.21000
In	In	0.29346 0.85316 0.02463 1.99900
P 	P 	0.16553 0.97467 0.08317 0.79000
P 	P 	0.12205 0.62942 0.95989 0.45000
O 	O 	0.14360 0.03240 0.04202 -0.76100
O 	O 	0.14350 0.71450 0.99838 -0.55800
O 	O 	0.18250 0.87880 0.06782 -0.54200
O 	O 	0.99790 0.56270 0.94854 -0.35500
O 	O 	0.07680 0.93080 0.12169 -0.51700
O 	O 	0.31200 0.75990 0.07950 -0.52200
O 	O 	0.17190 0.55600 0.97032 -0.52200
O 	O 	0.14890 0.09030 0.20476 -0.56800
H 	H 	0.24930 0.05060 0.11000 -0.17600
O 	O 	0.18740 0.69580 0.91790 -0.21600
In	In	0.85316 0.55970 0.52463 2.00700
P 	P 	0.97467 0.80914 0.58317 0.76000
P 	P 	0.62942 0.50737 0.45989 0.59200
O 	O 	0.03240 0.88880 0.54202 -0.61500
O 	O 	0.71450 0.57100 0.49838 -0.55600
O 	O 	0.87880 0.69630 0.56782 -0.50000
O 	O 	0.56270 0.56480 0.44854 -0.52700
O 	O 	0.93080 0.85400 0.62169 -0.38700
O 	O 	0.75990 0.44790 0.57950 -0.50500
O 	O 	0.55600 0.38410 0.47032 -0.52200
O 	O 	0.09030 0.94140 0.70476 -0.42000
H 	H 	0.05060 0.80130 0.61000 -0.13900
O 	O 	0.69580 0.50840 0.41790 -0.20600
In	In	0.44030 0.29346 0.52463 1.99500
P 	P 	0.19086 0.16553 0.58317 0.48900
P 	P 	0.49263 0.12205 0.45989 0.44700
O 	O 	0.11120 0.14360 0.54202 -0.63300
O 	O 	0.42900 0.14350 0.49838 -0.59300
O 	O 	0.30370 0.18250 0.56782 -0.53200
O 	O 	0.43520 0.99790 0.44854 -0.35700
O 	O 	0.14600 0.07680 0.62169 -0.60600
O 	O 	0.55210 0.31200 0.57950 -0.53100
O 	O 	0.61590 0.17190 0.47032 -0.53400
O 	O 	0.05860 0.14890 0.70476 -0.61700
H 	H 	0.19870 0.24930 0.61000 -0.04700
O 	O 	0.49160 0.18740 0.41790 -0.23500
In	In	0.70654 0.14684 0.52463 1.98700
P 	P 	0.83447 0.02533 0.58317 0.20900
P 	P 	0.87795 0.37058 0.45989 0.74700
O 	O 	0.85640 0.96760 0.54202 -0.29900
O 	O 	0.85650 0.28550 0.49838 -0.55700
O 	O 	0.81750 0.12120 0.56782 -0.46400
O 	O 	0.00210 0.43730 0.44854 -0.70200
O 	O 	0.92320 0.06920 0.62169 -0.40200
O 	O 	0.68800 0.24010 0.57950 -0.52600
O 	O 	0.82810 0.44400 0.47032 -0.51100
O 	O 	0.85110 0.90970 0.70476 -0.39200
H 	H 	0.75070 0.94940 0.61000 0.11900
O 	O 	0.81260 0.30420 0.41790 -0.22700
In	In	-0.00000 0.00000 -0.00000 1.89200
In	In	-0.00000 0.00000 0.50000 1.90000
In	In	-0.00000 0.00000 0.83559 1.91100
In	In	0.00000 0.00000 0.33559 1.91000
In	In	0.00000 0.00000 0.16441 1.91100
In	In	-0.00000 0.00000 0.66441 1.91100
P 	P 	0.66667 0.33333 0.90764 0.54400
H 	H 	0.66667 0.33333 0.86060 -0.00000
P 	P 	0.33333 0.66667 0.40764 0.54100
H 	H 	0.33333 0.66667 0.36060 -0.00000
P 	P 	0.33333 0.66667 0.09236 0.53900
H 	H 	0.33333 0.66667 0.13940 0.00000
P 	P 	0.66667 0.33333 0.59236 0.54100
H 	H 	0.66667 0.33333 0.63940 0.00000
P 	P 	0.07277 0.87610 0.75000 0.47500
O 	O 	0.15297 0.82800 0.75000 -0.38800
O 	O 	0.96270 0.77340 0.75000 -0.08600
H 	H 	0.15170 0.76810 0.75000 0.26700
P 	P 	0.12390 0.19667 0.75000 0.63700
O 	O 	0.17200 0.32497 0.75000 -0.48000
O 	O 	0.22660 0.18930 0.75000 -0.30600
H 	H 	0.23190 0.38360 0.75000 0.31400
P 	P 	0.80333 0.92723 0.75000 0.79700
O 	O 	0.67503 0.84703 0.75000 -0.45700
O 	O 	0.81070 0.03730 0.75000 -0.36400
H 	H 	0.61640 0.84830 0.75000 0.36000
P 	P 	0.92723 0.12390 0.25000 0.81600
O 	O 	0.84703 0.17200 0.25000 -0.49600
O 	O 	0.03730 0.22660 0.25000 -0.43500
H 	H 	0.84830 0.23190 0.25000 0.36400
P 	P 	0.87610 0.80333 0.25000 0.63500
O 	O 	0.82800 0.67503 0.25000 -0.40600
O 	O 	0.77340 0.81070 0.25000 -0.20100
H 	H 	0.76810 0.61640 0.25000 0.31300
P 	P 	0.19667 0.07277 0.25000 0.46200
O 	O 	0.32497 0.15297 0.25000 -0.42600
O 	O 	0.18930 0.96270 0.25000 -0.12000
H 	H 	0.38360 0.15170 0.25000 0.26500
