data_crystal

_cell_length_a 6.68820
_cell_length_b 15.16340
_cell_length_c 15.16340
_cell_angle_alpha 62.12300
_cell_angle_beta  81.54540
_cell_angle_gamma 98.45460

_symmetry_space_group_name_	'P 1'
_symmetry_space_group_name_H-M	'P 1'

loop_
_symmetry_equiv_pos_as_xyz
  x,y,z

loop_
_atom_site_label
_atom_site_type_symbol
_atom_site_fract_x
_atom_site_fract_y
_atom_site_fract_z
_atom_site_charge
Ni	Ni	0.69820 0.31370 0.26900 1.09300
Ni	Ni	0.96720 0.26900 0.41730 1.09300
Ni	Ni	0.38450 0.41730 0.31370 1.09400
Ni	Ni	0.30180 0.68630 0.73100 1.09300
Ni	Ni	0.03280 0.73100 0.58270 1.09300
Ni	Ni	0.61550 0.58270 0.68630 1.09400
H 	H 	0.64400 0.54200 0.47000 0.05300
H 	H 	0.11400 0.47000 0.98800 0.05300
H 	H 	0.10200 0.98800 0.54200 0.05200
H 	H 	0.35600 0.45800 0.53000 0.05300
H 	H 	0.88600 0.53000 0.01200 0.05300
H 	H 	0.89800 0.01200 0.45800 0.05200
C 	C 	0.75180 0.43110 0.38370 0.42500
C 	C 	0.89430 0.46220 0.44630 -0.19000
C 	C 	0.06990 0.43860 0.46290 0.17100
C 	C 	0.82930 0.52810 0.47620 -0.02900
C 	C 	0.13550 0.38370 0.18520 0.42600
C 	C 	0.34060 0.44630 0.09150 -0.19000
C 	C 	0.53280 0.46290 0.09850 0.17100
C 	C 	0.30550 0.47620 0.99570 -0.02900
C 	C 	0.32070 0.18520 0.43110 0.42500
C 	C 	0.43210 0.09150 0.46220 -0.18900
C 	C 	0.63130 0.09850 0.43860 0.17100
C 	C 	0.30120 0.99570 0.52810 -0.02900
C 	C 	0.24820 0.56890 0.61630 0.42500
C 	C 	0.10570 0.53780 0.55370 -0.19000
C 	C 	0.93010 0.56140 0.53710 0.17100
C 	C 	0.17070 0.47190 0.52380 -0.02900
C 	C 	0.86450 0.61630 0.81480 0.42600
C 	C 	0.65940 0.55370 0.90850 -0.19000
C 	C 	0.46720 0.53710 0.90150 0.17100
C 	C 	0.69450 0.52380 0.00430 -0.02900
C 	C 	0.67930 0.81480 0.56890 0.42500
C 	C 	0.56790 0.90850 0.53780 -0.18900
C 	C 	0.36870 0.90150 0.56140 0.17100
C 	C 	0.69880 0.00430 0.47190 -0.02900
O 	O 	0.59430 0.47430 0.37140 -0.43500
O 	O 	0.80750 0.37860 0.35310 -0.59900
O 	O 	0.14720 0.36930 0.44070 -0.49000
O 	O 	0.96570 0.37140 0.15430 -0.43500
O 	O 	0.16060 0.35310 0.26830 -0.59900
O 	O 	0.58790 0.44070 0.19000 -0.49000
O 	O 	0.12000 0.15430 0.47430 -0.43400
O 	O 	0.42890 0.26830 0.37860 -0.59900
O 	O 	0.77790 0.19000 0.36930 -0.49000
O 	O 	0.40570 0.52570 0.62860 -0.43500
O 	O 	0.19250 0.62140 0.64690 -0.59900
O 	O 	0.85280 0.63070 0.55930 -0.49000
O 	O 	0.03430 0.62860 0.84570 -0.43500
O 	O 	0.83940 0.64690 0.73170 -0.59900
O 	O 	0.41210 0.55930 0.81000 -0.49000
O 	O 	0.88000 0.84570 0.52570 -0.43400
O 	O 	0.57110 0.73170 0.62140 -0.59900
O 	O 	0.22210 0.81000 0.63070 -0.49000
