data_crystal

_cell_length_a 14.71900
_cell_length_b 14.73400
_cell_length_c 17.89100
_cell_angle_alpha 90.00000
_cell_angle_beta  90.00000
_cell_angle_gamma 90.02000

_symmetry_space_group_name_	'P 1'
_symmetry_space_group_name_H-M	'P 1'

loop_
_symmetry_equiv_pos_as_xyz
  x,y,z

loop_
_atom_site_label
_atom_site_type_symbol
_atom_site_fract_x
_atom_site_fract_y
_atom_site_fract_z
_atom_site_charge
Co	Co	0.99480 0.11860 0.33130 1.17600
Co	Co	0.01320 0.88040 0.17210 1.18100
Co	Co	0.36850 0.25400 0.42230 1.17800
Co	Co	0.87060 0.76240 0.41830 1.18400
P 	P 	0.14790 0.24600 0.40010 0.52500
P 	P 	0.00300 0.89920 0.35230 0.50200
P 	P 	0.98850 0.10220 0.14990 0.54300
P 	P 	0.85060 0.76120 0.10270 0.55000
O 	O 	0.98580 0.99920 0.37590 -0.38300
O 	O 	0.90480 0.86910 0.35640 -0.40400
O 	O 	0.75000 0.76890 0.12510 -0.39300
O 	O 	0.11210 0.17620 0.34200 -0.43300
O 	O 	0.14490 0.19960 0.47940 -0.43600
O 	O 	0.05690 0.84540 0.41330 -0.44800
O 	O 	0.95020 0.10150 0.22810 -0.44800
O 	O 	0.90100 0.81610 0.16080 -0.45300
O 	O 	0.01220 0.00280 0.12800 -0.38900
O 	O 	0.24710 0.26210 0.37720 -0.39600
O 	O 	0.88000 0.65920 0.11190 -0.41600
O 	O 	0.86920 0.79630 0.02670 -0.46500
O 	O 	0.91650 0.13320 0.09430 -0.43800
O 	O 	0.09580 0.33340 0.40120 -0.43500
O 	O 	0.07430 0.15840 0.14570 -0.44500
O 	O 	0.04750 0.87880 0.27490 -0.45400
Co	Co	0.49480 0.61860 0.83130 1.18000
Co	Co	0.51320 0.38040 0.67210 1.18500
Co	Co	0.86850 0.75400 0.92230 1.17900
Co	Co	0.37060 0.26240 0.91830 1.18400
P 	P 	0.64790 0.74600 0.90010 0.52600
P 	P 	0.50300 0.39920 0.85230 0.51300
P 	P 	0.48850 0.60220 0.64990 0.55300
P 	P 	0.35060 0.26120 0.60270 0.55100
O 	O 	0.48580 0.49920 0.87590 -0.39100
O 	O 	0.40480 0.36910 0.85640 -0.40900
O 	O 	0.25000 0.26890 0.62510 -0.39400
O 	O 	0.61210 0.67620 0.84200 -0.43600
O 	O 	0.64490 0.69960 0.97940 -0.43700
O 	O 	0.55690 0.34540 0.91330 -0.44700
O 	O 	0.45020 0.60150 0.72810 -0.44700
O 	O 	0.40100 0.31610 0.66080 -0.45600
O 	O 	0.51220 0.50280 0.62800 -0.39800
O 	O 	0.74710 0.76210 0.87720 -0.39600
O 	O 	0.38000 0.15920 0.61190 -0.41700
O 	O 	0.36920 0.29630 0.52670 -0.46700
O 	O 	0.41650 0.63320 0.59430 -0.43700
O 	O 	0.59580 0.83340 0.90120 -0.43600
O 	O 	0.57430 0.65840 0.64570 -0.45100
O 	O 	0.54750 0.37880 0.77490 -0.45300
Co	Co	0.00520 0.38140 0.33130 1.18100
Co	Co	0.98680 0.61960 0.17210 1.18700
Co	Co	0.63150 0.24600 0.42230 1.17900
Co	Co	0.12940 0.73760 0.41830 1.18400
P 	P 	0.85210 0.25400 0.40010 0.52600
P 	P 	0.99700 0.60080 0.35230 0.51600
P 	P 	0.01150 0.39780 0.14990 0.55600
P 	P 	0.14940 0.73880 0.10270 0.55100
O 	O 	0.01420 0.50080 0.37590 -0.39100
O 	O 	0.09520 0.63090 0.35640 -0.41000
O 	O 	0.25000 0.73110 0.12510 -0.39400
O 	O 	0.88790 0.32380 0.34200 -0.43700
O 	O 	0.85510 0.30040 0.47940 -0.43700
O 	O 	0.94310 0.65460 0.41330 -0.44600
O 	O 	0.04980 0.39850 0.22810 -0.44600
O 	O 	0.09900 0.68390 0.16080 -0.45700
O 	O 	0.98780 0.49720 0.12800 -0.39800
O 	O 	0.75290 0.23790 0.37720 -0.39700
O 	O 	0.12000 0.84080 0.11190 -0.41900
O 	O 	0.13080 0.70370 0.02670 -0.46700
O 	O 	0.08350 0.36680 0.09430 -0.43700
O 	O 	0.90420 0.16660 0.40120 -0.43900
O 	O 	0.92570 0.34160 0.14570 -0.45200
O 	O 	0.95250 0.62120 0.27490 -0.45300
Co	Co	0.50520 0.88140 0.83130 1.18000
Co	Co	0.48680 0.11960 0.67210 1.18500
Co	Co	0.13150 0.74600 0.92230 1.17900
Co	Co	0.62940 0.23760 0.91830 1.18400
P 	P 	0.35210 0.75400 0.90010 0.52600
P 	P 	0.49700 0.10080 0.85230 0.51300
P 	P 	0.51150 0.89780 0.64990 0.55300
P 	P 	0.64940 0.23880 0.60270 0.55100
O 	O 	0.51420 0.00080 0.87590 -0.39200
O 	O 	0.59520 0.13090 0.85640 -0.40900
O 	O 	0.75000 0.23110 0.62510 -0.39400
O 	O 	0.38790 0.82380 0.84200 -0.43700
O 	O 	0.35510 0.80040 0.97940 -0.43800
O 	O 	0.44310 0.15460 0.91330 -0.44700
O 	O 	0.54980 0.89850 0.72810 -0.44700
O 	O 	0.59900 0.18390 0.66080 -0.45700
O 	O 	0.48780 0.99720 0.62800 -0.39900
O 	O 	0.25290 0.73790 0.87720 -0.39700
O 	O 	0.62000 0.34080 0.61190 -0.41700
O 	O 	0.63080 0.20370 0.52670 -0.46700
O 	O 	0.58350 0.86680 0.59430 -0.43700
O 	O 	0.40420 0.66660 0.90120 -0.43600
O 	O 	0.42570 0.84160 0.64570 -0.45100
O 	O 	0.45250 0.12120 0.77490 -0.45300
Co	Co	0.00520 0.88140 0.66870 1.17700
Co	Co	0.98680 0.11960 0.82790 1.18200
Co	Co	0.63150 0.74600 0.57770 1.17900
Co	Co	0.12940 0.23760 0.58170 1.18500
P 	P 	0.85210 0.75400 0.59990 0.52600
P 	P 	0.99700 0.10080 0.64770 0.50300
P 	P 	0.01150 0.89780 0.85010 0.54400
P 	P 	0.14940 0.23880 0.89730 0.55100
O 	O 	0.01420 0.00080 0.62410 -0.38200
O 	O 	0.09520 0.13090 0.64360 -0.40300
O 	O 	0.25000 0.23110 0.87490 -0.39300
O 	O 	0.88790 0.82380 0.65800 -0.43300
O 	O 	0.85510 0.80040 0.52060 -0.43600
O 	O 	0.94310 0.15460 0.58670 -0.44800
O 	O 	0.04980 0.89850 0.77190 -0.44800
O 	O 	0.09900 0.18390 0.83920 -0.45300
O 	O 	0.98780 0.99720 0.87200 -0.38900
O 	O 	0.75290 0.73790 0.62280 -0.39600
O 	O 	0.12000 0.34080 0.88810 -0.41600
O 	O 	0.13080 0.20370 0.97330 -0.46500
O 	O 	0.08350 0.86680 0.90570 -0.43800
O 	O 	0.90420 0.66660 0.59880 -0.43500
O 	O 	0.92570 0.84160 0.85430 -0.44500
O 	O 	0.95250 0.12120 0.72510 -0.45400
Co	Co	0.50520 0.38140 0.16870 1.18000
Co	Co	0.48680 0.61960 0.32790 1.18500
Co	Co	0.13150 0.24600 0.07770 1.17900
Co	Co	0.62940 0.73760 0.08170 1.18400
P 	P 	0.35210 0.25400 0.09990 0.52600
P 	P 	0.49700 0.60080 0.14770 0.51300
P 	P 	0.51150 0.39780 0.35010 0.55300
P 	P 	0.64940 0.73880 0.39730 0.55100
O 	O 	0.51420 0.50080 0.12410 -0.39100
O 	O 	0.59520 0.63090 0.14360 -0.40900
O 	O 	0.75000 0.73110 0.37490 -0.39400
O 	O 	0.38790 0.32380 0.15800 -0.43600
O 	O 	0.35510 0.30040 0.02060 -0.43700
O 	O 	0.44310 0.65460 0.08670 -0.44700
O 	O 	0.54980 0.39850 0.27190 -0.44700
O 	O 	0.59900 0.68390 0.33920 -0.45600
O 	O 	0.48780 0.49720 0.37200 -0.39800
O 	O 	0.25290 0.23790 0.12280 -0.39600
O 	O 	0.62000 0.84080 0.38810 -0.41700
O 	O 	0.63080 0.70370 0.47330 -0.46700
O 	O 	0.58350 0.36680 0.40570 -0.43700
O 	O 	0.40420 0.16660 0.09880 -0.43600
O 	O 	0.42570 0.34160 0.35430 -0.45100
O 	O 	0.45250 0.62120 0.22510 -0.45300
Co	Co	0.99480 0.61860 0.66870 1.18100
Co	Co	0.01320 0.38040 0.82790 1.18700
Co	Co	0.36850 0.75400 0.57770 1.17900
Co	Co	0.87060 0.26240 0.58170 1.18400
P 	P 	0.14790 0.74600 0.59990 0.52600
P 	P 	0.00300 0.39920 0.64770 0.51600
P 	P 	0.98850 0.60220 0.85010 0.55600
P 	P 	0.85060 0.26120 0.89730 0.55100
O 	O 	0.98580 0.49920 0.62410 -0.39100
O 	O 	0.90480 0.36910 0.64360 -0.41000
O 	O 	0.75000 0.26890 0.87490 -0.39400
O 	O 	0.11210 0.67620 0.65800 -0.43700
O 	O 	0.14490 0.69960 0.52060 -0.43700
O 	O 	0.05690 0.34540 0.58670 -0.44600
O 	O 	0.95020 0.60150 0.77190 -0.44600
O 	O 	0.90100 0.31610 0.83920 -0.45700
O 	O 	0.01220 0.50280 0.87200 -0.39800
O 	O 	0.24710 0.76210 0.62280 -0.39700
O 	O 	0.88000 0.15920 0.88810 -0.41900
O 	O 	0.86920 0.29630 0.97330 -0.46700
O 	O 	0.91650 0.63320 0.90570 -0.43700
O 	O 	0.09580 0.83340 0.59880 -0.43900
O 	O 	0.07430 0.65840 0.85430 -0.45200
O 	O 	0.04750 0.37880 0.72510 -0.45300
Co	Co	0.49480 0.11860 0.16870 1.18000
Co	Co	0.51320 0.88040 0.32790 1.18500
Co	Co	0.86850 0.25400 0.07770 1.17900
Co	Co	0.37060 0.76240 0.08170 1.18400
P 	P 	0.64790 0.24600 0.09990 0.52600
P 	P 	0.50300 0.89920 0.14770 0.51300
P 	P 	0.48850 0.10220 0.35010 0.55300
P 	P 	0.35060 0.76120 0.39730 0.55100
O 	O 	0.48580 0.99920 0.12410 -0.39200
O 	O 	0.40480 0.86910 0.14360 -0.40900
O 	O 	0.25000 0.76890 0.37490 -0.39400
O 	O 	0.61210 0.17620 0.15800 -0.43700
O 	O 	0.64490 0.19960 0.02060 -0.43800
O 	O 	0.55690 0.84540 0.08670 -0.44700
O 	O 	0.45020 0.10150 0.27190 -0.44700
O 	O 	0.40100 0.81610 0.33920 -0.45700
O 	O 	0.51220 0.00280 0.37200 -0.39900
O 	O 	0.74710 0.26210 0.12280 -0.39700
O 	O 	0.38000 0.65920 0.38810 -0.41700
O 	O 	0.36920 0.79630 0.47330 -0.46700
O 	O 	0.41650 0.13320 0.40570 -0.43700
O 	O 	0.59580 0.33340 0.09880 -0.43600
O 	O 	0.57430 0.15840 0.35430 -0.45100
O 	O 	0.54750 0.87880 0.22510 -0.45300
