data_crystal

_cell_length_a 11.92420
_cell_length_b 17.58700
_cell_length_c 15.43600
_cell_angle_alpha 90.00000
_cell_angle_beta  101.75400
_cell_angle_gamma 90.00000

_symmetry_space_group_name_	'P 1'
_symmetry_space_group_name_H-M	'P 1'

loop_
_symmetry_equiv_pos_as_xyz
  x,y,z

loop_
_atom_site_label
_atom_site_type_symbol
_atom_site_fract_x
_atom_site_fract_y
_atom_site_fract_z
_atom_site_charge
S 	S 	0.05926 0.07970 0.12507 -0.11100
S 	S 	0.11660 0.12492 0.02167 -0.10200
N 	N 	0.68040 0.02279 0.03189 -0.29900
N 	N 	0.03695 0.37919 0.01181 -0.29500
C 	C 	0.74140 0.00399 0.11185 -0.06300
C 	C 	0.85540 0.02017 0.13950 -0.10500
C 	C 	0.91240 0.05920 0.08278 0.07400
C 	C 	0.85100 0.07753 0.99930 -0.14200
C 	C 	0.73720 0.05804 0.97663 0.13700
C 	C 	0.07800 0.34272 0.94922 0.14400
C 	C 	0.10180 0.26619 0.95190 -0.13900
C 	C 	0.08270 0.22365 0.02239 0.03500
C 	C 	0.03970 0.26017 0.08720 -0.11400
C 	C 	0.01850 0.33713 0.07990 -0.04400
H 	H 	0.70200 0.97840 0.14800 0.05400
H 	H 	0.89400 0.00590 0.19600 0.05900
H 	H 	0.88300 0.10580 0.96200 0.10700
H 	H 	0.69800 0.06670 0.92000 -0.05500
H 	H 	0.09000 0.37100 0.90500 -0.06600
H 	H 	0.13400 0.24890 0.90900 0.08400
H 	H 	0.01900 0.23500 0.13200 0.05500
H 	H 	0.99100 0.36220 0.12000 0.04300
S 	S 	0.55926 0.57970 0.12507 -0.04700
S 	S 	0.61660 0.62492 0.02167 -0.07800
N 	N 	0.18040 0.52279 0.03189 -0.31600
N 	N 	0.53695 0.87919 0.01181 -0.30500
C 	C 	0.24140 0.50399 0.11185 0.08300
C 	C 	0.35540 0.52017 0.13950 -0.16200
C 	C 	0.41240 0.55920 0.08278 0.05300
C 	C 	0.35100 0.57753 0.99930 -0.13200
C 	C 	0.23720 0.55804 0.97663 0.13600
C 	C 	0.57800 0.84272 0.94922 0.17300
C 	C 	0.60180 0.76619 0.95190 -0.17800
C 	C 	0.58270 0.72365 0.02239 0.08900
C 	C 	0.53970 0.76017 0.08720 -0.21400
C 	C 	0.51850 0.83713 0.07990 0.12200
H 	H 	0.20200 0.47840 0.14800 -0.05100
H 	H 	0.39400 0.50590 0.19600 0.08100
H 	H 	0.38300 0.60580 0.96200 0.09400
H 	H 	0.19800 0.56670 0.92000 -0.05200
H 	H 	0.59000 0.87100 0.90500 -0.05900
H 	H 	0.63400 0.74890 0.90900 0.10800
H 	H 	0.51900 0.73500 0.13200 0.10600
H 	H 	0.49100 0.86220 0.12000 -0.05300
S 	S 	0.94074 0.92030 0.87493 -0.00500
S 	S 	0.88340 0.87508 0.97833 -0.01500
N 	N 	0.31960 0.97721 0.96811 -0.26700
N 	N 	0.96305 0.62081 0.98819 -0.29600
C 	C 	0.25860 0.99601 0.88815 0.27000
C 	C 	0.14460 0.97983 0.86050 -0.25900
C 	C 	0.08760 0.94080 0.91722 0.15800
C 	C 	0.14900 0.92247 0.00070 -0.25500
C 	C 	0.26280 0.94196 0.02337 0.10100
C 	C 	0.92200 0.65728 0.05078 0.17300
C 	C 	0.89820 0.73381 0.04810 -0.36800
C 	C 	0.91730 0.77635 0.97761 0.26900
C 	C 	0.96030 0.73983 0.91280 -0.38000
C 	C 	0.98150 0.66287 0.92010 0.34400
H 	H 	0.29800 0.02160 0.85200 -0.14600
H 	H 	0.10600 0.99410 0.80400 0.12300
H 	H 	0.11700 0.89420 0.03800 0.10500
H 	H 	0.30200 0.93330 0.08000 -0.03600
H 	H 	0.91000 0.62900 0.09500 -0.07400
H 	H 	0.86600 0.75110 0.09100 0.17000
H 	H 	0.98100 0.76500 0.86800 0.18500
H 	H 	0.00900 0.63780 0.88000 -0.17300
S 	S 	0.44074 0.42030 0.87493 -0.06900
S 	S 	0.38340 0.37508 0.97833 -0.03700
N 	N 	0.81960 0.47721 0.96811 -0.25100
N 	N 	0.46305 0.12081 0.98819 -0.28200
C 	C 	0.75860 0.49601 0.88815 0.13400
C 	C 	0.64460 0.47983 0.86050 -0.20800
C 	C 	0.58760 0.44080 0.91722 0.18300
C 	C 	0.64900 0.42247 0.00070 -0.27100
C 	C 	0.76280 0.44196 0.02337 0.10000
C 	C 	0.42200 0.15728 0.05078 0.14200
C 	C 	0.39820 0.23381 0.04810 -0.34300
C 	C 	0.41730 0.27635 0.97761 0.22800
C 	C 	0.46030 0.23983 0.91280 -0.28800
C 	C 	0.48150 0.16287 0.92010 0.18900
H 	H 	0.79800 0.52160 0.85200 -0.04800
H 	H 	0.60600 0.49410 0.80400 0.10300
H 	H 	0.61700 0.39420 0.03800 0.11900
H 	H 	0.80200 0.43330 0.08000 -0.04000
H 	H 	0.41000 0.12900 0.09500 -0.08200
H 	H 	0.36600 0.25110 0.09100 0.14900
H 	H 	0.48100 0.26500 0.86800 0.13700
H 	H 	0.50900 0.13780 0.88000 -0.08100
Zn	Zn	0.50000 0.00000 -0.00000 1.11400
Zn	Zn	-0.00000 0.50000 -0.00000 1.11900
S 	S 	0.94074 0.07970 0.37493 -0.01200
S 	S 	0.88340 0.12492 0.47833 -0.09100
N 	N 	0.31960 0.02279 0.46811 -0.26000
N 	N 	0.96305 0.37919 0.48819 -0.32300
C 	C 	0.25860 0.00399 0.38815 -0.07900
C 	C 	0.14460 0.02017 0.36050 -0.06600
C 	C 	0.08760 0.05920 0.41722 0.00800
C 	C 	0.14900 0.07753 0.50070 -0.13800
C 	C 	0.26280 0.05804 0.52337 0.06600
C 	C 	0.92200 0.34272 0.55078 0.19900
C 	C 	0.89820 0.26619 0.54810 -0.31000
C 	C 	0.91730 0.22365 0.47761 0.22500
C 	C 	0.96030 0.26017 0.41280 -0.36800
C 	C 	0.98150 0.33713 0.42010 0.33000
H 	H 	0.29800 0.97840 0.35200 0.05900
H 	H 	0.10600 0.00590 0.30400 0.02300
H 	H 	0.11700 0.10580 0.53800 0.06400
H 	H 	0.30200 0.06670 0.58000 -0.04000
H 	H 	0.91000 0.37100 0.59500 -0.07700
H 	H 	0.86600 0.24890 0.59100 0.15100
H 	H 	0.98100 0.23500 0.36800 0.17900
H 	H 	0.00900 0.36220 0.38000 -0.17400
S 	S 	0.44074 0.57970 0.37493 -0.06100
S 	S 	0.38340 0.62492 0.47833 -0.05700
N 	N 	0.81960 0.52279 0.46811 -0.27700
N 	N 	0.46305 0.87919 0.48819 -0.28600
C 	C 	0.75860 0.50399 0.38815 0.11000
C 	C 	0.64460 0.52017 0.36050 -0.18400
C 	C 	0.58760 0.55920 0.41722 0.12000
C 	C 	0.64900 0.57753 0.50070 -0.20000
C 	C 	0.76280 0.55804 0.52337 0.12100
C 	C 	0.42200 0.84272 0.55078 0.15800
C 	C 	0.39820 0.76619 0.54810 -0.25300
C 	C 	0.41730 0.72365 0.47761 0.15500
C 	C 	0.46030 0.76017 0.41280 -0.24700
C 	C 	0.48150 0.83713 0.42010 0.15200
H 	H 	0.79800 0.47840 0.35200 -0.04500
H 	H 	0.60600 0.50590 0.30400 0.09100
H 	H 	0.61700 0.60580 0.53800 0.10900
H 	H 	0.80200 0.56670 0.58000 -0.04100
H 	H 	0.41000 0.87100 0.59500 -0.05900
H 	H 	0.36600 0.74890 0.59100 0.12800
H 	H 	0.48100 0.73500 0.36800 0.12100
H 	H 	0.50900 0.86220 0.38000 -0.06100
S 	S 	0.05926 0.92030 0.62507 -0.10300
S 	S 	0.11660 0.87508 0.52167 -0.02500
N 	N 	0.68040 0.97721 0.53189 -0.30800
N 	N 	0.03695 0.62081 0.51181 -0.27300
C 	C 	0.74140 0.99601 0.61185 0.29400
C 	C 	0.85540 0.97983 0.63950 -0.30200
C 	C 	0.91240 0.94080 0.58278 0.22700
C 	C 	0.85100 0.92247 0.49930 -0.26300
C 	C 	0.73720 0.94196 0.47663 0.16900
C 	C 	0.07800 0.65728 0.44922 0.12000
C 	C 	0.10180 0.73381 0.45190 -0.20800
C 	C 	0.08270 0.77635 0.52239 0.09000
C 	C 	0.03970 0.73983 0.58720 -0.13500
C 	C 	0.01850 0.66287 0.57990 -0.01800
H 	H 	0.70200 0.02160 0.64800 -0.15700
H 	H 	0.89400 0.99410 0.69600 0.16000
H 	H 	0.88300 0.89420 0.46200 0.14900
H 	H 	0.69800 0.93330 0.42000 -0.05200
H 	H 	0.09000 0.62900 0.40500 -0.06600
H 	H 	0.13400 0.75110 0.40900 0.10600
H 	H 	0.01900 0.76500 0.63200 0.06500
H 	H 	0.99100 0.63780 0.62000 0.03700
S 	S 	0.55926 0.42030 0.62507 -0.05500
S 	S 	0.61660 0.37508 0.52167 -0.05900
N 	N 	0.18040 0.47721 0.53189 -0.29300
N 	N 	0.53695 0.12081 0.51181 -0.30700
C 	C 	0.24140 0.49601 0.61185 0.10800
C 	C 	0.35540 0.47983 0.63950 -0.18700
C 	C 	0.41240 0.44080 0.58278 0.11600
C 	C 	0.35100 0.42247 0.49930 -0.20200
C 	C 	0.23720 0.44196 0.47663 0.11400
C 	C 	0.57800 0.15728 0.44922 0.16100
C 	C 	0.60180 0.23381 0.45190 -0.26500
C 	C 	0.58270 0.27635 0.52239 0.15900
C 	C 	0.53970 0.23983 0.58720 -0.25500
C 	C 	0.51850 0.16287 0.57990 0.15700
H 	H 	0.20200 0.52160 0.64800 -0.05500
H 	H 	0.39400 0.49410 0.69600 0.09300
H 	H 	0.38300 0.39420 0.46200 0.10400
H 	H 	0.19800 0.43330 0.42000 -0.05200
H 	H 	0.59000 0.12900 0.40500 -0.08300
H 	H 	0.63400 0.25110 0.40900 0.12800
H 	H 	0.51900 0.26500 0.63200 0.12200
H 	H 	0.49100 0.13780 0.62000 -0.07400
Zn	Zn	0.50000 0.00000 0.50000 1.12900
Zn	Zn	0.00000 0.50000 0.50000 1.13300
