data_crystal

_cell_length_a 17.38670
_cell_length_b 17.38670
_cell_length_c 11.34550
_cell_angle_alpha 90.00000
_cell_angle_beta  90.00000
_cell_angle_gamma 120.00000

_symmetry_space_group_name_	'P 1'
_symmetry_space_group_name_H-M	'P 1'

loop_
_symmetry_equiv_pos_as_xyz
  x,y,z

loop_
_atom_site_label
_atom_site_type_symbol
_atom_site_fract_x
_atom_site_fract_y
_atom_site_fract_z
_atom_site_charge
O 	O 	0.51950 0.31490 0.36790 -0.31200
O 	O 	0.54240 0.24440 0.22970 -0.29600
C 	C 	0.48520 0.26470 0.27450 0.56700
C 	C 	0.39920 0.23610 0.23610 -0.95700
C 	C 	0.33780 0.24500 0.30440 1.94600
H 	H 	0.35370 0.27080 0.37880 -0.54500
C 	C 	0.25260 0.21540 0.26160 -3.01000
C 	C 	0.22880 0.17690 0.15050 -1.95500
C 	C 	0.29030 0.16800 0.08220 1.40200
H 	H 	0.27440 0.14220 0.00780 1.01100
C 	C 	0.37550 0.19760 0.12500 0.13600
H 	H 	0.41660 0.19160 0.07920 0.09500
O 	O 	0.14040 0.14620 0.11580 0.05900
P 	P 	0.09100 0.09100 0.00450 0.36900
H 	H 	0.21150 0.22140 0.30730 3.11500
N 	N 	0.09100 -0.00000 0.99550 -0.09500
C 	C 	0.50200 0.23010 0.26550 0.14200
C 	C 	0.40330 0.16520 0.21730 0.33300
C 	C 	0.34210 0.09650 0.28810 -0.06300
C 	C 	0.25660 0.04010 0.24690 -0.11600
C 	C 	0.23230 0.05240 0.13480 0.72600
C 	C 	0.29340 0.12100 0.06400 -1.51700
C 	C 	0.37890 0.17740 0.10520 -0.01500
H 	H 	0.35840 0.08830 0.36310 0.07700
H 	H 	0.21570 0.99420 0.29430 0.00700
H 	H 	0.27710 0.12930 0.98900 -0.69100
H 	H 	0.41980 0.22340 0.05780 -0.02200
O 	O 	0.52210 0.20910 0.35310 -0.25700
O 	O 	0.54540 0.28770 0.19980 -0.18700
O 	O 	0.14430 0.99210 0.10070 -0.21100
O 	O 	0.68510 0.20460 0.36790 -0.31300
O 	O 	0.75560 0.29800 0.22970 -0.28700
C 	C 	0.73530 0.22050 0.27450 0.56200
C 	C 	0.76390 0.16310 0.23610 -0.93100
C 	C 	0.75500 0.09280 0.30440 1.88100
H 	H 	0.72920 0.08290 0.37880 -0.52100
C 	C 	0.78460 0.03720 0.26160 -2.92100
C 	C 	0.82310 0.05190 0.15050 -1.71100
C 	C 	0.83200 0.12230 0.08220 1.19700
H 	H 	0.85780 0.13220 0.00780 0.94300
C 	C 	0.80240 0.17790 0.12500 0.12500
H 	H 	0.80840 0.22500 0.07920 0.05900
O 	O 	0.85380 0.99420 0.11580 0.04800
P 	P 	0.90900 0.00000 0.00450 0.34400
H 	H 	0.77860 0.99010 0.30730 2.96400
N 	N 	0.00000 0.09100 0.99550 -0.09600
C 	C 	0.76990 0.27190 0.26550 0.13400
C 	C 	0.83480 0.23810 0.21730 0.33300
C 	C 	0.90350 0.24560 0.28810 -0.10500
C 	C 	0.95990 0.21650 0.24690 -0.03000
C 	C 	0.94760 0.17990 0.13480 0.64600
C 	C 	0.87900 0.17240 0.06400 -1.34100
C 	C 	0.82260 0.20150 0.10520 0.01900
H 	H 	0.91170 0.27010 0.36310 0.09500
H 	H 	0.00580 0.22150 0.29430 -0.03900
H 	H 	0.87070 0.14780 0.98900 -0.63800
H 	H 	0.77660 0.19640 0.05780 -0.00500
O 	O 	0.79090 0.31300 0.35310 -0.25200
O 	O 	0.71230 0.25770 0.19980 -0.19100
O 	O 	0.00790 0.15220 0.10070 -0.21500
O 	O 	0.79540 0.48050 0.36790 -0.31000
O 	O 	0.70200 0.45760 0.22970 -0.29000
C 	C 	0.77950 0.51480 0.27450 0.56000
C 	C 	0.83690 0.60080 0.23610 -0.93200
C 	C 	0.90720 0.66220 0.30440 1.88400
H 	H 	0.91710 0.64630 0.37880 -0.51900
C 	C 	0.96280 0.74740 0.26160 -2.90400
C 	C 	0.94810 0.77120 0.15050 -1.96300
C 	C 	0.87770 0.70970 0.08220 1.40900
H 	H 	0.86780 0.72560 0.00780 1.00500
C 	C 	0.82210 0.62450 0.12500 0.12500
H 	H 	0.77500 0.58340 0.07920 0.10700
O 	O 	0.00580 0.85960 0.11580 0.06200
P 	P 	-0.00000 0.90900 0.00450 0.37400
H 	H 	0.00990 0.78850 0.30730 3.03500
N 	N 	0.90900 0.90900 0.99550 -0.08100
C 	C 	0.72810 0.49800 0.26550 0.13500
C 	C 	0.76190 0.59670 0.21730 0.34200
C 	C 	0.75440 0.65790 0.28810 -0.09700
C 	C 	0.78350 0.74340 0.24690 -0.05300
C 	C 	0.82010 0.76770 0.13480 0.72600
C 	C 	0.82760 0.70660 0.06400 -1.51000
C 	C 	0.79850 0.62110 0.10520 -0.02500
H 	H 	0.72990 0.64160 0.36310 0.09000
H 	H 	0.77850 0.78430 0.29430 -0.02500
H 	H 	0.85220 0.72290 0.98900 -0.68900
H 	H 	0.80360 0.58020 0.05780 -0.02400
O 	O 	0.68700 0.47790 0.35310 -0.25400
O 	O 	0.74230 0.45460 0.19980 -0.18800
O 	O 	0.84780 0.85570 0.10070 -0.22100
O 	O 	0.31490 0.51950 0.13210 -0.31700
O 	O 	0.24440 0.54240 0.27030 -0.28800
C 	C 	0.26470 0.48520 0.22550 0.55800
C 	C 	0.23610 0.39920 0.26390 -0.92500
C 	C 	0.24500 0.33780 0.19560 1.86800
H 	H 	0.27080 0.35370 0.12120 -0.51800
C 	C 	0.21540 0.25260 0.23840 -2.87600
C 	C 	0.17690 0.22880 0.34950 -2.14500
C 	C 	0.16800 0.29030 0.41780 1.59800
H 	H 	0.14220 0.27440 0.49220 0.99900
C 	C 	0.19760 0.37550 0.37500 0.11700
H 	H 	0.19160 0.41660 0.42080 0.15400
O 	O 	0.14620 0.14040 0.38420 0.09500
P 	P 	0.09100 0.09100 0.49550 0.39700
H 	H 	0.22140 0.21150 0.19270 3.02000
N 	N 	0.00000 0.09100 0.50450 -0.11500
C 	C 	0.23010 0.50200 0.23450 0.13300
C 	C 	0.16520 0.40330 0.28270 0.34600
C 	C 	0.09650 0.34210 0.21190 -0.07300
C 	C 	0.04010 0.25660 0.25310 -0.10300
C 	C 	0.05240 0.23230 0.36520 0.79000
C 	C 	0.12100 0.29340 0.43600 -1.63900
C 	C 	0.17740 0.37890 0.39480 -0.06700
H 	H 	0.08830 0.35840 0.13690 0.07400
H 	H 	0.99420 0.21570 0.20570 0.00400
H 	H 	0.12930 0.27710 0.51100 -0.68700
H 	H 	0.22340 0.41980 0.44220 -0.03600
O 	O 	0.20910 0.52210 0.14690 -0.25800
O 	O 	0.28770 0.54540 0.30020 -0.18500
O 	O 	0.99210 0.14430 0.39930 -0.22000
O 	O 	0.20460 0.68510 0.13210 -0.31500
O 	O 	0.29800 0.75560 0.27030 -0.28600
C 	C 	0.22050 0.73530 0.22550 0.55700
C 	C 	0.16310 0.76390 0.26390 -0.92300
C 	C 	0.09280 0.75500 0.19560 1.86600
H 	H 	0.08290 0.72920 0.12120 -0.51900
C 	C 	0.03720 0.78460 0.23840 -2.88000
C 	C 	0.05190 0.82310 0.34950 -2.06800
C 	C 	0.12230 0.83200 0.41780 1.53800
H 	H 	0.13220 0.85780 0.49220 0.96500
C 	C 	0.17790 0.80240 0.37500 0.11100
H 	H 	0.22500 0.80840 0.42080 0.14200
O 	O 	0.99420 0.85380 0.38420 0.09900
P 	P 	-0.00000 0.90900 0.49550 0.39100
H 	H 	0.99010 0.77860 0.19270 2.99600
N 	N 	0.09100 -0.00000 0.50450 -0.11200
C 	C 	0.27190 0.76990 0.23450 0.13300
C 	C 	0.23810 0.83480 0.28270 0.34700
C 	C 	0.24560 0.90350 0.21190 -0.07600
C 	C 	0.21650 0.95990 0.25310 -0.08800
C 	C 	0.17990 0.94760 0.36520 0.75700
C 	C 	0.17240 0.87900 0.43600 -1.57700
C 	C 	0.20150 0.82260 0.39480 -0.05500
H 	H 	0.27010 0.91170 0.13690 0.08300
H 	H 	0.22150 0.00580 0.20570 0.00000
H 	H 	0.14780 0.87070 0.51100 -0.66100
H 	H 	0.19640 0.77660 0.44220 -0.03000
O 	O 	0.31300 0.79090 0.14690 -0.25500
O 	O 	0.25770 0.71230 0.30020 -0.18500
O 	O 	0.15220 0.00790 0.39930 -0.22800
O 	O 	0.48050 0.79540 0.13210 -0.31300
O 	O 	0.45760 0.70200 0.27030 -0.26000
C 	C 	0.51480 0.77950 0.22550 0.55300
C 	C 	0.60080 0.83690 0.26390 -0.84700
C 	C 	0.66220 0.90720 0.19560 1.68400
H 	H 	0.64630 0.91710 0.12120 -0.45000
C 	C 	0.74740 0.96280 0.23840 -2.57000
C 	C 	0.77120 0.94810 0.34950 -2.07700
C 	C 	0.70970 0.87770 0.41780 1.54800
H 	H 	0.72560 0.86780 0.49220 0.96700
C 	C 	0.62450 0.82210 0.37500 0.10100
H 	H 	0.58340 0.77500 0.42080 0.16500
O 	O 	0.85960 0.00580 0.38420 0.08700
P 	P 	0.90900 0.00000 0.49550 0.39500
H 	H 	0.78850 0.00990 0.19270 2.75500
N 	N 	0.90900 0.90900 0.50450 -0.10100
C 	C 	0.49800 0.72810 0.23450 0.10400
C 	C 	0.59670 0.76190 0.28270 0.32900
C 	C 	0.65790 0.75440 0.21190 -0.07800
C 	C 	0.74340 0.78350 0.25310 -0.07900
C 	C 	0.76770 0.82010 0.36520 0.75700
C 	C 	0.70660 0.82760 0.43600 -1.57500
C 	C 	0.62110 0.79850 0.39480 -0.07800
H 	H 	0.64160 0.72990 0.13690 0.07900
H 	H 	0.78430 0.77850 0.20570 -0.02000
H 	H 	0.72290 0.85220 0.51100 -0.66500
H 	H 	0.58020 0.80360 0.44220 -0.03700
O 	O 	0.47790 0.68700 0.14690 -0.25100
O 	O 	0.45460 0.74230 0.30020 -0.19400
O 	O 	0.85570 0.84780 0.39930 -0.21900
O 	O 	0.48050 0.68510 0.63210 -0.31700
O 	O 	0.45760 0.75560 0.77030 -0.36100
C 	C 	0.51480 0.73530 0.72550 0.57900
C 	C 	0.60080 0.76390 0.76390 -1.13300
C 	C 	0.66220 0.75500 0.69560 2.39400
H 	H 	0.64630 0.72920 0.62120 -0.71500
C 	C 	0.74740 0.78460 0.73840 -3.71500
C 	C 	0.77120 0.82310 0.84950 -2.82400
C 	C 	0.70970 0.83200 0.91780 2.12500
H 	H 	0.72560 0.85780 0.99220 1.21300
C 	C 	0.62450 0.80240 0.87500 0.16700
H 	H 	0.58340 0.80840 0.92080 0.21100
O 	O 	0.85960 0.85380 0.88420 0.27500
H 	H 	0.78850 0.77860 0.69270 3.91200
C 	C 	0.49800 0.76990 0.73450 0.20700
C 	C 	0.59670 0.83480 0.78270 0.36900
C 	C 	0.65790 0.90350 0.71190 0.08700
C 	C 	0.74340 0.95990 0.75310 -0.39200
C 	C 	0.76770 0.94760 0.86520 1.00600
C 	C 	0.70660 0.87900 0.93600 -2.11200
C 	C 	0.62110 0.82260 0.89480 -0.11100
H 	H 	0.64160 0.91170 0.63690 0.03500
H 	H 	0.78430 0.00580 0.70570 0.17000
H 	H 	0.72290 0.87070 0.01100 -0.85500
H 	H 	0.58020 0.77660 0.94220 -0.07200
O 	O 	0.47790 0.79090 0.64690 -0.26900
O 	O 	0.45460 0.71230 0.80020 -0.15200
O 	O 	0.85570 0.00790 0.89930 -0.32000
O 	O 	0.31490 0.79540 0.63210 -0.31700
O 	O 	0.24440 0.70200 0.77030 -0.35100
C 	C 	0.26470 0.77950 0.72550 0.58000
C 	C 	0.23610 0.83690 0.76390 -1.10800
C 	C 	0.24500 0.90720 0.69560 2.33300
H 	H 	0.27080 0.91710 0.62120 -0.69300
C 	C 	0.21540 0.96280 0.73840 -3.61900
C 	C 	0.17690 0.94810 0.84950 -2.70800
C 	C 	0.16800 0.87770 0.91780 2.01500
H 	H 	0.14220 0.86780 0.99220 1.20100
C 	C 	0.19760 0.82210 0.87500 0.16900
H 	H 	0.19160 0.77500 0.92080 0.19300
O 	O 	0.14620 0.00580 0.88420 0.25500
H 	H 	0.22140 0.00990 0.69270 3.80500
C 	C 	0.23010 0.72810 0.73450 0.19600
C 	C 	0.16520 0.76190 0.78270 0.35500
C 	C 	0.09650 0.75440 0.71190 0.08300
C 	C 	0.04010 0.78350 0.75310 -0.39000
C 	C 	0.05240 0.82010 0.86520 0.96800
C 	C 	0.12100 0.82760 0.93600 -2.03400
C 	C 	0.17740 0.79850 0.89480 -0.09400
H 	H 	0.08830 0.72990 0.63690 0.03000
H 	H 	0.99420 0.77850 0.70570 0.15600
H 	H 	0.12930 0.85220 0.01100 -0.84500
H 	H 	0.22340 0.80360 0.94220 -0.06500
O 	O 	0.20910 0.68700 0.64690 -0.26900
O 	O 	0.28770 0.74230 0.80020 -0.15700
O 	O 	0.99210 0.84780 0.89930 -0.30800
O 	O 	0.20460 0.51950 0.63210 -0.31800
O 	O 	0.29800 0.54240 0.77030 -0.37100
C 	C 	0.22050 0.48520 0.72550 0.57800
C 	C 	0.16310 0.39920 0.76390 -1.16000
C 	C 	0.09280 0.33780 0.69560 2.45500
H 	H 	0.08290 0.35370 0.62120 -0.73700
C 	C 	0.03720 0.25260 0.73840 -3.82100
C 	C 	0.05190 0.22880 0.84950 -2.82900
C 	C 	0.12230 0.29030 0.91780 2.12900
H 	H 	0.13220 0.27440 0.99220 1.20900
C 	C 	0.17790 0.37550 0.87500 0.16800
H 	H 	0.22500 0.41660 0.92080 0.20800
O 	O 	0.99420 0.14040 0.88420 0.28600
H 	H 	0.99010 0.21150 0.69270 3.98700
C 	C 	0.27190 0.50200 0.73450 0.21900
C 	C 	0.23810 0.40330 0.78270 0.38200
C 	C 	0.24560 0.34210 0.71190 0.06800
C 	C 	0.21650 0.25660 0.75310 -0.36900
C 	C 	0.17990 0.23230 0.86520 1.01500
C 	C 	0.17240 0.29340 0.93600 -2.12000
C 	C 	0.20150 0.37890 0.89480 -0.10600
H 	H 	0.27010 0.35840 0.63690 0.03800
H 	H 	0.22150 0.21570 0.70570 0.15800
H 	H 	0.14780 0.27710 0.01100 -0.85100
H 	H 	0.19640 0.41980 0.94220 -0.07100
O 	O 	0.31300 0.52210 0.64690 -0.27200
O 	O 	0.25770 0.54540 0.80020 -0.14900
O 	O 	0.15220 0.14430 0.89930 -0.33100
O 	O 	0.68510 0.48050 0.86790 -0.30900
O 	O 	0.75560 0.45760 0.72970 -0.37200
C 	C 	0.73530 0.51480 0.77450 0.57700
C 	C 	0.76390 0.60080 0.73610 -1.15800
C 	C 	0.75500 0.66220 0.80440 2.45000
H 	H 	0.72920 0.64630 0.87880 -0.73100
C 	C 	0.78460 0.74740 0.76160 -3.81000
C 	C 	0.82310 0.77120 0.65050 -2.69300
C 	C 	0.83200 0.70970 0.58220 1.98700
H 	H 	0.85780 0.72560 0.50780 1.22500
C 	C 	0.80240 0.62450 0.62500 0.17500
H 	H 	0.80840 0.58340 0.57920 0.17300
O 	O 	0.85380 0.85960 0.61580 0.24700
H 	H 	0.77860 0.78850 0.80730 3.97800
C 	C 	0.76990 0.49800 0.76550 0.21900
C 	C 	0.83480 0.59670 0.71730 0.38000
C 	C 	0.90350 0.65790 0.78810 0.04500
C 	C 	0.95990 0.74340 0.74690 -0.31800
C 	C 	0.94760 0.76770 0.63480 0.97600
C 	C 	0.87900 0.70660 0.56400 -2.02800
C 	C 	0.82260 0.62110 0.60520 -0.07700
H 	H 	0.91170 0.64160 0.86310 0.05700
H 	H 	0.00580 0.78430 0.79430 0.13900
H 	H 	0.87070 0.72290 0.48900 -0.86100
H 	H 	0.77660 0.58020 0.55780 -0.06100
O 	O 	0.79090 0.47790 0.85310 -0.26400
O 	O 	0.71230 0.45460 0.69980 -0.15000
O 	O 	0.00790 0.85570 0.60070 -0.34700
O 	O 	0.79540 0.31490 0.86790 -0.30800
O 	O 	0.70200 0.24440 0.72970 -0.36900
C 	C 	0.77950 0.26470 0.77450 0.58200
C 	C 	0.83690 0.23610 0.73610 -1.15100
C 	C 	0.90720 0.24500 0.80440 2.44200
H 	H 	0.91710 0.27080 0.87880 -0.72800
C 	C 	0.96280 0.21540 0.76160 -3.78700
C 	C 	0.94810 0.17690 0.65050 -2.77000
C 	C 	0.87770 0.16800 0.58220 2.04200
H 	H 	0.86780 0.14220 0.50780 1.25500
C 	C 	0.82210 0.19760 0.62500 0.18100
H 	H 	0.77500 0.19160 0.57920 0.18500
O 	O 	0.00580 0.14620 0.61580 0.25000
H 	H 	0.00990 0.22140 0.80730 3.99400
C 	C 	0.72810 0.23010 0.76550 0.21400
C 	C 	0.76190 0.16520 0.71730 0.36400
C 	C 	0.75440 0.09650 0.78810 0.08700
C 	C 	0.78350 0.04010 0.74690 -0.39900
C 	C 	0.82010 0.05240 0.63480 0.98900
C 	C 	0.82760 0.12100 0.56400 -2.07700
C 	C 	0.79850 0.17740 0.60520 -0.08700
H 	H 	0.72990 0.08830 0.86310 0.04100
H 	H 	0.77850 0.99420 0.79430 0.17400
H 	H 	0.85220 0.12930 0.48900 -0.88500
H 	H 	0.80360 0.22340 0.55780 -0.06700
O 	O 	0.68700 0.20910 0.85310 -0.26400
O 	O 	0.74230 0.28770 0.69980 -0.15100
O 	O 	0.84780 0.99210 0.60070 -0.32800
O 	O 	0.51950 0.20460 0.86790 -0.30900
O 	O 	0.54240 0.29800 0.72970 -0.35700
C 	C 	0.48520 0.22050 0.77450 0.57800
C 	C 	0.39920 0.16310 0.73610 -1.12300
C 	C 	0.33780 0.09280 0.80440 2.36700
H 	H 	0.35370 0.08290 0.87880 -0.70100
C 	C 	0.25260 0.03720 0.76160 -3.67800
C 	C 	0.22880 0.05190 0.65050 -2.63100
C 	C 	0.29030 0.12230 0.58220 1.94000
H 	H 	0.27440 0.13220 0.50780 1.19700
C 	C 	0.37550 0.17790 0.62500 0.17000
H 	H 	0.41660 0.22500 0.57920 0.17300
O 	O 	0.14040 0.99420 0.61580 0.24200
H 	H 	0.21150 0.99010 0.80730 3.84500
C 	C 	0.50200 0.27190 0.76550 0.20300
C 	C 	0.40330 0.23810 0.71730 0.36200
C 	C 	0.34210 0.24560 0.78810 0.06300
C 	C 	0.25660 0.21650 0.74690 -0.34900
C 	C 	0.23230 0.17990 0.63480 0.94900
C 	C 	0.29340 0.17240 0.56400 -1.98100
C 	C 	0.37890 0.20150 0.60520 -0.07600
H 	H 	0.35840 0.27010 0.86310 0.04700
H 	H 	0.21570 0.22150 0.79430 0.14000
H 	H 	0.27710 0.14780 0.48900 -0.84000
H 	H 	0.41980 0.19640 0.55780 -0.06000
O 	O 	0.52210 0.31300 0.85310 -0.26300
O 	O 	0.54540 0.25770 0.69980 -0.15600
O 	O 	0.14430 0.15220 0.60070 -0.33400
Cd	Cd	0.66667 0.33333 0.33660 1.28000
Cd	Cd	0.33333 0.66667 0.16340 1.27900
Cd	Cd	0.33333 0.66667 0.66340 1.28400
Cd	Cd	0.66667 0.33333 0.83660 1.28600
