data_crystal

_cell_length_a 12.15830
_cell_length_b 16.78310
_cell_length_c 43.41000
_cell_angle_alpha 90.00000
_cell_angle_beta  90.00000
_cell_angle_gamma 93.68800

_symmetry_space_group_name_	'P 1'
_symmetry_space_group_name_H-M	'P 1'

loop_
_symmetry_equiv_pos_as_xyz
  x,y,z

loop_
_atom_site_label
_atom_site_type_symbol
_atom_site_fract_x
_atom_site_fract_y
_atom_site_fract_z
_atom_site_charge
Cd	Cd	0.18547 0.46408 0.29793 1.20200
Cd	Cd	0.92036 0.56684 0.29575 1.20200
Cd	Cd	0.22680 0.32143 0.50489 1.15800
Cd	Cd	0.31453 0.53592 0.79793 1.20200
Cd	Cd	0.57964 0.43316 0.79575 1.20200
Cd	Cd	0.27320 0.67857 0.00489 1.15800
Cd	Cd	0.81453 0.53592 0.70207 1.20200
Cd	Cd	0.07964 0.43316 0.70425 1.20200
Cd	Cd	0.77320 0.67857 0.49511 1.15800
Cd	Cd	0.68547 0.46408 0.20207 1.20200
Cd	Cd	0.42036 0.56684 0.20424 1.20200
Cd	Cd	0.72680 0.32143 0.99511 1.15800
P 	P 	0.94100 0.01457 0.32396 0.37900
P 	P 	0.16820 0.01813 0.32458 0.37700
P 	P 	0.05500 0.01756 0.26956 0.39600
P 	P 	0.55900 0.98543 0.82396 0.37800
P 	P 	0.33180 0.98187 0.82458 0.37800
P 	P 	0.44500 0.98244 0.76956 0.39700
P 	P 	0.05900 0.98543 0.67604 0.37900
P 	P 	0.83180 0.98187 0.67542 0.37700
P 	P 	0.94500 0.98244 0.73044 0.39600
P 	P 	0.44100 0.01457 0.17604 0.37800
P 	P 	0.66820 0.01813 0.17542 0.37800
P 	P 	0.55500 0.01756 0.23044 0.39700
H 	H 	0.02280 0.18070 0.34850 0.16500
H 	H 	0.04020 0.31460 0.33540 -0.06600
H 	H 	0.74650 0.29070 0.29280 -0.03400
H 	H 	0.73100 0.15640 0.30670 0.17800
H 	H 	0.83230 0.98900 0.38610 0.18300
H 	H 	0.77720 0.91470 0.42880 -0.03800
H 	H 	0.83590 0.71580 0.38390 -0.06200
H 	H 	0.86820 0.78820 0.33890 0.17900
H 	H 	0.26100 0.03750 0.38830 0.16100
H 	H 	0.27470 0.10640 0.43460 -0.02500
H 	H 	0.25340 0.31360 0.38920 -0.04700
H 	H 	0.23960 0.24460 0.34290 0.15600
H 	H 	0.07990 0.84940 0.34710 0.17000
H 	H 	0.06030 0.71800 0.33140 -0.06800
H 	H 	0.36090 0.73820 0.29510 -0.04600
H 	H 	0.37540 0.87370 0.30560 0.17900
H 	H 	0.98260 0.79840 0.25140 0.15900
H 	H 	0.08430 0.69070 0.23820 -0.03500
H 	H 	0.34150 0.84070 0.21690 -0.01100
H 	H 	0.24160 0.94790 0.22920 0.17300
H 	H 	0.12270 0.23880 0.25280 0.16100
H 	H 	0.02210 0.34540 0.23780 -0.03600
H 	H 	0.76860 0.19170 0.21440 0.00100
H 	H 	0.87390 0.08350 0.22800 0.16600
H 	H 	0.47720 0.81930 0.84850 0.16600
H 	H 	0.45980 0.68540 0.83540 -0.06700
H 	H 	0.75350 0.70930 0.79280 -0.03400
H 	H 	0.76900 0.84360 0.80670 0.17800
H 	H 	0.66770 0.01100 0.88610 0.18300
H 	H 	0.72280 0.08530 0.92880 -0.03800
H 	H 	0.66410 0.28420 0.88390 -0.06200
H 	H 	0.63180 0.21180 0.83890 0.17900
H 	H 	0.23900 0.96250 0.88830 0.16100
H 	H 	0.22530 0.89360 0.93460 -0.02500
H 	H 	0.24660 0.68640 0.88920 -0.04700
H 	H 	0.26040 0.75540 0.84290 0.15600
H 	H 	0.42010 0.15060 0.84710 0.17000
H 	H 	0.43970 0.28200 0.83140 -0.06800
H 	H 	0.13910 0.26180 0.79510 -0.04600
H 	H 	0.12460 0.12630 0.80560 0.17800
H 	H 	0.51740 0.20160 0.75140 0.16200
H 	H 	0.41570 0.30930 0.73820 -0.03600
H 	H 	0.15850 0.15930 0.71690 -0.01200
H 	H 	0.25840 0.05210 0.72920 0.17400
H 	H 	0.37730 0.76120 0.75280 0.16100
H 	H 	0.47790 0.65460 0.73780 -0.03700
H 	H 	0.73140 0.80830 0.71440 0.00100
H 	H 	0.62610 0.91650 0.72800 0.16600
H 	H 	0.97720 0.81930 0.65150 0.16500
H 	H 	0.95980 0.68540 0.66460 -0.06600
H 	H 	0.25350 0.70930 0.70720 -0.03400
H 	H 	0.26900 0.84360 0.69330 0.17800
H 	H 	0.16770 0.01100 0.61390 0.18300
H 	H 	0.22280 0.08530 0.57120 -0.03800
H 	H 	0.16410 0.28420 0.61610 -0.06200
H 	H 	0.13180 0.21180 0.66110 0.17900
H 	H 	0.73900 0.96250 0.61170 0.16100
H 	H 	0.72530 0.89360 0.56540 -0.02500
H 	H 	0.74660 0.68640 0.61080 -0.04700
H 	H 	0.76040 0.75540 0.65710 0.15600
H 	H 	0.92010 0.15060 0.65290 0.17000
H 	H 	0.93970 0.28200 0.66860 -0.06800
H 	H 	0.63910 0.26180 0.70490 -0.04600
H 	H 	0.62460 0.12630 0.69440 0.17900
H 	H 	0.01740 0.20160 0.74860 0.15900
H 	H 	0.91570 0.30930 0.76180 -0.03500
H 	H 	0.65850 0.15930 0.78310 -0.01100
H 	H 	0.75840 0.05210 0.77080 0.17300
H 	H 	0.87730 0.76120 0.74720 0.16100
H 	H 	0.97790 0.65460 0.76220 -0.03600
H 	H 	0.23140 0.80830 0.78560 0.00100
H 	H 	0.12610 0.91650 0.77200 0.16600
H 	H 	0.52280 0.18070 0.15150 0.16600
H 	H 	0.54020 0.31460 0.16460 -0.06700
H 	H 	0.24650 0.29070 0.20720 -0.03400
H 	H 	0.23100 0.15640 0.19330 0.17800
H 	H 	0.33230 0.98900 0.11390 0.18300
H 	H 	0.27720 0.91470 0.07120 -0.03800
H 	H 	0.33590 0.71580 0.11610 -0.06200
H 	H 	0.36820 0.78820 0.16110 0.17900
H 	H 	0.76100 0.03750 0.11170 0.16100
H 	H 	0.77470 0.10640 0.06540 -0.02500
H 	H 	0.75340 0.31360 0.11080 -0.04700
H 	H 	0.73960 0.24460 0.15710 0.15600
H 	H 	0.57990 0.84940 0.15290 0.17000
H 	H 	0.56030 0.71800 0.16860 -0.06800
H 	H 	0.86090 0.73820 0.20490 -0.04600
H 	H 	0.87540 0.87370 0.19440 0.17800
H 	H 	0.48260 0.79840 0.24860 0.16200
H 	H 	0.58430 0.69070 0.26180 -0.03600
H 	H 	0.84150 0.84070 0.28310 -0.01200
H 	H 	0.74160 0.94790 0.27080 0.17400
H 	H 	0.62270 0.23880 0.24720 0.16100
H 	H 	0.52210 0.34540 0.26220 -0.03700
H 	H 	0.26860 0.19170 0.28560 0.00100
H 	H 	0.37390 0.08350 0.27200 0.16600
C 	C 	0.87630 0.15890 0.32830 0.35200
C 	C 	0.96800 0.20350 0.33710 -0.35500
C 	C 	0.97850 0.28340 0.32900 0.22700
C 	C 	0.89720 0.31850 0.31110 -0.28200
C 	C 	0.80350 0.26910 0.30360 0.22400
C 	C 	0.79310 0.18860 0.31210 -0.34700
C 	C 	0.91090 0.40260 0.30270 0.43800
C 	C 	0.85120 0.89490 0.35890 0.37900
C 	C 	0.82900 0.93350 0.38540 -0.37700
C 	C 	0.80140 0.88940 0.41120 0.24100
C 	C 	0.80960 0.80600 0.41130 -0.29100
C 	C 	0.83320 0.77100 0.38440 0.25400
C 	C 	0.85360 0.81380 0.35730 -0.38400
C 	C 	0.24900 0.13420 0.36097 0.33000
C 	C 	0.25950 0.09280 0.38844 -0.31600
C 	C 	0.26770 0.13410 0.41619 0.19900
C 	C 	0.26540 0.21680 0.41647 -0.26200
C 	C 	0.25490 0.25820 0.38900 0.20300
C 	C 	0.24670 0.21690 0.36125 -0.32600
C 	C 	0.26990 0.25850 0.44610 0.43400
C 	C 	0.22970 0.87290 0.32900 0.35400
C 	C 	0.13610 0.82720 0.33620 -0.36700
C 	C 	0.12470 0.74900 0.32720 0.24600
C 	C 	0.21280 0.71660 0.31150 -0.29000
C 	C 	0.30300 0.76150 0.30490 0.25600
C 	C 	0.31420 0.84180 0.31200 -0.35200
C 	C 	0.20740 0.62970 0.30440 0.40000
C 	C 	0.10160 0.88440 0.24060 0.33400
C 	C 	0.05420 0.80700 0.24400 -0.30400
C 	C 	0.11580 0.74250 0.23630 0.18800
C 	C 	0.22380 0.75480 0.22580 -0.22000
C 	C 	0.26900 0.83190 0.22350 0.19400
C 	C 	0.20930 0.89640 0.23080 -0.30900
C 	C 	0.29030 0.68570 0.21780 0.36400
C 	C 	0.00670 0.15210 0.24060 0.32500
C 	C 	0.05240 0.22980 0.24460 -0.30600
C 	C 	0.99180 0.29330 0.23610 0.18500
C 	C 	0.88590 0.27850 0.22510 -0.20400
C 	C 	0.84000 0.20080 0.22180 0.16500
C 	C 	0.90300 0.13590 0.22990 -0.29100
C 	C 	0.81970 0.34640 0.21570 0.34100
C 	C 	0.79140 0.76030 0.43990 0.42100
C 	C 	0.62370 0.84110 0.82830 0.35200
C 	C 	0.53200 0.79650 0.83710 -0.35600
C 	C 	0.52150 0.71660 0.82900 0.22800
C 	C 	0.60280 0.68150 0.81110 -0.28200
C 	C 	0.69650 0.73090 0.80360 0.22400
C 	C 	0.70690 0.81140 0.81210 -0.34700
C 	C 	0.58910 0.59740 0.80270 0.43900
C 	C 	0.64880 0.10510 0.85890 0.37900
C 	C 	0.67100 0.06650 0.88540 -0.37700
C 	C 	0.69860 0.11060 0.91120 0.24100
C 	C 	0.69040 0.19400 0.91130 -0.29000
C 	C 	0.66680 0.22900 0.88440 0.25400
C 	C 	0.64640 0.18620 0.85730 -0.38400
C 	C 	0.25100 0.86580 0.86097 0.33000
C 	C 	0.24050 0.90720 0.88844 -0.31600
C 	C 	0.23230 0.86590 0.91619 0.19900
C 	C 	0.23460 0.78320 0.91647 -0.26200
C 	C 	0.24510 0.74180 0.88900 0.20300
C 	C 	0.25330 0.78310 0.86125 -0.32600
C 	C 	0.23010 0.74150 0.94610 0.43400
C 	C 	0.27030 0.12710 0.82900 0.35400
C 	C 	0.36390 0.17280 0.83620 -0.36700
C 	C 	0.37530 0.25100 0.82720 0.24600
C 	C 	0.28720 0.28340 0.81150 -0.29000
C 	C 	0.19700 0.23850 0.80490 0.25600
C 	C 	0.18580 0.15820 0.81200 -0.35200
C 	C 	0.29260 0.37030 0.80440 0.40000
C 	C 	0.39840 0.11560 0.74060 0.33600
C 	C 	0.44580 0.19300 0.74400 -0.30900
C 	C 	0.38420 0.25750 0.73630 0.19100
C 	C 	0.27620 0.24520 0.72580 -0.22200
C 	C 	0.23100 0.16810 0.72350 0.19500
C 	C 	0.29070 0.10360 0.73080 -0.31200
C 	C 	0.20970 0.31430 0.71780 0.36400
C 	C 	0.49330 0.84790 0.74060 0.32500
C 	C 	0.44760 0.77020 0.74460 -0.30700
C 	C 	0.50820 0.70670 0.73610 0.18600
C 	C 	0.61410 0.72150 0.72510 -0.20500
C 	C 	0.66000 0.79920 0.72180 0.16600
C 	C 	0.59700 0.86410 0.72990 -0.29100
C 	C 	0.68030 0.65360 0.71570 0.34100
C 	C 	0.70860 0.23970 0.93990 0.42100
C 	C 	0.12370 0.84110 0.67170 0.35200
C 	C 	0.03200 0.79650 0.66290 -0.35500
C 	C 	0.02150 0.71660 0.67100 0.22700
C 	C 	0.10280 0.68150 0.68890 -0.28200
C 	C 	0.19650 0.73090 0.69640 0.22400
C 	C 	0.20690 0.81140 0.68790 -0.34700
C 	C 	0.08910 0.59740 0.69730 0.43800
C 	C 	0.14880 0.10510 0.64110 0.37900
C 	C 	0.17100 0.06650 0.61460 -0.37700
C 	C 	0.19860 0.11060 0.58880 0.24100
C 	C 	0.19040 0.19400 0.58870 -0.29100
C 	C 	0.16680 0.22900 0.61560 0.25400
C 	C 	0.14640 0.18620 0.64270 -0.38400
C 	C 	0.75100 0.86580 0.63903 0.33000
C 	C 	0.74050 0.90720 0.61156 -0.31600
C 	C 	0.73230 0.86590 0.58381 0.19900
C 	C 	0.73460 0.78320 0.58353 -0.26200
C 	C 	0.74510 0.74180 0.61100 0.20300
C 	C 	0.75330 0.78310 0.63875 -0.32600
C 	C 	0.73010 0.74150 0.55390 0.43400
C 	C 	0.77030 0.12710 0.67100 0.35400
C 	C 	0.86390 0.17280 0.66380 -0.36700
C 	C 	0.87530 0.25100 0.67280 0.24600
C 	C 	0.78720 0.28340 0.68850 -0.29000
C 	C 	0.69700 0.23850 0.69510 0.25600
C 	C 	0.68580 0.15820 0.68800 -0.35200
C 	C 	0.79260 0.37030 0.69560 0.40000
C 	C 	0.89840 0.11560 0.75940 0.33400
C 	C 	0.94580 0.19300 0.75600 -0.30400
C 	C 	0.88420 0.25750 0.76370 0.18800
C 	C 	0.77620 0.24520 0.77420 -0.22000
C 	C 	0.73100 0.16810 0.77650 0.19400
C 	C 	0.79070 0.10360 0.76920 -0.30900
C 	C 	0.70970 0.31430 0.78220 0.36400
C 	C 	0.99330 0.84790 0.75940 0.32500
C 	C 	0.94760 0.77020 0.75540 -0.30600
C 	C 	0.00820 0.70670 0.76390 0.18500
C 	C 	0.11410 0.72150 0.77490 -0.20400
C 	C 	0.16000 0.79920 0.77820 0.16500
C 	C 	0.09700 0.86410 0.77010 -0.29100
C 	C 	0.18030 0.65360 0.78430 0.34100
C 	C 	0.20860 0.23970 0.56010 0.42100
C 	C 	0.37630 0.15890 0.17170 0.35200
C 	C 	0.46800 0.20350 0.16290 -0.35600
C 	C 	0.47850 0.28340 0.17100 0.22800
C 	C 	0.39720 0.31850 0.18890 -0.28200
C 	C 	0.30350 0.26910 0.19640 0.22400
C 	C 	0.29310 0.18860 0.18790 -0.34700
C 	C 	0.41090 0.40260 0.19730 0.43900
C 	C 	0.35120 0.89490 0.14110 0.37900
C 	C 	0.32900 0.93350 0.11460 -0.37700
C 	C 	0.30140 0.88940 0.08880 0.24100
C 	C 	0.30960 0.80600 0.08870 -0.29000
C 	C 	0.33320 0.77100 0.11560 0.25400
C 	C 	0.35360 0.81380 0.14270 -0.38400
C 	C 	0.74900 0.13420 0.13903 0.33000
C 	C 	0.75950 0.09280 0.11156 -0.31600
C 	C 	0.76770 0.13410 0.08381 0.19900
C 	C 	0.76540 0.21680 0.08353 -0.26200
C 	C 	0.75490 0.25820 0.11100 0.20300
C 	C 	0.74670 0.21690 0.13875 -0.32600
C 	C 	0.76990 0.25850 0.05390 0.43400
C 	C 	0.72970 0.87290 0.17100 0.35400
C 	C 	0.63610 0.82720 0.16380 -0.36700
C 	C 	0.62470 0.74900 0.17280 0.24600
C 	C 	0.71280 0.71660 0.18850 -0.29000
C 	C 	0.80300 0.76150 0.19510 0.25600
C 	C 	0.81420 0.84180 0.18800 -0.35200
C 	C 	0.70740 0.62970 0.19560 0.40000
C 	C 	0.60160 0.88440 0.25940 0.33600
C 	C 	0.55420 0.80700 0.25600 -0.30900
C 	C 	0.61580 0.74250 0.26370 0.19100
C 	C 	0.72380 0.75480 0.27420 -0.22200
C 	C 	0.76900 0.83190 0.27650 0.19500
C 	C 	0.70930 0.89640 0.26920 -0.31200
C 	C 	0.79030 0.68570 0.28220 0.36400
C 	C 	0.50670 0.15210 0.25940 0.32500
C 	C 	0.55240 0.22980 0.25540 -0.30700
C 	C 	0.49180 0.29330 0.26390 0.18600
C 	C 	0.38590 0.27850 0.27490 -0.20500
C 	C 	0.34000 0.20080 0.27820 0.16600
C 	C 	0.40300 0.13590 0.27010 -0.29100
C 	C 	0.31970 0.34640 0.28430 0.34100
C 	C 	0.29140 0.76030 0.06010 0.42100
N 	N 	0.05470 0.01720 0.34260 -0.19300
N 	N 	0.16590 0.01010 0.28810 -0.18300
N 	N 	0.94700 0.02570 0.28820 -0.18900
N 	N 	0.44530 0.98280 0.84260 -0.19300
N 	N 	0.33410 0.98990 0.78810 -0.18300
N 	N 	0.55300 0.97430 0.78820 -0.18900
N 	N 	0.94530 0.98280 0.65740 -0.19300
N 	N 	0.83410 0.98990 0.71190 -0.18300
N 	N 	0.05300 0.97430 0.71180 -0.18900
N 	N 	0.55470 0.01720 0.15740 -0.19300
N 	N 	0.66590 0.01010 0.21190 -0.18300
N 	N 	0.44700 0.02570 0.21180 -0.18900
O 	O 	0.86210 0.07770 0.33801 -0.29600
O 	O 	0.99710 0.44330 0.30377 -0.59000
O 	O 	0.82290 0.43650 0.29419 -0.41400
O 	O 	0.86800 0.93530 0.33071 -0.30200
O 	O 	0.24170 0.09710 0.33247 -0.29400
O 	O 	0.28160 0.22220 0.46960 -0.43500
O 	O 	0.26530 0.33110 0.44770 -0.45300
O 	O 	0.24400 0.95320 0.33783 -0.30000
O 	O 	0.10810 0.59010 0.30508 -0.53400
O 	O 	0.28650 0.59290 0.29781 -0.42600
O 	O 	0.03550 0.94590 0.24690 -0.30100
O 	O 	0.38940 0.69860 0.21031 -0.42800
O 	O 	0.24550 0.61700 0.21851 -0.41000
O 	O 	0.07490 0.09010 0.24688 -0.29500
O 	O 	0.86050 0.41770 0.21518 -0.40200
O 	O 	0.71940 0.33160 0.20884 -0.41400
O 	O 	0.79740 0.68920 0.44050 -0.47600
O 	O 	0.76430 0.79590 0.46420 -0.41100
O 	O 	0.63790 0.92230 0.83801 -0.29600
O 	O 	0.50290 0.55670 0.80377 -0.59000
O 	O 	0.67710 0.56350 0.79419 -0.41400
O 	O 	0.63200 0.06470 0.83071 -0.30100
O 	O 	0.25830 0.90290 0.83247 -0.29400
O 	O 	0.21840 0.77780 0.96960 -0.43500
O 	O 	0.23470 0.66890 0.94770 -0.45300
O 	O 	0.25600 0.04680 0.83783 -0.30100
O 	O 	0.39190 0.40990 0.80508 -0.53500
O 	O 	0.21350 0.40710 0.79781 -0.42600
O 	O 	0.46450 0.05410 0.74690 -0.30300
O 	O 	0.11060 0.30140 0.71031 -0.42800
O 	O 	0.25450 0.38300 0.71851 -0.41000
O 	O 	0.42510 0.90990 0.74688 -0.29500
O 	O 	0.63950 0.58230 0.71518 -0.40200
O 	O 	0.78060 0.66840 0.70884 -0.41400
O 	O 	0.70260 0.31080 0.94050 -0.47600
O 	O 	0.73570 0.20410 0.96420 -0.41100
O 	O 	0.13790 0.92230 0.66199 -0.29600
O 	O 	0.00290 0.55670 0.69623 -0.59000
O 	O 	0.17710 0.56350 0.70581 -0.41400
O 	O 	0.13200 0.06470 0.66929 -0.30200
O 	O 	0.75830 0.90290 0.66753 -0.29400
O 	O 	0.71840 0.77780 0.53040 -0.43500
O 	O 	0.73470 0.66890 0.55230 -0.45300
O 	O 	0.75600 0.04680 0.66217 -0.30000
O 	O 	0.89190 0.40990 0.69492 -0.53400
O 	O 	0.71350 0.40710 0.70219 -0.42600
O 	O 	0.96450 0.05410 0.75310 -0.30100
O 	O 	0.61060 0.30140 0.78969 -0.42800
O 	O 	0.75450 0.38300 0.78149 -0.41000
O 	O 	0.92510 0.90990 0.75312 -0.29500
O 	O 	0.13950 0.58230 0.78482 -0.40200
O 	O 	0.28060 0.66840 0.79116 -0.41400
O 	O 	0.20260 0.31080 0.55950 -0.47600
O 	O 	0.23570 0.20410 0.53580 -0.41100
O 	O 	0.36210 0.07770 0.16199 -0.29600
O 	O 	0.49710 0.44330 0.19623 -0.59000
O 	O 	0.32290 0.43650 0.20581 -0.41400
O 	O 	0.36800 0.93530 0.16929 -0.30100
O 	O 	0.74170 0.09710 0.16753 -0.29400
O 	O 	0.78160 0.22220 0.03040 -0.43500
O 	O 	0.76530 0.33110 0.05230 -0.45300
O 	O 	0.74400 0.95320 0.16217 -0.30100
O 	O 	0.60810 0.59010 0.19492 -0.53500
O 	O 	0.78650 0.59290 0.20219 -0.42600
O 	O 	0.53550 0.94590 0.25310 -0.30300
O 	O 	0.88940 0.69860 0.28969 -0.42800
O 	O 	0.74550 0.61700 0.28149 -0.41000
O 	O 	0.57490 0.09010 0.25312 -0.29500
O 	O 	0.36050 0.41770 0.28482 -0.40200
O 	O 	0.21940 0.33160 0.29116 -0.41400
O 	O 	0.29740 0.68920 0.05950 -0.47600
O 	O 	0.26430 0.79590 0.03580 -0.41100
