data_crystal

_cell_length_a 7.03730
_cell_length_b 10.43990
_cell_length_c 13.31050
_cell_angle_alpha 90.00000
_cell_angle_beta  90.00000
_cell_angle_gamma 90.00000

_symmetry_space_group_name_	'P 1'
_symmetry_space_group_name_H-M	'P 1'

loop_
_symmetry_equiv_pos_as_xyz
  x,y,z

loop_
_atom_site_label
_atom_site_type_symbol
_atom_site_fract_x
_atom_site_fract_y
_atom_site_fract_z
_atom_site_charge
Ag	Ag	0.78115 0.89395 0.31970 0.56300
Ag	Ag	0.71885 0.10605 0.81970 0.56200
H 	H 	0.95790 0.42300 0.35970 0.05600
H 	H 	0.82390 0.66040 0.68910 0.09200
H 	H 	0.81730 0.81020 0.81370 0.00100
H 	H 	0.95690 0.08070 0.62790 0.00400
H 	H 	0.97610 0.93930 0.49670 0.08100
H 	H 	0.54210 0.57700 0.85970 0.05600
H 	H 	0.67610 0.33960 0.18910 0.09100
H 	H 	0.68270 0.18980 0.31370 0.00000
H 	H 	0.54310 0.91930 0.12790 0.00400
H 	H 	0.52390 0.06070 0.99670 0.07700
C 	C 	0.88660 0.62140 0.22580 0.29100
C 	C 	0.90250 0.61050 0.33880 -0.02200
C 	C 	0.93930 0.50260 0.38950 -0.04700
C 	C 	0.90140 0.69030 0.49370 0.01900
C 	C 	0.89450 0.78320 0.57680 0.06600
C 	C 	0.85000 0.74570 0.67450 -0.16500
C 	C 	0.84550 0.83670 0.74870 0.08700
C 	C 	0.92830 0.99510 0.63990 0.08300
C 	C 	0.93950 0.91110 0.56000 -0.14700
C 	C 	0.61340 0.37860 0.72580 0.29100
C 	C 	0.59750 0.38950 0.83880 -0.02200
C 	C 	0.56070 0.49740 0.88950 -0.04600
C 	C 	0.59860 0.30970 0.99370 0.01900
C 	C 	0.60550 0.21680 0.07680 0.06500
C 	C 	0.65000 0.25430 0.17450 -0.16400
C 	C 	0.65450 0.16330 0.24870 0.08600
C 	C 	0.57170 0.00490 0.13990 0.08100
C 	C 	0.56050 0.08890 0.06000 -0.14200
S 	S 	0.94758 0.53002 0.51592 -0.02200
S 	S 	0.55242 0.46998 0.01592 -0.02200
N 	N 	0.87930 0.71810 0.39870 -0.15100
N 	N 	0.87930 0.96180 0.73340 -0.18800
N 	N 	0.62070 0.28190 0.89870 -0.15200
N 	N 	0.62070 0.03820 0.23340 -0.18800
O 	O 	0.84330 0.72730 0.19020 -0.29500
O 	O 	0.91990 0.52020 0.17720 -0.30100
O 	O 	0.65670 0.27270 0.69020 -0.29600
O 	O 	0.58010 0.47980 0.67720 -0.30200
Ag	Ag	0.21885 0.39395 0.18030 0.56100
Ag	Ag	0.28115 0.60605 0.68030 0.56200
H 	H 	0.04210 0.92300 0.14030 0.05000
H 	H 	0.17610 0.16040 0.81090 0.09100
H 	H 	0.18270 0.31020 0.68630 0.00100
H 	H 	0.04310 0.58070 0.87210 0.00800
H 	H 	0.02390 0.43930 0.00330 0.07600
H 	H 	0.45790 0.07700 0.64030 0.05400
H 	H 	0.32390 0.83960 0.31090 0.09100
H 	H 	0.31730 0.68980 0.18630 0.00000
H 	H 	0.45690 0.41930 0.37210 0.00700
H 	H 	0.47610 0.56070 0.50330 0.07900
C 	C 	0.11340 0.12140 0.27420 0.29300
C 	C 	0.09750 0.11050 0.16120 -0.02500
C 	C 	0.06070 0.00260 0.11050 -0.03900
C 	C 	0.09860 0.19030 0.00630 0.02100
C 	C 	0.10550 0.28320 0.92320 0.06200
C 	C 	0.15000 0.24570 0.82550 -0.16200
C 	C 	0.15450 0.33670 0.75130 0.08500
C 	C 	0.07170 0.49510 0.86010 0.07600
C 	C 	0.06050 0.41110 0.94000 -0.13900
C 	C 	0.38660 0.87860 0.77420 0.29100
C 	C 	0.40250 0.88950 0.66120 -0.02300
C 	C 	0.43930 0.99740 0.61050 -0.04500
C 	C 	0.40140 0.80970 0.50630 0.02000
C 	C 	0.39450 0.71680 0.42320 0.06500
C 	C 	0.35000 0.75430 0.32550 -0.16400
C 	C 	0.34550 0.66330 0.25130 0.08600
C 	C 	0.42830 0.50490 0.36010 0.07800
C 	C 	0.43950 0.58890 0.44000 -0.14400
S 	S 	0.05242 0.03002 0.98408 -0.02500
S 	S 	0.44758 0.96998 0.48408 -0.02300
N 	N 	0.12070 0.21810 0.10130 -0.15200
N 	N 	0.12070 0.46180 0.76660 -0.18700
N 	N 	0.37930 0.78190 0.60130 -0.15200
N 	N 	0.37930 0.53820 0.26660 -0.18800
O 	O 	0.15670 0.22730 0.30980 -0.29600
O 	O 	0.08010 0.02020 0.32280 -0.30100
O 	O 	0.34330 0.77270 0.80980 -0.29500
O 	O 	0.41990 0.97980 0.82280 -0.30000
