data_crystal

_cell_length_a 13.34710
_cell_length_b 13.61080
_cell_length_c 17.89630
_cell_angle_alpha 90.00000
_cell_angle_beta  90.00000
_cell_angle_gamma 91.70530

_symmetry_space_group_name_	'P 1'
_symmetry_space_group_name_H-M	'P 1'

loop_
_symmetry_equiv_pos_as_xyz
  x,y,z

loop_
_atom_site_label
_atom_site_type_symbol
_atom_site_fract_x
_atom_site_fract_y
_atom_site_fract_z
_atom_site_charge
Eu	Eu	0.59445 0.14266 0.97034 2.03300
Eu	Eu	0.85201 0.40242 0.01257 2.02300
Eu	Eu	0.90555 0.35734 0.47034 2.02900
Eu	Eu	0.64799 0.09758 0.51257 2.03800
Eu	Eu	0.40555 0.85734 0.02966 2.03300
Eu	Eu	0.14799 0.59758 0.98743 2.02300
Eu	Eu	0.09445 0.64266 0.52966 2.02900
Eu	Eu	0.35201 0.90242 0.48743 2.03800
H 	H 	0.64900 0.26510 0.74100 -0.00800
H 	H 	0.75270 0.50850 0.84650 -0.01100
H 	H 	0.80700 0.57220 0.73310 0.11600
H 	H 	0.79110 0.48080 0.62590 -0.02100
H 	H 	0.55730 0.14810 0.24270 0.03500
H 	H 	0.46790 0.40150 0.15390 0.03600
H 	H 	0.44350 0.46240 0.27230 0.07600
H 	H 	0.49240 0.37410 0.37580 0.02500
H 	H 	0.71770 0.71530 0.00710 -0.00000
H 	H 	0.99650 0.78580 0.93710 -0.02100
H 	H 	0.95950 0.95040 0.94310 0.11300
H 	H 	0.80330 0.99790 0.98040 -0.04100
H 	H 	0.64900 0.39200 0.07700 0.25200
H 	H 	0.51500 0.99200 0.86400 0.26200
H 	H 	0.85100 0.23490 0.24100 -0.00900
H 	H 	0.74730 0.99150 0.34650 -0.00900
H 	H 	0.69300 0.92780 0.23310 0.11300
H 	H 	0.70890 0.01920 0.12590 -0.02100
H 	H 	0.94270 0.35190 0.74270 0.03700
H 	H 	0.03210 0.09850 0.65390 0.03900
H 	H 	0.05650 0.03760 0.77230 0.07300
H 	H 	0.00760 0.12590 0.87580 0.02600
H 	H 	0.78230 0.78470 0.50710 0.00600
H 	H 	0.50350 0.71420 0.43710 -0.02300
H 	H 	0.54050 0.54960 0.44310 0.11100
H 	H 	0.69670 0.50210 0.48040 -0.04300
H 	H 	0.85100 0.10800 0.57700 0.25200
H 	H 	0.98500 0.50800 0.36400 0.26000
H 	H 	0.35100 0.73490 0.25900 -0.00800
H 	H 	0.24730 0.49150 0.15350 -0.01100
H 	H 	0.19300 0.42780 0.26690 0.11600
H 	H 	0.20890 0.51920 0.37410 -0.02100
H 	H 	0.44270 0.85190 0.75730 0.03500
H 	H 	0.53210 0.59850 0.84610 0.03600
H 	H 	0.55650 0.53760 0.72770 0.07600
H 	H 	0.50760 0.62590 0.62420 0.02500
H 	H 	0.28230 0.28470 0.99290 -0.00000
H 	H 	0.00350 0.21420 0.06290 -0.02100
H 	H 	0.04050 0.04960 0.05690 0.11300
H 	H 	0.19670 0.00210 0.01960 -0.04100
H 	H 	0.35100 0.60800 0.92300 0.25200
H 	H 	0.48500 0.00800 0.13600 0.26200
H 	H 	0.14900 0.76510 0.75900 -0.00900
H 	H 	0.25270 0.00850 0.65350 -0.00900
H 	H 	0.30700 0.07220 0.76690 0.11300
H 	H 	0.29110 0.98080 0.87410 -0.02100
H 	H 	0.05730 0.64810 0.25730 0.03700
H 	H 	0.96790 0.90150 0.34610 0.03900
H 	H 	0.94350 0.96240 0.22770 0.07300
H 	H 	0.99240 0.87410 0.12420 0.02600
H 	H 	0.21770 0.21530 0.49290 0.00600
H 	H 	0.49650 0.28580 0.56290 -0.02300
H 	H 	0.45950 0.45040 0.55690 0.11100
H 	H 	0.30330 0.49790 0.51960 -0.04300
H 	H 	0.14900 0.89200 0.42300 0.25200
H 	H 	0.01500 0.49200 0.63600 0.26000
C 	C 	0.71560 0.30070 0.60240 0.51400
C 	C 	0.71920 0.36240 0.67210 -0.24000
C 	C 	0.68260 0.32590 0.73970 0.15700
C 	C 	0.69580 0.37940 0.80510 -0.22800
C 	C 	0.74350 0.47220 0.80290 0.14600
C 	C 	0.77710 0.50970 0.73500 -0.21800
C 	C 	0.76660 0.45550 0.67080 0.15500
C 	C 	0.66610 0.33520 0.87940 0.48600
C 	C 	0.56670 0.19750 0.38550 0.31900
C 	C 	0.53180 0.25290 0.31950 -0.11200
C 	C 	0.53810 0.21280 0.24850 0.04300
C 	C 	0.51570 0.26850 0.18590 -0.11300
C 	C 	0.48230 0.36330 0.19540 0.03900
C 	C 	0.47020 0.40060 0.26620 -0.10800
C 	C 	0.49730 0.34690 0.32830 0.03700
C 	C 	0.53230 0.22770 0.10990 0.33400
C 	C 	0.64000 0.89090 0.01690 0.49000
C 	C 	0.74330 0.86110 0.99690 -0.24000
C 	C 	0.76610 0.76270 0.99400 0.17200
C 	C 	0.86070 0.73390 0.97180 -0.24000
C 	C 	0.93330 0.80460 0.95230 0.16500
C 	C 	0.91090 0.90300 0.95590 -0.23200
C 	C 	0.81740 0.93150 0.97800 0.16400
C 	C 	0.88490 0.62720 0.97120 0.49300
C 	C 	0.78440 0.19930 0.10240 0.51300
C 	C 	0.78080 0.13760 0.17210 -0.24000
C 	C 	0.81740 0.17410 0.23970 0.15500
C 	C 	0.80420 0.12060 0.30510 -0.22700
C 	C 	0.75650 0.02780 0.30290 0.14000
C 	C 	0.72290 0.99030 0.23500 -0.21300
C 	C 	0.73340 0.04450 0.17080 0.15100
C 	C 	0.83390 0.16480 0.37940 0.48700
C 	C 	0.93330 0.30250 0.88550 0.31600
C 	C 	0.96820 0.24710 0.81950 -0.10500
C 	C 	0.96190 0.28720 0.74850 0.03700
C 	C 	0.98430 0.23150 0.68590 -0.10800
C 	C 	0.01770 0.13670 0.69540 0.03200
C 	C 	0.02980 0.09940 0.76620 -0.10100
C 	C 	0.00270 0.15310 0.82830 0.02600
C 	C 	0.96770 0.27230 0.60990 0.33100
C 	C 	0.86000 0.60910 0.51690 0.49200
C 	C 	0.75670 0.63890 0.49690 -0.24200
C 	C 	0.73390 0.73730 0.49400 0.16400
C 	C 	0.63930 0.76610 0.47180 -0.23900
C 	C 	0.56670 0.69540 0.45230 0.16400
C 	C 	0.58910 0.59700 0.45590 -0.23200
C 	C 	0.68260 0.56850 0.47800 0.16300
C 	C 	0.61510 0.87280 0.47120 0.49300
C 	C 	0.28440 0.69930 0.39760 0.51400
C 	C 	0.28080 0.63760 0.32790 -0.24000
C 	C 	0.31740 0.67410 0.26030 0.15700
C 	C 	0.30420 0.62060 0.19490 -0.22800
C 	C 	0.25650 0.52780 0.19710 0.14600
C 	C 	0.22290 0.49030 0.26500 -0.21800
C 	C 	0.23340 0.54450 0.32920 0.15500
C 	C 	0.33390 0.66480 0.12060 0.48600
C 	C 	0.43330 0.80250 0.61450 0.31900
C 	C 	0.46820 0.74710 0.68050 -0.11200
C 	C 	0.46190 0.78720 0.75150 0.04300
C 	C 	0.48430 0.73150 0.81410 -0.11300
C 	C 	0.51770 0.63670 0.80460 0.03900
C 	C 	0.52980 0.59940 0.73380 -0.10800
C 	C 	0.50270 0.65310 0.67170 0.03700
C 	C 	0.46770 0.77230 0.89010 0.33400
C 	C 	0.36000 0.10910 0.98310 0.49000
C 	C 	0.25670 0.13890 0.00310 -0.24000
C 	C 	0.23390 0.23730 0.00600 0.17200
C 	C 	0.13930 0.26610 0.02820 -0.24000
C 	C 	0.06670 0.19540 0.04770 0.16500
C 	C 	0.08910 0.09700 0.04410 -0.23200
C 	C 	0.18260 0.06850 0.02200 0.16400
C 	C 	0.11510 0.37280 0.02880 0.49300
C 	C 	0.21560 0.80070 0.89760 0.51300
C 	C 	0.21920 0.86240 0.82790 -0.24000
C 	C 	0.18260 0.82590 0.76030 0.15500
C 	C 	0.19580 0.87940 0.69490 -0.22700
C 	C 	0.24350 0.97220 0.69710 0.14000
C 	C 	0.27710 0.00970 0.76500 -0.21300
C 	C 	0.26660 0.95550 0.82920 0.15100
C 	C 	0.16610 0.83520 0.62060 0.48700
C 	C 	0.06670 0.69750 0.11450 0.31600
C 	C 	0.03180 0.75290 0.18050 -0.10500
C 	C 	0.03810 0.71280 0.25150 0.03700
C 	C 	0.01570 0.76850 0.31410 -0.10800
C 	C 	0.98230 0.86330 0.30460 0.03200
C 	C 	0.97020 0.90060 0.23380 -0.10100
C 	C 	0.99730 0.84690 0.17170 0.02600
C 	C 	0.03230 0.72770 0.39010 0.33100
C 	C 	0.14000 0.39090 0.48310 0.49200
C 	C 	0.24330 0.36110 0.50310 -0.24200
C 	C 	0.26610 0.26270 0.50600 0.16400
C 	C 	0.36070 0.23390 0.52820 -0.23900
C 	C 	0.43330 0.30460 0.54770 0.16400
C 	C 	0.41090 0.40300 0.54410 -0.23200
C 	C 	0.31740 0.43150 0.52200 0.16300
C 	C 	0.38490 0.12720 0.52880 0.49300
O 	O 	0.76330 0.33050 0.54580 -0.55000
O 	O 	0.66460 0.22160 0.60455 -0.52200
O 	O 	0.71370 0.36180 0.93617 -0.53300
O 	O 	0.59600 0.27110 0.88015 -0.49100
O 	O 	0.55390 0.28490 0.05633 -0.40500
O 	O 	0.52800 0.13550 0.10011 -0.43300
O 	O 	0.56550 0.10390 0.38558 -0.41000
O 	O 	0.60170 0.24550 0.44057 -0.42000
O 	O 	0.61490 0.97810 0.00590 -0.55900
O 	O 	0.58020 0.82610 0.04200 -0.47400
O 	O 	0.81320 0.56560 0.97670 -0.49300
O 	O 	0.97420 0.60240 0.96610 -0.56200
O 	O 	0.69590 0.43820 0.08120 -0.47900
O 	O 	0.54860 0.04700 0.85730 -0.50800
O 	O 	0.73670 0.16950 0.04580 -0.55100
O 	O 	0.83540 0.27840 0.10455 -0.52300
O 	O 	0.78630 0.13820 0.43617 -0.53700
O 	O 	0.90400 0.22890 0.38015 -0.49200
O 	O 	0.94610 0.21510 0.55633 -0.40500
O 	O 	0.97200 0.36450 0.60011 -0.43200
O 	O 	0.93450 0.39610 0.88558 -0.40700
O 	O 	0.89830 0.25450 0.94057 -0.41700
O 	O 	0.88510 0.52190 0.50590 -0.55800
O 	O 	0.91980 0.67390 0.54200 -0.47300
O 	O 	0.68680 0.93440 0.47670 -0.49700
O 	O 	0.52580 0.89760 0.46610 -0.56800
O 	O 	0.80410 0.06180 0.58120 -0.48100
O 	O 	0.95140 0.45300 0.35730 -0.50800
O 	O 	0.23670 0.66950 0.45420 -0.55000
O 	O 	0.33540 0.77840 0.39545 -0.52200
O 	O 	0.28630 0.63820 0.06383 -0.53300
O 	O 	0.40400 0.72890 0.11985 -0.49100
O 	O 	0.44610 0.71510 0.94367 -0.40500
O 	O 	0.47200 0.86450 0.89989 -0.43300
O 	O 	0.43450 0.89610 0.61442 -0.41000
O 	O 	0.39830 0.75450 0.55943 -0.42000
O 	O 	0.38510 0.02190 0.99410 -0.55900
O 	O 	0.41980 0.17390 0.95800 -0.47400
O 	O 	0.18680 0.43440 0.02330 -0.49300
O 	O 	0.02580 0.39760 0.03390 -0.56200
O 	O 	0.30410 0.56180 0.91880 -0.47900
O 	O 	0.45140 0.95300 0.14270 -0.50800
O 	O 	0.26330 0.83050 0.95420 -0.55100
O 	O 	0.16460 0.72160 0.89545 -0.52300
O 	O 	0.21370 0.86180 0.56383 -0.53700
O 	O 	0.09600 0.77110 0.61985 -0.49200
O 	O 	0.05390 0.78490 0.44367 -0.40500
O 	O 	0.02800 0.63550 0.39989 -0.43200
O 	O 	0.06550 0.60390 0.11442 -0.40700
O 	O 	0.10170 0.74550 0.05943 -0.41700
O 	O 	0.11490 0.47810 0.49410 -0.55800
O 	O 	0.08020 0.32610 0.45800 -0.47300
O 	O 	0.31320 0.06560 0.52330 -0.49700
O 	O 	0.47420 0.10240 0.53390 -0.56800
O 	O 	0.19590 0.93820 0.41880 -0.48100
O 	O 	0.04860 0.54700 0.64270 -0.50800
