data_crystal

_cell_length_a 17.15000
_cell_length_b 12.28400
_cell_length_c 11.14400
_cell_angle_alpha 90.00000
_cell_angle_beta  127.54900
_cell_angle_gamma 90.00000

_symmetry_space_group_name_	'P 1'
_symmetry_space_group_name_H-M	'P 1'

loop_
_symmetry_equiv_pos_as_xyz
  x,y,z

loop_
_atom_site_label
_atom_site_type_symbol
_atom_site_fract_x
_atom_site_fract_y
_atom_site_fract_z
_atom_site_charge
Sm	Sm	0.21681 0.35192 0.12023 1.93200
O 	O 	0.16480 0.35550 0.27450 -0.55100
O 	O 	0.22600 0.16830 0.20840 -0.55700
O 	O 	0.12870 0.31560 0.42800 -0.37000
O 	O 	0.20040 0.01640 0.28490 -0.61900
C 	C 	0.13980 0.28890 0.33210 0.55600
C 	C 	0.11890 0.17160 0.27930 -0.63800
C 	C 	0.18780 0.11610 0.25690 0.64800
O 	O 	0.05100 0.25750 0.94110 -0.47800
O 	O 	0.15950 0.20960 0.90830 -0.62600
C 	C 	0.07570 0.20100 0.87580 0.48700
H 	H 	0.05400 0.16700 0.18500 0.22300
H 	H 	0.02900 0.07400 0.71100 0.11800
H 	H 	0.11900 0.12600 0.36400 0.16500
Sm	Sm	0.71681 0.85192 0.12023 1.90500
O 	O 	0.66480 0.85550 0.27450 -0.55200
O 	O 	0.72600 0.66830 0.20840 -0.55800
O 	O 	0.62870 0.81560 0.42800 -0.37800
O 	O 	0.70040 0.51640 0.28490 -0.62100
C 	C 	0.63980 0.78890 0.33210 0.55000
C 	C 	0.61890 0.67160 0.27930 -0.63100
C 	C 	0.68780 0.61610 0.25690 0.64200
O 	O 	0.55100 0.75750 0.94110 -0.49700
O 	O 	0.65950 0.70960 0.90830 -0.63400
C 	C 	0.57570 0.70100 0.87580 0.51300
H 	H 	0.55400 0.66700 0.18500 0.20900
H 	H 	0.52900 0.57400 0.71100 0.13600
H 	H 	0.61900 0.62600 0.36400 0.15600
Sm	Sm	0.78319 0.35192 0.37977 1.91200
O 	O 	0.83520 0.35550 0.22550 -0.55600
O 	O 	0.77400 0.16830 0.29160 -0.55300
O 	O 	0.87130 0.31560 0.07200 -0.38800
O 	O 	0.79960 0.01640 0.21510 -0.61700
C 	C 	0.86020 0.28890 0.16790 0.54600
C 	C 	0.88110 0.17160 0.22070 -0.62300
C 	C 	0.81220 0.11610 0.24310 0.63800
O 	O 	0.94900 0.25750 0.55890 -0.50300
O 	O 	0.84050 0.20960 0.59170 -0.62400
C 	C 	0.92430 0.20100 0.62420 0.45100
H 	H 	0.94600 0.16700 0.31500 0.19600
H 	H 	0.97100 0.07400 0.78900 0.07900
H 	H 	0.88100 0.12600 0.13600 0.15000
Sm	Sm	0.28319 0.85192 0.37977 1.93000
O 	O 	0.33520 0.85550 0.22550 -0.55400
O 	O 	0.27400 0.66830 0.29160 -0.55500
O 	O 	0.37130 0.81560 0.07200 -0.38200
O 	O 	0.29960 0.51640 0.21510 -0.62100
C 	C 	0.36020 0.78890 0.16790 0.55200
C 	C 	0.38110 0.67160 0.22070 -0.63200
C 	C 	0.31220 0.61610 0.24310 0.64300
O 	O 	0.44900 0.75750 0.55890 -0.50300
O 	O 	0.34050 0.70960 0.59170 -0.63900
C 	C 	0.42430 0.70100 0.62420 0.51500
H 	H 	0.44600 0.66700 0.31500 0.21000
H 	H 	0.47100 0.57400 0.78900 0.13700
H 	H 	0.38100 0.62600 0.13600 0.15600
Sm	Sm	0.78319 0.64808 0.87977 1.92000
O 	O 	0.83520 0.64450 0.72550 -0.55600
O 	O 	0.77400 0.83170 0.79160 -0.55200
O 	O 	0.87130 0.68440 0.57200 -0.38900
O 	O 	0.79960 0.98360 0.71510 -0.61900
C 	C 	0.86020 0.71110 0.66790 0.54600
C 	C 	0.88110 0.82840 0.72070 -0.62400
C 	C 	0.81220 0.88390 0.74310 0.63900
O 	O 	0.94900 0.74250 0.05890 -0.50500
O 	O 	0.84050 0.79040 0.09170 -0.62600
C 	C 	0.92430 0.79900 0.12420 0.45100
H 	H 	0.94600 0.83300 0.81500 0.19700
H 	H 	0.97100 0.92600 0.28900 0.08000
H 	H 	0.88100 0.87400 0.63600 0.14800
Sm	Sm	0.28319 0.14808 0.87977 1.93000
O 	O 	0.33520 0.14450 0.72550 -0.55300
O 	O 	0.27400 0.33170 0.79160 -0.55300
O 	O 	0.37130 0.18440 0.57200 -0.37900
O 	O 	0.29960 0.48360 0.71510 -0.62000
C 	C 	0.36020 0.21110 0.66790 0.55200
C 	C 	0.38110 0.32840 0.72070 -0.63200
C 	C 	0.31220 0.38390 0.74310 0.64500
O 	O 	0.44900 0.24250 0.05890 -0.50300
O 	O 	0.34050 0.29040 0.09170 -0.63900
C 	C 	0.42430 0.29900 0.12420 0.51400
H 	H 	0.44600 0.33300 0.81500 0.21100
H 	H 	0.47100 0.42600 0.28900 0.13600
H 	H 	0.38100 0.37400 0.63600 0.15700
Sm	Sm	0.21681 0.64808 0.62023 1.93800
O 	O 	0.16480 0.64450 0.77450 -0.54900
O 	O 	0.22600 0.83170 0.70840 -0.55600
O 	O 	0.12870 0.68440 0.92800 -0.36600
O 	O 	0.20040 0.98360 0.78490 -0.61500
C 	C 	0.13980 0.71110 0.83210 0.55800
C 	C 	0.11890 0.82840 0.77930 -0.63900
C 	C 	0.18780 0.88390 0.75690 0.65000
O 	O 	0.05100 0.74250 0.44110 -0.48100
O 	O 	0.15950 0.79040 0.40830 -0.62800
C 	C 	0.07570 0.79900 0.37580 0.48800
H 	H 	0.05400 0.83300 0.68500 0.22500
H 	H 	0.02900 0.92600 0.21100 0.11800
H 	H 	0.11900 0.87400 0.86400 0.16800
Sm	Sm	0.71681 0.14808 0.62023 1.91500
O 	O 	0.66480 0.14450 0.77450 -0.55200
O 	O 	0.72600 0.33170 0.70840 -0.55800
O 	O 	0.62870 0.18440 0.92800 -0.37800
O 	O 	0.70040 0.48360 0.78490 -0.62100
C 	C 	0.63980 0.21110 0.83210 0.55100
C 	C 	0.61890 0.32840 0.77930 -0.63200
C 	C 	0.68780 0.38390 0.75690 0.64300
O 	O 	0.55100 0.24250 0.44110 -0.50200
O 	O 	0.65950 0.29040 0.40830 -0.63700
C 	C 	0.57570 0.29900 0.37580 0.51400
H 	H 	0.55400 0.33300 0.68500 0.21000
H 	H 	0.52900 0.42600 0.21100 0.13600
H 	H 	0.61900 0.37400 0.86400 0.15700
C 	C 	0.00000 0.12510 0.75000 -0.39800
C 	C 	0.50000 0.62510 0.75000 -0.51500
C 	C 	-0.00000 0.87490 0.25000 -0.40000
C 	C 	0.50000 0.37490 0.25000 -0.51500
