data_crystal

_cell_length_a 10.56710
_cell_length_b 10.56710
_cell_length_c 10.91940
_cell_angle_alpha 78.77080
_cell_angle_beta  62.49630
_cell_angle_gamma 108.75800

_symmetry_space_group_name_	'P 1'
_symmetry_space_group_name_H-M	'P 1'

loop_
_symmetry_equiv_pos_as_xyz
  x,y,z

loop_
_atom_site_label
_atom_site_type_symbol
_atom_site_fract_x
_atom_site_fract_y
_atom_site_fract_z
_atom_site_charge
Sm	Sm	0.44853 0.63517 0.62016 1.92600
Sm	Sm	0.75533 0.06869 0.87984 1.91900
Sm	Sm	0.55147 0.36483 0.37984 1.92700
Sm	Sm	0.24467 0.93131 0.12016 1.92000
H 	H 	0.89700 0.51370 0.84910 0.23200
H 	H 	0.04150 0.61670 0.68160 0.24100
H 	H 	0.73330 0.39110 0.71700 0.21500
H 	H 	0.86280 0.74610 0.65090 0.23700
H 	H 	0.79830 0.72310 0.81840 0.24100
H 	H 	0.60810 0.45030 0.78300 0.21500
H 	H 	0.10300 0.48630 0.15090 0.23200
H 	H 	0.95850 0.38330 0.31840 0.24100
H 	H 	0.26670 0.60890 0.28300 0.21500
H 	H 	0.13720 0.25390 0.34910 0.23700
H 	H 	0.20170 0.27690 0.18160 0.24100
H 	H 	0.39190 0.54970 0.21700 0.21500
C 	C 	0.09640 0.64900 0.83160 0.58000
C 	C 	0.01300 0.55400 0.77780 -0.76700
C 	C 	0.04710 0.42790 0.75760 0.67800
C 	C 	0.59880 0.37460 0.62520 0.56400
C 	C 	0.98060 0.92800 0.66840 0.57000
C 	C 	0.83180 0.79080 0.72220 -0.77200
C 	C 	0.68550 0.80470 0.74240 0.67500
C 	C 	0.49980 0.22400 0.87480 0.56300
C 	C 	0.90360 0.35100 0.16840 0.58000
C 	C 	0.98700 0.44600 0.22220 -0.76700
C 	C 	0.95290 0.57210 0.24240 0.67800
C 	C 	0.40120 0.62540 0.37480 0.56400
C 	C 	0.01940 0.07200 0.33160 0.57000
C 	C 	0.16820 0.20920 0.27780 -0.77200
C 	C 	0.31450 0.19530 0.25760 0.67500
C 	C 	0.50020 0.77600 0.12520 0.56300
C 	C 	0.62490 0.37490 0.75000 -0.71600
C 	C 	0.37510 0.62510 0.25000 -0.71600
O 	O 	0.24610 0.69110 0.77440 -0.55600
O 	O 	0.01520 0.68750 0.92790 -0.38100
O 	O 	0.18650 0.44260 0.70850 -0.56400
O 	O 	0.93220 0.31490 0.78610 -0.64000
O 	O 	0.63280 0.29380 0.55840 -0.51500
O 	O 	0.53950 0.45060 0.59190 -0.65100
O 	O 	0.96550 0.02050 0.72560 -0.55400
O 	O 	0.11540 0.94310 0.57210 -0.37900
O 	O 	0.65110 0.89500 0.79150 -0.56100
O 	O 	0.60100 0.71830 0.71390 -0.63600
O 	O 	0.35220 0.19120 0.94160 -0.51500
O 	O 	0.54250 0.13140 0.90810 -0.65000
O 	O 	0.75390 0.30890 0.22560 -0.55600
O 	O 	0.98480 0.31250 0.07210 -0.38100
O 	O 	0.81350 0.55740 0.29150 -0.56400
O 	O 	0.06780 0.68510 0.21390 -0.64000
O 	O 	0.36720 0.70620 0.44160 -0.51500
O 	O 	0.46050 0.54940 0.40810 -0.65100
O 	O 	0.03450 0.97950 0.27440 -0.55400
O 	O 	0.88460 0.05690 0.42790 -0.37900
O 	O 	0.34890 0.10500 0.20850 -0.56100
O 	O 	0.39900 0.28170 0.28610 -0.63600
O 	O 	0.64780 0.80880 0.05840 -0.51500
O 	O 	0.45750 0.86860 0.09190 -0.65000
