data_crystal

_cell_length_a 19.38000
_cell_length_b 19.38000
_cell_length_c 35.04000
_cell_angle_alpha 90.00000
_cell_angle_beta  90.00000
_cell_angle_gamma 90.00000

_symmetry_space_group_name_	'P 1'
_symmetry_space_group_name_H-M	'P 1'

loop_
_symmetry_equiv_pos_as_xyz
  x,y,z

loop_
_atom_site_label
_atom_site_type_symbol
_atom_site_fract_x
_atom_site_fract_y
_atom_site_fract_z
_atom_site_charge
O 	O 	0.31679 0.21554 0.20309 -0.48200
O 	O 	0.23214 0.12856 0.24795 -0.47300
C 	C 	0.36990 0.23794 0.21995 0.39600
C 	C 	0.43689 0.22670 0.19985 -0.12200
C 	C 	0.43752 0.19718 0.16429 0.01800
H 	H 	0.39480 0.18640 0.15240 0.03200
C 	C 	0.45620 0.12630 0.04390 -0.03700
H 	H 	0.42380 0.13840 0.02470 0.03600
C 	C 	0.45350 0.16340 0.07850 -0.05000
H 	H 	0.41960 0.19810 0.08260 0.04300
C 	C 	0.55660 0.09960 0.09641 -0.04400
C 	C 	0.55600 0.06270 0.06296 -0.04000
H 	H 	0.59360 0.09380 0.11390 0.03800
H 	H 	0.59070 0.02950 0.05750 0.03000
O 	O 	0.81679 0.71554 0.70309 -0.48100
O 	O 	0.73214 0.62856 0.74795 -0.47300
C 	C 	0.86990 0.73794 0.71995 0.39400
C 	C 	0.93689 0.72670 0.69985 -0.11700
C 	C 	0.93752 0.69718 0.66429 0.02100
H 	H 	0.89480 0.68640 0.65240 0.03100
C 	C 	0.95620 0.62630 0.54390 -0.03000
H 	H 	0.92380 0.63840 0.52470 0.03300
C 	C 	0.95350 0.66340 0.57850 -0.04900
H 	H 	0.91960 0.69810 0.58260 0.04200
C 	C 	0.05660 0.59960 0.59641 -0.04400
C 	C 	0.05600 0.56270 0.56296 -0.03800
H 	H 	0.09360 0.59380 0.61390 0.03900
H 	H 	0.09070 0.52950 0.55750 0.03200
O 	O 	0.68321 0.78446 0.20309 -0.48100
O 	O 	0.76786 0.87144 0.24795 -0.47100
C 	C 	0.63010 0.76206 0.21995 0.39500
C 	C 	0.56311 0.77330 0.19985 -0.12300
C 	C 	0.56248 0.80282 0.16429 0.01700
H 	H 	0.60520 0.81360 0.15240 0.03200
C 	C 	0.54380 0.87370 0.04390 -0.03500
H 	H 	0.57620 0.86160 0.02470 0.03400
C 	C 	0.54650 0.83660 0.07850 -0.05300
H 	H 	0.58040 0.80190 0.08260 0.04300
C 	C 	0.44340 0.90040 0.09641 -0.04300
C 	C 	0.44400 0.93730 0.06296 -0.03900
H 	H 	0.40640 0.90620 0.11390 0.04000
H 	H 	0.40930 0.97050 0.05750 0.03400
O 	O 	0.18321 0.28446 0.70309 -0.48200
O 	O 	0.26786 0.37144 0.74795 -0.47400
C 	C 	0.13010 0.26206 0.71995 0.39400
C 	C 	0.06311 0.27330 0.69985 -0.12200
C 	C 	0.06248 0.30282 0.66429 0.01600
H 	H 	0.10520 0.31360 0.65240 0.03200
C 	C 	0.04380 0.37370 0.54390 -0.03700
H 	H 	0.07620 0.36160 0.52470 0.03400
C 	C 	0.04650 0.33660 0.57850 -0.05300
H 	H 	0.08040 0.30190 0.58260 0.04100
C 	C 	0.94340 0.40040 0.59641 -0.04100
C 	C 	0.94400 0.43730 0.56296 -0.03600
H 	H 	0.90640 0.40620 0.61390 0.03900
H 	H 	0.90930 0.47050 0.55750 0.03200
O 	O 	0.78446 0.31679 0.20309 -0.48200
O 	O 	0.87144 0.23214 0.24795 -0.47200
C 	C 	0.76206 0.36990 0.21995 0.39500
C 	C 	0.77330 0.43689 0.19985 -0.12300
C 	C 	0.80282 0.43752 0.16429 0.01700
H 	H 	0.81360 0.39480 0.15240 0.03200
C 	C 	0.87370 0.45620 0.04390 -0.03500
H 	H 	0.86160 0.42380 0.02470 0.03400
C 	C 	0.83660 0.45350 0.07850 -0.05300
H 	H 	0.80190 0.41960 0.08260 0.04200
C 	C 	0.90040 0.55660 0.09641 -0.04300
C 	C 	0.93730 0.55600 0.06296 -0.03900
H 	H 	0.90620 0.59360 0.11390 0.04000
H 	H 	0.97050 0.59070 0.05750 0.03500
O 	O 	0.28446 0.81679 0.70309 -0.48200
O 	O 	0.37144 0.73214 0.74795 -0.47300
C 	C 	0.26206 0.86990 0.71995 0.39400
C 	C 	0.27330 0.93689 0.69985 -0.11800
C 	C 	0.30282 0.93752 0.66429 0.02100
H 	H 	0.31360 0.89480 0.65240 0.03100
C 	C 	0.37370 0.95620 0.54390 -0.03000
H 	H 	0.36160 0.92380 0.52470 0.03300
C 	C 	0.33660 0.95350 0.57850 -0.04900
H 	H 	0.30190 0.91960 0.58260 0.04200
C 	C 	0.40040 0.05660 0.59641 -0.04400
C 	C 	0.43730 0.05600 0.56296 -0.03800
H 	H 	0.40620 0.09360 0.61390 0.03900
H 	H 	0.47050 0.09070 0.55750 0.03200
O 	O 	0.21554 0.68321 0.20309 -0.48200
O 	O 	0.12856 0.76786 0.24795 -0.47300
C 	C 	0.23794 0.63010 0.21995 0.39500
C 	C 	0.22670 0.56311 0.19985 -0.12300
C 	C 	0.19718 0.56248 0.16429 0.01700
H 	H 	0.18640 0.60520 0.15240 0.03200
C 	C 	0.12630 0.54380 0.04390 -0.03800
H 	H 	0.13840 0.57620 0.02470 0.03500
C 	C 	0.16340 0.54650 0.07850 -0.05100
H 	H 	0.19810 0.58040 0.08260 0.04200
C 	C 	0.09960 0.44340 0.09641 -0.04400
C 	C 	0.06270 0.44400 0.06296 -0.04000
H 	H 	0.09380 0.40640 0.11390 0.03800
H 	H 	0.02950 0.40930 0.05750 0.03000
O 	O 	0.71554 0.18321 0.70309 -0.48200
O 	O 	0.62856 0.26786 0.74795 -0.47300
C 	C 	0.73794 0.13010 0.71995 0.39400
C 	C 	0.72670 0.06311 0.69985 -0.12100
C 	C 	0.69718 0.06248 0.66429 0.01600
H 	H 	0.68640 0.10520 0.65240 0.03200
C 	C 	0.62630 0.04380 0.54390 -0.03700
H 	H 	0.63840 0.07620 0.52470 0.03400
C 	C 	0.66340 0.04650 0.57850 -0.05300
H 	H 	0.69810 0.08040 0.58260 0.04200
C 	C 	0.59960 0.94340 0.59641 -0.04100
C 	C 	0.56270 0.94400 0.56296 -0.03600
H 	H 	0.59380 0.90640 0.61390 0.03900
H 	H 	0.52950 0.90930 0.55750 0.03200
O 	O 	0.68321 0.21554 0.79691 -0.48200
O 	O 	0.76786 0.12856 0.75205 -0.47300
C 	C 	0.63010 0.23794 0.78005 0.39500
C 	C 	0.56311 0.22670 0.80015 -0.12300
C 	C 	0.56248 0.19718 0.83571 0.01700
H 	H 	0.60520 0.18640 0.84760 0.03200
C 	C 	0.54380 0.12630 0.95610 -0.03800
H 	H 	0.57620 0.13840 0.97530 0.03400
C 	C 	0.54650 0.16340 0.92150 -0.05200
H 	H 	0.58040 0.19810 0.91740 0.04200
C 	C 	0.44340 0.09960 0.90359 -0.04400
C 	C 	0.44400 0.06270 0.93704 -0.04000
H 	H 	0.40640 0.09380 0.88610 0.03800
H 	H 	0.40930 0.02950 0.94250 0.02900
O 	O 	0.18321 0.71554 0.29691 -0.48200
O 	O 	0.26786 0.62856 0.25205 -0.47300
C 	C 	0.13010 0.73794 0.28005 0.39400
C 	C 	0.06311 0.72670 0.30015 -0.12100
C 	C 	0.06248 0.69718 0.33571 0.01600
H 	H 	0.10520 0.68640 0.34760 0.03200
C 	C 	0.04380 0.62630 0.45610 -0.03700
H 	H 	0.07620 0.63840 0.47530 0.03400
C 	C 	0.04650 0.66340 0.42150 -0.05300
H 	H 	0.08040 0.69810 0.41740 0.04200
C 	C 	0.94340 0.59960 0.40359 -0.04100
C 	C 	0.94400 0.56270 0.43704 -0.03600
H 	H 	0.90640 0.59380 0.38610 0.03900
H 	H 	0.90930 0.52950 0.44250 0.03200
O 	O 	0.31679 0.78446 0.79691 -0.48200
O 	O 	0.23214 0.87144 0.75205 -0.47200
C 	C 	0.36990 0.76206 0.78005 0.39500
C 	C 	0.43689 0.77330 0.80015 -0.12300
C 	C 	0.43752 0.80282 0.83571 0.01700
H 	H 	0.39480 0.81360 0.84760 0.03200
C 	C 	0.45620 0.87370 0.95610 -0.03500
H 	H 	0.42380 0.86160 0.97530 0.03300
C 	C 	0.45350 0.83660 0.92150 -0.05400
H 	H 	0.41960 0.80190 0.91740 0.04200
C 	C 	0.55660 0.90040 0.90359 -0.04300
C 	C 	0.55600 0.93730 0.93704 -0.03800
H 	H 	0.59360 0.90620 0.88610 0.04000
H 	H 	0.59070 0.97050 0.94250 0.03400
O 	O 	0.81679 0.28446 0.29691 -0.48200
O 	O 	0.73214 0.37144 0.25205 -0.47300
C 	C 	0.86990 0.26206 0.28005 0.39400
C 	C 	0.93689 0.27330 0.30015 -0.11800
C 	C 	0.93752 0.30282 0.33571 0.02100
H 	H 	0.89480 0.31360 0.34760 0.03100
C 	C 	0.95620 0.37370 0.45610 -0.03000
H 	H 	0.92380 0.36160 0.47530 0.03300
C 	C 	0.95350 0.33660 0.42150 -0.04900
H 	H 	0.91960 0.30190 0.41740 0.04200
C 	C 	0.05660 0.40040 0.40359 -0.04400
C 	C 	0.05600 0.43730 0.43704 -0.03800
H 	H 	0.09360 0.40620 0.38610 0.03900
H 	H 	0.09070 0.47050 0.44250 0.03200
O 	O 	0.21554 0.31679 0.79691 -0.48300
O 	O 	0.12856 0.23214 0.75205 -0.47400
C 	C 	0.23794 0.36990 0.78005 0.39500
C 	C 	0.22670 0.43689 0.80015 -0.12300
C 	C 	0.19718 0.43752 0.83571 0.01700
H 	H 	0.18640 0.39480 0.84760 0.03100
C 	C 	0.12630 0.45620 0.95610 -0.03700
H 	H 	0.13840 0.42380 0.97530 0.03400
C 	C 	0.16340 0.45350 0.92150 -0.05200
H 	H 	0.19810 0.41960 0.91740 0.04200
C 	C 	0.09960 0.55660 0.90359 -0.04400
C 	C 	0.06270 0.55600 0.93704 -0.04000
H 	H 	0.09380 0.59360 0.88610 0.03800
H 	H 	0.02950 0.59070 0.94250 0.03000
O 	O 	0.71554 0.81679 0.29691 -0.48100
O 	O 	0.62856 0.73214 0.25205 -0.47300
C 	C 	0.73794 0.86990 0.28005 0.39400
C 	C 	0.72670 0.93689 0.30015 -0.11700
C 	C 	0.69718 0.93752 0.33571 0.02100
H 	H 	0.68640 0.89480 0.34760 0.03100
C 	C 	0.62630 0.95620 0.45610 -0.03000
H 	H 	0.63840 0.92380 0.47530 0.03300
C 	C 	0.66340 0.95350 0.42150 -0.04900
H 	H 	0.69810 0.91960 0.41740 0.04200
C 	C 	0.59960 0.05660 0.40359 -0.04400
C 	C 	0.56270 0.05600 0.43704 -0.03800
H 	H 	0.59380 0.09360 0.38610 0.03900
H 	H 	0.52950 0.09070 0.44250 0.03200
O 	O 	0.78446 0.68321 0.79691 -0.48200
O 	O 	0.87144 0.76786 0.75205 -0.47100
C 	C 	0.76206 0.63010 0.78005 0.39500
C 	C 	0.77330 0.56311 0.80015 -0.12300
C 	C 	0.80282 0.56248 0.83571 0.01700
H 	H 	0.81360 0.60520 0.84760 0.03200
C 	C 	0.87370 0.54380 0.95610 -0.03500
H 	H 	0.86160 0.57620 0.97530 0.03400
C 	C 	0.83660 0.54650 0.92150 -0.05400
H 	H 	0.80190 0.58040 0.91740 0.04300
C 	C 	0.90040 0.44340 0.90359 -0.04300
C 	C 	0.93730 0.44400 0.93704 -0.03900
H 	H 	0.90620 0.40640 0.88610 0.04000
H 	H 	0.97050 0.40930 0.94250 0.03400
O 	O 	0.28446 0.18321 0.29691 -0.48200
O 	O 	0.37144 0.26786 0.25205 -0.47400
C 	C 	0.26206 0.13010 0.28005 0.39400
C 	C 	0.27330 0.06311 0.30015 -0.12200
C 	C 	0.30282 0.06248 0.33571 0.01600
H 	H 	0.31360 0.10520 0.34760 0.03200
C 	C 	0.37370 0.04380 0.45610 -0.03700
H 	H 	0.36160 0.07620 0.47530 0.03400
C 	C 	0.33660 0.04650 0.42150 -0.05300
H 	H 	0.30190 0.08040 0.41740 0.04100
C 	C 	0.40040 0.94340 0.40359 -0.04100
C 	C 	0.43730 0.94400 0.43704 -0.03600
H 	H 	0.40620 0.90640 0.38610 0.03900
H 	H 	0.47050 0.90930 0.44250 0.03200
O 	O 	0.68321 0.78446 0.79691 -0.48200
O 	O 	0.76786 0.87144 0.75205 -0.47100
C 	C 	0.63010 0.76206 0.78005 0.39500
C 	C 	0.56311 0.77330 0.80015 -0.12300
C 	C 	0.56248 0.80282 0.83571 0.01700
H 	H 	0.60520 0.81360 0.84760 0.03200
C 	C 	0.54380 0.87370 0.95610 -0.03500
H 	H 	0.57620 0.86160 0.97530 0.03400
C 	C 	0.54650 0.83660 0.92150 -0.05400
H 	H 	0.58040 0.80190 0.91740 0.04300
C 	C 	0.44340 0.90040 0.90359 -0.04300
C 	C 	0.44400 0.93730 0.93704 -0.03900
H 	H 	0.40640 0.90620 0.88610 0.04000
H 	H 	0.40930 0.97050 0.94250 0.03400
O 	O 	0.18321 0.28446 0.29691 -0.48200
O 	O 	0.26786 0.37144 0.25205 -0.47400
C 	C 	0.13010 0.26206 0.28005 0.39400
C 	C 	0.06311 0.27330 0.30015 -0.12200
C 	C 	0.06248 0.30282 0.33571 0.01600
H 	H 	0.10520 0.31360 0.34760 0.03200
C 	C 	0.04380 0.37370 0.45610 -0.03700
H 	H 	0.07620 0.36160 0.47530 0.03400
C 	C 	0.04650 0.33660 0.42150 -0.05300
H 	H 	0.08040 0.30190 0.41740 0.04100
C 	C 	0.94340 0.40040 0.40359 -0.04100
C 	C 	0.94400 0.43730 0.43704 -0.03600
H 	H 	0.90640 0.40620 0.38610 0.03900
H 	H 	0.90930 0.47050 0.44250 0.03200
O 	O 	0.31679 0.21554 0.79691 -0.48300
O 	O 	0.23214 0.12856 0.75205 -0.47400
C 	C 	0.36990 0.23794 0.78005 0.39500
C 	C 	0.43689 0.22670 0.80015 -0.12300
C 	C 	0.43752 0.19718 0.83571 0.01700
H 	H 	0.39480 0.18640 0.84760 0.03100
C 	C 	0.45620 0.12630 0.95610 -0.03700
H 	H 	0.42380 0.13840 0.97530 0.03400
C 	C 	0.45350 0.16340 0.92150 -0.05200
H 	H 	0.41960 0.19810 0.91740 0.04200
C 	C 	0.55660 0.09960 0.90359 -0.04400
C 	C 	0.55600 0.06270 0.93704 -0.04000
H 	H 	0.59360 0.09380 0.88610 0.03800
H 	H 	0.59070 0.02950 0.94250 0.03000
O 	O 	0.81679 0.71554 0.29691 -0.48100
O 	O 	0.73214 0.62856 0.25205 -0.47300
C 	C 	0.86990 0.73794 0.28005 0.39400
C 	C 	0.93689 0.72670 0.30015 -0.11700
C 	C 	0.93752 0.69718 0.33571 0.02100
H 	H 	0.89480 0.68640 0.34760 0.03100
C 	C 	0.95620 0.62630 0.45610 -0.03000
H 	H 	0.92380 0.63840 0.47530 0.03300
C 	C 	0.95350 0.66340 0.42150 -0.04900
H 	H 	0.91960 0.69810 0.41740 0.04200
C 	C 	0.05660 0.59960 0.40359 -0.04400
C 	C 	0.05600 0.56270 0.43704 -0.03800
H 	H 	0.09360 0.59380 0.38610 0.03900
H 	H 	0.09070 0.52950 0.44250 0.03200
O 	O 	0.21554 0.68321 0.79691 -0.48200
O 	O 	0.12856 0.76786 0.75205 -0.47300
C 	C 	0.23794 0.63010 0.78005 0.39500
C 	C 	0.22670 0.56311 0.80015 -0.12300
C 	C 	0.19718 0.56248 0.83571 0.01700
H 	H 	0.18640 0.60520 0.84760 0.03200
C 	C 	0.12630 0.54380 0.95610 -0.03800
H 	H 	0.13840 0.57620 0.97530 0.03400
C 	C 	0.16340 0.54650 0.92150 -0.05200
H 	H 	0.19810 0.58040 0.91740 0.04200
C 	C 	0.09960 0.44340 0.90359 -0.04400
C 	C 	0.06270 0.44400 0.93704 -0.04000
H 	H 	0.09380 0.40640 0.88610 0.03800
H 	H 	0.02950 0.40930 0.94250 0.02900
O 	O 	0.71554 0.18321 0.29691 -0.48200
O 	O 	0.62856 0.26786 0.25205 -0.47300
C 	C 	0.73794 0.13010 0.28005 0.39400
C 	C 	0.72670 0.06311 0.30015 -0.12100
C 	C 	0.69718 0.06248 0.33571 0.01600
H 	H 	0.68640 0.10520 0.34760 0.03200
C 	C 	0.62630 0.04380 0.45610 -0.03700
H 	H 	0.63840 0.07620 0.47530 0.03400
C 	C 	0.66340 0.04650 0.42150 -0.05300
H 	H 	0.69810 0.08040 0.41740 0.04200
C 	C 	0.59960 0.94340 0.40359 -0.04100
C 	C 	0.56270 0.94400 0.43704 -0.03600
H 	H 	0.59380 0.90640 0.38610 0.03900
H 	H 	0.52950 0.90930 0.44250 0.03200
O 	O 	0.78446 0.31679 0.79691 -0.48200
O 	O 	0.87144 0.23214 0.75205 -0.47200
C 	C 	0.76206 0.36990 0.78005 0.39500
C 	C 	0.77330 0.43689 0.80015 -0.12300
C 	C 	0.80282 0.43752 0.83571 0.01700
H 	H 	0.81360 0.39480 0.84760 0.03200
C 	C 	0.87370 0.45620 0.95610 -0.03500
H 	H 	0.86160 0.42380 0.97530 0.03300
C 	C 	0.83660 0.45350 0.92150 -0.05400
H 	H 	0.80190 0.41960 0.91740 0.04200
C 	C 	0.90040 0.55660 0.90359 -0.04300
C 	C 	0.93730 0.55600 0.93704 -0.03800
H 	H 	0.90620 0.59360 0.88610 0.04000
H 	H 	0.97050 0.59070 0.94250 0.03400
O 	O 	0.28446 0.81679 0.29691 -0.48200
O 	O 	0.37144 0.73214 0.25205 -0.47300
C 	C 	0.26206 0.86990 0.28005 0.39400
C 	C 	0.27330 0.93689 0.30015 -0.11800
C 	C 	0.30282 0.93752 0.33571 0.02100
H 	H 	0.31360 0.89480 0.34760 0.03100
C 	C 	0.37370 0.95620 0.45610 -0.03000
H 	H 	0.36160 0.92380 0.47530 0.03300
C 	C 	0.33660 0.95350 0.42150 -0.04900
H 	H 	0.30190 0.91960 0.41740 0.04200
C 	C 	0.40040 0.05660 0.40359 -0.04400
C 	C 	0.43730 0.05600 0.43704 -0.03800
H 	H 	0.40620 0.09360 0.38610 0.03900
H 	H 	0.47050 0.09070 0.44250 0.03200
O 	O 	0.31679 0.78446 0.20309 -0.48200
O 	O 	0.23214 0.87144 0.24795 -0.47200
C 	C 	0.36990 0.76206 0.21995 0.39500
C 	C 	0.43689 0.77330 0.19985 -0.12300
C 	C 	0.43752 0.80282 0.16429 0.01700
H 	H 	0.39480 0.81360 0.15240 0.03200
C 	C 	0.45620 0.87370 0.04390 -0.03500
H 	H 	0.42380 0.86160 0.02470 0.03400
C 	C 	0.45350 0.83660 0.07850 -0.05300
H 	H 	0.41960 0.80190 0.08260 0.04200
C 	C 	0.55660 0.90040 0.09641 -0.04300
C 	C 	0.55600 0.93730 0.06296 -0.03900
H 	H 	0.59360 0.90620 0.11390 0.04000
H 	H 	0.59070 0.97050 0.05750 0.03500
O 	O 	0.81679 0.28446 0.70309 -0.48200
O 	O 	0.73214 0.37144 0.74795 -0.47300
C 	C 	0.86990 0.26206 0.71995 0.39400
C 	C 	0.93689 0.27330 0.69985 -0.11800
C 	C 	0.93752 0.30282 0.66429 0.02100
H 	H 	0.89480 0.31360 0.65240 0.03100
C 	C 	0.95620 0.37370 0.54390 -0.03000
H 	H 	0.92380 0.36160 0.52470 0.03300
C 	C 	0.95350 0.33660 0.57850 -0.04900
H 	H 	0.91960 0.30190 0.58260 0.04200
C 	C 	0.05660 0.40040 0.59641 -0.04400
C 	C 	0.05600 0.43730 0.56296 -0.03800
H 	H 	0.09360 0.40620 0.61390 0.03900
H 	H 	0.09070 0.47050 0.55750 0.03200
O 	O 	0.68321 0.21554 0.20309 -0.48200
O 	O 	0.76786 0.12856 0.24795 -0.47300
C 	C 	0.63010 0.23794 0.21995 0.39500
C 	C 	0.56311 0.22670 0.19985 -0.12300
C 	C 	0.56248 0.19718 0.16429 0.01700
H 	H 	0.60520 0.18640 0.15240 0.03200
C 	C 	0.54380 0.12630 0.04390 -0.03800
H 	H 	0.57620 0.13840 0.02470 0.03500
C 	C 	0.54650 0.16340 0.07850 -0.05100
H 	H 	0.58040 0.19810 0.08260 0.04200
C 	C 	0.44340 0.09960 0.09641 -0.04400
C 	C 	0.44400 0.06270 0.06296 -0.04000
H 	H 	0.40640 0.09380 0.11390 0.03800
H 	H 	0.40930 0.02950 0.05750 0.03000
O 	O 	0.18321 0.71554 0.70309 -0.48200
O 	O 	0.26786 0.62856 0.74795 -0.47300
C 	C 	0.13010 0.73794 0.71995 0.39400
C 	C 	0.06311 0.72670 0.69985 -0.12100
C 	C 	0.06248 0.69718 0.66429 0.01600
H 	H 	0.10520 0.68640 0.65240 0.03200
C 	C 	0.04380 0.62630 0.54390 -0.03700
H 	H 	0.07620 0.63840 0.52470 0.03400
C 	C 	0.04650 0.66340 0.57850 -0.05300
H 	H 	0.08040 0.69810 0.58260 0.04200
C 	C 	0.94340 0.59960 0.59641 -0.04100
C 	C 	0.94400 0.56270 0.56296 -0.03600
H 	H 	0.90640 0.59380 0.61390 0.03900
H 	H 	0.90930 0.52950 0.55750 0.03200
O 	O 	0.78446 0.68321 0.20309 -0.48100
O 	O 	0.87144 0.76786 0.24795 -0.47100
C 	C 	0.76206 0.63010 0.21995 0.39500
C 	C 	0.77330 0.56311 0.19985 -0.12300
C 	C 	0.80282 0.56248 0.16429 0.01700
H 	H 	0.81360 0.60520 0.15240 0.03200
C 	C 	0.87370 0.54380 0.04390 -0.03500
H 	H 	0.86160 0.57620 0.02470 0.03400
C 	C 	0.83660 0.54650 0.07850 -0.05300
H 	H 	0.80190 0.58040 0.08260 0.04300
C 	C 	0.90040 0.44340 0.09641 -0.04300
C 	C 	0.93730 0.44400 0.06296 -0.03900
H 	H 	0.90620 0.40640 0.11390 0.04000
H 	H 	0.97050 0.40930 0.05750 0.03400
O 	O 	0.28446 0.18321 0.70309 -0.48200
O 	O 	0.37144 0.26786 0.74795 -0.47400
C 	C 	0.26206 0.13010 0.71995 0.39400
C 	C 	0.27330 0.06311 0.69985 -0.12200
C 	C 	0.30282 0.06248 0.66429 0.01600
H 	H 	0.31360 0.10520 0.65240 0.03200
C 	C 	0.37370 0.04380 0.54390 -0.03700
H 	H 	0.36160 0.07620 0.52470 0.03400
C 	C 	0.33660 0.04650 0.57850 -0.05300
H 	H 	0.30190 0.08040 0.58260 0.04100
C 	C 	0.40040 0.94340 0.59641 -0.04100
C 	C 	0.43730 0.94400 0.56296 -0.03600
H 	H 	0.40620 0.90640 0.61390 0.03900
H 	H 	0.47050 0.90930 0.55750 0.03200
O 	O 	0.21554 0.31679 0.20309 -0.48300
O 	O 	0.12856 0.23214 0.24795 -0.47400
C 	C 	0.23794 0.36990 0.21995 0.39500
C 	C 	0.22670 0.43689 0.19985 -0.12300
C 	C 	0.19718 0.43752 0.16429 0.01700
H 	H 	0.18640 0.39480 0.15240 0.03100
C 	C 	0.12630 0.45620 0.04390 -0.03800
H 	H 	0.13840 0.42380 0.02470 0.03500
C 	C 	0.16340 0.45350 0.07850 -0.05100
H 	H 	0.19810 0.41960 0.08260 0.04200
C 	C 	0.09960 0.55660 0.09641 -0.04400
C 	C 	0.06270 0.55600 0.06296 -0.04000
H 	H 	0.09380 0.59360 0.11390 0.03800
H 	H 	0.02950 0.59070 0.05750 0.03000
O 	O 	0.71554 0.81679 0.70309 -0.48100
O 	O 	0.62856 0.73214 0.74795 -0.47300
C 	C 	0.73794 0.86990 0.71995 0.39400
C 	C 	0.72670 0.93689 0.69985 -0.11700
C 	C 	0.69718 0.93752 0.66429 0.02100
H 	H 	0.68640 0.89480 0.65240 0.03100
C 	C 	0.62630 0.95620 0.54390 -0.03000
H 	H 	0.63840 0.92380 0.52470 0.03300
C 	C 	0.66340 0.95350 0.57850 -0.04900
H 	H 	0.69810 0.91960 0.58260 0.04200
C 	C 	0.59960 0.05660 0.59641 -0.04400
C 	C 	0.56270 0.05600 0.56296 -0.03800
H 	H 	0.59380 0.09360 0.61390 0.03900
H 	H 	0.52950 0.09070 0.55750 0.03200
Zn	Zn	0.21455 0.21455 0.21681 1.19700
Zn	Zn	0.71455 0.71455 0.71681 1.19800
Zn	Zn	0.78545 0.78545 0.21681 1.19800
Zn	Zn	0.28545 0.28545 0.71681 1.19800
Zn	Zn	0.78545 0.21455 0.21681 1.19800
Zn	Zn	0.28545 0.71455 0.71681 1.19800
Zn	Zn	0.21455 0.78545 0.21681 1.19800
Zn	Zn	0.71455 0.28545 0.71681 1.19800
Zn	Zn	0.78545 0.21455 0.78319 1.19800
Zn	Zn	0.28545 0.71455 0.28319 1.19800
Zn	Zn	0.21455 0.78545 0.78319 1.19800
Zn	Zn	0.71455 0.28545 0.28319 1.19800
Zn	Zn	0.21455 0.21455 0.78319 1.19700
Zn	Zn	0.71455 0.71455 0.28319 1.19800
Zn	Zn	0.78545 0.78545 0.78319 1.19800
Zn	Zn	0.28545 0.28545 0.28319 1.19800
C 	C 	0.50000 0.07620 0.03597 0.04100
C 	C 	0.50000 0.24080 0.21730 0.06000
H 	H 	0.50000 0.26080 0.24210 0.03200
C 	C 	0.50000 0.14840 0.10538 0.05100
C 	C 	0.50000 0.18220 0.14473 -0.04300
C 	C 	0.00000 0.57620 0.53597 0.03000
C 	C 	0.00000 0.74080 0.71730 0.05200
H 	H 	0.00000 0.76080 0.74210 0.03300
C 	C 	0.00000 0.64840 0.60538 0.04600
C 	C 	0.00000 0.68220 0.64473 -0.04700
C 	C 	0.50000 0.92380 0.03597 0.03600
C 	C 	0.50000 0.75920 0.21730 0.06000
H 	H 	0.50000 0.73920 0.24210 0.03200
C 	C 	0.50000 0.85160 0.10538 0.05200
C 	C 	0.50000 0.81780 0.14473 -0.04300
C 	C 	0.00000 0.42380 0.53597 0.03000
C 	C 	-0.00000 0.25920 0.71730 0.05200
H 	H 	0.00000 0.23920 0.74210 0.03300
C 	C 	0.00000 0.35160 0.60538 0.04600
C 	C 	0.00000 0.31780 0.64473 -0.04700
C 	C 	0.92380 0.50000 0.03597 0.03600
C 	C 	0.75920 0.50000 0.21730 0.06000
H 	H 	0.73920 0.50000 0.24210 0.03200
C 	C 	0.85160 0.50000 0.10538 0.05200
C 	C 	0.81780 0.50000 0.14473 -0.04300
C 	C 	0.42380 0.00000 0.53597 0.03000
C 	C 	0.25920 0.00000 0.71730 0.05200
H 	H 	0.23920 0.00000 0.74210 0.03300
C 	C 	0.35160 0.00000 0.60538 0.04600
C 	C 	0.31780 0.00000 0.64473 -0.04700
C 	C 	0.07620 0.50000 0.03597 0.04100
C 	C 	0.24080 0.50000 0.21730 0.06000
H 	H 	0.26080 0.50000 0.24210 0.03200
C 	C 	0.14840 0.50000 0.10538 0.05100
C 	C 	0.18220 0.50000 0.14473 -0.04300
C 	C 	0.57620 0.00000 0.53597 0.03000
C 	C 	0.74080 0.00000 0.71730 0.05200
H 	H 	0.76080 0.00000 0.74210 0.03300
C 	C 	0.64840 0.00000 0.60538 0.04600
C 	C 	0.68220 0.00000 0.64473 -0.04700
C 	C 	0.50000 0.07620 0.96403 0.04000
C 	C 	0.50000 0.24080 0.78270 0.06000
H 	H 	0.50000 0.26080 0.75790 0.03200
C 	C 	0.50000 0.14840 0.89462 0.05100
C 	C 	0.50000 0.18220 0.85527 -0.04300
C 	C 	0.00000 0.57620 0.46403 0.03000
C 	C 	0.00000 0.74080 0.28270 0.05200
H 	H 	0.00000 0.76080 0.25790 0.03300
C 	C 	0.00000 0.64840 0.39462 0.04600
C 	C 	0.00000 0.68220 0.35527 -0.04700
C 	C 	0.50000 0.92380 0.96403 0.03500
C 	C 	0.50000 0.75920 0.78270 0.06000
H 	H 	0.50000 0.73920 0.75790 0.03200
C 	C 	0.50000 0.85160 0.89462 0.05300
C 	C 	0.50000 0.81780 0.85527 -0.04300
C 	C 	0.00000 0.42380 0.46403 0.03000
C 	C 	0.00000 0.25920 0.28270 0.05200
H 	H 	0.00000 0.23920 0.25790 0.03300
C 	C 	0.00000 0.35160 0.39462 0.04600
C 	C 	0.00000 0.31780 0.35527 -0.04700
C 	C 	0.07620 0.50000 0.96403 0.04000
C 	C 	0.24080 0.50000 0.78270 0.06000
H 	H 	0.26080 0.50000 0.75790 0.03200
C 	C 	0.14840 0.50000 0.89462 0.05100
C 	C 	0.18220 0.50000 0.85527 -0.04300
C 	C 	0.57620 0.00000 0.46403 0.03000
C 	C 	0.74080 0.00000 0.28270 0.05200
H 	H 	0.76080 0.00000 0.25790 0.03300
C 	C 	0.64840 0.00000 0.39462 0.04600
C 	C 	0.68220 0.00000 0.35527 -0.04700
C 	C 	0.92380 0.50000 0.96403 0.03500
C 	C 	0.75920 0.50000 0.78270 0.06000
H 	H 	0.73920 0.50000 0.75790 0.03200
C 	C 	0.85160 0.50000 0.89462 0.05300
C 	C 	0.81780 0.50000 0.85527 -0.04300
C 	C 	0.42380 0.00000 0.46403 0.03000
C 	C 	0.25920 0.00000 0.28270 0.05200
H 	H 	0.23920 0.00000 0.25790 0.03300
C 	C 	0.35160 0.00000 0.39462 0.04600
C 	C 	0.31780 0.00000 0.35527 -0.04700
C 	C 	0.50000 0.03420 -0.00000 -0.04600
C 	C 	0.00000 0.53420 0.50000 -0.03600
C 	C 	0.50000 0.96580 -0.00000 -0.02900
C 	C 	0.00000 0.46580 0.50000 -0.03600
C 	C 	0.96580 0.50000 -0.00000 -0.02900
C 	C 	0.46580 0.00000 0.50000 -0.03600
C 	C 	0.03420 0.50000 -0.00000 -0.04600
C 	C 	0.53420 0.00000 0.50000 -0.03600
