data_crystal

_cell_length_a 18.58300
_cell_length_b 18.58300
_cell_length_c 35.68000
_cell_angle_alpha 90.00000
_cell_angle_beta  90.00000
_cell_angle_gamma 90.00000

_symmetry_space_group_name_	'P 1'
_symmetry_space_group_name_H-M	'P 1'

loop_
_symmetry_equiv_pos_as_xyz
  x,y,z

loop_
_atom_site_label
_atom_site_type_symbol
_atom_site_fract_x
_atom_site_fract_y
_atom_site_fract_z
_atom_site_charge
O 	O 	0.13150 0.23360 0.24750 -0.40200
O 	O 	0.19130 0.29210 0.20074 -0.41100
C 	C 	0.13500 0.26670 0.21610 0.34300
C 	C 	0.06450 0.27740 0.19806 -0.09200
C 	C 	0.06250 0.30720 0.16170 -0.00800
H 	H 	0.10580 0.31600 0.14950 0.04500
C 	C 	0.05390 0.40320 0.09610 -0.05500
H 	H 	0.08880 0.41460 0.11390 0.04900
C 	C 	0.05330 0.43720 0.06160 -0.03100
H 	H 	0.08820 0.47140 0.05590 0.03100
C 	C 	0.94960 0.36860 0.04330 -0.03900
C 	C 	0.94930 0.33420 0.07780 -0.04700
H 	H 	0.91510 0.35650 0.02540 0.03900
H 	H 	0.91420 0.29990 0.08310 0.04500
O 	O 	0.63150 0.73360 0.74750 -0.40000
O 	O 	0.69130 0.79210 0.70074 -0.40900
C 	C 	0.63500 0.76670 0.71610 0.34500
C 	C 	0.56450 0.77740 0.69806 -0.09300
C 	C 	0.56250 0.80720 0.66170 -0.00600
H 	H 	0.60580 0.81600 0.64950 0.04600
C 	C 	0.55390 0.90320 0.59610 -0.05400
H 	H 	0.58880 0.91460 0.61390 0.05100
C 	C 	0.55330 0.93720 0.56160 -0.02900
H 	H 	0.58820 0.97140 0.55590 0.03500
C 	C 	0.44960 0.86860 0.54330 -0.04100
C 	C 	0.44930 0.83420 0.57780 -0.05200
H 	H 	0.41510 0.85650 0.52540 0.03900
H 	H 	0.41420 0.79990 0.58310 0.04700
O 	O 	0.86850 0.76640 0.24750 -0.39800
O 	O 	0.80870 0.70790 0.20074 -0.40900
C 	C 	0.86500 0.73330 0.21610 0.34300
C 	C 	0.93550 0.72260 0.19806 -0.08500
C 	C 	0.93750 0.69280 0.16170 -0.00100
H 	H 	0.89420 0.68400 0.14950 0.04500
C 	C 	0.94610 0.59680 0.09610 -0.05000
H 	H 	0.91120 0.58540 0.11390 0.05000
C 	C 	0.94670 0.56280 0.06160 -0.02500
H 	H 	0.91180 0.52860 0.05590 0.03100
C 	C 	0.05040 0.63140 0.04330 -0.04300
C 	C 	0.05070 0.66580 0.07780 -0.05000
H 	H 	0.08490 0.64350 0.02540 0.04000
H 	H 	0.08580 0.70010 0.08310 0.04700
O 	O 	0.36850 0.26640 0.74750 -0.40000
O 	O 	0.30870 0.20790 0.70074 -0.41000
C 	C 	0.36500 0.23330 0.71610 0.34500
C 	C 	0.43550 0.22260 0.69806 -0.09300
C 	C 	0.43750 0.19280 0.66170 -0.00700
H 	H 	0.39420 0.18400 0.64950 0.04600
C 	C 	0.44610 0.09680 0.59610 -0.05300
H 	H 	0.41120 0.08540 0.61390 0.04800
C 	C 	0.44670 0.06280 0.56160 -0.03300
H 	H 	0.41180 0.02860 0.55590 0.03000
C 	C 	0.55040 0.13140 0.54330 -0.04700
C 	C 	0.55070 0.16580 0.57780 -0.04700
H 	H 	0.58490 0.14350 0.52540 0.04100
H 	H 	0.58580 0.20010 0.58310 0.04600
O 	O 	0.76640 0.13150 0.24750 -0.40000
O 	O 	0.70790 0.19130 0.20074 -0.41000
C 	C 	0.73330 0.13500 0.21610 0.34300
C 	C 	0.72260 0.06450 0.19806 -0.09000
C 	C 	0.69280 0.06250 0.16170 -0.00700
H 	H 	0.68400 0.10580 0.14950 0.04600
C 	C 	0.59680 0.05390 0.09610 -0.05400
H 	H 	0.58540 0.08880 0.11390 0.05000
C 	C 	0.56280 0.05330 0.06160 -0.03000
H 	H 	0.52860 0.08820 0.05590 0.03200
C 	C 	0.63140 0.94960 0.04330 -0.03800
C 	C 	0.66580 0.94930 0.07780 -0.04500
H 	H 	0.64350 0.91510 0.02540 0.04000
H 	H 	0.70010 0.91420 0.08310 0.04700
O 	O 	0.26640 0.63150 0.74750 -0.40000
O 	O 	0.20790 0.69130 0.70074 -0.41000
C 	C 	0.23330 0.63500 0.71610 0.34500
C 	C 	0.22260 0.56450 0.69806 -0.09300
C 	C 	0.19280 0.56250 0.66170 -0.00700
H 	H 	0.18400 0.60580 0.64950 0.04600
C 	C 	0.09680 0.55390 0.59610 -0.05300
H 	H 	0.08540 0.58880 0.61390 0.04900
C 	C 	0.06280 0.55330 0.56160 -0.03300
H 	H 	0.02860 0.58820 0.55590 0.03000
C 	C 	0.13140 0.44960 0.54330 -0.04700
C 	C 	0.16580 0.44930 0.57780 -0.04700
H 	H 	0.14350 0.41510 0.52540 0.04100
H 	H 	0.20010 0.41420 0.58310 0.04600
O 	O 	0.23360 0.86850 0.24750 -0.39900
O 	O 	0.29210 0.80870 0.20074 -0.40900
C 	C 	0.26670 0.86500 0.21610 0.34300
C 	C 	0.27740 0.93550 0.19806 -0.08600
C 	C 	0.30720 0.93750 0.16170 -0.00100
H 	H 	0.31600 0.89420 0.14950 0.04500
C 	C 	0.40320 0.94610 0.09610 -0.05000
H 	H 	0.41460 0.91120 0.11390 0.05000
C 	C 	0.43720 0.94670 0.06160 -0.02500
H 	H 	0.47140 0.91180 0.05590 0.03100
C 	C 	0.36860 0.05040 0.04330 -0.04300
C 	C 	0.33420 0.05070 0.07780 -0.05100
H 	H 	0.35650 0.08490 0.02540 0.04000
H 	H 	0.29990 0.08580 0.08310 0.04600
O 	O 	0.73360 0.36850 0.74750 -0.40000
O 	O 	0.79210 0.30870 0.70074 -0.40900
C 	C 	0.76670 0.36500 0.71610 0.34500
C 	C 	0.77740 0.43550 0.69806 -0.09300
C 	C 	0.80720 0.43750 0.66170 -0.00600
H 	H 	0.81600 0.39420 0.64950 0.04600
C 	C 	0.90320 0.44610 0.59610 -0.05300
H 	H 	0.91460 0.41120 0.61390 0.05100
C 	C 	0.93720 0.44670 0.56160 -0.02900
H 	H 	0.97140 0.41180 0.55590 0.03500
C 	C 	0.86860 0.55040 0.54330 -0.04100
C 	C 	0.83420 0.55070 0.57780 -0.05200
H 	H 	0.85650 0.58490 0.52540 0.04000
H 	H 	0.79990 0.58580 0.58310 0.04800
O 	O 	0.86850 0.23360 0.75250 -0.39900
O 	O 	0.80870 0.29210 0.79926 -0.40900
C 	C 	0.86500 0.26670 0.78390 0.34300
C 	C 	0.93550 0.27740 0.80194 -0.08600
C 	C 	0.93750 0.30720 0.83830 -0.00000
H 	H 	0.89420 0.31600 0.85050 0.04500
C 	C 	0.94610 0.40320 0.90390 -0.05000
H 	H 	0.91120 0.41460 0.88610 0.05000
C 	C 	0.94670 0.43720 0.93840 -0.02500
H 	H 	0.91180 0.47140 0.94410 0.03100
C 	C 	0.05040 0.36860 0.95670 -0.04200
C 	C 	0.05070 0.33420 0.92220 -0.05100
H 	H 	0.08490 0.35650 0.97460 0.03900
H 	H 	0.08580 0.29990 0.91690 0.04600
O 	O 	0.36850 0.73360 0.25250 -0.40000
O 	O 	0.30870 0.79210 0.29926 -0.40900
C 	C 	0.36500 0.76670 0.28390 0.34500
C 	C 	0.43550 0.77740 0.30194 -0.09300
C 	C 	0.43750 0.80720 0.33830 -0.00600
H 	H 	0.39420 0.81600 0.35050 0.04600
C 	C 	0.44610 0.90320 0.40390 -0.05300
H 	H 	0.41120 0.91460 0.38610 0.05100
C 	C 	0.44670 0.93720 0.43840 -0.02900
H 	H 	0.41180 0.97140 0.44410 0.03500
C 	C 	0.55040 0.86860 0.45670 -0.04100
C 	C 	0.55070 0.83420 0.42220 -0.05200
H 	H 	0.58490 0.85650 0.47460 0.04000
H 	H 	0.58580 0.79990 0.41690 0.04800
O 	O 	0.13150 0.76640 0.75250 -0.40000
O 	O 	0.19130 0.70790 0.79926 -0.41000
C 	C 	0.13500 0.73330 0.78390 0.34300
C 	C 	0.06450 0.72260 0.80194 -0.09000
C 	C 	0.06250 0.69280 0.83830 -0.00700
H 	H 	0.10580 0.68400 0.85050 0.04600
C 	C 	0.05390 0.59680 0.90390 -0.05400
H 	H 	0.08880 0.58540 0.88610 0.05000
C 	C 	0.05330 0.56280 0.93840 -0.02900
H 	H 	0.08820 0.52860 0.94410 0.03200
C 	C 	0.94960 0.63140 0.95670 -0.03700
C 	C 	0.94930 0.66580 0.92220 -0.04600
H 	H 	0.91510 0.64350 0.97460 0.03900
H 	H 	0.91420 0.70010 0.91690 0.04700
O 	O 	0.63150 0.26640 0.25250 -0.40000
O 	O 	0.69130 0.20790 0.29926 -0.41000
C 	C 	0.63500 0.23330 0.28390 0.34500
C 	C 	0.56450 0.22260 0.30194 -0.09300
C 	C 	0.56250 0.19280 0.33830 -0.00700
H 	H 	0.60580 0.18400 0.35050 0.04600
C 	C 	0.55390 0.09680 0.40390 -0.05300
H 	H 	0.58880 0.08540 0.38610 0.04900
C 	C 	0.55330 0.06280 0.43840 -0.03300
H 	H 	0.58820 0.02860 0.44410 0.03000
C 	C 	0.44960 0.13140 0.45670 -0.04700
C 	C 	0.44930 0.16580 0.42220 -0.04700
H 	H 	0.41510 0.14350 0.47460 0.04100
H 	H 	0.41420 0.20010 0.41690 0.04600
O 	O 	0.23360 0.13150 0.75250 -0.40100
O 	O 	0.29210 0.19130 0.79926 -0.41000
C 	C 	0.26670 0.13500 0.78390 0.34400
C 	C 	0.27740 0.06450 0.80194 -0.09100
C 	C 	0.30720 0.06250 0.83830 -0.00700
H 	H 	0.31600 0.10580 0.85050 0.04600
C 	C 	0.40320 0.05390 0.90390 -0.05400
H 	H 	0.41460 0.08880 0.88610 0.05000
C 	C 	0.43720 0.05330 0.93840 -0.02900
H 	H 	0.47140 0.08820 0.94410 0.03200
C 	C 	0.36860 0.94960 0.95670 -0.03800
C 	C 	0.33420 0.94930 0.92220 -0.04600
H 	H 	0.35650 0.91510 0.97460 0.03900
H 	H 	0.29990 0.91420 0.91690 0.04600
O 	O 	0.73360 0.63150 0.25250 -0.40000
O 	O 	0.79210 0.69130 0.29926 -0.40900
C 	C 	0.76670 0.63500 0.28390 0.34500
C 	C 	0.77740 0.56450 0.30194 -0.09300
C 	C 	0.80720 0.56250 0.33830 -0.00600
H 	H 	0.81600 0.60580 0.35050 0.04600
C 	C 	0.90320 0.55390 0.40390 -0.05400
H 	H 	0.91460 0.58880 0.38610 0.05100
C 	C 	0.93720 0.55330 0.43840 -0.02900
H 	H 	0.97140 0.58820 0.44410 0.03500
C 	C 	0.86860 0.44960 0.45670 -0.04100
C 	C 	0.83420 0.44930 0.42220 -0.05200
H 	H 	0.85650 0.41510 0.47460 0.03900
H 	H 	0.79990 0.41420 0.41690 0.04700
O 	O 	0.76640 0.86850 0.75250 -0.39800
O 	O 	0.70790 0.80870 0.79926 -0.40900
C 	C 	0.73330 0.86500 0.78390 0.34300
C 	C 	0.72260 0.93550 0.80194 -0.08600
C 	C 	0.69280 0.93750 0.83830 -0.00100
H 	H 	0.68400 0.89420 0.85050 0.04500
C 	C 	0.59680 0.94610 0.90390 -0.05000
H 	H 	0.58540 0.91120 0.88610 0.05000
C 	C 	0.56280 0.94670 0.93840 -0.02500
H 	H 	0.52860 0.91180 0.94410 0.03100
C 	C 	0.63140 0.05040 0.95670 -0.04200
C 	C 	0.66580 0.05070 0.92220 -0.05100
H 	H 	0.64350 0.08490 0.97460 0.03900
H 	H 	0.70010 0.08580 0.91690 0.04700
O 	O 	0.26640 0.36850 0.25250 -0.40000
O 	O 	0.20790 0.30870 0.29926 -0.41000
C 	C 	0.23330 0.36500 0.28390 0.34500
C 	C 	0.22260 0.43550 0.30194 -0.09300
C 	C 	0.19280 0.43750 0.33830 -0.00700
H 	H 	0.18400 0.39420 0.35050 0.04600
C 	C 	0.09680 0.44610 0.40390 -0.05300
H 	H 	0.08540 0.41120 0.38610 0.04800
C 	C 	0.06280 0.44670 0.43840 -0.03300
H 	H 	0.02860 0.41180 0.44410 0.03000
C 	C 	0.13140 0.55040 0.45670 -0.04700
C 	C 	0.16580 0.55070 0.42220 -0.04700
H 	H 	0.14350 0.58490 0.47460 0.04100
H 	H 	0.20010 0.58580 0.41690 0.04600
O 	O 	0.86850 0.76640 0.75250 -0.39800
O 	O 	0.80870 0.70790 0.79926 -0.40900
C 	C 	0.86500 0.73330 0.78390 0.34300
C 	C 	0.93550 0.72260 0.80194 -0.08600
C 	C 	0.93750 0.69280 0.83830 -0.00100
H 	H 	0.89420 0.68400 0.85050 0.04500
C 	C 	0.94610 0.59680 0.90390 -0.05000
H 	H 	0.91120 0.58540 0.88610 0.05000
C 	C 	0.94670 0.56280 0.93840 -0.02500
H 	H 	0.91180 0.52860 0.94410 0.03100
C 	C 	0.05040 0.63140 0.95670 -0.04200
C 	C 	0.05070 0.66580 0.92220 -0.05100
H 	H 	0.08490 0.64350 0.97460 0.03900
H 	H 	0.08580 0.70010 0.91690 0.04700
O 	O 	0.36850 0.26640 0.25250 -0.40000
O 	O 	0.30870 0.20790 0.29926 -0.41000
C 	C 	0.36500 0.23330 0.28390 0.34500
C 	C 	0.43550 0.22260 0.30194 -0.09300
C 	C 	0.43750 0.19280 0.33830 -0.00700
H 	H 	0.39420 0.18400 0.35050 0.04600
C 	C 	0.44610 0.09680 0.40390 -0.05300
H 	H 	0.41120 0.08540 0.38610 0.04800
C 	C 	0.44670 0.06280 0.43840 -0.03300
H 	H 	0.41180 0.02860 0.44410 0.03000
C 	C 	0.55040 0.13140 0.45670 -0.04700
C 	C 	0.55070 0.16580 0.42220 -0.04700
H 	H 	0.58490 0.14350 0.47460 0.04100
H 	H 	0.58580 0.20010 0.41690 0.04600
O 	O 	0.13150 0.23360 0.75250 -0.40100
O 	O 	0.19130 0.29210 0.79926 -0.41000
C 	C 	0.13500 0.26670 0.78390 0.34400
C 	C 	0.06450 0.27740 0.80194 -0.09100
C 	C 	0.06250 0.30720 0.83830 -0.00700
H 	H 	0.10580 0.31600 0.85050 0.04600
C 	C 	0.05390 0.40320 0.90390 -0.05400
H 	H 	0.08880 0.41460 0.88610 0.05000
C 	C 	0.05330 0.43720 0.93840 -0.02900
H 	H 	0.08820 0.47140 0.94410 0.03200
C 	C 	0.94960 0.36860 0.95670 -0.03800
C 	C 	0.94930 0.33420 0.92220 -0.04600
H 	H 	0.91510 0.35650 0.97460 0.03900
H 	H 	0.91420 0.29990 0.91690 0.04600
O 	O 	0.63150 0.73360 0.25250 -0.40000
O 	O 	0.69130 0.79210 0.29926 -0.40900
C 	C 	0.63500 0.76670 0.28390 0.34500
C 	C 	0.56450 0.77740 0.30194 -0.09300
C 	C 	0.56250 0.80720 0.33830 -0.00600
H 	H 	0.60580 0.81600 0.35050 0.04600
C 	C 	0.55390 0.90320 0.40390 -0.05400
H 	H 	0.58880 0.91460 0.38610 0.05100
C 	C 	0.55330 0.93720 0.43840 -0.02900
H 	H 	0.58820 0.97140 0.44410 0.03500
C 	C 	0.44960 0.86860 0.45670 -0.04100
C 	C 	0.44930 0.83420 0.42220 -0.05200
H 	H 	0.41510 0.85650 0.47460 0.03900
H 	H 	0.41420 0.79990 0.41690 0.04700
O 	O 	0.23360 0.86850 0.75250 -0.39900
O 	O 	0.29210 0.80870 0.79926 -0.40900
C 	C 	0.26670 0.86500 0.78390 0.34300
C 	C 	0.27740 0.93550 0.80194 -0.08600
C 	C 	0.30720 0.93750 0.83830 -0.00000
H 	H 	0.31600 0.89420 0.85050 0.04500
C 	C 	0.40320 0.94610 0.90390 -0.05000
H 	H 	0.41460 0.91120 0.88610 0.05000
C 	C 	0.43720 0.94670 0.93840 -0.02500
H 	H 	0.47140 0.91180 0.94410 0.03100
C 	C 	0.36860 0.05040 0.95670 -0.04200
C 	C 	0.33420 0.05070 0.92220 -0.05100
H 	H 	0.35650 0.08490 0.97460 0.03900
H 	H 	0.29990 0.08580 0.91690 0.04600
O 	O 	0.73360 0.36850 0.25250 -0.40000
O 	O 	0.79210 0.30870 0.29926 -0.40900
C 	C 	0.76670 0.36500 0.28390 0.34500
C 	C 	0.77740 0.43550 0.30194 -0.09300
C 	C 	0.80720 0.43750 0.33830 -0.00600
H 	H 	0.81600 0.39420 0.35050 0.04600
C 	C 	0.90320 0.44610 0.40390 -0.05300
H 	H 	0.91460 0.41120 0.38610 0.05100
C 	C 	0.93720 0.44670 0.43840 -0.02900
H 	H 	0.97140 0.41180 0.44410 0.03500
C 	C 	0.86860 0.55040 0.45670 -0.04100
C 	C 	0.83420 0.55070 0.42220 -0.05200
H 	H 	0.85650 0.58490 0.47460 0.04000
H 	H 	0.79990 0.58580 0.41690 0.04800
O 	O 	0.76640 0.13150 0.75250 -0.40000
O 	O 	0.70790 0.19130 0.79926 -0.41000
C 	C 	0.73330 0.13500 0.78390 0.34300
C 	C 	0.72260 0.06450 0.80194 -0.09000
C 	C 	0.69280 0.06250 0.83830 -0.00700
H 	H 	0.68400 0.10580 0.85050 0.04600
C 	C 	0.59680 0.05390 0.90390 -0.05400
H 	H 	0.58540 0.08880 0.88610 0.05000
C 	C 	0.56280 0.05330 0.93840 -0.02900
H 	H 	0.52860 0.08820 0.94410 0.03200
C 	C 	0.63140 0.94960 0.95670 -0.03700
C 	C 	0.66580 0.94930 0.92220 -0.04600
H 	H 	0.64350 0.91510 0.97460 0.03900
H 	H 	0.70010 0.91420 0.91690 0.04700
O 	O 	0.26640 0.63150 0.25250 -0.40000
O 	O 	0.20790 0.69130 0.29926 -0.41000
C 	C 	0.23330 0.63500 0.28390 0.34500
C 	C 	0.22260 0.56450 0.30194 -0.09300
C 	C 	0.19280 0.56250 0.33830 -0.00700
H 	H 	0.18400 0.60580 0.35050 0.04600
C 	C 	0.09680 0.55390 0.40390 -0.05300
H 	H 	0.08540 0.58880 0.38610 0.04900
C 	C 	0.06280 0.55330 0.43840 -0.03300
H 	H 	0.02860 0.58820 0.44410 0.03000
C 	C 	0.13140 0.44960 0.45670 -0.04700
C 	C 	0.16580 0.44930 0.42220 -0.04700
H 	H 	0.14350 0.41510 0.47460 0.04100
H 	H 	0.20010 0.41420 0.41690 0.04600
O 	O 	0.13150 0.76640 0.24750 -0.40000
O 	O 	0.19130 0.70790 0.20074 -0.41000
C 	C 	0.13500 0.73330 0.21610 0.34300
C 	C 	0.06450 0.72260 0.19806 -0.09000
C 	C 	0.06250 0.69280 0.16170 -0.00700
H 	H 	0.10580 0.68400 0.14950 0.04600
C 	C 	0.05390 0.59680 0.09610 -0.05400
H 	H 	0.08880 0.58540 0.11390 0.05000
C 	C 	0.05330 0.56280 0.06160 -0.03000
H 	H 	0.08820 0.52860 0.05590 0.03200
C 	C 	0.94960 0.63140 0.04330 -0.03800
C 	C 	0.94930 0.66580 0.07780 -0.04500
H 	H 	0.91510 0.64350 0.02540 0.04000
H 	H 	0.91420 0.70010 0.08310 0.04700
O 	O 	0.63150 0.26640 0.74750 -0.40000
O 	O 	0.69130 0.20790 0.70074 -0.41000
C 	C 	0.63500 0.23330 0.71610 0.34500
C 	C 	0.56450 0.22260 0.69806 -0.09300
C 	C 	0.56250 0.19280 0.66170 -0.00700
H 	H 	0.60580 0.18400 0.64950 0.04600
C 	C 	0.55390 0.09680 0.59610 -0.05300
H 	H 	0.58880 0.08540 0.61390 0.04900
C 	C 	0.55330 0.06280 0.56160 -0.03300
H 	H 	0.58820 0.02860 0.55590 0.03000
C 	C 	0.44960 0.13140 0.54330 -0.04700
C 	C 	0.44930 0.16580 0.57780 -0.04700
H 	H 	0.41510 0.14350 0.52540 0.04100
H 	H 	0.41420 0.20010 0.58310 0.04600
O 	O 	0.86850 0.23360 0.24750 -0.39900
O 	O 	0.80870 0.29210 0.20074 -0.40900
C 	C 	0.86500 0.26670 0.21610 0.34300
C 	C 	0.93550 0.27740 0.19806 -0.08600
C 	C 	0.93750 0.30720 0.16170 -0.00100
H 	H 	0.89420 0.31600 0.14950 0.04500
C 	C 	0.94610 0.40320 0.09610 -0.05000
H 	H 	0.91120 0.41460 0.11390 0.05000
C 	C 	0.94670 0.43720 0.06160 -0.02500
H 	H 	0.91180 0.47140 0.05590 0.03100
C 	C 	0.05040 0.36860 0.04330 -0.04300
C 	C 	0.05070 0.33420 0.07780 -0.05100
H 	H 	0.08490 0.35650 0.02540 0.04000
H 	H 	0.08580 0.29990 0.08310 0.04600
O 	O 	0.36850 0.73360 0.74750 -0.40000
O 	O 	0.30870 0.79210 0.70074 -0.40900
C 	C 	0.36500 0.76670 0.71610 0.34500
C 	C 	0.43550 0.77740 0.69806 -0.09300
C 	C 	0.43750 0.80720 0.66170 -0.00600
H 	H 	0.39420 0.81600 0.64950 0.04600
C 	C 	0.44610 0.90320 0.59610 -0.05300
H 	H 	0.41120 0.91460 0.61390 0.05100
C 	C 	0.44670 0.93720 0.56160 -0.02900
H 	H 	0.41180 0.97140 0.55590 0.03500
C 	C 	0.55040 0.86860 0.54330 -0.04100
C 	C 	0.55070 0.83420 0.57780 -0.05200
H 	H 	0.58490 0.85650 0.52540 0.04000
H 	H 	0.58580 0.79990 0.58310 0.04800
O 	O 	0.76640 0.86850 0.24750 -0.39800
O 	O 	0.70790 0.80870 0.20074 -0.40900
C 	C 	0.73330 0.86500 0.21610 0.34300
C 	C 	0.72260 0.93550 0.19806 -0.08500
C 	C 	0.69280 0.93750 0.16170 -0.00100
H 	H 	0.68400 0.89420 0.14950 0.04500
C 	C 	0.59680 0.94610 0.09610 -0.05000
H 	H 	0.58540 0.91120 0.11390 0.05000
C 	C 	0.56280 0.94670 0.06160 -0.02500
H 	H 	0.52860 0.91180 0.05590 0.03100
C 	C 	0.63140 0.05040 0.04330 -0.04300
C 	C 	0.66580 0.05070 0.07780 -0.05000
H 	H 	0.64350 0.08490 0.02540 0.04000
H 	H 	0.70010 0.08580 0.08310 0.04700
O 	O 	0.26640 0.36850 0.74750 -0.40000
O 	O 	0.20790 0.30870 0.70074 -0.41000
C 	C 	0.23330 0.36500 0.71610 0.34500
C 	C 	0.22260 0.43550 0.69806 -0.09300
C 	C 	0.19280 0.43750 0.66170 -0.00700
H 	H 	0.18400 0.39420 0.64950 0.04600
C 	C 	0.09680 0.44610 0.59610 -0.05300
H 	H 	0.08540 0.41120 0.61390 0.04800
C 	C 	0.06280 0.44670 0.56160 -0.03300
H 	H 	0.02860 0.41180 0.55590 0.03000
C 	C 	0.13140 0.55040 0.54330 -0.04700
C 	C 	0.16580 0.55070 0.57780 -0.04700
H 	H 	0.14350 0.58490 0.52540 0.04100
H 	H 	0.20010 0.58580 0.58310 0.04600
O 	O 	0.23360 0.13150 0.24750 -0.40100
O 	O 	0.29210 0.19130 0.20074 -0.41000
C 	C 	0.26670 0.13500 0.21610 0.34400
C 	C 	0.27740 0.06450 0.19806 -0.09100
C 	C 	0.30720 0.06250 0.16170 -0.00700
H 	H 	0.31600 0.10580 0.14950 0.04600
C 	C 	0.40320 0.05390 0.09610 -0.05400
H 	H 	0.41460 0.08880 0.11390 0.05000
C 	C 	0.43720 0.05330 0.06160 -0.03000
H 	H 	0.47140 0.08820 0.05590 0.03200
C 	C 	0.36860 0.94960 0.04330 -0.03800
C 	C 	0.33420 0.94930 0.07780 -0.04600
H 	H 	0.35650 0.91510 0.02540 0.04000
H 	H 	0.29990 0.91420 0.08310 0.04600
O 	O 	0.73360 0.63150 0.74750 -0.40000
O 	O 	0.79210 0.69130 0.70074 -0.40900
C 	C 	0.76670 0.63500 0.71610 0.34500
C 	C 	0.77740 0.56450 0.69806 -0.09300
C 	C 	0.80720 0.56250 0.66170 -0.00600
H 	H 	0.81600 0.60580 0.64950 0.04600
C 	C 	0.90320 0.55390 0.59610 -0.05400
H 	H 	0.91460 0.58880 0.61390 0.05100
C 	C 	0.93720 0.55330 0.56160 -0.02900
H 	H 	0.97140 0.58820 0.55590 0.03500
C 	C 	0.86860 0.44960 0.54330 -0.04100
C 	C 	0.83420 0.44930 0.57780 -0.05200
H 	H 	0.85650 0.41510 0.52540 0.03900
H 	H 	0.79990 0.41420 0.58310 0.04700
Cu	Cu	0.21591 0.21591 0.27734 0.91400
Cu	Cu	0.71591 0.71591 0.77734 0.91500
Cu	Cu	0.78409 0.78409 0.27734 0.91500
Cu	Cu	0.28409 0.28409 0.77734 0.91500
Cu	Cu	0.78409 0.21591 0.27734 0.91500
Cu	Cu	0.28409 0.71591 0.77734 0.91500
Cu	Cu	0.21591 0.78409 0.27734 0.91500
Cu	Cu	0.71591 0.28409 0.77734 0.91500
Cu	Cu	0.78409 0.21591 0.72266 0.91500
Cu	Cu	0.28409 0.71591 0.22266 0.91500
Cu	Cu	0.21591 0.78409 0.72266 0.91500
Cu	Cu	0.71591 0.28409 0.22266 0.91500
Cu	Cu	0.21591 0.21591 0.72266 0.91400
Cu	Cu	0.71591 0.71591 0.22266 0.91500
Cu	Cu	0.78409 0.78409 0.72266 0.91500
Cu	Cu	0.28409 0.28409 0.22266 0.91500
C 	C 	0.00000 0.26420 0.21440 0.03400
H 	H 	0.00000 0.24480 0.23840 0.04900
C 	C 	0.00000 0.32370 0.14360 -0.03200
C 	C 	0.00000 0.42000 0.03510 0.02700
C 	C 	0.00000 0.35040 0.10410 0.04800
C 	C 	0.50000 0.76420 0.71440 0.04400
H 	H 	0.50000 0.74480 0.73840 0.04800
C 	C 	0.50000 0.82370 0.64360 -0.02700
C 	C 	0.50000 0.92000 0.53510 0.03100
C 	C 	0.50000 0.85040 0.60410 0.05600
C 	C 	0.00000 0.73580 0.21440 0.03300
H 	H 	-0.00000 0.75520 0.23840 0.05000
C 	C 	-0.00000 0.67630 0.14360 -0.03200
C 	C 	0.00000 0.58000 0.03510 0.02700
C 	C 	0.00000 0.64960 0.10410 0.04800
C 	C 	0.50000 0.23580 0.71440 0.04400
H 	H 	0.50000 0.25520 0.73840 0.04800
C 	C 	0.50000 0.17630 0.64360 -0.02600
C 	C 	0.50000 0.08000 0.53510 0.04300
C 	C 	0.50000 0.14960 0.60410 0.05200
C 	C 	0.73580 0.00000 0.21440 0.03300
H 	H 	0.75520 0.00000 0.23840 0.05000
C 	C 	0.67630 -0.00000 0.14360 -0.03200
C 	C 	0.58000 0.00000 0.03510 0.02700
C 	C 	0.64960 0.00000 0.10410 0.04800
C 	C 	0.23580 0.50000 0.71440 0.04400
H 	H 	0.25520 0.50000 0.73840 0.04800
C 	C 	0.17630 0.50000 0.64360 -0.02600
C 	C 	0.08000 0.50000 0.53510 0.04300
C 	C 	0.14960 0.50000 0.60410 0.05200
C 	C 	0.26420 0.00000 0.21440 0.03400
H 	H 	0.24480 0.00000 0.23840 0.04900
C 	C 	0.32370 -0.00000 0.14360 -0.03200
C 	C 	0.42000 0.00000 0.03510 0.02700
C 	C 	0.35040 0.00000 0.10410 0.04800
C 	C 	0.76420 0.50000 0.71440 0.04400
H 	H 	0.74480 0.50000 0.73840 0.04800
C 	C 	0.82370 0.50000 0.64360 -0.02700
C 	C 	0.92000 0.50000 0.53510 0.03100
C 	C 	0.85040 0.50000 0.60410 0.05600
C 	C 	0.00000 0.26420 0.78560 0.03400
H 	H 	-0.00000 0.24480 0.76160 0.04900
C 	C 	0.00000 0.32370 0.85640 -0.03200
C 	C 	0.00000 0.42000 0.96490 0.02600
C 	C 	0.00000 0.35040 0.89590 0.04800
C 	C 	0.50000 0.76420 0.28560 0.04400
H 	H 	0.50000 0.74480 0.26160 0.04800
C 	C 	0.50000 0.82370 0.35640 -0.02700
C 	C 	0.50000 0.92000 0.46490 0.03100
C 	C 	0.50000 0.85040 0.39590 0.05600
C 	C 	0.00000 0.73580 0.78560 0.03300
H 	H 	-0.00000 0.75520 0.76160 0.05000
C 	C 	0.00000 0.67630 0.85640 -0.03200
C 	C 	0.00000 0.58000 0.96490 0.02600
C 	C 	-0.00000 0.64960 0.89590 0.04800
C 	C 	0.50000 0.23580 0.28560 0.04400
H 	H 	0.50000 0.25520 0.26160 0.04800
C 	C 	0.50000 0.17630 0.35640 -0.02600
C 	C 	0.50000 0.08000 0.46490 0.04300
C 	C 	0.50000 0.14960 0.39590 0.05200
C 	C 	0.26420 0.00000 0.78560 0.03400
H 	H 	0.24480 0.00000 0.76160 0.04900
C 	C 	0.32370 0.00000 0.85640 -0.03200
C 	C 	0.42000 0.00000 0.96490 0.02600
C 	C 	0.35040 -0.00000 0.89590 0.04800
C 	C 	0.76420 0.50000 0.28560 0.04400
H 	H 	0.74480 0.50000 0.26160 0.04800
C 	C 	0.82370 0.50000 0.35640 -0.02700
C 	C 	0.92000 0.50000 0.46490 0.03100
C 	C 	0.85040 0.50000 0.39590 0.05600
C 	C 	0.73580 0.00000 0.78560 0.03300
H 	H 	0.75520 0.00000 0.76160 0.05000
C 	C 	0.67630 0.00000 0.85640 -0.03200
C 	C 	0.58000 0.00000 0.96490 0.02600
C 	C 	0.64960 -0.00000 0.89590 0.04800
C 	C 	0.23580 0.50000 0.28560 0.04400
H 	H 	0.25520 0.50000 0.26160 0.04800
C 	C 	0.17630 0.50000 0.35640 -0.02600
C 	C 	0.08000 0.50000 0.46490 0.04300
C 	C 	0.14960 0.50000 0.39590 0.05200
C 	C 	0.00000 0.46900 -0.00000 -0.03100
C 	C 	0.50000 0.96900 0.50000 -0.01700
C 	C 	-0.00000 0.53100 -0.00000 -0.03100
C 	C 	0.50000 0.03100 0.50000 -0.05000
C 	C 	0.53100 0.00000 -0.00000 -0.03100
C 	C 	0.03100 0.50000 0.50000 -0.05000
C 	C 	0.46900 0.00000 -0.00000 -0.03100
C 	C 	0.96900 0.50000 0.50000 -0.01700
