data_crystal

_cell_length_a 21.43500
_cell_length_b 21.43500
_cell_length_c 11.38200
_cell_angle_alpha 90.00000
_cell_angle_beta  90.00000
_cell_angle_gamma 90.00000

_symmetry_space_group_name_	'P 1'
_symmetry_space_group_name_H-M	'P 1'

loop_
_symmetry_equiv_pos_as_xyz
  x,y,z

loop_
_atom_site_label
_atom_site_type_symbol
_atom_site_fract_x
_atom_site_fract_y
_atom_site_fract_z
_atom_site_charge
O 	O 	0.29870 0.87622 0.92070 -0.45000
N 	N 	0.20240 0.00320 0.09000 -0.21900
C 	C 	0.17600 0.05290 0.03790 -0.02200
H 	H 	0.18280 0.05890 0.95810 0.04200
C 	C 	0.13950 0.09520 0.09690 -0.08500
H 	H 	0.12270 0.12940 0.05790 0.04200
C 	C 	0.12780 0.08590 0.21620 0.02400
C 	C 	0.15560 0.03460 0.27120 -0.12100
H 	H 	0.14970 0.02730 0.35090 0.06000
C 	C 	0.19200 0.99520 0.20430 0.06100
H 	H 	0.21020 0.96110 0.24110 -0.01900
C 	C 	0.29340 0.81620 0.93140 0.47100
C 	C 	0.34130 0.78130 0.85820 -0.93700
H 	H 	0.35060 0.80480 0.78870 0.29800
H 	H 	0.32490 0.74120 0.83640 0.30200
H 	H 	0.37880 0.77560 0.90330 0.30200
O 	O 	0.20130 0.62378 0.92070 -0.45100
N 	N 	0.29760 0.49680 0.09000 -0.22200
C 	C 	0.32400 0.44710 0.03790 -0.02300
H 	H 	0.31720 0.44110 0.95810 0.04200
C 	C 	0.36050 0.40480 0.09690 -0.08600
H 	H 	0.37730 0.37060 0.05790 0.04100
C 	C 	0.37220 0.41410 0.21620 0.02400
C 	C 	0.34440 0.46540 0.27120 -0.12500
H 	H 	0.35030 0.47270 0.35090 0.06100
C 	C 	0.30800 0.50480 0.20430 0.06600
H 	H 	0.28980 0.53890 0.24110 -0.02000
C 	C 	0.20660 0.68380 0.93140 0.47000
C 	C 	0.15870 0.71870 0.85820 -0.93600
H 	H 	0.14940 0.69520 0.78870 0.29700
H 	H 	0.17510 0.75880 0.83640 0.30200
H 	H 	0.12120 0.72440 0.90330 0.30200
O 	O 	0.62378 0.29870 0.42070 -0.45300
N 	N 	0.49680 0.20240 0.59000 -0.23400
C 	C 	0.44710 0.17600 0.53790 0.07100
H 	H 	0.44110 0.18280 0.45810 -0.01800
C 	C 	0.40480 0.13950 0.59690 -0.13400
H 	H 	0.37060 0.12270 0.55790 0.06800
C 	C 	0.41410 0.12780 0.71620 0.04300
C 	C 	0.46540 0.15560 0.77120 -0.13700
H 	H 	0.47270 0.14970 0.85090 0.07200
C 	C 	0.50480 0.19200 0.70430 0.08000
H 	H 	0.53890 0.21020 0.74110 -0.02100
C 	C 	0.68380 0.29340 0.43140 0.40800
C 	C 	0.71870 0.34130 0.35820 -0.86500
H 	H 	0.69520 0.35060 0.28870 0.27300
H 	H 	0.75880 0.32490 0.33640 0.27400
H 	H 	0.72440 0.37880 0.40330 0.27000
O 	O 	0.87622 0.20130 0.42070 -0.45300
N 	N 	0.00320 0.29760 0.59000 -0.23300
C 	C 	0.05290 0.32400 0.53790 0.07000
H 	H 	0.05890 0.31720 0.45810 -0.01800
C 	C 	0.09520 0.36050 0.59690 -0.13200
H 	H 	0.12940 0.37730 0.55790 0.06700
C 	C 	0.08590 0.37220 0.71620 0.04100
C 	C 	0.03460 0.34440 0.77120 -0.13400
H 	H 	0.02730 0.35030 0.85090 0.07100
C 	C 	0.99520 0.30800 0.70430 0.07600
H 	H 	0.96110 0.28980 0.74110 -0.02000
C 	C 	0.81620 0.20660 0.43140 0.40800
C 	C 	0.78130 0.15870 0.35820 -0.86500
H 	H 	0.80480 0.14940 0.28870 0.27300
H 	H 	0.74120 0.17510 0.33640 0.27400
H 	H 	0.77560 0.12120 0.40330 0.27000
O 	O 	0.20130 0.87622 0.07930 -0.46400
N 	N 	0.29760 0.00320 0.91000 -0.24200
C 	C 	0.32400 0.05290 0.96210 0.16800
H 	H 	0.31720 0.05890 0.04190 -0.07400
C 	C 	0.36050 0.09520 0.90310 -0.19200
H 	H 	0.37730 0.12940 0.94210 0.10000
C 	C 	0.37220 0.08590 0.78380 0.07900
C 	C 	0.34440 0.03460 0.72880 -0.16000
H 	H 	0.35030 0.02730 0.64910 0.07400
C 	C 	0.30800 0.99520 0.79570 0.09100
H 	H 	0.28980 0.96110 0.75890 -0.02500
C 	C 	0.20660 0.81620 0.06860 0.41500
C 	C 	0.15870 0.78130 0.14180 -0.86900
H 	H 	0.14940 0.80480 0.21130 0.27500
H 	H 	0.17510 0.74120 0.16360 0.27300
H 	H 	0.12120 0.77560 0.09670 0.26200
O 	O 	0.29870 0.62378 0.07930 -0.46400
N 	N 	0.20240 0.49680 0.91000 -0.24400
C 	C 	0.17600 0.44710 0.96210 0.17000
H 	H 	0.18280 0.44110 0.04190 -0.07500
C 	C 	0.13950 0.40480 0.90310 -0.19400
H 	H 	0.12270 0.37060 0.94210 0.10000
C 	C 	0.12780 0.41410 0.78380 0.08100
C 	C 	0.15560 0.46540 0.72880 -0.16300
H 	H 	0.14970 0.47270 0.64910 0.07500
C 	C 	0.19200 0.50480 0.79570 0.09500
H 	H 	0.21020 0.53890 0.75890 -0.02600
C 	C 	0.29340 0.68380 0.06860 0.41500
C 	C 	0.34130 0.71870 0.14180 -0.87000
H 	H 	0.35060 0.69520 0.21130 0.27500
H 	H 	0.32490 0.75880 0.16360 0.27300
H 	H 	0.37880 0.72440 0.09670 0.26200
O 	O 	0.87622 0.29870 0.57930 -0.45200
N 	N 	0.00320 0.20240 0.41000 -0.23500
C 	C 	0.05290 0.17600 0.46210 0.07500
H 	H 	0.05890 0.18280 0.54190 -0.01700
C 	C 	0.09520 0.13950 0.40310 -0.14600
H 	H 	0.12940 0.12270 0.44210 0.07400
C 	C 	0.08590 0.12780 0.28380 0.06100
C 	C 	0.03460 0.15560 0.22880 -0.14700
H 	H 	0.02730 0.14970 0.14910 0.06300
C 	C 	0.99520 0.19200 0.29570 0.07600
H 	H 	0.96110 0.21020 0.25890 -0.02600
C 	C 	0.81620 0.29340 0.56860 0.41000
C 	C 	0.78130 0.34130 0.64180 -0.87400
H 	H 	0.80480 0.35060 0.71130 0.28000
H 	H 	0.74120 0.32490 0.66360 0.27700
H 	H 	0.77560 0.37880 0.59670 0.27400
O 	O 	0.62378 0.20130 0.57930 -0.45200
N 	N 	0.49680 0.29760 0.41000 -0.23700
C 	C 	0.44710 0.32400 0.46210 0.07600
H 	H 	0.44110 0.31720 0.54190 -0.01700
C 	C 	0.40480 0.36050 0.40310 -0.14700
H 	H 	0.37060 0.37730 0.44210 0.07400
C 	C 	0.41410 0.37220 0.28380 0.06200
C 	C 	0.46540 0.34440 0.22880 -0.15200
H 	H 	0.47270 0.35030 0.14910 0.06400
C 	C 	0.50480 0.30800 0.29570 0.08100
H 	H 	0.53890 0.28980 0.25890 -0.02800
C 	C 	0.68380 0.20660 0.56860 0.41000
C 	C 	0.71870 0.15870 0.64180 -0.87400
H 	H 	0.69520 0.14940 0.71130 0.28000
H 	H 	0.75880 0.17510 0.66360 0.27600
H 	H 	0.72440 0.12120 0.59670 0.27400
Cu	Cu	0.25000 0.93806 -0.00000 0.87300
C 	C 	0.25000 0.78540 -0.00000 -0.32300
Cu	Cu	0.25000 0.56194 -0.00000 0.87300
C 	C 	0.25000 0.71460 -0.00000 -0.32300
Cu	Cu	0.56194 0.25000 0.50000 0.88900
C 	C 	0.71460 0.25000 0.50000 -0.27900
Cu	Cu	0.93806 0.25000 0.50000 0.88800
C 	C 	0.78540 0.25000 0.50000 -0.27900
O 	O 	0.70130 0.12378 0.07930 -0.46400
N 	N 	0.79760 0.99680 0.91000 -0.24200
C 	C 	0.82400 0.94710 0.96210 0.16800
H 	H 	0.81720 0.94110 0.04190 -0.07400
C 	C 	0.86050 0.90480 0.90310 -0.19200
H 	H 	0.87730 0.87060 0.94210 0.10000
C 	C 	0.87220 0.91410 0.78380 0.07900
C 	C 	0.84440 0.96540 0.72880 -0.15800
H 	H 	0.85030 0.97270 0.64910 0.07400
C 	C 	0.80800 0.00480 0.79570 0.08900
H 	H 	0.78980 0.03890 0.75890 -0.02500
C 	C 	0.70660 0.18380 0.06860 0.41500
C 	C 	0.65870 0.21870 0.14180 -0.87000
H 	H 	0.64940 0.19520 0.21130 0.27500
H 	H 	0.67510 0.25880 0.16360 0.27300
H 	H 	0.62120 0.22440 0.09670 0.26200
O 	O 	0.79870 0.37622 0.07930 -0.46400
N 	N 	0.70240 0.50320 0.91000 -0.24400
C 	C 	0.67600 0.55290 0.96210 0.17000
H 	H 	0.68280 0.55890 0.04190 -0.07500
C 	C 	0.63950 0.59520 0.90310 -0.19300
H 	H 	0.62270 0.62940 0.94210 0.10000
C 	C 	0.62780 0.58590 0.78380 0.08100
C 	C 	0.65560 0.53460 0.72880 -0.16300
H 	H 	0.64970 0.52730 0.64910 0.07500
C 	C 	0.69200 0.49520 0.79570 0.09400
H 	H 	0.71020 0.46110 0.75890 -0.02600
C 	C 	0.79340 0.31620 0.06860 0.41500
C 	C 	0.84130 0.28130 0.14180 -0.87000
H 	H 	0.85060 0.30480 0.21130 0.27500
H 	H 	0.82490 0.24120 0.16360 0.27300
H 	H 	0.87880 0.27560 0.09670 0.26200
O 	O 	0.37622 0.70130 0.57930 -0.45200
N 	N 	0.50320 0.79760 0.41000 -0.23700
C 	C 	0.55290 0.82400 0.46210 0.07600
H 	H 	0.55890 0.81720 0.54190 -0.01700
C 	C 	0.59520 0.86050 0.40310 -0.14800
H 	H 	0.62940 0.87730 0.44210 0.07400
C 	C 	0.58590 0.87220 0.28380 0.06300
C 	C 	0.53460 0.84440 0.22880 -0.15200
H 	H 	0.52730 0.85030 0.14910 0.06400
C 	C 	0.49520 0.80800 0.29570 0.08100
H 	H 	0.46110 0.78980 0.25890 -0.02800
C 	C 	0.31620 0.70660 0.56860 0.41000
C 	C 	0.28130 0.65870 0.64180 -0.87400
H 	H 	0.30480 0.64940 0.71130 0.28000
H 	H 	0.24120 0.67510 0.66360 0.27700
H 	H 	0.27560 0.62120 0.59670 0.27400
O 	O 	0.12378 0.79870 0.57930 -0.45300
N 	N 	0.99680 0.70240 0.41000 -0.23500
C 	C 	0.94710 0.67600 0.46210 0.07500
H 	H 	0.94110 0.68280 0.54190 -0.01700
C 	C 	0.90480 0.63950 0.40310 -0.14600
H 	H 	0.87060 0.62270 0.44210 0.07300
C 	C 	0.91410 0.62780 0.28380 0.06100
C 	C 	0.96540 0.65560 0.22880 -0.14900
H 	H 	0.97270 0.64970 0.14910 0.06300
C 	C 	0.00480 0.69200 0.29570 0.07800
H 	H 	0.03890 0.71020 0.25890 -0.02700
C 	C 	0.18380 0.79340 0.56860 0.41000
C 	C 	0.21870 0.84130 0.64180 -0.87400
H 	H 	0.19520 0.85060 0.71130 0.28000
H 	H 	0.25880 0.82490 0.66360 0.27600
H 	H 	0.22440 0.87880 0.59670 0.27400
O 	O 	0.79870 0.12378 0.92070 -0.45100
N 	N 	0.70240 0.99680 0.09000 -0.22100
C 	C 	0.67600 0.94710 0.03790 -0.02300
H 	H 	0.68280 0.94110 0.95810 0.04100
C 	C 	0.63950 0.90480 0.09690 -0.08600
H 	H 	0.62270 0.87060 0.05790 0.04100
C 	C 	0.62780 0.91410 0.21620 0.02300
C 	C 	0.65560 0.96540 0.27120 -0.12200
H 	H 	0.64970 0.97270 0.35090 0.06000
C 	C 	0.69200 0.00480 0.20430 0.06300
H 	H 	0.71020 0.03890 0.24110 -0.01900
C 	C 	0.79340 0.18380 0.93140 0.47000
C 	C 	0.84130 0.21870 0.85820 -0.93600
H 	H 	0.85060 0.19520 0.78870 0.29700
H 	H 	0.82490 0.25880 0.83640 0.30200
H 	H 	0.87880 0.22440 0.90330 0.30200
O 	O 	0.70130 0.37622 0.92070 -0.45100
N 	N 	0.79760 0.50320 0.09000 -0.22200
C 	C 	0.82400 0.55290 0.03790 -0.02300
H 	H 	0.81720 0.55890 0.95810 0.04100
C 	C 	0.86050 0.59520 0.09690 -0.08700
H 	H 	0.87730 0.62940 0.05790 0.04100
C 	C 	0.87220 0.58590 0.21620 0.02400
C 	C 	0.84440 0.53460 0.27120 -0.12500
H 	H 	0.85030 0.52730 0.35090 0.06100
C 	C 	0.80800 0.49520 0.20430 0.06600
H 	H 	0.78980 0.46110 0.24110 -0.02000
C 	C 	0.70660 0.31620 0.93140 0.47100
C 	C 	0.65870 0.28130 0.85820 -0.93700
H 	H 	0.64940 0.30480 0.78870 0.29800
H 	H 	0.67510 0.24120 0.83640 0.30200
H 	H 	0.62120 0.27560 0.90330 0.30200
O 	O 	0.12378 0.70130 0.42070 -0.45300
N 	N 	0.99680 0.79760 0.59000 -0.23200
C 	C 	0.94710 0.82400 0.53790 0.07000
H 	H 	0.94110 0.81720 0.45810 -0.01800
C 	C 	0.90480 0.86050 0.59690 -0.13200
H 	H 	0.87060 0.87730 0.55790 0.06700
C 	C 	0.91410 0.87220 0.71620 0.04100
C 	C 	0.96540 0.84440 0.77120 -0.13200
H 	H 	0.97270 0.85030 0.85090 0.07100
C 	C 	0.00480 0.80800 0.70430 0.07400
H 	H 	0.03890 0.78980 0.74110 -0.01900
C 	C 	0.18380 0.70660 0.43140 0.40800
C 	C 	0.21870 0.65870 0.35820 -0.86500
H 	H 	0.19520 0.64940 0.28870 0.27300
H 	H 	0.25880 0.67510 0.33640 0.27400
H 	H 	0.22440 0.62120 0.40330 0.27000
O 	O 	0.37622 0.79870 0.42070 -0.45300
N 	N 	0.50320 0.70240 0.59000 -0.23400
C 	C 	0.55290 0.67600 0.53790 0.07100
H 	H 	0.55890 0.68280 0.45810 -0.01800
C 	C 	0.59520 0.63950 0.59690 -0.13300
H 	H 	0.62940 0.62270 0.55790 0.06800
C 	C 	0.58590 0.62780 0.71620 0.04200
C 	C 	0.53460 0.65560 0.77120 -0.13700
H 	H 	0.52730 0.64970 0.85090 0.07200
C 	C 	0.49520 0.69200 0.70430 0.07900
H 	H 	0.46110 0.71020 0.74110 -0.02100
C 	C 	0.31620 0.79340 0.43140 0.40800
C 	C 	0.28130 0.84130 0.35820 -0.86500
H 	H 	0.30480 0.85060 0.28870 0.27300
H 	H 	0.24120 0.82490 0.33640 0.27400
H 	H 	0.27560 0.87880 0.40330 0.27000
Cu	Cu	0.75000 0.06194 -0.00000 0.87300
C 	C 	0.75000 0.21460 -0.00000 -0.32300
Cu	Cu	0.75000 0.43806 -0.00000 0.87300
C 	C 	0.75000 0.28540 -0.00000 -0.32300
Cu	Cu	0.43806 0.75000 0.50000 0.88900
C 	C 	0.28540 0.75000 0.50000 -0.27900
Cu	Cu	0.06194 0.75000 0.50000 0.88800
C 	C 	0.21460 0.75000 0.50000 -0.27900
