data_crystal

_cell_length_a 10.04300
_cell_length_b 31.42900
_cell_length_c 11.82100
_cell_angle_alpha 90.00000
_cell_angle_beta  92.98000
_cell_angle_gamma 90.00000

_symmetry_space_group_name_	'P 1'
_symmetry_space_group_name_H-M	'P 1'

loop_
_symmetry_equiv_pos_as_xyz
  x,y,z

loop_
_atom_site_label
_atom_site_type_symbol
_atom_site_fract_x
_atom_site_fract_y
_atom_site_fract_z
_atom_site_charge
Cu	Cu	0.33025 0.87446 0.30486 0.89000
Cu	Cu	0.18025 0.12232 0.26130 0.89200
O 	O 	0.40400 0.91783 0.21210 -0.46500
O 	O 	0.27090 0.91500 0.41000 -0.46800
O 	O 	0.10140 0.07201 0.19700 -0.46500
O 	O 	0.31430 0.09264 0.34880 -0.45900
N 	N 	0.41510 0.82986 0.20740 -0.23100
N 	N 	0.73970 0.67104 0.89670 -0.23000
N 	N 	0.25530 0.17478 0.33710 -0.23100
N 	N 	0.57080 0.34065 0.65370 -0.23400
C 	C 	0.41700 0.98310 0.11720 -0.94500
H 	H 	0.48750 0.00140 0.14580 0.28400
H 	H 	0.34530 0.00010 0.08460 0.28600
H 	H 	0.45000 0.96460 0.06030 0.29500
C 	C 	0.36790 0.95730 0.21070 0.45100
C 	C 	0.29460 0.97630 0.29500 -0.29300
C 	C 	0.25240 0.95440 0.38830 0.42700
C 	C 	0.17550 0.97770 0.47660 -0.87800
H 	H 	0.08640 0.98320 0.44700 0.26300
H 	H 	0.21920 0.00410 0.49530 0.27000
H 	H 	0.17240 0.96040 0.54350 0.27500
C 	C 	0.05600 0.99930 0.16760 -0.85900
H 	H 	0.97520 0.01130 0.13420 0.26500
H 	H 	0.03460 0.97960 0.22590 0.26500
H 	H 	0.10300 0.98480 0.11050 0.26400
C 	C 	0.14220 0.03440 0.21800 0.41000
C 	C 	0.25990 0.02290 0.28230 -0.26300
C 	C 	0.34000 0.05310 0.33920 0.41500
C 	C 	0.47180 0.04090 0.39870 -0.88400
H 	H 	0.53470 0.06360 0.39130 0.28900
H 	H 	0.50520 0.01550 0.36500 0.26900
H 	H 	0.45890 0.03580 0.47750 0.27200
C 	C 	0.43000 0.83450 0.09790 0.07700
H 	H 	0.39670 0.85890 0.06260 -0.01300
C 	C 	0.49350 0.80440 0.03250 -0.13900
H 	H 	0.50180 0.80900 0.95550 0.06400
C 	C 	0.54400 0.76750 0.08310 0.04800
C 	C 	0.52800 0.76290 0.19890 -0.13200
H 	H 	0.55940 0.73860 0.23650 0.07500
C 	C 	0.46570 0.79440 0.25720 0.06800
H 	H 	0.45810 0.79100 0.33480 -0.00700
C 	C 	0.61200 0.73390 0.01850 0.05100
C 	C 	0.59160 0.73040 0.90390 -0.13700
H 	H 	0.53410 0.74920 0.86500 0.06800
C 	C 	0.65620 0.69930 0.84580 0.07100
H 	H 	0.64120 0.69770 0.76760 -0.01600
C 	C 	0.75720 0.67360 0.00800 0.07700
H 	H 	0.81230 0.65360 0.04500 -0.01500
C 	C 	0.69810 0.70440 0.07280 -0.14500
H 	H 	0.71520 0.70540 0.15090 0.06800
C 	C 	0.37750 0.18960 0.31120 0.07400
H 	H 	0.42390 0.17580 0.25590 -0.02100
C 	C 	0.43410 0.22460 0.36520 -0.13800
H 	H 	0.51500 0.23500 0.34210 0.06800
C 	C 	0.37330 0.24440 0.45250 0.05200
C 	C 	0.25120 0.22780 0.48230 -0.13900
H 	H 	0.20710 0.23920 0.54260 0.07300
C 	C 	0.19700 0.19390 0.41990 0.08600
H 	H 	0.11340 0.18410 0.43820 -0.02200
C 	C 	0.43830 0.27930 0.51810 0.05400
C 	C 	0.57520 0.28530 0.51580 -0.14500
H 	H 	0.62510 0.26900 0.46790 0.07900
C 	C 	0.63620 0.31530 0.58450 0.07900
H 	H 	0.72820 0.31830 0.58300 -0.02300
C 	C 	0.43610 0.33620 0.65230 0.07200
H 	H 	0.38770 0.35380 0.69830 -0.02000
C 	C 	0.36920 0.30670 0.58540 -0.14800
H 	H 	0.27670 0.30510 0.58520 0.07000
Cu	Cu	0.83025 0.62554 0.80486 0.89100
Cu	Cu	0.68025 0.37768 0.76130 0.89300
O 	O 	0.90400 0.58217 0.71210 -0.46500
O 	O 	0.77090 0.58500 0.91000 -0.46500
O 	O 	0.60140 0.42799 0.69700 -0.46600
O 	O 	0.81430 0.40736 0.84880 -0.45400
N 	N 	0.91510 0.67014 0.70740 -0.23100
N 	N 	0.23970 0.82896 0.39670 -0.23100
N 	N 	0.75530 0.32522 0.83710 -0.23100
N 	N 	0.07080 0.15935 0.15370 -0.22900
C 	C 	0.91700 0.51690 0.61720 -0.95600
H 	H 	0.98750 0.49860 0.64580 0.28900
H 	H 	0.84530 0.49990 0.58460 0.28900
H 	H 	0.95000 0.53540 0.56030 0.29700
C 	C 	0.86790 0.54270 0.71070 0.45500
C 	C 	0.79460 0.52370 0.79500 -0.29500
C 	C 	0.75240 0.54560 0.88830 0.42600
C 	C 	0.67550 0.52230 0.97660 -0.87100
H 	H 	0.58640 0.51680 0.94700 0.26100
H 	H 	0.71920 0.49590 0.99530 0.26900
H 	H 	0.67240 0.53960 0.04350 0.27200
C 	C 	0.55600 0.50070 0.66760 -0.88200
H 	H 	0.47520 0.48870 0.63420 0.27500
H 	H 	0.53460 0.52040 0.72590 0.27000
H 	H 	0.60300 0.51520 0.61050 0.26900
C 	C 	0.64220 0.46560 0.71800 0.41500
C 	C 	0.75990 0.47710 0.78230 -0.25900
C 	C 	0.84000 0.44690 0.83920 0.40300
C 	C 	0.97180 0.45910 0.89870 -0.84000
H 	H 	0.03470 0.43640 0.89130 0.27300
H 	H 	0.00520 0.48450 0.86500 0.25300
H 	H 	0.95890 0.46420 0.97750 0.26100
C 	C 	0.93000 0.66550 0.59790 0.08000
H 	H 	0.89670 0.64110 0.56260 -0.01500
C 	C 	0.99350 0.69560 0.53250 -0.14300
H 	H 	0.00180 0.69100 0.45550 0.06600
C 	C 	0.04400 0.73250 0.58310 0.05100
C 	C 	0.02800 0.73710 0.69890 -0.13700
H 	H 	0.05940 0.76140 0.73650 0.07600
C 	C 	0.96570 0.70560 0.75720 0.07200
H 	H 	0.95810 0.70900 0.83480 -0.00700
C 	C 	0.11200 0.76610 0.51850 0.05200
C 	C 	0.09160 0.76960 0.40390 -0.13900
H 	H 	0.03410 0.75080 0.36500 0.07000
C 	C 	0.15620 0.80070 0.34580 0.07200
H 	H 	0.14120 0.80230 0.26760 -0.01500
C 	C 	0.25720 0.82640 0.50800 0.08100
H 	H 	0.31230 0.84640 0.54500 -0.01500
C 	C 	0.19810 0.79560 0.57280 -0.14700
H 	H 	0.21520 0.79460 0.65090 0.06900
C 	C 	0.87750 0.31040 0.81120 0.07200
H 	H 	0.92390 0.32420 0.75590 -0.02000
C 	C 	0.93410 0.27540 0.86520 -0.13200
H 	H 	0.01500 0.26500 0.84210 0.06400
C 	C 	0.87330 0.25560 0.95250 0.05900
C 	C 	0.75120 0.27220 0.98230 -0.13700
H 	H 	0.70710 0.26080 0.04260 0.07200
C 	C 	0.69700 0.30610 0.91990 0.08500
H 	H 	0.61340 0.31590 0.93820 -0.02100
C 	C 	0.93830 0.22070 0.01810 0.03500
C 	C 	0.07520 0.21470 0.01580 -0.12000
H 	H 	0.12510 0.23100 0.96790 0.06800
C 	C 	0.13620 0.18470 0.08450 0.06800
H 	H 	0.22820 0.18170 0.08300 -0.01900
C 	C 	0.93610 0.16380 0.15230 0.06100
H 	H 	0.88770 0.14620 0.19830 -0.01700
C 	C 	0.86920 0.19330 0.08540 -0.13600
H 	H 	0.77670 0.19490 0.08520 0.06600
Cu	Cu	0.16975 0.37446 0.19514 0.89100
Cu	Cu	0.31975 0.62232 0.23870 0.89300
O 	O 	0.09600 0.41783 0.28790 -0.46500
O 	O 	0.22910 0.41500 0.09000 -0.46500
O 	O 	0.39860 0.57201 0.30300 -0.46600
O 	O 	0.18570 0.59264 0.15120 -0.45400
N 	N 	0.08490 0.32986 0.29260 -0.23100
N 	N 	0.76030 0.17104 0.60330 -0.23100
N 	N 	0.24470 0.67478 0.16290 -0.23100
N 	N 	0.92920 0.84065 0.84630 -0.22900
C 	C 	0.08300 0.48310 0.38280 -0.95600
H 	H 	0.01250 0.50140 0.35420 0.28900
H 	H 	0.15470 0.50010 0.41540 0.28900
H 	H 	0.05000 0.46460 0.43970 0.29700
C 	C 	0.13210 0.45730 0.28930 0.45500
C 	C 	0.20540 0.47630 0.20500 -0.29500
C 	C 	0.24760 0.45440 0.11170 0.42600
C 	C 	0.32450 0.47770 0.02340 -0.87100
H 	H 	0.41360 0.48320 0.05300 0.26100
H 	H 	0.28080 0.50410 0.00470 0.26900
H 	H 	0.32760 0.46040 0.95650 0.27200
C 	C 	0.44400 0.49930 0.33240 -0.88200
H 	H 	0.52480 0.51130 0.36580 0.27500
H 	H 	0.46540 0.47960 0.27410 0.27000
H 	H 	0.39700 0.48480 0.38950 0.26900
C 	C 	0.35780 0.53440 0.28200 0.41500
C 	C 	0.24010 0.52290 0.21770 -0.25900
C 	C 	0.16000 0.55310 0.16080 0.40300
C 	C 	0.02820 0.54090 0.10130 -0.84000
H 	H 	0.96530 0.56360 0.10870 0.27300
H 	H 	0.99480 0.51550 0.13500 0.25300
H 	H 	0.04110 0.53580 0.02250 0.26100
C 	C 	0.07000 0.33450 0.40210 0.08000
H 	H 	0.10330 0.35890 0.43740 -0.01500
C 	C 	0.00650 0.30440 0.46750 -0.14300
H 	H 	0.99820 0.30900 0.54450 0.06600
C 	C 	0.95600 0.26750 0.41690 0.05100
C 	C 	0.97200 0.26290 0.30110 -0.13700
H 	H 	0.94060 0.23860 0.26350 0.07600
C 	C 	0.03430 0.29440 0.24280 0.07200
H 	H 	0.04190 0.29100 0.16520 -0.00700
C 	C 	0.88800 0.23390 0.48150 0.05200
C 	C 	0.90840 0.23040 0.59610 -0.13900
H 	H 	0.96590 0.24920 0.63500 0.07000
C 	C 	0.84380 0.19930 0.65420 0.07200
H 	H 	0.85880 0.19770 0.73240 -0.01500
C 	C 	0.74280 0.17360 0.49200 0.08100
H 	H 	0.68770 0.15360 0.45500 -0.01500
C 	C 	0.80190 0.20440 0.42720 -0.14700
H 	H 	0.78480 0.20540 0.34910 0.06900
C 	C 	0.12250 0.68960 0.18880 0.07200
H 	H 	0.07610 0.67580 0.24410 -0.02000
C 	C 	0.06590 0.72460 0.13480 -0.13200
H 	H 	0.98500 0.73500 0.15790 0.06400
C 	C 	0.12670 0.74440 0.04750 0.05900
C 	C 	0.24880 0.72780 0.01770 -0.13700
H 	H 	0.29290 0.73920 0.95740 0.07200
C 	C 	0.30300 0.69390 0.08010 0.08500
H 	H 	0.38660 0.68410 0.06180 -0.02100
C 	C 	0.06170 0.77930 0.98190 0.03500
C 	C 	0.92480 0.78530 0.98420 -0.12000
H 	H 	0.87490 0.76900 0.03210 0.06800
C 	C 	0.86380 0.81530 0.91550 0.06800
H 	H 	0.77180 0.81830 0.91700 -0.01900
C 	C 	0.06390 0.83620 0.84770 0.06100
H 	H 	0.11230 0.85380 0.80170 -0.01700
C 	C 	0.13080 0.80670 0.91460 -0.13600
H 	H 	0.22330 0.80510 0.91480 0.06600
Cu	Cu	0.66975 0.12554 0.69514 0.89100
Cu	Cu	0.81975 0.87768 0.73870 0.89300
O 	O 	0.59600 0.08217 0.78790 -0.46400
O 	O 	0.72910 0.08500 0.59000 -0.46700
O 	O 	0.89860 0.92799 0.80300 -0.46400
O 	O 	0.68570 0.90736 0.65120 -0.45800
N 	N 	0.58490 0.17014 0.79260 -0.23000
N 	N 	0.26030 0.32896 0.10330 -0.22900
N 	N 	0.74470 0.82522 0.66290 -0.23100
N 	N 	0.42920 0.65935 0.34630 -0.23400
C 	C 	0.58300 0.01690 0.88280 -0.94500
H 	H 	0.51250 0.99860 0.85420 0.28400
H 	H 	0.65470 0.99990 0.91540 0.28600
H 	H 	0.55000 0.03540 0.93970 0.29500
C 	C 	0.63210 0.04270 0.78930 0.45100
C 	C 	0.70540 0.02370 0.70500 -0.29300
C 	C 	0.74760 0.04560 0.61170 0.42700
C 	C 	0.82450 0.02230 0.52340 -0.87800
H 	H 	0.91360 0.01680 0.55300 0.26300
H 	H 	0.78080 0.99590 0.50470 0.27000
H 	H 	0.82760 0.03960 0.45650 0.27500
C 	C 	0.94400 0.00070 0.83240 -0.85900
H 	H 	0.02480 0.98870 0.86580 0.26500
H 	H 	0.96540 0.02040 0.77410 0.26500
H 	H 	0.89700 0.01520 0.88950 0.26400
C 	C 	0.85780 0.96560 0.78200 0.41000
C 	C 	0.74010 0.97710 0.71770 -0.26300
C 	C 	0.66000 0.94690 0.66080 0.41500
C 	C 	0.52820 0.95910 0.60130 -0.88400
H 	H 	0.46530 0.93640 0.60870 0.28900
H 	H 	0.49480 0.98450 0.63500 0.26900
H 	H 	0.54110 0.96420 0.52250 0.27200
C 	C 	0.57000 0.16550 0.90210 0.07700
H 	H 	0.60330 0.14110 0.93740 -0.01300
C 	C 	0.50650 0.19560 0.96750 -0.13900
H 	H 	0.49820 0.19100 0.04450 0.06400
C 	C 	0.45600 0.23250 0.91690 0.04800
C 	C 	0.47200 0.23710 0.80110 -0.13200
H 	H 	0.44060 0.26140 0.76350 0.07500
C 	C 	0.53430 0.20560 0.74280 0.06800
H 	H 	0.54190 0.20900 0.66520 -0.00700
C 	C 	0.38800 0.26610 0.98150 0.05100
C 	C 	0.40840 0.26960 0.09610 -0.13700
H 	H 	0.46590 0.25080 0.13500 0.06800
C 	C 	0.34380 0.30070 0.15420 0.07100
H 	H 	0.35880 0.30230 0.23240 -0.01600
C 	C 	0.24280 0.32640 0.99200 0.07700
H 	H 	0.18770 0.34640 0.95500 -0.01500
C 	C 	0.30190 0.29560 0.92720 -0.14500
H 	H 	0.28480 0.29460 0.84910 0.06800
C 	C 	0.62250 0.81040 0.68880 0.07400
H 	H 	0.57610 0.82420 0.74410 -0.02100
C 	C 	0.56590 0.77540 0.63480 -0.13800
H 	H 	0.48500 0.76500 0.65790 0.06800
C 	C 	0.62670 0.75560 0.54750 0.05200
C 	C 	0.74880 0.77220 0.51770 -0.13900
H 	H 	0.79290 0.76080 0.45740 0.07300
C 	C 	0.80300 0.80610 0.58010 0.08600
H 	H 	0.88660 0.81590 0.56180 -0.02200
C 	C 	0.56170 0.72070 0.48190 0.05400
C 	C 	0.42480 0.71470 0.48420 -0.14500
H 	H 	0.37490 0.73100 0.53210 0.07900
C 	C 	0.36380 0.68470 0.41550 0.07900
H 	H 	0.27180 0.68170 0.41700 -0.02300
C 	C 	0.56390 0.66380 0.34770 0.07200
H 	H 	0.61230 0.64620 0.30170 -0.02000
C 	C 	0.63080 0.69330 0.41460 -0.14800
H 	H 	0.72330 0.69490 0.41480 0.07000
