data_crystal

_cell_length_a 16.05030
_cell_length_b 16.05030
_cell_length_c 36.84300
_cell_angle_alpha 90.00000
_cell_angle_beta  90.00000
_cell_angle_gamma 120.00000

_symmetry_space_group_name_	'P 1'
_symmetry_space_group_name_H-M	'P 1'

loop_
_symmetry_equiv_pos_as_xyz
  x,y,z

loop_
_atom_site_label
_atom_site_type_symbol
_atom_site_fract_x
_atom_site_fract_y
_atom_site_fract_z
_atom_site_charge
O 	O 	0.82060 0.85150 0.11140 -0.48300
O 	O 	0.20370 0.16200 0.10880 -0.48800
N 	N 	0.39790 0.25620 0.11410 -0.22000
C 	C 	0.39220 0.25090 0.15170 0.05900
H 	H 	0.34170 0.19770 0.16290 -0.01800
C 	C 	0.46200 0.32520 0.17260 -0.12100
H 	H 	0.45820 0.32160 0.19780 0.06300
C 	C 	0.53750 0.40470 0.15590 0.04800
C 	C 	0.54320 0.41000 0.11820 -0.11900
H 	H 	0.59370 0.46320 0.10700 0.06200
C 	C 	0.47340 0.33570 0.09730 0.04700
H 	H 	0.47720 0.33930 0.07210 -0.01200
N 	N 	0.75570 0.62740 0.21950 -0.22000
C 	C 	0.76290 0.63440 0.18190 0.05200
H 	H 	0.81520 0.68690 0.17110 -0.00700
C 	C 	0.69190 0.56310 0.16040 -0.11500
H 	H 	0.69670 0.56780 0.13520 0.06100
C 	C 	0.61360 0.48470 0.17650 0.04500
C 	C 	0.60640 0.47760 0.21410 -0.11600
H 	H 	0.55410 0.42520 0.22490 0.06100
C 	C 	0.67750 0.54900 0.23560 0.04600
H 	H 	0.67260 0.54420 0.26070 -0.01200
C 	C 	0.96620 0.86440 0.12810 -1.01400
H 	H 	0.95200 0.86650 0.15330 0.31900
H 	H 	0.03360 0.90670 0.12390 0.31300
H 	H 	0.94930 0.79990 0.12160 0.31400
C 	C 	0.91010 0.89530 0.10570 0.49400
C 	C 	0.11240 0.11530 0.10390 0.50100
C 	C 	0.05880 0.14910 0.12770 -0.99300
H 	H 	0.00060 0.09450 0.13630 0.30400
H 	H 	0.04330 0.19040 0.11390 0.30000
H 	H 	0.09840 0.18400 0.14800 0.32400
O 	O 	0.14850 0.96910 0.44473 -0.48400
O 	O 	0.83800 0.04170 0.44213 -0.49000
N 	N 	0.74380 0.14170 0.44743 -0.22100
C 	C 	0.74910 0.14130 0.48503 0.05800
H 	H 	0.80230 0.14400 0.49623 -0.01900
C 	C 	0.67480 0.13680 0.50593 -0.12200
H 	H 	0.67840 0.13660 0.53113 0.06200
C 	C 	0.59530 0.13280 0.48923 0.04700
C 	C 	0.59000 0.13320 0.45153 -0.12000
H 	H 	0.53680 0.13050 0.44033 0.06100
C 	C 	0.66430 0.13770 0.43063 0.04600
H 	H 	0.66070 0.13790 0.40543 -0.01300
N 	N 	0.37260 0.12830 0.55283 -0.22100
C 	C 	0.36560 0.12850 0.51523 0.05100
H 	H 	0.31310 0.12830 0.50443 -0.00800
C 	C 	0.43690 0.12880 0.49373 -0.11600
H 	H 	0.43220 0.12890 0.46853 0.06000
C 	C 	0.51530 0.12890 0.50983 0.04400
C 	C 	0.52240 0.12880 0.54743 -0.11700
H 	H 	0.57480 0.12890 0.55823 0.06000
C 	C 	0.45100 0.12850 0.56893 0.04500
H 	H 	0.45580 0.12840 0.59403 -0.01200
C 	C 	0.13560 0.10180 0.46143 -1.02100
H 	H 	0.13350 0.08550 0.48663 0.32000
H 	H 	0.09330 0.12690 0.45723 0.31500
H 	H 	0.20010 0.14940 0.45493 0.31400
C 	C 	0.10470 0.01480 0.43903 0.49400
C 	C 	0.88470 0.99710 0.43723 0.50400
C 	C 	0.85090 0.90970 0.46103 -0.99700
H 	H 	0.90550 0.90610 0.46963 0.30600
H 	H 	0.80960 0.85290 0.44723 0.30200
H 	H 	0.81600 0.91440 0.48133 0.32500
O 	O 	0.03090 0.17940 0.77807 -0.48400
O 	O 	0.95830 0.79630 0.77547 -0.48900
N 	N 	0.85830 0.60210 0.78077 -0.22100
C 	C 	0.85870 0.60780 0.81837 0.05800
H 	H 	0.85600 0.65830 0.82957 -0.01900
C 	C 	0.86320 0.53800 0.83927 -0.12200
H 	H 	0.86340 0.54180 0.86447 0.06200
C 	C 	0.86720 0.46250 0.82257 0.04700
C 	C 	0.86680 0.45680 0.78487 -0.12000
H 	H 	0.86950 0.40630 0.77367 0.06100
C 	C 	0.86230 0.52660 0.76397 0.04600
H 	H 	0.86210 0.52280 0.73877 -0.01300
N 	N 	0.87170 0.24430 0.88617 -0.22100
C 	C 	0.87150 0.23710 0.84857 0.05100
H 	H 	0.87170 0.18480 0.83777 -0.00800
C 	C 	0.87120 0.30810 0.82707 -0.11600
H 	H 	0.87110 0.30330 0.80187 0.06000
C 	C 	0.87110 0.38640 0.84317 0.04400
C 	C 	0.87120 0.39360 0.88077 -0.11700
H 	H 	0.87110 0.44590 0.89157 0.06000
C 	C 	0.87150 0.32250 0.90227 0.04500
H 	H 	0.87160 0.32740 0.92737 -0.01300
C 	C 	0.89820 0.03380 0.79477 -1.01300
H 	H 	0.91450 0.04800 0.81997 0.31700
H 	H 	0.87310 0.96640 0.79057 0.31100
H 	H 	0.85060 0.05070 0.78827 0.31200
C 	C 	0.98520 0.08990 0.77237 0.49100
C 	C 	0.00290 0.88760 0.77057 0.50300
C 	C 	0.09030 0.94120 0.79437 -0.99400
H 	H 	0.09390 0.99940 0.80297 0.30500
H 	H 	0.14710 0.95670 0.78057 0.30100
H 	H 	0.08560 0.90160 0.81467 0.32400
O 	O 	0.17940 0.14850 0.61140 -0.48500
O 	O 	0.79630 0.83800 0.60880 -0.48900
N 	N 	0.60210 0.74380 0.61410 -0.22100
C 	C 	0.60780 0.74910 0.65170 0.05800
H 	H 	0.65830 0.80230 0.66290 -0.01900
C 	C 	0.53800 0.67480 0.67260 -0.12200
H 	H 	0.54180 0.67840 0.69780 0.06200
C 	C 	0.46250 0.59530 0.65590 0.04700
C 	C 	0.45680 0.59000 0.61820 -0.12000
H 	H 	0.40630 0.53680 0.60700 0.06100
C 	C 	0.52660 0.66430 0.59730 0.04600
H 	H 	0.52280 0.66070 0.57210 -0.01300
N 	N 	0.24430 0.37260 0.71950 -0.22100
C 	C 	0.23710 0.36560 0.68190 0.05100
H 	H 	0.18480 0.31310 0.67110 -0.00800
C 	C 	0.30810 0.43690 0.66040 -0.11600
H 	H 	0.30330 0.43220 0.63520 0.06000
C 	C 	0.38640 0.51530 0.67650 0.04400
C 	C 	0.39360 0.52240 0.71410 -0.11700
H 	H 	0.44590 0.57480 0.72490 0.06000
C 	C 	0.32250 0.45100 0.73560 0.04500
H 	H 	0.32740 0.45580 0.76070 -0.01300
C 	C 	0.03380 0.13560 0.62810 -1.01600
H 	H 	0.04800 0.13350 0.65330 0.31800
H 	H 	0.96640 0.09330 0.62390 0.31200
H 	H 	0.05070 0.20010 0.62160 0.31300
C 	C 	0.08990 0.10470 0.60570 0.49300
C 	C 	0.88760 0.88470 0.60390 0.50100
C 	C 	0.94120 0.85090 0.62770 -0.99200
H 	H 	0.99940 0.90550 0.63630 0.30400
H 	H 	0.95670 0.80960 0.61390 0.30000
H 	H 	0.90160 0.81600 0.64800 0.32400
O 	O 	0.85150 0.03090 0.94473 -0.48400
O 	O 	0.16200 0.95830 0.94213 -0.49000
N 	N 	0.25620 0.85830 0.94743 -0.22100
C 	C 	0.25090 0.85870 0.98503 0.05700
H 	H 	0.19770 0.85600 0.99623 -0.01900
C 	C 	0.32520 0.86320 0.00593 -0.12100
H 	H 	0.32160 0.86340 0.03113 0.06200
C 	C 	0.40470 0.86720 0.98923 0.04600
C 	C 	0.41000 0.86680 0.95153 -0.11900
H 	H 	0.46320 0.86950 0.94033 0.06100
C 	C 	0.33570 0.86230 0.93063 0.04600
H 	H 	0.33930 0.86210 0.90543 -0.01300
N 	N 	0.62740 0.87170 0.05283 -0.22100
C 	C 	0.63440 0.87150 0.01523 0.05200
H 	H 	0.68690 0.87170 0.00443 -0.00800
C 	C 	0.56310 0.87120 0.99373 -0.11700
H 	H 	0.56780 0.87110 0.96853 0.06100
C 	C 	0.48470 0.87110 0.00983 0.04500
C 	C 	0.47760 0.87120 0.04743 -0.11800
H 	H 	0.42520 0.87110 0.05823 0.06100
C 	C 	0.54900 0.87150 0.06893 0.04600
H 	H 	0.54420 0.87160 0.09403 -0.01300
C 	C 	0.86440 0.89820 0.96143 -1.02100
H 	H 	0.86650 0.91450 0.98663 0.32000
H 	H 	0.90670 0.87310 0.95723 0.31500
H 	H 	0.79990 0.85060 0.95493 0.31400
C 	C 	0.89530 0.98520 0.93903 0.49300
C 	C 	0.11530 0.00290 0.93723 0.50400
C 	C 	0.14910 0.09030 0.96103 -0.99700
H 	H 	0.09450 0.09390 0.96963 0.30600
H 	H 	0.19040 0.14710 0.94723 0.30200
H 	H 	0.18400 0.08560 0.98133 0.32500
O 	O 	0.96910 0.82060 0.27807 -0.48400
O 	O 	0.04170 0.20370 0.27547 -0.48900
N 	N 	0.14170 0.39790 0.28077 -0.22100
C 	C 	0.14130 0.39220 0.31837 0.05800
H 	H 	0.14400 0.34170 0.32957 -0.01900
C 	C 	0.13680 0.46200 0.33927 -0.12200
H 	H 	0.13660 0.45820 0.36447 0.06200
C 	C 	0.13280 0.53750 0.32257 0.04700
C 	C 	0.13320 0.54320 0.28487 -0.12000
H 	H 	0.13050 0.59370 0.27367 0.06100
C 	C 	0.13770 0.47340 0.26397 0.04600
H 	H 	0.13790 0.47720 0.23877 -0.01300
N 	N 	0.12830 0.75570 0.38617 -0.22100
C 	C 	0.12850 0.76290 0.34857 0.05100
H 	H 	0.12830 0.81520 0.33777 -0.00800
C 	C 	0.12880 0.69190 0.32707 -0.11600
H 	H 	0.12890 0.69670 0.30187 0.06000
C 	C 	0.12890 0.61360 0.34317 0.04400
C 	C 	0.12880 0.60640 0.38077 -0.11700
H 	H 	0.12890 0.55410 0.39157 0.06100
C 	C 	0.12850 0.67750 0.40227 0.04500
H 	H 	0.12840 0.67260 0.42737 -0.01200
C 	C 	0.10180 0.96620 0.29477 -1.01300
H 	H 	0.08550 0.95200 0.31997 0.31700
H 	H 	0.12690 0.03360 0.29057 0.31100
H 	H 	0.14940 0.94930 0.28827 0.31200
C 	C 	0.01480 0.91010 0.27237 0.49100
C 	C 	0.99710 0.11240 0.27057 0.50300
C 	C 	0.90970 0.05880 0.29437 -0.99400
H 	H 	0.90610 0.00060 0.30297 0.30500
H 	H 	0.85290 0.04330 0.28057 0.30100
H 	H 	0.91440 0.09840 0.31467 0.32400
O 	O 	0.85150 0.82060 0.22193 -0.48500
O 	O 	0.16200 0.20370 0.22453 -0.48900
N 	N 	0.25620 0.39790 0.21923 -0.22100
C 	C 	0.25090 0.39220 0.18163 0.05800
H 	H 	0.19770 0.34170 0.17043 -0.01900
C 	C 	0.32520 0.46200 0.16073 -0.12200
H 	H 	0.32160 0.45820 0.13553 0.06200
C 	C 	0.40470 0.53750 0.17743 0.04700
C 	C 	0.41000 0.54320 0.21513 -0.12000
H 	H 	0.46320 0.59370 0.22633 0.06100
C 	C 	0.33570 0.47340 0.23603 0.04600
H 	H 	0.33930 0.47720 0.26123 -0.01300
N 	N 	0.62740 0.75570 0.11383 -0.22100
C 	C 	0.63440 0.76290 0.15143 0.05100
H 	H 	0.68690 0.81520 0.16223 -0.00800
C 	C 	0.56310 0.69190 0.17293 -0.11600
H 	H 	0.56780 0.69670 0.19813 0.06000
C 	C 	0.48470 0.61360 0.15683 0.04400
C 	C 	0.47760 0.60640 0.11923 -0.11700
H 	H 	0.42520 0.55410 0.10843 0.06000
C 	C 	0.54900 0.67750 0.09773 0.04500
H 	H 	0.54420 0.67260 0.07263 -0.01300
C 	C 	0.86440 0.96620 0.20523 -1.01500
H 	H 	0.86650 0.95200 0.18003 0.31800
H 	H 	0.90670 0.03360 0.20943 0.31200
H 	H 	0.79990 0.94930 0.21173 0.31300
C 	C 	0.89530 0.91010 0.22763 0.49300
C 	C 	0.11530 0.11240 0.22943 0.50100
C 	C 	0.14910 0.05880 0.20563 -0.99200
H 	H 	0.09450 0.00060 0.19703 0.30400
H 	H 	0.19040 0.04330 0.21943 0.30000
H 	H 	0.18400 0.09840 0.18533 0.32400
O 	O 	0.96910 0.14850 0.88860 -0.48500
O 	O 	0.04170 0.83800 0.89120 -0.49000
N 	N 	0.14170 0.74380 0.88590 -0.22100
C 	C 	0.14130 0.74910 0.84830 0.05800
H 	H 	0.14400 0.80230 0.83710 -0.01900
C 	C 	0.13680 0.67480 0.82740 -0.12200
H 	H 	0.13660 0.67840 0.80220 0.06200
C 	C 	0.13280 0.59530 0.84410 0.04700
C 	C 	0.13320 0.59000 0.88180 -0.12000
H 	H 	0.13050 0.53680 0.89300 0.06100
C 	C 	0.13770 0.66430 0.90270 0.04600
H 	H 	0.13790 0.66070 0.92790 -0.01300
N 	N 	0.12830 0.37260 0.78050 -0.22100
C 	C 	0.12850 0.36560 0.81810 0.05100
H 	H 	0.12830 0.31310 0.82890 -0.00800
C 	C 	0.12880 0.43690 0.83960 -0.11600
H 	H 	0.12890 0.43220 0.86480 0.06000
C 	C 	0.12890 0.51530 0.82350 0.04400
C 	C 	0.12880 0.52240 0.78590 -0.11700
H 	H 	0.12890 0.57480 0.77510 0.06000
C 	C 	0.12850 0.45100 0.76440 0.04500
H 	H 	0.12840 0.45580 0.73930 -0.01200
C 	C 	0.10180 0.13560 0.87190 -1.02200
H 	H 	0.08550 0.13350 0.84670 0.32000
H 	H 	0.12690 0.09330 0.87610 0.31500
H 	H 	0.14940 0.20010 0.87840 0.31400
C 	C 	0.01480 0.10470 0.89430 0.49400
C 	C 	0.99710 0.88470 0.89610 0.50400
C 	C 	0.90970 0.85090 0.87230 -0.99600
H 	H 	0.90610 0.90550 0.86370 0.30600
H 	H 	0.85290 0.80960 0.88610 0.30200
H 	H 	0.91440 0.81600 0.85200 0.32500
O 	O 	0.17940 0.03090 0.55527 -0.48400
O 	O 	0.79630 0.95830 0.55787 -0.48900
N 	N 	0.60210 0.85830 0.55257 -0.22100
C 	C 	0.60780 0.85870 0.51497 0.05800
H 	H 	0.65830 0.85600 0.50377 -0.01900
C 	C 	0.53800 0.86320 0.49407 -0.12200
H 	H 	0.54180 0.86340 0.46887 0.06200
C 	C 	0.46250 0.86720 0.51077 0.04700
C 	C 	0.45680 0.86680 0.54847 -0.12000
H 	H 	0.40630 0.86950 0.55967 0.06100
C 	C 	0.52660 0.86230 0.56937 0.04600
H 	H 	0.52280 0.86210 0.59457 -0.01300
N 	N 	0.24430 0.87170 0.44717 -0.22100
C 	C 	0.23710 0.87150 0.48477 0.05100
H 	H 	0.18480 0.87170 0.49557 -0.00800
C 	C 	0.30810 0.87120 0.50627 -0.11600
H 	H 	0.30330 0.87110 0.53147 0.06000
C 	C 	0.38640 0.87110 0.49017 0.04400
C 	C 	0.39360 0.87120 0.45257 -0.11700
H 	H 	0.44590 0.87110 0.44177 0.06100
C 	C 	0.32250 0.87150 0.43107 0.04500
H 	H 	0.32740 0.87160 0.40597 -0.01200
C 	C 	0.03380 0.89820 0.53857 -1.01400
H 	H 	0.04800 0.91450 0.51337 0.31800
H 	H 	0.96640 0.87310 0.54277 0.31100
H 	H 	0.05070 0.85060 0.54507 0.31200
C 	C 	0.08990 0.98520 0.56097 0.49200
C 	C 	0.88760 0.00290 0.56277 0.50300
C 	C 	0.94120 0.09030 0.53897 -0.99400
H 	H 	0.99940 0.09390 0.53037 0.30500
H 	H 	0.95670 0.14710 0.55277 0.30100
H 	H 	0.90160 0.08560 0.51867 0.32400
O 	O 	0.14850 0.17940 0.72193 -0.48500
O 	O 	0.83800 0.79630 0.72453 -0.48900
N 	N 	0.74380 0.60210 0.71923 -0.22100
C 	C 	0.74910 0.60780 0.68163 0.05800
H 	H 	0.80230 0.65830 0.67043 -0.01900
C 	C 	0.67480 0.53800 0.66073 -0.12200
H 	H 	0.67840 0.54180 0.63553 0.06200
C 	C 	0.59530 0.46250 0.67743 0.04700
C 	C 	0.59000 0.45680 0.71513 -0.12000
H 	H 	0.53680 0.40630 0.72633 0.06100
C 	C 	0.66430 0.52660 0.73603 0.04600
H 	H 	0.66070 0.52280 0.76123 -0.01300
N 	N 	0.37260 0.24430 0.61383 -0.22100
C 	C 	0.36560 0.23710 0.65143 0.05100
H 	H 	0.31310 0.18480 0.66223 -0.00800
C 	C 	0.43690 0.30810 0.67293 -0.11600
H 	H 	0.43220 0.30330 0.69813 0.06000
C 	C 	0.51530 0.38640 0.65683 0.04400
C 	C 	0.52240 0.39360 0.61923 -0.11700
H 	H 	0.57480 0.44590 0.60843 0.06000
C 	C 	0.45100 0.32250 0.59773 0.04500
H 	H 	0.45580 0.32740 0.57263 -0.01300
C 	C 	0.13560 0.03380 0.70523 -1.01500
H 	H 	0.13350 0.04800 0.68003 0.31800
H 	H 	0.09330 0.96640 0.70943 0.31200
H 	H 	0.20010 0.05070 0.71173 0.31300
C 	C 	0.10470 0.08990 0.72763 0.49300
C 	C 	0.88470 0.88760 0.72943 0.50100
C 	C 	0.85090 0.94120 0.70563 -0.99300
H 	H 	0.90550 0.99940 0.69703 0.30400
H 	H 	0.80960 0.95670 0.71943 0.30000
H 	H 	0.81600 0.90160 0.68533 0.32400
O 	O 	0.03090 0.85150 0.38860 -0.48400
O 	O 	0.95830 0.16200 0.39120 -0.49000
N 	N 	0.85830 0.25620 0.38590 -0.22100
C 	C 	0.85870 0.25090 0.34830 0.05800
H 	H 	0.85600 0.19770 0.33710 -0.01900
C 	C 	0.86320 0.32520 0.32740 -0.12200
H 	H 	0.86340 0.32160 0.30220 0.06200
C 	C 	0.86720 0.40470 0.34410 0.04700
C 	C 	0.86680 0.41000 0.38180 -0.12000
H 	H 	0.86950 0.46320 0.39300 0.06100
C 	C 	0.86230 0.33570 0.40270 0.04600
H 	H 	0.86210 0.33930 0.42790 -0.01300
N 	N 	0.87170 0.62740 0.28050 -0.22100
C 	C 	0.87150 0.63440 0.31810 0.05100
H 	H 	0.87170 0.68690 0.32890 -0.00800
C 	C 	0.87120 0.56310 0.33960 -0.11600
H 	H 	0.87110 0.56780 0.36480 0.06000
C 	C 	0.87110 0.48470 0.32350 0.04400
C 	C 	0.87120 0.47760 0.28590 -0.11700
H 	H 	0.87110 0.42520 0.27510 0.06000
C 	C 	0.87150 0.54900 0.26440 0.04500
H 	H 	0.87160 0.54420 0.23930 -0.01200
C 	C 	0.89820 0.86440 0.37190 -1.02100
H 	H 	0.91450 0.86650 0.34670 0.32000
H 	H 	0.87310 0.90670 0.37610 0.31500
H 	H 	0.85060 0.79990 0.37840 0.31400
C 	C 	0.98520 0.89530 0.39430 0.49400
C 	C 	0.00290 0.11530 0.39610 0.50400
C 	C 	0.09030 0.14910 0.37230 -0.99600
H 	H 	0.09390 0.09450 0.36370 0.30600
H 	H 	0.14710 0.19040 0.38610 0.30200
H 	H 	0.08560 0.18400 0.35200 0.32500
O 	O 	0.82060 0.96910 0.05527 -0.48400
O 	O 	0.20370 0.04170 0.05787 -0.48900
N 	N 	0.39790 0.14170 0.05257 -0.22100
C 	C 	0.39220 0.14130 0.01497 0.05800
H 	H 	0.34170 0.14400 0.00377 -0.01900
C 	C 	0.46200 0.13680 0.99407 -0.12200
H 	H 	0.45820 0.13660 0.96887 0.06300
C 	C 	0.53750 0.13280 0.01077 0.04800
C 	C 	0.54320 0.13320 0.04847 -0.12000
H 	H 	0.59370 0.13050 0.05967 0.06100
C 	C 	0.47340 0.13770 0.06937 0.04600
H 	H 	0.47720 0.13790 0.09457 -0.01300
N 	N 	0.75570 0.12830 0.94717 -0.22100
C 	C 	0.76290 0.12850 0.98477 0.05100
H 	H 	0.81520 0.12830 0.99557 -0.00800
C 	C 	0.69190 0.12880 0.00627 -0.11500
H 	H 	0.69670 0.12890 0.03147 0.06000
C 	C 	0.61360 0.12890 0.99017 0.04400
C 	C 	0.60640 0.12880 0.95257 -0.11700
H 	H 	0.55410 0.12890 0.94177 0.06000
C 	C 	0.67750 0.12850 0.93107 0.04500
H 	H 	0.67260 0.12840 0.90597 -0.01200
C 	C 	0.96620 0.10180 0.03857 -1.01300
H 	H 	0.95200 0.08550 0.01337 0.31700
H 	H 	0.03360 0.12690 0.04277 0.31100
H 	H 	0.94930 0.14940 0.04507 0.31200
C 	C 	0.91010 0.01480 0.06097 0.49100
C 	C 	0.11240 0.99710 0.06277 0.50300
C 	C 	0.05880 0.90970 0.03897 -0.99400
H 	H 	0.00060 0.90610 0.03037 0.30500
H 	H 	0.04330 0.85290 0.05277 0.30100
H 	H 	0.09840 0.91440 0.01867 0.32500
Cu	Cu	0.29777 0.14889 0.08333 0.89500
Cu	Cu	0.72617 0.86309 0.08333 0.88900
C 	C 	0.95480 0.97740 0.08333 -0.31400
C 	C 	0.06960 0.03480 0.08333 -0.37500
Cu	Cu	0.85111 0.14889 0.41667 0.89500
Cu	Cu	0.13691 0.86308 0.41667 0.88900
C 	C 	0.02260 0.97740 0.41667 -0.31500
C 	C 	0.96520 0.03480 0.41667 -0.37600
Cu	Cu	0.85111 0.70223 0.75000 0.89500
Cu	Cu	0.13692 0.27383 0.75000 0.88900
C 	C 	0.02260 0.04520 0.75000 -0.31400
C 	C 	0.96520 0.93040 0.75000 -0.37500
Cu	Cu	0.70223 0.85111 0.58333 0.89500
Cu	Cu	0.27383 0.13691 0.58333 0.88900
C 	C 	0.04520 0.02260 0.58333 -0.31400
C 	C 	0.93040 0.96520 0.58333 -0.37400
Cu	Cu	0.14889 0.85111 0.91667 0.89500
Cu	Cu	0.86309 0.13692 0.91667 0.88900
C 	C 	0.97740 0.02260 0.91667 -0.31500
C 	C 	0.03480 0.96520 0.91667 -0.37600
Cu	Cu	0.14889 0.29777 0.25000 0.89500
Cu	Cu	0.86309 0.72617 0.25000 0.88900
C 	C 	0.97740 0.95480 0.25000 -0.31400
C 	C 	0.03480 0.06960 0.25000 -0.37400
