data_crystal

_cell_length_a 8.80300
_cell_length_b 8.80300
_cell_length_c 25.29200
_cell_angle_alpha 90.00000
_cell_angle_beta  90.00000
_cell_angle_gamma 120.00000

_symmetry_space_group_name_	'P 1'
_symmetry_space_group_name_H-M	'P 1'

loop_
_symmetry_equiv_pos_as_xyz
  x,y,z

loop_
_atom_site_label
_atom_site_type_symbol
_atom_site_fract_x
_atom_site_fract_y
_atom_site_fract_z
_atom_site_charge
P 	P 	0.04553 0.48920 0.07029 0.38100
H 	H 	0.05500 0.62600 0.06860 -0.05000
O 	O 	0.13220 0.48960 0.12272 -0.36300
O 	O 	0.85520 0.33880 0.06944 -0.27300
O 	O 	0.14730 0.47950 0.02279 -0.39600
P 	P 	0.71220 0.82253 0.40362 0.45500
H 	H 	0.72167 0.95933 0.40193 0.00600
O 	O 	0.79887 0.82293 0.45605 -0.25900
O 	O 	0.52187 0.67213 0.40277 -0.32400
O 	O 	0.81397 0.81283 0.35612 -0.28500
P 	P 	0.37886 0.15587 0.73696 0.46500
H 	H 	0.38833 0.29267 0.73527 -0.05600
O 	O 	0.46553 0.15627 0.78939 -0.37200
O 	O 	0.18853 0.00547 0.73611 -0.40900
O 	O 	0.48063 0.14617 0.68946 -0.39200
P 	P 	0.51080 0.55633 0.07029 0.46600
H 	H 	0.37400 0.42900 0.06860 -0.06100
O 	O 	0.51040 0.64260 0.12272 -0.33100
O 	O 	0.66120 0.51640 0.06944 -0.30800
O 	O 	0.52050 0.66780 0.02279 -0.35500
P 	P 	0.17747 0.88966 0.40362 0.54500
H 	H 	0.04067 0.76233 0.40193 -0.09100
O 	O 	0.17707 0.97593 0.45605 -0.30300
O 	O 	0.32787 0.84973 0.40277 -0.31800
O 	O 	0.18717 0.00113 0.35612 -0.48100
P 	P 	0.84413 0.22300 0.73696 0.45900
H 	H 	0.70733 0.09567 0.73527 -0.07300
O 	O 	0.84373 0.30927 0.78939 -0.32800
O 	O 	0.99453 0.18307 0.73611 -0.28500
O 	O 	0.85383 0.33447 0.68946 -0.35300
P 	P 	0.44367 0.95447 0.07029 0.54300
H 	H 	0.57100 0.94500 0.06860 -0.02800
O 	O 	0.35740 0.86780 0.12272 -0.33400
O 	O 	0.48360 0.14480 0.06944 -0.40600
O 	O 	0.33220 0.85270 0.02279 -0.35900
P 	P 	0.11034 0.28780 0.40362 0.37300
H 	H 	0.23767 0.27833 0.40193 -0.04400
O 	O 	0.02407 0.20113 0.45605 -0.40600
O 	O 	0.15027 0.47813 0.40277 -0.34500
O 	O 	0.99887 0.18603 0.35612 -0.28000
P 	P 	0.77700 0.62114 0.73696 0.46300
H 	H 	0.90433 0.61167 0.73527 -0.00600
O 	O 	0.69073 0.53447 0.78939 -0.33000
O 	O 	0.81693 0.81147 0.73611 -0.24300
O 	O 	0.66553 0.51937 0.68946 -0.36200
P 	P 	0.95447 0.51080 0.92971 0.54400
H 	H 	0.94500 0.37400 0.93140 -0.04100
O 	O 	0.86780 0.51040 0.87728 -0.32200
O 	O 	0.14480 0.66120 0.93056 -0.38300
O 	O 	0.85270 0.52050 0.97721 -0.34400
P 	P 	0.62114 0.84413 0.26304 0.46000
H 	H 	0.61167 0.70733 0.26473 -0.03400
O 	O 	0.53447 0.84373 0.21061 -0.31500
O 	O 	0.81147 0.99453 0.26389 -0.22000
O 	O 	0.51937 0.85383 0.31054 -0.34600
P 	P 	0.28780 0.17747 0.59638 0.46200
H 	H 	0.27833 0.04067 0.59807 -0.09300
O 	O 	0.20113 0.17707 0.54395 -0.39000
O 	O 	0.47813 0.32787 0.59723 -0.33400
O 	O 	0.18603 0.18717 0.64388 -0.41800
P 	P 	0.48920 0.44367 0.92971 0.46100
H 	H 	0.62600 0.57100 0.93140 -0.03200
O 	O 	0.48960 0.35740 0.87728 -0.35600
O 	O 	0.33880 0.48360 0.93056 -0.35200
O 	O 	0.47950 0.33220 0.97721 -0.38600
P 	P 	0.15587 0.77700 0.26304 0.46600
H 	H 	0.29267 0.90433 0.26473 -0.01600
O 	O 	0.15627 0.69073 0.21061 -0.35800
O 	O 	0.00547 0.81693 0.26389 -0.33500
O 	O 	0.14617 0.66553 0.31054 -0.38500
P 	P 	0.82253 0.11034 0.59638 0.37600
H 	H 	0.95933 0.23767 0.59807 0.00700
O 	O 	0.82293 0.02407 0.54395 -0.33700
O 	O 	0.67213 0.15027 0.59723 -0.34000
O 	O 	0.81283 0.99887 0.64388 -0.22400
P 	P 	0.55633 0.04553 0.92971 0.38400
H 	H 	0.42900 0.05500 0.93140 -0.06700
O 	O 	0.64260 0.13220 0.87728 -0.35100
O 	O 	0.51640 0.85520 0.93056 -0.25400
O 	O 	0.66780 0.14730 0.97721 -0.38000
P 	P 	0.22300 0.37886 0.26304 0.46100
H 	H 	0.09567 0.38833 0.26473 -0.08500
O 	O 	0.30927 0.46553 0.21061 -0.35700
O 	O 	0.18307 0.18853 0.26389 -0.38400
O 	O 	0.33447 0.48063 0.31054 -0.37600
P 	P 	0.88966 0.71220 0.59638 0.53500
H 	H 	0.76233 0.72167 0.59807 -0.04100
O 	O 	0.97593 0.79887 0.54395 -0.24200
O 	O 	0.84973 0.52187 0.59723 -0.31300
O 	O 	0.00113 0.81397 0.64388 -0.40600
Fe	Fe	0.66667 0.33333 0.02227 1.25100
Fe	Fe	0.33333 0.66667 0.35560 1.25100
Fe	Fe	0.00000 0.00000 0.68894 1.13200
Fe	Fe	0.33333 0.66667 0.97773 1.25100
Fe	Fe	0.00000 0.00000 0.31106 1.13200
Fe	Fe	0.66667 0.33333 0.64440 1.25100
Fe	Fe	0.33333 0.66667 0.16667 1.25600
Fe	Fe	0.00000 -0.00000 0.50000 1.13400
Fe	Fe	0.66667 0.33333 0.83333 1.25600
