data_crystal

_cell_length_a 23.16200
_cell_length_b 23.16200
_cell_length_c 23.16200
_cell_angle_alpha 90.00000
_cell_angle_beta  90.00000
_cell_angle_gamma 90.00000

_symmetry_space_group_name_	'P 1'
_symmetry_space_group_name_H-M	'P 1'

loop_
_symmetry_equiv_pos_as_xyz
  x,y,z

loop_
_atom_site_label
_atom_site_type_symbol
_atom_site_fract_x
_atom_site_fract_y
_atom_site_fract_z
_atom_site_charge
N 	N 	0.32300 0.34917 0.22039 -0.06800
O 	O 	0.32356 0.29086 0.22360 -0.26500
C 	C 	0.28810 0.37570 0.18330 0.02900
H 	H 	0.26400 0.35500 0.15880 0.04400
C 	C 	0.28920 0.43682 0.18260 -0.08900
H 	H 	0.26280 0.45630 0.15950 0.06600
C 	C 	0.32790 0.46853 0.21480 0.04100
C 	C 	0.36554 0.43555 0.25080 -0.10800
H 	H 	0.39290 0.45460 0.27310 0.06600
C 	C 	0.36247 0.37842 0.25309 0.05600
H 	H 	0.38740 0.35810 0.27720 0.02800
N 	N 	0.82300 0.84917 0.72039 -0.06800
O 	O 	0.82356 0.79086 0.72360 -0.26500
C 	C 	0.78810 0.87570 0.68330 0.02900
H 	H 	0.76400 0.85500 0.65880 0.04400
C 	C 	0.78920 0.93682 0.68260 -0.08900
H 	H 	0.76280 0.95630 0.65950 0.06600
C 	C 	0.82790 0.96853 0.71480 0.04100
C 	C 	0.86554 0.93555 0.75080 -0.10800
H 	H 	0.89290 0.95460 0.77310 0.06600
C 	C 	0.86247 0.87842 0.75309 0.05600
H 	H 	0.88740 0.85810 0.77720 0.02800
N 	N 	0.67700 0.65083 0.22039 -0.06800
O 	O 	0.67644 0.70914 0.22360 -0.26500
C 	C 	0.71190 0.62430 0.18330 0.02900
H 	H 	0.73600 0.64500 0.15880 0.04400
C 	C 	0.71080 0.56318 0.18260 -0.08900
H 	H 	0.73720 0.54370 0.15950 0.06600
C 	C 	0.67210 0.53147 0.21480 0.04100
C 	C 	0.63446 0.56445 0.25080 -0.10800
H 	H 	0.60710 0.54540 0.27310 0.06600
C 	C 	0.63753 0.62158 0.25309 0.05600
H 	H 	0.61260 0.64190 0.27720 0.02800
N 	N 	0.17700 0.15083 0.72039 -0.06800
O 	O 	0.17644 0.20914 0.72360 -0.26500
C 	C 	0.21190 0.12430 0.68330 0.02900
H 	H 	0.23600 0.14500 0.65880 0.04400
C 	C 	0.21080 0.06318 0.68260 -0.08900
H 	H 	0.23720 0.04370 0.65950 0.06600
C 	C 	0.17210 0.03147 0.71480 0.04100
C 	C 	0.13446 0.06445 0.75080 -0.10800
H 	H 	0.10710 0.04540 0.77310 0.06600
C 	C 	0.13753 0.12158 0.75309 0.05600
H 	H 	0.11260 0.14190 0.77720 0.02800
N 	N 	0.67700 0.34917 0.77961 -0.06800
O 	O 	0.67644 0.29086 0.77640 -0.26500
C 	C 	0.71190 0.37570 0.81670 0.02900
H 	H 	0.73600 0.35500 0.84120 0.04400
C 	C 	0.71080 0.43682 0.81740 -0.08900
H 	H 	0.73720 0.45630 0.84050 0.06600
C 	C 	0.67210 0.46853 0.78520 0.04100
C 	C 	0.63446 0.43555 0.74920 -0.10800
H 	H 	0.60710 0.45460 0.72690 0.06600
C 	C 	0.63753 0.37842 0.74691 0.05600
H 	H 	0.61260 0.35810 0.72280 0.02800
N 	N 	0.17700 0.84917 0.27961 -0.06800
O 	O 	0.17644 0.79086 0.27640 -0.26500
C 	C 	0.21190 0.87570 0.31670 0.02900
H 	H 	0.23600 0.85500 0.34120 0.04400
C 	C 	0.21080 0.93682 0.31740 -0.08900
H 	H 	0.23720 0.95630 0.34050 0.06600
C 	C 	0.17210 0.96853 0.28520 0.04100
C 	C 	0.13446 0.93555 0.24920 -0.10800
H 	H 	0.10710 0.95460 0.22690 0.06600
C 	C 	0.13753 0.87842 0.24691 0.05600
H 	H 	0.11260 0.85810 0.22280 0.02800
N 	N 	0.32300 0.65083 0.77961 -0.06800
O 	O 	0.32356 0.70914 0.77640 -0.26500
C 	C 	0.28810 0.62430 0.81670 0.02900
H 	H 	0.26400 0.64500 0.84120 0.04400
C 	C 	0.28920 0.56318 0.81740 -0.08900
H 	H 	0.26280 0.54370 0.84050 0.06600
C 	C 	0.32790 0.53147 0.78520 0.04100
C 	C 	0.36554 0.56445 0.74920 -0.10800
H 	H 	0.39290 0.54540 0.72690 0.06600
C 	C 	0.36247 0.62158 0.74691 0.05600
H 	H 	0.38740 0.64190 0.72280 0.02800
N 	N 	0.82300 0.15083 0.27961 -0.06800
O 	O 	0.82356 0.20914 0.27640 -0.26500
C 	C 	0.78810 0.12430 0.31670 0.02900
H 	H 	0.76400 0.14500 0.34120 0.04400
C 	C 	0.78920 0.06318 0.31740 -0.08900
H 	H 	0.76280 0.04370 0.34050 0.06600
C 	C 	0.82790 0.03147 0.28520 0.04100
C 	C 	0.86554 0.06445 0.24920 -0.10800
H 	H 	0.89290 0.04540 0.22690 0.06600
C 	C 	0.86247 0.12158 0.24691 0.05600
H 	H 	0.88740 0.14190 0.22280 0.02800
N 	N 	0.22039 0.32300 0.34917 -0.06800
O 	O 	0.22360 0.32356 0.29086 -0.26500
C 	C 	0.18330 0.28810 0.37570 0.02900
H 	H 	0.15880 0.26400 0.35500 0.04400
C 	C 	0.18260 0.28920 0.43682 -0.08900
H 	H 	0.15950 0.26280 0.45630 0.06600
C 	C 	0.21480 0.32790 0.46853 0.04100
C 	C 	0.25080 0.36554 0.43555 -0.10800
H 	H 	0.27310 0.39290 0.45460 0.06600
C 	C 	0.25309 0.36247 0.37842 0.05600
H 	H 	0.27720 0.38740 0.35810 0.02800
N 	N 	0.72039 0.82300 0.84917 -0.06800
O 	O 	0.72360 0.82356 0.79086 -0.26500
C 	C 	0.68330 0.78810 0.87570 0.02900
H 	H 	0.65880 0.76400 0.85500 0.04400
C 	C 	0.68260 0.78920 0.93682 -0.08900
H 	H 	0.65950 0.76280 0.95630 0.06600
C 	C 	0.71480 0.82790 0.96853 0.04100
C 	C 	0.75080 0.86554 0.93555 -0.10800
H 	H 	0.77310 0.89290 0.95460 0.06600
C 	C 	0.75309 0.86247 0.87842 0.05600
H 	H 	0.77720 0.88740 0.85810 0.02800
N 	N 	0.22039 0.67700 0.65083 -0.06800
O 	O 	0.22360 0.67644 0.70914 -0.26500
C 	C 	0.18330 0.71190 0.62430 0.02900
H 	H 	0.15880 0.73600 0.64500 0.04400
C 	C 	0.18260 0.71080 0.56318 -0.08900
H 	H 	0.15950 0.73720 0.54370 0.06600
C 	C 	0.21480 0.67210 0.53147 0.04100
C 	C 	0.25080 0.63446 0.56445 -0.10800
H 	H 	0.27310 0.60710 0.54540 0.06600
C 	C 	0.25309 0.63753 0.62158 0.05600
H 	H 	0.27720 0.61260 0.64190 0.02800
N 	N 	0.72039 0.17700 0.15083 -0.06800
O 	O 	0.72360 0.17644 0.20914 -0.26500
C 	C 	0.68330 0.21190 0.12430 0.02900
H 	H 	0.65880 0.23600 0.14500 0.04400
C 	C 	0.68260 0.21080 0.06318 -0.08900
H 	H 	0.65950 0.23720 0.04370 0.06600
C 	C 	0.71480 0.17210 0.03147 0.04100
C 	C 	0.75080 0.13446 0.06445 -0.10800
H 	H 	0.77310 0.10710 0.04540 0.06600
C 	C 	0.75309 0.13753 0.12158 0.05600
H 	H 	0.77720 0.11260 0.14190 0.02800
N 	N 	0.77961 0.67700 0.34917 -0.06800
O 	O 	0.77640 0.67644 0.29086 -0.26500
C 	C 	0.81670 0.71190 0.37570 0.02900
H 	H 	0.84120 0.73600 0.35500 0.04400
C 	C 	0.81740 0.71080 0.43682 -0.08900
H 	H 	0.84050 0.73720 0.45630 0.06600
C 	C 	0.78520 0.67210 0.46853 0.04100
C 	C 	0.74920 0.63446 0.43555 -0.10800
H 	H 	0.72690 0.60710 0.45460 0.06600
C 	C 	0.74691 0.63753 0.37842 0.05600
H 	H 	0.72280 0.61260 0.35810 0.02800
N 	N 	0.27961 0.17700 0.84917 -0.06800
O 	O 	0.27640 0.17644 0.79086 -0.26500
C 	C 	0.31670 0.21190 0.87570 0.02900
H 	H 	0.34120 0.23600 0.85500 0.04400
C 	C 	0.31740 0.21080 0.93682 -0.08900
H 	H 	0.34050 0.23720 0.95630 0.06600
C 	C 	0.28520 0.17210 0.96853 0.04100
C 	C 	0.24920 0.13446 0.93555 -0.10800
H 	H 	0.22690 0.10710 0.95460 0.06600
C 	C 	0.24691 0.13753 0.87842 0.05600
H 	H 	0.22280 0.11260 0.85810 0.02800
N 	N 	0.77961 0.32300 0.65083 -0.06800
O 	O 	0.77640 0.32356 0.70914 -0.26500
C 	C 	0.81670 0.28810 0.62430 0.02900
H 	H 	0.84120 0.26400 0.64500 0.04400
C 	C 	0.81740 0.28920 0.56318 -0.08900
H 	H 	0.84050 0.26280 0.54370 0.06600
C 	C 	0.78520 0.32790 0.53147 0.04100
C 	C 	0.74920 0.36554 0.56445 -0.10800
H 	H 	0.72690 0.39290 0.54540 0.06600
C 	C 	0.74691 0.36247 0.62158 0.05600
H 	H 	0.72280 0.38740 0.64190 0.02800
N 	N 	0.27961 0.82300 0.15083 -0.06800
O 	O 	0.27640 0.82356 0.20914 -0.26500
C 	C 	0.31670 0.78810 0.12430 0.02900
H 	H 	0.34120 0.76400 0.14500 0.04400
C 	C 	0.31740 0.78920 0.06318 -0.08900
H 	H 	0.34050 0.76280 0.04370 0.06600
C 	C 	0.28520 0.82790 0.03147 0.04100
C 	C 	0.24920 0.86554 0.06445 -0.10800
H 	H 	0.22690 0.89290 0.04540 0.06600
C 	C 	0.24691 0.86247 0.12158 0.05600
H 	H 	0.22280 0.88740 0.14190 0.02800
N 	N 	0.34917 0.22039 0.32300 -0.06800
O 	O 	0.29086 0.22360 0.32356 -0.26500
C 	C 	0.37570 0.18330 0.28810 0.02900
H 	H 	0.35500 0.15880 0.26400 0.04400
C 	C 	0.43682 0.18260 0.28920 -0.08900
H 	H 	0.45630 0.15950 0.26280 0.06600
C 	C 	0.46853 0.21480 0.32790 0.04100
C 	C 	0.43555 0.25080 0.36554 -0.10800
H 	H 	0.45460 0.27310 0.39290 0.06600
C 	C 	0.37842 0.25309 0.36247 0.05600
H 	H 	0.35810 0.27720 0.38740 0.02800
N 	N 	0.84917 0.72039 0.82300 -0.06800
O 	O 	0.79086 0.72360 0.82356 -0.26500
C 	C 	0.87570 0.68330 0.78810 0.02900
H 	H 	0.85500 0.65880 0.76400 0.04400
C 	C 	0.93682 0.68260 0.78920 -0.08900
H 	H 	0.95630 0.65950 0.76280 0.06600
C 	C 	0.96853 0.71480 0.82790 0.04100
C 	C 	0.93555 0.75080 0.86554 -0.10800
H 	H 	0.95460 0.77310 0.89290 0.06600
C 	C 	0.87842 0.75309 0.86247 0.05600
H 	H 	0.85810 0.77720 0.88740 0.02800
N 	N 	0.65083 0.22039 0.67700 -0.06800
O 	O 	0.70914 0.22360 0.67644 -0.26500
C 	C 	0.62430 0.18330 0.71190 0.02900
H 	H 	0.64500 0.15880 0.73600 0.04400
C 	C 	0.56318 0.18260 0.71080 -0.08900
H 	H 	0.54370 0.15950 0.73720 0.06600
C 	C 	0.53147 0.21480 0.67210 0.04100
C 	C 	0.56445 0.25080 0.63446 -0.10800
H 	H 	0.54540 0.27310 0.60710 0.06600
C 	C 	0.62158 0.25309 0.63753 0.05600
H 	H 	0.64190 0.27720 0.61260 0.02800
N 	N 	0.15083 0.72039 0.17700 -0.06800
O 	O 	0.20914 0.72360 0.17644 -0.26500
C 	C 	0.12430 0.68330 0.21190 0.02900
H 	H 	0.14500 0.65880 0.23600 0.04400
C 	C 	0.06318 0.68260 0.21080 -0.08900
H 	H 	0.04370 0.65950 0.23720 0.06600
C 	C 	0.03147 0.71480 0.17210 0.04100
C 	C 	0.06445 0.75080 0.13446 -0.10800
H 	H 	0.04540 0.77310 0.10710 0.06600
C 	C 	0.12158 0.75309 0.13753 0.05600
H 	H 	0.14190 0.77720 0.11260 0.02800
N 	N 	0.34917 0.77961 0.67700 -0.06800
O 	O 	0.29086 0.77640 0.67644 -0.26500
C 	C 	0.37570 0.81670 0.71190 0.02900
H 	H 	0.35500 0.84120 0.73600 0.04400
C 	C 	0.43682 0.81740 0.71080 -0.08900
H 	H 	0.45630 0.84050 0.73720 0.06600
C 	C 	0.46853 0.78520 0.67210 0.04100
C 	C 	0.43555 0.74920 0.63446 -0.10800
H 	H 	0.45460 0.72690 0.60710 0.06600
C 	C 	0.37842 0.74691 0.63753 0.05600
H 	H 	0.35810 0.72280 0.61260 0.02800
N 	N 	0.84917 0.27961 0.17700 -0.06800
O 	O 	0.79086 0.27640 0.17644 -0.26500
C 	C 	0.87570 0.31670 0.21190 0.02900
H 	H 	0.85500 0.34120 0.23600 0.04400
C 	C 	0.93682 0.31740 0.21080 -0.08900
H 	H 	0.95630 0.34050 0.23720 0.06600
C 	C 	0.96853 0.28520 0.17210 0.04100
C 	C 	0.93555 0.24920 0.13446 -0.10800
H 	H 	0.95460 0.22690 0.10710 0.06600
C 	C 	0.87842 0.24691 0.13753 0.05600
H 	H 	0.85810 0.22280 0.11260 0.02800
N 	N 	0.65083 0.77961 0.32300 -0.06800
O 	O 	0.70914 0.77640 0.32356 -0.26500
C 	C 	0.62430 0.81670 0.28810 0.02900
H 	H 	0.64500 0.84120 0.26400 0.04400
C 	C 	0.56318 0.81740 0.28920 -0.08900
H 	H 	0.54370 0.84050 0.26280 0.06600
C 	C 	0.53147 0.78520 0.32790 0.04100
C 	C 	0.56445 0.74920 0.36554 -0.10800
H 	H 	0.54540 0.72690 0.39290 0.06600
C 	C 	0.62158 0.74691 0.36247 0.05600
H 	H 	0.64190 0.72280 0.38740 0.02800
N 	N 	0.15083 0.27961 0.82300 -0.06800
O 	O 	0.20914 0.27640 0.82356 -0.26500
C 	C 	0.12430 0.31670 0.78810 0.02900
H 	H 	0.14500 0.34120 0.76400 0.04400
C 	C 	0.06318 0.31740 0.78920 -0.08900
H 	H 	0.04370 0.34050 0.76280 0.06600
C 	C 	0.03147 0.28520 0.82790 0.04100
C 	C 	0.06445 0.24920 0.86554 -0.10800
H 	H 	0.04540 0.22690 0.89290 0.06600
C 	C 	0.12158 0.24691 0.86247 0.05600
H 	H 	0.14190 0.22280 0.88740 0.02800
N 	N 	0.67700 0.65083 0.77961 -0.06800
O 	O 	0.67644 0.70914 0.77640 -0.26500
C 	C 	0.71190 0.62430 0.81670 0.02900
H 	H 	0.73600 0.64500 0.84120 0.04400
C 	C 	0.71080 0.56318 0.81740 -0.08900
H 	H 	0.73720 0.54370 0.84050 0.06600
C 	C 	0.67210 0.53147 0.78520 0.04100
C 	C 	0.63446 0.56445 0.74920 -0.10800
H 	H 	0.60710 0.54540 0.72690 0.06600
C 	C 	0.63753 0.62158 0.74691 0.05600
H 	H 	0.61260 0.64190 0.72280 0.02800
N 	N 	0.17700 0.15083 0.27961 -0.06800
O 	O 	0.17644 0.20914 0.27640 -0.26500
C 	C 	0.21190 0.12430 0.31670 0.02900
H 	H 	0.23600 0.14500 0.34120 0.04400
C 	C 	0.21080 0.06318 0.31740 -0.08900
H 	H 	0.23720 0.04370 0.34050 0.06600
C 	C 	0.17210 0.03147 0.28520 0.04100
C 	C 	0.13446 0.06445 0.24920 -0.10800
H 	H 	0.10710 0.04540 0.22690 0.06600
C 	C 	0.13753 0.12158 0.24691 0.05600
H 	H 	0.11260 0.14190 0.22280 0.02800
N 	N 	0.32300 0.34917 0.77961 -0.06800
O 	O 	0.32356 0.29086 0.77640 -0.26500
C 	C 	0.28810 0.37570 0.81670 0.02900
H 	H 	0.26400 0.35500 0.84120 0.04400
C 	C 	0.28920 0.43682 0.81740 -0.08900
H 	H 	0.26280 0.45630 0.84050 0.06600
C 	C 	0.32790 0.46853 0.78520 0.04100
C 	C 	0.36554 0.43555 0.74920 -0.10800
H 	H 	0.39290 0.45460 0.72690 0.06600
C 	C 	0.36247 0.37842 0.74691 0.05600
H 	H 	0.38740 0.35810 0.72280 0.02800
N 	N 	0.82300 0.84917 0.27961 -0.06800
O 	O 	0.82356 0.79086 0.27640 -0.26500
C 	C 	0.78810 0.87570 0.31670 0.02900
H 	H 	0.76400 0.85500 0.34120 0.04400
C 	C 	0.78920 0.93682 0.31740 -0.08900
H 	H 	0.76280 0.95630 0.34050 0.06600
C 	C 	0.82790 0.96853 0.28520 0.04100
C 	C 	0.86554 0.93555 0.24920 -0.10800
H 	H 	0.89290 0.95460 0.22690 0.06600
C 	C 	0.86247 0.87842 0.24691 0.05600
H 	H 	0.88740 0.85810 0.22280 0.02800
N 	N 	0.32300 0.65083 0.22039 -0.06800
O 	O 	0.32356 0.70914 0.22360 -0.26500
C 	C 	0.28810 0.62430 0.18330 0.02900
H 	H 	0.26400 0.64500 0.15880 0.04400
C 	C 	0.28920 0.56318 0.18260 -0.08900
H 	H 	0.26280 0.54370 0.15950 0.06600
C 	C 	0.32790 0.53147 0.21480 0.04100
C 	C 	0.36554 0.56445 0.25080 -0.10800
H 	H 	0.39290 0.54540 0.27310 0.06600
C 	C 	0.36247 0.62158 0.25309 0.05600
H 	H 	0.38740 0.64190 0.27720 0.02800
N 	N 	0.82300 0.15083 0.72039 -0.06800
O 	O 	0.82356 0.20914 0.72360 -0.26500
C 	C 	0.78810 0.12430 0.68330 0.02900
H 	H 	0.76400 0.14500 0.65880 0.04400
C 	C 	0.78920 0.06318 0.68260 -0.08900
H 	H 	0.76280 0.04370 0.65950 0.06600
C 	C 	0.82790 0.03147 0.71480 0.04100
C 	C 	0.86554 0.06445 0.75080 -0.10800
H 	H 	0.89290 0.04540 0.77310 0.06600
C 	C 	0.86247 0.12158 0.75309 0.05600
H 	H 	0.88740 0.14190 0.77720 0.02800
N 	N 	0.67700 0.34917 0.22039 -0.06800
O 	O 	0.67644 0.29086 0.22360 -0.26500
C 	C 	0.71190 0.37570 0.18330 0.02900
H 	H 	0.73600 0.35500 0.15880 0.04400
C 	C 	0.71080 0.43682 0.18260 -0.08900
H 	H 	0.73720 0.45630 0.15950 0.06600
C 	C 	0.67210 0.46853 0.21480 0.04100
C 	C 	0.63446 0.43555 0.25080 -0.10800
H 	H 	0.60710 0.45460 0.27310 0.06600
C 	C 	0.63753 0.37842 0.25309 0.05600
H 	H 	0.61260 0.35810 0.27720 0.02800
N 	N 	0.17700 0.84917 0.72039 -0.06800
O 	O 	0.17644 0.79086 0.72360 -0.26500
C 	C 	0.21190 0.87570 0.68330 0.02900
H 	H 	0.23600 0.85500 0.65880 0.04400
C 	C 	0.21080 0.93682 0.68260 -0.08900
H 	H 	0.23720 0.95630 0.65950 0.06600
C 	C 	0.17210 0.96853 0.71480 0.04100
C 	C 	0.13446 0.93555 0.75080 -0.10800
H 	H 	0.10710 0.95460 0.77310 0.06600
C 	C 	0.13753 0.87842 0.75309 0.05600
H 	H 	0.11260 0.85810 0.77720 0.02800
N 	N 	0.77961 0.67700 0.65083 -0.06800
O 	O 	0.77640 0.67644 0.70914 -0.26500
C 	C 	0.81670 0.71190 0.62430 0.02900
H 	H 	0.84120 0.73600 0.64500 0.04400
C 	C 	0.81740 0.71080 0.56318 -0.08900
H 	H 	0.84050 0.73720 0.54370 0.06600
C 	C 	0.78520 0.67210 0.53147 0.04100
C 	C 	0.74920 0.63446 0.56445 -0.10800
H 	H 	0.72690 0.60710 0.54540 0.06600
C 	C 	0.74691 0.63753 0.62158 0.05600
H 	H 	0.72280 0.61260 0.64190 0.02800
N 	N 	0.27961 0.17700 0.15083 -0.06800
O 	O 	0.27640 0.17644 0.20914 -0.26500
C 	C 	0.31670 0.21190 0.12430 0.02900
H 	H 	0.34120 0.23600 0.14500 0.04400
C 	C 	0.31740 0.21080 0.06318 -0.08900
H 	H 	0.34050 0.23720 0.04370 0.06600
C 	C 	0.28520 0.17210 0.03147 0.04100
C 	C 	0.24920 0.13446 0.06445 -0.10800
H 	H 	0.22690 0.10710 0.04540 0.06600
C 	C 	0.24691 0.13753 0.12158 0.05600
H 	H 	0.22280 0.11260 0.14190 0.02800
N 	N 	0.77961 0.32300 0.34917 -0.06800
O 	O 	0.77640 0.32356 0.29086 -0.26500
C 	C 	0.81670 0.28810 0.37570 0.02900
H 	H 	0.84120 0.26400 0.35500 0.04400
C 	C 	0.81740 0.28920 0.43682 -0.08900
H 	H 	0.84050 0.26280 0.45630 0.06600
C 	C 	0.78520 0.32790 0.46853 0.04100
C 	C 	0.74920 0.36554 0.43555 -0.10800
H 	H 	0.72690 0.39290 0.45460 0.06600
C 	C 	0.74691 0.36247 0.37842 0.05600
H 	H 	0.72280 0.38740 0.35810 0.02800
N 	N 	0.27961 0.82300 0.84917 -0.06800
O 	O 	0.27640 0.82356 0.79086 -0.26500
C 	C 	0.31670 0.78810 0.87570 0.02900
H 	H 	0.34120 0.76400 0.85500 0.04400
C 	C 	0.31740 0.78920 0.93682 -0.08900
H 	H 	0.34050 0.76280 0.95630 0.06600
C 	C 	0.28520 0.82790 0.96853 0.04100
C 	C 	0.24920 0.86554 0.93555 -0.10800
H 	H 	0.22690 0.89290 0.95460 0.06600
C 	C 	0.24691 0.86247 0.87842 0.05600
H 	H 	0.22280 0.88740 0.85810 0.02800
N 	N 	0.22039 0.32300 0.65083 -0.06800
O 	O 	0.22360 0.32356 0.70914 -0.26500
C 	C 	0.18330 0.28810 0.62430 0.02900
H 	H 	0.15880 0.26400 0.64500 0.04400
C 	C 	0.18260 0.28920 0.56318 -0.08900
H 	H 	0.15950 0.26280 0.54370 0.06600
C 	C 	0.21480 0.32790 0.53147 0.04100
C 	C 	0.25080 0.36554 0.56445 -0.10800
H 	H 	0.27310 0.39290 0.54540 0.06600
C 	C 	0.25309 0.36247 0.62158 0.05600
H 	H 	0.27720 0.38740 0.64190 0.02800
N 	N 	0.72039 0.82300 0.15083 -0.06800
O 	O 	0.72360 0.82356 0.20914 -0.26500
C 	C 	0.68330 0.78810 0.12430 0.02900
H 	H 	0.65880 0.76400 0.14500 0.04400
C 	C 	0.68260 0.78920 0.06318 -0.08900
H 	H 	0.65950 0.76280 0.04370 0.06600
C 	C 	0.71480 0.82790 0.03147 0.04100
C 	C 	0.75080 0.86554 0.06445 -0.10800
H 	H 	0.77310 0.89290 0.04540 0.06600
C 	C 	0.75309 0.86247 0.12158 0.05600
H 	H 	0.77720 0.88740 0.14190 0.02800
N 	N 	0.22039 0.67700 0.34917 -0.06800
O 	O 	0.22360 0.67644 0.29086 -0.26500
C 	C 	0.18330 0.71190 0.37570 0.02900
H 	H 	0.15880 0.73600 0.35500 0.04400
C 	C 	0.18260 0.71080 0.43682 -0.08900
H 	H 	0.15950 0.73720 0.45630 0.06600
C 	C 	0.21480 0.67210 0.46853 0.04100
C 	C 	0.25080 0.63446 0.43555 -0.10800
H 	H 	0.27310 0.60710 0.45460 0.06600
C 	C 	0.25309 0.63753 0.37842 0.05600
H 	H 	0.27720 0.61260 0.35810 0.02800
N 	N 	0.72039 0.17700 0.84917 -0.06800
O 	O 	0.72360 0.17644 0.79086 -0.26500
C 	C 	0.68330 0.21190 0.87570 0.02900
H 	H 	0.65880 0.23600 0.85500 0.04400
C 	C 	0.68260 0.21080 0.93682 -0.08900
H 	H 	0.65950 0.23720 0.95630 0.06600
C 	C 	0.71480 0.17210 0.96853 0.04100
C 	C 	0.75080 0.13446 0.93555 -0.10800
H 	H 	0.77310 0.10710 0.95460 0.06600
C 	C 	0.75309 0.13753 0.87842 0.05600
H 	H 	0.77720 0.11260 0.85810 0.02800
N 	N 	0.65083 0.77961 0.67700 -0.06800
O 	O 	0.70914 0.77640 0.67644 -0.26500
C 	C 	0.62430 0.81670 0.71190 0.02900
H 	H 	0.64500 0.84120 0.73600 0.04400
C 	C 	0.56318 0.81740 0.71080 -0.08900
H 	H 	0.54370 0.84050 0.73720 0.06600
C 	C 	0.53147 0.78520 0.67210 0.04100
C 	C 	0.56445 0.74920 0.63446 -0.10800
H 	H 	0.54540 0.72690 0.60710 0.06600
C 	C 	0.62158 0.74691 0.63753 0.05600
H 	H 	0.64190 0.72280 0.61260 0.02800
N 	N 	0.15083 0.27961 0.17700 -0.06800
O 	O 	0.20914 0.27640 0.17644 -0.26500
C 	C 	0.12430 0.31670 0.21190 0.02900
H 	H 	0.14500 0.34120 0.23600 0.04400
C 	C 	0.06318 0.31740 0.21080 -0.08900
H 	H 	0.04370 0.34050 0.23720 0.06600
C 	C 	0.03147 0.28520 0.17210 0.04100
C 	C 	0.06445 0.24920 0.13446 -0.10800
H 	H 	0.04540 0.22690 0.10710 0.06600
C 	C 	0.12158 0.24691 0.13753 0.05600
H 	H 	0.14190 0.22280 0.11260 0.02800
N 	N 	0.34917 0.77961 0.32300 -0.06800
O 	O 	0.29086 0.77640 0.32356 -0.26500
C 	C 	0.37570 0.81670 0.28810 0.02900
H 	H 	0.35500 0.84120 0.26400 0.04400
C 	C 	0.43682 0.81740 0.28920 -0.08900
H 	H 	0.45630 0.84050 0.26280 0.06600
C 	C 	0.46853 0.78520 0.32790 0.04100
C 	C 	0.43555 0.74920 0.36554 -0.10800
H 	H 	0.45460 0.72690 0.39290 0.06600
C 	C 	0.37842 0.74691 0.36247 0.05600
H 	H 	0.35810 0.72280 0.38740 0.02800
N 	N 	0.84917 0.27961 0.82300 -0.06800
O 	O 	0.79086 0.27640 0.82356 -0.26500
C 	C 	0.87570 0.31670 0.78810 0.02900
H 	H 	0.85500 0.34120 0.76400 0.04400
C 	C 	0.93682 0.31740 0.78920 -0.08900
H 	H 	0.95630 0.34050 0.76280 0.06600
C 	C 	0.96853 0.28520 0.82790 0.04100
C 	C 	0.93555 0.24920 0.86554 -0.10800
H 	H 	0.95460 0.22690 0.89290 0.06600
C 	C 	0.87842 0.24691 0.86247 0.05600
H 	H 	0.85810 0.22280 0.88740 0.02800
N 	N 	0.65083 0.22039 0.32300 -0.06800
O 	O 	0.70914 0.22360 0.32356 -0.26500
C 	C 	0.62430 0.18330 0.28810 0.02900
H 	H 	0.64500 0.15880 0.26400 0.04400
C 	C 	0.56318 0.18260 0.28920 -0.08900
H 	H 	0.54370 0.15950 0.26280 0.06600
C 	C 	0.53147 0.21480 0.32790 0.04100
C 	C 	0.56445 0.25080 0.36554 -0.10800
H 	H 	0.54540 0.27310 0.39290 0.06600
C 	C 	0.62158 0.25309 0.36247 0.05600
H 	H 	0.64190 0.27720 0.38740 0.02800
N 	N 	0.15083 0.72039 0.82300 -0.06800
O 	O 	0.20914 0.72360 0.82356 -0.26500
C 	C 	0.12430 0.68330 0.78810 0.02900
H 	H 	0.14500 0.65880 0.76400 0.04400
C 	C 	0.06318 0.68260 0.78920 -0.08900
H 	H 	0.04370 0.65950 0.76280 0.06600
C 	C 	0.03147 0.71480 0.82790 0.04100
C 	C 	0.06445 0.75080 0.86554 -0.10800
H 	H 	0.04540 0.77310 0.89290 0.06600
C 	C 	0.12158 0.75309 0.86247 0.05600
H 	H 	0.14190 0.77720 0.88740 0.02800
N 	N 	0.34917 0.22039 0.67700 -0.06800
O 	O 	0.29086 0.22360 0.67644 -0.26500
C 	C 	0.37570 0.18330 0.71190 0.02900
H 	H 	0.35500 0.15880 0.73600 0.04400
C 	C 	0.43682 0.18260 0.71080 -0.08900
H 	H 	0.45630 0.15950 0.73720 0.06600
C 	C 	0.46853 0.21480 0.67210 0.04100
C 	C 	0.43555 0.25080 0.63446 -0.10800
H 	H 	0.45460 0.27310 0.60710 0.06600
C 	C 	0.37842 0.25309 0.63753 0.05600
H 	H 	0.35810 0.27720 0.61260 0.02800
N 	N 	0.84917 0.72039 0.17700 -0.06800
O 	O 	0.79086 0.72360 0.17644 -0.26500
C 	C 	0.87570 0.68330 0.21190 0.02900
H 	H 	0.85500 0.65880 0.23600 0.04400
C 	C 	0.93682 0.68260 0.21080 -0.08900
H 	H 	0.95630 0.65950 0.23720 0.06600
C 	C 	0.96853 0.71480 0.17210 0.04100
C 	C 	0.93555 0.75080 0.13446 -0.10800
H 	H 	0.95460 0.77310 0.10710 0.06600
C 	C 	0.87842 0.75309 0.13753 0.05600
H 	H 	0.85810 0.77720 0.11260 0.02800
Co	Co	0.25000 0.25000 0.25000 1.20000
Co	Co	0.75000 0.75000 0.25000 1.20000
Co	Co	0.75000 0.25000 0.75000 1.20000
Co	Co	0.25000 0.75000 0.75000 1.20000
Co	Co	0.75000 0.75000 0.75000 1.20000
Co	Co	0.25000 0.25000 0.75000 1.20000
Co	Co	0.25000 0.75000 0.25000 1.20000
Co	Co	0.75000 0.25000 0.25000 1.20000
