data_crystal

_cell_length_a 10.06160
_cell_length_b 12.87460
_cell_length_c 12.92200
_cell_angle_alpha 71.21740
_cell_angle_beta  67.08770
_cell_angle_gamma 66.99850

_symmetry_space_group_name_	'P 1'
_symmetry_space_group_name_H-M	'P 1'

loop_
_symmetry_equiv_pos_as_xyz
  x,y,z

loop_
_atom_site_label
_atom_site_type_symbol
_atom_site_fract_x
_atom_site_fract_y
_atom_site_fract_z
_atom_site_charge
Co	Co	0.96789 0.61341 0.89699 1.17500
Co	Co	0.25042 0.16668 0.26298 1.18900
Co	Co	0.47829 0.88659 0.60301 1.18200
Co	Co	0.68008 0.33332 0.23702 1.18900
Co	Co	0.03211 0.38659 0.10301 1.17500
Co	Co	0.74958 0.83332 0.73702 1.18900
Co	Co	0.52171 0.11341 0.39699 1.18200
Co	Co	0.31992 0.66668 0.76298 1.18900
H 	H 	0.85510 0.87900 0.16160 0.06200
H 	H 	0.99860 0.74560 0.04680 0.01400
H 	H 	0.63560 0.73180 0.01360 -0.00200
H 	H 	0.48440 0.87610 0.11530 0.06300
H 	H 	0.13600 0.95920 0.74180 0.00600
H 	H 	0.01480 0.01610 0.59650 0.16300
H 	H 	0.13770 0.91120 0.53820 0.15300
H 	H 	0.89570 0.62100 0.33840 0.06300
H 	H 	0.79100 0.75440 0.45320 0.01100
H 	H 	0.38100 0.76820 0.48640 -0.00200
H 	H 	0.47580 0.62390 0.38470 0.06400
H 	H 	0.83700 0.54080 0.75820 0.00100
H 	H 	0.62740 0.48390 0.90350 0.16700
H 	H 	0.58710 0.58880 0.96180 0.15300
H 	H 	0.14490 0.12100 0.83840 0.06200
H 	H 	0.00140 0.25440 0.95320 0.01400
H 	H 	0.36440 0.26820 0.98640 -0.00200
H 	H 	0.51560 0.12390 0.88470 0.06300
H 	H 	0.86400 0.04080 0.25820 0.00600
H 	H 	0.98520 0.98390 0.40350 0.16300
H 	H 	0.86230 0.08880 0.46180 0.15300
H 	H 	0.10430 0.37900 0.66160 0.06300
H 	H 	0.20900 0.24560 0.54680 0.01100
H 	H 	0.61900 0.23180 0.51360 -0.00200
H 	H 	0.52420 0.37610 0.61530 0.06400
H 	H 	0.16300 0.45920 0.24180 0.00100
H 	H 	0.37260 0.51610 0.09650 0.16700
H 	H 	0.41290 0.41120 0.03820 0.15300
C 	C 	0.55280 0.98540 0.22180 0.36200
C 	C 	0.65330 0.89270 0.15090 -0.04200
C 	C 	0.80720 0.85180 0.12980 -0.05800
C 	C 	0.89180 0.77090 0.06230 0.05000
C 	C 	0.68190 0.76440 0.04140 0.03300
C 	C 	0.59040 0.84860 0.10420 -0.05600
C 	C 	0.03340 0.83780 0.75320 0.31300
C 	C 	0.15240 0.90440 0.69500 0.11300
C 	C 	0.12260 0.96880 0.58060 -0.42500
C 	C 	0.21940 0.04730 0.50210 0.47600
C 	C 	0.76000 0.51460 0.27820 0.36300
C 	C 	0.69690 0.60730 0.34910 -0.04000
C 	C 	0.78880 0.64820 0.37020 -0.06000
C 	C 	0.72500 0.72910 0.43770 0.05100
C 	C 	0.48770 0.73560 0.45860 0.03300
C 	C 	0.54320 0.65140 0.39580 -0.05700
C 	C 	0.62440 0.66220 0.74680 0.30000
C 	C 	0.75180 0.59560 0.80500 0.11800
C 	C 	0.67200 0.53120 0.91940 -0.43200
C 	C 	0.76880 0.45270 0.99790 0.46200
C 	C 	0.44720 0.01460 0.77820 0.36200
C 	C 	0.34670 0.10730 0.84910 -0.04200
C 	C 	0.19280 0.14820 0.87020 -0.05800
C 	C 	0.10820 0.22910 0.93770 0.05000
C 	C 	0.31810 0.23560 0.95860 0.03300
C 	C 	0.40960 0.15140 0.89580 -0.05600
C 	C 	0.96660 0.16220 0.24680 0.31300
C 	C 	0.84760 0.09560 0.30500 0.11300
C 	C 	0.87740 0.03120 0.41940 -0.42500
C 	C 	0.78060 0.95270 0.49790 0.47600
C 	C 	0.24000 0.48540 0.72180 0.36300
C 	C 	0.30310 0.39270 0.65090 -0.04000
C 	C 	0.21120 0.35180 0.62980 -0.06000
C 	C 	0.27500 0.27090 0.56230 0.05100
C 	C 	0.51230 0.26440 0.54140 0.03300
C 	C 	0.45680 0.34860 0.60420 -0.05700
C 	C 	0.37560 0.33780 0.25320 0.30000
C 	C 	0.24820 0.40440 0.19500 0.11800
C 	C 	0.32800 0.46880 0.08060 -0.43200
C 	C 	0.23120 0.54730 0.00210 0.46200
N 	N 	0.83350 0.72560 0.01720 -0.21400
N 	N 	0.57630 0.77440 0.48280 -0.21700
N 	N 	0.16650 0.27440 0.98280 -0.21400
N 	N 	0.42370 0.22560 0.51720 -0.21700
O 	O 	0.61066 0.00618 0.27950 -0.42200
O 	O 	0.41986 0.03068 0.21520 -0.44900
O 	O 	0.08321 0.73218 0.79400 -0.53400
O 	O 	0.89640 0.89140 0.76380 -0.42100
O 	O 	0.29973 0.82434 0.67920 -0.50800
O 	O 	0.35693 0.02364 0.49810 -0.55800
O 	O 	0.15760 0.12370 0.43270 -0.48600
O 	O 	0.89634 0.49382 0.22050 -0.42000
O 	O 	0.66574 0.46932 0.28480 -0.44800
O 	O 	0.60939 0.76782 0.70600 -0.53400
O 	O 	0.55160 0.60860 0.73620 -0.41000
O 	O 	0.80327 0.67566 0.82080 -0.51200
O 	O 	0.87867 0.47636 0.00190 -0.54500
O 	O 	0.71400 0.37630 0.06730 -0.47700
O 	O 	0.38934 0.99382 0.72050 -0.42200
O 	O 	0.58014 0.96932 0.78480 -0.44900
O 	O 	0.91679 0.26782 0.20600 -0.53400
O 	O 	0.10360 0.10860 0.23620 -0.42100
O 	O 	0.70027 0.17566 0.32080 -0.50800
O 	O 	0.64307 0.97636 0.50190 -0.55800
O 	O 	0.84240 0.87630 0.56730 -0.48600
O 	O 	0.10366 0.50618 0.77950 -0.42000
O 	O 	0.33426 0.53068 0.71520 -0.44800
O 	O 	0.39061 0.23218 0.29400 -0.53400
O 	O 	0.44840 0.39140 0.26380 -0.41000
O 	O 	0.19673 0.32434 0.17920 -0.51200
O 	O 	0.12133 0.52364 0.99810 -0.54500
O 	O 	0.28600 0.62370 0.93270 -0.47700
