data_crystal

_cell_length_a 10.10690
_cell_length_b 12.66490
_cell_length_c 13.04270
_cell_angle_alpha 70.77350
_cell_angle_beta  67.20380
_cell_angle_gamma 66.48350

_symmetry_space_group_name_	'P 1'
_symmetry_space_group_name_H-M	'P 1'

loop_
_symmetry_equiv_pos_as_xyz
  x,y,z

loop_
_atom_site_label
_atom_site_type_symbol
_atom_site_fract_x
_atom_site_fract_y
_atom_site_fract_z
_atom_site_charge
Co	Co	0.97773 0.60122 0.88458 1.17900
Co	Co	0.18595 0.23856 0.33088 1.18800
Co	Co	0.46353 0.89878 0.61542 1.18200
Co	Co	0.75539 0.26144 0.16912 1.18900
Co	Co	0.02227 0.39878 0.11542 1.18000
Co	Co	0.81405 0.76144 0.66912 1.18900
Co	Co	0.53647 0.10122 0.38458 1.18300
Co	Co	0.24461 0.73856 0.83088 1.19000
H 	H 	0.40110 0.34940 0.60840 0.05800
H 	H 	0.29450 0.46060 0.74560 0.01600
H 	H 	0.88730 0.47060 0.77700 0.00400
H 	H 	0.98020 0.36930 0.63270 0.05600
H 	H 	0.32800 0.75940 0.54800 0.00100
H 	H 	0.12600 0.90430 0.48570 0.16600
H 	H 	0.08610 0.97020 0.58420 0.15400
H 	H 	0.35890 0.15060 0.89160 0.05800
H 	H 	0.50070 0.03940 0.75440 0.01500
H 	H 	0.13490 0.02940 0.72300 0.00300
H 	H 	0.98220 0.13070 0.86730 0.05300
H 	H 	0.63540 0.74060 0.95200 0.00100
H 	H 	0.51600 0.59570 0.01430 0.16800
H 	H 	0.64050 0.52980 0.91580 0.15400
H 	H 	0.59890 0.65060 0.39160 0.05800
H 	H 	0.70550 0.53940 0.25440 0.01600
H 	H 	0.11270 0.52940 0.22300 0.00400
H 	H 	0.01980 0.63070 0.36730 0.05600
H 	H 	0.67200 0.24060 0.45200 0.00100
H 	H 	0.87400 0.09570 0.51430 0.16600
H 	H 	0.91390 0.02980 0.41580 0.15400
H 	H 	0.64110 0.84940 0.10840 0.05800
H 	H 	0.49930 0.96060 0.24560 0.01500
H 	H 	0.86510 0.97060 0.27700 0.00300
H 	H 	0.01780 0.86930 0.13270 0.05300
H 	H 	0.36460 0.25940 0.04800 0.00100
H 	H 	0.48400 0.40430 0.98570 0.16800
H 	H 	0.35950 0.47020 0.08420 0.15400
C 	C 	0.26610 0.28100 0.50940 0.36300
C 	C 	0.20300 0.34880 0.60240 -0.05300
C 	C 	0.29440 0.37590 0.63990 -0.04700
C 	C 	0.23000 0.44070 0.72310 0.03900
C 	C 	0.99300 0.44790 0.74030 0.01900
C 	C 	0.04730 0.38630 0.65510 -0.03900
C 	C 	0.11680 0.74970 0.66370 0.31200
C 	C 	0.24210 0.80940 0.59980 0.12300
C 	C 	0.17040 0.92210 0.53130 -0.43300
C 	C 	0.27300 0.99700 0.45020 0.46400
C 	C 	0.05650 0.21900 0.99060 0.36800
C 	C 	0.15420 0.15120 0.89760 -0.05400
C 	C 	0.31020 0.12410 0.86010 -0.04700
C 	C 	0.39380 0.05930 0.77690 0.03900
C 	C 	0.18120 0.05210 0.75970 0.02400
C 	C 	0.08870 0.11370 0.84490 -0.03800
C 	C 	0.53020 0.75030 0.83630 0.31100
C 	C 	0.65130 0.69060 0.90020 0.12400
C 	C 	0.62380 0.57790 0.96870 -0.43700
C 	C 	0.72020 0.50300 0.04980 0.46600
C 	C 	0.73390 0.71900 0.49060 0.36300
C 	C 	0.79700 0.65120 0.39760 -0.05300
C 	C 	0.70560 0.62410 0.36010 -0.04700
C 	C 	0.77000 0.55930 0.27690 0.03900
C 	C 	0.00700 0.55210 0.25970 0.01900
C 	C 	0.95270 0.61370 0.34490 -0.03900
C 	C 	0.88320 0.25030 0.33630 0.31200
C 	C 	0.75790 0.19060 0.40020 0.12300
C 	C 	0.82960 0.07790 0.46870 -0.43300
C 	C 	0.72700 0.00300 0.54980 0.46400
C 	C 	0.94350 0.78100 0.00940 0.36800
C 	C 	0.84580 0.84880 0.10240 -0.05400
C 	C 	0.68980 0.87590 0.13990 -0.04700
C 	C 	0.60620 0.94070 0.22310 0.03900
C 	C 	0.81880 0.94790 0.24030 0.02400
C 	C 	0.91130 0.88630 0.15510 -0.03800
C 	C 	0.46980 0.24970 0.16370 0.31100
C 	C 	0.34870 0.30940 0.09980 0.12400
C 	C 	0.37620 0.42210 0.03130 -0.43700
C 	C 	0.27980 0.49700 0.95020 0.46600
N 	N 	0.08000 0.47770 0.77430 -0.20900
N 	N 	0.33200 0.02230 0.72570 -0.21200
N 	N 	0.92000 0.52230 0.22570 -0.20900
N 	N 	0.66800 0.97770 0.27430 -0.21200
O 	O 	0.40421 0.22608 0.48530 -0.42200
O 	O 	0.17120 0.28520 0.46600 -0.44600
O 	O 	0.10524 0.70752 0.76600 -0.54000
O 	O 	0.04460 0.73790 0.61130 -0.41200
O 	O 	0.29538 0.82744 0.67660 -0.51200
O 	O 	0.22360 0.06410 0.36970 -0.47800
O 	O 	0.37861 0.00428 0.47730 -0.55300
O 	O 	0.11559 0.27392 0.01470 -0.42700
O 	O 	0.92240 0.21480 0.03400 -0.44500
O 	O 	0.57876 0.79248 0.73400 -0.54100
O 	O 	0.39380 0.76210 0.88870 -0.41200
O 	O 	0.79942 0.67256 0.82340 -0.51300
O 	O 	0.65740 0.43590 0.13030 -0.47800
O 	O 	0.86019 0.49572 0.02270 -0.55100
O 	O 	0.59579 0.77392 0.51470 -0.42200
O 	O 	0.82880 0.71480 0.53400 -0.44600
O 	O 	0.89476 0.29248 0.23400 -0.54000
O 	O 	0.95540 0.26210 0.38870 -0.41200
O 	O 	0.70462 0.17256 0.32340 -0.51200
O 	O 	0.77640 0.93590 0.63030 -0.47800
O 	O 	0.62139 0.99572 0.52270 -0.55300
O 	O 	0.88441 0.72608 0.98530 -0.42700
O 	O 	0.07760 0.78520 0.96600 -0.44500
O 	O 	0.42124 0.20752 0.26600 -0.54100
O 	O 	0.60620 0.23790 0.11130 -0.41200
O 	O 	0.20058 0.32744 0.17660 -0.51300
O 	O 	0.34260 0.56410 0.86970 -0.47800
O 	O 	0.13981 0.50428 0.97730 -0.55100
