data_crystal

_cell_length_a 12.45610
_cell_length_b 12.55950
_cell_length_c 16.59200
_cell_angle_alpha 83.27530
_cell_angle_beta  76.34110
_cell_angle_gamma 60.27190

_symmetry_space_group_name_	'P 1'
_symmetry_space_group_name_H-M	'P 1'

loop_
_symmetry_equiv_pos_as_xyz
  x,y,z

loop_
_atom_site_label
_atom_site_type_symbol
_atom_site_fract_x
_atom_site_fract_y
_atom_site_fract_z
_atom_site_charge
La	La	0.57639 0.90618 0.59998 1.69000
La	La	0.51743 0.90618 0.90002 1.68100
La	La	0.42361 0.09382 0.40002 1.69000
La	La	0.48257 0.09382 0.09998 1.68100
H 	H 	0.94910 0.79460 0.60500 0.02400
H 	H 	0.14080 0.78560 0.58830 0.06500
H 	H 	0.91020 0.78620 0.85140 0.04400
H 	H 	0.06790 0.09780 0.54240 0.02700
H 	H 	0.88550 0.10000 0.61050 0.07000
H 	H 	0.16100 0.09360 0.75780 0.06300
H 	H 	0.47000 0.33260 0.44180 0.02900
H 	H 	0.61940 0.27460 0.64170 0.03600
H 	H 	0.40240 0.53380 0.36840 0.06400
H 	H 	0.25630 0.79460 0.89500 0.01900
H 	H 	0.07360 0.78560 0.91170 0.07000
H 	H 	0.30360 0.78620 0.64860 0.04200
H 	H 	0.83430 0.09780 0.95760 0.02900
H 	H 	0.01450 0.10000 0.88950 0.07200
H 	H 	0.74540 0.09360 0.74220 0.06200
H 	H 	0.19740 0.33260 0.05820 0.03200
H 	H 	0.10600 0.27460 0.85830 0.03600
H 	H 	0.06380 0.53380 0.13160 0.06500
H 	H 	0.05090 0.20540 0.39500 0.02500
H 	H 	0.85920 0.21440 0.41170 0.06600
H 	H 	0.08980 0.21380 0.14860 0.04500
H 	H 	0.93210 0.90220 0.45760 0.02800
H 	H 	0.11450 0.90000 0.38950 0.07000
H 	H 	0.83900 0.90640 0.24220 0.06300
H 	H 	0.53000 0.66740 0.55820 0.02900
H 	H 	0.38060 0.72540 0.35830 0.03600
H 	H 	0.59760 0.46620 0.63160 0.06400
H 	H 	0.74370 0.20540 0.10500 0.01900
H 	H 	0.92640 0.21440 0.08830 0.07000
H 	H 	0.69640 0.21380 0.35140 0.04200
H 	H 	0.16570 0.90220 0.04240 0.02900
H 	H 	0.98550 0.90000 0.11050 0.07200
H 	H 	0.25460 0.90640 0.25780 0.06200
H 	H 	0.80260 0.66740 0.94180 0.03200
H 	H 	0.89400 0.72540 0.14170 0.03600
H 	H 	0.93620 0.46620 0.86840 0.06500
C 	C 	0.78350 0.80320 0.74030 0.42700
C 	C 	0.91110 0.79160 0.73110 -0.12100
C 	C 	0.98070 0.79160 0.65130 0.03200
C 	C 	0.09400 0.78760 0.64140 -0.09400
C 	C 	0.95620 0.78780 0.79860 -0.02300
C 	C 	0.14100 0.78620 0.71050 0.01900
C 	C 	0.25580 0.08580 0.59740 0.39800
C 	C 	0.13380 0.09440 0.64500 -0.10400
C 	C 	0.04880 0.09720 0.60010 0.02600
C 	C 	0.94010 0.09920 0.64060 -0.09900
C 	C 	0.10490 0.09560 0.72860 -0.03000
C 	C 	0.90880 0.09980 0.72740 0.02900
C 	C 	0.55630 0.15920 0.55380 0.37400
C 	C 	0.54420 0.28540 0.54250 -0.10800
C 	C 	0.49530 0.36000 0.47970 -0.02300
C 	C 	0.48210 0.47860 0.47110 0.02100
C 	C 	0.58400 0.32640 0.59940 0.02500
C 	C 	0.42870 0.55960 0.40660 -0.09500
C 	C 	0.41330 0.80320 0.75970 0.43100
C 	C 	0.29730 0.79160 0.76890 -0.13100
C 	C 	0.22770 0.79160 0.84870 0.04800
C 	C 	0.11840 0.78760 0.85860 -0.11100
C 	C 	0.25600 0.78780 0.70140 -0.00700
C 	C 	0.07280 0.78620 0.78950 0.03600
C 	C 	0.65840 0.08580 0.90260 0.39800
C 	C 	0.77180 0.09440 0.85500 -0.10500
C 	C 	0.85400 0.09720 0.89990 0.03000
C 	C 	0.96070 0.09920 0.85940 -0.10300
C 	C 	0.79950 0.09560 0.77140 -0.02800
C 	C 	0.99140 0.09980 0.77260 0.03100
C 	C 	0.28450 0.15920 0.94620 0.37100
C 	C 	0.17040 0.28540 0.95750 -0.09900
C 	C 	0.14470 0.36000 0.02030 -0.03400
C 	C 	0.03930 0.47860 0.02890 0.02300
C 	C 	0.08960 0.32640 0.90060 0.02500
C 	C 	0.01170 0.55960 0.09340 -0.09800
C 	C 	0.21650 0.19680 0.25970 0.42700
C 	C 	0.08890 0.20840 0.26890 -0.12100
C 	C 	0.01930 0.20840 0.34870 0.03200
C 	C 	0.90600 0.21240 0.35860 -0.09400
C 	C 	0.04380 0.21220 0.20140 -0.02300
C 	C 	0.85900 0.21380 0.28950 0.01900
C 	C 	0.74420 0.91420 0.40260 0.39800
C 	C 	0.86620 0.90560 0.35500 -0.10400
C 	C 	0.95120 0.90280 0.39990 0.02600
C 	C 	0.05990 0.90080 0.35940 -0.09900
C 	C 	0.89510 0.90440 0.27140 -0.03000
C 	C 	0.09120 0.90020 0.27260 0.02900
C 	C 	0.44370 0.84080 0.44620 0.37400
C 	C 	0.45580 0.71460 0.45750 -0.10800
C 	C 	0.50470 0.64000 0.52030 -0.02300
C 	C 	0.51790 0.52140 0.52890 0.02100
C 	C 	0.41600 0.67360 0.40060 0.02500
C 	C 	0.57130 0.44040 0.59340 -0.09500
C 	C 	0.58670 0.19680 0.24030 0.43100
C 	C 	0.70270 0.20840 0.23110 -0.13100
C 	C 	0.77230 0.20840 0.15130 0.04800
C 	C 	0.88160 0.21240 0.14140 -0.11100
C 	C 	0.74400 0.21220 0.29860 -0.00700
C 	C 	0.92720 0.21380 0.21050 0.03600
C 	C 	0.34160 0.91420 0.09740 0.39800
C 	C 	0.22820 0.90560 0.14500 -0.10500
C 	C 	0.14600 0.90280 0.10010 0.03000
C 	C 	0.03930 0.90080 0.14060 -0.10300
C 	C 	0.20050 0.90440 0.22860 -0.02800
C 	C 	0.00860 0.90020 0.22740 0.03100
C 	C 	0.71550 0.84080 0.05380 0.37100
C 	C 	0.82960 0.71460 0.04250 -0.09900
C 	C 	0.85530 0.64000 0.97970 -0.03400
C 	C 	0.96070 0.52140 0.97110 0.02300
C 	C 	0.91040 0.67360 0.09940 0.02500
C 	C 	0.98830 0.44040 0.90660 -0.09800
O 	O 	0.74130 0.82560 0.67600 -0.46200
O 	O 	0.72710 0.78920 0.81020 -0.44700
O 	O 	0.34430 0.04840 0.63510 -0.41200
O 	O 	0.26230 0.11640 0.52340 -0.44700
O 	O 	0.60930 0.09200 0.60850 -0.37500
O 	O 	0.51184 0.12612 0.50660 -0.49100
O 	O 	0.43310 0.82560 0.82400 -0.46300
O 	O 	0.48370 0.78920 0.68980 -0.44800
O 	O 	0.60730 0.04840 0.86490 -0.40900
O 	O 	0.62130 0.11640 0.97660 -0.44300
O 	O 	0.29870 0.09200 0.89150 -0.37300
O 	O 	0.36204 0.12612 0.99340 -0.48600
O 	O 	0.25870 0.17440 0.32400 -0.46200
O 	O 	0.27290 0.21080 0.18980 -0.44700
O 	O 	0.65570 0.95160 0.36490 -0.41200
O 	O 	0.73770 0.88360 0.47660 -0.44700
O 	O 	0.39070 0.90800 0.39150 -0.37500
O 	O 	0.48816 0.87388 0.49340 -0.49100
O 	O 	0.56690 0.17440 0.17600 -0.46300
O 	O 	0.51630 0.21080 0.31020 -0.44800
O 	O 	0.39270 0.95160 0.13510 -0.40900
O 	O 	0.37870 0.88360 0.02340 -0.44300
O 	O 	0.70130 0.90800 0.10850 -0.37300
O 	O 	0.63796 0.87388 0.00660 -0.48600
O 	O 	0.49320 0.01360 0.75000 -0.29700
O 	O 	0.50680 0.98640 0.25000 -0.29700
