data_crystal

_cell_length_a 28.67820
_cell_length_b 28.67820
_cell_length_c 6.52700
_cell_angle_alpha 90.00000
_cell_angle_beta  90.00000
_cell_angle_gamma 90.00000

_symmetry_space_group_name_	'P 1'
_symmetry_space_group_name_H-M	'P 1'

loop_
_symmetry_equiv_pos_as_xyz
  x,y,z

loop_
_atom_site_label
_atom_site_type_symbol
_atom_site_fract_x
_atom_site_fract_y
_atom_site_fract_z
_atom_site_charge
Cu	Cu	0.05280 0.31845 0.36733 0.65100
N 	N 	0.00940 0.36733 0.34110 -0.32600
N 	N 	0.96095 0.36111 0.34840 -0.33500
N 	N 	0.97534 0.43602 0.29790 -0.33100
C 	C 	0.01470 0.41170 0.31130 0.09200
H 	H 	0.04460 0.42580 0.29980 -0.12600
C 	C 	0.94250 0.40190 0.32150 0.05600
H 	H 	0.90990 0.40750 0.31850 -0.11200
Cu	Cu	0.55280 0.81845 0.86733 0.66700
N 	N 	0.50940 0.86733 0.84110 -0.31400
N 	N 	0.46095 0.86111 0.84840 -0.32300
N 	N 	0.47534 0.93602 0.79790 -0.31000
C 	C 	0.51470 0.91170 0.81130 0.10900
H 	H 	0.54460 0.92580 0.79980 -0.10300
C 	C 	0.44250 0.90190 0.82150 0.07200
H 	H 	0.40990 0.90750 0.81850 -0.09400
Cu	Cu	0.44720 0.68155 0.86733 0.66700
N 	N 	0.49060 0.63267 0.84110 -0.31500
N 	N 	0.53905 0.63889 0.84840 -0.32400
N 	N 	0.52466 0.56398 0.79790 -0.32100
C 	C 	0.48530 0.58830 0.81130 0.10800
H 	H 	0.45540 0.57420 0.79980 -0.11100
C 	C 	0.55750 0.59810 0.82150 0.07000
H 	H 	0.59010 0.59250 0.81850 -0.10000
Cu	Cu	0.94720 0.18155 0.36733 0.65100
N 	N 	0.99060 0.13267 0.34110 -0.32600
N 	N 	0.03905 0.13889 0.34840 -0.33400
N 	N 	0.02466 0.06398 0.29790 -0.33400
C 	C 	0.98530 0.08830 0.31130 0.09300
H 	H 	0.95540 0.07420 0.29980 -0.12900
C 	C 	0.05750 0.09810 0.32150 0.05600
H 	H 	0.09010 0.09250 0.31850 -0.11500
Cu	Cu	0.44720 0.31845 0.63267 0.66700
N 	N 	0.49060 0.36733 0.65890 -0.31500
N 	N 	0.53905 0.36111 0.65160 -0.32400
N 	N 	0.52466 0.43602 0.70210 -0.32200
C 	C 	0.48530 0.41170 0.68870 0.10800
H 	H 	0.45540 0.42580 0.70020 -0.11100
C 	C 	0.55750 0.40190 0.67850 0.07000
H 	H 	0.59010 0.40750 0.68150 -0.10000
Cu	Cu	0.94720 0.81845 0.13267 0.65200
N 	N 	0.99060 0.86733 0.15890 -0.32500
N 	N 	0.03905 0.86111 0.15160 -0.33400
N 	N 	0.02466 0.93602 0.20210 -0.31900
C 	C 	0.98530 0.91170 0.18870 0.09400
H 	H 	0.95540 0.92580 0.20020 -0.11600
C 	C 	0.05750 0.90190 0.17850 0.05800
H 	H 	0.09010 0.90750 0.18150 -0.10500
Cu	Cu	0.05280 0.68155 0.13267 0.65200
N 	N 	0.00940 0.63267 0.15890 -0.32600
N 	N 	0.96095 0.63889 0.15160 -0.33400
N 	N 	0.97534 0.56398 0.20210 -0.33000
C 	C 	0.01470 0.58830 0.18870 0.09300
H 	H 	0.04460 0.57420 0.20020 -0.12400
C 	C 	0.94250 0.59810 0.17850 0.05700
H 	H 	0.90990 0.59250 0.18150 -0.11100
Cu	Cu	0.55280 0.18155 0.63267 0.66600
N 	N 	0.50940 0.13267 0.65890 -0.31500
N 	N 	0.46095 0.13889 0.65160 -0.32400
N 	N 	0.47534 0.06398 0.70210 -0.32500
C 	C 	0.51470 0.08830 0.68870 0.10800
H 	H 	0.54460 0.07420 0.70020 -0.11600
C 	C 	0.44250 0.09810 0.67850 0.06900
H 	H 	0.40990 0.09250 0.68150 -0.10500
Cu	Cu	0.06845 0.19720 0.38267 0.65200
N 	N 	0.11733 0.24060 0.40890 -0.32500
N 	N 	0.11111 0.28905 0.40160 -0.33400
N 	N 	0.18602 0.27466 0.45210 -0.32700
C 	C 	0.16170 0.23530 0.43870 0.09400
H 	H 	0.17580 0.20540 0.45020 -0.12100
C 	C 	0.15190 0.30750 0.42850 0.05700
H 	H 	0.15750 0.34010 0.43150 -0.10800
Cu	Cu	0.56845 0.69720 0.88267 0.66700
N 	N 	0.61733 0.74060 0.90890 -0.31400
N 	N 	0.61111 0.78905 0.90160 -0.32300
N 	N 	0.68602 0.77466 0.95210 -0.31000
C 	C 	0.66170 0.73530 0.93870 0.10800
H 	H 	0.67580 0.70540 0.95020 -0.10600
C 	C 	0.65190 0.80750 0.92850 0.07100
H 	H 	0.65750 0.84010 0.93150 -0.09200
Cu	Cu	0.43155 0.80280 0.88267 0.66800
N 	N 	0.38267 0.75940 0.90890 -0.31400
N 	N 	0.38889 0.71095 0.90160 -0.32400
N 	N 	0.31398 0.72534 0.95210 -0.31100
C 	C 	0.33830 0.76470 0.93870 0.10800
H 	H 	0.32420 0.79460 0.95020 -0.10400
C 	C 	0.34810 0.69250 0.92850 0.07100
H 	H 	0.34250 0.65990 0.93150 -0.09500
Cu	Cu	0.93155 0.30280 0.38267 0.65200
N 	N 	0.88267 0.25940 0.40890 -0.32500
N 	N 	0.88889 0.21095 0.40160 -0.33400
N 	N 	0.81398 0.22534 0.45210 -0.32700
C 	C 	0.83830 0.26470 0.43870 0.09400
H 	H 	0.82420 0.29460 0.45020 -0.12000
C 	C 	0.84810 0.19250 0.42850 0.05700
H 	H 	0.84250 0.15990 0.43150 -0.11100
Cu	Cu	0.43155 0.19720 0.61733 0.66600
N 	N 	0.38267 0.24060 0.59110 -0.31500
N 	N 	0.38889 0.28905 0.59840 -0.32400
N 	N 	0.31398 0.27466 0.54790 -0.32400
C 	C 	0.33830 0.23530 0.56130 0.10800
H 	H 	0.32420 0.20540 0.54980 -0.11600
C 	C 	0.34810 0.30750 0.57150 0.07000
H 	H 	0.34250 0.34010 0.56850 -0.10300
Cu	Cu	0.93155 0.69720 0.11733 0.65100
N 	N 	0.88267 0.74060 0.09110 -0.32600
N 	N 	0.88889 0.78905 0.09840 -0.33400
N 	N 	0.81398 0.77466 0.04790 -0.33200
C 	C 	0.83830 0.73530 0.06130 0.09300
H 	H 	0.82420 0.70540 0.04980 -0.12800
C 	C 	0.84810 0.80750 0.07150 0.05600
H 	H 	0.84250 0.84010 0.06850 -0.11100
Cu	Cu	0.06845 0.80280 0.11733 0.65200
N 	N 	0.11733 0.75940 0.09110 -0.32500
N 	N 	0.11111 0.71095 0.09840 -0.33400
N 	N 	0.18602 0.72534 0.04790 -0.33200
C 	C 	0.16170 0.76470 0.06130 0.09300
H 	H 	0.17580 0.79460 0.04980 -0.12600
C 	C 	0.15190 0.69250 0.07150 0.05600
H 	H 	0.15750 0.65990 0.06850 -0.11400
Cu	Cu	0.56845 0.30280 0.61733 0.66700
N 	N 	0.61733 0.25940 0.59110 -0.31500
N 	N 	0.61111 0.21095 0.59840 -0.32400
N 	N 	0.68602 0.22534 0.54790 -0.32400
C 	C 	0.66170 0.26470 0.56130 0.10800
H 	H 	0.67580 0.29460 0.54980 -0.11500
C 	C 	0.65190 0.19250 0.57150 0.07000
H 	H 	0.65750 0.15990 0.56850 -0.10600
Cu	Cu	0.96884 0.50000 0.25000 0.74300
Cu	Cu	0.46884 0.00000 0.75000 0.74200
Cu	Cu	0.53116 0.50000 0.75000 0.75800
Cu	Cu	0.03116 0.00000 0.25000 0.72800
Cu	Cu	0.25000 0.28116 0.50000 0.75100
Cu	Cu	0.75000 0.78116 -0.00000 0.73100
Cu	Cu	0.25000 0.71884 -0.00000 0.73000
Cu	Cu	0.75000 0.21884 0.50000 0.75100
Cu	Cu	0.93155 0.80280 0.61733 0.66700
N 	N 	0.88267 0.75940 0.59110 -0.31500
N 	N 	0.88889 0.71095 0.59840 -0.32400
N 	N 	0.81398 0.72534 0.54790 -0.32300
C 	C 	0.83830 0.76470 0.56130 0.10800
H 	H 	0.82420 0.79460 0.54980 -0.11300
C 	C 	0.84810 0.69250 0.57150 0.07000
H 	H 	0.84250 0.65990 0.56850 -0.10300
Cu	Cu	0.43155 0.30280 0.11733 0.65100
N 	N 	0.38267 0.25940 0.09110 -0.32600
N 	N 	0.38889 0.21095 0.09840 -0.33400
N 	N 	0.31398 0.22534 0.04790 -0.33300
C 	C 	0.33830 0.26470 0.06130 0.09300
H 	H 	0.32420 0.29460 0.04980 -0.12800
C 	C 	0.34810 0.19250 0.07150 0.05600
H 	H 	0.34250 0.15990 0.06850 -0.11700
Cu	Cu	0.56845 0.19720 0.11733 0.65100
N 	N 	0.61733 0.24060 0.09110 -0.32600
N 	N 	0.61111 0.28905 0.09840 -0.33400
N 	N 	0.68602 0.27466 0.04790 -0.33300
C 	C 	0.66170 0.23530 0.06130 0.09300
H 	H 	0.67580 0.20540 0.04980 -0.12900
C 	C 	0.65190 0.30750 0.07150 0.05600
H 	H 	0.65750 0.34010 0.06850 -0.11400
Cu	Cu	0.06845 0.69720 0.61733 0.66700
N 	N 	0.11733 0.74060 0.59110 -0.31500
N 	N 	0.11111 0.78905 0.59840 -0.32300
N 	N 	0.18602 0.77466 0.54790 -0.32300
C 	C 	0.16170 0.73530 0.56130 0.10800
H 	H 	0.17580 0.70540 0.54980 -0.11400
C 	C 	0.15190 0.80750 0.57150 0.07000
H 	H 	0.15750 0.84010 0.56850 -0.10000
Cu	Cu	0.56845 0.80280 0.38267 0.65300
N 	N 	0.61733 0.75940 0.40890 -0.32500
N 	N 	0.61111 0.71095 0.40160 -0.33400
N 	N 	0.68602 0.72534 0.45210 -0.32600
C 	C 	0.66170 0.76470 0.43870 0.09400
H 	H 	0.67580 0.79460 0.45020 -0.11800
C 	C 	0.65190 0.69250 0.42850 0.05700
H 	H 	0.65750 0.65990 0.43150 -0.10800
Cu	Cu	0.06845 0.30280 0.88267 0.66800
N 	N 	0.11733 0.25940 0.90890 -0.31400
N 	N 	0.11111 0.21095 0.90160 -0.32400
N 	N 	0.18602 0.22534 0.95210 -0.31200
C 	C 	0.16170 0.26470 0.93870 0.10800
H 	H 	0.17580 0.29460 0.95020 -0.10600
C 	C 	0.15190 0.19250 0.92850 0.07100
H 	H 	0.15750 0.15990 0.93150 -0.09800
Cu	Cu	0.93155 0.19720 0.88267 0.66700
N 	N 	0.88267 0.24060 0.90890 -0.31400
N 	N 	0.88889 0.28905 0.90160 -0.32300
N 	N 	0.81398 0.27466 0.95210 -0.31100
C 	C 	0.83830 0.23530 0.93870 0.10800
H 	H 	0.82420 0.20540 0.95020 -0.10800
C 	C 	0.84810 0.30750 0.92850 0.07100
H 	H 	0.84250 0.34010 0.93150 -0.09500
Cu	Cu	0.43155 0.69720 0.38267 0.65200
N 	N 	0.38267 0.74060 0.40890 -0.32500
N 	N 	0.38889 0.78905 0.40160 -0.33300
N 	N 	0.31398 0.77466 0.45210 -0.32600
C 	C 	0.33830 0.73530 0.43870 0.09400
H 	H 	0.32420 0.70540 0.45020 -0.12000
C 	C 	0.34810 0.80750 0.42850 0.05800
H 	H 	0.34250 0.84010 0.43150 -0.10500
Cu	Cu	0.94720 0.68155 0.63267 0.66700
N 	N 	0.99060 0.63267 0.65890 -0.31500
N 	N 	0.03905 0.63889 0.65160 -0.32400
N 	N 	0.02466 0.56398 0.70210 -0.32200
C 	C 	0.98530 0.58830 0.68870 0.10800
H 	H 	0.95540 0.57420 0.70020 -0.11100
C 	C 	0.05750 0.59810 0.67850 0.07000
H 	H 	0.09010 0.59250 0.68150 -0.10000
Cu	Cu	0.44720 0.18155 0.13267 0.65100
N 	N 	0.49060 0.13267 0.15890 -0.32600
N 	N 	0.53905 0.13889 0.15160 -0.33400
N 	N 	0.52466 0.06398 0.20210 -0.33400
C 	C 	0.48530 0.08830 0.18870 0.09300
H 	H 	0.45540 0.07420 0.20020 -0.12900
C 	C 	0.55750 0.09810 0.17850 0.05600
H 	H 	0.59010 0.09250 0.18150 -0.11500
Cu	Cu	0.55280 0.31845 0.13267 0.65200
N 	N 	0.50940 0.36733 0.15890 -0.32600
N 	N 	0.46095 0.36111 0.15160 -0.33400
N 	N 	0.47534 0.43602 0.20210 -0.33000
C 	C 	0.51470 0.41170 0.18870 0.09300
H 	H 	0.54460 0.42580 0.20020 -0.12400
C 	C 	0.44250 0.40190 0.17850 0.05700
H 	H 	0.40990 0.40750 0.18150 -0.11100
Cu	Cu	0.05280 0.81845 0.63267 0.66700
N 	N 	0.00940 0.86733 0.65890 -0.31400
N 	N 	0.96095 0.86111 0.65160 -0.32400
N 	N 	0.97534 0.93602 0.70210 -0.31000
C 	C 	0.01470 0.91170 0.68870 0.10900
H 	H 	0.04460 0.92580 0.70020 -0.10300
C 	C 	0.94250 0.90190 0.67850 0.07200
H 	H 	0.90990 0.90750 0.68150 -0.09400
Cu	Cu	0.55280 0.68155 0.36733 0.65200
N 	N 	0.50940 0.63267 0.34110 -0.32500
N 	N 	0.46095 0.63889 0.34840 -0.33400
N 	N 	0.47534 0.56398 0.29790 -0.33000
C 	C 	0.51470 0.58830 0.31130 0.09300
H 	H 	0.54460 0.57420 0.29980 -0.12500
C 	C 	0.44250 0.59810 0.32150 0.05700
H 	H 	0.40990 0.59250 0.31850 -0.11100
Cu	Cu	0.05280 0.18155 0.86733 0.66700
N 	N 	0.00940 0.13267 0.84110 -0.31500
N 	N 	0.96095 0.13889 0.84840 -0.32400
N 	N 	0.97534 0.06398 0.79790 -0.32500
C 	C 	0.01470 0.08830 0.81130 0.10800
H 	H 	0.04460 0.07420 0.79980 -0.11600
C 	C 	0.94250 0.09810 0.82150 0.06900
H 	H 	0.90990 0.09250 0.81850 -0.10400
Cu	Cu	0.94720 0.31845 0.86733 0.66700
N 	N 	0.99060 0.36733 0.84110 -0.31400
N 	N 	0.03905 0.36111 0.84840 -0.32300
N 	N 	0.02466 0.43602 0.79790 -0.32100
C 	C 	0.98530 0.41170 0.81130 0.10800
H 	H 	0.95540 0.42580 0.79980 -0.11100
C 	C 	0.05750 0.40190 0.82150 0.07000
H 	H 	0.09010 0.40750 0.81850 -0.10000
Cu	Cu	0.44720 0.81845 0.36733 0.65200
N 	N 	0.49060 0.86733 0.34110 -0.32500
N 	N 	0.53905 0.86111 0.34840 -0.33300
N 	N 	0.52466 0.93602 0.29790 -0.31800
C 	C 	0.48530 0.91170 0.31130 0.09400
H 	H 	0.45540 0.92580 0.29980 -0.11700
C 	C 	0.55750 0.90190 0.32150 0.05800
H 	H 	0.59010 0.90750 0.31850 -0.10500
Cu	Cu	0.75000 0.71884 0.50000 0.75200
Cu	Cu	0.25000 0.21884 -0.00000 0.72900
Cu	Cu	0.75000 0.28116 -0.00000 0.73000
Cu	Cu	0.25000 0.78116 0.50000 0.75300
Cu	Cu	0.03116 0.50000 0.75000 0.75800
Cu	Cu	0.53116 0.00000 0.25000 0.72800
Cu	Cu	0.46884 0.50000 0.25000 0.74300
Cu	Cu	0.96884 0.00000 0.75000 0.74200
