data_crystal

_cell_length_a 7.40220
_cell_length_b 11.08530
_cell_length_c 19.29320
_cell_angle_alpha 90.00000
_cell_angle_beta  90.00000
_cell_angle_gamma 90.00000

_symmetry_space_group_name_	'P 1'
_symmetry_space_group_name_H-M	'P 1'

loop_
_symmetry_equiv_pos_as_xyz
  x,y,z

loop_
_atom_site_label
_atom_site_type_symbol
_atom_site_fract_x
_atom_site_fract_y
_atom_site_fract_z
_atom_site_charge
N 	N 	0.15980 0.06700 0.84010 -0.23200
N 	N 	0.84500 0.93110 0.98770 -0.19600
C 	C 	0.10400 0.12480 0.78430 -0.04500
H 	H 	0.98370 0.13680 0.77210 -0.02600
C 	C 	0.89060 0.86920 0.04400 0.14700
H 	H 	0.01000 0.85380 0.05620 -0.11300
N 	N 	0.65980 0.56700 0.34010 -0.22200
N 	N 	0.34500 0.43110 0.48770 -0.23900
C 	C 	0.60400 0.62480 0.28430 0.05900
H 	H 	0.48370 0.63680 0.27210 -0.06700
C 	C 	0.39060 0.36920 0.54400 0.07000
H 	H 	0.51000 0.35380 0.55620 -0.08300
N 	N 	0.84020 0.93300 0.84010 -0.19600
N 	N 	0.15500 0.06890 0.98770 -0.23900
C 	C 	0.89600 0.87520 0.78430 0.15100
H 	H 	0.01630 0.86320 0.77210 -0.10700
C 	C 	0.10940 0.13080 0.04400 -0.03400
H 	H 	0.99000 0.14620 0.05620 -0.03300
N 	N 	0.34020 0.43300 0.34010 -0.22600
N 	N 	0.65500 0.56890 0.48770 -0.23500
C 	C 	0.39600 0.37520 0.28430 0.04900
H 	H 	0.51630 0.36320 0.27210 -0.07500
C 	C 	0.60940 0.63080 0.54400 0.07800
H 	H 	0.49000 0.64620 0.55620 -0.07400
N 	N 	0.65980 0.93300 0.84010 -0.19200
N 	N 	0.34500 0.06890 0.98770 -0.24600
C 	C 	0.60400 0.87520 0.78430 0.07100
H 	H 	0.48370 0.86320 0.77210 -0.05300
C 	C 	0.39060 0.13080 0.04400 0.04800
H 	H 	0.51000 0.14620 0.05620 -0.09000
N 	N 	0.15980 0.43300 0.34010 -0.21800
N 	N 	0.84500 0.56890 0.48770 -0.23800
C 	C 	0.10400 0.37520 0.28430 -0.03300
H 	H 	0.98370 0.36320 0.27210 -0.01900
C 	C 	0.89060 0.63080 0.54400 0.16000
H 	H 	0.01000 0.64620 0.55620 -0.13000
N 	N 	0.34020 0.06700 0.84010 -0.24000
N 	N 	0.65500 0.93110 0.98770 -0.19400
C 	C 	0.39600 0.12480 0.78430 0.03900
H 	H 	0.51630 0.13680 0.77210 -0.08400
C 	C 	0.60940 0.86920 0.04400 0.06900
H 	H 	0.49000 0.85380 0.05620 -0.06000
N 	N 	0.84020 0.56700 0.34010 -0.22600
N 	N 	0.15500 0.43110 0.48770 -0.23100
C 	C 	0.89600 0.62480 0.28430 0.14000
H 	H 	0.01630 0.63680 0.27210 -0.12100
C 	C 	0.10940 0.36920 0.54400 -0.01500
H 	H 	0.99000 0.35380 0.55620 -0.02600
Cu	Cu	-0.00000 0.00000 0.91473 0.76100
Cu	Cu	0.50000 0.50000 0.41473 0.82200
Cu	Cu	0.50000 0.00000 0.91473 0.78000
Cu	Cu	-0.00000 0.50000 0.41473 0.80300
Cu	Cu	0.25000 0.24450 0.66273 0.75800
N 	N 	0.25000 0.16460 0.74700 -0.30200
N 	N 	0.25000 0.33070 0.58170 -0.31400
Cu	Cu	0.75000 0.74450 0.16273 0.79000
N 	N 	0.75000 0.66460 0.24700 -0.31000
N 	N 	0.75000 0.83070 0.08170 -0.31700
Cu	Cu	0.75000 0.75550 0.66273 0.79200
N 	N 	0.75000 0.83540 0.74700 -0.30800
N 	N 	0.75000 0.66930 0.58170 -0.32200
Cu	Cu	0.25000 0.25550 0.16273 0.75800
N 	N 	0.25000 0.33540 0.24700 -0.30200
N 	N 	0.25000 0.16930 0.08170 -0.31200
