data_crystal

_cell_length_a 48.56100
_cell_length_b 66.34000
_cell_length_c 10.03760
_cell_angle_alpha 90.00000
_cell_angle_beta  90.00000
_cell_angle_gamma 90.00000

_symmetry_space_group_name_	'P 1'
_symmetry_space_group_name_H-M	'P 1'

loop_
_symmetry_equiv_pos_as_xyz
  x,y,z

loop_
_atom_site_label
_atom_site_type_symbol
_atom_site_fract_x
_atom_site_fract_y
_atom_site_fract_z
_atom_site_charge
Zn	Zn	0.23525 0.09093 1.43139 1.23900
Zn	Zn	0.06307 0.01404 1.32851 1.24100
Zn	Zn	0.23064 0.13721 0.92292 1.24000
Zn	Zn	0.12618 -0.00958 1.18091 1.24000
P 	P 	0.19080 -0.00366 1.22110 0.29600
P 	P 	0.24243 0.04361 1.47449 0.11100
P 	P 	0.10206 0.03054 1.09549 0.19300
P 	P 	0.20855 0.10735 1.15093 0.19500
P 	P 	0.21190 0.12136 0.63686 0.19100
P 	P 	0.21155 0.18254 1.00918 0.31400
P 	P 	0.08587 -0.02799 1.38873 0.20000
O 	O 	0.21452 -0.02076 1.18666 -0.65200
O 	O 	0.16379 -0.01796 1.18461 -0.41400
O 	O 	0.18992 -0.00768 1.38201 -0.76500
O 	O 	0.21894 0.02631 1.44156 -0.70400
O 	O 	0.26176 -0.04348 1.13654 -0.60500
O 	O 	0.22266 0.06356 1.44435 -0.39600
O 	O 	0.12763 0.01665 1.14236 -0.45300
O 	O 	0.07761 0.01578 1.15361 -0.45100
O 	O 	0.10170 -0.02189 1.05788 -0.38800
O 	O 	0.22835 0.12574 1.09645 -0.40400
O 	O 	0.21805 0.10850 1.30782 -0.40300
O 	O 	0.27070 0.08907 1.38542 -0.40900
O 	O 	0.23365 0.10351 0.59700 -0.43400
O 	O 	0.21635 0.11943 0.79808 -0.42500
O 	O 	0.26652 0.13981 0.88236 -0.39700
O 	O 	0.24251 0.18125 1.06935 -0.45300
O 	O 	0.21525 0.16351 0.90489 -0.40700
O 	O 	0.11020 -0.01198 1.34925 -0.44600
O 	O 	0.08823 0.02471 1.44977 -0.38300
O 	O 	0.06039 -0.01238 1.36887 -0.43500
O 	O 	0.02679 0.02507 1.35006 -0.42100
O 	O 	0.02715 -0.01910 1.02281 -0.54400
O 	O 	0.22464 0.16128 1.28549 -0.49300
O 	O 	0.22410 0.20115 1.27269 -0.48800
F 	F 	0.25945 -0.00661 1.12365 -0.81500
Zn	Zn	0.23246 0.22742 0.92074 1.24200
P 	P 	-0.20976 -0.25624 0.85668 -0.01500
O 	O 	0.21800 0.20073 0.90128 -0.39800
O 	O 	0.26866 0.22554 0.88487 -0.39500
O 	O 	0.21766 0.24596 0.80105 -0.37700
O 	O 	0.22971 0.23788 1.09280 -0.36700
N 	N 	0.29851 -0.07345 1.32626 -0.17000
C 	C 	0.32625 -0.06648 1.35821 -0.02100
C 	C 	0.34732 -0.08363 1.34892 -0.09100
C 	C 	0.37604 -0.07576 1.38553 -0.03200
C 	C 	0.39840 -0.09148 1.36158 -0.15200
H 	H 	0.02669 -0.02432 1.11513 0.15700
H 	H 	0.20562 0.16639 1.27395 0.15300
H 	H 	0.21425 0.19873 1.35768 0.13900
H 	H 	0.28469 -0.06179 1.34507 -0.03100
H 	H 	0.29318 -0.08565 1.38609 0.04400
H 	H 	0.32630 -0.06000 1.46038 -0.01200
H 	H 	0.33200 -0.05455 1.28621 -0.00300
H 	H 	0.34739 -0.08972 1.24580 0.03400
H 	H 	0.34141 -0.09597 1.41839 0.03200
H 	H 	0.37625 -0.07136 1.49241 0.01600
H 	H 	0.38094 -0.06221 1.32494 0.01200
H 	H 	0.41868 -0.08499 1.38944 0.03900
H 	H 	0.39904 -0.09578 1.25477 0.03900
H 	H 	0.39464 -0.10509 1.42343 0.04200
H 	H 	0.79734 0.57739 0.77423 -0.01700
Ga	Ga	0.25000 -0.02382 1.25000 1.99800
Zn	Zn	0.25000 0.18124 1.25000 1.19500
Ga	Ga	0.21631 0.00000 0.50000 1.92900
Zn	Zn	0.00000 0.00000 1.00000 1.13300
P 	P 	-0.00000 0.02689 1.24903 0.18400
O 	O 	0.00000 0.00475 1.18089 -0.50200
H 	H 	0.00000 0.04395 1.15886 -0.08000
