data_crystal

_cell_length_a 12.32510
_cell_length_b 12.32510
_cell_length_c 6.98100
_cell_angle_alpha 90.00000
_cell_angle_beta  90.00000
_cell_angle_gamma 90.00000

_symmetry_space_group_name_	'P 1'
_symmetry_space_group_name_H-M	'P 1'

loop_
_symmetry_equiv_pos_as_xyz
  x,y,z

loop_
_atom_site_label
_atom_site_type_symbol
_atom_site_fract_x
_atom_site_fract_y
_atom_site_fract_z
_atom_site_charge
N 	N 	0.65270 0.34240 0.16950 -0.25200
C 	C 	0.59440 0.30070 0.30200 0.04500
C 	C 	0.53000 0.35790 0.43000 -0.09800
C 	C 	0.53350 0.46910 0.43200 0.02900
C 	C 	0.59440 0.51380 0.29400 -0.09600
C 	C 	0.65500 0.45120 0.17100 0.02800
H 	H 	0.59600 0.21400 0.32600 -0.01700
H 	H 	0.47500 0.31900 0.52900 0.04400
H 	H 	0.59300 0.60100 0.27900 0.03500
H 	H 	0.70600 0.49300 0.06900 -0.03300
N 	N 	0.84730 0.15760 0.16950 -0.25200
C 	C 	0.90560 0.19930 0.30200 0.04100
C 	C 	0.97000 0.14210 0.43000 -0.09200
C 	C 	0.96650 0.03090 0.43200 0.02100
C 	C 	0.90560 0.98620 0.29400 -0.08700
C 	C 	0.84500 0.04880 0.17100 0.02300
H 	H 	0.90400 0.28600 0.32600 -0.01600
H 	H 	0.02500 0.18100 0.52900 0.04100
H 	H 	0.90700 0.89900 0.27900 0.03300
H 	H 	0.79400 0.00700 0.06900 -0.03200
N 	N 	0.15760 0.65270 0.16950 -0.25200
C 	C 	0.19930 0.59440 0.30200 0.04200
C 	C 	0.14210 0.53000 0.43000 -0.09400
C 	C 	0.03090 0.53350 0.43200 0.02000
C 	C 	0.98620 0.59440 0.29400 -0.08800
C 	C 	0.04880 0.65500 0.17100 0.02300
H 	H 	0.28600 0.59600 0.32600 -0.01600
H 	H 	0.18100 0.47500 0.52900 0.04300
H 	H 	0.89900 0.59300 0.27900 0.03300
H 	H 	0.00700 0.70600 0.06900 -0.03200
N 	N 	0.34240 0.84730 0.16950 -0.25300
C 	C 	0.30070 0.90560 0.30200 0.04300
C 	C 	0.35790 0.97000 0.43000 -0.09600
C 	C 	0.46910 0.96650 0.43200 0.03000
C 	C 	0.51380 0.90560 0.29400 -0.09600
C 	C 	0.45120 0.84500 0.17100 0.02800
H 	H 	0.21400 0.90400 0.32600 -0.01700
H 	H 	0.31900 0.02500 0.52900 0.04300
H 	H 	0.60100 0.90700 0.27900 0.03500
H 	H 	0.49300 0.79400 0.06900 -0.03300
N 	N 	0.34730 0.65760 0.83050 -0.20600
C 	C 	0.40560 0.69930 0.69800 0.06800
C 	C 	0.47000 0.64210 0.57000 -0.08600
C 	C 	0.46650 0.53090 0.56800 0.02900
C 	C 	0.40560 0.48620 0.70600 -0.07900
C 	C 	0.34500 0.54880 0.82900 0.05600
H 	H 	0.40400 0.78600 0.67400 0.00700
H 	H 	0.52500 0.68100 0.47100 0.04800
H 	H 	0.40700 0.39900 0.72100 0.05000
H 	H 	0.29400 0.50700 0.93100 0.03000
N 	N 	0.15270 0.84240 0.83050 -0.20700
C 	C 	0.09440 0.80070 0.69800 0.07100
C 	C 	0.03000 0.85790 0.57000 -0.09300
C 	C 	0.03350 0.96910 0.56800 0.03700
C 	C 	0.09440 0.01380 0.70600 -0.08800
C 	C 	0.15500 0.95120 0.82900 0.06000
H 	H 	0.09600 0.71400 0.67400 0.00600
H 	H 	0.97500 0.81900 0.47100 0.05000
H 	H 	0.09300 0.10100 0.72100 0.05100
H 	H 	0.20600 0.99300 0.93100 0.02900
N 	N 	0.84240 0.34730 0.83050 -0.20700
C 	C 	0.80070 0.40560 0.69800 0.07000
C 	C 	0.85790 0.47000 0.57000 -0.09000
C 	C 	0.96910 0.46650 0.56800 0.03800
C 	C 	0.01380 0.40560 0.70600 -0.08800
C 	C 	0.95120 0.34500 0.82900 0.06000
H 	H 	0.71400 0.40400 0.67400 0.00700
H 	H 	0.81900 0.52500 0.47100 0.04900
H 	H 	0.10100 0.40700 0.72100 0.05200
H 	H 	0.99300 0.29400 0.93100 0.02900
N 	N 	0.65760 0.15270 0.83050 -0.20600
C 	C 	0.69930 0.09440 0.69800 0.06900
C 	C 	0.64210 0.03000 0.57000 -0.08900
C 	C 	0.53090 0.03350 0.56800 0.02800
C 	C 	0.48620 0.09440 0.70600 -0.07900
C 	C 	0.54880 0.15500 0.82900 0.05500
H 	H 	0.78600 0.09600 0.67400 0.00700
H 	H 	0.68100 0.97500 0.47100 0.04900
H 	H 	0.39900 0.09300 0.72100 0.04900
H 	H 	0.50700 0.20600 0.93100 0.03000
Cu	Cu	0.75000 0.25000 -0.00000 0.80300
Cu	Cu	0.25000 0.75000 -0.00000 0.80300
