data_crystal

_cell_length_a 13.93060
_cell_length_b 13.93060
_cell_length_c 24.04350
_cell_angle_alpha 90.00000
_cell_angle_beta  90.00000
_cell_angle_gamma 120.00000

_symmetry_space_group_name_	'P 1'
_symmetry_space_group_name_H-M	'P 1'

loop_
_symmetry_equiv_pos_as_xyz
  x,y,z

loop_
_atom_site_label
_atom_site_type_symbol
_atom_site_fract_x
_atom_site_fract_y
_atom_site_fract_z
_atom_site_charge
In	In	0.29304 0.44140 0.47128 1.99500
P 	P 	0.12005 0.49220 0.54439 0.41600
P 	P 	0.16657 0.19116 0.40118 0.57900
O 	O 	0.14400 0.43130 0.49840 -0.60500
O 	O 	0.18940 0.30550 0.41794 -0.55000
O 	O 	0.17250 0.47950 0.60030 -0.38000
H 	H 	0.14660 0.41350 0.60740 0.16000
H 	H 	0.38450 0.65890 0.31660 0.99200
O 	O 	0.31850 0.55550 0.40880 -0.65900
O 	O 	0.99740 0.43680 0.55500 -0.34100
O 	O 	0.14020 0.11290 0.45101 -0.66500
O 	O 	0.07150 0.14720 0.35840 -0.63000
O 	O 	0.26610 0.19560 0.36888 -0.47100
H 	H 	0.32140 0.22380 0.38870 0.20900
O 	O 	0.17310 0.61560 0.53409 -0.53000
In	In	0.55860 0.85164 0.47128 2.00900
P 	P 	0.50780 0.62785 0.54439 0.59200
P 	P 	0.80884 0.97541 0.40118 0.87800
O 	O 	0.56870 0.71270 0.49840 -0.56500
O 	O 	0.69450 0.88390 0.41794 -0.51100
O 	O 	0.52050 0.69300 0.60030 -0.38300
H 	H 	0.58650 0.73310 0.60740 0.22300
H 	H 	0.34110 0.72560 0.31660 1.00000
O 	O 	0.44450 0.76300 0.40880 -0.63100
O 	O 	0.56320 0.56060 0.55500 -0.54300
O 	O 	0.88710 0.02730 0.45101 -0.64200
O 	O 	0.85280 0.92430 0.35840 -0.37300
O 	O 	0.80440 0.07050 0.36888 -0.56700
H 	H 	0.77620 0.09760 0.38870 0.23700
O 	O 	0.38440 0.55750 0.53409 -0.51700
In	In	0.14836 0.70696 0.47128 1.98600
P 	P 	0.37215 0.87995 0.54439 0.76900
P 	P 	0.02459 0.83343 0.40118 0.26700
O 	O 	0.28730 0.85600 0.49840 -0.56700
O 	O 	0.11610 0.81060 0.41794 -0.48800
O 	O 	0.30700 0.82750 0.60030 -0.40800
H 	H 	0.26690 0.85340 0.60740 0.24200
H 	H 	0.27440 0.61550 0.31660 0.96800
O 	O 	0.23700 0.68150 0.40880 -0.65900
O 	O 	0.43940 0.00260 0.55500 -0.74600
O 	O 	0.97270 0.85980 0.45101 -0.27800
O 	O 	0.07570 0.92850 0.35840 -0.39800
O 	O 	0.92950 0.73390 0.36888 -0.20200
H 	H 	0.90240 0.67860 0.38870 0.15800
O 	O 	0.44250 0.82690 0.53409 -0.50700
In	In	0.55860 0.70696 0.02872 1.99200
P 	P 	0.50780 0.87995 0.95561 0.79600
P 	P 	0.80884 0.83343 0.09882 0.57300
O 	O 	0.56870 0.85600 0.00160 -0.59100
O 	O 	0.69450 0.81060 0.08206 -0.49100
O 	O 	0.52050 0.82750 0.89970 -0.40200
H 	H 	0.58650 0.85340 0.89260 0.25700
H 	H 	0.34110 0.61550 0.18340 0.98000
O 	O 	0.44450 0.68150 0.09120 -0.64600
O 	O 	0.56320 0.00260 0.94500 -0.73600
O 	O 	0.88710 0.85980 0.04899 -0.41600
O 	O 	0.85280 0.92850 0.14160 -0.31700
O 	O 	0.80440 0.73390 0.13112 -0.36100
H 	H 	0.77620 0.67860 0.11130 0.19200
O 	O 	0.38440 0.82690 0.96591 -0.48800
In	In	0.14836 0.44140 0.02872 1.97800
P 	P 	0.37215 0.49220 0.95561 0.62300
P 	P 	0.02459 0.19116 0.09882 0.23400
O 	O 	0.28730 0.43130 0.00160 -0.63000
O 	O 	0.11610 0.30550 0.08206 -0.52600
O 	O 	0.30700 0.47950 0.89970 -0.40100
H 	H 	0.26690 0.41350 0.89260 0.19600
H 	H 	0.27440 0.65890 0.18340 0.97300
O 	O 	0.23700 0.55550 0.09120 -0.67300
O 	O 	0.43940 0.43680 0.94500 -0.53700
O 	O 	0.97270 0.11290 0.04899 -0.39000
O 	O 	0.07570 0.14720 0.14160 -0.56600
O 	O 	0.92950 0.19560 0.13112 -0.23200
H 	H 	0.90240 0.22380 0.11130 0.15700
O 	O 	0.44250 0.61560 0.96591 -0.50400
In	In	0.29304 0.85164 0.02872 2.00200
P 	P 	0.12005 0.62785 0.95561 0.45800
P 	P 	0.16657 0.97541 0.09882 0.91300
O 	O 	0.14400 0.71270 0.00160 -0.62700
O 	O 	0.18940 0.88390 0.08206 -0.55000
O 	O 	0.17250 0.69300 0.89970 -0.37800
H 	H 	0.14660 0.73310 0.89260 0.18300
H 	H 	0.38450 0.72560 0.18340 1.00400
O 	O 	0.31850 0.76300 0.09120 -0.64500
O 	O 	0.99740 0.56060 0.94500 -0.34400
O 	O 	0.14020 0.02730 0.04899 -0.81300
O 	O 	0.07150 0.92430 0.14160 -0.52300
O 	O 	0.26610 0.07050 0.13112 -0.64300
H 	H 	0.32140 0.09760 0.11130 0.24800
O 	O 	0.17310 0.55750 0.96591 -0.51400
In	In	0.70696 0.55860 0.52872 1.99800
P 	P 	0.87995 0.50780 0.45561 0.76600
P 	P 	0.83343 0.80884 0.59882 0.57400
O 	O 	0.85600 0.56870 0.50160 -0.55500
O 	O 	0.81060 0.69450 0.58206 -0.48500
O 	O 	0.82750 0.52050 0.39970 -0.39900
H 	H 	0.85340 0.58650 0.39260 0.25300
H 	H 	0.61550 0.34110 0.68340 0.98100
O 	O 	0.68150 0.44450 0.59120 -0.64100
O 	O 	0.00260 0.56320 0.44500 -0.74200
O 	O 	0.85980 0.88710 0.54899 -0.40300
O 	O 	0.92850 0.85280 0.64160 -0.31700
O 	O 	0.73390 0.80440 0.63112 -0.36100
H 	H 	0.67860 0.77620 0.61130 0.19400
O 	O 	0.82690 0.38440 0.46591 -0.50400
In	In	0.44140 0.14836 0.52872 1.98400
P 	P 	0.49220 0.37215 0.45561 0.59200
P 	P 	0.19116 0.02459 0.59882 0.23900
O 	O 	0.43130 0.28730 0.50160 -0.59400
O 	O 	0.30550 0.11610 0.58206 -0.52000
O 	O 	0.47950 0.30700 0.39970 -0.39800
H 	H 	0.41350 0.26690 0.39260 0.19200
H 	H 	0.65890 0.27440 0.68340 0.97400
O 	O 	0.55550 0.23700 0.59120 -0.66800
O 	O 	0.43680 0.43940 0.44500 -0.54400
O 	O 	0.11290 0.97270 0.54899 -0.38100
O 	O 	0.14720 0.07570 0.64160 -0.56600
O 	O 	0.19560 0.92950 0.63112 -0.23400
H 	H 	0.22380 0.90240 0.61130 0.15900
O 	O 	0.61560 0.44250 0.46591 -0.51900
In	In	0.85164 0.29304 0.52872 2.00800
P 	P 	0.62785 0.12005 0.45561 0.42000
P 	P 	0.97541 0.16657 0.59882 0.91700
O 	O 	0.71270 0.14400 0.50160 -0.58900
O 	O 	0.88390 0.18940 0.58206 -0.54400
O 	O 	0.69300 0.17250 0.39970 -0.37400
H 	H 	0.73310 0.14660 0.39260 0.17800
H 	H 	0.72560 0.38450 0.68340 1.00500
O 	O 	0.76300 0.31850 0.59120 -0.64000
O 	O 	0.56060 0.99740 0.44500 -0.34500
O 	O 	0.02730 0.14020 0.54899 -0.80100
O 	O 	0.92430 0.07150 0.64160 -0.52100
O 	O 	0.07050 0.26610 0.63112 -0.64400
H 	H 	0.09760 0.32140 0.61130 0.25000
O 	O 	0.55750 0.17310 0.46591 -0.53000
In	In	0.44140 0.29304 0.97128 2.00100
P 	P 	0.49220 0.12005 0.04439 0.39100
P 	P 	0.19116 0.16657 0.90118 0.58000
O 	O 	0.43130 0.14400 0.99840 -0.57000
O 	O 	0.30550 0.18940 0.91794 -0.54400
O 	O 	0.47950 0.17250 0.10030 -0.37800
H 	H 	0.41350 0.14660 0.10740 0.15700
H 	H 	0.65890 0.38450 0.81660 0.99200
O 	O 	0.55550 0.31850 0.90880 -0.65400
O 	O 	0.43680 0.99740 0.05500 -0.35100
O 	O 	0.11290 0.14020 0.95101 -0.64500
O 	O 	0.14720 0.07150 0.85840 -0.62800
O 	O 	0.19560 0.26610 0.86888 -0.47000
H 	H 	0.22380 0.32140 0.88870 0.21200
O 	O 	0.61560 0.17310 0.03409 -0.54200
In	In	0.85164 0.55860 0.97128 2.01400
P 	P 	0.62785 0.50780 0.04439 0.56500
P 	P 	0.97541 0.80884 0.90118 0.87200
O 	O 	0.71270 0.56870 0.99840 -0.53100
O 	O 	0.88390 0.69450 0.91794 -0.50600
O 	O 	0.69300 0.52050 0.10030 -0.38100
H 	H 	0.73310 0.58650 0.10740 0.22000
H 	H 	0.72560 0.34110 0.81660 1.00000
O 	O 	0.76300 0.44450 0.90880 -0.62700
O 	O 	0.56060 0.56320 0.05500 -0.55000
O 	O 	0.02730 0.88710 0.95101 -0.62000
O 	O 	0.92430 0.85280 0.85840 -0.37300
O 	O 	0.07050 0.80440 0.86888 -0.56300
H 	H 	0.09760 0.77620 0.88870 0.23900
O 	O 	0.55750 0.38440 0.03409 -0.53100
In	In	0.70696 0.14836 0.97128 1.99200
P 	P 	0.87995 0.37215 0.04439 0.74600
P 	P 	0.83343 0.02459 0.90118 0.26700
O 	O 	0.85600 0.28730 0.99840 -0.53600
O 	O 	0.81060 0.11610 0.91794 -0.48300
O 	O 	0.82750 0.30700 0.10030 -0.40600
H 	H 	0.85340 0.26690 0.10740 0.24000
H 	H 	0.61550 0.27440 0.81660 0.96900
O 	O 	0.68150 0.23700 0.90880 -0.65400
O 	O 	0.00260 0.43940 0.05500 -0.75600
O 	O 	0.85980 0.97270 0.95101 -0.26300
O 	O 	0.92850 0.07570 0.85840 -0.39900
O 	O 	0.73390 0.92950 0.86888 -0.20200
H 	H 	0.67860 0.90240 0.88870 0.16000
O 	O 	0.82690 0.44250 0.03409 -0.52000
In	In	0.00000 0.00000 0.50000 1.88400
In	In	-0.00000 0.00000 -0.00000 1.87400
In	In	0.00000 0.00000 0.31507 1.91800
In	In	0.00000 0.00000 0.18493 1.91800
In	In	0.00000 0.00000 0.68493 1.91900
In	In	0.00000 0.00000 0.81507 1.91900
P 	P 	0.33333 0.66667 0.39315 1.04700
O 	O 	0.33333 0.66667 0.32800 -2.76200
P 	P 	0.33333 0.66667 0.10685 1.04500
O 	O 	0.33333 0.66667 0.17200 -2.75900
P 	P 	0.66667 0.33333 0.60685 1.04700
O 	O 	0.66667 0.33333 0.67200 -2.76200
P 	P 	0.66667 0.33333 0.89315 1.04900
O 	O 	0.66667 0.33333 0.82800 -2.76400
F 	F 	0.12340 0.06170 0.25000 -0.84200
F 	F 	0.93830 0.06170 0.25000 -0.66300
F 	F 	0.93830 0.87660 0.25000 -0.52000
F 	F 	0.87660 0.93830 0.75000 -0.52100
F 	F 	0.06170 0.93830 0.75000 -0.66400
F 	F 	0.06170 0.12340 0.75000 -0.84100
