data_crystal

_cell_length_a 18.56760
_cell_length_b 18.56760
_cell_length_c 20.43860
_cell_angle_alpha 62.98470
_cell_angle_beta  62.98470
_cell_angle_gamma 60.00000

_symmetry_space_group_name_	'P 1'
_symmetry_space_group_name_H-M	'P 1'

loop_
_symmetry_equiv_pos_as_xyz
  x,y,z

loop_
_atom_site_label
_atom_site_type_symbol
_atom_site_fract_x
_atom_site_fract_y
_atom_site_fract_z
_atom_site_charge
Cu	Cu	0.49723 0.06845 0.93778 0.90800
Cu	Cu	0.06845 0.49654 0.93778 0.90800
Cu	Cu	0.49654 0.49723 0.93778 0.90800
Cu	Cu	0.50277 0.50346 0.06222 0.90800
Cu	Cu	0.93155 0.50277 0.06222 0.90700
Cu	Cu	0.50346 0.93155 0.06222 0.90700
H 	H 	0.77250 0.77200 0.99070 0.06000
H 	H 	0.76490 0.97610 0.79750 0.06300
H 	H 	0.97950 0.76160 0.80170 0.07200
H 	H 	0.93820 0.81320 0.67120 0.09300
H 	H 	0.89150 0.00850 0.77710 0.12700
H 	H 	0.95840 0.20110 0.59830 0.12800
H 	H 	0.99350 0.12880 0.51430 0.04300
H 	H 	0.77200 0.46480 0.99070 0.06100
H 	H 	0.97610 0.46150 0.79750 0.06300
H 	H 	0.76160 0.45720 0.80170 0.07300
H 	H 	0.81320 0.57740 0.67120 0.09300
H 	H 	0.00850 0.32290 0.77710 0.12900
H 	H 	0.20110 0.24220 0.59830 0.13000
H 	H 	0.12880 0.36340 0.51430 0.03900
H 	H 	0.46480 0.77250 0.99070 0.06100
H 	H 	0.46150 0.76490 0.79750 0.06400
H 	H 	0.45720 0.97950 0.80170 0.07300
H 	H 	0.57740 0.93820 0.67120 0.09200
H 	H 	0.32290 0.89150 0.77710 0.13000
H 	H 	0.24220 0.95840 0.59830 0.13100
H 	H 	0.36340 0.99350 0.51430 0.03800
H 	H 	0.22750 0.53520 0.00930 0.06100
H 	H 	0.23510 0.53850 0.20250 0.06400
H 	H 	0.02050 0.54280 0.19830 0.07300
H 	H 	0.06180 0.42260 0.32880 0.09200
H 	H 	0.10850 0.67710 0.22290 0.13000
H 	H 	0.04160 0.75780 0.40170 0.13100
H 	H 	0.00650 0.63660 0.48570 0.03800
H 	H 	0.22800 0.22750 0.00930 0.06000
H 	H 	0.02390 0.23510 0.20250 0.06300
H 	H 	0.23840 0.02050 0.19830 0.07200
H 	H 	0.18680 0.06180 0.32880 0.09300
H 	H 	0.99150 0.10850 0.22290 0.12700
H 	H 	0.79890 0.04160 0.40170 0.12800
H 	H 	0.87120 0.00650 0.48570 0.04300
H 	H 	0.53520 0.22800 0.00930 0.06100
H 	H 	0.53850 0.02390 0.20250 0.06300
H 	H 	0.54280 0.23840 0.19830 0.07300
H 	H 	0.42260 0.18680 0.32880 0.09300
H 	H 	0.67710 0.99150 0.22290 0.12900
H 	H 	0.75780 0.79890 0.40170 0.13000
H 	H 	0.63660 0.87120 0.48570 0.03900
C 	C 	0.93139 0.65689 0.93793 0.33500
C 	C 	0.88411 0.75261 0.90007 -0.05300
C 	C 	0.79734 0.79844 0.93958 0.02100
C 	C 	0.75138 0.87868 0.90406 -0.08200
C 	C 	0.66085 0.92195 0.94195 0.36700
C 	C 	0.79469 0.91929 0.82273 -0.03000
C 	C 	0.87683 0.87513 0.78451 0.01500
C 	C 	0.92222 0.79132 0.82564 -0.03400
C 	C 	0.92344 0.90974 0.70258 0.01500
C 	C 	0.94452 0.86642 0.65224 -0.12400
C 	C 	0.97507 0.90247 0.57349 0.12300
C 	C 	0.98454 0.98184 0.54508 -0.01900
C 	C 	0.96356 0.02516 0.59542 -0.00000
C 	C 	0.93301 0.98911 0.67417 0.05600
C 	C 	0.91192 0.03252 0.72454 -0.16300
C 	C 	0.92150 0.11190 0.69610 0.21500
C 	C 	0.95190 0.14800 0.61750 -0.15000
C 	C 	0.97302 0.10462 0.56704 0.02500
C 	C 	0.65689 0.47379 0.93793 0.35100
C 	C 	0.75261 0.46321 0.90007 -0.05600
C 	C 	0.79844 0.46464 0.93958 0.02400
C 	C 	0.87868 0.46588 0.90406 -0.08400
C 	C 	0.92195 0.47525 0.94195 0.37100
C 	C 	0.91929 0.46329 0.82273 -0.02900
C 	C 	0.87513 0.46353 0.78451 0.01600
C 	C 	0.79132 0.46082 0.82564 -0.03200
C 	C 	0.90974 0.46424 0.70258 0.01200
C 	C 	0.86642 0.53682 0.65224 -0.12200
C 	C 	0.90247 0.54897 0.57349 0.12400
C 	C 	0.98184 0.48854 0.54508 -0.01600
C 	C 	0.02516 0.41586 0.59542 -0.01000
C 	C 	0.98911 0.40371 0.67417 0.06700
C 	C 	0.03252 0.33102 0.72454 -0.17300
C 	C 	0.11190 0.27050 0.69610 0.22000
C 	C 	0.14800 0.28260 0.61750 -0.15600
C 	C 	0.10462 0.35532 0.56704 0.03200
C 	C 	0.47379 0.93139 0.93793 0.34100
C 	C 	0.46321 0.88411 0.90007 -0.05400
C 	C 	0.46464 0.79734 0.93958 0.02400
C 	C 	0.46588 0.75138 0.90406 -0.08500
C 	C 	0.47525 0.66085 0.94195 0.38200
C 	C 	0.46329 0.79469 0.82273 -0.02900
C 	C 	0.46353 0.87683 0.78451 0.01800
C 	C 	0.46082 0.92222 0.82564 -0.03400
C 	C 	0.46424 0.92344 0.70258 0.00800
C 	C 	0.53682 0.94452 0.65224 -0.11800
C 	C 	0.54897 0.97507 0.57349 0.12100
C 	C 	0.48854 0.98454 0.54508 -0.01000
C 	C 	0.41586 0.96356 0.59542 -0.01800
C 	C 	0.40371 0.93301 0.67417 0.07500
C 	C 	0.33102 0.91192 0.72454 -0.17900
C 	C 	0.27050 0.92150 0.69610 0.22300
C 	C 	0.28260 0.95190 0.61750 -0.16000
C 	C 	0.35532 0.97302 0.56704 0.03700
C 	C 	0.06861 0.52621 0.06207 0.34100
C 	C 	0.11589 0.53679 0.09993 -0.05400
C 	C 	0.20266 0.53536 0.06042 0.02400
C 	C 	0.24862 0.53412 0.09594 -0.08500
C 	C 	0.33915 0.52475 0.05805 0.38200
C 	C 	0.20531 0.53671 0.17727 -0.02900
C 	C 	0.12317 0.53647 0.21549 0.01800
C 	C 	0.07778 0.53918 0.17436 -0.03400
C 	C 	0.07656 0.53576 0.29742 0.00800
C 	C 	0.05548 0.46318 0.34776 -0.11800
C 	C 	0.02493 0.45103 0.42651 0.12100
C 	C 	0.01546 0.51146 0.45492 -0.01000
C 	C 	0.03644 0.58414 0.40458 -0.01800
C 	C 	0.06699 0.59629 0.32583 0.07500
C 	C 	0.08808 0.66898 0.27546 -0.17900
C 	C 	0.07850 0.72950 0.30390 0.22300
C 	C 	0.04810 0.71740 0.38250 -0.16000
C 	C 	0.02698 0.64468 0.43296 0.03700
C 	C 	0.34311 0.06861 0.06207 0.33500
C 	C 	0.24739 0.11589 0.09993 -0.05300
C 	C 	0.20156 0.20266 0.06042 0.02100
C 	C 	0.12132 0.24862 0.09594 -0.08200
C 	C 	0.07805 0.33915 0.05805 0.36700
C 	C 	0.08071 0.20531 0.17727 -0.03000
C 	C 	0.12487 0.12317 0.21549 0.01500
C 	C 	0.20868 0.07778 0.17436 -0.03400
C 	C 	0.09026 0.07656 0.29742 0.01500
C 	C 	0.13358 0.05548 0.34776 -0.12400
C 	C 	0.09753 0.02493 0.42651 0.12300
C 	C 	0.01816 0.01546 0.45492 -0.01900
C 	C 	0.97484 0.03644 0.40458 -0.00000
C 	C 	0.01089 0.06699 0.32583 0.05600
C 	C 	0.96748 0.08808 0.27546 -0.16300
C 	C 	0.88810 0.07850 0.30390 0.21500
C 	C 	0.85200 0.04810 0.38250 -0.15000
C 	C 	0.89538 0.02698 0.43296 0.02500
C 	C 	0.52621 0.34311 0.06207 0.35100
C 	C 	0.53679 0.24739 0.09993 -0.05600
C 	C 	0.53536 0.20156 0.06042 0.02400
C 	C 	0.53412 0.12132 0.09594 -0.08400
C 	C 	0.52475 0.07805 0.05805 0.37100
C 	C 	0.53671 0.08071 0.17727 -0.02900
C 	C 	0.53647 0.12487 0.21549 0.01600
C 	C 	0.53918 0.20868 0.17436 -0.03200
C 	C 	0.53576 0.09026 0.29742 0.01200
C 	C 	0.46318 0.13358 0.34776 -0.12200
C 	C 	0.45103 0.09753 0.42651 0.12400
C 	C 	0.51146 0.01816 0.45492 -0.01600
C 	C 	0.58414 0.97484 0.40458 -0.01000
C 	C 	0.59629 0.01089 0.32583 0.06700
C 	C 	0.66898 0.96748 0.27546 -0.17300
C 	C 	0.72950 0.88810 0.30390 0.22000
C 	C 	0.71740 0.85200 0.38250 -0.15600
C 	C 	0.64468 0.89538 0.43296 0.03200
Cl	Cl	0.92630 0.17170 0.74980 -0.28000
Cl	Cl	0.17170 0.15220 0.74980 -0.27900
Cl	Cl	0.15220 0.92630 0.74980 -0.28000
Cl	Cl	0.07370 0.84780 0.25020 -0.28000
Cl	Cl	0.82830 0.07370 0.25020 -0.28000
Cl	Cl	0.84780 0.82830 0.25020 -0.27900
O 	O 	0.00368 0.61908 0.89956 -0.40100
O 	O 	0.88682 0.62662 0.00534 -0.38400
O 	O 	0.62756 0.88676 0.00462 -0.41500
O 	O 	0.62290 0.00220 0.90160 -0.37900
O 	O 	0.02160 0.84810 0.51970 -0.15400
O 	O 	0.61908 0.47768 0.89956 -0.41000
O 	O 	0.62662 0.48122 0.00534 -0.39100
O 	O 	0.88676 0.48106 0.00462 -0.41800
O 	O 	0.00220 0.47330 0.90160 -0.38000
O 	O 	0.84810 0.61060 0.51970 -0.15700
O 	O 	0.47768 0.00368 0.89956 -0.40400
O 	O 	0.48122 0.88682 0.00534 -0.38700
O 	O 	0.48106 0.62756 0.00462 -0.42300
O 	O 	0.47330 0.62290 0.90160 -0.38600
O 	O 	0.61060 0.02160 0.51970 -0.15600
O 	O 	0.99632 0.52232 0.10044 -0.40400
O 	O 	0.11318 0.51878 0.99466 -0.38700
O 	O 	0.37244 0.51894 0.99538 -0.42300
O 	O 	0.37710 0.52670 0.09840 -0.38600
O 	O 	0.97840 0.38940 0.48030 -0.15600
O 	O 	0.38092 0.99632 0.10044 -0.40100
O 	O 	0.37338 0.11318 0.99466 -0.38400
O 	O 	0.11324 0.37244 0.99538 -0.41500
O 	O 	0.99780 0.37710 0.09840 -0.37900
O 	O 	0.15190 0.97840 0.48030 -0.15400
O 	O 	0.52232 0.38092 0.10044 -0.41000
O 	O 	0.51878 0.37338 0.99466 -0.39100
O 	O 	0.51894 0.11324 0.99538 -0.41800
O 	O 	0.52670 0.99780 0.09840 -0.38000
O 	O 	0.38940 0.15190 0.48030 -0.15700
