data_crystal

_cell_length_a 31.86400
_cell_length_b 31.86400
_cell_length_c 12.84600
_cell_angle_alpha 90.00000
_cell_angle_beta  90.00000
_cell_angle_gamma 120.00000

_symmetry_space_group_name_	'P 1'
_symmetry_space_group_name_H-M	'P 1'

loop_
_symmetry_equiv_pos_as_xyz
  x,y,z

loop_
_atom_site_label
_atom_site_type_symbol
_atom_site_fract_x
_atom_site_fract_y
_atom_site_fract_z
_atom_site_charge
C 	C 	0.02159 0.29412 0.03400 0.46600
C 	C 	0.05546 0.27527 0.02270 -0.40400
H 	H 	0.06920 0.27650 0.95810 0.15100
C 	C 	0.06643 0.25664 0.10330 0.23500
H 	H 	0.05010 0.25490 0.16460 -0.03700
C 	C 	0.10012 0.23843 0.11080 -0.23500
C 	C 	0.13111 0.24046 0.03200 0.33900
C 	C 	0.16487 0.22550 0.04960 -0.34400
H 	H 	0.18550 0.22730 0.99630 0.13600
C 	C 	0.16770 0.20793 0.14670 0.19900
H 	H 	0.19070 0.19860 0.15860 -0.07100
C 	C 	0.13680 0.20400 0.22490 -0.25300
H 	H 	0.13810 0.19140 0.28930 0.10800
C 	C 	0.10353 0.21904 0.20730 0.14600
H 	H 	0.08260 0.21620 0.26090 -0.02400
C 	C 	0.91098 0.24013 0.81490 0.08900
H 	H 	0.91550 0.25080 0.88350 -0.04600
C 	C 	0.86566 0.20358 0.78530 -0.14600
H 	H 	0.84060 0.19020 0.83380 0.06900
C 	C 	0.85732 0.18671 0.68360 0.05600
C 	C 	0.89677 0.20916 0.61550 -0.13600
H 	H 	0.89320 0.19970 0.54600 0.07200
C 	C 	0.94085 0.24519 0.65120 0.07700
H 	H 	0.96660 0.25940 0.60460 -0.03300
N 	N 	0.94852 0.26086 0.75010 -0.28200
O 	O 	0.01044 0.30035 0.12450 -0.51200
O 	O 	0.00454 0.30376 0.95470 -0.57400
O 	O 	0.12857 0.25786 0.93820 -0.48100
H 	H 	0.15550 0.27140 0.91120 0.23600
Zn	Zn	0.01673 0.30926 0.80286 1.17800
C 	C 	0.68826 0.62745 0.36733 0.46600
C 	C 	0.72213 0.60860 0.35603 -0.40400
H 	H 	0.73587 0.60983 0.29143 0.15300
C 	C 	0.73310 0.58997 0.43663 0.23600
H 	H 	0.71677 0.58823 0.49793 -0.03600
C 	C 	0.76679 0.57176 0.44413 -0.23500
C 	C 	0.79778 0.57379 0.36533 0.34000
C 	C 	0.83154 0.55883 0.38293 -0.34300
H 	H 	0.85217 0.56063 0.32963 0.13700
C 	C 	0.83437 0.54126 0.48003 0.20000
H 	H 	0.85737 0.53193 0.49193 -0.07000
C 	C 	0.80347 0.53733 0.55823 -0.25300
H 	H 	0.80477 0.52473 0.62263 0.10900
C 	C 	0.77020 0.55237 0.54063 0.14700
H 	H 	0.74927 0.54953 0.59423 -0.02300
C 	C 	0.57765 0.57346 0.14823 0.09000
H 	H 	0.58217 0.58413 0.21683 -0.04500
C 	C 	0.53233 0.53691 0.11863 -0.14500
H 	H 	0.50727 0.52353 0.16713 0.07000
C 	C 	0.52399 0.52004 0.01693 0.05600
C 	C 	0.56344 0.54249 0.94883 -0.13500
H 	H 	0.55987 0.53303 0.87933 0.07300
C 	C 	0.60752 0.57852 0.98453 0.07800
H 	H 	0.63327 0.59273 0.93793 -0.03200
N 	N 	0.61519 0.59419 0.08343 -0.28200
O 	O 	0.67711 0.63368 0.45783 -0.51200
O 	O 	0.67121 0.63709 0.28803 -0.57300
O 	O 	0.79524 0.59119 0.27153 -0.48100
H 	H 	0.82217 0.60473 0.24453 0.23600
Zn	Zn	0.68339 0.64260 0.13619 1.17800
C 	C 	0.35492 0.96079 0.70067 0.46600
C 	C 	0.38879 0.94194 0.68937 -0.40400
H 	H 	0.40253 0.94317 0.62477 0.15300
C 	C 	0.39976 0.92331 0.76997 0.23600
H 	H 	0.38343 0.92157 0.83127 -0.03600
C 	C 	0.43345 0.90510 0.77747 -0.23500
C 	C 	0.46444 0.90713 0.69867 0.34000
C 	C 	0.49820 0.89217 0.71627 -0.34300
H 	H 	0.51883 0.89397 0.66297 0.13700
C 	C 	0.50103 0.87460 0.81337 0.20000
H 	H 	0.52403 0.86527 0.82527 -0.07000
C 	C 	0.47013 0.87067 0.89157 -0.25300
H 	H 	0.47143 0.85807 0.95597 0.10800
C 	C 	0.43686 0.88571 0.87397 0.14700
H 	H 	0.41593 0.88287 0.92757 -0.02300
C 	C 	0.24431 0.90680 0.48157 0.09000
H 	H 	0.24883 0.91747 0.55017 -0.04500
C 	C 	0.19899 0.87025 0.45197 -0.14500
H 	H 	0.17393 0.85687 0.50047 0.07000
C 	C 	0.19065 0.85338 0.35027 0.05700
C 	C 	0.23010 0.87583 0.28217 -0.13500
H 	H 	0.22653 0.86637 0.21267 0.07300
C 	C 	0.27418 0.91186 0.31787 0.07800
H 	H 	0.29993 0.92607 0.27127 -0.03200
N 	N 	0.28185 0.92753 0.41677 -0.28200
O 	O 	0.34377 0.96702 0.79117 -0.51200
O 	O 	0.33787 0.97043 0.62137 -0.57300
O 	O 	0.46190 0.92453 0.60487 -0.48000
H 	H 	0.48883 0.93807 0.57787 0.23600
Zn	Zn	0.35006 0.97593 0.46953 1.17800
C 	C 	0.70588 0.72747 0.03400 0.46600
C 	C 	0.72473 0.78019 0.02270 -0.40400
H 	H 	0.72350 0.79270 0.95810 0.15300
C 	C 	0.74336 0.80979 0.10330 0.23600
H 	H 	0.74510 0.79520 0.16460 -0.03600
C 	C 	0.76157 0.86169 0.11080 -0.23400
C 	C 	0.75954 0.89065 0.03200 0.33900
C 	C 	0.77450 0.93937 0.04960 -0.34200
H 	H 	0.77270 0.95820 0.99630 0.13700
C 	C 	0.79207 0.95977 0.14670 0.19900
H 	H 	0.80140 0.99210 0.15860 -0.07000
C 	C 	0.79600 0.93280 0.22490 -0.25200
H 	H 	0.80860 0.94670 0.28930 0.10800
C 	C 	0.78096 0.88449 0.20730 0.14700
H 	H 	0.78380 0.86640 0.26090 -0.02300
C 	C 	0.75987 0.67085 0.81490 0.09000
H 	H 	0.74920 0.66470 0.88350 -0.04500
C 	C 	0.79642 0.66208 0.78530 -0.14500
H 	H 	0.80980 0.65040 0.83380 0.07000
C 	C 	0.81329 0.67061 0.68360 0.05700
C 	C 	0.79084 0.68761 0.61550 -0.13500
H 	H 	0.80030 0.69350 0.54600 0.07300
C 	C 	0.75481 0.69566 0.65120 0.07800
H 	H 	0.74060 0.70720 0.60460 -0.03200
N 	N 	0.73914 0.68766 0.75010 -0.28200
O 	O 	0.69965 0.71009 0.12450 -0.51200
O 	O 	0.69624 0.70078 0.95470 -0.57300
O 	O 	0.74214 0.87071 0.93820 -0.48000
H 	H 	0.72860 0.88410 0.91120 0.23600
Zn	Zn	0.69074 0.70746 0.80286 1.17800
C 	C 	0.37255 0.06080 0.36733 0.46600
C 	C 	0.39140 0.11352 0.35603 -0.40400
H 	H 	0.39017 0.12603 0.29143 0.15300
C 	C 	0.41003 0.14312 0.43663 0.23600
H 	H 	0.41177 0.12853 0.49793 -0.03600
C 	C 	0.42824 0.19502 0.44413 -0.23500
C 	C 	0.42621 0.22398 0.36533 0.34000
C 	C 	0.44117 0.27270 0.38293 -0.34300
H 	H 	0.43937 0.29153 0.32963 0.13700
C 	C 	0.45874 0.29310 0.48003 0.20000
H 	H 	0.46807 0.32543 0.49193 -0.07000
C 	C 	0.46267 0.26613 0.55823 -0.25300
H 	H 	0.47527 0.28003 0.62263 0.10900
C 	C 	0.44763 0.21782 0.54063 0.14700
H 	H 	0.45047 0.19973 0.59423 -0.02300
C 	C 	0.42654 0.00418 0.14823 0.08700
H 	H 	0.41587 0.99803 0.21683 -0.04400
C 	C 	0.46309 0.99541 0.11863 -0.14200
H 	H 	0.47647 0.98373 0.16713 0.06900
C 	C 	0.47996 0.00394 0.01693 0.05500
C 	C 	0.45751 0.02094 0.94883 -0.13300
H 	H 	0.46697 0.02683 0.87933 0.07300
C 	C 	0.42148 0.02899 0.98453 0.07800
H 	H 	0.40727 0.04053 0.93793 -0.03200
N 	N 	0.40581 0.02099 0.08343 -0.28200
O 	O 	0.36632 0.04342 0.45783 -0.51200
O 	O 	0.36291 0.03411 0.28803 -0.57300
O 	O 	0.40881 0.20404 0.27153 -0.48100
H 	H 	0.39527 0.21743 0.24453 0.23600
Zn	Zn	0.35740 0.04080 0.13619 1.17800
C 	C 	0.03921 0.39414 0.70067 0.46600
C 	C 	0.05806 0.44686 0.68937 -0.40400
H 	H 	0.05683 0.45937 0.62477 0.15300
C 	C 	0.07669 0.47646 0.76997 0.23600
H 	H 	0.07843 0.46187 0.83127 -0.03600
C 	C 	0.09490 0.52836 0.77747 -0.23500
C 	C 	0.09287 0.55732 0.69867 0.34000
C 	C 	0.10783 0.60604 0.71627 -0.34300
H 	H 	0.10603 0.62487 0.66297 0.13700
C 	C 	0.12540 0.62644 0.81337 0.20000
H 	H 	0.13473 0.65877 0.82527 -0.07000
C 	C 	0.12933 0.59947 0.89157 -0.25300
H 	H 	0.14193 0.61337 0.95597 0.10800
C 	C 	0.11429 0.55116 0.87397 0.14700
H 	H 	0.11713 0.53307 0.92757 -0.02300
C 	C 	0.09320 0.33752 0.48157 0.09000
H 	H 	0.08253 0.33137 0.55017 -0.04500
C 	C 	0.12975 0.32875 0.45197 -0.14500
H 	H 	0.14313 0.31707 0.50047 0.07000
C 	C 	0.14662 0.33728 0.35027 0.05700
C 	C 	0.12417 0.35428 0.28217 -0.13500
H 	H 	0.13363 0.36017 0.21267 0.07300
C 	C 	0.08814 0.36233 0.31787 0.07800
H 	H 	0.07393 0.37387 0.27127 -0.03200
N 	N 	0.07247 0.35433 0.41677 -0.28200
O 	O 	0.03298 0.37676 0.79117 -0.51200
O 	O 	0.02957 0.36745 0.62137 -0.57300
O 	O 	0.07547 0.53738 0.60487 -0.48000
H 	H 	0.06193 0.55077 0.57787 0.23600
Zn	Zn	0.02407 0.37413 0.46953 1.17800
C 	C 	0.27253 0.97841 0.03400 0.46700
C 	C 	0.21981 0.94454 0.02270 -0.40200
H 	H 	0.20730 0.93080 0.95810 0.15100
C 	C 	0.19021 0.93357 0.10330 0.23400
H 	H 	0.20480 0.94990 0.16460 -0.03600
C 	C 	0.13831 0.89988 0.11080 -0.23300
C 	C 	0.10935 0.86889 0.03200 0.33900
C 	C 	0.06063 0.83513 0.04960 -0.34000
H 	H 	0.04180 0.81450 0.99630 0.13500
C 	C 	0.04023 0.83230 0.14670 0.19800
H 	H 	0.00790 0.80930 0.15860 -0.06900
C 	C 	0.06720 0.86320 0.22490 -0.25100
H 	H 	0.05330 0.86190 0.28930 0.10800
C 	C 	0.11551 0.89647 0.20730 0.14600
H 	H 	0.13360 0.91740 0.26090 -0.02200
C 	C 	0.32915 0.08902 0.81490 0.09000
H 	H 	0.33530 0.08450 0.88350 -0.04500
C 	C 	0.33792 0.13434 0.78530 -0.14500
H 	H 	0.34960 0.15940 0.83380 0.07000
C 	C 	0.32939 0.14268 0.68360 0.05700
C 	C 	0.31239 0.10323 0.61550 -0.13500
H 	H 	0.30650 0.10680 0.54600 0.07300
C 	C 	0.30434 0.05915 0.65120 0.07800
H 	H 	0.29280 0.03340 0.60460 -0.03200
N 	N 	0.31234 0.05148 0.75010 -0.28200
O 	O 	0.28991 0.98956 0.12450 -0.51200
O 	O 	0.29922 0.99546 0.95470 -0.57400
O 	O 	0.12929 0.87143 0.93820 -0.48100
H 	H 	0.11590 0.84450 0.91120 0.23600
Zn	Zn	0.29254 0.98327 0.80286 1.17800
C 	C 	0.93920 0.31174 0.36733 0.46600
C 	C 	0.88648 0.27787 0.35603 -0.40400
H 	H 	0.87397 0.26413 0.29143 0.15300
C 	C 	0.85688 0.26690 0.43663 0.23600
H 	H 	0.87147 0.28323 0.49793 -0.03600
C 	C 	0.80498 0.23321 0.44413 -0.23500
C 	C 	0.77602 0.20222 0.36533 0.34000
C 	C 	0.72730 0.16846 0.38293 -0.34300
H 	H 	0.70847 0.14783 0.32963 0.13700
C 	C 	0.70690 0.16563 0.48003 0.20000
H 	H 	0.67457 0.14263 0.49193 -0.07000
C 	C 	0.73387 0.19653 0.55823 -0.25300
H 	H 	0.71997 0.19523 0.62263 0.10900
C 	C 	0.78218 0.22980 0.54063 0.14700
H 	H 	0.80027 0.25073 0.59423 -0.02300
C 	C 	0.99582 0.42235 0.14823 0.08700
H 	H 	0.00197 0.41783 0.21683 -0.04400
C 	C 	0.00459 0.46767 0.11863 -0.14200
H 	H 	0.01627 0.49273 0.16713 0.06900
C 	C 	0.99606 0.47601 0.01693 0.05500
C 	C 	0.97906 0.43656 0.94883 -0.13300
H 	H 	0.97317 0.44013 0.87933 0.07300
C 	C 	0.97101 0.39248 0.98453 0.07800
H 	H 	0.95947 0.36673 0.93793 -0.03200
N 	N 	0.97901 0.38481 0.08343 -0.28200
O 	O 	0.95658 0.32289 0.45783 -0.51200
O 	O 	0.96589 0.32879 0.28803 -0.57300
O 	O 	0.79596 0.20476 0.27153 -0.48100
H 	H 	0.78257 0.17783 0.24453 0.23600
Zn	Zn	0.95920 0.31661 0.13619 1.17800
C 	C 	0.60586 0.64508 0.70067 0.46600
C 	C 	0.55314 0.61121 0.68937 -0.40400
H 	H 	0.54063 0.59747 0.62477 0.15300
C 	C 	0.52354 0.60024 0.76997 0.23600
H 	H 	0.53813 0.61657 0.83127 -0.03600
C 	C 	0.47164 0.56655 0.77747 -0.23500
C 	C 	0.44268 0.53556 0.69867 0.34000
C 	C 	0.39396 0.50180 0.71627 -0.34300
H 	H 	0.37513 0.48117 0.66297 0.13700
C 	C 	0.37356 0.49897 0.81337 0.20000
H 	H 	0.34123 0.47597 0.82527 -0.07000
C 	C 	0.40053 0.52987 0.89157 -0.25300
H 	H 	0.38663 0.52857 0.95597 0.10900
C 	C 	0.44884 0.56314 0.87397 0.14700
H 	H 	0.46693 0.58407 0.92757 -0.02300
C 	C 	0.66248 0.75569 0.48157 0.09000
H 	H 	0.66863 0.75117 0.55017 -0.04500
C 	C 	0.67125 0.80101 0.45197 -0.14500
H 	H 	0.68293 0.82607 0.50047 0.07000
C 	C 	0.66272 0.80935 0.35027 0.05700
C 	C 	0.64572 0.76990 0.28217 -0.13500
H 	H 	0.63983 0.77347 0.21267 0.07300
C 	C 	0.63767 0.72582 0.31787 0.07800
H 	H 	0.62613 0.70007 0.27127 -0.03200
N 	N 	0.64567 0.71815 0.41677 -0.28200
O 	O 	0.62324 0.65623 0.79117 -0.51200
O 	O 	0.63255 0.66213 0.62137 -0.57300
O 	O 	0.46262 0.53810 0.60487 -0.48000
H 	H 	0.44923 0.51117 0.57787 0.23600
Zn	Zn	0.62587 0.64994 0.46953 1.17800
C 	C 	0.97841 0.70588 0.96600 0.46700
C 	C 	0.94454 0.72473 0.97730 -0.40300
H 	H 	0.93080 0.72350 0.04190 0.15200
C 	C 	0.93357 0.74336 0.89670 0.23600
H 	H 	0.94990 0.74510 0.83540 -0.03600
C 	C 	0.89988 0.76157 0.88920 -0.23400
C 	C 	0.86889 0.75954 0.96800 0.34000
C 	C 	0.83513 0.77450 0.95040 -0.34300
H 	H 	0.81450 0.77270 0.00370 0.13700
C 	C 	0.83230 0.79207 0.85330 0.20000
H 	H 	0.80930 0.80140 0.84140 -0.07000
C 	C 	0.86320 0.79600 0.77510 -0.25200
H 	H 	0.86190 0.80860 0.71070 0.10900
C 	C 	0.89647 0.78096 0.79270 0.14700
H 	H 	0.91740 0.78380 0.73910 -0.02300
C 	C 	0.08902 0.75987 0.18510 0.09000
H 	H 	0.08450 0.74920 0.11650 -0.04500
C 	C 	0.13434 0.79642 0.21470 -0.14500
H 	H 	0.15940 0.80980 0.16620 0.07000
C 	C 	0.14268 0.81329 0.31640 0.05700
C 	C 	0.10323 0.79084 0.38450 -0.13500
H 	H 	0.10680 0.80030 0.45400 0.07300
C 	C 	0.05915 0.75481 0.34880 0.07800
H 	H 	0.03340 0.74060 0.39540 -0.03200
N 	N 	0.05148 0.73914 0.24990 -0.28200
O 	O 	0.98956 0.69965 0.87550 -0.51200
O 	O 	0.99546 0.69624 0.04530 -0.57400
O 	O 	0.87143 0.74214 0.06180 -0.48100
H 	H 	0.84450 0.72860 0.08880 0.23600
Zn	Zn	0.98327 0.69074 0.19714 1.17800
C 	C 	0.64508 0.03921 0.29933 0.46600
C 	C 	0.61121 0.05806 0.31063 -0.40400
H 	H 	0.59747 0.05683 0.37523 0.15300
C 	C 	0.60024 0.07669 0.23003 0.23600
H 	H 	0.61657 0.07843 0.16873 -0.03600
C 	C 	0.56655 0.09490 0.22253 -0.23500
C 	C 	0.53556 0.09287 0.30133 0.34000
C 	C 	0.50180 0.10783 0.28373 -0.34300
H 	H 	0.48117 0.10603 0.33703 0.13700
C 	C 	0.49897 0.12540 0.18663 0.20000
H 	H 	0.47597 0.13473 0.17473 -0.07000
C 	C 	0.52987 0.12933 0.10843 -0.25300
H 	H 	0.52857 0.14193 0.04403 0.10800
C 	C 	0.56314 0.11429 0.12603 0.14700
H 	H 	0.58407 0.11713 0.07243 -0.02300
C 	C 	0.75569 0.09320 0.51843 0.09000
H 	H 	0.75117 0.08253 0.44983 -0.04500
C 	C 	0.80101 0.12975 0.54803 -0.14500
H 	H 	0.82607 0.14313 0.49953 0.07000
C 	C 	0.80935 0.14662 0.64973 0.05700
C 	C 	0.76990 0.12417 0.71783 -0.13500
H 	H 	0.77347 0.13363 0.78733 0.07300
C 	C 	0.72582 0.08814 0.68213 0.07800
H 	H 	0.70007 0.07393 0.72873 -0.03200
N 	N 	0.71815 0.07247 0.58323 -0.28200
O 	O 	0.65623 0.03298 0.20883 -0.51200
O 	O 	0.66213 0.02957 0.37863 -0.57300
O 	O 	0.53810 0.07547 0.39513 -0.48000
H 	H 	0.51117 0.06193 0.42213 0.23600
Zn	Zn	0.64994 0.02407 0.53047 1.17800
C 	C 	0.31174 0.37255 0.63267 0.46600
C 	C 	0.27787 0.39140 0.64397 -0.40400
H 	H 	0.26413 0.39017 0.70857 0.15300
C 	C 	0.26690 0.41003 0.56337 0.23600
H 	H 	0.28323 0.41177 0.50207 -0.03600
C 	C 	0.23321 0.42824 0.55587 -0.23500
C 	C 	0.20222 0.42621 0.63467 0.34000
C 	C 	0.16846 0.44117 0.61707 -0.34300
H 	H 	0.14783 0.43937 0.67037 0.13700
C 	C 	0.16563 0.45874 0.51997 0.20000
H 	H 	0.14263 0.46807 0.50807 -0.07000
C 	C 	0.19653 0.46267 0.44177 -0.25300
H 	H 	0.19523 0.47527 0.37737 0.10900
C 	C 	0.22980 0.44763 0.45937 0.14700
H 	H 	0.25073 0.45047 0.40577 -0.02300
C 	C 	0.42235 0.42654 0.85177 0.09000
H 	H 	0.41783 0.41587 0.78317 -0.04500
C 	C 	0.46767 0.46309 0.88137 -0.14500
H 	H 	0.49273 0.47647 0.83287 0.07000
C 	C 	0.47601 0.47996 0.98307 0.05600
C 	C 	0.43656 0.45751 0.05117 -0.13500
H 	H 	0.44013 0.46697 0.12067 0.07300
C 	C 	0.39248 0.42148 0.01547 0.07800
H 	H 	0.36673 0.40727 0.06207 -0.03200
N 	N 	0.38481 0.40581 0.91657 -0.28200
O 	O 	0.32289 0.36632 0.54217 -0.51200
O 	O 	0.32879 0.36291 0.71197 -0.57300
O 	O 	0.20476 0.40881 0.72847 -0.48100
H 	H 	0.17783 0.39527 0.75547 0.23600
Zn	Zn	0.31661 0.35740 0.86381 1.17800
C 	C 	0.29412 0.27253 0.96600 0.46600
C 	C 	0.27527 0.21981 0.97730 -0.40400
H 	H 	0.27650 0.20730 0.04190 0.15300
C 	C 	0.25664 0.19021 0.89670 0.23600
H 	H 	0.25490 0.20480 0.83540 -0.03600
C 	C 	0.23843 0.13831 0.88920 -0.23400
C 	C 	0.24046 0.10935 0.96800 0.33900
C 	C 	0.22550 0.06063 0.95040 -0.34200
H 	H 	0.22730 0.04180 0.00370 0.13700
C 	C 	0.20793 0.04023 0.85330 0.19900
H 	H 	0.19860 0.00790 0.84140 -0.07000
C 	C 	0.20400 0.06720 0.77510 -0.25200
H 	H 	0.19140 0.05330 0.71070 0.10800
C 	C 	0.21904 0.11551 0.79270 0.14700
H 	H 	0.21620 0.13360 0.73910 -0.02300
C 	C 	0.24013 0.32915 0.18510 0.09000
H 	H 	0.25080 0.33530 0.11650 -0.04500
C 	C 	0.20358 0.33792 0.21470 -0.14500
H 	H 	0.19020 0.34960 0.16620 0.07000
C 	C 	0.18671 0.32939 0.31640 0.05700
C 	C 	0.20916 0.31239 0.38450 -0.13500
H 	H 	0.19970 0.30650 0.45400 0.07300
C 	C 	0.24519 0.30434 0.34880 0.07800
H 	H 	0.25940 0.29280 0.39540 -0.03200
N 	N 	0.26086 0.31234 0.24990 -0.28200
O 	O 	0.30035 0.28991 0.87550 -0.51200
O 	O 	0.30376 0.29922 0.04530 -0.57300
O 	O 	0.25786 0.12929 0.06180 -0.48000
H 	H 	0.27140 0.11590 0.08880 0.23600
Zn	Zn	0.30926 0.29254 0.19714 1.17800
C 	C 	0.96079 0.60586 0.29933 0.46600
C 	C 	0.94194 0.55314 0.31063 -0.40400
H 	H 	0.94317 0.54063 0.37523 0.15300
C 	C 	0.92331 0.52354 0.23003 0.23600
H 	H 	0.92157 0.53813 0.16873 -0.03600
C 	C 	0.90510 0.47164 0.22253 -0.23500
C 	C 	0.90713 0.44268 0.30133 0.34000
C 	C 	0.89217 0.39396 0.28373 -0.34300
H 	H 	0.89397 0.37513 0.33703 0.13700
C 	C 	0.87460 0.37356 0.18663 0.20000
H 	H 	0.86527 0.34123 0.17473 -0.07000
C 	C 	0.87067 0.40053 0.10843 -0.25300
H 	H 	0.85807 0.38663 0.04403 0.10800
C 	C 	0.88571 0.44884 0.12603 0.14700
H 	H 	0.88287 0.46693 0.07243 -0.02300
C 	C 	0.90680 0.66248 0.51843 0.09000
H 	H 	0.91747 0.66863 0.44983 -0.04500
C 	C 	0.87025 0.67125 0.54803 -0.14500
H 	H 	0.85687 0.68293 0.49953 0.07000
C 	C 	0.85338 0.66272 0.64973 0.05700
C 	C 	0.87583 0.64572 0.71783 -0.13500
H 	H 	0.86637 0.63983 0.78733 0.07300
C 	C 	0.91186 0.63767 0.68213 0.07800
H 	H 	0.92607 0.62613 0.72873 -0.03200
N 	N 	0.92753 0.64567 0.58323 -0.28200
O 	O 	0.96702 0.62324 0.20883 -0.51200
O 	O 	0.97043 0.63255 0.37863 -0.57300
O 	O 	0.92453 0.46262 0.39513 -0.48000
H 	H 	0.93807 0.44923 0.42213 0.23600
Zn	Zn	0.97593 0.62587 0.53047 1.17800
C 	C 	0.62745 0.93920 0.63267 0.46600
C 	C 	0.60860 0.88648 0.64397 -0.40400
H 	H 	0.60983 0.87397 0.70857 0.15300
C 	C 	0.58997 0.85688 0.56337 0.23600
H 	H 	0.58823 0.87147 0.50207 -0.03600
C 	C 	0.57176 0.80498 0.55587 -0.23500
C 	C 	0.57379 0.77602 0.63467 0.34000
C 	C 	0.55883 0.72730 0.61707 -0.34300
H 	H 	0.56063 0.70847 0.67037 0.13700
C 	C 	0.54126 0.70690 0.51997 0.20000
H 	H 	0.53193 0.67457 0.50807 -0.07000
C 	C 	0.53733 0.73387 0.44177 -0.25300
H 	H 	0.52473 0.71997 0.37737 0.10900
C 	C 	0.55237 0.78218 0.45937 0.14700
H 	H 	0.54953 0.80027 0.40577 -0.02300
C 	C 	0.57346 0.99582 0.85177 0.08700
H 	H 	0.58413 0.00197 0.78317 -0.04400
C 	C 	0.53691 0.00459 0.88137 -0.14200
H 	H 	0.52353 0.01627 0.83287 0.06900
C 	C 	0.52004 0.99606 0.98307 0.05500
C 	C 	0.54249 0.97906 0.05117 -0.13300
H 	H 	0.53303 0.97317 0.12067 0.07300
C 	C 	0.57852 0.97101 0.01547 0.07800
H 	H 	0.59273 0.95947 0.06207 -0.03200
N 	N 	0.59419 0.97901 0.91657 -0.28200
O 	O 	0.63368 0.95658 0.54217 -0.51200
O 	O 	0.63709 0.96589 0.71197 -0.57300
O 	O 	0.59119 0.79596 0.72847 -0.48100
H 	H 	0.60473 0.78257 0.75547 0.23600
Zn	Zn	0.64260 0.95920 0.86381 1.17800
C 	C 	0.72747 0.02159 0.96600 0.46700
C 	C 	0.78019 0.05546 0.97730 -0.40200
H 	H 	0.79270 0.06920 0.04190 0.15100
C 	C 	0.80979 0.06643 0.89670 0.23400
H 	H 	0.79520 0.05010 0.83540 -0.03600
C 	C 	0.86169 0.10012 0.88920 -0.23300
C 	C 	0.89065 0.13111 0.96800 0.33900
C 	C 	0.93937 0.16487 0.95040 -0.34000
H 	H 	0.95820 0.18550 0.00370 0.13500
C 	C 	0.95977 0.16770 0.85330 0.19800
H 	H 	0.99210 0.19070 0.84140 -0.06900
C 	C 	0.93280 0.13680 0.77510 -0.25100
H 	H 	0.94670 0.13810 0.71070 0.10800
C 	C 	0.88449 0.10353 0.79270 0.14600
H 	H 	0.86640 0.08260 0.73910 -0.02200
C 	C 	0.67085 0.91098 0.18510 0.09000
H 	H 	0.66470 0.91550 0.11650 -0.04500
C 	C 	0.66208 0.86566 0.21470 -0.14500
H 	H 	0.65040 0.84060 0.16620 0.07000
C 	C 	0.67061 0.85732 0.31640 0.05700
C 	C 	0.68761 0.89677 0.38450 -0.13500
H 	H 	0.69350 0.89320 0.45400 0.07300
C 	C 	0.69566 0.94085 0.34880 0.07800
H 	H 	0.70720 0.96660 0.39540 -0.03200
N 	N 	0.68766 0.94852 0.24990 -0.28200
O 	O 	0.71009 0.01044 0.87550 -0.51200
O 	O 	0.70078 0.00454 0.04530 -0.57400
O 	O 	0.87071 0.12857 0.06180 -0.48100
H 	H 	0.88410 0.15550 0.08880 0.23600
Zn	Zn	0.70746 0.01673 0.19714 1.17800
C 	C 	0.39414 0.35492 0.29933 0.46600
C 	C 	0.44686 0.38879 0.31063 -0.40400
H 	H 	0.45937 0.40253 0.37523 0.15300
C 	C 	0.47646 0.39976 0.23003 0.23600
H 	H 	0.46187 0.38343 0.16873 -0.03600
C 	C 	0.52836 0.43345 0.22253 -0.23500
C 	C 	0.55732 0.46444 0.30133 0.34000
C 	C 	0.60604 0.49820 0.28373 -0.34300
H 	H 	0.62487 0.51883 0.33703 0.13700
C 	C 	0.62644 0.50103 0.18663 0.20000
H 	H 	0.65877 0.52403 0.17473 -0.07000
C 	C 	0.59947 0.47013 0.10843 -0.25300
H 	H 	0.61337 0.47143 0.04403 0.10900
C 	C 	0.55116 0.43686 0.12603 0.14700
H 	H 	0.53307 0.41593 0.07243 -0.02300
C 	C 	0.33752 0.24431 0.51843 0.09000
H 	H 	0.33137 0.24883 0.44983 -0.04500
C 	C 	0.32875 0.19899 0.54803 -0.14500
H 	H 	0.31707 0.17393 0.49953 0.07000
C 	C 	0.33728 0.19065 0.64973 0.05700
C 	C 	0.35428 0.23010 0.71783 -0.13500
H 	H 	0.36017 0.22653 0.78733 0.07300
C 	C 	0.36233 0.27418 0.68213 0.07800
H 	H 	0.37387 0.29993 0.72873 -0.03200
N 	N 	0.35433 0.28185 0.58323 -0.28200
O 	O 	0.37676 0.34377 0.20883 -0.51200
O 	O 	0.36745 0.33787 0.37863 -0.57300
O 	O 	0.53738 0.46190 0.39513 -0.48000
H 	H 	0.55077 0.48883 0.42213 0.23600
Zn	Zn	0.37413 0.35006 0.53047 1.17800
C 	C 	0.06080 0.68826 0.63267 0.46600
C 	C 	0.11352 0.72213 0.64397 -0.40400
H 	H 	0.12603 0.73587 0.70857 0.15300
C 	C 	0.14312 0.73310 0.56337 0.23600
H 	H 	0.12853 0.71677 0.50207 -0.03600
C 	C 	0.19502 0.76679 0.55587 -0.23500
C 	C 	0.22398 0.79778 0.63467 0.34000
C 	C 	0.27270 0.83154 0.61707 -0.34300
H 	H 	0.29153 0.85217 0.67037 0.13700
C 	C 	0.29310 0.83437 0.51997 0.20000
H 	H 	0.32543 0.85737 0.50807 -0.07000
C 	C 	0.26613 0.80347 0.44177 -0.25300
H 	H 	0.28003 0.80477 0.37737 0.10900
C 	C 	0.21782 0.77020 0.45937 0.14700
H 	H 	0.19973 0.74927 0.40577 -0.02300
C 	C 	0.00418 0.57765 0.85177 0.08700
H 	H 	0.99803 0.58217 0.78317 -0.04400
C 	C 	0.99541 0.53233 0.88137 -0.14200
H 	H 	0.98373 0.50727 0.83287 0.06900
C 	C 	0.00394 0.52399 0.98307 0.05500
C 	C 	0.02094 0.56344 0.05117 -0.13300
H 	H 	0.02683 0.55987 0.12067 0.07300
C 	C 	0.02899 0.60752 0.01547 0.07800
H 	H 	0.04053 0.63327 0.06207 -0.03200
N 	N 	0.02099 0.61519 0.91657 -0.28200
O 	O 	0.04342 0.67711 0.54217 -0.51200
O 	O 	0.03411 0.67121 0.71197 -0.57300
O 	O 	0.20404 0.79524 0.72847 -0.48100
H 	H 	0.21743 0.82217 0.75547 0.23600
Zn	Zn	0.04080 0.68339 0.86381 1.17800
