data_crystal

_cell_length_a 10.09400
_cell_length_b 12.76970
_cell_length_c 13.07260
_cell_angle_alpha 71.19220
_cell_angle_beta  67.28960
_cell_angle_gamma 66.71950

_symmetry_space_group_name_	'P 1'
_symmetry_space_group_name_H-M	'P 1'

loop_
_symmetry_equiv_pos_as_xyz
  x,y,z

loop_
_atom_site_label
_atom_site_type_symbol
_atom_site_fract_x
_atom_site_fract_y
_atom_site_fract_z
_atom_site_charge
Co	Co	0.96678 0.61474 0.89730 1.17600
Co	Co	0.24944 0.16696 0.26546 1.18900
Co	Co	0.47882 0.88526 0.60270 1.18400
Co	Co	0.68186 0.33304 0.23454 1.19000
Co	Co	0.03322 0.38526 0.10270 1.17700
Co	Co	0.75056 0.83304 0.73454 1.19000
Co	Co	0.52118 0.11474 0.39730 1.18400
Co	Co	0.31814 0.66696 0.76546 1.19000
H 	H 	0.85490 0.88950 0.15170 0.05800
H 	H 	0.99820 0.75080 0.04240 0.01200
H 	H 	0.63770 0.73060 0.01840 0.00200
H 	H 	0.48630 0.87130 0.12490 0.06400
H 	H 	0.14620 0.92860 0.74440 -0.03100
H 	H 	0.02350 0.01720 0.60080 0.22500
H 	H 	0.08880 0.06330 0.66130 0.22600
H 	H 	0.89610 0.61050 0.34830 0.05900
H 	H 	0.79140 0.74920 0.45760 0.00900
H 	H 	0.38670 0.76940 0.48160 0.00100
H 	H 	0.48250 0.62870 0.37510 0.06500
H 	H 	0.81920 0.57140 0.75560 -0.03200
H 	H 	0.64150 0.48280 0.89920 0.22100
H 	H 	0.81340 0.43670 0.83870 0.21900
H 	H 	0.14510 0.11050 0.84830 0.05800
H 	H 	0.00180 0.24920 0.95760 0.01200
H 	H 	0.36230 0.26940 0.98160 0.00200
H 	H 	0.51370 0.12870 0.87510 0.06400
H 	H 	0.85380 0.07140 0.25560 -0.03100
H 	H 	0.97650 0.98280 0.39920 0.22500
H 	H 	0.91120 0.93670 0.33870 0.22600
H 	H 	0.10390 0.38950 0.65170 0.05900
H 	H 	0.20860 0.25080 0.54240 0.00900
H 	H 	0.61330 0.23060 0.51840 0.00100
H 	H 	0.51750 0.37130 0.62490 0.06500
H 	H 	0.18080 0.42860 0.24440 -0.03200
H 	H 	0.35850 0.51720 0.10080 0.22100
H 	H 	0.18660 0.56330 0.16130 0.21900
C 	C 	0.55440 0.98680 0.22220 0.36900
C 	C 	0.65420 0.89540 0.15080 -0.04600
C 	C 	0.80800 0.85870 0.12490 -0.05800
C 	C 	0.89360 0.77540 0.05840 0.04700
C 	C 	0.68300 0.76380 0.04400 0.03500
C 	C 	0.59060 0.84770 0.10950 -0.05700
C 	C 	0.03240 0.83910 0.75190 0.26400
C 	C 	0.15450 0.89850 0.68130 0.24800
C 	C 	0.11560 0.00800 0.61480 -0.62900
C 	C 	0.21920 0.04730 0.50290 0.53600
C 	C 	0.76340 0.51320 0.27780 0.36900
C 	C 	0.70040 0.60460 0.34920 -0.04400
C 	C 	0.79160 0.64130 0.37510 -0.06000
C 	C 	0.72740 0.72460 0.44160 0.04800
C 	C 	0.49080 0.73620 0.45600 0.03500
C 	C 	0.54780 0.65230 0.39050 -0.05800
C 	C 	0.62340 0.66090 0.74810 0.25800
C 	C 	0.73430 0.60150 0.81870 0.24400
C 	C 	0.73840 0.49200 0.88520 -0.61400
C 	C 	0.76940 0.45270 0.99710 0.51500
C 	C 	0.44560 0.01320 0.77780 0.36900
C 	C 	0.34580 0.10460 0.84920 -0.04600
C 	C 	0.19200 0.14130 0.87510 -0.05800
C 	C 	0.10640 0.22460 0.94160 0.04700
C 	C 	0.31700 0.23620 0.95600 0.03500
C 	C 	0.40940 0.15230 0.89050 -0.05700
C 	C 	0.96760 0.16090 0.24810 0.26400
C 	C 	0.84550 0.10150 0.31870 0.24800
C 	C 	0.88440 0.99200 0.38520 -0.62900
C 	C 	0.78080 0.95270 0.49710 0.53600
C 	C 	0.23660 0.48680 0.72220 0.36900
C 	C 	0.29960 0.39540 0.65080 -0.04400
C 	C 	0.20840 0.35870 0.62490 -0.06000
C 	C 	0.27260 0.27540 0.55840 0.04800
C 	C 	0.50920 0.26380 0.54400 0.03500
C 	C 	0.45220 0.34770 0.60950 -0.05800
C 	C 	0.37660 0.33910 0.25190 0.25800
C 	C 	0.26570 0.39850 0.18130 0.24400
C 	C 	0.26160 0.50800 0.11480 -0.61400
C 	C 	0.23060 0.54730 0.00290 0.51500
N 	N 	0.83400 0.72840 0.01600 -0.21200
N 	N 	0.57840 0.77160 0.48400 -0.21500
N 	N 	0.16600 0.27160 0.98400 -0.21200
N 	N 	0.42160 0.22840 0.51600 -0.21500
O 	O 	0.61150 0.00710 0.27990 -0.42500
O 	O 	0.42130 0.03210 0.21690 -0.45500
O 	O 	0.08165 0.73430 0.79620 -0.52200
O 	O 	0.89700 0.89310 0.76030 -0.40900
O 	O 	0.30129 0.82292 0.67570 -0.54000
O 	O 	0.15860 0.12460 0.43300 -0.50600
O 	O 	0.35814 0.02352 0.49720 -0.56700
O 	O 	0.89850 0.49290 0.22010 -0.42100
O 	O 	0.67030 0.46790 0.28310 -0.45300
O 	O 	0.61215 0.76570 0.70380 -0.52300
O 	O 	0.55040 0.60690 0.73970 -0.40200
O 	O 	0.79991 0.67708 0.82430 -0.54100
O 	O 	0.71620 0.37540 0.06700 -0.49500
O 	O 	0.87886 0.47648 0.00280 -0.55400
O 	O 	0.38850 0.99290 0.72010 -0.42500
O 	O 	0.57870 0.96790 0.78310 -0.45500
O 	O 	0.91835 0.26570 0.20380 -0.52200
O 	O 	0.10300 0.10690 0.23970 -0.40900
O 	O 	0.69871 0.17708 0.32430 -0.54000
O 	O 	0.84140 0.87540 0.56700 -0.50600
O 	O 	0.64186 0.97648 0.50280 -0.56700
O 	O 	0.10150 0.50710 0.77990 -0.42100
O 	O 	0.32970 0.53210 0.71690 -0.45300
O 	O 	0.38785 0.23430 0.29620 -0.52300
O 	O 	0.44960 0.39310 0.26030 -0.40200
O 	O 	0.20009 0.32292 0.17570 -0.54100
O 	O 	0.28380 0.62460 0.93300 -0.49500
O 	O 	0.12114 0.52352 0.99720 -0.55400
