data_crystal

_cell_length_a 10.02760
_cell_length_b 12.78480
_cell_length_c 12.96220
_cell_angle_alpha 71.18060
_cell_angle_beta  67.24450
_cell_angle_gamma 66.91060

_symmetry_space_group_name_	'P 1'
_symmetry_space_group_name_H-M	'P 1'

loop_
_symmetry_equiv_pos_as_xyz
  x,y,z

loop_
_atom_site_label
_atom_site_type_symbol
_atom_site_fract_x
_atom_site_fract_y
_atom_site_fract_z
_atom_site_charge
Co	Co	0.96667 0.61352 0.89778 1.17500
Co	Co	0.25058 0.16721 0.26375 1.18900
Co	Co	0.47797 0.88648 0.60222 1.18200
Co	Co	0.68154 0.33279 0.23625 1.18900
Co	Co	0.03333 0.38648 0.10222 1.17500
Co	Co	0.74942 0.83279 0.73625 1.18900
Co	Co	0.52203 0.11352 0.39778 1.18200
Co	Co	0.31846 0.66721 0.76375 1.18900
H 	H 	0.85920 0.88500 0.15540 0.06400
H 	H 	0.00360 0.75090 0.03950 -0.00100
H 	H 	0.63680 0.72520 0.02080 0.00100
H 	H 	0.48370 0.86620 0.12820 0.06300
H 	H 	0.13780 0.95830 0.74190 0.00800
H 	H 	0.12610 0.91670 0.54110 0.15100
H 	H 	0.01130 0.02330 0.60070 0.16000
H 	H 	0.89960 0.61500 0.34460 0.06000
H 	H 	0.79400 0.74910 0.46050 0.01300
H 	H 	0.38280 0.77480 0.47920 0.00100
H 	H 	0.47810 0.63380 0.37180 0.06200
H 	H 	0.83800 0.54170 0.75810 0.00400
H 	H 	0.58390 0.58330 0.95890 0.15200
H 	H 	0.63530 0.47670 0.89930 0.16400
H 	H 	0.14080 0.11500 0.84460 0.06400
H 	H 	0.99640 0.24910 0.96050 -0.00100
H 	H 	0.36320 0.27480 0.97920 0.00100
H 	H 	0.51630 0.13380 0.87180 0.06300
H 	H 	0.86220 0.04170 0.25810 0.00800
H 	H 	0.87390 0.08330 0.45890 0.15100
H 	H 	0.98870 0.97670 0.39930 0.16000
H 	H 	0.10040 0.38500 0.65540 0.06000
H 	H 	0.20600 0.25090 0.53950 0.01300
H 	H 	0.61720 0.22520 0.52080 0.00100
H 	H 	0.52190 0.36620 0.62820 0.06200
H 	H 	0.16200 0.45830 0.24190 0.00400
H 	H 	0.41610 0.41670 0.04110 0.15200
H 	H 	0.36470 0.52330 0.10070 0.16400
C 	C 	0.55550 0.98550 0.22270 0.36600
C 	C 	0.65480 0.89350 0.15230 -0.04300
C 	C 	0.81060 0.85520 0.12640 -0.06300
C 	C 	0.89610 0.77400 0.05840 0.06600
C 	C 	0.68310 0.76020 0.04640 0.03600
C 	C 	0.59080 0.84350 0.11150 -0.05500
C 	C 	0.03100 0.83880 0.75420 0.33000
C 	C 	0.15100 0.90470 0.69470 0.10200
C 	C 	0.11810 0.97280 0.58260 -0.41600
C 	C 	0.21800 0.04850 0.50130 0.46600
C 	C 	0.76370 0.51450 0.27730 0.36800
C 	C 	0.70060 0.60650 0.34770 -0.04800
C 	C 	0.79220 0.64480 0.37360 -0.05200
C 	C 	0.72850 0.72600 0.44160 0.04500
C 	C 	0.48970 0.73980 0.45360 0.03300
C 	C 	0.54580 0.65650 0.38850 -0.05100
C 	C 	0.62400 0.66120 0.74580 0.31700
C 	C 	0.75040 0.59530 0.80530 0.10800
C 	C 	0.67350 0.52720 0.91740 -0.42200
C 	C 	0.76780 0.45150 0.99870 0.45300
C 	C 	0.44450 0.01450 0.77730 0.36600
C 	C 	0.34520 0.10650 0.84770 -0.04300
C 	C 	0.18940 0.14480 0.87360 -0.06300
C 	C 	0.10390 0.22600 0.94160 0.06600
C 	C 	0.31690 0.23980 0.95360 0.03600
C 	C 	0.40920 0.15650 0.88850 -0.05500
C 	C 	0.96900 0.16120 0.24580 0.33000
C 	C 	0.84900 0.09530 0.30530 0.10200
C 	C 	0.88190 0.02720 0.41740 -0.41600
C 	C 	0.78200 0.95150 0.49870 0.46600
C 	C 	0.23630 0.48550 0.72270 0.36800
C 	C 	0.29940 0.39350 0.65230 -0.04800
C 	C 	0.20780 0.35520 0.62640 -0.05200
C 	C 	0.27150 0.27400 0.55840 0.04500
C 	C 	0.51030 0.26020 0.54640 0.03300
C 	C 	0.45420 0.34350 0.61150 -0.05100
C 	C 	0.37600 0.33880 0.25420 0.31700
C 	C 	0.24960 0.40470 0.19470 0.10800
C 	C 	0.32650 0.47280 0.08260 -0.42200
C 	C 	0.23220 0.54850 0.00130 0.45300
N 	N 	0.83430 0.72610 0.01790 -0.21600
N 	N 	0.57830 0.77390 0.48210 -0.21500
N 	N 	0.16570 0.27390 0.98210 -0.21600
N 	N 	0.42170 0.22610 0.51790 -0.21500
O 	O 	0.61424 0.00682 0.27970 -0.42400
O 	O 	0.42287 0.03116 0.21550 -0.45000
O 	O 	0.08026 0.73428 0.79580 -0.54300
O 	O 	0.89450 0.89330 0.76430 -0.42600
O 	O 	0.29965 0.82420 0.67490 -0.50600
O 	O 	0.35685 0.02340 0.49670 -0.55600
O 	O 	0.15490 0.12600 0.43180 -0.48300
O 	O 	0.90076 0.49318 0.22030 -0.42200
O 	O 	0.66953 0.46884 0.28450 -0.45000
O 	O 	0.61034 0.76572 0.70420 -0.54300
O 	O 	0.55210 0.60670 0.73570 -0.41500
O 	O 	0.79875 0.67580 0.82510 -0.51000
O 	O 	0.87695 0.47660 0.00330 -0.54400
O 	O 	0.71270 0.37400 0.06820 -0.47400
O 	O 	0.38576 0.99318 0.72030 -0.42400
O 	O 	0.57713 0.96884 0.78450 -0.45000
O 	O 	0.91974 0.26572 0.20420 -0.54300
O 	O 	0.10550 0.10670 0.23570 -0.42600
O 	O 	0.70035 0.17580 0.32510 -0.50600
O 	O 	0.64315 0.97660 0.50330 -0.55600
O 	O 	0.84510 0.87400 0.56820 -0.48300
O 	O 	0.09924 0.50682 0.77970 -0.42200
O 	O 	0.33047 0.53116 0.71550 -0.45000
O 	O 	0.38966 0.23428 0.29580 -0.54300
O 	O 	0.44790 0.39330 0.26430 -0.41500
O 	O 	0.20125 0.32420 0.17490 -0.51000
O 	O 	0.12305 0.52340 0.99670 -0.54400
O 	O 	0.28730 0.62600 0.93180 -0.47400
