data_crystal

_cell_length_a 14.31720
_cell_length_b 17.40170
_cell_length_c 7.33340
_cell_angle_alpha 90.00000
_cell_angle_beta  90.00000
_cell_angle_gamma 90.00000

_symmetry_space_group_name_	'P 1'
_symmetry_space_group_name_H-M	'P 1'

loop_
_symmetry_equiv_pos_as_xyz
  x,y,z

loop_
_atom_site_label
_atom_site_type_symbol
_atom_site_fract_x
_atom_site_fract_y
_atom_site_fract_z
_atom_site_charge
N 	N 	0.14629 0.77259 0.28825 -0.24800
C 	C 	0.09592 0.77831 0.16875 0.11600
N 	N 	0.64629 0.27259 0.28825 -0.24900
C 	C 	0.59592 0.27831 0.16875 0.11800
N 	N 	0.85371 0.22741 0.28825 -0.24800
C 	C 	0.90408 0.22169 0.16875 0.12100
N 	N 	0.35371 0.72741 0.28825 -0.24800
C 	C 	0.40408 0.72169 0.16875 0.11900
N 	N 	0.85371 0.77259 0.71175 -0.24800
C 	C 	0.90408 0.77831 0.83125 0.09400
N 	N 	0.35371 0.27259 0.71175 -0.24600
C 	C 	0.40408 0.27831 0.83125 0.09600
N 	N 	0.14629 0.22741 0.71175 -0.24500
C 	C 	0.09592 0.22169 0.83125 0.09600
N 	N 	0.64629 0.72741 0.71175 -0.24600
C 	C 	0.59592 0.72169 0.83125 0.09500
N 	N 	0.85371 0.22741 0.71175 -0.24700
C 	C 	0.90408 0.22169 0.83125 0.09700
N 	N 	0.35371 0.72741 0.71175 -0.24600
C 	C 	0.40408 0.72169 0.83125 0.09500
N 	N 	0.14629 0.77259 0.71175 -0.24600
C 	C 	0.09592 0.77831 0.83125 0.09400
N 	N 	0.64629 0.27259 0.71175 -0.24600
C 	C 	0.59592 0.27831 0.83125 0.09500
N 	N 	0.14629 0.22741 0.28825 -0.24600
C 	C 	0.09592 0.22169 0.16875 0.12000
N 	N 	0.64629 0.72741 0.28825 -0.24800
C 	C 	0.59592 0.72169 0.16875 0.11900
N 	N 	0.85371 0.77259 0.28825 -0.24900
C 	C 	0.90408 0.77831 0.16875 0.11800
N 	N 	0.35371 0.27259 0.28825 -0.24800
C 	C 	0.40408 0.27831 0.16875 0.12000
Fe	Fe	0.25000 0.75000 0.50000 1.13200
Fe	Fe	0.75000 0.25000 0.50000 1.13300
Fe	Fe	0.75000 0.75000 0.50000 1.13200
Fe	Fe	0.25000 0.25000 0.50000 1.13300
C 	C 	0.04708 0.78213 -0.00000 -0.04700
C 	C 	0.54708 0.28213 -0.00000 -0.05400
C 	C 	0.95292 0.21787 -0.00000 -0.06200
C 	C 	0.45292 0.71787 -0.00000 -0.05400
C 	C 	0.95292 0.78213 -0.00000 -0.06300
C 	C 	0.45292 0.28213 -0.00000 -0.05400
C 	C 	0.04708 0.21787 -0.00000 -0.04600
C 	C 	0.54708 0.71787 -0.00000 -0.05400
N 	N 	0.00000 0.37912 0.22770 -0.13500
C 	C 	0.00000 0.43124 0.29700 0.10700
N 	N 	0.50000 0.87912 0.22770 -0.13300
C 	C 	0.50000 0.93124 0.29700 0.08700
N 	N 	0.00000 0.62088 0.22770 -0.13500
C 	C 	-0.00000 0.56876 0.29700 0.10700
N 	N 	0.50000 0.12088 0.22770 -0.13500
C 	C 	0.50000 0.06876 0.29700 0.10500
N 	N 	0.00000 0.37912 0.77230 -0.14200
C 	C 	0.00000 0.43124 0.70300 0.10000
N 	N 	0.50000 0.87912 0.77230 -0.13900
C 	C 	0.50000 0.93124 0.70300 0.08000
N 	N 	0.00000 0.62088 0.77230 -0.14200
C 	C 	-0.00000 0.56876 0.70300 0.10000
N 	N 	0.50000 0.12088 0.77230 -0.14200
C 	C 	0.50000 0.06876 0.70300 0.09800
C 	C 	0.03938 0.50000 0.42400 -0.00600
C 	C 	0.53938 -0.00000 0.42400 -0.00900
C 	C 	0.96062 0.50000 0.42400 -0.02400
C 	C 	0.46062 -0.00000 0.42400 -0.00900
C 	C 	0.96062 0.50000 0.57600 -0.02500
C 	C 	0.46062 0.00000 0.57600 -0.01000
C 	C 	0.03938 0.50000 0.57600 -0.00700
C 	C 	0.53938 0.00000 0.57600 -0.01000
N 	N 	0.21135 0.62998 0.50000 -0.26500
C 	C 	0.18401 0.56999 0.50000 0.14800
N 	N 	0.71135 0.12998 0.50000 -0.26200
C 	C 	0.68401 0.06999 0.50000 0.14300
N 	N 	0.78865 0.37002 0.50000 -0.26300
C 	C 	0.81599 0.43001 0.50000 0.14200
N 	N 	0.28865 0.87002 0.50000 -0.26000
C 	C 	0.31599 0.93001 0.50000 0.12700
N 	N 	0.78865 0.62998 0.50000 -0.26300
C 	C 	0.81599 0.56999 0.50000 0.14200
N 	N 	0.28865 0.12998 0.50000 -0.26200
C 	C 	0.31599 0.06999 0.50000 0.14400
N 	N 	0.21135 0.37002 0.50000 -0.26400
C 	C 	0.18401 0.43001 0.50000 0.14800
N 	N 	0.71135 0.87002 0.50000 -0.26000
C 	C 	0.68401 0.93001 0.50000 0.12600
C 	C 	0.13837 0.50000 0.50000 -0.12900
C 	C 	0.63837 0.00000 0.50000 -0.10500
C 	C 	0.86163 0.50000 0.50000 -0.11800
C 	C 	0.36163 0.00000 0.50000 -0.10500
