data_crystal

_cell_length_a 16.65020
_cell_length_b 16.65020
_cell_length_c 51.31300
_cell_angle_alpha 90.00000
_cell_angle_beta  90.00000
_cell_angle_gamma 120.00000

_symmetry_space_group_name_	'P 1'
_symmetry_space_group_name_H-M	'P 1'

loop_
_symmetry_equiv_pos_as_xyz
  x,y,z

loop_
_atom_site_label
_atom_site_type_symbol
_atom_site_fract_x
_atom_site_fract_y
_atom_site_fract_z
_atom_site_charge
W 	W 	0.51816 0.62430 0.17320 1.01300
W 	W 	0.30545 0.44762 0.16910 1.29800
W 	W 	0.25835 0.53290 0.22964 1.05400
W 	W 	0.39798 0.58509 0.11885 1.02100
Tm	Tm	0.32229 0.21718 0.16869 1.37500
O 	O 	0.43990 0.49490 0.17840 -0.45700
O 	O 	0.27780 0.33220 0.17180 -0.53800
O 	O 	0.37780 0.59410 0.16150 -0.35600
O 	O 	0.50800 0.60620 0.13540 -0.44500
O 	O 	0.29850 0.47950 0.20570 -0.46200
O 	O 	0.24540 0.38500 0.31190 -0.52200
O 	O 	0.49650 0.65430 0.20740 -0.45500
O 	O 	0.37460 0.28750 0.20790 -0.48800
O 	O 	0.33440 0.45560 0.13340 -0.46800
O 	O 	0.19310 0.43970 0.16510 -0.47300
O 	O 	0.22600 0.62200 0.24520 -0.43100
O 	O 	0.43670 0.71000 0.11580 -0.45700
O 	O 	0.37160 0.50180 0.32720 -0.34300
N 	N 	0.50500 0.50990 0.25730 -0.15700
C 	C 	0.37930 0.36360 0.24700 -0.19200
C 	C 	0.46420 0.43530 0.24120 0.12500
H 	H 	0.49580 0.43290 0.22580 -0.01700
C 	C 	0.37930 0.44080 0.28630 -0.20100
C 	C 	0.46660 0.51330 0.28030 0.13600
H 	H 	0.49900 0.56420 0.29210 -0.02300
C 	C 	0.33610 0.36590 0.27000 0.12600
H 	H 	0.27580 0.31520 0.27430 -0.01300
C 	C 	0.33030 0.44520 0.31010 0.40700
C 	C 	0.33290 0.28020 0.22950 0.40000
O 	O 	0.26460 0.21330 0.23720 -0.35800
W 	W 	0.18483 0.95763 0.50653 1.07700
W 	W 	0.97212 0.78095 0.50243 1.15900
W 	W 	0.92502 0.86623 0.56298 0.97000
W 	W 	0.06465 0.91842 0.45219 1.15200
Tm	Tm	0.98896 0.55051 0.50202 1.34200
O 	O 	0.10657 0.82823 0.51173 -0.42100
O 	O 	0.94447 0.66553 0.50513 -0.54200
O 	O 	0.04447 0.92743 0.49483 -0.30300
O 	O 	0.17467 0.93953 0.46873 -0.43700
O 	O 	0.96517 0.81283 0.53903 -0.47000
O 	O 	0.91207 0.71833 0.64523 -0.49900
O 	O 	0.16317 0.98763 0.54073 -0.40200
O 	O 	0.04127 0.62083 0.54123 -0.36900
O 	O 	0.00107 0.78893 0.46673 -0.40900
O 	O 	0.85977 0.77303 0.49843 -0.46300
O 	O 	0.89267 0.95533 0.57853 -0.38400
O 	O 	0.10337 0.04333 0.44913 -0.50300
O 	O 	0.03827 0.83513 0.66053 -0.22200
N 	N 	0.17167 0.84323 0.59063 -0.13400
C 	C 	0.04597 0.69693 0.58033 -0.08600
C 	C 	0.13087 0.76863 0.57453 0.07900
H 	H 	0.16247 0.76623 0.55913 0.00900
C 	C 	0.04597 0.77413 0.61963 -0.09500
C 	C 	0.13327 0.84663 0.61363 0.09100
H 	H 	0.16567 0.89753 0.62543 0.00800
C 	C 	0.00277 0.69923 0.60333 0.17200
H 	H 	0.94247 0.64853 0.60763 -0.07400
C 	C 	0.99697 0.77853 0.64343 0.21400
C 	C 	0.99957 0.61353 0.56283 0.21900
O 	O 	0.93127 0.54663 0.57053 -0.32800
W 	W 	0.85149 0.29097 0.83987 0.97700
W 	W 	0.63878 0.11429 0.83577 1.22600
W 	W 	0.59168 0.19957 0.89631 1.03400
W 	W 	0.73131 0.25176 0.78552 1.00400
Tm	Tm	0.65562 0.88385 0.83535 1.39400
O 	O 	0.77323 0.16157 0.84507 -0.46900
O 	O 	0.61113 0.99887 0.83847 -0.48300
O 	O 	0.71113 0.26077 0.82817 -0.34300
O 	O 	0.84133 0.27287 0.80207 -0.46000
O 	O 	0.63183 0.14617 0.87237 -0.46400
O 	O 	0.57873 0.05167 0.97857 -0.54200
O 	O 	0.82983 0.32097 0.87407 -0.45800
O 	O 	0.70793 0.95417 0.87457 -0.47500
O 	O 	0.66773 0.12227 0.80007 -0.48300
O 	O 	0.52643 0.10637 0.83177 -0.48100
O 	O 	0.55933 0.28867 0.91187 -0.43300
O 	O 	0.77003 0.37667 0.78247 -0.46000
O 	O 	0.70493 0.16847 0.99387 -0.34700
N 	N 	0.83833 0.17657 0.92397 -0.16600
C 	C 	0.71263 0.03027 0.91367 -0.22400
C 	C 	0.79753 0.10197 0.90787 0.12600
H 	H 	0.82913 0.09957 0.89247 -0.04300
C 	C 	0.71263 0.10747 0.95297 -0.16000
C 	C 	0.79993 0.17997 0.94697 0.11000
H 	H 	0.83233 0.23087 0.95877 -0.02200
C 	C 	0.66943 0.03257 0.93667 -0.00100
H 	H 	0.60913 0.98187 0.94097 0.07800
C 	C 	0.66363 0.11187 0.97677 0.38500
C 	C 	0.66623 0.94687 0.89617 0.45400
O 	O 	0.59793 0.87997 0.90387 -0.35300
W 	W 	0.37570 0.89386 0.17320 1.03800
W 	W 	0.55238 0.85783 0.16910 1.29800
W 	W 	0.46710 0.72545 0.22964 1.05200
W 	W 	0.41491 0.81289 0.11885 1.03000
Tm	Tm	0.78282 0.10511 0.16869 1.34100
O 	O 	0.50510 0.94500 0.17840 -0.43700
O 	O 	0.66780 0.94560 0.17180 -0.50900
O 	O 	0.40590 0.78370 0.16150 -0.36000
O 	O 	0.39380 0.90180 0.13540 -0.43600
O 	O 	0.52050 0.81900 0.20570 -0.45500
O 	O 	0.61500 0.86040 0.31190 -0.52200
O 	O 	0.34570 0.84220 0.20740 -0.45000
O 	O 	0.71250 0.08710 0.20790 -0.51300
O 	O 	0.54440 0.87880 0.13340 -0.45900
O 	O 	0.56030 0.75340 0.16510 -0.47300
O 	O 	0.37800 0.60400 0.24520 -0.43400
O 	O 	0.29000 0.72670 0.11580 -0.45800
O 	O 	0.49820 0.86980 0.32720 -0.33600
N 	N 	0.49010 0.99510 0.25730 -0.12100
C 	C 	0.63640 0.01570 0.24700 -0.28800
C 	C 	0.56470 0.02890 0.24120 0.08800
H 	H 	0.56710 0.06290 0.22580 -0.02300
C 	C 	0.55920 0.93850 0.28630 -0.23300
C 	C 	0.48670 0.95330 0.28030 0.16900
H 	H 	0.43580 0.93480 0.29210 -0.02100
C 	C 	0.63410 0.97020 0.27000 0.24500
H 	H 	0.68480 0.96060 0.27430 -0.03400
C 	C 	0.55480 0.88510 0.31010 0.42600
C 	C 	0.71980 0.05270 0.22950 0.42300
O 	O 	0.78670 0.05130 0.23720 -0.40500
W 	W 	0.04237 0.22719 0.50653 1.07700
W 	W 	0.21905 0.19116 0.50243 1.29400
W 	W 	0.13377 0.05878 0.56298 0.94300
W 	W 	0.08158 0.14622 0.45219 1.09300
Tm	Tm	0.44949 0.43844 0.50202 1.38700
O 	O 	0.17177 0.27833 0.51173 -0.46200
O 	O 	0.33447 0.27893 0.50513 -0.54000
O 	O 	0.07257 0.11703 0.49483 -0.36000
O 	O 	0.06047 0.23513 0.46873 -0.43000
O 	O 	0.18717 0.15233 0.53903 -0.45600
O 	O 	0.28167 0.19373 0.64523 -0.53300
O 	O 	0.01237 0.17553 0.54073 -0.39400
O 	O 	0.37917 0.42043 0.54123 -0.48100
O 	O 	0.21107 0.21213 0.46673 -0.47600
O 	O 	0.22697 0.08673 0.49843 -0.51500
O 	O 	0.04467 0.93733 0.57853 -0.34400
O 	O 	0.95667 0.06003 0.44913 -0.55500
O 	O 	0.16487 0.20313 0.66053 -0.34100
N 	N 	0.15677 0.32843 0.59063 -0.15000
C 	C 	0.30307 0.34903 0.58033 -0.19200
C 	C 	0.23137 0.36223 0.57453 0.12500
H 	H 	0.23377 0.39623 0.55913 -0.01100
C 	C 	0.22587 0.27183 0.61963 -0.20200
C 	C 	0.15337 0.28663 0.61363 0.13700
H 	H 	0.10247 0.26813 0.62543 -0.01200
C 	C 	0.30077 0.30353 0.60333 0.12600
H 	H 	0.35147 0.29393 0.60763 -0.01800
C 	C 	0.22147 0.21843 0.64343 0.40600
C 	C 	0.38647 0.38603 0.56283 0.39900
O 	O 	0.45337 0.38463 0.57053 -0.35800
W 	W 	0.70903 0.56053 0.83987 1.01100
W 	W 	0.88571 0.52450 0.83577 1.21800
W 	W 	0.80043 0.39212 0.89631 1.03200
W 	W 	0.74824 0.47956 0.78552 1.00700
Tm	Tm	0.11615 0.77178 0.83535 1.41000
O 	O 	0.83843 0.61167 0.84507 -0.46500
O 	O 	0.00113 0.61227 0.83847 -0.47500
O 	O 	0.73923 0.45037 0.82817 -0.34700
O 	O 	0.72713 0.56847 0.80207 -0.44600
O 	O 	0.85383 0.48567 0.87237 -0.46500
O 	O 	0.94833 0.52707 0.97857 -0.54400
O 	O 	0.67903 0.50887 0.87407 -0.45400
O 	O 	0.04583 0.75377 0.87457 -0.46000
O 	O 	0.87773 0.54547 0.80007 -0.48200
O 	O 	0.89363 0.42007 0.83177 -0.48100
O 	O 	0.71133 0.27067 0.91187 -0.43100
O 	O 	0.62333 0.39337 0.78247 -0.45600
O 	O 	0.83153 0.53647 0.99387 -0.34600
N 	N 	0.82343 0.66177 0.92397 -0.15300
C 	C 	0.96973 0.68237 0.91367 -0.22300
C 	C 	0.89803 0.69557 0.90787 0.12600
H 	H 	0.90043 0.72957 0.89247 -0.03100
C 	C 	0.89253 0.60517 0.95297 -0.15500
C 	C 	0.82003 0.61997 0.94697 0.11000
H 	H 	0.76913 0.60147 0.95877 -0.01500
C 	C 	0.96743 0.63687 0.93667 -0.01800
H 	H 	0.01813 0.62727 0.94097 0.09000
C 	C 	0.88813 0.55177 0.97677 0.38200
C 	C 	0.05313 0.71937 0.89617 0.45800
O 	O 	0.12003 0.71797 0.90387 -0.34700
W 	W 	0.10614 0.48184 0.17320 1.03800
W 	W 	0.14217 0.69455 0.16910 1.30000
W 	W 	0.27455 0.74165 0.22964 1.06000
W 	W 	0.18711 0.60202 0.11885 1.03200
Tm	Tm	0.89489 0.67771 0.16869 1.35500
O 	O 	0.05500 0.56010 0.17840 -0.43500
O 	O 	0.05440 0.72220 0.17180 -0.50100
O 	O 	0.21630 0.62220 0.16150 -0.36000
O 	O 	0.09820 0.49200 0.13540 -0.43400
O 	O 	0.18100 0.70150 0.20570 -0.45300
O 	O 	0.13960 0.75460 0.31190 -0.51200
O 	O 	0.15780 0.50350 0.20740 -0.45000
O 	O 	0.91290 0.62540 0.20790 -0.50700
O 	O 	0.12120 0.66560 0.13340 -0.45700
O 	O 	0.24660 0.80690 0.16510 -0.47200
O 	O 	0.39600 0.77400 0.24520 -0.43100
O 	O 	0.27330 0.56330 0.11580 -0.45800
O 	O 	0.13020 0.62840 0.32720 -0.33300
N 	N 	0.00490 0.49500 0.25730 -0.11600
C 	C 	0.98430 0.62070 0.24700 -0.29100
C 	C 	0.97110 0.53580 0.24120 0.08000
H 	H 	0.93710 0.50420 0.22580 -0.02200
C 	C 	0.06150 0.62070 0.28630 -0.23100
C 	C 	0.04670 0.53340 0.28030 0.17100
H 	H 	0.06520 0.50100 0.29210 -0.02100
C 	C 	0.02980 0.66390 0.27000 0.25400
H 	H 	0.03940 0.72420 0.27430 -0.02500
C 	C 	0.11490 0.66970 0.31010 0.42600
C 	C 	0.94730 0.66710 0.22950 0.42000
O 	O 	0.94870 0.73540 0.23720 -0.38100
W 	W 	0.77281 0.81517 0.50653 1.00500
W 	W 	0.80884 0.02788 0.50243 1.16800
W 	W 	0.94122 0.07498 0.56298 0.84300
W 	W 	0.85378 0.93535 0.45219 1.07600
Tm	Tm	0.56156 0.01104 0.50202 1.34600
O 	O 	0.72167 0.89343 0.51173 -0.41700
O 	O 	0.72107 0.05553 0.50513 -0.54300
O 	O 	0.88297 0.95553 0.49483 -0.33500
O 	O 	0.76487 0.82533 0.46873 -0.45000
O 	O 	0.84767 0.03483 0.53903 -0.46400
O 	O 	0.80627 0.08793 0.64523 -0.51500
O 	O 	0.82447 0.83683 0.54073 -0.43800
O 	O 	0.57957 0.95873 0.54123 -0.38200
O 	O 	0.78787 0.99893 0.46673 -0.40900
O 	O 	0.91327 0.14023 0.49843 -0.50900
O 	O 	0.06267 0.10733 0.57853 -0.38500
O 	O 	0.93997 0.89663 0.44913 -0.50600
O 	O 	0.79687 0.96173 0.66053 -0.26000
N 	N 	0.67157 0.82833 0.59063 -0.14400
C 	C 	0.65097 0.95403 0.58033 -0.10100
C 	C 	0.63777 0.86913 0.57453 0.08600
H 	H 	0.60377 0.83753 0.55913 0.00300
C 	C 	0.72817 0.95403 0.61963 -0.11500
C 	C 	0.71337 0.86673 0.61363 0.09800
H 	H 	0.73187 0.83433 0.62543 -0.01000
C 	C 	0.69647 0.99723 0.60333 0.17200
H 	H 	0.70607 0.05753 0.60763 -0.07200
C 	C 	0.78157 0.00303 0.64343 0.23700
C 	C 	0.61397 0.00043 0.56283 0.24000
O 	O 	0.61537 0.06873 0.57053 -0.33400
W 	W 	0.43947 0.14851 0.83987 0.98800
W 	W 	0.47550 0.36122 0.83577 1.29500
W 	W 	0.60788 0.40832 0.89631 1.04800
W 	W 	0.52044 0.26869 0.78552 1.01400
Tm	Tm	0.22822 0.34438 0.83535 1.39200
O 	O 	0.38833 0.22677 0.84507 -0.45700
O 	O 	0.38773 0.38887 0.83847 -0.53700
O 	O 	0.54963 0.28887 0.82817 -0.35200
O 	O 	0.43153 0.15867 0.80207 -0.45400
O 	O 	0.51433 0.36817 0.87237 -0.46200
O 	O 	0.47293 0.42127 0.97857 -0.52200
O 	O 	0.49113 0.17017 0.87407 -0.45700
O 	O 	0.24623 0.29207 0.87457 -0.47900
O 	O 	0.45453 0.33227 0.80007 -0.46700
O 	O 	0.57993 0.47357 0.83177 -0.47300
O 	O 	0.72933 0.44067 0.91187 -0.43100
O 	O 	0.60663 0.22997 0.78247 -0.46000
O 	O 	0.46353 0.29507 0.99387 -0.34400
N 	N 	0.33823 0.16167 0.92397 -0.16500
C 	C 	0.31763 0.28737 0.91367 -0.18900
C 	C 	0.30443 0.20247 0.90787 0.12100
H 	H 	0.27043 0.17087 0.89247 -0.01900
C 	C 	0.39483 0.28737 0.95297 -0.20000
C 	C 	0.38003 0.20007 0.94697 0.13100
H 	H 	0.39853 0.16767 0.95877 -0.02700
C 	C 	0.36313 0.33057 0.93667 0.12400
H 	H 	0.37273 0.39087 0.94097 -0.01100
C 	C 	0.44823 0.33637 0.97677 0.40700
C 	C 	0.28063 0.33377 0.89617 0.39700
O 	O 	0.28203 0.40207 0.90387 -0.34400
W 	W 	0.37570 0.48184 0.67320 1.01300
W 	W 	0.55238 0.69455 0.66910 1.29700
W 	W 	0.46710 0.74165 0.72964 1.05200
W 	W 	0.41491 0.60202 0.61885 1.02000
Tm	Tm	0.78282 0.67771 0.66869 1.37200
O 	O 	0.50510 0.56010 0.67840 -0.45800
O 	O 	0.66780 0.72220 0.67180 -0.54000
O 	O 	0.40590 0.62220 0.66150 -0.35700
O 	O 	0.39380 0.49200 0.63540 -0.44500
O 	O 	0.52050 0.70150 0.70570 -0.46300
O 	O 	0.61500 0.75460 0.81190 -0.52300
O 	O 	0.34570 0.50350 0.70740 -0.45500
O 	O 	0.71250 0.62540 0.70790 -0.48900
O 	O 	0.54440 0.66560 0.63340 -0.46800
O 	O 	0.56030 0.80690 0.66510 -0.47300
O 	O 	0.37800 0.77400 0.74520 -0.43100
O 	O 	0.29000 0.56330 0.61580 -0.45700
O 	O 	0.49820 0.62840 0.82720 -0.34300
N 	N 	0.49010 0.49500 0.75730 -0.15700
C 	C 	0.63640 0.62070 0.74700 -0.19300
C 	C 	0.56470 0.53580 0.74120 0.12500
H 	H 	0.56710 0.50420 0.72580 -0.01700
C 	C 	0.55920 0.62070 0.78630 -0.20200
C 	C 	0.48670 0.53340 0.78030 0.13600
H 	H 	0.43580 0.50100 0.79210 -0.02300
C 	C 	0.63410 0.66390 0.77000 0.12700
H 	H 	0.68480 0.72420 0.77430 -0.01400
C 	C 	0.55480 0.66970 0.81010 0.40700
C 	C 	0.71980 0.66710 0.72950 0.40000
O 	O 	0.78670 0.73540 0.73720 -0.36100
W 	W 	0.04237 0.81517 0.00653 1.07600
W 	W 	0.21905 0.02788 0.00243 1.16500
W 	W 	0.13377 0.07498 0.06298 0.97900
W 	W 	0.08158 0.93535 0.95219 1.15200
Tm	Tm	0.44949 0.01104 0.00202 1.34400
O 	O 	0.17177 0.89343 0.01173 -0.42600
O 	O 	0.33447 0.05553 0.00513 -0.54200
O 	O 	0.07257 0.95553 0.99483 -0.30300
O 	O 	0.06047 0.82533 0.96873 -0.43200
O 	O 	0.18717 0.03483 0.03903 -0.46900
O 	O 	0.28167 0.08793 0.14523 -0.50100
O 	O 	0.01237 0.83683 0.04073 -0.39600
O 	O 	0.37917 0.95873 0.04123 -0.38100
O 	O 	0.21107 0.99893 0.96673 -0.41400
O 	O 	0.22697 0.14023 0.99843 -0.45800
O 	O 	0.04467 0.10733 0.07853 -0.37900
O 	O 	0.95667 0.89663 0.94913 -0.50900
O 	O 	0.16487 0.96173 0.16053 -0.23200
N 	N 	0.15677 0.82833 0.09063 -0.13500
C 	C 	0.30307 0.95403 0.08033 -0.09800
C 	C 	0.23137 0.86913 0.07453 0.08400
H 	H 	0.23377 0.83753 0.05913 0.00700
C 	C 	0.22587 0.95403 0.11963 -0.10600
C 	C 	0.15337 0.86673 0.11363 0.09600
H 	H 	0.10247 0.83433 0.12543 0.00800
C 	C 	0.30077 0.99723 0.10333 0.16600
H 	H 	0.35147 0.05753 0.10763 -0.06700
C 	C 	0.22147 0.00303 0.14343 0.23500
C 	C 	0.38647 0.00043 0.06283 0.23900
O 	O 	0.45337 0.06873 0.07053 -0.33200
W 	W 	0.70903 0.14851 0.33987 0.98000
W 	W 	0.88571 0.36122 0.33577 1.21800
W 	W 	0.80043 0.40832 0.39631 1.03200
W 	W 	0.74824 0.26869 0.28552 1.00300
Tm	Tm	0.11615 0.34438 0.33535 1.39600
O 	O 	0.83843 0.22677 0.34507 -0.46900
O 	O 	0.00113 0.38887 0.33847 -0.47600
O 	O 	0.73923 0.28887 0.32817 -0.34300
O 	O 	0.72713 0.15867 0.30207 -0.45900
O 	O 	0.85383 0.36817 0.37237 -0.46400
O 	O 	0.94833 0.42127 0.47857 -0.54700
O 	O 	0.67903 0.17017 0.37407 -0.45700
O 	O 	0.04583 0.29207 0.37457 -0.47300
O 	O 	0.87773 0.33227 0.30007 -0.48500
O 	O 	0.89363 0.47357 0.33177 -0.48100
O 	O 	0.71133 0.44067 0.41187 -0.43300
O 	O 	0.62333 0.22997 0.28247 -0.46000
O 	O 	0.83153 0.29507 0.49387 -0.34900
N 	N 	0.82343 0.16167 0.42397 -0.16400
C 	C 	0.96973 0.28737 0.41367 -0.22800
C 	C 	0.89803 0.20247 0.40787 0.12700
H 	H 	0.90043 0.17087 0.39247 -0.04400
C 	C 	0.89253 0.28737 0.45297 -0.15600
C 	C 	0.82003 0.20007 0.44697 0.10800
H 	H 	0.76913 0.16767 0.45877 -0.02200
C 	C 	0.96743 0.33057 0.43667 -0.01600
H 	H 	0.01813 0.39087 0.44097 0.08900
C 	C 	0.88813 0.33637 0.47677 0.38300
C 	C 	0.05313 0.33377 0.39617 0.46100
O 	O 	0.12003 0.40207 0.40387 -0.35400
W 	W 	0.10614 0.62430 0.67320 1.04100
W 	W 	0.14217 0.44762 0.66910 1.29800
W 	W 	0.27455 0.53290 0.72964 1.05300
W 	W 	0.18711 0.58509 0.61885 1.03200
Tm	Tm	0.89489 0.21718 0.66869 1.34000
O 	O 	0.05500 0.49490 0.67840 -0.43500
O 	O 	0.05440 0.33220 0.67180 -0.50500
O 	O 	0.21630 0.59410 0.66150 -0.36000
O 	O 	0.09820 0.60620 0.63540 -0.43400
O 	O 	0.18100 0.47950 0.70570 -0.45400
O 	O 	0.13960 0.38500 0.81190 -0.52100
O 	O 	0.15780 0.65430 0.70740 -0.44900
O 	O 	0.91290 0.28750 0.70790 -0.51500
O 	O 	0.12120 0.45560 0.63340 -0.45700
O 	O 	0.24660 0.43970 0.66510 -0.47300
O 	O 	0.39600 0.62200 0.74520 -0.43400
O 	O 	0.27330 0.71000 0.61580 -0.45800
O 	O 	0.13020 0.50180 0.82720 -0.33500
N 	N 	0.00490 0.50990 0.75730 -0.11600
C 	C 	0.98430 0.36360 0.74700 -0.29900
C 	C 	0.97110 0.43530 0.74120 0.08300
H 	H 	0.93710 0.43290 0.72580 -0.02300
C 	C 	0.06150 0.44080 0.78630 -0.23600
C 	C 	0.04670 0.51330 0.78030 0.17300
H 	H 	0.06520 0.56420 0.79210 -0.02100
C 	C 	0.02980 0.36590 0.77000 0.25900
H 	H 	0.03940 0.31520 0.77430 -0.03500
C 	C 	0.11490 0.44520 0.81010 0.42800
C 	C 	0.94730 0.28020 0.72950 0.42500
O 	O 	0.94870 0.21330 0.73720 -0.40700
W 	W 	0.77281 0.95763 0.00653 1.05900
W 	W 	0.80884 0.78095 0.00243 1.28400
W 	W 	0.94122 0.86623 0.06298 0.92700
W 	W 	0.85378 0.91842 0.95219 1.08400
Tm	Tm	0.56156 0.55051 0.00202 1.38400
O 	O 	0.72167 0.82823 0.01173 -0.46000
O 	O 	0.72107 0.66553 0.00513 -0.54000
O 	O 	0.88297 0.92743 0.99483 -0.35900
O 	O 	0.76487 0.93953 0.96873 -0.42900
O 	O 	0.84767 0.81283 0.03903 -0.45500
O 	O 	0.80627 0.71833 0.14523 -0.53400
O 	O 	0.82447 0.98763 0.04073 -0.39800
O 	O 	0.57957 0.62083 0.04123 -0.48200
O 	O 	0.78787 0.78893 0.96673 -0.47200
O 	O 	0.91327 0.77303 0.99843 -0.51400
O 	O 	0.06267 0.95533 0.07853 -0.34400
O 	O 	0.93997 0.04333 0.94913 -0.55400
O 	O 	0.79687 0.83513 0.16053 -0.34400
N 	N 	0.67157 0.84323 0.09063 -0.15100
C 	C 	0.65097 0.69693 0.08033 -0.19200
C 	C 	0.63777 0.76863 0.07453 0.12500
H 	H 	0.60377 0.76623 0.05913 -0.01200
C 	C 	0.72817 0.77413 0.11963 -0.20300
C 	C 	0.71337 0.84663 0.11363 0.13700
H 	H 	0.73187 0.89753 0.12543 -0.01400
C 	C 	0.69647 0.69923 0.10333 0.12700
H 	H 	0.70607 0.64853 0.10763 -0.01800
C 	C 	0.78157 0.77853 0.14343 0.40700
C 	C 	0.61397 0.61353 0.06283 0.39900
O 	O 	0.61537 0.54663 0.07053 -0.35800
W 	W 	0.43947 0.29097 0.33987 1.01200
W 	W 	0.47550 0.11429 0.33577 1.22700
W 	W 	0.60788 0.19957 0.39631 1.03300
W 	W 	0.52044 0.25176 0.28552 1.00900
Tm	Tm	0.22822 0.88385 0.33535 1.41000
O 	O 	0.38833 0.16157 0.34507 -0.46300
O 	O 	0.38773 0.99887 0.33847 -0.48200
O 	O 	0.54963 0.26077 0.32817 -0.34800
O 	O 	0.43153 0.27287 0.30207 -0.44500
O 	O 	0.51433 0.14617 0.37237 -0.46500
O 	O 	0.47293 0.05167 0.47857 -0.54400
O 	O 	0.49113 0.32097 0.37407 -0.45400
O 	O 	0.24623 0.95417 0.37457 -0.46100
O 	O 	0.45453 0.12227 0.30007 -0.48000
O 	O 	0.57993 0.10637 0.33177 -0.48000
O 	O 	0.72933 0.28867 0.41187 -0.43100
O 	O 	0.60663 0.37667 0.28247 -0.45600
O 	O 	0.46353 0.16847 0.49387 -0.34800
N 	N 	0.33823 0.17657 0.42397 -0.15400
C 	C 	0.31763 0.03027 0.41367 -0.21900
C 	C 	0.30443 0.10197 0.40787 0.12600
H 	H 	0.27043 0.09957 0.39247 -0.02800
C 	C 	0.39483 0.10747 0.45297 -0.16000
C 	C 	0.38003 0.17997 0.44697 0.11300
H 	H 	0.39853 0.23087 0.45877 -0.01600
C 	C 	0.36313 0.03257 0.43667 -0.00200
H 	H 	0.37273 0.98187 0.44097 0.07800
C 	C 	0.44823 0.11187 0.47677 0.38600
C 	C 	0.28063 0.94687 0.39617 0.45200
O 	O 	0.28203 0.87997 0.40387 -0.34600
W 	W 	0.51816 0.89386 0.67320 1.03500
W 	W 	0.30545 0.85783 0.66910 1.30000
W 	W 	0.25835 0.72545 0.72964 1.06000
W 	W 	0.39798 0.81289 0.61885 1.03100
Tm	Tm	0.32229 0.10511 0.66869 1.35900
O 	O 	0.43990 0.94500 0.67840 -0.43800
O 	O 	0.27780 0.94560 0.67180 -0.50500
O 	O 	0.37780 0.78370 0.66150 -0.36000
O 	O 	0.50800 0.90180 0.63540 -0.43500
O 	O 	0.29850 0.81900 0.70570 -0.45400
O 	O 	0.24540 0.86040 0.81190 -0.51200
O 	O 	0.49650 0.84220 0.70740 -0.45100
O 	O 	0.37460 0.08710 0.70790 -0.50400
O 	O 	0.33440 0.87880 0.63340 -0.45800
O 	O 	0.19310 0.75340 0.66510 -0.47200
O 	O 	0.22600 0.60400 0.74520 -0.43000
O 	O 	0.43670 0.72670 0.61580 -0.45700
O 	O 	0.37160 0.86980 0.82720 -0.33400
N 	N 	0.50500 0.99510 0.75730 -0.12100
C 	C 	0.37930 0.01570 0.74700 -0.27900
C 	C 	0.46420 0.02890 0.74120 0.08400
H 	H 	0.49580 0.06290 0.72580 -0.02100
C 	C 	0.37930 0.93850 0.78630 -0.22700
C 	C 	0.46660 0.95330 0.78030 0.16600
H 	H 	0.49900 0.93480 0.79210 -0.02200
C 	C 	0.33610 0.97020 0.77000 0.23900
H 	H 	0.27580 0.96060 0.77430 -0.02300
C 	C 	0.33030 0.88510 0.81010 0.42400
C 	C 	0.33290 0.05270 0.72950 0.41700
O 	O 	0.26460 0.05130 0.73720 -0.37600
W 	W 	0.18483 0.22719 0.00653 0.99700
W 	W 	0.97212 0.19116 0.00243 1.14300
W 	W 	0.92502 0.05878 0.06298 0.84700
W 	W 	0.06465 0.14622 0.95219 1.08300
Tm	Tm	0.98896 0.43844 0.00202 1.33800
O 	O 	0.10657 0.27833 0.01173 -0.41200
O 	O 	0.94447 0.27893 0.00513 -0.54400
O 	O 	0.04447 0.11703 0.99483 -0.32400
O 	O 	0.17467 0.23513 0.96873 -0.44800
O 	O 	0.96517 0.15233 0.03903 -0.46500
O 	O 	0.91207 0.19373 0.14523 -0.51100
O 	O 	0.16317 0.17553 0.04073 -0.43700
O 	O 	0.04127 0.42043 0.04123 -0.37000
O 	O 	0.00107 0.21213 0.96673 -0.39900
O 	O 	0.85977 0.08673 0.99843 -0.49700
O 	O 	0.89267 0.93733 0.07853 -0.38900
O 	O 	0.10337 0.06003 0.94913 -0.50000
O 	O 	0.03827 0.20313 0.16053 -0.24600
N 	N 	0.17167 0.32843 0.09063 -0.14200
C 	C 	0.04597 0.34903 0.08033 -0.08900
C 	C 	0.13087 0.36223 0.07453 0.08100
H 	H 	0.16247 0.39623 0.05913 0.00500
C 	C 	0.04597 0.27183 0.11963 -0.10300
C 	C 	0.13327 0.28663 0.11363 0.09300
H 	H 	0.16567 0.26813 0.12543 -0.00700
C 	C 	0.00277 0.30353 0.10333 0.17700
H 	H 	0.94247 0.29393 0.10763 -0.07800
C 	C 	0.99697 0.21843 0.14343 0.21600
C 	C 	0.99957 0.38603 0.06283 0.22000
O 	O 	0.93127 0.38463 0.07053 -0.33100
W 	W 	0.85149 0.56053 0.33987 0.98400
W 	W 	0.63878 0.52450 0.33577 1.29500
W 	W 	0.59168 0.39212 0.39631 1.04800
W 	W 	0.73131 0.47956 0.28552 1.01400
Tm	Tm	0.65562 0.77178 0.33535 1.39000
O 	O 	0.77323 0.61167 0.34507 -0.45800
O 	O 	0.61113 0.61227 0.33847 -0.53800
O 	O 	0.71113 0.45037 0.32817 -0.35200
O 	O 	0.84133 0.56847 0.30207 -0.45600
O 	O 	0.63183 0.48567 0.37237 -0.46200
O 	O 	0.57873 0.52707 0.47857 -0.52500
O 	O 	0.82983 0.50887 0.37407 -0.45800
O 	O 	0.70793 0.75377 0.37457 -0.48000
O 	O 	0.66773 0.54547 0.30007 -0.46700
O 	O 	0.52643 0.42007 0.33177 -0.47300
O 	O 	0.55933 0.27067 0.41187 -0.43200
O 	O 	0.77003 0.39337 0.28247 -0.46100
O 	O 	0.70493 0.53647 0.49387 -0.34700
N 	N 	0.83833 0.66177 0.42397 -0.16700
C 	C 	0.71263 0.68237 0.41367 -0.19000
C 	C 	0.79753 0.69557 0.40787 0.12200
H 	H 	0.82913 0.72957 0.39247 -0.02100
C 	C 	0.71263 0.60517 0.45297 -0.20100
C 	C 	0.79993 0.61997 0.44697 0.13200
H 	H 	0.83233 0.60147 0.45877 -0.02900
C 	C 	0.66943 0.63687 0.43667 0.12500
H 	H 	0.60913 0.62727 0.44097 -0.01200
C 	C 	0.66363 0.55177 0.47677 0.40800
C 	C 	0.66623 0.71937 0.39617 0.39800
O 	O 	0.59793 0.71797 0.40387 -0.34500
O 	O 	0.33333 0.66667 0.20680 -0.31200
O 	O 	-0.00000 0.00000 0.54013 -0.28400
O 	O 	0.66667 0.33333 0.87347 -0.30500
O 	O 	0.33333 0.66667 0.70680 -0.31200
O 	O 	0.00000 0.00000 0.04013 -0.28400
O 	O 	0.66667 0.33333 0.37347 -0.30500
