data_crystal

_cell_length_a 10.44400
_cell_length_b 17.26100
_cell_length_c 14.59800
_cell_angle_alpha 90.00000
_cell_angle_beta  98.46100
_cell_angle_gamma 90.00000

_symmetry_space_group_name_	'P 1'
_symmetry_space_group_name_H-M	'P 1'

loop_
_symmetry_equiv_pos_as_xyz
  x,y,z

loop_
_atom_site_label
_atom_site_type_symbol
_atom_site_fract_x
_atom_site_fract_y
_atom_site_fract_z
_atom_site_charge
Eu	Eu	0.49692 0.12736 0.15665 1.92900
Eu	Eu	0.98010 0.33497 0.09083 1.92100
O 	O 	0.61040 0.00221 0.20200 -0.35300
O 	O 	0.39000 0.05118 0.26260 -0.39400
O 	O 	0.61650 0.98815 0.92670 -0.34200
O 	O 	0.56920 0.09254 0.00800 -0.35800
O 	O 	0.73670 0.13643 0.16310 -0.36000
O 	O 	0.31850 0.18244 0.04560 -0.36500
O 	O 	0.33920 0.20760 0.22850 -0.38400
O 	O 	0.14120 0.25845 0.02340 -0.38800
O 	O 	0.15190 0.27467 0.20610 -0.35400
O 	O 	0.90140 0.20919 0.12940 -0.39700
O 	O 	0.74100 0.32879 0.09060 -0.36400
O 	O 	0.87690 0.46346 0.05740 -0.37200
O 	O 	0.92120 0.58638 0.02250 -0.38600
O 	O 	0.37330 0.93565 0.33030 -0.36100
O 	O 	0.57870 0.88296 0.25880 -0.34300
O 	O 	0.57340 0.25670 0.12360 -0.38800
C 	C 	0.42610 0.98320 0.28090 0.26200
C 	C 	0.55390 0.02310 0.98100 0.25300
C 	C 	0.23300 0.22490 0.07340 0.26700
C 	C 	0.24290 0.23670 0.17920 0.26400
C 	C 	0.78490 0.19850 0.13780 0.25900
C 	C 	0.69070 0.26780 0.11510 0.25700
C 	C 	0.54970 0.95350 0.24300 0.24500
C 	C 	0.94140 0.51430 0.02300 0.25400
Eu	Eu	0.00308 0.62736 0.34335 1.93000
Eu	Eu	0.51990 0.83497 0.40917 1.92700
O 	O 	0.88960 0.50221 0.29800 -0.35300
O 	O 	0.11000 0.55118 0.23740 -0.39800
O 	O 	0.88350 0.48815 0.57330 -0.34700
O 	O 	0.93080 0.59254 0.49200 -0.36000
O 	O 	0.76330 0.63643 0.33690 -0.36100
O 	O 	0.18150 0.68244 0.45440 -0.36800
O 	O 	0.16080 0.70760 0.27150 -0.38500
O 	O 	0.35880 0.75845 0.47660 -0.39200
O 	O 	0.34810 0.77467 0.29390 -0.35700
O 	O 	0.59860 0.70919 0.37060 -0.39600
O 	O 	0.75900 0.82879 0.40940 -0.36300
O 	O 	0.62310 0.96346 0.44260 -0.37100
O 	O 	0.57880 0.08638 0.47750 -0.38500
O 	O 	0.12670 0.43565 0.16970 -0.35900
O 	O 	0.92130 0.38296 0.24120 -0.34300
O 	O 	0.92660 0.75670 0.37640 -0.38700
C 	C 	0.07390 0.48320 0.21910 0.26800
C 	C 	0.94610 0.52310 0.51900 0.25900
C 	C 	0.26700 0.72490 0.42660 0.26700
C 	C 	0.25710 0.73670 0.32080 0.26300
C 	C 	0.71510 0.69850 0.36220 0.25900
C 	C 	0.80930 0.76780 0.38490 0.25700
C 	C 	0.95030 0.45350 0.25700 0.24300
C 	C 	0.55860 0.01430 0.47700 0.25400
Eu	Eu	0.50308 0.87265 0.84335 1.92800
Eu	Eu	0.01990 0.66503 0.90917 1.92000
O 	O 	0.38960 0.99779 0.79800 -0.35400
O 	O 	0.61000 0.94882 0.73740 -0.39500
O 	O 	0.38350 0.01185 0.07330 -0.34300
O 	O 	0.43080 0.90746 0.99200 -0.35900
O 	O 	0.26330 0.86357 0.83690 -0.36100
O 	O 	0.68150 0.81756 0.95440 -0.36600
O 	O 	0.66080 0.79240 0.77150 -0.38400
O 	O 	0.85880 0.74155 0.97660 -0.38800
O 	O 	0.84810 0.72533 0.79390 -0.35400
O 	O 	0.09860 0.79081 0.87060 -0.39700
O 	O 	0.25900 0.67121 0.90940 -0.36400
O 	O 	0.12310 0.53654 0.94260 -0.37200
O 	O 	0.07880 0.41362 0.97750 -0.38600
O 	O 	0.62670 0.06435 0.66970 -0.36100
O 	O 	0.42130 0.11704 0.74120 -0.34300
O 	O 	0.42660 0.74330 0.87640 -0.38800
C 	C 	0.57390 0.01680 0.71910 0.26200
C 	C 	0.44610 0.97690 0.01900 0.25300
C 	C 	0.76700 0.77510 0.92660 0.26700
C 	C 	0.75710 0.76330 0.82080 0.26400
C 	C 	0.21510 0.80150 0.86220 0.25900
C 	C 	0.30930 0.73220 0.88490 0.25700
C 	C 	0.45030 0.04650 0.75700 0.24500
C 	C 	0.05860 0.48570 0.97700 0.25400
Eu	Eu	0.99692 0.37264 0.65665 1.93000
Eu	Eu	0.48010 0.16503 0.59083 1.92700
O 	O 	0.11040 0.49779 0.70200 -0.35300
O 	O 	0.89000 0.44882 0.76260 -0.39800
O 	O 	0.11650 0.51185 0.42670 -0.34700
O 	O 	0.06920 0.40746 0.50800 -0.36000
O 	O 	0.23670 0.36357 0.66310 -0.36100
O 	O 	0.81850 0.31756 0.54560 -0.36800
O 	O 	0.83920 0.29240 0.72850 -0.38500
O 	O 	0.64120 0.24155 0.52340 -0.39200
O 	O 	0.65190 0.22533 0.70610 -0.35700
O 	O 	0.40140 0.29081 0.62940 -0.39600
O 	O 	0.24100 0.17121 0.59060 -0.36300
O 	O 	0.37690 0.03654 0.55740 -0.37100
O 	O 	0.42120 0.91362 0.52250 -0.38500
O 	O 	0.87330 0.56435 0.83030 -0.35900
O 	O 	0.07870 0.61704 0.75880 -0.34300
O 	O 	0.07340 0.24330 0.62360 -0.38700
C 	C 	0.92610 0.51680 0.78090 0.26800
C 	C 	0.05390 0.47690 0.48100 0.25900
C 	C 	0.73300 0.27510 0.57340 0.26700
C 	C 	0.74290 0.26330 0.67920 0.26300
C 	C 	0.28490 0.30150 0.63780 0.25900
C 	C 	0.19070 0.23220 0.61510 0.25700
C 	C 	0.04970 0.54650 0.74300 0.24300
C 	C 	0.44140 0.98570 0.52300 0.25400
