data_crystal

_cell_length_a 30.74640
_cell_length_b 15.68550
_cell_length_c 22.07140
_cell_angle_alpha 90.00000
_cell_angle_beta  133.21000
_cell_angle_gamma 90.00000

_symmetry_space_group_name_	'P 1'
_symmetry_space_group_name_H-M	'P 1'

loop_
_symmetry_equiv_pos_as_xyz
  x,y,z

loop_
_atom_site_label
_atom_site_type_symbol
_atom_site_fract_x
_atom_site_fract_y
_atom_site_fract_z
_atom_site_charge
Ce	Ce	0.33122 0.87107 0.48629 2.03700
Ce	Ce	0.61060 0.86283 0.67213 2.03500
O 	O 	0.25331 0.76580 0.37340 -0.58600
O 	O 	0.22420 0.65100 0.29440 -0.52100
O 	O 	0.44090 0.85490 0.56950 -0.57300
O 	O 	0.52017 0.78310 0.61250 -0.59800
O 	O 	0.63410 0.97400 0.61750 -0.61200
O 	O 	0.67460 0.09740 0.62710 -0.56200
O 	O 	0.62280 0.88350 0.79510 -0.57000
O 	O 	0.65760 0.95360 0.90840 -0.60400
N 	N 	0.36670 0.73260 0.46410 -0.20700
N 	N 	0.66200 0.00240 0.75760 -0.20200
C 	C 	0.32820 0.67450 0.40720 -0.10300
C 	C 	0.34610 0.59980 0.39590 0.00700
H 	H 	0.31740 0.56010 0.35420 0.00900
C 	C 	0.40650 0.58420 0.44680 -0.10800
H 	H 	0.42010 0.53270 0.44190 0.02800
C 	C 	0.44680 0.64490 0.50470 0.01800
H 	H 	0.48840 0.63640 0.53910 -0.01600
C 	C 	0.42550 0.71840 0.51200 -0.13000
C 	C 	0.26320 0.69890 0.35350 0.38500
C 	C 	0.46540 0.79020 0.57000 0.39100
C 	C 	0.68460 0.05550 0.73860 -0.11400
C 	C 	0.72550 0.11850 0.79280 0.02300
H 	H 	0.74350 0.15310 0.77960 -0.01000
C 	C 	0.73940 0.12950 0.86720 -0.11700
H 	H 	0.76670 0.17230 0.90580 0.02400
C 	C 	0.71230 0.07650 0.88330 0.03000
H 	H 	0.71960 0.08440 0.93230 -0.02000
C 	C 	0.67520 0.01290 0.82910 -0.12800
C 	C 	0.66340 0.04160 0.65470 0.39500
C 	C 	0.64950 0.94600 0.84550 0.39600
Ce	Ce	0.83122 0.37107 0.48629 2.03800
Ce	Ce	0.11060 0.36283 0.67213 2.03600
O 	O 	0.75331 0.26580 0.37340 -0.58500
O 	O 	0.72420 0.15100 0.29440 -0.52000
O 	O 	0.94090 0.35490 0.56950 -0.57300
O 	O 	0.02017 0.28310 0.61250 -0.59900
O 	O 	0.13410 0.47400 0.61750 -0.61300
O 	O 	0.17460 0.59740 0.62710 -0.56200
O 	O 	0.12280 0.38350 0.79510 -0.57000
O 	O 	0.15760 0.45360 0.90840 -0.60500
N 	N 	0.86670 0.23260 0.46410 -0.20700
N 	N 	0.16200 0.50240 0.75760 -0.20200
C 	C 	0.82820 0.17450 0.40720 -0.10300
C 	C 	0.84610 0.09980 0.39590 0.00700
H 	H 	0.81740 0.06010 0.35420 0.00900
C 	C 	0.90650 0.08420 0.44680 -0.10800
H 	H 	0.92010 0.03270 0.44190 0.02800
C 	C 	0.94680 0.14490 0.50470 0.01800
H 	H 	0.98840 0.13640 0.53910 -0.01700
C 	C 	0.92550 0.21840 0.51200 -0.13000
C 	C 	0.76320 0.19890 0.35350 0.38400
C 	C 	0.96540 0.29020 0.57000 0.39100
C 	C 	0.18460 0.55550 0.73860 -0.11400
C 	C 	0.22550 0.61850 0.79280 0.02300
H 	H 	0.24350 0.65310 0.77960 -0.01000
C 	C 	0.23940 0.62950 0.86720 -0.11600
H 	H 	0.26670 0.67230 0.90580 0.02400
C 	C 	0.21230 0.57650 0.88330 0.02900
H 	H 	0.21960 0.58440 0.93230 -0.01900
C 	C 	0.17520 0.51290 0.82910 -0.12600
C 	C 	0.16340 0.54160 0.65470 0.39600
C 	C 	0.14950 0.44600 0.84550 0.39400
Ce	Ce	0.66878 0.87107 0.01371 2.03800
Ce	Ce	0.38940 0.86283 0.82787 2.03600
O 	O 	0.74669 0.76580 0.12660 -0.58600
O 	O 	0.77580 0.65100 0.20560 -0.52100
O 	O 	0.55910 0.85490 0.93050 -0.57200
O 	O 	0.47983 0.78310 0.88750 -0.59800
O 	O 	0.36590 0.97400 0.88250 -0.61000
O 	O 	0.32540 0.09740 0.87290 -0.56200
O 	O 	0.37720 0.88350 0.70490 -0.57000
O 	O 	0.34240 0.95360 0.59160 -0.60500
N 	N 	0.63330 0.73260 0.03590 -0.20700
N 	N 	0.33800 0.00240 0.74240 -0.20200
C 	C 	0.67180 0.67450 0.09280 -0.10300
C 	C 	0.65390 0.59980 0.10410 0.00800
H 	H 	0.68260 0.56010 0.14580 0.00900
C 	C 	0.59350 0.58420 0.05320 -0.10900
H 	H 	0.57990 0.53270 0.05810 0.02900
C 	C 	0.55320 0.64490 0.99530 0.02000
H 	H 	0.51160 0.63640 0.96090 -0.01600
C 	C 	0.57450 0.71840 0.98800 -0.12900
C 	C 	0.73680 0.69890 0.14650 0.38500
C 	C 	0.53460 0.79020 0.93000 0.39100
C 	C 	0.31540 0.05550 0.76140 -0.11400
C 	C 	0.27450 0.11850 0.70720 0.02200
H 	H 	0.25650 0.15310 0.72040 -0.01000
C 	C 	0.26060 0.12950 0.63280 -0.11600
H 	H 	0.23330 0.17230 0.59420 0.02400
C 	C 	0.28770 0.07650 0.61670 0.02900
H 	H 	0.28040 0.08440 0.56770 -0.02000
C 	C 	0.32480 0.01290 0.67090 -0.12700
C 	C 	0.33660 0.04160 0.84530 0.39300
C 	C 	0.35050 0.94600 0.65450 0.39500
Ce	Ce	0.16878 0.37107 0.01371 2.03900
Ce	Ce	0.88940 0.36283 0.82787 2.03600
O 	O 	0.24669 0.26580 0.12660 -0.58500
O 	O 	0.27580 0.15100 0.20560 -0.52000
O 	O 	0.05910 0.35490 0.93050 -0.57300
O 	O 	0.97983 0.28310 0.88750 -0.59900
O 	O 	0.86590 0.47400 0.88250 -0.61200
O 	O 	0.82540 0.59740 0.87290 -0.56200
O 	O 	0.87720 0.38350 0.70490 -0.57000
O 	O 	0.84240 0.45360 0.59160 -0.60500
N 	N 	0.13330 0.23260 0.03590 -0.20600
N 	N 	0.83800 0.50240 0.74240 -0.20200
C 	C 	0.17180 0.17450 0.09280 -0.10200
C 	C 	0.15390 0.09980 0.10410 0.00600
H 	H 	0.18260 0.06010 0.14580 0.01000
C 	C 	0.09350 0.08420 0.05320 -0.10500
H 	H 	0.07990 0.03270 0.05810 0.02700
C 	C 	0.05320 0.14490 0.99530 0.01600
H 	H 	0.01160 0.13640 0.96090 -0.01600
C 	C 	0.07450 0.21840 0.98800 -0.13000
C 	C 	0.23680 0.19890 0.14650 0.38400
C 	C 	0.03460 0.29020 0.93000 0.39100
C 	C 	0.81540 0.55550 0.76140 -0.11400
C 	C 	0.77450 0.61850 0.70720 0.02200
H 	H 	0.75650 0.65310 0.72040 -0.01000
C 	C 	0.76060 0.62950 0.63280 -0.11600
H 	H 	0.73330 0.67230 0.59420 0.02400
C 	C 	0.78770 0.57650 0.61670 0.02900
H 	H 	0.78040 0.58440 0.56770 -0.01900
C 	C 	0.82480 0.51290 0.67090 -0.12600
C 	C 	0.83660 0.54160 0.84530 0.39600
C 	C 	0.85050 0.44600 0.65450 0.39400
Ce	Ce	0.66878 0.12893 0.51371 2.03800
Ce	Ce	0.38940 0.13717 0.32787 2.03600
O 	O 	0.74669 0.23420 0.62660 -0.58600
O 	O 	0.77580 0.34900 0.70560 -0.52100
O 	O 	0.55910 0.14510 0.43050 -0.57300
O 	O 	0.47983 0.21690 0.38750 -0.59800
O 	O 	0.36590 0.02600 0.38250 -0.61200
O 	O 	0.32540 0.90260 0.37290 -0.56200
O 	O 	0.37720 0.11650 0.20490 -0.57000
O 	O 	0.34240 0.04640 0.09160 -0.60400
N 	N 	0.63330 0.26740 0.53590 -0.20700
N 	N 	0.33800 0.99760 0.24240 -0.20200
C 	C 	0.67180 0.32550 0.59280 -0.10300
C 	C 	0.65390 0.40020 0.60410 0.00700
H 	H 	0.68260 0.43990 0.64580 0.00900
C 	C 	0.59350 0.41580 0.55320 -0.10800
H 	H 	0.57990 0.46730 0.55810 0.02800
C 	C 	0.55320 0.35510 0.49530 0.01800
H 	H 	0.51160 0.36360 0.46090 -0.01600
C 	C 	0.57450 0.28160 0.48800 -0.13000
C 	C 	0.73680 0.30110 0.64650 0.38500
C 	C 	0.53460 0.20980 0.43000 0.39100
C 	C 	0.31540 0.94450 0.26140 -0.11400
C 	C 	0.27450 0.88150 0.20720 0.02300
H 	H 	0.25650 0.84690 0.22040 -0.01000
C 	C 	0.26060 0.87050 0.13280 -0.11700
H 	H 	0.23330 0.82770 0.09420 0.02400
C 	C 	0.28770 0.92350 0.11670 0.03000
H 	H 	0.28040 0.91560 0.06770 -0.02000
C 	C 	0.32480 0.98710 0.17090 -0.12800
C 	C 	0.33660 0.95840 0.34530 0.39500
C 	C 	0.35050 0.05400 0.15450 0.39600
Ce	Ce	0.16878 0.62893 0.51371 2.03800
Ce	Ce	0.88940 0.63717 0.32787 2.03600
O 	O 	0.24669 0.73420 0.62660 -0.58500
O 	O 	0.27580 0.84900 0.70560 -0.52000
O 	O 	0.05910 0.64510 0.43050 -0.57300
O 	O 	0.97983 0.71690 0.38750 -0.59900
O 	O 	0.86590 0.52600 0.38250 -0.61300
O 	O 	0.82540 0.40260 0.37290 -0.56200
O 	O 	0.87720 0.61650 0.20490 -0.57000
O 	O 	0.84240 0.54640 0.09160 -0.60500
N 	N 	0.13330 0.76740 0.53590 -0.20700
N 	N 	0.83800 0.49760 0.24240 -0.20200
C 	C 	0.17180 0.82550 0.59280 -0.10300
C 	C 	0.15390 0.90020 0.60410 0.00700
H 	H 	0.18260 0.93990 0.64580 0.00900
C 	C 	0.09350 0.91580 0.55320 -0.10800
H 	H 	0.07990 0.96730 0.55810 0.02800
C 	C 	0.05320 0.85510 0.49530 0.01800
H 	H 	0.01160 0.86360 0.46090 -0.01700
C 	C 	0.07450 0.78160 0.48800 -0.13000
C 	C 	0.23680 0.80110 0.64650 0.38400
C 	C 	0.03460 0.70980 0.43000 0.39100
C 	C 	0.81540 0.44450 0.26140 -0.11400
C 	C 	0.77450 0.38150 0.20720 0.02300
H 	H 	0.75650 0.34690 0.22040 -0.01000
C 	C 	0.76060 0.37050 0.13280 -0.11600
H 	H 	0.73330 0.32770 0.09420 0.02400
C 	C 	0.78770 0.42350 0.11670 0.02900
H 	H 	0.78040 0.41560 0.06770 -0.01900
C 	C 	0.82480 0.48710 0.17090 -0.12600
C 	C 	0.83660 0.45840 0.34530 0.39600
C 	C 	0.85050 0.55400 0.15450 0.39400
Ce	Ce	0.33122 0.12893 0.98629 2.03800
Ce	Ce	0.61060 0.13717 0.17213 2.03600
O 	O 	0.25331 0.23420 0.87340 -0.58600
O 	O 	0.22420 0.34900 0.79440 -0.52100
O 	O 	0.44090 0.14510 0.06950 -0.57200
O 	O 	0.52017 0.21690 0.11250 -0.59800
O 	O 	0.63410 0.02600 0.11750 -0.61000
O 	O 	0.67460 0.90260 0.12710 -0.56200
O 	O 	0.62280 0.11650 0.29510 -0.57000
O 	O 	0.65760 0.04640 0.40840 -0.60500
N 	N 	0.36670 0.26740 0.96410 -0.20700
N 	N 	0.66200 0.99760 0.25760 -0.20200
C 	C 	0.32820 0.32550 0.90720 -0.10300
C 	C 	0.34610 0.40020 0.89590 0.00800
H 	H 	0.31740 0.43990 0.85420 0.00900
C 	C 	0.40650 0.41580 0.94680 -0.10900
H 	H 	0.42010 0.46730 0.94190 0.02900
C 	C 	0.44680 0.35510 0.00470 0.02000
H 	H 	0.48840 0.36360 0.03910 -0.01600
C 	C 	0.42550 0.28160 0.01200 -0.12900
C 	C 	0.26320 0.30110 0.85350 0.38500
C 	C 	0.46540 0.20980 0.07000 0.39100
C 	C 	0.68460 0.94450 0.23860 -0.11400
C 	C 	0.72550 0.88150 0.29280 0.02200
H 	H 	0.74350 0.84690 0.27960 -0.01000
C 	C 	0.73940 0.87050 0.36720 -0.11600
H 	H 	0.76670 0.82770 0.40580 0.02400
C 	C 	0.71230 0.92350 0.38330 0.02900
H 	H 	0.71960 0.91560 0.43230 -0.02000
C 	C 	0.67520 0.98710 0.32910 -0.12700
C 	C 	0.66340 0.95840 0.15470 0.39300
C 	C 	0.64950 0.05400 0.34550 0.39500
Ce	Ce	0.83122 0.62893 0.98629 2.03900
Ce	Ce	0.11060 0.63717 0.17213 2.03600
O 	O 	0.75331 0.73420 0.87340 -0.58500
O 	O 	0.72420 0.84900 0.79440 -0.52000
O 	O 	0.94090 0.64510 0.06950 -0.57300
O 	O 	0.02017 0.71690 0.11250 -0.59900
O 	O 	0.13410 0.52600 0.11750 -0.61200
O 	O 	0.17460 0.40260 0.12710 -0.56200
O 	O 	0.12280 0.61650 0.29510 -0.57000
O 	O 	0.15760 0.54640 0.40840 -0.60500
N 	N 	0.86670 0.76740 0.96410 -0.20600
N 	N 	0.16200 0.49760 0.25760 -0.20200
C 	C 	0.82820 0.82550 0.90720 -0.10200
C 	C 	0.84610 0.90020 0.89590 0.00600
H 	H 	0.81740 0.93990 0.85420 0.01000
C 	C 	0.90650 0.91580 0.94680 -0.10500
H 	H 	0.92010 0.96730 0.94190 0.02700
C 	C 	0.94680 0.85510 0.00470 0.01600
H 	H 	0.98840 0.86360 0.03910 -0.01600
C 	C 	0.92550 0.78160 0.01200 -0.13000
C 	C 	0.76320 0.80110 0.85350 0.38400
C 	C 	0.96540 0.70980 0.07000 0.39100
C 	C 	0.18460 0.44450 0.23860 -0.11400
C 	C 	0.22550 0.38150 0.29280 0.02200
H 	H 	0.24350 0.34690 0.27960 -0.01000
C 	C 	0.23940 0.37050 0.36720 -0.11600
H 	H 	0.26670 0.32770 0.40580 0.02400
C 	C 	0.21230 0.42350 0.38330 0.02900
H 	H 	0.21960 0.41560 0.43230 -0.01900
C 	C 	0.17520 0.48710 0.32910 -0.12600
C 	C 	0.16340 0.45840 0.15470 0.39600
C 	C 	0.14950 0.55400 0.34550 0.39400
