data_crystal

_cell_length_a 30.64400
_cell_length_b 15.66470
_cell_length_c 22.02300
_cell_angle_alpha 90.00000
_cell_angle_beta  133.13500
_cell_angle_gamma 90.00000

_symmetry_space_group_name_	'P 1'
_symmetry_space_group_name_H-M	'P 1'

loop_
_symmetry_equiv_pos_as_xyz
  x,y,z

loop_
_atom_site_label
_atom_site_type_symbol
_atom_site_fract_x
_atom_site_fract_y
_atom_site_fract_z
_atom_site_charge
Pr	Pr	0.33127 0.87141 0.48605 1.97200
Pr	Pr	0.61052 0.86318 0.67293 1.97000
O 	O 	0.25300 0.76790 0.37230 -0.56900
O 	O 	0.22360 0.65170 0.29460 -0.50900
O 	O 	0.44050 0.85640 0.56940 -0.55800
O 	O 	0.52030 0.78390 0.61360 -0.58600
O 	O 	0.63410 0.97290 0.61760 -0.59600
O 	O 	0.67410 0.09670 0.62630 -0.54900
O 	O 	0.62250 0.88350 0.79520 -0.55900
O 	O 	0.65710 0.95350 0.90860 -0.59300
N 	N 	0.36670 0.73390 0.46400 -0.20300
N 	N 	0.66180 0.00140 0.75780 -0.20000
C 	C 	0.32770 0.67600 0.40680 -0.10300
C 	C 	0.34610 0.60080 0.39590 0.00800
H 	H 	0.31750 0.56090 0.35410 0.01100
C 	C 	0.40680 0.58550 0.44690 -0.10600
H 	H 	0.42050 0.53400 0.44180 0.03000
C 	C 	0.44690 0.64550 0.50490 0.01900
H 	H 	0.48860 0.63650 0.53960 -0.01300
C 	C 	0.42580 0.71980 0.51240 -0.12700
C 	C 	0.26320 0.69940 0.35400 0.37800
C 	C 	0.46550 0.79120 0.57000 0.38700
C 	C 	0.68490 0.05490 0.73900 -0.11000
C 	C 	0.72600 0.11740 0.79320 0.02300
H 	H 	0.74460 0.15140 0.78060 -0.00700
C 	C 	0.73900 0.12880 0.86670 -0.11400
H 	H 	0.76590 0.17210 0.90500 0.02600
C 	C 	0.71240 0.07660 0.88320 0.02800
H 	H 	0.71990 0.08470 0.93250 -0.01700
C 	C 	0.67470 0.01250 0.82860 -0.12100
C 	C 	0.66270 0.04120 0.65440 0.38900
C 	C 	0.64900 0.94570 0.84560 0.39700
Pr	Pr	0.83127 0.37141 0.48605 1.97200
Pr	Pr	0.11052 0.36318 0.67293 1.97000
O 	O 	0.75300 0.26790 0.37230 -0.56900
O 	O 	0.72360 0.15170 0.29460 -0.50900
O 	O 	0.94050 0.35640 0.56940 -0.55800
O 	O 	0.02030 0.28390 0.61360 -0.58700
O 	O 	0.13410 0.47290 0.61760 -0.59600
O 	O 	0.17410 0.59670 0.62630 -0.54900
O 	O 	0.12250 0.38350 0.79520 -0.56000
O 	O 	0.15710 0.45350 0.90860 -0.59300
N 	N 	0.86670 0.23390 0.46400 -0.20300
N 	N 	0.16180 0.50140 0.75780 -0.20000
C 	C 	0.82770 0.17600 0.40680 -0.10300
C 	C 	0.84610 0.10080 0.39590 0.00800
H 	H 	0.81750 0.06090 0.35410 0.01100
C 	C 	0.90680 0.08550 0.44690 -0.10600
H 	H 	0.92050 0.03400 0.44180 0.03000
C 	C 	0.94690 0.14550 0.50490 0.01900
H 	H 	0.98860 0.13650 0.53960 -0.01400
C 	C 	0.92580 0.21980 0.51240 -0.12800
C 	C 	0.76320 0.19940 0.35400 0.37800
C 	C 	0.96550 0.29120 0.57000 0.38700
C 	C 	0.18490 0.55490 0.73900 -0.11000
C 	C 	0.22600 0.61740 0.79320 0.02300
H 	H 	0.24460 0.65140 0.78060 -0.00700
C 	C 	0.23900 0.62880 0.86670 -0.11300
H 	H 	0.26590 0.67210 0.90500 0.02700
C 	C 	0.21240 0.57660 0.88320 0.02700
H 	H 	0.21990 0.58470 0.93250 -0.01500
C 	C 	0.17470 0.51250 0.82860 -0.11800
C 	C 	0.16270 0.54120 0.65440 0.39000
C 	C 	0.14900 0.44570 0.84560 0.39500
Pr	Pr	0.66873 0.87141 0.01395 1.97200
Pr	Pr	0.38948 0.86318 0.82707 1.97100
O 	O 	0.74700 0.76790 0.12770 -0.56900
O 	O 	0.77640 0.65170 0.20540 -0.50900
O 	O 	0.55950 0.85640 0.93060 -0.55600
O 	O 	0.47970 0.78390 0.88640 -0.58600
O 	O 	0.36590 0.97290 0.88240 -0.59400
O 	O 	0.32590 0.09670 0.87370 -0.54900
O 	O 	0.37750 0.88350 0.70480 -0.55900
O 	O 	0.34290 0.95350 0.59140 -0.59400
N 	N 	0.63330 0.73390 0.03600 -0.20300
N 	N 	0.33820 0.00140 0.74220 -0.20100
C 	C 	0.67230 0.67600 0.09320 -0.10300
C 	C 	0.65390 0.60080 0.10410 0.00900
H 	H 	0.68250 0.56090 0.14590 0.01100
C 	C 	0.59320 0.58550 0.05310 -0.10800
H 	H 	0.57950 0.53400 0.05820 0.03100
C 	C 	0.55310 0.64550 0.99510 0.02100
H 	H 	0.51140 0.63650 0.96040 -0.01400
C 	C 	0.57420 0.71980 0.98760 -0.12600
C 	C 	0.73680 0.69940 0.14600 0.37900
C 	C 	0.53450 0.79120 0.93000 0.38700
C 	C 	0.31510 0.05490 0.76100 -0.11000
C 	C 	0.27400 0.11740 0.70680 0.02200
H 	H 	0.25540 0.15140 0.71940 -0.00700
C 	C 	0.26100 0.12880 0.63330 -0.11300
H 	H 	0.23410 0.17210 0.59500 0.02600
C 	C 	0.28760 0.07660 0.61680 0.02700
H 	H 	0.28010 0.08470 0.56750 -0.01600
C 	C 	0.32530 0.01250 0.67140 -0.12000
C 	C 	0.33730 0.04120 0.84560 0.38700
C 	C 	0.35100 0.94570 0.65440 0.39600
Pr	Pr	0.16873 0.37141 0.01395 1.97300
Pr	Pr	0.88948 0.36318 0.82707 1.97000
O 	O 	0.24700 0.26790 0.12770 -0.56800
O 	O 	0.27640 0.15170 0.20540 -0.50900
O 	O 	0.05950 0.35640 0.93060 -0.55800
O 	O 	0.97970 0.28390 0.88640 -0.58700
O 	O 	0.86590 0.47290 0.88240 -0.59600
O 	O 	0.82590 0.59670 0.87370 -0.54900
O 	O 	0.87750 0.38350 0.70480 -0.56000
O 	O 	0.84290 0.45350 0.59140 -0.59400
N 	N 	0.13330 0.23390 0.03600 -0.20200
N 	N 	0.83820 0.50140 0.74220 -0.20000
C 	C 	0.17230 0.17600 0.09320 -0.10200
C 	C 	0.15390 0.10080 0.10410 0.00700
H 	H 	0.18250 0.06090 0.14590 0.01200
C 	C 	0.09320 0.08550 0.05310 -0.10300
H 	H 	0.07950 0.03400 0.05820 0.02900
C 	C 	0.05310 0.14550 0.99510 0.01700
H 	H 	0.01140 0.13650 0.96040 -0.01300
C 	C 	0.07420 0.21980 0.98760 -0.12700
C 	C 	0.23680 0.19940 0.14600 0.37800
C 	C 	0.03450 0.29120 0.93000 0.38700
C 	C 	0.81510 0.55490 0.76100 -0.11000
C 	C 	0.77400 0.61740 0.70680 0.02300
H 	H 	0.75540 0.65140 0.71940 -0.00700
C 	C 	0.76100 0.62880 0.63330 -0.11300
H 	H 	0.73410 0.67210 0.59500 0.02600
C 	C 	0.78760 0.57660 0.61680 0.02700
H 	H 	0.78010 0.58470 0.56750 -0.01600
C 	C 	0.82530 0.51250 0.67140 -0.11900
C 	C 	0.83730 0.54120 0.84560 0.39000
C 	C 	0.85100 0.44570 0.65440 0.39500
Pr	Pr	0.66873 0.12859 0.51395 1.97200
Pr	Pr	0.38948 0.13682 0.32707 1.97000
O 	O 	0.74700 0.23210 0.62770 -0.56900
O 	O 	0.77640 0.34830 0.70540 -0.50900
O 	O 	0.55950 0.14360 0.43060 -0.55800
O 	O 	0.47970 0.21610 0.38640 -0.58600
O 	O 	0.36590 0.02710 0.38240 -0.59600
O 	O 	0.32590 0.90330 0.37370 -0.54900
O 	O 	0.37750 0.11650 0.20480 -0.55900
O 	O 	0.34290 0.04650 0.09140 -0.59300
N 	N 	0.63330 0.26610 0.53600 -0.20300
N 	N 	0.33820 0.99860 0.24220 -0.20000
C 	C 	0.67230 0.32400 0.59320 -0.10300
C 	C 	0.65390 0.39920 0.60410 0.00800
H 	H 	0.68250 0.43910 0.64590 0.01100
C 	C 	0.59320 0.41450 0.55310 -0.10600
H 	H 	0.57950 0.46600 0.55820 0.03000
C 	C 	0.55310 0.35450 0.49510 0.01900
H 	H 	0.51140 0.36350 0.46040 -0.01300
C 	C 	0.57420 0.28020 0.48760 -0.12700
C 	C 	0.73680 0.30060 0.64600 0.37800
C 	C 	0.53450 0.20880 0.43000 0.38700
C 	C 	0.31510 0.94510 0.26100 -0.11000
C 	C 	0.27400 0.88260 0.20680 0.02300
H 	H 	0.25540 0.84860 0.21940 -0.00700
C 	C 	0.26100 0.87120 0.13330 -0.11400
H 	H 	0.23410 0.82790 0.09500 0.02600
C 	C 	0.28760 0.92340 0.11680 0.02800
H 	H 	0.28010 0.91530 0.06750 -0.01700
C 	C 	0.32530 0.98750 0.17140 -0.12100
C 	C 	0.33730 0.95880 0.34560 0.38900
C 	C 	0.35100 0.05430 0.15440 0.39700
Pr	Pr	0.16873 0.62859 0.51395 1.97200
Pr	Pr	0.88948 0.63682 0.32707 1.97000
O 	O 	0.24700 0.73210 0.62770 -0.56900
O 	O 	0.27640 0.84830 0.70540 -0.50900
O 	O 	0.05950 0.64360 0.43060 -0.55800
O 	O 	0.97970 0.71610 0.38640 -0.58700
O 	O 	0.86590 0.52710 0.38240 -0.59600
O 	O 	0.82590 0.40330 0.37370 -0.54900
O 	O 	0.87750 0.61650 0.20480 -0.56000
O 	O 	0.84290 0.54650 0.09140 -0.59300
N 	N 	0.13330 0.76610 0.53600 -0.20300
N 	N 	0.83820 0.49860 0.24220 -0.20000
C 	C 	0.17230 0.82400 0.59320 -0.10300
C 	C 	0.15390 0.89920 0.60410 0.00800
H 	H 	0.18250 0.93910 0.64590 0.01100
C 	C 	0.09320 0.91450 0.55310 -0.10600
H 	H 	0.07950 0.96600 0.55820 0.03000
C 	C 	0.05310 0.85450 0.49510 0.01900
H 	H 	0.01140 0.86350 0.46040 -0.01400
C 	C 	0.07420 0.78020 0.48760 -0.12800
C 	C 	0.23680 0.80060 0.64600 0.37800
C 	C 	0.03450 0.70880 0.43000 0.38700
C 	C 	0.81510 0.44510 0.26100 -0.11000
C 	C 	0.77400 0.38260 0.20680 0.02300
H 	H 	0.75540 0.34860 0.21940 -0.00700
C 	C 	0.76100 0.37120 0.13330 -0.11300
H 	H 	0.73410 0.32790 0.09500 0.02700
C 	C 	0.78760 0.42340 0.11680 0.02700
H 	H 	0.78010 0.41530 0.06750 -0.01500
C 	C 	0.82530 0.48750 0.17140 -0.11800
C 	C 	0.83730 0.45880 0.34560 0.39000
C 	C 	0.85100 0.55430 0.15440 0.39500
Pr	Pr	0.33127 0.12859 0.98605 1.97200
Pr	Pr	0.61052 0.13682 0.17293 1.97100
O 	O 	0.25300 0.23210 0.87230 -0.56900
O 	O 	0.22360 0.34830 0.79460 -0.50900
O 	O 	0.44050 0.14360 0.06940 -0.55600
O 	O 	0.52030 0.21610 0.11360 -0.58600
O 	O 	0.63410 0.02710 0.11760 -0.59400
O 	O 	0.67410 0.90330 0.12630 -0.54900
O 	O 	0.62250 0.11650 0.29520 -0.55900
O 	O 	0.65710 0.04650 0.40860 -0.59400
N 	N 	0.36670 0.26610 0.96400 -0.20300
N 	N 	0.66180 0.99860 0.25780 -0.20100
C 	C 	0.32770 0.32400 0.90680 -0.10300
C 	C 	0.34610 0.39920 0.89590 0.00900
H 	H 	0.31750 0.43910 0.85410 0.01100
C 	C 	0.40680 0.41450 0.94690 -0.10800
H 	H 	0.42050 0.46600 0.94180 0.03100
C 	C 	0.44690 0.35450 0.00490 0.02100
H 	H 	0.48860 0.36350 0.03960 -0.01400
C 	C 	0.42580 0.28020 0.01240 -0.12600
C 	C 	0.26320 0.30060 0.85400 0.37900
C 	C 	0.46550 0.20880 0.07000 0.38700
C 	C 	0.68490 0.94510 0.23900 -0.11000
C 	C 	0.72600 0.88260 0.29320 0.02200
H 	H 	0.74460 0.84860 0.28060 -0.00700
C 	C 	0.73900 0.87120 0.36670 -0.11300
H 	H 	0.76590 0.82790 0.40500 0.02600
C 	C 	0.71240 0.92340 0.38320 0.02700
H 	H 	0.71990 0.91530 0.43250 -0.01600
C 	C 	0.67470 0.98750 0.32860 -0.12000
C 	C 	0.66270 0.95880 0.15440 0.38700
C 	C 	0.64900 0.05430 0.34560 0.39600
Pr	Pr	0.83127 0.62859 0.98605 1.97300
Pr	Pr	0.11052 0.63682 0.17293 1.97000
O 	O 	0.75300 0.73210 0.87230 -0.56800
O 	O 	0.72360 0.84830 0.79460 -0.50900
O 	O 	0.94050 0.64360 0.06940 -0.55800
O 	O 	0.02030 0.71610 0.11360 -0.58700
O 	O 	0.13410 0.52710 0.11760 -0.59600
O 	O 	0.17410 0.40330 0.12630 -0.54900
O 	O 	0.12250 0.61650 0.29520 -0.56000
O 	O 	0.15710 0.54650 0.40860 -0.59400
N 	N 	0.86670 0.76610 0.96400 -0.20200
N 	N 	0.16180 0.49860 0.25780 -0.20000
C 	C 	0.82770 0.82400 0.90680 -0.10200
C 	C 	0.84610 0.89920 0.89590 0.00700
H 	H 	0.81750 0.93910 0.85410 0.01200
C 	C 	0.90680 0.91450 0.94690 -0.10300
H 	H 	0.92050 0.96600 0.94180 0.02900
C 	C 	0.94690 0.85450 0.00490 0.01700
H 	H 	0.98860 0.86350 0.03960 -0.01300
C 	C 	0.92580 0.78020 0.01240 -0.12700
C 	C 	0.76320 0.80060 0.85400 0.37800
C 	C 	0.96550 0.70880 0.07000 0.38700
C 	C 	0.18490 0.44510 0.23900 -0.11000
C 	C 	0.22600 0.38260 0.29320 0.02300
H 	H 	0.24460 0.34860 0.28060 -0.00700
C 	C 	0.23900 0.37120 0.36670 -0.11300
H 	H 	0.26590 0.32790 0.40500 0.02600
C 	C 	0.21240 0.42340 0.38320 0.02700
H 	H 	0.21990 0.41530 0.43250 -0.01600
C 	C 	0.17470 0.48750 0.32860 -0.11900
C 	C 	0.16270 0.45880 0.15440 0.39000
C 	C 	0.14900 0.55430 0.34560 0.39500
