data_crystal

_cell_length_a 10.28100
_cell_length_b 13.84400
_cell_length_c 17.06400
_cell_angle_alpha 90.00000
_cell_angle_beta  90.00000
_cell_angle_gamma 90.00000

_symmetry_space_group_name_	'P 1'
_symmetry_space_group_name_H-M	'P 1'

loop_
_symmetry_equiv_pos_as_xyz
  x,y,z

loop_
_atom_site_label
_atom_site_type_symbol
_atom_site_fract_x
_atom_site_fract_y
_atom_site_fract_z
_atom_site_charge
P 	P 	0.36760 0.25328 0.20387 0.82500
P 	P 	0.12630 0.46013 0.33711 0.74600
P 	P 	0.37070 0.56668 0.58027 0.79900
Al	Al	0.32980 0.47890 0.19812 2.39600
Al	Al	0.37490 0.56170 0.39344 2.39800
Al	Al	0.12190 0.24140 0.30632 2.39700
O 	O 	0.32700 0.35310 0.17740 -0.73900
O 	O 	0.11820 0.35120 0.35550 -0.75100
O 	O 	0.40360 0.51820 0.28920 -1.05700
O 	O 	0.35870 0.18570 0.13500 -0.69800
O 	O 	0.22040 0.50240 0.39590 -0.68500
O 	O 	0.16850 0.47630 0.25300 -0.74100
O 	O 	0.46670 0.48330 0.58450 -0.74100
O 	O 	0.42290 0.65290 0.62740 -0.79000
O 	O 	0.35020 0.59910 0.49670 -0.62400
O 	O 	0.23940 0.53750 0.61490 -0.71000
O 	O 	0.27790 0.21930 0.27030 -0.84000
O 	O 	0.99460 0.50470 0.35130 -0.59800
O 	O 	0.50760 0.25500 0.23250 -0.81400
H 	H 	0.50190 0.52960 0.28620 0.22300
P 	P 	0.63240 0.24672 0.70387 0.82600
P 	P 	0.87370 0.03987 0.83711 0.74200
P 	P 	0.62930 0.93332 0.08027 0.79600
Al	Al	0.67020 0.02110 0.69812 2.39700
Al	Al	0.62510 0.93830 0.89344 2.39900
Al	Al	0.87810 0.25860 0.80632 2.39800
O 	O 	0.67300 0.14690 0.67740 -0.74000
O 	O 	0.88180 0.14880 0.85550 -0.75200
O 	O 	0.59640 0.98180 0.78920 -1.05500
O 	O 	0.64130 0.31430 0.63500 -0.69900
O 	O 	0.77960 0.99760 0.89590 -0.67900
O 	O 	0.83150 0.02370 0.75300 -0.74200
O 	O 	0.53330 0.01670 0.08450 -0.73900
O 	O 	0.57710 0.84710 0.12740 -0.79000
O 	O 	0.64980 0.90090 0.99670 -0.62100
O 	O 	0.76060 0.96250 0.11490 -0.70900
O 	O 	0.72210 0.28070 0.77030 -0.84100
O 	O 	0.00540 0.99530 0.85130 -0.60000
O 	O 	0.49240 0.24500 0.73250 -0.81500
H 	H 	0.49810 0.97040 0.78620 0.22300
P 	P 	0.86760 0.74672 0.29613 0.82700
P 	P 	0.62630 0.53987 0.16289 0.74600
P 	P 	0.87070 0.43332 0.91973 0.80100
Al	Al	0.82980 0.52110 0.30188 2.39700
Al	Al	0.87490 0.43830 0.10656 2.39900
Al	Al	0.62190 0.75860 0.19368 2.39800
O 	O 	0.82700 0.64690 0.32260 -0.73900
O 	O 	0.61820 0.64880 0.14450 -0.75200
O 	O 	0.90360 0.48180 0.21080 -1.05900
O 	O 	0.85870 0.81430 0.36500 -0.69800
O 	O 	0.72040 0.49760 0.10410 -0.68500
O 	O 	0.66850 0.52370 0.24700 -0.74100
O 	O 	0.96670 0.51670 0.91550 -0.74000
O 	O 	0.92290 0.34710 0.87260 -0.79000
O 	O 	0.85020 0.40090 0.00330 -0.62600
O 	O 	0.73940 0.46250 0.88510 -0.71000
O 	O 	0.77790 0.78070 0.22970 -0.84100
O 	O 	0.49460 0.49530 0.14870 -0.59700
O 	O 	0.00760 0.74500 0.26750 -0.81600
H 	H 	0.00190 0.47040 0.21380 0.22400
P 	P 	0.13240 0.75328 0.79613 0.82300
P 	P 	0.37370 0.96013 0.66289 0.74500
P 	P 	0.12930 0.06668 0.41973 0.80500
Al	Al	0.17020 0.97890 0.80188 2.39700
Al	Al	0.12510 0.06170 0.60656 2.39900
Al	Al	0.37810 0.74140 0.69368 2.39800
O 	O 	0.17300 0.85310 0.82260 -0.74000
O 	O 	0.38180 0.85120 0.64450 -0.75200
O 	O 	0.09640 0.01820 0.71080 -1.05200
O 	O 	0.14130 0.68570 0.86500 -0.69900
O 	O 	0.27960 0.00240 0.60410 -0.68300
O 	O 	0.33150 0.97630 0.74700 -0.74100
O 	O 	0.03330 0.98330 0.41550 -0.74600
O 	O 	0.07710 0.15290 0.37260 -0.78800
O 	O 	0.14980 0.09910 0.50330 -0.62300
O 	O 	0.26060 0.03750 0.38510 -0.70900
O 	O 	0.22210 0.71930 0.72970 -0.84100
O 	O 	0.50540 0.00470 0.64870 -0.59700
O 	O 	0.99240 0.75500 0.76750 -0.81100
H 	H 	0.99810 0.02960 0.71380 0.21900
P 	P 	0.63240 0.74672 0.79613 0.82600
P 	P 	0.87370 0.53987 0.66289 0.74700
P 	P 	0.62930 0.43332 0.41973 0.80000
Al	Al	0.67020 0.52110 0.80188 2.39700
Al	Al	0.62510 0.43830 0.60656 2.39900
Al	Al	0.87810 0.75860 0.69368 2.39800
O 	O 	0.67300 0.64690 0.82260 -0.73900
O 	O 	0.88180 0.64880 0.64450 -0.75100
O 	O 	0.59640 0.48180 0.71080 -1.05700
O 	O 	0.64130 0.81430 0.86500 -0.69800
O 	O 	0.77960 0.49760 0.60410 -0.68500
O 	O 	0.83150 0.52370 0.74700 -0.74100
O 	O 	0.53330 0.51670 0.41550 -0.74100
O 	O 	0.57710 0.34710 0.37260 -0.79000
O 	O 	0.64980 0.40090 0.50330 -0.62400
O 	O 	0.76060 0.46250 0.38510 -0.71000
O 	O 	0.72210 0.78070 0.72970 -0.84000
O 	O 	0.00540 0.49530 0.64870 -0.59800
O 	O 	0.49240 0.74500 0.76750 -0.81400
H 	H 	0.49810 0.47040 0.71380 0.22300
P 	P 	0.36760 0.75328 0.29613 0.82600
P 	P 	0.12630 0.96013 0.16289 0.74200
P 	P 	0.37070 0.06668 0.91973 0.79600
Al	Al	0.32980 0.97890 0.30188 2.39700
Al	Al	0.37490 0.06170 0.10656 2.39900
Al	Al	0.12190 0.74140 0.19368 2.39800
O 	O 	0.32700 0.85310 0.32260 -0.74000
O 	O 	0.11820 0.85120 0.14450 -0.75200
O 	O 	0.40360 0.01820 0.21080 -1.05500
O 	O 	0.35870 0.68570 0.36500 -0.69900
O 	O 	0.22040 0.00240 0.10410 -0.67900
O 	O 	0.16850 0.97630 0.24700 -0.74200
O 	O 	0.46670 0.98330 0.91550 -0.73900
O 	O 	0.42290 0.15290 0.87260 -0.79000
O 	O 	0.35020 0.09910 0.00330 -0.62100
O 	O 	0.23940 0.03750 0.88510 -0.70900
O 	O 	0.27790 0.71930 0.22970 -0.84100
O 	O 	0.99460 0.00470 0.14870 -0.60000
O 	O 	0.50760 0.75500 0.26750 -0.81500
H 	H 	0.50190 0.02960 0.21380 0.22300
P 	P 	0.13240 0.25328 0.70387 0.82700
P 	P 	0.37370 0.46013 0.83711 0.74600
P 	P 	0.12930 0.56668 0.08027 0.80100
Al	Al	0.17020 0.47890 0.69812 2.39700
Al	Al	0.12510 0.56170 0.89344 2.39900
Al	Al	0.37810 0.24140 0.80632 2.39800
O 	O 	0.17300 0.35310 0.67740 -0.73900
O 	O 	0.38180 0.35120 0.85550 -0.75200
O 	O 	0.09640 0.51820 0.78920 -1.05900
O 	O 	0.14130 0.18570 0.63500 -0.69800
O 	O 	0.27960 0.50240 0.89590 -0.68500
O 	O 	0.33150 0.47630 0.75300 -0.74100
O 	O 	0.03330 0.48330 0.08450 -0.74000
O 	O 	0.07710 0.65290 0.12740 -0.79000
O 	O 	0.14980 0.59910 0.99670 -0.62600
O 	O 	0.26060 0.53750 0.11490 -0.71000
O 	O 	0.22210 0.21930 0.77030 -0.84100
O 	O 	0.50540 0.50470 0.85130 -0.59700
O 	O 	0.99240 0.25500 0.73250 -0.81600
H 	H 	0.99810 0.52960 0.78620 0.22400
P 	P 	0.86760 0.24672 0.20387 0.82300
P 	P 	0.62630 0.03987 0.33711 0.74500
P 	P 	0.87070 0.93332 0.58027 0.80500
Al	Al	0.82980 0.02110 0.19812 2.39700
Al	Al	0.87490 0.93830 0.39344 2.39900
Al	Al	0.62190 0.25860 0.30632 2.39800
O 	O 	0.82700 0.14690 0.17740 -0.74000
O 	O 	0.61820 0.14880 0.35550 -0.75200
O 	O 	0.90360 0.98180 0.28920 -1.05200
O 	O 	0.85870 0.31430 0.13500 -0.69900
O 	O 	0.72040 0.99760 0.39590 -0.68300
O 	O 	0.66850 0.02370 0.25300 -0.74100
O 	O 	0.96670 0.01670 0.58450 -0.74600
O 	O 	0.92290 0.84710 0.62740 -0.78800
O 	O 	0.85020 0.90090 0.49670 -0.62300
O 	O 	0.73940 0.96250 0.61490 -0.70900
O 	O 	0.77790 0.28070 0.27030 -0.84100
O 	O 	0.49460 0.99530 0.35130 -0.59700
O 	O 	0.00760 0.24500 0.23250 -0.81100
H 	H 	0.00190 0.97040 0.28620 0.21900
