data_crystal

_cell_length_a 16.75310
_cell_length_b 16.75310
_cell_length_c 10.81110
_cell_angle_alpha 90.00000
_cell_angle_beta  90.00000
_cell_angle_gamma 120.00000

_symmetry_space_group_name_	'P 1'
_symmetry_space_group_name_H-M	'P 1'

loop_
_symmetry_equiv_pos_as_xyz
  x,y,z

loop_
_atom_site_label
_atom_site_type_symbol
_atom_site_fract_x
_atom_site_fract_y
_atom_site_fract_z
_atom_site_charge
C 	C 	0.03490 0.36570 0.34060 0.40100
C 	C 	0.10220 0.46870 0.32150 -0.13500
H 	H 	0.09140 0.48690 0.24090 0.07400
H 	H 	0.09050 0.50340 0.38350 0.08400
C 	C 	0.25770 0.57800 0.32630 0.45300
C 	C 	0.24450 0.65190 0.32590 -0.49700
H 	H 	0.18490 0.64250 0.32540 0.21000
C 	C 	0.84310 0.11560 0.06800 -0.20100
H 	H 	0.83410 0.06410 0.11200 0.09100
C 	C 	0.86860 0.26410 0.06450 -0.18600
H 	H 	0.87750 0.31720 0.10400 0.08500
C 	C 	0.85790 0.18860 0.13120 0.35200
O 	O 	0.94994 0.34219 0.34250 -0.39600
O 	O 	0.06509 0.31579 0.35080 -0.46700
O 	O 	0.19030 0.48978 0.32910 -0.32900
Cu	Cu	0.85044 0.20332 0.31982 0.95900
H 	H 	0.86080 0.18960 0.21070 -0.39500
H 	H 	0.82780 0.16160 0.45300 0.25800
H 	H 	0.91920 0.22410 0.48040 0.18700
N 	N 	0.81140 0.66930 0.13120 -0.07700
C 	C 	0.63430 0.66920 0.34060 0.40000
C 	C 	0.53130 0.63350 0.32150 -0.13700
H 	H 	0.51310 0.60450 0.24090 0.07500
H 	H 	0.49660 0.58710 0.38350 0.08500
C 	C 	0.42200 0.67970 0.32630 0.45300
C 	C 	0.34810 0.59260 0.32590 -0.49600
H 	H 	0.35750 0.54240 0.32540 0.21100
C 	C 	0.88440 0.72750 0.06800 -0.01800
H 	H 	0.93590 0.77000 0.11200 0.02500
C 	C 	0.73590 0.60450 0.06450 -0.02800
H 	H 	0.68280 0.56030 0.10400 0.03100
O 	O 	0.65781 0.60775 0.34250 -0.39400
O 	O 	0.68421 0.74930 0.35080 -0.46700
O 	O 	0.51022 0.70052 0.32910 -0.32900
Cu	Cu	0.79668 0.64712 0.31982 0.93500
H 	H 	0.81040 0.67120 0.21070 -0.19000
H 	H 	0.83840 0.66620 0.45300 0.25900
H 	H 	0.77590 0.69510 0.48040 0.18700
N 	N 	0.33070 0.14210 0.13120 -0.07700
C 	C 	0.33080 0.96510 0.34060 0.39800
C 	C 	0.36650 0.89780 0.32150 -0.13600
H 	H 	0.39550 0.90860 0.24090 0.07400
H 	H 	0.41290 0.90950 0.38350 0.08400
C 	C 	0.32030 0.74230 0.32630 0.45200
C 	C 	0.40740 0.75550 0.32590 -0.49600
H 	H 	0.45760 0.81510 0.32540 0.21100
C 	C 	0.27250 0.15690 0.06800 -0.01800
H 	H 	0.23000 0.16590 0.11200 0.02800
C 	C 	0.39550 0.13140 0.06450 -0.02800
H 	H 	0.43970 0.12250 0.10400 0.03100
O 	O 	0.39225 0.05006 0.34250 -0.39400
O 	O 	0.25070 0.93491 0.35080 -0.46700
O 	O 	0.29948 0.80970 0.32910 -0.33200
Cu	Cu	0.35288 0.14956 0.31982 0.93500
H 	H 	0.32880 0.13920 0.21070 -0.19000
H 	H 	0.33380 0.17220 0.45300 0.25900
H 	H 	0.30490 0.08080 0.48040 0.18700
C 	C 	0.96510 0.63430 0.34060 0.40000
C 	C 	0.89780 0.53130 0.32150 -0.13600
H 	H 	0.90860 0.51310 0.24090 0.07400
H 	H 	0.90950 0.49660 0.38350 0.08400
C 	C 	0.74230 0.42200 0.32630 0.45300
C 	C 	0.75550 0.34810 0.32590 -0.49700
H 	H 	0.81510 0.35750 0.32540 0.21000
C 	C 	0.15690 0.88440 0.06800 -0.20100
H 	H 	0.16590 0.93590 0.11200 0.09100
C 	C 	0.13140 0.73590 0.06450 -0.18600
H 	H 	0.12250 0.68280 0.10400 0.08500
C 	C 	0.14210 0.81140 0.13120 0.35200
O 	O 	0.05006 0.65781 0.34250 -0.39600
O 	O 	0.93491 0.68421 0.35080 -0.46700
O 	O 	0.80970 0.51022 0.32910 -0.32900
Cu	Cu	0.14956 0.79668 0.31982 0.95900
H 	H 	0.13920 0.81040 0.21070 -0.39500
H 	H 	0.17220 0.83840 0.45300 0.25800
H 	H 	0.08080 0.77590 0.48040 0.18700
N 	N 	0.18860 0.33070 0.13120 -0.07700
C 	C 	0.36570 0.33080 0.34060 0.40000
C 	C 	0.46870 0.36650 0.32150 -0.13700
H 	H 	0.48690 0.39550 0.24090 0.07500
H 	H 	0.50340 0.41290 0.38350 0.08500
C 	C 	0.57800 0.32030 0.32630 0.45300
C 	C 	0.65190 0.40740 0.32590 -0.49600
H 	H 	0.64250 0.45760 0.32540 0.21100
C 	C 	0.11560 0.27250 0.06800 -0.01800
H 	H 	0.06410 0.23000 0.11200 0.02500
C 	C 	0.26410 0.39550 0.06450 -0.02800
H 	H 	0.31720 0.43970 0.10400 0.03100
O 	O 	0.34219 0.39225 0.34250 -0.39400
O 	O 	0.31579 0.25070 0.35080 -0.46700
O 	O 	0.48978 0.29948 0.32910 -0.32900
Cu	Cu	0.20332 0.35288 0.31982 0.93500
H 	H 	0.18960 0.32880 0.21070 -0.19000
H 	H 	0.16160 0.33380 0.45300 0.25900
H 	H 	0.22410 0.30490 0.48040 0.18700
N 	N 	0.66930 0.85790 0.13120 -0.07700
C 	C 	0.66920 0.03490 0.34060 0.39800
C 	C 	0.63350 0.10220 0.32150 -0.13600
H 	H 	0.60450 0.09140 0.24090 0.07400
H 	H 	0.58710 0.09050 0.38350 0.08400
C 	C 	0.67970 0.25770 0.32630 0.45200
C 	C 	0.59260 0.24450 0.32590 -0.49600
H 	H 	0.54240 0.18490 0.32540 0.21100
C 	C 	0.72750 0.84310 0.06800 -0.01800
H 	H 	0.77000 0.83410 0.11200 0.02800
C 	C 	0.60450 0.86860 0.06450 -0.02800
H 	H 	0.56030 0.87750 0.10400 0.03100
O 	O 	0.60775 0.94994 0.34250 -0.39400
O 	O 	0.74930 0.06509 0.35080 -0.46700
O 	O 	0.70052 0.19030 0.32910 -0.33200
Cu	Cu	0.64712 0.85044 0.31982 0.93500
H 	H 	0.67120 0.86080 0.21070 -0.19000
H 	H 	0.66620 0.82780 0.45300 0.25900
H 	H 	0.69510 0.91920 0.48040 0.18700
C 	C 	0.96510 0.63430 0.65940 0.40000
C 	C 	0.89780 0.53130 0.67850 -0.13600
H 	H 	0.90860 0.51310 0.75910 0.07400
H 	H 	0.90950 0.49660 0.61650 0.08400
C 	C 	0.74230 0.42200 0.67370 0.45300
C 	C 	0.75550 0.34810 0.67410 -0.49700
H 	H 	0.81510 0.35750 0.67460 0.21000
C 	C 	0.15690 0.88440 0.93200 -0.20100
H 	H 	0.16590 0.93590 0.88800 0.09100
C 	C 	0.13140 0.73590 0.93550 -0.18600
H 	H 	0.12250 0.68280 0.89600 0.08500
C 	C 	0.14210 0.81140 0.86880 0.35200
O 	O 	0.05006 0.65781 0.65750 -0.39600
O 	O 	0.93491 0.68421 0.64920 -0.46700
O 	O 	0.80970 0.51022 0.67090 -0.32900
Cu	Cu	0.14956 0.79668 0.68018 0.95900
H 	H 	0.13920 0.81040 0.78930 -0.39500
H 	H 	0.17220 0.83840 0.54700 0.25800
H 	H 	0.08080 0.77590 0.51960 0.18700
N 	N 	0.18860 0.33070 0.86880 -0.07700
C 	C 	0.36570 0.33080 0.65940 0.40000
C 	C 	0.46870 0.36650 0.67850 -0.13700
H 	H 	0.48690 0.39550 0.75910 0.07500
H 	H 	0.50340 0.41290 0.61650 0.08500
C 	C 	0.57800 0.32030 0.67370 0.45300
C 	C 	0.65190 0.40740 0.67410 -0.49600
H 	H 	0.64250 0.45760 0.67460 0.21100
C 	C 	0.11560 0.27250 0.93200 -0.01800
H 	H 	0.06410 0.23000 0.88800 0.02500
C 	C 	0.26410 0.39550 0.93550 -0.02800
H 	H 	0.31720 0.43970 0.89600 0.03100
O 	O 	0.34219 0.39225 0.65750 -0.39400
O 	O 	0.31579 0.25070 0.64920 -0.46700
O 	O 	0.48978 0.29948 0.67090 -0.32900
Cu	Cu	0.20332 0.35288 0.68018 0.93500
H 	H 	0.18960 0.32880 0.78930 -0.19000
H 	H 	0.16160 0.33380 0.54700 0.25900
H 	H 	0.22410 0.30490 0.51960 0.18700
N 	N 	0.66930 0.85790 0.86880 -0.07700
C 	C 	0.66920 0.03490 0.65940 0.39800
C 	C 	0.63350 0.10220 0.67850 -0.13600
H 	H 	0.60450 0.09140 0.75910 0.07400
H 	H 	0.58710 0.09050 0.61650 0.08400
C 	C 	0.67970 0.25770 0.67370 0.45200
C 	C 	0.59260 0.24450 0.67410 -0.49600
H 	H 	0.54240 0.18490 0.67460 0.21100
C 	C 	0.72750 0.84310 0.93200 -0.01800
H 	H 	0.77000 0.83410 0.88800 0.02800
C 	C 	0.60450 0.86860 0.93550 -0.02800
H 	H 	0.56030 0.87750 0.89600 0.03100
O 	O 	0.60775 0.94994 0.65750 -0.39400
O 	O 	0.74930 0.06509 0.64920 -0.46700
O 	O 	0.70052 0.19030 0.67090 -0.33200
Cu	Cu	0.64712 0.85044 0.68018 0.93500
H 	H 	0.67120 0.86080 0.78930 -0.19000
H 	H 	0.66620 0.82780 0.54700 0.25900
H 	H 	0.69510 0.91920 0.51960 0.18700
C 	C 	0.03490 0.36570 0.65940 0.40000
C 	C 	0.10220 0.46870 0.67850 -0.13600
H 	H 	0.09140 0.48690 0.75910 0.07400
H 	H 	0.09050 0.50340 0.61650 0.08400
C 	C 	0.25770 0.57800 0.67370 0.45300
C 	C 	0.24450 0.65190 0.67410 -0.49700
H 	H 	0.18490 0.64250 0.67460 0.21000
C 	C 	0.84310 0.11560 0.93200 -0.20100
H 	H 	0.83410 0.06410 0.88800 0.09100
C 	C 	0.86860 0.26410 0.93550 -0.18600
H 	H 	0.87750 0.31720 0.89600 0.08500
C 	C 	0.85790 0.18860 0.86880 0.35200
O 	O 	0.94994 0.34219 0.65750 -0.39600
O 	O 	0.06509 0.31579 0.64920 -0.46700
O 	O 	0.19030 0.48978 0.67090 -0.32900
Cu	Cu	0.85044 0.20332 0.68018 0.95900
H 	H 	0.86080 0.18960 0.78930 -0.39500
H 	H 	0.82780 0.16160 0.54700 0.25800
H 	H 	0.91920 0.22410 0.51960 0.18700
N 	N 	0.81140 0.66930 0.86880 -0.07700
C 	C 	0.63430 0.66920 0.65940 0.40000
C 	C 	0.53130 0.63350 0.67850 -0.13700
H 	H 	0.51310 0.60450 0.75910 0.07500
H 	H 	0.49660 0.58710 0.61650 0.08500
C 	C 	0.42200 0.67970 0.67370 0.45300
C 	C 	0.34810 0.59260 0.67410 -0.49600
H 	H 	0.35750 0.54240 0.67460 0.21100
C 	C 	0.88440 0.72750 0.93200 -0.01800
H 	H 	0.93590 0.77000 0.88800 0.02500
C 	C 	0.73590 0.60450 0.93550 -0.02800
H 	H 	0.68280 0.56030 0.89600 0.03100
O 	O 	0.65781 0.60775 0.65750 -0.39400
O 	O 	0.68421 0.74930 0.64920 -0.46700
O 	O 	0.51022 0.70052 0.67090 -0.32900
Cu	Cu	0.79668 0.64712 0.68018 0.93500
H 	H 	0.81040 0.67120 0.78930 -0.19000
H 	H 	0.83840 0.66620 0.54700 0.25900
H 	H 	0.77590 0.69510 0.51960 0.18700
N 	N 	0.33070 0.14210 0.86880 -0.07700
C 	C 	0.33080 0.96510 0.65940 0.39800
C 	C 	0.36650 0.89780 0.67850 -0.13600
H 	H 	0.39550 0.90860 0.75910 0.07400
H 	H 	0.41290 0.90950 0.61650 0.08400
C 	C 	0.32030 0.74230 0.67370 0.45200
C 	C 	0.40740 0.75550 0.67410 -0.49600
H 	H 	0.45760 0.81510 0.67460 0.21100
C 	C 	0.27250 0.15690 0.93200 -0.01800
H 	H 	0.23000 0.16590 0.88800 0.02800
C 	C 	0.39550 0.13140 0.93550 -0.02800
H 	H 	0.43970 0.12250 0.89600 0.03100
O 	O 	0.39225 0.05006 0.65750 -0.39400
O 	O 	0.25070 0.93491 0.64920 -0.46700
O 	O 	0.29948 0.80970 0.67090 -0.33200
Cu	Cu	0.35288 0.14956 0.68018 0.93500
H 	H 	0.32880 0.13920 0.78930 -0.19000
H 	H 	0.33380 0.17220 0.54700 0.25900
H 	H 	0.30490 0.08080 0.51960 0.18700
O 	O 	0.86350 0.20580 0.50000 -1.06300
O 	O 	0.79420 0.65770 0.50000 -1.06100
O 	O 	0.34230 0.13650 0.50000 -1.06100
O 	O 	0.13650 0.79420 0.50000 -1.06300
O 	O 	0.20580 0.34230 0.50000 -1.06100
O 	O 	0.65770 0.86350 0.50000 -1.06100
