data_crystal

_cell_length_a 9.53640
_cell_length_b 21.80150
_cell_length_c 9.11180
_cell_angle_alpha 90.00000
_cell_angle_beta  90.00000
_cell_angle_gamma 90.00000

_symmetry_space_group_name_	'P 1'
_symmetry_space_group_name_H-M	'P 1'

loop_
_symmetry_equiv_pos_as_xyz
  x,y,z

loop_
_atom_site_label
_atom_site_type_symbol
_atom_site_fract_x
_atom_site_fract_y
_atom_site_fract_z
_atom_site_charge
Zn	Zn	0.56770 0.54838 0.78034 1.23700
P 	P 	0.37981 0.66436 0.71081 0.47500
H 	H 	0.27740 0.62730 0.75140 -0.07000
P 	P 	0.29327 0.50047 0.94401 0.43200
H 	H 	0.30990 0.55240 0.01650 -0.06400
O 	O 	0.34660 0.68561 0.55630 -0.44600
O 	O 	0.38730 0.71441 0.82200 -0.45800
O 	O 	0.51210 0.62592 0.70220 -0.43100
O 	O 	0.41340 0.49568 0.83540 -0.45400
O 	O 	0.14970 0.50284 0.87230 -0.41500
O 	O 	0.29970 0.44850 0.05670 -0.42400
Zn	Zn	0.93230 0.95162 0.78034 1.23600
P 	P 	0.12019 0.83564 0.71081 0.47300
H 	H 	0.22260 0.87270 0.75140 -0.07000
P 	P 	0.20673 0.99953 0.94401 0.42800
H 	H 	0.19010 0.94760 0.01650 -0.06100
O 	O 	0.15340 0.81439 0.55630 -0.44600
O 	O 	0.11270 0.78559 0.82200 -0.45900
O 	O 	0.98790 0.87408 0.70220 -0.42900
O 	O 	0.08660 0.00432 0.83540 -0.45300
O 	O 	0.35030 0.99716 0.87230 -0.41500
O 	O 	0.20030 0.05150 0.05670 -0.42300
Zn	Zn	0.43230 0.04838 0.71966 1.23600
P 	P 	0.62019 0.16436 0.78919 0.47400
H 	H 	0.72260 0.12730 0.74860 -0.06900
P 	P 	0.70673 0.00047 0.55599 0.43500
H 	H 	0.69010 0.05240 0.48350 -0.06500
O 	O 	0.65340 0.18561 0.94370 -0.44300
O 	O 	0.61270 0.21441 0.67800 -0.45700
O 	O 	0.48790 0.12592 0.79780 -0.43000
O 	O 	0.58660 0.99568 0.66460 -0.45500
O 	O 	0.85030 0.00284 0.62770 -0.41400
O 	O 	0.70030 0.94850 0.44330 -0.42500
Zn	Zn	0.06770 0.45162 0.71966 1.23600
P 	P 	0.87981 0.33564 0.78919 0.47500
H 	H 	0.77740 0.37270 0.74860 -0.06900
P 	P 	0.79327 0.49953 0.55599 0.43400
H 	H 	0.80990 0.44760 0.48350 -0.06500
O 	O 	0.84660 0.31439 0.94370 -0.44300
O 	O 	0.88730 0.28559 0.67800 -0.45700
O 	O 	0.01210 0.37408 0.79780 -0.43200
O 	O 	0.91340 0.50432 0.66460 -0.45400
O 	O 	0.64970 0.49716 0.62770 -0.41500
O 	O 	0.79970 0.55150 0.44330 -0.42500
Zn	Zn	0.43230 0.45162 0.21966 1.23600
P 	P 	0.62019 0.33564 0.28919 0.47400
H 	H 	0.72260 0.37270 0.24860 -0.07000
P 	P 	0.70673 0.49953 0.05599 0.43200
H 	H 	0.69010 0.44760 0.98350 -0.06400
O 	O 	0.65340 0.31439 0.44370 -0.44600
O 	O 	0.61270 0.28559 0.17800 -0.45800
O 	O 	0.48790 0.37408 0.29780 -0.43100
O 	O 	0.58660 0.50432 0.16460 -0.45400
O 	O 	0.85030 0.49716 0.12770 -0.41500
O 	O 	0.70030 0.55150 0.94330 -0.42400
Zn	Zn	0.06770 0.04838 0.21966 1.23600
P 	P 	0.87981 0.16436 0.28919 0.47300
H 	H 	0.77740 0.12730 0.24860 -0.07000
P 	P 	0.79327 0.00047 0.05599 0.42800
H 	H 	0.80990 0.05240 0.98350 -0.06100
O 	O 	0.84660 0.18561 0.44370 -0.44600
O 	O 	0.88730 0.21441 0.17800 -0.45900
O 	O 	0.01210 0.12592 0.29780 -0.42900
O 	O 	0.91340 0.99568 0.16460 -0.45300
O 	O 	0.64970 0.00284 0.12770 -0.41500
O 	O 	0.79970 0.94850 0.94330 -0.42300
Zn	Zn	0.56770 0.95162 0.28034 1.23600
P 	P 	0.37981 0.83564 0.21081 0.47400
H 	H 	0.27740 0.87270 0.25140 -0.06900
P 	P 	0.29327 0.99953 0.44401 0.43500
H 	H 	0.30990 0.94760 0.51650 -0.06500
O 	O 	0.34660 0.81439 0.05630 -0.44300
O 	O 	0.38730 0.78559 0.32200 -0.45700
O 	O 	0.51210 0.87408 0.20220 -0.43000
O 	O 	0.41340 0.00432 0.33540 -0.45500
O 	O 	0.14970 0.99716 0.37230 -0.41400
O 	O 	0.29970 0.05150 0.55670 -0.42500
Zn	Zn	0.93230 0.54838 0.28034 1.23600
P 	P 	0.12019 0.66436 0.21081 0.47500
H 	H 	0.22260 0.62730 0.25140 -0.06900
P 	P 	0.20673 0.50047 0.44401 0.43400
H 	H 	0.19010 0.55240 0.51650 -0.06500
O 	O 	0.15340 0.68561 0.05630 -0.44300
O 	O 	0.11270 0.71441 0.32200 -0.45700
O 	O 	0.98790 0.62592 0.20220 -0.43200
O 	O 	0.08660 0.49568 0.33540 -0.45400
O 	O 	0.35030 0.50284 0.37230 -0.41500
O 	O 	0.20030 0.44850 0.55670 -0.42500
Zn	Zn	0.25000 0.75000 0.45377 1.23400
Zn	Zn	0.75000 0.25000 0.04623 1.23200
Zn	Zn	0.75000 0.25000 0.54623 1.23400
Zn	Zn	0.25000 0.75000 0.95377 1.23200
