data_crystal

_cell_length_a 16.63080
_cell_length_b 16.63080
_cell_length_c 51.16400
_cell_angle_alpha 90.00000
_cell_angle_beta  90.00000
_cell_angle_gamma 120.00000

_symmetry_space_group_name_	'P 1'
_symmetry_space_group_name_H-M	'P 1'

loop_
_symmetry_equiv_pos_as_xyz
  x,y,z

loop_
_atom_site_label
_atom_site_type_symbol
_atom_site_fract_x
_atom_site_fract_y
_atom_site_fract_z
_atom_site_charge
W 	W 	0.52541 0.63951 0.17242 1.27700
W 	W 	0.29141 0.43915 0.16837 1.01400
W 	W 	0.39246 0.59167 0.11161 1.04400
W 	W 	0.48007 0.73175 0.22288 0.98900
Lu	Lu	0.77256 0.65682 0.17278 1.02200
C 	C 	0.68350 0.71440 0.09430 -0.18200
O 	O 	0.42230 0.52760 0.17650 -0.47100
O 	O 	0.61320 0.61110 0.16890 -0.46700
O 	O 	0.61230 0.77350 0.16340 -0.44400
C 	C 	0.60420 0.71250 0.05430 -0.18800
O 	O 	0.26270 0.55060 0.17920 -0.34400
O 	O 	0.48760 0.63360 0.13480 -0.45200
N 	N 	0.66260 0.83850 0.08480 -0.17000
O 	O 	0.52810 0.58020 0.02950 -0.46300
O 	O 	0.75410 0.70770 0.13370 -0.39200
O 	O 	0.27500 0.42970 0.20600 -0.43000
O 	O 	0.31900 0.48760 0.13370 -0.44500
O 	O 	0.39380 0.77070 0.22560 -0.45100
O 	O 	0.44000 0.71010 0.09550 -0.42000
O 	O 	0.53340 0.70390 0.01450 -0.32100
C 	C 	0.71900 0.66520 0.11150 0.35200
O 	O 	0.71770 0.59420 0.10440 -0.29500
C 	C 	0.55070 0.66150 0.03090 0.42700
O 	O 	0.54790 0.66910 0.20810 -0.45200
C 	C 	0.61780 0.79940 0.06230 0.12900
H 	H 	0.59560 0.83160 0.05170 -0.01400
C 	C 	0.69320 0.79780 0.09930 0.14600
H 	H 	0.72330 0.83650 0.11410 -0.02000
C 	C 	0.63900 0.67050 0.07180 0.11200
H 	H 	0.63120 0.61250 0.06770 0.00100
W 	W 	0.19208 0.97284 0.50575 1.15200
W 	W 	0.95808 0.77248 0.50170 1.06300
W 	W 	0.05913 0.92500 0.44494 0.87500
W 	W 	0.14674 0.06508 0.55621 1.05100
Lu	Lu	0.43923 0.99015 0.50612 0.95300
C 	C 	0.35017 0.04773 0.42763 -0.09800
O 	O 	0.08897 0.86093 0.50983 -0.49500
O 	O 	0.27987 0.94443 0.50223 -0.46900
O 	O 	0.27897 0.10683 0.49673 -0.40300
C 	C 	0.27087 0.04583 0.38763 -0.10200
O 	O 	0.92937 0.88393 0.51253 -0.35700
O 	O 	0.15427 0.96693 0.46813 -0.45600
N 	N 	0.32927 0.17183 0.41813 -0.14600
O 	O 	0.19477 0.91353 0.36283 -0.44000
O 	O 	0.42077 0.04103 0.46703 -0.29400
O 	O 	0.94167 0.76303 0.53933 -0.41700
O 	O 	0.98567 0.82093 0.46703 -0.39800
O 	O 	0.06047 0.10403 0.55893 -0.48500
O 	O 	0.10667 0.04343 0.42883 -0.37300
O 	O 	0.20007 0.03723 0.34783 -0.23100
C 	C 	0.38567 0.99853 0.44483 0.20400
O 	O 	0.38437 0.92753 0.43773 -0.28400
C 	C 	0.21737 0.99483 0.36423 0.25300
O 	O 	0.21457 0.00243 0.54143 -0.39400
C 	C 	0.28447 0.13273 0.39563 0.09400
H 	H 	0.26227 0.16493 0.38503 0.00500
C 	C 	0.35987 0.13113 0.43263 0.10600
H 	H 	0.38997 0.16983 0.44743 0.00600
C 	C 	0.30567 0.00383 0.40513 0.16900
H 	H 	0.29787 0.94583 0.40103 -0.06200
W 	W 	0.85874 0.30618 0.83909 1.28100
W 	W 	0.62474 0.10582 0.83504 1.04100
W 	W 	0.72579 0.25834 0.77828 1.05500
W 	W 	0.81340 0.39842 0.88955 1.00500
Lu	Lu	0.10589 0.32349 0.83945 0.98000
C 	C 	0.01683 0.38107 0.76097 -0.25600
O 	O 	0.75563 0.19427 0.84317 -0.47000
O 	O 	0.94653 0.27777 0.83557 -0.43600
O 	O 	0.94563 0.44017 0.83007 -0.42600
C 	C 	0.93753 0.37917 0.72097 -0.20600
O 	O 	0.59603 0.21727 0.84587 -0.35500
O 	O 	0.82093 0.30027 0.80147 -0.44400
N 	N 	0.99593 0.50517 0.75147 -0.12600
O 	O 	0.86143 0.24687 0.69617 -0.45400
O 	O 	0.08743 0.37437 0.80037 -0.40800
O 	O 	0.60833 0.09637 0.87267 -0.42000
O 	O 	0.65233 0.15427 0.80037 -0.44000
O 	O 	0.72713 0.43737 0.89227 -0.44800
O 	O 	0.77333 0.37677 0.76217 -0.41800
O 	O 	0.86673 0.37057 0.68117 -0.31100
C 	C 	0.05233 0.33187 0.77817 0.36300
O 	O 	0.05103 0.26087 0.77107 -0.31900
C 	C 	0.88403 0.32817 0.69757 0.44100
O 	O 	0.88123 0.33577 0.87477 -0.44400
C 	C 	0.95113 0.46607 0.72897 0.15500
H 	H 	0.92893 0.49827 0.71837 -0.00700
C 	C 	0.02653 0.46447 0.76597 0.10600
H 	H 	0.05663 0.50317 0.78077 -0.01900
C 	C 	0.97233 0.33717 0.73847 0.21200
H 	H 	0.96453 0.27917 0.73437 -0.01000
W 	W 	0.36049 0.88590 0.17242 1.21100
W 	W 	0.56085 0.85226 0.16837 0.99100
W 	W 	0.40833 0.80079 0.11161 1.03200
W 	W 	0.26825 0.74832 0.22288 0.98100
Lu	Lu	0.34318 0.11574 0.17278 1.03000
C 	C 	0.28560 0.96910 0.09430 -0.20800
O 	O 	0.47240 0.89470 0.17650 -0.47900
O 	O 	0.38890 0.00210 0.16890 -0.41400
O 	O 	0.22650 0.83880 0.16340 -0.45500
C 	C 	0.28750 0.89170 0.05430 -0.15100
O 	O 	0.44940 0.71210 0.17920 -0.34700
O 	O 	0.36640 0.85400 0.13480 -0.45500
N 	N 	0.16150 0.82410 0.08480 -0.16700
O 	O 	0.41980 0.94790 0.02950 -0.47700
O 	O 	0.29230 0.04640 0.13370 -0.38500
O 	O 	0.57030 0.84530 0.20600 -0.44000
O 	O 	0.51240 0.83140 0.13370 -0.44800
O 	O 	0.22930 0.62310 0.22560 -0.45000
O 	O 	0.28990 0.72990 0.09550 -0.41900
O 	O 	0.29610 0.82950 0.01450 -0.32200
C 	C 	0.33480 0.05380 0.11150 0.40300
O 	O 	0.40580 0.12350 0.10440 -0.30200
C 	C 	0.33850 0.88920 0.03090 0.40500
O 	O 	0.33090 0.87880 0.20810 -0.46800
C 	C 	0.20060 0.81840 0.06230 0.11000
H 	H 	0.16840 0.76400 0.05170 -0.00800
C 	C 	0.20220 0.89540 0.09930 0.14600
H 	H 	0.16350 0.88680 0.11410 -0.03600
C 	C 	0.32950 0.96850 0.07180 -0.02100
H 	H 	0.38750 0.01870 0.06770 0.09600
W 	W 	0.02716 0.21923 0.50575 1.17300
W 	W 	0.22752 0.18559 0.50170 1.01000
W 	W 	0.07500 0.13412 0.44494 0.98800
W 	W 	0.93492 0.08165 0.55621 1.11000
Lu	Lu	0.00985 0.44907 0.50612 0.96300
C 	C 	0.95227 0.30243 0.42763 -0.10500
O 	O 	0.13907 0.22803 0.50983 -0.46300
O 	O 	0.05557 0.33543 0.50223 -0.46700
O 	O 	0.89317 0.17213 0.49673 -0.41600
C 	C 	0.95417 0.22503 0.38763 -0.10600
O 	O 	0.11607 0.04543 0.51253 -0.32600
O 	O 	0.03307 0.18733 0.46813 -0.46000
N 	N 	0.82817 0.15743 0.41813 -0.14000
O 	O 	0.08647 0.28123 0.36283 -0.43600
O 	O 	0.95897 0.37973 0.46703 -0.30600
O 	O 	0.23697 0.17863 0.53933 -0.43400
O 	O 	0.17907 0.16473 0.46703 -0.43100
O 	O 	0.89597 0.95643 0.55893 -0.49400
O 	O 	0.95657 0.06323 0.42883 -0.34400
O 	O 	0.96277 0.16283 0.34783 -0.22100
C 	C 	0.00147 0.38713 0.44483 0.22200
O 	O 	0.07247 0.45683 0.43773 -0.28500
C 	C 	0.00517 0.22253 0.36423 0.27300
O 	O 	0.99757 0.21213 0.54143 -0.40900
C 	C 	0.86727 0.15173 0.39563 0.09600
H 	H 	0.83507 0.09733 0.38503 0.01900
C 	C 	0.86887 0.22873 0.43263 0.10700
H 	H 	0.83017 0.22013 0.44743 0.00800
C 	C 	0.99617 0.30183 0.40513 0.15600
H 	H 	0.05417 0.35203 0.40103 -0.05100
W 	W 	0.69382 0.55257 0.83909 1.27800
W 	W 	0.89418 0.51893 0.83504 1.03600
W 	W 	0.74166 0.46746 0.77828 1.04900
W 	W 	0.60158 0.41499 0.88955 0.99600
Lu	Lu	0.67651 0.78241 0.83945 0.99600
C 	C 	0.61893 0.63577 0.76097 -0.18300
O 	O 	0.80573 0.56137 0.84317 -0.47100
O 	O 	0.72223 0.66877 0.83557 -0.46700
O 	O 	0.55983 0.50547 0.83007 -0.44400
C 	C 	0.62083 0.55837 0.72097 -0.18800
O 	O 	0.78273 0.37877 0.84587 -0.35400
O 	O 	0.69973 0.52067 0.80147 -0.45300
N 	N 	0.49483 0.49077 0.75147 -0.16100
O 	O 	0.75313 0.61457 0.69617 -0.46300
O 	O 	0.62563 0.71307 0.80037 -0.39700
O 	O 	0.90363 0.51197 0.87267 -0.42100
O 	O 	0.84573 0.49807 0.80037 -0.44100
O 	O 	0.56263 0.28977 0.89227 -0.44700
O 	O 	0.62323 0.39657 0.76217 -0.42100
O 	O 	0.62943 0.49617 0.68117 -0.31800
C 	C 	0.66813 0.72047 0.77817 0.35200
O 	O 	0.73913 0.79017 0.77107 -0.30800
C 	C 	0.67183 0.55587 0.69757 0.42700
O 	O 	0.66423 0.54547 0.87477 -0.45300
C 	C 	0.53393 0.48507 0.72897 0.13200
H 	H 	0.50173 0.43067 0.71837 -0.00900
C 	C 	0.53553 0.56207 0.76597 0.14500
H 	H 	0.49683 0.55347 0.78077 -0.01400
C 	C 	0.66283 0.63517 0.73847 0.11300
H 	H 	0.72083 0.68537 0.73437 -0.00100
W 	W 	0.11410 0.47459 0.17242 1.22000
W 	W 	0.14774 0.70859 0.16837 0.98800
W 	W 	0.19921 0.60754 0.11161 1.03300
W 	W 	0.25168 0.51993 0.22288 0.98600
Lu	Lu	0.88426 0.22744 0.17278 1.04800
C 	C 	0.03090 0.31650 0.09430 -0.19900
O 	O 	0.10530 0.57770 0.17650 -0.47800
O 	O 	0.99790 0.38680 0.16890 -0.42100
O 	O 	0.16120 0.38770 0.16340 -0.44900
C 	C 	0.10830 0.39580 0.05430 -0.15400
O 	O 	0.28790 0.73730 0.17920 -0.34000
O 	O 	0.14600 0.51240 0.13480 -0.45500
N 	N 	0.17590 0.33740 0.08480 -0.15800
O 	O 	0.05210 0.47190 0.02950 -0.47500
O 	O 	0.95360 0.24590 0.13370 -0.37600
O 	O 	0.15470 0.72500 0.20600 -0.44200
O 	O 	0.16860 0.68100 0.13370 -0.44800
O 	O 	0.37690 0.60620 0.22560 -0.44700
O 	O 	0.27010 0.56000 0.09550 -0.41900
O 	O 	0.17050 0.46660 0.01450 -0.32200
C 	C 	0.94620 0.28100 0.11150 0.39400
O 	O 	0.87650 0.28230 0.10440 -0.29500
C 	C 	0.11080 0.44930 0.03090 0.40700
O 	O 	0.12120 0.45210 0.20810 -0.46400
C 	C 	0.18160 0.38220 0.06230 0.11500
H 	H 	0.23600 0.40440 0.05170 -0.00400
C 	C 	0.10460 0.30680 0.09930 0.14300
H 	H 	0.11320 0.27670 0.11410 -0.02100
C 	C 	0.03150 0.36100 0.07180 -0.00600
H 	H 	0.98130 0.36880 0.06770 0.08500
W 	W 	0.78077 0.80792 0.50575 1.27600
W 	W 	0.81441 0.04192 0.50170 1.07800
W 	W 	0.86588 0.94087 0.44494 0.94200
W 	W 	0.91835 0.85326 0.55621 1.04900
Lu	Lu	0.55093 0.56077 0.50612 1.01800
C 	C 	0.69757 0.64983 0.42763 -0.18000
O 	O 	0.77197 0.91103 0.50983 -0.51100
O 	O 	0.66457 0.72013 0.50223 -0.46900
O 	O 	0.82787 0.72103 0.49673 -0.44700
C 	C 	0.77497 0.72913 0.38763 -0.18800
O 	O 	0.95457 0.07063 0.51253 -0.30700
O 	O 	0.81267 0.84573 0.46813 -0.44600
N 	N 	0.84257 0.67073 0.41813 -0.15500
O 	O 	0.71877 0.80523 0.36283 -0.46800
O 	O 	0.62027 0.57923 0.46703 -0.39200
O 	O 	0.82137 0.05833 0.53933 -0.41900
O 	O 	0.83527 0.01433 0.46703 -0.39600
O 	O 	0.04357 0.93953 0.55893 -0.53200
O 	O 	0.93677 0.89333 0.42883 -0.38400
O 	O 	0.83717 0.79993 0.34783 -0.31800
C 	C 	0.61287 0.61433 0.44483 0.35100
O 	O 	0.54317 0.61563 0.43773 -0.30500
C 	C 	0.77747 0.78263 0.36423 0.42500
O 	O 	0.78787 0.78543 0.54143 -0.45900
C 	C 	0.84827 0.71553 0.39563 0.13100
H 	H 	0.90267 0.73773 0.38503 0.00000
C 	C 	0.77127 0.64013 0.43263 0.14300
H 	H 	0.77987 0.61003 0.44743 -0.00800
C 	C 	0.69817 0.69433 0.40513 0.11100
H 	H 	0.64797 0.70213 0.40103 -0.00300
W 	W 	0.44743 0.14126 0.83909 1.28000
W 	W 	0.48107 0.37526 0.83504 1.01600
W 	W 	0.53254 0.27421 0.77828 1.04900
W 	W 	0.58501 0.18660 0.88955 1.00700
Lu	Lu	0.21759 0.89411 0.83945 0.95300
C 	C 	0.36423 0.98317 0.76097 -0.27500
O 	O 	0.43863 0.24437 0.84317 -0.47100
O 	O 	0.33123 0.05347 0.83557 -0.43400
O 	O 	0.49453 0.05437 0.83007 -0.42300
C 	C 	0.44163 0.06247 0.72097 -0.21400
O 	O 	0.62123 0.40397 0.84587 -0.35100
O 	O 	0.47933 0.17907 0.80147 -0.44400
N 	N 	0.50923 0.00407 0.75147 -0.12100
O 	O 	0.38543 0.13857 0.69617 -0.46000
O 	O 	0.28693 0.91257 0.80037 -0.41500
O 	O 	0.48803 0.39167 0.87267 -0.43000
O 	O 	0.50193 0.34767 0.80037 -0.44500
O 	O 	0.71023 0.27287 0.89227 -0.44800
O 	O 	0.60343 0.22667 0.76217 -0.41800
O 	O 	0.50383 0.13327 0.68117 -0.31100
C 	C 	0.27953 0.94767 0.77817 0.36900
O 	O 	0.20983 0.94897 0.77107 -0.34600
C 	C 	0.44413 0.11597 0.69757 0.44500
O 	O 	0.45453 0.11877 0.87477 -0.44300
C 	C 	0.51493 0.04887 0.72897 0.16100
H 	H 	0.56933 0.07107 0.71837 -0.00700
C 	C 	0.43793 0.97347 0.76597 0.10400
H 	H 	0.44653 0.94337 0.78077 -0.02000
C 	C 	0.36483 0.02767 0.73847 0.23300
H 	H 	0.31463 0.03547 0.73437 -0.02200
W 	W 	0.36049 0.47459 0.67242 1.27800
W 	W 	0.56085 0.70859 0.66837 1.01400
W 	W 	0.40833 0.60754 0.61161 1.04500
W 	W 	0.26825 0.51993 0.72288 0.99100
Lu	Lu	0.34318 0.22744 0.67278 1.02500
C 	C 	0.28560 0.31650 0.59430 -0.18100
O 	O 	0.47240 0.57770 0.67650 -0.47100
O 	O 	0.38890 0.38680 0.66890 -0.46700
O 	O 	0.22650 0.38770 0.66340 -0.44400
C 	C 	0.28750 0.39580 0.55430 -0.18800
O 	O 	0.44940 0.73730 0.67920 -0.34300
O 	O 	0.36640 0.51240 0.63480 -0.45200
N 	N 	0.16150 0.33740 0.58480 -0.16900
O 	O 	0.41980 0.47190 0.52950 -0.46300
O 	O 	0.29230 0.24590 0.63370 -0.39000
O 	O 	0.57030 0.72500 0.70600 -0.43100
O 	O 	0.51240 0.68100 0.63370 -0.44500
O 	O 	0.22930 0.60620 0.72560 -0.45000
O 	O 	0.28990 0.56000 0.59550 -0.42000
O 	O 	0.29610 0.46660 0.51450 -0.32100
C 	C 	0.33480 0.28100 0.61150 0.35100
O 	O 	0.40580 0.28230 0.60440 -0.29400
C 	C 	0.33850 0.44930 0.53090 0.42700
O 	O 	0.33090 0.45210 0.70810 -0.45200
C 	C 	0.20060 0.38220 0.56230 0.12900
H 	H 	0.16840 0.40440 0.55170 -0.01300
C 	C 	0.20220 0.30680 0.59930 0.14500
H 	H 	0.16350 0.27670 0.61410 -0.01800
C 	C 	0.32950 0.36100 0.57180 0.11100
H 	H 	0.38750 0.36880 0.56770 0.00200
W 	W 	0.02716 0.80792 0.00575 1.16400
W 	W 	0.22752 0.04192 0.00170 1.06700
W 	W 	0.07500 0.94087 0.94494 0.87000
W 	W 	0.93492 0.85326 0.05621 1.04300
Lu	Lu	0.00985 0.56077 0.00612 0.96000
C 	C 	0.95227 0.64983 0.92763 -0.10900
O 	O 	0.13907 0.91103 0.00983 -0.50100
O 	O 	0.05557 0.72013 0.00223 -0.46900
O 	O 	0.89317 0.72103 0.99673 -0.40500
C 	C 	0.95417 0.72913 0.88763 -0.11400
O 	O 	0.11607 0.07063 0.01253 -0.35400
O 	O 	0.03307 0.84573 0.96813 -0.45200
N 	N 	0.82817 0.67073 0.91813 -0.14800
O 	O 	0.08647 0.80523 0.86283 -0.44500
O 	O 	0.95897 0.57923 0.96703 -0.30500
O 	O 	0.23697 0.05833 0.03933 -0.41500
O 	O 	0.17907 0.01433 0.96703 -0.39200
O 	O 	0.89597 0.93953 0.05893 -0.49000
O 	O 	0.95657 0.89333 0.92883 -0.37900
O 	O 	0.96277 0.79993 0.84783 -0.24500
C 	C 	0.00147 0.61433 0.94483 0.22300
O 	O 	0.07247 0.61563 0.93773 -0.28600
C 	C 	0.00517 0.78263 0.86423 0.27500
O 	O 	0.99757 0.78543 0.04143 -0.40100
C 	C 	0.86727 0.71553 0.89563 0.09900
H 	H 	0.83507 0.73773 0.88503 0.00200
C 	C 	0.86887 0.64013 0.93263 0.11100
H 	H 	0.83017 0.61003 0.94743 0.00400
C 	C 	0.99617 0.69433 0.90513 0.16200
H 	H 	0.05417 0.70213 0.90103 -0.05500
W 	W 	0.69382 0.14126 0.33909 1.28100
W 	W 	0.89418 0.37526 0.33504 1.03800
W 	W 	0.74166 0.27421 0.27828 1.05500
W 	W 	0.60158 0.18660 0.38955 1.00600
Lu	Lu	0.67651 0.89411 0.33945 0.97400
C 	C 	0.61893 0.98317 0.26097 -0.26800
O 	O 	0.80573 0.24437 0.34317 -0.47000
O 	O 	0.72223 0.05347 0.33557 -0.43200
O 	O 	0.55983 0.05437 0.33007 -0.42300
C 	C 	0.62083 0.06247 0.22097 -0.20900
O 	O 	0.78273 0.40397 0.34587 -0.35400
O 	O 	0.69973 0.17907 0.30147 -0.44300
N 	N 	0.49483 0.00407 0.25147 -0.12100
O 	O 	0.75313 0.13857 0.19617 -0.45400
O 	O 	0.62563 0.91257 0.30037 -0.41000
O 	O 	0.90363 0.39167 0.37267 -0.42200
O 	O 	0.84573 0.34767 0.30037 -0.44000
O 	O 	0.56263 0.27287 0.39227 -0.44800
O 	O 	0.62323 0.22667 0.26217 -0.41800
O 	O 	0.62943 0.13327 0.18117 -0.31000
C 	C 	0.66813 0.94767 0.27817 0.36600
O 	O 	0.73913 0.94897 0.27107 -0.32400
C 	C 	0.67183 0.11597 0.19757 0.44300
O 	O 	0.66423 0.11877 0.37477 -0.44300
C 	C 	0.53393 0.04887 0.22897 0.15900
H 	H 	0.50173 0.07107 0.21837 -0.00700
C 	C 	0.53553 0.97347 0.26597 0.10100
H 	H 	0.49683 0.94337 0.28077 -0.02000
C 	C 	0.66283 0.02767 0.23847 0.22800
H 	H 	0.72083 0.03547 0.23437 -0.01300
W 	W 	0.11410 0.63951 0.67242 1.21900
W 	W 	0.14774 0.43915 0.66837 0.99500
W 	W 	0.19921 0.59167 0.61161 1.03400
W 	W 	0.25168 0.73175 0.72288 0.98200
Lu	Lu	0.88426 0.65682 0.67278 1.02600
C 	C 	0.03090 0.71440 0.59430 -0.20500
O 	O 	0.10530 0.52760 0.67650 -0.47800
O 	O 	0.99790 0.61110 0.66890 -0.42100
O 	O 	0.16120 0.77350 0.66340 -0.45400
C 	C 	0.10830 0.71250 0.55430 -0.15600
O 	O 	0.28790 0.55060 0.67920 -0.34800
O 	O 	0.14600 0.63360 0.63480 -0.45500
N 	N 	0.17590 0.83850 0.58480 -0.16900
O 	O 	0.05210 0.58020 0.52950 -0.47500
O 	O 	0.95360 0.70770 0.63370 -0.38700
O 	O 	0.15470 0.42970 0.70600 -0.43800
O 	O 	0.16860 0.48760 0.63370 -0.44800
O 	O 	0.37690 0.77070 0.72560 -0.45000
O 	O 	0.27010 0.71010 0.59550 -0.41900
O 	O 	0.17050 0.70390 0.51450 -0.32200
C 	C 	0.94620 0.66520 0.61150 0.39700
O 	O 	0.87650 0.59420 0.60440 -0.30200
C 	C 	0.11080 0.66150 0.53090 0.40800
O 	O 	0.12120 0.66910 0.70810 -0.46600
C 	C 	0.18160 0.79940 0.56230 0.11200
H 	H 	0.23600 0.83160 0.55170 -0.00900
C 	C 	0.10460 0.79780 0.59930 0.14600
H 	H 	0.11320 0.83650 0.61410 -0.03600
C 	C 	0.03150 0.67050 0.57180 -0.00400
H 	H 	0.98130 0.61250 0.56770 0.08400
W 	W 	0.78077 0.97284 0.00575 1.15300
W 	W 	0.81441 0.77248 0.00170 1.00400
W 	W 	0.86588 0.92500 0.94494 0.97700
W 	W 	0.91835 0.06508 0.05621 1.10900
Lu	Lu	0.55093 0.99015 0.00612 0.95300
C 	C 	0.69757 0.04773 0.92763 -0.09400
O 	O 	0.77197 0.86093 0.00983 -0.46100
O 	O 	0.66457 0.94443 0.00223 -0.46800
O 	O 	0.82787 0.10683 0.99673 -0.40700
C 	C 	0.77497 0.04583 0.88763 -0.09500
O 	O 	0.95457 0.88393 0.01253 -0.33300
O 	O 	0.81267 0.96693 0.96813 -0.45900
N 	N 	0.84257 0.17183 0.91813 -0.13900
O 	O 	0.71877 0.91353 0.86283 -0.43300
O 	O 	0.62027 0.04103 0.96703 -0.29200
O 	O 	0.82137 0.76303 0.03933 -0.43300
O 	O 	0.83527 0.82093 0.96703 -0.42900
O 	O 	0.04357 0.10403 0.05893 -0.48700
O 	O 	0.93677 0.04343 0.92883 -0.34300
O 	O 	0.83717 0.03723 0.84783 -0.21000
C 	C 	0.61287 0.99853 0.94483 0.20300
O 	O 	0.54317 0.92753 0.93773 -0.28200
C 	C 	0.77747 0.99483 0.86423 0.25100
O 	O 	0.78787 0.00243 0.04143 -0.40000
C 	C 	0.84827 0.13273 0.89563 0.09200
H 	H 	0.90267 0.16493 0.88503 0.01900
C 	C 	0.77127 0.13113 0.93263 0.10200
H 	H 	0.77987 0.16983 0.94743 0.01000
C 	C 	0.69817 0.00383 0.90513 0.16300
H 	H 	0.64797 0.94583 0.90103 -0.05800
W 	W 	0.44743 0.30618 0.33909 1.27900
W 	W 	0.48107 0.10582 0.33504 1.03900
W 	W 	0.53254 0.25834 0.27828 1.05000
W 	W 	0.58501 0.39842 0.38955 0.99600
Lu	Lu	0.21759 0.32349 0.33945 0.99900
C 	C 	0.36423 0.38107 0.26097 -0.18200
O 	O 	0.43863 0.19427 0.34317 -0.47100
O 	O 	0.33123 0.27777 0.33557 -0.46700
O 	O 	0.49453 0.44017 0.33007 -0.44400
C 	C 	0.44163 0.37917 0.22097 -0.18800
O 	O 	0.62123 0.21727 0.34587 -0.35500
O 	O 	0.47933 0.30027 0.30147 -0.45200
N 	N 	0.50923 0.50517 0.25147 -0.16100
O 	O 	0.38543 0.24687 0.19617 -0.46200
O 	O 	0.28693 0.37437 0.30037 -0.39600
O 	O 	0.48803 0.09637 0.37267 -0.42000
O 	O 	0.50193 0.15427 0.30037 -0.44100
O 	O 	0.71023 0.43737 0.39227 -0.44700
O 	O 	0.60343 0.37677 0.26217 -0.42100
O 	O 	0.50383 0.37057 0.18117 -0.31800
C 	C 	0.27953 0.33187 0.27817 0.35200
O 	O 	0.20983 0.26087 0.27107 -0.30500
C 	C 	0.44413 0.32817 0.19757 0.42700
O 	O 	0.45453 0.33577 0.37477 -0.45300
C 	C 	0.51493 0.46607 0.22897 0.13200
H 	H 	0.56933 0.49827 0.21837 -0.00900
C 	C 	0.43793 0.46447 0.26597 0.14500
H 	H 	0.44653 0.50317 0.28077 -0.01400
C 	C 	0.36483 0.33717 0.23847 0.11200
H 	H 	0.31463 0.27917 0.23437 0.00100
W 	W 	0.52541 0.88590 0.67242 1.21100
W 	W 	0.29141 0.85226 0.66837 0.98500
W 	W 	0.39246 0.80079 0.61161 1.03200
W 	W 	0.48007 0.74832 0.72288 0.98500
Lu	Lu	0.77256 0.11574 0.67278 1.04900
C 	C 	0.68350 0.96910 0.59430 -0.20200
O 	O 	0.42230 0.89470 0.67650 -0.47900
O 	O 	0.61320 0.00210 0.66890 -0.41400
O 	O 	0.61230 0.83880 0.66340 -0.45100
C 	C 	0.60420 0.89170 0.55430 -0.14900
O 	O 	0.26270 0.71210 0.67920 -0.34000
O 	O 	0.48760 0.85400 0.63480 -0.45600
N 	N 	0.66260 0.82410 0.58480 -0.15800
O 	O 	0.52810 0.94790 0.52950 -0.47700
O 	O 	0.75410 0.04640 0.63370 -0.37500
O 	O 	0.27500 0.84530 0.70600 -0.44300
O 	O 	0.31900 0.83140 0.63370 -0.44800
O 	O 	0.39380 0.62310 0.72560 -0.44700
O 	O 	0.44000 0.72990 0.59550 -0.41900
O 	O 	0.53340 0.82950 0.51450 -0.32100
C 	C 	0.71900 0.05380 0.61150 0.40100
O 	O 	0.71770 0.12350 0.60440 -0.29600
C 	C 	0.55070 0.88920 0.53090 0.40400
O 	O 	0.54790 0.87880 0.70810 -0.46600
C 	C 	0.61780 0.81840 0.56230 0.11200
H 	H 	0.59560 0.76400 0.55170 -0.00300
C 	C 	0.69320 0.89540 0.59930 0.14300
H 	H 	0.72330 0.88680 0.61410 -0.02400
C 	C 	0.63900 0.96850 0.57180 -0.02400
H 	H 	0.63120 0.01870 0.56770 0.09700
W 	W 	0.19208 0.21923 0.00575 1.27300
W 	W 	0.95808 0.18559 0.00170 1.06500
W 	W 	0.05913 0.13412 0.94494 0.95700
W 	W 	0.14674 0.08165 0.05621 1.05800
Lu	Lu	0.43923 0.44907 0.00612 1.01600
C 	C 	0.35017 0.30243 0.92763 -0.17900
O 	O 	0.08897 0.22803 0.00983 -0.50600
O 	O 	0.27987 0.33543 0.00223 -0.46900
O 	O 	0.27897 0.17213 0.99673 -0.44400
C 	C 	0.27087 0.22503 0.88763 -0.18600
O 	O 	0.92937 0.04543 0.01253 -0.30400
O 	O 	0.15427 0.18733 0.96813 -0.44500
N 	N 	0.32927 0.15743 0.91813 -0.15300
O 	O 	0.19477 0.28123 0.86283 -0.46700
O 	O 	0.42077 0.37973 0.96703 -0.39000
O 	O 	0.94167 0.17863 0.03933 -0.42200
O 	O 	0.98567 0.16473 0.96703 -0.39900
O 	O 	0.06047 0.95643 0.05893 -0.53200
O 	O 	0.10667 0.06323 0.92883 -0.37900
O 	O 	0.20007 0.16283 0.84783 -0.31400
C 	C 	0.38567 0.38713 0.94483 0.35100
O 	O 	0.38437 0.45683 0.93773 -0.30400
C 	C 	0.21737 0.22253 0.86423 0.42400
O 	O 	0.21457 0.21213 0.04143 -0.45900
C 	C 	0.28447 0.15173 0.89563 0.13100
H 	H 	0.26227 0.09733 0.88503 0.00200
C 	C 	0.35987 0.22873 0.93263 0.14300
H 	H 	0.38997 0.22013 0.94743 -0.00700
C 	C 	0.30567 0.30183 0.90513 0.11100
H 	H 	0.29787 0.35203 0.90103 -0.00200
W 	W 	0.85874 0.55257 0.33909 1.27900
W 	W 	0.62474 0.51893 0.33504 1.01600
W 	W 	0.72579 0.46746 0.27828 1.04800
W 	W 	0.81340 0.41499 0.38955 1.00500
Lu	Lu	0.10589 0.78241 0.33945 0.95500
C 	C 	0.01683 0.63577 0.26097 -0.26400
O 	O 	0.75563 0.56137 0.34317 -0.47100
O 	O 	0.94653 0.66877 0.33557 -0.43800
O 	O 	0.94563 0.50547 0.33007 -0.42600
C 	C 	0.93753 0.55837 0.22097 -0.21100
O 	O 	0.59603 0.37877 0.34587 -0.35100
O 	O 	0.82093 0.52067 0.30147 -0.44500
N 	N 	0.99593 0.49077 0.25147 -0.12600
O 	O 	0.86143 0.61457 0.19617 -0.46100
O 	O 	0.08743 0.71307 0.30037 -0.41400
O 	O 	0.60833 0.51197 0.37267 -0.43000
O 	O 	0.65233 0.49807 0.30037 -0.44500
O 	O 	0.72713 0.28977 0.39227 -0.44800
O 	O 	0.77333 0.39657 0.26217 -0.41800
O 	O 	0.86673 0.49617 0.18117 -0.31200
C 	C 	0.05233 0.72047 0.27817 0.36700
O 	O 	0.05103 0.79017 0.27107 -0.34400
C 	C 	0.88403 0.55587 0.19757 0.44300
O 	O 	0.88123 0.54547 0.37477 -0.44400
C 	C 	0.95113 0.48507 0.22897 0.15700
H 	H 	0.92893 0.43067 0.21837 -0.00700
C 	C 	0.02653 0.56207 0.26597 0.10900
H 	H 	0.05663 0.55347 0.28077 -0.02000
C 	C 	0.97233 0.63517 0.23847 0.21800
H 	H 	0.96453 0.68537 0.23437 -0.02000
O 	O 	0.33333 0.66667 0.13370 -0.31800
O 	O 	-0.00000 -0.00000 0.46703 -0.29800
O 	O 	0.66667 0.33333 0.80037 -0.32400
O 	O 	0.33333 0.66667 0.63370 -0.31800
O 	O 	-0.00000 -0.00000 0.96703 -0.29700
O 	O 	0.66667 0.33333 0.30037 -0.32400
