data_crystal

_cell_length_a 16.66060
_cell_length_b 16.66060
_cell_length_c 51.31600
_cell_angle_alpha 90.00000
_cell_angle_beta  90.00000
_cell_angle_gamma 120.00000

_symmetry_space_group_name_	'P 1'
_symmetry_space_group_name_H-M	'P 1'

loop_
_symmetry_equiv_pos_as_xyz
  x,y,z

loop_
_atom_site_label
_atom_site_type_symbol
_atom_site_fract_x
_atom_site_fract_y
_atom_site_fract_z
_atom_site_charge
W 	W 	0.74842 0.47997 0.02976 0.99700
Yb	Yb	0.11630 0.77159 0.07954 1.41700
O 	O 	0.58000 0.47240 0.07660 -0.47300
C 	C 	0.37750 0.94020 0.02970 -0.21000
O 	O 	0.87790 0.54780 0.04370 -0.47000
O 	O 	0.68040 0.51070 0.11800 -0.44600
O 	O 	0.72770 0.56970 0.04600 -0.43900
O 	O 	0.73140 0.44230 0.15580 -0.43300
O 	O 	0.83860 0.61120 0.08800 -0.47100
O 	O 	0.24570 0.85820 0.05640 -0.51300
O 	O 	0.00230 0.61410 0.08240 -0.47400
O 	O 	0.37430 0.08910 0.95190 -0.49600
C 	C 	0.38030 0.01720 0.99100 -0.27400
N 	N 	0.50380 0.99510 0.99750 -0.12500
C 	C 	0.46360 0.02970 0.98700 0.11000
H 	H 	0.49800 0.06930 0.97270 -0.02700
C 	C 	0.33490 0.96750 0.01300 0.23700
H 	H 	0.27210 0.95210 0.01640 -0.02400
C 	C 	0.46640 0.95530 0.02220 0.14100
H 	H 	0.49840 0.93270 0.03280 -0.01500
C 	C 	0.33000 0.04700 0.97230 0.35200
O 	O 	0.37140 0.86700 0.07180 -0.31300
C 	C 	0.32910 0.88360 0.05380 0.39900
O 	O 	0.73940 0.45080 0.07250 -0.34500
W 	W 	0.70920 0.56075 0.08400 1.01700
W 	W 	0.88554 0.52490 0.07994 1.20300
O 	O 	0.26030 0.05100 0.98240 -0.32900
O 	O 	0.77180 0.37850 0.02720 -0.45500
W 	W 	0.80018 0.39208 0.14060 1.01700
O 	O 	0.85430 0.48420 0.11680 -0.46300
W 	W 	0.41509 0.81330 0.36309 1.01800
Yb	Yb	0.78297 0.10492 0.41288 1.35700
O 	O 	0.24667 0.80573 0.40993 -0.47300
C 	C 	0.04417 0.27353 0.36303 -0.10300
O 	O 	0.54457 0.88113 0.37703 -0.44600
O 	O 	0.34707 0.84403 0.45133 -0.44200
O 	O 	0.39437 0.90303 0.37933 -0.43000
O 	O 	0.39807 0.77563 0.48913 -0.43300
O 	O 	0.50527 0.94453 0.42133 -0.44600
O 	O 	0.91237 0.19153 0.38973 -0.51800
O 	O 	0.66897 0.94743 0.41573 -0.50900
O 	O 	0.04097 0.42243 0.28523 -0.36700
C 	C 	0.04697 0.35053 0.32433 -0.10200
N 	N 	0.17047 0.32843 0.33083 -0.15400
C 	C 	0.13027 0.36303 0.32033 0.12300
H 	H 	0.16467 0.40263 0.30603 -0.00700
C 	C 	0.00157 0.30083 0.34633 0.18400
H 	H 	0.93877 0.28543 0.34973 -0.08000
C 	C 	0.13307 0.28863 0.35553 0.07700
H 	H 	0.16507 0.26603 0.36613 -0.00200
C 	C 	0.99667 0.38033 0.30563 0.18000
O 	O 	0.03807 0.20033 0.40513 -0.23800
C 	C 	0.99577 0.21693 0.38713 0.21100
O 	O 	0.40607 0.78413 0.40583 -0.35800
W 	W 	0.37587 0.89408 0.41733 1.04400
W 	W 	0.55221 0.85823 0.41327 1.28100
O 	O 	0.92697 0.38433 0.31573 -0.30100
O 	O 	0.43847 0.71183 0.36053 -0.45200
W 	W 	0.46685 0.72541 0.47394 1.03800
O 	O 	0.52097 0.81753 0.45013 -0.45200
W 	W 	0.08175 0.14664 0.69642 1.08000
Yb	Yb	0.44963 0.43826 0.74621 1.39700
O 	O 	0.91333 0.13907 0.74327 -0.51000
C 	C 	0.71083 0.60687 0.69637 -0.18800
O 	O 	0.21123 0.21447 0.71037 -0.46300
O 	O 	0.01373 0.17737 0.78467 -0.38900
O 	O 	0.06103 0.23637 0.71267 -0.42400
O 	O 	0.06473 0.10897 0.82247 -0.38700
O 	O 	0.17193 0.27787 0.75467 -0.47000
O 	O 	0.57903 0.52487 0.72307 -0.52700
O 	O 	0.33563 0.28077 0.74907 -0.53900
O 	O 	0.70763 0.75577 0.61857 -0.47500
C 	C 	0.71363 0.68387 0.65767 -0.20300
N 	N 	0.83713 0.66177 0.66417 -0.18200
C 	C 	0.79693 0.69637 0.65367 0.17500
H 	H 	0.83133 0.73597 0.63937 -0.03700
C 	C 	0.66823 0.63417 0.67967 0.12900
H 	H 	0.60543 0.61877 0.68307 -0.01500
C 	C 	0.79973 0.62197 0.68887 0.10500
H 	H 	0.83173 0.59937 0.69947 -0.02100
C 	C 	0.66333 0.71367 0.63897 0.34700
O 	O 	0.70473 0.53367 0.73847 -0.32600
C 	C 	0.66243 0.55027 0.72047 0.38300
O 	O 	0.07273 0.11747 0.73917 -0.35800
W 	W 	0.04253 0.22742 0.75066 1.08300
W 	W 	0.21887 0.19157 0.74661 1.27700
O 	O 	0.59363 0.71767 0.64907 -0.30300
O 	O 	0.10513 0.04517 0.69387 -0.49700
W 	W 	0.13351 0.05875 0.80727 0.93200
O 	O 	0.18763 0.15087 0.78347 -0.45400
W 	W 	0.52003 0.26845 0.02976 1.00300
Yb	Yb	0.22841 0.34471 0.07954 1.40100
O 	O 	0.52760 0.10760 0.07660 -0.48100
C 	C 	0.05980 0.43730 0.02970 -0.22000
O 	O 	0.45220 0.33010 0.04370 -0.45500
O 	O 	0.48930 0.16970 0.11800 -0.45000
O 	O 	0.43030 0.15800 0.04600 -0.44800
O 	O 	0.55770 0.28910 0.15580 -0.43500
O 	O 	0.38880 0.22740 0.08800 -0.46500
O 	O 	0.14180 0.38750 0.05640 -0.52300
O 	O 	0.38590 0.38820 0.08240 -0.53700
O 	O 	0.91090 0.28520 0.95190 -0.50700
C 	C 	0.98280 0.36310 0.99100 -0.29100
N 	N 	0.00490 0.50870 0.99750 -0.12000
C 	C 	0.97030 0.43390 0.98700 0.10600
H 	H 	0.93070 0.42870 0.97270 -0.02800
C 	C 	0.03250 0.36740 0.01300 0.25700
H 	H 	0.04790 0.32000 0.01640 -0.03700
C 	C 	0.04470 0.51110 0.02220 0.14700
H 	H 	0.06730 0.56570 0.03280 -0.01400
C 	C 	0.95300 0.28300 0.97230 0.35600
O 	O 	0.13300 0.50440 0.07180 -0.31300
C 	C 	0.11640 0.44550 0.05380 0.40300
O 	O 	0.54920 0.28860 0.07250 -0.35100
W 	W 	0.43925 0.14845 0.08400 0.99400
W 	W 	0.47510 0.36064 0.07994 1.27800
O 	O 	0.94900 0.20930 0.98240 -0.35900
O 	O 	0.62150 0.39330 0.02720 -0.45100
W 	W 	0.60792 0.40810 0.14060 1.03400
O 	O 	0.51580 0.37010 0.11680 -0.45900
W 	W 	0.18670 0.60178 0.36309 1.01900
Yb	Yb	0.89508 0.67804 0.41288 1.36900
O 	O 	0.19427 0.44093 0.40993 -0.47400
C 	C 	0.72647 0.77063 0.36303 -0.18900
O 	O 	0.11887 0.66343 0.37703 -0.44500
O 	O 	0.15597 0.50303 0.45133 -0.44300
O 	O 	0.09697 0.49133 0.37933 -0.42900
O 	O 	0.22437 0.62243 0.48913 -0.43300
O 	O 	0.05547 0.56073 0.42133 -0.44400
O 	O 	0.80847 0.72083 0.38973 -0.53700
O 	O 	0.05257 0.72153 0.41573 -0.50100
O 	O 	0.57757 0.61853 0.28523 -0.47600
C 	C 	0.64947 0.69643 0.32433 -0.20100
N 	N 	0.67157 0.84203 0.33083 -0.16500
C 	C 	0.63697 0.76723 0.32033 0.17200
H 	H 	0.59737 0.76203 0.30603 -0.02500
C 	C 	0.69917 0.70073 0.34633 0.13000
H 	H 	0.71457 0.65333 0.34973 -0.02100
C 	C 	0.71137 0.84443 0.35553 0.11000
H 	H 	0.73397 0.89903 0.36613 -0.00600
C 	C 	0.61967 0.61633 0.30563 0.34600
O 	O 	0.79967 0.83773 0.40513 -0.32300
C 	C 	0.78307 0.77883 0.38713 0.38300
O 	O 	0.21587 0.62193 0.40583 -0.35900
W 	W 	0.10592 0.48178 0.41733 1.04400
W 	W 	0.14177 0.69397 0.41327 1.28300
O 	O 	0.61567 0.54263 0.31573 -0.31500
O 	O 	0.28817 0.72663 0.36053 -0.45200
W 	W 	0.27459 0.74143 0.47394 1.04600
O 	O 	0.18247 0.70343 0.45013 -0.45000
W 	W 	0.85336 0.93512 0.69642 1.06500
Yb	Yb	0.56174 0.01138 0.74621 1.36100
O 	O 	0.86093 0.77427 0.74327 -0.46300
C 	C 	0.39313 0.10397 0.69637 -0.14600
O 	O 	0.78553 0.99677 0.71037 -0.39900
O 	O 	0.82263 0.83637 0.78467 -0.43100
O 	O 	0.76363 0.82467 0.71267 -0.44400
O 	O 	0.89103 0.95577 0.82247 -0.38500
O 	O 	0.72213 0.89407 0.75467 -0.42400
O 	O 	0.47513 0.05417 0.72307 -0.54700
O 	O 	0.71923 0.05487 0.74907 -0.54400
O 	O 	0.24423 0.95187 0.61857 -0.45600
C 	C 	0.31613 0.02977 0.65767 -0.22900
N 	N 	0.33823 0.17537 0.66417 -0.17000
C 	C 	0.30363 0.10057 0.65367 0.17900
H 	H 	0.26403 0.09537 0.63937 -0.04400
C 	C 	0.36583 0.03407 0.67967 -0.00100
H 	H 	0.38123 0.98667 0.68307 0.07700
C 	C 	0.37803 0.17777 0.68887 0.08900
H 	H 	0.40063 0.23237 0.69947 -0.00900
C 	C 	0.28633 0.94967 0.63897 0.39800
O 	O 	0.46633 0.17107 0.73847 -0.32900
C 	C 	0.44973 0.11217 0.72047 0.36200
O 	O 	0.88253 0.95527 0.73917 -0.33200
W 	W 	0.77258 0.81512 0.75066 1.01100
W 	W 	0.80843 0.02731 0.74661 1.15200
O 	O 	0.28233 0.87597 0.64907 -0.30000
O 	O 	0.95483 0.05997 0.69387 -0.54900
W 	W 	0.94125 0.07477 0.80727 0.83300
O 	O 	0.84913 0.03677 0.78347 -0.46000
W 	W 	0.73155 0.25158 0.02976 0.99300
Yb	Yb	0.65529 0.88370 0.07954 1.40200
O 	O 	0.89240 0.42000 0.07660 -0.48100
C 	C 	0.56270 0.62250 0.02970 -0.18700
O 	O 	0.66990 0.12210 0.04370 -0.47200
O 	O 	0.83030 0.31960 0.11800 -0.45000
O 	O 	0.84200 0.27230 0.04600 -0.45400
O 	O 	0.71090 0.26860 0.15580 -0.43400
O 	O 	0.77260 0.16140 0.08800 -0.47600
O 	O 	0.61250 0.75430 0.05640 -0.52600
O 	O 	0.61180 0.99770 0.08240 -0.48400
O 	O 	0.71480 0.62570 0.95190 -0.48500
C 	C 	0.63690 0.61970 0.99100 -0.20300
N 	N 	0.49130 0.49620 0.99750 -0.17200
C 	C 	0.56610 0.53640 0.98700 0.17500
H 	H 	0.57130 0.50200 0.97270 -0.03100
C 	C 	0.63260 0.66510 0.01300 0.12900
H 	H 	0.68000 0.72790 0.01640 -0.01600
C 	C 	0.48890 0.53360 0.02220 0.10800
H 	H 	0.43430 0.50160 0.03280 -0.01400
C 	C 	0.71700 0.67000 0.97230 0.34800
O 	O 	0.49560 0.62860 0.07180 -0.32200
C 	C 	0.55450 0.67090 0.05380 0.38300
O 	O 	0.71140 0.26060 0.07250 -0.34200
W 	W 	0.85155 0.29080 0.08400 0.98300
W 	W 	0.63936 0.11446 0.07994 1.21000
O 	O 	0.79070 0.73970 0.98240 -0.31800
O 	O 	0.60670 0.22820 0.02720 -0.45500
W 	W 	0.59190 0.19982 0.14060 1.02000
O 	O 	0.62990 0.14570 0.11680 -0.46200
W 	W 	0.39822 0.58491 0.36309 1.00900
Yb	Yb	0.32196 0.21703 0.41288 1.38500
O 	O 	0.55907 0.75333 0.40993 -0.47400
C 	C 	0.22937 0.95583 0.36303 -0.10300
O 	O 	0.33657 0.45543 0.37703 -0.45600
O 	O 	0.49697 0.65293 0.45133 -0.44800
O 	O 	0.50867 0.60563 0.37933 -0.44000
O 	O 	0.37757 0.60193 0.48913 -0.43600
O 	O 	0.43927 0.49473 0.42133 -0.46600
O 	O 	0.27917 0.08763 0.38973 -0.50700
O 	O 	0.27847 0.33103 0.41573 -0.53800
O 	O 	0.38147 0.95903 0.28523 -0.37800
C 	C 	0.30357 0.95303 0.32433 -0.10700
N 	N 	0.15797 0.82953 0.33083 -0.14700
C 	C 	0.23277 0.86973 0.32033 0.12300
H 	H 	0.23797 0.83533 0.30603 -0.00500
C 	C 	0.29927 0.99843 0.34633 0.17200
H 	H 	0.34667 0.06123 0.34973 -0.06900
C 	C 	0.15557 0.86693 0.35553 0.07800
H 	H 	0.10097 0.83493 0.36613 0.01300
C 	C 	0.38367 0.00333 0.30563 0.19700
O 	O 	0.16227 0.96193 0.40513 -0.22100
C 	C 	0.22117 0.00423 0.38713 0.22700
O 	O 	0.37807 0.59393 0.40583 -0.35500
W 	W 	0.51822 0.62413 0.41733 1.01900
W 	W 	0.30603 0.44779 0.41327 1.28000
O 	O 	0.45737 0.07303 0.31573 -0.30000
O 	O 	0.27337 0.56153 0.36053 -0.45200
W 	W 	0.25857 0.53315 0.47394 1.03900
O 	O 	0.29657 0.47903 0.45013 -0.46000
W 	W 	0.06488 0.91825 0.69642 1.14000
Yb	Yb	0.98862 0.55037 0.74621 1.35700
O 	O 	0.22573 0.08667 0.74327 -0.51600
C 	C 	0.89603 0.28917 0.69637 -0.14300
O 	O 	0.00323 0.78877 0.71037 -0.39900
O 	O 	0.16363 0.98627 0.78467 -0.39600
O 	O 	0.17533 0.93897 0.71267 -0.43200
O 	O 	0.04423 0.93527 0.82247 -0.34600
O 	O 	0.10593 0.82807 0.75467 -0.42800
O 	O 	0.94583 0.42097 0.72307 -0.54900
O 	O 	0.94513 0.66437 0.74907 -0.54300
O 	O 	0.04813 0.29237 0.61857 -0.46900
C 	C 	0.97023 0.28637 0.65767 -0.24100
N 	N 	0.82463 0.16287 0.66417 -0.18200
C 	C 	0.89943 0.20307 0.65367 0.18600
H 	H 	0.90463 0.16867 0.63937 -0.06200
C 	C 	0.96593 0.33177 0.67967 -0.01300
H 	H 	0.01333 0.39457 0.68307 0.08600
C 	C 	0.82223 0.20027 0.68887 0.08400
H 	H 	0.76763 0.16827 0.69947 -0.01500
C 	C 	0.05033 0.33667 0.63897 0.40800
O 	O 	0.82893 0.29527 0.73847 -0.33000
C 	C 	0.88783 0.33757 0.72047 0.36000
O 	O 	0.04473 0.92727 0.73917 -0.30100
W 	W 	0.18488 0.95747 0.75066 1.08300
W 	W 	0.97269 0.78113 0.74661 1.14300
O 	O 	0.12403 0.40637 0.64907 -0.30800
O 	O 	0.94003 0.89487 0.69387 -0.50100
W 	W 	0.92523 0.86649 0.80727 0.95800
O 	O 	0.96323 0.81237 0.78347 -0.46700
W 	W 	0.52003 0.25158 0.52976 0.99800
Yb	Yb	0.22841 0.88370 0.57954 1.41600
O 	O 	0.52760 0.42000 0.57660 -0.47400
C 	C 	0.05980 0.62250 0.52970 -0.21500
O 	O 	0.45220 0.12210 0.54370 -0.46800
O 	O 	0.48930 0.31960 0.61800 -0.44700
O 	O 	0.43030 0.27230 0.54600 -0.44000
O 	O 	0.55770 0.26860 0.65580 -0.43400
O 	O 	0.38880 0.16140 0.58800 -0.47100
O 	O 	0.14180 0.75430 0.55640 -0.51400
O 	O 	0.38590 0.99770 0.58240 -0.48200
O 	O 	0.91090 0.62570 0.45190 -0.49900
C 	C 	0.98280 0.61970 0.49100 -0.28500
N 	N 	0.00490 0.49620 0.49750 -0.12000
C 	C 	0.97030 0.53640 0.48700 0.10300
H 	H 	0.93070 0.50200 0.47270 -0.02700
C 	C 	0.03250 0.66510 0.51300 0.25200
H 	H 	0.04790 0.72790 0.51640 -0.02700
C 	C 	0.04470 0.53360 0.52220 0.14600
H 	H 	0.06730 0.50160 0.53280 -0.01500
C 	C 	0.95300 0.67000 0.47230 0.35400
O 	O 	0.13300 0.62860 0.57180 -0.31200
C 	C 	0.11640 0.67090 0.55380 0.40100
O 	O 	0.54920 0.26060 0.57250 -0.34600
W 	W 	0.43925 0.29080 0.58400 1.01800
W 	W 	0.47510 0.11446 0.57994 1.21100
O 	O 	0.94900 0.73970 0.48240 -0.33400
O 	O 	0.62150 0.22820 0.52720 -0.45500
W 	W 	0.60792 0.19982 0.64060 1.01900
O 	O 	0.51580 0.14570 0.61680 -0.46300
W 	W 	0.18670 0.58491 0.86309 1.01900
Yb	Yb	0.89508 0.21703 0.91288 1.35500
O 	O 	0.19427 0.75333 0.90993 -0.47300
C 	C 	0.72647 0.95583 0.86303 -0.11300
O 	O 	0.11887 0.45543 0.87703 -0.44500
O 	O 	0.15597 0.65293 0.95133 -0.44200
O 	O 	0.09697 0.60563 0.87933 -0.42900
O 	O 	0.22437 0.60193 0.98913 -0.43300
O 	O 	0.05547 0.49473 0.92133 -0.44400
O 	O 	0.80847 0.08763 0.88973 -0.52100
O 	O 	0.05257 0.33103 0.91573 -0.50500
O 	O 	0.57757 0.95903 0.78523 -0.37900
C 	C 	0.64947 0.95303 0.82433 -0.11300
N 	N 	0.67157 0.82953 0.83083 -0.15600
C 	C 	0.63697 0.86973 0.82033 0.12800
H 	H 	0.59737 0.83533 0.80603 -0.00900
C 	C 	0.69917 0.99843 0.84633 0.17900
H 	H 	0.71457 0.06123 0.84973 -0.07400
C 	C 	0.71137 0.86693 0.85553 0.08000
H 	H 	0.73397 0.83493 0.86613 -0.00400
C 	C 	0.61967 0.00333 0.80563 0.19800
O 	O 	0.79967 0.96193 0.90513 -0.25000
C 	C 	0.78307 0.00423 0.88713 0.22900
O 	O 	0.21587 0.59393 0.90583 -0.35800
W 	W 	0.10592 0.62413 0.91733 1.04700
W 	W 	0.14177 0.44779 0.91327 1.28200
O 	O 	0.61567 0.07303 0.81573 -0.30300
O 	O 	0.28817 0.56153 0.86053 -0.45200
W 	W 	0.27459 0.53315 0.97394 1.03900
O 	O 	0.18247 0.47903 0.95013 -0.45100
W 	W 	0.85336 0.91825 0.19642 1.07200
Yb	Yb	0.56174 0.55037 0.24621 1.39600
O 	O 	0.86093 0.08667 0.24327 -0.50400
C 	C 	0.39313 0.28917 0.19637 -0.18700
O 	O 	0.78553 0.78877 0.21037 -0.46300
O 	O 	0.82263 0.98627 0.28467 -0.39300
O 	O 	0.76363 0.93897 0.21267 -0.42500
O 	O 	0.89103 0.93527 0.32247 -0.39200
O 	O 	0.72213 0.82807 0.25467 -0.46900
O 	O 	0.47513 0.42097 0.22307 -0.52700
O 	O 	0.71923 0.66437 0.24907 -0.53900
O 	O 	0.24423 0.29237 0.11857 -0.47400
C 	C 	0.31613 0.28637 0.15767 -0.20200
N 	N 	0.33823 0.16287 0.16417 -0.18100
C 	C 	0.30363 0.20307 0.15367 0.17400
H 	H 	0.26403 0.16867 0.13937 -0.03500
C 	C 	0.36583 0.33177 0.17967 0.12900
H 	H 	0.38123 0.39457 0.18307 -0.01400
C 	C 	0.37803 0.20027 0.18887 0.10500
H 	H 	0.40063 0.16827 0.19947 -0.02100
C 	C 	0.28633 0.33667 0.13897 0.34600
O 	O 	0.46633 0.29527 0.23847 -0.32600
C 	C 	0.44973 0.33757 0.22047 0.38300
O 	O 	0.88253 0.92727 0.23917 -0.36100
W 	W 	0.77258 0.95747 0.25066 1.07500
W 	W 	0.80843 0.78113 0.24661 1.27700
O 	O 	0.28233 0.40637 0.14907 -0.30200
O 	O 	0.95483 0.89487 0.19387 -0.50300
W 	W 	0.94125 0.86649 0.30727 0.91800
O 	O 	0.84913 0.81237 0.28347 -0.45300
W 	W 	0.73155 0.47997 0.52976 1.00300
Yb	Yb	0.65529 0.77159 0.57954 1.39900
O 	O 	0.89240 0.47240 0.57660 -0.48200
C 	C 	0.56270 0.94020 0.52970 -0.21800
O 	O 	0.66990 0.54780 0.54370 -0.45500
O 	O 	0.83030 0.51070 0.61800 -0.45000
O 	O 	0.84200 0.56970 0.54600 -0.44900
O 	O 	0.71090 0.44230 0.65580 -0.43500
O 	O 	0.77260 0.61120 0.58800 -0.46500
O 	O 	0.61250 0.85820 0.55640 -0.52400
O 	O 	0.61180 0.61410 0.58240 -0.53700
O 	O 	0.71480 0.08910 0.45190 -0.50500
C 	C 	0.63690 0.01720 0.49100 -0.28400
N 	N 	0.49130 0.99510 0.49750 -0.12600
C 	C 	0.56610 0.02970 0.48700 0.11500
H 	H 	0.57130 0.06930 0.47270 -0.02800
C 	C 	0.63260 0.96750 0.51300 0.24500
H 	H 	0.68000 0.95210 0.51640 -0.03600
C 	C 	0.48890 0.95530 0.52220 0.14400
H 	H 	0.43430 0.93270 0.53280 -0.01400
C 	C 	0.71700 0.04700 0.47230 0.35600
O 	O 	0.49560 0.86700 0.57180 -0.31500
C 	C 	0.55450 0.88360 0.55380 0.40200
O 	O 	0.71140 0.45080 0.57250 -0.35000
W 	W 	0.85155 0.56075 0.58400 0.99100
W 	W 	0.63936 0.52490 0.57994 1.27800
O 	O 	0.79070 0.05100 0.48240 -0.35700
O 	O 	0.60670 0.37850 0.52720 -0.45100
W 	W 	0.59190 0.39208 0.64060 1.03400
O 	O 	0.62990 0.48420 0.61680 -0.45900
W 	W 	0.39822 0.81330 0.86309 1.01800
Yb	Yb	0.32196 0.10492 0.91288 1.37200
O 	O 	0.55907 0.80573 0.90993 -0.47400
C 	C 	0.22937 0.27353 0.86303 -0.18800
O 	O 	0.33657 0.88113 0.87703 -0.44600
O 	O 	0.49697 0.84403 0.95133 -0.44400
O 	O 	0.50867 0.90303 0.87933 -0.43000
O 	O 	0.37757 0.77563 0.98913 -0.43400
O 	O 	0.43927 0.94453 0.92133 -0.44700
O 	O 	0.27917 0.19153 0.88973 -0.53600
O 	O 	0.27847 0.94743 0.91573 -0.50400
O 	O 	0.38147 0.42243 0.78523 -0.47600
C 	C 	0.30357 0.35053 0.82433 -0.20100
N 	N 	0.15797 0.32843 0.83083 -0.16400
C 	C 	0.23277 0.36303 0.82033 0.17200
H 	H 	0.23797 0.40263 0.80603 -0.02500
C 	C 	0.29927 0.30083 0.84633 0.12900
H 	H 	0.34667 0.28543 0.84973 -0.02000
C 	C 	0.15557 0.28863 0.85553 0.10900
H 	H 	0.10097 0.26603 0.86613 -0.00400
C 	C 	0.38367 0.38033 0.80563 0.34600
O 	O 	0.16227 0.20033 0.90513 -0.32000
C 	C 	0.22117 0.21693 0.88713 0.38200
O 	O 	0.37807 0.78413 0.90583 -0.35800
W 	W 	0.51822 0.89408 0.91733 1.04100
W 	W 	0.30603 0.85823 0.91327 1.28300
O 	O 	0.45737 0.38433 0.81573 -0.31500
O 	O 	0.27337 0.71183 0.86053 -0.45300
W 	W 	0.25857 0.72541 0.97394 1.04600
O 	O 	0.29657 0.81753 0.95013 -0.45100
W 	W 	0.06488 0.14664 0.19642 1.07200
Yb	Yb	0.98862 0.43826 0.24621 1.35700
O 	O 	0.22573 0.13907 0.24327 -0.46500
C 	C 	0.89603 0.60687 0.19637 -0.14200
O 	O 	0.00323 0.21447 0.21037 -0.39200
O 	O 	0.16363 0.17737 0.28467 -0.43100
O 	O 	0.17533 0.23637 0.21267 -0.44500
O 	O 	0.04423 0.10897 0.32247 -0.38000
O 	O 	0.10593 0.27787 0.25467 -0.42000
O 	O 	0.94583 0.52487 0.22307 -0.54900
O 	O 	0.94513 0.28077 0.24907 -0.54400
O 	O 	0.04813 0.75577 0.11857 -0.45500
C 	C 	0.97023 0.68387 0.15767 -0.23300
N 	N 	0.82463 0.66177 0.16417 -0.17100
C 	C 	0.89943 0.69637 0.15367 0.18000
H 	H 	0.90463 0.73597 0.13937 -0.04700
C 	C 	0.96593 0.63417 0.17967 -0.01600
H 	H 	0.01333 0.61877 0.18307 0.08800
C 	C 	0.82223 0.62197 0.18887 0.08700
H 	H 	0.76763 0.59937 0.19947 -0.00900
C 	C 	0.05033 0.71367 0.13897 0.40500
O 	O 	0.82893 0.53367 0.23847 -0.32900
C 	C 	0.88783 0.55027 0.22047 0.35900
O 	O 	0.04473 0.11747 0.23917 -0.32600
W 	W 	0.18488 0.22742 0.25066 1.01200
W 	W 	0.97269 0.19157 0.24661 1.13800
O 	O 	0.12403 0.71767 0.14907 -0.30100
O 	O 	0.94003 0.04517 0.19387 -0.54900
W 	W 	0.92523 0.05875 0.30727 0.83800
O 	O 	0.96323 0.15087 0.28347 -0.46200
W 	W 	0.74842 0.26845 0.52976 0.99300
Yb	Yb	0.11630 0.34471 0.57954 1.40400
O 	O 	0.58000 0.10760 0.57660 -0.48100
C 	C 	0.37750 0.43730 0.52970 -0.18700
O 	O 	0.87790 0.33010 0.54370 -0.47400
O 	O 	0.68040 0.16970 0.61800 -0.45000
O 	O 	0.72770 0.15800 0.54600 -0.45300
O 	O 	0.73140 0.28910 0.65580 -0.43400
O 	O 	0.83860 0.22740 0.58800 -0.47700
O 	O 	0.24570 0.38750 0.55640 -0.52400
O 	O 	0.00230 0.38820 0.58240 -0.47700
O 	O 	0.37430 0.28520 0.45190 -0.48400
C 	C 	0.38030 0.36310 0.49100 -0.20400
N 	N 	0.50380 0.50870 0.49750 -0.17300
C 	C 	0.46360 0.43390 0.48700 0.17500
H 	H 	0.49800 0.42870 0.47270 -0.03200
C 	C 	0.33490 0.36740 0.51300 0.13000
H 	H 	0.27210 0.32000 0.51640 -0.01500
C 	C 	0.46640 0.51110 0.52220 0.10900
H 	H 	0.49840 0.56570 0.53280 -0.01500
C 	C 	0.33000 0.28300 0.47230 0.34800
O 	O 	0.37140 0.50440 0.57180 -0.32200
C 	C 	0.32910 0.44550 0.55380 0.38300
O 	O 	0.73940 0.28860 0.57250 -0.34100
W 	W 	0.70920 0.14845 0.58400 0.98600
W 	W 	0.88554 0.36064 0.57994 1.20200
O 	O 	0.26030 0.20930 0.48240 -0.31500
O 	O 	0.77180 0.39330 0.52720 -0.45600
W 	W 	0.80018 0.40810 0.64060 1.01800
O 	O 	0.85430 0.37010 0.61680 -0.46300
W 	W 	0.41509 0.60178 0.86309 1.00900
Yb	Yb	0.78297 0.67804 0.91288 1.38400
O 	O 	0.24667 0.44093 0.90993 -0.47400
C 	C 	0.04417 0.77063 0.86303 -0.09400
O 	O 	0.54457 0.66343 0.87703 -0.45600
O 	O 	0.34707 0.50303 0.95133 -0.44700
O 	O 	0.39437 0.49133 0.87933 -0.44000
O 	O 	0.39807 0.62243 0.98913 -0.43600
O 	O 	0.50527 0.56073 0.92133 -0.46600
O 	O 	0.91237 0.72083 0.88973 -0.50500
O 	O 	0.66897 0.72153 0.91573 -0.53900
O 	O 	0.04097 0.61853 0.78523 -0.36700
C 	C 	0.04697 0.69643 0.82433 -0.09700
N 	N 	0.17047 0.84203 0.83083 -0.14600
C 	C 	0.13027 0.76723 0.82033 0.11800
H 	H 	0.16467 0.76203 0.80603 -0.00300
C 	C 	0.00157 0.70073 0.84633 0.17700
H 	H 	0.93877 0.65333 0.84973 -0.07500
C 	C 	0.13307 0.84443 0.85553 0.07400
H 	H 	0.16507 0.89903 0.86613 0.01300
C 	C 	0.99667 0.61633 0.80563 0.17900
O 	O 	0.03807 0.83773 0.90513 -0.21200
C 	C 	0.99577 0.77883 0.88713 0.20900
O 	O 	0.40607 0.62193 0.90583 -0.35500
W 	W 	0.37587 0.48178 0.91733 1.01900
W 	W 	0.55221 0.69397 0.91327 1.27900
O 	O 	0.92697 0.54263 0.81573 -0.29900
O 	O 	0.43847 0.72663 0.86053 -0.45200
W 	W 	0.46685 0.74143 0.97394 1.03900
O 	O 	0.52097 0.70343 0.95013 -0.46000
W 	W 	0.08175 0.93512 0.19642 1.14100
Yb	Yb	0.44963 0.01138 0.24621 1.36200
O 	O 	0.91333 0.77427 0.24327 -0.52100
C 	C 	0.71083 0.10397 0.19637 -0.14800
O 	O 	0.21123 0.99677 0.21037 -0.40700
O 	O 	0.01373 0.83637 0.28467 -0.39200
O 	O 	0.06103 0.82467 0.21267 -0.42900
O 	O 	0.06473 0.95577 0.32247 -0.34700
O 	O 	0.17193 0.89407 0.25467 -0.43400
O 	O 	0.57903 0.05417 0.22307 -0.54700
O 	O 	0.33563 0.05487 0.24907 -0.54200
O 	O 	0.70763 0.95187 0.11857 -0.47100
C 	C 	0.71363 0.02977 0.15767 -0.23800
N 	N 	0.83713 0.17537 0.16417 -0.18400
C 	C 	0.79693 0.10057 0.15367 0.18600
H 	H 	0.83133 0.09537 0.13937 -0.06100
C 	C 	0.66823 0.03407 0.17967 0.00200
H 	H 	0.60543 0.98667 0.18307 0.07600
C 	C 	0.79973 0.17777 0.18887 0.08600
H 	H 	0.83173 0.23237 0.19947 -0.01600
C 	C 	0.66333 0.94967 0.13897 0.40200
O 	O 	0.70473 0.17107 0.23847 -0.32900
C 	C 	0.66243 0.11217 0.22047 0.36200
O 	O 	0.07273 0.95527 0.23917 -0.30400
W 	W 	0.04253 0.81512 0.25066 1.09000
W 	W 	0.21887 0.02731 0.24661 1.15800
O 	O 	0.59363 0.87597 0.14907 -0.30800
O 	O 	0.10513 0.05997 0.19387 -0.49600
W 	W 	0.13351 0.07477 0.30727 0.96800
O 	O 	0.18763 0.03677 0.28347 -0.46600
O 	O 	0.66667 0.33333 0.11600 -0.28800
O 	O 	0.33333 0.66667 0.44933 -0.29400
O 	O 	-0.00000 0.00000 0.78267 -0.26900
O 	O 	0.66667 0.33333 0.61600 -0.28800
O 	O 	0.33333 0.66667 0.94933 -0.29400
O 	O 	0.00000 0.00000 0.28267 -0.26900
