data_crystal

_cell_length_a 9.63100
_cell_length_b 12.21200
_cell_length_c 12.21200
_cell_angle_alpha 95.49930
_cell_angle_beta  94.50590
_cell_angle_gamma 94.50590

_symmetry_space_group_name_	'P 1'
_symmetry_space_group_name_H-M	'P 1'

loop_
_symmetry_equiv_pos_as_xyz
  x,y,z

loop_
_atom_site_label
_atom_site_type_symbol
_atom_site_fract_x
_atom_site_fract_y
_atom_site_fract_z
_atom_site_charge
Tb	Tb	0.46764 0.26374 0.23695 1.78400
Tb	Tb	0.03236 0.76305 0.73626 1.76700
Tb	Tb	0.53236 0.73626 0.76305 1.78300
Tb	Tb	0.96764 0.23695 0.26374 1.76600
H 	H 	0.38700 0.04670 0.53910 0.07900
H 	H 	0.61420 0.43320 0.49480 0.09900
H 	H 	0.60790 0.01080 0.95060 0.10400
H 	H 	0.11300 0.46090 0.95330 0.07700
H 	H 	0.88580 0.50520 0.56680 0.10000
H 	H 	0.89210 0.04940 0.98920 0.11100
H 	H 	0.61300 0.95330 0.46090 0.07900
H 	H 	0.38580 0.56680 0.50520 0.09900
H 	H 	0.39210 0.98920 0.04940 0.10400
H 	H 	0.88700 0.53910 0.04670 0.07700
H 	H 	0.11420 0.49480 0.43320 0.10000
H 	H 	0.10790 0.95060 0.01080 0.11100
C 	C 	0.46670 0.11250 0.40250 0.33200
C 	C 	0.45750 0.03830 0.49190 -0.12800
C 	C 	0.76970 0.35650 0.41250 0.43800
C 	C 	0.71090 0.43470 0.49410 -0.16000
C 	C 	0.68390 0.13470 0.07790 0.50100
C 	C 	0.69100 0.04520 0.98640 -0.16500
C 	C 	0.03330 0.59750 0.88750 0.32000
C 	C 	0.04250 0.50810 0.96170 -0.12800
C 	C 	0.73030 0.58750 0.64350 0.43800
C 	C 	0.78910 0.50590 0.56530 -0.15900
C 	C 	0.81610 0.92210 0.86530 0.51300
C 	C 	0.80900 0.01360 0.95480 -0.18400
C 	C 	0.53330 0.88750 0.59750 0.33200
C 	C 	0.54250 0.96170 0.50810 -0.12800
C 	C 	0.23030 0.64350 0.58750 0.43800
C 	C 	0.28910 0.56530 0.50590 -0.16000
C 	C 	0.31610 0.86530 0.92210 0.50100
C 	C 	0.30900 0.95480 0.01360 -0.16500
C 	C 	0.96670 0.40250 0.11250 0.32000
C 	C 	0.95750 0.49190 0.03830 -0.12800
C 	C 	0.26970 0.41250 0.35650 0.43800
C 	C 	0.21090 0.49410 0.43470 -0.15900
C 	C 	0.18390 0.07790 0.13470 0.51300
C 	C 	0.19100 0.98640 0.04520 -0.18400
O 	O 	0.39770 0.19570 0.40850 -0.41200
O 	O 	0.54140 0.09242 0.32458 -0.38200
O 	O 	0.68610 0.30279 0.33857 -0.53500
O 	O 	0.89840 0.34557 0.41977 -0.48500
O 	O 	0.56430 0.16332 0.09432 -0.52300
O 	O 	0.79160 0.17630 0.13090 -0.54300
O 	O 	0.10230 0.59150 0.80430 -0.40900
O 	O 	0.95860 0.67542 0.90758 -0.37000
O 	O 	0.81390 0.66143 0.69721 -0.53100
O 	O 	0.60160 0.58023 0.65443 -0.48500
O 	O 	0.93570 0.90568 0.83668 -0.51900
O 	O 	0.70840 0.86910 0.82370 -0.54400
O 	O 	0.60230 0.80430 0.59150 -0.41200
O 	O 	0.45860 0.90758 0.67542 -0.38200
O 	O 	0.31390 0.69721 0.66143 -0.53500
O 	O 	0.10160 0.65443 0.58023 -0.48500
O 	O 	0.43570 0.83668 0.90568 -0.52300
O 	O 	0.20840 0.82370 0.86910 -0.54300
O 	O 	0.89770 0.40850 0.19570 -0.40900
O 	O 	0.04140 0.32458 0.09242 -0.37000
O 	O 	0.18610 0.33857 0.30279 -0.53100
O 	O 	0.39840 0.41977 0.34557 -0.48500
O 	O 	0.06430 0.09432 0.16332 -0.51900
O 	O 	0.29160 0.13090 0.17630 -0.54400
