data_crystal

_cell_length_a 9.65500
_cell_length_b 9.34400
_cell_length_c 30.96500
_cell_angle_alpha 90.00000
_cell_angle_beta  93.85900
_cell_angle_gamma 90.00000

_symmetry_space_group_name_	'P 1'
_symmetry_space_group_name_H-M	'P 1'

loop_
_symmetry_equiv_pos_as_xyz
  x,y,z

loop_
_atom_site_label
_atom_site_type_symbol
_atom_site_fract_x
_atom_site_fract_y
_atom_site_fract_z
_atom_site_charge
Zn	Zn	0.53047 0.28510 0.14095 1.22800
Zn	Zn	0.70144 0.54825 0.03817 1.21100
Zn	Zn	0.44079 0.31141 0.30764 1.22600
P 	P 	0.46114 0.12142 0.22151 0.41300
P 	P 	0.74526 0.07250 0.18290 0.41300
P 	P 	0.41330 0.37673 0.05168 0.40700
P 	P 	0.51896 0.61306 0.11199 0.42300
O 	O 	0.40840 0.21570 0.18378 -0.43400
O 	O 	0.40150 0.16910 0.26313 -0.43400
O 	O 	0.43170 0.96160 0.21295 -0.42800
O 	O 	0.67570 0.14360 0.14249 -0.43500
O 	O 	0.72820 0.91010 0.18154 -0.42700
O 	O 	0.89570 0.11490 0.19106 -0.22600
O 	O 	0.69040 0.28780 0.22954 -0.37700
H 	H 	0.64850 0.33040 0.24780 0.22800
O 	O 	0.41330 0.26230 0.08650 -0.40500
O 	O 	0.55650 0.39570 0.03404 -0.46800
O 	O 	0.30210 0.34730 0.01562 -0.42200
O 	O 	0.46720 0.73570 0.13919 -0.41600
O 	O 	0.57190 0.48780 0.13949 -0.48000
O 	O 	0.62580 0.66880 0.08224 -0.43100
O 	O 	0.32580 0.65400 0.04550 -0.32500
H 	H 	0.36180 0.63610 0.02290 0.18500
N 	N 	0.03670 0.88820 0.29854 -0.21000
H 	H 	0.06950 0.80270 0.29960 0.17500
N 	N 	0.88060 0.45270 0.05946 -0.24600
C 	C 	0.65180 0.13950 0.22925 -0.05300
C 	C 	0.69360 0.06180 0.27236 -0.13600
H 	H 	0.65370 0.11420 0.29550 0.04700
H 	H 	0.65090 0.96780 0.27120 0.04800
C 	C 	0.84550 0.04280 0.28431 0.02700
C 	C 	0.93250 0.15650 0.29615 -0.01700
H 	H 	0.89730 0.24920 0.29560 0.06100
C 	C 	0.07040 0.13390 0.30880 -0.11300
H 	H 	0.12810 0.21040 0.31690 0.08300
C 	C 	0.12070 0.99740 0.30930 0.11000
H 	H 	0.21400 0.98050 0.31710 0.00500
C 	C 	0.90310 0.90790 0.28619 0.03200
H 	H 	0.84780 0.82900 0.27870 0.04000
C 	C 	0.36760 0.54740 0.07770 -0.02500
C 	C 	0.24500 0.53190 0.10713 -0.17000
H 	H 	0.28080 0.48590 0.13370 0.06500
H 	H 	0.21680 0.62760 0.11480 0.10600
C 	C 	0.11490 0.45160 0.09123 0.07000
C 	C 	0.09620 0.30950 0.10302 -0.07200
H 	H 	0.16770 0.26090 0.11840 0.07600
C 	C 	0.97270 0.23990 0.09220 -0.03600
H 	H 	0.96100 0.14420 0.09930 0.06800
C 	C 	0.86690 0.31570 0.07050 0.01800
H 	H 	0.78300 0.26970 0.06340 0.00700
C 	C 	0.00350 0.51840 0.06961 -0.02600
H 	H 	0.01320 0.61360 0.06160 0.03200
Zn	Zn	0.46953 0.78510 0.35905 1.22900
Zn	Zn	0.29856 0.04825 0.46183 1.21200
Zn	Zn	0.55921 0.81141 0.19236 1.22800
P 	P 	0.53886 0.62142 0.27849 0.41700
P 	P 	0.25474 0.57250 0.31710 0.41500
P 	P 	0.58670 0.87673 0.44832 0.40800
P 	P 	0.48104 0.11306 0.38801 0.42100
O 	O 	0.59160 0.71570 0.31622 -0.43300
O 	O 	0.59850 0.66910 0.23687 -0.43400
O 	O 	0.56830 0.46160 0.28705 -0.43000
O 	O 	0.32430 0.64360 0.35751 -0.43500
O 	O 	0.27180 0.41010 0.31846 -0.42900
O 	O 	0.10430 0.61490 0.30894 -0.22600
O 	O 	0.30960 0.78780 0.27046 -0.37600
H 	H 	0.35150 0.83040 0.25220 0.22800
O 	O 	0.58670 0.76230 0.41350 -0.40400
O 	O 	0.44350 0.89570 0.46596 -0.46800
O 	O 	0.69790 0.84730 0.48438 -0.42200
O 	O 	0.53280 0.23570 0.36081 -0.41600
O 	O 	0.42810 0.98780 0.36051 -0.47800
O 	O 	0.37420 0.16880 0.41776 -0.43200
O 	O 	0.67420 0.15400 0.45450 -0.32500
H 	H 	0.63820 0.13610 0.47710 0.18500
N 	N 	0.96330 0.38820 0.20146 -0.20800
H 	H 	0.93050 0.30270 0.20040 0.17400
N 	N 	0.11940 0.95270 0.44054 -0.24400
C 	C 	0.34820 0.63950 0.27075 -0.05300
C 	C 	0.30640 0.56180 0.22764 -0.13400
H 	H 	0.34630 0.61420 0.20450 0.04700
H 	H 	0.34910 0.46780 0.22880 0.04600
C 	C 	0.15450 0.54280 0.21569 0.03300
C 	C 	0.06750 0.65650 0.20385 -0.02700
H 	H 	0.10270 0.74920 0.20440 0.06500
C 	C 	0.92960 0.63390 0.19120 -0.09600
H 	H 	0.87190 0.71040 0.18310 0.07800
C 	C 	0.87930 0.49740 0.19070 0.09600
H 	H 	0.78600 0.48050 0.18290 0.00900
C 	C 	0.09690 0.40790 0.21381 0.02900
H 	H 	0.15220 0.32900 0.22130 0.04100
C 	C 	0.63240 0.04740 0.42230 -0.02400
C 	C 	0.75500 0.03190 0.39287 -0.17300
H 	H 	0.71920 0.98590 0.36630 0.06700
H 	H 	0.78320 0.12760 0.38520 0.10600
C 	C 	0.88510 0.95160 0.40877 0.07100
C 	C 	0.90380 0.80950 0.39698 -0.07400
H 	H 	0.83230 0.76090 0.38160 0.07700
C 	C 	0.02730 0.73990 0.40780 -0.03300
H 	H 	0.03900 0.64420 0.40070 0.06700
C 	C 	0.13310 0.81570 0.42950 0.01700
H 	H 	0.21700 0.76970 0.43660 0.00700
C 	C 	0.99650 0.01840 0.43039 -0.02600
H 	H 	0.98680 0.11360 0.43840 0.03200
Zn	Zn	0.46953 0.71490 0.85904 1.22900
Zn	Zn	0.29856 0.45175 0.96183 1.21200
Zn	Zn	0.55921 0.68859 0.69236 1.22700
P 	P 	0.53886 0.87858 0.77849 0.41400
P 	P 	0.25474 0.92750 0.81710 0.41400
P 	P 	0.58670 0.62327 0.94832 0.40800
P 	P 	0.48104 0.38694 0.88801 0.42300
O 	O 	0.59160 0.78430 0.81622 -0.43400
O 	O 	0.59850 0.83090 0.73687 -0.43400
O 	O 	0.56830 0.03840 0.78705 -0.42800
O 	O 	0.32430 0.85640 0.85751 -0.43500
O 	O 	0.27180 0.08990 0.81846 -0.42700
O 	O 	0.10430 0.88510 0.80894 -0.22600
O 	O 	0.30960 0.71220 0.77046 -0.37700
H 	H 	0.35150 0.66960 0.75220 0.22800
O 	O 	0.58670 0.73770 0.91350 -0.40500
O 	O 	0.44350 0.60430 0.96596 -0.46800
O 	O 	0.69790 0.65270 0.98438 -0.42200
O 	O 	0.53280 0.26430 0.86081 -0.41600
O 	O 	0.42810 0.51220 0.86051 -0.48000
O 	O 	0.37420 0.33120 0.91776 -0.43100
O 	O 	0.67420 0.34600 0.95450 -0.32500
H 	H 	0.63820 0.36390 0.97710 0.18500
N 	N 	0.96330 0.11180 0.70146 -0.21000
H 	H 	0.93050 0.19730 0.70040 0.17500
N 	N 	0.11940 0.54730 0.94054 -0.24600
C 	C 	0.34820 0.86050 0.77075 -0.05300
C 	C 	0.30640 0.93820 0.72764 -0.13600
H 	H 	0.34630 0.88580 0.70450 0.04700
H 	H 	0.34910 0.03220 0.72880 0.04800
C 	C 	0.15450 0.95720 0.71569 0.02700
C 	C 	0.06750 0.84350 0.70385 -0.01700
H 	H 	0.10270 0.75080 0.70440 0.06100
C 	C 	0.92960 0.86610 0.69120 -0.11300
H 	H 	0.87190 0.78960 0.68310 0.08300
C 	C 	0.87930 0.00260 0.69070 0.11000
H 	H 	0.78600 0.01950 0.68290 0.00500
C 	C 	0.09690 0.09210 0.71381 0.03200
H 	H 	0.15220 0.17100 0.72130 0.04000
C 	C 	0.63240 0.45260 0.92230 -0.02500
C 	C 	0.75500 0.46810 0.89287 -0.17000
H 	H 	0.71920 0.51410 0.86630 0.06500
H 	H 	0.78320 0.37240 0.88520 0.10600
C 	C 	0.88510 0.54840 0.90877 0.07000
C 	C 	0.90380 0.69050 0.89698 -0.07200
H 	H 	0.83230 0.73910 0.88160 0.07600
C 	C 	0.02730 0.76010 0.90780 -0.03600
H 	H 	0.03900 0.85580 0.90070 0.06800
C 	C 	0.13310 0.68430 0.92950 0.01800
H 	H 	0.21700 0.73030 0.93660 0.00700
C 	C 	0.99650 0.48160 0.93039 -0.02600
H 	H 	0.98680 0.38640 0.93840 0.03200
Zn	Zn	0.53047 0.21490 0.64096 1.22900
Zn	Zn	0.70144 0.95175 0.53817 1.21200
Zn	Zn	0.44079 0.18859 0.80764 1.22800
P 	P 	0.46114 0.37858 0.72151 0.41700
P 	P 	0.74526 0.42750 0.68290 0.41500
P 	P 	0.41330 0.12327 0.55168 0.40800
P 	P 	0.51896 0.88694 0.61199 0.42100
O 	O 	0.40840 0.28430 0.68378 -0.43300
O 	O 	0.40150 0.33090 0.76313 -0.43400
O 	O 	0.43170 0.53840 0.71295 -0.43000
O 	O 	0.67570 0.35640 0.64249 -0.43500
O 	O 	0.72820 0.58990 0.68154 -0.42900
O 	O 	0.89570 0.38510 0.69106 -0.22600
O 	O 	0.69040 0.21220 0.72954 -0.37600
H 	H 	0.64850 0.16960 0.74780 0.22800
O 	O 	0.41330 0.23770 0.58650 -0.40400
O 	O 	0.55650 0.10430 0.53404 -0.46800
O 	O 	0.30210 0.15270 0.51562 -0.42200
O 	O 	0.46720 0.76430 0.63919 -0.41600
O 	O 	0.57190 0.01220 0.63949 -0.47800
O 	O 	0.62580 0.83120 0.58224 -0.43200
O 	O 	0.32580 0.84600 0.54550 -0.32500
H 	H 	0.36180 0.86390 0.52290 0.18500
N 	N 	0.03670 0.61180 0.79854 -0.20800
H 	H 	0.06950 0.69730 0.79960 0.17400
N 	N 	0.88060 0.04730 0.55946 -0.24400
C 	C 	0.65180 0.36050 0.72925 -0.05300
C 	C 	0.69360 0.43820 0.77236 -0.13400
H 	H 	0.65370 0.38580 0.79550 0.04700
H 	H 	0.65090 0.53220 0.77120 0.04600
C 	C 	0.84550 0.45720 0.78431 0.03300
C 	C 	0.93250 0.34350 0.79615 -0.02700
H 	H 	0.89730 0.25080 0.79560 0.06500
C 	C 	0.07040 0.36610 0.80880 -0.09600
H 	H 	0.12810 0.28960 0.81690 0.07800
C 	C 	0.12070 0.50260 0.80930 0.09600
H 	H 	0.21400 0.51950 0.81710 0.00900
C 	C 	0.90310 0.59210 0.78619 0.02900
H 	H 	0.84780 0.67100 0.77870 0.04100
C 	C 	0.36760 0.95260 0.57770 -0.02400
C 	C 	0.24500 0.96810 0.60713 -0.17300
H 	H 	0.28080 0.01410 0.63370 0.06700
H 	H 	0.21680 0.87240 0.61480 0.10600
C 	C 	0.11490 0.04840 0.59123 0.07100
C 	C 	0.09620 0.19050 0.60302 -0.07400
H 	H 	0.16770 0.23910 0.61840 0.07700
C 	C 	0.97270 0.26010 0.59220 -0.03300
H 	H 	0.96100 0.35580 0.59930 0.06700
C 	C 	0.86690 0.18430 0.57050 0.01700
H 	H 	0.78300 0.23030 0.56340 0.00700
C 	C 	0.00350 0.98160 0.56961 -0.02600
H 	H 	0.01320 0.88640 0.56160 0.03200
