data_crystal

_cell_length_a 6.86040
_cell_length_b 9.99250
_cell_length_c 10.88410
_cell_angle_alpha 90.00000
_cell_angle_beta  90.00000
_cell_angle_gamma 90.00000

_symmetry_space_group_name_	'P 1'
_symmetry_space_group_name_H-M	'P 1'

loop_
_symmetry_equiv_pos_as_xyz
  x,y,z

loop_
_atom_site_label
_atom_site_type_symbol
_atom_site_fract_x
_atom_site_fract_y
_atom_site_fract_z
_atom_site_charge
Mg	Mg	0.85759 0.20318 0.28934 1.47000
Mg	Mg	0.64241 0.79682 0.78934 1.47000
Mg	Mg	0.14241 0.70318 0.21066 1.47000
Mg	Mg	0.35759 0.29682 0.71066 1.46900
H 	H 	0.56000 0.89200 0.31100 0.14300
H 	H 	0.67400 0.92100 0.42800 0.13000
H 	H 	0.53200 0.08500 0.51300 0.12200
H 	H 	0.37100 0.12500 0.41700 0.15300
H 	H 	0.94000 0.10800 0.81100 0.14200
H 	H 	0.82600 0.07900 0.92800 0.12800
H 	H 	0.96800 0.91500 0.01300 0.11600
H 	H 	0.12900 0.87500 0.91700 0.14700
H 	H 	0.44000 0.39200 0.18900 0.14300
H 	H 	0.32600 0.42100 0.07200 0.13000
H 	H 	0.46800 0.58500 0.98700 0.12000
H 	H 	0.62900 0.62500 0.08300 0.15100
H 	H 	0.06000 0.60800 0.68900 0.14200
H 	H 	0.17400 0.57900 0.57200 0.12900
H 	H 	0.03200 0.41500 0.48700 0.12200
H 	H 	0.87100 0.37500 0.58300 0.15200
C 	C 	0.85200 0.91614 0.27633 0.45700
C 	C 	0.54660 0.28070 0.45012 0.43900
C 	C 	0.66220 0.94220 0.34390 -0.32900
C 	C 	0.50220 0.13240 0.43440 -0.31900
C 	C 	0.64800 0.08386 0.77633 0.45600
C 	C 	0.95340 0.71930 0.95012 0.43600
C 	C 	0.83780 0.05780 0.84390 -0.32900
C 	C 	0.99780 0.86760 0.93440 -0.30500
C 	C 	0.14800 0.41614 0.22367 0.45800
C 	C 	0.45340 0.78070 0.04988 0.43700
C 	C 	0.33780 0.44220 0.15610 -0.32800
C 	C 	0.49780 0.63240 0.06560 -0.31600
C 	C 	0.35200 0.58386 0.72367 0.45800
C 	C 	0.04660 0.21930 0.54988 0.44100
C 	C 	0.16220 0.55780 0.65610 -0.32700
C 	C 	0.00220 0.36760 0.56560 -0.31800
O 	O 	0.62180 0.08210 0.33820 -0.24400
O 	O 	0.89760 0.79405 0.26557 -0.53600
O 	O 	0.46630 0.34167 0.53657 -0.48100
O 	O 	0.66200 0.33430 0.37449 -0.48700
O 	O 	0.94810 0.01252 0.23739 -0.51800
O 	O 	0.87820 0.91790 0.83820 -0.24600
O 	O 	0.60240 0.20595 0.76557 -0.53500
O 	O 	0.03370 0.65833 0.03657 -0.47800
O 	O 	0.83800 0.66570 0.87449 -0.48600
O 	O 	0.55190 0.98748 0.73739 -0.51700
O 	O 	0.37820 0.58210 0.16180 -0.24500
O 	O 	0.10240 0.29405 0.23443 -0.53400
O 	O 	0.53370 0.84167 0.96343 -0.47900
O 	O 	0.33800 0.83430 0.12551 -0.48700
O 	O 	0.05190 0.51252 0.26261 -0.51800
O 	O 	0.12180 0.41790 0.66180 -0.24500
O 	O 	0.39760 0.70595 0.73443 -0.53500
O 	O 	0.96630 0.15833 0.46343 -0.48200
O 	O 	0.16200 0.16570 0.62551 -0.48800
O 	O 	0.44810 0.48748 0.76261 -0.51900
