data_crystal

_cell_length_a 17.29800
_cell_length_b 13.40200
_cell_length_c 18.05600
_cell_angle_alpha 90.00000
_cell_angle_beta  96.19600
_cell_angle_gamma 90.00000

_symmetry_space_group_name_	'P 1'
_symmetry_space_group_name_H-M	'P 1'

loop_
_symmetry_equiv_pos_as_xyz
  x,y,z

loop_
_atom_site_label
_atom_site_type_symbol
_atom_site_fract_x
_atom_site_fract_y
_atom_site_fract_z
_atom_site_charge
Ni	Ni	0.04044 0.30594 0.16562 1.10800
C 	C 	0.83190 0.96700 0.08170 -0.05200
C 	C 	0.76100 0.94540 0.10710 0.00300
H 	H 	0.73020 0.89460 0.08470 0.04000
C 	C 	0.73490 0.99940 0.16630 -0.10600
C 	C 	0.77890 0.07820 0.19780 0.04700
H 	H 	0.76210 0.11410 0.23710 0.03400
C 	C 	0.84930 0.10320 0.16960 -0.12300
C 	C 	0.87400 0.04860 0.11300 0.01700
H 	H 	0.92030 0.06610 0.09460 0.02800
C 	C 	0.85980 0.90540 0.01990 0.02200
C 	C 	0.80947 0.86650 0.96180 -0.03400
H 	H 	0.75670 0.88170 0.95820 0.04500
C 	C 	0.83800 0.80490 0.90910 -0.03400
H 	H 	0.80440 0.77890 0.87030 0.05000
N 	N 	0.91680 0.78230 0.91450 -0.06600
C 	C 	0.96711 0.82120 0.97260 -0.13300
H 	H 	0.01980 0.80600 0.97620 0.09100
C 	C 	0.93860 0.88270 0.02530 0.01500
H 	H 	0.97220 0.90880 0.06420 0.00900
C 	C 	0.65850 0.96830 0.19180 0.35600
C 	C 	0.90040 0.18720 0.20280 0.40500
O 	O 	0.62180 0.90560 0.14971 -0.44400
O 	O 	0.63674 0.00240 0.24990 -0.31000
O 	O 	0.95715 0.20490 0.16760 -0.48100
O 	O 	0.88291 0.23140 0.25860 -0.42900
H 	H 	0.02880 0.44670 0.24180 0.26400
C 	C 	0.86780 0.89980 0.03380 0.05600
C 	C 	0.86970 0.79650 0.04090 -0.14000
H 	H 	0.85480 0.76660 0.08360 0.07700
C 	C 	0.89390 0.73800 0.98410 0.06900
H 	H 	0.89510 0.66890 0.98890 -0.01100
N 	N 	0.91620 0.78280 0.92030 -0.10700
C 	C 	0.91430 0.88610 0.91320 0.09400
H 	H 	0.92920 0.91600 0.87050 -0.01100
C 	C 	0.89010 0.94460 0.97000 -0.14400
H 	H 	0.88880 0.01370 0.96520 0.07400
H 	H 	0.97850 0.41040 0.28910 0.09900
Ni	Ni	0.54044 0.80594 0.16562 1.09900
C 	C 	0.33190 0.46700 0.08170 -0.04500
C 	C 	0.26100 0.44540 0.10710 0.00100
H 	H 	0.23020 0.39460 0.08470 0.04300
C 	C 	0.23490 0.49940 0.16630 -0.09800
C 	C 	0.27890 0.57820 0.19780 0.04000
H 	H 	0.26210 0.61410 0.23710 0.03900
C 	C 	0.34930 0.60320 0.16960 -0.11300
C 	C 	0.37400 0.54860 0.11300 0.01000
H 	H 	0.42030 0.56610 0.09460 0.03700
C 	C 	0.35980 0.40540 0.01990 0.03300
C 	C 	0.30947 0.36650 0.96180 -0.07100
H 	H 	0.25670 0.38170 0.95820 0.05900
C 	C 	0.33800 0.30490 0.90910 0.00800
H 	H 	0.30440 0.27890 0.87030 0.03600
N 	N 	0.41680 0.28230 0.91450 -0.07400
C 	C 	0.46711 0.32120 0.97260 0.01300
H 	H 	0.51980 0.30600 0.97620 0.01100
C 	C 	0.43860 0.38270 0.02530 -0.07400
H 	H 	0.47220 0.40880 0.06420 0.05400
C 	C 	0.15850 0.46830 0.19180 0.35600
C 	C 	0.40040 0.68720 0.20280 0.40200
O 	O 	0.12180 0.40560 0.14971 -0.43700
O 	O 	0.13674 0.50240 0.24990 -0.30200
O 	O 	0.45715 0.70490 0.16760 -0.45800
O 	O 	0.38291 0.73140 0.25860 -0.42000
H 	H 	0.52880 0.94670 0.24180 0.26600
C 	C 	0.36780 0.39980 0.03380 0.05100
C 	C 	0.36970 0.29650 0.04090 -0.09500
H 	H 	0.35480 0.26660 0.08360 0.06500
C 	C 	0.39390 0.23800 0.98410 0.01800
H 	H 	0.39510 0.16890 0.98890 0.01200
N 	N 	0.41620 0.28280 0.92030 -0.10700
C 	C 	0.41430 0.38610 0.91320 0.02900
H 	H 	0.42920 0.41600 0.87050 0.02300
C 	C 	0.39010 0.44460 0.97000 -0.08400
H 	H 	0.38880 0.51370 0.96520 0.06100
H 	H 	0.47850 0.91040 0.28910 0.14600
Ni	Ni	0.95956 0.30594 0.33438 1.08700
C 	C 	0.16810 0.96700 0.41830 -0.04600
C 	C 	0.23900 0.94540 0.39290 0.00300
H 	H 	0.26980 0.89460 0.41530 0.04200
C 	C 	0.26510 0.99940 0.33370 -0.10100
C 	C 	0.22110 0.07820 0.30220 0.04100
H 	H 	0.23790 0.11410 0.26290 0.03800
C 	C 	0.15070 0.10320 0.33040 -0.11000
C 	C 	0.12600 0.04860 0.38700 0.01000
H 	H 	0.07970 0.06610 0.40540 0.04400
C 	C 	0.14020 0.90540 0.48010 0.04500
C 	C 	0.19053 0.86650 0.53820 -0.11100
H 	H 	0.24330 0.88170 0.54180 0.07100
C 	C 	0.16200 0.80490 0.59090 0.05200
H 	H 	0.19560 0.77890 0.62970 0.02000
N 	N 	0.08320 0.78230 0.58550 -0.08100
C 	C 	0.03289 0.82120 0.52740 0.15700
H 	H 	0.98020 0.80600 0.52380 -0.06700
C 	C 	0.06140 0.88270 0.47470 -0.16300
H 	H 	0.02780 0.90880 0.43580 0.09900
C 	C 	0.34150 0.96830 0.30820 0.35600
C 	C 	0.09960 0.18720 0.29720 0.40000
O 	O 	0.37820 0.90560 0.35029 -0.44300
O 	O 	0.36326 0.00240 0.25010 -0.30900
O 	O 	0.04285 0.20490 0.33240 -0.43800
O 	O 	0.11709 0.23140 0.24140 -0.41600
H 	H 	0.97120 0.44670 0.25820 0.22700
C 	C 	0.13220 0.89980 0.46620 0.04700
C 	C 	0.13030 0.79650 0.45910 -0.04900
H 	H 	0.14520 0.76660 0.41640 0.05200
C 	C 	0.10610 0.73800 0.51590 -0.03400
H 	H 	0.10490 0.66890 0.51110 0.03600
N 	N 	0.08380 0.78280 0.57970 -0.10600
C 	C 	0.08570 0.88610 0.58680 -0.03800
H 	H 	0.07080 0.91600 0.62950 0.05800
C 	C 	0.10990 0.94460 0.53000 -0.02300
H 	H 	0.11120 0.01370 0.53480 0.04300
H 	H 	0.02150 0.41040 0.21090 0.11400
Ni	Ni	0.45956 0.80594 0.33438 1.09900
C 	C 	0.66810 0.46700 0.41830 -0.04700
C 	C 	0.73900 0.44540 0.39290 0.00200
H 	H 	0.76980 0.39460 0.41530 0.04100
C 	C 	0.76510 0.49940 0.33370 -0.10400
C 	C 	0.72110 0.57820 0.30220 0.04200
H 	H 	0.73790 0.61410 0.26290 0.03500
C 	C 	0.65070 0.60320 0.33040 -0.11600
C 	C 	0.62600 0.54860 0.38700 0.01100
H 	H 	0.57970 0.56610 0.40540 0.03600
C 	C 	0.64020 0.40540 0.48010 0.03200
C 	C 	0.69053 0.36650 0.53820 -0.07100
H 	H 	0.74330 0.38170 0.54180 0.05600
C 	C 	0.66200 0.30490 0.59090 0.00700
H 	H 	0.69560 0.27890 0.62970 0.03400
N 	N 	0.58320 0.28230 0.58550 -0.07300
C 	C 	0.53289 0.32120 0.52740 0.00700
H 	H 	0.48020 0.30600 0.52380 0.01300
C 	C 	0.56140 0.38270 0.47470 -0.06700
H 	H 	0.52780 0.40880 0.43580 0.05200
C 	C 	0.84150 0.46830 0.30820 0.35800
C 	C 	0.59960 0.68720 0.29720 0.40200
O 	O 	0.87820 0.40560 0.35029 -0.44600
O 	O 	0.86326 0.50240 0.25010 -0.31500
O 	O 	0.54285 0.70490 0.33240 -0.45800
O 	O 	0.61709 0.73140 0.24140 -0.42200
H 	H 	0.47120 0.94670 0.25820 0.26600
C 	C 	0.63220 0.39980 0.46620 0.05500
C 	C 	0.63030 0.29650 0.45910 -0.09500
H 	H 	0.64520 0.26660 0.41640 0.06500
C 	C 	0.60610 0.23800 0.51590 0.01700
H 	H 	0.60490 0.16890 0.51110 0.01200
N 	N 	0.58380 0.28280 0.57970 -0.10700
C 	C 	0.58570 0.38610 0.58680 0.03300
H 	H 	0.57080 0.41600 0.62950 0.02200
C 	C 	0.60990 0.44460 0.53000 -0.09200
H 	H 	0.61120 0.51370 0.53480 0.06100
H 	H 	0.52150 0.91040 0.21090 0.14500
Ni	Ni	0.95956 0.69406 0.83438 1.08700
C 	C 	0.16810 0.03300 0.91830 -0.04700
C 	C 	0.23900 0.05460 0.89290 0.00400
H 	H 	0.26980 0.10540 0.91530 0.04200
C 	C 	0.26510 0.00060 0.83370 -0.10200
C 	C 	0.22110 0.92180 0.80220 0.04300
H 	H 	0.23790 0.88590 0.76290 0.03700
C 	C 	0.15070 0.89680 0.83040 -0.11000
C 	C 	0.12600 0.95140 0.88700 0.01200
H 	H 	0.07970 0.93390 0.90540 0.04400
C 	C 	0.14020 0.09460 0.98010 0.04300
C 	C 	0.19053 0.13350 0.03820 -0.11200
H 	H 	0.24330 0.11830 0.04180 0.07100
C 	C 	0.16200 0.19510 0.09090 0.05200
H 	H 	0.19560 0.22110 0.12970 0.02000
N 	N 	0.08320 0.21770 0.08550 -0.08000
C 	C 	0.03289 0.17880 0.02740 0.15000
H 	H 	0.98020 0.19400 0.02380 -0.06300
C 	C 	0.06140 0.11730 0.97470 -0.15800
H 	H 	0.02780 0.09120 0.93580 0.09800
C 	C 	0.34150 0.03170 0.80820 0.35700
C 	C 	0.09960 0.81280 0.79720 0.40000
O 	O 	0.37820 0.09440 0.85029 -0.44300
O 	O 	0.36326 0.99760 0.75010 -0.30900
O 	O 	0.04285 0.79510 0.83240 -0.43700
O 	O 	0.11709 0.76860 0.74140 -0.41600
H 	H 	0.97120 0.55330 0.75820 0.22600
C 	C 	0.13220 0.10020 0.96620 0.04800
C 	C 	0.13030 0.20350 0.95910 -0.04600
H 	H 	0.14520 0.23340 0.91640 0.05200
C 	C 	0.10610 0.26200 0.01590 -0.03600
H 	H 	0.10490 0.33110 0.01110 0.03600
N 	N 	0.08380 0.21720 0.07970 -0.10600
C 	C 	0.08570 0.11390 0.08680 -0.03700
H 	H 	0.07080 0.08400 0.12950 0.05700
C 	C 	0.10990 0.05540 0.03000 -0.02200
H 	H 	0.11120 0.98630 0.03480 0.03900
H 	H 	0.02150 0.58960 0.71090 0.11400
Ni	Ni	0.45956 0.19406 0.83438 1.09900
C 	C 	0.66810 0.53300 0.91830 -0.04700
C 	C 	0.73900 0.55460 0.89290 0.00300
H 	H 	0.76980 0.60540 0.91530 0.04100
C 	C 	0.76510 0.50060 0.83370 -0.10400
C 	C 	0.72110 0.42180 0.80220 0.04200
H 	H 	0.73790 0.38590 0.76290 0.03500
C 	C 	0.65070 0.39680 0.83040 -0.11600
C 	C 	0.62600 0.45140 0.88700 0.01100
H 	H 	0.57970 0.43390 0.90540 0.03600
C 	C 	0.64020 0.59460 0.98010 0.03000
C 	C 	0.69053 0.63350 0.03820 -0.07200
H 	H 	0.74330 0.61830 0.04180 0.05500
C 	C 	0.66200 0.69510 0.09090 0.00600
H 	H 	0.69560 0.72110 0.12970 0.03500
N 	N 	0.58320 0.71770 0.08550 -0.07300
C 	C 	0.53289 0.67880 0.02740 -0.00000
H 	H 	0.48020 0.69400 0.02380 0.01500
C 	C 	0.56140 0.61730 0.97470 -0.05900
H 	H 	0.52780 0.59120 0.93580 0.05000
C 	C 	0.84150 0.53170 0.80820 0.35800
C 	C 	0.59960 0.31280 0.79720 0.40200
O 	O 	0.87820 0.59440 0.85029 -0.44600
O 	O 	0.86326 0.49760 0.75010 -0.31500
O 	O 	0.54285 0.29510 0.83240 -0.45800
O 	O 	0.61709 0.26860 0.74140 -0.42200
H 	H 	0.47120 0.05330 0.75820 0.26600
C 	C 	0.63220 0.60020 0.96620 0.05900
C 	C 	0.63030 0.70350 0.95910 -0.09300
H 	H 	0.64520 0.73340 0.91640 0.06500
C 	C 	0.60610 0.76200 0.01590 0.01500
H 	H 	0.60490 0.83110 0.01110 0.01100
N 	N 	0.58380 0.71720 0.07970 -0.10700
C 	C 	0.58570 0.61390 0.08680 0.03700
H 	H 	0.57080 0.58400 0.12950 0.02000
C 	C 	0.60990 0.55540 0.03000 -0.10000
H 	H 	0.61120 0.48630 0.03480 0.06400
H 	H 	0.52150 0.08960 0.71090 0.14600
Ni	Ni	0.04044 0.69406 0.66562 1.11000
C 	C 	0.83190 0.03300 0.58170 -0.04800
C 	C 	0.76100 0.05460 0.60710 0.00200
H 	H 	0.73020 0.10540 0.58470 0.04200
C 	C 	0.73490 0.00060 0.66630 -0.10400
C 	C 	0.77890 0.92180 0.69780 0.04400
H 	H 	0.76210 0.88590 0.73710 0.03500
C 	C 	0.84930 0.89680 0.66960 -0.12100
C 	C 	0.87400 0.95140 0.61300 0.01300
H 	H 	0.92030 0.93390 0.59460 0.02900
C 	C 	0.85980 0.09460 0.51990 0.01900
C 	C 	0.80947 0.13350 0.46180 -0.03300
H 	H 	0.75670 0.11830 0.45820 0.04400
C 	C 	0.83800 0.19510 0.40910 -0.03700
H 	H 	0.80440 0.22110 0.37030 0.05100
N 	N 	0.91680 0.21770 0.41450 -0.06500
C 	C 	0.96711 0.17880 0.47260 -0.14100
H 	H 	0.01980 0.19400 0.47620 0.09300
C 	C 	0.93860 0.11730 0.52530 0.02600
H 	H 	0.97220 0.09120 0.56420 0.00600
C 	C 	0.65850 0.03170 0.69180 0.35600
C 	C 	0.90040 0.81280 0.70280 0.40400
O 	O 	0.62180 0.09440 0.64971 -0.44400
O 	O 	0.63674 0.99760 0.74990 -0.31000
O 	O 	0.95715 0.79510 0.66760 -0.48200
O 	O 	0.88291 0.76860 0.75860 -0.42900
H 	H 	0.02880 0.55330 0.74180 0.26400
C 	C 	0.86780 0.10020 0.53380 0.06300
C 	C 	0.86970 0.20350 0.54090 -0.14100
H 	H 	0.85480 0.23340 0.58360 0.07800
C 	C 	0.89390 0.26200 0.48410 0.06800
H 	H 	0.89510 0.33110 0.48890 -0.01200
N 	N 	0.91620 0.21720 0.42030 -0.10800
C 	C 	0.91430 0.11390 0.41320 0.10200
H 	H 	0.92920 0.08400 0.37050 -0.01400
C 	C 	0.89010 0.05540 0.47000 -0.15900
H 	H 	0.88880 0.98630 0.46520 0.08000
H 	H 	0.97850 0.58960 0.78910 0.09800
Ni	Ni	0.54044 0.19406 0.66562 1.09900
C 	C 	0.33190 0.53300 0.58170 -0.04500
C 	C 	0.26100 0.55460 0.60710 0.00200
H 	H 	0.23020 0.60540 0.58470 0.04300
C 	C 	0.23490 0.50060 0.66630 -0.09800
C 	C 	0.27890 0.42180 0.69780 0.04000
H 	H 	0.26210 0.38590 0.73710 0.03900
C 	C 	0.34930 0.39680 0.66960 -0.11300
C 	C 	0.37400 0.45140 0.61300 0.01000
H 	H 	0.42030 0.43390 0.59460 0.03700
C 	C 	0.35980 0.59460 0.51990 0.03200
C 	C 	0.30947 0.63350 0.46180 -0.07100
H 	H 	0.25670 0.61830 0.45820 0.05800
C 	C 	0.33800 0.69510 0.40910 0.00700
H 	H 	0.30440 0.72110 0.37030 0.03600
N 	N 	0.41680 0.71770 0.41450 -0.07300
C 	C 	0.46711 0.67880 0.47260 0.00700
H 	H 	0.51980 0.69400 0.47620 0.01300
C 	C 	0.43860 0.61730 0.52530 -0.06800
H 	H 	0.47220 0.59120 0.56420 0.05200
C 	C 	0.15850 0.53170 0.69180 0.35600
C 	C 	0.40040 0.31280 0.70280 0.40200
O 	O 	0.12180 0.59440 0.64971 -0.43700
O 	O 	0.13674 0.49760 0.74990 -0.30100
O 	O 	0.45715 0.29510 0.66760 -0.45700
O 	O 	0.38291 0.26860 0.75860 -0.42000
H 	H 	0.52880 0.05330 0.74180 0.26600
C 	C 	0.36780 0.60020 0.53380 0.05500
C 	C 	0.36970 0.70350 0.54090 -0.09500
H 	H 	0.35480 0.73340 0.58360 0.06500
C 	C 	0.39390 0.76200 0.48410 0.01700
H 	H 	0.39510 0.83110 0.48890 0.01100
N 	N 	0.41620 0.71720 0.42030 -0.10700
C 	C 	0.41430 0.61390 0.41320 0.03300
H 	H 	0.42920 0.58400 0.37050 0.02200
C 	C 	0.39010 0.55540 0.47000 -0.09100
H 	H 	0.38880 0.48630 0.46520 0.06200
H 	H 	0.47850 0.08960 0.78910 0.14600
O 	O 	-0.00000 0.39750 0.25000 -0.89700
O 	O 	0.50000 0.89750 0.25000 -1.01400
O 	O 	-0.00000 0.60250 0.75000 -0.89400
O 	O 	0.50000 0.10250 0.75000 -1.01400
