data_crystal

_cell_length_a 16.78300
_cell_length_b 14.18890
_cell_length_c 18.68340
_cell_angle_alpha 90.00000
_cell_angle_beta  97.74300
_cell_angle_gamma 90.00000

_symmetry_space_group_name_	'P 1'
_symmetry_space_group_name_H-M	'P 1'

loop_
_symmetry_equiv_pos_as_xyz
  x,y,z

loop_
_atom_site_label
_atom_site_type_symbol
_atom_site_fract_x
_atom_site_fract_y
_atom_site_fract_z
_atom_site_charge
Ni	Ni	0.04002 0.28037 0.16827 1.12100
O 	O 	0.04798 0.81292 0.83249 -0.44200
O 	O 	0.11683 0.80006 0.73950 -0.41200
O 	O 	0.37186 0.12860 0.84171 -0.43500
O 	O 	0.36098 0.03301 0.74711 -0.32200
H 	H 	0.03650 0.40020 0.26850 0.42600
N 	N 	0.08026 0.20346 0.08463 -0.26500
C 	C 	0.03530 0.17540 0.03300 0.40400
H 	H 	0.98080 0.18800 0.03190 -0.15300
C 	C 	0.05910 0.12540 0.97470 -0.34500
H 	H 	0.02020 0.10790 0.93680 0.16100
C 	C 	0.13510 0.10240 0.97194 0.14600
C 	C 	0.19100 0.13580 0.03580 -0.21600
H 	H 	0.24590 0.12410 0.03860 0.10500
C 	C 	0.16120 0.18450 0.09110 0.18100
H 	H 	0.19550 0.20380 0.13170 -0.02400
C 	C 	0.16450 0.04930 0.91231 -0.07500
C 	C 	0.12430 0.97000 0.88233 0.02600
H 	H 	0.07870 0.94910 0.90080 0.03800
C 	C 	0.15035 0.92160 0.82603 -0.11900
C 	C 	0.21917 0.95240 0.79786 0.05000
H 	H 	0.23670 0.92070 0.75930 0.03500
C 	C 	0.26072 0.02980 0.82761 -0.11000
C 	C 	0.23330 0.07770 0.88460 0.02200
H 	H 	0.26170 0.12980 0.90450 0.03600
C 	C 	0.10142 0.83740 0.79598 0.40200
C 	C 	0.33750 0.06590 0.80257 0.36800
C 	C 	0.08220 0.10700 0.08160 -0.15600
H 	H 	0.06540 0.07380 0.11980 0.10000
C 	C 	0.10710 0.05590 0.02640 0.05900
H 	H 	0.10480 0.99040 0.02650 0.00900
C 	C 	0.12400 0.19710 0.96520 0.06700
H 	H 	0.13380 0.22890 0.92370 0.00800
C 	C 	0.09750 0.24480 0.02270 -0.16500
H 	H 	0.09120 0.30970 0.01850 0.07900
Ni	Ni	0.54002 0.78037 0.16827 1.11400
O 	O 	0.54798 0.31292 0.83249 -0.45700
O 	O 	0.61683 0.30006 0.73950 -0.41800
O 	O 	0.87186 0.62860 0.84171 -0.44000
O 	O 	0.86098 0.53301 0.74711 -0.32600
H 	H 	0.53650 0.90020 0.26850 0.44700
N 	N 	0.58026 0.70346 0.08463 -0.24200
C 	C 	0.53530 0.67540 0.03300 0.10100
H 	H 	0.48080 0.68800 0.03190 -0.02400
C 	C 	0.55910 0.62540 0.97470 -0.13400
H 	H 	0.52020 0.60790 0.93680 0.07500
C 	C 	0.63510 0.60240 0.97194 0.16800
C 	C 	0.69100 0.63580 0.03580 -0.12700
H 	H 	0.74590 0.62410 0.03860 0.07300
C 	C 	0.66120 0.68450 0.09110 0.06000
H 	H 	0.69550 0.70380 0.13170 0.01700
C 	C 	0.66450 0.54930 0.91231 -0.09000
C 	C 	0.62430 0.47000 0.88233 0.03700
H 	H 	0.57870 0.44910 0.90080 0.02700
C 	C 	0.65035 0.42160 0.82603 -0.13100
C 	C 	0.71917 0.45240 0.79786 0.05800
H 	H 	0.73670 0.42070 0.75930 0.03000
C 	C 	0.76072 0.52980 0.82761 -0.11900
C 	C 	0.73330 0.57770 0.88460 0.02900
H 	H 	0.76170 0.62980 0.90450 0.03200
C 	C 	0.60142 0.33740 0.79598 0.40600
C 	C 	0.83750 0.56590 0.80257 0.36900
C 	C 	0.58220 0.60700 0.08160 0.03500
H 	H 	0.56540 0.57380 0.11980 0.02100
C 	C 	0.60710 0.55590 0.02640 -0.11800
H 	H 	0.60480 0.49040 0.02650 0.06800
C 	C 	0.62400 0.69710 0.96520 -0.10500
H 	H 	0.63380 0.72890 0.92370 0.06600
C 	C 	0.59750 0.74480 0.02270 0.02100
H 	H 	0.59120 0.80970 0.01850 0.00800
Ni	Ni	0.95998 0.28037 0.33173 1.09900
O 	O 	0.95202 0.81292 0.66751 -0.47500
O 	O 	0.88317 0.80006 0.76050 -0.42500
O 	O 	0.62814 0.12860 0.65829 -0.43600
O 	O 	0.63902 0.03301 0.75289 -0.32300
H 	H 	0.96350 0.40020 0.23150 0.39400
N 	N 	0.91974 0.20346 0.41537 -0.22100
C 	C 	0.96470 0.17540 0.46700 -0.19700
H 	H 	0.01920 0.18800 0.46810 0.10700
C 	C 	0.94090 0.12540 0.52530 0.07200
H 	H 	0.97980 0.10790 0.56320 -0.01000
C 	C 	0.86490 0.10240 0.52806 0.18400
C 	C 	0.80900 0.13580 0.46420 -0.03600
H 	H 	0.75410 0.12410 0.46140 0.04400
C 	C 	0.83880 0.18450 0.40890 -0.06000
H 	H 	0.80450 0.20380 0.36830 0.06000
C 	C 	0.83550 0.04930 0.58769 -0.09900
C 	C 	0.87570 0.97000 0.61767 0.04300
H 	H 	0.92130 0.94910 0.59920 0.01700
C 	C 	0.84965 0.92160 0.67397 -0.13800
C 	C 	0.78083 0.95240 0.70214 0.06100
H 	H 	0.76330 0.92070 0.74070 0.02900
C 	C 	0.73928 0.02980 0.67239 -0.12100
C 	C 	0.76670 0.07770 0.61540 0.03300
H 	H 	0.73830 0.12980 0.59550 0.03100
C 	C 	0.89858 0.83740 0.70402 0.40900
C 	C 	0.66250 0.06590 0.69743 0.37000
C 	C 	0.91780 0.10700 0.41840 0.22000
H 	H 	0.93460 0.07380 0.38020 -0.05500
C 	C 	0.89290 0.05590 0.47360 -0.28400
H 	H 	0.89520 0.99040 0.47350 0.12300
C 	C 	0.87600 0.19710 0.53480 -0.27600
H 	H 	0.86620 0.22890 0.57630 0.12400
C 	C 	0.90250 0.24480 0.47730 0.20800
H 	H 	0.90880 0.30970 0.48150 -0.06300
Ni	Ni	0.45998 0.78037 0.33173 1.11400
O 	O 	0.45202 0.31292 0.66751 -0.45600
O 	O 	0.38317 0.30006 0.76050 -0.41600
O 	O 	0.12814 0.62860 0.65829 -0.43100
O 	O 	0.13902 0.53301 0.75289 -0.31400
H 	H 	0.46350 0.90020 0.23150 0.44700
N 	N 	0.41974 0.70346 0.41537 -0.24400
C 	C 	0.46470 0.67540 0.46700 0.11800
H 	H 	0.51920 0.68800 0.46810 -0.02900
C 	C 	0.44090 0.62540 0.52530 -0.14900
H 	H 	0.47980 0.60790 0.56320 0.07900
C 	C 	0.36490 0.60240 0.52806 0.16200
C 	C 	0.30900 0.63580 0.46420 -0.12700
H 	H 	0.25410 0.62410 0.46140 0.07700
C 	C 	0.33880 0.68450 0.40890 0.06400
H 	H 	0.30450 0.70380 0.36830 0.01800
C 	C 	0.33550 0.54930 0.58769 -0.08600
C 	C 	0.37570 0.47000 0.61767 0.03500
H 	H 	0.42130 0.44910 0.59920 0.02700
C 	C 	0.34965 0.42160 0.67397 -0.12700
C 	C 	0.28083 0.45240 0.70214 0.05600
H 	H 	0.26330 0.42070 0.74070 0.03400
C 	C 	0.23928 0.52980 0.67239 -0.11300
C 	C 	0.26670 0.57770 0.61540 0.02700
H 	H 	0.23830 0.62980 0.59550 0.03400
C 	C 	0.39858 0.33740 0.70402 0.40500
C 	C 	0.16250 0.56590 0.69743 0.36800
C 	C 	0.41780 0.60700 0.41840 0.02300
H 	H 	0.43460 0.57380 0.38020 0.02600
C 	C 	0.39290 0.55590 0.47360 -0.10100
H 	H 	0.39520 0.49040 0.47350 0.06400
C 	C 	0.37600 0.69710 0.53480 -0.10000
H 	H 	0.36620 0.72890 0.57630 0.06400
C 	C 	0.40250 0.74480 0.47730 0.01600
H 	H 	0.40880 0.80970 0.48150 0.01000
Ni	Ni	0.95998 0.71963 0.83173 1.09900
O 	O 	0.95202 0.18708 0.16751 -0.47500
O 	O 	0.88317 0.19994 0.26050 -0.42500
O 	O 	0.62814 0.87140 0.15829 -0.43600
O 	O 	0.63902 0.96699 0.25289 -0.32400
H 	H 	0.96350 0.59980 0.73150 0.39300
N 	N 	0.91974 0.79654 0.91537 -0.22100
C 	C 	0.96470 0.82460 0.96700 -0.19400
H 	H 	0.01920 0.81200 0.96810 0.10700
C 	C 	0.94090 0.87460 0.02530 0.06700
H 	H 	0.97980 0.89210 0.06320 -0.00800
C 	C 	0.86490 0.89760 0.02806 0.18100
C 	C 	0.80900 0.86420 0.96420 -0.03300
H 	H 	0.75410 0.87590 0.96140 0.04400
C 	C 	0.83880 0.81550 0.90890 -0.06100
H 	H 	0.80450 0.79620 0.86830 0.06100
C 	C 	0.83550 0.95070 0.08769 -0.10000
C 	C 	0.87570 0.03000 0.11767 0.04500
H 	H 	0.92130 0.05090 0.09920 0.01700
C 	C 	0.84965 0.07840 0.17397 -0.13900
C 	C 	0.78083 0.04760 0.20214 0.06300
H 	H 	0.76330 0.07930 0.24070 0.02900
C 	C 	0.73928 0.97020 0.17239 -0.12300
C 	C 	0.76670 0.92230 0.11540 0.03400
H 	H 	0.73830 0.87020 0.09550 0.03000
C 	C 	0.89858 0.16260 0.20402 0.40900
C 	C 	0.66250 0.93410 0.19743 0.37000
C 	C 	0.91780 0.89300 0.91840 0.21800
H 	H 	0.93460 0.92620 0.88020 -0.05400
C 	C 	0.89290 0.94410 0.97360 -0.27900
H 	H 	0.89520 0.00960 0.97350 0.12200
C 	C 	0.87600 0.80290 0.03480 -0.27800
H 	H 	0.86620 0.77110 0.07630 0.12400
C 	C 	0.90250 0.75520 0.97730 0.21100
H 	H 	0.90880 0.69030 0.98150 -0.06300
Ni	Ni	0.45998 0.21963 0.83173 1.11400
O 	O 	0.45202 0.68708 0.16751 -0.45700
O 	O 	0.38317 0.69994 0.26050 -0.41600
O 	O 	0.12814 0.37140 0.15829 -0.43100
O 	O 	0.13902 0.46699 0.25289 -0.31400
H 	H 	0.46350 0.09980 0.73150 0.44700
N 	N 	0.41974 0.29654 0.91537 -0.24500
C 	C 	0.46470 0.32460 0.96700 0.13500
H 	H 	0.51920 0.31200 0.96810 -0.03400
C 	C 	0.44090 0.37460 0.02530 -0.16600
H 	H 	0.47980 0.39210 0.06320 0.08400
C 	C 	0.36490 0.39760 0.02806 0.15400
C 	C 	0.30900 0.36420 0.96420 -0.12700
H 	H 	0.25410 0.37590 0.96140 0.07800
C 	C 	0.33880 0.31550 0.90890 0.06900
H 	H 	0.30450 0.29620 0.86830 0.01700
C 	C 	0.33550 0.45070 0.08769 -0.08400
C 	C 	0.37570 0.53000 0.11767 0.03300
H 	H 	0.42130 0.55090 0.09920 0.02800
C 	C 	0.34965 0.57840 0.17397 -0.12700
C 	C 	0.28083 0.54760 0.20214 0.05500
H 	H 	0.26330 0.57930 0.24070 0.03400
C 	C 	0.23928 0.47020 0.17239 -0.11300
C 	C 	0.26670 0.42230 0.11540 0.02500
H 	H 	0.23830 0.37020 0.09550 0.03400
C 	C 	0.39858 0.66260 0.20402 0.40500
C 	C 	0.16250 0.43410 0.19743 0.36800
C 	C 	0.41780 0.39300 0.91840 0.00900
H 	H 	0.43460 0.42620 0.88020 0.03100
C 	C 	0.39290 0.44410 0.97360 -0.08200
H 	H 	0.39520 0.50960 0.97350 0.05800
C 	C 	0.37600 0.30290 0.03480 -0.09400
H 	H 	0.36620 0.27110 0.07630 0.06100
C 	C 	0.40250 0.25520 0.97730 0.01100
H 	H 	0.40880 0.19030 0.98150 0.01300
Ni	Ni	0.04002 0.71963 0.66827 1.12300
O 	O 	0.04798 0.18708 0.33249 -0.44200
O 	O 	0.11683 0.19994 0.23950 -0.41200
O 	O 	0.37186 0.87140 0.34171 -0.43500
O 	O 	0.36098 0.96699 0.24711 -0.32200
H 	H 	0.03650 0.59980 0.76850 0.42700
N 	N 	0.08026 0.79654 0.58463 -0.26600
C 	C 	0.03530 0.82460 0.53300 0.43500
H 	H 	0.98080 0.81200 0.53190 -0.16400
C 	C 	0.05910 0.87460 0.47470 -0.37200
H 	H 	0.02020 0.89210 0.43680 0.16900
C 	C 	0.13510 0.89760 0.47194 0.14000
C 	C 	0.19100 0.86420 0.53580 -0.21900
H 	H 	0.24590 0.87590 0.53860 0.10700
C 	C 	0.16120 0.81550 0.59110 0.19000
H 	H 	0.19550 0.79620 0.63170 -0.02700
C 	C 	0.16450 0.95070 0.41231 -0.07600
C 	C 	0.12430 0.03000 0.38233 0.02800
H 	H 	0.07870 0.05090 0.40080 0.03700
C 	C 	0.15035 0.07840 0.32603 -0.12100
C 	C 	0.21917 0.04760 0.29786 0.05300
H 	H 	0.23670 0.07930 0.25930 0.03400
C 	C 	0.26072 0.97020 0.32761 -0.11200
C 	C 	0.23330 0.92230 0.38460 0.02200
H 	H 	0.26170 0.87020 0.40450 0.03500
C 	C 	0.10142 0.16260 0.29598 0.40200
C 	C 	0.33750 0.93410 0.30257 0.36800
C 	C 	0.08220 0.89300 0.58160 -0.17600
H 	H 	0.06540 0.92620 0.61980 0.10800
C 	C 	0.10710 0.94410 0.52640 0.08200
H 	H 	0.10480 0.00960 0.52650 0.00400
C 	C 	0.12400 0.80290 0.46520 0.07800
H 	H 	0.13380 0.77110 0.42370 0.00300
C 	C 	0.09750 0.75520 0.52270 -0.17600
H 	H 	0.09120 0.69030 0.51850 0.08500
Ni	Ni	0.54002 0.21963 0.66827 1.11400
O 	O 	0.54798 0.68708 0.33249 -0.45700
O 	O 	0.61683 0.69994 0.23950 -0.41800
O 	O 	0.87186 0.37140 0.34171 -0.44100
O 	O 	0.86098 0.46699 0.24711 -0.32600
H 	H 	0.53650 0.09980 0.76850 0.44700
N 	N 	0.58026 0.29654 0.58463 -0.24400
C 	C 	0.53530 0.32460 0.53300 0.11900
H 	H 	0.48080 0.31200 0.53190 -0.02900
C 	C 	0.55910 0.37460 0.47470 -0.15000
H 	H 	0.52020 0.39210 0.43680 0.08000
C 	C 	0.63510 0.39760 0.47194 0.16200
C 	C 	0.69100 0.36420 0.53580 -0.12800
H 	H 	0.74590 0.37590 0.53860 0.07400
C 	C 	0.66120 0.31550 0.59110 0.06500
H 	H 	0.69550 0.29620 0.63170 0.01500
C 	C 	0.66450 0.45070 0.41231 -0.08800
C 	C 	0.62430 0.53000 0.38233 0.03600
H 	H 	0.57870 0.55090 0.40080 0.02700
C 	C 	0.65035 0.57840 0.32603 -0.13000
C 	C 	0.71917 0.54760 0.29786 0.05700
H 	H 	0.73670 0.57930 0.25930 0.03000
C 	C 	0.76072 0.47020 0.32761 -0.11900
C 	C 	0.73330 0.42230 0.38460 0.02800
H 	H 	0.76170 0.37020 0.40450 0.03200
C 	C 	0.60142 0.66260 0.29598 0.40500
C 	C 	0.83750 0.43410 0.30257 0.36800
C 	C 	0.58220 0.39300 0.58160 0.02200
H 	H 	0.56540 0.42620 0.61980 0.02600
C 	C 	0.60710 0.44410 0.52640 -0.10100
H 	H 	0.60480 0.50960 0.52650 0.06300
C 	C 	0.62400 0.30290 0.46520 -0.09900
H 	H 	0.63380 0.27110 0.42370 0.06300
C 	C 	0.59750 0.25520 0.52270 0.01600
H 	H 	0.59120 0.19030 0.51850 0.01100
O 	O 	-0.00000 0.36600 0.25000 -1.02200
O 	O 	0.50000 0.86600 0.25000 -1.10100
O 	O 	-0.00000 0.63400 0.75000 -1.01900
O 	O 	0.50000 0.13400 0.75000 -1.10100
