data_crystal

_cell_length_a 11.04830
_cell_length_b 20.72090
_cell_length_c 22.08180
_cell_angle_alpha 115.71500
_cell_angle_beta  99.40300
_cell_angle_gamma 90.77400

_symmetry_space_group_name_	'P 1'
_symmetry_space_group_name_H-M	'P 1'

loop_
_symmetry_equiv_pos_as_xyz
  x,y,z

loop_
_atom_site_label
_atom_site_type_symbol
_atom_site_fract_x
_atom_site_fract_y
_atom_site_fract_z
_atom_site_charge
Co	Co	0.83170 0.17147 0.45629 1.16500
Co	Co	0.75120 0.33651 0.57974 1.16400
Co	Co	0.26780 0.67131 0.92495 1.16400
Co	Co	0.18740 0.83654 0.04737 1.16500
N 	N 	0.79320 0.08750 0.35280 -0.24100
N 	N 	0.22470 0.92280 0.14970 -0.24200
O 	O 	0.00800 0.84690 0.04920 -0.44100
O 	O 	0.89740 0.75570 0.96000 -0.30500
O 	O 	0.42690 0.74410 0.96380 -0.43000
O 	O 	0.37010 0.83580 0.05020 -0.46800
O 	O 	0.65040 0.17000 0.45630 -0.47000
O 	O 	0.59440 0.26310 0.54170 -0.42700
O 	O 	0.12200 0.25440 0.54280 -0.31400
O 	O 	0.01140 0.16540 0.45220 -0.44300
O 	O 	0.26760 0.66260 0.83100 -0.43300
O 	O 	0.17200 0.75210 0.81980 -0.30700
O 	O 	0.17340 0.75570 0.58590 -0.43100
O 	O 	0.25240 0.66290 0.51120 -0.47600
O 	O 	0.75460 0.34550 0.67420 -0.44000
O 	O 	0.83960 0.25260 0.68230 -0.30100
O 	O 	0.81030 0.23610 0.90900 -0.41800
O 	O 	0.73100 0.32860 0.98440 -0.46700
O 	O 	0.88280 0.25350 0.56350 -0.66800
H 	H 	0.96630 0.27490 0.57240 0.22000
H 	H 	0.87850 0.23180 0.59430 0.22000
O 	O 	0.13710 0.75400 0.94070 -0.67300
H 	H 	0.14150 0.77530 0.90970 0.22100
H 	H 	0.05360 0.73260 0.93190 0.22000
C 	C 	0.71600 0.03290 0.33410 0.11900
H 	H 	0.67520 0.03010 0.36660 -0.02800
C 	C 	0.68900 0.97660 0.26690 -0.19200
H 	H 	0.63080 0.93870 0.25630 0.09700
C 	C 	0.74650 0.97740 0.21870 0.12300
C 	C 	0.82830 0.03930 0.23750 -0.16600
H 	H 	0.86750 0.04490 0.20560 0.09100
C 	C 	0.84800 0.09270 0.30710 0.10200
H 	H 	0.90320 0.13290 0.32030 0.00200
C 	C 	0.72190 0.91920 0.14730 -0.06100
C 	C 	0.60530 0.88820 0.11540 0.02200
H 	H 	0.54040 0.90550 0.13820 0.03400
C 	C 	0.58020 0.83140 0.04990 -0.12000
C 	C 	0.67990 0.80500 0.01640 0.04500
H 	H 	0.66620 0.76610 0.97320 0.03800
C 	C 	0.79770 0.83710 0.04820 -0.10800
C 	C 	0.81870 0.89410 0.11300 0.01500
H 	H 	0.89830 0.91580 0.13370 0.04000
C 	C 	0.90900 0.81020 0.01560 0.36700
C 	C 	0.44860 0.79990 0.01750 0.40500
C 	C 	0.31170 0.92270 0.19690 0.12700
H 	H 	0.35660 0.88280 0.18600 -0.01300
C 	C 	0.34200 0.97910 0.26320 -0.20600
H 	H 	0.41070 0.97800 0.29330 0.10200
C 	C 	0.27350 0.03410 0.28290 0.14800
C 	C 	0.18400 0.03680 0.23370 -0.19200
H 	H 	0.13620 0.07570 0.24410 0.09900
C 	C 	0.16400 0.98060 0.16750 0.11100
H 	H 	0.10470 0.98420 0.13420 -0.02200
C 	C 	0.29880 0.09380 0.35400 -0.07500
C 	C 	0.41740 0.12090 0.38870 0.03300
H 	H 	0.48340 0.10100 0.36800 0.03100
C 	C 	0.43960 0.17730 0.45390 -0.13300
C 	C 	0.34100 0.20520 0.48580 0.06000
H 	H 	0.35560 0.24310 0.52960 0.03200
C 	C 	0.22180 0.17740 0.45290 -0.11900
C 	C 	0.20200 0.12150 0.38800 0.02700
H 	H 	0.12180 0.10160 0.36620 0.03600
C 	C 	0.11050 0.20190 0.48680 0.38000
C 	C 	0.57100 0.20620 0.48720 0.40300
N 	N 	0.63000 0.42190 0.60300 -0.27100
C 	C 	0.53300 0.42400 0.55700 -0.22700
H 	H 	0.51910 0.38520 0.51350 0.11000
C 	C 	0.45600 0.47600 0.56910 0.14000
H 	H 	0.39480 0.47560 0.53420 -0.02400
C 	C 	0.46900 0.53030 0.63340 0.12900
C 	C 	0.58000 0.53860 0.68060 0.11100
H 	H 	0.60080 0.57960 0.72210 -0.01000
C 	C 	0.65500 0.48360 0.66240 -0.21300
H 	H 	0.72810 0.48880 0.69260 0.08900
C 	C 	0.38300 0.58710 0.64890 -0.07500
C 	C 	0.34600 0.61670 0.71200 0.01900
H 	H 	0.37340 0.59870 0.74330 0.03600
C 	C 	0.27080 0.67180 0.72950 -0.10500
C 	C 	0.23220 0.70010 0.68500 0.04600
H 	H 	0.18390 0.73860 0.69730 0.03700
C 	C 	0.26640 0.67060 0.62030 -0.11800
C 	C 	0.34480 0.61540 0.60500 0.02700
H 	H 	0.37120 0.59760 0.56330 0.02900
C 	C 	0.22640 0.69990 0.56800 0.40900
C 	C 	0.23130 0.69950 0.79900 0.35400
N 	N 	0.38630 0.58560 0.90170 -0.25200
C 	C 	0.49100 0.59300 0.87510 0.09500
H 	H 	0.50820 0.63430 0.87010 0.00500
C 	C 	0.56500 0.53920 0.85720 -0.15100
H 	H 	0.63250 0.54230 0.83770 0.08300
C 	C 	0.54010 0.47390 0.86850 0.14500
C 	C 	0.44000 0.47710 0.89550 -0.21400
H 	H 	0.41860 0.43950 0.90510 0.10300
C 	C 	0.36700 0.53340 0.91000 0.20800
H 	H 	0.29760 0.53040 0.92770 -0.06400
C 	C 	0.62170 0.41270 0.85040 -0.07900
C 	C 	0.66680 0.38800 0.78920 0.02400
H 	H 	0.64900 0.41030 0.76060 0.03400
C 	C 	0.73820 0.33000 0.77110 -0.11900
C 	C 	0.76850 0.29900 0.81480 0.06300
H 	H 	0.81560 0.26000 0.80220 0.03400
C 	C 	0.72980 0.32480 0.87770 -0.13700
C 	C 	0.65570 0.38090 0.89380 0.03600
H 	H 	0.62780 0.39790 0.93500 0.02600
C 	C 	0.78020 0.30660 0.70410 0.36400
C 	C 	0.75920 0.29330 0.92620 0.39700
C 	C 	0.64200 0.47300 0.59300 0.47700
H 	H 	0.70910 0.47660 0.57330 -0.15100
C 	C 	0.56800 0.52700 0.60600 -0.43500
H 	H 	0.58710 0.56380 0.59470 0.18000
C 	C 	0.44400 0.46540 0.64700 -0.21300
H 	H 	0.37680 0.46120 0.66610 0.10500
C 	C 	0.52800 0.41220 0.62960 0.18000
H 	H 	0.51600 0.37100 0.63570 -0.02600
C 	C 	0.48100 0.58140 0.94780 -0.03500
H 	H 	0.49500 0.61850 0.99210 0.04400
C 	C 	0.55700 0.52600 0.93400 -0.04300
H 	H 	0.61760 0.52410 0.96780 0.04200
C 	C 	0.43600 0.46700 0.82240 -0.04000
H 	H 	0.41670 0.42640 0.78050 0.04300
C 	C 	0.36100 0.52250 0.84000 -0.04900
H 	H 	0.28890 0.51750 0.80960 0.03200
Co	Co	0.16830 0.82853 0.54371 1.16400
Co	Co	0.24880 0.66349 0.42026 1.16300
Co	Co	0.73220 0.32869 0.07505 1.16300
Co	Co	0.81260 0.16346 0.95263 1.16400
N 	N 	0.20680 0.91250 0.64720 -0.24200
N 	N 	0.77530 0.07720 0.85030 -0.24300
O 	O 	0.99200 0.15310 0.95080 -0.44100
O 	O 	0.10260 0.24430 0.04000 -0.30500
O 	O 	0.57310 0.25590 0.03620 -0.43000
O 	O 	0.62990 0.16420 0.94980 -0.46800
O 	O 	0.34960 0.83000 0.54370 -0.47000
O 	O 	0.40560 0.73690 0.45830 -0.42700
O 	O 	0.87800 0.74560 0.45720 -0.31400
O 	O 	0.98860 0.83460 0.54780 -0.44300
O 	O 	0.73240 0.33740 0.16900 -0.43300
O 	O 	0.82800 0.24790 0.18020 -0.30700
O 	O 	0.82660 0.24430 0.41410 -0.43100
O 	O 	0.74760 0.33710 0.48880 -0.47600
O 	O 	0.24540 0.65450 0.32580 -0.44000
O 	O 	0.16040 0.74740 0.31770 -0.30100
O 	O 	0.18970 0.76390 0.09100 -0.41800
O 	O 	0.26900 0.67140 0.01560 -0.46700
O 	O 	0.11720 0.74650 0.43650 -0.66800
H 	H 	0.03370 0.72510 0.42760 0.22000
H 	H 	0.12150 0.76820 0.40570 0.22000
O 	O 	0.86290 0.24600 0.05930 -0.67300
H 	H 	0.85850 0.22470 0.09030 0.22100
H 	H 	0.94640 0.26740 0.06810 0.22000
C 	C 	0.28400 0.96710 0.66590 0.11900
H 	H 	0.32480 0.96990 0.63340 -0.02800
C 	C 	0.31100 0.02340 0.73310 -0.19200
H 	H 	0.36920 0.06130 0.74370 0.09700
C 	C 	0.25350 0.02260 0.78130 0.12300
C 	C 	0.17170 0.96070 0.76250 -0.16600
H 	H 	0.13250 0.95510 0.79440 0.09100
C 	C 	0.15200 0.90730 0.69290 0.10200
H 	H 	0.09680 0.86710 0.67970 0.00200
C 	C 	0.27810 0.08080 0.85270 -0.06100
C 	C 	0.39470 0.11180 0.88460 0.02200
H 	H 	0.45960 0.09450 0.86180 0.03400
C 	C 	0.41980 0.16860 0.95010 -0.12000
C 	C 	0.32010 0.19500 0.98360 0.04500
H 	H 	0.33380 0.23390 0.02680 0.03800
C 	C 	0.20230 0.16290 0.95180 -0.10800
C 	C 	0.18130 0.10590 0.88700 0.01500
H 	H 	0.10170 0.08420 0.86630 0.04000
C 	C 	0.09100 0.18980 0.98440 0.36700
C 	C 	0.55140 0.20010 0.98250 0.40500
C 	C 	0.68830 0.07730 0.80310 0.12700
H 	H 	0.64340 0.11720 0.81400 -0.01300
C 	C 	0.65800 0.02090 0.73680 -0.20600
H 	H 	0.58930 0.02200 0.70670 0.10200
C 	C 	0.72650 0.96590 0.71710 0.14800
C 	C 	0.81600 0.96320 0.76630 -0.19200
H 	H 	0.86380 0.92430 0.75590 0.09900
C 	C 	0.83600 0.01940 0.83250 0.11100
H 	H 	0.89530 0.01580 0.86580 -0.02200
C 	C 	0.70120 0.90620 0.64600 -0.07500
C 	C 	0.58260 0.87910 0.61130 0.03300
H 	H 	0.51660 0.89900 0.63200 0.03100
C 	C 	0.56040 0.82270 0.54610 -0.13300
C 	C 	0.65900 0.79480 0.51420 0.06000
H 	H 	0.64440 0.75690 0.47040 0.03200
C 	C 	0.77820 0.82260 0.54710 -0.11900
C 	C 	0.79800 0.87850 0.61200 0.02700
H 	H 	0.87820 0.89840 0.63380 0.03600
C 	C 	0.88950 0.79810 0.51320 0.38000
C 	C 	0.42900 0.79380 0.51280 0.40300
N 	N 	0.37000 0.57810 0.39700 -0.27100
C 	C 	0.46700 0.57600 0.44300 -0.22700
H 	H 	0.48090 0.61480 0.48650 0.11000
C 	C 	0.54400 0.52400 0.43090 0.14000
H 	H 	0.60520 0.52440 0.46580 -0.02400
C 	C 	0.53100 0.46970 0.36660 0.12900
C 	C 	0.42000 0.46140 0.31940 0.11100
H 	H 	0.39920 0.42040 0.27790 -0.01000
C 	C 	0.34500 0.51640 0.33760 -0.21300
H 	H 	0.27190 0.51120 0.30740 0.08900
C 	C 	0.61700 0.41290 0.35110 -0.07500
C 	C 	0.65400 0.38330 0.28800 0.01900
H 	H 	0.62660 0.40130 0.25670 0.03600
C 	C 	0.72920 0.32820 0.27050 -0.10500
C 	C 	0.76780 0.29990 0.31500 0.04600
H 	H 	0.81610 0.26140 0.30270 0.03700
C 	C 	0.73360 0.32940 0.37970 -0.11800
C 	C 	0.65520 0.38460 0.39500 0.02700
H 	H 	0.62880 0.40240 0.43670 0.02900
C 	C 	0.77360 0.30010 0.43200 0.40900
C 	C 	0.76870 0.30050 0.20100 0.35400
N 	N 	0.61370 0.41440 0.09830 -0.25200
C 	C 	0.50900 0.40700 0.12490 0.09500
H 	H 	0.49180 0.36570 0.12990 0.00500
C 	C 	0.43500 0.46080 0.14280 -0.15100
H 	H 	0.36750 0.45770 0.16230 0.08300
C 	C 	0.45990 0.52610 0.13150 0.14500
C 	C 	0.56000 0.52290 0.10450 -0.21400
H 	H 	0.58140 0.56050 0.09490 0.10300
C 	C 	0.63300 0.46660 0.09000 0.20800
H 	H 	0.70240 0.46960 0.07230 -0.06400
C 	C 	0.37830 0.58730 0.14960 -0.07900
C 	C 	0.33320 0.61200 0.21080 0.02400
H 	H 	0.35100 0.58970 0.23940 0.03400
C 	C 	0.26180 0.67000 0.22890 -0.11900
C 	C 	0.23150 0.70100 0.18520 0.06300
H 	H 	0.18440 0.74000 0.19780 0.03400
C 	C 	0.27020 0.67520 0.12230 -0.13700
C 	C 	0.34430 0.61910 0.10620 0.03600
H 	H 	0.37220 0.60210 0.06500 0.02600
C 	C 	0.21980 0.69340 0.29590 0.36400
C 	C 	0.24080 0.70670 0.07380 0.39700
C 	C 	0.35800 0.52700 0.40700 0.47700
H 	H 	0.29090 0.52340 0.42670 -0.15100
C 	C 	0.43200 0.47300 0.39400 -0.43500
H 	H 	0.41290 0.43620 0.40530 0.18000
C 	C 	0.55600 0.53460 0.35300 -0.21300
H 	H 	0.62320 0.53880 0.33390 0.10500
C 	C 	0.47200 0.58780 0.37040 0.18000
H 	H 	0.48400 0.62900 0.36430 -0.02600
C 	C 	0.51900 0.41860 0.05220 -0.03500
H 	H 	0.50500 0.38150 0.00790 0.04400
C 	C 	0.44300 0.47400 0.06600 -0.04300
H 	H 	0.38240 0.47590 0.03220 0.04200
C 	C 	0.56400 0.53300 0.17760 -0.04000
H 	H 	0.58330 0.57360 0.21950 0.04300
C 	C 	0.63900 0.47750 0.16000 -0.04900
H 	H 	0.71110 0.48250 0.19040 0.03200
