data_crystal

_cell_length_a 16.84600
_cell_length_b 14.17900
_cell_length_c 18.75400
_cell_angle_alpha 90.00000
_cell_angle_beta  97.70100
_cell_angle_gamma 90.00000

_symmetry_space_group_name_	'P 1'
_symmetry_space_group_name_H-M	'P 1'

loop_
_symmetry_equiv_pos_as_xyz
  x,y,z

loop_
_atom_site_label
_atom_site_type_symbol
_atom_site_fract_x
_atom_site_fract_y
_atom_site_fract_z
_atom_site_charge
C 	C 	0.30800 0.62540 0.97021 -0.15600
H 	H 	0.25520 0.60630 0.97000 0.08800
C 	C 	0.36405 0.60300 0.02657 0.15300
C 	C 	0.44117 0.63083 0.02683 0.02600
H 	H 	0.47960 0.61540 0.06540 0.02100
Co	Co	0.04017 0.71858 0.16799 1.17500
C 	C 	0.16253 0.56310 0.19682 0.37100
O 	O 	0.12882 0.62831 0.15898 -0.43600
O 	O 	0.13927 0.53032 0.25142 -0.30400
H 	H 	0.95650 0.59040 0.22880 0.18900
C 	C 	0.46225 0.68119 0.97074 -0.18100
H 	H 	0.51510 0.70030 0.97090 0.05900
N 	N 	0.40621 0.70366 0.91438 -0.34200
C 	C 	0.32909 0.67578 0.91412 0.13500
H 	H 	0.29070 0.69120 0.87550 -0.00600
C 	C 	0.39798 0.33720 0.20394 0.40200
O 	O 	0.45149 0.31074 0.16773 -0.47600
O 	O 	0.38310 0.29900 0.26076 -0.41500
C 	C 	0.35057 0.42050 0.17446 -0.13100
C 	C 	0.28115 0.45090 0.20202 0.05500
H 	H 	0.26380 0.41940 0.24060 0.03500
C 	C 	0.23881 0.52800 0.17147 -0.11300
C 	C 	0.26709 0.57610 0.11581 0.02400
H 	H 	0.23910 0.62870 0.09660 0.03600
C 	C 	0.33606 0.54870 0.08739 -0.07900
C 	C 	0.37574 0.46970 0.11698 0.03200
H 	H 	0.42080 0.44850 0.09800 0.02800
N 	N 	0.43648 0.70101 0.92183 0.13600
C 	C 	0.37584 0.70142 0.03320 -0.18500
H 	H 	0.35990 0.73390 0.07200 0.09600
C 	C 	0.41235 0.75036 0.98068 0.15300
H 	H 	0.42050 0.81510 0.98480 -0.04700
C 	C 	0.42410 0.60273 0.91551 0.07100
H 	H 	0.44000 0.57020 0.87670 0.00500
C 	C 	0.38757 0.55379 0.96803 -0.13800
H 	H 	0.37940 0.48900 0.96390 0.07900
Ni	Ni	0.95983 0.71858 0.33201 1.08500
C 	C 	0.80800 0.12540 0.97021 -0.11700
H 	H 	0.75520 0.10630 0.97000 0.07100
C 	C 	0.86405 0.10300 0.02657 0.13900
C 	C 	0.94117 0.13083 0.02683 0.02300
H 	H 	0.97960 0.11540 0.06540 0.00900
Co	Co	0.54017 0.21858 0.16799 1.16600
C 	C 	0.66253 0.06310 0.19682 0.37100
O 	O 	0.62882 0.12831 0.15898 -0.44200
O 	O 	0.63927 0.03032 0.25142 -0.31200
H 	H 	0.45650 0.09040 0.22880 0.22100
C 	C 	0.96225 0.18119 0.97074 -0.17700
H 	H 	0.01510 0.20030 0.97090 0.08800
N 	N 	0.90621 0.20366 0.91438 -0.23100
C 	C 	0.82909 0.17578 0.91412 0.07200
H 	H 	0.79070 0.19120 0.87550 0.01400
C 	C 	0.89798 0.83720 0.20394 0.40400
O 	O 	0.95149 0.81074 0.16773 -0.49700
O 	O 	0.88310 0.79900 0.26076 -0.42400
C 	C 	0.85057 0.92050 0.17446 -0.13800
C 	C 	0.78115 0.95090 0.20202 0.05800
H 	H 	0.76380 0.91940 0.24060 0.03100
C 	C 	0.73881 0.02800 0.17147 -0.11800
C 	C 	0.76709 0.07610 0.11581 0.02300
H 	H 	0.73910 0.12870 0.09660 0.03500
C 	C 	0.83606 0.04870 0.08739 -0.07900
C 	C 	0.87574 0.96970 0.11698 0.03300
H 	H 	0.92080 0.94850 0.09800 0.02000
N 	N 	0.93648 0.20101 0.92183 0.02400
C 	C 	0.87584 0.20142 0.03320 -0.18100
H 	H 	0.85990 0.23390 0.07200 0.09200
C 	C 	0.91235 0.25036 0.98068 0.14300
H 	H 	0.92050 0.31510 0.98480 -0.05000
C 	C 	0.92410 0.10273 0.91551 0.07900
H 	H 	0.94000 0.07020 0.87670 -0.00800
C 	C 	0.88757 0.05379 0.96803 -0.14600
H 	H 	0.87940 0.98900 0.96390 0.07600
Ni	Ni	0.45983 0.21858 0.33201 1.09700
C 	C 	0.69200 0.62540 0.52979 -0.15500
H 	H 	0.74480 0.60630 0.53000 0.08300
C 	C 	0.63595 0.60300 0.47343 0.15100
C 	C 	0.55883 0.63083 0.47317 0.02000
H 	H 	0.52040 0.61540 0.43460 0.02200
C 	C 	0.83747 0.56310 0.30318 0.36700
O 	O 	0.87118 0.62831 0.34102 -0.43500
O 	O 	0.86073 0.53032 0.24858 -0.31400
H 	H 	0.04350 0.59040 0.27120 0.21900
C 	C 	0.53775 0.68119 0.52926 -0.17300
H 	H 	0.48490 0.70030 0.52910 0.06000
N 	N 	0.59379 0.70366 0.58562 -0.33100
C 	C 	0.67091 0.67578 0.58588 0.13300
H 	H 	0.70930 0.69120 0.62450 -0.00700
C 	C 	0.60202 0.33720 0.29606 0.40000
O 	O 	0.54851 0.31074 0.33227 -0.46500
O 	O 	0.61690 0.29900 0.23924 -0.42500
C 	C 	0.64943 0.42050 0.32554 -0.13200
C 	C 	0.71885 0.45090 0.29798 0.05500
H 	H 	0.73620 0.41940 0.25940 0.03100
C 	C 	0.76119 0.52800 0.32853 -0.11700
C 	C 	0.73291 0.57610 0.38419 0.02300
H 	H 	0.76090 0.62870 0.40340 0.03500
C 	C 	0.66394 0.54870 0.41261 -0.08000
C 	C 	0.62426 0.46970 0.38302 0.03100
H 	H 	0.57920 0.44850 0.40200 0.02800
N 	N 	0.56352 0.70101 0.57817 0.13100
C 	C 	0.62416 0.70142 0.46680 -0.18100
H 	H 	0.64010 0.73390 0.42800 0.09500
C 	C 	0.58765 0.75036 0.51932 0.14900
H 	H 	0.57950 0.81510 0.51520 -0.04200
C 	C 	0.57590 0.60273 0.58449 0.06900
H 	H 	0.56000 0.57020 0.62330 0.00700
C 	C 	0.61243 0.55379 0.53197 -0.13600
H 	H 	0.62060 0.48900 0.53610 0.07700
C 	C 	0.19200 0.12540 0.52979 -0.19600
H 	H 	0.24480 0.10630 0.53000 0.09900
C 	C 	0.13595 0.10300 0.47343 0.16500
C 	C 	0.05883 0.13083 0.47317 0.02200
H 	H 	0.02040 0.11540 0.43460 0.03400
C 	C 	0.33747 0.06310 0.30318 0.36800
O 	O 	0.37118 0.12831 0.34102 -0.42800
O 	O 	0.36073 0.03032 0.24858 -0.30900
H 	H 	0.54350 0.09040 0.27120 0.22200
C 	C 	0.03775 0.18119 0.52926 -0.17700
H 	H 	0.98490 0.20030 0.52910 0.03200
N 	N 	0.09379 0.20366 0.58562 -0.44300
C 	C 	0.17091 0.17578 0.58588 0.19600
H 	H 	0.20930 0.19120 0.62450 -0.02700
C 	C 	0.10202 0.83720 0.29606 0.39800
O 	O 	0.04851 0.81074 0.33227 -0.44600
O 	O 	0.11690 0.79900 0.23924 -0.41900
C 	C 	0.14943 0.92050 0.32554 -0.12500
C 	C 	0.21885 0.95090 0.29798 0.05400
H 	H 	0.23620 0.91940 0.25940 0.03400
C 	C 	0.26119 0.02800 0.32853 -0.11300
C 	C 	0.23291 0.07610 0.38419 0.02500
H 	H 	0.26090 0.12870 0.40340 0.03500
C 	C 	0.16394 0.04870 0.41261 -0.08100
C 	C 	0.12426 0.96970 0.38302 0.03100
H 	H 	0.07920 0.94850 0.40200 0.03500
N 	N 	0.06352 0.20101 0.57817 0.24500
C 	C 	0.12416 0.20142 0.46680 -0.18400
H 	H 	0.14010 0.23390 0.42800 0.09900
C 	C 	0.08765 0.25036 0.51932 0.15800
H 	H 	0.07950 0.31510 0.51520 -0.03800
C 	C 	0.07590 0.10273 0.58449 0.06100
H 	H 	0.06000 0.07020 0.62330 0.02000
C 	C 	0.11243 0.05379 0.53197 -0.12700
H 	H 	0.12060 0.98900 0.53610 0.07900
C 	C 	0.69200 0.37460 0.02979 -0.15500
H 	H 	0.74480 0.39370 0.03000 0.08300
C 	C 	0.63595 0.39700 0.97343 0.15100
C 	C 	0.55883 0.36917 0.97317 0.02500
H 	H 	0.52040 0.38460 0.93460 0.02000
Co	Co	0.95983 0.28142 0.83201 1.15300
C 	C 	0.83747 0.43690 0.80318 0.37100
O 	O 	0.87118 0.37169 0.84102 -0.44700
O 	O 	0.86073 0.46968 0.74858 -0.31600
H 	H 	0.04350 0.40960 0.77120 0.21800
C 	C 	0.53775 0.31881 0.02926 -0.18100
H 	H 	0.48490 0.29970 0.02910 0.06000
N 	N 	0.59379 0.29634 0.08562 -0.34300
C 	C 	0.67091 0.32422 0.08588 0.13400
H 	H 	0.70930 0.30880 0.12450 -0.00800
C 	C 	0.60202 0.66280 0.79606 0.40200
O 	O 	0.54851 0.68926 0.83227 -0.47600
O 	O 	0.61690 0.70100 0.73924 -0.41700
C 	C 	0.64943 0.57950 0.82554 -0.13300
C 	C 	0.71885 0.54910 0.79798 0.05600
H 	H 	0.73620 0.58060 0.75940 0.03100
C 	C 	0.76119 0.47200 0.82853 -0.11900
C 	C 	0.73291 0.42390 0.88419 0.02400
H 	H 	0.76090 0.37130 0.90340 0.03400
C 	C 	0.66394 0.45130 0.91261 -0.08100
C 	C 	0.62426 0.53030 0.88302 0.03200
H 	H 	0.57920 0.55150 0.90200 0.02700
N 	N 	0.56352 0.29899 0.07817 0.13700
C 	C 	0.62416 0.29858 0.96680 -0.18500
H 	H 	0.64010 0.26610 0.92800 0.09600
C 	C 	0.58765 0.24964 0.01932 0.15400
H 	H 	0.57950 0.18490 0.01520 -0.04700
C 	C 	0.57590 0.39727 0.08449 0.07100
H 	H 	0.56000 0.42980 0.12330 0.00500
C 	C 	0.61243 0.44621 0.03197 -0.13700
H 	H 	0.62060 0.51100 0.03610 0.07800
Ni	Ni	0.04017 0.28142 0.66799 1.10600
C 	C 	0.19200 0.87460 0.02979 -0.19400
H 	H 	0.24480 0.89370 0.03000 0.09800
C 	C 	0.13595 0.89700 0.97343 0.16400
C 	C 	0.05883 0.86917 0.97317 0.02600
H 	H 	0.02040 0.88460 0.93460 0.03200
Co	Co	0.45983 0.78142 0.83201 1.16600
C 	C 	0.33747 0.93690 0.80318 0.37100
O 	O 	0.37118 0.87169 0.84102 -0.44100
O 	O 	0.36073 0.96968 0.74858 -0.31100
H 	H 	0.54350 0.90960 0.77120 0.22100
C 	C 	0.03775 0.81881 0.02926 -0.18500
H 	H 	0.98490 0.79970 0.02910 0.03200
N 	N 	0.09379 0.79634 0.08562 -0.45100
C 	C 	0.17091 0.82422 0.08588 0.19600
H 	H 	0.20930 0.80880 0.12450 -0.02800
C 	C 	0.10202 0.16280 0.79606 0.39900
O 	O 	0.04851 0.18926 0.83227 -0.45700
O 	O 	0.11690 0.20100 0.73924 -0.41000
C 	C 	0.14943 0.07950 0.82554 -0.12700
C 	C 	0.21885 0.04910 0.79798 0.05500
H 	H 	0.23620 0.08060 0.75940 0.03400
C 	C 	0.26119 0.97200 0.82853 -0.11600
C 	C 	0.23291 0.92390 0.88419 0.02600
H 	H 	0.26090 0.87130 0.90340 0.03500
C 	C 	0.16394 0.95130 0.91261 -0.08200
C 	C 	0.12426 0.03030 0.88302 0.03200
H 	H 	0.07920 0.05150 0.90200 0.03500
N 	N 	0.06352 0.79899 0.07817 0.24700
C 	C 	0.12416 0.79858 0.96680 -0.18800
H 	H 	0.14010 0.76610 0.92800 0.10000
C 	C 	0.08765 0.74964 0.01932 0.16300
H 	H 	0.07950 0.68490 0.01520 -0.04300
C 	C 	0.07590 0.89727 0.08449 0.06300
H 	H 	0.06000 0.92980 0.12330 0.01800
C 	C 	0.11243 0.94621 0.03197 -0.12800
H 	H 	0.12060 0.01100 0.03610 0.07900
Ni	Ni	0.54017 0.78142 0.66799 1.09800
C 	C 	0.30800 0.37460 0.47021 -0.15600
H 	H 	0.25520 0.39370 0.47000 0.08700
C 	C 	0.36405 0.39700 0.52657 0.15200
C 	C 	0.44117 0.36917 0.52683 0.02000
H 	H 	0.47960 0.38460 0.56540 0.02200
C 	C 	0.16253 0.43690 0.69682 0.36700
O 	O 	0.12882 0.37169 0.65898 -0.42300
O 	O 	0.13927 0.46968 0.75142 -0.30200
H 	H 	0.95650 0.40960 0.72880 0.18900
C 	C 	0.46225 0.31881 0.47074 -0.17300
H 	H 	0.51510 0.29970 0.47090 0.06000
N 	N 	0.40621 0.29634 0.41438 -0.33200
C 	C 	0.32909 0.32422 0.41412 0.13300
H 	H 	0.29070 0.30880 0.37550 -0.00400
C 	C 	0.39798 0.66280 0.70394 0.40000
O 	O 	0.45149 0.68926 0.66773 -0.46500
O 	O 	0.38310 0.70100 0.76076 -0.42300
C 	C 	0.35057 0.57950 0.67446 -0.12900
C 	C 	0.28115 0.54910 0.70202 0.05400
H 	H 	0.26380 0.58060 0.74060 0.03500
C 	C 	0.23881 0.47200 0.67147 -0.11100
C 	C 	0.26709 0.42390 0.61581 0.02300
H 	H 	0.23910 0.37130 0.59660 0.03700
C 	C 	0.33606 0.45130 0.58739 -0.07800
C 	C 	0.37574 0.53030 0.61698 0.03100
H 	H 	0.42080 0.55150 0.59800 0.02800
N 	N 	0.43648 0.29899 0.42183 0.13200
C 	C 	0.37584 0.29858 0.53320 -0.18200
H 	H 	0.35990 0.26610 0.57200 0.09500
C 	C 	0.41235 0.24964 0.48068 0.14900
H 	H 	0.42050 0.18490 0.48480 -0.04200
C 	C 	0.42410 0.39727 0.41551 0.07000
H 	H 	0.44000 0.42980 0.37670 0.00700
C 	C 	0.38757 0.44621 0.46803 -0.13600
H 	H 	0.37940 0.51100 0.46390 0.07800
C 	C 	0.80800 0.87460 0.47021 -0.11600
H 	H 	0.75520 0.89370 0.47000 0.07100
C 	C 	0.86405 0.89700 0.52657 0.13800
C 	C 	0.94117 0.86917 0.52683 0.01800
H 	H 	0.97960 0.88460 0.56540 0.01100
C 	C 	0.66253 0.93690 0.69682 0.36700
O 	O 	0.62882 0.87169 0.65898 -0.42900
O 	O 	0.63927 0.96968 0.75142 -0.31000
H 	H 	0.45650 0.90960 0.72880 0.22200
C 	C 	0.96225 0.81881 0.47074 -0.16900
H 	H 	0.01510 0.79970 0.47090 0.08800
N 	N 	0.90621 0.79634 0.41438 -0.22100
C 	C 	0.82909 0.82422 0.41412 0.07000
H 	H 	0.79070 0.80880 0.37550 0.01500
C 	C 	0.89798 0.16280 0.70394 0.40300
O 	O 	0.95149 0.18926 0.66773 -0.48600
O 	O 	0.88310 0.20100 0.76076 -0.43200
C 	C 	0.85057 0.07950 0.67446 -0.13600
C 	C 	0.78115 0.04910 0.70202 0.05600
H 	H 	0.76380 0.08060 0.74060 0.03200
C 	C 	0.73881 0.97200 0.67147 -0.11600
C 	C 	0.76709 0.92390 0.61581 0.02100
H 	H 	0.73910 0.87130 0.59660 0.03600
C 	C 	0.83606 0.95130 0.58739 -0.07800
C 	C 	0.87574 0.03030 0.61698 0.03100
H 	H 	0.92080 0.05150 0.59800 0.02100
N 	N 	0.93648 0.79899 0.42183 0.01900
C 	C 	0.87584 0.79858 0.53320 -0.17900
H 	H 	0.85990 0.76610 0.57200 0.09100
C 	C 	0.91235 0.74964 0.48068 0.13900
H 	H 	0.92050 0.68490 0.48480 -0.04600
C 	C 	0.92410 0.89727 0.41551 0.07700
H 	H 	0.94000 0.92980 0.37670 -0.00600
C 	C 	0.88757 0.94621 0.46803 -0.14400
H 	H 	0.87940 0.01100 0.46390 0.07600
O 	O 	-0.00000 0.63045 0.25000 -0.62900
O 	O 	0.50000 0.13045 0.25000 -0.67400
O 	O 	-0.00000 0.36955 0.75000 -0.62800
O 	O 	0.50000 0.86955 0.75000 -0.67400
