data_crystal

_cell_length_a 12.22800
_cell_length_b 13.65400
_cell_length_c 16.95800
_cell_angle_alpha 77.04000
_cell_angle_beta  71.34000
_cell_angle_gamma 87.90000

_symmetry_space_group_name_	'P 1'
_symmetry_space_group_name_H-M	'P 1'

loop_
_symmetry_equiv_pos_as_xyz
  x,y,z

loop_
_atom_site_label
_atom_site_type_symbol
_atom_site_fract_x
_atom_site_fract_y
_atom_site_fract_z
_atom_site_charge
Co	Co	0.72538 0.63192 0.88435 1.17200
Co	Co	0.76628 0.62956 0.63827 1.17400
H 	H 	0.57250 0.81350 0.90600 -0.00500
H 	H 	0.58120 0.97880 0.90820 0.09100
H 	H 	0.92550 0.97350 0.82170 0.09700
H 	H 	0.90560 0.80830 0.82490 -0.01000
H 	H 	0.84130 0.13270 0.84620 0.06200
H 	H 	0.61060 0.12880 0.93200 0.06000
H 	H 	0.86810 0.28160 0.88530 0.09500
H 	H 	0.87460 0.44660 0.87870 -0.01400
H 	H 	0.54250 0.45860 0.92950 -0.00100
H 	H 	0.52510 0.29290 0.93750 0.11300
H 	H 	0.94450 0.62920 0.06780 0.04400
H 	H 	0.96790 0.63460 0.19500 0.05800
H 	H 	0.60220 0.61810 0.17450 0.06300
H 	H 	0.88480 0.64130 0.34780 0.06400
H 	H 	0.54150 0.62360 0.45860 0.04500
H 	H 	0.51680 0.61180 0.33270 0.06200
H 	H 	0.47000 0.62510 0.67630 0.06800
H 	H 	0.16330 0.64570 0.91950 0.06600
H 	H 	0.34930 0.64780 0.92160 0.04400
H 	H 	0.02420 0.64090 0.83840 0.05900
H 	H 	0.14700 0.63070 0.59070 0.03700
H 	H 	0.33130 0.62640 0.59550 0.07300
H 	H 	0.58840 0.79350 0.67030 -0.01000
H 	H 	0.57060 0.95580 0.68490 0.09400
H 	H 	0.91560 0.98610 0.59670 0.09000
H 	H 	0.92190 0.81990 0.58760 -0.00600
H 	H 	0.65790 0.11840 0.67400 0.05800
H 	H 	0.88820 0.13990 0.60910 0.06400
H 	H 	0.63730 0.26080 0.71910 0.09200
H 	H 	0.62650 0.42600 0.72630 -0.00200
H 	H 	0.94460 0.47760 0.57860 0.00400
H 	H 	0.96290 0.31310 0.56730 0.11500
C 	C 	0.64450 0.84560 0.89040 0.10600
C 	C 	0.64930 0.94510 0.89180 -0.18300
C 	C 	0.75530 0.99650 0.86880 0.13100
C 	C 	0.85230 0.94270 0.84110 -0.19200
C 	C 	0.83890 0.84350 0.84270 0.11700
C 	C 	0.76760 0.10270 0.87140 -0.09000
C 	C 	0.68400 0.15930 0.90590 -0.09400
C 	C 	0.69560 0.26560 0.90700 0.13500
C 	C 	0.80030 0.31670 0.89270 -0.19200
C 	C 	0.80330 0.41530 0.88960 0.11200
C 	C 	0.60940 0.42210 0.91920 0.12100
C 	C 	0.59800 0.32280 0.92360 -0.19600
C 	C 	0.75490 0.62030 0.02670 0.28700
C 	C 	0.76820 0.62380 0.11020 -0.05400
C 	C 	0.88030 0.62850 0.11570 -0.00200
C 	C 	0.89380 0.63210 0.19140 -0.08300
C 	C 	0.79860 0.63210 0.26420 0.03100
C 	C 	0.68600 0.62410 0.25980 0.02700
C 	C 	0.67550 0.62150 0.17930 -0.05000
C 	C 	0.81110 0.63650 0.34400 -0.05400
C 	C 	0.71790 0.63400 0.41470 -0.05300
C 	C 	0.60550 0.62530 0.41040 -0.00600
C 	C 	0.59110 0.61930 0.33470 -0.08200
C 	C 	0.73110 0.63790 0.49950 0.29100
C 	C 	0.54990 0.62800 0.80210 0.37100
C 	C 	0.42940 0.63290 0.79820 -0.08400
C 	C 	0.40830 0.62960 0.72450 -0.04700
C 	C 	0.29430 0.63280 0.72000 0.03900
C 	C 	0.20070 0.63860 0.79360 0.02200
C 	C 	0.22420 0.64270 0.87040 -0.08300
C 	C 	0.33500 0.64210 0.87210 0.01200
C 	C 	0.08630 0.63860 0.78990 -0.03000
C 	C 	0.06710 0.63530 0.71540 -0.10200
C 	C 	0.16050 0.63180 0.64150 0.03000
C 	C 	0.27040 0.62980 0.64450 -0.10000
C 	C 	0.94510 0.63580 0.71300 0.39500
C 	C 	0.65560 0.83230 0.65660 0.10200
C 	C 	0.64350 0.93060 0.66490 -0.18100
C 	C 	0.74100 0.99060 0.64320 0.12300
C 	C 	0.84730 0.94790 0.61310 -0.17300
C 	C 	0.85030 0.84720 0.60790 0.09700
C 	C 	0.73210 0.09670 0.65150 -0.07900
C 	C 	0.81370 0.16100 0.63130 -0.09600
C 	C 	0.80210 0.26600 0.63980 0.13300
C 	C 	0.70130 0.30400 0.68870 -0.17800
C 	C 	0.69480 0.40420 0.69260 0.10200
C 	C 	0.88060 0.43380 0.60620 0.10400
C 	C 	0.89270 0.33370 0.59950 -0.18900
N 	N 	0.73840 0.79310 0.86760 -0.23600
N 	N 	0.70980 0.47190 0.90120 -0.24200
N 	N 	0.75640 0.78840 0.63030 -0.24000
N 	N 	0.78220 0.47070 0.65020 -0.23200
O 	O 	0.84250 0.61740 0.96351 -0.36000
O 	O 	0.65480 0.62390 0.01931 -0.37400
O 	O 	0.64620 0.63270 0.56400 -0.36800
O 	O 	0.83300 0.64780 0.50216 -0.37300
O 	O 	0.56660 0.65030 0.86662 -0.42400
O 	O 	0.62710 0.60020 0.74400 -0.46700
O 	O 	0.86360 0.63990 0.77885 -0.48000
O 	O 	0.93070 0.63270 0.64366 -0.43400
Co	Co	0.27462 0.36808 0.11565 1.17100
Co	Co	0.23372 0.37044 0.36173 1.17300
H 	H 	0.42750 0.18650 0.09400 -0.00500
H 	H 	0.41880 0.02120 0.09180 0.09100
H 	H 	0.07450 0.02650 0.17830 0.09700
H 	H 	0.09440 0.19170 0.17510 -0.01000
H 	H 	0.15870 0.86730 0.15380 0.06200
H 	H 	0.38940 0.87120 0.06800 0.06000
H 	H 	0.13190 0.71840 0.11470 0.09500
H 	H 	0.12540 0.55340 0.12130 -0.01400
H 	H 	0.45750 0.54140 0.07050 -0.00100
H 	H 	0.47490 0.70710 0.06250 0.11300
H 	H 	0.05550 0.37080 0.93220 0.04400
H 	H 	0.03210 0.36540 0.80500 0.05800
H 	H 	0.39780 0.38190 0.82550 0.06300
H 	H 	0.11520 0.35870 0.65220 0.06400
H 	H 	0.45850 0.37640 0.54140 0.04500
H 	H 	0.48320 0.38820 0.66730 0.06200
H 	H 	0.53000 0.37490 0.32370 0.06800
H 	H 	0.83670 0.35430 0.08050 0.06600
H 	H 	0.65070 0.35220 0.07840 0.04400
H 	H 	0.97580 0.35910 0.16160 0.05900
H 	H 	0.85300 0.36930 0.40930 0.03700
H 	H 	0.66870 0.37360 0.40450 0.07300
H 	H 	0.41160 0.20650 0.32970 -0.01000
H 	H 	0.42940 0.04420 0.31510 0.09400
H 	H 	0.08440 0.01390 0.40330 0.09000
H 	H 	0.07810 0.18010 0.41240 -0.00600
H 	H 	0.34210 0.88160 0.32600 0.05800
H 	H 	0.11180 0.86010 0.39090 0.06400
H 	H 	0.36270 0.73920 0.28090 0.09200
H 	H 	0.37350 0.57400 0.27370 -0.00200
H 	H 	0.05540 0.52240 0.42140 0.00400
H 	H 	0.03710 0.68690 0.43270 0.11500
C 	C 	0.35550 0.15440 0.10960 0.10600
C 	C 	0.35070 0.05490 0.10820 -0.18300
C 	C 	0.24470 0.00350 0.13120 0.13100
C 	C 	0.14770 0.05730 0.15890 -0.19200
C 	C 	0.16110 0.15650 0.15730 0.11700
C 	C 	0.23240 0.89730 0.12860 -0.09000
C 	C 	0.31600 0.84070 0.09410 -0.09400
C 	C 	0.30440 0.73440 0.09300 0.13500
C 	C 	0.19970 0.68330 0.10730 -0.19200
C 	C 	0.19670 0.58470 0.11040 0.11200
C 	C 	0.39060 0.57790 0.08080 0.12100
C 	C 	0.40200 0.67720 0.07640 -0.19600
C 	C 	0.24510 0.37970 0.97330 0.28700
C 	C 	0.23180 0.37620 0.88980 -0.05400
C 	C 	0.11970 0.37150 0.88430 -0.00200
C 	C 	0.10620 0.36790 0.80860 -0.08300
C 	C 	0.20140 0.36790 0.73580 0.03100
C 	C 	0.31400 0.37590 0.74020 0.02700
C 	C 	0.32450 0.37850 0.82070 -0.05000
C 	C 	0.18890 0.36350 0.65600 -0.05400
C 	C 	0.28210 0.36600 0.58530 -0.05300
C 	C 	0.39450 0.37470 0.58960 -0.00600
C 	C 	0.40890 0.38070 0.66530 -0.08200
C 	C 	0.26890 0.36210 0.50050 0.29100
C 	C 	0.45010 0.37200 0.19790 0.37100
C 	C 	0.57060 0.36710 0.20180 -0.08400
C 	C 	0.59170 0.37040 0.27550 -0.04700
C 	C 	0.70570 0.36720 0.28000 0.03900
C 	C 	0.79930 0.36140 0.20640 0.02200
C 	C 	0.77580 0.35730 0.12960 -0.08300
C 	C 	0.66500 0.35790 0.12790 0.01200
C 	C 	0.91370 0.36140 0.21010 -0.03000
C 	C 	0.93290 0.36470 0.28460 -0.10200
C 	C 	0.83950 0.36820 0.35850 0.03000
C 	C 	0.72960 0.37020 0.35550 -0.10000
C 	C 	0.05490 0.36420 0.28700 0.39500
C 	C 	0.34440 0.16770 0.34340 0.10200
C 	C 	0.35650 0.06940 0.33510 -0.18100
C 	C 	0.25900 0.00940 0.35680 0.12300
C 	C 	0.15270 0.05210 0.38690 -0.17300
C 	C 	0.14970 0.15280 0.39210 0.09700
C 	C 	0.26790 0.90330 0.34850 -0.07900
C 	C 	0.18630 0.83900 0.36870 -0.09600
C 	C 	0.19790 0.73400 0.36020 0.13300
C 	C 	0.29870 0.69600 0.31130 -0.17800
C 	C 	0.30520 0.59580 0.30740 0.10200
C 	C 	0.11940 0.56620 0.39380 0.10400
C 	C 	0.10730 0.66630 0.40050 -0.18900
N 	N 	0.26160 0.20690 0.13240 -0.23600
N 	N 	0.29020 0.52810 0.09880 -0.24200
N 	N 	0.24360 0.21160 0.36970 -0.24000
N 	N 	0.21780 0.52930 0.34980 -0.23200
O 	O 	0.15750 0.38260 0.03649 -0.36000
O 	O 	0.34520 0.37610 0.98069 -0.37400
O 	O 	0.35380 0.36730 0.43600 -0.36800
O 	O 	0.16700 0.35220 0.49784 -0.37300
O 	O 	0.43340 0.34970 0.13338 -0.42400
O 	O 	0.37290 0.39980 0.25600 -0.46700
O 	O 	0.13640 0.36010 0.22115 -0.48000
O 	O 	0.06930 0.36730 0.35634 -0.43400
