data_crystal

_cell_length_a 9.74600
_cell_length_b 9.74600
_cell_length_c 9.74600
_cell_angle_alpha 79.56160
_cell_angle_beta  79.56160
_cell_angle_gamma 79.56160

_symmetry_space_group_name_	'P 1'
_symmetry_space_group_name_H-M	'P 1'

loop_
_symmetry_equiv_pos_as_xyz
  x,y,z

loop_
_atom_site_label
_atom_site_type_symbol
_atom_site_fract_x
_atom_site_fract_y
_atom_site_fract_z
_atom_site_charge
Eu	Eu	0.50000 0.01164 0.98836 1.75900
Eu	Eu	0.98836 0.50000 0.01164 1.75900
Eu	Eu	0.01164 0.98836 0.50000 1.75900
H 	H 	0.42495 0.57505 -0.00000 0.02600
H 	H 	0.00000 0.42495 0.57505 0.02600
H 	H 	0.57505 0.00000 0.42495 0.02600
C 	C 	0.66665 0.66555 0.00375 0.41600
C 	C 	0.63641 0.52011 0.00021 -0.07700
C 	C 	0.00375 0.66665 0.66555 0.41600
C 	C 	0.00021 0.63641 0.52011 -0.07700
C 	C 	0.66555 0.00375 0.66665 0.41600
C 	C 	0.52011 0.00021 0.63641 -0.07700
C 	C 	0.33445 0.33335 0.99625 0.41500
C 	C 	0.47989 0.36359 0.99979 -0.07800
C 	C 	0.33335 0.99625 0.33445 0.41500
C 	C 	0.36359 0.99979 0.47989 -0.07800
C 	C 	0.99625 0.33445 0.33335 0.41500
C 	C 	0.99979 0.47989 0.36359 -0.07800
C 	C 	0.49945 0.50055 -0.00000 0.00600
C 	C 	0.71835 0.28165 -0.00000 0.24900
C 	C 	-0.00000 0.49945 0.50055 0.00600
C 	C 	-0.00000 0.71835 0.28165 0.24900
C 	C 	0.50055 0.00000 0.49945 0.00600
C 	C 	0.28165 0.00000 0.71835 0.24900
N 	N 	0.74488 0.41588 0.00068 -0.21700
N 	N 	0.00068 0.74488 0.41588 -0.21700
N 	N 	0.41588 0.00068 0.74488 -0.21700
N 	N 	0.58412 0.25512 0.99932 -0.21700
N 	N 	0.25512 0.99932 0.58412 -0.21700
N 	N 	0.99932 0.58412 0.25512 -0.21700
O 	O 	0.57006 0.76616 0.98536 -0.49600
O 	O 	0.78712 0.67422 0.02752 -0.50200
O 	O 	0.98536 0.57006 0.76616 -0.49600
O 	O 	0.02752 0.78712 0.67422 -0.50200
O 	O 	0.76616 0.98536 0.57006 -0.49600
O 	O 	0.67422 0.02752 0.78712 -0.50200
O 	O 	0.23384 0.42994 0.01464 -0.49400
O 	O 	0.32578 0.21288 0.97248 -0.50100
O 	O 	0.42994 0.01464 0.23384 -0.49400
O 	O 	0.21288 0.97248 0.32578 -0.50100
O 	O 	0.01464 0.23384 0.42994 -0.49400
O 	O 	0.97248 0.32578 0.21288 -0.50100
O 	O 	0.81895 0.18105 -0.00000 -0.28900
O 	O 	-0.00000 0.81895 0.18105 -0.28900
O 	O 	0.18105 0.00000 0.81895 -0.28900
