data_crystal

_cell_length_a 21.89200
_cell_length_b 12.60900
_cell_length_c 23.26300
_cell_angle_alpha 90.00000
_cell_angle_beta  102.89400
_cell_angle_gamma 90.00000

_symmetry_space_group_name_	'P 1'
_symmetry_space_group_name_H-M	'P 1'

loop_
_symmetry_equiv_pos_as_xyz
  x,y,z

loop_
_atom_site_label
_atom_site_type_symbol
_atom_site_fract_x
_atom_site_fract_y
_atom_site_fract_z
_atom_site_charge
Cd	Cd	0.09450 0.67684 0.26545 1.23300
O 	O 	0.09957 0.39260 0.24380 -0.45800
O 	O 	0.15601 0.53360 0.27680 -0.45000
O 	O 	0.05068 0.83520 0.27186 -0.44000
N 	N 	0.31472 0.27340 0.24160 -0.20700
N 	N 	0.02490 0.39670 0.35420 -0.23100
N 	N 	0.07810 0.32560 0.66230 -0.23300
N 	N 	0.13570 0.69790 0.36910 -0.22100
C 	C 	0.14970 0.44040 0.25820 0.39600
C 	C 	0.20730 0.38250 0.25260 -0.07500
C 	C 	0.20350 0.28990 0.22130 -0.04500
H 	H 	0.16450 0.26200 0.20340 0.05400
C 	C 	0.25770 0.23800 0.21660 0.03000
H 	H 	0.25420 0.17550 0.19490 0.01600
C 	C 	0.31800 0.36380 0.27060 0.03700
H 	H 	0.35750 0.39060 0.28750 0.00900
C 	C 	0.26680 0.42020 0.27730 -0.04900
H 	H 	0.27190 0.48350 0.29830 0.05500
C 	C 	0.05370 0.05550 0.27410 -0.04300
H 	H 	0.09060 0.02020 0.29090 0.05300
C 	C 	0.05200 0.16440 0.27280 0.02500
H 	H 	0.08860 0.20150 0.28850 0.01500
C 	C 	0.08120 0.36540 0.38510 0.06000
H 	H 	0.11330 0.35570 0.36530 -0.00300
C 	C 	0.09330 0.34690 0.44470 -0.11900
H 	H 	0.13320 0.32570 0.46450 0.06700
C 	C 	0.04660 0.35970 0.47520 0.02100
C 	C 	0.98920 0.39040 0.44330 -0.10600
H 	H 	0.95620 0.39890 0.46200 0.07100
C 	C 	0.97990 0.40880 0.38410 0.08200
H 	H 	0.94040 0.43070 0.36370 -0.00100
C 	C 	0.05850 0.34300 0.53980 0.08300
C 	C 	0.11510 0.36740 0.57650 -0.15800
H 	H 	0.14790 0.39130 0.56050 0.08100
C 	C 	0.12380 0.35690 0.63590 0.08600
H 	H 	0.16310 0.37220 0.65930 -0.01100
C 	C 	0.02370 0.29960 0.62690 0.08100
H 	H 	0.99190 0.27480 0.64400 -0.00800
C 	C 	0.01180 0.30720 0.56670 -0.18200
H 	H 	0.97270 0.28850 0.54400 0.10500
C 	C 	0.16600 0.62050 0.40190 0.07700
H 	H 	0.15690 0.55100 0.38950 -0.00400
C 	C 	0.21030 0.63720 0.45360 -0.13600
H 	H 	0.22990 0.57960 0.47500 0.07200
C 	C 	0.22550 0.73890 0.47330 0.05400
C 	C 	0.19250 0.81800 0.43940 -0.13400
H 	H 	0.19980 0.88830 0.45100 0.07200
C 	C 	0.14880 0.79520 0.38870 0.07100
H 	H 	0.12750 0.85120 0.36710 0.00200
Cd	Cd	0.59450 0.17684 0.26545 1.23300
O 	O 	0.59957 0.89260 0.24380 -0.45700
O 	O 	0.65601 0.03360 0.27680 -0.44900
O 	O 	0.55068 0.33520 0.27186 -0.44100
N 	N 	0.81472 0.77340 0.24160 -0.20600
N 	N 	0.52490 0.89670 0.35420 -0.22600
N 	N 	0.57810 0.82560 0.66230 -0.23200
N 	N 	0.63570 0.19790 0.36910 -0.22100
C 	C 	0.64970 0.94040 0.25820 0.39500
C 	C 	0.70730 0.88250 0.25260 -0.07500
C 	C 	0.70350 0.78990 0.22130 -0.04500
H 	H 	0.66450 0.76200 0.20340 0.05500
C 	C 	0.75770 0.73800 0.21660 0.03000
H 	H 	0.75420 0.67550 0.19490 0.01600
C 	C 	0.81800 0.86380 0.27060 0.03700
H 	H 	0.85750 0.89060 0.28750 0.01100
C 	C 	0.76680 0.92020 0.27730 -0.04900
H 	H 	0.77190 0.98350 0.29830 0.05500
C 	C 	0.55370 0.55550 0.27410 -0.05100
H 	H 	0.59060 0.52020 0.29090 0.05600
C 	C 	0.55200 0.66440 0.27280 0.03200
H 	H 	0.58860 0.70150 0.28850 0.01300
C 	C 	0.58120 0.86540 0.38510 0.07200
H 	H 	0.61330 0.85570 0.36530 -0.00700
C 	C 	0.59330 0.84690 0.44470 -0.13600
H 	H 	0.63320 0.82570 0.46450 0.07300
C 	C 	0.54660 0.85970 0.47520 0.05600
C 	C 	0.48920 0.89040 0.44330 -0.13900
H 	H 	0.45620 0.89890 0.46200 0.08000
C 	C 	0.47990 0.90880 0.38410 0.07900
H 	H 	0.44040 0.93070 0.36370 -0.00300
C 	C 	0.55850 0.84300 0.53980 0.06200
C 	C 	0.61510 0.86740 0.57650 -0.14400
H 	H 	0.64790 0.89130 0.56050 0.07600
C 	C 	0.62380 0.85690 0.63590 0.07900
H 	H 	0.66310 0.87220 0.65930 -0.00800
C 	C 	0.52370 0.79960 0.62690 0.09300
H 	H 	0.49190 0.77480 0.64400 -0.02400
C 	C 	0.51180 0.80720 0.56670 -0.14900
H 	H 	0.47270 0.78850 0.54400 0.08300
C 	C 	0.66600 0.12050 0.40190 0.07700
H 	H 	0.65690 0.05100 0.38950 -0.00300
C 	C 	0.71030 0.13720 0.45360 -0.13500
H 	H 	0.72990 0.07960 0.47500 0.07300
C 	C 	0.72550 0.23890 0.47330 0.05500
C 	C 	0.69250 0.31800 0.43940 -0.13300
H 	H 	0.69980 0.38830 0.45100 0.07300
C 	C 	0.64880 0.29520 0.38870 0.07200
H 	H 	0.62750 0.35120 0.36710 0.00300
Cd	Cd	0.90550 0.67684 0.23455 1.23400
O 	O 	0.90043 0.39260 0.25620 -0.45100
O 	O 	0.84399 0.53360 0.22320 -0.44800
O 	O 	0.94932 0.83520 0.22814 -0.42800
N 	N 	0.68528 0.27340 0.25840 -0.20700
N 	N 	0.97510 0.39670 0.14580 -0.21900
N 	N 	0.92190 0.32560 0.83770 -0.23100
N 	N 	0.86430 0.69790 0.13090 -0.22000
C 	C 	0.85030 0.44040 0.24180 0.39400
C 	C 	0.79270 0.38250 0.24740 -0.07300
C 	C 	0.79650 0.28990 0.27870 -0.04600
H 	H 	0.83550 0.26200 0.29660 0.05600
C 	C 	0.74230 0.23800 0.28340 0.03100
H 	H 	0.74580 0.17550 0.30510 0.01600
C 	C 	0.68200 0.36380 0.22940 0.03800
H 	H 	0.64250 0.39060 0.21250 0.00900
C 	C 	0.73320 0.42020 0.22270 -0.05100
H 	H 	0.72810 0.48350 0.20170 0.05500
C 	C 	0.94630 0.05550 0.22590 -0.03000
H 	H 	0.90940 0.02020 0.20910 0.05100
C 	C 	0.94800 0.16440 0.22720 0.04100
H 	H 	0.91140 0.20150 0.21150 0.01200
C 	C 	0.91880 0.36540 0.11490 0.08500
H 	H 	0.88670 0.35570 0.13470 -0.01000
C 	C 	0.90670 0.34690 0.05530 -0.15300
H 	H 	0.86680 0.32570 0.03550 0.08000
C 	C 	0.95340 0.35970 0.02480 0.09000
C 	C 	0.01080 0.39040 0.05670 -0.17100
H 	H 	0.04380 0.39890 0.03800 0.08800
C 	C 	0.02010 0.40880 0.11590 0.07700
H 	H 	0.05960 0.43070 0.13630 -0.00300
C 	C 	0.94150 0.34300 0.96020 0.04100
C 	C 	0.88490 0.36740 0.92350 -0.13000
H 	H 	0.85210 0.39130 0.93950 0.07200
C 	C 	0.87620 0.35690 0.86410 0.07100
H 	H 	0.83690 0.37220 0.84070 -0.00500
C 	C 	0.97630 0.29960 0.87310 0.10600
H 	H 	0.00810 0.27480 0.85600 -0.03800
C 	C 	0.98820 0.30720 0.93330 -0.11500
H 	H 	0.02730 0.28850 0.95600 0.06200
C 	C 	0.83400 0.62050 0.09810 0.07700
H 	H 	0.84310 0.55100 0.11050 -0.00300
C 	C 	0.78970 0.63720 0.04640 -0.13400
H 	H 	0.77010 0.57960 0.02500 0.07200
C 	C 	0.77450 0.73890 0.02670 0.05300
C 	C 	0.80750 0.81800 0.06060 -0.13200
H 	H 	0.80020 0.88830 0.04900 0.07200
C 	C 	0.85120 0.79520 0.11130 0.07100
H 	H 	0.87250 0.85120 0.13290 0.00400
Cd	Cd	0.40550 0.17684 0.23455 1.23300
O 	O 	0.40043 0.89260 0.25620 -0.45700
O 	O 	0.34399 0.03360 0.22320 -0.44900
O 	O 	0.44932 0.33520 0.22814 -0.44100
N 	N 	0.18528 0.77340 0.25840 -0.20700
N 	N 	0.47510 0.89670 0.14580 -0.22600
N 	N 	0.42190 0.82560 0.83770 -0.23200
N 	N 	0.36430 0.19790 0.13090 -0.22100
C 	C 	0.35030 0.94040 0.24180 0.39400
C 	C 	0.29270 0.88250 0.24740 -0.07400
C 	C 	0.29650 0.78990 0.27870 -0.04500
H 	H 	0.33550 0.76200 0.29660 0.05500
C 	C 	0.24230 0.73800 0.28340 0.03100
H 	H 	0.24580 0.67550 0.30510 0.01600
C 	C 	0.18200 0.86380 0.22940 0.03800
H 	H 	0.14250 0.89060 0.21250 0.00800
C 	C 	0.23320 0.92020 0.22270 -0.05000
H 	H 	0.22810 0.98350 0.20170 0.05500
C 	C 	0.44630 0.55550 0.22590 -0.05100
H 	H 	0.40940 0.52020 0.20910 0.05600
C 	C 	0.44800 0.66440 0.22720 0.03200
H 	H 	0.41140 0.70150 0.21150 0.01300
C 	C 	0.41880 0.86540 0.11490 0.07100
H 	H 	0.38670 0.85570 0.13470 -0.00700
C 	C 	0.40670 0.84690 0.05530 -0.13500
H 	H 	0.36680 0.82570 0.03550 0.07200
C 	C 	0.45340 0.85970 0.02480 0.05400
C 	C 	0.51080 0.89040 0.05670 -0.13700
H 	H 	0.54380 0.89890 0.03800 0.07900
C 	C 	0.52010 0.90880 0.11590 0.07800
H 	H 	0.55960 0.93070 0.13630 -0.00200
C 	C 	0.44150 0.84300 0.96020 0.06400
C 	C 	0.38490 0.86740 0.92350 -0.14500
H 	H 	0.35210 0.89130 0.93950 0.07700
C 	C 	0.37620 0.85690 0.86410 0.08000
H 	H 	0.33690 0.87220 0.84070 -0.00800
C 	C 	0.47630 0.79960 0.87310 0.09400
H 	H 	0.50810 0.77480 0.85600 -0.02400
C 	C 	0.48820 0.80720 0.93330 -0.15000
H 	H 	0.52730 0.78850 0.95600 0.08400
C 	C 	0.33400 0.12050 0.09810 0.07700
H 	H 	0.34310 0.05100 0.11050 -0.00300
C 	C 	0.28970 0.13720 0.04640 -0.13600
H 	H 	0.27010 0.07960 0.02500 0.07300
C 	C 	0.27450 0.23890 0.02670 0.05500
C 	C 	0.30750 0.31800 0.06060 -0.13400
H 	H 	0.30020 0.38830 0.04900 0.07200
C 	C 	0.35120 0.29520 0.11130 0.07200
H 	H 	0.37250 0.35120 0.13290 0.00300
Cd	Cd	0.90550 0.32316 0.73455 1.23400
O 	O 	0.90043 0.60740 0.75620 -0.45100
O 	O 	0.84399 0.46640 0.72320 -0.44800
O 	O 	0.94932 0.16480 0.72814 -0.42700
N 	N 	0.68528 0.72660 0.75840 -0.20700
N 	N 	0.97510 0.60330 0.64580 -0.21900
N 	N 	0.92190 0.67440 0.33770 -0.23000
N 	N 	0.86430 0.30210 0.63090 -0.22000
C 	C 	0.85030 0.55960 0.74180 0.39400
C 	C 	0.79270 0.61750 0.74740 -0.07300
C 	C 	0.79650 0.71010 0.77870 -0.04600
H 	H 	0.83550 0.73800 0.79660 0.05600
C 	C 	0.74230 0.76200 0.78340 0.03100
H 	H 	0.74580 0.82450 0.80510 0.01600
C 	C 	0.68200 0.63620 0.72940 0.03800
H 	H 	0.64250 0.60940 0.71250 0.00900
C 	C 	0.73320 0.57980 0.72270 -0.05100
H 	H 	0.72810 0.51650 0.70170 0.05500
C 	C 	0.94630 0.94450 0.72590 -0.02900
H 	H 	0.90940 0.97980 0.70910 0.05100
C 	C 	0.94800 0.83560 0.72720 0.04100
H 	H 	0.91140 0.79850 0.71150 0.01200
C 	C 	0.91880 0.63460 0.61490 0.08500
H 	H 	0.88670 0.64430 0.63470 -0.01000
C 	C 	0.90670 0.65310 0.55530 -0.15400
H 	H 	0.86680 0.67430 0.53550 0.08000
C 	C 	0.95340 0.64030 0.52480 0.09200
C 	C 	0.01080 0.60960 0.55670 -0.17200
H 	H 	0.04380 0.60110 0.53800 0.08900
C 	C 	0.02010 0.59120 0.61590 0.07700
H 	H 	0.05960 0.56930 0.63630 -0.00300
C 	C 	0.94150 0.65700 0.46020 0.04000
C 	C 	0.88490 0.63260 0.42350 -0.13000
H 	H 	0.85210 0.60870 0.43950 0.07100
C 	C 	0.87620 0.64310 0.36410 0.07100
H 	H 	0.83690 0.62780 0.34070 -0.00500
C 	C 	0.97630 0.70040 0.37310 0.10500
H 	H 	0.00810 0.72520 0.35600 -0.03800
C 	C 	0.98820 0.69280 0.43330 -0.11500
H 	H 	0.02730 0.71150 0.45600 0.06100
C 	C 	0.83400 0.37950 0.59810 0.07800
H 	H 	0.84310 0.44900 0.61050 -0.00300
C 	C 	0.78970 0.36280 0.54640 -0.13500
H 	H 	0.77010 0.42040 0.52500 0.07300
C 	C 	0.77450 0.26110 0.52670 0.05500
C 	C 	0.80750 0.18200 0.56060 -0.13300
H 	H 	0.80020 0.11170 0.54900 0.07300
C 	C 	0.85120 0.20480 0.61130 0.07200
H 	H 	0.87250 0.14880 0.63290 0.00400
Cd	Cd	0.40550 0.82316 0.73455 1.23300
O 	O 	0.40043 0.10740 0.75620 -0.45700
O 	O 	0.34399 0.96640 0.72320 -0.44900
O 	O 	0.44932 0.66480 0.72814 -0.44100
N 	N 	0.18528 0.22660 0.75840 -0.20700
N 	N 	0.47510 0.10330 0.64580 -0.22600
N 	N 	0.42190 0.17440 0.33770 -0.23200
N 	N 	0.36430 0.80210 0.63090 -0.22100
C 	C 	0.35030 0.05960 0.74180 0.39400
C 	C 	0.29270 0.11750 0.74740 -0.07400
C 	C 	0.29650 0.21010 0.77870 -0.04500
H 	H 	0.33550 0.23800 0.79660 0.05500
C 	C 	0.24230 0.26200 0.78340 0.03100
H 	H 	0.24580 0.32450 0.80510 0.01600
C 	C 	0.18200 0.13620 0.72940 0.03800
H 	H 	0.14250 0.10940 0.71250 0.00800
C 	C 	0.23320 0.07980 0.72270 -0.05000
H 	H 	0.22810 0.01650 0.70170 0.05500
C 	C 	0.44630 0.44450 0.72590 -0.05100
H 	H 	0.40940 0.47980 0.70910 0.05600
C 	C 	0.44800 0.33560 0.72720 0.03200
H 	H 	0.41140 0.29850 0.71150 0.01300
C 	C 	0.41880 0.13460 0.61490 0.07200
H 	H 	0.38670 0.14430 0.63470 -0.00700
C 	C 	0.40670 0.15310 0.55530 -0.13600
H 	H 	0.36680 0.17430 0.53550 0.07300
C 	C 	0.45340 0.14030 0.52480 0.05600
C 	C 	0.51080 0.10960 0.55670 -0.13900
H 	H 	0.54380 0.10110 0.53800 0.08000
C 	C 	0.52010 0.09120 0.61590 0.07900
H 	H 	0.55960 0.06930 0.63630 -0.00300
C 	C 	0.44150 0.15700 0.46020 0.06200
C 	C 	0.38490 0.13260 0.42350 -0.14400
H 	H 	0.35210 0.10870 0.43950 0.07600
C 	C 	0.37620 0.14310 0.36410 0.07900
H 	H 	0.33690 0.12780 0.34070 -0.00800
C 	C 	0.47630 0.20040 0.37310 0.09300
H 	H 	0.50810 0.22520 0.35600 -0.02400
C 	C 	0.48820 0.19280 0.43330 -0.14900
H 	H 	0.52730 0.21150 0.45600 0.08300
C 	C 	0.33400 0.87950 0.59810 0.07700
H 	H 	0.34310 0.94900 0.61050 -0.00300
C 	C 	0.28970 0.86280 0.54640 -0.13500
H 	H 	0.27010 0.92040 0.52500 0.07200
C 	C 	0.27450 0.76110 0.52670 0.05400
C 	C 	0.30750 0.68200 0.56060 -0.13300
H 	H 	0.30020 0.61170 0.54900 0.07200
C 	C 	0.35120 0.70480 0.61130 0.07200
H 	H 	0.37250 0.64880 0.63290 0.00300
Cd	Cd	0.09450 0.32316 0.76545 1.23200
O 	O 	0.09957 0.60740 0.74380 -0.45800
O 	O 	0.15601 0.46640 0.77680 -0.45000
O 	O 	0.05068 0.16480 0.77186 -0.44000
N 	N 	0.31472 0.72660 0.74160 -0.20700
N 	N 	0.02490 0.60330 0.85420 -0.23200
N 	N 	0.07810 0.67440 0.16230 -0.23200
N 	N 	0.13570 0.30210 0.86910 -0.22100
C 	C 	0.14970 0.55960 0.75820 0.39600
C 	C 	0.20730 0.61750 0.75260 -0.07500
C 	C 	0.20350 0.71010 0.72130 -0.04500
H 	H 	0.16450 0.73800 0.70340 0.05400
C 	C 	0.25770 0.76200 0.71660 0.03000
H 	H 	0.25420 0.82450 0.69490 0.01600
C 	C 	0.31800 0.63620 0.77060 0.03700
H 	H 	0.35750 0.60940 0.78750 0.00900
C 	C 	0.26680 0.57980 0.77730 -0.04900
H 	H 	0.27190 0.51650 0.79830 0.05500
C 	C 	0.05370 0.94450 0.77410 -0.04300
H 	H 	0.09060 0.97980 0.79090 0.05300
C 	C 	0.05200 0.83560 0.77280 0.02500
H 	H 	0.08860 0.79850 0.78850 0.01500
C 	C 	0.08120 0.63460 0.88510 0.06100
H 	H 	0.11330 0.64430 0.86530 -0.00300
C 	C 	0.09330 0.65310 0.94470 -0.12000
H 	H 	0.13320 0.67430 0.96450 0.06700
C 	C 	0.04660 0.64030 0.97520 0.02300
C 	C 	0.98920 0.60960 0.94330 -0.10700
H 	H 	0.95620 0.60110 0.96200 0.07200
C 	C 	0.97990 0.59120 0.88410 0.08300
H 	H 	0.94040 0.56930 0.86370 -0.00200
C 	C 	0.05850 0.65700 0.03980 0.08200
C 	C 	0.11510 0.63260 0.07650 -0.15700
H 	H 	0.14790 0.60870 0.06050 0.08100
C 	C 	0.12380 0.64310 0.13590 0.08600
H 	H 	0.16310 0.62780 0.15930 -0.01000
C 	C 	0.02370 0.70040 0.12690 0.08000
H 	H 	0.99190 0.72520 0.14400 -0.00800
C 	C 	0.01180 0.69280 0.06670 -0.18100
H 	H 	0.97270 0.71150 0.04400 0.10400
C 	C 	0.16600 0.37950 0.90190 0.07600
H 	H 	0.15690 0.44900 0.88950 -0.00400
C 	C 	0.21030 0.36280 0.95360 -0.13500
H 	H 	0.22990 0.42040 0.97500 0.07200
C 	C 	0.22550 0.26110 0.97330 0.05400
C 	C 	0.19250 0.18200 0.93940 -0.13300
H 	H 	0.19980 0.11170 0.95100 0.07200
C 	C 	0.14880 0.20480 0.88870 0.07100
H 	H 	0.12750 0.14880 0.86710 0.00200
Cd	Cd	0.59450 0.82316 0.76545 1.23300
O 	O 	0.59957 0.10740 0.74380 -0.45700
O 	O 	0.65601 0.96640 0.77680 -0.44900
O 	O 	0.55068 0.66480 0.77186 -0.44100
N 	N 	0.81472 0.22660 0.74160 -0.20600
N 	N 	0.52490 0.10330 0.85420 -0.22600
N 	N 	0.57810 0.17440 0.16230 -0.23200
N 	N 	0.63570 0.80210 0.86910 -0.22100
C 	C 	0.64970 0.05960 0.75820 0.39500
C 	C 	0.70730 0.11750 0.75260 -0.07400
C 	C 	0.70350 0.21010 0.72130 -0.04500
H 	H 	0.66450 0.23800 0.70340 0.05500
C 	C 	0.75770 0.26200 0.71660 0.03000
H 	H 	0.75420 0.32450 0.69490 0.01600
C 	C 	0.81800 0.13620 0.77060 0.03700
H 	H 	0.85750 0.10940 0.78750 0.01100
C 	C 	0.76680 0.07980 0.77730 -0.04900
H 	H 	0.77190 0.01650 0.79830 0.05500
C 	C 	0.55370 0.44450 0.77410 -0.05100
H 	H 	0.59060 0.47980 0.79090 0.05600
C 	C 	0.55200 0.33560 0.77280 0.03200
H 	H 	0.58860 0.29850 0.78850 0.01300
C 	C 	0.58120 0.13460 0.88510 0.07200
H 	H 	0.61330 0.14430 0.86530 -0.00700
C 	C 	0.59330 0.15310 0.94470 -0.13600
H 	H 	0.63320 0.17430 0.96450 0.07300
C 	C 	0.54660 0.14030 0.97520 0.05500
C 	C 	0.48920 0.10960 0.94330 -0.13800
H 	H 	0.45620 0.10110 0.96200 0.08000
C 	C 	0.47990 0.09120 0.88410 0.07900
H 	H 	0.44040 0.06930 0.86370 -0.00300
C 	C 	0.55850 0.15700 0.03980 0.06300
C 	C 	0.61510 0.13260 0.07650 -0.14400
H 	H 	0.64790 0.10870 0.06050 0.07700
C 	C 	0.62380 0.14310 0.13590 0.07900
H 	H 	0.66310 0.12780 0.15930 -0.00800
C 	C 	0.52370 0.20040 0.12690 0.09300
H 	H 	0.49190 0.22520 0.14400 -0.02400
C 	C 	0.51180 0.19280 0.06670 -0.14900
H 	H 	0.47270 0.21150 0.04400 0.08300
C 	C 	0.66600 0.87950 0.90190 0.07800
H 	H 	0.65690 0.94900 0.88950 -0.00300
C 	C 	0.71030 0.86280 0.95360 -0.13700
H 	H 	0.72990 0.92040 0.97500 0.07400
C 	C 	0.72550 0.76110 0.97330 0.05700
C 	C 	0.69250 0.68200 0.93940 -0.13500
H 	H 	0.69980 0.61170 0.95100 0.07300
C 	C 	0.64880 0.70480 0.88870 0.07300
H 	H 	0.62750 0.64880 0.86710 0.00300
Cd	Cd	0.00000 0.40863 0.25000 1.22800
F 	F 	0.00000 0.59040 0.25000 -0.75700
N 	N 	0.00000 0.21990 0.25000 -0.21100
C 	C 	0.00000 0.88030 0.25000 0.36500
C 	C 	0.00000 0.99910 0.25000 -0.08400
Cd	Cd	0.50000 0.90863 0.25000 1.23200
F 	F 	0.50000 0.09040 0.25000 -0.75000
N 	N 	0.50000 0.71990 0.25000 -0.20300
C 	C 	0.50000 0.38030 0.25000 0.37900
C 	C 	0.50000 0.49910 0.25000 -0.06500
Cd	Cd	0.00000 0.59137 0.75000 1.22800
F 	F 	0.00000 0.40960 0.75000 -0.75700
N 	N 	0.00000 0.78010 0.75000 -0.21100
C 	C 	0.00000 0.11970 0.75000 0.36500
C 	C 	0.00000 0.00090 0.75000 -0.08400
Cd	Cd	0.50000 0.09137 0.75000 1.23200
F 	F 	0.50000 0.90960 0.75000 -0.75000
N 	N 	0.50000 0.28010 0.75000 -0.20300
C 	C 	0.50000 0.61970 0.75000 0.37900
C 	C 	0.50000 0.50090 0.75000 -0.06500
