data_crystal

_cell_length_a 22.02800
_cell_length_b 12.60700
_cell_length_c 23.17900
_cell_angle_alpha 90.00000
_cell_angle_beta  103.76000
_cell_angle_gamma 90.00000

_symmetry_space_group_name_	'P 1'
_symmetry_space_group_name_H-M	'P 1'

loop_
_symmetry_equiv_pos_as_xyz
  x,y,z

loop_
_atom_site_label
_atom_site_type_symbol
_atom_site_fract_x
_atom_site_fract_y
_atom_site_fract_z
_atom_site_charge
O 	O 	0.59944 0.38252 0.24409 -0.45200
Cd	Cd	0.59752 0.66775 0.27060 1.23000
C 	C 	0.64994 0.43110 0.25909 0.38200
O 	O 	0.65759 0.52158 0.28069 -0.45000
O 	O 	0.55083 0.82607 0.27125 -0.44200
N 	N 	0.81147 0.26637 0.23330 -0.20800
C 	C 	0.70679 0.37280 0.25005 -0.06800
C 	C 	0.70129 0.27640 0.22155 -0.06100
C 	C 	0.76581 0.41530 0.27009 -0.05300
H 	H 	0.66230 0.24520 0.20780 0.05100
C 	C 	0.75467 0.22660 0.21371 0.02500
C 	C 	0.81626 0.35970 0.26114 0.02800
H 	H 	0.77120 0.48050 0.28930 0.05200
C 	C 	0.55313 0.04640 0.27673 -0.04900
H 	H 	0.75050 0.16200 0.19370 0.00400
H 	H 	0.85590 0.38860 0.27520 0.01300
H 	H 	0.58960 0.01110 0.29530 0.05300
C 	C 	0.55113 0.15540 0.27542 0.02900
H 	H 	0.58730 0.19250 0.29320 0.01200
N 	N 	0.52603 0.38746 0.35514 -0.22600
C 	C 	0.58195 0.35530 0.38701 0.07200
C 	C 	0.48211 0.40320 0.38527 0.07300
H 	H 	0.61310 0.34250 0.36700 -0.00700
C 	C 	0.59608 0.34000 0.44738 -0.13600
C 	C 	0.49217 0.38920 0.44546 -0.13800
H 	H 	0.44260 0.42480 0.36430 -0.00800
H 	H 	0.63590 0.31810 0.46720 0.07000
C 	C 	0.55048 0.35740 0.47841 0.05100
H 	H 	0.45990 0.40090 0.46420 0.07200
C 	C 	0.56288 0.34530 0.54345 0.05700
C 	C 	0.62066 0.37180 0.58020 -0.14200
C 	C 	0.51749 0.31020 0.57101 -0.14600
H 	H 	0.65340 0.39320 0.56390 0.06800
C 	C 	0.62876 0.36580 0.64071 0.07800
C 	C 	0.52975 0.30560 0.63172 0.08600
H 	H 	0.47850 0.28970 0.54830 0.08000
N 	N 	0.58441 0.33470 0.66716 -0.23100
H 	H 	0.66750 0.38450 0.66460 -0.01100
H 	H 	0.49850 0.28100 0.64920 -0.02200
N 	N 	0.62946 0.68454 0.37386 -0.29300
C 	C 	0.65240 0.60330 0.40887 0.24300
C 	C 	0.62897 0.77900 0.40022 0.23000
H 	H 	0.65540 0.53770 0.39140 -0.06600
C 	C 	0.67190 0.61140 0.46968 -0.47300
C 	C 	0.64847 0.79260 0.46079 -0.46500
H 	H 	0.61490 0.83780 0.37660 -0.05900
H 	H 	0.68670 0.55160 0.49210 0.18500
C 	C 	0.66978 0.70700 0.49751 0.52700
H 	H 	0.64730 0.85970 0.47710 0.18100
C 	C 	0.68990 0.71780 0.56396 -1.08700
H 	H 	0.70170 0.79000 0.57410 0.34500
H 	H 	0.72500 0.67200 0.57900 0.34600
H 	H 	0.65600 0.69830 0.58120 0.34700
O 	O 	0.09944 0.88252 0.24409 -0.45200
Cd	Cd	0.09752 0.16775 0.27060 1.22900
C 	C 	0.14994 0.93110 0.25909 0.38200
O 	O 	0.15759 0.02158 0.28069 -0.45000
O 	O 	0.05083 0.32607 0.27125 -0.44000
N 	N 	0.31147 0.76637 0.23330 -0.20800
C 	C 	0.20679 0.87280 0.25005 -0.06800
C 	C 	0.20129 0.77640 0.22155 -0.06100
C 	C 	0.26581 0.91530 0.27009 -0.05400
H 	H 	0.16230 0.74520 0.20780 0.05000
C 	C 	0.25467 0.72660 0.21371 0.02500
C 	C 	0.31626 0.85970 0.26114 0.02800
H 	H 	0.27120 0.98050 0.28930 0.05100
C 	C 	0.05313 0.54640 0.27673 -0.04500
H 	H 	0.25050 0.66200 0.19370 0.00300
H 	H 	0.35590 0.88860 0.27520 0.01100
H 	H 	0.08960 0.51110 0.29530 0.05100
C 	C 	0.05113 0.65540 0.27542 0.02400
H 	H 	0.08730 0.69250 0.29320 0.01300
N 	N 	0.02603 0.88746 0.35514 -0.23200
C 	C 	0.08195 0.85530 0.38701 0.06100
C 	C 	0.98211 0.90320 0.38527 0.07800
H 	H 	0.11310 0.84250 0.36700 -0.00400
C 	C 	0.09608 0.84000 0.44738 -0.12000
C 	C 	0.99217 0.88920 0.44546 -0.10700
H 	H 	0.94260 0.92480 0.36430 -0.00800
H 	H 	0.13590 0.81810 0.46720 0.06300
C 	C 	0.05048 0.85740 0.47841 0.01800
H 	H 	0.95990 0.90090 0.46420 0.06500
C 	C 	0.06288 0.84530 0.54345 0.07700
C 	C 	0.12066 0.87180 0.58020 -0.15400
C 	C 	0.01749 0.81020 0.57101 -0.17900
H 	H 	0.15340 0.89320 0.56390 0.07200
C 	C 	0.12876 0.86580 0.64071 0.08500
C 	C 	0.02975 0.80560 0.63172 0.07300
H 	H 	0.97850 0.78970 0.54830 0.10200
N 	N 	0.08441 0.83470 0.66716 -0.23100
H 	H 	0.16750 0.88450 0.66460 -0.01300
H 	H 	0.99850 0.78100 0.64920 -0.00600
N 	N 	0.12946 0.18454 0.37386 -0.29300
C 	C 	0.15240 0.10330 0.40887 0.24100
C 	C 	0.12897 0.27900 0.40022 0.22900
H 	H 	0.15540 0.03770 0.39140 -0.06600
C 	C 	0.17190 0.11140 0.46968 -0.47200
C 	C 	0.14847 0.29260 0.46079 -0.46400
H 	H 	0.11490 0.33780 0.37660 -0.06000
H 	H 	0.18670 0.05160 0.49210 0.18400
C 	C 	0.16978 0.20700 0.49751 0.52500
H 	H 	0.14730 0.35970 0.47710 0.17900
C 	C 	0.18990 0.21780 0.56396 -1.08400
H 	H 	0.20170 0.29000 0.57410 0.34400
H 	H 	0.22500 0.17200 0.57900 0.34500
H 	H 	0.15600 0.19830 0.58120 0.34500
O 	O 	0.40056 0.38252 0.25591 -0.45000
Cd	Cd	0.40248 0.66775 0.22940 1.23000
C 	C 	0.35006 0.43110 0.24091 0.38200
O 	O 	0.34241 0.52158 0.21931 -0.45000
O 	O 	0.44917 0.82607 0.22875 -0.44200
N 	N 	0.18853 0.26637 0.26670 -0.20800
C 	C 	0.29321 0.37280 0.24995 -0.06700
C 	C 	0.29871 0.27640 0.27845 -0.06100
C 	C 	0.23419 0.41530 0.22991 -0.05400
H 	H 	0.33770 0.24520 0.29220 0.05100
C 	C 	0.24533 0.22660 0.28629 0.02500
C 	C 	0.18374 0.35970 0.23886 0.02800
H 	H 	0.22880 0.48050 0.21070 0.05100
C 	C 	0.44687 0.04640 0.22327 -0.04900
H 	H 	0.24950 0.16200 0.30630 0.00400
H 	H 	0.14410 0.38860 0.22480 0.01100
H 	H 	0.41040 0.01110 0.20470 0.05300
C 	C 	0.44887 0.15540 0.22458 0.02900
H 	H 	0.41270 0.19250 0.20680 0.01200
N 	N 	0.47397 0.38746 0.14486 -0.22600
C 	C 	0.41805 0.35530 0.11299 0.07200
C 	C 	0.51789 0.40320 0.11473 0.07300
H 	H 	0.38690 0.34250 0.13300 -0.00700
C 	C 	0.40392 0.34000 0.05262 -0.13600
C 	C 	0.50783 0.38920 0.05454 -0.13800
H 	H 	0.55740 0.42480 0.13570 -0.00800
H 	H 	0.36410 0.31810 0.03280 0.07000
C 	C 	0.44952 0.35740 0.02159 0.05100
H 	H 	0.54010 0.40090 0.03580 0.07200
C 	C 	0.43712 0.34530 0.95655 0.05700
C 	C 	0.37934 0.37180 0.91980 -0.14200
C 	C 	0.48251 0.31020 0.92899 -0.14600
H 	H 	0.34660 0.39320 0.93610 0.06800
C 	C 	0.37124 0.36580 0.85929 0.07800
C 	C 	0.47025 0.30560 0.86828 0.08600
H 	H 	0.52150 0.28970 0.95170 0.08000
N 	N 	0.41559 0.33470 0.83284 -0.23100
H 	H 	0.33250 0.38450 0.83540 -0.01100
H 	H 	0.50150 0.28100 0.85080 -0.02200
N 	N 	0.37054 0.68454 0.12614 -0.29300
C 	C 	0.34760 0.60330 0.09113 0.24200
C 	C 	0.37103 0.77900 0.09978 0.22900
H 	H 	0.34460 0.53770 0.10860 -0.06600
C 	C 	0.32810 0.61140 0.03032 -0.47200
C 	C 	0.35153 0.79260 0.03921 -0.46400
H 	H 	0.38510 0.83780 0.12340 -0.05900
H 	H 	0.31330 0.55160 0.00790 0.18500
C 	C 	0.33022 0.70700 0.00249 0.52600
H 	H 	0.35270 0.85970 0.02290 0.18000
C 	C 	0.31010 0.71780 0.93604 -1.08400
H 	H 	0.29830 0.79000 0.92590 0.34400
H 	H 	0.27500 0.67200 0.92100 0.34500
H 	H 	0.34400 0.69830 0.91880 0.34600
O 	O 	0.90056 0.88252 0.25591 -0.44500
Cd	Cd	0.90247 0.16775 0.22940 1.23200
C 	C 	0.85006 0.93110 0.24091 0.38000
O 	O 	0.84241 0.02158 0.21931 -0.44700
O 	O 	0.94917 0.32607 0.22875 -0.42700
N 	N 	0.68853 0.76637 0.26670 -0.20800
C 	C 	0.79321 0.87280 0.24995 -0.06600
C 	C 	0.79871 0.77640 0.27845 -0.06200
C 	C 	0.73419 0.91530 0.22991 -0.05500
H 	H 	0.83770 0.74520 0.29220 0.05200
C 	C 	0.74533 0.72660 0.28629 0.02600
C 	C 	0.68374 0.85970 0.23886 0.02800
H 	H 	0.72880 0.98050 0.21070 0.05200
C 	C 	0.94687 0.54640 0.22327 -0.03100
H 	H 	0.74950 0.66200 0.30630 0.00400
H 	H 	0.64410 0.88860 0.22480 0.01100
H 	H 	0.91040 0.51110 0.20470 0.04800
C 	C 	0.94887 0.65540 0.22458 0.04000
H 	H 	0.91270 0.69250 0.20680 0.01000
N 	N 	0.97397 0.88746 0.14486 -0.21800
C 	C 	0.91805 0.85530 0.11299 0.08300
C 	C 	0.01789 0.90320 0.11473 0.06800
H 	H 	0.88690 0.84250 0.13300 -0.00900
C 	C 	0.90392 0.84000 0.05262 -0.15000
C 	C 	0.00783 0.88920 0.05454 -0.16600
H 	H 	0.05740 0.92480 0.13570 -0.00800
H 	H 	0.86410 0.81810 0.03280 0.07500
C 	C 	0.94952 0.85740 0.02159 0.08100
H 	H 	0.04010 0.90090 0.03580 0.07900
C 	C 	0.93712 0.84530 0.95655 0.04000
C 	C 	0.87934 0.87180 0.91980 -0.13100
C 	C 	0.98251 0.81020 0.92899 -0.11400
H 	H 	0.84660 0.89320 0.93610 0.06400
C 	C 	0.87124 0.86580 0.85929 0.07300
C 	C 	0.97025 0.80560 0.86828 0.10000
H 	H 	0.02150 0.78970 0.95170 0.05900
N 	N 	0.91559 0.83470 0.83284 -0.23000
H 	H 	0.83250 0.88450 0.83540 -0.00800
H 	H 	0.00150 0.78100 0.85080 -0.03700
N 	N 	0.87054 0.18454 0.12614 -0.29300
C 	C 	0.84760 0.10330 0.09113 0.24400
C 	C 	0.87103 0.27900 0.09978 0.23100
H 	H 	0.84460 0.03770 0.10860 -0.06500
C 	C 	0.82810 0.11140 0.03032 -0.47400
C 	C 	0.85153 0.29260 0.03921 -0.46600
H 	H 	0.88510 0.33780 0.12340 -0.05800
H 	H 	0.81330 0.05160 0.00790 0.18600
C 	C 	0.83022 0.20700 0.00249 0.52900
H 	H 	0.85270 0.35970 0.02290 0.18200
C 	C 	0.81010 0.21780 0.93604 -1.08900
H 	H 	0.79830 0.29000 0.92590 0.34600
H 	H 	0.77500 0.17200 0.92100 0.34600
H 	H 	0.84400 0.19830 0.91880 0.34800
O 	O 	0.40056 0.61748 0.75591 -0.45000
Cd	Cd	0.40248 0.33225 0.72940 1.23000
C 	C 	0.35006 0.56890 0.74091 0.38200
O 	O 	0.34241 0.47842 0.71931 -0.45000
O 	O 	0.44917 0.17393 0.72875 -0.44200
N 	N 	0.18853 0.73363 0.76670 -0.20800
C 	C 	0.29321 0.62720 0.74995 -0.06700
C 	C 	0.29871 0.72360 0.77845 -0.06100
C 	C 	0.23419 0.58470 0.72991 -0.05400
H 	H 	0.33770 0.75480 0.79220 0.05100
C 	C 	0.24533 0.77340 0.78629 0.02500
C 	C 	0.18374 0.64030 0.73886 0.02800
H 	H 	0.22880 0.51950 0.71070 0.05100
C 	C 	0.44687 0.95360 0.72327 -0.04900
H 	H 	0.24950 0.83800 0.80630 0.00400
H 	H 	0.14410 0.61140 0.72480 0.01100
H 	H 	0.41040 0.98890 0.70470 0.05300
C 	C 	0.44887 0.84460 0.72458 0.02900
H 	H 	0.41270 0.80750 0.70680 0.01200
N 	N 	0.47397 0.61254 0.64486 -0.22600
C 	C 	0.41805 0.64470 0.61299 0.07200
C 	C 	0.51789 0.59680 0.61473 0.07300
H 	H 	0.38690 0.65750 0.63300 -0.00700
C 	C 	0.40392 0.66000 0.55262 -0.13600
C 	C 	0.50783 0.61080 0.55454 -0.13800
H 	H 	0.55740 0.57520 0.63570 -0.00800
H 	H 	0.36410 0.68190 0.53280 0.07000
C 	C 	0.44952 0.64260 0.52159 0.05100
H 	H 	0.54010 0.59910 0.53580 0.07200
C 	C 	0.43712 0.65470 0.45655 0.05700
C 	C 	0.37934 0.62820 0.41980 -0.14200
C 	C 	0.48251 0.68980 0.42899 -0.14600
H 	H 	0.34660 0.60680 0.43610 0.06800
C 	C 	0.37124 0.63420 0.35929 0.07800
C 	C 	0.47025 0.69440 0.36828 0.08600
H 	H 	0.52150 0.71030 0.45170 0.08000
N 	N 	0.41559 0.66530 0.33284 -0.23100
H 	H 	0.33250 0.61550 0.33540 -0.01100
H 	H 	0.50150 0.71900 0.35080 -0.02200
N 	N 	0.37054 0.31546 0.62614 -0.29300
C 	C 	0.34760 0.39670 0.59113 0.24200
C 	C 	0.37103 0.22100 0.59978 0.23000
H 	H 	0.34460 0.46230 0.60860 -0.06600
C 	C 	0.32810 0.38860 0.53032 -0.47300
C 	C 	0.35153 0.20740 0.53921 -0.46500
H 	H 	0.38510 0.16220 0.62340 -0.05900
H 	H 	0.31330 0.44840 0.50790 0.18500
C 	C 	0.33022 0.29300 0.50249 0.52700
H 	H 	0.35270 0.14030 0.52290 0.18100
C 	C 	0.31010 0.28220 0.43604 -1.08600
H 	H 	0.29830 0.21000 0.42590 0.34500
H 	H 	0.27500 0.32800 0.42100 0.34600
H 	H 	0.34400 0.30170 0.41880 0.34700
O 	O 	0.90056 0.11748 0.75591 -0.44500
Cd	Cd	0.90247 0.83225 0.72940 1.23200
C 	C 	0.85006 0.06890 0.74091 0.38000
O 	O 	0.84241 0.97842 0.71931 -0.44800
O 	O 	0.94917 0.67393 0.72875 -0.42700
N 	N 	0.68853 0.23363 0.76670 -0.20800
C 	C 	0.79321 0.12720 0.74995 -0.06600
C 	C 	0.79871 0.22360 0.77845 -0.06200
C 	C 	0.73419 0.08470 0.72991 -0.05500
H 	H 	0.83770 0.25480 0.79220 0.05200
C 	C 	0.74533 0.27340 0.78629 0.02600
C 	C 	0.68374 0.14030 0.73886 0.02800
H 	H 	0.72880 0.01950 0.71070 0.05200
C 	C 	0.94687 0.45360 0.72327 -0.03100
H 	H 	0.74950 0.33800 0.80630 0.00400
H 	H 	0.64410 0.11140 0.72480 0.01100
H 	H 	0.91040 0.48890 0.70470 0.04800
C 	C 	0.94887 0.34460 0.72458 0.04000
H 	H 	0.91270 0.30750 0.70680 0.01000
N 	N 	0.97397 0.11254 0.64486 -0.21800
C 	C 	0.91805 0.14470 0.61299 0.08400
C 	C 	0.01789 0.09680 0.61473 0.06800
H 	H 	0.88690 0.15750 0.63300 -0.01000
C 	C 	0.90392 0.16000 0.55262 -0.15200
C 	C 	0.00783 0.11080 0.55454 -0.16900
H 	H 	0.05740 0.07520 0.63570 -0.00800
H 	H 	0.86410 0.18190 0.53280 0.07600
C 	C 	0.94952 0.14260 0.52159 0.08400
H 	H 	0.04010 0.09910 0.53580 0.08000
C 	C 	0.93712 0.15470 0.45655 0.03700
C 	C 	0.87934 0.12820 0.41980 -0.12900
C 	C 	0.98251 0.18980 0.42899 -0.11200
H 	H 	0.84660 0.10680 0.43610 0.06300
C 	C 	0.87124 0.13420 0.35929 0.07200
C 	C 	0.97025 0.19440 0.36828 0.09900
H 	H 	0.02150 0.21030 0.45170 0.05900
N 	N 	0.91559 0.16530 0.33284 -0.23000
H 	H 	0.83250 0.11550 0.33540 -0.00800
H 	H 	0.00150 0.21900 0.35080 -0.03700
N 	N 	0.87054 0.81546 0.62614 -0.29300
C 	C 	0.84760 0.89670 0.59113 0.24400
C 	C 	0.87103 0.72100 0.59978 0.23100
H 	H 	0.84460 0.96230 0.60860 -0.06600
C 	C 	0.82810 0.88860 0.53032 -0.47400
C 	C 	0.85153 0.70740 0.53921 -0.46600
H 	H 	0.88510 0.66220 0.62340 -0.05800
H 	H 	0.81330 0.94840 0.50790 0.18500
C 	C 	0.83022 0.79300 0.50249 0.52800
H 	H 	0.85270 0.64030 0.52290 0.18200
C 	C 	0.81010 0.78220 0.43604 -1.08900
H 	H 	0.79830 0.71000 0.42590 0.34600
H 	H 	0.77500 0.82800 0.42100 0.34600
H 	H 	0.84400 0.80170 0.41880 0.34800
O 	O 	0.59944 0.61748 0.74409 -0.45100
Cd	Cd	0.59752 0.33225 0.77060 1.23000
C 	C 	0.64994 0.56890 0.75909 0.38200
O 	O 	0.65759 0.47842 0.78069 -0.45000
O 	O 	0.55083 0.17393 0.77125 -0.44200
N 	N 	0.81147 0.73363 0.73330 -0.20800
C 	C 	0.70679 0.62720 0.75005 -0.06800
C 	C 	0.70129 0.72360 0.72155 -0.06100
C 	C 	0.76581 0.58470 0.77009 -0.05300
H 	H 	0.66230 0.75480 0.70780 0.05100
C 	C 	0.75467 0.77340 0.71371 0.02500
C 	C 	0.81626 0.64030 0.76114 0.02800
H 	H 	0.77120 0.51950 0.78930 0.05200
C 	C 	0.55313 0.95360 0.77673 -0.04900
H 	H 	0.75050 0.83800 0.69370 0.00400
H 	H 	0.85590 0.61140 0.77520 0.01300
H 	H 	0.58960 0.98890 0.79530 0.05300
C 	C 	0.55113 0.84460 0.77542 0.02900
H 	H 	0.58730 0.80750 0.79320 0.01200
N 	N 	0.52603 0.61254 0.85514 -0.22600
C 	C 	0.58195 0.64470 0.88701 0.07300
C 	C 	0.48211 0.59680 0.88527 0.07300
H 	H 	0.61310 0.65750 0.86700 -0.00700
C 	C 	0.59608 0.66000 0.94738 -0.13700
C 	C 	0.49217 0.61080 0.94546 -0.13900
H 	H 	0.44260 0.57520 0.86430 -0.00800
H 	H 	0.63590 0.68190 0.96720 0.07000
C 	C 	0.55048 0.64260 0.97841 0.05300
H 	H 	0.45990 0.59910 0.96420 0.07300
C 	C 	0.56288 0.65470 0.04345 0.05600
C 	C 	0.62066 0.62820 0.08020 -0.14100
C 	C 	0.51749 0.68980 0.07101 -0.14500
H 	H 	0.65340 0.60680 0.06390 0.06800
C 	C 	0.62876 0.63420 0.14071 0.07800
C 	C 	0.52975 0.69440 0.13172 0.08500
H 	H 	0.47850 0.71030 0.04830 0.08000
N 	N 	0.58441 0.66530 0.16716 -0.23100
H 	H 	0.66750 0.61550 0.16460 -0.01000
H 	H 	0.49850 0.71900 0.14920 -0.02200
N 	N 	0.62946 0.31546 0.87386 -0.29300
C 	C 	0.65240 0.39670 0.90887 0.24300
C 	C 	0.62897 0.22100 0.90022 0.23000
H 	H 	0.65540 0.46230 0.89140 -0.06600
C 	C 	0.67190 0.38860 0.96968 -0.47300
C 	C 	0.64847 0.20740 0.96079 -0.46500
H 	H 	0.61490 0.16220 0.87660 -0.05900
H 	H 	0.68670 0.44840 0.99210 0.18500
C 	C 	0.66978 0.29300 0.99751 0.52700
H 	H 	0.64730 0.14030 0.97710 0.18100
C 	C 	0.68990 0.28220 0.06396 -1.08700
H 	H 	0.70170 0.21000 0.07410 0.34500
H 	H 	0.72500 0.32800 0.07900 0.34600
H 	H 	0.65600 0.30170 0.08120 0.34700
O 	O 	0.09944 0.11748 0.74409 -0.45200
Cd	Cd	0.09752 0.83225 0.77060 1.22900
C 	C 	0.14994 0.06890 0.75909 0.38200
O 	O 	0.15759 0.97842 0.78069 -0.45000
O 	O 	0.05083 0.67393 0.77125 -0.44000
N 	N 	0.31147 0.23363 0.73330 -0.20800
C 	C 	0.20679 0.12720 0.75005 -0.06800
C 	C 	0.20129 0.22360 0.72155 -0.06100
C 	C 	0.26581 0.08470 0.77009 -0.05400
H 	H 	0.16230 0.25480 0.70780 0.05000
C 	C 	0.25467 0.27340 0.71371 0.02500
C 	C 	0.31626 0.14030 0.76114 0.02800
H 	H 	0.27120 0.01950 0.78930 0.05100
C 	C 	0.05313 0.45360 0.77673 -0.04500
H 	H 	0.25050 0.33800 0.69370 0.00300
H 	H 	0.35590 0.11140 0.77520 0.01100
H 	H 	0.08960 0.48890 0.79530 0.05100
C 	C 	0.05113 0.34460 0.77542 0.02300
H 	H 	0.08730 0.30750 0.79320 0.01300
N 	N 	0.02603 0.11254 0.85514 -0.23200
C 	C 	0.08195 0.14470 0.88701 0.06000
C 	C 	0.98211 0.09680 0.88527 0.07700
H 	H 	0.11310 0.15750 0.86700 -0.00300
C 	C 	0.09608 0.16000 0.94738 -0.11900
C 	C 	0.99217 0.11080 0.94546 -0.10700
H 	H 	0.94260 0.07520 0.86430 -0.00800
H 	H 	0.13590 0.18190 0.96720 0.06300
C 	C 	0.05048 0.14260 0.97841 0.01700
H 	H 	0.95990 0.09910 0.96420 0.06400
C 	C 	0.06288 0.15470 0.04345 0.07900
C 	C 	0.12066 0.12820 0.08020 -0.15500
C 	C 	0.01749 0.18980 0.07101 -0.17900
H 	H 	0.15340 0.10680 0.06390 0.07300
C 	C 	0.12876 0.13420 0.14071 0.08500
C 	C 	0.02975 0.19440 0.13172 0.07300
H 	H 	0.97850 0.21030 0.04830 0.10200
N 	N 	0.08441 0.16530 0.16716 -0.23100
H 	H 	0.16750 0.11550 0.16460 -0.01300
H 	H 	0.99850 0.21900 0.14920 -0.00600
N 	N 	0.12946 0.81546 0.87386 -0.29300
C 	C 	0.15240 0.89670 0.90887 0.24200
C 	C 	0.12897 0.72100 0.90022 0.22900
H 	H 	0.15540 0.96230 0.89140 -0.06600
C 	C 	0.17190 0.88860 0.96968 -0.47400
C 	C 	0.14847 0.70740 0.96079 -0.46500
H 	H 	0.11490 0.66220 0.87660 -0.06000
H 	H 	0.18670 0.94840 0.99210 0.18500
C 	C 	0.16978 0.79300 0.99751 0.52700
H 	H 	0.14730 0.64030 0.97710 0.18000
C 	C 	0.18990 0.78220 0.06396 -1.08700
H 	H 	0.20170 0.71000 0.07410 0.34500
H 	H 	0.22500 0.82800 0.07900 0.34600
H 	H 	0.15600 0.80170 0.08120 0.34600
Cd	Cd	0.50000 0.40081 0.25000 1.23000
F 	F 	0.50000 0.58244 0.25000 -0.73700
N 	N 	0.50000 0.21100 0.25000 -0.20200
C 	C 	0.50000 0.87060 0.25000 0.38900
C 	C 	0.50000 0.99010 0.25000 -0.07000
Cd	Cd	0.00000 0.90081 0.25000 1.22600
F 	F 	0.00000 0.08244 0.25000 -0.74400
N 	N 	0.00000 0.71100 0.25000 -0.21100
C 	C 	0.00000 0.37060 0.25000 0.37200
C 	C 	0.00000 0.49010 0.25000 -0.08600
Cd	Cd	0.50000 0.59919 0.75000 1.23000
F 	F 	0.50000 0.41756 0.75000 -0.73700
N 	N 	0.50000 0.78900 0.75000 -0.20200
C 	C 	0.50000 0.12940 0.75000 0.38900
C 	C 	0.50000 0.00990 0.75000 -0.07000
Cd	Cd	0.00000 0.09919 0.75000 1.22600
F 	F 	0.00000 0.91756 0.75000 -0.74400
N 	N 	0.00000 0.28900 0.75000 -0.21200
C 	C 	0.00000 0.62940 0.75000 0.37200
C 	C 	0.00000 0.50990 0.75000 -0.08600
