data_crystal

_cell_length_a 19.91880
_cell_length_b 19.91880
_cell_length_c 15.28920
_cell_angle_alpha 90.00000
_cell_angle_beta  90.00000
_cell_angle_gamma 90.00000

_symmetry_space_group_name_	'P 1'
_symmetry_space_group_name_H-M	'P 1'

loop_
_symmetry_equiv_pos_as_xyz
  x,y,z

loop_
_atom_site_label
_atom_site_type_symbol
_atom_site_fract_x
_atom_site_fract_y
_atom_site_fract_z
_atom_site_charge
N 	N 	0.35687 0.24808 0.60118 -0.27800
C 	C 	0.39036 0.21852 0.66710 0.07400
H 	H 	0.36540 0.19830 0.71300 -0.03700
C 	C 	0.45966 0.21640 0.67070 -0.14800
H 	H 	0.48150 0.19390 0.71760 0.07200
C 	C 	0.49740 0.24730 0.60540 0.08000
C 	C 	0.46202 0.27790 0.53710 -0.14900
H 	H 	0.48560 0.29930 0.49080 0.07300
C 	C 	0.39259 0.27688 0.53710 0.07600
H 	H 	0.36930 0.29740 0.48990 -0.03800
C 	C 	0.57118 0.24790 0.60850 -0.02600
C 	C 	0.60719 0.19210 0.63760 -0.03200
H 	H 	0.58370 0.15300 0.65590 0.03500
C 	C 	0.67700 0.19280 0.64020 -0.06800
H 	H 	0.70060 0.15400 0.65950 0.05200
C 	C 	0.71271 0.24980 0.61480 0.02200
C 	C 	0.67651 0.30580 0.58670 -0.06700
H 	H 	0.69990 0.34540 0.57040 0.05500
C 	C 	0.60719 0.30450 0.58220 -0.03000
H 	H 	0.58380 0.34270 0.56080 0.03700
N 	N 	0.14313 0.25192 0.60118 -0.27700
C 	C 	0.10964 0.28148 0.66710 0.07500
H 	H 	0.13460 0.30170 0.71300 -0.03600
C 	C 	0.04034 0.28360 0.67070 -0.14700
H 	H 	0.01850 0.30610 0.71760 0.07300
C 	C 	0.00260 0.25270 0.60540 0.08100
C 	C 	0.03798 0.22210 0.53710 -0.14800
H 	H 	0.01440 0.20070 0.49080 0.07300
C 	C 	0.10741 0.22312 0.53710 0.07700
H 	H 	0.13070 0.20260 0.48990 -0.03600
C 	C 	0.92882 0.25210 0.60850 -0.02600
C 	C 	0.89281 0.30790 0.63760 -0.03200
H 	H 	0.91630 0.34700 0.65590 0.03500
C 	C 	0.82300 0.30720 0.64020 -0.06700
H 	H 	0.79940 0.34600 0.65950 0.05200
C 	C 	0.78729 0.25020 0.61480 0.02200
C 	C 	0.82349 0.19420 0.58670 -0.06700
H 	H 	0.80010 0.15460 0.57040 0.05500
C 	C 	0.89281 0.19550 0.58220 -0.03000
H 	H 	0.91620 0.15730 0.56080 0.03700
N 	N 	0.25192 0.35687 0.60118 -0.27700
C 	C 	0.28148 0.39036 0.66710 0.07500
H 	H 	0.30170 0.36540 0.71300 -0.03600
C 	C 	0.28360 0.45966 0.67070 -0.14700
H 	H 	0.30610 0.48150 0.71760 0.07300
C 	C 	0.25270 0.49740 0.60540 0.08100
C 	C 	0.22210 0.46202 0.53710 -0.14800
H 	H 	0.20070 0.48560 0.49080 0.07400
C 	C 	0.22312 0.39259 0.53710 0.07700
H 	H 	0.20260 0.36930 0.48990 -0.03700
C 	C 	0.25210 0.57118 0.60850 -0.02600
C 	C 	0.30790 0.60719 0.63760 -0.03200
H 	H 	0.34700 0.58370 0.65590 0.03500
C 	C 	0.30720 0.67700 0.64020 -0.06800
H 	H 	0.34600 0.70060 0.65950 0.05200
C 	C 	0.25020 0.71271 0.61480 0.02200
C 	C 	0.19420 0.67651 0.58670 -0.06700
H 	H 	0.15460 0.69990 0.57040 0.05500
C 	C 	0.19550 0.60719 0.58220 -0.03000
H 	H 	0.15730 0.58380 0.56080 0.03700
N 	N 	0.24808 0.14313 0.60118 -0.27700
C 	C 	0.21852 0.10964 0.66710 0.07500
H 	H 	0.19830 0.13460 0.71300 -0.03600
C 	C 	0.21640 0.04034 0.67070 -0.14700
H 	H 	0.19390 0.01850 0.71760 0.07300
C 	C 	0.24730 0.00260 0.60540 0.08100
C 	C 	0.27790 0.03798 0.53710 -0.14800
H 	H 	0.29930 0.01440 0.49080 0.07400
C 	C 	0.27688 0.10741 0.53710 0.07700
H 	H 	0.29740 0.13070 0.48990 -0.03600
C 	C 	0.24790 0.92882 0.60850 -0.02600
C 	C 	0.19210 0.89281 0.63760 -0.03200
H 	H 	0.15300 0.91630 0.65590 0.03500
C 	C 	0.19280 0.82300 0.64020 -0.06700
H 	H 	0.15400 0.79940 0.65950 0.05200
C 	C 	0.24980 0.78729 0.61480 0.02200
C 	C 	0.30580 0.82349 0.58670 -0.06700
H 	H 	0.34540 0.80010 0.57040 0.05500
C 	C 	0.30450 0.89281 0.58220 -0.03000
H 	H 	0.34270 0.91620 0.56080 0.03700
Zn	Zn	0.25000 0.25000 0.60058 1.14800
N 	N 	0.64313 0.74808 0.89882 -0.27700
C 	C 	0.60964 0.71852 0.83290 0.07500
H 	H 	0.63460 0.69830 0.78700 -0.03600
C 	C 	0.54034 0.71640 0.82930 -0.14700
H 	H 	0.51850 0.69390 0.78240 0.07300
C 	C 	0.50260 0.74730 0.89460 0.08100
C 	C 	0.53798 0.77790 0.96290 -0.14800
H 	H 	0.51440 0.79930 0.00920 0.07300
C 	C 	0.60741 0.77688 0.96290 0.07800
H 	H 	0.63070 0.79740 0.01010 -0.03700
C 	C 	0.42882 0.74790 0.89150 -0.02600
C 	C 	0.39281 0.69210 0.86240 -0.03200
H 	H 	0.41630 0.65300 0.84410 0.03500
C 	C 	0.32300 0.69280 0.85980 -0.06800
H 	H 	0.29940 0.65400 0.84050 0.05200
C 	C 	0.28729 0.74980 0.88520 0.02200
C 	C 	0.32349 0.80580 0.91330 -0.06700
H 	H 	0.30010 0.84540 0.92960 0.05500
C 	C 	0.39281 0.80450 0.91780 -0.03000
H 	H 	0.41620 0.84270 0.93920 0.03700
N 	N 	0.85687 0.75192 0.89882 -0.27700
C 	C 	0.89036 0.78148 0.83290 0.07500
H 	H 	0.86540 0.80170 0.78700 -0.03600
C 	C 	0.95966 0.78360 0.82930 -0.14700
H 	H 	0.98150 0.80610 0.78240 0.07300
C 	C 	0.99740 0.75270 0.89460 0.08100
C 	C 	0.96202 0.72210 0.96290 -0.14700
H 	H 	0.98560 0.70070 0.00920 0.07300
C 	C 	0.89259 0.72312 0.96290 0.07800
H 	H 	0.86930 0.70260 0.01010 -0.03700
C 	C 	0.07118 0.75210 0.89150 -0.02600
C 	C 	0.10719 0.80790 0.86240 -0.03200
H 	H 	0.08370 0.84700 0.84410 0.03500
C 	C 	0.17700 0.80720 0.85980 -0.06800
H 	H 	0.20060 0.84600 0.84050 0.05200
C 	C 	0.21271 0.75020 0.88520 0.02200
C 	C 	0.17651 0.69420 0.91330 -0.06700
H 	H 	0.19990 0.65460 0.92960 0.05500
C 	C 	0.10719 0.69550 0.91780 -0.03000
H 	H 	0.08380 0.65730 0.93920 0.03700
N 	N 	0.74808 0.85687 0.89882 -0.27700
C 	C 	0.71852 0.89036 0.83290 0.07500
H 	H 	0.69830 0.86540 0.78700 -0.03600
C 	C 	0.71640 0.95966 0.82930 -0.14700
H 	H 	0.69390 0.98150 0.78240 0.07300
C 	C 	0.74730 0.99740 0.89460 0.08100
C 	C 	0.77790 0.96202 0.96290 -0.14700
H 	H 	0.79930 0.98560 0.00920 0.07300
C 	C 	0.77688 0.89259 0.96290 0.07800
H 	H 	0.79740 0.86930 0.01010 -0.03700
C 	C 	0.74790 0.07118 0.89150 -0.02600
C 	C 	0.69210 0.10719 0.86240 -0.03200
H 	H 	0.65300 0.08370 0.84410 0.03500
C 	C 	0.69280 0.17700 0.85980 -0.06800
H 	H 	0.65400 0.20060 0.84050 0.05200
C 	C 	0.74980 0.21271 0.88520 0.02200
C 	C 	0.80580 0.17651 0.91330 -0.06700
H 	H 	0.84540 0.19990 0.92960 0.05500
C 	C 	0.80450 0.10719 0.91780 -0.03000
H 	H 	0.84270 0.08380 0.93920 0.03700
N 	N 	0.75192 0.64313 0.89882 -0.27700
C 	C 	0.78148 0.60964 0.83290 0.07500
H 	H 	0.80170 0.63460 0.78700 -0.03600
C 	C 	0.78360 0.54034 0.82930 -0.14700
H 	H 	0.80610 0.51850 0.78240 0.07300
C 	C 	0.75270 0.50260 0.89460 0.08100
C 	C 	0.72210 0.53798 0.96290 -0.14800
H 	H 	0.70070 0.51440 0.00920 0.07300
C 	C 	0.72312 0.60741 0.96290 0.07800
H 	H 	0.70260 0.63070 0.01010 -0.03700
C 	C 	0.75210 0.42882 0.89150 -0.02600
C 	C 	0.80790 0.39281 0.86240 -0.03200
H 	H 	0.84700 0.41630 0.84410 0.03500
C 	C 	0.80720 0.32300 0.85980 -0.06800
H 	H 	0.84600 0.29940 0.84050 0.05200
C 	C 	0.75020 0.28729 0.88520 0.02200
C 	C 	0.69420 0.32349 0.91330 -0.06700
H 	H 	0.65460 0.30010 0.92960 0.05500
C 	C 	0.69550 0.39281 0.91780 -0.03000
H 	H 	0.65730 0.41620 0.93920 0.03700
Zn	Zn	0.75000 0.75000 0.89942 1.14800
N 	N 	0.64313 0.75192 0.39882 -0.27700
C 	C 	0.60964 0.78148 0.33290 0.07500
H 	H 	0.63460 0.80170 0.28700 -0.03600
C 	C 	0.54034 0.78360 0.32930 -0.14700
H 	H 	0.51850 0.80610 0.28240 0.07300
C 	C 	0.50260 0.75270 0.39460 0.08100
C 	C 	0.53798 0.72210 0.46290 -0.14800
H 	H 	0.51440 0.70070 0.50920 0.07400
C 	C 	0.60741 0.72312 0.46290 0.07700
H 	H 	0.63070 0.70260 0.51010 -0.03700
C 	C 	0.42882 0.75210 0.39150 -0.02600
C 	C 	0.39281 0.80790 0.36240 -0.03200
H 	H 	0.41630 0.84700 0.34410 0.03500
C 	C 	0.32300 0.80720 0.35980 -0.06800
H 	H 	0.29940 0.84600 0.34050 0.05200
C 	C 	0.28729 0.75020 0.38520 0.02200
C 	C 	0.32349 0.69420 0.41330 -0.06700
H 	H 	0.30010 0.65460 0.42960 0.05500
C 	C 	0.39281 0.69550 0.41780 -0.03000
H 	H 	0.41620 0.65730 0.43920 0.03700
N 	N 	0.85687 0.74808 0.39882 -0.27700
C 	C 	0.89036 0.71852 0.33290 0.07500
H 	H 	0.86540 0.69830 0.28700 -0.03600
C 	C 	0.95966 0.71640 0.32930 -0.14700
H 	H 	0.98150 0.69390 0.28240 0.07300
C 	C 	0.99740 0.74730 0.39460 0.08100
C 	C 	0.96202 0.77790 0.46290 -0.14800
H 	H 	0.98560 0.79930 0.50920 0.07300
C 	C 	0.89259 0.77688 0.46290 0.07700
H 	H 	0.86930 0.79740 0.51010 -0.03600
C 	C 	0.07118 0.74790 0.39150 -0.02600
C 	C 	0.10719 0.69210 0.36240 -0.03200
H 	H 	0.08370 0.65300 0.34410 0.03500
C 	C 	0.17700 0.69280 0.35980 -0.06700
H 	H 	0.20060 0.65400 0.34050 0.05200
C 	C 	0.21271 0.74980 0.38520 0.02200
C 	C 	0.17651 0.80580 0.41330 -0.06700
H 	H 	0.19990 0.84540 0.42960 0.05500
C 	C 	0.10719 0.80450 0.41780 -0.03000
H 	H 	0.08380 0.84270 0.43920 0.03700
N 	N 	0.74808 0.64313 0.39882 -0.27700
C 	C 	0.71852 0.60964 0.33290 0.07500
H 	H 	0.69830 0.63460 0.28700 -0.03600
C 	C 	0.71640 0.54034 0.32930 -0.14700
H 	H 	0.69390 0.51850 0.28240 0.07300
C 	C 	0.74730 0.50260 0.39460 0.08100
C 	C 	0.77790 0.53798 0.46290 -0.14800
H 	H 	0.79930 0.51440 0.50920 0.07400
C 	C 	0.77688 0.60741 0.46290 0.07700
H 	H 	0.79740 0.63070 0.51010 -0.03700
C 	C 	0.74790 0.42882 0.39150 -0.02600
C 	C 	0.69210 0.39281 0.36240 -0.03200
H 	H 	0.65300 0.41630 0.34410 0.03500
C 	C 	0.69280 0.32300 0.35980 -0.06800
H 	H 	0.65400 0.29940 0.34050 0.05200
C 	C 	0.74980 0.28729 0.38520 0.02200
C 	C 	0.80580 0.32349 0.41330 -0.06700
H 	H 	0.84540 0.30010 0.42960 0.05500
C 	C 	0.80450 0.39281 0.41780 -0.03000
H 	H 	0.84270 0.41620 0.43920 0.03700
N 	N 	0.75192 0.85687 0.39882 -0.27700
C 	C 	0.78148 0.89036 0.33290 0.07500
H 	H 	0.80170 0.86540 0.28700 -0.03600
C 	C 	0.78360 0.95966 0.32930 -0.14700
H 	H 	0.80610 0.98150 0.28240 0.07300
C 	C 	0.75270 0.99740 0.39460 0.08100
C 	C 	0.72210 0.96202 0.46290 -0.14800
H 	H 	0.70070 0.98560 0.50920 0.07400
C 	C 	0.72312 0.89259 0.46290 0.07700
H 	H 	0.70260 0.86930 0.51010 -0.03600
C 	C 	0.75210 0.07118 0.39150 -0.02600
C 	C 	0.80790 0.10719 0.36240 -0.03200
H 	H 	0.84700 0.08370 0.34410 0.03500
C 	C 	0.80720 0.17700 0.35980 -0.06700
H 	H 	0.84600 0.20060 0.34050 0.05200
C 	C 	0.75020 0.21271 0.38520 0.02200
C 	C 	0.69420 0.17651 0.41330 -0.06700
H 	H 	0.65460 0.19990 0.42960 0.05500
C 	C 	0.69550 0.10719 0.41780 -0.03000
H 	H 	0.65730 0.08380 0.43920 0.03700
Zn	Zn	0.75000 0.75000 0.39942 1.14800
N 	N 	0.35687 0.25192 0.10118 -0.27700
C 	C 	0.39036 0.28148 0.16710 0.07500
H 	H 	0.36540 0.30170 0.21300 -0.03600
C 	C 	0.45966 0.28360 0.17070 -0.14700
H 	H 	0.48150 0.30610 0.21760 0.07300
C 	C 	0.49740 0.25270 0.10540 0.08100
C 	C 	0.46202 0.22210 0.03710 -0.14800
H 	H 	0.48560 0.20070 0.99080 0.07300
C 	C 	0.39259 0.22312 0.03710 0.07800
H 	H 	0.36930 0.20260 0.98990 -0.03700
C 	C 	0.57118 0.25210 0.10850 -0.02600
C 	C 	0.60719 0.30790 0.13760 -0.03200
H 	H 	0.58370 0.34700 0.15590 0.03500
C 	C 	0.67700 0.30720 0.14020 -0.06800
H 	H 	0.70060 0.34600 0.15950 0.05200
C 	C 	0.71271 0.25020 0.11480 0.02200
C 	C 	0.67651 0.19420 0.08670 -0.06700
H 	H 	0.69990 0.15460 0.07040 0.05500
C 	C 	0.60719 0.19550 0.08220 -0.03000
H 	H 	0.58380 0.15730 0.06080 0.03700
N 	N 	0.14313 0.24808 0.10118 -0.27700
C 	C 	0.10964 0.21852 0.16710 0.07500
H 	H 	0.13460 0.19830 0.21300 -0.03600
C 	C 	0.04034 0.21640 0.17070 -0.14700
H 	H 	0.01850 0.19390 0.21760 0.07300
C 	C 	0.00260 0.24730 0.10540 0.08100
C 	C 	0.03798 0.27790 0.03710 -0.14700
H 	H 	0.01440 0.29930 0.99080 0.07300
C 	C 	0.10741 0.27688 0.03710 0.07800
H 	H 	0.13070 0.29740 0.98990 -0.03700
C 	C 	0.92882 0.24790 0.10850 -0.02600
C 	C 	0.89281 0.19210 0.13760 -0.03200
H 	H 	0.91630 0.15300 0.15590 0.03500
C 	C 	0.82300 0.19280 0.14020 -0.06800
H 	H 	0.79940 0.15400 0.15950 0.05200
C 	C 	0.78729 0.24980 0.11480 0.02200
C 	C 	0.82349 0.30580 0.08670 -0.06700
H 	H 	0.80010 0.34540 0.07040 0.05500
C 	C 	0.89281 0.30450 0.08220 -0.03000
H 	H 	0.91620 0.34270 0.06080 0.03700
N 	N 	0.25192 0.14313 0.10118 -0.27700
C 	C 	0.28148 0.10964 0.16710 0.07500
H 	H 	0.30170 0.13460 0.21300 -0.03600
C 	C 	0.28360 0.04034 0.17070 -0.14700
H 	H 	0.30610 0.01850 0.21760 0.07300
C 	C 	0.25270 0.00260 0.10540 0.08100
C 	C 	0.22210 0.03798 0.03710 -0.14700
H 	H 	0.20070 0.01440 0.99080 0.07300
C 	C 	0.22312 0.10741 0.03710 0.07800
H 	H 	0.20260 0.13070 0.98990 -0.03700
C 	C 	0.25210 0.92882 0.10850 -0.02600
C 	C 	0.30790 0.89281 0.13760 -0.03200
H 	H 	0.34700 0.91630 0.15590 0.03500
C 	C 	0.30720 0.82300 0.14020 -0.06800
H 	H 	0.34600 0.79940 0.15950 0.05200
C 	C 	0.25020 0.78729 0.11480 0.02200
C 	C 	0.19420 0.82349 0.08670 -0.06700
H 	H 	0.15460 0.80010 0.07040 0.05500
C 	C 	0.19550 0.89281 0.08220 -0.03000
H 	H 	0.15730 0.91620 0.06080 0.03700
N 	N 	0.24808 0.35687 0.10118 -0.27700
C 	C 	0.21852 0.39036 0.16710 0.07500
H 	H 	0.19830 0.36540 0.21300 -0.03600
C 	C 	0.21640 0.45966 0.17070 -0.14700
H 	H 	0.19390 0.48150 0.21760 0.07300
C 	C 	0.24730 0.49740 0.10540 0.08100
C 	C 	0.27790 0.46202 0.03710 -0.14800
H 	H 	0.29930 0.48560 0.99080 0.07300
C 	C 	0.27688 0.39259 0.03710 0.07800
H 	H 	0.29740 0.36930 0.98990 -0.03700
C 	C 	0.24790 0.57118 0.10850 -0.02600
C 	C 	0.19210 0.60719 0.13760 -0.03200
H 	H 	0.15300 0.58370 0.15590 0.03500
C 	C 	0.19280 0.67700 0.14020 -0.06800
H 	H 	0.15400 0.70060 0.15950 0.05200
C 	C 	0.24980 0.71271 0.11480 0.02200
C 	C 	0.30580 0.67651 0.08670 -0.06700
H 	H 	0.34540 0.69990 0.07040 0.05500
C 	C 	0.30450 0.60719 0.08220 -0.03000
H 	H 	0.34270 0.58380 0.06080 0.03700
Zn	Zn	0.25000 0.25000 0.10058 1.14800
