data_crystal

_cell_length_a 11.63960
_cell_length_b 11.75650
_cell_length_c 13.00340
_cell_angle_alpha 101.04000
_cell_angle_beta  93.70800
_cell_angle_gamma 114.40200

_symmetry_space_group_name_	'P 1'
_symmetry_space_group_name_H-M	'P 1'

loop_
_symmetry_equiv_pos_as_xyz
  x,y,z

loop_
_atom_site_label
_atom_site_type_symbol
_atom_site_fract_x
_atom_site_fract_y
_atom_site_fract_z
_atom_site_charge
Bi	Bi	0.44888 0.24851 0.61455 1.84200
Bi	Bi	0.69853 0.45503 0.84412 1.97400
Bi	Bi	0.38459 0.41811 0.88219 1.77700
Bi	Bi	0.55185 0.58533 0.62978 1.87600
O 	O 	0.54260 0.43530 0.73720 -0.98200
O 	O 	0.46360 0.39530 0.53420 -0.92300
O 	O 	0.58030 0.47970 0.95110 -1.07300
C 	C 	0.81850 0.20610 0.60610 -0.12200
C 	C 	0.85350 0.15730 0.51630 -0.01700
C 	C 	0.96870 0.15580 0.51250 -0.06500
H 	H 	0.98690 0.11830 0.44980 0.20200
C 	C 	0.05960 0.21190 0.60470 -0.08700
C 	C 	0.02870 0.26230 0.69630 0.06800
H 	H 	0.08820 0.29710 0.75830 -0.02200
C 	C 	0.90930 0.26230 0.69810 -0.12500
H 	H 	0.89020 0.29960 0.76030 0.19500
C 	C 	0.68620 0.19950 0.61410 0.30800
C 	C 	0.18960 0.21600 0.59850 0.40200
N 	N 	0.76140 0.10440 0.41520 0.00000
O 	O 	0.59390 0.09250 0.59950 -0.43200
O 	O 	0.67700 0.30540 0.63730 -0.44300
O 	O 	0.21280 0.16190 0.51650 -0.41100
O 	O 	0.27500 0.27430 0.68290 -0.68100
O 	O 	0.76340 0.01700 0.35110 -0.19800
O 	O 	0.69240 0.15710 0.40000 -0.23600
C 	C 	0.88150 0.50560 0.50220 -8.00000
C 	C 	0.97580 0.55760 0.59060 35.60600
C 	C 	0.90750 0.44730 0.40960 -14.08600
H 	H 	0.84480 0.41090 0.34640 4.61800
C 	C 	0.75240 0.50960 0.50210 3.76200
O 	O 	0.73460 0.56640 0.58870 -1.02200
O 	O 	0.67450 0.45300 0.41580 -1.28600
C 	C 	0.91990 0.86660 0.97170 0.80900
C 	C 	0.93420 0.94340 0.90000 -3.92900
C 	C 	0.98680 0.92630 0.07370 1.48300
H 	H 	0.97810 0.87650 0.12570 -0.48400
C 	C 	0.83910 0.72380 0.94410 -0.04600
O 	O 	0.77700 0.66950 0.85060 -0.40600
O 	O 	0.83620 0.66350 0.01150 -0.37300
N 	N 	0.87900 0.88620 0.78530 -5.07500
O 	O 	0.77100 0.86900 0.76200 0.46700
O 	O 	0.94800 0.86300 0.72700 2.04500
N 	N 	0.96810 0.62610 0.69540 45.45300
O 	O 	0.99590 0.74060 0.70740 -8.63700
O 	O 	0.94390 0.56770 0.76390 -9.01500
H 	H 	0.95900 0.59900 0.65500 -50.28700
H 	H 	0.88760 0.90340 0.82920 5.58900
O 	O 	0.77500 0.82800 0.68200 -0.01100
Bi	Bi	0.55112 0.75149 0.38545 1.84100
Bi	Bi	0.30147 0.54497 0.15588 1.97300
Bi	Bi	0.61541 0.58189 0.11781 1.77600
Bi	Bi	0.44815 0.41467 0.37022 1.87500
O 	O 	0.45740 0.56470 0.26280 -0.98200
O 	O 	0.53640 0.60470 0.46580 -0.92300
O 	O 	0.41970 0.52030 0.04890 -1.07300
C 	C 	0.18150 0.79390 0.39390 -0.12200
C 	C 	0.14650 0.84270 0.48370 -0.01700
C 	C 	0.03130 0.84420 0.48750 -0.06500
H 	H 	0.01310 0.88170 0.55020 0.20200
C 	C 	0.94040 0.78810 0.39530 -0.08700
C 	C 	0.97130 0.73770 0.30370 0.06800
H 	H 	0.91180 0.70290 0.24170 -0.02200
C 	C 	0.09070 0.73770 0.30190 -0.12500
H 	H 	0.10980 0.70040 0.23970 0.19500
C 	C 	0.31380 0.80050 0.38590 0.30800
C 	C 	0.81040 0.78400 0.40150 0.40200
N 	N 	0.23860 0.89560 0.58480 0.00000
O 	O 	0.40610 0.90750 0.40050 -0.43200
O 	O 	0.32300 0.69460 0.36270 -0.44300
O 	O 	0.78720 0.83810 0.48350 -0.41100
O 	O 	0.72500 0.72570 0.31710 -0.68100
O 	O 	0.23660 0.98300 0.64890 -0.19800
O 	O 	0.30760 0.84290 0.60000 -0.23600
C 	C 	0.11850 0.49440 0.49780 -8.00000
C 	C 	0.02420 0.44240 0.40940 35.60600
C 	C 	0.09250 0.55270 0.59040 -14.08600
H 	H 	0.15520 0.58910 0.65360 4.61800
C 	C 	0.24760 0.49040 0.49790 3.76200
O 	O 	0.26540 0.43360 0.41130 -1.02200
O 	O 	0.32550 0.54700 0.58420 -1.28600
C 	C 	0.08010 0.13340 0.02830 0.80900
C 	C 	0.06580 0.05660 0.10000 -3.92900
C 	C 	0.01320 0.07370 0.92630 1.48300
H 	H 	0.02190 0.12350 0.87430 -0.48400
C 	C 	0.16090 0.27620 0.05590 -0.04600
O 	O 	0.22300 0.33050 0.14940 -0.40600
O 	O 	0.16380 0.33650 0.98850 -0.37300
N 	N 	0.12100 0.11380 0.21470 -5.07500
O 	O 	0.22900 0.13100 0.23800 0.46700
O 	O 	0.05200 0.13700 0.27300 2.04500
N 	N 	0.03190 0.37390 0.30460 45.45300
O 	O 	0.00410 0.25940 0.29260 -8.63700
O 	O 	0.05610 0.43230 0.23610 -9.01500
H 	H 	0.04100 0.40100 0.34500 -50.28700
H 	H 	0.11240 0.09660 0.17080 5.58900
O 	O 	0.22500 0.17200 0.31800 -0.01100
