data_crystal

_cell_length_a 6.55540
_cell_length_b 15.38400
_cell_length_c 18.13500
_cell_angle_alpha 90.00000
_cell_angle_beta  90.00000
_cell_angle_gamma 90.00000

_symmetry_space_group_name_	'P 1'
_symmetry_space_group_name_H-M	'P 1'

loop_
_symmetry_equiv_pos_as_xyz
  x,y,z

loop_
_atom_site_label
_atom_site_type_symbol
_atom_site_fract_x
_atom_site_fract_y
_atom_site_fract_z
_atom_site_charge
O 	O 	0.68680 0.63070 0.56960 -0.25300
O 	O 	0.68620 0.67470 0.58660 -0.28700
O 	O 	0.18680 0.13070 0.56960 -0.28300
O 	O 	0.18620 0.17470 0.58660 -0.30800
O 	O 	0.31320 0.36930 0.06960 -0.28400
O 	O 	0.31380 0.32530 0.08660 -0.30800
O 	O 	0.81320 0.86930 0.06960 -0.23200
O 	O 	0.81380 0.82530 0.08660 -0.26000
O 	O 	0.31320 0.63070 0.93040 -0.28400
O 	O 	0.31380 0.67470 0.91340 -0.30800
O 	O 	0.81320 0.13070 0.93040 -0.23100
O 	O 	0.81380 0.17470 0.91340 -0.25900
O 	O 	0.68680 0.36930 0.43040 -0.25200
O 	O 	0.68620 0.32530 0.41340 -0.28600
O 	O 	0.18680 0.86930 0.43040 -0.28200
O 	O 	0.18620 0.82530 0.41340 -0.30700
O 	O 	0.31320 0.36930 0.43040 -0.28400
O 	O 	0.31380 0.32530 0.41340 -0.30700
O 	O 	0.81320 0.86930 0.43040 -0.23100
O 	O 	0.81380 0.82530 0.41340 -0.25900
O 	O 	0.68680 0.63070 0.93040 -0.25200
O 	O 	0.68620 0.67470 0.91340 -0.28600
O 	O 	0.18680 0.13070 0.93040 -0.28200
O 	O 	0.18620 0.17470 0.91340 -0.30700
O 	O 	0.68680 0.36930 0.06960 -0.25200
O 	O 	0.68620 0.32530 0.08660 -0.28600
O 	O 	0.18680 0.86930 0.06960 -0.28200
O 	O 	0.18620 0.82530 0.08660 -0.30700
O 	O 	0.31320 0.63070 0.56960 -0.28400
O 	O 	0.31380 0.67470 0.58660 -0.30700
O 	O 	0.81320 0.13070 0.56960 -0.23100
O 	O 	0.81380 0.17470 0.58660 -0.25900
In	In	0.50000 0.83529 0.42689 2.01800
P 	P 	0.50000 0.66410 0.54248 0.60400
H 	H 	0.50000 0.73950 0.58470 0.01500
O 	O 	0.50000 0.70950 0.46900 -0.53200
O 	O 	0.50000 0.79450 0.31720 -0.48500
O 	O 	0.50000 0.97850 0.40540 -0.39000
O 	O 	0.50000 0.10550 0.46230 -0.41800
C 	C 	0.50000 0.02390 0.46180 0.24200
H 	H 	0.50000 0.57620 0.52470 0.02100
In	In	0.00000 0.33529 0.42689 2.00600
P 	P 	0.00000 0.16410 0.54248 0.52700
H 	H 	0.00000 0.23950 0.58470 -0.01800
O 	O 	0.00000 0.20950 0.46900 -0.57000
O 	O 	0.00000 0.29450 0.31720 -0.56300
O 	O 	0.00000 0.47850 0.40540 -0.42700
O 	O 	0.00000 0.60550 0.46230 -0.45700
C 	C 	0.00000 0.52390 0.46180 0.22700
H 	H 	0.00000 0.07620 0.52470 -0.01800
In	In	0.50000 0.16471 0.92689 2.01800
P 	P 	0.50000 0.33590 0.04248 0.60400
H 	H 	0.50000 0.26050 0.08470 0.01500
O 	O 	0.50000 0.29050 0.96900 -0.53300
O 	O 	0.50000 0.20550 0.81720 -0.48500
O 	O 	0.50000 0.02150 0.90540 -0.39000
O 	O 	0.50000 0.89450 0.96230 -0.41800
C 	C 	0.50000 0.97610 0.96180 0.24300
H 	H 	0.50000 0.42380 0.02470 0.02100
In	In	0.00000 0.66471 0.92689 2.00600
P 	P 	0.00000 0.83590 0.04248 0.52700
H 	H 	-0.00000 0.76050 0.08470 -0.01800
O 	O 	0.00000 0.79050 0.96900 -0.57000
O 	O 	0.00000 0.70550 0.81720 -0.56300
O 	O 	0.00000 0.52150 0.90540 -0.42700
O 	O 	0.00000 0.39450 0.96230 -0.45700
C 	C 	0.00000 0.47610 0.96180 0.22800
H 	H 	0.00000 0.92380 0.02470 -0.01800
In	In	0.50000 0.83529 0.07311 2.01800
P 	P 	0.50000 0.66410 0.95752 0.60400
H 	H 	0.50000 0.73950 0.91530 0.01500
O 	O 	0.50000 0.70950 0.03100 -0.53300
O 	O 	0.50000 0.79450 0.18280 -0.48500
O 	O 	0.50000 0.97850 0.09460 -0.39000
O 	O 	0.50000 0.10550 0.03770 -0.41800
C 	C 	0.50000 0.02390 0.03820 0.24300
H 	H 	0.50000 0.57620 0.97530 0.02100
In	In	0.00000 0.33529 0.07311 2.00600
P 	P 	0.00000 0.16410 0.95752 0.52700
H 	H 	0.00000 0.23950 0.91530 -0.01800
O 	O 	-0.00000 0.20950 0.03100 -0.57000
O 	O 	0.00000 0.29450 0.18280 -0.56300
O 	O 	0.00000 0.47850 0.09460 -0.42700
O 	O 	-0.00000 0.60550 0.03770 -0.45700
C 	C 	0.00000 0.52390 0.03820 0.22800
H 	H 	0.00000 0.07620 0.97530 -0.01800
In	In	0.50000 0.16471 0.57311 2.01800
P 	P 	0.50000 0.33590 0.45752 0.60400
H 	H 	0.50000 0.26050 0.41530 0.01500
O 	O 	0.50000 0.29050 0.53100 -0.53200
O 	O 	0.50000 0.20550 0.68280 -0.48500
O 	O 	0.50000 0.02150 0.59460 -0.39000
O 	O 	0.50000 0.89450 0.53770 -0.41800
C 	C 	0.50000 0.97610 0.53820 0.24200
H 	H 	0.50000 0.42380 0.47530 0.02100
In	In	0.00000 0.66471 0.57311 2.00600
P 	P 	0.00000 0.83590 0.45752 0.52700
H 	H 	0.00000 0.76050 0.41530 -0.01800
O 	O 	0.00000 0.79050 0.53100 -0.57000
O 	O 	0.00000 0.70550 0.68280 -0.56300
O 	O 	0.00000 0.52150 0.59460 -0.42700
O 	O 	-0.00000 0.39450 0.53770 -0.45700
C 	C 	0.00000 0.47610 0.53820 0.22700
H 	H 	0.00000 0.92380 0.47530 -0.01800
P 	P 	0.60810 0.83720 0.25000 0.30900
H 	H 	0.82640 0.84750 0.25000 0.05700
O 	O 	0.57400 0.93260 0.25000 -0.12800
P 	P 	0.10810 0.33720 0.25000 0.25300
H 	H 	0.32640 0.34750 0.25000 0.03700
O 	O 	0.07400 0.43260 0.25000 -0.26200
P 	P 	0.39190 0.16280 0.75000 0.29500
H 	H 	0.17360 0.15250 0.75000 -0.00400
O 	O 	0.42600 0.06740 0.75000 -0.15800
P 	P 	0.89190 0.66280 0.75000 0.45800
H 	H 	0.67360 0.65250 0.75000 0.01400
O 	O 	0.92600 0.56740 0.75000 -0.01600
P 	P 	0.39190 0.83720 0.25000 0.29500
H 	H 	0.17360 0.84750 0.25000 -0.00400
O 	O 	0.42600 0.93260 0.25000 -0.15800
P 	P 	0.89190 0.33720 0.25000 0.45800
H 	H 	0.67360 0.34750 0.25000 0.01400
O 	O 	0.92600 0.43260 0.25000 -0.01600
P 	P 	0.60810 0.16280 0.75000 0.30900
H 	H 	0.82640 0.15250 0.75000 0.05700
O 	O 	0.57400 0.06740 0.75000 -0.12800
P 	P 	0.10810 0.66280 0.75000 0.25300
H 	H 	0.32640 0.65250 0.75000 0.03700
O 	O 	0.07400 0.56740 0.75000 -0.26200
