data_crystal

_cell_length_a 17.55150
_cell_length_b 14.28750
_cell_length_c 18.74560
_cell_angle_alpha 90.00000
_cell_angle_beta  97.43600
_cell_angle_gamma 90.00000

_symmetry_space_group_name_	'P 1'
_symmetry_space_group_name_H-M	'P 1'

loop_
_symmetry_equiv_pos_as_xyz
  x,y,z

loop_
_atom_site_label
_atom_site_type_symbol
_atom_site_fract_x
_atom_site_fract_y
_atom_site_fract_z
_atom_site_charge
Mn	Mn	0.61625 0.42877 0.99503 1.30000
Mn	Mn	0.86809 0.57665 0.99526 1.30200
N 	N 	0.67734 0.31450 0.93175 -0.21900
O 	O 	0.81902 0.02526 0.55842 -0.45500
O 	O 	0.71168 0.09745 0.57963 -0.44100
C 	C 	0.77789 0.06670 0.59802 0.40800
C 	C 	0.81200 0.08380 0.67590 -0.11400
C 	C 	0.77181 0.13490 0.72134 0.00400
H 	H 	0.72280 0.15830 0.70400 0.03900
C 	C 	0.80280 0.15250 0.79267 -0.03700
C 	C 	0.87580 0.11770 0.81660 -0.02100
H 	H 	0.89830 0.13020 0.86390 0.03700
C 	C 	0.91540 0.06520 0.77190 -0.07100
H 	H 	0.96420 0.04130 0.78930 0.05500
C 	C 	0.88390 0.04730 0.70132 0.01400
H 	H 	0.91090 0.01100 0.67110 0.03400
C 	C 	0.64260 0.24950 0.88742 0.08500
H 	H 	0.58950 0.24010 0.88720 -0.00300
C 	C 	0.68060 0.19520 0.84187 -0.15200
H 	H 	0.65340 0.15050 0.81170 0.08100
C 	C 	0.75941 0.20720 0.84102 0.09400
C 	C 	0.79560 0.27260 0.88914 -0.15000
H 	H 	0.84900 0.28130 0.89250 0.08900
C 	C 	0.75332 0.32460 0.93178 0.08100
H 	H 	0.77910 0.36950 0.96260 -0.00200
N 	N 	0.54667 0.16310 0.56534 -0.23000
O 	O 	0.41321 0.45687 0.93929 -0.45000
O 	O 	0.52415 0.40372 0.90899 -0.44800
C 	C 	0.45392 0.42200 0.89601 0.39600
C 	C 	0.41505 0.39670 0.82127 -0.10800
C 	C 	0.45475 0.34690 0.77391 0.00000
H 	H 	0.50620 0.32980 0.78820 0.03900
C 	C 	0.41927 0.32200 0.70539 -0.03500
C 	C 	0.34340 0.35000 0.68424 -0.02200
H 	H 	0.31930 0.33500 0.63790 0.03800
C 	C 	0.30360 0.39950 0.73090 -0.06800
H 	H 	0.25250 0.41780 0.71630 0.05400
C 	C 	0.33903 0.42250 0.79954 0.01400
H 	H 	0.31150 0.45550 0.83130 0.03500
C 	C 	0.55690 0.15110 0.63686 0.08300
H 	H 	0.59330 0.10670 0.65640 -0.00300
C 	C 	0.51690 0.20030 0.68327 -0.14900
H 	H 	0.52640 0.18890 0.73300 0.08200
C 	C 	0.46221 0.26710 0.65645 0.09500
C 	C 	0.44950 0.27610 0.58254 -0.15500
H 	H 	0.41180 0.31780 0.56120 0.08200
C 	C 	0.49220 0.22360 0.53989 0.08900
H 	H 	0.48200 0.23110 0.48980 -0.00800
N 	N 	0.07156 0.18186 0.57069 -0.22700
O 	O 	0.92360 0.46787 0.94136 -0.44600
O 	O 	0.03529 0.40654 0.92003 -0.43400
C 	C 	0.96777 0.43400 0.90108 0.39800
C 	C 	0.93696 0.42100 0.82231 -0.11200
C 	C 	0.97793 0.36910 0.77756 -0.00400
H 	H 	0.02650 0.34530 0.79580 0.04100
C 	C 	0.94854 0.35140 0.70607 -0.03300
C 	C 	0.87690 0.38880 0.67996 -0.02400
H 	H 	0.85570 0.37720 0.63210 0.03900
C 	C 	0.83690 0.44250 0.72380 -0.06800
H 	H 	0.78920 0.46840 0.70500 0.05700
C 	C 	0.86610 0.45880 0.79533 0.01200
H 	H 	0.83830 0.49490 0.82500 0.03300
C 	C 	0.10807 0.24350 0.61723 0.08200
H 	H 	0.16170 0.24870 0.61960 -0.00100
C 	C 	0.07096 0.29950 0.66164 -0.14900
H 	H 	0.09920 0.34150 0.69340 0.08100
C 	C 	0.99137 0.29370 0.65937 0.08800
C 	C 	0.95330 0.23070 0.61027 -0.14500
H 	H 	0.89950 0.22570 0.60560 0.08700
C 	C 	0.99460 0.17600 0.56874 0.07400
H 	H 	0.96790 0.13240 0.53740 0.00600
N 	N 	0.80893 0.80721 0.55458 -0.22500
O 	O 	0.66441 0.52839 0.92957 -0.45200
O 	O 	0.77515 0.59036 0.90710 -0.44400
C 	C 	0.70787 0.56170 0.88826 0.40600
C 	C 	0.67728 0.56990 0.80889 -0.10800
C 	C 	0.71694 0.62190 0.76310 0.00100
H 	H 	0.76350 0.65080 0.78130 0.03900
C 	C 	0.68854 0.63210 0.68998 -0.03400
C 	C 	0.61960 0.58760 0.66384 -0.02500
H 	H 	0.59940 0.59410 0.61520 0.03600
C 	C 	0.58100 0.53420 0.70910 -0.06700
H 	H 	0.53530 0.50340 0.69060 0.05300
C 	C 	0.60894 0.52550 0.78194 0.01200
H 	H 	0.58190 0.49000 0.81260 0.03700
C 	C 	0.84671 0.75100 0.60451 0.08000
H 	H 	0.90070 0.75090 0.60950 -0.00100
C 	C 	0.81090 0.69310 0.64897 -0.15100
H 	H 	0.84040 0.65630 0.68370 0.08200
C 	C 	0.73092 0.68950 0.64220 0.08800
C 	C 	0.69202 0.74580 0.58887 -0.14100
H 	H 	0.63800 0.74480 0.58100 0.08200
C 	C 	0.73190 0.80310 0.54733 0.07200
H 	H 	0.70380 0.84110 0.51240 0.00800
Mn	Mn	0.38375 0.92877 0.50497 1.30000
Mn	Mn	0.13191 0.07665 0.50474 1.30200
N 	N 	0.32266 0.81450 0.56825 -0.22000
O 	O 	0.18098 0.52526 0.94158 -0.45500
O 	O 	0.28832 0.59745 0.92037 -0.44000
C 	C 	0.22211 0.56670 0.90198 0.40800
C 	C 	0.18800 0.58380 0.82410 -0.11300
C 	C 	0.22819 0.63490 0.77866 0.00400
H 	H 	0.27720 0.65830 0.79600 0.03900
C 	C 	0.19720 0.65250 0.70733 -0.03700
C 	C 	0.12420 0.61770 0.68340 -0.02100
H 	H 	0.10170 0.63020 0.63610 0.03800
C 	C 	0.08460 0.56520 0.72810 -0.07000
H 	H 	0.03580 0.54130 0.71070 0.05700
C 	C 	0.11610 0.54730 0.79868 0.01400
H 	H 	0.08910 0.51100 0.82890 0.03500
C 	C 	0.35740 0.74950 0.61258 0.08500
H 	H 	0.41050 0.74010 0.61280 -0.00300
C 	C 	0.31940 0.69520 0.65813 -0.15200
H 	H 	0.34660 0.65050 0.68830 0.08100
C 	C 	0.24059 0.70720 0.65898 0.09400
C 	C 	0.20440 0.77260 0.61086 -0.15000
H 	H 	0.15100 0.78130 0.60750 0.08900
C 	C 	0.24668 0.82460 0.56822 0.08100
H 	H 	0.22090 0.86950 0.53740 -0.00100
N 	N 	0.45333 0.66310 0.93466 -0.23000
O 	O 	0.58679 0.95687 0.56071 -0.45100
O 	O 	0.47585 0.90372 0.59101 -0.44800
C 	C 	0.54608 0.92200 0.60399 0.39600
C 	C 	0.58495 0.89670 0.67873 -0.10800
C 	C 	0.54525 0.84690 0.72609 0.00000
H 	H 	0.49380 0.82980 0.71180 0.03900
C 	C 	0.58073 0.82200 0.79461 -0.03500
C 	C 	0.65660 0.85000 0.81576 -0.02200
H 	H 	0.68070 0.83500 0.86210 0.03800
C 	C 	0.69640 0.89950 0.76910 -0.06800
H 	H 	0.74750 0.91780 0.78370 0.05400
C 	C 	0.66097 0.92250 0.70046 0.01400
H 	H 	0.68850 0.95550 0.66870 0.03500
C 	C 	0.44310 0.65110 0.86314 0.08300
H 	H 	0.40670 0.60670 0.84360 -0.00300
C 	C 	0.48310 0.70030 0.81673 -0.14900
H 	H 	0.47360 0.68890 0.76700 0.08200
C 	C 	0.53779 0.76710 0.84355 0.09500
C 	C 	0.55050 0.77610 0.91746 -0.15400
H 	H 	0.58820 0.81780 0.93880 0.08100
C 	C 	0.50780 0.72360 0.96011 0.08900
H 	H 	0.51800 0.73110 0.01020 -0.00700
N 	N 	0.92844 0.68186 0.92931 -0.23200
O 	O 	0.07640 0.96787 0.55864 -0.44700
O 	O 	0.96471 0.90654 0.57997 -0.44000
C 	C 	0.03223 0.93400 0.59892 0.40800
C 	C 	0.06304 0.92100 0.67769 -0.12200
C 	C 	0.02207 0.86910 0.72244 0.01400
H 	H 	0.97350 0.84530 0.70420 0.03200
C 	C 	0.05146 0.85140 0.79393 -0.04500
C 	C 	0.12310 0.88880 0.82004 -0.01400
H 	H 	0.14430 0.87720 0.86790 0.03600
C 	C 	0.16310 0.94250 0.77620 -0.07600
H 	H 	0.21080 0.96840 0.79500 0.06000
C 	C 	0.13390 0.95880 0.70467 0.02100
H 	H 	0.16170 0.99490 0.67500 0.03000
C 	C 	0.89193 0.74350 0.88277 0.08800
H 	H 	0.83830 0.74870 0.88040 -0.00400
C 	C 	0.92904 0.79950 0.83836 -0.16400
H 	H 	0.90080 0.84150 0.80660 0.08500
C 	C 	0.00863 0.79370 0.84063 0.10300
C 	C 	0.04670 0.73070 0.88973 -0.15500
H 	H 	0.10050 0.72570 0.89440 0.09100
C 	C 	0.00540 0.67600 0.93126 0.08500
H 	H 	0.03210 0.63240 0.96260 0.00400
N 	N 	0.19107 0.30721 0.94542 -0.22500
O 	O 	0.33559 0.02839 0.57043 -0.45200
O 	O 	0.22485 0.09036 0.59290 -0.44300
C 	C 	0.29213 0.06170 0.61174 0.40600
C 	C 	0.32272 0.06990 0.69111 -0.10800
C 	C 	0.28306 0.12190 0.73690 0.00100
H 	H 	0.23650 0.15080 0.71870 0.03900
C 	C 	0.31146 0.13210 0.81002 -0.03400
C 	C 	0.38040 0.08760 0.83616 -0.02500
H 	H 	0.40060 0.09410 0.88480 0.03600
C 	C 	0.41900 0.03420 0.79090 -0.06700
H 	H 	0.46470 0.00340 0.80940 0.05300
C 	C 	0.39106 0.02550 0.71806 0.01200
H 	H 	0.41810 0.99000 0.68740 0.03700
C 	C 	0.15329 0.25100 0.89549 0.08100
H 	H 	0.09930 0.25090 0.89050 0.00000
C 	C 	0.18910 0.19310 0.85103 -0.15000
H 	H 	0.15960 0.15630 0.81630 0.08300
C 	C 	0.26908 0.18950 0.85780 0.08800
C 	C 	0.30798 0.24580 0.91113 -0.14000
H 	H 	0.36200 0.24480 0.91900 0.08300
C 	C 	0.26810 0.30310 0.95267 0.07200
H 	H 	0.29620 0.34110 0.98760 0.00900
Mn	Mn	0.38375 0.57123 0.00497 1.29900
Mn	Mn	0.13191 0.42335 0.00474 1.30100
N 	N 	0.32266 0.68550 0.06825 -0.22000
O 	O 	0.18098 0.97474 0.44158 -0.45600
O 	O 	0.28832 0.90255 0.42037 -0.44100
C 	C 	0.22211 0.93330 0.40198 0.40800
C 	C 	0.18800 0.91620 0.32410 -0.11400
C 	C 	0.22819 0.86510 0.27866 0.00400
H 	H 	0.27720 0.84170 0.29600 0.03900
C 	C 	0.19720 0.84750 0.20733 -0.03700
C 	C 	0.12420 0.88230 0.18340 -0.02100
H 	H 	0.10170 0.86980 0.13610 0.03700
C 	C 	0.08460 0.93480 0.22810 -0.07100
H 	H 	0.03580 0.95870 0.21070 0.05500
C 	C 	0.11610 0.95270 0.29868 0.01400
H 	H 	0.08910 0.98900 0.32890 0.03400
C 	C 	0.35740 0.75050 0.11258 0.08500
H 	H 	0.41050 0.75990 0.11280 -0.00300
C 	C 	0.31940 0.80480 0.15813 -0.15200
H 	H 	0.34660 0.84950 0.18830 0.08100
C 	C 	0.24059 0.79280 0.15898 0.09400
C 	C 	0.20440 0.72740 0.11086 -0.15000
H 	H 	0.15100 0.71870 0.10750 0.08900
C 	C 	0.24668 0.67540 0.06822 0.08100
H 	H 	0.22090 0.63050 0.03740 -0.00200
N 	N 	0.45333 0.83690 0.43466 -0.23000
O 	O 	0.58679 0.54313 0.06071 -0.45000
O 	O 	0.47585 0.59628 0.09101 -0.44800
C 	C 	0.54608 0.57800 0.10399 0.39600
C 	C 	0.58495 0.60330 0.17873 -0.10800
C 	C 	0.54525 0.65310 0.22609 0.00000
H 	H 	0.49380 0.67020 0.21180 0.03900
C 	C 	0.58073 0.67800 0.29461 -0.03500
C 	C 	0.65660 0.65000 0.31576 -0.02200
H 	H 	0.68070 0.66500 0.36210 0.03800
C 	C 	0.69640 0.60050 0.26910 -0.06800
H 	H 	0.74750 0.58220 0.28370 0.05400
C 	C 	0.66097 0.57750 0.20046 0.01400
H 	H 	0.68850 0.54450 0.16870 0.03500
C 	C 	0.44310 0.84890 0.36314 0.08300
H 	H 	0.40670 0.89330 0.34360 -0.00300
C 	C 	0.48310 0.79970 0.31673 -0.14900
H 	H 	0.47360 0.81110 0.26700 0.08200
C 	C 	0.53779 0.73290 0.34355 0.09500
C 	C 	0.55050 0.72390 0.41746 -0.15500
H 	H 	0.58820 0.68220 0.43880 0.08200
C 	C 	0.50780 0.77640 0.46011 0.08900
H 	H 	0.51800 0.76890 0.51020 -0.00800
N 	N 	0.92844 0.81814 0.42931 -0.22700
O 	O 	0.07640 0.53213 0.05864 -0.44600
O 	O 	0.96471 0.59346 0.07997 -0.43400
C 	C 	0.03223 0.56600 0.09892 0.39800
C 	C 	0.06304 0.57900 0.17769 -0.11200
C 	C 	0.02207 0.63090 0.22244 -0.00400
H 	H 	0.97350 0.65470 0.20420 0.04100
C 	C 	0.05146 0.64860 0.29393 -0.03300
C 	C 	0.12310 0.61120 0.32004 -0.02400
H 	H 	0.14430 0.62280 0.36790 0.03900
C 	C 	0.16310 0.55750 0.27620 -0.06800
H 	H 	0.21080 0.53160 0.29500 0.05700
C 	C 	0.13390 0.54120 0.20467 0.01200
H 	H 	0.16170 0.50510 0.17500 0.03300
C 	C 	0.89193 0.75650 0.38277 0.08200
H 	H 	0.83830 0.75130 0.38040 -0.00100
C 	C 	0.92904 0.70050 0.33836 -0.14900
H 	H 	0.90080 0.65850 0.30660 0.08100
C 	C 	0.00863 0.70630 0.34063 0.08800
C 	C 	0.04670 0.76930 0.38973 -0.14500
H 	H 	0.10050 0.77430 0.39440 0.08700
C 	C 	0.00540 0.82400 0.43126 0.07400
H 	H 	0.03210 0.86760 0.46260 0.00600
N 	N 	0.19107 0.19279 0.44542 -0.22500
O 	O 	0.33559 0.47161 0.07043 -0.45200
O 	O 	0.22485 0.40964 0.09290 -0.44400
C 	C 	0.29213 0.43830 0.11174 0.40600
C 	C 	0.32272 0.43010 0.19111 -0.10800
C 	C 	0.28306 0.37810 0.23690 0.00100
H 	H 	0.23650 0.34920 0.21870 0.03900
C 	C 	0.31146 0.36790 0.31002 -0.03400
C 	C 	0.38040 0.41240 0.33616 -0.02500
H 	H 	0.40060 0.40590 0.38480 0.03600
C 	C 	0.41900 0.46580 0.29090 -0.06700
H 	H 	0.46470 0.49660 0.30940 0.05300
C 	C 	0.39106 0.47450 0.21806 0.01200
H 	H 	0.41810 0.51000 0.18740 0.03700
C 	C 	0.15329 0.24900 0.39549 0.08000
H 	H 	0.09930 0.24910 0.39050 -0.00100
C 	C 	0.18910 0.30690 0.35103 -0.15100
H 	H 	0.15960 0.34370 0.31630 0.08200
C 	C 	0.26908 0.31050 0.35780 0.08800
C 	C 	0.30798 0.25420 0.41113 -0.14100
H 	H 	0.36200 0.25520 0.41900 0.08200
C 	C 	0.26810 0.19690 0.45267 0.07200
H 	H 	0.29620 0.15890 0.48760 0.00800
Mn	Mn	0.61625 0.07123 0.49503 1.30000
Mn	Mn	0.86809 0.92335 0.49526 1.30200
N 	N 	0.67734 0.18550 0.43175 -0.22000
O 	O 	0.81902 0.47474 0.05842 -0.45500
O 	O 	0.71168 0.40255 0.07963 -0.44000
C 	C 	0.77789 0.43330 0.09802 0.40800
C 	C 	0.81200 0.41620 0.17590 -0.11300
C 	C 	0.77181 0.36510 0.22134 0.00400
H 	H 	0.72280 0.34170 0.20400 0.03900
C 	C 	0.80280 0.34750 0.29267 -0.03700
C 	C 	0.87580 0.38230 0.31660 -0.02100
H 	H 	0.89830 0.36980 0.36390 0.03800
C 	C 	0.91540 0.43480 0.27190 -0.07000
H 	H 	0.96420 0.45870 0.28930 0.05700
C 	C 	0.88390 0.45270 0.20132 0.01400
H 	H 	0.91090 0.48900 0.17110 0.03500
C 	C 	0.64260 0.25050 0.38742 0.08500
H 	H 	0.58950 0.25990 0.38720 -0.00300
C 	C 	0.68060 0.30480 0.34187 -0.15200
H 	H 	0.65340 0.34950 0.31170 0.08100
C 	C 	0.75941 0.29280 0.34102 0.09400
C 	C 	0.79560 0.22740 0.38914 -0.15000
H 	H 	0.84900 0.21870 0.39250 0.08900
C 	C 	0.75332 0.17540 0.43178 0.08100
H 	H 	0.77910 0.13050 0.46260 -0.00100
N 	N 	0.54667 0.33690 0.06534 -0.23000
O 	O 	0.41321 0.04313 0.43929 -0.45100
O 	O 	0.52415 0.09628 0.40899 -0.44800
C 	C 	0.45392 0.07800 0.39601 0.39600
C 	C 	0.41505 0.10330 0.32127 -0.10800
C 	C 	0.45475 0.15310 0.27391 0.00000
H 	H 	0.50620 0.17020 0.28820 0.03900
C 	C 	0.41927 0.17800 0.20539 -0.03500
C 	C 	0.34340 0.15000 0.18424 -0.02200
H 	H 	0.31930 0.16500 0.13790 0.03800
C 	C 	0.30360 0.10050 0.23090 -0.06800
H 	H 	0.25250 0.08220 0.21630 0.05400
C 	C 	0.33903 0.07750 0.29954 0.01400
H 	H 	0.31150 0.04450 0.33130 0.03500
C 	C 	0.55690 0.34890 0.13686 0.08300
H 	H 	0.59330 0.39330 0.15640 -0.00300
C 	C 	0.51690 0.29970 0.18327 -0.14900
H 	H 	0.52640 0.31110 0.23300 0.08200
C 	C 	0.46221 0.23290 0.15645 0.09500
C 	C 	0.44950 0.22390 0.08254 -0.15400
H 	H 	0.41180 0.18220 0.06120 0.08100
C 	C 	0.49220 0.27640 0.03989 0.08900
H 	H 	0.48200 0.26890 0.98980 -0.00700
N 	N 	0.07156 0.31814 0.07069 -0.23200
O 	O 	0.92360 0.03213 0.44136 -0.44700
O 	O 	0.03529 0.09346 0.42003 -0.44000
C 	C 	0.96777 0.06600 0.40108 0.40800
C 	C 	0.93696 0.07900 0.32231 -0.12200
C 	C 	0.97793 0.13090 0.27756 0.01400
H 	H 	0.02650 0.15470 0.29580 0.03200
C 	C 	0.94854 0.14860 0.20607 -0.04500
C 	C 	0.87690 0.11120 0.17996 -0.01400
H 	H 	0.85570 0.12280 0.13210 0.03600
C 	C 	0.83690 0.05750 0.22380 -0.07600
H 	H 	0.78920 0.03160 0.20500 0.06000
C 	C 	0.86610 0.04120 0.29533 0.02100
H 	H 	0.83830 0.00510 0.32500 0.03000
C 	C 	0.10807 0.25650 0.11723 0.08800
H 	H 	0.16170 0.25130 0.11960 -0.00400
C 	C 	0.07096 0.20050 0.16164 -0.16400
H 	H 	0.09920 0.15850 0.19340 0.08500
C 	C 	0.99137 0.20630 0.15937 0.10300
C 	C 	0.95330 0.26930 0.11027 -0.15500
H 	H 	0.89950 0.27430 0.10560 0.09100
C 	C 	0.99460 0.32400 0.06874 0.08500
H 	H 	0.96790 0.36760 0.03740 0.00400
N 	N 	0.80893 0.69279 0.05458 -0.22500
O 	O 	0.66441 0.97161 0.42957 -0.45200
O 	O 	0.77515 0.90964 0.40710 -0.44300
C 	C 	0.70787 0.93830 0.38826 0.40600
C 	C 	0.67728 0.93010 0.30889 -0.10800
C 	C 	0.71694 0.87810 0.26310 0.00100
H 	H 	0.76350 0.84920 0.28130 0.03900
C 	C 	0.68854 0.86790 0.18998 -0.03400
C 	C 	0.61960 0.91240 0.16384 -0.02500
H 	H 	0.59940 0.90590 0.11520 0.03600
C 	C 	0.58100 0.96580 0.20910 -0.06700
H 	H 	0.53530 0.99660 0.19060 0.05300
C 	C 	0.60894 0.97450 0.28194 0.01200
H 	H 	0.58190 0.01000 0.31260 0.03700
C 	C 	0.84671 0.74900 0.10451 0.08100
H 	H 	0.90070 0.74910 0.10950 0.00000
C 	C 	0.81090 0.80690 0.14897 -0.15000
H 	H 	0.84040 0.84370 0.18370 0.08300
C 	C 	0.73092 0.81050 0.14220 0.08800
C 	C 	0.69202 0.75420 0.08887 -0.14000
H 	H 	0.63800 0.75520 0.08100 0.08300
C 	C 	0.73190 0.69690 0.04733 0.07200
H 	H 	0.70380 0.65890 0.01240 0.00900
