data_crystal

_cell_length_a 9.94900
_cell_length_b 16.15000
_cell_length_c 24.55000
_cell_angle_alpha 90.00000
_cell_angle_beta  95.83000
_cell_angle_gamma 90.00000

_symmetry_space_group_name_	'P 1'
_symmetry_space_group_name_H-M	'P 1'

loop_
_symmetry_equiv_pos_as_xyz
  x,y,z

loop_
_atom_site_label
_atom_site_type_symbol
_atom_site_fract_x
_atom_site_fract_y
_atom_site_fract_z
_atom_site_charge
Cd	Cd	0.16054 0.58657 0.53658 1.24100
Cd	Cd	0.24860 0.85548 0.98422 1.22700
Cd	Cd	0.33946 0.08657 0.96342 1.23800
Cd	Cd	0.25140 0.35548 0.51578 1.22100
Cd	Cd	0.83946 0.41343 0.46342 1.24300
Cd	Cd	0.75140 0.14452 0.01578 1.21700
Cd	Cd	0.66054 0.91343 0.03658 1.24500
Cd	Cd	0.74860 0.64452 0.48422 1.22300
Cd	Cd	-0.00000 0.00000 -0.00000 1.21200
Cd	Cd	0.50000 0.50000 0.50000 1.22900
H 	H 	0.27330 0.62870 0.39380 0.28900
H 	H 	0.26240 0.77920 0.11910 0.28200
H 	H 	0.86250 0.53890 0.34330 0.01100
H 	H 	0.71320 0.53970 0.25590 0.04500
H 	H 	0.67870 0.57710 0.16570 0.03000
H 	H 	0.85310 0.64100 0.12430 0.02200
H 	H 	0.05080 0.67700 0.17230 0.06300
H 	H 	0.32470 0.70480 0.28230 0.07200
H 	H 	0.27470 0.67370 0.22340 0.07500
H 	H 	0.10460 0.00390 0.19030 -0.01200
H 	H 	0.07960 0.04760 0.28640 -0.00400
H 	H 	0.10320 0.01630 0.37770 0.01400
H 	H 	0.17450 0.88330 0.40770 0.00600
H 	H 	0.22510 0.78700 0.34850 0.08900
H 	H 	0.98530 0.62910 0.63750 0.01300
H 	H 	0.99530 0.67300 0.72650 0.09000
H 	H 	0.40090 0.67700 0.72750 0.08000
H 	H 	0.37660 0.63430 0.63820 0.00100
H 	H 	0.03310 0.77710 0.78890 0.07200
H 	H 	0.05680 0.83690 0.87410 -0.00500
H 	H 	0.40900 0.73580 0.90600 -0.01300
H 	H 	0.39800 0.67520 0.82160 0.08300
H 	H 	0.89040 0.68100 0.98790 0.35300
H 	H 	0.03040 0.71030 0.97090 0.34100
H 	H 	0.01400 0.69070 0.03240 0.33500
H 	H 	0.06370 0.85360 0.53470 0.38900
H 	H 	0.14210 0.77550 0.55890 0.38900
H 	H 	0.03730 0.81980 0.59250 0.39700
H 	H 	0.85990 0.02360 0.07130 0.30300
H 	H 	0.22670 0.12870 0.10620 0.28600
H 	H 	0.23760 0.27920 0.38090 0.27900
H 	H 	0.63750 0.03890 0.15670 0.00400
H 	H 	0.78680 0.03970 0.24410 0.03200
H 	H 	0.82130 0.07710 0.33430 0.04100
H 	H 	0.64690 0.14100 0.37570 0.00500
H 	H 	0.44920 0.17700 0.32770 0.08600
H 	H 	0.17530 0.20480 0.21770 0.06700
H 	H 	0.22530 0.17370 0.27660 0.07000
H 	H 	0.39540 0.50390 0.30970 0.03800
H 	H 	0.42040 0.54760 0.21360 0.03400
H 	H 	0.39680 0.51630 0.12230 0.04500
H 	H 	0.32550 0.38330 0.09230 -0.00600
H 	H 	0.27490 0.28700 0.15150 0.08700
H 	H 	0.51470 0.12910 0.86250 0.00100
H 	H 	0.50470 0.17300 0.77350 0.07600
H 	H 	0.09910 0.17700 0.77250 0.07500
H 	H 	0.12340 0.13430 0.86180 -0.00300
H 	H 	0.46690 0.27710 0.71110 0.07600
H 	H 	0.44320 0.33690 0.62590 -0.00500
H 	H 	0.09100 0.23580 0.59400 -0.02000
H 	H 	0.10200 0.17520 0.67840 0.07900
H 	H 	0.60960 0.18100 0.51210 0.41800
H 	H 	0.46960 0.21030 0.52910 0.41800
H 	H 	0.48600 0.19070 0.46760 0.42300
H 	H 	0.43630 0.35360 0.96530 0.38500
H 	H 	0.35790 0.27550 0.94110 0.38500
H 	H 	0.46270 0.31980 0.90750 0.39200
H 	H 	0.64010 0.52360 0.42870 0.30200
H 	H 	0.72670 0.37130 0.60620 0.29000
H 	H 	0.73760 0.22080 0.88090 0.27700
H 	H 	0.13750 0.46110 0.65670 0.00700
H 	H 	0.28680 0.46030 0.74410 0.02500
H 	H 	0.32130 0.42290 0.83430 0.05700
H 	H 	0.14690 0.35900 0.87570 -0.01500
H 	H 	0.94920 0.32300 0.82770 0.12000
H 	H 	0.67530 0.29520 0.71770 0.07000
H 	H 	0.72530 0.32630 0.77660 0.07200
H 	H 	0.89540 0.99610 0.80970 0.08300
H 	H 	0.92040 0.95240 0.71360 0.06800
H 	H 	0.89680 0.98370 0.62230 0.07200
H 	H 	0.82550 0.11670 0.59230 -0.00500
H 	H 	0.77490 0.21300 0.65150 0.08700
H 	H 	0.01470 0.37090 0.36250 -0.00600
H 	H 	0.00470 0.32700 0.27350 0.06400
H 	H 	0.59910 0.32300 0.27250 0.07800
H 	H 	0.62340 0.36570 0.36180 0.00300
H 	H 	0.96690 0.22290 0.21110 0.08200
H 	H 	0.94320 0.16310 0.12590 -0.00400
H 	H 	0.59100 0.26420 0.09400 -0.02000
H 	H 	0.60200 0.32480 0.17840 0.08600
H 	H 	0.10960 0.31900 0.01210 0.49000
H 	H 	0.96960 0.28970 0.02910 0.49900
H 	H 	0.98600 0.30930 0.96760 0.51900
H 	H 	0.93630 0.14640 0.46530 0.37000
H 	H 	0.85790 0.22450 0.44110 0.37200
H 	H 	0.96270 0.18020 0.40750 0.38200
H 	H 	0.14010 0.97640 0.92870 0.30200
H 	H 	0.77330 0.87130 0.89380 0.29300
H 	H 	0.76240 0.72080 0.61910 0.27900
H 	H 	0.36250 0.96110 0.84330 0.01600
H 	H 	0.21320 0.96030 0.75590 0.04300
H 	H 	0.17870 0.92290 0.66570 0.04200
H 	H 	0.35310 0.85900 0.62430 0.01000
H 	H 	0.55080 0.82300 0.67230 0.08600
H 	H 	0.82470 0.79520 0.78230 0.07500
H 	H 	0.77470 0.82630 0.72340 0.07800
H 	H 	0.60460 0.49610 0.69030 0.03900
H 	H 	0.57960 0.45240 0.78640 0.03600
H 	H 	0.60320 0.48370 0.87770 0.04600
H 	H 	0.67450 0.61670 0.90770 0.00600
H 	H 	0.72510 0.71300 0.84850 0.08900
H 	H 	0.48530 0.87090 0.13750 0.00700
H 	H 	0.49530 0.82700 0.22650 0.07900
H 	H 	0.90090 0.82300 0.22750 0.08100
H 	H 	0.87660 0.86570 0.13820 0.00500
H 	H 	0.53310 0.72290 0.28890 0.07700
H 	H 	0.55680 0.66310 0.37410 -0.00500
H 	H 	0.90900 0.76420 0.40600 -0.01400
H 	H 	0.89800 0.82480 0.32160 0.08800
H 	H 	0.39040 0.81900 0.48790 0.43000
H 	H 	0.53040 0.78970 0.47090 0.42900
H 	H 	0.51400 0.80930 0.53240 0.43500
H 	H 	0.56370 0.64640 0.03470 0.37500
H 	H 	0.64210 0.72450 0.05890 0.37700
H 	H 	0.53730 0.68020 0.09250 0.38800
H 	H 	0.35990 0.47640 0.57130 0.30200
C 	C 	0.06810 0.56161 0.41813 0.39100
C 	C 	0.05048 0.58335 0.35806 -0.21000
C 	C 	0.93032 0.56609 0.32693 0.04500
C 	C 	0.90682 0.58809 0.27160 -0.01400
C 	C 	0.78050 0.56747 0.23960 -0.04500
C 	C 	0.76060 0.58860 0.18612 -0.04500
C 	C 	0.86620 0.62868 0.16143 -0.02500
C 	C 	0.98540 0.64966 0.18996 -0.06200
C 	C 	0.01150 0.62998 0.24722 0.02800
C 	C 	0.13505 0.65218 0.27834 -0.06900
C 	C 	0.15435 0.62593 0.33284 0.23600
C 	C 	0.24715 0.70291 0.25493 -0.07900
C 	C 	0.21073 0.79029 0.23796 -0.09600
C 	C 	0.21060 0.81406 0.18401 0.24900
C 	C 	0.16867 0.89366 0.16534 -0.22100
C 	C 	0.13392 0.95186 0.20258 0.11100
C 	C 	0.14221 0.93349 0.25908 -0.07700
C 	C 	0.10940 0.99539 0.29825 0.03400
C 	C 	0.12260 0.97654 0.35228 -0.05300
C 	C 	0.16630 0.89562 0.37046 0.01300
C 	C 	0.19519 0.83839 0.33506 -0.13100
C 	C 	0.18275 0.85135 0.27734 0.07800
C 	C 	0.15757 0.91750 0.10548 0.40200
C 	C 	0.06983 0.63914 0.65614 0.05300
C 	C 	0.07437 0.66609 0.70979 -0.14000
C 	C 	0.20055 0.68284 0.73839 0.05000
C 	C 	0.31476 0.66844 0.70993 -0.12600
C 	C 	0.29967 0.64181 0.65619 0.06400
C 	C 	0.21202 0.71961 0.79447 0.05900
C 	C 	0.11180 0.76800 0.81202 -0.13200
C 	C 	0.12590 0.80350 0.86363 0.06300
C 	C 	0.33205 0.74433 0.88181 0.08500
C 	C 	0.32667 0.70750 0.83118 -0.14400
C 	C 	0.93160 0.80046 0.00757 0.66300
C 	C 	0.97000 0.71287 0.99890 -1.08900
C 	C 	0.94713 0.74954 0.53019 0.66700
C 	C 	0.05760 0.80462 0.55645 -1.23400
C 	C 	0.43190 0.06161 0.08187 0.40400
C 	C 	0.44952 0.08335 0.14194 -0.21500
C 	C 	0.56968 0.06609 0.17307 0.04900
C 	C 	0.59318 0.08809 0.22840 -0.04600
C 	C 	0.71950 0.06747 0.26040 -0.01800
C 	C 	0.73940 0.08860 0.31388 -0.08000
C 	C 	0.63380 0.12868 0.33857 0.01500
C 	C 	0.51460 0.14966 0.31004 -0.12200
C 	C 	0.48850 0.12998 0.25278 0.06700
C 	C 	0.36495 0.15218 0.22166 -0.08600
C 	C 	0.34565 0.12593 0.16716 0.24200
C 	C 	0.25285 0.20291 0.24507 -0.07200
C 	C 	0.28927 0.29029 0.26204 -0.08900
C 	C 	0.28940 0.31406 0.31599 0.23600
C 	C 	0.33133 0.39366 0.33466 -0.19200
C 	C 	0.36608 0.45186 0.29742 0.02900
C 	C 	0.35779 0.43349 0.24092 -0.03900
C 	C 	0.39060 0.49539 0.20175 -0.02200
C 	C 	0.37740 0.47654 0.14772 -0.08500
C 	C 	0.33370 0.39562 0.12954 0.02300
C 	C 	0.30481 0.33839 0.16494 -0.13200
C 	C 	0.31725 0.35135 0.22266 0.06500
C 	C 	0.34243 0.41750 0.39452 0.39000
C 	C 	0.43017 0.13914 0.84386 0.05800
C 	C 	0.42563 0.16609 0.79021 -0.12700
C 	C 	0.29945 0.18284 0.76161 0.04100
C 	C 	0.18524 0.16844 0.79007 -0.12500
C 	C 	0.20033 0.14181 0.84381 0.05800
C 	C 	0.28798 0.21961 0.70553 0.06200
C 	C 	0.38820 0.26800 0.68798 -0.13600
C 	C 	0.37410 0.30350 0.63637 0.06200
C 	C 	0.16795 0.24433 0.61819 0.08400
C 	C 	0.17333 0.20750 0.66882 -0.14900
C 	C 	0.56840 0.30046 0.49243 0.76200
C 	C 	0.53000 0.21287 0.50110 -1.34600
C 	C 	0.55287 0.24954 0.96981 0.65700
C 	C 	0.44240 0.30462 0.94355 -1.21300
C 	C 	0.93190 0.43839 0.58187 0.41600
C 	C 	0.94952 0.41665 0.64194 -0.20700
C 	C 	0.06968 0.43391 0.67307 0.05200
C 	C 	0.09318 0.41191 0.72840 -0.07500
C 	C 	0.21950 0.43253 0.76040 0.01500
C 	C 	0.23940 0.41140 0.81388 -0.11800
C 	C 	0.13380 0.37132 0.83857 0.06800
C 	C 	0.01460 0.35034 0.81004 -0.19400
C 	C 	0.98850 0.37002 0.75278 0.11900
C 	C 	0.86495 0.34782 0.72166 -0.09700
C 	C 	0.84565 0.37407 0.66716 0.25000
C 	C 	0.75285 0.29709 0.74507 -0.07200
C 	C 	0.78927 0.20971 0.76204 -0.07800
C 	C 	0.78940 0.18594 0.81599 0.22200
C 	C 	0.83133 0.10634 0.83466 -0.16300
C 	C 	0.86608 0.04814 0.79742 -0.04500
C 	C 	0.85779 0.06651 0.74092 -0.00100
C 	C 	0.89060 0.00461 0.70175 -0.07400
C 	C 	0.87740 0.02346 0.64772 -0.10400
C 	C 	0.83370 0.10438 0.62954 0.02700
C 	C 	0.80481 0.16161 0.66494 -0.12500
C 	C 	0.81725 0.14865 0.72266 0.05100
C 	C 	0.84243 0.08250 0.89452 0.37800
C 	C 	0.93017 0.36086 0.34386 0.07300
C 	C 	0.92563 0.33391 0.29021 -0.10800
C 	C 	0.79945 0.31716 0.26161 0.03700
C 	C 	0.68524 0.33156 0.29007 -0.11900
C 	C 	0.70033 0.35819 0.34381 0.06000
C 	C 	0.78798 0.28039 0.20553 0.07000
C 	C 	0.88820 0.23200 0.18798 -0.13900
C 	C 	0.87410 0.19650 0.13637 0.06500
C 	C 	0.66795 0.25567 0.11819 0.08700
C 	C 	0.67333 0.29250 0.16882 -0.15100
C 	C 	0.06840 0.19954 0.99243 0.85100
C 	C 	0.03000 0.28713 0.00110 -1.60400
C 	C 	0.05287 0.25046 0.46981 0.63500
C 	C 	0.94240 0.19538 0.44355 -1.17200
C 	C 	0.56810 0.93839 0.91813 0.40100
C 	C 	0.55048 0.91665 0.85806 -0.19900
C 	C 	0.43032 0.93391 0.82693 0.04400
C 	C 	0.40682 0.91191 0.77160 -0.03200
C 	C 	0.28050 0.93253 0.73960 -0.02200
C 	C 	0.26060 0.91140 0.68612 -0.06900
C 	C 	0.36620 0.87132 0.66143 0.01200
C 	C 	0.48540 0.85034 0.68996 -0.11200
C 	C 	0.51150 0.87002 0.74722 0.06500
C 	C 	0.63505 0.84782 0.77834 -0.07500
C 	C 	0.65435 0.87407 0.83284 0.24100
C 	C 	0.74715 0.79709 0.75493 -0.08300
C 	C 	0.71073 0.70971 0.73796 -0.08300
C 	C 	0.71060 0.68594 0.68401 0.23300
C 	C 	0.66867 0.60634 0.66534 -0.18900
C 	C 	0.63392 0.54814 0.70258 0.02700
C 	C 	0.64221 0.56651 0.75908 -0.03400
C 	C 	0.60940 0.50461 0.79825 -0.02600
C 	C 	0.62260 0.52346 0.85228 -0.07800
C 	C 	0.66630 0.60438 0.87046 0.01800
C 	C 	0.69519 0.66161 0.83506 -0.12400
C 	C 	0.68275 0.64865 0.77734 0.06100
C 	C 	0.65757 0.58250 0.60548 0.39000
C 	C 	0.56983 0.86086 0.15614 0.06600
C 	C 	0.57437 0.83391 0.20979 -0.12300
C 	C 	0.70055 0.81716 0.23839 0.04600
C 	C 	0.81476 0.83156 0.20993 -0.12100
C 	C 	0.79967 0.85819 0.15619 0.06500
C 	C 	0.71202 0.78039 0.29447 0.06600
C 	C 	0.61180 0.73200 0.31202 -0.13500
C 	C 	0.62590 0.69650 0.36363 0.06400
C 	C 	0.83205 0.75567 0.38181 0.08800
C 	C 	0.82667 0.79250 0.33118 -0.14600
C 	C 	0.43160 0.69954 0.50757 0.77000
C 	C 	0.47000 0.78713 0.49890 -1.36900
C 	C 	0.44713 0.75046 0.03019 0.65000
C 	C 	0.55760 0.69538 0.05645 -1.20000
N 	N 	0.17874 0.62645 0.62898 -0.22200
N 	N 	0.23398 0.79149 0.89850 -0.24000
N 	N 	0.32126 0.12645 0.87102 -0.22600
N 	N 	0.26602 0.29149 0.60150 -0.24300
N 	N 	0.82126 0.37355 0.37102 -0.22300
N 	N 	0.76602 0.20851 0.10150 -0.24500
N 	N 	0.67874 0.87355 0.12898 -0.22000
N 	N 	0.73398 0.70851 0.39850 -0.24200
O 	O 	0.17462 0.58724 0.44589 -0.45300
O 	O 	0.97594 0.52346 0.43816 -0.47300
O 	O 	0.27612 0.64200 0.36168 -0.44800
O 	O 	0.08392 0.97705 0.08909 -0.42800
O 	O 	0.22859 0.87280 0.07565 -0.45000
O 	O 	0.24798 0.75631 0.14772 -0.45500
O 	O 	0.83773 0.81857 0.03517 -0.53000
O 	O 	0.00247 0.85416 0.98453 -0.57400
O 	O 	0.97583 0.67437 0.51821 -0.59400
O 	O 	0.83015 0.77694 0.51940 -0.48900
O 	O 	0.81093 0.01712 0.04331 -0.83000
O 	O 	0.32538 0.08724 0.05411 -0.46900
O 	O 	0.52406 0.02346 0.06184 -0.49900
O 	O 	0.22388 0.14200 0.13832 -0.45300
O 	O 	0.41608 0.47705 0.41091 -0.43800
O 	O 	0.27141 0.37280 0.42435 -0.44800
O 	O 	0.25202 0.25631 0.35228 -0.45400
O 	O 	0.66227 0.31857 0.46483 -0.55800
O 	O 	0.49753 0.35416 0.51547 -0.61200
O 	O 	0.52417 0.17437 0.98179 -0.59100
O 	O 	0.66985 0.27694 0.98060 -0.48500
O 	O 	0.68907 0.51712 0.45669 -0.81600
O 	O 	0.82538 0.41276 0.55411 -0.45700
O 	O 	0.02406 0.47654 0.56184 -0.49500
O 	O 	0.72388 0.35800 0.63832 -0.45100
O 	O 	0.91608 0.02295 0.91091 -0.44100
O 	O 	0.77141 0.12720 0.92435 -0.44300
O 	O 	0.75202 0.24369 0.85228 -0.44900
O 	O 	0.16227 0.18143 0.96483 -0.58600
O 	O 	0.99753 0.14584 0.01547 -0.64000
O 	O 	0.02417 0.32563 0.48179 -0.59500
O 	O 	0.16985 0.22306 0.48060 -0.48800
O 	O 	0.18907 0.98288 0.95669 -0.79700
O 	O 	0.67462 0.91276 0.94589 -0.44000
O 	O 	0.47594 0.97654 0.93816 -0.46600
O 	O 	0.77612 0.85800 0.86168 -0.44600
O 	O 	0.58392 0.52295 0.58909 -0.43800
O 	O 	0.72859 0.62720 0.57565 -0.44700
O 	O 	0.74798 0.74369 0.64772 -0.44900
O 	O 	0.33773 0.68143 0.53517 -0.56200
O 	O 	0.50247 0.64584 0.48453 -0.61400
O 	O 	0.47583 0.82563 0.01821 -0.59800
O 	O 	0.33015 0.72306 0.01940 -0.49200
O 	O 	0.31093 0.48288 0.54331 -0.81700
