data_crystal

_cell_length_a 21.14600
_cell_length_b 21.14600
_cell_length_c 21.14600
_cell_angle_alpha 90.00000
_cell_angle_beta  90.00000
_cell_angle_gamma 90.00000

_symmetry_space_group_name_	'P 1'
_symmetry_space_group_name_H-M	'P 1'

loop_
_symmetry_equiv_pos_as_xyz
  x,y,z

loop_
_atom_site_label
_atom_site_type_symbol
_atom_site_fract_x
_atom_site_fract_y
_atom_site_fract_z
_atom_site_charge
N 	N 	0.74270 0.60950 0.78860 -0.22400
C 	C 	0.75660 0.56610 0.82850 0.09600
H 	H 	0.73300 0.55580 0.86410 -0.01200
N 	N 	0.24270 0.10950 0.28860 -0.22400
C 	C 	0.25660 0.06610 0.32850 0.09600
H 	H 	0.23300 0.05580 0.36410 -0.01200
N 	N 	0.25730 0.39050 0.78860 -0.22400
C 	C 	0.24340 0.43390 0.82850 0.09600
H 	H 	0.26700 0.44420 0.86410 -0.01200
N 	N 	0.75730 0.89050 0.28860 -0.22400
C 	C 	0.74340 0.93390 0.32850 0.09600
H 	H 	0.76700 0.94420 0.36410 -0.01200
N 	N 	0.25730 0.60950 0.21140 -0.22400
C 	C 	0.24340 0.56610 0.17150 0.09600
H 	H 	0.26700 0.55580 0.13590 -0.01200
N 	N 	0.75730 0.10950 0.71140 -0.22400
C 	C 	0.74340 0.06610 0.67150 0.09600
H 	H 	0.76700 0.05580 0.63590 -0.01200
N 	N 	0.74270 0.39050 0.21140 -0.22400
C 	C 	0.75660 0.43390 0.17150 0.09600
H 	H 	0.73300 0.44420 0.13590 -0.01200
N 	N 	0.24270 0.89050 0.71140 -0.22400
C 	C 	0.25660 0.93390 0.67150 0.09600
H 	H 	0.23300 0.94420 0.63590 -0.01200
N 	N 	0.78860 0.74270 0.60950 -0.22400
C 	C 	0.82850 0.75660 0.56610 0.09600
H 	H 	0.86410 0.73300 0.55580 -0.01200
N 	N 	0.28860 0.24270 0.10950 -0.22400
C 	C 	0.32850 0.25660 0.06610 0.09500
H 	H 	0.36410 0.23300 0.05580 -0.01300
N 	N 	0.78860 0.25730 0.39050 -0.22500
C 	C 	0.82850 0.24340 0.43390 0.09500
H 	H 	0.86410 0.26700 0.44420 -0.01300
N 	N 	0.28860 0.75730 0.89050 -0.22500
C 	C 	0.32850 0.74340 0.93390 0.09500
H 	H 	0.36410 0.76700 0.94420 -0.01300
N 	N 	0.21140 0.25730 0.60950 -0.22500
C 	C 	0.17150 0.24340 0.56610 0.09500
H 	H 	0.13590 0.26700 0.55580 -0.01300
N 	N 	0.71140 0.75730 0.10950 -0.22500
C 	C 	0.67150 0.74340 0.06610 0.09500
H 	H 	0.63590 0.76700 0.05580 -0.01300
N 	N 	0.21140 0.74270 0.39050 -0.22500
C 	C 	0.17150 0.75660 0.43390 0.09500
H 	H 	0.13590 0.73300 0.44420 -0.01300
N 	N 	0.71140 0.24270 0.89050 -0.22500
C 	C 	0.67150 0.25660 0.93390 0.09500
H 	H 	0.63590 0.23300 0.94420 -0.01300
N 	N 	0.60950 0.78860 0.74270 -0.22500
C 	C 	0.56610 0.82850 0.75660 0.09500
H 	H 	0.55580 0.86410 0.73300 -0.01300
N 	N 	0.10950 0.28860 0.24270 -0.22500
C 	C 	0.06610 0.32850 0.25660 0.09500
H 	H 	0.05580 0.36410 0.23300 -0.01300
N 	N 	0.39050 0.78860 0.25730 -0.22500
C 	C 	0.43390 0.82850 0.24340 0.09500
H 	H 	0.44420 0.86410 0.26700 -0.01300
N 	N 	0.89050 0.28860 0.75730 -0.22500
C 	C 	0.93390 0.32850 0.74340 0.09500
H 	H 	0.94420 0.36410 0.76700 -0.01300
N 	N 	0.60950 0.21140 0.25730 -0.22500
C 	C 	0.56610 0.17150 0.24340 0.09500
H 	H 	0.55580 0.13590 0.26700 -0.01300
N 	N 	0.10950 0.71140 0.75730 -0.22500
C 	C 	0.06610 0.67150 0.74340 0.09500
H 	H 	0.05580 0.63590 0.76700 -0.01300
N 	N 	0.39050 0.21140 0.74270 -0.22500
C 	C 	0.43390 0.17150 0.75660 0.09500
H 	H 	0.44420 0.13590 0.73300 -0.01300
N 	N 	0.89050 0.71140 0.24270 -0.22500
C 	C 	0.93390 0.67150 0.25660 0.09500
H 	H 	0.94420 0.63590 0.23300 -0.01300
N 	N 	0.60950 0.74270 0.78860 -0.22500
C 	C 	0.56610 0.75660 0.82850 0.09500
H 	H 	0.55580 0.73300 0.86410 -0.01300
N 	N 	0.10950 0.24270 0.28860 -0.22500
C 	C 	0.06610 0.25660 0.32850 0.09500
H 	H 	0.05580 0.23300 0.36410 -0.01300
N 	N 	0.39050 0.25730 0.78860 -0.22500
C 	C 	0.43390 0.24340 0.82850 0.09500
H 	H 	0.44420 0.26700 0.86410 -0.01300
N 	N 	0.89050 0.75730 0.28860 -0.22500
C 	C 	0.93390 0.74340 0.32850 0.09500
H 	H 	0.94420 0.76700 0.36410 -0.01300
N 	N 	0.60950 0.25730 0.21140 -0.22500
C 	C 	0.56610 0.24340 0.17150 0.09500
H 	H 	0.55580 0.26700 0.13590 -0.01300
N 	N 	0.10950 0.75730 0.71140 -0.22500
C 	C 	0.06610 0.74340 0.67150 0.09500
H 	H 	0.05580 0.76700 0.63590 -0.01300
N 	N 	0.39050 0.74270 0.21140 -0.22500
C 	C 	0.43390 0.75660 0.17150 0.09500
H 	H 	0.44420 0.73300 0.13590 -0.01300
N 	N 	0.89050 0.24270 0.71140 -0.22500
C 	C 	0.93390 0.25660 0.67150 0.09500
H 	H 	0.94420 0.23300 0.63590 -0.01300
N 	N 	0.74270 0.78860 0.60950 -0.22500
C 	C 	0.75660 0.82850 0.56610 0.09500
H 	H 	0.73300 0.86410 0.55580 -0.01300
N 	N 	0.24270 0.28860 0.10950 -0.22500
C 	C 	0.25660 0.32850 0.06610 0.09500
H 	H 	0.23300 0.36410 0.05580 -0.01300
N 	N 	0.25730 0.78860 0.39050 -0.22500
C 	C 	0.24340 0.82850 0.43390 0.09500
H 	H 	0.26700 0.86410 0.44420 -0.01300
N 	N 	0.75730 0.28860 0.89050 -0.22500
C 	C 	0.74340 0.32850 0.93390 0.09500
H 	H 	0.76700 0.36410 0.94420 -0.01300
N 	N 	0.25730 0.21140 0.60950 -0.22500
C 	C 	0.24340 0.17150 0.56610 0.09500
H 	H 	0.26700 0.13590 0.55580 -0.01300
N 	N 	0.75730 0.71140 0.10950 -0.22500
C 	C 	0.74340 0.67150 0.06610 0.09500
H 	H 	0.76700 0.63590 0.05580 -0.01300
N 	N 	0.74270 0.21140 0.39050 -0.22500
C 	C 	0.75660 0.17150 0.43390 0.09500
H 	H 	0.73300 0.13590 0.44420 -0.01300
N 	N 	0.24270 0.71140 0.89050 -0.22500
C 	C 	0.25660 0.67150 0.93390 0.09500
H 	H 	0.23300 0.63590 0.94420 -0.01300
N 	N 	0.78860 0.60950 0.74270 -0.22500
C 	C 	0.82850 0.56610 0.75660 0.09500
H 	H 	0.86410 0.55580 0.73300 -0.01300
N 	N 	0.28860 0.10950 0.24270 -0.22500
C 	C 	0.32850 0.06610 0.25660 0.09500
H 	H 	0.36410 0.05580 0.23300 -0.01300
N 	N 	0.78860 0.39050 0.25730 -0.22500
C 	C 	0.82850 0.43390 0.24340 0.09500
H 	H 	0.86410 0.44420 0.26700 -0.01300
N 	N 	0.28860 0.89050 0.75730 -0.22500
C 	C 	0.32850 0.93390 0.74340 0.09500
H 	H 	0.36410 0.94420 0.76700 -0.01300
N 	N 	0.21140 0.60950 0.25730 -0.22500
C 	C 	0.17150 0.56610 0.24340 0.09500
H 	H 	0.13590 0.55580 0.26700 -0.01300
N 	N 	0.71140 0.10950 0.75730 -0.22500
C 	C 	0.67150 0.06610 0.74340 0.09500
H 	H 	0.63590 0.05580 0.76700 -0.01300
N 	N 	0.21140 0.39050 0.74270 -0.22500
C 	C 	0.17150 0.43390 0.75660 0.09500
H 	H 	0.13590 0.44420 0.73300 -0.01300
N 	N 	0.71140 0.89050 0.24270 -0.22500
C 	C 	0.67150 0.93390 0.25660 0.09500
H 	H 	0.63590 0.94420 0.23300 -0.01300
Cu	Cu	0.67417 0.67417 0.78738 0.84500
Cu	Cu	0.17417 0.17417 0.28738 0.84500
Cu	Cu	0.32583 0.32583 0.78738 0.84500
Cu	Cu	0.82583 0.82583 0.28738 0.84500
Cu	Cu	0.32583 0.67417 0.21262 0.84500
Cu	Cu	0.82583 0.17417 0.71262 0.84500
Cu	Cu	0.67417 0.32583 0.21262 0.84500
Cu	Cu	0.17417 0.82583 0.71262 0.84500
Cu	Cu	0.78738 0.67417 0.67417 0.84500
Cu	Cu	0.28738 0.17417 0.17417 0.84500
Cu	Cu	0.78738 0.32583 0.32583 0.84500
Cu	Cu	0.28738 0.82583 0.82583 0.84500
Cu	Cu	0.21262 0.32583 0.67417 0.84500
Cu	Cu	0.71262 0.82583 0.17417 0.84500
Cu	Cu	0.21262 0.67417 0.32583 0.84500
Cu	Cu	0.71262 0.17417 0.82583 0.84500
Cu	Cu	0.67417 0.78738 0.67417 0.84500
Cu	Cu	0.17417 0.28738 0.17417 0.84500
Cu	Cu	0.32583 0.78738 0.32583 0.84500
Cu	Cu	0.82583 0.28738 0.82583 0.84500
Cu	Cu	0.67417 0.21262 0.32583 0.84500
Cu	Cu	0.17417 0.71262 0.82583 0.84500
Cu	Cu	0.32583 0.21262 0.67417 0.84500
Cu	Cu	0.82583 0.71262 0.17417 0.84500
O 	O 	0.70020 0.70020 0.70020 -0.59600
O 	O 	0.20020 0.20020 0.20020 -0.59600
O 	O 	0.29980 0.29980 0.70020 -0.59600
O 	O 	0.79980 0.79980 0.20020 -0.59600
O 	O 	0.29980 0.70020 0.29980 -0.59600
O 	O 	0.79980 0.20020 0.79980 -0.59600
O 	O 	0.70020 0.29980 0.29980 -0.59600
O 	O 	0.20020 0.79980 0.79980 -0.59600
N 	N 	0.85250 0.37440 0.85250 -0.22300
N 	N 	0.81090 0.53740 0.81090 -0.15300
C 	C 	0.82550 0.42480 0.82550 -0.02300
H 	H 	0.79460 0.41900 0.79460 0.00300
C 	C 	0.89670 0.38480 0.89670 0.03900
H 	H 	0.91580 0.35020 0.91580 -0.02200
C 	C 	0.91460 0.44260 0.91460 -0.06800
H 	H 	0.94550 0.44770 0.94550 0.04300
C 	C 	0.88620 0.49580 0.88620 -0.07600
H 	H 	0.89760 0.53670 0.89760 0.05300
C 	C 	0.84250 0.48490 0.84250 0.06500
N 	N 	0.35250 0.87440 0.35250 -0.22300
N 	N 	0.31090 0.03740 0.31090 -0.15300
C 	C 	0.32550 0.92480 0.32550 -0.02300
H 	H 	0.29460 0.91900 0.29460 0.00300
C 	C 	0.39670 0.88480 0.39670 0.03900
H 	H 	0.41580 0.85020 0.41580 -0.02100
C 	C 	0.41460 0.94260 0.41460 -0.06800
H 	H 	0.44550 0.94770 0.44550 0.04300
C 	C 	0.38620 0.99580 0.38620 -0.07600
H 	H 	0.39760 0.03670 0.39760 0.05300
C 	C 	0.34250 0.98490 0.34250 0.06500
N 	N 	0.14750 0.62560 0.85250 -0.22300
N 	N 	0.18910 0.46260 0.81090 -0.15300
C 	C 	0.17450 0.57520 0.82550 -0.02300
H 	H 	0.20540 0.58100 0.79460 0.00300
C 	C 	0.10330 0.61520 0.89670 0.03900
H 	H 	0.08420 0.64980 0.91580 -0.02200
C 	C 	0.08540 0.55740 0.91460 -0.06800
H 	H 	0.05450 0.55230 0.94550 0.04300
C 	C 	0.11380 0.50420 0.88620 -0.07600
H 	H 	0.10240 0.46330 0.89760 0.05300
C 	C 	0.15750 0.51510 0.84250 0.06500
N 	N 	0.64750 0.12560 0.35250 -0.22300
N 	N 	0.68910 0.96260 0.31090 -0.15300
C 	C 	0.67450 0.07520 0.32550 -0.02300
H 	H 	0.70540 0.08100 0.29460 0.00300
C 	C 	0.60330 0.11520 0.39670 0.03900
H 	H 	0.58420 0.14980 0.41580 -0.02100
C 	C 	0.58540 0.05740 0.41460 -0.06800
H 	H 	0.55450 0.05230 0.44550 0.04300
C 	C 	0.61380 0.00420 0.38620 -0.07600
H 	H 	0.60240 0.96330 0.39760 0.05300
C 	C 	0.65750 0.01510 0.34250 0.06500
N 	N 	0.14750 0.37440 0.14750 -0.22300
N 	N 	0.18910 0.53740 0.18910 -0.15300
C 	C 	0.17450 0.42480 0.17450 -0.02300
H 	H 	0.20540 0.41900 0.20540 0.00300
C 	C 	0.10330 0.38480 0.10330 0.03900
H 	H 	0.08420 0.35020 0.08420 -0.02200
C 	C 	0.08540 0.44260 0.08540 -0.06800
H 	H 	0.05450 0.44770 0.05450 0.04300
C 	C 	0.11380 0.49580 0.11380 -0.07600
H 	H 	0.10240 0.53670 0.10240 0.05300
C 	C 	0.15750 0.48490 0.15750 0.06500
N 	N 	0.64750 0.87440 0.64750 -0.22300
N 	N 	0.68910 0.03740 0.68910 -0.15300
C 	C 	0.67450 0.92480 0.67450 -0.02300
H 	H 	0.70540 0.91900 0.70540 0.00300
C 	C 	0.60330 0.88480 0.60330 0.03900
H 	H 	0.58420 0.85020 0.58420 -0.02100
C 	C 	0.58540 0.94260 0.58540 -0.06800
H 	H 	0.55450 0.94770 0.55450 0.04300
C 	C 	0.61380 0.99580 0.61380 -0.07600
H 	H 	0.60240 0.03670 0.60240 0.05300
C 	C 	0.65750 0.98490 0.65750 0.06500
N 	N 	0.85250 0.62560 0.14750 -0.22300
N 	N 	0.81090 0.46260 0.18910 -0.15300
C 	C 	0.82550 0.57520 0.17450 -0.02300
H 	H 	0.79460 0.58100 0.20540 0.00300
C 	C 	0.89670 0.61520 0.10330 0.03900
H 	H 	0.91580 0.64980 0.08420 -0.02200
C 	C 	0.91460 0.55740 0.08540 -0.06800
H 	H 	0.94550 0.55230 0.05450 0.04300
C 	C 	0.88620 0.50420 0.11380 -0.07600
H 	H 	0.89760 0.46330 0.10240 0.05300
C 	C 	0.84250 0.51510 0.15750 0.06500
N 	N 	0.35250 0.12560 0.64750 -0.22300
N 	N 	0.31090 0.96260 0.68910 -0.15300
C 	C 	0.32550 0.07520 0.67450 -0.02300
H 	H 	0.29460 0.08100 0.70540 0.00300
C 	C 	0.39670 0.11520 0.60330 0.03900
H 	H 	0.41580 0.14980 0.58420 -0.02100
C 	C 	0.41460 0.05740 0.58540 -0.06800
H 	H 	0.44550 0.05230 0.55450 0.04300
C 	C 	0.38620 0.00420 0.61380 -0.07600
H 	H 	0.39760 0.96330 0.60240 0.05300
C 	C 	0.34250 0.01510 0.65750 0.06500
N 	N 	0.85250 0.85250 0.37440 -0.22300
N 	N 	0.81090 0.81090 0.53740 -0.15300
C 	C 	0.82550 0.82550 0.42480 -0.02300
H 	H 	0.79460 0.79460 0.41900 0.00300
C 	C 	0.89670 0.89670 0.38480 0.03900
H 	H 	0.91580 0.91580 0.35020 -0.02200
C 	C 	0.91460 0.91460 0.44260 -0.06800
H 	H 	0.94550 0.94550 0.44770 0.04300
C 	C 	0.88620 0.88620 0.49580 -0.07600
H 	H 	0.89760 0.89760 0.53670 0.05300
C 	C 	0.84250 0.84250 0.48490 0.06500
N 	N 	0.35250 0.35250 0.87440 -0.22300
N 	N 	0.31090 0.31090 0.03740 -0.15300
C 	C 	0.32550 0.32550 0.92480 -0.02300
H 	H 	0.29460 0.29460 0.91900 0.00300
C 	C 	0.39670 0.39670 0.88480 0.03900
H 	H 	0.41580 0.41580 0.85020 -0.02100
C 	C 	0.41460 0.41460 0.94260 -0.06800
H 	H 	0.44550 0.44550 0.94770 0.04300
C 	C 	0.38620 0.38620 0.99580 -0.07600
H 	H 	0.39760 0.39760 0.03670 0.05300
C 	C 	0.34250 0.34250 0.98490 0.06500
N 	N 	0.85250 0.14750 0.62560 -0.22300
N 	N 	0.81090 0.18910 0.46260 -0.15300
C 	C 	0.82550 0.17450 0.57520 -0.02300
H 	H 	0.79460 0.20540 0.58100 0.00300
C 	C 	0.89670 0.10330 0.61520 0.03900
H 	H 	0.91580 0.08420 0.64980 -0.02200
C 	C 	0.91460 0.08540 0.55740 -0.06800
H 	H 	0.94550 0.05450 0.55230 0.04300
C 	C 	0.88620 0.11380 0.50420 -0.07600
H 	H 	0.89760 0.10240 0.46330 0.05300
C 	C 	0.84250 0.15750 0.51510 0.06500
N 	N 	0.35250 0.64750 0.12560 -0.22300
N 	N 	0.31090 0.68910 0.96260 -0.15300
C 	C 	0.32550 0.67450 0.07520 -0.02300
H 	H 	0.29460 0.70540 0.08100 0.00300
C 	C 	0.39670 0.60330 0.11520 0.03900
H 	H 	0.41580 0.58420 0.14980 -0.02100
C 	C 	0.41460 0.58540 0.05740 -0.06800
H 	H 	0.44550 0.55450 0.05230 0.04300
C 	C 	0.38620 0.61380 0.00420 -0.07600
H 	H 	0.39760 0.60240 0.96330 0.05300
C 	C 	0.34250 0.65750 0.01510 0.06500
N 	N 	0.14750 0.14750 0.37440 -0.22300
N 	N 	0.18910 0.18910 0.53740 -0.15300
C 	C 	0.17450 0.17450 0.42480 -0.02300
H 	H 	0.20540 0.20540 0.41900 0.00300
C 	C 	0.10330 0.10330 0.38480 0.03900
H 	H 	0.08420 0.08420 0.35020 -0.02200
C 	C 	0.08540 0.08540 0.44260 -0.06800
H 	H 	0.05450 0.05450 0.44770 0.04300
C 	C 	0.11380 0.11380 0.49580 -0.07600
H 	H 	0.10240 0.10240 0.53670 0.05300
C 	C 	0.15750 0.15750 0.48490 0.06500
N 	N 	0.64750 0.64750 0.87440 -0.22300
N 	N 	0.68910 0.68910 0.03740 -0.15300
C 	C 	0.67450 0.67450 0.92480 -0.02300
H 	H 	0.70540 0.70540 0.91900 0.00300
C 	C 	0.60330 0.60330 0.88480 0.03900
H 	H 	0.58420 0.58420 0.85020 -0.02100
C 	C 	0.58540 0.58540 0.94260 -0.06800
H 	H 	0.55450 0.55450 0.94770 0.04300
C 	C 	0.61380 0.61380 0.99580 -0.07600
H 	H 	0.60240 0.60240 0.03670 0.05300
C 	C 	0.65750 0.65750 0.98490 0.06500
N 	N 	0.14750 0.85250 0.62560 -0.22300
N 	N 	0.18910 0.81090 0.46260 -0.15300
C 	C 	0.17450 0.82550 0.57520 -0.02300
H 	H 	0.20540 0.79460 0.58100 0.00300
C 	C 	0.10330 0.89670 0.61520 0.03900
H 	H 	0.08420 0.91580 0.64980 -0.02200
C 	C 	0.08540 0.91460 0.55740 -0.06800
H 	H 	0.05450 0.94550 0.55230 0.04300
C 	C 	0.11380 0.88620 0.50420 -0.07600
H 	H 	0.10240 0.89760 0.46330 0.05300
C 	C 	0.15750 0.84250 0.51510 0.06500
N 	N 	0.64750 0.35250 0.12560 -0.22300
N 	N 	0.68910 0.31090 0.96260 -0.15300
C 	C 	0.67450 0.32550 0.07520 -0.02300
H 	H 	0.70540 0.29460 0.08100 0.00300
C 	C 	0.60330 0.39670 0.11520 0.03900
H 	H 	0.58420 0.41580 0.14980 -0.02100
C 	C 	0.58540 0.41460 0.05740 -0.06800
H 	H 	0.55450 0.44550 0.05230 0.04300
C 	C 	0.61380 0.38620 0.00420 -0.07600
H 	H 	0.60240 0.39760 0.96330 0.05300
C 	C 	0.65750 0.34250 0.01510 0.06500
N 	N 	0.37440 0.85250 0.85250 -0.22300
N 	N 	0.53740 0.81090 0.81090 -0.15300
C 	C 	0.42480 0.82550 0.82550 -0.02300
H 	H 	0.41900 0.79460 0.79460 0.00300
C 	C 	0.38480 0.89670 0.89670 0.03900
H 	H 	0.35020 0.91580 0.91580 -0.02200
C 	C 	0.44260 0.91460 0.91460 -0.06800
H 	H 	0.44770 0.94550 0.94550 0.04300
C 	C 	0.49580 0.88620 0.88620 -0.07600
H 	H 	0.53670 0.89760 0.89760 0.05300
C 	C 	0.48490 0.84250 0.84250 0.06500
N 	N 	0.87440 0.35250 0.35250 -0.22300
N 	N 	0.03740 0.31090 0.31090 -0.15300
C 	C 	0.92480 0.32550 0.32550 -0.02300
H 	H 	0.91900 0.29460 0.29460 0.00300
C 	C 	0.88480 0.39670 0.39670 0.03900
H 	H 	0.85020 0.41580 0.41580 -0.02100
C 	C 	0.94260 0.41460 0.41460 -0.06800
H 	H 	0.94770 0.44550 0.44550 0.04300
C 	C 	0.99580 0.38620 0.38620 -0.07600
H 	H 	0.03670 0.39760 0.39760 0.05300
C 	C 	0.98490 0.34250 0.34250 0.06500
N 	N 	0.62560 0.85250 0.14750 -0.22300
N 	N 	0.46260 0.81090 0.18910 -0.15300
C 	C 	0.57520 0.82550 0.17450 -0.02300
H 	H 	0.58100 0.79460 0.20540 0.00300
C 	C 	0.61520 0.89670 0.10330 0.03900
H 	H 	0.64980 0.91580 0.08420 -0.02200
C 	C 	0.55740 0.91460 0.08540 -0.06800
H 	H 	0.55230 0.94550 0.05450 0.04300
C 	C 	0.50420 0.88620 0.11380 -0.07600
H 	H 	0.46330 0.89760 0.10240 0.05300
C 	C 	0.51510 0.84250 0.15750 0.06500
N 	N 	0.12560 0.35250 0.64750 -0.22300
N 	N 	0.96260 0.31090 0.68910 -0.15300
C 	C 	0.07520 0.32550 0.67450 -0.02300
H 	H 	0.08100 0.29460 0.70540 0.00300
C 	C 	0.11520 0.39670 0.60330 0.03900
H 	H 	0.14980 0.41580 0.58420 -0.02100
C 	C 	0.05740 0.41460 0.58540 -0.06800
H 	H 	0.05230 0.44550 0.55450 0.04300
C 	C 	0.00420 0.38620 0.61380 -0.07600
H 	H 	0.96330 0.39760 0.60240 0.05300
C 	C 	0.01510 0.34250 0.65750 0.06500
N 	N 	0.37440 0.14750 0.14750 -0.22300
N 	N 	0.53740 0.18910 0.18910 -0.15300
C 	C 	0.42480 0.17450 0.17450 -0.02300
H 	H 	0.41900 0.20540 0.20540 0.00300
C 	C 	0.38480 0.10330 0.10330 0.03900
H 	H 	0.35020 0.08420 0.08420 -0.02200
C 	C 	0.44260 0.08540 0.08540 -0.06800
H 	H 	0.44770 0.05450 0.05450 0.04300
C 	C 	0.49580 0.11380 0.11380 -0.07600
H 	H 	0.53670 0.10240 0.10240 0.05300
C 	C 	0.48490 0.15750 0.15750 0.06500
N 	N 	0.87440 0.64750 0.64750 -0.22300
N 	N 	0.03740 0.68910 0.68910 -0.15300
C 	C 	0.92480 0.67450 0.67450 -0.02300
H 	H 	0.91900 0.70540 0.70540 0.00300
C 	C 	0.88480 0.60330 0.60330 0.03900
H 	H 	0.85020 0.58420 0.58420 -0.02100
C 	C 	0.94260 0.58540 0.58540 -0.06800
H 	H 	0.94770 0.55450 0.55450 0.04300
C 	C 	0.99580 0.61380 0.61380 -0.07600
H 	H 	0.03670 0.60240 0.60240 0.05300
C 	C 	0.98490 0.65750 0.65750 0.06500
N 	N 	0.62560 0.14750 0.85250 -0.22300
N 	N 	0.46260 0.18910 0.81090 -0.15300
C 	C 	0.57520 0.17450 0.82550 -0.02300
H 	H 	0.58100 0.20540 0.79460 0.00300
C 	C 	0.61520 0.10330 0.89670 0.03900
H 	H 	0.64980 0.08420 0.91580 -0.02200
C 	C 	0.55740 0.08540 0.91460 -0.06800
H 	H 	0.55230 0.05450 0.94550 0.04300
C 	C 	0.50420 0.11380 0.88620 -0.07600
H 	H 	0.46330 0.10240 0.89760 0.05300
C 	C 	0.51510 0.15750 0.84250 0.06500
N 	N 	0.12560 0.64750 0.35250 -0.22300
N 	N 	0.96260 0.68910 0.31090 -0.15300
C 	C 	0.07520 0.67450 0.32550 -0.02300
H 	H 	0.08100 0.70540 0.29460 0.00300
C 	C 	0.11520 0.60330 0.39670 0.03900
H 	H 	0.14980 0.58420 0.41580 -0.02100
C 	C 	0.05740 0.58540 0.41460 -0.06800
H 	H 	0.05230 0.55450 0.44550 0.04300
C 	C 	0.00420 0.61380 0.38620 -0.07600
H 	H 	0.96330 0.60240 0.39760 0.05300
C 	C 	0.01510 0.65750 0.34250 0.06500
