data_crystal

_cell_length_a 21.13180
_cell_length_b 21.13180
_cell_length_c 21.13180
_cell_angle_alpha 90.00000
_cell_angle_beta  90.00000
_cell_angle_gamma 90.00000

_symmetry_space_group_name_	'P 1'
_symmetry_space_group_name_H-M	'P 1'

loop_
_symmetry_equiv_pos_as_xyz
  x,y,z

loop_
_atom_site_label
_atom_site_type_symbol
_atom_site_fract_x
_atom_site_fract_y
_atom_site_fract_z
_atom_site_charge
C 	C 	0.67110 0.93400 0.74350 0.09000
H 	H 	0.63540 0.94390 0.76720 -0.01000
N 	N 	0.71180 0.89080 0.75730 -0.22100
C 	C 	0.17110 0.43400 0.24350 0.09000
H 	H 	0.13540 0.44390 0.26720 -0.01000
N 	N 	0.21180 0.39080 0.25730 -0.22100
C 	C 	0.32890 0.06600 0.74350 0.09000
H 	H 	0.36460 0.05610 0.76720 -0.01000
N 	N 	0.28820 0.10920 0.75730 -0.22100
C 	C 	0.82890 0.56600 0.24350 0.09000
H 	H 	0.86460 0.55610 0.26720 -0.01000
N 	N 	0.78820 0.60920 0.25730 -0.22100
C 	C 	0.32890 0.93400 0.25650 0.08900
H 	H 	0.36460 0.94390 0.23280 -0.01100
N 	N 	0.28820 0.89080 0.24270 -0.22200
C 	C 	0.82890 0.43400 0.75650 0.08900
H 	H 	0.86460 0.44390 0.73280 -0.01100
N 	N 	0.78820 0.39080 0.74270 -0.22200
C 	C 	0.67110 0.06600 0.25650 0.08900
H 	H 	0.63540 0.05610 0.23280 -0.01100
N 	N 	0.71180 0.10920 0.24270 -0.22200
C 	C 	0.17110 0.56600 0.75650 0.08900
H 	H 	0.13540 0.55610 0.73280 -0.01100
N 	N 	0.21180 0.60920 0.74270 -0.22200
C 	C 	0.74350 0.67110 0.93400 0.08900
H 	H 	0.76720 0.63540 0.94390 -0.01100
N 	N 	0.75730 0.71180 0.89080 -0.22200
C 	C 	0.24350 0.17110 0.43400 0.08900
H 	H 	0.26720 0.13540 0.44390 -0.01100
N 	N 	0.25730 0.21180 0.39080 -0.22200
C 	C 	0.74350 0.32890 0.06600 0.08900
H 	H 	0.76720 0.36460 0.05610 -0.01100
N 	N 	0.75730 0.28820 0.10920 -0.22200
C 	C 	0.24350 0.82890 0.56600 0.08900
H 	H 	0.26720 0.86460 0.55610 -0.01100
N 	N 	0.25730 0.78820 0.60920 -0.22200
C 	C 	0.25650 0.32890 0.93400 0.08900
H 	H 	0.23280 0.36460 0.94390 -0.01100
N 	N 	0.24270 0.28820 0.89080 -0.22200
C 	C 	0.75650 0.82890 0.43400 0.08900
H 	H 	0.73280 0.86460 0.44390 -0.01100
N 	N 	0.74270 0.78820 0.39080 -0.22200
C 	C 	0.25650 0.67110 0.06600 0.08900
H 	H 	0.23280 0.63540 0.05610 -0.01100
N 	N 	0.24270 0.71180 0.10920 -0.22200
C 	C 	0.75650 0.17110 0.56600 0.08900
H 	H 	0.73280 0.13540 0.55610 -0.01100
N 	N 	0.74270 0.21180 0.60920 -0.22200
C 	C 	0.93400 0.74350 0.67110 0.08900
H 	H 	0.94390 0.76720 0.63540 -0.01100
N 	N 	0.89080 0.75730 0.71180 -0.22200
C 	C 	0.43400 0.24350 0.17110 0.08900
H 	H 	0.44390 0.26720 0.13540 -0.01100
N 	N 	0.39080 0.25730 0.21180 -0.22200
C 	C 	0.06600 0.74350 0.32890 0.08900
H 	H 	0.05610 0.76720 0.36460 -0.01100
N 	N 	0.10920 0.75730 0.28820 -0.22200
C 	C 	0.56600 0.24350 0.82890 0.08900
H 	H 	0.55610 0.26720 0.86460 -0.01100
N 	N 	0.60920 0.25730 0.78820 -0.22200
C 	C 	0.93400 0.25650 0.32890 0.08900
H 	H 	0.94390 0.23280 0.36460 -0.01100
N 	N 	0.89080 0.24270 0.28820 -0.22200
C 	C 	0.43400 0.75650 0.82890 0.08900
H 	H 	0.44390 0.73280 0.86460 -0.01100
N 	N 	0.39080 0.74270 0.78820 -0.22200
C 	C 	0.06600 0.25650 0.67110 0.08900
H 	H 	0.05610 0.23280 0.63540 -0.01100
N 	N 	0.10920 0.24270 0.71180 -0.22200
C 	C 	0.56600 0.75650 0.17110 0.08900
H 	H 	0.55610 0.73280 0.13540 -0.01100
N 	N 	0.60920 0.74270 0.21180 -0.22200
C 	C 	0.93400 0.67110 0.74350 0.08900
H 	H 	0.94390 0.63540 0.76720 -0.01100
N 	N 	0.89080 0.71180 0.75730 -0.22200
C 	C 	0.43400 0.17110 0.24350 0.08900
H 	H 	0.44390 0.13540 0.26720 -0.01100
N 	N 	0.39080 0.21180 0.25730 -0.22200
C 	C 	0.06600 0.32890 0.74350 0.08900
H 	H 	0.05610 0.36460 0.76720 -0.01100
N 	N 	0.10920 0.28820 0.75730 -0.22200
C 	C 	0.56600 0.82890 0.24350 0.08900
H 	H 	0.55610 0.86460 0.26720 -0.01100
N 	N 	0.60920 0.78820 0.25730 -0.22200
C 	C 	0.93400 0.32890 0.25650 0.08900
H 	H 	0.94390 0.36460 0.23280 -0.01100
N 	N 	0.89080 0.28820 0.24270 -0.22200
C 	C 	0.43400 0.82890 0.75650 0.08900
H 	H 	0.44390 0.86460 0.73280 -0.01100
N 	N 	0.39080 0.78820 0.74270 -0.22200
C 	C 	0.06600 0.67110 0.25650 0.08900
H 	H 	0.05610 0.63540 0.23280 -0.01100
N 	N 	0.10920 0.71180 0.24270 -0.22200
C 	C 	0.56600 0.17110 0.75650 0.08900
H 	H 	0.55610 0.13540 0.73280 -0.01100
N 	N 	0.60920 0.21180 0.74270 -0.22200
C 	C 	0.67110 0.74350 0.93400 0.08900
H 	H 	0.63540 0.76720 0.94390 -0.01100
N 	N 	0.71180 0.75730 0.89080 -0.22200
C 	C 	0.17110 0.24350 0.43400 0.08900
H 	H 	0.13540 0.26720 0.44390 -0.01100
N 	N 	0.21180 0.25730 0.39080 -0.22200
C 	C 	0.32890 0.74350 0.06600 0.08900
H 	H 	0.36460 0.76720 0.05610 -0.01100
N 	N 	0.28820 0.75730 0.10920 -0.22200
C 	C 	0.82890 0.24350 0.56600 0.08900
H 	H 	0.86460 0.26720 0.55610 -0.01100
N 	N 	0.78820 0.25730 0.60920 -0.22200
C 	C 	0.32890 0.25650 0.93400 0.08900
H 	H 	0.36460 0.23280 0.94390 -0.01100
N 	N 	0.28820 0.24270 0.89080 -0.22200
C 	C 	0.82890 0.75650 0.43400 0.08900
H 	H 	0.86460 0.73280 0.44390 -0.01100
N 	N 	0.78820 0.74270 0.39080 -0.22200
C 	C 	0.67110 0.25650 0.06600 0.08900
H 	H 	0.63540 0.23280 0.05610 -0.01100
N 	N 	0.71180 0.24270 0.10920 -0.22200
C 	C 	0.17110 0.75650 0.56600 0.08900
H 	H 	0.13540 0.73280 0.55610 -0.01100
N 	N 	0.21180 0.74270 0.60920 -0.22200
C 	C 	0.74350 0.93400 0.67110 0.08900
H 	H 	0.76720 0.94390 0.63540 -0.01100
N 	N 	0.75730 0.89080 0.71180 -0.22200
C 	C 	0.24350 0.43400 0.17110 0.08900
H 	H 	0.26720 0.44390 0.13540 -0.01100
N 	N 	0.25730 0.39080 0.21180 -0.22200
C 	C 	0.74350 0.06600 0.32890 0.08900
H 	H 	0.76720 0.05610 0.36460 -0.01100
N 	N 	0.75730 0.10920 0.28820 -0.22200
C 	C 	0.24350 0.56600 0.82890 0.08900
H 	H 	0.26720 0.55610 0.86460 -0.01100
N 	N 	0.25730 0.60920 0.78820 -0.22200
C 	C 	0.25650 0.93400 0.32890 0.08900
H 	H 	0.23280 0.94390 0.36460 -0.01100
N 	N 	0.24270 0.89080 0.28820 -0.22200
C 	C 	0.75650 0.43400 0.82890 0.08900
H 	H 	0.73280 0.44390 0.86460 -0.01100
N 	N 	0.74270 0.39080 0.78820 -0.22200
C 	C 	0.25650 0.06600 0.67110 0.08900
H 	H 	0.23280 0.05610 0.63540 -0.01100
N 	N 	0.24270 0.10920 0.71180 -0.22200
C 	C 	0.75650 0.56600 0.17110 0.08900
H 	H 	0.73280 0.55610 0.13540 -0.01100
N 	N 	0.74270 0.60920 0.21180 -0.22200
Cu	Cu	0.71390 0.82825 0.82825 0.84400
Cu	Cu	0.21390 0.32825 0.32825 0.84400
Cu	Cu	0.28610 0.17175 0.82825 0.84400
Cu	Cu	0.78610 0.67175 0.32825 0.84400
Cu	Cu	0.28610 0.82825 0.17175 0.84400
Cu	Cu	0.78610 0.32825 0.67175 0.84400
Cu	Cu	0.71390 0.17175 0.17175 0.84400
Cu	Cu	0.21390 0.67175 0.67175 0.84400
Cu	Cu	0.82825 0.71390 0.82825 0.84400
Cu	Cu	0.32825 0.21390 0.32825 0.84400
Cu	Cu	0.82825 0.28610 0.17175 0.84400
Cu	Cu	0.32825 0.78610 0.67175 0.84400
Cu	Cu	0.17175 0.28610 0.82825 0.84400
Cu	Cu	0.67175 0.78610 0.32825 0.84400
Cu	Cu	0.17175 0.71390 0.17175 0.84400
Cu	Cu	0.67175 0.21390 0.67175 0.84400
Cu	Cu	0.82825 0.82825 0.71390 0.84400
Cu	Cu	0.32825 0.32825 0.21390 0.84400
Cu	Cu	0.17175 0.82825 0.28610 0.84400
Cu	Cu	0.67175 0.32825 0.78610 0.84400
Cu	Cu	0.82825 0.17175 0.28610 0.84400
Cu	Cu	0.32825 0.67175 0.78610 0.84400
Cu	Cu	0.17175 0.17175 0.71390 0.84400
Cu	Cu	0.67175 0.67175 0.21390 0.84400
O 	O 	0.80070 0.80070 0.80070 -0.59400
O 	O 	0.30070 0.30070 0.30070 -0.59400
O 	O 	0.19930 0.19930 0.80070 -0.59400
O 	O 	0.69930 0.69930 0.30070 -0.59400
O 	O 	0.19930 0.80070 0.19930 -0.59400
O 	O 	0.69930 0.30070 0.69930 -0.59400
O 	O 	0.80070 0.19930 0.19930 -0.59400
O 	O 	0.30070 0.69930 0.69930 -0.59400
C 	C 	0.60180 0.11510 0.60180 0.04000
H 	H 	0.58230 0.14940 0.58230 -0.02400
C 	C 	0.58490 0.05620 0.58490 -0.06700
H 	H 	0.55400 0.05060 0.55400 0.04300
C 	C 	0.61270 0.00360 0.61270 -0.07500
H 	H 	0.60130 0.96270 0.60130 0.05200
C 	C 	0.65700 0.01480 0.65700 0.06600
C 	C 	0.67390 0.07600 0.67390 -0.02700
H 	H 	0.70460 0.08290 0.70460 0.00500
N 	N 	0.64540 0.12560 0.64540 -0.22100
N 	N 	0.68870 0.96310 0.68870 -0.15000
C 	C 	0.10180 0.61510 0.10180 0.04000
H 	H 	0.08230 0.64940 0.08230 -0.02400
C 	C 	0.08490 0.55620 0.08490 -0.06800
H 	H 	0.05400 0.55060 0.05400 0.04300
C 	C 	0.11270 0.50360 0.11270 -0.07500
H 	H 	0.10130 0.46270 0.10130 0.05200
C 	C 	0.15700 0.51480 0.15700 0.06600
C 	C 	0.17390 0.57600 0.17390 -0.02700
H 	H 	0.20460 0.58290 0.20460 0.00500
N 	N 	0.14540 0.62560 0.14540 -0.22100
N 	N 	0.18870 0.46310 0.18870 -0.15000
C 	C 	0.39820 0.88490 0.60180 0.04000
H 	H 	0.41770 0.85060 0.58230 -0.02400
C 	C 	0.41510 0.94380 0.58490 -0.06700
H 	H 	0.44600 0.94940 0.55400 0.04300
C 	C 	0.38730 0.99640 0.61270 -0.07500
H 	H 	0.39870 0.03730 0.60130 0.05200
C 	C 	0.34300 0.98520 0.65700 0.06600
C 	C 	0.32610 0.92400 0.67390 -0.02700
H 	H 	0.29540 0.91710 0.70460 0.00500
N 	N 	0.35460 0.87440 0.64540 -0.22100
N 	N 	0.31130 0.03690 0.68870 -0.15000
C 	C 	0.89820 0.38490 0.10180 0.04000
H 	H 	0.91770 0.35060 0.08230 -0.02400
C 	C 	0.91510 0.44380 0.08490 -0.06800
H 	H 	0.94600 0.44940 0.05400 0.04300
C 	C 	0.88730 0.49640 0.11270 -0.07500
H 	H 	0.89870 0.53730 0.10130 0.05200
C 	C 	0.84300 0.48520 0.15700 0.06600
C 	C 	0.82610 0.42400 0.17390 -0.02700
H 	H 	0.79540 0.41710 0.20460 0.00500
N 	N 	0.85460 0.37440 0.14540 -0.22100
N 	N 	0.81130 0.53690 0.18870 -0.15000
C 	C 	0.39820 0.11510 0.39820 0.04000
H 	H 	0.41770 0.14940 0.41770 -0.02400
C 	C 	0.41510 0.05620 0.41510 -0.06700
H 	H 	0.44600 0.05060 0.44600 0.04300
C 	C 	0.38730 0.00360 0.38730 -0.07500
H 	H 	0.39870 0.96270 0.39870 0.05200
C 	C 	0.34300 0.01480 0.34300 0.06600
C 	C 	0.32610 0.07600 0.32610 -0.02700
H 	H 	0.29540 0.08290 0.29540 0.00500
N 	N 	0.35460 0.12560 0.35460 -0.22100
N 	N 	0.31130 0.96310 0.31130 -0.15000
C 	C 	0.89820 0.61510 0.89820 0.04000
H 	H 	0.91770 0.64940 0.91770 -0.02400
C 	C 	0.91510 0.55620 0.91510 -0.06800
H 	H 	0.94600 0.55060 0.94600 0.04300
C 	C 	0.88730 0.50360 0.88730 -0.07500
H 	H 	0.89870 0.46270 0.89870 0.05200
C 	C 	0.84300 0.51480 0.84300 0.06600
C 	C 	0.82610 0.57600 0.82610 -0.02700
H 	H 	0.79540 0.58290 0.79540 0.00500
N 	N 	0.85460 0.62560 0.85460 -0.22100
N 	N 	0.81130 0.46310 0.81130 -0.15000
C 	C 	0.60180 0.88490 0.39820 0.04000
H 	H 	0.58230 0.85060 0.41770 -0.02400
C 	C 	0.58490 0.94380 0.41510 -0.06700
H 	H 	0.55400 0.94940 0.44600 0.04300
C 	C 	0.61270 0.99640 0.38730 -0.07500
H 	H 	0.60130 0.03730 0.39870 0.05200
C 	C 	0.65700 0.98520 0.34300 0.06600
C 	C 	0.67390 0.92400 0.32610 -0.02700
H 	H 	0.70460 0.91710 0.29540 0.00500
N 	N 	0.64540 0.87440 0.35460 -0.22100
N 	N 	0.68870 0.03690 0.31130 -0.15000
C 	C 	0.10180 0.38490 0.89820 0.04000
H 	H 	0.08230 0.35060 0.91770 -0.02400
C 	C 	0.08490 0.44380 0.91510 -0.06800
H 	H 	0.05400 0.44940 0.94600 0.04300
C 	C 	0.11270 0.49640 0.88730 -0.07500
H 	H 	0.10130 0.53730 0.89870 0.05200
C 	C 	0.15700 0.48520 0.84300 0.06600
C 	C 	0.17390 0.42400 0.82610 -0.02700
H 	H 	0.20460 0.41710 0.79540 0.00500
N 	N 	0.14540 0.37440 0.85460 -0.22100
N 	N 	0.18870 0.53690 0.81130 -0.15000
C 	C 	0.60180 0.60180 0.11510 0.04000
H 	H 	0.58230 0.58230 0.14940 -0.02400
C 	C 	0.58490 0.58490 0.05620 -0.06700
H 	H 	0.55400 0.55400 0.05060 0.04300
C 	C 	0.61270 0.61270 0.00360 -0.07500
H 	H 	0.60130 0.60130 0.96270 0.05200
C 	C 	0.65700 0.65700 0.01480 0.06600
C 	C 	0.67390 0.67390 0.07600 -0.02700
H 	H 	0.70460 0.70460 0.08290 0.00500
N 	N 	0.64540 0.64540 0.12560 -0.22100
N 	N 	0.68870 0.68870 0.96310 -0.15000
C 	C 	0.10180 0.10180 0.61510 0.04000
H 	H 	0.08230 0.08230 0.64940 -0.02400
C 	C 	0.08490 0.08490 0.55620 -0.06800
H 	H 	0.05400 0.05400 0.55060 0.04300
C 	C 	0.11270 0.11270 0.50360 -0.07500
H 	H 	0.10130 0.10130 0.46270 0.05200
C 	C 	0.15700 0.15700 0.51480 0.06600
C 	C 	0.17390 0.17390 0.57600 -0.02700
H 	H 	0.20460 0.20460 0.58290 0.00500
N 	N 	0.14540 0.14540 0.62560 -0.22100
N 	N 	0.18870 0.18870 0.46310 -0.15000
C 	C 	0.60180 0.39820 0.88490 0.04000
H 	H 	0.58230 0.41770 0.85060 -0.02400
C 	C 	0.58490 0.41510 0.94380 -0.06700
H 	H 	0.55400 0.44600 0.94940 0.04300
C 	C 	0.61270 0.38730 0.99640 -0.07500
H 	H 	0.60130 0.39870 0.03730 0.05200
C 	C 	0.65700 0.34300 0.98520 0.06600
C 	C 	0.67390 0.32610 0.92400 -0.02700
H 	H 	0.70460 0.29540 0.91710 0.00500
N 	N 	0.64540 0.35460 0.87440 -0.22100
N 	N 	0.68870 0.31130 0.03690 -0.15000
C 	C 	0.10180 0.89820 0.38490 0.04000
H 	H 	0.08230 0.91770 0.35060 -0.02400
C 	C 	0.08490 0.91510 0.44380 -0.06800
H 	H 	0.05400 0.94600 0.44940 0.04300
C 	C 	0.11270 0.88730 0.49640 -0.07500
H 	H 	0.10130 0.89870 0.53730 0.05200
C 	C 	0.15700 0.84300 0.48520 0.06600
C 	C 	0.17390 0.82610 0.42400 -0.02700
H 	H 	0.20460 0.79540 0.41710 0.00500
N 	N 	0.14540 0.85460 0.37440 -0.22100
N 	N 	0.18870 0.81130 0.53690 -0.15000
C 	C 	0.39820 0.39820 0.11510 0.04000
H 	H 	0.41770 0.41770 0.14940 -0.02400
C 	C 	0.41510 0.41510 0.05620 -0.06700
H 	H 	0.44600 0.44600 0.05060 0.04300
C 	C 	0.38730 0.38730 0.00360 -0.07500
H 	H 	0.39870 0.39870 0.96270 0.05200
C 	C 	0.34300 0.34300 0.01480 0.06600
C 	C 	0.32610 0.32610 0.07600 -0.02700
H 	H 	0.29540 0.29540 0.08290 0.00500
N 	N 	0.35460 0.35460 0.12560 -0.22100
N 	N 	0.31130 0.31130 0.96310 -0.15000
C 	C 	0.89820 0.89820 0.61510 0.04000
H 	H 	0.91770 0.91770 0.64940 -0.02400
C 	C 	0.91510 0.91510 0.55620 -0.06800
H 	H 	0.94600 0.94600 0.55060 0.04300
C 	C 	0.88730 0.88730 0.50360 -0.07500
H 	H 	0.89870 0.89870 0.46270 0.05200
C 	C 	0.84300 0.84300 0.51480 0.06600
C 	C 	0.82610 0.82610 0.57600 -0.02700
H 	H 	0.79540 0.79540 0.58290 0.00500
N 	N 	0.85460 0.85460 0.62560 -0.22100
N 	N 	0.81130 0.81130 0.46310 -0.15000
C 	C 	0.39820 0.60180 0.88490 0.04000
H 	H 	0.41770 0.58230 0.85060 -0.02400
C 	C 	0.41510 0.58490 0.94380 -0.06700
H 	H 	0.44600 0.55400 0.94940 0.04300
C 	C 	0.38730 0.61270 0.99640 -0.07500
H 	H 	0.39870 0.60130 0.03730 0.05200
C 	C 	0.34300 0.65700 0.98520 0.06600
C 	C 	0.32610 0.67390 0.92400 -0.02700
H 	H 	0.29540 0.70460 0.91710 0.00500
N 	N 	0.35460 0.64540 0.87440 -0.22100
N 	N 	0.31130 0.68870 0.03690 -0.15000
C 	C 	0.89820 0.10180 0.38490 0.04000
H 	H 	0.91770 0.08230 0.35060 -0.02400
C 	C 	0.91510 0.08490 0.44380 -0.06800
H 	H 	0.94600 0.05400 0.44940 0.04300
C 	C 	0.88730 0.11270 0.49640 -0.07500
H 	H 	0.89870 0.10130 0.53730 0.05200
C 	C 	0.84300 0.15700 0.48520 0.06600
C 	C 	0.82610 0.17390 0.42400 -0.02700
H 	H 	0.79540 0.20460 0.41710 0.00500
N 	N 	0.85460 0.14540 0.37440 -0.22100
N 	N 	0.81130 0.18870 0.53690 -0.15000
C 	C 	0.11510 0.60180 0.60180 0.04000
H 	H 	0.14940 0.58230 0.58230 -0.02400
C 	C 	0.05620 0.58490 0.58490 -0.06700
H 	H 	0.05060 0.55400 0.55400 0.04300
C 	C 	0.00360 0.61270 0.61270 -0.07500
H 	H 	0.96270 0.60130 0.60130 0.05200
C 	C 	0.01480 0.65700 0.65700 0.06600
C 	C 	0.07600 0.67390 0.67390 -0.02700
H 	H 	0.08290 0.70460 0.70460 0.00500
N 	N 	0.12560 0.64540 0.64540 -0.22100
N 	N 	0.96310 0.68870 0.68870 -0.15000
C 	C 	0.61510 0.10180 0.10180 0.04000
H 	H 	0.64940 0.08230 0.08230 -0.02400
C 	C 	0.55620 0.08490 0.08490 -0.06800
H 	H 	0.55060 0.05400 0.05400 0.04300
C 	C 	0.50360 0.11270 0.11270 -0.07500
H 	H 	0.46270 0.10130 0.10130 0.05200
C 	C 	0.51480 0.15700 0.15700 0.06600
C 	C 	0.57600 0.17390 0.17390 -0.02700
H 	H 	0.58290 0.20460 0.20460 0.00500
N 	N 	0.62560 0.14540 0.14540 -0.22100
N 	N 	0.46310 0.18870 0.18870 -0.15000
C 	C 	0.88490 0.60180 0.39820 0.04000
H 	H 	0.85060 0.58230 0.41770 -0.02400
C 	C 	0.94380 0.58490 0.41510 -0.06700
H 	H 	0.94940 0.55400 0.44600 0.04300
C 	C 	0.99640 0.61270 0.38730 -0.07500
H 	H 	0.03730 0.60130 0.39870 0.05200
C 	C 	0.98520 0.65700 0.34300 0.06600
C 	C 	0.92400 0.67390 0.32610 -0.02700
H 	H 	0.91710 0.70460 0.29540 0.00500
N 	N 	0.87440 0.64540 0.35460 -0.22100
N 	N 	0.03690 0.68870 0.31130 -0.15000
C 	C 	0.38490 0.10180 0.89820 0.04000
H 	H 	0.35060 0.08230 0.91770 -0.02400
C 	C 	0.44380 0.08490 0.91510 -0.06800
H 	H 	0.44940 0.05400 0.94600 0.04300
C 	C 	0.49640 0.11270 0.88730 -0.07500
H 	H 	0.53730 0.10130 0.89870 0.05200
C 	C 	0.48520 0.15700 0.84300 0.06600
C 	C 	0.42400 0.17390 0.82610 -0.02700
H 	H 	0.41710 0.20460 0.79540 0.00500
N 	N 	0.37440 0.14540 0.85460 -0.22100
N 	N 	0.53690 0.18870 0.81130 -0.15000
C 	C 	0.11510 0.39820 0.39820 0.04000
H 	H 	0.14940 0.41770 0.41770 -0.02400
C 	C 	0.05620 0.41510 0.41510 -0.06700
H 	H 	0.05060 0.44600 0.44600 0.04300
C 	C 	0.00360 0.38730 0.38730 -0.07500
H 	H 	0.96270 0.39870 0.39870 0.05200
C 	C 	0.01480 0.34300 0.34300 0.06600
C 	C 	0.07600 0.32610 0.32610 -0.02700
H 	H 	0.08290 0.29540 0.29540 0.00500
N 	N 	0.12560 0.35460 0.35460 -0.22100
N 	N 	0.96310 0.31130 0.31130 -0.15000
C 	C 	0.61510 0.89820 0.89820 0.04000
H 	H 	0.64940 0.91770 0.91770 -0.02400
C 	C 	0.55620 0.91510 0.91510 -0.06800
H 	H 	0.55060 0.94600 0.94600 0.04300
C 	C 	0.50360 0.88730 0.88730 -0.07500
H 	H 	0.46270 0.89870 0.89870 0.05200
C 	C 	0.51480 0.84300 0.84300 0.06600
C 	C 	0.57600 0.82610 0.82610 -0.02700
H 	H 	0.58290 0.79540 0.79540 0.00500
N 	N 	0.62560 0.85460 0.85460 -0.22100
N 	N 	0.46310 0.81130 0.81130 -0.15000
C 	C 	0.88490 0.39820 0.60180 0.04000
H 	H 	0.85060 0.41770 0.58230 -0.02400
C 	C 	0.94380 0.41510 0.58490 -0.06700
H 	H 	0.94940 0.44600 0.55400 0.04300
C 	C 	0.99640 0.38730 0.61270 -0.07500
H 	H 	0.03730 0.39870 0.60130 0.05200
C 	C 	0.98520 0.34300 0.65700 0.06600
C 	C 	0.92400 0.32610 0.67390 -0.02700
H 	H 	0.91710 0.29540 0.70460 0.00500
N 	N 	0.87440 0.35460 0.64540 -0.22100
N 	N 	0.03690 0.31130 0.68870 -0.15000
C 	C 	0.38490 0.89820 0.10180 0.04000
H 	H 	0.35060 0.91770 0.08230 -0.02400
C 	C 	0.44380 0.91510 0.08490 -0.06800
H 	H 	0.44940 0.94600 0.05400 0.04300
C 	C 	0.49640 0.88730 0.11270 -0.07500
H 	H 	0.53730 0.89870 0.10130 0.05200
C 	C 	0.48520 0.84300 0.15700 0.06600
C 	C 	0.42400 0.82610 0.17390 -0.02700
H 	H 	0.41710 0.79540 0.20460 0.00500
N 	N 	0.37440 0.85460 0.14540 -0.22100
N 	N 	0.53690 0.81130 0.18870 -0.15000
