data_crystal

_cell_length_a 9.87430
_cell_length_b 17.73150
_cell_length_c 17.73150
_cell_angle_alpha 63.36440
_cell_angle_beta  79.30240
_cell_angle_gamma 100.69800

_symmetry_space_group_name_	'P 1'
_symmetry_space_group_name_H-M	'P 1'

loop_
_symmetry_equiv_pos_as_xyz
  x,y,z

loop_
_atom_site_label
_atom_site_type_symbol
_atom_site_fract_x
_atom_site_fract_y
_atom_site_fract_z
_atom_site_charge
Ag	Ag	0.20545 0.24217 0.42517 0.49400
Ag	Ag	0.63062 0.42517 0.33266 0.49400
Ag	Ag	0.96328 0.33266 0.24217 0.49300
Ag	Ag	0.79455 0.75783 0.57483 0.49400
Ag	Ag	0.36938 0.57483 0.66734 0.49400
Ag	Ag	0.03672 0.66734 0.75783 0.49300
H 	H 	0.11520 0.17030 0.18030 0.07000
H 	H 	0.95810 0.17330 0.22050 0.04300
H 	H 	0.86980 0.01690 0.30350 0.04400
H 	H 	0.93910 0.04620 0.20170 0.02700
H 	H 	0.15140 0.01520 0.22890 0.05300
H 	H 	0.01560 0.92870 0.29570 0.04600
H 	H 	0.17510 0.95590 0.37240 0.01500
H 	H 	0.01860 0.96030 0.41100 0.02800
H 	H 	0.19450 0.08230 0.39200 0.06300
H 	H 	0.26700 0.11200 0.29030 0.06500
H 	H 	0.98150 0.10920 0.36280 -0.00200
H 	H 	0.38100 0.33690 0.20830 0.05000
H 	H 	0.33360 0.25790 0.18870 0.07400
H 	H 	0.59300 0.41910 0.98810 0.03700
H 	H 	0.54220 0.36930 0.09430 0.02000
H 	H 	0.27810 0.48990 0.96830 0.04000
H 	H 	0.42640 0.49430 0.90850 0.02300
H 	H 	0.29550 0.18030 0.64940 0.07100
H 	H 	0.17860 0.22050 0.60620 0.04600
H 	H 	0.17330 0.30350 0.67960 0.04300
H 	H 	0.14080 0.20170 0.75210 0.02600
H 	H 	0.38030 0.22890 0.75590 0.05300
H 	H 	0.31130 0.29570 0.77560 0.04700
H 	H 	0.54750 0.37240 0.67170 0.01500
H 	H 	0.42960 0.41100 0.62870 0.02800
H 	H 	0.58650 0.39200 0.52570 0.06400
H 	H 	0.55730 0.29030 0.59770 0.06600
H 	H 	0.34430 0.36280 0.52800 -0.00200
H 	H 	0.58930 0.20830 0.45480 0.05000
H 	H 	0.52230 0.18870 0.55340 0.07400
H 	H 	0.58110 0.98810 0.59280 0.03700
H 	H 	0.63650 0.09430 0.53640 0.02000
H 	H 	0.24640 0.96830 0.54180 0.04000
H 	H 	0.33490 0.90850 0.59720 0.02300
H 	H 	0.94490 0.64940 0.17030 0.07100
H 	H 	0.78480 0.60620 0.17330 0.04600
H 	H 	0.85290 0.67960 0.01690 0.04200
H 	H 	0.89290 0.75210 0.04620 0.02600
H 	H 	0.13620 0.75590 0.01520 0.05400
H 	H 	0.08690 0.77560 0.92870 0.04800
H 	H 	0.21920 0.67170 0.95590 0.01400
H 	H 	0.05830 0.62870 0.96030 0.02800
H 	H 	0.11220 0.52570 0.08230 0.06300
H 	H 	0.15500 0.59770 0.11200 0.06500
H 	H 	0.87230 0.52800 0.10920 -0.00200
H 	H 	0.04410 0.45480 0.33690 0.05000
H 	H 	0.07570 0.55340 0.25790 0.07500
H 	H 	0.17390 0.59280 0.41910 0.03700
H 	H 	0.17290 0.53640 0.36930 0.02000
H 	H 	0.78820 0.54180 0.48990 0.04100
H 	H 	0.93210 0.59720 0.49430 0.02300
H 	H 	0.88480 0.82970 0.81970 0.07000
H 	H 	0.04190 0.82670 0.77950 0.04300
H 	H 	0.13020 0.98310 0.69650 0.04400
H 	H 	0.06090 0.95380 0.79830 0.02700
H 	H 	0.84860 0.98480 0.77110 0.05300
H 	H 	0.98440 0.07130 0.70430 0.04600
H 	H 	0.82490 0.04410 0.62760 0.01500
H 	H 	0.98140 0.03970 0.58900 0.02800
H 	H 	0.80550 0.91770 0.60800 0.06300
H 	H 	0.73300 0.88800 0.70970 0.06500
H 	H 	0.01850 0.89080 0.63720 -0.00200
H 	H 	0.61900 0.66310 0.79170 0.05000
H 	H 	0.66640 0.74210 0.81130 0.07400
H 	H 	0.40700 0.58090 0.01190 0.03700
H 	H 	0.45780 0.63070 0.90570 0.02000
H 	H 	0.72190 0.51010 0.03170 0.04000
H 	H 	0.57360 0.50570 0.09150 0.02300
H 	H 	0.70450 0.81970 0.35060 0.07100
H 	H 	0.82140 0.77950 0.39380 0.04600
H 	H 	0.82670 0.69650 0.32040 0.04300
H 	H 	0.85920 0.79830 0.24790 0.02600
H 	H 	0.61970 0.77110 0.24410 0.05300
H 	H 	0.68870 0.70430 0.22440 0.04700
H 	H 	0.45250 0.62760 0.32830 0.01500
H 	H 	0.57040 0.58900 0.37130 0.02800
H 	H 	0.41350 0.60800 0.47430 0.06400
H 	H 	0.44270 0.70970 0.40230 0.06600
H 	H 	0.65570 0.63720 0.47200 -0.00200
H 	H 	0.41070 0.79170 0.54520 0.05000
H 	H 	0.47770 0.81130 0.44660 0.07400
H 	H 	0.41890 0.01190 0.40720 0.03700
H 	H 	0.36350 0.90570 0.46360 0.02000
H 	H 	0.75360 0.03170 0.45820 0.04000
H 	H 	0.66510 0.09150 0.40280 0.02300
H 	H 	0.05510 0.35060 0.82970 0.07100
H 	H 	0.21520 0.39380 0.82670 0.04600
H 	H 	0.14710 0.32040 0.98310 0.04200
H 	H 	0.10710 0.24790 0.95380 0.02600
H 	H 	0.86380 0.24410 0.98480 0.05400
H 	H 	0.91310 0.22440 0.07130 0.04800
H 	H 	0.78080 0.32830 0.04410 0.01400
H 	H 	0.94170 0.37130 0.03970 0.02800
H 	H 	0.88780 0.47430 0.91770 0.06300
H 	H 	0.84500 0.40230 0.88800 0.06500
H 	H 	0.12770 0.47200 0.89080 -0.00200
H 	H 	0.95590 0.54520 0.66310 0.05000
H 	H 	0.92430 0.44660 0.74210 0.07500
H 	H 	0.82610 0.40720 0.58090 0.03700
H 	H 	0.82710 0.46360 0.63070 0.02000
H 	H 	0.21180 0.45820 0.51010 0.04100
H 	H 	0.06790 0.40280 0.50570 0.02300
C 	C 	0.02887 0.14001 0.23350 -0.14600
C 	C 	0.96161 0.04488 0.25435 -0.04500
C 	C 	0.06320 0.99039 0.27999 -0.11700
C 	C 	0.10562 0.99002 0.35846 -0.03000
C 	C 	0.17407 0.08415 0.33874 -0.16300
C 	C 	0.07227 0.13919 0.31158 0.04700
C 	C 	0.30179 0.30398 0.19731 -0.19700
C 	C 	0.27483 0.36747 0.11308 0.22400
C 	C 	0.54166 0.42133 0.04025 -0.04300
C 	C 	0.38106 0.49413 0.96335 -0.04100
C 	C 	0.26237 0.23350 0.62649 -0.15200
C 	C 	0.21596 0.25435 0.70077 -0.04100
C 	C 	0.34319 0.27999 0.72962 -0.11900
C 	C 	0.46408 0.35846 0.65152 -0.02800
C 	C 	0.51281 0.33874 0.57711 -0.16500
C 	C 	0.38385 0.31158 0.54923 0.04800
C 	C 	0.49910 0.19731 0.49871 -0.19700
C 	C 	0.38791 0.11308 0.51945 0.22400
C 	C 	0.58191 0.04025 0.53842 -0.04300
C 	C 	0.34441 0.96335 0.54252 -0.04100
C 	C 	0.88886 0.62649 0.14001 -0.15300
C 	C 	0.91673 0.70077 0.04488 -0.03900
C 	C 	0.07281 0.72962 0.99039 -0.12200
C 	C 	0.11560 0.65152 0.99002 -0.02800
C 	C 	0.08992 0.57711 0.08415 -0.16300
C 	C 	0.93308 0.54923 0.13919 0.04700
C 	C 	0.99781 0.49871 0.30398 -0.19800
C 	C 	0.90736 0.51945 0.36747 0.22400
C 	C 	0.12033 0.53842 0.42133 -0.04300
C 	C 	0.88693 0.54252 0.49413 -0.04100
C 	C 	0.97113 0.85999 0.76650 -0.14600
C 	C 	0.03839 0.95512 0.74565 -0.04500
C 	C 	0.93680 0.00961 0.72001 -0.11700
C 	C 	0.89438 0.00998 0.64154 -0.03000
C 	C 	0.82593 0.91585 0.66126 -0.16300
C 	C 	0.92773 0.86081 0.68842 0.04700
C 	C 	0.69821 0.69602 0.80269 -0.19700
C 	C 	0.72517 0.63253 0.88692 0.22400
C 	C 	0.45834 0.57867 0.95975 -0.04300
C 	C 	0.61894 0.50587 0.03665 -0.04100
C 	C 	0.73763 0.76650 0.37351 -0.15200
C 	C 	0.78404 0.74565 0.29923 -0.04100
C 	C 	0.65681 0.72001 0.27038 -0.11900
C 	C 	0.53592 0.64154 0.34848 -0.02800
C 	C 	0.48719 0.66126 0.42289 -0.16500
C 	C 	0.61615 0.68842 0.45077 0.04800
C 	C 	0.50090 0.80269 0.50129 -0.19700
C 	C 	0.61209 0.88692 0.48055 0.22400
C 	C 	0.41809 0.95975 0.46158 -0.04300
C 	C 	0.65559 0.03665 0.45748 -0.04100
C 	C 	0.11114 0.37351 0.85999 -0.15300
C 	C 	0.08327 0.29923 0.95512 -0.03900
C 	C 	0.92719 0.27038 0.00961 -0.12200
C 	C 	0.88440 0.34848 0.00998 -0.02800
C 	C 	0.91008 0.42289 0.91585 -0.16300
C 	C 	0.06692 0.45077 0.86081 0.04700
C 	C 	0.00219 0.50129 0.69602 -0.19800
C 	C 	0.09264 0.48055 0.63253 0.22400
C 	C 	0.87967 0.46158 0.57867 -0.04300
C 	C 	0.11307 0.45748 0.50587 -0.04100
S 	S 	0.14257 0.25116 0.29338 -0.22700
S 	S 	0.43595 0.29338 0.45546 -0.22800
S 	S 	0.89141 0.45546 0.25116 -0.22800
S 	S 	0.85743 0.74884 0.70662 -0.22700
S 	S 	0.56405 0.70662 0.54454 -0.22800
S 	S 	0.10859 0.54454 0.74884 -0.22800
N 	N 	0.39173 0.41802 0.04111 -0.14000
N 	N 	0.43284 0.04111 0.54087 -0.14000
N 	N 	0.97371 0.54087 0.41802 -0.14100
N 	N 	0.60827 0.58198 0.95889 -0.14000
N 	N 	0.56716 0.95889 0.45913 -0.14000
N 	N 	0.02629 0.45913 0.58198 -0.14100
O 	O 	0.15269 0.37264 0.10979 -0.31100
O 	O 	0.26248 0.10979 0.51757 -0.31100
O 	O 	0.78005 0.51757 0.37264 -0.31200
O 	O 	0.84731 0.62736 0.89021 -0.31100
O 	O 	0.73752 0.89021 0.48243 -0.31100
O 	O 	0.21995 0.48243 0.62736 -0.31200
