data_crystal

_cell_length_a 20.17100
_cell_length_b 20.17100
_cell_length_c 26.19700
_cell_angle_alpha 90.00000
_cell_angle_beta  90.00000
_cell_angle_gamma 120.00000

_symmetry_space_group_name_	'P 1'
_symmetry_space_group_name_H-M	'P 1'

loop_
_symmetry_equiv_pos_as_xyz
  x,y,z

loop_
_atom_site_label
_atom_site_type_symbol
_atom_site_fract_x
_atom_site_fract_y
_atom_site_fract_z
_atom_site_charge
O 	O 	0.05838 0.10985 0.61408 -0.48500
O 	O 	0.99365 0.08378 0.54160 -0.37100
O 	O 	0.32279 0.49983 0.69112 -0.50200
O 	O 	0.35089 0.59946 0.64177 -0.75100
O 	O 	0.27247 0.57639 0.55713 -0.81600
C 	C 	0.08139 0.21373 0.56153 -0.14600
C 	C 	0.13240 0.26478 0.59568 0.07600
H 	H 	0.14250 0.24640 0.62640 0.01200
C 	C 	0.17036 0.34399 0.58637 -0.18000
C 	C 	0.22188 0.39765 0.62097 0.20200
H 	H 	0.23280 0.38000 0.65170 -0.02800
C 	C 	0.25726 0.47476 0.61215 -0.41500
C 	C 	0.24191 0.50222 0.56535 0.50000
C 	C 	0.19146 0.45082 0.53080 -0.41300
H 	H 	0.18050 0.46910 0.50040 0.17400
C 	C 	0.15560 0.37145 0.53956 0.23100
C 	C 	0.10210 0.31600 0.50457 -0.22500
H 	H 	0.09170 0.33290 0.47330 0.09000
C 	C 	0.06615 0.24017 0.51484 0.09500
H 	H 	0.03080 0.20450 0.49100 -0.01400
C 	C 	0.04160 0.13058 0.57250 0.27500
C 	C 	0.31223 0.52811 0.65036 0.53900
C 	C 	0.96343 0.92049 0.72036 0.05600
H 	H 	0.99180 0.89560 0.70760 0.05900
H 	H 	0.91020 0.89130 0.70750 0.03000
O 	O 	0.89015 0.94853 0.61408 -0.40600
O 	O 	0.91622 0.90987 0.54160 -0.40600
O 	O 	0.50017 0.82296 0.69112 -0.48700
O 	O 	0.40054 0.75143 0.64177 -0.74500
O 	O 	0.42361 0.69608 0.55713 -0.81100
C 	C 	0.78627 0.86766 0.56153 -0.14900
C 	C 	0.73522 0.86762 0.59568 0.09400
H 	H 	0.75360 0.89610 0.62640 0.03100
C 	C 	0.65601 0.82637 0.58637 -0.17000
C 	C 	0.60235 0.82423 0.62097 0.20700
H 	H 	0.62000 0.85280 0.65170 -0.01200
C 	C 	0.52524 0.78250 0.61215 -0.40600
C 	C 	0.49778 0.73969 0.56535 0.50600
C 	C 	0.54918 0.74064 0.53080 -0.40900
H 	H 	0.53090 0.71140 0.50040 0.18500
C 	C 	0.62855 0.78415 0.53956 0.24500
C 	C 	0.68400 0.78610 0.50457 -0.22200
H 	H 	0.66710 0.75880 0.47330 0.11000
C 	C 	0.75983 0.82598 0.51484 0.12000
H 	H 	0.79550 0.82630 0.49100 0.01300
C 	C 	0.86942 0.91102 0.57250 0.37800
C 	C 	0.47189 0.78412 0.65036 0.54100
C 	C 	0.07951 0.04294 0.72036 -0.07200
H 	H 	0.10440 0.09620 0.70760 0.02900
H 	H 	0.10870 0.01890 0.70750 0.00400
O 	O 	0.05147 0.94162 0.61408 -0.49900
O 	O 	0.09013 0.00635 0.54160 -0.58200
O 	O 	0.17704 0.67721 0.69112 -0.50900
O 	O 	0.24857 0.64911 0.64177 -0.75600
O 	O 	0.30392 0.72753 0.55713 -0.81400
C 	C 	0.13234 0.91861 0.56153 -0.21700
C 	C 	0.13238 0.86760 0.59568 0.13300
H 	H 	0.10390 0.85750 0.62640 -0.00600
C 	C 	0.17363 0.82964 0.58637 -0.20900
C 	C 	0.17577 0.77812 0.62097 0.22500
H 	H 	0.14720 0.76720 0.65170 -0.03600
C 	C 	0.21750 0.74274 0.61215 -0.42600
C 	C 	0.26031 0.75809 0.56535 0.51400
C 	C 	0.25936 0.80854 0.53080 -0.42800
H 	H 	0.28860 0.81950 0.50040 0.19400
C 	C 	0.21585 0.84440 0.53956 0.26600
C 	C 	0.21390 0.89790 0.50457 -0.25300
H 	H 	0.24120 0.90830 0.47330 0.12700
C 	C 	0.17402 0.93385 0.51484 0.15900
H 	H 	0.17370 0.96920 0.49100 0.02300
C 	C 	0.08898 0.95840 0.57250 0.51200
C 	C 	0.21588 0.68777 0.65036 0.54400
C 	C 	0.95706 0.03657 0.72036 -0.00300
H 	H 	0.90380 0.00820 0.70760 0.00700
H 	H 	0.98110 0.08980 0.70750 0.05200
O 	O 	0.94162 0.89015 0.11408 -0.44100
O 	O 	0.00635 0.91622 0.04160 -0.52600
O 	O 	0.67721 0.50017 0.19112 -0.49700
O 	O 	0.64911 0.40054 0.14177 -0.75100
O 	O 	0.72753 0.42361 0.05713 -0.81300
C 	C 	0.91861 0.78627 0.06153 -0.18900
C 	C 	0.86760 0.73522 0.09568 0.12300
H 	H 	0.85750 0.75360 0.12640 0.01300
C 	C 	0.82964 0.65601 0.08637 -0.19400
C 	C 	0.77812 0.60235 0.12097 0.22000
H 	H 	0.76720 0.62000 0.15170 -0.02400
C 	C 	0.74274 0.52524 0.11215 -0.41800
C 	C 	0.75809 0.49778 0.06535 0.51300
C 	C 	0.80854 0.54918 0.03080 -0.42400
H 	H 	0.81950 0.53090 0.00040 0.19200
C 	C 	0.84440 0.62855 0.03956 0.26700
C 	C 	0.89790 0.68400 0.00457 -0.25800
H 	H 	0.90830 0.66710 0.97330 0.14200
C 	C 	0.93385 0.75983 0.01484 0.13600
H 	H 	0.96920 0.79550 0.99100 0.04000
C 	C 	0.95840 0.86942 0.07250 0.48700
C 	C 	0.68777 0.47189 0.15036 0.54400
C 	C 	0.03657 0.07951 0.22036 -0.07200
H 	H 	0.00820 0.10440 0.20760 0.00300
H 	H 	0.08980 0.10870 0.20750 0.02600
O 	O 	0.10985 0.05147 0.11408 -0.52300
O 	O 	0.08378 0.09013 0.04160 -0.50800
O 	O 	0.49983 0.17704 0.19112 -0.51300
O 	O 	0.59946 0.24857 0.14177 -0.75700
O 	O 	0.57639 0.30392 0.05713 -0.81800
C 	C 	0.21373 0.13234 0.06153 -0.19100
C 	C 	0.26478 0.13238 0.09568 0.10700
H 	H 	0.24640 0.10390 0.12640 -0.00800
C 	C 	0.34399 0.17363 0.08637 -0.20600
C 	C 	0.39765 0.17577 0.12097 0.21600
H 	H 	0.38000 0.14720 0.15170 -0.03900
C 	C 	0.47476 0.21750 0.11215 -0.42800
C 	C 	0.50222 0.26031 0.06535 0.50800
C 	C 	0.45082 0.25936 0.03080 -0.42900
H 	H 	0.46910 0.28860 0.00040 0.18100
C 	C 	0.37145 0.21585 0.03956 0.25400
C 	C 	0.31600 0.21390 0.00457 -0.26400
H 	H 	0.33290 0.24120 0.97330 0.12400
C 	C 	0.24017 0.17402 0.01484 0.11200
H 	H 	0.20450 0.17370 0.99100 0.01700
C 	C 	0.13058 0.08898 0.07250 0.39800
C 	C 	0.52811 0.21588 0.15036 0.54200
C 	C 	0.92049 0.95706 0.22036 0.05700
H 	H 	0.89560 0.90380 0.20760 0.03300
H 	H 	0.89130 0.98110 0.20750 0.05100
O 	O 	0.94853 0.05838 0.11408 -0.42300
O 	O 	0.90987 0.99365 0.04160 -0.34000
O 	O 	0.82296 0.32279 0.19112 -0.49000
O 	O 	0.75143 0.35089 0.14177 -0.74600
O 	O 	0.69608 0.27247 0.05713 -0.81500
C 	C 	0.86766 0.08139 0.06153 -0.12300
C 	C 	0.86762 0.13240 0.09568 0.07000
H 	H 	0.89610 0.14250 0.12640 0.03100
C 	C 	0.82637 0.17036 0.08637 -0.16600
C 	C 	0.82423 0.22188 0.12097 0.19900
H 	H 	0.85280 0.23280 0.15170 -0.01500
C 	C 	0.78250 0.25726 0.11215 -0.40700
C 	C 	0.73969 0.24191 0.06535 0.50000
C 	C 	0.74064 0.19146 0.03080 -0.41000
H 	H 	0.71140 0.18050 0.00040 0.17300
C 	C 	0.78415 0.15560 0.03956 0.23400
C 	C 	0.78610 0.10210 0.00457 -0.23200
H 	H 	0.75880 0.09170 0.97330 0.10800
C 	C 	0.82598 0.06615 0.01484 0.07600
H 	H 	0.82630 0.03080 0.99100 0.00800
C 	C 	0.91102 0.04160 0.07250 0.27500
C 	C 	0.78412 0.31223 0.15036 0.53900
C 	C 	0.04294 0.96343 0.22036 -0.00400
H 	H 	0.09620 0.99180 0.20760 0.05800
H 	H 	0.01890 0.91020 0.20750 0.00600
O 	O 	0.94162 0.89015 0.38592 -0.44100
O 	O 	0.00635 0.91622 0.45840 -0.52200
O 	O 	0.67721 0.50017 0.30888 -0.49700
O 	O 	0.64911 0.40054 0.35823 -0.75100
O 	O 	0.72753 0.42361 0.44287 -0.81100
C 	C 	0.91861 0.78627 0.43847 -0.19200
C 	C 	0.86760 0.73522 0.40432 0.12400
H 	H 	0.85750 0.75360 0.37360 0.01300
C 	C 	0.82964 0.65601 0.41363 -0.19200
C 	C 	0.77812 0.60235 0.37903 0.22000
H 	H 	0.76720 0.62000 0.34830 -0.02300
C 	C 	0.74274 0.52524 0.38785 -0.41700
C 	C 	0.75809 0.49778 0.43465 0.51300
C 	C 	0.80854 0.54918 0.46920 -0.42000
H 	H 	0.81950 0.53090 0.49960 0.19500
C 	C 	0.84440 0.62855 0.46044 0.26300
C 	C 	0.89790 0.68400 0.49543 -0.24100
H 	H 	0.90830 0.66710 0.52670 0.12800
C 	C 	0.93385 0.75983 0.48516 0.15100
H 	H 	0.96920 0.79550 0.50900 0.02700
C 	C 	0.95840 0.86942 0.42750 0.48900
C 	C 	0.68777 0.47189 0.34964 0.54400
C 	C 	0.03657 0.07951 0.27964 -0.07200
H 	H 	0.00820 0.10440 0.29240 0.00300
H 	H 	0.08980 0.10870 0.29250 0.02600
O 	O 	0.10985 0.05147 0.38592 -0.52400
O 	O 	0.08378 0.09013 0.45840 -0.50300
O 	O 	0.49983 0.17704 0.30888 -0.51200
O 	O 	0.59946 0.24857 0.35823 -0.75600
O 	O 	0.57639 0.30392 0.44287 -0.81600
C 	C 	0.21373 0.13234 0.43847 -0.19500
C 	C 	0.26478 0.13238 0.40432 0.10900
H 	H 	0.24640 0.10390 0.37360 -0.00800
C 	C 	0.34399 0.17363 0.41363 -0.20400
C 	C 	0.39765 0.17577 0.37903 0.21600
H 	H 	0.38000 0.14720 0.34830 -0.03900
C 	C 	0.47476 0.21750 0.38785 -0.42600
C 	C 	0.50222 0.26031 0.43465 0.50700
C 	C 	0.45082 0.25936 0.46920 -0.42500
H 	H 	0.46910 0.28860 0.49960 0.18400
C 	C 	0.37145 0.21585 0.46044 0.25000
C 	C 	0.31600 0.21390 0.49543 -0.24600
H 	H 	0.33290 0.24120 0.52670 0.10800
C 	C 	0.24017 0.17402 0.48516 0.13000
H 	H 	0.20450 0.17370 0.50900 0.00100
C 	C 	0.13058 0.08898 0.42750 0.40000
C 	C 	0.52811 0.21588 0.34964 0.54200
C 	C 	0.92049 0.95706 0.27964 0.05700
H 	H 	0.89560 0.90380 0.29240 0.03300
H 	H 	0.89130 0.98110 0.29250 0.05100
O 	O 	0.94853 0.05838 0.38592 -0.42300
O 	O 	0.90987 0.99365 0.45840 -0.33500
O 	O 	0.82296 0.32279 0.30888 -0.48900
O 	O 	0.75143 0.35089 0.35823 -0.74600
O 	O 	0.69608 0.27247 0.44287 -0.81300
C 	C 	0.86766 0.08139 0.43847 -0.12700
C 	C 	0.86762 0.13240 0.40432 0.07200
H 	H 	0.89610 0.14250 0.37360 0.03100
C 	C 	0.82637 0.17036 0.41363 -0.16400
C 	C 	0.82423 0.22188 0.37903 0.19900
H 	H 	0.85280 0.23280 0.34830 -0.01400
C 	C 	0.78250 0.25726 0.38785 -0.40600
C 	C 	0.73969 0.24191 0.43465 0.50000
C 	C 	0.74064 0.19146 0.46920 -0.40600
H 	H 	0.71140 0.18050 0.49960 0.17600
C 	C 	0.78415 0.15560 0.46044 0.23000
C 	C 	0.78610 0.10210 0.49543 -0.21500
H 	H 	0.75880 0.09170 0.52670 0.09300
C 	C 	0.82598 0.06615 0.48516 0.09300
H 	H 	0.82630 0.03080 0.50900 -0.00600
C 	C 	0.91102 0.04160 0.42750 0.27700
C 	C 	0.78412 0.31223 0.34964 0.53900
C 	C 	0.04294 0.96343 0.27964 -0.00400
H 	H 	0.09620 0.99180 0.29240 0.05800
H 	H 	0.01890 0.91020 0.29250 0.00600
O 	O 	0.05838 0.10985 0.88592 -0.48400
O 	O 	0.99365 0.08378 0.95840 -0.36500
O 	O 	0.32279 0.49983 0.80888 -0.50200
O 	O 	0.35089 0.59946 0.85823 -0.75000
O 	O 	0.27247 0.57639 0.94287 -0.81400
C 	C 	0.08139 0.21373 0.93847 -0.15100
C 	C 	0.13240 0.26478 0.90432 0.07800
H 	H 	0.14250 0.24640 0.87360 0.01200
C 	C 	0.17036 0.34399 0.91363 -0.17900
C 	C 	0.22188 0.39765 0.87903 0.20200
H 	H 	0.23280 0.38000 0.84830 -0.02700
C 	C 	0.25726 0.47476 0.88785 -0.41400
C 	C 	0.24191 0.50222 0.93465 0.49900
C 	C 	0.19146 0.45082 0.96920 -0.40800
H 	H 	0.18050 0.46910 0.99960 0.17700
C 	C 	0.15560 0.37145 0.96044 0.22700
C 	C 	0.10210 0.31600 0.99543 -0.20700
H 	H 	0.09170 0.33290 0.02670 0.07400
C 	C 	0.06615 0.24017 0.98516 0.11300
H 	H 	0.03080 0.20450 0.00900 -0.02900
C 	C 	0.04160 0.13058 0.92750 0.27900
C 	C 	0.31223 0.52811 0.84964 0.53900
C 	C 	0.96343 0.92049 0.77964 0.05500
H 	H 	0.99180 0.89560 0.79240 0.05900
H 	H 	0.91020 0.89130 0.79250 0.03000
O 	O 	0.89015 0.94853 0.88592 -0.40600
O 	O 	0.91622 0.90987 0.95840 -0.40200
O 	O 	0.50017 0.82296 0.80888 -0.48600
O 	O 	0.40054 0.75143 0.85823 -0.74500
O 	O 	0.42361 0.69608 0.94287 -0.80900
C 	C 	0.78627 0.86766 0.93847 -0.15200
C 	C 	0.73522 0.86762 0.90432 0.09600
H 	H 	0.75360 0.89610 0.87360 0.03000
C 	C 	0.65601 0.82637 0.91363 -0.16800
C 	C 	0.60235 0.82423 0.87903 0.20700
H 	H 	0.62000 0.85280 0.84830 -0.01200
C 	C 	0.52524 0.78250 0.88785 -0.40500
C 	C 	0.49778 0.73969 0.93465 0.50500
C 	C 	0.54918 0.74064 0.96920 -0.40500
H 	H 	0.53090 0.71140 0.99960 0.18800
C 	C 	0.62855 0.78415 0.96044 0.24100
C 	C 	0.68400 0.78610 0.99543 -0.20500
H 	H 	0.66710 0.75880 0.02670 0.09600
C 	C 	0.75983 0.82598 0.98516 0.13500
H 	H 	0.79550 0.82630 0.00900 -0.00000
C 	C 	0.86942 0.91102 0.92750 0.38000
C 	C 	0.47189 0.78412 0.84964 0.54100
C 	C 	0.07951 0.04294 0.77964 -0.07300
H 	H 	0.10440 0.09620 0.79240 0.02900
H 	H 	0.10870 0.01890 0.79250 0.00500
O 	O 	0.05147 0.94162 0.88592 -0.49800
O 	O 	0.09013 0.00635 0.95840 -0.57400
O 	O 	0.17704 0.67721 0.80888 -0.50900
O 	O 	0.24857 0.64911 0.85823 -0.75600
O 	O 	0.30392 0.72753 0.94287 -0.81200
C 	C 	0.13234 0.91861 0.93847 -0.22000
C 	C 	0.13238 0.86760 0.90432 0.13400
H 	H 	0.10390 0.85750 0.87360 -0.00600
C 	C 	0.17363 0.82964 0.91363 -0.20700
C 	C 	0.17577 0.77812 0.87903 0.22400
H 	H 	0.14720 0.76720 0.84830 -0.03500
C 	C 	0.21750 0.74274 0.88785 -0.42500
C 	C 	0.26031 0.75809 0.93465 0.51300
C 	C 	0.25936 0.80854 0.96920 -0.42400
H 	H 	0.28860 0.81950 0.99960 0.19600
C 	C 	0.21585 0.84440 0.96044 0.26200
C 	C 	0.21390 0.89790 0.99543 -0.23600
H 	H 	0.24120 0.90830 0.02670 0.11300
C 	C 	0.17402 0.93385 0.98516 0.17400
H 	H 	0.17370 0.96920 0.00900 0.01000
C 	C 	0.08898 0.95840 0.92750 0.51200
C 	C 	0.21588 0.68777 0.84964 0.54400
C 	C 	0.95706 0.03657 0.77964 -0.00400
H 	H 	0.90380 0.00820 0.79240 0.00700
H 	H 	0.98110 0.08980 0.79250 0.05200
Zn	Zn	-0.00000 -0.00000 0.62405 1.17200
N 	N 	-0.00000 0.00000 0.70179 -0.30500
Zn	Zn	-0.00000 0.00000 0.12405 1.17100
N 	N 	-0.00000 0.00000 0.20179 -0.30600
Zn	Zn	-0.00000 -0.00000 0.37595 1.17100
N 	N 	-0.00000 -0.00000 0.29821 -0.30600
Zn	Zn	-0.00000 -0.00000 0.87595 1.17200
N 	N 	0.00000 0.00000 0.79821 -0.30400
Zn	Zn	-0.00000 0.00000 0.50000 1.18400
Zn	Zn	-0.00000 0.00000 -0.00000 1.17900
Zn	Zn	0.37811 0.56537 0.75000 1.21600
O 	O 	0.39786 0.66881 0.75000 -0.56000
Zn	Zn	0.43463 0.81274 0.75000 1.22100
O 	O 	0.33119 0.72905 0.75000 -0.55600
Zn	Zn	0.18726 0.62189 0.75000 1.21200
O 	O 	0.27095 0.60214 0.75000 -0.56500
Zn	Zn	0.62189 0.43463 0.25000 1.21600
O 	O 	0.60214 0.33119 0.25000 -0.56100
Zn	Zn	0.56537 0.18726 0.25000 1.21100
O 	O 	0.66881 0.27095 0.25000 -0.56500
Zn	Zn	0.81274 0.37811 0.25000 1.22000
O 	O 	0.72905 0.39786 0.25000 -0.55600
Ti	Ti	0.33333 0.66667 0.59294 3.11900
Ti	Ti	0.66667 0.33333 0.09294 3.11900
Ti	Ti	0.66667 0.33333 0.40706 3.11900
Ti	Ti	0.33333 0.66667 0.90706 3.11900
C 	C 	0.33333 0.66667 0.75000 0.52600
C 	C 	0.66667 0.33333 0.25000 0.52600
