data_crystal

_cell_length_a 9.89900
_cell_length_b 10.36200
_cell_length_c 13.18000
_cell_angle_alpha 68.87000
_cell_angle_beta  70.65000
_cell_angle_gamma 80.77000

_symmetry_space_group_name_	'P 1'
_symmetry_space_group_name_H-M	'P 1'

loop_
_symmetry_equiv_pos_as_xyz
  x,y,z

loop_
_atom_site_label
_atom_site_type_symbol
_atom_site_fract_x
_atom_site_fract_y
_atom_site_fract_z
_atom_site_charge
Cd	Cd	0.01405 0.30815 0.76365 1.22200
O 	O 	0.11640 0.20490 0.90580 -0.50200
O 	O 	0.28500 0.31960 0.75810 -0.31100
O 	O 	0.77950 0.28480 0.80050 -0.36400
O 	O 	0.81290 0.15100 0.96510 -0.38500
O 	O 	0.08760 0.15370 0.67740 -0.43300
O 	O 	0.04490 0.96380 0.83180 -0.37100
O 	O 	0.99190 0.52860 0.77490 -0.26100
O 	O 	0.07780 0.50700 0.60580 -0.35000
C 	C 	0.34280 0.20660 0.93240 0.09300
C 	C 	0.48710 0.22900 0.88380 -0.12900
H 	H 	0.52370 0.27210 0.80560 0.10700
C 	C 	0.57780 0.18670 0.95210 0.09800
C 	C 	0.52140 0.12350 0.06950 -0.25800
H 	H 	0.58230 0.09360 0.11500 0.11800
C 	C 	0.37600 0.10500 0.11880 0.19600
C 	C 	0.28650 0.14830 0.04920 -0.26200
H 	H 	0.18820 0.13790 0.08140 0.09400
C 	C 	0.24390 0.24730 0.85850 0.28600
C 	C 	0.73390 0.20810 0.90190 0.28700
C 	C 	0.31590 0.04090 0.23950 -0.19400
C 	C 	0.25870 0.98670 0.33930 0.14000
C 	C 	0.10210 0.94200 0.64840 -0.05800
C 	C 	0.06270 0.80550 0.69220 -0.00800
H 	H 	0.01980 0.76550 0.77000 0.05400
C 	C 	0.08720 0.72810 0.62000 -0.04800
C 	C 	0.15090 0.78710 0.50340 -0.00900
H 	H 	0.16680 0.73550 0.45520 0.05300
C 	C 	0.19070 0.92440 0.45940 -0.06700
C 	C 	0.16380 0.99970 0.53260 0.08000
H 	H 	0.18810 0.09190 0.50280 -0.01000
C 	C 	0.07560 0.02710 0.72640 0.27500
C 	C 	0.05070 0.57860 0.66980 0.21600
Cd	Cd	0.98595 0.69185 0.23635 1.26200
O 	O 	0.88360 0.79510 0.09420 -0.50000
O 	O 	0.71500 0.68040 0.24190 -0.32500
O 	O 	0.22050 0.71520 0.19950 -0.43500
O 	O 	0.18710 0.84900 0.03490 -0.48500
O 	O 	0.91240 0.84630 0.32260 -0.42000
O 	O 	0.95510 0.03620 0.16820 -0.44800
O 	O 	0.00810 0.47140 0.22510 -0.45800
O 	O 	0.92220 0.49300 0.39420 -0.34800
C 	C 	0.65720 0.79340 0.06760 -0.21400
C 	C 	0.51290 0.77100 0.11620 0.14200
H 	H 	0.47630 0.72790 0.19440 0.01800
C 	C 	0.42220 0.81330 0.04790 -0.22300
C 	C 	0.47860 0.87650 0.93050 0.15700
H 	H 	0.41770 0.90640 0.88500 0.01400
C 	C 	0.62400 0.89500 0.88120 -0.11100
C 	C 	0.71350 0.85170 0.95080 0.14500
H 	H 	0.81180 0.86210 0.91860 0.02100
C 	C 	0.75610 0.75270 0.14150 0.38100
C 	C 	0.26610 0.79190 0.09810 0.40800
C 	C 	0.68410 0.95910 0.76050 0.12700
C 	C 	0.74130 0.01330 0.66070 -0.11700
C 	C 	0.89790 0.05800 0.35160 -0.06300
C 	C 	0.93730 0.19450 0.30780 0.00600
H 	H 	0.98020 0.23450 0.23000 0.07600
C 	C 	0.91280 0.27190 0.38000 -0.04000
C 	C 	0.84910 0.21290 0.49660 -0.07500
H 	H 	0.83320 0.26450 0.54480 0.09200
C 	C 	0.80930 0.07560 0.54060 0.11200
C 	C 	0.83620 0.00030 0.46740 -0.12800
H 	H 	0.81190 0.90810 0.49720 0.13100
C 	C 	0.92440 0.97290 0.27360 0.43200
C 	C 	0.94930 0.42140 0.33020 0.38600
Cd	Cd	-0.00000 0.00000 -0.00000 1.18100
