data_crystal

_cell_length_a 23.31200
_cell_length_b 10.66270
_cell_length_c 13.16700
_cell_angle_alpha 90.00000
_cell_angle_beta  124.16800
_cell_angle_gamma 90.00000

_symmetry_space_group_name_	'P 1'
_symmetry_space_group_name_H-M	'P 1'

loop_
_symmetry_equiv_pos_as_xyz
  x,y,z

loop_
_atom_site_label
_atom_site_type_symbol
_atom_site_fract_x
_atom_site_fract_y
_atom_site_fract_z
_atom_site_charge
Ag	Ag	0.24296 0.42460 0.37665 0.37000
Ag	Ag	0.27528 0.08384 0.43201 0.36400
Ag	Ag	0.34463 0.24916 0.29291 0.39700
Ag	Ag	0.36350 0.56120 0.64090 0.14200
Ag	Ag	0.37280 0.55840 0.65490 0.15700
Ag	Ag	0.49198 0.28813 0.48415 0.29800
Ag	Ag	0.11266 0.54685 0.32280 0.19900
Ag	Ag	0.11650 0.55280 0.35230 0.16400
F 	F 	0.26132 0.24680 0.31610 -0.73900
C 	C 	0.24580 0.68670 0.49360 -0.07600
C 	C 	0.23550 0.57280 0.47700 -0.47900
C 	C 	0.47310 0.27060 0.25650 -0.10200
C 	C 	0.42540 0.26110 0.27040 -0.44900
Ag	Ag	0.74296 0.92460 0.37665 0.36800
Ag	Ag	0.77528 0.58384 0.43201 0.36000
Ag	Ag	0.84463 0.74916 0.29291 0.39200
Ag	Ag	0.86350 0.06120 0.64090 0.13900
Ag	Ag	0.87280 0.05840 0.65490 0.15500
Ag	Ag	0.99198 0.78813 0.48415 0.28200
Ag	Ag	0.61266 0.04685 0.32280 0.19800
Ag	Ag	0.61650 0.05280 0.35230 0.16200
F 	F 	0.76132 0.74680 0.31610 -0.74200
C 	C 	0.74580 0.18670 0.49360 -0.07800
C 	C 	0.73550 0.07280 0.47700 -0.48100
C 	C 	0.97310 0.77060 0.25650 -0.16000
C 	C 	0.92540 0.76110 0.27040 -0.43400
Ag	Ag	0.75704 0.42460 0.12335 0.36700
Ag	Ag	0.72472 0.08384 0.06799 0.36000
Ag	Ag	0.65537 0.24916 0.20709 0.39600
Ag	Ag	0.63650 0.56120 0.85910 0.14200
Ag	Ag	0.62720 0.55840 0.84510 0.15800
Ag	Ag	0.50802 0.28813 0.01585 0.29600
Ag	Ag	0.88734 0.54685 0.17720 0.19300
Ag	Ag	0.88350 0.55280 0.14770 0.15600
F 	F 	0.73868 0.24680 0.18390 -0.74300
C 	C 	0.75420 0.68670 0.00640 -0.08400
C 	C 	0.76450 0.57280 0.02300 -0.48200
C 	C 	0.52690 0.27060 0.24350 -0.10100
C 	C 	0.57460 0.26110 0.22960 -0.44900
Ag	Ag	0.25704 0.92460 0.12335 0.37000
Ag	Ag	0.22472 0.58384 0.06799 0.36200
Ag	Ag	0.15537 0.74916 0.20709 0.40000
Ag	Ag	0.13650 0.06120 0.85910 0.14600
Ag	Ag	0.12720 0.05840 0.84510 0.15900
Ag	Ag	0.00802 0.78813 0.01585 0.30800
Ag	Ag	0.38734 0.04685 0.17720 0.19600
Ag	Ag	0.38350 0.05280 0.14770 0.16300
F 	F 	0.23868 0.74680 0.18390 -0.74000
C 	C 	0.25420 0.18670 0.00640 -0.08200
C 	C 	0.26450 0.07280 0.02300 -0.47900
C 	C 	0.02690 0.77060 0.24350 -0.04600
C 	C 	0.07460 0.76110 0.22960 -0.46500
Ag	Ag	0.75704 0.57540 0.62335 0.36800
Ag	Ag	0.72472 0.91616 0.56799 0.36200
Ag	Ag	0.65537 0.75084 0.70709 0.39700
Ag	Ag	0.63650 0.43880 0.35910 0.14200
Ag	Ag	0.62720 0.44160 0.34510 0.15700
Ag	Ag	0.50802 0.71187 0.51585 0.29700
Ag	Ag	0.88734 0.45315 0.67720 0.19400
Ag	Ag	0.88350 0.44720 0.64770 0.15600
F 	F 	0.73868 0.75320 0.68390 -0.74200
C 	C 	0.75420 0.31330 0.50640 -0.07700
C 	C 	0.76450 0.42720 0.52300 -0.48200
C 	C 	0.52690 0.72940 0.74350 -0.10100
C 	C 	0.57460 0.73890 0.72960 -0.44800
Ag	Ag	0.25704 0.07540 0.62335 0.37100
Ag	Ag	0.22472 0.41616 0.56799 0.36500
Ag	Ag	0.15537 0.25084 0.70709 0.40100
Ag	Ag	0.13650 0.93880 0.35910 0.14500
Ag	Ag	0.12720 0.94160 0.34510 0.15800
Ag	Ag	0.00802 0.21187 0.51585 0.31000
Ag	Ag	0.38734 0.95315 0.67720 0.19700
Ag	Ag	0.38350 0.94720 0.64770 0.16300
F 	F 	0.23868 0.25320 0.68390 -0.73900
C 	C 	0.25420 0.81330 0.50640 -0.07600
C 	C 	0.26450 0.92720 0.52300 -0.47900
C 	C 	0.02690 0.22940 0.74350 -0.04500
C 	C 	0.07460 0.23890 0.72960 -0.46400
Ag	Ag	0.24296 0.57540 0.87665 0.37200
Ag	Ag	0.27528 0.91616 0.93201 0.36600
Ag	Ag	0.34463 0.75084 0.79291 0.39800
Ag	Ag	0.36350 0.43880 0.14090 0.14200
Ag	Ag	0.37280 0.44160 0.15490 0.15600
Ag	Ag	0.49198 0.71187 0.98415 0.29900
Ag	Ag	0.11266 0.45315 0.82280 0.20000
Ag	Ag	0.11650 0.44720 0.85230 0.16400
F 	F 	0.26132 0.75320 0.81610 -0.73800
C 	C 	0.24580 0.31330 0.99360 -0.07000
C 	C 	0.23550 0.42720 0.97700 -0.47900
C 	C 	0.47310 0.72940 0.75650 -0.10100
C 	C 	0.42540 0.73890 0.77040 -0.44800
Ag	Ag	0.74296 0.07540 0.87665 0.36900
Ag	Ag	0.77528 0.41616 0.93201 0.36300
Ag	Ag	0.84463 0.25084 0.79291 0.39300
Ag	Ag	0.86350 0.93880 0.14090 0.13800
Ag	Ag	0.87280 0.94160 0.15490 0.15400
Ag	Ag	0.99198 0.21187 0.98415 0.28400
Ag	Ag	0.61266 0.95315 0.82280 0.19900
Ag	Ag	0.61650 0.94720 0.85230 0.16200
F 	F 	0.76132 0.25320 0.81610 -0.74100
C 	C 	0.74580 0.81330 0.99360 -0.07100
C 	C 	0.73550 0.92720 0.97700 -0.48100
C 	C 	0.97310 0.22940 0.75650 -0.15900
C 	C 	0.92540 0.23890 0.77040 -0.43300
O 	O 	-0.00000 0.46240 0.25000 -0.46100
O 	O 	0.50000 0.96240 0.25000 -0.47900
O 	O 	0.00000 0.53760 0.75000 -0.45900
O 	O 	0.50000 0.03760 0.75000 -0.47700
