data_crystal

_cell_length_a 6.62290
_cell_length_b 10.15870
_cell_length_c 16.67830
_cell_angle_alpha 90.00000
_cell_angle_beta  90.00000
_cell_angle_gamma 93.94100

_symmetry_space_group_name_	'P 1'
_symmetry_space_group_name_H-M	'P 1'

loop_
_symmetry_equiv_pos_as_xyz
  x,y,z

loop_
_atom_site_label
_atom_site_type_symbol
_atom_site_fract_x
_atom_site_fract_y
_atom_site_fract_z
_atom_site_charge
Ag	Ag	0.64765 0.54659 0.44176 0.43600
Ag	Ag	0.22320 0.56143 0.43858 0.45400
Ag	Ag	0.78099 0.94036 0.79802 0.46000
Ag	Ag	0.35471 0.95273 0.79396 0.47500
Ag	Ag	0.40571 0.83591 0.44221 0.46600
Ag	Ag	0.59127 0.66348 0.79549 0.49000
Ag	Ag	0.96770 0.14500 0.47266 0.47800
Ag	Ag	0.59140 0.06928 0.66092 0.45000
Ag	Ag	0.41010 0.43179 0.57511 0.37700
Ag	Ag	0.35235 0.45341 0.94176 0.39100
Ag	Ag	0.77680 0.43857 0.93858 0.40900
Ag	Ag	0.21901 0.05964 0.29802 0.46700
Ag	Ag	0.64529 0.04727 0.29396 0.48100
Ag	Ag	0.59429 0.16409 0.94221 0.42200
Ag	Ag	0.40873 0.33652 0.29549 0.49800
Ag	Ag	0.03230 0.85500 0.97266 0.42700
Ag	Ag	0.40860 0.93072 0.16092 0.46000
Ag	Ag	0.58990 0.56821 0.07511 0.41100
P 	P 	0.91750 0.33260 0.32410 0.68200
P 	P 	0.91670 0.83480 0.41560 0.47400
P 	P 	0.08250 0.66740 0.82410 0.68200
P 	P 	0.08330 0.16520 0.91560 0.40300
C 	C 	0.54600 0.85080 0.71470 -0.36400
C 	C 	0.53300 0.78400 0.65140 0.00900
C 	C 	0.48100 0.71480 0.58330 0.01800
C 	C 	0.42900 0.64540 0.52590 -0.41400
C 	C 	0.45400 0.14920 0.21470 -0.36700
C 	C 	0.46700 0.21600 0.15140 0.03200
C 	C 	0.51900 0.28520 0.08330 0.00300
C 	C 	0.57100 0.35460 0.02590 -0.31600
N 	N 	0.08170 0.06130 0.64150 0.07000
N 	N 	0.91830 0.93870 0.14150 0.06700
O 	O 	0.23000 0.04560 0.59750 -0.28900
O 	O 	0.05600 0.03000 0.70730 -0.26200
O 	O 	0.90900 0.11010 0.60560 -0.33500
O 	O 	0.94800 0.19120 0.33770 -0.46500
O 	O 	0.72960 0.37480 0.35460 -0.49000
O 	O 	0.88500 0.84570 0.50530 -0.31300
O 	O 	0.10100 0.92210 0.39860 -0.44500
O 	O 	0.93910 0.68590 0.39760 -0.38100
O 	O 	0.72680 0.88490 0.37270 -0.43400
O 	O 	0.77000 0.95440 0.09750 -0.25800
O 	O 	0.94400 0.97000 0.20730 -0.26300
O 	O 	0.09100 0.88990 0.10560 -0.29900
O 	O 	0.05200 0.80880 0.83770 -0.47100
O 	O 	0.27040 0.62520 0.85460 -0.50300
O 	O 	0.11500 0.15430 0.00530 -0.22000
O 	O 	0.89900 0.07790 0.89860 -0.45700
O 	O 	0.06090 0.31410 0.89760 -0.39100
O 	O 	0.27320 0.11510 0.87270 -0.43900
F 	F 	0.88890 0.33390 0.22870 -0.50400
F 	F 	0.11320 0.42290 0.33630 -0.64700
F 	F 	0.11110 0.66610 0.72870 -0.50800
F 	F 	0.88680 0.57710 0.83630 -0.65700
