data_crystal

_cell_length_a 14.87000
_cell_length_b 19.11010
_cell_length_c 30.65900
_cell_angle_alpha 100.49300
_cell_angle_beta  90.00000
_cell_angle_gamma 112.89600

_symmetry_space_group_name_	'P 1'
_symmetry_space_group_name_H-M	'P 1'

loop_
_symmetry_equiv_pos_as_xyz
  x,y,z

loop_
_atom_site_label
_atom_site_type_symbol
_atom_site_fract_x
_atom_site_fract_y
_atom_site_fract_z
_atom_site_charge
Zn	Zn	0.96844 0.22208 0.17270 1.16300
Zn	Zn	0.57909 0.41098 0.84847 1.16000
Zn	Zn	0.50752 0.81804 0.00820 1.16200
Zn	Zn	0.31052 0.81804 0.50820 1.16300
Zn	Zn	0.83189 0.41098 0.34847 1.16000
Zn	Zn	0.25364 0.22208 0.67270 1.16300
H 	H 	0.69380 0.33580 0.40980 -0.01300
H 	H 	0.37710 0.72020 0.07200 -0.01000
H 	H 	0.45710 0.05740 0.62420 0.07300
H 	H 	0.25670 0.36360 0.64370 -0.01800
H 	H 	0.79530 0.31600 0.74800 0.10000
H 	H 	0.95150 0.27140 0.71160 0.08800
H 	H 	0.60030 0.05740 0.12420 0.07300
H 	H 	0.17180 0.28500 0.21830 -0.01000
H 	H 	0.74890 0.38520 0.80670 -0.01100
H 	H 	0.50680 0.18240 0.72600 0.08500
H 	H 	0.34400 0.21560 0.58130 -0.00700
H 	H 	0.56800 0.34740 0.45090 0.07700
H 	H 	0.23020 0.61100 0.06690 0.08700
H 	H 	0.65340 0.97060 0.57750 0.08100
H 	H 	0.87160 0.21560 0.08130 -0.00700
H 	H 	0.62860 0.55700 0.41990 0.07000
H 	H 	0.34310 0.72020 0.57200 -0.01000
H 	H 	0.06550 0.11720 0.61390 -0.00800
H 	H 	0.86050 0.29820 0.03720 0.08800
H 	H 	0.35910 0.46180 0.60880 0.09100
H 	H 	0.78950 0.53440 0.87530 -0.00500
H 	H 	0.18490 0.61920 0.93890 0.08000
H 	H 	0.31720 0.97060 0.07750 0.08100
H 	H 	0.63630 0.38520 0.30670 -0.01100
H 	H 	0.10690 0.36360 0.14370 -0.01800
H 	H 	0.74490 0.53440 0.37530 -0.00500
H 	H 	0.43770 0.29820 0.53720 0.09200
H 	H 	0.37330 0.71640 0.44320 -0.01100
H 	H 	0.34870 0.87860 0.02730 0.00300
H 	H 	0.17880 0.07440 0.12080 0.08800
H 	H 	0.77980 0.25220 0.28870 -0.01600
H 	H 	0.34310 0.71640 0.94320 -0.01000
H 	H 	0.10270 0.46180 0.10880 0.08900
H 	H 	0.11320 0.28500 0.71830 -0.01200
H 	H 	0.89560 0.07440 0.62080 0.09000
H 	H 	0.31990 0.27140 0.21160 0.08700
H 	H 	0.38080 0.61100 0.56690 0.08900
H 	H 	0.59770 0.93280 0.09910 0.02100
H 	H 	0.52990 0.87860 0.52730 0.00400
H 	H 	0.05170 0.11720 0.11390 -0.00700
H 	H 	0.92840 0.55700 0.91990 0.07000
H 	H 	0.43430 0.61920 0.43890 0.08200
H 	H 	0.33510 0.93280 0.59910 0.02100
H 	H 	0.52070 0.31600 0.24800 0.10000
H 	H 	0.77940 0.34740 0.95090 0.07800
H 	H 	0.47240 0.25220 0.78870 -0.01600
H 	H 	0.64200 0.33580 0.90980 -0.01100
H 	H 	0.67560 0.18240 0.22600 0.08500
C 	C 	0.39820 0.91320 0.04960 0.06400
C 	C 	0.38550 0.38100 0.56230 0.07700
C 	C 	0.80460 0.16200 0.66490 0.10000
C 	C 	0.64520 0.09180 0.64110 0.09800
C 	C 	0.65290 0.23860 0.73140 0.07400
C 	C 	0.30240 0.35280 0.62450 0.08600
C 	C 	0.64220 0.34100 0.28920 0.09100
C 	C 	0.26570 0.17560 0.16120 0.06500
C 	C 	0.25280 0.63360 0.04170 -0.12600
C 	C 	0.50650 0.19200 0.19560 0.09600
C 	C 	0.86130 0.45920 0.94760 0.04400
C 	C 	0.58890 0.96980 0.57820 -0.14200
C 	C 	0.34020 0.69640 0.04420 0.07600
C 	C 	0.34990 0.26780 0.58810 0.09000
C 	C 	0.45670 0.02720 0.10880 0.05600
C 	C 	0.78600 0.50080 0.89520 0.06200
C 	C 	0.10350 0.14420 0.13650 0.07000
C 	C 	0.40960 0.63640 0.46540 -0.12800
C 	C 	0.57050 0.02720 0.60880 0.05700
C 	C 	0.01050 0.43300 0.03010 0.10700
C 	C 	0.69880 0.34100 0.78920 0.09100
C 	C 	0.43310 0.53820 0.50150 0.08300
C 	C 	0.99550 0.38100 0.06230 0.06700
C 	C 	0.06930 0.24580 0.69550 0.07400
C 	C 	0.40490 0.60480 0.50080 0.06300
C 	C 	0.64490 0.51380 0.42050 -0.11000
C 	C 	0.39850 0.31300 0.55850 -0.13200
C 	C 	0.35740 0.16200 0.16490 0.10100
C 	C 	0.55010 0.94900 0.08880 -0.01300
C 	C 	0.69860 0.38300 0.91460 0.06000
C 	C 	0.31850 0.69580 0.96880 0.07200
C 	C 	0.42250 0.43300 0.53010 0.10200
C 	C 	0.38090 0.96980 0.07820 -0.14200
C 	C 	0.94930 0.46820 0.97460 0.09700
C 	C 	0.59790 0.45920 0.44760 0.04400
C 	C 	0.72910 0.30160 0.75490 -0.13900
C 	C 	0.22680 0.63640 0.96540 -0.11600
C 	C 	0.91790 0.26780 0.08810 0.08600
C 	C 	0.57250 0.30160 0.25490 -0.13900
C 	C 	0.54320 0.01640 0.10920 -0.04700
C 	C 	0.71480 0.50080 0.39520 0.06100
C 	C 	0.17650 0.24580 0.19550 0.07000
C 	C 	0.35060 0.40920 0.60030 -0.13400
C 	C 	0.68550 0.19200 0.69560 0.09600
C 	C 	0.05860 0.40920 0.10030 -0.12800
C 	C 	0.38080 0.63360 0.54170 -0.13000
C 	C 	0.91450 0.31300 0.05850 -0.12800
C 	C 	0.51890 0.46820 0.47460 0.09200
C 	C 	0.77950 0.39020 0.93930 -0.10600
C 	C 	0.53740 0.26640 0.78000 0.08900
C 	C 	0.94070 0.12300 0.63680 -0.12700
C 	C 	0.86890 0.51380 0.92050 -0.10900
C 	C 	0.18230 0.12300 0.13680 -0.12200
C 	C 	0.37730 0.69580 0.46880 0.06800
C 	C 	0.72900 0.26640 0.28000 0.08900
C 	C 	0.44660 0.09180 0.14110 0.09700
C 	C 	0.90990 0.17560 0.66120 0.06800
C 	C 	0.61070 0.39020 0.43930 -0.10700
C 	C 	0.04070 0.14420 0.63650 0.07400
C 	C 	0.68440 0.38300 0.41460 0.05900
C 	C 	0.26350 0.23700 0.19270 -0.12500
C 	C 	0.97350 0.23700 0.69270 -0.13000
C 	C 	0.05040 0.35280 0.12450 0.08600
C 	C 	0.47320 0.01640 0.60920 -0.04700
C 	C 	0.39890 0.94900 0.58880 -0.01200
C 	C 	0.10510 0.53820 0.00150 0.08100
C 	C 	0.55950 0.22440 0.74380 -0.14100
C 	C 	0.58570 0.23860 0.23140 0.07400
C 	C 	0.51500 0.91320 0.54960 0.06500
C 	C 	0.66490 0.22440 0.24380 -0.14100
C 	C 	0.35620 0.69640 0.54420 0.08000
C 	C 	0.19990 0.60480 0.00080 0.05200
I 	I 	0.42921 0.33788 0.88565 -0.37100
I 	I 	0.63051 0.78322 0.04510 -0.39900
I 	I 	0.60752 0.52444 0.81144 -0.36000
I 	I 	0.52641 0.86382 0.93613 -0.38600
I 	I 	0.32128 0.31436 0.74727 -0.40000
I 	I 	0.33741 0.86382 0.43613 -0.39200
I 	I 	0.81744 0.10028 0.14937 -0.36700
I 	I 	0.91692 0.52444 0.31144 -0.36100
I 	I 	0.15271 0.78322 0.54510 -0.39200
I 	I 	0.28284 0.10028 0.64937 -0.36600
I 	I 	0.99308 0.31436 0.24727 -0.40300
I 	I 	0.90867 0.33788 0.38565 -0.37400
N 	N 	0.74280 0.44220 0.39730 -0.25500
N 	N 	0.60840 0.32580 0.80160 -0.26900
N 	N 	0.03100 0.52900 0.97120 -0.14200
N 	N 	0.39370 0.49000 0.52890 -0.13300
N 	N 	0.37320 0.72440 0.00760 -0.27000
N 	N 	0.36370 0.10100 0.13640 -0.13400
N 	N 	0.97590 0.28580 0.12490 -0.28600
N 	N 	0.30990 0.28580 0.62490 -0.28500
N 	N 	0.61210 0.12640 0.67500 -0.14000
N 	N 	0.71740 0.32580 0.30160 -0.26900
N 	N 	0.42930 0.21120 0.19540 -0.13400
N 	N 	0.09800 0.20200 0.16740 -0.26700
N 	N 	0.09630 0.49000 0.02890 -0.13400
N 	N 	0.69940 0.44220 0.89730 -0.25500
N 	N 	0.35120 0.72440 0.50760 -0.26700
N 	N 	0.51430 0.12640 0.17500 -0.14000
N 	N 	0.73730 0.10100 0.63640 -0.13300
N 	N 	0.78190 0.21120 0.69540 -0.13400
N 	N 	0.93010 0.42280 0.00430 -0.13900
N 	N 	0.49270 0.42280 0.50430 -0.13200
N 	N 	0.42110 0.90560 0.55250 -0.25400
N 	N 	0.48450 0.90560 0.05250 -0.25500
N 	N 	0.49800 0.52900 0.47120 -0.14600
N 	N 	0.10400 0.20200 0.66740 -0.26800
Zn	Zn	0.98720 0.72360 0.04263 1.16600
Zn	Zn	0.73640 0.72360 0.54263 1.16700
Zn	Zn	0.60140 0.91440 0.72020 1.15600
Zn	Zn	0.31300 0.91440 0.22020 1.15600
Zn	Zn	0.05827 0.31894 0.88044 1.16900
Zn	Zn	0.26067 0.31894 0.38044 1.16900
H 	H 	0.16460 0.84540 0.36110 0.08100
H 	H 	0.25640 0.86420 0.68640 0.07600
H 	H 	0.43190 0.69640 0.79320 0.07700
H 	H 	0.18790 0.23520 0.87320 -0.00300
H 	H 	0.98660 0.10640 0.74740 0.09800
H 	H 	0.92360 0.73800 0.58010 -0.00400
H 	H 	0.78360 0.87460 0.61250 -0.01500
H 	H 	0.91830 0.14860 0.32320 0.09700
H 	H 	0.05460 0.95860 0.16580 0.06700
H 	H 	0.82210 0.76280 0.45610 -0.00800
H 	H 	0.16820 0.41320 0.45100 0.00000
H 	H 	0.14060 0.52580 0.45410 0.08000
H 	H 	0.80940 0.59640 0.51220 -0.00400
H 	H 	0.78700 0.59640 0.01220 -0.01800
H 	H 	0.30930 0.52520 0.82930 0.08500
H 	H 	0.26450 0.69640 0.29320 0.07700
H 	H 	0.09100 0.87460 0.11250 -0.01600
H 	H 	0.81440 0.73800 0.08010 -0.00400
H 	H 	0.24500 0.41320 0.95100 0.00100
H 	H 	0.77300 0.81920 0.13250 0.09100
H 	H 	0.50990 0.04440 0.26540 -0.00700
H 	H 	0.20600 0.91800 0.30450 -0.01600
H 	H 	0.95700 0.19420 0.80150 -0.01100
H 	H 	0.66710 0.04740 0.28120 0.07100
H 	H 	0.39430 0.83880 0.68910 -0.01300
H 	H 	0.94070 0.76280 0.95610 -0.01100
H 	H 	0.64430 0.58580 0.97160 0.07900
H 	H 	0.80550 0.76240 0.91840 0.08300
H 	H 	0.48510 0.75520 0.73010 -0.01000
H 	H 	0.94150 0.58580 0.47160 0.07100
H 	H 	0.68080 0.84540 0.86110 0.08100
H 	H 	0.21590 0.52520 0.32930 0.08500
H 	H 	0.38030 0.04740 0.78120 0.07200
H 	H 	0.27010 0.75520 0.23010 -0.01000
H 	H 	0.11980 0.10640 0.24740 0.10200
H 	H 	0.44450 0.83880 0.18910 -0.01300
H 	H 	0.23720 0.19420 0.30150 -0.01100
H 	H 	0.53450 0.04440 0.76540 -0.00700
H 	H 	0.16800 0.42160 0.83180 -0.02700
H 	H 	0.25360 0.42160 0.33180 -0.02700
H 	H 	0.71200 0.91800 0.80450 -0.01700
H 	H 	0.38520 0.52580 0.95410 0.08100
H 	H 	0.95690 0.76240 0.41840 0.07800
H 	H 	0.04730 0.23520 0.37320 -0.00500
H 	H 	0.04620 0.81920 0.63250 0.09400
H 	H 	0.60780 0.86420 0.18640 0.07600
H 	H 	0.23030 0.14860 0.82320 0.09300
H 	H 	0.90400 0.95860 0.66580 0.06700
C 	C 	0.66150 0.96700 0.22810 0.01600
C 	C 	0.84700 0.63600 0.49700 0.05600
C 	C 	0.84010 0.83220 0.12850 -0.11800
C 	C 	0.21370 0.44200 0.85720 0.07500
C 	C 	0.26060 0.77720 0.25920 0.05200
C 	C 	0.79790 0.72900 0.93890 -0.12900
C 	C 	0.15180 0.21340 0.84500 0.08100
C 	C 	0.55360 0.70320 0.86010 0.11000
C 	C 	0.31250 0.90160 0.70440 -0.10300
C 	C 	0.38550 0.01080 0.75690 -0.07100
C 	C 	0.06650 0.94740 0.69370 0.07200
C 	C 	0.92280 0.62760 0.47010 -0.11000
C 	C 	0.88090 0.94740 0.19370 0.07000
C 	C 	0.00610 0.11620 0.28110 0.07400
C 	C 	0.99210 0.83220 0.62850 -0.12300
C 	C 	0.91890 0.78300 0.59720 0.06900
C 	C 	0.34340 0.50360 0.92740 -0.12600
C 	C 	0.14090 0.60380 0.39140 0.09800
C 	C 	0.17150 0.18980 0.30350 0.09400
C 	C 	0.86410 0.78300 0.09720 0.06600
C 	C 	0.18730 0.82660 0.33430 -0.10700
C 	C 	0.10210 0.13300 0.27300 -0.14800
C 	C 	0.65410 0.87220 0.80260 0.06100
C 	C 	0.03090 0.13300 0.77300 -0.14000
C 	C 	0.18900 0.75400 0.32720 0.05700
C 	C 	0.20560 0.50400 0.35550 -0.12200
C 	C 	0.87710 0.73440 0.96420 0.07500
C 	C 	0.49130 0.88680 0.20510 0.05100
C 	C 	0.62530 0.01080 0.25690 -0.07000
C 	C 	0.01830 0.18980 0.80350 0.09300
C 	C 	0.90690 0.90000 0.15530 0.05600
C 	C 	0.29840 0.50400 0.85550 -0.12200
C 	C 	0.12530 0.05060 0.75150 0.08700
C 	C 	0.99310 0.90000 0.65530 0.05900
C 	C 	0.49520 0.73640 0.79330 -0.10100
C 	C 	0.21310 0.98080 0.73040 0.08200
C 	C 	0.93110 0.72900 0.43890 -0.11600
C 	C 	0.96710 0.67480 0.44380 0.05300
C 	C 	0.91100 0.91440 0.64880 -0.13500
C 	C 	0.06160 0.21340 0.34500 0.08800
C 	C 	0.47550 0.00340 0.75180 0.09300
C 	C 	0.98420 0.15760 0.31730 -0.14100
C 	C 	0.85730 0.73440 0.46420 0.06100
C 	C 	0.04390 0.66740 0.41410 0.08800
C 	C 	0.46290 0.60380 0.89140 0.09800
C 	C 	0.16020 0.50360 0.42740 -0.12600
C 	C 	0.78900 0.63600 0.99700 0.08500
C 	C 	0.21810 0.87220 0.30260 0.06100
C 	C 	0.14960 0.70320 0.36010 0.11000
C 	C 	0.70480 0.62760 0.97010 -0.12800
C 	C 	0.11010 0.11620 0.78110 0.06500
C 	C 	0.16810 0.53620 0.39070 0.05300
C 	C 	0.36810 0.53620 0.89070 0.05300
C 	C 	0.52790 0.00340 0.25180 0.09200
C 	C 	0.51660 0.77720 0.75920 0.05200
C 	C 	0.58910 0.90160 0.20440 -0.10300
C 	C 	0.18110 0.43780 0.42610 0.09100
C 	C 	0.25670 0.43780 0.92610 0.09200
C 	C 	0.83930 0.86320 0.61670 0.07800
C 	C 	0.39550 0.88680 0.70510 0.05100
C 	C 	0.70770 0.67480 0.94380 0.06800
C 	C 	0.22830 0.44200 0.35720 0.07500
C 	C 	0.92530 0.05060 0.25150 0.08200
C 	C 	0.62350 0.66740 0.91410 0.08200
C 	C 	0.30550 0.96700 0.72810 0.01700
C 	C 	0.17340 0.15760 0.81730 -0.13000
C 	C 	0.00340 0.91440 0.14880 -0.13100
C 	C 	0.76770 0.98080 0.23040 0.08100
C 	C 	0.24120 0.73640 0.29330 -0.10100
C 	C 	0.56500 0.75400 0.82720 0.05700
C 	C 	0.63930 0.82660 0.83430 -0.10700
C 	C 	0.02390 0.86320 0.11670 0.07900
I 	I 	0.57765 0.82410 0.64478 -0.41300
I 	I 	0.24645 0.82410 0.14478 -0.41200
I 	I 	0.41919 0.35878 0.34068 -0.37300
I 	I 	0.28813 0.03946 0.24480 -0.34700
I 	I 	0.03653 0.27546 0.95350 -0.35800
I 	I 	0.13779 0.79666 0.00500 -0.38700
I 	I 	0.75133 0.03946 0.74480 -0.34700
I 	I 	0.65244 0.61008 0.58054 -0.35200
I 	I 	0.93959 0.35878 0.84068 -0.37500
I 	I 	0.23893 0.27546 0.45350 -0.36500
I 	I 	0.65887 0.79666 0.50500 -0.38400
I 	I 	0.95764 0.61008 0.08054 -0.35600
N 	N 	0.58520 0.84940 0.76930 -0.26900
N 	N 	0.95250 0.00620 0.22040 -0.11600
N 	N 	0.46960 0.64500 0.85990 -0.13700
N 	N 	0.83060 0.03860 0.26040 -0.11800
N 	N 	0.83170 0.70100 0.50020 -0.27100
N 	N 	0.21760 0.40860 0.39190 -0.28100
N 	N 	0.53620 0.61280 0.91760 -0.14900
N 	N 	0.17540 0.64500 0.35990 -0.13700
N 	N 	0.95890 0.79960 0.09120 -0.27500
N 	N 	0.86930 0.70100 0.00020 -0.28400
N 	N 	0.05370 0.00620 0.72040 -0.11600
N 	N 	0.08360 0.23900 0.83530 -0.28500
N 	N 	0.14510 0.93300 0.69900 -0.13100
N 	N 	0.08180 0.71740 0.38530 -0.13300
N 	N 	0.15540 0.23900 0.33530 -0.28600
N 	N 	0.26420 0.84940 0.26930 -0.26800
N 	N 	0.47730 0.93880 0.72790 -0.28900
N 	N 	0.19100 0.40860 0.89190 -0.28100
N 	N 	0.63560 0.71740 0.88530 -0.13200
N 	N 	0.20800 0.03860 0.76040 -0.11800
N 	N 	0.78790 0.93300 0.19900 -0.13100
N 	N 	0.84070 0.79960 0.59120 -0.27400
N 	N 	0.07660 0.61280 0.41760 -0.15000
N 	N 	0.46150 0.93880 0.22790 -0.28900
