data_crystal

_cell_length_a 23.14150
_cell_length_b 23.14150
_cell_length_c 15.14630
_cell_angle_alpha 90.00000
_cell_angle_beta  90.00000
_cell_angle_gamma 120.00000

_symmetry_space_group_name_	'P 1'
_symmetry_space_group_name_H-M	'P 1'

loop_
_symmetry_equiv_pos_as_xyz
  x,y,z

loop_
_atom_site_label
_atom_site_type_symbol
_atom_site_fract_x
_atom_site_fract_y
_atom_site_fract_z
_atom_site_charge
Ag	Ag	0.04915 0.54333 0.16442 0.52200
S 	S 	0.17439 0.52070 0.71010 -0.05600
C 	C 	0.14630 0.54330 0.80420 0.01500
C 	C 	0.13130 0.50280 0.88350 -0.01600
C 	C 	0.11070 0.52600 0.96070 0.00900
C 	C 	0.11250 0.58740 0.95340 -0.03800
H 	H 	0.09820 0.60260 0.00250 0.00500
C 	C 	0.13280 0.62490 0.88200 -0.07900
C 	C 	0.14730 0.60210 0.80750 -0.04400
H 	H 	0.15860 0.62860 0.75560 0.03200
S 	S 	0.13570 0.42990 0.88490 -0.01100
C 	C 	0.21120 0.46280 0.95290 -0.17100
H 	H 	0.24040 0.51140 0.94380 0.07500
H 	H 	0.19990 0.45420 0.01640 0.07200
C 	C 	0.24590 0.42240 0.91820 0.04200
C 	C 	0.31150 0.46220 0.89010 -0.04100
H 	H 	0.33090 0.50930 0.88890 0.02400
N 	N 	0.34850 0.43290 0.86370 -0.16600
C 	C 	0.32010 0.36390 0.86550 -0.00200
H 	H 	0.34540 0.34400 0.84750 0.00500
C 	C 	0.25450 0.32420 0.89360 -0.05100
H 	H 	0.23510 0.27700 0.89480 0.02500
C 	C 	0.21750 0.35340 0.91990 -0.08300
H 	H 	0.17270 0.32620 0.93910 0.03500
C 	C 	0.13420 0.69580 0.88130 0.35000
C 	C 	0.08810 0.69350 0.80370 -0.61900
H 	H 	0.10650 0.68920 0.74740 0.19200
H 	H 	0.08590 0.73460 0.80350 0.18100
H 	H 	0.04320 0.65510 0.81160 0.18600
C 	C 	0.21020 0.75230 0.85970 -0.64100
H 	H 	0.23890 0.75670 0.90970 0.20800
H 	H 	0.21230 0.79510 0.84930 0.19700
H 	H 	0.22560 0.73950 0.80680 0.20500
C 	C 	0.09710 0.70320 0.96370 -0.63400
H 	H 	0.08070 0.73380 0.94940 0.18800
H 	H 	0.12810 0.72100 0.01360 0.20000
H 	H 	0.05940 0.65940 0.97940 0.19400
S 	S 	0.09397 0.48380 0.06120 -0.12000
C 	C 	0.01590 0.41030 0.04110 0.00100
C 	C 	0.95940 0.41290 0.02730 -0.00900
C 	C 	0.90160 0.35110 0.99560 0.00100
C 	C 	0.90360 0.29330 0.99830 -0.03200
H 	H 	0.86350 0.25320 0.98470 0.00700
C 	C 	0.95980 0.28790 0.01960 -0.12000
C 	C 	0.01730 0.35220 0.04270 -0.02700
H 	H 	0.05750 0.35360 0.05970 0.02800
S 	S 	0.94920 0.48190 0.05200 -0.08700
C 	C 	0.88360 0.44710 0.13630 -0.17800
H 	H 	0.87270 0.48220 0.15130 0.06400
H 	H 	0.84340 0.41020 0.10830 0.07900
C 	C 	0.89370 0.42220 0.21740 0.04400
C 	C 	0.91670 0.46010 0.29260 -0.04300
H 	H 	0.92550 0.50480 0.29090 0.02100
N 	N 	0.92740 0.43680 0.36910 -0.15000
C 	C 	0.92460 0.37340 0.37140 -0.01000
H 	H 	0.93510 0.35790 0.42370 0.02100
C 	C 	0.90610 0.33540 0.29440 -0.03300
H 	H 	0.90420 0.29350 0.29510 0.02100
C 	C 	0.89030 0.35590 0.21750 -0.08700
H 	H 	0.87770 0.32880 0.16610 0.05100
C 	C 	0.96180 0.22330 0.02110 0.34500
C 	C 	0.03230 0.23560 0.99500 -0.57700
H 	H 	0.02940 0.19300 0.98080 0.18100
H 	H 	0.06300 0.25630 0.04510 0.15900
H 	H 	0.04890 0.26530 0.94400 0.17300
C 	C 	0.91110 0.17290 0.95500 0.11100
H 	H 	0.93220 0.15230 0.92100 0.54100
H 	H 	0.89640 0.19600 0.91440 0.49000
H 	H 	0.87250 0.13820 0.98690 -0.05000
C 	C 	0.94260 0.19620 0.11600 -0.18100
H 	H 	0.89970 0.19230 0.13150 0.05900
H 	H 	0.97710 0.22680 0.15710 0.00800
H 	H 	0.93890 0.15210 0.11960 0.14200
C 	C 	0.94900 0.19400 0.92790 -0.44100
H 	H 	0.95420 0.15500 0.92690 -0.33900
H 	H 	0.98070 0.22800 0.88690 0.15000
H 	H 	0.90330 0.18170 0.91000 -0.49800
C 	C 	0.03580 0.24600 0.04800 -0.05700
H 	H 	0.04490 0.20960 0.03730 0.06700
H 	H 	0.04210 0.25770 0.11110 -0.01300
H 	H 	0.06650 0.28510 0.01320 0.06100
C 	C 	0.91600 0.16900 0.09000 -0.55600
H 	H 	0.92780 0.18810 0.14930 0.20900
H 	H 	0.92180 0.13050 0.08490 0.09100
H 	H 	0.86920 0.15590 0.07770 0.15200
Ag	Ag	0.45667 0.50582 0.83109 0.52300
S 	S 	0.47930 0.65369 0.37677 -0.05500
C 	C 	0.45670 0.60300 0.47087 0.01600
C 	C 	0.49720 0.62850 0.55017 -0.01500
C 	C 	0.47400 0.58470 0.62737 0.01000
C 	C 	0.41260 0.52510 0.62007 -0.03900
H 	H 	0.39740 0.49560 0.66917 0.00700
C 	C 	0.37510 0.50790 0.54867 -0.07700
C 	C 	0.39790 0.54520 0.47417 -0.04400
H 	H 	0.37140 0.53000 0.42227 0.03300
S 	S 	0.57010 0.70580 0.55157 -0.01000
C 	C 	0.53720 0.74840 0.61957 -0.17000
H 	H 	0.48860 0.72900 0.61047 0.07600
H 	H 	0.54580 0.74570 0.68307 0.07400
C 	C 	0.57760 0.82350 0.58487 0.04300
C 	C 	0.53780 0.84930 0.55677 -0.04000
H 	H 	0.49070 0.82160 0.55557 0.02500
N 	N 	0.56710 0.91560 0.53037 -0.16500
C 	C 	0.63610 0.95620 0.53217 -0.00100
H 	H 	0.65600 0.00140 0.51417 0.00600
C 	C 	0.67580 0.93030 0.56027 -0.05000
H 	H 	0.72300 0.95810 0.56147 0.02600
C 	C 	0.64660 0.86410 0.58657 -0.08200
H 	H 	0.67380 0.84650 0.60577 0.03600
C 	C 	0.30420 0.43840 0.54797 0.35000
C 	C 	0.30650 0.39460 0.47037 -0.61800
H 	H 	0.31080 0.41730 0.41407 0.19200
H 	H 	0.26540 0.35130 0.47017 0.18000
H 	H 	0.34490 0.38810 0.47827 0.18600
C 	C 	0.24770 0.45790 0.52637 -0.64100
H 	H 	0.24330 0.48220 0.57637 0.20800
H 	H 	0.20490 0.41720 0.51597 0.19700
H 	H 	0.26050 0.48610 0.47347 0.20500
C 	C 	0.29680 0.39390 0.63037 -0.63600
H 	H 	0.26620 0.34690 0.61607 0.18800
H 	H 	0.27900 0.40710 0.68027 0.20100
H 	H 	0.34060 0.40000 0.64607 0.19500
S 	S 	0.51620 0.61017 0.72787 -0.12000
C 	C 	0.58970 0.60560 0.70777 0.00200
C 	C 	0.58710 0.54650 0.69397 -0.01100
C 	C 	0.64890 0.55050 0.66227 0.00200
C 	C 	0.70670 0.61030 0.66497 -0.03100
H 	H 	0.74680 0.61030 0.65137 0.00700
C 	C 	0.71210 0.67190 0.68627 -0.12100
C 	C 	0.64780 0.66510 0.70937 -0.02600
H 	H 	0.64640 0.70390 0.72637 0.02800
S 	S 	0.51810 0.46730 0.71867 -0.08700
C 	C 	0.55290 0.43650 0.80297 -0.17800
H 	H 	0.51780 0.39050 0.81797 0.06400
H 	H 	0.58980 0.43320 0.77497 0.07900
C 	C 	0.57780 0.47150 0.88407 0.04300
C 	C 	0.53990 0.45660 0.95927 -0.04300
H 	H 	0.49520 0.42070 0.95757 0.02100
N 	N 	0.56320 0.49060 0.03577 -0.15000
C 	C 	0.62660 0.55120 0.03807 -0.01000
H 	H 	0.64210 0.57720 0.09037 0.02100
C 	C 	0.66460 0.57070 0.96107 -0.03300
H 	H 	0.70650 0.61070 0.96177 0.02100
C 	C 	0.64410 0.53440 0.88417 -0.08700
H 	H 	0.67120 0.54890 0.83277 0.05100
C 	C 	0.77670 0.73850 0.68777 0.34300
C 	C 	0.76440 0.79670 0.66167 -0.57600
H 	H 	0.80700 0.83640 0.64747 0.18000
H 	H 	0.74370 0.80670 0.71177 0.15900
H 	H 	0.73470 0.78360 0.61067 0.17300
C 	C 	0.82710 0.73820 0.62167 0.11000
H 	H 	0.84770 0.77990 0.58767 0.53900
H 	H 	0.80400 0.70040 0.58107 0.48900
H 	H 	0.86180 0.73430 0.65357 -0.04900
C 	C 	0.80380 0.74640 0.78267 -0.18000
H 	H 	0.80770 0.70740 0.79817 0.05900
H 	H 	0.77320 0.75030 0.82377 0.00800
H 	H 	0.84790 0.78680 0.78627 0.14100
C 	C 	0.80600 0.75500 0.59457 -0.44000
H 	H 	0.84500 0.79920 0.59357 -0.33700
H 	H 	0.77200 0.75270 0.55357 0.15000
H 	H 	0.81830 0.72160 0.57667 -0.49600
C 	C 	0.75400 0.78980 0.71467 -0.05800
H 	H 	0.79040 0.83530 0.70397 0.06700
H 	H 	0.74230 0.78440 0.77777 -0.01200
H 	H 	0.71490 0.78140 0.67987 0.06200
C 	C 	0.83100 0.74700 0.75667 -0.55500
H 	H 	0.81190 0.73970 0.81597 0.20900
H 	H 	0.86950 0.79130 0.75157 0.09100
H 	H 	0.84410 0.71330 0.74437 0.15200
Ag	Ag	0.49418 0.95085 0.49775 0.52300
S 	S 	0.34631 0.82561 0.04343 -0.05600
C 	C 	0.39700 0.85370 0.13753 0.01600
C 	C 	0.37150 0.86870 0.21683 -0.01500
C 	C 	0.41530 0.88930 0.29403 0.01000
C 	C 	0.47490 0.88750 0.28673 -0.03900
H 	H 	0.50440 0.90180 0.33583 0.00700
C 	C 	0.49210 0.86720 0.21533 -0.07700
C 	C 	0.45480 0.85270 0.14083 -0.04400
H 	H 	0.47000 0.84140 0.08893 0.03300
S 	S 	0.29420 0.86430 0.21823 -0.01000
C 	C 	0.25160 0.78880 0.28623 -0.17000
H 	H 	0.27100 0.75960 0.27713 0.07600
H 	H 	0.25430 0.80010 0.34973 0.07400
C 	C 	0.17650 0.75410 0.25153 0.04300
C 	C 	0.15070 0.68850 0.22343 -0.04000
H 	H 	0.17840 0.66910 0.22223 0.02500
N 	N 	0.08440 0.65150 0.19703 -0.16500
C 	C 	0.04380 0.67990 0.19883 -0.00200
H 	H 	0.99860 0.65460 0.18083 0.00700
C 	C 	0.06970 0.74550 0.22693 -0.04900
H 	H 	0.04190 0.76490 0.22813 0.02600
C 	C 	0.13590 0.78250 0.25323 -0.08200
H 	H 	0.15350 0.82730 0.27243 0.03700
C 	C 	0.56160 0.86580 0.21463 0.35000
C 	C 	0.60540 0.91190 0.13703 -0.61800
H 	H 	0.58270 0.89350 0.08073 0.19200
H 	H 	0.64870 0.91410 0.13683 0.18000
H 	H 	0.61190 0.95680 0.14493 0.18500
C 	C 	0.54210 0.78980 0.19303 -0.64100
H 	H 	0.51780 0.76110 0.24303 0.20800
H 	H 	0.58280 0.78770 0.18263 0.19700
H 	H 	0.51390 0.77440 0.14013 0.20400
C 	C 	0.60610 0.90290 0.29703 -0.63600
H 	H 	0.65310 0.91930 0.28273 0.18800
H 	H 	0.59290 0.87190 0.34693 0.20100
H 	H 	0.60000 0.94060 0.31273 0.19500
S 	S 	0.38983 0.90603 0.39453 -0.12000
C 	C 	0.39440 0.98410 0.37443 0.00200
C 	C 	0.45350 0.04060 0.36063 -0.01100
C 	C 	0.44950 0.09840 0.32893 0.00200
C 	C 	0.38970 0.09640 0.33163 -0.03100
H 	H 	0.38970 0.13650 0.31803 0.00700
C 	C 	0.32810 0.04020 0.35293 -0.12100
C 	C 	0.33490 0.98270 0.37603 -0.02700
H 	H 	0.29610 0.94250 0.39303 0.02800
S 	S 	0.53270 0.05080 0.38533 -0.08700
C 	C 	0.56350 0.11640 0.46963 -0.17800
H 	H 	0.60950 0.12730 0.48463 0.06400
H 	H 	0.56680 0.15660 0.44163 0.07900
C 	C 	0.52850 0.10630 0.55073 0.04300
C 	C 	0.54340 0.08330 0.62593 -0.04300
H 	H 	0.57930 0.07450 0.62423 0.02100
N 	N 	0.50940 0.07260 0.70243 -0.15000
C 	C 	0.44880 0.07540 0.70473 -0.01000
H 	H 	0.42280 0.06490 0.75703 0.02100
C 	C 	0.42930 0.09390 0.62773 -0.03300
H 	H 	0.38930 0.09580 0.62843 0.02100
C 	C 	0.46560 0.10970 0.55083 -0.08700
H 	H 	0.45110 0.12230 0.49943 0.05100
C 	C 	0.26150 0.03820 0.35443 0.34400
C 	C 	0.20330 0.96770 0.32833 -0.57600
H 	H 	0.16360 0.97060 0.31413 0.18000
H 	H 	0.19330 0.93700 0.37843 0.15900
H 	H 	0.21640 0.95110 0.27733 0.17300
C 	C 	0.26180 0.08890 0.28833 0.11000
H 	H 	0.22010 0.06780 0.25433 0.53900
H 	H 	0.29960 0.10360 0.24773 0.48900
H 	H 	0.26570 0.12750 0.32023 -0.04900
C 	C 	0.25360 0.05740 0.44933 -0.18000
H 	H 	0.29260 0.10030 0.46483 0.05900
H 	H 	0.24970 0.02290 0.49043 0.00800
H 	H 	0.21320 0.06110 0.45293 0.14100
C 	C 	0.24500 0.05100 0.26123 -0.43900
H 	H 	0.20080 0.04580 0.26023 -0.33700
H 	H 	0.24730 0.01930 0.22023 0.15000
H 	H 	0.27840 0.09670 0.24333 -0.49600
C 	C 	0.21020 0.96420 0.38133 -0.05800
H 	H 	0.16470 0.95510 0.37063 0.06700
H 	H 	0.21560 0.95790 0.44443 -0.01200
H 	H 	0.21860 0.93350 0.34653 0.06200
C 	C 	0.25300 0.08400 0.42333 -0.55600
H 	H 	0.26030 0.07220 0.48263 0.20900
H 	H 	0.20870 0.07820 0.41823 0.09100
H 	H 	0.28670 0.13080 0.41103 0.15200
Ag	Ag	0.54333 0.04915 0.83558 0.52300
S 	S 	0.52070 0.17439 0.28990 -0.05500
C 	C 	0.54330 0.14630 0.19580 0.01600
C 	C 	0.50280 0.13130 0.11650 -0.01500
C 	C 	0.52600 0.11070 0.03930 0.01000
C 	C 	0.58740 0.11250 0.04660 -0.03700
H 	H 	0.60260 0.09820 0.99750 0.00600
C 	C 	0.62490 0.13280 0.11800 -0.07800
C 	C 	0.60210 0.14730 0.19250 -0.04300
H 	H 	0.62860 0.15860 0.24440 0.03300
S 	S 	0.42990 0.13570 0.11510 -0.01000
C 	C 	0.46280 0.21120 0.04710 -0.17000
H 	H 	0.51140 0.24040 0.05620 0.07600
H 	H 	0.45420 0.19990 0.98360 0.07300
C 	C 	0.42240 0.24590 0.08180 0.04300
C 	C 	0.46220 0.31150 0.10990 -0.04000
H 	H 	0.50930 0.33090 0.11110 0.02500
N 	N 	0.43290 0.34850 0.13630 -0.16500
C 	C 	0.36390 0.32010 0.13450 -0.00100
H 	H 	0.34400 0.34540 0.15250 0.00600
C 	C 	0.32420 0.25450 0.10640 -0.05000
H 	H 	0.27700 0.23510 0.10520 0.02600
C 	C 	0.35340 0.21750 0.08010 -0.08200
H 	H 	0.32620 0.17270 0.06090 0.03600
C 	C 	0.69580 0.13420 0.11870 0.35000
C 	C 	0.69350 0.08810 0.19630 -0.61900
H 	H 	0.68920 0.10650 0.25260 0.19200
H 	H 	0.73460 0.08590 0.19650 0.18100
H 	H 	0.65510 0.04320 0.18840 0.18600
C 	C 	0.75230 0.21020 0.14030 -0.64100
H 	H 	0.75670 0.23890 0.09030 0.20800
H 	H 	0.79510 0.21230 0.15070 0.19700
H 	H 	0.73950 0.22560 0.19320 0.20500
C 	C 	0.70320 0.09710 0.03630 -0.63400
H 	H 	0.73380 0.08070 0.05060 0.18800
H 	H 	0.72100 0.12810 0.98640 0.20000
H 	H 	0.65940 0.05940 0.02060 0.19400
S 	S 	0.48380 0.09397 0.93880 -0.12000
C 	C 	0.41030 0.01590 0.95890 0.00100
C 	C 	0.41290 0.95940 0.97270 -0.00900
C 	C 	0.35110 0.90160 0.00440 0.00100
C 	C 	0.29330 0.90360 0.00170 -0.03200
H 	H 	0.25320 0.86350 0.01530 0.00700
C 	C 	0.28790 0.95980 0.98040 -0.12000
C 	C 	0.35220 0.01730 0.95730 -0.02700
H 	H 	0.35360 0.05750 0.94030 0.02800
S 	S 	0.48190 0.94920 0.94800 -0.08700
C 	C 	0.44710 0.88360 0.86370 -0.17800
H 	H 	0.48220 0.87270 0.84870 0.06400
H 	H 	0.41020 0.84340 0.89170 0.07900
C 	C 	0.42220 0.89370 0.78260 0.04400
C 	C 	0.46010 0.91670 0.70740 -0.04300
H 	H 	0.50480 0.92550 0.70910 0.02100
N 	N 	0.43680 0.92740 0.63090 -0.15000
C 	C 	0.37340 0.92460 0.62860 -0.01000
H 	H 	0.35790 0.93510 0.57630 0.02100
C 	C 	0.33540 0.90610 0.70560 -0.03300
H 	H 	0.29350 0.90420 0.70490 0.02100
C 	C 	0.35590 0.89030 0.78250 -0.08700
H 	H 	0.32880 0.87770 0.83390 0.05100
C 	C 	0.22330 0.96180 0.97890 0.34500
C 	C 	0.23560 0.03230 0.00500 -0.57700
H 	H 	0.19300 0.02940 0.01920 0.18100
H 	H 	0.25630 0.06300 0.95490 0.15900
H 	H 	0.26530 0.04890 0.05600 0.17300
C 	C 	0.17290 0.91110 0.04500 0.11100
H 	H 	0.15230 0.93220 0.07900 0.54100
H 	H 	0.19600 0.89640 0.08560 0.49000
H 	H 	0.13820 0.87250 0.01310 -0.05000
C 	C 	0.19620 0.94260 0.88400 -0.18100
H 	H 	0.19230 0.89970 0.86850 0.05900
H 	H 	0.22680 0.97710 0.84290 0.00800
H 	H 	0.15210 0.93890 0.88040 0.14200
C 	C 	0.19400 0.94900 0.07210 -0.44100
H 	H 	0.15500 0.95420 0.07310 -0.33900
H 	H 	0.22800 0.98070 0.11310 0.15000
H 	H 	0.18170 0.90330 0.09000 -0.49800
C 	C 	0.24600 0.03580 0.95200 -0.05700
H 	H 	0.20960 0.04490 0.96270 0.06700
H 	H 	0.25770 0.04210 0.88890 -0.01300
H 	H 	0.28510 0.06650 0.98680 0.06100
C 	C 	0.16900 0.91600 0.91000 -0.55600
H 	H 	0.18810 0.92780 0.85070 0.20900
H 	H 	0.13050 0.92180 0.91510 0.09100
H 	H 	0.15590 0.86920 0.92230 0.15200
Ag	Ag	0.50582 0.45667 0.16891 0.52300
S 	S 	0.65369 0.47930 0.62323 -0.05500
C 	C 	0.60300 0.45670 0.52913 0.01600
C 	C 	0.62850 0.49720 0.44983 -0.01500
C 	C 	0.58470 0.47400 0.37263 0.01000
C 	C 	0.52510 0.41260 0.37993 -0.03900
H 	H 	0.49560 0.39740 0.33083 0.00700
C 	C 	0.50790 0.37510 0.45133 -0.07700
C 	C 	0.54520 0.39790 0.52583 -0.04400
H 	H 	0.53000 0.37140 0.57773 0.03300
S 	S 	0.70580 0.57010 0.44843 -0.01000
C 	C 	0.74840 0.53720 0.38043 -0.17000
H 	H 	0.72900 0.48860 0.38953 0.07600
H 	H 	0.74570 0.54580 0.31693 0.07400
C 	C 	0.82350 0.57760 0.41513 0.04300
C 	C 	0.84930 0.53780 0.44323 -0.04000
H 	H 	0.82160 0.49070 0.44443 0.02500
N 	N 	0.91560 0.56710 0.46963 -0.16500
C 	C 	0.95620 0.63610 0.46783 -0.00100
H 	H 	0.00140 0.65600 0.48583 0.00600
C 	C 	0.93030 0.67580 0.43973 -0.05000
H 	H 	0.95810 0.72300 0.43853 0.02600
C 	C 	0.86410 0.64660 0.41343 -0.08200
H 	H 	0.84650 0.67380 0.39423 0.03600
C 	C 	0.43840 0.30420 0.45203 0.35000
C 	C 	0.39460 0.30650 0.52963 -0.61800
H 	H 	0.41730 0.31080 0.58593 0.19200
H 	H 	0.35130 0.26540 0.52983 0.18000
H 	H 	0.38810 0.34490 0.52173 0.18600
C 	C 	0.45790 0.24770 0.47363 -0.64100
H 	H 	0.48220 0.24330 0.42363 0.20800
H 	H 	0.41720 0.20490 0.48403 0.19700
H 	H 	0.48610 0.26050 0.52653 0.20500
C 	C 	0.39390 0.29680 0.36963 -0.63600
H 	H 	0.34690 0.26620 0.38393 0.18800
H 	H 	0.40710 0.27900 0.31973 0.20100
H 	H 	0.40000 0.34060 0.35393 0.19500
S 	S 	0.61017 0.51620 0.27213 -0.12000
C 	C 	0.60560 0.58970 0.29223 0.00200
C 	C 	0.54650 0.58710 0.30603 -0.01100
C 	C 	0.55050 0.64890 0.33773 0.00200
C 	C 	0.61030 0.70670 0.33503 -0.03100
H 	H 	0.61030 0.74680 0.34863 0.00700
C 	C 	0.67190 0.71210 0.31373 -0.12100
C 	C 	0.66510 0.64780 0.29063 -0.02600
H 	H 	0.70390 0.64640 0.27363 0.02800
S 	S 	0.46730 0.51810 0.28133 -0.08700
C 	C 	0.43650 0.55290 0.19703 -0.17800
H 	H 	0.39050 0.51780 0.18203 0.06400
H 	H 	0.43320 0.58980 0.22503 0.07900
C 	C 	0.47150 0.57780 0.11593 0.04300
C 	C 	0.45660 0.53990 0.04073 -0.04300
H 	H 	0.42070 0.49520 0.04243 0.02100
N 	N 	0.49060 0.56320 0.96423 -0.15000
C 	C 	0.55120 0.62660 0.96193 -0.01000
H 	H 	0.57720 0.64210 0.90963 0.02100
C 	C 	0.57070 0.66460 0.03893 -0.03300
H 	H 	0.61070 0.70650 0.03823 0.02100
C 	C 	0.53440 0.64410 0.11583 -0.08700
H 	H 	0.54890 0.67120 0.16723 0.05100
C 	C 	0.73850 0.77670 0.31223 0.34300
C 	C 	0.79670 0.76440 0.33833 -0.57600
H 	H 	0.83640 0.80700 0.35253 0.18000
H 	H 	0.80670 0.74370 0.28823 0.15900
H 	H 	0.78360 0.73470 0.38933 0.17300
C 	C 	0.73820 0.82710 0.37833 0.11000
H 	H 	0.77990 0.84770 0.41233 0.53900
H 	H 	0.70040 0.80400 0.41893 0.48900
H 	H 	0.73430 0.86180 0.34643 -0.04900
C 	C 	0.74640 0.80380 0.21733 -0.18000
H 	H 	0.70740 0.80770 0.20183 0.05900
H 	H 	0.75030 0.77320 0.17623 0.00800
H 	H 	0.78680 0.84790 0.21373 0.14100
C 	C 	0.75500 0.80600 0.40543 -0.44000
H 	H 	0.79920 0.84500 0.40643 -0.33700
H 	H 	0.75270 0.77200 0.44643 0.15000
H 	H 	0.72160 0.81830 0.42333 -0.49600
C 	C 	0.78980 0.75400 0.28533 -0.05800
H 	H 	0.83530 0.79040 0.29603 0.06700
H 	H 	0.78440 0.74230 0.22223 -0.01200
H 	H 	0.78140 0.71490 0.32013 0.06200
C 	C 	0.74700 0.83100 0.24333 -0.55500
H 	H 	0.73970 0.81190 0.18403 0.20900
H 	H 	0.79130 0.86950 0.24843 0.09100
H 	H 	0.71330 0.84410 0.25563 0.15200
Ag	Ag	0.95085 0.49418 0.50225 0.52300
S 	S 	0.82561 0.34631 0.95657 -0.05600
C 	C 	0.85370 0.39700 0.86247 0.01600
C 	C 	0.86870 0.37150 0.78317 -0.01500
C 	C 	0.88930 0.41530 0.70597 0.01000
C 	C 	0.88750 0.47490 0.71327 -0.03900
H 	H 	0.90180 0.50440 0.66417 0.00700
C 	C 	0.86720 0.49210 0.78467 -0.07700
C 	C 	0.85270 0.45480 0.85917 -0.04400
H 	H 	0.84140 0.47000 0.91107 0.03300
S 	S 	0.86430 0.29420 0.78177 -0.01000
C 	C 	0.78880 0.25160 0.71377 -0.17000
H 	H 	0.75960 0.27100 0.72287 0.07600
H 	H 	0.80010 0.25430 0.65027 0.07400
C 	C 	0.75410 0.17650 0.74847 0.04300
C 	C 	0.68850 0.15070 0.77657 -0.04000
H 	H 	0.66910 0.17840 0.77777 0.02500
N 	N 	0.65150 0.08440 0.80297 -0.16500
C 	C 	0.67990 0.04380 0.80117 -0.00200
H 	H 	0.65460 0.99860 0.81917 0.00700
C 	C 	0.74550 0.06970 0.77307 -0.04900
H 	H 	0.76490 0.04190 0.77187 0.02600
C 	C 	0.78250 0.13590 0.74677 -0.08200
H 	H 	0.82730 0.15350 0.72757 0.03700
C 	C 	0.86580 0.56160 0.78537 0.35000
C 	C 	0.91190 0.60540 0.86297 -0.61800
H 	H 	0.89350 0.58270 0.91927 0.19200
H 	H 	0.91410 0.64870 0.86317 0.18000
H 	H 	0.95680 0.61190 0.85507 0.18500
C 	C 	0.78980 0.54210 0.80697 -0.64100
H 	H 	0.76110 0.51780 0.75697 0.20800
H 	H 	0.78770 0.58280 0.81737 0.19700
H 	H 	0.77440 0.51390 0.85987 0.20400
C 	C 	0.90290 0.60610 0.70297 -0.63600
H 	H 	0.91930 0.65310 0.71727 0.18800
H 	H 	0.87190 0.59290 0.65307 0.20100
H 	H 	0.94060 0.60000 0.68727 0.19500
S 	S 	0.90603 0.38983 0.60547 -0.12000
C 	C 	0.98410 0.39440 0.62557 0.00200
C 	C 	0.04060 0.45350 0.63937 -0.01100
C 	C 	0.09840 0.44950 0.67107 0.00200
C 	C 	0.09640 0.38970 0.66837 -0.03100
H 	H 	0.13650 0.38970 0.68197 0.00700
C 	C 	0.04020 0.32810 0.64707 -0.12100
C 	C 	0.98270 0.33490 0.62397 -0.02700
H 	H 	0.94250 0.29610 0.60697 0.02800
S 	S 	0.05080 0.53270 0.61467 -0.08700
C 	C 	0.11640 0.56350 0.53037 -0.17800
H 	H 	0.12730 0.60950 0.51537 0.06400
H 	H 	0.15660 0.56680 0.55837 0.07900
C 	C 	0.10630 0.52850 0.44927 0.04300
C 	C 	0.08330 0.54340 0.37407 -0.04300
H 	H 	0.07450 0.57930 0.37577 0.02100
N 	N 	0.07260 0.50940 0.29757 -0.15000
C 	C 	0.07540 0.44880 0.29527 -0.01000
H 	H 	0.06490 0.42280 0.24297 0.02100
C 	C 	0.09390 0.42930 0.37227 -0.03300
H 	H 	0.09580 0.38930 0.37157 0.02100
C 	C 	0.10970 0.46560 0.44917 -0.08700
H 	H 	0.12230 0.45110 0.50057 0.05100
C 	C 	0.03820 0.26150 0.64557 0.34400
C 	C 	0.96770 0.20330 0.67167 -0.57600
H 	H 	0.97060 0.16360 0.68587 0.18000
H 	H 	0.93700 0.19330 0.62157 0.15900
H 	H 	0.95110 0.21640 0.72267 0.17300
C 	C 	0.08890 0.26180 0.71167 0.11000
H 	H 	0.06780 0.22010 0.74567 0.53900
H 	H 	0.10360 0.29960 0.75227 0.48900
H 	H 	0.12750 0.26570 0.67977 -0.04900
C 	C 	0.05740 0.25360 0.55067 -0.18000
H 	H 	0.10030 0.29260 0.53517 0.05900
H 	H 	0.02290 0.24970 0.50957 0.00800
H 	H 	0.06110 0.21320 0.54707 0.14100
C 	C 	0.05100 0.24500 0.73877 -0.43900
H 	H 	0.04580 0.20080 0.73977 -0.33700
H 	H 	0.01930 0.24730 0.77977 0.15000
H 	H 	0.09670 0.27840 0.75667 -0.49600
C 	C 	0.96420 0.21020 0.61867 -0.05800
H 	H 	0.95510 0.16470 0.62937 0.06700
H 	H 	0.95790 0.21560 0.55557 -0.01200
H 	H 	0.93350 0.21860 0.65347 0.06200
C 	C 	0.08400 0.25300 0.57667 -0.55600
H 	H 	0.07220 0.26030 0.51737 0.20900
H 	H 	0.07820 0.20870 0.58177 0.09100
H 	H 	0.13080 0.28670 0.58897 0.15200
