data_crystal

_cell_length_a 15.95200
_cell_length_b 15.95200
_cell_length_c 15.95200
_cell_angle_alpha 90.00000
_cell_angle_beta  90.00000
_cell_angle_gamma 90.00000

_symmetry_space_group_name_	'P 1'
_symmetry_space_group_name_H-M	'P 1'

loop_
_symmetry_equiv_pos_as_xyz
  x,y,z

loop_
_atom_site_label
_atom_site_type_symbol
_atom_site_fract_x
_atom_site_fract_y
_atom_site_fract_z
_atom_site_charge
O 	O 	0.14000 0.11650 0.25450 -0.37800
O 	O 	0.13670 0.01480 0.35020 -0.22400
O 	O 	0.13600 0.00840 0.13190 -0.37500
O 	O 	0.14020 0.90020 0.21970 -0.22300
C 	C 	0.13890 0.04010 0.27820 0.24000
C 	C 	0.13850 0.97480 0.20460 0.23600
O 	O 	0.36000 0.88350 0.75450 -0.37700
O 	O 	0.36330 0.98520 0.85020 -0.22300
O 	O 	0.36400 0.99160 0.63190 -0.37600
O 	O 	0.35980 0.09980 0.71970 -0.22300
C 	C 	0.36110 0.95990 0.77820 0.23900
C 	C 	0.36150 0.02520 0.70460 0.23800
O 	O 	0.86000 0.61650 0.24550 -0.37700
O 	O 	0.86330 0.51480 0.14980 -0.22400
O 	O 	0.86400 0.50840 0.36810 -0.37700
O 	O 	0.85980 0.40020 0.28030 -0.22300
C 	C 	0.86110 0.54010 0.22180 0.23800
C 	C 	0.86150 0.47480 0.29540 0.23900
O 	O 	0.64000 0.38350 0.74550 -0.37700
O 	O 	0.63670 0.48520 0.64980 -0.22400
O 	O 	0.63600 0.49160 0.86810 -0.37700
O 	O 	0.64020 0.59980 0.78030 -0.22300
C 	C 	0.63890 0.45990 0.72180 0.23800
C 	C 	0.63850 0.52520 0.79540 0.23900
O 	O 	0.25450 0.14000 0.11650 -0.37700
O 	O 	0.35020 0.13670 0.01480 -0.22400
O 	O 	0.13190 0.13600 0.00840 -0.37500
O 	O 	0.21970 0.14020 0.90020 -0.22300
C 	C 	0.27820 0.13890 0.04010 0.24000
C 	C 	0.20460 0.13850 0.97480 0.23600
O 	O 	0.75450 0.36000 0.88350 -0.37700
O 	O 	0.85020 0.36330 0.98520 -0.22300
O 	O 	0.63190 0.36400 0.99160 -0.37600
O 	O 	0.71970 0.35980 0.09980 -0.22300
C 	C 	0.77820 0.36110 0.95990 0.23900
C 	C 	0.70460 0.36150 0.02520 0.23800
O 	O 	0.24550 0.86000 0.61650 -0.37700
O 	O 	0.14980 0.86330 0.51480 -0.22400
O 	O 	0.36810 0.86400 0.50840 -0.37700
O 	O 	0.28030 0.85980 0.40020 -0.22300
C 	C 	0.22180 0.86110 0.54010 0.23800
C 	C 	0.29540 0.86150 0.47480 0.23900
O 	O 	0.74550 0.64000 0.38350 -0.37700
O 	O 	0.64980 0.63670 0.48520 -0.22400
O 	O 	0.86810 0.63600 0.49160 -0.37700
O 	O 	0.78030 0.64020 0.59980 -0.22300
C 	C 	0.72180 0.63890 0.45990 0.23800
C 	C 	0.79540 0.63850 0.52520 0.23900
O 	O 	0.11650 0.25450 0.14000 -0.37700
O 	O 	0.01480 0.35020 0.13670 -0.22400
O 	O 	0.00840 0.13190 0.13600 -0.37500
O 	O 	0.90020 0.21970 0.14020 -0.22300
C 	C 	0.04010 0.27820 0.13890 0.24000
C 	C 	0.97480 0.20460 0.13850 0.23600
O 	O 	0.88350 0.75450 0.36000 -0.37700
O 	O 	0.98520 0.85020 0.36330 -0.22300
O 	O 	0.99160 0.63190 0.36400 -0.37600
O 	O 	0.09980 0.71970 0.35980 -0.22300
C 	C 	0.95990 0.77820 0.36110 0.23900
C 	C 	0.02520 0.70460 0.36150 0.23800
O 	O 	0.61650 0.24550 0.86000 -0.37700
O 	O 	0.51480 0.14980 0.86330 -0.22400
O 	O 	0.50840 0.36810 0.86400 -0.37700
O 	O 	0.40020 0.28030 0.85980 -0.22300
C 	C 	0.54010 0.22180 0.86110 0.23800
C 	C 	0.47480 0.29540 0.86150 0.23900
O 	O 	0.38350 0.74550 0.64000 -0.37700
O 	O 	0.48520 0.64980 0.63670 -0.22400
O 	O 	0.49160 0.86810 0.63600 -0.37700
O 	O 	0.59980 0.78030 0.64020 -0.22300
C 	C 	0.45990 0.72180 0.63890 0.23800
C 	C 	0.52520 0.79540 0.63850 0.23900
Cr	Cr	0.13195 0.13195 0.13195 1.56900
Cr	Cr	0.36805 0.86805 0.63195 1.56900
Cr	Cr	0.86805 0.63195 0.36805 1.56900
Cr	Cr	0.63195 0.36805 0.86805 1.56900
Na	Na	0.13370 0.86630 0.36630 0.60100
Na	Na	0.36630 0.13370 0.86630 0.60100
Na	Na	0.86630 0.36630 0.13370 0.60100
Na	Na	0.63370 0.63370 0.63370 0.60100
