data_crystal

_cell_length_a 13.40030
_cell_length_b 13.40030
_cell_length_c 24.36690
_cell_angle_alpha 90.00000
_cell_angle_beta  90.00000
_cell_angle_gamma 90.00000

_symmetry_space_group_name_	'P 1'
_symmetry_space_group_name_H-M	'P 1'

loop_
_symmetry_equiv_pos_as_xyz
  x,y,z

loop_
_atom_site_label
_atom_site_type_symbol
_atom_site_fract_x
_atom_site_fract_y
_atom_site_fract_z
_atom_site_charge
Cd	Cd	0.88472 0.42743 0.15551 1.23400
O 	O 	0.72530 0.42210 0.20310 -0.38600
O 	O 	0.86550 0.40420 0.25000 -0.39800
O 	O 	0.69250 0.08080 0.38540 -0.38900
O 	O 	0.55840 0.08690 0.33240 -0.53400
O 	O 	0.84390 0.27320 0.12380 -0.40900
O 	O 	0.92060 0.36840 0.06570 -0.37900
C 	C 	0.71550 0.37620 0.29750 -0.16400
C 	C 	0.66900 0.27400 0.29350 0.69800
C 	C 	0.63880 0.24460 0.35080 -0.46600
H 	H 	0.57240 0.27240 0.35800 0.16300
C 	C 	0.71130 0.29350 0.38920 0.11600
H 	H 	0.75390 0.24480 0.40700 0.01000
H 	H 	0.67710 0.33260 0.41700 -0.00500
C 	C 	0.77050 0.36000 0.35010 -0.17000
H 	H 	0.78300 0.42390 0.36750 0.08900
H 	H 	0.83440 0.32910 0.34240 0.08100
C 	C 	0.62520 0.44190 0.30050 -0.32500
H 	H 	0.64570 0.51040 0.30280 0.11900
H 	H 	0.58680 0.42490 0.33250 0.11000
H 	H 	0.58510 0.43230 0.26830 0.10800
C 	C 	0.58060 0.25900 0.25610 -1.15500
H 	H 	0.60140 0.26640 0.21860 0.37600
H 	H 	0.53040 0.30800 0.26440 0.35400
H 	H 	0.55380 0.19340 0.26150 0.37800
C 	C 	0.73330 0.19670 0.26740 -1.17900
H 	H 	0.75270 0.21870 0.23140 0.37300
H 	H 	0.69680 0.13530 0.26450 0.38200
H 	H 	0.79170 0.18630 0.28940 0.37900
C 	C 	0.76950 0.40380 0.24650 0.30200
C 	C 	0.63380 0.13050 0.36000 0.41200
C 	C 	0.88930 0.19750 0.03560 -0.08000
C 	C 	0.89400 0.09480 0.06260 -0.00400
C 	C 	0.88710 0.28910 0.07810 0.32200
C 	C 	0.78250 0.17740 0.01580 0.03200
C 	C 	0.95520 0.21900 0.98560 0.01600
C 	C 	0.72500 0.11400 0.05700 -0.01300
Cd	Cd	0.11528 0.57257 0.15551 1.23500
O 	O 	0.27470 0.57790 0.20310 -0.38500
O 	O 	0.13450 0.59580 0.25000 -0.39700
O 	O 	0.30750 0.91920 0.38540 -0.38800
O 	O 	0.44160 0.91310 0.33240 -0.53300
O 	O 	0.15610 0.72680 0.12380 -0.40800
O 	O 	0.07940 0.63160 0.06570 -0.37800
C 	C 	0.28450 0.62380 0.29750 -0.16300
C 	C 	0.33100 0.72600 0.29350 0.69900
C 	C 	0.36120 0.75540 0.35080 -0.46500
H 	H 	0.42760 0.72760 0.35800 0.16400
C 	C 	0.28870 0.70650 0.38920 0.11700
H 	H 	0.24610 0.75520 0.40700 0.01000
H 	H 	0.32290 0.66740 0.41700 -0.00500
C 	C 	0.22950 0.64000 0.35010 -0.17000
H 	H 	0.21700 0.57610 0.36750 0.08900
H 	H 	0.16560 0.67090 0.34240 0.08100
C 	C 	0.37480 0.55810 0.30050 -0.32500
H 	H 	0.35430 0.48960 0.30280 0.11900
H 	H 	0.41320 0.57510 0.33250 0.11000
H 	H 	0.41490 0.56770 0.26830 0.10800
C 	C 	0.41940 0.74100 0.25610 -1.15500
H 	H 	0.39860 0.73360 0.21860 0.37600
H 	H 	0.46960 0.69200 0.26440 0.35400
H 	H 	0.44620 0.80660 0.26150 0.37800
C 	C 	0.26670 0.80330 0.26740 -1.17900
H 	H 	0.24730 0.78130 0.23140 0.37300
H 	H 	0.30320 0.86470 0.26450 0.38200
H 	H 	0.20830 0.81370 0.28940 0.37900
C 	C 	0.23050 0.59620 0.24650 0.30200
C 	C 	0.36620 0.86950 0.36000 0.41200
C 	C 	0.11070 0.80250 0.03560 -0.08000
C 	C 	0.10600 0.90520 0.06260 -0.00400
C 	C 	0.11290 0.71090 0.07810 0.32200
C 	C 	0.21750 0.82260 0.01580 0.03200
C 	C 	0.04480 0.78100 0.98560 0.01600
C 	C 	0.27500 0.88600 0.05700 -0.01300
Cd	Cd	0.07257 0.38472 0.65551 1.23500
O 	O 	0.07790 0.22530 0.70310 -0.38500
O 	O 	0.09580 0.36550 0.75000 -0.39700
O 	O 	0.41920 0.19250 0.88540 -0.38800
O 	O 	0.41310 0.05840 0.83240 -0.53300
O 	O 	0.22680 0.34390 0.62380 -0.40800
O 	O 	0.13160 0.42060 0.56570 -0.37800
C 	C 	0.12380 0.21550 0.79750 -0.16300
C 	C 	0.22600 0.16900 0.79350 0.69900
C 	C 	0.25540 0.13880 0.85080 -0.46500
H 	H 	0.22760 0.07240 0.85800 0.16400
C 	C 	0.20650 0.21130 0.88920 0.11700
H 	H 	0.25520 0.25390 0.90700 0.00900
H 	H 	0.16740 0.17710 0.91700 -0.00500
C 	C 	0.14000 0.27050 0.85010 -0.17000
H 	H 	0.07610 0.28300 0.86750 0.08900
H 	H 	0.17090 0.33440 0.84240 0.08100
C 	C 	0.05810 0.12520 0.80050 -0.32500
H 	H 	0.98960 0.14570 0.80280 0.11900
H 	H 	0.07510 0.08680 0.83250 0.11000
H 	H 	0.06770 0.08510 0.76830 0.10800
C 	C 	0.24100 0.08060 0.75610 -1.15500
H 	H 	0.23360 0.10140 0.71860 0.37600
H 	H 	0.19200 0.03040 0.76440 0.35400
H 	H 	0.30660 0.05380 0.76150 0.37800
C 	C 	0.30330 0.23330 0.76740 -1.17900
H 	H 	0.28130 0.25270 0.73140 0.37300
H 	H 	0.36470 0.19680 0.76450 0.38200
H 	H 	0.31370 0.29170 0.78940 0.37900
C 	C 	0.09620 0.26950 0.74650 0.30200
C 	C 	0.36950 0.13380 0.86000 0.41200
C 	C 	0.30250 0.38930 0.53560 -0.08000
C 	C 	0.40520 0.39400 0.56260 -0.00400
C 	C 	0.21090 0.38710 0.57810 0.32200
C 	C 	0.32260 0.28250 0.51580 0.03100
C 	C 	0.28100 0.45520 0.48560 0.01700
C 	C 	0.38600 0.22500 0.55700 -0.01300
Cd	Cd	0.92743 0.61528 0.65551 1.23500
O 	O 	0.92210 0.77470 0.70310 -0.38500
O 	O 	0.90420 0.63450 0.75000 -0.39700
O 	O 	0.58080 0.80750 0.88540 -0.38800
O 	O 	0.58690 0.94160 0.83240 -0.53300
O 	O 	0.77320 0.65610 0.62380 -0.40800
O 	O 	0.86840 0.57940 0.56570 -0.37800
C 	C 	0.87620 0.78450 0.79750 -0.16300
C 	C 	0.77400 0.83100 0.79350 0.69900
C 	C 	0.74460 0.86120 0.85080 -0.46500
H 	H 	0.77240 0.92760 0.85800 0.16400
C 	C 	0.79350 0.78870 0.88920 0.11700
H 	H 	0.74480 0.74610 0.90700 0.00900
H 	H 	0.83260 0.82290 0.91700 -0.00500
C 	C 	0.86000 0.72950 0.85010 -0.17000
H 	H 	0.92390 0.71700 0.86750 0.08900
H 	H 	0.82910 0.66560 0.84240 0.08100
C 	C 	0.94190 0.87480 0.80050 -0.32500
H 	H 	0.01040 0.85430 0.80280 0.11900
H 	H 	0.92490 0.91320 0.83250 0.11000
H 	H 	0.93230 0.91490 0.76830 0.10800
C 	C 	0.75900 0.91940 0.75610 -1.15500
H 	H 	0.76640 0.89860 0.71860 0.37600
H 	H 	0.80800 0.96960 0.76440 0.35400
H 	H 	0.69340 0.94620 0.76150 0.37800
C 	C 	0.69670 0.76670 0.76740 -1.17900
H 	H 	0.71870 0.74730 0.73140 0.37300
H 	H 	0.63530 0.80320 0.76450 0.38200
H 	H 	0.68630 0.70830 0.78940 0.37900
C 	C 	0.90380 0.73050 0.74650 0.30200
C 	C 	0.63050 0.86620 0.86000 0.41200
C 	C 	0.69750 0.61070 0.53560 -0.08000
C 	C 	0.59480 0.60600 0.56260 -0.00400
C 	C 	0.78910 0.61290 0.57810 0.32200
C 	C 	0.67740 0.71750 0.51580 0.03100
C 	C 	0.71900 0.54480 0.48560 0.01700
C 	C 	0.61400 0.77500 0.55700 -0.01300
Cd	Cd	0.61528 0.92743 0.34449 1.23500
O 	O 	0.77470 0.92210 0.29690 -0.38500
O 	O 	0.63450 0.90420 0.25000 -0.39700
O 	O 	0.80750 0.58080 0.11460 -0.38800
O 	O 	0.94160 0.58690 0.16760 -0.53300
O 	O 	0.65610 0.77320 0.37620 -0.40800
O 	O 	0.57940 0.86840 0.43430 -0.37800
C 	C 	0.78450 0.87620 0.20250 -0.16300
C 	C 	0.83100 0.77400 0.20650 0.69900
C 	C 	0.86120 0.74460 0.14920 -0.46500
H 	H 	0.92760 0.77240 0.14200 0.16400
C 	C 	0.78870 0.79350 0.11080 0.11700
H 	H 	0.74610 0.74480 0.09300 0.01000
H 	H 	0.82290 0.83260 0.08300 -0.00500
C 	C 	0.72950 0.86000 0.14990 -0.17000
H 	H 	0.71700 0.92390 0.13250 0.08900
H 	H 	0.66560 0.82910 0.15760 0.08100
C 	C 	0.87480 0.94190 0.19950 -0.32500
H 	H 	0.85430 0.01040 0.19720 0.12000
H 	H 	0.91320 0.92490 0.16750 0.11100
H 	H 	0.91490 0.93230 0.23170 0.10800
C 	C 	0.91940 0.75900 0.24390 -1.15500
H 	H 	0.89860 0.76640 0.28140 0.37600
H 	H 	0.96960 0.80800 0.23560 0.35400
H 	H 	0.94620 0.69340 0.23850 0.37800
C 	C 	0.76670 0.69670 0.23260 -1.17900
H 	H 	0.74730 0.71870 0.26860 0.37300
H 	H 	0.80320 0.63530 0.23550 0.38200
H 	H 	0.70830 0.68630 0.21060 0.37900
C 	C 	0.73050 0.90380 0.25350 0.30200
C 	C 	0.86620 0.63050 0.14000 0.41200
C 	C 	0.61070 0.69750 0.46440 -0.08000
C 	C 	0.60600 0.59480 0.43740 -0.00400
C 	C 	0.61290 0.78910 0.42190 0.32200
C 	C 	0.71750 0.67740 0.48420 0.03100
C 	C 	0.54480 0.71900 0.51440 0.01700
C 	C 	0.77500 0.61400 0.44300 -0.01300
Cd	Cd	0.38472 0.07257 0.34449 1.23500
O 	O 	0.22530 0.07790 0.29690 -0.38500
O 	O 	0.36550 0.09580 0.25000 -0.39700
O 	O 	0.19250 0.41920 0.11460 -0.38800
O 	O 	0.05840 0.41310 0.16760 -0.53300
O 	O 	0.34390 0.22680 0.37620 -0.40800
O 	O 	0.42060 0.13160 0.43430 -0.37800
C 	C 	0.21550 0.12380 0.20250 -0.16300
C 	C 	0.16900 0.22600 0.20650 0.69900
C 	C 	0.13880 0.25540 0.14920 -0.46500
H 	H 	0.07240 0.22760 0.14200 0.16400
C 	C 	0.21130 0.20650 0.11080 0.11700
H 	H 	0.25390 0.25520 0.09300 0.01000
H 	H 	0.17710 0.16740 0.08300 -0.00500
C 	C 	0.27050 0.14000 0.14990 -0.17000
H 	H 	0.28300 0.07610 0.13250 0.08900
H 	H 	0.33440 0.17090 0.15760 0.08100
C 	C 	0.12520 0.05810 0.19950 -0.32500
H 	H 	0.14570 0.98960 0.19720 0.12000
H 	H 	0.08680 0.07510 0.16750 0.11100
H 	H 	0.08510 0.06770 0.23170 0.10800
C 	C 	0.08060 0.24100 0.24390 -1.15500
H 	H 	0.10140 0.23360 0.28140 0.37600
H 	H 	0.03040 0.19200 0.23560 0.35400
H 	H 	0.05380 0.30660 0.23850 0.37800
C 	C 	0.23330 0.30330 0.23260 -1.17900
H 	H 	0.25270 0.28130 0.26860 0.37300
H 	H 	0.19680 0.36470 0.23550 0.38200
H 	H 	0.29170 0.31370 0.21060 0.37900
C 	C 	0.26950 0.09620 0.25350 0.30200
C 	C 	0.13380 0.36950 0.14000 0.41200
C 	C 	0.38930 0.30250 0.46440 -0.08000
C 	C 	0.39400 0.40520 0.43740 -0.00400
C 	C 	0.38710 0.21090 0.42190 0.32200
C 	C 	0.28250 0.32260 0.48420 0.03100
C 	C 	0.45520 0.28100 0.51440 0.01700
C 	C 	0.22500 0.38600 0.44300 -0.01300
Cd	Cd	0.42743 0.88472 0.84449 1.23500
O 	O 	0.42210 0.72530 0.79690 -0.38600
O 	O 	0.40420 0.86550 0.75000 -0.39700
O 	O 	0.08080 0.69250 0.61460 -0.38800
O 	O 	0.08690 0.55840 0.66760 -0.53300
O 	O 	0.27320 0.84390 0.87620 -0.40800
O 	O 	0.36840 0.92060 0.93430 -0.37800
C 	C 	0.37620 0.71550 0.70250 -0.16300
C 	C 	0.27400 0.66900 0.70650 0.69800
C 	C 	0.24460 0.63880 0.64920 -0.46500
H 	H 	0.27240 0.57240 0.64200 0.16400
C 	C 	0.29350 0.71130 0.61080 0.11700
H 	H 	0.24480 0.75390 0.59300 0.01000
H 	H 	0.33260 0.67710 0.58300 -0.00500
C 	C 	0.36000 0.77050 0.64990 -0.17000
H 	H 	0.42390 0.78300 0.63250 0.08900
H 	H 	0.32910 0.83440 0.65760 0.08100
C 	C 	0.44190 0.62520 0.69950 -0.32500
H 	H 	0.51040 0.64570 0.69720 0.11900
H 	H 	0.42490 0.58680 0.66750 0.11000
H 	H 	0.43230 0.58510 0.73170 0.10800
C 	C 	0.25900 0.58060 0.74390 -1.15500
H 	H 	0.26640 0.60140 0.78140 0.37600
H 	H 	0.30800 0.53040 0.73560 0.35400
H 	H 	0.19340 0.55380 0.73850 0.37800
C 	C 	0.19670 0.73330 0.73260 -1.17900
H 	H 	0.21870 0.75270 0.76860 0.37300
H 	H 	0.13530 0.69680 0.73550 0.38200
H 	H 	0.18630 0.79170 0.71060 0.37900
C 	C 	0.40380 0.76950 0.75350 0.30200
C 	C 	0.13050 0.63380 0.64000 0.41200
C 	C 	0.19750 0.88930 0.96440 -0.08100
C 	C 	0.09480 0.89400 0.93740 -0.00400
C 	C 	0.28910 0.88710 0.92190 0.32200
C 	C 	0.17740 0.78250 0.98420 0.02900
C 	C 	0.21900 0.95520 0.01440 0.01700
C 	C 	0.11400 0.72500 0.94300 -0.01300
Cd	Cd	0.57257 0.11528 0.84449 1.23500
O 	O 	0.57790 0.27470 0.79690 -0.38600
O 	O 	0.59580 0.13450 0.75000 -0.39700
O 	O 	0.91920 0.30750 0.61460 -0.38800
O 	O 	0.91310 0.44160 0.66760 -0.53300
O 	O 	0.72680 0.15610 0.87620 -0.40800
O 	O 	0.63160 0.07940 0.93430 -0.37800
C 	C 	0.62380 0.28450 0.70250 -0.16300
C 	C 	0.72600 0.33100 0.70650 0.69800
C 	C 	0.75540 0.36120 0.64920 -0.46500
H 	H 	0.72760 0.42760 0.64200 0.16400
C 	C 	0.70650 0.28870 0.61080 0.11700
H 	H 	0.75520 0.24610 0.59300 0.01000
H 	H 	0.66740 0.32290 0.58300 -0.00500
C 	C 	0.64000 0.22950 0.64990 -0.17000
H 	H 	0.57610 0.21700 0.63250 0.08900
H 	H 	0.67090 0.16560 0.65760 0.08100
C 	C 	0.55810 0.37480 0.69950 -0.32500
H 	H 	0.48960 0.35430 0.69720 0.11900
H 	H 	0.57510 0.41320 0.66750 0.11000
H 	H 	0.56770 0.41490 0.73170 0.10800
C 	C 	0.74100 0.41940 0.74390 -1.15500
H 	H 	0.73360 0.39860 0.78140 0.37600
H 	H 	0.69200 0.46960 0.73560 0.35400
H 	H 	0.80660 0.44620 0.73850 0.37800
C 	C 	0.80330 0.26670 0.73260 -1.17900
H 	H 	0.78130 0.24730 0.76860 0.37300
H 	H 	0.86470 0.30320 0.73550 0.38200
H 	H 	0.81370 0.20830 0.71060 0.37900
C 	C 	0.59620 0.23050 0.75350 0.30200
C 	C 	0.86950 0.36620 0.64000 0.41200
C 	C 	0.80250 0.11070 0.96440 -0.08100
C 	C 	0.90520 0.10600 0.93740 -0.00400
C 	C 	0.71090 0.11290 0.92190 0.32200
C 	C 	0.82260 0.21750 0.98420 0.02900
C 	C 	0.78100 0.04480 0.01440 0.01700
C 	C 	0.88600 0.27500 0.94300 -0.01300
C 	C 	0.72810 0.27190 -0.00000 -0.01500
C 	C 	0.27190 0.72810 -0.00000 -0.01500
C 	C 	0.22810 0.22810 0.50000 -0.01500
C 	C 	0.77190 0.77190 0.50000 -0.01500
