data_crystal

_cell_length_a 12.03280
_cell_length_b 12.03280
_cell_length_c 12.03280
_cell_angle_alpha 109.18090
_cell_angle_beta  112.06190
_cell_angle_gamma 107.20790

_symmetry_space_group_name_	'P 1'
_symmetry_space_group_name_H-M	'P 1'

loop_
_symmetry_equiv_pos_as_xyz
  x,y,z

loop_
_atom_site_label
_atom_site_type_symbol
_atom_site_fract_x
_atom_site_fract_y
_atom_site_fract_z
_atom_site_charge
H 	H 	0.57930 0.69600 0.39030 0.16500
H 	H 	0.74700 0.82600 0.67760 -0.00200
H 	H 	0.69680 0.88880 0.58540 -0.01400
H 	H 	0.57130 0.79710 0.71260 0.04100
H 	H 	0.53010 0.87310 0.63300 0.04500
H 	H 	0.28780 0.62760 0.30600 0.07300
H 	H 	0.34430 0.77180 0.42490 0.08100
H 	H 	0.43730 0.73830 0.37180 0.07500
H 	H 	0.32330 0.39580 0.31230 0.36200
H 	H 	0.36030 0.48280 0.24630 0.35500
H 	H 	0.44840 0.41550 0.29330 0.36500
H 	H 	0.46340 0.47470 0.55690 0.34600
H 	H 	0.58920 0.48990 0.54010 0.35700
H 	H 	0.59930 0.61150 0.65260 0.35600
C 	C 	0.30310 0.58030 0.50640 0.39000
C 	C 	0.72130 0.63790 0.47200 0.51900
C 	C 	0.41990 0.66040 0.49830 -0.20500
C 	C 	0.48910 0.58110 0.45600 0.64900
C 	C 	0.61240 0.68180 0.46960 -0.44900
C 	C 	0.66910 0.81310 0.60000 0.07600
C 	C 	0.54870 0.79880 0.62710 -0.11000
C 	C 	0.36740 0.70360 0.39000 -0.23400
C 	C 	0.39670 0.45730 0.31400 -1.14900
C 	C 	0.54000 0.53490 0.56130 -1.10500
O 	O 	0.19260 0.47500 0.38360 -0.48700
O 	O 	0.31250 0.60000 0.61350 -0.49400
O 	O 	0.80800 0.65800 0.58000 -0.54400
O 	O 	0.68930 0.58580 0.35230 -0.51000
H 	H 	0.30570 0.18900 0.60970 0.15700
H 	H 	0.14840 0.06940 0.32240 -0.02700
H 	H 	0.30340 0.11140 0.41460 -0.02200
H 	H 	0.08450 0.85870 0.28740 0.02800
H 	H 	0.24010 0.89710 0.36700 0.05800
H 	H 	0.32160 0.98180 0.69400 0.11400
H 	H 	0.34690 0.91940 0.57510 0.12400
H 	H 	0.36650 0.06550 0.62820 0.12400
H 	H 	0.08350 0.01100 0.68770 0.30700
H 	H 	0.23650 0.11400 0.75370 0.31400
H 	H 	0.12220 0.15510 0.70670 0.30600
H 	H 	0.91780 0.90650 0.44310 0.31800
H 	H 	0.94980 0.04910 0.45990 0.34000
H 	H 	0.95890 0.94670 0.34740 0.33300
C 	C 	0.07390 0.79670 0.49360 0.24900
C 	C 	0.16590 0.24930 0.52800 0.51000
C 	C 	0.16210 0.92160 0.50170 -0.12400
C 	C 	0.12510 0.03310 0.54400 0.52600
C 	C 	0.21220 0.14280 0.53040 -0.42700
C 	C 	0.21310 0.06910 0.40000 0.09500
C 	C 	0.17170 0.92160 0.37290 -0.16100
C 	C 	0.31360 0.97740 0.61000 -0.36400
C 	C 	0.14330 0.08270 0.68600 -1.00800
C 	C 	0.97360 0.97870 0.43870 -0.94100
O 	O 	0.09140 0.80900 0.61640 -0.46600
O 	O 	0.98650 0.69900 0.38650 -0.37800
O 	O 	0.07800 0.22800 0.42000 -0.59600
O 	O 	0.23350 0.33700 0.64770 -0.51800
H 	H 	0.69430 0.30400 0.88330 0.17100
H 	H 	0.85160 0.17400 0.92100 0.00300
H 	H 	0.69660 0.11120 0.80800 -0.01600
H 	H 	0.91550 0.20290 0.77420 0.06800
H 	H 	0.75990 0.12690 0.65700 0.05200
H 	H 	0.67840 0.37240 0.66020 0.06300
H 	H 	0.65310 0.22820 0.57250 0.07700
H 	H 	0.63350 0.26170 0.69900 0.06200
H 	H 	0.91650 0.60420 0.92750 0.42900
H 	H 	0.76350 0.51720 0.87750 0.39900
H 	H 	0.87780 0.58450 0.03290 0.42900
H 	H 	0.08220 0.52530 0.98870 0.32200
H 	H 	0.05020 0.51010 0.09930 0.34000
H 	H 	0.04110 0.38850 0.98780 0.32500
C 	C 	0.92610 0.41970 0.72280 0.52500
C 	C 	0.83410 0.36210 0.08340 0.53200
C 	C 	0.83790 0.33960 0.75950 -0.25300
C 	C 	0.87490 0.41890 0.90800 0.74600
C 	C 	0.78780 0.31820 0.93060 -0.47900
C 	C 	0.78690 0.18690 0.85600 0.09000
C 	C 	0.82830 0.20120 0.74990 -0.09700
C 	C 	0.68640 0.29640 0.66380 -0.19500
C 	C 	0.85670 0.54270 0.93940 -1.29500
C 	C 	0.02640 0.46510 0.00510 -1.13600
O 	O 	0.90860 0.52500 0.71760 -0.46200
O 	O 	0.01350 0.40000 0.71250 -0.59300
O 	O 	0.92200 0.34200 0.15000 -0.53300
O 	O 	0.76650 0.41420 0.10350 -0.51400
H 	H 	0.42070 0.81100 0.11670 0.15500
H 	H 	0.25300 0.93060 0.07900 -0.01300
H 	H 	0.30320 0.88860 0.19200 -0.01900
H 	H 	0.42870 0.14130 0.22580 0.04100
H 	H 	0.46990 0.10290 0.34300 0.05100
H 	H 	0.71220 0.01820 0.33980 0.09400
H 	H 	0.65570 0.08060 0.42750 0.10000
H 	H 	0.56270 0.93450 0.30100 0.08000
H 	H 	0.67670 0.98900 0.07250 0.33900
H 	H 	0.63970 0.88600 0.12250 0.32800
H 	H 	0.55160 0.84490 0.96710 0.32400
H 	H 	0.53660 0.09350 0.01130 0.32100
H 	H 	0.41080 0.95090 0.90070 0.31200
H 	H 	0.40070 0.05330 0.01220 0.32800
C 	C 	0.69690 0.20330 0.27720 0.38100
C 	C 	0.27870 0.75070 0.91660 0.49700
C 	C 	0.58010 0.07840 0.24050 -0.17600
C 	C 	0.51090 0.96690 0.09200 0.58800
C 	C 	0.38760 0.85720 0.06940 -0.41300
C 	C 	0.33090 0.93090 0.14400 0.06700
C 	C 	0.45130 0.07840 0.25010 -0.11300
C 	C 	0.63260 0.02260 0.33620 -0.25600
C 	C 	0.60330 0.91730 0.06060 -1.04000
C 	C 	0.46000 0.02130 0.99490 -1.00500
O 	O 	0.80740 0.19100 0.28240 -0.43400
O 	O 	0.68750 0.30100 0.28750 -0.47500
O 	O 	0.19200 0.77200 0.85000 -0.58900
O 	O 	0.31070 0.66300 0.89650 -0.51900
Cd	Cd	-0.00000 0.33019 0.33019 1.20700
Cd	Cd	-0.00000 0.66981 0.66981 1.20400
Cd	Cd	0.17478 0.50000 0.67478 1.21000
Cd	Cd	0.82522 0.50000 0.32522 1.22200
O 	O 	-0.00000 0.50000 0.50000 -0.74300
H 	H 	0.07003 0.57003 0.50000 0.06300
