data_crystal

_cell_length_a 10.16800
_cell_length_b 18.03500
_cell_length_c 27.05400
_cell_angle_alpha 90.00000
_cell_angle_beta  99.32100
_cell_angle_gamma 90.00000

_symmetry_space_group_name_	'P 1'
_symmetry_space_group_name_H-M	'P 1'

loop_
_symmetry_equiv_pos_as_xyz
  x,y,z

loop_
_atom_site_label
_atom_site_type_symbol
_atom_site_fract_x
_atom_site_fract_y
_atom_site_fract_z
_atom_site_charge
Co	Co	0.46930 0.69084 0.30951 1.19500
Co	Co	0.64085 0.76571 0.21691 1.20400
O 	O 	0.35500 0.64781 0.35658 -0.40000
O 	O 	0.24180 0.70493 0.29330 -0.35600
O 	O 	0.65490 0.66851 0.33874 -0.46200
O 	O 	0.56260 0.84480 0.25399 -0.48600
C 	C 	0.75200 0.68330 0.31815 0.42400
C 	C 	0.24540 0.66760 0.33175 0.31600
O 	O 	0.74830 0.71696 0.27867 -0.47200
C 	C 	0.12000 0.64740 0.35020 -0.08100
C 	C 	0.12370 0.60270 0.39145 -0.04300
H 	H 	0.20490 0.58350 0.40690 0.06200
C 	C 	0.50410 0.99710 0.44849 -0.04100
O 	O 	0.48170 0.79715 0.31803 -0.48600
C 	C 	0.88390 0.65710 0.34405 -0.11500
O 	O 	0.54510 0.11749 0.24296 -0.47900
C 	C 	0.52330 0.92265 0.31980 -0.13900
C 	C 	0.89020 0.61430 0.38656 -0.02500
H 	H 	0.81260 0.60450 0.39940 0.05900
C 	C 	0.51940 0.05416 0.31537 -0.13700
C 	C 	0.08080 0.56320 0.50189 0.03600
C 	C 	0.00970 0.54000 0.45619 -0.04700
C 	C 	0.99910 0.67390 0.32605 0.03200
H 	H 	0.99560 0.70330 0.29760 0.03100
C 	C 	0.00960 0.58570 0.41031 0.02200
C 	C 	0.50930 0.99390 0.39397 -0.00300
C 	C 	0.52780 0.98710 0.29275 0.07000
H 	H 	0.53660 0.98490 0.25910 0.02600
C 	C 	0.51580 0.92679 0.36990 -0.00000
H 	H 	0.51500 0.88320 0.38820 0.04600
C 	C 	0.52430 0.84890 0.29543 0.43200
C 	C 	0.06910 0.52290 0.54650 0.03500
C 	C 	0.51000 0.05830 0.36574 -0.00500
H 	H 	0.50400 0.10430 0.38080 0.04200
O 	O 	0.06140 0.88900 0.42421 -0.15200
O 	O 	0.30880 0.71110 0.55812 -0.14800
C 	C 	0.61390 0.02420 0.48113 0.03600
O 	O 	0.28580 0.64080 0.63694 -0.15700
C 	C 	0.16050 0.62880 0.50628 -0.13700
H 	H 	0.16540 0.65710 0.47790 0.08800
C 	C 	0.39170 0.97220 0.46628 0.03000
C 	C 	0.13760 0.55080 0.59238 -0.13900
H 	H 	0.12890 0.52660 0.62200 0.08400
C 	C 	0.28100 0.94310 0.43445 -0.13500
H 	H 	0.28410 0.93930 0.40040 0.08200
C 	C 	0.22810 0.65020 0.55033 0.10100
O 	O 	0.95450 0.09350 0.48449 -0.14800
C 	C 	0.73270 0.04580 0.46473 -0.14400
H 	H 	0.73800 0.04180 0.43080 0.09100
O 	O 	0.48370 0.18283 0.30331 -0.49800
C 	C 	0.16900 0.92010 0.45175 0.09400
C 	C 	0.21500 0.61120 0.59418 0.10200
C 	C 	0.83910 0.07210 0.49601 0.11600
C 	C 	0.32570 0.75270 0.51520 -0.24700
H 	H 	0.37640 0.72430 0.49490 0.11300
H 	H 	0.37220 0.79790 0.52550 0.11600
H 	H 	0.24000 0.76420 0.49620 0.11800
C 	C 	0.96950 0.08650 0.43280 -0.24600
H 	H 	0.90840 0.11970 0.41300 0.11300
H 	H 	0.05920 0.09980 0.42970 0.11400
H 	H 	0.95210 0.03660 0.42130 0.11900
C 	C 	0.06920 0.87120 0.37290 -0.23200
H 	H 	0.11650 0.90980 0.35880 0.10000
H 	H 	0.98090 0.86700 0.35420 0.10800
H 	H 	0.11550 0.82500 0.37160 0.11100
C 	C 	0.27480 0.60260 0.68280 -0.23700
H 	H 	0.31640 0.55480 0.68280 0.10800
H 	H 	0.18240 0.59640 0.68540 0.10100
H 	H 	0.31810 0.63100 0.71070 0.11000
C 	C 	0.51420 0.12430 0.28512 0.43700
O 	O 	0.80530 0.80620 0.20230 -0.80000
H 	H 	0.80600 0.83170 0.17590 0.33500
H 	H 	0.87700 0.79970 0.22280 0.35100
O 	O 	0.77780 0.72550 0.17740 -0.43800
H 	H 	0.83350 0.68490 0.19200 0.16700
H 	H 	0.75320 0.72320 0.14120 0.15200
Co	Co	0.53070 0.19084 0.19049 1.19600
Co	Co	0.35915 0.26571 0.28309 1.20500
O 	O 	0.64500 0.14781 0.14342 -0.39900
O 	O 	0.75820 0.20493 0.20670 -0.35400
O 	O 	0.34510 0.16851 0.16126 -0.46100
O 	O 	0.43740 0.34480 0.24601 -0.48500
C 	C 	0.24800 0.18330 0.18185 0.42400
C 	C 	0.75460 0.16760 0.16825 0.31600
O 	O 	0.25170 0.21696 0.22133 -0.47200
C 	C 	0.88000 0.14740 0.14980 -0.08000
C 	C 	0.87630 0.10270 0.10855 -0.04400
H 	H 	0.79510 0.08350 0.09310 0.06200
C 	C 	0.49590 0.49710 0.05151 -0.04100
O 	O 	0.51830 0.29715 0.18197 -0.48600
C 	C 	0.11610 0.15710 0.15595 -0.11400
O 	O 	0.45490 0.61749 0.25704 -0.47900
C 	C 	0.47670 0.42265 0.18020 -0.13900
C 	C 	0.10980 0.11430 0.11344 -0.02700
H 	H 	0.18740 0.10450 0.10060 0.06000
C 	C 	0.48060 0.55416 0.18463 -0.13700
C 	C 	0.91920 0.06320 0.99811 0.03600
C 	C 	0.99030 0.04000 0.04381 -0.04800
C 	C 	0.00090 0.17390 0.17395 0.03100
H 	H 	0.00440 0.20330 0.20240 0.03200
C 	C 	0.99040 0.08570 0.08969 0.02300
C 	C 	0.49070 0.49390 0.10603 -0.00300
C 	C 	0.47220 0.48710 0.20725 0.07000
H 	H 	0.46340 0.48490 0.24090 0.02600
C 	C 	0.48420 0.42679 0.13010 0.00000
H 	H 	0.48500 0.38320 0.11180 0.04600
C 	C 	0.47570 0.34890 0.20457 0.43200
C 	C 	0.93090 0.02290 0.95350 0.03700
C 	C 	0.49000 0.55830 0.13426 -0.00500
H 	H 	0.49600 0.60430 0.11920 0.04200
O 	O 	0.93860 0.38900 0.07579 -0.15100
O 	O 	0.69120 0.21110 0.94188 -0.14900
C 	C 	0.38610 0.52420 0.01887 0.03600
O 	O 	0.71420 0.14080 0.86306 -0.15700
C 	C 	0.83950 0.12880 0.99372 -0.13600
H 	H 	0.83460 0.15710 0.02210 0.08800
C 	C 	0.60830 0.47220 0.03372 0.03000
C 	C 	0.86240 0.05080 0.90762 -0.14000
H 	H 	0.87110 0.02660 0.87800 0.08400
C 	C 	0.71900 0.44310 0.06555 -0.13500
H 	H 	0.71590 0.43930 0.09960 0.08200
C 	C 	0.77190 0.15020 0.94967 0.10100
O 	O 	0.04550 0.59350 0.01551 -0.14700
C 	C 	0.26730 0.54580 0.03527 -0.14500
H 	H 	0.26200 0.54180 0.06920 0.09100
O 	O 	0.51630 0.68283 0.19669 -0.49800
C 	C 	0.83100 0.42010 0.04825 0.09300
C 	C 	0.78500 0.11120 0.90582 0.10200
C 	C 	0.16090 0.57210 0.00399 0.11600
C 	C 	0.67430 0.25270 0.98480 -0.24500
H 	H 	0.62360 0.22430 0.00510 0.11200
H 	H 	0.62780 0.29790 0.97450 0.11500
H 	H 	0.76000 0.26420 0.00380 0.11700
C 	C 	0.03050 0.58650 0.06720 -0.24800
H 	H 	0.09160 0.61970 0.08700 0.11400
H 	H 	0.94080 0.59980 0.07030 0.11500
H 	H 	0.04790 0.53660 0.07870 0.12000
C 	C 	0.93080 0.37120 0.12710 -0.23700
H 	H 	0.88350 0.40980 0.14120 0.10100
H 	H 	0.01910 0.36700 0.14580 0.11000
H 	H 	0.88450 0.32500 0.12840 0.11200
C 	C 	0.72520 0.10260 0.81720 -0.23800
H 	H 	0.68360 0.05480 0.81720 0.10900
H 	H 	0.81760 0.09640 0.81460 0.10200
H 	H 	0.68190 0.13100 0.78930 0.11100
C 	C 	0.48580 0.62430 0.21488 0.43700
O 	O 	0.19470 0.30620 0.29770 -0.80100
H 	H 	0.19400 0.33170 0.32410 0.33600
H 	H 	0.12300 0.29970 0.27720 0.35100
O 	O 	0.22220 0.22550 0.32260 -0.43800
H 	H 	0.16650 0.18490 0.30800 0.16700
H 	H 	0.24680 0.22320 0.35880 0.15200
Co	Co	0.53070 0.30916 0.69049 1.19600
Co	Co	0.35915 0.23429 0.78309 1.20500
O 	O 	0.64500 0.35219 0.64342 -0.39900
O 	O 	0.75820 0.29507 0.70670 -0.35500
O 	O 	0.34510 0.33149 0.66126 -0.46100
O 	O 	0.43740 0.15520 0.74601 -0.48500
C 	C 	0.24800 0.31670 0.68185 0.42400
C 	C 	0.75460 0.33240 0.66825 0.31600
O 	O 	0.25170 0.28304 0.72133 -0.47200
C 	C 	0.88000 0.35260 0.64980 -0.08100
C 	C 	0.87630 0.39730 0.60855 -0.04300
H 	H 	0.79510 0.41650 0.59310 0.06200
C 	C 	0.49590 0.00290 0.55151 -0.04100
O 	O 	0.51830 0.20285 0.68197 -0.48600
C 	C 	0.11610 0.34290 0.65595 -0.11500
O 	O 	0.45490 0.88251 0.75704 -0.47900
C 	C 	0.47670 0.07735 0.68020 -0.13900
C 	C 	0.10980 0.38570 0.61344 -0.02500
H 	H 	0.18740 0.39550 0.60060 0.05900
C 	C 	0.48060 0.94584 0.68463 -0.13700
C 	C 	0.91920 0.43680 0.49811 0.03600
C 	C 	0.99030 0.46000 0.54381 -0.04700
C 	C 	0.00090 0.32610 0.67395 0.03200
H 	H 	0.00440 0.29670 0.70240 0.03100
C 	C 	0.99040 0.41430 0.58969 0.02200
C 	C 	0.49070 0.00610 0.60603 -0.00300
C 	C 	0.47220 0.01290 0.70725 0.07000
H 	H 	0.46340 0.01510 0.74090 0.02600
C 	C 	0.48420 0.07321 0.63010 -0.00000
H 	H 	0.48500 0.11680 0.61180 0.04600
C 	C 	0.47570 0.15110 0.70457 0.43200
C 	C 	0.93090 0.47710 0.45350 0.03500
C 	C 	0.49000 0.94170 0.63426 -0.00500
H 	H 	0.49600 0.89570 0.61920 0.04200
O 	O 	0.93860 0.11100 0.57579 -0.15200
O 	O 	0.69120 0.28890 0.44188 -0.14800
C 	C 	0.38610 0.97580 0.51887 0.03600
O 	O 	0.71420 0.35920 0.36306 -0.15700
C 	C 	0.83950 0.37120 0.49372 -0.13700
H 	H 	0.83460 0.34290 0.52210 0.08800
C 	C 	0.60830 0.02780 0.53372 0.03000
C 	C 	0.86240 0.44920 0.40762 -0.13900
H 	H 	0.87110 0.47340 0.37800 0.08400
C 	C 	0.71900 0.05690 0.56555 -0.13500
H 	H 	0.71590 0.06070 0.59960 0.08200
C 	C 	0.77190 0.34980 0.44967 0.10100
O 	O 	0.04550 0.90650 0.51551 -0.14800
C 	C 	0.26730 0.95420 0.53527 -0.14400
H 	H 	0.26200 0.95820 0.56920 0.09100
O 	O 	0.51630 0.81717 0.69669 -0.49800
C 	C 	0.83100 0.07990 0.54825 0.09400
C 	C 	0.78500 0.38880 0.40582 0.10200
C 	C 	0.16090 0.92790 0.50399 0.11600
C 	C 	0.67430 0.24730 0.48480 -0.24700
H 	H 	0.62360 0.27570 0.50510 0.11300
H 	H 	0.62780 0.20210 0.47450 0.11600
H 	H 	0.76000 0.23580 0.50380 0.11800
C 	C 	0.03050 0.91350 0.56720 -0.24600
H 	H 	0.09160 0.88030 0.58700 0.11300
H 	H 	0.94080 0.90020 0.57030 0.11400
H 	H 	0.04790 0.96340 0.57870 0.11900
C 	C 	0.93080 0.12880 0.62710 -0.23200
H 	H 	0.88350 0.09020 0.64120 0.10000
H 	H 	0.01910 0.13300 0.64580 0.10800
H 	H 	0.88450 0.17500 0.62840 0.11100
C 	C 	0.72520 0.39740 0.31720 -0.23700
H 	H 	0.68360 0.44520 0.31720 0.10800
H 	H 	0.81760 0.40360 0.31460 0.10100
H 	H 	0.68190 0.36900 0.28930 0.11000
C 	C 	0.48580 0.87570 0.71488 0.43700
O 	O 	0.19470 0.19380 0.79770 -0.80000
H 	H 	0.19400 0.16830 0.82410 0.33500
H 	H 	0.12300 0.20030 0.77720 0.35100
O 	O 	0.22220 0.27450 0.82260 -0.43800
H 	H 	0.16650 0.31510 0.80800 0.16700
H 	H 	0.24680 0.27680 0.85880 0.15200
Co	Co	0.46930 0.80916 0.80951 1.19600
Co	Co	0.64085 0.73429 0.71691 1.20500
O 	O 	0.35500 0.85219 0.85658 -0.39900
O 	O 	0.24180 0.79507 0.79330 -0.35400
O 	O 	0.65490 0.83149 0.83874 -0.46100
O 	O 	0.56260 0.65520 0.75399 -0.48500
C 	C 	0.75200 0.81670 0.81815 0.42400
C 	C 	0.24540 0.83240 0.83175 0.31600
O 	O 	0.74830 0.78304 0.77867 -0.47200
C 	C 	0.12000 0.85260 0.85020 -0.08000
C 	C 	0.12370 0.89730 0.89145 -0.04400
H 	H 	0.20490 0.91650 0.90690 0.06200
C 	C 	0.50410 0.50290 0.94849 -0.04100
O 	O 	0.48170 0.70285 0.81803 -0.48600
C 	C 	0.88390 0.84290 0.84405 -0.11400
O 	O 	0.54510 0.38251 0.74296 -0.47900
C 	C 	0.52330 0.57735 0.81980 -0.13900
C 	C 	0.89020 0.88570 0.88656 -0.02700
H 	H 	0.81260 0.89550 0.89940 0.06000
C 	C 	0.51940 0.44584 0.81537 -0.13700
C 	C 	0.08080 0.93680 0.00189 0.03600
C 	C 	0.00970 0.96000 0.95619 -0.04800
C 	C 	0.99910 0.82610 0.82605 0.03100
H 	H 	0.99560 0.79670 0.79760 0.03200
C 	C 	0.00960 0.91430 0.91031 0.02300
C 	C 	0.50930 0.50610 0.89397 -0.00300
C 	C 	0.52780 0.51290 0.79275 0.07000
H 	H 	0.53660 0.51510 0.75910 0.02600
C 	C 	0.51580 0.57321 0.86990 0.00000
H 	H 	0.51500 0.61680 0.88820 0.04600
C 	C 	0.52430 0.65110 0.79543 0.43200
C 	C 	0.06910 0.97710 0.04650 0.03700
C 	C 	0.51000 0.44170 0.86574 -0.00500
H 	H 	0.50400 0.39570 0.88080 0.04200
O 	O 	0.06140 0.61100 0.92421 -0.15100
O 	O 	0.30880 0.78890 0.05812 -0.14900
C 	C 	0.61390 0.47580 0.98113 0.03600
O 	O 	0.28580 0.85920 0.13694 -0.15700
C 	C 	0.16050 0.87120 0.00628 -0.13600
H 	H 	0.16540 0.84290 0.97790 0.08800
C 	C 	0.39170 0.52780 0.96628 0.03000
C 	C 	0.13760 0.94920 0.09238 -0.14000
H 	H 	0.12890 0.97340 0.12200 0.08400
C 	C 	0.28100 0.55690 0.93445 -0.13500
H 	H 	0.28410 0.56070 0.90040 0.08200
C 	C 	0.22810 0.84980 0.05033 0.10100
O 	O 	0.95450 0.40650 0.98449 -0.14700
C 	C 	0.73270 0.45420 0.96473 -0.14500
H 	H 	0.73800 0.45820 0.93080 0.09100
O 	O 	0.48370 0.31717 0.80331 -0.49800
C 	C 	0.16900 0.57990 0.95175 0.09300
C 	C 	0.21500 0.88880 0.09418 0.10200
C 	C 	0.83910 0.42790 0.99601 0.11600
C 	C 	0.32570 0.74730 0.01520 -0.24500
H 	H 	0.37640 0.77570 0.99490 0.11200
H 	H 	0.37220 0.70210 0.02550 0.11500
H 	H 	0.24000 0.73580 0.99620 0.11700
C 	C 	0.96950 0.41350 0.93280 -0.24800
H 	H 	0.90840 0.38030 0.91300 0.11400
H 	H 	0.05920 0.40020 0.92970 0.11500
H 	H 	0.95210 0.46340 0.92130 0.12000
C 	C 	0.06920 0.62880 0.87290 -0.23700
H 	H 	0.11650 0.59020 0.85880 0.10100
H 	H 	0.98090 0.63300 0.85420 0.11000
H 	H 	0.11550 0.67500 0.87160 0.11200
C 	C 	0.27480 0.89740 0.18280 -0.23800
H 	H 	0.31640 0.94520 0.18280 0.10900
H 	H 	0.18240 0.90360 0.18540 0.10200
H 	H 	0.31810 0.86900 0.21070 0.11100
C 	C 	0.51420 0.37570 0.78512 0.43700
O 	O 	0.80530 0.69380 0.70230 -0.80100
H 	H 	0.80600 0.66830 0.67590 0.33600
H 	H 	0.87700 0.70030 0.72280 0.35100
O 	O 	0.77780 0.77450 0.67740 -0.43800
H 	H 	0.83350 0.81510 0.69200 0.16700
H 	H 	0.75320 0.77680 0.64120 0.15200
