data_crystal

_cell_length_a 15.46760
_cell_length_b 13.19620
_cell_length_c 26.49700
_cell_angle_alpha 90.00000
_cell_angle_beta  98.72900
_cell_angle_gamma 90.00000

_symmetry_space_group_name_	'P 1'
_symmetry_space_group_name_H-M	'P 1'

loop_
_symmetry_equiv_pos_as_xyz
  x,y,z

loop_
_atom_site_label
_atom_site_type_symbol
_atom_site_fract_x
_atom_site_fract_y
_atom_site_fract_z
_atom_site_charge
Cd	Cd	0.25407 0.81505 0.23937 1.23800
Cd	Cd	0.21126 0.67755 0.34551 1.16500
C 	C 	0.60890 0.19020 0.21695 0.35200
O 	O 	0.35152 0.96140 0.25114 -0.35000
O 	O 	0.29562 0.90350 0.17431 -0.38100
C 	C 	0.34840 0.95830 0.20325 0.28500
C 	C 	0.00390 0.49930 0.10985 0.00400
O 	O 	0.81890 0.34300 0.17884 -0.51200
C 	C 	0.41920 0.00380 0.12805 -0.05100
H 	H 	0.37760 0.96330 0.10860 0.06500
C 	C 	0.06460 0.55920 0.14011 -0.02200
H 	H 	0.10510 0.59650 0.12520 0.05200
O 	O 	0.60130 0.21400 0.26130 -0.35200
C 	C 	0.54090 0.12600 0.18551 -0.11100
O 	O 	0.67404 0.21870 0.19645 -0.55400
C 	C 	0.87470 0.39270 0.20768 0.36500
C 	C 	0.41390 0.01920 0.17911 -0.06300
O 	O 	0.53300 0.66150 0.09116 -0.15000
C 	C 	0.54550 0.10830 0.13467 -0.02500
H 	H 	0.59000 0.13790 0.11980 -0.00600
C 	C 	0.48460 0.04710 0.10536 0.01400
C 	C 	0.94300 0.44980 0.18500 -0.12000
C 	C 	0.47400 0.08150 0.20775 0.01400
H 	H 	0.47000 0.09380 0.24190 0.04300
C 	C 	0.00250 0.49780 0.05298 -0.04500
C 	C 	0.49290 0.02300 0.05123 -0.05300
O 	O 	0.53440 0.62000 0.99681 -0.13900
C 	C 	0.06400 0.44260 0.03140 0.02900
C 	C 	0.00410 0.50990 0.21510 0.04500
H 	H 	0.00380 0.51360 0.25010 0.02700
C 	C 	0.93780 0.55440 0.02240 0.02700
C 	C 	0.12800 0.38150 0.06146 -0.13800
H 	H 	0.12940 0.37920 0.09670 0.08000
O 	O 	0.87300 0.40120 0.25430 -0.41000
C 	C 	0.94380 0.44380 0.13252 -0.01900
H 	H 	0.90370 0.40230 0.11250 0.02100
C 	C 	0.52430 0.74440 0.05914 0.09200
C 	C 	0.52700 0.71950 0.00714 0.10100
C 	C 	0.06530 0.56410 0.19337 -0.11600
C 	C 	0.18680 0.32680 0.03995 0.09600
C 	C 	0.50640 0.92250 0.03724 0.02500
C 	C 	0.87340 0.61290 0.04367 -0.13700
H 	H 	0.87300 0.61150 0.07870 0.08300
C 	C 	0.52420 0.79590 0.97201 -0.13500
H 	H 	0.53030 0.78000 0.93850 0.08400
C 	C 	0.51480 0.84190 0.07378 -0.13700
H 	H 	0.51380 0.85640 0.10800 0.08000
C 	C 	0.48780 0.10120 0.01479 0.02700
C 	C 	0.53830 0.68280 0.14501 -0.26200
H 	H 	0.48570 0.71600 0.15120 0.12500
H 	H 	0.58760 0.72590 0.15580 0.10900
H 	H 	0.54520 0.62040 0.16390 0.12400
O 	O 	0.24960 0.26410 0.06512 -0.15500
C 	C 	0.18600 0.33070 0.98612 0.09700
O 	O 	0.24980 0.27250 0.96932 -0.15000
O 	O 	0.17790 0.68550 0.20243 -0.43600
O 	O 	0.12990 0.62920 0.27264 -0.49200
C 	C 	0.12930 0.63130 0.22548 0.38800
C 	C 	0.53820 0.59290 0.94530 -0.26300
H 	H 	0.48680 0.61730 0.92380 0.11200
H 	H 	0.54110 0.52050 0.94250 0.13700
H 	H 	0.58920 0.62260 0.93470 0.12500
C 	C 	0.25230 0.27560 0.91510 -0.22700
H 	H 	0.19420 0.26730 0.89690 0.09200
H 	H 	0.28890 0.22190 0.90610 0.09900
H 	H 	0.27550 0.33960 0.90630 0.11100
C 	C 	0.25080 0.24750 0.11740 -0.21400
H 	H 	0.19490 0.22240 0.12310 0.09400
H 	H 	0.26320 0.31000 0.13550 0.09600
H 	H 	0.29530 0.19860 0.12930 0.10500
Cd	Cd	0.74593 0.31505 0.26063 1.23700
Cd	Cd	0.78874 0.17755 0.15449 1.16400
C 	C 	0.39110 0.69020 0.28305 0.35100
O 	O 	0.64848 0.46140 0.24886 -0.35100
O 	O 	0.70438 0.40350 0.32569 -0.38100
C 	C 	0.65160 0.45830 0.29675 0.28500
C 	C 	0.99610 0.99930 0.39015 0.00500
O 	O 	0.18110 0.84300 0.32116 -0.51200
C 	C 	0.58080 0.50380 0.37195 -0.05100
H 	H 	0.62240 0.46330 0.39140 0.06400
C 	C 	0.93540 0.05920 0.35989 -0.02400
H 	H 	0.89490 0.09650 0.37480 0.05300
O 	O 	0.39870 0.71400 0.23870 -0.35200
C 	C 	0.45910 0.62600 0.31449 -0.11100
O 	O 	0.32596 0.71870 0.30355 -0.55400
C 	C 	0.12530 0.89270 0.29232 0.36500
C 	C 	0.58610 0.51920 0.32089 -0.06300
O 	O 	0.46700 0.16150 0.40884 -0.15000
C 	C 	0.45450 0.60830 0.36533 -0.02500
H 	H 	0.41000 0.63790 0.38020 -0.00600
C 	C 	0.51540 0.54710 0.39464 0.01400
C 	C 	0.05700 0.94980 0.31500 -0.11900
C 	C 	0.52600 0.58150 0.29225 0.01400
H 	H 	0.53000 0.59380 0.25810 0.04300
C 	C 	0.99750 0.99780 0.44702 -0.04500
C 	C 	0.50710 0.52300 0.44877 -0.05300
O 	O 	0.46560 0.12000 0.50319 -0.13900
C 	C 	0.93600 0.94260 0.46860 0.02800
C 	C 	0.99590 0.00990 0.28490 0.04300
H 	H 	0.99620 0.01360 0.24990 0.02700
C 	C 	0.06220 0.05440 0.47760 0.02800
C 	C 	0.87200 0.88150 0.43854 -0.13700
H 	H 	0.87060 0.87920 0.40330 0.08000
O 	O 	0.12700 0.90120 0.24570 -0.41000
C 	C 	0.05620 0.94380 0.36748 -0.02000
H 	H 	0.09630 0.90230 0.38750 0.02200
C 	C 	0.47570 0.24440 0.44086 0.09200
C 	C 	0.47300 0.21950 0.49286 0.10100
C 	C 	0.93470 0.06410 0.30663 -0.11500
C 	C 	0.81320 0.82680 0.46005 0.09600
C 	C 	0.49360 0.42250 0.46276 0.02400
C 	C 	0.12660 0.11290 0.45633 -0.13700
H 	H 	0.12700 0.11150 0.42130 0.08300
C 	C 	0.47580 0.29590 0.52799 -0.13500
H 	H 	0.46970 0.28000 0.56150 0.08400
C 	C 	0.48520 0.34190 0.42622 -0.13700
H 	H 	0.48620 0.35640 0.39200 0.08000
C 	C 	0.51220 0.60120 0.48521 0.02700
C 	C 	0.46170 0.18280 0.35499 -0.26200
H 	H 	0.51430 0.21600 0.34880 0.12500
H 	H 	0.41240 0.22590 0.34420 0.10900
H 	H 	0.45480 0.12040 0.33610 0.12400
O 	O 	0.75040 0.76410 0.43488 -0.15500
C 	C 	0.81400 0.83070 0.51388 0.09800
O 	O 	0.75020 0.77250 0.53068 -0.15000
O 	O 	0.82210 0.18550 0.29757 -0.43600
O 	O 	0.87010 0.12920 0.22736 -0.49200
C 	C 	0.87070 0.13130 0.27452 0.38800
C 	C 	0.46180 0.09290 0.55470 -0.26300
H 	H 	0.51320 0.11730 0.57620 0.11200
H 	H 	0.45890 0.02050 0.55750 0.13700
H 	H 	0.41080 0.12260 0.56530 0.12500
C 	C 	0.74770 0.77560 0.58490 -0.22700
H 	H 	0.80580 0.76730 0.60310 0.09200
H 	H 	0.71110 0.72190 0.59390 0.09900
H 	H 	0.72450 0.83960 0.59370 0.11100
C 	C 	0.74920 0.74750 0.38260 -0.21400
H 	H 	0.80510 0.72240 0.37690 0.09400
H 	H 	0.73680 0.81000 0.36450 0.09600
H 	H 	0.70470 0.69860 0.37070 0.10500
Cd	Cd	0.74593 0.18495 0.76063 1.23700
Cd	Cd	0.78874 0.32245 0.65449 1.16400
C 	C 	0.39110 0.80980 0.78305 0.35100
O 	O 	0.64848 0.03860 0.74886 -0.35100
O 	O 	0.70438 0.09650 0.82569 -0.38100
C 	C 	0.65160 0.04170 0.79675 0.28500
C 	C 	0.99610 0.50070 0.89015 0.00400
O 	O 	0.18110 0.65700 0.82116 -0.51200
C 	C 	0.58080 0.99620 0.87195 -0.05100
H 	H 	0.62240 0.03670 0.89140 0.06500
C 	C 	0.93540 0.44080 0.85989 -0.02200
H 	H 	0.89490 0.40350 0.87480 0.05200
O 	O 	0.39870 0.78600 0.73870 -0.35200
C 	C 	0.45910 0.87400 0.81449 -0.11100
O 	O 	0.32596 0.78130 0.80355 -0.55400
C 	C 	0.12530 0.60730 0.79232 0.36500
C 	C 	0.58610 0.98080 0.82089 -0.06300
O 	O 	0.46700 0.33850 0.90884 -0.15000
C 	C 	0.45450 0.89170 0.86533 -0.02500
H 	H 	0.41000 0.86210 0.88020 -0.00600
C 	C 	0.51540 0.95290 0.89464 0.01400
C 	C 	0.05700 0.55020 0.81500 -0.12000
C 	C 	0.52600 0.91850 0.79225 0.01400
H 	H 	0.53000 0.90620 0.75810 0.04300
C 	C 	0.99750 0.50220 0.94702 -0.04500
C 	C 	0.50710 0.97700 0.94877 -0.05300
O 	O 	0.46560 0.38000 0.00319 -0.13900
C 	C 	0.93600 0.55740 0.96860 0.02900
C 	C 	0.99590 0.49010 0.78490 0.04500
H 	H 	0.99620 0.48640 0.74990 0.02700
C 	C 	0.06220 0.44560 0.97760 0.02700
C 	C 	0.87200 0.61850 0.93854 -0.13800
H 	H 	0.87060 0.62080 0.90330 0.08000
O 	O 	0.12700 0.59880 0.74570 -0.41000
C 	C 	0.05620 0.55620 0.86748 -0.01900
H 	H 	0.09630 0.59770 0.88750 0.02100
C 	C 	0.47570 0.25560 0.94086 0.09200
C 	C 	0.47300 0.28050 0.99286 0.10100
C 	C 	0.93470 0.43590 0.80663 -0.11600
C 	C 	0.81320 0.67320 0.96005 0.09600
C 	C 	0.49360 0.07750 0.96276 0.02500
C 	C 	0.12660 0.38710 0.95633 -0.13700
H 	H 	0.12700 0.38850 0.92130 0.08300
C 	C 	0.47580 0.20410 0.02799 -0.13500
H 	H 	0.46970 0.22000 0.06150 0.08400
C 	C 	0.48520 0.15810 0.92622 -0.13700
H 	H 	0.48620 0.14360 0.89200 0.08000
C 	C 	0.51220 0.89880 0.98521 0.02700
C 	C 	0.46170 0.31720 0.85499 -0.26200
H 	H 	0.51430 0.28400 0.84880 0.12500
H 	H 	0.41240 0.27410 0.84420 0.10900
H 	H 	0.45480 0.37960 0.83610 0.12400
O 	O 	0.75040 0.73590 0.93488 -0.15500
C 	C 	0.81400 0.66930 0.01388 0.09700
O 	O 	0.75020 0.72750 0.03068 -0.15000
O 	O 	0.82210 0.31450 0.79757 -0.43600
O 	O 	0.87010 0.37080 0.72736 -0.49200
C 	C 	0.87070 0.36870 0.77452 0.38800
C 	C 	0.46180 0.40710 0.05470 -0.26300
H 	H 	0.51320 0.38270 0.07620 0.11200
H 	H 	0.45890 0.47950 0.05750 0.13700
H 	H 	0.41080 0.37740 0.06530 0.12500
C 	C 	0.74770 0.72440 0.08490 -0.22700
H 	H 	0.80580 0.73270 0.10310 0.09200
H 	H 	0.71110 0.77810 0.09390 0.09900
H 	H 	0.72450 0.66040 0.09370 0.11100
C 	C 	0.74920 0.75250 0.88260 -0.21400
H 	H 	0.80510 0.77760 0.87690 0.09400
H 	H 	0.73680 0.69000 0.86450 0.09600
H 	H 	0.70470 0.80140 0.87070 0.10500
Cd	Cd	0.25407 0.68495 0.73937 1.23700
Cd	Cd	0.21126 0.82245 0.84551 1.16400
C 	C 	0.60890 0.30980 0.71695 0.35100
O 	O 	0.35152 0.53860 0.75114 -0.35100
O 	O 	0.29562 0.59650 0.67431 -0.38100
C 	C 	0.34840 0.54170 0.70325 0.28500
C 	C 	0.00390 0.00070 0.60985 0.00500
O 	O 	0.81890 0.15700 0.67884 -0.51200
C 	C 	0.41920 0.49620 0.62805 -0.05100
H 	H 	0.37760 0.53670 0.60860 0.06400
C 	C 	0.06460 0.94080 0.64011 -0.02400
H 	H 	0.10510 0.90350 0.62520 0.05300
O 	O 	0.60130 0.28600 0.76130 -0.35200
C 	C 	0.54090 0.37400 0.68551 -0.11100
O 	O 	0.67404 0.28130 0.69645 -0.55400
C 	C 	0.87470 0.10730 0.70768 0.36500
C 	C 	0.41390 0.48080 0.67911 -0.06300
O 	O 	0.53300 0.83850 0.59116 -0.15000
C 	C 	0.54550 0.39170 0.63467 -0.02500
H 	H 	0.59000 0.36210 0.61980 -0.00600
C 	C 	0.48460 0.45290 0.60536 0.01400
C 	C 	0.94300 0.05020 0.68500 -0.11900
C 	C 	0.47400 0.41850 0.70775 0.01400
H 	H 	0.47000 0.40620 0.74190 0.04300
C 	C 	0.00250 0.00220 0.55298 -0.04500
C 	C 	0.49290 0.47700 0.55123 -0.05300
O 	O 	0.53440 0.88000 0.49681 -0.13900
C 	C 	0.06400 0.05740 0.53140 0.02800
C 	C 	0.00410 0.99010 0.71510 0.04300
H 	H 	0.00380 0.98640 0.75010 0.02700
C 	C 	0.93780 0.94560 0.52240 0.02800
C 	C 	0.12800 0.11850 0.56146 -0.13700
H 	H 	0.12940 0.12080 0.59670 0.08000
O 	O 	0.87300 0.09880 0.75430 -0.41000
C 	C 	0.94380 0.05620 0.63252 -0.02000
H 	H 	0.90370 0.09770 0.61250 0.02200
C 	C 	0.52430 0.75560 0.55914 0.09200
C 	C 	0.52700 0.78050 0.50714 0.10100
C 	C 	0.06530 0.93590 0.69337 -0.11500
C 	C 	0.18680 0.17320 0.53995 0.09600
C 	C 	0.50640 0.57750 0.53724 0.02400
C 	C 	0.87340 0.88710 0.54367 -0.13700
H 	H 	0.87300 0.88850 0.57870 0.08300
C 	C 	0.52420 0.70410 0.47201 -0.13500
H 	H 	0.53030 0.72000 0.43850 0.08400
C 	C 	0.51480 0.65810 0.57378 -0.13700
H 	H 	0.51380 0.64360 0.60800 0.08000
C 	C 	0.48780 0.39880 0.51479 0.02700
C 	C 	0.53830 0.81720 0.64501 -0.26200
H 	H 	0.48570 0.78400 0.65120 0.12500
H 	H 	0.58760 0.77410 0.65580 0.10900
H 	H 	0.54520 0.87960 0.66390 0.12400
O 	O 	0.24960 0.23590 0.56512 -0.15500
C 	C 	0.18600 0.16930 0.48612 0.09800
O 	O 	0.24980 0.22750 0.46932 -0.15000
O 	O 	0.17790 0.81450 0.70243 -0.43600
O 	O 	0.12990 0.87080 0.77264 -0.49200
C 	C 	0.12930 0.86870 0.72548 0.38800
C 	C 	0.53820 0.90710 0.44530 -0.26300
H 	H 	0.48680 0.88270 0.42380 0.11200
H 	H 	0.54110 0.97950 0.44250 0.13700
H 	H 	0.58920 0.87740 0.43470 0.12500
C 	C 	0.25230 0.22440 0.41510 -0.22700
H 	H 	0.19420 0.23270 0.39690 0.09200
H 	H 	0.28890 0.27810 0.40610 0.09900
H 	H 	0.27550 0.16040 0.40630 0.11100
C 	C 	0.25080 0.25250 0.61740 -0.21400
H 	H 	0.19490 0.27760 0.62310 0.09400
H 	H 	0.26320 0.19000 0.63550 0.09600
H 	H 	0.29530 0.30140 0.62930 0.10500
