data_crystal

_cell_length_a 10.10700
_cell_length_b 18.33800
_cell_length_c 27.08400
_cell_angle_alpha 90.00000
_cell_angle_beta  99.28500
_cell_angle_gamma 90.00000

_symmetry_space_group_name_	'P 1'
_symmetry_space_group_name_H-M	'P 1'

loop_
_symmetry_equiv_pos_as_xyz
  x,y,z

loop_
_atom_site_label
_atom_site_type_symbol
_atom_site_fract_x
_atom_site_fract_y
_atom_site_fract_z
_atom_site_charge
Zn	Zn	0.46427 0.80393 0.30758 1.23700
Zn	Zn	0.63667 0.73013 0.21918 1.18600
O 	O 	0.64680 0.82958 0.33933 -0.47500
O 	O 	0.48350 0.69871 0.31377 -0.50800
C 	C 	0.88680 0.88177 0.38873 -0.02600
H 	H 	0.80880 0.89330 0.40110 0.05800
C 	C 	0.87860 0.83738 0.34702 -0.11800
O 	O 	0.56640 0.64691 0.25119 -0.53400
O 	O 	0.74600 0.77277 0.28356 -0.51600
C 	C 	0.99460 0.81919 0.32940 0.02400
H 	H 	0.99070 0.78900 0.30160 0.03200
C 	C 	0.50990 0.44396 0.31553 -0.15700
C 	C 	0.74750 0.81040 0.32107 0.43100
C 	C 	0.50160 0.50493 0.44826 -0.03600
C 	C 	0.52570 0.64519 0.29228 0.43800
C 	C 	0.07400 0.93470 0.50403 0.03300
C 	C 	0.00860 0.95720 0.45756 -0.04600
O 	O 	0.29280 0.78713 0.56520 -0.15500
C 	C 	0.11630 0.84550 0.35284 -0.07200
C 	C 	0.06460 0.97730 0.54769 0.03400
C 	C 	0.50070 0.44277 0.36595 0.01100
H 	H 	0.49050 0.39850 0.38160 0.03500
C 	C 	0.00760 0.90950 0.41251 0.02300
C 	C 	0.50650 0.50727 0.39349 -0.01300
C 	C 	0.52230 0.57361 0.31818 -0.14900
C 	C 	0.51300 0.57191 0.36805 0.01000
H 	H 	0.51110 0.61570 0.38530 0.04200
C 	C 	0.12340 0.89090 0.39433 -0.04800
H 	H 	0.20590 0.90880 0.40980 0.06300
C 	C 	0.61310 0.47673 0.48071 0.03000
C 	C 	0.52470 0.50925 0.29211 0.08300
H 	H 	0.53620 0.51000 0.25870 0.01800
C 	C 	0.38990 0.52919 0.46752 0.02800
C 	C 	0.15050 0.86850 0.51082 -0.13600
H 	H 	0.15560 0.83920 0.48320 0.08800
C 	C 	0.73360 0.45620 0.46289 -0.13800
H 	H 	0.73880 0.46230 0.42920 0.08800
O 	O 	0.05990 0.61570 0.42883 -0.15400
C 	C 	0.20120 0.88870 0.59945 0.10500
C 	C 	0.27560 0.56030 0.43582 -0.13900
H 	H 	0.27700 0.56560 0.40180 0.08400
C 	C 	0.12920 0.95070 0.59530 -0.14100
H 	H 	0.12100 0.97690 0.62400 0.08500
C 	C 	0.21500 0.84760 0.55590 0.09900
O 	O 	0.95680 0.40830 0.48040 -0.14400
C 	C 	0.96880 0.42210 0.42870 -0.25300
H 	H 	0.90780 0.39120 0.40730 0.11200
H 	H 	0.05890 0.41220 0.42370 0.11500
H 	H 	0.94760 0.47220 0.42080 0.12100
C 	C 	0.83870 0.42880 0.49328 0.10500
C 	C 	0.30790 0.74350 0.52280 -0.24800
H 	H 	0.33800 0.77350 0.49780 0.11100
H 	H 	0.22320 0.72180 0.50930 0.12100
H 	H 	0.37250 0.70570 0.53280 0.11300
C 	C 	0.16790 0.58170 0.45464 0.09900
O 	O 	0.35330 0.84565 0.35613 -0.40900
O 	O 	0.23550 0.78669 0.29485 -0.36400
O 	O 	0.55180 0.37242 0.24843 -0.51200
C 	C 	0.24170 0.82410 0.33300 0.30800
O 	O 	0.44230 0.32323 0.30357 -0.55700
C 	C 	0.06540 0.63940 0.37900 -0.23000
H 	H 	0.07470 0.59780 0.35830 0.09900
H 	H 	0.14080 0.67130 0.37920 0.10800
H 	H 	0.98440 0.66500 0.36610 0.11000
C 	C 	0.50050 0.37380 0.28674 0.47500
O 	O 	0.26630 0.86003 0.64279 -0.17000
C 	C 	0.24520 0.89530 0.68812 -0.21600
H 	H 	0.15080 0.90050 0.68820 0.09300
H 	H 	0.28650 0.94260 0.69010 0.10000
H 	H 	0.28430 0.86650 0.71630 0.09900
Zn	Zn	0.53573 0.30393 0.19242 1.23800
Zn	Zn	0.36333 0.23013 0.28082 1.18700
O 	O 	0.35320 0.32958 0.16067 -0.47400
O 	O 	0.51650 0.19871 0.18623 -0.50700
C 	C 	0.11320 0.38177 0.11127 -0.02200
H 	H 	0.19120 0.39330 0.09890 0.05800
C 	C 	0.12140 0.33738 0.15298 -0.11900
O 	O 	0.43360 0.14691 0.24881 -0.53300
O 	O 	0.25400 0.27277 0.21644 -0.51600
C 	C 	0.00540 0.31919 0.17060 0.02800
H 	H 	0.00930 0.28900 0.19840 0.03200
C 	C 	0.49010 0.94396 0.18447 -0.15600
C 	C 	0.25250 0.31040 0.17893 0.43300
C 	C 	0.49840 0.00493 0.05174 -0.03500
C 	C 	0.47430 0.14519 0.20772 0.43900
C 	C 	0.92600 0.43470 0.99597 0.03400
C 	C 	0.99140 0.45720 0.04244 -0.04600
O 	O 	0.70720 0.28713 0.93480 -0.15500
C 	C 	0.88370 0.34550 0.14716 -0.07400
C 	C 	0.93540 0.47730 0.95231 0.03300
C 	C 	0.49930 0.94277 0.13405 0.01100
H 	H 	0.50950 0.89850 0.11840 0.03500
C 	C 	0.99240 0.40950 0.08749 0.02100
C 	C 	0.49350 0.00727 0.10651 -0.01300
C 	C 	0.47770 0.07361 0.18182 -0.14800
C 	C 	0.48700 0.07191 0.13195 0.00900
H 	H 	0.48890 0.11570 0.11470 0.04200
C 	C 	0.87660 0.39090 0.10567 -0.04600
H 	H 	0.79410 0.40880 0.09020 0.06200
C 	C 	0.38690 0.97673 0.01929 0.03000
C 	C 	0.47530 0.00925 0.20789 0.08300
H 	H 	0.46380 0.01000 0.24130 0.01800
C 	C 	0.61010 0.02919 0.03248 0.02800
C 	C 	0.84950 0.36850 0.98918 -0.13600
H 	H 	0.84440 0.33920 0.01680 0.08700
C 	C 	0.26640 0.95620 0.03711 -0.13800
H 	H 	0.26120 0.96230 0.07080 0.08800
O 	O 	0.94010 0.11570 0.07117 -0.15400
C 	C 	0.79880 0.38870 0.90055 0.10500
C 	C 	0.72440 0.06030 0.06418 -0.13900
H 	H 	0.72300 0.06560 0.09820 0.08400
C 	C 	0.87080 0.45070 0.90470 -0.14100
H 	H 	0.87900 0.47690 0.87600 0.08400
C 	C 	0.78500 0.34760 0.94410 0.09900
O 	O 	0.04320 0.90830 0.01960 -0.14500
C 	C 	0.03120 0.92210 0.07130 -0.24800
H 	H 	0.09220 0.89120 0.09270 0.11000
H 	H 	0.94110 0.91220 0.07630 0.11300
H 	H 	0.05240 0.97220 0.07920 0.12000
C 	C 	0.16130 0.92880 0.00672 0.10600
C 	C 	0.69210 0.24350 0.97720 -0.24700
H 	H 	0.66200 0.27350 0.00220 0.11100
H 	H 	0.77680 0.22180 0.99070 0.12100
H 	H 	0.62750 0.20570 0.96720 0.11300
C 	C 	0.83210 0.08170 0.04536 0.09900
O 	O 	0.64670 0.34565 0.14387 -0.41000
O 	O 	0.76450 0.28669 0.20515 -0.36400
O 	O 	0.44820 0.87242 0.25157 -0.51200
C 	C 	0.75830 0.32410 0.16700 0.30800
O 	O 	0.55770 0.82323 0.19643 -0.55700
C 	C 	0.93460 0.13940 0.12100 -0.22800
H 	H 	0.92530 0.09780 0.14170 0.09900
H 	H 	0.85920 0.17130 0.12080 0.10700
H 	H 	0.01560 0.16500 0.13390 0.10900
C 	C 	0.49950 0.87380 0.21326 0.47500
O 	O 	0.73370 0.36003 0.85721 -0.17000
C 	C 	0.75480 0.39530 0.81188 -0.21600
H 	H 	0.84920 0.40050 0.81180 0.09300
H 	H 	0.71350 0.44260 0.80990 0.10000
H 	H 	0.71570 0.36650 0.78370 0.09900
Zn	Zn	0.53573 0.19607 0.69242 1.23800
Zn	Zn	0.36333 0.26987 0.78082 1.18700
O 	O 	0.35320 0.17042 0.66067 -0.47400
O 	O 	0.51650 0.30129 0.68623 -0.50700
C 	C 	0.11320 0.11823 0.61127 -0.02500
H 	H 	0.19120 0.10670 0.59890 0.05900
C 	C 	0.12140 0.16262 0.65298 -0.11700
O 	O 	0.43360 0.35309 0.74881 -0.53300
O 	O 	0.25400 0.22723 0.71644 -0.51500
C 	C 	0.00540 0.18081 0.67060 0.02500
H 	H 	0.00930 0.21100 0.69840 0.03300
C 	C 	0.49010 0.55604 0.68447 -0.15600
C 	C 	0.25250 0.18960 0.67893 0.43200
C 	C 	0.49840 0.49507 0.55174 -0.03500
C 	C 	0.47430 0.35481 0.70772 0.43900
C 	C 	0.92600 0.06530 0.49597 0.03400
C 	C 	0.99140 0.04280 0.54244 -0.04600
O 	O 	0.70720 0.21287 0.43480 -0.15500
C 	C 	0.88370 0.15450 0.64716 -0.07200
C 	C 	0.93540 0.02270 0.45231 0.03400
C 	C 	0.49930 0.55723 0.63405 0.01100
H 	H 	0.50950 0.60150 0.61840 0.03500
C 	C 	0.99240 0.09050 0.58749 0.02300
C 	C 	0.49350 0.49273 0.60651 -0.01300
C 	C 	0.47770 0.42639 0.68182 -0.14900
C 	C 	0.48700 0.42809 0.63195 0.01000
H 	H 	0.48890 0.38430 0.61470 0.04200
C 	C 	0.87660 0.10910 0.60567 -0.04800
H 	H 	0.79410 0.09120 0.59020 0.06300
C 	C 	0.38690 0.52327 0.51929 0.03000
C 	C 	0.47530 0.49075 0.70789 0.08300
H 	H 	0.46380 0.49000 0.74130 0.01800
C 	C 	0.61010 0.47081 0.53248 0.02800
C 	C 	0.84950 0.13150 0.48918 -0.13600
H 	H 	0.84440 0.16080 0.51680 0.08800
C 	C 	0.26640 0.54380 0.53711 -0.13800
H 	H 	0.26120 0.53770 0.57080 0.08800
O 	O 	0.94010 0.38430 0.57117 -0.15400
C 	C 	0.79880 0.11130 0.40055 0.10500
C 	C 	0.72440 0.43970 0.56418 -0.13900
H 	H 	0.72300 0.43440 0.59820 0.08400
C 	C 	0.87080 0.04930 0.40470 -0.14100
H 	H 	0.87900 0.02310 0.37600 0.08500
C 	C 	0.78500 0.15240 0.44410 0.09900
O 	O 	0.04320 0.59170 0.51960 -0.14400
C 	C 	0.03120 0.57790 0.57130 -0.25300
H 	H 	0.09220 0.60880 0.59270 0.11200
H 	H 	0.94110 0.58780 0.57630 0.11500
H 	H 	0.05240 0.52780 0.57920 0.12100
C 	C 	0.16130 0.57120 0.50672 0.10500
C 	C 	0.69210 0.25650 0.47720 -0.24800
H 	H 	0.66200 0.22650 0.50220 0.11100
H 	H 	0.77680 0.27820 0.49070 0.12100
H 	H 	0.62750 0.29430 0.46720 0.11300
C 	C 	0.83210 0.41830 0.54536 0.09900
O 	O 	0.64670 0.15435 0.64387 -0.40900
O 	O 	0.76450 0.21331 0.70515 -0.36400
O 	O 	0.44820 0.62758 0.75157 -0.51200
C 	C 	0.75830 0.17590 0.66700 0.30800
O 	O 	0.55770 0.67677 0.69643 -0.55700
C 	C 	0.93460 0.36060 0.62100 -0.23000
H 	H 	0.92530 0.40220 0.64170 0.09900
H 	H 	0.85920 0.32870 0.62080 0.10800
H 	H 	0.01560 0.33500 0.63390 0.11000
C 	C 	0.49950 0.62620 0.71326 0.47500
O 	O 	0.73370 0.13997 0.35721 -0.17000
C 	C 	0.75480 0.10470 0.31188 -0.21600
H 	H 	0.84920 0.09950 0.31180 0.09300
H 	H 	0.71350 0.05740 0.30990 0.10000
H 	H 	0.71570 0.13350 0.28370 0.09900
Zn	Zn	0.46427 0.69607 0.80758 1.23800
Zn	Zn	0.63667 0.76987 0.71918 1.18700
O 	O 	0.64680 0.67042 0.83933 -0.47400
O 	O 	0.48350 0.80129 0.81377 -0.50700
C 	C 	0.88680 0.61823 0.88873 -0.02200
H 	H 	0.80880 0.60670 0.90110 0.05800
C 	C 	0.87860 0.66262 0.84702 -0.11900
O 	O 	0.56640 0.85309 0.75119 -0.53300
O 	O 	0.74600 0.72723 0.78356 -0.51600
C 	C 	0.99460 0.68081 0.82940 0.02800
H 	H 	0.99070 0.71100 0.80160 0.03200
C 	C 	0.50990 0.05604 0.81553 -0.15600
C 	C 	0.74750 0.68960 0.82107 0.43300
C 	C 	0.50160 0.99507 0.94826 -0.03500
C 	C 	0.52570 0.85481 0.79228 0.43900
C 	C 	0.07400 0.56530 0.00403 0.03400
C 	C 	0.00860 0.54280 0.95756 -0.04600
O 	O 	0.29280 0.71287 0.06520 -0.15500
C 	C 	0.11630 0.65450 0.85284 -0.07400
C 	C 	0.06460 0.52270 0.04769 0.03300
C 	C 	0.50070 0.05723 0.86595 0.01100
H 	H 	0.49050 0.10150 0.88160 0.03500
C 	C 	0.00760 0.59050 0.91251 0.02100
C 	C 	0.50650 0.99273 0.89349 -0.01300
C 	C 	0.52230 0.92639 0.81818 -0.14800
C 	C 	0.51300 0.92809 0.86805 0.00900
H 	H 	0.51110 0.88430 0.88530 0.04200
C 	C 	0.12340 0.60910 0.89433 -0.04600
H 	H 	0.20590 0.59120 0.90980 0.06200
C 	C 	0.61310 0.02327 0.98071 0.03000
C 	C 	0.52470 0.99075 0.79211 0.08300
H 	H 	0.53620 0.99000 0.75870 0.01800
C 	C 	0.38990 0.97081 0.96752 0.02800
C 	C 	0.15050 0.63150 0.01082 -0.13600
H 	H 	0.15560 0.66080 0.98320 0.08700
C 	C 	0.73360 0.04380 0.96289 -0.13800
H 	H 	0.73880 0.03770 0.92920 0.08800
O 	O 	0.05990 0.88430 0.92883 -0.15400
C 	C 	0.20120 0.61130 0.09945 0.10500
C 	C 	0.27560 0.93970 0.93582 -0.13900
H 	H 	0.27700 0.93440 0.90180 0.08400
C 	C 	0.12920 0.54930 0.09530 -0.14100
H 	H 	0.12100 0.52310 0.12400 0.08400
C 	C 	0.21500 0.65240 0.05590 0.09900
O 	O 	0.95680 0.09170 0.98040 -0.14500
C 	C 	0.96880 0.07790 0.92870 -0.24800
H 	H 	0.90780 0.10880 0.90730 0.11000
H 	H 	0.05890 0.08780 0.92370 0.11300
H 	H 	0.94760 0.02780 0.92080 0.12000
C 	C 	0.83870 0.07120 0.99328 0.10600
C 	C 	0.30790 0.75650 0.02280 -0.24700
H 	H 	0.33800 0.72650 0.99780 0.11100
H 	H 	0.22320 0.77820 0.00930 0.12100
H 	H 	0.37250 0.79430 0.03280 0.11300
C 	C 	0.16790 0.91830 0.95464 0.09900
O 	O 	0.35330 0.65435 0.85613 -0.41000
O 	O 	0.23550 0.71331 0.79485 -0.36400
O 	O 	0.55180 0.12758 0.74843 -0.51200
C 	C 	0.24170 0.67590 0.83300 0.30800
O 	O 	0.44230 0.17677 0.80357 -0.55700
C 	C 	0.06540 0.86060 0.87900 -0.22800
H 	H 	0.07470 0.90220 0.85830 0.09900
H 	H 	0.14080 0.82870 0.87920 0.10700
H 	H 	0.98440 0.83500 0.86610 0.10900
C 	C 	0.50050 0.12620 0.78674 0.47500
O 	O 	0.26630 0.63997 0.14279 -0.17000
C 	C 	0.24520 0.60470 0.18812 -0.21600
H 	H 	0.15080 0.59950 0.18820 0.09300
H 	H 	0.28650 0.55740 0.19010 0.10000
H 	H 	0.28430 0.63350 0.21630 0.09900
