data_crystal

_cell_length_a 10.17240
_cell_length_b 10.17240
_cell_length_c 9.60600
_cell_angle_alpha 90.00000
_cell_angle_beta  90.00000
_cell_angle_gamma 90.00000

_symmetry_space_group_name_	'P 1'
_symmetry_space_group_name_H-M	'P 1'

loop_
_symmetry_equiv_pos_as_xyz
  x,y,z

loop_
_atom_site_label
_atom_site_type_symbol
_atom_site_fract_x
_atom_site_fract_y
_atom_site_fract_z
_atom_site_charge
O 	O 	0.69700 0.48000 0.21840 -0.45100
O 	O 	0.19700 0.98000 0.71840 -0.45100
O 	O 	0.30300 0.52000 0.21840 -0.45100
O 	O 	0.80300 0.02000 0.71840 -0.45100
O 	O 	0.48000 0.30300 0.78160 -0.45200
O 	O 	0.98000 0.80300 0.28160 -0.45200
O 	O 	0.52000 0.69700 0.78160 -0.45200
O 	O 	0.02000 0.19700 0.28160 -0.45200
O 	O 	0.30300 0.48000 0.78160 -0.45200
O 	O 	0.80300 0.98000 0.28160 -0.45200
O 	O 	0.69700 0.52000 0.78160 -0.45200
O 	O 	0.19700 0.02000 0.28160 -0.45200
O 	O 	0.52000 0.30300 0.21840 -0.45200
O 	O 	0.02000 0.80300 0.71840 -0.45200
O 	O 	0.48000 0.69700 0.21840 -0.45200
O 	O 	0.98000 0.19700 0.71840 -0.45200
P 	P 	0.66460 0.33540 0.19180 0.55700
O 	O 	0.70010 0.29990 0.03800 -0.44500
O 	O 	0.74150 0.25850 0.28600 -0.37000
Co	Co	0.63320 0.36680 0.86840 1.16200
P 	P 	0.16460 0.83540 0.69180 0.55700
O 	O 	0.20010 0.79990 0.53800 -0.44600
O 	O 	0.24150 0.75850 0.78600 -0.37000
Co	Co	0.13320 0.86680 0.36840 1.16200
P 	P 	0.33540 0.66460 0.19180 0.55700
O 	O 	0.29990 0.70010 0.03800 -0.44500
O 	O 	0.25850 0.74150 0.28600 -0.37000
Co	Co	0.36680 0.63320 0.86840 1.16200
P 	P 	0.83540 0.16460 0.69180 0.55700
O 	O 	0.79990 0.20010 0.53800 -0.44600
O 	O 	0.75850 0.24150 0.78600 -0.37000
Co	Co	0.86680 0.13320 0.36840 1.16200
P 	P 	0.33540 0.33540 0.80820 0.55700
O 	O 	0.29990 0.29990 0.96200 -0.44500
O 	O 	0.25850 0.25850 0.71400 -0.37000
Co	Co	0.36680 0.36680 0.13160 1.16200
P 	P 	0.83540 0.83540 0.30820 0.55700
O 	O 	0.79990 0.79990 0.46200 -0.44600
O 	O 	0.75850 0.75850 0.21400 -0.37000
Co	Co	0.86680 0.86680 0.63160 1.16200
P 	P 	0.66460 0.66460 0.80820 0.55700
O 	O 	0.70010 0.70010 0.96200 -0.44500
O 	O 	0.74150 0.74150 0.71400 -0.37000
Co	Co	0.63320 0.63320 0.13160 1.16200
P 	P 	0.16460 0.16460 0.30820 0.55700
O 	O 	0.20010 0.20010 0.46200 -0.44600
O 	O 	0.24150 0.24150 0.21400 -0.37000
Co	Co	0.13320 0.13320 0.63160 1.16200
