data_crystal

_cell_length_a 8.25400
_cell_length_b 18.89600
_cell_length_c 18.00600
_cell_angle_alpha 90.00000
_cell_angle_beta  90.00000
_cell_angle_gamma 90.00000

_symmetry_space_group_name_	'P 1'
_symmetry_space_group_name_H-M	'P 1'

loop_
_symmetry_equiv_pos_as_xyz
  x,y,z

loop_
_atom_site_label
_atom_site_type_symbol
_atom_site_fract_x
_atom_site_fract_y
_atom_site_fract_z
_atom_site_charge
Cd	Cd	0.51269 0.97273 0.90663 1.21700
O 	O 	0.37320 0.36390 0.93880 -0.36900
O 	O 	0.21480 0.44260 0.88230 -0.37900
O 	O 	0.75830 0.00160 0.43390 -0.37900
O 	O 	0.58680 0.01100 0.52800 -0.36800
N 	N 	0.57510 0.08890 0.89900 -0.24200
N 	N 	0.70680 0.18890 0.91280 -0.11800
N 	N 	0.54390 0.20510 0.91980 -0.07800
N 	N 	0.41840 0.94120 0.79400 -0.24300
N 	N 	0.25490 0.93740 0.69680 -0.11800
N 	N 	0.38460 0.89200 0.68190 -0.08000
C 	C 	0.46270 0.14190 0.91210 0.07200
H 	H 	0.35110 0.13590 0.91510 0.00700
C 	C 	0.71910 0.11850 0.89940 0.09900
H 	H 	0.81600 0.09460 0.89150 -0.00500
C 	C 	0.83850 0.23750 0.91420 0.15200
C 	C 	0.98680 0.21680 0.94510 -0.16200
H 	H 	0.99850 0.17200 0.96580 0.09600
C 	C 	0.11580 0.26360 0.94450 0.06100
H 	H 	0.21580 0.24940 0.96300 0.03100
C 	C 	0.09750 0.33190 0.91630 -0.10300
C 	C 	0.94680 0.35250 0.88770 0.05200
H 	H 	0.93360 0.39780 0.86850 0.03300
C 	C 	0.81670 0.30560 0.88780 -0.15500
H 	H 	0.71590 0.31990 0.87020 0.09000
C 	C 	0.23700 0.38280 0.91180 0.29500
C 	C 	0.48540 0.89470 0.74210 0.07400
H 	H 	0.58200 0.86990 0.74750 0.00800
C 	C 	0.28260 0.96480 0.76550 0.09800
H 	H 	0.21370 0.99640 0.78930 -0.00200
C 	C 	0.12200 0.95220 0.64890 0.15800
C 	C 	0.15290 0.96390 0.57410 -0.15900
H 	H 	0.25800 0.96130 0.55560 0.09200
C 	C 	0.02340 0.97970 0.52690 0.05300
H 	H 	0.04240 0.98740 0.47670 0.03100
C 	C 	0.86600 0.98390 0.55450 -0.10800
C 	C 	0.83880 0.97290 0.63010 0.06700
H 	H 	0.73390 0.97600 0.64870 0.02600
C 	C 	0.96610 0.95720 0.67830 -0.17000
H 	H 	0.94760 0.95020 0.72870 0.10300
C 	C 	0.72750 0.99980 0.50270 0.30500
Cd	Cd	0.48731 0.02727 0.40663 1.21900
O 	O 	0.62680 0.63610 0.43880 -0.36500
O 	O 	0.78520 0.55740 0.38230 -0.37800
O 	O 	0.24170 0.99840 0.93390 -0.38800
O 	O 	0.41320 0.98900 0.02800 -0.36300
N 	N 	0.42490 0.91110 0.39900 -0.24100
N 	N 	0.29320 0.81110 0.41280 -0.11800
N 	N 	0.45610 0.79490 0.41980 -0.07700
N 	N 	0.58160 0.05880 0.29400 -0.24300
N 	N 	0.74510 0.06260 0.19680 -0.11900
N 	N 	0.61540 0.10800 0.18190 -0.07900
C 	C 	0.53730 0.85810 0.41210 0.07300
H 	H 	0.64890 0.86410 0.41510 0.00800
C 	C 	0.28090 0.88150 0.39940 0.10100
H 	H 	0.18400 0.90540 0.39150 -0.00400
C 	C 	0.16150 0.76250 0.41420 0.15400
C 	C 	0.01320 0.78320 0.44510 -0.16200
H 	H 	0.00150 0.82800 0.46580 0.09800
C 	C 	0.88420 0.73640 0.44450 0.06200
H 	H 	0.78420 0.75060 0.46300 0.03200
C 	C 	0.90250 0.66810 0.41630 -0.10200
C 	C 	0.05320 0.64750 0.38770 0.05300
H 	H 	0.06640 0.60220 0.36850 0.03200
C 	C 	0.18330 0.69440 0.38780 -0.15500
H 	H 	0.28410 0.68010 0.37020 0.09100
C 	C 	0.76300 0.61720 0.41180 0.29500
C 	C 	0.51460 0.10530 0.24210 0.07500
H 	H 	0.41800 0.13010 0.24750 0.00900
C 	C 	0.71740 0.03520 0.26550 0.09900
H 	H 	0.78630 0.00360 0.28930 -0.00200
C 	C 	0.87800 0.04780 0.14890 0.16800
C 	C 	0.84710 0.03610 0.07410 -0.17600
H 	H 	0.74200 0.03870 0.05560 0.10100
C 	C 	0.97660 0.02030 0.02690 0.08500
H 	H 	0.95760 0.01260 0.97670 0.01500
C 	C 	0.13400 0.01610 0.05450 -0.12200
C 	C 	0.16120 0.02710 0.13010 0.07900
H 	H 	0.26610 0.02400 0.14870 0.02200
C 	C 	0.03390 0.04280 0.17830 -0.18100
H 	H 	0.05240 0.04980 0.22870 0.10700
C 	C 	0.27250 0.00020 0.00270 0.31800
Cd	Cd	0.48731 0.47273 0.90663 1.21800
O 	O 	0.62680 0.86390 0.93880 -0.36800
O 	O 	0.78520 0.94260 0.88230 -0.37900
O 	O 	0.24170 0.50160 0.43390 -0.37800
O 	O 	0.41320 0.51100 0.52800 -0.36700
N 	N 	0.42490 0.58890 0.89900 -0.24200
N 	N 	0.29320 0.68890 0.91280 -0.11800
N 	N 	0.45610 0.70510 0.91980 -0.07900
N 	N 	0.58160 0.44120 0.79400 -0.24300
N 	N 	0.74510 0.43740 0.69680 -0.11800
N 	N 	0.61540 0.39200 0.68190 -0.08000
C 	C 	0.53730 0.64190 0.91210 0.07100
H 	H 	0.64890 0.63590 0.91510 0.00700
C 	C 	0.28090 0.61850 0.89940 0.09900
H 	H 	0.18400 0.59460 0.89150 -0.00500
C 	C 	0.16150 0.73750 0.91420 0.15200
C 	C 	0.01320 0.71680 0.94510 -0.16200
H 	H 	0.00150 0.67200 0.96580 0.09500
C 	C 	0.88420 0.76360 0.94450 0.06100
H 	H 	0.78420 0.74940 0.96300 0.03000
C 	C 	0.90250 0.83190 0.91630 -0.10300
C 	C 	0.05320 0.85250 0.88770 0.05200
H 	H 	0.06640 0.89780 0.86850 0.03300
C 	C 	0.18330 0.80560 0.88780 -0.15500
H 	H 	0.28410 0.81990 0.87020 0.09000
C 	C 	0.76300 0.88280 0.91180 0.29500
C 	C 	0.51460 0.39470 0.74210 0.07400
H 	H 	0.41800 0.36990 0.74750 0.00800
C 	C 	0.71740 0.46480 0.76550 0.09800
H 	H 	0.78630 0.49640 0.78930 -0.00200
C 	C 	0.87800 0.45220 0.64890 0.15700
C 	C 	0.84710 0.46390 0.57410 -0.15800
H 	H 	0.74200 0.46130 0.55560 0.09200
C 	C 	0.97660 0.47970 0.52690 0.05200
H 	H 	0.95760 0.48740 0.47670 0.03100
C 	C 	0.13400 0.48390 0.55450 -0.10800
C 	C 	0.16120 0.47290 0.63010 0.06600
H 	H 	0.26610 0.47600 0.64870 0.02600
C 	C 	0.03390 0.45720 0.67830 -0.17000
H 	H 	0.05240 0.45020 0.72870 0.10300
C 	C 	0.27250 0.49980 0.50270 0.30300
Cd	Cd	0.51269 0.52727 0.40663 1.21900
O 	O 	0.37320 0.13610 0.43880 -0.36500
O 	O 	0.21480 0.05740 0.38230 -0.37900
O 	O 	0.75830 0.49840 0.93390 -0.38900
O 	O 	0.58680 0.48900 0.02800 -0.36700
N 	N 	0.57510 0.41110 0.39900 -0.24100
N 	N 	0.70680 0.31110 0.41280 -0.11800
N 	N 	0.54390 0.29490 0.41980 -0.07700
N 	N 	0.41840 0.55880 0.29400 -0.24300
N 	N 	0.25490 0.56260 0.19680 -0.12000
N 	N 	0.38460 0.60800 0.18190 -0.07800
C 	C 	0.46270 0.35810 0.41210 0.07300
H 	H 	0.35110 0.36410 0.41510 0.00800
C 	C 	0.71910 0.38150 0.39940 0.10100
H 	H 	0.81600 0.40540 0.39150 -0.00500
C 	C 	0.83850 0.26250 0.41420 0.15400
C 	C 	0.98680 0.28320 0.44510 -0.16200
H 	H 	0.99850 0.32800 0.46580 0.09800
C 	C 	0.11580 0.23640 0.44450 0.06200
H 	H 	0.21580 0.25060 0.46300 0.03200
C 	C 	0.09750 0.16810 0.41630 -0.10300
C 	C 	0.94680 0.14750 0.38770 0.05400
H 	H 	0.93360 0.10220 0.36850 0.03200
C 	C 	0.81670 0.19440 0.38780 -0.15500
H 	H 	0.71590 0.18010 0.37020 0.09100
C 	C 	0.23700 0.11720 0.41180 0.29500
C 	C 	0.48540 0.60530 0.24210 0.07500
H 	H 	0.58200 0.63010 0.24750 0.00900
C 	C 	0.28260 0.53520 0.26550 0.09900
H 	H 	0.21370 0.50360 0.28930 -0.00200
C 	C 	0.12200 0.54780 0.14890 0.17000
C 	C 	0.15290 0.53610 0.07410 -0.18000
H 	H 	0.25800 0.53870 0.05560 0.10300
C 	C 	0.02340 0.52030 0.02690 0.09200
H 	H 	0.04240 0.51260 0.97670 0.01000
C 	C 	0.86600 0.51610 0.05450 -0.12600
C 	C 	0.83880 0.52710 0.13010 0.08200
H 	H 	0.73390 0.52400 0.14870 0.02100
C 	C 	0.96610 0.54280 0.17830 -0.18200
H 	H 	0.94760 0.54980 0.22870 0.10700
C 	C 	0.72750 0.50020 0.00270 0.32400
