data_crystal

_cell_length_a 13.49500
_cell_length_b 13.49500
_cell_length_c 9.39600
_cell_angle_alpha 90.00000
_cell_angle_beta  90.00000
_cell_angle_gamma 120.00000

_symmetry_space_group_name_	'P 1'
_symmetry_space_group_name_H-M	'P 1'

loop_
_symmetry_equiv_pos_as_xyz
  x,y,z

loop_
_atom_site_label
_atom_site_type_symbol
_atom_site_fract_x
_atom_site_fract_y
_atom_site_fract_z
_atom_site_charge
Fe	Fe	0.14600 0.44080 0.90180 1.23400
P 	P 	0.36770 0.49550 0.09600 0.49800
P 	P 	0.03620 0.18980 0.74100 0.44800
O 	O 	0.28500 0.43670 0.97160 -0.34700
O 	O 	0.16420 0.54400 0.06250 -0.40100
O 	O 	0.99490 0.42300 0.85650 -0.28700
O 	O 	0.11750 0.31780 0.75800 -0.34900
O 	O 	0.02270 0.13100 0.88490 -0.41600
O 	O 	0.07450 0.14210 0.62210 -0.37700
O 	O 	0.22720 0.55700 0.76640 -0.39200
O 	O 	0.29900 0.50190 0.22830 -0.15200
O 	O 	0.91500 0.17180 0.69920 -0.11800
Fe	Fe	0.55920 0.70520 0.90180 1.26400
P 	P 	0.50450 0.87220 0.09600 0.50300
P 	P 	0.81020 0.84640 0.74100 0.52900
O 	O 	0.56330 0.84830 0.97160 -0.32600
O 	O 	0.45600 0.62020 0.06250 -0.37900
O 	O 	0.57700 0.57190 0.85650 -0.36000
O 	O 	0.68220 0.79970 0.75800 -0.32000
O 	O 	0.86900 0.89170 0.88490 -0.28000
O 	O 	0.85790 0.93240 0.62210 -0.24800
O 	O 	0.44300 0.67020 0.76640 -0.37000
O 	O 	0.49810 0.79710 0.22830 -0.13700
O 	O 	0.82820 0.74320 0.69920 -0.14700
Fe	Fe	0.29480 0.85400 0.90180 1.28600
P 	P 	0.12780 0.63230 0.09600 0.49800
P 	P 	0.15360 0.96380 0.74100 0.60200
O 	O 	0.15170 0.71500 0.97160 -0.36900
O 	O 	0.37980 0.83580 0.06250 -0.35900
O 	O 	0.42810 0.00510 0.85650 -0.42900
O 	O 	0.20030 0.88250 0.75800 -0.33100
O 	O 	0.10830 0.97730 0.88490 -0.33600
O 	O 	0.06760 0.92550 0.62210 -0.34100
O 	O 	0.32980 0.77280 0.76640 -0.36300
O 	O 	0.20290 0.70100 0.22830 -0.14800
O 	O 	0.25680 0.08500 0.69920 -0.24100
Fe	Fe	0.85400 0.55920 0.09820 1.26400
P 	P 	0.63230 0.50450 0.90400 0.56200
P 	P 	0.96380 0.81020 0.25900 0.60200
O 	O 	0.71500 0.56330 0.02840 -0.41500
O 	O 	0.83580 0.45600 0.93750 -0.32200
O 	O 	0.00510 0.57700 0.14350 -0.44500
O 	O 	0.88250 0.68220 0.24200 -0.32300
O 	O 	0.97730 0.86900 0.11510 -0.30500
O 	O 	0.92550 0.85790 0.37790 -0.26900
O 	O 	0.77280 0.44300 0.23360 -0.36700
O 	O 	0.70100 0.49810 0.77170 -0.13900
O 	O 	0.08500 0.82820 0.30080 -0.22200
Fe	Fe	0.44080 0.29480 0.09820 1.23500
P 	P 	0.49550 0.12780 0.90400 0.56400
P 	P 	0.18980 0.15360 0.25900 0.52700
O 	O 	0.43670 0.15170 0.02840 -0.44600
O 	O 	0.54400 0.37980 0.93750 -0.34100
O 	O 	0.42300 0.42810 0.14350 -0.37400
O 	O 	0.31780 0.20030 0.24200 -0.35300
O 	O 	0.13100 0.10830 0.11510 -0.44900
O 	O 	0.14210 0.06760 0.37790 -0.40100
O 	O 	0.55700 0.32980 0.23360 -0.38800
O 	O 	0.50190 0.20290 0.77170 -0.15500
O 	O 	0.17180 0.25680 0.30080 -0.20500
Fe	Fe	0.70520 0.14600 0.09820 1.21000
P 	P 	0.87220 0.36770 0.90400 0.56800
P 	P 	0.84640 0.03620 0.25900 0.45600
O 	O 	0.84830 0.28500 0.02840 -0.39800
O 	O 	0.62020 0.16420 0.93750 -0.35900
O 	O 	0.57190 0.99490 0.14350 -0.30100
O 	O 	0.79970 0.11750 0.24200 -0.34100
O 	O 	0.89170 0.02270 0.11510 -0.38500
O 	O 	0.93240 0.07450 0.37790 -0.29600
O 	O 	0.67020 0.22720 0.23360 -0.39700
O 	O 	0.79710 0.29900 0.77170 -0.14200
O 	O 	0.74320 0.91500 0.30080 -0.11000
Fe	Fe	-0.00000 0.00000 0.50000 1.14400
Fe	Fe	-0.00000 0.00000 -0.00000 1.13800
P 	P 	0.33333 0.66667 0.71400 0.56400
O 	O 	0.33333 0.66667 0.55100 -0.14400
P 	P 	0.66667 0.33333 0.28600 0.56100
O 	O 	0.66667 0.33333 0.44900 -0.14200
