data_crystal

_cell_length_a 13.51200
_cell_length_b 16.19400
_cell_length_c 4.67700
_cell_angle_alpha 90.00000
_cell_angle_beta  90.00000
_cell_angle_gamma 90.00000

_symmetry_space_group_name_	'P 1'
_symmetry_space_group_name_H-M	'P 1'

loop_
_symmetry_equiv_pos_as_xyz
  x,y,z

loop_
_atom_site_label
_atom_site_type_symbol
_atom_site_fract_x
_atom_site_fract_y
_atom_site_fract_z
_atom_site_charge
V 	V 	0.51110 0.48510 0.97840 1.06900
P 	P 	0.63620 0.58030 0.49300 0.54200
O 	O 	0.55350 0.57900 0.71600 -0.51400
O 	O 	0.61750 0.51930 0.25180 -0.51200
O 	O 	0.64680 0.66920 0.38530 -0.52200
O 	O 	0.42980 0.59220 0.17510 -0.42500
V 	V 	0.98890 0.01490 0.97840 1.06500
P 	P 	0.86380 0.91970 0.49300 0.54100
O 	O 	0.94650 0.92100 0.71600 -0.50800
O 	O 	0.88250 0.98070 0.25180 -0.50600
O 	O 	0.85320 0.83080 0.38530 -0.52000
O 	O 	0.07020 0.90780 0.17510 -0.43000
V 	V 	0.48890 0.98510 0.02160 1.06900
P 	P 	0.36380 0.08030 0.50700 0.54100
O 	O 	0.44650 0.07900 0.28400 -0.51200
O 	O 	0.38250 0.01930 0.74820 -0.51100
O 	O 	0.35320 0.16920 0.61470 -0.52200
O 	O 	0.57020 0.09220 0.82490 -0.42500
V 	V 	0.01110 0.51490 0.02160 1.06900
P 	P 	0.13620 0.41970 0.50700 0.54300
O 	O 	0.05350 0.42100 0.28400 -0.51300
O 	O 	0.11750 0.48070 0.74820 -0.51000
O 	O 	0.14680 0.33080 0.61470 -0.52000
O 	O 	0.92980 0.40780 0.82490 -0.42600
V 	V 	0.48890 0.51490 0.02160 1.07000
P 	P 	0.36380 0.41970 0.50700 0.54300
O 	O 	0.44650 0.42100 0.28400 -0.51300
O 	O 	0.38250 0.48070 0.74820 -0.51100
O 	O 	0.35320 0.33080 0.61470 -0.52100
O 	O 	0.57020 0.40780 0.82490 -0.42400
V 	V 	0.01110 0.98510 0.02160 1.06600
P 	P 	0.13620 0.08030 0.50700 0.54200
O 	O 	0.05350 0.07900 0.28400 -0.50800
O 	O 	0.11750 0.01930 0.74820 -0.50600
O 	O 	0.14680 0.16920 0.61470 -0.52000
O 	O 	0.92980 0.09220 0.82490 -0.43000
V 	V 	0.51110 0.01490 0.97840 1.06900
P 	P 	0.63620 0.91970 0.49300 0.54100
O 	O 	0.55350 0.92100 0.71600 -0.51200
O 	O 	0.61750 0.98070 0.25180 -0.51100
O 	O 	0.64680 0.83080 0.38530 -0.52200
O 	O 	0.42980 0.90780 0.17510 -0.42500
V 	V 	0.98890 0.48510 0.97840 1.06900
P 	P 	0.86380 0.58030 0.49300 0.54300
O 	O 	0.94650 0.57900 0.71600 -0.51300
O 	O 	0.88250 0.51930 0.25180 -0.51000
O 	O 	0.85320 0.66920 0.38530 -0.52000
O 	O 	0.07020 0.59220 0.17510 -0.42600
V 	V 	0.75000 0.75000 0.28530 1.71100
V 	V 	0.25000 0.25000 0.71470 1.71100
C 	C 	0.75000 0.55200 0.66740 -0.52500
H 	H 	0.75000 0.49260 0.69300 0.22200
H 	H 	0.75000 0.57670 0.85630 0.16300
C 	C 	0.75000 0.94800 0.66740 -0.51300
H 	H 	0.75000 0.00740 0.69300 0.21400
H 	H 	0.75000 0.92330 0.85630 0.16100
C 	C 	0.25000 0.05200 0.33260 -0.51300
H 	H 	0.25000 0.99260 0.30700 0.21400
H 	H 	0.25000 0.07670 0.14370 0.16100
C 	C 	0.25000 0.44800 0.33260 -0.52500
H 	H 	0.25000 0.50740 0.30700 0.22200
H 	H 	0.25000 0.42330 0.14370 0.16300
