data_crystal

_cell_length_a 7.45480
_cell_length_b 8.08250
_cell_length_c 10.16600
_cell_angle_alpha 75.24400
_cell_angle_beta  68.88300
_cell_angle_gamma 80.64800

_symmetry_space_group_name_	'P 1'
_symmetry_space_group_name_H-M	'P 1'

loop_
_symmetry_equiv_pos_as_xyz
  x,y,z

loop_
_atom_site_label
_atom_site_type_symbol
_atom_site_fract_x
_atom_site_fract_y
_atom_site_fract_z
_atom_site_charge
V 	V 	0.24400 0.51640 0.26220 1.72200
V 	V 	0.30740 0.76140 0.74720 1.70700
P 	P 	0.53230 0.73520 0.96880 0.47000
P 	P 	0.90270 0.27700 0.47850 0.44900
O 	O 	0.47830 0.63920 0.12610 -0.53400
O 	O 	0.71130 0.65120 0.86900 -0.55000
O 	O 	0.09930 0.34480 0.43400 -0.52800
O 	O 	0.74340 0.35860 0.59460 -0.50500
O 	O 	0.35630 0.75940 0.91940 -0.64800
O 	O 	0.84070 0.30970 0.34470 -0.60900
O 	O 	0.48660 0.34160 0.32850 -0.71700
C 	C 	0.58790 0.94770 0.95800 -0.20400
C 	C 	0.92160 0.04950 0.55190 -0.21000
H 	H 	0.69140 0.93940 0.99660 0.04100
H 	H 	0.63280 0.00710 0.85760 0.05300
H 	H 	0.79830 0.00440 0.57530 0.04200
H 	H 	0.94990 0.03070 0.64080 0.02300
V 	V 	0.75600 0.48360 0.73780 1.72100
V 	V 	0.69260 0.23860 0.25280 1.70600
P 	P 	0.46770 0.26480 0.03120 0.46900
P 	P 	0.09730 0.72300 0.52150 0.44800
O 	O 	0.52170 0.36080 0.87390 -0.53400
O 	O 	0.28870 0.34880 0.13100 -0.55000
O 	O 	0.90070 0.65520 0.56600 -0.52800
O 	O 	0.25660 0.64140 0.40540 -0.50500
O 	O 	0.64370 0.24060 0.08060 -0.64800
O 	O 	0.15930 0.69030 0.65530 -0.60900
O 	O 	0.51340 0.65840 0.67150 -0.71700
C 	C 	0.41210 0.05230 0.04200 -0.20400
C 	C 	0.07840 0.95050 0.44810 -0.21000
H 	H 	0.30860 0.06060 0.00340 0.04100
H 	H 	0.36720 0.99290 0.14240 0.05300
H 	H 	0.20170 0.99560 0.42470 0.04200
H 	H 	0.05010 0.96930 0.35920 0.02300
