data_crystal

_cell_length_a 11.13500
_cell_length_b 12.38000
_cell_length_c 14.60700
_cell_angle_alpha 84.66200
_cell_angle_beta  89.53700
_cell_angle_gamma 67.26100

_symmetry_space_group_name_	'P 1'
_symmetry_space_group_name_H-M	'P 1'

loop_
_symmetry_equiv_pos_as_xyz
  x,y,z

loop_
_atom_site_label
_atom_site_type_symbol
_atom_site_fract_x
_atom_site_fract_y
_atom_site_fract_z
_atom_site_charge
Ag	Ag	0.27092 0.51881 0.73996 0.48900
Ag	Ag	0.82223 0.90341 0.91585 0.51400
Ag	Ag	0.24109 0.09228 0.59621 0.51100
N 	N 	0.09600 0.62760 0.63370 -0.17700
N 	N 	0.89550 0.77600 0.51330 -0.16600
N 	N 	0.10440 0.03340 0.70030 -0.15300
N 	N 	0.96000 0.96150 0.82910 -0.18300
S 	S 	0.01157 0.75436 0.77545 -0.15400
C 	C 	0.08340 0.60320 0.54860 0.00200
H 	H 	0.14390 0.53420 0.52890 0.00300
C 	C 	0.98500 0.67550 0.48840 -0.01500
H 	H 	0.98050 0.65430 0.42950 0.01100
C 	C 	0.90430 0.79900 0.59840 -0.03300
H 	H 	0.84140 0.86640 0.61860 0.02100
C 	C 	0.00270 0.72740 0.65820 0.05600
C 	C 	0.02370 0.89370 0.76460 0.05700
C 	C 	0.09640 0.92800 0.70160 -0.04100
H 	H 	0.14140 0.87720 0.65870 0.01800
C 	C 	0.04160 0.10090 0.76550 -0.01100
H 	H 	0.04610 0.17410 0.76730 0.01400
C 	C 	0.97060 0.06570 0.83000 -0.00500
H 	H 	0.92930 0.11470 0.87500 -0.00200
N 	N 	0.63420 0.95100 0.81650 -0.15400
N 	N 	0.42270 0.02270 0.69300 -0.18000
N 	N 	0.24720 0.39000 0.85110 -0.18300
N 	N 	0.19760 0.23110 0.97800 -0.16400
S 	S 	0.33227 0.24516 0.72383 -0.16700
C 	C 	0.61270 0.87600 0.76560 -0.00700
H 	H 	0.67020 0.79750 0.77210 0.01300
C 	C 	0.50870 0.90980 0.70340 -0.00900
H 	H 	0.49800 0.85460 0.66880 -0.00100
C 	C 	0.44250 0.09630 0.74500 0.06400
C 	C 	0.54700 0.06260 0.80560 -0.04100
H 	H 	0.55760 0.11820 0.83980 0.02100
C 	C 	0.24980 0.20020 0.89650 -0.04200
H 	H 	0.26950 0.12380 0.88190 0.02600
C 	C 	0.27470 0.27870 0.83430 0.06300
C 	C 	0.19350 0.42120 0.93190 -0.00400
H 	H 	0.17090 0.49830 0.94560 0.00500
C 	C 	0.17130 0.34310 0.99400 -0.00600
H 	H 	0.13650 0.36800 0.05010 0.00900
Ag	Ag	0.72908 0.48119 0.26004 0.49000
Ag	Ag	0.17777 0.09659 0.08415 0.51500
Ag	Ag	0.75891 0.90772 0.40379 0.51100
N 	N 	0.90400 0.37240 0.36630 -0.17700
N 	N 	0.10450 0.22400 0.48670 -0.16600
N 	N 	0.89560 0.96660 0.29970 -0.15300
N 	N 	0.04000 0.03850 0.17090 -0.18300
S 	S 	0.98843 0.24564 0.22455 -0.15400
C 	C 	0.91660 0.39680 0.45140 0.00200
H 	H 	0.85610 0.46580 0.47110 0.00300
C 	C 	0.01500 0.32450 0.51160 -0.01500
H 	H 	0.01950 0.34570 0.57050 0.01100
C 	C 	0.09570 0.20100 0.40160 -0.03300
H 	H 	0.15860 0.13360 0.38140 0.02100
C 	C 	0.99730 0.27260 0.34180 0.05600
C 	C 	0.97630 0.10630 0.23540 0.05700
C 	C 	0.90360 0.07200 0.29840 -0.04100
H 	H 	0.85860 0.12280 0.34130 0.01800
C 	C 	0.95840 0.89910 0.23450 -0.01100
H 	H 	0.95390 0.82590 0.23270 0.01400
C 	C 	0.02940 0.93430 0.17000 -0.00500
H 	H 	0.07070 0.88530 0.12500 -0.00200
N 	N 	0.36580 0.04900 0.18350 -0.15400
N 	N 	0.57730 0.97730 0.30700 -0.18000
N 	N 	0.75280 0.61000 0.14890 -0.18300
N 	N 	0.80240 0.76890 0.02200 -0.16400
S 	S 	0.66773 0.75484 0.27617 -0.16700
C 	C 	0.38730 0.12400 0.23440 -0.00700
H 	H 	0.32980 0.20250 0.22790 0.01300
C 	C 	0.49130 0.09020 0.29660 -0.00900
H 	H 	0.50200 0.14540 0.33120 -0.00100
C 	C 	0.55750 0.90370 0.25500 0.06400
C 	C 	0.45300 0.93740 0.19440 -0.04100
H 	H 	0.44240 0.88180 0.16020 0.02100
C 	C 	0.75020 0.79980 0.10350 -0.04200
H 	H 	0.73050 0.87620 0.11810 0.02600
C 	C 	0.72530 0.72130 0.16570 0.06300
C 	C 	0.80650 0.57880 0.06810 -0.00400
H 	H 	0.82910 0.50170 0.05440 0.00500
C 	C 	0.82870 0.65690 0.00600 -0.00600
H 	H 	0.86350 0.63200 0.94990 0.00900
