data_crystal

_cell_length_a 22.25490
_cell_length_b 9.48680
_cell_length_c 15.71840
_cell_angle_alpha 90.00000
_cell_angle_beta  91.47600
_cell_angle_gamma 90.00000

_symmetry_space_group_name_	'P 1'
_symmetry_space_group_name_H-M	'P 1'

loop_
_symmetry_equiv_pos_as_xyz
  x,y,z

loop_
_atom_site_label
_atom_site_type_symbol
_atom_site_fract_x
_atom_site_fract_y
_atom_site_fract_z
_atom_site_charge
Ag	Ag	0.32965 0.18669 0.60842 0.51700
S 	S 	0.28822 0.14533 0.41815 -0.15100
N 	N 	0.38349 0.23780 0.49531 -0.18500
N 	N 	0.44131 0.34560 0.35557 -0.16900
N 	N 	0.21553 0.16399 0.28465 -0.16900
N 	N 	0.28255 0.99120 0.18023 -0.15900
C 	C 	0.35895 0.22700 0.41622 0.05900
C 	C 	0.38768 0.28300 0.34679 -0.04000
H 	H 	0.36930 0.27690 0.29310 0.02600
C 	C 	0.46518 0.35440 0.43402 -0.02000
H 	H 	0.50230 0.39790 0.44210 0.00100
C 	C 	0.43648 0.30100 0.50346 0.00300
H 	H 	0.45460 0.30930 0.55720 -0.01400
C 	C 	0.26849 0.11070 0.31029 0.06300
C 	C 	0.30153 0.02320 0.25929 -0.03300
H 	H 	0.33760 0.98580 0.28020 0.01800
C 	C 	0.23048 0.04580 0.15353 -0.00600
H 	H 	0.21650 0.02720 0.09840 0.01500
C 	C 	0.19676 0.12950 0.20592 0.00300
H 	H 	0.15980 0.16290 0.18580 0.00200
Ag	Ag	0.82965 0.68669 0.60842 0.51800
S 	S 	0.78822 0.64533 0.41815 -0.15100
N 	N 	0.88349 0.73780 0.49531 -0.17900
N 	N 	0.94131 0.84560 0.35557 -0.17400
N 	N 	0.71553 0.66399 0.28465 -0.16900
N 	N 	0.78255 0.49120 0.18023 -0.15800
C 	C 	0.85895 0.72700 0.41622 0.05800
C 	C 	0.88768 0.78300 0.34679 -0.03500
H 	H 	0.86930 0.77690 0.29310 0.02700
C 	C 	0.96518 0.85440 0.43402 0.04000
H 	H 	0.00230 0.89790 0.44210 -0.03700
C 	C 	0.93648 0.80100 0.50346 -0.02400
H 	H 	0.95460 0.80930 0.55720 0.00300
C 	C 	0.76849 0.61070 0.31029 0.06400
C 	C 	0.80153 0.52320 0.25929 -0.03400
H 	H 	0.83760 0.48580 0.28020 0.02100
C 	C 	0.73048 0.54580 0.15353 -0.00600
H 	H 	0.71650 0.52720 0.09840 0.01500
C 	C 	0.69676 0.62950 0.20592 0.00400
H 	H 	0.65980 0.66290 0.18580 0.00300
Ag	Ag	0.67035 0.18669 0.89158 0.51600
S 	S 	0.71178 0.14533 0.08185 -0.15100
N 	N 	0.61651 0.23780 0.00469 -0.18400
N 	N 	0.55869 0.34560 0.14443 -0.17100
N 	N 	0.78447 0.16399 0.21535 -0.16800
N 	N 	0.71745 0.99120 0.31977 -0.16000
C 	C 	0.64105 0.22700 0.08378 0.05900
C 	C 	0.61232 0.28300 0.15321 -0.03900
H 	H 	0.63070 0.27690 0.20690 0.02500
C 	C 	0.53482 0.35440 0.06598 -0.01500
H 	H 	0.49770 0.39790 0.05790 -0.00000
C 	C 	0.56352 0.30100 0.99654 -0.00300
H 	H 	0.54540 0.30930 0.94280 -0.01200
C 	C 	0.73151 0.11070 0.18971 0.06300
C 	C 	0.69847 0.02320 0.24071 -0.03300
H 	H 	0.66240 0.98580 0.21980 0.01800
C 	C 	0.76952 0.04580 0.34647 -0.00500
H 	H 	0.78350 0.02720 0.40160 0.01500
C 	C 	0.80324 0.12950 0.29408 0.00300
H 	H 	0.84020 0.16290 0.31420 0.00600
Ag	Ag	0.17035 0.68669 0.89158 0.51400
S 	S 	0.21178 0.64533 0.08185 -0.15200
N 	N 	0.11651 0.73780 0.00469 -0.19000
N 	N 	0.05869 0.84560 0.14443 -0.16300
N 	N 	0.28447 0.66399 0.21535 -0.16900
N 	N 	0.21745 0.49120 0.31977 -0.16000
C 	C 	0.14105 0.72700 0.08378 0.06100
C 	C 	0.11232 0.78300 0.15321 -0.04300
H 	H 	0.13070 0.77690 0.20690 0.02500
C 	C 	0.03482 0.85440 0.06598 -0.07300
H 	H 	0.99770 0.89790 0.05790 0.03800
C 	C 	0.06352 0.80100 0.99654 0.02300
H 	H 	0.04540 0.80930 0.94280 -0.02700
C 	C 	0.23151 0.61070 0.18971 0.06300
C 	C 	0.19847 0.52320 0.24071 -0.03400
H 	H 	0.16240 0.48580 0.21980 0.01700
C 	C 	0.26952 0.54580 0.34647 -0.00600
H 	H 	0.28350 0.52720 0.40160 0.01400
C 	C 	0.30324 0.62950 0.29408 0.00300
H 	H 	0.34020 0.66290 0.31420 0.00300
Ag	Ag	0.67035 0.81331 0.39158 0.51600
S 	S 	0.71178 0.85467 0.58185 -0.15200
N 	N 	0.61651 0.76220 0.50469 -0.18600
N 	N 	0.55869 0.65440 0.64443 -0.17000
N 	N 	0.78447 0.83601 0.71535 -0.16800
N 	N 	0.71745 0.00880 0.81977 -0.16000
C 	C 	0.64105 0.77300 0.58378 0.05900
C 	C 	0.61232 0.71700 0.65321 -0.03900
H 	H 	0.63070 0.72310 0.70690 0.02500
C 	C 	0.53482 0.64560 0.56598 -0.02000
H 	H 	0.49770 0.60210 0.55790 0.00100
C 	C 	0.56352 0.69900 0.49654 0.00300
H 	H 	0.54540 0.69070 0.44280 -0.01400
C 	C 	0.73151 0.88930 0.68971 0.06300
C 	C 	0.69847 0.97680 0.74071 -0.03300
H 	H 	0.66240 0.01420 0.71980 0.01800
C 	C 	0.76952 0.95420 0.84647 -0.00500
H 	H 	0.78350 0.97280 0.90160 0.01400
C 	C 	0.80324 0.87050 0.79408 0.00300
H 	H 	0.84020 0.83710 0.81420 0.00600
Ag	Ag	0.17035 0.31331 0.39158 0.51500
S 	S 	0.21178 0.35467 0.58185 -0.15400
N 	N 	0.11651 0.26220 0.50469 -0.19200
N 	N 	0.05869 0.15440 0.64443 -0.16200
N 	N 	0.28447 0.33601 0.71535 -0.16900
N 	N 	0.21745 0.50880 0.81977 -0.16000
C 	C 	0.14105 0.27300 0.58378 0.06100
C 	C 	0.11232 0.21700 0.65321 -0.04400
H 	H 	0.13070 0.22310 0.70690 0.02500
C 	C 	0.03482 0.14560 0.56598 -0.08000
H 	H 	0.99770 0.10210 0.55790 0.04100
C 	C 	0.06352 0.19900 0.49654 0.03100
H 	H 	0.04540 0.19070 0.44280 -0.02900
C 	C 	0.23151 0.38930 0.68971 0.06300
C 	C 	0.19847 0.47680 0.74071 -0.03400
H 	H 	0.16240 0.51420 0.71980 0.01700
C 	C 	0.26952 0.45420 0.84647 -0.00600
H 	H 	0.28350 0.47280 0.90160 0.01400
C 	C 	0.30324 0.37050 0.79408 0.00300
H 	H 	0.34020 0.33710 0.81420 0.00300
Ag	Ag	0.32965 0.81331 0.10842 0.51700
S 	S 	0.28822 0.85467 0.91815 -0.15300
N 	N 	0.38349 0.76220 0.99531 -0.18800
N 	N 	0.44131 0.65440 0.85557 -0.16900
N 	N 	0.21553 0.83601 0.78465 -0.17000
N 	N 	0.28255 0.00880 0.68023 -0.15900
C 	C 	0.35895 0.77300 0.91622 0.06000
C 	C 	0.38768 0.71700 0.84679 -0.04000
H 	H 	0.36930 0.72310 0.79310 0.02600
C 	C 	0.46518 0.64560 0.93402 -0.02400
H 	H 	0.50230 0.60210 0.94210 0.00200
C 	C 	0.43648 0.69900 0.00346 0.00800
H 	H 	0.45460 0.69070 0.05720 -0.01500
C 	C 	0.26849 0.88930 0.81029 0.06300
C 	C 	0.30153 0.97680 0.75929 -0.03300
H 	H 	0.33760 0.01420 0.78020 0.01800
C 	C 	0.23048 0.95420 0.65353 -0.00600
H 	H 	0.21650 0.97280 0.59840 0.01400
C 	C 	0.19676 0.87050 0.70592 0.00300
H 	H 	0.15980 0.83710 0.68580 0.00100
Ag	Ag	0.82965 0.31331 0.10842 0.51900
S 	S 	0.78822 0.35467 0.91815 -0.15200
N 	N 	0.88349 0.26220 0.99531 -0.18100
N 	N 	0.94131 0.15440 0.85557 -0.17300
N 	N 	0.71553 0.33601 0.78465 -0.16900
N 	N 	0.78255 0.50880 0.68023 -0.15800
C 	C 	0.85895 0.27300 0.91622 0.05800
C 	C 	0.88768 0.21700 0.84679 -0.03500
H 	H 	0.86930 0.22310 0.79310 0.02700
C 	C 	0.96518 0.14560 0.93402 0.03800
H 	H 	0.00230 0.10210 0.94210 -0.03700
C 	C 	0.93648 0.19900 0.00346 -0.02000
H 	H 	0.95460 0.19070 0.05720 0.00200
C 	C 	0.76849 0.38930 0.81029 0.06400
C 	C 	0.80153 0.47680 0.75929 -0.03400
H 	H 	0.83760 0.51420 0.78020 0.02100
C 	C 	0.73048 0.45420 0.65353 -0.00600
H 	H 	0.71650 0.47280 0.59840 0.01500
C 	C 	0.69676 0.37050 0.70592 0.00400
H 	H 	0.65980 0.33710 0.68580 0.00300
Ag	Ag	0.50000 0.42475 0.25000 0.48100
Ag	Ag	0.00000 0.92475 0.25000 0.46900
Ag	Ag	0.50000 0.57525 0.75000 0.48100
Ag	Ag	0.00000 0.07525 0.75000 0.46900
