data_crystal

_cell_length_a 13.93360
_cell_length_b 14.57620
_cell_length_c 14.57620
_cell_angle_alpha 99.85290
_cell_angle_beta  113.43100
_cell_angle_gamma 113.43100

_symmetry_space_group_name_	'P 1'
_symmetry_space_group_name_H-M	'P 1'

loop_
_symmetry_equiv_pos_as_xyz
  x,y,z

loop_
_atom_site_label
_atom_site_type_symbol
_atom_site_fract_x
_atom_site_fract_y
_atom_site_fract_z
_atom_site_charge
Ag	Ag	0.32663 0.90406 0.38434 0.45700
Ag	Ag	0.85081 0.90878 0.05216 0.45700
Ag	Ag	0.14919 0.09122 0.94784 0.45700
Ag	Ag	0.35081 0.05216 0.90878 0.45700
Ag	Ag	0.17337 0.61566 0.09594 0.45700
Ag	Ag	0.82663 0.38434 0.90406 0.45700
Ag	Ag	0.67337 0.09594 0.61566 0.45800
Ag	Ag	0.64919 0.94784 0.09122 0.45800
H 	H 	0.24260 0.32480 0.92440 -0.01300
H 	H 	0.69500 0.81990 0.79710 0.00200
H 	H 	0.93840 0.61830 0.89330 0.00500
H 	H 	0.88200 0.17280 0.84600 -0.00500
H 	H 	0.61800 0.15400 0.82720 -0.00500
H 	H 	0.73100 0.50720 0.01020 -0.00400
H 	H 	0.74260 0.92440 0.32480 -0.01100
H 	H 	0.85970 0.34560 0.12880 -0.00800
H 	H 	0.76900 0.98980 0.49280 -0.00800
H 	H 	0.56160 0.10670 0.38170 0.00600
H 	H 	0.11800 0.82720 0.15400 -0.00500
H 	H 	0.19500 0.79710 0.81990 0.00300
H 	H 	0.23100 0.01020 0.50720 -0.00800
H 	H 	0.75740 0.67520 0.07560 -0.01300
H 	H 	0.30500 0.18010 0.20290 0.00200
H 	H 	0.38200 0.84600 0.17280 -0.00500
H 	H 	0.35970 0.12880 0.34560 -0.00700
H 	H 	0.25740 0.07560 0.67520 -0.01100
H 	H 	0.26900 0.49280 0.98980 -0.00400
H 	H 	0.14030 0.65440 0.87120 -0.00800
H 	H 	0.64030 0.87120 0.65440 -0.00700
H 	H 	0.43840 0.89330 0.61830 0.00600
H 	H 	0.80500 0.20290 0.18010 0.00300
H 	H 	0.06160 0.38170 0.10670 0.00500
C 	C 	0.38030 0.92230 0.06930 0.03100
C 	C 	0.11970 0.93070 0.07770 0.03300
C 	C 	0.20090 0.72360 0.92420 0.00400
C 	C 	0.73460 0.89320 0.80920 -0.01700
C 	C 	0.65740 0.16500 0.90020 -0.02800
C 	C 	0.84260 0.09980 0.83500 -0.02900
C 	C 	0.70090 0.92420 0.72360 0.00100
C 	C 	0.79520 0.66520 0.03780 -0.01300
C 	C 	0.23460 0.80920 0.89320 -0.01800
C 	C 	0.34260 0.83500 0.09980 -0.02800
C 	C 	0.61970 0.07770 0.93070 0.03100
C 	C 	0.72070 0.00190 0.43630 -0.00800
C 	C 	0.91610 0.72780 0.96860 0.05400
C 	C 	0.26540 0.10680 0.19080 -0.01700
C 	C 	0.10010 0.37170 0.06970 -0.05500
C 	C 	0.88030 0.06930 0.92230 0.03300
C 	C 	0.79910 0.27640 0.07580 0.00400
C 	C 	0.08390 0.27220 0.03140 0.05400
C 	C 	0.41610 0.96860 0.72780 0.05700
C 	C 	0.20480 0.33480 0.96220 -0.01300
C 	C 	0.76540 0.19080 0.10680 -0.01800
C 	C 	0.70480 0.96220 0.33480 -0.01800
C 	C 	0.15740 0.90020 0.16500 -0.02900
C 	C 	0.27930 0.99810 0.56370 -0.00800
C 	C 	0.29910 0.07580 0.27640 0.00100
C 	C 	0.29520 0.03780 0.66520 -0.01800
C 	C 	0.39990 0.93030 0.62830 -0.05600
C 	C 	0.58390 0.03140 0.27220 0.05700
C 	C 	0.60010 0.06970 0.37170 -0.05600
C 	C 	0.77930 0.56370 0.99810 -0.01600
C 	C 	0.89990 0.62830 0.93030 -0.05500
C 	C 	0.22070 0.43630 0.00190 -0.01600
S 	S 	0.50477 0.94448 0.83754 -0.13500
S 	S 	0.49523 0.05552 0.16246 -0.13500
S 	S 	0.00477 0.83754 0.94448 -0.13100
S 	S 	0.99523 0.16246 0.05552 -0.13100
N 	N 	0.25210 0.73690 0.02730 -0.18000
N 	N 	0.32330 0.90970 0.96610 -0.17600
N 	N 	0.13700 0.25210 0.97710 -0.18200
N 	N 	0.63700 0.97710 0.25210 -0.18200
N 	N 	0.75210 0.02730 0.73690 -0.17900
N 	N 	0.74790 0.26310 0.97270 -0.18000
N 	N 	0.17670 0.03390 0.09030 -0.17800
N 	N 	0.24790 0.97270 0.26310 -0.17900
N 	N 	0.16980 0.45580 0.05600 -0.18100
N 	N 	0.66980 0.05600 0.45580 -0.18200
N 	N 	0.82330 0.96610 0.90970 -0.17800
N 	N 	0.67670 0.09030 0.03390 -0.17600
N 	N 	0.36300 0.02290 0.74790 -0.18200
N 	N 	0.86300 0.74790 0.02290 -0.18200
N 	N 	0.33020 0.94400 0.54420 -0.18200
N 	N 	0.83020 0.54420 0.94400 -0.18100
