data_crystal

_cell_length_a 9.17540
_cell_length_b 15.52580
_cell_length_c 16.30000
_cell_angle_alpha 111.89000
_cell_angle_beta  90.00000
_cell_angle_gamma 107.18700

_symmetry_space_group_name_	'P 1'
_symmetry_space_group_name_H-M	'P 1'

loop_
_symmetry_equiv_pos_as_xyz
  x,y,z

loop_
_atom_site_label
_atom_site_type_symbol
_atom_site_fract_x
_atom_site_fract_y
_atom_site_fract_z
_atom_site_charge
Tb	Tb	0.16670 0.00516 0.59193 2.02100
Tb	Tb	0.16154 0.99484 0.90807 2.01100
Tb	Tb	0.83846 0.00516 0.09193 2.01100
Tb	Tb	0.83330 0.99484 0.40807 2.02100
H 	H 	0.83950 0.75820 0.28340 -0.06100
H 	H 	0.08130 0.24180 0.21660 -0.06200
H 	H 	0.77760 0.23260 0.47220 -0.07100
H 	H 	0.50320 0.72240 0.86370 -0.06000
H 	H 	0.61920 0.38740 0.05460 0.19200
H 	H 	0.83190 0.28120 0.10140 0.10900
H 	H 	0.15560 0.54160 0.65670 0.18800
H 	H 	0.44930 0.28120 0.60140 0.11200
H 	H 	0.84110 0.59440 0.68710 0.19300
H 	H 	0.16810 0.71880 0.89860 0.10900
H 	H 	0.22240 0.76740 0.52780 -0.07100
H 	H 	0.15720 0.69820 0.74130 -0.06600
H 	H 	0.75330 0.59440 0.18710 0.19200
H 	H 	0.87130 0.44280 0.72770 0.18300
H 	H 	0.84440 0.45840 0.34330 0.18800
H 	H 	0.49680 0.27760 0.13630 -0.06000
H 	H 	0.38080 0.61260 0.94540 0.19200
H 	H 	0.45500 0.23260 0.97220 -0.06900
H 	H 	0.38600 0.54160 0.15670 0.18700
H 	H 	0.42850 0.55720 0.77230 0.18400
H 	H 	0.21920 0.72240 0.36370 -0.05900
H 	H 	0.23180 0.61260 0.44540 0.19400
H 	H 	0.45900 0.30180 0.75870 -0.06600
H 	H 	0.54100 0.69820 0.24130 -0.06600
H 	H 	0.91870 0.75820 0.78340 -0.06200
H 	H 	0.09490 0.53640 0.09540 0.16300
H 	H 	0.78080 0.27760 0.63630 -0.05900
H 	H 	0.24670 0.40560 0.81290 0.19200
H 	H 	0.16050 0.24180 0.71660 -0.06100
H 	H 	0.44150 0.53640 0.59540 0.16500
H 	H 	0.90510 0.46360 0.90460 0.16300
H 	H 	0.84280 0.30180 0.25870 -0.06600
H 	H 	0.55070 0.71880 0.39860 0.11200
H 	H 	0.76820 0.38740 0.55460 0.19400
H 	H 	0.12870 0.55720 0.27230 0.18300
H 	H 	0.57150 0.44280 0.22770 0.18400
H 	H 	0.54500 0.76740 0.02780 -0.06900
H 	H 	0.55850 0.46360 0.40460 0.16500
H 	H 	0.15890 0.40560 0.31290 0.19300
H 	H 	0.61400 0.45840 0.84330 0.18700
C 	C 	0.19050 0.75020 0.64310 -0.36300
C 	C 	0.19580 0.56260 0.54290 0.40400
C 	C 	0.58570 0.37020 0.99510 -0.40400
C 	C 	0.51000 0.68080 0.18140 0.29900
C 	C 	0.52700 0.59800 0.77440 -0.41000
C 	C 	0.71840 0.75700 0.83320 -0.33900
C 	C 	0.73100 0.73140 0.47900 -0.03700
C 	C 	0.12410 0.69660 0.32910 0.28400
C 	C 	0.17140 0.58760 0.63130 -0.40900
C 	C 	0.08930 0.86080 0.39950 0.53100
C 	C 	0.95470 0.41660 0.11130 0.28100
C 	C 	0.15830 0.42060 0.02110 0.25600
C 	C 	0.87590 0.30340 0.67090 0.28400
C 	C 	0.78880 0.27720 0.44540 0.31300
C 	C 	0.82920 0.31920 0.31860 0.30000
C 	C 	0.03860 0.75700 0.33320 -0.33700
C 	C 	0.04530 0.58340 0.88870 0.28100
C 	C 	0.28160 0.24300 0.16680 -0.33900
C 	C 	0.91070 0.13920 0.60050 0.53100
C 	C 	0.57250 0.69660 0.82910 0.28600
C 	C 	0.22850 0.13920 0.10050 0.53100
C 	C 	0.07100 0.59800 0.27440 -0.40700
C 	C 	0.26230 0.42060 0.52110 0.25900
C 	C 	0.40180 0.31620 0.58150 -0.18500
C 	C 	0.36990 0.43780 0.27640 0.38800
C 	C 	0.60420 0.53060 0.42150 -0.33700
C 	C 	0.77420 0.62020 0.72410 -0.39900
C 	C 	0.80950 0.24980 0.35690 -0.36300
C 	C 	0.84170 0.57940 0.97890 0.25600
C 	C 	0.91440 0.31620 0.08150 -0.17800
C 	C 	0.77150 0.86080 0.89950 0.53100
C 	C 	0.03540 0.84000 0.00540 0.45500
C 	C 	0.49000 0.31920 0.81860 0.29900
C 	C 	0.59820 0.68380 0.41850 -0.18500
C 	C 	0.19540 0.16000 0.49460 0.44500
C 	C 	0.08560 0.68380 0.91850 -0.17800
C 	C 	0.80460 0.84000 0.50540 0.44500
C 	C 	0.42750 0.30340 0.17090 0.28600
C 	C 	0.78450 0.37020 0.49510 -0.40700
C 	C 	0.63010 0.56220 0.72360 0.38800
C 	C 	0.33310 0.14940 0.80390 0.60900
C 	C 	0.36680 0.56260 0.04290 0.40300
C 	C 	0.17080 0.68080 0.68140 0.30000
C 	C 	0.66690 0.85060 0.19610 0.60900
C 	C 	0.92900 0.40200 0.72560 -0.40700
C 	C 	0.80420 0.43740 0.45710 0.40400
C 	C 	0.81630 0.14940 0.30390 0.60900
C 	C 	0.21120 0.72280 0.55460 0.31300
C 	C 	0.63320 0.43740 0.95710 0.40300
C 	C 	0.92640 0.53060 0.92150 -0.33100
C 	C 	0.93210 0.56220 0.22360 0.38400
C 	C 	0.58380 0.41240 0.86870 -0.40800
C 	C 	0.53810 0.58340 0.38870 0.28800
C 	C 	0.44030 0.24980 0.85690 -0.36100
C 	C 	0.99960 0.26860 0.02100 -0.04900
C 	C 	0.19710 0.32020 0.49020 -0.06000
C 	C 	0.06790 0.43780 0.77640 0.38400
C 	C 	0.73770 0.57940 0.47890 0.25900
C 	C 	0.10110 0.28180 0.71920 0.28400
C 	C 	0.15400 0.37980 0.77590 -0.39700
C 	C 	0.00040 0.73140 0.97900 -0.04900
C 	C 	0.89890 0.71820 0.28080 0.28400
C 	C 	0.82860 0.41240 0.36870 -0.40900
C 	C 	0.46190 0.41660 0.61130 0.28800
C 	C 	0.87690 0.67980 0.00980 -0.05600
C 	C 	0.80290 0.67980 0.50980 -0.06000
C 	C 	0.18070 0.28180 0.21920 0.28600
C 	C 	0.55970 0.75020 0.14310 -0.36100
C 	C 	0.84600 0.62020 0.22410 -0.39700
C 	C 	0.26900 0.26860 0.52100 -0.03700
C 	C 	0.41620 0.58760 0.13130 -0.40800
C 	C 	0.12310 0.32020 0.99020 -0.05600
C 	C 	0.81930 0.71820 0.78080 0.28600
C 	C 	0.41430 0.62980 0.00490 -0.40400
C 	C 	0.51160 0.72280 0.05460 0.31100
C 	C 	0.96140 0.24300 0.66680 -0.33700
C 	C 	0.96460 0.16000 0.99460 0.45500
C 	C 	0.07360 0.46940 0.07850 -0.33100
C 	C 	0.22580 0.37980 0.27590 -0.39900
C 	C 	0.21550 0.62980 0.50490 -0.40700
C 	C 	0.48840 0.27720 0.94540 0.31100
C 	C 	0.39580 0.46940 0.57850 -0.33700
C 	C 	0.18370 0.85060 0.69610 0.60900
C 	C 	0.47300 0.40200 0.22560 -0.41000
O 	O 	0.72160 0.53040 0.01140 -0.32700
O 	O 	0.09760 0.08440 0.10180 -0.58000
O 	O 	0.27840 0.46960 0.98860 -0.32700
O 	O 	0.15460 0.87020 0.77460 -0.57300
O 	O 	0.86730 0.46180 0.17130 -0.33800
O 	O 	0.31310 0.11180 0.04310 -0.52100
O 	O 	0.71560 0.87020 0.27460 -0.57300
O 	O 	0.80880 0.53040 0.51140 -0.32700
O 	O 	0.40550 0.53820 0.32870 -0.34000
O 	O 	0.14030 0.88320 0.97350 -0.53100
O 	O 	0.13270 0.53820 0.82870 -0.33800
O 	O 	0.28440 0.12980 0.72540 -0.57300
O 	O 	0.30160 0.09000 0.84070 -0.58800
O 	O 	0.20130 0.88820 0.45690 -0.52100
O 	O 	0.74290 0.88320 0.47350 -0.52600
O 	O 	0.25710 0.11680 0.52650 -0.52600
O 	O 	0.68690 0.88820 0.95690 -0.52100
O 	O 	0.59450 0.46180 0.67130 -0.34000
O 	O 	0.84540 0.12980 0.22540 -0.57300
O 	O 	0.01320 0.91560 0.39820 -0.58200
O 	O 	0.05080 0.12120 0.94180 -0.49700
O 	O 	0.78840 0.09000 0.34070 -0.59200
O 	O 	0.21160 0.91000 0.65930 -0.59200
O 	O 	0.92960 0.87880 0.55820 -0.49600
O 	O 	0.19120 0.46960 0.48860 -0.32700
O 	O 	0.98680 0.08440 0.60180 -0.58200
O 	O 	0.90240 0.91560 0.89820 -0.58000
O 	O 	0.94920 0.87880 0.05820 -0.49700
O 	O 	0.69840 0.91000 0.15930 -0.58800
O 	O 	0.85970 0.11680 0.02650 -0.53100
O 	O 	0.79870 0.11180 0.54310 -0.52100
O 	O 	0.07040 0.12120 0.44180 -0.49600
