data_crystal

_cell_length_a 9.40710
_cell_length_b 15.66720
_cell_length_c 16.05600
_cell_angle_alpha 111.23700
_cell_angle_beta  90.00000
_cell_angle_gamma 107.47100

_symmetry_space_group_name_	'P 1'
_symmetry_space_group_name_H-M	'P 1'

loop_
_symmetry_equiv_pos_as_xyz
  x,y,z

loop_
_atom_site_label
_atom_site_type_symbol
_atom_site_fract_x
_atom_site_fract_y
_atom_site_fract_z
_atom_site_charge
Gd	Gd	0.66205 0.00650 0.59808 1.70100
Gd	Gd	0.65555 0.99350 0.90192 1.62200
Gd	Gd	0.34445 0.00650 0.09808 1.69500
Gd	Gd	0.33795 0.99350 0.40192 1.62500
H 	H 	0.65810 0.71660 0.89790 0.13200
H 	H 	0.64910 0.69200 0.73810 -0.02600
H 	H 	0.39350 0.71240 0.55360 0.13600
H 	H 	0.64630 0.56380 0.26600 0.14600
H 	H 	0.96130 0.23640 0.97940 -0.02700
H 	H 	0.39890 0.46440 0.90680 0.17800
H 	H 	0.33850 0.75400 0.28490 -0.01300
H 	H 	0.04290 0.69200 0.23810 -0.02500
H 	H 	0.74740 0.41060 0.80580 0.15100
H 	H 	0.35090 0.30800 0.26190 -0.02500
H 	H 	0.25260 0.58940 0.19420 0.15100
H 	H 	0.88280 0.61000 0.93720 0.16200
H 	H 	0.11720 0.39000 0.06280 0.16600
H 	H 	0.31890 0.71240 0.05360 0.13700
H 	H 	0.93450 0.53560 0.59320 0.17700
H 	H 	0.35370 0.43620 0.73400 0.14600
H 	H 	0.34940 0.46380 0.34700 0.15300
H 	H 	0.94150 0.28340 0.60210 0.13200
H 	H 	0.27280 0.39000 0.56280 0.16200
H 	H 	0.72690 0.72780 0.35770 -0.02000
H 	H 	0.66320 0.41060 0.30580 0.15100
H 	H 	0.95710 0.30800 0.76190 -0.02700
H 	H 	0.88560 0.53620 0.15300 0.15300
H 	H 	0.72720 0.61000 0.43720 0.16300
H 	H 	0.00090 0.72780 0.85770 -0.02000
H 	H 	0.03870 0.76360 0.02060 -0.02700
H 	H 	0.33680 0.58940 0.69420 0.15100
H 	H 	0.34190 0.28340 0.10210 0.13000
H 	H 	0.27310 0.27220 0.64230 -0.01900
H 	H 	0.41550 0.75400 0.78490 -0.01300
H 	H 	0.60110 0.53560 0.09320 0.17500
H 	H 	0.60650 0.28760 0.44640 0.13700
H 	H 	0.72490 0.76360 0.52060 -0.02800
H 	H 	0.05850 0.71660 0.39790 0.13100
H 	H 	0.66150 0.24600 0.71510 -0.01400
H 	H 	0.08250 0.43620 0.23400 0.14600
H 	H 	0.91750 0.56380 0.76600 0.14600
H 	H 	0.27510 0.23640 0.47940 -0.02500
H 	H 	0.65060 0.53620 0.65300 0.15400
H 	H 	0.68110 0.28760 0.94640 0.13400
H 	H 	0.06550 0.46440 0.40680 0.17700
H 	H 	0.58450 0.24600 0.21510 -0.01400
H 	H 	0.99910 0.27220 0.14230 -0.01900
H 	H 	0.11440 0.46380 0.84700 0.15500
C 	C 	0.24150 0.58040 0.48360 0.31900
C 	C 	0.91490 0.62700 0.99750 -0.31500
C 	C 	0.23410 0.73020 0.48130 0.06100
C 	C 	0.06810 0.69980 0.82510 0.17700
C 	C 	0.65280 0.38260 0.77260 -0.27700
C 	C 	0.47460 0.16120 0.99220 0.36700
C 	C 	0.10420 0.68220 0.41910 -0.23700
C 	C 	0.12030 0.56200 0.72370 0.29400
C 	C 	0.95510 0.41800 0.61040 0.31800
C 	C 	0.10940 0.53080 0.42360 -0.37000
C 	C 	0.69430 0.32000 0.48650 -0.23900
C 	C 	0.04490 0.58200 0.38960 0.31800
C 	C 	0.39870 0.71580 0.28190 0.16500
C 	C 	0.33400 0.41760 0.37250 -0.30700
C 	C 	0.54180 0.75700 0.33230 -0.22300
C 	C 	0.57800 0.68220 0.91910 -0.23800
C 	C 	0.08510 0.37300 0.00250 -0.32700
C 	C 	0.91640 0.58240 0.12750 -0.30600
C 	C 	0.62570 0.32000 0.98650 -0.22900
C 	C 	0.66110 0.41960 0.01640 0.31200
C 	C 	0.31340 0.83880 0.50780 0.36300
C 	C 	0.66510 0.67560 0.67800 0.19300
C 	C 	0.58780 0.86120 0.39810 0.43700
C 	C 	0.45820 0.24300 0.66770 -0.22100
C 	C 	0.57860 0.46920 0.07640 -0.36500
C 	C 	0.41220 0.13880 0.60190 0.43700
C 	C 	0.93190 0.30020 0.17490 0.17600
C 	C 	0.13040 0.43960 0.96280 0.33200
C 	C 	0.44170 0.56200 0.22370 0.29300
C 	C 	0.33890 0.58040 0.98360 0.32200
C 	C 	0.34720 0.61740 0.22740 -0.27700
C 	C 	0.98950 0.32440 0.82200 0.19600
C 	C 	0.46290 0.41800 0.11040 0.31400
C 	C 	0.94250 0.25440 0.86120 -0.25100
C 	C 	0.31710 0.71580 0.78190 0.16500
C 	C 	0.75850 0.41960 0.51640 0.32000
C 	C 	0.72660 0.13880 0.10190 0.43700
C 	C 	0.27020 0.61740 0.72740 -0.27700
C 	C 	0.50390 0.26980 0.01870 0.05400
C 	C 	0.01700 0.60140 0.77060 -0.30300
C 	C 	0.99190 0.28120 0.95250 0.21000
C 	C 	0.21520 0.75700 0.83230 -0.22300
C 	C 	0.71070 0.71880 0.54750 0.20300
C 	C 	0.58440 0.60140 0.27060 -0.30200
C 	C 	0.33490 0.32440 0.32200 0.19100
C 	C 	0.15780 0.84600 0.19240 0.47500
C 	C 	0.68290 0.28420 0.21810 0.16500
C 	C 	0.36830 0.30020 0.67490 0.17700
C 	C 	0.30920 0.43960 0.46280 0.32400
C 	C 	0.78480 0.24300 0.16770 -0.22200
C 	C 	0.98300 0.39860 0.22940 -0.30200
C 	C 	0.89060 0.46920 0.57640 -0.37100
C 	C 	0.53710 0.58200 0.88960 0.31900
C 	C 	0.08360 0.41760 0.87250 -0.31300
C 	C 	0.76590 0.26980 0.51870 0.06400
C 	C 	0.01050 0.67560 0.17800 0.19100
C 	C 	0.84220 0.15400 0.80760 0.47500
C 	C 	0.31180 0.15400 0.30760 0.47300
C 	C 	0.66600 0.58240 0.62750 -0.30800
C 	C 	0.89580 0.31780 0.58090 -0.23800
C 	C 	0.30570 0.68000 0.51350 -0.23800
C 	C 	0.71210 0.62700 0.49750 -0.31700
C 	C 	0.55830 0.43800 0.77630 0.29400
C 	C 	0.60130 0.28420 0.71810 0.16600
C 	C 	0.68810 0.74560 0.63880 -0.25000
C 	C 	0.28790 0.37300 0.50250 -0.31500
C 	C 	0.63170 0.69980 0.32510 0.17600
C 	C 	0.86960 0.56040 0.03720 0.32200
C 	C 	0.87970 0.43800 0.27630 0.29400
C 	C 	0.68820 0.84600 0.69240 0.47600
C 	C 	0.49610 0.73020 0.98130 0.06200
C 	C 	0.42140 0.53080 0.92360 -0.37200
C 	C 	0.42200 0.31780 0.08090 -0.23200
C 	C 	0.00810 0.71880 0.04750 0.20100
C 	C 	0.72980 0.38260 0.27260 -0.27800
C 	C 	0.27340 0.86120 0.89810 0.43600
C 	C 	0.37430 0.68000 0.01350 -0.24100
C 	C 	0.52540 0.83880 0.00780 0.36200
C 	C 	0.05750 0.74560 0.13880 -0.24900
C 	C 	0.41560 0.39860 0.72940 -0.30200
C 	C 	0.28930 0.28120 0.45250 0.20100
C 	C 	0.68660 0.16120 0.49220 0.36000
C 	C 	0.31190 0.25440 0.36120 -0.24700
C 	C 	0.69080 0.56040 0.53720 0.32500
O 	O 	0.80790 0.11020 0.04130 -0.41900
O 	O 	0.91670 0.53780 0.32860 -0.32200
O 	O 	0.82400 0.09260 0.84300 -0.46100
O 	O 	0.25100 0.88260 0.47470 -0.42700
O 	O 	0.31180 0.53300 0.51810 -0.31800
O 	O 	0.22120 0.53300 0.01810 -0.32100
O 	O 	0.55460 0.12280 0.93880 -0.41300
O 	O 	0.17600 0.90740 0.15700 -0.48300
O 	O 	0.73140 0.90740 0.65700 -0.48500
O 	O 	0.65030 0.86260 0.77220 -0.46200
O 	O 	0.40010 0.91420 0.89250 -0.47700
O 	O 	0.36840 0.11740 0.02530 -0.42700
O 	O 	0.59990 0.08580 0.10750 -0.47100
O 	O 	0.19210 0.88980 0.95870 -0.43600
O 	O 	0.30230 0.11020 0.54130 -0.41900
O 	O 	0.51410 0.91420 0.39250 -0.47700
O 	O 	0.51070 0.00000 0.75000 -0.23200
O 	O 	0.63160 0.88260 0.97470 -0.42700
O 	O 	0.08330 0.46220 0.67140 -0.32200
O 	O 	0.43180 0.87720 0.56120 -0.43100
O 	O 	0.26860 0.09260 0.34300 -0.46300
O 	O 	0.44540 0.87720 0.06120 -0.42900
O 	O 	0.74900 0.11740 0.52530 -0.42400
O 	O 	0.68820 0.46700 0.48190 -0.31800
O 	O 	0.56820 0.12280 0.43880 -0.41300
O 	O 	0.77880 0.46700 0.98190 -0.31500
O 	O 	0.37890 0.46220 0.17140 -0.32100
O 	O 	0.62110 0.53780 0.82860 -0.32200
O 	O 	0.34970 0.13740 0.22780 -0.46200
O 	O 	0.48590 0.08580 0.60750 -0.47100
O 	O 	0.21230 0.86260 0.27220 -0.46200
O 	O 	0.48930 0.00000 0.25000 -0.23400
O 	O 	0.78770 0.13740 0.72780 -0.46300
O 	O 	0.69770 0.88980 0.45870 -0.43600
