data_crystal

_cell_length_a 9.09600
_cell_length_b 11.99600
_cell_length_c 15.14400
_cell_angle_alpha 90.00000
_cell_angle_beta  99.40000
_cell_angle_gamma 90.00000

_symmetry_space_group_name_	'P 1'
_symmetry_space_group_name_H-M	'P 1'

loop_
_symmetry_equiv_pos_as_xyz
  x,y,z

loop_
_atom_site_label
_atom_site_type_symbol
_atom_site_fract_x
_atom_site_fract_y
_atom_site_fract_z
_atom_site_charge
In	In	0.05110 0.91740 0.00290 1.89800
K 	K 	0.44410 0.03180 0.36430 0.68600
O 	O 	0.11370 0.02690 0.11260 -0.61100
O 	O 	0.28030 0.06300 0.23200 -0.34400
O 	O 	0.26120 0.89460 0.94790 -0.52400
O 	O 	0.44040 0.77480 0.92740 -0.28500
O 	O 	0.81760 0.97960 0.97170 -0.28700
O 	O 	0.59410 0.99730 0.01230 -0.33700
O 	O 	0.97850 0.77960 0.91910 -0.44200
O 	O 	0.81910 0.64070 0.88970 -0.30200
N 	N 	0.22110 0.80810 0.10440 -0.20700
N 	N 	0.90140 0.81610 0.09010 -0.21400
C 	C 	0.22850 0.00230 0.17100 0.35900
C 	C 	0.31110 0.89410 0.16040 -0.12400
C 	C 	0.34140 0.80770 0.96990 0.48700
C 	C 	0.31560 0.74400 0.05150 -0.23000
C 	C 	0.14220 0.73400 0.15990 -0.12100
C 	C 	0.99640 0.78270 0.17610 0.14100
C 	C 	0.78010 0.89110 0.10470 -0.03000
C 	C 	0.72220 0.96060 0.02340 0.14600
C 	C 	0.84160 0.71880 0.03480 -0.20400
C 	C 	0.88100 0.71390 0.94080 0.50100
In	In	0.55110 0.41740 0.00290 1.92900
K 	K 	0.94410 0.53180 0.36430 0.70300
O 	O 	0.61370 0.52690 0.11260 -0.55500
O 	O 	0.78030 0.56300 0.23200 -0.30800
O 	O 	0.76120 0.39460 0.94790 -0.48600
O 	O 	0.94040 0.27480 0.92740 -0.22800
O 	O 	0.31760 0.47960 0.97170 -0.33300
O 	O 	0.09410 0.49730 0.01230 -0.41100
O 	O 	0.47850 0.27960 0.91910 -0.50900
O 	O 	0.31910 0.14070 0.88970 -0.34100
N 	N 	0.72110 0.30810 0.10440 -0.21500
N 	N 	0.40140 0.31610 0.09010 -0.21200
C 	C 	0.72850 0.50230 0.17100 0.34900
C 	C 	0.81110 0.39410 0.16040 -0.07400
C 	C 	0.84140 0.30770 0.96990 0.47900
C 	C 	0.81560 0.24400 0.05150 -0.17300
C 	C 	0.64220 0.23400 0.15990 0.02100
C 	C 	0.49640 0.28270 0.17610 -0.00600
C 	C 	0.28010 0.39110 0.10470 -0.07800
C 	C 	0.22220 0.46060 0.02340 0.15800
C 	C 	0.34160 0.21880 0.03480 -0.25100
C 	C 	0.38100 0.21390 0.94080 0.50200
In	In	0.05110 0.08260 0.50290 1.94100
K 	K 	0.44410 0.96820 0.86430 0.69700
O 	O 	0.11370 0.97310 0.61260 -0.57800
O 	O 	0.28030 0.93700 0.73200 -0.33300
O 	O 	0.26120 0.10540 0.44790 -0.55700
O 	O 	0.44040 0.22520 0.42740 -0.30100
O 	O 	0.81760 0.02040 0.47170 -0.47100
O 	O 	0.59410 0.00270 0.51230 -0.30400
O 	O 	0.97850 0.22040 0.41910 -0.45400
O 	O 	0.81910 0.35930 0.38970 -0.29900
N 	N 	0.22110 0.19190 0.60440 -0.20900
N 	N 	0.90140 0.18390 0.59010 -0.20800
C 	C 	0.22850 0.99770 0.67100 0.34900
C 	C 	0.31110 0.10590 0.66040 -0.09600
C 	C 	0.34140 0.19230 0.46990 0.31400
C 	C 	0.31560 0.25600 0.55150 -0.06600
C 	C 	0.14220 0.26600 0.65990 -0.10800
C 	C 	0.99640 0.21730 0.67610 0.14800
C 	C 	0.78010 0.10890 0.60470 -0.04500
C 	C 	0.72220 0.03940 0.52340 0.33600
C 	C 	0.84160 0.28120 0.53480 -0.04700
C 	C 	0.88100 0.28610 0.44080 0.33500
In	In	0.55110 0.58260 0.50290 1.97300
K 	K 	0.94410 0.46820 0.86430 0.71600
O 	O 	0.61370 0.47310 0.61260 -0.51800
O 	O 	0.78030 0.43700 0.73200 -0.29800
O 	O 	0.76120 0.60540 0.44790 -0.51900
O 	O 	0.94040 0.72520 0.42740 -0.24400
O 	O 	0.31760 0.52040 0.47170 -0.52400
O 	O 	0.09410 0.50270 0.51230 -0.38200
O 	O 	0.47850 0.72040 0.41910 -0.52500
O 	O 	0.31910 0.85930 0.38970 -0.34000
N 	N 	0.72110 0.69190 0.60440 -0.21600
N 	N 	0.40140 0.68390 0.59010 -0.20600
C 	C 	0.72850 0.49770 0.67100 0.34400
C 	C 	0.81110 0.60590 0.66040 -0.05100
C 	C 	0.84140 0.69230 0.46990 0.31500
C 	C 	0.81560 0.75600 0.55150 -0.01900
C 	C 	0.64220 0.76600 0.65990 0.03000
C 	C 	0.49640 0.71730 0.67610 0.00400
C 	C 	0.28010 0.60890 0.60470 -0.09400
C 	C 	0.22220 0.53940 0.52340 0.35200
C 	C 	0.34160 0.78120 0.53480 -0.09500
C 	C 	0.38100 0.78610 0.44080 0.33600
