data_crystal

_cell_length_a 10.48830
_cell_length_b 11.22140
_cell_length_c 12.74100
_cell_angle_alpha 100.98600
_cell_angle_beta  110.35200
_cell_angle_gamma 99.77200

_symmetry_space_group_name_	'P 1'
_symmetry_space_group_name_H-M	'P 1'

loop_
_symmetry_equiv_pos_as_xyz
  x,y,z

loop_
_atom_site_label
_atom_site_type_symbol
_atom_site_fract_x
_atom_site_fract_y
_atom_site_fract_z
_atom_site_charge
Gd	Gd	0.39343 0.45117 0.32424 1.47300
O 	O 	0.62040 0.43660 0.32510 -0.43000
O 	O 	0.42930 0.27860 0.40360 -0.42300
O 	O 	0.65340 0.50260 0.50830 -0.48400
O 	O 	0.50050 0.32870 0.59650 -0.45100
O 	O 	0.31660 0.26430 0.15800 -0.39100
O 	O 	0.16490 0.29400 0.23480 -0.39200
C 	C 	0.70020 0.47360 0.43100 0.40900
C 	C 	0.09740 0.10990 0.08030 -0.09400
C 	C 	0.47000 0.25360 0.49940 0.42600
C 	C 	0.48330 0.12080 0.49750 -0.13000
C 	C 	0.94490 0.54370 0.57900 -0.06500
H 	H 	0.90750 0.57420 0.63380 0.04800
C 	C 	0.48600 0.03990 0.39960 0.12300
C 	C 	0.85530 0.48600 0.46590 -0.14700
C 	C 	0.49850 0.07910 0.59620 -0.06200
H 	H 	0.49820 0.13410 0.66280 0.05100
C 	C 	0.90870 0.44100 0.38410 0.15200
C 	C 	0.13640 0.02940 0.00500 0.08400
C 	C 	0.19880 0.22820 0.16340 0.32900
C 	C 	0.95800 0.07980 0.07270 -0.06100
H 	H 	0.92890 0.13470 0.12110 0.05600
N 	N 	0.48080 0.08070 0.29700 -0.29000
H 	H 	0.48750 0.02980 0.23850 0.13100
H 	H 	0.47100 0.15630 0.29330 0.16400
N 	N 	0.83060 0.38240 0.27460 -0.31000
H 	H 	0.73850 0.36940 0.24860 0.16100
H 	H 	0.87030 0.35620 0.22710 0.13500
N 	N 	0.29800 0.01900 0.02100 -0.26500
H 	H 	0.31120 0.95140 0.98310 0.11900
H 	H 	0.37140 0.08170 0.06850 0.13400
Gd	Gd	0.60657 0.54883 0.67576 1.47300
O 	O 	0.37960 0.56340 0.67490 -0.43000
O 	O 	0.57070 0.72140 0.59640 -0.42300
O 	O 	0.34660 0.49740 0.49170 -0.48400
O 	O 	0.49950 0.67130 0.40350 -0.45100
O 	O 	0.68340 0.73570 0.84200 -0.39100
O 	O 	0.83510 0.70600 0.76520 -0.39200
C 	C 	0.29980 0.52640 0.56900 0.40900
C 	C 	0.90260 0.89010 0.91970 -0.09400
C 	C 	0.53000 0.74640 0.50060 0.42600
C 	C 	0.51670 0.87920 0.50250 -0.13000
C 	C 	0.05510 0.45630 0.42100 -0.06500
H 	H 	0.09250 0.42580 0.36620 0.04800
C 	C 	0.51400 0.96010 0.60040 0.12300
C 	C 	0.14470 0.51400 0.53410 -0.14700
C 	C 	0.50150 0.92090 0.40380 -0.06200
H 	H 	0.50180 0.86590 0.33720 0.05100
C 	C 	0.09130 0.55900 0.61590 0.15200
C 	C 	0.86360 0.97060 0.99500 0.08400
C 	C 	0.80120 0.77180 0.83660 0.32900
C 	C 	0.04200 0.92020 0.92730 -0.06100
H 	H 	0.07110 0.86530 0.87890 0.05600
N 	N 	0.51920 0.91930 0.70300 -0.29000
H 	H 	0.51250 0.97020 0.76150 0.13100
H 	H 	0.52900 0.84370 0.70670 0.16400
N 	N 	0.16940 0.61760 0.72540 -0.31000
H 	H 	0.26150 0.63060 0.75140 0.16100
H 	H 	0.12970 0.64380 0.77290 0.13500
N 	N 	0.70200 0.98100 0.97900 -0.26500
H 	H 	0.68880 0.04860 0.01690 0.11900
H 	H 	0.62860 0.91830 0.93150 0.13400
