data_crystal

_cell_length_a 10.49260
_cell_length_b 11.21930
_cell_length_c 12.78120
_cell_angle_alpha 101.07900
_cell_angle_beta  110.20600
_cell_angle_gamma 99.87000

_symmetry_space_group_name_	'P 1'
_symmetry_space_group_name_H-M	'P 1'

loop_
_symmetry_equiv_pos_as_xyz
  x,y,z

loop_
_atom_site_label
_atom_site_type_symbol
_atom_site_fract_x
_atom_site_fract_y
_atom_site_fract_z
_atom_site_charge
Gd	Gd	0.39392 0.45096 0.32474 1.61000
O 	O 	0.31770 0.26410 0.15940 -0.40200
O 	O 	0.16570 0.29280 0.23620 -0.38700
C 	C 	0.20050 0.22810 0.16500 0.50700
C 	C 	0.09630 0.11080 0.07870 -0.52100
C 	C 	0.13750 0.03020 0.00810 0.42000
H 	H 	0.23210 0.04850 0.01420 -0.97100
N 	N 	0.27600 0.05210 0.01290 1.00200
H 	H 	0.34080 0.11950 0.06230 -0.14200
H 	H 	0.29830 0.99840 0.96630 -0.18500
C 	C 	0.96090 0.07910 0.07290 0.77100
H 	H 	0.93350 0.13180 0.12420 -1.36400
N 	N 	0.09150 0.84180 0.85740 1.39500
H 	H 	0.03610 0.76980 0.80850 -0.24500
H 	H 	0.17890 0.86560 0.86380 -0.32000
O 	O 	0.50040 0.67190 0.40380 -0.45800
O 	O 	0.57040 0.72210 0.59690 -0.42900
C 	C 	0.53050 0.74670 0.50120 0.51100
C 	C 	0.51690 0.87920 0.50260 -0.33800
C 	C 	0.51280 0.96010 0.60010 1.12400
H 	H 	0.47760 0.06650 0.33200 -1.55100
N 	N 	0.48270 0.07930 0.29760 1.38500
H 	H 	0.47700 0.15780 0.29460 -0.06700
H 	H 	0.48550 0.02520 0.23700 0.08600
H 	H 	0.52700 0.84380 0.69830 -0.13300
C 	C 	0.51000 0.97500 0.80000 -0.49600
O 	O 	0.52200 0.09000 0.84000 -0.03400
C 	C 	0.45900 0.89000 0.84800 0.17700
C 	C 	0.50550 0.92060 0.40460 -0.45000
H 	H 	0.51030 0.86670 0.33970 0.21100
O 	O 	0.62080 0.43700 0.32510 -0.41500
O 	O 	0.65380 0.50290 0.50800 -0.49400
C 	C 	0.70160 0.47430 0.43210 0.43100
C 	C 	0.85520 0.48670 0.46630 -0.19100
C 	C 	0.90940 0.44110 0.38470 0.40300
H 	H 	0.15160 0.59880 0.69380 -0.56400
N 	N 	0.82890 0.38190 0.27300 0.46800
H 	H 	0.86790 0.35380 0.22560 -0.05300
H 	H 	0.73720 0.37110 0.24710 -0.01300
C 	C 	0.94560 0.54450 0.57920 -0.16000
H 	H 	0.90880 0.57560 0.63410 0.11400
O 	O 	0.20770 0.55980 0.26100 -0.12200
C 	C 	0.19180 0.65910 0.26250 0.21300
H 	H 	0.26000 0.72270 0.32790 -0.03000
N 	N 	0.09890 0.70170 0.19260 -0.09400
C 	C 	0.98500 0.62100 0.08700 0.11400
C 	C 	0.10200 0.83380 0.21440 -0.03300
O 	O 	0.19900 0.53470 0.23840 -0.20400
C 	C 	0.19690 0.63350 0.22000 0.00800
H 	H 	0.28420 0.69420 0.24580 -0.00600
N 	N 	0.08050 0.66560 0.16540 -0.07300
C 	C 	0.94100 0.58700 0.12100 -0.06400
C 	C 	0.10300 0.79400 0.15200 0.05700
Gd	Gd	0.60608 0.54904 0.67526 1.61100
O 	O 	0.68230 0.73590 0.84060 -0.40100
O 	O 	0.83430 0.70720 0.76380 -0.38600
C 	C 	0.79950 0.77190 0.83500 0.50800
C 	C 	0.90370 0.88920 0.92130 -0.52100
C 	C 	0.86250 0.96980 0.99190 0.42000
H 	H 	0.76790 0.95150 0.98580 -0.97100
N 	N 	0.72400 0.94790 0.98710 1.00200
H 	H 	0.65920 0.88050 0.93770 -0.14200
H 	H 	0.70170 0.00160 0.03370 -0.18500
C 	C 	0.03910 0.92090 0.92710 0.77100
H 	H 	0.06650 0.86820 0.87580 -1.36400
N 	N 	0.90850 0.15820 0.14260 1.39500
H 	H 	0.96390 0.23020 0.19150 -0.24500
H 	H 	0.82110 0.13440 0.13620 -0.32000
O 	O 	0.49960 0.32810 0.59620 -0.45800
O 	O 	0.42960 0.27790 0.40310 -0.42900
C 	C 	0.46950 0.25330 0.49880 0.51100
C 	C 	0.48310 0.12080 0.49740 -0.33800
C 	C 	0.48720 0.03990 0.39990 1.12400
H 	H 	0.52240 0.93350 0.66800 -1.55100
N 	N 	0.51730 0.92070 0.70240 1.38500
H 	H 	0.52300 0.84220 0.70540 -0.06700
H 	H 	0.51450 0.97480 0.76300 0.08600
H 	H 	0.47300 0.15620 0.30170 -0.13300
C 	C 	0.49000 0.02500 0.20000 -0.49600
O 	O 	0.47800 0.91000 0.16000 -0.03400
C 	C 	0.54100 0.11000 0.15200 0.17700
C 	C 	0.49450 0.07940 0.59540 -0.45000
H 	H 	0.48970 0.13330 0.66030 0.21100
O 	O 	0.37920 0.56300 0.67490 -0.41500
O 	O 	0.34620 0.49710 0.49200 -0.49400
C 	C 	0.29840 0.52570 0.56790 0.43100
C 	C 	0.14480 0.51330 0.53370 -0.19100
C 	C 	0.09060 0.55890 0.61530 0.40300
H 	H 	0.84840 0.40120 0.30620 -0.56400
N 	N 	0.17110 0.61810 0.72700 0.46800
H 	H 	0.13210 0.64620 0.77440 -0.05300
H 	H 	0.26280 0.62890 0.75290 -0.01300
C 	C 	0.05440 0.45550 0.42080 -0.16000
H 	H 	0.09120 0.42440 0.36590 0.11400
O 	O 	0.79230 0.44020 0.73900 -0.12200
C 	C 	0.80820 0.34090 0.73750 0.21300
H 	H 	0.74000 0.27730 0.67210 -0.03000
N 	N 	0.90110 0.29830 0.80740 -0.09400
C 	C 	0.01500 0.37900 0.91300 0.11400
C 	C 	0.89800 0.16620 0.78560 -0.03300
O 	O 	0.80100 0.46530 0.76160 -0.20400
C 	C 	0.80310 0.36650 0.78000 0.00800
H 	H 	0.71580 0.30580 0.75420 -0.00600
N 	N 	0.91950 0.33440 0.83460 -0.07300
C 	C 	0.05900 0.41300 0.87900 -0.06400
C 	C 	0.89700 0.20600 0.84800 0.05700
