data_crystal

_cell_length_a 10.52260
_cell_length_b 11.20710
_cell_length_c 12.86820
_cell_angle_alpha 100.12900
_cell_angle_beta  110.71700
_cell_angle_gamma 100.76800

_symmetry_space_group_name_	'P 1'
_symmetry_space_group_name_H-M	'P 1'

loop_
_symmetry_equiv_pos_as_xyz
  x,y,z

loop_
_atom_site_label
_atom_site_type_symbol
_atom_site_fract_x
_atom_site_fract_y
_atom_site_fract_z
_atom_site_charge
Gd	Gd	0.39209 0.45251 0.32524 1.60800
O 	O 	0.31570 0.26740 0.16080 -0.41400
O 	O 	0.16320 0.29000 0.23600 -0.39600
C 	C 	0.19770 0.22860 0.16550 0.56200
C 	C 	0.09540 0.11120 0.07940 -0.65800
C 	C 	0.13780 0.03360 0.01000 0.56400
H 	H 	0.23280 0.05470 0.01710 -1.25700
N 	N 	0.27900 0.05880 0.01570 1.32900
H 	H 	0.34360 0.12650 0.06520 -0.22200
H 	H 	0.30110 0.00660 0.96960 -0.26000
C 	C 	0.95930 0.07680 0.07140 0.94700
H 	H 	0.06970 0.87210 0.87900 -1.68100
N 	N 	0.90610 0.15420 0.14150 1.75000
H 	H 	0.96200 0.22570 0.19110 -0.34700
H 	H 	0.81820 0.12920 0.13400 -0.40900
O 	O 	0.49830 0.67300 0.40500 -0.47900
O 	O 	0.57010 0.72080 0.59590 -0.43400
C 	C 	0.52980 0.74720 0.50170 0.57800
C 	C 	0.51700 0.87950 0.50190 -0.47700
C 	C 	0.51390 0.95870 0.59950 1.86300
H 	H 	0.47700 0.06960 0.33340 -2.63600
N 	N 	0.52260 0.91990 0.70280 2.17300
H 	H 	0.53000 0.84210 0.70720 -0.07600
H 	H 	0.52030 0.97350 0.76260 1.40700
H 	H 	0.44650 0.14760 0.29300 -0.23700
C 	C 	0.50700 0.03500 0.20400 -2.97500
O 	O 	0.49800 0.92400 0.16900 0.55100
O 	O 	0.54100 0.12100 0.16700 0.78700
C 	C 	0.50270 0.92210 0.40450 -0.76900
H 	H 	0.50430 0.86850 0.33920 0.28600
O 	O 	0.61950 0.44140 0.32820 -0.42500
O 	O 	0.65720 0.50680 0.51100 -0.48700
C 	C 	0.70180 0.47780 0.43350 0.43400
C 	C 	0.85560 0.48790 0.46650 -0.19200
C 	C 	0.90580 0.44240 0.38560 0.39500
H 	H 	0.15690 0.59580 0.69250 -0.55500
N 	N 	0.82230 0.38200 0.27590 0.45900
H 	H 	0.73030 0.36930 0.25170 -0.02200
H 	H 	0.85930 0.35500 0.22780 -0.05900
C 	C 	0.94950 0.54590 0.57880 -0.15900
H 	H 	0.91490 0.57890 0.63340 0.11500
O 	O 	0.19910 0.53950 0.23760 -0.20700
C 	C 	0.19030 0.65010 0.25650 0.22900
H 	H 	0.25600 0.70610 0.32800 -0.03800
N 	N 	0.09920 0.69720 0.18760 0.05500
C 	C 	0.99400 0.61700 0.07490 0.43200
C 	C 	0.09140 0.82700 0.21020 -0.06600
O 	O 	0.20400 0.55860 0.27010 -0.16300
C 	C 	0.20100 0.63110 0.21150 0.03400
H 	H 	0.28880 0.67710 0.21570 -0.02600
N 	N 	0.08480 0.65270 0.14110 -0.36100
H 	H 	0.09530 0.70810 0.10200 0.06900
C 	C 	0.94200 0.59100 0.12400 -0.41600
H 	H 	0.93180 0.60880 0.19870 0.16700
H 	H 	0.92310 0.49880 0.09610 0.11300
C 	C 	0.83500 0.63900 0.03700 -0.28000
H 	H 	0.73970 0.60230 0.03040 0.10100
H 	H 	0.83940 0.61450 0.96120 0.06700
H 	H 	0.85810 0.73110 0.06220 0.11000
Gd	Gd	0.60791 0.54749 0.67476 1.60700
O 	O 	0.68430 0.73260 0.83920 -0.41500
O 	O 	0.83680 0.71000 0.76400 -0.39700
C 	C 	0.80230 0.77140 0.83450 0.56100
C 	C 	0.90460 0.88880 0.92060 -0.65800
C 	C 	0.86220 0.96640 0.99000 0.56400
H 	H 	0.76720 0.94530 0.98290 -1.25700
N 	N 	0.72100 0.94120 0.98430 1.32900
H 	H 	0.65640 0.87350 0.93480 -0.22200
H 	H 	0.69890 0.99340 0.03040 -0.26000
C 	C 	0.04070 0.92320 0.92860 0.94700
H 	H 	0.93030 0.12790 0.12100 -1.68100
N 	N 	0.09390 0.84580 0.85850 1.75000
H 	H 	0.03800 0.77430 0.80890 -0.34700
H 	H 	0.18180 0.87080 0.86600 -0.40900
O 	O 	0.50170 0.32700 0.59500 -0.47900
O 	O 	0.42990 0.27920 0.40410 -0.43400
C 	C 	0.47020 0.25280 0.49830 0.57800
C 	C 	0.48300 0.12050 0.49810 -0.47700
C 	C 	0.48610 0.04130 0.40050 1.86300
H 	H 	0.52300 0.93040 0.66660 -2.63600
N 	N 	0.47740 0.08010 0.29720 2.17300
H 	H 	0.47000 0.15790 0.29280 -0.07600
H 	H 	0.47970 0.02650 0.23740 1.40700
H 	H 	0.55350 0.85240 0.70700 -0.23700
C 	C 	0.49300 0.96500 0.79600 -2.97500
O 	O 	0.50200 0.07600 0.83100 0.55100
O 	O 	0.45900 0.87900 0.83300 0.78700
C 	C 	0.49730 0.07790 0.59550 -0.76900
H 	H 	0.49570 0.13150 0.66080 0.28600
O 	O 	0.38050 0.55860 0.67180 -0.42500
O 	O 	0.34280 0.49320 0.48900 -0.48700
C 	C 	0.29820 0.52220 0.56650 0.43400
C 	C 	0.14440 0.51210 0.53350 -0.19200
C 	C 	0.09420 0.55760 0.61440 0.39500
H 	H 	0.84310 0.40420 0.30750 -0.55500
N 	N 	0.17770 0.61800 0.72410 0.45900
H 	H 	0.26970 0.63070 0.74830 -0.02200
H 	H 	0.14070 0.64500 0.77220 -0.05900
C 	C 	0.05050 0.45410 0.42120 -0.15900
H 	H 	0.08510 0.42110 0.36660 0.11500
O 	O 	0.80090 0.46050 0.76240 -0.20700
C 	C 	0.80970 0.34990 0.74350 0.22900
H 	H 	0.74400 0.29390 0.67200 -0.03800
N 	N 	0.90080 0.30280 0.81240 0.05500
C 	C 	0.00600 0.38300 0.92510 0.43200
C 	C 	0.90860 0.17300 0.78980 -0.06600
O 	O 	0.79600 0.44140 0.72990 -0.16300
C 	C 	0.79900 0.36890 0.78850 0.03400
H 	H 	0.71120 0.32290 0.78430 -0.02600
N 	N 	0.91520 0.34730 0.85890 -0.36100
H 	H 	0.90470 0.29190 0.89800 0.06900
C 	C 	0.05800 0.40900 0.87600 -0.41600
H 	H 	0.06820 0.39120 0.80130 0.16700
H 	H 	0.07690 0.50120 0.90390 0.11300
C 	C 	0.16500 0.36100 0.96300 -0.28000
H 	H 	0.26030 0.39770 0.96960 0.10100
H 	H 	0.16060 0.38550 0.03880 0.06700
H 	H 	0.14190 0.26890 0.93780 0.11000
