data_crystal

_cell_length_a 17.90540
_cell_length_b 17.90540
_cell_length_c 10.73050
_cell_angle_alpha 90.00000
_cell_angle_beta  90.00000
_cell_angle_gamma 90.00000

_symmetry_space_group_name_	'P 1'
_symmetry_space_group_name_H-M	'P 1'

loop_
_symmetry_equiv_pos_as_xyz
  x,y,z

loop_
_atom_site_label
_atom_site_type_symbol
_atom_site_fract_x
_atom_site_fract_y
_atom_site_fract_z
_atom_site_charge
O 	O 	0.57390 0.05620 0.40670 -0.44800
O 	O 	0.59680 0.07260 0.20810 -0.48600
C 	C 	0.61450 0.08250 0.32280 0.31600
C 	C 	0.68440 0.12800 0.35270 -0.09700
C 	C 	0.67900 0.17260 0.47150 0.03600
C 	C 	0.71220 0.17520 0.24400 0.03400
C 	C 	0.75250 0.07460 0.33650 0.04800
C 	C 	0.76660 0.05340 0.20040 -0.02500
O 	O 	0.07390 0.55620 0.90670 -0.44400
O 	O 	0.09680 0.57260 0.70810 -0.49100
C 	C 	0.11450 0.58250 0.82280 0.30900
C 	C 	0.18440 0.62800 0.85270 -0.08600
C 	C 	0.17900 0.67260 0.97150 0.04100
C 	C 	0.21220 0.67520 0.74400 0.02800
C 	C 	0.25250 0.57460 0.83650 -0.14300
C 	C 	0.26660 0.55340 0.70040 0.06000
O 	O 	0.42610 0.94380 0.40670 -0.33500
O 	O 	0.40320 0.92740 0.20810 -0.39700
C 	C 	0.38550 0.91750 0.32280 0.29200
C 	C 	0.31560 0.87200 0.35270 -0.06600
C 	C 	0.32100 0.82740 0.47150 0.04200
C 	C 	0.28780 0.82480 0.24400 0.03000
C 	C 	0.24750 0.92540 0.33650 0.02500
C 	C 	0.23340 0.94660 0.20040 0.05200
O 	O 	0.92610 0.44380 0.90670 -0.32300
O 	O 	0.90320 0.42740 0.70810 -0.38400
C 	C 	0.88550 0.41750 0.82280 0.30300
C 	C 	0.81560 0.37200 0.85270 -0.07900
C 	C 	0.82100 0.32740 0.97150 0.09700
C 	C 	0.78780 0.32480 0.74400 0.06600
C 	C 	0.74750 0.42540 0.83650 -0.13900
C 	C 	0.73340 0.44660 0.70040 0.06900
O 	O 	0.05620 0.42610 0.59330 -0.45200
O 	O 	0.07260 0.40320 0.79190 -0.47900
C 	C 	0.08250 0.38550 0.67720 0.31500
C 	C 	0.12800 0.31560 0.64730 -0.09700
C 	C 	0.17260 0.32100 0.52850 0.02900
C 	C 	0.17520 0.28780 0.75600 0.03700
C 	C 	0.07460 0.24750 0.66350 0.03500
C 	C 	0.05340 0.23340 0.79960 -0.03000
O 	O 	0.55620 0.92610 0.09330 -0.34200
O 	O 	0.57260 0.90320 0.29190 -0.38300
C 	C 	0.58250 0.88550 0.17720 0.30100
C 	C 	0.62800 0.81560 0.14730 -0.08000
C 	C 	0.67260 0.82100 0.02850 0.04300
C 	C 	0.67520 0.78780 0.25600 0.05500
C 	C 	0.57460 0.74750 0.16350 0.18200
C 	C 	0.55340 0.73340 0.29960 -0.00900
O 	O 	0.94380 0.57390 0.59330 -0.33900
O 	O 	0.92740 0.59680 0.79190 -0.38700
C 	C 	0.91750 0.61450 0.67720 0.29100
C 	C 	0.87200 0.68440 0.64730 -0.06600
C 	C 	0.82740 0.67900 0.52850 0.03900
C 	C 	0.82480 0.71220 0.75600 0.04700
C 	C 	0.92540 0.75250 0.66350 -0.03200
C 	C 	0.94660 0.76660 0.79960 0.11100
O 	O 	0.44380 0.07390 0.09330 -0.46400
O 	O 	0.42740 0.09680 0.29190 -0.49000
C 	C 	0.41750 0.11450 0.17720 0.30200
C 	C 	0.37200 0.18440 0.14730 -0.08200
C 	C 	0.32740 0.17900 0.02850 -0.03400
C 	C 	0.32480 0.21220 0.25600 -0.00100
C 	C 	0.42540 0.25250 0.16350 0.17600
C 	C 	0.44660 0.26660 0.29960 -0.01500
O 	O 	0.92610 0.05620 0.34330 -0.38700
O 	O 	0.90320 0.07260 0.54190 -0.42000
C 	C 	0.88550 0.08250 0.42720 0.31200
C 	C 	0.81560 0.12800 0.39730 -0.09300
C 	C 	0.82100 0.17260 0.27850 0.05800
C 	C 	0.78780 0.17520 0.50600 0.06100
C 	C 	0.74750 0.07460 0.41350 0.02900
C 	C 	0.73340 0.05340 0.54960 -0.01400
O 	O 	0.42610 0.55620 0.84330 -0.40300
O 	O 	0.40320 0.57260 0.04190 -0.48100
C 	C 	0.38550 0.58250 0.92720 0.34900
C 	C 	0.31560 0.62800 0.89730 -0.06600
C 	C 	0.32100 0.67260 0.77850 0.05100
C 	C 	0.28780 0.67520 0.00600 -0.01500
C 	C 	0.24750 0.57460 0.91350 0.20300
C 	C 	0.23340 0.55340 0.04960 -0.07200
O 	O 	0.07390 0.94380 0.34330 -0.39500
O 	O 	0.09680 0.92740 0.54190 -0.43600
C 	C 	0.11450 0.91750 0.42720 0.29200
C 	C 	0.18440 0.87200 0.39730 -0.06600
C 	C 	0.17900 0.82740 0.27850 -0.00000
C 	C 	0.21220 0.82480 0.50600 0.01600
C 	C 	0.25250 0.92540 0.41350 -0.02600
C 	C 	0.26660 0.94660 0.54960 0.08900
O 	O 	0.57390 0.44380 0.84330 -0.40300
O 	O 	0.59680 0.42740 0.04190 -0.47900
C 	C 	0.61450 0.41750 0.92720 0.34700
C 	C 	0.68440 0.37200 0.89730 -0.06200
C 	C 	0.67900 0.32740 0.77850 0.04100
C 	C 	0.71220 0.32480 0.00600 -0.02000
C 	C 	0.75250 0.42540 0.91350 0.18500
C 	C 	0.76660 0.44660 0.04960 -0.04000
O 	O 	0.44380 0.42610 0.15670 -0.39100
O 	O 	0.42740 0.40320 0.95810 -0.40400
C 	C 	0.41750 0.38550 0.07280 0.25900
C 	C 	0.37200 0.31560 0.10270 -0.09800
C 	C 	0.32740 0.32100 0.22150 0.02000
C 	C 	0.32480 0.28780 0.99400 0.08400
C 	C 	0.42540 0.24750 0.08650 -0.14700
C 	C 	0.44660 0.23340 0.95040 0.09400
O 	O 	0.94380 0.92610 0.65670 -0.27100
O 	O 	0.92740 0.90320 0.45810 -0.33800
C 	C 	0.91750 0.88550 0.57280 0.29000
C 	C 	0.87200 0.81560 0.60270 -0.06600
C 	C 	0.82740 0.82100 0.72150 0.08100
C 	C 	0.82480 0.78780 0.49400 0.06000
C 	C 	0.92540 0.74750 0.58650 0.01800
C 	C 	0.94660 0.73340 0.45040 0.07400
O 	O 	0.55620 0.57390 0.15670 -0.39000
O 	O 	0.57260 0.59680 0.95810 -0.40200
C 	C 	0.58250 0.61450 0.07280 0.26100
C 	C 	0.62800 0.68440 0.10270 -0.10100
C 	C 	0.67260 0.67900 0.22150 0.03500
C 	C 	0.67520 0.71220 0.99400 0.09800
C 	C 	0.57460 0.75250 0.08650 -0.16500
C 	C 	0.55340 0.76660 0.95040 0.12300
O 	O 	0.05620 0.07390 0.65670 -0.50000
O 	O 	0.07260 0.09680 0.45810 -0.53300
C 	C 	0.08250 0.11450 0.57280 0.31700
C 	C 	0.12800 0.18440 0.60270 -0.10100
C 	C 	0.17260 0.17900 0.72150 0.00800
C 	C 	0.17520 0.21220 0.49400 0.01100
C 	C 	0.07460 0.25250 0.58650 0.05500
C 	C 	0.05340 0.26660 0.45040 -0.04200
In	In	0.50000 0.00000 0.25000 1.95700
In	In	-0.00000 0.50000 0.75000 1.95700
In	In	0.00000 0.00000 0.50000 1.91700
In	In	0.50000 0.50000 -0.00000 1.98600
C 	C 	0.75000 0.00600 0.37500 -0.08200
C 	C 	0.25000 0.50600 0.87500 0.00600
C 	C 	0.25000 0.99400 0.37500 0.08500
C 	C 	0.75000 0.49400 0.87500 0.01800
C 	C 	0.00600 0.25000 0.62500 -0.09100
C 	C 	0.99400 0.75000 0.62500 0.09200
C 	C 	0.49400 0.25000 0.12500 -0.01600
C 	C 	0.50600 0.75000 0.12500 -0.00900
