data_crystal

_cell_length_a 15.89790
_cell_length_b 15.78920
_cell_length_c 20.32880
_cell_angle_alpha 90.00000
_cell_angle_beta  106.32400
_cell_angle_gamma 90.00000

_symmetry_space_group_name_	'P 1'
_symmetry_space_group_name_H-M	'P 1'

loop_
_symmetry_equiv_pos_as_xyz
  x,y,z

loop_
_atom_site_label
_atom_site_type_symbol
_atom_site_fract_x
_atom_site_fract_y
_atom_site_fract_z
_atom_site_charge
Ni	Ni	0.21744 0.05982 0.22301 1.05900
S 	S 	0.88940 0.78170 0.13621 -0.03900
S 	S 	0.77500 0.84230 0.09320 -0.01400
O 	O 	0.21590 0.27360 0.23110 -0.27800
O 	O 	0.13350 0.15680 0.22230 -0.43300
O 	O 	0.19570 0.46080 0.27410 -0.40800
O 	O 	0.13600 0.44550 0.16130 -0.27800
N 	N 	0.11100 0.97710 0.19440 -0.23200
N 	N 	0.78040 0.91400 0.87710 -0.24600
C 	C 	0.02590 0.00240 0.17280 0.06600
H 	H 	0.01490 0.06030 0.17080 0.00600
C 	C 	0.95540 0.94920 0.15380 -0.13800
H 	H 	0.89860 0.97040 0.13910 0.07500
C 	C 	0.97080 0.86260 0.15690 0.08500
C 	C 	0.05860 0.83500 0.18030 -0.14600
H 	H 	0.07170 0.77750 0.18330 0.08200
C 	C 	0.78160 0.86730 0.00950 0.11300
C 	C 	0.07030 0.37500 0.23670 -0.04700
C 	C 	0.07060 0.28750 0.23820 -0.04600
C 	C 	0.14640 0.23460 0.22950 0.32800
C 	C 	0.12240 0.89220 0.19810 0.07500
H 	H 	0.17950 0.87220 0.21450 0.02300
C 	C 	0.85430 0.85550 0.98680 -0.17700
H 	H 	0.90490 0.83140 0.01530 0.10000
C 	C 	0.71040 0.92400 0.89980 0.10800
H 	H 	0.65990 0.94640 0.87000 -0.01300
C 	C 	0.85120 0.87990 0.92070 0.10400
H 	H 	0.90100 0.87220 0.90590 -0.00800
C 	C 	0.70850 0.90290 0.96500 -0.17800
H 	H 	0.65840 0.91270 0.97890 0.10100
C 	C 	0.13990 0.42980 0.22280 0.32300
Ni	Ni	0.71744 0.55982 0.22301 1.05800
S 	S 	0.38940 0.28170 0.13621 -0.04200
S 	S 	0.27500 0.34230 0.09320 -0.01400
O 	O 	0.71590 0.77360 0.23110 -0.27800
O 	O 	0.63350 0.65680 0.22230 -0.43300
O 	O 	0.69570 0.96080 0.27410 -0.40700
O 	O 	0.63600 0.94550 0.16130 -0.27600
N 	N 	0.61100 0.47710 0.19440 -0.23500
N 	N 	0.28040 0.41400 0.87710 -0.24300
C 	C 	0.52590 0.50240 0.17280 0.07700
H 	H 	0.51490 0.56030 0.17080 0.00400
C 	C 	0.45540 0.44920 0.15380 -0.14800
H 	H 	0.39860 0.47040 0.13910 0.07700
C 	C 	0.47080 0.36260 0.15690 0.08500
C 	C 	0.55860 0.33500 0.18030 -0.14400
H 	H 	0.57170 0.27750 0.18330 0.08100
C 	C 	0.28160 0.36730 0.00950 0.10000
C 	C 	0.57030 0.87500 0.23670 -0.04700
C 	C 	0.57060 0.78750 0.23820 -0.04600
C 	C 	0.64640 0.73460 0.22950 0.32900
C 	C 	0.62240 0.39220 0.19810 0.07500
H 	H 	0.67950 0.37220 0.21450 0.02300
C 	C 	0.35430 0.35550 0.98680 -0.16000
H 	H 	0.40490 0.33140 0.01530 0.09200
C 	C 	0.21040 0.42400 0.89980 0.10200
H 	H 	0.15990 0.44640 0.87000 -0.01100
C 	C 	0.35120 0.37990 0.92070 0.09600
H 	H 	0.40100 0.37220 0.90590 -0.00500
C 	C 	0.20850 0.40290 0.96500 -0.16700
H 	H 	0.15840 0.41270 0.97890 0.09800
C 	C 	0.63990 0.92980 0.22280 0.32300
Ni	Ni	0.78256 0.05982 0.27699 1.05800
S 	S 	0.11060 0.78170 0.36379 -0.04200
S 	S 	0.22500 0.84230 0.40680 -0.01400
O 	O 	0.78410 0.27360 0.26890 -0.27800
O 	O 	0.86650 0.15680 0.27770 -0.43300
O 	O 	0.80430 0.46080 0.22590 -0.40700
O 	O 	0.86400 0.44550 0.33870 -0.27600
N 	N 	0.88900 0.97710 0.30560 -0.23300
N 	N 	0.21960 0.91400 0.62290 -0.24400
C 	C 	0.97410 0.00240 0.32720 0.07700
H 	H 	0.98510 0.06030 0.32920 0.00400
C 	C 	0.04460 0.94920 0.34620 -0.14800
H 	H 	0.10140 0.97040 0.36090 0.07700
C 	C 	0.02920 0.86260 0.34310 0.08100
C 	C 	0.94140 0.83500 0.31970 -0.13800
H 	H 	0.92830 0.77750 0.31670 0.08000
C 	C 	0.21840 0.86730 0.49050 0.10300
C 	C 	0.92970 0.37500 0.26330 -0.04400
C 	C 	0.92940 0.28750 0.26180 -0.04400
C 	C 	0.85360 0.23460 0.27050 0.32800
C 	C 	0.87760 0.89220 0.30190 0.07300
H 	H 	0.82050 0.87220 0.28550 0.02400
C 	C 	0.14570 0.85550 0.51320 -0.16400
H 	H 	0.09510 0.83140 0.48470 0.09400
C 	C 	0.28960 0.92400 0.60020 0.10400
H 	H 	0.34010 0.94640 0.63000 -0.01100
C 	C 	0.14880 0.87990 0.57930 0.09800
H 	H 	0.09900 0.87220 0.59410 -0.00700
C 	C 	0.29150 0.90290 0.53500 -0.17000
H 	H 	0.34160 0.91270 0.52110 0.09900
C 	C 	0.86010 0.42980 0.27720 0.32200
Ni	Ni	0.28256 0.55982 0.27699 1.05800
S 	S 	0.61060 0.28170 0.36379 -0.04200
S 	S 	0.72500 0.34230 0.40680 -0.01400
O 	O 	0.28410 0.77360 0.26890 -0.27800
O 	O 	0.36650 0.65680 0.27770 -0.43400
O 	O 	0.30430 0.96080 0.22590 -0.40700
O 	O 	0.36400 0.94550 0.33870 -0.27700
N 	N 	0.38900 0.47710 0.30560 -0.23500
N 	N 	0.71960 0.41400 0.62290 -0.24400
C 	C 	0.47410 0.50240 0.32720 0.07700
H 	H 	0.48510 0.56030 0.32920 0.00400
C 	C 	0.54460 0.44920 0.34620 -0.14800
H 	H 	0.60140 0.47040 0.36090 0.07800
C 	C 	0.52920 0.36260 0.34310 0.08500
C 	C 	0.44140 0.33500 0.31970 -0.14400
H 	H 	0.42830 0.27750 0.31670 0.08100
C 	C 	0.71840 0.36730 0.49050 0.10300
C 	C 	0.42970 0.87500 0.26330 -0.04700
C 	C 	0.42940 0.78750 0.26180 -0.04600
C 	C 	0.35360 0.73460 0.27050 0.32900
C 	C 	0.37760 0.39220 0.30190 0.07500
H 	H 	0.32050 0.37220 0.28550 0.02300
C 	C 	0.64570 0.35550 0.51320 -0.16400
H 	H 	0.59510 0.33140 0.48470 0.09400
C 	C 	0.78960 0.42400 0.60020 0.10400
H 	H 	0.84010 0.44640 0.63000 -0.01000
C 	C 	0.64880 0.37990 0.57930 0.09800
H 	H 	0.59900 0.37220 0.59410 -0.00600
C 	C 	0.79150 0.40290 0.53500 -0.17000
H 	H 	0.84160 0.41270 0.52110 0.09900
C 	C 	0.36010 0.92980 0.27720 0.32300
Ni	Ni	0.78256 0.94018 0.77699 1.05800
S 	S 	0.11060 0.21830 0.86379 -0.04200
S 	S 	0.22500 0.15770 0.90680 -0.01500
O 	O 	0.78410 0.72640 0.76890 -0.27800
O 	O 	0.86650 0.84320 0.77770 -0.43300
O 	O 	0.80430 0.53920 0.72590 -0.40700
O 	O 	0.86400 0.55450 0.83870 -0.27600
N 	N 	0.88900 0.02290 0.80560 -0.23200
N 	N 	0.21960 0.08600 0.12290 -0.24600
C 	C 	0.97410 0.99760 0.82720 0.07600
H 	H 	0.98510 0.93970 0.82920 0.00500
C 	C 	0.04460 0.05080 0.84620 -0.14700
H 	H 	0.10140 0.02960 0.86090 0.07700
C 	C 	0.02920 0.13740 0.84310 0.08000
C 	C 	0.94140 0.16500 0.81970 -0.13800
H 	H 	0.92830 0.22250 0.81670 0.08000
C 	C 	0.21840 0.13270 0.99050 0.11200
C 	C 	0.92970 0.62500 0.76330 -0.04400
C 	C 	0.92940 0.71250 0.76180 -0.04300
C 	C 	0.85360 0.76540 0.77050 0.32800
C 	C 	0.87760 0.10780 0.80190 0.07200
H 	H 	0.82050 0.12780 0.78550 0.02400
C 	C 	0.14570 0.14450 0.01320 -0.17600
H 	H 	0.09510 0.16860 0.98470 0.09900
C 	C 	0.28960 0.07600 0.10020 0.10800
H 	H 	0.34010 0.05360 0.13000 -0.01300
C 	C 	0.14880 0.12010 0.07930 0.10300
H 	H 	0.09900 0.12780 0.09410 -0.00900
C 	C 	0.29150 0.09710 0.03500 -0.17800
H 	H 	0.34160 0.08730 0.02110 0.10100
C 	C 	0.86010 0.57020 0.77720 0.32200
Ni	Ni	0.28256 0.44018 0.77699 1.05800
S 	S 	0.61060 0.71830 0.86379 -0.04200
S 	S 	0.72500 0.65770 0.90680 -0.01300
O 	O 	0.28410 0.22640 0.76890 -0.27800
O 	O 	0.36650 0.34320 0.77770 -0.43400
O 	O 	0.30430 0.03920 0.72590 -0.40700
O 	O 	0.36400 0.05450 0.83870 -0.27600
N 	N 	0.38900 0.52290 0.80560 -0.23500
N 	N 	0.71960 0.58600 0.12290 -0.24300
C 	C 	0.47410 0.49760 0.82720 0.07700
H 	H 	0.48510 0.43970 0.82920 0.00400
C 	C 	0.54460 0.55080 0.84620 -0.14800
H 	H 	0.60140 0.52960 0.86090 0.07800
C 	C 	0.52920 0.63740 0.84310 0.08500
C 	C 	0.44140 0.66500 0.81970 -0.14400
H 	H 	0.42830 0.72250 0.81670 0.08100
C 	C 	0.71840 0.63270 0.99050 0.09900
C 	C 	0.42970 0.12500 0.76330 -0.04700
C 	C 	0.42940 0.21250 0.76180 -0.04600
C 	C 	0.35360 0.26540 0.77050 0.32900
C 	C 	0.37760 0.60780 0.80190 0.07500
H 	H 	0.32050 0.62780 0.78550 0.02300
C 	C 	0.64570 0.64450 0.01320 -0.15900
H 	H 	0.59510 0.66860 0.98470 0.09200
C 	C 	0.78960 0.57600 0.10020 0.10200
H 	H 	0.84010 0.55360 0.13000 -0.01000
C 	C 	0.64880 0.62010 0.07930 0.09500
H 	H 	0.59900 0.62780 0.09410 -0.00500
C 	C 	0.79150 0.59710 0.03500 -0.16700
H 	H 	0.84160 0.58730 0.02110 0.09800
C 	C 	0.36010 0.07020 0.77720 0.32300
Ni	Ni	0.21744 0.94018 0.72301 1.05700
S 	S 	0.88940 0.21830 0.63621 -0.04100
S 	S 	0.77500 0.15770 0.59320 -0.01400
O 	O 	0.21590 0.72640 0.73110 -0.27900
O 	O 	0.13350 0.84320 0.72230 -0.43400
O 	O 	0.19570 0.53920 0.77410 -0.40800
O 	O 	0.13600 0.55450 0.66130 -0.27800
N 	N 	0.11100 0.02290 0.69440 -0.23200
N 	N 	0.78040 0.08600 0.37710 -0.24400
C 	C 	0.02590 0.99760 0.67280 0.06700
H 	H 	0.01490 0.93970 0.67080 0.00600
C 	C 	0.95540 0.05080 0.65380 -0.13900
H 	H 	0.89860 0.02960 0.63910 0.07500
C 	C 	0.97080 0.13740 0.65690 0.08600
C 	C 	0.05860 0.16500 0.68030 -0.14700
H 	H 	0.07170 0.22250 0.68330 0.08200
C 	C 	0.78160 0.13270 0.50950 0.10300
C 	C 	0.07030 0.62500 0.73670 -0.04700
C 	C 	0.07060 0.71250 0.73820 -0.04600
C 	C 	0.14640 0.76540 0.72950 0.32800
C 	C 	0.12240 0.10780 0.69810 0.07500
H 	H 	0.17950 0.12780 0.71450 0.02300
C 	C 	0.85430 0.14450 0.48680 -0.16400
H 	H 	0.90490 0.16860 0.51530 0.09500
C 	C 	0.71040 0.07600 0.39980 0.10400
H 	H 	0.65990 0.05360 0.37000 -0.01100
C 	C 	0.85120 0.12010 0.42070 0.09800
H 	H 	0.90100 0.12780 0.40590 -0.00600
C 	C 	0.70850 0.09710 0.46500 -0.17000
H 	H 	0.65840 0.08730 0.47890 0.09900
C 	C 	0.13990 0.57020 0.72280 0.32300
Ni	Ni	0.71744 0.44018 0.72301 1.05800
S 	S 	0.38940 0.71830 0.63621 -0.04200
S 	S 	0.27500 0.65770 0.59320 -0.01400
O 	O 	0.71590 0.22640 0.73110 -0.27800
O 	O 	0.63350 0.34320 0.72230 -0.43300
O 	O 	0.69570 0.03920 0.77410 -0.40600
O 	O 	0.63600 0.05450 0.66130 -0.27700
N 	N 	0.61100 0.52290 0.69440 -0.23500
N 	N 	0.28040 0.58600 0.37710 -0.24400
C 	C 	0.52590 0.49760 0.67280 0.07700
H 	H 	0.51490 0.43970 0.67080 0.00400
C 	C 	0.45540 0.55080 0.65380 -0.14800
H 	H 	0.39860 0.52960 0.63910 0.07700
C 	C 	0.47080 0.63740 0.65690 0.08500
C 	C 	0.55860 0.66500 0.68030 -0.14400
H 	H 	0.57170 0.72250 0.68330 0.08200
C 	C 	0.28160 0.63270 0.50950 0.10300
C 	C 	0.57030 0.12500 0.73670 -0.04700
C 	C 	0.57060 0.21250 0.73820 -0.04600
C 	C 	0.64640 0.26540 0.72950 0.32900
C 	C 	0.62240 0.60780 0.69810 0.07500
H 	H 	0.67950 0.62780 0.71450 0.02300
C 	C 	0.35430 0.64450 0.48680 -0.16400
H 	H 	0.40490 0.66860 0.51530 0.09400
C 	C 	0.21040 0.57600 0.39980 0.10400
H 	H 	0.15990 0.55360 0.37000 -0.01100
C 	C 	0.35120 0.62010 0.42070 0.09800
H 	H 	0.40100 0.62780 0.40590 -0.00600
C 	C 	0.20850 0.59710 0.46500 -0.17000
H 	H 	0.15840 0.58730 0.47890 0.09900
C 	C 	0.63990 0.07020 0.72280 0.32300
C 	C 	0.00000 0.41780 0.25000 -0.00800
H 	H 	0.00000 0.47670 0.25000 0.03300
C 	C 	0.00000 0.24560 0.25000 -0.01500
H 	H 	0.00000 0.18670 0.25000 0.05500
C 	C 	0.50000 0.91780 0.25000 -0.00400
H 	H 	0.50000 0.97670 0.25000 0.03300
C 	C 	0.50000 0.74560 0.25000 -0.01100
H 	H 	0.50000 0.68670 0.25000 0.05500
C 	C 	0.00000 0.58220 0.75000 -0.00900
H 	H 	0.00000 0.52330 0.75000 0.03300
C 	C 	0.00000 0.75440 0.75000 -0.01600
H 	H 	0.00000 0.81330 0.75000 0.05600
C 	C 	0.50000 0.08220 0.75000 -0.00400
H 	H 	0.50000 0.02330 0.75000 0.03300
C 	C 	0.50000 0.25440 0.75000 -0.01100
H 	H 	0.50000 0.31330 0.75000 0.05500
