data_crystal

_cell_length_a 8.06540
_cell_length_b 15.35040
_cell_length_c 19.33880
_cell_angle_alpha 90.00000
_cell_angle_beta  90.00000
_cell_angle_gamma 90.00000

_symmetry_space_group_name_	'P 1'
_symmetry_space_group_name_H-M	'P 1'

loop_
_symmetry_equiv_pos_as_xyz
  x,y,z

loop_
_atom_site_label
_atom_site_type_symbol
_atom_site_fract_x
_atom_site_fract_y
_atom_site_fract_z
_atom_site_charge
Fe	Fe	0.20726 0.16979 0.34343 1.11100
N 	N 	0.39980 0.16720 0.27458 -0.28300
N 	N 	0.06620 0.26670 0.30182 -0.28600
N 	N 	0.28830 0.18260 0.44210 -0.31500
N 	N 	0.12850 0.04350 0.34390 -0.22800
N 	N 	0.01860 0.08320 0.34110 -0.22000
C 	C 	0.49110 0.23810 0.26090 0.20400
C 	C 	0.02260 0.34670 0.32730 -0.01300
C 	C 	0.42030 0.11270 0.21850 -0.01700
C 	C 	0.50290 0.31390 0.30800 -0.58800
C 	C 	0.44760 0.16600 0.46490 -0.02400
C 	C 	0.97500 0.00620 0.34540 0.17500
C 	C 	0.23440 0.97230 0.33700 -0.06300
C 	C 	0.85290 0.10510 0.33930 -0.04600
C 	C 	0.18640 0.94380 0.35250 -0.33200
H 	H 	0.05940 0.37090 0.37160 -0.01500
H 	H 	0.37000 0.05510 0.21260 0.00800
H 	H 	0.55220 0.29540 0.35190 0.16200
H 	H 	0.57250 0.35890 0.28680 0.15300
H 	H 	0.39180 0.33740 0.31640 0.15300
H 	H 	0.54440 0.15600 0.43540 -0.00900
H 	H 	0.97680 0.21170 0.54780 0.14400
H 	H 	0.99240 0.26160 0.47540 0.16400
H 	H 	0.96030 0.15870 0.47680 0.16200
H 	H 	0.35490 0.97660 0.33140 -0.07700
H 	H 	0.80610 0.16400 0.33950 -0.02500
H 	H 	0.81410 0.08890 0.39610 0.09900
H 	H 	0.19780 0.90320 0.31370 0.15900
H 	H 	0.27960 0.98470 0.35240 0.19600
Fe	Fe	0.79274 0.83021 0.34343 1.11200
N 	N 	0.60020 0.83280 0.27458 -0.28200
N 	N 	0.93380 0.73330 0.30182 -0.28500
N 	N 	0.71170 0.81740 0.44210 -0.31400
N 	N 	0.87150 0.95650 0.34390 -0.22700
N 	N 	0.98140 0.91680 0.34110 -0.21900
C 	C 	0.50890 0.76190 0.26090 0.20500
C 	C 	0.97740 0.65330 0.32730 -0.01200
C 	C 	0.57970 0.88730 0.21850 -0.01600
C 	C 	0.49710 0.68610 0.30800 -0.58700
C 	C 	0.55240 0.83400 0.46490 -0.02300
C 	C 	0.02500 0.99380 0.34540 0.17600
C 	C 	0.76560 0.02770 0.33700 -0.06200
C 	C 	0.14710 0.89490 0.33930 -0.04500
C 	C 	0.81360 0.05620 0.35250 -0.33200
H 	H 	0.94060 0.62910 0.37160 -0.01500
H 	H 	0.63000 0.94490 0.21260 0.00800
H 	H 	0.44780 0.70460 0.35190 0.16200
H 	H 	0.42750 0.64110 0.28680 0.15300
H 	H 	0.60820 0.66260 0.31640 0.15300
H 	H 	0.45560 0.84400 0.43540 -0.00900
H 	H 	0.02320 0.78830 0.54780 0.14400
H 	H 	0.00760 0.73840 0.47540 0.16400
H 	H 	0.03970 0.84130 0.47680 0.16200
H 	H 	0.64510 0.02340 0.33140 -0.07700
H 	H 	0.19390 0.83600 0.33950 -0.02500
H 	H 	0.18590 0.91110 0.39610 0.09900
H 	H 	0.80220 0.09680 0.31370 0.15900
H 	H 	0.72040 0.01530 0.35240 0.19600
Fe	Fe	0.29274 0.66979 0.15657 1.11200
N 	N 	0.10020 0.66720 0.22542 -0.28000
N 	N 	0.43380 0.76670 0.19818 -0.28700
N 	N 	0.21170 0.68260 0.05790 -0.31300
N 	N 	0.37150 0.54350 0.15610 -0.23200
N 	N 	0.48140 0.58320 0.15890 -0.22000
C 	C 	0.00890 0.73810 0.23910 0.19300
C 	C 	0.47740 0.84670 0.17270 -0.01400
C 	C 	0.07970 0.61270 0.28150 -0.02100
C 	C 	0.99710 0.81390 0.19200 -0.56400
C 	C 	0.05240 0.66600 0.03510 0.03400
C 	C 	0.52500 0.50620 0.15460 0.18400
C 	C 	0.26560 0.47230 0.16300 -0.06000
C 	C 	0.64710 0.60510 0.16070 -0.05800
C 	C 	0.31360 0.44380 0.14750 -0.33000
H 	H 	0.44060 0.87090 0.12840 -0.00800
H 	H 	0.13000 0.55510 0.28740 0.00700
H 	H 	0.94780 0.79540 0.14810 0.16100
H 	H 	0.92750 0.85890 0.21320 0.15000
H 	H 	0.10820 0.83740 0.18360 0.14600
H 	H 	0.95560 0.65600 0.06460 -0.01800
H 	H 	0.52320 0.71170 0.95220 0.11200
H 	H 	0.50760 0.76160 0.02460 0.15100
H 	H 	0.53970 0.65870 0.02320 0.15100
H 	H 	0.14510 0.47660 0.16860 -0.07700
H 	H 	0.69390 0.66400 0.16050 -0.01700
H 	H 	0.68590 0.58890 0.10390 0.11000
H 	H 	0.30220 0.40320 0.18630 0.16600
H 	H 	0.22040 0.48470 0.14760 0.19700
Fe	Fe	0.70726 0.33021 0.15657 1.11200
N 	N 	0.89980 0.33280 0.22542 -0.28000
N 	N 	0.56620 0.23330 0.19818 -0.28700
N 	N 	0.78830 0.31740 0.05790 -0.31300
N 	N 	0.62850 0.45650 0.15610 -0.23200
N 	N 	0.51860 0.41680 0.15890 -0.22000
C 	C 	0.99110 0.26190 0.23910 0.19300
C 	C 	0.52260 0.15330 0.17270 -0.01400
C 	C 	0.92030 0.38730 0.28150 -0.02100
C 	C 	0.00290 0.18610 0.19200 -0.56400
C 	C 	0.94760 0.33400 0.03510 0.03400
C 	C 	0.47500 0.49380 0.15460 0.18400
C 	C 	0.73440 0.52770 0.16300 -0.06000
C 	C 	0.35290 0.39490 0.16070 -0.05800
C 	C 	0.68640 0.55620 0.14750 -0.33000
H 	H 	0.55940 0.12910 0.12840 -0.00800
H 	H 	0.87000 0.44490 0.28740 0.00700
H 	H 	0.05220 0.20460 0.14810 0.16100
H 	H 	0.07250 0.14110 0.21320 0.15000
H 	H 	0.89180 0.16260 0.18360 0.14600
H 	H 	0.04440 0.34400 0.06460 -0.01800
H 	H 	0.47680 0.28830 0.95220 0.11200
H 	H 	0.49240 0.23840 0.02460 0.15100
H 	H 	0.46030 0.34130 0.02320 0.15100
H 	H 	0.85490 0.52340 0.16860 -0.07700
H 	H 	0.30610 0.33600 0.16050 -0.01700
H 	H 	0.31410 0.41110 0.10390 0.11000
H 	H 	0.69780 0.59680 0.18630 0.16600
H 	H 	0.77960 0.51530 0.14760 0.19700
Fe	Fe	0.79274 0.83021 0.65657 1.11200
N 	N 	0.60020 0.83280 0.72542 -0.28200
N 	N 	0.93380 0.73330 0.69818 -0.28400
N 	N 	0.71170 0.81740 0.55790 -0.31400
N 	N 	0.87150 0.95650 0.65610 -0.22700
N 	N 	0.98140 0.91680 0.65890 -0.21800
C 	C 	0.50890 0.76190 0.73910 0.20500
C 	C 	0.97740 0.65330 0.67270 -0.01200
C 	C 	0.57970 0.88730 0.78150 -0.01800
C 	C 	0.49710 0.68610 0.69200 -0.58700
C 	C 	0.55240 0.83400 0.53510 -0.02300
C 	C 	0.02500 0.99380 0.65460 0.17600
C 	C 	0.76560 0.02770 0.66300 -0.06200
C 	C 	0.14710 0.89490 0.66070 -0.04600
C 	C 	0.81360 0.05620 0.64750 -0.33200
H 	H 	0.94060 0.62910 0.62840 -0.01500
H 	H 	0.63000 0.94490 0.78740 0.00600
H 	H 	0.44780 0.70460 0.64810 0.16300
H 	H 	0.42750 0.64110 0.71320 0.15300
H 	H 	0.60820 0.66260 0.68360 0.15300
H 	H 	0.45560 0.84400 0.56460 -0.00900
H 	H 	0.02320 0.78830 0.45220 0.14400
H 	H 	0.00760 0.73840 0.52460 0.16400
H 	H 	0.03970 0.84130 0.52320 0.16200
H 	H 	0.64510 0.02340 0.66860 -0.07800
H 	H 	0.19390 0.83600 0.66050 -0.02400
H 	H 	0.18590 0.91110 0.60390 0.10000
H 	H 	0.80220 0.09680 0.68630 0.15900
H 	H 	0.72040 0.01530 0.64760 0.19500
Fe	Fe	0.20726 0.16979 0.65657 1.11200
N 	N 	0.39980 0.16720 0.72542 -0.28200
N 	N 	0.06620 0.26670 0.69818 -0.28400
N 	N 	0.28830 0.18260 0.55790 -0.31400
N 	N 	0.12850 0.04350 0.65610 -0.22700
N 	N 	0.01860 0.08320 0.65890 -0.21800
C 	C 	0.49110 0.23810 0.73910 0.20500
C 	C 	0.02260 0.34670 0.67270 -0.01200
C 	C 	0.42030 0.11270 0.78150 -0.01800
C 	C 	0.50290 0.31390 0.69200 -0.58700
C 	C 	0.44760 0.16600 0.53510 -0.02300
C 	C 	0.97500 0.00620 0.65460 0.17600
C 	C 	0.23440 0.97230 0.66300 -0.06200
C 	C 	0.85290 0.10510 0.66070 -0.04600
C 	C 	0.18640 0.94380 0.64750 -0.33200
H 	H 	0.05940 0.37090 0.62840 -0.01500
H 	H 	0.37000 0.05510 0.78740 0.00600
H 	H 	0.55220 0.29540 0.64810 0.16300
H 	H 	0.57250 0.35890 0.71320 0.15300
H 	H 	0.39180 0.33740 0.68360 0.15300
H 	H 	0.54440 0.15600 0.56460 -0.00900
H 	H 	0.97680 0.21170 0.45220 0.14400
H 	H 	0.99240 0.26160 0.52460 0.16400
H 	H 	0.96030 0.15870 0.52320 0.16200
H 	H 	0.35490 0.97660 0.66860 -0.07800
H 	H 	0.80610 0.16400 0.66050 -0.02400
H 	H 	0.81410 0.08890 0.60390 0.10000
H 	H 	0.19780 0.90320 0.68630 0.15900
H 	H 	0.27960 0.98470 0.64760 0.19500
Fe	Fe	0.70726 0.33021 0.84343 1.11000
N 	N 	0.89980 0.33280 0.77458 -0.27900
N 	N 	0.56620 0.23330 0.80182 -0.28800
N 	N 	0.78830 0.31740 0.94210 -0.31200
N 	N 	0.62850 0.45650 0.84390 -0.23400
N 	N 	0.51860 0.41680 0.84110 -0.22100
C 	C 	0.99110 0.26190 0.76090 0.18900
C 	C 	0.52260 0.15330 0.82730 -0.01400
C 	C 	0.92030 0.38730 0.71850 -0.02100
C 	C 	0.00290 0.18610 0.80800 -0.55200
C 	C 	0.94760 0.33400 0.96490 -0.08500
C 	C 	0.47500 0.49380 0.84540 0.18100
C 	C 	0.73440 0.52770 0.83700 -0.05900
C 	C 	0.35290 0.39490 0.83930 -0.05700
C 	C 	0.68640 0.55620 0.85250 -0.32400
H 	H 	0.55940 0.12910 0.87160 -0.01600
H 	H 	0.87000 0.44490 0.71260 0.00700
H 	H 	0.05220 0.20460 0.85190 0.15200
H 	H 	0.07250 0.14110 0.78680 0.14400
H 	H 	0.89180 0.16260 0.81640 0.13900
H 	H 	0.04440 0.34400 0.93540 0.00800
H 	H 	0.47680 0.28830 0.04780 0.09300
H 	H 	0.49240 0.23840 0.97540 0.09400
H 	H 	0.46030 0.34130 0.97680 0.09000
H 	H 	0.85490 0.52340 0.83140 -0.07700
H 	H 	0.30610 0.33600 0.83950 -0.01900
H 	H 	0.31410 0.41110 0.89610 0.10000
H 	H 	0.69780 0.59680 0.81370 0.16300
H 	H 	0.77960 0.51530 0.85240 0.19000
Fe	Fe	0.29274 0.66979 0.84343 1.11000
N 	N 	0.10020 0.66720 0.77458 -0.27900
N 	N 	0.43380 0.76670 0.80182 -0.28800
N 	N 	0.21170 0.68260 0.94210 -0.31200
N 	N 	0.37150 0.54350 0.84390 -0.23400
N 	N 	0.48140 0.58320 0.84110 -0.22100
C 	C 	0.00890 0.73810 0.76090 0.18900
C 	C 	0.47740 0.84670 0.82730 -0.01400
C 	C 	0.07970 0.61270 0.71850 -0.02100
C 	C 	0.99710 0.81390 0.80800 -0.55200
C 	C 	0.05240 0.66600 0.96490 -0.08500
C 	C 	0.52500 0.50620 0.84540 0.18100
C 	C 	0.26560 0.47230 0.83700 -0.05900
C 	C 	0.64710 0.60510 0.83930 -0.05700
C 	C 	0.31360 0.44380 0.85250 -0.32400
H 	H 	0.44060 0.87090 0.87160 -0.01600
H 	H 	0.13000 0.55510 0.71260 0.00700
H 	H 	0.94780 0.79540 0.85190 0.15200
H 	H 	0.92750 0.85890 0.78680 0.14400
H 	H 	0.10820 0.83740 0.81640 0.13900
H 	H 	0.95560 0.65600 0.93540 0.00800
H 	H 	0.52320 0.71170 0.04780 0.09300
H 	H 	0.50760 0.76160 0.97540 0.09400
H 	H 	0.53970 0.65870 0.97680 0.09000
H 	H 	0.14510 0.47660 0.83140 -0.07700
H 	H 	0.69390 0.66400 0.83950 -0.01900
H 	H 	0.68590 0.58890 0.89610 0.10000
H 	H 	0.30220 0.40320 0.81370 0.16300
H 	H 	0.22040 0.48470 0.85240 0.19000
C 	C 	0.19820 0.19160 0.50000 0.31700
C 	C 	0.01650 0.20720 0.50000 -1.02300
C 	C 	0.80180 0.80840 0.50000 0.31700
C 	C 	0.98350 0.79280 0.50000 -1.02300
C 	C 	0.30180 0.69160 -0.00000 0.29000
C 	C 	0.48350 0.70720 -0.00000 -0.77800
C 	C 	0.69820 0.30840 -0.00000 0.29000
C 	C 	0.51650 0.29280 -0.00000 -0.77800
