data_crystal

_cell_length_a 9.15490
_cell_length_b 15.40860
_cell_length_c 25.45190
_cell_angle_alpha 80.77610
_cell_angle_beta  79.63920
_cell_angle_gamma 72.71830

_symmetry_space_group_name_	'P 1'
_symmetry_space_group_name_H-M	'P 1'

loop_
_symmetry_equiv_pos_as_xyz
  x,y,z

loop_
_atom_site_label
_atom_site_type_symbol
_atom_site_fract_x
_atom_site_fract_y
_atom_site_fract_z
_atom_site_charge
Cd	Cd	0.15323 0.37655 0.49503 1.24700
Cd	Cd	0.02481 0.12345 0.00497 1.24400
Cd	Cd	0.84677 0.62345 0.50497 1.24700
Cd	Cd	0.97519 0.87655 0.99503 1.24400
H 	H 	0.99330 0.21030 0.66190 0.05000
H 	H 	0.63000 0.81120 0.73940 0.08100
H 	H 	0.70640 0.73010 0.86790 0.05300
H 	H 	0.45640 0.99910 0.69050 0.07800
H 	H 	0.12870 0.07970 0.82170 0.06000
H 	H 	0.29360 0.26990 0.13210 0.05300
H 	H 	0.87130 0.92030 0.17830 0.06100
H 	H 	0.81940 0.31120 0.23940 0.07900
H 	H 	0.87200 0.23010 0.16590 0.03800
H 	H 	0.14600 0.50090 0.80950 0.08400
H 	H 	0.30440 0.76990 0.63210 0.05300
H 	H 	0.56650 0.21670 0.17210 0.05400
H 	H 	0.04470 0.71670 0.67210 0.05800
H 	H 	0.55840 0.90130 0.38710 0.05100
H 	H 	0.84680 0.59870 0.11290 0.04700
H 	H 	0.86550 0.28970 0.83810 0.04300
H 	H 	0.15320 0.40130 0.88710 0.04700
H 	H 	0.79450 0.14280 0.29640 0.08200
H 	H 	0.23370 0.35720 0.20360 0.07900
H 	H 	0.76630 0.64280 0.79640 0.07900
H 	H 	0.43350 0.78330 0.82790 0.05400
H 	H 	0.12800 0.76990 0.83410 0.03800
H 	H 	0.13450 0.71030 0.16190 0.04300
H 	H 	0.95530 0.28330 0.32790 0.05800
H 	H 	0.44160 0.09870 0.61290 0.05100
H 	H 	0.85400 0.49910 0.19050 0.08400
H 	H 	0.37000 0.18880 0.26060 0.08200
H 	H 	0.98720 0.88760 0.25960 0.07300
H 	H 	0.69560 0.23010 0.36790 0.05300
H 	H 	0.54360 0.00090 0.30950 0.07900
H 	H 	0.13440 0.61240 0.24040 0.07900
H 	H 	0.03010 0.42030 0.67830 0.05600
H 	H 	0.00670 0.78970 0.33810 0.05100
H 	H 	0.18060 0.68880 0.76060 0.07900
H 	H 	0.96990 0.57970 0.32170 0.05600
H 	H 	0.26800 0.26990 0.33410 0.03700
H 	H 	0.01280 0.11240 0.74040 0.07300
H 	H 	0.73200 0.73010 0.66590 0.03700
H 	H 	0.86560 0.38760 0.75960 0.07900
H 	H 	0.20550 0.85720 0.70360 0.08200
C 	C 	0.92350 0.33160 0.83240 0.03600
C 	C 	0.05420 0.53040 0.62680 -0.03200
C 	C 	0.40190 0.30830 0.40690 0.33400
C 	C 	0.37100 0.77940 0.65280 0.03600
C 	C 	0.01160 0.60830 0.72250 -0.01300
C 	C 	0.88290 0.80830 0.90690 0.32700
C 	C 	0.33830 0.82090 0.92710 0.31200
C 	C 	0.08630 0.67910 0.57290 0.31000
C 	C 	0.94580 0.46960 0.37320 -0.03200
C 	C 	0.66170 0.17910 0.07290 0.31200
C 	C 	0.76340 0.95510 0.27630 0.05900
C 	C 	0.91410 0.30430 0.21750 -0.11900
C 	C 	0.01770 0.27020 0.92180 0.29900
C 	C 	0.63030 0.15710 0.17310 -0.02300
C 	C 	0.99480 0.54490 0.22370 0.07300
C 	C 	0.62570 0.75480 0.67340 0.04400
C 	C 	0.35400 0.10170 0.63830 0.02700
C 	C 	0.59230 0.15740 0.27100 0.07600
C 	C 	0.08590 0.69570 0.78250 -0.11900
C 	C 	0.81050 0.98070 0.17690 -0.04500
C 	C 	0.98770 0.48290 0.27550 -0.01200
C 	C 	0.91250 0.83160 0.33240 0.01900
C 	C 	0.56410 0.80430 0.71750 -0.12800
C 	C 	0.07650 0.66840 0.16760 0.03600
C 	C 	0.21730 0.16510 0.62890 -0.07300
C 	C 	0.16140 0.33070 0.19650 -0.11300
C 	C 	0.08720 0.24240 0.14060 -0.09500
C 	C 	0.65760 0.10830 0.22250 -0.02500
C 	C 	0.07500 0.48540 0.57680 0.28700
C 	C 	0.98870 0.66510 0.12890 -0.08200
C 	C 	0.20970 0.22980 0.57820 0.29800
C 	C 	0.25390 0.98290 0.77550 0.00300
C 	C 	0.00520 0.45510 0.77630 0.07300
C 	C 	0.36970 0.84290 0.82690 -0.02300
C 	C 	0.86280 0.98540 0.07680 0.27800
C 	C 	0.96810 0.51930 0.32310 -0.03200
C 	C 	0.07720 0.60900 0.21440 -0.11500
C 	C 	0.74610 0.01710 0.22450 0.00300
C 	C 	0.59810 0.69170 0.59310 0.33400
C 	C 	0.90600 0.60170 0.13830 0.03700
C 	C 	0.34240 0.89170 0.77750 -0.02500
C 	C 	0.98840 0.39170 0.27750 -0.01300
C 	C 	0.62900 0.22060 0.34720 0.03600
C 	C 	0.78270 0.83490 0.37110 -0.07300
C 	C 	0.40770 0.84260 0.72900 0.07600
C 	C 	0.92280 0.39100 0.78560 -0.11500
C 	C 	0.01130 0.33490 0.87110 -0.08200
C 	C 	0.97930 0.65740 0.77100 0.06400
C 	C 	0.63700 0.95810 0.31490 -0.10100
C 	C 	0.13720 0.01460 0.92320 0.27800
C 	C 	0.06050 0.62070 0.62470 -0.04300
C 	C 	0.18950 0.01930 0.82310 -0.04500
C 	C 	0.78860 0.03040 0.12680 -0.02000
C 	C 	0.36300 0.04190 0.68510 -0.10100
C 	C 	0.83860 0.66930 0.80350 -0.11300
C 	C 	0.43590 0.19570 0.28250 -0.12800
C 	C 	0.91000 0.54190 0.18510 -0.11300
C 	C 	0.23660 0.04490 0.72370 0.05900
C 	C 	0.91280 0.75760 0.85940 -0.09500
C 	C 	0.03190 0.48070 0.67690 -0.03200
C 	C 	0.30590 0.87930 0.87530 -0.05000
C 	C 	0.02070 0.34260 0.22900 0.06400
C 	C 	0.98230 0.72980 0.07820 0.29900
C 	C 	0.03950 0.65710 0.67310 -0.03100
C 	C 	0.09400 0.39830 0.86170 0.03700
C 	C 	0.09940 0.10900 0.71440 -0.10200
C 	C 	0.08750 0.16840 0.66760 0.01900
C 	C 	0.94610 0.25480 0.17340 0.04400
C 	C 	0.47020 0.25760 0.35940 -0.09500
C 	C 	0.21140 0.96960 0.87320 -0.02000
C 	C 	0.91370 0.32090 0.42710 0.31000
C 	C 	0.37430 0.24520 0.32660 0.04400
C 	C 	0.19680 0.27940 0.15280 0.03100
C 	C 	0.90060 0.89100 0.28560 -0.10200
C 	C 	0.92500 0.51460 0.42320 0.28700
C 	C 	0.69410 0.12070 0.12470 -0.05000
C 	C 	0.93950 0.37930 0.37530 -0.04300
C 	C 	0.96050 0.34290 0.32690 -0.03100
C 	C 	0.80320 0.72060 0.84720 0.03100
C 	C 	0.52980 0.74240 0.64060 -0.09500
C 	C 	0.09000 0.45810 0.81490 -0.11300
C 	C 	0.79030 0.77020 0.42180 0.29800
C 	C 	0.11710 0.19170 0.09310 0.32700
C 	C 	0.05390 0.74520 0.82660 0.04400
C 	C 	0.31140 0.83070 0.69650 -0.11900
C 	C 	0.01230 0.51710 0.72450 -0.01200
C 	C 	0.68860 0.16930 0.30350 -0.11900
C 	C 	0.64600 0.89830 0.36170 0.02700
O 	O 	0.92907 0.34837 0.47049 -0.31400
O 	O 	0.04391 0.51772 0.44126 -0.41000
O 	O 	0.51740 0.65960 0.57100 -0.26000
O 	O 	0.74793 0.15163 0.02951 -0.31400
O 	O 	0.21482 0.05293 0.94323 -0.34700
O 	O 	0.07727 0.27719 0.56687 -0.33200
O 	O 	0.26032 0.31548 0.42248 -0.40000
O 	O 	0.88380 0.73690 0.04850 -0.29600
O 	O 	0.73968 0.68452 0.57752 -0.40000
O 	O 	0.78902 0.55293 0.44323 -0.35000
O 	O 	0.11620 0.26310 0.95150 -0.29600
O 	O 	0.25200 0.15960 0.07100 -0.26000
O 	O 	0.11990 0.75133 0.57247 -0.21800
O 	O 	0.92133 0.22281 0.93313 -0.32900
O 	O 	0.99828 0.18452 0.07752 -0.39400
O 	O 	0.92273 0.72281 0.43313 -0.33200
O 	O 	0.07093 0.65163 0.52951 -0.31400
O 	O 	0.55630 0.25133 0.07247 -0.21900
O 	O 	0.78518 0.94707 0.05677 -0.34700
O 	O 	0.33080 0.23690 0.54850 -0.29600
O 	O 	0.07867 0.77719 0.06687 -0.32900
O 	O 	0.74800 0.84040 0.92900 -0.26000
O 	O 	0.48260 0.34040 0.42900 -0.26000
O 	O 	0.88010 0.24867 0.42753 -0.21800
O 	O 	0.95609 0.48228 0.55874 -0.41000
O 	O 	0.25207 0.84837 0.97049 -0.31400
O 	O 	0.99711 0.01772 0.94126 -0.40200
O 	O 	0.66920 0.76310 0.45150 -0.29600
O 	O 	0.00172 0.81548 0.92248 -0.39400
O 	O 	0.44370 0.74867 0.92753 -0.21900
O 	O 	0.21098 0.44707 0.55677 -0.35000
O 	O 	0.00289 0.98228 0.05874 -0.40200
