data_crystal

_cell_length_a 15.59180
_cell_length_b 15.37260
_cell_length_c 18.28020
_cell_angle_alpha 90.00000
_cell_angle_beta  90.00000
_cell_angle_gamma 90.00000

_symmetry_space_group_name_	'P 1'
_symmetry_space_group_name_H-M	'P 1'

loop_
_symmetry_equiv_pos_as_xyz
  x,y,z

loop_
_atom_site_label
_atom_site_type_symbol
_atom_site_fract_x
_atom_site_fract_y
_atom_site_fract_z
_atom_site_charge
O 	O 	0.40920 0.74130 0.18980 -0.46500
O 	O 	0.09050 0.42510 0.31110 -0.48500
C 	C 	0.28230 0.61550 0.31630 -0.15600
H 	H 	0.30240 0.63880 0.36000 0.11300
C 	C 	0.21870 0.55050 0.31730 0.20900
N 	N 	0.19400 0.52800 0.37940 -0.12400
O 	O 	0.90920 0.24130 0.18980 -0.38500
O 	O 	0.59050 0.92510 0.31110 -0.46200
C 	C 	0.78230 0.11550 0.31630 -0.16900
H 	H 	0.80240 0.13880 0.36000 0.14000
C 	C 	0.71870 0.05050 0.31730 0.23000
N 	N 	0.69400 0.02800 0.37940 -0.11500
O 	O 	0.59080 0.74130 0.31020 -0.45800
O 	O 	0.90950 0.42510 0.18890 -0.38400
C 	C 	0.71770 0.61550 0.18370 -0.14200
H 	H 	0.69760 0.63880 0.14000 0.12200
C 	C 	0.78130 0.55050 0.18270 0.21700
N 	N 	0.80600 0.52800 0.12060 -0.09000
O 	O 	0.09080 0.24130 0.31020 -0.48900
O 	O 	0.40950 0.92510 0.18890 -0.46700
C 	C 	0.21770 0.11550 0.18370 -0.15500
H 	H 	0.19760 0.13880 0.14000 0.10800
C 	C 	0.28130 0.05050 0.18270 0.20600
N 	N 	0.30600 0.02800 0.12060 -0.12600
O 	O 	0.40920 0.74130 0.31020 -0.46400
O 	O 	0.09050 0.42510 0.18890 -0.48400
C 	C 	0.28230 0.61550 0.18370 -0.15500
H 	H 	0.30240 0.63880 0.14000 0.11400
C 	C 	0.21870 0.55050 0.18270 0.21000
N 	N 	0.19400 0.52800 0.12060 -0.12300
O 	O 	0.90920 0.24130 0.31020 -0.38300
O 	O 	0.59050 0.92510 0.18890 -0.46100
C 	C 	0.78230 0.11550 0.18370 -0.16800
H 	H 	0.80240 0.13880 0.14000 0.14100
C 	C 	0.71870 0.05050 0.18270 0.23000
N 	N 	0.69400 0.02800 0.12060 -0.11500
O 	O 	0.59080 0.74130 0.18980 -0.45800
O 	O 	0.90950 0.42510 0.31110 -0.38300
C 	C 	0.71770 0.61550 0.31630 -0.14200
H 	H 	0.69760 0.63880 0.36000 0.12200
C 	C 	0.78130 0.55050 0.31730 0.21700
N 	N 	0.80600 0.52800 0.37940 -0.09000
O 	O 	0.09080 0.24130 0.18980 -0.48900
O 	O 	0.40950 0.92510 0.31110 -0.46700
C 	C 	0.21770 0.11550 0.31630 -0.15500
H 	H 	0.19760 0.13880 0.36000 0.10800
C 	C 	0.28130 0.05050 0.31730 0.20600
N 	N 	0.30600 0.02800 0.37940 -0.12600
Cd	Cd	0.50000 0.83372 0.17023 1.26100
N 	N 	0.50000 0.83710 0.06100 -0.27000
C 	C 	0.50000 0.91620 0.02090 0.19700
C 	C 	0.50000 0.76300 0.01930 0.10300
H 	H 	0.50000 0.96740 0.04800 -0.07700
C 	C 	0.50000 0.92430 0.94950 -0.23700
C 	C 	0.50000 0.77600 0.94070 -0.19100
H 	H 	0.50000 0.70780 0.04010 -0.00200
C 	C 	0.50000 0.84700 0.90760 0.15900
H 	H 	0.50000 0.97870 0.92730 0.15900
H 	H 	0.50000 0.72630 0.91190 0.11600
C 	C 	0.50000 0.85400 0.83310 0.02900
N 	N 	0.50000 0.80680 0.78670 -0.07800
Cd	Cd	-0.00000 0.33372 0.17023 1.22000
N 	N 	-0.00000 0.33710 0.06100 -0.28900
C 	C 	-0.00000 0.41620 0.02090 0.16400
C 	C 	-0.00000 0.26300 0.01930 0.08000
H 	H 	0.00000 0.46740 0.04800 -0.07700
C 	C 	0.00000 0.42430 0.94950 -0.24100
C 	C 	-0.00000 0.27600 0.94070 -0.20000
H 	H 	0.00000 0.20780 0.04010 -0.02800
C 	C 	0.00000 0.34700 0.90760 0.14300
H 	H 	0.00000 0.47870 0.92730 0.13800
H 	H 	-0.00000 0.22630 0.91190 0.09400
C 	C 	-0.00000 0.35400 0.83310 -0.01000
N 	N 	-0.00000 0.30680 0.78670 -0.09100
Cd	Cd	0.50000 0.83372 0.32977 1.26100
N 	N 	0.50000 0.83710 0.43900 -0.27000
C 	C 	0.50000 0.91620 0.47910 0.19900
C 	C 	0.50000 0.76300 0.48070 0.10500
H 	H 	0.50000 0.96740 0.45200 -0.07800
C 	C 	0.50000 0.92430 0.55050 -0.24000
C 	C 	0.50000 0.77600 0.55930 -0.19300
H 	H 	0.50000 0.70780 0.45990 -0.00200
C 	C 	0.50000 0.84700 0.59240 0.16100
H 	H 	0.50000 0.97870 0.57270 0.16000
H 	H 	0.50000 0.72630 0.58810 0.11600
C 	C 	0.50000 0.85400 0.66690 0.02800
N 	N 	0.50000 0.80680 0.71330 -0.07700
Cd	Cd	-0.00000 0.33372 0.32977 1.22000
N 	N 	0.00000 0.33710 0.43900 -0.28900
C 	C 	0.00000 0.41620 0.47910 0.16200
C 	C 	0.00000 0.26300 0.48070 0.07900
H 	H 	0.00000 0.46740 0.45200 -0.07600
C 	C 	0.00000 0.42430 0.55050 -0.24000
C 	C 	-0.00000 0.27600 0.55930 -0.19900
H 	H 	0.00000 0.20780 0.45990 -0.02800
C 	C 	0.00000 0.34700 0.59240 0.14100
H 	H 	0.00000 0.47870 0.57270 0.13700
H 	H 	0.00000 0.22630 0.58810 0.09300
C 	C 	0.00000 0.35400 0.66690 -0.01000
N 	N 	0.00000 0.30680 0.71330 -0.09100
C 	C 	0.38320 0.71590 0.25000 0.37300
C 	C 	0.31520 0.64510 0.25000 0.02400
C 	C 	0.18680 0.51910 0.25000 -0.21500
C 	C 	0.11700 0.45320 0.25000 0.42900
C 	C 	0.88320 0.21590 0.25000 0.35000
C 	C 	0.81520 0.14510 0.25000 0.06500
C 	C 	0.68680 0.01910 0.25000 -0.21500
C 	C 	0.61700 0.95320 0.25000 0.43700
C 	C 	0.61680 0.71590 0.25000 0.37700
C 	C 	0.68480 0.64510 0.25000 0.02900
C 	C 	0.81320 0.51910 0.25000 -0.18200
C 	C 	0.88300 0.45320 0.25000 0.42300
C 	C 	0.11680 0.21590 0.25000 0.37000
C 	C 	0.18480 0.14510 0.25000 0.01400
C 	C 	0.31320 0.01910 0.25000 -0.21400
C 	C 	0.38300 0.95320 0.25000 0.43100
O 	O 	0.59080 0.25870 0.68980 -0.45800
O 	O 	0.90950 0.57490 0.81110 -0.38400
C 	C 	0.71770 0.38450 0.81630 -0.14200
H 	H 	0.69760 0.36120 0.86000 0.12200
C 	C 	0.78130 0.44950 0.81730 0.21700
N 	N 	0.80600 0.47200 0.87940 -0.09000
O 	O 	0.09080 0.75870 0.68980 -0.48900
O 	O 	0.40950 0.07490 0.81110 -0.46700
C 	C 	0.21770 0.88450 0.81630 -0.15500
H 	H 	0.19760 0.86120 0.86000 0.10800
C 	C 	0.28130 0.94950 0.81730 0.20600
N 	N 	0.30600 0.97200 0.87940 -0.12600
O 	O 	0.40920 0.25870 0.81020 -0.46400
O 	O 	0.09050 0.57490 0.68890 -0.48400
C 	C 	0.28230 0.38450 0.68370 -0.15500
H 	H 	0.30240 0.36120 0.64000 0.11400
C 	C 	0.21870 0.44950 0.68270 0.21000
N 	N 	0.19400 0.47200 0.62060 -0.12300
O 	O 	0.90920 0.75870 0.81020 -0.38400
O 	O 	0.59050 0.07490 0.68890 -0.46100
C 	C 	0.78230 0.88450 0.68370 -0.16800
H 	H 	0.80240 0.86120 0.64000 0.14100
C 	C 	0.71870 0.94950 0.68270 0.23000
N 	N 	0.69400 0.97200 0.62060 -0.11500
O 	O 	0.59080 0.25870 0.81020 -0.45800
O 	O 	0.90950 0.57490 0.68890 -0.38300
C 	C 	0.71770 0.38450 0.68370 -0.14200
H 	H 	0.69760 0.36120 0.64000 0.12200
C 	C 	0.78130 0.44950 0.68270 0.21700
N 	N 	0.80600 0.47200 0.62060 -0.09000
O 	O 	0.09080 0.75870 0.81020 -0.48900
O 	O 	0.40950 0.07490 0.68890 -0.46700
C 	C 	0.21770 0.88450 0.68370 -0.15500
H 	H 	0.19760 0.86120 0.64000 0.10800
C 	C 	0.28130 0.94950 0.68270 0.20600
N 	N 	0.30600 0.97200 0.62060 -0.12600
O 	O 	0.40920 0.25870 0.68980 -0.46400
O 	O 	0.09050 0.57490 0.81110 -0.48400
C 	C 	0.28230 0.38450 0.81630 -0.15500
H 	H 	0.30240 0.36120 0.86000 0.11400
C 	C 	0.21870 0.44950 0.81730 0.21000
N 	N 	0.19400 0.47200 0.87940 -0.12300
O 	O 	0.90920 0.75870 0.68980 -0.38300
O 	O 	0.59050 0.07490 0.81110 -0.46100
C 	C 	0.78230 0.88450 0.81630 -0.16800
H 	H 	0.80240 0.86120 0.86000 0.14100
C 	C 	0.71870 0.94950 0.81730 0.23000
N 	N 	0.69400 0.97200 0.87940 -0.11500
Cd	Cd	0.50000 0.16628 0.67023 1.26100
N 	N 	0.50000 0.16290 0.56100 -0.27000
C 	C 	0.50000 0.08380 0.52090 0.19900
C 	C 	0.50000 0.23700 0.51930 0.10500
H 	H 	0.50000 0.03260 0.54800 -0.07800
C 	C 	0.50000 0.07570 0.44950 -0.24000
C 	C 	0.50000 0.22400 0.44070 -0.19300
H 	H 	0.50000 0.29220 0.54010 -0.00200
C 	C 	0.50000 0.15300 0.40760 0.16100
H 	H 	0.50000 0.02130 0.42730 0.16000
H 	H 	0.50000 0.27370 0.41190 0.11600
C 	C 	0.50000 0.14600 0.33310 0.02800
N 	N 	0.50000 0.19320 0.28670 -0.07700
Cd	Cd	-0.00000 0.66628 0.67023 1.22000
N 	N 	0.00000 0.66290 0.56100 -0.28900
C 	C 	0.00000 0.58380 0.52090 0.16200
C 	C 	-0.00000 0.73700 0.51930 0.07900
H 	H 	0.00000 0.53260 0.54800 -0.07600
C 	C 	-0.00000 0.57570 0.44950 -0.24000
C 	C 	0.00000 0.72400 0.44070 -0.19900
H 	H 	-0.00000 0.79220 0.54010 -0.02800
C 	C 	-0.00000 0.65300 0.40760 0.14100
H 	H 	0.00000 0.52130 0.42730 0.13700
H 	H 	0.00000 0.77370 0.41190 0.09300
C 	C 	-0.00000 0.64600 0.33310 -0.01000
N 	N 	-0.00000 0.69320 0.28670 -0.09100
Cd	Cd	0.50000 0.16628 0.82977 1.26100
N 	N 	0.50000 0.16290 0.93900 -0.27000
C 	C 	0.50000 0.08380 0.97910 0.19700
C 	C 	0.50000 0.23700 0.98070 0.10300
H 	H 	0.50000 0.03260 0.95200 -0.07700
C 	C 	0.50000 0.07570 0.05050 -0.23700
C 	C 	0.50000 0.22400 0.05930 -0.19100
H 	H 	0.50000 0.29220 0.95990 -0.00200
C 	C 	0.50000 0.15300 0.09240 0.15900
H 	H 	0.50000 0.02130 0.07270 0.15900
H 	H 	0.50000 0.27370 0.08810 0.11600
C 	C 	0.50000 0.14600 0.16690 0.02900
N 	N 	0.50000 0.19320 0.21330 -0.07800
Cd	Cd	0.00000 0.66628 0.82977 1.22000
N 	N 	-0.00000 0.66290 0.93900 -0.28900
C 	C 	-0.00000 0.58380 0.97910 0.16400
C 	C 	0.00000 0.73700 0.98070 0.08000
H 	H 	0.00000 0.53260 0.95200 -0.07700
C 	C 	-0.00000 0.57570 0.05050 -0.24100
C 	C 	-0.00000 0.72400 0.05930 -0.20000
H 	H 	-0.00000 0.79220 0.95990 -0.02800
C 	C 	0.00000 0.65300 0.09240 0.14300
H 	H 	-0.00000 0.52130 0.07270 0.13800
H 	H 	-0.00000 0.77370 0.08810 0.09400
C 	C 	0.00000 0.64600 0.16690 -0.01000
N 	N 	-0.00000 0.69320 0.21330 -0.09100
C 	C 	0.61680 0.28410 0.75000 0.37700
C 	C 	0.68480 0.35490 0.75000 0.02900
C 	C 	0.81320 0.48090 0.75000 -0.18200
C 	C 	0.88300 0.54680 0.75000 0.42300
C 	C 	0.11680 0.78410 0.75000 0.37000
C 	C 	0.18480 0.85490 0.75000 0.01400
C 	C 	0.31320 0.98090 0.75000 -0.21400
C 	C 	0.38300 0.04680 0.75000 0.43100
C 	C 	0.38320 0.28410 0.75000 0.37300
C 	C 	0.31520 0.35490 0.75000 0.02400
C 	C 	0.18680 0.48090 0.75000 -0.21500
C 	C 	0.11700 0.54680 0.75000 0.42900
C 	C 	0.88320 0.78410 0.75000 0.35000
C 	C 	0.81520 0.85490 0.75000 0.06500
C 	C 	0.68680 0.98090 0.75000 -0.21500
C 	C 	0.61700 0.04680 0.75000 0.43700
