data_crystal

_cell_length_a 15.93900
_cell_length_b 20.85700
_cell_length_c 14.37400
_cell_angle_alpha 90.00000
_cell_angle_beta  90.00000
_cell_angle_gamma 90.00000

_symmetry_space_group_name_	'P 1'
_symmetry_space_group_name_H-M	'P 1'

loop_
_symmetry_equiv_pos_as_xyz
  x,y,z

loop_
_atom_site_label
_atom_site_type_symbol
_atom_site_fract_x
_atom_site_fract_y
_atom_site_fract_z
_atom_site_charge
C 	C 	0.00000 0.68250 0.32160 0.31300
C 	C 	0.00000 0.74790 0.27730 -0.11500
C 	C 	0.00000 0.75370 0.17970 0.01200
H 	H 	-0.00000 0.71700 0.14290 0.04800
C 	C 	-0.00000 0.81390 0.13790 -0.05600
H 	H 	0.00000 0.81750 0.07340 0.06300
C 	C 	0.00000 0.86870 0.19320 -0.05100
C 	C 	-0.00000 0.86360 0.28990 -0.09800
H 	H 	0.00000 0.90030 0.32650 0.08300
C 	C 	0.00000 0.80310 0.33180 0.12400
C 	C 	0.00000 0.93520 0.14870 0.36500
N 	N 	0.00000 0.80110 0.42800 -0.11000
O 	O 	0.00000 0.63360 0.26910 -0.38500
O 	O 	0.00000 0.67710 0.40800 -0.39300
O 	O 	0.00000 0.93930 0.06310 -0.53700
O 	O 	0.00000 0.98170 0.20160 -0.44200
Cd	Cd	0.00000 0.56434 0.40106 1.19300
C 	C 	-0.00000 0.81750 0.82160 0.31300
C 	C 	0.00000 0.75210 0.77730 -0.11700
C 	C 	-0.00000 0.74630 0.67970 0.01100
H 	H 	0.00000 0.78300 0.64290 0.04700
C 	C 	0.00000 0.68610 0.63790 -0.05700
H 	H 	0.00000 0.68250 0.57340 0.06200
C 	C 	0.00000 0.63130 0.69320 -0.05200
C 	C 	0.00000 0.63640 0.78990 -0.09900
H 	H 	0.00000 0.59970 0.82650 0.08200
C 	C 	0.00000 0.69690 0.83180 0.12300
C 	C 	0.00000 0.56480 0.64870 0.36400
N 	N 	0.00000 0.69890 0.92800 -0.11200
O 	O 	0.00000 0.86640 0.76910 -0.38600
O 	O 	0.00000 0.82290 0.90800 -0.39400
O 	O 	0.00000 0.56070 0.56310 -0.53800
O 	O 	0.00000 0.51830 0.70160 -0.44300
Cd	Cd	0.00000 0.93566 0.90106 1.19100
C 	C 	0.00000 0.18250 0.17840 0.31300
C 	C 	0.00000 0.24790 0.22270 -0.11700
C 	C 	0.00000 0.25370 0.32030 0.01100
H 	H 	0.00000 0.21700 0.35710 0.04700
C 	C 	0.00000 0.31390 0.36210 -0.05700
H 	H 	0.00000 0.31750 0.42660 0.06200
C 	C 	0.00000 0.36870 0.30680 -0.05200
C 	C 	0.00000 0.36360 0.21010 -0.09900
H 	H 	0.00000 0.40030 0.17350 0.08200
C 	C 	0.00000 0.30310 0.16820 0.12300
C 	C 	0.00000 0.43520 0.35130 0.36400
N 	N 	-0.00000 0.30110 0.07200 -0.11200
O 	O 	0.00000 0.13360 0.23090 -0.38600
O 	O 	0.00000 0.17710 0.09200 -0.39400
O 	O 	0.00000 0.43930 0.43690 -0.53800
O 	O 	-0.00000 0.48170 0.29840 -0.44300
Cd	Cd	-0.00000 0.06434 0.09894 1.19100
C 	C 	-0.00000 0.31750 0.67840 0.31200
C 	C 	-0.00000 0.25210 0.72270 -0.11600
C 	C 	-0.00000 0.24630 0.82030 0.01100
H 	H 	0.00000 0.28300 0.85710 0.04700
C 	C 	-0.00000 0.18610 0.86210 -0.05700
H 	H 	-0.00000 0.18250 0.92660 0.06200
C 	C 	0.00000 0.13130 0.80680 -0.05200
C 	C 	0.00000 0.13640 0.71010 -0.09900
H 	H 	-0.00000 0.09970 0.67350 0.08200
C 	C 	-0.00000 0.19690 0.66820 0.12300
C 	C 	0.00000 0.06480 0.85130 0.36400
N 	N 	-0.00000 0.19890 0.57200 -0.11100
O 	O 	-0.00000 0.36640 0.73090 -0.38500
O 	O 	-0.00000 0.32290 0.59200 -0.39300
O 	O 	0.00000 0.06070 0.93690 -0.53700
O 	O 	0.00000 0.01830 0.79840 -0.44200
Cd	Cd	0.00000 0.43566 0.59894 1.19300
C 	C 	0.50000 0.18250 0.32160 0.31200
C 	C 	0.50000 0.24790 0.27730 -0.11700
C 	C 	0.50000 0.25370 0.17970 0.01000
H 	H 	0.50000 0.21700 0.14290 0.04700
C 	C 	0.50000 0.31390 0.13790 -0.05700
H 	H 	0.50000 0.31750 0.07340 0.06100
C 	C 	0.50000 0.36870 0.19320 -0.05200
C 	C 	0.50000 0.36360 0.28990 -0.09900
H 	H 	0.50000 0.40030 0.32650 0.08200
C 	C 	0.50000 0.30310 0.33180 0.12300
C 	C 	0.50000 0.43520 0.14870 0.36400
N 	N 	0.50000 0.30110 0.42800 -0.11100
O 	O 	0.50000 0.13360 0.26910 -0.38600
O 	O 	0.50000 0.17710 0.40800 -0.39300
O 	O 	0.50000 0.43930 0.06310 -0.53900
O 	O 	0.50000 0.48170 0.20160 -0.44300
Cd	Cd	0.50000 0.06434 0.40106 1.19200
C 	C 	0.50000 0.31750 0.82160 0.31200
C 	C 	0.50000 0.25210 0.77730 -0.11600
C 	C 	0.50000 0.24630 0.67970 0.01000
H 	H 	0.50000 0.28300 0.64290 0.04700
C 	C 	0.50000 0.18610 0.63790 -0.05700
H 	H 	0.50000 0.18250 0.57340 0.06200
C 	C 	0.50000 0.13130 0.69320 -0.05200
C 	C 	0.50000 0.13640 0.78990 -0.09900
H 	H 	0.50000 0.09970 0.82650 0.08300
C 	C 	0.50000 0.19690 0.83180 0.12400
C 	C 	0.50000 0.06480 0.64870 0.36400
N 	N 	0.50000 0.19890 0.92800 -0.11100
O 	O 	0.50000 0.36640 0.76910 -0.38500
O 	O 	0.50000 0.32290 0.90800 -0.39200
O 	O 	0.50000 0.06070 0.56310 -0.53800
O 	O 	0.50000 0.01830 0.70160 -0.44200
Cd	Cd	0.50000 0.43566 0.90106 1.19300
C 	C 	0.50000 0.68250 0.17840 0.31200
C 	C 	0.50000 0.74790 0.22270 -0.11600
C 	C 	0.50000 0.75370 0.32030 0.01000
H 	H 	0.50000 0.71700 0.35710 0.04700
C 	C 	0.50000 0.81390 0.36210 -0.05700
H 	H 	0.50000 0.81750 0.42660 0.06200
C 	C 	0.50000 0.86870 0.30680 -0.05200
C 	C 	0.50000 0.86360 0.21010 -0.09900
H 	H 	0.50000 0.90030 0.17350 0.08300
C 	C 	0.50000 0.80310 0.16820 0.12400
C 	C 	0.50000 0.93520 0.35130 0.36400
N 	N 	0.50000 0.80110 0.07200 -0.11100
O 	O 	0.50000 0.63360 0.23090 -0.38500
O 	O 	0.50000 0.67710 0.09200 -0.39200
O 	O 	0.50000 0.93930 0.43690 -0.53800
O 	O 	0.50000 0.98170 0.29840 -0.44200
Cd	Cd	0.50000 0.56434 0.09894 1.19300
C 	C 	0.50000 0.81750 0.67840 0.31200
C 	C 	0.50000 0.75210 0.72270 -0.11700
C 	C 	0.50000 0.74630 0.82030 0.01000
H 	H 	0.50000 0.78300 0.85710 0.04700
C 	C 	0.50000 0.68610 0.86210 -0.05700
H 	H 	0.50000 0.68250 0.92660 0.06100
C 	C 	0.50000 0.63130 0.80680 -0.05200
C 	C 	0.50000 0.63640 0.71010 -0.09900
H 	H 	0.50000 0.59970 0.67350 0.08200
C 	C 	0.50000 0.69690 0.66820 0.12300
C 	C 	0.50000 0.56480 0.85130 0.36400
N 	N 	0.50000 0.69890 0.57200 -0.11100
O 	O 	0.50000 0.86640 0.73090 -0.38600
O 	O 	0.50000 0.82290 0.59200 -0.39300
O 	O 	0.50000 0.56070 0.93690 -0.53900
O 	O 	0.50000 0.51830 0.79840 -0.44300
Cd	Cd	0.50000 0.93566 0.59894 1.19200
