data_crystal

_cell_length_a 18.61790
_cell_length_b 18.61790
_cell_length_c 34.14700
_cell_angle_alpha 90.00000
_cell_angle_beta  90.00000
_cell_angle_gamma 120.00000

_symmetry_space_group_name_	'P 1'
_symmetry_space_group_name_H-M	'P 1'

loop_
_symmetry_equiv_pos_as_xyz
  x,y,z

loop_
_atom_site_label
_atom_site_type_symbol
_atom_site_fract_x
_atom_site_fract_y
_atom_site_fract_z
_atom_site_charge
O 	O 	0.58919 0.02920 0.05004 -0.40500
O 	O 	0.62896 0.10993 0.99662 -0.40100
C 	C 	0.63970 0.09150 0.03110 0.35800
C 	C 	0.72110 0.14970 0.05002 -0.08500
C 	C 	0.73780 0.13430 0.08805 -0.00700
H 	H 	0.70010 0.08570 0.10070 0.05000
C 	C 	0.80050 0.09850 0.16240 -0.05900
H 	H 	0.78220 0.05570 0.14420 0.05500
C 	C 	0.80370 0.07990 0.20150 -0.03200
H 	H 	0.78360 0.02620 0.21070 0.04600
C 	C 	0.85190 0.24170 0.17630 -0.05900
H 	H 	0.86810 0.29570 0.16860 0.06900
C 	C 	0.85520 0.22190 0.21620 0.00400
O 	O 	0.97080 0.55999 0.05004 -0.40500
O 	O 	0.89007 0.51903 0.99662 -0.40100
C 	C 	0.90850 0.54820 0.03110 0.35800
C 	C 	0.85030 0.57140 0.05002 -0.08500
C 	C 	0.86570 0.60350 0.08805 -0.00700
H 	H 	0.91430 0.61440 0.10070 0.05000
C 	C 	0.90150 0.70200 0.16240 -0.05900
H 	H 	0.94430 0.72650 0.14420 0.05500
C 	C 	0.92010 0.72380 0.20150 -0.03300
H 	H 	0.97380 0.75740 0.21070 0.04600
C 	C 	0.75830 0.61020 0.17630 -0.05900
H 	H 	0.70430 0.57240 0.16860 0.06900
C 	C 	0.77810 0.63330 0.21620 0.00300
O 	O 	0.44001 0.41081 0.05004 -0.40500
O 	O 	0.48097 0.37104 0.99662 -0.40000
C 	C 	0.45180 0.36030 0.03110 0.35700
C 	C 	0.42860 0.27890 0.05002 -0.08600
C 	C 	0.39650 0.26220 0.08805 -0.00800
H 	H 	0.38560 0.29990 0.10070 0.04900
C 	C 	0.29800 0.19950 0.16240 -0.06000
H 	H 	0.27350 0.21780 0.14420 0.05400
C 	C 	0.27620 0.19630 0.20150 -0.03400
H 	H 	0.24260 0.21640 0.21070 0.04500
C 	C 	0.38980 0.14810 0.17630 -0.06000
H 	H 	0.42760 0.13190 0.16860 0.06800
C 	C 	0.36670 0.14480 0.21620 0.00300
O 	O 	0.41081 0.97080 0.55004 -0.40600
O 	O 	0.37104 0.89007 0.49662 -0.40100
C 	C 	0.36030 0.90850 0.53110 0.35700
C 	C 	0.27890 0.85030 0.55002 -0.08600
C 	C 	0.26220 0.86570 0.58805 -0.00800
H 	H 	0.29990 0.91430 0.60070 0.04900
C 	C 	0.19950 0.90150 0.66240 -0.06000
H 	H 	0.21780 0.94430 0.64420 0.05400
C 	C 	0.19630 0.92010 0.70150 -0.03400
H 	H 	0.21640 0.97380 0.71070 0.04500
C 	C 	0.14810 0.75830 0.67630 -0.06000
H 	H 	0.13190 0.70430 0.66860 0.06800
C 	C 	0.14480 0.77810 0.71620 0.00200
O 	O 	0.02920 0.44001 0.55004 -0.40600
O 	O 	0.10993 0.48097 0.49662 -0.40100
C 	C 	0.09150 0.45180 0.53110 0.35700
C 	C 	0.14970 0.42860 0.55002 -0.08600
C 	C 	0.13430 0.39650 0.58805 -0.00800
H 	H 	0.08570 0.38560 0.60070 0.04900
C 	C 	0.09850 0.29800 0.66240 -0.06000
H 	H 	0.05570 0.27350 0.64420 0.05400
C 	C 	0.07990 0.27620 0.70150 -0.03400
H 	H 	0.02620 0.24260 0.71070 0.04500
C 	C 	0.24170 0.38980 0.67630 -0.06000
H 	H 	0.29570 0.42760 0.66860 0.06800
C 	C 	0.22190 0.36670 0.71620 0.00200
O 	O 	0.55999 0.58919 0.55004 -0.40600
O 	O 	0.51903 0.62896 0.49662 -0.40100
C 	C 	0.54820 0.63970 0.53110 0.35700
C 	C 	0.57140 0.72110 0.55002 -0.08600
C 	C 	0.60350 0.73780 0.58805 -0.00800
H 	H 	0.61440 0.70010 0.60070 0.04900
C 	C 	0.70200 0.80050 0.66240 -0.06000
H 	H 	0.72650 0.78220 0.64420 0.05400
C 	C 	0.72380 0.80370 0.70150 -0.03400
H 	H 	0.75740 0.78360 0.71070 0.04500
C 	C 	0.61020 0.85190 0.67630 -0.06000
H 	H 	0.57240 0.86810 0.66860 0.06800
C 	C 	0.63330 0.85520 0.71620 0.00300
O 	O 	0.02920 0.58919 0.94996 -0.40600
O 	O 	0.10993 0.62896 0.00338 -0.40200
C 	C 	0.09150 0.63970 0.96890 0.35700
C 	C 	0.14970 0.72110 0.94998 -0.08600
C 	C 	0.13430 0.73780 0.91195 -0.00800
H 	H 	0.08570 0.70010 0.89930 0.04900
C 	C 	0.09850 0.80050 0.83760 -0.06000
H 	H 	0.05570 0.78220 0.85580 0.05400
C 	C 	0.07990 0.80370 0.79850 -0.03300
H 	H 	0.02620 0.78360 0.78930 0.04500
C 	C 	0.24170 0.85190 0.82370 -0.06000
H 	H 	0.29570 0.86810 0.83140 0.06800
C 	C 	0.22190 0.85520 0.78380 0.00300
O 	O 	0.55999 0.97080 0.94996 -0.40600
O 	O 	0.51903 0.89007 0.00338 -0.40200
C 	C 	0.54820 0.90850 0.96890 0.35700
C 	C 	0.57140 0.85030 0.94998 -0.08600
C 	C 	0.60350 0.86570 0.91195 -0.00800
H 	H 	0.61440 0.91430 0.89930 0.04900
C 	C 	0.70200 0.90150 0.83760 -0.06000
H 	H 	0.72650 0.94430 0.85580 0.05400
C 	C 	0.72380 0.92010 0.79850 -0.03400
H 	H 	0.75740 0.97380 0.78930 0.04500
C 	C 	0.61020 0.75830 0.82370 -0.06000
H 	H 	0.57240 0.70430 0.83140 0.06800
C 	C 	0.63330 0.77810 0.78380 0.00200
O 	O 	0.41081 0.44001 0.94996 -0.40600
O 	O 	0.37104 0.48097 0.00338 -0.40100
C 	C 	0.36030 0.45180 0.96890 0.35700
C 	C 	0.27890 0.42860 0.94998 -0.08600
C 	C 	0.26220 0.39650 0.91195 -0.00800
H 	H 	0.29990 0.38560 0.89930 0.04900
C 	C 	0.19950 0.29800 0.83760 -0.06000
H 	H 	0.21780 0.27350 0.85580 0.05400
C 	C 	0.19630 0.27620 0.79850 -0.03400
H 	H 	0.21640 0.24260 0.78930 0.04500
C 	C 	0.14810 0.38980 0.82370 -0.06000
H 	H 	0.13190 0.42760 0.83140 0.06800
C 	C 	0.14480 0.36670 0.78380 0.00300
O 	O 	0.97080 0.41081 0.44996 -0.40600
O 	O 	0.89007 0.37104 0.50338 -0.40100
C 	C 	0.90850 0.36030 0.46890 0.35700
C 	C 	0.85030 0.27890 0.44998 -0.08600
C 	C 	0.86570 0.26220 0.41195 -0.00800
H 	H 	0.91430 0.29990 0.39930 0.04900
C 	C 	0.90150 0.19950 0.33760 -0.06000
H 	H 	0.94430 0.21780 0.35580 0.05400
C 	C 	0.92010 0.19630 0.29850 -0.03400
H 	H 	0.97380 0.21640 0.28930 0.04500
C 	C 	0.75830 0.14810 0.32370 -0.06000
H 	H 	0.70430 0.13190 0.33140 0.06800
C 	C 	0.77810 0.14480 0.28380 0.00200
O 	O 	0.44001 0.02920 0.44996 -0.40600
O 	O 	0.48097 0.10993 0.50338 -0.40100
C 	C 	0.45180 0.09150 0.46890 0.35700
C 	C 	0.42860 0.14970 0.44998 -0.08600
C 	C 	0.39650 0.13430 0.41195 -0.00800
H 	H 	0.38560 0.08570 0.39930 0.04900
C 	C 	0.29800 0.09850 0.33760 -0.06000
H 	H 	0.27350 0.05570 0.35580 0.05400
C 	C 	0.27620 0.07990 0.29850 -0.03400
H 	H 	0.24260 0.02620 0.28930 0.04500
C 	C 	0.38980 0.24170 0.32370 -0.06000
H 	H 	0.42760 0.29570 0.33140 0.06800
C 	C 	0.36670 0.22190 0.28380 0.00200
O 	O 	0.58919 0.55999 0.44996 -0.40600
O 	O 	0.62896 0.51903 0.50338 -0.40100
C 	C 	0.63970 0.54820 0.46890 0.35700
C 	C 	0.72110 0.57140 0.44998 -0.08600
C 	C 	0.73780 0.60350 0.41195 -0.00800
H 	H 	0.70010 0.61440 0.39930 0.04900
C 	C 	0.80050 0.70200 0.33760 -0.06000
H 	H 	0.78220 0.72650 0.35580 0.05400
C 	C 	0.80370 0.72380 0.29850 -0.03400
H 	H 	0.78360 0.75740 0.28930 0.04500
C 	C 	0.85190 0.61020 0.32370 -0.06000
H 	H 	0.86810 0.57240 0.33140 0.06800
C 	C 	0.85520 0.63330 0.28380 0.00300
O 	O 	0.41081 0.97080 0.94996 -0.40600
O 	O 	0.37104 0.89007 0.00338 -0.40200
C 	C 	0.36030 0.90850 0.96890 0.35700
C 	C 	0.27890 0.85030 0.94998 -0.08600
C 	C 	0.26220 0.86570 0.91195 -0.00800
H 	H 	0.29990 0.91430 0.89930 0.04900
C 	C 	0.19950 0.90150 0.83760 -0.06000
H 	H 	0.21780 0.94430 0.85580 0.05400
C 	C 	0.19630 0.92010 0.79850 -0.03300
H 	H 	0.21640 0.97380 0.78930 0.04500
C 	C 	0.14810 0.75830 0.82370 -0.06000
H 	H 	0.13190 0.70430 0.83140 0.06800
C 	C 	0.14480 0.77810 0.78380 0.00300
O 	O 	0.02920 0.44001 0.94996 -0.40600
O 	O 	0.10993 0.48097 0.00338 -0.40200
C 	C 	0.09150 0.45180 0.96890 0.35700
C 	C 	0.14970 0.42860 0.94998 -0.08600
C 	C 	0.13430 0.39650 0.91195 -0.00800
H 	H 	0.08570 0.38560 0.89930 0.04900
C 	C 	0.09850 0.29800 0.83760 -0.06000
H 	H 	0.05570 0.27350 0.85580 0.05400
C 	C 	0.07990 0.27620 0.79850 -0.03400
H 	H 	0.02620 0.24260 0.78930 0.04500
C 	C 	0.24170 0.38980 0.82370 -0.06000
H 	H 	0.29570 0.42760 0.83140 0.06800
C 	C 	0.22190 0.36670 0.78380 0.00200
O 	O 	0.55999 0.58919 0.94996 -0.40600
O 	O 	0.51903 0.62896 0.00338 -0.40100
C 	C 	0.54820 0.63970 0.96890 0.35700
C 	C 	0.57140 0.72110 0.94998 -0.08600
C 	C 	0.60350 0.73780 0.91195 -0.00800
H 	H 	0.61440 0.70010 0.89930 0.04900
C 	C 	0.70200 0.80050 0.83760 -0.06000
H 	H 	0.72650 0.78220 0.85580 0.05400
C 	C 	0.72380 0.80370 0.79850 -0.03400
H 	H 	0.75740 0.78360 0.78930 0.04500
C 	C 	0.61020 0.85190 0.82370 -0.06000
H 	H 	0.57240 0.86810 0.83140 0.06800
C 	C 	0.63330 0.85520 0.78380 0.00300
O 	O 	0.58919 0.02920 0.44996 -0.40600
O 	O 	0.62896 0.10993 0.50338 -0.40100
C 	C 	0.63970 0.09150 0.46890 0.35700
C 	C 	0.72110 0.14970 0.44998 -0.08600
C 	C 	0.73780 0.13430 0.41195 -0.00800
H 	H 	0.70010 0.08570 0.39930 0.04900
C 	C 	0.80050 0.09850 0.33760 -0.06000
H 	H 	0.78220 0.05570 0.35580 0.05400
C 	C 	0.80370 0.07990 0.29850 -0.03400
H 	H 	0.78360 0.02620 0.28930 0.04500
C 	C 	0.85190 0.24170 0.32370 -0.06000
H 	H 	0.86810 0.29570 0.33140 0.06800
C 	C 	0.85520 0.22190 0.28380 0.00200
O 	O 	0.97080 0.55999 0.44996 -0.40600
O 	O 	0.89007 0.51903 0.50338 -0.40100
C 	C 	0.90850 0.54820 0.46890 0.35700
C 	C 	0.85030 0.57140 0.44998 -0.08600
C 	C 	0.86570 0.60350 0.41195 -0.00800
H 	H 	0.91430 0.61440 0.39930 0.04900
C 	C 	0.90150 0.70200 0.33760 -0.06000
H 	H 	0.94430 0.72650 0.35580 0.05400
C 	C 	0.92010 0.72380 0.29850 -0.03400
H 	H 	0.97380 0.75740 0.28930 0.04500
C 	C 	0.75830 0.61020 0.32370 -0.06000
H 	H 	0.70430 0.57240 0.33140 0.06800
C 	C 	0.77810 0.63330 0.28380 0.00200
O 	O 	0.44001 0.41081 0.44996 -0.40600
O 	O 	0.48097 0.37104 0.50338 -0.40100
C 	C 	0.45180 0.36030 0.46890 0.35700
C 	C 	0.42860 0.27890 0.44998 -0.08600
C 	C 	0.39650 0.26220 0.41195 -0.00800
H 	H 	0.38560 0.29990 0.39930 0.04900
C 	C 	0.29800 0.19950 0.33760 -0.06000
H 	H 	0.27350 0.21780 0.35580 0.05400
C 	C 	0.27620 0.19630 0.29850 -0.03400
H 	H 	0.24260 0.21640 0.28930 0.04500
C 	C 	0.38980 0.14810 0.32370 -0.06000
H 	H 	0.42760 0.13190 0.33140 0.06800
C 	C 	0.36670 0.14480 0.28380 0.00300
O 	O 	0.97080 0.41081 0.05004 -0.40600
O 	O 	0.89007 0.37104 0.99662 -0.40200
C 	C 	0.90850 0.36030 0.03110 0.35700
C 	C 	0.85030 0.27890 0.05002 -0.08600
C 	C 	0.86570 0.26220 0.08805 -0.00800
H 	H 	0.91430 0.29990 0.10070 0.04900
C 	C 	0.90150 0.19950 0.16240 -0.06000
H 	H 	0.94430 0.21780 0.14420 0.05400
C 	C 	0.92010 0.19630 0.20150 -0.03300
H 	H 	0.97380 0.21640 0.21070 0.04500
C 	C 	0.75830 0.14810 0.17630 -0.06000
H 	H 	0.70430 0.13190 0.16860 0.06800
C 	C 	0.77810 0.14480 0.21620 0.00300
O 	O 	0.44001 0.02920 0.05004 -0.40600
O 	O 	0.48097 0.10993 0.99662 -0.40200
C 	C 	0.45180 0.09150 0.03110 0.35700
C 	C 	0.42860 0.14970 0.05002 -0.08600
C 	C 	0.39650 0.13430 0.08805 -0.00800
H 	H 	0.38560 0.08570 0.10070 0.04900
C 	C 	0.29800 0.09850 0.16240 -0.06000
H 	H 	0.27350 0.05570 0.14420 0.05400
C 	C 	0.27620 0.07990 0.20150 -0.03400
H 	H 	0.24260 0.02620 0.21070 0.04500
C 	C 	0.38980 0.24170 0.17630 -0.06000
H 	H 	0.42760 0.29570 0.16860 0.06800
C 	C 	0.36670 0.22190 0.21620 0.00200
O 	O 	0.58919 0.55999 0.05004 -0.40600
O 	O 	0.62896 0.51903 0.99662 -0.40100
C 	C 	0.63970 0.54820 0.03110 0.35700
C 	C 	0.72110 0.57140 0.05002 -0.08600
C 	C 	0.73780 0.60350 0.08805 -0.00800
H 	H 	0.70010 0.61440 0.10070 0.04900
C 	C 	0.80050 0.70200 0.16240 -0.06000
H 	H 	0.78220 0.72650 0.14420 0.05400
C 	C 	0.80370 0.72380 0.20150 -0.03400
H 	H 	0.78360 0.75740 0.21070 0.04500
C 	C 	0.85190 0.61020 0.17630 -0.06000
H 	H 	0.86810 0.57240 0.16860 0.06800
C 	C 	0.85520 0.63330 0.21620 0.00300
O 	O 	0.02920 0.58919 0.55004 -0.40600
O 	O 	0.10993 0.62896 0.49662 -0.40100
C 	C 	0.09150 0.63970 0.53110 0.35700
C 	C 	0.14970 0.72110 0.55002 -0.08600
C 	C 	0.13430 0.73780 0.58805 -0.00800
H 	H 	0.08570 0.70010 0.60070 0.04900
C 	C 	0.09850 0.80050 0.66240 -0.06000
H 	H 	0.05570 0.78220 0.64420 0.05400
C 	C 	0.07990 0.80370 0.70150 -0.03400
H 	H 	0.02620 0.78360 0.71070 0.04500
C 	C 	0.24170 0.85190 0.67630 -0.06000
H 	H 	0.29570 0.86810 0.66860 0.06800
C 	C 	0.22190 0.85520 0.71620 0.00200
O 	O 	0.55999 0.97080 0.55004 -0.40600
O 	O 	0.51903 0.89007 0.49662 -0.40100
C 	C 	0.54820 0.90850 0.53110 0.35700
C 	C 	0.57140 0.85030 0.55002 -0.08600
C 	C 	0.60350 0.86570 0.58805 -0.00800
H 	H 	0.61440 0.91430 0.60070 0.04900
C 	C 	0.70200 0.90150 0.66240 -0.06000
H 	H 	0.72650 0.94430 0.64420 0.05400
C 	C 	0.72380 0.92010 0.70150 -0.03400
H 	H 	0.75740 0.97380 0.71070 0.04500
C 	C 	0.61020 0.75830 0.67630 -0.06000
H 	H 	0.57240 0.70430 0.66860 0.06800
C 	C 	0.63330 0.77810 0.71620 0.00200
O 	O 	0.41081 0.44001 0.55004 -0.40600
O 	O 	0.37104 0.48097 0.49662 -0.40100
C 	C 	0.36030 0.45180 0.53110 0.35700
C 	C 	0.27890 0.42860 0.55002 -0.08600
C 	C 	0.26220 0.39650 0.58805 -0.00800
H 	H 	0.29990 0.38560 0.60070 0.04900
C 	C 	0.19950 0.29800 0.66240 -0.06000
H 	H 	0.21780 0.27350 0.64420 0.05400
C 	C 	0.19630 0.27620 0.70150 -0.03400
H 	H 	0.21640 0.24260 0.71070 0.04500
C 	C 	0.14810 0.38980 0.67630 -0.06000
H 	H 	0.13190 0.42760 0.66860 0.06800
C 	C 	0.14480 0.36670 0.71620 0.00300
Cu	Cu	0.47610 0.95219 0.03172 0.90500
Cu	Cu	0.04781 0.52390 0.03172 0.90500
Cu	Cu	0.47610 0.52390 0.03172 0.90500
Cu	Cu	0.52390 0.04781 0.53172 0.90500
Cu	Cu	0.95219 0.47610 0.53172 0.90500
Cu	Cu	0.52390 0.47610 0.53172 0.90500
Cu	Cu	0.95219 0.47609 0.96828 0.90500
Cu	Cu	0.52390 0.04781 0.96828 0.90500
Cu	Cu	0.52390 0.47610 0.96828 0.90500
Cu	Cu	0.04781 0.52390 0.46828 0.90500
Cu	Cu	0.47610 0.95219 0.46828 0.90500
Cu	Cu	0.47610 0.52390 0.46828 0.90500
O 	O 	0.90340 0.35460 0.25000 -0.17400
C 	C 	0.87410 0.27700 0.25000 0.10700
O 	O 	0.64540 0.54880 0.25000 -0.17400
C 	C 	0.72300 0.59710 0.25000 0.10700
O 	O 	0.45120 0.09660 0.25000 -0.17400
C 	C 	0.40290 0.12590 0.25000 0.10700
O 	O 	0.09660 0.64540 0.75000 -0.17400
C 	C 	0.12590 0.72300 0.75000 0.10700
O 	O 	0.35460 0.45120 0.75000 -0.17400
C 	C 	0.27700 0.40290 0.75000 0.10700
O 	O 	0.54880 0.90340 0.75000 -0.17400
C 	C 	0.59710 0.87410 0.75000 0.10700
O 	O 	0.35460 0.90340 0.75000 -0.17400
C 	C 	0.27700 0.87410 0.75000 0.10700
O 	O 	0.54880 0.64540 0.75000 -0.17400
C 	C 	0.59710 0.72300 0.75000 0.10700
O 	O 	0.09660 0.45120 0.75000 -0.17400
C 	C 	0.12590 0.40290 0.75000 0.10700
O 	O 	0.64540 0.09660 0.25000 -0.17400
C 	C 	0.72300 0.12590 0.25000 0.10700
O 	O 	0.45120 0.35460 0.25000 -0.17400
C 	C 	0.40290 0.27700 0.25000 0.10700
O 	O 	0.90340 0.54880 0.25000 -0.17400
C 	C 	0.87410 0.59710 0.25000 0.10700
C 	C 	0.77804 0.22196 0.03147 0.03000
H 	H 	0.76760 0.23240 0.00610 0.05200
C 	C 	0.80956 0.19044 0.10695 -0.02700
C 	C 	0.82310 0.17690 0.14895 0.06700
C 	C 	0.84340 0.15660 0.22809 -0.00300
C 	C 	0.77804 0.55608 0.03147 0.03000
H 	H 	0.76760 0.53520 0.00610 0.05200
C 	C 	0.80956 0.61912 0.10695 -0.02700
C 	C 	0.82310 0.64620 0.14895 0.06700
C 	C 	0.84340 0.68680 0.22809 -0.00300
C 	C 	0.44392 0.22196 0.03147 0.03000
H 	H 	0.46480 0.23240 0.00610 0.05200
C 	C 	0.38088 0.19044 0.10695 -0.02700
C 	C 	0.35380 0.17690 0.14895 0.06700
C 	C 	0.31320 0.15660 0.22809 -0.00300
C 	C 	0.22196 0.77804 0.53147 0.03000
H 	H 	0.23240 0.76760 0.50610 0.05200
C 	C 	0.19044 0.80956 0.60695 -0.02700
C 	C 	0.17690 0.82310 0.64895 0.06700
C 	C 	0.15660 0.84340 0.72809 -0.00300
C 	C 	0.22196 0.44392 0.53147 0.03000
H 	H 	0.23240 0.46480 0.50610 0.05200
C 	C 	0.19044 0.38088 0.60695 -0.02700
C 	C 	0.17690 0.35380 0.64895 0.06700
C 	C 	0.15660 0.31320 0.72809 -0.00300
C 	C 	0.55608 0.77804 0.53147 0.03000
H 	H 	0.53520 0.76760 0.50610 0.05200
C 	C 	0.61912 0.80956 0.60695 -0.02700
C 	C 	0.64620 0.82310 0.64895 0.06700
C 	C 	0.68680 0.84340 0.72809 -0.00300
C 	C 	0.22196 0.77804 0.96853 0.03000
H 	H 	0.23240 0.76760 0.99390 0.05200
C 	C 	0.19044 0.80956 0.89305 -0.02700
C 	C 	0.17690 0.82310 0.85105 0.06700
C 	C 	0.15660 0.84340 0.77191 -0.00300
C 	C 	0.55608 0.77804 0.96853 0.03000
H 	H 	0.53520 0.76760 0.99390 0.05200
C 	C 	0.61912 0.80956 0.89305 -0.02700
C 	C 	0.64620 0.82310 0.85105 0.06700
C 	C 	0.68680 0.84340 0.77191 -0.00300
C 	C 	0.22196 0.44392 0.96853 0.03000
H 	H 	0.23240 0.46480 0.99390 0.05200
C 	C 	0.19044 0.38088 0.89305 -0.02700
C 	C 	0.17690 0.35380 0.85105 0.06700
C 	C 	0.15660 0.31320 0.77191 -0.00300
C 	C 	0.77804 0.22196 0.46853 0.03000
H 	H 	0.76760 0.23240 0.49390 0.05200
C 	C 	0.80956 0.19044 0.39305 -0.02700
C 	C 	0.82310 0.17690 0.35105 0.06700
C 	C 	0.84340 0.15660 0.27191 -0.00300
C 	C 	0.44392 0.22196 0.46853 0.03000
H 	H 	0.46480 0.23240 0.49390 0.05200
C 	C 	0.38088 0.19044 0.39305 -0.02700
C 	C 	0.35380 0.17690 0.35105 0.06700
C 	C 	0.31320 0.15660 0.27191 -0.00300
C 	C 	0.77804 0.55608 0.46853 0.03000
H 	H 	0.76760 0.53520 0.49390 0.05200
C 	C 	0.80956 0.61912 0.39305 -0.02700
C 	C 	0.82310 0.64620 0.35105 0.06700
C 	C 	0.84340 0.68680 0.27191 -0.00300
