data_crystal

_cell_length_a 22.13960
_cell_length_b 14.59360
_cell_length_c 28.12380
_cell_angle_alpha 90.00000
_cell_angle_beta  116.31700
_cell_angle_gamma 90.00000

_symmetry_space_group_name_	'P 1'
_symmetry_space_group_name_H-M	'P 1'

loop_
_symmetry_equiv_pos_as_xyz
  x,y,z

loop_
_atom_site_label
_atom_site_type_symbol
_atom_site_fract_x
_atom_site_fract_y
_atom_site_fract_z
_atom_site_charge
Ni	Ni	0.24601 0.67163 0.24430 1.06600
Ni	Ni	0.21899 0.99414 0.53944 1.03500
O 	O 	0.78410 0.92790 0.34863 -0.31000
O 	O 	0.21310 0.76040 0.28401 -0.42900
O 	O 	0.13520 0.94960 0.47232 -0.40900
O 	O 	0.84750 0.98810 0.42800 -0.42600
O 	O 	0.22290 0.08290 0.29550 -0.43500
O 	O 	0.16480 0.67520 0.32310 -0.30900
N 	N 	0.34270 0.67110 0.30800 -0.23300
O 	O 	0.17300 0.16490 0.33470 -0.28600
N 	N 	0.27950 0.96950 0.50270 -0.25600
N 	N 	0.65120 0.82460 0.68050 -0.23200
N 	N 	0.56780 0.79910 0.60110 -0.13700
N 	N 	0.42670 0.69900 0.38600 -0.13500
C 	C 	0.02160 0.96420 0.40530 -0.12500
O 	O 	0.08790 0.08850 0.45020 -0.29300
C 	C 	0.52640 0.76370 0.45940 -0.06100
H 	H 	0.54550 0.77370 0.43620 0.06200
C 	C 	0.09860 0.83900 0.33560 -0.00800
H 	H 	0.07910 0.78400 0.33840 0.04000
N 	N 	0.36820 0.96860 0.48640 -0.13900
C 	C 	0.07500 0.92070 0.34600 -0.03000
C 	C 	0.48610 0.00050 0.54300 -0.07400
H 	H 	0.47670 0.00060 0.57220 0.05800
C 	C 	0.01650 0.92420 0.35880 0.08400
C 	C 	0.17930 0.92050 0.31590 0.03000
H 	H 	0.21380 0.92030 0.30550 0.04100
C 	C 	0.47010 0.73210 0.52880 -0.07900
H 	H 	0.45170 0.72160 0.55230 0.07100
C 	C 	0.56130 0.78830 0.51220 -0.07900
H 	H 	0.60380 0.81480 0.52450 0.06200
C 	C 	0.36000 0.69470 0.35720 0.10700
H 	H 	0.32920 0.70690 0.37060 -0.01600
C 	C 	0.46350 0.72430 0.44110 0.08900
C 	C 	0.89660 0.90320 0.32910 0.05800
H 	H 	0.85490 0.88370 0.30340 0.02000
C 	C 	0.84010 0.95350 0.38540 0.34600
C 	C 	0.53330 0.77370 0.54640 0.09600
C 	C 	0.63470 0.79970 0.63070 0.10100
H 	H 	0.66580 0.78480 0.61800 -0.00800
C 	C 	0.43540 0.98360 0.49360 0.08800
C 	C 	0.34340 0.99030 0.52060 0.09300
H 	H 	0.36880 0.01720 0.55350 -0.03100
C 	C 	0.26100 0.93240 0.45420 0.00300
H 	H 	0.21810 0.91130 0.43170 0.03200
C 	C 	0.95320 0.89310 0.32060 -0.13400
H 	H 	0.94940 0.86570 0.28960 0.08400
C 	C 	0.08730 0.00380 0.44580 0.34700
C 	C 	0.45450 0.67580 0.35260 0.00200
H 	H 	0.50010 0.67290 0.36100 0.04600
C 	C 	0.44860 0.98260 0.44980 -0.07100
H 	H 	0.41430 0.97070 0.41610 0.06100
C 	C 	0.15650 0.00370 0.32600 -0.10200
C 	C 	0.90160 0.94270 0.37620 -0.12100
C 	C 	0.10520 0.00160 0.34200 -0.00500
H 	H 	0.09080 0.05650 0.35040 0.04900
C 	C 	0.43440 0.70600 0.47490 -0.06400
H 	H 	0.39260 0.67750 0.46250 0.05500
C 	C 	0.15150 0.83770 0.32100 -0.10100
C 	C 	0.96400 0.97270 0.41400 0.06400
H 	H 	0.96770 0.99870 0.44540 0.03500
C 	C 	0.40190 0.65790 0.30510 0.00800
H 	H 	0.40560 0.63930 0.27490 0.02900
C 	C 	0.59130 0.84120 0.68160 0.00300
H 	H 	0.58670 0.86050 0.71130 0.02200
C 	C 	0.53910 0.82580 0.63320 0.00400
H 	H 	0.49340 0.83210 0.62380 0.02900
C 	C 	0.18660 0.08980 0.31870 0.34600
C 	C 	0.31610 0.93090 0.44330 0.00200
H 	H 	0.31740 0.90870 0.41280 0.03300
C 	C 	0.17750 0.75050 0.30830 0.34200
Ni	Ni	0.25399 0.17163 0.25570 1.06500
Ni	Ni	0.28101 0.49414 0.96056 1.03400
O 	O 	0.71590 0.42790 0.15137 -0.31100
O 	O 	0.28690 0.26040 0.21599 -0.43000
O 	O 	0.36480 0.44960 0.02768 -0.41000
O 	O 	0.65250 0.48810 0.07200 -0.42600
O 	O 	0.27710 0.58290 0.20450 -0.43500
O 	O 	0.33520 0.17520 0.17690 -0.30900
N 	N 	0.15730 0.17110 0.19200 -0.23300
O 	O 	0.32700 0.66490 0.16530 -0.28500
N 	N 	0.22050 0.46950 0.99730 -0.25600
N 	N 	0.84880 0.32460 0.81950 -0.23200
N 	N 	0.93220 0.29910 0.89890 -0.13600
N 	N 	0.07330 0.19900 0.11400 -0.13600
C 	C 	0.47840 0.46420 0.09470 -0.12500
O 	O 	0.41210 0.58850 0.04980 -0.29200
C 	C 	0.97360 0.26370 0.04060 -0.06400
H 	H 	0.95450 0.27370 0.06380 0.06300
C 	C 	0.40140 0.33900 0.16440 -0.00800
H 	H 	0.42090 0.28400 0.16160 0.04000
N 	N 	0.13180 0.46860 0.01360 -0.13900
C 	C 	0.42500 0.42070 0.15400 -0.03100
C 	C 	0.01390 0.50050 0.95700 -0.07400
H 	H 	0.02330 0.50060 0.92780 0.05700
C 	C 	0.48350 0.42420 0.14120 0.08500
C 	C 	0.32070 0.42050 0.18410 0.02900
H 	H 	0.28620 0.42030 0.19450 0.04100
C 	C 	0.02990 0.23210 0.97120 -0.07300
H 	H 	0.04830 0.22160 0.94770 0.06900
C 	C 	0.93870 0.28830 0.98780 -0.07500
H 	H 	0.89620 0.31480 0.97550 0.06100
C 	C 	0.14000 0.19470 0.14280 0.10700
H 	H 	0.17080 0.20690 0.12940 -0.01600
C 	C 	0.03650 0.22430 0.05890 0.09000
C 	C 	0.60340 0.40320 0.17090 0.05800
H 	H 	0.64510 0.38370 0.19660 0.02000
C 	C 	0.65990 0.45350 0.11460 0.34600
C 	C 	0.96670 0.27370 0.95360 0.09300
C 	C 	0.86530 0.29970 0.86930 0.10100
H 	H 	0.83420 0.28480 0.88200 -0.00800
C 	C 	0.06460 0.48360 0.00640 0.08700
C 	C 	0.15660 0.49030 0.97940 0.09400
H 	H 	0.13120 0.51720 0.94650 -0.03200
C 	C 	0.23900 0.43240 0.04580 0.00300
H 	H 	0.28190 0.41130 0.06830 0.03200
C 	C 	0.54680 0.39310 0.17940 -0.13500
H 	H 	0.55060 0.36570 0.21040 0.08400
C 	C 	0.41270 0.50380 0.05420 0.34700
C 	C 	0.04550 0.17580 0.14740 0.00200
H 	H 	0.99990 0.17290 0.13900 0.04500
C 	C 	0.05140 0.48260 0.05020 -0.07200
H 	H 	0.08570 0.47070 0.08390 0.06100
C 	C 	0.34350 0.50370 0.17400 -0.10100
C 	C 	0.59840 0.44270 0.12380 -0.12200
C 	C 	0.39480 0.50160 0.15800 -0.00500
H 	H 	0.40920 0.55650 0.14960 0.04900
C 	C 	0.06560 0.20600 0.02510 -0.06900
H 	H 	0.10740 0.17750 0.03750 0.05600
C 	C 	0.34850 0.33770 0.17900 -0.10100
C 	C 	0.53600 0.47270 0.08600 0.06400
H 	H 	0.53230 0.49870 0.05460 0.03500
C 	C 	0.09810 0.15790 0.19490 0.00800
H 	H 	0.09440 0.13930 0.22510 0.02900
C 	C 	0.90870 0.34120 0.81840 0.00300
H 	H 	0.91330 0.36050 0.78870 0.02200
C 	C 	0.96090 0.32580 0.86680 0.00200
H 	H 	0.00660 0.33210 0.87620 0.03000
C 	C 	0.31340 0.58980 0.18130 0.34600
C 	C 	0.18390 0.43090 0.05670 0.00200
H 	H 	0.18260 0.40870 0.08720 0.03300
C 	C 	0.32250 0.25050 0.19170 0.34200
Ni	Ni	0.75399 0.32837 0.75570 1.06500
Ni	Ni	0.78101 0.00586 0.46056 1.03400
O 	O 	0.21590 0.07210 0.65137 -0.31000
O 	O 	0.78690 0.23960 0.71599 -0.42900
O 	O 	0.86480 0.05040 0.52768 -0.40900
O 	O 	0.15250 0.01190 0.57200 -0.42600
O 	O 	0.77710 0.91710 0.70450 -0.43500
O 	O 	0.83520 0.32480 0.67690 -0.30900
N 	N 	0.65730 0.32890 0.69200 -0.23300
O 	O 	0.82700 0.83510 0.66530 -0.28600
N 	N 	0.72050 0.03050 0.49730 -0.25600
N 	N 	0.34880 0.17540 0.31950 -0.23200
N 	N 	0.43220 0.20090 0.39890 -0.13700
N 	N 	0.57330 0.30100 0.61400 -0.13500
C 	C 	0.97840 0.03580 0.59470 -0.12500
O 	O 	0.91210 0.91150 0.54980 -0.29300
C 	C 	0.47360 0.23630 0.54060 -0.06100
H 	H 	0.45450 0.22630 0.56380 0.06200
C 	C 	0.90140 0.16100 0.66440 -0.00800
H 	H 	0.92090 0.21600 0.66160 0.04000
N 	N 	0.63180 0.03140 0.51360 -0.13900
C 	C 	0.92500 0.07930 0.65400 -0.03000
C 	C 	0.51390 0.99950 0.45700 -0.07400
H 	H 	0.52330 0.99940 0.42780 0.05800
C 	C 	0.98350 0.07580 0.64120 0.08400
C 	C 	0.82070 0.07950 0.68410 0.03000
H 	H 	0.78620 0.07970 0.69450 0.04100
C 	C 	0.52990 0.26790 0.47120 -0.07900
H 	H 	0.54830 0.27840 0.44770 0.07100
C 	C 	0.43870 0.21170 0.48780 -0.07900
H 	H 	0.39620 0.18520 0.47550 0.06200
C 	C 	0.64000 0.30530 0.64280 0.10700
H 	H 	0.67080 0.29310 0.62940 -0.01600
C 	C 	0.53650 0.27570 0.55890 0.08900
C 	C 	0.10340 0.09680 0.67090 0.05800
H 	H 	0.14510 0.11630 0.69660 0.02000
C 	C 	0.15990 0.04650 0.61460 0.34600
C 	C 	0.46670 0.22630 0.45360 0.09600
C 	C 	0.36530 0.20030 0.36930 0.10100
H 	H 	0.33420 0.21520 0.38200 -0.00800
C 	C 	0.56460 0.01640 0.50640 0.08800
C 	C 	0.65660 0.00970 0.47940 0.09300
H 	H 	0.63120 0.98280 0.44650 -0.03100
C 	C 	0.73900 0.06760 0.54580 0.00300
H 	H 	0.78190 0.08870 0.56830 0.03200
C 	C 	0.04680 0.10690 0.67940 -0.13400
H 	H 	0.05060 0.13430 0.71040 0.08400
C 	C 	0.91270 0.99620 0.55420 0.34700
C 	C 	0.54550 0.32420 0.64740 0.00200
H 	H 	0.49990 0.32710 0.63900 0.04600
C 	C 	0.55140 0.01740 0.55020 -0.07100
H 	H 	0.58570 0.02930 0.58390 0.06100
C 	C 	0.84350 0.99630 0.67400 -0.10200
C 	C 	0.09840 0.05730 0.62380 -0.12100
C 	C 	0.89480 0.99840 0.65800 -0.00500
H 	H 	0.90920 0.94350 0.64960 0.04900
C 	C 	0.56560 0.29400 0.52510 -0.06400
H 	H 	0.60740 0.32250 0.53750 0.05500
C 	C 	0.84850 0.16230 0.67900 -0.10100
C 	C 	0.03600 0.02730 0.58600 0.06400
H 	H 	0.03230 0.00130 0.55460 0.03500
C 	C 	0.59810 0.34210 0.69490 0.00800
H 	H 	0.59440 0.36070 0.72510 0.02900
C 	C 	0.40870 0.15880 0.31840 0.00300
H 	H 	0.41330 0.13950 0.28870 0.02200
C 	C 	0.46090 0.17420 0.36680 0.00400
H 	H 	0.50660 0.16790 0.37620 0.02900
C 	C 	0.81340 0.91020 0.68130 0.34600
C 	C 	0.68390 0.06910 0.55670 0.00200
H 	H 	0.68260 0.09130 0.58720 0.03300
C 	C 	0.82250 0.24950 0.69170 0.34200
Ni	Ni	0.74601 0.82837 0.74430 1.06500
Ni	Ni	0.71899 0.50586 0.03944 1.03400
O 	O 	0.28410 0.57210 0.84863 -0.31100
O 	O 	0.71310 0.73960 0.78401 -0.43000
O 	O 	0.63520 0.55040 0.97232 -0.41000
O 	O 	0.34750 0.51190 0.92800 -0.42600
O 	O 	0.72290 0.41710 0.79550 -0.43500
O 	O 	0.66480 0.82480 0.82310 -0.30900
N 	N 	0.84270 0.82890 0.80800 -0.23300
O 	O 	0.67300 0.33510 0.83470 -0.28500
N 	N 	0.77950 0.53050 0.00270 -0.25600
N 	N 	0.15120 0.67540 0.18050 -0.23200
N 	N 	0.06780 0.70090 0.10110 -0.13600
N 	N 	0.92670 0.80100 0.88600 -0.13600
C 	C 	0.52160 0.53580 0.90530 -0.12500
O 	O 	0.58790 0.41150 0.95020 -0.29200
C 	C 	0.02640 0.73630 0.95940 -0.06400
H 	H 	0.04550 0.72630 0.93620 0.06300
C 	C 	0.59860 0.66100 0.83560 -0.00800
H 	H 	0.57910 0.71600 0.83840 0.04000
N 	N 	0.86820 0.53140 0.98640 -0.13900
C 	C 	0.57500 0.57930 0.84600 -0.03100
C 	C 	0.98610 0.49950 0.04300 -0.07400
H 	H 	0.97670 0.49940 0.07220 0.05700
C 	C 	0.51650 0.57580 0.85880 0.08500
C 	C 	0.67930 0.57950 0.81590 0.02900
H 	H 	0.71380 0.57970 0.80550 0.04100
C 	C 	0.97010 0.76790 0.02880 -0.07300
H 	H 	0.95170 0.77840 0.05230 0.06900
C 	C 	0.06130 0.71170 0.01220 -0.07500
H 	H 	0.10380 0.68520 0.02450 0.06100
C 	C 	0.86000 0.80530 0.85720 0.10700
H 	H 	0.82920 0.79310 0.87060 -0.01600
C 	C 	0.96350 0.77570 0.94110 0.09000
C 	C 	0.39660 0.59680 0.82910 0.05800
H 	H 	0.35490 0.61630 0.80340 0.02000
C 	C 	0.34010 0.54650 0.88540 0.34600
C 	C 	0.03330 0.72630 0.04640 0.09300
C 	C 	0.13470 0.70030 0.13070 0.10100
H 	H 	0.16580 0.71520 0.11800 -0.00800
C 	C 	0.93540 0.51640 0.99360 0.08700
C 	C 	0.84340 0.50970 0.02060 0.09400
H 	H 	0.86880 0.48280 0.05350 -0.03200
C 	C 	0.76100 0.56760 0.95420 0.00300
H 	H 	0.71810 0.58870 0.93170 0.03200
C 	C 	0.45320 0.60690 0.82060 -0.13500
H 	H 	0.44940 0.63430 0.78960 0.08400
C 	C 	0.58730 0.49620 0.94580 0.34700
C 	C 	0.95450 0.82420 0.85260 0.00200
H 	H 	0.00010 0.82710 0.86100 0.04500
C 	C 	0.94860 0.51740 0.94980 -0.07200
H 	H 	0.91430 0.52930 0.91610 0.06100
C 	C 	0.65650 0.49630 0.82600 -0.10100
C 	C 	0.40160 0.55730 0.87620 -0.12200
C 	C 	0.60520 0.49840 0.84200 -0.00500
H 	H 	0.59080 0.44350 0.85040 0.04900
C 	C 	0.93440 0.79400 0.97490 -0.06900
H 	H 	0.89260 0.82250 0.96250 0.05600
C 	C 	0.65150 0.66230 0.82100 -0.10100
C 	C 	0.46400 0.52730 0.91400 0.06400
H 	H 	0.46770 0.50130 0.94540 0.03500
C 	C 	0.90190 0.84210 0.80510 0.00800
H 	H 	0.90560 0.86070 0.77490 0.02900
C 	C 	0.09130 0.65880 0.18160 0.00300
H 	H 	0.08670 0.63950 0.21130 0.02200
C 	C 	0.03910 0.67420 0.13320 0.00200
H 	H 	0.99340 0.66790 0.12380 0.03000
C 	C 	0.68660 0.41020 0.81870 0.34600
C 	C 	0.81610 0.56910 0.94330 0.00200
H 	H 	0.81740 0.59130 0.91280 0.03300
C 	C 	0.67750 0.74950 0.80830 0.34200
Ni	Ni	0.74601 0.17163 0.24430 1.06500
Ni	Ni	0.71899 0.49414 0.53944 1.03400
O 	O 	0.28410 0.42790 0.34863 -0.31100
O 	O 	0.71310 0.26040 0.28401 -0.43000
O 	O 	0.63520 0.44960 0.47232 -0.40900
O 	O 	0.34750 0.48810 0.42800 -0.42600
O 	O 	0.72290 0.58290 0.29550 -0.43500
O 	O 	0.66480 0.17520 0.32310 -0.30900
N 	N 	0.84270 0.17110 0.30800 -0.23300
O 	O 	0.67300 0.66490 0.33470 -0.28500
N 	N 	0.77950 0.46950 0.50270 -0.25600
N 	N 	0.15120 0.32460 0.68050 -0.23200
N 	N 	0.06780 0.29910 0.60110 -0.13700
N 	N 	0.92670 0.19900 0.38600 -0.13500
C 	C 	0.52160 0.46420 0.40530 -0.12500
O 	O 	0.58790 0.58850 0.45020 -0.29300
C 	C 	0.02640 0.26370 0.45940 -0.06100
H 	H 	0.04550 0.27370 0.43620 0.06200
C 	C 	0.59860 0.33900 0.33560 -0.00800
H 	H 	0.57910 0.28400 0.33840 0.04000
N 	N 	0.86820 0.46860 0.48640 -0.13900
C 	C 	0.57500 0.42070 0.34600 -0.03100
C 	C 	0.98610 0.50050 0.54300 -0.07500
H 	H 	0.97670 0.50060 0.57220 0.05700
C 	C 	0.51650 0.42420 0.35880 0.08500
C 	C 	0.67930 0.42050 0.31590 0.02900
H 	H 	0.71380 0.42030 0.30550 0.04100
C 	C 	0.97010 0.23210 0.52880 -0.07900
H 	H 	0.95170 0.22160 0.55230 0.07100
C 	C 	0.06130 0.28830 0.51220 -0.07900
H 	H 	0.10380 0.31480 0.52450 0.06200
C 	C 	0.86000 0.19470 0.35720 0.10700
H 	H 	0.82920 0.20690 0.37060 -0.01600
C 	C 	0.96350 0.22430 0.44110 0.08800
C 	C 	0.39660 0.40320 0.32910 0.05800
H 	H 	0.35490 0.38370 0.30340 0.02000
C 	C 	0.34010 0.45350 0.38540 0.34600
C 	C 	0.03330 0.27370 0.54640 0.09700
C 	C 	0.13470 0.29970 0.63070 0.10100
H 	H 	0.16580 0.28480 0.61800 -0.00800
C 	C 	0.93540 0.48360 0.49360 0.08800
C 	C 	0.84340 0.49030 0.52060 0.09300
H 	H 	0.86880 0.51720 0.55350 -0.03200
C 	C 	0.76100 0.43240 0.45420 0.00300
H 	H 	0.71810 0.41130 0.43170 0.03200
C 	C 	0.45320 0.39310 0.32060 -0.13500
H 	H 	0.44940 0.36570 0.28960 0.08400
C 	C 	0.58730 0.50380 0.44580 0.34700
C 	C 	0.95450 0.17580 0.35260 0.00200
H 	H 	0.00010 0.17290 0.36100 0.04600
C 	C 	0.94860 0.48260 0.44980 -0.07200
H 	H 	0.91430 0.47070 0.41610 0.06100
C 	C 	0.65650 0.50370 0.32600 -0.10100
C 	C 	0.40160 0.44270 0.37620 -0.12200
C 	C 	0.60520 0.50160 0.34200 -0.00500
H 	H 	0.59080 0.55650 0.35040 0.04900
C 	C 	0.93440 0.20600 0.47490 -0.06300
H 	H 	0.89260 0.17750 0.46250 0.05500
C 	C 	0.65150 0.33770 0.32100 -0.10100
C 	C 	0.46400 0.47270 0.41400 0.06400
H 	H 	0.46770 0.49870 0.44540 0.03500
C 	C 	0.90190 0.15790 0.30510 0.00800
H 	H 	0.90560 0.13930 0.27490 0.02900
C 	C 	0.09130 0.34120 0.68160 0.00200
H 	H 	0.08670 0.36050 0.71130 0.02200
C 	C 	0.03910 0.32580 0.63320 0.00400
H 	H 	0.99340 0.33210 0.62380 0.02900
C 	C 	0.68660 0.58980 0.31870 0.34600
C 	C 	0.81610 0.43090 0.44330 0.00200
H 	H 	0.81740 0.40870 0.41280 0.03300
C 	C 	0.67750 0.25050 0.30830 0.34200
Ni	Ni	0.75399 0.67163 0.25570 1.06500
Ni	Ni	0.78101 0.99414 0.96056 1.03300
O 	O 	0.21590 0.92790 0.15137 -0.31000
O 	O 	0.78690 0.76040 0.21599 -0.42900
O 	O 	0.86480 0.94960 0.02768 -0.40600
O 	O 	0.15250 0.98810 0.07200 -0.42500
O 	O 	0.77710 0.08290 0.20450 -0.43500
O 	O 	0.83520 0.67520 0.17690 -0.30900
N 	N 	0.65730 0.67110 0.19200 -0.23300
O 	O 	0.82700 0.16490 0.16530 -0.28600
N 	N 	0.72050 0.96950 0.99730 -0.25600
N 	N 	0.34880 0.82460 0.81950 -0.23200
N 	N 	0.43220 0.79910 0.89890 -0.13700
N 	N 	0.57330 0.69900 0.11400 -0.13500
C 	C 	0.97840 0.96420 0.09470 -0.12000
O 	O 	0.91210 0.08850 0.04980 -0.29200
C 	C 	0.47360 0.76370 0.04060 -0.05600
H 	H 	0.45450 0.77370 0.06380 0.06100
C 	C 	0.90140 0.83900 0.16440 -0.00900
H 	H 	0.92090 0.78400 0.16160 0.04000
N 	N 	0.63180 0.96860 0.01360 -0.13600
C 	C 	0.92500 0.92070 0.15400 -0.02700
C 	C 	0.51390 0.00050 0.95700 -0.07400
H 	H 	0.52330 0.00060 0.92780 0.05800
C 	C 	0.98350 0.92420 0.14120 0.08300
C 	C 	0.82070 0.92050 0.18410 0.03100
H 	H 	0.78620 0.92030 0.19450 0.04100
C 	C 	0.52990 0.73210 0.97120 -0.08300
H 	H 	0.54830 0.72160 0.94770 0.07200
C 	C 	0.43870 0.78830 0.98780 -0.08300
H 	H 	0.39620 0.81480 0.97550 0.06300
C 	C 	0.64000 0.69470 0.14280 0.10700
H 	H 	0.67080 0.70690 0.12940 -0.01500
C 	C 	0.53650 0.72430 0.05890 0.08600
C 	C 	0.10340 0.90320 0.17090 0.05600
H 	H 	0.14510 0.88370 0.19660 0.02100
C 	C 	0.15990 0.95350 0.11460 0.34500
C 	C 	0.46670 0.77370 0.95360 0.09900
C 	C 	0.36530 0.79970 0.86930 0.10100
H 	H 	0.33420 0.78480 0.88200 -0.00800
C 	C 	0.56460 0.98360 0.00640 0.08800
C 	C 	0.65660 0.99030 0.97940 0.08700
H 	H 	0.63120 0.01720 0.94650 -0.02800
C 	C 	0.73900 0.93240 0.04580 0.00700
H 	H 	0.78190 0.91130 0.06830 0.03100
C 	C 	0.04680 0.89310 0.17940 -0.13300
H 	H 	0.05060 0.86570 0.21040 0.08300
C 	C 	0.91270 0.00380 0.05420 0.34100
C 	C 	0.54550 0.67580 0.14740 0.00200
H 	H 	0.49990 0.67290 0.13900 0.04600
C 	C 	0.55140 0.98260 0.05020 -0.07100
H 	H 	0.58570 0.97070 0.08390 0.06100
C 	C 	0.84350 0.00370 0.17400 -0.10200
C 	C 	0.09840 0.94270 0.12380 -0.12000
C 	C 	0.89480 0.00160 0.15800 -0.00700
H 	H 	0.90920 0.05650 0.14960 0.04900
C 	C 	0.56560 0.70600 0.02510 -0.06000
H 	H 	0.60740 0.67750 0.03750 0.05400
C 	C 	0.84850 0.83770 0.17900 -0.10000
C 	C 	0.03600 0.97270 0.08600 0.06000
H 	H 	0.03230 0.99870 0.05460 0.03700
C 	C 	0.59810 0.65790 0.19490 0.00800
H 	H 	0.59440 0.63930 0.22510 0.02900
C 	C 	0.40870 0.84120 0.81840 0.00300
H 	H 	0.41330 0.86050 0.78870 0.02200
C 	C 	0.46090 0.82580 0.86680 0.00300
H 	H 	0.50660 0.83210 0.87620 0.02900
C 	C 	0.81340 0.08980 0.18130 0.34600
C 	C 	0.68390 0.93090 0.05670 0.00100
H 	H 	0.68260 0.90870 0.08720 0.03300
C 	C 	0.82250 0.75050 0.19170 0.34100
Ni	Ni	0.25399 0.82837 0.75570 1.06500
Ni	Ni	0.28101 0.50586 0.46056 1.03400
O 	O 	0.71590 0.57210 0.65137 -0.31100
O 	O 	0.28690 0.73960 0.71599 -0.43000
O 	O 	0.36480 0.55040 0.52768 -0.40900
O 	O 	0.65250 0.51190 0.57200 -0.42600
O 	O 	0.27710 0.41710 0.70450 -0.43500
O 	O 	0.33520 0.82480 0.67690 -0.30900
N 	N 	0.15730 0.82890 0.69200 -0.23300
O 	O 	0.32700 0.33510 0.66530 -0.28500
N 	N 	0.22050 0.53050 0.49730 -0.25600
N 	N 	0.84880 0.67540 0.31950 -0.23200
N 	N 	0.93220 0.70090 0.39890 -0.13700
N 	N 	0.07330 0.80100 0.61400 -0.13500
C 	C 	0.47840 0.53580 0.59470 -0.12500
O 	O 	0.41210 0.41150 0.54980 -0.29300
C 	C 	0.97360 0.73630 0.54060 -0.06100
H 	H 	0.95450 0.72630 0.56380 0.06200
C 	C 	0.40140 0.66100 0.66440 -0.00800
H 	H 	0.42090 0.71600 0.66160 0.04000
N 	N 	0.13180 0.53140 0.51360 -0.13900
C 	C 	0.42500 0.57930 0.65400 -0.03100
C 	C 	0.01390 0.49950 0.45700 -0.07500
H 	H 	0.02330 0.49940 0.42780 0.05700
C 	C 	0.48350 0.57580 0.64120 0.08500
C 	C 	0.32070 0.57950 0.68410 0.02900
H 	H 	0.28620 0.57970 0.69450 0.04100
C 	C 	0.02990 0.76790 0.47120 -0.07900
H 	H 	0.04830 0.77840 0.44770 0.07100
C 	C 	0.93870 0.71170 0.48780 -0.07900
H 	H 	0.89620 0.68520 0.47550 0.06200
C 	C 	0.14000 0.80530 0.64280 0.10700
H 	H 	0.17080 0.79310 0.62940 -0.01600
C 	C 	0.03650 0.77570 0.55890 0.08800
C 	C 	0.60340 0.59680 0.67090 0.05800
H 	H 	0.64510 0.61630 0.69660 0.02000
C 	C 	0.65990 0.54650 0.61460 0.34600
C 	C 	0.96670 0.72630 0.45360 0.09700
C 	C 	0.86530 0.70030 0.36930 0.10100
H 	H 	0.83420 0.71520 0.38200 -0.00800
C 	C 	0.06460 0.51640 0.50640 0.08800
C 	C 	0.15660 0.50970 0.47940 0.09300
H 	H 	0.13120 0.48280 0.44650 -0.03200
C 	C 	0.23900 0.56760 0.54580 0.00300
H 	H 	0.28190 0.58870 0.56830 0.03200
C 	C 	0.54680 0.60690 0.67940 -0.13500
H 	H 	0.55060 0.63430 0.71040 0.08400
C 	C 	0.41270 0.49620 0.55420 0.34700
C 	C 	0.04550 0.82420 0.64740 0.00200
H 	H 	0.99990 0.82710 0.63900 0.04600
C 	C 	0.05140 0.51740 0.55020 -0.07200
H 	H 	0.08570 0.52930 0.58390 0.06100
C 	C 	0.34350 0.49630 0.67400 -0.10100
C 	C 	0.59840 0.55730 0.62380 -0.12200
C 	C 	0.39480 0.49840 0.65800 -0.00500
H 	H 	0.40920 0.44350 0.64960 0.04900
C 	C 	0.06560 0.79400 0.52510 -0.06300
H 	H 	0.10740 0.82250 0.53750 0.05500
C 	C 	0.34850 0.66230 0.67900 -0.10100
C 	C 	0.53600 0.52730 0.58600 0.06400
H 	H 	0.53230 0.50130 0.55460 0.03500
C 	C 	0.09810 0.84210 0.69490 0.00800
H 	H 	0.09440 0.86070 0.72510 0.02900
C 	C 	0.90870 0.65880 0.31840 0.00200
H 	H 	0.91330 0.63950 0.28870 0.02200
C 	C 	0.96090 0.67420 0.36680 0.00400
H 	H 	0.00660 0.66790 0.37620 0.02900
C 	C 	0.31340 0.41020 0.68130 0.34600
C 	C 	0.18390 0.56910 0.55670 0.00200
H 	H 	0.18260 0.59130 0.58720 0.03300
C 	C 	0.32250 0.74950 0.69170 0.34200
Ni	Ni	0.24601 0.32837 0.74430 1.06500
Ni	Ni	0.21899 0.00586 0.03944 1.03300
O 	O 	0.78410 0.07210 0.84863 -0.31000
O 	O 	0.21310 0.23960 0.78401 -0.42900
O 	O 	0.13520 0.05040 0.97232 -0.40600
O 	O 	0.84750 0.01190 0.92800 -0.42500
O 	O 	0.22290 0.91710 0.79550 -0.43500
O 	O 	0.16480 0.32480 0.82310 -0.30900
N 	N 	0.34270 0.32890 0.80800 -0.23300
O 	O 	0.17300 0.83510 0.83470 -0.28600
N 	N 	0.27950 0.03050 0.00270 -0.25600
N 	N 	0.65120 0.17540 0.18050 -0.23200
N 	N 	0.56780 0.20090 0.10110 -0.13700
N 	N 	0.42670 0.30100 0.88600 -0.13500
C 	C 	0.02160 0.03580 0.90530 -0.12000
O 	O 	0.08790 0.91150 0.95020 -0.29200
C 	C 	0.52640 0.23630 0.95940 -0.05600
H 	H 	0.54550 0.22630 0.93620 0.06100
C 	C 	0.09860 0.16100 0.83560 -0.00900
H 	H 	0.07910 0.21600 0.83840 0.04000
N 	N 	0.36820 0.03140 0.98640 -0.13600
C 	C 	0.07500 0.07930 0.84600 -0.02700
C 	C 	0.48610 0.99950 0.04300 -0.07400
H 	H 	0.47670 0.99940 0.07220 0.05800
C 	C 	0.01650 0.07580 0.85880 0.08300
C 	C 	0.17930 0.07950 0.81590 0.03100
H 	H 	0.21380 0.07970 0.80550 0.04100
C 	C 	0.47010 0.26790 0.02880 -0.08300
H 	H 	0.45170 0.27840 0.05230 0.07200
C 	C 	0.56130 0.21170 0.01220 -0.08300
H 	H 	0.60380 0.18520 0.02450 0.06300
C 	C 	0.36000 0.30530 0.85720 0.10700
H 	H 	0.32920 0.29310 0.87060 -0.01500
C 	C 	0.46350 0.27570 0.94110 0.08600
C 	C 	0.89660 0.09680 0.82910 0.05600
H 	H 	0.85490 0.11630 0.80340 0.02100
C 	C 	0.84010 0.04650 0.88540 0.34500
C 	C 	0.53330 0.22630 0.04640 0.09900
C 	C 	0.63470 0.20030 0.13070 0.10100
H 	H 	0.66580 0.21520 0.11800 -0.00800
C 	C 	0.43540 0.01640 0.99360 0.08800
C 	C 	0.34340 0.00970 0.02060 0.08700
H 	H 	0.36880 0.98280 0.05350 -0.02800
C 	C 	0.26100 0.06760 0.95420 0.00700
H 	H 	0.21810 0.08870 0.93170 0.03100
C 	C 	0.95320 0.10690 0.82060 -0.13300
H 	H 	0.94940 0.13430 0.78960 0.08300
C 	C 	0.08730 0.99620 0.94580 0.34100
C 	C 	0.45450 0.32420 0.85260 0.00200
H 	H 	0.50010 0.32710 0.86100 0.04600
C 	C 	0.44860 0.01740 0.94980 -0.07100
H 	H 	0.41430 0.02930 0.91610 0.06100
C 	C 	0.15650 0.99630 0.82600 -0.10200
C 	C 	0.90160 0.05730 0.87620 -0.12000
C 	C 	0.10520 0.99840 0.84200 -0.00700
H 	H 	0.09080 0.94350 0.85040 0.04900
C 	C 	0.43440 0.29400 0.97490 -0.06000
H 	H 	0.39260 0.32250 0.96250 0.05400
C 	C 	0.15150 0.16230 0.82100 -0.10000
C 	C 	0.96400 0.02730 0.91400 0.06000
H 	H 	0.96770 0.00130 0.94540 0.03700
C 	C 	0.40190 0.34210 0.80510 0.00800
H 	H 	0.40560 0.36070 0.77490 0.02900
C 	C 	0.59130 0.15880 0.18160 0.00300
H 	H 	0.58670 0.13950 0.21130 0.02200
C 	C 	0.53910 0.17420 0.13320 0.00300
H 	H 	0.49340 0.16790 0.12380 0.02900
C 	C 	0.18660 0.91020 0.81870 0.34600
C 	C 	0.31610 0.06910 0.94330 0.00100
H 	H 	0.31740 0.09130 0.91280 0.03300
C 	C 	0.17750 0.24950 0.80830 0.34100
