data_crystal

_cell_length_a 8.79000
_cell_length_b 23.69970
_cell_length_c 25.28530
_cell_angle_alpha 85.41570
_cell_angle_beta  79.99020
_cell_angle_gamma 79.31290

_symmetry_space_group_name_	'P 1'
_symmetry_space_group_name_H-M	'P 1'

loop_
_symmetry_equiv_pos_as_xyz
  x,y,z

loop_
_atom_site_label
_atom_site_type_symbol
_atom_site_fract_x
_atom_site_fract_y
_atom_site_fract_z
_atom_site_charge
K 	K 	0.68711 0.48755 0.04743 0.66400
K 	K 	0.72209 0.01245 0.45257 0.66400
K 	K 	0.31289 0.51245 0.95257 0.66400
K 	K 	0.27791 0.98755 0.54743 0.66400
Cu	Cu	0.72293 0.50987 0.54969 0.86600
Cu	Cu	0.28249 0.99013 0.95031 0.86600
Cu	Cu	0.27707 0.49013 0.45031 0.86600
Cu	Cu	0.71751 0.00987 0.04969 0.86600
H 	H 	0.84420 0.39860 0.72240 0.07000
H 	H 	0.95910 0.33120 0.65140 0.07700
H 	H 	0.09850 0.35740 0.43920 0.07100
H 	H 	0.00200 0.42820 0.37140 0.06000
H 	H 	0.50480 0.59960 0.38340 0.06500
H 	H 	0.36350 0.66190 0.45430 0.06500
H 	H 	0.43870 0.68240 0.65620 0.06600
H 	H 	0.56170 0.61770 0.72270 0.06600
H 	H 	0.87500 0.56040 0.74180 0.09700
H 	H 	0.87520 0.55970 0.83330 0.03100
H 	H 	0.55470 0.45590 0.85870 -0.01800
H 	H 	0.55230 0.45780 0.76780 0.10400
H 	H 	0.23810 0.33490 0.57370 0.15600
H 	H 	0.36780 0.24100 0.57920 -0.00900
H 	H 	0.02050 0.18730 0.52610 -0.04900
H 	H 	0.89360 0.28180 0.51780 0.15500
H 	H 	0.45500 0.11300 0.56500 1.63300
H 	H 	0.71110 0.43560 0.34740 0.08900
H 	H 	0.72840 0.43790 0.25430 0.02300
H 	H 	0.82530 0.59700 0.24540 0.03100
H 	H 	0.79920 0.59580 0.33820 0.09100
H 	H 	0.87300 0.54000 0.12000 0.14600
H 	H 	0.50320 0.73840 0.50640 0.11200
H 	H 	0.34670 0.82690 0.50970 0.06500
H 	H 	0.01960 0.76110 0.61390 0.02300
H 	H 	0.18390 0.67110 0.60910 0.09100
H 	H 	0.46520 0.10140 0.77760 0.06900
H 	H 	0.44170 0.16880 0.84860 0.07600
H 	H 	0.39510 0.14260 0.06080 0.07000
H 	H 	0.30160 0.07180 0.12860 0.05800
H 	H 	0.98780 0.90040 0.11660 0.06300
H 	H 	0.97970 0.83810 0.04570 0.06000
H 	H 	0.27730 0.81760 0.84380 0.06500
H 	H 	0.40210 0.88230 0.77730 0.06500
H 	H 	0.67720 0.93960 0.75820 0.09700
H 	H 	0.76820 0.94030 0.66670 0.03100
H 	H 	0.36930 0.04410 0.64130 -0.01800
H 	H 	0.27790 0.04220 0.73220 0.10400
H 	H 	0.64670 0.16510 0.92630 0.15800
H 	H 	0.68800 0.25900 0.92080 -0.01000
H 	H 	0.23390 0.31270 0.97390 -0.05100
H 	H 	0.19320 0.21820 0.98220 0.15700
H 	H 	0.63300 0.38700 0.93500 1.63400
H 	H 	0.99410 0.06440 0.15260 0.08600
H 	H 	0.92060 0.06210 0.24570 0.02600
H 	H 	0.16770 0.90300 0.25460 0.03300
H 	H 	0.23320 0.90420 0.16180 0.08900
H 	H 	0.03300 0.96000 0.38000 0.14600
H 	H 	0.24800 0.76160 0.99360 0.11100
H 	H 	0.18330 0.67310 0.99030 0.06500
H 	H 	0.89460 0.73890 0.88610 0.02400
H 	H 	0.96410 0.82890 0.89090 0.08900
H 	H 	0.15580 0.60140 0.27760 0.06900
H 	H 	0.04090 0.66880 0.34860 0.07600
H 	H 	0.90150 0.64260 0.56080 0.07000
H 	H 	0.99800 0.57180 0.62860 0.05900
H 	H 	0.49520 0.40040 0.61660 0.06400
H 	H 	0.63650 0.33810 0.54570 0.06400
H 	H 	0.56130 0.31760 0.34380 0.06500
H 	H 	0.43830 0.38230 0.27730 0.06500
H 	H 	0.12500 0.43960 0.25820 0.09700
H 	H 	0.12480 0.44030 0.16670 0.03100
H 	H 	0.44530 0.54410 0.14130 -0.01800
H 	H 	0.44770 0.54220 0.23220 0.10400
H 	H 	0.76190 0.66510 0.42630 0.15600
H 	H 	0.63220 0.75900 0.42080 -0.00900
H 	H 	0.97950 0.81270 0.47390 -0.04900
H 	H 	0.10640 0.71820 0.48220 0.15500
H 	H 	0.54500 0.88700 0.43500 1.63300
H 	H 	0.28890 0.56440 0.65260 0.08900
H 	H 	0.27160 0.56210 0.74570 0.02300
H 	H 	0.17470 0.40300 0.75460 0.03100
H 	H 	0.20080 0.40420 0.66180 0.09100
H 	H 	0.12700 0.46000 0.88000 0.14600
H 	H 	0.49680 0.26160 0.49360 0.11200
H 	H 	0.65330 0.17310 0.49030 0.06500
H 	H 	0.98040 0.23890 0.38610 0.02300
H 	H 	0.81610 0.32890 0.39090 0.09100
H 	H 	0.53480 0.89860 0.22240 0.06900
H 	H 	0.55830 0.83120 0.15140 0.07600
H 	H 	0.60490 0.85740 0.93920 0.07000
H 	H 	0.69840 0.92820 0.87140 0.05800
H 	H 	0.01220 0.09960 0.88340 0.06300
H 	H 	0.02030 0.16190 0.95430 0.06000
H 	H 	0.72270 0.18240 0.15620 0.06500
H 	H 	0.59790 0.11770 0.22270 0.06500
H 	H 	0.32280 0.06040 0.24180 0.09700
H 	H 	0.23180 0.05970 0.33330 0.03100
H 	H 	0.63070 0.95590 0.35870 -0.01800
H 	H 	0.72210 0.95780 0.26780 0.10400
H 	H 	0.35330 0.83490 0.07370 0.15800
H 	H 	0.31200 0.74100 0.07920 -0.01000
H 	H 	0.76610 0.68730 0.02610 -0.05100
H 	H 	0.80680 0.78180 0.01780 0.15700
H 	H 	0.36700 0.61300 0.06500 1.63400
H 	H 	0.00590 0.93560 0.84740 0.08600
H 	H 	0.07940 0.93790 0.75430 0.02600
H 	H 	0.83230 0.09700 0.74540 0.03300
H 	H 	0.76680 0.09580 0.83820 0.08900
H 	H 	0.96700 0.04000 0.62000 0.14600
H 	H 	0.75200 0.23840 0.00640 0.11100
H 	H 	0.81670 0.32690 0.00970 0.06500
H 	H 	0.10540 0.26110 0.11390 0.02400
H 	H 	0.03590 0.17110 0.10910 0.08900
C 	C 	0.64260 0.55830 0.65950 0.10500
C 	C 	0.71430 0.50910 0.68570 -0.14300
C 	C 	0.78260 0.45910 0.65930 0.10300
C 	C 	0.84680 0.40600 0.68560 -0.07300
C 	C 	0.91130 0.36930 0.64650 -0.10000
C 	C 	0.89310 0.39940 0.59560 0.12900
C 	C 	0.95810 0.37830 0.54670 -0.19300
C 	C 	0.94040 0.40840 0.49780 0.11000
C 	C 	0.02220 0.38990 0.44570 -0.11600
C 	C 	0.96810 0.42830 0.40830 -0.08700
C 	C 	0.84700 0.47000 0.43680 0.08900
C 	C 	0.74670 0.51330 0.41250 -0.13900
C 	C 	0.63560 0.55430 0.44130 0.08100
C 	C 	0.52170 0.59670 0.41890 -0.10400
C 	C 	0.44450 0.63110 0.45770 -0.08400
C 	C 	0.51020 0.61180 0.50580 0.09500
C 	C 	0.47080 0.63830 0.55410 -0.14000
C 	C 	0.53030 0.61670 0.60030 0.09900
C 	C 	0.49670 0.64580 0.65060 -0.08300
C 	C 	0.56410 0.61050 0.68690 -0.08200
C 	C 	0.71330 0.50900 0.74440 0.14100
C 	C 	0.81020 0.53940 0.76520 -0.17200
C 	C 	0.81140 0.53870 0.82030 0.09100
C 	C 	0.71810 0.50710 0.85510 -0.15400
C 	C 	0.61940 0.47690 0.83510 0.09500
C 	C 	0.61820 0.47810 0.78050 -0.18000
C 	C 	0.72150 0.50490 0.91450 0.33500
C 	C 	0.05240 0.31800 0.54600 0.25700
C 	C 	0.19380 0.30540 0.56380 -0.35100
C 	C 	0.27160 0.24910 0.56710 0.32800
C 	C 	0.20740 0.20510 0.55270 -0.43400
C 	C 	0.06540 0.21710 0.53510 0.30500
C 	C 	0.98840 0.27360 0.53080 -0.32700
C 	C 	0.28700 0.14390 0.55630 1.06900
C 	C 	0.75610 0.51480 0.35280 0.12000
C 	C 	0.73400 0.46820 0.32700 -0.16400
C 	C 	0.74510 0.46930 0.27090 0.06000
C 	C 	0.78120 0.51750 0.24090 -0.12400
C 	C 	0.80170 0.56450 0.26590 0.06600
C 	C 	0.78750 0.56350 0.32170 -0.16100
C 	C 	0.79420 0.51630 0.18090 0.33200
C 	C 	0.36230 0.69520 0.55680 0.12800
C 	C 	0.40550 0.74240 0.52820 -0.15800
C 	C 	0.31240 0.79580 0.52980 0.06200
C 	C 	0.16720 0.80260 0.56200 -0.12300
C 	C 	0.11710 0.75680 0.59200 0.06400
C 	C 	0.21700 0.70240 0.58900 -0.16600
C 	C 	0.06610 0.86050 0.56230 0.32500
C 	C 	0.36040 0.94170 0.84050 0.10500
C 	C 	0.40910 0.99090 0.81430 -0.14400
C 	C 	0.40100 0.04090 0.84070 0.10400
C 	C 	0.43840 0.09400 0.81440 -0.07400
C 	C 	0.42710 0.13070 0.85350 -0.10000
C 	C 	0.38810 0.10060 0.90440 0.12900
C 	C 	0.38310 0.12170 0.95330 -0.19500
C 	C 	0.34660 0.09160 0.00220 0.11000
C 	C 	0.35780 0.11010 0.05430 -0.11600
C 	C 	0.30470 0.07170 0.09170 -0.08600
C 	C 	0.25380 0.03000 0.06320 0.08700
C 	C 	0.17250 0.98670 0.08750 -0.13600
C 	C 	0.13120 0.94570 0.05870 0.08000
C 	C 	0.03730 0.90330 0.08110 -0.10200
C 	C 	0.03330 0.86890 0.04230 -0.07700
C 	C 	0.12780 0.88820 0.99420 0.09100
C 	C 	0.16320 0.86170 0.94590 -0.13700
C 	C 	0.24730 0.88330 0.89970 0.09800
C 	C 	0.29310 0.85420 0.84940 -0.08200
C 	C 	0.36150 0.88950 0.81310 -0.08200
C 	C 	0.46670 0.99100 0.75560 0.14000
C 	C 	0.61480 0.96060 0.73480 -0.17300
C 	C 	0.67040 0.96130 0.67970 0.09100
C 	C 	0.58030 0.99290 0.64490 -0.15500
C 	C 	0.43140 0.02310 0.66490 0.09600
C 	C 	0.37680 0.02190 0.71950 -0.17900
C 	C 	0.64090 0.99510 0.58550 0.33500
C 	C 	0.41640 0.18200 0.95400 0.26200
C 	C 	0.56300 0.19460 0.93620 -0.35400
C 	C 	0.58780 0.25090 0.93290 0.33100
C 	C 	0.46520 0.29490 0.94730 -0.43700
C 	C 	0.31760 0.28290 0.96490 0.31100
C 	C 	0.29280 0.22640 0.96920 -0.33300
C 	C 	0.48720 0.35610 0.94370 1.07000
C 	C 	0.12370 0.98520 0.14720 0.11800
C 	C 	0.02920 0.03180 0.17300 -0.15800
C 	C 	0.98530 0.03070 0.22910 0.05100
C 	C 	0.03960 0.98250 0.25910 -0.11500
C 	C 	0.13210 0.93550 0.23410 0.06100
C 	C 	0.17270 0.93650 0.17830 -0.15600
C 	C 	0.99140 0.98370 0.31910 0.32700
C 	C 	0.11430 0.80480 0.94320 0.12600
C 	C 	0.17610 0.75760 0.97180 -0.15500
C 	C 	0.13800 0.70420 0.97020 0.06000
C 	C 	0.03180 0.69740 0.93800 -0.12000
C 	C 	0.96590 0.74320 0.90800 0.06100
C 	C 	0.00840 0.79760 0.91100 -0.16300
C 	C 	0.98890 0.63950 0.93770 0.32400
C 	C 	0.35740 0.44170 0.34050 0.10500
C 	C 	0.28570 0.49090 0.31430 -0.14300
C 	C 	0.21740 0.54090 0.34070 0.10300
C 	C 	0.15320 0.59400 0.31440 -0.07300
C 	C 	0.08870 0.63070 0.35350 -0.10000
C 	C 	0.10690 0.60060 0.40440 0.12900
C 	C 	0.04190 0.62170 0.45330 -0.19300
C 	C 	0.05960 0.59160 0.50220 0.11000
C 	C 	0.97780 0.61010 0.55430 -0.11600
C 	C 	0.03190 0.57170 0.59170 -0.08700
C 	C 	0.15300 0.53000 0.56320 0.08900
C 	C 	0.25330 0.48670 0.58750 -0.13900
C 	C 	0.36440 0.44570 0.55870 0.08100
C 	C 	0.47830 0.40330 0.58110 -0.10400
C 	C 	0.55550 0.36890 0.54230 -0.08400
C 	C 	0.48980 0.38820 0.49420 0.09500
C 	C 	0.52920 0.36170 0.44590 -0.14000
C 	C 	0.46970 0.38330 0.39970 0.09900
C 	C 	0.50330 0.35420 0.34940 -0.08300
C 	C 	0.43590 0.38950 0.31310 -0.08200
C 	C 	0.28670 0.49100 0.25560 0.14100
C 	C 	0.18980 0.46060 0.23480 -0.17200
C 	C 	0.18860 0.46130 0.17970 0.09100
C 	C 	0.28190 0.49290 0.14490 -0.15400
C 	C 	0.38060 0.52310 0.16490 0.09500
C 	C 	0.38180 0.52190 0.21950 -0.18000
C 	C 	0.27850 0.49510 0.08550 0.33500
C 	C 	0.94760 0.68200 0.45400 0.25700
C 	C 	0.80620 0.69460 0.43620 -0.35100
C 	C 	0.72840 0.75090 0.43290 0.32800
C 	C 	0.79260 0.79490 0.44730 -0.43400
C 	C 	0.93460 0.78290 0.46490 0.30500
C 	C 	0.01160 0.72640 0.46920 -0.32700
C 	C 	0.71300 0.85610 0.44370 1.06900
C 	C 	0.24390 0.48520 0.64720 0.12000
C 	C 	0.26600 0.53180 0.67300 -0.16400
C 	C 	0.25490 0.53070 0.72910 0.06000
C 	C 	0.21880 0.48250 0.75910 -0.12400
C 	C 	0.19830 0.43550 0.73410 0.06600
C 	C 	0.21250 0.43650 0.67830 -0.16100
C 	C 	0.20580 0.48370 0.81910 0.33200
C 	C 	0.63770 0.30480 0.44320 0.12800
C 	C 	0.59450 0.25760 0.47180 -0.15800
C 	C 	0.68760 0.20420 0.47020 0.06200
C 	C 	0.83280 0.19740 0.43800 -0.12300
C 	C 	0.88290 0.24320 0.40800 0.06400
C 	C 	0.78300 0.29760 0.41100 -0.16600
C 	C 	0.93390 0.13950 0.43770 0.32500
C 	C 	0.63960 0.05830 0.15950 0.10500
C 	C 	0.59090 0.00910 0.18570 -0.14400
C 	C 	0.59900 0.95910 0.15930 0.10400
C 	C 	0.56160 0.90600 0.18560 -0.07400
C 	C 	0.57290 0.86930 0.14650 -0.10000
C 	C 	0.61190 0.89940 0.09560 0.12900
C 	C 	0.61690 0.87830 0.04670 -0.19500
C 	C 	0.65340 0.90840 0.99780 0.11000
C 	C 	0.64220 0.88990 0.94570 -0.11600
C 	C 	0.69530 0.92830 0.90830 -0.08600
C 	C 	0.74620 0.97000 0.93680 0.08700
C 	C 	0.82750 0.01330 0.91250 -0.13600
C 	C 	0.86880 0.05430 0.94130 0.08000
C 	C 	0.96270 0.09670 0.91890 -0.10200
C 	C 	0.96670 0.13110 0.95770 -0.07700
C 	C 	0.87220 0.11180 0.00580 0.09100
C 	C 	0.83680 0.13830 0.05410 -0.13700
C 	C 	0.75270 0.11670 0.10030 0.09800
C 	C 	0.70690 0.14580 0.15060 -0.08200
C 	C 	0.63850 0.11050 0.18690 -0.08200
C 	C 	0.53330 0.00900 0.24440 0.14000
C 	C 	0.38520 0.03940 0.26520 -0.17300
C 	C 	0.32960 0.03870 0.32030 0.09100
C 	C 	0.41970 0.00710 0.35510 -0.15500
C 	C 	0.56860 0.97690 0.33510 0.09600
C 	C 	0.62320 0.97810 0.28050 -0.17900
C 	C 	0.35910 0.00490 0.41450 0.33500
C 	C 	0.58360 0.81800 0.04600 0.26200
C 	C 	0.43700 0.80540 0.06380 -0.35400
C 	C 	0.41220 0.74910 0.06710 0.33100
C 	C 	0.53480 0.70510 0.05270 -0.43700
C 	C 	0.68240 0.71710 0.03510 0.31100
C 	C 	0.70720 0.77360 0.03080 -0.33300
C 	C 	0.51280 0.64390 0.05630 1.07000
C 	C 	0.87630 0.01480 0.85280 0.11800
C 	C 	0.97080 0.96820 0.82700 -0.15800
C 	C 	0.01470 0.96930 0.77090 0.05100
C 	C 	0.96040 0.01750 0.74090 -0.11500
C 	C 	0.86790 0.06450 0.76590 0.06100
C 	C 	0.82730 0.06350 0.82170 -0.15600
C 	C 	0.00860 0.01630 0.68090 0.32700
C 	C 	0.88570 0.19520 0.05680 0.12600
C 	C 	0.82390 0.24240 0.02820 -0.15500
C 	C 	0.86200 0.29580 0.02980 0.06000
C 	C 	0.96820 0.30260 0.06200 -0.12000
C 	C 	0.03410 0.25680 0.09200 0.06100
C 	C 	0.99160 0.20240 0.08900 -0.16300
C 	C 	0.01110 0.36050 0.06230 0.32400
N 	N 	0.80855 0.45385 0.60405 -0.24900
N 	N 	0.83759 0.45921 0.49141 -0.25100
N 	N 	0.62236 0.56274 0.49574 -0.24600
N 	N 	0.62383 0.56377 0.60677 -0.24600
N 	N 	0.36645 0.04615 0.89595 -0.24900
N 	N 	0.28821 0.04079 0.00859 -0.25100
N 	N 	0.18084 0.93726 0.00426 -0.24400
N 	N 	0.29437 0.93623 0.89323 -0.24600
N 	N 	0.19145 0.54615 0.39595 -0.24900
N 	N 	0.16241 0.54079 0.50859 -0.25100
N 	N 	0.37764 0.43726 0.50426 -0.24600
N 	N 	0.37617 0.43623 0.39323 -0.24600
N 	N 	0.63355 0.95385 0.10405 -0.24900
N 	N 	0.71179 0.95921 0.99141 -0.25100
N 	N 	0.81916 0.06274 0.99574 -0.24400
N 	N 	0.70563 0.06377 0.10677 -0.24600
O 	O 	0.79742 0.53676 0.93200 -0.25200
O 	O 	0.64393 0.47142 0.94472 -0.42300
O 	O 	0.22060 0.10380 0.55340 -0.56700
O 	O 	0.43210 0.13730 0.56350 -2.21700
O 	O 	0.77250 0.47740 0.15820 -0.31100
O 	O 	0.83850 0.56260 0.15560 -0.30800
O 	O 	0.11199 0.90123 0.53639 -0.28400
O 	O 	0.92541 0.86344 0.58994 -0.21600
O 	O 	0.76618 0.96324 0.56800 -0.25300
O 	O 	0.56007 0.02858 0.55528 -0.42300
O 	O 	0.37780 0.39620 0.94660 -0.56700
O 	O 	0.63290 0.36270 0.93650 -2.21700
O 	O 	0.90810 0.02260 0.34180 -0.31000
O 	O 	0.05670 0.93740 0.34440 -0.30600
O 	O 	0.04961 0.59877 0.96361 -0.28300
O 	O 	0.87879 0.63656 0.91006 -0.21500
O 	O 	0.20258 0.46324 0.06800 -0.25200
O 	O 	0.35607 0.52858 0.05528 -0.42300
O 	O 	0.77940 0.89620 0.44660 -0.56700
O 	O 	0.56790 0.86270 0.43650 -2.21700
O 	O 	0.22750 0.52260 0.84180 -0.31100
O 	O 	0.16150 0.43740 0.84440 -0.30800
O 	O 	0.88801 0.09877 0.46361 -0.28400
O 	O 	0.07459 0.13656 0.41006 -0.21600
O 	O 	0.23382 0.03676 0.43200 -0.25300
O 	O 	0.43993 0.97142 0.44472 -0.42300
O 	O 	0.62220 0.60380 0.05340 -0.56700
O 	O 	0.36710 0.63730 0.06350 -2.21700
O 	O 	0.09190 0.97740 0.65820 -0.31000
O 	O 	0.94330 0.06260 0.65560 -0.30600
O 	O 	0.95039 0.40123 0.03639 -0.28300
O 	O 	0.12121 0.36344 0.08994 -0.21500
