data_crystal

_cell_length_a 12.06600
_cell_length_b 16.12100
_cell_length_c 15.09900
_cell_angle_alpha 90.00000
_cell_angle_beta  90.00000
_cell_angle_gamma 90.00000

_symmetry_space_group_name_	'P 1'
_symmetry_space_group_name_H-M	'P 1'

loop_
_symmetry_equiv_pos_as_xyz
  x,y,z

loop_
_atom_site_label
_atom_site_type_symbol
_atom_site_fract_x
_atom_site_fract_y
_atom_site_fract_z
_atom_site_charge
N 	N 	0.61020 0.16310 0.38550 -0.24600
C 	C 	0.66400 0.10420 0.38910 -0.04700
N 	N 	0.11020 0.66310 0.38550 -0.25100
C 	C 	0.16400 0.60420 0.38910 -0.05300
N 	N 	0.38980 0.33690 0.38550 -0.24600
C 	C 	0.33600 0.39580 0.38910 -0.04400
N 	N 	0.88980 0.83690 0.38550 -0.23200
C 	C 	0.83600 0.89580 0.38910 0.00900
N 	N 	0.61020 0.33690 0.38550 -0.24600
C 	C 	0.66400 0.39580 0.38910 -0.03800
N 	N 	0.11020 0.83690 0.38550 -0.25500
C 	C 	0.16400 0.89580 0.38910 -0.01300
N 	N 	0.38980 0.16310 0.38550 -0.24700
C 	C 	0.33600 0.10420 0.38910 -0.05300
N 	N 	0.88980 0.66310 0.38550 -0.22700
C 	C 	0.83600 0.60420 0.38910 -0.03000
Au	Au	0.75000 0.00000 0.39271 0.24500
Au	Au	0.25000 0.50000 0.39271 0.26700
Au	Au	0.75000 0.50000 0.39271 0.28000
Au	Au	0.25000 0.00000 0.39271 0.23300
Fe	Fe	0.50000 0.25000 0.38450 1.17800
N 	N 	0.50000 0.25000 0.25270 -0.25700
N 	N 	0.50000 0.25000 0.51640 -0.25700
C 	C 	0.50000 0.25000 0.06700 0.06000
C 	C 	0.50000 0.25000 0.96890 0.08200
C 	C 	0.50000 0.25000 0.79980 0.07700
C 	C 	0.50000 0.25000 0.70060 0.06000
Fe	Fe	0.00000 0.75000 0.38450 1.15700
N 	N 	-0.00000 0.75000 0.25270 -0.28500
N 	N 	0.00000 0.75000 0.51640 -0.28400
C 	C 	-0.00000 0.75000 0.06700 0.00100
C 	C 	-0.00000 0.75000 0.96890 0.05400
C 	C 	-0.00000 0.75000 0.79980 0.05200
C 	C 	-0.00000 0.75000 0.70060 -0.01300
N 	N 	0.59870 0.25000 0.92780 -0.08900
N 	N 	0.59820 0.25000 0.83980 -0.09300
C 	C 	0.59500 0.25000 0.20610 0.07700
H 	H 	0.66290 0.25000 0.23800 -0.00800
C 	C 	0.59950 0.25000 0.11500 -0.13200
H 	H 	0.66890 0.25000 0.08520 0.09200
C 	C 	0.59690 0.25000 0.65520 -0.14400
H 	H 	0.66550 0.25000 0.68600 0.07800
C 	C 	0.59490 0.25000 0.56290 0.06100
H 	H 	0.66330 0.25000 0.53170 -0.01300
N 	N 	0.09870 0.75000 0.92780 -0.08700
N 	N 	0.09820 0.75000 0.83980 -0.09000
C 	C 	0.09500 0.75000 0.20610 0.06000
H 	H 	0.16290 0.75000 0.23800 -0.00400
C 	C 	0.09950 0.75000 0.11500 -0.11100
H 	H 	0.16890 0.75000 0.08520 0.08500
C 	C 	0.09690 0.75000 0.65520 -0.11200
H 	H 	0.16550 0.75000 0.68600 0.06800
C 	C 	0.09490 0.75000 0.56290 0.03900
H 	H 	0.16330 0.75000 0.53170 -0.00700
N 	N 	0.40130 0.25000 0.92780 -0.09100
N 	N 	0.40180 0.25000 0.83980 -0.09500
C 	C 	0.40500 0.25000 0.20610 0.07600
H 	H 	0.33710 0.25000 0.23800 -0.01100
C 	C 	0.40050 0.25000 0.11500 -0.13300
H 	H 	0.33110 0.25000 0.08520 0.08800
C 	C 	0.40310 0.25000 0.65520 -0.14400
H 	H 	0.33450 0.25000 0.68600 0.07600
C 	C 	0.40510 0.25000 0.56290 0.06100
H 	H 	0.33670 0.25000 0.53170 -0.01500
N 	N 	0.90130 0.75000 0.92780 -0.05500
N 	N 	0.90180 0.75000 0.83980 -0.05900
C 	C 	0.90500 0.75000 0.20610 0.11800
H 	H 	0.83710 0.75000 0.23800 -0.01400
C 	C 	0.90050 0.75000 0.11500 -0.06200
H 	H 	0.83110 0.75000 0.08520 0.08000
C 	C 	0.90310 0.75000 0.65520 -0.05900
H 	H 	0.83450 0.75000 0.68600 0.06000
C 	C 	0.90510 0.75000 0.56290 0.09500
H 	H 	0.83670 0.75000 0.53170 -0.01800
N 	N 	0.38980 0.66310 0.61450 -0.24600
C 	C 	0.33600 0.60420 0.61090 -0.04400
N 	N 	0.88980 0.16310 0.61450 -0.22800
C 	C 	0.83600 0.10420 0.61090 -0.03800
N 	N 	0.61020 0.83690 0.61450 -0.25100
C 	C 	0.66400 0.89580 0.61090 0.00100
N 	N 	0.11020 0.33690 0.61450 -0.25100
C 	C 	0.16400 0.39580 0.61090 -0.05200
N 	N 	0.38980 0.83690 0.61450 -0.25100
C 	C 	0.33600 0.89580 0.61090 -0.00500
N 	N 	0.88980 0.33690 0.61450 -0.22800
C 	C 	0.83600 0.39580 0.61090 -0.03000
N 	N 	0.61020 0.66310 0.61450 -0.24600
C 	C 	0.66400 0.60420 0.61090 -0.03800
N 	N 	0.11020 0.16310 0.61450 -0.25100
C 	C 	0.16400 0.10420 0.61090 -0.06100
Au	Au	0.25000 0.50000 0.60729 0.26700
Au	Au	0.75000 0.00000 0.60729 0.24500
Au	Au	0.25000 0.00000 0.60729 0.23300
Au	Au	0.75000 0.50000 0.60729 0.28000
Fe	Fe	0.50000 0.75000 0.61550 1.18000
N 	N 	0.50000 0.75000 0.74730 -0.25500
N 	N 	0.50000 0.75000 0.48360 -0.25600
C 	C 	0.50000 0.75000 0.93300 0.06600
C 	C 	0.50000 0.75000 0.03110 0.08800
C 	C 	0.50000 0.75000 0.20020 0.08300
C 	C 	0.50000 0.75000 0.29940 0.06600
Fe	Fe	-0.00000 0.25000 0.61550 1.15400
N 	N 	-0.00000 0.25000 0.74730 -0.28700
N 	N 	-0.00000 0.25000 0.48360 -0.28500
C 	C 	-0.00000 0.25000 0.93300 -0.00400
C 	C 	-0.00000 0.25000 0.03110 0.04900
C 	C 	-0.00000 0.25000 0.20020 0.04600
C 	C 	-0.00000 0.25000 0.29940 -0.01800
N 	N 	0.40130 0.75000 0.07220 -0.08700
N 	N 	0.40180 0.75000 0.16020 -0.09100
C 	C 	0.40500 0.75000 0.79390 0.08100
H 	H 	0.33710 0.75000 0.76200 -0.01000
C 	C 	0.40050 0.75000 0.88500 -0.13000
H 	H 	0.33110 0.75000 0.91480 0.09200
C 	C 	0.40310 0.75000 0.34480 -0.14200
H 	H 	0.33450 0.75000 0.31400 0.07900
C 	C 	0.40510 0.75000 0.43710 0.06600
H 	H 	0.33670 0.75000 0.46830 -0.01400
N 	N 	0.90130 0.25000 0.07220 -0.05900
N 	N 	0.90180 0.25000 0.16020 -0.06300
C 	C 	0.90500 0.25000 0.79390 0.11200
H 	H 	0.83710 0.25000 0.76200 -0.01600
C 	C 	0.90050 0.25000 0.88500 -0.06500
H 	H 	0.83110 0.25000 0.91480 0.07600
C 	C 	0.90310 0.25000 0.34480 -0.06200
H 	H 	0.83450 0.25000 0.31400 0.05700
C 	C 	0.90510 0.25000 0.43710 0.09000
H 	H 	0.83670 0.25000 0.46830 -0.01800
N 	N 	0.59870 0.75000 0.07220 -0.08400
N 	N 	0.59820 0.75000 0.16020 -0.08900
C 	C 	0.59500 0.75000 0.79390 0.08200
H 	H 	0.66290 0.75000 0.76200 -0.00600
C 	C 	0.59950 0.75000 0.88500 -0.12900
H 	H 	0.66890 0.75000 0.91480 0.09700
C 	C 	0.59690 0.75000 0.34480 -0.14200
H 	H 	0.66550 0.75000 0.31400 0.08100
C 	C 	0.59490 0.75000 0.43710 0.06600
H 	H 	0.66330 0.75000 0.46830 -0.01300
N 	N 	0.09870 0.25000 0.07220 -0.09100
N 	N 	0.09820 0.25000 0.16020 -0.09400
C 	C 	0.09500 0.25000 0.79390 0.05500
H 	H 	0.16290 0.25000 0.76200 -0.00600
C 	C 	0.09950 0.25000 0.88500 -0.11400
H 	H 	0.16890 0.25000 0.91480 0.08100
C 	C 	0.09690 0.25000 0.34480 -0.11400
H 	H 	0.16550 0.25000 0.31400 0.06500
C 	C 	0.09490 0.25000 0.43710 0.03400
H 	H 	0.16330 0.25000 0.46830 -0.00700
