data_crystal

_cell_length_a 11.91830
_cell_length_b 16.99830
_cell_length_c 15.49860
_cell_angle_alpha 90.00000
_cell_angle_beta  90.00000
_cell_angle_gamma 90.00000

_symmetry_space_group_name_	'P 1'
_symmetry_space_group_name_H-M	'P 1'

loop_
_symmetry_equiv_pos_as_xyz
  x,y,z

loop_
_atom_site_label
_atom_site_type_symbol
_atom_site_fract_x
_atom_site_fract_y
_atom_site_fract_z
_atom_site_charge
N 	N 	0.62450 0.15990 0.38670 -0.22900
C 	C 	0.67140 0.10280 0.39000 -0.05000
N 	N 	0.12450 0.65990 0.38670 -0.23300
C 	C 	0.17140 0.60280 0.39000 -0.05700
N 	N 	0.37550 0.34010 0.38670 -0.22900
C 	C 	0.32860 0.39720 0.39000 -0.05000
N 	N 	0.87550 0.84010 0.38670 -0.21800
C 	C 	0.82860 0.89720 0.39000 0.00200
N 	N 	0.62450 0.34010 0.38670 -0.22900
C 	C 	0.67140 0.39720 0.39000 -0.04300
N 	N 	0.12450 0.84010 0.38670 -0.23800
C 	C 	0.17140 0.89720 0.39000 -0.02000
N 	N 	0.37550 0.15990 0.38670 -0.22900
C 	C 	0.32860 0.10280 0.39000 -0.05800
N 	N 	0.87550 0.65990 0.38670 -0.21300
C 	C 	0.82860 0.60280 0.39000 -0.03500
Au	Au	0.75000 0.00000 0.39434 0.24300
Au	Au	0.25000 0.50000 0.39434 0.26200
Au	Au	0.75000 0.50000 0.39434 0.27500
Au	Au	0.25000 0.00000 0.39434 0.23000
Fe	Fe	0.50000 0.25000 0.38594 1.11900
N 	N 	0.50000 0.25000 0.24240 -0.25300
N 	N 	0.50000 0.25000 0.52690 -0.25600
C 	C 	0.50000 0.25000 0.06380 0.09300
C 	C 	0.50000 0.25000 0.96890 0.06700
C 	C 	0.50000 0.25000 0.80510 0.08400
C 	C 	0.50000 0.25000 0.70760 0.07600
Fe	Fe	0.00000 0.75000 0.38594 1.10000
N 	N 	0.00000 0.75000 0.24240 -0.28100
N 	N 	0.00000 0.75000 0.52690 -0.28400
C 	C 	0.00000 0.75000 0.06380 0.02800
C 	C 	0.00000 0.75000 0.96890 0.04400
C 	C 	0.00000 0.75000 0.80510 0.05700
C 	C 	-0.00000 0.75000 0.70760 0.00600
N 	N 	0.60020 0.25000 0.92730 -0.08600
N 	N 	0.59820 0.25000 0.84090 -0.09600
C 	C 	0.59340 0.25000 0.19900 0.10600
H 	H 	0.66050 0.25000 0.22960 -0.02100
C 	C 	0.59840 0.25000 0.10950 -0.17100
H 	H 	0.66710 0.25000 0.08110 0.10800
C 	C 	0.59700 0.25000 0.66250 -0.16600
H 	H 	0.66580 0.25000 0.69090 0.08800
C 	C 	0.59200 0.25000 0.57140 0.08400
H 	H 	0.65950 0.25000 0.54130 -0.02400
N 	N 	0.10020 0.75000 0.92730 -0.08600
N 	N 	0.09820 0.75000 0.84090 -0.09300
C 	C 	0.09340 0.75000 0.19900 0.08700
H 	H 	0.16050 0.75000 0.22960 -0.01700
C 	C 	0.09840 0.75000 0.10950 -0.14500
H 	H 	0.16710 0.75000 0.08110 0.09800
C 	C 	0.09700 0.75000 0.66250 -0.13700
H 	H 	0.16580 0.75000 0.69090 0.07800
C 	C 	0.09200 0.75000 0.57140 0.06300
H 	H 	0.15950 0.75000 0.54130 -0.01900
N 	N 	0.39980 0.25000 0.92730 -0.08900
N 	N 	0.40180 0.25000 0.84090 -0.09800
C 	C 	0.40660 0.25000 0.19900 0.10500
H 	H 	0.33950 0.25000 0.22960 -0.02500
C 	C 	0.40160 0.25000 0.10950 -0.17300
H 	H 	0.33290 0.25000 0.08110 0.10400
C 	C 	0.40300 0.25000 0.66250 -0.16600
H 	H 	0.33420 0.25000 0.69090 0.08600
C 	C 	0.40800 0.25000 0.57140 0.08400
H 	H 	0.34050 0.25000 0.54130 -0.02600
N 	N 	0.89980 0.75000 0.92730 -0.05600
N 	N 	0.90180 0.75000 0.84090 -0.06300
C 	C 	0.90660 0.75000 0.19900 0.14500
H 	H 	0.83950 0.75000 0.22960 -0.02700
C 	C 	0.90160 0.75000 0.10950 -0.09600
H 	H 	0.83290 0.75000 0.08110 0.09200
C 	C 	0.90300 0.75000 0.66250 -0.08700
H 	H 	0.83420 0.75000 0.69090 0.07000
C 	C 	0.90800 0.75000 0.57140 0.12200
H 	H 	0.84050 0.75000 0.54130 -0.03000
N 	N 	0.37550 0.65990 0.61330 -0.22900
C 	C 	0.32860 0.60280 0.61000 -0.05000
N 	N 	0.87550 0.15990 0.61330 -0.21400
C 	C 	0.82860 0.10280 0.61000 -0.04300
N 	N 	0.62450 0.84010 0.61330 -0.23400
C 	C 	0.67140 0.89720 0.61000 -0.00600
N 	N 	0.12450 0.34010 0.61330 -0.23300
C 	C 	0.17140 0.39720 0.61000 -0.05700
N 	N 	0.37550 0.84010 0.61330 -0.23400
C 	C 	0.32860 0.89720 0.61000 -0.01300
N 	N 	0.87550 0.34010 0.61330 -0.21300
C 	C 	0.82860 0.39720 0.61000 -0.03500
N 	N 	0.62450 0.65990 0.61330 -0.22900
C 	C 	0.67140 0.60280 0.61000 -0.04300
N 	N 	0.12450 0.15990 0.61330 -0.23400
C 	C 	0.17140 0.10280 0.61000 -0.06500
Au	Au	0.25000 0.50000 0.60566 0.26200
Au	Au	0.75000 0.00000 0.60566 0.24300
Au	Au	0.25000 0.00000 0.60566 0.23000
Au	Au	0.75000 0.50000 0.60566 0.27500
Fe	Fe	0.50000 0.75000 0.61406 1.12200
N 	N 	0.50000 0.75000 0.75760 -0.25200
N 	N 	0.50000 0.75000 0.47310 -0.25500
C 	C 	0.50000 0.75000 0.93620 0.09800
C 	C 	0.50000 0.75000 0.03110 0.07200
C 	C 	0.50000 0.75000 0.19490 0.08900
C 	C 	0.50000 0.75000 0.29240 0.08000
Fe	Fe	-0.00000 0.25000 0.61406 1.09800
N 	N 	0.00000 0.25000 0.75760 -0.28200
N 	N 	-0.00000 0.25000 0.47310 -0.28400
C 	C 	0.00000 0.25000 0.93620 0.02300
C 	C 	0.00000 0.25000 0.03110 0.03900
C 	C 	0.00000 0.25000 0.19490 0.05200
C 	C 	-0.00000 0.25000 0.29240 0.00200
N 	N 	0.39980 0.75000 0.07270 -0.08500
N 	N 	0.40180 0.75000 0.15910 -0.09500
C 	C 	0.40660 0.75000 0.80100 0.11000
H 	H 	0.33950 0.75000 0.77040 -0.02300
C 	C 	0.40160 0.75000 0.89050 -0.17100
H 	H 	0.33290 0.75000 0.91890 0.10700
C 	C 	0.40300 0.75000 0.33750 -0.16500
H 	H 	0.33420 0.75000 0.30910 0.08800
C 	C 	0.40800 0.75000 0.42860 0.08900
H 	H 	0.34050 0.75000 0.45870 -0.02600
N 	N 	0.89980 0.25000 0.07270 -0.06000
N 	N 	0.90180 0.25000 0.15910 -0.06600
C 	C 	0.90660 0.25000 0.80100 0.14000
H 	H 	0.83950 0.25000 0.77040 -0.02900
C 	C 	0.90160 0.25000 0.89050 -0.09900
H 	H 	0.83290 0.25000 0.91890 0.08800
C 	C 	0.90300 0.25000 0.33750 -0.08900
H 	H 	0.83420 0.25000 0.30910 0.06800
C 	C 	0.90800 0.25000 0.42860 0.11800
H 	H 	0.84050 0.25000 0.45870 -0.03100
N 	N 	0.60020 0.75000 0.07270 -0.08300
N 	N 	0.59820 0.75000 0.15910 -0.09300
C 	C 	0.59340 0.75000 0.80100 0.11100
H 	H 	0.66050 0.75000 0.77040 -0.02000
C 	C 	0.59840 0.75000 0.89050 -0.16900
H 	H 	0.66710 0.75000 0.91890 0.11200
C 	C 	0.59700 0.75000 0.33750 -0.16500
H 	H 	0.66580 0.75000 0.30910 0.09100
C 	C 	0.59200 0.75000 0.42860 0.08800
H 	H 	0.65950 0.75000 0.45870 -0.02400
N 	N 	0.10020 0.25000 0.07270 -0.08900
N 	N 	0.09820 0.25000 0.15910 -0.09700
C 	C 	0.09340 0.25000 0.80100 0.08200
H 	H 	0.16050 0.25000 0.77040 -0.01900
C 	C 	0.09840 0.25000 0.89050 -0.14700
H 	H 	0.16710 0.25000 0.91890 0.09400
C 	C 	0.09700 0.25000 0.33750 -0.13900
H 	H 	0.16580 0.25000 0.30910 0.07500
C 	C 	0.09200 0.25000 0.42860 0.05800
H 	H 	0.15950 0.25000 0.45870 -0.01900
