data_crystal

_cell_length_a 10.04100
_cell_length_b 9.22000
_cell_length_c 10.46900
_cell_angle_alpha 90.00000
_cell_angle_beta  91.60000
_cell_angle_gamma 90.00000

_symmetry_space_group_name_	'P 1'
_symmetry_space_group_name_H-M	'P 1'

loop_
_symmetry_equiv_pos_as_xyz
  x,y,z

loop_
_atom_site_label
_atom_site_type_symbol
_atom_site_fract_x
_atom_site_fract_y
_atom_site_fract_z
_atom_site_charge
Ga	Ga	0.37134 0.09184 0.83895 2.05900
P 	P 	0.57190 0.83365 0.87420 0.66600
O 	O 	0.68670 0.93430 0.84190 -0.73500
O 	O 	0.58100 0.68580 0.81040 -0.66400
O 	O 	0.44050 0.90340 0.83170 -0.65300
O 	O 	0.57070 0.80180 0.01820 -0.67700
Ga	Ga	0.87134 0.59184 0.33895 2.06000
P 	P 	0.07190 0.33365 0.37420 0.66500
O 	O 	0.18670 0.43430 0.34190 -0.73200
O 	O 	0.08100 0.18580 0.31040 -0.66500
O 	O 	0.94050 0.40340 0.33170 -0.65200
O 	O 	0.07070 0.30180 0.51820 -0.67700
Ga	Ga	0.12866 0.09184 0.16105 2.05900
P 	P 	0.92810 0.83365 0.12580 0.65700
O 	O 	0.81330 0.93430 0.15810 -0.73400
O 	O 	0.91900 0.68580 0.18960 -0.66300
O 	O 	0.05950 0.90340 0.16830 -0.64400
O 	O 	0.92930 0.80180 0.98180 -0.67500
Ga	Ga	0.62866 0.59184 0.66105 2.06000
P 	P 	0.42810 0.33365 0.62580 0.66600
O 	O 	0.31330 0.43430 0.65810 -0.73300
O 	O 	0.41900 0.18580 0.68960 -0.66200
O 	O 	0.55950 0.40340 0.66830 -0.65400
O 	O 	0.42930 0.30180 0.48180 -0.67500
Ga	Ga	0.62866 0.90816 0.16105 2.06000
P 	P 	0.42810 0.16635 0.12580 0.66700
O 	O 	0.31330 0.06570 0.15810 -0.73400
O 	O 	0.41900 0.31420 0.18960 -0.66300
O 	O 	0.55950 0.09660 0.16830 -0.65200
O 	O 	0.42930 0.19820 0.98180 -0.67600
Ga	Ga	0.12866 0.40816 0.66105 2.06000
P 	P 	0.92810 0.66635 0.62580 0.66500
O 	O 	0.81330 0.56570 0.65810 -0.73200
O 	O 	0.91900 0.81420 0.68960 -0.66500
O 	O 	0.05950 0.59660 0.66830 -0.65200
O 	O 	0.92930 0.69820 0.48180 -0.67700
Ga	Ga	0.87134 0.90816 0.83895 2.05900
P 	P 	0.07190 0.16635 0.87420 0.65700
O 	O 	0.18670 0.06570 0.84190 -0.73400
O 	O 	0.08100 0.31420 0.81040 -0.66300
O 	O 	0.94050 0.09660 0.83170 -0.64400
O 	O 	0.07070 0.19820 0.01820 -0.67500
Ga	Ga	0.37134 0.40816 0.33895 2.06000
P 	P 	0.57190 0.66635 0.37420 0.66600
O 	O 	0.68670 0.56570 0.34190 -0.73300
O 	O 	0.58100 0.81420 0.31040 -0.66200
O 	O 	0.44050 0.59660 0.33170 -0.65400
O 	O 	0.57070 0.69820 0.51820 -0.67500
