data_crystal

_cell_length_a 36.42000
_cell_length_b 36.42000
_cell_length_c 7.79900
_cell_angle_alpha 90.00000
_cell_angle_beta  90.00000
_cell_angle_gamma 120.00000

_symmetry_space_group_name_	'P 1'
_symmetry_space_group_name_H-M	'P 1'

loop_
_symmetry_equiv_pos_as_xyz
  x,y,z

loop_
_atom_site_label
_atom_site_type_symbol
_atom_site_fract_x
_atom_site_fract_y
_atom_site_fract_z
_atom_site_charge
Cd	Cd	0.40837 0.08918 0.83710 1.09500
N 	N 	0.31050 0.23060 0.42700 -0.31800
C 	C 	0.34270 0.25430 0.32700 0.08800
H 	H 	0.34560 0.27980 0.28830 -0.12000
C 	C 	0.37290 0.24370 0.27500 -0.19100
H 	H 	0.39510 0.26180 0.20360 0.04500
C 	C 	0.36960 0.20660 0.32900 0.10300
C 	C 	0.33630 0.18180 0.43300 -0.17600
H 	H 	0.33260 0.15610 0.47410 0.07100
C 	C 	0.30770 0.19500 0.47900 0.08600
H 	H 	0.28520 0.17750 0.55070 -0.06200
C 	C 	0.39930 0.19180 0.27100 -0.03100
C 	C 	0.43630 0.21830 0.18200 -0.04200
H 	H 	0.44290 0.24600 0.15920 0.02300
C 	C 	0.46400 0.20480 0.12600 -0.05800
H 	H 	0.48860 0.22310 0.06690 0.03300
C 	C 	0.45410 0.16380 0.16000 -0.06000
C 	C 	0.41790 0.13630 0.24800 -0.07600
H 	H 	0.41150 0.10870 0.27080 -0.02300
C 	C 	0.39080 0.15070 0.30200 -0.05100
H 	H 	0.36630 0.13220 0.36150 0.00100
C 	C 	0.48370 0.14870 0.09800 0.06900
C 	C 	0.52550 0.17120 0.14700 -0.13700
H 	H 	0.53590 0.19600 0.21090 0.06600
C 	C 	0.55270 0.15520 0.09800 0.02700
H 	H 	0.58120 0.16940 0.12830 0.00600
C 	C 	0.53660 0.12020 0.00900 -0.10200
H 	H 	0.55380 0.10930 0.97590 0.03700
C 	C 	0.49510 0.09970 0.96500 0.02200
H 	H 	0.48450 0.07490 0.90140 -0.04900
N 	N 	0.46840 0.11370 0.00900 -0.27400
Cd	Cd	0.25830 0.24415 0.49623 1.09700
N 	N 	0.35617 0.10273 0.90633 -0.32100
C 	C 	0.32397 0.07903 0.00633 0.09800
H 	H 	0.32107 0.05353 0.04503 -0.12100
C 	C 	0.29377 0.08963 0.05833 -0.19800
H 	H 	0.27157 0.07153 0.12973 0.04800
C 	C 	0.29707 0.12673 0.00433 0.11400
C 	C 	0.33037 0.15153 0.90033 -0.18700
H 	H 	0.33407 0.17723 0.85923 0.07400
C 	C 	0.35897 0.13833 0.85433 0.09000
H 	H 	0.38147 0.15583 0.78263 -0.06400
C 	C 	0.26737 0.14153 0.06233 -0.03800
C 	C 	0.23037 0.11503 0.15133 -0.03900
H 	H 	0.22377 0.08733 0.17413 0.02100
C 	C 	0.20267 0.12853 0.20733 -0.06000
H 	H 	0.17807 0.11023 0.26643 0.03200
C 	C 	0.21257 0.16953 0.17333 -0.06200
C 	C 	0.24877 0.19703 0.08533 -0.08000
H 	H 	0.25517 0.22463 0.06253 -0.02200
C 	C 	0.27587 0.18263 0.03133 -0.04100
H 	H 	0.30037 0.20113 0.97183 -0.00400
C 	C 	0.18297 0.18463 0.23533 0.07700
C 	C 	0.14117 0.16213 0.18633 -0.16100
H 	H 	0.13077 0.13733 0.12243 0.07400
C 	C 	0.11397 0.17813 0.23533 0.06700
H 	H 	0.08547 0.16393 0.20503 -0.01000
C 	C 	0.13007 0.21313 0.32433 -0.16100
H 	H 	0.11287 0.22403 0.35743 0.06200
C 	C 	0.17157 0.23363 0.36833 0.06500
H 	H 	0.18217 0.25843 0.43193 -0.06300
N 	N 	0.19827 0.21963 0.32433 -0.28700
Cd	Cd	0.07504 0.42251 0.17043 1.09700
N 	N 	0.97717 0.56393 0.76033 -0.31700
C 	C 	0.00937 0.58763 0.66033 0.08800
H 	H 	0.01227 0.61313 0.62163 -0.11900
C 	C 	0.03957 0.57703 0.60833 -0.18800
H 	H 	0.06177 0.59513 0.53693 0.04400
C 	C 	0.03627 0.53993 0.66233 0.10000
C 	C 	0.00297 0.51513 0.76633 -0.17300
H 	H 	0.99927 0.48943 0.80743 0.06900
C 	C 	0.97437 0.52833 0.81233 0.08400
H 	H 	0.95187 0.51083 0.88403 -0.06200
C 	C 	0.06597 0.52513 0.60433 -0.02800
C 	C 	0.10297 0.55163 0.51533 -0.04700
H 	H 	0.10957 0.57933 0.49253 0.02400
C 	C 	0.13067 0.53813 0.45933 -0.05300
H 	H 	0.15527 0.55643 0.40023 0.02900
C 	C 	0.12077 0.49713 0.49333 -0.06800
C 	C 	0.08457 0.46963 0.58133 -0.07100
H 	H 	0.07817 0.44203 0.60413 -0.02400
C 	C 	0.05747 0.48403 0.63533 -0.05500
H 	H 	0.03297 0.46553 0.69483 0.00300
C 	C 	0.15037 0.48203 0.43133 0.08000
C 	C 	0.19217 0.50453 0.48033 -0.16300
H 	H 	0.20257 0.52933 0.54423 0.07500
C 	C 	0.21937 0.48853 0.43133 0.06800
H 	H 	0.24787 0.50273 0.46163 -0.01100
C 	C 	0.20327 0.45353 0.34233 -0.16300
H 	H 	0.22047 0.44263 0.30923 0.06100
C 	C 	0.16177 0.43303 0.29833 0.06500
H 	H 	0.15117 0.40823 0.23473 -0.06400
N 	N 	0.13507 0.44703 0.34233 -0.28800
Cd	Cd	0.92496 0.57749 0.82957 1.09700
N 	N 	0.02283 0.43607 0.23967 -0.31700
C 	C 	0.99063 0.41237 0.33967 0.08800
H 	H 	0.98773 0.38687 0.37837 -0.11900
C 	C 	0.96043 0.42297 0.39167 -0.18800
H 	H 	0.93823 0.40487 0.46307 0.04400
C 	C 	0.96373 0.46007 0.33767 0.10000
C 	C 	0.99703 0.48487 0.23367 -0.17300
H 	H 	0.00073 0.51057 0.19257 0.06900
C 	C 	0.02563 0.47167 0.18767 0.08400
H 	H 	0.04813 0.48917 0.11597 -0.06200
C 	C 	0.93403 0.47487 0.39567 -0.02800
C 	C 	0.89703 0.44837 0.48467 -0.04700
H 	H 	0.89043 0.42067 0.50747 0.02400
C 	C 	0.86933 0.46187 0.54067 -0.05300
H 	H 	0.84473 0.44357 0.59977 0.02900
C 	C 	0.87923 0.50287 0.50667 -0.06800
C 	C 	0.91543 0.53037 0.41867 -0.07100
H 	H 	0.92183 0.55797 0.39587 -0.02400
C 	C 	0.94253 0.51597 0.36467 -0.05500
H 	H 	0.96703 0.53447 0.30517 0.00300
C 	C 	0.84963 0.51797 0.56867 0.08000
C 	C 	0.80783 0.49547 0.51967 -0.16300
H 	H 	0.79743 0.47067 0.45577 0.07500
C 	C 	0.78063 0.51147 0.56867 0.06800
H 	H 	0.75213 0.49727 0.53837 -0.01100
C 	C 	0.79673 0.54647 0.65767 -0.16300
H 	H 	0.77953 0.55737 0.69077 0.06100
C 	C 	0.83823 0.56697 0.70167 0.06500
H 	H 	0.84883 0.59177 0.76527 -0.06400
N 	N 	0.86493 0.55297 0.65767 -0.28800
Cd	Cd	0.74170 0.75585 0.50377 1.09700
N 	N 	0.64383 0.89727 0.09367 -0.32100
C 	C 	0.67603 0.92097 0.99367 0.09800
H 	H 	0.67893 0.94647 0.95497 -0.12100
C 	C 	0.70623 0.91037 0.94167 -0.19800
H 	H 	0.72843 0.92847 0.87027 0.04800
C 	C 	0.70293 0.87327 0.99567 0.11400
C 	C 	0.66963 0.84847 0.09967 -0.18700
H 	H 	0.66593 0.82277 0.14077 0.07400
C 	C 	0.64103 0.86167 0.14567 0.09000
H 	H 	0.61853 0.84417 0.21737 -0.06400
C 	C 	0.73263 0.85847 0.93767 -0.03800
C 	C 	0.76963 0.88497 0.84867 -0.03900
H 	H 	0.77623 0.91267 0.82587 0.02100
C 	C 	0.79733 0.87147 0.79267 -0.06000
H 	H 	0.82193 0.88977 0.73357 0.03200
C 	C 	0.78743 0.83047 0.82667 -0.06200
C 	C 	0.75123 0.80297 0.91467 -0.08000
H 	H 	0.74483 0.77537 0.93747 -0.02200
C 	C 	0.72413 0.81737 0.96867 -0.04100
H 	H 	0.69963 0.79887 0.02817 -0.00400
C 	C 	0.81703 0.81537 0.76467 0.07700
C 	C 	0.85883 0.83787 0.81367 -0.16100
H 	H 	0.86923 0.86267 0.87757 0.07400
C 	C 	0.88603 0.82187 0.76467 0.06700
H 	H 	0.91453 0.83607 0.79497 -0.01000
C 	C 	0.86993 0.78687 0.67567 -0.16100
H 	H 	0.88713 0.77597 0.64257 0.06200
C 	C 	0.82843 0.76637 0.63167 0.06500
H 	H 	0.81783 0.74157 0.56807 -0.06300
N 	N 	0.80173 0.78037 0.67567 -0.28700
Cd	Cd	0.59163 0.91082 0.16290 1.09600
N 	N 	0.68950 0.76940 0.57300 -0.31700
C 	C 	0.65730 0.74570 0.67300 0.08900
H 	H 	0.65440 0.72020 0.71170 -0.11900
C 	C 	0.62710 0.75630 0.72500 -0.19000
H 	H 	0.60490 0.73820 0.79640 0.04600
C 	C 	0.63040 0.79340 0.67100 0.10300
C 	C 	0.66370 0.81820 0.56700 -0.17600
H 	H 	0.66740 0.84390 0.52590 0.07100
C 	C 	0.69230 0.80500 0.52100 0.08600
H 	H 	0.71480 0.82250 0.44930 -0.06200
C 	C 	0.60070 0.80820 0.72900 -0.03100
C 	C 	0.56370 0.78170 0.81800 -0.04200
H 	H 	0.55710 0.75400 0.84080 0.02300
C 	C 	0.53600 0.79520 0.87400 -0.05800
H 	H 	0.51140 0.77690 0.93310 0.03300
C 	C 	0.54590 0.83620 0.84000 -0.06000
C 	C 	0.58210 0.86370 0.75200 -0.07600
H 	H 	0.58850 0.89130 0.72920 -0.02300
C 	C 	0.60920 0.84930 0.69800 -0.05100
H 	H 	0.63370 0.86780 0.63850 0.00100
C 	C 	0.51630 0.85130 0.90200 0.06900
C 	C 	0.47450 0.82880 0.85300 -0.13700
H 	H 	0.46410 0.80400 0.78910 0.06600
C 	C 	0.44730 0.84480 0.90200 0.02700
H 	H 	0.41880 0.83060 0.87170 0.00600
C 	C 	0.46340 0.87980 0.99100 -0.10200
H 	H 	0.44620 0.89070 0.02410 0.03700
C 	C 	0.50490 0.90030 0.03500 0.02200
H 	H 	0.51550 0.92510 0.09860 -0.04900
N 	N 	0.53160 0.88630 0.99100 -0.27400
Cd	Cd	0.91082 0.31919 0.83710 1.09600
N 	N 	0.76940 0.07990 0.42700 -0.31700
C 	C 	0.74570 0.08840 0.32700 0.08900
H 	H 	0.72020 0.06580 0.28830 -0.11900
C 	C 	0.75630 0.12920 0.27500 -0.19000
H 	H 	0.73820 0.13330 0.20360 0.04600
C 	C 	0.79340 0.16300 0.32900 0.10300
C 	C 	0.81820 0.15450 0.43300 -0.17600
H 	H 	0.84390 0.17650 0.47410 0.07100
C 	C 	0.80500 0.11270 0.47900 0.08600
H 	H 	0.82250 0.10770 0.55070 -0.06200
C 	C 	0.80820 0.20750 0.27100 -0.03100
C 	C 	0.78170 0.21800 0.18200 -0.04200
H 	H 	0.75400 0.19690 0.15920 0.02300
C 	C 	0.79520 0.25920 0.12600 -0.05800
H 	H 	0.77690 0.26550 0.06690 0.03300
C 	C 	0.83620 0.29030 0.16000 -0.06000
C 	C 	0.86370 0.28160 0.24800 -0.07600
H 	H 	0.89130 0.30280 0.27080 -0.02300
C 	C 	0.84930 0.24010 0.30200 -0.05100
H 	H 	0.86780 0.23410 0.36150 0.00100
C 	C 	0.85130 0.33500 0.09800 0.06900
C 	C 	0.82880 0.35430 0.14700 -0.13700
H 	H 	0.80400 0.33990 0.21090 0.06600
C 	C 	0.84480 0.39750 0.09800 0.02700
H 	H 	0.83060 0.41180 0.12830 0.00600
C 	C 	0.87980 0.41640 0.00900 -0.10100
H 	H 	0.89070 0.44450 0.97590 0.03700
C 	C 	0.90030 0.39540 0.96500 0.02200
H 	H 	0.92510 0.40960 0.90140 -0.04900
N 	N 	0.88630 0.35470 0.00900 -0.27400
Cd	Cd	0.75585 0.01414 0.49623 1.09700
N 	N 	0.89727 0.25343 0.90633 -0.32200
C 	C 	0.92097 0.24493 0.00633 0.09800
H 	H 	0.94647 0.26753 0.04503 -0.12200
C 	C 	0.91037 0.20413 0.05833 -0.19900
H 	H 	0.92847 0.20003 0.12973 0.04900
C 	C 	0.87327 0.17033 0.00433 0.11500
C 	C 	0.84847 0.17883 0.90033 -0.18800
H 	H 	0.82277 0.15683 0.85923 0.07400
C 	C 	0.86167 0.22063 0.85433 0.09000
H 	H 	0.84417 0.22563 0.78263 -0.06500
C 	C 	0.85847 0.12583 0.06233 -0.03900
C 	C 	0.88497 0.11533 0.15133 -0.03800
H 	H 	0.91267 0.13643 0.17413 0.02100
C 	C 	0.87147 0.07413 0.20733 -0.06100
H 	H 	0.88977 0.06783 0.26643 0.03200
C 	C 	0.83047 0.04303 0.17333 -0.06100
C 	C 	0.80297 0.05173 0.08533 -0.08100
H 	H 	0.77537 0.03053 0.06253 -0.02100
C 	C 	0.81737 0.09323 0.03133 -0.04000
H 	H 	0.79887 0.09923 0.97183 -0.00500
C 	C 	0.81537 0.99833 0.23533 0.07700
C 	C 	0.83787 0.97903 0.18633 -0.16100
H 	H 	0.86267 0.99343 0.12243 0.07400
C 	C 	0.82187 0.93583 0.23533 0.06600
H 	H 	0.83607 0.92153 0.20503 -0.01000
C 	C 	0.78687 0.91693 0.32433 -0.16100
H 	H 	0.77597 0.88883 0.35743 0.06200
C 	C 	0.76637 0.93793 0.36833 0.06500
H 	H 	0.74157 0.92373 0.43193 -0.06300
N 	N 	0.78037 0.97863 0.32433 -0.28700
Cd	Cd	0.57749 0.65252 0.17043 1.09700
N 	N 	0.43607 0.41323 0.76033 -0.31700
C 	C 	0.41237 0.42173 0.66033 0.08800
H 	H 	0.38687 0.39913 0.62163 -0.11900
C 	C 	0.42297 0.46253 0.60833 -0.18900
H 	H 	0.40487 0.46663 0.53693 0.04500
C 	C 	0.46007 0.49633 0.66233 0.10100
C 	C 	0.48487 0.48783 0.76633 -0.17400
H 	H 	0.51057 0.50983 0.80743 0.07000
C 	C 	0.47167 0.44603 0.81233 0.08500
H 	H 	0.48917 0.44103 0.88403 -0.06200
C 	C 	0.47487 0.54083 0.60433 -0.02800
C 	C 	0.44837 0.55133 0.51533 -0.04700
H 	H 	0.42067 0.53023 0.49253 0.02300
C 	C 	0.46187 0.59253 0.45933 -0.05300
H 	H 	0.44357 0.59883 0.40023 0.02900
C 	C 	0.50287 0.62363 0.49333 -0.06800
C 	C 	0.53037 0.61493 0.58133 -0.07100
H 	H 	0.55797 0.63613 0.60413 -0.02400
C 	C 	0.51597 0.57343 0.63533 -0.05400
H 	H 	0.53447 0.56743 0.69483 0.00300
C 	C 	0.51797 0.66833 0.43133 0.07900
C 	C 	0.49547 0.68763 0.48033 -0.16300
H 	H 	0.47067 0.67323 0.54423 0.07500
C 	C 	0.51147 0.73083 0.43133 0.06800
H 	H 	0.49727 0.74513 0.46163 -0.01100
C 	C 	0.54647 0.74973 0.34233 -0.16200
H 	H 	0.55737 0.77783 0.30923 0.06100
C 	C 	0.56697 0.72873 0.29833 0.06500
H 	H 	0.59177 0.74293 0.23473 -0.06400
N 	N 	0.55297 0.68803 0.34233 -0.28700
Cd	Cd	0.42251 0.34748 0.82957 1.09700
N 	N 	0.56393 0.58677 0.23967 -0.31700
C 	C 	0.58763 0.57827 0.33967 0.08800
H 	H 	0.61313 0.60087 0.37837 -0.11900
C 	C 	0.57703 0.53747 0.39167 -0.18900
H 	H 	0.59513 0.53337 0.46307 0.04500
C 	C 	0.53993 0.50367 0.33767 0.10100
C 	C 	0.51513 0.51217 0.23367 -0.17400
H 	H 	0.48943 0.49017 0.19257 0.07000
C 	C 	0.52833 0.55397 0.18767 0.08500
H 	H 	0.51083 0.55897 0.11597 -0.06200
C 	C 	0.52513 0.45917 0.39567 -0.02800
C 	C 	0.55163 0.44867 0.48467 -0.04700
H 	H 	0.57933 0.46977 0.50747 0.02300
C 	C 	0.53813 0.40747 0.54067 -0.05300
H 	H 	0.55643 0.40117 0.59977 0.02900
C 	C 	0.49713 0.37637 0.50667 -0.06800
C 	C 	0.46963 0.38507 0.41867 -0.07100
H 	H 	0.44203 0.36387 0.39587 -0.02400
C 	C 	0.48403 0.42657 0.36467 -0.05400
H 	H 	0.46553 0.43257 0.30517 0.00300
C 	C 	0.48203 0.33167 0.56867 0.07900
C 	C 	0.50453 0.31237 0.51967 -0.16300
H 	H 	0.52933 0.32677 0.45577 0.07500
C 	C 	0.48853 0.26917 0.56867 0.06800
H 	H 	0.50273 0.25487 0.53837 -0.01100
C 	C 	0.45353 0.25027 0.65767 -0.16200
H 	H 	0.44263 0.22217 0.69077 0.06100
C 	C 	0.43303 0.27127 0.70167 0.06500
H 	H 	0.40823 0.25707 0.76527 -0.06400
N 	N 	0.44703 0.31197 0.65767 -0.28700
Cd	Cd	0.24415 0.98586 0.50377 1.09700
N 	N 	0.10273 0.74657 0.09367 -0.32200
C 	C 	0.07903 0.75507 0.99367 0.09800
H 	H 	0.05353 0.73247 0.95497 -0.12200
C 	C 	0.08963 0.79587 0.94167 -0.19900
H 	H 	0.07153 0.79997 0.87027 0.04900
C 	C 	0.12673 0.82967 0.99567 0.11500
C 	C 	0.15153 0.82117 0.09967 -0.18800
H 	H 	0.17723 0.84317 0.14077 0.07400
C 	C 	0.13833 0.77937 0.14567 0.09000
H 	H 	0.15583 0.77437 0.21737 -0.06500
C 	C 	0.14153 0.87417 0.93767 -0.03900
C 	C 	0.11503 0.88467 0.84867 -0.03800
H 	H 	0.08733 0.86357 0.82587 0.02100
C 	C 	0.12853 0.92587 0.79267 -0.06100
H 	H 	0.11023 0.93217 0.73357 0.03200
C 	C 	0.16953 0.95697 0.82667 -0.06100
C 	C 	0.19703 0.94827 0.91467 -0.08100
H 	H 	0.22463 0.96947 0.93747 -0.02100
C 	C 	0.18263 0.90677 0.96867 -0.04000
H 	H 	0.20113 0.90077 0.02817 -0.00500
C 	C 	0.18463 0.00167 0.76467 0.07700
C 	C 	0.16213 0.02097 0.81367 -0.16100
H 	H 	0.13733 0.00657 0.87757 0.07400
C 	C 	0.17813 0.06417 0.76467 0.06600
H 	H 	0.16393 0.07847 0.79497 -0.01000
C 	C 	0.21313 0.08307 0.67567 -0.16100
H 	H 	0.22403 0.11117 0.64257 0.06200
C 	C 	0.23363 0.06207 0.63167 0.06500
H 	H 	0.25843 0.07627 0.56807 -0.06300
N 	N 	0.21963 0.02137 0.67567 -0.28700
Cd	Cd	0.08918 0.68081 0.16290 1.09600
N 	N 	0.23060 0.92010 0.57300 -0.31700
C 	C 	0.25430 0.91160 0.67300 0.08900
H 	H 	0.27980 0.93420 0.71170 -0.11900
C 	C 	0.24370 0.87080 0.72500 -0.19000
H 	H 	0.26180 0.86670 0.79640 0.04600
C 	C 	0.20660 0.83700 0.67100 0.10300
C 	C 	0.18180 0.84550 0.56700 -0.17600
H 	H 	0.15610 0.82350 0.52590 0.07100
C 	C 	0.19500 0.88730 0.52100 0.08600
H 	H 	0.17750 0.89230 0.44930 -0.06200
C 	C 	0.19180 0.79250 0.72900 -0.03100
C 	C 	0.21830 0.78200 0.81800 -0.04200
H 	H 	0.24600 0.80310 0.84080 0.02300
C 	C 	0.20480 0.74080 0.87400 -0.05800
H 	H 	0.22310 0.73450 0.93310 0.03300
C 	C 	0.16380 0.70970 0.84000 -0.06000
C 	C 	0.13630 0.71840 0.75200 -0.07600
H 	H 	0.10870 0.69720 0.72920 -0.02300
C 	C 	0.15070 0.75990 0.69800 -0.05100
H 	H 	0.13220 0.76590 0.63850 0.00100
C 	C 	0.14870 0.66500 0.90200 0.06900
C 	C 	0.17120 0.64570 0.85300 -0.13700
H 	H 	0.19600 0.66010 0.78910 0.06600
C 	C 	0.15520 0.60250 0.90200 0.02700
H 	H 	0.16940 0.58820 0.87170 0.00600
C 	C 	0.12020 0.58360 0.99100 -0.10100
H 	H 	0.10930 0.55550 0.02410 0.03700
C 	C 	0.09970 0.60460 0.03500 0.02200
H 	H 	0.07490 0.59040 0.09860 -0.04900
N 	N 	0.11370 0.64530 0.99100 -0.27400
Cd	Cd	0.68081 0.59163 0.83710 1.09600
N 	N 	0.92010 0.68950 0.42700 -0.31700
C 	C 	0.91160 0.65730 0.32700 0.08900
H 	H 	0.93420 0.65440 0.28830 -0.11900
C 	C 	0.87080 0.62710 0.27500 -0.19000
H 	H 	0.86670 0.60490 0.20360 0.04600
C 	C 	0.83700 0.63040 0.32900 0.10300
C 	C 	0.84550 0.66370 0.43300 -0.17600
H 	H 	0.82350 0.66740 0.47410 0.07100
C 	C 	0.88730 0.69230 0.47900 0.08600
H 	H 	0.89230 0.71480 0.55070 -0.06200
C 	C 	0.79250 0.60070 0.27100 -0.03100
C 	C 	0.78200 0.56370 0.18200 -0.04200
H 	H 	0.80310 0.55710 0.15920 0.02300
C 	C 	0.74080 0.53600 0.12600 -0.05800
H 	H 	0.73450 0.51140 0.06690 0.03300
C 	C 	0.70970 0.54590 0.16000 -0.06100
C 	C 	0.71840 0.58210 0.24800 -0.07600
H 	H 	0.69720 0.58850 0.27080 -0.02300
C 	C 	0.75990 0.60920 0.30200 -0.05100
H 	H 	0.76590 0.63370 0.36150 0.00100
C 	C 	0.66500 0.51630 0.09800 0.06900
C 	C 	0.64570 0.47450 0.14700 -0.13800
H 	H 	0.66010 0.46410 0.21090 0.06700
C 	C 	0.60250 0.44730 0.09800 0.02900
H 	H 	0.58820 0.41880 0.12830 0.00500
C 	C 	0.58360 0.46340 0.00900 -0.10400
H 	H 	0.55550 0.44620 0.97590 0.03800
C 	C 	0.60460 0.50490 0.96500 0.02400
H 	H 	0.59040 0.51550 0.90140 -0.04900
N 	N 	0.64530 0.53160 0.00900 -0.27500
Cd	Cd	0.98586 0.74170 0.49623 1.09700
N 	N 	0.74657 0.64383 0.90633 -0.32100
C 	C 	0.75507 0.67603 0.00633 0.09700
H 	H 	0.73247 0.67893 0.04503 -0.12200
C 	C 	0.79587 0.70623 0.05833 -0.19800
H 	H 	0.79997 0.72843 0.12973 0.04800
C 	C 	0.82967 0.70293 0.00433 0.11400
C 	C 	0.82117 0.66963 0.90033 -0.18700
H 	H 	0.84317 0.66593 0.85923 0.07400
C 	C 	0.77937 0.64103 0.85433 0.09000
H 	H 	0.77437 0.61853 0.78263 -0.06400
C 	C 	0.87417 0.73263 0.06233 -0.03800
C 	C 	0.88467 0.76963 0.15133 -0.03900
H 	H 	0.86357 0.77623 0.17413 0.02100
C 	C 	0.92587 0.79733 0.20733 -0.06000
H 	H 	0.93217 0.82193 0.26643 0.03200
C 	C 	0.95697 0.78743 0.17333 -0.06200
C 	C 	0.94827 0.75123 0.08533 -0.08000
H 	H 	0.96947 0.74483 0.06253 -0.02100
C 	C 	0.90677 0.72413 0.03133 -0.04100
H 	H 	0.90077 0.69963 0.97183 -0.00400
C 	C 	0.00167 0.81703 0.23533 0.07700
C 	C 	0.02097 0.85883 0.18633 -0.16100
H 	H 	0.00657 0.86923 0.12243 0.07400
C 	C 	0.06417 0.88603 0.23533 0.06700
H 	H 	0.07847 0.91453 0.20503 -0.01000
C 	C 	0.08307 0.86993 0.32433 -0.16100
H 	H 	0.11117 0.88713 0.35743 0.06200
C 	C 	0.06207 0.82843 0.36833 0.06500
H 	H 	0.07627 0.81783 0.43193 -0.06300
N 	N 	0.02137 0.80173 0.32433 -0.28700
Cd	Cd	0.34748 0.92496 0.17043 1.09700
N 	N 	0.58677 0.02283 0.76033 -0.31700
C 	C 	0.57827 0.99063 0.66033 0.08800
H 	H 	0.60087 0.98773 0.62163 -0.11900
C 	C 	0.53747 0.96043 0.60833 -0.18800
H 	H 	0.53337 0.93823 0.53693 0.04400
C 	C 	0.50367 0.96373 0.66233 0.10000
C 	C 	0.51217 0.99703 0.76633 -0.17300
H 	H 	0.49017 0.00073 0.80743 0.06900
C 	C 	0.55397 0.02563 0.81233 0.08400
H 	H 	0.55897 0.04813 0.88403 -0.06200
C 	C 	0.45917 0.93403 0.60433 -0.02800
C 	C 	0.44867 0.89703 0.51533 -0.04700
H 	H 	0.46977 0.89043 0.49253 0.02400
C 	C 	0.40747 0.86933 0.45933 -0.05300
H 	H 	0.40117 0.84473 0.40023 0.02900
C 	C 	0.37637 0.87923 0.49333 -0.06800
C 	C 	0.38507 0.91543 0.58133 -0.07100
H 	H 	0.36387 0.92183 0.60413 -0.02400
C 	C 	0.42657 0.94253 0.63533 -0.05400
H 	H 	0.43257 0.96703 0.69483 0.00300
C 	C 	0.33167 0.84963 0.43133 0.08000
C 	C 	0.31237 0.80783 0.48033 -0.16300
H 	H 	0.32677 0.79743 0.54423 0.07500
C 	C 	0.26917 0.78063 0.43133 0.06800
H 	H 	0.25487 0.75213 0.46163 -0.01100
C 	C 	0.25027 0.79673 0.34233 -0.16300
H 	H 	0.22217 0.77953 0.30923 0.06100
C 	C 	0.27127 0.83823 0.29833 0.06500
H 	H 	0.25707 0.84883 0.23473 -0.06400
N 	N 	0.31197 0.86493 0.34233 -0.28800
Cd	Cd	0.65252 0.07504 0.82957 1.09700
N 	N 	0.41323 0.97717 0.23967 -0.31700
C 	C 	0.42173 0.00937 0.33967 0.08800
H 	H 	0.39913 0.01227 0.37837 -0.11900
C 	C 	0.46253 0.03957 0.39167 -0.18800
H 	H 	0.46663 0.06177 0.46307 0.04400
C 	C 	0.49633 0.03627 0.33767 0.10000
C 	C 	0.48783 0.00297 0.23367 -0.17300
H 	H 	0.50983 0.99927 0.19257 0.06900
C 	C 	0.44603 0.97437 0.18767 0.08400
H 	H 	0.44103 0.95187 0.11597 -0.06200
C 	C 	0.54083 0.06597 0.39567 -0.02800
C 	C 	0.55133 0.10297 0.48467 -0.04700
H 	H 	0.53023 0.10957 0.50747 0.02400
C 	C 	0.59253 0.13067 0.54067 -0.05300
H 	H 	0.59883 0.15527 0.59977 0.02900
C 	C 	0.62363 0.12077 0.50667 -0.06800
C 	C 	0.61493 0.08457 0.41867 -0.07100
H 	H 	0.63613 0.07817 0.39587 -0.02400
C 	C 	0.57343 0.05747 0.36467 -0.05400
H 	H 	0.56743 0.03297 0.30517 0.00300
C 	C 	0.66833 0.15037 0.56867 0.08000
C 	C 	0.68763 0.19217 0.51967 -0.16300
H 	H 	0.67323 0.20257 0.45577 0.07500
C 	C 	0.73083 0.21937 0.56867 0.06800
H 	H 	0.74513 0.24787 0.53837 -0.01100
C 	C 	0.74973 0.20327 0.65767 -0.16300
H 	H 	0.77783 0.22047 0.69077 0.06100
C 	C 	0.72873 0.16177 0.70167 0.06500
H 	H 	0.74293 0.15117 0.76527 -0.06400
N 	N 	0.68803 0.13507 0.65767 -0.28800
Cd	Cd	0.01414 0.25830 0.50377 1.09700
N 	N 	0.25343 0.35617 0.09367 -0.32100
C 	C 	0.24493 0.32397 0.99367 0.09700
H 	H 	0.26753 0.32107 0.95497 -0.12200
C 	C 	0.20413 0.29377 0.94167 -0.19800
H 	H 	0.20003 0.27157 0.87027 0.04800
C 	C 	0.17033 0.29707 0.99567 0.11400
C 	C 	0.17883 0.33037 0.09967 -0.18700
H 	H 	0.15683 0.33407 0.14077 0.07400
C 	C 	0.22063 0.35897 0.14567 0.09000
H 	H 	0.22563 0.38147 0.21737 -0.06400
C 	C 	0.12583 0.26737 0.93767 -0.03800
C 	C 	0.11533 0.23037 0.84867 -0.03900
H 	H 	0.13643 0.22377 0.82587 0.02100
C 	C 	0.07413 0.20267 0.79267 -0.06000
H 	H 	0.06783 0.17807 0.73357 0.03200
C 	C 	0.04303 0.21257 0.82667 -0.06200
C 	C 	0.05173 0.24877 0.91467 -0.08000
H 	H 	0.03053 0.25517 0.93747 -0.02100
C 	C 	0.09323 0.27587 0.96867 -0.04100
H 	H 	0.09923 0.30037 0.02817 -0.00400
C 	C 	0.99833 0.18297 0.76467 0.07700
C 	C 	0.97903 0.14117 0.81367 -0.16100
H 	H 	0.99343 0.13077 0.87757 0.07400
C 	C 	0.93583 0.11397 0.76467 0.06700
H 	H 	0.92153 0.08547 0.79497 -0.01000
C 	C 	0.91693 0.13007 0.67567 -0.16100
H 	H 	0.88883 0.11287 0.64257 0.06200
C 	C 	0.93793 0.17157 0.63167 0.06500
H 	H 	0.92373 0.18217 0.56807 -0.06300
N 	N 	0.97863 0.19827 0.67567 -0.28700
Cd	Cd	0.31919 0.40837 0.16290 1.09600
N 	N 	0.07990 0.31050 0.57300 -0.31700
C 	C 	0.08840 0.34270 0.67300 0.08900
H 	H 	0.06580 0.34560 0.71170 -0.11900
C 	C 	0.12920 0.37290 0.72500 -0.19000
H 	H 	0.13330 0.39510 0.79640 0.04600
C 	C 	0.16300 0.36960 0.67100 0.10300
C 	C 	0.15450 0.33630 0.56700 -0.17600
H 	H 	0.17650 0.33260 0.52590 0.07100
C 	C 	0.11270 0.30770 0.52100 0.08600
H 	H 	0.10770 0.28520 0.44930 -0.06200
C 	C 	0.20750 0.39930 0.72900 -0.03100
C 	C 	0.21800 0.43630 0.81800 -0.04200
H 	H 	0.19690 0.44290 0.84080 0.02300
C 	C 	0.25920 0.46400 0.87400 -0.05800
H 	H 	0.26550 0.48860 0.93310 0.03300
C 	C 	0.29030 0.45410 0.84000 -0.06100
C 	C 	0.28160 0.41790 0.75200 -0.07600
H 	H 	0.30280 0.41150 0.72920 -0.02300
C 	C 	0.24010 0.39080 0.69800 -0.05100
H 	H 	0.23410 0.36630 0.63850 0.00100
C 	C 	0.33500 0.48370 0.90200 0.06900
C 	C 	0.35430 0.52550 0.85300 -0.13800
H 	H 	0.33990 0.53590 0.78910 0.06700
C 	C 	0.39750 0.55270 0.90200 0.02900
H 	H 	0.41180 0.58120 0.87170 0.00500
C 	C 	0.41640 0.53660 0.99100 -0.10400
H 	H 	0.44450 0.55380 0.02410 0.03800
C 	C 	0.39540 0.49510 0.03500 0.02400
H 	H 	0.40960 0.48450 0.09860 -0.04900
N 	N 	0.35470 0.46840 0.99100 -0.27500
