data_crystal

_cell_length_a 36.47500
_cell_length_b 36.47500
_cell_length_c 7.57000
_cell_angle_alpha 90.00000
_cell_angle_beta  90.00000
_cell_angle_gamma 120.00000

_symmetry_space_group_name_	'P 1'
_symmetry_space_group_name_H-M	'P 1'

loop_
_symmetry_equiv_pos_as_xyz
  x,y,z

loop_
_atom_site_label
_atom_site_type_symbol
_atom_site_fract_x
_atom_site_fract_y
_atom_site_fract_z
_atom_site_charge
Cd	Cd	0.25808 0.01367 0.49479 1.10100
C 	C 	0.41810 0.28090 0.24820 -0.06400
H 	H 	0.41130 0.30250 0.27050 -0.03000
C 	C 	0.45520 0.29090 0.16030 -0.06700
C 	C 	0.39060 0.23980 0.30400 -0.06100
H 	H 	0.36540 0.23370 0.36480 0.00600
C 	C 	0.36970 0.16360 0.33070 0.07100
C 	C 	0.39950 0.20760 0.27260 -0.01200
C 	C 	0.33520 0.15400 0.43730 -0.13700
H 	H 	0.33090 0.17600 0.48030 0.05900
N 	N 	0.31037 0.07952 0.42590 -0.30300
C 	C 	0.43700 0.21740 0.18700 -0.05200
H 	H 	0.44360 0.19570 0.16570 0.02900
C 	C 	0.46510 0.25870 0.13170 -0.04500
H 	H 	0.49080 0.26500 0.07490 0.03100
C 	C 	0.34340 0.08840 0.32450 0.06100
H 	H 	0.34670 0.06560 0.28370 -0.11100
C 	C 	0.30670 0.11210 0.48200 0.05700
H 	H 	0.28340 0.10650 0.55620 -0.05000
C 	C 	0.48510 0.33520 0.10540 0.05800
N 	N 	0.46820 0.35494 0.01140 -0.26800
C 	C 	0.52710 0.35520 0.14890 -0.11500
H 	H 	0.53770 0.34020 0.21420 0.05700
C 	C 	0.55420 0.39650 0.09930 0.00300
H 	H 	0.58340 0.41060 0.12990 0.01500
C 	C 	0.53730 0.41700 0.00290 -0.07100
H 	H 	0.55490 0.44530 0.96480 0.02700
C 	C 	0.49470 0.39570 0.96300 -0.00100
H 	H 	0.48350 0.41030 0.89900 -0.04000
C 	C 	0.37330 0.12920 0.27490 -0.15300
H 	H 	0.39640 0.13360 0.20240 0.03100
Cd	Cd	0.40859 0.31966 0.83854 1.09800
C 	C 	0.24857 0.05243 0.08513 -0.07000
H 	H 	0.25537 0.03083 0.06283 -0.03000
C 	C 	0.21147 0.04243 0.17303 -0.06800
C 	C 	0.27607 0.09353 0.02933 -0.05200
H 	H 	0.30127 0.09963 0.96853 -0.00000
C 	C 	0.29697 0.16973 0.00263 0.08000
C 	C 	0.26717 0.12573 0.06073 -0.02000
C 	C 	0.33147 0.17933 0.89603 -0.14900
H 	H 	0.33577 0.15733 0.85303 0.06000
N 	N 	0.35630 0.25381 0.90743 -0.30800
C 	C 	0.22967 0.11593 0.14633 -0.05000
H 	H 	0.22307 0.13763 0.16763 0.02600
C 	C 	0.20157 0.07463 0.20163 -0.04900
H 	H 	0.17587 0.06833 0.25843 0.02900
C 	C 	0.32327 0.24493 0.00883 0.06800
H 	H 	0.31997 0.26773 0.04963 -0.11300
C 	C 	0.35997 0.22123 0.85133 0.06000
H 	H 	0.38327 0.22683 0.77713 -0.05200
C 	C 	0.18157 0.99813 0.22793 0.06200
N 	N 	0.19847 0.97839 0.32193 -0.27700
C 	C 	0.13957 0.97813 0.18443 -0.12900
H 	H 	0.12897 0.99313 0.11913 0.06100
C 	C 	0.11247 0.93683 0.23403 0.02500
H 	H 	0.08327 0.92273 0.20343 0.00600
C 	C 	0.12937 0.91633 0.33043 -0.11100
H 	H 	0.11177 0.88803 0.36853 0.04400
C 	C 	0.17197 0.93763 0.37033 0.03000
H 	H 	0.18317 0.92303 0.43433 -0.04900
C 	C 	0.29337 0.20413 0.05843 -0.16000
H 	H 	0.27027 0.19973 0.13093 0.03200
Cd	Cd	0.92475 0.34700 0.82812 1.09900
C 	C 	0.08477 0.61423 0.58153 -0.06200
H 	H 	0.07797 0.63583 0.60383 -0.03200
C 	C 	0.12187 0.62423 0.49363 -0.07300
C 	C 	0.05727 0.57313 0.63733 -0.06400
H 	H 	0.03207 0.56703 0.69813 0.00600
C 	C 	0.03637 0.49693 0.66403 0.06900
C 	C 	0.06617 0.54093 0.60593 -0.01100
C 	C 	0.00187 0.48733 0.77063 -0.13600
H 	H 	0.99757 0.50933 0.81363 0.05700
N 	N 	0.97704 0.41285 0.75923 -0.30400
C 	C 	0.10367 0.55073 0.52033 -0.05600
H 	H 	0.11027 0.52903 0.49903 0.02800
C 	C 	0.13177 0.59203 0.46503 -0.04400
H 	H 	0.15747 0.59833 0.40823 0.02600
C 	C 	0.01007 0.42173 0.65783 0.06000
H 	H 	0.01337 0.39893 0.61703 -0.11100
C 	C 	0.97337 0.44543 0.81533 0.05600
H 	H 	0.95007 0.43983 0.88953 -0.05000
C 	C 	0.15177 0.66853 0.43873 0.06300
N 	N 	0.13487 0.68827 0.34473 -0.27800
C 	C 	0.19377 0.68853 0.48223 -0.13100
H 	H 	0.20437 0.67353 0.54753 0.06200
C 	C 	0.22087 0.72983 0.43263 0.02500
H 	H 	0.25007 0.74393 0.46323 0.00500
C 	C 	0.20397 0.75033 0.33623 -0.11200
H 	H 	0.22157 0.77863 0.29813 0.04400
C 	C 	0.16137 0.72903 0.29633 0.03000
H 	H 	0.15017 0.74363 0.23233 -0.05000
C 	C 	0.03997 0.46253 0.60823 -0.15200
H 	H 	0.06307 0.46693 0.53573 0.02900
Cd	Cd	0.07525 0.65300 0.17188 1.09900
C 	C 	0.91523 0.38577 0.41847 -0.06200
H 	H 	0.92203 0.36417 0.39617 -0.03200
C 	C 	0.87813 0.37577 0.50637 -0.07300
C 	C 	0.94273 0.42687 0.36267 -0.06400
H 	H 	0.96793 0.43297 0.30187 0.00600
C 	C 	0.96363 0.50307 0.33597 0.06900
C 	C 	0.93383 0.45907 0.39407 -0.01100
C 	C 	0.99813 0.51267 0.22937 -0.13600
H 	H 	0.00243 0.49067 0.18637 0.05700
N 	N 	0.02296 0.58715 0.24077 -0.30400
C 	C 	0.89633 0.44927 0.47967 -0.05600
H 	H 	0.88973 0.47097 0.50097 0.02800
C 	C 	0.86823 0.40797 0.53497 -0.04400
H 	H 	0.84253 0.40167 0.59177 0.02600
C 	C 	0.98993 0.57827 0.34217 0.06000
H 	H 	0.98663 0.60107 0.38297 -0.11100
C 	C 	0.02663 0.55457 0.18467 0.05600
H 	H 	0.04993 0.56017 0.11047 -0.05000
C 	C 	0.84823 0.33147 0.56127 0.06300
N 	N 	0.86513 0.31173 0.65527 -0.27800
C 	C 	0.80623 0.31147 0.51777 -0.13100
H 	H 	0.79563 0.32647 0.45247 0.06200
C 	C 	0.77913 0.27017 0.56737 0.02500
H 	H 	0.74993 0.25607 0.53677 0.00500
C 	C 	0.79603 0.24967 0.66377 -0.11200
H 	H 	0.77843 0.22137 0.70187 0.04400
C 	C 	0.83863 0.27097 0.70367 0.03000
H 	H 	0.84983 0.25637 0.76767 -0.05000
C 	C 	0.96003 0.53747 0.39177 -0.15200
H 	H 	0.93693 0.53307 0.46427 0.02900
Cd	Cd	0.59141 0.68034 0.16146 1.09800
C 	C 	0.75143 0.94757 0.91487 -0.07000
H 	H 	0.74463 0.96917 0.93717 -0.03000
C 	C 	0.78853 0.95757 0.82697 -0.06800
C 	C 	0.72393 0.90647 0.97067 -0.05200
H 	H 	0.69873 0.90037 0.03147 -0.00000
C 	C 	0.70303 0.83027 0.99737 0.08000
C 	C 	0.73283 0.87427 0.93927 -0.02000
C 	C 	0.66853 0.82067 0.10397 -0.14900
H 	H 	0.66423 0.84267 0.14697 0.06000
N 	N 	0.64370 0.74619 0.09257 -0.30800
C 	C 	0.77033 0.88407 0.85367 -0.05000
H 	H 	0.77693 0.86237 0.83237 0.02600
C 	C 	0.79843 0.92537 0.79837 -0.04900
H 	H 	0.82413 0.93167 0.74157 0.02900
C 	C 	0.67673 0.75507 0.99117 0.06800
H 	H 	0.68003 0.73227 0.95037 -0.11300
C 	C 	0.64003 0.77877 0.14867 0.06000
H 	H 	0.61673 0.77317 0.22287 -0.05200
C 	C 	0.81843 0.00187 0.77207 0.06200
N 	N 	0.80153 0.02161 0.67807 -0.27700
C 	C 	0.86043 0.02187 0.81557 -0.12900
H 	H 	0.87103 0.00687 0.88087 0.06100
C 	C 	0.88753 0.06317 0.76597 0.02500
H 	H 	0.91673 0.07727 0.79657 0.00600
C 	C 	0.87063 0.08367 0.66957 -0.11100
H 	H 	0.88823 0.11197 0.63147 0.04400
C 	C 	0.82803 0.06237 0.62967 0.03000
H 	H 	0.81683 0.07697 0.56567 -0.04900
C 	C 	0.70663 0.79587 0.94157 -0.16000
H 	H 	0.72973 0.80027 0.86907 0.03200
Cd	Cd	0.74192 0.98633 0.50521 1.10000
C 	C 	0.58190 0.71910 0.75180 -0.06500
H 	H 	0.58870 0.69750 0.72950 -0.03100
C 	C 	0.54480 0.70910 0.83970 -0.06800
C 	C 	0.60940 0.76020 0.69600 -0.06200
H 	H 	0.63460 0.76630 0.63520 0.00500
C 	C 	0.63030 0.83640 0.66930 0.07000
C 	C 	0.60050 0.79240 0.72740 -0.01300
C 	C 	0.66480 0.84600 0.56270 -0.13800
H 	H 	0.66910 0.82400 0.51970 0.05800
N 	N 	0.68963 0.92048 0.57410 -0.30400
C 	C 	0.56300 0.78260 0.81300 -0.05300
H 	H 	0.55640 0.80430 0.83430 0.02800
C 	C 	0.53490 0.74130 0.86830 -0.04600
H 	H 	0.50920 0.73500 0.92510 0.03000
C 	C 	0.65660 0.91160 0.67550 0.06000
H 	H 	0.65330 0.93440 0.71630 -0.11100
C 	C 	0.69330 0.88790 0.51800 0.05700
H 	H 	0.71660 0.89350 0.44380 -0.05000
C 	C 	0.51490 0.66480 0.89460 0.05800
N 	N 	0.53180 0.64506 0.98860 -0.26800
C 	C 	0.47290 0.64480 0.85110 -0.11500
H 	H 	0.46230 0.65980 0.78580 0.05700
C 	C 	0.44580 0.60350 0.90070 0.00300
H 	H 	0.41660 0.58940 0.87010 0.01500
C 	C 	0.46270 0.58300 0.99710 -0.07100
H 	H 	0.44510 0.55470 0.03520 0.02700
C 	C 	0.50530 0.60430 0.03700 -0.00100
H 	H 	0.51650 0.58970 0.10100 -0.04000
C 	C 	0.62670 0.87080 0.72510 -0.15300
H 	H 	0.60360 0.86640 0.79760 0.03100
Cd	Cd	0.98633 0.24441 0.49479 1.10000
C 	C 	0.71910 0.13720 0.24820 -0.06500
H 	H 	0.69750 0.10880 0.27050 -0.03100
C 	C 	0.70910 0.16430 0.16030 -0.06800
C 	C 	0.76020 0.15080 0.30400 -0.06200
H 	H 	0.76630 0.13170 0.36480 0.00500
C 	C 	0.83640 0.20610 0.33070 0.07000
C 	C 	0.79240 0.19190 0.27260 -0.01300
C 	C 	0.84600 0.18120 0.43730 -0.13800
H 	H 	0.82400 0.15490 0.48030 0.05800
N 	N 	0.92048 0.23085 0.42590 -0.30400
C 	C 	0.78260 0.21960 0.18700 -0.05300
H 	H 	0.80430 0.24790 0.16570 0.02800
C 	C 	0.74130 0.20640 0.13170 -0.04600
H 	H 	0.73500 0.22580 0.07490 0.03000
C 	C 	0.91160 0.25500 0.32450 0.06000
H 	H 	0.93440 0.28110 0.28370 -0.11000
C 	C 	0.88790 0.19460 0.48200 0.05700
H 	H 	0.89350 0.17690 0.55620 -0.05000
C 	C 	0.66480 0.14990 0.10540 0.05700
N 	N 	0.64506 0.11326 0.01140 -0.26800
C 	C 	0.64480 0.17190 0.14890 -0.11500
H 	H 	0.65980 0.19750 0.21420 0.05700
C 	C 	0.60350 0.15770 0.09930 0.00300
H 	H 	0.58940 0.17280 0.12990 0.01500
C 	C 	0.58300 0.12030 0.00290 -0.07000
H 	H 	0.55470 0.10960 0.96480 0.02600
C 	C 	0.60430 0.09900 0.96300 -0.00200
H 	H 	0.58970 0.07320 0.89900 -0.03900
C 	C 	0.87080 0.24410 0.27490 -0.15300
H 	H 	0.86640 0.26280 0.20240 0.03100
Cd	Cd	0.68034 0.08892 0.83854 1.09800
C 	C 	0.94757 0.19613 0.08513 -0.07100
H 	H 	0.96917 0.22453 0.06283 -0.02900
C 	C 	0.95757 0.16903 0.17303 -0.06800
C 	C 	0.90647 0.18253 0.02933 -0.05100
H 	H 	0.90037 0.20163 0.96853 -0.00100
C 	C 	0.83027 0.12723 0.00263 0.08100
C 	C 	0.87427 0.14143 0.06073 -0.02000
C 	C 	0.82067 0.15213 0.89603 -0.14900
H 	H 	0.84267 0.17843 0.85303 0.06100
N 	N 	0.74619 0.10248 0.90743 -0.30800
C 	C 	0.88407 0.11373 0.14633 -0.04900
H 	H 	0.86237 0.08543 0.16763 0.02600
C 	C 	0.92537 0.12693 0.20163 -0.04900
H 	H 	0.93167 0.10753 0.25843 0.02900
C 	C 	0.75507 0.07833 0.00883 0.06900
H 	H 	0.73227 0.05223 0.04963 -0.11300
C 	C 	0.77877 0.13873 0.85133 0.06100
H 	H 	0.77317 0.15643 0.77713 -0.05200
C 	C 	0.00187 0.18343 0.22793 0.06100
N 	N 	0.02161 0.22007 0.32193 -0.27700
C 	C 	0.02187 0.16143 0.18443 -0.12900
H 	H 	0.00687 0.13583 0.11913 0.06100
C 	C 	0.06317 0.17563 0.23403 0.02400
H 	H 	0.07727 0.16053 0.20343 0.00600
C 	C 	0.08367 0.21303 0.33043 -0.11100
H 	H 	0.11197 0.22373 0.36853 0.04400
C 	C 	0.06237 0.23433 0.37033 0.03000
H 	H 	0.07697 0.26013 0.43433 -0.04900
C 	C 	0.79587 0.08923 0.05843 -0.16000
H 	H 	0.80027 0.07053 0.13093 0.03200
Cd	Cd	0.65300 0.57774 0.82812 1.09900
C 	C 	0.38577 0.47053 0.58153 -0.06200
H 	H 	0.36417 0.44213 0.60383 -0.03200
C 	C 	0.37577 0.49763 0.49363 -0.07300
C 	C 	0.42687 0.48413 0.63733 -0.06400
H 	H 	0.43297 0.46503 0.69813 0.00600
C 	C 	0.50307 0.53943 0.66403 0.06900
C 	C 	0.45907 0.52523 0.60593 -0.01100
C 	C 	0.51267 0.51453 0.77063 -0.13700
H 	H 	0.49067 0.48823 0.81363 0.05700
N 	N 	0.58715 0.56418 0.75923 -0.30400
C 	C 	0.44927 0.55293 0.52033 -0.05600
H 	H 	0.47097 0.58123 0.49903 0.02800
C 	C 	0.40797 0.53973 0.46503 -0.04400
H 	H 	0.40167 0.55913 0.40823 0.02600
C 	C 	0.57827 0.58833 0.65783 0.06000
H 	H 	0.60107 0.61443 0.61703 -0.11100
C 	C 	0.55457 0.52793 0.81533 0.05700
H 	H 	0.56017 0.51023 0.88953 -0.05000
C 	C 	0.33147 0.48323 0.43873 0.06300
N 	N 	0.31173 0.44659 0.34473 -0.27800
C 	C 	0.31147 0.50523 0.48223 -0.13100
H 	H 	0.32647 0.53083 0.54753 0.06200
C 	C 	0.27017 0.49103 0.43263 0.02500
H 	H 	0.25607 0.50613 0.46323 0.00500
C 	C 	0.24967 0.45363 0.33623 -0.11200
H 	H 	0.22137 0.44293 0.29813 0.04400
C 	C 	0.27097 0.43233 0.29633 0.03000
H 	H 	0.25637 0.40653 0.23233 -0.05000
C 	C 	0.53747 0.57743 0.60823 -0.15200
H 	H 	0.53307 0.59613 0.53573 0.02900
Cd	Cd	0.34700 0.42226 0.17188 1.09900
C 	C 	0.61423 0.52947 0.41847 -0.06200
H 	H 	0.63583 0.55787 0.39617 -0.03200
C 	C 	0.62423 0.50237 0.50637 -0.07300
C 	C 	0.57313 0.51587 0.36267 -0.06400
H 	H 	0.56703 0.53497 0.30187 0.00600
C 	C 	0.49693 0.46057 0.33597 0.06900
C 	C 	0.54093 0.47477 0.39407 -0.01100
C 	C 	0.48733 0.48547 0.22937 -0.13700
H 	H 	0.50933 0.51177 0.18637 0.05700
N 	N 	0.41285 0.43582 0.24077 -0.30400
C 	C 	0.55073 0.44707 0.47967 -0.05600
H 	H 	0.52903 0.41877 0.50097 0.02800
C 	C 	0.59203 0.46027 0.53497 -0.04400
H 	H 	0.59833 0.44087 0.59177 0.02600
C 	C 	0.42173 0.41167 0.34217 0.06000
H 	H 	0.39893 0.38557 0.38297 -0.11100
C 	C 	0.44543 0.47207 0.18467 0.05700
H 	H 	0.43983 0.48977 0.11047 -0.05000
C 	C 	0.66853 0.51677 0.56127 0.06300
N 	N 	0.68827 0.55341 0.65527 -0.27800
C 	C 	0.68853 0.49477 0.51777 -0.13100
H 	H 	0.67353 0.46917 0.45247 0.06200
C 	C 	0.72983 0.50897 0.56737 0.02500
H 	H 	0.74393 0.49387 0.53677 0.00500
C 	C 	0.75033 0.54637 0.66377 -0.11200
H 	H 	0.77863 0.55707 0.70187 0.04400
C 	C 	0.72903 0.56767 0.70367 0.03000
H 	H 	0.74363 0.59347 0.76767 -0.05000
C 	C 	0.46253 0.42257 0.39177 -0.15200
H 	H 	0.46693 0.40387 0.46427 0.02900
Cd	Cd	0.31966 0.91108 0.16146 1.09800
C 	C 	0.05243 0.80387 0.91487 -0.07100
H 	H 	0.03083 0.77547 0.93717 -0.02900
C 	C 	0.04243 0.83097 0.82697 -0.06800
C 	C 	0.09353 0.81747 0.97067 -0.05100
H 	H 	0.09963 0.79837 0.03147 -0.00100
C 	C 	0.16973 0.87277 0.99737 0.08100
C 	C 	0.12573 0.85857 0.93927 -0.02000
C 	C 	0.17933 0.84787 0.10397 -0.14900
H 	H 	0.15733 0.82157 0.14697 0.06100
N 	N 	0.25381 0.89752 0.09257 -0.30800
C 	C 	0.11593 0.88627 0.85367 -0.04900
H 	H 	0.13763 0.91457 0.83237 0.02600
C 	C 	0.07463 0.87307 0.79837 -0.04900
H 	H 	0.06833 0.89247 0.74157 0.02900
C 	C 	0.24493 0.92167 0.99117 0.06900
H 	H 	0.26773 0.94777 0.95037 -0.11300
C 	C 	0.22123 0.86127 0.14867 0.06100
H 	H 	0.22683 0.84357 0.22287 -0.05200
C 	C 	0.99813 0.81657 0.77207 0.06100
N 	N 	0.97839 0.77993 0.67807 -0.27700
C 	C 	0.97813 0.83857 0.81557 -0.12900
H 	H 	0.99313 0.86417 0.88087 0.06100
C 	C 	0.93683 0.82437 0.76597 0.02400
H 	H 	0.92273 0.83947 0.79657 0.00600
C 	C 	0.91633 0.78697 0.66957 -0.11100
H 	H 	0.88803 0.77627 0.63147 0.04400
C 	C 	0.93763 0.76567 0.62967 0.03000
H 	H 	0.92303 0.73987 0.56567 -0.04900
C 	C 	0.20413 0.91077 0.94157 -0.16000
H 	H 	0.19973 0.92947 0.86907 0.03200
Cd	Cd	0.01367 0.75559 0.50521 1.10000
C 	C 	0.28090 0.86280 0.75180 -0.06500
H 	H 	0.30250 0.89120 0.72950 -0.03100
C 	C 	0.29090 0.83570 0.83970 -0.06800
C 	C 	0.23980 0.84920 0.69600 -0.06200
H 	H 	0.23370 0.86830 0.63520 0.00500
C 	C 	0.16360 0.79390 0.66930 0.07000
C 	C 	0.20760 0.80810 0.72740 -0.01300
C 	C 	0.15400 0.81880 0.56270 -0.13800
H 	H 	0.17600 0.84510 0.51970 0.05800
N 	N 	0.07952 0.76915 0.57410 -0.30400
C 	C 	0.21740 0.78040 0.81300 -0.05300
H 	H 	0.19570 0.75210 0.83430 0.02800
C 	C 	0.25870 0.79360 0.86830 -0.04600
H 	H 	0.26500 0.77420 0.92510 0.03000
C 	C 	0.08840 0.74500 0.67550 0.06000
H 	H 	0.06560 0.71890 0.71630 -0.11000
C 	C 	0.11210 0.80540 0.51800 0.05700
H 	H 	0.10650 0.82310 0.44380 -0.05000
C 	C 	0.33520 0.85010 0.89460 0.05700
N 	N 	0.35494 0.88674 0.98860 -0.26800
C 	C 	0.35520 0.82810 0.85110 -0.11500
H 	H 	0.34020 0.80250 0.78580 0.05700
C 	C 	0.39650 0.84230 0.90070 0.00300
H 	H 	0.41060 0.82720 0.87010 0.01500
C 	C 	0.41700 0.87970 0.99710 -0.07000
H 	H 	0.44530 0.89040 0.03520 0.02600
C 	C 	0.39570 0.90100 0.03700 -0.00200
H 	H 	0.41030 0.92680 0.10100 -0.03900
C 	C 	0.12920 0.75590 0.72510 -0.15300
H 	H 	0.13360 0.73720 0.79760 0.03100
Cd	Cd	0.75559 0.74192 0.49479 1.09900
C 	C 	0.86280 0.58190 0.24820 -0.06500
H 	H 	0.89120 0.58870 0.27050 -0.03100
C 	C 	0.83570 0.54480 0.16030 -0.06800
C 	C 	0.84920 0.60940 0.30400 -0.06200
H 	H 	0.86830 0.63460 0.36480 0.00500
C 	C 	0.79390 0.63030 0.33070 0.07000
C 	C 	0.80810 0.60050 0.27260 -0.01300
C 	C 	0.81880 0.66480 0.43730 -0.13800
H 	H 	0.84510 0.66910 0.48030 0.05800
N 	N 	0.76915 0.68963 0.42590 -0.30400
C 	C 	0.78040 0.56300 0.18700 -0.05300
H 	H 	0.75210 0.55640 0.16570 0.02800
C 	C 	0.79360 0.53490 0.13170 -0.04600
H 	H 	0.77420 0.50920 0.07490 0.03000
C 	C 	0.74500 0.65660 0.32450 0.06000
H 	H 	0.71890 0.65330 0.28370 -0.11100
C 	C 	0.80540 0.69330 0.48200 0.05700
H 	H 	0.82310 0.71660 0.55620 -0.05000
C 	C 	0.85010 0.51490 0.10540 0.05700
N 	N 	0.88674 0.53180 0.01140 -0.26800
C 	C 	0.82810 0.47290 0.14890 -0.11500
H 	H 	0.80250 0.46230 0.21420 0.05700
C 	C 	0.84230 0.44580 0.09930 0.00300
H 	H 	0.82720 0.41660 0.12990 0.01500
C 	C 	0.87970 0.46270 0.00290 -0.07000
H 	H 	0.89040 0.44510 0.96480 0.02600
C 	C 	0.90100 0.50530 0.96300 -0.00200
H 	H 	0.92680 0.51650 0.89900 -0.03900
C 	C 	0.75590 0.62670 0.27490 -0.15300
H 	H 	0.73720 0.60360 0.20240 0.03100
Cd	Cd	0.91108 0.59141 0.83854 1.09800
C 	C 	0.80387 0.75143 0.08513 -0.07000
H 	H 	0.77547 0.74463 0.06283 -0.03000
C 	C 	0.83097 0.78853 0.17303 -0.06900
C 	C 	0.81747 0.72393 0.02933 -0.05300
H 	H 	0.79837 0.69873 0.96853 -0.00000
C 	C 	0.87277 0.70303 0.00263 0.08000
C 	C 	0.85857 0.73283 0.06073 -0.01900
C 	C 	0.84787 0.66853 0.89603 -0.14900
H 	H 	0.82157 0.66423 0.85303 0.06000
N 	N 	0.89752 0.64370 0.90743 -0.30800
C 	C 	0.88627 0.77033 0.14633 -0.05000
H 	H 	0.91457 0.77693 0.16763 0.02600
C 	C 	0.87307 0.79843 0.20163 -0.04800
H 	H 	0.89247 0.82413 0.25843 0.02900
C 	C 	0.92167 0.67673 0.00883 0.06800
H 	H 	0.94777 0.68003 0.04963 -0.11300
C 	C 	0.86127 0.64003 0.85133 0.06000
H 	H 	0.84357 0.61673 0.77713 -0.05200
C 	C 	0.81657 0.81843 0.22793 0.06200
N 	N 	0.77993 0.80153 0.32193 -0.27700
C 	C 	0.83857 0.86043 0.18443 -0.12900
H 	H 	0.86417 0.87103 0.11913 0.06100
C 	C 	0.82437 0.88753 0.23403 0.02500
H 	H 	0.83947 0.91673 0.20343 0.00600
C 	C 	0.78697 0.87063 0.33043 -0.11100
H 	H 	0.77627 0.88823 0.36853 0.04400
C 	C 	0.76567 0.82803 0.37033 0.03000
H 	H 	0.73987 0.81683 0.43433 -0.04900
C 	C 	0.91077 0.70663 0.05843 -0.16000
H 	H 	0.92947 0.72973 0.13093 0.03200
Cd	Cd	0.42226 0.07525 0.82812 1.09900
C 	C 	0.52947 0.91523 0.58153 -0.06200
H 	H 	0.55787 0.92203 0.60383 -0.03200
C 	C 	0.50237 0.87813 0.49363 -0.07300
C 	C 	0.51587 0.94273 0.63733 -0.06400
H 	H 	0.53497 0.96793 0.69813 0.00600
C 	C 	0.46057 0.96363 0.66403 0.06900
C 	C 	0.47477 0.93383 0.60593 -0.01100
C 	C 	0.48547 0.99813 0.77063 -0.13600
H 	H 	0.51177 0.00243 0.81363 0.05700
N 	N 	0.43582 0.02296 0.75923 -0.30400
C 	C 	0.44707 0.89633 0.52033 -0.05600
H 	H 	0.41877 0.88973 0.49903 0.02800
C 	C 	0.46027 0.86823 0.46503 -0.04400
H 	H 	0.44087 0.84253 0.40823 0.02600
C 	C 	0.41167 0.98993 0.65783 0.06000
H 	H 	0.38557 0.98663 0.61703 -0.11100
C 	C 	0.47207 0.02663 0.81533 0.05600
H 	H 	0.48977 0.04993 0.88953 -0.05000
C 	C 	0.51677 0.84823 0.43873 0.06300
N 	N 	0.55341 0.86513 0.34473 -0.27800
C 	C 	0.49477 0.80623 0.48223 -0.13100
H 	H 	0.46917 0.79563 0.54753 0.06200
C 	C 	0.50897 0.77913 0.43263 0.02500
H 	H 	0.49387 0.74993 0.46323 0.00500
C 	C 	0.54637 0.79603 0.33623 -0.11200
H 	H 	0.55707 0.77843 0.29813 0.04400
C 	C 	0.56767 0.83863 0.29633 0.03000
H 	H 	0.59347 0.84983 0.23233 -0.05000
C 	C 	0.42257 0.96003 0.60823 -0.15200
H 	H 	0.40387 0.93693 0.53573 0.02900
Cd	Cd	0.57774 0.92475 0.17188 1.09900
C 	C 	0.47053 0.08477 0.41847 -0.06200
H 	H 	0.44213 0.07797 0.39617 -0.03200
C 	C 	0.49763 0.12187 0.50637 -0.07300
C 	C 	0.48413 0.05727 0.36267 -0.06400
H 	H 	0.46503 0.03207 0.30187 0.00600
C 	C 	0.53943 0.03637 0.33597 0.06900
C 	C 	0.52523 0.06617 0.39407 -0.01100
C 	C 	0.51453 0.00187 0.22937 -0.13600
H 	H 	0.48823 0.99757 0.18637 0.05700
N 	N 	0.56418 0.97704 0.24077 -0.30400
C 	C 	0.55293 0.10367 0.47967 -0.05600
H 	H 	0.58123 0.11027 0.50097 0.02800
C 	C 	0.53973 0.13177 0.53497 -0.04400
H 	H 	0.55913 0.15747 0.59177 0.02600
C 	C 	0.58833 0.01007 0.34217 0.06000
H 	H 	0.61443 0.01337 0.38297 -0.11100
C 	C 	0.52793 0.97337 0.18467 0.05600
H 	H 	0.51023 0.95007 0.11047 -0.05000
C 	C 	0.48323 0.15177 0.56127 0.06300
N 	N 	0.44659 0.13487 0.65527 -0.27800
C 	C 	0.50523 0.19377 0.51777 -0.13100
H 	H 	0.53083 0.20437 0.45247 0.06200
C 	C 	0.49103 0.22087 0.56737 0.02500
H 	H 	0.50613 0.25007 0.53677 0.00500
C 	C 	0.45363 0.20397 0.66377 -0.11200
H 	H 	0.44293 0.22157 0.70187 0.04400
C 	C 	0.43233 0.16137 0.70367 0.03000
H 	H 	0.40653 0.15017 0.76767 -0.05000
C 	C 	0.57743 0.03997 0.39177 -0.15200
H 	H 	0.59613 0.06307 0.46427 0.02900
Cd	Cd	0.08892 0.40859 0.16146 1.09800
C 	C 	0.19613 0.24857 0.91487 -0.07000
H 	H 	0.22453 0.25537 0.93717 -0.03000
C 	C 	0.16903 0.21147 0.82697 -0.06900
C 	C 	0.18253 0.27607 0.97067 -0.05300
H 	H 	0.20163 0.30127 0.03147 -0.00000
C 	C 	0.12723 0.29697 0.99737 0.08000
C 	C 	0.14143 0.26717 0.93927 -0.01900
C 	C 	0.15213 0.33147 0.10397 -0.14900
H 	H 	0.17843 0.33577 0.14697 0.06000
N 	N 	0.10248 0.35630 0.09257 -0.30800
C 	C 	0.11373 0.22967 0.85367 -0.05000
H 	H 	0.08543 0.22307 0.83237 0.02600
C 	C 	0.12693 0.20157 0.79837 -0.04800
H 	H 	0.10753 0.17587 0.74157 0.02900
C 	C 	0.07833 0.32327 0.99117 0.06800
H 	H 	0.05223 0.31997 0.95037 -0.11300
C 	C 	0.13873 0.35997 0.14867 0.06000
H 	H 	0.15643 0.38327 0.22287 -0.05200
C 	C 	0.18343 0.18157 0.77207 0.06200
N 	N 	0.22007 0.19847 0.67807 -0.27700
C 	C 	0.16143 0.13957 0.81557 -0.12900
H 	H 	0.13583 0.12897 0.88087 0.06100
C 	C 	0.17563 0.11247 0.76597 0.02500
H 	H 	0.16053 0.08327 0.79657 0.00600
C 	C 	0.21303 0.12937 0.66957 -0.11100
H 	H 	0.22373 0.11177 0.63147 0.04400
C 	C 	0.23433 0.17197 0.62967 0.03000
H 	H 	0.26013 0.18317 0.56567 -0.04900
C 	C 	0.08923 0.29337 0.94157 -0.16000
H 	H 	0.07053 0.27027 0.86907 0.03200
Cd	Cd	0.24441 0.25808 0.50521 1.09900
C 	C 	0.13720 0.41810 0.75180 -0.06500
H 	H 	0.10880 0.41130 0.72950 -0.03100
C 	C 	0.16430 0.45520 0.83970 -0.06800
C 	C 	0.15080 0.39060 0.69600 -0.06200
H 	H 	0.13170 0.36540 0.63520 0.00500
C 	C 	0.20610 0.36970 0.66930 0.07000
C 	C 	0.19190 0.39950 0.72740 -0.01300
C 	C 	0.18120 0.33520 0.56270 -0.13800
H 	H 	0.15490 0.33090 0.51970 0.05800
N 	N 	0.23085 0.31037 0.57410 -0.30400
C 	C 	0.21960 0.43700 0.81300 -0.05300
H 	H 	0.24790 0.44360 0.83430 0.02800
C 	C 	0.20640 0.46510 0.86830 -0.04600
H 	H 	0.22580 0.49080 0.92510 0.03000
C 	C 	0.25500 0.34340 0.67550 0.06000
H 	H 	0.28110 0.34670 0.71630 -0.11100
C 	C 	0.19460 0.30670 0.51800 0.05700
H 	H 	0.17690 0.28340 0.44380 -0.05000
C 	C 	0.14990 0.48510 0.89460 0.05700
N 	N 	0.11326 0.46820 0.98860 -0.26800
C 	C 	0.17190 0.52710 0.85110 -0.11500
H 	H 	0.19750 0.53770 0.78580 0.05700
C 	C 	0.15770 0.55420 0.90070 0.00300
H 	H 	0.17280 0.58340 0.87010 0.01500
C 	C 	0.12030 0.53730 0.99710 -0.07000
H 	H 	0.10960 0.55490 0.03520 0.02600
C 	C 	0.09900 0.49470 0.03700 -0.00200
H 	H 	0.07320 0.48350 0.10100 -0.03900
C 	C 	0.24410 0.37330 0.72510 -0.15300
H 	H 	0.26280 0.39640 0.79760 0.03100
