data_crystal

_cell_length_a 18.31500
_cell_length_b 18.31500
_cell_length_c 13.13600
_cell_angle_alpha 90.00000
_cell_angle_beta  90.00000
_cell_angle_gamma 120.00000

_symmetry_space_group_name_	'P 1'
_symmetry_space_group_name_H-M	'P 1'

loop_
_symmetry_equiv_pos_as_xyz
  x,y,z

loop_
_atom_site_label
_atom_site_type_symbol
_atom_site_fract_x
_atom_site_fract_y
_atom_site_fract_z
_atom_site_charge
F 	F 	0.77734 0.59093 0.14252 -0.76000
F 	F 	0.88468 0.57471 0.01314 -0.54600
Ga	Ga	0.89425 0.65945 0.09644 2.11300
H 	H 	0.02400 0.85000 0.98000 0.00700
O 	O 	0.14466 0.85030 0.00360 -0.42900
O 	O 	0.02894 0.74392 0.88360 -0.44900
O 	O 	0.01122 0.73697 0.07290 -0.41800
P 	P 	0.05099 0.79514 0.98123 0.49100
F 	F 	0.44401 0.92426 0.47585 -0.76000
F 	F 	0.55135 0.90804 0.34647 -0.54400
Ga	Ga	0.56092 0.99278 0.42977 2.11300
H 	H 	0.69067 0.18333 0.31333 0.00700
O 	O 	0.81133 0.18363 0.33693 -0.44100
O 	O 	0.69561 0.07725 0.21693 -0.45100
O 	O 	0.67789 0.07030 0.40623 -0.42800
P 	P 	0.71766 0.12847 0.31456 0.50500
F 	F 	0.11067 0.25760 0.80919 -0.76100
F 	F 	0.21801 0.24138 0.67981 -0.54500
Ga	Ga	0.22758 0.32612 0.76311 2.11200
H 	H 	0.35733 0.51667 0.64667 0.00700
O 	O 	0.47799 0.51697 0.67027 -0.44100
O 	O 	0.36227 0.41059 0.55027 -0.44900
O 	O 	0.34455 0.40364 0.73957 -0.42800
P 	P 	0.38432 0.46181 0.64790 0.50500
F 	F 	0.40907 0.18641 0.14252 -0.76100
F 	F 	0.42529 0.30997 0.01314 -0.54600
Ga	Ga	0.34055 0.23480 0.09644 2.11200
H 	H 	0.15000 0.17400 0.98000 0.00800
O 	O 	0.14970 0.29436 0.00360 -0.43900
O 	O 	0.25608 0.28502 0.88360 -0.44900
O 	O 	0.26303 0.27425 0.07290 -0.42700
P 	P 	0.20486 0.25585 0.98123 0.50400
F 	F 	0.07574 0.51974 0.47585 -0.76000
F 	F 	0.09196 0.64330 0.34647 -0.54400
Ga	Ga	0.00722 0.56813 0.42977 2.11300
H 	H 	0.81667 0.50733 0.31333 0.00700
O 	O 	0.81637 0.62769 0.33693 -0.44100
O 	O 	0.92275 0.61835 0.21693 -0.45100
O 	O 	0.92970 0.60758 0.40623 -0.42800
P 	P 	0.87153 0.58918 0.31456 0.50500
F 	F 	0.74240 0.85308 0.80919 -0.76100
F 	F 	0.75862 0.97664 0.67981 -0.54500
Ga	Ga	0.67388 0.90147 0.76311 2.11200
H 	H 	0.48333 0.84067 0.64667 0.00700
O 	O 	0.48303 0.96103 0.67027 -0.44200
O 	O 	0.58941 0.95169 0.55027 -0.44900
O 	O 	0.59636 0.94092 0.73957 -0.42800
P 	P 	0.53819 0.92252 0.64790 0.50500
F 	F 	0.81359 0.22266 0.14252 -0.76200
F 	F 	0.69003 0.11532 0.01314 -0.54900
Ga	Ga	0.76520 0.10575 0.09644 2.11100
H 	H 	0.82600 0.97600 0.98000 0.00700
O 	O 	0.70564 0.85534 0.00360 -0.43900
O 	O 	0.71498 0.97106 0.88360 -0.45000
O 	O 	0.72575 0.98878 0.07290 -0.42400
P 	P 	0.74415 0.94901 0.98123 0.50100
F 	F 	0.48026 0.55599 0.47585 -0.76100
F 	F 	0.35670 0.44865 0.34647 -0.54500
Ga	Ga	0.43187 0.43908 0.42977 2.11200
H 	H 	0.49267 0.30933 0.31333 0.00700
O 	O 	0.37231 0.18867 0.33693 -0.44100
O 	O 	0.38165 0.30439 0.21693 -0.45000
O 	O 	0.39242 0.32211 0.40623 -0.42800
P 	P 	0.41082 0.28234 0.31456 0.50500
F 	F 	0.14692 0.88933 0.80919 -0.76200
F 	F 	0.02336 0.78199 0.67981 -0.54600
Ga	Ga	0.09853 0.77242 0.76311 2.11200
H 	H 	0.15933 0.64267 0.64667 0.00700
O 	O 	0.03897 0.52201 0.67027 -0.44200
O 	O 	0.04831 0.63773 0.55027 -0.44900
O 	O 	0.05908 0.65545 0.73957 -0.42800
P 	P 	0.07748 0.61568 0.64790 0.50500
F 	F 	0.22266 0.40907 0.85748 -0.76100
F 	F 	0.11532 0.42529 0.98686 -0.54700
Ga	Ga	0.10575 0.34055 0.90356 2.11200
H 	H 	0.97600 0.15000 0.02000 0.00600
O 	O 	0.85534 0.14970 0.99640 -0.43000
O 	O 	0.97106 0.25608 0.11640 -0.45000
O 	O 	0.98878 0.26303 0.92710 -0.41800
P 	P 	0.94901 0.20486 0.01877 0.49100
F 	F 	0.88933 0.74240 0.19081 -0.76100
F 	F 	0.78199 0.75862 0.32019 -0.54500
Ga	Ga	0.77242 0.67388 0.23689 2.11200
H 	H 	0.64267 0.48333 0.35333 0.00700
O 	O 	0.52201 0.48303 0.32973 -0.44100
O 	O 	0.63773 0.58941 0.44973 -0.44900
O 	O 	0.65545 0.59636 0.26043 -0.42800
P 	P 	0.61568 0.53819 0.35210 0.50500
F 	F 	0.55599 0.07574 0.52415 -0.76000
F 	F 	0.44865 0.09196 0.65353 -0.54400
Ga	Ga	0.43908 0.00722 0.57023 2.11300
H 	H 	0.30933 0.81667 0.68667 0.00700
O 	O 	0.18867 0.81637 0.66307 -0.44100
O 	O 	0.30439 0.92275 0.78307 -0.45100
O 	O 	0.32211 0.92970 0.59377 -0.42800
P 	P 	0.28234 0.87153 0.68544 0.50500
F 	F 	0.59093 0.81359 0.85748 -0.76100
F 	F 	0.57471 0.69003 0.98686 -0.54600
Ga	Ga	0.65945 0.76520 0.90356 2.11200
H 	H 	0.85000 0.82600 0.02000 0.00800
O 	O 	0.85030 0.70564 0.99640 -0.43900
O 	O 	0.74392 0.71498 0.11640 -0.44900
O 	O 	0.73697 0.72575 0.92710 -0.42700
P 	P 	0.79514 0.74415 0.01877 0.50400
F 	F 	0.25760 0.14692 0.19081 -0.76100
F 	F 	0.24138 0.02336 0.32019 -0.54500
Ga	Ga	0.32612 0.09853 0.23689 2.11200
H 	H 	0.51667 0.15933 0.35333 0.00700
O 	O 	0.51697 0.03897 0.32973 -0.44200
O 	O 	0.41059 0.04831 0.44973 -0.44900
O 	O 	0.40364 0.05908 0.26043 -0.42800
P 	P 	0.46181 0.07748 0.35210 0.50500
F 	F 	0.92426 0.48026 0.52415 -0.76000
F 	F 	0.90804 0.35670 0.65353 -0.54400
Ga	Ga	0.99278 0.43187 0.57023 2.11300
H 	H 	0.18333 0.49267 0.68667 0.00700
O 	O 	0.18363 0.37231 0.66307 -0.44100
O 	O 	0.07725 0.38165 0.78307 -0.45100
O 	O 	0.07030 0.39242 0.59377 -0.42800
P 	P 	0.12847 0.41082 0.68544 0.50500
F 	F 	0.18641 0.77734 0.85748 -0.76200
F 	F 	0.30997 0.88468 0.98686 -0.54900
Ga	Ga	0.23480 0.89425 0.90356 2.11100
H 	H 	0.17400 0.02400 0.02000 0.00700
O 	O 	0.29436 0.14466 0.99640 -0.43900
O 	O 	0.28502 0.02894 0.11640 -0.45000
O 	O 	0.27425 0.01122 0.92710 -0.42400
P 	P 	0.25585 0.05099 0.01877 0.50100
F 	F 	0.85308 0.11067 0.19081 -0.76200
F 	F 	0.97664 0.21801 0.32019 -0.54600
Ga	Ga	0.90147 0.22758 0.23689 2.11200
H 	H 	0.84067 0.35733 0.35333 0.00700
O 	O 	0.96103 0.47799 0.32973 -0.44200
O 	O 	0.95169 0.36227 0.44973 -0.44900
O 	O 	0.94092 0.34455 0.26043 -0.42800
P 	P 	0.92252 0.38432 0.35210 0.50500
F 	F 	0.51974 0.44401 0.52415 -0.76100
F 	F 	0.64330 0.55135 0.65353 -0.54500
Ga	Ga	0.56813 0.56092 0.57023 2.11200
H 	H 	0.50733 0.69067 0.68667 0.00700
O 	O 	0.62769 0.81133 0.66307 -0.44100
O 	O 	0.61835 0.69561 0.78307 -0.45000
O 	O 	0.60758 0.67789 0.59377 -0.42800
P 	P 	0.58918 0.71766 0.68544 0.50500
