data_crystal

_cell_length_a 17.84760
_cell_length_b 17.84760
_cell_length_c 13.51590
_cell_angle_alpha 90.00000
_cell_angle_beta  90.00000
_cell_angle_gamma 120.00000

_symmetry_space_group_name_	'P 1'
_symmetry_space_group_name_H-M	'P 1'

loop_
_symmetry_equiv_pos_as_xyz
  x,y,z

loop_
_atom_site_label
_atom_site_type_symbol
_atom_site_fract_x
_atom_site_fract_y
_atom_site_fract_z
_atom_site_charge
Ga	Ga	0.87483 0.64120 0.58602 2.11000
F 	F 	0.76349 0.59356 0.65566 -0.76800
F 	F 	0.83856 0.54541 0.50560 -0.54000
O 	O 	0.90880 0.59370 0.69480 -0.45000
O 	O 	0.96830 0.62510 0.86780 -0.43500
O 	O 	0.83910 0.63810 0.83300 -0.44500
P 	P 	0.88701 0.59055 0.80421 0.50600
H 	H 	0.83100 0.50100 0.82800 0.02000
Ga	Ga	0.54150 0.97453 0.91935 2.11000
F 	F 	0.43016 0.92689 0.98899 -0.77100
F 	F 	0.50523 0.87874 0.83893 -0.54100
O 	O 	0.57547 0.92703 0.02813 -0.44700
O 	O 	0.63497 0.95843 0.20113 -0.43600
O 	O 	0.50577 0.97143 0.16633 -0.44300
P 	P 	0.55368 0.92388 0.13754 0.50600
H 	H 	0.49767 0.83433 0.16133 0.02000
Ga	Ga	0.20816 0.30787 0.25269 2.11100
F 	F 	0.09682 0.26023 0.32233 -0.76700
F 	F 	0.17189 0.21208 0.17227 -0.53900
O 	O 	0.24213 0.26037 0.36147 -0.44900
O 	O 	0.30163 0.29177 0.53447 -0.43700
O 	O 	0.17243 0.30477 0.49967 -0.44600
P 	P 	0.22034 0.25722 0.47088 0.50600
H 	H 	0.16433 0.16767 0.49467 0.02000
Ga	Ga	0.35880 0.23363 0.58602 2.11100
F 	F 	0.40644 0.16993 0.65566 -0.76700
F 	F 	0.45459 0.29315 0.50560 -0.53900
O 	O 	0.40630 0.31510 0.69480 -0.44900
O 	O 	0.37490 0.34320 0.86780 -0.43700
O 	O 	0.36190 0.20100 0.83300 -0.44600
P 	P 	0.40945 0.29646 0.80421 0.50600
H 	H 	0.49900 0.33000 0.82800 0.02000
Ga	Ga	0.02547 0.56696 0.91935 2.11000
F 	F 	0.07311 0.50326 0.98899 -0.77100
F 	F 	0.12126 0.62648 0.83893 -0.54200
O 	O 	0.07297 0.64843 0.02813 -0.44500
O 	O 	0.04157 0.67653 0.20113 -0.43600
O 	O 	0.02857 0.53433 0.16633 -0.44300
P 	P 	0.07612 0.62979 0.13754 0.50600
H 	H 	0.16567 0.66333 0.16133 0.02000
Ga	Ga	0.69213 0.90030 0.25269 2.11100
F 	F 	0.73977 0.83660 0.32233 -0.76700
F 	F 	0.78792 0.95982 0.17227 -0.53900
O 	O 	0.73963 0.98177 0.36147 -0.44900
O 	O 	0.70823 0.00987 0.53447 -0.43700
O 	O 	0.69523 0.86767 0.49967 -0.44600
P 	P 	0.74278 0.96313 0.47088 0.50600
H 	H 	0.83233 0.99667 0.49467 0.02000
Ga	Ga	0.76637 0.12517 0.58602 2.11100
F 	F 	0.83007 0.23651 0.65566 -0.76700
F 	F 	0.70685 0.16144 0.50560 -0.53900
O 	O 	0.68490 0.09120 0.69480 -0.44800
O 	O 	0.65680 0.03170 0.86780 -0.43400
O 	O 	0.79900 0.16090 0.83300 -0.44400
P 	P 	0.70354 0.11299 0.80421 0.50600
H 	H 	0.67000 0.16900 0.82800 0.02100
Ga	Ga	0.43304 0.45850 0.91935 2.11100
F 	F 	0.49674 0.56984 0.98899 -0.76800
F 	F 	0.37352 0.49477 0.83893 -0.54000
O 	O 	0.35157 0.42453 0.02813 -0.44900
O 	O 	0.32347 0.36503 0.20113 -0.43700
O 	O 	0.46567 0.49423 0.16633 -0.44600
P 	P 	0.37021 0.44632 0.13754 0.50600
H 	H 	0.33667 0.50233 0.16133 0.02000
Ga	Ga	0.09970 0.79184 0.25269 2.11100
F 	F 	0.16340 0.90318 0.32233 -0.76600
F 	F 	0.04018 0.82811 0.17227 -0.53700
O 	O 	0.01823 0.75787 0.36147 -0.44800
O 	O 	0.99013 0.69837 0.53447 -0.43700
O 	O 	0.13233 0.82757 0.49967 -0.44600
P 	P 	0.03687 0.77966 0.47088 0.50600
H 	H 	0.00333 0.83567 0.49467 0.02000
Ga	Ga	0.12517 0.35880 0.41398 2.11100
F 	F 	0.23651 0.40644 0.34434 -0.76700
F 	F 	0.16144 0.45459 0.49440 -0.53900
O 	O 	0.09120 0.40630 0.30520 -0.44900
O 	O 	0.03170 0.37490 0.13220 -0.43500
O 	O 	0.16090 0.36190 0.16700 -0.44500
P 	P 	0.11299 0.40945 0.19579 0.50600
H 	H 	0.16900 0.49900 0.17200 0.02000
Ga	Ga	0.79184 0.69213 0.74731 2.11100
F 	F 	0.90318 0.73977 0.67767 -0.76700
F 	F 	0.82811 0.78792 0.82773 -0.53900
O 	O 	0.75787 0.73963 0.63853 -0.44900
O 	O 	0.69837 0.70823 0.46553 -0.43700
O 	O 	0.82757 0.69523 0.50033 -0.44600
P 	P 	0.77966 0.74278 0.52912 0.50600
H 	H 	0.83567 0.83233 0.50533 0.02000
Ga	Ga	0.45850 0.02547 0.08065 2.11000
F 	F 	0.56984 0.07311 0.01101 -0.77100
F 	F 	0.49477 0.12126 0.16107 -0.54100
O 	O 	0.42453 0.07297 0.97187 -0.44700
O 	O 	0.36503 0.04157 0.79887 -0.43600
O 	O 	0.49423 0.02857 0.83367 -0.44300
P 	P 	0.44632 0.07612 0.86246 0.50600
H 	H 	0.50233 0.16567 0.83867 0.02000
Ga	Ga	0.64120 0.76637 0.41398 2.11100
F 	F 	0.59356 0.83007 0.34434 -0.76700
F 	F 	0.54541 0.70685 0.49440 -0.53900
O 	O 	0.59370 0.68490 0.30520 -0.44900
O 	O 	0.62510 0.65680 0.13220 -0.43700
O 	O 	0.63810 0.79900 0.16700 -0.44600
P 	P 	0.59055 0.70354 0.19579 0.50600
H 	H 	0.50100 0.67000 0.17200 0.02000
Ga	Ga	0.30787 0.09970 0.74731 2.11100
F 	F 	0.26023 0.16340 0.67767 -0.76700
F 	F 	0.21208 0.04018 0.82773 -0.53900
O 	O 	0.26037 0.01823 0.63853 -0.44900
O 	O 	0.29177 0.99013 0.46553 -0.43700
O 	O 	0.30477 0.13233 0.50033 -0.44600
P 	P 	0.25722 0.03687 0.52912 0.50600
H 	H 	0.16767 0.00333 0.50533 0.02000
Ga	Ga	0.97453 0.43304 0.08065 2.11000
F 	F 	0.92689 0.49674 0.01101 -0.77100
F 	F 	0.87874 0.37352 0.16107 -0.54200
O 	O 	0.92703 0.35157 0.97187 -0.44500
O 	O 	0.95843 0.32347 0.79887 -0.43600
O 	O 	0.97143 0.46567 0.83367 -0.44300
P 	P 	0.92388 0.37021 0.86246 0.50600
H 	H 	0.83433 0.33667 0.83867 0.02000
Ga	Ga	0.23363 0.87483 0.41398 2.11100
F 	F 	0.16993 0.76349 0.34434 -0.76700
F 	F 	0.29315 0.83856 0.49440 -0.53900
O 	O 	0.31510 0.90880 0.30520 -0.44800
O 	O 	0.34320 0.96830 0.13220 -0.43400
O 	O 	0.20100 0.83910 0.16700 -0.44400
P 	P 	0.29646 0.88701 0.19579 0.50600
H 	H 	0.33000 0.83100 0.17200 0.02100
Ga	Ga	0.90030 0.20816 0.74731 2.11100
F 	F 	0.83660 0.09682 0.67767 -0.76600
F 	F 	0.95982 0.17189 0.82773 -0.53700
O 	O 	0.98177 0.24213 0.63853 -0.44800
O 	O 	0.00987 0.30163 0.46553 -0.43700
O 	O 	0.86767 0.17243 0.50033 -0.44600
P 	P 	0.96313 0.22034 0.52912 0.50600
H 	H 	0.99667 0.16433 0.50533 0.02000
Ga	Ga	0.56696 0.54150 0.08065 2.11100
F 	F 	0.50326 0.43016 0.01101 -0.76800
F 	F 	0.62648 0.50523 0.16107 -0.54000
O 	O 	0.64843 0.57547 0.97187 -0.44900
O 	O 	0.67653 0.63497 0.79887 -0.43700
O 	O 	0.53433 0.50577 0.83367 -0.44600
P 	P 	0.62979 0.55368 0.86246 0.50600
H 	H 	0.66333 0.49767 0.83867 0.02000
