data_crystal

_cell_length_a 24.49920
_cell_length_b 24.49920
_cell_length_c 8.33790
_cell_angle_alpha 90.00000
_cell_angle_beta  90.00000
_cell_angle_gamma 120.00000

_symmetry_space_group_name_	'P 1'
_symmetry_space_group_name_H-M	'P 1'

loop_
_symmetry_equiv_pos_as_xyz
  x,y,z

loop_
_atom_site_label
_atom_site_type_symbol
_atom_site_fract_x
_atom_site_fract_y
_atom_site_fract_z
_atom_site_charge
N 	N 	0.92629 0.27787 0.54022 -0.21600
C 	C 	0.87607 0.22162 0.58427 0.07200
N 	N 	0.59296 0.61120 0.87355 -0.19400
C 	C 	0.54274 0.55495 0.91760 0.24700
N 	N 	0.25962 0.94454 0.20689 -0.23600
C 	C 	0.20940 0.88829 0.25094 0.05000
N 	N 	0.72213 0.64842 0.54022 -0.22000
C 	C 	0.77838 0.65445 0.58427 0.07000
N 	N 	0.38880 0.98175 0.87355 -0.19600
C 	C 	0.44505 0.98778 0.91760 0.23800
N 	N 	0.05546 0.31509 0.20689 -0.24000
C 	C 	0.11171 0.32112 0.25094 0.04800
N 	N 	0.35158 0.07371 0.54022 -0.22100
C 	C 	0.34555 0.12393 0.58427 0.07000
N 	N 	0.01825 0.40704 0.87355 -0.19200
C 	C 	0.01222 0.45726 0.91760 0.21200
N 	N 	0.68491 0.74038 0.20689 -0.23600
C 	C 	0.67888 0.79060 0.25094 0.05100
N 	N 	0.27787 0.92629 0.45978 -0.22700
C 	C 	0.22162 0.87607 0.41573 0.07200
N 	N 	0.94454 0.25962 0.79311 -0.18600
C 	C 	0.88829 0.20940 0.74906 0.09400
N 	N 	0.61120 0.59296 0.12645 -0.20900
C 	C 	0.55495 0.54274 0.08240 -0.10100
N 	N 	0.64842 0.72213 0.45978 -0.22600
C 	C 	0.65445 0.77838 0.41573 0.07200
N 	N 	0.31509 0.05546 0.79311 -0.19200
C 	C 	0.32112 0.11171 0.74906 0.09200
N 	N 	0.98175 0.38880 0.12645 -0.20000
C 	C 	0.98778 0.44505 0.08240 -0.06400
N 	N 	0.07371 0.35158 0.45978 -0.22800
C 	C 	0.12393 0.34555 0.41573 0.07100
N 	N 	0.74038 0.68491 0.79311 -0.19300
C 	C 	0.79060 0.67888 0.74906 0.09300
N 	N 	0.40704 0.01825 0.12645 -0.21000
C 	C 	0.45726 0.01222 0.08240 -0.09500
N 	N 	0.07371 0.72213 0.45978 -0.22800
C 	C 	0.12393 0.77838 0.41573 0.07100
N 	N 	0.74038 0.05546 0.79311 -0.19200
C 	C 	0.79060 0.11171 0.74906 0.09300
N 	N 	0.40704 0.38880 0.12645 -0.20900
C 	C 	0.45726 0.44505 0.08240 -0.10200
N 	N 	0.27787 0.35158 0.45978 -0.22600
C 	C 	0.22162 0.34555 0.41573 0.07200
N 	N 	0.94454 0.68491 0.79311 -0.18600
C 	C 	0.88829 0.67888 0.74906 0.09400
N 	N 	0.61120 0.01825 0.12645 -0.21000
C 	C 	0.55495 0.01222 0.08240 -0.09400
N 	N 	0.64842 0.92629 0.45978 -0.22700
C 	C 	0.65445 0.87607 0.41573 0.07200
N 	N 	0.31509 0.25962 0.79311 -0.19300
C 	C 	0.32112 0.20940 0.74906 0.09200
N 	N 	0.98175 0.59296 0.12645 -0.20000
C 	C 	0.98778 0.54274 0.08240 -0.06400
N 	N 	0.72213 0.07371 0.54022 -0.22100
C 	C 	0.77838 0.12393 0.58427 0.07100
N 	N 	0.38880 0.40704 0.87355 -0.19400
C 	C 	0.44505 0.45726 0.91760 0.24600
N 	N 	0.05546 0.74038 0.20689 -0.24000
C 	C 	0.11171 0.79060 0.25094 0.04800
N 	N 	0.35158 0.27787 0.54022 -0.22200
C 	C 	0.34555 0.22162 0.58427 0.07000
N 	N 	0.01825 0.61120 0.87355 -0.19300
C 	C 	0.01222 0.55495 0.91760 0.21200
N 	N 	0.68491 0.94454 0.20689 -0.23700
C 	C 	0.67888 0.88829 0.25094 0.05100
N 	N 	0.92629 0.64842 0.54022 -0.21700
C 	C 	0.87607 0.65445 0.58427 0.07100
N 	N 	0.59296 0.98175 0.87355 -0.19600
C 	C 	0.54274 0.98778 0.91760 0.23800
N 	N 	0.25962 0.31509 0.20689 -0.23700
C 	C 	0.20940 0.32112 0.25094 0.04900
Mn	Mn	0.94888 0.33333 0.33333 1.27400
Mn	Mn	0.66667 0.61555 0.33333 1.26700
Mn	Mn	0.38445 0.05112 0.33333 1.26700
Mn	Mn	0.33333 0.94888 0.66667 1.27000
Mn	Mn	-0.00000 0.28221 -0.00000 1.21500
Mn	Mn	0.61555 0.66667 0.66667 1.27100
Mn	Mn	0.28221 0.00000 -0.00000 1.22400
Mn	Mn	0.05112 0.38445 0.66667 1.26800
Mn	Mn	0.71779 0.71779 -0.00000 1.22400
Mn	Mn	0.05112 0.66667 0.66667 1.26800
Mn	Mn	0.71779 0.00000 -0.00000 1.22500
Mn	Mn	0.38445 0.33333 0.33333 1.26700
Mn	Mn	0.33333 0.38445 0.66667 1.27100
Mn	Mn	-0.00000 0.71779 -0.00000 1.21500
Mn	Mn	0.61555 0.94888 0.66667 1.27000
Mn	Mn	0.28221 0.28221 -0.00000 1.22200
Mn	Mn	0.66667 0.05112 0.33333 1.26700
Mn	Mn	0.94888 0.61555 0.33333 1.27400
Cl	Cl	-0.00000 0.42296 0.50000 -0.73900
Cl	Cl	0.66667 0.75629 0.83333 -0.63700
Cl	Cl	0.33333 0.08963 0.16667 -0.77600
Cl	Cl	0.57704 0.57704 0.50000 -0.72000
Cl	Cl	0.24371 0.91037 0.83333 -0.64100
Cl	Cl	0.91037 0.24371 0.16667 -0.76200
Cl	Cl	0.42296 0.00000 0.50000 -0.71700
Cl	Cl	0.08963 0.33333 0.83333 -0.64300
Cl	Cl	0.75629 0.66667 0.16667 -0.77400
Cl	Cl	-0.00000 0.57704 0.50000 -0.73900
Cl	Cl	0.66667 0.91037 0.83333 -0.64000
Cl	Cl	0.33333 0.24371 0.16667 -0.77700
Cl	Cl	0.42296 0.42296 0.50000 -0.72000
Cl	Cl	0.08963 0.75629 0.83333 -0.64400
Cl	Cl	0.75629 0.08963 0.16667 -0.77300
Cl	Cl	0.57704 0.00000 0.50000 -0.71700
Cl	Cl	0.24371 0.33333 0.83333 -0.63800
Cl	Cl	0.91037 0.66667 0.16667 -0.76200
N 	N 	0.96471 0.29805 0.66667 -0.16900
N 	N 	0.63138 0.63138 -0.00000 -0.25500
N 	N 	0.70195 0.66667 0.66667 -0.17800
N 	N 	0.36862 0.00000 -0.00000 -0.25300
N 	N 	0.33333 0.03529 0.66667 -0.17700
N 	N 	-0.00000 0.36862 -0.00000 -0.26900
N 	N 	0.29805 0.96471 0.33333 -0.18900
N 	N 	0.66667 0.70195 0.33333 -0.18700
N 	N 	0.03529 0.33333 0.33333 -0.19400
N 	N 	0.03529 0.70195 0.33333 -0.19400
N 	N 	0.29805 0.33333 0.33333 -0.18700
N 	N 	0.66667 0.96471 0.33333 -0.18800
N 	N 	0.70195 0.03529 0.66667 -0.17700
N 	N 	0.36862 0.36862 -0.00000 -0.25500
N 	N 	0.33333 0.29805 0.66667 -0.17800
N 	N 	-0.00000 0.63138 -0.00000 -0.26800
N 	N 	0.96471 0.66667 0.66667 -0.16900
N 	N 	0.63138 0.00000 -0.00000 -0.25200
C 	C 	0.82062 0.17938 0.50045 -0.12100
H 	H 	0.81086 0.18914 0.38127 0.07000
C 	C 	0.48729 0.51271 0.83378 -0.21700
H 	H 	0.47753 0.52247 0.71460 0.10100
C 	C 	0.15395 0.84605 0.16712 -0.13700
H 	H 	0.14419 0.85581 0.04794 0.02600
C 	C 	0.82062 0.64124 0.50045 -0.12200
H 	H 	0.81086 0.62172 0.38127 0.07000
C 	C 	0.48729 0.97457 0.83378 -0.21400
H 	H 	0.47753 0.95505 0.71460 0.09900
C 	C 	0.15395 0.30791 0.16712 -0.13700
H 	H 	0.14419 0.28839 0.04794 0.02600
C 	C 	0.35876 0.17938 0.50045 -0.12300
H 	H 	0.37828 0.18914 0.38127 0.06900
C 	C 	0.02543 0.51271 0.83378 -0.20000
H 	H 	0.04495 0.52247 0.71460 0.09600
C 	C 	0.69209 0.84605 0.16712 -0.13600
H 	H 	0.71161 0.85581 0.04794 0.02900
C 	C 	0.17938 0.82062 0.49955 -0.13600
H 	H 	0.18914 0.81086 0.61873 0.08000
C 	C 	0.84605 0.15395 0.83288 -0.11500
H 	H 	0.85581 0.14419 0.95206 0.12900
C 	C 	0.51271 0.48729 0.16622 -0.04100
H 	H 	0.52247 0.47753 0.28540 0.04900
C 	C 	0.64124 0.82062 0.49955 -0.13500
H 	H 	0.62172 0.81086 0.61873 0.08000
C 	C 	0.30791 0.15395 0.83288 -0.11700
H 	H 	0.28839 0.14419 0.95206 0.12700
C 	C 	0.97457 0.48729 0.16622 -0.05700
H 	H 	0.95505 0.47753 0.28540 0.06100
C 	C 	0.17938 0.35876 0.49955 -0.13600
H 	H 	0.18914 0.37828 0.61873 0.08000
C 	C 	0.84605 0.69209 0.83288 -0.11500
H 	H 	0.85581 0.71161 0.95206 0.12800
C 	C 	0.51271 0.02543 0.16622 -0.04400
H 	H 	0.52247 0.04495 0.28540 0.05000
