data_crystal

_cell_length_a 25.00400
_cell_length_b 25.00400
_cell_length_c 8.62530
_cell_angle_alpha 90.00000
_cell_angle_beta  90.00000
_cell_angle_gamma 120.00000

_symmetry_space_group_name_	'P 1'
_symmetry_space_group_name_H-M	'P 1'

loop_
_symmetry_equiv_pos_as_xyz
  x,y,z

loop_
_atom_site_label
_atom_site_type_symbol
_atom_site_fract_x
_atom_site_fract_y
_atom_site_fract_z
_atom_site_charge
N 	N 	0.92156 0.27664 0.55050 -0.21000
C 	C 	0.87290 0.22026 0.59270 0.07200
N 	N 	0.58823 0.60997 0.88383 -0.19300
C 	C 	0.53957 0.55359 0.92603 0.28100
N 	N 	0.25489 0.94331 0.21717 -0.22800
C 	C 	0.20623 0.88693 0.25937 0.05000
N 	N 	0.72336 0.64492 0.55050 -0.21200
C 	C 	0.77974 0.65264 0.59270 0.07100
N 	N 	0.39003 0.97825 0.88383 -0.19400
C 	C 	0.44641 0.98597 0.92603 0.27100
N 	N 	0.05669 0.31159 0.21717 -0.23000
C 	C 	0.11307 0.31931 0.25937 0.05000
N 	N 	0.35508 0.07844 0.55050 -0.21200
C 	C 	0.34736 0.12710 0.59270 0.07100
N 	N 	0.02175 0.41177 0.88383 -0.19000
C 	C 	0.01403 0.46043 0.92603 0.23800
N 	N 	0.68841 0.74511 0.21717 -0.22600
C 	C 	0.68069 0.79377 0.25937 0.05200
N 	N 	0.27664 0.92156 0.44950 -0.22000
C 	C 	0.22026 0.87290 0.40730 0.07700
N 	N 	0.94331 0.25489 0.78283 -0.18300
C 	C 	0.88693 0.20623 0.74063 0.10100
N 	N 	0.60997 0.58823 0.11617 -0.19700
C 	C 	0.55359 0.53957 0.07397 -0.13100
N 	N 	0.64492 0.72336 0.44950 -0.21900
C 	C 	0.65264 0.77974 0.40730 0.07800
N 	N 	0.31159 0.05669 0.78283 -0.18900
C 	C 	0.31931 0.11307 0.74063 0.09800
N 	N 	0.97825 0.39003 0.11617 -0.19000
C 	C 	0.98597 0.44641 0.07397 -0.08400
N 	N 	0.07844 0.35508 0.44950 -0.22100
C 	C 	0.12710 0.34736 0.40730 0.07700
N 	N 	0.74511 0.68841 0.78283 -0.18900
C 	C 	0.79377 0.68069 0.74063 0.09900
N 	N 	0.41177 0.02175 0.11617 -0.19800
C 	C 	0.46043 0.01403 0.07397 -0.12200
N 	N 	0.07844 0.72336 0.44950 -0.22100
C 	C 	0.12710 0.77974 0.40730 0.07700
N 	N 	0.74511 0.05669 0.78283 -0.18800
C 	C 	0.79377 0.11307 0.74063 0.09900
N 	N 	0.41177 0.39003 0.11617 -0.19700
C 	C 	0.46043 0.44641 0.07397 -0.13100
N 	N 	0.27664 0.35508 0.44950 -0.21900
C 	C 	0.22026 0.34736 0.40730 0.07700
N 	N 	0.94331 0.68841 0.78283 -0.18300
C 	C 	0.88693 0.68069 0.74063 0.10000
N 	N 	0.60997 0.02175 0.11617 -0.19800
C 	C 	0.55359 0.01403 0.07397 -0.12100
N 	N 	0.64492 0.92156 0.44950 -0.21900
C 	C 	0.65264 0.87290 0.40730 0.07700
N 	N 	0.31159 0.25489 0.78283 -0.18900
C 	C 	0.31931 0.20623 0.74063 0.09800
N 	N 	0.97825 0.58823 0.11617 -0.19000
C 	C 	0.98597 0.53957 0.07397 -0.08300
N 	N 	0.72336 0.07844 0.55050 -0.21200
C 	C 	0.77974 0.12710 0.59270 0.07200
N 	N 	0.39003 0.41177 0.88383 -0.19300
C 	C 	0.44641 0.46043 0.92603 0.28200
N 	N 	0.05669 0.74511 0.21717 -0.23000
C 	C 	0.11307 0.79377 0.25937 0.05000
N 	N 	0.35508 0.27664 0.55050 -0.21300
C 	C 	0.34736 0.22026 0.59270 0.07100
N 	N 	0.02175 0.60997 0.88383 -0.19000
C 	C 	0.01403 0.55359 0.92603 0.23700
N 	N 	0.68841 0.94331 0.21717 -0.22700
C 	C 	0.68069 0.88693 0.25937 0.05200
N 	N 	0.92156 0.64492 0.55050 -0.20900
C 	C 	0.87290 0.65264 0.59270 0.07200
N 	N 	0.58823 0.97825 0.88383 -0.19500
C 	C 	0.53957 0.98597 0.92603 0.27100
N 	N 	0.25489 0.31159 0.21717 -0.22700
C 	C 	0.20623 0.31931 0.25937 0.05100
Mn	Mn	0.94665 0.33333 0.33333 1.23800
Mn	Mn	0.66667 0.61331 0.33333 1.23100
Mn	Mn	0.38669 0.05335 0.33333 1.23100
Mn	Mn	0.33333 0.94665 0.66667 1.23500
Mn	Mn	0.00000 0.27998 -0.00000 1.18200
Mn	Mn	0.61331 0.66667 0.66667 1.23600
Mn	Mn	0.27998 0.00000 -0.00000 1.19200
Mn	Mn	0.05335 0.38669 0.66667 1.23300
Mn	Mn	0.72002 0.72002 -0.00000 1.19200
Mn	Mn	0.05335 0.66667 0.66667 1.23300
Mn	Mn	0.72002 0.00000 -0.00000 1.19300
Mn	Mn	0.38669 0.33333 0.33333 1.23100
Mn	Mn	0.33333 0.38669 0.66667 1.23600
Mn	Mn	-0.00000 0.72002 -0.00000 1.18300
Mn	Mn	0.61331 0.94665 0.66667 1.23500
Mn	Mn	0.27998 0.27998 -0.00000 1.19000
Mn	Mn	0.66667 0.05335 0.33333 1.23200
Mn	Mn	0.94665 0.61331 0.33333 1.23800
Cl	Cl	-0.00000 0.42874 0.50000 -0.70000
Cl	Cl	0.66667 0.76207 0.83333 -0.60900
Cl	Cl	0.33333 0.09541 0.16667 -0.73100
Cl	Cl	0.57126 0.57126 0.50000 -0.68100
Cl	Cl	0.23793 0.90459 0.83333 -0.61300
Cl	Cl	0.90459 0.23793 0.16667 -0.71800
Cl	Cl	0.42874 -0.00000 0.50000 -0.67800
Cl	Cl	0.09541 0.33333 0.83333 -0.61500
Cl	Cl	0.76207 0.66667 0.16667 -0.72900
Cl	Cl	-0.00000 0.57126 0.50000 -0.70000
Cl	Cl	0.66667 0.90459 0.83333 -0.61100
Cl	Cl	0.33333 0.23793 0.16667 -0.73200
Cl	Cl	0.42874 0.42874 0.50000 -0.68100
Cl	Cl	0.09541 0.76207 0.83333 -0.61600
Cl	Cl	0.76207 0.09541 0.16667 -0.72800
Cl	Cl	0.57126 -0.00000 0.50000 -0.67800
Cl	Cl	0.23793 0.33333 0.83333 -0.61000
Cl	Cl	0.90459 0.66667 0.16667 -0.71800
N 	N 	0.96238 0.29571 0.66667 -0.16600
N 	N 	0.62905 0.62905 -0.00000 -0.24800
N 	N 	0.70429 0.66667 0.66667 -0.17500
N 	N 	0.37095 0.00000 -0.00000 -0.24600
N 	N 	0.33333 0.03762 0.66667 -0.17400
N 	N 	-0.00000 0.37095 -0.00000 -0.26200
N 	N 	0.29571 0.96238 0.33333 -0.18800
N 	N 	0.66667 0.70429 0.33333 -0.18600
N 	N 	0.03762 0.33333 0.33333 -0.19300
N 	N 	0.03762 0.70429 0.33333 -0.19300
N 	N 	0.29571 0.33333 0.33333 -0.18600
N 	N 	0.66667 0.96238 0.33333 -0.18800
N 	N 	0.70429 0.03762 0.66667 -0.17400
N 	N 	0.37095 0.37095 -0.00000 -0.24900
N 	N 	0.33333 0.29571 0.66667 -0.17600
N 	N 	-0.00000 0.62905 -0.00000 -0.26200
N 	N 	0.96238 0.66667 0.66667 -0.16700
N 	N 	0.62905 0.00000 -0.00000 -0.24600
C 	C 	0.81882 0.18118 0.51280 -0.15400
H 	H 	0.80950 0.19050 0.41320 0.08000
C 	C 	0.48549 0.51451 0.84613 -0.30900
H 	H 	0.47617 0.52383 0.74653 0.13600
C 	C 	0.15215 0.84785 0.17947 -0.16200
H 	H 	0.14283 0.85717 0.07987 0.04100
C 	C 	0.81882 0.63764 0.51280 -0.15400
H 	H 	0.80950 0.61900 0.41320 0.08000
C 	C 	0.48549 0.97097 0.84613 -0.30200
H 	H 	0.47617 0.95233 0.74653 0.13200
C 	C 	0.15215 0.30431 0.17947 -0.16200
H 	H 	0.14283 0.28567 0.07987 0.04100
C 	C 	0.36236 0.18118 0.51280 -0.15500
H 	H 	0.38100 0.19050 0.41320 0.08000
C 	C 	0.02903 0.51451 0.84613 -0.27700
H 	H 	0.04767 0.52383 0.74653 0.12500
C 	C 	0.69569 0.84785 0.17947 -0.16200
H 	H 	0.71433 0.85717 0.07987 0.04400
C 	C 	0.18118 0.81882 0.48720 -0.17600
H 	H 	0.19050 0.80950 0.58680 0.08900
C 	C 	0.84785 0.15215 0.82053 -0.16400
H 	H 	0.85717 0.14283 0.92013 0.13400
C 	C 	0.51451 0.48549 0.15387 -0.02100
H 	H 	0.52383 0.47617 0.25347 0.03400
C 	C 	0.63764 0.81882 0.48720 -0.17500
H 	H 	0.61900 0.80950 0.58680 0.08900
C 	C 	0.30431 0.15215 0.82053 -0.16500
H 	H 	0.28567 0.14283 0.92013 0.13100
C 	C 	0.97097 0.48549 0.15387 -0.05200
H 	H 	0.95233 0.47617 0.25347 0.05100
C 	C 	0.18118 0.36236 0.48720 -0.17600
H 	H 	0.19050 0.38100 0.58680 0.08900
C 	C 	0.84785 0.69569 0.82053 -0.16400
H 	H 	0.85717 0.71433 0.92013 0.13300
C 	C 	0.51451 0.02903 0.15387 -0.02800
H 	H 	0.52383 0.04767 0.25347 0.03600
