data_crystal

_cell_length_a 13.83750
_cell_length_b 15.74030
_cell_length_c 22.02280
_cell_angle_alpha 90.00000
_cell_angle_beta  98.84100
_cell_angle_gamma 90.00000

_symmetry_space_group_name_	'P 1'
_symmetry_space_group_name_H-M	'P 1'

loop_
_symmetry_equiv_pos_as_xyz
  x,y,z

loop_
_atom_site_label
_atom_site_type_symbol
_atom_site_fract_x
_atom_site_fract_y
_atom_site_fract_z
_atom_site_charge
Cd	Cd	0.82626 0.77233 0.18104 1.18100
S 	S 	0.92843 0.65835 0.31379 1.00900
O 	O 	0.86630 0.71990 0.27880 -0.36300
O 	O 	0.00690 0.62580 0.28290 -0.21900
O 	O 	0.97370 0.69520 0.37370 -0.26100
O 	O 	0.86800 0.58440 0.32800 -0.20900
O 	O 	0.91760 0.68280 0.24750 -0.32600
O 	O 	0.02260 0.61360 0.32840 -0.27000
O 	O 	0.93000 0.73620 0.35030 -0.19900
O 	O 	0.84790 0.60320 0.32330 -0.14700
N 	N 	0.10180 0.96940 0.08920 -0.25400
N 	N 	0.68940 0.81440 0.22340 -0.26200
N 	N 	0.92890 0.12390 0.03820 -0.29200
N 	N 	0.74720 0.64830 0.14170 -0.26800
N 	N 	0.91920 0.88950 0.21850 -0.29400
N 	N 	0.04840 0.37910 0.45270 -0.35100
C 	C 	0.09100 0.89680 0.12020 0.08600
H 	H 	0.03360 0.86390 0.10830 -0.08800
C 	C 	0.15870 0.86830 0.16770 -0.18600
H 	H 	0.14740 0.81670 0.18790 0.06700
C 	C 	0.25230 0.99040 0.15640 -0.06700
H 	H 	0.30790 0.02540 0.16860 0.03200
C 	C 	0.18100 0.01620 0.10900 -0.03100
H 	H 	0.18870 0.06920 0.08960 -0.03400
C 	C 	0.24310 0.91380 0.18630 0.11400
C 	C 	0.32390 0.88020 0.23470 -0.23300
H 	H 	0.29530 0.83620 0.25870 0.08100
H 	H 	0.37280 0.85160 0.21330 0.08800
C 	C 	0.37680 0.94290 0.27900 0.05600
H 	H 	0.33030 0.96750 0.30410 0.00700
H 	H 	0.40180 0.98970 0.25570 0.02900
C 	C 	0.46050 0.90330 0.32070 -0.27300
H 	H 	0.43590 0.85540 0.34310 0.09400
H 	H 	0.48910 0.94590 0.35150 0.10000
C 	C 	0.53930 0.87130 0.28600 0.18000
C 	C 	0.57100 0.78800 0.28860 -0.22300
H 	H 	0.54100 0.74790 0.31210 0.08900
C 	C 	0.64400 0.76210 0.25830 0.11600
H 	H 	0.66400 0.70440 0.26180 -0.01900
C 	C 	0.65740 0.89460 0.21940 0.11400
H 	H 	0.68690 0.93270 0.19430 -0.03400
C 	C 	0.58550 0.92530 0.24890 -0.22200
H 	H 	0.56650 0.98320 0.24430 0.13300
C 	C 	0.95470 0.20430 0.02840 0.18200
H 	H 	0.01160 0.21380 0.01000 -0.13200
C 	C 	0.90290 0.27390 0.04350 -0.26900
H 	H 	0.92360 0.32950 0.03490 0.09900
C 	C 	0.82100 0.26290 0.07130 0.18800
C 	C 	0.79390 0.18050 0.08140 -0.24200
H 	H 	0.73780 0.16970 0.10020 0.11200
C 	C 	0.84830 0.11360 0.06420 0.11200
H 	H 	0.82750 0.05740 0.07120 -0.07800
C 	C 	0.75880 0.33310 0.09620 -0.09800
H 	H 	0.73710 0.31310 0.13460 0.05900
H 	H 	0.79950 0.38450 0.10620 0.03700
C 	C 	0.67110 0.35550 0.05010 0.02100
H 	H 	0.63460 0.30270 0.03730 -0.00600
H 	H 	0.69380 0.37970 0.01320 -0.00500
C 	C 	0.60230 0.41770 0.07280 -0.31400
H 	H 	0.57210 0.39040 0.10580 0.11000
H 	H 	0.54930 0.43140 0.03870 0.02000
H 	H 	0.54430 0.40760 0.09310 0.01100
H 	H 	0.57930 0.42430 0.02830 0.08400
C 	C 	0.65110 0.49970 0.09740 0.19300
C 	C 	0.66380 0.56700 0.05930 -0.23000
H 	H 	0.63920 0.56340 0.01660 0.07800
C 	C 	0.71180 0.63890 0.08260 0.11400
H 	H 	0.72000 0.68400 0.05520 -0.07100
C 	C 	0.73440 0.58360 0.17880 0.11000
H 	H 	0.75930 0.58860 0.22130 -0.00100
C 	C 	0.68640 0.50940 0.15810 -0.22200
H 	H 	0.67820 0.46540 0.18630 0.10400
C 	C 	0.76600 0.34640 0.06100 -0.15200
H 	H 	0.80490 0.39240 0.08320 0.05100
H 	H 	0.75560 0.36040 0.01660 0.05000
C 	C 	0.66800 0.34200 0.08300 0.06000
H 	H 	0.63210 0.29250 0.06200 0.01100
H 	H 	0.67990 0.32910 0.12720 0.00200
C 	C 	0.99180 0.88050 0.26550 0.24100
H 	H 	0.00040 0.82700 0.28560 -0.06900
C 	C 	0.05380 0.94490 0.28580 -0.32500
H 	H 	0.10400 0.93500 0.31950 0.14000
C 	C 	0.97020 0.03350 0.21040 -0.27200
H 	H 	0.95990 0.08680 0.19010 0.11400
C 	C 	0.91040 0.96650 0.19190 0.16500
H 	H 	0.85950 0.97470 0.15820 -0.06800
C 	C 	0.04620 0.02370 0.25920 0.24800
C 	C 	0.12140 0.09470 0.27710 -0.64700
H 	H 	0.18590 0.07900 0.26640 0.15700
H 	H 	0.09950 0.14850 0.25600 0.20200
H 	H 	0.17950 0.07280 0.30450 0.03200
H 	H 	0.14250 0.12020 0.24020 0.06300
C 	C 	0.12700 0.10380 0.34470 0.83900
H 	H 	0.05930 0.10760 0.35430 -0.05000
H 	H 	0.15650 0.05150 0.36450 -0.24900
C 	C 	0.18290 0.17780 0.37290 -0.38100
H 	H 	0.21750 0.20280 0.34100 0.09600
H 	H 	0.23370 0.15560 0.40560 0.11300
C 	C 	0.13240 0.24890 0.40020 0.62400
C 	C 	0.18520 0.31660 0.42790 -0.61700
H 	H 	0.25370 0.31800 0.42760 0.21600
C 	C 	0.14460 0.37990 0.45480 0.35000
H 	H 	0.18330 0.42430 0.47510 -0.14900
C 	C 	0.99410 0.31900 0.42230 0.05100
H 	H 	0.92510 0.32600 0.41630 -0.03000
C 	C 	0.03040 0.24850 0.39940 0.10100
H 	H 	0.99030 0.20200 0.38380 0.13700
C 	C 	0.06800 0.15720 0.30940 -0.33200
H 	H 	0.99690 0.14800 0.30180 0.14700
H 	H 	0.08350 0.21640 0.29900 0.08500
C 	C 	0.11300 0.13400 0.37400 -0.45100
H 	H 	0.18370 0.12210 0.37710 0.07200
H 	H 	0.07980 0.08430 0.38910 0.09200
C 	C 	0.09410 0.21480 0.40860 -0.42400
C 	C 	0.16390 0.27680 0.42330 0.04100
H 	H 	0.22980 0.26560 0.41850 0.02500
C 	C 	0.14010 0.35410 0.44480 -0.00300
H 	H 	0.19170 0.39380 0.45510 -0.01700
C 	C 	0.98030 0.31690 0.43880 0.07600
H 	H 	0.91630 0.32680 0.44780 -0.04600
C 	C 	0.99860 0.24110 0.41270 -0.20200
H 	H 	0.94530 0.20540 0.39690 0.01500
H 	H 	0.02420 0.75080 0.40460 0.08000
Cd	Cd	0.17374 0.22767 0.81896 1.18000
S 	S 	0.07157 0.34165 0.68621 0.91800
O 	O 	0.13370 0.28010 0.72120 -0.34700
O 	O 	0.99310 0.37420 0.71710 -0.16600
O 	O 	0.02630 0.30480 0.62630 -0.30900
O 	O 	0.13200 0.41560 0.67200 -0.18000
O 	O 	0.08240 0.31720 0.75250 -0.34800
O 	O 	0.97740 0.38640 0.67160 -0.22700
O 	O 	0.07000 0.26380 0.64970 -0.19100
O 	O 	0.15210 0.39680 0.67670 -0.16900
N 	N 	0.89820 0.03060 0.91080 -0.29800
N 	N 	0.31060 0.18560 0.77660 -0.26300
N 	N 	0.07110 0.87610 0.96180 -0.24700
N 	N 	0.25280 0.35170 0.85830 -0.27000
N 	N 	0.08080 0.11050 0.78150 -0.25500
N 	N 	0.95160 0.62090 0.54730 -0.27700
C 	C 	0.90900 0.10320 0.87980 0.15200
H 	H 	0.96640 0.13610 0.89170 -0.06800
C 	C 	0.84130 0.13170 0.83230 -0.27900
H 	H 	0.85260 0.18330 0.81210 0.10900
C 	C 	0.74770 0.00960 0.84360 -0.35000
H 	H 	0.69210 0.97460 0.83140 0.16700
C 	C 	0.81900 0.98380 0.89100 0.20800
H 	H 	0.81130 0.93080 0.91040 -0.07600
C 	C 	0.75690 0.08620 0.81370 0.25300
C 	C 	0.67610 0.11980 0.76530 -0.35000
H 	H 	0.70470 0.16380 0.74130 0.11400
H 	H 	0.62720 0.14840 0.78670 0.12100
C 	C 	0.62320 0.05710 0.72100 0.13900
H 	H 	0.66970 0.03250 0.69590 -0.03400
H 	H 	0.59820 0.01030 0.74430 -0.01300
C 	C 	0.53950 0.09670 0.67930 -0.31800
H 	H 	0.56410 0.14460 0.65690 0.10500
H 	H 	0.51090 0.05410 0.64850 0.10300
C 	C 	0.46070 0.12870 0.71400 0.19300
C 	C 	0.42900 0.21200 0.71140 -0.23200
H 	H 	0.45900 0.25210 0.68790 0.09300
C 	C 	0.35600 0.23790 0.74170 0.12000
H 	H 	0.33600 0.29560 0.73820 -0.01900
C 	C 	0.34260 0.10540 0.78060 0.11700
H 	H 	0.31310 0.06730 0.80570 -0.04300
C 	C 	0.41450 0.07470 0.75110 -0.23300
H 	H 	0.43350 0.01680 0.75570 0.12100
C 	C 	0.04530 0.79570 0.97160 0.04100
H 	H 	0.98840 0.78620 0.99000 0.00400
C 	C 	0.09710 0.72610 0.95650 -0.17300
H 	H 	0.07640 0.67050 0.96510 0.07200
C 	C 	0.17900 0.73710 0.92870 0.15300
C 	C 	0.20610 0.81950 0.91860 -0.19500
H 	H 	0.26220 0.83030 0.89980 0.11100
C 	C 	0.15170 0.88640 0.93580 0.10700
H 	H 	0.17250 0.94260 0.92880 -0.04400
C 	C 	0.24120 0.66690 0.90380 -0.11400
H 	H 	0.26290 0.68690 0.86540 0.06100
H 	H 	0.20050 0.61550 0.89380 0.04900
C 	C 	0.32890 0.64450 0.94990 0.05100
H 	H 	0.36540 0.69730 0.96270 0.01700
H 	H 	0.30620 0.62030 0.98680 0.01200
C 	C 	0.39770 0.58230 0.92720 -0.33400
H 	H 	0.42790 0.60960 0.89420 0.10700
H 	H 	0.45070 0.56860 0.96130 0.03800
H 	H 	0.45570 0.59240 0.90690 0.03100
H 	H 	0.42070 0.57570 0.97170 0.10600
C 	C 	0.34890 0.50030 0.90260 0.21600
C 	C 	0.33620 0.43300 0.94070 -0.24100
H 	H 	0.36080 0.43660 0.98340 0.11700
C 	C 	0.28820 0.36110 0.91740 0.12500
H 	H 	0.28000 0.31600 0.94480 -0.05600
C 	C 	0.26560 0.41640 0.82120 0.11500
H 	H 	0.24070 0.41140 0.77870 -0.00400
C 	C 	0.31360 0.49060 0.84190 -0.23500
H 	H 	0.32180 0.53460 0.81370 0.10900
C 	C 	0.23400 0.65360 0.93900 -0.11700
H 	H 	0.19510 0.60760 0.91680 0.03400
H 	H 	0.24440 0.63960 0.98340 0.06100
C 	C 	0.33200 0.65800 0.91700 0.02300
H 	H 	0.36790 0.70750 0.93800 0.02000
H 	H 	0.32010 0.67090 0.87280 0.01700
C 	C 	0.00820 0.11950 0.73450 0.00300
H 	H 	0.99960 0.17300 0.71440 0.06100
C 	C 	0.94620 0.05510 0.71420 -0.21400
H 	H 	0.89600 0.06500 0.68050 0.09500
C 	C 	0.02980 0.96650 0.78960 -0.27500
H 	H 	0.04010 0.91320 0.80990 0.10800
C 	C 	0.08960 0.03350 0.80810 0.09800
H 	H 	0.14050 0.02530 0.84180 -0.06200
C 	C 	0.95380 0.97630 0.74080 0.32400
C 	C 	0.87860 0.90530 0.72290 -0.67500
H 	H 	0.81410 0.92100 0.73360 0.14500
H 	H 	0.90050 0.85150 0.74400 0.17600
H 	H 	0.82050 0.92720 0.69550 0.09600
H 	H 	0.85750 0.87980 0.75980 0.09900
C 	C 	0.87300 0.89620 0.65530 0.48600
H 	H 	0.94070 0.89240 0.64570 0.00200
H 	H 	0.84350 0.94850 0.63550 -0.14800
C 	C 	0.81710 0.82220 0.62710 -0.42900
H 	H 	0.78250 0.79720 0.65900 0.12100
H 	H 	0.76630 0.84440 0.59440 0.10300
C 	C 	0.86760 0.75110 0.59980 0.47500
C 	C 	0.81480 0.68340 0.57210 -0.49000
H 	H 	0.74630 0.68200 0.57240 0.17400
C 	C 	0.85540 0.62010 0.54520 0.31000
H 	H 	0.81670 0.57570 0.52490 -0.13400
C 	C 	0.00590 0.68100 0.57770 -0.04700
H 	H 	0.07490 0.67400 0.58370 0.01100
C 	C 	0.96960 0.75150 0.60060 -0.15100
H 	H 	0.00970 0.79800 0.61620 0.08600
C 	C 	0.93200 0.84280 0.69060 -0.00100
H 	H 	0.00310 0.85200 0.69820 0.00400
H 	H 	0.91650 0.78360 0.70100 0.01200
C 	C 	0.88700 0.86600 0.62600 -0.37100
H 	H 	0.81630 0.87790 0.62290 0.15200
H 	H 	0.92020 0.91570 0.61090 0.09700
C 	C 	0.90590 0.78520 0.59140 -0.20000
C 	C 	0.83610 0.72320 0.57670 0.03500
H 	H 	0.77020 0.73440 0.58150 0.02900
C 	C 	0.85990 0.64590 0.55520 -0.02400
H 	H 	0.80830 0.60620 0.54490 -0.00900
C 	C 	0.01970 0.68310 0.56120 0.02400
H 	H 	0.08370 0.67320 0.55220 -0.06000
C 	C 	0.00140 0.75890 0.58730 0.10000
H 	H 	0.05470 0.79460 0.60310 -0.05300
H 	H 	0.97580 0.24920 0.59540 0.12400
Cd	Cd	-0.00000 0.00000 -0.00000 1.11000
Cd	Cd	0.00000 0.50000 0.50000 1.11800
Cd	Cd	0.67374 0.27233 0.31896 1.18100
S 	S 	0.57157 0.15835 0.18621 0.97100
O 	O 	0.63370 0.21990 0.22120 -0.35500
O 	O 	0.49310 0.12580 0.21710 -0.19900
O 	O 	0.52630 0.19520 0.12630 -0.29200
O 	O 	0.63200 0.08440 0.17200 -0.19000
O 	O 	0.58240 0.18280 0.25250 -0.33900
O 	O 	0.47740 0.11360 0.17160 -0.25900
O 	O 	0.57000 0.23620 0.14970 -0.19400
O 	O 	0.65210 0.10320 0.17670 -0.17500
N 	N 	0.39820 0.46940 0.41080 -0.29100
N 	N 	0.81060 0.31440 0.27660 -0.27000
N 	N 	0.57110 0.62390 0.46180 -0.27400
N 	N 	0.75280 0.14830 0.35830 -0.29300
N 	N 	0.58080 0.38950 0.28150 -0.28700
N 	N 	0.45160 0.87910 0.04730 -0.32300
C 	C 	0.40900 0.39680 0.37980 0.12500
H 	H 	0.46640 0.36390 0.39170 -0.08400
C 	C 	0.34130 0.36830 0.33230 -0.24700
H 	H 	0.35260 0.31670 0.31210 0.09100
C 	C 	0.24770 0.49040 0.34360 -0.24400
H 	H 	0.19210 0.52540 0.33140 0.11200
C 	C 	0.31900 0.51620 0.39100 0.11600
H 	H 	0.31130 0.56920 0.41040 -0.06600
C 	C 	0.25690 0.41380 0.31370 0.20100
C 	C 	0.17610 0.38020 0.26530 -0.31400
H 	H 	0.20470 0.33620 0.24130 0.09900
H 	H 	0.12720 0.35160 0.28670 0.10000
C 	C 	0.12320 0.44290 0.22100 0.13400
H 	H 	0.16970 0.46750 0.19590 -0.03100
H 	H 	0.09820 0.48970 0.24430 -0.01100
C 	C 	0.03950 0.40330 0.17930 -0.36400
H 	H 	0.06410 0.35540 0.15690 0.10400
H 	H 	0.01090 0.44590 0.14850 0.10200
C 	C 	0.96070 0.37130 0.21400 0.25100
C 	C 	0.92900 0.28800 0.21140 -0.26300
H 	H 	0.95900 0.24790 0.18790 0.11200
C 	C 	0.85600 0.26210 0.24170 0.13800
H 	H 	0.83600 0.20440 0.23820 -0.02700
C 	C 	0.84260 0.39460 0.28060 0.13600
H 	H 	0.81310 0.43270 0.30570 -0.04300
C 	C 	0.91450 0.42530 0.25110 -0.26000
H 	H 	0.93350 0.48320 0.25570 0.14900
C 	C 	0.54530 0.70430 0.47160 0.10700
H 	H 	0.48840 0.71380 0.49000 -0.06000
C 	C 	0.59710 0.77390 0.45650 -0.22300
H 	H 	0.57640 0.82950 0.46510 0.08900
C 	C 	0.67900 0.76290 0.42870 0.17900
C 	C 	0.70610 0.68050 0.41860 -0.22400
H 	H 	0.76220 0.66970 0.39980 0.11400
C 	C 	0.65170 0.61360 0.43580 0.11100
H 	H 	0.67250 0.55740 0.42880 -0.06300
C 	C 	0.74120 0.83310 0.40380 -0.11800
H 	H 	0.76290 0.81310 0.36540 0.06600
H 	H 	0.70050 0.88450 0.39380 0.04600
C 	C 	0.82890 0.85550 0.44990 0.05800
H 	H 	0.86540 0.80270 0.46270 -0.00200
H 	H 	0.80620 0.87970 0.48680 -0.00500
C 	C 	0.89770 0.91770 0.42720 -0.41500
H 	H 	0.92790 0.89040 0.39420 0.12100
H 	H 	0.95070 0.93140 0.46130 0.05800
H 	H 	0.95570 0.90760 0.40690 0.04600
H 	H 	0.92070 0.92430 0.47170 0.10500
C 	C 	0.84890 0.99970 0.40260 0.34100
C 	C 	0.83620 0.06700 0.44070 -0.33500
H 	H 	0.86080 0.06340 0.48340 0.13100
C 	C 	0.78820 0.13890 0.41740 0.17000
H 	H 	0.78000 0.18400 0.44480 -0.07900
C 	C 	0.76560 0.08360 0.32120 0.17900
H 	H 	0.74070 0.08860 0.27870 -0.03000
C 	C 	0.81360 0.00940 0.34190 -0.37500
H 	H 	0.82180 0.96540 0.31370 0.16900
C 	C 	0.73400 0.84640 0.43900 -0.14900
H 	H 	0.69510 0.89240 0.41680 0.05000
H 	H 	0.74440 0.86040 0.48340 0.06200
C 	C 	0.83200 0.84200 0.41700 0.06600
H 	H 	0.86790 0.79250 0.43800 0.01300
H 	H 	0.82010 0.82910 0.37280 0.00100
C 	C 	0.50820 0.38050 0.23450 0.16400
H 	H 	0.49960 0.32700 0.21440 -0.02300
C 	C 	0.44620 0.44490 0.21420 -0.33200
H 	H 	0.39600 0.43500 0.18050 0.13200
C 	C 	0.52980 0.53350 0.28960 -0.32600
H 	H 	0.54010 0.58680 0.30990 0.12700
C 	C 	0.58960 0.46650 0.30810 0.16200
H 	H 	0.64050 0.47470 0.34180 -0.07500
C 	C 	0.45380 0.52370 0.24080 0.35100
C 	C 	0.37860 0.59470 0.22290 -0.75400
H 	H 	0.31410 0.57900 0.23360 0.17200
H 	H 	0.40050 0.64850 0.24400 0.21100
H 	H 	0.32050 0.57280 0.19550 0.06800
H 	H 	0.35750 0.62020 0.25980 0.09300
C 	C 	0.37300 0.60380 0.15530 0.77300
H 	H 	0.44070 0.60760 0.14570 -0.03700
H 	H 	0.34350 0.55150 0.13550 -0.23300
C 	C 	0.31710 0.67780 0.12710 -0.40400
H 	H 	0.28250 0.70280 0.15900 0.10300
H 	H 	0.26630 0.65560 0.09440 0.09800
C 	C 	0.36760 0.74890 0.09980 0.64800
C 	C 	0.31480 0.81660 0.07210 -0.65800
H 	H 	0.24630 0.81800 0.07240 0.22300
C 	C 	0.35540 0.87990 0.04520 0.37100
H 	H 	0.31670 0.92430 0.02490 -0.16400
C 	C 	0.50590 0.81900 0.07770 -0.01500
H 	H 	0.57490 0.82600 0.08370 0.00100
C 	C 	0.46960 0.74850 0.10060 -0.03700
H 	H 	0.50970 0.70200 0.11620 0.11700
C 	C 	0.43200 0.65720 0.19060 -0.16500
H 	H 	0.50310 0.64800 0.19820 0.07300
H 	H 	0.41650 0.71640 0.20100 0.04700
C 	C 	0.38700 0.63400 0.12600 -0.46900
H 	H 	0.31630 0.62210 0.12290 0.10000
H 	H 	0.42020 0.58430 0.11090 0.10300
C 	C 	0.40590 0.71480 0.09140 -0.40800
C 	C 	0.33610 0.77680 0.07670 0.06500
H 	H 	0.27020 0.76560 0.08150 0.01300
C 	C 	0.35990 0.85410 0.05520 -0.01000
H 	H 	0.30830 0.89380 0.04490 -0.01600
C 	C 	0.51970 0.81690 0.06120 0.03900
H 	H 	0.58370 0.82680 0.05220 -0.06300
C 	C 	0.50140 0.74110 0.08730 -0.00400
H 	H 	0.55470 0.70540 0.10310 -0.04000
H 	H 	0.47580 0.25080 0.09540 0.08800
Cd	Cd	0.32626 0.72767 0.68104 1.18100
S 	S 	0.42843 0.84165 0.81379 0.95900
O 	O 	0.36630 0.78010 0.77880 -0.35400
O 	O 	0.50690 0.87420 0.78290 -0.18900
O 	O 	0.47370 0.80480 0.87370 -0.27300
O 	O 	0.36800 0.91560 0.82800 -0.20100
O 	O 	0.41760 0.81720 0.74750 -0.33200
O 	O 	0.52260 0.88640 0.82840 -0.23900
O 	O 	0.43000 0.76380 0.85030 -0.19500
O 	O 	0.34790 0.89680 0.82330 -0.14000
N 	N 	0.60180 0.53060 0.58920 -0.29000
N 	N 	0.18940 0.68560 0.72340 -0.25700
N 	N 	0.42890 0.37610 0.53820 -0.27100
N 	N 	0.24720 0.85170 0.64170 -0.23900
N 	N 	0.41920 0.61050 0.71850 -0.28400
N 	N 	0.54840 0.12090 0.95270 -0.30100
C 	C 	0.59100 0.60320 0.62020 0.12500
H 	H 	0.53360 0.63610 0.60830 -0.08300
C 	C 	0.65870 0.63170 0.66770 -0.24300
H 	H 	0.64740 0.68330 0.68790 0.09300
C 	C 	0.75230 0.50960 0.65640 -0.23900
H 	H 	0.80790 0.47460 0.66860 0.11500
C 	C 	0.68100 0.48380 0.60900 0.11500
H 	H 	0.68870 0.43080 0.58960 -0.06400
C 	C 	0.74310 0.58620 0.68630 0.19800
C 	C 	0.82390 0.61980 0.73470 -0.29600
H 	H 	0.79530 0.66380 0.75870 0.10300
H 	H 	0.87280 0.64840 0.71330 0.11600
C 	C 	0.87680 0.55710 0.77900 0.08300
H 	H 	0.83030 0.53250 0.80410 -0.00600
H 	H 	0.90180 0.51030 0.75570 0.01800
C 	C 	0.96050 0.59670 0.82070 -0.24400
H 	H 	0.93590 0.64460 0.84310 0.09800
H 	H 	0.98910 0.55410 0.85150 0.10400
C 	C 	0.03930 0.62870 0.78600 0.13200
C 	C 	0.07100 0.71200 0.78860 -0.19800
H 	H 	0.04100 0.75210 0.81210 0.07600
C 	C 	0.14400 0.73790 0.75830 0.10100
H 	H 	0.16400 0.79560 0.76180 -0.01200
C 	C 	0.15740 0.60540 0.71940 0.09800
H 	H 	0.18690 0.56730 0.69430 -0.03500
C 	C 	0.08550 0.57470 0.74890 -0.20000
H 	H 	0.06650 0.51680 0.74430 0.10600
C 	C 	0.45470 0.29570 0.52840 0.09800
H 	H 	0.51160 0.28620 0.51000 -0.05800
C 	C 	0.40290 0.22610 0.54350 -0.20700
H 	H 	0.42360 0.17050 0.53490 0.07800
C 	C 	0.32100 0.23710 0.57130 0.15400
C 	C 	0.29390 0.31950 0.58140 -0.20900
H 	H 	0.23780 0.33030 0.60020 0.10700
C 	C 	0.34830 0.38640 0.56420 0.10400
H 	H 	0.32750 0.44260 0.57120 -0.06200
C 	C 	0.25880 0.16690 0.59620 -0.08900
H 	H 	0.23710 0.18690 0.63460 0.05200
H 	H 	0.29950 0.11550 0.60620 0.04000
C 	C 	0.17110 0.14450 0.55010 0.00700
H 	H 	0.13460 0.19730 0.53730 0.01500
H 	H 	0.19380 0.12030 0.51320 0.01300
C 	C 	0.10230 0.08230 0.57280 -0.20500
H 	H 	0.07210 0.10960 0.60580 0.09200
H 	H 	0.04930 0.06860 0.53870 -0.00400
H 	H 	0.04430 0.09240 0.59310 -0.01000
H 	H 	0.07930 0.07570 0.52830 0.07900
C 	C 	0.15110 0.00030 0.59740 0.02800
C 	C 	0.16380 0.93300 0.55930 -0.10400
H 	H 	0.13920 0.93660 0.51660 0.05700
C 	C 	0.21180 0.86110 0.58260 0.05300
H 	H 	0.22000 0.81600 0.55520 -0.04300
C 	C 	0.23440 0.91640 0.67880 0.02500
H 	H 	0.25930 0.91140 0.72130 0.03200
C 	C 	0.18640 0.99060 0.65810 -0.03800
H 	H 	0.17820 0.03460 0.68630 0.02700
C 	C 	0.26600 0.15360 0.56100 -0.11500
H 	H 	0.30490 0.10760 0.58320 0.03400
H 	H 	0.25560 0.13960 0.51660 0.04700
C 	C 	0.16800 0.15800 0.58300 0.01000
H 	H 	0.13210 0.20750 0.56200 0.01800
H 	H 	0.17990 0.17090 0.62720 0.02000
C 	C 	0.49180 0.61950 0.76550 0.15700
H 	H 	0.50040 0.67300 0.78560 -0.01800
C 	C 	0.55380 0.55510 0.78580 -0.31400
H 	H 	0.60400 0.56500 0.81950 0.13400
C 	C 	0.47020 0.46650 0.71040 -0.30800
H 	H 	0.45990 0.41320 0.69010 0.12100
C 	C 	0.41040 0.53350 0.69190 0.15400
H 	H 	0.35950 0.52530 0.65820 -0.07300
C 	C 	0.54620 0.47630 0.75920 0.32300
C 	C 	0.62140 0.40530 0.77710 -0.67100
H 	H 	0.68590 0.42100 0.76640 0.14800
H 	H 	0.59950 0.35150 0.75600 0.18500
H 	H 	0.67950 0.42720 0.80450 0.08000
H 	H 	0.64250 0.37980 0.74020 0.08700
C 	C 	0.62700 0.39620 0.84470 0.58100
H 	H 	0.55930 0.39240 0.85430 -0.02100
H 	H 	0.65650 0.44850 0.86450 -0.17400
C 	C 	0.68290 0.32220 0.87290 -0.43400
H 	H 	0.71750 0.29720 0.84100 0.12200
H 	H 	0.73370 0.34440 0.90560 0.12400
C 	C 	0.63240 0.25110 0.90020 0.49900
C 	C 	0.68520 0.18340 0.92790 -0.49400
H 	H 	0.75370 0.18200 0.92760 0.18400
C 	C 	0.64460 0.12010 0.95480 0.31300
H 	H 	0.68330 0.07570 0.97510 -0.11600
C 	C 	0.49410 0.18100 0.92230 0.01300
H 	H 	0.42510 0.17400 0.91630 -0.01800
C 	C 	0.53040 0.25150 0.89940 -0.02800
H 	H 	0.49030 0.29800 0.88380 0.10300
C 	C 	0.56800 0.34280 0.80940 -0.11400
H 	H 	0.49690 0.35200 0.80180 0.05600
H 	H 	0.58350 0.28360 0.79900 0.03400
C 	C 	0.61300 0.36600 0.87400 -0.36900
H 	H 	0.68370 0.37790 0.87710 0.13000
H 	H 	0.57980 0.41570 0.88910 0.09500
C 	C 	0.59410 0.28520 0.90860 -0.24700
C 	C 	0.66390 0.22320 0.92330 0.02100
H 	H 	0.72980 0.23440 0.91850 0.03900
C 	C 	0.64010 0.14590 0.94480 -0.01100
H 	H 	0.69170 0.10620 0.95510 -0.01700
C 	C 	0.48030 0.18310 0.93880 0.05200
H 	H 	0.41630 0.17320 0.94780 -0.04000
C 	C 	0.49860 0.25890 0.91270 -0.06400
H 	H 	0.44530 0.29460 0.89690 -0.00800
H 	H 	0.52420 0.74920 0.90460 0.11100
Cd	Cd	0.50000 0.50000 0.50000 1.15100
Cd	Cd	0.50000 0.00000 -0.00000 1.10100
