data_crystal

_cell_length_a 7.23300
_cell_length_b 21.75820
_cell_length_c 21.75820
_cell_angle_alpha 60.04780
_cell_angle_beta  90.00000
_cell_angle_gamma 90.00000

_symmetry_space_group_name_	'P 1'
_symmetry_space_group_name_H-M	'P 1'

loop_
_symmetry_equiv_pos_as_xyz
  x,y,z

loop_
_atom_site_label
_atom_site_type_symbol
_atom_site_fract_x
_atom_site_fract_y
_atom_site_fract_z
_atom_site_charge
In	In	0.00000 0.00000 0.50000 1.90200
In	In	0.50000 0.00000 0.50000 1.93000
In	In	0.50000 0.50000 -0.00000 1.92900
In	In	-0.00000 0.50000 -0.00000 1.90100
In	In	-0.00000 0.00000 -0.00000 1.83500
In	In	0.50000 0.00000 -0.00000 1.86300
H 	H 	0.44921 0.79512 0.67950 0.05300
H 	H 	0.05024 0.96868 0.32256 -0.02500
H 	H 	0.05082 0.96904 0.20798 -0.02300
H 	H 	0.94921 0.20488 0.32050 0.09300
H 	H 	0.55024 0.03132 0.67744 0.02600
H 	H 	0.55082 0.03096 0.79202 0.01700
H 	H 	0.05079 0.67950 0.79512 -0.01700
H 	H 	0.44976 0.32256 0.96868 0.04600
H 	H 	0.44918 0.20798 0.96904 0.05500
H 	H 	0.55079 0.32050 0.20488 0.01100
H 	H 	0.94976 0.67744 0.03132 0.10500
H 	H 	0.94918 0.79202 0.03096 0.11000
H 	H 	0.55079 0.20488 0.32050 0.01200
H 	H 	0.94976 0.03132 0.67744 0.10600
H 	H 	0.94918 0.03096 0.79202 0.09600
H 	H 	0.05079 0.79512 0.67950 -0.02600
H 	H 	0.44976 0.96868 0.32256 0.05400
H 	H 	0.44918 0.96904 0.20798 0.05600
H 	H 	0.94921 0.32050 0.20488 0.09300
H 	H 	0.55024 0.67744 0.03132 0.02600
H 	H 	0.55082 0.79202 0.03096 0.03100
H 	H 	0.44921 0.67950 0.79512 0.06200
H 	H 	0.05024 0.32256 0.96868 -0.03200
H 	H 	0.05082 0.20798 0.96904 -0.02400
C 	C 	0.58560 0.76793 0.70467 0.03400
C 	C 	0.91390 0.96959 0.29583 0.11600
C 	C 	0.91420 0.96910 0.23408 0.09900
C 	C 	0.08560 0.23207 0.29533 -0.11000
C 	C 	0.41390 0.03041 0.70417 -0.00900
C 	C 	0.41420 0.03090 0.76592 -0.00400
C 	C 	0.91440 0.70467 0.76793 0.11500
C 	C 	0.58610 0.29583 0.96959 0.03300
C 	C 	0.58580 0.23408 0.96910 0.00900
C 	C 	0.41440 0.29533 0.23207 -0.01900
C 	C 	0.08610 0.70417 0.03041 -0.09200
C 	C 	0.08580 0.76592 0.03090 -0.10100
C 	C 	0.41440 0.23207 0.29533 -0.01900
C 	C 	0.08610 0.03041 0.70417 -0.09800
C 	C 	0.08580 0.03090 0.76592 -0.09200
C 	C 	0.91440 0.76793 0.70467 0.12200
C 	C 	0.58610 0.96959 0.29583 0.02800
C 	C 	0.58580 0.96910 0.23408 0.01100
C 	C 	0.08560 0.29533 0.23207 -0.11000
C 	C 	0.41390 0.70417 0.03041 -0.00300
C 	C 	0.41420 0.76592 0.03090 -0.01300
C 	C 	0.58560 0.70467 0.76793 0.02700
C 	C 	0.91390 0.29583 0.96959 0.12000
C 	C 	0.91420 0.23408 0.96910 0.09600
C 	C 	0.75000 0.87070 0.60596 0.46700
C 	C 	0.75000 0.79786 0.67230 -0.10500
C 	C 	0.75000 0.97748 0.39386 0.48000
C 	C 	0.75000 0.97119 0.32755 -0.10600
C 	C 	0.75000 0.96867 0.20249 -0.09500
C 	C 	0.75000 0.97075 0.13125 0.42700
C 	C 	0.25000 0.12930 0.39404 0.43800
C 	C 	0.25000 0.20214 0.32770 -0.12100
C 	C 	0.25000 0.02252 0.60614 0.45800
C 	C 	0.25000 0.02881 0.67245 -0.12700
C 	C 	0.25000 0.03133 0.79751 -0.11500
C 	C 	0.25000 0.02925 0.86875 0.45700
C 	C 	0.75000 0.60596 0.87070 0.45700
C 	C 	0.75000 0.67230 0.79786 -0.09400
C 	C 	0.75000 0.39386 0.97748 0.48900
C 	C 	0.75000 0.32755 0.97119 -0.11400
C 	C 	0.75000 0.20249 0.96867 -0.09400
C 	C 	0.75000 0.13125 0.97075 0.42700
C 	C 	0.25000 0.39404 0.12930 0.43600
C 	C 	0.25000 0.32770 0.20214 -0.12200
C 	C 	0.25000 0.60614 0.02252 0.46200
C 	C 	0.25000 0.67245 0.02881 -0.13200
C 	C 	0.25000 0.79751 0.03133 -0.10100
C 	C 	0.25000 0.86875 0.02925 0.44100
O 	O 	0.90435 0.89714 0.58072 -0.41500
O 	O 	0.90194 0.97733 0.42005 -0.41900
O 	O 	0.90353 0.97182 0.10416 -0.44500
O 	O 	0.40435 0.10286 0.41928 -0.64500
O 	O 	0.40194 0.02267 0.57995 -0.64400
O 	O 	0.40353 0.02818 0.89584 -0.55700
O 	O 	0.59565 0.58072 0.89714 -0.45000
O 	O 	0.59806 0.42005 0.97733 -0.48300
O 	O 	0.59647 0.10416 0.97182 -0.50700
O 	O 	0.09565 0.41928 0.10286 -0.69800
O 	O 	0.09806 0.57995 0.02267 -0.68800
O 	O 	0.09647 0.89584 0.02818 -0.57900
O 	O 	0.09565 0.10286 0.41928 -0.69200
O 	O 	0.09806 0.02267 0.57995 -0.69000
O 	O 	0.09647 0.02818 0.89584 -0.60300
O 	O 	0.59565 0.89714 0.58072 -0.46700
O 	O 	0.59806 0.97733 0.42005 -0.47100
O 	O 	0.59647 0.97182 0.10416 -0.49800
O 	O 	0.40435 0.41928 0.10286 -0.65100
O 	O 	0.40194 0.57995 0.02267 -0.64200
O 	O 	0.40353 0.89584 0.02818 -0.53400
O 	O 	0.90435 0.58072 0.89714 -0.39800
O 	O 	0.90194 0.42005 0.97733 -0.43100
O 	O 	0.90353 0.10416 0.97182 -0.45400
O 	O 	0.75000 0.04861 0.50117 -0.83600
O 	O 	0.25000 0.95139 0.49883 -0.64400
O 	O 	0.75000 0.50117 0.04861 -0.83800
O 	O 	0.25000 0.49883 0.95139 -0.64300
O 	O 	0.75000 0.97584 0.97584 -0.45800
O 	O 	0.25000 0.02416 0.02416 -1.07400
H 	H 	0.75017 0.45650 0.09481 0.17900
H 	H 	0.24997 0.90520 0.54350 0.16700
H 	H 	0.75003 0.09481 0.45651 0.17900
H 	H 	0.24999 0.45304 0.95201 0.17000
H 	H 	0.25000 0.07641 0.00248 0.02600
H 	H 	0.74995 0.99789 0.92356 0.31500
