data_crystal

_cell_length_a 21.18690
_cell_length_b 21.18690
_cell_length_c 6.74230
_cell_angle_alpha 90.00000
_cell_angle_beta  90.00000
_cell_angle_gamma 59.96600

_symmetry_space_group_name_	'P 1'
_symmetry_space_group_name_H-M	'P 1'

loop_
_symmetry_equiv_pos_as_xyz
  x,y,z

loop_
_atom_site_label
_atom_site_type_symbol
_atom_site_fract_x
_atom_site_fract_y
_atom_site_fract_z
_atom_site_charge
H 	H 	0.32147 0.20907 0.94430 0.11700
H 	H 	0.67752 0.02892 0.94430 0.11900
H 	H 	0.79232 0.02380 0.94430 0.13400
C 	C 	0.29833 0.23221 0.07018 -0.14000
C 	C 	0.70115 0.02787 0.07018 -0.12600
C 	C 	0.76868 0.02486 0.07018 -0.12900
O 	O 	0.43173 0.09881 0.08944 -0.73300
O 	O 	0.56488 0.03394 0.08944 -0.73000
O 	O 	0.90496 0.01878 0.08944 -0.63800
H 	H 	0.50000 0.90680 0.25000 0.22400
H 	H 	0.67853 0.79093 0.44430 0.06100
H 	H 	0.32248 0.97108 0.44430 0.05500
H 	H 	0.20768 0.97620 0.44430 0.06900
C 	C 	0.70167 0.76779 0.57018 0.02900
C 	C 	0.29885 0.97213 0.57018 0.03200
C 	C 	0.23132 0.97514 0.57018 0.00700
O 	O 	0.56827 0.90119 0.58944 -0.49800
O 	O 	0.43512 0.96606 0.58944 -0.50800
O 	O 	0.09504 0.98122 0.58944 -0.54500
H 	H 	0.50000 0.09320 0.75000 0.31200
H 	H 	0.20907 0.32147 0.55570 0.02100
H 	H 	0.02892 0.67752 0.55570 0.02400
H 	H 	0.02380 0.79232 0.55570 0.04000
C 	C 	0.23221 0.29833 0.42982 -0.02400
C 	C 	0.02787 0.70115 0.42982 -0.01100
C 	C 	0.02486 0.76868 0.42982 -0.01700
O 	O 	0.09881 0.43173 0.41056 -0.68700
O 	O 	0.03394 0.56488 0.41056 -0.68500
O 	O 	0.01878 0.90496 0.41056 -0.59400
H 	H 	0.90680 0.50000 0.25000 0.22400
H 	H 	0.79093 0.67853 0.05570 -0.03400
H 	H 	0.97108 0.32248 0.05570 -0.04000
H 	H 	0.97620 0.20768 0.05570 -0.02600
C 	C 	0.76779 0.70167 0.92982 0.14000
C 	C 	0.97213 0.29885 0.92982 0.14300
C 	C 	0.97514 0.23132 0.92982 0.11800
O 	O 	0.90119 0.56827 0.91056 -0.44900
O 	O 	0.96606 0.43512 0.91056 -0.45900
O 	O 	0.98122 0.09504 0.91056 -0.49500
H 	H 	0.09320 0.50000 0.75000 0.31200
H 	H 	0.67853 0.79093 0.05570 -0.03400
H 	H 	0.32248 0.97108 0.05570 -0.04000
H 	H 	0.20768 0.97620 0.05570 -0.02600
C 	C 	0.70167 0.76779 0.92982 0.14000
C 	C 	0.29885 0.97213 0.92982 0.14300
C 	C 	0.23132 0.97514 0.92982 0.11800
O 	O 	0.56827 0.90119 0.91056 -0.44900
O 	O 	0.43512 0.96606 0.91056 -0.45900
O 	O 	0.09504 0.98122 0.91056 -0.49500
H 	H 	0.32147 0.20907 0.55570 0.02100
H 	H 	0.67752 0.02892 0.55570 0.02400
H 	H 	0.79232 0.02380 0.55570 0.04000
C 	C 	0.29833 0.23221 0.42982 -0.02400
C 	C 	0.70115 0.02787 0.42982 -0.01100
C 	C 	0.76868 0.02486 0.42982 -0.01700
O 	O 	0.43173 0.09881 0.41056 -0.68700
O 	O 	0.56488 0.03394 0.41056 -0.68500
O 	O 	0.90496 0.01878 0.41056 -0.59400
H 	H 	0.79093 0.67853 0.44430 0.06100
H 	H 	0.97108 0.32248 0.44430 0.05500
H 	H 	0.97620 0.20768 0.44430 0.06900
C 	C 	0.76779 0.70167 0.57018 0.02900
C 	C 	0.97213 0.29885 0.57018 0.03200
C 	C 	0.97514 0.23132 0.57018 0.00700
O 	O 	0.90119 0.56827 0.58944 -0.49800
O 	O 	0.96606 0.43512 0.58944 -0.50800
O 	O 	0.98122 0.09504 0.58944 -0.54500
H 	H 	0.20907 0.32147 0.94430 0.11800
H 	H 	0.02892 0.67752 0.94430 0.12000
H 	H 	0.02380 0.79232 0.94430 0.13500
C 	C 	0.23221 0.29833 0.07018 -0.13900
C 	C 	0.02787 0.70115 0.07018 -0.12500
C 	C 	0.02486 0.76868 0.07018 -0.12800
O 	O 	0.09881 0.43173 0.08944 -0.73200
O 	O 	0.03394 0.56488 0.08944 -0.72900
O 	O 	0.01878 0.90496 0.08944 -0.63800
Ga	Ga	0.50000 0.00000 -0.00000 2.00400
Ga	Ga	0.50000 0.00000 0.50000 2.02400
Ga	Ga	0.00000 0.50000 0.50000 2.02400
Ga	Ga	0.00000 0.50000 -0.00000 2.00400
Ga	Ga	-0.00000 0.00000 -0.00000 1.93500
Ga	Ga	0.00000 0.00000 0.50000 1.95400
C 	C 	0.40222 0.12832 0.25000 0.48700
C 	C 	0.33138 0.19916 0.25000 -0.14100
C 	C 	0.59502 0.03260 0.25000 0.48700
C 	C 	0.66739 0.02937 0.25000 -0.13900
C 	C 	0.80245 0.02335 0.25000 -0.11000
C 	C 	0.87481 0.02013 0.25000 0.51000
O 	O 	0.50000 0.95400 0.25000 -0.69600
C 	C 	0.59778 0.87168 0.75000 0.51800
C 	C 	0.66862 0.80084 0.75000 -0.10900
C 	C 	0.40498 0.96740 0.75000 0.52100
C 	C 	0.33261 0.97063 0.75000 -0.12000
C 	C 	0.19755 0.97665 0.75000 -0.10600
C 	C 	0.12519 0.97987 0.75000 0.48700
O 	O 	0.50000 0.04600 0.75000 -0.97700
C 	C 	0.12832 0.40222 0.25000 0.48700
C 	C 	0.19916 0.33138 0.25000 -0.14100
C 	C 	0.03260 0.59502 0.25000 0.48700
C 	C 	0.02937 0.66739 0.25000 -0.13900
C 	C 	0.02335 0.80245 0.25000 -0.11000
C 	C 	0.02013 0.87481 0.25000 0.51000
O 	O 	0.95400 0.50000 0.25000 -0.69600
C 	C 	0.87168 0.59778 0.75000 0.51800
C 	C 	0.80084 0.66862 0.75000 -0.10900
C 	C 	0.96740 0.40498 0.75000 0.52100
C 	C 	0.97063 0.33261 0.75000 -0.12000
C 	C 	0.97665 0.19755 0.75000 -0.10600
C 	C 	0.97987 0.12519 0.75000 0.48700
O 	O 	0.04600 0.50000 0.75000 -0.97700
O 	O 	0.02563 0.02563 0.25000 -1.12900
O 	O 	0.97437 0.97437 0.75000 -0.20200
