data_crystal

_cell_length_a 10.06300
_cell_length_b 13.02960
_cell_length_c 16.83730
_cell_angle_alpha 90.00000
_cell_angle_beta  90.00000
_cell_angle_gamma 109.82100

_symmetry_space_group_name_	'P 1'
_symmetry_space_group_name_H-M	'P 1'

loop_
_symmetry_equiv_pos_as_xyz
  x,y,z

loop_
_atom_site_label
_atom_site_type_symbol
_atom_site_fract_x
_atom_site_fract_y
_atom_site_fract_z
_atom_site_charge
Ba	Ba	0.52482 0.71135 0.70886 1.75400
Ba	Ba	0.02482 0.21135 0.79114 1.74500
Ba	Ba	0.47518 0.28865 0.29114 1.75500
Ba	Ba	0.97518 0.78865 0.20886 1.74600
Cd	Cd	0.63015 0.59996 0.29895 1.21900
Cd	Cd	0.86985 0.90004 0.79895 1.21700
Cd	Cd	0.36985 0.40004 0.70105 1.21900
Cd	Cd	0.13015 0.09996 0.20105 1.21700
H 	H 	0.97920 0.68040 0.49700 0.10200
H 	H 	0.38200 0.65490 0.08430 0.09100
H 	H 	0.61800 0.34510 0.91570 0.09100
H 	H 	0.33980 0.87100 0.04730 -0.02900
H 	H 	0.74090 0.88050 0.05460 -0.01700
H 	H 	0.39820 0.64170 0.94790 -0.04200
H 	H 	0.73960 0.68310 0.03220 -0.04300
H 	H 	0.68880 0.49890 0.83770 -0.02600
H 	H 	0.16020 0.62900 0.54730 -0.04700
H 	H 	0.11270 0.57660 0.30290 -0.06000
H 	H 	0.23960 0.18310 0.46780 -0.04300
H 	H 	0.10180 0.85830 0.44790 -0.04200
H 	H 	0.89820 0.14170 0.55210 -0.04200
H 	H 	0.75910 0.61950 0.55460 -0.03100
H 	H 	0.26040 0.31690 0.96780 -0.04300
H 	H 	0.88730 0.42340 0.69710 -0.06000
H 	H 	0.24090 0.38050 0.44540 -0.03100
H 	H 	0.11800 0.84510 0.58430 0.09000
H 	H 	0.25910 0.11950 0.94540 -0.01700
H 	H 	0.52080 0.81960 0.99700 0.08100
H 	H 	0.02080 0.31960 0.50300 0.10200
H 	H 	0.66020 0.12900 0.95270 -0.02900
H 	H 	0.61270 0.07660 0.19710 -0.04600
H 	H 	0.31120 0.50110 0.16230 -0.02600
H 	H 	0.88200 0.15490 0.41570 0.09000
H 	H 	0.83980 0.37100 0.45270 -0.04700
H 	H 	0.60180 0.35830 0.05210 -0.04200
H 	H 	0.18880 0.99890 0.66230 -0.02000
H 	H 	0.47920 0.18040 0.00300 0.08100
H 	H 	0.38730 0.92340 0.80290 -0.04600
H 	H 	0.76040 0.81690 0.53220 -0.04300
H 	H 	0.81120 0.00110 0.33770 -0.02000
C 	C 	0.33140 0.47760 0.94350 -0.26000
C 	C 	0.66860 0.52240 0.05650 -0.26000
C 	C 	0.34460 0.52800 0.33200 0.40500
C 	C 	0.46170 0.13150 0.96080 -0.18300
C 	C 	0.15540 0.97200 0.83200 0.39200
C 	C 	0.22360 0.10690 0.57240 -0.22100
C 	C 	0.59330 0.02260 0.15830 0.12500
C 	C 	0.68520 0.50520 0.89260 0.13500
C 	C 	0.54030 0.01910 0.87380 -0.21900
C 	C 	0.71440 0.61450 0.00880 0.15700
C 	C 	0.40670 0.97740 0.84170 0.12500
C 	C 	0.95970 0.48090 0.37380 -0.26400
C 	C 	0.96170 0.63150 0.53920 -0.23300
C 	C 	0.56920 0.09850 0.93260 0.11400
C 	C 	0.16860 0.02240 0.44350 -0.26400
C 	C 	0.18520 0.00520 0.60740 0.12000
C 	C 	0.28560 0.38550 0.99120 0.15700
C 	C 	0.15200 0.47540 0.65400 0.44900
C 	C 	0.43080 0.90150 0.06740 0.11400
C 	C 	0.13230 0.92110 0.47880 0.15800
C 	C 	0.77640 0.89310 0.42760 -0.22100
C 	C 	0.31480 0.49480 0.10740 0.13500
C 	C 	0.86770 0.07890 0.52120 0.15800
C 	C 	0.69940 0.98390 0.13250 -0.20000
C 	C 	0.22720 0.29230 0.12190 0.39600
C 	C 	0.78560 0.88550 0.50880 0.15500
C 	C 	0.06920 0.59850 0.56740 0.15900
C 	C 	0.53830 0.86850 0.03920 -0.18300
C 	C 	0.64160 0.41350 0.93930 -0.22600
C 	C 	0.36770 0.57890 0.97880 0.15000
C 	C 	0.65200 0.97540 0.84600 0.41500
C 	C 	0.72720 0.79230 0.37810 0.39300
C 	C 	0.35840 0.58650 0.06070 -0.22600
C 	C 	0.72360 0.60690 0.92760 -0.22600
C 	C 	0.09330 0.52260 0.34170 0.17100
C 	C 	0.81480 0.99480 0.39260 0.12000
C 	C 	0.67070 0.90640 0.07230 0.11000
C 	C 	0.14160 0.91350 0.56070 -0.22100
C 	C 	0.32930 0.09360 0.92770 0.11000
C 	C 	0.19940 0.48390 0.36750 -0.23100
C 	C 	0.27640 0.39310 0.07240 -0.22600
C 	C 	0.93080 0.40150 0.43260 0.15900
C 	C 	0.83140 0.97760 0.55650 -0.26400
C 	C 	0.45970 0.98090 0.12620 -0.21900
C 	C 	0.30060 0.01610 0.86750 -0.20000
C 	C 	0.82930 0.59360 0.57230 0.14700
C 	C 	0.80060 0.51610 0.63250 -0.23100
C 	C 	0.85840 0.08650 0.43930 -0.22100
C 	C 	0.65360 0.53370 0.14370 0.45900
C 	C 	0.04030 0.51910 0.62620 -0.26400
C 	C 	0.90670 0.47740 0.65830 0.17100
C 	C 	0.15360 0.03370 0.35630 0.44700
C 	C 	0.77280 0.70770 0.87810 0.39600
C 	C 	0.27280 0.20770 0.62190 0.39300
C 	C 	0.17070 0.40640 0.42770 0.14700
C 	C 	0.63230 0.42110 0.02120 0.15000
C 	C 	0.84800 0.52460 0.34600 0.44900
C 	C 	0.84640 0.96630 0.64370 0.44700
C 	C 	0.65540 0.47200 0.66800 0.40500
C 	C 	0.84460 0.02800 0.16800 0.39200
C 	C 	0.03830 0.36850 0.46080 -0.23300
C 	C 	0.34640 0.46630 0.85630 0.45900
C 	C 	0.21440 0.11450 0.49120 0.15500
C 	C 	0.34800 0.02460 0.15400 0.41500
O 	O 	0.25230 0.29680 0.19410 -0.51400
O 	O 	0.09770 0.95140 0.31540 -0.53300
O 	O 	0.42530 0.47320 0.34330 -0.55100
O 	O 	0.30170 0.37100 0.82810 -0.57000
O 	O 	0.88280 0.11470 0.20620 -0.39900
O 	O 	0.88560 0.61610 0.31220 -0.55800
O 	O 	0.75230 0.79680 0.30590 -0.51300
O 	O 	0.61440 0.88390 0.81220 -0.55100
O 	O 	0.16090 0.20360 0.08740 -0.42900
O 	O 	0.92530 0.97320 0.15670 -0.55000
O 	O 	0.61720 0.38530 0.70620 -0.40200
O 	O 	0.11440 0.38390 0.68780 -0.55800
O 	O 	0.80170 0.87100 0.67190 -0.56900
O 	O 	0.24770 0.20320 0.69410 -0.51300
O 	O 	0.69830 0.62900 0.17190 -0.57000
O 	O 	0.66090 0.70360 0.41260 -0.42600
O 	O 	0.07470 0.02680 0.84330 -0.55000
O 	O 	0.72050 0.47070 0.35760 -0.53500
O 	O 	0.38280 0.61470 0.29380 -0.40200
O 	O 	0.59770 0.45140 0.18460 -0.54600
O 	O 	0.11720 0.88530 0.79380 -0.39900
O 	O 	0.33910 0.29640 0.58740 -0.42600
O 	O 	0.38560 0.11610 0.18780 -0.55100
O 	O 	0.83910 0.79640 0.91260 -0.42900
O 	O 	0.90230 0.04860 0.68460 -0.53300
O 	O 	0.27950 0.52930 0.64240 -0.53500
O 	O 	0.19830 0.12900 0.32810 -0.56900
O 	O 	0.22050 0.97070 0.14240 -0.51700
O 	O 	0.77950 0.02930 0.85760 -0.51700
O 	O 	0.74770 0.70320 0.80590 -0.51400
O 	O 	0.57470 0.52680 0.65670 -0.55100
O 	O 	0.40230 0.54860 0.81540 -0.54600
