data_crystal

_cell_length_a 8.95300
_cell_length_b 8.95300
_cell_length_c 21.92900
_cell_angle_alpha 90.00000
_cell_angle_beta  90.00000
_cell_angle_gamma 120.00000

_symmetry_space_group_name_	'P 1'
_symmetry_space_group_name_H-M	'P 1'

loop_
_symmetry_equiv_pos_as_xyz
  x,y,z

loop_
_atom_site_label
_atom_site_type_symbol
_atom_site_fract_x
_atom_site_fract_y
_atom_site_fract_z
_atom_site_charge
Cd	Cd	0.00000 0.00000 0.37498 1.10700
C 	C 	-0.00000 0.00000 0.47610 -0.37200
N 	N 	0.00000 0.00000 0.52390 -0.26000
Cd	Cd	0.66667 0.33333 0.70831 1.14700
C 	C 	0.66667 0.33333 0.80943 -0.30400
N 	N 	0.66667 0.33333 0.85723 -0.24200
Cd	Cd	0.33333 0.66667 0.04165 1.14500
C 	C 	0.33333 0.66667 0.14277 -0.30500
N 	N 	0.33333 0.66667 0.19057 -0.24000
Cd	Cd	-0.00000 0.00000 0.62502 1.10100
Cd	Cd	0.66667 0.33333 0.95835 1.14200
Cd	Cd	0.33333 0.66667 0.29169 1.14400
C 	C 	0.13380 0.86620 0.34110 -0.25900
C 	C 	0.80047 0.19953 0.67443 -0.29100
C 	C 	0.46713 0.53287 0.00777 -0.28800
C 	C 	0.13380 0.26760 0.34110 -0.33500
C 	C 	0.80047 0.60093 0.67443 -0.29600
C 	C 	0.46713 0.93427 0.00777 -0.13300
C 	C 	0.73240 0.86620 0.34110 -0.19000
C 	C 	0.39907 0.19953 0.67443 -0.28400
C 	C 	0.06573 0.53287 0.00777 -0.44300
C 	C 	0.86620 0.13380 0.65890 -0.26200
C 	C 	0.53287 0.46713 0.99223 -0.29100
C 	C 	0.19953 0.80047 0.32557 -0.29300
C 	C 	0.26760 0.13380 0.65890 -0.33900
C 	C 	0.93427 0.46713 0.99223 -0.13400
C 	C 	0.60093 0.80047 0.32557 -0.29900
C 	C 	0.86620 0.73240 0.65890 -0.19400
C 	C 	0.53287 0.06573 0.99223 -0.44500
C 	C 	0.19953 0.39907 0.32557 -0.28700
