data_crystal

_cell_length_a 15.68300
_cell_length_b 15.68300
_cell_length_c 11.55260
_cell_angle_alpha 90.00000
_cell_angle_beta  90.00000
_cell_angle_gamma 120.00000

_symmetry_space_group_name_	'P 1'
_symmetry_space_group_name_H-M	'P 1'

loop_
_symmetry_equiv_pos_as_xyz
  x,y,z

loop_
_atom_site_label
_atom_site_type_symbol
_atom_site_fract_x
_atom_site_fract_y
_atom_site_fract_z
_atom_site_charge
O 	O 	0.93450 0.57200 0.77570 -0.36400
O 	O 	0.87180 0.41500 0.79110 -0.37600
C 	C 	0.87420 0.49310 0.82300 0.37000
C 	C 	0.80820 0.49620 0.91040 -0.15300
C 	C 	0.73260 0.40670 0.95640 0.21500
C 	C 	0.82380 0.58530 0.95350 0.21700
N 	N 	0.89760 0.67900 0.91300 -0.01200
N 	N 	0.71300 0.31310 0.91600 -0.04500
O 	O 	0.42800 0.36250 0.44237 -0.42900
O 	O 	0.58500 0.45680 0.45777 -0.39900
C 	C 	0.50690 0.38110 0.48967 0.35000
C 	C 	0.50380 0.31200 0.57707 -0.10700
C 	C 	0.59330 0.32590 0.62307 0.08400
C 	C 	0.41470 0.23850 0.62017 0.08800
N 	N 	0.32100 0.21860 0.57967 -0.07200
N 	N 	0.68690 0.39990 0.58267 -0.04700
O 	O 	0.63750 0.06550 0.10903 -0.47800
O 	O 	0.54320 0.12820 0.12443 -0.45500
C 	C 	0.61890 0.12580 0.15633 0.35800
C 	C 	0.68800 0.19180 0.24373 -0.12400
C 	C 	0.67410 0.26740 0.28973 0.08400
C 	C 	0.76150 0.17620 0.28683 0.09200
N 	N 	0.78140 0.10240 0.24633 -0.07100
N 	N 	0.60010 0.28700 0.24933 -0.05800
O 	O 	0.06550 0.42800 0.77570 -0.46400
O 	O 	0.12820 0.58500 0.79110 -0.42900
C 	C 	0.12580 0.50690 0.82300 0.37900
C 	C 	0.19180 0.50380 0.91040 -0.17500
C 	C 	0.26740 0.59330 0.95640 0.20600
C 	C 	0.17620 0.41470 0.95350 0.19800
N 	N 	0.10240 0.32100 0.91300 -0.07800
N 	N 	0.28700 0.68690 0.91600 -0.05200
O 	O 	0.57200 0.63750 0.44237 -0.40600
O 	O 	0.41500 0.54320 0.45777 -0.40900
C 	C 	0.49310 0.61890 0.48967 0.35200
C 	C 	0.49620 0.68800 0.57707 -0.10200
C 	C 	0.40670 0.67410 0.62307 0.09000
C 	C 	0.58530 0.76150 0.62017 0.10700
N 	N 	0.67900 0.78140 0.57967 -0.02500
N 	N 	0.31310 0.60010 0.58267 -0.05200
O 	O 	0.36250 0.93450 0.10903 -0.39900
O 	O 	0.45680 0.87180 0.12443 -0.39200
C 	C 	0.38110 0.87420 0.15633 0.34600
C 	C 	0.31200 0.80820 0.24373 -0.10500
C 	C 	0.32590 0.73260 0.28973 0.08100
C 	C 	0.23850 0.82380 0.28683 0.09100
N 	N 	0.21860 0.89760 0.24633 -0.05000
N 	N 	0.39990 0.71300 0.24933 -0.04800
O 	O 	0.57200 0.93450 0.89097 -0.33400
O 	O 	0.41500 0.87180 0.87557 -0.35200
C 	C 	0.49310 0.87420 0.84367 0.34000
C 	C 	0.49620 0.80820 0.75627 -0.08400
C 	C 	0.40670 0.73260 0.71027 0.08700
C 	C 	0.58530 0.82380 0.71317 0.10500
N 	N 	0.67900 0.89760 0.75367 -0.00900
N 	N 	0.31310 0.71300 0.75067 -0.04500
O 	O 	0.36250 0.42800 0.22430 -0.42600
O 	O 	0.45680 0.58500 0.20890 -0.39900
C 	C 	0.38110 0.50690 0.17700 0.32200
C 	C 	0.31200 0.50380 0.08960 -0.05000
C 	C 	0.32590 0.59330 0.04360 -0.04300
C 	C 	0.23850 0.41470 0.04650 -0.02800
N 	N 	0.21860 0.32100 0.08700 -0.08100
N 	N 	0.39990 0.68690 0.08400 -0.04900
O 	O 	0.06550 0.63750 0.55763 -0.45100
O 	O 	0.12820 0.54320 0.54223 -0.43300
C 	C 	0.12580 0.61890 0.51033 0.35200
C 	C 	0.19180 0.68800 0.42293 -0.11500
C 	C 	0.26740 0.67410 0.37693 0.08200
C 	C 	0.17620 0.76150 0.37983 0.09100
N 	N 	0.10240 0.78140 0.42033 -0.06400
N 	N 	0.28700 0.60010 0.41733 -0.05600
O 	O 	0.42800 0.06550 0.89097 -0.42700
O 	O 	0.58500 0.12820 0.87557 -0.39700
C 	C 	0.50690 0.12580 0.84367 0.34800
C 	C 	0.50380 0.19180 0.75627 -0.10600
C 	C 	0.59330 0.26740 0.71027 0.08300
C 	C 	0.41470 0.17620 0.71317 0.08700
N 	N 	0.32100 0.10240 0.75367 -0.07400
N 	N 	0.68690 0.28700 0.75067 -0.05000
O 	O 	0.63750 0.57200 0.22430 -0.40200
O 	O 	0.54320 0.41500 0.20890 -0.40800
C 	C 	0.61890 0.49310 0.17700 0.32300
C 	C 	0.68800 0.49620 0.08960 -0.04200
C 	C 	0.67410 0.40670 0.04360 -0.04300
C 	C 	0.76150 0.58530 0.04650 -0.01200
N 	N 	0.78140 0.67900 0.08700 -0.03300
N 	N 	0.60010 0.31310 0.08400 -0.05500
O 	O 	0.93450 0.36250 0.55763 -0.37100
O 	O 	0.87180 0.45680 0.54223 -0.37100
C 	C 	0.87420 0.38110 0.51033 0.34000
C 	C 	0.80820 0.31200 0.42293 -0.09600
C 	C 	0.73260 0.32590 0.37693 0.08000
C 	C 	0.82380 0.23850 0.37983 0.09000
N 	N 	0.89760 0.21860 0.42033 -0.04200
N 	N 	0.71300 0.39990 0.41733 -0.04600
In	In	-0.00000 0.50000 0.66667 1.97500
In	In	0.50000 0.50000 0.33333 2.00200
In	In	0.50000 0.00000 -0.00000 1.95500
