data_crystal

_cell_length_a 9.64840
_cell_length_b 11.79390
_cell_length_c 11.86030
_cell_angle_alpha 73.67100
_cell_angle_beta  67.42600
_cell_angle_gamma 74.35600

_symmetry_space_group_name_	'P 1'
_symmetry_space_group_name_H-M	'P 1'

loop_
_symmetry_equiv_pos_as_xyz
  x,y,z

loop_
_atom_site_label
_atom_site_type_symbol
_atom_site_fract_x
_atom_site_fract_y
_atom_site_fract_z
_atom_site_charge
Mg	Mg	0.63984 0.26049 0.33464 1.47700
S 	S 	0.37844 0.70370 0.11655 -0.06100
S 	S 	0.11196 0.29144 0.39480 -0.04300
O 	O 	0.50510 0.55608 0.31533 -0.48600
O 	O 	0.66180 0.41880 0.20383 -0.49500
O 	O 	0.20560 0.89390 0.97970 -0.61300
O 	O 	0.30560 0.83243 0.80016 -0.55200
O 	O 	0.41210 0.29650 0.39376 -0.50500
O 	O 	0.33320 0.40088 0.54544 -0.48400
O 	O 	0.86330 0.24830 0.33254 -0.41200
O 	O 	0.66940 0.34340 0.46483 -0.58200
C 	C 	0.57210 0.51750 0.21570 0.44000
C 	C 	0.53940 0.59400 0.10230 -0.21600
C 	C 	0.61710 0.58660 0.98030 0.17400
H 	H 	0.70730 0.53260 0.95430 0.01300
C 	C 	0.54680 0.66930 0.89820 -0.09300
H 	H 	0.58570 0.67640 0.81210 0.06500
C 	C 	0.41520 0.73770 0.95900 -0.04400
C 	C 	0.30180 0.82710 0.90860 0.43700
C 	C 	0.31140 0.34500 0.48060 0.39100
C 	C 	0.15090 0.33740 0.50260 -0.06100
C 	C 	0.01960 0.37410 0.59440 -0.17900
H 	H 	0.01840 0.40070 0.66160 0.07500
C 	C 	0.88740 0.36700 0.57540 0.13100
H 	H 	0.78890 0.38850 0.62860 0.00200
C 	C 	0.91900 0.32520 0.47060 -0.06500
C 	C 	0.81230 0.30540 0.41910 0.35600
O 	O 	0.64390 0.09310 0.45660 -0.68900
H 	H 	0.63410 0.09510 0.52780 0.27700
C 	C 	0.57990 0.99510 0.45850 0.86800
H 	H 	0.63890 0.91940 0.48710 -0.27300
H 	H 	0.58500 0.99650 0.37480 -0.22200
H 	H 	0.71420 0.08170 0.48520 0.18200
C 	C 	0.54300 0.01100 0.53100 -0.78700
H 	H 	0.60190 0.93520 0.55920 0.24400
H 	H 	0.47280 0.04240 0.60390 0.23300
Mg	Mg	0.36016 0.73951 0.66536 1.47700
S 	S 	0.62156 0.29630 0.88345 0.16100
S 	S 	0.88804 0.70856 0.60520 0.14200
O 	O 	0.49490 0.44392 0.68467 -0.46700
O 	O 	0.33820 0.58120 0.79617 -0.46300
O 	O 	0.79440 0.10610 0.02030 -0.61000
O 	O 	0.69440 0.16757 0.19984 -0.51700
O 	O 	0.58790 0.70350 0.60624 -0.52900
O 	O 	0.66680 0.59912 0.45456 -0.49900
O 	O 	0.13670 0.75170 0.66746 -0.47700
O 	O 	0.33060 0.65660 0.53517 -0.58400
C 	C 	0.42790 0.48250 0.78430 0.37400
C 	C 	0.46060 0.40600 0.89770 0.00700
C 	C 	0.38290 0.41340 0.01970 -0.20900
H 	H 	0.29270 0.46740 0.04570 0.07200
C 	C 	0.45320 0.33070 0.10180 0.11800
H 	H 	0.41430 0.32360 0.18790 -0.01000
C 	C 	0.58480 0.26230 0.04100 -0.27100
C 	C 	0.69820 0.17290 0.09140 0.50700
C 	C 	0.68860 0.65500 0.51940 0.45500
C 	C 	0.84910 0.66260 0.49740 -0.18100
C 	C 	0.98040 0.62590 0.40560 0.17400
H 	H 	0.98160 0.59930 0.33840 -0.00600
C 	C 	0.11260 0.63300 0.42460 -0.17500
H 	H 	0.21110 0.61150 0.37140 0.09000
C 	C 	0.08100 0.67480 0.52940 -0.13400
C 	C 	0.18770 0.69460 0.58090 0.35300
O 	O 	0.35610 0.90690 0.54340 -0.64800
H 	H 	0.36590 0.90490 0.47220 0.11800
C 	C 	0.42010 0.00490 0.54150 -0.84500
H 	H 	0.36110 0.08060 0.51290 0.32100
H 	H 	0.41500 0.00350 0.62520 0.28600
H 	H 	0.28580 0.91830 0.51480 0.18200
C 	C 	0.45700 0.98900 0.46900 0.90000
H 	H 	0.39810 0.06480 0.44080 -0.24700
H 	H 	0.52720 0.95760 0.39610 -0.27700
Mg	Mg	0.50000 0.50000 0.50000 1.47700
Mg	Mg	-0.00000 0.00000 -0.00000 1.43200
