data_crystal

_cell_length_a 16.05500
_cell_length_b 18.76400
_cell_length_c 18.76400
_cell_angle_alpha 106.67200
_cell_angle_beta  102.75800
_cell_angle_gamma 102.75800

_symmetry_space_group_name_	'P 1'
_symmetry_space_group_name_H-M	'P 1'

loop_
_symmetry_equiv_pos_as_xyz
  x,y,z

loop_
_atom_site_label
_atom_site_type_symbol
_atom_site_fract_x
_atom_site_fract_y
_atom_site_fract_z
_atom_site_charge
Zn	Zn	0.02361 0.46134 0.46164 1.22800
Zn	Zn	0.46937 0.04307 0.04282 1.21700
H 	H 	0.27762 0.48212 0.12213 0.06400
H 	H 	0.41089 0.17419 0.43857 0.10100
H 	H 	0.47141 0.27091 0.50799 0.10100
H 	H 	0.21852 0.37512 0.01683 0.04200
H 	H 	0.47120 0.50122 0.27361 0.10200
H 	H 	0.41259 0.44407 0.17300 0.10000
H 	H 	0.21836 0.01719 0.37525 0.04300
H 	H 	0.27751 0.12189 0.48173 0.06300
C 	C 	0.11129 0.49978 0.11531 0.36100
C 	C 	0.18207 0.00091 0.18431 -0.05700
C 	C 	0.26341 0.48802 0.17681 -0.06100
C 	C 	0.16949 0.01427 0.25812 -0.02300
C 	C 	0.38563 0.38404 0.00002 0.38800
C 	C 	0.31618 0.31400 0.49940 -0.13300
C 	C 	0.23413 0.32096 0.01132 0.01800
C 	C 	0.32909 0.23968 0.48638 0.12200
C 	C 	0.38520 0.00089 0.38493 0.38800
C 	C 	0.31624 0.50017 0.31449 -0.13300
C 	C 	0.23415 0.01200 0.32123 0.01700
C 	C 	0.32957 0.48727 0.24022 0.12100
C 	C 	0.11130 0.11466 0.49879 0.36100
C 	C 	0.18176 0.18381 -0.00015 -0.05500
C 	C 	0.26303 0.17635 0.48714 -0.06200
C 	C 	0.16925 0.25773 0.01330 -0.02400
N 	N 	0.41068 0.22777 0.47516 -0.19700
N 	N 	0.41114 0.47557 0.22821 -0.19800
O 	O 	0.10655 0.46097 0.04579 -0.48900
O 	O 	0.44032 0.46172 0.37710 -0.49600
O 	O 	0.38910 0.45340 0.03848 -0.50800
O 	O 	0.05580 0.12413 0.03753 -0.48400
O 	O 	0.38940 0.04063 0.45409 -0.50600
O 	O 	0.05486 0.03764 0.12471 -0.48400
O 	O 	0.10596 0.04503 0.45943 -0.48700
O 	O 	0.44209 0.37576 0.46224 -0.49200
Zn	Zn	0.52362 0.46134 0.46162 1.22400
Zn	Zn	0.96937 0.04307 0.04282 1.20500
H 	H 	0.77762 0.48212 0.12213 0.06100
H 	H 	0.91089 0.17419 0.43857 0.09700
H 	H 	0.97141 0.27091 0.50799 0.09800
H 	H 	0.71852 0.37512 0.01683 0.04700
H 	H 	0.97120 0.50122 0.27361 0.09900
H 	H 	0.91259 0.44407 0.17300 0.09700
H 	H 	0.71836 0.01719 0.37525 0.04800
H 	H 	0.77751 0.12189 0.48173 0.06200
C 	C 	0.61129 0.49978 0.11531 0.36100
C 	C 	0.68207 0.00091 0.18431 -0.09500
C 	C 	0.76341 0.48802 0.17681 -0.06100
C 	C 	0.66949 0.01427 0.25812 -0.00300
C 	C 	0.88563 0.38404 0.00002 0.35800
C 	C 	0.81618 0.31400 0.49940 -0.13300
C 	C 	0.73413 0.32096 0.01132 -0.01200
C 	C 	0.82909 0.23968 0.48638 0.12000
C 	C 	0.88520 0.00089 0.38493 0.35800
C 	C 	0.81624 0.50017 0.31449 -0.13300
C 	C 	0.73415 0.01200 0.32123 -0.01300
C 	C 	0.82957 0.48727 0.24022 0.11900
C 	C 	0.61130 0.11466 0.49879 0.36100
C 	C 	0.68176 0.18381 -0.00015 -0.09300
C 	C 	0.76303 0.17635 0.48714 -0.06200
C 	C 	0.66925 0.25773 0.01330 -0.00400
N 	N 	0.91068 0.22777 0.47516 -0.19700
N 	N 	0.91114 0.47557 0.22821 -0.19800
O 	O 	0.60654 0.46098 0.04580 -0.49500
O 	O 	0.94032 0.46172 0.37709 -0.49900
O 	O 	0.88910 0.45340 0.03848 -0.50700
O 	O 	0.55580 0.12413 0.03753 -0.50500
O 	O 	0.88940 0.04063 0.45409 -0.50500
O 	O 	0.55486 0.03764 0.12471 -0.50500
O 	O 	0.60596 0.04503 0.45943 -0.49400
O 	O 	0.94209 0.37576 0.46224 -0.49600
Zn	Zn	0.02362 0.96133 0.46163 1.22200
Zn	Zn	0.46937 0.54307 0.04282 1.21700
H 	H 	0.27762 0.98212 0.12213 0.06300
H 	H 	0.41089 0.67419 0.43857 0.10100
H 	H 	0.47141 0.77091 0.50799 0.10100
H 	H 	0.21852 0.87512 0.01683 0.03800
H 	H 	0.47120 1.00122 0.27361 0.10400
H 	H 	0.41259 0.94407 0.17300 0.10200
H 	H 	0.21836 0.51719 0.37525 0.04200
H 	H 	0.27751 0.62189 0.48173 0.06300
C 	C 	0.11129 0.99978 0.11531 0.35600
C 	C 	0.18207 0.50091 0.18431 -0.05800
C 	C 	0.26341 0.98802 0.17681 -0.06300
C 	C 	0.16949 0.51427 0.25812 -0.02300
C 	C 	0.38563 0.88404 0.00002 0.40600
C 	C 	0.31618 0.81400 0.49940 -0.13300
C 	C 	0.23413 0.82096 0.01132 0.03500
C 	C 	0.32909 0.73968 0.48638 0.12100
C 	C 	0.38520 0.50089 0.38493 0.39100
C 	C 	0.31624 1.00017 0.31449 -0.13300
C 	C 	0.23415 0.51200 0.32123 0.01700
C 	C 	0.32957 0.98727 0.24022 0.12200
C 	C 	0.11130 0.61466 0.49879 0.36100
C 	C 	0.18176 0.68381 -0.00015 -0.03400
C 	C 	0.26303 0.67635 0.48714 -0.06200
C 	C 	0.16925 0.75773 0.01330 -0.03600
N 	N 	0.41068 0.72777 0.47516 -0.19700
N 	N 	0.41114 0.97557 0.22821 -0.19800
O 	O 	0.10655 0.96098 0.04579 -0.48800
O 	O 	0.44032 0.96172 0.37710 -0.49400
O 	O 	0.38910 0.95340 0.03848 -0.50900
O 	O 	0.05580 0.62413 0.03753 -0.47900
O 	O 	0.38940 0.54063 0.45409 -0.50700
O 	O 	0.05486 0.53764 0.12471 -0.48600
O 	O 	0.10596 0.54503 0.45943 -0.49000
O 	O 	0.44209 0.87576 0.46224 -0.49200
Zn	Zn	0.52362 0.96133 0.46163 1.22500
Zn	Zn	0.96937 0.54307 0.04282 1.21100
H 	H 	0.77762 0.98212 0.12213 0.05700
H 	H 	0.91089 0.67419 0.43857 0.10000
H 	H 	0.97141 0.77091 0.50799 0.10100
H 	H 	0.71852 0.87512 0.01683 0.04500
H 	H 	0.97120 1.00122 0.27361 0.10200
H 	H 	0.91259 0.94407 0.17300 0.09900
H 	H 	0.71836 0.51719 0.37525 0.04200
H 	H 	0.77751 0.62189 0.48173 0.06300
C 	C 	0.61129 0.99978 0.11531 0.38700
C 	C 	0.68207 0.50091 0.18431 -0.06100
C 	C 	0.76341 0.98802 0.17681 -0.03500
C 	C 	0.66949 0.51427 0.25812 -0.02200
C 	C 	0.88563 0.88404 0.00002 0.37600
C 	C 	0.81618 0.81400 0.49940 -0.13200
C 	C 	0.73413 0.82096 0.01132 0.00700
C 	C 	0.82909 0.73968 0.48638 0.12100
C 	C 	0.88520 0.50089 0.38493 0.39100
C 	C 	0.81624 1.00017 0.31449 -0.09900
C 	C 	0.73415 0.51200 0.32123 0.01600
C 	C 	0.82957 0.98727 0.24022 0.10500
C 	C 	0.61130 0.61466 0.49880 0.36100
C 	C 	0.68176 0.68381 -0.00015 -0.07000
C 	C 	0.76303 0.67635 0.48714 -0.06200
C 	C 	0.66925 0.75773 0.01330 -0.01600
N 	N 	0.91068 0.72777 0.47516 -0.19700
N 	N 	0.91114 0.97557 0.22821 -0.19500
O 	O 	0.60656 0.96097 0.04579 -0.49700
O 	O 	0.94032 0.96172 0.37710 -0.48300
O 	O 	0.88910 0.95340 0.03848 -0.50400
O 	O 	0.55580 0.62413 0.03753 -0.49600
O 	O 	0.88940 0.54063 0.45409 -0.50800
O 	O 	0.55486 0.53764 0.12471 -0.49200
O 	O 	0.60596 0.54503 0.45944 -0.49200
O 	O 	0.94209 0.87576 0.46224 -0.49100
Zn	Zn	0.02362 0.46133 0.96163 1.22200
Zn	Zn	0.46937 0.04307 0.54282 1.21700
H 	H 	0.27762 0.48212 0.62213 0.06200
H 	H 	0.41089 0.17419 0.93857 0.10200
H 	H 	0.47141 0.27091 1.00799 0.10300
H 	H 	0.21852 0.37512 0.51683 0.04200
H 	H 	0.47120 0.50122 0.77361 0.10200
H 	H 	0.41259 0.44407 0.67300 0.10000
H 	H 	0.21836 0.01719 0.87525 0.03800
H 	H 	0.27751 0.12189 0.98173 0.06400
C 	C 	0.11129 0.49978 0.61531 0.36100
C 	C 	0.18207 0.00091 0.68431 -0.03600
C 	C 	0.26341 0.48802 0.67681 -0.06100
C 	C 	0.16949 0.01427 0.75812 -0.03500
C 	C 	0.38563 0.38404 0.50002 0.39000
C 	C 	0.31618 0.31400 0.99940 -0.13400
C 	C 	0.23413 0.32096 0.51132 0.01700
C 	C 	0.32909 0.23968 0.98638 0.12300
C 	C 	0.38520 0.00089 0.88493 0.40600
C 	C 	0.31624 0.50017 0.81449 -0.13300
C 	C 	0.23415 0.01200 0.82123 0.03400
C 	C 	0.32957 0.48727 0.74022 0.12000
C 	C 	0.11130 0.11466 0.99879 0.35500
C 	C 	0.18176 0.18381 0.49985 -0.05800
C 	C 	0.26303 0.17635 0.98714 -0.06500
C 	C 	0.16925 0.25773 0.51330 -0.02300
N 	N 	0.41068 0.22777 0.97516 -0.19700
N 	N 	0.41114 0.47557 0.72821 -0.19800
O 	O 	0.10655 0.46097 0.54579 -0.49100
O 	O 	0.44031 0.46173 0.87711 -0.49600
O 	O 	0.38910 0.45340 0.53848 -0.50900
O 	O 	0.05580 0.12413 0.53753 -0.48700
O 	O 	0.38940 0.04063 0.95409 -0.50800
O 	O 	0.05486 0.03764 0.62471 -0.47900
O 	O 	0.10596 0.04503 0.95944 -0.48700
O 	O 	0.44209 0.37576 0.96224 -0.49100
Zn	Zn	0.52364 0.46132 0.96161 1.22500
Zn	Zn	0.96937 0.04307 0.54282 1.21100
H 	H 	0.77762 0.48212 0.62213 0.06200
H 	H 	0.91089 0.17419 0.93857 0.09900
H 	H 	0.97141 0.27091 1.00799 0.10100
H 	H 	0.71852 0.37512 0.51683 0.04200
H 	H 	0.97120 0.50122 0.77361 0.10200
H 	H 	0.91259 0.44407 0.67300 0.10000
H 	H 	0.71836 0.01719 0.87525 0.04500
H 	H 	0.77751 0.12189 0.98173 0.05700
C 	C 	0.61129 0.49978 0.61531 0.36100
C 	C 	0.68207 0.00091 0.68431 -0.07200
C 	C 	0.76341 0.48802 0.67681 -0.06100
C 	C 	0.66949 0.01427 0.75812 -0.01500
C 	C 	0.88563 0.38404 0.50002 0.39000
C 	C 	0.81618 0.31400 0.99940 -0.10000
C 	C 	0.73413 0.32096 0.51132 0.01600
C 	C 	0.82909 0.23968 0.98638 0.10600
C 	C 	0.88520 0.00089 0.88493 0.37600
C 	C 	0.81624 0.50017 0.81449 -0.13200
C 	C 	0.73415 0.01200 0.82123 0.00500
C 	C 	0.82957 0.48727 0.74022 0.12000
C 	C 	0.61130 0.11466 0.99879 0.38600
C 	C 	0.68176 0.18381 0.49985 -0.06000
C 	C 	0.76303 0.17635 0.98714 -0.03700
C 	C 	0.66925 0.25773 0.51330 -0.02300
N 	N 	0.91068 0.22777 0.97516 -0.19400
N 	N 	0.91114 0.47557 0.72821 -0.19800
O 	O 	0.60655 0.46097 0.54579 -0.49300
O 	O 	0.94032 0.46172 0.87710 -0.49500
O 	O 	0.88910 0.45340 0.53848 -0.51000
O 	O 	0.55580 0.12413 0.53753 -0.49400
O 	O 	0.88940 0.04063 0.95409 -0.50200
O 	O 	0.55486 0.03764 0.62471 -0.49500
O 	O 	0.60596 0.04503 0.95943 -0.49500
O 	O 	0.94209 0.37576 0.96224 -0.47900
Zn	Zn	0.02361 0.96133 0.96163 1.21600
Zn	Zn	0.46937 0.54307 0.54282 1.21700
H 	H 	0.27762 0.98212 0.62213 0.06600
H 	H 	0.41089 0.67419 0.93857 0.10100
H 	H 	0.47141 0.77091 1.00799 0.10100
H 	H 	0.21852 0.87512 0.51683 0.04100
H 	H 	0.47120 1.00122 0.77361 0.10200
H 	H 	0.41259 0.94407 0.67300 0.10000
H 	H 	0.21836 0.51719 0.87525 0.04100
H 	H 	0.27751 0.62189 0.98173 0.06700
C 	C 	0.11129 0.99978 0.61531 0.33800
C 	C 	0.18207 0.50091 0.68431 -0.06000
C 	C 	0.26341 0.98802 0.67681 -0.08000
C 	C 	0.16949 0.51427 0.75812 -0.02300
C 	C 	0.38563 0.88404 0.50002 0.39000
C 	C 	0.31618 0.81400 0.99940 -0.15600
C 	C 	0.23413 0.82096 0.51132 0.01600
C 	C 	0.32909 0.73968 0.98638 0.13200
C 	C 	0.38520 0.50089 0.88493 0.39100
C 	C 	0.31624 1.00017 0.81449 -0.15400
C 	C 	0.23415 0.51200 0.82123 0.01600
C 	C 	0.32957 0.98727 0.74022 0.13000
C 	C 	0.11130 0.61466 0.99880 0.33600
C 	C 	0.18176 0.68381 0.49985 -0.05900
C 	C 	0.26303 0.67635 0.98714 -0.08200
C 	C 	0.16925 0.75773 0.51330 -0.02300
N 	N 	0.41068 0.72777 0.97516 -0.19900
N 	N 	0.41114 0.97557 0.72821 -0.20000
O 	O 	0.10655 0.96098 0.54579 -0.49000
O 	O 	0.44033 0.96172 0.87709 -0.50300
O 	O 	0.38910 0.95340 0.53848 -0.50900
O 	O 	0.05580 0.62413 0.53753 -0.49200
O 	O 	0.38940 0.54063 0.95409 -0.50800
O 	O 	0.05486 0.53764 0.62471 -0.49100
O 	O 	0.10596 0.54503 0.95944 -0.48800
O 	O 	0.44209 0.87576 0.96224 -0.50000
Zn	Zn	0.52361 0.96134 0.96164 1.22400
Zn	Zn	0.96937 0.54307 0.54282 1.21600
H 	H 	0.77762 0.98212 0.62213 0.06100
H 	H 	0.91089 0.67419 0.93857 0.10100
H 	H 	0.97141 0.77091 1.00799 0.10200
H 	H 	0.71852 0.87512 0.51683 0.04200
H 	H 	0.97120 1.00122 0.77361 0.10300
H 	H 	0.91259 0.94407 0.67300 0.10000
H 	H 	0.71836 0.51719 0.87525 0.04300
H 	H 	0.77751 0.62189 0.98173 0.06200
C 	C 	0.61129 0.99978 0.61531 0.36900
C 	C 	0.68207 0.50091 0.68431 -0.06000
C 	C 	0.76341 0.98802 0.67681 -0.05200
C 	C 	0.66949 0.51427 0.75812 -0.02200
C 	C 	0.88563 0.88404 0.50002 0.39000
C 	C 	0.81618 0.81400 0.99940 -0.12100
C 	C 	0.73413 0.82096 0.51132 0.01600
C 	C 	0.82909 0.73968 0.98638 0.11600
C 	C 	0.88520 0.50089 0.88493 0.39100
C 	C 	0.81624 1.00017 0.81449 -0.11900
C 	C 	0.73415 0.51200 0.82123 0.01600
C 	C 	0.82957 0.98727 0.74022 0.11500
C 	C 	0.61130 0.61466 0.99880 0.36700
C 	C 	0.68176 0.68381 0.49985 -0.06000
C 	C 	0.76303 0.67635 0.98714 -0.05400
C 	C 	0.66925 0.75773 0.51330 -0.02200
N 	N 	0.91068 0.72777 0.97516 -0.19600
N 	N 	0.91114 0.97557 0.72821 -0.19700
O 	O 	0.60655 0.96098 0.54579 -0.49400
O 	O 	0.94032 0.96172 0.87710 -0.48700
O 	O 	0.88910 0.95340 0.53848 -0.50500
O 	O 	0.55580 0.62413 0.53753 -0.49400
O 	O 	0.88940 0.54063 0.95409 -0.50400
O 	O 	0.55486 0.53764 0.62471 -0.49200
O 	O 	0.60596 0.54503 0.95944 -0.49200
O 	O 	0.94209 0.87576 0.96224 -0.48400
H 	H 	0.10898 0.02555 0.26699 0.04800
H 	H 	0.10877 0.26665 0.02443 0.04800
H 	H 	0.60898 0.02555 0.26699 0.03900
H 	H 	0.60877 0.26665 0.02443 0.03900
H 	H 	0.10898 0.52555 0.26699 0.04800
H 	H 	0.10877 0.76665 0.02443 0.05000
H 	H 	0.60898 0.52555 0.26699 0.04500
H 	H 	0.60877 0.76665 0.02443 0.04400
H 	H 	0.10898 0.02555 0.76699 0.05000
H 	H 	0.10877 0.26665 0.52443 0.04800
H 	H 	0.60898 0.02555 0.76699 0.04400
H 	H 	0.60877 0.26665 0.52443 0.04500
H 	H 	0.10898 0.52555 0.76699 0.04500
H 	H 	0.10877 0.76665 0.52443 0.04500
H 	H 	0.60898 0.52555 0.76699 0.04500
H 	H 	0.60877 0.76665 0.52443 0.04500
