data_crystal

_cell_length_a 28.95000
_cell_length_b 39.50800
_cell_length_c 10.27850
_cell_angle_alpha 90.00000
_cell_angle_beta  95.73700
_cell_angle_gamma 90.00000

_symmetry_space_group_name_	'P 1'
_symmetry_space_group_name_H-M	'P 1'

loop_
_symmetry_equiv_pos_as_xyz
  x,y,z

loop_
_atom_site_label
_atom_site_type_symbol
_atom_site_fract_x
_atom_site_fract_y
_atom_site_fract_z
_atom_site_charge
Cd	Cd	0.23966 0.67604 0.94463 1.18900
Cd	Cd	0.23216 0.68634 0.45716 1.22800
O 	O 	0.30626 0.67952 0.57230 -0.41000
O 	O 	0.30185 0.66966 0.36290 -0.39400
O 	O 	0.17394 0.68258 0.30280 -0.44800
O 	O 	0.19887 0.69567 0.11080 -0.45600
O 	O 	0.17733 0.67064 0.79460 -0.44000
O 	O 	0.19766 0.70381 0.63400 -0.44400
N 	N 	0.22594 0.62129 0.01340 -0.26300
N 	N 	0.13824 0.42779 0.24480 -0.17700
N 	N 	0.23753 0.23044 0.09360 -0.27300
N 	N 	0.21525 0.62965 0.50020 -0.23800
N 	N 	0.13690 0.43360 0.74410 -0.17500
N 	N 	0.25320 0.24201 0.58890 -0.24200
C 	C 	0.22947 0.61289 0.13870 0.12300
H 	H 	0.23840 0.62960 0.20000 -0.04000
C 	C 	0.22084 0.58161 0.18280 -0.20300
H 	H 	0.22420 0.57730 0.27220 0.10400
C 	C 	0.20707 0.55583 0.09620 0.13200
C 	C 	0.20300 0.56477 0.96460 -0.18800
H 	H 	0.19430 0.54860 0.90130 0.09700
C 	C 	0.21180 0.59758 0.92730 0.10100
H 	H 	0.20770 0.60320 0.83900 -0.02400
C 	C 	0.19288 0.52138 0.13870 -0.08400
C 	C 	0.17803 0.51673 0.26060 0.04100
H 	H 	0.17890 0.53490 0.31820 0.01700
C 	C 	0.16192 0.48592 0.30020 -0.16400
H 	H 	0.15260 0.48350 0.38370 0.09400
C 	C 	0.15957 0.45811 0.21420 0.14300
C 	C 	0.17828 0.46247 0.09430 -0.16100
H 	H 	0.17960 0.44410 0.03850 0.09100
C 	C 	0.19463 0.49341 0.05760 0.03900
H 	H 	0.20690 0.49560 0.97780 0.01400
C 	C 	0.15561 0.39637 0.20820 0.15400
C 	C 	0.20178 0.38910 0.22900 -0.17700
H 	H 	0.22230 0.40590 0.26210 0.09200
C 	C 	0.21904 0.35735 0.20220 0.04700
H 	H 	0.25070 0.35300 0.21620 0.00800
C 	C 	0.18862 0.33212 0.15450 -0.09400
C 	C 	0.14242 0.33968 0.12820 0.05000
H 	H 	0.12210 0.32300 0.09330 0.00700
C 	C 	0.12551 0.37135 0.15240 -0.17500
H 	H 	0.09420 0.37620 0.13180 0.09500
C 	C 	0.20606 0.29673 0.13330 0.13500
C 	C 	0.25242 0.28957 0.11900 -0.20400
H 	H 	0.27420 0.30690 0.12290 0.10000
C 	C 	0.26562 0.25718 0.09930 0.12600
H 	H 	0.29670 0.25340 0.08890 -0.02400
C 	C 	0.19454 0.23729 0.11150 0.12800
H 	H 	0.17390 0.21920 0.11100 -0.05600
C 	C 	0.17759 0.26842 0.13070 -0.20900
H 	H 	0.14630 0.27100 0.14240 0.09900
C 	C 	0.09787 0.42898 0.31630 0.12000
C 	C 	0.06706 0.45563 0.30770 -0.12600
H 	H 	0.07150 0.47350 0.25140 0.07800
C 	C 	0.02924 0.45635 0.38180 -0.01100
H 	H 	0.01010 0.47530 0.37770 0.03200
C 	C 	0.01963 0.42985 0.46060 -0.01000
C 	C 	0.04945 0.40212 0.46290 -0.00600
H 	H 	0.04280 0.38310 0.51110 0.03200
C 	C 	0.08811 0.40193 0.39680 -0.12700
H 	H 	0.10820 0.38350 0.40540 0.08000
C 	C 	0.24652 0.60699 0.54910 0.09100
H 	H 	0.27760 0.61340 0.55990 -0.01700
C 	C 	0.23535 0.57474 0.58430 -0.18700
H 	H 	0.25870 0.56010 0.61800 0.08900
C 	C 	0.18985 0.56361 0.57030 0.12500
C 	C 	0.15758 0.58702 0.51800 -0.18400
H 	H 	0.12630 0.58130 0.50630 0.09200
C 	C 	0.17147 0.61844 0.48350 0.09800
H 	H 	0.14890 0.63310 0.44560 -0.00800
C 	C 	0.17758 0.52912 0.61160 -0.09200
C 	C 	0.21003 0.50572 0.66060 0.04900
H 	H 	0.24140 0.51120 0.66590 0.00600
C 	C 	0.19682 0.47454 0.70160 -0.17800
H 	H 	0.21950 0.45940 0.73570 0.09200
C 	C 	0.15079 0.46487 0.69370 0.15200
C 	C 	0.11721 0.48726 0.63940 -0.17400
H 	H 	0.08620 0.48080 0.62950 0.09500
C 	C 	0.12966 0.51855 0.60060 0.04400
H 	H 	0.10680 0.53350 0.56630 0.00900
C 	C 	0.16413 0.40370 0.72450 0.13800
C 	C 	0.17052 0.37877 0.82460 -0.16200
H 	H 	0.16050 0.38270 0.90640 0.09200
C 	C 	0.19157 0.34905 0.79850 0.04300
H 	H 	0.19550 0.33280 0.86430 0.01400
C 	C 	0.20751 0.34178 0.67860 -0.08400
C 	C 	0.20334 0.36794 0.58350 0.04200
H 	H 	0.21480 0.36450 0.50320 0.01300
C 	C 	0.18288 0.39784 0.60820 -0.16500
H 	H 	0.18150 0.41480 0.54530 0.09200
C 	C 	0.22567 0.30848 0.64860 0.12400
C 	C 	0.22560 0.28164 0.73730 -0.18000
H 	H 	0.21590 0.28560 0.81950 0.09300
C 	C 	0.23944 0.24964 0.70630 0.10300
H 	H 	0.23930 0.23270 0.76890 -0.02600
C 	C 	0.25170 0.26694 0.50270 0.10900
H 	H 	0.26110 0.26210 0.42080 -0.01000
C 	C 	0.23740 0.29909 0.52460 -0.18300
H 	H 	0.23550 0.31490 0.45710 0.09500
C 	C 	0.09712 0.43185 0.81430 0.12800
C 	C 	0.08577 0.45918 0.88950 -0.13400
H 	H 	0.10450 0.47840 0.89360 0.08200
C 	C 	0.04740 0.45848 0.95810 -0.00400
H 	H 	0.03960 0.47770 0.00350 0.03100
C 	C 	0.02022 0.42985 0.96100 -0.01100
C 	C 	0.03232 0.40277 0.88890 -0.00800
H 	H 	0.01450 0.38320 0.88920 0.03100
C 	C 	0.07028 0.40324 0.81470 -0.13400
H 	H 	0.07720 0.38440 0.76610 0.08000
C 	C 	0.32494 0.67280 0.47250 0.33200
C 	C 	0.37727 0.66897 0.48020 -0.11300
C 	C 	0.40002 0.66138 0.37290 0.04100
H 	H 	0.38250 0.65770 0.29330 0.01500
C 	C 	0.44696 0.65907 0.37800 -0.11300
H 	H 	0.46080 0.65400 0.30240 0.06200
C 	C 	0.47492 0.66420 0.49630 0.03700
C 	C 	0.45155 0.67270 0.60650 -0.10600
H 	H 	0.46880 0.67670 0.68630 0.06100
C 	C 	0.40348 0.67521 0.59820 0.03100
H 	H 	0.38890 0.68110 0.67160 0.02200
C 	C 	0.16776 0.69027 0.18350 0.41500
C 	C 	0.11794 0.69387 0.12670 -0.16200
C 	C 	0.08388 0.68970 0.20650 0.07200
H 	H 	0.09140 0.68390 0.29380 0.01900
C 	C 	0.03739 0.69400 0.15760 -0.13200
H 	H 	0.01430 0.69250 0.21410 0.07700
C 	C 	0.02533 0.70061 0.02740 0.05700
C 	C 	0.06066 0.70503 0.94700 -0.13700
H 	H 	0.05340 0.71000 0.85880 0.08000
C 	C 	0.10577 0.70218 0.99650 0.07800
H 	H 	0.12900 0.70590 0.94190 0.00600
C 	C 	0.16869 0.68669 0.69130 0.36700
C 	C 	0.11787 0.68840 0.63360 -0.14400
C 	C 	0.08964 0.66028 0.64400 0.05300
H 	H 	0.10190 0.64130 0.68860 0.02000
C 	C 	0.04444 0.65957 0.59090 -0.12400
H 	H 	0.02680 0.64000 0.59550 0.07000
C 	C 	0.02457 0.68912 0.52850 0.04600
C 	C 	0.05225 0.71572 0.52050 -0.12800
H 	H 	0.04010 0.73540 0.48070 0.07100
C 	C 	0.09947 0.71527 0.57040 0.05800
H 	H 	0.11800 0.73410 0.55870 0.01300
Cd	Cd	0.73966 0.17604 0.94463 1.18800
Cd	Cd	0.73216 0.18634 0.45716 1.22700
O 	O 	0.80626 0.17952 0.57230 -0.41100
O 	O 	0.80185 0.16966 0.36290 -0.39500
O 	O 	0.67394 0.18258 0.30280 -0.44900
O 	O 	0.69887 0.19567 0.11080 -0.45700
O 	O 	0.67733 0.17064 0.79460 -0.44100
O 	O 	0.69766 0.20381 0.63400 -0.44500
N 	N 	0.72594 0.12129 0.01340 -0.26400
N 	N 	0.63824 0.92779 0.24480 -0.17800
N 	N 	0.73753 0.73044 0.09360 -0.27400
N 	N 	0.71525 0.12965 0.50020 -0.23900
N 	N 	0.63690 0.93360 0.74410 -0.17500
N 	N 	0.75320 0.74201 0.58890 -0.24300
C 	C 	0.72947 0.11289 0.13870 0.12300
H 	H 	0.73840 0.12960 0.20000 -0.04000
C 	C 	0.72084 0.08161 0.18280 -0.20300
H 	H 	0.72420 0.07730 0.27220 0.10400
C 	C 	0.70707 0.05583 0.09620 0.13200
C 	C 	0.70300 0.06477 0.96460 -0.18800
H 	H 	0.69430 0.04860 0.90130 0.09700
C 	C 	0.71180 0.09758 0.92730 0.10100
H 	H 	0.70770 0.10320 0.83900 -0.02400
C 	C 	0.69288 0.02138 0.13870 -0.08400
C 	C 	0.67803 0.01673 0.26060 0.04000
H 	H 	0.67890 0.03490 0.31820 0.01700
C 	C 	0.66192 0.98592 0.30020 -0.16200
H 	H 	0.65260 0.98350 0.38370 0.09400
C 	C 	0.65957 0.95811 0.21420 0.14300
C 	C 	0.67828 0.96247 0.09430 -0.16100
H 	H 	0.67960 0.94410 0.03850 0.09100
C 	C 	0.69463 0.99341 0.05760 0.04000
H 	H 	0.70690 0.99560 0.97780 0.01400
C 	C 	0.65561 0.89637 0.20820 0.15400
C 	C 	0.70178 0.88910 0.22900 -0.17700
H 	H 	0.72230 0.90590 0.26210 0.09200
C 	C 	0.71904 0.85735 0.20220 0.04700
H 	H 	0.75070 0.85300 0.21620 0.00800
C 	C 	0.68862 0.83212 0.15450 -0.09400
C 	C 	0.64242 0.83968 0.12820 0.05000
H 	H 	0.62210 0.82300 0.09330 0.00700
C 	C 	0.62551 0.87135 0.15240 -0.17500
H 	H 	0.59420 0.87620 0.13180 0.09500
C 	C 	0.70606 0.79673 0.13330 0.13500
C 	C 	0.75242 0.78957 0.11900 -0.20400
H 	H 	0.77420 0.80690 0.12290 0.10000
C 	C 	0.76562 0.75718 0.09930 0.12600
H 	H 	0.79670 0.75340 0.08890 -0.02400
C 	C 	0.69454 0.73729 0.11150 0.12800
H 	H 	0.67390 0.71920 0.11100 -0.05600
C 	C 	0.67759 0.76842 0.13070 -0.20900
H 	H 	0.64630 0.77100 0.14240 0.09900
C 	C 	0.59787 0.92898 0.31630 0.12000
C 	C 	0.56706 0.95563 0.30770 -0.12600
H 	H 	0.57150 0.97350 0.25140 0.07800
C 	C 	0.52924 0.95635 0.38180 -0.01100
H 	H 	0.51010 0.97530 0.37770 0.03200
C 	C 	0.51963 0.92985 0.46060 -0.01000
C 	C 	0.54945 0.90212 0.46290 -0.00600
H 	H 	0.54280 0.88310 0.51110 0.03200
C 	C 	0.58811 0.90193 0.39680 -0.12700
H 	H 	0.60820 0.88350 0.40540 0.08000
C 	C 	0.74652 0.10699 0.54910 0.09100
H 	H 	0.77760 0.11340 0.55990 -0.01700
C 	C 	0.73535 0.07474 0.58430 -0.18600
H 	H 	0.75870 0.06010 0.61800 0.08900
C 	C 	0.68985 0.06361 0.57030 0.12300
C 	C 	0.65758 0.08702 0.51800 -0.18300
H 	H 	0.62630 0.08130 0.50630 0.09200
C 	C 	0.67147 0.11844 0.48350 0.09800
H 	H 	0.64890 0.13310 0.44560 -0.00800
C 	C 	0.67758 0.02912 0.61160 -0.08900
C 	C 	0.71003 0.00572 0.66060 0.04600
H 	H 	0.74140 0.01120 0.66590 0.00700
C 	C 	0.69682 0.97454 0.70160 -0.17400
H 	H 	0.71950 0.95940 0.73570 0.09100
C 	C 	0.65079 0.96487 0.69370 0.15000
C 	C 	0.61721 0.98726 0.63940 -0.17100
H 	H 	0.58620 0.98080 0.62950 0.09400
C 	C 	0.62966 0.01855 0.60060 0.04100
H 	H 	0.60680 0.03350 0.56630 0.01000
C 	C 	0.66413 0.90370 0.72450 0.13800
C 	C 	0.67052 0.87877 0.82460 -0.16200
H 	H 	0.66050 0.88270 0.90640 0.09200
C 	C 	0.69157 0.84905 0.79850 0.04300
H 	H 	0.69550 0.83280 0.86430 0.01400
C 	C 	0.70751 0.84178 0.67860 -0.08400
C 	C 	0.70334 0.86794 0.58350 0.04200
H 	H 	0.71480 0.86450 0.50320 0.01300
C 	C 	0.68288 0.89784 0.60820 -0.16500
H 	H 	0.68150 0.91480 0.54530 0.09200
C 	C 	0.72567 0.80848 0.64860 0.12400
C 	C 	0.72560 0.78164 0.73730 -0.18000
H 	H 	0.71590 0.78560 0.81950 0.09300
C 	C 	0.73944 0.74964 0.70630 0.10300
H 	H 	0.73930 0.73270 0.76890 -0.02600
C 	C 	0.75170 0.76694 0.50270 0.10900
H 	H 	0.76110 0.76210 0.42080 -0.01000
C 	C 	0.73740 0.79909 0.52460 -0.18300
H 	H 	0.73550 0.81490 0.45710 0.09500
C 	C 	0.59712 0.93185 0.81430 0.12800
C 	C 	0.58577 0.95918 0.88950 -0.13400
H 	H 	0.60450 0.97840 0.89360 0.08200
C 	C 	0.54740 0.95848 0.95810 -0.00400
H 	H 	0.53960 0.97770 0.00350 0.03100
C 	C 	0.52022 0.92985 0.96100 -0.01100
C 	C 	0.53232 0.90277 0.88890 -0.00800
H 	H 	0.51450 0.88320 0.88920 0.03100
C 	C 	0.57028 0.90324 0.81470 -0.13400
H 	H 	0.57720 0.88440 0.76610 0.08000
C 	C 	0.82494 0.17280 0.47250 0.33200
C 	C 	0.87727 0.16897 0.48020 -0.11300
C 	C 	0.90002 0.16138 0.37290 0.04100
H 	H 	0.88250 0.15770 0.29330 0.01500
C 	C 	0.94696 0.15907 0.37800 -0.11300
H 	H 	0.96080 0.15400 0.30240 0.06200
C 	C 	0.97492 0.16420 0.49630 0.03700
C 	C 	0.95155 0.17270 0.60650 -0.10600
H 	H 	0.96880 0.17670 0.68630 0.06100
C 	C 	0.90348 0.17521 0.59820 0.03100
H 	H 	0.88890 0.18110 0.67160 0.02200
C 	C 	0.66776 0.19027 0.18350 0.41500
C 	C 	0.61794 0.19387 0.12670 -0.16200
C 	C 	0.58388 0.18970 0.20650 0.07200
H 	H 	0.59140 0.18390 0.29380 0.01900
C 	C 	0.53739 0.19400 0.15760 -0.13200
H 	H 	0.51430 0.19250 0.21410 0.07700
C 	C 	0.52533 0.20061 0.02740 0.05700
C 	C 	0.56066 0.20503 0.94700 -0.13700
H 	H 	0.55340 0.21000 0.85880 0.08000
C 	C 	0.60577 0.20218 0.99650 0.07800
H 	H 	0.62900 0.20590 0.94190 0.00600
C 	C 	0.66869 0.18669 0.69130 0.36700
C 	C 	0.61787 0.18840 0.63360 -0.14400
C 	C 	0.58964 0.16028 0.64400 0.05300
H 	H 	0.60190 0.14130 0.68860 0.02000
C 	C 	0.54444 0.15957 0.59090 -0.12400
H 	H 	0.52680 0.14000 0.59550 0.07000
C 	C 	0.52457 0.18912 0.52850 0.04600
C 	C 	0.55225 0.21572 0.52050 -0.12800
H 	H 	0.54010 0.23540 0.48070 0.07100
C 	C 	0.59947 0.21527 0.57040 0.05800
H 	H 	0.61800 0.23410 0.55870 0.01300
Cd	Cd	0.76034 0.67604 0.05537 1.18800
Cd	Cd	0.76784 0.68634 0.54284 1.22700
O 	O 	0.69374 0.67952 0.42770 -0.41100
O 	O 	0.69815 0.66966 0.63710 -0.39500
O 	O 	0.82606 0.68258 0.69720 -0.44900
O 	O 	0.80113 0.69567 0.88920 -0.45700
O 	O 	0.82267 0.67064 0.20540 -0.44100
O 	O 	0.80234 0.70381 0.36600 -0.44500
N 	N 	0.77406 0.62129 0.98660 -0.26400
N 	N 	0.86176 0.42779 0.75520 -0.17800
N 	N 	0.76247 0.23044 0.90640 -0.27400
N 	N 	0.78475 0.62965 0.49980 -0.23900
N 	N 	0.86310 0.43360 0.25590 -0.17600
N 	N 	0.74680 0.24201 0.41110 -0.24300
C 	C 	0.77053 0.61289 0.86130 0.12300
H 	H 	0.76160 0.62960 0.80000 -0.04000
C 	C 	0.77916 0.58161 0.81720 -0.20300
H 	H 	0.77580 0.57730 0.72780 0.10400
C 	C 	0.79293 0.55583 0.90380 0.13200
C 	C 	0.79700 0.56477 0.03540 -0.18800
H 	H 	0.80570 0.54860 0.09870 0.09700
C 	C 	0.78820 0.59758 0.07270 0.10100
H 	H 	0.79230 0.60320 0.16100 -0.02400
C 	C 	0.80712 0.52138 0.86130 -0.08400
C 	C 	0.82197 0.51673 0.73940 0.04100
H 	H 	0.82110 0.53490 0.68180 0.01700
C 	C 	0.83808 0.48592 0.69980 -0.16400
H 	H 	0.84740 0.48350 0.61630 0.09400
C 	C 	0.84043 0.45811 0.78580 0.14300
C 	C 	0.82172 0.46247 0.90570 -0.16100
H 	H 	0.82040 0.44410 0.96150 0.09100
C 	C 	0.80537 0.49341 0.94240 0.03900
H 	H 	0.79310 0.49560 0.02220 0.01400
C 	C 	0.84439 0.39637 0.79180 0.15400
C 	C 	0.79822 0.38910 0.77100 -0.17700
H 	H 	0.77770 0.40590 0.73790 0.09200
C 	C 	0.78096 0.35735 0.79780 0.04700
H 	H 	0.74930 0.35300 0.78380 0.00800
C 	C 	0.81138 0.33212 0.84550 -0.09400
C 	C 	0.85758 0.33968 0.87180 0.05000
H 	H 	0.87790 0.32300 0.90670 0.00700
C 	C 	0.87449 0.37135 0.84760 -0.17500
H 	H 	0.90580 0.37620 0.86820 0.09500
C 	C 	0.79394 0.29673 0.86670 0.13500
C 	C 	0.74758 0.28957 0.88100 -0.20400
H 	H 	0.72580 0.30690 0.87710 0.10000
C 	C 	0.73438 0.25718 0.90070 0.12600
H 	H 	0.70330 0.25340 0.91110 -0.02400
C 	C 	0.80546 0.23729 0.88850 0.12800
H 	H 	0.82610 0.21920 0.88900 -0.05600
C 	C 	0.82241 0.26842 0.86930 -0.20900
H 	H 	0.85370 0.27100 0.85760 0.09900
C 	C 	0.90213 0.42898 0.68370 0.12000
C 	C 	0.93294 0.45563 0.69230 -0.12600
H 	H 	0.92850 0.47350 0.74860 0.07800
C 	C 	0.97076 0.45635 0.61820 -0.01100
H 	H 	0.98990 0.47530 0.62230 0.03200
C 	C 	0.98037 0.42985 0.53940 -0.01000
C 	C 	0.95055 0.40212 0.53710 -0.00600
H 	H 	0.95720 0.38310 0.48890 0.03200
C 	C 	0.91189 0.40193 0.60320 -0.12700
H 	H 	0.89180 0.38350 0.59460 0.08000
C 	C 	0.75348 0.60699 0.45090 0.09100
H 	H 	0.72240 0.61340 0.44010 -0.01700
C 	C 	0.76465 0.57474 0.41570 -0.18700
H 	H 	0.74130 0.56010 0.38200 0.08900
C 	C 	0.81015 0.56361 0.42970 0.12500
C 	C 	0.84242 0.58702 0.48200 -0.18400
H 	H 	0.87370 0.58130 0.49370 0.09200
C 	C 	0.82853 0.61844 0.51650 0.09800
H 	H 	0.85110 0.63310 0.55440 -0.00800
C 	C 	0.82242 0.52912 0.38840 -0.09200
C 	C 	0.78997 0.50572 0.33940 0.04900
H 	H 	0.75860 0.51120 0.33410 0.00600
C 	C 	0.80318 0.47454 0.29840 -0.17800
H 	H 	0.78050 0.45940 0.26430 0.09200
C 	C 	0.84921 0.46487 0.30630 0.15200
C 	C 	0.88279 0.48726 0.36060 -0.17400
H 	H 	0.91380 0.48080 0.37050 0.09500
C 	C 	0.87034 0.51855 0.39940 0.04400
H 	H 	0.89320 0.53350 0.43370 0.00900
C 	C 	0.83587 0.40370 0.27550 0.13800
C 	C 	0.82948 0.37877 0.17540 -0.16200
H 	H 	0.83950 0.38270 0.09360 0.09200
C 	C 	0.80843 0.34905 0.20150 0.04300
H 	H 	0.80450 0.33280 0.13570 0.01400
C 	C 	0.79249 0.34178 0.32140 -0.08400
C 	C 	0.79666 0.36794 0.41650 0.04200
H 	H 	0.78520 0.36450 0.49680 0.01300
C 	C 	0.81712 0.39784 0.39180 -0.16500
H 	H 	0.81850 0.41480 0.45470 0.09200
C 	C 	0.77433 0.30848 0.35140 0.12400
C 	C 	0.77440 0.28164 0.26270 -0.18000
H 	H 	0.78410 0.28560 0.18050 0.09300
C 	C 	0.76056 0.24964 0.29370 0.10300
H 	H 	0.76070 0.23270 0.23110 -0.02600
C 	C 	0.74830 0.26694 0.49730 0.10900
H 	H 	0.73890 0.26210 0.57920 -0.01000
C 	C 	0.76260 0.29909 0.47540 -0.18300
H 	H 	0.76450 0.31490 0.54290 0.09500
C 	C 	0.90288 0.43185 0.18570 0.12800
C 	C 	0.91423 0.45918 0.11050 -0.13400
H 	H 	0.89550 0.47840 0.10640 0.08200
C 	C 	0.95260 0.45848 0.04190 -0.00400
H 	H 	0.96040 0.47770 0.99650 0.03100
C 	C 	0.97978 0.42985 0.03900 -0.01100
C 	C 	0.96768 0.40277 0.11110 -0.00800
H 	H 	0.98550 0.38320 0.11080 0.03100
C 	C 	0.92972 0.40324 0.18530 -0.13400
H 	H 	0.92280 0.38440 0.23390 0.08000
C 	C 	0.67506 0.67280 0.52750 0.33200
C 	C 	0.62273 0.66897 0.51980 -0.11300
C 	C 	0.59998 0.66138 0.62710 0.04100
H 	H 	0.61750 0.65770 0.70670 0.01500
C 	C 	0.55304 0.65907 0.62200 -0.11300
H 	H 	0.53920 0.65400 0.69760 0.06200
C 	C 	0.52508 0.66420 0.50370 0.03700
C 	C 	0.54845 0.67270 0.39350 -0.10600
H 	H 	0.53120 0.67670 0.31370 0.06100
C 	C 	0.59652 0.67521 0.40180 0.03100
H 	H 	0.61110 0.68110 0.32840 0.02200
C 	C 	0.83224 0.69027 0.81650 0.41500
C 	C 	0.88206 0.69387 0.87330 -0.16200
C 	C 	0.91612 0.68970 0.79350 0.07200
H 	H 	0.90860 0.68390 0.70620 0.01900
C 	C 	0.96261 0.69400 0.84240 -0.13200
H 	H 	0.98570 0.69250 0.78590 0.07700
C 	C 	0.97467 0.70061 0.97260 0.05700
C 	C 	0.93934 0.70503 0.05300 -0.13700
H 	H 	0.94660 0.71000 0.14120 0.08000
C 	C 	0.89423 0.70218 0.00350 0.07800
H 	H 	0.87100 0.70590 0.05810 0.00600
C 	C 	0.83131 0.68669 0.30870 0.36700
C 	C 	0.88213 0.68840 0.36640 -0.14400
C 	C 	0.91036 0.66028 0.35600 0.05300
H 	H 	0.89810 0.64130 0.31140 0.02000
C 	C 	0.95556 0.65957 0.40910 -0.12400
H 	H 	0.97320 0.64000 0.40450 0.07000
C 	C 	0.97543 0.68912 0.47150 0.04600
C 	C 	0.94775 0.71572 0.47950 -0.12800
H 	H 	0.95990 0.73540 0.51930 0.07100
C 	C 	0.90053 0.71527 0.42960 0.05800
H 	H 	0.88200 0.73410 0.44130 0.01300
Cd	Cd	0.26034 0.17604 0.05537 1.18800
Cd	Cd	0.26784 0.18634 0.54284 1.22700
O 	O 	0.19374 0.17952 0.42770 -0.41100
O 	O 	0.19815 0.16966 0.63710 -0.39500
O 	O 	0.32606 0.18258 0.69720 -0.44900
O 	O 	0.30113 0.19567 0.88920 -0.45700
O 	O 	0.32267 0.17064 0.20540 -0.44100
O 	O 	0.30234 0.20381 0.36600 -0.44500
N 	N 	0.27406 0.12129 0.98660 -0.26400
N 	N 	0.36176 0.92779 0.75520 -0.17800
N 	N 	0.26247 0.73044 0.90640 -0.27400
N 	N 	0.28475 0.12965 0.49980 -0.23900
N 	N 	0.36310 0.93360 0.25590 -0.17500
N 	N 	0.24680 0.74201 0.41110 -0.24300
C 	C 	0.27053 0.11289 0.86130 0.12300
H 	H 	0.26160 0.12960 0.80000 -0.04000
C 	C 	0.27916 0.08161 0.81720 -0.20300
H 	H 	0.27580 0.07730 0.72780 0.10400
C 	C 	0.29293 0.05583 0.90380 0.13200
C 	C 	0.29700 0.06477 0.03540 -0.18800
H 	H 	0.30570 0.04860 0.09870 0.09700
C 	C 	0.28820 0.09758 0.07270 0.10100
H 	H 	0.29230 0.10320 0.16100 -0.02400
C 	C 	0.30712 0.02138 0.86130 -0.08400
C 	C 	0.32197 0.01673 0.73940 0.04000
H 	H 	0.32110 0.03490 0.68180 0.01700
C 	C 	0.33808 0.98592 0.69980 -0.16200
H 	H 	0.34740 0.98350 0.61630 0.09400
C 	C 	0.34043 0.95811 0.78580 0.14300
C 	C 	0.32172 0.96247 0.90570 -0.16100
H 	H 	0.32040 0.94410 0.96150 0.09100
C 	C 	0.30537 0.99341 0.94240 0.04000
H 	H 	0.29310 0.99560 0.02220 0.01400
C 	C 	0.34439 0.89637 0.79180 0.15400
C 	C 	0.29822 0.88910 0.77100 -0.17700
H 	H 	0.27770 0.90590 0.73790 0.09200
C 	C 	0.28096 0.85735 0.79780 0.04700
H 	H 	0.24930 0.85300 0.78380 0.00800
C 	C 	0.31138 0.83212 0.84550 -0.09400
C 	C 	0.35758 0.83968 0.87180 0.05000
H 	H 	0.37790 0.82300 0.90670 0.00700
C 	C 	0.37449 0.87135 0.84760 -0.17500
H 	H 	0.40580 0.87620 0.86820 0.09500
C 	C 	0.29394 0.79673 0.86670 0.13500
C 	C 	0.24758 0.78957 0.88100 -0.20400
H 	H 	0.22580 0.80690 0.87710 0.10000
C 	C 	0.23438 0.75718 0.90070 0.12600
H 	H 	0.20330 0.75340 0.91110 -0.02400
C 	C 	0.30546 0.73729 0.88850 0.12800
H 	H 	0.32610 0.71920 0.88900 -0.05600
C 	C 	0.32241 0.76842 0.86930 -0.20900
H 	H 	0.35370 0.77100 0.85760 0.09900
C 	C 	0.40213 0.92898 0.68370 0.12000
C 	C 	0.43294 0.95563 0.69230 -0.12600
H 	H 	0.42850 0.97350 0.74860 0.07800
C 	C 	0.47076 0.95635 0.61820 -0.01100
H 	H 	0.48990 0.97530 0.62230 0.03200
C 	C 	0.48037 0.92985 0.53940 -0.01000
C 	C 	0.45055 0.90212 0.53710 -0.00600
H 	H 	0.45720 0.88310 0.48890 0.03200
C 	C 	0.41189 0.90193 0.60320 -0.12700
H 	H 	0.39180 0.88350 0.59460 0.08000
C 	C 	0.25348 0.10699 0.45090 0.09100
H 	H 	0.22240 0.11340 0.44010 -0.01700
C 	C 	0.26465 0.07474 0.41570 -0.18600
H 	H 	0.24130 0.06010 0.38200 0.08900
C 	C 	0.31015 0.06361 0.42970 0.12300
C 	C 	0.34242 0.08702 0.48200 -0.18300
H 	H 	0.37370 0.08130 0.49370 0.09200
C 	C 	0.32853 0.11844 0.51650 0.09800
H 	H 	0.35110 0.13310 0.55440 -0.00800
C 	C 	0.32242 0.02912 0.38840 -0.08900
C 	C 	0.28997 0.00572 0.33940 0.04600
H 	H 	0.25860 0.01120 0.33410 0.00700
C 	C 	0.30318 0.97454 0.29840 -0.17400
H 	H 	0.28050 0.95940 0.26430 0.09100
C 	C 	0.34921 0.96487 0.30630 0.15000
C 	C 	0.38279 0.98726 0.36060 -0.17100
H 	H 	0.41380 0.98080 0.37050 0.09400
C 	C 	0.37034 0.01855 0.39940 0.04100
H 	H 	0.39320 0.03350 0.43370 0.01000
C 	C 	0.33587 0.90370 0.27550 0.13800
C 	C 	0.32948 0.87877 0.17540 -0.16200
H 	H 	0.33950 0.88270 0.09360 0.09200
C 	C 	0.30843 0.84905 0.20150 0.04300
H 	H 	0.30450 0.83280 0.13570 0.01400
C 	C 	0.29249 0.84178 0.32140 -0.08400
C 	C 	0.29666 0.86794 0.41650 0.04200
H 	H 	0.28520 0.86450 0.49680 0.01300
C 	C 	0.31712 0.89784 0.39180 -0.16500
H 	H 	0.31850 0.91480 0.45470 0.09200
C 	C 	0.27433 0.80848 0.35140 0.12400
C 	C 	0.27440 0.78164 0.26270 -0.18000
H 	H 	0.28410 0.78560 0.18050 0.09300
C 	C 	0.26056 0.74964 0.29370 0.10300
H 	H 	0.26070 0.73270 0.23110 -0.02600
C 	C 	0.24830 0.76694 0.49730 0.10900
H 	H 	0.23890 0.76210 0.57920 -0.01000
C 	C 	0.26260 0.79909 0.47540 -0.18300
H 	H 	0.26450 0.81490 0.54290 0.09500
C 	C 	0.40288 0.93185 0.18570 0.12800
C 	C 	0.41423 0.95918 0.11050 -0.13400
H 	H 	0.39550 0.97840 0.10640 0.08200
C 	C 	0.45260 0.95848 0.04190 -0.00400
H 	H 	0.46040 0.97770 0.99650 0.03100
C 	C 	0.47978 0.92985 0.03900 -0.01100
C 	C 	0.46768 0.90277 0.11110 -0.00800
H 	H 	0.48550 0.88320 0.11080 0.03100
C 	C 	0.42972 0.90324 0.18530 -0.13400
H 	H 	0.42280 0.88440 0.23390 0.08000
C 	C 	0.17506 0.17280 0.52750 0.33200
C 	C 	0.12273 0.16897 0.51980 -0.11300
C 	C 	0.09998 0.16138 0.62710 0.04100
H 	H 	0.11750 0.15770 0.70670 0.01500
C 	C 	0.05304 0.15907 0.62200 -0.11300
H 	H 	0.03920 0.15400 0.69760 0.06200
C 	C 	0.02508 0.16420 0.50370 0.03700
C 	C 	0.04845 0.17270 0.39350 -0.10600
H 	H 	0.03120 0.17670 0.31370 0.06100
C 	C 	0.09652 0.17521 0.40180 0.03100
H 	H 	0.11110 0.18110 0.32840 0.02200
C 	C 	0.33224 0.19027 0.81650 0.41500
C 	C 	0.38206 0.19387 0.87330 -0.16200
C 	C 	0.41612 0.18970 0.79350 0.07200
H 	H 	0.40860 0.18390 0.70620 0.01900
C 	C 	0.46261 0.19400 0.84240 -0.13200
H 	H 	0.48570 0.19250 0.78590 0.07700
C 	C 	0.47467 0.20061 0.97260 0.05700
C 	C 	0.43934 0.20503 0.05300 -0.13700
H 	H 	0.44660 0.21000 0.14120 0.08000
C 	C 	0.39423 0.20218 0.00350 0.07800
H 	H 	0.37100 0.20590 0.05810 0.00600
C 	C 	0.33131 0.18669 0.30870 0.36700
C 	C 	0.38213 0.18840 0.36640 -0.14400
C 	C 	0.41036 0.16028 0.35600 0.05300
H 	H 	0.39810 0.14130 0.31140 0.02000
C 	C 	0.45556 0.15957 0.40910 -0.12400
H 	H 	0.47320 0.14000 0.40450 0.07000
C 	C 	0.47543 0.18912 0.47150 0.04600
C 	C 	0.44775 0.21572 0.47950 -0.12800
H 	H 	0.45990 0.23540 0.51930 0.07100
C 	C 	0.40053 0.21527 0.42960 0.05800
H 	H 	0.38200 0.23410 0.44130 0.01300
