data_crystal

_cell_length_a 21.01400
_cell_length_b 13.15280
_cell_length_c 8.59080
_cell_angle_alpha 90.00000
_cell_angle_beta  100.36300
_cell_angle_gamma 90.00000

_symmetry_space_group_name_	'P 1'
_symmetry_space_group_name_H-M	'P 1'

loop_
_symmetry_equiv_pos_as_xyz
  x,y,z

loop_
_atom_site_label
_atom_site_type_symbol
_atom_site_fract_x
_atom_site_fract_y
_atom_site_fract_z
_atom_site_charge
Cu	Cu	0.69770 0.29522 0.92604 0.91300
O 	O 	0.74746 0.70718 0.25160 -0.43700
C 	C 	0.80519 0.73502 0.26120 0.44900
O 	O 	0.83850 0.77943 0.37880 -0.43600
C 	C 	0.83739 0.71228 0.12040 -0.46300
H 	H 	0.88490 0.71010 0.15600 0.16600
H 	H 	0.82760 0.76780 0.04200 0.18100
O 	O 	0.74482 0.42005 0.00930 -0.43400
C 	C 	0.81459 0.61100 0.04130 0.24100
H 	H 	0.76760 0.61480 0.99960 -0.01900
H 	H 	0.83700 0.59930 0.95090 -0.03900
O 	O 	0.83446 0.34286 0.13360 -0.43600
C 	C 	0.82806 0.52170 0.15660 -0.45800
H 	H 	0.87550 0.51440 0.18890 0.16700
H 	H 	0.81020 0.53830 0.25260 0.17900
C 	C 	0.80049 0.42050 0.09320 0.45300
N 	N 	0.61742 0.37510 0.78030 -0.08600
C 	C 	0.57354 0.32130 0.67750 0.03400
H 	H 	0.57050 0.24980 0.68970 0.02300
C 	C 	0.52648 0.36830 0.56960 -0.09400
H 	H 	0.49340 0.32770 0.51010 0.06100
C 	C 	0.56840 0.53030 0.67800 -0.02000
H 	H 	0.56530 0.60230 0.68190 0.02600
C 	C 	0.61550 0.47830 0.78180 0.04500
H 	H 	0.64660 0.51510 0.85430 0.00500
C 	C 	0.52590 0.47398 0.56790 0.00500
C 	C 	0.52520 0.47240 0.54390 0.02400
C 	C 	0.58020 0.52000 0.62580 -0.05900
H 	H 	0.58700 0.58970 0.60510 0.05500
C 	C 	0.62500 0.47060 0.73510 -0.02500
H 	H 	0.65940 0.50980 0.79230 0.03700
N 	N 	0.62402 0.36980 0.76790 -0.06800
Cu	Cu	0.19770 0.79522 0.92604 0.91300
O 	O 	0.24746 0.20718 0.25160 -0.43600
C 	C 	0.30519 0.23502 0.26120 0.45000
O 	O 	0.33850 0.27943 0.37880 -0.43500
C 	C 	0.33739 0.21228 0.12040 -0.46200
H 	H 	0.38490 0.21010 0.15600 0.16700
H 	H 	0.32760 0.26780 0.04200 0.18200
O 	O 	0.24482 0.92005 0.00930 -0.43200
C 	C 	0.31459 0.11100 0.04130 0.24100
H 	H 	0.26760 0.11480 0.99960 -0.01700
H 	H 	0.33700 0.09930 0.95090 -0.03800
O 	O 	0.33446 0.84286 0.13360 -0.43500
C 	C 	0.32806 0.02170 0.15660 -0.45900
H 	H 	0.37550 0.01440 0.18890 0.16700
H 	H 	0.31020 0.03830 0.25260 0.17900
C 	C 	0.30049 0.92050 0.09320 0.45400
N 	N 	0.11742 0.87510 0.78030 -0.08600
C 	C 	0.07354 0.82130 0.67750 0.03400
H 	H 	0.07050 0.74980 0.68970 0.02300
C 	C 	0.02648 0.86830 0.56960 -0.09400
H 	H 	0.99340 0.82770 0.51010 0.06100
C 	C 	0.06840 0.03030 0.67800 -0.01900
H 	H 	0.06530 0.10230 0.68190 0.02600
C 	C 	0.11550 0.97830 0.78180 0.04400
H 	H 	0.14660 0.01510 0.85430 0.00500
C 	C 	0.02590 0.97398 0.56790 0.00500
C 	C 	0.02520 0.97240 0.54390 0.02400
C 	C 	0.08020 0.02000 0.62580 -0.05900
H 	H 	0.08700 0.08970 0.60510 0.05500
C 	C 	0.12500 0.97060 0.73510 -0.02700
H 	H 	0.15940 0.00980 0.79230 0.03800
N 	N 	0.12402 0.86980 0.76790 -0.06800
Cu	Cu	0.30230 0.29522 0.57396 0.91400
O 	O 	0.25254 0.70718 0.24840 -0.43600
C 	C 	0.19481 0.73502 0.23880 0.45100
O 	O 	0.16150 0.77943 0.12120 -0.43500
C 	C 	0.16261 0.71228 0.37960 -0.46300
H 	H 	0.11510 0.71010 0.34400 0.16700
H 	H 	0.17240 0.76780 0.45800 0.18200
O 	O 	0.25518 0.42005 0.49070 -0.43300
C 	C 	0.18541 0.61100 0.45870 0.24300
H 	H 	0.23240 0.61480 0.50040 -0.01800
H 	H 	0.16300 0.59930 0.54910 -0.03900
O 	O 	0.16554 0.34286 0.36640 -0.43500
C 	C 	0.17194 0.52170 0.34340 -0.45900
H 	H 	0.12450 0.51440 0.31110 0.16700
H 	H 	0.18980 0.53830 0.24740 0.17900
C 	C 	0.19951 0.42050 0.40680 0.45400
N 	N 	0.38258 0.37510 0.71970 -0.08600
C 	C 	0.42646 0.32130 0.82250 0.03400
H 	H 	0.42950 0.24980 0.81030 0.02300
C 	C 	0.47352 0.36830 0.93040 -0.09400
H 	H 	0.50660 0.32770 0.98990 0.06100
C 	C 	0.43160 0.53030 0.82200 -0.02000
H 	H 	0.43470 0.60230 0.81810 0.02600
C 	C 	0.38450 0.47830 0.71820 0.04500
H 	H 	0.35340 0.51510 0.64570 0.00500
C 	C 	0.47410 0.47398 0.93210 0.00500
C 	C 	0.47480 0.47240 0.95610 0.02400
C 	C 	0.41980 0.52000 0.87420 -0.05900
H 	H 	0.41300 0.58970 0.89490 0.05500
C 	C 	0.37500 0.47060 0.76490 -0.02500
H 	H 	0.34060 0.50980 0.70770 0.03700
N 	N 	0.37598 0.36980 0.73210 -0.06800
Cu	Cu	0.80229 0.79522 0.57396 0.91400
O 	O 	0.75254 0.20718 0.24840 -0.43600
C 	C 	0.69481 0.23502 0.23880 0.45100
O 	O 	0.66150 0.27943 0.12120 -0.43600
C 	C 	0.66261 0.21228 0.37960 -0.46300
H 	H 	0.61510 0.21010 0.34400 0.16700
H 	H 	0.67240 0.26780 0.45800 0.18200
O 	O 	0.75518 0.92005 0.49070 -0.43300
C 	C 	0.68541 0.11100 0.45870 0.24300
H 	H 	0.73240 0.11480 0.50040 -0.01800
H 	H 	0.66300 0.09930 0.54910 -0.03900
O 	O 	0.66554 0.84286 0.36640 -0.43500
C 	C 	0.67194 0.02170 0.34340 -0.45900
H 	H 	0.62450 0.01440 0.31110 0.16700
H 	H 	0.68980 0.03830 0.24740 0.17900
C 	C 	0.69951 0.92050 0.40680 0.45400
N 	N 	0.88258 0.87510 0.71970 -0.08600
C 	C 	0.92646 0.82130 0.82250 0.03300
H 	H 	0.92950 0.74980 0.81030 0.02400
C 	C 	0.97352 0.86830 0.93040 -0.09200
H 	H 	0.00660 0.82770 0.98990 0.06000
C 	C 	0.93160 0.03030 0.82200 -0.01900
H 	H 	0.93470 0.10230 0.81810 0.02600
C 	C 	0.88450 0.97830 0.71820 0.04400
H 	H 	0.85340 0.01510 0.64570 0.00500
C 	C 	0.97410 0.97398 0.93210 0.00500
C 	C 	0.97480 0.97240 0.95610 0.02400
C 	C 	0.91980 0.02000 0.87420 -0.05900
H 	H 	0.91300 0.08970 0.89490 0.05500
C 	C 	0.87500 0.97060 0.76490 -0.02600
H 	H 	0.84060 0.00980 0.70770 0.03700
N 	N 	0.87598 0.86980 0.73210 -0.06800
Cu	Cu	0.30230 0.70478 0.07396 0.91400
O 	O 	0.25254 0.29282 0.74840 -0.43600
C 	C 	0.19481 0.26498 0.73880 0.45000
O 	O 	0.16150 0.22057 0.62120 -0.43500
C 	C 	0.16261 0.28772 0.87960 -0.46200
H 	H 	0.11510 0.28990 0.84400 0.16700
H 	H 	0.17240 0.23220 0.95800 0.18200
O 	O 	0.25518 0.57995 0.99070 -0.43300
C 	C 	0.18541 0.38900 0.95870 0.24200
H 	H 	0.23240 0.38520 0.00040 -0.01800
H 	H 	0.16300 0.40070 0.04910 -0.03800
O 	O 	0.16554 0.65714 0.86640 -0.43500
C 	C 	0.17194 0.47830 0.84340 -0.45800
H 	H 	0.12450 0.48560 0.81110 0.16700
H 	H 	0.18980 0.46170 0.74740 0.17900
C 	C 	0.19951 0.57950 0.90680 0.45300
N 	N 	0.38258 0.62490 0.21970 -0.08600
C 	C 	0.42646 0.67870 0.32250 0.03400
H 	H 	0.42950 0.75020 0.31030 0.02300
C 	C 	0.47352 0.63170 0.43040 -0.09400
H 	H 	0.50660 0.67230 0.48990 0.06100
C 	C 	0.43160 0.46970 0.32200 -0.02000
H 	H 	0.43470 0.39770 0.31810 0.02600
C 	C 	0.38450 0.52170 0.21820 0.04500
H 	H 	0.35340 0.48490 0.14570 0.00500
C 	C 	0.47410 0.52602 0.43210 0.00500
C 	C 	0.47480 0.52760 0.45610 0.02400
C 	C 	0.41980 0.48000 0.37420 -0.05900
H 	H 	0.41300 0.41030 0.39490 0.05500
C 	C 	0.37500 0.52940 0.26490 -0.02500
H 	H 	0.34060 0.49020 0.20770 0.03700
N 	N 	0.37598 0.63020 0.23210 -0.06800
Cu	Cu	0.80229 0.20478 0.07396 0.91300
O 	O 	0.75254 0.79282 0.74840 -0.43600
C 	C 	0.69481 0.76498 0.73880 0.45000
O 	O 	0.66150 0.72057 0.62120 -0.43500
C 	C 	0.66261 0.78772 0.87960 -0.46200
H 	H 	0.61510 0.78990 0.84400 0.16700
H 	H 	0.67240 0.73220 0.95800 0.18200
O 	O 	0.75518 0.07995 0.99070 -0.43200
C 	C 	0.68541 0.88900 0.95870 0.24100
H 	H 	0.73240 0.88520 0.00040 -0.01700
H 	H 	0.66300 0.90070 0.04910 -0.03800
O 	O 	0.66554 0.15714 0.86640 -0.43500
C 	C 	0.67194 0.97830 0.84340 -0.45900
H 	H 	0.62450 0.98560 0.81110 0.16700
H 	H 	0.68980 0.96170 0.74740 0.17900
C 	C 	0.69951 0.07950 0.90680 0.45400
N 	N 	0.88258 0.12490 0.21970 -0.08600
C 	C 	0.92646 0.17870 0.32250 0.03400
H 	H 	0.92950 0.25020 0.31030 0.02300
C 	C 	0.97352 0.13170 0.43040 -0.09400
H 	H 	0.00660 0.17230 0.48990 0.06100
C 	C 	0.93160 0.96970 0.32200 -0.01900
H 	H 	0.93470 0.89770 0.31810 0.02600
C 	C 	0.88450 0.02170 0.21820 0.04400
H 	H 	0.85340 0.98490 0.14570 0.00500
C 	C 	0.97410 0.02602 0.43210 0.00500
C 	C 	0.97480 0.02760 0.45610 0.02400
C 	C 	0.91980 0.98000 0.37420 -0.05900
H 	H 	0.91300 0.91030 0.39490 0.05500
C 	C 	0.87500 0.02940 0.26490 -0.02700
H 	H 	0.84060 0.99020 0.20770 0.03800
N 	N 	0.87598 0.13020 0.23210 -0.06800
Cu	Cu	0.69770 0.70478 0.42604 0.91400
O 	O 	0.74746 0.29282 0.75160 -0.43600
C 	C 	0.80519 0.26498 0.76120 0.45100
O 	O 	0.83850 0.22057 0.87880 -0.43500
C 	C 	0.83739 0.28772 0.62040 -0.46300
H 	H 	0.88490 0.28990 0.65600 0.16700
H 	H 	0.82760 0.23220 0.54200 0.18200
O 	O 	0.74482 0.57995 0.50930 -0.43300
C 	C 	0.81459 0.38900 0.54130 0.24300
H 	H 	0.76760 0.38520 0.49960 -0.01800
H 	H 	0.83700 0.40070 0.45090 -0.03900
O 	O 	0.83446 0.65714 0.63360 -0.43500
C 	C 	0.82806 0.47830 0.65660 -0.45900
H 	H 	0.87550 0.48560 0.68890 0.16700
H 	H 	0.81020 0.46170 0.75260 0.17900
C 	C 	0.80049 0.57950 0.59320 0.45400
N 	N 	0.61742 0.62490 0.28030 -0.08600
C 	C 	0.57354 0.67870 0.17750 0.03400
H 	H 	0.57050 0.75020 0.18970 0.02300
C 	C 	0.52648 0.63170 0.06960 -0.09400
H 	H 	0.49340 0.67230 0.01010 0.06100
C 	C 	0.56840 0.46970 0.17800 -0.02000
H 	H 	0.56530 0.39770 0.18190 0.02600
C 	C 	0.61550 0.52170 0.28180 0.04500
H 	H 	0.64660 0.48490 0.35430 0.00500
C 	C 	0.52590 0.52602 0.06790 0.00500
C 	C 	0.52520 0.52760 0.04390 0.02400
C 	C 	0.58020 0.48000 0.12580 -0.05900
H 	H 	0.58700 0.41030 0.10510 0.05500
C 	C 	0.62500 0.52940 0.23510 -0.02500
H 	H 	0.65940 0.49020 0.29230 0.03700
N 	N 	0.62402 0.63020 0.26790 -0.06800
Cu	Cu	0.19770 0.20478 0.42604 0.91400
O 	O 	0.24746 0.79282 0.75160 -0.43600
C 	C 	0.30519 0.76498 0.76120 0.45100
O 	O 	0.33850 0.72057 0.87880 -0.43600
C 	C 	0.33739 0.78772 0.62040 -0.46300
H 	H 	0.38490 0.78990 0.65600 0.16700
H 	H 	0.32760 0.73220 0.54200 0.18200
O 	O 	0.24482 0.07995 0.50930 -0.43300
C 	C 	0.31459 0.88900 0.54130 0.24300
H 	H 	0.26760 0.88520 0.49960 -0.01800
H 	H 	0.33700 0.90070 0.45090 -0.03900
O 	O 	0.33446 0.15714 0.63360 -0.43500
C 	C 	0.32806 0.97830 0.65660 -0.45900
H 	H 	0.37550 0.98560 0.68890 0.16700
H 	H 	0.31020 0.96170 0.75260 0.17900
C 	C 	0.30049 0.07950 0.59320 0.45400
N 	N 	0.11742 0.12490 0.28030 -0.08600
C 	C 	0.07354 0.17870 0.17750 0.03300
H 	H 	0.07050 0.25020 0.18970 0.02400
C 	C 	0.02648 0.13170 0.06960 -0.09200
H 	H 	0.99340 0.17230 0.01010 0.06000
C 	C 	0.06840 0.96970 0.17800 -0.01900
H 	H 	0.06530 0.89770 0.18190 0.02600
C 	C 	0.11550 0.02170 0.28180 0.04400
H 	H 	0.14660 0.98490 0.35430 0.00500
C 	C 	0.02590 0.02602 0.06790 0.00500
C 	C 	0.02520 0.02760 0.04390 0.02400
C 	C 	0.08020 0.98000 0.12580 -0.05900
H 	H 	0.08700 0.91030 0.10510 0.05500
C 	C 	0.12500 0.02940 0.23510 -0.02600
H 	H 	0.15940 0.99020 0.29230 0.03700
N 	N 	0.12402 0.13020 0.26790 -0.06800
