data_crystal

_cell_length_a 8.58000
_cell_length_b 13.17600
_cell_length_c 15.33210
_cell_angle_alpha 115.44800
_cell_angle_beta  95.22030
_cell_angle_gamma 90.00000

_symmetry_space_group_name_	'P 1'
_symmetry_space_group_name_H-M	'P 1'

loop_
_symmetry_equiv_pos_as_xyz
  x,y,z

loop_
_atom_site_label
_atom_site_type_symbol
_atom_site_fract_x
_atom_site_fract_y
_atom_site_fract_z
_atom_site_charge
Cu	Cu	0.03753 0.00605 0.42132 0.91400
Cu	Cu	0.96247 0.99395 0.57868 0.91400
Cu	Cu	0.46247 0.58473 0.57868 0.91600
Cu	Cu	0.53753 0.41527 0.42132 0.91600
H 	H 	0.79220 0.33510 0.59300 0.17900
H 	H 	0.70780 0.74210 0.40700 0.17900
H 	H 	0.58800 0.86190 0.90080 0.05700
H 	H 	0.61250 0.21370 0.62820 -0.03900
H 	H 	0.88750 0.58550 0.37180 -0.03900
H 	H 	0.09460 0.64120 0.31120 0.16800
H 	H 	0.29220 0.25790 0.59300 0.17900
H 	H 	0.01390 0.37660 0.52460 -0.01900
H 	H 	0.40540 0.33000 0.68880 0.16900
H 	H 	0.90540 0.35880 0.68880 0.16800
H 	H 	0.98610 0.62340 0.47540 -0.01900
H 	H 	0.31580 0.87640 0.11180 0.08400
H 	H 	0.68420 0.12360 0.88820 0.08400
H 	H 	0.20780 0.66490 0.40700 0.17900
H 	H 	0.98680 0.42540 0.38560 0.18500
H 	H 	0.41200 0.13810 0.09920 0.05700
H 	H 	0.27800 0.21420 0.24760 0.09600
H 	H 	0.22200 0.96660 0.75240 0.09700
H 	H 	0.17220 0.86010 0.22640 0.01100
H 	H 	0.72200 0.78580 0.75240 0.09600
H 	H 	0.38750 0.78630 0.37180 -0.03900
H 	H 	0.63720 0.17100 0.36000 0.01800
H 	H 	0.77800 0.03340 0.24760 0.09700
H 	H 	0.59460 0.67000 0.31120 0.16900
H 	H 	0.43820 0.14050 0.70040 0.17200
H 	H 	0.18420 0.76460 0.88820 0.08400
H 	H 	0.08800 0.03890 0.90080 0.05100
H 	H 	0.81580 0.23540 0.11180 0.08400
H 	H 	0.36280 0.82900 0.64000 0.01800
H 	H 	0.13720 0.18900 0.36000 0.01800
H 	H 	0.56180 0.85950 0.29960 0.17200
H 	H 	0.67220 0.36630 0.22640 0.01100
H 	H 	0.51320 0.03980 0.61440 0.18500
H 	H 	0.32780 0.63370 0.77360 0.01100
H 	H 	0.11250 0.41450 0.62820 -0.03900
H 	H 	0.86280 0.81100 0.64000 0.01800
H 	H 	0.48680 0.96020 0.38560 0.18500
H 	H 	0.51390 0.14800 0.52460 -0.01900
H 	H 	0.82780 0.13990 0.77360 0.01100
H 	H 	0.01320 0.57460 0.61440 0.18500
H 	H 	0.93820 0.55990 0.70040 0.17100
H 	H 	0.91200 0.96110 0.09920 0.05100
H 	H 	0.06180 0.44010 0.29960 0.17100
H 	H 	0.48610 0.85200 0.47540 -0.01900
C 	C 	0.30610 0.70231 0.76942 0.07400
C 	C 	0.59840 0.71318 0.38248 -0.46000
C 	C 	0.44150 0.10272 0.62914 -0.46800
C 	C 	0.74220 0.85936 0.75792 -0.14900
C 	C 	0.09840 0.66930 0.38248 -0.45700
C 	C 	0.05850 0.47358 0.37086 -0.46600
C 	C 	0.67310 0.18371 0.30862 0.08500
C 	C 	0.59950 0.93505 0.90390 -0.03000
C 	C 	0.80610 0.06711 0.76942 0.07800
C 	C 	0.94150 0.52642 0.62914 -0.46600
C 	C 	0.22170 0.47517 0.41934 0.45300
C 	C 	0.22030 0.77982 0.83804 -0.14100
C 	C 	0.27970 0.94178 0.16196 -0.14000
C 	C 	0.90160 0.33070 0.61752 -0.45700
C 	C 	0.44370 0.36676 0.57480 0.45400
C 	C 	0.18760 0.88051 0.83242 0.10300
C 	C 	0.50590 0.18652 0.59542 0.24800
C 	C 	0.55850 0.89728 0.37086 -0.46800
C 	C 	0.09950 0.96885 0.90390 -0.02100
C 	C 	0.99410 0.59110 0.40458 0.24500
C 	C 	0.19390 0.93289 0.23058 0.07800
C 	C 	0.40050 0.06495 0.09610 -0.03000
C 	C 	0.68760 0.95191 0.83242 0.10300
C 	C 	0.40160 0.28682 0.61752 -0.46000
C 	C 	0.32690 0.81629 0.69138 0.08500
C 	C 	0.05630 0.79196 0.42520 0.45300
C 	C 	0.31240 0.04809 0.16758 0.10300
C 	C 	0.90050 0.03115 0.09610 -0.02100
C 	C 	0.24220 0.89856 0.75792 -0.14800
C 	C 	0.25780 0.14064 0.24208 -0.14900
C 	C 	0.72030 0.05822 0.83804 -0.14000
C 	C 	0.72170 0.94417 0.41934 0.45300
C 	C 	0.55630 0.63324 0.42520 0.45400
C 	C 	0.77970 0.22018 0.16196 -0.14100
C 	C 	0.77830 0.52483 0.58066 0.45300
C 	C 	0.81240 0.11949 0.16758 0.10300
C 	C 	0.75780 0.10144 0.24208 -0.14800
C 	C 	0.94370 0.20804 0.57480 0.45300
C 	C 	0.27830 0.05583 0.58066 0.45300
C 	C 	0.49410 0.81348 0.40458 0.24800
C 	C 	0.69390 0.29769 0.23058 0.07400
C 	C 	0.00590 0.40890 0.59542 0.24500
C 	C 	0.17310 0.12491 0.30862 0.08500
C 	C 	0.82690 0.87509 0.69138 0.08500
N 	N 	0.36020 0.71925 0.69692 -0.19000
N 	N 	0.03890 0.95226 0.96972 -0.07600
N 	N 	0.63980 0.28075 0.30308 -0.19000
N 	N 	0.46110 0.98254 0.03028 -0.07400
N 	N 	0.86020 0.97767 0.69692 -0.19200
N 	N 	0.96110 0.04774 0.03028 -0.07600
N 	N 	0.13980 0.02233 0.30308 -0.19200
N 	N 	0.53890 0.01746 0.96972 -0.07400
O 	O 	0.57370 0.53036 0.37442 -0.43600
O 	O 	0.01200 0.83401 0.50908 -0.42800
O 	O 	0.74700 0.45313 0.49460 -0.43700
O 	O 	0.07370 0.84406 0.37442 -0.43300
O 	O 	0.75300 0.95853 0.50540 -0.43800
O 	O 	0.81600 0.96406 0.36918 -0.43500
O 	O 	0.51200 0.67507 0.50908 -0.43100
O 	O 	0.98800 0.16599 0.49092 -0.42800
O 	O 	0.18400 0.03594 0.63082 -0.43500
O 	O 	0.92630 0.15594 0.62558 -0.43300
O 	O 	0.24700 0.04147 0.49460 -0.43800
O 	O 	0.48800 0.32493 0.49092 -0.43100
O 	O 	0.25300 0.54687 0.50540 -0.43700
O 	O 	0.31600 0.40512 0.36918 -0.43300
O 	O 	0.68400 0.59488 0.63082 -0.43300
O 	O 	0.42630 0.46964 0.62558 -0.43600
