data_crystal

_cell_length_a 8.71510
_cell_length_b 8.71510
_cell_length_c 19.01100
_cell_angle_alpha 90.00000
_cell_angle_beta  90.00000
_cell_angle_gamma 120.00000

_symmetry_space_group_name_	'P 1'
_symmetry_space_group_name_H-M	'P 1'

loop_
_symmetry_equiv_pos_as_xyz
  x,y,z

loop_
_atom_site_label
_atom_site_type_symbol
_atom_site_fract_x
_atom_site_fract_y
_atom_site_fract_z
_atom_site_charge
Co	Co	0.66667 0.33333 0.33333 1.17100
Co	Co	0.33333 0.66667 0.66667 1.16900
Co	Co	-0.00000 0.00000 -0.00000 1.05800
K 	K 	-0.00000 -0.00000 0.50000 0.60300
K 	K 	0.66667 0.33333 0.83333 0.64100
K 	K 	0.33333 0.66667 0.16667 0.63600
N 	N 	0.83425 0.66850 0.42266 -0.06700
C 	C 	0.77040 0.54080 0.39003 -0.18700
N 	N 	0.50092 0.00183 0.75599 -0.17500
C 	C 	0.43707 0.87413 0.72336 -0.10300
N 	N 	0.16758 0.33517 0.08933 -0.10800
C 	C 	0.10373 0.20747 0.05670 -0.29900
N 	N 	0.33150 0.16575 0.42266 -0.12500
C 	C 	0.45920 0.22960 0.39003 -0.21700
N 	N 	0.99817 0.49908 0.75599 -0.02800
C 	C 	0.12587 0.56293 0.72336 -0.28400
N 	N 	0.66483 0.83242 0.08933 -0.10600
C 	C 	0.79253 0.89627 0.05670 -0.13400
N 	N 	0.83425 0.16575 0.42266 -0.09700
C 	C 	0.77040 0.22960 0.39003 -0.20300
N 	N 	0.50092 0.49908 0.75599 -0.09600
C 	C 	0.43707 0.56293 0.72336 -0.20000
N 	N 	0.16758 0.83242 0.08933 -0.10700
C 	C 	0.10373 0.89627 0.05670 -0.20400
N 	N 	0.66850 0.83425 0.57734 -0.06700
C 	C 	0.54080 0.77040 0.60997 -0.18600
N 	N 	0.33517 0.16758 0.91067 -0.10300
C 	C 	0.20747 0.10373 0.94330 -0.22300
N 	N 	0.00183 0.50092 0.24401 -0.16900
C 	C 	0.87413 0.43707 0.27664 -0.11900
N 	N 	0.16575 0.33150 0.57734 -0.12400
C 	C 	0.22960 0.45920 0.60997 -0.21600
N 	N 	0.83242 0.66483 0.91067 -0.10100
C 	C 	0.89627 0.79253 0.94330 -0.06300
N 	N 	0.49908 0.99817 0.24401 -0.02100
C 	C 	0.56293 0.12587 0.27664 -0.30200
N 	N 	0.16575 0.83425 0.57734 -0.09200
C 	C 	0.22960 0.77040 0.60997 -0.20000
N 	N 	0.83242 0.16758 0.91067 -0.10300
C 	C 	0.89627 0.10373 0.94330 -0.14400
N 	N 	0.49908 0.50092 0.24401 -0.10100
C 	C 	0.56293 0.43707 0.27664 -0.20400
