data_crystal

_cell_length_a 13.42700
_cell_length_b 8.73180
_cell_length_c 15.08300
_cell_angle_alpha 90.00000
_cell_angle_beta  111.70000
_cell_angle_gamma 90.00000

_symmetry_space_group_name_	'P 1'
_symmetry_space_group_name_H-M	'P 1'

loop_
_symmetry_equiv_pos_as_xyz
  x,y,z

loop_
_atom_site_label
_atom_site_type_symbol
_atom_site_fract_x
_atom_site_fract_y
_atom_site_fract_z
_atom_site_charge
C 	C 	0.66390 0.23540 0.57530 -0.20100
C 	C 	0.83490 0.40040 0.58710 -0.19900
C 	C 	0.83540 0.08760 0.57430 -0.19900
N 	N 	0.61480 0.22260 0.62320 -0.09500
N 	N 	0.88250 0.49210 0.64100 -0.09700
N 	N 	0.88210 0.98360 0.61600 -0.10200
C 	C 	0.16390 0.73540 0.57530 -0.19900
C 	C 	0.33490 0.90040 0.58710 -0.19700
C 	C 	0.33540 0.58760 0.57430 -0.19900
N 	N 	0.11480 0.72260 0.62320 -0.09200
N 	N 	0.38250 0.99210 0.64100 -0.09500
N 	N 	0.38210 0.48360 0.61600 -0.09800
C 	C 	0.33610 0.23540 0.92470 -0.11300
C 	C 	0.16510 0.40040 0.91290 -0.10800
C 	C 	0.16460 0.08760 0.92570 -0.11100
N 	N 	0.38520 0.22260 0.87680 -0.09900
N 	N 	0.11750 0.49210 0.85900 -0.09600
N 	N 	0.11790 0.98360 0.88400 -0.09300
C 	C 	0.83610 0.73540 0.92470 -0.11700
C 	C 	0.66510 0.90040 0.91290 -0.11300
C 	C 	0.66460 0.58760 0.92570 -0.11200
N 	N 	0.88520 0.72260 0.87680 -0.10200
N 	N 	0.61750 0.99210 0.85900 -0.10000
N 	N 	0.61790 0.48360 0.88400 -0.09800
C 	C 	0.33610 0.76460 0.42470 -0.20600
C 	C 	0.16510 0.59960 0.41290 -0.20000
C 	C 	0.16460 0.91240 0.42570 -0.20100
N 	N 	0.38520 0.77740 0.37680 -0.10300
N 	N 	0.11750 0.50790 0.35900 -0.09900
N 	N 	0.11790 0.01640 0.38400 -0.10200
C 	C 	0.83610 0.26460 0.42470 -0.20800
C 	C 	0.66510 0.09960 0.41290 -0.20300
C 	C 	0.66460 0.41240 0.42570 -0.20400
N 	N 	0.88520 0.27740 0.37680 -0.10500
N 	N 	0.61750 0.00790 0.35900 -0.10200
N 	N 	0.61790 0.51640 0.38400 -0.10400
C 	C 	0.66390 0.76460 0.07530 -0.26400
C 	C 	0.83490 0.59960 0.08710 -0.26100
C 	C 	0.83540 0.91240 0.07430 -0.26600
N 	N 	0.61480 0.77740 0.12320 -0.10800
N 	N 	0.88250 0.50790 0.14100 -0.10600
N 	N 	0.88210 0.01640 0.11600 -0.11100
C 	C 	0.16390 0.26460 0.07530 -0.26100
C 	C 	0.33490 0.09960 0.08710 -0.25900
C 	C 	0.33540 0.41240 0.07430 -0.26200
N 	N 	0.11480 0.27740 0.12320 -0.10500
N 	N 	0.38250 0.00790 0.14100 -0.10400
N 	N 	0.38210 0.51640 0.11600 -0.11100
Co	Co	0.75000 0.25000 0.50000 1.16700
Co	Co	0.25000 0.25000 -0.00000 1.10000
Co	Co	0.25000 0.75000 0.50000 1.16700
Co	Co	0.75000 0.75000 -0.00000 1.10100
K 	K 	0.50000 0.25132 0.75000 0.64400
K 	K 	1.00000 0.75132 0.75000 0.64100
K 	K 	0.50000 0.74868 0.25000 0.63400
K 	K 	0.00000 0.24868 0.25000 0.63600
