data_crystal

_cell_length_a 30.48520
_cell_length_b 9.05180
_cell_length_c 20.18650
_cell_angle_alpha 90.00000
_cell_angle_beta  107.08600
_cell_angle_gamma 90.00000

_symmetry_space_group_name_	'P 1'
_symmetry_space_group_name_H-M	'P 1'

loop_
_symmetry_equiv_pos_as_xyz
  x,y,z

loop_
_atom_site_label
_atom_site_type_symbol
_atom_site_fract_x
_atom_site_fract_y
_atom_site_fract_z
_atom_site_charge
Eu	Eu	0.24985 0.97281 0.07276 1.75200
O 	O 	0.18081 0.87790 0.99830 -0.53000
O 	O 	0.80643 0.96820 0.86460 -0.43900
O 	O 	0.31688 0.02660 0.18120 -0.41300
O 	O 	0.30067 0.18640 0.09640 -0.43600
O 	O 	0.80443 0.81690 0.94910 -0.41000
O 	O 	0.19567 0.66080 0.95910 -0.59000
C 	C 	0.37359 0.21100 0.17940 -0.20600
C 	C 	0.32800 0.13770 0.15180 0.35900
C 	C 	0.11850 0.72250 0.94570 -0.25700
C 	C 	0.40550 0.16050 0.23940 0.16600
H 	H 	0.39810 0.08210 0.26390 -0.01800
C 	C 	0.82430 0.86700 0.90610 0.36500
C 	C 	0.16887 0.75650 0.96930 0.51900
C 	C 	0.38530 0.32900 0.14350 0.15900
H 	H 	0.36410 0.36310 0.10320 -0.00800
C 	C 	0.08670 0.79580 0.96930 0.20500
H 	H 	0.09630 0.87430 0.99980 -0.03000
C 	C 	0.42780 0.39640 0.16680 -0.28900
H 	H 	0.43520 0.47540 0.14270 0.14500
C 	C 	0.45930 0.34350 0.22720 0.30800
C 	C 	0.44840 0.22650 0.26310 -0.30700
H 	H 	0.46980 0.19170 0.30300 0.15000
C 	C 	0.04090 0.75650 0.94920 -0.32800
H 	H 	0.02120 0.78120 0.97500 0.10900
C 	C 	0.10220 0.63940 0.87930 0.17100
H 	H 	0.12270 0.60770 0.85600 -0.03200
O 	O 	0.98030 0.62310 0.85520 -0.26200
C 	C 	0.02500 0.67050 0.88230 0.25300
C 	C 	0.05560 0.61070 0.85330 -0.26400
H 	H 	0.04510 0.54900 0.81510 0.13400
C 	C 	0.95030 0.64040 0.91800 -0.34800
C 	C 	0.92710 0.60320 0.96550 -0.43600
H 	H 	0.93850 0.52920 0.99790 0.18900
C 	C 	0.88690 0.67680 0.96450 -0.10700
H 	H 	0.87140 0.65190 0.99630 0.05300
C 	C 	0.86990 0.78740 0.91610 -0.23300
C 	C 	0.89310 0.82460 0.86850 0.22900
H 	H 	0.88170 0.89860 0.83610 -0.05500
C 	C 	0.93330 0.75100 0.86950 0.06600
H 	H 	0.94880 0.77590 0.83770 0.23500
H 	H 	0.01830 0.82470 0.95040 0.08300
C 	C 	0.92940 0.83040 0.84220 -0.65500
H 	H 	0.94390 0.87770 0.81360 0.21700
C 	C 	0.94650 0.69740 0.87380 0.17200
C 	C 	0.92470 0.62670 0.91660 0.39500
H 	H 	0.93610 0.53780 0.93770 0.11600
C 	C 	0.88580 0.68900 0.92770 0.12600
H 	H 	0.87120 0.64170 0.95630 0.06800
C 	C 	0.86870 0.82200 0.89610 -0.01800
C 	C 	0.89050 0.89270 0.85340 0.04200
H 	H 	0.87900 0.98160 0.83220 0.05400
C 	C 	0.10550 0.57230 0.92640 -0.02600
H 	H 	0.12800 0.50500 0.92380 0.03100
C 	C 	0.06150 0.52600 0.91190 -0.05600
H 	H 	0.05310 0.43400 0.89150 0.06600
C 	C 	0.02950 0.61390 0.92730 0.06400
O 	O 	0.98610 0.55350 0.91380 -0.08000
Eu	Eu	0.74985 0.47281 0.07276 1.76300
O 	O 	0.68081 0.37790 0.99830 -0.53100
O 	O 	0.30643 0.46820 0.86460 -0.44000
O 	O 	0.81688 0.52660 0.18120 -0.41500
O 	O 	0.80067 0.68640 0.09640 -0.43800
O 	O 	0.30443 0.31690 0.94910 -0.41200
O 	O 	0.69567 0.16080 0.95910 -0.59000
C 	C 	0.87359 0.71100 0.17940 -0.20200
C 	C 	0.82800 0.63770 0.15180 0.35700
C 	C 	0.61850 0.22250 0.94570 -0.25400
C 	C 	0.90550 0.66050 0.23940 0.16000
H 	H 	0.89810 0.58210 0.26390 -0.01700
C 	C 	0.32430 0.36700 0.90610 0.36500
C 	C 	0.66887 0.25650 0.96930 0.51700
C 	C 	0.88530 0.82900 0.14350 0.15300
H 	H 	0.86410 0.86310 0.10320 -0.00700
C 	C 	0.58670 0.29580 0.96930 0.19800
H 	H 	0.59630 0.37430 0.99980 -0.02900
C 	C 	0.92780 0.89640 0.16680 -0.28100
H 	H 	0.93520 0.97540 0.14270 0.14000
C 	C 	0.95930 0.84350 0.22720 0.29400
C 	C 	0.94840 0.72650 0.26310 -0.29900
H 	H 	0.96980 0.69170 0.30300 0.14500
C 	C 	0.54090 0.25650 0.94920 -0.31800
H 	H 	0.52120 0.28120 0.97500 0.10600
C 	C 	0.60220 0.13940 0.87930 0.18300
H 	H 	0.62270 0.10770 0.85600 -0.03700
O 	O 	0.48030 0.12310 0.85520 -0.26000
C 	C 	0.52500 0.17050 0.88230 0.25500
C 	C 	0.55560 0.11070 0.85330 -0.27400
H 	H 	0.54510 0.04900 0.81510 0.13500
C 	C 	0.45030 0.14040 0.91800 -0.34800
C 	C 	0.42710 0.10320 0.96550 -0.43400
H 	H 	0.43850 0.02920 0.99790 0.18900
C 	C 	0.38690 0.17680 0.96450 -0.10600
H 	H 	0.37140 0.15190 0.99630 0.05200
C 	C 	0.36990 0.28740 0.91610 -0.23400
C 	C 	0.39310 0.32460 0.86850 0.23100
H 	H 	0.38170 0.39860 0.83610 -0.05600
C 	C 	0.43330 0.25100 0.86950 0.06500
H 	H 	0.44880 0.27590 0.83770 0.23600
H 	H 	0.51830 0.32470 0.95040 0.07800
C 	C 	0.42940 0.33040 0.84220 -0.65600
H 	H 	0.44390 0.37770 0.81360 0.21800
C 	C 	0.44650 0.19740 0.87380 0.17400
C 	C 	0.42470 0.12670 0.91660 0.39300
H 	H 	0.43610 0.03780 0.93770 0.11700
C 	C 	0.38580 0.18900 0.92770 0.12600
H 	H 	0.37120 0.14170 0.95630 0.06800
C 	C 	0.36870 0.32200 0.89610 -0.01800
C 	C 	0.39050 0.39270 0.85340 0.04200
H 	H 	0.37900 0.48160 0.83220 0.05400
C 	C 	0.60550 0.07230 0.92640 -0.04000
H 	H 	0.62800 0.00500 0.92380 0.03400
C 	C 	0.56150 0.02600 0.91190 -0.04500
H 	H 	0.55310 0.93400 0.89150 0.06300
C 	C 	0.52950 0.11390 0.92730 0.04900
O 	O 	0.48610 0.05350 0.91380 -0.07300
Eu	Eu	0.75015 0.97281 0.42724 1.75900
O 	O 	0.81919 0.87790 0.50170 -0.53100
O 	O 	0.19357 0.96820 0.63540 -0.43900
O 	O 	0.68312 0.02660 0.31880 -0.41300
O 	O 	0.69933 0.18640 0.40360 -0.43700
O 	O 	0.19557 0.81690 0.55090 -0.41100
O 	O 	0.80433 0.66080 0.54090 -0.59000
C 	C 	0.62641 0.21100 0.32060 -0.20600
C 	C 	0.67200 0.13770 0.34820 0.35900
C 	C 	0.88150 0.72250 0.55430 -0.25100
C 	C 	0.59450 0.16050 0.26060 0.16700
H 	H 	0.60190 0.08210 0.23610 -0.01800
C 	C 	0.17570 0.86700 0.59390 0.36500
C 	C 	0.83113 0.75650 0.53070 0.51700
C 	C 	0.61470 0.32900 0.35650 0.15900
H 	H 	0.63590 0.36310 0.39680 -0.00800
C 	C 	0.91330 0.79580 0.53070 0.19300
H 	H 	0.90370 0.87430 0.50020 -0.02800
C 	C 	0.57220 0.39640 0.33320 -0.28900
H 	H 	0.56480 0.47540 0.35730 0.14500
C 	C 	0.54070 0.34350 0.27280 0.30800
C 	C 	0.55160 0.22650 0.23690 -0.30700
H 	H 	0.53020 0.19170 0.19700 0.15100
C 	C 	0.95910 0.75650 0.55080 -0.31100
H 	H 	0.97880 0.78120 0.52500 0.10300
C 	C 	0.89780 0.63940 0.62070 0.16000
H 	H 	0.87730 0.60770 0.64400 -0.02800
O 	O 	0.01970 0.62310 0.64480 -0.25100
C 	C 	0.97500 0.67050 0.61770 0.23500
C 	C 	0.94440 0.61070 0.64670 -0.25100
H 	H 	0.95490 0.54900 0.68490 0.12600
C 	C 	0.04970 0.64040 0.58200 -0.35100
C 	C 	0.07290 0.60320 0.53450 -0.43300
H 	H 	0.06150 0.52920 0.50210 0.19000
C 	C 	0.11310 0.67680 0.53550 -0.10800
H 	H 	0.12860 0.65190 0.50370 0.05300
C 	C 	0.13010 0.78740 0.58390 -0.23400
C 	C 	0.10690 0.82460 0.63150 0.23000
H 	H 	0.11830 0.89860 0.66390 -0.05500
C 	C 	0.06670 0.75100 0.63050 0.06400
H 	H 	0.05120 0.77590 0.66230 0.23600
H 	H 	0.98170 0.82470 0.54960 0.07600
C 	C 	0.07060 0.83040 0.65780 -0.65300
H 	H 	0.05610 0.87770 0.68640 0.21900
C 	C 	0.05350 0.69740 0.62620 0.17400
C 	C 	0.07530 0.62670 0.58340 0.39700
H 	H 	0.06390 0.53780 0.56230 0.11600
C 	C 	0.11420 0.68900 0.57230 0.12500
H 	H 	0.12880 0.64170 0.54370 0.06900
C 	C 	0.13130 0.82200 0.60390 -0.01700
C 	C 	0.10950 0.89270 0.64660 0.04200
H 	H 	0.12100 0.98160 0.66780 0.05500
C 	C 	0.89450 0.57230 0.57360 -0.02300
H 	H 	0.87200 0.50500 0.57620 0.03000
C 	C 	0.93850 0.52600 0.58810 -0.05500
H 	H 	0.94690 0.43400 0.60850 0.06200
C 	C 	0.97050 0.61390 0.57270 0.05400
O 	O 	0.01390 0.55350 0.58620 -0.06900
Eu	Eu	0.25015 0.47281 0.42724 1.76300
O 	O 	0.31919 0.37790 0.50170 -0.53100
O 	O 	0.69357 0.46820 0.63540 -0.44000
O 	O 	0.18312 0.52660 0.31880 -0.41500
O 	O 	0.19933 0.68640 0.40360 -0.43800
O 	O 	0.69557 0.31690 0.55090 -0.41200
O 	O 	0.30433 0.16080 0.54090 -0.59000
C 	C 	0.12641 0.71100 0.32060 -0.20600
C 	C 	0.17200 0.63770 0.34820 0.35900
C 	C 	0.38150 0.22250 0.55430 -0.25400
C 	C 	0.09450 0.66050 0.26060 0.16600
H 	H 	0.10190 0.58210 0.23610 -0.01900
C 	C 	0.67570 0.36700 0.59390 0.36500
C 	C 	0.33113 0.25650 0.53070 0.51800
C 	C 	0.11470 0.82900 0.35650 0.15900
H 	H 	0.13590 0.86310 0.39680 -0.00800
C 	C 	0.41330 0.29580 0.53070 0.19900
H 	H 	0.40370 0.37430 0.50020 -0.02900
C 	C 	0.07220 0.89640 0.33320 -0.28800
H 	H 	0.06480 0.97540 0.35730 0.14500
C 	C 	0.04070 0.84350 0.27280 0.30700
C 	C 	0.05160 0.72650 0.23690 -0.30600
H 	H 	0.03020 0.69170 0.19700 0.15100
C 	C 	0.45910 0.25650 0.55080 -0.31900
H 	H 	0.47880 0.28120 0.52500 0.10600
C 	C 	0.39780 0.13940 0.62070 0.17400
H 	H 	0.37730 0.10770 0.64400 -0.03400
O 	O 	0.51970 0.12310 0.64480 -0.25800
C 	C 	0.47500 0.17050 0.61770 0.24900
C 	C 	0.44440 0.11070 0.64670 -0.26500
H 	H 	0.45490 0.04900 0.68490 0.13200
C 	C 	0.54970 0.14040 0.58200 -0.34900
C 	C 	0.57290 0.10320 0.53450 -0.43500
H 	H 	0.56150 0.02920 0.50210 0.19000
C 	C 	0.61310 0.17680 0.53550 -0.10700
H 	H 	0.62860 0.15190 0.50370 0.05300
C 	C 	0.63010 0.28740 0.58390 -0.23400
C 	C 	0.60690 0.32460 0.63150 0.23000
H 	H 	0.61830 0.39860 0.66390 -0.05500
C 	C 	0.56670 0.25100 0.63050 0.06500
H 	H 	0.55120 0.27590 0.66230 0.23600
H 	H 	0.48170 0.32470 0.54960 0.07900
C 	C 	0.57060 0.33040 0.65780 -0.65500
H 	H 	0.55610 0.37770 0.68640 0.21800
C 	C 	0.55350 0.19740 0.62620 0.17400
C 	C 	0.57530 0.12670 0.58340 0.39500
H 	H 	0.56390 0.03780 0.56230 0.11700
C 	C 	0.61420 0.18900 0.57230 0.12600
H 	H 	0.62880 0.14170 0.54370 0.06800
C 	C 	0.63130 0.32200 0.60390 -0.01800
C 	C 	0.60950 0.39270 0.64660 0.04200
H 	H 	0.62100 0.48160 0.66780 0.05400
C 	C 	0.39450 0.07230 0.57360 -0.03200
H 	H 	0.37200 0.00500 0.57620 0.03200
C 	C 	0.43850 0.02600 0.58810 -0.05000
H 	H 	0.44690 0.93400 0.60850 0.06300
C 	C 	0.47050 0.11390 0.57270 0.05400
O 	O 	0.51390 0.05350 0.58620 -0.07400
Eu	Eu	0.75015 0.02719 0.92724 1.75300
O 	O 	0.81919 0.12210 0.00170 -0.52900
O 	O 	0.19357 0.03180 0.13540 -0.43800
O 	O 	0.68312 0.97340 0.81880 -0.41200
O 	O 	0.69933 0.81360 0.90360 -0.43500
O 	O 	0.19557 0.18310 0.05090 -0.41000
O 	O 	0.80433 0.33920 0.04090 -0.59000
C 	C 	0.62641 0.78900 0.82060 -0.20500
C 	C 	0.67200 0.86230 0.84820 0.35900
C 	C 	0.88150 0.27750 0.05430 -0.25100
C 	C 	0.59450 0.83950 0.76060 0.16600
H 	H 	0.60190 0.91790 0.73610 -0.01800
C 	C 	0.17570 0.13300 0.09390 0.36400
C 	C 	0.83113 0.24350 0.03070 0.51600
C 	C 	0.61470 0.67100 0.85650 0.15900
H 	H 	0.63590 0.63690 0.89680 -0.00800
C 	C 	0.91330 0.20420 0.03070 0.19300
H 	H 	0.90370 0.12570 0.00020 -0.02700
C 	C 	0.57220 0.60360 0.83320 -0.28900
H 	H 	0.56480 0.52460 0.85730 0.14500
C 	C 	0.54070 0.65650 0.77280 0.30800
C 	C 	0.55160 0.77350 0.73690 -0.30700
H 	H 	0.53020 0.80830 0.69700 0.15000
C 	C 	0.95910 0.24350 0.05080 -0.31000
H 	H 	0.97880 0.21880 0.02500 0.10300
C 	C 	0.89780 0.36060 0.12070 0.15900
H 	H 	0.87730 0.39230 0.14400 -0.02800
O 	O 	0.01970 0.37690 0.14480 -0.25100
C 	C 	0.97500 0.32950 0.11770 0.23400
C 	C 	0.94440 0.38930 0.14670 -0.25000
H 	H 	0.95490 0.45100 0.18490 0.12600
C 	C 	0.04970 0.35960 0.08200 -0.35200
C 	C 	0.07290 0.39680 0.03450 -0.43200
H 	H 	0.06150 0.47080 0.00210 0.19000
C 	C 	0.11310 0.32320 0.03550 -0.10900
H 	H 	0.12860 0.34810 0.00370 0.05300
C 	C 	0.13010 0.21260 0.08390 -0.23300
C 	C 	0.10690 0.17540 0.13150 0.22900
H 	H 	0.11830 0.10140 0.16390 -0.05500
C 	C 	0.06670 0.24900 0.13050 0.06500
H 	H 	0.05120 0.22410 0.16230 0.23500
H 	H 	0.98170 0.17530 0.04960 0.07600
C 	C 	0.07060 0.16960 0.15780 -0.65300
H 	H 	0.05610 0.12230 0.18640 0.21900
C 	C 	0.05350 0.30260 0.12620 0.17400
C 	C 	0.07530 0.37330 0.08340 0.39900
H 	H 	0.06390 0.46220 0.06230 0.11500
C 	C 	0.11420 0.31100 0.07230 0.12400
H 	H 	0.12880 0.35830 0.04370 0.07000
C 	C 	0.13130 0.17800 0.10390 -0.01600
C 	C 	0.10950 0.10730 0.14660 0.04200
H 	H 	0.12100 0.01840 0.16780 0.05500
C 	C 	0.89450 0.42770 0.07360 -0.02200
H 	H 	0.87200 0.49500 0.07620 0.03000
C 	C 	0.93850 0.47400 0.08810 -0.05600
H 	H 	0.94690 0.56600 0.10850 0.06200
C 	C 	0.97050 0.38610 0.07270 0.05400
O 	O 	0.01390 0.44650 0.08620 -0.06900
Eu	Eu	0.25015 0.52719 0.92724 1.76400
O 	O 	0.31919 0.62210 0.00170 -0.53200
O 	O 	0.69357 0.53180 0.13540 -0.44000
O 	O 	0.18312 0.47340 0.81880 -0.41500
O 	O 	0.19933 0.31360 0.90360 -0.43800
O 	O 	0.69557 0.68310 0.05090 -0.41200
O 	O 	0.30433 0.83920 0.04090 -0.59000
C 	C 	0.12641 0.28900 0.82060 -0.20600
C 	C 	0.17200 0.36230 0.84820 0.35900
C 	C 	0.38150 0.77750 0.05430 -0.25400
C 	C 	0.09450 0.33950 0.76060 0.16600
H 	H 	0.10190 0.41790 0.73610 -0.01900
C 	C 	0.67570 0.63300 0.09390 0.36500
C 	C 	0.33113 0.74350 0.03070 0.51700
C 	C 	0.11470 0.17100 0.85650 0.15900
H 	H 	0.13590 0.13690 0.89680 -0.00900
C 	C 	0.41330 0.70420 0.03070 0.19800
H 	H 	0.40370 0.62570 0.00020 -0.02900
C 	C 	0.07220 0.10360 0.83320 -0.28800
H 	H 	0.06480 0.02460 0.85730 0.14400
C 	C 	0.04070 0.15650 0.77280 0.30700
C 	C 	0.05160 0.27350 0.73690 -0.30600
H 	H 	0.03020 0.30830 0.69700 0.15100
C 	C 	0.45910 0.74350 0.05080 -0.31800
H 	H 	0.47880 0.71880 0.02500 0.10600
C 	C 	0.39780 0.86060 0.12070 0.18200
H 	H 	0.37730 0.89230 0.14400 -0.03700
O 	O 	0.51970 0.87690 0.14480 -0.26000
C 	C 	0.47500 0.82950 0.11770 0.25400
C 	C 	0.44440 0.88930 0.14670 -0.27300
H 	H 	0.45490 0.95100 0.18490 0.13500
C 	C 	0.54970 0.85960 0.08200 -0.34800
C 	C 	0.57290 0.89680 0.03450 -0.43400
H 	H 	0.56150 0.97080 0.00210 0.18900
C 	C 	0.61310 0.82320 0.03550 -0.10600
H 	H 	0.62860 0.84810 0.00370 0.05200
C 	C 	0.63010 0.71260 0.08390 -0.23400
C 	C 	0.60690 0.67540 0.13150 0.23100
H 	H 	0.61830 0.60140 0.16390 -0.05600
C 	C 	0.56670 0.74900 0.13050 0.06400
H 	H 	0.55120 0.72410 0.16230 0.23600
H 	H 	0.48170 0.67530 0.04960 0.07800
C 	C 	0.57060 0.66960 0.15780 -0.65600
H 	H 	0.55610 0.62230 0.18640 0.21800
C 	C 	0.55350 0.80260 0.12620 0.17400
C 	C 	0.57530 0.87330 0.08340 0.39300
H 	H 	0.56390 0.96220 0.06230 0.11700
C 	C 	0.61420 0.81100 0.07230 0.12600
H 	H 	0.62880 0.85830 0.04370 0.06800
C 	C 	0.63130 0.67800 0.10390 -0.01800
C 	C 	0.60950 0.60730 0.14660 0.04200
H 	H 	0.62100 0.51840 0.16780 0.05400
C 	C 	0.39450 0.92770 0.07360 -0.04000
H 	H 	0.37200 0.99500 0.07620 0.03400
C 	C 	0.43850 0.97400 0.08810 -0.04500
H 	H 	0.44690 0.06600 0.10850 0.06400
C 	C 	0.47050 0.88610 0.07270 0.04900
O 	O 	0.51390 0.94650 0.08620 -0.07300
Eu	Eu	0.24985 0.02719 0.57276 1.75900
O 	O 	0.18081 0.12210 0.49830 -0.53200
O 	O 	0.80643 0.03180 0.36460 -0.43900
O 	O 	0.31688 0.97340 0.68120 -0.41300
O 	O 	0.30067 0.81360 0.59640 -0.43700
O 	O 	0.80443 0.18310 0.44910 -0.41100
O 	O 	0.19567 0.33920 0.45910 -0.59100
C 	C 	0.37359 0.78900 0.67940 -0.20600
C 	C 	0.32800 0.86230 0.65180 0.35900
C 	C 	0.11850 0.27750 0.44570 -0.25800
C 	C 	0.40550 0.83950 0.73940 0.16700
H 	H 	0.39810 0.91790 0.76390 -0.01800
C 	C 	0.82430 0.13300 0.40610 0.36500
C 	C 	0.16887 0.24350 0.46930 0.51900
C 	C 	0.38530 0.67100 0.64350 0.15900
H 	H 	0.36410 0.63690 0.60320 -0.00800
C 	C 	0.08670 0.20420 0.46930 0.20500
H 	H 	0.09630 0.12570 0.49980 -0.03100
C 	C 	0.42780 0.60360 0.66680 -0.28900
H 	H 	0.43520 0.52460 0.64270 0.14500
C 	C 	0.45930 0.65650 0.72720 0.30800
C 	C 	0.44840 0.77350 0.76310 -0.30700
H 	H 	0.46980 0.80830 0.80300 0.15100
C 	C 	0.04090 0.24350 0.44920 -0.32800
H 	H 	0.02120 0.21880 0.47500 0.10900
C 	C 	0.10220 0.36060 0.37930 0.17300
H 	H 	0.12270 0.39230 0.35600 -0.03300
O 	O 	0.98030 0.37690 0.35520 -0.26200
C 	C 	0.02500 0.32950 0.38230 0.25300
C 	C 	0.05560 0.38930 0.35330 -0.26500
H 	H 	0.04510 0.45100 0.31510 0.13500
C 	C 	0.95030 0.35960 0.41800 -0.34600
C 	C 	0.92710 0.39680 0.46550 -0.43700
H 	H 	0.93850 0.47080 0.49790 0.18900
C 	C 	0.88690 0.32320 0.46450 -0.10600
H 	H 	0.87140 0.34810 0.49630 0.05200
C 	C 	0.86990 0.21260 0.41610 -0.23400
C 	C 	0.89310 0.17540 0.36850 0.23000
H 	H 	0.88170 0.10140 0.33610 -0.05600
C 	C 	0.93330 0.24900 0.36950 0.06500
H 	H 	0.94880 0.22410 0.33770 0.23500
H 	H 	0.01830 0.17530 0.45040 0.08300
C 	C 	0.92940 0.16960 0.34220 -0.65600
H 	H 	0.94390 0.12230 0.31360 0.21700
C 	C 	0.94650 0.30260 0.37380 0.17200
C 	C 	0.92470 0.37330 0.41660 0.39200
H 	H 	0.93610 0.46220 0.43770 0.11700
C 	C 	0.88580 0.31100 0.42770 0.12700
H 	H 	0.87120 0.35830 0.45630 0.06700
C 	C 	0.86870 0.17800 0.39610 -0.01900
C 	C 	0.89050 0.10730 0.35340 0.04300
H 	H 	0.87900 0.01840 0.33220 0.05400
C 	C 	0.10550 0.42770 0.42640 -0.02700
H 	H 	0.12800 0.49500 0.42380 0.03100
C 	C 	0.06150 0.47400 0.41190 -0.05500
H 	H 	0.05310 0.56600 0.39150 0.06600
C 	C 	0.02950 0.38610 0.42730 0.06400
O 	O 	0.98610 0.44650 0.41380 -0.08100
Eu	Eu	0.74985 0.52719 0.57276 1.76300
O 	O 	0.68081 0.62210 0.49830 -0.53100
O 	O 	0.30643 0.53180 0.36460 -0.44000
O 	O 	0.81688 0.47340 0.68120 -0.41500
O 	O 	0.80067 0.31360 0.59640 -0.43700
O 	O 	0.30443 0.68310 0.44910 -0.41200
O 	O 	0.69567 0.83920 0.45910 -0.59000
C 	C 	0.87359 0.28900 0.67940 -0.20200
C 	C 	0.82800 0.36230 0.65180 0.35700
C 	C 	0.61850 0.77750 0.44570 -0.25400
C 	C 	0.90550 0.33950 0.73940 0.16000
H 	H 	0.89810 0.41790 0.76390 -0.01700
C 	C 	0.32430 0.63300 0.40610 0.36500
C 	C 	0.66887 0.74350 0.46930 0.51800
C 	C 	0.88530 0.17100 0.64350 0.15300
H 	H 	0.86410 0.13690 0.60320 -0.00600
C 	C 	0.58670 0.70420 0.46930 0.19900
H 	H 	0.59630 0.62570 0.49980 -0.02900
C 	C 	0.92780 0.10360 0.66680 -0.28200
H 	H 	0.93520 0.02460 0.64270 0.14100
C 	C 	0.95930 0.15650 0.72720 0.29500
C 	C 	0.94840 0.27350 0.76310 -0.29900
H 	H 	0.96980 0.30830 0.80300 0.14500
C 	C 	0.54090 0.74350 0.44920 -0.31900
H 	H 	0.52120 0.71880 0.47500 0.10600
C 	C 	0.60220 0.86060 0.37930 0.17400
H 	H 	0.62270 0.89230 0.35600 -0.03400
O 	O 	0.48030 0.87690 0.35520 -0.25800
C 	C 	0.52500 0.82950 0.38230 0.24900
C 	C 	0.55560 0.88930 0.35330 -0.26500
H 	H 	0.54510 0.95100 0.31510 0.13200
C 	C 	0.45030 0.85960 0.41800 -0.34900
C 	C 	0.42710 0.89680 0.46550 -0.43500
H 	H 	0.43850 0.97080 0.49790 0.19000
C 	C 	0.38690 0.82320 0.46450 -0.10700
H 	H 	0.37140 0.84810 0.49630 0.05300
C 	C 	0.36990 0.71260 0.41610 -0.23400
C 	C 	0.39310 0.67540 0.36850 0.23000
H 	H 	0.38170 0.60140 0.33610 -0.05500
C 	C 	0.43330 0.74900 0.36950 0.06500
H 	H 	0.44880 0.72410 0.33770 0.23600
H 	H 	0.51830 0.67530 0.45040 0.07900
C 	C 	0.42940 0.66960 0.34220 -0.65500
H 	H 	0.44390 0.62230 0.31360 0.21800
C 	C 	0.44650 0.80260 0.37380 0.17400
C 	C 	0.42470 0.87330 0.41660 0.39500
H 	H 	0.43610 0.96220 0.43770 0.11700
C 	C 	0.38580 0.81100 0.42770 0.12600
H 	H 	0.37120 0.85830 0.45630 0.06800
C 	C 	0.36870 0.67800 0.39610 -0.01800
C 	C 	0.39050 0.60730 0.35340 0.04200
H 	H 	0.37900 0.51840 0.33220 0.05400
C 	C 	0.60550 0.92770 0.42640 -0.03200
H 	H 	0.62800 0.99500 0.42380 0.03200
C 	C 	0.56150 0.97400 0.41190 -0.05000
H 	H 	0.55310 0.06600 0.39150 0.06300
C 	C 	0.52950 0.88610 0.42730 0.05400
O 	O 	0.48610 0.94650 0.41380 -0.07400
O 	O 	0.50000 0.42050 0.25000 -0.33100
O 	O 	-0.00000 0.92050 0.25000 -0.32200
O 	O 	0.50000 0.57950 0.75000 -0.33100
O 	O 	0.00000 0.07950 0.75000 -0.32200
