data_crystal

_cell_length_a 30.37900
_cell_length_b 8.99630
_cell_length_c 20.11750
_cell_angle_alpha 90.00000
_cell_angle_beta  107.42300
_cell_angle_gamma 90.00000

_symmetry_space_group_name_	'P 1'
_symmetry_space_group_name_H-M	'P 1'

loop_
_symmetry_equiv_pos_as_xyz
  x,y,z

loop_
_atom_site_label
_atom_site_type_symbol
_atom_site_fract_x
_atom_site_fract_y
_atom_site_fract_z
_atom_site_charge
Tb	Tb	0.24979 0.97329 0.07254 1.70200
O 	O 	0.18200 0.87680 0.99820 -0.52800
O 	O 	0.80620 0.96920 0.86540 -0.45400
O 	O 	0.31650 0.02490 0.18130 -0.40800
O 	O 	0.30020 0.18400 0.09610 -0.43100
O 	O 	0.80430 0.81720 0.95070 -0.42100
O 	O 	0.19590 0.65730 0.95820 -0.58300
C 	C 	0.37340 0.20980 0.18040 -0.21000
C 	C 	0.32730 0.13700 0.15260 0.36800
C 	C 	0.11910 0.72400 0.94560 -0.28800
C 	C 	0.40520 0.15950 0.23970 0.17300
H 	H 	0.39790 0.08030 0.26420 -0.01800
C 	C 	0.82410 0.86820 0.90750 0.45400
C 	C 	0.16950 0.75470 0.96890 0.53500
C 	C 	0.38480 0.32880 0.14350 0.16200
H 	H 	0.36330 0.36230 0.10300 -0.00800
C 	C 	0.08780 0.79550 0.97010 0.24600
H 	H 	0.09780 0.87220 0.00210 -0.04800
C 	C 	0.42730 0.39670 0.16620 -0.29200
H 	H 	0.43480 0.47500 0.14140 0.14500
C 	C 	0.45890 0.34450 0.22780 0.31100
C 	C 	0.44860 0.22650 0.26360 -0.31300
H 	H 	0.47030 0.19130 0.30360 0.15200
C 	C 	0.04120 0.75760 0.94880 -0.37800
H 	H 	0.02120 0.78510 0.97380 0.10800
C 	C 	0.10180 0.64200 0.88000 0.13700
H 	H 	0.12200 0.61120 0.85600 -0.01700
O 	O 	0.98040 0.62500 0.85650 -0.29100
C 	C 	0.02570 0.67000 0.88300 0.22200
C 	C 	0.92970 0.82900 0.84380 -0.87100
H 	H 	0.94440 0.87560 0.81510 0.25300
C 	C 	0.94680 0.69580 0.87640 0.27600
C 	C 	0.92480 0.62610 0.91930 0.12900
H 	H 	0.93620 0.53700 0.94110 0.21700
C 	C 	0.88570 0.68970 0.92980 0.33800
H 	H 	0.87100 0.64310 0.95850 -0.09900
C 	C 	0.86860 0.82300 0.89720 -0.15000
C 	C 	0.89060 0.89260 0.85430 0.05200
H 	H 	0.87910 0.98180 0.83250 0.13200
C 	C 	0.05630 0.61100 0.85460 -0.21900
H 	H 	0.04600 0.54810 0.81650 0.11900
H 	H 	0.01890 0.82770 0.94970 0.09300
C 	C 	0.10560 0.57200 0.92520 0.03600
H 	H 	0.12800 0.50460 0.92150 0.01300
C 	C 	0.06030 0.52400 0.91090 -0.13300
H 	H 	0.05130 0.43160 0.89100 0.09200
C 	C 	0.02890 0.61700 0.92680 0.13400
O 	O 	0.98560 0.55600 0.91270 -0.14200
C 	C 	0.95020 0.63970 0.91770 -0.16000
C 	C 	0.92710 0.60160 0.96540 -0.54500
H 	H 	0.93840 0.52590 0.99750 0.20100
C 	C 	0.88710 0.67660 0.96520 0.02700
H 	H 	0.87160 0.65120 0.99710 0.07900
C 	C 	0.87010 0.78980 0.91730 -0.35800
C 	C 	0.89320 0.82790 0.86970 0.55700
H 	H 	0.88180 0.90360 0.83760 -0.21300
C 	C 	0.93320 0.75300 0.86990 -0.05200
H 	H 	0.94860 0.77830 0.83790 0.34900
Tb	Tb	0.74979 0.47329 0.07254 1.71100
O 	O 	0.68200 0.37680 0.99820 -0.53100
O 	O 	0.30620 0.46920 0.86540 -0.45700
O 	O 	0.81650 0.52490 0.18130 -0.41100
O 	O 	0.80020 0.68400 0.09610 -0.43400
O 	O 	0.30430 0.31720 0.95070 -0.42400
O 	O 	0.69590 0.15730 0.95820 -0.58300
C 	C 	0.87340 0.70980 0.18040 -0.20700
C 	C 	0.82730 0.63700 0.15260 0.36600
C 	C 	0.61910 0.22400 0.94560 -0.28200
C 	C 	0.90520 0.65950 0.23970 0.16600
H 	H 	0.89790 0.58030 0.26420 -0.01700
C 	C 	0.32410 0.36820 0.90750 0.45400
C 	C 	0.66950 0.25470 0.96890 0.53200
C 	C 	0.88480 0.82880 0.14350 0.15600
H 	H 	0.86330 0.86230 0.10300 -0.00700
C 	C 	0.58780 0.29550 0.97010 0.22900
H 	H 	0.59780 0.37220 0.00210 -0.04000
C 	C 	0.92730 0.89670 0.16620 -0.28500
H 	H 	0.93480 0.97500 0.14140 0.14000
C 	C 	0.95890 0.84450 0.22780 0.29700
C 	C 	0.94860 0.72650 0.26360 -0.30400
H 	H 	0.97030 0.69130 0.30360 0.14600
C 	C 	0.54120 0.25760 0.94880 -0.36200
H 	H 	0.52120 0.28510 0.97380 0.10400
C 	C 	0.60180 0.14200 0.88000 0.14200
H 	H 	0.62200 0.11120 0.85600 -0.02000
O 	O 	0.48040 0.12500 0.85650 -0.28800
C 	C 	0.52570 0.17000 0.88300 0.22100
C 	C 	0.42970 0.32900 0.84380 -0.87100
H 	H 	0.44440 0.37560 0.81510 0.25400
C 	C 	0.44680 0.19580 0.87640 0.27800
C 	C 	0.42480 0.12610 0.91930 0.12600
H 	H 	0.43620 0.03700 0.94110 0.21700
C 	C 	0.38570 0.18970 0.92980 0.33800
H 	H 	0.37100 0.14310 0.95850 -0.10000
C 	C 	0.36860 0.32300 0.89720 -0.15100
C 	C 	0.39060 0.39260 0.85430 0.05200
H 	H 	0.37910 0.48180 0.83250 0.13200
C 	C 	0.55630 0.11100 0.85460 -0.22400
H 	H 	0.54600 0.04810 0.81650 0.11800
H 	H 	0.51890 0.32770 0.94970 0.08800
C 	C 	0.60560 0.07200 0.92520 0.02600
H 	H 	0.62800 0.00460 0.92150 0.01600
C 	C 	0.56030 0.02400 0.91090 -0.12400
H 	H 	0.55130 0.93160 0.89100 0.09000
C 	C 	0.52890 0.11700 0.92680 0.11900
O 	O 	0.48560 0.05600 0.91270 -0.13500
C 	C 	0.45020 0.13970 0.91770 -0.15900
C 	C 	0.42710 0.10160 0.96540 -0.54300
H 	H 	0.43840 0.02590 0.99750 0.20000
C 	C 	0.38710 0.17660 0.96520 0.02800
H 	H 	0.37160 0.15120 0.99710 0.07900
C 	C 	0.37010 0.28980 0.91730 -0.35900
C 	C 	0.39320 0.32790 0.86970 0.55900
H 	H 	0.38180 0.40360 0.83760 -0.21400
C 	C 	0.43320 0.25300 0.86990 -0.05400
H 	H 	0.44860 0.27830 0.83790 0.35000
Tb	Tb	0.75021 0.97329 0.42746 1.70700
O 	O 	0.81800 0.87680 0.50180 -0.53100
O 	O 	0.19380 0.96920 0.63460 -0.45600
O 	O 	0.68350 0.02490 0.31870 -0.41000
O 	O 	0.69980 0.18400 0.40390 -0.43300
O 	O 	0.19570 0.81720 0.54930 -0.42300
O 	O 	0.80410 0.65730 0.54180 -0.58300
C 	C 	0.62660 0.20980 0.31960 -0.21100
C 	C 	0.67270 0.13700 0.34740 0.36800
C 	C 	0.88090 0.72400 0.55440 -0.27800
C 	C 	0.59480 0.15950 0.26030 0.17300
H 	H 	0.60210 0.08030 0.23580 -0.01900
C 	C 	0.17590 0.86820 0.59250 0.45400
C 	C 	0.83050 0.75470 0.53110 0.53100
C 	C 	0.61520 0.32880 0.35650 0.16200
H 	H 	0.63670 0.36230 0.39700 -0.00800
C 	C 	0.91220 0.79550 0.52990 0.22400
H 	H 	0.90220 0.87220 0.49790 -0.03900
C 	C 	0.57270 0.39670 0.33380 -0.29300
H 	H 	0.56520 0.47500 0.35860 0.14500
C 	C 	0.54110 0.34450 0.27220 0.31200
C 	C 	0.55140 0.22650 0.23640 -0.31300
H 	H 	0.52970 0.19130 0.19640 0.15300
C 	C 	0.95880 0.75760 0.55120 -0.35400
H 	H 	0.97880 0.78510 0.52620 0.10100
C 	C 	0.89820 0.64200 0.62000 0.12500
H 	H 	0.87800 0.61120 0.64400 -0.01300
O 	O 	0.01960 0.62500 0.64350 -0.28000
C 	C 	0.97430 0.67000 0.61700 0.20500
C 	C 	0.07030 0.82900 0.65620 -0.86800
H 	H 	0.05560 0.87560 0.68490 0.25500
C 	C 	0.05320 0.69580 0.62360 0.27900
C 	C 	0.07520 0.62610 0.58070 0.12900
H 	H 	0.06380 0.53700 0.55890 0.21700
C 	C 	0.11430 0.68970 0.57020 0.33800
H 	H 	0.12900 0.64310 0.54150 -0.09900
C 	C 	0.13140 0.82300 0.60280 -0.15000
C 	C 	0.10940 0.89260 0.64570 0.05200
H 	H 	0.12090 0.98180 0.66750 0.13300
C 	C 	0.94370 0.61100 0.64540 -0.20700
H 	H 	0.95400 0.54810 0.68350 0.11200
H 	H 	0.98110 0.82770 0.55030 0.08500
C 	C 	0.89440 0.57200 0.57480 0.03600
H 	H 	0.87200 0.50460 0.57850 0.01300
C 	C 	0.93970 0.52400 0.58910 -0.12800
H 	H 	0.94870 0.43160 0.60900 0.08700
C 	C 	0.97110 0.61700 0.57320 0.11900
O 	O 	0.01440 0.55600 0.58730 -0.13100
C 	C 	0.04980 0.63970 0.58230 -0.16100
C 	C 	0.07290 0.60160 0.53460 -0.54200
H 	H 	0.06160 0.52590 0.50250 0.20100
C 	C 	0.11290 0.67660 0.53480 0.02700
H 	H 	0.12840 0.65120 0.50290 0.07900
C 	C 	0.12990 0.78980 0.58270 -0.35900
C 	C 	0.10680 0.82790 0.63030 0.55900
H 	H 	0.11820 0.90360 0.66240 -0.21400
C 	C 	0.06680 0.75300 0.63010 -0.05500
H 	H 	0.05140 0.77830 0.66210 0.35000
Tb	Tb	0.25021 0.47329 0.42746 1.71000
O 	O 	0.31800 0.37680 0.50180 -0.53100
O 	O 	0.69380 0.46920 0.63460 -0.45700
O 	O 	0.18350 0.52490 0.31870 -0.41100
O 	O 	0.19980 0.68400 0.40390 -0.43400
O 	O 	0.69570 0.31720 0.54930 -0.42400
O 	O 	0.30410 0.15730 0.54180 -0.58400
C 	C 	0.12660 0.70980 0.31960 -0.21100
C 	C 	0.17270 0.63700 0.34740 0.36700
C 	C 	0.38090 0.22400 0.55440 -0.28200
C 	C 	0.09480 0.65950 0.26030 0.17200
H 	H 	0.10210 0.58030 0.23580 -0.01900
C 	C 	0.67590 0.36820 0.59250 0.45400
C 	C 	0.33050 0.25470 0.53110 0.53200
C 	C 	0.11520 0.82880 0.35650 0.16200
H 	H 	0.13670 0.86230 0.39700 -0.00800
C 	C 	0.41220 0.29550 0.52990 0.23100
H 	H 	0.40220 0.37220 0.49790 -0.04100
C 	C 	0.07270 0.89670 0.33380 -0.29100
H 	H 	0.06520 0.97500 0.35860 0.14600
C 	C 	0.04110 0.84450 0.27220 0.31000
C 	C 	0.05140 0.72650 0.23640 -0.31100
H 	H 	0.02970 0.69130 0.19640 0.15300
C 	C 	0.45880 0.25760 0.55120 -0.36400
H 	H 	0.47880 0.28510 0.52620 0.10400
C 	C 	0.39820 0.14200 0.62000 0.13600
H 	H 	0.37800 0.11120 0.64400 -0.01800
O 	O 	0.51960 0.12500 0.64350 -0.28700
C 	C 	0.47430 0.17000 0.61700 0.21700
C 	C 	0.57030 0.32900 0.65620 -0.87000
H 	H 	0.55560 0.37560 0.68490 0.25400
C 	C 	0.55320 0.19580 0.62360 0.27800
C 	C 	0.57520 0.12610 0.58070 0.12700
H 	H 	0.56380 0.03700 0.55890 0.21700
C 	C 	0.61430 0.18970 0.57020 0.33800
H 	H 	0.62900 0.14310 0.54150 -0.10000
C 	C 	0.63140 0.32300 0.60280 -0.15100
C 	C 	0.60940 0.39260 0.64570 0.05200
H 	H 	0.62090 0.48180 0.66750 0.13200
C 	C 	0.44370 0.11100 0.64540 -0.21800
H 	H 	0.45400 0.04810 0.68350 0.11700
H 	H 	0.48110 0.32770 0.55030 0.08800
C 	C 	0.39440 0.07200 0.57480 0.03100
H 	H 	0.37200 0.00460 0.57850 0.01400
C 	C 	0.43970 0.02400 0.58910 -0.12700
H 	H 	0.44870 0.93160 0.60900 0.09000
C 	C 	0.47110 0.11700 0.57320 0.12300
O 	O 	0.51440 0.05600 0.58730 -0.13600
C 	C 	0.54980 0.13970 0.58230 -0.16000
C 	C 	0.57290 0.10160 0.53460 -0.54300
H 	H 	0.56160 0.02590 0.50250 0.20100
C 	C 	0.61290 0.17660 0.53480 0.02800
H 	H 	0.62840 0.15120 0.50290 0.07900
C 	C 	0.62990 0.28980 0.58270 -0.35900
C 	C 	0.60680 0.32790 0.63030 0.55800
H 	H 	0.61820 0.40360 0.66240 -0.21400
C 	C 	0.56680 0.25300 0.63010 -0.05400
H 	H 	0.55140 0.27830 0.66210 0.35000
Tb	Tb	0.75021 0.02671 0.92746 1.70100
O 	O 	0.81800 0.12320 0.00180 -0.52900
O 	O 	0.19380 0.03080 0.13460 -0.45500
O 	O 	0.68350 0.97510 0.81870 -0.40900
O 	O 	0.69980 0.81600 0.90390 -0.43200
O 	O 	0.19570 0.18280 0.04930 -0.42200
O 	O 	0.80410 0.34270 0.04180 -0.58300
C 	C 	0.62660 0.79020 0.81960 -0.21100
C 	C 	0.67270 0.86300 0.84740 0.36700
C 	C 	0.88090 0.27600 0.05440 -0.28000
C 	C 	0.59480 0.84050 0.76030 0.17200
H 	H 	0.60210 0.91970 0.73580 -0.01900
C 	C 	0.17590 0.13180 0.09250 0.45400
C 	C 	0.83050 0.24530 0.03110 0.53100
C 	C 	0.61520 0.67120 0.85650 0.16200
H 	H 	0.63670 0.63770 0.89700 -0.00800
C 	C 	0.91220 0.20450 0.02990 0.23100
H 	H 	0.90220 0.12780 0.99790 -0.04300
C 	C 	0.57270 0.60330 0.83380 -0.29200
H 	H 	0.56520 0.52500 0.85860 0.14500
C 	C 	0.54110 0.65550 0.77220 0.31100
C 	C 	0.55140 0.77350 0.73640 -0.31300
H 	H 	0.52970 0.80870 0.69640 0.15200
C 	C 	0.95880 0.24240 0.05120 -0.35800
H 	H 	0.97880 0.21490 0.02620 0.10100
C 	C 	0.89820 0.35800 0.12000 0.12600
H 	H 	0.87800 0.38880 0.14400 -0.01400
O 	O 	0.01960 0.37500 0.14350 -0.28000
C 	C 	0.97430 0.33000 0.11700 0.20500
C 	C 	0.07030 0.17100 0.15620 -0.86800
H 	H 	0.05560 0.12440 0.18490 0.25500
C 	C 	0.05320 0.30420 0.12360 0.27900
C 	C 	0.07520 0.37390 0.08070 0.13000
H 	H 	0.06380 0.46300 0.05890 0.21600
C 	C 	0.11430 0.31030 0.07020 0.33700
H 	H 	0.12900 0.35690 0.04150 -0.09800
C 	C 	0.13140 0.17700 0.10280 -0.14900
C 	C 	0.10940 0.10740 0.14570 0.05200
H 	H 	0.12090 0.01820 0.16750 0.13300
C 	C 	0.94370 0.38900 0.14540 -0.20700
H 	H 	0.95400 0.45190 0.18350 0.11200
H 	H 	0.98110 0.17230 0.05030 0.08600
C 	C 	0.89440 0.42800 0.07480 0.03700
H 	H 	0.87200 0.49540 0.07850 0.01300
C 	C 	0.93970 0.47600 0.08910 -0.12900
H 	H 	0.94870 0.56840 0.10900 0.08700
C 	C 	0.97110 0.38300 0.07320 0.12000
O 	O 	0.01440 0.44400 0.08730 -0.13100
C 	C 	0.04980 0.36030 0.08230 -0.16300
C 	C 	0.07290 0.39840 0.03460 -0.54100
H 	H 	0.06160 0.47410 0.00250 0.20100
C 	C 	0.11290 0.32340 0.03480 0.02600
H 	H 	0.12840 0.34880 0.00290 0.07900
C 	C 	0.12990 0.21020 0.08270 -0.35900
C 	C 	0.10680 0.17210 0.13030 0.55800
H 	H 	0.11820 0.09640 0.16240 -0.21400
C 	C 	0.06680 0.24700 0.13010 -0.05400
H 	H 	0.05140 0.22170 0.16210 0.35000
Tb	Tb	0.25021 0.52671 0.92746 1.71100
O 	O 	0.31800 0.62320 0.00180 -0.53100
O 	O 	0.69380 0.53080 0.13460 -0.45700
O 	O 	0.18350 0.47510 0.81870 -0.41100
O 	O 	0.19980 0.31600 0.90390 -0.43400
O 	O 	0.69570 0.68280 0.04930 -0.42400
O 	O 	0.30410 0.84270 0.04180 -0.58400
C 	C 	0.12660 0.29020 0.81960 -0.21200
C 	C 	0.17270 0.36300 0.84740 0.36800
C 	C 	0.38090 0.77600 0.05440 -0.28200
C 	C 	0.09480 0.34050 0.76030 0.17200
H 	H 	0.10210 0.41970 0.73580 -0.01900
C 	C 	0.67590 0.63180 0.09250 0.45400
C 	C 	0.33050 0.74530 0.03110 0.53100
C 	C 	0.11520 0.17120 0.85650 0.16200
H 	H 	0.13670 0.13770 0.89700 -0.00800
C 	C 	0.41220 0.70450 0.02990 0.22900
H 	H 	0.40220 0.62780 0.99790 -0.03900
C 	C 	0.07270 0.10330 0.83380 -0.29100
H 	H 	0.06520 0.02500 0.85860 0.14500
C 	C 	0.04110 0.15550 0.77220 0.31000
C 	C 	0.05140 0.27350 0.73640 -0.31200
H 	H 	0.02970 0.30870 0.69640 0.15400
C 	C 	0.45880 0.74240 0.05120 -0.36200
H 	H 	0.47880 0.71490 0.02620 0.10400
C 	C 	0.39820 0.85800 0.12000 0.14200
H 	H 	0.37800 0.88880 0.14400 -0.02000
O 	O 	0.51960 0.87500 0.14350 -0.28800
C 	C 	0.47430 0.83000 0.11700 0.22100
C 	C 	0.57030 0.67100 0.15620 -0.87100
H 	H 	0.55560 0.62440 0.18490 0.25400
C 	C 	0.55320 0.80420 0.12360 0.27800
C 	C 	0.57520 0.87390 0.08070 0.12600
H 	H 	0.56380 0.96300 0.05890 0.21700
C 	C 	0.61430 0.81030 0.07020 0.33800
H 	H 	0.62900 0.85690 0.04150 -0.10000
C 	C 	0.63140 0.67700 0.10280 -0.15100
C 	C 	0.60940 0.60740 0.14570 0.05200
H 	H 	0.62090 0.51820 0.16750 0.13200
C 	C 	0.44370 0.88900 0.14540 -0.22400
H 	H 	0.45400 0.95190 0.18350 0.11800
H 	H 	0.48110 0.67230 0.05030 0.08800
C 	C 	0.39440 0.92800 0.07480 0.02600
H 	H 	0.37200 0.99540 0.07850 0.01600
C 	C 	0.43970 0.97600 0.08910 -0.12400
H 	H 	0.44870 0.06840 0.10900 0.09000
C 	C 	0.47110 0.88300 0.07320 0.11900
O 	O 	0.51440 0.94400 0.08730 -0.13600
C 	C 	0.54980 0.86030 0.08230 -0.15900
C 	C 	0.57290 0.89840 0.03460 -0.54300
H 	H 	0.56160 0.97410 0.00250 0.20000
C 	C 	0.61290 0.82340 0.03480 0.02900
H 	H 	0.62840 0.84880 0.00290 0.07900
C 	C 	0.62990 0.71020 0.08270 -0.35900
C 	C 	0.60680 0.67210 0.13030 0.55900
H 	H 	0.61820 0.59640 0.16240 -0.21400
C 	C 	0.56680 0.74700 0.13010 -0.05400
H 	H 	0.55140 0.72170 0.16210 0.35000
Tb	Tb	0.24979 0.02671 0.57254 1.70700
O 	O 	0.18200 0.12320 0.49820 -0.53100
O 	O 	0.80620 0.03080 0.36540 -0.45600
O 	O 	0.31650 0.97510 0.68130 -0.41000
O 	O 	0.30020 0.81600 0.59610 -0.43300
O 	O 	0.80430 0.18280 0.45070 -0.42400
O 	O 	0.19590 0.34270 0.45820 -0.58400
C 	C 	0.37340 0.79020 0.68040 -0.21100
C 	C 	0.32730 0.86300 0.65260 0.36800
C 	C 	0.11910 0.27600 0.44560 -0.28600
C 	C 	0.40520 0.84050 0.73970 0.17300
H 	H 	0.39790 0.91970 0.76420 -0.01900
C 	C 	0.82410 0.13180 0.40750 0.45400
C 	C 	0.16950 0.24530 0.46890 0.53400
C 	C 	0.38480 0.67120 0.64350 0.16200
H 	H 	0.36330 0.63770 0.60300 -0.00800
C 	C 	0.08780 0.20450 0.47010 0.23800
H 	H 	0.09780 0.12780 0.50210 -0.04300
C 	C 	0.42730 0.60330 0.66620 -0.29300
H 	H 	0.43480 0.52500 0.64140 0.14500
C 	C 	0.45890 0.65550 0.72780 0.31200
C 	C 	0.44860 0.77350 0.76360 -0.31300
H 	H 	0.47030 0.80870 0.80360 0.15300
C 	C 	0.04120 0.24240 0.44880 -0.37300
H 	H 	0.02120 0.21490 0.47380 0.10700
C 	C 	0.10180 0.35800 0.38000 0.13600
H 	H 	0.12200 0.38880 0.35600 -0.01700
O 	O 	0.98040 0.37500 0.35650 -0.29100
C 	C 	0.02570 0.33000 0.38300 0.22200
C 	C 	0.92970 0.17100 0.34380 -0.87100
H 	H 	0.94440 0.12440 0.31510 0.25300
C 	C 	0.94680 0.30420 0.37640 0.27600
C 	C 	0.92480 0.37390 0.41930 0.12700
H 	H 	0.93620 0.46300 0.44110 0.21800
C 	C 	0.88570 0.31030 0.42980 0.33900
H 	H 	0.87100 0.35690 0.45850 -0.10000
C 	C 	0.86860 0.17700 0.39720 -0.15100
C 	C 	0.89060 0.10740 0.35430 0.05300
H 	H 	0.87910 0.01820 0.33250 0.13200
C 	C 	0.05630 0.38900 0.35460 -0.21900
H 	H 	0.04600 0.45190 0.31650 0.11900
H 	H 	0.01890 0.17230 0.44970 0.09200
C 	C 	0.10560 0.42800 0.42520 0.03500
H 	H 	0.12800 0.49540 0.42150 0.01300
C 	C 	0.06030 0.47600 0.41090 -0.13100
H 	H 	0.05130 0.56840 0.39100 0.09200
C 	C 	0.02890 0.38300 0.42680 0.13300
O 	O 	0.98560 0.44400 0.41270 -0.14300
C 	C 	0.95020 0.36030 0.41770 -0.15800
C 	C 	0.92710 0.39840 0.46540 -0.54600
H 	H 	0.93840 0.47410 0.49750 0.20100
C 	C 	0.88710 0.32340 0.46520 0.02800
H 	H 	0.87160 0.34880 0.49710 0.07900
C 	C 	0.87010 0.21020 0.41730 -0.35900
C 	C 	0.89320 0.17210 0.36970 0.55800
H 	H 	0.88180 0.09640 0.33760 -0.21400
C 	C 	0.93320 0.24700 0.36990 -0.05400
H 	H 	0.94860 0.22170 0.33790 0.35000
Tb	Tb	0.74979 0.52671 0.57254 1.71000
O 	O 	0.68200 0.62320 0.49820 -0.53100
O 	O 	0.30620 0.53080 0.36540 -0.45700
O 	O 	0.81650 0.47510 0.68130 -0.41100
O 	O 	0.80020 0.31600 0.59610 -0.43300
O 	O 	0.30430 0.68280 0.45070 -0.42400
O 	O 	0.69590 0.84270 0.45820 -0.58400
C 	C 	0.87340 0.29020 0.68040 -0.20800
C 	C 	0.82730 0.36300 0.65260 0.36600
C 	C 	0.61910 0.77600 0.44560 -0.28200
C 	C 	0.90520 0.34050 0.73970 0.16600
H 	H 	0.89790 0.41970 0.76420 -0.01800
C 	C 	0.32410 0.63180 0.40750 0.45400
C 	C 	0.66950 0.74530 0.46890 0.53200
C 	C 	0.88480 0.17120 0.64350 0.15600
H 	H 	0.86330 0.13770 0.60300 -0.00600
C 	C 	0.58780 0.70450 0.47010 0.23100
H 	H 	0.59780 0.62780 0.50210 -0.04100
C 	C 	0.92730 0.10330 0.66620 -0.28500
H 	H 	0.93480 0.02500 0.64140 0.14100
C 	C 	0.95890 0.15550 0.72780 0.29800
C 	C 	0.94860 0.27350 0.76360 -0.30500
H 	H 	0.97030 0.30870 0.80360 0.14700
C 	C 	0.54120 0.74240 0.44880 -0.36400
H 	H 	0.52120 0.71490 0.47380 0.10400
C 	C 	0.60180 0.85800 0.38000 0.13600
H 	H 	0.62200 0.88880 0.35600 -0.01800
O 	O 	0.48040 0.87500 0.35650 -0.28700
C 	C 	0.52570 0.83000 0.38300 0.21700
C 	C 	0.42970 0.67100 0.34380 -0.87000
H 	H 	0.44440 0.62440 0.31510 0.25400
C 	C 	0.44680 0.80420 0.37640 0.27800
C 	C 	0.42480 0.87390 0.41930 0.12700
H 	H 	0.43620 0.96300 0.44110 0.21700
C 	C 	0.38570 0.81030 0.42980 0.33800
H 	H 	0.37100 0.85690 0.45850 -0.10000
C 	C 	0.36860 0.67700 0.39720 -0.15100
C 	C 	0.39060 0.60740 0.35430 0.05200
H 	H 	0.37910 0.51820 0.33250 0.13200
C 	C 	0.55630 0.88900 0.35460 -0.21800
H 	H 	0.54600 0.95190 0.31650 0.11700
H 	H 	0.51890 0.67230 0.44970 0.08800
C 	C 	0.60560 0.92800 0.42520 0.03100
H 	H 	0.62800 0.99540 0.42150 0.01400
C 	C 	0.56030 0.97600 0.41090 -0.12700
H 	H 	0.55130 0.06840 0.39100 0.09000
C 	C 	0.52890 0.88300 0.42680 0.12300
O 	O 	0.48560 0.94400 0.41270 -0.13600
C 	C 	0.45020 0.86030 0.41770 -0.16000
C 	C 	0.42710 0.89840 0.46540 -0.54400
H 	H 	0.43840 0.97410 0.49750 0.20100
C 	C 	0.38710 0.82340 0.46520 0.02800
H 	H 	0.37160 0.84880 0.49710 0.07900
C 	C 	0.37010 0.71020 0.41730 -0.35900
C 	C 	0.39320 0.67210 0.36970 0.55800
H 	H 	0.38180 0.59640 0.33760 -0.21400
C 	C 	0.43320 0.74700 0.36990 -0.05400
H 	H 	0.44860 0.72170 0.33790 0.35000
O 	O 	0.50000 0.42140 0.25000 -0.33500
O 	O 	-0.00000 0.92140 0.25000 -0.32500
O 	O 	0.50000 0.57860 0.75000 -0.33500
O 	O 	0.00000 0.07860 0.75000 -0.32600
