data_crystal

_cell_length_a 8.73800
_cell_length_b 8.73800
_cell_length_c 18.70900
_cell_angle_alpha 90.00000
_cell_angle_beta  90.00000
_cell_angle_gamma 120.00000

_symmetry_space_group_name_	'P 1'
_symmetry_space_group_name_H-M	'P 1'

loop_
_symmetry_equiv_pos_as_xyz
  x,y,z

loop_
_atom_site_label
_atom_site_type_symbol
_atom_site_fract_x
_atom_site_fract_y
_atom_site_fract_z
_atom_site_charge
Co	Co	0.00000 0.00000 0.50000 1.08800
Co	Co	0.66667 0.33333 0.83333 1.16900
Co	Co	0.33333 0.66667 0.16667 1.16800
C 	C 	0.89615 0.79230 0.44270 -0.10300
N 	N 	0.83255 0.66510 0.41000 -0.10300
C 	C 	0.56282 0.12563 0.77603 -0.29500
N 	N 	0.49922 0.99843 0.74333 -0.02000
C 	C 	0.22948 0.45897 0.10937 -0.22300
N 	N 	0.16588 0.33177 0.07667 -0.13300
C 	C 	0.20770 0.10385 0.44270 -0.27000
N 	N 	0.33490 0.16745 0.41000 -0.10400
C 	C 	0.87437 0.43718 0.77603 -0.10800
N 	N 	0.00157 0.50078 0.74333 -0.17100
C 	C 	0.54103 0.77052 0.10937 -0.19300
N 	N 	0.66823 0.83412 0.07667 -0.07500
C 	C 	0.89615 0.10385 0.44270 -0.18400
N 	N 	0.83255 0.16745 0.41000 -0.10400
C 	C 	0.56282 0.43718 0.77603 -0.20000
N 	N 	0.49922 0.50078 0.74333 -0.09800
C 	C 	0.22948 0.77052 0.10937 -0.20700
N 	N 	0.16588 0.83412 0.07667 -0.10100
C 	C 	0.79230 0.89615 0.55730 -0.10300
N 	N 	0.66510 0.83255 0.59000 -0.10200
C 	C 	0.45897 0.22948 0.89063 -0.20900
N 	N 	0.33177 0.16588 0.92333 -0.11400
C 	C 	0.12563 0.56282 0.22397 -0.29400
N 	N 	0.99843 0.49922 0.25667 -0.02600
C 	C 	0.10385 0.20770 0.55730 -0.26900
N 	N 	0.16745 0.33490 0.59000 -0.10300
C 	C 	0.77052 0.54103 0.89063 -0.17900
N 	N 	0.83412 0.66823 0.92333 -0.05700
C 	C 	0.43718 0.87437 0.22397 -0.10600
N 	N 	0.50078 0.00157 0.25667 -0.17800
C 	C 	0.10385 0.89615 0.55730 -0.17800
N 	N 	0.16745 0.83255 0.59000 -0.10300
C 	C 	0.77052 0.22948 0.89063 -0.19400
N 	N 	0.83412 0.16588 0.92333 -0.08500
C 	C 	0.43718 0.56282 0.22397 -0.20300
N 	N 	0.50078 0.49922 0.25667 -0.10000
K 	K 	0.66667 0.33333 0.33333 0.63800
K 	K 	0.33333 0.66667 0.66667 0.63900
K 	K 	-0.00000 0.00000 -0.00000 0.59300
