data_crystal

_cell_length_a 9.94620
_cell_length_b 23.35700
_cell_length_c 23.60350
_cell_angle_alpha 94.99800
_cell_angle_beta  96.62600
_cell_angle_gamma 90.66800

_symmetry_space_group_name_	'P 1'
_symmetry_space_group_name_H-M	'P 1'

loop_
_symmetry_equiv_pos_as_xyz
  x,y,z

loop_
_atom_site_label
_atom_site_type_symbol
_atom_site_fract_x
_atom_site_fract_y
_atom_site_fract_z
_atom_site_charge
Nd	Nd	0.78260 0.98056 0.99808 2.12500
Nd	Nd	0.26286 0.49760 0.52047 2.33100
Nd	Nd	0.21740 0.01944 0.00192 2.12500
Nd	Nd	0.73714 0.50240 0.47953 2.33100
P 	P 	0.05820 0.89801 0.07105 0.45800
P 	P 	0.00680 0.60778 0.51814 0.55600
P 	P 	0.51150 0.96776 0.08996 0.45900
P 	P 	0.42910 0.41710 0.41282 0.49700
P 	P 	0.94180 0.10199 0.92895 0.45800
P 	P 	0.99320 0.39222 0.48186 0.55600
P 	P 	0.48850 0.03224 0.91004 0.45900
P 	P 	0.57090 0.58290 0.58718 0.49700
H 	H 	0.78160 0.79730 0.46640 0.05500
H 	H 	0.89040 0.84680 0.46860 0.08200
H 	H 	0.70400 0.73700 0.36300 0.05500
H 	H 	0.72700 0.82600 0.22500 0.06100
H 	H 	0.79100 0.94200 0.25200 0.06600
H 	H 	0.90800 0.95000 0.30100 0.09900
H 	H 	0.89800 0.91000 0.16200 0.10100
H 	H 	0.27300 0.86900 0.15600 0.10900
H 	H 	0.42360 0.85520 0.23370 0.10700
H 	H 	0.39230 0.88940 0.29060 0.12700
H 	H 	0.34080 0.74930 0.21880 0.08400
H 	H 	0.31400 0.66100 0.26000 0.02200
H 	H 	0.33700 0.66600 0.36000 0.06900
H 	H 	0.40320 0.72140 0.45430 0.04200
H 	H 	0.37650 0.78750 0.45900 0.06900
H 	H 	0.22100 0.67200 0.48400 -0.26900
H 	H 	0.81700 0.70400 0.48100 0.00100
H 	H 	0.82000 0.98400 0.45700 0.02400
H 	H 	0.79600 0.93400 0.43900 0.02400
H 	H 	0.50300 0.91800 0.42800 0.04000
H 	H 	0.57600 0.84900 0.42200 0.02800
H 	H 	0.83000 0.24400 0.42100 0.12800
H 	H 	0.85100 0.29600 0.39400 0.09900
H 	H 	0.78610 0.28980 0.28180 0.09400
H 	H 	0.79600 0.23900 0.18400 0.01600
H 	H 	0.81260 0.13800 0.18920 0.09400
H 	H 	0.84940 0.05440 0.30840 0.12600
H 	H 	0.89410 0.05400 0.24670 0.11000
H 	H 	0.73700 0.01720 0.16460 0.06300
H 	H 	0.36300 0.97330 0.18070 0.09400
H 	H 	0.24260 0.98300 0.26730 0.10100
H 	H 	0.37490 0.01320 0.33610 0.11700
H 	H 	0.16560 0.09510 0.23040 0.55300
H 	H 	0.13710 0.17300 0.24540 -0.51300
H 	H 	0.17890 0.22540 0.33160 0.37900
H 	H 	0.22800 0.21700 0.43800 0.16500
H 	H 	0.36500 0.17800 0.44900 0.35600
H 	H 	0.30340 0.31080 0.42570 0.10600
H 	H 	0.68000 0.36500 0.40700 0.03400
H 	H 	0.95800 0.10400 0.43500 0.05200
H 	H 	0.02000 0.12100 0.36300 0.03500
H 	H 	0.36820 0.02530 0.45860 0.14600
H 	H 	0.25370 0.01940 0.40680 0.14900
H 	H 	0.25680 0.07200 0.45300 0.13400
H 	H 	0.21840 0.20270 0.53360 0.05500
H 	H 	0.10960 0.15320 0.53140 0.08200
H 	H 	0.29600 0.26300 0.63700 0.05500
H 	H 	0.27300 0.17400 0.77500 0.06100
H 	H 	0.20900 0.05800 0.74800 0.06600
H 	H 	0.09200 0.05000 0.69900 0.09900
H 	H 	0.10200 0.09000 0.83800 0.10100
H 	H 	0.72700 0.13100 0.84400 0.10900
H 	H 	0.57640 0.14480 0.76630 0.10700
H 	H 	0.60770 0.11060 0.70940 0.12700
H 	H 	0.65920 0.25070 0.78120 0.08400
H 	H 	0.68600 0.33900 0.74000 0.02200
H 	H 	0.66300 0.33400 0.64000 0.06900
H 	H 	0.59680 0.27860 0.54570 0.04200
H 	H 	0.62350 0.21250 0.54100 0.06900
H 	H 	0.77900 0.32800 0.51600 -0.26900
H 	H 	0.18300 0.29600 0.51900 0.00100
H 	H 	0.18000 0.01600 0.54300 0.02400
H 	H 	0.20400 0.06600 0.56100 0.02400
H 	H 	0.49700 0.08200 0.57200 0.04000
H 	H 	0.42400 0.15100 0.57800 0.02800
H 	H 	0.17000 0.75600 0.57900 0.12800
H 	H 	0.14900 0.70400 0.60600 0.09900
H 	H 	0.21390 0.71020 0.71820 0.09400
H 	H 	0.20400 0.76100 0.81600 0.01600
H 	H 	0.18740 0.86200 0.81080 0.09400
H 	H 	0.15060 0.94560 0.69160 0.12600
H 	H 	0.10590 0.94600 0.75330 0.11000
H 	H 	0.26300 0.98280 0.83540 0.06300
H 	H 	0.63700 0.02670 0.81930 0.09400
H 	H 	0.75740 0.01700 0.73270 0.10100
H 	H 	0.62510 0.98680 0.66390 0.11700
H 	H 	0.83440 0.90490 0.76960 0.55300
H 	H 	0.86290 0.82700 0.75460 -0.51300
H 	H 	0.82110 0.77460 0.66840 0.37900
H 	H 	0.77200 0.78300 0.56200 0.16500
H 	H 	0.63500 0.82200 0.55100 0.35600
H 	H 	0.69660 0.68920 0.57430 0.10600
H 	H 	0.32000 0.63500 0.59300 0.03400
H 	H 	0.04200 0.89600 0.56500 0.05200
H 	H 	0.98000 0.87900 0.63700 0.03500
H 	H 	0.63180 0.97470 0.54140 0.14600
H 	H 	0.74630 0.98060 0.59320 0.14900
H 	H 	0.74320 0.92800 0.54700 0.13400
C 	C 	0.97260 0.76660 0.45960 -0.07200
C 	C 	0.86030 0.80960 0.44950 -0.13100
C 	C 	0.82030 0.81570 0.38600 0.04200
C 	C 	0.74810 0.77100 0.35070 -0.09300
C 	C 	0.71430 0.77460 0.29250 0.03400
C 	C 	0.75690 0.82530 0.26910 -0.09300
C 	C 	0.82650 0.86870 0.30080 0.06300
C 	C 	0.87740 0.91840 0.27380 -0.17000
C 	C 	0.99380 0.90420 0.23870 0.08100
C 	C 	0.97600 0.90590 0.18000 -0.14400
C 	C 	0.07870 0.89040 0.14620 0.02100
C 	C 	0.20260 0.87400 0.17500 -0.15400
C 	C 	0.22210 0.87380 0.23290 0.10200
C 	C 	0.36010 0.85850 0.26200 -0.24800
C 	C 	0.35730 0.80150 0.29120 0.08900
C 	C 	0.34290 0.74990 0.25840 -0.13300
C 	C 	0.33150 0.69850 0.28300 0.03400
C 	C 	0.33280 0.70080 0.34200 -0.10100
C 	C 	0.34930 0.75160 0.37660 0.03000
C 	C 	0.34320 0.75070 0.44000 -0.04600
C 	C 	0.20300 0.73910 0.45600 -0.21500
C 	C 	0.17220 0.68740 0.47570 0.51800
C 	C 	0.04420 0.67420 0.48930 -0.28200
C 	C 	0.94190 0.71440 0.47980 0.07100
C 	C 	0.10040 0.77880 0.44890 0.18600
C 	C 	0.85510 0.86530 0.35950 0.06200
C 	C 	0.11910 0.88990 0.26450 0.01900
C 	C 	0.36400 0.80070 0.34970 0.05200
C 	C 	0.84840 0.95480 0.41460 0.02000
C 	C 	0.51250 0.87450 0.40020 -0.00400
C 	C 	0.65270 0.27150 0.39820 0.08000
C 	C 	0.79720 0.25800 0.38710 -0.24100
C 	C 	0.80390 0.22320 0.32910 0.11500
C 	C 	0.79460 0.25010 0.28010 -0.16300
C 	C 	0.79750 0.21870 0.22660 0.07200
C 	C 	0.80990 0.15900 0.22430 -0.15900
C 	C 	0.81810 0.13070 0.27390 0.10800
C 	C 	0.82450 0.06650 0.27030 -0.25600
C 	C 	0.68880 0.03790 0.24500 0.07800
C 	C 	0.66670 0.01619 0.18726 -0.10600
C 	C 	0.54200 0.99333 0.16362 -0.01300
C 	C 	0.43460 0.99352 0.19748 -0.12700
C 	C 	0.45220 0.01470 0.25502 0.11100
C 	C 	0.33380 0.01534 0.29036 -0.31800
C 	C 	0.28350 0.07408 0.30328 0.59000
C 	C 	0.20610 0.10302 0.26240 -1.19400
C 	C 	0.16540 0.15742 0.27345 1.23300
C 	C 	0.20420 0.18743 0.32523 -0.95900
C 	C 	0.28070 0.16160 0.36790 0.59400
C 	C 	0.32760 0.19660 0.42550 -0.71600
C 	C 	0.42640 0.24290 0.41790 0.22500
C 	C 	0.39090 0.30110 0.41900 -0.18200
C 	C 	0.47930 0.34410 0.41050 -0.01700
C 	C 	0.60810 0.32950 0.39940 -0.06700
C 	C 	0.56280 0.23000 0.40940 -0.01900
C 	C 	0.81850 0.16310 0.32650 0.01600
C 	C 	0.58050 0.03570 0.27910 0.02600
C 	C 	0.31750 0.10520 0.35700 -0.33900
C 	C 	0.96230 0.12900 0.40270 -0.01900
C 	C 	0.31140 0.04600 0.43220 -0.35600
C 	C 	0.02740 0.23340 0.54040 -0.07200
C 	C 	0.13970 0.19040 0.55050 -0.13100
C 	C 	0.17970 0.18430 0.61400 0.04200
C 	C 	0.25190 0.22900 0.64930 -0.09300
C 	C 	0.28570 0.22540 0.70750 0.03400
C 	C 	0.24310 0.17470 0.73090 -0.09300
C 	C 	0.17350 0.13130 0.69920 0.06300
C 	C 	0.12260 0.08160 0.72620 -0.17000
C 	C 	0.00620 0.09580 0.76130 0.08100
C 	C 	0.02400 0.09410 0.82000 -0.14400
C 	C 	0.92130 0.10960 0.85380 0.02100
C 	C 	0.79740 0.12600 0.82500 -0.15400
C 	C 	0.77790 0.12620 0.76710 0.10200
C 	C 	0.63990 0.14150 0.73800 -0.24800
C 	C 	0.64270 0.19850 0.70880 0.08900
C 	C 	0.65710 0.25010 0.74160 -0.13300
C 	C 	0.66850 0.30150 0.71700 0.03400
C 	C 	0.66720 0.29920 0.65800 -0.10100
C 	C 	0.65070 0.24840 0.62340 0.03000
C 	C 	0.65680 0.24930 0.56000 -0.04600
C 	C 	0.79700 0.26090 0.54400 -0.21500
C 	C 	0.82780 0.31260 0.52430 0.51800
C 	C 	0.95580 0.32580 0.51070 -0.28200
C 	C 	0.05810 0.28560 0.52020 0.07100
C 	C 	0.89960 0.22120 0.55110 0.18600
C 	C 	0.14490 0.13470 0.64050 0.06200
C 	C 	0.88090 0.11010 0.73550 0.01900
C 	C 	0.63600 0.19930 0.65030 0.05200
C 	C 	0.15160 0.04520 0.58540 0.02000
C 	C 	0.48750 0.12550 0.59980 -0.00400
C 	C 	0.34730 0.72850 0.60180 0.08000
C 	C 	0.20280 0.74200 0.61290 -0.24100
C 	C 	0.19610 0.77680 0.67090 0.11500
C 	C 	0.20540 0.74990 0.71990 -0.16300
C 	C 	0.20250 0.78130 0.77340 0.07200
C 	C 	0.19010 0.84100 0.77570 -0.15900
C 	C 	0.18190 0.86930 0.72610 0.10800
C 	C 	0.17550 0.93350 0.72970 -0.25600
C 	C 	0.31120 0.96210 0.75500 0.07800
C 	C 	0.33330 0.98381 0.81274 -0.10600
C 	C 	0.45800 0.00667 0.83638 -0.01300
C 	C 	0.56540 0.00648 0.80252 -0.12700
C 	C 	0.54780 0.98530 0.74498 0.11100
C 	C 	0.66620 0.98466 0.70964 -0.31800
C 	C 	0.71650 0.92592 0.69672 0.59000
C 	C 	0.79390 0.89698 0.73760 -1.19400
C 	C 	0.83460 0.84258 0.72655 1.23300
C 	C 	0.79580 0.81257 0.67477 -0.95900
C 	C 	0.71930 0.83840 0.63210 0.59400
C 	C 	0.67240 0.80340 0.57450 -0.71600
C 	C 	0.57360 0.75710 0.58210 0.22500
C 	C 	0.60910 0.69890 0.58100 -0.18200
C 	C 	0.52070 0.65590 0.58950 -0.01700
C 	C 	0.39190 0.67050 0.60060 -0.06700
C 	C 	0.43720 0.77000 0.59060 -0.01900
C 	C 	0.18150 0.83690 0.67350 0.01600
C 	C 	0.41950 0.96430 0.72090 0.02600
C 	C 	0.68250 0.89480 0.64300 -0.33900
C 	C 	0.03770 0.87100 0.59730 -0.01900
C 	C 	0.68860 0.95400 0.56780 -0.35600
N 	N 	0.04230 0.04790 0.10010 0.07900
N 	N 	0.26100 0.52100 0.44400 -0.28400
N 	N 	0.95770 0.95210 0.89990 0.07900
N 	N 	0.73900 0.47900 0.55600 -0.28400
O 	O 	0.92870 0.90780 0.39400 -0.17200
O 	O 	0.14100 0.89390 0.32340 -0.13400
O 	O 	0.37360 0.85340 0.38310 -0.16100
O 	O 	0.13200 0.83210 0.43260 -0.15900
O 	O 	0.91790 0.91900 0.05440 -0.47700
O 	O 	0.17340 0.93450 0.05550 -0.41700
O 	O 	0.07310 0.83540 0.04170 -0.22400
O 	O 	0.13650 0.57900 0.53500 -0.54500
O 	O 	0.90640 0.57140 0.47860 -0.56500
O 	O 	0.93560 0.62850 0.57410 -0.24400
O 	O 	0.82640 0.13660 0.37640 -0.15000
O 	O 	0.60820 0.05380 0.33540 -0.14200
O 	O 	0.39420 0.07800 0.39940 -0.03800
O 	O 	0.59590 0.17440 0.41340 -0.12900
O 	O 	0.64350 0.95290 0.06900 -0.48200
O 	O 	0.42900 0.01200 0.05900 -0.50800
O 	O 	0.42430 0.90990 0.08630 -0.24300
O 	O 	0.38140 0.43090 0.35140 -0.23200
O 	O 	0.54190 0.45530 0.43920 -0.60400
O 	O 	0.30610 0.42350 0.44680 -0.44500
O 	O 	0.99210 0.03890 0.04730 -0.44400
O 	O 	0.16800 0.05190 0.10910 -0.28500
O 	O 	0.97040 0.05220 0.13860 -0.18600
O 	O 	0.33400 0.55690 0.44230 -0.18000
O 	O 	0.12110 0.51260 0.42180 -0.20000
O 	O 	0.23010 0.55730 0.39950 -0.02400
O 	O 	0.07130 0.09220 0.60600 -0.17200
O 	O 	0.85900 0.10610 0.67660 -0.13400
O 	O 	0.62640 0.14660 0.61690 -0.16100
O 	O 	0.86800 0.16790 0.56740 -0.15900
O 	O 	0.08210 0.08100 0.94560 -0.47700
O 	O 	0.82660 0.06550 0.94450 -0.41700
O 	O 	0.92690 0.16460 0.95830 -0.22400
O 	O 	0.86350 0.42100 0.46500 -0.54500
O 	O 	0.09360 0.42860 0.52140 -0.56500
O 	O 	0.06440 0.37150 0.42590 -0.24400
O 	O 	0.17360 0.86340 0.62360 -0.15000
O 	O 	0.39180 0.94620 0.66460 -0.14200
O 	O 	0.60580 0.92200 0.60060 -0.03800
O 	O 	0.40410 0.82560 0.58660 -0.12900
O 	O 	0.35650 0.04710 0.93100 -0.48200
O 	O 	0.57100 0.98800 0.94100 -0.50800
O 	O 	0.57570 0.09010 0.91370 -0.24300
O 	O 	0.61860 0.56910 0.64860 -0.23200
O 	O 	0.45810 0.54470 0.56080 -0.60400
O 	O 	0.69390 0.57650 0.55320 -0.44500
O 	O 	0.00790 0.96110 0.95270 -0.44400
O 	O 	0.83200 0.94810 0.89090 -0.28500
O 	O 	0.02960 0.94780 0.86140 -0.18600
O 	O 	0.66600 0.44310 0.55770 -0.18000
O 	O 	0.87890 0.48740 0.57820 -0.20000
O 	O 	0.76990 0.44270 0.60050 -0.02400
