data_crystal

_cell_length_a 22.47500
_cell_length_b 7.37330
_cell_length_c 22.74500
_cell_angle_alpha 90.00000
_cell_angle_beta  102.67200
_cell_angle_gamma 90.00000

_symmetry_space_group_name_	'P 1'
_symmetry_space_group_name_H-M	'P 1'

loop_
_symmetry_equiv_pos_as_xyz
  x,y,z

loop_
_atom_site_label
_atom_site_type_symbol
_atom_site_fract_x
_atom_site_fract_y
_atom_site_fract_z
_atom_site_charge
Ag	Ag	0.59320 0.36549 0.62000 0.46300
Cd	Cd	0.80306 0.03461 0.60820 1.17900
Cd	Cd	0.39141 0.63219 0.69629 1.18000
C 	C 	0.82300 0.78800 0.72880 -0.01400
C 	C 	0.85030 0.67400 0.68360 -0.10400
H 	H 	0.83290 0.56030 0.66790 0.03400
H 	H 	0.88760 0.64640 0.71190 0.03800
C 	C 	0.94190 0.01180 0.68120 0.05400
C 	C 	0.93000 0.84400 0.64860 -0.10200
H 	H 	0.95460 0.76410 0.67730 0.03900
H 	H 	0.94440 0.83340 0.61200 0.03100
C 	C 	0.79390 0.64880 0.54490 -0.06300
H 	H 	0.77060 0.57730 0.56700 0.01900
H 	H 	0.79300 0.58830 0.50730 0.02700
C 	C 	0.85710 0.65630 0.58140 -0.10100
H 	H 	0.88190 0.70470 0.55570 0.00800
H 	H 	0.87100 0.53530 0.59230 0.03200
C 	C 	0.30080 0.95500 0.69930 -0.08500
H 	H 	0.25880 0.99110 0.69180 0.02300
H 	H 	0.32230 0.03230 0.73100 0.02500
C 	C 	0.32030 0.00000 0.64860 -0.05600
H 	H 	0.33500 0.12290 0.65290 0.02500
H 	H 	0.28620 0.99760 0.61480 0.02300
C 	C 	0.31070 0.66430 0.56540 0.05800
H 	H 	0.30670 0.61440 0.52580 -0.01600
H 	H 	0.27090 0.70020 0.56990 -0.01600
C 	C 	0.35000 0.81580 0.56960 -0.19900
H 	H 	0.33010 0.90670 0.54190 0.06100
H 	H 	0.38700 0.78320 0.55780 0.04700
C 	C 	0.46330 0.00980 0.70170 -0.04500
H 	H 	0.44220 0.08470 0.72500 0.01600
H 	H 	0.50200 0.06530 0.70190 0.01000
C 	C 	0.42550 0.00040 0.63880 -0.11700
H 	H 	0.44860 0.93700 0.61450 0.02300
H 	H 	0.41770 0.12070 0.62280 0.04000
C 	C 	0.67750 0.27780 0.60930 -0.13500
C 	C 	0.38600 0.35360 0.81420 -0.14600
C 	C 	0.51470 0.43540 0.64610 -0.14100
N 	N 	0.78130 0.91350 0.69880 -0.31400
H 	H 	0.74090 0.89420 0.69320 0.06800
H 	H 	0.79210 0.99550 0.72860 0.06800
N 	N 	0.89630 0.14830 0.65550 -0.32900
H 	H 	0.89280 0.20090 0.69030 0.06600
H 	H 	0.90760 0.23440 0.63210 0.08000
N 	N 	0.76530 0.82470 0.53270 -0.32100
H 	H 	0.77150 0.86650 0.49730 0.07700
H 	H 	0.72480 0.81330 0.52930 0.06900
N 	N 	0.86820 0.76810 0.63560 -0.16100
N 	N 	0.72360 0.22650 0.60420 -0.24300
N 	N 	0.33260 0.53020 0.60640 -0.34900
H 	H 	0.30080 0.46780 0.61440 0.09500
H 	H 	0.35510 0.45210 0.59000 0.08500
N 	N 	0.47220 0.83230 0.73060 -0.32200
H 	H 	0.50650 0.78460 0.72270 0.07800
H 	H 	0.47770 0.84380 0.77080 0.06700
N 	N 	0.30610 0.76910 0.72530 -0.31800
H 	H 	0.31170 0.77200 0.76570 0.08100
H 	H 	0.27170 0.70700 0.71000 0.08200
N 	N 	0.36680 0.90560 0.63440 -0.15800
N 	N 	0.39220 0.42070 0.77030 -0.23600
N 	N 	0.47220 0.47760 0.66280 -0.21500
C 	C 	0.80270 0.71700 0.70800 -0.03100
C 	C 	0.94360 0.00800 0.65020 -0.10000
Ag	Ag	0.62619 0.72840 0.10292 0.45700
Ag	Ag	0.59277 0.31947 0.06675 0.45100
C 	C 	0.66960 0.18490 0.11160 -0.17400
C 	C 	0.51980 0.46030 0.01390 -0.18300
C 	C 	0.65090 0.72030 0.02020 -0.14100
N 	N 	0.66660 0.69020 0.97710 -0.20700
N 	N 	0.71090 0.10350 0.13710 -0.12800
Ag	Ag	0.40680 0.63451 0.38000 0.46200
Cd	Cd	0.19694 0.96539 0.39180 1.17700
Cd	Cd	0.60859 0.36781 0.30371 1.18000
C 	C 	0.17700 0.21200 0.27120 -0.01500
C 	C 	0.14970 0.32600 0.31640 -0.10400
H 	H 	0.16710 0.43970 0.33210 0.03300
H 	H 	0.11240 0.35360 0.28810 0.03700
C 	C 	0.05810 0.98820 0.31880 0.06500
C 	C 	0.07000 0.15600 0.35140 -0.09200
H 	H 	0.04540 0.23590 0.32270 0.03400
H 	H 	0.05560 0.16660 0.38800 0.02900
C 	C 	0.20610 0.35120 0.45510 -0.06400
H 	H 	0.22940 0.42270 0.43300 0.01900
H 	H 	0.20700 0.41170 0.49270 0.02700
C 	C 	0.14290 0.34370 0.41860 -0.10000
H 	H 	0.11810 0.29530 0.44430 0.00900
H 	H 	0.12900 0.46470 0.40770 0.03100
C 	C 	0.69920 0.04500 0.30070 -0.07200
H 	H 	0.74120 0.00890 0.30820 0.02000
H 	H 	0.67770 0.96770 0.26900 0.01900
C 	C 	0.67970 0.00000 0.35140 -0.06600
H 	H 	0.66500 0.87710 0.34710 0.02700
H 	H 	0.71380 0.00240 0.38520 0.02800
C 	C 	0.68930 0.33570 0.43460 0.05900
H 	H 	0.69330 0.38560 0.47420 -0.01600
H 	H 	0.72910 0.29980 0.43010 -0.01700
C 	C 	0.65000 0.18420 0.43040 -0.20100
H 	H 	0.66990 0.09330 0.45810 0.06200
H 	H 	0.61300 0.21680 0.44220 0.04700
C 	C 	0.53670 0.99020 0.29830 -0.04200
H 	H 	0.55780 0.91530 0.27500 0.01500
H 	H 	0.49800 0.93470 0.29810 0.00800
C 	C 	0.57450 0.99960 0.36120 -0.12900
H 	H 	0.55140 0.06300 0.38550 0.02900
H 	H 	0.58230 0.87930 0.37720 0.04300
C 	C 	0.32250 0.72220 0.39070 -0.13500
C 	C 	0.61400 0.64640 0.18580 -0.14600
C 	C 	0.48530 0.56460 0.35390 -0.14100
N 	N 	0.21870 0.08650 0.30120 -0.31400
H 	H 	0.25910 0.10580 0.30680 0.06900
H 	H 	0.20790 0.00450 0.27140 0.06900
N 	N 	0.10370 0.85170 0.34450 -0.32900
H 	H 	0.10720 0.79910 0.30970 0.06500
H 	H 	0.09240 0.76560 0.36790 0.08000
N 	N 	0.23470 0.17530 0.46730 -0.32100
H 	H 	0.22850 0.13350 0.50270 0.07800
H 	H 	0.27520 0.18670 0.47070 0.07000
N 	N 	0.13180 0.23190 0.36440 -0.16200
N 	N 	0.27640 0.77350 0.39580 -0.24300
N 	N 	0.66740 0.46980 0.39360 -0.34900
H 	H 	0.69920 0.53220 0.38560 0.09500
H 	H 	0.64490 0.54790 0.41000 0.08400
N 	N 	0.52780 0.16770 0.26940 -0.32200
H 	H 	0.49350 0.21540 0.27730 0.07900
H 	H 	0.52230 0.15620 0.22920 0.06800
N 	N 	0.69390 0.23090 0.27470 -0.32000
H 	H 	0.68830 0.22800 0.23430 0.08200
H 	H 	0.72830 0.29300 0.29000 0.08200
N 	N 	0.63320 0.09440 0.36560 -0.15300
N 	N 	0.60780 0.57930 0.22970 -0.23600
N 	N 	0.52780 0.52240 0.33720 -0.21500
C 	C 	0.19730 0.28300 0.29200 -0.03200
C 	C 	0.05640 0.99200 0.34980 -0.11900
Ag	Ag	0.37381 0.27160 0.89708 0.45700
Ag	Ag	0.40723 0.68053 0.93325 0.45100
C 	C 	0.33040 0.81510 0.88840 -0.17500
C 	C 	0.48020 0.53970 0.98610 -0.18300
C 	C 	0.34910 0.27970 0.97980 -0.14000
N 	N 	0.33340 0.30980 0.02290 -0.20700
N 	N 	0.28910 0.89650 0.86290 -0.12900
Ag	Ag	0.87381 0.22840 0.39708 0.45800
Ag	Ag	0.90723 0.81947 0.43325 0.45100
C 	C 	0.83040 0.68490 0.38840 -0.17600
C 	C 	0.98020 0.96030 0.48610 -0.18500
C 	C 	0.84910 0.22030 0.47980 -0.14000
N 	N 	0.83340 0.19020 0.52290 -0.20700
N 	N 	0.78910 0.60350 0.36290 -0.12900
Ag	Ag	0.90680 0.86549 0.88000 0.46200
Cd	Cd	0.69694 0.53461 0.89180 1.17800
Cd	Cd	0.10859 0.13219 0.80371 1.17900
C 	C 	0.67700 0.28800 0.77120 -0.01600
C 	C 	0.64970 0.17400 0.81640 -0.10500
H 	H 	0.66710 0.06030 0.83210 0.03300
H 	H 	0.61240 0.14640 0.78810 0.03700
C 	C 	0.55810 0.51180 0.81880 0.05300
C 	C 	0.57000 0.34400 0.85140 -0.10700
H 	H 	0.54540 0.26410 0.82270 0.03900
H 	H 	0.55560 0.33340 0.88800 0.03100
C 	C 	0.70610 0.14880 0.95510 -0.06400
H 	H 	0.72940 0.07730 0.93300 0.01900
H 	H 	0.70700 0.08830 0.99270 0.02700
C 	C 	0.64290 0.15630 0.91860 -0.10100
H 	H 	0.61810 0.20470 0.94430 0.00800
H 	H 	0.62900 0.03530 0.90770 0.03200
C 	C 	0.19920 0.45500 0.80070 -0.07800
H 	H 	0.24120 0.49110 0.80820 0.02100
H 	H 	0.17770 0.53230 0.76900 0.02300
C 	C 	0.17970 0.50000 0.85140 -0.06600
H 	H 	0.16500 0.62290 0.84710 0.02800
H 	H 	0.21380 0.49760 0.88520 0.02700
C 	C 	0.18930 0.16430 0.93460 0.05900
H 	H 	0.19330 0.11440 0.97420 -0.01600
H 	H 	0.22910 0.20020 0.93010 -0.01700
C 	C 	0.15000 0.31580 0.93040 -0.20000
H 	H 	0.16990 0.40670 0.95810 0.06200
H 	H 	0.11300 0.28320 0.94220 0.04700
C 	C 	0.03670 0.50980 0.79830 -0.04300
H 	H 	0.05780 0.58470 0.77500 0.01500
H 	H 	0.99800 0.56530 0.79810 0.00900
C 	C 	0.07450 0.50040 0.86120 -0.12100
H 	H 	0.05140 0.43700 0.88550 0.02500
H 	H 	0.08230 0.62070 0.87720 0.04100
C 	C 	0.82250 0.77780 0.89070 -0.13400
C 	C 	0.11400 0.85360 0.68580 -0.14600
C 	C 	0.98530 0.93540 0.85390 -0.14100
N 	N 	0.71870 0.41350 0.80120 -0.31400
H 	H 	0.75910 0.39420 0.80680 0.06700
H 	H 	0.70790 0.49550 0.77140 0.06700
N 	N 	0.60370 0.64830 0.84450 -0.32900
H 	H 	0.60720 0.70090 0.80970 0.06700
H 	H 	0.59240 0.73440 0.86790 0.08000
N 	N 	0.73470 0.32470 0.96730 -0.32200
H 	H 	0.72850 0.36650 0.00270 0.07700
H 	H 	0.77520 0.31330 0.97070 0.06900
N 	N 	0.63180 0.26810 0.86440 -0.16100
N 	N 	0.77640 0.72650 0.89580 -0.24200
N 	N 	0.16740 0.03020 0.89360 -0.35000
H 	H 	0.19920 0.96780 0.88560 0.09600
H 	H 	0.14490 0.95210 0.91000 0.08500
N 	N 	0.02780 0.33230 0.76940 -0.32300
H 	H 	0.99350 0.28460 0.77730 0.07800
H 	H 	0.02230 0.34380 0.72920 0.06700
N 	N 	0.19390 0.26910 0.77470 -0.31900
H 	H 	0.18830 0.27200 0.73430 0.08200
H 	H 	0.22830 0.20700 0.79000 0.08200
N 	N 	0.13320 0.40560 0.86560 -0.15500
N 	N 	0.10780 0.92070 0.72970 -0.23600
N 	N 	0.02780 0.97760 0.83720 -0.21500
C 	C 	0.69730 0.21700 0.79200 -0.03200
C 	C 	0.55640 0.50800 0.84980 -0.09700
Ag	Ag	0.12619 0.77160 0.60292 0.45700
Ag	Ag	0.09277 0.18053 0.56675 0.45100
C 	C 	0.16960 0.31510 0.61160 -0.17500
C 	C 	0.01980 0.03970 0.51390 -0.18000
C 	C 	0.15090 0.77970 0.52020 -0.14000
N 	N 	0.16660 0.80980 0.47710 -0.20700
N 	N 	0.21090 0.39650 0.63710 -0.12900
Ag	Ag	0.09320 0.13451 0.12000 0.46300
Cd	Cd	0.30306 0.46539 0.10820 1.17800
Cd	Cd	0.89141 0.86781 0.19629 1.17800
C 	C 	0.32300 0.71200 0.22880 -0.01400
C 	C 	0.35030 0.82600 0.18360 -0.10300
H 	H 	0.33290 0.93970 0.16790 0.03200
H 	H 	0.38760 0.85360 0.21190 0.03600
C 	C 	0.44190 0.48820 0.18120 0.05300
C 	C 	0.43000 0.65600 0.14860 -0.10700
H 	H 	0.45460 0.73590 0.17730 0.03900
H 	H 	0.44440 0.66660 0.11200 0.03100
C 	C 	0.29390 0.85120 0.04490 -0.06400
H 	H 	0.27060 0.92270 0.06700 0.01800
H 	H 	0.29300 0.91170 0.00730 0.02600
C 	C 	0.35710 0.84370 0.08140 -0.10100
H 	H 	0.38190 0.79530 0.05570 0.00800
H 	H 	0.37100 0.96470 0.09230 0.03100
C 	C 	0.80080 0.54500 0.19930 -0.07800
H 	H 	0.75880 0.50890 0.19180 0.02100
H 	H 	0.82230 0.46770 0.23100 0.02300
C 	C 	0.82030 0.50000 0.14860 -0.06600
H 	H 	0.83500 0.37710 0.15290 0.02800
H 	H 	0.78620 0.50240 0.11480 0.02700
C 	C 	0.81070 0.83570 0.06540 0.06200
H 	H 	0.80670 0.88560 0.02580 -0.01800
H 	H 	0.77090 0.79980 0.06990 -0.01800
C 	C 	0.85000 0.68420 0.06960 -0.20200
H 	H 	0.83010 0.59330 0.04190 0.06200
H 	H 	0.88700 0.71680 0.05780 0.04700
C 	C 	0.96330 0.49020 0.20170 -0.04300
H 	H 	0.94220 0.41530 0.22500 0.01600
H 	H 	0.00200 0.43470 0.20190 0.00900
C 	C 	0.92550 0.49960 0.13880 -0.12100
H 	H 	0.94860 0.56300 0.11450 0.02500
H 	H 	0.91770 0.37930 0.12280 0.04100
C 	C 	0.17750 0.22220 0.10930 -0.13400
C 	C 	0.88600 0.14640 0.31420 -0.14400
C 	C 	0.01470 0.06460 0.14610 -0.14000
N 	N 	0.28130 0.58650 0.19880 -0.31300
H 	H 	0.24090 0.60580 0.19320 0.06700
H 	H 	0.29210 0.50450 0.22860 0.06700
N 	N 	0.39630 0.35170 0.15550 -0.33000
H 	H 	0.39280 0.29910 0.19030 0.06700
H 	H 	0.40760 0.26560 0.13210 0.08000
N 	N 	0.26530 0.67530 0.03270 -0.32200
H 	H 	0.27150 0.63350 0.99730 0.07700
H 	H 	0.22480 0.68670 0.02930 0.06900
N 	N 	0.36820 0.73190 0.13560 -0.16100
N 	N 	0.22360 0.27350 0.10420 -0.24200
N 	N 	0.83260 0.96980 0.10640 -0.35500
H 	H 	0.80080 0.03220 0.11440 0.09900
H 	H 	0.85510 0.04790 0.09000 0.08800
N 	N 	0.97220 0.66770 0.23060 -0.32300
H 	H 	0.00650 0.71540 0.22270 0.07700
H 	H 	0.97770 0.65620 0.27080 0.06700
N 	N 	0.80610 0.73090 0.22530 -0.31900
H 	H 	0.81170 0.72800 0.26570 0.08100
H 	H 	0.77170 0.79300 0.21000 0.08100
N 	N 	0.86680 0.59440 0.13440 -0.15500
N 	N 	0.89220 0.07930 0.27030 -0.23500
N 	N 	0.97220 0.02240 0.16280 -0.21400
C 	C 	0.30270 0.78300 0.20800 -0.03500
C 	C 	0.44360 0.49200 0.15020 -0.09700
