data_crystal

_cell_length_a 12.13230
_cell_length_b 12.36760
_cell_length_c 13.37570
_cell_angle_alpha 101.74800
_cell_angle_beta  99.02500
_cell_angle_gamma 105.98400

_symmetry_space_group_name_	'P 1'
_symmetry_space_group_name_H-M	'P 1'

loop_
_symmetry_equiv_pos_as_xyz
  x,y,z

loop_
_atom_site_label
_atom_site_type_symbol
_atom_site_fract_x
_atom_site_fract_y
_atom_site_fract_z
_atom_site_charge
Tb	Tb	0.32646 0.48121 0.45432 1.73700
Tb	Tb	0.67354 0.51879 0.54568 1.73700
H 	H 	0.04450 0.35640 0.10910 0.06000
H 	H 	0.19730 0.69900 0.21230 0.03900
H 	H 	0.89310 0.27240 0.93910 0.05900
H 	H 	0.59550 0.22850 0.53970 0.03000
H 	H 	0.25840 0.06110 0.38450 0.02900
H 	H 	0.71700 0.11350 0.60780 0.06400
H 	H 	0.36520 0.47010 0.13430 0.05200
H 	H 	0.71410 0.53710 0.21590 0.01200
H 	H 	0.27140 0.45390 0.94960 0.07000
H 	H 	0.95550 0.64360 0.89090 0.06100
H 	H 	0.80270 0.30100 0.78770 0.04000
H 	H 	0.10690 0.72760 0.06090 0.06000
H 	H 	0.40450 0.77150 0.46030 0.03100
H 	H 	0.74160 0.93890 0.61550 0.02900
H 	H 	0.28300 0.88650 0.39220 0.06400
H 	H 	0.63480 0.52990 0.86570 0.05200
H 	H 	0.28590 0.46290 0.78410 0.01200
H 	H 	0.72860 0.54610 0.05040 0.07000
C 	C 	0.19150 0.50800 0.27790 0.32300
C 	C 	0.98950 0.44330 0.00700 0.02300
C 	C 	0.05380 0.43060 0.09970 -0.05600
C 	C 	0.12870 0.52480 0.17530 -0.06200
C 	C 	0.14640 0.63510 0.16000 -0.00200
C 	C 	0.90870 0.34710 0.92940 -0.08900
C 	C 	0.40930 0.27830 0.45620 0.42800
C 	C 	0.54900 0.05190 0.52110 0.01900
C 	C 	0.53300 0.15960 0.51210 -0.01700
C 	C 	0.42610 0.16260 0.46290 -0.12100
C 	C 	0.33040 0.05850 0.41810 0.03000
C 	C 	0.65520 0.04520 0.57550 -0.10100
C 	C 	0.52510 0.49590 0.30140 0.45200
C 	C 	0.44430 0.48660 0.01300 0.02500
C 	C 	0.43800 0.48360 0.11660 -0.01400
C 	C 	0.53480 0.49970 0.19150 -0.12800
C 	C 	0.64670 0.52470 0.16530 0.04300
C 	C 	0.34510 0.46960 0.93360 -0.10900
C 	C 	0.80850 0.49200 0.72210 0.32300
C 	C 	0.01050 0.55670 0.99300 0.02300
C 	C 	0.94620 0.56940 0.90030 -0.05600
C 	C 	0.87130 0.47520 0.82470 -0.06200
C 	C 	0.85360 0.36490 0.84000 -0.00200
C 	C 	0.09130 0.65290 0.07060 -0.08900
C 	C 	0.59070 0.72170 0.54380 0.42800
C 	C 	0.45100 0.94810 0.47890 0.01900
C 	C 	0.46700 0.84040 0.48790 -0.01700
C 	C 	0.57390 0.83740 0.53710 -0.12100
C 	C 	0.66960 0.94150 0.58190 0.03000
C 	C 	0.34480 0.95480 0.42450 -0.10100
C 	C 	0.47490 0.50410 0.69860 0.45200
C 	C 	0.55570 0.51340 0.98700 0.02500
C 	C 	0.56200 0.51640 0.88340 -0.01400
C 	C 	0.46520 0.50030 0.80850 -0.12800
C 	C 	0.35330 0.47530 0.83470 0.04300
C 	C 	0.65490 0.53040 0.06640 -0.10900
O 	O 	0.17170 0.40870 0.29140 -0.41100
O 	O 	0.26270 0.59550 0.34130 -0.42600
O 	O 	0.30840 0.27860 0.42140 -0.45600
O 	O 	0.49710 0.36930 0.48910 -0.54300
O 	O 	0.42320 0.46310 0.31730 -0.46300
O 	O 	0.61980 0.52520 0.36860 -0.49900
O 	O 	0.82830 0.59130 0.70860 -0.41100
O 	O 	0.73730 0.40450 0.65870 -0.42600
O 	O 	0.69160 0.72140 0.57860 -0.45600
O 	O 	0.50290 0.63070 0.51090 -0.54300
O 	O 	0.57680 0.53690 0.68270 -0.46300
O 	O 	0.38020 0.47480 0.63140 -0.49900
