data_crystal

_cell_length_a 12.11700
_cell_length_b 12.33500
_cell_length_c 13.41200
_cell_angle_alpha 101.56900
_cell_angle_beta  99.03600
_cell_angle_gamma 106.28600

_symmetry_space_group_name_	'P 1'
_symmetry_space_group_name_H-M	'P 1'

loop_
_symmetry_equiv_pos_as_xyz
  x,y,z

loop_
_atom_site_label
_atom_site_type_symbol
_atom_site_fract_x
_atom_site_fract_y
_atom_site_fract_z
_atom_site_charge
Eu	Eu	0.32640 0.48118 0.45422 1.81300
Eu	Eu	0.67360 0.51882 0.54578 1.81300
H 	H 	0.04330 0.35550 0.11080 0.05800
H 	H 	0.19830 0.69860 0.20760 0.03800
H 	H 	0.89770 0.27720 0.94270 0.06100
H 	H 	0.59290 0.22910 0.54300 0.02400
H 	H 	0.26050 0.05720 0.37890 0.02600
H 	H 	0.71910 0.11640 0.60260 0.06300
H 	H 	0.36370 0.46570 0.13360 0.05400
H 	H 	0.71300 0.52840 0.21170 0.00900
H 	H 	0.27200 0.45830 0.95130 0.07200
H 	H 	0.95670 0.64450 0.88920 0.05900
H 	H 	0.80170 0.30140 0.79240 0.03900
H 	H 	0.10230 0.72280 0.05730 0.06100
H 	H 	0.40710 0.77090 0.45700 0.02400
H 	H 	0.73950 0.94280 0.62110 0.02600
H 	H 	0.28090 0.88360 0.39740 0.06300
H 	H 	0.63630 0.53430 0.86640 0.05400
H 	H 	0.28700 0.47160 0.78830 0.00900
H 	H 	0.72800 0.54170 0.04870 0.07200
C 	C 	0.19080 0.50940 0.27570 0.31500
C 	C 	0.98970 0.44320 0.00660 0.02500
C 	C 	0.05360 0.43000 0.10120 -0.05200
C 	C 	0.12640 0.52150 0.17430 -0.06600
C 	C 	0.14570 0.63370 0.15730 -0.00200
C 	C 	0.91230 0.35180 0.93260 -0.09200
C 	C 	0.40850 0.27730 0.45600 0.43800
C 	C 	0.54530 0.05130 0.52180 0.01600
C 	C 	0.53090 0.15960 0.51330 -0.01100
C 	C 	0.42550 0.16100 0.46120 -0.13200
C 	C 	0.33160 0.05560 0.41570 0.03600
C 	C 	0.65580 0.04770 0.57470 -0.10400
C 	C 	0.52510 0.49590 0.30070 0.45600
C 	C 	0.44390 0.48680 0.01250 0.02800
C 	C 	0.43660 0.48170 0.11570 -0.02100
C 	C 	0.53710 0.50040 0.18960 -0.12500
C 	C 	0.64600 0.52010 0.16240 0.04900
C 	C 	0.34570 0.47290 0.93490 -0.11500
C 	C 	0.80920 0.49060 0.72430 0.31500
C 	C 	0.01030 0.55680 0.99340 0.02500
C 	C 	0.94640 0.57000 0.89880 -0.05200
C 	C 	0.87360 0.47850 0.82570 -0.06600
C 	C 	0.85430 0.36630 0.84270 -0.00200
C 	C 	0.08770 0.64820 0.06740 -0.09200
C 	C 	0.59150 0.72270 0.54400 0.43800
C 	C 	0.45470 0.94870 0.47820 0.01600
C 	C 	0.46910 0.84040 0.48670 -0.01100
C 	C 	0.57450 0.83900 0.53880 -0.13200
C 	C 	0.66840 0.94440 0.58430 0.03600
C 	C 	0.34420 0.95230 0.42530 -0.10400
C 	C 	0.47490 0.50410 0.69930 0.45600
C 	C 	0.55610 0.51320 0.98750 0.02800
C 	C 	0.56340 0.51830 0.88430 -0.02100
C 	C 	0.46290 0.49960 0.81040 -0.12500
C 	C 	0.35400 0.47990 0.83760 0.04900
C 	C 	0.65430 0.52710 0.06510 -0.11500
O 	O 	0.16930 0.40860 0.29140 -0.41400
O 	O 	0.26290 0.59700 0.33880 -0.42900
O 	O 	0.30520 0.27550 0.41900 -0.46100
O 	O 	0.49270 0.36860 0.48720 -0.57300
O 	O 	0.42360 0.46270 0.31470 -0.47500
O 	O 	0.62110 0.52450 0.36680 -0.51000
O 	O 	0.83070 0.59140 0.70860 -0.41400
O 	O 	0.73710 0.40300 0.66120 -0.42900
O 	O 	0.69480 0.72450 0.58100 -0.46100
O 	O 	0.50730 0.63140 0.51280 -0.57300
O 	O 	0.57640 0.53730 0.68530 -0.47500
O 	O 	0.37890 0.47550 0.63320 -0.51000
