data_crystal

_cell_length_a 9.75490
_cell_length_b 13.18910
_cell_length_c 10.50800
_cell_angle_alpha 90.00000
_cell_angle_beta  109.60300
_cell_angle_gamma 90.00000

_symmetry_space_group_name_	'P 1'
_symmetry_space_group_name_H-M	'P 1'

loop_
_symmetry_equiv_pos_as_xyz
  x,y,z

loop_
_atom_site_label
_atom_site_type_symbol
_atom_site_fract_x
_atom_site_fract_y
_atom_site_fract_z
_atom_site_charge
C 	C 	0.45660 0.64380 0.65300 -0.16200
C 	C 	0.31110 0.66650 0.59840 0.08800
H 	H 	0.27870 0.70800 0.52010 0.00800
C 	C 	0.21100 0.63100 0.65350 -0.14900
C 	C 	0.26450 0.57130 0.77460 0.02500
H 	H 	0.19770 0.54610 0.81520 0.01600
C 	C 	0.40840 0.55000 0.83230 -0.04900
C 	C 	0.50700 0.58940 0.77510 0.02000
H 	H 	0.60850 0.57950 0.81870 -0.01600
C 	C 	0.56430 0.68370 0.59350 0.35600
C 	C 	0.04910 0.65090 0.59880 0.40200
C 	C 	0.40190 0.38770 0.95120 -0.11600
C 	C 	0.45320 0.48670 0.95560 0.04800
C 	C 	0.53800 0.52830 0.07710 -0.06300
H 	H 	0.57350 0.59560 0.07970 0.06100
C 	C 	0.57170 0.47190 0.19600 -0.06900
C 	C 	0.51940 0.37380 0.19150 -0.04700
H 	H 	0.54070 0.33490 0.27200 0.06000
C 	C 	0.43370 0.33200 0.06560 0.01000
H 	H 	0.39840 0.26450 0.06160 0.03500
C 	C 	0.31090 0.33750 0.82040 0.33800
C 	C 	0.66030 0.51820 0.33010 0.37400
C 	C 	0.76450 0.95160 0.63230 0.16500
H 	H 	0.66320 0.94260 0.61530 -0.03500
C 	C 	0.99120 0.05310 0.73100 -0.29000
H 	H 	0.01900 0.11580 0.78340 0.08400
H 	H 	0.00840 0.06060 0.64480 0.12500
H 	H 	0.04960 0.99670 0.78190 0.07000
C 	C 	0.75330 0.10560 0.76120 0.09500
H 	H 	0.81930 0.15930 0.81050 -0.02200
H 	H 	0.71330 0.07000 0.82280 0.05200
H 	H 	0.67370 0.13570 0.68710 -0.01400
Cd	Cd	0.75852 0.74447 0.45889 1.24100
Cd	Cd	0.79293 0.49418 0.65014 1.18300
N 	N 	0.83500 0.03240 0.70510 0.00300
O 	O 	0.52360 0.74140 0.49500 -0.39000
O 	O 	0.69540 0.65250 0.63830 -0.51500
O 	O 	0.00320 0.72500 0.51650 -0.42500
O 	O 	0.97090 0.59480 0.63760 -0.51200
O 	O 	0.36150 0.33990 0.72360 -0.39600
O 	O 	0.19460 0.29910 0.81450 -0.32400
O 	O 	0.69880 0.60830 0.32570 -0.44200
O 	O 	0.68390 0.46410 0.43260 -0.46700
O 	O 	0.83270 0.88960 0.58810 -0.19900
C 	C 	0.89700 0.94600 0.63400 0.15600
H 	H 	0.98160 0.93820 0.60880 -0.04300
C 	C 	0.74700 0.03700 0.74500 -0.32600
H 	H 	0.75770 0.09390 0.80760 0.02700
H 	H 	0.72300 0.97540 0.78470 0.09300
H 	H 	0.66870 0.05220 0.65990 0.12200
C 	C 	0.02000 0.06800 0.81600 0.03700
H 	H 	0.99180 0.11490 0.87540 -0.00800
H 	H 	0.07390 0.10520 0.76720 0.03300
H 	H 	0.08200 0.01450 0.87060 0.00400
N 	N 	0.88700 0.02190 0.71700 -0.04200
O 	O 	0.79000 0.88630 0.59000 -0.22500
C 	C 	0.54340 0.14380 0.34700 -0.11400
C 	C 	0.68890 0.16650 0.40160 0.04400
H 	H 	0.72130 0.20800 0.47990 0.02100
C 	C 	0.78900 0.13100 0.34650 -0.09700
C 	C 	0.73550 0.07130 0.22540 -0.05200
H 	H 	0.80230 0.04610 0.18480 0.05300
C 	C 	0.59160 0.05000 0.16770 0.09100
C 	C 	0.49300 0.08940 0.22490 -0.05300
H 	H 	0.39150 0.07950 0.18130 0.02200
C 	C 	0.43570 0.18370 0.40650 0.33900
C 	C 	0.95090 0.15090 0.40120 0.36500
C 	C 	0.59810 0.88770 0.04880 -0.00200
C 	C 	0.54680 0.98670 0.04440 -0.15400
C 	C 	0.46200 0.02830 0.92290 0.17600
H 	H 	0.42650 0.09560 0.92030 -0.01600
C 	C 	0.42830 0.97190 0.80400 -0.27500
C 	C 	0.48060 0.87380 0.80850 0.09200
H 	H 	0.45930 0.83490 0.72800 0.01300
C 	C 	0.56630 0.83200 0.93440 -0.12100
H 	H 	0.60160 0.76450 0.93840 0.07100
C 	C 	0.68910 0.83750 0.17960 0.29200
C 	C 	0.33970 0.01820 0.66990 0.52300
C 	C 	0.23550 0.45160 0.36770 0.21800
H 	H 	0.33680 0.44260 0.38470 -0.04200
C 	C 	0.00880 0.55310 0.26900 -0.41100
H 	H 	0.98100 0.61580 0.21660 0.11500
H 	H 	0.99160 0.56060 0.35520 0.13500
H 	H 	0.95040 0.49670 0.21810 0.14400
C 	C 	0.24670 0.60560 0.23880 0.07700
H 	H 	0.18070 0.65930 0.18950 -0.02900
H 	H 	0.28670 0.57000 0.17720 0.01600
H 	H 	0.32630 0.63570 0.31290 -0.01000
Cd	Cd	0.24148 0.24447 0.54111 1.24500
Cd	Cd	0.20707 0.99418 0.34986 1.17000
N 	N 	0.16500 0.53240 0.29490 -0.05600
O 	O 	0.47640 0.24140 0.50500 -0.38300
O 	O 	0.30460 0.15250 0.36170 -0.49800
O 	O 	0.99680 0.22500 0.48350 -0.42100
O 	O 	0.02910 0.09480 0.36240 -0.47300
O 	O 	0.63850 0.83990 0.27640 -0.39600
O 	O 	0.80540 0.79910 0.18550 -0.32300
O 	O 	0.30120 0.10830 0.67430 -0.47100
O 	O 	0.31610 0.96410 0.56740 -0.53300
O 	O 	0.16730 0.38960 0.41190 -0.22500
C 	C 	0.10300 0.44600 0.36600 0.16700
H 	H 	0.01840 0.43820 0.39120 -0.02600
C 	C 	0.25300 0.53700 0.25500 -0.41900
H 	H 	0.24230 0.59390 0.19240 0.09500
H 	H 	0.27700 0.47540 0.21530 0.14900
H 	H 	0.33130 0.55220 0.34010 0.13800
C 	C 	0.98000 0.56800 0.18400 0.02100
H 	H 	0.00820 0.61490 0.12460 0.00000
H 	H 	0.92610 0.60520 0.23280 0.03400
H 	H 	0.91800 0.51450 0.12940 -0.03400
N 	N 	0.11300 0.52190 0.28300 0.03600
O 	O 	0.21000 0.38630 0.41000 -0.21300
