data_crystal

_cell_length_a 13.40500
_cell_length_b 14.70500
_cell_length_c 13.38800
_cell_angle_alpha 90.00000
_cell_angle_beta  99.35700
_cell_angle_gamma 90.00000

_symmetry_space_group_name_	'P 1'
_symmetry_space_group_name_H-M	'P 1'

loop_
_symmetry_equiv_pos_as_xyz
  x,y,z

loop_
_atom_site_label
_atom_site_type_symbol
_atom_site_fract_x
_atom_site_fract_y
_atom_site_fract_z
_atom_site_charge
O 	O 	0.94070 0.43910 0.57350 -0.53500
O 	O 	0.06290 0.34200 0.61810 -0.46500
O 	O 	0.01020 0.13030 0.89510 -0.47700
O 	O 	0.86430 0.05240 0.87160 -0.45300
N 	N 	0.41500 0.26350 0.55540 -0.14700
C 	C 	0.97300 0.36620 0.61350 0.46100
C 	C 	0.90230 0.30430 0.65720 -0.16400
C 	C 	0.94160 0.24160 0.73170 0.08100
H 	H 	0.01240 0.23910 0.75500 0.02600
C 	C 	0.87710 0.18280 0.77160 -0.14900
C 	C 	0.77380 0.18600 0.73630 0.03200
H 	H 	0.73010 0.14500 0.76280 0.05200
C 	C 	0.73360 0.24870 0.66240 -0.07200
C 	C 	0.79890 0.30840 0.62380 0.04600
H 	H 	0.77230 0.35210 0.57430 0.01700
C 	C 	0.62290 0.25320 0.62490 0.10700
C 	C 	0.55370 0.23970 0.68970 -0.15100
H 	H 	0.57600 0.22630 0.75910 0.10800
C 	C 	0.45090 0.24610 0.65170 0.09600
H 	H 	0.40410 0.23750 0.69710 0.02200
C 	C 	0.48210 0.27560 0.49380 0.08800
H 	H 	0.45770 0.28770 0.42440 0.03000
C 	C 	0.58510 0.27170 0.52500 -0.15400
H 	H 	0.62990 0.28160 0.47790 0.09800
C 	C 	0.92070 0.11560 0.85250 0.45800
O 	O 	0.27880 0.42060 0.65330 -0.15200
O 	O 	0.30870 0.50100 0.52300 -0.43400
O 	O 	0.69720 0.50710 0.51360 0.12300
O 	O 	0.78860 0.55310 0.65630 -0.23600
C 	C 	0.33650 0.46810 0.60960 -0.00600
C 	C 	0.44180 0.48550 0.66350 0.95800
C 	C 	0.52140 0.49880 0.61030 -0.08000
C 	C 	0.61820 0.51530 0.66220 -0.57900
C 	C 	0.63540 0.51840 0.76740 -0.72300
H 	H 	0.70220 0.52980 0.80320 0.27300
C 	C 	0.55580 0.50500 0.82060 1.43800
C 	C 	0.45900 0.48860 0.76870 -1.74200
H 	H 	0.40400 0.47940 0.80550 1.65200
C 	C 	0.57330 0.51180 0.93460 -0.04000
C 	C 	0.66120 0.54620 0.98920 -0.33300
H 	H 	0.71320 0.56780 0.95360 0.12200
N 	N 	0.60920 0.52220 0.14990 -1.53400
C 	C 	0.67750 0.55080 0.09570 0.63000
H 	H 	0.74080 0.57470 0.12940 -0.16900
C 	C 	0.52360 0.48870 0.09760 1.20400
H 	H 	0.47370 0.46780 0.13620 -0.88000
C 	C 	0.50020 0.48120 0.99190 -0.47500
H 	H 	0.43680 0.45640 0.95980 0.14100
C 	C 	0.70640 0.52700 0.60670 0.12700
Dy	Dy	0.13893 0.43676 0.50902 1.81800
O 	O 	0.25720 0.39660 0.66200 -0.13800
O 	O 	0.43310 0.55280 0.65810 -0.42000
O 	O 	0.19320 0.07060 0.84880 -0.07800
O 	O 	0.37100 0.99060 0.82360 0.64100
O 	O 	0.05930 0.93910 0.92650 -0.53600
O 	O 	0.93710 0.84200 0.88190 -0.47200
O 	O 	0.98980 0.63030 0.60490 -0.49600
O 	O 	0.13570 0.55240 0.62840 -0.46600
N 	N 	0.58500 0.76350 0.94460 -0.15800
C 	C 	0.02700 0.86620 0.88650 0.47100
C 	C 	0.09770 0.80430 0.84280 -0.17700
C 	C 	0.05840 0.74160 0.76830 0.10400
H 	H 	0.98760 0.73910 0.74500 0.01300
C 	C 	0.12290 0.68280 0.72840 -0.16500
C 	C 	0.22620 0.68600 0.76370 0.04600
H 	H 	0.26990 0.64500 0.73720 0.04600
C 	C 	0.26640 0.74870 0.83760 -0.08700
C 	C 	0.20110 0.80840 0.87620 0.05800
H 	H 	0.22770 0.85210 0.92570 0.01000
C 	C 	0.37710 0.75320 0.87510 0.12500
C 	C 	0.44630 0.73970 0.81030 -0.16400
H 	H 	0.42400 0.72630 0.74090 0.11100
C 	C 	0.54910 0.74610 0.84830 0.10300
H 	H 	0.59590 0.73750 0.80290 0.01900
C 	C 	0.51790 0.77560 0.00620 0.11700
H 	H 	0.54230 0.78770 0.07560 0.02300
C 	C 	0.41490 0.77170 0.97500 -0.18800
H 	H 	0.37010 0.78160 0.02210 0.11300
C 	C 	0.07930 0.61560 0.64750 0.47400
O 	O 	0.72120 0.92060 0.84670 -0.15800
O 	O 	0.69130 0.00100 0.97700 -0.43000
O 	O 	0.30280 0.00710 0.98640 0.13100
O 	O 	0.21140 0.05310 0.84370 -0.22600
C 	C 	0.66350 0.96810 0.89040 -0.01500
C 	C 	0.55820 0.98550 0.83650 0.95900
C 	C 	0.47860 0.99880 0.88970 -0.08400
C 	C 	0.38180 0.01530 0.83780 -0.62100
C 	C 	0.36460 0.01840 0.73260 -0.73600
H 	H 	0.29780 0.02980 0.69680 0.27800
C 	C 	0.44420 0.00500 0.67940 1.47400
C 	C 	0.54100 0.98860 0.73130 -1.77600
H 	H 	0.59600 0.97940 0.69450 1.67700
C 	C 	0.42670 0.01180 0.56540 -0.04400
C 	C 	0.33880 0.04620 0.51080 -0.33100
H 	H 	0.28680 0.06780 0.54640 0.12200
N 	N 	0.39080 0.02220 0.35010 -1.55700
C 	C 	0.32250 0.05080 0.40430 0.63300
H 	H 	0.25920 0.07470 0.37060 -0.17300
C 	C 	0.47640 0.98870 0.40240 1.23500
H 	H 	0.52630 0.96780 0.36380 -0.90400
C 	C 	0.49980 0.98120 0.50810 -0.48600
H 	H 	0.56320 0.95640 0.54020 0.14000
C 	C 	0.29360 0.02700 0.89330 0.13600
Dy	Dy	0.86107 0.93676 0.99098 1.78200
O 	O 	0.74280 0.89660 0.83800 -0.13000
O 	O 	0.56690 0.05280 0.84190 -0.40900
O 	O 	0.80680 0.57060 0.65120 -0.07400
O 	O 	0.62900 0.49060 0.67640 0.60300
O 	O 	0.05930 0.56090 0.42650 -0.53600
O 	O 	0.93710 0.65800 0.38190 -0.46600
O 	O 	0.98980 0.86970 0.10490 -0.47800
O 	O 	0.13570 0.94760 0.12840 -0.45400
N 	N 	0.58500 0.73650 0.44460 -0.14800
C 	C 	0.02700 0.63380 0.38650 0.46100
C 	C 	0.09770 0.69570 0.34280 -0.16400
C 	C 	0.05840 0.75840 0.26830 0.08100
H 	H 	0.98760 0.76090 0.24500 0.02600
C 	C 	0.12290 0.81720 0.22840 -0.14900
C 	C 	0.22620 0.81400 0.26370 0.03200
H 	H 	0.26990 0.85500 0.23720 0.05200
C 	C 	0.26640 0.75130 0.33760 -0.07200
C 	C 	0.20110 0.69160 0.37620 0.04600
H 	H 	0.22770 0.64790 0.42570 0.01700
C 	C 	0.37710 0.74680 0.37510 0.10700
C 	C 	0.44630 0.76030 0.31030 -0.15100
H 	H 	0.42400 0.77370 0.24090 0.10800
C 	C 	0.54910 0.75390 0.34830 0.09600
H 	H 	0.59590 0.76250 0.30290 0.02200
C 	C 	0.51790 0.72440 0.50620 0.08800
H 	H 	0.54230 0.71230 0.57560 0.03000
C 	C 	0.41490 0.72830 0.47500 -0.15400
H 	H 	0.37010 0.71840 0.52210 0.09800
C 	C 	0.07930 0.88440 0.14750 0.45800
O 	O 	0.72120 0.57940 0.34670 -0.15200
O 	O 	0.69130 0.49900 0.47700 -0.43400
O 	O 	0.30280 0.49290 0.48640 0.12300
O 	O 	0.21140 0.44690 0.34370 -0.23600
C 	C 	0.66350 0.53190 0.39040 -0.00600
C 	C 	0.55820 0.51450 0.33650 0.95700
C 	C 	0.47860 0.50120 0.38970 -0.08000
C 	C 	0.38180 0.48470 0.33780 -0.57900
C 	C 	0.36460 0.48160 0.23260 -0.72300
H 	H 	0.29780 0.47020 0.19680 0.27300
C 	C 	0.44420 0.49500 0.17940 1.43800
C 	C 	0.54100 0.51140 0.23130 -1.74200
H 	H 	0.59600 0.52060 0.19450 1.65200
C 	C 	0.42670 0.48820 0.06540 -0.04000
C 	C 	0.33880 0.45380 0.01080 -0.33300
H 	H 	0.28680 0.43220 0.04640 0.12200
N 	N 	0.39080 0.47780 0.85010 -1.53400
C 	C 	0.32250 0.44920 0.90430 0.63000
H 	H 	0.25920 0.42530 0.87060 -0.16900
C 	C 	0.47640 0.51130 0.90240 1.20400
H 	H 	0.52630 0.53220 0.86380 -0.88000
C 	C 	0.49980 0.51880 0.00810 -0.47500
H 	H 	0.56320 0.54360 0.04020 0.14100
C 	C 	0.29360 0.47300 0.39330 0.12700
Dy	Dy	0.86107 0.56325 0.49098 1.81800
O 	O 	0.74280 0.60340 0.33800 -0.13800
O 	O 	0.56690 0.44720 0.34190 -0.42000
O 	O 	0.80680 0.92940 0.15120 -0.07800
O 	O 	0.62900 0.00940 0.17640 0.64100
O 	O 	0.94070 0.06090 0.07350 -0.53600
O 	O 	0.06290 0.15800 0.11810 -0.47200
O 	O 	0.01020 0.36970 0.39510 -0.49600
O 	O 	0.86430 0.44760 0.37160 -0.46600
N 	N 	0.41500 0.23650 0.05540 -0.15800
C 	C 	0.97300 0.13380 0.11350 0.47100
C 	C 	0.90230 0.19570 0.15720 -0.17700
C 	C 	0.94160 0.25840 0.23170 0.10400
H 	H 	0.01240 0.26090 0.25500 0.01300
C 	C 	0.87710 0.31720 0.27160 -0.16500
C 	C 	0.77380 0.31400 0.23630 0.04600
H 	H 	0.73010 0.35500 0.26280 0.04600
C 	C 	0.73360 0.25130 0.16240 -0.08700
C 	C 	0.79890 0.19160 0.12380 0.05800
H 	H 	0.77230 0.14790 0.07430 0.01000
C 	C 	0.62290 0.24680 0.12490 0.12500
C 	C 	0.55370 0.26030 0.18970 -0.16400
H 	H 	0.57600 0.27370 0.25910 0.11100
C 	C 	0.45090 0.25390 0.15170 0.10300
H 	H 	0.40410 0.26250 0.19710 0.01900
C 	C 	0.48210 0.22440 0.99380 0.11700
H 	H 	0.45770 0.21230 0.92440 0.02300
C 	C 	0.58510 0.22830 0.02500 -0.18800
H 	H 	0.62990 0.21840 0.97790 0.11300
C 	C 	0.92070 0.38440 0.35250 0.47400
O 	O 	0.27880 0.07940 0.15330 -0.15800
O 	O 	0.30870 0.99900 0.02300 -0.43000
O 	O 	0.69720 0.99290 0.01360 0.13100
O 	O 	0.78860 0.94690 0.15630 -0.22600
C 	C 	0.33650 0.03190 0.10960 -0.01500
C 	C 	0.44180 0.01450 0.16350 0.95900
C 	C 	0.52140 0.00120 0.11030 -0.08400
C 	C 	0.61820 0.98470 0.16220 -0.62100
C 	C 	0.63540 0.98160 0.26740 -0.73600
H 	H 	0.70220 0.97020 0.30320 0.27800
C 	C 	0.55580 0.99500 0.32060 1.47400
C 	C 	0.45900 0.01140 0.26870 -1.77600
H 	H 	0.40400 0.02060 0.30550 1.67700
C 	C 	0.57330 0.98820 0.43460 -0.04400
C 	C 	0.66120 0.95380 0.48920 -0.33100
H 	H 	0.71320 0.93220 0.45360 0.12200
N 	N 	0.60920 0.97780 0.64990 -1.55700
C 	C 	0.67750 0.94920 0.59570 0.63300
H 	H 	0.74080 0.92530 0.62940 -0.17300
C 	C 	0.52360 0.01130 0.59760 1.23500
H 	H 	0.47370 0.03220 0.63620 -0.90400
C 	C 	0.50020 0.01880 0.49190 -0.48600
H 	H 	0.43680 0.04360 0.45980 0.14000
C 	C 	0.70640 0.97300 0.10670 0.13600
Dy	Dy	0.13893 0.06324 0.00902 1.78200
O 	O 	0.25720 0.10340 0.16200 -0.13000
O 	O 	0.43310 0.94720 0.15810 -0.40900
O 	O 	0.19320 0.42940 0.34880 -0.07400
O 	O 	0.37100 0.50940 0.32360 0.60300
