data_crystal

_cell_length_a 13.47210
_cell_length_b 14.81380
_cell_length_c 13.41310
_cell_angle_alpha 90.00000
_cell_angle_beta  99.14200
_cell_angle_gamma 90.00000

_symmetry_space_group_name_	'P 1'
_symmetry_space_group_name_H-M	'P 1'

loop_
_symmetry_equiv_pos_as_xyz
  x,y,z

loop_
_atom_site_label
_atom_site_type_symbol
_atom_site_fract_x
_atom_site_fract_y
_atom_site_fract_z
_atom_site_charge
Sm	Sm	0.13798 0.43833 0.50818 2.02000
O 	O 	0.95270 0.43860 0.57590 -0.58100
O 	O 	0.06710 0.33540 0.61840 -0.49500
O 	O 	0.00910 0.13110 0.89270 -0.53200
O 	O 	0.86000 0.06060 0.87540 -0.49800
N 	N 	0.41980 0.26790 0.55360 -0.16100
C 	C 	0.97920 0.36400 0.61540 0.46300
C 	C 	0.90640 0.30580 0.65790 -0.18400
C 	C 	0.94250 0.24370 0.73260 0.10000
H 	H 	0.01270 0.23960 0.75590 0.01000
C 	C 	0.87680 0.18770 0.77330 -0.17500
C 	C 	0.77380 0.19160 0.73680 0.04300
H 	H 	0.72930 0.15130 0.76270 0.04800
C 	C 	0.73590 0.25390 0.66280 -0.08500
C 	C 	0.80330 0.31120 0.62320 0.06500
H 	H 	0.77850 0.35380 0.57240 0.00700
C 	C 	0.62590 0.25870 0.62350 0.12400
C 	C 	0.55710 0.24440 0.68680 -0.15700
H 	H 	0.57920 0.23070 0.75590 0.11900
C 	C 	0.45510 0.25000 0.64990 0.11700
H 	H 	0.40850 0.24060 0.69520 0.01600
C 	C 	0.48590 0.28040 0.49440 0.10700
H 	H 	0.46190 0.29280 0.42520 0.03300
C 	C 	0.58850 0.27710 0.52470 -0.16400
H 	H 	0.63290 0.28740 0.47750 0.10900
C 	C 	0.91820 0.12050 0.85310 0.47900
O 	O 	0.27980 0.42280 0.65750 -0.39400
O 	O 	0.31340 0.49420 0.52290 -0.58200
O 	O 	0.69480 0.50400 0.51610 0.30000
O 	O 	0.79130 0.54500 0.65810 -0.59100
C 	C 	0.33770 0.46800 0.61260 -0.15800
C 	C 	0.44220 0.48490 0.66680 2.01500
C 	C 	0.52220 0.49630 0.61410 -0.50100
C 	C 	0.61830 0.51180 0.66620 -0.21100
C 	C 	0.63450 0.51590 0.77110 -1.56900
H 	H 	0.70190 0.52670 0.80770 0.54300
C 	C 	0.55450 0.50450 0.82380 3.26100
C 	C 	0.45830 0.48900 0.77160 -4.07200
H 	H 	0.40250 0.48110 0.80790 4.09100
C 	C 	0.57310 0.51200 0.93660 -0.45600
C 	C 	0.65900 0.55340 0.98710 -0.41300
H 	H 	0.71090 0.57500 0.95150 0.12600
N 	N 	0.60790 0.52210 0.15010 -3.64400
C 	C 	0.67460 0.55750 0.09470 1.29000
H 	H 	0.73790 0.58140 0.12830 -0.40100
C 	C 	0.52570 0.48250 0.09980 2.52500
H 	H 	0.47570 0.46160 0.13840 -1.83100
C 	C 	0.50630 0.47640 0.99550 -0.78900
H 	H 	0.44300 0.45150 0.96330 0.25700
C 	C 	0.70690 0.52410 0.60920 0.06500
O 	O 	0.25610 0.39850 0.66390 0.08900
O 	O 	0.43010 0.55550 0.65690 -0.60200
O 	O 	0.18420 0.06820 0.84680 0.25500
O 	O 	0.37790 0.00000 0.82700 0.56000
Sm	Sm	0.86202 0.93833 0.99182 2.01000
O 	O 	0.04730 0.93860 0.92410 -0.57400
O 	O 	0.93290 0.83540 0.88160 -0.50100
O 	O 	0.99090 0.63110 0.60730 -0.53500
O 	O 	0.14000 0.56060 0.62460 -0.49000
N 	N 	0.58020 0.76790 0.94640 -0.17600
C 	C 	0.02080 0.86400 0.88460 0.47400
C 	C 	0.09360 0.80580 0.84210 -0.19300
C 	C 	0.05750 0.74370 0.76740 0.12100
H 	H 	0.98730 0.73960 0.74410 0.00000
C 	C 	0.12320 0.68770 0.72670 -0.18400
C 	C 	0.22620 0.69160 0.76320 0.05500
H 	H 	0.27070 0.65130 0.73730 0.04700
C 	C 	0.26410 0.75390 0.83720 -0.09800
C 	C 	0.19670 0.81120 0.87680 0.07800
H 	H 	0.22150 0.85380 0.92760 0.00400
C 	C 	0.37410 0.75870 0.87650 0.15100
C 	C 	0.44290 0.74440 0.81320 -0.17400
H 	H 	0.42080 0.73070 0.74410 0.12900
C 	C 	0.54490 0.75000 0.85010 0.13100
H 	H 	0.59150 0.74060 0.80480 0.01400
C 	C 	0.51410 0.78040 0.00560 0.15200
H 	H 	0.53810 0.79280 0.07480 0.02300
C 	C 	0.41150 0.77710 0.97530 -0.21600
H 	H 	0.36710 0.78740 0.02250 0.13400
C 	C 	0.08180 0.62050 0.64690 0.49000
O 	O 	0.72020 0.92280 0.84250 -0.39200
O 	O 	0.68660 0.99420 0.97710 -0.47200
O 	O 	0.30520 0.00400 0.98390 0.37400
O 	O 	0.20870 0.04500 0.84190 -0.60700
C 	C 	0.66230 0.96800 0.88740 -0.14900
C 	C 	0.55780 0.98490 0.83320 1.85700
C 	C 	0.47780 0.99630 0.88590 -0.42600
C 	C 	0.38170 0.01180 0.83380 -0.23200
C 	C 	0.36550 0.01590 0.72890 -1.39100
H 	H 	0.29810 0.02670 0.69230 0.48400
C 	C 	0.44550 0.00450 0.67620 2.89500
C 	C 	0.54170 0.98900 0.72840 -3.67500
H 	H 	0.59750 0.98110 0.69210 3.73400
C 	C 	0.42690 0.01200 0.56340 -0.33200
C 	C 	0.34100 0.05340 0.51290 -0.51200
H 	H 	0.28910 0.07500 0.54850 0.16200
N 	N 	0.39210 0.02210 0.34990 -3.90500
C 	C 	0.32540 0.05750 0.40530 1.40700
H 	H 	0.26210 0.08140 0.37170 -0.44600
C 	C 	0.47430 0.98250 0.40020 2.71200
H 	H 	0.52430 0.96160 0.36160 -1.97500
C 	C 	0.49370 0.97640 0.50450 -0.75300
H 	H 	0.55700 0.95150 0.53670 0.28100
C 	C 	0.29310 0.02410 0.89080 0.04700
O 	O 	0.74390 0.89850 0.83610 0.08900
O 	O 	0.56990 0.05550 0.84310 -0.59100
O 	O 	0.81580 0.56820 0.65320 0.24000
O 	O 	0.62210 0.50000 0.67300 0.60900
Sm	Sm	0.86202 0.56167 0.49182 2.02000
O 	O 	0.04730 0.56140 0.42410 -0.58000
O 	O 	0.93290 0.66460 0.38160 -0.49200
O 	O 	0.99090 0.86890 0.10730 -0.51800
O 	O 	0.14000 0.93940 0.12460 -0.47500
N 	N 	0.58020 0.73210 0.44640 -0.16100
C 	C 	0.02080 0.63600 0.38460 0.46200
C 	C 	0.09360 0.69420 0.34210 -0.18000
C 	C 	0.05750 0.75630 0.26740 0.09700
H 	H 	0.98730 0.76040 0.24410 0.01400
C 	C 	0.12320 0.81230 0.22670 -0.16600
C 	C 	0.22620 0.80840 0.26320 0.03900
H 	H 	0.27070 0.84870 0.23730 0.05600
C 	C 	0.26410 0.74610 0.33720 -0.08000
C 	C 	0.19670 0.68880 0.37680 0.06400
H 	H 	0.22150 0.64620 0.42760 0.00800
C 	C 	0.37410 0.74130 0.37650 0.12200
C 	C 	0.44290 0.75560 0.31320 -0.15400
H 	H 	0.42080 0.76930 0.24410 0.12400
C 	C 	0.54490 0.75000 0.35010 0.11900
H 	H 	0.59150 0.75940 0.30480 0.02000
C 	C 	0.51410 0.71960 0.50560 0.10500
H 	H 	0.53810 0.70720 0.57480 0.03500
C 	C 	0.41150 0.72290 0.47530 -0.16500
H 	H 	0.36710 0.71260 0.52250 0.11000
C 	C 	0.08180 0.87950 0.14690 0.47500
O 	O 	0.72020 0.57720 0.34250 -0.38400
O 	O 	0.68660 0.50580 0.47710 -0.57300
O 	O 	0.30520 0.49600 0.48390 0.31000
O 	O 	0.20870 0.45500 0.34190 -0.59200
C 	C 	0.66230 0.53200 0.38740 -0.15300
C 	C 	0.55780 0.51510 0.33320 1.96900
C 	C 	0.47780 0.50370 0.38590 -0.48500
C 	C 	0.38170 0.48820 0.33380 -0.21600
C 	C 	0.36550 0.48410 0.22890 -1.52400
H 	H 	0.29810 0.47330 0.19230 0.52900
C 	C 	0.44550 0.49550 0.17620 3.16900
C 	C 	0.54170 0.51100 0.22840 -3.97300
H 	H 	0.59750 0.51890 0.19210 4.00300
C 	C 	0.42690 0.48800 0.06340 -0.38800
C 	C 	0.34100 0.44660 0.01290 -0.42900
H 	H 	0.28910 0.42500 0.04850 0.13500
N 	N 	0.39210 0.47790 0.84990 -3.72200
C 	C 	0.32540 0.44250 0.90530 1.31800
H 	H 	0.26210 0.41860 0.87170 -0.41500
C 	C 	0.47430 0.51750 0.90020 2.60000
H 	H 	0.52430 0.53840 0.86160 -1.87500
C 	C 	0.49370 0.52360 0.00450 -0.91300
H 	H 	0.55700 0.54850 0.03670 0.30500
C 	C 	0.29310 0.47590 0.39080 0.06400
O 	O 	0.74390 0.60150 0.33610 0.07900
O 	O 	0.56990 0.44450 0.34310 -0.59300
O 	O 	0.81580 0.93180 0.15320 0.19800
O 	O 	0.62210 0.00000 0.17300 0.66500
Sm	Sm	0.13798 0.06167 0.00818 2.00500
O 	O 	0.95270 0.06140 0.07590 -0.58200
O 	O 	0.06710 0.16460 0.11840 -0.49900
O 	O 	0.00910 0.36890 0.39270 -0.53500
O 	O 	0.86000 0.43940 0.37540 -0.49000
N 	N 	0.41980 0.23210 0.05360 -0.14700
C 	C 	0.97920 0.13600 0.11540 0.47300
C 	C 	0.90640 0.19420 0.15790 -0.18800
C 	C 	0.94250 0.25630 0.23260 0.11400
H 	H 	0.01270 0.26040 0.25590 0.00200
C 	C 	0.87680 0.31230 0.27330 -0.17700
C 	C 	0.77380 0.30840 0.23680 0.04100
H 	H 	0.72930 0.34870 0.26270 0.05200
C 	C 	0.73590 0.24610 0.16280 -0.07500
C 	C 	0.80330 0.18880 0.12320 0.06300
H 	H 	0.77850 0.14620 0.07240 0.00800
C 	C 	0.62590 0.24130 0.12350 0.09700
C 	C 	0.55710 0.25560 0.18680 -0.13800
H 	H 	0.57920 0.26930 0.25590 0.11500
C 	C 	0.45510 0.25000 0.14990 0.10700
H 	H 	0.40850 0.25940 0.19520 0.02200
C 	C 	0.48590 0.21960 0.99440 0.05900
H 	H 	0.46190 0.20720 0.92520 0.04500
C 	C 	0.58850 0.22290 0.02470 -0.10900
H 	H 	0.63290 0.21260 0.97750 0.08200
C 	C 	0.91820 0.37950 0.35310 0.48800
O 	O 	0.27980 0.07720 0.15750 -0.38900
O 	O 	0.31340 0.00580 0.02290 -0.64900
O 	O 	0.69480 0.99600 0.01610 0.20000
O 	O 	0.79130 0.95500 0.15810 -0.54500
C 	C 	0.33770 0.03200 0.11260 -0.16400
C 	C 	0.44220 0.01510 0.16680 2.08800
C 	C 	0.52220 0.00370 0.11410 -0.53400
C 	C 	0.61830 0.98820 0.16620 -0.25300
C 	C 	0.63450 0.98410 0.27110 -1.65300
H 	H 	0.70190 0.97330 0.30770 0.57300
C 	C 	0.55450 0.99550 0.32380 3.46400
C 	C 	0.45830 0.01100 0.27160 -4.29400
H 	H 	0.40250 0.01890 0.30790 4.29200
C 	C 	0.57310 0.98800 0.43660 -0.50300
C 	C 	0.65900 0.94660 0.48710 -0.32100
H 	H 	0.71090 0.92500 0.45150 0.09800
N 	N 	0.60790 0.97790 0.65010 -3.40000
C 	C 	0.67460 0.94250 0.59470 1.17500
H 	H 	0.73790 0.91860 0.62830 -0.36400
C 	C 	0.52570 0.01750 0.59980 2.36400
H 	H 	0.47570 0.03840 0.63840 -1.69100
C 	C 	0.50630 0.02360 0.49550 -0.93500
H 	H 	0.44300 0.04850 0.46330 0.27700
C 	C 	0.70690 0.97590 0.10920 0.10100
O 	O 	0.25610 0.10150 0.16390 0.08300
O 	O 	0.43010 0.94450 0.15690 -0.59700
O 	O 	0.18420 0.43180 0.34680 0.24200
O 	O 	0.37790 0.50000 0.32700 0.59800
