data_crystal

_cell_length_a 18.45900
_cell_length_b 18.45900
_cell_length_c 6.74890
_cell_angle_alpha 90.00000
_cell_angle_beta  90.00000
_cell_angle_gamma 120.00000

_symmetry_space_group_name_	'P 1'
_symmetry_space_group_name_H-M	'P 1'

loop_
_symmetry_equiv_pos_as_xyz
  x,y,z

loop_
_atom_site_label
_atom_site_type_symbol
_atom_site_fract_x
_atom_site_fract_y
_atom_site_fract_z
_atom_site_charge
O 	O 	0.28690 0.20290 0.27280 -0.18300
O 	O 	0.48000 0.37170 0.48440 -0.41300
O 	O 	0.44090 0.41140 0.75460 -0.40800
C 	C 	0.37840 0.25500 0.92440 0.03900
C 	C 	0.42230 0.27640 0.74800 -0.11800
C 	C 	0.44930 0.35940 0.65400 0.38500
C 	C 	0.23200 0.18580 0.43800 -0.33800
H 	H 	0.36320 0.29200 0.98430 0.05200
H 	H 	0.25430 0.17220 0.55360 0.13200
H 	H 	0.17630 0.13710 0.40540 0.12100
O 	O 	0.79710 0.08400 0.27280 -0.20600
O 	O 	0.62830 0.10830 0.48440 -0.41700
O 	O 	0.58860 0.02950 0.75460 -0.41700
C 	C 	0.74500 0.12340 0.92440 0.04300
C 	C 	0.72360 0.14590 0.74800 -0.12200
C 	C 	0.64060 0.08990 0.65400 0.38600
C 	C 	0.81420 0.04620 0.43800 -0.24600
H 	H 	0.70800 0.07120 0.98430 0.04700
H 	H 	0.82780 0.08210 0.55360 0.10600
H 	H 	0.86290 0.03920 0.40540 0.09300
O 	O 	0.91600 0.71310 0.27280 -0.19900
O 	O 	0.89170 0.52000 0.48440 -0.41100
O 	O 	0.97050 0.55910 0.75460 -0.39900
C 	C 	0.87660 0.62160 0.92440 0.03500
C 	C 	0.85410 0.57770 0.74800 -0.11400
C 	C 	0.91010 0.55070 0.65400 0.38300
C 	C 	0.95380 0.76800 0.43800 -0.21900
H 	H 	0.92880 0.63680 0.98430 0.05800
H 	H 	0.91790 0.74570 0.55360 0.10100
H 	H 	0.96080 0.82370 0.40540 0.09400
O 	O 	0.20290 0.28690 0.72720 -0.18400
O 	O 	0.37170 0.48000 0.51560 -0.41400
O 	O 	0.41140 0.44090 0.24540 -0.40900
C 	C 	0.25500 0.37840 0.07560 0.03800
C 	C 	0.27640 0.42230 0.25200 -0.11900
C 	C 	0.35940 0.44930 0.34600 0.38400
C 	C 	0.18580 0.23200 0.56200 -0.33900
H 	H 	0.29200 0.36320 0.01570 0.05100
H 	H 	0.17220 0.25430 0.44640 0.13100
H 	H 	0.13710 0.17630 0.59460 0.12000
O 	O 	0.08400 0.79710 0.72720 -0.20700
O 	O 	0.10830 0.62830 0.51560 -0.41700
O 	O 	0.02950 0.58860 0.24540 -0.41700
C 	C 	0.12340 0.74500 0.07560 0.04300
C 	C 	0.14590 0.72360 0.25200 -0.12200
C 	C 	0.08990 0.64060 0.34600 0.38600
C 	C 	0.04620 0.81420 0.56200 -0.24600
H 	H 	0.07120 0.70800 0.01570 0.04700
H 	H 	0.08210 0.82780 0.44640 0.10600
H 	H 	0.03920 0.86290 0.59460 0.09300
O 	O 	0.71310 0.91600 0.72720 -0.19900
O 	O 	0.52000 0.89170 0.51560 -0.41100
O 	O 	0.55910 0.97050 0.24540 -0.39900
C 	C 	0.62160 0.87660 0.07560 0.03500
C 	C 	0.57770 0.85410 0.25200 -0.11400
C 	C 	0.55070 0.91010 0.34600 0.38300
C 	C 	0.76800 0.95380 0.56200 -0.21900
H 	H 	0.63680 0.92880 0.01570 0.05800
H 	H 	0.74570 0.91790 0.44640 0.10100
H 	H 	0.82370 0.96080 0.59460 0.09400
O 	O 	0.71310 0.79710 0.72720 -0.17600
O 	O 	0.52000 0.62830 0.51560 -0.41400
O 	O 	0.55910 0.58860 0.24540 -0.40900
C 	C 	0.62160 0.74500 0.07560 0.03500
C 	C 	0.57770 0.72360 0.25200 -0.11600
C 	C 	0.55070 0.64060 0.34600 0.38300
C 	C 	0.76800 0.81420 0.56200 -0.36900
H 	H 	0.63680 0.70800 0.01570 0.05200
H 	H 	0.74570 0.82780 0.44640 0.14100
H 	H 	0.82370 0.86290 0.59460 0.13500
O 	O 	0.20290 0.91600 0.72720 -0.20800
O 	O 	0.37170 0.89170 0.51560 -0.41100
O 	O 	0.41140 0.97050 0.24540 -0.40000
C 	C 	0.25500 0.87660 0.07560 0.04200
C 	C 	0.27640 0.85410 0.25200 -0.11800
C 	C 	0.35940 0.91010 0.34600 0.38400
C 	C 	0.18580 0.95380 0.56200 -0.20300
H 	H 	0.29200 0.92880 0.01570 0.05500
H 	H 	0.17220 0.91790 0.44640 0.09800
H 	H 	0.13710 0.96080 0.59460 0.08700
O 	O 	0.08400 0.28690 0.72720 -0.20600
O 	O 	0.10830 0.48000 0.51560 -0.41700
O 	O 	0.02950 0.44090 0.24540 -0.41700
C 	C 	0.12340 0.37840 0.07560 0.04000
C 	C 	0.14590 0.42230 0.25200 -0.12100
C 	C 	0.08990 0.44930 0.34600 0.38600
C 	C 	0.04620 0.23200 0.56200 -0.23000
H 	H 	0.07120 0.36320 0.01570 0.04800
H 	H 	0.08210 0.25430 0.44640 0.09900
H 	H 	0.03920 0.17630 0.59460 0.08400
O 	O 	0.79710 0.71310 0.27280 -0.17600
O 	O 	0.62830 0.52000 0.48440 -0.41400
O 	O 	0.58860 0.55910 0.75460 -0.40900
C 	C 	0.74500 0.62160 0.92440 0.03500
C 	C 	0.72360 0.57770 0.74800 -0.11600
C 	C 	0.64060 0.55070 0.65400 0.38300
C 	C 	0.81420 0.76800 0.43800 -0.36900
H 	H 	0.70800 0.63680 0.98430 0.05200
H 	H 	0.82780 0.74570 0.55360 0.14100
H 	H 	0.86290 0.82370 0.40540 0.13500
O 	O 	0.91600 0.20290 0.27280 -0.20800
O 	O 	0.89170 0.37170 0.48440 -0.41100
O 	O 	0.97050 0.41140 0.75460 -0.40000
C 	C 	0.87660 0.25500 0.92440 0.04200
C 	C 	0.85410 0.27640 0.74800 -0.11800
C 	C 	0.91010 0.35940 0.65400 0.38400
C 	C 	0.95380 0.18580 0.43800 -0.20300
H 	H 	0.92880 0.29200 0.98430 0.05500
H 	H 	0.91790 0.17220 0.55360 0.09800
H 	H 	0.96080 0.13710 0.40540 0.08700
O 	O 	0.28690 0.08400 0.27280 -0.20600
O 	O 	0.48000 0.10830 0.48440 -0.41700
O 	O 	0.44090 0.02950 0.75460 -0.41700
C 	C 	0.37840 0.12340 0.92440 0.04000
C 	C 	0.42230 0.14590 0.74800 -0.12100
C 	C 	0.44930 0.08990 0.65400 0.38600
C 	C 	0.23200 0.04620 0.43800 -0.23000
H 	H 	0.36320 0.07120 0.98430 0.04800
H 	H 	0.25430 0.08210 0.55360 0.09900
H 	H 	0.17630 0.03920 0.40540 0.08400
Cu	Cu	0.52401 0.47599 0.34250 0.91400
Cu	Cu	0.52401 0.04802 0.34250 0.90700
Cu	Cu	0.95198 0.47599 0.34250 0.92000
Cu	Cu	0.47599 0.52401 0.65750 0.91400
Cu	Cu	0.04802 0.52401 0.65750 0.90700
Cu	Cu	0.47599 0.95198 0.65750 0.92000
C 	C 	0.30680 0.15340 0.20000 0.26200
C 	C 	0.35530 0.17765 0.01290 -0.08600
C 	C 	0.44010 0.22005 0.65600 0.06000
H 	H 	0.46510 0.23255 0.52840 0.04600
C 	C 	0.84660 0.15340 0.20000 0.27500
C 	C 	0.82235 0.17765 0.01290 -0.09000
C 	C 	0.77995 0.22005 0.65600 0.06100
H 	H 	0.76745 0.23255 0.52840 0.04600
C 	C 	0.84660 0.69320 0.20000 0.25900
C 	C 	0.82235 0.64470 0.01290 -0.07900
C 	C 	0.77995 0.55990 0.65600 0.05600
H 	H 	0.76745 0.53490 0.52840 0.04800
C 	C 	0.15340 0.30680 0.80000 0.26200
C 	C 	0.17765 0.35530 0.98710 -0.08600
C 	C 	0.22005 0.44010 0.34400 0.06000
H 	H 	0.23255 0.46510 0.47160 0.04600
C 	C 	0.15340 0.84660 0.80000 0.27500
C 	C 	0.17765 0.82235 0.98710 -0.09000
C 	C 	0.22005 0.77995 0.34400 0.06100
H 	H 	0.23255 0.76745 0.47160 0.04600
C 	C 	0.69320 0.84660 0.80000 0.25900
C 	C 	0.64470 0.82235 0.98710 -0.07900
C 	C 	0.55990 0.77995 0.34400 0.05600
H 	H 	0.53490 0.76745 0.47160 0.04800
H 	H 	0.22970 0.22970 0.50000 0.28400
H 	H 	0.77030 0.00000 0.50000 0.20200
H 	H 	0.00000 0.77030 0.50000 0.20200
H 	H 	0.77030 0.77030 0.50000 0.30500
H 	H 	0.22970 0.00000 0.50000 0.19100
H 	H 	-0.00000 0.22970 0.50000 0.19100
