data_crystal

_cell_length_a 18.57700
_cell_length_b 18.57700
_cell_length_c 6.84100
_cell_angle_alpha 90.00000
_cell_angle_beta  90.00000
_cell_angle_gamma 120.00000

_symmetry_space_group_name_	'P 1'
_symmetry_space_group_name_H-M	'P 1'

loop_
_symmetry_equiv_pos_as_xyz
  x,y,z

loop_
_atom_site_label
_atom_site_type_symbol
_atom_site_fract_x
_atom_site_fract_y
_atom_site_fract_z
_atom_site_charge
O 	O 	0.37110 0.48040 0.51970 -0.40700
O 	O 	0.58910 0.55840 0.74900 -0.43800
C 	C 	0.35980 0.44990 0.35250 0.37100
H 	H 	0.47020 0.57780 0.95400 0.34100
C 	C 	0.27570 0.42210 0.25990 -0.12200
H 	H 	0.34490 0.57160 0.79510 -0.04100
C 	C 	0.25410 0.37820 0.08800 0.04200
H 	H 	0.32770 0.58880 0.12300 0.10400
H 	H 	0.29240 0.36500 0.02400 0.04600
O 	O 	0.08290 0.28580 0.74960 -0.24400
C 	C 	0.05090 0.23970 0.58200 -0.06600
H 	H 	0.99740 0.23270 0.55250 0.04800
H 	H 	0.08690 0.26790 0.47220 0.06000
H 	H 	0.04590 0.18640 0.59340 0.05100
O 	O 	0.51960 0.89070 0.51970 -0.40600
O 	O 	0.44160 0.03070 0.74900 -0.43600
C 	C 	0.55010 0.90990 0.35250 0.37200
H 	H 	0.42220 0.89240 0.95400 0.34100
C 	C 	0.57790 0.85360 0.25990 -0.12100
H 	H 	0.42840 0.77330 0.79510 -0.04000
C 	C 	0.62180 0.87590 0.08800 0.04200
H 	H 	0.41120 0.73890 0.12300 0.10300
H 	H 	0.63500 0.92740 0.02400 0.04600
O 	O 	0.71420 0.79710 0.74960 -0.24400
C 	C 	0.76030 0.81120 0.58200 -0.06500
H 	H 	0.76730 0.76470 0.55250 0.04800
H 	H 	0.73210 0.81900 0.47220 0.06000
H 	H 	0.81360 0.85950 0.59340 0.05000
O 	O 	0.10930 0.62890 0.51970 -0.40600
O 	O 	0.96930 0.41090 0.74900 -0.43600
C 	C 	0.09010 0.64020 0.35250 0.37200
H 	H 	0.10760 0.52980 0.95400 0.34100
C 	C 	0.14640 0.72430 0.25990 -0.12000
H 	H 	0.22670 0.65510 0.79510 -0.04000
C 	C 	0.12410 0.74590 0.08800 0.04000
H 	H 	0.26110 0.67230 0.12300 0.10300
H 	H 	0.07260 0.70760 0.02400 0.04700
O 	O 	0.20290 0.91710 0.74960 -0.24400
C 	C 	0.18880 0.94910 0.58200 -0.06700
H 	H 	0.23530 0.00260 0.55250 0.04800
H 	H 	0.18100 0.91310 0.47220 0.06100
H 	H 	0.14050 0.95410 0.59340 0.05100
O 	O 	0.48040 0.37110 0.48030 -0.40600
O 	O 	0.55840 0.58910 0.25100 -0.43700
C 	C 	0.44990 0.35980 0.64750 0.37200
H 	H 	0.57780 0.47020 0.04600 0.34200
C 	C 	0.42210 0.27570 0.74010 -0.12200
H 	H 	0.57160 0.34490 0.20490 -0.04100
C 	C 	0.37820 0.25410 0.91200 0.04200
H 	H 	0.58880 0.32770 0.87700 0.10400
H 	H 	0.36500 0.29240 0.97600 0.04600
O 	O 	0.28580 0.08290 0.25040 -0.24400
C 	C 	0.23970 0.05090 0.41800 -0.06600
H 	H 	0.23270 0.99740 0.44750 0.04800
H 	H 	0.26790 0.08690 0.52780 0.06000
H 	H 	0.18640 0.04590 0.40660 0.05100
O 	O 	0.89070 0.51960 0.48030 -0.40600
O 	O 	0.03070 0.44160 0.25100 -0.43600
C 	C 	0.90990 0.55010 0.64750 0.37200
H 	H 	0.89240 0.42220 0.04600 0.34100
C 	C 	0.85360 0.57790 0.74010 -0.12100
H 	H 	0.77330 0.42840 0.20490 -0.04000
C 	C 	0.87590 0.62180 0.91200 0.04200
H 	H 	0.73890 0.41120 0.87700 0.10300
H 	H 	0.92740 0.63500 0.97600 0.04600
O 	O 	0.79710 0.71420 0.25040 -0.24400
C 	C 	0.81120 0.76030 0.41800 -0.06500
H 	H 	0.76470 0.76730 0.44750 0.04800
H 	H 	0.81900 0.73210 0.52780 0.06000
H 	H 	0.85950 0.81360 0.40660 0.05000
O 	O 	0.62890 0.10930 0.48030 -0.40600
O 	O 	0.41090 0.96930 0.25100 -0.43600
C 	C 	0.64020 0.09010 0.64750 0.37200
H 	H 	0.52980 0.10760 0.04600 0.34100
C 	C 	0.72430 0.14640 0.74010 -0.12000
H 	H 	0.65510 0.22670 0.20490 -0.04000
C 	C 	0.74590 0.12410 0.91200 0.04000
H 	H 	0.67230 0.26110 0.87700 0.10300
H 	H 	0.70760 0.07260 0.97600 0.04700
O 	O 	0.91710 0.20290 0.25040 -0.24400
C 	C 	0.94910 0.18880 0.41800 -0.06700
H 	H 	0.00260 0.23530 0.44750 0.04800
H 	H 	0.91310 0.18100 0.52780 0.06100
H 	H 	0.95410 0.14050 0.40660 0.05100
O 	O 	0.62890 0.51960 0.48030 -0.40600
O 	O 	0.41090 0.44160 0.25100 -0.43700
C 	C 	0.64020 0.55010 0.64750 0.37200
H 	H 	0.52980 0.42220 0.04600 0.34200
C 	C 	0.72430 0.57790 0.74010 -0.12200
H 	H 	0.65510 0.42840 0.20490 -0.04100
C 	C 	0.74590 0.62180 0.91200 0.04200
H 	H 	0.67230 0.41120 0.87700 0.10400
H 	H 	0.70760 0.63500 0.97600 0.04600
O 	O 	0.91710 0.71420 0.25040 -0.24400
C 	C 	0.94910 0.76030 0.41800 -0.06600
H 	H 	0.00260 0.76730 0.44750 0.04800
H 	H 	0.91310 0.73210 0.52780 0.06000
H 	H 	0.95410 0.81360 0.40660 0.05100
O 	O 	0.48040 0.10930 0.48030 -0.40600
O 	O 	0.55840 0.96930 0.25100 -0.43600
C 	C 	0.44990 0.09010 0.64750 0.37200
H 	H 	0.57780 0.10760 0.04600 0.34100
C 	C 	0.42210 0.14640 0.74010 -0.12100
H 	H 	0.57160 0.22670 0.20490 -0.04000
C 	C 	0.37820 0.12410 0.91200 0.04200
H 	H 	0.58880 0.26110 0.87700 0.10300
H 	H 	0.36500 0.07260 0.97600 0.04600
O 	O 	0.28580 0.20290 0.25040 -0.24400
C 	C 	0.23970 0.18880 0.41800 -0.06500
H 	H 	0.23270 0.23530 0.44750 0.04800
H 	H 	0.26790 0.18100 0.52780 0.06000
H 	H 	0.18640 0.14050 0.40660 0.05000
O 	O 	0.89070 0.37110 0.48030 -0.40600
O 	O 	0.03070 0.58910 0.25100 -0.43600
C 	C 	0.90990 0.35980 0.64750 0.37200
H 	H 	0.89240 0.47020 0.04600 0.34100
C 	C 	0.85360 0.27570 0.74010 -0.12000
H 	H 	0.77330 0.34490 0.20490 -0.04000
C 	C 	0.87590 0.25410 0.91200 0.04000
H 	H 	0.73890 0.32770 0.87700 0.10300
H 	H 	0.92740 0.29240 0.97600 0.04700
O 	O 	0.79710 0.08290 0.25040 -0.24400
C 	C 	0.81120 0.05090 0.41800 -0.06700
H 	H 	0.76470 0.99740 0.44750 0.04800
H 	H 	0.81900 0.08690 0.52780 0.06100
H 	H 	0.85950 0.04590 0.40660 0.05100
O 	O 	0.51960 0.62890 0.51970 -0.40600
O 	O 	0.44160 0.41090 0.74900 -0.43700
C 	C 	0.55010 0.64020 0.35250 0.37200
H 	H 	0.42220 0.52980 0.95400 0.34200
C 	C 	0.57790 0.72430 0.25990 -0.12200
H 	H 	0.42840 0.65510 0.79510 -0.04100
C 	C 	0.62180 0.74590 0.08800 0.04200
H 	H 	0.41120 0.67230 0.12300 0.10400
H 	H 	0.63500 0.70760 0.02400 0.04600
O 	O 	0.71420 0.91710 0.74960 -0.24400
C 	C 	0.76030 0.94910 0.58200 -0.06600
H 	H 	0.76730 0.00260 0.55250 0.04800
H 	H 	0.73210 0.91310 0.47220 0.06000
H 	H 	0.81360 0.95410 0.59340 0.05100
O 	O 	0.10930 0.48040 0.51970 -0.40600
O 	O 	0.96930 0.55840 0.74900 -0.43600
C 	C 	0.09010 0.44990 0.35250 0.37200
H 	H 	0.10760 0.57780 0.95400 0.34100
C 	C 	0.14640 0.42210 0.25990 -0.12100
H 	H 	0.22670 0.57160 0.79510 -0.04000
C 	C 	0.12410 0.37820 0.08800 0.04200
H 	H 	0.26110 0.58880 0.12300 0.10300
H 	H 	0.07260 0.36500 0.02400 0.04600
O 	O 	0.20290 0.28580 0.74960 -0.24400
C 	C 	0.18880 0.23970 0.58200 -0.06500
H 	H 	0.23530 0.23270 0.55250 0.04800
H 	H 	0.18100 0.26790 0.47220 0.06000
H 	H 	0.14050 0.18640 0.59340 0.05000
O 	O 	0.37110 0.89070 0.51970 -0.40600
O 	O 	0.58910 0.03070 0.74900 -0.43600
C 	C 	0.35980 0.90990 0.35250 0.37200
H 	H 	0.47020 0.89240 0.95400 0.34100
C 	C 	0.27570 0.85360 0.25990 -0.12000
H 	H 	0.34490 0.77330 0.79510 -0.04000
C 	C 	0.25410 0.87590 0.08800 0.04000
H 	H 	0.32770 0.73890 0.12300 0.10300
H 	H 	0.29240 0.92740 0.02400 0.04700
O 	O 	0.08290 0.79710 0.74960 -0.24400
C 	C 	0.05090 0.81120 0.58200 -0.06700
H 	H 	0.99740 0.76470 0.55250 0.04800
H 	H 	0.08690 0.81900 0.47220 0.06100
H 	H 	0.04590 0.85950 0.59340 0.05100
Cu	Cu	0.47665 0.52335 0.65643 0.91400
N 	N 	0.43470 0.56530 0.90700 -0.73300
O 	O 	0.44010 0.55990 0.91350 -0.03000
C 	C 	0.39340 0.60660 0.87600 0.29400
C 	C 	0.36550 0.63450 0.05000 -0.24600
Cu	Cu	0.47665 0.95330 0.65643 0.91400
N 	N 	0.43470 0.86940 0.90700 -0.73100
O 	O 	0.44010 0.88020 0.91350 -0.03000
C 	C 	0.39340 0.78680 0.87600 0.29200
C 	C 	0.36550 0.73100 0.05000 -0.24300
Cu	Cu	0.04670 0.52335 0.65643 0.91400
N 	N 	0.13060 0.56530 0.90700 -0.73100
O 	O 	0.11980 0.55990 0.91350 -0.03000
C 	C 	0.21320 0.60660 0.87600 0.29200
C 	C 	0.26900 0.63450 0.05000 -0.24300
Cu	Cu	0.52335 0.47665 0.34357 0.91400
N 	N 	0.56530 0.43470 0.09300 -0.73300
O 	O 	0.55990 0.44010 0.08650 -0.03000
C 	C 	0.60660 0.39340 0.12400 0.29400
C 	C 	0.63450 0.36550 0.95000 -0.24600
Cu	Cu	0.95330 0.47665 0.34357 0.91400
N 	N 	0.86940 0.43470 0.09300 -0.73100
O 	O 	0.88020 0.44010 0.08650 -0.03000
C 	C 	0.78680 0.39340 0.12400 0.29200
C 	C 	0.73100 0.36550 0.95000 -0.24300
Cu	Cu	0.52335 0.04670 0.34357 0.91400
N 	N 	0.56530 0.13060 0.09300 -0.73100
O 	O 	0.55990 0.11980 0.08650 -0.03000
C 	C 	0.60660 0.21320 0.12400 0.29200
C 	C 	0.63450 0.26900 0.95000 -0.24300
C 	C 	0.22205 0.44410 0.34990 0.04600
C 	C 	0.17705 0.35410 0.00570 -0.09200
H 	H 	0.23685 0.47370 0.47240 0.04600
C 	C 	0.15230 0.30460 0.81940 0.30000
C 	C 	0.55590 0.77795 0.34990 0.04600
C 	C 	0.64590 0.82295 0.00570 -0.09200
H 	H 	0.52630 0.76315 0.47240 0.04600
C 	C 	0.69540 0.84770 0.81940 0.30000
C 	C 	0.22205 0.77795 0.34990 0.04500
C 	C 	0.17705 0.82295 0.00570 -0.08800
H 	H 	0.23685 0.76315 0.47240 0.04700
C 	C 	0.15230 0.84770 0.81940 0.29700
C 	C 	0.44410 0.22205 0.65010 0.04600
C 	C 	0.35410 0.17705 0.99430 -0.09200
H 	H 	0.47370 0.23685 0.52760 0.04600
C 	C 	0.30460 0.15230 0.18060 0.30000
C 	C 	0.77795 0.55590 0.65010 0.04600
C 	C 	0.82295 0.64590 0.99430 -0.09200
H 	H 	0.76315 0.52630 0.52760 0.04600
C 	C 	0.84770 0.69540 0.18060 0.30000
C 	C 	0.77795 0.22205 0.65010 0.04500
C 	C 	0.82295 0.17705 0.99430 -0.08800
H 	H 	0.76315 0.23685 0.52760 0.04700
C 	C 	0.84770 0.15230 0.18060 0.29700
