data_crystal

_cell_length_a 18.54200
_cell_length_b 18.54200
_cell_length_c 6.81140
_cell_angle_alpha 90.00000
_cell_angle_beta  90.00000
_cell_angle_gamma 120.00000

_symmetry_space_group_name_	'P 1'
_symmetry_space_group_name_H-M	'P 1'

loop_
_symmetry_equiv_pos_as_xyz
  x,y,z

loop_
_atom_site_label
_atom_site_type_symbol
_atom_site_fract_x
_atom_site_fract_y
_atom_site_fract_z
_atom_site_charge
O 	O 	0.44040 0.41040 0.24930 -0.40400
O 	O 	0.48160 0.37200 0.98280 -0.39900
O 	O 	0.29240 0.08600 0.77170 -0.24000
C 	C 	0.45020 0.35850 0.15180 0.36400
C 	C 	0.42390 0.27610 0.24380 -0.12100
C 	C 	0.38230 0.25540 0.42400 0.04500
C 	C 	0.24880 0.05630 0.95100 -0.04600
H 	H 	0.37810 0.29710 0.49820 0.05000
H 	H 	0.27900 0.09180 0.06100 0.05400
H 	H 	0.19510 0.05280 0.94860 0.04500
O 	O 	0.58960 0.03000 0.24930 -0.40700
O 	O 	0.62800 0.10960 0.98280 -0.39800
O 	O 	0.91400 0.20640 0.77170 -0.23700
C 	C 	0.64150 0.09170 0.15180 0.36400
C 	C 	0.72390 0.14780 0.24380 -0.12100
C 	C 	0.74460 0.12690 0.42400 0.04700
C 	C 	0.94370 0.19250 0.95100 -0.04500
H 	H 	0.70290 0.08100 0.49820 0.04900
H 	H 	0.90820 0.18720 0.06100 0.05500
H 	H 	0.94720 0.14230 0.94860 0.04900
O 	O 	0.97000 0.55960 0.24930 -0.40000
O 	O 	0.89040 0.51840 0.98280 -0.39600
O 	O 	0.79360 0.70760 0.77170 -0.22800
C 	C 	0.90830 0.54980 0.15180 0.36300
C 	C 	0.85220 0.57610 0.24380 -0.11800
C 	C 	0.87310 0.61770 0.42400 0.04500
C 	C 	0.80750 0.75120 0.95100 -0.08900
H 	H 	0.91900 0.62190 0.49820 0.05200
H 	H 	0.81280 0.72100 0.06100 0.06800
H 	H 	0.85770 0.80490 0.94860 0.06100
O 	O 	0.41040 0.44040 0.75070 -0.40600
O 	O 	0.37200 0.48160 0.01720 -0.41400
O 	O 	0.08600 0.29240 0.22830 -0.22700
C 	C 	0.35850 0.45020 0.84820 0.38400
C 	C 	0.27610 0.42390 0.75620 -0.12600
C 	C 	0.25540 0.38230 0.57600 0.04800
C 	C 	0.05630 0.24880 0.04900 -0.09900
H 	H 	0.29710 0.37810 0.50180 0.04900
H 	H 	0.09180 0.27900 0.93900 0.07700
H 	H 	0.05280 0.19510 0.05140 0.05600
O 	O 	0.03000 0.58960 0.75070 -0.41000
O 	O 	0.10960 0.62800 0.01720 -0.41400
O 	O 	0.20640 0.91400 0.22830 -0.23000
C 	C 	0.09170 0.64150 0.84820 0.38200
C 	C 	0.14780 0.72390 0.75620 -0.12600
C 	C 	0.12690 0.74460 0.57600 0.04900
C 	C 	0.19250 0.94370 0.04900 -0.07400
H 	H 	0.08100 0.70290 0.50180 0.04800
H 	H 	0.18720 0.90820 0.93900 0.07100
H 	H 	0.14230 0.94720 0.05140 0.05300
O 	O 	0.55960 0.97000 0.75070 -0.40200
O 	O 	0.51840 0.89040 0.01720 -0.41100
O 	O 	0.70760 0.79360 0.22830 -0.22000
C 	C 	0.54980 0.90830 0.84820 0.38200
C 	C 	0.57610 0.85220 0.75620 -0.12400
C 	C 	0.61770 0.87310 0.57600 0.04800
C 	C 	0.75120 0.80750 0.04900 -0.13000
H 	H 	0.62190 0.91900 0.50180 0.05100
H 	H 	0.72100 0.81280 0.93900 0.08700
H 	H 	0.80490 0.85770 0.05140 0.06900
O 	O 	0.55960 0.58960 0.75070 -0.40600
O 	O 	0.51840 0.62800 0.01720 -0.41400
O 	O 	0.70760 0.91400 0.22830 -0.22800
C 	C 	0.54980 0.64150 0.84820 0.38300
C 	C 	0.57610 0.72390 0.75620 -0.12500
C 	C 	0.61770 0.74460 0.57600 0.04800
C 	C 	0.75120 0.94370 0.04900 -0.07600
H 	H 	0.62190 0.70290 0.50180 0.04900
H 	H 	0.72100 0.90820 0.93900 0.07200
H 	H 	0.80490 0.94720 0.05140 0.05400
O 	O 	0.41040 0.97000 0.75070 -0.40200
O 	O 	0.37200 0.89040 0.01720 -0.41100
O 	O 	0.08600 0.79360 0.22830 -0.22700
C 	C 	0.35850 0.90830 0.84820 0.38100
C 	C 	0.27610 0.85220 0.75620 -0.12500
C 	C 	0.25540 0.87310 0.57600 0.04900
C 	C 	0.05630 0.80750 0.04900 -0.10400
H 	H 	0.29710 0.91900 0.50180 0.05100
H 	H 	0.09180 0.81280 0.93900 0.07800
H 	H 	0.05280 0.85770 0.05140 0.06000
O 	O 	0.03000 0.44040 0.75070 -0.41000
O 	O 	0.10960 0.48160 0.01720 -0.41400
O 	O 	0.20640 0.29240 0.22830 -0.22200
C 	C 	0.09170 0.45020 0.84820 0.38300
C 	C 	0.14780 0.42390 0.75620 -0.12700
C 	C 	0.12690 0.38230 0.57600 0.04800
C 	C 	0.19250 0.24880 0.04900 -0.12300
H 	H 	0.08100 0.37810 0.50180 0.04800
H 	H 	0.18720 0.27900 0.93900 0.08500
H 	H 	0.14230 0.19510 0.05140 0.06400
O 	O 	0.58960 0.55960 0.24930 -0.40300
O 	O 	0.62800 0.51840 0.98280 -0.39800
O 	O 	0.91400 0.70760 0.77170 -0.23200
C 	C 	0.64150 0.54980 0.15180 0.36400
C 	C 	0.72390 0.57610 0.24380 -0.11900
C 	C 	0.74460 0.61770 0.42400 0.04500
C 	C 	0.94370 0.75120 0.95100 -0.05900
H 	H 	0.70290 0.62190 0.49820 0.05100
H 	H 	0.90820 0.72100 0.06100 0.05900
H 	H 	0.94720 0.80490 0.94860 0.05300
O 	O 	0.97000 0.41040 0.24930 -0.40000
O 	O 	0.89040 0.37200 0.98280 -0.39600
O 	O 	0.79360 0.08600 0.77170 -0.24000
C 	C 	0.90830 0.35850 0.15180 0.36300
C 	C 	0.85220 0.27610 0.24380 -0.11900
C 	C 	0.87310 0.25540 0.42400 0.04700
C 	C 	0.80750 0.05630 0.95100 -0.04100
H 	H 	0.91900 0.29710 0.49820 0.05200
H 	H 	0.81280 0.09180 0.06100 0.05200
H 	H 	0.85770 0.05280 0.94860 0.04600
O 	O 	0.44040 0.03000 0.24930 -0.40700
O 	O 	0.48160 0.10960 0.98280 -0.39900
O 	O 	0.29240 0.20640 0.77170 -0.23100
C 	C 	0.45020 0.09170 0.15180 0.36400
C 	C 	0.42390 0.14780 0.24380 -0.12100
C 	C 	0.38230 0.12690 0.42400 0.04700
C 	C 	0.24880 0.19250 0.95100 -0.08000
H 	H 	0.37810 0.08100 0.49820 0.04900
H 	H 	0.27900 0.18720 0.06100 0.06500
H 	H 	0.19510 0.14230 0.94860 0.05700
Cu	Cu	0.47635 0.52365 0.15600 0.90900
Cu	Cu	0.47635 0.95270 0.15600 0.91300
Cu	Cu	0.04730 0.52365 0.15600 0.90700
Cu	Cu	0.52365 0.47635 0.84400 0.91100
Cu	Cu	0.95270 0.47635 0.84400 0.91400
Cu	Cu	0.52365 0.04730 0.84400 0.90900
C 	C 	0.35820 0.17910 0.51000 -0.09700
C 	C 	0.44200 0.22100 0.15300 0.06000
C 	C 	0.31300 0.15650 0.69800 0.29000
H 	H 	0.46980 0.23490 0.03280 0.04100
C 	C 	0.82090 0.17910 0.51000 -0.09800
C 	C 	0.77900 0.22100 0.15300 0.06000
C 	C 	0.84350 0.15650 0.69800 0.29400
H 	H 	0.76510 0.23490 0.03280 0.04100
C 	C 	0.82090 0.64180 0.51000 -0.09400
C 	C 	0.77900 0.55800 0.15300 0.05800
C 	C 	0.84350 0.68700 0.69800 0.28700
H 	H 	0.76510 0.53020 0.03280 0.04200
C 	C 	0.17910 0.35820 0.49000 -0.09700
C 	C 	0.22100 0.44200 0.84700 0.06600
C 	C 	0.15650 0.31300 0.30200 0.28000
H 	H 	0.23490 0.46980 0.96720 0.04500
C 	C 	0.17910 0.82090 0.49000 -0.09700
C 	C 	0.22100 0.77900 0.84700 0.06600
C 	C 	0.15650 0.84350 0.30200 0.28400
H 	H 	0.23490 0.76510 0.96720 0.04500
C 	C 	0.64180 0.82090 0.49000 -0.09500
C 	C 	0.55800 0.77900 0.84700 0.06500
C 	C 	0.68700 0.84350 0.30200 0.28100
H 	H 	0.53020 0.76510 0.96720 0.04500
H 	H 	0.23820 0.00000 -0.00000 0.07800
H 	H 	-0.00000 0.23820 -0.00000 0.08700
H 	H 	0.76180 0.76180 -0.00000 0.11200
H 	H 	0.76180 0.00000 -0.00000 0.07700
H 	H 	0.00000 0.76180 -0.00000 0.09300
H 	H 	0.23820 0.23820 -0.00000 0.10700
