data_crystal

_cell_length_a 18.25910
_cell_length_b 18.25910
_cell_length_c 6.62740
_cell_angle_alpha 90.00000
_cell_angle_beta  90.00000
_cell_angle_gamma 120.00000

_symmetry_space_group_name_	'P 1'
_symmetry_space_group_name_H-M	'P 1'

loop_
_symmetry_equiv_pos_as_xyz
  x,y,z

loop_
_atom_site_label
_atom_site_type_symbol
_atom_site_fract_x
_atom_site_fract_y
_atom_site_fract_z
_atom_site_charge
O 	O 	0.43840 0.41210 0.25720 -0.41000
O 	O 	0.48120 0.37150 0.98900 -0.38700
O 	O 	0.29500 0.08570 0.80900 -0.21000
C 	C 	0.44780 0.35900 0.16200 0.35400
C 	C 	0.42200 0.27630 0.26100 -0.11900
C 	C 	0.38110 0.25620 0.44600 0.02900
C 	C 	0.25190 0.05780 0.99700 -0.13900
H 	H 	0.36800 0.29580 0.51120 0.05200
H 	H 	0.28120 0.09410 0.10490 0.07300
H 	H 	0.19560 0.05230 0.99060 0.06100
O 	O 	0.58790 0.02630 0.25720 -0.41900
O 	O 	0.62850 0.10970 0.98900 -0.38900
O 	O 	0.91430 0.20930 0.80900 -0.20100
C 	C 	0.64100 0.08880 0.16200 0.35500
C 	C 	0.72370 0.14570 0.26100 -0.12000
C 	C 	0.74380 0.12490 0.44600 0.03800
C 	C 	0.94220 0.19410 0.99700 -0.19400
H 	H 	0.70420 0.07220 0.51120 0.04800
H 	H 	0.90590 0.18710 0.10490 0.09800
H 	H 	0.94770 0.14330 0.99060 0.09200
O 	O 	0.97370 0.56160 0.25720 -0.39800
O 	O 	0.89030 0.51880 0.98900 -0.38300
O 	O 	0.79070 0.70500 0.80900 -0.13500
C 	C 	0.91120 0.55220 0.16200 0.35100
C 	C 	0.85430 0.57800 0.26100 -0.10900
C 	C 	0.87510 0.61890 0.44600 0.02300
C 	C 	0.80590 0.74810 0.99700 -0.54100
H 	H 	0.92780 0.63200 0.51120 0.06100
H 	H 	0.81290 0.71880 0.10490 0.20900
H 	H 	0.85670 0.80440 0.99060 0.18500
O 	O 	0.41210 0.43840 0.74280 -0.41700
O 	O 	0.37150 0.48120 0.01100 -0.43000
O 	O 	0.08570 0.29500 0.19100 -0.16800
C 	C 	0.35900 0.44780 0.83800 0.40500
C 	C 	0.27630 0.42200 0.73900 -0.13400
C 	C 	0.25620 0.38110 0.55400 0.03200
C 	C 	0.05780 0.25190 0.00300 -0.36200
H 	H 	0.29580 0.36800 0.48880 0.04900
H 	H 	0.09410 0.28120 0.89510 0.16500
H 	H 	0.05230 0.19560 0.00940 0.10800
O 	O 	0.02630 0.58790 0.74280 -0.42700
O 	O 	0.10970 0.62850 0.01100 -0.43100
O 	O 	0.20930 0.91430 0.19100 -0.18600
C 	C 	0.08880 0.64100 0.83800 0.40500
C 	C 	0.14570 0.72370 0.73900 -0.13600
C 	C 	0.12490 0.74380 0.55400 0.04000
C 	C 	0.19410 0.94220 0.00300 -0.25000
H 	H 	0.07220 0.70420 0.48880 0.04500
H 	H 	0.18710 0.90590 0.89510 0.13400
H 	H 	0.14330 0.94770 0.00940 0.09100
O 	O 	0.56160 0.97370 0.74280 -0.40600
O 	O 	0.51880 0.89030 0.01100 -0.42400
O 	O 	0.70500 0.79070 0.19100 -0.11200
C 	C 	0.55220 0.91120 0.83800 0.40200
C 	C 	0.57800 0.85430 0.73900 -0.12500
C 	C 	0.61890 0.87510 0.55400 0.03100
C 	C 	0.74810 0.80590 0.00300 -0.68500
H 	H 	0.63200 0.92780 0.48880 0.05800
H 	H 	0.71880 0.81290 0.89510 0.27700
H 	H 	0.80440 0.85670 0.00940 0.21200
O 	O 	0.56160 0.58790 0.74280 -0.41700
O 	O 	0.51880 0.62850 0.01100 -0.43000
O 	O 	0.70500 0.91430 0.19100 -0.17500
C 	C 	0.55220 0.64100 0.83800 0.40400
C 	C 	0.57800 0.72370 0.73900 -0.13200
C 	C 	0.61890 0.74380 0.55400 0.02900
C 	C 	0.74810 0.94220 0.00300 -0.26200
H 	H 	0.63200 0.70420 0.48880 0.05000
H 	H 	0.71880 0.90590 0.89510 0.13600
H 	H 	0.80440 0.94770 0.00940 0.09200
O 	O 	0.41210 0.97370 0.74280 -0.40600
O 	O 	0.37150 0.89030 0.01100 -0.42400
O 	O 	0.08570 0.79070 0.19100 -0.16700
C 	C 	0.35900 0.91120 0.83800 0.40300
C 	C 	0.27630 0.85430 0.73900 -0.13000
C 	C 	0.25620 0.87510 0.55400 0.04000
C 	C 	0.05780 0.80590 0.00300 -0.41500
H 	H 	0.29580 0.92780 0.48880 0.05500
H 	H 	0.09410 0.81290 0.89510 0.18600
H 	H 	0.05230 0.85670 0.00940 0.13200
O 	O 	0.02630 0.43840 0.74280 -0.42700
O 	O 	0.10970 0.48120 0.01100 -0.43100
O 	O 	0.20930 0.29500 0.19100 -0.12200
C 	C 	0.08880 0.44780 0.83800 0.40600
C 	C 	0.14570 0.42200 0.73900 -0.13300
C 	C 	0.12490 0.38110 0.55400 0.03500
C 	C 	0.19410 0.25190 0.00300 -0.62900
H 	H 	0.07220 0.36800 0.48880 0.04700
H 	H 	0.18710 0.28120 0.89510 0.25700
H 	H 	0.14330 0.19560 0.00940 0.19000
O 	O 	0.58790 0.56160 0.25720 -0.40800
O 	O 	0.62850 0.51880 0.98900 -0.38700
O 	O 	0.91430 0.70500 0.80900 -0.17800
C 	C 	0.64100 0.55220 0.16200 0.35200
C 	C 	0.72370 0.57800 0.26100 -0.11400
C 	C 	0.74380 0.61890 0.44600 0.02100
C 	C 	0.94220 0.74810 0.99700 -0.24800
H 	H 	0.70420 0.63200 0.51120 0.05400
H 	H 	0.90590 0.71880 0.10490 0.11200
H 	H 	0.94770 0.80440 0.99060 0.10300
O 	O 	0.97370 0.41210 0.25720 -0.39800
O 	O 	0.89030 0.37150 0.98900 -0.38300
O 	O 	0.79070 0.08570 0.80900 -0.21600
C 	C 	0.91120 0.35900 0.16200 0.35300
C 	C 	0.85430 0.27630 0.26100 -0.11600
C 	C 	0.87510 0.25620 0.44600 0.03600
C 	C 	0.80590 0.05780 0.99700 -0.14700
H 	H 	0.92780 0.29580 0.51120 0.05700
H 	H 	0.81290 0.09410 0.10490 0.07900
H 	H 	0.85670 0.05230 0.99060 0.07100
O 	O 	0.43840 0.02630 0.25720 -0.41800
O 	O 	0.48120 0.10970 0.98900 -0.38900
O 	O 	0.29500 0.20930 0.80900 -0.15100
C 	C 	0.44780 0.08880 0.16200 0.35500
C 	C 	0.42200 0.14570 0.26100 -0.11800
C 	C 	0.38110 0.12490 0.44600 0.03300
C 	C 	0.25190 0.19410 0.99700 -0.48600
H 	H 	0.36800 0.07220 0.51120 0.05000
H 	H 	0.28120 0.18710 0.10490 0.19100
H 	H 	0.19560 0.14330 0.99060 0.16600
Cu	Cu	0.47513 0.52487 0.15650 0.91600
Cu	Cu	0.47513 0.95026 0.15650 0.92400
Cu	Cu	0.04974 0.52487 0.15650 0.91000
Cu	Cu	0.52487 0.47513 0.84350 0.92000
Cu	Cu	0.95026 0.47513 0.84350 0.92800
Cu	Cu	0.52487 0.04974 0.84350 0.91400
C 	C 	0.35840 0.17920 0.53600 -0.08200
C 	C 	0.44040 0.22020 0.16900 0.05100
C 	C 	0.31480 0.15740 0.73000 0.23700
H 	H 	0.46920 0.23460 0.04470 0.04100
C 	C 	0.82080 0.17920 0.53600 -0.08800
C 	C 	0.77980 0.22020 0.16900 0.05300
C 	C 	0.84260 0.15740 0.73000 0.26200
H 	H 	0.76540 0.23460 0.04470 0.03900
C 	C 	0.82080 0.64160 0.53600 -0.06900
C 	C 	0.77980 0.55960 0.16900 0.04300
C 	C 	0.84260 0.68520 0.73000 0.22100
H 	H 	0.76540 0.53080 0.04470 0.04300
C 	C 	0.17920 0.35840 0.46400 -0.07800
C 	C 	0.22020 0.44040 0.83100 0.06600
C 	C 	0.15740 0.31480 0.27000 0.20300
H 	H 	0.23460 0.46920 0.95530 0.05300
C 	C 	0.17920 0.82080 0.46400 -0.08600
C 	C 	0.22020 0.77980 0.83100 0.06900
C 	C 	0.15740 0.84260 0.27000 0.23100
H 	H 	0.23460 0.76540 0.95530 0.05100
C 	C 	0.64160 0.82080 0.46400 -0.07300
C 	C 	0.55960 0.77980 0.83100 0.06200
C 	C 	0.68520 0.84260 0.27000 0.20500
H 	H 	0.53080 0.76540 0.95530 0.05400
H 	H 	0.24080 0.00000 -0.00000 0.17100
H 	H 	0.00000 0.24080 -0.00000 0.22700
H 	H 	0.75920 0.75920 -0.00000 0.45200
H 	H 	0.75920 0.00000 -0.00000 0.17700
H 	H 	-0.00000 0.75920 -0.00000 0.26300
H 	H 	0.24080 0.24080 -0.00000 0.41600
