data_crystal

_cell_length_a 17.99100
_cell_length_b 17.99100
_cell_length_c 6.53710
_cell_angle_alpha 90.00000
_cell_angle_beta  90.00000
_cell_angle_gamma 120.00000

_symmetry_space_group_name_	'P 1'
_symmetry_space_group_name_H-M	'P 1'

loop_
_symmetry_equiv_pos_as_xyz
  x,y,z

loop_
_atom_site_label
_atom_site_type_symbol
_atom_site_fract_x
_atom_site_fract_y
_atom_site_fract_z
_atom_site_charge
O 	O 	0.43420 0.41050 0.26200 -0.42000
O 	O 	0.52070 0.63100 0.00200 -0.41800
C 	C 	0.44620 0.35750 0.17200 0.40300
C 	C 	0.41980 0.27540 0.27300 -0.15800
C 	C 	0.38040 0.25660 0.46600 0.02000
H 	H 	0.36990 0.29800 0.53400 0.05000
O 	O 	0.29340 0.08570 0.83800 -0.10400
C 	C 	0.25180 0.05740 0.03800 -1.12800
H 	H 	0.24200 0.00140 0.06540 0.46400
H 	H 	0.28790 0.09600 0.13920 0.39200
H 	H 	0.19880 0.05660 0.03430 0.34200
O 	O 	0.58950 0.02370 0.26200 -0.42100
O 	O 	0.36900 0.88970 0.00200 -0.41800
C 	C 	0.64250 0.08870 0.17200 0.40100
C 	C 	0.72460 0.14440 0.27300 -0.15800
C 	C 	0.74340 0.12380 0.46600 0.01800
H 	H 	0.70200 0.07190 0.53400 0.04900
O 	O 	0.91430 0.20770 0.83800 -0.10400
C 	C 	0.94260 0.19440 0.03800 -1.13100
H 	H 	0.99860 0.24060 0.06540 0.46500
H 	H 	0.90400 0.19190 0.13920 0.39200
H 	H 	0.94340 0.14220 0.03430 0.34200
O 	O 	0.97630 0.56580 0.26200 -0.42100
O 	O 	0.11030 0.47930 0.00200 -0.41800
C 	C 	0.91130 0.55380 0.17200 0.40200
C 	C 	0.85560 0.58020 0.27300 -0.15900
C 	C 	0.87620 0.61960 0.46600 0.01900
H 	H 	0.92810 0.63010 0.53400 0.04900
O 	O 	0.79230 0.70660 0.83800 -0.10600
C 	C 	0.80560 0.74820 0.03800 -1.12200
H 	H 	0.75940 0.75800 0.06540 0.46100
H 	H 	0.80810 0.71210 0.13920 0.38900
H 	H 	0.85780 0.80120 0.03430 0.33900
O 	O 	0.41050 0.43420 0.73800 -0.42100
O 	O 	0.63100 0.52070 0.99800 -0.41900
C 	C 	0.35750 0.44620 0.82800 0.40200
C 	C 	0.27540 0.41980 0.72700 -0.15900
C 	C 	0.25660 0.38040 0.53400 0.01900
H 	H 	0.29800 0.36990 0.46600 0.04900
O 	O 	0.08570 0.29340 0.16200 -0.10500
C 	C 	0.05740 0.25180 0.96200 -1.12900
H 	H 	0.00140 0.24200 0.93460 0.46400
H 	H 	0.09600 0.28790 0.86080 0.39200
H 	H 	0.05660 0.19880 0.96570 0.34200
O 	O 	0.02370 0.58950 0.73800 -0.42100
O 	O 	0.88970 0.36900 0.99800 -0.41800
C 	C 	0.08870 0.64250 0.82800 0.40100
C 	C 	0.14440 0.72460 0.72700 -0.15800
C 	C 	0.12380 0.74340 0.53400 0.01800
H 	H 	0.07190 0.70200 0.46600 0.04900
O 	O 	0.20770 0.91430 0.16200 -0.10400
C 	C 	0.19440 0.94260 0.96200 -1.13100
H 	H 	0.24060 0.99860 0.93460 0.46500
H 	H 	0.19190 0.90400 0.86080 0.39200
H 	H 	0.14220 0.94340 0.96570 0.34200
O 	O 	0.56580 0.97630 0.73800 -0.42100
O 	O 	0.47930 0.11030 0.99800 -0.41800
C 	C 	0.55380 0.91130 0.82800 0.40200
C 	C 	0.58020 0.85560 0.72700 -0.15900
C 	C 	0.61960 0.87620 0.53400 0.01900
H 	H 	0.63010 0.92810 0.46600 0.04900
O 	O 	0.70660 0.79230 0.16200 -0.10600
C 	C 	0.74820 0.80560 0.96200 -1.12200
H 	H 	0.75800 0.75940 0.93460 0.46100
H 	H 	0.71210 0.80810 0.86080 0.38900
H 	H 	0.80120 0.85780 0.96570 0.33900
O 	O 	0.56580 0.58950 0.73800 -0.42100
O 	O 	0.47930 0.36900 0.99800 -0.41900
C 	C 	0.55380 0.64250 0.82800 0.40200
C 	C 	0.58020 0.72460 0.72700 -0.15900
C 	C 	0.61960 0.74340 0.53400 0.01900
H 	H 	0.63010 0.70200 0.46600 0.04900
O 	O 	0.70660 0.91430 0.16200 -0.10500
C 	C 	0.74820 0.94260 0.96200 -1.12900
H 	H 	0.75800 0.99860 0.93460 0.46400
H 	H 	0.71210 0.90400 0.86080 0.39200
H 	H 	0.80120 0.94340 0.96570 0.34200
O 	O 	0.41050 0.97630 0.73800 -0.42100
O 	O 	0.63100 0.11030 0.99800 -0.41800
C 	C 	0.35750 0.91130 0.82800 0.40100
C 	C 	0.27540 0.85560 0.72700 -0.15800
C 	C 	0.25660 0.87620 0.53400 0.01800
H 	H 	0.29800 0.92810 0.46600 0.04900
O 	O 	0.08570 0.79230 0.16200 -0.10400
C 	C 	0.05740 0.80560 0.96200 -1.13100
H 	H 	0.00140 0.75940 0.93460 0.46500
H 	H 	0.09600 0.80810 0.86080 0.39200
H 	H 	0.05660 0.85780 0.96570 0.34200
O 	O 	0.02370 0.43420 0.73800 -0.42100
O 	O 	0.88970 0.52070 0.99800 -0.41800
C 	C 	0.08870 0.44620 0.82800 0.40200
C 	C 	0.14440 0.41980 0.72700 -0.15900
C 	C 	0.12380 0.38040 0.53400 0.01900
H 	H 	0.07190 0.36990 0.46600 0.04900
O 	O 	0.20770 0.29340 0.16200 -0.10600
C 	C 	0.19440 0.25180 0.96200 -1.12200
H 	H 	0.24060 0.24200 0.93460 0.46100
H 	H 	0.19190 0.28790 0.86080 0.38900
H 	H 	0.14220 0.19880 0.96570 0.33900
O 	O 	0.58950 0.56580 0.26200 -0.42100
O 	O 	0.36900 0.47930 0.00200 -0.41900
C 	C 	0.64250 0.55380 0.17200 0.40200
C 	C 	0.72460 0.58020 0.27300 -0.15900
C 	C 	0.74340 0.61960 0.46600 0.01900
H 	H 	0.70200 0.63010 0.53400 0.04900
O 	O 	0.91430 0.70660 0.83800 -0.10500
C 	C 	0.94260 0.74820 0.03800 -1.12900
H 	H 	0.99860 0.75800 0.06540 0.46400
H 	H 	0.90400 0.71210 0.13920 0.39200
H 	H 	0.94340 0.80120 0.03430 0.34200
O 	O 	0.97630 0.41050 0.26200 -0.42100
O 	O 	0.11030 0.63100 0.00200 -0.41800
C 	C 	0.91130 0.35750 0.17200 0.40100
C 	C 	0.85560 0.27540 0.27300 -0.15800
C 	C 	0.87620 0.25660 0.46600 0.01800
H 	H 	0.92810 0.29800 0.53400 0.04900
O 	O 	0.79230 0.08570 0.83800 -0.10400
C 	C 	0.80560 0.05740 0.03800 -1.13100
H 	H 	0.75940 0.00140 0.06540 0.46500
H 	H 	0.80810 0.09600 0.13920 0.39200
H 	H 	0.85780 0.05660 0.03430 0.34200
O 	O 	0.43420 0.02370 0.26200 -0.42100
O 	O 	0.52070 0.88970 0.00200 -0.41800
C 	C 	0.44620 0.08870 0.17200 0.40200
C 	C 	0.41980 0.14440 0.27300 -0.15900
C 	C 	0.38040 0.12380 0.46600 0.01900
H 	H 	0.36990 0.07190 0.53400 0.04900
O 	O 	0.29340 0.20770 0.83800 -0.10600
C 	C 	0.25180 0.19440 0.03800 -1.12200
H 	H 	0.24200 0.24060 0.06540 0.46100
H 	H 	0.28790 0.19190 0.13920 0.38900
H 	H 	0.19880 0.14220 0.03430 0.33900
Cu	Cu	0.47388 0.52612 0.15520 0.91500
Cu	Cu	0.47388 0.94776 0.15520 0.91600
Cu	Cu	0.05224 0.52612 0.15520 0.91600
Cu	Cu	0.52612 0.47388 0.84480 0.91500
Cu	Cu	0.94776 0.47388 0.84480 0.91600
Cu	Cu	0.52612 0.05224 0.84480 0.91600
C 	C 	0.43410 0.21705 0.18000 0.06800
C 	C 	0.35660 0.17830 0.55600 -0.07500
H 	H 	0.45610 0.22805 0.04440 0.04700
C 	C 	0.31410 0.15705 0.76200 0.17500
C 	C 	0.78295 0.21705 0.18000 0.06700
C 	C 	0.82170 0.17830 0.55600 -0.07400
H 	H 	0.77195 0.22805 0.04440 0.04700
C 	C 	0.84295 0.15705 0.76200 0.17300
C 	C 	0.78295 0.56590 0.18000 0.06800
C 	C 	0.82170 0.64340 0.55600 -0.07500
H 	H 	0.77195 0.54390 0.04440 0.04700
C 	C 	0.84295 0.68590 0.76200 0.17500
C 	C 	0.21705 0.43410 0.82000 0.06800
C 	C 	0.17830 0.35660 0.44400 -0.07500
H 	H 	0.22805 0.45610 0.95560 0.04700
C 	C 	0.15705 0.31410 0.23800 0.17500
C 	C 	0.21705 0.78295 0.82000 0.06700
C 	C 	0.17830 0.82170 0.44400 -0.07400
H 	H 	0.22805 0.77195 0.95560 0.04700
C 	C 	0.15705 0.84295 0.23800 0.17300
C 	C 	0.56590 0.78295 0.82000 0.06800
C 	C 	0.64340 0.82170 0.44400 -0.07500
H 	H 	0.54390 0.77195 0.95560 0.04700
C 	C 	0.68590 0.84295 0.23800 0.17500
