data_crystal

_cell_length_a 13.31800
_cell_length_b 13.31800
_cell_length_c 13.27800
_cell_angle_alpha 90.00000
_cell_angle_beta  90.00000
_cell_angle_gamma 120.00000

_symmetry_space_group_name_	'P 1'
_symmetry_space_group_name_H-M	'P 1'

loop_
_symmetry_equiv_pos_as_xyz
  x,y,z

loop_
_atom_site_label
_atom_site_type_symbol
_atom_site_fract_x
_atom_site_fract_y
_atom_site_fract_z
_atom_site_charge
N 	N 	0.25590 0.33390 0.73380 -0.12400
N 	N 	0.12770 0.15900 0.78150 -0.24100
N 	N 	0.69620 0.60430 0.60420 -0.11700
N 	N 	0.70460 0.49460 0.48440 -0.23200
N 	N 	0.00110 0.58960 0.23330 -0.14300
N 	N 	0.82420 0.46090 0.28170 -0.23300
N 	N 	0.27090 0.02940 0.10460 -0.09900
N 	N 	0.15980 0.03630 0.98360 -0.23000
C 	C 	0.34080 0.45820 0.73920 -0.03700
H 	H 	0.33870 0.48750 0.80720 0.03600
H 	H 	0.31980 0.50050 0.68980 0.03600
C 	C 	0.46160 0.48150 0.71740 -0.10100
H 	H 	0.46250 0.44750 0.65130 0.06100
H 	H 	0.48470 0.44380 0.76950 0.05800
C 	C 	0.54870 0.61190 0.71590 -0.09600
H 	H 	0.52890 0.64830 0.66020 0.05600
H 	H 	0.54280 0.64680 0.77990 0.05100
C 	C 	0.67150 0.63740 0.70260 -0.04000
H 	H 	0.72460 0.72150 0.71260 0.04200
H 	H 	0.68880 0.59600 0.75570 0.04000
C 	C 	0.19260 0.26640 0.81030 0.08300
H 	H 	0.19460 0.29330 0.87690 -0.01800
C 	C 	0.15420 0.15710 0.68190 -0.00100
H 	H 	0.12180 0.09000 0.64040 -0.00100
C 	C 	0.23250 0.26390 0.65200 -0.00800
H 	H 	0.26520 0.28660 0.58660 0.02800
C 	C 	0.67290 0.49620 0.57860 0.08000
H 	H 	0.63870 0.43090 0.62210 -0.01300
C 	C 	0.74750 0.60520 0.44970 0.00000
H 	H 	0.77720 0.63090 0.38390 0.01400
C 	C 	0.74150 0.67240 0.52230 -0.00300
H 	H 	0.76460 0.75220 0.51690 0.03200
C 	C 	0.12510 0.67310 0.23900 -0.01500
H 	H 	0.16710 0.65200 0.18960 0.02800
H 	H 	0.15420 0.67070 0.30710 0.02800
C 	C 	0.14840 0.79540 0.21710 -0.14700
H 	H 	0.11100 0.81850 0.26940 0.07500
H 	H 	0.11410 0.79630 0.15120 0.07800
C 	C 	0.27910 0.88270 0.21520 -0.00700
H 	H 	0.31450 0.87590 0.27860 0.03500
H 	H 	0.31510 0.86340 0.15880 0.04100
C 	C 	0.30430 0.00520 0.20350 -0.12300
H 	H 	0.26240 0.02160 0.25670 0.04900
H 	H 	0.38830 0.05840 0.21380 0.05800
C 	C 	0.93330 0.52590 0.31060 0.09800
H 	H 	0.96030 0.52760 0.37710 -0.01300
C 	C 	0.82390 0.48730 0.18210 -0.00500
H 	H 	0.75710 0.45470 0.14010 0.01500
C 	C 	0.93120 0.56570 0.15210 0.01800
H 	H 	0.95380 0.59820 0.08660 0.02700
C 	C 	0.16300 0.00620 0.07860 -0.00800
H 	H 	0.09800 0.97280 0.12260 0.04400
C 	C 	0.27190 0.08110 0.94980 -0.00300
H 	H 	0.29790 0.11140 0.88420 0.00900
C 	C 	0.33970 0.07610 0.02260 -0.01700
H 	H 	0.41980 0.10030 0.01750 0.02700
N 	N 	0.66610 0.92200 0.73380 -0.09800
N 	N 	0.84100 0.96870 0.78150 -0.23100
N 	N 	0.39570 0.09190 0.60420 -0.12100
N 	N 	0.50540 0.21000 0.48440 -0.23200
N 	N 	0.41040 0.41150 0.23330 -0.11900
N 	N 	0.53910 0.36330 0.28170 -0.23200
N 	N 	0.97060 0.24150 0.10460 -0.12600
N 	N 	0.96370 0.12350 0.98360 -0.23900
C 	C 	0.54180 0.88260 0.73920 -0.12500
H 	H 	0.51250 0.85120 0.80720 0.06500
H 	H 	0.49950 0.81930 0.68980 0.06300
C 	C 	0.51850 0.98010 0.71740 0.10900
H 	H 	0.55250 0.01500 0.65130 -0.02800
H 	H 	0.55620 0.04090 0.76950 -0.02900
C 	C 	0.38810 0.93680 0.71590 -0.13800
H 	H 	0.35170 0.88060 0.66020 0.07800
H 	H 	0.35320 0.89600 0.77990 0.07200
C 	C 	0.36260 0.03410 0.70260 -0.04700
H 	H 	0.27850 0.00310 0.71260 0.02800
H 	H 	0.40400 0.09280 0.75570 0.03500
C 	C 	0.73360 0.92620 0.81030 0.08800
H 	H 	0.70670 0.90130 0.87690 -0.00600
C 	C 	0.84290 0.99710 0.68190 0.09800
H 	H 	0.91000 0.03180 0.64040 -0.04300
C 	C 	0.73610 0.96860 0.65200 -0.04600
H 	H 	0.71340 0.97860 0.58660 0.06000
C 	C 	0.50380 0.17670 0.57860 0.07800
H 	H 	0.56910 0.20780 0.62210 -0.01300
C 	C 	0.39480 0.14230 0.44970 -0.00700
H 	H 	0.36910 0.14630 0.38390 0.00900
C 	C 	0.32760 0.06910 0.52230 -0.00700
H 	H 	0.24780 0.01240 0.51690 0.01400
C 	C 	0.32690 0.45200 0.23900 -0.04900
H 	H 	0.34800 0.51510 0.18960 0.04000
H 	H 	0.32930 0.48350 0.30710 0.03800
C 	C 	0.20460 0.35300 0.21710 -0.07900
H 	H 	0.18150 0.29250 0.26940 0.04500
H 	H 	0.20370 0.31780 0.15120 0.05200
C 	C 	0.11730 0.39640 0.21520 -0.13700
H 	H 	0.12410 0.43860 0.27860 0.05700
H 	H 	0.13660 0.45170 0.15880 0.06400
C 	C 	0.99480 0.29910 0.20350 -0.00100
H 	H 	0.97840 0.24080 0.25670 0.02900
H 	H 	0.94160 0.32990 0.21380 0.03100
C 	C 	0.47410 0.40740 0.31060 0.07700
H 	H 	0.47240 0.43270 0.37710 -0.01300
C 	C 	0.51270 0.33660 0.18210 0.00300
H 	H 	0.54530 0.30240 0.14010 0.01100
C 	C 	0.43430 0.36550 0.15210 -0.00600
H 	H 	0.40180 0.35560 0.08660 0.02900
C 	C 	0.99380 0.15680 0.07860 0.11000
H 	H 	0.02720 0.12520 0.12260 -0.04600
C 	C 	0.91890 0.19080 0.94980 0.00500
H 	H 	0.88860 0.18650 0.88420 0.00700
C 	C 	0.92390 0.26360 0.02260 -0.01100
H 	H 	0.89970 0.31950 0.01750 0.03000
N 	N 	0.07800 0.74410 0.73380 -0.13200
N 	N 	0.03130 0.87230 0.78150 -0.21800
N 	N 	0.90810 0.30380 0.60420 -0.11800
N 	N 	0.79000 0.29540 0.48440 -0.23200
N 	N 	0.58850 0.99890 0.23330 -0.07500
N 	N 	0.63670 0.17580 0.28170 -0.22900
N 	N 	0.75850 0.72910 0.10460 -0.11400
N 	N 	0.87650 0.84020 0.98360 -0.21800
C 	C 	0.11740 0.65920 0.73920 0.00500
H 	H 	0.14880 0.66130 0.80720 0.02300
H 	H 	0.18070 0.68020 0.68980 0.02500
C 	C 	0.01990 0.53840 0.71740 -0.20000
H 	H 	0.98500 0.53750 0.65130 0.10400
H 	H 	0.95910 0.51530 0.76950 0.09900
C 	C 	0.06320 0.45130 0.71590 -0.07600
H 	H 	0.11940 0.47110 0.66020 0.04700
H 	H 	0.10400 0.45720 0.77990 0.04000
C 	C 	0.96590 0.32850 0.70260 -0.03500
H 	H 	0.99690 0.27540 0.71260 0.04300
H 	H 	0.90720 0.31120 0.75570 0.03800
C 	C 	0.07380 0.80740 0.81030 0.09000
H 	H 	0.09870 0.80540 0.87690 -0.01100
C 	C 	0.00290 0.84580 0.68190 -0.03500
H 	H 	0.96820 0.87820 0.64040 0.04800
C 	C 	0.03140 0.76750 0.65200 0.01800
H 	H 	0.02140 0.73480 0.58660 0.01800
C 	C 	0.82330 0.32710 0.57860 0.07900
H 	H 	0.79220 0.36130 0.62210 -0.01300
C 	C 	0.85770 0.25250 0.44970 -0.00200
H 	H 	0.85370 0.22280 0.38390 0.01000
C 	C 	0.93090 0.25850 0.52230 -0.00600
H 	H 	0.98760 0.23540 0.51690 0.03100
C 	C 	0.54800 0.87490 0.23900 -0.03900
H 	H 	0.48490 0.83290 0.18960 0.04200
H 	H 	0.51650 0.84580 0.30710 0.04300
C 	C 	0.64700 0.85160 0.21710 -0.10700
H 	H 	0.70750 0.88900 0.26940 0.06800
H 	H 	0.68220 0.88590 0.15120 0.07100
C 	C 	0.60360 0.72090 0.21520 -0.09000
H 	H 	0.56140 0.68550 0.27860 0.04900
H 	H 	0.54830 0.68490 0.15880 0.05500
C 	C 	0.70090 0.69570 0.20350 -0.04400
H 	H 	0.75920 0.73760 0.25670 0.04300
H 	H 	0.67010 0.61170 0.21380 0.04200
C 	C 	0.59260 0.06670 0.31060 0.03500
H 	H 	0.56730 0.03970 0.37710 -0.01100
C 	C 	0.66340 0.17610 0.18210 0.02100
H 	H 	0.69760 0.24290 0.14010 0.00500
C 	C 	0.63450 0.06880 0.15210 -0.05600
H 	H 	0.64440 0.04620 0.08660 0.03300
C 	C 	0.84320 0.83700 0.07860 0.07300
H 	H 	0.87480 0.90200 0.12260 0.00200
C 	C 	0.80920 0.72810 0.94980 0.01000
H 	H 	0.81350 0.70210 0.88420 0.01300
C 	C 	0.73640 0.66030 0.02260 -0.01500
H 	H 	0.68050 0.58020 0.01750 0.03000
Cd	Cd	0.00000 0.00000 0.88423 1.16700
Cd	Cd	0.66667 0.33333 0.38409 1.18800
