data_crystal

_cell_length_a 14.29700
_cell_length_b 17.16400
_cell_length_c 27.33300
_cell_angle_alpha 89.97000
_cell_angle_beta  77.10400
_cell_angle_gamma 74.59100

_symmetry_space_group_name_	'P 1'
_symmetry_space_group_name_H-M	'P 1'

loop_
_symmetry_equiv_pos_as_xyz
  x,y,z

loop_
_atom_site_label
_atom_site_type_symbol
_atom_site_fract_x
_atom_site_fract_y
_atom_site_fract_z
_atom_site_charge
Zn	Zn	0.42920 0.37255 0.99867 1.16200
Zn	Zn	0.50160 0.69155 0.24291 1.16300
Zn	Zn	0.93350 0.55890 0.64221 1.15500
Zn	Zn	0.98580 0.84303 0.89533 1.16300
Zn	Zn	0.17990 0.04578 0.27999 1.16100
Zn	Zn	0.30110 0.20920 0.56360 1.26300
I 	I 	0.35722 0.42895 0.92498 -0.37400
I 	I 	0.60456 0.36198 0.00611 -0.40600
I 	I 	0.41368 0.78062 0.32314 -0.38600
I 	I 	0.47517 0.55379 0.22785 -0.36100
I 	I 	0.04040 0.47100 0.57490 0.30400
I 	I 	0.02730 0.43240 0.57370 -0.64500
I 	I 	0.96044 0.55173 0.73117 -0.37400
I 	I 	0.88882 0.97777 0.87185 -0.39900
I 	I 	0.90106 0.74537 0.94358 -0.37900
I 	I 	0.08400 0.17664 0.25151 -0.42200
I 	I 	0.36126 0.02559 0.27871 -0.40300
I 	I 	0.18650 0.11910 0.64070 2.01100
I 	I 	0.19150 0.14930 0.61120 -2.39300
I 	I 	0.29870 0.28720 0.47090 0.17000
I 	I 	0.25050 0.25340 0.49630 -0.50000
N 	N 	0.30510 0.00360 0.00130 -0.14100
N 	N 	0.39820 0.98080 0.06370 -0.13500
N 	N 	0.31670 0.88680 0.04100 -0.12900
C 	C 	0.28020 0.93550 0.00950 0.09100
C 	C 	0.36160 0.02490 0.03040 0.09700
C 	C 	0.37400 0.90940 0.06900 0.08700
N 	N 	0.08420 0.86970 0.93420 -0.30400
C 	C 	0.09700 0.94100 0.93560 0.11200
H 	H 	0.05750 0.98110 0.92050 -0.02800
C 	C 	0.16600 0.96400 0.95760 -0.17800
H 	H 	0.17730 0.01430 0.95180 0.09200
C 	C 	0.21300 0.91740 0.98500 0.09600
C 	C 	0.19800 0.83660 0.98290 -0.18300
H 	H 	0.23310 0.79580 0.99940 0.12000
C 	C 	0.13400 0.81960 0.95750 0.15300
H 	H 	0.12700 0.76730 0.95760 -0.03700
N 	N 	0.40910 0.25580 0.00760 -0.27200
C 	C 	0.43900 0.21260 0.04310 0.09100
H 	H 	0.46980 0.23550 0.06390 -0.02200
C 	C 	0.43000 0.13250 0.05280 -0.13500
H 	H 	0.45160 0.10320 0.07860 0.08800
C 	C 	0.38390 0.10300 0.02000 0.07000
C 	C 	0.35300 0.14940 0.98360 -0.13800
H 	H 	0.32060 0.12920 0.96280 0.08900
C 	C 	0.36720 0.22360 0.97610 0.08500
H 	H 	0.34820 0.25220 0.94940 -0.01200
N 	N 	0.47050 0.76060 0.18200 -0.28000
C 	C 	0.43120 0.73730 0.14730 0.09100
H 	H 	0.42160 0.68580 0.14830 -0.02600
C 	C 	0.40400 0.78490 0.11010 -0.16800
H 	H 	0.37990 0.76370 0.08560 0.08500
C 	C 	0.41070 0.86190 0.10780 0.08600
C 	C 	0.45600 0.88530 0.14270 -0.16200
H 	H 	0.47020 0.93530 0.14130 0.09400
C 	C 	0.48010 0.83600 0.17850 0.09600
H 	H 	0.50540 0.85560 0.20290 -0.02300
N 	N 	0.45970 0.52080 0.65010 -0.14800
N 	N 	0.29480 0.55630 0.70170 -0.13400
N 	N 	0.41060 0.63500 0.71110 -0.12600
C 	C 	0.47650 0.57820 0.67120 0.09700
C 	C 	0.32000 0.62130 0.72250 0.06600
C 	C 	0.37200 0.51180 0.66790 0.09100
N 	N 	0.77970 0.57770 0.65030 -0.27200
C 	C 	0.74400 0.54600 0.61450 0.06600
H 	H 	0.78890 0.52090 0.58510 -0.00500
C 	C 	0.64500 0.54900 0.61980 -0.13000
H 	H 	0.62390 0.52420 0.59560 0.08200
C 	C 	0.57710 0.59080 0.66410 0.07300
C 	C 	0.61310 0.62280 0.69840 -0.15500
H 	H 	0.57030 0.64960 0.72790 0.10100
C 	C 	0.71190 0.61540 0.68970 0.10800
H 	H 	0.73390 0.63940 0.71380 -0.02100
N 	N 	0.32600 0.30340 0.60090 -0.26700
C 	C 	0.40600 0.31900 0.59170 0.13600
H 	H 	0.45870 0.28150 0.57070 -0.03600
C 	C 	0.42700 0.38770 0.60910 -0.18400
H 	H 	0.48760 0.39870 0.59730 0.10300
C 	C 	0.35210 0.43740 0.64440 0.07700
C 	C 	0.26400 0.42310 0.65590 -0.13800
H 	H 	0.21110 0.45930 0.67810 0.08100
C 	C 	0.24710 0.35350 0.63500 0.05200
H 	H 	0.18560 0.34230 0.64390 0.02300
N 	N 	0.09440 0.77440 0.83590 -0.28900
C 	C 	0.08460 0.70950 0.81440 0.14700
H 	H 	0.02210 0.69990 0.82270 -0.02300
C 	C 	0.15570 0.65670 0.78220 -0.21000
H 	H 	0.14650 0.60700 0.77420 0.12300
C 	C 	0.23800 0.67380 0.76160 0.12500
C 	C 	0.25050 0.74540 0.77880 -0.17600
H 	H 	0.30740 0.76120 0.76440 0.09700
C 	C 	0.17900 0.79340 0.81720 0.10800
H 	H 	0.18980 0.83950 0.83000 -0.03200
N 	N 	0.14850 0.67640 0.18540 -0.13300
N 	N 	0.97930 0.73530 0.22440 -0.14900
N 	N 	0.02390 0.60670 0.17840 -0.12700
C 	C 	0.11800 0.60890 0.17050 0.08600
C 	C 	0.07600 0.73280 0.21250 0.10000
C 	C 	0.95570 0.67120 0.20530 0.09900
N 	N 	0.33170 0.43560 0.06270 -0.27500
C 	C 	0.23900 0.43140 0.07860 0.11100
H 	H 	0.22000 0.38900 0.06600 -0.01200
C 	C 	0.17100 0.48670 0.11220 -0.16600
H 	H 	0.10490 0.48440 0.12100 0.10900
C 	C 	0.19820 0.54480 0.13310 0.09900
C 	C 	0.29550 0.54470 0.12290 -0.14000
H 	H 	0.31560 0.58180 0.14000 0.09300
C 	C 	0.36480 0.48950 0.08700 0.07000
H 	H 	0.43180 0.48870 0.07950 -0.01800
N 	N 	0.15050 0.94080 0.25260 -0.28200
C 	C 	0.05400 0.94900 0.25000 0.06300
H 	H 	0.00710 0.99920 0.25450 -0.03000
C 	C 	0.03300 0.88040 0.24100 -0.12600
H 	H 	0.96690 0.88210 0.24270 0.03900
C 	C 	0.10510 0.80550 0.22910 0.07600
C 	C 	0.19910 0.80210 0.22740 -0.17800
H 	H 	0.25160 0.75570 0.21700 0.08800
C 	C 	0.21100 0.87500 0.24280 0.15200
H 	H 	0.27520 0.87340 0.24600 -0.04900
N 	N 	0.64920 0.67820 0.23570 -0.27400
C 	C 	0.68490 0.73840 0.25370 0.04600
H 	H 	0.63910 0.78270 0.27290 -0.01500
C 	C 	0.78000 0.73540 0.24470 -0.10500
H 	H 	0.79830 0.77820 0.25710 0.03900
C 	C 	0.85250 0.67280 0.21810 0.04200
C 	C 	0.82200 0.60730 0.19800 -0.11600
H 	H 	0.86820 0.56090 0.18100 0.08900
C 	C 	0.72270 0.61920 0.20600 0.07000
H 	H 	0.70190 0.58250 0.18900 0.00100
N 	N 	0.77250 0.93150 0.55290 -0.13700
N 	N 	0.92930 0.89910 0.49990 -0.11900
N 	N 	0.80630 0.01100 0.48460 -0.12900
C 	C 	0.74420 0.99250 0.52440 0.09500
C 	C 	0.86070 0.88730 0.53890 0.12600
C 	C 	0.90200 0.96640 0.47470 0.11400
N 	N 	0.44900 0.13590 0.54440 -0.26000
C 	C 	0.50800 0.12400 0.50260 0.14200
H 	H 	0.48590 0.14470 0.47460 -0.03500
C 	C 	0.60400 0.07970 0.49720 -0.17900
H 	H 	0.64720 0.07870 0.46600 0.09400
C 	C 	0.64200 0.03830 0.53200 0.09200
C 	C 	0.57600 0.03900 0.57620 -0.13000
H 	H 	0.59740 0.00730 0.60120 0.09200
C 	C 	0.47700 0.08700 0.58570 0.05300
H 	H 	0.43130 0.08810 0.61610 -0.02100
N 	N 	0.92660 0.66680 0.61310 -0.29900
C 	C 	0.99500 0.68000 0.57400 0.08600
H 	H 	0.05910 0.64510 0.56660 -0.02600
C 	C 	0.97200 0.74800 0.54510 -0.13500
H 	H 	0.00880 0.74720 0.51250 0.11400
C 	C 	0.89290 0.81440 0.56500 0.08900
C 	C 	0.84000 0.80300 0.61280 -0.17200
H 	H 	0.79100 0.84640 0.63070 0.07900
C 	C 	0.85800 0.73400 0.63290 0.12600
H 	H 	0.81800 0.73160 0.66450 -0.03600
N 	N 	0.09620 0.03140 0.35240 -0.28600
C 	C 	0.00500 0.07090 0.36700 0.10800
H 	H 	0.98080 0.11190 0.34720 -0.03400
C 	C 	0.94300 0.05940 0.40680 -0.16400
H 	H 	0.88210 0.09780 0.41880 0.08800
C 	C 	0.96900 0.98710 0.43180 0.06300
C 	C 	0.07200 0.94230 0.41850 -0.13700
H 	H 	0.09960 0.89930 0.43620 0.10000
C 	C 	0.12500 0.96870 0.37760 0.10300
H 	H 	0.19110 0.93800 0.36610 -0.01600
Zn	Zn	0.57080 0.62745 0.00133 1.16300
Zn	Zn	0.49840 0.30845 0.75709 1.16400
Zn	Zn	0.06650 0.44110 0.35779 1.15600
Zn	Zn	0.01420 0.15697 0.10467 1.16400
Zn	Zn	0.82010 0.95422 0.72001 1.16200
Zn	Zn	0.69890 0.79080 0.43640 1.26400
I 	I 	0.64278 0.57105 0.07502 -0.37300
I 	I 	0.39544 0.63802 0.99389 -0.40500
I 	I 	0.58632 0.21938 0.67686 -0.38600
I 	I 	0.52483 0.44621 0.77215 -0.36100
I 	I 	0.95960 0.52900 0.42510 0.30400
I 	I 	0.97270 0.56760 0.42630 -0.64500
I 	I 	0.03956 0.44827 0.26883 -0.37400
I 	I 	0.11118 0.02223 0.12815 -0.39900
I 	I 	0.09894 0.25463 0.05642 -0.37900
I 	I 	0.91600 0.82336 0.74849 -0.42200
I 	I 	0.63874 0.97441 0.72129 -0.40300
I 	I 	0.81350 0.88090 0.35930 2.01100
I 	I 	0.80850 0.85070 0.38880 -2.39300
I 	I 	0.70130 0.71280 0.52910 0.17000
I 	I 	0.74950 0.74660 0.50370 -0.50000
N 	N 	0.69490 0.99640 0.99870 -0.14100
N 	N 	0.60180 0.01920 0.93630 -0.13500
N 	N 	0.68330 0.11320 0.95900 -0.12900
C 	C 	0.71980 0.06450 0.99050 0.09100
C 	C 	0.63840 0.97510 0.96960 0.09700
C 	C 	0.62600 0.09060 0.93100 0.08700
N 	N 	0.91580 0.13030 0.06580 -0.30400
C 	C 	0.90300 0.05900 0.06440 0.11200
H 	H 	0.94250 0.01890 0.07950 -0.02800
C 	C 	0.83400 0.03600 0.04240 -0.17800
H 	H 	0.82270 0.98570 0.04820 0.09200
C 	C 	0.78700 0.08260 0.01500 0.09600
C 	C 	0.80200 0.16340 0.01710 -0.18300
H 	H 	0.76690 0.20420 0.00060 0.12000
C 	C 	0.86600 0.18040 0.04250 0.15300
H 	H 	0.87300 0.23270 0.04240 -0.03700
N 	N 	0.59090 0.74420 0.99240 -0.27200
C 	C 	0.56100 0.78740 0.95690 0.09100
H 	H 	0.53020 0.76450 0.93610 -0.02200
C 	C 	0.57000 0.86750 0.94720 -0.13500
H 	H 	0.54840 0.89680 0.92140 0.08800
C 	C 	0.61610 0.89700 0.98000 0.07000
C 	C 	0.64700 0.85060 0.01640 -0.13800
H 	H 	0.67940 0.87080 0.03720 0.08900
C 	C 	0.63280 0.77640 0.02390 0.08500
H 	H 	0.65180 0.74780 0.05060 -0.01200
N 	N 	0.52950 0.23940 0.81800 -0.28000
C 	C 	0.56880 0.26270 0.85270 0.09100
H 	H 	0.57840 0.31420 0.85170 -0.02600
C 	C 	0.59600 0.21510 0.88990 -0.16800
H 	H 	0.62010 0.23630 0.91440 0.08500
C 	C 	0.58930 0.13810 0.89220 0.08600
C 	C 	0.54400 0.11470 0.85730 -0.16200
H 	H 	0.52980 0.06470 0.85870 0.09400
C 	C 	0.51990 0.16400 0.82150 0.09600
H 	H 	0.49460 0.14440 0.79710 -0.02300
N 	N 	0.54030 0.47920 0.34990 -0.14800
N 	N 	0.70520 0.44370 0.29830 -0.13400
N 	N 	0.58940 0.36500 0.28890 -0.12600
C 	C 	0.52350 0.42180 0.32880 0.09700
C 	C 	0.68000 0.37870 0.27750 0.06600
C 	C 	0.62800 0.48820 0.33210 0.09100
N 	N 	0.22030 0.42230 0.34970 -0.27200
C 	C 	0.25600 0.45400 0.38550 0.06600
H 	H 	0.21110 0.47910 0.41490 -0.00500
C 	C 	0.35500 0.45100 0.38020 -0.13000
H 	H 	0.37610 0.47580 0.40440 0.08200
C 	C 	0.42290 0.40920 0.33590 0.07300
C 	C 	0.38690 0.37720 0.30160 -0.15500
H 	H 	0.42970 0.35040 0.27210 0.10100
C 	C 	0.28810 0.38460 0.31030 0.10800
H 	H 	0.26610 0.36060 0.28620 -0.02100
N 	N 	0.67400 0.69660 0.39910 -0.26700
C 	C 	0.59400 0.68100 0.40830 0.13600
H 	H 	0.54130 0.71850 0.42930 -0.03600
C 	C 	0.57300 0.61230 0.39090 -0.18400
H 	H 	0.51240 0.60130 0.40270 0.10300
C 	C 	0.64790 0.56260 0.35560 0.07700
C 	C 	0.73600 0.57690 0.34410 -0.13800
H 	H 	0.78890 0.54070 0.32190 0.08100
C 	C 	0.75290 0.64650 0.36500 0.05200
H 	H 	0.81440 0.65770 0.35610 0.02300
N 	N 	0.90560 0.22560 0.16410 -0.28900
C 	C 	0.91540 0.29050 0.18560 0.14700
H 	H 	0.97790 0.30010 0.17730 -0.02300
C 	C 	0.84430 0.34330 0.21780 -0.21000
H 	H 	0.85350 0.39300 0.22580 0.12300
C 	C 	0.76200 0.32620 0.23840 0.12500
C 	C 	0.74950 0.25460 0.22120 -0.17600
H 	H 	0.69260 0.23880 0.23560 0.09700
C 	C 	0.82100 0.20660 0.18280 0.10800
H 	H 	0.81020 0.16050 0.17000 -0.03200
N 	N 	0.85150 0.32360 0.81460 -0.13300
N 	N 	0.02070 0.26470 0.77560 -0.14900
N 	N 	0.97610 0.39330 0.82160 -0.12700
C 	C 	0.88200 0.39110 0.82950 0.08600
C 	C 	0.92400 0.26720 0.78750 0.10000
C 	C 	0.04430 0.32880 0.79470 0.09900
N 	N 	0.66830 0.56440 0.93730 -0.27500
C 	C 	0.76100 0.56860 0.92140 0.11100
H 	H 	0.78000 0.61100 0.93400 -0.01200
C 	C 	0.82900 0.51330 0.88780 -0.16600
H 	H 	0.89510 0.51560 0.87900 0.10900
C 	C 	0.80180 0.45520 0.86690 0.09900
C 	C 	0.70450 0.45530 0.87710 -0.14000
H 	H 	0.68440 0.41820 0.86000 0.09300
C 	C 	0.63520 0.51050 0.91300 0.07000
H 	H 	0.56820 0.51130 0.92050 -0.01800
N 	N 	0.84950 0.05920 0.74740 -0.28200
C 	C 	0.94600 0.05100 0.75000 0.06300
H 	H 	0.99290 0.00080 0.74550 -0.03000
C 	C 	0.96700 0.11960 0.75900 -0.12600
H 	H 	0.03310 0.11790 0.75730 0.03900
C 	C 	0.89490 0.19450 0.77090 0.07600
C 	C 	0.80090 0.19790 0.77260 -0.17800
H 	H 	0.74840 0.24430 0.78300 0.08800
C 	C 	0.78900 0.12500 0.75720 0.15200
H 	H 	0.72480 0.12660 0.75400 -0.04900
N 	N 	0.35080 0.32180 0.76430 -0.27400
C 	C 	0.31510 0.26160 0.74630 0.04600
H 	H 	0.36090 0.21730 0.72710 -0.01500
C 	C 	0.22000 0.26460 0.75530 -0.10500
H 	H 	0.20170 0.22180 0.74290 0.03900
C 	C 	0.14750 0.32720 0.78190 0.04200
C 	C 	0.17800 0.39270 0.80200 -0.11600
H 	H 	0.13180 0.43910 0.81900 0.08900
C 	C 	0.27730 0.38080 0.79400 0.07000
H 	H 	0.29810 0.41750 0.81100 0.00100
N 	N 	0.22750 0.06850 0.44710 -0.13700
N 	N 	0.07070 0.10090 0.50010 -0.11900
N 	N 	0.19370 0.98900 0.51540 -0.12900
C 	C 	0.25580 0.00750 0.47560 0.09500
C 	C 	0.13930 0.11270 0.46110 0.12600
C 	C 	0.09800 0.03360 0.52530 0.11400
N 	N 	0.55100 0.86410 0.45560 -0.26000
C 	C 	0.49200 0.87600 0.49740 0.14200
H 	H 	0.51410 0.85530 0.52540 -0.03500
C 	C 	0.39600 0.92030 0.50280 -0.17900
H 	H 	0.35280 0.92130 0.53400 0.09400
C 	C 	0.35800 0.96170 0.46800 0.09200
C 	C 	0.42400 0.96100 0.42380 -0.13000
H 	H 	0.40260 0.99270 0.39880 0.09200
C 	C 	0.52300 0.91300 0.41430 0.05300
H 	H 	0.56870 0.91190 0.38390 -0.02100
N 	N 	0.07340 0.33320 0.38690 -0.29900
C 	C 	0.00500 0.32000 0.42600 0.08600
H 	H 	0.94090 0.35490 0.43340 -0.02600
C 	C 	0.02800 0.25200 0.45490 -0.13500
H 	H 	0.99120 0.25280 0.48750 0.11400
C 	C 	0.10710 0.18560 0.43500 0.08900
C 	C 	0.16000 0.19700 0.38720 -0.17200
H 	H 	0.20900 0.15360 0.36930 0.07900
C 	C 	0.14200 0.26600 0.36710 0.12600
H 	H 	0.18200 0.26840 0.33550 -0.03600
N 	N 	0.90380 0.96860 0.64760 -0.28600
C 	C 	0.99500 0.92910 0.63300 0.10800
H 	H 	0.01920 0.88810 0.65280 -0.03400
C 	C 	0.05700 0.94060 0.59320 -0.16400
H 	H 	0.11790 0.90220 0.58120 0.08800
C 	C 	0.03100 0.01290 0.56820 0.06300
C 	C 	0.92800 0.05770 0.58150 -0.13700
H 	H 	0.90040 0.10070 0.56380 0.10000
C 	C 	0.87500 0.03130 0.62240 0.10300
H 	H 	0.80890 0.06200 0.63390 -0.01600
