data_crystal

_cell_length_a 15.09600
_cell_length_b 15.67760
_cell_length_c 31.84600
_cell_angle_alpha 93.63050
_cell_angle_beta  90.00000
_cell_angle_gamma 118.78000

_symmetry_space_group_name_	'P 1'
_symmetry_space_group_name_H-M	'P 1'

loop_
_symmetry_equiv_pos_as_xyz
  x,y,z

loop_
_atom_site_label
_atom_site_type_symbol
_atom_site_fract_x
_atom_site_fract_y
_atom_site_fract_z
_atom_site_charge
Zn	Zn	0.93855 0.58620 0.19575 1.16200
Zn	Zn	0.54568 0.85646 0.88353 1.15700
Zn	Zn	0.10126 0.37982 0.00221 1.16200
Zn	Zn	0.64765 0.58620 0.69575 1.16300
Zn	Zn	0.31078 0.85646 0.38353 1.15800
Zn	Zn	0.27856 0.37982 0.50221 1.16200
H 	H 	0.19620 0.26820 0.95130 -0.00400
H 	H 	0.22980 0.14320 0.96080 0.07600
H 	H 	0.04290 0.06800 0.05940 0.07800
H 	H 	0.01690 0.19880 0.04800 -0.01200
H 	H 	0.41020 0.76900 0.95290 -0.00800
H 	H 	0.30690 0.79720 0.00040 0.09000
H 	H 	0.40420 0.06000 0.95460 0.07800
H 	H 	0.51450 0.02940 0.91250 -0.01400
H 	H 	0.10820 0.65220 0.13890 -0.02100
H 	H 	0.18350 0.75340 0.08550 0.08700
H 	H 	0.98680 0.85600 0.10240 0.07700
H 	H 	0.91150 0.74680 0.15410 -0.01000
H 	H 	0.10010 0.48220 0.08690 -0.00800
H 	H 	0.19850 0.55080 0.14780 0.07700
H 	H 	0.38990 0.45660 0.10300 0.09700
H 	H 	0.28880 0.39820 0.04180 -0.00400
H 	H 	0.50170 0.85880 0.34730 -0.00900
H 	H 	0.54390 0.78400 0.29100 0.08500
H 	H 	0.24700 0.62940 0.25730 0.07800
H 	H 	0.21180 0.69700 0.31770 -0.00100
H 	H 	0.82560 0.65540 0.25750 -0.00600
H 	H 	0.68000 0.66780 0.25830 0.08700
H 	H 	0.59650 0.51500 0.14530 0.09000
H 	H 	0.74230 0.50340 0.14730 0.00000
H 	H 	0.07200 0.26820 0.45130 -0.00200
H 	H 	0.91340 0.14320 0.46080 0.07700
H 	H 	0.02510 0.06800 0.55940 0.07900
H 	H 	0.18190 0.19880 0.54800 -0.01100
H 	H 	0.35880 0.76900 0.45290 -0.00700
H 	H 	0.49030 0.79720 0.50040 0.09100
H 	H 	0.65580 0.06000 0.45460 0.08100
H 	H 	0.51490 0.02940 0.41250 -0.01300
H 	H 	0.54400 0.65220 0.63890 -0.02200
H 	H 	0.56990 0.75340 0.58550 0.08800
H 	H 	0.86920 0.85600 0.60240 0.08200
H 	H 	0.83530 0.74680 0.65410 -0.01300
H 	H 	0.38210 0.48220 0.58690 -0.00800
H 	H 	0.35230 0.55080 0.64780 0.07700
H 	H 	0.06670 0.45660 0.60300 0.09700
H 	H 	0.10940 0.39820 0.54180 -0.00400
H 	H 	0.35710 0.85880 0.84730 -0.00900
H 	H 	0.24010 0.78400 0.79100 0.08500
H 	H 	0.38240 0.62940 0.75730 0.07800
H 	H 	0.48520 0.69700 0.81770 -0.00100
H 	H 	0.82980 0.65540 0.75750 -0.00500
H 	H 	0.98780 0.66780 0.75830 0.08700
H 	H 	0.91850 0.51500 0.64530 0.09100
H 	H 	0.76110 0.50340 0.64730 0.00000
C 	C 	0.14870 0.88940 0.05750 0.08300
C 	C 	0.26670 0.94360 0.00760 0.09000
C 	C 	0.16940 0.01620 0.02030 0.08800
C 	C 	0.16640 0.22800 0.97390 0.05600
C 	C 	0.18620 0.15360 0.97940 -0.11000
C 	C 	0.14370 0.09280 0.01160 0.05100
C 	C 	0.07660 0.10940 0.03750 -0.11300
C 	C 	0.06130 0.18740 0.03020 0.07500
C 	C 	0.41010 0.82960 0.95370 0.06800
C 	C 	0.34660 0.84500 0.98160 -0.11600
C 	C 	0.34280 0.93180 0.98100 0.06000
C 	C 	0.40470 0.99980 0.95530 -0.12300
C 	C 	0.46960 0.98040 0.92960 0.07300
C 	C 	0.08210 0.69340 0.13080 0.07000
C 	C 	0.12940 0.75540 0.09990 -0.13000
C 	C 	0.09740 0.82040 0.09010 0.05400
C 	C 	0.01350 0.81480 0.10970 -0.12600
C 	C 	0.96800 0.74860 0.14020 0.06900
C 	C 	0.37800 0.55980 0.16910 0.09900
C 	C 	0.42240 0.64940 0.23170 0.08500
C 	C 	0.52840 0.60220 0.20050 0.09300
C 	C 	0.16080 0.47860 0.09000 0.08000
C 	C 	0.21910 0.51980 0.12640 -0.12000
C 	C 	0.30900 0.51560 0.13180 0.05700
C 	C 	0.33240 0.46560 0.10010 -0.11700
C 	C 	0.27030 0.42880 0.06420 0.07200
C 	C 	0.44910 0.81000 0.32930 0.07400
C 	C 	0.47510 0.76680 0.29530 -0.11400
C 	C 	0.39930 0.69860 0.26800 0.04800
C 	C 	0.30050 0.67460 0.27600 -0.11300
C 	C 	0.28030 0.71720 0.31150 0.05900
C 	C 	0.77860 0.62680 0.23430 0.07000
C 	C 	0.69200 0.63400 0.23510 -0.12800
C 	C 	0.62180 0.59200 0.20190 0.05900
C 	C 	0.64270 0.54400 0.16870 -0.11800
C 	C 	0.72990 0.53840 0.16990 0.05900
C 	C 	0.74070 0.88940 0.55750 0.08100
C 	C 	0.67690 0.94360 0.50760 0.08800
C 	C 	0.84680 0.01620 0.52030 0.09200
C 	C 	0.06160 0.22800 0.47390 0.05400
C 	C 	0.96740 0.15360 0.47940 -0.10800
C 	C 	0.94910 0.09280 0.51160 0.05300
C 	C 	0.03280 0.10940 0.53750 -0.11600
C 	C 	0.12610 0.18740 0.53020 0.07600
C 	C 	0.41950 0.82960 0.45370 0.06900
C 	C 	0.49840 0.84500 0.48160 -0.11700
C 	C 	0.58900 0.93180 0.48100 0.06100
C 	C 	0.59510 0.99980 0.45530 -0.12700
C 	C 	0.51080 0.98040 0.42960 0.07600
C 	C 	0.61130 0.69340 0.63080 0.07200
C 	C 	0.62600 0.75540 0.59990 -0.13400
C 	C 	0.72300 0.82040 0.59010 0.05900
C 	C 	0.80130 0.81480 0.60970 -0.13700
C 	C 	0.78060 0.74860 0.64020 0.07700
C 	C 	0.18180 0.55980 0.66910 0.09900
C 	C 	0.22700 0.64940 0.73170 0.08500
C 	C 	0.07380 0.60220 0.70050 0.09200
C 	C 	0.31780 0.47860 0.59000 0.08000
C 	C 	0.30070 0.51980 0.62640 -0.12000
C 	C 	0.20660 0.51560 0.63180 0.05700
C 	C 	0.13320 0.46560 0.60010 -0.11700
C 	C 	0.15850 0.42880 0.56420 0.07100
C 	C 	0.36090 0.81000 0.82930 0.07400
C 	C 	0.29170 0.76680 0.79530 -0.11400
C 	C 	0.29930 0.69860 0.76800 0.04800
C 	C 	0.37410 0.67460 0.77600 -0.11300
C 	C 	0.43690 0.71720 0.81150 0.05900
C 	C 	0.84820 0.62680 0.73430 0.07100
C 	C 	0.94200 0.63400 0.73510 -0.12800
C 	C 	0.97020 0.59200 0.70190 0.05900
C 	C 	0.90130 0.54400 0.66870 -0.11800
C 	C 	0.80850 0.53840 0.66990 0.05900
I 	I 	0.02760 0.65440 0.26730 -0.38000
I 	I 	0.93000 0.43294 0.15992 -0.37000
I 	I 	0.67490 0.01440 0.84750 -0.34400
I 	I 	0.58360 0.72700 0.91655 -0.34900
I 	I 	0.22149 0.48062 0.94708 -0.37900
I 	I 	0.92615 0.34902 0.01891 -0.39600
I 	I 	0.62680 0.65440 0.76730 -0.38200
I 	I 	0.50294 0.43294 0.65992 -0.37000
I 	I 	0.33950 0.01440 0.34750 -0.34600
I 	I 	0.14340 0.72700 0.41655 -0.34700
I 	I 	0.25913 0.48062 0.44708 -0.37900
I 	I 	0.42287 0.34902 0.51891 -0.39700
N 	N 	0.22590 0.88360 0.03760 -0.13700
N 	N 	0.24360 0.01260 0.99720 -0.13900
N 	N 	0.11830 0.95400 0.04937 -0.13600
N 	N 	0.10440 0.24700 0.00020 -0.26300
N 	N 	0.47030 0.89640 0.92840 -0.27500
N 	N 	0.00100 0.68780 0.15040 -0.27000
N 	N 	0.35230 0.60300 0.20090 -0.14000
N 	N 	0.51470 0.65440 0.23280 -0.13800
N 	N 	0.46520 0.55760 0.16735 -0.13300
N 	N 	0.18500 0.43480 0.05960 -0.26600
N 	N 	0.35300 0.78560 0.33740 -0.27000
N 	N 	0.79990 0.58100 0.20206 -0.27100
N 	N 	0.65770 0.88360 0.53760 -0.13700
N 	N 	0.76900 0.01260 0.49720 -0.13800
N 	N 	0.83570 0.95400 0.54937 -0.13800
N 	N 	0.14260 0.24700 0.50020 -0.26300
N 	N 	0.42610 0.89640 0.42840 -0.27500
N 	N 	0.68680 0.68780 0.65040 -0.27300
N 	N 	0.25070 0.60300 0.70090 -0.14000
N 	N 	0.13970 0.65440 0.73280 -0.13800
N 	N 	0.09240 0.55760 0.66735 -0.13300
N 	N 	0.24980 0.43480 0.55960 -0.26600
N 	N 	0.43260 0.78560 0.83740 -0.27000
N 	N 	0.78110 0.58100 0.70206 -0.27100
Zn	Zn	0.35235 0.41380 0.30425 1.16400
Zn	Zn	0.68922 0.14354 0.61647 1.15900
Zn	Zn	0.72144 0.62018 0.49779 1.16300
Zn	Zn	0.06145 0.41380 0.80425 1.16300
Zn	Zn	0.45432 0.14354 0.11647 1.15800
Zn	Zn	0.89874 0.62018 0.99779 1.16300
H 	H 	0.92800 0.73180 0.54870 -0.00200
H 	H 	0.08660 0.85680 0.53920 0.07700
H 	H 	0.97490 0.93200 0.44060 0.07900
H 	H 	0.81810 0.80120 0.45200 -0.01100
H 	H 	0.64120 0.23100 0.54710 -0.00700
H 	H 	0.50970 0.20280 0.49960 0.09100
H 	H 	0.34420 0.94000 0.54540 0.08100
H 	H 	0.48510 0.97060 0.58750 -0.01300
H 	H 	0.45600 0.34780 0.36110 -0.02200
H 	H 	0.43010 0.24660 0.41450 0.08800
H 	H 	0.13080 0.14400 0.39760 0.08200
H 	H 	0.16470 0.25320 0.34590 -0.01300
H 	H 	0.61790 0.51780 0.41310 -0.00800
H 	H 	0.64770 0.44920 0.35220 0.07700
H 	H 	0.93330 0.54340 0.39700 0.09700
H 	H 	0.89060 0.60180 0.45820 -0.00400
H 	H 	0.64290 0.14120 0.15270 -0.00900
H 	H 	0.75990 0.21600 0.20900 0.08500
H 	H 	0.61760 0.37060 0.24270 0.07800
H 	H 	0.51480 0.30300 0.18230 -0.00100
H 	H 	0.17020 0.34460 0.24250 -0.00500
H 	H 	0.01220 0.33220 0.24170 0.08700
H 	H 	0.08150 0.48500 0.35470 0.09100
H 	H 	0.23890 0.49660 0.35270 0.00000
H 	H 	0.80380 0.73180 0.04870 -0.00300
H 	H 	0.77020 0.85680 0.03920 0.07700
H 	H 	0.95710 0.93200 0.94060 0.07900
H 	H 	0.98310 0.80120 0.95200 -0.01100
H 	H 	0.58980 0.23100 0.04710 -0.00700
H 	H 	0.69310 0.20280 0.99960 0.09100
H 	H 	0.59580 0.94000 0.04540 0.07900
H 	H 	0.48550 0.97060 0.08750 -0.01300
H 	H 	0.89180 0.34780 0.86110 -0.02100
H 	H 	0.81650 0.24660 0.91450 0.08700
H 	H 	0.01320 0.14400 0.89760 0.07700
H 	H 	0.08850 0.25320 0.84590 -0.01000
H 	H 	0.89990 0.51780 0.91310 -0.00800
H 	H 	0.80150 0.44920 0.85220 0.07700
H 	H 	0.61010 0.54340 0.89700 0.09700
H 	H 	0.71120 0.60180 0.95820 -0.00400
H 	H 	0.49830 0.14120 0.65270 -0.00900
H 	H 	0.45610 0.21600 0.70900 0.08500
H 	H 	0.75300 0.37060 0.74270 0.07800
H 	H 	0.78820 0.30300 0.68230 -0.00100
H 	H 	0.17440 0.34460 0.74250 -0.00600
H 	H 	0.32000 0.33220 0.74170 0.08700
H 	H 	0.40350 0.48500 0.85470 0.09000
H 	H 	0.25770 0.49660 0.85270 0.00000
C 	C 	0.25930 0.11060 0.44250 0.08100
C 	C 	0.32310 0.05640 0.49240 0.08800
C 	C 	0.15320 0.98380 0.47970 0.09200
C 	C 	0.93840 0.77200 0.52610 0.05400
C 	C 	0.03260 0.84640 0.52060 -0.10800
C 	C 	0.05090 0.90720 0.48840 0.05300
C 	C 	0.96720 0.89060 0.46250 -0.11600
C 	C 	0.87390 0.81260 0.46980 0.07600
C 	C 	0.58050 0.17040 0.54630 0.06900
C 	C 	0.50160 0.15500 0.51840 -0.11700
C 	C 	0.41100 0.06820 0.51900 0.06100
C 	C 	0.40490 0.00020 0.54470 -0.12700
C 	C 	0.48920 0.01960 0.57040 0.07600
C 	C 	0.38870 0.30660 0.36920 0.07200
C 	C 	0.37400 0.24460 0.40010 -0.13400
C 	C 	0.27700 0.17960 0.40990 0.05900
C 	C 	0.19870 0.18520 0.39030 -0.13700
C 	C 	0.21940 0.25140 0.35980 0.07700
C 	C 	0.81820 0.44020 0.33090 0.09900
C 	C 	0.77300 0.35060 0.26830 0.08500
C 	C 	0.92620 0.39780 0.29950 0.09200
C 	C 	0.68220 0.52140 0.41000 0.08000
C 	C 	0.69930 0.48020 0.37360 -0.12000
C 	C 	0.79340 0.48440 0.36820 0.05700
C 	C 	0.86680 0.53440 0.39990 -0.11700
C 	C 	0.84150 0.57120 0.43580 0.07100
C 	C 	0.63910 0.19000 0.17070 0.07400
C 	C 	0.70830 0.23320 0.20470 -0.11400
C 	C 	0.70070 0.30140 0.23200 0.04800
C 	C 	0.62590 0.32540 0.22400 -0.11300
C 	C 	0.56310 0.28280 0.18850 0.05900
C 	C 	0.15180 0.37320 0.26570 0.07100
C 	C 	0.05800 0.36600 0.26490 -0.12800
C 	C 	0.02980 0.40800 0.29810 0.05900
C 	C 	0.09870 0.45600 0.33130 -0.11800
C 	C 	0.19150 0.46160 0.33010 0.05900
C 	C 	0.85130 0.11060 0.94250 0.08300
C 	C 	0.73330 0.05640 0.99240 0.09000
C 	C 	0.83060 0.98380 0.97970 0.08800
C 	C 	0.83360 0.77200 0.02610 0.05600
C 	C 	0.81380 0.84640 0.02060 -0.11000
C 	C 	0.85630 0.90720 0.98840 0.05100
C 	C 	0.92340 0.89060 0.96250 -0.11300
C 	C 	0.93870 0.81260 0.96980 0.07500
C 	C 	0.58990 0.17040 0.04630 0.06800
C 	C 	0.65340 0.15500 0.01840 -0.11600
C 	C 	0.65720 0.06820 0.01900 0.06000
C 	C 	0.59530 0.00020 0.04470 -0.12300
C 	C 	0.53040 0.01960 0.07040 0.07300
C 	C 	0.91790 0.30660 0.86920 0.07000
C 	C 	0.87060 0.24460 0.90010 -0.13000
C 	C 	0.90260 0.17960 0.90990 0.05400
C 	C 	0.98650 0.18520 0.89030 -0.12600
C 	C 	0.03200 0.25140 0.85980 0.06900
C 	C 	0.62200 0.44020 0.83090 0.09900
C 	C 	0.57760 0.35060 0.76830 0.08500
C 	C 	0.47160 0.39780 0.79950 0.09300
C 	C 	0.83920 0.52140 0.91000 0.08000
C 	C 	0.78090 0.48020 0.87360 -0.12000
C 	C 	0.69100 0.48440 0.86820 0.05700
C 	C 	0.66760 0.53440 0.89990 -0.11700
C 	C 	0.72970 0.57120 0.93580 0.07200
C 	C 	0.55090 0.19000 0.67070 0.07400
C 	C 	0.52490 0.23320 0.70470 -0.11400
C 	C 	0.60070 0.30140 0.73200 0.04800
C 	C 	0.69950 0.32540 0.72400 -0.11300
C 	C 	0.71970 0.28280 0.68850 0.05900
C 	C 	0.22140 0.37320 0.76570 0.07000
C 	C 	0.30800 0.36600 0.76490 -0.12800
C 	C 	0.37820 0.40800 0.79810 0.05900
C 	C 	0.35730 0.45600 0.83130 -0.11800
C 	C 	0.27010 0.46160 0.83010 0.05900
I 	I 	0.37320 0.34560 0.23270 -0.38200
I 	I 	0.49706 0.56706 0.34008 -0.37000
I 	I 	0.66050 0.98560 0.65250 -0.34600
I 	I 	0.85660 0.27300 0.58345 -0.34700
I 	I 	0.74087 0.51938 0.55292 -0.37900
I 	I 	0.57713 0.65098 0.48109 -0.39700
I 	I 	0.97240 0.34560 0.73270 -0.38000
I 	I 	0.07000 0.56706 0.84008 -0.37000
I 	I 	0.32510 0.98560 0.15250 -0.34400
I 	I 	0.41640 0.27300 0.08345 -0.34900
I 	I 	0.77851 0.51938 0.05292 -0.37900
I 	I 	0.07385 0.65098 0.98109 -0.39600
N 	N 	0.34230 0.11640 0.46240 -0.13700
N 	N 	0.23100 0.98740 0.50280 -0.13800
N 	N 	0.16430 0.04600 0.45063 -0.13800
N 	N 	0.85740 0.75300 0.49980 -0.26300
N 	N 	0.57390 0.10360 0.57160 -0.27500
N 	N 	0.31320 0.31220 0.34960 -0.27300
N 	N 	0.74930 0.39700 0.29910 -0.14000
N 	N 	0.86030 0.34560 0.26720 -0.13800
N 	N 	0.90760 0.44240 0.33265 -0.13300
N 	N 	0.75020 0.56520 0.44040 -0.26600
N 	N 	0.56740 0.21440 0.16260 -0.27000
N 	N 	0.21890 0.41900 0.29794 -0.27100
N 	N 	0.77410 0.11640 0.96240 -0.13700
N 	N 	0.75640 0.98740 0.00280 -0.13900
N 	N 	0.88170 0.04600 0.95063 -0.13600
N 	N 	0.89560 0.75300 0.99980 -0.26300
N 	N 	0.52970 0.10360 0.07160 -0.27500
N 	N 	0.99900 0.31220 0.84960 -0.27000
N 	N 	0.64770 0.39700 0.79910 -0.14000
N 	N 	0.48530 0.34560 0.76720 -0.13800
N 	N 	0.53480 0.44240 0.83265 -0.13300
N 	N 	0.81500 0.56520 0.94040 -0.26600
N 	N 	0.64700 0.21440 0.66260 -0.27000
N 	N 	0.20010 0.41900 0.79794 -0.27100
