data_crystal

_cell_length_a 13.06300
_cell_length_b 9.90170
_cell_length_c 17.47200
_cell_angle_alpha 90.00000
_cell_angle_beta  90.00000
_cell_angle_gamma 90.00000

_symmetry_space_group_name_	'P 1'
_symmetry_space_group_name_H-M	'P 1'

loop_
_symmetry_equiv_pos_as_xyz
  x,y,z

loop_
_atom_site_label
_atom_site_type_symbol
_atom_site_fract_x
_atom_site_fract_y
_atom_site_fract_z
_atom_site_charge
O 	O 	0.15010 0.05240 0.91770 -0.38900
O 	O 	0.22620 0.24040 0.88150 -0.32200
N 	N 	0.86190 0.50450 0.26060 -0.23000
N 	N 	0.01270 0.54900 0.20700 -0.09100
N 	N 	0.96370 0.45130 0.16720 -0.12000
C 	C 	0.94840 0.57730 0.26340 0.10900
H 	H 	0.96190 0.64120 0.30110 0.01000
C 	C 	0.87470 0.42860 0.19910 0.10700
H 	H 	0.82680 0.36710 0.18090 0.00700
C 	C 	0.01180 0.38510 0.10430 0.17300
C 	C 	0.09510 0.44240 0.06990 -0.19400
H 	H 	0.12020 0.52510 0.08680 0.11800
C 	C 	0.97570 0.26370 0.08060 -0.17700
H 	H 	0.91820 0.22610 0.10360 0.10100
C 	C 	0.14120 0.37570 0.00980 0.09900
H 	H 	0.19570 0.41680 0.98470 0.01400
C 	C 	0.02530 0.19550 0.02120 0.08300
H 	H 	0.00140 0.11160 0.00530 0.01400
C 	C 	0.10950 0.25200 0.98630 -0.14300
C 	C 	0.16560 0.17830 0.92540 0.33000
O 	O 	0.34990 0.94760 0.91770 -0.34900
O 	O 	0.27380 0.75960 0.88150 -0.31300
N 	N 	0.63810 0.49550 0.26060 -0.23100
N 	N 	0.48730 0.45100 0.20700 -0.08800
N 	N 	0.53630 0.54870 0.16720 -0.12700
C 	C 	0.55160 0.42270 0.26340 0.10400
H 	H 	0.53810 0.35880 0.30110 0.00900
C 	C 	0.62530 0.57140 0.19910 0.11000
H 	H 	0.67320 0.63290 0.18090 0.00800
C 	C 	0.48820 0.61490 0.10430 0.19900
C 	C 	0.40490 0.55760 0.06990 -0.21000
H 	H 	0.37980 0.47490 0.08680 0.12200
C 	C 	0.52430 0.73630 0.08060 -0.20300
H 	H 	0.58180 0.77390 0.10360 0.12300
C 	C 	0.35880 0.62430 0.00980 0.11700
H 	H 	0.30430 0.58320 0.98470 0.00800
C 	C 	0.47470 0.80450 0.02120 0.11000
H 	H 	0.49860 0.88840 0.00530 0.03200
C 	C 	0.39050 0.74800 0.98630 -0.14900
C 	C 	0.33440 0.82170 0.92540 0.33200
O 	O 	0.65010 0.44760 0.41770 -0.38000
O 	O 	0.72620 0.25960 0.38150 -0.33200
N 	N 	0.36190 0.99550 0.76060 -0.19800
N 	N 	0.51270 0.95100 0.70700 -0.06800
N 	N 	0.46370 0.04870 0.66720 -0.15000
C 	C 	0.44840 0.92270 0.76340 0.11300
H 	H 	0.46190 0.85880 0.80110 0.01100
C 	C 	0.37470 0.07140 0.69910 0.06100
H 	H 	0.32680 0.13290 0.68090 0.01700
C 	C 	0.51180 0.11490 0.60430 0.26600
C 	C 	0.59510 0.05760 0.56990 -0.37600
H 	H 	0.62020 0.97490 0.58680 0.20800
C 	C 	0.47570 0.23630 0.58060 -0.27500
H 	H 	0.41820 0.27390 0.60360 0.13900
C 	C 	0.64120 0.12430 0.50980 0.22500
H 	H 	0.69570 0.08320 0.48470 -0.04400
C 	C 	0.52530 0.30450 0.52120 0.17400
H 	H 	0.50140 0.38840 0.50530 -0.00400
C 	C 	0.60950 0.24800 0.48630 -0.22300
C 	C 	0.66560 0.32170 0.42540 0.35900
O 	O 	0.84990 0.55240 0.41770 -0.36900
O 	O 	0.77380 0.74040 0.38150 -0.30900
N 	N 	0.13810 0.00450 0.76060 -0.25900
N 	N 	0.98730 0.04900 0.70700 -0.10300
N 	N 	0.03630 0.95130 0.66720 -0.10900
C 	C 	0.05160 0.07730 0.76340 0.09100
H 	H 	0.03810 0.14120 0.80110 0.01000
C 	C 	0.12530 0.92860 0.69910 0.15900
H 	H 	0.17320 0.86710 0.68090 -0.00300
C 	C 	0.98820 0.88510 0.60430 0.15100
C 	C 	0.90490 0.94240 0.56990 -0.07000
H 	H 	0.87980 0.02510 0.58680 0.04800
C 	C 	0.02430 0.76370 0.58060 -0.16500
H 	H 	0.08180 0.72610 0.60360 0.10300
C 	C 	0.85880 0.87570 0.50980 0.03300
H 	H 	0.80430 0.91680 0.48470 0.05100
C 	C 	0.97470 0.69550 0.52120 0.07000
H 	H 	0.99860 0.61160 0.50530 0.03500
C 	C 	0.89050 0.75200 0.48630 -0.10400
C 	C 	0.83440 0.67830 0.42540 0.31600
Cu	Cu	0.75000 0.50000 0.33823 0.91000
Cu	Cu	0.25000 0.00000 0.83823 0.89100
O 	O 	0.34990 0.55240 0.58230 -0.36900
O 	O 	0.27380 0.74040 0.61850 -0.30900
N 	N 	0.63810 0.00450 0.23940 -0.25800
N 	N 	0.48730 0.04900 0.29300 -0.10700
N 	N 	0.53630 0.95130 0.33280 -0.10500
C 	C 	0.55160 0.07730 0.23660 0.09500
H 	H 	0.53810 0.14120 0.19890 0.00900
C 	C 	0.62530 0.92860 0.30090 0.15700
H 	H 	0.67320 0.86710 0.31910 -0.00200
C 	C 	0.48820 0.88510 0.39570 0.13800
C 	C 	0.40490 0.94240 0.43010 -0.05600
H 	H 	0.37980 0.02510 0.41320 0.04200
C 	C 	0.52430 0.76370 0.41940 -0.14800
H 	H 	0.58180 0.72610 0.39640 0.09800
C 	C 	0.35880 0.87570 0.49020 0.02200
H 	H 	0.30430 0.91680 0.51530 0.05500
C 	C 	0.47470 0.69550 0.47880 0.05600
H 	H 	0.49860 0.61160 0.49470 0.03900
C 	C 	0.39050 0.75200 0.51370 -0.09500
C 	C 	0.33440 0.67830 0.57460 0.31300
O 	O 	0.15010 0.44760 0.58230 -0.37900
O 	O 	0.22620 0.25960 0.61850 -0.33100
N 	N 	0.86190 0.99550 0.23940 -0.19900
N 	N 	0.01270 0.95100 0.29300 -0.07200
N 	N 	0.96370 0.04870 0.33280 -0.14400
C 	C 	0.94840 0.92270 0.23660 0.11600
H 	H 	0.96190 0.85880 0.19890 0.01100
C 	C 	0.87470 0.07140 0.30090 0.06100
H 	H 	0.82680 0.13290 0.31910 0.01800
C 	C 	0.01180 0.11490 0.39570 0.24500
C 	C 	0.09510 0.05760 0.43010 -0.36200
H 	H 	0.12020 0.97490 0.41320 0.20300
C 	C 	0.97570 0.23630 0.41940 -0.24700
H 	H 	0.91820 0.27390 0.39640 0.13000
C 	C 	0.14120 0.12430 0.49020 0.21100
H 	H 	0.19570 0.08320 0.51530 -0.04000
C 	C 	0.02530 0.30450 0.47880 0.15200
H 	H 	0.00140 0.38840 0.49470 0.00200
C 	C 	0.10950 0.24800 0.51370 -0.21100
C 	C 	0.16560 0.32170 0.57460 0.35400
O 	O 	0.84990 0.94760 0.08230 -0.34800
O 	O 	0.77380 0.75960 0.11850 -0.31100
N 	N 	0.13810 0.49550 0.73940 -0.23100
N 	N 	0.98730 0.45100 0.79300 -0.08600
N 	N 	0.03630 0.54870 0.83280 -0.12700
C 	C 	0.05160 0.42270 0.73660 0.10200
H 	H 	0.03810 0.35880 0.69890 0.00900
C 	C 	0.12530 0.57140 0.80090 0.11000
H 	H 	0.17320 0.63290 0.81910 0.00800
C 	C 	0.98820 0.61490 0.89570 0.19600
C 	C 	0.90490 0.55760 0.93010 -0.20100
H 	H 	0.87980 0.47490 0.91320 0.11900
C 	C 	0.02430 0.73630 0.91940 -0.19800
H 	H 	0.08180 0.77390 0.89640 0.12100
C 	C 	0.85880 0.62430 0.99020 0.10200
H 	H 	0.80430 0.58320 0.01530 0.01500
C 	C 	0.97470 0.80450 0.97880 0.10000
H 	H 	0.99860 0.88840 0.99470 0.03400
C 	C 	0.89050 0.74800 0.01370 -0.13500
C 	C 	0.83440 0.82170 0.07460 0.32700
O 	O 	0.65010 0.05240 0.08230 -0.39100
O 	O 	0.72620 0.24040 0.11850 -0.32400
N 	N 	0.36190 0.50450 0.73940 -0.23100
N 	N 	0.51270 0.54900 0.79300 -0.08700
N 	N 	0.46370 0.45130 0.83280 -0.12800
C 	C 	0.44840 0.57730 0.73660 0.10400
H 	H 	0.46190 0.64120 0.69890 0.01100
C 	C 	0.37470 0.42860 0.80090 0.10800
H 	H 	0.32680 0.36710 0.81910 0.00600
C 	C 	0.51180 0.38510 0.89570 0.20100
C 	C 	0.59510 0.44240 0.93010 -0.21700
H 	H 	0.62020 0.52510 0.91320 0.12600
C 	C 	0.47570 0.26370 0.91940 -0.21600
H 	H 	0.41820 0.22610 0.89640 0.11300
C 	C 	0.64120 0.37570 0.99020 0.12000
H 	H 	0.69570 0.41680 0.01530 0.00700
C 	C 	0.52530 0.19550 0.97880 0.11400
H 	H 	0.50140 0.11160 0.99470 0.00500
C 	C 	0.60950 0.25200 0.01370 -0.16200
C 	C 	0.66560 0.17830 0.07460 0.33700
Cu	Cu	0.75000 0.00000 0.16177 0.89200
Cu	Cu	0.25000 0.50000 0.66177 0.91000
