data_crystal

_cell_length_a 15.62900
_cell_length_b 15.99100
_cell_length_c 9.23430
_cell_angle_alpha 90.00000
_cell_angle_beta  102.77400
_cell_angle_gamma 90.00000

_symmetry_space_group_name_	'P 1'
_symmetry_space_group_name_H-M	'P 1'

loop_
_symmetry_equiv_pos_as_xyz
  x,y,z

loop_
_atom_site_label
_atom_site_type_symbol
_atom_site_fract_x
_atom_site_fract_y
_atom_site_fract_z
_atom_site_charge
O 	O 	0.88982 0.57855 0.57200 -0.38200
O 	O 	0.90120 0.50132 0.77430 -0.39100
N 	N 	0.54096 0.86386 0.95050 -0.14200
N 	N 	0.55930 0.72467 0.97390 -0.02800
N 	N 	0.61111 0.75756 0.88670 -0.12000
C 	C 	0.51870 0.79120 0.00750 -0.05000
H 	H 	0.47750 0.78860 0.06620 0.04400
C 	C 	0.59950 0.83960 0.87530 0.11800
H 	H 	0.62840 0.87500 0.82210 0.04000
C 	C 	0.67240 0.70670 0.83170 0.21300
C 	C 	0.69420 0.62890 0.89210 -0.21400
H 	H 	0.66740 0.60840 0.96530 0.14100
C 	C 	0.71280 0.73750 0.72510 -0.22000
H 	H 	0.69890 0.79070 0.68610 0.13600
C 	C 	0.75570 0.58180 0.84360 0.13000
H 	H 	0.76960 0.52880 0.88360 0.01300
C 	C 	0.77440 0.68900 0.67570 0.13700
H 	H 	0.80030 0.70910 0.60110 0.00500
C 	C 	0.79740 0.61136 0.73670 -0.17800
C 	C 	0.86810 0.56050 0.69020 0.37600
O 	O 	0.38982 0.07855 0.57200 -0.44200
O 	O 	0.40120 0.00132 0.77430 -0.47800
N 	N 	0.04096 0.36386 0.95050 -0.15000
N 	N 	0.05930 0.22467 0.97390 -0.01900
N 	N 	0.11111 0.25756 0.88670 -0.12500
C 	C 	0.01870 0.29120 0.00750 -0.22700
H 	H 	0.97750 0.28860 0.06620 0.15400
C 	C 	0.09950 0.33960 0.87530 0.11200
H 	H 	0.12840 0.37500 0.82210 0.00600
C 	C 	0.17240 0.20670 0.83170 0.20100
C 	C 	0.19420 0.12890 0.89210 -0.22900
H 	H 	0.16740 0.10840 0.96530 0.11700
C 	C 	0.21280 0.23750 0.72510 -0.22900
H 	H 	0.19890 0.29070 0.68610 0.12300
C 	C 	0.25570 0.08180 0.84360 0.13600
H 	H 	0.26960 0.02880 0.88360 -0.02900
C 	C 	0.27440 0.18900 0.67570 0.14000
H 	H 	0.30030 0.20910 0.60110 -0.00800
C 	C 	0.29740 0.11136 0.73670 -0.21000
C 	C 	0.36810 0.06050 0.69020 0.38700
O 	O 	0.11018 0.57855 0.92800 -0.38400
O 	O 	0.09880 0.50132 0.72570 -0.44700
N 	N 	0.45904 0.86386 0.54950 -0.20200
N 	N 	0.44070 0.72467 0.52610 -0.09000
N 	N 	0.38889 0.75756 0.61330 -0.12200
C 	C 	0.48130 0.79120 0.49250 0.10000
H 	H 	0.52250 0.78860 0.43380 0.00600
C 	C 	0.40050 0.83960 0.62470 0.10600
H 	H 	0.37160 0.87500 0.67790 0.03900
C 	C 	0.32760 0.70670 0.66830 0.20900
C 	C 	0.30580 0.62890 0.60790 -0.21600
H 	H 	0.33260 0.60840 0.53470 0.12400
C 	C 	0.28720 0.73750 0.77490 -0.21900
H 	H 	0.30110 0.79070 0.81390 0.14400
C 	C 	0.24430 0.58180 0.65640 0.12900
H 	H 	0.23040 0.52880 0.61640 -0.00100
C 	C 	0.22560 0.68900 0.82430 0.13900
H 	H 	0.19970 0.70910 0.89890 0.01600
C 	C 	0.20260 0.61136 0.76330 -0.18100
C 	C 	0.13190 0.56050 0.80980 0.38200
O 	O 	0.61018 0.07855 0.92800 -0.40500
O 	O 	0.59880 0.00132 0.72570 -0.49000
N 	N 	0.95904 0.36386 0.54950 -0.22900
N 	N 	0.94070 0.22467 0.52610 -0.11100
N 	N 	0.88889 0.25756 0.61330 -0.12400
C 	C 	0.98130 0.29120 0.49250 0.25700
H 	H 	0.02250 0.28860 0.43380 -0.11000
C 	C 	0.90050 0.33960 0.62470 0.11500
H 	H 	0.87160 0.37500 0.67790 0.01300
C 	C 	0.82760 0.20670 0.66830 0.22000
C 	C 	0.80580 0.12890 0.60790 -0.23800
H 	H 	0.83260 0.10840 0.53470 0.11800
C 	C 	0.78720 0.23750 0.77490 -0.23100
H 	H 	0.80110 0.29070 0.81390 0.14300
C 	C 	0.74430 0.08180 0.65640 0.14400
H 	H 	0.73040 0.02880 0.61640 -0.04200
C 	C 	0.72560 0.18900 0.82430 0.15100
H 	H 	0.69970 0.20910 0.89890 0.00800
C 	C 	0.70260 0.11136 0.76330 -0.20800
C 	C 	0.63190 0.06050 0.80980 0.39000
O 	O 	0.11018 0.42145 0.42800 -0.42100
O 	O 	0.09880 0.49868 0.22570 -0.46700
N 	N 	0.45904 0.13614 0.04950 -0.30100
N 	N 	0.44070 0.27533 0.02610 -0.15500
N 	N 	0.38889 0.24244 0.11330 -0.13100
C 	C 	0.48130 0.20880 0.99250 0.26100
H 	H 	0.52250 0.21140 0.93380 -0.03200
C 	C 	0.40050 0.16040 0.12470 0.08900
H 	H 	0.37160 0.12500 0.17790 -0.02900
C 	C 	0.32760 0.29330 0.16830 0.18700
C 	C 	0.30580 0.37110 0.10790 -0.22300
H 	H 	0.33260 0.39160 0.03470 0.10600
C 	C 	0.28720 0.26250 0.27490 -0.22500
H 	H 	0.30110 0.20930 0.31390 0.10600
C 	C 	0.24430 0.41820 0.15640 0.12000
H 	H 	0.23040 0.47120 0.11640 -0.02000
C 	C 	0.22560 0.31100 0.32430 0.12800
H 	H 	0.19970 0.29090 0.39890 -0.01000
C 	C 	0.20260 0.38864 0.26330 -0.19800
C 	C 	0.13190 0.43950 0.30980 0.38400
O 	O 	0.61018 0.92145 0.42800 -0.35500
O 	O 	0.59880 0.99868 0.22570 -0.37000
N 	N 	0.95904 0.63614 0.04950 -0.28000
N 	N 	0.94070 0.77533 0.02610 -0.14800
N 	N 	0.88889 0.74244 0.11330 -0.12500
C 	C 	0.98130 0.70880 0.99250 0.39300
H 	H 	0.02250 0.71140 0.93380 -0.12400
C 	C 	0.90050 0.66040 0.12470 0.09900
H 	H 	0.87160 0.62500 0.17790 0.00600
C 	C 	0.82760 0.79330 0.16830 0.20200
C 	C 	0.80580 0.87110 0.10790 -0.20700
H 	H 	0.83260 0.89160 0.03470 0.13400
C 	C 	0.78720 0.76250 0.27490 -0.21500
H 	H 	0.80110 0.70930 0.31390 0.12000
C 	C 	0.74430 0.91820 0.15640 0.11500
H 	H 	0.73040 0.97120 0.11640 0.02600
C 	C 	0.72560 0.81100 0.32430 0.12500
H 	H 	0.69970 0.79090 0.39890 0.00300
C 	C 	0.70260 0.88864 0.26330 -0.16300
C 	C 	0.63190 0.93950 0.30980 0.37100
O 	O 	0.88982 0.42145 0.07200 -0.40900
O 	O 	0.90120 0.49868 0.27430 -0.41300
N 	N 	0.54096 0.13614 0.45050 -0.24100
N 	N 	0.55930 0.27533 0.47390 -0.08900
N 	N 	0.61111 0.24244 0.38670 -0.12800
C 	C 	0.51870 0.20880 0.50750 0.10000
H 	H 	0.47750 0.21140 0.56620 0.00900
C 	C 	0.59950 0.16040 0.37530 0.10300
H 	H 	0.62840 0.12500 0.32210 -0.02800
C 	C 	0.67240 0.29330 0.33170 0.19300
C 	C 	0.69420 0.37110 0.39210 -0.22000
H 	H 	0.66740 0.39160 0.46530 0.12400
C 	C 	0.71280 0.26250 0.22510 -0.22600
H 	H 	0.69890 0.20930 0.18610 0.09800
C 	C 	0.75570 0.41820 0.34360 0.12200
H 	H 	0.76960 0.47120 0.38360 -0.00500
C 	C 	0.77440 0.31100 0.17570 0.12600
H 	H 	0.80030 0.29090 0.10110 -0.02000
C 	C 	0.79740 0.38864 0.23670 -0.19500
C 	C 	0.86810 0.43950 0.19020 0.37800
O 	O 	0.38982 0.92145 0.07200 -0.38400
O 	O 	0.40120 0.99868 0.27430 -0.36400
N 	N 	0.04096 0.63614 0.45050 -0.21700
N 	N 	0.05930 0.77533 0.47390 -0.06900
N 	N 	0.11111 0.74244 0.38670 -0.12700
C 	C 	0.01870 0.70880 0.50750 -0.05700
H 	H 	0.97750 0.71140 0.56620 0.12300
C 	C 	0.09950 0.66040 0.37530 0.09300
H 	H 	0.12840 0.62500 0.32210 -0.00200
C 	C 	0.17240 0.79330 0.33170 0.18100
C 	C 	0.19420 0.87110 0.39210 -0.19800
H 	H 	0.16740 0.89160 0.46530 0.13000
C 	C 	0.21280 0.76250 0.22510 -0.21300
H 	H 	0.19890 0.70930 0.18610 0.09900
C 	C 	0.25570 0.91820 0.34360 0.10500
H 	H 	0.26960 0.97120 0.38360 0.03500
C 	C 	0.27440 0.81100 0.17570 0.11300
H 	H 	0.30030 0.79090 0.10110 -0.01200
C 	C 	0.29740 0.88864 0.23670 -0.16500
C 	C 	0.36810 0.93950 0.19020 0.36800
Cd	Cd	0.50000 0.00000 -0.00000 1.16700
Cd	Cd	0.00000 0.50000 -0.00000 1.18200
Cd	Cd	0.50000 -0.00000 0.50000 1.19000
Cd	Cd	0.00000 0.50000 0.50000 1.20600
