data_crystal

_cell_length_a 11.83260
_cell_length_b 11.83260
_cell_length_c 16.44400
_cell_angle_alpha 73.15830
_cell_angle_beta  73.15830
_cell_angle_gamma 78.86840

_symmetry_space_group_name_	'P 1'
_symmetry_space_group_name_H-M	'P 1'

loop_
_symmetry_equiv_pos_as_xyz
  x,y,z

loop_
_atom_site_label
_atom_site_type_symbol
_atom_site_fract_x
_atom_site_fract_y
_atom_site_fract_z
_atom_site_charge
Mn	Mn	0.83611 0.61985 0.04414 1.26900
Mn	Mn	0.38015 0.16389 0.45586 1.26900
Mn	Mn	0.16389 0.38015 0.95586 1.26900
Mn	Mn	0.61985 0.83611 0.54414 1.26900
H 	H 	0.66450 0.81350 0.27310 0.04700
H 	H 	0.45190 0.16650 0.03820 0.12700
H 	H 	0.57230 0.98130 0.04780 0.07000
H 	H 	0.37420 0.26780 0.17250 0.09500
H 	H 	0.36170 0.32990 0.07700 0.08300
H 	H 	0.48460 0.14000 0.24720 0.06200
H 	H 	0.63900 0.28860 0.00980 0.11000
H 	H 	0.42180 0.46320 0.17730 0.11300
H 	H 	0.77460 0.41600 0.98420 -0.03300
H 	H 	0.56490 0.58330 0.14920 -0.02500
H 	H 	0.18650 0.33550 0.22690 0.04800
H 	H 	0.83350 0.54810 0.46180 0.12800
H 	H 	0.01870 0.42770 0.45220 0.07100
H 	H 	0.73220 0.62580 0.32750 0.09600
H 	H 	0.67010 0.63830 0.42300 0.08400
H 	H 	0.86000 0.51540 0.25280 0.06300
H 	H 	0.71140 0.36100 0.49020 0.11100
H 	H 	0.53680 0.57820 0.32270 0.11500
H 	H 	0.58400 0.22540 0.51580 -0.03400
H 	H 	0.41670 0.43510 0.35080 -0.02500
H 	H 	0.33550 0.18650 0.72690 0.04800
H 	H 	0.54810 0.83350 0.96180 0.12800
H 	H 	0.42770 0.01870 0.95220 0.07100
H 	H 	0.62580 0.73220 0.82750 0.09600
H 	H 	0.63830 0.67010 0.92300 0.08400
H 	H 	0.51540 0.86000 0.75280 0.06300
H 	H 	0.36100 0.71140 0.99020 0.11100
H 	H 	0.57820 0.53680 0.82270 0.11400
H 	H 	0.22540 0.58400 0.01580 -0.03300
H 	H 	0.43510 0.41670 0.85080 -0.02500
H 	H 	0.81350 0.66450 0.77310 0.04800
H 	H 	0.16650 0.45190 0.53820 0.12800
H 	H 	0.98130 0.57230 0.54780 0.07100
H 	H 	0.26780 0.37420 0.67250 0.09600
H 	H 	0.32990 0.36170 0.57700 0.08400
H 	H 	0.14000 0.48460 0.74720 0.06300
H 	H 	0.28860 0.63900 0.50980 0.11100
H 	H 	0.46320 0.42180 0.67730 0.11500
H 	H 	0.41600 0.77460 0.48420 -0.03400
H 	H 	0.58330 0.56490 0.64920 -0.02500
C 	C 	0.57070 0.97370 0.27460 -0.08300
C 	C 	0.51570 0.07770 0.13820 0.10300
C 	C 	0.62880 0.88260 0.15340 -0.04500
C 	C 	0.62720 0.87940 0.23960 -0.00500
C 	C 	0.56970 0.97270 0.36670 0.37800
C 	C 	0.69350 0.78270 0.11460 0.26800
C 	C 	0.51300 0.35980 0.09830 0.18500
C 	C 	0.57240 0.98040 0.10450 -0.09700
C 	C 	0.41740 0.28460 0.11120 -0.17300
C 	C 	0.51820 0.07460 0.22420 -0.07600
C 	C 	0.62120 0.34760 0.04010 -0.22000
C 	C 	0.49450 0.44950 0.13830 -0.23400
C 	C 	0.70380 0.42340 0.02660 0.12100
C 	C 	0.58260 0.52120 0.12190 0.13900
C 	C 	0.02630 0.42930 0.22540 -0.08200
C 	C 	0.92230 0.48430 0.36180 0.10200
C 	C 	0.11740 0.37120 0.34660 -0.04500
C 	C 	0.12060 0.37280 0.26040 -0.00500
C 	C 	0.02730 0.43030 0.13330 0.37900
C 	C 	0.21730 0.30650 0.38540 0.26800
C 	C 	0.64020 0.48700 0.40170 0.18600
C 	C 	0.01960 0.42760 0.39550 -0.09600
C 	C 	0.71540 0.58260 0.38880 -0.17400
C 	C 	0.92540 0.48180 0.27580 -0.07800
C 	C 	0.65240 0.37880 0.45990 -0.22100
C 	C 	0.55050 0.50550 0.36170 -0.23500
C 	C 	0.57660 0.29620 0.47340 0.12300
C 	C 	0.47880 0.41740 0.37810 0.14000
C 	C 	0.42930 0.02630 0.72540 -0.08300
C 	C 	0.48430 0.92230 0.86180 0.10300
C 	C 	0.37120 0.11740 0.84660 -0.04500
C 	C 	0.37280 0.12060 0.76040 -0.00500
C 	C 	0.43030 0.02730 0.63330 0.37800
C 	C 	0.30650 0.21730 0.88540 0.26800
C 	C 	0.48700 0.64020 0.90170 0.18500
C 	C 	0.42760 0.01960 0.89550 -0.09700
C 	C 	0.58260 0.71540 0.88880 -0.17300
C 	C 	0.48180 0.92540 0.77580 -0.07600
C 	C 	0.37880 0.65240 0.95990 -0.22000
C 	C 	0.50550 0.55050 0.86170 -0.23400
C 	C 	0.29620 0.57660 0.97340 0.12100
C 	C 	0.41740 0.47880 0.87810 0.13900
C 	C 	0.97370 0.57070 0.77460 -0.08200
C 	C 	0.07770 0.51570 0.63820 0.10200
C 	C 	0.88260 0.62880 0.65340 -0.04500
C 	C 	0.87940 0.62720 0.73960 -0.00500
C 	C 	0.97270 0.56970 0.86670 0.37900
C 	C 	0.78270 0.69350 0.61460 0.26800
C 	C 	0.35980 0.51300 0.59830 0.18600
C 	C 	0.98040 0.57240 0.60450 -0.09600
C 	C 	0.28460 0.41740 0.61120 -0.17400
C 	C 	0.07460 0.51820 0.72420 -0.07800
C 	C 	0.34760 0.62120 0.54010 -0.22100
C 	C 	0.44950 0.49450 0.63830 -0.23500
C 	C 	0.42340 0.70380 0.52660 0.12300
C 	C 	0.52120 0.58260 0.62190 0.14000
N 	N 	0.68870 0.50690 0.07050 -0.25500
N 	N 	0.46070 0.17330 0.08660 -0.17900
N 	N 	0.49310 0.31130 0.42950 -0.25500
N 	N 	0.82670 0.53930 0.41340 -0.17800
N 	N 	0.31130 0.49310 0.92950 -0.25500
N 	N 	0.53930 0.82670 0.91340 -0.17900
N 	N 	0.50690 0.68870 0.57050 -0.25500
N 	N 	0.17330 0.46070 0.58660 -0.17800
O 	O 	0.74430 0.69290 0.16070 -0.40100
O 	O 	0.69950 0.78810 0.03510 -0.38500
O 	O 	0.61570 0.87770 0.41090 -0.46700
O 	O 	0.52910 0.06470 0.39290 -0.49900
O 	O 	0.30710 0.25570 0.33930 -0.40100
O 	O 	0.21190 0.30050 0.46490 -0.38500
O 	O 	0.12230 0.38430 0.08910 -0.46600
O 	O 	0.93530 0.47090 0.10710 -0.50000
O 	O 	0.25570 0.30710 0.83930 -0.40100
O 	O 	0.30050 0.21190 0.96490 -0.38500
O 	O 	0.38430 0.12230 0.58910 -0.46700
O 	O 	0.47090 0.93530 0.60710 -0.49900
O 	O 	0.69290 0.74430 0.66070 -0.40100
O 	O 	0.78810 0.69950 0.53510 -0.38500
O 	O 	0.87770 0.61570 0.91090 -0.46600
O 	O 	0.06470 0.52910 0.89290 -0.50000
