data_crystal

_cell_length_a 11.86470
_cell_length_b 11.86470
_cell_length_c 16.34300
_cell_angle_alpha 73.31140
_cell_angle_beta  73.31140
_cell_angle_gamma 78.75110

_symmetry_space_group_name_	'P 1'
_symmetry_space_group_name_H-M	'P 1'

loop_
_symmetry_equiv_pos_as_xyz
  x,y,z

loop_
_atom_site_label
_atom_site_type_symbol
_atom_site_fract_x
_atom_site_fract_y
_atom_site_fract_z
_atom_site_charge
Mn	Mn	0.83328 0.61570 0.54688 1.26900
Mn	Mn	0.38430 0.16672 0.95312 1.26900
Mn	Mn	0.16672 0.38430 0.45312 1.26900
Mn	Mn	0.61570 0.83328 0.04688 1.26900
H 	H 	0.16520 0.45320 0.03660 0.12900
H 	H 	0.81270 0.66350 0.27480 0.04900
H 	H 	0.14130 0.48530 0.24520 0.06100
H 	H 	0.32630 0.36190 0.07620 0.08200
H 	H 	0.26520 0.37640 0.17170 0.09400
H 	H 	0.97960 0.57680 0.04580 0.07200
H 	H 	0.45730 0.42250 0.18010 0.11300
H 	H 	0.29310 0.63710 0.00150 0.10900
H 	H 	0.57570 0.56570 0.15260 -0.02400
H 	H 	0.41090 0.77550 0.98440 -0.03200
H 	H 	0.54680 0.83480 0.46340 0.12800
H 	H 	0.33650 0.18730 0.22520 0.04900
H 	H 	0.51470 0.85870 0.25480 0.06100
H 	H 	0.63810 0.67370 0.42380 0.08100
H 	H 	0.62360 0.73480 0.32830 0.09400
H 	H 	0.42320 0.02040 0.45420 0.07200
H 	H 	0.57750 0.54270 0.31990 0.11300
H 	H 	0.36290 0.70690 0.49850 0.10900
H 	H 	0.43430 0.42430 0.34740 -0.02400
H 	H 	0.22450 0.58910 0.51560 -0.03300
H 	H 	0.83480 0.54680 0.96340 0.12900
H 	H 	0.18730 0.33650 0.72520 0.04900
H 	H 	0.85870 0.51470 0.75480 0.06100
H 	H 	0.67370 0.63810 0.92380 0.08200
H 	H 	0.73480 0.62360 0.82830 0.09400
H 	H 	0.02040 0.42320 0.95420 0.07200
H 	H 	0.54270 0.57750 0.81990 0.11300
H 	H 	0.70690 0.36290 0.99850 0.10900
H 	H 	0.42430 0.43430 0.84740 -0.02400
H 	H 	0.58910 0.22450 0.01560 -0.03200
H 	H 	0.45320 0.16520 0.53660 0.12800
H 	H 	0.66350 0.81270 0.77480 0.04900
H 	H 	0.48530 0.14130 0.74520 0.06100
H 	H 	0.36190 0.32630 0.57620 0.08100
H 	H 	0.37640 0.26520 0.67170 0.09400
H 	H 	0.57680 0.97960 0.54580 0.07200
H 	H 	0.42250 0.45730 0.68010 0.11300
H 	H 	0.63710 0.29310 0.50150 0.10900
H 	H 	0.56570 0.57570 0.65260 -0.02400
H 	H 	0.77550 0.41090 0.48440 -0.03300
C 	C 	0.97580 0.57420 0.27420 -0.08400
C 	C 	0.07780 0.51780 0.13620 0.10600
C 	C 	0.88060 0.62720 0.15480 -0.04000
C 	C 	0.87880 0.62760 0.24060 -0.00800
C 	C 	0.77760 0.69080 0.11660 0.26600
C 	C 	0.35850 0.51270 0.09630 0.17600
C 	C 	0.07580 0.52000 0.22240 -0.07800
C 	C 	0.97560 0.57380 0.36610 0.37600
C 	C 	0.28210 0.41850 0.11000 -0.16500
C 	C 	0.97910 0.57450 0.10330 -0.10000
C 	C 	0.44530 0.49410 0.13950 -0.22800
C 	C 	0.34840 0.62100 0.03500 -0.21400
C 	C 	0.51590 0.58210 0.12310 0.13300
C 	C 	0.42050 0.70310 0.02480 0.12300
C 	C 	0.42580 0.02420 0.22580 -0.08300
C 	C 	0.48220 0.92220 0.36380 0.10400
C 	C 	0.37280 0.11940 0.34520 -0.04000
C 	C 	0.37240 0.12120 0.25940 -0.00800
C 	C 	0.30920 0.22240 0.38340 0.26600
C 	C 	0.48730 0.64150 0.40370 0.17700
C 	C 	0.48000 0.92420 0.27760 -0.07900
C 	C 	0.42620 0.02440 0.13390 0.37800
C 	C 	0.58150 0.71790 0.39000 -0.16500
C 	C 	0.42550 0.02090 0.39670 -0.09900
C 	C 	0.50590 0.55470 0.36050 -0.22800
C 	C 	0.37900 0.65160 0.46500 -0.21500
C 	C 	0.41790 0.48410 0.37690 0.13300
C 	C 	0.29690 0.57950 0.47520 0.12400
C 	C 	0.02420 0.42580 0.72580 -0.08400
C 	C 	0.92220 0.48220 0.86380 0.10600
C 	C 	0.11940 0.37280 0.84520 -0.04000
C 	C 	0.12120 0.37240 0.75940 -0.00800
C 	C 	0.22240 0.30920 0.88340 0.26600
C 	C 	0.64150 0.48730 0.90370 0.17600
C 	C 	0.92420 0.48000 0.77760 -0.07800
C 	C 	0.02440 0.42620 0.63390 0.37600
C 	C 	0.71790 0.58150 0.89000 -0.16500
C 	C 	0.02090 0.42550 0.89670 -0.10000
C 	C 	0.55470 0.50590 0.86050 -0.22800
C 	C 	0.65160 0.37900 0.96500 -0.21400
C 	C 	0.48410 0.41790 0.87690 0.13300
C 	C 	0.57950 0.29690 0.97520 0.12300
C 	C 	0.57420 0.97580 0.77420 -0.08300
C 	C 	0.51780 0.07780 0.63620 0.10400
C 	C 	0.62720 0.88060 0.65480 -0.04000
C 	C 	0.62760 0.87880 0.74060 -0.00800
C 	C 	0.69080 0.77760 0.61660 0.26600
C 	C 	0.51270 0.35850 0.59630 0.17700
C 	C 	0.52000 0.07580 0.72240 -0.07900
C 	C 	0.57380 0.97560 0.86610 0.37800
C 	C 	0.41850 0.28210 0.61000 -0.16500
C 	C 	0.57450 0.97910 0.60330 -0.09900
C 	C 	0.49410 0.44530 0.63950 -0.22800
C 	C 	0.62100 0.34840 0.53500 -0.21500
C 	C 	0.58210 0.51590 0.62310 0.13300
C 	C 	0.70310 0.42050 0.52480 0.12400
N 	N 	0.17220 0.46220 0.08530 -0.18000
N 	N 	0.50450 0.68730 0.06880 -0.25300
N 	N 	0.53780 0.82780 0.41470 -0.18000
N 	N 	0.31270 0.49550 0.43120 -0.25400
N 	N 	0.82780 0.53780 0.91470 -0.18000
N 	N 	0.49550 0.31270 0.93120 -0.25300
N 	N 	0.46220 0.17220 0.58530 -0.18000
N 	N 	0.68730 0.50450 0.56880 -0.25400
O 	O 	0.68850 0.73890 0.16380 -0.40400
O 	O 	0.78400 0.69780 0.03600 -0.38500
O 	O 	0.87950 0.61350 0.41190 -0.46800
O 	O 	0.06940 0.53620 0.39140 -0.49400
O 	O 	0.26110 0.31150 0.33620 -0.40400
O 	O 	0.30220 0.21600 0.46400 -0.38400
O 	O 	0.38650 0.12050 0.08810 -0.46700
O 	O 	0.46380 0.93060 0.10860 -0.49600
O 	O 	0.31150 0.26110 0.83620 -0.40400
O 	O 	0.21600 0.30220 0.96400 -0.38500
O 	O 	0.12050 0.38650 0.58810 -0.46800
O 	O 	0.93060 0.46380 0.60860 -0.49400
O 	O 	0.73890 0.68850 0.66380 -0.40400
O 	O 	0.69780 0.78400 0.53600 -0.38400
O 	O 	0.61350 0.87950 0.91190 -0.46700
O 	O 	0.53620 0.06940 0.89140 -0.49600
