data_crystal

_cell_length_a 11.88500
_cell_length_b 11.88500
_cell_length_c 16.34400
_cell_angle_alpha 73.48310
_cell_angle_beta  73.48310
_cell_angle_gamma 78.51000

_symmetry_space_group_name_	'P 1'
_symmetry_space_group_name_H-M	'P 1'

loop_
_symmetry_equiv_pos_as_xyz
  x,y,z

loop_
_atom_site_label
_atom_site_type_symbol
_atom_site_fract_x
_atom_site_fract_y
_atom_site_fract_z
_atom_site_charge
Mn	Mn	0.33250 0.11538 0.54706 1.26800
Mn	Mn	0.88462 0.66750 0.95294 1.26600
Mn	Mn	0.66750 0.88462 0.45294 1.26800
Mn	Mn	0.11538 0.33250 0.04706 1.26600
H 	H 	0.95270 0.66470 0.53680 0.12900
H 	H 	0.98710 0.64230 0.74490 0.05800
H 	H 	0.16380 0.31300 0.77460 0.04900
H 	H 	0.07520 0.47980 0.54640 0.07100
H 	H 	0.87760 0.76640 0.67180 0.09300
H 	H 	0.86190 0.82730 0.57660 0.08100
H 	H 	0.13420 0.79500 0.49970 0.10700
H 	H 	0.92220 0.95960 0.67920 0.11200
H 	H 	0.06790 0.07370 0.65460 -0.02300
H 	H 	0.27430 0.91310 0.48210 -0.03100
H 	H 	0.33530 0.04730 0.96320 0.13100
H 	H 	0.35770 0.01290 0.75510 0.06200
H 	H 	0.68700 0.83620 0.72540 0.04900
H 	H 	0.52020 0.92480 0.95360 0.07200
H 	H 	0.23360 0.12240 0.82820 0.09100
H 	H 	0.17270 0.13810 0.92340 0.08000
H 	H 	0.20500 0.86580 0.00030 0.10200
H 	H 	0.04040 0.07780 0.82080 0.10700
H 	H 	0.92630 0.93210 0.84540 -0.02000
H 	H 	0.08690 0.72570 0.01790 -0.03700
H 	H 	0.04730 0.33530 0.46320 0.12900
H 	H 	0.01290 0.35770 0.25510 0.05800
H 	H 	0.83620 0.68700 0.22540 0.04900
H 	H 	0.92480 0.52020 0.45360 0.07100
H 	H 	0.12240 0.23360 0.32820 0.09300
H 	H 	0.13810 0.17270 0.42340 0.08100
H 	H 	0.86580 0.20500 0.50030 0.10700
H 	H 	0.07780 0.04040 0.32080 0.11200
H 	H 	0.93210 0.92630 0.34540 -0.02300
H 	H 	0.72570 0.08690 0.51790 -0.03100
H 	H 	0.66470 0.95270 0.03680 0.13100
H 	H 	0.64230 0.98710 0.24490 0.06200
H 	H 	0.31300 0.16380 0.27460 0.04900
H 	H 	0.47980 0.07520 0.04640 0.07200
H 	H 	0.76640 0.87760 0.17180 0.09100
H 	H 	0.82730 0.86190 0.07660 0.08000
H 	H 	0.79500 0.13420 0.99970 0.10200
H 	H 	0.95960 0.92220 0.17920 0.10700
H 	H 	0.07370 0.06790 0.15460 -0.02000
H 	H 	0.91310 0.27430 0.98210 -0.03700
C 	C 	0.01830 0.57830 0.63650 0.10400
C 	C 	0.07450 0.47570 0.77440 -0.08400
C 	C 	0.18980 0.27760 0.61640 0.27100
C 	C 	0.12630 0.38070 0.65520 -0.04200
C 	C 	0.02100 0.57640 0.72230 -0.07400
C 	C 	0.12740 0.37900 0.74060 -0.00600
C 	C 	0.01340 0.85860 0.59580 0.17400
C 	C 	0.07340 0.47540 0.86650 0.37700
C 	C 	0.07370 0.47930 0.60370 -0.09800
C 	C 	0.91880 0.78280 0.61000 -0.16400
C 	C 	0.11920 0.84940 0.53390 -0.21000
C 	C 	0.99410 0.94650 0.63950 -0.22600
C 	C 	0.08280 0.01540 0.62370 0.13500
C 	C 	0.20260 0.92200 0.52320 0.11600
C 	C 	0.42170 0.98170 0.86350 0.10500
C 	C 	0.52430 0.92550 0.72560 -0.08300
C 	C 	0.72240 0.81020 0.88360 0.27100
C 	C 	0.61930 0.87370 0.84480 -0.04100
C 	C 	0.42360 0.97900 0.77770 -0.08000
C 	C 	0.62100 0.87260 0.75940 -0.00700
C 	C 	0.14140 0.98660 0.90420 0.16300
C 	C 	0.52460 0.92660 0.63350 0.37600
C 	C 	0.52070 0.92630 0.89630 -0.09900
C 	C 	0.21720 0.08120 0.89000 -0.15700
C 	C 	0.15060 0.88080 0.96610 -0.20300
C 	C 	0.05350 0.00590 0.86050 -0.20900
C 	C 	0.98460 0.91720 0.87630 0.12000
C 	C 	0.07800 0.79740 0.97680 0.12400
C 	C 	0.98170 0.42170 0.36350 0.10400
C 	C 	0.92550 0.52430 0.22560 -0.08400
C 	C 	0.81020 0.72240 0.38360 0.27100
C 	C 	0.87370 0.61930 0.34480 -0.04200
C 	C 	0.97900 0.42360 0.27770 -0.07400
C 	C 	0.87260 0.62100 0.25940 -0.00600
C 	C 	0.98660 0.14140 0.40420 0.17400
C 	C 	0.92660 0.52460 0.13350 0.37700
C 	C 	0.92630 0.52070 0.39630 -0.09800
C 	C 	0.08120 0.21720 0.39000 -0.16400
C 	C 	0.88080 0.15060 0.46610 -0.21000
C 	C 	0.00590 0.05350 0.36050 -0.22600
C 	C 	0.91720 0.98460 0.37630 0.13500
C 	C 	0.79740 0.07800 0.47680 0.11600
C 	C 	0.57830 0.01830 0.13650 0.10500
C 	C 	0.47570 0.07450 0.27440 -0.08300
C 	C 	0.27760 0.18980 0.11640 0.27100
C 	C 	0.38070 0.12630 0.15520 -0.04100
C 	C 	0.57640 0.02100 0.22230 -0.08000
C 	C 	0.37900 0.12740 0.24060 -0.00700
C 	C 	0.85860 0.01340 0.09580 0.16300
C 	C 	0.47540 0.07340 0.36650 0.37600
C 	C 	0.47930 0.07370 0.10370 -0.09900
C 	C 	0.78280 0.91880 0.11000 -0.15700
C 	C 	0.84940 0.11920 0.03390 -0.20300
C 	C 	0.94650 0.99410 0.13950 -0.20900
C 	C 	0.01540 0.08280 0.12370 0.12000
C 	C 	0.92200 0.20260 0.02320 0.12400
N 	N 	0.18630 0.00450 0.56850 -0.25200
N 	N 	0.96220 0.67220 0.58510 -0.18100
N 	N 	0.99550 0.81370 0.93150 -0.25300
N 	N 	0.32780 0.03780 0.91490 -0.18100
N 	N 	0.81370 0.99550 0.43150 -0.25200
N 	N 	0.03780 0.32780 0.41490 -0.18100
N 	N 	0.00450 0.18630 0.06850 -0.25300
N 	N 	0.67220 0.96220 0.08510 -0.18100
O 	O 	0.23750 0.18830 0.66440 -0.40300
O 	O 	0.19720 0.28280 0.53690 -0.39000
O 	O 	0.11440 0.38000 0.91120 -0.46500
O 	O 	0.03770 0.56990 0.89140 -0.49100
O 	O 	0.81170 0.76250 0.83560 -0.40300
O 	O 	0.71720 0.80280 0.96310 -0.39100
O 	O 	0.62000 0.88560 0.58880 -0.46700
O 	O 	0.43010 0.96230 0.60860 -0.49300
O 	O 	0.76250 0.81170 0.33560 -0.40300
O 	O 	0.80280 0.71720 0.46310 -0.39000
O 	O 	0.88560 0.62000 0.08880 -0.46500
O 	O 	0.96230 0.43010 0.10860 -0.49100
O 	O 	0.18830 0.23750 0.16440 -0.40300
O 	O 	0.28280 0.19720 0.03690 -0.39100
O 	O 	0.38000 0.11440 0.41120 -0.46700
O 	O 	0.56990 0.03770 0.39140 -0.49300
