data_crystal

_cell_length_a 7.24210
_cell_length_b 7.26660
_cell_length_c 7.26960
_cell_angle_alpha 90.00000
_cell_angle_beta  90.00000
_cell_angle_gamma 90.00000

_symmetry_space_group_name_	'P 1'
_symmetry_space_group_name_H-M	'P 1'

loop_
_symmetry_equiv_pos_as_xyz
  x,y,z

loop_
_atom_site_label
_atom_site_type_symbol
_atom_site_fract_x
_atom_site_fract_y
_atom_site_fract_z
_atom_site_charge
Fe	Fe	-0.00000 0.00000 -0.00000 1.02700
Ni	Ni	-0.00000 0.50000 0.50000 1.04900
H 	H 	0.65940 0.00000 0.73390 -0.00000
H 	H 	0.65940 0.00000 0.26610 0.01400
H 	H 	0.34060 0.00000 0.73390 -0.02800
H 	H 	0.34060 0.00000 0.26610 -0.01300
C 	C 	-0.00000 0.67570 0.68800 -0.21500
C 	C 	-0.00000 0.32430 0.31200 -0.26200
C 	C 	-0.00000 0.32430 0.68800 -0.24100
C 	C 	-0.00000 0.67570 0.31200 -0.23600
C 	C 	0.59690 0.00000 0.84560 0.05200
C 	C 	0.59690 0.00000 0.15440 -0.02000
C 	C 	0.40310 0.00000 0.84560 0.06500
C 	C 	0.40310 0.00000 0.15440 -0.01400
N 	N 	-0.00000 0.79490 0.79120 -0.12700
N 	N 	0.00000 0.20510 0.20880 -0.20600
N 	N 	-0.00000 0.20510 0.79120 -0.17400
N 	N 	0.00000 0.79490 0.20880 -0.15700
N 	N 	0.69270 0.00000 -0.00000 -0.23900
N 	N 	0.30730 0.00000 -0.00000 -0.27500
