data_crystal

_cell_length_a 10.93290
_cell_length_b 28.93400
_cell_length_c 15.03280
_cell_angle_alpha 90.00000
_cell_angle_beta  90.37000
_cell_angle_gamma 90.00000

_symmetry_space_group_name_	'P 1'
_symmetry_space_group_name_H-M	'P 1'

loop_
_symmetry_equiv_pos_as_xyz
  x,y,z

loop_
_atom_site_label
_atom_site_type_symbol
_atom_site_fract_x
_atom_site_fract_y
_atom_site_fract_z
_atom_site_charge
Co	Co	0.66199 0.00926 0.87251 1.19400
Co	Co	0.99731 0.89611 0.96828 1.17500
Co	Co	0.91908 0.02074 0.73177 1.18700
N 	N 	0.99320 0.83814 0.05723 -0.24000
N 	N 	0.00420 0.65169 0.36093 -0.23700
O 	O 	0.64570 0.95994 0.77074 -0.43100
O 	O 	0.79720 0.97581 0.67873 -0.46300
O 	O 	0.55561 0.87076 0.76173 -0.30100
O 	O 	0.04600 0.96765 0.73922 -0.42400
O 	O 	0.03612 0.95007 0.88164 -0.45600
O 	O 	0.17813 0.90317 0.00563 -0.41700
O 	O 	0.33454 0.95233 0.00522 -0.37900
O 	O 	0.65931 0.95366 0.96327 -0.38600
O 	O 	0.81777 0.90810 0.93439 -0.42200
O 	O 	0.95925 0.93839 0.07718 -0.46400
O 	O 	0.94170 0.93886 0.22271 -0.44400
O 	O 	0.44546 0.83992 0.16123 -0.30300
O 	O 	0.35910 0.92967 0.19970 -0.44100
O 	O 	0.19020 0.92361 0.28067 -0.46400
O 	O 	0.85360 0.00926 0.86772 -1.15000
H 	H 	0.88240 0.98100 0.87050 0.43600
H 	H 	0.88820 0.03020 0.88810 0.55100
C 	C 	0.71430 0.95058 0.70810 0.44500
C 	C 	0.69580 0.90578 0.65620 -0.21600
C 	C 	0.76750 0.89864 0.58310 0.08400
H 	H 	0.82480 0.92110 0.56820 0.01500
C 	C 	0.06180 0.83824 0.13020 0.09300
H 	H 	0.11050 0.86400 0.14120 0.00300
C 	C 	0.83650 0.85066 0.45610 0.04200
H 	H 	0.89720 0.87190 0.44200 0.01500
C 	C 	0.75830 0.85865 0.52940 -0.11000
C 	C 	0.73140 0.77950 0.42520 0.08500
H 	H 	0.72170 0.75360 0.38910 0.00200
C 	C 	0.65660 0.78577 0.49630 -0.20500
H 	H 	0.59680 0.76390 0.50910 0.10700
C 	C 	0.66940 0.82541 0.55080 0.17900
C 	C 	0.59960 0.83180 0.62780 -0.30100
H 	H 	0.54250 0.80950 0.64360 0.14000
C 	C 	0.61380 0.86988 0.67990 0.28700
C 	C 	0.44000 0.88903 0.76820 0.28700
C 	C 	0.40350 0.89855 0.85350 -0.21100
H 	H 	0.45720 0.89340 0.90070 0.12400
C 	C 	0.28730 0.91584 0.87010 0.03400
C 	C 	0.20890 0.92528 0.79850 -0.17500
C 	C 	0.24940 0.91542 0.71300 0.14800
H 	H 	0.19770 0.92150 0.66500 -0.00700
C 	C 	0.36380 0.89694 0.69680 -0.27700
H 	H 	0.38850 0.89010 0.63920 0.13400
C 	C 	0.26190 0.92517 0.96740 0.32900
C 	C 	0.08950 0.94901 0.80770 0.39900
C 	C 	0.73250 0.92223 0.98290 0.33100
C 	C 	0.70870 0.89926 0.07160 0.03700
C 	C 	0.59530 0.87838 0.08010 -0.21200
H 	H 	0.54220 0.87730 0.03160 0.12300
C 	C 	0.56070 0.85924 0.15960 0.29000
C 	C 	0.63840 0.85962 0.23190 -0.28300
H 	H 	0.61630 0.84540 0.28490 0.14000
C 	C 	0.74940 0.88144 0.22390 0.15800
H 	H 	0.80130 0.88260 0.27310 -0.01000
C 	C 	0.78680 0.90181 0.14480 -0.18300
C 	C 	0.90440 0.92845 0.14740 0.41900
C 	C 	0.39840 0.82951 0.24400 0.29400
C 	C 	0.32670 0.86267 0.28900 -0.22600
C 	C 	0.28350 0.85014 0.37080 0.08500
H 	H 	0.23540 0.87120 0.40170 0.01200
C 	C 	0.30830 0.80675 0.41090 -0.10800
C 	C 	0.26510 0.79495 0.49670 0.03400
H 	H 	0.22080 0.81630 0.52960 0.01900
C 	C 	0.28880 0.75218 0.53080 -0.13200
H 	H 	0.26020 0.74450 0.58700 0.08400
C 	C 	0.35510 0.71994 0.48260 0.07600
H 	H 	0.37040 0.69100 0.50720 0.01900
C 	C 	0.39800 0.72982 0.40020 -0.20000
H 	H 	0.44170 0.70770 0.36850 0.10600
C 	C 	0.37570 0.77422 0.36250 0.17400
C 	C 	0.41990 0.78704 0.27780 -0.30600
H 	H 	0.46460 0.76580 0.24480 0.14200
C 	C 	0.92530 0.80077 0.04410 0.10400
H 	H 	0.87470 0.80000 0.99420 -0.01600
C 	C 	0.92510 0.76350 0.09920 -0.15500
H 	H 	0.87760 0.73780 0.08520 0.08900
C 	C 	0.99600 0.76378 0.17630 0.06500
C 	C 	0.06560 0.80270 0.19080 -0.14900
H 	H 	0.11480 0.80490 0.24130 0.08700
C 	C 	0.29140 0.90953 0.25220 0.45500
C 	C 	0.99970 0.72372 0.23800 0.05600
C 	C 	0.90520 0.69228 0.24270 -0.13600
H 	H 	0.83780 0.69500 0.20500 0.08300
C 	C 	0.91120 0.65721 0.30280 0.07700
H 	H 	0.84760 0.63590 0.30380 0.01500
C 	C 	0.09500 0.68120 0.35490 0.08900
H 	H 	0.16170 0.67760 0.39290 -0.00700
C 	C 	0.09620 0.71717 0.29500 -0.14200
H 	H 	0.16280 0.73710 0.29330 0.08300
C 	C 	0.82190 0.81157 0.40640 -0.14300
H 	H 	0.87390 0.80630 0.35870 0.08300
Co	Co	0.33801 0.50926 0.62749 1.19500
Co	Co	0.00269 0.39611 0.53172 1.17800
Co	Co	0.08092 0.52074 0.76823 1.18900
N 	N 	0.00680 0.33814 0.44277 -0.24000
N 	N 	0.99580 0.15169 0.13907 -0.23200
O 	O 	0.35430 0.45994 0.72926 -0.43000
O 	O 	0.20280 0.47581 0.82127 -0.46200
O 	O 	0.44439 0.37076 0.73827 -0.30000
O 	O 	0.95400 0.46765 0.76078 -0.42500
O 	O 	0.96388 0.45007 0.61836 -0.45700
O 	O 	0.82187 0.40317 0.49437 -0.41500
O 	O 	0.66546 0.45233 0.49478 -0.37700
O 	O 	0.34069 0.45366 0.53673 -0.38600
O 	O 	0.18223 0.40810 0.56561 -0.42100
O 	O 	0.04075 0.43839 0.42282 -0.46600
O 	O 	0.05830 0.43886 0.27729 -0.44500
O 	O 	0.55454 0.33992 0.33877 -0.30400
O 	O 	0.64090 0.42967 0.30030 -0.44100
O 	O 	0.80980 0.42361 0.21933 -0.46300
O 	O 	0.14640 0.50926 0.63228 -1.15300
H 	H 	0.11760 0.48100 0.62950 0.43900
H 	H 	0.11180 0.53020 0.61190 0.55400
C 	C 	0.28570 0.45058 0.79190 0.44500
C 	C 	0.30420 0.40578 0.84380 -0.21600
C 	C 	0.23250 0.39864 0.91690 0.08400
H 	H 	0.17520 0.42110 0.93180 0.01600
C 	C 	0.93820 0.33824 0.36980 0.09400
H 	H 	0.88950 0.36400 0.35880 0.00300
C 	C 	0.16350 0.35066 0.04390 0.04000
H 	H 	0.10280 0.37190 0.05800 0.01400
C 	C 	0.24170 0.35865 0.97060 -0.10800
C 	C 	0.26860 0.27950 0.07480 0.08800
H 	H 	0.27830 0.25360 0.11090 0.00100
C 	C 	0.34340 0.28577 0.00370 -0.21200
H 	H 	0.40320 0.26390 0.99090 0.11000
C 	C 	0.33060 0.32541 0.94920 0.18200
C 	C 	0.40040 0.33180 0.87220 -0.30300
H 	H 	0.45750 0.30950 0.85640 0.14000
C 	C 	0.38620 0.36988 0.82010 0.28800
C 	C 	0.56000 0.38903 0.73180 0.28700
C 	C 	0.59650 0.39855 0.64650 -0.21200
H 	H 	0.54280 0.39340 0.59930 0.12500
C 	C 	0.71270 0.41584 0.62990 0.03500
C 	C 	0.79110 0.42528 0.70150 -0.17600
C 	C 	0.75060 0.41542 0.78700 0.14800
H 	H 	0.80230 0.42150 0.83500 -0.00800
C 	C 	0.63620 0.39694 0.80320 -0.27700
H 	H 	0.61150 0.39010 0.86080 0.13400
C 	C 	0.73810 0.42517 0.53260 0.32700
C 	C 	0.91050 0.44901 0.69230 0.40000
C 	C 	0.26750 0.42223 0.51710 0.33300
C 	C 	0.29130 0.39926 0.42840 0.03500
C 	C 	0.40470 0.37838 0.41990 -0.21000
H 	H 	0.45780 0.37730 0.46840 0.12200
C 	C 	0.43930 0.35924 0.34040 0.28900
C 	C 	0.36160 0.35962 0.26810 -0.28300
H 	H 	0.38370 0.34540 0.21510 0.13900
C 	C 	0.25060 0.38144 0.27610 0.15800
H 	H 	0.19870 0.38260 0.22690 -0.01000
C 	C 	0.21320 0.40181 0.35520 -0.18200
C 	C 	0.09560 0.42845 0.35260 0.41900
C 	C 	0.60160 0.32951 0.25600 0.29500
C 	C 	0.67330 0.36267 0.21100 -0.22700
C 	C 	0.71650 0.35014 0.12920 0.08700
H 	H 	0.76460 0.37120 0.09830 0.01100
C 	C 	0.69170 0.30675 0.08910 -0.11100
C 	C 	0.73490 0.29495 0.00330 0.04200
H 	H 	0.77920 0.31630 0.97040 0.01600
C 	C 	0.71120 0.25218 0.96920 -0.13900
H 	H 	0.73980 0.24450 0.91300 0.08600
C 	C 	0.64490 0.21994 0.01740 0.08100
H 	H 	0.62960 0.19100 0.99280 0.01700
C 	C 	0.60200 0.22982 0.09980 -0.20400
H 	H 	0.55830 0.20770 0.13150 0.10800
C 	C 	0.62430 0.27422 0.13750 0.17700
C 	C 	0.58010 0.28704 0.22220 -0.30700
H 	H 	0.53540 0.26580 0.25520 0.14200
C 	C 	0.07470 0.30077 0.45590 0.09500
H 	H 	0.12530 0.30000 0.50580 -0.01100
C 	C 	0.07490 0.26350 0.40080 -0.15000
H 	H 	0.12240 0.23780 0.41480 0.08700
C 	C 	0.00400 0.26378 0.32370 0.06100
C 	C 	0.93440 0.30270 0.30920 -0.14400
H 	H 	0.88520 0.30490 0.25870 0.08600
C 	C 	0.70860 0.40953 0.24780 0.45500
C 	C 	0.00030 0.22372 0.26200 0.05100
C 	C 	0.09480 0.19228 0.25730 -0.13200
H 	H 	0.16220 0.19500 0.29500 0.08200
C 	C 	0.08880 0.15721 0.19720 0.07100
H 	H 	0.15240 0.13590 0.19620 0.01700
C 	C 	0.90500 0.18120 0.14510 0.08600
H 	H 	0.83830 0.17760 0.10710 -0.00600
C 	C 	0.90380 0.21717 0.20500 -0.13500
H 	H 	0.83720 0.23710 0.20670 0.08100
C 	C 	0.17810 0.31157 0.09360 -0.14500
H 	H 	0.12610 0.30630 0.14130 0.08200
Co	Co	0.33801 0.99074 0.12749 1.19500
Co	Co	0.00269 0.10389 0.03172 1.17600
Co	Co	0.08092 0.97926 0.26823 1.18800
N 	N 	0.00680 0.16186 0.94277 -0.23900
N 	N 	0.99580 0.34831 0.63907 -0.23600
O 	O 	0.35430 0.04006 0.22926 -0.43000
O 	O 	0.20280 0.02419 0.32127 -0.46200
O 	O 	0.44439 0.12924 0.23827 -0.30000
O 	O 	0.95400 0.03235 0.26078 -0.42300
O 	O 	0.96388 0.04993 0.11836 -0.45500
O 	O 	0.82187 0.09683 0.99437 -0.41600
O 	O 	0.66546 0.04767 0.99478 -0.37800
O 	O 	0.34069 0.04634 0.03673 -0.38600
O 	O 	0.18223 0.09190 0.06561 -0.42200
O 	O 	0.04075 0.06161 0.92282 -0.46400
O 	O 	0.05830 0.06114 0.77729 -0.44400
O 	O 	0.55454 0.16008 0.83877 -0.30300
O 	O 	0.64090 0.07033 0.80030 -0.44100
O 	O 	0.80980 0.07639 0.71933 -0.46400
O 	O 	0.14640 0.99074 0.13228 -1.15000
H 	H 	0.11760 0.01900 0.12950 0.43600
H 	H 	0.11180 0.96980 0.11190 0.55100
C 	C 	0.28570 0.04942 0.29190 0.44500
C 	C 	0.30420 0.09422 0.34380 -0.21600
C 	C 	0.23250 0.10136 0.41690 0.08400
H 	H 	0.17520 0.07890 0.43180 0.01500
C 	C 	0.93820 0.16176 0.86980 0.09300
H 	H 	0.88950 0.13600 0.85880 0.00300
C 	C 	0.16350 0.14934 0.54390 0.04200
H 	H 	0.10280 0.12810 0.55800 0.01500
C 	C 	0.24170 0.14135 0.47060 -0.11000
C 	C 	0.26860 0.22050 0.57480 0.08500
H 	H 	0.27830 0.24640 0.61090 0.00200
C 	C 	0.34340 0.21423 0.50370 -0.20500
H 	H 	0.40320 0.23610 0.49090 0.10700
C 	C 	0.33060 0.17459 0.44920 0.17900
C 	C 	0.40040 0.16820 0.37220 -0.30100
H 	H 	0.45750 0.19050 0.35640 0.14000
C 	C 	0.38620 0.13012 0.32010 0.28700
C 	C 	0.56000 0.11097 0.23180 0.28700
C 	C 	0.59650 0.10145 0.14650 -0.21100
H 	H 	0.54280 0.10660 0.09930 0.12400
C 	C 	0.71270 0.08416 0.12990 0.03400
C 	C 	0.79110 0.07472 0.20150 -0.17500
C 	C 	0.75060 0.08458 0.28700 0.14800
H 	H 	0.80230 0.07850 0.33500 -0.00700
C 	C 	0.63620 0.10306 0.30320 -0.27700
H 	H 	0.61150 0.10990 0.36080 0.13400
C 	C 	0.73810 0.07483 0.03260 0.32900
C 	C 	0.91050 0.05099 0.19230 0.39900
C 	C 	0.26750 0.07777 0.01710 0.33100
C 	C 	0.29130 0.10074 0.92840 0.03700
C 	C 	0.40470 0.12162 0.91990 -0.21200
H 	H 	0.45780 0.12270 0.96840 0.12300
C 	C 	0.43930 0.14076 0.84040 0.29000
C 	C 	0.36160 0.14038 0.76810 -0.28300
H 	H 	0.38370 0.15460 0.71510 0.14000
C 	C 	0.25060 0.11856 0.77610 0.15800
H 	H 	0.19870 0.11740 0.72690 -0.01000
C 	C 	0.21320 0.09819 0.85520 -0.18300
C 	C 	0.09560 0.07155 0.85260 0.41900
C 	C 	0.60160 0.17049 0.75600 0.29400
C 	C 	0.67330 0.13733 0.71100 -0.22600
C 	C 	0.71650 0.14986 0.62920 0.08500
H 	H 	0.76460 0.12880 0.59830 0.01200
C 	C 	0.69170 0.19325 0.58910 -0.10800
C 	C 	0.73490 0.20505 0.50330 0.03400
H 	H 	0.77920 0.18370 0.47040 0.01900
C 	C 	0.71120 0.24782 0.46920 -0.13200
H 	H 	0.73980 0.25550 0.41300 0.08400
C 	C 	0.64490 0.28006 0.51740 0.07600
H 	H 	0.62960 0.30900 0.49280 0.01900
C 	C 	0.60200 0.27018 0.59980 -0.20000
H 	H 	0.55830 0.29230 0.63150 0.10600
C 	C 	0.62430 0.22578 0.63750 0.17400
C 	C 	0.58010 0.21296 0.72220 -0.30600
H 	H 	0.53540 0.23420 0.75520 0.14200
C 	C 	0.07470 0.19923 0.95590 0.10400
H 	H 	0.12530 0.20000 0.00580 -0.01600
C 	C 	0.07490 0.23650 0.90080 -0.15500
H 	H 	0.12240 0.26220 0.91480 0.08900
C 	C 	0.00400 0.23622 0.82370 0.06500
C 	C 	0.93440 0.19730 0.80920 -0.14900
H 	H 	0.88520 0.19510 0.75870 0.08700
C 	C 	0.70860 0.09047 0.74780 0.45500
C 	C 	0.00030 0.27628 0.76200 0.05600
C 	C 	0.09480 0.30772 0.75730 -0.13600
H 	H 	0.16220 0.30500 0.79500 0.08300
C 	C 	0.08880 0.34279 0.69720 0.07700
H 	H 	0.15240 0.36410 0.69620 0.01500
C 	C 	0.90500 0.31880 0.64510 0.08900
H 	H 	0.83830 0.32240 0.60710 -0.00700
C 	C 	0.90380 0.28283 0.70500 -0.14200
H 	H 	0.83720 0.26290 0.70670 0.08300
C 	C 	0.17810 0.18843 0.59360 -0.14300
H 	H 	0.12610 0.19370 0.64130 0.08300
Co	Co	0.66199 0.49074 0.37251 1.19500
Co	Co	0.99731 0.60389 0.46828 1.17800
Co	Co	0.91908 0.47926 0.23177 1.18900
N 	N 	0.99320 0.66186 0.55723 -0.24000
N 	N 	0.00420 0.84831 0.86093 -0.23200
O 	O 	0.64570 0.54006 0.27074 -0.43000
O 	O 	0.79720 0.52419 0.17873 -0.46200
O 	O 	0.55561 0.62924 0.26173 -0.30000
O 	O 	0.04600 0.53235 0.23922 -0.42500
O 	O 	0.03612 0.54993 0.38164 -0.45700
O 	O 	0.17813 0.59683 0.50563 -0.41500
O 	O 	0.33454 0.54767 0.50522 -0.37700
O 	O 	0.65931 0.54634 0.46327 -0.38600
O 	O 	0.81777 0.59190 0.43439 -0.42100
O 	O 	0.95925 0.56161 0.57718 -0.46600
O 	O 	0.94170 0.56114 0.72271 -0.44500
O 	O 	0.44546 0.66008 0.66123 -0.30400
O 	O 	0.35910 0.57033 0.69970 -0.44100
O 	O 	0.19020 0.57639 0.78067 -0.46300
O 	O 	0.85360 0.49074 0.36772 -1.15300
H 	H 	0.88240 0.51900 0.37050 0.43900
H 	H 	0.88820 0.46980 0.38810 0.55400
C 	C 	0.71430 0.54942 0.20810 0.44500
C 	C 	0.69580 0.59422 0.15620 -0.21600
C 	C 	0.76750 0.60136 0.08310 0.08400
H 	H 	0.82480 0.57890 0.06820 0.01600
C 	C 	0.06180 0.66176 0.63020 0.09400
H 	H 	0.11050 0.63600 0.64120 0.00300
C 	C 	0.83650 0.64934 0.95610 0.04000
H 	H 	0.89720 0.62810 0.94200 0.01400
C 	C 	0.75830 0.64135 0.02940 -0.10800
C 	C 	0.73140 0.72050 0.92520 0.08800
H 	H 	0.72170 0.74640 0.88910 0.00100
C 	C 	0.65660 0.71423 0.99630 -0.21200
H 	H 	0.59680 0.73610 0.00910 0.11000
C 	C 	0.66940 0.67459 0.05080 0.18200
C 	C 	0.59960 0.66820 0.12780 -0.30300
H 	H 	0.54250 0.69050 0.14360 0.14000
C 	C 	0.61380 0.63012 0.17990 0.28800
C 	C 	0.44000 0.61097 0.26820 0.28700
C 	C 	0.40350 0.60145 0.35350 -0.21200
H 	H 	0.45720 0.60660 0.40070 0.12500
C 	C 	0.28730 0.58416 0.37010 0.03500
C 	C 	0.20890 0.57472 0.29850 -0.17600
C 	C 	0.24940 0.58458 0.21300 0.14800
H 	H 	0.19770 0.57850 0.16500 -0.00800
C 	C 	0.36380 0.60306 0.19680 -0.27700
H 	H 	0.38850 0.60990 0.13920 0.13400
C 	C 	0.26190 0.57483 0.46740 0.32700
C 	C 	0.08950 0.55099 0.30770 0.40000
C 	C 	0.73250 0.57777 0.48290 0.33300
C 	C 	0.70870 0.60074 0.57160 0.03500
C 	C 	0.59530 0.62162 0.58010 -0.21000
H 	H 	0.54220 0.62270 0.53160 0.12200
C 	C 	0.56070 0.64076 0.65960 0.28900
C 	C 	0.63840 0.64038 0.73190 -0.28300
H 	H 	0.61630 0.65460 0.78490 0.13900
C 	C 	0.74940 0.61856 0.72390 0.15800
H 	H 	0.80130 0.61740 0.77310 -0.01000
C 	C 	0.78680 0.59819 0.64480 -0.18200
C 	C 	0.90440 0.57155 0.64740 0.41900
C 	C 	0.39840 0.67049 0.74400 0.29500
C 	C 	0.32670 0.63733 0.78900 -0.22700
C 	C 	0.28350 0.64986 0.87080 0.08700
H 	H 	0.23540 0.62880 0.90170 0.01100
C 	C 	0.30830 0.69325 0.91090 -0.11100
C 	C 	0.26510 0.70505 0.99670 0.04200
H 	H 	0.22080 0.68370 0.02960 0.01600
C 	C 	0.28880 0.74782 0.03080 -0.13900
H 	H 	0.26020 0.75550 0.08700 0.08600
C 	C 	0.35510 0.78006 0.98260 0.08100
H 	H 	0.37040 0.80900 0.00720 0.01700
C 	C 	0.39800 0.77018 0.90020 -0.20400
H 	H 	0.44170 0.79230 0.86850 0.10800
C 	C 	0.37570 0.72578 0.86250 0.17700
C 	C 	0.41990 0.71296 0.77780 -0.30700
H 	H 	0.46460 0.73420 0.74480 0.14200
C 	C 	0.92530 0.69923 0.54410 0.09500
H 	H 	0.87470 0.70000 0.49420 -0.01100
C 	C 	0.92510 0.73650 0.59920 -0.15000
H 	H 	0.87760 0.76220 0.58520 0.08700
C 	C 	0.99600 0.73622 0.67630 0.06100
C 	C 	0.06560 0.69730 0.69080 -0.14400
H 	H 	0.11480 0.69510 0.74130 0.08600
C 	C 	0.29140 0.59047 0.75220 0.45500
C 	C 	0.99970 0.77628 0.73800 0.05100
C 	C 	0.90520 0.80772 0.74270 -0.13200
H 	H 	0.83780 0.80500 0.70500 0.08200
C 	C 	0.91120 0.84279 0.80280 0.07100
H 	H 	0.84760 0.86410 0.80380 0.01700
C 	C 	0.09500 0.81880 0.85490 0.08600
H 	H 	0.16170 0.82240 0.89290 -0.00600
C 	C 	0.09620 0.78283 0.79500 -0.13500
H 	H 	0.16280 0.76290 0.79330 0.08100
C 	C 	0.82190 0.68843 0.90640 -0.14500
H 	H 	0.87390 0.69370 0.85870 0.08200
