data_crystal

_cell_length_a 9.54000
_cell_length_b 19.81200
_cell_length_c 11.15100
_cell_angle_alpha 90.00000
_cell_angle_beta  113.68400
_cell_angle_gamma 90.00000

_symmetry_space_group_name_	'P 1'
_symmetry_space_group_name_H-M	'P 1'

loop_
_symmetry_equiv_pos_as_xyz
  x,y,z

loop_
_atom_site_label
_atom_site_type_symbol
_atom_site_fract_x
_atom_site_fract_y
_atom_site_fract_z
_atom_site_charge
O 	O 	0.65490 0.92740 0.00600 -0.39400
O 	O 	0.74070 0.89090 0.20950 -0.27600
O 	O 	0.04970 0.74950 0.33110 -0.44900
O 	O 	0.06140 0.84690 0.23690 -0.26400
C 	C 	0.63440 0.79200 0.92730 0.13900
H 	H 	0.55580 0.82090 0.87760 0.01700
C 	C 	0.74370 0.81610 0.04800 -0.16700
C 	C 	0.86320 0.77130 0.12100 0.06000
C 	C 	0.71380 0.88340 0.09160 0.38000
C 	C 	0.00200 0.79220 0.23680 0.26200
O 	O 	0.15490 0.42740 0.00600 -0.43200
O 	O 	0.24070 0.39090 0.20950 -0.30600
O 	O 	0.54970 0.24950 0.33110 -0.44700
O 	O 	0.56140 0.34690 0.23690 -0.26800
C 	C 	0.13440 0.29200 0.92730 0.15800
H 	H 	0.05580 0.32090 0.87760 -0.00400
C 	C 	0.24370 0.31610 0.04800 -0.18000
C 	C 	0.36320 0.27130 0.12100 0.02600
C 	C 	0.21380 0.38340 0.09160 0.38200
C 	C 	0.50200 0.29220 0.23680 0.29900
O 	O 	0.34510 0.92740 0.99400 -0.32800
O 	O 	0.25930 0.89090 0.79050 -0.25700
O 	O 	0.95030 0.74950 0.66890 -0.44800
O 	O 	0.93860 0.84690 0.76310 -0.26000
C 	C 	0.36560 0.79200 0.07270 -0.14800
H 	H 	0.44420 0.82090 0.12240 0.09000
C 	C 	0.25630 0.81610 0.95200 0.07500
C 	C 	0.13680 0.77130 0.87900 -0.16500
C 	C 	0.28620 0.88340 0.90840 0.29900
C 	C 	0.99800 0.79220 0.76320 0.39300
O 	O 	0.84510 0.42740 0.99400 -0.33800
O 	O 	0.75930 0.39090 0.79050 -0.25900
O 	O 	0.45030 0.24950 0.66890 -0.46100
O 	O 	0.43860 0.34690 0.76310 -0.27700
C 	C 	0.86560 0.29200 0.07270 -0.15900
H 	H 	0.94420 0.32090 0.12240 0.10400
C 	C 	0.75630 0.31610 0.95200 0.07500
C 	C 	0.63680 0.27130 0.87900 -0.13300
C 	C 	0.78620 0.38340 0.90840 0.30700
C 	C 	0.49800 0.29220 0.76320 0.36100
O 	O 	0.34510 0.07260 0.99400 -0.36800
O 	O 	0.25930 0.10910 0.79050 -0.28500
O 	O 	0.95030 0.25050 0.66890 -0.45300
O 	O 	0.93860 0.15310 0.76310 -0.28100
C 	C 	0.36560 0.20800 0.07270 -0.14900
H 	H 	0.44420 0.17910 0.12240 0.08500
C 	C 	0.25630 0.18390 0.95200 0.07100
C 	C 	0.13680 0.22870 0.87900 -0.16700
C 	C 	0.28620 0.11660 0.90840 0.30600
C 	C 	0.99800 0.20780 0.76320 0.39600
O 	O 	0.84510 0.57260 0.99400 -0.33900
O 	O 	0.75930 0.60910 0.79050 -0.25900
O 	O 	0.45030 0.75050 0.66890 -0.45400
O 	O 	0.43860 0.65310 0.76310 -0.27600
C 	C 	0.86560 0.70800 0.07270 -0.15400
H 	H 	0.94420 0.67910 0.12240 0.10300
C 	C 	0.75630 0.68390 0.95200 0.07000
C 	C 	0.63680 0.72870 0.87900 -0.12600
C 	C 	0.78620 0.61660 0.90840 0.30900
C 	C 	0.49800 0.70780 0.76320 0.35800
O 	O 	0.65490 0.07260 0.00600 -0.44000
O 	O 	0.74070 0.10910 0.20950 -0.30700
O 	O 	0.04970 0.25050 0.33110 -0.45300
O 	O 	0.06140 0.15310 0.23690 -0.28500
C 	C 	0.63440 0.20800 0.92730 0.14900
H 	H 	0.55580 0.17910 0.87760 0.01000
C 	C 	0.74370 0.18390 0.04800 -0.18100
C 	C 	0.86320 0.22870 0.12100 0.06200
C 	C 	0.71380 0.11660 0.09160 0.39100
C 	C 	0.00200 0.20780 0.23680 0.26400
O 	O 	0.15490 0.57260 0.00600 -0.43200
O 	O 	0.24070 0.60910 0.20950 -0.30600
O 	O 	0.54970 0.75050 0.33110 -0.44100
O 	O 	0.56140 0.65310 0.23690 -0.26800
C 	C 	0.13440 0.70800 0.92730 0.15400
H 	H 	0.05580 0.67910 0.87760 -0.00300
C 	C 	0.24370 0.68390 0.04800 -0.17800
C 	C 	0.36320 0.72870 0.12100 0.02700
C 	C 	0.21380 0.61660 0.09160 0.38200
C 	C 	0.50200 0.70780 0.23680 0.29700
Ni	Ni	0.00000 0.50000 -0.00000 1.06700
Ni	Ni	0.50000 0.00000 -0.00000 1.05500
Ni	Ni	0.25000 0.75000 0.50000 1.00900
Ni	Ni	0.75000 0.75000 0.50000 1.01600
Ni	Ni	0.75000 0.25000 0.50000 1.01200
Ni	Ni	0.25000 0.25000 0.50000 1.00500
