data_crystal

_cell_length_a 23.59330
_cell_length_b 13.84590
_cell_length_c 6.80100
_cell_angle_alpha 90.00000
_cell_angle_beta  95.19520
_cell_angle_gamma 90.00000

_symmetry_space_group_name_	'P 1'
_symmetry_space_group_name_H-M	'P 1'

loop_
_symmetry_equiv_pos_as_xyz
  x,y,z

loop_
_atom_site_label
_atom_site_type_symbol
_atom_site_fract_x
_atom_site_fract_y
_atom_site_fract_z
_atom_site_charge
C 	C 	0.57597 0.05452 0.76673 0.46900
C 	C 	0.63100 0.10987 0.78488 -0.15800
O 	O 	0.55263 0.03358 0.60114 -0.64400
O 	O 	0.55054 0.03799 0.91542 -0.63800
Ca	Ca	0.54179 0.02235 0.26328 1.49200
N 	N 	0.66269 0.09037 0.29520 0.04700
O 	O 	0.64842 0.99971 0.28990 -0.38400
O 	O 	0.71603 0.11492 0.30350 -0.25700
O 	O 	0.62338 0.15631 0.27640 -0.28800
Ca	Ca	0.75113 0.94045 0.29943 1.50500
N 	N 	0.68139 0.71182 0.22939 0.05800
O 	O 	0.63360 0.66829 0.17742 -0.30200
O 	O 	0.68169 0.80403 0.26240 -0.27900
O 	O 	0.72929 0.66603 0.22510 -0.27000
C 	C 	0.86296 0.04126 0.33426 0.46000
C 	C 	0.91245 0.10926 0.36326 -0.19400
O 	O 	0.83618 0.01835 0.47745 -0.62100
O 	O 	0.84179 0.02322 0.16392 -0.61100
C 	C 	0.71868 0.90335 0.78169 0.46000
C 	C 	0.66707 0.83941 0.76162 -0.14000
O 	O 	0.74011 0.93162 0.63153 -0.60600
O 	O 	0.73803 0.93285 0.94719 -0.59300
Ca	Ca	0.67259 0.50442 0.17883 1.49300
C 	C 	0.92403 0.55452 0.23327 0.47000
C 	C 	0.86900 0.60987 0.21512 -0.15700
O 	O 	0.94737 0.53358 0.39886 -0.64300
O 	O 	0.94946 0.53799 0.08458 -0.63600
Ca	Ca	0.95821 0.52235 0.73672 1.49200
N 	N 	0.83731 0.59037 0.70480 0.04800
O 	O 	0.85158 0.49971 0.71010 -0.38400
O 	O 	0.78397 0.61492 0.69650 -0.25700
O 	O 	0.87662 0.65631 0.72360 -0.28800
Ca	Ca	0.74887 0.44045 0.70057 1.50500
N 	N 	0.81861 0.21182 0.77061 0.05800
O 	O 	0.86640 0.16829 0.82258 -0.30300
O 	O 	0.81831 0.30403 0.73760 -0.28000
O 	O 	0.77071 0.16603 0.77490 -0.27000
C 	C 	0.63704 0.54126 0.66574 0.46000
C 	C 	0.58755 0.60926 0.63674 -0.19500
O 	O 	0.66382 0.51835 0.52255 -0.62200
O 	O 	0.65821 0.52322 0.83608 -0.61300
C 	C 	0.78132 0.40335 0.21831 0.46000
C 	C 	0.83293 0.33941 0.23838 -0.14000
O 	O 	0.75989 0.43162 0.36847 -0.60600
O 	O 	0.76197 0.43285 0.05281 -0.59400
Ca	Ca	0.82741 0.00442 0.82117 1.49300
C 	C 	0.42403 0.94548 0.23327 0.47000
C 	C 	0.36900 0.89013 0.21512 -0.15700
O 	O 	0.44737 0.96642 0.39886 -0.64300
O 	O 	0.44946 0.96201 0.08458 -0.63700
Ca	Ca	0.45821 0.97765 0.73672 1.49300
N 	N 	0.33731 0.90963 0.70480 0.04800
O 	O 	0.35158 0.00029 0.71010 -0.38400
O 	O 	0.28397 0.88508 0.69650 -0.25700
O 	O 	0.37662 0.84369 0.72360 -0.28800
Ca	Ca	0.24887 0.05955 0.70057 1.50500
N 	N 	0.31861 0.28818 0.77061 0.05800
O 	O 	0.36640 0.33171 0.82258 -0.30200
O 	O 	0.31831 0.19597 0.73760 -0.27900
O 	O 	0.27071 0.33397 0.77490 -0.27000
C 	C 	0.13704 0.95874 0.66574 0.46000
C 	C 	0.08755 0.89074 0.63674 -0.19400
O 	O 	0.16382 0.98165 0.52255 -0.62100
O 	O 	0.15821 0.97678 0.83608 -0.61100
C 	C 	0.28132 0.09665 0.21831 0.46000
C 	C 	0.33293 0.16059 0.23838 -0.14000
O 	O 	0.25989 0.06838 0.36847 -0.60600
O 	O 	0.26197 0.06715 0.05281 -0.59300
Ca	Ca	0.32741 0.49558 0.82117 1.49300
C 	C 	0.07597 0.44548 0.76673 0.47000
C 	C 	0.13100 0.39013 0.78488 -0.15700
O 	O 	0.05263 0.46642 0.60114 -0.64300
O 	O 	0.05054 0.46201 0.91542 -0.63600
Ca	Ca	0.04179 0.47765 0.26328 1.49200
N 	N 	0.16269 0.40963 0.29520 0.04800
O 	O 	0.14842 0.50029 0.28990 -0.38400
O 	O 	0.21603 0.38508 0.30350 -0.25700
O 	O 	0.12338 0.34369 0.27640 -0.28800
Ca	Ca	0.25113 0.55955 0.29943 1.50500
N 	N 	0.18139 0.78818 0.22939 0.05800
O 	O 	0.13360 0.83171 0.17742 -0.30300
O 	O 	0.18169 0.69597 0.26240 -0.28000
O 	O 	0.22929 0.83397 0.22510 -0.27000
C 	C 	0.36296 0.45874 0.33426 0.46000
C 	C 	0.41245 0.39074 0.36326 -0.19500
O 	O 	0.33618 0.48165 0.47745 -0.62200
O 	O 	0.34179 0.47678 0.16392 -0.61300
C 	C 	0.21868 0.59665 0.78169 0.46000
C 	C 	0.16707 0.66059 0.76162 -0.14000
O 	O 	0.24011 0.56838 0.63153 -0.60600
O 	O 	0.23803 0.56715 0.94719 -0.59400
Ca	Ca	0.17259 0.99558 0.17883 1.49300
