data_crystal

_cell_length_a 26.32560
_cell_length_b 26.32560
_cell_length_c 26.32560
_cell_angle_alpha 60.00000
_cell_angle_beta  60.00000
_cell_angle_gamma 60.00000

_symmetry_space_group_name_	'P 1'
_symmetry_space_group_name_H-M	'P 1'

loop_
_symmetry_equiv_pos_as_xyz
  x,y,z

loop_
_atom_site_label
_atom_site_type_symbol
_atom_site_fract_x
_atom_site_fract_y
_atom_site_fract_z
_atom_site_charge
Cu	Cu	0.04840 0.95160 0.50000 0.88000
Cu	Cu	0.95160 0.04840 0.50000 0.88000
Cu	Cu	0.50000 0.50000 0.04840 0.88000
Cu	Cu	0.50000 0.50000 0.95160 0.88000
Cu	Cu	0.04840 0.50000 0.50000 0.88000
Cu	Cu	0.95160 0.50000 0.50000 0.88000
Cu	Cu	0.50000 0.04840 0.95160 0.88000
Cu	Cu	0.50000 0.95160 0.04840 0.88000
Cu	Cu	0.04840 0.50000 0.95160 0.88000
Cu	Cu	0.95160 0.50000 0.04840 0.88000
Cu	Cu	0.50000 0.95160 0.50000 0.88000
Cu	Cu	0.50000 0.04840 0.50000 0.88000
H 	H 	0.04320 0.13940 0.29580 0.04500
H 	H 	0.24200 0.00280 0.22120 0.06800
H 	H 	0.17730 0.96990 0.32390 0.04000
H 	H 	0.13940 0.04320 0.52160 0.04500
H 	H 	0.00280 0.24200 0.53400 0.06700
H 	H 	0.96990 0.17730 0.52890 0.04000
H 	H 	0.29580 0.52160 0.04320 0.04500
H 	H 	0.22120 0.53400 0.24200 0.06700
H 	H 	0.32390 0.52890 0.17730 0.04100
H 	H 	0.52160 0.29580 0.13940 0.04500
H 	H 	0.53400 0.22120 0.00280 0.06700
H 	H 	0.52890 0.32390 0.96990 0.04100
H 	H 	0.04320 0.29580 0.52160 0.04500
H 	H 	0.24200 0.22120 0.53400 0.06700
H 	H 	0.17730 0.32390 0.52890 0.04100
H 	H 	0.13940 0.52160 0.29580 0.04500
H 	H 	0.00280 0.53400 0.22120 0.06700
H 	H 	0.96990 0.52890 0.32390 0.04100
H 	H 	0.29580 0.04320 0.13940 0.04500
H 	H 	0.22120 0.24200 0.00280 0.06800
H 	H 	0.32390 0.17730 0.96990 0.04000
H 	H 	0.52160 0.13940 0.04320 0.04500
H 	H 	0.53400 0.00280 0.24200 0.06700
H 	H 	0.52890 0.96990 0.17730 0.04000
H 	H 	0.04320 0.52160 0.13940 0.04500
H 	H 	0.24200 0.53400 0.00280 0.06700
H 	H 	0.17730 0.52890 0.96990 0.04000
H 	H 	0.13940 0.29580 0.04320 0.04500
H 	H 	0.00280 0.22120 0.24200 0.06800
H 	H 	0.96990 0.32390 0.17730 0.04000
H 	H 	0.29580 0.13940 0.52160 0.04500
H 	H 	0.22120 0.00280 0.53400 0.06700
H 	H 	0.32390 0.96990 0.52890 0.04100
H 	H 	0.52160 0.04320 0.29580 0.04500
H 	H 	0.53400 0.24200 0.22120 0.06700
H 	H 	0.52890 0.17730 0.32390 0.04100
H 	H 	0.86060 0.95680 0.70420 0.04500
H 	H 	0.99720 0.75800 0.77880 0.06800
H 	H 	0.03010 0.82270 0.67610 0.04000
H 	H 	0.95680 0.86060 0.47840 0.04500
H 	H 	0.75800 0.99720 0.46600 0.06700
H 	H 	0.82270 0.03010 0.47110 0.04000
H 	H 	0.47840 0.70420 0.95680 0.04500
H 	H 	0.46600 0.77880 0.75800 0.06700
H 	H 	0.47110 0.67610 0.82270 0.04100
H 	H 	0.70420 0.47840 0.86060 0.04500
H 	H 	0.77880 0.46600 0.99720 0.06700
H 	H 	0.67610 0.47110 0.03010 0.04100
H 	H 	0.70420 0.95680 0.47840 0.04500
H 	H 	0.77880 0.75800 0.46600 0.06700
H 	H 	0.67610 0.82270 0.47110 0.04100
H 	H 	0.47840 0.86060 0.70420 0.04500
H 	H 	0.46600 0.99720 0.77880 0.06700
H 	H 	0.47110 0.03010 0.67610 0.04100
H 	H 	0.95680 0.70420 0.86060 0.04500
H 	H 	0.75800 0.77880 0.99720 0.06800
H 	H 	0.82270 0.67610 0.03010 0.04000
H 	H 	0.86060 0.47840 0.95680 0.04500
H 	H 	0.99720 0.46600 0.75800 0.06700
H 	H 	0.03010 0.47110 0.82270 0.04000
H 	H 	0.47840 0.95680 0.86060 0.04500
H 	H 	0.46600 0.75800 0.99720 0.06700
H 	H 	0.47110 0.82270 0.03010 0.04000
H 	H 	0.70420 0.86060 0.95680 0.04500
H 	H 	0.77880 0.99720 0.75800 0.06800
H 	H 	0.67610 0.03010 0.82270 0.04000
H 	H 	0.86060 0.70420 0.47840 0.04500
H 	H 	0.99720 0.77880 0.46600 0.06700
H 	H 	0.03010 0.67610 0.47110 0.04100
H 	H 	0.95680 0.47840 0.70420 0.04500
H 	H 	0.75800 0.46600 0.77880 0.06700
H 	H 	0.82270 0.47110 0.67610 0.04100
C 	C 	0.10458 0.05192 0.31982 -0.10200
C 	C 	0.08378 0.11216 0.28084 0.00700
C 	C 	0.12183 0.13277 0.22041 -0.03100
C 	C 	0.18147 0.09217 0.19733 0.04400
C 	C 	0.20219 0.03067 0.23629 -0.09700
C 	C 	0.16348 0.01124 0.29732 0.03400
C 	C 	0.06480 0.03040 0.38440 0.39200
C 	C 	0.05192 0.10458 0.52368 -0.10200
C 	C 	0.11216 0.08378 0.52322 0.00700
C 	C 	0.13277 0.12183 0.52499 -0.03000
C 	C 	0.09217 0.18147 0.52903 0.04400
C 	C 	0.03067 0.20219 0.53085 -0.09700
C 	C 	0.01124 0.16348 0.52796 0.03400
C 	C 	0.03040 0.06480 0.52040 0.39200
C 	C 	0.31982 0.52368 0.10458 -0.10200
C 	C 	0.28084 0.52322 0.08378 0.00600
C 	C 	0.22041 0.52499 0.12183 -0.03000
C 	C 	0.19733 0.52903 0.18147 0.04400
C 	C 	0.23629 0.53085 0.20219 -0.09700
C 	C 	0.29732 0.52796 0.16348 0.03300
C 	C 	0.38440 0.52040 0.06480 0.39200
C 	C 	0.52368 0.31982 0.05192 -0.10200
C 	C 	0.52322 0.28084 0.11216 0.00600
C 	C 	0.52499 0.22041 0.13277 -0.03000
C 	C 	0.52903 0.19733 0.09217 0.04400
C 	C 	0.53085 0.23629 0.03067 -0.09700
C 	C 	0.52796 0.29732 0.01124 0.03400
C 	C 	0.52040 0.38440 0.03040 0.39200
C 	C 	0.10458 0.31982 0.52368 -0.10200
C 	C 	0.08378 0.28084 0.52322 0.00600
C 	C 	0.12183 0.22041 0.52499 -0.03000
C 	C 	0.18147 0.19733 0.52903 0.04400
C 	C 	0.20219 0.23629 0.53085 -0.09700
C 	C 	0.16348 0.29732 0.52796 0.03300
C 	C 	0.06480 0.38440 0.52040 0.39200
C 	C 	0.05192 0.52368 0.31982 -0.10200
C 	C 	0.11216 0.52322 0.28084 0.00600
C 	C 	0.13277 0.52499 0.22041 -0.03000
C 	C 	0.09217 0.52903 0.19733 0.04400
C 	C 	0.03067 0.53085 0.23629 -0.09700
C 	C 	0.01124 0.52796 0.29732 0.03400
C 	C 	0.03040 0.52040 0.38440 0.39200
C 	C 	0.31982 0.10458 0.05192 -0.10200
C 	C 	0.28084 0.08378 0.11216 0.00700
C 	C 	0.22041 0.12183 0.13277 -0.03100
C 	C 	0.19733 0.18147 0.09217 0.04400
C 	C 	0.23629 0.20219 0.03067 -0.09700
C 	C 	0.29732 0.16348 0.01124 0.03400
C 	C 	0.38440 0.06480 0.03040 0.39200
C 	C 	0.52368 0.05192 0.10458 -0.10200
C 	C 	0.52322 0.11216 0.08378 0.00700
C 	C 	0.52499 0.13277 0.12183 -0.03000
C 	C 	0.52903 0.09217 0.18147 0.04400
C 	C 	0.53085 0.03067 0.20219 -0.09700
C 	C 	0.52796 0.01124 0.16348 0.03400
C 	C 	0.52040 0.03040 0.06480 0.39200
C 	C 	0.10458 0.52368 0.05192 -0.10200
C 	C 	0.08378 0.52322 0.11216 0.00700
C 	C 	0.12183 0.52499 0.13277 -0.03000
C 	C 	0.18147 0.52903 0.09217 0.04400
C 	C 	0.20219 0.53085 0.03067 -0.09700
C 	C 	0.16348 0.52796 0.01124 0.03400
C 	C 	0.06480 0.52040 0.03040 0.39200
C 	C 	0.05192 0.31982 0.10458 -0.10200
C 	C 	0.11216 0.28084 0.08378 0.00700
C 	C 	0.13277 0.22041 0.12183 -0.03100
C 	C 	0.09217 0.19733 0.18147 0.04400
C 	C 	0.03067 0.23629 0.20219 -0.09700
C 	C 	0.01124 0.29732 0.16348 0.03400
C 	C 	0.03040 0.38440 0.06480 0.39200
C 	C 	0.31982 0.05192 0.52368 -0.10200
C 	C 	0.28084 0.11216 0.52322 0.00600
C 	C 	0.22041 0.13277 0.52499 -0.03000
C 	C 	0.19733 0.09217 0.52903 0.04400
C 	C 	0.23629 0.03067 0.53085 -0.09700
C 	C 	0.29732 0.01124 0.52796 0.03400
C 	C 	0.38440 0.03040 0.52040 0.39200
C 	C 	0.52368 0.10458 0.31982 -0.10200
C 	C 	0.52322 0.08378 0.28084 0.00600
C 	C 	0.52499 0.12183 0.22041 -0.03000
C 	C 	0.52903 0.18147 0.19733 0.04400
C 	C 	0.53085 0.20219 0.23629 -0.09700
C 	C 	0.52796 0.16348 0.29732 0.03300
C 	C 	0.52040 0.06480 0.38440 0.39200
C 	C 	0.94808 0.89542 0.68018 -0.10200
C 	C 	0.88784 0.91622 0.71916 0.00700
C 	C 	0.86723 0.87817 0.77959 -0.03100
C 	C 	0.90783 0.81853 0.80267 0.04400
C 	C 	0.96933 0.79781 0.76371 -0.09700
C 	C 	0.98876 0.83652 0.70268 0.03400
C 	C 	0.96960 0.93520 0.61560 0.39200
C 	C 	0.89542 0.94808 0.47632 -0.10200
C 	C 	0.91622 0.88784 0.47678 0.00700
C 	C 	0.87817 0.86723 0.47501 -0.03000
C 	C 	0.81853 0.90783 0.47097 0.04400
C 	C 	0.79781 0.96933 0.46915 -0.09700
C 	C 	0.83652 0.98876 0.47204 0.03400
C 	C 	0.93520 0.96960 0.47960 0.39200
C 	C 	0.47632 0.68018 0.89542 -0.10200
C 	C 	0.47678 0.71916 0.91622 0.00600
C 	C 	0.47501 0.77959 0.87817 -0.03000
C 	C 	0.47097 0.80267 0.81853 0.04400
C 	C 	0.46915 0.76371 0.79781 -0.09700
C 	C 	0.47204 0.70268 0.83652 0.03300
C 	C 	0.47960 0.61560 0.93520 0.39200
C 	C 	0.68018 0.47632 0.94808 -0.10200
C 	C 	0.71916 0.47678 0.88784 0.00600
C 	C 	0.77959 0.47501 0.86723 -0.03000
C 	C 	0.80267 0.47097 0.90783 0.04400
C 	C 	0.76371 0.46915 0.96933 -0.09700
C 	C 	0.70268 0.47204 0.98876 0.03400
C 	C 	0.61560 0.47960 0.96960 0.39200
C 	C 	0.68018 0.89542 0.47632 -0.10200
C 	C 	0.71916 0.91622 0.47678 0.00600
C 	C 	0.77959 0.87817 0.47501 -0.03000
C 	C 	0.80267 0.81853 0.47097 0.04400
C 	C 	0.76371 0.79781 0.46915 -0.09700
C 	C 	0.70268 0.83652 0.47204 0.03300
C 	C 	0.61560 0.93520 0.47960 0.39200
C 	C 	0.47632 0.94808 0.68018 -0.10200
C 	C 	0.47678 0.88784 0.71916 0.00600
C 	C 	0.47501 0.86723 0.77959 -0.03000
C 	C 	0.47097 0.90783 0.80267 0.04400
C 	C 	0.46915 0.96933 0.76371 -0.09700
C 	C 	0.47204 0.98876 0.70268 0.03400
C 	C 	0.47960 0.96960 0.61560 0.39200
C 	C 	0.89542 0.68018 0.94808 -0.10200
C 	C 	0.91622 0.71916 0.88784 0.00700
C 	C 	0.87817 0.77959 0.86723 -0.03100
C 	C 	0.81853 0.80267 0.90783 0.04400
C 	C 	0.79781 0.76371 0.96933 -0.09700
C 	C 	0.83652 0.70268 0.98876 0.03400
C 	C 	0.93520 0.61560 0.96960 0.39200
C 	C 	0.94808 0.47632 0.89542 -0.10200
C 	C 	0.88784 0.47678 0.91622 0.00700
C 	C 	0.86723 0.47501 0.87817 -0.03000
C 	C 	0.90783 0.47097 0.81853 0.04400
C 	C 	0.96933 0.46915 0.79781 -0.09700
C 	C 	0.98876 0.47204 0.83652 0.03400
C 	C 	0.96960 0.47960 0.93520 0.39200
C 	C 	0.47632 0.89542 0.94808 -0.10200
C 	C 	0.47678 0.91622 0.88784 0.00700
C 	C 	0.47501 0.87817 0.86723 -0.03000
C 	C 	0.47097 0.81853 0.90783 0.04400
C 	C 	0.46915 0.79781 0.96933 -0.09700
C 	C 	0.47204 0.83652 0.98876 0.03400
C 	C 	0.47960 0.93520 0.96960 0.39200
C 	C 	0.68018 0.94808 0.89542 -0.10200
C 	C 	0.71916 0.88784 0.91622 0.00700
C 	C 	0.77959 0.86723 0.87817 -0.03100
C 	C 	0.80267 0.90783 0.81853 0.04400
C 	C 	0.76371 0.96933 0.79781 -0.09700
C 	C 	0.70268 0.98876 0.83652 0.03400
C 	C 	0.61560 0.96960 0.93520 0.39200
C 	C 	0.94808 0.68018 0.47632 -0.10200
C 	C 	0.88784 0.71916 0.47678 0.00600
C 	C 	0.86723 0.77959 0.47501 -0.03000
C 	C 	0.90783 0.80267 0.47097 0.04400
C 	C 	0.96933 0.76371 0.46915 -0.09700
C 	C 	0.98876 0.70268 0.47204 0.03400
C 	C 	0.96960 0.61560 0.47960 0.39200
C 	C 	0.89542 0.47632 0.68018 -0.10200
C 	C 	0.91622 0.47678 0.71916 0.00600
C 	C 	0.87817 0.47501 0.77959 -0.03000
C 	C 	0.81853 0.47097 0.80267 0.04400
C 	C 	0.79781 0.46915 0.76371 -0.09700
C 	C 	0.83652 0.47204 0.70268 0.03300
C 	C 	0.93520 0.47960 0.61560 0.39200
O 	O 	0.09391 0.97833 0.41191 -0.43200
O 	O 	0.01395 0.06715 0.40257 -0.40800
O 	O 	0.97833 0.09391 0.51585 -0.43200
O 	O 	0.06715 0.01395 0.51633 -0.40800
O 	O 	0.41191 0.51585 0.09391 -0.43100
O 	O 	0.40257 0.51633 0.01395 -0.40800
O 	O 	0.51585 0.41191 0.97833 -0.43200
O 	O 	0.51633 0.40257 0.06715 -0.40800
O 	O 	0.09391 0.41191 0.51585 -0.43100
O 	O 	0.01395 0.40257 0.51633 -0.40800
O 	O 	0.97833 0.51585 0.41191 -0.43200
O 	O 	0.06715 0.51633 0.40257 -0.40800
O 	O 	0.41191 0.09391 0.97833 -0.43200
O 	O 	0.40257 0.01395 0.06715 -0.40800
O 	O 	0.51585 0.97833 0.09391 -0.43200
O 	O 	0.51633 0.06715 0.01395 -0.40800
O 	O 	0.09391 0.51585 0.97833 -0.43200
O 	O 	0.01395 0.51633 0.06715 -0.40800
O 	O 	0.97833 0.41191 0.09391 -0.43200
O 	O 	0.06715 0.40257 0.01395 -0.40800
O 	O 	0.41191 0.97833 0.51585 -0.43200
O 	O 	0.40257 0.06715 0.51633 -0.40800
O 	O 	0.51585 0.09391 0.41191 -0.43100
O 	O 	0.51633 0.01395 0.40257 -0.40800
O 	O 	0.02167 0.90609 0.58809 -0.43200
O 	O 	0.93285 0.98605 0.59743 -0.40800
O 	O 	0.90609 0.02167 0.48415 -0.43200
O 	O 	0.98605 0.93285 0.48367 -0.40800
O 	O 	0.48415 0.58809 0.90609 -0.43100
O 	O 	0.48367 0.59743 0.98605 -0.40800
O 	O 	0.58809 0.48415 0.02167 -0.43200
O 	O 	0.59743 0.48367 0.93285 -0.40800
O 	O 	0.58809 0.90609 0.48415 -0.43100
O 	O 	0.59743 0.98605 0.48367 -0.40800
O 	O 	0.48415 0.02167 0.58809 -0.43200
O 	O 	0.48367 0.93285 0.59743 -0.40800
O 	O 	0.90609 0.58809 0.02167 -0.43200
O 	O 	0.98605 0.59743 0.93285 -0.40800
O 	O 	0.02167 0.48415 0.90609 -0.43200
O 	O 	0.93285 0.48367 0.98605 -0.40800
O 	O 	0.48415 0.90609 0.02167 -0.43200
O 	O 	0.48367 0.98605 0.93285 -0.40800
O 	O 	0.58809 0.02167 0.90609 -0.43200
O 	O 	0.59743 0.93285 0.98605 -0.40800
O 	O 	0.02167 0.58809 0.48415 -0.43200
O 	O 	0.93285 0.59743 0.48367 -0.40800
O 	O 	0.90609 0.48415 0.58809 -0.43100
O 	O 	0.98605 0.48367 0.59743 -0.40800
