data_crystal

_cell_length_a 7.91370
_cell_length_b 12.73040
_cell_length_c 27.35700
_cell_angle_alpha 90.00000
_cell_angle_beta  90.00000
_cell_angle_gamma 90.00000

_symmetry_space_group_name_	'P 1'
_symmetry_space_group_name_H-M	'P 1'

loop_
_symmetry_equiv_pos_as_xyz
  x,y,z

loop_
_atom_site_label
_atom_site_type_symbol
_atom_site_fract_x
_atom_site_fract_y
_atom_site_fract_z
_atom_site_charge
Mn	Mn	0.34445 0.25753 0.02287 1.26900
Mn	Mn	0.15555 0.74247 0.52287 1.26800
Mn	Mn	0.65555 0.75753 0.47713 1.26800
Mn	Mn	0.84445 0.24247 0.97713 1.26800
P 	P 	0.59360 0.44848 0.96763 0.48000
P 	P 	0.51730 0.62809 0.56103 0.44300
P 	P 	0.90640 0.55152 0.46763 0.48000
P 	P 	0.98270 0.37191 0.06103 0.44300
P 	P 	0.40640 0.94848 0.53237 0.48000
P 	P 	0.48270 0.12809 0.93897 0.44300
P 	P 	0.09360 0.05152 0.03237 0.47600
P 	P 	0.01730 0.87191 0.43897 0.44300
H 	H 	0.13060 0.90310 0.91200 0.22100
H 	H 	0.04190 0.01200 0.89810 0.19300
H 	H 	0.96500 0.90370 0.87850 0.19400
H 	H 	0.88030 0.83740 0.75310 0.19600
H 	H 	0.70260 0.82290 0.78020 0.18400
H 	H 	0.87360 0.78830 0.80700 0.19500
H 	H 	0.50900 0.68600 0.83140 0.04800
H 	H 	0.77400 0.70000 0.71200 0.00100
H 	H 	0.00800 0.46200 0.88300 0.13000
H 	H 	0.46900 0.92100 0.69400 0.05300
H 	H 	0.27400 0.53700 0.71760 0.06500
H 	H 	0.70800 0.63600 0.77600 -0.01700
H 	H 	0.66100 0.61000 0.89400 0.05600
H 	H 	0.36400 0.50000 0.64000 0.01900
H 	H 	0.82300 0.51000 0.81300 0.03300
H 	H 	0.53000 0.80700 0.62500 0.03700
H 	H 	0.12200 0.97300 0.81100 -0.03200
H 	H 	0.28500 0.97100 0.85400 -0.02500
H 	H 	0.25600 0.43500 0.93000 0.05300
H 	H 	0.39700 0.96300 0.76600 0.09500
H 	H 	0.46700 0.47000 0.55100 0.25400
H 	H 	0.73900 0.53000 0.01300 0.36500
H 	H 	0.36940 0.09690 0.41200 0.22300
H 	H 	0.45810 0.98800 0.39810 0.19600
H 	H 	0.53500 0.09630 0.37850 0.19800
H 	H 	0.61970 0.16260 0.25310 0.19600
H 	H 	0.79740 0.17710 0.28020 0.18400
H 	H 	0.62640 0.21170 0.30700 0.19500
H 	H 	0.99100 0.31400 0.33140 0.04900
H 	H 	0.72600 0.30000 0.21200 0.00100
H 	H 	0.49200 0.53800 0.38300 0.13100
H 	H 	0.03100 0.07900 0.19400 0.05200
H 	H 	0.22600 0.46300 0.21760 0.06500
H 	H 	0.79200 0.36400 0.27600 -0.01700
H 	H 	0.83900 0.39000 0.39400 0.05600
H 	H 	0.13600 0.50000 0.14000 0.01900
H 	H 	0.67700 0.49000 0.31300 0.03200
H 	H 	0.97000 0.19300 0.12500 0.03700
H 	H 	0.37800 0.02700 0.31100 -0.03400
H 	H 	0.21500 0.02900 0.35400 -0.02600
H 	H 	0.24400 0.56500 0.43000 0.05300
H 	H 	0.10300 0.03700 0.26600 0.09500
H 	H 	0.03300 0.53000 0.05100 0.25500
H 	H 	0.76100 0.47000 0.51300 0.36500
H 	H 	0.86940 0.40310 0.58800 0.22100
H 	H 	0.95810 0.51200 0.60190 0.19300
H 	H 	0.03500 0.40370 0.62150 0.19500
H 	H 	0.11970 0.33740 0.74690 0.19700
H 	H 	0.29740 0.32290 0.71980 0.18400
H 	H 	0.12640 0.28830 0.69300 0.19500
H 	H 	0.49100 0.18600 0.66860 0.04800
H 	H 	0.22600 0.20000 0.78800 0.00100
H 	H 	0.99200 0.96200 0.61700 0.12600
H 	H 	0.53100 0.42100 0.80600 0.05400
H 	H 	0.72600 0.03700 0.78240 0.06500
H 	H 	0.29200 0.13600 0.72400 -0.01700
H 	H 	0.33900 0.11000 0.60600 0.05600
H 	H 	0.63600 0.00000 0.86000 0.02000
H 	H 	0.17700 0.01000 0.68700 0.03300
H 	H 	0.47000 0.30700 0.87500 0.03700
H 	H 	0.87800 0.47300 0.68900 -0.03200
H 	H 	0.71500 0.47100 0.64600 -0.02400
H 	H 	0.74400 0.93500 0.57000 0.05200
H 	H 	0.60300 0.46300 0.73400 0.09500
H 	H 	0.53300 0.97000 0.94900 0.25200
H 	H 	0.26100 0.03000 0.48700 0.36400
H 	H 	0.63060 0.59690 0.08800 0.22200
H 	H 	0.54190 0.48800 0.10190 0.19300
H 	H 	0.46500 0.59630 0.12150 0.19700
H 	H 	0.38030 0.66260 0.24690 0.19700
H 	H 	0.20260 0.67710 0.21980 0.18400
H 	H 	0.37360 0.71170 0.19300 0.19500
H 	H 	0.00900 0.81400 0.16860 0.05000
H 	H 	0.27400 0.80000 0.28800 0.00100
H 	H 	0.50800 0.03800 0.11700 0.12400
H 	H 	0.96900 0.57900 0.30600 0.05300
H 	H 	0.77400 0.96300 0.28240 0.06600
H 	H 	0.20800 0.86400 0.22400 -0.01700
H 	H 	0.16100 0.89000 0.10600 0.05600
H 	H 	0.86400 0.00000 0.36000 0.01800
H 	H 	0.32300 0.99000 0.18700 0.03400
H 	H 	0.03000 0.69300 0.37500 0.03700
H 	H 	0.62200 0.52700 0.18900 -0.03300
H 	H 	0.78500 0.52900 0.14600 -0.02500
H 	H 	0.75600 0.06500 0.07000 0.05300
H 	H 	0.89700 0.53700 0.23400 0.09500
H 	H 	0.96700 0.03000 0.44900 0.25400
H 	H 	0.23900 0.97000 0.98700 0.36100
C 	C 	0.54990 0.58840 0.88890 -0.02900
C 	C 	0.47920 0.74880 0.64320 -0.02700
C 	C 	0.20380 0.63900 0.80000 0.00300
C 	C 	0.36400 0.90210 0.75390 -0.16300
C 	C 	0.95790 0.53610 0.82530 0.00100
C 	C 	0.42120 0.77330 0.69020 -0.01400
C 	C 	0.46230 0.63030 0.85130 -0.04100
C 	C 	0.32860 0.59020 0.69910 -0.10000
C 	C 	0.21370 0.52970 0.87380 0.08200
C 	C 	0.04010 0.60360 0.79190 0.09000
C 	C 	0.30910 0.48610 0.91250 -0.09100
C 	C 	0.43140 0.87430 0.70900 -0.03900
C 	C 	0.28140 0.71900 0.76690 -0.06700
C 	C 	0.28830 0.82120 0.78240 0.17400
C 	C 	0.34290 0.69320 0.71900 0.04700
C 	C 	0.47550 0.51120 0.92000 -0.02800
C 	C 	0.38290 0.56930 0.65240 0.00700
C 	C 	0.04400 0.50230 0.86540 -0.20900
C 	C 	0.79860 0.68370 0.75370 0.19200
C 	C 	0.18050 0.94920 0.84060 0.24200
C 	C 	0.06950 0.94130 0.88650 -0.57100
C 	C 	0.29360 0.60080 0.84080 -0.01400
C 	C 	0.45990 0.65030 0.62350 -0.09700
C 	C 	0.81520 0.79270 0.77540 -0.54900
C 	C 	0.95010 0.41160 0.38890 -0.02600
C 	C 	0.02080 0.25120 0.14320 -0.02600
C 	C 	0.29620 0.36100 0.30000 0.00400
C 	C 	0.13600 0.09790 0.25390 -0.16500
C 	C 	0.54210 0.46390 0.32530 0.00300
C 	C 	0.07880 0.22670 0.19020 -0.01500
C 	C 	0.03770 0.36970 0.35130 -0.04300
C 	C 	0.17140 0.40980 0.19910 -0.10000
C 	C 	0.28630 0.47030 0.37380 0.08200
C 	C 	0.45990 0.39640 0.29190 0.08900
C 	C 	0.19090 0.51390 0.41250 -0.09100
C 	C 	0.06860 0.12570 0.20900 -0.03800
C 	C 	0.21860 0.28100 0.26690 -0.06800
C 	C 	0.21170 0.17880 0.28240 0.17500
C 	C 	0.15710 0.30680 0.21900 0.04700
C 	C 	0.02450 0.48880 0.42000 -0.03000
C 	C 	0.11710 0.43070 0.15240 0.00700
C 	C 	0.45600 0.49770 0.36540 -0.21100
C 	C 	0.70140 0.31630 0.25370 0.19200
C 	C 	0.31950 0.05080 0.34060 0.24600
C 	C 	0.43050 0.05870 0.38650 -0.57900
C 	C 	0.20640 0.39920 0.34080 -0.01300
C 	C 	0.04010 0.34970 0.12350 -0.09700
C 	C 	0.68480 0.20730 0.27540 -0.55000
C 	C 	0.45010 0.08840 0.61110 -0.02800
C 	C 	0.52080 0.24880 0.85680 -0.02700
C 	C 	0.79620 0.13900 0.70000 0.00200
C 	C 	0.63600 0.40210 0.74610 -0.16300
C 	C 	0.04210 0.03610 0.67470 -0.00300
C 	C 	0.57880 0.27330 0.80980 -0.01400
C 	C 	0.53770 0.13030 0.64870 -0.04200
C 	C 	0.67140 0.09020 0.80090 -0.10000
C 	C 	0.78630 0.02970 0.62620 0.07900
C 	C 	0.95990 0.10360 0.70810 0.09200
C 	C 	0.69090 0.98610 0.58750 -0.09000
C 	C 	0.56860 0.37430 0.79100 -0.04000
C 	C 	0.71860 0.21900 0.73310 -0.06700
C 	C 	0.71170 0.32120 0.71760 0.17400
C 	C 	0.65710 0.19320 0.78100 0.04600
C 	C 	0.52450 0.01120 0.58000 -0.02900
C 	C 	0.61710 0.06930 0.84760 0.00700
C 	C 	0.95600 0.00230 0.63460 -0.20100
C 	C 	0.20140 0.18370 0.74630 0.19300
C 	C 	0.81950 0.44920 0.65940 0.24200
C 	C 	0.93050 0.44130 0.61350 -0.57200
C 	C 	0.70640 0.10080 0.65920 -0.01200
C 	C 	0.54010 0.15030 0.87650 -0.09700
C 	C 	0.18480 0.29270 0.72460 -0.55000
C 	C 	0.04990 0.91160 0.11110 -0.02500
C 	C 	0.97920 0.75120 0.35680 -0.02600
C 	C 	0.70380 0.86100 0.20000 0.00200
C 	C 	0.86400 0.59790 0.24610 -0.16400
C 	C 	0.45790 0.96390 0.17470 -0.00200
C 	C 	0.92120 0.72670 0.30980 -0.01500
C 	C 	0.96230 0.86970 0.14870 -0.04500
C 	C 	0.82860 0.90980 0.30090 -0.10100
C 	C 	0.71370 0.97030 0.12620 0.08000
C 	C 	0.54010 0.89640 0.20810 0.09100
C 	C 	0.80910 0.01390 0.08750 -0.09400
C 	C 	0.93140 0.62570 0.29100 -0.03800
C 	C 	0.78140 0.78100 0.23310 -0.06700
C 	C 	0.78830 0.67880 0.21760 0.17500
C 	C 	0.84290 0.80680 0.28100 0.04700
C 	C 	0.97550 0.98880 0.08000 -0.02700
C 	C 	0.88290 0.93070 0.34760 0.00900
C 	C 	0.54400 0.99770 0.13460 -0.19900
C 	C 	0.29860 0.81630 0.24630 0.19300
C 	C 	0.68050 0.55080 0.15940 0.24300
C 	C 	0.56950 0.55870 0.11350 -0.57400
C 	C 	0.79360 0.89920 0.15920 -0.01200
C 	C 	0.95990 0.84970 0.37650 -0.09800
C 	C 	0.31520 0.70730 0.22460 -0.55000
O 	O 	0.96140 0.63410 0.74876 -0.23700
O 	O 	0.46830 0.39820 0.00218 -0.44600
O 	O 	0.67940 0.54620 0.99294 -0.54100
O 	O 	0.21840 0.84100 0.82701 -0.26100
O 	O 	0.37640 0.65570 0.52703 -0.49800
O 	O 	0.67730 0.68680 0.54942 -0.42400
O 	O 	0.72620 0.37730 0.94656 -0.44700
O 	O 	0.55260 0.50680 0.55592 -0.45500
O 	O 	0.53860 0.36590 0.24876 -0.23700
O 	O 	0.03170 0.60180 0.50218 -0.44600
O 	O 	0.82060 0.45380 0.49294 -0.54100
O 	O 	0.28160 0.15900 0.32701 -0.26200
O 	O 	0.12360 0.34430 0.02703 -0.49800
O 	O 	0.82270 0.31320 0.04942 -0.42500
O 	O 	0.77380 0.62270 0.44656 -0.44700
O 	O 	0.94740 0.49320 0.05592 -0.45600
O 	O 	0.03860 0.13410 0.75124 -0.23800
O 	O 	0.53170 0.89820 0.49782 -0.44600
O 	O 	0.32060 0.04620 0.50706 -0.54100
O 	O 	0.78160 0.34100 0.67299 -0.26100
O 	O 	0.62360 0.15570 0.97297 -0.49700
O 	O 	0.32270 0.18680 0.95058 -0.42400
O 	O 	0.27380 0.87730 0.55344 -0.44700
O 	O 	0.44740 0.00680 0.94408 -0.45300
O 	O 	0.46140 0.86590 0.25124 -0.23700
O 	O 	0.96830 0.10180 0.99782 -0.44400
O 	O 	0.17940 0.95380 0.00706 -0.53600
O 	O 	0.71840 0.65900 0.17299 -0.26100
O 	O 	0.87640 0.84430 0.47297 -0.49700
O 	O 	0.17730 0.81320 0.45058 -0.42400
O 	O 	0.22620 0.12270 0.05344 -0.44700
O 	O 	0.05260 0.99320 0.44408 -0.45500
