data_crystal

_cell_length_a 6.92900
_cell_length_b 8.18500
_cell_length_c 10.44150
_cell_angle_alpha 108.75100
_cell_angle_beta  109.37800
_cell_angle_gamma 90.00000

_symmetry_space_group_name_	'P 1'
_symmetry_space_group_name_H-M	'P 1'

loop_
_symmetry_equiv_pos_as_xyz
  x,y,z

loop_
_atom_site_label
_atom_site_type_symbol
_atom_site_fract_x
_atom_site_fract_y
_atom_site_fract_z
_atom_site_charge
Ni	Ni	-0.00000 0.00000 0.50000 1.04500
Ni	Ni	0.50000 0.50000 0.50000 1.09100
H 	H 	0.06330 0.01180 0.80480 -0.05100
H 	H 	0.82060 0.85170 0.92620 0.04400
H 	H 	0.25850 0.48820 0.19520 0.08600
H 	H 	0.89440 0.64830 0.07380 0.08000
H 	H 	0.93670 0.98820 0.19520 0.23700
H 	H 	0.17940 0.14830 0.07380 0.01400
H 	H 	0.74150 0.51180 0.80480 0.11000
H 	H 	0.10560 0.35170 0.92620 -0.03300
C 	C 	0.81630 0.81970 0.66360 0.34900
C 	C 	0.95420 0.94000 0.80660 -0.01700
C 	C 	0.93290 0.94170 0.92920 -0.00600
C 	C 	0.15270 0.68030 0.33640 0.39300
C 	C 	0.14760 0.56000 0.19340 -0.18400
C 	C 	0.00370 0.55830 0.07080 -0.05900
C 	C 	0.18370 0.18030 0.33640 0.46800
C 	C 	0.04580 0.06000 0.19340 -0.44500
C 	C 	0.06710 0.05830 0.07080 0.07100
C 	C 	0.84730 0.31970 0.66360 0.42700
C 	C 	0.85240 0.44000 0.80660 -0.29000
C 	C 	0.99630 0.44170 0.92920 0.13600
O 	O 	0.83887 0.82870 0.55034 -0.38300
O 	O 	0.68250 0.71310 0.66060 -0.41400
O 	O 	0.28853 0.67130 0.44966 -0.43100
O 	O 	0.02190 0.78690 0.33940 -0.42000
O 	O 	0.16113 0.17130 0.44966 -0.48800
O 	O 	0.31750 0.28690 0.33940 -0.45400
O 	O 	0.71147 0.32870 0.55034 -0.44900
O 	O 	0.97810 0.21310 0.66060 -0.42700
