data_crystal

_cell_length_a 7.03680
_cell_length_b 8.21600
_cell_length_c 10.48970
_cell_angle_alpha 108.85900
_cell_angle_beta  109.59800
_cell_angle_gamma 90.00000

_symmetry_space_group_name_	'P 1'
_symmetry_space_group_name_H-M	'P 1'

loop_
_symmetry_equiv_pos_as_xyz
  x,y,z

loop_
_atom_site_label
_atom_site_type_symbol
_atom_site_fract_x
_atom_site_fract_y
_atom_site_fract_z
_atom_site_charge
Co	Co	-0.00000 0.00000 0.50000 1.10100
Co	Co	0.50000 0.50000 0.50000 1.15000
H 	H 	0.05630 0.01300 0.80660 -0.05800
H 	H 	0.82600 0.86900 0.92600 0.05900
H 	H 	0.24970 0.48700 0.19340 0.08400
H 	H 	0.90000 0.63100 0.07400 0.09100
H 	H 	0.94370 0.98700 0.19340 0.25500
H 	H 	0.17400 0.13100 0.07400 -0.00200
H 	H 	0.75030 0.51300 0.80660 0.12400
H 	H 	0.10000 0.36900 0.92600 -0.04700
C 	C 	0.81567 0.82004 0.66434 0.34500
C 	C 	0.95257 0.93978 0.80674 0.00100
C 	C 	0.93478 0.94283 0.92976 -0.04400
C 	C 	0.15133 0.67996 0.33566 0.39400
C 	C 	0.14583 0.56022 0.19326 -0.17700
C 	C 	0.00502 0.55717 0.07024 -0.09100
C 	C 	0.18433 0.17996 0.33566 0.48900
C 	C 	0.04743 0.06022 0.19326 -0.49100
C 	C 	0.06522 0.05717 0.07024 0.10800
C 	C 	0.84867 0.32004 0.66434 0.44400
C 	C 	0.85417 0.43978 0.80674 -0.32900
C 	C 	0.99498 0.44283 0.92976 0.17000
O 	O 	0.84128 0.82725 0.55222 -0.39500
O 	O 	0.68230 0.71660 0.66218 -0.42400
O 	O 	0.28906 0.67275 0.44778 -0.44200
O 	O 	0.02012 0.78340 0.33782 -0.42700
O 	O 	0.15872 0.17275 0.44778 -0.50500
O 	O 	0.31770 0.28340 0.33782 -0.47000
O 	O 	0.71094 0.32725 0.55222 -0.46800
O 	O 	0.97988 0.21660 0.66218 -0.44500
