data_crystal

_cell_length_a 25.93800
_cell_length_b 18.15800
_cell_length_c 16.79290
_cell_angle_alpha 90.00000
_cell_angle_beta  116.94500
_cell_angle_gamma 90.00000

_symmetry_space_group_name_	'P 1'
_symmetry_space_group_name_H-M	'P 1'

loop_
_symmetry_equiv_pos_as_xyz
  x,y,z

loop_
_atom_site_label
_atom_site_type_symbol
_atom_site_fract_x
_atom_site_fract_y
_atom_site_fract_z
_atom_site_charge
Co	Co	0.37050 0.72123 0.51337 1.16600
Co	Co	0.29643 0.76828 0.29557 1.19000
Co	Co	0.21186 0.81194 0.06896 1.15700
O 	O 	0.37450 0.62200 0.46050 -0.42600
O 	O 	0.31430 0.65470 0.31860 -0.42000
O 	O 	0.28280 0.88130 0.27730 -0.41800
O 	O 	0.21580 0.90630 0.13600 -0.44500
O 	O 	0.45630 0.75130 0.52260 -0.36400
O 	O 	0.37380 0.79040 0.41430 -0.50100
O 	O 	0.72150 0.24080 0.17640 -0.50800
O 	O 	0.63390 0.27630 0.08270 -0.38600
O 	O 	0.34710 0.76700 0.22820 -0.41600
O 	O 	0.29550 0.81480 0.09100 -0.45300
O 	O 	0.78630 0.80420 0.97620 -0.40500
O 	O 	0.74370 0.72270 0.86470 -0.39600
N 	N 	0.19890 0.72360 0.97850 -0.17300
N 	N 	0.17940 0.86520 0.94310 -0.21200
N 	N 	0.35990 0.82390 0.56910 -0.22100
N 	N 	0.40440 0.69790 0.64940 -0.22600
C 	C 	0.33970 0.60880 0.38080 0.37500
C 	C 	0.32720 0.52750 0.35780 -0.11600
C 	C 	0.34460 0.47570 0.42410 0.04900
H 	H 	0.36450 0.49140 0.48460 0.02900
C 	C 	0.33420 0.40120 0.40600 -0.12200
H 	H 	0.34710 0.36640 0.45340 0.07600
C 	C 	0.30450 0.37780 0.31740 0.07300
C 	C 	0.28670 0.42950 0.24820 -0.11800
H 	H 	0.26740 0.41360 0.18780 0.06700
C 	C 	0.29710 0.50420 0.26760 0.04000
H 	H 	0.28420 0.53930 0.22060 0.02400
C 	C 	0.29340 0.30010 0.29710 -0.02800
C 	C 	0.28530 0.23560 0.28320 -0.03200
C 	C 	0.27520 0.15810 0.26750 0.07600
C 	C 	0.30480 0.10760 0.33670 -0.12100
H 	H 	0.33040 0.12470 0.39480 0.07400
C 	C 	0.29620 0.03110 0.31950 0.04600
H 	H 	0.31640 0.99680 0.36600 0.02700
C 	C 	0.25800 0.00590 0.23380 -0.12500
C 	C 	0.22730 0.05670 0.16700 0.05300
H 	H 	0.20000 0.03970 0.10980 0.01500
C 	C 	0.23590 0.13180 0.18270 -0.12600
H 	H 	0.21520 0.16570 0.13600 0.07500
C 	C 	0.25140 0.92440 0.21430 0.37600
C 	C 	0.43000 0.79010 0.45300 0.32800
C 	C 	0.46150 0.83950 0.42000 -0.10700
C 	C 	0.52100 0.83080 0.44960 0.03500
H 	H 	0.54060 0.79080 0.48790 0.04600
C 	C 	0.55130 0.87920 0.42410 -0.11100
H 	H 	0.59150 0.87220 0.44380 0.07600
C 	C 	0.52280 0.93940 0.36850 0.06700
C 	C 	0.46330 0.94810 0.33970 -0.10900
H 	H 	0.44380 0.98860 0.30230 0.06800
C 	C 	0.43210 0.89860 0.36460 0.03300
H 	H 	0.39170 0.90500 0.34430 0.03400
C 	C 	0.55320 0.99370 0.34390 -0.02900
C 	C 	0.57380 0.04260 0.31980 -0.02400
C 	C 	0.59870 0.09570 0.28300 0.06300
C 	C 	0.65660 0.09120 0.30050 -0.10500
H 	H 	0.68140 0.05630 0.34260 0.07000
C 	C 	0.67820 0.13740 0.25690 0.03000
H 	H 	0.71710 0.13240 0.26680 0.03200
C 	C 	0.64230 0.19150 0.19810 -0.11000
C 	C 	0.58600 0.19830 0.18340 0.03100
H 	H 	0.56230 0.23550 0.14410 0.04300
C 	C 	0.56250 0.15140 0.22540 -0.10300
H 	H 	0.52360 0.15680 0.21560 0.07200
C 	C 	0.66660 0.24030 0.15080 0.32900
C 	C 	0.34100 0.78860 0.15370 0.37600
C 	C 	0.39160 0.77890 0.13320 -0.11100
C 	C 	0.38080 0.76820 0.04510 -0.00400
H 	H 	0.34200 0.76820 0.99930 0.06800
C 	C 	0.42580 0.75770 0.02280 -0.18100
H 	H 	0.41780 0.75040 0.96230 0.11500
C 	C 	0.48400 0.75780 0.09160 0.09600
C 	C 	0.49430 0.77060 0.18030 -0.13200
H 	H 	0.53290 0.77220 0.22670 0.07800
C 	C 	0.44880 0.78070 0.20030 0.05000
H 	H 	0.45630 0.78900 0.26050 0.03000
C 	C 	0.53020 0.74890 0.06740 -0.07400
C 	C 	0.56630 0.74440 0.04060 0.00300
C 	C 	0.61030 0.74620 0.01030 -0.04700
C 	C 	0.61070 0.69810 0.94580 0.01300
H 	H 	0.58180 0.66110 0.92160 0.03800
C 	C 	0.65310 0.70370 0.91600 -0.04900
H 	H 	0.65210 0.67180 0.87040 0.06200
C 	C 	0.69710 0.75670 0.95410 -0.00100
C 	C 	0.69740 0.80300 0.01920 -0.09100
H 	H 	0.72720 0.83870 0.04490 0.05900
C 	C 	0.65460 0.79860 0.04880 -0.02700
H 	H 	0.65570 0.83070 0.09420 0.03600
C 	C 	0.74550 0.76140 0.92760 0.32500
C 	C 	0.21320 0.65390 0.00360 -0.06900
H 	H 	0.22880 0.64210 0.06530 0.04100
C 	C 	0.20620 0.59740 0.94280 0.00300
H 	H 	0.21710 0.54810 0.96230 0.04000
C 	C 	0.18230 0.61600 0.85240 -0.03200
H 	H 	0.17650 0.57900 0.80910 0.04300
C 	C 	0.16730 0.68840 0.82570 -0.06200
H 	H 	0.15130 0.70190 0.76450 0.05000
C 	C 	0.17650 0.74090 0.89210 0.03800
C 	C 	0.16580 0.82130 0.87100 0.06000
C 	C 	0.14570 0.85020 0.78540 -0.10200
H 	H 	0.13540 0.81830 0.73570 0.06600
C 	C 	0.14070 0.92590 0.77320 0.03200
H 	H 	0.12740 0.94660 0.71520 0.02500
C 	C 	0.15560 0.97070 0.84720 -0.10000
H 	H 	0.15280 0.02280 0.84070 0.07000
C 	C 	0.17480 0.93850 0.93190 0.06300
H 	H 	0.18470 0.96930 0.98250 0.02500
C 	C 	0.33490 0.88450 0.52220 0.06900
H 	H 	0.31920 0.88300 0.45900 0.01200
C 	C 	0.33110 0.94980 0.56290 -0.11500
H 	H 	0.31250 0.99200 0.52830 0.07300
C 	C 	0.35470 0.95140 0.65400 0.04000
H 	H 	0.35300 0.99540 0.68340 0.02000
C 	C 	0.38110 0.88930 0.70380 -0.11000
H 	H 	0.39740 0.88950 0.76710 0.06800
C 	C 	0.38280 0.82580 0.65670 0.05900
C 	C 	0.40820 0.75460 0.70280 0.04600
C 	C 	0.43140 0.74520 0.79610 -0.09200
H 	H 	0.43310 0.78550 0.83320 0.06400
C 	C 	0.45170 0.67600 0.83320 0.02100
H 	H 	0.46890 0.66890 0.89600 0.03400
C 	C 	0.44610 0.61680 0.77570 -0.10200
H 	H 	0.45820 0.56870 0.79860 0.07300
C 	C 	0.42240 0.63050 0.68470 0.06200
H 	H 	0.41880 0.59080 0.64560 0.00800
Co	Co	0.87050 0.22123 0.51337 1.16700
Co	Co	0.79643 0.26828 0.29557 1.19000
Co	Co	0.71186 0.31194 0.06896 1.15800
O 	O 	0.87450 0.12200 0.46050 -0.42400
O 	O 	0.81430 0.15470 0.31860 -0.41900
O 	O 	0.78280 0.38130 0.27730 -0.41700
O 	O 	0.71580 0.40630 0.13600 -0.44400
O 	O 	0.95630 0.25130 0.52260 -0.36000
O 	O 	0.87380 0.29040 0.41430 -0.49900
O 	O 	0.22150 0.74080 0.17640 -0.50700
O 	O 	0.13390 0.77630 0.08270 -0.38600
O 	O 	0.84710 0.26700 0.22820 -0.41500
O 	O 	0.79550 0.31480 0.09100 -0.45200
O 	O 	0.28630 0.30420 0.97620 -0.40400
O 	O 	0.24370 0.22270 0.86470 -0.39600
N 	N 	0.69890 0.22360 0.97850 -0.17400
N 	N 	0.67940 0.36520 0.94310 -0.21100
N 	N 	0.85990 0.32390 0.56910 -0.22100
N 	N 	0.90440 0.19790 0.64940 -0.22600
C 	C 	0.83970 0.10880 0.38080 0.37500
C 	C 	0.82720 0.02750 0.35780 -0.11600
C 	C 	0.84460 0.97570 0.42410 0.04900
H 	H 	0.86450 0.99140 0.48460 0.02900
C 	C 	0.83420 0.90120 0.40600 -0.12200
H 	H 	0.84710 0.86640 0.45340 0.07600
C 	C 	0.80450 0.87780 0.31740 0.07300
C 	C 	0.78670 0.92950 0.24820 -0.11900
H 	H 	0.76740 0.91360 0.18780 0.06700
C 	C 	0.79710 0.00420 0.26760 0.04100
H 	H 	0.78420 0.03930 0.22060 0.02400
C 	C 	0.79340 0.80010 0.29710 -0.02800
C 	C 	0.78530 0.73560 0.28320 -0.03200
C 	C 	0.77520 0.65810 0.26750 0.07600
C 	C 	0.80480 0.60760 0.33670 -0.12000
H 	H 	0.83040 0.62470 0.39480 0.07400
C 	C 	0.79620 0.53110 0.31950 0.04500
H 	H 	0.81640 0.49680 0.36600 0.02700
C 	C 	0.75800 0.50590 0.23380 -0.12600
C 	C 	0.72730 0.55670 0.16700 0.05300
H 	H 	0.70000 0.53970 0.10980 0.01500
C 	C 	0.73590 0.63180 0.18270 -0.12600
H 	H 	0.71520 0.66570 0.13600 0.07500
C 	C 	0.75140 0.42440 0.21430 0.37700
C 	C 	0.93000 0.29010 0.45300 0.32300
C 	C 	0.96150 0.33950 0.42000 -0.09000
C 	C 	0.02100 0.33080 0.44960 0.01400
H 	H 	0.04060 0.29080 0.48790 0.05100
C 	C 	0.05130 0.37920 0.42410 -0.09700
H 	H 	0.09150 0.37220 0.44380 0.07100
C 	C 	0.02280 0.43940 0.36850 0.05000
C 	C 	0.96330 0.44810 0.33970 -0.08900
H 	H 	0.94380 0.48860 0.30230 0.06300
C 	C 	0.93210 0.39860 0.36460 0.01900
H 	H 	0.89170 0.40500 0.34430 0.03800
C 	C 	0.05320 0.49370 0.34390 -0.02300
C 	C 	0.07380 0.54260 0.31980 -0.03000
C 	C 	0.09870 0.59570 0.28300 0.06500
C 	C 	0.15660 0.59120 0.30050 -0.10600
H 	H 	0.18140 0.55630 0.34260 0.07000
C 	C 	0.17820 0.63740 0.25690 0.03100
H 	H 	0.21710 0.63240 0.26680 0.03100
C 	C 	0.14230 0.69150 0.19810 -0.11100
C 	C 	0.08600 0.69830 0.18340 0.03200
H 	H 	0.06230 0.73550 0.14410 0.04100
C 	C 	0.06250 0.65140 0.22540 -0.10600
H 	H 	0.02360 0.65680 0.21560 0.07000
C 	C 	0.16660 0.74030 0.15080 0.33000
C 	C 	0.84100 0.28860 0.15370 0.37500
C 	C 	0.89160 0.27890 0.13320 -0.10800
C 	C 	0.88080 0.26820 0.04510 -0.00400
H 	H 	0.84200 0.26820 0.99930 0.06700
C 	C 	0.92580 0.25770 0.02280 -0.17800
H 	H 	0.91780 0.25040 0.96230 0.11400
C 	C 	0.98400 0.25780 0.09160 0.09800
C 	C 	0.99430 0.27060 0.18030 -0.11900
H 	H 	0.03290 0.27220 0.22670 0.07000
C 	C 	0.94880 0.28070 0.20030 0.04500
H 	H 	0.95630 0.28900 0.26050 0.03400
C 	C 	0.03020 0.24890 0.06740 -0.08000
C 	C 	0.06630 0.24440 0.04060 0.00300
C 	C 	0.11030 0.24620 0.01030 -0.04500
C 	C 	0.11070 0.19810 0.94580 0.01000
H 	H 	0.08180 0.16110 0.92160 0.03700
C 	C 	0.15310 0.20370 0.91600 -0.04700
H 	H 	0.15210 0.17180 0.87040 0.06100
C 	C 	0.19710 0.25670 0.95410 -0.00300
C 	C 	0.19740 0.30300 0.01920 -0.08700
H 	H 	0.22720 0.33870 0.04490 0.05800
C 	C 	0.15460 0.29860 0.04880 -0.02900
H 	H 	0.15570 0.33070 0.09420 0.03700
C 	C 	0.24550 0.26140 0.92760 0.32600
C 	C 	0.71320 0.15390 0.00360 -0.06600
H 	H 	0.72880 0.14210 0.06530 0.04000
C 	C 	0.70620 0.09740 0.94280 0.00000
H 	H 	0.71710 0.04810 0.96230 0.04100
C 	C 	0.68230 0.11600 0.85240 -0.03100
H 	H 	0.67650 0.07900 0.80910 0.04300
C 	C 	0.66730 0.18840 0.82570 -0.06300
H 	H 	0.65130 0.20190 0.76450 0.05000
C 	C 	0.67650 0.24090 0.89210 0.03900
C 	C 	0.66580 0.32130 0.87100 0.06000
C 	C 	0.64570 0.35020 0.78540 -0.10200
H 	H 	0.63540 0.31830 0.73570 0.06600
C 	C 	0.64070 0.42590 0.77320 0.03300
H 	H 	0.62740 0.44660 0.71520 0.02600
C 	C 	0.65560 0.47070 0.84720 -0.10100
H 	H 	0.65280 0.52280 0.84070 0.07100
C 	C 	0.67480 0.43850 0.93190 0.06400
H 	H 	0.68470 0.46930 0.98250 0.02500
C 	C 	0.83490 0.38450 0.52220 0.06900
H 	H 	0.81920 0.38300 0.45900 0.01200
C 	C 	0.83110 0.44980 0.56290 -0.11500
H 	H 	0.81250 0.49200 0.52830 0.07300
C 	C 	0.85470 0.45140 0.65400 0.04100
H 	H 	0.85300 0.49540 0.68340 0.02000
C 	C 	0.88110 0.38930 0.70380 -0.11000
H 	H 	0.89740 0.38950 0.76710 0.06900
C 	C 	0.88280 0.32580 0.65670 0.06000
C 	C 	0.90820 0.25460 0.70280 0.04700
C 	C 	0.93140 0.24520 0.79610 -0.09200
H 	H 	0.93310 0.28550 0.83320 0.06400
C 	C 	0.95170 0.17600 0.83320 0.02200
H 	H 	0.96890 0.16890 0.89600 0.03500
C 	C 	0.94610 0.11680 0.77570 -0.10200
H 	H 	0.95820 0.06870 0.79860 0.07300
C 	C 	0.92240 0.13050 0.68470 0.06200
H 	H 	0.91880 0.09080 0.64560 0.00800
Co	Co	0.37050 0.27877 0.01337 1.14700
Co	Co	0.29643 0.23172 0.79557 1.19100
Co	Co	0.21186 0.18806 0.56896 1.17000
O 	O 	0.37450 0.37800 0.96050 -0.40500
O 	O 	0.31430 0.34530 0.81860 -0.41500
O 	O 	0.28280 0.11870 0.77730 -0.41600
O 	O 	0.21580 0.09370 0.63600 -0.43500
O 	O 	0.45630 0.24870 0.02260 -0.40700
O 	O 	0.37380 0.20960 0.91430 -0.50200
O 	O 	0.72150 0.75920 0.67640 -0.50400
O 	O 	0.63390 0.72370 0.58270 -0.36900
O 	O 	0.34710 0.23300 0.72820 -0.41400
O 	O 	0.29550 0.18520 0.59100 -0.43900
O 	O 	0.78630 0.19580 0.47620 -0.43300
O 	O 	0.74370 0.27730 0.36470 -0.40700
N 	N 	0.19890 0.27640 0.47850 -0.22200
N 	N 	0.17940 0.13480 0.44310 -0.22100
N 	N 	0.35990 0.17610 0.06910 -0.21000
N 	N 	0.40440 0.30210 0.14940 -0.23200
C 	C 	0.33970 0.39120 0.88080 0.37100
C 	C 	0.32720 0.47250 0.85780 -0.11000
C 	C 	0.34460 0.52430 0.92410 0.04900
H 	H 	0.36450 0.50860 0.98460 0.04000
C 	C 	0.33420 0.59880 0.90600 -0.12000
H 	H 	0.34710 0.63360 0.95340 0.08600
C 	C 	0.30450 0.62220 0.81740 0.07400
C 	C 	0.28670 0.57050 0.74820 -0.11700
H 	H 	0.26740 0.58640 0.68780 0.07100
C 	C 	0.29710 0.49580 0.76760 0.03900
H 	H 	0.28420 0.46070 0.72060 0.03000
C 	C 	0.29340 0.69990 0.79710 -0.02600
C 	C 	0.28530 0.76440 0.78320 -0.03000
C 	C 	0.27520 0.84190 0.76750 0.07700
C 	C 	0.30480 0.89240 0.83670 -0.12000
H 	H 	0.33040 0.87530 0.89480 0.08300
C 	C 	0.29620 0.96890 0.81950 0.04700
H 	H 	0.31640 0.00320 0.86600 0.03200
C 	C 	0.25800 0.99410 0.73380 -0.12200
C 	C 	0.22730 0.94330 0.66700 0.05200
H 	H 	0.20000 0.96030 0.60980 0.02500
C 	C 	0.23590 0.86820 0.68270 -0.12400
H 	H 	0.21520 0.83430 0.63600 0.07900
C 	C 	0.25140 0.07560 0.71430 0.37500
C 	C 	0.43000 0.20990 0.95300 0.38000
C 	C 	0.46150 0.16050 0.92000 -0.12000
C 	C 	0.52100 0.16920 0.94960 0.05100
H 	H 	0.54060 0.20920 0.98790 0.05600
C 	C 	0.55130 0.12080 0.92410 -0.11600
H 	H 	0.59150 0.12780 0.94380 0.08700
C 	C 	0.52280 0.06060 0.86850 0.07700
C 	C 	0.46330 0.05190 0.83970 -0.11400
H 	H 	0.44380 0.01140 0.80230 0.07300
C 	C 	0.43210 0.10140 0.86460 0.04700
H 	H 	0.39170 0.09500 0.84430 0.03100
C 	C 	0.55320 0.00630 0.84390 -0.02800
C 	C 	0.57380 0.95740 0.81980 -0.01600
C 	C 	0.59870 0.90430 0.78300 0.06400
C 	C 	0.65660 0.90880 0.80050 -0.10100
H 	H 	0.68140 0.94370 0.84260 0.07200
C 	C 	0.67820 0.86260 0.75690 0.02900
H 	H 	0.71710 0.86760 0.76680 0.03400
C 	C 	0.64230 0.80850 0.69810 -0.10400
C 	C 	0.58600 0.80170 0.68340 0.03100
H 	H 	0.56230 0.76450 0.64410 0.04800
C 	C 	0.56250 0.84860 0.72540 -0.09900
H 	H 	0.52360 0.84320 0.71560 0.07300
C 	C 	0.66660 0.75970 0.65080 0.32800
C 	C 	0.34100 0.21140 0.65370 0.38100
C 	C 	0.39160 0.22110 0.63320 -0.11900
C 	C 	0.38080 0.23180 0.54510 0.04300
H 	H 	0.34200 0.23180 0.49930 0.02500
C 	C 	0.42580 0.24230 0.52280 -0.11800
H 	H 	0.41780 0.24960 0.46230 0.07000
C 	C 	0.48400 0.24220 0.59160 0.06900
C 	C 	0.49430 0.22940 0.68030 -0.11700
H 	H 	0.53290 0.22780 0.72670 0.07500
C 	C 	0.44880 0.21930 0.70030 0.04900
H 	H 	0.45630 0.21100 0.76050 0.03200
C 	C 	0.53020 0.25110 0.56740 -0.03100
C 	C 	0.56630 0.25560 0.54060 -0.03200
C 	C 	0.61030 0.25380 0.51030 0.06800
C 	C 	0.61070 0.30190 0.44580 -0.11600
H 	H 	0.58180 0.33890 0.42160 0.07200
C 	C 	0.65310 0.29630 0.41600 0.03900
H 	H 	0.65210 0.32820 0.37040 0.03000
C 	C 	0.69710 0.24330 0.45410 -0.11100
C 	C 	0.69740 0.19700 0.51920 0.04000
H 	H 	0.72720 0.16130 0.54490 0.02900
C 	C 	0.65460 0.20140 0.54880 -0.11700
H 	H 	0.65570 0.16930 0.59420 0.07000
C 	C 	0.74550 0.23860 0.42760 0.35700
C 	C 	0.21320 0.34610 0.50360 0.06300
H 	H 	0.22880 0.35790 0.56530 0.00700
C 	C 	0.20620 0.40260 0.44280 -0.11100
H 	H 	0.21710 0.45190 0.46230 0.06800
C 	C 	0.18230 0.38400 0.35240 0.03100
H 	H 	0.17650 0.42100 0.30910 0.02000
C 	C 	0.16730 0.31160 0.32570 -0.10600
H 	H 	0.15130 0.29810 0.26450 0.06400
C 	C 	0.17650 0.25910 0.39210 0.05500
C 	C 	0.16580 0.17870 0.37100 0.05000
C 	C 	0.14570 0.14980 0.28540 -0.10000
H 	H 	0.13540 0.18170 0.23570 0.06400
C 	C 	0.14070 0.07410 0.27320 0.03000
H 	H 	0.12740 0.05340 0.21520 0.02200
C 	C 	0.15560 0.02930 0.34720 -0.10500
H 	H 	0.15280 0.97720 0.34070 0.06800
C 	C 	0.17480 0.06150 0.43190 0.05900
H 	H 	0.18470 0.03070 0.48250 0.01000
C 	C 	0.33490 0.11550 0.02220 -0.02900
H 	H 	0.31920 0.11700 0.95900 0.06800
C 	C 	0.33110 0.05020 0.06290 -0.06000
H 	H 	0.31250 0.00800 0.02830 0.04100
C 	C 	0.35470 0.04860 0.15400 0.00000
H 	H 	0.35300 0.00460 0.18340 0.03200
C 	C 	0.38110 0.11070 0.20380 -0.08600
H 	H 	0.39740 0.11050 0.26710 0.05800
C 	C 	0.38280 0.17420 0.15670 0.04500
C 	C 	0.40820 0.24540 0.20280 0.04900
C 	C 	0.43140 0.25480 0.29610 -0.09700
H 	H 	0.43310 0.21450 0.33320 0.06100
C 	C 	0.45170 0.32400 0.33320 0.02300
H 	H 	0.46890 0.33110 0.39600 0.02400
C 	C 	0.44610 0.38320 0.27570 -0.10800
H 	H 	0.45820 0.43130 0.29860 0.06900
C 	C 	0.42240 0.36950 0.18470 0.06200
H 	H 	0.41880 0.40920 0.14560 -0.00200
Co	Co	0.87050 0.77877 0.01337 1.14700
Co	Co	0.79643 0.73172 0.79557 1.19100
Co	Co	0.71186 0.68806 0.56896 1.17000
O 	O 	0.87450 0.87800 0.96050 -0.40400
O 	O 	0.81430 0.84530 0.81860 -0.41400
O 	O 	0.78280 0.61870 0.77730 -0.41600
O 	O 	0.71580 0.59370 0.63600 -0.43500
O 	O 	0.95630 0.74870 0.02260 -0.40400
O 	O 	0.87380 0.70960 0.91430 -0.50000
O 	O 	0.22150 0.25920 0.67640 -0.50400
O 	O 	0.13390 0.22370 0.58270 -0.37000
O 	O 	0.84710 0.73300 0.72820 -0.41400
O 	O 	0.79550 0.68520 0.59100 -0.43900
O 	O 	0.28630 0.69580 0.47620 -0.43300
O 	O 	0.24370 0.77730 0.36470 -0.40700
N 	N 	0.69890 0.77640 0.47850 -0.22200
N 	N 	0.67940 0.63480 0.44310 -0.22100
N 	N 	0.85990 0.67610 0.06910 -0.21000
N 	N 	0.90440 0.80210 0.14940 -0.23200
C 	C 	0.83970 0.89120 0.88080 0.37100
C 	C 	0.82720 0.97250 0.85780 -0.10900
C 	C 	0.84460 0.02430 0.92410 0.04800
H 	H 	0.86450 0.00860 0.98460 0.04000
C 	C 	0.83420 0.09880 0.90600 -0.12000
H 	H 	0.84710 0.13360 0.95340 0.08500
C 	C 	0.80450 0.12220 0.81740 0.07400
C 	C 	0.78670 0.07050 0.74820 -0.11700
H 	H 	0.76740 0.08640 0.68780 0.07100
C 	C 	0.79710 0.99580 0.76760 0.03900
H 	H 	0.78420 0.96070 0.72060 0.03000
C 	C 	0.79340 0.19990 0.79710 -0.02600
C 	C 	0.78530 0.26440 0.78320 -0.03000
C 	C 	0.77520 0.34190 0.76750 0.07600
C 	C 	0.80480 0.39240 0.83670 -0.11900
H 	H 	0.83040 0.37530 0.89480 0.08200
C 	C 	0.79620 0.46890 0.81950 0.04500
H 	H 	0.81640 0.50320 0.86600 0.03300
C 	C 	0.75800 0.49410 0.73380 -0.12200
C 	C 	0.72730 0.44330 0.66700 0.05100
H 	H 	0.70000 0.46030 0.60980 0.02500
C 	C 	0.73590 0.36820 0.68270 -0.12300
H 	H 	0.71520 0.33430 0.63600 0.07900
C 	C 	0.75140 0.57560 0.71430 0.37500
C 	C 	0.93000 0.70990 0.95300 0.37500
C 	C 	0.96150 0.66050 0.92000 -0.10300
C 	C 	0.02100 0.66920 0.94960 0.03000
H 	H 	0.04060 0.70920 0.98790 0.06100
C 	C 	0.05130 0.62080 0.92410 -0.10100
H 	H 	0.09150 0.62780 0.94380 0.08200
C 	C 	0.02280 0.56060 0.86850 0.05900
C 	C 	0.96330 0.55190 0.83970 -0.09400
H 	H 	0.94380 0.51140 0.80230 0.06700
C 	C 	0.93210 0.60140 0.86460 0.03300
H 	H 	0.89170 0.59500 0.84430 0.03600
C 	C 	0.05320 0.50630 0.84390 -0.02100
C 	C 	0.07380 0.45740 0.81980 -0.02300
C 	C 	0.09870 0.40430 0.78300 0.06600
C 	C 	0.15660 0.40880 0.80050 -0.10300
H 	H 	0.18140 0.44370 0.84260 0.07200
C 	C 	0.17820 0.36260 0.75690 0.03000
H 	H 	0.21710 0.36760 0.76680 0.03300
C 	C 	0.14230 0.30850 0.69810 -0.10500
C 	C 	0.08600 0.30170 0.68340 0.03200
H 	H 	0.06230 0.26450 0.64410 0.04600
C 	C 	0.06250 0.34860 0.72540 -0.10100
H 	H 	0.02360 0.34320 0.71560 0.07200
C 	C 	0.16660 0.25970 0.65080 0.32800
C 	C 	0.84100 0.71140 0.65370 0.38000
C 	C 	0.89160 0.72110 0.63320 -0.11700
C 	C 	0.88080 0.73180 0.54510 0.04200
H 	H 	0.84200 0.73180 0.49930 0.02600
C 	C 	0.92580 0.74230 0.52280 -0.11800
H 	H 	0.91780 0.74960 0.46230 0.07100
C 	C 	0.98400 0.74220 0.59160 0.07300
C 	C 	0.99430 0.72940 0.68030 -0.10500
H 	H 	0.03290 0.72780 0.72670 0.06700
C 	C 	0.94880 0.71930 0.70030 0.04400
H 	H 	0.95630 0.71100 0.76050 0.03500
C 	C 	0.03020 0.75110 0.56740 -0.03900
C 	C 	0.06630 0.75560 0.54060 -0.03000
C 	C 	0.11030 0.75380 0.51030 0.06600
C 	C 	0.11070 0.80190 0.44580 -0.11500
H 	H 	0.08180 0.83890 0.42160 0.07000
C 	C 	0.15310 0.79630 0.41600 0.03800
H 	H 	0.15210 0.82820 0.37040 0.03000
C 	C 	0.19710 0.74330 0.45410 -0.11000
C 	C 	0.19740 0.69700 0.51920 0.03900
H 	H 	0.22720 0.66130 0.54490 0.02900
C 	C 	0.15460 0.70140 0.54880 -0.11600
H 	H 	0.15570 0.66930 0.59420 0.07000
C 	C 	0.24550 0.73860 0.42760 0.35700
C 	C 	0.71320 0.84610 0.50360 0.06300
H 	H 	0.72880 0.85790 0.56530 0.00700
C 	C 	0.70620 0.90260 0.44280 -0.11100
H 	H 	0.71710 0.95190 0.46230 0.06800
C 	C 	0.68230 0.88400 0.35240 0.03100
H 	H 	0.67650 0.92100 0.30910 0.02000
C 	C 	0.66730 0.81160 0.32570 -0.10600
H 	H 	0.65130 0.79810 0.26450 0.06400
C 	C 	0.67650 0.75910 0.39210 0.05500
C 	C 	0.66580 0.67870 0.37100 0.05000
C 	C 	0.64570 0.64980 0.28540 -0.10000
H 	H 	0.63540 0.68170 0.23570 0.06400
C 	C 	0.64070 0.57410 0.27320 0.03100
H 	H 	0.62740 0.55340 0.21520 0.02200
C 	C 	0.65560 0.52930 0.34720 -0.10600
H 	H 	0.65280 0.47720 0.34070 0.06900
C 	C 	0.67480 0.56150 0.43190 0.06000
H 	H 	0.68470 0.53070 0.48250 0.01000
C 	C 	0.83490 0.61550 0.02220 -0.03100
H 	H 	0.81920 0.61700 0.95900 0.07000
C 	C 	0.83110 0.55020 0.06290 -0.05800
H 	H 	0.81250 0.50800 0.02830 0.04000
C 	C 	0.85470 0.54860 0.15400 -0.00000
H 	H 	0.85300 0.50460 0.18340 0.03200
C 	C 	0.88110 0.61070 0.20380 -0.08500
H 	H 	0.89740 0.61050 0.26710 0.05800
C 	C 	0.88280 0.67420 0.15670 0.04600
C 	C 	0.90820 0.74540 0.20280 0.05000
C 	C 	0.93140 0.75480 0.29610 -0.09700
H 	H 	0.93310 0.71450 0.33320 0.06200
C 	C 	0.95170 0.82400 0.33320 0.02400
H 	H 	0.96890 0.83110 0.39600 0.02500
C 	C 	0.94610 0.88320 0.27570 -0.10700
H 	H 	0.95820 0.93130 0.29860 0.07000
C 	C 	0.92240 0.86950 0.18470 0.06300
H 	H 	0.91880 0.90920 0.14560 -0.00200
