data_crystal

_cell_length_a 10.89600
_cell_length_b 13.90100
_cell_length_c 14.25560
_cell_angle_alpha 90.00000
_cell_angle_beta  90.00000
_cell_angle_gamma 109.49000

_symmetry_space_group_name_	'P 1'
_symmetry_space_group_name_H-M	'P 1'

loop_
_symmetry_equiv_pos_as_xyz
  x,y,z

loop_
_atom_site_label
_atom_site_type_symbol
_atom_site_fract_x
_atom_site_fract_y
_atom_site_fract_z
_atom_site_charge
Na	Na	0.49401 0.83424 0.33126 0.57700
Na	Na	0.00599 0.66576 0.83126 0.57100
Na	Na	0.50599 0.16576 0.66874 0.57100
Na	Na	0.99401 0.33424 0.16874 0.57600
Na	Na	0.50000 0.00000 0.50000 0.57700
Na	Na	-0.00000 0.50000 -0.00000 0.57500
Na	Na	-0.00000 0.00000 0.50000 0.57600
Na	Na	0.50000 0.50000 -0.00000 0.58000
Co	Co	0.23925 0.99832 0.60569 1.18900
Co	Co	0.26075 0.50168 0.10569 1.15900
Co	Co	0.76075 0.00168 0.39431 1.13600
Co	Co	0.73925 0.49832 0.89431 1.16900
H 	H 	0.22970 0.71970 0.33680 -0.02600
H 	H 	0.86050 0.54620 0.27190 -0.00600
H 	H 	0.78240 0.62880 0.38780 0.09200
H 	H 	0.92650 0.76090 0.47470 0.00400
H 	H 	0.24180 0.24910 0.34300 0.01700
H 	H 	0.59190 0.42840 0.24310 0.02400
H 	H 	0.69680 0.35500 0.34930 0.06400
H 	H 	0.57600 0.22820 0.45270 0.00900
H 	H 	0.27030 0.78030 0.83680 -0.01100
H 	H 	0.63950 0.95380 0.77190 0.03500
H 	H 	0.71760 0.87120 0.88780 0.08800
H 	H 	0.57350 0.73910 0.97470 0.04000
H 	H 	0.25820 0.25090 0.84300 0.00800
H 	H 	0.90810 0.07160 0.74310 -0.01000
H 	H 	0.80320 0.14500 0.84930 0.08000
H 	H 	0.92400 0.27180 0.95270 0.00200
H 	H 	0.77030 0.28030 0.66320 0.00400
H 	H 	0.13950 0.45380 0.72810 0.04100
H 	H 	0.21760 0.37120 0.61220 0.04500
H 	H 	0.07350 0.23910 0.52530 0.04300
H 	H 	0.75820 0.75090 0.65700 0.03700
H 	H 	0.40810 0.57160 0.75690 0.02900
H 	H 	0.30320 0.64500 0.65070 0.05500
H 	H 	0.42400 0.77180 0.54730 0.01600
H 	H 	0.72970 0.21970 0.16320 -0.01100
H 	H 	0.36050 0.04620 0.22810 0.00300
H 	H 	0.28240 0.12880 0.11220 0.04800
H 	H 	0.42650 0.26090 0.02530 0.00900
H 	H 	0.74180 0.74910 0.15700 0.04700
H 	H 	0.09190 0.92840 0.25690 0.06400
H 	H 	0.19680 0.85500 0.15070 0.03800
H 	H 	0.07600 0.72820 0.04730 0.02600
C 	C 	0.09230 0.75300 0.41390 -0.21400
C 	C 	0.13860 0.70170 0.34660 0.13900
C 	C 	0.05320 0.62440 0.29350 -0.21200
C 	C 	0.91970 0.59830 0.30850 0.14100
C 	C 	0.87340 0.64810 0.37670 -0.18600
C 	C 	0.95890 0.72600 0.42880 0.14100
C 	C 	0.18610 0.84100 0.46710 0.38900
C 	C 	0.10020 0.57170 0.21630 0.37900
C 	C 	0.39690 0.22570 0.40670 -0.14900
C 	C 	0.33420 0.27030 0.34410 0.07100
C 	C 	0.40640 0.34600 0.28300 -0.13300
C 	C 	0.54210 0.37710 0.28510 0.04900
C 	C 	0.60430 0.33330 0.34800 -0.11300
C 	C 	0.53280 0.25780 0.40930 0.05100
C 	C 	0.31600 0.14360 0.47100 0.37100
C 	C 	0.33990 0.39610 0.21740 0.34500
C 	C 	0.40770 0.74700 0.91390 -0.15400
C 	C 	0.36140 0.79830 0.84660 0.09500
C 	C 	0.44680 0.87560 0.79350 -0.13300
C 	C 	0.58030 0.90170 0.80850 0.06100
C 	C 	0.62660 0.85190 0.87670 -0.11200
C 	C 	0.54110 0.77400 0.92880 0.06900
C 	C 	0.31390 0.65900 0.96710 0.42900
C 	C 	0.39980 0.92830 0.71630 0.35600
C 	C 	0.10310 0.27430 0.90670 -0.21600
C 	C 	0.16580 0.22970 0.84410 0.12500
C 	C 	0.09360 0.15400 0.78300 -0.19900
C 	C 	0.95790 0.12290 0.78510 0.12800
C 	C 	0.89570 0.16670 0.84800 -0.17800
C 	C 	0.96720 0.24220 0.90930 0.13300
C 	C 	0.18400 0.35640 0.97100 0.43700
C 	C 	0.16010 0.10390 0.71740 0.36800
C 	C 	0.90770 0.24700 0.58610 -0.08600
C 	C 	0.86140 0.29830 0.65340 0.03400
C 	C 	0.94680 0.37560 0.70650 -0.07400
C 	C 	0.08030 0.40170 0.69150 -0.02900
C 	C 	0.12660 0.35190 0.62330 -0.05100
C 	C 	0.04110 0.27400 0.57120 -0.02600
C 	C 	0.81390 0.15900 0.53290 0.35300
C 	C 	0.89980 0.42830 0.78370 0.33400
C 	C 	0.60310 0.77430 0.59330 -0.12700
C 	C 	0.66580 0.72970 0.65590 0.05500
C 	C 	0.59360 0.65400 0.71700 -0.11600
C 	C 	0.45790 0.62290 0.71490 0.03500
C 	C 	0.39570 0.66670 0.65200 -0.09900
C 	C 	0.46720 0.74220 0.59070 0.03400
C 	C 	0.68400 0.85640 0.52900 0.35700
C 	C 	0.66010 0.60390 0.78260 0.33900
C 	C 	0.59230 0.25300 0.08610 -0.13900
C 	C 	0.63860 0.20170 0.15340 0.07400
C 	C 	0.55320 0.12440 0.20650 -0.15000
C 	C 	0.41970 0.09830 0.19150 0.04700
C 	C 	0.37340 0.14810 0.12330 -0.12000
C 	C 	0.45890 0.22600 0.07120 0.03800
C 	C 	0.68610 0.34100 0.03290 0.30900
C 	C 	0.60020 0.07170 0.28370 0.35600
C 	C 	0.89690 0.72570 0.09330 -0.05500
C 	C 	0.83420 0.77030 0.15590 -0.00500
C 	C 	0.90640 0.84600 0.21700 -0.04100
C 	C 	0.04210 0.87710 0.21490 -0.05500
C 	C 	0.10430 0.83330 0.15200 -0.02600
C 	C 	0.03280 0.75780 0.09070 -0.05600
C 	C 	0.81600 0.64360 0.02900 0.28600
C 	C 	0.83990 0.89610 0.28260 0.31300
O 	O 	0.30550 0.86173 0.45715 -0.38400
O 	O 	0.13270 0.88900 0.52173 -0.47800
O 	O 	0.22230 0.59310 0.20585 -0.44300
O 	O 	0.01950 0.50900 0.16564 -0.45800
O 	O 	0.19660 0.11530 0.46750 -0.42100
O 	O 	0.37740 0.10448 0.52999 -0.55300
O 	O 	0.21840 0.37480 0.21915 -0.43500
O 	O 	0.41000 0.46350 0.16106 -0.45800
O 	O 	0.19450 0.63827 0.95715 -0.39600
O 	O 	0.36730 0.61100 0.02173 -0.53100
O 	O 	0.27770 0.90690 0.70585 -0.42300
O 	O 	0.48050 0.99100 0.66564 -0.40500
O 	O 	0.30340 0.38470 0.96750 -0.39600
O 	O 	0.12260 0.39552 0.02999 -0.59000
O 	O 	0.28160 0.12520 0.71915 -0.44500
O 	O 	0.09000 0.03650 0.66106 -0.49100
O 	O 	0.69450 0.13827 0.54285 -0.40100
O 	O 	0.86730 0.11100 0.47827 -0.48300
O 	O 	0.77770 0.40690 0.79415 -0.42700
O 	O 	0.98050 0.49100 0.83436 -0.40900
O 	O 	0.80340 0.88470 0.53250 -0.36800
O 	O 	0.62260 0.89552 0.47001 -0.50300
O 	O 	0.78160 0.62520 0.78085 -0.41300
O 	O 	0.59000 0.53650 0.83894 -0.44300
O 	O 	0.80550 0.36173 0.04285 -0.39200
O 	O 	0.63270 0.38900 0.97827 -0.42500
O 	O 	0.72230 0.09310 0.29415 -0.44900
O 	O 	0.51950 0.00900 0.33436 -0.46200
O 	O 	0.69660 0.61530 0.03250 -0.39700
O 	O 	0.87740 0.60448 0.97001 -0.46300
O 	O 	0.71840 0.87480 0.28085 -0.40100
O 	O 	0.91000 0.96350 0.33894 -0.40400
