data_crystal

_cell_length_a 12.02400
_cell_length_b 15.03200
_cell_length_c 12.94800
_cell_angle_alpha 90.00000
_cell_angle_beta  90.00000
_cell_angle_gamma 90.00000

_symmetry_space_group_name_	'P 1'
_symmetry_space_group_name_H-M	'P 1'

loop_
_symmetry_equiv_pos_as_xyz
  x,y,z

loop_
_atom_site_label
_atom_site_type_symbol
_atom_site_fract_x
_atom_site_fract_y
_atom_site_fract_z
_atom_site_charge
O 	O 	0.33770 0.42030 0.72071 -0.51900
O 	O 	0.43160 0.48210 0.84840 -0.56200
O 	O 	0.10310 0.15251 0.80760 -0.51400
O 	O 	0.13570 0.08251 0.95450 -0.74500
C 	C 	0.32250 0.35620 0.88760 -0.17900
C 	C 	0.25480 0.28720 0.85670 0.09500
H 	H 	0.23260 0.28270 0.78650 0.00700
C 	C 	0.21870 0.22420 0.92820 -0.19900
C 	C 	0.22690 0.24410 0.03500 -0.01600
H 	H 	0.18750 0.20970 0.08450 0.00000
C 	C 	0.29350 0.31490 0.06610 -0.13100
H 	H 	0.31100 0.32250 0.13710 0.05700
C 	C 	0.33420 0.37400 0.99390 -0.01300
H 	H 	0.37010 0.42690 0.01590 0.03300
C 	C 	0.27100 0.22260 0.02740 0.05600
H 	H 	0.25520 0.17540 0.07380 -0.01100
C 	C 	0.34280 0.28740 0.05610 0.01400
H 	H 	0.37210 0.28790 0.12420 0.01300
C 	C 	0.37390 0.35390 0.98570 0.04500
H 	H 	0.42870 0.39670 0.00370 -0.02800
C 	C 	0.36640 0.42360 0.81230 0.43100
C 	C 	0.14770 0.14760 0.89520 0.43100
Li	Li	0.40560 0.45960 0.58960 0.52400
Li	Li	0.30290 0.46380 0.58770 0.53200
O 	O 	0.14500 0.49490 0.56700 -0.08200
H 	H 	0.11150 0.49330 0.62460 0.35600
H 	H 	0.10670 0.51280 0.51610 0.03400
O 	O 	0.14000 0.45390 0.59300 -0.75300
H 	H 	0.10650 0.46490 0.64970 -0.00800
H 	H 	0.08970 0.42780 0.55850 0.29200
O 	O 	0.18600 0.08700 0.94500 0.08700
H 	H 	0.21270 0.11400 0.99710 0.01200
O 	O 	0.83770 0.92030 0.72071 -0.49400
O 	O 	0.93160 0.98210 0.84840 -0.50600
O 	O 	0.60310 0.65251 0.80760 -0.49400
O 	O 	0.63570 0.58251 0.95450 -0.55300
C 	C 	0.82250 0.85620 0.88760 -0.15700
C 	C 	0.75480 0.78720 0.85670 0.10100
H 	H 	0.73260 0.78270 0.78650 0.01600
C 	C 	0.71870 0.72420 0.92820 -0.18900
C 	C 	0.72690 0.74410 0.03500 -0.02800
H 	H 	0.68750 0.70970 0.08450 0.01400
C 	C 	0.79350 0.81490 0.06610 -0.14100
H 	H 	0.81100 0.82250 0.13710 0.06700
C 	C 	0.83420 0.87400 0.99390 -0.02000
H 	H 	0.87010 0.92690 0.01590 0.03800
C 	C 	0.77100 0.72260 0.02740 0.07200
H 	H 	0.75520 0.67540 0.07380 -0.01900
C 	C 	0.84280 0.78740 0.05610 0.04100
H 	H 	0.87210 0.78790 0.12420 0.02200
C 	C 	0.87390 0.85390 0.98570 0.05000
H 	H 	0.92870 0.89670 0.00370 0.00300
C 	C 	0.86640 0.92360 0.81230 0.42900
C 	C 	0.64770 0.64760 0.89520 0.45800
Li	Li	0.90560 0.95960 0.58960 0.52600
Li	Li	0.80290 0.96380 0.58770 0.53300
O 	O 	0.64500 0.99490 0.56700 -0.12900
H 	H 	0.61150 0.99330 0.62460 0.39600
H 	H 	0.60670 0.01280 0.51610 0.05600
O 	O 	0.64000 0.95390 0.59300 -0.71700
H 	H 	0.60650 0.96490 0.64970 -0.02600
H 	H 	0.58970 0.92780 0.55850 0.30000
O 	O 	0.68600 0.58700 0.94500 -0.13200
H 	H 	0.71270 0.61400 0.99710 0.07500
O 	O 	0.66230 0.57970 0.22071 -0.51100
O 	O 	0.56840 0.51790 0.34840 -0.56100
O 	O 	0.89690 0.84749 0.30760 -0.46400
O 	O 	0.86430 0.91749 0.45450 -0.29500
C 	C 	0.67750 0.64380 0.38760 -0.17000
C 	C 	0.74520 0.71280 0.35670 0.11000
H 	H 	0.76740 0.71730 0.28650 0.01600
C 	C 	0.78130 0.77580 0.42820 -0.19000
C 	C 	0.77310 0.75590 0.53500 0.08300
H 	H 	0.81250 0.79030 0.58450 -0.01400
C 	C 	0.70650 0.68510 0.56610 0.05200
H 	H 	0.68900 0.67750 0.63710 0.00400
C 	C 	0.66580 0.62600 0.49390 0.06100
H 	H 	0.62990 0.57310 0.51590 0.01300
C 	C 	0.72900 0.77740 0.52740 -0.03800
H 	H 	0.74480 0.82460 0.57380 0.00200
C 	C 	0.65720 0.71260 0.55610 -0.15400
H 	H 	0.62790 0.71210 0.62420 0.07200
C 	C 	0.62610 0.64610 0.48570 -0.02800
H 	H 	0.57130 0.60330 0.50370 -0.00500
C 	C 	0.63360 0.57640 0.31230 0.43500
C 	C 	0.85230 0.85240 0.39520 0.49000
Li	Li	0.59440 0.54040 0.08960 0.52400
Li	Li	0.69710 0.53620 0.08770 0.53300
O 	O 	0.85500 0.50510 0.06700 -0.15200
H 	H 	0.88850 0.50670 0.12460 0.41100
H 	H 	0.89330 0.48720 0.01610 0.06700
O 	O 	0.86000 0.54610 0.09300 -0.71600
H 	H 	0.89350 0.53510 0.14970 -0.01900
H 	H 	0.91030 0.57220 0.05850 0.31600
O 	O 	0.81400 0.91300 0.44500 -0.43800
H 	H 	0.78730 0.88600 0.49710 0.16100
O 	O 	0.16230 0.07970 0.22071 -0.53000
O 	O 	0.06840 0.01790 0.34840 -0.59900
O 	O 	0.39690 0.34749 0.30760 -0.50000
O 	O 	0.36430 0.41749 0.45450 -0.50900
C 	C 	0.17750 0.14380 0.38760 -0.19100
C 	C 	0.24520 0.21280 0.35670 0.10400
H 	H 	0.26740 0.21730 0.28650 0.00700
C 	C 	0.28130 0.27580 0.42820 -0.20200
C 	C 	0.27310 0.25590 0.53500 0.09600
H 	H 	0.31250 0.29030 0.58450 -0.02800
C 	C 	0.20650 0.18510 0.56610 0.06400
H 	H 	0.18900 0.17750 0.63710 -0.00500
C 	C 	0.16580 0.12600 0.49390 0.06700
H 	H 	0.12990 0.07310 0.51590 0.01000
C 	C 	0.22900 0.27740 0.52740 -0.05400
H 	H 	0.24480 0.32460 0.57380 0.01200
C 	C 	0.15720 0.21260 0.55610 -0.18100
H 	H 	0.12790 0.21210 0.62420 0.06500
C 	C 	0.12610 0.14610 0.48570 -0.03500
H 	H 	0.07130 0.10330 0.50370 -0.03400
C 	C 	0.13360 0.07640 0.31230 0.43300
C 	C 	0.35230 0.35240 0.39520 0.46500
Li	Li	0.09440 0.04040 0.08960 0.52200
Li	Li	0.19710 0.03620 0.08770 0.53200
O 	O 	0.35500 0.00510 0.06700 -0.10400
H 	H 	0.38850 0.00670 0.12460 0.37100
H 	H 	0.39330 0.98720 0.01610 0.04500
O 	O 	0.36000 0.04610 0.09300 -0.75300
H 	H 	0.39350 0.03510 0.14970 0.00100
H 	H 	0.41030 0.07220 0.05850 0.30800
O 	O 	0.31400 0.41300 0.44500 -0.19500
H 	H 	0.28730 0.38600 0.49710 0.09100
O 	O 	0.66230 0.42030 0.77929 -0.51100
O 	O 	0.56840 0.48210 0.65160 -0.56100
O 	O 	0.89690 0.15251 0.69240 -0.46400
O 	O 	0.86430 0.08251 0.54550 -0.29500
C 	C 	0.67750 0.35620 0.61240 -0.17000
C 	C 	0.74520 0.28720 0.64330 0.11000
H 	H 	0.76740 0.28270 0.71350 0.01600
C 	C 	0.78130 0.22420 0.57180 -0.19000
C 	C 	0.77310 0.24410 0.46500 0.08300
H 	H 	0.81250 0.20970 0.41550 -0.01400
C 	C 	0.70650 0.31490 0.43390 0.05200
H 	H 	0.68900 0.32250 0.36290 0.00400
C 	C 	0.66580 0.37400 0.50610 0.06100
H 	H 	0.62990 0.42690 0.48410 0.01300
C 	C 	0.72900 0.22260 0.47260 -0.03800
H 	H 	0.74480 0.17540 0.42620 0.00200
C 	C 	0.65720 0.28740 0.44390 -0.15400
H 	H 	0.62790 0.28790 0.37580 0.07200
C 	C 	0.62610 0.35390 0.51430 -0.02800
H 	H 	0.57130 0.39670 0.49630 -0.00500
C 	C 	0.63360 0.42360 0.68770 0.43500
C 	C 	0.85230 0.14760 0.60480 0.49000
Li	Li	0.59440 0.45960 0.91040 0.52400
Li	Li	0.69710 0.46380 0.91230 0.53300
O 	O 	0.85500 0.49490 0.93300 -0.15200
H 	H 	0.88850 0.49330 0.87540 0.41100
H 	H 	0.89330 0.51280 0.98390 0.06700
O 	O 	0.86000 0.45390 0.90700 -0.71600
H 	H 	0.89350 0.46490 0.85030 -0.01900
H 	H 	0.91030 0.42780 0.94150 0.31600
O 	O 	0.81400 0.08700 0.55500 -0.43800
H 	H 	0.78730 0.11400 0.50290 0.16100
O 	O 	0.16230 0.92030 0.77929 -0.53000
O 	O 	0.06840 0.98210 0.65160 -0.59900
O 	O 	0.39690 0.65251 0.69240 -0.50000
O 	O 	0.36430 0.58251 0.54550 -0.50900
C 	C 	0.17750 0.85620 0.61240 -0.19100
C 	C 	0.24520 0.78720 0.64330 0.10400
H 	H 	0.26740 0.78270 0.71350 0.00700
C 	C 	0.28130 0.72420 0.57180 -0.20200
C 	C 	0.27310 0.74410 0.46500 0.09600
H 	H 	0.31250 0.70970 0.41550 -0.02800
C 	C 	0.20650 0.81490 0.43390 0.06400
H 	H 	0.18900 0.82250 0.36290 -0.00500
C 	C 	0.16580 0.87400 0.50610 0.06700
H 	H 	0.12990 0.92690 0.48410 0.01000
C 	C 	0.22900 0.72260 0.47260 -0.05400
H 	H 	0.24480 0.67540 0.42620 0.01200
C 	C 	0.15720 0.78740 0.44390 -0.18100
H 	H 	0.12790 0.78790 0.37580 0.06500
C 	C 	0.12610 0.85390 0.51430 -0.03500
H 	H 	0.07130 0.89670 0.49630 -0.03400
C 	C 	0.13360 0.92360 0.68770 0.43300
C 	C 	0.35230 0.64760 0.60480 0.46500
Li	Li	0.09440 0.95960 0.91040 0.52200
Li	Li	0.19710 0.96380 0.91230 0.53200
O 	O 	0.35500 0.99490 0.93300 -0.10400
H 	H 	0.38850 0.99330 0.87540 0.37100
H 	H 	0.39330 0.01280 0.98390 0.04500
O 	O 	0.36000 0.95390 0.90700 -0.75300
H 	H 	0.39350 0.96490 0.85030 0.00100
H 	H 	0.41030 0.92780 0.94150 0.30800
O 	O 	0.31400 0.58700 0.55500 -0.19500
H 	H 	0.28730 0.61400 0.50290 0.09100
O 	O 	0.33770 0.57970 0.27929 -0.51800
O 	O 	0.43160 0.51790 0.15160 -0.56100
O 	O 	0.10310 0.84749 0.19240 -0.51300
O 	O 	0.13570 0.91749 0.04550 -0.74400
C 	C 	0.32250 0.64380 0.11240 -0.17800
C 	C 	0.25480 0.71280 0.14330 0.09600
H 	H 	0.23260 0.71730 0.21350 0.00700
C 	C 	0.21870 0.77580 0.07180 -0.19900
C 	C 	0.22690 0.75590 0.96500 -0.01600
H 	H 	0.18750 0.79030 0.91550 0.00000
C 	C 	0.29350 0.68510 0.93390 -0.13100
H 	H 	0.31100 0.67750 0.86290 0.05700
C 	C 	0.33420 0.62600 0.00610 -0.01300
H 	H 	0.37010 0.57310 0.98410 0.03300
C 	C 	0.27100 0.77740 0.97260 0.05600
H 	H 	0.25520 0.82460 0.92620 -0.01100
C 	C 	0.34280 0.71260 0.94390 0.01400
H 	H 	0.37210 0.71210 0.87580 0.01300
C 	C 	0.37390 0.64610 0.01430 0.04500
H 	H 	0.42870 0.60330 0.99630 -0.02800
C 	C 	0.36640 0.57640 0.18770 0.43100
C 	C 	0.14770 0.85240 0.10480 0.43100
Li	Li	0.40560 0.54040 0.41040 0.52400
Li	Li	0.30290 0.53620 0.41230 0.53200
O 	O 	0.14500 0.50510 0.43300 -0.08200
H 	H 	0.11150 0.50670 0.37540 0.35600
H 	H 	0.10670 0.48720 0.48390 0.03400
O 	O 	0.14000 0.54610 0.40700 -0.75300
H 	H 	0.10650 0.53510 0.35030 -0.00800
H 	H 	0.08970 0.57220 0.44150 0.29200
O 	O 	0.18600 0.91300 0.05500 0.08700
H 	H 	0.21270 0.88600 0.00290 0.01200
O 	O 	0.83770 0.07970 0.27929 -0.49400
O 	O 	0.93160 0.01790 0.15160 -0.50600
O 	O 	0.60310 0.34749 0.19240 -0.49400
O 	O 	0.63570 0.41749 0.04550 -0.55300
C 	C 	0.82250 0.14380 0.11240 -0.15700
C 	C 	0.75480 0.21280 0.14330 0.10100
H 	H 	0.73260 0.21730 0.21350 0.01600
C 	C 	0.71870 0.27580 0.07180 -0.18900
C 	C 	0.72690 0.25590 0.96500 -0.02800
H 	H 	0.68750 0.29030 0.91550 0.01400
C 	C 	0.79350 0.18510 0.93390 -0.14100
H 	H 	0.81100 0.17750 0.86290 0.06700
C 	C 	0.83420 0.12600 0.00610 -0.02000
H 	H 	0.87010 0.07310 0.98410 0.03800
C 	C 	0.77100 0.27740 0.97260 0.07200
H 	H 	0.75520 0.32460 0.92620 -0.01900
C 	C 	0.84280 0.21260 0.94390 0.04100
H 	H 	0.87210 0.21210 0.87580 0.02200
C 	C 	0.87390 0.14610 0.01430 0.05000
H 	H 	0.92870 0.10330 0.99630 0.00300
C 	C 	0.86640 0.07640 0.18770 0.42900
C 	C 	0.64770 0.35240 0.10480 0.45800
Li	Li	0.90560 0.04040 0.41040 0.52600
Li	Li	0.80290 0.03620 0.41230 0.53300
O 	O 	0.64500 0.00510 0.43300 -0.12900
H 	H 	0.61150 0.00670 0.37540 0.39600
H 	H 	0.60670 0.98720 0.48390 0.05600
O 	O 	0.64000 0.04610 0.40700 -0.71700
H 	H 	0.60650 0.03510 0.35030 -0.02600
H 	H 	0.58970 0.07220 0.44150 0.30000
O 	O 	0.68600 0.41300 0.05500 -0.13200
H 	H 	0.71270 0.38600 0.00290 0.07500
Co	Co	0.50000 0.56435 0.75000 1.16100
Co	Co	0.00000 0.06435 0.75000 1.11700
Co	Co	0.50000 0.43565 0.25000 1.16100
Co	Co	0.00000 0.93565 0.25000 1.11700
