data_crystal

_cell_length_a 10.02920
_cell_length_b 10.02920
_cell_length_c 20.80800
_cell_angle_alpha 90.00000
_cell_angle_beta  90.00000
_cell_angle_gamma 90.00000

_symmetry_space_group_name_	'P 1'
_symmetry_space_group_name_H-M	'P 1'

loop_
_symmetry_equiv_pos_as_xyz
  x,y,z

loop_
_atom_site_label
_atom_site_type_symbol
_atom_site_fract_x
_atom_site_fract_y
_atom_site_fract_z
_atom_site_charge
Na	Na	0.95710 0.84560 0.02198 0.58200
Na	Na	0.28900 0.82910 0.02500 0.57300
Na	Na	0.04290 0.15440 0.52198 0.58400
Na	Na	0.71100 0.17090 0.52500 0.57500
Na	Na	0.15440 0.95710 0.77198 0.58400
Na	Na	0.17090 0.28900 0.77500 0.57500
Na	Na	0.84560 0.04290 0.27198 0.58400
Na	Na	0.82910 0.71100 0.27500 0.57500
Co	Co	0.11843 0.79001 0.89440 1.16200
Co	Co	0.88157 0.20999 0.39440 1.16200
Co	Co	0.20999 0.11843 0.64440 1.16200
Co	Co	0.79001 0.88157 0.14440 1.16100
H 	H 	0.62730 0.79220 0.90580 0.02900
H 	H 	0.41830 0.80290 0.73910 0.02900
H 	H 	0.61940 0.81790 0.68090 0.06500
H 	H 	0.82150 0.82080 0.73600 0.02100
H 	H 	0.14120 0.32910 0.90460 -0.00800
H 	H 	0.13230 0.47780 0.08460 0.02700
H 	H 	0.13560 0.25990 0.12600 0.06100
H 	H 	0.13410 0.07790 0.05660 0.00400
H 	H 	0.37270 0.20780 0.40580 0.02700
H 	H 	0.58170 0.19710 0.23910 0.02800
H 	H 	0.38060 0.18210 0.18090 0.06500
H 	H 	0.17850 0.17920 0.23600 0.02100
H 	H 	0.85880 0.67090 0.40460 -0.01400
H 	H 	0.86770 0.52220 0.58460 0.01900
H 	H 	0.86440 0.74010 0.62600 0.07000
H 	H 	0.86590 0.92210 0.55660 -0.00400
H 	H 	0.20780 0.62730 0.65580 0.02700
H 	H 	0.19710 0.41830 0.48910 0.02900
H 	H 	0.18210 0.61940 0.43090 0.06500
H 	H 	0.17920 0.82150 0.48600 0.02000
H 	H 	0.67090 0.14120 0.65460 -0.01400
H 	H 	0.52220 0.13230 0.83460 0.01900
H 	H 	0.74010 0.13560 0.87600 0.07000
H 	H 	0.92210 0.13410 0.80660 -0.00400
H 	H 	0.79220 0.37270 0.15580 0.04100
H 	H 	0.80290 0.58170 0.98910 0.07100
H 	H 	0.81790 0.38060 0.93090 0.03000
H 	H 	0.82080 0.17850 0.98600 0.06200
H 	H 	0.32910 0.85880 0.15460 -0.01500
H 	H 	0.47780 0.86770 0.33460 0.01800
H 	H 	0.25990 0.86440 0.37600 0.07000
H 	H 	0.07790 0.86590 0.30660 -0.00400
C 	C 	0.74420 0.80870 0.82590 -0.12600
C 	C 	0.62520 0.79900 0.86030 0.06100
C 	C 	0.50410 0.79930 0.82840 -0.13100
C 	C 	0.50120 0.80490 0.76120 0.04300
C 	C 	0.62070 0.81340 0.72650 -0.10500
C 	C 	0.74040 0.81510 0.75940 0.04700
C 	C 	0.87600 0.80820 0.85960 0.35000
C 	C 	0.37710 0.79260 0.86550 0.36500
C 	C 	0.13810 0.18490 0.97320 -0.13900
C 	C 	0.13830 0.31470 0.94970 0.07300
C 	C 	0.13420 0.42390 0.99090 -0.11800
C 	C 	0.13360 0.40370 0.05620 0.02800
C 	C 	0.13500 0.27380 0.08080 -0.10000
C 	C 	0.13550 0.16580 0.03960 0.03300
C 	C 	0.13440 0.06720 0.92770 0.36500
C 	C 	0.12590 0.56640 0.96670 0.36000
C 	C 	0.25580 0.19130 0.32590 -0.12700
C 	C 	0.37480 0.20100 0.36030 0.06200
C 	C 	0.49590 0.20070 0.32840 -0.13300
C 	C 	0.49880 0.19510 0.26120 0.04400
C 	C 	0.37930 0.18660 0.22650 -0.10600
C 	C 	0.25960 0.18490 0.25940 0.04800
C 	C 	0.12400 0.19180 0.35960 0.35100
C 	C 	0.62290 0.20740 0.36550 0.36600
C 	C 	0.86190 0.81510 0.47320 -0.16400
C 	C 	0.86170 0.68530 0.44970 0.09100
C 	C 	0.86580 0.57610 0.49090 -0.14200
C 	C 	0.86640 0.59630 0.55620 0.05800
C 	C 	0.86500 0.72620 0.58080 -0.12500
C 	C 	0.86450 0.83420 0.53960 0.06400
C 	C 	0.86560 0.93280 0.42770 0.37500
C 	C 	0.87410 0.43360 0.46670 0.35300
C 	C 	0.19130 0.74420 0.57590 -0.12700
C 	C 	0.20100 0.62520 0.61030 0.06200
C 	C 	0.20070 0.50410 0.57840 -0.13300
C 	C 	0.19510 0.50120 0.51120 0.04400
C 	C 	0.18660 0.62070 0.47650 -0.10600
C 	C 	0.18490 0.74040 0.50940 0.04800
C 	C 	0.19180 0.87600 0.60960 0.35100
C 	C 	0.20740 0.37710 0.61550 0.36600
C 	C 	0.81510 0.13810 0.72320 -0.16400
C 	C 	0.68530 0.13830 0.69970 0.09100
C 	C 	0.57610 0.13420 0.74090 -0.14100
C 	C 	0.59630 0.13360 0.80620 0.05800
C 	C 	0.72620 0.13500 0.83080 -0.12400
C 	C 	0.83420 0.13550 0.78960 0.06400
C 	C 	0.93280 0.13440 0.67770 0.37600
C 	C 	0.43360 0.12590 0.71670 0.35200
C 	C 	0.80870 0.25580 0.07590 -0.07700
C 	C 	0.79900 0.37480 0.11030 0.01600
C 	C 	0.79930 0.49590 0.07840 -0.08400
C 	C 	0.80490 0.49880 0.01120 -0.05500
C 	C 	0.81340 0.37930 0.97650 0.00400
C 	C 	0.81510 0.25960 0.00940 -0.05300
C 	C 	0.80820 0.12400 0.10960 0.33200
C 	C 	0.79260 0.62290 0.11550 0.34700
C 	C 	0.18490 0.86190 0.22320 -0.16600
C 	C 	0.31470 0.86170 0.19970 0.09200
C 	C 	0.42390 0.86580 0.24090 -0.14300
C 	C 	0.40370 0.86640 0.30620 0.05900
C 	C 	0.27380 0.86500 0.33080 -0.12600
C 	C 	0.16580 0.86450 0.28960 0.06500
C 	C 	0.06720 0.86560 0.17770 0.37700
C 	C 	0.56640 0.87410 0.21670 0.35300
O 	O 	0.88250 0.79510 0.91900 -0.41100
O 	O 	0.98110 0.81960 0.82532 -0.46100
O 	O 	0.37630 0.78310 0.92390 -0.40800
O 	O 	0.26760 0.80150 0.83190 -0.47800
O 	O 	0.13620 0.08780 0.86870 -0.39800
O 	O 	0.12780 0.95120 0.95405 -0.51800
O 	O 	0.11650 0.58300 0.90610 -0.42000
O 	O 	0.12640 0.66090 0.00490 -0.44700
O 	O 	0.11750 0.20490 0.41900 -0.41400
O 	O 	0.01890 0.18040 0.32532 -0.46300
O 	O 	0.62370 0.21690 0.42390 -0.41200
O 	O 	0.73240 0.19850 0.33190 -0.47900
O 	O 	0.86380 0.91220 0.36870 -0.40100
O 	O 	0.87220 0.04880 0.45405 -0.52500
O 	O 	0.88350 0.41700 0.40610 -0.41900
O 	O 	0.87360 0.33910 0.50490 -0.43500
O 	O 	0.20490 0.88250 0.66900 -0.41400
O 	O 	0.18040 0.98110 0.57532 -0.46300
O 	O 	0.21690 0.37630 0.67390 -0.41200
O 	O 	0.19850 0.26760 0.58190 -0.47900
O 	O 	0.91220 0.13620 0.61870 -0.40100
O 	O 	0.04880 0.12780 0.70405 -0.52600
O 	O 	0.41700 0.11650 0.65610 -0.41900
O 	O 	0.33910 0.12640 0.75490 -0.43600
O 	O 	0.79510 0.11750 0.16900 -0.40900
O 	O 	0.81960 0.01890 0.07532 -0.46200
O 	O 	0.78310 0.62370 0.17390 -0.40800
O 	O 	0.80150 0.73240 0.08190 -0.47900
O 	O 	0.08780 0.86380 0.11870 -0.40300
O 	O 	0.95120 0.87220 0.20405 -0.52700
O 	O 	0.58300 0.88350 0.15610 -0.42000
O 	O 	0.66090 0.87360 0.25490 -0.43600
