data_crystal

_cell_length_a 10.61860
_cell_length_b 15.77950
_cell_length_c 14.16200
_cell_angle_alpha 90.00000
_cell_angle_beta  130.43000
_cell_angle_gamma 90.00000

_symmetry_space_group_name_	'P 1'
_symmetry_space_group_name_H-M	'P 1'

loop_
_symmetry_equiv_pos_as_xyz
  x,y,z

loop_
_atom_site_label
_atom_site_type_symbol
_atom_site_fract_x
_atom_site_fract_y
_atom_site_fract_z
_atom_site_charge
C 	C 	0.99410 0.44450 0.38410 0.20500
H 	H 	0.99140 0.42190 0.44340 -0.03800
C 	C 	0.08590 0.48970 0.29620 -0.17300
C 	C 	0.91380 0.49430 0.21200 0.03300
C 	C 	0.21570 0.51150 0.29030 0.37600
C 	C 	0.78420 0.52410 0.08160 0.34800
C 	C 	0.48060 0.24630 0.58350 0.10600
H 	H 	0.45200 0.24170 0.50620 -0.02100
C 	C 	0.52400 0.29880 0.74180 -0.03400
C 	C 	0.55930 0.21260 0.76150 -0.08900
C 	C 	0.52590 0.36320 0.81780 0.31300
C 	C 	0.61320 0.15780 0.86370 0.39900
N 	N 	0.13410 0.45830 0.40560 -0.26100
N 	N 	0.85860 0.46560 0.27100 -0.24200
N 	N 	0.47270 0.31910 0.62780 -0.22800
N 	N 	0.53350 0.18080 0.66120 -0.21900
O 	O 	0.18490 0.54180 0.19590 -0.49400
O 	O 	0.36270 0.49720 0.38850 -0.52300
O 	O 	0.81400 0.53960 0.01200 -0.46500
O 	O 	0.64360 0.53310 0.04830 -0.52800
O 	O 	0.46450 0.43440 0.76660 -0.50500
O 	O 	0.58190 0.34460 0.92490 -0.32000
O 	O 	0.64100 0.18960 0.96010 -0.51600
H 	H 	0.62340 0.24070 0.95050 0.32300
O 	O 	0.62860 0.08100 0.85590 -0.49400
Cd	Cd	0.40641 0.45657 0.57049 1.22600
Cd	Cd	0.42036 0.54315 0.84355 1.23500
C 	C 	0.00590 0.94450 0.11590 0.00900
H 	H 	0.00860 0.92190 0.05660 -0.03100
C 	C 	0.91410 0.98970 0.20380 0.10700
C 	C 	0.08620 0.99430 0.28800 -0.14900
C 	C 	0.78430 0.01150 0.20970 0.20200
C 	C 	0.21580 0.02410 0.41840 0.36100
C 	C 	0.51940 0.74630 0.91650 0.11500
H 	H 	0.54800 0.74170 0.99380 0.00900
C 	C 	0.47600 0.79880 0.75820 -0.02900
C 	C 	0.44070 0.71260 0.73850 -0.08900
C 	C 	0.47410 0.86320 0.68220 0.31600
C 	C 	0.38680 0.65780 0.63630 0.40000
N 	N 	0.86590 0.95830 0.09440 -0.20100
N 	N 	0.14140 0.96560 0.22900 -0.19400
N 	N 	0.52730 0.81910 0.87220 -0.21400
N 	N 	0.46650 0.68080 0.83880 -0.21100
O 	O 	0.81510 0.04180 0.30410 -0.40700
O 	O 	0.63730 0.99720 0.11150 -0.44200
O 	O 	0.18600 0.03960 0.48800 -0.51800
O 	O 	0.35640 0.03310 0.45170 -0.54100
O 	O 	0.53550 0.93440 0.73340 -0.47900
O 	O 	0.41810 0.84460 0.57510 -0.33600
O 	O 	0.35900 0.68960 0.53990 -0.54200
H 	H 	0.37660 0.74070 0.54950 0.31900
O 	O 	0.37140 0.58100 0.64410 -0.49500
Cd	Cd	0.59359 0.95657 0.92951 1.24700
Cd	Cd	0.57964 0.04315 0.65645 1.22100
C 	C 	0.00590 0.55550 0.61590 0.01500
H 	H 	0.00860 0.57810 0.55660 -0.02800
C 	C 	0.91410 0.51030 0.70380 0.04500
C 	C 	0.08620 0.50570 0.78800 -0.16200
C 	C 	0.78430 0.48850 0.70970 0.32100
C 	C 	0.21580 0.47590 0.91840 0.39600
C 	C 	0.51940 0.75370 0.41650 0.10900
H 	H 	0.54800 0.75830 0.49380 -0.00700
C 	C 	0.47600 0.70120 0.25820 -0.03800
C 	C 	0.44070 0.78740 0.23850 -0.09000
C 	C 	0.47410 0.63680 0.18220 0.31900
C 	C 	0.38680 0.84220 0.13630 0.39500
N 	N 	0.86590 0.54170 0.59440 -0.18900
N 	N 	0.14140 0.53440 0.72900 -0.19800
N 	N 	0.52730 0.68090 0.37220 -0.22000
N 	N 	0.46650 0.81920 0.33880 -0.21600
O 	O 	0.81510 0.45820 0.80410 -0.40700
O 	O 	0.63730 0.50280 0.61150 -0.49900
O 	O 	0.18600 0.46040 0.98800 -0.48000
O 	O 	0.35640 0.46690 0.95170 -0.50300
O 	O 	0.53550 0.56560 0.23340 -0.51000
O 	O 	0.41810 0.65540 0.07510 -0.36400
O 	O 	0.35900 0.81040 0.03990 -0.55200
H 	H 	0.37660 0.75930 0.04950 0.31400
O 	O 	0.37140 0.91900 0.14410 -0.48500
Cd	Cd	0.59359 0.54343 0.42951 1.23000
Cd	Cd	0.57964 0.45685 0.15645 1.22200
C 	C 	0.99410 0.05550 0.88410 0.19700
H 	H 	0.99140 0.07810 0.94340 -0.03000
C 	C 	0.08590 0.01030 0.79620 -0.19900
C 	C 	0.91380 0.00570 0.71200 -0.00100
C 	C 	0.21570 0.98850 0.79030 0.45900
C 	C 	0.78420 0.97590 0.58160 0.38700
C 	C 	0.48060 0.25370 0.08350 0.09800
H 	H 	0.45200 0.25830 0.00620 -0.04100
C 	C 	0.52400 0.20120 0.24180 -0.04500
C 	C 	0.55930 0.28740 0.26150 -0.09100
C 	C 	0.52590 0.13680 0.31780 0.31600
C 	C 	0.61320 0.34220 0.36370 0.39500
N 	N 	0.13410 0.04170 0.90560 -0.24100
N 	N 	0.85860 0.03440 0.77100 -0.24000
N 	N 	0.47270 0.18090 0.12780 -0.23800
N 	N 	0.53350 0.31920 0.16120 -0.22600
O 	O 	0.18490 0.95820 0.69590 -0.48400
O 	O 	0.36270 0.00280 0.88850 -0.56100
O 	O 	0.81400 0.96040 0.51200 -0.43300
O 	O 	0.64360 0.96690 0.54830 -0.49200
O 	O 	0.46450 0.06560 0.26660 -0.54000
O 	O 	0.58190 0.15540 0.42490 -0.34800
O 	O 	0.64100 0.31040 0.46010 -0.52700
H 	H 	0.62340 0.25930 0.45050 0.31800
O 	O 	0.62860 0.41900 0.35590 -0.48800
Cd	Cd	0.40641 0.04343 0.07049 1.20100
Cd	Cd	0.42036 0.95685 0.34355 1.23800
Cd	Cd	-0.00000 0.50000 -0.00000 1.17600
Cd	Cd	0.00000 -0.00000 0.50000 1.18000
