data_crystal

_cell_length_a 10.30080
_cell_length_b 13.32460
_cell_length_c 20.46200
_cell_angle_alpha 90.00000
_cell_angle_beta  90.00000
_cell_angle_gamma 90.00000

_symmetry_space_group_name_	'P 1'
_symmetry_space_group_name_H-M	'P 1'

loop_
_symmetry_equiv_pos_as_xyz
  x,y,z

loop_
_atom_site_label
_atom_site_type_symbol
_atom_site_fract_x
_atom_site_fract_y
_atom_site_fract_z
_atom_site_charge
Zn	Zn	0.43529 0.88973 0.29383 1.19400
O 	O 	0.45010 0.80960 0.20260 -0.41900
O 	O 	0.80410 0.89700 0.07260 -0.43600
N 	N 	0.60350 0.94540 0.25630 -0.25200
O 	O 	0.92390 0.01810 0.12130 -0.39900
O 	O 	0.58410 0.77860 0.12180 -0.43400
N 	N 	0.77980 0.02780 0.22280 -0.26400
C 	C 	0.64010 0.90510 0.20040 -0.07100
N 	N 	0.45020 0.76320 0.34930 -0.27700
C 	C 	0.49350 0.59650 0.42760 0.11800
C 	C 	0.53270 0.59600 0.36410 -0.17000
H 	H 	0.57300 0.53940 0.34700 0.07800
C 	C 	0.51600 0.50810 0.47090 -0.08900
H 	H 	0.56290 0.45620 0.45150 0.06500
C 	C 	0.82670 0.95380 0.11830 0.32800
C 	C 	0.68700 0.01870 0.26850 0.11400
H 	H 	0.68230 0.05990 0.30510 -0.01900
C 	C 	0.55470 0.82470 0.17480 0.32500
C 	C 	0.43050 0.68170 0.45040 -0.19700
H 	H 	0.40490 0.68470 0.49390 0.10300
C 	C 	0.51280 0.67950 0.32450 0.06300
H 	H 	0.54160 0.67900 0.28150 -0.01300
C 	C 	0.40570 0.75970 0.41080 0.09900
H 	H 	0.35620 0.81290 0.42650 -0.01200
C 	C 	0.74900 0.95790 0.17920 -0.05000
Zn	Zn	0.06471 0.61027 0.29383 1.19500
O 	O 	0.04990 0.69040 0.20260 -0.41800
O 	O 	0.69590 0.60300 0.07260 -0.43400
N 	N 	0.89650 0.55460 0.25630 -0.25100
O 	O 	0.57610 0.48190 0.12130 -0.39700
O 	O 	0.91590 0.72140 0.12180 -0.43300
N 	N 	0.72020 0.47220 0.22280 -0.26400
C 	C 	0.85990 0.59490 0.20040 -0.07000
N 	N 	0.04980 0.73680 0.34930 -0.27700
C 	C 	0.00650 0.90350 0.42760 0.11600
C 	C 	0.96730 0.90400 0.36410 -0.16700
H 	H 	0.92700 0.96060 0.34700 0.07700
C 	C 	0.98400 0.99190 0.47090 -0.08700
H 	H 	0.93710 0.04380 0.45150 0.06400
C 	C 	0.67330 0.54620 0.11830 0.32800
C 	C 	0.81300 0.48130 0.26850 0.11400
H 	H 	0.81770 0.44010 0.30510 -0.01900
C 	C 	0.94530 0.67530 0.17480 0.32500
C 	C 	0.06950 0.81830 0.45040 -0.19500
H 	H 	0.09510 0.81530 0.49390 0.10200
C 	C 	0.98720 0.82050 0.32450 0.06200
H 	H 	0.95840 0.82100 0.28150 -0.01300
C 	C 	0.09430 0.74030 0.41080 0.09800
H 	H 	0.14380 0.68710 0.42650 -0.01100
C 	C 	0.75100 0.54210 0.17920 -0.05000
Zn	Zn	0.56471 0.38973 0.20617 1.19500
O 	O 	0.54990 0.30960 0.29740 -0.41800
O 	O 	0.19590 0.39700 0.42740 -0.43400
N 	N 	0.39650 0.44540 0.24370 -0.25100
O 	O 	0.07610 0.51810 0.37870 -0.39700
O 	O 	0.41590 0.27860 0.37820 -0.43300
N 	N 	0.22020 0.52780 0.27720 -0.26400
C 	C 	0.35990 0.40510 0.29960 -0.07000
N 	N 	0.54980 0.26320 0.15070 -0.27700
C 	C 	0.50650 0.09650 0.07240 0.11800
C 	C 	0.46730 0.09600 0.13590 -0.16900
H 	H 	0.42700 0.03940 0.15300 0.07800
C 	C 	0.48400 0.00810 0.02910 -0.08800
H 	H 	0.43710 0.95620 0.04850 0.06400
C 	C 	0.17330 0.45380 0.38170 0.32800
C 	C 	0.31300 0.51870 0.23150 0.11400
H 	H 	0.31770 0.55990 0.19490 -0.01900
C 	C 	0.44530 0.32470 0.32520 0.32500
C 	C 	0.56950 0.18170 0.04960 -0.19600
H 	H 	0.59510 0.18470 0.00610 0.10300
C 	C 	0.48720 0.17950 0.17550 0.06300
H 	H 	0.45840 0.17900 0.21850 -0.01300
C 	C 	0.59430 0.25970 0.08920 0.09900
H 	H 	0.64380 0.31290 0.07350 -0.01200
C 	C 	0.25100 0.45790 0.32080 -0.05000
Zn	Zn	0.93529 0.11027 0.20617 1.19500
O 	O 	0.95010 0.19040 0.29740 -0.41900
O 	O 	0.30410 0.10300 0.42740 -0.43400
N 	N 	0.10350 0.05460 0.24370 -0.25000
O 	O 	0.42390 0.98190 0.37870 -0.39800
O 	O 	0.08410 0.22140 0.37820 -0.43300
N 	N 	0.27980 0.97220 0.27720 -0.26400
C 	C 	0.14010 0.09490 0.29960 -0.07100
N 	N 	0.95020 0.23680 0.15070 -0.27700
C 	C 	0.99350 0.40350 0.07240 0.11600
C 	C 	0.03270 0.40400 0.13590 -0.16800
H 	H 	0.07300 0.46060 0.15300 0.07700
C 	C 	0.01600 0.49190 0.02910 -0.08800
H 	H 	0.06290 0.54380 0.04850 0.06500
C 	C 	0.32670 0.04620 0.38170 0.32800
C 	C 	0.18700 0.98130 0.23150 0.11300
H 	H 	0.18230 0.94010 0.19490 -0.01900
C 	C 	0.05470 0.17530 0.32520 0.32600
C 	C 	0.93050 0.31830 0.04960 -0.19600
H 	H 	0.90490 0.31530 0.00610 0.10200
C 	C 	0.01280 0.32050 0.17550 0.06300
H 	H 	0.04160 0.32100 0.21850 -0.01300
C 	C 	0.90570 0.24030 0.08920 0.09800
H 	H 	0.85620 0.18710 0.07350 -0.01100
C 	C 	0.24900 0.04210 0.32080 -0.04900
Zn	Zn	0.56471 0.11027 0.70617 1.19500
O 	O 	0.54990 0.19040 0.79740 -0.41800
O 	O 	0.19590 0.10300 0.92740 -0.43500
N 	N 	0.39650 0.05460 0.74370 -0.25100
O 	O 	0.07610 0.98190 0.87870 -0.39800
O 	O 	0.41590 0.22140 0.87820 -0.43300
N 	N 	0.22020 0.97220 0.77720 -0.26400
C 	C 	0.35990 0.09490 0.79960 -0.07100
N 	N 	0.54980 0.23680 0.65070 -0.27700
C 	C 	0.50650 0.40350 0.57240 0.11800
C 	C 	0.46730 0.40400 0.63590 -0.17000
H 	H 	0.42700 0.46060 0.65300 0.07800
C 	C 	0.48400 0.49190 0.52910 -0.08900
H 	H 	0.43710 0.54380 0.54850 0.06500
C 	C 	0.17330 0.04620 0.88170 0.32800
C 	C 	0.31300 0.98130 0.73150 0.11400
H 	H 	0.31770 0.94010 0.69490 -0.01900
C 	C 	0.44530 0.17530 0.82520 0.32500
C 	C 	0.56950 0.31830 0.54960 -0.19700
H 	H 	0.59510 0.31530 0.50610 0.10300
C 	C 	0.48720 0.32050 0.67550 0.06300
H 	H 	0.45840 0.32100 0.71850 -0.01300
C 	C 	0.59430 0.24030 0.58920 0.09900
H 	H 	0.64380 0.18710 0.57350 -0.01200
C 	C 	0.25100 0.04210 0.82080 -0.05000
Zn	Zn	0.93529 0.38973 0.70617 1.19500
O 	O 	0.95010 0.30960 0.79740 -0.41800
O 	O 	0.30410 0.39700 0.92740 -0.43400
N 	N 	0.10350 0.44540 0.74370 -0.25100
O 	O 	0.42390 0.51810 0.87870 -0.39700
O 	O 	0.08410 0.27860 0.87820 -0.43300
N 	N 	0.27980 0.52780 0.77720 -0.26400
C 	C 	0.14010 0.40510 0.79960 -0.07000
N 	N 	0.95020 0.26320 0.65070 -0.27700
C 	C 	0.99350 0.09650 0.57240 0.11600
C 	C 	0.03270 0.09600 0.63590 -0.16700
H 	H 	0.07300 0.03940 0.65300 0.07700
C 	C 	0.01600 0.00810 0.52910 -0.08700
H 	H 	0.06290 0.95620 0.54850 0.06400
C 	C 	0.32670 0.45380 0.88170 0.32800
C 	C 	0.18700 0.51870 0.73150 0.11400
H 	H 	0.18230 0.55990 0.69490 -0.01900
C 	C 	0.05470 0.32470 0.82520 0.32500
C 	C 	0.93050 0.18170 0.54960 -0.19500
H 	H 	0.90490 0.18470 0.50610 0.10200
C 	C 	0.01280 0.17950 0.67550 0.06200
H 	H 	0.04160 0.17900 0.71850 -0.01300
C 	C 	0.90570 0.25970 0.58920 0.09800
H 	H 	0.85620 0.31290 0.57350 -0.01100
C 	C 	0.24900 0.45790 0.82080 -0.05000
Zn	Zn	0.43529 0.61027 0.79383 1.19500
O 	O 	0.45010 0.69040 0.70260 -0.41800
O 	O 	0.80410 0.60300 0.57260 -0.43400
N 	N 	0.60350 0.55460 0.75630 -0.25100
O 	O 	0.92390 0.48190 0.62130 -0.39700
O 	O 	0.58410 0.72140 0.62180 -0.43300
N 	N 	0.77980 0.47220 0.72280 -0.26400
C 	C 	0.64010 0.59490 0.70040 -0.07000
N 	N 	0.45020 0.73680 0.84930 -0.27700
C 	C 	0.49350 0.90350 0.92760 0.11800
C 	C 	0.53270 0.90400 0.86410 -0.16900
H 	H 	0.57300 0.96060 0.84700 0.07800
C 	C 	0.51600 0.99190 0.97090 -0.08800
H 	H 	0.56290 0.04380 0.95150 0.06400
C 	C 	0.82670 0.54620 0.61830 0.32800
C 	C 	0.68700 0.48130 0.76850 0.11400
H 	H 	0.68230 0.44010 0.80510 -0.01900
C 	C 	0.55470 0.67530 0.67480 0.32500
C 	C 	0.43050 0.81830 0.95040 -0.19600
H 	H 	0.40490 0.81530 0.99390 0.10300
C 	C 	0.51280 0.82050 0.82450 0.06300
H 	H 	0.54160 0.82100 0.78150 -0.01300
C 	C 	0.40570 0.74030 0.91080 0.09900
H 	H 	0.35620 0.68710 0.92650 -0.01200
C 	C 	0.74900 0.54210 0.67920 -0.05000
Zn	Zn	0.06471 0.88973 0.79383 1.19500
O 	O 	0.04990 0.80960 0.70260 -0.41900
O 	O 	0.69590 0.89700 0.57260 -0.43400
N 	N 	0.89650 0.94540 0.75630 -0.25000
O 	O 	0.57610 0.01810 0.62130 -0.39800
O 	O 	0.91590 0.77860 0.62180 -0.43300
N 	N 	0.72020 0.02780 0.72280 -0.26400
C 	C 	0.85990 0.90510 0.70040 -0.07100
N 	N 	0.04980 0.76320 0.84930 -0.27700
C 	C 	0.00650 0.59650 0.92760 0.11600
C 	C 	0.96730 0.59600 0.86410 -0.16800
H 	H 	0.92700 0.53940 0.84700 0.07700
C 	C 	0.98400 0.50810 0.97090 -0.08800
H 	H 	0.93710 0.45620 0.95150 0.06500
C 	C 	0.67330 0.95380 0.61830 0.32800
C 	C 	0.81300 0.01870 0.76850 0.11300
H 	H 	0.81770 0.05990 0.80510 -0.01900
C 	C 	0.94530 0.82470 0.67480 0.32600
C 	C 	0.06950 0.68170 0.95040 -0.19600
H 	H 	0.09510 0.68470 0.99390 0.10200
C 	C 	0.98720 0.67950 0.82450 0.06300
H 	H 	0.95840 0.67900 0.78150 -0.01300
C 	C 	0.09430 0.75970 0.91080 0.09800
H 	H 	0.14380 0.81290 0.92650 -0.01100
C 	C 	0.75100 0.95790 0.67920 -0.04900
Zn	Zn	0.75000 0.75000 0.07500 1.21400
Zn	Zn	0.25000 0.25000 0.42500 1.21400
Zn	Zn	0.25000 0.25000 0.92500 1.21400
Zn	Zn	0.75000 0.75000 0.57500 1.21400
