data_crystal

_cell_length_a 24.33800
_cell_length_b 9.48770
_cell_length_c 16.50200
_cell_angle_alpha 90.00000
_cell_angle_beta  119.89000
_cell_angle_gamma 90.00000

_symmetry_space_group_name_	'P 1'
_symmetry_space_group_name_H-M	'P 1'

loop_
_symmetry_equiv_pos_as_xyz
  x,y,z

loop_
_atom_site_label
_atom_site_type_symbol
_atom_site_fract_x
_atom_site_fract_y
_atom_site_fract_z
_atom_site_charge
Cu	Cu	0.04272 0.82361 0.03963 0.82700
Cu	Cu	0.95720 0.61493 0.12225 0.82100
N 	N 	0.86306 0.98230 0.97063 -0.11500
N 	N 	0.92087 0.99350 0.97845 -0.17300
N 	N 	0.95359 0.87890 0.01690 -0.17900
N 	N 	0.91801 0.78970 0.03613 -0.21300
N 	N 	0.91764 0.68220 0.20098 -0.21300
N 	N 	0.95187 0.69890 0.29279 -0.17900
N 	N 	0.91779 0.76450 0.32342 -0.17200
N 	N 	0.86000 0.79130 0.25217 -0.11200
C 	C 	0.04375 0.66860 0.96414 -0.20200
C 	C 	0.74918 0.69790 0.07708 -0.04200
H 	H 	0.74920 0.66250 0.12960 0.04400
C 	C 	0.80603 0.74380 0.08491 -0.04200
C 	C 	0.80715 0.79630 0.00681 -0.03700
C 	C 	0.86330 0.85550 0.00706 0.10800
C 	C 	0.86185 0.74010 0.17876 0.10900
N 	N 	0.04457 0.56660 0.92933 -0.22700
Cu	Cu	0.54272 0.32361 0.03963 0.82800
Cu	Cu	0.45720 0.11493 0.12225 0.82200
N 	N 	0.36306 0.48230 0.97063 -0.11400
N 	N 	0.42087 0.49350 0.97845 -0.17100
N 	N 	0.45359 0.37890 0.01690 -0.18100
N 	N 	0.41801 0.28970 0.03613 -0.21300
N 	N 	0.41764 0.18220 0.20098 -0.21300
N 	N 	0.45187 0.19890 0.29279 -0.17900
N 	N 	0.41779 0.26450 0.32342 -0.17200
N 	N 	0.36000 0.29130 0.25217 -0.11200
C 	C 	0.54375 0.16860 0.96414 -0.20400
C 	C 	0.24918 0.19790 0.07708 -0.04800
H 	H 	0.24920 0.16250 0.12960 0.04600
C 	C 	0.30603 0.24380 0.08491 -0.03800
C 	C 	0.30715 0.29630 0.00681 -0.04200
C 	C 	0.36330 0.35550 0.00706 0.10700
C 	C 	0.36185 0.24010 0.17876 0.10800
N 	N 	0.54457 0.06660 0.92933 -0.22700
Cu	Cu	0.95728 0.82361 0.46037 0.82800
Cu	Cu	0.04280 0.61493 0.37775 0.82200
N 	N 	0.13694 0.98230 0.52937 -0.11400
N 	N 	0.07913 0.99350 0.52155 -0.17100
N 	N 	0.04641 0.87890 0.48310 -0.18100
N 	N 	0.08199 0.78970 0.46387 -0.21300
N 	N 	0.08236 0.68220 0.29902 -0.21300
N 	N 	0.04813 0.69890 0.20721 -0.17900
N 	N 	0.08221 0.76450 0.17658 -0.17300
N 	N 	0.14000 0.79130 0.24783 -0.11200
C 	C 	0.95625 0.66860 0.53586 -0.20400
C 	C 	0.25082 0.69790 0.42292 -0.04500
H 	H 	0.25080 0.66250 0.37040 0.04500
C 	C 	0.19397 0.74380 0.41509 -0.04000
C 	C 	0.19285 0.79630 0.49319 -0.04000
C 	C 	0.13670 0.85550 0.49294 0.10700
C 	C 	0.13815 0.74010 0.32124 0.10900
N 	N 	0.95543 0.56660 0.57067 -0.22700
Cu	Cu	0.45728 0.32361 0.46037 0.82800
Cu	Cu	0.54280 0.11493 0.37775 0.82200
N 	N 	0.63694 0.48230 0.52937 -0.11400
N 	N 	0.57913 0.49350 0.52155 -0.17100
N 	N 	0.54641 0.37890 0.48310 -0.18100
N 	N 	0.58199 0.28970 0.46387 -0.21300
N 	N 	0.58236 0.18220 0.29902 -0.21300
N 	N 	0.54813 0.19890 0.20721 -0.17900
N 	N 	0.58221 0.26450 0.17658 -0.17200
N 	N 	0.64000 0.29130 0.24783 -0.11200
C 	C 	0.45625 0.16860 0.53586 -0.20400
C 	C 	0.75082 0.19790 0.42292 -0.04500
H 	H 	0.75080 0.16250 0.37040 0.04500
C 	C 	0.69397 0.24380 0.41509 -0.04000
C 	C 	0.69285 0.29630 0.49319 -0.04000
C 	C 	0.63670 0.35550 0.49294 0.10700
C 	C 	0.63815 0.24010 0.32124 0.10900
N 	N 	0.45543 0.06660 0.57067 -0.22700
Cu	Cu	0.95728 0.17639 0.96037 0.82800
Cu	Cu	0.04280 0.38507 0.87775 0.82200
N 	N 	0.13694 0.01770 0.02937 -0.11500
N 	N 	0.07913 0.00650 0.02155 -0.17300
N 	N 	0.04641 0.12110 0.98310 -0.17900
N 	N 	0.08199 0.21030 0.96387 -0.21300
N 	N 	0.08236 0.31780 0.79902 -0.21300
N 	N 	0.04813 0.30110 0.70721 -0.17900
N 	N 	0.08221 0.23550 0.67658 -0.17200
N 	N 	0.14000 0.20870 0.74783 -0.11200
C 	C 	0.95625 0.33140 0.03586 -0.20200
C 	C 	0.25082 0.30210 0.92292 -0.04200
H 	H 	0.25080 0.33750 0.87040 0.04400
C 	C 	0.19397 0.25620 0.91509 -0.04200
C 	C 	0.19285 0.20370 0.99319 -0.03700
C 	C 	0.13670 0.14450 0.99294 0.10800
C 	C 	0.13815 0.25990 0.82124 0.10900
N 	N 	0.95543 0.43340 0.07067 -0.22700
Cu	Cu	0.45728 0.67639 0.96037 0.82800
Cu	Cu	0.54280 0.88507 0.87775 0.82200
N 	N 	0.63694 0.51770 0.02937 -0.11400
N 	N 	0.57913 0.50650 0.02155 -0.17100
N 	N 	0.54641 0.62110 0.98310 -0.18100
N 	N 	0.58199 0.71030 0.96387 -0.21300
N 	N 	0.58236 0.81780 0.79902 -0.21300
N 	N 	0.54813 0.80110 0.70721 -0.17900
N 	N 	0.58221 0.73550 0.67658 -0.17200
N 	N 	0.64000 0.70870 0.74783 -0.11200
C 	C 	0.45625 0.83140 0.03586 -0.20400
C 	C 	0.75082 0.80210 0.92292 -0.04800
H 	H 	0.75080 0.83750 0.87040 0.04600
C 	C 	0.69397 0.75620 0.91509 -0.03800
C 	C 	0.69285 0.70370 0.99319 -0.04200
C 	C 	0.63670 0.64450 0.99294 0.10700
C 	C 	0.63815 0.75990 0.82124 0.10800
N 	N 	0.45543 0.93340 0.07067 -0.22700
Cu	Cu	0.04272 0.17639 0.53963 0.82800
Cu	Cu	0.95720 0.38507 0.62225 0.82200
N 	N 	0.86306 0.01770 0.47063 -0.11400
N 	N 	0.92087 0.00650 0.47845 -0.17100
N 	N 	0.95359 0.12110 0.51690 -0.18100
N 	N 	0.91801 0.21030 0.53613 -0.21300
N 	N 	0.91764 0.31780 0.70098 -0.21300
N 	N 	0.95187 0.30110 0.79279 -0.17900
N 	N 	0.91779 0.23550 0.82342 -0.17300
N 	N 	0.86000 0.20870 0.75217 -0.11200
C 	C 	0.04375 0.33140 0.46414 -0.20400
C 	C 	0.74918 0.30210 0.57708 -0.04500
H 	H 	0.74920 0.33750 0.62960 0.04500
C 	C 	0.80603 0.25620 0.58491 -0.04000
C 	C 	0.80715 0.20370 0.50681 -0.04000
C 	C 	0.86330 0.14450 0.50706 0.10700
C 	C 	0.86185 0.25990 0.67876 0.10900
N 	N 	0.04457 0.43340 0.42933 -0.22700
Cu	Cu	0.54272 0.67639 0.53963 0.82800
Cu	Cu	0.45720 0.88507 0.62225 0.82200
N 	N 	0.36306 0.51770 0.47063 -0.11400
N 	N 	0.42087 0.50650 0.47845 -0.17100
N 	N 	0.45359 0.62110 0.51690 -0.18100
N 	N 	0.41801 0.71030 0.53613 -0.21300
N 	N 	0.41764 0.81780 0.70098 -0.21300
N 	N 	0.45187 0.80110 0.79279 -0.17900
N 	N 	0.41779 0.73550 0.82342 -0.17200
N 	N 	0.36000 0.70870 0.75217 -0.11200
C 	C 	0.54375 0.83140 0.46414 -0.20400
C 	C 	0.24918 0.80210 0.57708 -0.04500
H 	H 	0.24920 0.83750 0.62960 0.04500
C 	C 	0.30603 0.75620 0.58491 -0.04000
C 	C 	0.30715 0.70370 0.50681 -0.04000
C 	C 	0.36330 0.64450 0.50706 0.10700
C 	C 	0.36185 0.75990 0.67876 0.10900
N 	N 	0.54457 0.93340 0.42933 -0.22700
