data_crystal

_cell_length_a 24.32100
_cell_length_b 9.40980
_cell_length_c 16.62800
_cell_angle_alpha 90.00000
_cell_angle_beta  119.24000
_cell_angle_gamma 90.00000

_symmetry_space_group_name_	'P 1'
_symmetry_space_group_name_H-M	'P 1'

loop_
_symmetry_equiv_pos_as_xyz
  x,y,z

loop_
_atom_site_label
_atom_site_type_symbol
_atom_site_fract_x
_atom_site_fract_y
_atom_site_fract_z
_atom_site_charge
Cu	Cu	0.04273 0.82357 0.04115 0.82800
Cu	Cu	0.95723 0.61430 0.12254 0.82400
N 	N 	0.91824 0.79070 0.03730 -0.21100
N 	N 	0.95358 0.88030 0.01720 -0.18000
N 	N 	0.92015 0.99270 0.97640 -0.17200
N 	N 	0.86240 0.98150 0.96750 -0.11500
N 	N 	0.86050 0.79070 0.25110 -0.11100
N 	N 	0.91800 0.76380 0.32220 -0.16900
N 	N 	0.95211 0.69740 0.29260 -0.17900
N 	N 	0.91769 0.68120 0.20090 -0.21400
N 	N 	0.04490 0.56610 0.93060 -0.22700
C 	C 	0.74930 0.69640 0.07640 -0.04200
H 	H 	0.74910 0.65930 0.12810 0.04500
C 	C 	0.80640 0.74380 0.08450 -0.04100
C 	C 	0.80680 0.79700 0.00610 -0.03600
C 	C 	0.86280 0.85570 0.00600 0.10700
C 	C 	0.86230 0.74010 0.17760 0.10700
C 	C 	0.04520 0.66830 0.96740 -0.20500
Cu	Cu	0.54273 0.32357 0.04115 0.82800
Cu	Cu	0.45723 0.11430 0.12254 0.82200
N 	N 	0.41824 0.29070 0.03730 -0.21200
N 	N 	0.45358 0.38030 0.01720 -0.18300
N 	N 	0.42015 0.49270 0.97640 -0.17000
N 	N 	0.36240 0.48150 0.96750 -0.11300
N 	N 	0.36050 0.29070 0.25110 -0.11100
N 	N 	0.41800 0.26380 0.32220 -0.17000
N 	N 	0.45211 0.19740 0.29260 -0.17900
N 	N 	0.41769 0.18120 0.20090 -0.21400
N 	N 	0.54490 0.06610 0.93060 -0.22700
C 	C 	0.24930 0.19640 0.07640 -0.04900
H 	H 	0.24910 0.15930 0.12810 0.04600
C 	C 	0.30640 0.24380 0.08450 -0.03800
C 	C 	0.30680 0.29700 0.00610 -0.04100
C 	C 	0.36280 0.35570 0.00600 0.10600
C 	C 	0.36230 0.24010 0.17760 0.10600
C 	C 	0.54520 0.16830 0.96740 -0.20600
Cu	Cu	0.95727 0.82357 0.45885 0.82800
Cu	Cu	0.04277 0.61430 0.37746 0.82200
N 	N 	0.08176 0.79070 0.46270 -0.21200
N 	N 	0.04642 0.88030 0.48280 -0.18200
N 	N 	0.07985 0.99270 0.52360 -0.17000
N 	N 	0.13760 0.98150 0.53250 -0.11300
N 	N 	0.13950 0.79070 0.24890 -0.11100
N 	N 	0.08200 0.76380 0.17780 -0.17000
N 	N 	0.04789 0.69740 0.20740 -0.18000
N 	N 	0.08231 0.68120 0.29910 -0.21400
N 	N 	0.95510 0.56610 0.56940 -0.22700
C 	C 	0.25070 0.69640 0.42360 -0.04500
H 	H 	0.25090 0.65930 0.37190 0.04500
C 	C 	0.19360 0.74380 0.41550 -0.04000
C 	C 	0.19320 0.79700 0.49390 -0.03900
C 	C 	0.13720 0.85570 0.49400 0.10600
C 	C 	0.13770 0.74010 0.32240 0.10600
C 	C 	0.95480 0.66830 0.53260 -0.20600
Cu	Cu	0.45727 0.32357 0.45885 0.82800
Cu	Cu	0.54277 0.11430 0.37746 0.82200
N 	N 	0.58176 0.29070 0.46270 -0.21200
N 	N 	0.54642 0.38030 0.48280 -0.18200
N 	N 	0.57985 0.49270 0.52360 -0.17000
N 	N 	0.63760 0.48150 0.53250 -0.11300
N 	N 	0.63950 0.29070 0.24890 -0.11100
N 	N 	0.58200 0.26380 0.17780 -0.17000
N 	N 	0.54789 0.19740 0.20740 -0.17900
N 	N 	0.58231 0.18120 0.29910 -0.21400
N 	N 	0.45510 0.06610 0.56940 -0.22700
C 	C 	0.75070 0.19640 0.42360 -0.04500
H 	H 	0.75090 0.15930 0.37190 0.04600
C 	C 	0.69360 0.24380 0.41550 -0.04000
C 	C 	0.69320 0.29700 0.49390 -0.03900
C 	C 	0.63720 0.35570 0.49400 0.10600
C 	C 	0.63770 0.24010 0.32240 0.10600
C 	C 	0.45480 0.16830 0.53260 -0.20600
Cu	Cu	0.95727 0.17643 0.95885 0.82700
Cu	Cu	0.04277 0.38570 0.87746 0.82300
N 	N 	0.08176 0.20930 0.96270 -0.21200
N 	N 	0.04642 0.11970 0.98280 -0.18100
N 	N 	0.07985 0.00730 0.02360 -0.17200
N 	N 	0.13760 0.01850 0.03250 -0.11500
N 	N 	0.13950 0.20930 0.74890 -0.11100
N 	N 	0.08200 0.23620 0.67780 -0.16900
N 	N 	0.04789 0.30260 0.70740 -0.17900
N 	N 	0.08231 0.31880 0.79910 -0.21400
N 	N 	0.95510 0.43390 0.06940 -0.22700
C 	C 	0.25070 0.30360 0.92360 -0.04200
H 	H 	0.25090 0.34070 0.87190 0.04500
C 	C 	0.19360 0.25620 0.91550 -0.04100
C 	C 	0.19320 0.20300 0.99390 -0.03600
C 	C 	0.13720 0.14430 0.99400 0.10700
C 	C 	0.13770 0.25990 0.82240 0.10700
C 	C 	0.95480 0.33170 0.03260 -0.20500
Cu	Cu	0.45727 0.67643 0.95885 0.82800
Cu	Cu	0.54277 0.88570 0.87746 0.82200
N 	N 	0.58176 0.70930 0.96270 -0.21200
N 	N 	0.54642 0.61970 0.98280 -0.18300
N 	N 	0.57985 0.50730 0.02360 -0.17000
N 	N 	0.63760 0.51850 0.03250 -0.11300
N 	N 	0.63950 0.70930 0.74890 -0.11100
N 	N 	0.58200 0.73620 0.67780 -0.17000
N 	N 	0.54789 0.80260 0.70740 -0.17900
N 	N 	0.58231 0.81880 0.79910 -0.21400
N 	N 	0.45510 0.93390 0.06940 -0.22700
C 	C 	0.75070 0.80360 0.92360 -0.04900
H 	H 	0.75090 0.84070 0.87190 0.04600
C 	C 	0.69360 0.75620 0.91550 -0.03800
C 	C 	0.69320 0.70300 0.99390 -0.04100
C 	C 	0.63720 0.64430 0.99400 0.10600
C 	C 	0.63770 0.75990 0.82240 0.10600
C 	C 	0.45480 0.83170 0.03260 -0.20600
Cu	Cu	0.04273 0.17643 0.54115 0.82800
Cu	Cu	0.95723 0.38570 0.62254 0.82200
N 	N 	0.91824 0.20930 0.53730 -0.21200
N 	N 	0.95358 0.11970 0.51720 -0.18200
N 	N 	0.92015 0.00730 0.47640 -0.17000
N 	N 	0.86240 0.01850 0.46750 -0.11300
N 	N 	0.86050 0.20930 0.75110 -0.11100
N 	N 	0.91800 0.23620 0.82220 -0.17000
N 	N 	0.95211 0.30260 0.79260 -0.18000
N 	N 	0.91769 0.31880 0.70090 -0.21400
N 	N 	0.04490 0.43390 0.43060 -0.22700
C 	C 	0.74930 0.30360 0.57640 -0.04500
H 	H 	0.74910 0.34070 0.62810 0.04500
C 	C 	0.80640 0.25620 0.58450 -0.04000
C 	C 	0.80680 0.20300 0.50610 -0.03900
C 	C 	0.86280 0.14430 0.50600 0.10600
C 	C 	0.86230 0.25990 0.67760 0.10600
C 	C 	0.04520 0.33170 0.46740 -0.20600
Cu	Cu	0.54273 0.67643 0.54115 0.82800
Cu	Cu	0.45723 0.88570 0.62254 0.82200
N 	N 	0.41824 0.70930 0.53730 -0.21200
N 	N 	0.45358 0.61970 0.51720 -0.18200
N 	N 	0.42015 0.50730 0.47640 -0.17000
N 	N 	0.36240 0.51850 0.46750 -0.11300
N 	N 	0.36050 0.70930 0.75110 -0.11100
N 	N 	0.41800 0.73620 0.82220 -0.17000
N 	N 	0.45211 0.80260 0.79260 -0.17900
N 	N 	0.41769 0.81880 0.70090 -0.21400
N 	N 	0.54490 0.93390 0.43060 -0.22700
C 	C 	0.24930 0.80360 0.57640 -0.04500
H 	H 	0.24910 0.84070 0.62810 0.04600
C 	C 	0.30640 0.75620 0.58450 -0.04000
C 	C 	0.30680 0.70300 0.50610 -0.03900
C 	C 	0.36280 0.64430 0.50600 0.10600
C 	C 	0.36230 0.75990 0.67760 0.10600
C 	C 	0.54520 0.83170 0.46740 -0.20600
