data_crystal

_cell_length_a 24.25800
_cell_length_b 9.48770
_cell_length_c 16.47300
_cell_angle_alpha 90.00000
_cell_angle_beta  118.79000
_cell_angle_gamma 90.00000

_symmetry_space_group_name_	'P 1'
_symmetry_space_group_name_H-M	'P 1'

loop_
_symmetry_equiv_pos_as_xyz
  x,y,z

loop_
_atom_site_label
_atom_site_type_symbol
_atom_site_fract_x
_atom_site_fract_y
_atom_site_fract_z
_atom_site_charge
Cu	Cu	0.04272 0.17662 0.03882 0.82700
Cu	Cu	0.04255 0.38483 0.37785 0.82300
N 	N 	0.13703 0.01860 0.53000 -0.11300
N 	N 	0.07927 0.00660 0.52160 -0.17000
N 	N 	0.04633 0.11980 0.48290 -0.18000
N 	N 	0.08149 0.21000 0.46400 -0.21200
N 	N 	0.08264 0.31830 0.29880 -0.21400
N 	N 	0.04816 0.30150 0.20690 -0.17900
N 	N 	0.08206 0.23660 0.17640 -0.17000
N 	N 	0.13992 0.21090 0.24760 -0.11100
N 	N 	0.04400 0.43450 0.92880 -0.22800
C 	C 	0.25090 0.30280 0.42300 -0.04400
H 	H 	0.25140 0.33900 0.37090 0.04500
C 	C 	0.19370 0.25660 0.41470 -0.04000
C 	C 	0.19280 0.20310 0.49380 -0.04000
C 	C 	0.13670 0.14500 0.49340 0.10600
C 	C 	0.13790 0.26080 0.32160 0.10700
C 	C 	0.04360 0.33190 0.96370 -0.20400
Cu	Cu	0.54272 0.67662 0.03882 0.82700
Cu	Cu	0.54255 0.88483 0.37785 0.82200
N 	N 	0.63703 0.51860 0.53000 -0.11400
N 	N 	0.57927 0.50660 0.52160 -0.17100
N 	N 	0.54633 0.61980 0.48290 -0.18000
N 	N 	0.58149 0.71000 0.46400 -0.21200
N 	N 	0.58264 0.81830 0.29880 -0.21400
N 	N 	0.54816 0.80150 0.20690 -0.17800
N 	N 	0.58206 0.73660 0.17640 -0.16900
N 	N 	0.63992 0.71090 0.24760 -0.11100
N 	N 	0.54400 0.93450 0.92880 -0.22800
C 	C 	0.75090 0.80280 0.42300 -0.04400
H 	H 	0.75140 0.83900 0.37090 0.04500
C 	C 	0.69370 0.75660 0.41470 -0.04000
C 	C 	0.69280 0.70310 0.49380 -0.04000
C 	C 	0.63670 0.64500 0.49340 0.10600
C 	C 	0.63790 0.76080 0.32160 0.10800
C 	C 	0.54360 0.83190 0.96370 -0.20600
Cu	Cu	0.95728 0.17662 0.46118 0.82700
Cu	Cu	0.95745 0.38483 0.12215 0.82200
N 	N 	0.86297 0.01860 0.97000 -0.11500
N 	N 	0.92073 0.00660 0.97840 -0.17300
N 	N 	0.95367 0.11980 0.01710 -0.17900
N 	N 	0.91851 0.21000 0.03600 -0.21200
N 	N 	0.91736 0.31830 0.20120 -0.21400
N 	N 	0.95184 0.30150 0.29310 -0.17800
N 	N 	0.91794 0.23660 0.32360 -0.16900
N 	N 	0.86008 0.21090 0.25240 -0.11100
N 	N 	0.95600 0.43450 0.57120 -0.22800
C 	C 	0.74910 0.30280 0.07700 -0.04100
H 	H 	0.74860 0.33900 0.12910 0.04400
C 	C 	0.80630 0.25660 0.08530 -0.04200
C 	C 	0.80720 0.20310 0.00620 -0.03700
C 	C 	0.86330 0.14500 0.00660 0.10700
C 	C 	0.86210 0.26080 0.17840 0.10800
C 	C 	0.95640 0.33190 0.53630 -0.20600
Cu	Cu	0.45728 0.67662 0.46118 0.82700
Cu	Cu	0.45745 0.88483 0.12215 0.82200
N 	N 	0.36297 0.51860 0.97000 -0.11400
N 	N 	0.42073 0.50660 0.97840 -0.17100
N 	N 	0.45367 0.61980 0.01710 -0.18100
N 	N 	0.41851 0.71000 0.03600 -0.21200
N 	N 	0.41736 0.81830 0.20120 -0.21400
N 	N 	0.45184 0.80150 0.29310 -0.17800
N 	N 	0.41794 0.73660 0.32360 -0.16900
N 	N 	0.36008 0.71090 0.25240 -0.11100
N 	N 	0.45600 0.93450 0.57120 -0.22800
C 	C 	0.24910 0.80280 0.07700 -0.04800
H 	H 	0.24860 0.83900 0.12910 0.04600
C 	C 	0.30630 0.75660 0.08530 -0.03900
C 	C 	0.30720 0.70310 0.00620 -0.04200
C 	C 	0.36330 0.64500 0.00660 0.10600
C 	C 	0.36210 0.76080 0.17840 0.10700
C 	C 	0.45640 0.83190 0.53630 -0.20600
Cu	Cu	0.95728 0.82338 0.96118 0.82600
Cu	Cu	0.95745 0.61517 0.62215 0.82200
N 	N 	0.86297 0.98140 0.47000 -0.11400
N 	N 	0.92073 0.99340 0.47840 -0.17100
N 	N 	0.95367 0.88020 0.51710 -0.18000
N 	N 	0.91851 0.79000 0.53600 -0.21200
N 	N 	0.91736 0.68170 0.70120 -0.21400
N 	N 	0.95184 0.69850 0.79310 -0.17900
N 	N 	0.91794 0.76340 0.82360 -0.17000
N 	N 	0.86008 0.78910 0.75240 -0.11100
N 	N 	0.95600 0.56550 0.07120 -0.22800
C 	C 	0.74910 0.69720 0.57700 -0.04400
H 	H 	0.74860 0.66100 0.62910 0.04500
C 	C 	0.80630 0.74340 0.58530 -0.04000
C 	C 	0.80720 0.79690 0.50620 -0.04000
C 	C 	0.86330 0.85500 0.50660 0.10600
C 	C 	0.86210 0.73920 0.67840 0.10700
C 	C 	0.95640 0.66810 0.03630 -0.20400
Cu	Cu	0.45728 0.32338 0.96118 0.82700
Cu	Cu	0.45745 0.11517 0.62215 0.82200
N 	N 	0.36297 0.48140 0.47000 -0.11400
N 	N 	0.42073 0.49340 0.47840 -0.17100
N 	N 	0.45367 0.38020 0.51710 -0.18000
N 	N 	0.41851 0.29000 0.53600 -0.21200
N 	N 	0.41736 0.18170 0.70120 -0.21400
N 	N 	0.45184 0.19850 0.79310 -0.17800
N 	N 	0.41794 0.26340 0.82360 -0.16900
N 	N 	0.36008 0.28910 0.75240 -0.11100
N 	N 	0.45600 0.06550 0.07120 -0.22800
C 	C 	0.24910 0.19720 0.57700 -0.04400
H 	H 	0.24860 0.16100 0.62910 0.04500
C 	C 	0.30630 0.24340 0.58530 -0.04000
C 	C 	0.30720 0.29690 0.50620 -0.04000
C 	C 	0.36330 0.35500 0.50660 0.10600
C 	C 	0.36210 0.23920 0.67840 0.10800
C 	C 	0.45640 0.16810 0.03630 -0.20600
Cu	Cu	0.04272 0.82338 0.53882 0.82700
Cu	Cu	0.04255 0.61517 0.87785 0.82200
N 	N 	0.13703 0.98140 0.03000 -0.11500
N 	N 	0.07927 0.99340 0.02160 -0.17300
N 	N 	0.04633 0.88020 0.98290 -0.17900
N 	N 	0.08149 0.79000 0.96400 -0.21200
N 	N 	0.08264 0.68170 0.79880 -0.21400
N 	N 	0.04816 0.69850 0.70690 -0.17800
N 	N 	0.08206 0.76340 0.67640 -0.16900
N 	N 	0.13992 0.78910 0.74760 -0.11100
N 	N 	0.04400 0.56550 0.42880 -0.22800
C 	C 	0.25090 0.69720 0.92300 -0.04100
H 	H 	0.25140 0.66100 0.87090 0.04400
C 	C 	0.19370 0.74340 0.91470 -0.04200
C 	C 	0.19280 0.79690 0.99380 -0.03700
C 	C 	0.13670 0.85500 0.99340 0.10700
C 	C 	0.13790 0.73920 0.82160 0.10800
C 	C 	0.04360 0.66810 0.46370 -0.20600
Cu	Cu	0.54272 0.32338 0.53882 0.82700
Cu	Cu	0.54255 0.11517 0.87785 0.82200
N 	N 	0.63703 0.48140 0.03000 -0.11400
N 	N 	0.57927 0.49340 0.02160 -0.17100
N 	N 	0.54633 0.38020 0.98290 -0.18100
N 	N 	0.58149 0.29000 0.96400 -0.21200
N 	N 	0.58264 0.18170 0.79880 -0.21400
N 	N 	0.54816 0.19850 0.70690 -0.17800
N 	N 	0.58206 0.26340 0.67640 -0.16900
N 	N 	0.63992 0.28910 0.74760 -0.11100
N 	N 	0.54400 0.06550 0.42880 -0.22800
C 	C 	0.75090 0.19720 0.92300 -0.04800
H 	H 	0.75140 0.16100 0.87090 0.04600
C 	C 	0.69370 0.24340 0.91470 -0.03900
C 	C 	0.69280 0.29690 0.99380 -0.04200
C 	C 	0.63670 0.35500 0.99340 0.10600
C 	C 	0.63790 0.23920 0.82160 0.10700
C 	C 	0.54360 0.16810 0.46370 -0.20600
