data_crystal

_cell_length_a 24.34900
_cell_length_b 9.23340
_cell_length_c 16.95900
_cell_angle_alpha 90.00000
_cell_angle_beta  119.41000
_cell_angle_gamma 90.00000

_symmetry_space_group_name_	'P 1'
_symmetry_space_group_name_H-M	'P 1'

loop_
_symmetry_equiv_pos_as_xyz
  x,y,z

loop_
_atom_site_label
_atom_site_type_symbol
_atom_site_fract_x
_atom_site_fract_y
_atom_site_fract_z
_atom_site_charge
Cu	Cu	0.15336 0.67062 0.32335 0.82600
Cu	Cu	0.14800 0.89651 0.64849 0.82200
Cu	Cu	0.06310 0.68569 0.72744 0.82900
Cu	Cu	0.06379 0.87942 0.39709 0.82600
N 	N 	0.19260 0.73870 0.45790 -0.16700
N 	N 	0.24930 0.71630 0.52890 -0.10900
N 	N 	0.18950 0.82700 0.57350 -0.21000
N 	N 	0.15580 0.80650 0.48370 -0.18200
N 	N 	0.18720 0.71890 0.73430 -0.21400
N 	N 	0.15450 0.62980 0.75950 -0.18100
N 	N 	0.19020 0.52250 0.80850 -0.16900
N 	N 	0.24900 0.53970 0.81970 -0.11500
N 	N 	0.46890 0.80450 0.02320 -0.10000
N 	N 	0.52580 0.76640 0.09330 -0.17000
N 	N 	0.55810 0.69170 0.06450 -0.17200
N 	N 	0.52410 0.67910 0.97320 -0.22200
N 	N 	0.52820 0.80420 0.81940 -0.21000
N 	N 	0.56360 0.89000 0.79930 -0.18200
N 	N 	0.52780 0.00030 0.75040 -0.16900
N 	N 	0.47050 0.98860 0.73930 -0.11300
N 	N 	0.05720 0.15530 0.29680 -0.21000
N 	N 	0.15230 0.17900 0.74250 -0.21000
C 	C 	0.24630 0.77070 0.59930 0.10300
C 	C 	0.30180 0.77140 0.69260 -0.03700
C 	C 	0.35810 0.81580 0.70120 -0.04500
H 	H 	0.35830 0.85040 0.64990 0.04600
C 	C 	0.41440 0.81240 0.78130 -0.04000
C 	C 	0.41450 0.75940 0.85930 -0.03600
C 	C 	0.35670 0.71830 0.85200 -0.04700
H 	H 	0.35600 0.68870 0.90390 0.04400
C 	C 	0.29970 0.72020 0.76910 -0.04100
C 	C 	0.24480 0.66100 0.77310 0.10500
C 	C 	0.47080 0.75120 0.95160 0.09100
C 	C 	0.47090 0.86770 0.78240 0.10300
C 	C 	0.05700 0.05380 0.33620 -0.23500
C 	C 	0.15130 0.07760 0.70230 -0.23300
Cu	Cu	0.65336 0.17062 0.32335 0.82700
Cu	Cu	0.64800 0.39651 0.64849 0.82300
Cu	Cu	0.56310 0.18569 0.72744 0.83000
Cu	Cu	0.56379 0.37942 0.39709 0.82700
N 	N 	0.69260 0.23870 0.45790 -0.16700
N 	N 	0.74930 0.21630 0.52890 -0.10800
N 	N 	0.68950 0.32700 0.57350 -0.21000
N 	N 	0.65580 0.30650 0.48370 -0.18100
N 	N 	0.68720 0.21890 0.73430 -0.21400
N 	N 	0.65450 0.12980 0.75950 -0.18100
N 	N 	0.69020 0.02250 0.80850 -0.16900
N 	N 	0.74900 0.03970 0.81970 -0.11400
N 	N 	0.96890 0.30450 0.02320 -0.09600
N 	N 	0.02580 0.26640 0.09330 -0.17500
N 	N 	0.05810 0.19170 0.06450 -0.17400
N 	N 	0.02410 0.17910 0.97320 -0.22800
N 	N 	0.02820 0.30420 0.81940 -0.21700
N 	N 	0.06360 0.39000 0.79930 -0.18200
N 	N 	0.02780 0.50030 0.75040 -0.17500
N 	N 	0.97050 0.48860 0.73930 -0.10800
N 	N 	0.55720 0.65530 0.29680 -0.20900
N 	N 	0.65230 0.67900 0.74250 -0.20900
C 	C 	0.74630 0.27070 0.59930 0.10300
C 	C 	0.80180 0.27140 0.69260 -0.03700
C 	C 	0.85810 0.31580 0.70120 -0.04300
H 	H 	0.85830 0.35040 0.64990 0.04700
C 	C 	0.91440 0.31240 0.78130 -0.04000
C 	C 	0.91450 0.25940 0.85930 -0.03600
C 	C 	0.85670 0.21830 0.85200 -0.04600
H 	H 	0.85600 0.18870 0.90390 0.04500
C 	C 	0.79970 0.22020 0.76910 -0.04000
C 	C 	0.74480 0.16100 0.77310 0.10500
C 	C 	0.97080 0.25120 0.95160 0.10200
C 	C 	0.97090 0.36770 0.78240 0.11300
C 	C 	0.55700 0.55380 0.33620 -0.23200
C 	C 	0.65130 0.57760 0.70230 -0.23200
Cu	Cu	0.15336 0.32938 0.82335 0.82500
Cu	Cu	0.14800 0.10349 0.14849 0.82400
Cu	Cu	0.06310 0.31431 0.22744 0.83000
Cu	Cu	0.06379 0.12058 0.89709 0.82500
N 	N 	0.19260 0.26130 0.95790 -0.17500
N 	N 	0.24930 0.28370 0.02890 -0.10000
N 	N 	0.18950 0.17300 0.07350 -0.20300
N 	N 	0.15580 0.19350 0.98370 -0.18900
N 	N 	0.18720 0.28110 0.23430 -0.21300
N 	N 	0.15450 0.37020 0.25950 -0.18000
N 	N 	0.19020 0.47750 0.30850 -0.16800
N 	N 	0.24900 0.46030 0.31970 -0.11300
N 	N 	0.46890 0.19550 0.52320 -0.11200
N 	N 	0.52580 0.23360 0.59330 -0.17200
N 	N 	0.55810 0.30830 0.56450 -0.18000
N 	N 	0.52410 0.32090 0.47320 -0.21600
N 	N 	0.52820 0.19580 0.31940 -0.21000
N 	N 	0.56360 0.11000 0.29930 -0.18000
N 	N 	0.52780 0.99970 0.25040 -0.16900
N 	N 	0.47050 0.01140 0.23930 -0.11100
N 	N 	0.05720 0.84470 0.79680 -0.21100
N 	N 	0.15230 0.82100 0.24250 -0.20900
C 	C 	0.24630 0.22930 0.09930 0.10500
C 	C 	0.30180 0.22860 0.19260 -0.03500
C 	C 	0.35810 0.18420 0.20120 -0.04600
H 	H 	0.35830 0.14960 0.14990 0.04900
C 	C 	0.41440 0.18760 0.28130 -0.03700
C 	C 	0.41450 0.24060 0.35930 -0.03800
C 	C 	0.35670 0.28170 0.35200 -0.04400
H 	H 	0.35600 0.31130 0.40390 0.04700
C 	C 	0.29970 0.27980 0.26910 -0.04100
C 	C 	0.24480 0.33900 0.27310 0.10700
C 	C 	0.47080 0.24880 0.45160 0.10700
C 	C 	0.47090 0.13230 0.28240 0.10400
C 	C 	0.05700 0.94620 0.83620 -0.24000
C 	C 	0.15130 0.92240 0.20230 -0.22900
Cu	Cu	0.65336 0.82938 0.82335 0.82500
Cu	Cu	0.64800 0.60349 0.14849 0.82400
Cu	Cu	0.56310 0.81431 0.22744 0.83100
Cu	Cu	0.56379 0.62058 0.89709 0.82600
N 	N 	0.69260 0.76130 0.95790 -0.17500
N 	N 	0.74930 0.78370 0.02890 -0.09900
N 	N 	0.68950 0.67300 0.07350 -0.20300
N 	N 	0.65580 0.69350 0.98370 -0.19000
N 	N 	0.68720 0.78110 0.23430 -0.21300
N 	N 	0.65450 0.87020 0.25950 -0.18000
N 	N 	0.69020 0.97750 0.30850 -0.16700
N 	N 	0.74900 0.96030 0.31970 -0.11200
N 	N 	0.96890 0.69550 0.52320 -0.10800
N 	N 	0.02580 0.73360 0.59330 -0.17700
N 	N 	0.05810 0.80830 0.56450 -0.18100
N 	N 	0.02410 0.82090 0.47320 -0.22300
N 	N 	0.02820 0.69580 0.31940 -0.21600
N 	N 	0.06360 0.61000 0.29930 -0.18100
N 	N 	0.02780 0.49970 0.25040 -0.17400
N 	N 	0.97050 0.51140 0.23930 -0.10600
N 	N 	0.55720 0.34470 0.79680 -0.21000
N 	N 	0.65230 0.32100 0.24250 -0.20800
C 	C 	0.74630 0.72930 0.09930 0.10500
C 	C 	0.80180 0.72860 0.19260 -0.03500
C 	C 	0.85810 0.68420 0.20120 -0.04400
H 	H 	0.85830 0.64960 0.14990 0.05000
C 	C 	0.91440 0.68760 0.28130 -0.03700
C 	C 	0.91450 0.74060 0.35930 -0.03800
C 	C 	0.85670 0.78170 0.35200 -0.04300
H 	H 	0.85600 0.81130 0.40390 0.04800
C 	C 	0.79970 0.77980 0.26910 -0.04000
C 	C 	0.74480 0.83900 0.27310 0.10700
C 	C 	0.97080 0.74880 0.45160 0.11700
C 	C 	0.97090 0.63230 0.28240 0.11400
C 	C 	0.55700 0.44620 0.83620 -0.23600
C 	C 	0.65130 0.42240 0.20230 -0.22800
