data_crystal

_cell_length_a 8.10500
_cell_length_b 16.96900
_cell_length_c 17.66600
_cell_angle_alpha 90.00000
_cell_angle_beta  102.49500
_cell_angle_gamma 90.00000

_symmetry_space_group_name_	'P 1'
_symmetry_space_group_name_H-M	'P 1'

loop_
_symmetry_equiv_pos_as_xyz
  x,y,z

loop_
_atom_site_label
_atom_site_type_symbol
_atom_site_fract_x
_atom_site_fract_y
_atom_site_fract_z
_atom_site_charge
Cu	Cu	0.00577 0.70429 0.28783 0.88100
Cu	Cu	0.20535 0.60267 0.17002 0.92900
Cu	Cu	0.53558 0.66737 0.97293 0.90900
Cu	Cu	0.40762 0.58083 0.79756 0.91100
C 	C 	0.89150 0.65570 0.05860 0.09000
H 	H 	0.92610 0.63670 0.01390 -0.01000
C 	C 	0.74210 0.70210 0.13380 0.10600
H 	H 	0.65000 0.72280 0.15290 -0.01300
C 	C 	0.72010 0.82750 0.27830 0.10600
H 	H 	0.71840 0.84550 0.22730 -0.01000
C 	C 	0.78240 0.76590 0.38390 0.09200
H 	H 	0.83460 0.73090 0.42390 -0.01400
C 	C 	0.30470 0.69780 0.39740 0.23400
C 	C 	0.34820 0.65430 0.32680 0.13400
H 	H 	0.44780 0.68140 0.31340 -0.01400
C 	C 	0.39650 0.57040 0.34620 -0.43500
H 	H 	0.29810 0.54230 0.35810 0.16200
H 	H 	0.48840 0.56910 0.39330 0.16800
C 	C 	0.45410 0.52760 0.28200 0.42200
C 	C 	0.28840 0.58720 0.02370 0.23400
C 	C 	0.27110 0.55530 0.94120 0.16000
H 	H 	0.30890 0.49910 0.94290 -0.03100
C 	C 	0.11350 0.56220 0.89500 -0.47500
H 	H 	0.08730 0.61910 0.88850 0.16800
H 	H 	0.03210 0.53920 0.92330 0.17700
C 	C 	0.07960 0.52480 0.81370 0.46100
N 	N 	0.65800 0.81390 0.38980 -0.20500
N 	N 	0.61800 0.85400 0.32060 -0.20100
N 	N 	0.82780 0.77200 0.31460 -0.24400
N 	N 	0.89500 0.68760 0.17780 -0.20700
N 	N 	0.98970 0.65830 0.12910 -0.19300
N 	N 	0.73480 0.68370 0.05890 -0.23100
O 	O 	0.15570 0.72340 0.38970 -0.38000
O 	O 	0.41870 0.70650 0.45670 -0.31500
O 	O 	0.20990 0.66230 0.26260 -0.47100
O 	O 	0.41760 0.55120 0.21180 -0.44300
O 	O 	0.53700 0.46370 0.29940 -0.40100
O 	O 	0.19470 0.55780 0.06560 -0.37100
O 	O 	0.40120 0.63780 0.04720 -0.38300
O 	O 	0.38240 0.60590 0.90110 -0.47100
O 	O 	0.19790 0.52080 0.77730 -0.42800
O 	O 	0.93730 0.50440 0.78570 -0.39500
Cu	Cu	0.99423 0.20429 0.21217 0.88100
Cu	Cu	0.79465 0.10267 0.32998 0.92900
Cu	Cu	0.46442 0.16737 0.52707 0.91100
Cu	Cu	0.59238 0.08083 0.70244 0.91200
C 	C 	0.10850 0.15570 0.44140 0.09000
H 	H 	0.07390 0.13670 0.48610 -0.00900
C 	C 	0.25790 0.20210 0.36620 0.10500
H 	H 	0.35000 0.22280 0.34710 -0.01300
C 	C 	0.27990 0.32750 0.22170 0.10500
H 	H 	0.28160 0.34550 0.27270 -0.01100
C 	C 	0.21760 0.26590 0.11610 0.09100
H 	H 	0.16540 0.23090 0.07610 -0.01400
C 	C 	0.69530 0.19780 0.10260 0.23400
C 	C 	0.65180 0.15430 0.17320 0.13300
H 	H 	0.55220 0.18140 0.18660 -0.01400
C 	C 	0.60350 0.07040 0.15380 -0.43300
H 	H 	0.70190 0.04230 0.14190 0.16000
H 	H 	0.51160 0.06910 0.10670 0.16700
C 	C 	0.54590 0.02760 0.21800 0.41800
C 	C 	0.71160 0.08720 0.47630 0.23500
C 	C 	0.72890 0.05530 0.55880 0.15400
H 	H 	0.69110 0.99910 0.55710 -0.02800
C 	C 	0.88650 0.06220 0.60500 -0.46800
H 	H 	0.91270 0.11910 0.61150 0.16600
H 	H 	0.96790 0.03920 0.57670 0.17300
C 	C 	0.92040 0.02480 0.68630 0.45100
N 	N 	0.34200 0.31390 0.11020 -0.20500
N 	N 	0.38200 0.35400 0.17940 -0.20100
N 	N 	0.17220 0.27200 0.18540 -0.24400
N 	N 	0.10500 0.18760 0.32220 -0.20700
N 	N 	0.01030 0.15830 0.37090 -0.19200
N 	N 	0.26520 0.18370 0.44110 -0.23100
O 	O 	0.84430 0.22340 0.11030 -0.38000
O 	O 	0.58130 0.20650 0.04330 -0.31600
O 	O 	0.79010 0.16230 0.23740 -0.47200
O 	O 	0.58240 0.05120 0.28820 -0.44300
O 	O 	0.46300 0.96370 0.20060 -0.39900
O 	O 	0.80530 0.05780 0.43440 -0.37300
O 	O 	0.59880 0.13780 0.45280 -0.38400
O 	O 	0.61760 0.10590 0.59890 -0.47000
O 	O 	0.80210 0.02080 0.72270 -0.42600
O 	O 	0.06270 0.00440 0.71430 -0.38700
Cu	Cu	0.99423 0.29571 0.71217 0.88200
Cu	Cu	0.79465 0.39733 0.82998 0.93000
Cu	Cu	0.46442 0.33263 0.02707 0.91000
Cu	Cu	0.59238 0.41917 0.20244 0.91200
C 	C 	0.10850 0.34430 0.94140 0.09000
H 	H 	0.07390 0.36330 0.98610 -0.01000
C 	C 	0.25790 0.29790 0.86620 0.10600
H 	H 	0.35000 0.27720 0.84710 -0.01300
C 	C 	0.27990 0.17250 0.72170 0.10600
H 	H 	0.28160 0.15450 0.77270 -0.01000
C 	C 	0.21760 0.23410 0.61610 0.09200
H 	H 	0.16540 0.26910 0.57610 -0.01400
C 	C 	0.69530 0.30220 0.60260 0.23400
C 	C 	0.65180 0.34570 0.67320 0.13400
H 	H 	0.55220 0.31860 0.68660 -0.01400
C 	C 	0.60350 0.42960 0.65380 -0.43500
H 	H 	0.70190 0.45770 0.64190 0.16200
H 	H 	0.51160 0.43090 0.60670 0.16800
C 	C 	0.54590 0.47240 0.71800 0.42200
C 	C 	0.71160 0.41280 0.97630 0.23400
C 	C 	0.72890 0.44470 0.05880 0.16000
H 	H 	0.69110 0.50090 0.05710 -0.03100
C 	C 	0.88650 0.43780 0.10500 -0.47500
H 	H 	0.91270 0.38090 0.11150 0.16800
H 	H 	0.96790 0.46080 0.07670 0.17700
C 	C 	0.92040 0.47520 0.18630 0.46100
N 	N 	0.34200 0.18610 0.61020 -0.20500
N 	N 	0.38200 0.14600 0.67940 -0.20100
N 	N 	0.17220 0.22800 0.68540 -0.24400
N 	N 	0.10500 0.31240 0.82220 -0.20700
N 	N 	0.01030 0.34170 0.87090 -0.19300
N 	N 	0.26520 0.31630 0.94110 -0.23100
O 	O 	0.84430 0.27660 0.61030 -0.38000
O 	O 	0.58130 0.29350 0.54330 -0.31500
O 	O 	0.79010 0.33770 0.73740 -0.47100
O 	O 	0.58240 0.44880 0.78820 -0.44300
O 	O 	0.46300 0.53630 0.70060 -0.40100
O 	O 	0.80530 0.44220 0.93440 -0.37100
O 	O 	0.59880 0.36220 0.95280 -0.38300
O 	O 	0.61760 0.39410 0.09890 -0.47100
O 	O 	0.80210 0.47920 0.22270 -0.42800
O 	O 	0.06270 0.49560 0.21430 -0.39500
Cu	Cu	0.00577 0.79571 0.78783 0.88100
Cu	Cu	0.20535 0.89733 0.67002 0.92900
Cu	Cu	0.53558 0.83263 0.47293 0.91100
Cu	Cu	0.40762 0.91917 0.29756 0.91200
C 	C 	0.89150 0.84430 0.55860 0.09000
H 	H 	0.92610 0.86330 0.51390 -0.00900
C 	C 	0.74210 0.79790 0.63380 0.10500
H 	H 	0.65000 0.77720 0.65290 -0.01300
C 	C 	0.72010 0.67250 0.77830 0.10500
H 	H 	0.71840 0.65450 0.72730 -0.01100
C 	C 	0.78240 0.73410 0.88390 0.09100
H 	H 	0.83460 0.76910 0.92390 -0.01400
C 	C 	0.30470 0.80220 0.89740 0.23400
C 	C 	0.34820 0.84570 0.82680 0.13300
H 	H 	0.44780 0.81860 0.81340 -0.01400
C 	C 	0.39650 0.92960 0.84620 -0.43300
H 	H 	0.29810 0.95770 0.85810 0.16000
H 	H 	0.48840 0.93090 0.89330 0.16700
C 	C 	0.45410 0.97240 0.78200 0.41800
C 	C 	0.28840 0.91280 0.52370 0.23500
C 	C 	0.27110 0.94470 0.44120 0.15400
H 	H 	0.30890 0.00090 0.44290 -0.02800
C 	C 	0.11350 0.93780 0.39500 -0.46800
H 	H 	0.08730 0.88090 0.38850 0.16600
H 	H 	0.03210 0.96080 0.42330 0.17300
C 	C 	0.07960 0.97520 0.31370 0.45100
N 	N 	0.65800 0.68610 0.88980 -0.20500
N 	N 	0.61800 0.64600 0.82060 -0.20100
N 	N 	0.82780 0.72800 0.81460 -0.24400
N 	N 	0.89500 0.81240 0.67780 -0.20700
N 	N 	0.98970 0.84170 0.62910 -0.19200
N 	N 	0.73480 0.81630 0.55890 -0.23100
O 	O 	0.15570 0.77660 0.88970 -0.38000
O 	O 	0.41870 0.79350 0.95670 -0.31600
O 	O 	0.20990 0.83770 0.76260 -0.47200
O 	O 	0.41760 0.94880 0.71180 -0.44300
O 	O 	0.53700 0.03630 0.79940 -0.39900
O 	O 	0.19470 0.94220 0.56560 -0.37300
O 	O 	0.40120 0.86220 0.54720 -0.38400
O 	O 	0.38240 0.89410 0.40110 -0.47000
O 	O 	0.19790 0.97920 0.27730 -0.42600
O 	O 	0.93730 0.99560 0.28570 -0.38700
