data_crystal

_cell_length_a 13.25010
_cell_length_b 13.25010
_cell_length_c 18.49890
_cell_angle_alpha 92.55590
_cell_angle_beta  92.55590
_cell_angle_gamma 112.73200

_symmetry_space_group_name_	'P 1'
_symmetry_space_group_name_H-M	'P 1'

loop_
_symmetry_equiv_pos_as_xyz
  x,y,z

loop_
_atom_site_label
_atom_site_type_symbol
_atom_site_fract_x
_atom_site_fract_y
_atom_site_fract_z
_atom_site_charge
Mn	Mn	0.78757 0.70699 0.30304 1.09700
Mn	Mn	0.29301 0.21243 0.19696 1.07800
Mn	Mn	0.21243 0.29301 0.69696 1.08300
Mn	Mn	0.70699 0.78757 0.80304 1.10000
Mn	Mn	0.50000 0.00000 -0.00000 1.05900
Mn	Mn	0.00000 0.50000 0.50000 1.07500
W 	W 	0.96509 0.55047 0.08918 0.33700
W 	W 	0.07931 0.43035 0.05098 0.20800
W 	W 	0.12851 0.62889 0.00120 0.24600
W 	W 	0.44953 0.03491 0.41082 0.24200
W 	W 	0.56965 0.92069 0.44902 0.35800
W 	W 	0.37111 0.87149 0.49880 0.30700
W 	W 	0.03491 0.44953 0.91082 0.25500
W 	W 	0.92069 0.56965 0.94902 0.39700
W 	W 	0.87149 0.37111 0.99880 0.35400
W 	W 	0.55047 0.96509 0.58918 0.35200
W 	W 	0.43035 0.07931 0.55098 0.24900
W 	W 	0.62889 0.12851 0.50120 0.28900
C 	C 	0.91790 0.61130 0.18790 -0.06200
C 	C 	0.17000 0.34740 0.10410 -0.09400
C 	C 	0.27650 0.77630 0.00310 -0.07000
C 	C 	0.38870 0.08210 0.31210 -0.08700
C 	C 	0.65260 0.83000 0.39590 -0.06900
C 	C 	0.22370 0.72350 0.49690 -0.07400
C 	C 	0.08210 0.38870 0.81210 -0.08500
C 	C 	0.83000 0.65260 0.89590 -0.06200
C 	C 	0.72350 0.22370 0.99690 -0.06500
C 	C 	0.61130 0.91790 0.68790 -0.06000
C 	C 	0.34740 0.17000 0.60410 -0.08600
C 	C 	0.77630 0.27650 0.50310 -0.06200
S 	S 	0.15870 0.60030 0.12997 -0.31100
S 	S 	0.22278 0.50842 0.96591 -0.28000
S 	S 	0.92268 0.36432 0.12767 -0.32200
S 	S 	0.01355 0.72905 0.03523 -0.38100
S 	S 	0.39970 0.84130 0.37003 -0.28800
S 	S 	0.49158 0.77722 0.53409 -0.34000
S 	S 	0.63568 0.07732 0.37233 -0.34400
S 	S 	0.27095 0.98645 0.46477 -0.28000
S 	S 	0.84130 0.39970 0.87003 -0.29400
S 	S 	0.77722 0.49158 0.03409 -0.38400
S 	S 	0.07732 0.63568 0.87233 -0.32200
S 	S 	0.98645 0.27095 0.96477 -0.26400
S 	S 	0.60030 0.15870 0.62997 -0.31700
S 	S 	0.50842 0.22278 0.46591 -0.32300
S 	S 	0.36432 0.92268 0.62767 -0.29900
S 	S 	0.72905 0.01355 0.53523 -0.36800
N 	N 	0.88210 0.64230 0.23570 -0.33500
N 	N 	0.21940 0.30220 0.13380 -0.35100
N 	N 	0.35450 0.85430 0.00590 -0.34100
N 	N 	0.35770 0.11790 0.26430 -0.35100
N 	N 	0.69780 0.78060 0.36620 -0.33400
N 	N 	0.14570 0.64550 0.49410 -0.35100
N 	N 	0.11790 0.35770 0.76430 -0.34700
N 	N 	0.78060 0.69780 0.86620 -0.33000
N 	N 	0.64550 0.14570 0.99410 -0.33900
N 	N 	0.64230 0.88210 0.73570 -0.33100
N 	N 	0.30220 0.21940 0.63380 -0.34700
N 	N 	0.85430 0.35450 0.50590 -0.33600
