data_crystal

_cell_length_a 13.18880
_cell_length_b 13.18880
_cell_length_c 18.28600
_cell_angle_alpha 92.73210
_cell_angle_beta  92.73210
_cell_angle_gamma 112.78100

_symmetry_space_group_name_	'P 1'
_symmetry_space_group_name_H-M	'P 1'

loop_
_symmetry_equiv_pos_as_xyz
  x,y,z

loop_
_atom_site_label
_atom_site_type_symbol
_atom_site_fract_x
_atom_site_fract_y
_atom_site_fract_z
_atom_site_charge
Fe	Fe	0.21521 0.29533 0.69598 0.93200
Fe	Fe	0.70467 0.78479 0.80402 0.95200
Fe	Fe	0.78479 0.70467 0.30402 0.94800
Fe	Fe	0.29533 0.21521 0.19598 0.92700
Fe	Fe	0.50000 0.00000 -0.00000 0.90900
Fe	Fe	-0.00000 0.50000 0.50000 0.92600
W 	W 	0.03780 0.45066 0.91031 0.26100
W 	W 	0.91851 0.56731 0.94759 0.38200
W 	W 	0.12740 0.63184 0.00214 0.25800
W 	W 	0.54934 0.96220 0.58969 0.34500
W 	W 	0.43269 0.08149 0.55241 0.25400
W 	W 	0.36816 0.87260 0.49786 0.31000
W 	W 	0.96220 0.54934 0.08969 0.33200
W 	W 	0.08149 0.43269 0.05241 0.21900
W 	W 	0.87260 0.36816 0.99786 0.35100
W 	W 	0.45066 0.03780 0.41031 0.24900
W 	W 	0.56731 0.91851 0.44759 0.34900
W 	W 	0.63184 0.12740 0.50214 0.29500
C 	C 	0.08940 0.39060 0.81150 -0.07200
C 	C 	0.82610 0.64890 0.89220 -0.04600
C 	C 	0.27220 0.78320 0.00470 -0.06300
C 	C 	0.60940 0.91060 0.68850 -0.05200
C 	C 	0.35110 0.17390 0.60780 -0.06700
C 	C 	0.21680 0.72780 0.49530 -0.06700
C 	C 	0.91060 0.60940 0.18850 -0.05300
C 	C 	0.17390 0.35110 0.10780 -0.07300
C 	C 	0.72780 0.21680 0.99530 -0.05900
C 	C 	0.39060 0.08940 0.31150 -0.07400
C 	C 	0.64890 0.82610 0.39220 -0.05100
C 	C 	0.78320 0.27220 0.50470 -0.05600
S 	S 	0.07610 0.63650 0.87140 -0.30200
S 	S 	0.84220 0.39600 0.86750 -0.27500
S 	S 	0.22590 0.51510 0.96810 -0.26600
S 	S 	0.00803 0.72757 0.03520 -0.35400
S 	S 	0.36350 0.92390 0.62860 -0.28100
S 	S 	0.60400 0.15780 0.63250 -0.29400
S 	S 	0.48490 0.77410 0.53190 -0.31900
S 	S 	0.27243 0.99197 0.46480 -0.26600
S 	S 	0.92390 0.36350 0.12860 -0.30100
S 	S 	0.15780 0.60400 0.13250 -0.28900
S 	S 	0.77410 0.48490 0.03190 -0.35700
S 	S 	0.99197 0.27243 0.96480 -0.25100
S 	S 	0.63650 0.07610 0.37140 -0.32000
S 	S 	0.39600 0.84220 0.36750 -0.27000
S 	S 	0.51510 0.22590 0.46810 -0.30400
S 	S 	0.72757 0.00803 0.53520 -0.34300
N 	N 	0.12210 0.35770 0.76210 -0.31300
N 	N 	0.77350 0.68970 0.86440 -0.29700
N 	N 	0.35160 0.86280 0.00550 -0.30400
N 	N 	0.64230 0.87790 0.73790 -0.30000
N 	N 	0.31030 0.22650 0.63560 -0.31000
N 	N 	0.13720 0.64840 0.49450 -0.31400
N 	N 	0.87790 0.64230 0.23790 -0.30300
N 	N 	0.22650 0.31030 0.13560 -0.31300
N 	N 	0.64840 0.13720 0.99450 -0.30200
N 	N 	0.35770 0.12210 0.26210 -0.31600
N 	N 	0.68970 0.77350 0.36440 -0.30100
N 	N 	0.86280 0.35160 0.50550 -0.30100
