data_crystal

_cell_length_a 10.68500
_cell_length_b 11.82100
_cell_length_c 36.62500
_cell_angle_alpha 90.00000
_cell_angle_beta  90.00000
_cell_angle_gamma 90.00000

_symmetry_space_group_name_	'P 1'
_symmetry_space_group_name_H-M	'P 1'

loop_
_symmetry_equiv_pos_as_xyz
  x,y,z

loop_
_atom_site_label
_atom_site_type_symbol
_atom_site_fract_x
_atom_site_fract_y
_atom_site_fract_z
_atom_site_charge
Ag	Ag	0.40318 0.43974 0.70989 0.55300
Ag	Ag	0.36050 0.86199 0.55654 0.54600
C 	C 	0.64480 0.27810 0.57820 -0.01900
N 	N 	0.62990 0.31450 0.61550 -0.09500
N 	N 	0.72240 0.29770 0.64080 -0.14500
C 	C 	0.67290 0.33890 0.67030 0.09400
N 	N 	0.55630 0.38170 0.66690 -0.18100
C 	C 	0.53320 0.36470 0.63160 0.08400
N 	N 	0.61200 0.15790 0.57470 -0.09700
N 	N 	0.69240 0.07740 0.58650 -0.11000
C 	C 	0.63150 0.98380 0.57970 0.07900
N 	N 	0.51180 0.99970 0.56520 -0.18600
C 	C 	0.50900 0.10990 0.56260 0.09600
C 	C 	0.15340 0.58780 0.67380 -0.00400
N 	N 	0.12730 0.46880 0.66950 -0.09800
N 	N 	0.21630 0.39110 0.67800 -0.13600
C 	C 	0.15890 0.29540 0.67070 0.09500
N 	N 	0.04150 0.30760 0.65800 -0.18800
C 	C 	0.02370 0.41690 0.65830 0.09700
N 	N 	0.23450 0.63210 0.64560 -0.09700
N 	N 	0.35620 0.59670 0.64340 -0.11300
C 	C 	0.39800 0.65730 0.61650 0.10200
N 	N 	0.31730 0.72750 0.60150 -0.18900
C 	C 	0.21290 0.70960 0.61990 0.08800
H 	H 	0.59136 0.32146 0.56284 0.04000
H 	H 	0.72909 0.28836 0.57092 0.03900
H 	H 	0.71670 0.33924 0.69301 -0.01400
H 	H 	0.45753 0.38589 0.61976 0.00700
H 	H 	0.66523 0.91057 0.58444 0.00100
H 	H 	0.43975 0.15075 0.55300 -0.00200
H 	H 	0.07584 0.62968 0.67371 0.03500
H 	H 	0.19193 0.60043 0.69733 0.03000
H 	H 	0.19692 0.22393 0.67425 -0.00900
H 	H 	0.94756 0.45354 0.65154 -0.00700
H 	H 	0.48181 0.64995 0.60812 -0.00700
H 	H 	0.13518 0.74628 0.61582 0.00100
Ag	Ag	0.39405 0.32945 0.35967 0.54700
C 	C 	0.28150 0.72850 0.27930 -0.01900
N 	N 	0.15760 0.77330 0.27330 -0.09300
N 	N 	0.09070 0.74680 0.24290 -0.13600
C 	C 	0.99820 0.81810 0.24410 0.09300
N 	N 	0.00180 0.89040 0.27260 -0.18200
C 	C 	0.10140 0.86010 0.29060 0.08300
N 	N 	0.28150 0.61050 0.28950 -0.09600
N 	N 	0.25650 0.52980 0.26380 -0.12600
C 	C 	0.28090 0.43710 0.28250 0.08600
N 	N 	0.31910 0.45370 0.31770 -0.18900
C 	C 	0.31980 0.56350 0.32040 0.09000
C 	C 	0.62660 0.49130 0.48960 -0.00300
N 	N 	0.60260 0.47050 0.45140 -0.09800
N 	N 	0.68970 0.49780 0.42580 -0.13600
C 	C 	0.63050 0.47520 0.39590 0.09500
N 	N 	0.51340 0.43160 0.40030 -0.19100
C 	C 	0.49780 0.43190 0.43470 0.09500
N 	N 	0.59420 0.60450 0.49870 -0.09800
N 	N 	0.66530 0.69280 0.48700 -0.12600
C 	C 	0.60790 0.78230 0.50060 0.09000
N 	N 	0.50190 0.75640 0.51920 -0.18100
C 	C 	0.49700 0.64550 0.51750 0.08700
H 	H 	0.32800 0.73644 0.25712 0.04600
H 	H 	0.32033 0.77086 0.29793 0.04000
H 	H 	0.93357 0.81941 0.22626 -0.00600
H 	H 	0.12961 0.89432 0.31284 0.00100
H 	H 	0.27219 0.36335 0.27230 -0.00800
H 	H 	0.34466 0.60322 0.34182 -0.00400
H 	H 	0.57955 0.43883 0.50449 0.03400
H 	H 	0.71422 0.47802 0.49496 0.02700
H 	H 	0.66610 0.48864 0.37260 -0.01100
H 	H 	0.42410 0.40783 0.44702 -0.00100
H 	H 	0.63802 0.85709 0.49760 -0.00200
H 	H 	0.43331 0.59978 0.52809 -0.00200
Ag	Ag	0.89405 0.17055 0.64033 0.54600
C 	C 	0.78150 0.77150 0.72070 -0.01900
N 	N 	0.65760 0.72670 0.72670 -0.09300
N 	N 	0.59070 0.75320 0.75710 -0.13600
C 	C 	0.49820 0.68190 0.75590 0.09300
N 	N 	0.50180 0.60960 0.72740 -0.18200
C 	C 	0.60140 0.63990 0.70940 0.08200
N 	N 	0.78150 0.88950 0.71050 -0.09600
N 	N 	0.75650 0.97020 0.73620 -0.12700
C 	C 	0.78090 0.06290 0.71750 0.08700
N 	N 	0.81910 0.04630 0.68230 -0.18900
C 	C 	0.81980 0.93650 0.67960 0.08800
C 	C 	0.12660 0.00870 0.51040 -0.00500
N 	N 	0.10260 0.02950 0.54860 -0.09400
N 	N 	0.18970 0.00220 0.57420 -0.13500
C 	C 	0.13050 0.02480 0.60410 0.09600
N 	N 	0.01340 0.06840 0.59970 -0.18600
C 	C 	0.99780 0.06810 0.56530 0.08300
N 	N 	0.09420 0.89550 0.50130 -0.09300
N 	N 	0.16530 0.80720 0.51300 -0.12500
C 	C 	0.10790 0.71770 0.49940 0.09100
N 	N 	0.00190 0.74360 0.48080 -0.17500
C 	C 	0.99700 0.85450 0.48250 0.07400
H 	H 	0.82800 0.76356 0.74288 0.04600
H 	H 	0.82033 0.72914 0.70207 0.04000
H 	H 	0.43357 0.68059 0.77374 -0.00700
H 	H 	0.62961 0.60568 0.68716 0.00100
H 	H 	0.77219 0.13665 0.72770 -0.00800
H 	H 	0.84466 0.89678 0.65818 -0.00500
H 	H 	0.07955 0.06117 0.49551 0.03700
H 	H 	0.21422 0.02198 0.50504 0.02800
H 	H 	0.16610 0.01136 0.62740 -0.01000
H 	H 	0.92410 0.09217 0.55298 0.00200
H 	H 	0.13802 0.64291 0.50240 -0.00100
H 	H 	0.93331 0.90022 0.47191 0.00100
Ag	Ag	0.90318 0.06026 0.29011 0.55300
Ag	Ag	0.86050 0.63801 0.44346 0.54500
C 	C 	0.14480 0.22190 0.42180 -0.01700
N 	N 	0.12990 0.18550 0.38450 -0.09500
N 	N 	0.22240 0.20230 0.35920 -0.14500
C 	C 	0.17290 0.16110 0.32970 0.09400
N 	N 	0.05630 0.11830 0.33310 -0.18100
C 	C 	0.03320 0.13530 0.36840 0.09200
N 	N 	0.11200 0.34210 0.42530 -0.09900
N 	N 	0.19240 0.42260 0.41350 -0.11000
C 	C 	0.13150 0.51620 0.42030 0.08000
N 	N 	0.01180 0.50030 0.43480 -0.18500
C 	C 	0.00900 0.39010 0.43740 0.10500
C 	C 	0.65340 0.91220 0.32620 -0.00300
N 	N 	0.62730 0.03120 0.33050 -0.09700
N 	N 	0.71630 0.10890 0.32200 -0.13700
C 	C 	0.65890 0.20460 0.32930 0.09400
N 	N 	0.54150 0.19240 0.34200 -0.18800
C 	C 	0.52370 0.08310 0.34170 0.09000
N 	N 	0.73450 0.86790 0.35440 -0.09700
N 	N 	0.85620 0.90330 0.35660 -0.11300
C 	C 	0.89800 0.84270 0.38350 0.10200
N 	N 	0.81730 0.77250 0.39850 -0.18900
C 	C 	0.71290 0.79040 0.38010 0.08800
H 	H 	0.09136 0.17854 0.43716 0.04100
H 	H 	0.22909 0.21164 0.42908 0.03900
H 	H 	0.21670 0.16076 0.30699 -0.01400
H 	H 	0.95753 0.11411 0.38024 0.00100
H 	H 	0.16523 0.58943 0.41556 0.00200
H 	H 	0.93975 0.34925 0.44700 -0.01000
H 	H 	0.57584 0.87032 0.32629 0.03500
H 	H 	0.69193 0.89957 0.30267 0.03100
H 	H 	0.69692 0.27607 0.32575 -0.00900
H 	H 	0.44756 0.04646 0.34846 -0.00300
H 	H 	0.98181 0.85005 0.39188 -0.00800
H 	H 	0.63518 0.75372 0.38418 -0.00000
Ag	Ag	0.10595 0.67055 0.85967 0.54600
C 	C 	0.21850 0.27150 0.77930 -0.01900
N 	N 	0.34240 0.22670 0.77330 -0.09300
N 	N 	0.40930 0.25320 0.74290 -0.13600
C 	C 	0.50180 0.18190 0.74410 0.09400
N 	N 	0.49820 0.10960 0.77260 -0.18200
C 	C 	0.39860 0.13990 0.79060 0.08200
N 	N 	0.21850 0.38950 0.78950 -0.09600
N 	N 	0.24350 0.47020 0.76380 -0.12600
C 	C 	0.21910 0.56290 0.78250 0.08500
N 	N 	0.18090 0.54630 0.81770 -0.18900
C 	C 	0.18020 0.43650 0.82040 0.09000
C 	C 	0.87340 0.50870 0.98960 -0.00600
N 	N 	0.89740 0.52950 0.95140 -0.09300
N 	N 	0.81030 0.50220 0.92580 -0.13500
C 	C 	0.86950 0.52480 0.89590 0.09500
N 	N 	0.98660 0.56840 0.90030 -0.18600
C 	C 	0.00220 0.56810 0.93470 0.08200
N 	N 	0.90580 0.39550 0.99870 -0.09300
N 	N 	0.83470 0.30720 0.98700 -0.12500
C 	C 	0.89210 0.21770 0.00060 0.09100
N 	N 	0.99810 0.24360 0.01920 -0.17500
C 	C 	0.00300 0.35450 0.01750 0.07400
H 	H 	0.17200 0.26356 0.75712 0.04600
H 	H 	0.17967 0.22914 0.79793 0.04000
H 	H 	0.56643 0.18059 0.72626 -0.00600
H 	H 	0.37039 0.10568 0.81284 0.00100
H 	H 	0.22781 0.63665 0.77230 -0.00800
H 	H 	0.15534 0.39678 0.84182 -0.00500
H 	H 	0.92045 0.56117 0.00449 0.03700
H 	H 	0.78578 0.52198 0.99496 0.02900
H 	H 	0.83390 0.51136 0.87260 -0.01000
H 	H 	0.07590 0.59217 0.94702 0.00200
H 	H 	0.86198 0.14291 0.99760 -0.00100
H 	H 	0.06669 0.40022 0.02809 0.00100
Ag	Ag	0.09682 0.56026 0.20989 0.55300
Ag	Ag	0.13950 0.13801 0.05654 0.54400
C 	C 	0.85520 0.72190 0.07820 -0.01700
N 	N 	0.87010 0.68550 0.11550 -0.09500
N 	N 	0.77760 0.70230 0.14080 -0.14500
C 	C 	0.82710 0.66110 0.17030 0.09400
N 	N 	0.94370 0.61830 0.16690 -0.18100
C 	C 	0.96680 0.63530 0.13160 0.09200
N 	N 	0.88800 0.84210 0.07470 -0.09900
N 	N 	0.80760 0.92260 0.08650 -0.11000
C 	C 	0.86850 0.01620 0.07970 0.07900
N 	N 	0.98820 0.00030 0.06520 -0.18600
C 	C 	0.99100 0.89010 0.06260 0.10700
C 	C 	0.34660 0.41220 0.17380 -0.00400
N 	N 	0.37270 0.53120 0.16950 -0.09700
N 	N 	0.28370 0.60890 0.17800 -0.13700
C 	C 	0.34110 0.70460 0.17070 0.09400
N 	N 	0.45850 0.69240 0.15800 -0.18800
C 	C 	0.47630 0.58310 0.15830 0.09000
N 	N 	0.26550 0.36790 0.14560 -0.09700
N 	N 	0.14380 0.40330 0.14340 -0.11300
C 	C 	0.10200 0.34270 0.11650 0.10200
N 	N 	0.18270 0.27250 0.10150 -0.18900
C 	C 	0.28710 0.29040 0.11990 0.08700
H 	H 	0.90864 0.67854 0.06284 0.04100
H 	H 	0.77091 0.71164 0.07092 0.03900
H 	H 	0.78330 0.66076 0.19301 -0.01300
H 	H 	0.04247 0.61411 0.11976 0.00100
H 	H 	0.83477 0.08943 0.08444 0.00200
H 	H 	0.06025 0.84925 0.05300 -0.01000
H 	H 	0.42416 0.37032 0.17371 0.03500
H 	H 	0.30807 0.39957 0.19733 0.03100
H 	H 	0.30308 0.77607 0.17425 -0.00900
H 	H 	0.55244 0.54646 0.15154 -0.00200
H 	H 	0.01819 0.35005 0.10812 -0.00900
H 	H 	0.36482 0.25372 0.11582 -0.00000
Ag	Ag	0.59682 0.93974 0.79011 0.55400
Ag	Ag	0.63950 0.36199 0.94346 0.54700
C 	C 	0.35520 0.77810 0.92180 -0.01800
N 	N 	0.37010 0.81450 0.88450 -0.09400
N 	N 	0.27760 0.79770 0.85920 -0.14500
C 	C 	0.32710 0.83890 0.82970 0.09400
N 	N 	0.44370 0.88170 0.83310 -0.18100
C 	C 	0.46680 0.86470 0.86840 0.08400
N 	N 	0.38800 0.65790 0.92530 -0.09700
N 	N 	0.30760 0.57740 0.91350 -0.11100
C 	C 	0.36850 0.48380 0.92030 0.08000
N 	N 	0.48820 0.49970 0.93480 -0.18500
C 	C 	0.49100 0.60990 0.93740 0.09400
C 	C 	0.84660 0.08780 0.82620 -0.00300
N 	N 	0.87270 0.96880 0.83050 -0.09800
N 	N 	0.78370 0.89110 0.82200 -0.13700
C 	C 	0.84110 0.79540 0.82930 0.09500
N 	N 	0.95850 0.80760 0.84200 -0.18800
C 	C 	0.97630 0.91690 0.84170 0.09700
N 	N 	0.76550 0.13210 0.85440 -0.09700
N 	N 	0.64380 0.09670 0.85660 -0.11300
C 	C 	0.60200 0.15730 0.88350 0.10200
N 	N 	0.68270 0.22750 0.89850 -0.18900
C 	C 	0.78710 0.20960 0.88010 0.08800
H 	H 	0.40864 0.82146 0.93716 0.04000
H 	H 	0.27091 0.78836 0.92908 0.03900
H 	H 	0.28330 0.83924 0.80699 -0.01400
H 	H 	0.54247 0.88589 0.88024 0.00700
H 	H 	0.33477 0.41057 0.91556 0.00100
H 	H 	0.56025 0.65075 0.94700 -0.00200
H 	H 	0.92416 0.12968 0.82629 0.03500
H 	H 	0.80807 0.10043 0.80267 0.03100
H 	H 	0.80308 0.72393 0.82575 -0.00900
H 	H 	0.05244 0.95354 0.84846 -0.00700
H 	H 	0.51819 0.14995 0.89188 -0.00700
H 	H 	0.86482 0.24628 0.88418 0.00100
Ag	Ag	0.60595 0.82945 0.14033 0.54700
C 	C 	0.71850 0.22850 0.22070 -0.01900
N 	N 	0.84240 0.27330 0.22670 -0.09300
N 	N 	0.90930 0.24680 0.25710 -0.13600
C 	C 	0.00180 0.31810 0.25590 0.09300
N 	N 	0.99820 0.39040 0.22740 -0.18200
C 	C 	0.89860 0.36010 0.20940 0.08300
N 	N 	0.71850 0.11050 0.21050 -0.09600
N 	N 	0.74350 0.02980 0.23620 -0.12700
C 	C 	0.71910 0.93710 0.21750 0.08700
N 	N 	0.68090 0.95370 0.18230 -0.18800
C 	C 	0.68020 0.06350 0.17960 0.08900
C 	C 	0.37340 0.99130 0.01040 -0.00200
N 	N 	0.39740 0.97050 0.04860 -0.09800
N 	N 	0.31030 0.99780 0.07420 -0.13600
C 	C 	0.36950 0.97520 0.10410 0.09500
N 	N 	0.48660 0.93160 0.09970 -0.19100
C 	C 	0.50220 0.93190 0.06530 0.09500
N 	N 	0.40580 0.10450 0.00130 -0.09800
N 	N 	0.33470 0.19280 0.01300 -0.12600
C 	C 	0.39210 0.28230 0.99940 0.09000
N 	N 	0.49810 0.25640 0.98080 -0.18100
C 	C 	0.50300 0.14550 0.98250 0.08700
H 	H 	0.67200 0.23644 0.24288 0.04600
H 	H 	0.67967 0.27086 0.20207 0.04000
H 	H 	0.06643 0.31941 0.27374 -0.00600
H 	H 	0.87039 0.39432 0.18716 0.00100
H 	H 	0.72781 0.86335 0.22770 -0.00800
H 	H 	0.65534 0.10322 0.15818 -0.00400
H 	H 	0.42045 0.93883 0.99551 0.03400
H 	H 	0.28578 0.97802 0.00504 0.02700
H 	H 	0.33390 0.98864 0.12740 -0.01000
H 	H 	0.57590 0.90783 0.05298 -0.00100
H 	H 	0.36198 0.35709 0.00240 -0.00200
H 	H 	0.56669 0.09978 0.97191 -0.00200
