data_crystal

_cell_length_a 29.72600
_cell_length_b 9.57360
_cell_length_c 24.75700
_cell_angle_alpha 90.00000
_cell_angle_beta  125.28900
_cell_angle_gamma 90.00000

_symmetry_space_group_name_	'P 1'
_symmetry_space_group_name_H-M	'P 1'

loop_
_symmetry_equiv_pos_as_xyz
  x,y,z

loop_
_atom_site_label
_atom_site_type_symbol
_atom_site_fract_x
_atom_site_fract_y
_atom_site_fract_z
_atom_site_charge
O 	O 	0.79190 0.90131 0.49607 -0.22300
C 	C 	0.82294 0.12210 0.49450 1.04100
F 	F 	0.86235 0.08970 0.54870 -0.47900
F 	F 	0.83237 0.11040 0.44740 -0.38600
F 	F 	0.80320 0.24890 0.48870 -0.44500
C 	C 	0.77558 0.02070 0.47111 -0.04800
C 	C 	0.72253 0.06880 0.42646 0.04000
H 	H 	0.71730 0.16330 0.41230 0.10300
C 	C 	0.67627 0.98400 0.40135 -0.02000
C 	C 	0.61945 0.05060 0.35523 0.86700
F 	F 	0.62017 0.17862 0.33538 -0.47500
F 	F 	0.58780 0.97359 0.30101 -0.51700
F 	F 	0.59397 0.05730 0.38524 -0.47000
O 	O 	0.67499 0.85822 0.41213 -0.21300
O 	O 	0.76640 0.61727 0.45141 -0.20200
N 	N 	0.75658 0.64500 0.39411 -0.11000
C 	C 	0.70909 0.58050 0.33178 0.31700
C 	C 	0.72542 0.42900 0.33319 -0.73000
H 	H 	0.72440 0.37750 0.36670 0.30900
H 	H 	0.69960 0.38650 0.28970 0.26200
H 	H 	0.76280 0.42560 0.34410 0.27200
C 	C 	0.65676 0.58760 0.32872 -0.75900
H 	H 	0.66040 0.52720 0.36300 0.31400
H 	H 	0.65050 0.68410 0.33600 0.27500
H 	H 	0.62550 0.55600 0.28510 0.26200
C 	C 	0.70950 0.67140 0.28027 0.23100
C 	C 	0.67922 0.80960 0.26573 -0.61000
H 	H 	0.68090 0.86180 0.23290 0.21700
H 	H 	0.64060 0.79160 0.24840 0.21400
H 	H 	0.69660 0.86440 0.30660 0.23000
C 	C 	0.69198 0.59730 0.21695 -0.64300
H 	H 	0.69350 0.66260 0.18760 0.25400
H 	H 	0.71680 0.51860 0.22730 0.23500
H 	H 	0.65420 0.56260 0.19490 0.22700
N 	N 	0.76955 0.70700 0.31968 -0.10400
O 	O 	0.79289 0.75244 0.29362 -0.14400
C 	C 	0.79298 0.70160 0.38540 0.11400
C 	C 	0.84718 0.74760 0.43614 -0.00700
C 	C 	0.88427 0.82590 0.43035 0.06900
H 	H 	0.87720 0.85590 0.38950 0.04500
N 	N 	0.93004 0.85250 0.48868 -0.05200
N 	N 	0.92272 0.79080 0.53288 -0.04600
C 	C 	0.95970 0.82740 0.61060 -0.25900
H 	H 	0.94230 0.78890 0.63150 0.20300
H 	H 	0.96280 0.92990 0.61690 0.15500
C 	C 	0.01593 0.76430 0.64180 0.39100
H 	H 	0.03900 0.78600 0.68970 -0.09300
H 	H 	0.03360 0.80750 0.62210 -0.06500
C 	C 	0.01405 0.60850 0.63280 -1.15700
H 	H 	0.05170 0.57220 0.65560 0.40300
H 	H 	0.99590 0.56520 0.65140 0.41500
H 	H 	0.99330 0.58650 0.58560 0.37100
C 	C 	0.87426 0.72760 0.50329 0.03200
H 	H 	0.86070 0.67790 0.52440 0.07500
F 	F 	0.85690 0.13830 0.56500 -0.06900
F 	F 	0.86307 0.08240 0.48670 -0.23000
F 	F 	0.81370 0.25670 0.47650 -0.07700
C 	C 	0.53160 0.72560 0.40310 -0.03600
H 	H 	0.52390 0.82570 0.39110 0.21000
H 	H 	0.49880 0.68180 0.39690 -0.00600
C 	C 	0.54740 0.65210 0.36230 -0.06900
H 	H 	0.55290 0.55130 0.37340 0.06300
H 	H 	0.58250 0.69090 0.37280 -0.00800
C 	C 	0.50220 0.67080 0.28860 -0.51300
H 	H 	0.51370 0.62670 0.26260 0.18200
H 	H 	0.49590 0.77070 0.27810 0.20500
H 	H 	0.46810 0.62710 0.27770 0.18400
O 	O 	0.20810 0.90131 0.00393 -0.23600
C 	C 	0.17706 0.12210 0.00550 1.00900
F 	F 	0.13765 0.08970 0.95130 -0.44800
F 	F 	0.16763 0.11040 0.05260 -0.37900
F 	F 	0.19680 0.24890 0.01130 -0.45800
C 	C 	0.22442 0.02070 0.02889 -0.04200
C 	C 	0.27747 0.06880 0.07354 0.02800
H 	H 	0.28270 0.16330 0.08770 0.10400
C 	C 	0.32373 0.98400 0.09865 -0.01700
C 	C 	0.38055 0.05060 0.14477 0.86500
F 	F 	0.37983 0.17862 0.16462 -0.47600
F 	F 	0.41220 0.97359 0.19899 -0.51600
F 	F 	0.40603 0.05730 0.11476 -0.47400
O 	O 	0.32501 0.85822 0.08787 -0.21800
O 	O 	0.23360 0.61727 0.04859 -0.21300
N 	N 	0.24342 0.64500 0.10589 -0.11200
C 	C 	0.29091 0.58050 0.16822 0.31300
C 	C 	0.27458 0.42900 0.16681 -0.72400
H 	H 	0.27560 0.37750 0.13330 0.30500
H 	H 	0.30040 0.38650 0.21030 0.26100
H 	H 	0.23720 0.42560 0.15590 0.26800
C 	C 	0.34324 0.58760 0.17128 -0.75300
H 	H 	0.33960 0.52720 0.13700 0.31000
H 	H 	0.34950 0.68410 0.16400 0.27300
H 	H 	0.37450 0.55600 0.21490 0.26100
C 	C 	0.29050 0.67140 0.21973 0.23400
C 	C 	0.32078 0.80960 0.23427 -0.61400
H 	H 	0.31910 0.86180 0.26710 0.21900
H 	H 	0.35940 0.79160 0.25160 0.21600
H 	H 	0.30340 0.86440 0.19340 0.23100
C 	C 	0.30802 0.59730 0.28305 -0.64800
H 	H 	0.30650 0.66260 0.31240 0.25600
H 	H 	0.28320 0.51860 0.27270 0.23600
H 	H 	0.34580 0.56260 0.30510 0.23000
N 	N 	0.23045 0.70700 0.18032 -0.10700
O 	O 	0.20711 0.75244 0.20638 -0.14300
C 	C 	0.20702 0.70160 0.11460 0.12500
C 	C 	0.15282 0.74760 0.06386 -0.04700
C 	C 	0.11573 0.82590 0.06965 0.08000
H 	H 	0.12280 0.85590 0.11050 0.04000
N 	N 	0.06996 0.85250 0.01132 -0.06900
N 	N 	0.07728 0.79080 0.96712 -0.04200
C 	C 	0.04030 0.82740 0.88940 -0.25900
H 	H 	0.05770 0.78890 0.86850 0.20100
H 	H 	0.03720 0.92990 0.88310 0.15700
C 	C 	0.98407 0.76430 0.85820 0.39300
H 	H 	0.96100 0.78600 0.81030 -0.09400
H 	H 	0.96640 0.80750 0.87790 -0.06300
C 	C 	0.98595 0.60850 0.86720 -1.17100
H 	H 	0.94830 0.57220 0.84440 0.40900
H 	H 	0.00410 0.56520 0.84860 0.42000
H 	H 	0.00670 0.58650 0.91440 0.38000
C 	C 	0.12574 0.72760 0.99671 0.08000
H 	H 	0.13930 0.67790 0.97560 0.06800
F 	F 	0.14310 0.13830 0.93500 -0.07000
F 	F 	0.13693 0.08240 0.01330 -0.24200
F 	F 	0.18630 0.25670 0.02350 -0.07000
C 	C 	0.46840 0.72560 0.09690 -0.03600
H 	H 	0.47610 0.82570 0.10890 0.20800
H 	H 	0.50120 0.68180 0.10310 -0.01000
C 	C 	0.45260 0.65210 0.13770 -0.07000
H 	H 	0.44710 0.55130 0.12660 0.06200
H 	H 	0.41750 0.69090 0.12720 -0.01000
C 	C 	0.49780 0.67080 0.21140 -0.51300
H 	H 	0.48630 0.62670 0.23740 0.18200
H 	H 	0.50410 0.77070 0.22190 0.20500
H 	H 	0.53190 0.62710 0.22230 0.18300
O 	O 	0.70810 0.59869 0.50393 -0.22100
C 	C 	0.67706 0.37790 0.50550 1.04200
F 	F 	0.63765 0.41030 0.45130 -0.47800
F 	F 	0.66763 0.38960 0.55260 -0.38500
F 	F 	0.69680 0.25110 0.51130 -0.44500
C 	C 	0.72442 0.47930 0.52889 -0.04800
C 	C 	0.77747 0.43120 0.57354 0.04000
H 	H 	0.78270 0.33670 0.58770 0.10300
C 	C 	0.82373 0.51600 0.59865 -0.02100
C 	C 	0.88055 0.44940 0.64477 0.86800
F 	F 	0.87983 0.32138 0.66462 -0.47400
F 	F 	0.91220 0.52641 0.69899 -0.51700
F 	F 	0.90603 0.44270 0.61476 -0.46900
O 	O 	0.82501 0.64178 0.58787 -0.21200
O 	O 	0.73360 0.88273 0.54859 -0.20200
N 	N 	0.74342 0.85500 0.60589 -0.11000
C 	C 	0.79091 0.91950 0.66822 0.31500
C 	C 	0.77458 0.07100 0.66681 -0.72800
H 	H 	0.77560 0.12250 0.63330 0.30800
H 	H 	0.80040 0.11350 0.71030 0.26300
H 	H 	0.73720 0.07440 0.65590 0.27100
C 	C 	0.84324 0.91240 0.67128 -0.75700
H 	H 	0.83960 0.97280 0.63700 0.31300
H 	H 	0.84950 0.81590 0.66400 0.27400
H 	H 	0.87450 0.94400 0.71490 0.26200
C 	C 	0.79050 0.82860 0.71973 0.23400
C 	C 	0.82078 0.69040 0.73427 -0.61400
H 	H 	0.81910 0.63820 0.76710 0.22000
H 	H 	0.85940 0.70840 0.75160 0.21600
H 	H 	0.80340 0.63560 0.69340 0.23100
C 	C 	0.80802 0.90270 0.78305 -0.64800
H 	H 	0.80650 0.83740 0.81240 0.25700
H 	H 	0.78320 0.98140 0.77270 0.23600
H 	H 	0.84580 0.93740 0.80510 0.23000
N 	N 	0.73045 0.79300 0.68032 -0.10500
O 	O 	0.70711 0.74756 0.70638 -0.14400
C 	C 	0.70702 0.79840 0.61460 0.11400
C 	C 	0.65282 0.75240 0.56386 -0.00700
C 	C 	0.61573 0.67410 0.56965 0.06900
H 	H 	0.62280 0.64410 0.61050 0.04500
N 	N 	0.56996 0.64750 0.51132 -0.05200
N 	N 	0.57728 0.70920 0.46712 -0.04600
C 	C 	0.54030 0.67260 0.38940 -0.26000
H 	H 	0.55770 0.71110 0.36850 0.20300
H 	H 	0.53720 0.57010 0.38310 0.15600
C 	C 	0.48407 0.73570 0.35820 0.39500
H 	H 	0.46100 0.71400 0.31030 -0.09400
H 	H 	0.46640 0.69250 0.37790 -0.06500
C 	C 	0.48595 0.89150 0.36720 -1.16600
H 	H 	0.44830 0.92780 0.34440 0.40500
H 	H 	0.50410 0.93480 0.34860 0.41800
H 	H 	0.50670 0.91350 0.41440 0.37400
C 	C 	0.62574 0.77240 0.49671 0.03100
H 	H 	0.63930 0.82210 0.47560 0.07500
F 	F 	0.64310 0.36170 0.43500 -0.07000
F 	F 	0.63693 0.41760 0.51330 -0.23000
F 	F 	0.68630 0.24330 0.52350 -0.07700
C 	C 	0.96840 0.77440 0.59690 -0.03500
H 	H 	0.97610 0.67430 0.60890 0.20900
H 	H 	0.00120 0.81820 0.60310 -0.00500
C 	C 	0.95260 0.84790 0.63770 -0.06900
H 	H 	0.94710 0.94870 0.62660 0.06300
H 	H 	0.91750 0.80910 0.62720 -0.00800
C 	C 	0.99780 0.82920 0.71140 -0.51400
H 	H 	0.98630 0.87330 0.73740 0.18200
H 	H 	0.00410 0.72930 0.72190 0.20600
H 	H 	0.03190 0.87290 0.72230 0.18400
O 	O 	0.29190 0.59869 0.99607 -0.20000
C 	C 	0.32294 0.37790 0.99450 1.07500
F 	F 	0.36235 0.41030 0.04870 -0.50700
F 	F 	0.33237 0.38960 0.94740 -0.39200
F 	F 	0.30320 0.25110 0.98870 -0.43200
C 	C 	0.27558 0.47930 0.97111 -0.05700
C 	C 	0.22253 0.43120 0.92646 0.05200
H 	H 	0.21730 0.33670 0.91230 0.10200
C 	C 	0.17627 0.51600 0.90135 -0.02200
C 	C 	0.11945 0.44940 0.85523 0.87000
F 	F 	0.12017 0.32138 0.83538 -0.47300
F 	F 	0.08780 0.52641 0.80101 -0.51700
F 	F 	0.09397 0.44270 0.88524 -0.46500
O 	O 	0.17499 0.64178 0.91213 -0.20400
O 	O 	0.26640 0.88273 0.95141 -0.18700
N 	N 	0.25658 0.85500 0.89411 -0.10900
C 	C 	0.20909 0.91950 0.83178 0.31800
C 	C 	0.22542 0.07100 0.83319 -0.73200
H 	H 	0.22440 0.12250 0.86670 0.31200
H 	H 	0.19960 0.11350 0.78970 0.26400
H 	H 	0.26280 0.07440 0.84410 0.27500
C 	C 	0.15676 0.91240 0.82872 -0.76200
H 	H 	0.16040 0.97280 0.86300 0.31700
H 	H 	0.15050 0.81590 0.83600 0.27600
H 	H 	0.12550 0.94400 0.78510 0.26300
C 	C 	0.20950 0.82860 0.78027 0.23100
C 	C 	0.17922 0.69040 0.76573 -0.61100
H 	H 	0.18090 0.63820 0.73290 0.21800
H 	H 	0.14060 0.70840 0.74840 0.21500
H 	H 	0.19660 0.63560 0.80660 0.23000
C 	C 	0.19198 0.90270 0.71695 -0.64500
H 	H 	0.19350 0.83740 0.68760 0.25500
H 	H 	0.21680 0.98140 0.72730 0.23500
H 	H 	0.15420 0.93740 0.69490 0.22800
N 	N 	0.26955 0.79300 0.81968 -0.10200
O 	O 	0.29289 0.74756 0.79362 -0.14400
C 	C 	0.29298 0.79840 0.88540 0.10400
C 	C 	0.34718 0.75240 0.93614 0.03400
C 	C 	0.38427 0.67410 0.93035 0.05800
H 	H 	0.37720 0.64410 0.88950 0.05100
N 	N 	0.43004 0.64750 0.98868 -0.03300
N 	N 	0.42272 0.70920 0.03288 -0.05000
C 	C 	0.45970 0.67260 0.11060 -0.26200
H 	H 	0.44230 0.71110 0.13150 0.20500
H 	H 	0.46280 0.57010 0.11690 0.15400
C 	C 	0.51593 0.73570 0.14180 0.39800
H 	H 	0.53900 0.71400 0.18970 -0.09600
H 	H 	0.53360 0.69250 0.12210 -0.06800
C 	C 	0.51405 0.89150 0.13280 -1.16200
H 	H 	0.55170 0.92780 0.15560 0.40200
H 	H 	0.49590 0.93480 0.15140 0.41600
H 	H 	0.49330 0.91350 0.08560 0.36800
C 	C 	0.37426 0.77240 0.00329 -0.01800
H 	H 	0.36070 0.82210 0.02440 0.08400
F 	F 	0.35690 0.36170 0.06500 -0.06900
F 	F 	0.36307 0.41760 0.98670 -0.21800
F 	F 	0.31370 0.24330 0.97650 -0.08400
C 	C 	0.03160 0.77440 0.90310 -0.03500
H 	H 	0.02390 0.67430 0.89110 0.21100
H 	H 	0.99880 0.81820 0.89690 -0.00300
C 	C 	0.04740 0.84790 0.86230 -0.06800
H 	H 	0.05290 0.94870 0.87340 0.06300
H 	H 	0.08250 0.80910 0.87280 -0.00700
C 	C 	0.00220 0.82920 0.78860 -0.51300
H 	H 	0.01370 0.87330 0.76260 0.18200
H 	H 	0.99590 0.72930 0.77810 0.20500
H 	H 	0.96810 0.87290 0.77770 0.18400
Cu	Cu	0.75000 0.75000 0.50000 0.94000
Cu	Cu	0.25000 0.75000 -0.00000 0.92600
O 	O 	0.29190 0.40131 0.49607 -0.22100
C 	C 	0.32294 0.62210 0.49450 1.04200
F 	F 	0.36235 0.58970 0.54870 -0.47800
F 	F 	0.33237 0.61040 0.44740 -0.38500
F 	F 	0.30320 0.74890 0.48870 -0.44500
C 	C 	0.27558 0.52070 0.47111 -0.04800
C 	C 	0.22253 0.56880 0.42646 0.04000
H 	H 	0.21730 0.66330 0.41230 0.10300
C 	C 	0.17627 0.48400 0.40135 -0.02100
C 	C 	0.11945 0.55060 0.35523 0.86800
F 	F 	0.12017 0.67862 0.33538 -0.47400
F 	F 	0.08780 0.47359 0.30101 -0.51700
F 	F 	0.09397 0.55730 0.38524 -0.47000
O 	O 	0.17499 0.35822 0.41213 -0.21200
O 	O 	0.26640 0.11727 0.45141 -0.20200
N 	N 	0.25658 0.14500 0.39411 -0.11000
C 	C 	0.20909 0.08050 0.33178 0.31500
C 	C 	0.22542 0.92900 0.33319 -0.72700
H 	H 	0.22440 0.87750 0.36670 0.30800
H 	H 	0.19960 0.88650 0.28970 0.26200
H 	H 	0.26280 0.92560 0.34410 0.27100
C 	C 	0.15676 0.08760 0.32872 -0.75700
H 	H 	0.16040 0.02720 0.36300 0.31300
H 	H 	0.15050 0.18410 0.33600 0.27400
H 	H 	0.12550 0.05600 0.28510 0.26100
C 	C 	0.20950 0.17140 0.28027 0.23100
C 	C 	0.17922 0.30960 0.26573 -0.61000
H 	H 	0.18090 0.36180 0.23290 0.21700
H 	H 	0.14060 0.29160 0.24840 0.21400
H 	H 	0.19660 0.36440 0.30660 0.23000
C 	C 	0.19198 0.09730 0.21695 -0.64200
H 	H 	0.19350 0.16260 0.18760 0.25300
H 	H 	0.21680 0.01860 0.22730 0.23400
H 	H 	0.15420 0.06260 0.19490 0.22700
N 	N 	0.26955 0.20700 0.31968 -0.10400
O 	O 	0.29289 0.25244 0.29362 -0.14400
C 	C 	0.29298 0.20160 0.38540 0.11400
C 	C 	0.34718 0.24760 0.43614 -0.00700
C 	C 	0.38427 0.32590 0.43035 0.06900
H 	H 	0.37720 0.35590 0.38950 0.04500
N 	N 	0.43004 0.35250 0.48868 -0.05200
N 	N 	0.42272 0.29080 0.53288 -0.04600
C 	C 	0.45970 0.32740 0.61060 -0.26000
H 	H 	0.44230 0.28890 0.63150 0.20300
H 	H 	0.46280 0.42990 0.61690 0.15500
C 	C 	0.51593 0.26430 0.64180 0.39500
H 	H 	0.53900 0.28600 0.68970 -0.09400
H 	H 	0.53360 0.30750 0.62210 -0.06500
C 	C 	0.51405 0.10850 0.63280 -1.16500
H 	H 	0.55170 0.07220 0.65560 0.40500
H 	H 	0.49590 0.06520 0.65140 0.41800
H 	H 	0.49330 0.08650 0.58560 0.37400
C 	C 	0.37426 0.22760 0.50329 0.03100
H 	H 	0.36070 0.17790 0.52440 0.07500
F 	F 	0.35690 0.63830 0.56500 -0.07000
F 	F 	0.36307 0.58240 0.48670 -0.23000
F 	F 	0.31370 0.75670 0.47650 -0.07700
C 	C 	0.03160 0.22560 0.40310 -0.03800
H 	H 	0.02390 0.32570 0.39110 0.21300
H 	H 	0.99880 0.18180 0.39690 -0.00800
C 	C 	0.04740 0.15210 0.36230 -0.06500
H 	H 	0.05290 0.05130 0.37340 0.06100
H 	H 	0.08250 0.19090 0.37280 -0.00800
C 	C 	0.00220 0.17080 0.28860 -0.50900
H 	H 	0.01370 0.12670 0.26260 0.18200
H 	H 	0.99590 0.27070 0.27810 0.20300
H 	H 	0.96810 0.12710 0.27770 0.18200
O 	O 	0.70810 0.40131 0.00393 -0.23900
C 	C 	0.67706 0.62210 0.00550 1.00900
F 	F 	0.63765 0.58970 0.95130 -0.44900
F 	F 	0.66763 0.61040 0.05260 -0.37900
F 	F 	0.69680 0.74890 0.01130 -0.45700
C 	C 	0.72442 0.52070 0.02889 -0.04200
C 	C 	0.77747 0.56880 0.07354 0.03000
H 	H 	0.78270 0.66330 0.08770 0.10400
C 	C 	0.82373 0.48400 0.09865 -0.02000
C 	C 	0.88055 0.55060 0.14477 0.86700
F 	F 	0.87983 0.67862 0.16462 -0.47500
F 	F 	0.91220 0.47359 0.19899 -0.51700
F 	F 	0.90603 0.55730 0.11476 -0.47300
O 	O 	0.82501 0.35822 0.08787 -0.21800
O 	O 	0.73360 0.11727 0.04859 -0.21400
N 	N 	0.74342 0.14500 0.10589 -0.11200
C 	C 	0.79091 0.08050 0.16822 0.30900
C 	C 	0.77458 0.92900 0.16681 -0.71900
H 	H 	0.77560 0.87750 0.13330 0.30400
H 	H 	0.80040 0.88650 0.21030 0.26000
H 	H 	0.73720 0.92560 0.15590 0.26700
C 	C 	0.84324 0.08760 0.17128 -0.75000
H 	H 	0.83960 0.02720 0.13700 0.30800
H 	H 	0.84950 0.18410 0.16400 0.27200
H 	H 	0.87450 0.05600 0.21490 0.25900
C 	C 	0.79050 0.17140 0.21973 0.23500
C 	C 	0.82078 0.30960 0.23427 -0.61400
H 	H 	0.81910 0.36180 0.26710 0.21900
H 	H 	0.85940 0.29160 0.25160 0.21600
H 	H 	0.80340 0.36440 0.19340 0.23100
C 	C 	0.80802 0.09730 0.28305 -0.64700
H 	H 	0.80650 0.16260 0.31240 0.25600
H 	H 	0.78320 0.01860 0.27270 0.23500
H 	H 	0.84580 0.06260 0.30510 0.22900
N 	N 	0.73045 0.20700 0.18032 -0.10700
O 	O 	0.70711 0.25244 0.20638 -0.14400
C 	C 	0.70702 0.20160 0.11460 0.12500
C 	C 	0.65282 0.24760 0.06386 -0.05200
C 	C 	0.61573 0.32590 0.06965 0.08100
H 	H 	0.62280 0.35590 0.11050 0.03900
N 	N 	0.56996 0.35250 0.01132 -0.07200
N 	N 	0.57728 0.29080 0.96712 -0.04200
C 	C 	0.54030 0.32740 0.88940 -0.25800
H 	H 	0.55770 0.28890 0.86850 0.20100
H 	H 	0.53720 0.42990 0.88310 0.15800
C 	C 	0.48407 0.26430 0.85820 0.39300
H 	H 	0.46100 0.28600 0.81030 -0.09300
H 	H 	0.46640 0.30750 0.87790 -0.06300
C 	C 	0.48595 0.10850 0.86720 -1.17200
H 	H 	0.44830 0.07220 0.84440 0.40900
H 	H 	0.50410 0.06520 0.84860 0.42000
H 	H 	0.50670 0.08650 0.91440 0.38100
C 	C 	0.62574 0.22760 0.99671 0.08600
H 	H 	0.63930 0.17790 0.97560 0.06700
F 	F 	0.64310 0.63830 0.93500 -0.07100
F 	F 	0.63693 0.58240 0.01330 -0.24200
F 	F 	0.68630 0.75670 0.02350 -0.07000
C 	C 	0.96840 0.22560 0.09690 -0.03300
H 	H 	0.97610 0.32570 0.10890 0.20400
H 	H 	0.00120 0.18180 0.10310 -0.00700
C 	C 	0.95260 0.15210 0.13770 -0.07300
H 	H 	0.94710 0.05130 0.12660 0.06400
H 	H 	0.91750 0.19090 0.12720 -0.01100
C 	C 	0.99780 0.17080 0.21140 -0.51800
H 	H 	0.98630 0.12670 0.23740 0.18200
H 	H 	0.00410 0.27070 0.22190 0.20800
H 	H 	0.03190 0.12710 0.22230 0.18500
O 	O 	0.20810 0.09869 0.50393 -0.22200
C 	C 	0.17706 0.87790 0.50550 1.04200
F 	F 	0.13765 0.91030 0.45130 -0.47800
F 	F 	0.16763 0.88960 0.55260 -0.38600
F 	F 	0.19680 0.75110 0.51130 -0.44500
C 	C 	0.22442 0.97930 0.52889 -0.04800
C 	C 	0.27747 0.93120 0.57354 0.04000
H 	H 	0.28270 0.83670 0.58770 0.10300
C 	C 	0.32373 0.01600 0.59865 -0.02000
C 	C 	0.38055 0.94940 0.64477 0.86800
F 	F 	0.37983 0.82138 0.66462 -0.47400
F 	F 	0.41220 0.02641 0.69899 -0.51600
F 	F 	0.40603 0.94270 0.61476 -0.47000
O 	O 	0.32501 0.14178 0.58787 -0.21300
O 	O 	0.23360 0.38273 0.54859 -0.20200
N 	N 	0.24342 0.35500 0.60589 -0.11000
C 	C 	0.29091 0.41950 0.66822 0.31600
C 	C 	0.27458 0.57100 0.66681 -0.73000
H 	H 	0.27560 0.62250 0.63330 0.30900
H 	H 	0.30040 0.61350 0.71030 0.26300
H 	H 	0.23720 0.57440 0.65590 0.27200
C 	C 	0.34324 0.41240 0.67128 -0.75900
H 	H 	0.33960 0.47280 0.63700 0.31400
H 	H 	0.34950 0.31590 0.66400 0.27500
H 	H 	0.37450 0.44400 0.71490 0.26300
C 	C 	0.29050 0.32860 0.71973 0.23400
C 	C 	0.32078 0.19040 0.73427 -0.61500
H 	H 	0.31910 0.13820 0.76710 0.22000
H 	H 	0.35940 0.20840 0.75160 0.21600
H 	H 	0.30340 0.13560 0.69340 0.23100
C 	C 	0.30802 0.40270 0.78305 -0.64900
H 	H 	0.30650 0.33740 0.81240 0.25800
H 	H 	0.28320 0.48140 0.77270 0.23700
H 	H 	0.34580 0.43740 0.80510 0.23100
N 	N 	0.23045 0.29300 0.68032 -0.10500
O 	O 	0.20711 0.24756 0.70638 -0.14400
C 	C 	0.20702 0.29840 0.61460 0.11400
C 	C 	0.15282 0.25240 0.56386 -0.00700
C 	C 	0.11573 0.17410 0.56965 0.06900
H 	H 	0.12280 0.14410 0.61050 0.04500
N 	N 	0.06996 0.14750 0.51132 -0.05200
N 	N 	0.07728 0.20920 0.46712 -0.04500
C 	C 	0.04030 0.17260 0.38940 -0.26200
H 	H 	0.05770 0.21110 0.36850 0.20100
H 	H 	0.03720 0.07010 0.38310 0.15700
C 	C 	0.98407 0.23570 0.35820 0.40400
H 	H 	0.96100 0.21400 0.31030 -0.09700
H 	H 	0.96640 0.19250 0.37790 -0.06700
C 	C 	0.98595 0.39150 0.36720 -1.18500
H 	H 	0.94830 0.42780 0.34440 0.41100
H 	H 	0.00410 0.43480 0.34860 0.42400
H 	H 	0.00670 0.41350 0.41440 0.38000
C 	C 	0.12574 0.27240 0.49671 0.03100
H 	H 	0.13930 0.32210 0.47560 0.07500
F 	F 	0.14310 0.86170 0.43500 -0.07000
F 	F 	0.13693 0.91760 0.51330 -0.23000
F 	F 	0.18630 0.74330 0.52350 -0.07700
C 	C 	0.46840 0.27440 0.59690 -0.03500
H 	H 	0.47610 0.17430 0.60890 0.21000
H 	H 	0.50120 0.31820 0.60310 -0.00600
C 	C 	0.45260 0.34790 0.63770 -0.06900
H 	H 	0.44710 0.44870 0.62660 0.06300
H 	H 	0.41750 0.30910 0.62720 -0.00800
C 	C 	0.49780 0.32920 0.71140 -0.51400
H 	H 	0.48630 0.37330 0.73740 0.18200
H 	H 	0.50410 0.22930 0.72190 0.20500
H 	H 	0.53190 0.37290 0.72230 0.18400
O 	O 	0.79190 0.09869 0.99607 -0.19700
C 	C 	0.82294 0.87790 0.99450 1.07400
F 	F 	0.86235 0.91030 0.04870 -0.50500
F 	F 	0.83237 0.88960 0.94740 -0.39200
F 	F 	0.80320 0.75110 0.98870 -0.43200
C 	C 	0.77558 0.97930 0.97111 -0.05800
C 	C 	0.72253 0.93120 0.92646 0.05100
H 	H 	0.71730 0.83670 0.91230 0.10200
C 	C 	0.67627 0.01600 0.90135 -0.02000
C 	C 	0.61945 0.94940 0.85523 0.86800
F 	F 	0.62017 0.82138 0.83538 -0.47300
F 	F 	0.58780 0.02641 0.80101 -0.51600
F 	F 	0.59397 0.94270 0.88524 -0.46600
O 	O 	0.67499 0.14178 0.91213 -0.20400
O 	O 	0.76640 0.38273 0.95141 -0.18500
N 	N 	0.75658 0.35500 0.89411 -0.10900
C 	C 	0.70909 0.41950 0.83178 0.32100
C 	C 	0.72542 0.57100 0.83319 -0.73700
H 	H 	0.72440 0.62250 0.86670 0.31300
H 	H 	0.69960 0.61350 0.78970 0.26500
H 	H 	0.76280 0.57440 0.84410 0.27500
C 	C 	0.65676 0.41240 0.82872 -0.76500
H 	H 	0.66040 0.47280 0.86300 0.31900
H 	H 	0.65050 0.31590 0.83600 0.27800
H 	H 	0.62550 0.44400 0.78510 0.26400
C 	C 	0.70950 0.32860 0.78027 0.23100
C 	C 	0.67922 0.19040 0.76573 -0.61100
H 	H 	0.68090 0.13820 0.73290 0.21800
H 	H 	0.64060 0.20840 0.74840 0.21500
H 	H 	0.69660 0.13560 0.80660 0.23000
C 	C 	0.69198 0.40270 0.71695 -0.64500
H 	H 	0.69350 0.33740 0.68760 0.25500
H 	H 	0.71680 0.48140 0.72730 0.23500
H 	H 	0.65420 0.43740 0.69490 0.22900
N 	N 	0.76955 0.29300 0.81968 -0.10200
O 	O 	0.79289 0.24756 0.79362 -0.14400
C 	C 	0.79298 0.29840 0.88540 0.10300
C 	C 	0.84718 0.25240 0.93614 0.03900
C 	C 	0.88427 0.17410 0.93035 0.05700
H 	H 	0.87720 0.14410 0.88950 0.05200
N 	N 	0.93004 0.14750 0.98868 -0.03200
N 	N 	0.92272 0.20920 0.03288 -0.05200
C 	C 	0.95970 0.17260 0.11060 -0.26000
H 	H 	0.94230 0.21110 0.13150 0.20700
H 	H 	0.96280 0.07010 0.11690 0.15200
C 	C 	0.01593 0.23570 0.14180 0.38600
H 	H 	0.03900 0.21400 0.18970 -0.09200
H 	H 	0.03360 0.19250 0.12210 -0.06600
C 	C 	0.01405 0.39150 0.13280 -1.13300
H 	H 	0.05170 0.42780 0.15560 0.39400
H 	H 	0.99590 0.43480 0.15140 0.40700
H 	H 	0.99330 0.41350 0.08560 0.35900
C 	C 	0.87426 0.27240 0.00329 -0.02300
H 	H 	0.86070 0.32210 0.02440 0.08400
F 	F 	0.85690 0.86170 0.06500 -0.06900
F 	F 	0.86307 0.91760 0.98670 -0.21900
F 	F 	0.81370 0.74330 0.97650 -0.08400
C 	C 	0.53160 0.27440 0.90310 -0.03500
H 	H 	0.52390 0.17430 0.89110 0.21100
H 	H 	0.49880 0.31820 0.89690 -0.00300
C 	C 	0.54740 0.34790 0.86230 -0.06800
H 	H 	0.55290 0.44870 0.87340 0.06300
H 	H 	0.58250 0.30910 0.87280 -0.00600
C 	C 	0.50220 0.32920 0.78860 -0.51400
H 	H 	0.51370 0.37330 0.76260 0.18200
H 	H 	0.49590 0.22930 0.77810 0.20500
H 	H 	0.46810 0.37290 0.77770 0.18400
Cu	Cu	0.25000 0.25000 0.50000 0.94000
Cu	Cu	0.75000 0.25000 -0.00000 0.92500
