data_crystal

_cell_length_a 16.42760
_cell_length_b 13.61080
_cell_length_c 6.86300
_cell_angle_alpha 90.00000
_cell_angle_beta  90.00000
_cell_angle_gamma 90.00000

_symmetry_space_group_name_	'P 1'
_symmetry_space_group_name_H-M	'P 1'

loop_
_symmetry_equiv_pos_as_xyz
  x,y,z

loop_
_atom_site_label
_atom_site_type_symbol
_atom_site_fract_x
_atom_site_fract_y
_atom_site_fract_z
_atom_site_charge
O 	O 	0.16479 0.83993 0.12879 -0.52200
C 	C 	0.03733 0.97102 0.82240 0.05000
H 	H 	0.06342 0.93404 0.68297 0.02500
O 	O 	0.66479 0.33993 0.62879 -0.52300
C 	C 	0.53733 0.47102 0.32240 0.03500
H 	H 	0.56342 0.43404 0.18297 0.02200
O 	O 	0.33521 0.83993 0.87121 -0.50800
C 	C 	0.46267 0.97102 0.17760 0.03700
H 	H 	0.43658 0.93404 0.31703 0.02500
O 	O 	0.83521 0.33993 0.37121 -0.52600
C 	C 	0.96267 0.47102 0.67760 0.03800
H 	H 	0.93658 0.43404 0.81703 0.03000
O 	O 	0.66479 0.16007 0.87121 -0.50800
C 	C 	0.53733 0.02898 0.17760 0.03700
H 	H 	0.56342 0.06596 0.31703 0.02500
O 	O 	0.16479 0.66007 0.37121 -0.52600
C 	C 	0.03733 0.52898 0.67760 0.03800
H 	H 	0.06342 0.56596 0.81703 0.03000
O 	O 	0.83521 0.16007 0.12879 -0.52300
C 	C 	0.96267 0.02898 0.82240 0.04900
H 	H 	0.93658 0.06596 0.68297 0.02500
O 	O 	0.33521 0.66007 0.62879 -0.52300
C 	C 	0.46267 0.52898 0.32240 0.03500
H 	H 	0.43658 0.56596 0.18297 0.02200
O 	O 	0.83521 0.16007 0.87121 -0.50800
C 	C 	0.96267 0.02898 0.17760 0.03700
H 	H 	0.93658 0.06596 0.31703 0.02500
O 	O 	0.33521 0.66007 0.37121 -0.52600
C 	C 	0.46267 0.52898 0.67760 0.03800
H 	H 	0.43658 0.56596 0.81703 0.03000
O 	O 	0.66479 0.16007 0.12879 -0.52300
C 	C 	0.53733 0.02898 0.82240 0.04900
H 	H 	0.56342 0.06596 0.68297 0.02500
O 	O 	0.16479 0.66007 0.62879 -0.52300
C 	C 	0.03733 0.52898 0.32240 0.03500
H 	H 	0.06342 0.56596 0.18297 0.02200
O 	O 	0.33521 0.83993 0.12879 -0.52300
C 	C 	0.46267 0.97102 0.82240 0.04900
H 	H 	0.43658 0.93404 0.68297 0.02500
O 	O 	0.83521 0.33993 0.62879 -0.52300
C 	C 	0.96267 0.47102 0.32240 0.03500
H 	H 	0.93658 0.43404 0.18297 0.02200
O 	O 	0.16479 0.83993 0.87121 -0.50800
C 	C 	0.03733 0.97102 0.17760 0.03700
H 	H 	0.06342 0.93404 0.31703 0.02500
O 	O 	0.66479 0.33993 0.37121 -0.52600
C 	C 	0.53733 0.47102 0.67760 0.03800
H 	H 	0.56342 0.43404 0.81703 0.03000
C 	C 	0.06831 0.94703 -0.00000 -0.23400
C 	C 	0.12760 0.86979 -0.00000 0.62300
C 	C 	0.56831 0.44703 0.50000 -0.22300
C 	C 	0.62760 0.36979 0.50000 0.64300
C 	C 	0.43169 0.94703 -0.00000 -0.23400
C 	C 	0.37240 0.86979 -0.00000 0.62300
C 	C 	0.93169 0.44703 0.50000 -0.22300
C 	C 	0.87240 0.36979 0.50000 0.64300
C 	C 	0.56831 0.05297 -0.00000 -0.23400
C 	C 	0.62760 0.13021 -0.00000 0.62300
C 	C 	0.06831 0.55297 0.50000 -0.22300
C 	C 	0.12760 0.63021 0.50000 0.64300
C 	C 	0.93169 0.05297 -0.00000 -0.23400
C 	C 	0.87240 0.13021 -0.00000 0.62300
C 	C 	0.43169 0.55297 0.50000 -0.22300
C 	C 	0.37240 0.63021 0.50000 0.64300
Cr	Cr	0.25000 0.75000 0.25000 1.64000
Cr	Cr	0.25000 0.75000 0.75000 1.64200
Cr	Cr	0.75000 0.25000 0.75000 1.64200
Cr	Cr	0.75000 0.25000 0.25000 1.64000
O 	O 	0.25000 0.72457 -0.00000 -0.63700
O 	O 	0.75000 0.22457 0.50000 -0.62600
O 	O 	0.75000 0.27543 -0.00000 -0.63700
O 	O 	0.25000 0.77543 0.50000 -0.62600
