data_crystal

_cell_length_a 30.74800
_cell_length_b 7.12000
_cell_length_c 15.93200
_cell_angle_alpha 90.00000
_cell_angle_beta  90.00000
_cell_angle_gamma 90.00000

_symmetry_space_group_name_	'P 1'
_symmetry_space_group_name_H-M	'P 1'

loop_
_symmetry_equiv_pos_as_xyz
  x,y,z

loop_
_atom_site_label
_atom_site_type_symbol
_atom_site_fract_x
_atom_site_fract_y
_atom_site_fract_z
_atom_site_charge
O 	O 	0.20593 0.34840 0.09560 -0.63500
C 	C 	0.13890 0.65100 0.20940 -0.01100
H 	H 	0.13780 0.74770 0.16840 0.01700
C 	C 	0.11340 0.66600 0.28110 0.01000
H 	H 	0.09530 0.77260 0.28800 0.04500
C 	C 	0.11380 0.52300 0.34550 0.02000
C 	C 	0.14220 0.36500 0.32970 -0.05000
H 	H 	0.14400 0.26590 0.36940 0.04500
C 	C 	0.16690 0.35800 0.25680 0.02000
H 	H 	0.18540 0.25230 0.24800 0.00800
C 	C 	0.14250 0.34300 0.22470 -0.01900
H 	H 	0.14620 0.22510 0.19790 -0.00400
C 	C 	0.11380 0.35900 0.29170 -0.03100
H 	H 	0.09370 0.26040 0.30240 -0.02100
C 	C 	0.13680 0.68300 0.31190 -0.02600
H 	H 	0.13630 0.79940 0.34120 0.00600
C 	C 	0.15960 0.66800 0.23690 0.04100
H 	H 	0.17150 0.77830 0.21250 0.01300
O 	O 	0.70593 0.84840 0.09560 -0.64000
C 	C 	0.63890 0.15100 0.20940 -0.01200
H 	H 	0.63780 0.24770 0.16840 0.01700
C 	C 	0.61340 0.16600 0.28110 0.01000
H 	H 	0.59530 0.27260 0.28800 0.04400
C 	C 	0.61380 0.02300 0.34550 0.01200
C 	C 	0.64220 0.86500 0.32970 -0.05000
H 	H 	0.64400 0.76590 0.36940 0.04300
C 	C 	0.66690 0.85800 0.25680 0.01800
H 	H 	0.68540 0.75230 0.24800 0.00700
C 	C 	0.64250 0.84300 0.22470 -0.02000
H 	H 	0.64620 0.72510 0.19790 -0.00100
C 	C 	0.61380 0.85900 0.29170 -0.03000
H 	H 	0.59370 0.76040 0.30240 -0.02200
C 	C 	0.63680 0.18300 0.31190 -0.02300
H 	H 	0.63630 0.29940 0.34120 0.00600
C 	C 	0.65960 0.16800 0.23690 0.04100
H 	H 	0.67150 0.27830 0.21250 0.01300
O 	O 	0.79407 0.65160 0.09560 -0.63700
C 	C 	0.86110 0.34900 0.20940 -0.01200
H 	H 	0.86220 0.25230 0.16840 0.01700
C 	C 	0.88660 0.33400 0.28110 0.00800
H 	H 	0.90470 0.22740 0.28800 0.04300
C 	C 	0.88620 0.47700 0.34550 0.01900
C 	C 	0.85780 0.63500 0.32970 -0.05100
H 	H 	0.85600 0.73410 0.36940 0.04400
C 	C 	0.83310 0.64200 0.25680 0.01900
H 	H 	0.81460 0.74770 0.24800 0.00600
C 	C 	0.85750 0.65700 0.22470 -0.01900
H 	H 	0.85380 0.77490 0.19790 -0.00400
C 	C 	0.88620 0.64100 0.29170 -0.03100
H 	H 	0.90630 0.73960 0.30240 -0.02400
C 	C 	0.86320 0.31700 0.31190 -0.02500
H 	H 	0.86370 0.20060 0.34120 0.00800
C 	C 	0.84040 0.33200 0.23690 0.04100
H 	H 	0.82850 0.22170 0.21250 0.01400
O 	O 	0.29407 0.15160 0.09560 -0.63700
C 	C 	0.36110 0.84900 0.20940 -0.01100
H 	H 	0.36220 0.75230 0.16840 0.01400
C 	C 	0.38660 0.83400 0.28110 0.00800
H 	H 	0.40470 0.72740 0.28800 0.04300
C 	C 	0.38620 0.97700 0.34550 0.02500
C 	C 	0.35780 0.13500 0.32970 -0.05100
H 	H 	0.35600 0.23410 0.36940 0.04400
C 	C 	0.33310 0.14200 0.25680 0.01800
H 	H 	0.31460 0.24770 0.24800 0.00700
C 	C 	0.35750 0.15700 0.22470 -0.02000
H 	H 	0.35380 0.27490 0.19790 -0.00400
C 	C 	0.38620 0.14100 0.29170 -0.03100
H 	H 	0.40630 0.23960 0.30240 -0.02300
C 	C 	0.36320 0.81700 0.31190 -0.02800
H 	H 	0.36370 0.70060 0.34120 0.00800
C 	C 	0.34040 0.83200 0.23690 0.03900
H 	H 	0.32850 0.72170 0.21250 0.01300
O 	O 	0.79407 0.34840 0.90440 -0.51900
C 	C 	0.86110 0.65100 0.79060 0.00200
H 	H 	0.86220 0.74770 0.83160 0.11200
C 	C 	0.88660 0.66600 0.71890 0.00500
H 	H 	0.90470 0.77260 0.71200 0.03100
C 	C 	0.88620 0.52300 0.65450 0.01800
C 	C 	0.85780 0.36500 0.67030 -0.05300
H 	H 	0.85600 0.26590 0.63060 0.04300
C 	C 	0.83310 0.35800 0.74320 0.01500
H 	H 	0.81460 0.25230 0.75200 -0.01100
C 	C 	0.85750 0.34300 0.77530 -0.01900
H 	H 	0.85380 0.22510 0.80210 -0.08600
C 	C 	0.88620 0.35900 0.70830 -0.02400
H 	H 	0.90630 0.26040 0.69760 0.00500
C 	C 	0.86320 0.68300 0.68810 -0.02400
H 	H 	0.86370 0.79940 0.65880 0.01100
C 	C 	0.84040 0.66800 0.76310 0.04400
H 	H 	0.82850 0.77830 0.78750 0.06300
O 	O 	0.29407 0.84840 0.90440 -0.52000
C 	C 	0.36110 0.15100 0.79060 0.00200
H 	H 	0.36220 0.24770 0.83160 0.11300
C 	C 	0.38660 0.16600 0.71890 0.00600
H 	H 	0.40470 0.27260 0.71200 0.03100
C 	C 	0.38620 0.02300 0.65450 0.01300
C 	C 	0.35780 0.86500 0.67030 -0.05200
H 	H 	0.35600 0.76590 0.63060 0.04200
C 	C 	0.33310 0.85800 0.74320 0.01500
H 	H 	0.31460 0.75230 0.75200 -0.01100
C 	C 	0.35750 0.84300 0.77530 -0.01900
H 	H 	0.35380 0.72510 0.80210 -0.08500
C 	C 	0.38620 0.85900 0.70830 -0.02300
H 	H 	0.40630 0.76040 0.69760 0.00500
C 	C 	0.36320 0.18300 0.68810 -0.02200
H 	H 	0.36370 0.29940 0.65880 0.01100
C 	C 	0.34040 0.16800 0.76310 0.04400
H 	H 	0.32850 0.27830 0.78750 0.06300
O 	O 	0.20593 0.65160 0.90440 -0.52000
C 	C 	0.13890 0.34900 0.79060 0.00200
H 	H 	0.13780 0.25230 0.83160 0.11300
C 	C 	0.11340 0.33400 0.71890 0.00500
H 	H 	0.09530 0.22740 0.71200 0.03100
C 	C 	0.11380 0.47700 0.65450 0.01800
C 	C 	0.14220 0.63500 0.67030 -0.05300
H 	H 	0.14400 0.73410 0.63060 0.04300
C 	C 	0.16690 0.64200 0.74320 0.01500
H 	H 	0.18540 0.74770 0.75200 -0.01100
C 	C 	0.14250 0.65700 0.77530 -0.01900
H 	H 	0.14620 0.77490 0.80210 -0.08600
C 	C 	0.11380 0.64100 0.70830 -0.02300
H 	H 	0.09370 0.73960 0.69760 0.00300
C 	C 	0.13680 0.31700 0.68810 -0.02300
H 	H 	0.13630 0.20060 0.65880 0.01200
C 	C 	0.15960 0.33200 0.76310 0.04500
H 	H 	0.17150 0.22170 0.78750 0.06300
O 	O 	0.70593 0.15160 0.90440 -0.51900
C 	C 	0.63890 0.84900 0.79060 0.00300
H 	H 	0.63780 0.75230 0.83160 0.11200
C 	C 	0.61340 0.83400 0.71890 0.00400
H 	H 	0.59530 0.72740 0.71200 0.03000
C 	C 	0.61380 0.97700 0.65450 0.02200
C 	C 	0.64220 0.13500 0.67030 -0.05300
H 	H 	0.64400 0.23410 0.63060 0.04300
C 	C 	0.66690 0.14200 0.74320 0.01500
H 	H 	0.68540 0.24770 0.75200 -0.01100
C 	C 	0.64250 0.15700 0.77530 -0.01900
H 	H 	0.64620 0.27490 0.80210 -0.08600
C 	C 	0.61380 0.14100 0.70830 -0.02400
H 	H 	0.59370 0.23960 0.69760 0.00400
C 	C 	0.63680 0.81700 0.68810 -0.02500
H 	H 	0.63630 0.70060 0.65880 0.01300
C 	C 	0.65960 0.83200 0.76310 0.04300
H 	H 	0.67150 0.72170 0.78750 0.06300
O 	O 	0.79407 0.65160 0.90440 -0.52000
C 	C 	0.86110 0.34900 0.79060 0.00200
H 	H 	0.86220 0.25230 0.83160 0.11300
C 	C 	0.88660 0.33400 0.71890 0.00500
H 	H 	0.90470 0.22740 0.71200 0.03100
C 	C 	0.88620 0.47700 0.65450 0.01800
C 	C 	0.85780 0.63500 0.67030 -0.05300
H 	H 	0.85600 0.73410 0.63060 0.04300
C 	C 	0.83310 0.64200 0.74320 0.01500
H 	H 	0.81460 0.74770 0.75200 -0.01100
C 	C 	0.85750 0.65700 0.77530 -0.01900
H 	H 	0.85380 0.77490 0.80210 -0.08600
C 	C 	0.88620 0.64100 0.70830 -0.02300
H 	H 	0.90630 0.73960 0.69760 0.00300
C 	C 	0.86320 0.31700 0.68810 -0.02300
H 	H 	0.86370 0.20060 0.65880 0.01200
C 	C 	0.84040 0.33200 0.76310 0.04500
H 	H 	0.82850 0.22170 0.78750 0.06300
O 	O 	0.29407 0.15160 0.90440 -0.51900
C 	C 	0.36110 0.84900 0.79060 0.00300
H 	H 	0.36220 0.75230 0.83160 0.11200
C 	C 	0.38660 0.83400 0.71890 0.00400
H 	H 	0.40470 0.72740 0.71200 0.03000
C 	C 	0.38620 0.97700 0.65450 0.02200
C 	C 	0.35780 0.13500 0.67030 -0.05300
H 	H 	0.35600 0.23410 0.63060 0.04300
C 	C 	0.33310 0.14200 0.74320 0.01500
H 	H 	0.31460 0.24770 0.75200 -0.01100
C 	C 	0.35750 0.15700 0.77530 -0.01900
H 	H 	0.35380 0.27490 0.80210 -0.08600
C 	C 	0.38620 0.14100 0.70830 -0.02400
H 	H 	0.40630 0.23960 0.69760 0.00400
C 	C 	0.36320 0.81700 0.68810 -0.02500
H 	H 	0.36370 0.70060 0.65880 0.01300
C 	C 	0.34040 0.83200 0.76310 0.04300
H 	H 	0.32850 0.72170 0.78750 0.06300
O 	O 	0.20593 0.34840 0.90440 -0.51900
C 	C 	0.13890 0.65100 0.79060 0.00200
H 	H 	0.13780 0.74770 0.83160 0.11200
C 	C 	0.11340 0.66600 0.71890 0.00500
H 	H 	0.09530 0.77260 0.71200 0.03100
C 	C 	0.11380 0.52300 0.65450 0.01800
C 	C 	0.14220 0.36500 0.67030 -0.05300
H 	H 	0.14400 0.26590 0.63060 0.04300
C 	C 	0.16690 0.35800 0.74320 0.01500
H 	H 	0.18540 0.25230 0.75200 -0.01100
C 	C 	0.14250 0.34300 0.77530 -0.01900
H 	H 	0.14620 0.22510 0.80210 -0.08600
C 	C 	0.11380 0.35900 0.70830 -0.02400
H 	H 	0.09370 0.26040 0.69760 0.00500
C 	C 	0.13680 0.68300 0.68810 -0.02400
H 	H 	0.13630 0.79940 0.65880 0.01100
C 	C 	0.15960 0.66800 0.76310 0.04400
H 	H 	0.17150 0.77830 0.78750 0.06300
O 	O 	0.70593 0.84840 0.90440 -0.52000
C 	C 	0.63890 0.15100 0.79060 0.00200
H 	H 	0.63780 0.24770 0.83160 0.11300
C 	C 	0.61340 0.16600 0.71890 0.00600
H 	H 	0.59530 0.27260 0.71200 0.03100
C 	C 	0.61380 0.02300 0.65450 0.01300
C 	C 	0.64220 0.86500 0.67030 -0.05200
H 	H 	0.64400 0.76590 0.63060 0.04200
C 	C 	0.66690 0.85800 0.74320 0.01500
H 	H 	0.68540 0.75230 0.75200 -0.01100
C 	C 	0.64250 0.84300 0.77530 -0.01900
H 	H 	0.64620 0.72510 0.80210 -0.08500
C 	C 	0.61380 0.85900 0.70830 -0.02300
H 	H 	0.59370 0.76040 0.69760 0.00500
C 	C 	0.63680 0.18300 0.68810 -0.02200
H 	H 	0.63630 0.29940 0.65880 0.01100
C 	C 	0.65960 0.16800 0.76310 0.04400
H 	H 	0.67150 0.27830 0.78750 0.06300
O 	O 	0.20593 0.65160 0.09560 -0.63700
C 	C 	0.13890 0.34900 0.20940 -0.01200
H 	H 	0.13780 0.25230 0.16840 0.01700
C 	C 	0.11340 0.33400 0.28110 0.00800
H 	H 	0.09530 0.22740 0.28800 0.04300
C 	C 	0.11380 0.47700 0.34550 0.01900
C 	C 	0.14220 0.63500 0.32970 -0.05100
H 	H 	0.14400 0.73410 0.36940 0.04400
C 	C 	0.16690 0.64200 0.25680 0.01900
H 	H 	0.18540 0.74770 0.24800 0.00600
C 	C 	0.14250 0.65700 0.22470 -0.01900
H 	H 	0.14620 0.77490 0.19790 -0.00400
C 	C 	0.11380 0.64100 0.29170 -0.03100
H 	H 	0.09370 0.73960 0.30240 -0.02400
C 	C 	0.13680 0.31700 0.31190 -0.02500
H 	H 	0.13630 0.20060 0.34120 0.00800
C 	C 	0.15960 0.33200 0.23690 0.04100
H 	H 	0.17150 0.22170 0.21250 0.01400
O 	O 	0.70593 0.15160 0.09560 -0.63700
C 	C 	0.63890 0.84900 0.20940 -0.01100
H 	H 	0.63780 0.75230 0.16840 0.01400
C 	C 	0.61340 0.83400 0.28110 0.00800
H 	H 	0.59530 0.72740 0.28800 0.04300
C 	C 	0.61380 0.97700 0.34550 0.02500
C 	C 	0.64220 0.13500 0.32970 -0.05100
H 	H 	0.64400 0.23410 0.36940 0.04400
C 	C 	0.66690 0.14200 0.25680 0.01800
H 	H 	0.68540 0.24770 0.24800 0.00700
C 	C 	0.64250 0.15700 0.22470 -0.02000
H 	H 	0.64620 0.27490 0.19790 -0.00400
C 	C 	0.61380 0.14100 0.29170 -0.03100
H 	H 	0.59370 0.23960 0.30240 -0.02300
C 	C 	0.63680 0.81700 0.31190 -0.02800
H 	H 	0.63630 0.70060 0.34120 0.00800
C 	C 	0.65960 0.83200 0.23690 0.03900
H 	H 	0.67150 0.72170 0.21250 0.01300
O 	O 	0.79407 0.34840 0.09560 -0.63600
C 	C 	0.86110 0.65100 0.20940 -0.01200
H 	H 	0.86220 0.74770 0.16840 0.01600
C 	C 	0.88660 0.66600 0.28110 0.00900
H 	H 	0.90470 0.77260 0.28800 0.04400
C 	C 	0.88620 0.52300 0.34550 0.01900
C 	C 	0.85780 0.36500 0.32970 -0.05100
H 	H 	0.85600 0.26590 0.36940 0.04400
C 	C 	0.83310 0.35800 0.25680 0.01900
H 	H 	0.81460 0.25230 0.24800 0.00700
C 	C 	0.85750 0.34300 0.22470 -0.01900
H 	H 	0.85380 0.22510 0.19790 -0.00400
C 	C 	0.88620 0.35900 0.29170 -0.03100
H 	H 	0.90630 0.26040 0.30240 -0.02100
C 	C 	0.86320 0.68300 0.31190 -0.02600
H 	H 	0.86370 0.79940 0.34120 0.00600
C 	C 	0.84040 0.66800 0.23690 0.04100
H 	H 	0.82850 0.77830 0.21250 0.01300
O 	O 	0.29407 0.84840 0.09560 -0.64000
C 	C 	0.36110 0.15100 0.20940 -0.01200
H 	H 	0.36220 0.24770 0.16840 0.01700
C 	C 	0.38660 0.16600 0.28110 0.01000
H 	H 	0.40470 0.27260 0.28800 0.04400
C 	C 	0.38620 0.02300 0.34550 0.01200
C 	C 	0.35780 0.86500 0.32970 -0.05000
H 	H 	0.35600 0.76590 0.36940 0.04300
C 	C 	0.33310 0.85800 0.25680 0.01800
H 	H 	0.31460 0.75230 0.24800 0.00700
C 	C 	0.35750 0.84300 0.22470 -0.02000
H 	H 	0.35380 0.72510 0.19790 -0.00100
C 	C 	0.38620 0.85900 0.29170 -0.03000
H 	H 	0.40630 0.76040 0.30240 -0.02200
C 	C 	0.36320 0.18300 0.31190 -0.02300
H 	H 	0.36370 0.29940 0.34120 0.00600
C 	C 	0.34040 0.16800 0.23690 0.04100
H 	H 	0.32850 0.27830 0.21250 0.01300
In	In	0.25000 0.25000 -0.00000 1.98600
In	In	0.75000 0.75000 -0.00000 1.98500
In	In	0.75000 0.25000 -0.00000 1.98600
In	In	0.25000 0.75000 -0.00000 1.98500
O 	O 	0.28370 0.50000 -0.00000 -0.90400
H 	H 	0.31560 0.50000 -0.00000 0.18800
O 	O 	0.78370 0.00000 -0.00000 -0.90100
H 	H 	0.81560 0.00000 -0.00000 0.19000
O 	O 	0.71630 0.50000 -0.00000 -0.90400
H 	H 	0.68440 0.50000 -0.00000 0.18800
O 	O 	0.21630 0.00000 -0.00000 -0.90100
H 	H 	0.18440 0.00000 -0.00000 0.19000
C 	C 	0.19440 0.50000 0.12230 0.54400
C 	C 	0.02490 0.50000 0.33930 -0.06300
H 	H 	0.04160 0.50000 0.28920 0.04100
C 	C 	0.09010 0.50000 0.42570 -0.01700
C 	C 	0.04410 0.50000 0.42130 0.01400
C 	C 	0.16580 0.50000 0.19630 -0.18900
C 	C 	0.69440 0.00000 0.12230 0.54900
C 	C 	0.52490 0.00000 0.33930 -0.06300
H 	H 	0.54160 0.00000 0.28920 0.04100
C 	C 	0.59010 0.00000 0.42570 -0.01500
C 	C 	0.54410 -0.00000 0.42130 0.01400
C 	C 	0.66580 0.00000 0.19630 -0.18500
C 	C 	0.80560 0.50000 0.12230 0.54400
C 	C 	0.97510 0.50000 0.33930 -0.06300
H 	H 	0.95840 0.50000 0.28920 0.04100
C 	C 	0.90990 0.50000 0.42570 -0.01700
C 	C 	0.95590 0.50000 0.42130 0.01400
C 	C 	0.83420 0.50000 0.19630 -0.18900
C 	C 	0.30560 0.00000 0.12230 0.54900
C 	C 	0.47510 0.00000 0.33930 -0.06300
H 	H 	0.45840 0.00000 0.28920 0.04100
C 	C 	0.40990 0.00000 0.42570 -0.01500
C 	C 	0.45590 -0.00000 0.42130 0.01400
C 	C 	0.33420 0.00000 0.19630 -0.18500
C 	C 	0.80560 0.50000 0.87770 0.52700
C 	C 	0.97510 0.50000 0.66070 -0.05700
H 	H 	0.95840 0.50000 0.71080 0.06000
C 	C 	0.90990 0.50000 0.57430 -0.01600
C 	C 	0.95590 0.50000 0.57870 0.01500
C 	C 	0.83420 0.50000 0.80370 -0.17300
C 	C 	0.30560 -0.00000 0.87770 0.52600
C 	C 	0.47510 0.00000 0.66070 -0.05700
H 	H 	0.45840 0.00000 0.71080 0.06000
C 	C 	0.40990 0.00000 0.57430 -0.01500
C 	C 	0.45590 -0.00000 0.57870 0.01500
C 	C 	0.33420 0.00000 0.80370 -0.17200
C 	C 	0.19440 0.50000 0.87770 0.52700
C 	C 	0.02490 0.50000 0.66070 -0.05700
H 	H 	0.04160 0.50000 0.71080 0.06000
C 	C 	0.09010 0.50000 0.57430 -0.01600
C 	C 	0.04410 0.50000 0.57870 0.01500
C 	C 	0.16580 0.50000 0.80370 -0.17300
C 	C 	0.69440 -0.00000 0.87770 0.52600
C 	C 	0.52490 0.00000 0.66070 -0.05700
H 	H 	0.54160 0.00000 0.71080 0.06000
C 	C 	0.59010 0.00000 0.57430 -0.01500
C 	C 	0.54410 -0.00000 0.57870 0.01500
C 	C 	0.66580 0.00000 0.80370 -0.17200
C 	C 	0.02240 0.50000 0.50000 -0.01100
C 	C 	0.11390 0.50000 0.50000 -0.06400
H 	H 	0.14480 0.50000 0.50000 0.05000
C 	C 	0.52240 0.00000 0.50000 -0.01100
C 	C 	0.61390 0.00000 0.50000 -0.06500
H 	H 	0.64480 0.00000 0.50000 0.05100
C 	C 	0.97760 0.50000 0.50000 -0.01100
C 	C 	0.88610 0.50000 0.50000 -0.06400
H 	H 	0.85520 0.50000 0.50000 0.05000
C 	C 	0.47760 0.00000 0.50000 -0.01100
C 	C 	0.38610 0.00000 0.50000 -0.06500
H 	H 	0.35520 0.00000 0.50000 0.05100
