data_crystal

_cell_length_a 12.56400
_cell_length_b 12.64610
_cell_length_c 12.64610
_cell_angle_alpha 91.63710
_cell_angle_beta  113.87000
_cell_angle_gamma 113.87000

_symmetry_space_group_name_	'P 1'
_symmetry_space_group_name_H-M	'P 1'

loop_
_symmetry_equiv_pos_as_xyz
  x,y,z

loop_
_atom_site_label
_atom_site_type_symbol
_atom_site_fract_x
_atom_site_fract_y
_atom_site_fract_z
_atom_site_charge
Mn	Mn	0.25000 0.69610 0.30390 1.31600
Mn	Mn	0.75000 0.30390 0.69610 1.31700
Mn	Mn	-0.00000 0.50000 -0.00000 1.29600
Mn	Mn	0.50000 0.00000 0.50000 1.30000
H 	H 	0.50480 0.57720 0.34540 0.05100
H 	H 	0.60060 0.46710 0.45090 0.05500
H 	H 	0.27690 0.16760 0.24600 0.04600
H 	H 	0.18760 0.27710 0.13430 0.04600
H 	H 	0.13660 0.78510 0.96430 0.13600
H 	H 	0.09130 0.93910 0.90730 -0.00900
H 	H 	0.95340 0.92620 0.14340 0.01300
H 	H 	0.00450 0.77460 0.19900 0.07800
H 	H 	0.99520 0.65460 0.42280 0.08600
H 	H 	0.89940 0.54910 0.53290 0.02700
H 	H 	0.22310 0.75400 0.83240 0.03800
H 	H 	0.31240 0.86570 0.72290 0.08000
H 	H 	0.36340 0.03570 0.21490 -0.04000
H 	H 	0.40870 0.09270 0.06090 0.12600
H 	H 	0.54660 0.85660 0.07380 0.10000
H 	H 	0.49550 0.80100 0.22540 0.02100
H 	H 	0.49520 0.42280 0.65460 0.05000
H 	H 	0.39940 0.53290 0.54910 0.05100
H 	H 	0.72310 0.83240 0.75400 0.05400
H 	H 	0.81240 0.72290 0.86570 0.06600
H 	H 	0.86340 0.21490 0.03570 -0.02300
H 	H 	0.90870 0.06090 0.09270 0.12100
H 	H 	0.04660 0.07380 0.85660 0.10400
H 	H 	0.99550 0.22540 0.80100 0.01900
H 	H 	0.00480 0.34540 0.57720 0.01100
H 	H 	0.10060 0.45090 0.46710 0.08500
H 	H 	0.77690 0.24600 0.16760 0.06800
H 	H 	0.68760 0.13430 0.27710 0.03100
H 	H 	0.63660 0.96430 0.78510 0.12800
H 	H 	0.59130 0.90730 0.93910 0.00000
H 	H 	0.45340 0.14340 0.92620 0.02900
H 	H 	0.50450 0.19900 0.77460 0.06700
C 	C 	0.26840 0.51040 0.16720 0.35300
C 	C 	0.33390 0.43895 0.22965 -0.08000
C 	C 	0.45890 0.49470 0.32490 -0.01800
C 	C 	0.51580 0.42870 0.38950 -0.02000
C 	C 	0.44670 0.30550 0.36290 -0.07800
C 	C 	0.32340 0.25010 0.26630 -0.02000
C 	C 	0.26930 0.31590 0.20010 -0.01900
C 	C 	0.50630 0.23640 0.44100 0.37400
C 	C 	0.10090 0.81520 0.00140 -0.18000
C 	C 	0.07270 0.90690 0.96650 0.15200
C 	C 	0.01660 0.95190 0.01890 -0.17300
C 	C 	0.99160 0.89950 0.10650 0.08100
C 	C 	0.02220 0.80850 0.14010 -0.08400
C 	C 	0.23160 0.83280 0.48960 0.33200
C 	C 	0.16610 0.77035 0.56105 -0.02700
C 	C 	0.04110 0.67510 0.50530 -0.10000
C 	C 	0.98420 0.61050 0.57130 0.06200
C 	C 	0.05330 0.63710 0.69450 -0.13200
C 	C 	0.17660 0.73370 0.74990 0.03400
C 	C 	0.23070 0.79990 0.68410 -0.06500
C 	C 	0.99370 0.55900 0.76360 0.40400
C 	C 	0.39910 0.99860 0.18480 0.20700
C 	C 	0.42730 0.03350 0.09310 -0.30600
C 	C 	0.48340 0.98110 0.04810 0.19700
C 	C 	0.50840 0.89350 0.10050 -0.19900
C 	C 	0.47780 0.85990 0.19150 0.09400
C 	C 	0.73160 0.48960 0.83280 0.34800
C 	C 	0.66610 0.56105 0.77035 -0.06700
C 	C 	0.54110 0.50530 0.67510 -0.02200
C 	C 	0.48420 0.57130 0.61050 -0.01500
C 	C 	0.55330 0.69450 0.63710 -0.07800
C 	C 	0.67660 0.74990 0.73370 -0.01000
C 	C 	0.73070 0.68410 0.79990 -0.02300
C 	C 	0.49370 0.76360 0.55900 0.37300
C 	C 	0.89910 0.18480 0.99860 0.17500
C 	C 	0.92730 0.09310 0.03350 -0.27900
C 	C 	0.98340 0.04810 0.98110 0.20700
C 	C 	0.00840 0.10050 0.89350 -0.21900
C 	C 	0.97780 0.19150 0.85990 0.10600
C 	C 	0.76840 0.16720 0.51040 0.37100
C 	C 	0.83390 0.22965 0.43895 -0.12700
C 	C 	0.95890 0.32490 0.49470 0.07300
C 	C 	0.01580 0.38950 0.42870 -0.11600
C 	C 	0.94670 0.36290 0.30550 -0.00200
C 	C 	0.82340 0.26630 0.25010 -0.07700
C 	C 	0.76930 0.20010 0.31590 0.03400
C 	C 	0.00630 0.44100 0.23640 0.32400
C 	C 	0.60090 0.00140 0.81520 -0.15900
C 	C 	0.57270 0.96650 0.90690 0.12200
C 	C 	0.51660 0.01890 0.95190 -0.13200
C 	C 	0.49160 0.10650 0.89950 0.01800
C 	C 	0.52220 0.14010 0.80850 -0.04300
N 	N 	0.07730 0.76938 0.08802 0.00200
N 	N 	0.42270 0.91198 0.23062 -0.09400
N 	N 	0.92270 0.23062 0.91198 -0.09100
N 	N 	0.57730 0.08802 0.76938 -0.00900
O 	O 	0.32300 0.62002 0.21322 -0.42600
O 	O 	0.16260 0.45760 0.07248 -0.42100
O 	O 	0.61870 0.29552 0.52406 -0.45100
O 	O 	0.43690 0.12459 0.41729 -0.42800
O 	O 	0.10700 0.68209 0.12189 -0.40200
O 	O 	0.17700 0.78678 0.37998 -0.41900
O 	O 	0.33740 0.92752 0.54240 -0.38600
O 	O 	0.88130 0.47594 0.70448 -0.45600
O 	O 	0.06310 0.58271 0.87541 -0.42200
O 	O 	0.39300 0.87811 0.31791 -0.37200
O 	O 	0.67700 0.37998 0.78678 -0.42100
O 	O 	0.83740 0.54240 0.92752 -0.38900
O 	O 	0.38130 0.70448 0.47594 -0.45000
O 	O 	0.56310 0.87541 0.58271 -0.41100
O 	O 	0.89300 0.31791 0.87811 -0.37300
O 	O 	0.82300 0.21322 0.62002 -0.42900
O 	O 	0.66260 0.07248 0.45760 -0.42200
O 	O 	0.11870 0.52406 0.29552 -0.44200
O 	O 	0.93690 0.41729 0.12459 -0.40300
O 	O 	0.60700 0.12189 0.68209 -0.40000
