data_crystal

_cell_length_a 10.16200
_cell_length_b 13.41400
_cell_length_c 17.65300
_cell_angle_alpha 90.21000
_cell_angle_beta  90.00000
_cell_angle_gamma 90.00000

_symmetry_space_group_name_	'P 1'
_symmetry_space_group_name_H-M	'P 1'

loop_
_symmetry_equiv_pos_as_xyz
  x,y,z

loop_
_atom_site_label
_atom_site_type_symbol
_atom_site_fract_x
_atom_site_fract_y
_atom_site_fract_z
_atom_site_charge
Mn	Mn	0.08158 0.38887 0.46798 1.27500
Mn	Mn	0.92445 0.15350 0.48457 1.28700
Mn	Mn	0.58158 0.61113 0.03202 1.27500
Mn	Mn	0.42445 0.84650 0.01543 1.28700
Mn	Mn	0.91842 0.61113 0.53202 1.27500
Mn	Mn	0.07555 0.84650 0.51543 1.28700
Mn	Mn	0.41842 0.38887 0.96798 1.27500
Mn	Mn	0.57555 0.15350 0.98457 1.28700
H 	H 	0.87780 0.21030 0.66820 0.02400
H 	H 	0.80240 0.50840 0.67070 0.02700
H 	H 	0.77980 0.19600 0.78810 0.05000
H 	H 	0.69010 0.49100 0.78580 0.04300
H 	H 	0.29610 0.30630 0.25890 0.04600
H 	H 	0.18120 0.03610 0.33840 0.04000
H 	H 	0.38280 0.23050 0.15070 0.03500
H 	H 	0.27180 0.96030 0.23080 0.03500
H 	H 	0.37780 0.78970 0.83180 0.02500
H 	H 	0.30240 0.49160 0.82930 0.02700
H 	H 	0.27980 0.80400 0.71190 0.05000
H 	H 	0.19010 0.50900 0.71420 0.04300
H 	H 	0.79610 0.69370 0.24110 0.04500
H 	H 	0.68120 0.96390 0.16160 0.03600
H 	H 	0.88280 0.76950 0.34930 0.03600
H 	H 	0.77180 0.03970 0.26920 0.04100
H 	H 	0.12220 0.78970 0.33180 0.02400
H 	H 	0.19760 0.49160 0.32930 0.02700
H 	H 	0.22020 0.80400 0.21190 0.05000
H 	H 	0.30990 0.50900 0.21420 0.04300
H 	H 	0.70390 0.69370 0.74110 0.04600
H 	H 	0.81880 0.96390 0.66160 0.04000
H 	H 	0.61720 0.76950 0.84930 0.03500
H 	H 	0.72820 0.03970 0.76920 0.03500
H 	H 	0.62220 0.21030 0.16820 0.02500
H 	H 	0.69760 0.50840 0.17070 0.02700
H 	H 	0.72020 0.19600 0.28810 0.05000
H 	H 	0.80990 0.49100 0.28580 0.04300
H 	H 	0.20390 0.30630 0.75890 0.04500
H 	H 	0.31880 0.03610 0.83840 0.03600
H 	H 	0.11720 0.23050 0.65070 0.03600
H 	H 	0.22820 0.96030 0.73080 0.04100
C 	C 	0.91136 0.37159 0.58272 0.38100
C 	C 	0.84747 0.36057 0.65796 -0.12500
C 	C 	0.84139 0.26720 0.69253 0.00000
C 	C 	0.79435 0.44465 0.69355 0.00400
C 	C 	0.78125 0.25860 0.76307 -0.03100
C 	C 	0.72974 0.43463 0.76235 -0.02800
C 	C 	0.72337 0.34132 0.79695 -0.07600
C 	C 	0.64895 0.32949 0.87020 0.37400
C 	C 	0.17617 0.22899 0.37870 0.36500
C 	C 	0.23126 0.17890 0.30961 -0.08100
C 	C 	0.29104 0.23590 0.25317 -0.02100
C 	C 	0.22301 0.07548 0.30084 -0.02600
C 	C 	0.34307 0.19092 0.18894 -0.01200
C 	C 	0.27652 0.03066 0.23658 -0.00000
C 	C 	0.33702 0.08761 0.18049 -0.10200
C 	C 	0.39582 0.03844 0.11119 0.40600
C 	C 	0.41136 0.62841 0.91728 0.38100
C 	C 	0.34747 0.63943 0.84204 -0.12400
C 	C 	0.34139 0.73280 0.80747 -0.00000
C 	C 	0.29435 0.55535 0.80645 0.00400
C 	C 	0.28125 0.74140 0.73693 -0.03000
C 	C 	0.22974 0.56537 0.73765 -0.02800
C 	C 	0.22337 0.65868 0.70305 -0.07600
C 	C 	0.14895 0.67051 0.62980 0.37400
C 	C 	0.67617 0.77101 0.12130 0.36600
C 	C 	0.73126 0.82110 0.19039 -0.08500
C 	C 	0.79104 0.76410 0.24683 -0.01800
C 	C 	0.72301 0.92452 0.19916 -0.02000
C 	C 	0.84307 0.80908 0.31106 -0.01600
C 	C 	0.77652 0.96934 0.26342 -0.01200
C 	C 	0.83702 0.91239 0.31951 -0.09700
C 	C 	0.89582 0.96156 0.38881 0.40000
C 	C 	0.08864 0.62841 0.41728 0.38100
C 	C 	0.15253 0.63943 0.34204 -0.12500
C 	C 	0.15861 0.73280 0.30747 0.00000
C 	C 	0.20565 0.55535 0.30645 0.00400
C 	C 	0.21875 0.74140 0.23693 -0.03100
C 	C 	0.27026 0.56537 0.23765 -0.02800
C 	C 	0.27663 0.65868 0.20305 -0.07600
C 	C 	0.35105 0.67051 0.12980 0.37400
C 	C 	0.82383 0.77101 0.62130 0.36500
C 	C 	0.76874 0.82110 0.69039 -0.08100
C 	C 	0.70896 0.76410 0.74683 -0.02100
C 	C 	0.77699 0.92452 0.69916 -0.02600
C 	C 	0.65693 0.80908 0.81106 -0.01200
C 	C 	0.72348 0.96934 0.76342 -0.00000
C 	C 	0.66298 0.91239 0.81951 -0.10200
C 	C 	0.60418 0.96156 0.88881 0.40600
C 	C 	0.58864 0.37159 0.08272 0.38100
C 	C 	0.65253 0.36057 0.15796 -0.12400
C 	C 	0.65861 0.26720 0.19253 -0.00000
C 	C 	0.70565 0.44465 0.19355 0.00400
C 	C 	0.71875 0.25860 0.26307 -0.03000
C 	C 	0.77026 0.43463 0.26235 -0.02800
C 	C 	0.77663 0.34132 0.29695 -0.07600
C 	C 	0.85105 0.32949 0.37020 0.37400
C 	C 	0.32383 0.22899 0.87870 0.36600
C 	C 	0.26874 0.17890 0.80961 -0.08500
C 	C 	0.20896 0.23590 0.75317 -0.01800
C 	C 	0.27699 0.07548 0.80084 -0.02000
C 	C 	0.15693 0.19092 0.68894 -0.01600
C 	C 	0.22348 0.03066 0.73658 -0.01200
C 	C 	0.16298 0.08761 0.68049 -0.09700
C 	C 	0.10418 0.03844 0.61119 0.40000
O 	O 	0.97675 0.30000 0.55436 -0.54900
O 	O 	0.90290 0.45344 0.54814 -0.54300
O 	O 	0.55987 0.39203 0.88193 -0.46000
O 	O 	0.68120 0.25882 0.91271 -0.45000
O 	O 	0.20917 0.31893 0.39008 -0.45200
O 	O 	0.10204 0.18064 0.42188 -0.48500
O 	O 	0.35145 0.95427 0.09330 -0.46000
O 	O 	0.48501 0.08457 0.07708 -0.49000
O 	O 	0.47675 0.70000 0.94564 -0.54700
O 	O 	0.40290 0.54656 0.95186 -0.54200
O 	O 	0.05987 0.60797 0.61807 -0.46100
O 	O 	0.18120 0.74118 0.58729 -0.45100
O 	O 	0.70917 0.68107 0.10992 -0.45200
O 	O 	0.60204 0.81936 0.07812 -0.48600
O 	O 	0.85145 0.04573 0.40670 -0.45600
O 	O 	0.98501 0.91543 0.42292 -0.49000
O 	O 	0.02325 0.70000 0.44564 -0.54900
O 	O 	0.09710 0.54656 0.45186 -0.54300
O 	O 	0.44013 0.60797 0.11807 -0.46000
O 	O 	0.31880 0.74118 0.08729 -0.45000
O 	O 	0.79083 0.68107 0.60992 -0.45200
O 	O 	0.89796 0.81936 0.57812 -0.48500
O 	O 	0.64855 0.04573 0.90670 -0.46000
O 	O 	0.51499 0.91543 0.92292 -0.49000
O 	O 	0.52325 0.30000 0.05436 -0.54700
O 	O 	0.59710 0.45344 0.04814 -0.54200
O 	O 	0.94013 0.39203 0.38193 -0.46100
O 	O 	0.81880 0.25882 0.41271 -0.45100
O 	O 	0.29083 0.31893 0.89008 -0.45200
O 	O 	0.39796 0.18064 0.92188 -0.48600
O 	O 	0.14855 0.95427 0.59330 -0.45600
O 	O 	0.01499 0.08457 0.57708 -0.49000
