data_crystal

_cell_length_a 10.19780
_cell_length_b 13.50200
_cell_length_c 17.70700
_cell_angle_alpha 90.00000
_cell_angle_beta  90.00000
_cell_angle_gamma 90.00000

_symmetry_space_group_name_	'P 1'
_symmetry_space_group_name_H-M	'P 1'

loop_
_symmetry_equiv_pos_as_xyz
  x,y,z

loop_
_atom_site_label
_atom_site_type_symbol
_atom_site_fract_x
_atom_site_fract_y
_atom_site_fract_z
_atom_site_charge
Mn	Mn	0.92547 0.15327 0.48340 1.28400
Mn	Mn	0.08119 0.38919 0.46763 1.27200
Mn	Mn	0.42547 0.84673 0.01660 1.28500
Mn	Mn	0.58119 0.61081 0.03237 1.27300
Mn	Mn	0.07453 0.84673 0.51660 1.28500
Mn	Mn	0.91881 0.61081 0.53237 1.27300
Mn	Mn	0.57453 0.15327 0.98340 1.28500
Mn	Mn	0.41881 0.38919 0.96763 1.27300
H 	H 	0.80780 0.48790 0.28550 0.04600
H 	H 	0.69860 0.50630 0.17310 0.02700
H 	H 	0.62470 0.21240 0.16780 0.02400
H 	H 	0.72380 0.19770 0.28640 0.05300
H 	H 	0.79580 0.69610 0.24050 0.04600
H 	H 	0.88240 0.77010 0.34820 0.03900
H 	H 	0.77100 0.03640 0.26970 0.04300
H 	H 	0.68370 0.96160 0.16310 0.03700
H 	H 	0.30780 0.51210 0.21450 0.04600
H 	H 	0.19860 0.49370 0.32690 0.02600
H 	H 	0.12470 0.78760 0.33220 0.02400
H 	H 	0.22380 0.80230 0.21360 0.05300
H 	H 	0.29580 0.30390 0.25950 0.04700
H 	H 	0.38240 0.22990 0.15180 0.03700
H 	H 	0.27100 0.96360 0.23030 0.03600
H 	H 	0.18370 0.03840 0.33690 0.04000
H 	H 	0.19220 0.51210 0.71450 0.04600
H 	H 	0.30140 0.49370 0.82690 0.02700
H 	H 	0.37530 0.78760 0.83220 0.02400
H 	H 	0.27620 0.80230 0.71360 0.05300
H 	H 	0.20420 0.30390 0.75950 0.04600
H 	H 	0.11760 0.22990 0.65180 0.03900
H 	H 	0.22900 0.96360 0.73030 0.04300
H 	H 	0.31630 0.03840 0.83690 0.03700
H 	H 	0.69220 0.48790 0.78550 0.04600
H 	H 	0.80140 0.50630 0.67310 0.02600
H 	H 	0.87530 0.21240 0.66780 0.02400
H 	H 	0.77620 0.19770 0.78640 0.05300
H 	H 	0.70420 0.69610 0.74050 0.04700
H 	H 	0.61760 0.77010 0.84820 0.03700
H 	H 	0.72900 0.03640 0.76970 0.03600
H 	H 	0.81630 0.96160 0.66310 0.04000
C 	C 	0.85110 0.32830 0.36930 0.37000
C 	C 	0.77790 0.33980 0.29590 -0.07200
C 	C 	0.77000 0.43320 0.26210 -0.03400
C 	C 	0.70660 0.44380 0.19470 0.00500
C 	C 	0.65320 0.36040 0.15760 -0.12500
C 	C 	0.66010 0.26770 0.19150 0.00100
C 	C 	0.72150 0.25880 0.26230 -0.03500
C 	C 	0.67640 0.77070 0.12190 0.36200
C 	C 	0.73190 0.82050 0.19080 -0.08400
C 	C 	0.79080 0.76450 0.24620 -0.01900
C 	C 	0.84350 0.80900 0.31110 -0.02100
C 	C 	0.83730 0.91240 0.31980 -0.09300
C 	C 	0.77670 0.96810 0.26420 -0.01500
C 	C 	0.72410 0.92310 0.20000 -0.02100
C 	C 	0.89740 0.96100 0.38930 0.40300
C 	C 	0.58860 0.37240 0.08290 0.38200
C 	C 	0.35110 0.67170 0.13070 0.37000
C 	C 	0.27790 0.66020 0.20410 -0.07100
C 	C 	0.27000 0.56680 0.23790 -0.03500
C 	C 	0.20660 0.55620 0.30530 0.00500
C 	C 	0.15320 0.63960 0.34240 -0.12600
C 	C 	0.16010 0.73230 0.30850 0.00200
C 	C 	0.22150 0.74120 0.23770 -0.03600
C 	C 	0.17640 0.22930 0.37810 0.36100
C 	C 	0.23190 0.17950 0.30920 -0.07900
C 	C 	0.29080 0.23550 0.25380 -0.02300
C 	C 	0.34350 0.19100 0.18890 -0.01600
C 	C 	0.33730 0.08760 0.18020 -0.09800
C 	C 	0.27670 0.03190 0.23580 -0.00200
C 	C 	0.22410 0.07690 0.30000 -0.02800
C 	C 	0.39740 0.03900 0.11070 0.40900
C 	C 	0.08860 0.62760 0.41710 0.38200
C 	C 	0.14890 0.67170 0.63070 0.37000
C 	C 	0.22210 0.66020 0.70410 -0.07200
C 	C 	0.23000 0.56680 0.73790 -0.03400
C 	C 	0.29340 0.55620 0.80530 0.00500
C 	C 	0.34680 0.63960 0.84240 -0.12500
C 	C 	0.33990 0.73230 0.80850 0.00100
C 	C 	0.27850 0.74120 0.73770 -0.03500
C 	C 	0.32360 0.22930 0.87810 0.36200
C 	C 	0.26810 0.17950 0.80920 -0.08400
C 	C 	0.20920 0.23550 0.75380 -0.01900
C 	C 	0.15650 0.19100 0.68890 -0.02100
C 	C 	0.16270 0.08760 0.68020 -0.09300
C 	C 	0.22330 0.03190 0.73580 -0.01500
C 	C 	0.27590 0.07690 0.80000 -0.02100
C 	C 	0.10260 0.03900 0.61070 0.40300
C 	C 	0.41140 0.62760 0.91710 0.38200
C 	C 	0.64890 0.32830 0.86930 0.37000
C 	C 	0.72210 0.33980 0.79590 -0.07100
C 	C 	0.73000 0.43320 0.76210 -0.03500
C 	C 	0.79340 0.44380 0.69470 0.00500
C 	C 	0.84680 0.36040 0.65760 -0.12600
C 	C 	0.83990 0.26770 0.69150 0.00200
C 	C 	0.77850 0.25880 0.76230 -0.03600
C 	C 	0.82360 0.77070 0.62190 0.36100
C 	C 	0.76810 0.82050 0.69080 -0.07900
C 	C 	0.70920 0.76450 0.74620 -0.02300
C 	C 	0.65650 0.80900 0.81110 -0.01600
C 	C 	0.66270 0.91240 0.81980 -0.09800
C 	C 	0.72330 0.96810 0.76420 -0.00200
C 	C 	0.77590 0.92310 0.70000 -0.02800
C 	C 	0.60260 0.96100 0.88930 0.40900
C 	C 	0.91140 0.37240 0.58290 0.38200
O 	O 	0.82080 0.25650 0.41090 -0.45100
O 	O 	0.93860 0.39160 0.38230 -0.45800
O 	O 	0.60300 0.81950 0.07810 -0.48200
O 	O 	0.70730 0.68120 0.11060 -0.45100
O 	O 	0.52350 0.30050 0.05370 -0.54100
O 	O 	0.85280 0.04460 0.40640 -0.45600
O 	O 	0.98380 0.91440 0.42390 -0.49300
O 	O 	0.59550 0.45330 0.04920 -0.54400
O 	O 	0.32080 0.74350 0.08910 -0.45100
O 	O 	0.43860 0.60840 0.11770 -0.45800
O 	O 	0.10300 0.18050 0.42190 -0.48100
O 	O 	0.20730 0.31880 0.38940 -0.45100
O 	O 	0.02350 0.69950 0.44630 -0.54200
O 	O 	0.35280 0.95540 0.09360 -0.46000
O 	O 	0.48380 0.08560 0.07610 -0.49400
O 	O 	0.09550 0.54670 0.45080 -0.54500
O 	O 	0.17920 0.74350 0.58910 -0.45100
O 	O 	0.06140 0.60840 0.61770 -0.45800
O 	O 	0.39700 0.18050 0.92190 -0.48200
O 	O 	0.29270 0.31880 0.88940 -0.45100
O 	O 	0.47650 0.69950 0.94630 -0.54100
O 	O 	0.14720 0.95540 0.59360 -0.45600
O 	O 	0.01620 0.08560 0.57610 -0.49300
O 	O 	0.40450 0.54670 0.95080 -0.54400
O 	O 	0.67920 0.25650 0.91090 -0.45100
O 	O 	0.56140 0.39160 0.88230 -0.45800
O 	O 	0.89700 0.81950 0.57810 -0.48100
O 	O 	0.79270 0.68120 0.61060 -0.45100
O 	O 	0.97650 0.30050 0.55370 -0.54200
O 	O 	0.64720 0.04460 0.90640 -0.46000
O 	O 	0.51620 0.91440 0.92390 -0.49400
O 	O 	0.90450 0.45330 0.54920 -0.54500
