data_crystal

_cell_length_a 13.39610
_cell_length_b 10.15790
_cell_length_c 17.65550
_cell_angle_alpha 90.00000
_cell_angle_beta  90.07900
_cell_angle_gamma 90.00000

_symmetry_space_group_name_	'P 1'
_symmetry_space_group_name_H-M	'P 1'

loop_
_symmetry_equiv_pos_as_xyz
  x,y,z

loop_
_atom_site_label
_atom_site_type_symbol
_atom_site_fract_x
_atom_site_fract_y
_atom_site_fract_z
_atom_site_charge
Mn	Mn	0.84650 0.42418 0.01539 1.28500
Mn	Mn	0.61117 0.58167 0.03189 1.27300
C 	C 	0.62800 0.41150 0.91712 0.38000
C 	C 	0.63960 0.34760 0.84198 -0.12600
C 	C 	0.56540 0.23010 0.73780 -0.02700
H 	H 	0.50900 0.19020 0.71460 0.04300
C 	C 	0.65800 0.22370 0.70287 -0.07600
C 	C 	0.74110 0.28130 0.73670 -0.03100
H 	H 	0.80370 0.27950 0.71160 0.05100
C 	C 	0.91270 0.66300 0.81928 -0.10000
C 	C 	0.67060 0.14960 0.63000 0.37000
C 	C 	0.76390 0.70870 0.74640 -0.02100
H 	H 	0.69350 0.70330 0.74050 0.04700
C 	C 	0.82130 0.76850 0.69020 -0.08000
C 	C 	0.92490 0.77660 0.69910 -0.02600
H 	H 	0.96450 0.81820 0.66150 0.03900
C 	C 	0.77090 0.82390 0.62130 0.36200
C 	C 	0.55530 0.29420 0.80615 0.00300
H 	H 	0.49140 0.30220 0.82894 0.02700
C 	C 	0.96950 0.72350 0.76320 -0.00100
H 	H 	0.04000 0.72850 0.76890 0.03500
C 	C 	0.73260 0.34140 0.80690 0.00100
H 	H 	0.78980 0.37810 0.83090 0.02500
C 	C 	0.80890 0.65660 0.81110 -0.01300
H 	H 	0.76930 0.61700 0.84940 0.03600
O 	O 	0.91540 0.51480 0.92297 -0.49000
O 	O 	0.70009 0.47660 0.94566 -0.54600
O 	O 	0.54646 0.40240 0.95199 -0.54300
O 	O 	0.60790 0.05960 0.61818 -0.45700
O 	O 	0.74110 0.18170 0.58701 -0.44900
O 	O 	0.81950 0.89830 0.57794 -0.48400
O 	O 	0.68100 0.79050 0.60982 -0.45100
O 	O 	0.04560 0.64930 0.90674 -0.46000
C 	C 	0.96200 0.60400 0.88885 0.40500
Mn	Mn	0.15350 0.92418 0.48461 1.28600
Mn	Mn	0.38883 0.08167 0.46811 1.27400
C 	C 	0.37200 0.91150 0.58288 0.38100
C 	C 	0.36040 0.84760 0.65802 -0.12500
C 	C 	0.43460 0.73010 0.76220 -0.02700
H 	H 	0.49100 0.69020 0.78540 0.04300
C 	C 	0.34200 0.72370 0.79713 -0.07600
C 	C 	0.25890 0.78130 0.76330 -0.03200
H 	H 	0.19630 0.77950 0.78840 0.05100
C 	C 	0.08730 0.16300 0.68072 -0.09400
C 	C 	0.32940 0.64960 0.87000 0.37000
C 	C 	0.23610 0.20870 0.75360 -0.01800
H 	H 	0.30650 0.20330 0.75950 0.04500
C 	C 	0.17870 0.26850 0.80980 -0.08400
C 	C 	0.07510 0.27660 0.80090 -0.02000
H 	H 	0.03550 0.31820 0.83850 0.03600
C 	C 	0.22910 0.32390 0.87870 0.36300
C 	C 	0.44470 0.79420 0.69385 0.00400
H 	H 	0.50860 0.80220 0.67106 0.02700
C 	C 	0.03050 0.22350 0.73680 -0.01200
H 	H 	0.96000 0.22850 0.73110 0.04100
C 	C 	0.26740 0.84140 0.69310 0.00200
H 	H 	0.21020 0.87810 0.66910 0.02400
C 	C 	0.19110 0.15660 0.68890 -0.01700
H 	H 	0.23070 0.11700 0.65060 0.03700
O 	O 	0.08460 0.01480 0.57703 -0.49000
O 	O 	0.29991 0.97660 0.55434 -0.54800
O 	O 	0.45354 0.90240 0.54801 -0.54400
O 	O 	0.39210 0.55960 0.88182 -0.45700
O 	O 	0.25890 0.68170 0.91299 -0.44900
O 	O 	0.18050 0.39830 0.92206 -0.48500
O 	O 	0.31900 0.29050 0.89018 -0.45100
O 	O 	0.95440 0.14930 0.59326 -0.45700
C 	C 	0.03800 0.10400 0.61115 0.39900
Mn	Mn	0.15350 0.57582 0.98461 1.28600
Mn	Mn	0.38883 0.41833 0.96811 1.27400
C 	C 	0.37200 0.58850 0.08288 0.38100
C 	C 	0.36040 0.65240 0.15802 -0.12500
C 	C 	0.43460 0.76990 0.26220 -0.02700
H 	H 	0.49100 0.80980 0.28540 0.04300
C 	C 	0.34200 0.77630 0.29713 -0.07600
C 	C 	0.25890 0.71870 0.26330 -0.03100
H 	H 	0.19630 0.72050 0.28840 0.05100
C 	C 	0.08730 0.33700 0.18072 -0.10000
C 	C 	0.32940 0.85040 0.37000 0.37000
C 	C 	0.23610 0.29130 0.25360 -0.02100
H 	H 	0.30650 0.29670 0.25950 0.04700
C 	C 	0.17870 0.23150 0.30980 -0.08000
C 	C 	0.07510 0.22340 0.30090 -0.02600
H 	H 	0.03550 0.18180 0.33850 0.03900
C 	C 	0.22910 0.17610 0.37870 0.36200
C 	C 	0.44470 0.70580 0.19385 0.00300
H 	H 	0.50860 0.69780 0.17106 0.02700
C 	C 	0.03050 0.27650 0.23680 -0.00100
H 	H 	0.96000 0.27150 0.23110 0.03500
C 	C 	0.26740 0.65860 0.19310 0.00100
H 	H 	0.21020 0.62190 0.16910 0.02500
C 	C 	0.19110 0.34340 0.18890 -0.01300
H 	H 	0.23070 0.38300 0.15060 0.03600
O 	O 	0.08460 0.48520 0.07703 -0.49000
O 	O 	0.29991 0.52340 0.05434 -0.54600
O 	O 	0.45354 0.59760 0.04801 -0.54300
O 	O 	0.39210 0.94040 0.38182 -0.45700
O 	O 	0.25890 0.81830 0.41299 -0.44900
O 	O 	0.18050 0.10170 0.42206 -0.48400
O 	O 	0.31900 0.20950 0.39018 -0.45100
O 	O 	0.95440 0.35070 0.09326 -0.46000
C 	C 	0.03800 0.39600 0.11115 0.40500
Mn	Mn	0.84650 0.07582 0.51539 1.28600
Mn	Mn	0.61117 0.91833 0.53189 1.27400
C 	C 	0.62800 0.08850 0.41712 0.38100
C 	C 	0.63960 0.15240 0.34198 -0.12500
C 	C 	0.56540 0.26990 0.23780 -0.02700
H 	H 	0.50900 0.30980 0.21460 0.04300
C 	C 	0.65800 0.27630 0.20287 -0.07600
C 	C 	0.74110 0.21870 0.23670 -0.03200
H 	H 	0.80370 0.22050 0.21160 0.05100
C 	C 	0.91270 0.83700 0.31928 -0.09400
C 	C 	0.67060 0.35040 0.13000 0.37000
C 	C 	0.76390 0.79130 0.24640 -0.01800
H 	H 	0.69350 0.79670 0.24050 0.04500
C 	C 	0.82130 0.73150 0.19020 -0.08400
C 	C 	0.92490 0.72340 0.19910 -0.02000
H 	H 	0.96450 0.68180 0.16150 0.03600
C 	C 	0.77090 0.67610 0.12130 0.36300
C 	C 	0.55530 0.20580 0.30615 0.00400
H 	H 	0.49140 0.19780 0.32894 0.02700
C 	C 	0.96950 0.77650 0.26320 -0.01200
H 	H 	0.04000 0.77150 0.26890 0.04100
C 	C 	0.73260 0.15860 0.30690 0.00200
H 	H 	0.78980 0.12190 0.33090 0.02400
C 	C 	0.80890 0.84340 0.31110 -0.01700
H 	H 	0.76930 0.88300 0.34940 0.03700
O 	O 	0.91540 0.98520 0.42297 -0.49000
O 	O 	0.70009 0.02340 0.44566 -0.54800
O 	O 	0.54646 0.09760 0.45199 -0.54400
O 	O 	0.60790 0.44040 0.11818 -0.45700
O 	O 	0.74110 0.31830 0.08701 -0.44900
O 	O 	0.81950 0.60170 0.07794 -0.48500
O 	O 	0.68100 0.70950 0.10982 -0.45100
O 	O 	0.04560 0.85070 0.40674 -0.45700
C 	C 	0.96200 0.89600 0.38885 0.39900
