data_crystal

_cell_length_a 12.69920
_cell_length_b 12.69920
_cell_length_c 13.37810
_cell_angle_alpha 63.53250
_cell_angle_beta  63.53250
_cell_angle_gamma 88.39750

_symmetry_space_group_name_	'P 1'
_symmetry_space_group_name_H-M	'P 1'

loop_
_symmetry_equiv_pos_as_xyz
  x,y,z

loop_
_atom_site_label
_atom_site_type_symbol
_atom_site_fract_x
_atom_site_fract_y
_atom_site_fract_z
_atom_site_charge
Mn	Mn	0.50000 0.00000 -0.00000 1.28300
Mn	Mn	-0.00000 0.50000 0.50000 1.30000
Mn	Mn	0.30516 0.69484 0.25000 1.31400
Mn	Mn	0.69484 0.30516 0.75000 1.31700
H 	H 	0.74850 0.83650 0.77030 0.09900
H 	H 	0.85610 0.72830 0.67460 0.03300
H 	H 	0.65130 0.42130 0.99310 0.00700
H 	H 	0.54640 0.52960 0.09070 0.11200
H 	H 	0.23770 0.80470 0.00630 0.04100
H 	H 	0.08750 0.85930 0.95470 0.05900
H 	H 	0.04650 0.09010 0.09120 0.11300
H 	H 	0.20110 0.03530 0.13450 -0.05800
H 	H 	0.16350 0.25150 0.72970 0.04700
H 	H 	0.27170 0.14390 0.82540 0.05900
H 	H 	0.57870 0.34870 0.50690 0.05100
H 	H 	0.47040 0.45360 0.40930 0.04900
H 	H 	0.19530 0.76230 0.49370 0.06200
H 	H 	0.14070 0.91250 0.54530 0.04000
H 	H 	0.90990 0.95350 0.40880 0.01200
H 	H 	0.96470 0.79890 0.36550 0.12100
H 	H 	0.25150 0.16350 0.22970 -0.00100
H 	H 	0.14390 0.27170 0.32540 0.08900
H 	H 	0.34870 0.57870 0.00690 0.09900
H 	H 	0.45360 0.47040 0.90930 -0.01300
H 	H 	0.76230 0.19530 0.99370 0.03400
H 	H 	0.91250 0.14070 0.04530 0.07900
H 	H 	0.95350 0.90990 0.90880 0.02900
H 	H 	0.79890 0.96470 0.86550 0.12200
H 	H 	0.83650 0.74850 0.27030 0.05300
H 	H 	0.72830 0.85610 0.17460 0.06200
H 	H 	0.42130 0.65130 0.49310 0.05200
H 	H 	0.52960 0.54640 0.59070 0.05400
H 	H 	0.80470 0.23770 0.50630 0.02000
H 	H 	0.85930 0.08750 0.45470 0.08900
H 	H 	0.09010 0.04650 0.59120 0.11800
H 	H 	0.03530 0.20110 0.63450 -0.04100
C 	C 	0.55947 0.76433 0.00110 0.27400
C 	C 	0.63465 0.69495 0.93950 0.07800
C 	C 	0.72840 0.75280 0.81550 -0.12500
C 	C 	0.79280 0.68800 0.75780 0.07700
C 	C 	0.76351 0.56309 0.82310 -0.15100
C 	C 	0.67100 0.50500 0.94790 0.13100
C 	C 	0.60753 0.56987 0.00630 -0.20700
C 	C 	0.82628 0.49312 0.75610 0.38800
C 	C 	0.19840 0.86240 0.02330 0.00900
C 	C 	0.10850 0.89530 0.99240 -0.06500
C 	C 	0.04841 0.98159 0.01670 0.09200
C 	C 	0.08460 0.03260 0.07250 -0.30000
C 	C 	0.17590 0.99850 0.10000 0.22700
C 	C 	0.23567 0.44053 0.49890 0.38500
C 	C 	0.30505 0.36535 0.56050 -0.08700
C 	C 	0.24720 0.27160 0.68450 -0.00800
C 	C 	0.31200 0.20720 0.74220 -0.02900
C 	C 	0.43691 0.23649 0.67690 -0.07000
C 	C 	0.49500 0.32900 0.55210 -0.02700
C 	C 	0.43013 0.39247 0.49370 -0.01200
C 	C 	0.50688 0.17372 0.74390 0.35500
C 	C 	0.13760 0.80160 0.47670 -0.02600
C 	C 	0.10470 0.89150 0.50760 0.00100
C 	C 	0.01841 0.95159 0.48330 -0.09600
C 	C 	0.96740 0.91540 0.42750 0.10300
C 	C 	0.00150 0.82410 0.40000 -0.14000
C 	C 	0.44053 0.23567 0.99890 0.50100
C 	C 	0.36535 0.30505 0.06050 -0.25600
C 	C 	0.27160 0.24720 0.18450 0.11300
C 	C 	0.20720 0.31200 0.24220 -0.13500
C 	C 	0.23649 0.43691 0.17690 0.01700
C 	C 	0.32900 0.49500 0.05210 -0.18700
C 	C 	0.39247 0.43013 0.99370 0.19200
C 	C 	0.17372 0.50688 0.24390 0.32300
C 	C 	0.80160 0.13760 0.97670 0.07500
C 	C 	0.89150 0.10470 0.00760 -0.15400
C 	C 	0.95159 0.01841 0.98330 0.00400
C 	C 	0.91540 0.96740 0.92750 0.06500
C 	C 	0.82410 0.00150 0.90000 -0.12600
C 	C 	0.76433 0.55947 0.50110 0.37900
C 	C 	0.69495 0.63465 0.43950 -0.07900
C 	C 	0.75280 0.72840 0.31550 -0.01100
C 	C 	0.68800 0.79280 0.25780 -0.02300
C 	C 	0.56309 0.76351 0.32310 -0.06800
C 	C 	0.50500 0.67100 0.44790 -0.02100
C 	C 	0.56987 0.60753 0.50630 -0.01400
C 	C 	0.49312 0.82628 0.25610 0.35600
C 	C 	0.86240 0.19840 0.52330 0.08500
C 	C 	0.89530 0.10850 0.49240 -0.18500
C 	C 	0.98159 0.04841 0.51670 0.16700
C 	C 	0.03260 0.08460 0.57250 -0.30000
C 	C 	0.99850 0.17590 0.60000 0.20500
N 	N 	0.22936 0.91312 0.07780 -0.08300
N 	N 	0.08688 0.77064 0.42220 -0.01300
N 	N 	0.77064 0.08688 0.92220 -0.03300
N 	N 	0.91312 0.22936 0.57780 -0.09200
O 	O 	0.47979 0.70301 0.11560 -0.42500
O 	O 	0.58230 0.87634 0.93460 -0.36400
O 	O 	0.78235 0.38185 0.81380 -0.43000
O 	O 	0.91663 0.54941 0.64790 -0.40500
O 	O 	0.31551 0.87947 0.10960 -0.37300
O 	O 	0.29699 0.52021 0.38440 -0.45200
O 	O 	0.12366 0.41770 0.56540 -0.43400
O 	O 	0.61815 0.21765 0.68620 -0.43100
O 	O 	0.45059 0.08337 0.85210 -0.41600
O 	O 	0.12053 0.68449 0.39040 -0.39700
O 	O 	0.52021 0.29699 0.88440 -0.47400
O 	O 	0.41770 0.12366 0.06540 -0.48800
O 	O 	0.21765 0.61815 0.18620 -0.42600
O 	O 	0.08337 0.45059 0.35210 -0.41900
O 	O 	0.68449 0.12053 0.89040 -0.39000
O 	O 	0.70301 0.47979 0.61560 -0.44500
O 	O 	0.87634 0.58230 0.43460 -0.41700
O 	O 	0.38185 0.78235 0.31380 -0.42500
O 	O 	0.54941 0.91663 0.14790 -0.40100
O 	O 	0.87947 0.31551 0.60960 -0.37300
