data_crystal

_cell_length_a 12.74050
_cell_length_b 12.74050
_cell_length_c 13.75950
_cell_angle_alpha 66.38880
_cell_angle_beta  65.36790
_cell_angle_gamma 96.73710

_symmetry_space_group_name_	'P 1'
_symmetry_space_group_name_H-M	'P 1'

loop_
_symmetry_equiv_pos_as_xyz
  x,y,z

loop_
_atom_site_label
_atom_site_type_symbol
_atom_site_fract_x
_atom_site_fract_y
_atom_site_fract_z
_atom_site_charge
Mn	Mn	0.31145 0.06145 0.75000 1.29700
Mn	Mn	0.68855 0.93855 0.25000 1.33400
Mn	Mn	0.50000 0.00000 0.50000 1.27900
Mn	Mn	-0.00000 0.00000 -0.00000 1.25100
H 	H 	0.55350 0.39690 0.58120 0.05200
H 	H 	0.65170 0.60290 0.47980 0.05300
H 	H 	0.85560 0.59530 0.17250 0.05100
H 	H 	0.75270 0.39050 0.27180 0.05100
H 	H 	0.20170 0.76870 0.97840 0.08400
H 	H 	0.14790 0.56750 0.02860 -0.03400
H 	H 	0.90490 0.61340 0.92230 0.03800
H 	H 	0.96060 0.81220 0.87480 0.06100
H 	H 	0.47810 0.13470 0.91880 0.08800
H 	H 	0.58270 0.13150 0.02020 0.01900
H 	H 	0.26780 0.02810 0.32750 0.04200
H 	H 	0.16230 0.02450 0.22820 0.02400
H 	H 	0.24710 0.18010 0.52160 0.08700
H 	H 	0.09610 0.17650 0.47140 -0.03900
H 	H 	0.03570 0.82720 0.57770 -0.04900
H 	H 	0.18700 0.83540 0.62520 0.07600
H 	H 	0.44650 0.60310 0.41880 0.04900
H 	H 	0.34830 0.39710 0.52020 0.04800
H 	H 	0.14440 0.40470 0.82750 0.06700
H 	H 	0.24730 0.60950 0.72820 0.05300
H 	H 	0.79830 0.23130 0.02160 0.00100
H 	H 	0.85210 0.43250 0.97140 0.14700
H 	H 	0.09510 0.38660 0.07770 0.09500
H 	H 	0.03940 0.18780 0.12520 0.01700
H 	H 	0.52190 0.86530 0.08120 0.00500
H 	H 	0.41730 0.86850 0.97980 0.08900
H 	H 	0.73220 0.97190 0.67250 0.07600
H 	H 	0.83770 0.97550 0.77180 0.07400
H 	H 	0.75290 0.81990 0.47840 -0.00800
H 	H 	0.90390 0.82350 0.52860 0.16700
H 	H 	0.96430 0.17280 0.42230 0.18000
H 	H 	0.81300 0.16460 0.37480 0.00100
C 	C 	0.56860 0.23980 0.50140 0.36900
C 	C 	0.64140 0.37200 0.43700 -0.08300
C 	C 	0.61340 0.43690 0.49810 -0.01400
C 	C 	0.67290 0.56010 0.43760 -0.02300
C 	C 	0.76500 0.62210 0.31350 -0.07100
C 	C 	0.79340 0.55600 0.25480 -0.02000
C 	C 	0.82430 0.75880 0.24570 0.35900
C 	C 	0.73240 0.43290 0.31450 -0.01500
C 	C 	0.14130 0.73690 0.96660 -0.04900
C 	C 	0.10810 0.61580 0.99730 0.08500
C 	C 	0.01820 0.56430 0.98310 -0.09200
C 	C 	0.96560 0.64240 0.93520 0.00300
C 	C 	0.99960 0.76240 0.90560 0.01300
C 	C 	0.24120 0.07000 0.99860 0.45000
C 	C 	0.30900 0.07840 0.06300 -0.12600
C 	C 	0.43500 0.11150 0.00190 -0.09400
C 	C 	0.49770 0.11050 0.06240 0.00500
C 	C 	0.43560 0.07850 0.18650 -0.09800
C 	C 	0.31080 0.04820 0.24520 -0.03000
C 	C 	0.50450 0.07000 0.25430 0.36000
C 	C 	0.24740 0.04690 0.18550 -0.00700
C 	C 	0.20350 0.10790 0.53340 -0.11800
C 	C 	0.11310 0.10540 0.50270 0.14400
C 	C 	0.04740 0.00130 0.51690 -0.39000
C 	C 	0.07760 0.90080 0.56480 0.21900
C 	C 	0.16800 0.90520 0.59440 -0.03800
C 	C 	0.43140 0.76020 0.49860 0.36800
C 	C 	0.35860 0.62800 0.56300 -0.08100
C 	C 	0.38660 0.56310 0.50190 -0.01300
C 	C 	0.32710 0.43990 0.56240 -0.02600
C 	C 	0.23500 0.37790 0.68650 -0.07000
C 	C 	0.20660 0.44400 0.74520 -0.02600
C 	C 	0.17570 0.24120 0.75430 0.35700
C 	C 	0.26760 0.56710 0.68550 -0.01000
C 	C 	0.85870 0.26310 0.03340 0.10700
C 	C 	0.89190 0.38420 0.00270 -0.25000
C 	C 	0.98180 0.43570 0.01690 0.17500
C 	C 	0.03440 0.35760 0.06480 -0.22100
C 	C 	0.00040 0.23760 0.09440 0.04900
C 	C 	0.75880 0.93000 0.00140 0.29500
C 	C 	0.69100 0.92160 0.93700 -0.05000
C 	C 	0.56500 0.88850 0.99810 0.08300
C 	C 	0.50230 0.88950 0.93760 -0.06300
C 	C 	0.56440 0.92150 0.81350 -0.03700
C 	C 	0.68920 0.95180 0.75480 -0.02300
C 	C 	0.49550 0.93000 0.74570 0.35600
C 	C 	0.75260 0.95310 0.81450 -0.00900
C 	C 	0.79650 0.89210 0.46660 0.18000
C 	C 	0.88690 0.89460 0.49730 -0.32800
C 	C 	0.95260 0.99870 0.48310 0.45600
C 	C 	0.92240 0.09920 0.43520 -0.40900
C 	C 	0.83200 0.09480 0.40560 0.12100
N 	N 	0.08650 0.80770 0.92000 -0.03700
N 	N 	0.22770 0.00650 0.58000 -0.04000
N 	N 	0.91350 0.19230 0.08000 -0.06100
N 	N 	0.77230 0.99350 0.42000 -0.07100
O 	O 	0.48840 0.19010 0.61490 -0.45800
O 	O 	0.59070 0.18630 0.43900 -0.43500
O 	O 	0.12050 0.92560 0.88670 -0.32900
O 	O 	0.77780 0.81380 0.30140 -0.42100
O 	O 	0.91560 0.80800 0.13900 -0.39300
O 	O 	0.30500 0.10330 0.88510 -0.47500
O 	O 	0.12530 0.02970 0.06100 -0.50200
O 	O 	0.31230 0.00720 0.61330 -0.41500
O 	O 	0.61520 0.07920 0.19860 -0.46700
O 	O 	0.44700 0.05460 0.36100 -0.43200
O 	O 	0.51160 0.80990 0.38510 -0.43000
O 	O 	0.40930 0.81370 0.56100 -0.39900
O 	O 	0.87950 0.07440 0.11330 -0.40200
O 	O 	0.22220 0.18620 0.69860 -0.44900
O 	O 	0.08440 0.19200 0.86100 -0.41400
O 	O 	0.69500 0.89670 0.11490 -0.41400
O 	O 	0.87470 0.97030 0.93900 -0.33400
O 	O 	0.68770 0.99280 0.38670 -0.33500
O 	O 	0.38480 0.92080 0.80140 -0.40100
O 	O 	0.55300 0.94540 0.63900 -0.38200
