data_crystal

_cell_length_a 8.90800
_cell_length_b 12.42800
_cell_length_c 32.13100
_cell_angle_alpha 93.52500
_cell_angle_beta  95.15400
_cell_angle_gamma 92.39000

_symmetry_space_group_name_	'P 1'
_symmetry_space_group_name_H-M	'P 1'

loop_
_symmetry_equiv_pos_as_xyz
  x,y,z

loop_
_atom_site_label
_atom_site_type_symbol
_atom_site_fract_x
_atom_site_fract_y
_atom_site_fract_z
_atom_site_charge
Cd	Cd	0.04183 0.22452 0.41304 1.16000
Cd	Cd	0.00446 0.80377 0.24955 1.15900
Cd	Cd	0.05942 0.27445 0.08129 1.15400
N 	N 	0.64100 0.43120 0.40342 -0.16000
N 	N 	0.82350 0.31940 0.41433 -0.28700
N 	N 	0.78300 0.99470 0.48115 -0.16700
N 	N 	0.92160 0.08750 0.44083 -0.28800
N 	N 	0.26060 0.02900 0.17912 -0.16300
N 	N 	0.12420 0.93990 0.22000 -0.29200
N 	N 	0.40400 0.59830 0.26503 -0.15600
N 	N 	0.22260 0.70870 0.24974 -0.29000
N 	N 	0.64090 0.45030 0.07270 -0.17200
N 	N 	0.83330 0.35070 0.08893 -0.30500
N 	N 	0.82390 0.01380 0.13773 -0.15500
N 	N 	0.96010 0.12310 0.10291 -0.29000
O 	O 	0.26080 0.15810 0.39269 -0.46300
O 	O 	0.14760 0.00420 0.36750 -0.33100
O 	O 	0.78640 0.87500 0.26746 -0.46100
O 	O 	0.90110 0.02860 0.29263 -0.31600
O 	O 	0.24340 0.17600 0.05102 -0.45200
O 	O 	0.21440 0.20080 0.98298 -0.31200
F 	F 	0.38150 0.19900 0.31230 -0.44700
F 	F 	0.62610 0.15090 0.27451 -0.44700
F 	F 	0.42050 0.88210 0.38487 -0.44100
F 	F 	0.66560 0.83510 0.34727 -0.45400
F 	F 	0.51950 0.19200 0.96582 -0.44600
F 	F 	0.26960 0.94570 0.04501 -0.44500
C 	C 	0.90000 0.51690 0.41950 -0.70300
H 	H 	0.89550 0.55880 0.39530 0.22400
H 	H 	0.99970 0.49130 0.42460 0.17800
H 	H 	0.87640 0.56110 0.44340 0.20700
C 	C 	0.78780 0.42230 0.41190 0.24900
C 	C 	0.68770 0.26110 0.40630 -0.00900
H 	H 	0.67630 0.18630 0.40560 0.02100
C 	C 	0.57530 0.32710 0.39970 -0.00700
H 	H 	0.47330 0.30760 0.39380 0.04600
C 	C 	0.56000 0.52880 0.39490 -0.01400
H 	H 	0.60560 0.58850 0.41320 0.03100
H 	H 	0.45620 0.51800 0.40130 0.02100
C 	C 	0.56140 0.55800 0.34980 -0.12500
H 	H 	0.51420 0.62630 0.34660 0.09900
H 	H 	0.66510 0.56720 0.34320 0.06900
C 	C 	0.88170 0.17630 0.51030 -0.82800
H 	H 	0.96270 0.22540 0.50490 0.21400
H 	H 	0.90330 0.14840 0.53730 0.27800
H 	H 	0.78940 0.21360 0.50990 0.26200
C 	C 	0.86600 0.08770 0.47820 0.30300
C 	C 	0.55250 0.01050 0.51890 -0.12100
H 	H 	0.50610 0.98200 0.54230 0.09100
H 	H 	0.56710 0.08800 0.52450 0.08200
C 	C 	0.70430 0.96360 0.51690 -0.00500
H 	H 	0.76680 0.98630 0.54250 0.02600
H 	H 	0.69180 0.88550 0.51570 0.00700
C 	C 	0.78690 0.93400 0.44420 -0.00300
H 	H 	0.74000 0.86620 0.43730 0.05300
C 	C 	0.87090 0.99050 0.41980 -0.00900
H 	H 	0.89190 0.96810 0.39280 0.05200
C 	C 	0.25390 0.07140 0.37150 0.45500
C 	C 	0.39470 0.04330 0.35040 -0.23400
C 	C 	0.47010 0.95080 0.35720 0.24400
C 	C 	0.59480 0.92470 0.33770 0.26900
C 	C 	0.65310 0.99170 0.30949 -0.25100
C 	C 	0.57820 0.08420 0.30230 0.27500
C 	C 	0.45270 0.10790 0.32250 0.24500
C 	C 	0.79270 0.96260 0.28780 0.45400
C 	C 	0.14880 0.85070 0.14890 -0.81500
H 	H 	0.23340 0.80520 0.14960 0.25800
H 	H 	0.13610 0.88150 0.12220 0.29300
H 	H 	0.05930 0.80870 0.15310 0.21500
C 	C 	0.17650 0.93920 0.18290 0.28900
C 	C 	0.17920 0.03580 0.24090 -0.01200
H 	H 	0.16150 0.05920 0.26800 0.04800
C 	C 	0.26250 0.08940 0.21550 -0.00300
H 	H 	0.31270 0.15640 0.22190 0.05200
C 	C 	0.33720 0.06100 0.14310 -0.03100
H 	H 	0.36000 0.13830 0.14610 0.02000
H 	H 	0.26930 0.04590 0.11790 0.05800
C 	C 	0.48190 0.00390 0.13800 -0.10200
H 	H 	0.45790 0.92740 0.13200 0.07800
H 	H 	0.52820 0.03090 0.11430 0.07900
C 	C 	0.59300 0.01880 0.17600 -0.11900
H 	H 	0.54810 0.98660 0.19890 0.08300
H 	H 	0.60820 0.09560 0.18340 0.08200
C 	C 	0.14410 0.51220 0.24800 -0.67400
H 	H 	0.15190 0.47000 0.27210 0.21400
H 	H 	0.16480 0.46840 0.22370 0.19400
H 	H 	0.04400 0.53780 0.24390 0.16400
C 	C 	0.25710 0.60750 0.25480 0.23700
C 	C 	0.35880 0.76720 0.25770 -0.00800
H 	H 	0.37110 0.84160 0.25660 0.02000
C 	C 	0.47120 0.70120 0.26710 -0.00700
H 	H 	0.57290 0.72070 0.27370 0.05200
C 	C 	0.48330 0.50220 0.27440 -0.02500
H 	H 	0.58720 0.51220 0.26800 0.02800
H 	H 	0.43740 0.44180 0.25650 0.03800
C 	C 	0.48160 0.47510 0.32000 -0.10600
H 	H 	0.37770 0.46660 0.32650 0.06000
H 	H 	0.52810 0.40670 0.32360 0.09300
C 	C 	0.26700 0.15600 0.01410 0.45000
C 	C 	0.38930 0.07600 0.00660 -0.22900
C 	C 	0.50550 0.09630 0.98280 0.26400
C 	C 	0.38770 0.97530 0.02350 0.24400
C 	C 	0.88940 0.54440 0.08440 -0.81300
H 	H 	0.83790 0.60490 0.09520 0.25900
H 	H 	0.91660 0.55730 0.05680 0.23900
H 	H 	0.97880 0.53470 0.10250 0.20900
C 	C 	0.79050 0.44760 0.08240 0.29400
C 	C 	0.69820 0.28410 0.08330 -0.03000
H 	H 	0.69210 0.21020 0.08650 0.02800
C 	C 	0.58150 0.34420 0.07280 0.00400
H 	H 	0.48110 0.32040 0.06680 0.01700
C 	C 	0.55220 0.53930 0.05850 -0.00900
H 	H 	0.59580 0.60640 0.07230 0.04000
H 	H 	0.45040 0.52950 0.06650 0.01700
C 	C 	0.54600 0.54730 0.01280 -0.12200
H 	H 	0.64810 0.54950 0.00450 0.05500
H 	H 	0.50150 0.61460 0.00580 0.09800
C 	C 	0.91780 0.18780 0.17660 -0.80900
H 	H 	0.99530 0.24190 0.17330 0.21600
H 	H 	0.94430 0.15070 0.20140 0.28300
H 	H 	0.82380 0.22150 0.17910 0.26400
C 	C 	0.90260 0.10960 0.13950 0.28800
C 	C 	0.83040 0.96370 0.09810 -0.03600
H 	H 	0.78490 0.89770 0.08750 0.06800
C 	C 	0.74620 0.97240 0.17250 -0.01700
H 	H 	0.80870 0.98980 0.19860 0.02300
H 	H 	0.73390 0.89450 0.16860 0.01300
C 	C 	0.91790 0.03220 0.07820 0.02700
H 	H 	0.94550 0.01870 0.05120 0.03700
Cd	Cd	0.95817 0.77548 0.58696 1.15900
Cd	Cd	0.99554 0.19623 0.75045 1.15800
Cd	Cd	0.94058 0.72555 0.91871 1.15300
N 	N 	0.35900 0.56880 0.59658 -0.16100
N 	N 	0.17650 0.68060 0.58567 -0.28800
N 	N 	0.21700 0.00530 0.51885 -0.16800
N 	N 	0.07840 0.91250 0.55917 -0.28900
N 	N 	0.73940 0.97100 0.82088 -0.16400
N 	N 	0.87580 0.06010 0.78000 -0.29200
N 	N 	0.59600 0.40170 0.73497 -0.15600
N 	N 	0.77740 0.29130 0.75026 -0.29000
N 	N 	0.35910 0.54970 0.92730 -0.17200
N 	N 	0.16670 0.64930 0.91107 -0.30500
N 	N 	0.17610 0.98620 0.86227 -0.15500
N 	N 	0.03990 0.87690 0.89709 -0.29000
O 	O 	0.73920 0.84190 0.60731 -0.46300
O 	O 	0.85240 0.99580 0.63250 -0.33100
O 	O 	0.21360 0.12500 0.73254 -0.46100
O 	O 	0.09890 0.97140 0.70737 -0.31600
O 	O 	0.75660 0.82400 0.94898 -0.45200
O 	O 	0.78560 0.79920 0.01702 -0.31200
F 	F 	0.61850 0.80100 0.68770 -0.44700
F 	F 	0.37390 0.84910 0.72549 -0.44700
F 	F 	0.57950 0.11790 0.61513 -0.44100
F 	F 	0.33440 0.16490 0.65273 -0.45400
F 	F 	0.48050 0.80800 0.03418 -0.44600
F 	F 	0.73040 0.05430 0.95499 -0.44500
C 	C 	0.10000 0.48310 0.58050 -0.70300
H 	H 	0.10450 0.44120 0.60470 0.22400
H 	H 	0.00030 0.50870 0.57540 0.17800
H 	H 	0.12360 0.43890 0.55660 0.20700
C 	C 	0.21220 0.57770 0.58810 0.24900
C 	C 	0.31230 0.73890 0.59370 -0.00900
H 	H 	0.32370 0.81370 0.59440 0.02100
C 	C 	0.42470 0.67290 0.60030 -0.00700
H 	H 	0.52670 0.69240 0.60620 0.04600
C 	C 	0.44000 0.47120 0.60510 -0.01400
H 	H 	0.39440 0.41150 0.58680 0.03100
H 	H 	0.54380 0.48200 0.59870 0.02100
C 	C 	0.43860 0.44200 0.65020 -0.12500
H 	H 	0.48580 0.37370 0.65340 0.09900
H 	H 	0.33490 0.43280 0.65680 0.06900
C 	C 	0.11830 0.82370 0.48970 -0.82800
H 	H 	0.03730 0.77460 0.49510 0.21400
H 	H 	0.09670 0.85160 0.46270 0.27800
H 	H 	0.21060 0.78640 0.49010 0.26200
C 	C 	0.13400 0.91230 0.52180 0.30300
C 	C 	0.44750 0.98950 0.48110 -0.12100
H 	H 	0.49390 0.01800 0.45770 0.09100
H 	H 	0.43290 0.91200 0.47550 0.08200
C 	C 	0.29570 0.03640 0.48310 -0.00500
H 	H 	0.23320 0.01370 0.45750 0.02600
H 	H 	0.30820 0.11450 0.48430 0.00700
C 	C 	0.21310 0.06600 0.55580 -0.00300
H 	H 	0.26000 0.13380 0.56270 0.05300
C 	C 	0.12910 0.00950 0.58020 -0.00900
H 	H 	0.10810 0.03190 0.60720 0.05200
C 	C 	0.74610 0.92860 0.62850 0.45500
C 	C 	0.60530 0.95670 0.64960 -0.23400
C 	C 	0.52990 0.04920 0.64280 0.24400
C 	C 	0.40520 0.07530 0.66230 0.26900
C 	C 	0.34690 0.00830 0.69051 -0.25100
C 	C 	0.42180 0.91580 0.69770 0.27500
C 	C 	0.54730 0.89210 0.67750 0.24500
C 	C 	0.20730 0.03740 0.71220 0.45400
C 	C 	0.85120 0.14930 0.85110 -0.81500
H 	H 	0.76660 0.19480 0.85040 0.25800
H 	H 	0.86390 0.11850 0.87780 0.29300
H 	H 	0.94070 0.19130 0.84690 0.21500
C 	C 	0.82350 0.06080 0.81710 0.28900
C 	C 	0.82080 0.96420 0.75910 -0.01200
H 	H 	0.83850 0.94080 0.73200 0.04800
C 	C 	0.73750 0.91060 0.78450 -0.00300
H 	H 	0.68730 0.84360 0.77810 0.05200
C 	C 	0.66280 0.93900 0.85690 -0.03100
H 	H 	0.64000 0.86170 0.85390 0.02000
H 	H 	0.73070 0.95410 0.88210 0.05800
C 	C 	0.51810 0.99610 0.86200 -0.10200
H 	H 	0.54210 0.07260 0.86800 0.07800
H 	H 	0.47180 0.96910 0.88570 0.07900
C 	C 	0.40700 0.98120 0.82400 -0.11900
H 	H 	0.45190 0.01340 0.80110 0.08300
H 	H 	0.39180 0.90440 0.81660 0.08200
C 	C 	0.85590 0.48780 0.75200 -0.67400
H 	H 	0.84810 0.53000 0.72790 0.21400
H 	H 	0.83520 0.53160 0.77630 0.19400
H 	H 	0.95600 0.46220 0.75610 0.16400
C 	C 	0.74290 0.39250 0.74520 0.23700
C 	C 	0.64120 0.23280 0.74230 -0.00800
H 	H 	0.62890 0.15840 0.74340 0.02000
C 	C 	0.52880 0.29880 0.73290 -0.00700
H 	H 	0.42710 0.27930 0.72630 0.05200
C 	C 	0.51670 0.49780 0.72560 -0.02500
H 	H 	0.41280 0.48780 0.73200 0.02800
H 	H 	0.56260 0.55820 0.74350 0.03800
C 	C 	0.51840 0.52490 0.68000 -0.10600
H 	H 	0.62230 0.53340 0.67350 0.06000
H 	H 	0.47190 0.59330 0.67640 0.09300
C 	C 	0.73300 0.84400 0.98590 0.45000
C 	C 	0.61070 0.92400 0.99340 -0.22900
C 	C 	0.49450 0.90370 0.01720 0.26400
C 	C 	0.61230 0.02470 0.97650 0.24400
C 	C 	0.11060 0.45560 0.91560 -0.81300
H 	H 	0.16210 0.39510 0.90480 0.25900
H 	H 	0.08340 0.44270 0.94320 0.23900
H 	H 	0.02120 0.46530 0.89750 0.20900
C 	C 	0.20950 0.55240 0.91760 0.29400
C 	C 	0.30180 0.71590 0.91670 -0.03000
H 	H 	0.30790 0.78980 0.91350 0.02800
C 	C 	0.41850 0.65580 0.92720 0.00400
H 	H 	0.51890 0.67960 0.93320 0.01700
C 	C 	0.44780 0.46070 0.94150 -0.00900
H 	H 	0.40420 0.39360 0.92770 0.04000
H 	H 	0.54960 0.47050 0.93350 0.01700
C 	C 	0.45400 0.45270 0.98720 -0.12200
H 	H 	0.35190 0.45050 0.99550 0.05500
H 	H 	0.49850 0.38540 0.99420 0.09800
C 	C 	0.08220 0.81220 0.82340 -0.80900
H 	H 	0.00470 0.75810 0.82670 0.21600
H 	H 	0.05570 0.84930 0.79860 0.28300
H 	H 	0.17620 0.77850 0.82090 0.26400
C 	C 	0.09740 0.89040 0.86050 0.28800
C 	C 	0.16960 0.03630 0.90190 -0.03600
H 	H 	0.21510 0.10230 0.91250 0.06800
C 	C 	0.25380 0.02760 0.82750 -0.01700
H 	H 	0.19130 0.01020 0.80140 0.02300
H 	H 	0.26610 0.10550 0.83140 0.01300
C 	C 	0.08210 0.96780 0.92180 0.02700
H 	H 	0.05450 0.98130 0.94880 0.03700
