data_crystal

_cell_length_a 18.42840
_cell_length_b 18.42840
_cell_length_c 40.08100
_cell_angle_alpha 90.00000
_cell_angle_beta  90.00000
_cell_angle_gamma 120.00000

_symmetry_space_group_name_	'P 1'
_symmetry_space_group_name_H-M	'P 1'

loop_
_symmetry_equiv_pos_as_xyz
  x,y,z

loop_
_atom_site_label
_atom_site_type_symbol
_atom_site_fract_x
_atom_site_fract_y
_atom_site_fract_z
_atom_site_charge
O 	O 	0.97240 0.56120 0.04305 -0.40800
O 	O 	0.89150 0.52000 0.99807 -0.41300
C 	C 	0.87460 0.61960 0.07318 -0.01600
H 	H 	0.92450 0.63200 0.08370 0.05600
C 	C 	0.85500 0.57860 0.04223 -0.09300
C 	C 	0.90970 0.55040 0.02686 0.37300
O 	O 	0.63907 0.89453 0.37638 -0.40800
O 	O 	0.55817 0.85333 0.33140 -0.41300
C 	C 	0.54127 0.95293 0.40651 -0.01600
H 	H 	0.59117 0.96533 0.41703 0.05600
C 	C 	0.52167 0.91193 0.37556 -0.09300
C 	C 	0.57637 0.88373 0.36019 0.37300
O 	O 	0.30573 0.22787 0.70972 -0.40800
O 	O 	0.22483 0.18667 0.66474 -0.41300
C 	C 	0.20793 0.28627 0.73985 -0.01700
H 	H 	0.25783 0.29867 0.75037 0.05500
C 	C 	0.18833 0.24527 0.70890 -0.09400
C 	C 	0.24303 0.21707 0.69353 0.37200
O 	O 	0.43880 0.41120 0.04305 -0.40900
O 	O 	0.48000 0.37150 0.99807 -0.41400
C 	C 	0.38040 0.25500 0.07318 -0.01700
H 	H 	0.36800 0.29250 0.08370 0.05500
C 	C 	0.42140 0.27640 0.04223 -0.09400
C 	C 	0.44960 0.35930 0.02686 0.37200
O 	O 	0.10547 0.74453 0.37638 -0.40900
O 	O 	0.14667 0.70483 0.33140 -0.41400
C 	C 	0.04707 0.58833 0.40651 -0.01700
H 	H 	0.03467 0.62583 0.41703 0.05500
C 	C 	0.08807 0.60973 0.37556 -0.09400
C 	C 	0.11627 0.69263 0.36019 0.37200
O 	O 	0.77213 0.07787 0.70972 -0.40900
O 	O 	0.81333 0.03817 0.66474 -0.41400
C 	C 	0.71373 0.92167 0.73985 -0.01700
H 	H 	0.70133 0.95917 0.75037 0.05500
C 	C 	0.75473 0.94307 0.70890 -0.09400
C 	C 	0.78293 0.02597 0.69353 0.37100
O 	O 	0.58880 0.02760 0.04305 -0.40900
O 	O 	0.62850 0.10850 0.99807 -0.41400
C 	C 	0.74500 0.12540 0.07318 -0.01700
H 	H 	0.70750 0.07550 0.08370 0.05500
C 	C 	0.72360 0.14500 0.04223 -0.09400
C 	C 	0.64070 0.09030 0.02686 0.37200
O 	O 	0.25547 0.36093 0.37638 -0.40900
O 	O 	0.29517 0.44183 0.33140 -0.41400
C 	C 	0.41167 0.45873 0.40651 -0.01700
H 	H 	0.37417 0.40883 0.41703 0.05500
C 	C 	0.39027 0.47833 0.37556 -0.09400
C 	C 	0.30737 0.42363 0.36019 0.37200
O 	O 	0.92213 0.69427 0.70972 -0.40900
O 	O 	0.96183 0.77517 0.66474 -0.41400
C 	C 	0.07833 0.79207 0.73985 -0.01700
H 	H 	0.04083 0.74217 0.75037 0.05500
C 	C 	0.05693 0.81167 0.70890 -0.09400
C 	C 	0.97403 0.75697 0.69353 0.37100
O 	O 	0.56120 0.97240 0.95695 -0.40900
O 	O 	0.52000 0.89150 0.00193 -0.41400
C 	C 	0.61960 0.87460 0.92682 -0.01700
H 	H 	0.63200 0.92450 0.91630 0.05500
C 	C 	0.57860 0.85500 0.95777 -0.09400
C 	C 	0.55040 0.90970 0.97314 0.37200
O 	O 	0.22787 0.30573 0.29028 -0.40900
O 	O 	0.18667 0.22483 0.33526 -0.41400
C 	C 	0.28627 0.20793 0.26015 -0.01700
H 	H 	0.29867 0.25783 0.24963 0.05500
C 	C 	0.24527 0.18833 0.29110 -0.09400
C 	C 	0.21707 0.24303 0.30647 0.37200
O 	O 	0.89453 0.63907 0.62362 -0.40900
O 	O 	0.85333 0.55817 0.66860 -0.41400
C 	C 	0.95293 0.54127 0.59349 -0.01700
H 	H 	0.96533 0.59117 0.58297 0.05500
C 	C 	0.91193 0.52167 0.62444 -0.09400
C 	C 	0.88373 0.57637 0.63981 0.37200
O 	O 	0.41120 0.43880 0.95695 -0.40900
O 	O 	0.37150 0.48000 0.00193 -0.41400
C 	C 	0.25500 0.38040 0.92682 -0.01700
H 	H 	0.29250 0.36800 0.91630 0.05500
C 	C 	0.27640 0.42140 0.95777 -0.09400
C 	C 	0.35930 0.44960 0.97314 0.37200
O 	O 	0.07787 0.77213 0.29028 -0.40900
O 	O 	0.03817 0.81333 0.33526 -0.41400
C 	C 	0.92167 0.71373 0.26015 -0.01700
H 	H 	0.95917 0.70133 0.24963 0.05500
C 	C 	0.94307 0.75473 0.29110 -0.09400
C 	C 	0.02597 0.78293 0.30647 0.37100
O 	O 	0.74453 0.10547 0.62362 -0.40900
O 	O 	0.70483 0.14667 0.66860 -0.41400
C 	C 	0.58833 0.04707 0.59349 -0.01700
H 	H 	0.62583 0.03467 0.58297 0.05500
C 	C 	0.60973 0.08807 0.62444 -0.09400
C 	C 	0.69263 0.11627 0.63981 0.37200
O 	O 	0.02760 0.58880 0.95695 -0.40900
O 	O 	0.10850 0.62850 0.00193 -0.41400
C 	C 	0.12540 0.74500 0.92682 -0.01700
H 	H 	0.07550 0.70750 0.91630 0.05500
C 	C 	0.14500 0.72360 0.95777 -0.09400
C 	C 	0.09030 0.64070 0.97314 0.37200
O 	O 	0.69427 0.92213 0.29028 -0.40900
O 	O 	0.77517 0.96183 0.33526 -0.41400
C 	C 	0.79207 0.07833 0.26015 -0.01700
H 	H 	0.74217 0.04083 0.24963 0.05500
C 	C 	0.81167 0.05693 0.29110 -0.09400
C 	C 	0.75697 0.97403 0.30647 0.37100
O 	O 	0.36093 0.25547 0.62362 -0.40900
O 	O 	0.44183 0.29517 0.66860 -0.41400
C 	C 	0.45873 0.41167 0.59349 -0.01700
H 	H 	0.40883 0.37417 0.58297 0.05500
C 	C 	0.47833 0.39027 0.62444 -0.09400
C 	C 	0.42363 0.30737 0.63981 0.37200
O 	O 	0.02760 0.43880 0.95695 -0.40900
O 	O 	0.10850 0.48000 0.00193 -0.41400
C 	C 	0.12540 0.38040 0.92682 -0.01700
H 	H 	0.07550 0.36800 0.91630 0.05500
C 	C 	0.14500 0.42140 0.95777 -0.09400
C 	C 	0.09030 0.44960 0.97314 0.37200
O 	O 	0.69427 0.77213 0.29028 -0.40900
O 	O 	0.77517 0.81333 0.33526 -0.41400
C 	C 	0.79207 0.71373 0.26015 -0.01700
H 	H 	0.74217 0.70133 0.24963 0.05500
C 	C 	0.81167 0.75473 0.29110 -0.09400
C 	C 	0.75697 0.78293 0.30647 0.37200
O 	O 	0.36093 0.10547 0.62362 -0.40900
O 	O 	0.44183 0.14667 0.66860 -0.41400
C 	C 	0.45873 0.04707 0.59349 -0.01700
H 	H 	0.40883 0.03467 0.58297 0.05500
C 	C 	0.47833 0.08807 0.62444 -0.09400
C 	C 	0.42363 0.11627 0.63981 0.37200
O 	O 	0.56120 0.58880 0.95695 -0.40900
O 	O 	0.52000 0.62850 0.00193 -0.41400
C 	C 	0.61960 0.74500 0.92682 -0.01700
H 	H 	0.63200 0.70750 0.91630 0.05500
C 	C 	0.57860 0.72360 0.95777 -0.09400
C 	C 	0.55040 0.64070 0.97314 0.37200
O 	O 	0.22787 0.92213 0.29028 -0.40900
O 	O 	0.18667 0.96183 0.33526 -0.41400
C 	C 	0.28627 0.07833 0.26015 -0.01700
H 	H 	0.29867 0.04083 0.24963 0.05500
C 	C 	0.24527 0.05693 0.29110 -0.09400
C 	C 	0.21707 0.97403 0.30647 0.37100
O 	O 	0.89453 0.25547 0.62362 -0.40900
O 	O 	0.85333 0.29517 0.66860 -0.41400
C 	C 	0.95293 0.41167 0.59349 -0.01700
H 	H 	0.96533 0.37417 0.58297 0.05500
C 	C 	0.91193 0.39027 0.62444 -0.09400
C 	C 	0.88373 0.30737 0.63981 0.37200
O 	O 	0.41120 0.97240 0.95695 -0.40900
O 	O 	0.37150 0.89150 0.00193 -0.41400
C 	C 	0.25500 0.87460 0.92682 -0.01700
H 	H 	0.29250 0.92450 0.91630 0.05500
C 	C 	0.27640 0.85500 0.95777 -0.09400
C 	C 	0.35930 0.90970 0.97314 0.37200
O 	O 	0.07787 0.30573 0.29028 -0.40900
O 	O 	0.03817 0.22483 0.33526 -0.41400
C 	C 	0.92167 0.20793 0.26015 -0.01700
H 	H 	0.95917 0.25783 0.24963 0.05500
C 	C 	0.94307 0.18833 0.29110 -0.09400
C 	C 	0.02597 0.24303 0.30647 0.37100
O 	O 	0.74453 0.63907 0.62362 -0.40900
O 	O 	0.70483 0.55817 0.66860 -0.41400
C 	C 	0.58833 0.54127 0.59349 -0.01700
H 	H 	0.62583 0.59117 0.58297 0.05500
C 	C 	0.60973 0.52167 0.62444 -0.09400
C 	C 	0.69263 0.57637 0.63981 0.37200
O 	O 	0.43880 0.02760 0.04305 -0.40900
O 	O 	0.48000 0.10850 0.99807 -0.41400
C 	C 	0.38040 0.12540 0.07318 -0.01700
H 	H 	0.36800 0.07550 0.08370 0.05500
C 	C 	0.42140 0.14500 0.04223 -0.09400
C 	C 	0.44960 0.09030 0.02686 0.37200
O 	O 	0.10547 0.36093 0.37638 -0.40900
O 	O 	0.14667 0.44183 0.33140 -0.41400
C 	C 	0.04707 0.45873 0.40651 -0.01700
H 	H 	0.03467 0.40883 0.41703 0.05500
C 	C 	0.08807 0.47833 0.37556 -0.09400
C 	C 	0.11627 0.42363 0.36019 0.37200
O 	O 	0.77213 0.69427 0.70972 -0.40900
O 	O 	0.81333 0.77517 0.66474 -0.41400
C 	C 	0.71373 0.79207 0.73985 -0.01700
H 	H 	0.70133 0.74217 0.75037 0.05500
C 	C 	0.75473 0.81167 0.70890 -0.09400
C 	C 	0.78293 0.75697 0.69353 0.37200
O 	O 	0.58880 0.56120 0.04305 -0.40900
O 	O 	0.62850 0.52000 0.99807 -0.41400
C 	C 	0.74500 0.61960 0.07318 -0.01700
H 	H 	0.70750 0.63200 0.08370 0.05500
C 	C 	0.72360 0.57860 0.04223 -0.09400
C 	C 	0.64070 0.55040 0.02686 0.37200
O 	O 	0.25547 0.89453 0.37638 -0.40900
O 	O 	0.29517 0.85333 0.33140 -0.41400
C 	C 	0.41167 0.95293 0.40651 -0.01700
H 	H 	0.37417 0.96533 0.41703 0.05500
C 	C 	0.39027 0.91193 0.37556 -0.09400
C 	C 	0.30737 0.88373 0.36019 0.37200
O 	O 	0.92213 0.22787 0.70972 -0.40900
O 	O 	0.96183 0.18667 0.66474 -0.41400
C 	C 	0.07833 0.28627 0.73985 -0.01700
H 	H 	0.04083 0.29867 0.75037 0.05500
C 	C 	0.05693 0.24527 0.70890 -0.09400
C 	C 	0.97403 0.21707 0.69353 0.37100
O 	O 	0.97240 0.41120 0.04305 -0.40900
O 	O 	0.89150 0.37150 0.99807 -0.41400
C 	C 	0.87460 0.25500 0.07318 -0.01700
H 	H 	0.92450 0.29250 0.08370 0.05500
C 	C 	0.85500 0.27640 0.04223 -0.09400
C 	C 	0.90970 0.35930 0.02686 0.37200
O 	O 	0.63907 0.74453 0.37638 -0.40900
O 	O 	0.55817 0.70483 0.33140 -0.41400
C 	C 	0.54127 0.58833 0.40651 -0.01700
H 	H 	0.59117 0.62583 0.41703 0.05500
C 	C 	0.52167 0.60973 0.37556 -0.09400
C 	C 	0.57637 0.69263 0.36019 0.37200
O 	O 	0.30573 0.07787 0.70972 -0.40900
O 	O 	0.22483 0.03817 0.66474 -0.41400
C 	C 	0.20793 0.92167 0.73985 -0.01700
H 	H 	0.25783 0.95917 0.75037 0.05500
C 	C 	0.18833 0.94307 0.70890 -0.09400
C 	C 	0.24303 0.02597 0.69353 0.37100
Cu	Cu	0.04881 0.52441 0.02667 0.90900
Cu	Cu	0.71548 0.85774 0.36000 0.90900
Cu	Cu	0.38214 0.19107 0.69334 0.90900
Cu	Cu	0.47559 0.52441 0.02667 0.90900
Cu	Cu	0.14226 0.85774 0.36000 0.90900
Cu	Cu	0.80893 0.19107 0.69334 0.90900
Cu	Cu	0.47559 0.95119 0.02667 0.90900
Cu	Cu	0.14226 0.28452 0.36000 0.90900
Cu	Cu	0.80893 0.61786 0.69334 0.90900
Cu	Cu	0.52441 0.04881 0.97333 0.90900
Cu	Cu	0.19107 0.38214 0.30666 0.90900
Cu	Cu	0.85774 0.71548 0.64000 0.90900
Cu	Cu	0.52441 0.47559 0.97333 0.90900
Cu	Cu	0.19107 0.80893 0.30666 0.90900
Cu	Cu	0.85774 0.14226 0.64000 0.90900
Cu	Cu	0.95119 0.47560 0.97333 0.90900
Cu	Cu	0.61786 0.80893 0.30666 0.90900
Cu	Cu	0.28452 0.14226 0.64000 0.90900
C 	C 	0.82285 0.64570 0.15140 0.01500
C 	C 	0.84325 0.68650 0.12160 0.01100
C 	C 	0.88575 0.77150 0.12080 -0.08200
H 	H 	0.90020 0.80040 0.10070 0.06500
C 	C 	0.90775 0.81550 0.15210 0.00400
H 	H 	0.93690 0.87380 0.15220 0.02900
C 	C 	0.77955 0.55910 0.02741 0.03500
H 	H 	0.76600 0.53200 0.00690 0.04900
C 	C 	0.77965 0.55930 0.15210 -0.08500
H 	H 	0.76475 0.52950 0.13220 0.06700
C 	C 	0.82090 0.64180 0.08820 -0.00300
C 	C 	0.48952 0.97903 0.48473 0.01500
C 	C 	0.50992 0.01983 0.45493 0.01100
C 	C 	0.55242 0.10483 0.45413 -0.08200
H 	H 	0.56687 0.13373 0.43403 0.06500
C 	C 	0.57442 0.14883 0.48543 0.00400
H 	H 	0.60357 0.20713 0.48553 0.02900
C 	C 	0.44622 0.89243 0.36074 0.03500
H 	H 	0.43267 0.86533 0.34023 0.04900
C 	C 	0.44632 0.89263 0.48543 -0.08500
H 	H 	0.43142 0.86283 0.46553 0.06700
C 	C 	0.48757 0.97513 0.42153 -0.00300
C 	C 	0.15618 0.31237 0.81807 0.01500
C 	C 	0.17658 0.35317 0.78827 0.01100
C 	C 	0.21908 0.43817 0.78747 -0.08200
H 	H 	0.23353 0.46707 0.76737 0.06500
C 	C 	0.24108 0.48217 0.81877 0.00400
H 	H 	0.27023 0.54047 0.81887 0.02900
C 	C 	0.11288 0.22577 0.69408 0.03400
H 	H 	0.09933 0.19867 0.67357 0.04900
C 	C 	0.11298 0.22597 0.81877 -0.08500
H 	H 	0.09808 0.19617 0.79887 0.06700
C 	C 	0.15423 0.30847 0.75487 -0.00300
C 	C 	0.35430 0.17715 0.15140 0.01500
C 	C 	0.31350 0.15675 0.12160 0.01100
C 	C 	0.22850 0.11425 0.12080 -0.08200
H 	H 	0.19960 0.09980 0.10070 0.06500
C 	C 	0.18450 0.09225 0.15210 0.00400
H 	H 	0.12620 0.06310 0.15220 0.02900
C 	C 	0.44090 0.22045 0.02741 0.03500
H 	H 	0.46800 0.23400 0.00690 0.04900
C 	C 	0.44070 0.22035 0.15210 -0.08500
H 	H 	0.47050 0.23525 0.13220 0.06700
C 	C 	0.35820 0.17910 0.08820 -0.00300
C 	C 	0.02097 0.51048 0.48473 0.01500
C 	C 	0.98017 0.49008 0.45493 0.01100
C 	C 	0.89517 0.44758 0.45413 -0.08200
H 	H 	0.86627 0.43313 0.43403 0.06500
C 	C 	0.85117 0.42558 0.48543 0.00400
H 	H 	0.79287 0.39643 0.48553 0.02900
C 	C 	0.10757 0.55378 0.36074 0.03500
H 	H 	0.13467 0.56733 0.34023 0.04900
C 	C 	0.10737 0.55368 0.48543 -0.08500
H 	H 	0.13717 0.56858 0.46553 0.06700
C 	C 	0.02487 0.51243 0.42153 -0.00300
C 	C 	0.68763 0.84382 0.81807 0.01500
C 	C 	0.64683 0.82342 0.78827 0.01100
C 	C 	0.56183 0.78092 0.78747 -0.08200
H 	H 	0.53293 0.76647 0.76737 0.06500
C 	C 	0.51783 0.75892 0.81877 0.00400
H 	H 	0.45953 0.72977 0.81887 0.02900
C 	C 	0.77423 0.88712 0.69408 0.03400
H 	H 	0.80133 0.90067 0.67357 0.04900
C 	C 	0.77403 0.88702 0.81877 -0.08500
H 	H 	0.80383 0.90192 0.79887 0.06700
C 	C 	0.69153 0.84577 0.75487 -0.00300
C 	C 	0.82285 0.17715 0.15140 0.01500
C 	C 	0.84325 0.15675 0.12160 0.01100
C 	C 	0.88575 0.11425 0.12080 -0.08200
H 	H 	0.90020 0.09980 0.10070 0.06500
C 	C 	0.90775 0.09225 0.15210 0.00400
H 	H 	0.93690 0.06310 0.15220 0.02900
C 	C 	0.77955 0.22045 0.02741 0.03500
H 	H 	0.76600 0.23400 0.00690 0.04900
C 	C 	0.77965 0.22035 0.15210 -0.08500
H 	H 	0.76475 0.23525 0.13220 0.06700
C 	C 	0.82090 0.17910 0.08820 -0.00300
C 	C 	0.48952 0.51048 0.48473 0.01500
C 	C 	0.50992 0.49008 0.45493 0.01100
C 	C 	0.55242 0.44758 0.45413 -0.08200
H 	H 	0.56687 0.43313 0.43403 0.06500
C 	C 	0.57442 0.42558 0.48543 0.00400
H 	H 	0.60357 0.39643 0.48553 0.02900
C 	C 	0.44622 0.55378 0.36074 0.03500
H 	H 	0.43267 0.56733 0.34023 0.04900
C 	C 	0.44632 0.55368 0.48543 -0.08500
H 	H 	0.43142 0.56858 0.46553 0.06700
C 	C 	0.48757 0.51243 0.42153 -0.00300
C 	C 	0.15618 0.84382 0.81807 0.01500
C 	C 	0.17658 0.82342 0.78827 0.01100
C 	C 	0.21908 0.78092 0.78747 -0.08200
H 	H 	0.23353 0.76647 0.76737 0.06500
C 	C 	0.24108 0.75892 0.81877 0.00400
H 	H 	0.27023 0.72977 0.81887 0.02900
C 	C 	0.11288 0.88712 0.69408 0.03400
H 	H 	0.09933 0.90067 0.67357 0.04900
C 	C 	0.11298 0.88702 0.81877 -0.08500
H 	H 	0.09808 0.90192 0.79887 0.06700
C 	C 	0.15423 0.84577 0.75487 -0.00300
C 	C 	0.64570 0.82285 0.84860 0.01500
C 	C 	0.68650 0.84325 0.87840 0.01100
C 	C 	0.77150 0.88575 0.87920 -0.08200
H 	H 	0.80040 0.90020 0.89930 0.06500
C 	C 	0.81550 0.90775 0.84790 0.00400
H 	H 	0.87380 0.93690 0.84780 0.02900
C 	C 	0.55910 0.77955 0.97259 0.03500
H 	H 	0.53200 0.76600 0.99310 0.04900
C 	C 	0.55930 0.77965 0.84790 -0.08500
H 	H 	0.52950 0.76475 0.86780 0.06700
C 	C 	0.64180 0.82090 0.91180 -0.00300
C 	C 	0.31237 0.15618 0.18193 0.01500
C 	C 	0.35317 0.17658 0.21173 0.01100
C 	C 	0.43817 0.21908 0.21253 -0.08200
H 	H 	0.46707 0.23353 0.23263 0.06500
C 	C 	0.48217 0.24108 0.18123 0.00400
H 	H 	0.54047 0.27023 0.18113 0.02900
C 	C 	0.22577 0.11288 0.30592 0.03400
H 	H 	0.19867 0.09933 0.32643 0.04900
C 	C 	0.22597 0.11298 0.18123 -0.08500
H 	H 	0.19617 0.09808 0.20113 0.06700
C 	C 	0.30847 0.15423 0.24513 -0.00300
C 	C 	0.97903 0.48952 0.51527 0.01500
C 	C 	0.01983 0.50992 0.54507 0.01100
C 	C 	0.10483 0.55242 0.54587 -0.08200
H 	H 	0.13373 0.56687 0.56597 0.06500
C 	C 	0.14883 0.57442 0.51457 0.00400
H 	H 	0.20713 0.60357 0.51447 0.02900
C 	C 	0.89243 0.44622 0.63926 0.03500
H 	H 	0.86533 0.43267 0.65977 0.04900
C 	C 	0.89263 0.44632 0.51457 -0.08500
H 	H 	0.86283 0.43142 0.53447 0.06700
C 	C 	0.97513 0.48757 0.57847 -0.00300
C 	C 	0.17715 0.35430 0.84860 0.01500
C 	C 	0.15675 0.31350 0.87840 0.01100
C 	C 	0.11425 0.22850 0.87920 -0.08200
H 	H 	0.09980 0.19960 0.89930 0.06500
C 	C 	0.09225 0.18450 0.84790 0.00400
H 	H 	0.06310 0.12620 0.84780 0.02900
C 	C 	0.22045 0.44090 0.97259 0.03500
H 	H 	0.23400 0.46800 0.99310 0.04900
C 	C 	0.22035 0.44070 0.84790 -0.08500
H 	H 	0.23525 0.47050 0.86780 0.06700
C 	C 	0.17910 0.35820 0.91180 -0.00300
C 	C 	0.84382 0.68763 0.18193 0.01500
C 	C 	0.82342 0.64683 0.21173 0.01100
C 	C 	0.78092 0.56183 0.21253 -0.08200
H 	H 	0.76647 0.53293 0.23263 0.06500
C 	C 	0.75892 0.51783 0.18123 0.00400
H 	H 	0.72977 0.45953 0.18113 0.02900
C 	C 	0.88712 0.77423 0.30592 0.03400
H 	H 	0.90067 0.80133 0.32643 0.04900
C 	C 	0.88702 0.77403 0.18123 -0.08500
H 	H 	0.90192 0.80383 0.20113 0.06700
C 	C 	0.84577 0.69153 0.24513 -0.00300
C 	C 	0.51048 0.02097 0.51527 0.01500
C 	C 	0.49008 0.98017 0.54507 0.01100
C 	C 	0.44758 0.89517 0.54587 -0.08200
H 	H 	0.43313 0.86627 0.56597 0.06500
C 	C 	0.42558 0.85117 0.51457 0.00400
H 	H 	0.39643 0.79287 0.51447 0.02900
C 	C 	0.55378 0.10757 0.63926 0.03500
H 	H 	0.56733 0.13467 0.65977 0.04900
C 	C 	0.55368 0.10737 0.51457 -0.08500
H 	H 	0.56858 0.13717 0.53447 0.06700
C 	C 	0.51243 0.02487 0.57847 -0.00300
C 	C 	0.17715 0.82285 0.84860 0.01500
C 	C 	0.15675 0.84325 0.87840 0.01100
C 	C 	0.11425 0.88575 0.87920 -0.08200
H 	H 	0.09980 0.90020 0.89930 0.06500
C 	C 	0.09225 0.90775 0.84790 0.00400
H 	H 	0.06310 0.93690 0.84780 0.02900
C 	C 	0.22045 0.77955 0.97259 0.03500
H 	H 	0.23400 0.76600 0.99310 0.04900
C 	C 	0.22035 0.77965 0.84790 -0.08500
H 	H 	0.23525 0.76475 0.86780 0.06700
C 	C 	0.17910 0.82090 0.91180 -0.00300
C 	C 	0.84382 0.15618 0.18193 0.01500
C 	C 	0.82342 0.17658 0.21173 0.01100
C 	C 	0.78092 0.21908 0.21253 -0.08200
H 	H 	0.76647 0.23353 0.23263 0.06500
C 	C 	0.75892 0.24108 0.18123 0.00400
H 	H 	0.72977 0.27023 0.18113 0.02900
C 	C 	0.88712 0.11288 0.30592 0.03400
H 	H 	0.90067 0.09933 0.32643 0.04900
C 	C 	0.88702 0.11298 0.18123 -0.08500
H 	H 	0.90192 0.09808 0.20113 0.06700
C 	C 	0.84577 0.15423 0.24513 -0.00300
C 	C 	0.51048 0.48952 0.51527 0.01500
C 	C 	0.49008 0.50992 0.54507 0.01100
C 	C 	0.44758 0.55242 0.54587 -0.08200
H 	H 	0.43313 0.56687 0.56597 0.06500
C 	C 	0.42558 0.57442 0.51457 0.00400
H 	H 	0.39643 0.60357 0.51447 0.02900
C 	C 	0.55378 0.44622 0.63926 0.03500
H 	H 	0.56733 0.43267 0.65977 0.04900
C 	C 	0.55368 0.44632 0.51457 -0.08500
H 	H 	0.56858 0.43142 0.53447 0.06700
C 	C 	0.51243 0.48757 0.57847 -0.00300
