data_crystal

_cell_length_a 7.33540
_cell_length_b 10.17900
_cell_length_c 18.14000
_cell_angle_alpha 90.00000
_cell_angle_beta  90.00000
_cell_angle_gamma 94.33700

_symmetry_space_group_name_	'P 1'
_symmetry_space_group_name_H-M	'P 1'

loop_
_symmetry_equiv_pos_as_xyz
  x,y,z

loop_
_atom_site_label
_atom_site_type_symbol
_atom_site_fract_x
_atom_site_fract_y
_atom_site_fract_z
_atom_site_charge
Cu	Cu	0.86543 0.21696 0.90551 0.91700
Cu	Cu	0.04321 0.93155 0.93150 0.93300
Cu	Cu	0.63457 0.28304 0.40551 0.91800
Cu	Cu	0.45679 0.56845 0.43150 0.93900
Cu	Cu	0.13457 0.78304 0.09449 0.91800
Cu	Cu	0.95679 0.06845 0.06850 0.93400
Cu	Cu	0.36543 0.71696 0.59449 0.91800
Cu	Cu	0.54321 0.43155 0.56850 0.93900
H 	H 	0.78240 0.16590 0.69230 0.04900
H 	H 	0.93730 0.79620 0.70680 0.03500
H 	H 	0.78060 0.93860 0.51110 0.02900
H 	H 	0.71760 0.33410 0.19230 0.04700
H 	H 	0.56270 0.70380 0.20680 0.03300
H 	H 	0.71940 0.56140 0.01110 0.02900
H 	H 	0.21760 0.83410 0.30770 0.04900
H 	H 	0.06270 0.20380 0.29320 0.03500
H 	H 	0.21940 0.06140 0.48890 0.02900
H 	H 	0.28240 0.66590 0.80770 0.04700
H 	H 	0.43730 0.29620 0.79320 0.03300
H 	H 	0.28060 0.43860 0.98890 0.02900
C 	C 	0.86150 0.84960 0.60410 -0.14700
C 	C 	0.77100 0.06910 0.59500 -0.12800
C 	C 	0.80360 0.08610 0.67000 0.05800
C 	C 	0.86790 0.98480 0.71240 -0.11700
C 	C 	0.90200 0.00910 0.79290 0.37800
C 	C 	0.89600 0.86510 0.67920 0.06100
C 	C 	0.80090 0.95040 0.56130 0.06500
C 	C 	0.69870 0.18210 0.55340 0.39000
C 	C 	0.63850 0.65040 0.10410 -0.14900
C 	C 	0.72900 0.43090 0.09500 -0.12600
C 	C 	0.69640 0.41390 0.17000 0.06500
C 	C 	0.63210 0.51520 0.21240 -0.12700
C 	C 	0.59800 0.49090 0.29290 0.38800
C 	C 	0.60400 0.63490 0.17920 0.06500
C 	C 	0.69910 0.54960 0.06130 0.06200
C 	C 	0.80130 0.31790 0.05340 0.38600
C 	C 	0.13850 0.15040 0.39590 -0.14700
C 	C 	0.22900 0.93090 0.40500 -0.12800
C 	C 	0.19640 0.91390 0.33000 0.05800
C 	C 	0.13210 0.01520 0.28760 -0.11700
C 	C 	0.09800 0.99090 0.20710 0.37800
C 	C 	0.10400 0.13490 0.32080 0.06100
C 	C 	0.19910 0.04960 0.43870 0.06500
C 	C 	0.30130 0.81790 0.44660 0.39000
C 	C 	0.36150 0.34960 0.89590 -0.14900
C 	C 	0.27100 0.56910 0.90500 -0.12600
C 	C 	0.30360 0.58610 0.83000 0.06500
C 	C 	0.36790 0.48480 0.78760 -0.12700
C 	C 	0.40200 0.50910 0.70710 0.38800
C 	C 	0.39600 0.36510 0.82080 0.06500
C 	C 	0.30090 0.45040 0.93870 0.06200
C 	C 	0.19870 0.68210 0.94660 0.38600
S 	S 	0.87940 0.69095 0.56537 0.54300
S 	S 	0.62060 0.80905 0.06537 0.54100
S 	S 	0.12060 0.30905 0.43463 0.54300
S 	S 	0.37940 0.19095 0.93463 0.54100
O 	O 	0.94740 0.91440 0.83196 -0.37600
O 	O 	0.87060 0.05740 0.96521 -0.48600
O 	O 	0.65880 0.16330 0.48647 -0.43000
O 	O 	0.88120 0.12520 0.81393 -0.41200
O 	O 	0.87030 0.70190 0.48720 -0.28200
O 	O 	0.68560 0.28590 0.58960 -0.39200
O 	O 	0.72630 0.61210 0.59730 -0.37500
O 	O 	0.04920 0.64510 0.59270 -0.31400
O 	O 	0.55260 0.58560 0.33196 -0.38300
O 	O 	0.62940 0.44260 0.46521 -0.48700
O 	O 	0.84120 0.33670 0.98647 -0.42600
O 	O 	0.61880 0.37480 0.31393 -0.41500
O 	O 	0.62970 0.79810 0.98720 -0.28200
O 	O 	0.81440 0.21410 0.08960 -0.39400
O 	O 	0.77370 0.88790 0.09730 -0.37300
O 	O 	0.45080 0.85490 0.09270 -0.31100
O 	O 	0.05260 0.08560 0.16804 -0.37600
O 	O 	0.12940 0.94260 0.03479 -0.48600
O 	O 	0.34120 0.83670 0.51353 -0.43000
O 	O 	0.11880 0.87480 0.18607 -0.41200
O 	O 	0.12970 0.29810 0.51280 -0.28200
O 	O 	0.31440 0.71410 0.41040 -0.39200
O 	O 	0.27370 0.38790 0.40270 -0.37500
O 	O 	0.95080 0.35490 0.40730 -0.31400
O 	O 	0.44740 0.41440 0.66804 -0.38300
O 	O 	0.37060 0.55740 0.53479 -0.48700
O 	O 	0.15880 0.66330 0.01353 -0.42600
O 	O 	0.38120 0.62520 0.68607 -0.41500
O 	O 	0.37030 0.20190 0.01280 -0.28200
O 	O 	0.18560 0.78590 0.91040 -0.39400
O 	O 	0.22630 0.11210 0.90270 -0.37300
O 	O 	0.54920 0.14510 0.90730 -0.31100
