data_crystal

_cell_length_a 7.31500
_cell_length_b 10.21900
_cell_length_c 18.16800
_cell_angle_alpha 90.00000
_cell_angle_beta  90.00000
_cell_angle_gamma 94.16300

_symmetry_space_group_name_	'P 1'
_symmetry_space_group_name_H-M	'P 1'

loop_
_symmetry_equiv_pos_as_xyz
  x,y,z

loop_
_atom_site_label
_atom_site_type_symbol
_atom_site_fract_x
_atom_site_fract_y
_atom_site_fract_z
_atom_site_charge
Cu	Cu	0.86452 0.21556 0.90533 0.91800
Cu	Cu	0.03853 0.92958 0.93157 0.93300
Cu	Cu	0.63548 0.28444 0.40533 0.91800
Cu	Cu	0.46147 0.57042 0.43157 0.93800
Cu	Cu	0.13548 0.78444 0.09467 0.91800
Cu	Cu	0.96147 0.07042 0.06843 0.93300
Cu	Cu	0.36452 0.71556 0.59467 0.91800
Cu	Cu	0.53853 0.42958 0.56843 0.93800
H 	H 	0.78190 0.16500 0.69150 0.04800
H 	H 	0.93400 0.79760 0.70660 0.03600
H 	H 	0.77190 0.93730 0.51080 0.03100
H 	H 	0.71810 0.33500 0.19150 0.04500
H 	H 	0.56600 0.70240 0.20660 0.03400
H 	H 	0.72810 0.56270 0.01080 0.03100
H 	H 	0.21810 0.83500 0.30850 0.04800
H 	H 	0.06600 0.20240 0.29340 0.03600
H 	H 	0.22810 0.06270 0.48920 0.03100
H 	H 	0.28190 0.66500 0.80850 0.04500
H 	H 	0.43400 0.29760 0.79340 0.03400
H 	H 	0.27190 0.43730 0.98920 0.03100
C 	C 	0.85660 0.84970 0.60430 -0.13800
C 	C 	0.76680 0.06760 0.59520 -0.12800
C 	C 	0.80100 0.08470 0.66970 0.06100
C 	C 	0.86300 0.98450 0.71240 -0.11900
C 	C 	0.89880 0.00810 0.79250 0.37900
C 	C 	0.89160 0.86600 0.67910 0.05900
C 	C 	0.79420 0.94950 0.56080 0.05800
C 	C 	0.69270 0.17840 0.55250 0.39400
C 	C 	0.64340 0.65030 0.10430 -0.13900
C 	C 	0.73320 0.43240 0.09520 -0.12700
C 	C 	0.69900 0.41530 0.16970 0.06800
C 	C 	0.63700 0.51550 0.21240 -0.13000
C 	C 	0.60120 0.49190 0.29250 0.38900
C 	C 	0.60840 0.63400 0.17910 0.06300
C 	C 	0.70580 0.55050 0.06080 0.05600
C 	C 	0.80730 0.32160 0.05250 0.39000
C 	C 	0.14340 0.15030 0.39570 -0.13800
C 	C 	0.23320 0.93240 0.40480 -0.12800
C 	C 	0.19900 0.91530 0.33030 0.06100
C 	C 	0.13700 0.01550 0.28760 -0.11900
C 	C 	0.10120 0.99190 0.20750 0.37900
C 	C 	0.10840 0.13400 0.32090 0.05900
C 	C 	0.20580 0.05050 0.43920 0.05800
C 	C 	0.30730 0.82160 0.44750 0.39400
C 	C 	0.35660 0.34970 0.89570 -0.13900
C 	C 	0.26680 0.56760 0.90480 -0.12700
C 	C 	0.30100 0.58470 0.83030 0.06800
C 	C 	0.36300 0.48450 0.78760 -0.13000
C 	C 	0.39880 0.50810 0.70750 0.38900
C 	C 	0.39160 0.36600 0.82090 0.06300
C 	C 	0.29420 0.44950 0.93920 0.05600
C 	C 	0.19270 0.67840 0.94750 0.39000
S 	S 	0.87580 0.69063 0.56487 0.52100
S 	S 	0.62420 0.80937 0.06487 0.51900
S 	S 	0.12420 0.30937 0.43513 0.52100
S 	S 	0.37580 0.19063 0.93513 0.51900
O 	O 	0.94230 0.91480 0.83240 -0.37800
O 	O 	0.86810 0.05810 0.96550 -0.48400
O 	O 	0.65750 0.16260 0.48590 -0.43200
O 	O 	0.87670 0.12410 0.81370 -0.41000
O 	O 	0.85690 0.69970 0.48680 -0.28100
O 	O 	0.67500 0.28170 0.58940 -0.39300
O 	O 	0.72580 0.61100 0.59910 -0.36600
O 	O 	0.05130 0.64640 0.59080 -0.30800
O 	O 	0.55770 0.58520 0.33240 -0.38500
O 	O 	0.63190 0.44190 0.46550 -0.48500
O 	O 	0.84250 0.33740 0.98590 -0.42800
O 	O 	0.62330 0.37590 0.31370 -0.41300
O 	O 	0.64310 0.80030 0.98680 -0.28100
O 	O 	0.82500 0.21830 0.08940 -0.39500
O 	O 	0.77420 0.88900 0.09910 -0.36400
O 	O 	0.44870 0.85360 0.09080 -0.30500
O 	O 	0.05770 0.08520 0.16760 -0.37800
O 	O 	0.13190 0.94190 0.03450 -0.48400
O 	O 	0.34250 0.83740 0.51410 -0.43200
O 	O 	0.12330 0.87590 0.18630 -0.41000
O 	O 	0.14310 0.30030 0.51320 -0.28100
O 	O 	0.32500 0.71830 0.41060 -0.39300
O 	O 	0.27420 0.38900 0.40090 -0.36600
O 	O 	0.94870 0.35360 0.40920 -0.30800
O 	O 	0.44230 0.41480 0.66760 -0.38500
O 	O 	0.36810 0.55810 0.53450 -0.48500
O 	O 	0.15750 0.66260 0.01410 -0.42800
O 	O 	0.37670 0.62410 0.68630 -0.41300
O 	O 	0.35690 0.19970 0.01320 -0.28100
O 	O 	0.17500 0.78170 0.91060 -0.39500
O 	O 	0.22580 0.11100 0.90090 -0.36400
O 	O 	0.55130 0.14640 0.90920 -0.30500
