data_crystal

_cell_length_a 7.30200
_cell_length_b 10.26700
_cell_length_c 18.15000
_cell_angle_alpha 90.00000
_cell_angle_beta  90.00000
_cell_angle_gamma 94.01000

_symmetry_space_group_name_	'P 1'
_symmetry_space_group_name_H-M	'P 1'

loop_
_symmetry_equiv_pos_as_xyz
  x,y,z

loop_
_atom_site_label
_atom_site_type_symbol
_atom_site_fract_x
_atom_site_fract_y
_atom_site_fract_z
_atom_site_charge
Cu	Cu	0.86410 0.21500 0.90526 0.91400
Cu	Cu	0.03750 0.92920 0.93166 0.93500
Cu	Cu	0.63590 0.28500 0.40526 0.91400
Cu	Cu	0.46250 0.57080 0.43166 0.94000
Cu	Cu	0.13590 0.78500 0.09474 0.91400
Cu	Cu	0.96250 0.07080 0.06834 0.93500
Cu	Cu	0.36410 0.71500 0.59474 0.91400
Cu	Cu	0.53750 0.42920 0.56834 0.94000
H 	H 	0.78080 0.16800 0.69040 0.05200
H 	H 	0.94020 0.80270 0.70660 0.03700
H 	H 	0.77700 0.94630 0.51070 0.03100
H 	H 	0.71920 0.33200 0.19040 0.04900
H 	H 	0.55980 0.69730 0.20660 0.03500
H 	H 	0.72300 0.55370 0.01070 0.03100
H 	H 	0.21920 0.83200 0.30960 0.05200
H 	H 	0.05980 0.19730 0.29340 0.03700
H 	H 	0.22300 0.05370 0.48930 0.03100
H 	H 	0.28080 0.66800 0.80960 0.04900
H 	H 	0.44020 0.30270 0.79340 0.03500
H 	H 	0.27700 0.44630 0.98930 0.03100
C 	C 	0.85500 0.85140 0.60360 -0.13700
C 	C 	0.76500 0.06700 0.59450 -0.12700
C 	C 	0.79900 0.08800 0.66900 0.05400
C 	C 	0.86100 0.98510 0.71150 -0.10900
C 	C 	0.89600 0.00460 0.79300 0.37100
C 	C 	0.89300 0.86920 0.67920 0.05200
C 	C 	0.79500 0.95600 0.56120 0.06500
C 	C 	0.69500 0.18500 0.55330 0.41700
C 	C 	0.64500 0.64860 0.10360 -0.13800
C 	C 	0.73500 0.43300 0.09450 -0.12500
C 	C 	0.70100 0.41200 0.16900 0.06000
C 	C 	0.63900 0.51490 0.21150 -0.11900
C 	C 	0.60400 0.49540 0.29300 0.38200
C 	C 	0.60700 0.63080 0.17920 0.05600
C 	C 	0.70500 0.54400 0.06120 0.06100
C 	C 	0.80500 0.31500 0.05330 0.41300
C 	C 	0.14500 0.14860 0.39640 -0.13700
C 	C 	0.23500 0.93300 0.40550 -0.12700
C 	C 	0.20100 0.91200 0.33100 0.05400
C 	C 	0.13900 0.01490 0.28850 -0.10900
C 	C 	0.10400 0.99540 0.20700 0.37100
C 	C 	0.10700 0.13080 0.32080 0.05200
C 	C 	0.20500 0.04400 0.43880 0.06500
C 	C 	0.30500 0.81500 0.44670 0.41700
C 	C 	0.35500 0.35140 0.89640 -0.13800
C 	C 	0.26500 0.56700 0.90550 -0.12500
C 	C 	0.29900 0.58800 0.83100 0.06000
C 	C 	0.36100 0.48510 0.78850 -0.11900
C 	C 	0.39600 0.50460 0.70700 0.38200
C 	C 	0.39300 0.36920 0.82080 0.05600
C 	C 	0.29500 0.45600 0.93880 0.06100
C 	C 	0.19500 0.68500 0.94670 0.41300
S 	S 	0.87330 0.69070 0.56500 0.52600
S 	S 	0.62670 0.80930 0.06500 0.52400
S 	S 	0.12670 0.30930 0.43500 0.52600
S 	S 	0.37330 0.19070 0.93500 0.52400
O 	O 	0.94100 0.91560 0.83180 -0.38300
O 	O 	0.87030 0.05540 0.96570 -0.48700
O 	O 	0.65520 0.16020 0.48550 -0.42800
O 	O 	0.87840 0.12580 0.81340 -0.40000
O 	O 	0.85200 0.70120 0.48720 -0.28500
O 	O 	0.67300 0.27750 0.58960 -0.42200
O 	O 	0.72570 0.60940 0.59900 -0.36600
O 	O 	0.04670 0.64400 0.59000 -0.31100
O 	O 	0.55900 0.58440 0.33180 -0.39000
O 	O 	0.62970 0.44460 0.46570 -0.48800
O 	O 	0.84480 0.33980 0.98550 -0.42300
O 	O 	0.62160 0.37420 0.31340 -0.40200
O 	O 	0.64800 0.79880 0.98720 -0.28500
O 	O 	0.82700 0.22250 0.08960 -0.42300
O 	O 	0.77430 0.89060 0.09900 -0.36300
O 	O 	0.45330 0.85600 0.09000 -0.30800
O 	O 	0.05900 0.08440 0.16820 -0.38300
O 	O 	0.12970 0.94460 0.03430 -0.48700
O 	O 	0.34480 0.83980 0.51450 -0.42800
O 	O 	0.12160 0.87420 0.18660 -0.40000
O 	O 	0.14800 0.29880 0.51280 -0.28500
O 	O 	0.32700 0.72250 0.41040 -0.42200
O 	O 	0.27430 0.39060 0.40100 -0.36600
O 	O 	0.95330 0.35600 0.41000 -0.31100
O 	O 	0.44100 0.41560 0.66820 -0.39000
O 	O 	0.37030 0.55540 0.53430 -0.48800
O 	O 	0.15520 0.66020 0.01450 -0.42300
O 	O 	0.37840 0.62580 0.68660 -0.40200
O 	O 	0.35200 0.20120 0.01280 -0.28500
O 	O 	0.17300 0.77750 0.91040 -0.42300
O 	O 	0.22570 0.10940 0.90100 -0.36300
O 	O 	0.54670 0.14400 0.91000 -0.30800
