data_crystal

_cell_length_a 7.28300
_cell_length_b 10.26200
_cell_length_c 18.11900
_cell_angle_alpha 90.00000
_cell_angle_beta  90.00000
_cell_angle_gamma 94.11900

_symmetry_space_group_name_	'P 1'
_symmetry_space_group_name_H-M	'P 1'

loop_
_symmetry_equiv_pos_as_xyz
  x,y,z

loop_
_atom_site_label
_atom_site_type_symbol
_atom_site_fract_x
_atom_site_fract_y
_atom_site_fract_z
_atom_site_charge
Cu	Cu	0.86248 0.21424 0.90574 0.91900
Cu	Cu	0.03635 0.92923 0.93156 0.93500
Cu	Cu	0.63752 0.28576 0.40574 0.92000
Cu	Cu	0.46365 0.57077 0.43156 0.94100
Cu	Cu	0.13752 0.78576 0.09426 0.92000
Cu	Cu	0.96365 0.07077 0.06844 0.93600
Cu	Cu	0.36248 0.71424 0.59426 0.92000
Cu	Cu	0.53635 0.42923 0.56844 0.94100
H 	H 	0.77540 0.16400 0.69170 0.04400
H 	H 	0.93280 0.79970 0.70640 0.02900
H 	H 	0.77100 0.93800 0.51190 0.02500
H 	H 	0.72460 0.33600 0.19170 0.04100
H 	H 	0.56720 0.70030 0.20640 0.02700
H 	H 	0.72900 0.56200 0.01190 0.02400
H 	H 	0.22460 0.83600 0.30830 0.04400
H 	H 	0.06720 0.20030 0.29360 0.02900
H 	H 	0.22900 0.06200 0.48810 0.02500
H 	H 	0.27540 0.66400 0.80830 0.04100
H 	H 	0.43280 0.29970 0.79360 0.02700
H 	H 	0.27100 0.43800 0.98810 0.02400
C 	C 	0.85440 0.84960 0.60400 -0.16400
C 	C 	0.76470 0.06890 0.59490 -0.14400
C 	C 	0.79690 0.08470 0.66960 0.07600
C 	C 	0.86080 0.98510 0.71250 -0.13500
C 	C 	0.89580 0.00820 0.79200 0.38500
C 	C 	0.88950 0.86750 0.67870 0.08000
C 	C 	0.79310 0.95010 0.56210 0.08200
C 	C 	0.69050 0.18000 0.55310 0.40400
C 	C 	0.64560 0.65040 0.10400 -0.16600
C 	C 	0.73530 0.43110 0.09490 -0.14200
C 	C 	0.70310 0.41530 0.16960 0.08300
C 	C 	0.63920 0.51490 0.21250 -0.14600
C 	C 	0.60420 0.49180 0.29200 0.39500
C 	C 	0.61050 0.63250 0.17870 0.08400
C 	C 	0.70690 0.54990 0.06210 0.07900
C 	C 	0.80950 0.32000 0.05310 0.40000
C 	C 	0.14560 0.15040 0.39600 -0.16400
C 	C 	0.23530 0.93110 0.40510 -0.14400
C 	C 	0.20310 0.91530 0.33040 0.07600
C 	C 	0.13920 0.01490 0.28750 -0.13500
C 	C 	0.10420 0.99180 0.20800 0.38500
C 	C 	0.11050 0.13250 0.32130 0.08000
C 	C 	0.20690 0.04990 0.43790 0.08200
C 	C 	0.30950 0.82000 0.44690 0.40400
C 	C 	0.35440 0.34960 0.89600 -0.16600
C 	C 	0.26470 0.56890 0.90510 -0.14200
C 	C 	0.29690 0.58470 0.83040 0.08300
C 	C 	0.36080 0.48510 0.78750 -0.14600
C 	C 	0.39580 0.50820 0.70800 0.39500
C 	C 	0.38950 0.36750 0.82130 0.08400
C 	C 	0.29310 0.45010 0.93790 0.07900
C 	C 	0.19050 0.68000 0.94690 0.40000
S 	S 	0.87140 0.69243 0.56487 0.57000
S 	S 	0.62860 0.80757 0.06487 0.56700
S 	S 	0.12860 0.30757 0.43513 0.57000
S 	S 	0.37140 0.19243 0.93513 0.56700
O 	O 	0.94180 0.91590 0.83220 -0.37800
O 	O 	0.86820 0.05770 0.96600 -0.48600
O 	O 	0.65400 0.16320 0.48630 -0.43200
O 	O 	0.87240 0.12350 0.81380 -0.41000
O 	O 	0.84950 0.70280 0.48700 -0.29500
O 	O 	0.67160 0.28220 0.58960 -0.40000
O 	O 	0.72350 0.61380 0.59910 -0.37800
O 	O 	0.04380 0.64980 0.58920 -0.32700
O 	O 	0.55820 0.58410 0.33220 -0.38500
O 	O 	0.63180 0.44230 0.46600 -0.48700
O 	O 	0.84600 0.33680 0.98630 -0.42800
O 	O 	0.62760 0.37650 0.31380 -0.41200
O 	O 	0.65050 0.79720 0.98700 -0.29500
O 	O 	0.82840 0.21780 0.08960 -0.40100
O 	O 	0.77650 0.88620 0.09910 -0.37600
O 	O 	0.45620 0.85020 0.08920 -0.32400
O 	O 	0.05820 0.08410 0.16780 -0.37800
O 	O 	0.13180 0.94230 0.03400 -0.48600
O 	O 	0.34600 0.83680 0.51370 -0.43200
O 	O 	0.12760 0.87650 0.18620 -0.41000
O 	O 	0.15050 0.29720 0.51300 -0.29500
O 	O 	0.32840 0.71780 0.41040 -0.40000
O 	O 	0.27650 0.38620 0.40090 -0.37800
O 	O 	0.95620 0.35020 0.41080 -0.32700
O 	O 	0.44180 0.41590 0.66780 -0.38500
O 	O 	0.36820 0.55770 0.53400 -0.48700
O 	O 	0.15400 0.66320 0.01370 -0.42800
O 	O 	0.37240 0.62350 0.68620 -0.41200
O 	O 	0.34950 0.20280 0.01300 -0.29500
O 	O 	0.17160 0.78220 0.91040 -0.40100
O 	O 	0.22350 0.11380 0.90090 -0.37600
O 	O 	0.54380 0.14980 0.91080 -0.32400
