data_crystal

_cell_length_a 7.25200
_cell_length_b 10.23000
_cell_length_c 18.06800
_cell_angle_alpha 90.00000
_cell_angle_beta  90.00000
_cell_angle_gamma 94.21600

_symmetry_space_group_name_	'P 1'
_symmetry_space_group_name_H-M	'P 1'

loop_
_symmetry_equiv_pos_as_xyz
  x,y,z

loop_
_atom_site_label
_atom_site_type_symbol
_atom_site_fract_x
_atom_site_fract_y
_atom_site_fract_z
_atom_site_charge
Cu	Cu	0.86222 0.21401 0.90587 0.92200
Cu	Cu	0.03628 0.92958 0.93149 0.94100
Cu	Cu	0.63778 0.28599 0.40587 0.92200
Cu	Cu	0.46372 0.57042 0.43149 0.94600
Cu	Cu	0.13778 0.78599 0.09413 0.92200
Cu	Cu	0.96372 0.07042 0.06851 0.94100
Cu	Cu	0.36222 0.71401 0.59413 0.92100
Cu	Cu	0.53628 0.42958 0.56851 0.94500
H 	H 	0.77870 0.16500 0.69150 0.04200
H 	H 	0.93290 0.79970 0.70730 0.03000
H 	H 	0.77050 0.93830 0.51180 0.02400
H 	H 	0.72130 0.33500 0.19150 0.03900
H 	H 	0.56710 0.70030 0.20730 0.02700
H 	H 	0.72950 0.56170 0.01180 0.02400
H 	H 	0.22130 0.83500 0.30850 0.04200
H 	H 	0.06710 0.20030 0.29270 0.03000
H 	H 	0.22950 0.06170 0.48820 0.02400
H 	H 	0.27870 0.66500 0.80850 0.03900
H 	H 	0.43290 0.29970 0.79270 0.02700
H 	H 	0.27050 0.43830 0.98820 0.02400
C 	C 	0.85250 0.84920 0.60390 -0.16900
C 	C 	0.76400 0.07070 0.59480 -0.14800
C 	C 	0.79790 0.08520 0.66930 0.08200
C 	C 	0.85940 0.98610 0.71220 -0.13800
C 	C 	0.89530 0.00800 0.79250 0.39100
C 	C 	0.88900 0.86720 0.67940 0.08100
C 	C 	0.79240 0.95040 0.56220 0.08600
C 	C 	0.69000 0.18240 0.55310 0.41300
C 	C 	0.64750 0.65080 0.10390 -0.17000
C 	C 	0.73600 0.42930 0.09480 -0.14600
C 	C 	0.70210 0.41480 0.16930 0.09000
C 	C 	0.64060 0.51390 0.21220 -0.14900
C 	C 	0.60470 0.49200 0.29250 0.40200
C 	C 	0.61100 0.63280 0.17940 0.08500
C 	C 	0.70760 0.54960 0.06220 0.08300
C 	C 	0.81000 0.31760 0.05310 0.40900
C 	C 	0.14750 0.15080 0.39610 -0.16900
C 	C 	0.23600 0.92930 0.40520 -0.14800
C 	C 	0.20210 0.91480 0.33070 0.08200
C 	C 	0.14060 0.01390 0.28780 -0.13800
C 	C 	0.10470 0.99200 0.20750 0.39100
C 	C 	0.11100 0.13280 0.32060 0.08100
C 	C 	0.20760 0.04960 0.43780 0.08600
C 	C 	0.31000 0.81760 0.44690 0.41300
C 	C 	0.35250 0.34920 0.89610 -0.17000
C 	C 	0.26400 0.57070 0.90520 -0.14600
C 	C 	0.29790 0.58520 0.83070 0.09000
C 	C 	0.35940 0.48610 0.78780 -0.14900
C 	C 	0.39530 0.50800 0.70750 0.40200
C 	C 	0.38900 0.36720 0.82060 0.08500
C 	C 	0.29240 0.45040 0.93780 0.08300
C 	C 	0.19000 0.68240 0.94690 0.40900
S 	S 	0.87070 0.69320 0.56476 0.56900
S 	S 	0.62930 0.80680 0.06476 0.56600
S 	S 	0.12930 0.30680 0.43524 0.56900
S 	S 	0.37070 0.19320 0.93524 0.56600
O 	O 	0.94070 0.91560 0.83290 -0.38200
O 	O 	0.86850 0.05760 0.96640 -0.48800
O 	O 	0.65620 0.16320 0.48640 -0.43700
O 	O 	0.87390 0.12340 0.81400 -0.41400
O 	O 	0.85010 0.70260 0.48750 -0.29900
O 	O 	0.67130 0.28410 0.58990 -0.40600
O 	O 	0.72230 0.61190 0.59980 -0.37500
O 	O 	0.04310 0.64930 0.59000 -0.32500
O 	O 	0.55930 0.58440 0.33290 -0.38900
O 	O 	0.63150 0.44240 0.46640 -0.48900
O 	O 	0.84380 0.33680 0.98640 -0.43200
O 	O 	0.62610 0.37660 0.31400 -0.41700
O 	O 	0.64990 0.79740 0.98750 -0.29900
O 	O 	0.82870 0.21590 0.08990 -0.40700
O 	O 	0.77770 0.88810 0.09980 -0.37200
O 	O 	0.45690 0.85070 0.09000 -0.32200
O 	O 	0.05930 0.08440 0.16710 -0.38200
O 	O 	0.13150 0.94240 0.03360 -0.48800
O 	O 	0.34380 0.83680 0.51360 -0.43700
O 	O 	0.12610 0.87660 0.18600 -0.41400
O 	O 	0.14990 0.29740 0.51250 -0.29900
O 	O 	0.32870 0.71590 0.41010 -0.40600
O 	O 	0.27770 0.38810 0.40020 -0.37500
O 	O 	0.95690 0.35070 0.41000 -0.32500
O 	O 	0.44070 0.41560 0.66710 -0.38900
O 	O 	0.36850 0.55760 0.53360 -0.48900
O 	O 	0.15620 0.66320 0.01360 -0.43200
O 	O 	0.37390 0.62340 0.68600 -0.41700
O 	O 	0.35010 0.20260 0.01250 -0.29900
O 	O 	0.17130 0.78410 0.91010 -0.40700
O 	O 	0.22230 0.11190 0.90020 -0.37200
O 	O 	0.54310 0.14930 0.91000 -0.32200
