data_crystal

_cell_length_a 7.30100
_cell_length_b 10.13300
_cell_length_c 18.03200
_cell_angle_alpha 90.00000
_cell_angle_beta  90.00000
_cell_angle_gamma 94.30700

_symmetry_space_group_name_	'P 1'
_symmetry_space_group_name_H-M	'P 1'

loop_
_symmetry_equiv_pos_as_xyz
  x,y,z

loop_
_atom_site_label
_atom_site_type_symbol
_atom_site_fract_x
_atom_site_fract_y
_atom_site_fract_z
_atom_site_charge
Cu	Cu	0.86507 0.21639 0.90536 0.92200
Cu	Cu	0.45869 0.56952 0.43152 0.94300
Cu	Cu	0.63493 0.28361 0.40536 0.92100
Cu	Cu	0.04131 0.93048 0.93152 0.93800
Cu	Cu	0.13493 0.78361 0.09464 0.92200
Cu	Cu	0.54131 0.43048 0.56848 0.94300
Cu	Cu	0.36507 0.71639 0.59464 0.92100
Cu	Cu	0.95869 0.06952 0.06848 0.93800
H 	H 	0.71730 0.33420 0.19200 0.03700
H 	H 	0.55920 0.70280 0.20700 0.02500
H 	H 	0.72590 0.56440 0.01140 0.01800
H 	H 	0.78270 0.16580 0.69200 0.04000
H 	H 	0.94080 0.79720 0.70700 0.02800
H 	H 	0.77410 0.93560 0.51140 0.01900
H 	H 	0.28270 0.66580 0.80800 0.03700
H 	H 	0.44080 0.29720 0.79300 0.02500
H 	H 	0.27410 0.43560 0.98860 0.01800
H 	H 	0.21730 0.83420 0.30800 0.04000
H 	H 	0.05920 0.20280 0.29300 0.02800
H 	H 	0.22590 0.06440 0.48860 0.01900
C 	C 	0.64090 0.64960 0.10370 -0.17400
C 	C 	0.72990 0.43030 0.09540 -0.15700
C 	C 	0.69710 0.41450 0.16960 0.09800
C 	C 	0.63490 0.51510 0.21210 -0.15300
C 	C 	0.59890 0.49110 0.29300 0.41400
C 	C 	0.60370 0.63440 0.17950 0.09000
C 	C 	0.70240 0.55150 0.06170 0.09200
C 	C 	0.80250 0.31970 0.05270 0.41500
C 	C 	0.85910 0.85040 0.60370 -0.17200
C 	C 	0.77010 0.06970 0.59540 -0.15800
C 	C 	0.80290 0.08550 0.66960 0.09000
C 	C 	0.86510 0.98490 0.71210 -0.14100
C 	C 	0.90110 0.00890 0.79300 0.40300
C 	C 	0.89630 0.86560 0.67950 0.08500
C 	C 	0.79760 0.94850 0.56170 0.09400
C 	C 	0.69750 0.18030 0.55270 0.41900
C 	C 	0.35910 0.35040 0.89630 -0.17400
C 	C 	0.27010 0.56970 0.90460 -0.15700
C 	C 	0.30290 0.58550 0.83040 0.09800
C 	C 	0.36510 0.48490 0.78790 -0.15300
C 	C 	0.40110 0.50890 0.70700 0.41400
C 	C 	0.39630 0.36560 0.82050 0.09000
C 	C 	0.29760 0.44850 0.93830 0.09200
C 	C 	0.19750 0.68030 0.94730 0.41500
C 	C 	0.14090 0.14960 0.39630 -0.17200
C 	C 	0.22990 0.93030 0.40460 -0.15800
C 	C 	0.19710 0.91450 0.33040 0.09000
C 	C 	0.13490 0.01510 0.28790 -0.14100
C 	C 	0.09890 0.99110 0.20700 0.40300
C 	C 	0.10370 0.13440 0.32050 0.08500
C 	C 	0.20240 0.05150 0.43830 0.09400
C 	C 	0.30250 0.81970 0.44730 0.41900
S 	S 	0.62230 0.80927 0.06516 0.57700
S 	S 	0.87770 0.69073 0.56516 0.58000
S 	S 	0.37770 0.19073 0.93484 0.57700
S 	S 	0.12230 0.30927 0.43484 0.58000
O 	O 	0.55380 0.58520 0.33160 -0.39400
O 	O 	0.87090 0.05660 0.96500 -0.48800
O 	O 	0.84130 0.33680 0.98630 -0.43900
O 	O 	0.61990 0.37520 0.31380 -0.42500
O 	O 	0.63400 0.80020 0.98760 -0.29600
O 	O 	0.81770 0.21640 0.08950 -0.40200
O 	O 	0.77300 0.88870 0.09800 -0.38100
O 	O 	0.45210 0.85330 0.09180 -0.32200
O 	O 	0.94620 0.91480 0.83160 -0.38600
O 	O 	0.62910 0.44340 0.46500 -0.48900
O 	O 	0.65870 0.16320 0.48630 -0.44400
O 	O 	0.88010 0.12480 0.81380 -0.42200
O 	O 	0.86600 0.69980 0.48760 -0.29600
O 	O 	0.68230 0.28360 0.58950 -0.40100
O 	O 	0.72700 0.61130 0.59800 -0.38300
O 	O 	0.04790 0.64670 0.59180 -0.32500
O 	O 	0.44620 0.41480 0.66840 -0.39400
O 	O 	0.12910 0.94340 0.03500 -0.48800
O 	O 	0.15870 0.66320 0.01370 -0.43900
O 	O 	0.38010 0.62480 0.68620 -0.42500
O 	O 	0.36600 0.19980 0.01240 -0.29600
O 	O 	0.18230 0.78360 0.91050 -0.40200
O 	O 	0.22700 0.11130 0.90200 -0.38100
O 	O 	0.54790 0.14670 0.90820 -0.32200
O 	O 	0.05380 0.08520 0.16840 -0.38600
O 	O 	0.37090 0.55660 0.53500 -0.48900
O 	O 	0.34130 0.83680 0.51370 -0.44400
O 	O 	0.11990 0.87520 0.18620 -0.42200
O 	O 	0.13400 0.30020 0.51240 -0.29600
O 	O 	0.31770 0.71640 0.41050 -0.40100
O 	O 	0.27300 0.38870 0.40200 -0.38300
O 	O 	0.95210 0.35330 0.40820 -0.32500
