data_crystal

_cell_length_a 15.17430
_cell_length_b 24.88590
_cell_length_c 24.88590
_cell_angle_alpha 90.00000
_cell_angle_beta  90.00000
_cell_angle_gamma 90.00000

_symmetry_space_group_name_	'P 1'
_symmetry_space_group_name_H-M	'P 1'

loop_
_symmetry_equiv_pos_as_xyz
  x,y,z

loop_
_atom_site_label
_atom_site_type_symbol
_atom_site_fract_x
_atom_site_fract_y
_atom_site_fract_z
_atom_site_charge
Zn	Zn	0.03023 0.87922 0.02242 1.23100
Zn	Zn	0.24683 0.85097 0.00071 1.23100
Zn	Zn	0.96702 0.48235 0.37265 1.23000
Zn	Zn	0.03023 0.12078 0.97758 1.23100
Zn	Zn	0.24683 0.14903 0.99929 1.23100
Zn	Zn	0.96702 0.51765 0.62735 1.23000
Zn	Zn	0.96977 0.02242 0.12078 1.23100
Zn	Zn	0.75317 0.00071 0.14903 1.23100
Zn	Zn	0.03298 0.37265 0.51765 1.23000
Zn	Zn	0.96977 0.97758 0.87922 1.23100
Zn	Zn	0.75317 0.99929 0.85097 1.23100
Zn	Zn	0.03298 0.62735 0.48235 1.23000
Zn	Zn	0.46977 0.62078 0.52242 1.23100
Zn	Zn	0.25317 0.64903 0.50071 1.23100
Zn	Zn	0.53298 0.01765 0.87265 1.23000
Zn	Zn	0.46977 0.37922 0.47758 1.23100
Zn	Zn	0.25317 0.35097 0.49929 1.23100
Zn	Zn	0.53298 0.98235 0.12735 1.23000
Zn	Zn	0.53023 0.47758 0.62078 1.23100
Zn	Zn	0.74683 0.49929 0.64903 1.23100
Zn	Zn	0.46702 0.12735 0.01765 1.23000
Zn	Zn	0.53023 0.52242 0.37922 1.23100
Zn	Zn	0.74683 0.50071 0.35097 1.23100
Zn	Zn	0.46702 0.87265 0.98235 1.23000
H 	H 	0.21060 0.73160 0.88430 0.02300
H 	H 	0.17830 0.67260 0.81480 0.06000
H 	H 	0.92090 0.71420 0.82630 0.06000
H 	H 	0.95560 0.77260 0.89550 0.02200
H 	H 	0.90100 0.62840 0.79380 0.07300
H 	H 	0.87610 0.56510 0.72570 -0.02000
H 	H 	0.10750 0.59250 0.66320 -0.01500
H 	H 	0.14170 0.65530 0.72930 0.07200
H 	H 	0.02310 0.62000 0.28700 0.01700
H 	H 	0.06260 0.69110 0.23100 0.06200
H 	H 	0.81160 0.70030 0.17900 0.06300
H 	H 	0.77340 0.62840 0.23460 0.02200
H 	H 	0.08970 0.72010 0.14430 0.07500
H 	H 	0.12110 0.78480 0.08100 -0.01700
H 	H 	0.89170 0.85330 0.10300 -0.01100
H 	H 	0.85510 0.79030 0.16830 0.07000
H 	H 	0.21340 0.96610 0.04070 -0.03900
H 	H 	0.28900 0.90530 0.09440 0.17800
H 	H 	0.25020 0.95320 0.13020 0.22200
H 	H 	0.20250 0.89580 0.12990 0.20000
H 	H 	0.27910 0.94830 0.93160 -0.02200
H 	H 	0.25160 0.86790 0.87840 0.17800
H 	H 	0.35210 0.86950 0.85910 0.18300
H 	H 	0.28620 0.91690 0.84250 0.19300
H 	H 	0.21060 0.26840 0.11570 0.02400
H 	H 	0.17830 0.32740 0.18520 0.06100
H 	H 	0.92090 0.28580 0.17370 0.06100
H 	H 	0.95560 0.22740 0.10450 0.02300
H 	H 	0.90100 0.37160 0.20620 0.07300
H 	H 	0.87610 0.43490 0.27430 -0.02000
H 	H 	0.10750 0.40750 0.33680 -0.01500
H 	H 	0.14170 0.34470 0.27070 0.07200
H 	H 	0.02310 0.38000 0.71300 0.01700
H 	H 	0.06260 0.30890 0.76900 0.06200
H 	H 	0.81160 0.29970 0.82100 0.06300
H 	H 	0.77340 0.37160 0.76540 0.02200
H 	H 	0.08970 0.27990 0.85570 0.07500
H 	H 	0.12110 0.21520 0.91900 -0.01700
H 	H 	0.89170 0.14670 0.89700 -0.01100
H 	H 	0.85510 0.20970 0.83170 0.07000
H 	H 	0.21340 0.03390 0.95930 -0.03900
H 	H 	0.28900 0.09470 0.90560 0.17800
H 	H 	0.25020 0.04680 0.86980 0.22200
H 	H 	0.20250 0.10420 0.87010 0.20000
H 	H 	0.27910 0.05170 0.06840 -0.02200
H 	H 	0.25160 0.13210 0.12160 0.17800
H 	H 	0.35210 0.13050 0.14090 0.18300
H 	H 	0.28620 0.08310 0.15750 0.19300
H 	H 	0.78940 0.88430 0.26840 0.02400
H 	H 	0.82170 0.81480 0.32740 0.06100
H 	H 	0.07910 0.82630 0.28580 0.06100
H 	H 	0.04440 0.89550 0.22740 0.02300
H 	H 	0.09900 0.79380 0.37160 0.07300
H 	H 	0.12390 0.72570 0.43490 -0.02000
H 	H 	0.89250 0.66320 0.40750 -0.01500
H 	H 	0.85830 0.72930 0.34470 0.07200
H 	H 	0.97690 0.28700 0.38000 0.01700
H 	H 	0.93740 0.23100 0.30890 0.06200
H 	H 	0.18840 0.17900 0.29970 0.06300
H 	H 	0.22660 0.23460 0.37160 0.02200
H 	H 	0.91030 0.14430 0.27990 0.07500
H 	H 	0.87890 0.08100 0.21520 -0.01700
H 	H 	0.10830 0.10300 0.14670 -0.01100
H 	H 	0.14490 0.16830 0.20970 0.07000
H 	H 	0.78660 0.04070 0.03390 -0.03900
H 	H 	0.71100 0.09440 0.09470 0.17800
H 	H 	0.74980 0.13020 0.04680 0.22200
H 	H 	0.79750 0.12990 0.10420 0.20000
H 	H 	0.72090 0.93160 0.05170 -0.02200
H 	H 	0.74840 0.87840 0.13210 0.17800
H 	H 	0.64790 0.85910 0.13050 0.18300
H 	H 	0.71380 0.84250 0.08310 0.19300
H 	H 	0.78940 0.11570 0.73160 0.02400
H 	H 	0.82170 0.18520 0.67260 0.06100
H 	H 	0.07910 0.17370 0.71420 0.06100
H 	H 	0.04440 0.10450 0.77260 0.02300
H 	H 	0.09900 0.20620 0.62840 0.07300
H 	H 	0.12390 0.27430 0.56510 -0.02000
H 	H 	0.89250 0.33680 0.59250 -0.01500
H 	H 	0.85830 0.27070 0.65530 0.07200
H 	H 	0.97690 0.71300 0.62000 0.01700
H 	H 	0.93740 0.76900 0.69110 0.06200
H 	H 	0.18840 0.82100 0.70030 0.06300
H 	H 	0.22660 0.76540 0.62840 0.02200
H 	H 	0.91030 0.85570 0.72010 0.07500
H 	H 	0.87890 0.91900 0.78480 -0.01700
H 	H 	0.10830 0.89700 0.85330 -0.01100
H 	H 	0.14490 0.83170 0.79030 0.07000
H 	H 	0.78660 0.95930 0.96610 -0.03900
H 	H 	0.71100 0.90560 0.90530 0.17800
H 	H 	0.74980 0.86980 0.95320 0.22200
H 	H 	0.79750 0.87010 0.89580 0.20000
H 	H 	0.72090 0.06840 0.94830 -0.02200
H 	H 	0.74840 0.12160 0.86790 0.17800
H 	H 	0.64790 0.14090 0.86950 0.18300
H 	H 	0.71380 0.15750 0.91690 0.19300
H 	H 	0.28940 0.76840 0.38430 0.02400
H 	H 	0.32170 0.82740 0.31480 0.06100
H 	H 	0.57910 0.78580 0.32630 0.06100
H 	H 	0.54440 0.72740 0.39550 0.02300
H 	H 	0.59900 0.87160 0.29380 0.07300
H 	H 	0.62390 0.93490 0.22570 -0.02000
H 	H 	0.39250 0.90750 0.16320 -0.01500
H 	H 	0.35830 0.84470 0.22930 0.07200
H 	H 	0.47690 0.88000 0.78700 0.01700
H 	H 	0.43740 0.80890 0.73100 0.06200
H 	H 	0.68840 0.79970 0.67900 0.06300
H 	H 	0.72660 0.87160 0.73460 0.02200
H 	H 	0.41030 0.77990 0.64430 0.07500
H 	H 	0.37890 0.71520 0.58100 -0.01700
H 	H 	0.60830 0.64670 0.60300 -0.01100
H 	H 	0.64490 0.70970 0.66830 0.07000
H 	H 	0.28660 0.53390 0.54070 -0.04000
H 	H 	0.21100 0.59470 0.59440 0.17800
H 	H 	0.24980 0.54680 0.63020 0.22200
H 	H 	0.29750 0.60420 0.62990 0.20000
H 	H 	0.22090 0.55170 0.43160 -0.02300
H 	H 	0.24840 0.63210 0.37840 0.17800
H 	H 	0.14790 0.63050 0.35910 0.18300
H 	H 	0.21380 0.58310 0.34250 0.19300
H 	H 	0.28940 0.23160 0.61570 0.02400
H 	H 	0.32170 0.17260 0.68520 0.06100
H 	H 	0.57910 0.21420 0.67370 0.06100
H 	H 	0.54440 0.27260 0.60450 0.02300
H 	H 	0.59900 0.12840 0.70620 0.07300
H 	H 	0.62390 0.06510 0.77430 -0.02000
H 	H 	0.39250 0.09250 0.83680 -0.01500
H 	H 	0.35830 0.15530 0.77070 0.07200
H 	H 	0.47690 0.12000 0.21300 0.01700
H 	H 	0.43740 0.19110 0.26900 0.06200
H 	H 	0.68840 0.20030 0.32100 0.06300
H 	H 	0.72660 0.12840 0.26540 0.02200
H 	H 	0.41030 0.22010 0.35570 0.07500
H 	H 	0.37890 0.28480 0.41900 -0.01700
H 	H 	0.60830 0.35330 0.39700 -0.01100
H 	H 	0.64490 0.29030 0.33170 0.07000
H 	H 	0.28660 0.46610 0.45930 -0.04000
H 	H 	0.21100 0.40530 0.40560 0.17800
H 	H 	0.24980 0.45320 0.36980 0.22200
H 	H 	0.29750 0.39580 0.37010 0.20000
H 	H 	0.22090 0.44830 0.56840 -0.02300
H 	H 	0.24840 0.36790 0.62160 0.17800
H 	H 	0.14790 0.36950 0.64090 0.18300
H 	H 	0.21380 0.41690 0.65750 0.19300
H 	H 	0.71060 0.61570 0.76840 0.02400
H 	H 	0.67830 0.68520 0.82740 0.06100
H 	H 	0.42090 0.67370 0.78580 0.06100
H 	H 	0.45560 0.60450 0.72740 0.02300
H 	H 	0.40100 0.70620 0.87160 0.07300
H 	H 	0.37610 0.77430 0.93490 -0.02000
H 	H 	0.60750 0.83680 0.90750 -0.01500
H 	H 	0.64170 0.77070 0.84470 0.07200
H 	H 	0.52310 0.21300 0.88000 0.01700
H 	H 	0.56260 0.26900 0.80890 0.06200
H 	H 	0.31160 0.32100 0.79970 0.06300
H 	H 	0.27340 0.26540 0.87160 0.02200
H 	H 	0.58970 0.35570 0.77990 0.07500
H 	H 	0.62110 0.41900 0.71520 -0.01700
H 	H 	0.39170 0.39700 0.64670 -0.01100
H 	H 	0.35510 0.33170 0.70970 0.07000
H 	H 	0.71340 0.45930 0.53390 -0.04000
H 	H 	0.78900 0.40560 0.59470 0.17800
H 	H 	0.75020 0.36980 0.54680 0.22200
H 	H 	0.70250 0.37010 0.60420 0.20000
H 	H 	0.77910 0.56840 0.55170 -0.02300
H 	H 	0.75160 0.62160 0.63210 0.17800
H 	H 	0.85210 0.64090 0.63050 0.18300
H 	H 	0.78620 0.65750 0.58310 0.19300
H 	H 	0.71060 0.38430 0.23160 0.02400
H 	H 	0.67830 0.31480 0.17260 0.06100
H 	H 	0.42090 0.32630 0.21420 0.06100
H 	H 	0.45560 0.39550 0.27260 0.02300
H 	H 	0.40100 0.29380 0.12840 0.07300
H 	H 	0.37610 0.22570 0.06510 -0.02000
H 	H 	0.60750 0.16320 0.09250 -0.01500
H 	H 	0.64170 0.22930 0.15530 0.07200
H 	H 	0.52310 0.78700 0.12000 0.01700
H 	H 	0.56260 0.73100 0.19110 0.06200
H 	H 	0.31160 0.67900 0.20030 0.06300
H 	H 	0.27340 0.73460 0.12840 0.02200
H 	H 	0.58970 0.64430 0.22010 0.07500
H 	H 	0.62110 0.58100 0.28480 -0.01700
H 	H 	0.39170 0.60300 0.35330 -0.01100
H 	H 	0.35510 0.66830 0.29030 0.07000
H 	H 	0.71340 0.54070 0.46610 -0.04000
H 	H 	0.78900 0.59440 0.40530 0.17800
H 	H 	0.75020 0.63020 0.45320 0.22200
H 	H 	0.70250 0.62990 0.39580 0.20000
H 	H 	0.77910 0.43160 0.44830 -0.02300
H 	H 	0.75160 0.37840 0.36790 0.17800
H 	H 	0.85210 0.35910 0.36950 0.18300
H 	H 	0.78620 0.34250 0.41690 0.19300
C 	C 	0.08650 0.75780 0.89720 -0.13100
C 	C 	0.15130 0.72790 0.87260 0.04400
C 	C 	0.13230 0.69270 0.83120 -0.10400
C 	C 	0.04610 0.68660 0.81360 0.03400
C 	C 	0.98020 0.71730 0.83800 -0.10500
C 	C 	0.00110 0.75200 0.87910 0.04900
C 	C 	0.02590 0.64760 0.77020 0.06100
C 	C 	0.94550 0.62110 0.76800 -0.13300
C 	C 	0.93080 0.58350 0.72670 0.07900
C 	C 	0.06550 0.59950 0.69070 0.07800
C 	C 	0.08660 0.63710 0.73000 -0.13200
C 	C 	0.10890 0.79570 0.94210 0.39700
C 	C 	0.89620 0.61610 0.26490 -0.14400
C 	C 	0.97990 0.63580 0.26440 0.05700
C 	C 	0.00330 0.67870 0.23150 -0.11100
C 	C 	0.94170 0.70310 0.20000 0.03900
C 	C 	0.85510 0.68390 0.20090 -0.10900
C 	C 	0.83260 0.64090 0.23360 0.05000
C 	C 	0.96780 0.74640 0.16190 0.06400
C 	C 	0.04700 0.74680 0.13620 -0.13600
C 	C 	0.06550 0.78580 0.09850 0.08100
C 	C 	0.93270 0.82560 0.11130 0.07800
C 	C 	0.90990 0.78780 0.15000 -0.13200
C 	C 	0.87330 0.56870 0.29910 0.41300
C 	C 	0.17940 0.93940 0.06240 0.22000
C 	C 	0.09640 0.96680 0.08360 0.21900
C 	C 	0.23500 0.92200 0.10810 -0.61400
C 	C 	0.41190 0.95330 0.91070 0.24000
C 	C 	0.32710 0.92240 0.92240 0.16800
C 	C 	0.30200 0.89130 0.87090 -0.54600
C 	C 	0.08650 0.24220 0.10280 -0.13100
C 	C 	0.15130 0.27210 0.12740 0.04400
C 	C 	0.13230 0.30730 0.16880 -0.10400
C 	C 	0.04610 0.31340 0.18640 0.03400
C 	C 	0.98020 0.28270 0.16200 -0.10500
C 	C 	0.00110 0.24800 0.12090 0.04900
C 	C 	0.02590 0.35240 0.22980 0.06100
C 	C 	0.94550 0.37890 0.23200 -0.13300
C 	C 	0.93080 0.41650 0.27330 0.07900
C 	C 	0.06550 0.40050 0.30930 0.07800
C 	C 	0.08660 0.36290 0.27000 -0.13200
C 	C 	0.10890 0.20430 0.05790 0.39700
C 	C 	0.89620 0.38390 0.73510 -0.14400
C 	C 	0.97990 0.36420 0.73560 0.05700
C 	C 	0.00330 0.32130 0.76850 -0.11100
C 	C 	0.94170 0.29690 0.80000 0.03900
C 	C 	0.85510 0.31610 0.79910 -0.10900
C 	C 	0.83260 0.35910 0.76640 0.05000
C 	C 	0.96780 0.25360 0.83810 0.06400
C 	C 	0.04700 0.25320 0.86380 -0.13600
C 	C 	0.06550 0.21420 0.90150 0.08100
C 	C 	0.93270 0.17440 0.88870 0.07800
C 	C 	0.90990 0.21220 0.85000 -0.13200
C 	C 	0.87330 0.43130 0.70090 0.41300
C 	C 	0.17940 0.06060 0.93760 0.22000
C 	C 	0.09640 0.03320 0.91640 0.21900
C 	C 	0.23500 0.07800 0.89190 -0.61400
C 	C 	0.41190 0.04670 0.08930 0.24000
C 	C 	0.32710 0.07760 0.07760 0.16800
C 	C 	0.30200 0.10870 0.12910 -0.54600
C 	C 	0.91350 0.89720 0.24220 -0.13100
C 	C 	0.84870 0.87260 0.27210 0.04400
C 	C 	0.86770 0.83120 0.30730 -0.10400
C 	C 	0.95390 0.81360 0.31340 0.03400
C 	C 	0.01980 0.83800 0.28270 -0.10500
C 	C 	0.99890 0.87910 0.24800 0.04900
C 	C 	0.97410 0.77020 0.35240 0.06100
C 	C 	0.05450 0.76800 0.37890 -0.13300
C 	C 	0.06920 0.72670 0.41650 0.07900
C 	C 	0.93450 0.69070 0.40050 0.07800
C 	C 	0.91340 0.73000 0.36290 -0.13200
C 	C 	0.89110 0.94210 0.20430 0.39700
C 	C 	0.10380 0.26490 0.38390 -0.14400
C 	C 	0.02010 0.26440 0.36420 0.05700
C 	C 	0.99670 0.23150 0.32130 -0.11100
C 	C 	0.05830 0.20000 0.29690 0.03900
C 	C 	0.14490 0.20090 0.31610 -0.10900
C 	C 	0.16740 0.23360 0.35910 0.05000
C 	C 	0.03220 0.16190 0.25360 0.06400
C 	C 	0.95300 0.13620 0.25320 -0.13600
C 	C 	0.93450 0.09850 0.21420 0.08100
C 	C 	0.06730 0.11130 0.17440 0.07800
C 	C 	0.09010 0.15000 0.21220 -0.13200
C 	C 	0.12670 0.29910 0.43130 0.41300
C 	C 	0.82060 0.06240 0.06060 0.22000
C 	C 	0.90360 0.08360 0.03320 0.21900
C 	C 	0.76500 0.10810 0.07800 -0.61400
C 	C 	0.58810 0.91070 0.04670 0.24000
C 	C 	0.67290 0.92240 0.07760 0.16800
C 	C 	0.69800 0.87090 0.10870 -0.54600
C 	C 	0.91350 0.10280 0.75780 -0.13100
C 	C 	0.84870 0.12740 0.72790 0.04400
C 	C 	0.86770 0.16880 0.69270 -0.10400
C 	C 	0.95390 0.18640 0.68660 0.03400
C 	C 	0.01980 0.16200 0.71730 -0.10500
C 	C 	0.99890 0.12090 0.75200 0.04900
C 	C 	0.97410 0.22980 0.64760 0.06100
C 	C 	0.05450 0.23200 0.62110 -0.13300
C 	C 	0.06920 0.27330 0.58350 0.07900
C 	C 	0.93450 0.30930 0.59950 0.07800
C 	C 	0.91340 0.27000 0.63710 -0.13200
C 	C 	0.89110 0.05790 0.79570 0.39700
C 	C 	0.10380 0.73510 0.61610 -0.14400
C 	C 	0.02010 0.73560 0.63580 0.05700
C 	C 	0.99670 0.76850 0.67870 -0.11100
C 	C 	0.05830 0.80000 0.70310 0.03900
C 	C 	0.14490 0.79910 0.68390 -0.10900
C 	C 	0.16740 0.76640 0.64090 0.05000
C 	C 	0.03220 0.83810 0.74640 0.06400
C 	C 	0.95300 0.86380 0.74680 -0.13600
C 	C 	0.93450 0.90150 0.78580 0.08100
C 	C 	0.06730 0.88870 0.82560 0.07800
C 	C 	0.09010 0.85000 0.78780 -0.13200
C 	C 	0.12670 0.70090 0.56870 0.41300
C 	C 	0.82060 0.93760 0.93940 0.22000
C 	C 	0.90360 0.91640 0.96680 0.21900
C 	C 	0.76500 0.89190 0.92200 -0.61400
C 	C 	0.58810 0.08930 0.95330 0.24000
C 	C 	0.67290 0.07760 0.92240 0.16800
C 	C 	0.69800 0.12910 0.89130 -0.54600
C 	C 	0.41350 0.74220 0.39720 -0.13100
C 	C 	0.34870 0.77210 0.37260 0.04400
C 	C 	0.36770 0.80730 0.33120 -0.10400
C 	C 	0.45390 0.81340 0.31360 0.03400
C 	C 	0.51980 0.78270 0.33800 -0.10500
C 	C 	0.49890 0.74800 0.37910 0.04800
C 	C 	0.47410 0.85240 0.27020 0.06100
C 	C 	0.55450 0.87890 0.26800 -0.13300
C 	C 	0.56920 0.91650 0.22670 0.07900
C 	C 	0.43450 0.90050 0.19070 0.07800
C 	C 	0.41340 0.86290 0.23000 -0.13200
C 	C 	0.39110 0.70430 0.44210 0.39700
C 	C 	0.60380 0.88390 0.76490 -0.14400
C 	C 	0.52010 0.86420 0.76440 0.05700
C 	C 	0.49670 0.82130 0.73150 -0.11100
C 	C 	0.55830 0.79690 0.70000 0.03800
C 	C 	0.64490 0.81610 0.70090 -0.10900
C 	C 	0.66740 0.85910 0.73360 0.05000
C 	C 	0.53220 0.75360 0.66190 0.06400
C 	C 	0.45300 0.75320 0.63620 -0.13600
C 	C 	0.43450 0.71420 0.59850 0.08100
C 	C 	0.56730 0.67440 0.61130 0.07800
C 	C 	0.59010 0.71220 0.65000 -0.13200
C 	C 	0.62670 0.93130 0.79910 0.41300
C 	C 	0.32060 0.56060 0.56240 0.22000
C 	C 	0.40360 0.53320 0.58360 0.21900
C 	C 	0.26500 0.57800 0.60810 -0.61400
C 	C 	0.08810 0.54670 0.41070 0.24000
C 	C 	0.17290 0.57760 0.42240 0.16800
C 	C 	0.19800 0.60870 0.37090 -0.54600
C 	C 	0.41350 0.25780 0.60280 -0.13100
C 	C 	0.34870 0.22790 0.62740 0.04400
C 	C 	0.36770 0.19270 0.66880 -0.10400
C 	C 	0.45390 0.18660 0.68640 0.03400
C 	C 	0.51980 0.21730 0.66200 -0.10500
C 	C 	0.49890 0.25200 0.62090 0.04800
C 	C 	0.47410 0.14760 0.72980 0.06100
C 	C 	0.55450 0.12110 0.73200 -0.13300
C 	C 	0.56920 0.08350 0.77330 0.07900
C 	C 	0.43450 0.09950 0.80930 0.07800
C 	C 	0.41340 0.13710 0.77000 -0.13200
C 	C 	0.39110 0.29570 0.55790 0.39700
C 	C 	0.60380 0.11610 0.23510 -0.14400
C 	C 	0.52010 0.13580 0.23560 0.05700
C 	C 	0.49670 0.17870 0.26850 -0.11100
C 	C 	0.55830 0.20310 0.30000 0.03800
C 	C 	0.64490 0.18390 0.29910 -0.10900
C 	C 	0.66740 0.14090 0.26640 0.05000
C 	C 	0.53220 0.24640 0.33810 0.06400
C 	C 	0.45300 0.24680 0.36380 -0.13600
C 	C 	0.43450 0.28580 0.40150 0.08100
C 	C 	0.56730 0.32560 0.38870 0.07800
C 	C 	0.59010 0.28780 0.35000 -0.13200
C 	C 	0.62670 0.06870 0.20090 0.41300
C 	C 	0.32060 0.43940 0.43760 0.22000
C 	C 	0.40360 0.46680 0.41640 0.21900
C 	C 	0.26500 0.42200 0.39190 -0.61400
C 	C 	0.08810 0.45330 0.58930 0.24000
C 	C 	0.17290 0.42240 0.57760 0.16800
C 	C 	0.19800 0.39130 0.62910 -0.54600
C 	C 	0.58650 0.60280 0.74220 -0.13100
C 	C 	0.65130 0.62740 0.77210 0.04400
C 	C 	0.63230 0.66880 0.80730 -0.10400
C 	C 	0.54610 0.68640 0.81340 0.03400
C 	C 	0.48020 0.66200 0.78270 -0.10500
C 	C 	0.50110 0.62090 0.74800 0.04800
C 	C 	0.52590 0.72980 0.85240 0.06100
C 	C 	0.44550 0.73200 0.87890 -0.13300
C 	C 	0.43080 0.77330 0.91650 0.07900
C 	C 	0.56550 0.80930 0.90050 0.07800
C 	C 	0.58660 0.77000 0.86290 -0.13200
C 	C 	0.60890 0.55790 0.70430 0.39700
C 	C 	0.39620 0.23510 0.88390 -0.14400
C 	C 	0.47990 0.23560 0.86420 0.05700
C 	C 	0.50330 0.26850 0.82130 -0.11100
C 	C 	0.44170 0.30000 0.79690 0.03800
C 	C 	0.35510 0.29910 0.81610 -0.10900
C 	C 	0.33260 0.26640 0.85910 0.05000
C 	C 	0.46780 0.33810 0.75360 0.06400
C 	C 	0.54700 0.36380 0.75320 -0.13600
C 	C 	0.56550 0.40150 0.71420 0.08100
C 	C 	0.43270 0.38870 0.67440 0.07800
C 	C 	0.40990 0.35000 0.71220 -0.13200
C 	C 	0.37330 0.20090 0.93130 0.41300
C 	C 	0.67940 0.43760 0.56060 0.22000
C 	C 	0.59640 0.41640 0.53320 0.21900
C 	C 	0.73500 0.39190 0.57800 -0.61400
C 	C 	0.91190 0.58930 0.54670 0.24000
C 	C 	0.82710 0.57760 0.57760 0.16800
C 	C 	0.80200 0.62910 0.60870 -0.54600
C 	C 	0.58650 0.39720 0.25780 -0.13100
C 	C 	0.65130 0.37260 0.22790 0.04400
C 	C 	0.63230 0.33120 0.19270 -0.10400
C 	C 	0.54610 0.31360 0.18660 0.03400
C 	C 	0.48020 0.33800 0.21730 -0.10500
C 	C 	0.50110 0.37910 0.25200 0.04800
C 	C 	0.52590 0.27020 0.14760 0.06100
C 	C 	0.44550 0.26800 0.12110 -0.13300
C 	C 	0.43080 0.22670 0.08350 0.07900
C 	C 	0.56550 0.19070 0.09950 0.07800
C 	C 	0.58660 0.23000 0.13710 -0.13200
C 	C 	0.60890 0.44210 0.29570 0.39700
C 	C 	0.39620 0.76490 0.11610 -0.14400
C 	C 	0.47990 0.76440 0.13580 0.05700
C 	C 	0.50330 0.73150 0.17870 -0.11100
C 	C 	0.44170 0.70000 0.20310 0.03800
C 	C 	0.35510 0.70090 0.18390 -0.10900
C 	C 	0.33260 0.73360 0.14090 0.05000
C 	C 	0.46780 0.66190 0.24640 0.06400
C 	C 	0.54700 0.63620 0.24680 -0.13600
C 	C 	0.56550 0.59850 0.28580 0.08100
C 	C 	0.43270 0.61130 0.32560 0.07800
C 	C 	0.40990 0.65000 0.28780 -0.13200
C 	C 	0.37330 0.79910 0.06870 0.41300
C 	C 	0.67940 0.56240 0.43940 0.22000
C 	C 	0.59640 0.58360 0.46680 0.21900
C 	C 	0.73500 0.60810 0.42200 -0.61400
C 	C 	0.91190 0.41070 0.45330 0.24000
C 	C 	0.82710 0.42240 0.42240 0.16800
C 	C 	0.80200 0.37090 0.39130 -0.54600
N 	N 	0.98980 0.57280 0.68950 -0.25100
N 	N 	0.00930 0.82480 0.08540 -0.24900
N 	N 	0.98980 0.42720 0.31050 -0.25100
N 	N 	0.00930 0.17520 0.91460 -0.24900
N 	N 	0.01020 0.68950 0.42720 -0.25100
N 	N 	0.99070 0.08540 0.17520 -0.24900
N 	N 	0.01020 0.31050 0.57280 -0.25100
N 	N 	0.99070 0.91460 0.82480 -0.24900
N 	N 	0.51020 0.92720 0.18950 -0.25100
N 	N 	0.49070 0.67520 0.58540 -0.24900
N 	N 	0.51020 0.07280 0.81050 -0.25100
N 	N 	0.49070 0.32480 0.41460 -0.24900
N 	N 	0.48980 0.81050 0.92720 -0.25100
N 	N 	0.50930 0.41460 0.67520 -0.24900
N 	N 	0.48980 0.18950 0.07280 -0.25100
N 	N 	0.50930 0.58540 0.32480 -0.24900
O 	O 	0.04640 0.81785 0.96628 -0.46000
O 	O 	0.19050 0.80103 0.95110 -0.49100
O 	O 	0.79250 0.55560 0.30140 -0.48800
O 	O 	0.93440 0.54550 0.32160 -0.48000
O 	O 	0.15650 0.89609 0.02901 -0.59900
O 	O 	0.02290 0.94886 0.07009 -0.46500
O 	O 	0.10380 0.00740 0.11330 -0.38200
O 	O 	0.40750 0.99170 0.87740 -0.40600
O 	O 	0.48210 0.93833 0.93209 -0.45800
O 	O 	0.34140 0.88742 0.96588 -0.58700
O 	O 	0.04640 0.18215 0.03372 -0.46000
O 	O 	0.19050 0.19897 0.04890 -0.49100
O 	O 	0.79250 0.44440 0.69860 -0.48800
O 	O 	0.93440 0.45450 0.67840 -0.48000
O 	O 	0.15650 0.10391 0.97099 -0.59900
O 	O 	0.02290 0.05114 0.92991 -0.46500
O 	O 	0.10380 0.99260 0.88670 -0.38200
O 	O 	0.40750 0.00830 0.12260 -0.40600
O 	O 	0.48210 0.06167 0.06791 -0.45800
O 	O 	0.34140 0.11258 0.03412 -0.58700
O 	O 	0.95360 0.96628 0.18215 -0.46000
O 	O 	0.80950 0.95110 0.19897 -0.49100
O 	O 	0.20750 0.30140 0.44440 -0.48800
O 	O 	0.06560 0.32160 0.45450 -0.48000
O 	O 	0.84350 0.02901 0.10391 -0.59900
O 	O 	0.97710 0.07009 0.05114 -0.46500
O 	O 	0.89620 0.11330 0.99260 -0.38200
O 	O 	0.59250 0.87740 0.00830 -0.40600
O 	O 	0.51790 0.93209 0.06167 -0.45800
O 	O 	0.65860 0.96588 0.11258 -0.58700
O 	O 	0.95360 0.03372 0.81785 -0.46000
O 	O 	0.80950 0.04890 0.80103 -0.49100
O 	O 	0.20750 0.69860 0.55560 -0.48800
O 	O 	0.06560 0.67840 0.54550 -0.48000
O 	O 	0.84350 0.97099 0.89609 -0.59900
O 	O 	0.97710 0.92991 0.94886 -0.46500
O 	O 	0.89620 0.88670 0.00740 -0.38200
O 	O 	0.59250 0.12260 0.99170 -0.40600
O 	O 	0.51790 0.06791 0.93833 -0.45800
O 	O 	0.65860 0.03412 0.88742 -0.58700
O 	O 	0.45360 0.68215 0.46628 -0.46000
O 	O 	0.30950 0.69897 0.45110 -0.49100
O 	O 	0.70750 0.94440 0.80140 -0.48800
O 	O 	0.56560 0.95450 0.82160 -0.48000
O 	O 	0.34350 0.60391 0.52901 -0.60000
O 	O 	0.47710 0.55114 0.57009 -0.46500
O 	O 	0.39620 0.49260 0.61330 -0.38200
O 	O 	0.09250 0.50830 0.37740 -0.40600
O 	O 	0.01790 0.56167 0.43209 -0.45800
O 	O 	0.15860 0.61258 0.46588 -0.58700
O 	O 	0.45360 0.31785 0.53372 -0.46000
O 	O 	0.30950 0.30103 0.54890 -0.49100
O 	O 	0.70750 0.05560 0.19860 -0.48800
O 	O 	0.56560 0.04550 0.17840 -0.48000
O 	O 	0.34350 0.39609 0.47099 -0.60000
O 	O 	0.47710 0.44886 0.42991 -0.46500
O 	O 	0.39620 0.50740 0.38670 -0.38200
O 	O 	0.09250 0.49170 0.62260 -0.40600
O 	O 	0.01790 0.43833 0.56791 -0.45800
O 	O 	0.15860 0.38742 0.53412 -0.58700
O 	O 	0.54640 0.53372 0.68215 -0.46000
O 	O 	0.69050 0.54890 0.69897 -0.49100
O 	O 	0.29250 0.19860 0.94440 -0.48800
O 	O 	0.43440 0.17840 0.95450 -0.48000
O 	O 	0.65650 0.47099 0.60391 -0.60000
O 	O 	0.52290 0.42991 0.55114 -0.46500
O 	O 	0.60380 0.38670 0.49260 -0.38200
O 	O 	0.90750 0.62260 0.50830 -0.40600
O 	O 	0.98210 0.56791 0.56167 -0.45800
O 	O 	0.84140 0.53412 0.61258 -0.58700
O 	O 	0.54640 0.46628 0.31785 -0.46000
O 	O 	0.69050 0.45110 0.30103 -0.49100
O 	O 	0.29250 0.80140 0.05560 -0.48800
O 	O 	0.43440 0.82160 0.04550 -0.48000
O 	O 	0.65650 0.52901 0.39609 -0.60000
O 	O 	0.52290 0.57009 0.44886 -0.46500
O 	O 	0.60380 0.61330 0.50740 -0.38200
O 	O 	0.90750 0.37740 0.49170 -0.40600
O 	O 	0.98210 0.43209 0.43833 -0.45800
O 	O 	0.84140 0.46588 0.38742 -0.58700
