data_crystal

_cell_length_a 24.79500
_cell_length_b 13.65100
_cell_length_c 14.93600
_cell_angle_alpha 90.00000
_cell_angle_beta  97.07700
_cell_angle_gamma 90.00000

_symmetry_space_group_name_	'P 1'
_symmetry_space_group_name_H-M	'P 1'

loop_
_symmetry_equiv_pos_as_xyz
  x,y,z

loop_
_atom_site_label
_atom_site_type_symbol
_atom_site_fract_x
_atom_site_fract_y
_atom_site_fract_z
_atom_site_charge
La	La	0.83091 0.21018 0.53028 1.62700
C 	C 	0.07000 0.72170 0.54160 0.31800
C 	C 	0.01970 0.68880 0.58140 -0.11800
C 	C 	0.98630 0.75470 0.61740 0.05100
H 	H 	0.99620 0.82020 0.62330 0.02900
C 	C 	0.93720 0.72300 0.64510 -0.13600
H 	H 	0.91410 0.76840 0.66690 0.08700
C 	C 	0.92270 0.62520 0.64050 0.09000
C 	C 	0.95760 0.56070 0.60710 -0.13800
H 	H 	0.94830 0.49470 0.60320 0.08200
C 	C 	0.00630 0.59060 0.57870 0.05100
H 	H 	0.02970 0.54480 0.55810 0.02400
C 	C 	0.86840 0.59460 0.66540 -0.04300
C 	C 	0.84580 0.64050 0.73560 0.00800
H 	H 	0.86650 0.68590 0.77140 0.04400
C 	C 	0.79310 0.62040 0.75370 -0.11300
C 	C 	0.76280 0.55200 0.70130 0.05000
H 	H 	0.72720 0.53940 0.71160 0.03800
C 	C 	0.78480 0.50180 0.63340 -0.12400
C 	C 	0.83770 0.52160 0.61640 0.00400
H 	H 	0.85280 0.48640 0.57230 0.03100
C 	C 	0.74990 0.42850 0.57660 0.37600
C 	C 	0.77160 0.67180 0.83150 0.37600
O 	O 	0.08265 0.81150 0.54700 -0.37100
O 	O 	0.09742 0.66130 0.50380 -0.38700
O 	O 	0.77297 0.35790 0.54160 -0.48600
O 	O 	0.70008 0.43950 0.56600 -0.39300
O 	O 	0.72369 0.65000 0.84780 -0.41200
O 	O 	0.80241 0.73150 0.87540 -0.41600
O 	O 	0.88150 0.06250 0.60790 -0.55300
H 	H 	0.85560 0.02100 0.56380 0.17200
H 	H 	0.90720 0.10140 0.61960 0.22700
La	La	0.33091 0.71018 0.53028 1.62800
C 	C 	0.57000 0.22170 0.54160 0.31900
C 	C 	0.51970 0.18880 0.58140 -0.11600
C 	C 	0.48630 0.25470 0.61740 0.05200
H 	H 	0.49620 0.32020 0.62330 0.03000
C 	C 	0.43720 0.22300 0.64510 -0.13500
H 	H 	0.41410 0.26840 0.66690 0.08700
C 	C 	0.42270 0.12520 0.64050 0.09000
C 	C 	0.45760 0.06070 0.60710 -0.13900
H 	H 	0.44830 0.99470 0.60320 0.08200
C 	C 	0.50630 0.09060 0.57870 0.05100
H 	H 	0.52970 0.04480 0.55810 0.02300
C 	C 	0.36840 0.09460 0.66540 -0.04300
C 	C 	0.34580 0.14050 0.73560 0.00800
H 	H 	0.36650 0.18590 0.77140 0.04400
C 	C 	0.29310 0.12040 0.75370 -0.11300
C 	C 	0.26280 0.05200 0.70130 0.05100
H 	H 	0.22720 0.03940 0.71160 0.03700
C 	C 	0.28480 0.00180 0.63340 -0.12500
C 	C 	0.33770 0.02160 0.61640 0.00400
H 	H 	0.35280 0.98640 0.57230 0.03100
C 	C 	0.24990 0.92850 0.57660 0.37600
C 	C 	0.27160 0.17180 0.83150 0.37700
O 	O 	0.58265 0.31150 0.54700 -0.37100
O 	O 	0.59742 0.16130 0.50380 -0.38700
O 	O 	0.27297 0.85790 0.54160 -0.48600
O 	O 	0.20008 0.93950 0.56600 -0.39400
O 	O 	0.22369 0.15000 0.84780 -0.41200
O 	O 	0.30241 0.23150 0.87540 -0.41700
O 	O 	0.38150 0.56250 0.60790 -0.55300
H 	H 	0.35560 0.52100 0.56380 0.17300
H 	H 	0.40720 0.60140 0.61960 0.22700
La	La	0.16909 0.21018 0.96972 1.62700
C 	C 	0.93000 0.72170 0.95840 0.31900
C 	C 	0.98030 0.68880 0.91860 -0.11500
C 	C 	0.01370 0.75470 0.88260 0.05000
H 	H 	0.00380 0.82020 0.87670 0.03000
C 	C 	0.06280 0.72300 0.85490 -0.13400
H 	H 	0.08590 0.76840 0.83310 0.08700
C 	C 	0.07730 0.62520 0.85950 0.09000
C 	C 	0.04240 0.56070 0.89290 -0.14100
H 	H 	0.05170 0.49470 0.89680 0.08200
C 	C 	0.99370 0.59060 0.92130 0.05300
H 	H 	0.97030 0.54480 0.94190 0.02300
C 	C 	0.13160 0.59460 0.83460 -0.04400
C 	C 	0.15420 0.64050 0.76440 0.00800
H 	H 	0.13350 0.68590 0.72860 0.04400
C 	C 	0.20690 0.62040 0.74630 -0.11300
C 	C 	0.23720 0.55200 0.79870 0.05100
H 	H 	0.27280 0.53940 0.78840 0.03800
C 	C 	0.21520 0.50180 0.86660 -0.12500
C 	C 	0.16230 0.52160 0.88360 0.00400
H 	H 	0.14720 0.48640 0.92770 0.03100
C 	C 	0.25010 0.42850 0.92340 0.37600
C 	C 	0.22840 0.67180 0.66850 0.37700
O 	O 	0.91735 0.81150 0.95300 -0.37000
O 	O 	0.90258 0.66130 0.99620 -0.38600
O 	O 	0.22703 0.35790 0.95840 -0.48600
O 	O 	0.29992 0.43950 0.93400 -0.39300
O 	O 	0.27631 0.65000 0.65220 -0.41200
O 	O 	0.19759 0.73150 0.62460 -0.41700
O 	O 	0.11850 0.06250 0.89210 -0.55300
H 	H 	0.14440 0.02100 0.93620 0.17200
H 	H 	0.09280 0.10140 0.88040 0.22600
La	La	0.66909 0.71018 0.96972 1.62900
C 	C 	0.43000 0.22170 0.95840 0.31900
C 	C 	0.48030 0.18880 0.91860 -0.11600
C 	C 	0.51370 0.25470 0.88260 0.05200
H 	H 	0.50380 0.32020 0.87670 0.03000
C 	C 	0.56280 0.22300 0.85490 -0.13400
H 	H 	0.58590 0.26840 0.83310 0.08700
C 	C 	0.57730 0.12520 0.85950 0.09000
C 	C 	0.54240 0.06070 0.89290 -0.13900
H 	H 	0.55170 0.99470 0.89680 0.08200
C 	C 	0.49370 0.09060 0.92130 0.05100
H 	H 	0.47030 0.04480 0.94190 0.02300
C 	C 	0.63160 0.09460 0.83460 -0.04300
C 	C 	0.65420 0.14050 0.76440 0.00800
H 	H 	0.63350 0.18590 0.72860 0.04400
C 	C 	0.70690 0.12040 0.74630 -0.11300
C 	C 	0.73720 0.05200 0.79870 0.05100
H 	H 	0.77280 0.03940 0.78840 0.03800
C 	C 	0.71520 0.00180 0.86660 -0.12500
C 	C 	0.66230 0.02160 0.88360 0.00400
H 	H 	0.64720 0.98640 0.92770 0.03100
C 	C 	0.75010 0.92850 0.92340 0.37600
C 	C 	0.72840 0.17180 0.66850 0.37600
O 	O 	0.41735 0.31150 0.95300 -0.37100
O 	O 	0.40258 0.16130 0.99620 -0.38700
O 	O 	0.72703 0.85790 0.95840 -0.48500
O 	O 	0.79992 0.93950 0.93400 -0.39300
O 	O 	0.77631 0.15000 0.65220 -0.41200
O 	O 	0.69759 0.23150 0.62460 -0.41600
O 	O 	0.61850 0.56250 0.89210 -0.55300
H 	H 	0.64440 0.52100 0.93620 0.17300
H 	H 	0.59280 0.60140 0.88040 0.22700
La	La	0.16909 0.78982 0.46972 1.62800
C 	C 	0.93000 0.27830 0.45840 0.31900
C 	C 	0.98030 0.31120 0.41860 -0.11700
C 	C 	0.01370 0.24530 0.38260 0.05200
H 	H 	0.00380 0.17980 0.37670 0.03000
C 	C 	0.06280 0.27700 0.35490 -0.13500
H 	H 	0.08590 0.23160 0.33310 0.08700
C 	C 	0.07730 0.37480 0.35950 0.09000
C 	C 	0.04240 0.43930 0.39290 -0.13800
H 	H 	0.05170 0.50530 0.39680 0.08200
C 	C 	0.99370 0.40940 0.42130 0.05100
H 	H 	0.97030 0.45520 0.44190 0.02400
C 	C 	0.13160 0.40540 0.33460 -0.04300
C 	C 	0.15420 0.35950 0.26440 0.00800
H 	H 	0.13350 0.31410 0.22860 0.04400
C 	C 	0.20690 0.37960 0.24630 -0.11300
C 	C 	0.23720 0.44800 0.29870 0.05000
H 	H 	0.27280 0.46060 0.28840 0.03800
C 	C 	0.21520 0.49820 0.36660 -0.12400
C 	C 	0.16230 0.47840 0.38360 0.00400
H 	H 	0.14720 0.51360 0.42770 0.03100
C 	C 	0.25010 0.57150 0.42340 0.37600
C 	C 	0.22840 0.32820 0.16850 0.37600
O 	O 	0.91735 0.18850 0.45300 -0.37100
O 	O 	0.90258 0.33870 0.49620 -0.38700
O 	O 	0.22703 0.64210 0.45840 -0.48600
O 	O 	0.29992 0.56050 0.43400 -0.39300
O 	O 	0.27631 0.35000 0.15220 -0.41200
O 	O 	0.19759 0.26850 0.12460 -0.41600
O 	O 	0.11850 0.93750 0.39210 -0.55300
H 	H 	0.14440 0.97900 0.43620 0.17200
H 	H 	0.09280 0.89860 0.38040 0.22700
La	La	0.66909 0.28982 0.46972 1.62800
C 	C 	0.43000 0.77830 0.45840 0.31900
C 	C 	0.48030 0.81120 0.41860 -0.11600
C 	C 	0.51370 0.74530 0.38260 0.05200
H 	H 	0.50380 0.67980 0.37670 0.03000
C 	C 	0.56280 0.77700 0.35490 -0.13500
H 	H 	0.58590 0.73160 0.33310 0.08700
C 	C 	0.57730 0.87480 0.35950 0.09000
C 	C 	0.54240 0.93930 0.39290 -0.13900
H 	H 	0.55170 0.00530 0.39680 0.08200
C 	C 	0.49370 0.90940 0.42130 0.05100
H 	H 	0.47030 0.95520 0.44190 0.02300
C 	C 	0.63160 0.90540 0.33460 -0.04300
C 	C 	0.65420 0.85950 0.26440 0.00800
H 	H 	0.63350 0.81410 0.22860 0.04400
C 	C 	0.70690 0.87960 0.24630 -0.11300
C 	C 	0.73720 0.94800 0.29870 0.05100
H 	H 	0.77280 0.96060 0.28840 0.03700
C 	C 	0.71520 0.99820 0.36660 -0.12500
C 	C 	0.66230 0.97840 0.38360 0.00400
H 	H 	0.64720 0.01360 0.42770 0.03100
C 	C 	0.75010 0.07150 0.42340 0.37600
C 	C 	0.72840 0.82820 0.16850 0.37700
O 	O 	0.41735 0.68850 0.45300 -0.37100
O 	O 	0.40258 0.83870 0.49620 -0.38700
O 	O 	0.72703 0.14210 0.45840 -0.48600
O 	O 	0.79992 0.06050 0.43400 -0.39400
O 	O 	0.77631 0.85000 0.15220 -0.41200
O 	O 	0.69759 0.76850 0.12460 -0.41700
O 	O 	0.61850 0.43750 0.39210 -0.55300
H 	H 	0.64440 0.47900 0.43620 0.17300
H 	H 	0.59280 0.39860 0.38040 0.22700
La	La	0.83091 0.78982 0.03028 1.62700
C 	C 	0.07000 0.27830 0.04160 0.31900
C 	C 	0.01970 0.31120 0.08140 -0.11500
C 	C 	0.98630 0.24530 0.11740 0.05000
H 	H 	0.99620 0.17980 0.12330 0.03000
C 	C 	0.93720 0.27700 0.14510 -0.13400
H 	H 	0.91410 0.23160 0.16690 0.08700
C 	C 	0.92270 0.37480 0.14050 0.09000
C 	C 	0.95760 0.43930 0.10710 -0.14100
H 	H 	0.94830 0.50530 0.10320 0.08200
C 	C 	0.00630 0.40940 0.07870 0.05300
H 	H 	0.02970 0.45520 0.05810 0.02300
C 	C 	0.86840 0.40540 0.16540 -0.04400
C 	C 	0.84580 0.35950 0.23560 0.00800
H 	H 	0.86650 0.31410 0.27140 0.04400
C 	C 	0.79310 0.37960 0.25370 -0.11300
C 	C 	0.76280 0.44800 0.20130 0.05100
H 	H 	0.72720 0.46060 0.21160 0.03800
C 	C 	0.78480 0.49820 0.13340 -0.12500
C 	C 	0.83770 0.47840 0.11640 0.00400
H 	H 	0.85280 0.51360 0.07230 0.03100
C 	C 	0.74990 0.57150 0.07660 0.37600
C 	C 	0.77160 0.32820 0.33150 0.37700
O 	O 	0.08265 0.18850 0.04700 -0.37000
O 	O 	0.09742 0.33870 0.00380 -0.38600
O 	O 	0.77297 0.64210 0.04160 -0.48600
O 	O 	0.70008 0.56050 0.06600 -0.39300
O 	O 	0.72369 0.35000 0.34780 -0.41200
O 	O 	0.80241 0.26850 0.37540 -0.41700
O 	O 	0.88150 0.93750 0.10790 -0.55300
H 	H 	0.85560 0.97900 0.06380 0.17200
H 	H 	0.90720 0.89860 0.11960 0.22600
La	La	0.33091 0.28982 0.03028 1.62900
C 	C 	0.57000 0.77830 0.04160 0.31900
C 	C 	0.51970 0.81120 0.08140 -0.11600
C 	C 	0.48630 0.74530 0.11740 0.05200
H 	H 	0.49620 0.67980 0.12330 0.03000
C 	C 	0.43720 0.77700 0.14510 -0.13400
H 	H 	0.41410 0.73160 0.16690 0.08700
C 	C 	0.42270 0.87480 0.14050 0.09000
C 	C 	0.45760 0.93930 0.10710 -0.13900
H 	H 	0.44830 0.00530 0.10320 0.08200
C 	C 	0.50630 0.90940 0.07870 0.05100
H 	H 	0.52970 0.95520 0.05810 0.02300
C 	C 	0.36840 0.90540 0.16540 -0.04300
C 	C 	0.34580 0.85950 0.23560 0.00800
H 	H 	0.36650 0.81410 0.27140 0.04400
C 	C 	0.29310 0.87960 0.25370 -0.11300
C 	C 	0.26280 0.94800 0.20130 0.05100
H 	H 	0.22720 0.96060 0.21160 0.03800
C 	C 	0.28480 0.99820 0.13340 -0.12500
C 	C 	0.33770 0.97840 0.11640 0.00400
H 	H 	0.35280 0.01360 0.07230 0.03100
C 	C 	0.24990 0.07150 0.07660 0.37600
C 	C 	0.27160 0.82820 0.33150 0.37600
O 	O 	0.58265 0.68850 0.04700 -0.37100
O 	O 	0.59742 0.83870 0.00380 -0.38700
O 	O 	0.27297 0.14210 0.04160 -0.48500
O 	O 	0.20008 0.06050 0.06600 -0.39300
O 	O 	0.22369 0.85000 0.34780 -0.41200
O 	O 	0.30241 0.76850 0.37540 -0.41600
O 	O 	0.38150 0.43750 0.10790 -0.55300
H 	H 	0.35560 0.47900 0.06380 0.17300
H 	H 	0.40720 0.39860 0.11960 0.22700
