data_crystal

_cell_length_a 24.59100
_cell_length_b 13.80400
_cell_length_c 14.75200
_cell_angle_alpha 90.00000
_cell_angle_beta  97.13500
_cell_angle_gamma 90.00000

_symmetry_space_group_name_	'P 1'
_symmetry_space_group_name_H-M	'P 1'

loop_
_symmetry_equiv_pos_as_xyz
  x,y,z

loop_
_atom_site_label
_atom_site_type_symbol
_atom_site_fract_x
_atom_site_fract_y
_atom_site_fract_z
_atom_site_charge
Ce	Ce	0.16906 0.21131 0.47052 2.10200
O 	O 	0.08331 0.19207 0.54770 -0.47000
O 	O 	0.09818 0.33939 0.50276 -0.45900
O 	O 	0.27416 0.14510 0.54327 -0.61300
O 	O 	0.19978 0.06529 0.56730 -0.48600
O 	O 	0.22329 0.14813 0.34954 -0.54100
O 	O 	0.19820 0.27110 0.62413 -0.52100
C 	C 	0.24966 0.42460 0.42165 0.41100
C 	C 	0.21510 0.49800 0.36530 -0.16200
C 	C 	0.16221 0.51850 0.38220 0.02700
C 	C 	0.23778 0.54840 0.29690 0.08500
C 	C 	0.13181 0.59110 0.33360 -0.07000
H 	H 	0.14680 0.48350 0.42650 0.01800
C 	C 	0.20689 0.61600 0.24430 -0.15700
H 	H 	0.27380 0.53640 0.28690 0.01200
C 	C 	0.07719 0.62250 0.35870 0.10500
C 	C 	0.15436 0.63760 0.26360 0.03700
C 	C 	0.22888 0.66880 0.16650 0.44500
C 	C 	0.04164 0.55740 0.39110 -0.15700
C 	C 	0.06245 0.71900 0.35450 -0.15900
H 	H 	0.13390 0.68430 0.22900 0.03100
H 	H 	0.05020 0.49180 0.39350 0.08400
C 	C 	0.99300 0.58930 0.42020 0.06800
H 	H 	0.08560 0.76380 0.33200 0.08200
C 	C 	0.01392 0.75040 0.38310 0.07100
C 	C 	0.97938 0.68580 0.41830 -0.14200
H 	H 	0.96930 0.54450 0.44120 0.01600
H 	H 	0.00460 0.81560 0.37850 0.00700
C 	C 	0.92922 0.71930 0.45780 0.34000
Ce	Ce	0.66906 0.71131 0.47052 2.10100
O 	O 	0.58331 0.69207 0.54770 -0.47000
O 	O 	0.59818 0.83939 0.50276 -0.46000
O 	O 	0.77416 0.64510 0.54327 -0.61400
O 	O 	0.69978 0.56529 0.56730 -0.48600
O 	O 	0.72329 0.64813 0.34954 -0.54100
O 	O 	0.69820 0.77110 0.62413 -0.52100
C 	C 	0.74966 0.92460 0.42165 0.41000
C 	C 	0.71510 0.99800 0.36530 -0.16000
C 	C 	0.66221 0.01850 0.38220 0.02500
C 	C 	0.73778 0.04840 0.29690 0.08400
C 	C 	0.63181 0.09110 0.33360 -0.07000
H 	H 	0.64680 0.98350 0.42650 0.01900
C 	C 	0.70689 0.11600 0.24430 -0.15700
H 	H 	0.77380 0.03640 0.28690 0.01200
C 	C 	0.57719 0.12250 0.35870 0.10500
C 	C 	0.65436 0.13760 0.26360 0.03600
C 	C 	0.72888 0.16880 0.16650 0.44500
C 	C 	0.54164 0.05740 0.39110 -0.15900
C 	C 	0.56245 0.21900 0.35450 -0.15900
H 	H 	0.63390 0.18430 0.22900 0.03100
H 	H 	0.55020 0.99180 0.39350 0.08400
C 	C 	0.49300 0.08930 0.42020 0.06900
H 	H 	0.58560 0.26380 0.33200 0.08200
C 	C 	0.51392 0.25040 0.38310 0.07100
C 	C 	0.47938 0.18580 0.41830 -0.14200
H 	H 	0.46930 0.04450 0.44120 0.01600
H 	H 	0.50460 0.31560 0.37850 0.00700
C 	C 	0.42922 0.21930 0.45780 0.33900
Ce	Ce	0.83094 0.21131 0.02948 2.10000
O 	O 	0.91669 0.19207 0.95230 -0.46900
O 	O 	0.90182 0.33939 0.99724 -0.45900
O 	O 	0.72584 0.14510 0.95673 -0.61200
O 	O 	0.80022 0.06529 0.93270 -0.48400
O 	O 	0.77671 0.14813 0.15046 -0.54100
O 	O 	0.80180 0.27110 0.87587 -0.52100
C 	C 	0.75034 0.42460 0.07835 0.41100
C 	C 	0.78490 0.49800 0.13470 -0.16200
C 	C 	0.83779 0.51850 0.11780 0.02700
C 	C 	0.76222 0.54840 0.20310 0.08600
C 	C 	0.86819 0.59110 0.16640 -0.07100
H 	H 	0.85320 0.48350 0.07350 0.01800
C 	C 	0.79311 0.61600 0.25570 -0.15700
H 	H 	0.72620 0.53640 0.21310 0.01200
C 	C 	0.92281 0.62250 0.14130 0.10500
C 	C 	0.84564 0.63760 0.23640 0.03700
C 	C 	0.77112 0.66880 0.33350 0.44500
C 	C 	0.95836 0.55740 0.10890 -0.16000
C 	C 	0.93755 0.71900 0.14550 -0.15800
H 	H 	0.86610 0.68430 0.27100 0.03000
H 	H 	0.94980 0.49180 0.10650 0.08400
C 	C 	0.00700 0.58930 0.07980 0.07100
H 	H 	0.91440 0.76380 0.16800 0.08100
C 	C 	0.98608 0.75040 0.11690 0.06800
C 	C 	0.02062 0.68580 0.08170 -0.13900
H 	H 	0.03070 0.54450 0.05880 0.01600
H 	H 	0.99540 0.81560 0.12150 0.00700
C 	C 	0.07078 0.71930 0.04220 0.33900
Ce	Ce	0.33094 0.71131 0.02948 2.10200
O 	O 	0.41669 0.69207 0.95230 -0.47100
O 	O 	0.40182 0.83939 0.99724 -0.46100
O 	O 	0.22584 0.64510 0.95673 -0.61500
O 	O 	0.30022 0.56529 0.93270 -0.48600
O 	O 	0.27671 0.64813 0.15046 -0.54000
O 	O 	0.30180 0.77110 0.87587 -0.52200
C 	C 	0.25034 0.92460 0.07835 0.40900
C 	C 	0.28490 0.99800 0.13470 -0.15600
C 	C 	0.33779 0.01850 0.11780 0.01900
C 	C 	0.26222 0.04840 0.20310 0.08100
C 	C 	0.36819 0.09110 0.16640 -0.06800
H 	H 	0.35320 0.98350 0.07350 0.02200
C 	C 	0.29311 0.11600 0.25570 -0.15500
H 	H 	0.22620 0.03640 0.21310 0.01300
C 	C 	0.42281 0.12250 0.14130 0.10500
C 	C 	0.34564 0.13760 0.23640 0.03400
C 	C 	0.27112 0.16880 0.33350 0.44400
C 	C 	0.45836 0.05740 0.10890 -0.16100
C 	C 	0.43755 0.21900 0.14550 -0.15900
H 	H 	0.36610 0.18430 0.27100 0.03100
H 	H 	0.44980 0.99180 0.10650 0.08600
C 	C 	0.50700 0.08930 0.07980 0.07100
H 	H 	0.41440 0.26380 0.16800 0.08200
C 	C 	0.48608 0.25040 0.11690 0.07200
C 	C 	0.52062 0.18580 0.08170 -0.14200
H 	H 	0.53070 0.04450 0.05880 0.01500
H 	H 	0.49540 0.31560 0.12150 0.00700
C 	C 	0.57078 0.21930 0.04220 0.34000
Ce	Ce	0.83094 0.78869 0.52948 2.10100
O 	O 	0.91669 0.80793 0.45230 -0.47100
O 	O 	0.90182 0.66061 0.49724 -0.46000
O 	O 	0.72584 0.85490 0.45673 -0.61400
O 	O 	0.80022 0.93471 0.43270 -0.48600
O 	O 	0.77671 0.85187 0.65046 -0.54100
O 	O 	0.80180 0.72890 0.37587 -0.52100
C 	C 	0.75034 0.57540 0.57835 0.41100
C 	C 	0.78490 0.50200 0.63470 -0.16200
C 	C 	0.83779 0.48150 0.61780 0.02700
C 	C 	0.76222 0.45160 0.70310 0.08500
C 	C 	0.86819 0.40890 0.66640 -0.07000
H 	H 	0.85320 0.51650 0.57350 0.01800
C 	C 	0.79311 0.38400 0.75570 -0.15700
H 	H 	0.72620 0.46360 0.71310 0.01200
C 	C 	0.92281 0.37750 0.64130 0.10500
C 	C 	0.84564 0.36240 0.73640 0.03700
C 	C 	0.77112 0.33120 0.83350 0.44500
C 	C 	0.95836 0.44260 0.60890 -0.15700
C 	C 	0.93755 0.28100 0.64550 -0.15900
H 	H 	0.86610 0.31570 0.77100 0.03100
H 	H 	0.94980 0.50820 0.60650 0.08400
C 	C 	0.00700 0.41070 0.57980 0.06800
H 	H 	0.91440 0.23620 0.66800 0.08200
C 	C 	0.98608 0.24960 0.61690 0.07100
C 	C 	0.02062 0.31420 0.58170 -0.14200
H 	H 	0.03070 0.45550 0.55880 0.01600
H 	H 	0.99540 0.18440 0.62150 0.00700
C 	C 	0.07078 0.28070 0.54220 0.34000
Ce	Ce	0.33094 0.28869 0.52948 2.10100
O 	O 	0.41669 0.30793 0.45230 -0.47000
O 	O 	0.40182 0.16061 0.49724 -0.46000
O 	O 	0.22584 0.35490 0.45673 -0.61400
O 	O 	0.30022 0.43471 0.43270 -0.48600
O 	O 	0.27671 0.35187 0.65046 -0.54100
O 	O 	0.30180 0.22890 0.37587 -0.52100
C 	C 	0.25034 0.07540 0.57835 0.41000
C 	C 	0.28490 0.00200 0.63470 -0.16000
C 	C 	0.33779 0.98150 0.61780 0.02500
C 	C 	0.26222 0.95160 0.70310 0.08400
C 	C 	0.36819 0.90890 0.66640 -0.07000
H 	H 	0.35320 0.01650 0.57350 0.01900
C 	C 	0.29311 0.88400 0.75570 -0.15700
H 	H 	0.22620 0.96360 0.71310 0.01200
C 	C 	0.42281 0.87750 0.64130 0.10500
C 	C 	0.34564 0.86240 0.73640 0.03600
C 	C 	0.27112 0.83120 0.83350 0.44500
C 	C 	0.45836 0.94260 0.60890 -0.15900
C 	C 	0.43755 0.78100 0.64550 -0.15900
H 	H 	0.36610 0.81570 0.77100 0.03100
H 	H 	0.44980 0.00820 0.60650 0.08400
C 	C 	0.50700 0.91070 0.57980 0.06900
H 	H 	0.41440 0.73620 0.66800 0.08200
C 	C 	0.48608 0.74960 0.61690 0.07100
C 	C 	0.52062 0.81420 0.58170 -0.14200
H 	H 	0.53070 0.95550 0.55880 0.01600
H 	H 	0.49540 0.68440 0.62150 0.00700
C 	C 	0.57078 0.78070 0.54220 0.33900
Ce	Ce	0.16906 0.78869 0.97052 2.10000
O 	O 	0.08331 0.80793 0.04770 -0.46900
O 	O 	0.09818 0.66061 0.00276 -0.45900
O 	O 	0.27416 0.85490 0.04327 -0.61200
O 	O 	0.19978 0.93471 0.06730 -0.48400
O 	O 	0.22329 0.85187 0.84954 -0.54100
O 	O 	0.19820 0.72890 0.12413 -0.52100
C 	C 	0.24966 0.57540 0.92165 0.41100
C 	C 	0.21510 0.50200 0.86530 -0.16200
C 	C 	0.16221 0.48150 0.88220 0.02700
C 	C 	0.23778 0.45160 0.79690 0.08600
C 	C 	0.13181 0.40890 0.83360 -0.07100
H 	H 	0.14680 0.51650 0.92650 0.01800
C 	C 	0.20689 0.38400 0.74430 -0.15700
H 	H 	0.27380 0.46360 0.78690 0.01200
C 	C 	0.07719 0.37750 0.85870 0.10500
C 	C 	0.15436 0.36240 0.76360 0.03700
C 	C 	0.22888 0.33120 0.66650 0.44500
C 	C 	0.04164 0.44260 0.89110 -0.16000
C 	C 	0.06245 0.28100 0.85450 -0.15800
H 	H 	0.13390 0.31570 0.72900 0.03000
H 	H 	0.05020 0.50820 0.89350 0.08400
C 	C 	0.99300 0.41070 0.92020 0.07100
H 	H 	0.08560 0.23620 0.83200 0.08100
C 	C 	0.01392 0.24960 0.88310 0.06800
C 	C 	0.97938 0.31420 0.91830 -0.13900
H 	H 	0.96930 0.45550 0.94120 0.01600
H 	H 	0.00460 0.18440 0.87850 0.00700
C 	C 	0.92922 0.28070 0.95780 0.33900
Ce	Ce	0.66906 0.28869 0.97052 2.10200
O 	O 	0.58331 0.30793 0.04770 -0.47100
O 	O 	0.59818 0.16061 0.00276 -0.46100
O 	O 	0.77416 0.35490 0.04327 -0.61500
O 	O 	0.69978 0.43471 0.06730 -0.48600
O 	O 	0.72329 0.35187 0.84954 -0.54000
O 	O 	0.69820 0.22890 0.12413 -0.52200
C 	C 	0.74966 0.07540 0.92165 0.40900
C 	C 	0.71510 0.00200 0.86530 -0.15600
C 	C 	0.66221 0.98150 0.88220 0.01900
C 	C 	0.73778 0.95160 0.79690 0.08100
C 	C 	0.63181 0.90890 0.83360 -0.06800
H 	H 	0.64680 0.01650 0.92650 0.02200
C 	C 	0.70689 0.88400 0.74430 -0.15500
H 	H 	0.77380 0.96360 0.78690 0.01300
C 	C 	0.57719 0.87750 0.85870 0.10500
C 	C 	0.65436 0.86240 0.76360 0.03400
C 	C 	0.72888 0.83120 0.66650 0.44400
C 	C 	0.54164 0.94260 0.89110 -0.16100
C 	C 	0.56245 0.78100 0.85450 -0.15900
H 	H 	0.63390 0.81570 0.72900 0.03100
H 	H 	0.55020 0.00820 0.89350 0.08600
C 	C 	0.49300 0.91070 0.92020 0.07100
H 	H 	0.58560 0.73620 0.83200 0.08200
C 	C 	0.51392 0.74960 0.88310 0.07200
C 	C 	0.47938 0.81420 0.91830 -0.14200
H 	H 	0.46930 0.95550 0.94120 0.01500
H 	H 	0.50460 0.68440 0.87850 0.00700
C 	C 	0.42922 0.78070 0.95780 0.34000
