data_crystal

_cell_length_a 24.58500
_cell_length_b 13.17260
_cell_length_c 14.82900
_cell_angle_alpha 90.00000
_cell_angle_beta  96.41900
_cell_angle_gamma 90.00000

_symmetry_space_group_name_	'P 1'
_symmetry_space_group_name_H-M	'P 1'

loop_
_symmetry_equiv_pos_as_xyz
  x,y,z

loop_
_atom_site_label
_atom_site_type_symbol
_atom_site_fract_x
_atom_site_fract_y
_atom_site_fract_z
_atom_site_charge
Sm	Sm	0.32828 0.79240 0.03005 1.86900
C 	C 	0.57377 0.27130 0.04140 0.33600
C 	C 	0.52319 0.30420 0.08120 -0.13600
C 	C 	0.48898 0.23530 0.11640 0.06800
H 	H 	0.49890 0.16730 0.12080 0.00900
C 	C 	0.43999 0.26650 0.14510 -0.15700
H 	H 	0.41740 0.21910 0.16880 0.08200
C 	C 	0.42409 0.36750 0.13912 0.10800
C 	C 	0.45947 0.43690 0.10700 -0.15700
H 	H 	0.45020 0.50540 0.10410 0.08400
C 	C 	0.50867 0.40510 0.07890 0.06600
H 	H 	0.53220 0.45280 0.05820 0.01600
C 	C 	0.36936 0.39940 0.16287 -0.08400
C 	C 	0.34707 0.35270 0.23498 0.05300
H 	H 	0.36770 0.30500 0.27020 0.02500
C 	C 	0.29453 0.37630 0.25501 -0.17900
C 	C 	0.26314 0.44530 0.20127 0.10200
H 	H 	0.22730 0.45840 0.21200 0.00400
C 	C 	0.28541 0.49502 0.13125 -0.17800
C 	C 	0.33858 0.47340 0.11347 0.04500
H 	H 	0.35370 0.50870 0.06810 0.01400
C 	C 	0.25120 0.56990 0.07461 0.43600
C 	C 	0.27310 0.32590 0.33492 0.47600
O 	O 	0.58729 0.17832 0.04450 -0.42900
O 	O 	0.60148 0.33526 0.00481 -0.43000
O 	O 	0.27413 0.64483 0.04006 -0.57200
O 	O 	0.20082 0.55726 0.06179 -0.46000
O 	O 	0.22590 0.34945 0.35257 -0.52200
O 	O 	0.30406 0.26352 0.37793 -0.48800
Sm	Sm	0.82827 0.29240 0.03005 1.86700
C 	C 	0.07377 0.77130 0.04140 0.33700
C 	C 	0.02319 0.80420 0.08120 -0.13400
C 	C 	0.98898 0.73530 0.11640 0.06600
H 	H 	0.99890 0.66730 0.12080 0.00900
C 	C 	0.93999 0.76650 0.14510 -0.15700
H 	H 	0.91740 0.71910 0.16880 0.08200
C 	C 	0.92409 0.86750 0.13912 0.10900
C 	C 	0.95947 0.93690 0.10700 -0.16200
H 	H 	0.95020 0.00540 0.10410 0.08600
C 	C 	0.00867 0.90510 0.07890 0.06900
H 	H 	0.03220 0.95280 0.05820 0.01600
C 	C 	0.86936 0.89940 0.16287 -0.08400
C 	C 	0.84707 0.85270 0.23498 0.05300
H 	H 	0.86770 0.80500 0.27020 0.02500
C 	C 	0.79453 0.87630 0.25501 -0.17900
C 	C 	0.76314 0.94530 0.20127 0.10200
H 	H 	0.72730 0.95840 0.21200 0.00400
C 	C 	0.78541 0.99502 0.13125 -0.17900
C 	C 	0.83858 0.97340 0.11347 0.04500
H 	H 	0.85370 0.00870 0.06810 0.01400
C 	C 	0.75120 0.06990 0.07461 0.43600
C 	C 	0.77310 0.82590 0.33492 0.47600
O 	O 	0.08729 0.67832 0.04450 -0.42800
O 	O 	0.10148 0.83526 0.00481 -0.42900
O 	O 	0.77413 0.14483 0.04006 -0.57300
O 	O 	0.70082 0.05726 0.06179 -0.46100
O 	O 	0.72590 0.84945 0.35257 -0.52200
O 	O 	0.80406 0.76352 0.37793 -0.48800
Sm	Sm	0.67172 0.79240 0.46995 1.86900
C 	C 	0.42623 0.27130 0.45860 0.33700
C 	C 	0.47681 0.30420 0.41880 -0.13600
C 	C 	0.51102 0.23530 0.38360 0.06800
H 	H 	0.50110 0.16730 0.37920 0.00900
C 	C 	0.56001 0.26650 0.35490 -0.15700
H 	H 	0.58260 0.21910 0.33120 0.08200
C 	C 	0.57591 0.36750 0.36088 0.10800
C 	C 	0.54053 0.43690 0.39300 -0.15700
H 	H 	0.54980 0.50540 0.39590 0.08400
C 	C 	0.49133 0.40510 0.42110 0.06600
H 	H 	0.46780 0.45280 0.44180 0.01600
C 	C 	0.63064 0.39940 0.33713 -0.08400
C 	C 	0.65293 0.35270 0.26502 0.05300
H 	H 	0.63230 0.30500 0.22980 0.02500
C 	C 	0.70547 0.37630 0.24499 -0.17900
C 	C 	0.73686 0.44530 0.29873 0.10200
H 	H 	0.77270 0.45840 0.28800 0.00400
C 	C 	0.71459 0.49502 0.36875 -0.17900
C 	C 	0.66142 0.47340 0.38653 0.04500
H 	H 	0.64630 0.50870 0.43190 0.01400
C 	C 	0.74880 0.56990 0.42539 0.43600
C 	C 	0.72690 0.32590 0.16508 0.47600
O 	O 	0.41271 0.17832 0.45550 -0.42900
O 	O 	0.39852 0.33526 0.49519 -0.43000
O 	O 	0.72587 0.64483 0.45994 -0.57300
O 	O 	0.79918 0.55726 0.43821 -0.46100
O 	O 	0.77410 0.34945 0.14743 -0.52200
O 	O 	0.69594 0.26352 0.12207 -0.48800
Sm	Sm	0.17172 0.29240 0.46995 1.86900
C 	C 	0.92623 0.77130 0.45860 0.33700
C 	C 	0.97681 0.80420 0.41880 -0.13600
C 	C 	0.01102 0.73530 0.38360 0.06800
H 	H 	0.00110 0.66730 0.37920 0.00900
C 	C 	0.06001 0.76650 0.35490 -0.15800
H 	H 	0.08260 0.71910 0.33120 0.08200
C 	C 	0.07591 0.86750 0.36088 0.10800
C 	C 	0.04053 0.93690 0.39300 -0.15700
H 	H 	0.04980 0.00540 0.39590 0.08400
C 	C 	0.99133 0.90510 0.42110 0.06600
H 	H 	0.96780 0.95280 0.44180 0.01600
C 	C 	0.13064 0.89940 0.33713 -0.08400
C 	C 	0.15293 0.85270 0.26502 0.05300
H 	H 	0.13230 0.80500 0.22980 0.02500
C 	C 	0.20547 0.87630 0.24499 -0.17900
C 	C 	0.23686 0.94530 0.29873 0.10200
H 	H 	0.27270 0.95840 0.28800 0.00400
C 	C 	0.21459 0.99502 0.36875 -0.17900
C 	C 	0.16142 0.97340 0.38653 0.04500
H 	H 	0.14630 0.00870 0.43190 0.01400
C 	C 	0.24880 0.06990 0.42539 0.43600
C 	C 	0.22690 0.82590 0.16508 0.47600
O 	O 	0.91271 0.67832 0.45550 -0.42900
O 	O 	0.89852 0.83526 0.49519 -0.43000
O 	O 	0.22587 0.14483 0.45994 -0.57300
O 	O 	0.29918 0.05726 0.43821 -0.46100
O 	O 	0.27410 0.84945 0.14743 -0.52200
O 	O 	0.19594 0.76352 0.12207 -0.48700
Sm	Sm	0.67172 0.20760 0.96994 1.87000
C 	C 	0.42623 0.72870 0.95860 0.33700
C 	C 	0.47681 0.69580 0.91880 -0.13500
C 	C 	0.51102 0.76470 0.88360 0.06800
H 	H 	0.50110 0.83270 0.87920 0.00900
C 	C 	0.56001 0.73350 0.85490 -0.15700
H 	H 	0.58260 0.78090 0.83120 0.08200
C 	C 	0.57591 0.63250 0.86088 0.10800
C 	C 	0.54053 0.56310 0.89300 -0.15700
H 	H 	0.54980 0.49460 0.89590 0.08400
C 	C 	0.49133 0.59490 0.92110 0.06600
H 	H 	0.46780 0.54720 0.94180 0.01600
C 	C 	0.63064 0.60060 0.83713 -0.08400
C 	C 	0.65293 0.64730 0.76502 0.05300
H 	H 	0.63230 0.69500 0.72980 0.02500
C 	C 	0.70547 0.62370 0.74499 -0.17900
C 	C 	0.73686 0.55470 0.79873 0.10200
H 	H 	0.77270 0.54160 0.78800 0.00400
C 	C 	0.71459 0.50498 0.86875 -0.17800
C 	C 	0.66142 0.52660 0.88653 0.04500
H 	H 	0.64630 0.49130 0.93190 0.01400
C 	C 	0.74880 0.43010 0.92539 0.43600
C 	C 	0.72690 0.67410 0.66508 0.47600
O 	O 	0.41271 0.82168 0.95550 -0.42900
O 	O 	0.39852 0.66474 0.99519 -0.43000
O 	O 	0.72587 0.35517 0.95994 -0.57200
O 	O 	0.79918 0.44274 0.93821 -0.46000
O 	O 	0.77410 0.65055 0.64743 -0.52200
O 	O 	0.69594 0.73648 0.62207 -0.48800
Sm	Sm	0.17172 0.70760 0.96995 1.86700
C 	C 	0.92623 0.22870 0.95860 0.33700
C 	C 	0.97681 0.19580 0.91880 -0.13400
C 	C 	0.01102 0.26470 0.88360 0.06600
H 	H 	0.00110 0.33270 0.87920 0.00900
C 	C 	0.06001 0.23350 0.85490 -0.15700
H 	H 	0.08260 0.28090 0.83120 0.08200
C 	C 	0.07591 0.13250 0.86088 0.10900
C 	C 	0.04053 0.06310 0.89300 -0.16200
H 	H 	0.04980 0.99460 0.89590 0.08600
C 	C 	0.99133 0.09490 0.92110 0.06900
H 	H 	0.96780 0.04720 0.94180 0.01600
C 	C 	0.13064 0.10060 0.83713 -0.08400
C 	C 	0.15293 0.14730 0.76502 0.05300
H 	H 	0.13230 0.19500 0.72980 0.02500
C 	C 	0.20547 0.12370 0.74499 -0.17900
C 	C 	0.23686 0.05470 0.79873 0.10200
H 	H 	0.27270 0.04160 0.78800 0.00400
C 	C 	0.21459 0.00498 0.86875 -0.17900
C 	C 	0.16142 0.02660 0.88653 0.04500
H 	H 	0.14630 0.99130 0.93190 0.01400
C 	C 	0.24880 0.93010 0.92539 0.43600
C 	C 	0.22690 0.17410 0.66508 0.47600
O 	O 	0.91271 0.32168 0.95550 -0.42800
O 	O 	0.89852 0.16474 0.99519 -0.42900
O 	O 	0.22587 0.85517 0.95994 -0.57300
O 	O 	0.29918 0.94274 0.93821 -0.46100
O 	O 	0.27410 0.15055 0.64743 -0.52200
O 	O 	0.19594 0.23648 0.62207 -0.48800
Sm	Sm	0.32828 0.20760 0.53005 1.86900
C 	C 	0.57377 0.72870 0.54140 0.33700
C 	C 	0.52319 0.69580 0.58120 -0.13600
C 	C 	0.48898 0.76470 0.61640 0.06800
H 	H 	0.49890 0.83270 0.62080 0.00900
C 	C 	0.43999 0.73350 0.64510 -0.15700
H 	H 	0.41740 0.78090 0.66880 0.08200
C 	C 	0.42409 0.63250 0.63912 0.10800
C 	C 	0.45947 0.56310 0.60700 -0.15700
H 	H 	0.45020 0.49460 0.60410 0.08400
C 	C 	0.50867 0.59490 0.57890 0.06600
H 	H 	0.53220 0.54720 0.55820 0.01600
C 	C 	0.36936 0.60060 0.66287 -0.08400
C 	C 	0.34707 0.64730 0.73498 0.05300
H 	H 	0.36770 0.69500 0.77020 0.02500
C 	C 	0.29453 0.62370 0.75501 -0.17900
C 	C 	0.26314 0.55470 0.70127 0.10200
H 	H 	0.22730 0.54160 0.71200 0.00400
C 	C 	0.28541 0.50498 0.63125 -0.17900
C 	C 	0.33858 0.52660 0.61347 0.04500
H 	H 	0.35370 0.49130 0.56810 0.01400
C 	C 	0.25120 0.43010 0.57461 0.43600
C 	C 	0.27310 0.67410 0.83492 0.47600
O 	O 	0.58729 0.82168 0.54450 -0.42900
O 	O 	0.60148 0.66474 0.50481 -0.43000
O 	O 	0.27413 0.35517 0.54006 -0.57300
O 	O 	0.20082 0.44274 0.56179 -0.46100
O 	O 	0.22590 0.65055 0.85257 -0.52200
O 	O 	0.30406 0.73648 0.87793 -0.48800
Sm	Sm	0.82827 0.70760 0.53005 1.86900
C 	C 	0.07377 0.22870 0.54140 0.33700
C 	C 	0.02319 0.19580 0.58120 -0.13600
C 	C 	0.98898 0.26470 0.61640 0.06800
H 	H 	0.99890 0.33270 0.62080 0.00900
C 	C 	0.93999 0.23350 0.64510 -0.15800
H 	H 	0.91740 0.28090 0.66880 0.08200
C 	C 	0.92409 0.13250 0.63912 0.10800
C 	C 	0.95947 0.06310 0.60700 -0.15700
H 	H 	0.95020 0.99460 0.60410 0.08400
C 	C 	0.00867 0.09490 0.57890 0.06600
H 	H 	0.03220 0.04720 0.55820 0.01600
C 	C 	0.86936 0.10060 0.66287 -0.08400
C 	C 	0.84707 0.14730 0.73498 0.05300
H 	H 	0.86770 0.19500 0.77020 0.02500
C 	C 	0.79453 0.12370 0.75501 -0.17900
C 	C 	0.76314 0.05470 0.70127 0.10200
H 	H 	0.72730 0.04160 0.71200 0.00400
C 	C 	0.78541 0.00498 0.63125 -0.17900
C 	C 	0.83858 0.02660 0.61347 0.04500
H 	H 	0.85370 0.99130 0.56810 0.01400
C 	C 	0.75120 0.93010 0.57461 0.43600
C 	C 	0.77310 0.17410 0.83492 0.47600
O 	O 	0.08729 0.32168 0.54450 -0.42900
O 	O 	0.10148 0.16474 0.50481 -0.43000
O 	O 	0.77413 0.85517 0.54006 -0.57300
O 	O 	0.70082 0.94274 0.56179 -0.46100
O 	O 	0.72590 0.15055 0.85257 -0.52200
O 	O 	0.80406 0.23648 0.87793 -0.48800
