data_crystal

_cell_length_a 28.56800
_cell_length_b 20.46700
_cell_length_c 18.17100
_cell_angle_alpha 90.00000
_cell_angle_beta  104.04300
_cell_angle_gamma 90.00000

_symmetry_space_group_name_	'P 1'
_symmetry_space_group_name_H-M	'P 1'

loop_
_symmetry_equiv_pos_as_xyz
  x,y,z

loop_
_atom_site_label
_atom_site_type_symbol
_atom_site_fract_x
_atom_site_fract_y
_atom_site_fract_z
_atom_site_charge
Sm	Sm	0.68539 0.77936 0.01708 1.88900
C 	C 	0.41149 0.74042 0.54637 0.33400
C 	C 	0.46094 0.71546 0.58623 -0.09700
C 	C 	0.49439 0.75580 0.63000 -0.01200
H 	H 	0.48630 0.79910 0.63640 0.03300
C 	C 	0.54046 0.73330 0.66550 -0.06600
H 	H 	0.56290 0.76220 0.69390 0.04700
C 	C 	0.55313 0.66943 0.65912 0.05200
C 	C 	0.51868 0.62710 0.61770 -0.05800
H 	H 	0.52630 0.58330 0.61360 0.04300
C 	C 	0.47291 0.64960 0.58220 -0.00200
H 	H 	0.45000 0.62050 0.55550 0.03500
C 	C 	0.70402 0.68960 0.86725 0.46300
C 	C 	0.67616 0.65632 0.79486 -0.13000
C 	C 	0.62920 0.67555 0.76266 0.00400
H 	H 	0.61520 0.70850 0.78540 0.03800
C 	C 	0.60262 0.64609 0.69638 -0.02500
C 	C 	0.62447 0.59592 0.66524 -0.04100
H 	H 	0.60720 0.57560 0.62120 0.03900
C 	C 	0.67139 0.57504 0.69784 -0.04600
C 	C 	0.69694 0.60690 0.76248 0.01400
H 	H 	0.72860 0.59470 0.78430 0.02200
C 	C 	0.75903 0.36515 0.56411 0.47000
C 	C 	0.73562 0.41878 0.59937 -0.21100
C 	C 	0.76288 0.47192 0.63198 0.10900
H 	H 	0.79540 0.47400 0.63230 -0.00300
C 	C 	0.74204 0.52193 0.66407 -0.18100
H 	H 	0.76100 0.55690 0.68660 0.08300
C 	C 	0.69339 0.52104 0.66333 0.11000
C 	C 	0.66665 0.46797 0.63008 -0.18800
H 	H 	0.63400 0.46610 0.62910 0.09000
C 	C 	0.68722 0.41732 0.59811 0.11800
H 	H 	0.66830 0.38230 0.57580 -0.02100
O 	O 	0.68140 0.72953 0.89674 -0.48800
O 	O 	0.74786 0.67501 0.89013 -0.52700
O 	O 	0.80063 0.37349 0.55639 -0.48500
O 	O 	0.73585 0.31367 0.54277 -0.58200
O 	O 	0.39879 0.79597 0.56117 -0.42800
O 	O 	0.38413 0.70388 0.50054 -0.44400
C 	C 	0.48260 0.73500 0.65820 0.01300
H 	H 	0.46690 0.76420 0.68320 0.02000
C 	C 	0.52740 0.71170 0.69390 -0.04500
H 	H 	0.54100 0.72490 0.74350 0.04100
C 	C 	0.53090 0.65500 0.58070 -0.05900
H 	H 	0.54730 0.62950 0.55280 0.04200
C 	C 	0.48640 0.67810 0.54730 0.00500
H 	H 	0.47290 0.66840 0.49660 0.02200
Sm	Sm	0.18539 0.27936 0.01708 1.88900
C 	C 	0.91149 0.24042 0.54637 0.33500
C 	C 	0.96094 0.21546 0.58623 -0.09500
C 	C 	0.99439 0.25580 0.63000 -0.01200
H 	H 	0.98630 0.29910 0.63640 0.03300
C 	C 	0.04046 0.23330 0.66550 -0.06600
H 	H 	0.06290 0.26220 0.69390 0.04700
C 	C 	0.05313 0.16943 0.65912 0.05200
C 	C 	0.01868 0.12710 0.61770 -0.05800
H 	H 	0.02630 0.08330 0.61360 0.04300
C 	C 	0.97291 0.14960 0.58220 -0.00200
H 	H 	0.95000 0.12050 0.55550 0.03500
C 	C 	0.20402 0.18960 0.86725 0.46300
C 	C 	0.17616 0.15632 0.79486 -0.12900
C 	C 	0.12920 0.17555 0.76266 0.00300
H 	H 	0.11520 0.20850 0.78540 0.03800
C 	C 	0.10262 0.14609 0.69638 -0.02500
C 	C 	0.12447 0.09592 0.66524 -0.04200
H 	H 	0.10720 0.07560 0.62120 0.03800
C 	C 	0.17139 0.07504 0.69784 -0.04600
C 	C 	0.19694 0.10690 0.76248 0.01400
H 	H 	0.22860 0.09470 0.78430 0.02200
C 	C 	0.25903 0.86515 0.56411 0.47000
C 	C 	0.23562 0.91878 0.59937 -0.21100
C 	C 	0.26288 0.97192 0.63198 0.10900
H 	H 	0.29540 0.97400 0.63230 -0.00300
C 	C 	0.24204 0.02193 0.66407 -0.18100
H 	H 	0.26100 0.05690 0.68660 0.08300
C 	C 	0.19339 0.02104 0.66333 0.11000
C 	C 	0.16665 0.96797 0.63008 -0.18800
H 	H 	0.13400 0.96610 0.62910 0.09000
C 	C 	0.18722 0.91732 0.59811 0.11800
H 	H 	0.16830 0.88230 0.57580 -0.02100
O 	O 	0.18140 0.22953 0.89674 -0.48800
O 	O 	0.24786 0.17501 0.89013 -0.52700
O 	O 	0.30063 0.87349 0.55639 -0.48500
O 	O 	0.23585 0.81367 0.54277 -0.58200
O 	O 	0.89879 0.29597 0.56117 -0.42800
O 	O 	0.88413 0.20388 0.50054 -0.44400
C 	C 	0.98260 0.23500 0.65820 0.01300
H 	H 	0.96690 0.26420 0.68320 0.02000
C 	C 	0.02740 0.21170 0.69390 -0.04400
H 	H 	0.04100 0.22490 0.74350 0.04100
C 	C 	0.03090 0.15500 0.58070 -0.05900
H 	H 	0.04730 0.12950 0.55280 0.04200
C 	C 	0.98640 0.17810 0.54730 0.00400
H 	H 	0.97290 0.16840 0.49660 0.02200
Sm	Sm	0.31461 0.77936 0.48292 1.88900
C 	C 	0.58851 0.74042 0.95363 0.33500
C 	C 	0.53906 0.71546 0.91377 -0.09600
C 	C 	0.50561 0.75580 0.87000 -0.01100
H 	H 	0.51370 0.79910 0.86360 0.03300
C 	C 	0.45954 0.73330 0.83450 -0.06600
H 	H 	0.43710 0.76220 0.80610 0.04700
C 	C 	0.44687 0.66943 0.84088 0.05200
C 	C 	0.48132 0.62710 0.88230 -0.05900
H 	H 	0.47370 0.58330 0.88640 0.04300
C 	C 	0.52709 0.64960 0.91780 -0.00100
H 	H 	0.55000 0.62050 0.94450 0.03500
C 	C 	0.29598 0.68960 0.63275 0.46300
C 	C 	0.32384 0.65632 0.70514 -0.12900
C 	C 	0.37080 0.67555 0.73734 0.00400
H 	H 	0.38480 0.70850 0.71460 0.03800
C 	C 	0.39738 0.64609 0.80362 -0.02500
C 	C 	0.37553 0.59592 0.83476 -0.04100
H 	H 	0.39280 0.57560 0.87880 0.03900
C 	C 	0.32861 0.57504 0.80216 -0.04600
C 	C 	0.30306 0.60690 0.73752 0.01400
H 	H 	0.27140 0.59470 0.71570 0.02200
C 	C 	0.24097 0.36515 0.93589 0.47000
C 	C 	0.26438 0.41878 0.90063 -0.21100
C 	C 	0.23712 0.47192 0.86802 0.10900
H 	H 	0.20460 0.47400 0.86770 -0.00300
C 	C 	0.25796 0.52193 0.83593 -0.18100
H 	H 	0.23900 0.55690 0.81340 0.08300
C 	C 	0.30661 0.52104 0.83667 0.11000
C 	C 	0.33335 0.46797 0.86992 -0.18800
H 	H 	0.36600 0.46610 0.87090 0.09000
C 	C 	0.31278 0.41732 0.90189 0.11800
H 	H 	0.33170 0.38230 0.92420 -0.02100
O 	O 	0.31860 0.72953 0.60326 -0.48800
O 	O 	0.25214 0.67501 0.60987 -0.52600
O 	O 	0.19937 0.37349 0.94361 -0.48500
O 	O 	0.26415 0.31367 0.95723 -0.58200
O 	O 	0.60121 0.79597 0.93883 -0.42800
O 	O 	0.61587 0.70388 0.99946 -0.44400
C 	C 	0.51740 0.73500 0.84180 0.01300
H 	H 	0.53310 0.76420 0.81680 0.02000
C 	C 	0.47260 0.71170 0.80610 -0.04500
H 	H 	0.45900 0.72490 0.75650 0.04200
C 	C 	0.46910 0.65500 0.91930 -0.05800
H 	H 	0.45270 0.62950 0.94720 0.04200
C 	C 	0.51360 0.67810 0.95270 0.00500
H 	H 	0.52710 0.66840 0.00340 0.02300
Sm	Sm	0.81461 0.27936 0.48292 1.88900
C 	C 	0.08851 0.24042 0.95363 0.33500
C 	C 	0.03906 0.21546 0.91377 -0.09600
C 	C 	0.00561 0.25580 0.87000 -0.01100
H 	H 	0.01370 0.29910 0.86360 0.03300
C 	C 	0.95954 0.23330 0.83450 -0.06700
H 	H 	0.93710 0.26220 0.80610 0.04700
C 	C 	0.94687 0.16943 0.84088 0.05300
C 	C 	0.98132 0.12710 0.88230 -0.06000
H 	H 	0.97370 0.08330 0.88640 0.04400
C 	C 	0.02709 0.14960 0.91780 0.00000
H 	H 	0.05000 0.12050 0.94450 0.03400
C 	C 	0.79598 0.18960 0.63275 0.46300
C 	C 	0.82384 0.15632 0.70514 -0.13000
C 	C 	0.87080 0.17555 0.73734 0.00400
H 	H 	0.88480 0.20850 0.71460 0.03700
C 	C 	0.89738 0.14609 0.80362 -0.02600
C 	C 	0.87553 0.09592 0.83476 -0.04100
H 	H 	0.89280 0.07560 0.87880 0.03800
C 	C 	0.82861 0.07504 0.80216 -0.04600
C 	C 	0.80306 0.10690 0.73752 0.01400
H 	H 	0.77140 0.09470 0.71570 0.02100
C 	C 	0.74097 0.86515 0.93589 0.47000
C 	C 	0.76438 0.91878 0.90063 -0.21100
C 	C 	0.73712 0.97192 0.86802 0.11000
H 	H 	0.70460 0.97400 0.86770 -0.00300
C 	C 	0.75796 0.02193 0.83593 -0.18200
H 	H 	0.73900 0.05690 0.81340 0.08300
C 	C 	0.80661 0.02104 0.83667 0.11000
C 	C 	0.83335 0.96797 0.86992 -0.18700
H 	H 	0.86600 0.96610 0.87090 0.09000
C 	C 	0.81278 0.91732 0.90189 0.11800
H 	H 	0.83170 0.88230 0.92420 -0.02100
O 	O 	0.81860 0.22953 0.60326 -0.48800
O 	O 	0.75214 0.17501 0.60987 -0.52700
O 	O 	0.69937 0.87349 0.94361 -0.48500
O 	O 	0.76415 0.81367 0.95723 -0.58200
O 	O 	0.10121 0.29597 0.93883 -0.42800
O 	O 	0.11587 0.20388 0.99946 -0.44400
C 	C 	0.01740 0.23500 0.84180 0.01300
H 	H 	0.03310 0.26420 0.81680 0.02000
C 	C 	0.97260 0.21170 0.80610 -0.04600
H 	H 	0.95900 0.22490 0.75650 0.04200
C 	C 	0.96910 0.15500 0.91930 -0.05800
H 	H 	0.95270 0.12950 0.94720 0.04200
C 	C 	0.01360 0.17810 0.95270 0.00500
H 	H 	0.02710 0.16840 0.00340 0.02200
Sm	Sm	0.31461 0.22064 0.98292 1.89000
C 	C 	0.58851 0.25958 0.45363 0.33500
C 	C 	0.53906 0.28454 0.41377 -0.09600
C 	C 	0.50561 0.24420 0.37000 -0.01100
H 	H 	0.51370 0.20090 0.36360 0.03300
C 	C 	0.45954 0.26670 0.33450 -0.06600
H 	H 	0.43710 0.23780 0.30610 0.04700
C 	C 	0.44687 0.33057 0.34088 0.05200
C 	C 	0.48132 0.37290 0.38230 -0.05800
H 	H 	0.47370 0.41670 0.38640 0.04300
C 	C 	0.52709 0.35040 0.41780 -0.00200
H 	H 	0.55000 0.37950 0.44450 0.03500
C 	C 	0.29598 0.31040 0.13275 0.46300
C 	C 	0.32384 0.34368 0.20514 -0.13000
C 	C 	0.37080 0.32445 0.23734 0.00400
H 	H 	0.38480 0.29150 0.21460 0.03800
C 	C 	0.39738 0.35391 0.30362 -0.02500
C 	C 	0.37553 0.40408 0.33476 -0.04100
H 	H 	0.39280 0.42440 0.37880 0.03900
C 	C 	0.32861 0.42496 0.30216 -0.04600
C 	C 	0.30306 0.39310 0.23752 0.01400
H 	H 	0.27140 0.40530 0.21570 0.02200
C 	C 	0.24097 0.63485 0.43589 0.47000
C 	C 	0.26438 0.58122 0.40063 -0.21100
C 	C 	0.23712 0.52808 0.36802 0.10900
H 	H 	0.20460 0.52600 0.36770 -0.00300
C 	C 	0.25796 0.47807 0.33593 -0.18100
H 	H 	0.23900 0.44310 0.31340 0.08300
C 	C 	0.30661 0.47896 0.33667 0.11000
C 	C 	0.33335 0.53203 0.36992 -0.18800
H 	H 	0.36600 0.53390 0.37090 0.09000
C 	C 	0.31278 0.58268 0.40189 0.11800
H 	H 	0.33170 0.61770 0.42420 -0.02100
O 	O 	0.31860 0.27047 0.10326 -0.48800
O 	O 	0.25214 0.32499 0.10987 -0.52700
O 	O 	0.19937 0.62651 0.44361 -0.48500
O 	O 	0.26415 0.68633 0.45723 -0.58200
O 	O 	0.60121 0.20403 0.43883 -0.42800
O 	O 	0.61587 0.29612 0.49946 -0.44400
C 	C 	0.51740 0.26500 0.34180 0.01300
H 	H 	0.53310 0.23580 0.31680 0.02000
C 	C 	0.47260 0.28830 0.30610 -0.04500
H 	H 	0.45900 0.27510 0.25650 0.04100
C 	C 	0.46910 0.34500 0.41930 -0.05900
H 	H 	0.45270 0.37050 0.44720 0.04200
C 	C 	0.51360 0.32190 0.45270 0.00500
H 	H 	0.52710 0.33160 0.50340 0.02200
Sm	Sm	0.81461 0.72064 0.98292 1.88900
C 	C 	0.08851 0.75958 0.45363 0.33500
C 	C 	0.03906 0.78454 0.41377 -0.09500
C 	C 	0.00561 0.74420 0.37000 -0.01200
H 	H 	0.01370 0.70090 0.36360 0.03300
C 	C 	0.95954 0.76670 0.33450 -0.06600
H 	H 	0.93710 0.73780 0.30610 0.04700
C 	C 	0.94687 0.83057 0.34088 0.05200
C 	C 	0.98132 0.87290 0.38230 -0.05800
H 	H 	0.97370 0.91670 0.38640 0.04300
C 	C 	0.02709 0.85040 0.41780 -0.00200
H 	H 	0.05000 0.87950 0.44450 0.03500
C 	C 	0.79598 0.81040 0.13275 0.46300
C 	C 	0.82384 0.84368 0.20514 -0.12900
C 	C 	0.87080 0.82445 0.23734 0.00300
H 	H 	0.88480 0.79150 0.21460 0.03800
C 	C 	0.89738 0.85391 0.30362 -0.02500
C 	C 	0.87553 0.90408 0.33476 -0.04200
H 	H 	0.89280 0.92440 0.37880 0.03800
C 	C 	0.82861 0.92496 0.30216 -0.04600
C 	C 	0.80306 0.89310 0.23752 0.01400
H 	H 	0.77140 0.90530 0.21570 0.02200
C 	C 	0.74097 0.13485 0.43589 0.47000
C 	C 	0.76438 0.08122 0.40063 -0.21100
C 	C 	0.73712 0.02808 0.36802 0.10900
H 	H 	0.70460 0.02600 0.36770 -0.00300
C 	C 	0.75796 0.97807 0.33593 -0.18100
H 	H 	0.73900 0.94310 0.31340 0.08300
C 	C 	0.80661 0.97896 0.33667 0.11000
C 	C 	0.83335 0.03203 0.36992 -0.18800
H 	H 	0.86600 0.03390 0.37090 0.09000
C 	C 	0.81278 0.08268 0.40189 0.11800
H 	H 	0.83170 0.11770 0.42420 -0.02100
O 	O 	0.81860 0.77047 0.10326 -0.48800
O 	O 	0.75214 0.82499 0.10987 -0.52700
O 	O 	0.69937 0.12651 0.44361 -0.48500
O 	O 	0.76415 0.18633 0.45723 -0.58200
O 	O 	0.10121 0.70403 0.43883 -0.42800
O 	O 	0.11587 0.79612 0.49946 -0.44400
C 	C 	0.01740 0.76500 0.34180 0.01300
H 	H 	0.03310 0.73580 0.31680 0.02000
C 	C 	0.97260 0.78830 0.30610 -0.04400
H 	H 	0.95900 0.77510 0.25650 0.04100
C 	C 	0.96910 0.84500 0.41930 -0.05900
H 	H 	0.95270 0.87050 0.44720 0.04200
C 	C 	0.01360 0.82190 0.45270 0.00400
H 	H 	0.02710 0.83160 0.50340 0.02200
Sm	Sm	0.68539 0.22064 0.51708 1.88900
C 	C 	0.41149 0.25958 0.04637 0.33500
C 	C 	0.46094 0.28454 0.08623 -0.09600
C 	C 	0.49439 0.24420 0.13000 -0.01100
H 	H 	0.48630 0.20090 0.13640 0.03300
C 	C 	0.54046 0.26670 0.16550 -0.06600
H 	H 	0.56290 0.23780 0.19390 0.04700
C 	C 	0.55313 0.33057 0.15912 0.05200
C 	C 	0.51868 0.37290 0.11770 -0.05900
H 	H 	0.52630 0.41670 0.11360 0.04300
C 	C 	0.47291 0.35040 0.08220 -0.00100
H 	H 	0.45000 0.37950 0.05550 0.03500
C 	C 	0.70402 0.31040 0.36725 0.46300
C 	C 	0.67616 0.34368 0.29486 -0.12900
C 	C 	0.62920 0.32445 0.26266 0.00400
H 	H 	0.61520 0.29150 0.28540 0.03800
C 	C 	0.60262 0.35391 0.19638 -0.02500
C 	C 	0.62447 0.40408 0.16524 -0.04100
H 	H 	0.60720 0.42440 0.12120 0.03900
C 	C 	0.67139 0.42496 0.19784 -0.04600
C 	C 	0.69694 0.39310 0.26248 0.01400
H 	H 	0.72860 0.40530 0.28430 0.02200
C 	C 	0.75903 0.63485 0.06411 0.47000
C 	C 	0.73562 0.58122 0.09937 -0.21100
C 	C 	0.76288 0.52808 0.13198 0.10900
H 	H 	0.79540 0.52600 0.13230 -0.00300
C 	C 	0.74204 0.47807 0.16407 -0.18100
H 	H 	0.76100 0.44310 0.18660 0.08300
C 	C 	0.69339 0.47896 0.16333 0.11000
C 	C 	0.66665 0.53203 0.13008 -0.18800
H 	H 	0.63400 0.53390 0.12910 0.09000
C 	C 	0.68722 0.58268 0.09811 0.11800
H 	H 	0.66830 0.61770 0.07580 -0.02100
O 	O 	0.68140 0.27047 0.39674 -0.48800
O 	O 	0.74786 0.32499 0.39013 -0.52600
O 	O 	0.80063 0.62651 0.05639 -0.48500
O 	O 	0.73585 0.68633 0.04277 -0.58200
O 	O 	0.39879 0.20403 0.06117 -0.42800
O 	O 	0.38413 0.29612 0.00054 -0.44400
C 	C 	0.48260 0.26500 0.15820 0.01300
H 	H 	0.46690 0.23580 0.18320 0.02000
C 	C 	0.52740 0.28830 0.19390 -0.04500
H 	H 	0.54100 0.27510 0.24350 0.04200
C 	C 	0.53090 0.34500 0.08070 -0.05800
H 	H 	0.54730 0.37050 0.05280 0.04200
C 	C 	0.48640 0.32190 0.04730 0.00500
H 	H 	0.47290 0.33160 0.99660 0.02300
Sm	Sm	0.18539 0.72064 0.51708 1.88900
C 	C 	0.91149 0.75958 0.04637 0.33500
C 	C 	0.96094 0.78454 0.08623 -0.09600
C 	C 	0.99439 0.74420 0.13000 -0.01100
H 	H 	0.98630 0.70090 0.13640 0.03300
C 	C 	0.04046 0.76670 0.16550 -0.06700
H 	H 	0.06290 0.73780 0.19390 0.04700
C 	C 	0.05313 0.83057 0.15912 0.05300
C 	C 	0.01868 0.87290 0.11770 -0.06000
H 	H 	0.02630 0.91670 0.11360 0.04400
C 	C 	0.97291 0.85040 0.08220 0.00000
H 	H 	0.95000 0.87950 0.05550 0.03400
C 	C 	0.20402 0.81040 0.36725 0.46300
C 	C 	0.17616 0.84368 0.29486 -0.13000
C 	C 	0.12920 0.82445 0.26266 0.00400
H 	H 	0.11520 0.79150 0.28540 0.03700
C 	C 	0.10262 0.85391 0.19638 -0.02600
C 	C 	0.12447 0.90408 0.16524 -0.04100
H 	H 	0.10720 0.92440 0.12120 0.03800
C 	C 	0.17139 0.92496 0.19784 -0.04600
C 	C 	0.19694 0.89310 0.26248 0.01400
H 	H 	0.22860 0.90530 0.28430 0.02100
C 	C 	0.25903 0.13485 0.06411 0.47000
C 	C 	0.23562 0.08122 0.09937 -0.21100
C 	C 	0.26288 0.02808 0.13198 0.11000
H 	H 	0.29540 0.02600 0.13230 -0.00300
C 	C 	0.24204 0.97807 0.16407 -0.18200
H 	H 	0.26100 0.94310 0.18660 0.08300
C 	C 	0.19339 0.97896 0.16333 0.11000
C 	C 	0.16665 0.03203 0.13008 -0.18700
H 	H 	0.13400 0.03390 0.12910 0.09000
C 	C 	0.18722 0.08268 0.09811 0.11800
H 	H 	0.16830 0.11770 0.07580 -0.02100
O 	O 	0.18140 0.77047 0.39674 -0.48800
O 	O 	0.24786 0.82499 0.39013 -0.52700
O 	O 	0.30063 0.12651 0.05639 -0.48500
O 	O 	0.23585 0.18633 0.04277 -0.58200
O 	O 	0.89879 0.70403 0.06117 -0.42800
O 	O 	0.88413 0.79612 0.00054 -0.44400
C 	C 	0.98260 0.76500 0.15820 0.01300
H 	H 	0.96690 0.73580 0.18320 0.02000
C 	C 	0.02740 0.78830 0.19390 -0.04600
H 	H 	0.04100 0.77510 0.24350 0.04200
C 	C 	0.03090 0.84500 0.08070 -0.05800
H 	H 	0.04730 0.87050 0.05280 0.04200
C 	C 	0.98640 0.82190 0.04730 0.00500
H 	H 	0.97290 0.83160 0.99660 0.02200
