data_crystal

_cell_length_a 28.52600
_cell_length_b 20.41000
_cell_length_c 18.11800
_cell_angle_alpha 90.00000
_cell_angle_beta  104.13400
_cell_angle_gamma 90.00000

_symmetry_space_group_name_	'P 1'
_symmetry_space_group_name_H-M	'P 1'

loop_
_symmetry_equiv_pos_as_xyz
  x,y,z

loop_
_atom_site_label
_atom_site_type_symbol
_atom_site_fract_x
_atom_site_fract_y
_atom_site_fract_z
_atom_site_charge
Gd	Gd	0.68541 0.27991 0.01658 1.49300
O 	O 	0.68168 0.23080 0.89714 -0.42200
O 	O 	0.74816 0.17516 0.89149 -0.45400
O 	O 	0.79984 0.87249 0.55612 -0.41900
O 	O 	0.73457 0.81241 0.54326 -0.49000
O 	O 	0.38347 0.20519 0.50087 -0.39800
O 	O 	0.39829 0.29685 0.56118 -0.38700
C 	C 	0.70445 0.19050 0.86814 0.41800
C 	C 	0.67643 0.15663 0.79536 -0.09700
C 	C 	0.69700 0.10703 0.76388 -0.00900
H 	H 	0.72860 0.09450 0.78620 0.03600
C 	C 	0.67127 0.07479 0.69858 -0.02400
C 	C 	0.69254 0.02041 0.66434 0.08900
C 	C 	0.74216 0.02148 0.66427 -0.15500
H 	H 	0.76120 0.05670 0.68630 0.07900
C 	C 	0.76255 0.97164 0.63235 0.08600
H 	H 	0.79520 0.97360 0.63270 0.01000
C 	C 	0.73506 0.91807 0.59933 -0.17500
C 	C 	0.75790 0.86421 0.56428 0.42400
C 	C 	0.68613 0.91707 0.59985 0.09000
H 	H 	0.66700 0.88190 0.57790 -0.00000
C 	C 	0.66604 0.96685 0.63201 -0.16200
H 	H 	0.63350 0.96450 0.63210 0.08400
C 	C 	0.62445 0.09609 0.66542 -0.05700
H 	H 	0.60730 0.07610 0.62090 0.04600
C 	C 	0.60254 0.14633 0.69674 -0.00900
C 	C 	0.62915 0.17592 0.76357 -0.01800
H 	H 	0.61510 0.20860 0.78680 0.04800
C 	C 	0.51850 0.12770 0.61460 -0.04700
H 	H 	0.52630 0.08410 0.60850 0.04000
C 	C 	0.47347 0.15190 0.58030 -0.01800
H 	H 	0.45060 0.12340 0.55210 0.04200
C 	C 	0.49460 0.25850 0.62750 -0.03300
H 	H 	0.48690 0.30250 0.63120 0.04300
C 	C 	0.54140 0.23560 0.66490 -0.08800
H 	H 	0.56420 0.26430 0.69290 0.05600
C 	C 	0.46075 0.21642 0.58604 -0.09500
C 	C 	0.55274 0.17095 0.65937 0.04500
C 	C 	0.41090 0.24210 0.54705 0.33800
C 	C 	0.53080 0.15980 0.58080 -0.06600
H 	H 	0.54770 0.13480 0.55290 0.04700
C 	C 	0.48840 0.18270 0.54550 0.02400
H 	H 	0.47690 0.17630 0.49340 0.01800
C 	C 	0.48420 0.23900 0.65630 0.03000
H 	H 	0.46970 0.27060 0.68050 0.01700
C 	C 	0.52840 0.21540 0.69070 -0.01700
H 	H 	0.54310 0.23090 0.73920 0.03300
Gd	Gd	0.18541 0.77991 0.01658 1.49100
O 	O 	0.18168 0.73080 0.89714 -0.42100
O 	O 	0.24816 0.67516 0.89149 -0.45300
O 	O 	0.29984 0.37249 0.55612 -0.41800
O 	O 	0.23457 0.31241 0.54326 -0.48900
O 	O 	0.88347 0.70519 0.50087 -0.39700
O 	O 	0.89829 0.79685 0.56118 -0.38700
C 	C 	0.20445 0.69050 0.86814 0.41800
C 	C 	0.17643 0.65663 0.79536 -0.09700
C 	C 	0.19700 0.60703 0.76388 -0.00900
H 	H 	0.22860 0.59450 0.78620 0.03600
C 	C 	0.17127 0.57479 0.69858 -0.02400
C 	C 	0.19254 0.52041 0.66434 0.08900
C 	C 	0.24216 0.52148 0.66427 -0.15500
H 	H 	0.26120 0.55670 0.68630 0.07900
C 	C 	0.26255 0.47164 0.63235 0.08500
H 	H 	0.29520 0.47360 0.63270 0.01100
C 	C 	0.23506 0.41807 0.59933 -0.17500
C 	C 	0.25790 0.36421 0.56428 0.42400
C 	C 	0.18613 0.41707 0.59985 0.09000
H 	H 	0.16700 0.38190 0.57790 -0.00000
C 	C 	0.16604 0.46685 0.63201 -0.16300
H 	H 	0.13350 0.46450 0.63210 0.08400
C 	C 	0.12445 0.59609 0.66542 -0.05700
H 	H 	0.10730 0.57610 0.62090 0.04600
C 	C 	0.10254 0.64633 0.69674 -0.00900
C 	C 	0.12915 0.67592 0.76357 -0.01800
H 	H 	0.11510 0.70860 0.78680 0.04800
C 	C 	0.01850 0.62770 0.61460 -0.04700
H 	H 	0.02630 0.58410 0.60850 0.04000
C 	C 	0.97347 0.65190 0.58030 -0.01800
H 	H 	0.95060 0.62340 0.55210 0.04200
C 	C 	0.99460 0.75850 0.62750 -0.03400
H 	H 	0.98690 0.80250 0.63120 0.04300
C 	C 	0.04140 0.73560 0.66490 -0.08800
H 	H 	0.06420 0.76430 0.69290 0.05600
C 	C 	0.96075 0.71642 0.58604 -0.09400
C 	C 	0.05274 0.67095 0.65937 0.04500
C 	C 	0.91090 0.74210 0.54705 0.33800
C 	C 	0.03080 0.65980 0.58080 -0.06600
H 	H 	0.04770 0.63480 0.55290 0.04600
C 	C 	0.98840 0.68270 0.54550 0.02400
H 	H 	0.97690 0.67630 0.49340 0.01800
C 	C 	0.98420 0.73900 0.65630 0.03000
H 	H 	0.96970 0.77060 0.68050 0.01700
C 	C 	0.02840 0.71540 0.69070 -0.01600
H 	H 	0.04310 0.73090 0.73920 0.03300
Gd	Gd	0.31459 0.27991 0.48342 1.49200
O 	O 	0.31832 0.23080 0.60286 -0.42100
O 	O 	0.25184 0.17516 0.60851 -0.45300
O 	O 	0.20016 0.87249 0.94388 -0.41700
O 	O 	0.26543 0.81241 0.95674 -0.48800
O 	O 	0.61653 0.20519 0.99913 -0.39800
O 	O 	0.60171 0.29685 0.93882 -0.38700
C 	C 	0.29555 0.19050 0.63186 0.41800
C 	C 	0.32357 0.15663 0.70464 -0.09700
C 	C 	0.30300 0.10703 0.73612 -0.00900
H 	H 	0.27140 0.09450 0.71380 0.03600
C 	C 	0.32873 0.07479 0.80142 -0.02400
C 	C 	0.30746 0.02041 0.83566 0.08900
C 	C 	0.25784 0.02148 0.83573 -0.15500
H 	H 	0.23880 0.05670 0.81370 0.07900
C 	C 	0.23745 0.97164 0.86765 0.08600
H 	H 	0.20480 0.97360 0.86730 0.01100
C 	C 	0.26494 0.91807 0.90067 -0.17500
C 	C 	0.24210 0.86421 0.93572 0.42400
C 	C 	0.31387 0.91707 0.90015 0.09000
H 	H 	0.33300 0.88190 0.92210 0.00000
C 	C 	0.33396 0.96685 0.86799 -0.16200
H 	H 	0.36650 0.96450 0.86790 0.08400
C 	C 	0.37555 0.09609 0.83458 -0.05700
H 	H 	0.39270 0.07610 0.87910 0.04600
C 	C 	0.39746 0.14633 0.80326 -0.00900
C 	C 	0.37085 0.17592 0.73643 -0.01800
H 	H 	0.38490 0.20860 0.71320 0.04800
C 	C 	0.48150 0.12770 0.88540 -0.04600
H 	H 	0.47370 0.08410 0.89150 0.03900
C 	C 	0.52653 0.15190 0.91970 -0.01900
H 	H 	0.54940 0.12340 0.94790 0.04200
C 	C 	0.50540 0.25850 0.87250 -0.03300
H 	H 	0.51310 0.30250 0.86880 0.04300
C 	C 	0.45860 0.23560 0.83510 -0.08700
H 	H 	0.43580 0.26430 0.80710 0.05600
C 	C 	0.53925 0.21642 0.91396 -0.09400
C 	C 	0.44726 0.17095 0.84063 0.04500
C 	C 	0.58910 0.24210 0.95295 0.33800
C 	C 	0.46920 0.15980 0.91920 -0.06700
H 	H 	0.45230 0.13480 0.94710 0.04700
C 	C 	0.51160 0.18270 0.95450 0.02400
H 	H 	0.52310 0.17630 0.00660 0.01800
C 	C 	0.51580 0.23900 0.84370 0.02900
H 	H 	0.53030 0.27060 0.81950 0.01800
C 	C 	0.47160 0.21540 0.80930 -0.01700
H 	H 	0.45690 0.23090 0.76080 0.03300
Gd	Gd	0.81459 0.77991 0.48342 1.49200
O 	O 	0.81832 0.73080 0.60286 -0.42100
O 	O 	0.75184 0.67516 0.60851 -0.45300
O 	O 	0.70016 0.37249 0.94388 -0.41800
O 	O 	0.76543 0.31241 0.95674 -0.48900
O 	O 	0.11653 0.70519 0.99913 -0.39700
O 	O 	0.10171 0.79685 0.93882 -0.38700
C 	C 	0.79555 0.69050 0.63186 0.41800
C 	C 	0.82357 0.65663 0.70464 -0.09700
C 	C 	0.80300 0.60703 0.73612 -0.00900
H 	H 	0.77140 0.59450 0.71380 0.03600
C 	C 	0.82873 0.57479 0.80142 -0.02400
C 	C 	0.80746 0.52041 0.83566 0.08900
C 	C 	0.75784 0.52148 0.83573 -0.15500
H 	H 	0.73880 0.55670 0.81370 0.07900
C 	C 	0.73745 0.47164 0.86765 0.08500
H 	H 	0.70480 0.47360 0.86730 0.01100
C 	C 	0.76494 0.41807 0.90067 -0.17500
C 	C 	0.74210 0.36421 0.93572 0.42400
C 	C 	0.81387 0.41707 0.90015 0.09000
H 	H 	0.83300 0.38190 0.92210 -0.00000
C 	C 	0.83396 0.46685 0.86799 -0.16300
H 	H 	0.86650 0.46450 0.86790 0.08400
C 	C 	0.87555 0.59609 0.83458 -0.05700
H 	H 	0.89270 0.57610 0.87910 0.04600
C 	C 	0.89746 0.64633 0.80326 -0.00900
C 	C 	0.87085 0.67592 0.73643 -0.01800
H 	H 	0.88490 0.70860 0.71320 0.04800
C 	C 	0.98150 0.62770 0.88540 -0.05100
H 	H 	0.97370 0.58410 0.89150 0.04100
C 	C 	0.02653 0.65190 0.91970 -0.01500
H 	H 	0.04940 0.62340 0.94790 0.04100
C 	C 	0.00540 0.75850 0.87250 -0.03200
H 	H 	0.01310 0.80250 0.86880 0.04300
C 	C 	0.95860 0.73560 0.83510 -0.08800
H 	H 	0.93580 0.76430 0.80710 0.05600
C 	C 	0.03925 0.71642 0.91396 -0.09600
C 	C 	0.94726 0.67095 0.84063 0.04700
C 	C 	0.08910 0.74210 0.95295 0.33900
C 	C 	0.96920 0.65980 0.91920 -0.06400
H 	H 	0.95230 0.63480 0.94710 0.04600
C 	C 	0.01160 0.68270 0.95450 0.02400
H 	H 	0.02310 0.67630 0.00660 0.01800
C 	C 	0.01580 0.73900 0.84370 0.03000
H 	H 	0.03030 0.77060 0.81950 0.01700
C 	C 	0.97160 0.71540 0.80930 -0.01800
H 	H 	0.95690 0.73090 0.76080 0.03300
Gd	Gd	0.31459 0.72009 0.98342 1.49400
O 	O 	0.31832 0.76920 0.10286 -0.42100
O 	O 	0.25184 0.82484 0.10851 -0.45300
O 	O 	0.20016 0.12751 0.44388 -0.41800
O 	O 	0.26543 0.18759 0.45674 -0.48900
O 	O 	0.61653 0.79481 0.49913 -0.39700
O 	O 	0.60171 0.70315 0.43882 -0.38700
C 	C 	0.29555 0.80950 0.13186 0.41800
C 	C 	0.32357 0.84337 0.20464 -0.09700
C 	C 	0.30300 0.89297 0.23612 -0.00900
H 	H 	0.27140 0.90550 0.21380 0.03600
C 	C 	0.32873 0.92521 0.30142 -0.02400
C 	C 	0.30746 0.97959 0.33566 0.08900
C 	C 	0.25784 0.97852 0.33573 -0.15500
H 	H 	0.23880 0.94330 0.31370 0.07900
C 	C 	0.23745 0.02836 0.36765 0.08600
H 	H 	0.20480 0.02640 0.36730 0.01000
C 	C 	0.26494 0.08193 0.40067 -0.17500
C 	C 	0.24210 0.13579 0.43572 0.42400
C 	C 	0.31387 0.08293 0.40015 0.09000
H 	H 	0.33300 0.11810 0.42210 -0.00000
C 	C 	0.33396 0.03315 0.36799 -0.16200
H 	H 	0.36650 0.03550 0.36790 0.08400
C 	C 	0.37555 0.90391 0.33458 -0.05700
H 	H 	0.39270 0.92390 0.37910 0.04600
C 	C 	0.39746 0.85367 0.30326 -0.00900
C 	C 	0.37085 0.82408 0.23643 -0.01800
H 	H 	0.38490 0.79140 0.21320 0.04800
C 	C 	0.48150 0.87230 0.38540 -0.04700
H 	H 	0.47370 0.91590 0.39150 0.04000
C 	C 	0.52653 0.84810 0.41970 -0.01800
H 	H 	0.54940 0.87660 0.44790 0.04200
C 	C 	0.50540 0.74150 0.37250 -0.03300
H 	H 	0.51310 0.69750 0.36880 0.04300
C 	C 	0.45860 0.76440 0.33510 -0.08800
H 	H 	0.43580 0.73570 0.30710 0.05600
C 	C 	0.53925 0.78358 0.41396 -0.09500
C 	C 	0.44726 0.82905 0.34063 0.04500
C 	C 	0.58910 0.75790 0.45295 0.33800
C 	C 	0.46920 0.84020 0.41920 -0.06600
H 	H 	0.45230 0.86520 0.44710 0.04700
C 	C 	0.51160 0.81730 0.45450 0.02400
H 	H 	0.52310 0.82370 0.50660 0.01800
C 	C 	0.51580 0.76100 0.34370 0.03000
H 	H 	0.53030 0.72940 0.31950 0.01700
C 	C 	0.47160 0.78460 0.30930 -0.01700
H 	H 	0.45690 0.76910 0.26080 0.03300
Gd	Gd	0.81459 0.22009 0.98342 1.49100
O 	O 	0.81832 0.26920 0.10286 -0.42100
O 	O 	0.75184 0.32484 0.10851 -0.45300
O 	O 	0.70016 0.62751 0.44388 -0.41800
O 	O 	0.76543 0.68759 0.45674 -0.48900
O 	O 	0.11653 0.29481 0.49913 -0.39700
O 	O 	0.10171 0.20315 0.43882 -0.38700
C 	C 	0.79555 0.30950 0.13186 0.41800
C 	C 	0.82357 0.34337 0.20464 -0.09700
C 	C 	0.80300 0.39297 0.23612 -0.00900
H 	H 	0.77140 0.40550 0.21380 0.03600
C 	C 	0.82873 0.42521 0.30142 -0.02400
C 	C 	0.80746 0.47959 0.33566 0.08900
C 	C 	0.75784 0.47852 0.33573 -0.15500
H 	H 	0.73880 0.44330 0.31370 0.07900
C 	C 	0.73745 0.52836 0.36765 0.08500
H 	H 	0.70480 0.52640 0.36730 0.01100
C 	C 	0.76494 0.58193 0.40067 -0.17500
C 	C 	0.74210 0.63579 0.43572 0.42400
C 	C 	0.81387 0.58293 0.40015 0.09000
H 	H 	0.83300 0.61810 0.42210 -0.00000
C 	C 	0.83396 0.53315 0.36799 -0.16300
H 	H 	0.86650 0.53550 0.36790 0.08400
C 	C 	0.87555 0.40391 0.33458 -0.05700
H 	H 	0.89270 0.42390 0.37910 0.04600
C 	C 	0.89746 0.35367 0.30326 -0.00900
C 	C 	0.87085 0.32408 0.23643 -0.01800
H 	H 	0.88490 0.29140 0.21320 0.04800
C 	C 	0.98150 0.37230 0.38540 -0.04700
H 	H 	0.97370 0.41590 0.39150 0.04000
C 	C 	0.02653 0.34810 0.41970 -0.01800
H 	H 	0.04940 0.37660 0.44790 0.04200
C 	C 	0.00540 0.24150 0.37250 -0.03400
H 	H 	0.01310 0.19750 0.36880 0.04300
C 	C 	0.95860 0.26440 0.33510 -0.08800
H 	H 	0.93580 0.23570 0.30710 0.05600
C 	C 	0.03925 0.28358 0.41396 -0.09400
C 	C 	0.94726 0.32905 0.34063 0.04500
C 	C 	0.08910 0.25790 0.45295 0.33800
C 	C 	0.96920 0.34020 0.41920 -0.06600
H 	H 	0.95230 0.36520 0.44710 0.04600
C 	C 	0.01160 0.31730 0.45450 0.02400
H 	H 	0.02310 0.32370 0.50660 0.01800
C 	C 	0.01580 0.26100 0.34370 0.03000
H 	H 	0.03030 0.22940 0.31950 0.01700
C 	C 	0.97160 0.28460 0.30930 -0.01600
H 	H 	0.95690 0.26910 0.26080 0.03300
Gd	Gd	0.68541 0.72009 0.51658 1.49200
O 	O 	0.68168 0.76920 0.39714 -0.42100
O 	O 	0.74816 0.82484 0.39149 -0.45300
O 	O 	0.79984 0.12751 0.05612 -0.41700
O 	O 	0.73457 0.18759 0.04326 -0.48800
O 	O 	0.38347 0.79481 0.00087 -0.39800
O 	O 	0.39829 0.70315 0.06118 -0.38700
C 	C 	0.70445 0.80950 0.36814 0.41800
C 	C 	0.67643 0.84337 0.29536 -0.09700
C 	C 	0.69700 0.89297 0.26388 -0.00900
H 	H 	0.72860 0.90550 0.28620 0.03600
C 	C 	0.67127 0.92521 0.19858 -0.02400
C 	C 	0.69254 0.97959 0.16434 0.08900
C 	C 	0.74216 0.97852 0.16427 -0.15500
H 	H 	0.76120 0.94330 0.18630 0.07900
C 	C 	0.76255 0.02836 0.13235 0.08600
H 	H 	0.79520 0.02640 0.13270 0.01100
C 	C 	0.73506 0.08193 0.09933 -0.17500
C 	C 	0.75790 0.13579 0.06428 0.42400
C 	C 	0.68613 0.08293 0.09985 0.09000
H 	H 	0.66700 0.11810 0.07790 0.00000
C 	C 	0.66604 0.03315 0.13201 -0.16200
H 	H 	0.63350 0.03550 0.13210 0.08400
C 	C 	0.62445 0.90391 0.16542 -0.05700
H 	H 	0.60730 0.92390 0.12090 0.04600
C 	C 	0.60254 0.85367 0.19674 -0.00900
C 	C 	0.62915 0.82408 0.26357 -0.01800
H 	H 	0.61510 0.79140 0.28680 0.04800
C 	C 	0.51850 0.87230 0.11460 -0.04600
H 	H 	0.52630 0.91590 0.10850 0.03900
C 	C 	0.47347 0.84810 0.08030 -0.01900
H 	H 	0.45060 0.87660 0.05210 0.04200
C 	C 	0.49460 0.74150 0.12750 -0.03300
H 	H 	0.48690 0.69750 0.13120 0.04300
C 	C 	0.54140 0.76440 0.16490 -0.08700
H 	H 	0.56420 0.73570 0.19290 0.05600
C 	C 	0.46075 0.78358 0.08604 -0.09400
C 	C 	0.55274 0.82905 0.15937 0.04500
C 	C 	0.41090 0.75790 0.04705 0.33800
C 	C 	0.53080 0.84020 0.08080 -0.06700
H 	H 	0.54770 0.86520 0.05290 0.04700
C 	C 	0.48840 0.81730 0.04550 0.02400
H 	H 	0.47690 0.82370 0.99340 0.01800
C 	C 	0.48420 0.76100 0.15630 0.02900
H 	H 	0.46970 0.72940 0.18050 0.01800
C 	C 	0.52840 0.78460 0.19070 -0.01700
H 	H 	0.54310 0.76910 0.23920 0.03300
Gd	Gd	0.18541 0.22009 0.51658 1.49200
O 	O 	0.18168 0.26920 0.39714 -0.42100
O 	O 	0.24816 0.32484 0.39149 -0.45300
O 	O 	0.29984 0.62751 0.05612 -0.41800
O 	O 	0.23457 0.68759 0.04326 -0.48900
O 	O 	0.88347 0.29481 0.00087 -0.39700
O 	O 	0.89829 0.20315 0.06118 -0.38700
C 	C 	0.20445 0.30950 0.36814 0.41800
C 	C 	0.17643 0.34337 0.29536 -0.09700
C 	C 	0.19700 0.39297 0.26388 -0.00900
H 	H 	0.22860 0.40550 0.28620 0.03600
C 	C 	0.17127 0.42521 0.19858 -0.02400
C 	C 	0.19254 0.47959 0.16434 0.08900
C 	C 	0.24216 0.47852 0.16427 -0.15500
H 	H 	0.26120 0.44330 0.18630 0.07900
C 	C 	0.26255 0.52836 0.13235 0.08500
H 	H 	0.29520 0.52640 0.13270 0.01100
C 	C 	0.23506 0.58193 0.09933 -0.17500
C 	C 	0.25790 0.63579 0.06428 0.42400
C 	C 	0.18613 0.58293 0.09985 0.09000
H 	H 	0.16700 0.61810 0.07790 -0.00000
C 	C 	0.16604 0.53315 0.13201 -0.16300
H 	H 	0.13350 0.53550 0.13210 0.08400
C 	C 	0.12445 0.40391 0.16542 -0.05700
H 	H 	0.10730 0.42390 0.12090 0.04600
C 	C 	0.10254 0.35367 0.19674 -0.00900
C 	C 	0.12915 0.32408 0.26357 -0.01800
H 	H 	0.11510 0.29140 0.28680 0.04800
C 	C 	0.01850 0.37230 0.11460 -0.05100
H 	H 	0.02630 0.41590 0.10850 0.04100
C 	C 	0.97347 0.34810 0.08030 -0.01500
H 	H 	0.95060 0.37660 0.05210 0.04100
C 	C 	0.99460 0.24150 0.12750 -0.03200
H 	H 	0.98690 0.19750 0.13120 0.04300
C 	C 	0.04140 0.26440 0.16490 -0.08800
H 	H 	0.06420 0.23570 0.19290 0.05600
C 	C 	0.96075 0.28358 0.08604 -0.09600
C 	C 	0.05274 0.32905 0.15937 0.04700
C 	C 	0.91090 0.25790 0.04705 0.33900
C 	C 	0.03080 0.34020 0.08080 -0.06400
H 	H 	0.04770 0.36520 0.05290 0.04600
C 	C 	0.98840 0.31730 0.04550 0.02400
H 	H 	0.97690 0.32370 0.99340 0.01800
C 	C 	0.98420 0.26100 0.15630 0.03000
H 	H 	0.96970 0.22940 0.18050 0.01700
C 	C 	0.02840 0.28460 0.19070 -0.01800
H 	H 	0.04310 0.26910 0.23920 0.03300
