data_crystal

_cell_length_a 22.83770
_cell_length_b 22.83770
_cell_length_c 13.52330
_cell_angle_alpha 90.00000
_cell_angle_beta  90.00000
_cell_angle_gamma 90.00000

_symmetry_space_group_name_	'P 1'
_symmetry_space_group_name_H-M	'P 1'

loop_
_symmetry_equiv_pos_as_xyz
  x,y,z

loop_
_atom_site_label
_atom_site_type_symbol
_atom_site_fract_x
_atom_site_fract_y
_atom_site_fract_z
_atom_site_charge
C 	C 	0.19985 0.81134 0.37530 0.06600
H 	H 	0.16460 0.83180 0.37650 -0.08500
C 	C 	0.19810 0.75086 0.37394 -0.13500
H 	H 	0.16230 0.73160 0.37230 0.03700
C 	C 	0.29917 0.62200 0.40327 -0.14200
H 	H 	0.33300 0.64120 0.42340 0.03600
C 	C 	0.29719 0.56139 0.40108 0.04200
H 	H 	0.33080 0.54090 0.41890 -0.08000
C 	C 	0.30020 0.31174 0.36926 0.06100
H 	H 	0.33520 0.33240 0.36530 -0.08400
C 	C 	0.30215 0.25106 0.36894 -0.12500
H 	H 	0.33780 0.23160 0.36470 0.02900
C 	C 	0.20491 0.12310 0.33216 -0.16800
H 	H 	0.17340 0.14250 0.30340 0.05800
C 	C 	0.20701 0.06242 0.33244 0.05300
H 	H 	0.17700 0.04200 0.30140 -0.08400
C 	C 	0.30015 0.81134 0.37470 0.06500
H 	H 	0.33540 0.83180 0.37350 -0.08600
C 	C 	0.30190 0.75086 0.37606 -0.13600
H 	H 	0.33770 0.73160 0.37770 0.03600
C 	C 	0.20083 0.62200 0.34673 -0.14300
H 	H 	0.16700 0.64120 0.32660 0.03500
C 	C 	0.20281 0.56139 0.34892 0.04100
H 	H 	0.16920 0.54090 0.33110 -0.08100
C 	C 	0.19980 0.31174 0.38074 0.06000
H 	H 	0.16480 0.33240 0.38470 -0.08500
C 	C 	0.19785 0.25106 0.38106 -0.12600
H 	H 	0.16220 0.23160 0.38530 0.02900
C 	C 	0.29509 0.12310 0.41784 -0.16900
H 	H 	0.32660 0.14250 0.44660 0.05700
C 	C 	0.29299 0.06242 0.41756 0.05200
H 	H 	0.32300 0.04200 0.44860 -0.08500
Zn	Zn	0.25000 0.93639 0.37500 1.07500
Zn	Zn	0.25000 0.43442 0.37500 1.07700
N 	N 	0.25000 0.84203 0.37500 -0.31200
N 	N 	0.25000 0.53075 0.37500 -0.31300
N 	N 	0.25000 0.34179 0.37500 -0.31500
N 	N 	0.25000 0.03193 0.37500 -0.32100
C 	C 	0.25000 0.71877 0.37500 0.05000
C 	C 	0.25000 0.65385 0.37500 0.03700
C 	C 	0.25000 0.21954 0.37500 0.03700
C 	C 	0.25000 0.15471 0.37500 0.05500
C 	C 	0.69985 0.31134 0.87530 0.06500
H 	H 	0.66460 0.33180 0.87650 -0.08600
C 	C 	0.69810 0.25086 0.87394 -0.13600
H 	H 	0.66230 0.23160 0.87230 0.03600
C 	C 	0.79917 0.12200 0.90327 -0.14300
H 	H 	0.83300 0.14120 0.92340 0.03500
C 	C 	0.79719 0.06139 0.90108 0.04100
H 	H 	0.83080 0.04090 0.91890 -0.08100
C 	C 	0.80020 0.81174 0.86926 0.06000
H 	H 	0.83520 0.83240 0.86530 -0.08500
C 	C 	0.80215 0.75106 0.86894 -0.12500
H 	H 	0.83780 0.73160 0.86470 0.02900
C 	C 	0.70491 0.62310 0.83216 -0.16900
H 	H 	0.67340 0.64250 0.80340 0.05700
C 	C 	0.70701 0.56242 0.83244 0.05200
H 	H 	0.67700 0.54200 0.80140 -0.08500
C 	C 	0.80015 0.31134 0.87470 0.06500
H 	H 	0.83540 0.33180 0.87350 -0.08600
C 	C 	0.80190 0.25086 0.87606 -0.13600
H 	H 	0.83770 0.23160 0.87770 0.03600
C 	C 	0.70083 0.12200 0.84673 -0.14300
H 	H 	0.66700 0.14120 0.82660 0.03500
C 	C 	0.70281 0.06139 0.84892 0.04100
H 	H 	0.66920 0.04090 0.83110 -0.08100
C 	C 	0.69980 0.81174 0.88074 0.06000
H 	H 	0.66480 0.83240 0.88470 -0.08500
C 	C 	0.69785 0.75106 0.88106 -0.12500
H 	H 	0.66220 0.73160 0.88530 0.02800
C 	C 	0.79509 0.62310 0.91784 -0.16900
H 	H 	0.82660 0.64250 0.94660 0.05700
C 	C 	0.79299 0.56242 0.91756 0.05200
H 	H 	0.82300 0.54200 0.94860 -0.08500
Zn	Zn	0.75000 0.43639 0.87500 1.07500
Zn	Zn	0.75000 0.93442 0.87500 1.07700
N 	N 	0.75000 0.34203 0.87500 -0.31200
N 	N 	0.75000 0.03075 0.87500 -0.31300
N 	N 	0.75000 0.84179 0.87500 -0.31500
N 	N 	0.75000 0.53193 0.87500 -0.32100
C 	C 	0.75000 0.21877 0.87500 0.05000
C 	C 	0.75000 0.15385 0.87500 0.03700
C 	C 	0.75000 0.71954 0.87500 0.03700
C 	C 	0.75000 0.65471 0.87500 0.05500
C 	C 	0.80015 0.18866 0.37530 0.06500
H 	H 	0.83540 0.16820 0.37650 -0.08600
C 	C 	0.80190 0.24914 0.37394 -0.13600
H 	H 	0.83770 0.26840 0.37230 0.03600
C 	C 	0.70083 0.37800 0.40327 -0.14300
H 	H 	0.66700 0.35880 0.42340 0.03500
C 	C 	0.70281 0.43861 0.40108 0.04100
H 	H 	0.66920 0.45910 0.41890 -0.08100
C 	C 	0.69980 0.68826 0.36926 0.06000
H 	H 	0.66480 0.66760 0.36530 -0.08500
C 	C 	0.69785 0.74894 0.36894 -0.12600
H 	H 	0.66220 0.76840 0.36470 0.02800
C 	C 	0.79509 0.87690 0.33216 -0.16900
H 	H 	0.82660 0.85750 0.30340 0.05700
C 	C 	0.79299 0.93758 0.33244 0.05200
H 	H 	0.82300 0.95800 0.30140 -0.08500
C 	C 	0.69985 0.18866 0.37470 0.06500
H 	H 	0.66460 0.16820 0.37350 -0.08600
C 	C 	0.69810 0.24914 0.37606 -0.13600
H 	H 	0.66230 0.26840 0.37770 0.03600
C 	C 	0.79917 0.37800 0.34673 -0.14300
H 	H 	0.83300 0.35880 0.32660 0.03500
C 	C 	0.79719 0.43861 0.34892 0.04100
H 	H 	0.83080 0.45910 0.33110 -0.08100
C 	C 	0.80020 0.68826 0.38074 0.06000
H 	H 	0.83520 0.66760 0.38470 -0.08500
C 	C 	0.80215 0.74894 0.38106 -0.12600
H 	H 	0.83780 0.76840 0.38530 0.02900
C 	C 	0.70491 0.87690 0.41784 -0.16900
H 	H 	0.67340 0.85750 0.44660 0.05700
C 	C 	0.70701 0.93758 0.41756 0.05200
H 	H 	0.67700 0.95800 0.44860 -0.08500
Zn	Zn	0.75000 0.06361 0.37500 1.07500
Zn	Zn	0.75000 0.56558 0.37500 1.07700
N 	N 	0.75000 0.15797 0.37500 -0.31200
N 	N 	0.75000 0.46925 0.37500 -0.31300
N 	N 	0.75000 0.65821 0.37500 -0.31500
N 	N 	0.75000 0.96807 0.37500 -0.32100
C 	C 	0.75000 0.28123 0.37500 0.05000
C 	C 	0.75000 0.34615 0.37500 0.03700
C 	C 	0.75000 0.78046 0.37500 0.03700
C 	C 	0.75000 0.84529 0.37500 0.05500
C 	C 	0.30015 0.68866 0.87530 0.06500
H 	H 	0.33540 0.66820 0.87650 -0.08600
C 	C 	0.30190 0.74914 0.87394 -0.13600
H 	H 	0.33770 0.76840 0.87230 0.03600
C 	C 	0.20083 0.87800 0.90327 -0.14300
H 	H 	0.16700 0.85880 0.92340 0.03500
C 	C 	0.20281 0.93861 0.90108 0.04100
H 	H 	0.16920 0.95910 0.91890 -0.08100
C 	C 	0.19980 0.18826 0.86926 0.06000
H 	H 	0.16480 0.16760 0.86530 -0.08500
C 	C 	0.19785 0.24894 0.86894 -0.12500
H 	H 	0.16220 0.26840 0.86470 0.02900
C 	C 	0.29509 0.37690 0.83216 -0.16900
H 	H 	0.32660 0.35750 0.80340 0.05700
C 	C 	0.29299 0.43758 0.83244 0.05200
H 	H 	0.32300 0.45800 0.80140 -0.08500
C 	C 	0.19985 0.68866 0.87470 0.06500
H 	H 	0.16460 0.66820 0.87350 -0.08600
C 	C 	0.19810 0.74914 0.87606 -0.13600
H 	H 	0.16230 0.76840 0.87770 0.03600
C 	C 	0.29917 0.87800 0.84673 -0.14300
H 	H 	0.33300 0.85880 0.82660 0.03500
C 	C 	0.29719 0.93861 0.84892 0.04100
H 	H 	0.33080 0.95910 0.83110 -0.08100
C 	C 	0.30020 0.18826 0.88074 0.06000
H 	H 	0.33520 0.16760 0.88470 -0.08500
C 	C 	0.30215 0.24894 0.88106 -0.12500
H 	H 	0.33780 0.26840 0.88530 0.02800
C 	C 	0.20491 0.37690 0.91784 -0.16900
H 	H 	0.17340 0.35750 0.94660 0.05700
C 	C 	0.20701 0.43758 0.91756 0.05200
H 	H 	0.17700 0.45800 0.94860 -0.08500
Zn	Zn	0.25000 0.56361 0.87500 1.07500
Zn	Zn	0.25000 0.06558 0.87500 1.07700
N 	N 	0.25000 0.65797 0.87500 -0.31200
N 	N 	0.25000 0.96925 0.87500 -0.31300
N 	N 	0.25000 0.15821 0.87500 -0.31500
N 	N 	0.25000 0.46807 0.87500 -0.32100
C 	C 	0.25000 0.78123 0.87500 0.05000
C 	C 	0.25000 0.84615 0.87500 0.03700
C 	C 	0.25000 0.28046 0.87500 0.03700
C 	C 	0.25000 0.34529 0.87500 0.05500
C 	C 	0.81134 0.80015 0.62470 0.06500
H 	H 	0.83180 0.83540 0.62350 -0.08600
C 	C 	0.75086 0.80190 0.62606 -0.13600
H 	H 	0.73160 0.83770 0.62770 0.03600
C 	C 	0.62200 0.70083 0.59673 -0.14300
H 	H 	0.64120 0.66700 0.57660 0.03500
C 	C 	0.56139 0.70281 0.59892 0.04100
H 	H 	0.54090 0.66920 0.58110 -0.08100
C 	C 	0.31174 0.69980 0.63074 0.06000
H 	H 	0.33240 0.66480 0.63470 -0.08500
C 	C 	0.25106 0.69785 0.63106 -0.12600
H 	H 	0.23160 0.66220 0.63530 0.02800
C 	C 	0.12310 0.79509 0.66784 -0.16900
H 	H 	0.14250 0.82660 0.69660 0.05700
C 	C 	0.06242 0.79299 0.66756 0.05200
H 	H 	0.04200 0.82300 0.69860 -0.08500
C 	C 	0.81134 0.69985 0.62530 0.06500
H 	H 	0.83180 0.66460 0.62650 -0.08600
C 	C 	0.75086 0.69810 0.62394 -0.13600
H 	H 	0.73160 0.66230 0.62230 0.03600
C 	C 	0.62200 0.79917 0.65327 -0.14300
H 	H 	0.64120 0.83300 0.67340 0.03500
C 	C 	0.56139 0.79719 0.65108 0.04100
H 	H 	0.54090 0.83080 0.66890 -0.08100
C 	C 	0.31174 0.80020 0.61926 0.06000
H 	H 	0.33240 0.83520 0.61530 -0.08500
C 	C 	0.25106 0.80215 0.61894 -0.12600
H 	H 	0.23160 0.83780 0.61470 0.02900
C 	C 	0.12310 0.70491 0.58216 -0.16900
H 	H 	0.14250 0.67340 0.55340 0.05700
C 	C 	0.06242 0.70701 0.58244 0.05200
H 	H 	0.04200 0.67700 0.55140 -0.08500
Zn	Zn	0.93639 0.75000 0.62500 1.07500
Zn	Zn	0.43442 0.75000 0.62500 1.07700
N 	N 	0.84203 0.75000 0.62500 -0.31200
N 	N 	0.53075 0.75000 0.62500 -0.31300
N 	N 	0.34179 0.75000 0.62500 -0.31500
N 	N 	0.03193 0.75000 0.62500 -0.32100
C 	C 	0.71877 0.75000 0.62500 0.05000
C 	C 	0.65385 0.75000 0.62500 0.03700
C 	C 	0.21954 0.75000 0.62500 0.03700
C 	C 	0.15471 0.75000 0.62500 0.05500
C 	C 	0.31134 0.30015 0.12470 0.06500
H 	H 	0.33180 0.33540 0.12350 -0.08600
C 	C 	0.25086 0.30190 0.12606 -0.13600
H 	H 	0.23160 0.33770 0.12770 0.03600
C 	C 	0.12200 0.20083 0.09673 -0.14300
H 	H 	0.14120 0.16700 0.07660 0.03500
C 	C 	0.06139 0.20281 0.09892 0.04100
H 	H 	0.04090 0.16920 0.08110 -0.08100
C 	C 	0.81174 0.19980 0.13074 0.06000
H 	H 	0.83240 0.16480 0.13470 -0.08500
C 	C 	0.75106 0.19785 0.13106 -0.12500
H 	H 	0.73160 0.16220 0.13530 0.02900
C 	C 	0.62310 0.29509 0.16784 -0.16900
H 	H 	0.64250 0.32660 0.19660 0.05700
C 	C 	0.56242 0.29299 0.16756 0.05200
H 	H 	0.54200 0.32300 0.19860 -0.08500
C 	C 	0.31134 0.19985 0.12530 0.06500
H 	H 	0.33180 0.16460 0.12650 -0.08600
C 	C 	0.25086 0.19810 0.12394 -0.13600
H 	H 	0.23160 0.16230 0.12230 0.03600
C 	C 	0.12200 0.29917 0.15327 -0.14300
H 	H 	0.14120 0.33300 0.17340 0.03500
C 	C 	0.06139 0.29719 0.15108 0.04100
H 	H 	0.04090 0.33080 0.16890 -0.08100
C 	C 	0.81174 0.30020 0.11926 0.06000
H 	H 	0.83240 0.33520 0.11530 -0.08500
C 	C 	0.75106 0.30215 0.11894 -0.12500
H 	H 	0.73160 0.33780 0.11470 0.02800
C 	C 	0.62310 0.20491 0.08216 -0.16900
H 	H 	0.64250 0.17340 0.05340 0.05700
C 	C 	0.56242 0.20701 0.08244 0.05200
H 	H 	0.54200 0.17700 0.05140 -0.08500
Zn	Zn	0.43639 0.25000 0.12500 1.07500
Zn	Zn	0.93442 0.25000 0.12500 1.07700
N 	N 	0.34203 0.25000 0.12500 -0.31200
N 	N 	0.03075 0.25000 0.12500 -0.31300
N 	N 	0.84179 0.25000 0.12500 -0.31500
N 	N 	0.53193 0.25000 0.12500 -0.32100
C 	C 	0.21877 0.25000 0.12500 0.05000
C 	C 	0.15385 0.25000 0.12500 0.03700
C 	C 	0.71954 0.25000 0.12500 0.03700
C 	C 	0.65471 0.25000 0.12500 0.05500
C 	C 	0.18866 0.19985 0.62470 0.06500
H 	H 	0.16820 0.16460 0.62350 -0.08600
C 	C 	0.24914 0.19810 0.62606 -0.13600
H 	H 	0.26840 0.16230 0.62770 0.03600
C 	C 	0.37800 0.29917 0.59673 -0.14300
H 	H 	0.35880 0.33300 0.57660 0.03500
C 	C 	0.43861 0.29719 0.59892 0.04100
H 	H 	0.45910 0.33080 0.58110 -0.08100
C 	C 	0.68826 0.30020 0.63074 0.06000
H 	H 	0.66760 0.33520 0.63470 -0.08500
C 	C 	0.74894 0.30215 0.63106 -0.12600
H 	H 	0.76840 0.33780 0.63530 0.02800
C 	C 	0.87690 0.20491 0.66784 -0.16900
H 	H 	0.85750 0.17340 0.69660 0.05700
C 	C 	0.93758 0.20701 0.66756 0.05200
H 	H 	0.95800 0.17700 0.69860 -0.08500
C 	C 	0.18866 0.30015 0.62530 0.06500
H 	H 	0.16820 0.33540 0.62650 -0.08600
C 	C 	0.24914 0.30190 0.62394 -0.13600
H 	H 	0.26840 0.33770 0.62230 0.03600
C 	C 	0.37800 0.20083 0.65327 -0.14300
H 	H 	0.35880 0.16700 0.67340 0.03500
C 	C 	0.43861 0.20281 0.65108 0.04100
H 	H 	0.45910 0.16920 0.66890 -0.08100
C 	C 	0.68826 0.19980 0.61926 0.06000
H 	H 	0.66760 0.16480 0.61530 -0.08500
C 	C 	0.74894 0.19785 0.61894 -0.12600
H 	H 	0.76840 0.16220 0.61470 0.02900
C 	C 	0.87690 0.29509 0.58216 -0.16900
H 	H 	0.85750 0.32660 0.55340 0.05700
C 	C 	0.93758 0.29299 0.58244 0.05200
H 	H 	0.95800 0.32300 0.55140 -0.08500
Zn	Zn	0.06361 0.25000 0.62500 1.07500
Zn	Zn	0.56558 0.25000 0.62500 1.07700
N 	N 	0.15797 0.25000 0.62500 -0.31200
N 	N 	0.46925 0.25000 0.62500 -0.31300
N 	N 	0.65821 0.25000 0.62500 -0.31500
N 	N 	0.96807 0.25000 0.62500 -0.32100
C 	C 	0.28123 0.25000 0.62500 0.05000
C 	C 	0.34615 0.25000 0.62500 0.03700
C 	C 	0.78046 0.25000 0.62500 0.03700
C 	C 	0.84529 0.25000 0.62500 0.05500
C 	C 	0.68866 0.69985 0.12470 0.06500
H 	H 	0.66820 0.66460 0.12350 -0.08600
C 	C 	0.74914 0.69810 0.12606 -0.13600
H 	H 	0.76840 0.66230 0.12770 0.03600
C 	C 	0.87800 0.79917 0.09673 -0.14300
H 	H 	0.85880 0.83300 0.07660 0.03500
C 	C 	0.93861 0.79719 0.09892 0.04100
H 	H 	0.95910 0.83080 0.08110 -0.08100
C 	C 	0.18826 0.80020 0.13074 0.06000
H 	H 	0.16760 0.83520 0.13470 -0.08500
C 	C 	0.24894 0.80215 0.13106 -0.12500
H 	H 	0.26840 0.83780 0.13530 0.02900
C 	C 	0.37690 0.70491 0.16784 -0.16900
H 	H 	0.35750 0.67340 0.19660 0.05700
C 	C 	0.43758 0.70701 0.16756 0.05200
H 	H 	0.45800 0.67700 0.19860 -0.08500
C 	C 	0.68866 0.80015 0.12530 0.06500
H 	H 	0.66820 0.83540 0.12650 -0.08600
C 	C 	0.74914 0.80190 0.12394 -0.13600
H 	H 	0.76840 0.83770 0.12230 0.03600
C 	C 	0.87800 0.70083 0.15327 -0.14300
H 	H 	0.85880 0.66700 0.17340 0.03500
C 	C 	0.93861 0.70281 0.15108 0.04100
H 	H 	0.95910 0.66920 0.16890 -0.08100
C 	C 	0.18826 0.69980 0.11926 0.06000
H 	H 	0.16760 0.66480 0.11530 -0.08500
C 	C 	0.24894 0.69785 0.11894 -0.12500
H 	H 	0.26840 0.66220 0.11470 0.02800
C 	C 	0.37690 0.79509 0.08216 -0.16900
H 	H 	0.35750 0.82660 0.05340 0.05700
C 	C 	0.43758 0.79299 0.08244 0.05200
H 	H 	0.45800 0.82300 0.05140 -0.08500
Zn	Zn	0.56361 0.75000 0.12500 1.07500
Zn	Zn	0.06558 0.75000 0.12500 1.07700
N 	N 	0.65797 0.75000 0.12500 -0.31200
N 	N 	0.96925 0.75000 0.12500 -0.31300
N 	N 	0.15821 0.75000 0.12500 -0.31500
N 	N 	0.46807 0.75000 0.12500 -0.32100
C 	C 	0.78123 0.75000 0.12500 0.05000
C 	C 	0.84615 0.75000 0.12500 0.03700
C 	C 	0.28046 0.75000 0.12500 0.03700
C 	C 	0.34529 0.75000 0.12500 0.05500
