data_crystal

_cell_length_a 26.23800
_cell_length_b 14.18760
_cell_length_c 16.85860
_cell_angle_alpha 90.00000
_cell_angle_beta  98.01400
_cell_angle_gamma 90.00000

_symmetry_space_group_name_	'P 1'
_symmetry_space_group_name_H-M	'P 1'

loop_
_symmetry_equiv_pos_as_xyz
  x,y,z

loop_
_atom_site_label
_atom_site_type_symbol
_atom_site_fract_x
_atom_site_fract_y
_atom_site_fract_z
_atom_site_charge
C 	C 	0.66110 0.88390 0.30760 0.53300
C 	C 	0.60680 0.91310 0.31860 -0.17500
C 	C 	0.58690 0.88100 0.38200 0.01000
C 	C 	0.51080 0.97340 0.33440 0.04200
C 	C 	0.52150 0.95900 0.26620 0.08500
C 	C 	0.56750 0.92800 0.25900 -0.01400
C 	C 	0.46030 0.01690 0.34310 0.07900
C 	C 	0.43440 0.97000 0.39590 -0.07800
C 	C 	0.39320 0.02910 0.41550 0.09000
C 	C 	0.36950 0.09800 0.36670 -0.15000
C 	C 	0.39390 0.12740 0.30350 0.11700
C 	C 	0.32110 0.14730 0.38460 0.45600
C 	C 	0.17090 0.18650 0.34210 0.45200
C 	C 	0.12390 0.12990 0.34010 -0.17300
C 	C 	0.11450 0.07890 0.40820 0.09400
C 	C 	0.03470 0.02850 0.33620 0.05800
C 	C 	0.05220 0.04500 0.26640 0.02400
C 	C 	0.09320 0.10300 0.26960 0.02700
C 	C 	0.98480 0.98240 0.33730 0.05400
C 	C 	0.93010 0.88670 0.40260 0.12600
C 	C 	0.89000 0.90440 0.34450 -0.17500
C 	C 	0.89450 0.98400 0.28400 0.06900
C 	C 	0.94270 0.02000 0.28340 -0.09300
C 	C 	0.83610 0.87460 0.35190 0.48900
C 	C 	0.17420 0.38760 0.45780 0.46000
C 	C 	0.12310 0.42200 0.47420 -0.17900
C 	C 	0.09990 0.38550 0.53630 0.12700
C 	C 	0.02620 0.48240 0.49640 0.05800
C 	C 	0.04910 0.52100 0.43630 -0.03600
C 	C 	0.09610 0.48880 0.42670 0.07800
C 	C 	0.33170 0.34150 0.50250 0.44000
C 	C 	0.38540 0.37500 0.50690 -0.01600
C 	C 	0.40100 0.41600 0.43580 -0.19400
C 	C 	0.47800 0.46200 0.50320 -0.01400
C 	C 	0.46870 0.41800 0.57010 -0.07400
C 	C 	0.42020 0.37800 0.57600 0.16100
O 	O 	0.69300 0.87890 0.36910 -0.54700
O 	O 	0.67260 0.87530 0.23960 -0.53400
O 	O 	0.24890 0.28220 0.67250 -0.30800
O 	O 	0.29640 0.19390 0.32840 -0.49500
O 	O 	0.30080 0.34280 0.44070 -0.59500
O 	O 	0.17880 0.22780 0.27880 -0.44100
O 	O 	0.18650 0.40030 0.38920 -0.50000
O 	O 	0.80120 0.89840 0.29750 -0.55500
O 	O 	0.30860 0.12200 0.45180 -1.13200
O 	O 	0.83090 0.82640 0.41270 -0.48900
O 	O 	0.20210 0.34610 0.51620 -0.46400
O 	O 	0.20150 0.19810 0.40680 -0.56100
O 	O 	0.32260 0.30150 0.56550 -0.47800
N 	N 	0.53640 0.90700 0.39000 -0.05600
N 	N 	0.43410 0.05500 0.28600 -0.07100
N 	N 	0.06970 0.02780 0.40520 -0.11600
N 	N 	0.97810 0.92580 0.39950 -0.11600
N 	N 	0.05130 0.41580 0.54940 -0.12100
N 	N 	0.44710 0.44000 0.43290 -0.00600
Eu	Eu	0.25030 0.33684 0.31352 2.03800
Eu	Eu	0.24931 0.20146 0.53679 1.99200
C 	C 	0.46650 0.50800 0.23220 -0.10000
C 	C 	0.41980 0.47700 0.23930 0.09300
C 	C 	0.04000 0.09000 0.27280 -0.05400
C 	C 	0.08360 0.14800 0.27390 0.05500
C 	C 	0.09580 0.05800 0.72540 -0.00700
C 	C 	0.04710 0.02400 0.72880 0.06500
C 	C 	0.46650 0.50900 0.50380 0.06800
C 	C 	0.45730 0.47100 0.57300 0.07700
C 	C 	0.41200 0.42500 0.57000 -0.11200
N 	N 	0.45770 0.44800 0.09600 -0.06800
N 	N 	0.44230 0.10100 0.29330 -0.06900
N 	N 	0.43560 0.49300 0.43680 -0.12700
C 	C 	0.38800 0.45800 0.43930 0.28600
C 	C 	0.44070 0.00700 0.41230 0.04400
C 	C 	0.40580 0.41800 0.10000 0.09600
O 	O 	0.31170 0.15800 0.45620 0.66600
C 	C 	0.37790 0.42100 0.50300 -0.11200
C 	C 	0.33890 0.38390 0.19240 0.53200
C 	C 	0.39320 0.41310 0.18140 -0.17600
C 	C 	0.41310 0.38100 0.11800 0.01000
C 	C 	0.48920 0.47340 0.16560 0.04200
C 	C 	0.47850 0.45900 0.23380 0.08300
C 	C 	0.43250 0.42800 0.24100 -0.01400
C 	C 	0.53970 0.51690 0.15690 0.07900
C 	C 	0.56560 0.47000 0.10410 -0.07700
C 	C 	0.60680 0.52910 0.08450 0.09000
C 	C 	0.63050 0.59800 0.13330 -0.15000
C 	C 	0.60610 0.62740 0.19650 0.11700
C 	C 	0.67890 0.64730 0.11540 0.45600
C 	C 	0.82910 0.68650 0.15790 0.45200
C 	C 	0.87610 0.62990 0.15990 -0.17300
C 	C 	0.88550 0.57890 0.09180 0.09500
C 	C 	0.96530 0.52850 0.16380 0.05900
C 	C 	0.94780 0.54500 0.23360 0.02400
C 	C 	0.90680 0.60300 0.23040 0.02700
C 	C 	0.01520 0.48240 0.16270 0.05400
C 	C 	0.06990 0.38670 0.09740 0.12600
C 	C 	0.11000 0.40440 0.15550 -0.17500
C 	C 	0.10550 0.48400 0.21600 0.06500
C 	C 	0.05730 0.52000 0.21660 -0.09300
C 	C 	0.16390 0.37460 0.14810 0.48900
C 	C 	0.82580 0.88760 0.04220 0.46000
C 	C 	0.87690 0.92200 0.02580 -0.17800
C 	C 	0.90010 0.88550 0.96370 0.12600
C 	C 	0.97380 0.98240 0.00360 0.05800
C 	C 	0.95090 0.02100 0.06370 -0.03400
C 	C 	0.90390 0.98880 0.07330 0.07700
C 	C 	0.66830 0.84150 0.99750 0.43900
C 	C 	0.61460 0.87500 0.99310 -0.01600
C 	C 	0.59900 0.91600 0.06420 -0.19500
C 	C 	0.52200 0.96200 0.99680 -0.01500
C 	C 	0.53130 0.91800 0.92990 -0.07400
C 	C 	0.57980 0.87800 0.92400 0.16200
O 	O 	0.30700 0.37890 0.13090 -0.54700
O 	O 	0.32740 0.37530 0.26040 -0.53400
O 	O 	0.75110 0.78220 0.82750 -0.30800
O 	O 	0.70360 0.69390 0.17160 -0.49500
O 	O 	0.69920 0.84280 0.05930 -0.59500
O 	O 	0.82120 0.72780 0.22120 -0.44100
O 	O 	0.81350 0.90030 0.11080 -0.50000
O 	O 	0.19880 0.39840 0.20250 -0.55500
O 	O 	0.69140 0.62200 0.04820 -1.13300
O 	O 	0.16910 0.32640 0.08730 -0.48900
O 	O 	0.79790 0.84610 0.98380 -0.46400
O 	O 	0.79850 0.69810 0.09320 -0.56100
O 	O 	0.67740 0.80150 0.93450 -0.47800
N 	N 	0.46360 0.40700 0.11000 -0.05700
N 	N 	0.56590 0.55500 0.21400 -0.07100
N 	N 	0.93030 0.52780 0.09480 -0.11600
N 	N 	0.02190 0.42580 0.10050 -0.11600
N 	N 	0.94870 0.91580 0.95060 -0.12100
N 	N 	0.55290 0.94000 0.06710 -0.00600
Eu	Eu	0.74970 0.83684 0.18648 2.03800
Eu	Eu	0.75069 0.70146 0.96321 1.99200
C 	C 	0.53350 0.00800 0.26780 -0.10100
C 	C 	0.58020 0.97700 0.26070 0.09400
C 	C 	0.96000 0.59000 0.22720 -0.05400
C 	C 	0.91640 0.64800 0.22610 0.05500
C 	C 	0.90420 0.55800 0.77460 -0.00300
C 	C 	0.95290 0.52400 0.77120 0.06400
C 	C 	0.53350 0.00900 0.99620 0.06900
C 	C 	0.54270 0.97100 0.92700 0.07700
C 	C 	0.58800 0.92500 0.93000 -0.11300
N 	N 	0.54230 0.94800 0.40400 -0.06900
N 	N 	0.55770 0.60100 0.20670 -0.07000
N 	N 	0.56440 0.99300 0.06320 -0.12700
C 	C 	0.61200 0.95800 0.06070 0.28700
C 	C 	0.55930 0.50700 0.08770 0.04300
C 	C 	0.59420 0.91800 0.40000 0.09700
O 	O 	0.68830 0.65800 0.04380 0.66700
C 	C 	0.62210 0.92100 0.99700 -0.11200
C 	C 	0.33890 0.11610 0.69240 0.53200
C 	C 	0.39320 0.08690 0.68140 -0.17600
C 	C 	0.41310 0.11900 0.61800 0.00900
C 	C 	0.48920 0.02660 0.66560 0.04100
C 	C 	0.47850 0.04100 0.73380 0.08400
C 	C 	0.43250 0.07200 0.74100 -0.01500
C 	C 	0.53970 0.98310 0.65690 0.07900
C 	C 	0.56560 0.03000 0.60410 -0.07800
C 	C 	0.60680 0.97090 0.58450 0.09000
C 	C 	0.63050 0.90200 0.63330 -0.15000
C 	C 	0.60610 0.87260 0.69650 0.11700
C 	C 	0.67890 0.85270 0.61540 0.45600
C 	C 	0.82910 0.81350 0.65790 0.45200
C 	C 	0.87610 0.87010 0.65990 -0.17300
C 	C 	0.88550 0.92110 0.59180 0.09400
C 	C 	0.96530 0.97150 0.66380 0.05800
C 	C 	0.94780 0.95500 0.73360 0.02400
C 	C 	0.90680 0.89700 0.73040 0.02700
C 	C 	0.01520 0.01760 0.66270 0.05400
C 	C 	0.06990 0.11330 0.59740 0.12600
C 	C 	0.11000 0.09560 0.65550 -0.17500
C 	C 	0.10550 0.01600 0.71600 0.06900
C 	C 	0.05730 0.98000 0.71660 -0.09300
C 	C 	0.16390 0.12540 0.64810 0.48900
C 	C 	0.82580 0.61240 0.54220 0.46000
C 	C 	0.87690 0.57800 0.52580 -0.17900
C 	C 	0.90010 0.61450 0.46370 0.12700
C 	C 	0.97380 0.51760 0.50360 0.05800
C 	C 	0.95090 0.47900 0.56370 -0.03600
C 	C 	0.90390 0.51120 0.57330 0.07800
C 	C 	0.66830 0.65850 0.49750 0.44000
C 	C 	0.61460 0.62500 0.49310 -0.01600
C 	C 	0.59900 0.58400 0.56420 -0.19400
C 	C 	0.52200 0.53800 0.49680 -0.01400
C 	C 	0.53130 0.58200 0.42990 -0.07400
C 	C 	0.57980 0.62200 0.42400 0.16100
O 	O 	0.30700 0.12110 0.63090 -0.54700
O 	O 	0.32740 0.12470 0.76040 -0.53400
O 	O 	0.75110 0.71780 0.32750 -0.30800
O 	O 	0.70360 0.80610 0.67160 -0.49500
O 	O 	0.69920 0.65720 0.55930 -0.59500
O 	O 	0.82120 0.77220 0.72120 -0.44100
O 	O 	0.81350 0.59970 0.61080 -0.50000
O 	O 	0.19880 0.10160 0.70250 -0.55500
O 	O 	0.69140 0.87800 0.54820 -1.13200
O 	O 	0.16910 0.17360 0.58730 -0.48900
O 	O 	0.79790 0.65390 0.48380 -0.46400
O 	O 	0.79850 0.80190 0.59320 -0.56100
O 	O 	0.67740 0.69850 0.43450 -0.47800
N 	N 	0.46360 0.09300 0.61000 -0.05600
N 	N 	0.56590 0.94500 0.71400 -0.07100
N 	N 	0.93030 0.97220 0.59480 -0.11600
N 	N 	0.02190 0.07420 0.60050 -0.11600
N 	N 	0.94870 0.58420 0.45060 -0.12100
N 	N 	0.55290 0.56000 0.56710 -0.00600
Eu	Eu	0.74970 0.66316 0.68648 2.03800
Eu	Eu	0.75069 0.79854 0.46321 1.99200
C 	C 	0.53350 0.49200 0.76780 -0.10000
C 	C 	0.58020 0.52300 0.76070 0.09300
C 	C 	0.96000 0.91000 0.72720 -0.05400
C 	C 	0.91640 0.85200 0.72610 0.05500
C 	C 	0.90420 0.94200 0.27460 -0.00700
C 	C 	0.95290 0.97600 0.27120 0.06500
C 	C 	0.53350 0.49100 0.49620 0.06800
C 	C 	0.54270 0.52900 0.42700 0.07700
C 	C 	0.58800 0.57500 0.43000 -0.11200
N 	N 	0.54230 0.55200 0.90400 -0.06800
N 	N 	0.55770 0.89900 0.70670 -0.06900
N 	N 	0.56440 0.50700 0.56320 -0.12700
C 	C 	0.61200 0.54200 0.56070 0.28600
C 	C 	0.55930 0.99300 0.58770 0.04400
C 	C 	0.59420 0.58200 0.90000 0.09600
O 	O 	0.68830 0.84200 0.54380 0.66600
C 	C 	0.62210 0.57900 0.49700 -0.11200
C 	C 	0.66110 0.61610 0.80760 0.53200
C 	C 	0.60680 0.58690 0.81860 -0.17600
C 	C 	0.58690 0.61900 0.88200 0.01000
C 	C 	0.51080 0.52660 0.83440 0.04200
C 	C 	0.52150 0.54100 0.76620 0.08300
C 	C 	0.56750 0.57200 0.75900 -0.01400
C 	C 	0.46030 0.48310 0.84310 0.07900
C 	C 	0.43440 0.53000 0.89590 -0.07700
C 	C 	0.39320 0.47090 0.91550 0.09000
C 	C 	0.36950 0.40200 0.86670 -0.15000
C 	C 	0.39390 0.37260 0.80350 0.11700
C 	C 	0.32110 0.35270 0.88460 0.45600
C 	C 	0.17090 0.31350 0.84210 0.45200
C 	C 	0.12390 0.37010 0.84010 -0.17300
C 	C 	0.11450 0.42110 0.90820 0.09500
C 	C 	0.03470 0.47150 0.83620 0.05900
C 	C 	0.05220 0.45500 0.76640 0.02400
C 	C 	0.09320 0.39700 0.76960 0.02700
C 	C 	0.98480 0.51760 0.83730 0.05400
C 	C 	0.93010 0.61330 0.90260 0.12600
C 	C 	0.89000 0.59560 0.84450 -0.17500
C 	C 	0.89450 0.51600 0.78400 0.06500
C 	C 	0.94270 0.48000 0.78340 -0.09300
C 	C 	0.83610 0.62540 0.85190 0.48900
C 	C 	0.17420 0.11240 0.95780 0.46000
C 	C 	0.12310 0.07800 0.97420 -0.17800
C 	C 	0.09990 0.11450 0.03630 0.12600
C 	C 	0.02620 0.01760 0.99640 0.05800
C 	C 	0.04910 0.97900 0.93630 -0.03400
C 	C 	0.09610 0.01120 0.92670 0.07700
C 	C 	0.33170 0.15850 0.00250 0.43900
C 	C 	0.38540 0.12500 0.00690 -0.01600
C 	C 	0.40100 0.08400 0.93580 -0.19500
C 	C 	0.47800 0.03800 0.00320 -0.01500
C 	C 	0.46870 0.08200 0.07010 -0.07400
C 	C 	0.42020 0.12200 0.07600 0.16200
O 	O 	0.69300 0.62110 0.86910 -0.54700
O 	O 	0.67260 0.62470 0.73960 -0.53400
O 	O 	0.24890 0.21780 0.17250 -0.30800
O 	O 	0.29640 0.30610 0.82840 -0.49500
O 	O 	0.30080 0.15720 0.94070 -0.59500
O 	O 	0.17880 0.27220 0.77880 -0.44100
O 	O 	0.18650 0.09970 0.88920 -0.50000
O 	O 	0.80120 0.60160 0.79750 -0.55500
O 	O 	0.30860 0.37800 0.95180 -1.13300
O 	O 	0.83090 0.67360 0.91270 -0.48900
O 	O 	0.20210 0.15390 0.01620 -0.46400
O 	O 	0.20150 0.30190 0.90680 -0.56100
O 	O 	0.32260 0.19850 0.06550 -0.47800
N 	N 	0.53640 0.59300 0.89000 -0.05700
N 	N 	0.43410 0.44500 0.78600 -0.07100
N 	N 	0.06970 0.47220 0.90520 -0.11600
N 	N 	0.97810 0.57420 0.89950 -0.11600
N 	N 	0.05130 0.08420 0.04940 -0.12100
N 	N 	0.44710 0.06000 0.93290 -0.00600
Eu	Eu	0.25030 0.16316 0.81352 2.03800
Eu	Eu	0.24931 0.29854 0.03679 1.99200
C 	C 	0.46650 0.99200 0.73220 -0.10100
C 	C 	0.41980 0.02300 0.73930 0.09400
C 	C 	0.04000 0.41000 0.77280 -0.05400
C 	C 	0.08360 0.35200 0.77390 0.05500
C 	C 	0.09580 0.44200 0.22540 -0.00300
C 	C 	0.04710 0.47600 0.22880 0.06400
C 	C 	0.46650 0.99100 0.00380 0.06900
C 	C 	0.45730 0.02900 0.07300 0.07700
C 	C 	0.41200 0.07500 0.07000 -0.11300
N 	N 	0.45770 0.05200 0.59600 -0.06900
N 	N 	0.44230 0.39900 0.79330 -0.07000
N 	N 	0.43560 0.00700 0.93680 -0.12700
C 	C 	0.38800 0.04200 0.93930 0.28700
C 	C 	0.44070 0.49300 0.91230 0.04300
C 	C 	0.40580 0.08200 0.60000 0.09700
O 	O 	0.31170 0.34200 0.95620 0.66700
C 	C 	0.37790 0.07900 0.00300 -0.11200
