data_crystal

_cell_length_a 26.53100
_cell_length_b 13.61700
_cell_length_c 16.40670
_cell_angle_alpha 90.00000
_cell_angle_beta  98.04000
_cell_angle_gamma 90.00000

_symmetry_space_group_name_	'P 1'
_symmetry_space_group_name_H-M	'P 1'

loop_
_symmetry_equiv_pos_as_xyz
  x,y,z

loop_
_atom_site_label
_atom_site_type_symbol
_atom_site_fract_x
_atom_site_fract_y
_atom_site_fract_z
_atom_site_charge
C 	C 	0.33490 0.09500 0.69000 0.49500
C 	C 	0.38950 0.06600 0.68010 -0.17200
C 	C 	0.40580 0.04500 0.60500 0.06900
N 	N 	0.45650 0.02200 0.60180 -0.22000
C 	C 	0.49100 0.01900 0.67380 0.01300
C 	C 	0.47470 0.04000 0.74900 -0.15300
C 	C 	0.42400 0.06300 0.75220 0.00900
C 	C 	0.67660 0.85100 0.63200 0.48100
C 	C 	0.53510 0.96800 0.66720 0.03200
C 	C 	0.56760 0.93400 0.73520 -0.09000
C 	C 	0.61450 0.89400 0.72510 0.09300
C 	C 	0.62890 0.88800 0.64700 -0.20800
C 	C 	0.59650 0.92200 0.57900 0.07600
N 	N 	0.54960 0.96200 0.58910 -0.25100
C 	C 	0.83430 0.89700 0.36300 0.51200
C 	C 	0.88590 0.93500 0.35020 -0.18600
C 	C 	0.89330 0.99900 0.28720 0.08700
N 	N 	0.94190 0.03300 0.28010 -0.21000
C 	C 	0.98320 0.00200 0.33620 -0.01200
C 	C 	0.97580 0.93800 0.39920 -0.03100
C 	C 	0.92710 0.90400 0.40620 0.05600
C 	C 	0.16770 0.20600 0.32900 0.49900
C 	C 	0.03170 0.04500 0.33330 0.02400
N 	N 	0.03870 0.10400 0.26640 -0.24600
C 	C 	0.08410 0.15400 0.26610 0.08100
C 	C 	0.12250 0.14700 0.33270 -0.19700
C 	C 	0.11550 0.08800 0.39960 0.05000
C 	C 	0.07010 0.03700 0.39990 -0.05500
C 	C 	0.82670 0.61600 0.53900 0.45000
C 	C 	0.87650 0.57800 0.52180 -0.17400
C 	C 	0.90250 0.51400 0.57850 0.05900
C 	C 	0.95150 0.48400 0.56970 -0.26800
C 	C 	0.97450 0.51800 0.50410 0.03800
C 	C 	0.94860 0.58300 0.44740 -0.14600
C 	C 	0.89960 0.61300 0.45630 0.08900
C 	C 	0.66770 0.66100 0.49300 0.46700
C 	C 	0.61810 0.60800 0.50070 -0.22400
C 	C 	0.61170 0.53800 0.55990 0.12900
C 	C 	0.56470 0.49300 0.55950 -0.39200
C 	C 	0.52420 0.51700 0.50000 0.06000
C 	C 	0.53050 0.58800 0.44090 -0.36200
C 	C 	0.57750 0.63300 0.44130 0.13900
O 	O 	0.75070 0.73900 0.33300 -0.34600
O 	O 	0.82530 0.85700 0.42450 -0.54500
O 	O 	0.17320 0.24400 0.26860 -0.50100
O 	O 	0.80200 0.66100 0.48160 -0.47900
O 	O 	0.79870 0.92000 0.30240 -0.55400
O 	O 	0.81330 0.58800 0.60870 -0.51400
O 	O 	0.32060 0.10700 0.75750 -0.56000
O 	O 	0.70210 0.80100 0.68860 -0.46200
O 	O 	0.70400 0.65700 0.55770 -0.57700
O 	O 	0.67500 0.70400 0.43380 -0.48400
O 	O 	0.20360 0.20200 0.39230 -0.59500
O 	O 	0.68890 0.86000 0.56080 -0.51500
O 	O 	0.30540 0.10100 0.62030 -0.53800
Eu	Eu	0.75242 0.84880 0.18957 2.06800
Eu	Eu	0.74943 0.80800 0.47301 2.08900
Cu	Cu	0.98580 0.42300 0.67240 0.82300
Cu	Cu	0.47230 0.56340 0.37950 0.85800
N 	N 	0.05140 0.41700 0.55260 -0.17900
N 	N 	0.46950 0.41200 0.55910 -0.27100
C 	C 	0.66510 0.59500 0.81000 0.49900
C 	C 	0.61050 0.56600 0.81990 -0.17400
C 	C 	0.59420 0.54500 0.89500 0.07600
N 	N 	0.54350 0.52200 0.89820 -0.21700
C 	C 	0.50900 0.51900 0.82620 0.02900
C 	C 	0.52530 0.54000 0.75100 -0.15200
C 	C 	0.57600 0.56300 0.74780 0.01300
C 	C 	0.32340 0.35100 0.86800 0.47900
C 	C 	0.46490 0.46800 0.83280 0.01700
C 	C 	0.43240 0.43400 0.76480 -0.08900
C 	C 	0.38550 0.39400 0.77490 0.09100
C 	C 	0.37110 0.38800 0.85300 -0.20700
C 	C 	0.40350 0.42200 0.92100 0.08100
N 	N 	0.45040 0.46200 0.91090 -0.25000
C 	C 	0.16570 0.39700 0.13700 0.51000
C 	C 	0.11410 0.43500 0.14980 -0.18700
C 	C 	0.10670 0.49900 0.21280 0.07600
N 	N 	0.05810 0.53300 0.21990 -0.20300
C 	C 	0.01680 0.50200 0.16380 0.00900
C 	C 	0.02420 0.43800 0.10080 -0.05500
C 	C 	0.07290 0.40400 0.09380 0.05500
C 	C 	0.83230 0.70600 0.17100 0.50000
C 	C 	0.96830 0.54500 0.16670 0.01800
N 	N 	0.96130 0.60400 0.23360 -0.24500
C 	C 	0.91590 0.65400 0.23390 0.08200
C 	C 	0.87750 0.64700 0.16730 -0.19700
C 	C 	0.88450 0.58800 0.10040 0.04500
C 	C 	0.92990 0.53700 0.10010 -0.05300
C 	C 	0.17330 0.11600 0.96100 0.46400
C 	C 	0.12350 0.07800 0.97820 -0.15300
C 	C 	0.09750 0.01400 0.92150 0.04200
C 	C 	0.04850 0.98400 0.93030 -0.24300
C 	C 	0.02550 0.01800 0.99590 0.03800
C 	C 	0.05140 0.08300 0.05260 -0.15500
C 	C 	0.10040 0.11300 0.04370 0.07000
C 	C 	0.33230 0.16100 0.00700 0.41900
C 	C 	0.38190 0.10800 0.99930 -0.16500
C 	C 	0.38830 0.03800 0.94010 0.08900
C 	C 	0.43530 0.99300 0.94050 -0.32500
C 	C 	0.47580 0.01700 -0.00000 -0.02100
C 	C 	0.46950 0.08800 0.05910 -0.33300
C 	C 	0.42250 0.13300 0.05870 0.09800
O 	O 	0.24930 0.23900 0.16700 -0.34500
O 	O 	0.17470 0.35700 0.07550 -0.54600
O 	O 	0.82680 0.74400 0.23140 -0.50200
O 	O 	0.19800 0.16100 0.01840 -0.49200
O 	O 	0.20130 0.42000 0.19760 -0.55400
O 	O 	0.18670 0.08800 0.89130 -0.51500
O 	O 	0.67940 0.60700 0.74250 -0.56100
O 	O 	0.29790 0.30100 0.81140 -0.46100
O 	O 	0.29600 0.15700 0.94230 -0.55400
O 	O 	0.32500 0.20400 0.06620 -0.47100
O 	O 	0.79640 0.70200 0.10770 -0.60200
O 	O 	0.31110 0.36000 0.93920 -0.50400
O 	O 	0.69460 0.60100 0.87970 -0.53800
Eu	Eu	0.24758 0.34880 0.31043 2.06600
Eu	Eu	0.25057 0.30800 0.02699 2.05800
Cu	Cu	0.01420 0.92300 0.82760 0.82600
Cu	Cu	0.52770 0.06340 0.12050 0.85400
N 	N 	0.94860 0.91700 0.94740 -0.17800
N 	N 	0.53050 0.91200 0.94090 -0.27600
C 	C 	0.66510 0.90500 0.31000 0.49800
C 	C 	0.61050 0.93400 0.31990 -0.17300
C 	C 	0.59420 0.95500 0.39500 0.07400
N 	N 	0.54350 0.97800 0.39820 -0.21900
C 	C 	0.50900 0.98100 0.32620 0.04500
C 	C 	0.52530 0.96000 0.25100 -0.15000
C 	C 	0.57600 0.93700 0.24780 0.01600
C 	C 	0.32340 0.14900 0.36800 0.47800
C 	C 	0.46490 0.03200 0.33280 -0.00100
C 	C 	0.43240 0.06600 0.26480 -0.08700
C 	C 	0.38550 0.10600 0.27490 0.08600
C 	C 	0.37110 0.11200 0.35300 -0.20600
C 	C 	0.40350 0.07800 0.42100 0.07100
N 	N 	0.45040 0.03800 0.41090 -0.25200
C 	C 	0.16570 0.10300 0.63700 0.51100
C 	C 	0.11410 0.06500 0.64980 -0.18700
C 	C 	0.10670 0.00100 0.71280 0.06700
N 	N 	0.05810 0.96700 0.71990 -0.19800
C 	C 	0.01680 0.99800 0.66380 0.02500
C 	C 	0.02420 0.06200 0.60080 -0.06600
C 	C 	0.07290 0.09600 0.59380 0.06100
C 	C 	0.83230 0.79400 0.67100 0.49900
C 	C 	0.96830 0.95500 0.66670 0.01600
N 	N 	0.96130 0.89600 0.73360 -0.24300
C 	C 	0.91590 0.84600 0.73390 0.08500
C 	C 	0.87750 0.85300 0.66730 -0.19600
C 	C 	0.88450 0.91200 0.60040 0.05100
C 	C 	0.92990 0.96300 0.60010 -0.04200
C 	C 	0.17330 0.38400 0.46100 0.45200
C 	C 	0.12350 0.42200 0.47820 -0.17900
C 	C 	0.09750 0.48600 0.42150 0.06700
C 	C 	0.04850 0.51600 0.43030 -0.27600
C 	C 	0.02550 0.48200 0.49590 0.06000
C 	C 	0.10040 0.38700 0.54370 0.10500
C 	C 	0.33230 0.33900 0.50700 0.46000
C 	C 	0.38190 0.39200 0.49930 -0.19800
C 	C 	0.38830 0.46200 0.44010 0.11200
C 	C 	0.43530 0.50700 0.44050 -0.35900
C 	C 	0.47580 0.48300 0.50000 -0.01900
C 	C 	0.42250 0.36700 0.55870 0.08900
O 	O 	0.24930 0.26100 0.66700 -0.34500
O 	O 	0.17470 0.14300 0.57550 -0.54600
O 	O 	0.82680 0.75600 0.73140 -0.50100
O 	O 	0.19800 0.33900 0.51840 -0.47800
O 	O 	0.20130 0.08000 0.69760 -0.55500
O 	O 	0.18670 0.41200 0.39130 -0.51400
O 	O 	0.67940 0.89300 0.24250 -0.56100
O 	O 	0.29790 0.19900 0.31140 -0.46300
O 	O 	0.29600 0.34300 0.44230 -0.57400
O 	O 	0.32500 0.29600 0.56620 -0.48000
O 	O 	0.79640 0.79800 0.60770 -0.59400
O 	O 	0.31110 0.14000 0.43920 -0.51600
O 	O 	0.69460 0.89900 0.37970 -0.53600
Eu	Eu	0.24758 0.15120 0.81043 2.06500
Eu	Eu	0.25057 0.19200 0.52699 2.08500
Cu	Cu	0.01420 0.57700 0.32760 0.82300
Cu	Cu	0.52770 0.43660 0.62050 0.85000
C 	C 	0.33490 0.40500 0.19000 0.49500
C 	C 	0.38950 0.43400 0.18010 -0.17100
C 	C 	0.40580 0.45500 0.10500 0.06600
N 	N 	0.45650 0.47800 0.10180 -0.22100
C 	C 	0.49100 0.48100 0.17380 0.02800
C 	C 	0.47470 0.46000 0.24900 -0.15200
C 	C 	0.42400 0.43700 0.25220 0.01100
C 	C 	0.67660 0.64900 0.13200 0.48100
C 	C 	0.53510 0.53200 0.16720 0.01500
C 	C 	0.56760 0.56600 0.23520 -0.08800
C 	C 	0.61450 0.60600 0.22510 0.08800
C 	C 	0.62890 0.61200 0.14700 -0.20700
C 	C 	0.59650 0.57800 0.07900 0.06700
N 	N 	0.54960 0.53800 0.08910 -0.25400
C 	C 	0.83430 0.60300 0.86300 0.51200
C 	C 	0.88590 0.56500 0.85020 -0.18700
C 	C 	0.89330 0.50100 0.78720 0.07600
N 	N 	0.94190 0.46700 0.78010 -0.20300
C 	C 	0.98320 0.49800 0.83620 0.00900
C 	C 	0.97580 0.56200 0.89920 -0.04700
C 	C 	0.92710 0.59600 0.90620 0.06300
C 	C 	0.16770 0.29400 0.82900 0.49800
C 	C 	0.03170 0.45500 0.83330 0.02000
N 	N 	0.03870 0.39600 0.76640 -0.24400
C 	C 	0.08410 0.34600 0.76610 0.08400
C 	C 	0.12250 0.35300 0.83270 -0.19600
C 	C 	0.11550 0.41200 0.89960 0.05600
C 	C 	0.07010 0.46300 0.89990 -0.04300
C 	C 	0.82670 0.88400 0.03900 0.44400
C 	C 	0.87650 0.92200 0.02180 -0.20000
C 	C 	0.90250 0.98600 0.07850 0.09300
C 	C 	0.95150 0.01600 0.06970 -0.31400
C 	C 	0.97450 0.98200 0.00410 0.07100
C 	C 	0.89960 0.88700 0.95630 0.12400
C 	C 	0.66770 0.83900 0.99300 0.49900
C 	C 	0.61810 0.89200 0.00070 -0.24300
C 	C 	0.61170 0.96200 0.05990 0.14800
C 	C 	0.56470 0.00700 0.05950 -0.41300
C 	C 	0.52420 0.98300 -0.00000 0.03300
C 	C 	0.57750 0.86700 0.94130 0.11600
O 	O 	0.75070 0.76100 0.83300 -0.34600
O 	O 	0.82530 0.64300 0.92450 -0.54500
O 	O 	0.17320 0.25600 0.76860 -0.50000
O 	O 	0.80200 0.83900 0.98160 -0.46800
O 	O 	0.79870 0.58000 0.80240 -0.55600
O 	O 	0.81330 0.91200 0.10870 -0.51300
O 	O 	0.32060 0.39300 0.25750 -0.56000
O 	O 	0.70210 0.69900 0.18860 -0.46400
O 	O 	0.70400 0.84300 0.05770 -0.59300
O 	O 	0.67500 0.79600 0.93380 -0.49100
O 	O 	0.20360 0.29800 0.89230 -0.58600
O 	O 	0.68890 0.64000 0.06080 -0.52500
O 	O 	0.30540 0.39900 0.12030 -0.53600
Eu	Eu	0.75242 0.65120 0.68957 2.06600
Eu	Eu	0.74943 0.69200 0.97301 2.11300
Cu	Cu	0.98580 0.07700 0.17240 0.82100
Cu	Cu	0.47230 0.93660 0.87950 0.85100
Cu	Cu	0.50000 0.00000 0.50000 0.83600
Cu	Cu	0.50000 0.50000 -0.00000 0.83500
