data_crystal

_cell_length_a 17.53110
_cell_length_b 17.53110
_cell_length_c 17.53110
_cell_angle_alpha 62.68840
_cell_angle_beta  62.68840
_cell_angle_gamma 62.68840

_symmetry_space_group_name_	'P 1'
_symmetry_space_group_name_H-M	'P 1'

loop_
_symmetry_equiv_pos_as_xyz
  x,y,z

loop_
_atom_site_label
_atom_site_type_symbol
_atom_site_fract_x
_atom_site_fract_y
_atom_site_fract_z
_atom_site_charge
Cu	Cu	0.92272 0.50064 0.50064 0.90700
Cu	Cu	0.50064 0.92272 0.50064 0.90700
Cu	Cu	0.50064 0.50064 0.92272 0.90700
Cu	Cu	0.49936 0.07728 0.49936 0.90700
Cu	Cu	0.07728 0.49936 0.49936 0.90700
Cu	Cu	0.49936 0.49936 0.07728 0.90700
H 	H 	0.00090 0.47500 0.77940 0.06100
H 	H 	0.77940 0.00090 0.47500 0.06100
H 	H 	0.47500 0.77940 0.00090 0.06100
H 	H 	0.52500 0.99910 0.22060 0.06100
H 	H 	0.99910 0.22060 0.52500 0.06100
H 	H 	0.22060 0.52500 0.99910 0.06100
H 	H 	0.99910 0.52500 0.22060 0.06100
H 	H 	0.22060 0.99910 0.52500 0.06100
H 	H 	0.52500 0.22060 0.99910 0.06100
H 	H 	0.47500 0.00090 0.77940 0.06100
H 	H 	0.00090 0.77940 0.47500 0.06100
H 	H 	0.77940 0.47500 0.00090 0.06100
H 	H 	0.77590 0.47130 0.77590 0.05300
H 	H 	0.77590 0.77590 0.47130 0.05300
H 	H 	0.47130 0.77590 0.77590 0.05300
H 	H 	0.52870 0.22410 0.22410 0.05300
H 	H 	0.22410 0.22410 0.52870 0.05300
H 	H 	0.22410 0.52870 0.22410 0.05300
C 	C 	0.93909 0.47699 0.66609 0.35600
C 	C 	0.89506 0.47246 0.76406 -0.07500
C 	C 	0.94007 0.47447 0.80947 -0.02600
C 	C 	0.66609 0.93909 0.47699 0.35600
C 	C 	0.76406 0.89506 0.47246 -0.07500
C 	C 	0.80947 0.94007 0.47447 -0.02600
C 	C 	0.47699 0.66609 0.93909 0.35600
C 	C 	0.47246 0.76406 0.89506 -0.07500
C 	C 	0.47447 0.80947 0.94007 -0.02600
C 	C 	0.52301 0.06091 0.33391 0.35600
C 	C 	0.52754 0.10494 0.23594 -0.07500
C 	C 	0.52553 0.05993 0.19053 -0.02600
C 	C 	0.06091 0.33391 0.52301 0.35600
C 	C 	0.10494 0.23594 0.52754 -0.07500
C 	C 	0.05993 0.19053 0.52553 -0.02600
C 	C 	0.33391 0.52301 0.06091 0.35600
C 	C 	0.23594 0.52754 0.10494 -0.07500
C 	C 	0.19053 0.52553 0.05993 -0.02600
C 	C 	0.06091 0.52301 0.33391 0.35600
C 	C 	0.10494 0.52754 0.23594 -0.07500
C 	C 	0.05993 0.52553 0.19053 -0.02600
C 	C 	0.33391 0.06091 0.52301 0.35600
C 	C 	0.23594 0.10494 0.52754 -0.07500
C 	C 	0.19053 0.05993 0.52553 -0.02600
C 	C 	0.52301 0.33391 0.06091 0.35600
C 	C 	0.52754 0.23594 0.10494 -0.07500
C 	C 	0.52553 0.19053 0.05993 -0.02600
C 	C 	0.47699 0.93909 0.66609 0.35600
C 	C 	0.47246 0.89506 0.76406 -0.07500
C 	C 	0.47447 0.94007 0.80947 -0.02600
C 	C 	0.93909 0.66609 0.47699 0.35600
C 	C 	0.89506 0.76406 0.47246 -0.07500
C 	C 	0.94007 0.80947 0.47447 -0.02600
C 	C 	0.66609 0.47699 0.93909 0.35600
C 	C 	0.76406 0.47246 0.89506 -0.07500
C 	C 	0.80947 0.47447 0.94007 -0.02600
C 	C 	0.80742 0.47192 0.80742 0.02400
C 	C 	0.89890 0.47580 0.89890 0.02000
C 	C 	0.94300 0.48330 0.94300 -0.01700
C 	C 	0.97890 0.49610 0.97890 0.00100
C 	C 	0.80742 0.80742 0.47192 0.02400
C 	C 	0.89890 0.89890 0.47580 0.02000
C 	C 	0.94300 0.94300 0.48330 -0.01700
C 	C 	0.97890 0.97890 0.49610 0.00100
C 	C 	0.47192 0.80742 0.80742 0.02400
C 	C 	0.47580 0.89890 0.89890 0.02000
C 	C 	0.48330 0.94300 0.94300 -0.01700
C 	C 	0.49610 0.97890 0.97890 0.00100
C 	C 	0.52808 0.19258 0.19258 0.02400
C 	C 	0.52420 0.10110 0.10110 0.02000
C 	C 	0.51670 0.05700 0.05700 -0.01700
C 	C 	0.50390 0.02110 0.02110 0.00100
C 	C 	0.19258 0.19258 0.52808 0.02400
C 	C 	0.10110 0.10110 0.52420 0.02000
C 	C 	0.05700 0.05700 0.51670 -0.01700
C 	C 	0.02110 0.02110 0.50390 0.00100
C 	C 	0.19258 0.52808 0.19258 0.02400
C 	C 	0.10110 0.52420 0.10110 0.02000
C 	C 	0.05700 0.51670 0.05700 -0.01700
C 	C 	0.02110 0.50390 0.02110 0.00100
O 	O 	0.01879 0.48054 0.62955 -0.39900
O 	O 	0.89188 0.47816 0.62915 -0.41100
O 	O 	0.62955 0.01879 0.48054 -0.39900
O 	O 	0.62915 0.89188 0.47816 -0.41100
O 	O 	0.48054 0.62955 0.01879 -0.39900
O 	O 	0.47816 0.62915 0.89188 -0.41100
O 	O 	0.51946 0.98121 0.37045 -0.39900
O 	O 	0.52184 0.10812 0.37085 -0.41100
O 	O 	0.98121 0.37045 0.51946 -0.39900
O 	O 	0.10812 0.37085 0.52184 -0.41100
O 	O 	0.37045 0.51946 0.98121 -0.39900
O 	O 	0.37085 0.52184 0.10812 -0.41100
O 	O 	0.98121 0.51946 0.37045 -0.39900
O 	O 	0.10812 0.52184 0.37085 -0.41100
O 	O 	0.37045 0.98121 0.51946 -0.39900
O 	O 	0.37085 0.10812 0.52184 -0.41100
O 	O 	0.51946 0.37045 0.98121 -0.39900
O 	O 	0.52184 0.37085 0.10812 -0.41100
O 	O 	0.48054 0.01879 0.62955 -0.39900
O 	O 	0.47816 0.89188 0.62915 -0.41100
O 	O 	0.01879 0.62955 0.48054 -0.39900
O 	O 	0.89188 0.62915 0.47816 -0.41100
O 	O 	0.62955 0.48054 0.01879 -0.39900
O 	O 	0.62915 0.47816 0.89188 -0.41100
