data_crystal

_cell_length_a 21.56450
_cell_length_b 21.56450
_cell_length_c 9.43790
_cell_angle_alpha 90.00000
_cell_angle_beta  90.00000
_cell_angle_gamma 120.00000

_symmetry_space_group_name_	'P 1'
_symmetry_space_group_name_H-M	'P 1'

loop_
_symmetry_equiv_pos_as_xyz
  x,y,z

loop_
_atom_site_label
_atom_site_type_symbol
_atom_site_fract_x
_atom_site_fract_y
_atom_site_fract_z
_atom_site_charge
H 	H 	0.91500 0.41670 0.10100 0.06800
C 	C 	0.96290 0.42600 0.08120 0.05600
O 	O 	0.07648 0.47305 0.38180 -0.45400
C 	C 	0.19836 0.46030 0.37390 -0.01400
H 	H 	0.17640 0.45990 0.28640 0.04600
H 	H 	0.58330 0.49830 0.10100 0.11300
C 	C 	0.57400 0.53690 0.08120 -0.09200
O 	O 	0.52695 0.60343 0.38180 -0.44500
C 	C 	0.53970 0.73806 0.37390 -0.00700
H 	H 	0.54010 0.71650 0.28640 0.05000
H 	H 	0.50170 0.08500 0.10100 0.10700
C 	C 	0.46310 0.03710 0.08120 -0.08500
O 	O 	0.39657 0.92352 0.38180 -0.42000
C 	C 	0.26194 0.80164 0.37390 -0.02000
H 	H 	0.28350 0.82360 0.28640 0.05300
H 	H 	0.08500 0.58330 0.10100 0.10800
C 	C 	0.03710 0.57400 0.08120 -0.08500
O 	O 	0.92352 0.52695 0.38180 -0.41800
C 	C 	0.80164 0.53970 0.37390 -0.01700
H 	H 	0.82360 0.54010 0.28640 0.05600
H 	H 	0.41670 0.50170 0.10100 0.11000
C 	C 	0.42600 0.46310 0.08120 -0.09300
O 	O 	0.47305 0.39657 0.38180 -0.44800
C 	C 	0.46030 0.26194 0.37390 -0.01600
H 	H 	0.45990 0.28350 0.28640 0.04600
H 	H 	0.49830 0.91500 0.10100 0.06800
C 	C 	0.53690 0.96290 0.08120 0.05500
O 	O 	0.60343 0.07648 0.38180 -0.45400
C 	C 	0.73806 0.19836 0.37390 -0.00800
H 	H 	0.71650 0.17640 0.28640 0.04600
H 	H 	0.41670 0.91500 0.89900 0.06700
C 	C 	0.42600 0.96290 0.91880 0.05500
O 	O 	0.47305 0.07648 0.61820 -0.45500
C 	C 	0.46030 0.19836 0.62610 -0.01500
H 	H 	0.45990 0.17640 0.71360 0.04500
H 	H 	0.49830 0.58330 0.89900 0.11200
C 	C 	0.53690 0.57400 0.91880 -0.09200
O 	O 	0.60343 0.52695 0.61820 -0.44500
C 	C 	0.73806 0.53970 0.62610 -0.00700
H 	H 	0.71650 0.54010 0.71360 0.05000
H 	H 	0.08500 0.50170 0.89900 0.10700
C 	C 	0.03710 0.46310 0.91880 -0.08500
O 	O 	0.92352 0.39657 0.61820 -0.42000
C 	C 	0.80164 0.26194 0.62610 -0.02000
H 	H 	0.82360 0.28350 0.71360 0.05300
H 	H 	0.58330 0.08500 0.89900 0.10800
C 	C 	0.57400 0.03710 0.91880 -0.08500
O 	O 	0.52695 0.92352 0.61820 -0.41800
C 	C 	0.53970 0.80164 0.62610 -0.01700
H 	H 	0.54010 0.82360 0.71360 0.05600
H 	H 	0.50170 0.41670 0.89900 0.11000
C 	C 	0.46310 0.42600 0.91880 -0.09300
O 	O 	0.39657 0.47305 0.61820 -0.44800
C 	C 	0.26194 0.46030 0.62610 -0.01600
H 	H 	0.28350 0.45990 0.71360 0.04600
H 	H 	0.91500 0.49830 0.89900 0.06800
C 	C 	0.96290 0.53690 0.91880 0.05500
O 	O 	0.07648 0.60343 0.61820 -0.45400
C 	C 	0.19836 0.73806 0.62610 -0.00800
H 	H 	0.17640 0.71650 0.71360 0.04600
H 	H 	0.08500 0.58330 0.89900 0.10800
C 	C 	0.03710 0.57400 0.91880 -0.08500
O 	O 	0.92352 0.52695 0.61820 -0.41800
C 	C 	0.80164 0.53970 0.62610 -0.01700
H 	H 	0.82360 0.54010 0.71360 0.05600
H 	H 	0.41670 0.50170 0.89900 0.11000
C 	C 	0.42600 0.46310 0.91880 -0.09300
O 	O 	0.47305 0.39657 0.61820 -0.44800
C 	C 	0.46030 0.26194 0.62610 -0.01600
H 	H 	0.45990 0.28350 0.71360 0.04600
H 	H 	0.49830 0.91500 0.89900 0.06800
C 	C 	0.53690 0.96290 0.91880 0.05500
O 	O 	0.60343 0.07648 0.61820 -0.45400
C 	C 	0.73806 0.19836 0.62610 -0.00800
H 	H 	0.71650 0.17640 0.71360 0.04600
H 	H 	0.91500 0.41670 0.89900 0.06700
C 	C 	0.96290 0.42600 0.91880 0.05500
O 	O 	0.07648 0.47305 0.61820 -0.45500
C 	C 	0.19836 0.46030 0.62610 -0.01500
H 	H 	0.17640 0.45990 0.71360 0.04500
H 	H 	0.58330 0.49830 0.89900 0.11200
C 	C 	0.57400 0.53690 0.91880 -0.09200
O 	O 	0.52695 0.60343 0.61820 -0.44500
C 	C 	0.53970 0.73806 0.62610 -0.00700
H 	H 	0.54010 0.71650 0.71360 0.05000
H 	H 	0.50170 0.08500 0.89900 0.10700
C 	C 	0.46310 0.03710 0.91880 -0.08500
O 	O 	0.39657 0.92352 0.61820 -0.42000
C 	C 	0.26194 0.80164 0.62610 -0.02000
H 	H 	0.28350 0.82360 0.71360 0.05300
H 	H 	0.58330 0.08500 0.10100 0.10800
C 	C 	0.57400 0.03710 0.08120 -0.08500
O 	O 	0.52695 0.92352 0.38180 -0.41800
C 	C 	0.53970 0.80164 0.37390 -0.01700
H 	H 	0.54010 0.82360 0.28640 0.05600
H 	H 	0.50170 0.41670 0.10100 0.11000
C 	C 	0.46310 0.42600 0.08120 -0.09300
O 	O 	0.39657 0.47305 0.38180 -0.44800
C 	C 	0.26194 0.46030 0.37390 -0.01600
H 	H 	0.28350 0.45990 0.28640 0.04600
H 	H 	0.91500 0.49830 0.10100 0.06800
C 	C 	0.96290 0.53690 0.08120 0.05500
O 	O 	0.07648 0.60343 0.38180 -0.45400
C 	C 	0.19836 0.73806 0.37390 -0.00800
H 	H 	0.17640 0.71650 0.28640 0.04600
H 	H 	0.41670 0.91500 0.10100 0.06700
C 	C 	0.42600 0.96290 0.08120 0.05500
O 	O 	0.47305 0.07648 0.38180 -0.45500
C 	C 	0.46030 0.19836 0.37390 -0.01500
H 	H 	0.45990 0.17640 0.28640 0.04500
H 	H 	0.49830 0.58330 0.10100 0.11200
C 	C 	0.53690 0.57400 0.08120 -0.09200
O 	O 	0.60343 0.52695 0.38180 -0.44500
C 	C 	0.73806 0.53970 0.37390 -0.00700
H 	H 	0.71650 0.54010 0.28640 0.05000
H 	H 	0.08500 0.50170 0.10100 0.10700
C 	C 	0.03710 0.46310 0.08120 -0.08500
O 	O 	0.92352 0.39657 0.38180 -0.42000
C 	C 	0.80164 0.26194 0.37390 -0.02000
H 	H 	0.82360 0.28350 0.28640 0.05300
C 	C 	0.92390 0.46195 0.08090 -0.10800
C 	C 	0.53805 0.46195 0.08090 -0.11100
C 	C 	0.53805 0.07610 0.08090 -0.10900
C 	C 	0.07610 0.53805 0.08090 -0.10900
C 	C 	0.46195 0.53805 0.08090 -0.11100
C 	C 	0.46195 0.92390 0.08090 -0.10800
C 	C 	0.46195 0.92390 0.91910 -0.10800
C 	C 	0.46195 0.53805 0.91910 -0.11100
C 	C 	0.07610 0.53805 0.91910 -0.10900
C 	C 	0.53805 0.07610 0.91910 -0.10900
C 	C 	0.53805 0.46195 0.91910 -0.11100
C 	C 	0.92390 0.46195 0.91910 -0.10800
Co	Co	-0.00000 0.50000 0.35855 1.12500
N 	N 	-0.00000 0.50000 0.13720 -0.19800
Co	Co	0.50000 0.50000 0.35855 1.14700
N 	N 	0.50000 0.50000 0.13720 -0.13400
Co	Co	0.50000 0.00000 0.35855 1.12500
N 	N 	0.50000 0.00000 0.13720 -0.19800
Co	Co	0.50000 0.00000 0.64145 1.12500
N 	N 	0.50000 0.00000 0.86280 -0.19800
Co	Co	0.50000 0.50000 0.64145 1.14700
N 	N 	0.50000 0.50000 0.86280 -0.13400
Co	Co	-0.00000 0.50000 0.64145 1.12500
N 	N 	-0.00000 0.50000 0.86280 -0.19800
H 	H 	-0.00000 0.41800 0.09700 0.01700
H 	H 	0.58200 0.58200 0.09700 0.11200
H 	H 	0.41800 0.00000 0.09700 0.01700
H 	H 	-0.00000 0.58200 0.09700 0.02000
H 	H 	0.41800 0.41800 0.09700 0.10600
H 	H 	0.58200 0.00000 0.09700 0.02000
H 	H 	0.41800 0.00000 0.90300 0.01700
H 	H 	0.58200 0.58200 0.90300 0.11200
H 	H 	0.00000 0.41800 0.90300 0.01700
H 	H 	0.58200 0.00000 0.90300 0.02000
H 	H 	0.41800 0.41800 0.90300 0.10600
H 	H 	0.00000 0.58200 0.90300 0.02000
C 	C 	0.10160 0.46900 0.50000 0.35800
C 	C 	0.16590 0.46080 0.50000 -0.08300
C 	C 	0.53100 0.63260 0.50000 0.36300
C 	C 	0.53920 0.70510 0.50000 -0.07800
C 	C 	0.36740 0.89840 0.50000 0.35400
C 	C 	0.29490 0.83410 0.50000 -0.06800
C 	C 	0.89840 0.53100 0.50000 0.35500
C 	C 	0.83410 0.53920 0.50000 -0.06500
C 	C 	0.46900 0.36740 0.50000 0.36000
C 	C 	0.46080 0.29490 0.50000 -0.08000
C 	C 	0.63260 0.10160 0.50000 0.36100
C 	C 	0.70510 0.16590 0.50000 -0.08300
C 	C 	0.46900 0.10160 0.50000 0.35800
C 	C 	0.46080 0.16590 0.50000 -0.08300
C 	C 	0.63260 0.53100 0.50000 0.36300
C 	C 	0.70510 0.53920 0.50000 -0.07800
C 	C 	0.89840 0.36740 0.50000 0.35400
C 	C 	0.83410 0.29490 0.50000 -0.06800
C 	C 	0.53100 0.89840 0.50000 0.35500
C 	C 	0.53920 0.83410 0.50000 -0.06500
C 	C 	0.36740 0.46900 0.50000 0.36000
C 	C 	0.29490 0.46080 0.50000 -0.08000
C 	C 	0.10160 0.63260 0.50000 0.36100
C 	C 	0.16590 0.70510 0.50000 -0.08300
