data_crystal

_cell_length_a 17.67260
_cell_length_b 20.02320
_cell_length_c 10.55530
_cell_angle_alpha 90.00000
_cell_angle_beta  91.12900
_cell_angle_gamma 90.00000

_symmetry_space_group_name_	'P 1'
_symmetry_space_group_name_H-M	'P 1'

loop_
_symmetry_equiv_pos_as_xyz
  x,y,z

loop_
_atom_site_label
_atom_site_type_symbol
_atom_site_fract_x
_atom_site_fract_y
_atom_site_fract_z
_atom_site_charge
Eu	Eu	0.49184 0.48190 0.75354 1.93100
Eu	Eu	0.00007 0.26563 0.32222 1.89700
O 	O 	0.40820 0.47200 0.91600 -0.56400
O 	O 	0.39980 0.49750 0.12030 -0.52000
O 	O 	0.10040 0.25800 0.96690 -0.51000
O 	O 	0.08000 0.29750 0.16120 -0.55100
O 	O 	0.56330 0.45220 0.58410 -0.56300
O 	O 	0.59670 0.46570 0.38470 -0.51600
O 	O 	0.92020 0.27560 0.48970 -0.55900
O 	O 	0.90640 0.28870 0.69770 -0.50700
O 	O 	0.47960 0.59900 0.83590 -0.28100
O 	O 	0.55310 0.58770 0.67840 -0.27000
O 	O 	0.54440 0.68370 0.77060 -0.14000
O 	O 	0.98460 0.14550 0.39650 -0.25500
O 	O 	0.05940 0.16150 0.24060 -0.27800
O 	O 	0.03090 0.06020 0.29750 -0.13600
N 	N 	0.52570 0.62500 0.76120 0.07000
N 	N 	0.02480 0.12060 0.31180 0.06400
C 	C 	0.11460 0.29610 0.05950 0.50100
C 	C 	0.17960 0.34380 0.04660 -0.12700
C 	C 	0.21700 0.35080 0.93290 -0.00100
H 	H 	0.19960 0.32670 0.86060 0.04300
C 	C 	0.27840 0.39180 0.92310 0.01200
H 	H 	0.30290 0.39640 0.84430 0.01200
C 	C 	0.30510 0.42700 0.02910 -0.13700
C 	C 	0.26760 0.42130 0.14160 0.00900
H 	H 	0.28500 0.44560 0.21370 0.03800
C 	C 	0.20490 0.38070 0.15040 0.00500
H 	H 	0.17880 0.37800 0.22810 0.02300
C 	C 	0.37570 0.46910 0.02100 0.50100
C 	C 	0.60750 0.44350 0.49410 0.51100
C 	C 	0.67780 0.40240 0.51820 -0.14400
C 	C 	0.71910 0.38010 0.41740 -0.00400
H 	H 	0.70260 0.38970 0.33320 0.03800
C 	C 	0.78470 0.34350 0.43860 0.00600
H 	H 	0.81260 0.32740 0.36890 0.00200
C 	C 	0.80960 0.33050 0.56090 -0.13600
C 	C 	0.76830 0.35220 0.66050 -0.00600
H 	H 	0.78510 0.34220 0.74440 0.04100
C 	C 	0.70260 0.38820 0.64190 0.00900
H 	H 	0.67450 0.40320 0.71230 0.01200
C 	C 	0.88460 0.29530 0.58520 0.48000
Eu	Eu	0.50816 0.98190 0.74646 1.92900
Eu	Eu	0.99993 0.76563 0.17778 1.89200
O 	O 	0.59180 0.97200 0.58400 -0.56400
O 	O 	0.60020 0.99750 0.37970 -0.52000
O 	O 	0.89960 0.75800 0.53310 -0.51000
O 	O 	0.92000 0.79750 0.33880 -0.55000
O 	O 	0.43670 0.95220 0.91590 -0.56600
O 	O 	0.40330 0.96570 0.11530 -0.51600
O 	O 	0.07980 0.77560 0.01030 -0.55500
O 	O 	0.09360 0.78870 0.80230 -0.50700
O 	O 	0.52040 0.09900 0.66410 -0.28000
O 	O 	0.44690 0.08770 0.82160 -0.27000
O 	O 	0.45560 0.18370 0.72940 -0.13900
O 	O 	0.01540 0.64550 0.10350 -0.25600
O 	O 	0.94060 0.66150 0.25940 -0.27700
O 	O 	0.96910 0.56020 0.20250 -0.13500
N 	N 	0.47430 0.12500 0.73880 0.07000
N 	N 	0.97520 0.62060 0.18820 0.06500
C 	C 	0.88540 0.79610 0.44050 0.50100
C 	C 	0.82040 0.84380 0.45340 -0.12700
C 	C 	0.78300 0.85080 0.56710 -0.00000
H 	H 	0.80040 0.82670 0.63940 0.04300
C 	C 	0.72160 0.89180 0.57690 0.01200
H 	H 	0.69710 0.89640 0.65570 0.01100
C 	C 	0.69490 0.92700 0.47090 -0.13700
C 	C 	0.73240 0.92130 0.35840 0.00800
H 	H 	0.71500 0.94560 0.28630 0.03800
C 	C 	0.79510 0.88070 0.34960 0.00500
H 	H 	0.82120 0.87800 0.27190 0.02300
C 	C 	0.62430 0.96910 0.47900 0.50100
C 	C 	0.39250 0.94350 0.00590 0.51700
C 	C 	0.32220 0.90240 0.98180 -0.15100
C 	C 	0.28090 0.88010 0.08260 0.00200
H 	H 	0.29740 0.88970 0.16680 0.03700
C 	C 	0.21530 0.84350 0.06140 0.00600
H 	H 	0.18740 0.82740 0.13110 0.00300
C 	C 	0.19040 0.83050 0.93910 -0.13600
C 	C 	0.23170 0.85220 0.83950 -0.00800
H 	H 	0.21490 0.84220 0.75560 0.04200
C 	C 	0.29740 0.88820 0.85810 0.01200
H 	H 	0.32550 0.90320 0.78770 0.01100
C 	C 	0.11540 0.79530 0.91480 0.47700
Eu	Eu	0.50816 0.51810 0.24646 1.93000
Eu	Eu	0.99993 0.73437 0.67778 1.89600
O 	O 	0.59180 0.52800 0.08400 -0.56400
O 	O 	0.60020 0.50250 0.87970 -0.52000
O 	O 	0.89960 0.74200 0.03310 -0.51000
O 	O 	0.92000 0.70250 0.83880 -0.55100
O 	O 	0.43670 0.54780 0.41590 -0.56300
O 	O 	0.40330 0.53430 0.61530 -0.51600
O 	O 	0.07980 0.72440 0.51030 -0.55900
O 	O 	0.09360 0.71130 0.30230 -0.50700
O 	O 	0.52040 0.40100 0.16410 -0.28100
O 	O 	0.44690 0.41230 0.32160 -0.27000
O 	O 	0.45560 0.31630 0.22940 -0.14000
O 	O 	0.01540 0.85450 0.60350 -0.25500
O 	O 	0.94060 0.83850 0.75940 -0.27800
O 	O 	0.96910 0.93980 0.70250 -0.13600
N 	N 	0.47430 0.37500 0.23880 0.07000
N 	N 	0.97520 0.87940 0.68820 0.06400
C 	C 	0.88540 0.70390 0.94050 0.50100
C 	C 	0.82040 0.65620 0.95340 -0.12700
C 	C 	0.78300 0.64920 0.06710 -0.00100
H 	H 	0.80040 0.67330 0.13940 0.04300
C 	C 	0.72160 0.60820 0.07690 0.01200
H 	H 	0.69710 0.60360 0.15570 0.01200
C 	C 	0.69490 0.57300 0.97090 -0.13700
C 	C 	0.73240 0.57870 0.85840 0.00900
H 	H 	0.71500 0.55440 0.78630 0.03800
C 	C 	0.79510 0.61930 0.84960 0.00500
H 	H 	0.82120 0.62200 0.77190 0.02300
C 	C 	0.62430 0.53090 0.97900 0.50100
C 	C 	0.39250 0.55650 0.50590 0.51100
C 	C 	0.32220 0.59760 0.48180 -0.14400
C 	C 	0.28090 0.61990 0.58260 -0.00400
H 	H 	0.29740 0.61030 0.66680 0.03800
C 	C 	0.21530 0.65650 0.56140 0.00600
H 	H 	0.18740 0.67260 0.63110 0.00200
C 	C 	0.19040 0.66950 0.43910 -0.13600
C 	C 	0.23170 0.64780 0.33950 -0.00600
H 	H 	0.21490 0.65780 0.25560 0.04100
C 	C 	0.29740 0.61180 0.35810 0.00900
H 	H 	0.32550 0.59680 0.28770 0.01200
C 	C 	0.11540 0.70470 0.41480 0.48000
Eu	Eu	0.49184 0.01810 0.25354 1.92900
Eu	Eu	0.00007 0.23437 0.82222 1.89200
O 	O 	0.40820 0.02800 0.41600 -0.56400
O 	O 	0.39980 0.00250 0.62030 -0.52000
O 	O 	0.10040 0.24200 0.46690 -0.51000
O 	O 	0.08000 0.20250 0.66120 -0.55000
O 	O 	0.56330 0.04780 0.08410 -0.56600
O 	O 	0.59670 0.03430 0.88470 -0.51600
O 	O 	0.92020 0.22440 0.98970 -0.55500
O 	O 	0.90640 0.21130 0.19770 -0.50700
O 	O 	0.47960 0.90100 0.33590 -0.28000
O 	O 	0.55310 0.91230 0.17840 -0.27000
O 	O 	0.54440 0.81630 0.27060 -0.13900
O 	O 	0.98460 0.35450 0.89650 -0.25600
O 	O 	0.05940 0.33850 0.74060 -0.27700
O 	O 	0.03090 0.43980 0.79750 -0.13500
N 	N 	0.52570 0.87500 0.26120 0.07000
N 	N 	0.02480 0.37940 0.81180 0.06500
C 	C 	0.11460 0.20390 0.55950 0.50100
C 	C 	0.17960 0.15620 0.54660 -0.12700
C 	C 	0.21700 0.14920 0.43290 -0.00000
H 	H 	0.19960 0.17330 0.36060 0.04300
C 	C 	0.27840 0.10820 0.42310 0.01200
H 	H 	0.30290 0.10360 0.34430 0.01100
C 	C 	0.30510 0.07300 0.52910 -0.13700
C 	C 	0.26760 0.07870 0.64160 0.00800
H 	H 	0.28500 0.05440 0.71370 0.03800
C 	C 	0.20490 0.11930 0.65040 0.00500
H 	H 	0.17880 0.12200 0.72810 0.02300
C 	C 	0.37570 0.03090 0.52100 0.50100
C 	C 	0.60750 0.05650 0.99410 0.51700
C 	C 	0.67780 0.09760 0.01820 -0.15100
C 	C 	0.71910 0.11990 0.91740 0.00200
H 	H 	0.70260 0.11030 0.83320 0.03700
C 	C 	0.78470 0.15650 0.93860 0.00600
H 	H 	0.81260 0.17260 0.86890 0.00300
C 	C 	0.80960 0.16950 0.06090 -0.13600
C 	C 	0.76830 0.14780 0.16050 -0.00800
H 	H 	0.78510 0.15780 0.24440 0.04200
C 	C 	0.70260 0.11180 0.14190 0.01200
H 	H 	0.67450 0.09680 0.21230 0.01100
C 	C 	0.88460 0.20470 0.08520 0.47700
