data_crystal

_cell_length_a 13.49850
_cell_length_b 13.49850
_cell_length_c 18.12000
_cell_angle_alpha 90.00000
_cell_angle_beta  90.00000
_cell_angle_gamma 120.00000

_symmetry_space_group_name_	'P 1'
_symmetry_space_group_name_H-M	'P 1'

loop_
_symmetry_equiv_pos_as_xyz
  x,y,z

loop_
_atom_site_label
_atom_site_type_symbol
_atom_site_fract_x
_atom_site_fract_y
_atom_site_fract_z
_atom_site_charge
H 	H 	0.25000 0.25900 0.00200 0.10600
H 	H 	0.25400 0.38000 0.03800 -0.04700
V 	V 	0.29214 0.43297 0.95846 1.80900
P 	P 	0.16065 0.18634 0.87084 0.59500
H 	H 	0.22900 0.19300 0.84710 -0.13000
P 	P 	0.50385 0.63115 0.05342 0.59100
O 	O 	0.13470 0.10830 0.93808 -0.51200
O 	O 	0.06640 0.14080 0.81289 -0.53900
O 	O 	0.38030 0.54680 0.03508 -0.49300
O 	O 	0.18900 0.30690 0.89239 -0.47000
O 	O 	0.32680 0.55170 0.88225 -0.45700
O 	O 	0.57110 0.57340 0.07552 -0.47600
O 	O 	0.56500 0.71710 0.99164 -0.43600
O 	O 	0.25600 0.31090 0.04097 -0.35000
O 	O 	0.50080 0.69740 0.12150 -0.43900
H 	H 	0.44280 0.65700 0.14550 0.29600
H 	H 	0.74100 0.99100 0.00200 0.16400
H 	H 	0.62000 0.87400 0.03800 -0.04000
V 	V 	0.56703 0.85917 0.95846 1.82800
P 	P 	0.81366 0.97431 0.87084 0.88100
H 	H 	0.80700 0.03600 0.84710 -0.26600
P 	P 	0.36885 0.87270 0.05342 0.60400
O 	O 	0.89170 0.02640 0.93808 -0.52400
O 	O 	0.85920 0.92560 0.81289 -0.39800
O 	O 	0.45320 0.83350 0.03508 -0.47100
O 	O 	0.69310 0.88210 0.89239 -0.46100
O 	O 	0.44830 0.77510 0.88225 -0.42600
O 	O 	0.42660 0.99770 0.07552 -0.37700
O 	O 	0.28290 0.84790 0.99164 -0.40900
O 	O 	0.68910 0.94510 0.04097 -0.31300
O 	O 	0.30260 0.80340 0.12150 -0.44700
H 	H 	0.34300 0.78580 0.14550 0.30400
H 	H 	0.00900 0.75000 0.00200 0.06500
H 	H 	0.12600 0.74600 0.03800 -0.04200
V 	V 	0.14083 0.70786 0.95846 1.78700
P 	P 	0.02569 0.83935 0.87084 0.27200
H 	H 	0.96400 0.77100 0.84710 0.06500
P 	P 	0.12730 0.49615 0.05342 0.58900
O 	O 	0.97360 0.86530 0.93808 -0.25900
O 	O 	0.07440 0.93360 0.81289 -0.36100
O 	O 	0.16650 0.61970 0.03508 -0.51100
O 	O 	0.11790 0.81100 0.89239 -0.40700
O 	O 	0.22490 0.67320 0.88225 -0.47000
O 	O 	0.00230 0.42890 0.07552 -0.56600
O 	O 	0.15210 0.43500 0.99164 -0.47400
O 	O 	0.05490 0.74400 0.04097 -0.37600
O 	O 	0.19660 0.49920 0.12150 -0.45400
H 	H 	0.21420 0.55720 0.14550 0.29200
H 	H 	0.25900 0.25000 0.49800 0.12900
H 	H 	0.38000 0.25400 0.46200 -0.03000
V 	V 	0.43297 0.29214 0.54154 1.79700
P 	P 	0.18634 0.16065 0.62916 0.59600
H 	H 	0.19300 0.22900 0.65290 -0.13100
P 	P 	0.63115 0.50385 0.44658 0.62200
O 	O 	0.10830 0.13470 0.56192 -0.53400
O 	O 	0.14080 0.06640 0.68711 -0.53800
O 	O 	0.54680 0.38030 0.46492 -0.47800
O 	O 	0.30690 0.18900 0.60761 -0.47700
O 	O 	0.55170 0.32680 0.61775 -0.46100
O 	O 	0.57340 0.57110 0.42448 -0.46800
O 	O 	0.71710 0.56500 0.50836 -0.47000
O 	O 	0.31090 0.25600 0.45903 -0.35200
O 	O 	0.69740 0.50080 0.37850 -0.44200
H 	H 	0.65700 0.44280 0.35450 0.29700
H 	H 	0.99100 0.74100 0.49800 0.18100
H 	H 	0.87400 0.62000 0.46200 -0.02500
V 	V 	0.85917 0.56703 0.54154 1.81900
P 	P 	0.97431 0.81366 0.62916 0.89800
H 	H 	0.03600 0.80700 0.65290 -0.27700
P 	P 	0.87270 0.36885 0.44658 0.62800
O 	O 	0.02640 0.89170 0.56192 -0.55400
O 	O 	0.92560 0.85920 0.68711 -0.40000
O 	O 	0.83350 0.45320 0.46492 -0.45900
O 	O 	0.88210 0.69310 0.60761 -0.46800
O 	O 	0.77510 0.44830 0.61775 -0.42800
O 	O 	0.99770 0.42660 0.42448 -0.37700
O 	O 	0.84790 0.28290 0.50836 -0.43600
O 	O 	0.94510 0.68910 0.45903 -0.31900
O 	O 	0.80340 0.30260 0.37850 -0.45000
H 	H 	0.78580 0.34300 0.35450 0.30400
H 	H 	0.75000 0.00900 0.49800 0.07700
H 	H 	0.74600 0.12600 0.46200 -0.03000
V 	V 	0.70786 0.14083 0.54154 1.77700
P 	P 	0.83935 0.02569 0.62916 0.28000
H 	H 	0.77100 0.96400 0.65290 0.05900
P 	P 	0.49615 0.12730 0.44658 0.61900
O 	O 	0.86530 0.97360 0.56192 -0.27700
O 	O 	0.93360 0.07440 0.68711 -0.35800
O 	O 	0.61970 0.16650 0.46492 -0.50000
O 	O 	0.81100 0.11790 0.60761 -0.41100
O 	O 	0.67320 0.22490 0.61775 -0.47300
O 	O 	0.42890 0.00230 0.42448 -0.56500
O 	O 	0.43500 0.15210 0.50836 -0.50800
O 	O 	0.74400 0.05490 0.45903 -0.38000
O 	O 	0.49920 0.19660 0.37850 -0.45700
H 	H 	0.55720 0.21420 0.35450 0.29200
H 	H 	0.75000 0.74100 0.99800 0.15000
H 	H 	0.74600 0.62000 0.96200 -0.00900
V 	V 	0.70786 0.56703 0.04154 1.78500
P 	P 	0.83935 0.81366 0.12916 0.58700
H 	H 	0.77100 0.80700 0.15290 -0.10300
P 	P 	0.49615 0.36885 0.94658 0.66000
O 	O 	0.86530 0.89170 0.06192 -0.39900
O 	O 	0.93360 0.85920 0.18711 -0.33600
O 	O 	0.61970 0.45320 0.96492 -0.46300
O 	O 	0.81100 0.69310 0.10761 -0.43700
O 	O 	0.67320 0.44830 0.11775 -0.45300
O 	O 	0.42890 0.42660 0.92448 -0.46200
O 	O 	0.43500 0.28290 0.00836 -0.51300
O 	O 	0.74400 0.68910 0.95903 -0.34900
O 	O 	0.49920 0.30260 0.87850 -0.46000
H 	H 	0.55720 0.34300 0.85450 0.29900
H 	H 	0.25900 0.00900 0.99800 0.09500
H 	H 	0.38000 0.12600 0.96200 -0.01300
V 	V 	0.43297 0.14083 0.04154 1.75900
P 	P 	0.18634 0.02569 0.12916 0.21600
H 	H 	0.19300 0.96400 0.15290 0.08300
P 	P 	0.63115 0.12730 0.94658 0.65700
O 	O 	0.10830 0.97360 0.06192 -0.32800
O 	O 	0.14080 0.07440 0.18711 -0.46400
O 	O 	0.54680 0.16650 0.96492 -0.48200
O 	O 	0.30690 0.11790 0.10761 -0.43800
O 	O 	0.55170 0.22490 0.11775 -0.48800
O 	O 	0.57340 0.00230 0.92448 -0.54900
O 	O 	0.71710 0.15210 0.00836 -0.55200
O 	O 	0.31090 0.05490 0.95903 -0.38400
O 	O 	0.69740 0.19660 0.87850 -0.45000
H 	H 	0.65700 0.21420 0.85450 0.29200
H 	H 	0.99100 0.25000 0.99800 0.21200
H 	H 	0.87400 0.25400 0.96200 -0.00600
V 	V 	0.85917 0.29214 0.04154 1.80200
P 	P 	0.97431 0.16065 0.12916 0.92800
H 	H 	0.03600 0.22900 0.15290 -0.30700
P 	P 	0.87270 0.50385 0.94658 0.66200
O 	O 	0.02640 0.13470 0.06192 -0.66400
O 	O 	0.92560 0.06640 0.18711 -0.50000
O 	O 	0.83350 0.38030 0.96492 -0.44000
O 	O 	0.88210 0.18900 0.10761 -0.50400
O 	O 	0.77510 0.32680 0.11775 -0.44200
O 	O 	0.99770 0.57110 0.92448 -0.37000
O 	O 	0.84790 0.56500 0.00836 -0.47800
O 	O 	0.94510 0.25600 0.95903 -0.32000
O 	O 	0.80340 0.50080 0.87850 -0.44500
H 	H 	0.78580 0.44280 0.85450 0.30400
H 	H 	0.74100 0.75000 0.50200 0.13100
H 	H 	0.62000 0.74600 0.53800 -0.02600
V 	V 	0.56703 0.70786 0.45846 1.79800
P 	P 	0.81366 0.83935 0.37084 0.58800
H 	H 	0.80700 0.77100 0.34710 -0.10300
P 	P 	0.36885 0.49615 0.55342 0.62500
O 	O 	0.89170 0.86530 0.43808 -0.38400
O 	O 	0.85920 0.93360 0.31289 -0.33300
O 	O 	0.45320 0.61970 0.53508 -0.48000
O 	O 	0.69310 0.81100 0.39239 -0.42800
O 	O 	0.44830 0.67320 0.38225 -0.44700
O 	O 	0.42660 0.42890 0.57552 -0.46900
O 	O 	0.28290 0.43500 0.49164 -0.47300
O 	O 	0.68910 0.74400 0.54097 -0.34700
O 	O 	0.30260 0.49920 0.62150 -0.45700
H 	H 	0.34300 0.55720 0.64550 0.29800
H 	H 	0.00900 0.25900 0.50200 0.07300
H 	H 	0.12600 0.38000 0.53800 -0.03200
V 	V 	0.14083 0.43297 0.45846 1.77600
P 	P 	0.02569 0.18634 0.37084 0.25100
H 	H 	0.96400 0.19300 0.34710 0.06400
P 	P 	0.12730 0.63115 0.55342 0.61800
O 	O 	0.97360 0.10830 0.43808 -0.33300
O 	O 	0.07440 0.14080 0.31289 -0.46800
O 	O 	0.16650 0.54680 0.53508 -0.49900
O 	O 	0.11790 0.30690 0.39239 -0.43300
O 	O 	0.22490 0.55170 0.38225 -0.48000
O 	O 	0.00230 0.57340 0.57552 -0.55900
O 	O 	0.15210 0.71710 0.49164 -0.50300
O 	O 	0.05490 0.31090 0.54097 -0.38400
O 	O 	0.19660 0.69740 0.62150 -0.44800
H 	H 	0.21420 0.65700 0.64550 0.29100
H 	H 	0.25000 0.99100 0.50200 0.18900
H 	H 	0.25400 0.87400 0.53800 -0.02600
V 	V 	0.29214 0.85917 0.45846 1.82000
P 	P 	0.16065 0.97431 0.37084 0.96000
H 	H 	0.22900 0.03600 0.34710 -0.32300
P 	P 	0.50385 0.87270 0.55342 0.62700
O 	O 	0.13470 0.02640 0.43808 -0.65800
O 	O 	0.06640 0.92560 0.31289 -0.49400
O 	O 	0.38030 0.83350 0.53508 -0.45700
O 	O 	0.18900 0.88210 0.39239 -0.49500
O 	O 	0.32680 0.77510 0.38225 -0.43300
O 	O 	0.57110 0.99770 0.57552 -0.37700
O 	O 	0.56500 0.84790 0.49164 -0.43600
O 	O 	0.25600 0.94510 0.54097 -0.31800
O 	O 	0.50080 0.80340 0.62150 -0.44300
H 	H 	0.44280 0.78580 0.64550 0.30300
V 	V 	-0.00000 0.00000 -0.00000 1.65700
V 	V 	-0.00000 0.00000 0.50000 1.67700
V 	V 	-0.00000 0.00000 0.75000 1.67700
V 	V 	-0.00000 0.00000 0.25000 1.67500
P 	P 	0.33333 0.66667 0.86158 0.57300
H 	H 	0.33333 0.66667 0.80750 -0.10200
P 	P 	0.66667 0.33333 0.63842 0.56900
H 	H 	0.66667 0.33333 0.69250 -0.10000
P 	P 	0.66667 0.33333 0.13842 0.56500
H 	H 	0.66667 0.33333 0.19250 -0.09900
P 	P 	0.33333 0.66667 0.36158 0.56900
H 	H 	0.33333 0.66667 0.30750 -0.09900
