data_crystal

_cell_length_a 14.43170
_cell_length_b 17.56150
_cell_length_c 7.48640
_cell_angle_alpha 90.00000
_cell_angle_beta  90.00000
_cell_angle_gamma 90.00000

_symmetry_space_group_name_	'P 1'
_symmetry_space_group_name_H-M	'P 1'

loop_
_symmetry_equiv_pos_as_xyz
  x,y,z

loop_
_atom_site_label
_atom_site_type_symbol
_atom_site_fract_x
_atom_site_fract_y
_atom_site_fract_z
_atom_site_charge
N 	N 	0.14434 0.77077 0.28600 -0.28200
C 	C 	0.10339 0.77530 0.16840 0.13000
N 	N 	0.64434 0.27077 0.28600 -0.28100
C 	C 	0.60339 0.27530 0.16840 0.13200
N 	N 	0.85566 0.22923 0.28600 -0.28100
C 	C 	0.89661 0.22470 0.16840 0.13300
N 	N 	0.35566 0.72923 0.28600 -0.28200
C 	C 	0.39661 0.72470 0.16840 0.13100
N 	N 	0.85566 0.77077 0.71400 -0.27900
C 	C 	0.89661 0.77530 0.83160 0.09400
N 	N 	0.35566 0.27077 0.71400 -0.27800
C 	C 	0.39661 0.27530 0.83160 0.09600
N 	N 	0.14434 0.22923 0.71400 -0.27800
C 	C 	0.10339 0.22470 0.83160 0.09700
N 	N 	0.64434 0.72923 0.71400 -0.27900
C 	C 	0.60339 0.72470 0.83160 0.09400
N 	N 	0.85566 0.22923 0.71400 -0.27800
C 	C 	0.89661 0.22470 0.83160 0.09700
N 	N 	0.35566 0.72923 0.71400 -0.27900
C 	C 	0.39661 0.72470 0.83160 0.09400
N 	N 	0.14434 0.77077 0.71400 -0.27900
C 	C 	0.10339 0.77530 0.83160 0.09400
N 	N 	0.64434 0.27077 0.71400 -0.27800
C 	C 	0.60339 0.27530 0.83160 0.09600
N 	N 	0.14434 0.22923 0.28600 -0.28200
C 	C 	0.10339 0.22470 0.16840 0.13200
N 	N 	0.64434 0.72923 0.28600 -0.28300
C 	C 	0.60339 0.72470 0.16840 0.13000
N 	N 	0.85566 0.77077 0.28600 -0.28300
C 	C 	0.89661 0.77530 0.16840 0.12900
N 	N 	0.35566 0.27077 0.28600 -0.28200
C 	C 	0.39661 0.27530 0.16840 0.13100
Mn	Mn	0.25000 0.75000 0.50000 1.24700
Mn	Mn	0.75000 0.25000 0.50000 1.24800
Mn	Mn	0.75000 0.75000 0.50000 1.24700
Mn	Mn	0.25000 0.25000 0.50000 1.24800
C 	C 	0.05127 0.77448 -0.00000 -0.07200
C 	C 	0.55127 0.27448 -0.00000 -0.07100
C 	C 	0.94873 0.22552 -0.00000 -0.07100
C 	C 	0.44873 0.72552 -0.00000 -0.07200
C 	C 	0.94873 0.77448 -0.00000 -0.07200
C 	C 	0.44873 0.27448 -0.00000 -0.07100
C 	C 	0.05127 0.22552 -0.00000 -0.07100
C 	C 	0.55127 0.72552 -0.00000 -0.07200
N 	N 	0.28466 0.87251 0.50000 -0.28600
C 	C 	0.31845 0.92860 0.50000 0.12000
N 	N 	0.78466 0.37251 0.50000 -0.29000
C 	C 	0.81845 0.42860 0.50000 0.14200
N 	N 	0.71534 0.12749 0.50000 -0.28700
C 	C 	0.68155 0.07140 0.50000 0.14000
N 	N 	0.21534 0.62749 0.50000 -0.29000
C 	C 	0.18155 0.57140 0.50000 0.14200
N 	N 	0.71534 0.87251 0.50000 -0.28600
C 	C 	0.68155 0.92860 0.50000 0.12000
N 	N 	0.21534 0.37251 0.50000 -0.29000
C 	C 	0.18155 0.42860 0.50000 0.14200
N 	N 	0.28466 0.12749 0.50000 -0.28700
C 	C 	0.31845 0.07140 0.50000 0.14000
N 	N 	0.78466 0.62749 0.50000 -0.29000
C 	C 	0.81845 0.57140 0.50000 0.14200
C 	C 	0.36280 0.00000 0.50000 -0.12100
C 	C 	0.86280 0.50000 0.50000 -0.14200
C 	C 	0.63720 0.00000 0.50000 -0.12100
C 	C 	0.13720 0.50000 0.50000 -0.14200
