data_crystal

_cell_length_a 20.51380
_cell_length_b 20.51380
_cell_length_c 17.81000
_cell_angle_alpha 90.00000
_cell_angle_beta  90.00000
_cell_angle_gamma 90.00000

_symmetry_space_group_name_	'P 1'
_symmetry_space_group_name_H-M	'P 1'

loop_
_symmetry_equiv_pos_as_xyz
  x,y,z

loop_
_atom_site_label
_atom_site_type_symbol
_atom_site_fract_x
_atom_site_fract_y
_atom_site_fract_z
_atom_site_charge
Zn	Zn	0.25748 0.11945 0.33239 1.15900
O 	O 	0.23520 0.12950 0.22690 -0.51600
O 	O 	0.31290 0.05620 0.21420 -0.57400
O 	O 	0.33707 0.94511 0.96920 -0.52200
O 	O 	0.25740 0.96530 0.88430 -0.57000
O 	O 	0.17330 0.19184 0.88438 -0.47300
O 	O 	0.16030 0.24205 0.99391 -0.46400
C 	C 	0.27130 0.09310 0.18730 0.36200
C 	C 	0.26070 0.09320 0.10400 -0.11800
C 	C 	0.28360 0.04054 0.06210 0.03000
H 	H 	0.30740 0.00770 0.08540 0.02800
C 	C 	0.27090 0.03711 0.98520 -0.10800
C 	C 	0.23740 0.08750 0.95130 0.05300
H 	H 	0.22890 0.08550 0.90010 0.03600
C 	C 	0.21600 0.14120 0.99210 -0.10500
C 	C 	0.22670 0.14340 0.06920 0.03000
H 	H 	0.21130 0.17830 0.09740 0.03800
C 	C 	0.29140 0.97810 0.94240 0.36400
C 	C 	0.18110 0.19650 0.95450 0.39100
Zn	Zn	0.34320 0.08059 0.30964 1.12900
Zn	Zn	0.75748 0.61945 0.83239 1.15900
O 	O 	0.73520 0.62950 0.72690 -0.51700
O 	O 	0.81290 0.55620 0.71420 -0.57600
O 	O 	0.83707 0.44511 0.46920 -0.53000
O 	O 	0.75740 0.46530 0.38430 -0.57500
O 	O 	0.67330 0.69184 0.38438 -0.47800
O 	O 	0.66030 0.74205 0.49391 -0.47300
C 	C 	0.77130 0.59310 0.68730 0.37500
C 	C 	0.76070 0.59320 0.60400 -0.15100
C 	C 	0.78360 0.54054 0.56210 0.08700
H 	H 	0.80740 0.50770 0.58540 0.01400
C 	C 	0.77090 0.53711 0.48520 -0.15800
C 	C 	0.73740 0.58750 0.45130 0.09200
H 	H 	0.72890 0.58550 0.40010 0.02100
C 	C 	0.71600 0.64120 0.49210 -0.15500
C 	C 	0.72670 0.64340 0.56920 0.08900
H 	H 	0.71130 0.67830 0.59740 0.02400
C 	C 	0.79140 0.47810 0.44240 0.38000
C 	C 	0.68110 0.69650 0.45450 0.40600
Zn	Zn	0.84320 0.58059 0.80964 1.12900
Zn	Zn	0.74252 0.88055 0.33239 1.15900
O 	O 	0.76480 0.87050 0.22690 -0.51600
O 	O 	0.68710 0.94380 0.21420 -0.57400
O 	O 	0.66293 0.05489 0.96920 -0.52200
O 	O 	0.74260 0.03470 0.88430 -0.57000
O 	O 	0.82670 0.80816 0.88438 -0.47300
O 	O 	0.83970 0.75795 0.99391 -0.46400
C 	C 	0.72870 0.90690 0.18730 0.36200
C 	C 	0.73930 0.90680 0.10400 -0.11800
C 	C 	0.71640 0.95946 0.06210 0.03000
H 	H 	0.69260 0.99230 0.08540 0.02800
C 	C 	0.72910 0.96289 0.98520 -0.10800
C 	C 	0.76260 0.91250 0.95130 0.05300
H 	H 	0.77110 0.91450 0.90010 0.03600
C 	C 	0.78400 0.85880 0.99210 -0.10500
C 	C 	0.77330 0.85660 0.06920 0.03000
H 	H 	0.78870 0.82170 0.09740 0.03800
C 	C 	0.70860 0.02190 0.94240 0.36400
C 	C 	0.81890 0.80350 0.95450 0.39100
Zn	Zn	0.65680 0.91941 0.30964 1.12900
Zn	Zn	0.24252 0.38055 0.83239 1.15900
O 	O 	0.26480 0.37050 0.72690 -0.51700
O 	O 	0.18710 0.44380 0.71420 -0.57600
O 	O 	0.16293 0.55489 0.46920 -0.53000
O 	O 	0.24260 0.53470 0.38430 -0.57500
O 	O 	0.32670 0.30816 0.38438 -0.47800
O 	O 	0.33970 0.25795 0.49391 -0.47300
C 	C 	0.22870 0.40690 0.68730 0.37500
C 	C 	0.23930 0.40680 0.60400 -0.15100
C 	C 	0.21640 0.45946 0.56210 0.08700
H 	H 	0.19260 0.49230 0.58540 0.01400
C 	C 	0.22910 0.46289 0.48520 -0.15800
C 	C 	0.26260 0.41250 0.45130 0.09200
H 	H 	0.27110 0.41450 0.40010 0.02100
C 	C 	0.28400 0.35880 0.49210 -0.15500
C 	C 	0.27330 0.35660 0.56920 0.08900
H 	H 	0.28870 0.32170 0.59740 0.02400
C 	C 	0.20860 0.52190 0.44240 0.38000
C 	C 	0.31890 0.30350 0.45450 0.40600
Zn	Zn	0.15680 0.41941 0.80964 1.12900
Zn	Zn	0.88055 0.25748 0.33239 1.15900
O 	O 	0.87050 0.23520 0.22690 -0.51600
O 	O 	0.94380 0.31290 0.21420 -0.57400
O 	O 	0.05489 0.33707 0.96920 -0.52200
O 	O 	0.03470 0.25740 0.88430 -0.57000
O 	O 	0.80816 0.17330 0.88438 -0.47300
O 	O 	0.75795 0.16030 0.99391 -0.46400
C 	C 	0.90690 0.27130 0.18730 0.36200
C 	C 	0.90680 0.26070 0.10400 -0.11800
C 	C 	0.95946 0.28360 0.06210 0.03000
H 	H 	0.99230 0.30740 0.08540 0.02800
C 	C 	0.96289 0.27090 0.98520 -0.10800
C 	C 	0.91250 0.23740 0.95130 0.05300
H 	H 	0.91450 0.22890 0.90010 0.03600
C 	C 	0.85880 0.21600 0.99210 -0.10500
C 	C 	0.85660 0.22670 0.06920 0.03000
H 	H 	0.82170 0.21130 0.09740 0.03800
C 	C 	0.02190 0.29140 0.94240 0.36400
C 	C 	0.80350 0.18110 0.95450 0.39100
Zn	Zn	0.91941 0.34320 0.30964 1.12900
Zn	Zn	0.38055 0.75748 0.83239 1.15900
O 	O 	0.37050 0.73520 0.72690 -0.51700
O 	O 	0.44380 0.81290 0.71420 -0.57600
O 	O 	0.55489 0.83707 0.46920 -0.53000
O 	O 	0.53470 0.75740 0.38430 -0.57500
O 	O 	0.30816 0.67330 0.38438 -0.47800
O 	O 	0.25795 0.66030 0.49391 -0.47300
C 	C 	0.40690 0.77130 0.68730 0.37500
C 	C 	0.40680 0.76070 0.60400 -0.15100
C 	C 	0.45946 0.78360 0.56210 0.08700
H 	H 	0.49230 0.80740 0.58540 0.01400
C 	C 	0.46289 0.77090 0.48520 -0.15800
C 	C 	0.41250 0.73740 0.45130 0.09200
H 	H 	0.41450 0.72890 0.40010 0.02100
C 	C 	0.35880 0.71600 0.49210 -0.15500
C 	C 	0.35660 0.72670 0.56920 0.08900
H 	H 	0.32170 0.71130 0.59740 0.02400
C 	C 	0.52190 0.79140 0.44240 0.38000
C 	C 	0.30350 0.68110 0.45450 0.40600
Zn	Zn	0.41941 0.84320 0.80964 1.12900
Zn	Zn	0.11945 0.74252 0.33239 1.15900
O 	O 	0.12950 0.76480 0.22690 -0.51600
O 	O 	0.05620 0.68710 0.21420 -0.57400
O 	O 	0.94511 0.66293 0.96920 -0.52200
O 	O 	0.96530 0.74260 0.88430 -0.57000
O 	O 	0.19184 0.82670 0.88438 -0.47300
O 	O 	0.24205 0.83970 0.99391 -0.46400
C 	C 	0.09310 0.72870 0.18730 0.36200
C 	C 	0.09320 0.73930 0.10400 -0.11800
C 	C 	0.04054 0.71640 0.06210 0.03000
H 	H 	0.00770 0.69260 0.08540 0.02800
C 	C 	0.03711 0.72910 0.98520 -0.10800
C 	C 	0.08750 0.76260 0.95130 0.05300
H 	H 	0.08550 0.77110 0.90010 0.03600
C 	C 	0.14120 0.78400 0.99210 -0.10500
C 	C 	0.14340 0.77330 0.06920 0.03000
H 	H 	0.17830 0.78870 0.09740 0.03800
C 	C 	0.97810 0.70860 0.94240 0.36400
C 	C 	0.19650 0.81890 0.95450 0.39100
Zn	Zn	0.08059 0.65680 0.30964 1.12900
Zn	Zn	0.61945 0.24252 0.83239 1.15900
O 	O 	0.62950 0.26480 0.72690 -0.51700
O 	O 	0.55620 0.18710 0.71420 -0.57600
O 	O 	0.44511 0.16293 0.46920 -0.53000
O 	O 	0.46530 0.24260 0.38430 -0.57500
O 	O 	0.69184 0.32670 0.38438 -0.47800
O 	O 	0.74205 0.33970 0.49391 -0.47300
C 	C 	0.59310 0.22870 0.68730 0.37500
C 	C 	0.59320 0.23930 0.60400 -0.15100
C 	C 	0.54054 0.21640 0.56210 0.08700
H 	H 	0.50770 0.19260 0.58540 0.01400
C 	C 	0.53711 0.22910 0.48520 -0.15800
C 	C 	0.58750 0.26260 0.45130 0.09200
H 	H 	0.58550 0.27110 0.40010 0.02100
C 	C 	0.64120 0.28400 0.49210 -0.15500
C 	C 	0.64340 0.27330 0.56920 0.08900
H 	H 	0.67830 0.28870 0.59740 0.02400
C 	C 	0.47810 0.20860 0.44240 0.38000
C 	C 	0.69650 0.31890 0.45450 0.40600
Zn	Zn	0.58059 0.15680 0.80964 1.12900
Zn	Zn	0.25748 0.88055 0.83239 1.15900
O 	O 	0.23520 0.87050 0.72690 -0.51700
O 	O 	0.31290 0.94380 0.71420 -0.57600
O 	O 	0.33707 0.05489 0.46920 -0.53000
O 	O 	0.25740 0.03470 0.38430 -0.57500
O 	O 	0.17330 0.80816 0.38438 -0.47800
O 	O 	0.16030 0.75795 0.49391 -0.47300
C 	C 	0.27130 0.90690 0.68730 0.37500
C 	C 	0.26070 0.90680 0.60400 -0.15200
C 	C 	0.28360 0.95946 0.56210 0.08700
H 	H 	0.30740 0.99230 0.58540 0.01400
C 	C 	0.27090 0.96289 0.48520 -0.15800
C 	C 	0.23740 0.91250 0.45130 0.09200
H 	H 	0.22890 0.91450 0.40010 0.02100
C 	C 	0.21600 0.85880 0.49210 -0.15500
C 	C 	0.22670 0.85660 0.56920 0.08900
H 	H 	0.21130 0.82170 0.59740 0.02400
C 	C 	0.29140 0.02190 0.44240 0.38000
C 	C 	0.18110 0.80350 0.45450 0.40600
Zn	Zn	0.34320 0.91941 0.80964 1.12900
Zn	Zn	0.75748 0.38055 0.33239 1.15900
O 	O 	0.73520 0.37050 0.22690 -0.51600
O 	O 	0.81290 0.44380 0.21420 -0.57400
O 	O 	0.83707 0.55489 0.96920 -0.52200
O 	O 	0.75740 0.53470 0.88430 -0.57000
O 	O 	0.67330 0.30816 0.88438 -0.47300
O 	O 	0.66030 0.25795 0.99391 -0.46300
C 	C 	0.77130 0.40690 0.18730 0.36200
C 	C 	0.76070 0.40680 0.10400 -0.11700
C 	C 	0.78360 0.45946 0.06210 0.02900
H 	H 	0.80740 0.49230 0.08540 0.02800
C 	C 	0.77090 0.46289 0.98520 -0.10800
C 	C 	0.73740 0.41250 0.95130 0.05200
H 	H 	0.72890 0.41450 0.90010 0.03600
C 	C 	0.71600 0.35880 0.99210 -0.10400
C 	C 	0.72670 0.35660 0.06920 0.03000
H 	H 	0.71130 0.32170 0.09740 0.03800
C 	C 	0.79140 0.52190 0.94240 0.36400
C 	C 	0.68110 0.30350 0.95450 0.39100
Zn	Zn	0.84320 0.41941 0.30964 1.12900
Zn	Zn	0.74252 0.11945 0.83239 1.15900
O 	O 	0.76480 0.12950 0.72690 -0.51700
O 	O 	0.68710 0.05620 0.71420 -0.57600
O 	O 	0.66293 0.94511 0.46920 -0.53000
O 	O 	0.74260 0.96530 0.38430 -0.57500
O 	O 	0.82670 0.19184 0.38438 -0.47800
O 	O 	0.83970 0.24205 0.49391 -0.47300
C 	C 	0.72870 0.09310 0.68730 0.37500
C 	C 	0.73930 0.09320 0.60400 -0.15200
C 	C 	0.71640 0.04054 0.56210 0.08700
H 	H 	0.69260 0.00770 0.58540 0.01400
C 	C 	0.72910 0.03711 0.48520 -0.15800
C 	C 	0.76260 0.08750 0.45130 0.09200
H 	H 	0.77110 0.08550 0.40010 0.02100
C 	C 	0.78400 0.14120 0.49210 -0.15500
C 	C 	0.77330 0.14340 0.56920 0.08900
H 	H 	0.78870 0.17830 0.59740 0.02400
C 	C 	0.70860 0.97810 0.44240 0.38000
C 	C 	0.81890 0.19650 0.45450 0.40600
Zn	Zn	0.65680 0.08059 0.80964 1.12900
Zn	Zn	0.24252 0.61945 0.33239 1.15900
O 	O 	0.26480 0.62950 0.22690 -0.51600
O 	O 	0.18710 0.55620 0.21420 -0.57400
O 	O 	0.16293 0.44511 0.96920 -0.52200
O 	O 	0.24260 0.46530 0.88430 -0.57000
O 	O 	0.32670 0.69184 0.88438 -0.47300
O 	O 	0.33970 0.74205 0.99391 -0.46300
C 	C 	0.22870 0.59310 0.18730 0.36200
C 	C 	0.23930 0.59320 0.10400 -0.11700
C 	C 	0.21640 0.54054 0.06210 0.02900
H 	H 	0.19260 0.50770 0.08540 0.02800
C 	C 	0.22910 0.53711 0.98520 -0.10800
C 	C 	0.26260 0.58750 0.95130 0.05200
H 	H 	0.27110 0.58550 0.90010 0.03600
C 	C 	0.28400 0.64120 0.99210 -0.10400
C 	C 	0.27330 0.64340 0.06920 0.03000
H 	H 	0.28870 0.67830 0.09740 0.03800
C 	C 	0.20860 0.47810 0.94240 0.36400
C 	C 	0.31890 0.69650 0.95450 0.39100
Zn	Zn	0.15680 0.58059 0.30964 1.12900
Zn	Zn	0.88055 0.74252 0.83239 1.15900
O 	O 	0.87050 0.76480 0.72690 -0.51700
O 	O 	0.94380 0.68710 0.71420 -0.57600
O 	O 	0.05489 0.66293 0.46920 -0.53000
O 	O 	0.03470 0.74260 0.38430 -0.57500
O 	O 	0.80816 0.82670 0.38438 -0.47800
O 	O 	0.75795 0.83970 0.49391 -0.47300
C 	C 	0.90690 0.72870 0.68730 0.37500
C 	C 	0.90680 0.73930 0.60400 -0.15200
C 	C 	0.95946 0.71640 0.56210 0.08700
H 	H 	0.99230 0.69260 0.58540 0.01400
C 	C 	0.96289 0.72910 0.48520 -0.15800
C 	C 	0.91250 0.76260 0.45130 0.09200
H 	H 	0.91450 0.77110 0.40010 0.02100
C 	C 	0.85880 0.78400 0.49210 -0.15500
C 	C 	0.85660 0.77330 0.56920 0.08900
H 	H 	0.82170 0.78870 0.59740 0.02400
C 	C 	0.02190 0.70860 0.44240 0.38000
C 	C 	0.80350 0.81890 0.45450 0.40600
Zn	Zn	0.91941 0.65680 0.80964 1.12900
Zn	Zn	0.38055 0.24252 0.33239 1.15900
O 	O 	0.37050 0.26480 0.22690 -0.51600
O 	O 	0.44380 0.18710 0.21420 -0.57400
O 	O 	0.55489 0.16293 0.96920 -0.52200
O 	O 	0.53470 0.24260 0.88430 -0.57000
O 	O 	0.30816 0.32670 0.88438 -0.47300
O 	O 	0.25795 0.33970 0.99391 -0.46300
C 	C 	0.40690 0.22870 0.18730 0.36200
C 	C 	0.40680 0.23930 0.10400 -0.11700
C 	C 	0.45946 0.21640 0.06210 0.02900
H 	H 	0.49230 0.19260 0.08540 0.02800
C 	C 	0.46289 0.22910 0.98520 -0.10800
C 	C 	0.41250 0.26260 0.95130 0.05200
H 	H 	0.41450 0.27110 0.90010 0.03600
C 	C 	0.35880 0.28400 0.99210 -0.10400
C 	C 	0.35660 0.27330 0.06920 0.03000
H 	H 	0.32170 0.28870 0.09740 0.03800
C 	C 	0.52190 0.20860 0.94240 0.36400
C 	C 	0.30350 0.31890 0.95450 0.39100
Zn	Zn	0.41941 0.15680 0.30964 1.12900
Zn	Zn	0.11945 0.25748 0.83239 1.15900
O 	O 	0.12950 0.23520 0.72690 -0.51700
O 	O 	0.05620 0.31290 0.71420 -0.57600
O 	O 	0.94511 0.33707 0.46920 -0.53000
O 	O 	0.96530 0.25740 0.38430 -0.57500
O 	O 	0.19184 0.17330 0.38438 -0.47800
O 	O 	0.24205 0.16030 0.49391 -0.47300
C 	C 	0.09310 0.27130 0.68730 0.37500
C 	C 	0.09320 0.26070 0.60400 -0.15200
C 	C 	0.04054 0.28360 0.56210 0.08700
H 	H 	0.00770 0.30740 0.58540 0.01400
C 	C 	0.03711 0.27090 0.48520 -0.15800
C 	C 	0.08750 0.23740 0.45130 0.09200
H 	H 	0.08550 0.22890 0.40010 0.02100
C 	C 	0.14120 0.21600 0.49210 -0.15500
C 	C 	0.14340 0.22670 0.56920 0.08900
H 	H 	0.17830 0.21130 0.59740 0.02400
C 	C 	0.97810 0.29140 0.44240 0.38000
C 	C 	0.19650 0.18110 0.45450 0.40600
Zn	Zn	0.08059 0.34320 0.80964 1.12900
Zn	Zn	0.61945 0.75748 0.33239 1.15900
O 	O 	0.62950 0.73520 0.22690 -0.51600
O 	O 	0.55620 0.81290 0.21420 -0.57400
O 	O 	0.44511 0.83707 0.96920 -0.52200
O 	O 	0.46530 0.75740 0.88430 -0.57000
O 	O 	0.69184 0.67330 0.88438 -0.47300
O 	O 	0.74205 0.66030 0.99391 -0.46300
C 	C 	0.59310 0.77130 0.18730 0.36200
C 	C 	0.59320 0.76070 0.10400 -0.11700
C 	C 	0.54054 0.78360 0.06210 0.02900
H 	H 	0.50770 0.80740 0.08540 0.02800
C 	C 	0.53711 0.77090 0.98520 -0.10800
C 	C 	0.58750 0.73740 0.95130 0.05200
H 	H 	0.58550 0.72890 0.90010 0.03600
C 	C 	0.64120 0.71600 0.99210 -0.10400
C 	C 	0.64340 0.72670 0.06920 0.03000
H 	H 	0.67830 0.71130 0.09740 0.03800
C 	C 	0.47810 0.79140 0.94240 0.36400
C 	C 	0.69650 0.68110 0.95450 0.39100
Zn	Zn	0.58059 0.84320 0.30964 1.12900
Zn	Zn	0.34369 0.15631 0.47802 1.20700
O 	O 	0.33956 0.16044 0.36010 -1.07900
O 	O 	0.43030 0.06970 0.29380 -1.34100
H 	H 	0.44120 0.05880 0.25010 0.45600
H 	H 	0.45070 0.04930 0.32720 0.42200
Zn	Zn	0.65631 0.84369 0.47802 1.20700
O 	O 	0.66044 0.83956 0.36010 -1.07900
O 	O 	0.56970 0.93030 0.29380 -1.34100
H 	H 	0.55880 0.94120 0.25010 0.45600
H 	H 	0.54930 0.95070 0.32720 0.42200
Zn	Zn	0.15631 0.34369 0.97802 1.20800
O 	O 	0.16044 0.33956 0.86010 -1.07900
O 	O 	0.06970 0.43030 0.79380 -1.34200
H 	H 	0.05880 0.44120 0.75010 0.45800
H 	H 	0.04930 0.45070 0.82720 0.42400
Zn	Zn	0.84369 0.34369 0.47802 1.20700
O 	O 	0.83956 0.33956 0.36010 -1.07900
O 	O 	0.93030 0.43030 0.29380 -1.34100
H 	H 	0.94120 0.44120 0.25010 0.45600
H 	H 	0.95070 0.45070 0.32720 0.42200
Zn	Zn	0.15631 0.65631 0.47802 1.20700
O 	O 	0.16044 0.66044 0.36010 -1.07900
O 	O 	0.06970 0.56970 0.29380 -1.34100
H 	H 	0.05880 0.55880 0.25010 0.45600
H 	H 	0.04930 0.54930 0.32720 0.42200
Zn	Zn	0.34369 0.84369 0.97802 1.20800
O 	O 	0.33956 0.83956 0.86010 -1.07900
O 	O 	0.43030 0.93030 0.79380 -1.34200
H 	H 	0.44120 0.94120 0.75010 0.45800
H 	H 	0.45070 0.95070 0.82720 0.42400
Zn	Zn	0.65631 0.15631 0.97802 1.20800
O 	O 	0.66044 0.16044 0.86010 -1.07900
O 	O 	0.56970 0.06970 0.79380 -1.34200
H 	H 	0.55880 0.05880 0.75010 0.45800
H 	H 	0.54930 0.04930 0.82720 0.42400
Zn	Zn	0.84369 0.65631 0.97802 1.20800
O 	O 	0.83956 0.66044 0.86010 -1.07900
O 	O 	0.93030 0.56970 0.79380 -1.34200
H 	H 	0.94120 0.55880 0.75010 0.45800
H 	H 	0.95070 0.54930 0.82720 0.42400
