data_crystal

_cell_length_a 9.18900
_cell_length_b 14.10360
_cell_length_c 18.35180
_cell_angle_alpha 90.00000
_cell_angle_beta  117.15700
_cell_angle_gamma 90.00000

_symmetry_space_group_name_	'P 1'
_symmetry_space_group_name_H-M	'P 1'

loop_
_symmetry_equiv_pos_as_xyz
  x,y,z

loop_
_atom_site_label
_atom_site_type_symbol
_atom_site_fract_x
_atom_site_fract_y
_atom_site_fract_z
_atom_site_charge
Hg	Hg	0.56352 0.79810 0.58086 -0.03000
Fe	Fe	0.23151 0.65150 0.75298 1.06900
S 	S 	0.71129 0.77187 0.73255 -0.10400
S 	S 	0.27126 0.84379 0.53880 -0.06900
S 	S 	0.72010 0.91503 0.53963 -0.07100
S 	S 	0.55848 0.65272 0.49424 -0.08700
N 	N 	0.38940 0.75300 0.34780 -0.26100
N 	N 	0.75170 0.05550 0.65290 -0.27700
N 	N 	0.23390 0.74160 0.66020 -0.27700
N 	N 	0.01550 0.71760 0.74660 -0.26800
C 	C 	0.46010 0.71200 0.40800 0.09300
C 	C 	0.25130 0.78310 0.61090 0.08500
C 	C 	0.73680 0.99860 0.60710 0.10200
C 	C 	0.89120 0.74090 0.73900 0.09400
Hg	Hg	0.43648 0.29810 0.91914 -0.02900
Fe	Fe	0.76849 0.15150 0.74702 1.07000
S 	S 	0.28871 0.27187 0.76745 -0.10400
S 	S 	0.72874 0.34379 0.96120 -0.06900
S 	S 	0.27990 0.41503 0.96037 -0.07100
S 	S 	0.44152 0.15272 0.00576 -0.08700
N 	N 	0.61060 0.25300 0.15220 -0.26100
N 	N 	0.24830 0.55550 0.84710 -0.27700
N 	N 	0.76610 0.24160 0.83980 -0.27700
N 	N 	0.98450 0.21760 0.75340 -0.26800
C 	C 	0.53990 0.21200 0.09200 0.09300
C 	C 	0.74870 0.28310 0.88910 0.08500
C 	C 	0.26320 0.49860 0.89290 0.10200
C 	C 	0.10880 0.24090 0.76100 0.09300
Hg	Hg	0.43648 0.20190 0.41914 -0.02900
Fe	Fe	0.76849 0.34850 0.24702 1.07000
S 	S 	0.28871 0.22813 0.26745 -0.10400
S 	S 	0.72874 0.15621 0.46120 -0.06900
S 	S 	0.27990 0.08497 0.46037 -0.07100
S 	S 	0.44152 0.34728 0.50576 -0.08700
N 	N 	0.61060 0.24700 0.65220 -0.26100
N 	N 	0.24830 0.94450 0.34710 -0.27700
N 	N 	0.76610 0.25840 0.33980 -0.27700
N 	N 	0.98450 0.28240 0.25340 -0.26800
C 	C 	0.53990 0.28800 0.59200 0.09300
C 	C 	0.74870 0.21690 0.38910 0.08500
C 	C 	0.26320 0.00140 0.39290 0.10200
C 	C 	0.10880 0.25910 0.26100 0.09400
Hg	Hg	0.56352 0.70190 0.08086 -0.02900
Fe	Fe	0.23151 0.84850 0.25298 1.07000
S 	S 	0.71129 0.72813 0.23255 -0.10400
S 	S 	0.27126 0.65621 0.03880 -0.06900
S 	S 	0.72010 0.58497 0.03963 -0.07100
S 	S 	0.55848 0.84728 0.99424 -0.08700
N 	N 	0.38940 0.74700 0.84780 -0.26100
N 	N 	0.75170 0.44450 0.15290 -0.27700
N 	N 	0.23390 0.75840 0.16020 -0.27700
N 	N 	0.01550 0.78240 0.24660 -0.26800
C 	C 	0.46010 0.78800 0.90800 0.09300
C 	C 	0.25130 0.71690 0.11090 0.08500
C 	C 	0.73680 0.50140 0.10710 0.10200
C 	C 	0.89120 0.75910 0.23900 0.09300
