data_crystal

_cell_length_a 8.56990
_cell_length_b 12.53470
_cell_length_c 12.53470
_cell_angle_alpha 116.78900
_cell_angle_beta  99.35840
_cell_angle_gamma 80.64160

_symmetry_space_group_name_	'P 1'
_symmetry_space_group_name_H-M	'P 1'

loop_
_symmetry_equiv_pos_as_xyz
  x,y,z

loop_
_atom_site_label
_atom_site_type_symbol
_atom_site_fract_x
_atom_site_fract_y
_atom_site_fract_z
_atom_site_charge
Cu	Cu	0.92432 0.59674 0.99238 0.91500
Cu	Cu	0.57568 0.99238 0.59674 0.91700
Cu	Cu	0.07568 0.40326 0.00762 0.91600
Cu	Cu	0.42432 0.00762 0.40326 0.91800
H 	H 	0.74780 0.26660 0.65500 0.18600
H 	H 	0.80490 0.35560 0.61320 0.17400
H 	H 	0.04760 0.23650 0.56730 -0.04400
H 	H 	0.00300 0.15110 0.61950 -0.02400
H 	H 	0.95880 0.05670 0.40790 0.18800
H 	H 	0.84390 0.17090 0.40790 0.17200
H 	H 	0.82360 0.85770 0.16310 0.02000
H 	H 	0.64790 0.02150 0.17270 0.07800
H 	H 	0.50440 0.83390 0.82390 0.07100
H 	H 	0.68250 0.67500 0.82500 0.01200
H 	H 	0.75220 0.65500 0.26660 0.18600
H 	H 	0.69510 0.61320 0.35560 0.17500
H 	H 	0.45240 0.56730 0.23650 -0.04400
H 	H 	0.49700 0.61950 0.15110 -0.02400
H 	H 	0.54120 0.40790 0.05670 0.18700
H 	H 	0.65610 0.40790 0.17090 0.17200
H 	H 	0.67640 0.16310 0.85770 0.01900
H 	H 	0.85210 0.17270 0.02150 0.08100
H 	H 	0.99560 0.82390 0.83390 0.07000
H 	H 	0.81750 0.82500 0.67500 0.01200
H 	H 	0.25220 0.73340 0.34500 0.18600
H 	H 	0.19510 0.64440 0.38680 0.17400
H 	H 	0.95240 0.76350 0.43270 -0.04400
H 	H 	0.99700 0.84890 0.38050 -0.02400
H 	H 	0.04120 0.94330 0.59210 0.18800
H 	H 	0.15610 0.82910 0.59210 0.17200
H 	H 	0.17640 0.14230 0.83690 0.02000
H 	H 	0.35210 0.97850 0.82730 0.07800
H 	H 	0.49560 0.16610 0.17610 0.07100
H 	H 	0.31750 0.32500 0.17500 0.01200
H 	H 	0.24780 0.34500 0.73340 0.18600
H 	H 	0.30490 0.38680 0.64440 0.17500
H 	H 	0.54760 0.43270 0.76350 -0.04400
H 	H 	0.50300 0.38050 0.84890 -0.02400
H 	H 	0.45880 0.59210 0.94330 0.18700
H 	H 	0.34390 0.59210 0.82910 0.17200
H 	H 	0.32360 0.83690 0.14230 0.01900
H 	H 	0.14790 0.82730 0.97850 0.08100
H 	H 	0.00440 0.17610 0.16610 0.07000
H 	H 	0.18250 0.17500 0.32500 0.01200
C 	C 	0.90590 0.37754 0.78046 0.46800
C 	C 	0.84170 0.30218 0.65302 -0.47900
C 	C 	0.95860 0.20142 0.57718 0.26100
C 	C 	0.87960 0.12217 0.45303 -0.47900
C 	C 	0.73860 0.06839 0.46121 0.46200
C 	C 	0.75810 0.85267 0.09253 0.08000
C 	C 	0.65310 0.95100 0.09880 -0.11300
C 	C 	0.55600 0.94742 0.99858 0.05100
C 	C 	0.56900 0.84192 0.89568 -0.12300
C 	C 	0.67670 0.74732 0.89708 0.07000
C 	C 	0.59410 0.78046 0.37754 0.46800
C 	C 	0.65830 0.65302 0.30218 -0.47900
C 	C 	0.54140 0.57718 0.20142 0.26100
C 	C 	0.62040 0.45303 0.12217 -0.47800
C 	C 	0.76140 0.46121 0.06839 0.46100
C 	C 	0.74190 0.09253 0.85267 0.08000
C 	C 	0.84690 0.09880 0.95100 -0.11800
C 	C 	0.94400 0.99858 0.94742 0.05100
C 	C 	0.93100 0.89568 0.84192 -0.12300
C 	C 	0.82330 0.89708 0.74732 0.07000
C 	C 	0.09410 0.62246 0.21954 0.46800
C 	C 	0.15830 0.69782 0.34698 -0.47900
C 	C 	0.04140 0.79858 0.42282 0.26100
C 	C 	0.12040 0.87783 0.54697 -0.47900
C 	C 	0.26140 0.93161 0.53879 0.46200
C 	C 	0.24190 0.14733 0.90747 0.08000
C 	C 	0.34690 0.04900 0.90120 -0.11300
C 	C 	0.44400 0.05258 0.00142 0.05100
C 	C 	0.43100 0.15808 0.10432 -0.12300
C 	C 	0.32330 0.25268 0.10292 0.07000
C 	C 	0.40590 0.21954 0.62246 0.46800
C 	C 	0.34170 0.34698 0.69782 -0.47900
C 	C 	0.45860 0.42282 0.79858 0.26100
C 	C 	0.37960 0.54697 0.87783 -0.47800
C 	C 	0.23860 0.53879 0.93161 0.46100
C 	C 	0.25810 0.90747 0.14733 0.08000
C 	C 	0.15310 0.90120 0.04900 -0.11800
C 	C 	0.05600 0.00142 0.05258 0.05100
C 	C 	0.06900 0.10432 0.15808 -0.12300
C 	C 	0.17670 0.10292 0.25268 0.07000
N 	N 	0.77170 0.75188 0.99272 -0.19300
N 	N 	0.72830 0.99272 0.75188 -0.19200
N 	N 	0.22830 0.24812 0.00728 -0.19300
N 	N 	0.27170 0.00728 0.24812 -0.19200
O 	O 	0.86540 0.48839 0.82307 -0.44000
O 	O 	0.99090 0.32427 0.83695 -0.43800
O 	O 	0.74880 0.03838 0.54504 -0.44100
O 	O 	0.61990 0.05870 0.38474 -0.43700
O 	O 	0.63460 0.82307 0.48839 -0.44000
O 	O 	0.50910 0.83695 0.32427 -0.43600
O 	O 	0.75120 0.54504 0.03838 -0.43900
O 	O 	0.88010 0.38474 0.05870 -0.43500
O 	O 	0.13460 0.51161 0.17693 -0.44000
O 	O 	0.00910 0.67573 0.16305 -0.43800
O 	O 	0.25120 0.96162 0.45496 -0.44100
O 	O 	0.38010 0.94130 0.61526 -0.43700
O 	O 	0.36540 0.17693 0.51161 -0.44000
O 	O 	0.49090 0.16305 0.67573 -0.43600
O 	O 	0.24880 0.45496 0.96162 -0.43900
O 	O 	0.11990 0.61526 0.94130 -0.43500
