data_crystal

_cell_length_a 9.05900
_cell_length_b 11.78400
_cell_length_c 13.38960
_cell_angle_alpha 116.10700
_cell_angle_beta  90.93750
_cell_angle_gamma 90.00000

_symmetry_space_group_name_	'P 1'
_symmetry_space_group_name_H-M	'P 1'

loop_
_symmetry_equiv_pos_as_xyz
  x,y,z

loop_
_atom_site_label
_atom_site_type_symbol
_atom_site_fract_x
_atom_site_fract_y
_atom_site_fract_z
_atom_site_charge
Cu	Cu	0.58031 0.02108 0.58800 0.92100
Cu	Cu	0.91969 0.43308 0.41200 0.92100
Cu	Cu	0.41969 0.97892 0.41200 0.92100
Cu	Cu	0.08031 0.56692 0.58800 0.92100
H 	H 	0.57920 0.60320 0.42080 0.20900
H 	H 	0.42550 0.62530 0.48300 0.20900
H 	H 	0.31130 0.58030 0.30100 -0.04500
H 	H 	0.46860 0.52440 0.25080 -0.05900
H 	H 	0.44210 0.38390 0.34360 0.19400
H 	H 	0.33980 0.35000 0.23500 0.19400
H 	H 	0.75760 0.84290 0.65040 0.00600
H 	H 	0.92980 0.83770 0.77580 0.10800
H 	H 	0.89510 0.21540 0.94380 0.09300
H 	H 	0.71980 0.20880 0.81560 0.00300
H 	H 	0.12120 0.97230 0.92460 0.07400
H 	H 	0.07380 0.11260 0.00900 0.07000
H 	H 	0.92080 0.18240 0.57920 0.20600
H 	H 	0.07450 0.14230 0.51700 0.20800
H 	H 	0.18870 0.27930 0.69900 -0.04400
H 	H 	0.03140 0.27360 0.74920 -0.05700
H 	H 	0.05790 0.04030 0.65640 0.19500
H 	H 	0.16020 0.11500 0.76500 0.19400
H 	H 	0.74240 0.19250 0.34960 0.00500
H 	H 	0.57020 0.06190 0.22420 0.11000
H 	H 	0.60490 0.27160 0.05620 0.09600
H 	H 	0.78020 0.39320 0.18440 0.00200
H 	H 	0.37880 0.04770 0.07540 0.08000
H 	H 	0.42620 0.10360 0.99100 0.07500
H 	H 	0.42080 0.39680 0.57920 0.20900
H 	H 	0.57450 0.37470 0.51700 0.20900
H 	H 	0.68870 0.41970 0.69900 -0.04500
H 	H 	0.53140 0.47560 0.74920 -0.05900
H 	H 	0.55790 0.61610 0.65640 0.19400
H 	H 	0.66020 0.65000 0.76500 0.19400
H 	H 	0.24240 0.15710 0.34960 0.00600
H 	H 	0.07020 0.16230 0.22420 0.10800
H 	H 	0.10490 0.78460 0.05620 0.09300
H 	H 	0.28020 0.79120 0.18440 0.00300
H 	H 	0.87880 0.02770 0.07540 0.07400
H 	H 	0.92620 0.88740 0.99100 0.07000
H 	H 	0.07920 0.81760 0.42080 0.20600
H 	H 	0.92550 0.85770 0.48300 0.20800
H 	H 	0.81130 0.72070 0.30100 -0.04400
H 	H 	0.96860 0.72640 0.25080 -0.05700
H 	H 	0.94210 0.95970 0.34360 0.19500
H 	H 	0.83980 0.88500 0.23500 0.19400
H 	H 	0.25760 0.80750 0.65040 0.00500
H 	H 	0.42980 0.93810 0.77580 0.11000
H 	H 	0.39510 0.72840 0.94380 0.09600
H 	H 	0.21980 0.60680 0.81560 0.00200
H 	H 	0.62120 0.95230 0.92460 0.08000
H 	H 	0.57380 0.89640 0.00900 0.07500
C 	C 	0.47960 0.76610 0.44180 0.51700
C 	C 	0.47620 0.63120 0.42040 -0.54900
C 	C 	0.40160 0.54040 0.31320 0.32300
C 	C 	0.35970 0.41420 0.31240 -0.53700
C 	C 	0.22470 0.43220 0.38080 0.51100
C 	C 	0.78660 0.92030 0.71140 0.10200
C 	C 	0.88750 0.91580 0.78620 -0.19200
C 	C 	0.92770 0.02760 0.87800 0.13400
C 	C 	0.86680 0.13650 0.88480 -0.19300
C 	C 	0.76520 0.13220 0.80660 0.10000
C 	C 	0.03630 0.02580 0.96260 -0.15500
C 	C 	0.02040 0.32430 0.55820 0.51700
C 	C 	0.02380 0.21080 0.57960 -0.54400
C 	C 	0.09840 0.22720 0.68680 0.32100
C 	C 	0.14030 0.10180 0.68760 -0.53600
C 	C 	0.27530 0.05140 0.61920 0.51100
C 	C 	0.71340 0.20890 0.28860 0.10500
C 	C 	0.61250 0.12960 0.21380 -0.20100
C 	C 	0.57230 0.14960 0.12200 0.14700
C 	C 	0.63320 0.25170 0.11520 -0.20000
C 	C 	0.73480 0.32560 0.19340 0.10400
C 	C 	0.46370 0.06320 0.03740 -0.16800
C 	C 	0.52040 0.23390 0.55820 0.51700
C 	C 	0.52380 0.36880 0.57960 -0.54900
C 	C 	0.59840 0.45960 0.68680 0.32300
C 	C 	0.64030 0.58580 0.68760 -0.53700
C 	C 	0.77530 0.56780 0.61920 0.51100
C 	C 	0.21340 0.07970 0.28860 0.10200
C 	C 	0.11250 0.08420 0.21380 -0.19200
C 	C 	0.07230 0.97240 0.12200 0.13400
C 	C 	0.13320 0.86350 0.11520 -0.19300
C 	C 	0.23480 0.86780 0.19340 0.10000
C 	C 	0.96370 0.97420 0.03740 -0.15500
C 	C 	0.97960 0.67570 0.44180 0.51700
C 	C 	0.97620 0.78920 0.42040 -0.54400
C 	C 	0.90160 0.77280 0.31320 0.32100
C 	C 	0.85970 0.89820 0.31240 -0.53600
C 	C 	0.72470 0.94860 0.38080 0.51100
C 	C 	0.28660 0.79110 0.71140 0.10500
C 	C 	0.38750 0.87040 0.78620 -0.20100
C 	C 	0.42770 0.85040 0.87800 0.14700
C 	C 	0.36680 0.74830 0.88480 -0.20000
C 	C 	0.26520 0.67440 0.80660 0.10400
C 	C 	0.53630 0.93680 0.96260 -0.16800
N 	N 	0.72680 0.02550 0.71840 -0.20600
N 	N 	0.77320 0.30710 0.28160 -0.20700
N 	N 	0.27320 0.97450 0.28160 -0.20600
N 	N 	0.22680 0.69290 0.71840 -0.20700
O 	O 	0.54900 0.83860 0.52860 -0.46300
O 	O 	0.41260 0.79986 0.37812 -0.44700
O 	O 	0.10550 0.38760 0.33060 -0.45300
O 	O 	0.24020 0.49282 0.48284 -0.47300
O 	O 	0.95100 0.31000 0.47140 -0.46400
O 	O 	0.08740 0.42174 0.62188 -0.44700
O 	O 	0.39450 0.05700 0.66940 -0.45300
O 	O 	0.25980 0.00998 0.51716 -0.47200
O 	O 	0.45100 0.16140 0.47140 -0.46300
O 	O 	0.58740 0.20014 0.62188 -0.44700
O 	O 	0.89450 0.61240 0.66940 -0.45300
O 	O 	0.75980 0.50718 0.51716 -0.47300
O 	O 	0.04900 0.69000 0.52860 -0.46400
O 	O 	0.91260 0.57826 0.37812 -0.44700
O 	O 	0.60550 0.94300 0.33060 -0.45300
O 	O 	0.74020 0.99002 0.48284 -0.47200
