data_crystal

_cell_length_a 6.96590
_cell_length_b 14.34050
_cell_length_c 7.44770
_cell_angle_alpha 90.00000
_cell_angle_beta  92.17900
_cell_angle_gamma 90.00000

_symmetry_space_group_name_	'P 1'
_symmetry_space_group_name_H-M	'P 1'

loop_
_symmetry_equiv_pos_as_xyz
  x,y,z

loop_
_atom_site_label
_atom_site_type_symbol
_atom_site_fract_x
_atom_site_fract_y
_atom_site_fract_z
_atom_site_charge
Zn	Zn	0.66240 0.69130 0.91901 1.21300
C 	C 	0.91510 0.83210 0.74380 0.55800
C 	C 	0.88760 0.89140 0.91080 -0.75900
H 	H 	0.75850 0.91680 0.90490 0.22900
H 	H 	0.97640 0.94340 0.90900 0.26700
C 	C 	0.91730 0.84060 0.08730 0.55400
O 	O 	0.83720 0.75242 0.73080 -0.52100
O 	O 	0.82980 0.76400 0.10960 -0.52500
O 	O 	0.01430 0.86747 0.62570 -0.51000
O 	O 	0.02600 0.87765 0.20500 -0.50800
Zn	Zn	0.16240 0.80870 0.41901 1.21400
C 	C 	0.41510 0.66790 0.24380 0.56200
C 	C 	0.38760 0.60860 0.41080 -0.76000
H 	H 	0.25850 0.58320 0.40490 0.23000
H 	H 	0.47640 0.55660 0.40900 0.26900
C 	C 	0.41730 0.65940 0.58730 0.55600
O 	O 	0.33720 0.74758 0.23080 -0.52100
O 	O 	0.32980 0.73600 0.60960 -0.52500
O 	O 	0.51430 0.63253 0.12570 -0.51200
O 	O 	0.52600 0.62235 0.70500 -0.51100
Zn	Zn	0.83760 0.19130 0.58099 1.21400
C 	C 	0.58490 0.33210 0.75620 0.56200
C 	C 	0.61240 0.39140 0.58920 -0.76000
H 	H 	0.74150 0.41680 0.59510 0.23000
H 	H 	0.52360 0.44340 0.59100 0.26900
C 	C 	0.58270 0.34060 0.41270 0.55600
O 	O 	0.66280 0.25242 0.76920 -0.52100
O 	O 	0.67020 0.26400 0.39040 -0.52500
O 	O 	0.48570 0.36747 0.87430 -0.51200
O 	O 	0.47400 0.37765 0.29500 -0.51100
Zn	Zn	0.33760 0.30870 0.08099 1.21300
C 	C 	0.08490 0.16790 0.25620 0.55800
C 	C 	0.11240 0.10860 0.08920 -0.75900
H 	H 	0.24150 0.08320 0.09510 0.22900
H 	H 	0.02360 0.05660 0.09100 0.26700
C 	C 	0.08270 0.15940 0.91270 0.55400
O 	O 	0.16280 0.24758 0.26920 -0.52100
O 	O 	0.17020 0.23600 0.89040 -0.52500
O 	O 	0.98570 0.13253 0.37430 -0.51000
O 	O 	0.97400 0.12235 0.79500 -0.50800
