data_crystal

_cell_length_a 6.94610
_cell_length_b 14.26900
_cell_length_c 7.43200
_cell_angle_alpha 90.00000
_cell_angle_beta  92.23200
_cell_angle_gamma 90.00000

_symmetry_space_group_name_	'P 1'
_symmetry_space_group_name_H-M	'P 1'

loop_
_symmetry_equiv_pos_as_xyz
  x,y,z

loop_
_atom_site_label
_atom_site_type_symbol
_atom_site_fract_x
_atom_site_fract_y
_atom_site_fract_z
_atom_site_charge
Zn	Zn	0.16201 0.30863 0.41903 1.21500
C 	C 	0.41750 0.16050 0.58810 0.55800
C 	C 	0.38420 0.10860 0.40900 -0.76000
H 	H 	0.47120 0.05550 0.40680 0.27000
H 	H 	0.25370 0.08430 0.40350 0.23000
C 	C 	0.41310 0.16760 0.24370 0.56600
O 	O 	0.32850 0.23610 0.60920 -0.53300
O 	O 	0.33560 0.24780 0.22990 -0.52200
O 	O 	0.52570 0.12250 0.70550 -0.51400
O 	O 	0.51400 0.13210 0.12580 -0.51000
Zn	Zn	0.66201 0.19137 0.91903 1.21500
C 	C 	0.91750 0.33950 0.08810 0.56000
C 	C 	0.88420 0.39140 0.90900 -0.76200
H 	H 	0.97120 0.44450 0.90680 0.27000
H 	H 	0.75370 0.41570 0.90350 0.23100
C 	C 	0.91310 0.33240 0.74370 0.56600
O 	O 	0.82850 0.26390 0.10920 -0.53200
O 	O 	0.83560 0.25220 0.72990 -0.52300
O 	O 	0.02570 0.37750 0.20550 -0.51400
O 	O 	0.01400 0.36790 0.62580 -0.51100
Zn	Zn	0.33799 0.80863 0.08097 1.21500
C 	C 	0.08250 0.66050 0.91190 0.56000
C 	C 	0.11580 0.60860 0.09100 -0.76200
H 	H 	0.02880 0.55550 0.09320 0.27000
H 	H 	0.24630 0.58430 0.09650 0.23100
C 	C 	0.08690 0.66760 0.25630 0.56600
O 	O 	0.17150 0.73610 0.89080 -0.53200
O 	O 	0.16440 0.74780 0.27010 -0.52300
O 	O 	0.97430 0.62250 0.79450 -0.51400
O 	O 	0.98600 0.63210 0.37420 -0.51100
Zn	Zn	0.83799 0.69137 0.58097 1.21500
C 	C 	0.58250 0.83950 0.41190 0.55800
C 	C 	0.61580 0.89140 0.59100 -0.76000
H 	H 	0.52880 0.94450 0.59320 0.27000
H 	H 	0.74630 0.91570 0.59650 0.23000
C 	C 	0.58690 0.83240 0.75630 0.56600
O 	O 	0.67150 0.76390 0.39080 -0.53300
O 	O 	0.66440 0.75220 0.77010 -0.52200
O 	O 	0.47430 0.87750 0.29450 -0.51400
O 	O 	0.48600 0.86790 0.87420 -0.51000
