data_crystal

_cell_length_a 7.20100
_cell_length_b 12.40000
_cell_length_c 20.78400
_cell_angle_alpha 90.00000
_cell_angle_beta  90.00000
_cell_angle_gamma 90.00000

_symmetry_space_group_name_	'P 1'
_symmetry_space_group_name_H-M	'P 1'

loop_
_symmetry_equiv_pos_as_xyz
  x,y,z

loop_
_atom_site_label
_atom_site_type_symbol
_atom_site_fract_x
_atom_site_fract_y
_atom_site_fract_z
_atom_site_charge
Cu	Cu	0.23648 0.83781 0.75000 0.82100
Cu	Cu	0.26352 0.33781 0.25000 0.82200
Cu	Cu	0.76352 0.16219 0.25000 0.82000
Cu	Cu	0.73648 0.66219 0.75000 0.82100
H 	H 	0.35570 0.17570 0.89990 0.05400
H 	H 	0.50490 0.24860 0.98970 0.05200
H 	H 	0.28970 0.01080 0.10030 0.06000
H 	H 	0.15360 0.93440 0.00990 0.05400
H 	H 	0.10100 0.92740 0.89980 0.08200
H 	H 	0.11230 0.03350 0.86050 0.08100
H 	H 	0.37110 0.78010 0.90540 0.07500
H 	H 	0.55000 0.78080 0.86380 0.05200
H 	H 	0.14430 0.67570 0.10010 0.05700
H 	H 	0.99510 0.74860 0.01030 0.04800
H 	H 	0.21030 0.51080 0.89970 0.05700
H 	H 	0.34640 0.43440 0.99010 0.05600
H 	H 	0.39900 0.42740 0.10020 0.08300
H 	H 	0.38770 0.53350 0.13950 0.08400
H 	H 	0.12890 0.28010 0.09460 0.07200
H 	H 	0.95000 0.28080 0.13620 0.04700
H 	H 	0.64430 0.82430 0.39990 0.05400
H 	H 	0.49510 0.75140 0.48970 0.05100
H 	H 	0.71030 0.98920 0.60030 0.06000
H 	H 	0.84640 0.06560 0.50990 0.05400
H 	H 	0.89900 0.07260 0.39980 0.08200
H 	H 	0.88770 0.96650 0.36050 0.08200
H 	H 	0.62890 0.21990 0.40540 0.07500
H 	H 	0.45000 0.21920 0.36380 0.05200
H 	H 	0.85570 0.32430 0.60010 0.05500
H 	H 	0.00490 0.25140 0.51030 0.05000
H 	H 	0.78970 0.48920 0.39970 0.05900
H 	H 	0.65360 0.56560 0.49010 0.05500
H 	H 	0.60100 0.57260 0.60020 0.08300
H 	H 	0.61230 0.46650 0.63950 0.08300
H 	H 	0.87110 0.71990 0.59460 0.07300
H 	H 	0.05000 0.71920 0.63620 0.04900
H 	H 	0.64430 0.82430 0.10010 0.05400
H 	H 	0.49510 0.75140 0.01030 0.05200
H 	H 	0.71030 0.98920 0.89970 0.06000
H 	H 	0.84640 0.06560 0.99010 0.05400
H 	H 	0.89900 0.07260 0.10020 0.08200
H 	H 	0.88770 0.96650 0.13950 0.08100
H 	H 	0.62890 0.21990 0.09460 0.07500
H 	H 	0.45000 0.21920 0.13620 0.05200
H 	H 	0.85570 0.32430 0.89990 0.05700
H 	H 	0.00490 0.25140 0.98970 0.04800
H 	H 	0.78970 0.48920 0.10030 0.05700
H 	H 	0.65360 0.56560 0.00990 0.05600
H 	H 	0.60100 0.57260 0.89980 0.08300
H 	H 	0.61230 0.46650 0.86050 0.08400
H 	H 	0.87110 0.71990 0.90540 0.07200
H 	H 	0.05000 0.71920 0.86380 0.04700
H 	H 	0.35570 0.17570 0.60010 0.05400
H 	H 	0.50490 0.24860 0.51030 0.05100
H 	H 	0.28970 0.01080 0.39970 0.06000
H 	H 	0.15360 0.93440 0.49010 0.05400
H 	H 	0.10100 0.92740 0.60020 0.08200
H 	H 	0.11230 0.03350 0.63950 0.08200
H 	H 	0.37110 0.78010 0.59460 0.07500
H 	H 	0.55000 0.78080 0.63620 0.05200
H 	H 	0.14430 0.67570 0.39990 0.05500
H 	H 	0.99510 0.74860 0.48970 0.05000
H 	H 	0.21030 0.51080 0.60030 0.05900
H 	H 	0.34640 0.43440 0.50990 0.05500
H 	H 	0.39900 0.42740 0.39980 0.08300
H 	H 	0.38770 0.53350 0.36050 0.08300
H 	H 	0.12890 0.28010 0.40540 0.07300
H 	H 	0.95000 0.28080 0.36380 0.04900
C 	C 	0.34810 0.13980 0.94020 -0.07500
C 	C 	0.43520 0.18390 0.99390 -0.07500
C 	C 	0.42100 0.13390 0.05370 0.07100
C 	C 	0.30940 0.04250 0.05920 -0.06700
C 	C 	0.22700 0.99760 0.00540 -0.07900
C 	C 	0.24960 0.04310 0.94520 0.08100
C 	C 	0.18030 0.98430 0.88640 -0.19900
C 	C 	0.46920 0.82370 0.88930 -0.17900
C 	C 	0.15190 0.63980 0.05980 -0.08200
C 	C 	0.06480 0.68390 0.00610 -0.06500
C 	C 	0.07900 0.63390 0.94630 0.06100
C 	C 	0.19060 0.54250 0.94080 -0.06200
C 	C 	0.27300 0.49760 0.99460 -0.08500
C 	C 	0.25040 0.54310 0.05480 0.08700
C 	C 	0.31970 0.48430 0.11360 -0.20300
C 	C 	0.03080 0.32370 0.11070 -0.16700
C 	C 	0.65190 0.86020 0.44020 -0.07600
C 	C 	0.56480 0.81610 0.49390 -0.07300
C 	C 	0.57900 0.86610 0.55370 0.06900
C 	C 	0.69060 0.95750 0.55920 -0.06700
C 	C 	0.77300 0.00240 0.50540 -0.08000
C 	C 	0.75040 0.95690 0.44520 0.08300
C 	C 	0.81970 0.01570 0.38640 -0.20100
C 	C 	0.53080 0.17630 0.38930 -0.17800
C 	C 	0.84810 0.36020 0.55980 -0.07800
C 	C 	0.93520 0.31610 0.50610 -0.07100
C 	C 	0.92100 0.36610 0.44630 0.06500
C 	C 	0.80940 0.45750 0.44080 -0.06500
C 	C 	0.72700 0.50240 0.49460 -0.08100
C 	C 	0.74960 0.45690 0.55480 0.08400
C 	C 	0.68030 0.51570 0.61360 -0.20200
C 	C 	0.96920 0.67630 0.61070 -0.17100
C 	C 	0.65190 0.86020 0.05980 -0.07500
C 	C 	0.56480 0.81610 0.00610 -0.07500
C 	C 	0.57900 0.86610 0.94630 0.07100
C 	C 	0.69060 0.95750 0.94080 -0.06700
C 	C 	0.77300 0.00240 0.99460 -0.07900
C 	C 	0.75040 0.95690 0.05480 0.08100
C 	C 	0.81970 0.01570 0.11360 -0.19900
C 	C 	0.53080 0.17630 0.11070 -0.17900
C 	C 	0.84810 0.36020 0.94020 -0.08200
C 	C 	0.93520 0.31610 0.99390 -0.06500
C 	C 	0.92100 0.36610 0.05370 0.06100
C 	C 	0.80940 0.45750 0.05920 -0.06200
C 	C 	0.72700 0.50240 0.00540 -0.08500
C 	C 	0.74960 0.45690 0.94520 0.08700
C 	C 	0.68030 0.51570 0.88640 -0.20300
C 	C 	0.96920 0.67630 0.88930 -0.16700
C 	C 	0.34810 0.13980 0.55980 -0.07600
C 	C 	0.43520 0.18390 0.50610 -0.07300
C 	C 	0.42100 0.13390 0.44630 0.06900
C 	C 	0.30940 0.04250 0.44080 -0.06700
C 	C 	0.22700 0.99760 0.49460 -0.08000
C 	C 	0.24960 0.04310 0.55480 0.08300
C 	C 	0.18030 0.98430 0.61360 -0.20100
C 	C 	0.46920 0.82370 0.61070 -0.17800
C 	C 	0.15190 0.63980 0.44020 -0.07800
C 	C 	0.06480 0.68390 0.49390 -0.07100
C 	C 	0.07900 0.63390 0.55370 0.06500
C 	C 	0.19060 0.54250 0.55920 -0.06500
C 	C 	0.27300 0.49760 0.50540 -0.08100
C 	C 	0.25040 0.54310 0.44520 0.08400
C 	C 	0.31970 0.48430 0.38640 -0.20200
C 	C 	0.03080 0.32370 0.38930 -0.17100
S 	S 	0.36830 0.92702 0.83789 -0.14400
S 	S 	0.13170 0.42702 0.16211 -0.14400
S 	S 	0.63170 0.07298 0.33789 -0.14400
S 	S 	0.86830 0.57298 0.66211 -0.14400
S 	S 	0.63170 0.07298 0.16211 -0.14400
S 	S 	0.86830 0.57298 0.83789 -0.14400
S 	S 	0.36830 0.92702 0.66211 -0.14400
S 	S 	0.13170 0.42702 0.33789 -0.14400
I 	I 	0.87181 0.85935 0.75000 -0.50700
I 	I 	0.62819 0.35935 0.25000 -0.51000
I 	I 	0.12819 0.14065 0.25000 -0.50700
I 	I 	0.37181 0.64065 0.75000 -0.51000
