data_crystal

_cell_length_a 7.08200
_cell_length_b 12.35700
_cell_length_c 20.72400
_cell_angle_alpha 90.00000
_cell_angle_beta  90.00000
_cell_angle_gamma 90.00000

_symmetry_space_group_name_	'P 1'
_symmetry_space_group_name_H-M	'P 1'

loop_
_symmetry_equiv_pos_as_xyz
  x,y,z

loop_
_atom_site_label
_atom_site_type_symbol
_atom_site_fract_x
_atom_site_fract_y
_atom_site_fract_z
_atom_site_charge
Cu	Cu	0.24458 0.33266 0.25000 0.84400
Cu	Cu	0.25542 0.83266 0.75000 0.84500
Cu	Cu	0.75542 0.66734 0.75000 0.84400
Cu	Cu	0.74458 0.16734 0.25000 0.84500
H 	H 	0.48970 0.24770 0.51180 0.05200
H 	H 	0.63270 0.32150 0.60360 0.05200
H 	H 	0.84770 0.56400 0.49400 0.05100
H 	H 	0.71510 0.48650 0.40220 0.06200
H 	H 	0.36820 0.27850 0.40600 0.08000
H 	H 	0.55360 0.27570 0.36620 0.06300
H 	H 	0.12180 0.53690 0.35490 0.08500
H 	H 	0.09880 0.43190 0.39510 0.08400
H 	H 	0.01030 0.74770 0.48820 0.05300
H 	H 	0.86730 0.82150 0.39640 0.05300
H 	H 	0.65230 0.06400 0.50600 0.05400
H 	H 	0.78490 0.98650 0.59780 0.06000
H 	H 	0.13180 0.77850 0.59400 0.07700
H 	H 	0.94640 0.77570 0.63380 0.05800
H 	H 	0.37820 0.03690 0.64510 0.08400
H 	H 	0.40120 0.93190 0.60490 0.08400
H 	H 	0.51030 0.75230 0.01180 0.05400
H 	H 	0.36730 0.67850 0.10360 0.05200
H 	H 	0.15230 0.43600 0.99400 0.05200
H 	H 	0.28490 0.51350 0.90220 0.06300
H 	H 	0.63180 0.72150 0.90600 0.08100
H 	H 	0.44640 0.72430 0.86620 0.06400
H 	H 	0.87820 0.46310 0.85490 0.08400
H 	H 	0.90120 0.56810 0.89510 0.08300
H 	H 	0.98970 0.25230 0.98820 0.05100
H 	H 	0.13270 0.17850 0.89640 0.05300
H 	H 	0.34770 0.93600 0.00600 0.05100
H 	H 	0.21510 0.01350 0.09780 0.06100
H 	H 	0.86820 0.22150 0.09400 0.07700
H 	H 	0.05360 0.22430 0.13380 0.05700
H 	H 	0.62180 0.96310 0.14510 0.08200
H 	H 	0.59880 0.06810 0.10490 0.08300
H 	H 	0.51030 0.75230 0.48820 0.05300
H 	H 	0.36730 0.67850 0.39640 0.05300
H 	H 	0.15230 0.43600 0.50600 0.05200
H 	H 	0.28490 0.51350 0.59780 0.06300
H 	H 	0.63180 0.72150 0.59400 0.08000
H 	H 	0.44640 0.72430 0.63380 0.06300
H 	H 	0.87820 0.46310 0.64510 0.08500
H 	H 	0.90120 0.56810 0.60490 0.08400
H 	H 	0.98970 0.25230 0.51180 0.05300
H 	H 	0.13270 0.17850 0.60360 0.05300
H 	H 	0.34770 0.93600 0.49400 0.05400
H 	H 	0.21510 0.01350 0.40220 0.06000
H 	H 	0.86820 0.22150 0.40600 0.07700
H 	H 	0.05360 0.22430 0.36620 0.05800
H 	H 	0.62180 0.96310 0.35490 0.08400
H 	H 	0.59880 0.06810 0.39510 0.08400
H 	H 	0.48970 0.24770 0.98820 0.05400
H 	H 	0.63270 0.32150 0.89640 0.05200
H 	H 	0.84770 0.56400 0.00600 0.05200
H 	H 	0.71510 0.48650 0.09780 0.06300
H 	H 	0.36820 0.27850 0.09400 0.08100
H 	H 	0.55360 0.27570 0.13380 0.06400
H 	H 	0.12180 0.53690 0.14510 0.08400
H 	H 	0.09880 0.43190 0.10490 0.08300
H 	H 	0.01030 0.74770 0.01180 0.05100
H 	H 	0.86730 0.82150 0.10360 0.05300
H 	H 	0.65230 0.06400 0.99400 0.05100
H 	H 	0.78490 0.98650 0.90220 0.06100
H 	H 	0.13180 0.77850 0.90600 0.07700
H 	H 	0.94640 0.77570 0.86620 0.05700
H 	H 	0.37820 0.03690 0.85490 0.08200
H 	H 	0.40120 0.93190 0.89510 0.08300
C 	C 	0.56070 0.31300 0.50818 -0.07800
C 	C 	0.64480 0.35740 0.56301 -0.07200
C 	C 	0.74670 0.45410 0.55854 0.07900
C 	C 	0.77270 0.49980 0.49810 -0.07300
C 	C 	0.69260 0.45470 0.44344 -0.07300
C 	C 	0.57880 0.36310 0.44816 0.07600
C 	C 	0.47140 0.32060 0.39057 -0.18800
C 	C 	0.18540 0.48700 0.38230 -0.20000
C 	C 	0.93930 0.81300 0.49182 -0.07500
C 	C 	0.85520 0.85740 0.43699 -0.07300
C 	C 	0.75330 0.95410 0.44146 0.08000
C 	C 	0.72730 0.99980 0.50190 -0.07600
C 	C 	0.80740 0.95470 0.55656 -0.06900
C 	C 	0.92120 0.86310 0.55184 0.07000
C 	C 	0.02860 0.82060 0.60943 -0.17700
C 	C 	0.31460 0.98700 0.61770 -0.19800
C 	C 	0.43930 0.68700 0.00818 -0.08000
C 	C 	0.35520 0.64260 0.06301 -0.07000
C 	C 	0.25330 0.54590 0.05854 0.07700
C 	C 	0.22730 0.50020 0.99810 -0.07100
C 	C 	0.30740 0.54530 0.94344 -0.07400
C 	C 	0.42120 0.63690 0.94816 0.07800
C 	C 	0.52860 0.67940 0.89057 -0.18900
C 	C 	0.81460 0.51300 0.88230 -0.19900
C 	C 	0.06070 0.18700 0.99182 -0.07400
C 	C 	0.14480 0.14260 0.93699 -0.07300
C 	C 	0.24670 0.04590 0.94146 0.07600
C 	C 	0.27270 0.00020 0.00190 -0.07100
C 	C 	0.19260 0.04530 0.05656 -0.07000
C 	C 	0.07880 0.13690 0.05184 0.06900
C 	C 	0.97140 0.17940 0.10943 -0.17400
C 	C 	0.68540 0.01300 0.11770 -0.19400
C 	C 	0.43930 0.68700 0.49182 -0.07800
C 	C 	0.35520 0.64260 0.43699 -0.07200
C 	C 	0.25330 0.54590 0.44146 0.07900
C 	C 	0.22730 0.50020 0.50190 -0.07300
C 	C 	0.30740 0.54530 0.55656 -0.07300
C 	C 	0.42120 0.63690 0.55184 0.07600
C 	C 	0.52860 0.67940 0.60943 -0.18800
C 	C 	0.81460 0.51300 0.61770 -0.20000
C 	C 	0.06070 0.18700 0.50818 -0.07500
C 	C 	0.14480 0.14260 0.56301 -0.07300
C 	C 	0.24670 0.04590 0.55854 0.08000
C 	C 	0.27270 0.00020 0.49810 -0.07600
C 	C 	0.19260 0.04530 0.44344 -0.06900
C 	C 	0.07880 0.13690 0.44816 0.07000
C 	C 	0.97140 0.17940 0.39057 -0.17700
C 	C 	0.68540 0.01300 0.38230 -0.19800
C 	C 	0.56070 0.31300 0.99182 -0.08000
C 	C 	0.64480 0.35740 0.93699 -0.07000
C 	C 	0.74670 0.45410 0.94146 0.07700
C 	C 	0.77270 0.49980 0.00190 -0.07100
C 	C 	0.69260 0.45470 0.05656 -0.07400
C 	C 	0.57880 0.36310 0.05184 0.07800
C 	C 	0.47140 0.32060 0.10943 -0.18900
C 	C 	0.18540 0.48700 0.11770 -0.19900
C 	C 	0.93930 0.81300 0.00818 -0.07400
C 	C 	0.85520 0.85740 0.06301 -0.07300
C 	C 	0.75330 0.95410 0.05854 0.07600
C 	C 	0.72730 0.99980 0.99810 -0.07100
C 	C 	0.80740 0.95470 0.94344 -0.07000
C 	C 	0.92120 0.86310 0.94816 0.06900
C 	C 	0.02860 0.82060 0.89057 -0.17400
C 	C 	0.31460 0.98700 0.88230 -0.19400
S 	S 	0.37724 0.42406 0.33682 -0.13100
S 	S 	0.12276 0.92406 0.66318 -0.13100
S 	S 	0.62276 0.57594 0.83682 -0.13100
S 	S 	0.87724 0.07594 0.16318 -0.13100
S 	S 	0.62276 0.57594 0.66318 -0.13100
S 	S 	0.87724 0.07594 0.33682 -0.13100
S 	S 	0.37724 0.42406 0.16318 -0.13100
S 	S 	0.12276 0.92406 0.83682 -0.13100
Br	Br	0.89496 0.34829 0.25000 -0.58900
Br	Br	0.60504 0.84829 0.75000 -0.59200
Br	Br	0.10504 0.65171 0.75000 -0.58900
Br	Br	0.39496 0.15171 0.25000 -0.59200
