data_crystal

_cell_length_a 18.57730
_cell_length_b 18.57730
_cell_length_c 22.69330
_cell_angle_alpha 90.00000
_cell_angle_beta  90.00000
_cell_angle_gamma 120.00000

_symmetry_space_group_name_	'P 1'
_symmetry_space_group_name_H-M	'P 1'

loop_
_symmetry_equiv_pos_as_xyz
  x,y,z

loop_
_atom_site_label
_atom_site_type_symbol
_atom_site_fract_x
_atom_site_fract_y
_atom_site_fract_z
_atom_site_charge
Cu	Cu	0.04565 0.54367 0.54880 0.90400
Cu	Cu	0.49802 0.95435 0.54880 0.90400
Cu	Cu	0.45633 0.50198 0.54880 0.90400
Cu	Cu	0.95435 0.45633 0.04880 0.90400
Cu	Cu	0.50198 0.04565 0.04880 0.90400
Cu	Cu	0.54367 0.49802 0.04880 0.90400
Cu	Cu	0.50198 0.45633 0.45120 0.90400
Cu	Cu	0.54367 0.04565 0.45120 0.90400
Cu	Cu	0.95435 0.49802 0.45120 0.90400
Cu	Cu	0.49802 0.54367 0.95120 0.90400
Cu	Cu	0.45633 0.95435 0.95120 0.90400
Cu	Cu	0.04565 0.50198 0.95120 0.90400
H 	H 	0.69240 0.64280 0.63170 0.09700
H 	H 	0.75030 0.51980 0.50990 0.06900
H 	H 	0.92600 0.67510 0.62760 0.08900
H 	H 	0.95210 0.80870 0.66680 0.00400
H 	H 	0.93460 0.73470 0.71190 0.02000
H 	H 	0.89150 0.86130 0.73530 0.09400
H 	H 	0.95040 0.30760 0.63170 0.09800
H 	H 	0.76950 0.24970 0.50990 0.07000
H 	H 	0.74910 0.07400 0.62760 0.09000
H 	H 	0.85660 0.04790 0.66680 0.00500
H 	H 	0.80010 0.06540 0.71190 0.02000
H 	H 	0.96980 0.10850 0.73530 0.09500
H 	H 	0.35720 0.04960 0.63170 0.09800
H 	H 	0.48020 0.23050 0.50990 0.07000
H 	H 	0.32490 0.25090 0.62760 0.09000
H 	H 	0.19130 0.14340 0.66680 0.00500
H 	H 	0.26530 0.19990 0.71190 0.02000
H 	H 	0.13870 0.03020 0.73530 0.09400
H 	H 	0.30760 0.35720 0.13170 0.09800
H 	H 	0.24970 0.48020 0.00990 0.07000
H 	H 	0.07400 0.32490 0.12760 0.09000
H 	H 	0.04790 0.19130 0.16680 0.00500
H 	H 	0.06540 0.26530 0.21190 0.02000
H 	H 	0.10850 0.13870 0.23530 0.09400
H 	H 	0.04960 0.69240 0.13170 0.09800
H 	H 	0.23050 0.75030 0.00990 0.07000
H 	H 	0.25090 0.92600 0.12760 0.09000
H 	H 	0.14340 0.95210 0.16680 0.00600
H 	H 	0.19990 0.93460 0.21190 0.02000
H 	H 	0.03020 0.89150 0.23530 0.09500
H 	H 	0.64280 0.95040 0.13170 0.09800
H 	H 	0.51980 0.76950 0.00990 0.07000
H 	H 	0.67510 0.74910 0.12760 0.09000
H 	H 	0.80870 0.85660 0.16680 0.00500
H 	H 	0.73470 0.80010 0.21190 0.02000
H 	H 	0.86130 0.96980 0.23530 0.09400
H 	H 	0.04960 0.35720 0.36830 0.09800
H 	H 	0.23050 0.48020 0.49010 0.07000
H 	H 	0.25090 0.32490 0.37240 0.09000
H 	H 	0.14340 0.19130 0.33320 0.00500
H 	H 	0.19990 0.26530 0.28810 0.02000
H 	H 	0.03020 0.13870 0.26470 0.09400
H 	H 	0.64280 0.69240 0.36830 0.09800
H 	H 	0.51980 0.75030 0.49010 0.07000
H 	H 	0.67510 0.92600 0.37240 0.09000
H 	H 	0.80870 0.95210 0.33320 0.00500
H 	H 	0.73470 0.93460 0.28810 0.02000
H 	H 	0.86130 0.89150 0.26470 0.09400
H 	H 	0.30760 0.95040 0.36830 0.09800
H 	H 	0.24970 0.76950 0.49010 0.07000
H 	H 	0.07400 0.74910 0.37240 0.09000
H 	H 	0.04790 0.85660 0.33320 0.00500
H 	H 	0.06540 0.80010 0.28810 0.02000
H 	H 	0.10850 0.96980 0.26470 0.09500
H 	H 	0.95040 0.64280 0.86830 0.09800
H 	H 	0.76950 0.51980 0.99010 0.07000
H 	H 	0.74910 0.67510 0.87240 0.09000
H 	H 	0.85660 0.80870 0.83320 0.00500
H 	H 	0.80010 0.73470 0.78810 0.02000
H 	H 	0.96980 0.86130 0.76470 0.09400
H 	H 	0.35720 0.30760 0.86830 0.09800
H 	H 	0.48020 0.24970 0.99010 0.07000
H 	H 	0.32490 0.07400 0.87240 0.09000
H 	H 	0.19130 0.04790 0.83320 0.00500
H 	H 	0.26530 0.06540 0.78810 0.02000
H 	H 	0.13870 0.10850 0.76470 0.09400
H 	H 	0.69240 0.04960 0.86830 0.09800
H 	H 	0.75030 0.23050 0.99010 0.07000
H 	H 	0.92600 0.25090 0.87240 0.09000
H 	H 	0.95210 0.14340 0.83320 0.00600
H 	H 	0.93460 0.19990 0.78810 0.02000
H 	H 	0.89150 0.03020 0.76470 0.09500
C 	C 	0.62104 0.53465 0.54436 0.34400
C 	C 	0.90449 0.56776 0.54023 0.32700
C 	C 	0.73204 0.63133 0.61420 -0.11500
C 	C 	0.70805 0.57491 0.56813 -0.02600
C 	C 	0.76557 0.55640 0.54262 -0.02700
C 	C 	0.84559 0.59255 0.56612 -0.02100
C 	C 	0.87120 0.65053 0.61220 -0.11900
C 	C 	0.81327 0.67145 0.63517 0.18500
C 	C 	0.91516 0.77282 0.69859 0.10400
C 	C 	0.91361 0.37896 0.54436 0.34400
C 	C 	0.66327 0.09551 0.54023 0.32700
C 	C 	0.89929 0.26796 0.61420 -0.11500
C 	C 	0.86686 0.29195 0.56813 -0.02600
C 	C 	0.79083 0.23443 0.54262 -0.02700
C 	C 	0.74696 0.15441 0.56612 -0.02100
C 	C 	0.77933 0.12880 0.61220 -0.11900
C 	C 	0.85818 0.18673 0.63517 0.18500
C 	C 	0.85766 0.08484 0.69859 0.10400
C 	C 	0.46535 0.08639 0.54436 0.34400
C 	C 	0.43224 0.33673 0.54023 0.32700
C 	C 	0.36867 0.10071 0.61420 -0.11500
C 	C 	0.42509 0.13314 0.56813 -0.02600
C 	C 	0.44360 0.20917 0.54262 -0.02700
C 	C 	0.40745 0.25304 0.56612 -0.02100
C 	C 	0.34947 0.22067 0.61220 -0.11900
C 	C 	0.32855 0.14182 0.63517 0.18500
C 	C 	0.22718 0.14234 0.69859 0.10400
C 	C 	0.37896 0.46535 0.04436 0.34400
C 	C 	0.09551 0.43224 0.04023 0.32700
C 	C 	0.26796 0.36867 0.11420 -0.11500
C 	C 	0.29195 0.42509 0.06813 -0.02600
C 	C 	0.23443 0.44360 0.04262 -0.02700
C 	C 	0.15441 0.40745 0.06612 -0.02100
C 	C 	0.12880 0.34947 0.11220 -0.11900
C 	C 	0.18673 0.32855 0.13517 0.18500
C 	C 	0.08484 0.22718 0.19859 0.10400
C 	C 	0.08639 0.62104 0.04436 0.34500
C 	C 	0.33673 0.90449 0.04023 0.32700
C 	C 	0.10071 0.73204 0.11420 -0.11500
C 	C 	0.13314 0.70805 0.06813 -0.02600
C 	C 	0.20917 0.76557 0.04262 -0.02700
C 	C 	0.25304 0.84559 0.06612 -0.02100
C 	C 	0.22067 0.87120 0.11220 -0.11900
C 	C 	0.14182 0.81327 0.13517 0.18500
C 	C 	0.14234 0.91516 0.19859 0.10400
C 	C 	0.53465 0.91361 0.04436 0.34500
C 	C 	0.56776 0.66327 0.04023 0.32700
C 	C 	0.63133 0.89929 0.11420 -0.11500
C 	C 	0.57491 0.86686 0.06813 -0.02600
C 	C 	0.55640 0.79083 0.04262 -0.02700
C 	C 	0.59255 0.74696 0.06612 -0.02100
C 	C 	0.65053 0.77933 0.11220 -0.11900
C 	C 	0.67145 0.85818 0.13517 0.18500
C 	C 	0.77282 0.85766 0.19859 0.10400
C 	C 	0.08639 0.46535 0.45564 0.34400
C 	C 	0.33673 0.43224 0.45977 0.32700
C 	C 	0.10071 0.36867 0.38580 -0.11500
C 	C 	0.13314 0.42509 0.43187 -0.02600
C 	C 	0.20917 0.44360 0.45738 -0.02700
C 	C 	0.25304 0.40745 0.43388 -0.02100
C 	C 	0.22067 0.34947 0.38780 -0.11900
C 	C 	0.14182 0.32855 0.36483 0.18500
C 	C 	0.14234 0.22718 0.30141 0.10400
C 	C 	0.53465 0.62104 0.45564 0.34400
C 	C 	0.56776 0.90449 0.45977 0.32700
C 	C 	0.63133 0.73204 0.38580 -0.11500
C 	C 	0.57491 0.70805 0.43187 -0.02600
C 	C 	0.55640 0.76557 0.45738 -0.02700
C 	C 	0.59255 0.84559 0.43388 -0.02100
C 	C 	0.65053 0.87120 0.38780 -0.11900
C 	C 	0.67145 0.81327 0.36483 0.18500
C 	C 	0.77282 0.91516 0.30141 0.10400
C 	C 	0.37896 0.91361 0.45564 0.34400
C 	C 	0.09551 0.66327 0.45977 0.32700
C 	C 	0.26796 0.89929 0.38580 -0.11500
C 	C 	0.29195 0.86686 0.43187 -0.02600
C 	C 	0.23443 0.79083 0.45738 -0.02700
C 	C 	0.15441 0.74696 0.43388 -0.02100
C 	C 	0.12880 0.77933 0.38780 -0.11900
C 	C 	0.18673 0.85818 0.36483 0.18500
C 	C 	0.08484 0.85766 0.30141 0.10400
C 	C 	0.91361 0.53465 0.95564 0.34500
C 	C 	0.66327 0.56776 0.95977 0.32700
C 	C 	0.89929 0.63133 0.88580 -0.11500
C 	C 	0.86686 0.57491 0.93187 -0.02600
C 	C 	0.79083 0.55640 0.95738 -0.02700
C 	C 	0.74696 0.59255 0.93388 -0.02100
C 	C 	0.77933 0.65053 0.88780 -0.11900
C 	C 	0.85818 0.67145 0.86483 0.18500
C 	C 	0.85766 0.77282 0.80141 0.10400
C 	C 	0.46535 0.37896 0.95564 0.34400
C 	C 	0.43224 0.09551 0.95977 0.32700
C 	C 	0.36867 0.26796 0.88580 -0.11500
C 	C 	0.42509 0.29195 0.93187 -0.02600
C 	C 	0.44360 0.23443 0.95738 -0.02700
C 	C 	0.40745 0.15441 0.93388 -0.02100
C 	C 	0.34947 0.12880 0.88780 -0.11900
C 	C 	0.32855 0.18673 0.86483 0.18500
C 	C 	0.22718 0.08484 0.80141 0.10400
C 	C 	0.62104 0.08639 0.95564 0.34500
C 	C 	0.90449 0.33673 0.95977 0.32700
C 	C 	0.73204 0.10071 0.88580 -0.11500
C 	C 	0.70805 0.13314 0.93187 -0.02600
C 	C 	0.76557 0.20917 0.95738 -0.02700
C 	C 	0.84559 0.25304 0.93388 -0.02100
C 	C 	0.87120 0.22067 0.88780 -0.11900
C 	C 	0.81327 0.14182 0.86483 0.18500
C 	C 	0.91516 0.14234 0.80141 0.10400
C 	C 	0.91252 0.82504 0.75000 -0.20300
C 	C 	0.91252 0.08748 0.75000 -0.20300
C 	C 	0.17496 0.08748 0.75000 -0.20300
C 	C 	0.08748 0.17496 0.25000 -0.20300
C 	C 	0.08748 0.91252 0.25000 -0.20300
C 	C 	0.82504 0.91252 0.25000 -0.20300
O 	O 	0.96785 0.58364 0.57034 -0.39200
O 	O 	0.88448 0.53196 0.49050 -0.40000
O 	O 	0.56719 0.53557 0.57710 -0.40500
O 	O 	0.60927 0.50512 0.49343 -0.40000
O 	O 	0.83066 0.72752 0.67915 -0.23400
O 	O 	0.61579 0.03215 0.57034 -0.39200
O 	O 	0.64748 0.11552 0.49050 -0.40000
O 	O 	0.96838 0.43281 0.57710 -0.40500
O 	O 	0.89585 0.39073 0.49343 -0.40000
O 	O 	0.89686 0.16934 0.67915 -0.23400
O 	O 	0.41636 0.38421 0.57034 -0.39200
O 	O 	0.46804 0.35252 0.49050 -0.40000
O 	O 	0.46443 0.03162 0.57710 -0.40500
O 	O 	0.49488 0.10415 0.49343 -0.40000
O 	O 	0.27248 0.10314 0.67915 -0.23400
O 	O 	0.03215 0.41636 0.07034 -0.39200
O 	O 	0.11552 0.46804 0.99050 -0.40100
O 	O 	0.43281 0.46443 0.07710 -0.40500
O 	O 	0.39073 0.49488 0.99343 -0.40100
O 	O 	0.16934 0.27248 0.17915 -0.23400
O 	O 	0.38421 0.96785 0.07034 -0.39200
O 	O 	0.35252 0.88448 0.99050 -0.40100
O 	O 	0.03162 0.56719 0.07710 -0.40500
O 	O 	0.10415 0.60927 0.99343 -0.40100
O 	O 	0.10314 0.83066 0.17915 -0.23400
O 	O 	0.58364 0.61579 0.07034 -0.39200
O 	O 	0.53196 0.64748 0.99050 -0.40100
O 	O 	0.53557 0.96838 0.07710 -0.40500
O 	O 	0.50512 0.89585 0.99343 -0.40100
O 	O 	0.72752 0.89686 0.17915 -0.23400
O 	O 	0.38421 0.41636 0.42966 -0.39200
O 	O 	0.35252 0.46804 0.50950 -0.40000
O 	O 	0.03162 0.46443 0.42290 -0.40500
O 	O 	0.10415 0.49488 0.50657 -0.40000
O 	O 	0.10314 0.27248 0.32085 -0.23400
O 	O 	0.58364 0.96785 0.42966 -0.39200
O 	O 	0.53196 0.88448 0.50950 -0.40000
O 	O 	0.53557 0.56719 0.42290 -0.40500
O 	O 	0.50512 0.60927 0.50657 -0.40000
O 	O 	0.72752 0.83066 0.32085 -0.23400
O 	O 	0.03215 0.61579 0.42966 -0.39200
O 	O 	0.11552 0.64748 0.50950 -0.40000
O 	O 	0.43281 0.96838 0.42290 -0.40500
O 	O 	0.39073 0.89585 0.50657 -0.40000
O 	O 	0.16934 0.89686 0.32085 -0.23400
O 	O 	0.61579 0.58364 0.92966 -0.39200
O 	O 	0.64748 0.53196 0.00950 -0.40100
O 	O 	0.96838 0.53557 0.92290 -0.40500
O 	O 	0.89585 0.50512 0.00657 -0.40100
O 	O 	0.89686 0.72752 0.82085 -0.23400
O 	O 	0.41636 0.03215 0.92966 -0.39200
O 	O 	0.46804 0.11552 0.00950 -0.40100
O 	O 	0.46443 0.43281 0.92290 -0.40500
O 	O 	0.49488 0.39073 0.00657 -0.40100
O 	O 	0.27248 0.16934 0.82085 -0.23400
O 	O 	0.96785 0.38421 0.92966 -0.39200
O 	O 	0.88448 0.35252 0.00950 -0.40100
O 	O 	0.56719 0.03162 0.92290 -0.40500
O 	O 	0.60927 0.10415 0.00657 -0.40100
O 	O 	0.83066 0.10314 0.82085 -0.23400
