data_crystal

_cell_length_a 9.17430
_cell_length_b 10.84880
_cell_length_c 11.34580
_cell_angle_alpha 113.47900
_cell_angle_beta  98.72600
_cell_angle_gamma 98.01600

_symmetry_space_group_name_	'P 1'
_symmetry_space_group_name_H-M	'P 1'

loop_
_symmetry_equiv_pos_as_xyz
  x,y,z

loop_
_atom_site_label
_atom_site_type_symbol
_atom_site_fract_x
_atom_site_fract_y
_atom_site_fract_z
_atom_site_charge
Zn	Zn	0.81965 0.38671 0.38601 1.19600
O 	O 	0.75010 0.21810 0.40570 -0.48200
O 	O 	0.71540 0.40610 0.23620 -0.49700
O 	O 	0.55040 0.52270 0.33380 -0.46600
O 	O 	0.54480 0.30280 0.42980 -0.48900
N 	N 	0.97140 0.62890 0.64510 -0.23300
C 	C 	0.44450 0.56350 0.11100 -0.01800
H 	H 	0.40740 0.60600 0.18560 0.04700
C 	C 	0.62110 0.21670 0.43260 0.37500
N 	N 	0.72570 0.59070 0.60700 -0.19300
C 	C 	0.60780 0.47080 0.23860 0.38200
C 	C 	0.60720 0.42230 0.00170 -0.01600
H 	H 	0.67920 0.37010 0.00310 0.04700
N 	N 	0.84250 0.55130 0.55870 -0.21800
C 	C 	0.55770 0.10470 0.46730 -0.08700
C 	C 	0.55300 0.48550 0.11440 -0.08600
C 	C 	0.63210 0.99630 0.45410 -0.01900
H 	H 	0.72060 0.99400 0.42350 0.05000
C 	C 	0.93330 0.71970 0.75040 0.01500
H 	H 	0.00020 0.78730 0.82610 0.01100
C 	C 	0.42780 0.10710 0.51280 -0.01400
H 	H 	0.37910 0.17890 0.52170 0.04500
C 	C 	0.78230 0.69600 0.72720 0.01300
H 	H 	0.72610 0.74390 0.78440 0.02700
Zn	Zn	0.18035 0.61329 0.61399 1.19500
O 	O 	0.24990 0.78190 0.59430 -0.48200
O 	O 	0.28460 0.59390 0.76380 -0.49700
O 	O 	0.44960 0.47730 0.66620 -0.46600
O 	O 	0.45520 0.69720 0.57020 -0.48900
N 	N 	0.02860 0.37110 0.35490 -0.23300
C 	C 	0.55550 0.43650 0.88900 -0.01800
H 	H 	0.59260 0.39400 0.81440 0.04700
C 	C 	0.37890 0.78330 0.56740 0.37500
N 	N 	0.27430 0.40930 0.39300 -0.19300
C 	C 	0.39220 0.52920 0.76140 0.38200
C 	C 	0.39280 0.57770 0.99830 -0.01600
H 	H 	0.32080 0.62990 0.99690 0.04700
N 	N 	0.15750 0.44870 0.44130 -0.21800
C 	C 	0.44230 0.89530 0.53270 -0.08700
C 	C 	0.44700 0.51450 0.88560 -0.08600
C 	C 	0.36790 0.00370 0.54590 -0.01900
H 	H 	0.27940 0.00600 0.57650 0.05000
C 	C 	0.06670 0.28030 0.24960 0.01500
H 	H 	0.99980 0.21270 0.17390 0.01100
C 	C 	0.57220 0.89290 0.48720 -0.01400
H 	H 	0.62090 0.82110 0.47830 0.04500
C 	C 	0.21770 0.30400 0.27280 0.01300
H 	H 	0.27390 0.25610 0.21560 0.02700
Zn	Zn	0.50000 0.50000 0.50000 1.22100
