data_crystal

_cell_length_a 14.71300
_cell_length_b 14.71300
_cell_length_c 37.43600
_cell_angle_alpha 90.00000
_cell_angle_beta  90.00000
_cell_angle_gamma 120.00000

_symmetry_space_group_name_	'P 1'
_symmetry_space_group_name_H-M	'P 1'

loop_
_symmetry_equiv_pos_as_xyz
  x,y,z

loop_
_atom_site_label
_atom_site_type_symbol
_atom_site_fract_x
_atom_site_fract_y
_atom_site_fract_z
_atom_site_charge
N 	N 	0.42020 0.80250 0.69941 -0.22400
N 	N 	0.51890 0.02320 0.75393 -0.14700
N 	N 	0.42670 0.99360 0.74886 -0.10300
N 	N 	0.53940 0.21430 0.80129 -0.23000
C 	C 	0.47650 0.87250 0.71540 -0.02400
C 	C 	0.56020 0.96470 0.73430 0.35100
C 	C 	0.38670 0.05660 0.76710 0.24200
C 	C 	0.47470 0.14700 0.78621 0.00000
C 	C 	0.61150 0.92840 0.76180 -0.71000
H 	H 	0.66610 0.98890 0.77430 0.22000
H 	H 	0.64200 0.89160 0.74980 0.21200
H 	H 	0.55910 0.88170 0.77880 0.21900
C 	C 	0.63680 0.04090 0.70620 -0.71700
H 	H 	0.69240 0.10210 0.71810 0.21300
H 	H 	0.59930 0.06250 0.69020 0.21600
H 	H 	0.66680 0.00610 0.69270 0.20800
C 	C 	0.34360 0.09610 0.73770 -0.59300
H 	H 	0.28630 0.03670 0.72560 0.17200
H 	H 	0.39880 0.13700 0.72060 0.17800
H 	H 	0.31820 0.13960 0.74810 0.17100
C 	C 	0.30430 0.98570 0.79360 -0.53000
H 	H 	0.24720 0.92750 0.78100 0.16300
H 	H 	0.27760 0.02500 0.80620 0.14600
H 	H 	0.33510 0.95890 0.81050 0.16900
N 	N 	0.08687 0.13583 0.03274 -0.23400
N 	N 	0.18557 0.35653 0.08726 -0.12500
N 	N 	0.09337 0.32693 0.08219 -0.13000
N 	N 	0.20607 0.54763 0.13462 -0.22200
C 	C 	0.14317 0.20583 0.04873 -0.01900
C 	C 	0.22687 0.29803 0.06763 0.30300
C 	C 	0.05337 0.38993 0.10043 0.31300
C 	C 	0.14137 0.48033 0.11954 -0.02200
C 	C 	0.27817 0.26173 0.09513 -0.65700
H 	H 	0.33277 0.32223 0.10763 0.19700
H 	H 	0.30867 0.22493 0.08313 0.19200
H 	H 	0.22577 0.21503 0.11213 0.19800
C 	C 	0.30347 0.37423 0.03953 -0.65400
H 	H 	0.35907 0.43543 0.05143 0.19700
H 	H 	0.26597 0.39583 0.02353 0.19900
H 	H 	0.33347 0.33943 0.02603 0.19400
C 	C 	0.01027 0.42943 0.07103 -0.77000
H 	H 	0.95297 0.37003 0.05893 0.23700
H 	H 	0.06547 0.47033 0.05393 0.22700
H 	H 	0.98487 0.47293 0.08143 0.23600
C 	C 	0.97097 0.31903 0.12693 -0.60000
H 	H 	0.91387 0.26083 0.11433 0.18200
H 	H 	0.94427 0.35833 0.13953 0.18300
H 	H 	0.00177 0.29223 0.14383 0.17100
N 	N 	0.75353 0.46917 0.36608 -0.23100
N 	N 	0.85223 0.68987 0.42060 -0.11800
N 	N 	0.76003 0.66027 0.41553 -0.12800
N 	N 	0.87273 0.88097 0.46796 -0.21300
C 	C 	0.80983 0.53917 0.38207 0.00000
C 	C 	0.89353 0.63137 0.40097 0.27000
C 	C 	0.72003 0.72327 0.43377 0.32600
C 	C 	0.80803 0.81367 0.45288 -0.01900
C 	C 	0.94483 0.59507 0.42847 -0.63500
H 	H 	0.99943 0.65557 0.44097 0.19800
H 	H 	0.97533 0.55827 0.41647 0.19300
H 	H 	0.89243 0.54837 0.44547 0.19700
C 	C 	0.97013 0.70757 0.37287 -0.52400
H 	H 	0.02573 0.76877 0.38477 0.15100
H 	H 	0.93263 0.72917 0.35687 0.16900
H 	H 	0.00013 0.67277 0.35937 0.14700
C 	C 	0.67693 0.76277 0.40437 -0.67500
H 	H 	0.61963 0.70337 0.39227 0.20100
H 	H 	0.73213 0.80367 0.38727 0.20400
H 	H 	0.65153 0.80627 0.41477 0.19800
C 	C 	0.63763 0.65237 0.46027 -0.69400
H 	H 	0.58053 0.59417 0.44767 0.20700
H 	H 	0.61093 0.69167 0.47287 0.20700
H 	H 	0.66843 0.62557 0.47717 0.21300
N 	N 	0.19750 0.61770 0.69941 -0.23000
N 	N 	0.97680 0.49570 0.75393 -0.11100
N 	N 	0.00640 0.43310 0.74886 -0.14500
N 	N 	0.78570 0.32510 0.80129 -0.21600
C 	C 	0.12750 0.60400 0.71540 -0.01000
C 	C 	0.03530 0.59550 0.73430 0.28100
C 	C 	0.94340 0.33010 0.76710 0.37500
C 	C 	0.85300 0.32770 0.78621 -0.03500
C 	C 	0.07160 0.68310 0.76180 -0.64400
H 	H 	0.01110 0.67720 0.77430 0.19000
H 	H 	0.10840 0.75040 0.74980 0.19200
H 	H 	0.11830 0.67740 0.77880 0.19700
C 	C 	0.95910 0.59590 0.70620 -0.62900
H 	H 	0.89790 0.59030 0.71810 0.19300
H 	H 	0.93750 0.53680 0.69020 0.19600
H 	H 	0.99390 0.66070 0.69270 0.19500
C 	C 	0.90390 0.24750 0.73770 -0.71500
H 	H 	0.96330 0.24960 0.72560 0.21500
H 	H 	0.86300 0.26180 0.72060 0.21400
H 	H 	0.86040 0.17860 0.74810 0.20600
C 	C 	0.01430 0.31860 0.79360 -0.79800
H 	H 	0.07250 0.31970 0.78100 0.23300
H 	H 	0.97500 0.25260 0.80620 0.24400
H 	H 	0.04110 0.37620 0.81050 0.23900
N 	N 	0.86417 0.95103 0.03274 -0.21800
N 	N 	0.64347 0.82903 0.08726 -0.12600
N 	N 	0.67307 0.76643 0.08219 -0.12600
N 	N 	0.45237 0.65843 0.13462 -0.22100
C 	C 	0.79417 0.93733 0.04873 -0.01700
C 	C 	0.70197 0.92883 0.06763 0.33000
C 	C 	0.61007 0.66343 0.10043 0.32400
C 	C 	0.51967 0.66103 0.11954 -0.02100
C 	C 	0.73827 0.01643 0.09513 -0.70000
H 	H 	0.67777 0.01053 0.10763 0.20600
H 	H 	0.77507 0.08373 0.08313 0.20500
H 	H 	0.78497 0.01073 0.11213 0.21100
C 	C 	0.62577 0.92923 0.03953 -0.68500
H 	H 	0.56457 0.92363 0.05143 0.21100
H 	H 	0.60417 0.87013 0.02353 0.20900
H 	H 	0.66057 0.99403 0.02603 0.20900
C 	C 	0.57057 0.58083 0.07103 -0.67000
H 	H 	0.62997 0.58293 0.05893 0.19900
H 	H 	0.52967 0.59513 0.05393 0.20100
H 	H 	0.52707 0.51193 0.08143 0.19500
C 	C 	0.68097 0.65193 0.12693 -0.69400
H 	H 	0.73917 0.65303 0.11433 0.20800
H 	H 	0.64167 0.58593 0.13953 0.20700
H 	H 	0.70777 0.70953 0.14383 0.21400
N 	N 	0.53083 0.28437 0.36608 -0.22800
N 	N 	0.31013 0.16237 0.42060 -0.12700
N 	N 	0.33973 0.09977 0.41553 -0.13300
N 	N 	0.11903 0.99177 0.46796 -0.21900
C 	C 	0.46083 0.27067 0.38207 -0.01500
C 	C 	0.36863 0.26217 0.40097 0.30500
C 	C 	0.27673 0.99677 0.43377 0.31500
C 	C 	0.18633 0.99437 0.45288 -0.01200
C 	C 	0.40493 0.34977 0.42847 -0.66300
H 	H 	0.34443 0.34387 0.44097 0.19900
H 	H 	0.44173 0.41707 0.41647 0.19500
H 	H 	0.45163 0.34407 0.44547 0.20200
C 	C 	0.29243 0.26257 0.37287 -0.65600
H 	H 	0.23123 0.25697 0.38477 0.19600
H 	H 	0.27083 0.20347 0.35687 0.19900
H 	H 	0.32723 0.32737 0.35937 0.19600
C 	C 	0.23723 0.91417 0.40437 -0.66200
H 	H 	0.29663 0.91627 0.39227 0.20000
H 	H 	0.19633 0.92847 0.38727 0.20200
H 	H 	0.19373 0.84527 0.41477 0.19300
C 	C 	0.34763 0.98527 0.46027 -0.62900
H 	H 	0.40583 0.98637 0.44767 0.19300
H 	H 	0.30833 0.91927 0.47287 0.18900
H 	H 	0.37443 0.04287 0.47717 0.18200
N 	N 	0.38230 0.57980 0.69941 -0.22800
N 	N 	0.50430 0.48110 0.75393 -0.12500
N 	N 	0.56690 0.57330 0.74886 -0.12800
N 	N 	0.67490 0.46060 0.80129 -0.22100
C 	C 	0.39600 0.52350 0.71540 -0.01500
C 	C 	0.40450 0.43980 0.73430 0.30600
C 	C 	0.66990 0.61330 0.76710 0.32800
C 	C 	0.67230 0.52530 0.78621 -0.02100
C 	C 	0.31690 0.38850 0.76180 -0.65900
H 	H 	0.32280 0.33390 0.77430 0.19800
H 	H 	0.24960 0.35800 0.74980 0.19100
H 	H 	0.32260 0.44090 0.77880 0.20100
C 	C 	0.40410 0.36320 0.70620 -0.66000
H 	H 	0.40970 0.30760 0.71810 0.20000
H 	H 	0.46320 0.40070 0.69020 0.20300
H 	H 	0.33930 0.33320 0.69270 0.19600
C 	C 	0.75250 0.65640 0.73770 -0.68000
H 	H 	0.75040 0.71370 0.72560 0.20500
H 	H 	0.73820 0.60120 0.72060 0.20500
H 	H 	0.82140 0.68180 0.74810 0.20200
C 	C 	0.68140 0.69570 0.79360 -0.69800
H 	H 	0.68030 0.75280 0.78100 0.20900
H 	H 	0.74740 0.72240 0.80620 0.21000
H 	H 	0.62380 0.66490 0.81050 0.21400
N 	N 	0.04897 0.91313 0.03274 -0.22700
N 	N 	0.17097 0.81443 0.08726 -0.12400
N 	N 	0.23357 0.90663 0.08219 -0.12500
N 	N 	0.34157 0.79393 0.13462 -0.22100
C 	C 	0.06267 0.85683 0.04873 -0.01100
C 	C 	0.07117 0.77313 0.06763 0.28500
C 	C 	0.33657 0.94663 0.10043 0.32300
C 	C 	0.33897 0.85863 0.11954 -0.01800
C 	C 	0.98357 0.72183 0.09513 -0.63400
H 	H 	0.98947 0.66723 0.10763 0.19700
H 	H 	0.91627 0.69133 0.08313 0.19000
H 	H 	0.98927 0.77423 0.11213 0.20200
C 	C 	0.07077 0.69653 0.03953 -0.63600
H 	H 	0.07637 0.64093 0.05143 0.18700
H 	H 	0.12987 0.73403 0.02353 0.19500
H 	H 	0.00597 0.66653 0.02603 0.18500
C 	C 	0.41917 0.98973 0.07103 -0.57100
H 	H 	0.41707 0.04703 0.05893 0.16100
H 	H 	0.40487 0.93453 0.05393 0.17500
H 	H 	0.48807 0.01513 0.08143 0.15600
C 	C 	0.34807 0.02903 0.12693 -0.75100
H 	H 	0.34697 0.08613 0.11433 0.22000
H 	H 	0.41407 0.05573 0.13953 0.22000
H 	H 	0.29047 0.99823 0.14383 0.23900
N 	N 	0.71563 0.24647 0.36608 -0.22400
N 	N 	0.83763 0.14777 0.42060 -0.12800
N 	N 	0.90023 0.23997 0.41553 -0.12000
N 	N 	0.00823 0.12727 0.46796 -0.22500
C 	C 	0.72933 0.19017 0.38207 -0.02600
C 	C 	0.73783 0.10647 0.40097 0.34100
C 	C 	0.00323 0.27997 0.43377 0.32700
C 	C 	0.00563 0.19197 0.45288 -0.03200
C 	C 	0.65023 0.05517 0.42847 -0.69200
H 	H 	0.65613 0.00057 0.44097 0.20300
H 	H 	0.58293 0.02467 0.41647 0.20000
H 	H 	0.65593 0.10757 0.44547 0.21000
C 	C 	0.73743 0.02987 0.37287 -0.77700
H 	H 	0.74303 0.97427 0.38477 0.24300
H 	H 	0.79653 0.06737 0.35687 0.23600
H 	H 	0.67263 0.99987 0.35937 0.24100
C 	C 	0.08583 0.32307 0.40437 -0.67300
H 	H 	0.08373 0.38037 0.39227 0.19800
H 	H 	0.07153 0.26787 0.38727 0.19700
H 	H 	0.15473 0.34847 0.41477 0.19600
C 	C 	0.01473 0.36237 0.46027 -0.74900
H 	H 	0.01363 0.41947 0.44767 0.21700
H 	H 	0.08073 0.38907 0.47287 0.22100
H 	H 	0.95713 0.33157 0.47717 0.24000
N 	N 	0.57980 0.19750 0.30059 -0.23100
N 	N 	0.48110 0.97680 0.24607 -0.11000
N 	N 	0.57330 0.00640 0.25114 -0.14400
N 	N 	0.46060 0.78570 0.19871 -0.21600
C 	C 	0.52350 0.12750 0.28460 -0.00900
C 	C 	0.43980 0.03530 0.26570 0.27500
C 	C 	0.61330 0.94340 0.23290 0.37600
C 	C 	0.52530 0.85300 0.21379 -0.03400
C 	C 	0.38850 0.07160 0.23820 -0.63200
H 	H 	0.33390 0.01110 0.22570 0.18500
H 	H 	0.35800 0.10840 0.25020 0.18400
H 	H 	0.44090 0.11830 0.22120 0.19200
C 	C 	0.36320 0.95910 0.29380 -0.62200
H 	H 	0.30760 0.89790 0.28190 0.19100
H 	H 	0.40070 0.93750 0.30980 0.19400
H 	H 	0.33320 0.99390 0.30730 0.19200
C 	C 	0.65640 0.90390 0.26230 -0.72200
H 	H 	0.71370 0.96330 0.27440 0.21900
H 	H 	0.60120 0.86300 0.27940 0.21700
H 	H 	0.68180 0.86040 0.25190 0.21300
C 	C 	0.69570 0.01430 0.20640 -0.79500
H 	H 	0.75280 0.07250 0.21900 0.23400
H 	H 	0.72240 0.97500 0.19380 0.24500
H 	H 	0.66490 0.04110 0.18950 0.23900
N 	N 	0.24647 0.53083 0.63392 -0.22400
N 	N 	0.14777 0.31013 0.57940 -0.13200
N 	N 	0.23997 0.33973 0.58447 -0.12700
N 	N 	0.12727 0.11903 0.53204 -0.22600
C 	C 	0.19017 0.46083 0.61793 -0.02800
C 	C 	0.10647 0.36863 0.59903 0.34200
C 	C 	0.27997 0.27673 0.56623 0.32000
C 	C 	0.19197 0.18633 0.54712 -0.02300
C 	C 	0.05517 0.40493 0.57153 -0.69200
H 	H 	0.00057 0.34443 0.55903 0.20200
H 	H 	0.02467 0.44173 0.58353 0.20000
H 	H 	0.10757 0.45163 0.55453 0.20900
C 	C 	0.02987 0.29243 0.62713 -0.78500
H 	H 	0.97427 0.23123 0.61523 0.24500
H 	H 	0.06737 0.27083 0.64313 0.23400
H 	H 	0.99987 0.32723 0.64063 0.24400
C 	C 	0.32307 0.23723 0.59563 -0.66600
H 	H 	0.38037 0.29663 0.60773 0.19800
H 	H 	0.26787 0.19633 0.61273 0.19900
H 	H 	0.34847 0.19373 0.58523 0.19400
C 	C 	0.36237 0.34763 0.53973 -0.68700
H 	H 	0.41947 0.40583 0.55233 0.20400
H 	H 	0.38907 0.30833 0.52713 0.20400
H 	H 	0.33157 0.37443 0.52283 0.21000
N 	N 	0.91313 0.86417 0.96726 -0.21600
N 	N 	0.81443 0.64347 0.91274 -0.12500
N 	N 	0.90663 0.67307 0.91781 -0.12400
N 	N 	0.79393 0.45237 0.86538 -0.22100
C 	C 	0.85683 0.79417 0.95127 -0.01300
C 	C 	0.77313 0.70197 0.93237 0.31500
C 	C 	0.94663 0.61007 0.89957 0.32400
C 	C 	0.85863 0.51967 0.88046 -0.01700
C 	C 	0.72183 0.73827 0.90487 -0.67600
H 	H 	0.66723 0.67777 0.89237 0.20400
H 	H 	0.69133 0.77507 0.91687 0.20200
H 	H 	0.77423 0.78497 0.88787 0.21000
C 	C 	0.69653 0.62577 0.96047 -0.67200
H 	H 	0.64093 0.56457 0.94857 0.20400
H 	H 	0.73403 0.60417 0.97647 0.20900
H 	H 	0.66653 0.66057 0.97397 0.20300
C 	C 	0.98973 0.57057 0.92897 -0.58300
H 	H 	0.04703 0.62997 0.94107 0.16800
H 	H 	0.93453 0.52967 0.94607 0.18000
H 	H 	0.01513 0.52707 0.91857 0.16100
C 	C 	0.02903 0.68097 0.87307 -0.74700
H 	H 	0.08613 0.73917 0.88567 0.22200
H 	H 	0.05573 0.64167 0.86047 0.22000
H 	H 	0.99823 0.70777 0.85617 0.23800
N 	N 	0.80250 0.38230 0.30059 -0.22300
N 	N 	0.02320 0.50430 0.24607 -0.14600
N 	N 	0.99360 0.56690 0.25114 -0.10400
N 	N 	0.21430 0.67490 0.19871 -0.22800
C 	C 	0.87250 0.39600 0.28460 -0.02300
C 	C 	0.96470 0.40450 0.26570 0.35200
C 	C 	0.05660 0.66990 0.23290 0.25400
C 	C 	0.14700 0.67230 0.21379 -0.00200
C 	C 	0.92840 0.31690 0.23820 -0.70700
H 	H 	0.98890 0.32280 0.22570 0.21900
H 	H 	0.89160 0.24960 0.25020 0.20900
H 	H 	0.88170 0.32260 0.22120 0.21700
C 	C 	0.04090 0.40410 0.29380 -0.71700
H 	H 	0.10210 0.40970 0.28190 0.21300
H 	H 	0.06250 0.46320 0.30980 0.21600
H 	H 	0.00610 0.33930 0.30730 0.20700
C 	C 	0.09610 0.75250 0.26230 -0.60900
H 	H 	0.03670 0.75040 0.27440 0.17900
H 	H 	0.13700 0.73820 0.27940 0.18400
H 	H 	0.13960 0.82140 0.25190 0.17900
C 	C 	0.98570 0.68140 0.20640 -0.55300
H 	H 	0.92750 0.68030 0.21900 0.17100
H 	H 	0.02500 0.74740 0.19380 0.15600
H 	H 	0.95890 0.62380 0.18950 0.17600
N 	N 	0.46917 0.71563 0.63392 -0.22700
N 	N 	0.68987 0.83763 0.57940 -0.12300
N 	N 	0.66027 0.90023 0.58447 -0.12100
N 	N 	0.88097 0.00823 0.53204 -0.21800
C 	C 	0.53917 0.72933 0.61793 -0.01500
C 	C 	0.63137 0.73783 0.59903 0.31100
C 	C 	0.72327 0.00323 0.56623 0.33000
C 	C 	0.81367 0.00563 0.54712 -0.02900
C 	C 	0.59507 0.65023 0.57153 -0.66900
H 	H 	0.65557 0.65613 0.55903 0.20200
H 	H 	0.55827 0.58293 0.58353 0.19700
H 	H 	0.54837 0.65593 0.55453 0.20500
C 	C 	0.70757 0.73743 0.62713 -0.66900
H 	H 	0.76877 0.74303 0.61523 0.20400
H 	H 	0.72917 0.79653 0.64313 0.20900
H 	H 	0.67277 0.67263 0.64063 0.20100
C 	C 	0.76277 0.08583 0.59563 -0.67700
H 	H 	0.70337 0.08373 0.60773 0.19900
H 	H 	0.80367 0.07153 0.61273 0.20000
H 	H 	0.80627 0.15473 0.58523 0.19800
C 	C 	0.65237 0.01473 0.53973 -0.74700
H 	H 	0.59417 0.01363 0.55233 0.21700
H 	H 	0.69167 0.08073 0.52713 0.22100
H 	H 	0.62557 0.95713 0.52283 0.23900
N 	N 	0.13583 0.04897 0.96726 -0.23200
N 	N 	0.35653 0.17097 0.91274 -0.12400
N 	N 	0.32693 0.23357 0.91781 -0.12800
N 	N 	0.54763 0.34157 0.86538 -0.22200
C 	C 	0.20583 0.06267 0.95127 -0.01400
C 	C 	0.29803 0.07117 0.93237 0.28300
C 	C 	0.38993 0.33657 0.89957 0.32100
C 	C 	0.48033 0.33897 0.88046 -0.02100
C 	C 	0.26173 0.98357 0.90487 -0.62700
H 	H 	0.32223 0.98947 0.89237 0.19500
H 	H 	0.22493 0.91627 0.91687 0.18800
H 	H 	0.21503 0.98927 0.88787 0.19800
C 	C 	0.37423 0.07077 0.96047 -0.63800
H 	H 	0.43543 0.07637 0.94857 0.18900
H 	H 	0.39583 0.12987 0.97647 0.19700
H 	H 	0.33943 0.00597 0.97397 0.18700
C 	C 	0.42943 0.41917 0.92897 -0.67000
H 	H 	0.37003 0.41707 0.94107 0.20000
H 	H 	0.47033 0.40487 0.94607 0.20200
H 	H 	0.47293 0.48807 0.91857 0.19600
C 	C 	0.31903 0.34807 0.87307 -0.68600
H 	H 	0.26083 0.34697 0.88567 0.20300
H 	H 	0.35833 0.41407 0.86047 0.20400
H 	H 	0.29223 0.29047 0.85617 0.20800
N 	N 	0.61770 0.42020 0.30059 -0.22700
N 	N 	0.49570 0.51890 0.24607 -0.12600
N 	N 	0.43310 0.42670 0.25114 -0.12600
N 	N 	0.32510 0.53940 0.19871 -0.22200
C 	C 	0.60400 0.47650 0.28460 -0.01600
C 	C 	0.59550 0.56020 0.26570 0.31200
C 	C 	0.33010 0.38670 0.23290 0.31600
C 	C 	0.32770 0.47470 0.21379 -0.02000
C 	C 	0.68310 0.61150 0.23820 -0.67400
H 	H 	0.67720 0.66610 0.22570 0.20400
H 	H 	0.75040 0.64200 0.25020 0.20200
H 	H 	0.67740 0.55910 0.22120 0.20700
C 	C 	0.59590 0.63680 0.29380 -0.66700
H 	H 	0.59030 0.69240 0.28190 0.20100
H 	H 	0.53680 0.59930 0.30980 0.20500
H 	H 	0.66070 0.66680 0.30730 0.20100
C 	C 	0.24750 0.34360 0.26230 -0.65800
H 	H 	0.24960 0.28630 0.27440 0.19400
H 	H 	0.26180 0.39880 0.27940 0.19600
H 	H 	0.17860 0.31820 0.25190 0.18800
C 	C 	0.31860 0.30430 0.20640 -0.68000
H 	H 	0.31970 0.24720 0.21900 0.20100
H 	H 	0.25260 0.27760 0.19380 0.20000
H 	H 	0.37620 0.33510 0.18950 0.20800
N 	N 	0.28437 0.75353 0.63392 -0.23200
N 	N 	0.16237 0.85223 0.57940 -0.11900
N 	N 	0.09977 0.76003 0.58447 -0.13200
N 	N 	0.99177 0.87273 0.53204 -0.21400
C 	C 	0.27067 0.80983 0.61793 0.00200
C 	C 	0.26217 0.89353 0.59903 0.26200
C 	C 	0.99677 0.72003 0.56623 0.31800
C 	C 	0.99437 0.80803 0.54712 -0.01100
C 	C 	0.34977 0.94483 0.57153 -0.62700
H 	H 	0.34387 0.99943 0.55903 0.19500
H 	H 	0.41707 0.97533 0.58353 0.19000
H 	H 	0.34407 0.89243 0.55453 0.19400
C 	C 	0.26257 0.97013 0.62713 -0.50100
H 	H 	0.25697 0.02573 0.61523 0.14100
H 	H 	0.20347 0.93263 0.64313 0.16100
H 	H 	0.32737 0.00013 0.64063 0.13900
C 	C 	0.91417 0.67693 0.59563 -0.66600
H 	H 	0.91627 0.61963 0.60773 0.20100
H 	H 	0.92847 0.73213 0.61273 0.20400
H 	H 	0.84527 0.65153 0.58523 0.19500
C 	C 	0.98527 0.63763 0.53973 -0.63900
H 	H 	0.98637 0.58053 0.55233 0.19500
H 	H 	0.91927 0.61093 0.52713 0.19200
H 	H 	0.04287 0.66843 0.52283 0.18700
N 	N 	0.95103 0.08687 0.96726 -0.22100
N 	N 	0.82903 0.18557 0.91274 -0.12700
N 	N 	0.76643 0.09337 0.91781 -0.12900
N 	N 	0.65843 0.20607 0.86538 -0.22100
C 	C 	0.93733 0.14317 0.95127 -0.01900
C 	C 	0.92883 0.22687 0.93237 0.33200
C 	C 	0.66343 0.05337 0.89957 0.32100
C 	C 	0.66103 0.14137 0.88046 -0.02400
C 	C 	0.01643 0.27817 0.90487 -0.70000
H 	H 	0.01053 0.33277 0.89237 0.20500
H 	H 	0.08373 0.30867 0.91687 0.20300
H 	H 	0.01073 0.22577 0.88787 0.20600
C 	C 	0.92923 0.30347 0.96047 -0.69000
H 	H 	0.92363 0.35907 0.94857 0.21300
H 	H 	0.87013 0.26597 0.97647 0.21300
H 	H 	0.99403 0.33347 0.97397 0.21300
C 	C 	0.58083 0.01027 0.92897 -0.77800
H 	H 	0.58293 0.95297 0.94107 0.24100
H 	H 	0.59513 0.06547 0.94607 0.23100
H 	H 	0.51193 0.98487 0.91857 0.23900
C 	C 	0.65193 0.97097 0.87307 -0.61900
H 	H 	0.65303 0.91387 0.88567 0.18900
H 	H 	0.58593 0.94427 0.86047 0.18900
H 	H 	0.70953 0.00177 0.85617 0.17900
Fe	Fe	0.33333 0.66667 0.66667 1.12400
Fe	Fe	-0.00000 0.00000 -0.00000 1.10500
Fe	Fe	0.66667 0.33333 0.33333 1.12400
Fe	Fe	0.66667 0.33333 0.83333 1.11600
Fe	Fe	0.33333 0.66667 0.16667 1.11600
Fe	Fe	-0.00000 0.00000 0.50000 1.10000
