data_crystal

_cell_length_a 10.94640
_cell_length_b 15.90760
_cell_length_c 16.16040
_cell_angle_alpha 89.59200
_cell_angle_beta  89.68200
_cell_angle_gamma 86.28800

_symmetry_space_group_name_	'P 1'
_symmetry_space_group_name_H-M	'P 1'

loop_
_symmetry_equiv_pos_as_xyz
  x,y,z

loop_
_atom_site_label
_atom_site_type_symbol
_atom_site_fract_x
_atom_site_fract_y
_atom_site_fract_z
_atom_site_charge
Fe	Fe	0.97332 0.27936 0.24760 1.13200
N 	N 	0.01030 0.20069 0.14052 -0.23800
N 	N 	0.98830 0.02749 0.02612 -0.09700
N 	N 	0.93940 0.35747 0.35440 -0.24300
N 	N 	0.96710 0.48743 0.52769 -0.09300
N 	N 	0.95330 0.16981 0.32284 -0.24500
N 	N 	0.99950 0.03318 0.48014 -0.09500
N 	N 	0.99930 0.38767 0.17369 -0.24800
N 	N 	0.04230 0.52230 0.00743 -0.09300
N 	N 	0.16700 0.27182 0.27730 -0.23900
N 	N 	0.48830 0.26432 0.28773 -0.09300
N 	N 	0.77960 0.28212 0.22095 -0.24100
N 	N 	0.45990 0.26284 0.21458 -0.09300
C 	C 	0.03620 0.15610 0.08690 0.06300
C 	C 	0.06710 0.10030 0.01420 0.08300
C 	C 	0.20380 0.07360 0.01380 -0.16900
H 	H 	0.22630 0.04710 0.06760 0.07300
H 	H 	0.22110 0.03120 0.97000 0.07900
C 	C 	0.28110 0.14750 0.99870 -0.02200
H 	H 	0.36840 0.12720 0.99590 0.02000
H 	H 	0.27080 0.18700 0.04560 0.03100
C 	C 	0.24600 0.19390 0.91870 -0.13700
H 	H 	0.29470 0.24390 0.91270 0.05500
H 	H 	0.26500 0.15640 0.87110 0.05900
C 	C 	0.11100 0.22140 0.91860 -0.01800
H 	H 	0.08950 0.24750 0.86440 0.02000
H 	H 	0.09470 0.26460 0.96170 0.03000
C 	C 	0.03040 0.14870 0.93460 -0.17400
H 	H 	0.03700 0.10970 0.88710 0.08000
H 	H 	0.94400 0.17080 0.93920 0.07300
C 	C 	0.92270 0.38692 0.41810 0.07200
C 	C 	0.89840 0.41333 0.50472 0.07600
C 	C 	0.94110 0.33930 0.56207 -0.16900
H 	H 	0.02700 0.32100 0.54860 0.07300
H 	H 	0.93820 0.35860 0.62020 0.07500
C 	C 	0.86130 0.26490 0.55310 -0.02200
H 	H 	0.87210 0.24120 0.49690 0.03200
H 	H 	0.88770 0.22040 0.59350 0.02300
C 	C 	0.72740 0.29100 0.56740 -0.13500
H 	H 	0.71510 0.30860 0.62560 0.05800
H 	H 	0.67780 0.24220 0.55770 0.05400
C 	C 	0.68410 0.36290 0.51050 -0.02100
H 	H 	0.59820 0.38080 0.52430 0.02000
H 	H 	0.68630 0.34280 0.45260 0.03000
C 	C 	0.76230 0.43830 0.51720 -0.17000
H 	H 	0.74980 0.46410 0.57240 0.07600
H 	H 	0.73560 0.48100 0.47510 0.07300
C 	C 	0.94280 0.10890 0.35874 0.06600
C 	C 	0.91810 0.03100 0.40578 0.07700
C 	C 	0.94580 0.95300 0.35290 -0.16700
H 	H 	0.93680 0.90190 0.38720 0.07900
H 	H 	0.03160 0.95200 0.33310 0.07200
C 	C 	0.86010 0.95170 0.27880 -0.02300
H 	H 	0.87620 0.99900 0.24100 0.03100
H 	H 	0.87670 0.89850 0.24810 0.02200
C 	C 	0.72720 0.95910 0.30570 -0.13200
H 	H 	0.70860 0.90810 0.33760 0.05800
H 	H 	0.67440 0.96220 0.25610 0.05300
C 	C 	0.69850 0.03690 0.35870 -0.02300
H 	H 	0.70660 0.08810 0.32450 0.03200
H 	H 	0.61270 0.03720 0.37850 0.02100
C 	C 	0.78340 0.03910 0.43270 -0.17000
H 	H 	0.76690 0.99240 0.47110 0.07900
H 	H 	0.76680 0.09270 0.46260 0.07200
C 	C 	0.03640 0.44210 0.13684 0.07500
C 	C 	0.09460 0.51032 0.09147 0.07700
C 	C 	0.23170 0.48620 0.08380 -0.17000
H 	H 	0.24350 0.42890 0.06050 0.07300
H 	H 	0.26910 0.52570 0.04500 0.07600
C 	C 	0.29600 0.48840 0.16680 -0.02200
H 	H 	0.26740 0.44300 0.20280 0.03400
H 	H 	0.38520 0.47750 0.15810 0.02400
C 	C 	0.27230 0.57230 0.20980 -0.13400
H 	H 	0.30970 0.61690 0.17720 0.05800
H 	H 	0.31120 0.56960 0.26500 0.05400
C 	C 	0.13600 0.59440 0.21970 -0.02300
H 	H 	0.12330 0.65090 0.24480 0.02100
H 	H 	0.10050 0.55310 0.25750 0.03100
C 	C 	0.07050 0.59405 0.13666 -0.16700
H 	H 	0.09850 0.64030 0.10150 0.07500
H 	H 	0.98130 0.60450 0.14590 0.07200
C 	C 	0.26370 0.26483 0.30367 0.07200
C 	C 	0.38380 0.25949 0.34614 0.07600
C 	C 	0.40420 0.17510 0.39200 -0.16800
H 	H 	0.39430 0.12870 0.35270 0.07300
H 	H 	0.48920 0.16960 0.41300 0.07500
C 	C 	0.31630 0.16660 0.46380 -0.02200
H 	H 	0.33780 0.11330 0.49390 0.02100
H 	H 	0.23220 0.16390 0.44220 0.03200
C 	C 	0.31950 0.23990 0.52340 -0.13300
H 	H 	0.25670 0.23430 0.56700 0.05400
H 	H 	0.40060 0.23850 0.55040 0.05800
C 	C 	0.29580 0.32320 0.47880 -0.02400
H 	H 	0.30340 0.36970 0.51850 0.02400
H 	H 	0.21100 0.32720 0.45750 0.03300
C 	C 	0.38500 0.33360 0.40682 -0.16700
H 	H 	0.46880 0.33710 0.42880 0.07500
H 	H 	0.36240 0.38690 0.37700 0.07200
C 	C 	0.68300 0.27394 0.19701 0.07100
C 	C 	0.56530 0.25946 0.15616 0.07600
C 	C 	0.57430 0.17020 0.11990 -0.16800
H 	H 	0.60210 0.12950 0.16360 0.07300
H 	H 	0.49210 0.15570 0.10180 0.07600
C 	C 	0.66270 0.16220 0.04670 -0.02300
H 	H 	0.74720 0.16770 0.06660 0.03200
H 	H 	0.65910 0.10560 0.02210 0.02200
C 	C 	0.63260 0.22890 0.98070 -0.13400
H 	H 	0.69500 0.22390 0.93620 0.05400
H 	H 	0.55210 0.21930 0.95610 0.05800
C 	C 	0.62920 0.31660 0.01670 -0.02100
H 	H 	0.60550 0.35830 0.97300 0.02000
H 	H 	0.71200 0.32820 0.03610 0.03000
C 	C 	0.53920 0.32660 0.08850 -0.16900
H 	H 	0.45500 0.32220 0.06760 0.07500
H 	H 	0.54390 0.38330 0.11270 0.07200
Fe	Fe	0.02668 0.72064 0.75240 1.13100
N 	N 	0.98970 0.79931 0.85948 -0.23900
N 	N 	0.01170 0.97251 0.97388 -0.09700
N 	N 	0.06060 0.64253 0.64560 -0.24300
N 	N 	0.03290 0.51257 0.47231 -0.09300
N 	N 	0.04670 0.83019 0.67716 -0.24500
N 	N 	0.00050 0.96682 0.51986 -0.09500
N 	N 	0.00070 0.61233 0.82631 -0.24800
N 	N 	0.95770 0.47770 0.99257 -0.09300
N 	N 	0.83300 0.72818 0.72270 -0.23900
N 	N 	0.51170 0.73568 0.71227 -0.09300
N 	N 	0.22040 0.71788 0.77905 -0.24100
N 	N 	0.54010 0.73716 0.78542 -0.09300
C 	C 	0.96380 0.84390 0.91310 0.06300
C 	C 	0.93290 0.89970 0.98580 0.08300
C 	C 	0.79620 0.92640 0.98620 -0.16900
H 	H 	0.77370 0.95290 0.93240 0.07300
H 	H 	0.77890 0.96880 0.03000 0.07900
C 	C 	0.71890 0.85250 0.00130 -0.02200
H 	H 	0.63160 0.87280 0.00410 0.02000
H 	H 	0.72920 0.81300 0.95440 0.03100
C 	C 	0.75400 0.80610 0.08130 -0.13700
H 	H 	0.70530 0.75610 0.08730 0.05500
H 	H 	0.73500 0.84360 0.12890 0.05900
C 	C 	0.88900 0.77860 0.08140 -0.01800
H 	H 	0.91050 0.75250 0.13560 0.02000
H 	H 	0.90530 0.73540 0.03830 0.03000
C 	C 	0.96960 0.85130 0.06540 -0.17400
H 	H 	0.96300 0.89030 0.11290 0.08000
H 	H 	0.05600 0.82920 0.06080 0.07300
C 	C 	0.07730 0.61308 0.58190 0.07200
C 	C 	0.10160 0.58667 0.49528 0.07600
C 	C 	0.05890 0.66070 0.43793 -0.16900
H 	H 	0.97300 0.67900 0.45140 0.07300
H 	H 	0.06180 0.64140 0.37980 0.07500
C 	C 	0.13870 0.73510 0.44690 -0.02200
H 	H 	0.12790 0.75880 0.50310 0.03200
H 	H 	0.11230 0.77960 0.40650 0.02300
C 	C 	0.27260 0.70900 0.43260 -0.13500
H 	H 	0.28490 0.69140 0.37440 0.05800
H 	H 	0.32220 0.75780 0.44230 0.05400
C 	C 	0.31590 0.63710 0.48950 -0.02100
H 	H 	0.40180 0.61920 0.47570 0.02000
H 	H 	0.31370 0.65720 0.54740 0.03000
C 	C 	0.23770 0.56170 0.48280 -0.17000
H 	H 	0.25020 0.53590 0.42760 0.07600
H 	H 	0.26440 0.51900 0.52490 0.07300
C 	C 	0.05720 0.89110 0.64126 0.06600
C 	C 	0.08190 0.96900 0.59422 0.07700
C 	C 	0.05420 0.04700 0.64710 -0.16700
H 	H 	0.06320 0.09810 0.61280 0.07900
H 	H 	0.96840 0.04800 0.66690 0.07200
C 	C 	0.13990 0.04830 0.72120 -0.02300
H 	H 	0.12380 0.00100 0.75900 0.03100
H 	H 	0.12330 0.10150 0.75190 0.02200
C 	C 	0.27280 0.04090 0.69430 -0.13200
H 	H 	0.29140 0.09190 0.66240 0.05800
H 	H 	0.32560 0.03780 0.74390 0.05300
C 	C 	0.30150 0.96310 0.64130 -0.02300
H 	H 	0.29340 0.91190 0.67550 0.03200
H 	H 	0.38730 0.96280 0.62150 0.02100
C 	C 	0.21660 0.96090 0.56730 -0.17000
H 	H 	0.23310 0.00760 0.52890 0.07900
H 	H 	0.23320 0.90730 0.53740 0.07200
C 	C 	0.96360 0.55790 0.86316 0.07500
C 	C 	0.90540 0.48968 0.90853 0.07700
C 	C 	0.76830 0.51380 0.91620 -0.17000
H 	H 	0.75650 0.57110 0.93950 0.07300
H 	H 	0.73090 0.47430 0.95500 0.07600
C 	C 	0.70400 0.51160 0.83320 -0.02200
H 	H 	0.73260 0.55700 0.79720 0.03400
H 	H 	0.61480 0.52250 0.84190 0.02400
C 	C 	0.72770 0.42770 0.79020 -0.13400
H 	H 	0.69030 0.38310 0.82280 0.05800
H 	H 	0.68880 0.43040 0.73500 0.05400
C 	C 	0.86400 0.40560 0.78030 -0.02300
H 	H 	0.87670 0.34910 0.75520 0.02100
H 	H 	0.89950 0.44690 0.74250 0.03100
C 	C 	0.92950 0.40595 0.86334 -0.16700
H 	H 	0.90150 0.35970 0.89850 0.07500
H 	H 	0.01870 0.39550 0.85410 0.07200
C 	C 	0.73630 0.73517 0.69633 0.07200
C 	C 	0.61620 0.74051 0.65386 0.07600
C 	C 	0.59580 0.82490 0.60800 -0.16800
H 	H 	0.60570 0.87130 0.64730 0.07300
H 	H 	0.51080 0.83040 0.58700 0.07500
C 	C 	0.68370 0.83340 0.53620 -0.02200
H 	H 	0.66220 0.88670 0.50610 0.02100
H 	H 	0.76780 0.83610 0.55780 0.03200
C 	C 	0.68050 0.76010 0.47660 -0.13300
H 	H 	0.74330 0.76570 0.43300 0.05400
H 	H 	0.59940 0.76150 0.44960 0.05800
C 	C 	0.70420 0.67680 0.52120 -0.02400
H 	H 	0.69660 0.63030 0.48150 0.02400
H 	H 	0.78900 0.67280 0.54250 0.03300
C 	C 	0.61500 0.66640 0.59318 -0.16700
H 	H 	0.53120 0.66290 0.57120 0.07500
H 	H 	0.63760 0.61310 0.62300 0.07200
C 	C 	0.31700 0.72606 0.80299 0.07100
C 	C 	0.43470 0.74054 0.84384 0.07600
C 	C 	0.42570 0.82980 0.88010 -0.16800
H 	H 	0.39790 0.87050 0.83640 0.07300
H 	H 	0.50790 0.84430 0.89820 0.07600
C 	C 	0.33730 0.83780 0.95330 -0.02300
H 	H 	0.25280 0.83230 0.93340 0.03200
H 	H 	0.34090 0.89440 0.97790 0.02200
C 	C 	0.36740 0.77110 0.01930 -0.13400
H 	H 	0.30500 0.77610 0.06380 0.05400
H 	H 	0.44790 0.78070 0.04390 0.05800
C 	C 	0.37080 0.68340 0.98330 -0.02100
H 	H 	0.39450 0.64170 0.02700 0.02000
H 	H 	0.28800 0.67180 0.96390 0.03000
C 	C 	0.46080 0.67340 0.91150 -0.16900
H 	H 	0.54500 0.67780 0.93240 0.07500
H 	H 	0.45610 0.61670 0.88730 0.07200
